# Generated by pormake.
# Topology lcy, (6)-cn, num edge types: 1
# Building blocks:
#     Node 0, Type 0, BuildingBlock: OJICUG_clean_sbu_0, # of connection points: 6
#     Node 1, Type 0, BuildingBlock: OJICUG_clean_sbu_0, # of connection points: 6
#     Node 2, Type 0, BuildingBlock: OJICUG_clean_sbu_0, # of connection points: 6
#     Node 3, Type 0, BuildingBlock: OJICUG_clean_sbu_0, # of connection points: 6
#     Edge 4, Type (0, 0), BuildingBlock: EYOCIG_clean_linker_4, # of connection points: 2
#     Edge 5, Type (0, 0), BuildingBlock: EYOCIG_clean_linker_4, # of connection points: 2
#     Edge 6, Type (0, 0), BuildingBlock: EYOCIG_clean_linker_4, # of connection points: 2
#     Edge 7, Type (0, 0), BuildingBlock: EYOCIG_clean_linker_4, # of connection points: 2
#     Edge 8, Type (0, 0), BuildingBlock: EYOCIG_clean_linker_4, # of connection points: 2
#     Edge 9, Type (0, 0), BuildingBlock: EYOCIG_clean_linker_4, # of connection points: 2
#     Edge 10, Type (0, 0), BuildingBlock: EYOCIG_clean_linker_4, # of connection points: 2
#     Edge 11, Type (0, 0), BuildingBlock: EYOCIG_clean_linker_4, # of connection points: 2
#     Edge 12, Type (0, 0), BuildingBlock: EYOCIG_clean_linker_4, # of connection points: 2
#     Edge 13, Type (0, 0), BuildingBlock: EYOCIG_clean_linker_4, # of connection points: 2
#     Edge 14, Type (0, 0), BuildingBlock: EYOCIG_clean_linker_4, # of connection points: 2
#     Edge 15, Type (0, 0), BuildingBlock: EYOCIG_clean_linker_4, # of connection points: 2
# Relax obj value: 0.357
# Max RMSD: 0.279
# Mean RMSD: 0.279
data_MOF--net-lcy--node1-OJICUG_clean_sbu_0--edge1-EYOCIG_clean_linker_4
_symmetry_space_group_name_H-M    P1
_symmetry_Int_Tables_number       1
_symmetry_cell_setting            triclinic
loop_
_symmetry_equiv_pos_as_xyz
'x, y, z'
_cell_length_a     21.672599
_cell_length_b     21.700362
_cell_length_c     21.676037
_cell_angle_alpha  90.006214
_cell_angle_beta   89.994155
_cell_angle_gamma 90.023033
loop_
_atom_site_label
_atom_site_type_symbol
_atom_site_fract_x
_atom_site_fract_y
_atom_site_fract_z
_atom_type_partial_charge
Sc0 Sc 0.28802 0.41646 0.35245 0.0
Sc1 Sc 0.35362 0.28789 0.41761 0.0
Sc2 Sc 0.41782 0.35245 0.28791 0.0
O3 O 0.35314 0.35226 0.35267 0.0
C4 C 0.29546 0.39688 0.21559 0.0
C5 C 0.21654 0.29417 0.39823 0.0
C6 C 0.3991 0.21559 0.29561 0.0
C7 C 0.30764 0.40985 0.48948 0.0
C8 C 0.40978 0.48923 0.30701 0.0
C9 C 0.49044 0.30788 0.41002 0.0
O10 O 0.26091 0.39004 0.26216 0.0
O11 O 0.26337 0.25992 0.39196 0.0
O12 O 0.39229 0.26197 0.26089 0.0
O13 O 0.31375 0.44424 0.44273 0.0
O14 O 0.44463 0.44292 0.31368 0.0
O15 O 0.4439 0.31451 0.44464 0.0
O16 O 0.35106 0.48605 0.31296 0.0
O17 O 0.31406 0.35124 0.48688 0.0
O18 O 0.48747 0.31362 0.35129 0.0
O19 O 0.21899 0.35281 0.39196 0.0
O20 O 0.35422 0.3913 0.21846 0.0
O21 O 0.39321 0.21859 0.35433 0.0
Sc22 Sc 0.91769 0.10188 0.66748 0.0
Sc23 Sc 0.78798 0.03776 0.60281 0.0
Sc24 Sc 0.85376 0.16625 0.53759 0.0
O25 O 0.85312 0.10197 0.60263 0.0
C26 C 0.89906 0.23872 0.65956 0.0
C27 C 0.79521 0.05752 0.73966 0.0
C28 C 0.71662 0.16 0.55682 0.0
C29 C 0.90964 0.96506 0.64852 0.0
C30 C -0.00946 0.14627 0.54543 0.0
C31 C 0.80786 0.04422 0.46581 0.0
O32 O 0.89213 0.19238 0.69433 0.0
O33 O 0.76074 0.06428 0.69303 0.0
O34 O 0.76347 0.19426 0.56302 0.0
O35 O 0.94452 0.01138 0.64191 0.0
O36 O 0.94405 0.13956 0.51076 0.0
O37 O 0.81384 0.00988 0.51261 0.0
O38 O -0.01253 0.14065 0.60416 0.0
O39 O 0.85094 0.96821 0.64245 0.0
O40 O 0.81429 0.10283 0.46835 0.0
O41 O 0.85396 0.06311 0.73688 0.0
O42 O 0.89328 0.23564 0.60084 0.0
O43 O 0.71902 0.10137 0.56318 0.0
Sc44 Sc 0.16783 0.53786 0.85237 0.0
Sc45 Sc 0.10211 0.66633 0.91765 0.0
Sc46 Sc 0.03794 0.60175 0.78795 0.0
O47 O 0.10265 0.60199 0.85267 0.0
C48 C 0.1603 0.55746 0.71554 0.0
C49 C 0.2392 0.6602 0.8982 0.0
C50 C 0.05654 0.73863 0.7957 0.0
C51 C 0.14823 0.54438 -0.01058 0.0
C52 C 0.04613 0.46498 0.80697 0.0
C53 C 0.96531 0.64621 0.9101 0.0
O54 O 0.19486 0.56438 0.76208 0.0
O55 O 0.19233 0.6944 0.892 0.0
O56 O 0.06335 0.69226 0.76094 0.0
O57 O 0.1422 0.51 0.94265 0.0
O58 O 0.01124 0.51124 0.81371 0.0
O59 O 0.01186 0.6396 0.9447 0.0
O60 O 0.10485 0.46822 0.81287 0.0
O61 O 0.14172 0.60298 -0.01313 0.0
O62 O 0.96827 0.6405 0.85137 0.0
O63 O 0.23682 0.60157 0.89187 0.0
O64 O 0.10154 0.56296 0.71845 0.0
O65 O 0.06246 0.73562 0.85441 0.0
Sc66 Sc 0.60203 0.78797 0.03761 0.0
Sc67 Sc 0.66783 0.91647 0.10283 0.0
Sc68 Sc 0.53804 0.85244 0.16746 0.0
O69 O 0.60266 0.85229 0.10263 0.0
C70 C 0.46525 0.80802 0.0454 0.0
C71 C 0.64798 0.90997 0.96581 0.0
C72 C 0.54617 -0.01076 0.14844 0.0
C73 C 0.73916 0.79419 0.0569 0.0
C74 C 0.55668 0.71558 0.15959 0.0
C75 C 0.66051 0.89675 0.23967 0.0
O76 O 0.51176 0.81466 0.01074 0.0
O77 O 0.64204 0.94433 0.01261 0.0
O78 O 0.51128 0.94293 0.14183 0.0
O79 O 0.69229 0.75995 0.06308 0.0
O80 O 0.56354 0.76194 0.19435 0.0
O81 O 0.695 0.88997 0.19306 0.0
O82 O 0.56249 0.71862 0.10087 0.0
O83 O 0.73678 0.85282 0.06324 0.0
O84 O 0.60175 0.8912 0.23687 0.0
O85 O 0.64153 0.85136 0.96836 0.0
O86 O 0.46828 0.81368 0.10412 0.0
O87 O 0.60488 -0.01394 0.14243 0.0
C88 C 0.20268 0.48666 0.0814 0.0
C89 C 0.17764 0.51684 0.04195 0.0
C90 C 0.23769 0.45161 0.12378 0.0
C91 C 0.26783 0.42651 0.16325 0.0
C92 C 0.71845 0.95135 0.33147 0.0
C93 C 0.68824 0.92631 0.29201 0.0
C94 C 0.75349 -0.0136 0.37383 0.0
C95 C 0.7785 0.01662 0.41329 0.0
C96 C 0.2181 0.50267 0.62377 0.0
C97 C 0.18795 0.52779 0.66322 0.0
C98 C 0.25313 0.46758 0.58142 0.0
C99 C 0.2782 0.43739 0.54198 0.0
C100 C 0.70227 0.96779 0.8738 0.0
C101 C 0.67729 0.93756 0.91326 0.0
C102 C 0.73728 0.00288 0.83143 0.0
C103 C 0.76747 0.02794 0.79198 0.0
C104 C 0.08249 0.201 0.48785 0.0
C105 C 0.04299 0.17589 0.51797 0.0
C106 C 0.1248 0.23614 0.45282 0.0
C107 C 0.16417 0.26643 0.42774 0.0
C108 C 0.00169 0.83052 0.73832 0.0
C109 C 0.02685 0.79102 0.76832 0.0
C110 C 0.96675 0.87299 0.70333 0.0
C111 C 0.93683 0.91254 0.67817 0.0
C112 C 0.33093 0.71829 0.95275 0.0
C113 C 0.29157 0.68799 0.92768 0.0
C114 C 0.37326 0.7534 -0.01221 0.0
C115 C 0.41276 0.77847 0.01792 0.0
C116 C 0.45403 0.12375 0.2382 0.0
C117 C 0.42884 0.16323 0.2682 0.0
C118 C 0.48902 0.08132 0.20321 0.0
C119 C 0.51898 0.04177 0.17807 0.0
C120 C 0.62477 0.21801 0.50246 0.0
C121 C 0.66418 0.18773 0.52745 0.0
C122 C 0.58239 0.25315 0.46754 0.0
C123 C 0.54287 0.27827 0.4375 0.0
C124 C -0.01103 0.37297 0.75204 0.0
C125 C 0.01892 0.4125 0.77724 0.0
C126 C 0.95399 0.33056 0.71699 0.0
C127 C 0.9288 0.29109 0.68696 0.0
C128 C 0.87338 0.70094 0.96768 0.0
C129 C 0.91289 0.67582 0.93761 0.0
C130 C 0.83101 0.73611 0.00258 0.0
C131 C 0.7916 0.76642 0.02755 0.0
C132 C 0.50189 0.62368 0.21706 0.0
C133 C 0.52702 0.66317 0.18701 0.0
C134 C 0.46696 0.58124 0.25212 0.0
C135 C 0.43702 0.5417 0.27731 0.0
loop_
_geom_bond_atom_site_label_1
_geom_bond_atom_site_label_2
_geom_bond_distance
_geom_bond_site_symmetry_2
_ccdc_geom_bond_type
Sc0 O3 2.025 . S
Sc0 O10 2.105 . S
Sc0 O13 2.105 . S
Sc0 O16 2.105 . S
Sc0 O19 2.105 . S
Sc1 O3 2.025 . S
Sc1 O11 2.105 . S
Sc1 O15 2.105 . S
Sc1 O17 2.105 . S
Sc1 O21 2.105 . S
Sc2 O3 2.025 . S
Sc2 O12 2.105 . S
Sc2 O14 2.105 . S
Sc2 O18 2.105 . S
Sc2 O20 2.105 . S
O3 Sc0 2.025 . S
O3 Sc1 2.025 . S
O3 Sc2 2.025 . S
C4 O10 1.268 . S
C4 O20 1.268 . S
C5 O11 1.268 . S
C5 O19 1.268 . S
C6 O12 1.268 . S
C6 O21 1.268 . S
C7 O13 1.268 . S
C7 O17 1.268 . S
C8 O14 1.268 . S
C8 O16 1.268 . S
C9 O15 1.268 . S
C9 O18 1.268 . S
O10 Sc0 2.105 . S
O10 C4 1.268 . S
O11 Sc1 2.105 . S
O11 C5 1.268 . S
O12 Sc2 2.105 . S
O12 C6 1.268 . S
O13 Sc0 2.105 . S
O13 C7 1.268 . S
O14 Sc2 2.105 . S
O14 C8 1.268 . S
O15 Sc1 2.105 . S
O15 C9 1.268 . S
O16 Sc0 2.105 . S
O16 C8 1.268 . S
O17 Sc1 2.105 . S
O17 C7 1.268 . S
O18 Sc2 2.105 . S
O18 C9 1.268 . S
O19 Sc0 2.105 . S
O19 C5 1.268 . S
O20 Sc2 2.105 . S
O20 C4 1.268 . S
O21 Sc1 2.105 . S
O21 C6 1.268 . S
Sc22 O25 2.025 . S
Sc22 O32 2.105 . S
Sc22 O35 2.105 . S
Sc22 O38 2.105 1_655 S
Sc22 O41 2.105 . S
Sc23 O25 2.025 . S
Sc23 O33 2.105 . S
Sc23 O37 2.105 . S
Sc23 O39 2.105 1_545 S
Sc23 O43 2.105 . S
Sc24 O25 2.025 . S
Sc24 O34 2.105 . S
Sc24 O36 2.105 . S
Sc24 O40 2.105 . S
Sc24 O42 2.105 . S
O25 Sc22 2.025 . S
O25 Sc23 2.025 . S
O25 Sc24 2.025 . S
C26 O32 1.268 . S
C26 O42 1.268 . S
C27 O33 1.268 . S
C27 O41 1.268 . S
C28 O34 1.268 . S
C28 O43 1.268 . S
C29 O35 1.268 1_565 S
C29 O39 1.268 . S
C30 O36 1.268 1_455 S
C30 O38 1.268 . S
C31 O37 1.268 . S
C31 O40 1.268 . S
O32 Sc22 2.105 . S
O32 C26 1.268 . S
O33 Sc23 2.105 . S
O33 C27 1.268 . S
O34 Sc24 2.105 . S
O34 C28 1.268 . S
O35 Sc22 2.105 . S
O35 C29 1.268 1_545 S
O36 Sc24 2.105 . S
O36 C30 1.268 1_655 S
O37 Sc23 2.105 . S
O37 C31 1.268 . S
O38 Sc22 2.105 1_455 S
O38 C30 1.268 . S
O39 Sc23 2.105 1_565 S
O39 C29 1.268 . S
O40 Sc24 2.105 . S
O40 C31 1.268 . S
O41 Sc22 2.105 . S
O41 C27 1.268 . S
O42 Sc24 2.105 . S
O42 C26 1.268 . S
O43 Sc23 2.105 . S
O43 C28 1.268 . S
Sc44 O47 2.025 . S
Sc44 O54 2.105 . S
Sc44 O57 2.105 . S
Sc44 O60 2.105 . S
Sc44 O63 2.105 . S
Sc45 O47 2.025 . S
Sc45 O55 2.105 . S
Sc45 O59 2.105 . S
Sc45 O61 2.105 1_556 S
Sc45 O65 2.105 . S
Sc46 O47 2.025 . S
Sc46 O56 2.105 . S
Sc46 O58 2.105 . S
Sc46 O62 2.105 1_455 S
Sc46 O64 2.105 . S
O47 Sc44 2.025 . S
O47 Sc45 2.025 . S
O47 Sc46 2.025 . S
C48 O54 1.268 . S
C48 O64 1.268 . S
C49 O55 1.268 . S
C49 O63 1.268 . S
C50 O56 1.268 . S
C50 O65 1.268 . S
C51 O57 1.268 1_554 S
C51 O61 1.268 . S
C52 O58 1.268 . S
C52 O60 1.268 . S
C53 O59 1.268 1_655 S
C53 O62 1.268 . S
O54 Sc44 2.105 . S
O54 C48 1.268 . S
O55 Sc45 2.105 . S
O55 C49 1.268 . S
O56 Sc46 2.105 . S
O56 C50 1.268 . S
O57 Sc44 2.105 . S
O57 C51 1.268 1_556 S
O58 Sc46 2.105 . S
O58 C52 1.268 . S
O59 Sc45 2.105 . S
O59 C53 1.268 1_455 S
O60 Sc44 2.105 . S
O60 C52 1.268 . S
O61 Sc45 2.105 1_554 S
O61 C51 1.268 . S
O62 Sc46 2.105 1_655 S
O62 C53 1.268 . S
O63 Sc44 2.105 . S
O63 C49 1.268 . S
O64 Sc46 2.105 . S
O64 C48 1.268 . S
O65 Sc45 2.105 . S
O65 C50 1.268 . S
Sc66 O69 2.025 . S
Sc66 O76 2.105 . S
Sc66 O79 2.105 . S
Sc66 O82 2.105 . S
Sc66 O85 2.105 1_554 S
Sc67 O69 2.025 . S
Sc67 O77 2.105 . S
Sc67 O81 2.105 . S
Sc67 O83 2.105 . S
Sc67 O87 2.105 1_565 S
Sc68 O69 2.025 . S
Sc68 O78 2.105 . S
Sc68 O80 2.105 . S
Sc68 O84 2.105 . S
Sc68 O86 2.105 . S
O69 Sc66 2.025 . S
O69 Sc67 2.025 . S
O69 Sc68 2.025 . S
C70 O76 1.268 . S
C70 O86 1.268 . S
C71 O77 1.268 1_556 S
C71 O85 1.268 . S
C72 O78 1.268 1_545 S
C72 O87 1.268 . S
C73 O79 1.268 . S
C73 O83 1.268 . S
C74 O80 1.268 . S
C74 O82 1.268 . S
C75 O81 1.268 . S
C75 O84 1.268 . S
O76 Sc66 2.105 . S
O76 C70 1.268 . S
O77 Sc67 2.105 . S
O77 C71 1.268 1_554 S
O78 Sc68 2.105 . S
O78 C72 1.268 1_565 S
O79 Sc66 2.105 . S
O79 C73 1.268 . S
O80 Sc68 2.105 . S
O80 C74 1.268 . S
O81 Sc67 2.105 . S
O81 C75 1.268 . S
O82 Sc66 2.105 . S
O82 C74 1.268 . S
O83 Sc67 2.105 . S
O83 C73 1.268 . S
O84 Sc68 2.105 . S
O84 C75 1.268 . S
O85 Sc66 2.105 1_556 S
O85 C71 1.268 . S
O86 Sc68 2.105 . S
O86 C70 1.268 . S
O87 Sc67 2.105 1_545 S
O87 C72 1.268 . S
C88 C89 1.170 . S
C88 C90 1.380 . S
C89 C88 1.170 . S
C90 C88 1.380 . S
C90 C91 1.170 . S
C91 C90 1.170 . S
C92 C93 1.170 . S
C92 C94 1.380 . S
C93 C92 1.170 . S
C94 C92 1.380 . S
C94 C95 1.170 1_565 S
C95 C94 1.170 1_545 S
C96 C97 1.170 . S
C96 C98 1.380 . S
C97 C96 1.170 . S
C98 C96 1.380 . S
C98 C99 1.170 . S
C99 C98 1.170 . S
C100 C101 1.170 1_545 S
C100 C102 1.380 . S
C101 C100 1.170 1_565 S
C102 C100 1.380 . S
C102 C103 1.170 . S
C103 C102 1.170 . S
C104 C105 1.170 . S
C104 C106 1.380 . S
C105 C104 1.170 . S
C106 C104 1.380 . S
C106 C107 1.170 . S
C107 C106 1.170 . S
C108 C109 1.170 . S
C108 C110 1.391 . S
C109 C108 1.170 . S
C110 C108 1.391 . S
C110 C111 1.160 1_455 S
C111 C110 1.160 1_655 S
C112 C113 1.170 . S
C112 C114 1.380 . S
C113 C112 1.170 . S
C114 C112 1.380 . S
C114 C115 1.170 1_556 S
C115 C114 1.170 1_554 S
C116 C117 1.170 . S
C116 C118 1.380 . S
C117 C116 1.170 . S
C118 C116 1.380 . S
C118 C119 1.170 . S
C119 C118 1.170 . S
C120 C121 1.170 . S
C120 C122 1.380 . S
C121 C120 1.170 . S
C122 C120 1.380 . S
C122 C123 1.170 . S
C123 C122 1.170 . S
C124 C125 1.161 1_655 S
C124 C126 1.390 . S
C125 C124 1.161 1_455 S
C126 C124 1.390 . S
C126 C127 1.170 . S
C127 C126 1.170 . S
C128 C129 1.161 1_554 S
C128 C130 1.390 . S
C129 C128 1.161 1_556 S
C130 C128 1.390 . S
C130 C131 1.170 . S
C131 C130 1.170 . S
C132 C133 1.170 . S
C132 C134 1.380 . S
C133 C132 1.170 . S
C134 C132 1.380 . S
C134 C135 1.170 . S
C135 C134 1.170 . S
C89 C51 1.376 . S
C91 C4 1.408 . S
C93 C75 1.409 . S
C95 C31 1.414 . S
C97 C48 1.417 . S
C99 C7 1.372 . S
C101 C71 1.410 . S
C103 C27 1.414 . S
C105 C30 1.429 . S
C107 C5 1.384 . S
C109 C50 1.404 . S
C111 C29 1.378 . S
C113 C49 1.384 . S
C115 C70 1.429 . S
C117 C6 1.382 . S
C119 C72 1.398 . S
C121 C28 1.372 . S
C123 C9 1.416 . S
C125 C52 1.427 . S
C127 C26 1.373 . S
C129 C53 1.426 . S
C131 C73 1.373 . S
C133 C74 1.399 . S
C135 C8 1.422 . S
