# Generated by pormake.
# Topology uof, (4)-cn, num edge types: 1
# Building blocks:
#     Node 0, Type 0, BuildingBlock: NAHDIM_clean_sbu_0, # of connection points: 4
#     Node 1, Type 0, BuildingBlock: NAHDIM_clean_sbu_0, # of connection points: 4
#     Node 2, Type 0, BuildingBlock: NAHDIM_clean_sbu_0, # of connection points: 4
#     Node 3, Type 0, BuildingBlock: NAHDIM_clean_sbu_0, # of connection points: 4
#     Node 4, Type 0, BuildingBlock: NAHDIM_clean_sbu_0, # of connection points: 4
#     Node 5, Type 0, BuildingBlock: NAHDIM_clean_sbu_0, # of connection points: 4
#     Node 6, Type 0, BuildingBlock: NAHDIM_clean_sbu_0, # of connection points: 4
#     Node 7, Type 0, BuildingBlock: NAHDIM_clean_sbu_0, # of connection points: 4
#     Node 8, Type 0, BuildingBlock: NAHDIM_clean_sbu_0, # of connection points: 4
#     Node 9, Type 0, BuildingBlock: NAHDIM_clean_sbu_0, # of connection points: 4
#     Node 10, Type 0, BuildingBlock: NAHDIM_clean_sbu_0, # of connection points: 4
#     Node 11, Type 0, BuildingBlock: NAHDIM_clean_sbu_0, # of connection points: 4
#     Edge 12, Type (0, 0), None
#     Edge 13, Type (0, 0), None
#     Edge 14, Type (0, 0), None
#     Edge 15, Type (0, 0), None
#     Edge 16, Type (0, 0), None
#     Edge 17, Type (0, 0), None
#     Edge 18, Type (0, 0), None
#     Edge 19, Type (0, 0), None
#     Edge 20, Type (0, 0), None
#     Edge 21, Type (0, 0), None
#     Edge 22, Type (0, 0), None
#     Edge 23, Type (0, 0), None
#     Edge 24, Type (0, 0), None
#     Edge 25, Type (0, 0), None
#     Edge 26, Type (0, 0), None
#     Edge 27, Type (0, 0), None
#     Edge 28, Type (0, 0), None
#     Edge 29, Type (0, 0), None
#     Edge 30, Type (0, 0), None
#     Edge 31, Type (0, 0), None
#     Edge 32, Type (0, 0), None
#     Edge 33, Type (0, 0), None
#     Edge 34, Type (0, 0), None
#     Edge 35, Type (0, 0), None
# Relax obj value: 0.200
# Max RMSD: 0.167
# Mean RMSD: 0.167
data_MOF--net-uof--node1-NAHDIM_clean_sbu_0--edge1-none
_symmetry_space_group_name_H-M    P1
_symmetry_Int_Tables_number       1
_symmetry_cell_setting            triclinic
loop_
_symmetry_equiv_pos_as_xyz
'x, y, z'
_cell_length_a     15.15256
_cell_length_b     15.157793
_cell_length_c     28.340014
_cell_angle_alpha  89.999727
_cell_angle_beta   89.99971
_cell_angle_gamma 120.01783
loop_
_atom_site_label
_atom_site_type_symbol
_atom_site_fract_x
_atom_site_fract_y
_atom_site_fract_z
_atom_type_partial_charge
C0 C 0.02272 0.26421 0.16778 0.0
O1 O -0.00462 0.23225 0.21127 0.0
O2 O 0.18374 0.25726 0.26435 0.0
Zn3 Zn 0.22789 0.30883 0.19779 0.0
O4 O 0.25516 0.20913 0.16619 0.0
C5 C 0.44553 0.44693 0.20592 0.0
O6 O 0.44735 0.36181 0.21091 0.0
O7 O 0.11654 0.30704 0.15652 0.0
C8 C 0.31319 0.22822 0.13084 0.0
O9 O 0.36228 0.32023 0.11275 0.0
C10 C 0.22411 0.21195 0.2855 0.0
O11 O 0.2911 0.1963 0.26335 0.0
O12 O 0.36076 0.44428 0.19995 0.0
C13 C 0.75398 0.02479 0.50115 0.0
O14 O 0.75892 -0.00243 0.54463 0.0
O15 O 0.92196 0.18601 0.59765 0.0
Zn16 Zn 0.91446 0.23001 0.53108 0.0
O17 O 0.04144 0.25716 0.49946 0.0
C18 C -0.00582 0.44764 0.53908 0.0
O19 O 0.08114 0.44944 0.54405 0.0
O20 O 0.80476 0.11858 0.48986 0.0
C21 C 0.08033 0.31504 0.46407 0.0
O22 O 0.03735 0.36402 0.44593 0.0
C23 C 0.00769 0.22639 0.61879 0.0
O24 O 0.09035 0.29334 0.59661 0.0
O25 O 0.91199 0.36289 0.53317 0.0
C26 C 0.72469 0.75606 0.83439 0.0
O27 O 0.75658 0.76069 0.87789 0.0
O28 O 0.73156 0.92399 0.93093 0.0
Zn29 Zn 0.68012 0.91662 0.86435 0.0
O30 O 0.78001 0.04362 0.83278 0.0
C31 C 0.54217 -0.00371 0.87241 0.0
O32 O 0.62738 0.08321 0.87742 0.0
O33 O 0.6819 0.80704 0.8231 0.0
C34 C 0.76098 0.08252 0.79741 0.0
O35 O 0.66897 0.03952 0.77928 0.0
C36 C 0.77698 0.00965 0.9521 0.0
O37 O 0.79283 0.09234 0.92994 0.0
O38 O 0.54471 0.91413 0.86645 0.0
C39 C 0.96429 0.72704 0.16778 0.0
O40 O 0.99162 0.759 0.21127 0.0
O41 O 0.80325 0.73397 0.26435 0.0
Zn42 Zn 0.75911 0.6824 0.1978 0.0
O43 O 0.73185 0.78211 0.1662 0.0
C44 C 0.54147 0.54431 0.20592 0.0
O45 O 0.53965 0.62943 0.21091 0.0
O46 O 0.87047 0.6842 0.15652 0.0
C47 C 0.67381 0.76302 0.13085 0.0
O48 O 0.62473 0.67101 0.11275 0.0
C49 C 0.76288 0.77927 0.28551 0.0
O50 O 0.6959 0.79493 0.26336 0.0
O51 O 0.62624 0.54696 0.19995 0.0
C52 C 0.23297 0.96641 0.50115 0.0
O53 O 0.22805 0.99363 0.54462 0.0
O54 O 0.06501 0.80519 0.59765 0.0
Zn55 Zn 0.0725 0.76119 0.53108 0.0
O56 O 0.94552 0.73404 0.49947 0.0
C57 C 0.99279 0.54356 0.53909 0.0
O58 O 0.90582 0.54176 0.54406 0.0
O59 O 0.18219 0.87262 0.48986 0.0
C60 C 0.90662 0.67615 0.46408 0.0
O61 O 0.9496 0.62718 0.44594 0.0
C62 C 0.97929 0.76481 0.61879 0.0
O63 O 0.89662 0.69786 0.59662 0.0
O64 O 0.07498 0.62831 0.53316 0.0
C65 C 0.26231 0.23513 0.83438 0.0
O66 O 0.23043 0.23052 0.87788 0.0
O67 O 0.25544 0.06722 0.93092 0.0
Zn68 Zn 0.30688 0.07458 0.86435 0.0
O69 O 0.20699 0.94758 0.83278 0.0
C70 C 0.44483 0.99491 0.87241 0.0
O71 O 0.35962 0.90799 0.87742 0.0
O72 O 0.30509 0.18415 0.82308 0.0
C73 C 0.22602 0.90866 0.79741 0.0
O74 O 0.31803 0.95166 0.77928 0.0
C75 C 0.21002 0.98156 0.95209 0.0
O76 O 0.19417 0.89886 0.92994 0.0
O77 O 0.44229 0.07707 0.86645 0.0
C78 C 0.71451 0.94703 0.46351 0.0
O79 O 0.74217 0.97529 0.41965 0.0
O80 O 0.70215 0.79128 0.36063 0.0
Zn81 Zn 0.67797 0.74871 0.42983 0.0
O82 O 0.79446 0.73761 0.45358 0.0
C83 C 0.53439 0.54883 0.39835 0.0
O84 O 0.58285 0.58831 0.35873 0.0
O85 O 0.67547 0.85334 0.47438 0.0
C86 C 0.81634 0.66952 0.443 0.0
O87 O 0.76147 0.59815 0.41222 0.0
C88 C 0.77478 0.7943 0.33663 0.0
O89 O 0.84772 0.78714 0.35792 0.0
O90 O 0.55676 0.6045 0.43504 0.0
C91 C 0.76305 0.71666 0.79675 0.0
O92 O 0.76277 0.74459 0.75291 0.0
O93 O 0.90644 0.70411 0.6939 0.0
Zn94 Zn 0.92476 0.67995 0.76312 0.0
O95 O 0.05234 0.79646 0.7869 0.0
C96 C 0.98118 0.53649 0.73167 0.0
O97 O 0.99019 0.58494 0.69205 0.0
O98 O 0.81749 0.67739 0.80763 0.0
C99 C 0.14237 0.81836 0.77635 0.0
O100 O 0.15893 0.7635 0.7456 0.0
C101 C 0.97612 0.7767 0.66991 0.0
O102 O 0.05624 0.84961 0.69121 0.0
O103 O 0.94781 0.55883 0.76835 0.0
C104 C 0.04201 0.76537 0.13011 0.0
O105 O 0.0137 0.76499 0.08628 0.0
O106 O 0.1978 0.90876 0.02722 0.0
Zn107 Zn 0.24041 0.92708 0.09642 0.0
O108 O 0.25157 0.05462 0.12023 0.0
C109 C 0.44028 0.98331 0.0649 0.0
O110 O 0.4008 0.99228 0.02528 0.0
O111 O 0.13577 0.81987 0.14096 0.0
C112 C 0.31982 0.14462 0.10974 0.0
O113 O 0.39134 0.1612 0.07903 0.0
C114 C 0.19507 0.97849 0.00322 0.0
O115 O 0.20258 0.05872 0.02451 0.0
O116 O 0.3846 0.95007 0.10159 0.0
C117 C 0.27245 0.04417 0.4635 0.0
O118 O 0.24478 0.01591 0.41964 0.0
O119 O 0.28482 0.19994 0.36062 0.0
Zn120 Zn 0.30899 0.24249 0.42983 0.0
O121 O 0.19249 0.25358 0.45358 0.0
C122 C 0.45257 0.44238 0.39835 0.0
O123 O 0.40411 0.4029 0.35873 0.0
O124 O 0.31149 0.13786 0.47438 0.0
C125 C 0.17061 0.32167 0.44299 0.0
O126 O 0.22548 0.39304 0.41221 0.0
C127 C 0.21219 0.19691 0.33662 0.0
O128 O 0.13925 0.20406 0.35791 0.0
O129 O 0.43019 0.3867 0.43504 0.0
C130 C 0.22394 0.27453 0.79673 0.0
O131 O 0.22422 0.24659 0.7529 0.0
O132 O 0.08054 0.28709 0.6939 0.0
Zn133 Zn 0.06223 0.31124 0.76312 0.0
O134 O 0.93465 0.19473 0.78689 0.0
C135 C 0.00581 0.4547 0.73167 0.0
O136 O -0.00322 0.40624 0.69205 0.0
O137 O 0.16951 0.3138 0.80762 0.0
C138 C 0.84462 0.17282 0.77635 0.0
O139 O 0.82806 0.22768 0.7456 0.0
C140 C 0.01087 0.2145 0.6699 0.0
O141 O 0.93076 0.14157 0.6912 0.0
O142 O 0.03917 0.43236 0.76835 0.0
C143 C 0.94499 0.22587 0.13011 0.0
O144 O 0.9733 0.22624 0.08628 0.0
O145 O 0.7892 0.08247 0.02721 0.0
Zn146 Zn 0.7466 0.06416 0.09642 0.0
O147 O 0.73544 0.93662 0.12023 0.0
C148 C 0.54673 0.00792 0.0649 0.0
O149 O 0.5862 -0.00104 0.02528 0.0
O150 O 0.85123 0.17137 0.14096 0.0
C151 C 0.66719 0.84662 0.10975 0.0
O152 O 0.59567 0.83003 0.07903 0.0
C153 C 0.79194 0.01273 0.00322 0.0
O154 O 0.78443 0.93251 0.02452 0.0
O155 O 0.6024 0.04116 0.10159 0.0
loop_
_geom_bond_atom_site_label_1
_geom_bond_atom_site_label_2
_geom_bond_distance
_geom_bond_site_symmetry_2
_ccdc_geom_bond_type
C0 O1 1.160 . S
C0 O7 1.185 . S
O1 C0 1.160 . S
O2 Zn3 1.899 . S
O2 C10 1.284 . S
Zn3 O2 1.899 . S
Zn3 O4 2.032 . S
Zn3 O7 2.086 . S
Zn3 O12 1.977 . S
O4 Zn3 2.032 . S
O4 C8 1.278 . S
C5 O6 1.203 . S
C5 O12 1.267 . S
O6 C5 1.203 . S
O7 C0 1.185 . S
O7 Zn3 2.086 . S
C8 O4 1.278 . S
C8 O9 1.211 . S
O9 C8 1.211 . S
C10 O2 1.284 . S
C10 O11 1.273 . S
O11 C10 1.273 . S
O12 Zn3 1.977 . S
O12 C5 1.267 . S
C13 O14 1.160 . S
C13 O20 1.185 . S
O14 C13 1.160 . S
O15 Zn16 1.899 . S
O15 C23 1.284 . S
Zn16 O15 1.899 . S
Zn16 O17 2.032 1_655 S
Zn16 O20 2.086 . S
Zn16 O25 1.977 . S
O17 Zn16 2.032 1_455 S
O17 C21 1.278 . S
C18 O19 1.203 1_655 S
C18 O25 1.267 . S
O19 C18 1.203 1_455 S
O20 C13 1.185 . S
O20 Zn16 2.086 . S
C21 O17 1.278 . S
C21 O22 1.211 . S
O22 C21 1.211 . S
C23 O15 1.284 . S
C23 O24 1.273 1_655 S
O24 C23 1.273 1_455 S
O25 Zn16 1.977 . S
O25 C18 1.267 . S
C26 O27 1.160 . S
C26 O33 1.185 . S
O27 C26 1.160 . S
O28 Zn29 1.899 . S
O28 C36 1.284 . S
Zn29 O28 1.899 . S
Zn29 O30 2.032 1_565 S
Zn29 O33 2.086 . S
Zn29 O38 1.977 . S
O30 Zn29 2.032 1_545 S
O30 C34 1.278 . S
C31 O32 1.203 1_565 S
C31 O38 1.267 . S
O32 C31 1.203 1_545 S
O33 C26 1.185 . S
O33 Zn29 2.086 . S
C34 O30 1.278 . S
C34 O35 1.211 . S
O35 C34 1.211 . S
C36 O28 1.284 . S
C36 O37 1.273 1_565 S
O37 C36 1.273 1_545 S
O38 Zn29 1.977 . S
O38 C31 1.267 . S
C39 O40 1.160 . S
C39 O46 1.185 . S
O40 C39 1.160 . S
O41 Zn42 1.899 . S
O41 C49 1.284 . S
Zn42 O41 1.899 . S
Zn42 O43 2.032 . S
Zn42 O46 2.086 . S
Zn42 O51 1.977 . S
O43 Zn42 2.032 . S
O43 C47 1.278 . S
C44 O45 1.203 . S
C44 O51 1.267 . S
O45 C44 1.203 . S
O46 C39 1.185 . S
O46 Zn42 2.086 . S
C47 O43 1.278 . S
C47 O48 1.211 . S
O48 C47 1.211 . S
C49 O41 1.284 . S
C49 O50 1.273 . S
O50 C49 1.273 . S
O51 Zn42 1.977 . S
O51 C44 1.267 . S
C52 O53 1.160 . S
C52 O59 1.185 . S
O53 C52 1.160 . S
O54 Zn55 1.899 . S
O54 C62 1.284 . S
Zn55 O54 1.899 . S
Zn55 O56 2.032 1_455 S
Zn55 O59 2.086 . S
Zn55 O64 1.977 . S
O56 Zn55 2.032 1_655 S
O56 C60 1.278 . S
C57 O58 1.203 1_455 S
C57 O64 1.267 . S
O58 C57 1.203 1_655 S
O59 C52 1.185 . S
O59 Zn55 2.086 . S
C60 O56 1.278 . S
C60 O61 1.211 . S
O61 C60 1.211 . S
C62 O54 1.284 . S
C62 O63 1.273 1_455 S
O63 C62 1.273 1_655 S
O64 Zn55 1.977 . S
O64 C57 1.267 . S
C65 O66 1.160 . S
C65 O72 1.185 . S
O66 C65 1.160 . S
O67 Zn68 1.899 . S
O67 C75 1.284 . S
Zn68 O67 1.899 . S
Zn68 O69 2.032 1_545 S
Zn68 O72 2.086 . S
Zn68 O77 1.977 . S
O69 Zn68 2.032 1_565 S
O69 C73 1.278 . S
C70 O71 1.203 1_545 S
C70 O77 1.267 . S
O71 C70 1.203 1_565 S
O72 C65 1.185 . S
O72 Zn68 2.086 . S
C73 O69 1.278 . S
C73 O74 1.211 . S
O74 C73 1.211 . S
C75 O67 1.284 . S
C75 O76 1.273 1_545 S
O76 C75 1.273 1_565 S
O77 Zn68 1.977 . S
O77 C70 1.267 . S
C78 O79 1.160 . S
C78 O85 1.185 . S
O79 C78 1.160 . S
O80 Zn81 1.899 . S
O80 C88 1.284 . S
Zn81 O80 1.899 . S
Zn81 O82 2.032 . S
Zn81 O85 2.086 . S
Zn81 O90 1.977 . S
O82 Zn81 2.032 . S
O82 C86 1.278 . S
C83 O84 1.203 . S
C83 O90 1.267 . S
O84 C83 1.203 . S
O85 C78 1.185 . S
O85 Zn81 2.086 . S
C86 O82 1.278 . S
C86 O87 1.211 . S
O87 C86 1.211 . S
C88 O80 1.284 . S
C88 O89 1.273 . S
O89 C88 1.273 . S
O90 Zn81 1.977 . S
O90 C83 1.267 . S
C91 O92 1.160 . S
C91 O98 1.185 . S
O92 C91 1.160 . S
O93 Zn94 1.899 . S
O93 C101 1.284 . S
Zn94 O93 1.899 . S
Zn94 O95 2.032 1_655 S
Zn94 O98 2.086 . S
Zn94 O103 1.977 . S
O95 Zn94 2.032 1_455 S
O95 C99 1.278 . S
C96 O97 1.203 1_655 S
C96 O103 1.267 . S
O97 C96 1.203 1_455 S
O98 C91 1.185 . S
O98 Zn94 2.086 . S
C99 O95 1.278 . S
C99 O100 1.211 . S
O100 C99 1.211 . S
C101 O93 1.284 . S
C101 O102 1.273 1_655 S
O102 C101 1.273 1_455 S
O103 Zn94 1.977 . S
O103 C96 1.267 . S
C104 O105 1.160 . S
C104 O111 1.185 . S
O105 C104 1.160 . S
O106 Zn107 1.899 . S
O106 C114 1.284 . S
Zn107 O106 1.899 . S
Zn107 O108 2.032 1_565 S
Zn107 O111 2.086 . S
Zn107 O116 1.977 . S
O108 Zn107 2.032 1_545 S
O108 C112 1.278 . S
C109 O110 1.203 1_565 S
C109 O116 1.267 . S
O110 C109 1.203 1_545 S
O111 C104 1.185 . S
O111 Zn107 2.086 . S
C112 O108 1.278 . S
C112 O113 1.211 . S
O113 C112 1.211 . S
C114 O106 1.284 . S
C114 O115 1.273 1_565 S
O115 C114 1.273 1_545 S
O116 Zn107 1.977 . S
O116 C109 1.267 . S
C117 O118 1.160 . S
C117 O124 1.185 . S
O118 C117 1.160 . S
O119 Zn120 1.899 . S
O119 C127 1.284 . S
Zn120 O119 1.899 . S
Zn120 O121 2.032 . S
Zn120 O124 2.086 . S
Zn120 O129 1.977 . S
O121 Zn120 2.032 . S
O121 C125 1.278 . S
C122 O123 1.203 . S
C122 O129 1.267 . S
O123 C122 1.203 . S
O124 C117 1.185 . S
O124 Zn120 2.086 . S
C125 O121 1.278 . S
C125 O126 1.211 . S
O126 C125 1.211 . S
C127 O119 1.284 . S
C127 O128 1.273 . S
O128 C127 1.273 . S
O129 Zn120 1.977 . S
O129 C122 1.267 . S
C130 O131 1.160 . S
C130 O137 1.185 . S
O131 C130 1.160 . S
O132 Zn133 1.899 . S
O132 C140 1.284 . S
Zn133 O132 1.899 . S
Zn133 O134 2.032 1_455 S
Zn133 O137 2.086 . S
Zn133 O142 1.977 . S
O134 Zn133 2.032 1_655 S
O134 C138 1.278 . S
C135 O136 1.203 1_455 S
C135 O142 1.267 . S
O136 C135 1.203 1_655 S
O137 C130 1.185 . S
O137 Zn133 2.086 . S
C138 O134 1.278 . S
C138 O139 1.211 . S
O139 C138 1.211 . S
C140 O132 1.284 . S
C140 O141 1.273 1_455 S
O141 C140 1.273 1_655 S
O142 Zn133 1.977 . S
O142 C135 1.267 . S
C143 O144 1.160 . S
C143 O150 1.185 . S
O144 C143 1.160 . S
O145 Zn146 1.899 . S
O145 C153 1.284 . S
Zn146 O145 1.899 . S
Zn146 O147 2.032 1_545 S
Zn146 O150 2.086 . S
Zn146 O155 1.977 . S
O147 Zn146 2.032 1_565 S
O147 C151 1.278 . S
C148 O149 1.203 1_545 S
C148 O155 1.267 . S
O149 C148 1.203 1_565 S
O150 C143 1.185 . S
O150 Zn146 2.086 . S
C151 O147 1.278 . S
C151 O152 1.211 . S
O152 C151 1.211 . S
C153 O145 1.284 . S
C153 O154 1.273 1_545 S
O154 C153 1.273 1_565 S
O155 Zn146 1.977 . S
O155 C148 1.267 . S
C143 C0 1.558 1_655 S
C13 C78 1.558 1_545 S
C26 C91 1.559 . S
C39 C104 1.558 1_655 S
C117 C52 1.558 1_545 S
C65 C130 1.559 . S
C44 C5 1.424 . S
C57 C18 1.424 1_455 S
C70 C31 1.424 1_545 S
C83 C122 1.424 . S
C96 C135 1.424 1_655 S
C109 C148 1.424 1_565 S
C112 C8 0.855 . S
C21 C125 0.855 . S
C138 C34 0.855 . S
C151 C47 0.855 . S
C86 C60 0.855 . S
C73 C99 0.855 . S
C127 C10 1.500 . S
C23 C140 1.499 1_655 S
C153 C36 1.499 1_544 S
C49 C88 1.500 . S
C62 C101 1.499 1_455 S
C114 C75 1.499 1_564 S
