# Generated by pormake.
# Topology uol, (4)-cn, num edge types: 1
# Building blocks:
#     Node 0, Type 0, BuildingBlock: QUQFOY_clean_sbu_1, # of connection points: 4
#     Node 1, Type 0, BuildingBlock: QUQFOY_clean_sbu_1, # of connection points: 4
#     Node 2, Type 0, BuildingBlock: QUQFOY_clean_sbu_1, # of connection points: 4
#     Node 3, Type 0, BuildingBlock: QUQFOY_clean_sbu_1, # of connection points: 4
#     Node 4, Type 0, BuildingBlock: QUQFOY_clean_sbu_1, # of connection points: 4
#     Node 5, Type 0, BuildingBlock: QUQFOY_clean_sbu_1, # of connection points: 4
#     Node 6, Type 0, BuildingBlock: QUQFOY_clean_sbu_1, # of connection points: 4
#     Node 7, Type 0, BuildingBlock: QUQFOY_clean_sbu_1, # of connection points: 4
#     Node 8, Type 0, BuildingBlock: QUQFOY_clean_sbu_1, # of connection points: 4
#     Node 9, Type 0, BuildingBlock: QUQFOY_clean_sbu_1, # of connection points: 4
#     Node 10, Type 0, BuildingBlock: QUQFOY_clean_sbu_1, # of connection points: 4
#     Node 11, Type 0, BuildingBlock: QUQFOY_clean_sbu_1, # of connection points: 4
#     Edge 12, Type (0, 0), None
#     Edge 13, Type (0, 0), None
#     Edge 14, Type (0, 0), None
#     Edge 15, Type (0, 0), None
#     Edge 16, Type (0, 0), None
#     Edge 17, Type (0, 0), None
#     Edge 18, Type (0, 0), None
#     Edge 19, Type (0, 0), None
#     Edge 20, Type (0, 0), None
#     Edge 21, Type (0, 0), None
#     Edge 22, Type (0, 0), None
#     Edge 23, Type (0, 0), None
#     Edge 24, Type (0, 0), None
#     Edge 25, Type (0, 0), None
#     Edge 26, Type (0, 0), None
#     Edge 27, Type (0, 0), None
#     Edge 28, Type (0, 0), None
#     Edge 29, Type (0, 0), None
#     Edge 30, Type (0, 0), None
#     Edge 31, Type (0, 0), None
#     Edge 32, Type (0, 0), None
#     Edge 33, Type (0, 0), None
#     Edge 34, Type (0, 0), None
#     Edge 35, Type (0, 0), None
# Relax obj value: 0.031
# Max RMSD: 0.153
# Mean RMSD: 0.153
data_MOF--net-uol--node1-QUQFOY_clean_sbu_1--edge1-none
_symmetry_space_group_name_H-M    P1
_symmetry_Int_Tables_number       1
_symmetry_cell_setting            triclinic
loop_
_symmetry_equiv_pos_as_xyz
'x, y, z'
_cell_length_a     15.806406
_cell_length_b     15.806838
_cell_length_c     29.607991
_cell_angle_alpha  90.000223
_cell_angle_beta   89.9999
_cell_angle_gamma 120.00302
loop_
_atom_site_label
_atom_site_type_symbol
_atom_site_fract_x
_atom_site_fract_y
_atom_site_fract_z
_atom_type_partial_charge
O0 O 0.2823 0.38415 0.10135 0.0
Cd1 Cd 0.27811 0.44544 0.16265 0.0
Cd2 Cd 0.10755 0.27422 0.17015 0.0
O3 O 0.12979 0.26123 0.10167 0.0
O4 O 0.35623 0.59074 0.16008 0.0
O5 O 0.19522 0.50796 0.16929 0.0
C6 C 0.27532 0.59081 0.16586 0.0
C7 C 0.96495 0.2355 0.20943 0.0
C8 C 0.21225 0.31052 1.08196 0.0
C9 C 0.27583 0.31211 0.232 0.0
O10 O 0.19477 0.25209 0.21409 0.0
O11 O 0.323 0.4001 0.21866 0.0
O12 O 0.97653 0.16773 0.19134 0.0
O13 O 0.02756 0.32523 0.1996 0.0
O14 O 0.89602 0.28337 0.26801 0.0
Cd15 Cd 0.83054 0.27918 0.32931 0.0
Cd16 Cd 0.83122 0.10862 0.33681 0.0
O17 O 0.86643 0.13085 0.26833 0.0
O18 O 0.76339 0.35731 0.32675 0.0
O19 O 0.68514 0.1963 0.33596 0.0
C20 C 0.68239 0.2764 0.33253 0.0
C21 C 0.72733 0.96603 0.37609 0.0
C22 C 0.89957 0.21331 0.24862 0.0
C23 C 0.96161 0.2769 0.39866 0.0
O24 O 0.94056 0.19584 0.38075 0.0
O25 O 0.92079 0.32406 0.38533 0.0
O26 O 0.80668 0.9776 0.358 0.0
O27 O 0.70021 0.02864 0.36627 0.0
O28 O 0.61052 0.8971 0.43468 0.0
Cd29 Cd 0.54924 0.83163 0.49598 0.0
Cd30 Cd 0.72048 0.83229 0.50348 0.0
O31 O 0.73345 0.86752 0.435 0.0
O32 O 0.40394 0.76445 0.49342 0.0
O33 O 0.48672 0.68623 0.50263 0.0
C34 C 0.40387 0.68347 0.4992 0.0
C35 C 0.75919 0.72841 0.54275 0.0
C36 C 0.68414 0.90065 0.41529 0.0
C37 C 0.68259 0.96268 0.56534 0.0
O38 O 0.7426 0.94162 0.54743 0.0
O39 O 0.5946 0.92187 0.552 0.0
O40 O 0.82696 0.80777 0.52467 0.0
O41 O 0.66946 0.70129 0.53293 0.0
O42 O 0.71132 0.61159 0.60134 0.0
Cd43 Cd 0.7155 0.55031 0.66264 0.0
Cd44 Cd 0.88607 0.72156 0.67014 0.0
O45 O 0.86383 0.73453 0.60166 0.0
O46 O 0.63738 0.40501 0.66008 0.0
O47 O 0.79838 0.4878 0.66929 0.0
C48 C 0.71829 0.40495 0.66586 0.0
C49 C 0.02866 0.76027 0.70942 0.0
C50 C 0.78138 0.68521 0.58195 0.0
C51 C 0.71778 0.68365 0.73199 0.0
O52 O 0.79885 0.74367 0.71408 0.0
O53 O 0.67061 0.59567 0.71865 0.0
O54 O 0.01709 0.82804 0.69133 0.0
O55 O 0.96605 0.67054 0.69959 0.0
O56 O 0.0976 0.7124 0.768 0.0
Cd57 Cd 0.16308 0.71659 0.82931 0.0
Cd58 Cd 0.1624 0.88715 0.8368 0.0
O59 O 0.12719 0.86491 0.76833 0.0
O60 O 0.23023 0.63846 0.82674 0.0
O61 O 0.30848 0.79946 0.83595 0.0
C62 C 0.31122 0.71936 0.83252 0.0
C63 C 0.26628 0.02974 0.87609 0.0
C64 C 0.09405 0.78246 0.74861 0.0
C65 C 0.03201 0.71887 0.89866 0.0
O66 O 0.05306 0.79993 0.88074 0.0
O67 O 0.07283 0.6717 0.88532 0.0
O68 O 0.18693 0.01816 0.858 0.0
O69 O 0.2934 0.96714 0.86626 0.0
O70 O 0.38309 0.09867 0.93467 0.0
Cd71 Cd 0.44437 0.16414 0.99598 0.0
Cd72 Cd 0.27313 0.16346 1.00348 0.0
O73 O 0.26016 0.12825 0.935 0.0
O74 O 0.58967 0.23131 0.99342 0.0
O75 O 0.50689 0.30953 1.00262 0.0
C76 C 0.58974 0.31229 0.9992 0.0
C77 C 0.23443 0.26732 1.04276 0.0
C78 C 0.30948 0.09512 0.91528 0.0
C79 C 0.31103 0.03307 1.06533 0.0
O80 O 0.25101 0.05413 1.04742 0.0
O81 O 0.39901 0.07389 1.05199 0.0
O82 O 0.16664 0.18799 1.02467 0.0
O83 O 0.32417 0.29446 1.03293 0.0
O84 O 0.61053 0.71237 0.89986 0.0
Cd85 Cd 0.54924 0.71657 0.83856 0.0
Cd86 Cd 0.72046 0.88712 0.83106 0.0
O87 O 0.73345 0.86488 0.89954 0.0
O88 O 0.40394 0.63845 0.84112 0.0
O89 O 0.48673 0.79945 0.83192 0.0
C90 C 0.40387 0.71936 0.83535 0.0
C91 C 0.75918 0.02973 0.79179 0.0
C92 C 0.68416 0.78242 0.91925 0.0
C93 C 0.68257 0.71885 0.76921 0.0
O94 O 0.74259 0.79992 0.78712 0.0
O95 O 0.59459 0.67168 0.78255 0.0
O96 O 0.82696 0.01814 0.80988 0.0
O97 O 0.66945 0.96712 0.80162 0.0
O98 O 0.89604 0.61162 1.06653 0.0
Cd99 Cd 0.83055 0.55033 1.00523 0.0
Cd100 Cd 0.83122 0.72155 0.99773 0.0
O101 O 0.86644 0.73452 1.06621 0.0
O102 O 0.76339 0.40503 1.00779 0.0
O103 O 0.68514 0.48779 0.99859 0.0
C104 C 0.68239 0.40495 1.00202 0.0
C105 C 0.72735 0.76024 0.95845 0.0
C106 C 0.89961 0.68524 1.08592 0.0
C107 C 0.9616 0.68366 0.93588 0.0
O108 O 0.94056 0.74368 0.95379 0.0
O109 O 0.92078 0.59567 0.94921 0.0
O110 O 0.80669 0.82803 0.97654 0.0
O111 O 0.70021 0.67051 0.96827 0.0
O112 O 0.28229 0.89711 0.2332 0.0
Cd113 Cd 0.27809 0.83161 0.1719 0.0
Cd114 Cd 0.10754 0.83229 0.1644 0.0
O115 O 0.12979 0.86751 0.23288 0.0
O116 O 0.35622 0.76445 0.17446 0.0
O117 O 0.19521 0.6862 0.16526 0.0
C118 C 0.27531 0.68346 0.16869 0.0
C119 C 0.96498 0.72843 0.12512 0.0
C120 C 0.21225 0.90068 0.25259 0.0
C121 C 0.27582 0.96267 0.10255 0.0
O122 O 0.19476 0.94164 0.12047 0.0
O123 O 0.32297 0.92184 0.11588 0.0
O124 O 0.97653 0.80776 0.14321 0.0
O125 O 0.02758 0.70129 0.13495 0.0
O126 O 0.38308 0.28338 0.39986 0.0
Cd127 Cd 0.44437 0.27919 0.33857 0.0
Cd128 Cd 0.27315 0.10863 0.33107 0.0
O129 O 0.26017 0.13087 0.39955 0.0
O130 O 0.58967 0.35731 0.34113 0.0
O131 O 0.50689 0.19631 0.33193 0.0
C132 C 0.58974 0.2764 0.33535 0.0
C133 C 0.23444 0.96607 0.29178 0.0
C134 C 0.30945 0.21333 0.41926 0.0
C135 C 0.31104 0.27691 0.26922 0.0
O136 O 0.25102 0.19585 0.28713 0.0
O137 O 0.39903 0.32408 0.28255 0.0
O138 O 0.16665 0.97761 0.30988 0.0
O139 O 0.32417 0.02866 0.30161 0.0
O140 O 0.09758 0.38413 0.56653 0.0
Cd141 Cd 0.16307 0.44543 0.50523 0.0
Cd142 Cd 0.1624 0.27421 0.49774 0.0
O143 O 0.12718 0.26123 0.56621 0.0
O144 O 0.23023 0.59072 0.5078 0.0
O145 O 0.30848 0.50797 0.4986 0.0
C146 C 0.31122 0.59081 0.50203 0.0
C147 C 0.26626 0.23551 0.45845 0.0
C148 C 0.09401 0.31052 0.58593 0.0
C149 C 0.03201 0.3121 0.43588 0.0
O150 O 0.05305 0.25208 0.4538 0.0
O151 O 0.07284 0.40008 0.44922 0.0
O152 O 0.18692 0.16772 0.47654 0.0
O153 O 0.2934 0.32524 0.46828 0.0
O154 O 0.71132 0.09867 0.73321 0.0
Cd155 Cd 0.71552 0.16415 0.67191 0.0
Cd156 Cd 0.88608 0.16346 0.66441 0.0
O157 O 0.86384 0.12826 0.73289 0.0
O158 O 0.63738 0.23131 0.67447 0.0
O159 O 0.79839 0.30956 0.66526 0.0
C160 C 0.71829 0.3123 0.66869 0.0
C161 C 0.02864 0.26732 0.62512 0.0
C162 C 0.78138 0.09512 0.7526 0.0
C163 C 0.71779 0.03308 0.60256 0.0
O164 O 0.79885 0.05412 0.62047 0.0
O165 O 0.67064 0.07391 0.61589 0.0
O166 O 0.01709 0.18799 0.64322 0.0
O167 O 0.96604 0.29446 0.63495 0.0
loop_
_geom_bond_atom_site_label_1
_geom_bond_atom_site_label_2
_geom_bond_distance
_geom_bond_site_symmetry_2
_ccdc_geom_bond_type
O0 Cd1 2.223 . S
O0 C8 1.315 . S
Cd1 O0 2.223 . S
Cd1 O4 2.297 . S
Cd1 O5 2.439 . S
Cd1 O11 2.240 . S
Cd2 O3 2.240 . S
Cd2 O10 2.223 . S
Cd2 O12 2.297 1_455 S
Cd2 O13 2.439 1_455 S
O3 Cd2 2.240 . S
O3 C8 1.279 . S
O4 Cd1 2.297 . S
O4 C6 1.247 . S
O5 Cd1 2.439 . S
O5 C6 1.208 . S
C6 O4 1.247 . S
C6 O5 1.208 . S
C7 O12 1.247 . S
C7 O13 1.208 . S
C8 O0 1.315 . S
C8 O3 1.279 . S
C9 O10 1.315 . S
C9 O11 1.279 . S
O10 Cd2 2.223 . S
O10 C9 1.315 . S
O11 Cd1 2.240 . S
O11 C9 1.279 . S
O12 Cd2 2.297 1_655 S
O12 C7 1.247 . S
O13 Cd2 2.439 1_655 S
O13 C7 1.208 . S
O14 Cd15 2.223 . S
O14 C22 1.315 . S
Cd15 O14 2.223 . S
Cd15 O18 2.297 . S
Cd15 O19 2.439 . S
Cd15 O25 2.240 . S
Cd16 O17 2.240 . S
Cd16 O24 2.223 . S
Cd16 O26 2.297 1_545 S
Cd16 O27 2.439 1_545 S
O17 Cd16 2.240 . S
O17 C22 1.279 . S
O18 Cd15 2.297 . S
O18 C20 1.247 . S
O19 Cd15 2.439 . S
O19 C20 1.208 . S
C20 O18 1.247 . S
C20 O19 1.208 . S
C21 O26 1.247 . S
C21 O27 1.208 . S
C22 O14 1.315 . S
C22 O17 1.279 . S
C23 O24 1.315 . S
C23 O25 1.279 . S
O24 Cd16 2.223 . S
O24 C23 1.315 . S
O25 Cd15 2.240 . S
O25 C23 1.279 . S
O26 Cd16 2.297 1_565 S
O26 C21 1.247 . S
O27 Cd16 2.439 1_565 S
O27 C21 1.208 . S
O28 Cd29 2.223 . S
O28 C36 1.315 . S
Cd29 O28 2.223 . S
Cd29 O32 2.297 . S
Cd29 O33 2.439 . S
Cd29 O39 2.240 . S
Cd30 O31 2.240 . S
Cd30 O38 2.223 . S
Cd30 O40 2.297 . S
Cd30 O41 2.439 . S
O31 Cd30 2.240 . S
O31 C36 1.279 . S
O32 Cd29 2.297 . S
O32 C34 1.247 . S
O33 Cd29 2.439 . S
O33 C34 1.208 . S
C34 O32 1.247 . S
C34 O33 1.208 . S
C35 O40 1.247 . S
C35 O41 1.208 . S
C36 O28 1.315 . S
C36 O31 1.279 . S
C37 O38 1.315 . S
C37 O39 1.279 . S
O38 Cd30 2.223 . S
O38 C37 1.315 . S
O39 Cd29 2.240 . S
O39 C37 1.279 . S
O40 Cd30 2.297 . S
O40 C35 1.247 . S
O41 Cd30 2.439 . S
O41 C35 1.208 . S
O42 Cd43 2.223 . S
O42 C50 1.315 . S
Cd43 O42 2.223 . S
Cd43 O46 2.297 . S
Cd43 O47 2.439 . S
Cd43 O53 2.240 . S
Cd44 O45 2.240 . S
Cd44 O52 2.223 . S
Cd44 O54 2.297 1_655 S
Cd44 O55 2.439 1_655 S
O45 Cd44 2.240 . S
O45 C50 1.279 . S
O46 Cd43 2.297 . S
O46 C48 1.247 . S
O47 Cd43 2.439 . S
O47 C48 1.208 . S
C48 O46 1.247 . S
C48 O47 1.208 . S
C49 O54 1.247 . S
C49 O55 1.208 . S
C50 O42 1.315 . S
C50 O45 1.279 . S
C51 O52 1.315 . S
C51 O53 1.279 . S
O52 Cd44 2.223 . S
O52 C51 1.315 . S
O53 Cd43 2.240 . S
O53 C51 1.279 . S
O54 Cd44 2.297 1_455 S
O54 C49 1.247 . S
O55 Cd44 2.439 1_455 S
O55 C49 1.208 . S
O56 Cd57 2.223 . S
O56 C64 1.315 . S
Cd57 O56 2.223 . S
Cd57 O60 2.297 . S
Cd57 O61 2.439 . S
Cd57 O67 2.240 . S
Cd58 O59 2.240 . S
Cd58 O66 2.223 . S
Cd58 O68 2.297 1_565 S
Cd58 O69 2.439 1_565 S
O59 Cd58 2.240 . S
O59 C64 1.279 . S
O60 Cd57 2.297 . S
O60 C62 1.247 . S
O61 Cd57 2.439 . S
O61 C62 1.208 . S
C62 O60 1.247 . S
C62 O61 1.208 . S
C63 O68 1.247 . S
C63 O69 1.208 . S
C64 O56 1.315 . S
C64 O59 1.279 . S
C65 O66 1.315 . S
C65 O67 1.279 . S
O66 Cd58 2.223 . S
O66 C65 1.315 . S
O67 Cd57 2.240 . S
O67 C65 1.279 . S
O68 Cd58 2.297 1_545 S
O68 C63 1.247 . S
O69 Cd58 2.439 1_545 S
O69 C63 1.208 . S
O70 Cd71 2.223 . S
O70 C78 1.315 . S
Cd71 O70 2.223 . S
Cd71 O74 2.297 . S
Cd71 O75 2.439 . S
Cd71 O81 2.240 . S
Cd72 O73 2.240 . S
Cd72 O80 2.223 . S
Cd72 O82 2.297 1_556 S
Cd72 O83 2.439 1_556 S
O73 Cd72 2.240 . S
O73 C78 1.279 . S
O74 Cd71 2.297 . S
O74 C76 1.247 . S
O75 Cd71 2.439 . S
O75 C76 1.208 . S
C76 O74 1.247 . S
C76 O75 1.208 . S
C77 O82 1.247 . S
C77 O83 1.208 . S
C78 O70 1.315 . S
C78 O73 1.279 . S
C79 O80 1.315 . S
C79 O81 1.279 . S
O80 Cd72 2.223 . S
O80 C79 1.315 . S
O81 Cd71 2.240 . S
O81 C79 1.279 . S
O82 Cd72 2.297 1_554 S
O82 C77 1.247 . S
O83 Cd72 2.439 1_554 S
O83 C77 1.208 . S
O84 Cd85 2.223 . S
O84 C92 1.315 . S
Cd85 O84 2.223 . S
Cd85 O88 2.297 . S
Cd85 O89 2.439 . S
Cd85 O95 2.240 . S
Cd86 O87 2.240 . S
Cd86 O94 2.223 . S
Cd86 O96 2.297 1_565 S
Cd86 O97 2.439 1_565 S
O87 Cd86 2.240 . S
O87 C92 1.279 . S
O88 Cd85 2.297 . S
O88 C90 1.247 . S
O89 Cd85 2.439 . S
O89 C90 1.208 . S
C90 O88 1.247 . S
C90 O89 1.208 . S
C91 O96 1.247 . S
C91 O97 1.208 . S
C92 O84 1.315 . S
C92 O87 1.279 . S
C93 O94 1.315 . S
C93 O95 1.279 . S
O94 Cd86 2.223 . S
O94 C93 1.315 . S
O95 Cd85 2.240 . S
O95 C93 1.279 . S
O96 Cd86 2.297 1_545 S
O96 C91 1.247 . S
O97 Cd86 2.439 1_545 S
O97 C91 1.208 . S
O98 Cd99 2.223 . S
O98 C106 1.315 . S
Cd99 O98 2.223 . S
Cd99 O102 2.297 . S
Cd99 O103 2.439 . S
Cd99 O109 2.240 . S
Cd100 O101 2.240 . S
Cd100 O108 2.223 . S
Cd100 O110 2.297 . S
Cd100 O111 2.439 . S
O101 Cd100 2.240 . S
O101 C106 1.279 . S
O102 Cd99 2.297 . S
O102 C104 1.247 . S
O103 Cd99 2.439 . S
O103 C104 1.208 . S
C104 O102 1.247 . S
C104 O103 1.208 . S
C105 O110 1.247 . S
C105 O111 1.208 . S
C106 O98 1.315 . S
C106 O101 1.279 . S
C107 O108 1.315 . S
C107 O109 1.279 . S
O108 Cd100 2.223 . S
O108 C107 1.315 . S
O109 Cd99 2.240 . S
O109 C107 1.279 . S
O110 Cd100 2.297 . S
O110 C105 1.247 . S
O111 Cd100 2.439 . S
O111 C105 1.208 . S
O112 Cd113 2.223 . S
O112 C120 1.315 . S
Cd113 O112 2.223 . S
Cd113 O116 2.297 . S
Cd113 O117 2.439 . S
Cd113 O123 2.240 1_554 S
Cd114 O115 2.240 . S
Cd114 O122 2.223 . S
Cd114 O124 2.297 1_454 S
Cd114 O125 2.439 1_454 S
O115 Cd114 2.240 . S
O115 C120 1.279 . S
O116 Cd113 2.297 . S
O116 C118 1.247 . S
O117 Cd113 2.439 . S
O117 C118 1.208 . S
C118 O116 1.247 . S
C118 O117 1.208 . S
C119 O124 1.247 . S
C119 O125 1.208 . S
C120 O112 1.315 . S
C120 O115 1.279 . S
C121 O122 1.315 1_556 S
C121 O123 1.279 . S
O122 Cd114 2.223 . S
O122 C121 1.315 1_554 S
O123 Cd113 2.240 1_556 S
O123 C121 1.279 . S
O124 Cd114 2.297 1_656 S
O124 C119 1.247 . S
O125 Cd114 2.439 1_656 S
O125 C119 1.208 . S
O126 Cd127 2.223 . S
O126 C134 1.315 . S
Cd127 O126 2.223 . S
Cd127 O130 2.297 . S
Cd127 O131 2.439 . S
Cd127 O137 2.240 . S
Cd128 O129 2.240 . S
Cd128 O136 2.223 . S
Cd128 O138 2.297 1_545 S
Cd128 O139 2.439 1_545 S
O129 Cd128 2.240 . S
O129 C134 1.279 . S
O130 Cd127 2.297 . S
O130 C132 1.247 . S
O131 Cd127 2.439 . S
O131 C132 1.208 . S
C132 O130 1.247 . S
C132 O131 1.208 . S
C133 O138 1.247 . S
C133 O139 1.208 . S
C134 O126 1.315 . S
C134 O129 1.279 . S
C135 O136 1.315 . S
C135 O137 1.279 . S
O136 Cd128 2.223 . S
O136 C135 1.315 . S
O137 Cd127 2.240 . S
O137 C135 1.279 . S
O138 Cd128 2.297 1_565 S
O138 C133 1.247 . S
O139 Cd128 2.439 1_565 S
O139 C133 1.208 . S
O140 Cd141 2.223 . S
O140 C148 1.315 . S
Cd141 O140 2.223 . S
Cd141 O144 2.297 . S
Cd141 O145 2.439 . S
Cd141 O151 2.240 . S
Cd142 O143 2.240 . S
Cd142 O150 2.223 . S
Cd142 O152 2.297 . S
Cd142 O153 2.439 . S
O143 Cd142 2.240 . S
O143 C148 1.279 . S
O144 Cd141 2.297 . S
O144 C146 1.247 . S
O145 Cd141 2.439 . S
O145 C146 1.208 . S
C146 O144 1.247 . S
C146 O145 1.208 . S
C147 O152 1.247 . S
C147 O153 1.208 . S
C148 O140 1.315 . S
C148 O143 1.279 . S
C149 O150 1.315 . S
C149 O151 1.279 . S
O150 Cd142 2.223 . S
O150 C149 1.315 . S
O151 Cd141 2.240 . S
O151 C149 1.279 . S
O152 Cd142 2.297 . S
O152 C147 1.247 . S
O153 Cd142 2.439 . S
O153 C147 1.208 . S
O154 Cd155 2.223 . S
O154 C162 1.315 . S
Cd155 O154 2.223 . S
Cd155 O158 2.297 . S
Cd155 O159 2.439 . S
Cd155 O165 2.240 . S
Cd156 O157 2.240 . S
Cd156 O164 2.223 . S
Cd156 O166 2.297 1_655 S
Cd156 O167 2.439 1_655 S
O157 Cd156 2.240 . S
O157 C162 1.279 . S
O158 Cd155 2.297 . S
O158 C160 1.247 . S
O159 Cd155 2.439 . S
O159 C160 1.208 . S
C160 O158 1.247 . S
C160 O159 1.208 . S
C161 O166 1.247 . S
C161 O167 1.208 . S
C162 O154 1.315 . S
C162 O157 1.279 . S
C163 O164 1.315 . S
C163 O165 1.279 . S
O164 Cd156 2.223 . S
O164 C163 1.315 . S
O165 Cd155 2.240 . S
O165 C163 1.279 . S
O166 Cd156 2.297 1_455 S
O166 C161 1.247 . S
O167 Cd156 2.439 1_455 S
O167 C161 1.208 . S
C118 C6 1.389 . S
C20 C132 1.389 . S
C34 C146 1.389 . S
C48 C160 1.389 . S
C90 C62 1.389 . S
C76 C104 1.389 . S
C135 C9 0.971 . S
C23 C149 0.971 1_655 S
C163 C37 0.972 1_545 S
C51 C93 0.972 . S
C107 C65 0.972 1_655 S
C121 C79 0.971 1_565 S
C8 C77 1.419 . S
C22 C7 1.419 . S
C21 C36 1.419 . S
C50 C35 1.419 . S
C64 C49 1.419 . S
C78 C63 1.419 . S
C92 C105 1.419 . S
C106 C119 1.419 . S
C120 C133 1.419 . S
C134 C147 1.419 . S
C148 C161 1.419 . S
C91 C162 1.419 . S
