# Generated by pormake.
# Topology sod, (4)-cn, num edge types: 1
# Building blocks:
#     Node 0, Type 0, BuildingBlock: GALJAG_clean_sbu_0, # of connection points: 4
#     Node 1, Type 0, BuildingBlock: GALJAG_clean_sbu_0, # of connection points: 4
#     Node 2, Type 0, BuildingBlock: GALJAG_clean_sbu_0, # of connection points: 4
#     Node 3, Type 0, BuildingBlock: GALJAG_clean_sbu_0, # of connection points: 4
#     Node 4, Type 0, BuildingBlock: GALJAG_clean_sbu_0, # of connection points: 4
#     Node 5, Type 0, BuildingBlock: GALJAG_clean_sbu_0, # of connection points: 4
#     Node 6, Type 0, BuildingBlock: GALJAG_clean_sbu_0, # of connection points: 4
#     Node 7, Type 0, BuildingBlock: GALJAG_clean_sbu_0, # of connection points: 4
#     Node 8, Type 0, BuildingBlock: GALJAG_clean_sbu_0, # of connection points: 4
#     Node 9, Type 0, BuildingBlock: GALJAG_clean_sbu_0, # of connection points: 4
#     Node 10, Type 0, BuildingBlock: GALJAG_clean_sbu_0, # of connection points: 4
#     Node 11, Type 0, BuildingBlock: GALJAG_clean_sbu_0, # of connection points: 4
#     Edge 12, Type (0, 0), None
#     Edge 13, Type (0, 0), None
#     Edge 14, Type (0, 0), None
#     Edge 15, Type (0, 0), None
#     Edge 16, Type (0, 0), None
#     Edge 17, Type (0, 0), None
#     Edge 18, Type (0, 0), None
#     Edge 19, Type (0, 0), None
#     Edge 20, Type (0, 0), None
#     Edge 21, Type (0, 0), None
#     Edge 22, Type (0, 0), None
#     Edge 23, Type (0, 0), None
#     Edge 24, Type (0, 0), None
#     Edge 25, Type (0, 0), None
#     Edge 26, Type (0, 0), None
#     Edge 27, Type (0, 0), None
#     Edge 28, Type (0, 0), None
#     Edge 29, Type (0, 0), None
#     Edge 30, Type (0, 0), None
#     Edge 31, Type (0, 0), None
#     Edge 32, Type (0, 0), None
#     Edge 33, Type (0, 0), None
#     Edge 34, Type (0, 0), None
#     Edge 35, Type (0, 0), None
# Relax obj value: 0.078
# Max RMSD: 0.153
# Mean RMSD: 0.153
data_MOF--net-sod--node1-GALJAG_clean_sbu_0--edge1-none
_symmetry_space_group_name_H-M    P1
_symmetry_Int_Tables_number       1
_symmetry_cell_setting            triclinic
loop_
_symmetry_equiv_pos_as_xyz
'x, y, z'
_cell_length_a     19.376675
_cell_length_b     19.337963
_cell_length_c     19.357739
_cell_angle_alpha  90.000017
_cell_angle_beta   90.000011
_cell_angle_gamma 89.999085
loop_
_atom_site_label
_atom_site_type_symbol
_atom_site_fract_x
_atom_site_fract_y
_atom_site_fract_z
_atom_type_partial_charge
In0 In 0.00464 0.25432 0.50013 0.0
O1 O 0.92587 0.18585 0.55509 0.0
O2 O 0.92627 0.18542 0.44518 0.0
C3 C 0.00467 0.34643 0.60469 0.0
C4 C 0.10907 0.16219 0.50013 0.0
C5 C 0.00461 0.34642 0.39556 0.0
O6 O 0.94976 0.32308 0.57872 0.0
O7 O 0.05957 0.32292 0.57884 0.0
O8 O 0.05952 0.32308 0.42153 0.0
O9 O 0.94971 0.32292 0.42141 0.0
C10 C 0.9002 0.1622 0.50013 0.0
O11 O 0.08326 0.1857 0.44518 0.0
O12 O 0.08314 0.18556 0.5551 0.0
In13 In 0.75467 0.00429 0.50013 0.0
O14 O 0.68615 0.94924 0.57878 0.0
O15 O 0.68596 0.05928 0.57863 0.0
C16 C 0.84675 0.89977 0.50013 0.0
C17 C 0.66258 0.00432 0.39573 0.0
C18 C 0.84676 0.10879 0.50013 0.0
O19 O 0.82333 0.92566 0.5551 0.0
O20 O 0.82324 0.92558 0.44517 0.0
O21 O 0.82348 0.08277 0.44517 0.0
O22 O 0.8231 0.08313 0.5551 0.0
C23 C 0.66257 0.00426 0.60451 0.0
O24 O 0.68615 0.05933 0.42148 0.0
O25 O 0.68596 0.94929 0.42163 0.0
In26 In 0.00464 0.75425 0.50009 0.0
O27 O 0.05954 0.68577 0.57893 0.0
O28 O 0.94973 0.68536 0.57856 0.0
C29 C 0.10908 0.84637 0.50006 0.0
C30 C 0.00465 0.66214 0.39554 0.0
C31 C 0.90021 0.84638 0.50011 0.0
O32 O 0.08302 0.82315 0.55502 0.0
O33 O 0.0834 0.82272 0.4451 0.0
O34 O 0.92613 0.82301 0.44515 0.0
O35 O 0.92602 0.82286 0.55507 0.0
C36 C 0.00464 0.66215 0.60465 0.0
O37 O 0.94974 0.68578 0.42125 0.0
O38 O 0.05955 0.68535 0.42163 0.0
In39 In 0.2546 0.00428 0.50009 0.0
O40 O 0.18623 0.92541 0.4451 0.0
O41 O 0.18576 0.92583 0.55503 0.0
C42 C 0.3467 0.00428 0.3957 0.0
C43 C 0.16252 0.10879 0.50011 0.0
C44 C 0.34669 0.00429 0.60449 0.0
O45 O 0.32341 0.94926 0.42169 0.0
O46 O 0.32304 0.0593 0.42135 0.0
O47 O 0.3234 0.0593 0.5785 0.0
O48 O 0.32304 0.94927 0.57884 0.0
C49 C 0.16252 0.89978 0.50006 0.0
O50 O 0.18608 0.08301 0.55507 0.0
O51 O 0.1859 0.08288 0.44514 0.0
In52 In 0.50466 0.00431 0.25039 0.0
O53 O 0.58325 0.94931 0.31898 0.0
O54 O 0.58322 0.05935 0.31902 0.0
C55 C 0.50468 0.89981 0.15821 0.0
C56 C 0.4002 0.00429 0.3424 0.0
C57 C 0.50465 0.10879 0.15819 0.0
O58 O 0.55958 0.92565 0.18171 0.0
O59 O 0.44977 0.92566 0.18169 0.0
O60 O 0.44975 0.08282 0.18156 0.0
O61 O 0.55956 0.08309 0.18183 0.0
C62 C 0.6091 0.00433 0.34241 0.0
O63 O 0.42592 0.05931 0.31884 0.0
O64 O 0.42623 0.94928 0.31915 0.0
In65 In 0.00462 0.50426 0.24983 0.0
O66 O 0.92589 0.44926 0.18138 0.0
O67 O 0.92619 0.55929 0.18107 0.0
C68 C 0.0046 0.39979 0.34203 0.0
C69 C 0.10908 0.50425 0.15782 0.0
C70 C 0.00463 0.60875 0.34202 0.0
O71 O 0.94969 0.42562 0.31852 0.0
O72 O 0.05951 0.42562 0.31853 0.0
O73 O 0.05953 0.58278 0.31866 0.0
O74 O 0.94972 0.58305 0.31838 0.0
C75 C 0.90016 0.50428 0.15781 0.0
O76 O 0.08321 0.55926 0.18124 0.0
O77 O 0.08319 0.44923 0.18121 0.0
In78 In 0.50462 0.00426 0.74983 0.0
O79 O 0.58321 0.05926 0.68124 0.0
O80 O 0.58319 0.94923 0.68121 0.0
C81 C 0.50464 0.10876 0.84201 0.0
C82 C 0.40017 0.00428 0.65781 0.0
C83 C 0.5046 0.89978 0.84202 0.0
O84 O 0.55953 0.08278 0.81866 0.0
O85 O 0.44972 0.08305 0.81838 0.0
O86 O 0.44969 0.92561 0.81852 0.0
O87 O 0.55951 0.92562 0.81853 0.0
C88 C 0.60908 0.00425 0.65781 0.0
O89 O 0.42589 0.94926 0.68137 0.0
O90 O 0.42619 0.05929 0.68107 0.0
In91 In 0.00466 0.50431 0.75039 0.0
O92 O 0.08326 0.44931 0.81898 0.0
O93 O 0.08322 0.55935 0.81902 0.0
C94 C 0.00468 0.39981 0.6582 0.0
C95 C 0.90019 0.50429 0.84239 0.0
C96 C 0.00465 0.60878 0.65819 0.0
O97 O 0.05958 0.42565 0.68171 0.0
O98 O 0.94977 0.42566 0.68169 0.0
O99 O 0.94975 0.58282 0.68156 0.0
O100 O 0.05956 0.58308 0.68183 0.0
C101 C 0.10911 0.50433 0.84241 0.0
O102 O 0.92592 0.55931 0.81884 0.0
O103 O 0.92623 0.44928 0.81915 0.0
In104 In 0.25467 0.50429 0.00013 0.0
O105 O 0.18615 0.44925 0.07878 0.0
O106 O 0.18595 0.55928 0.07863 0.0
C107 C 0.34675 0.39977 0.00013 0.0
C108 C 0.16257 0.50432 0.89574 0.0
C109 C 0.34675 0.6088 0.00013 0.0
O110 O 0.32333 0.42566 0.0551 0.0
O111 O 0.32324 0.42559 0.94517 0.0
O112 O 0.32347 0.58278 0.94518 0.0
O113 O 0.3231 0.58312 0.0551 0.0
C114 C 0.16256 0.50426 0.10451 0.0
O115 O 0.18615 0.55933 0.92148 0.0
O116 O 0.18596 0.44929 0.92163 0.0
In117 In 0.50464 0.25425 9e-05 0.0
O118 O 0.55954 0.18578 0.07893 0.0
O119 O 0.44973 0.18536 0.07855 0.0
C120 C 0.60908 0.34637 6e-05 0.0
C121 C 0.50465 0.16213 0.89554 0.0
C122 C 0.40021 0.34638 0.00011 0.0
O123 O 0.58302 0.32315 0.05502 0.0
O124 O 0.5834 0.32272 0.9451 0.0
O125 O 0.42613 0.32301 0.94515 0.0
O126 O 0.42602 0.32286 0.05507 0.0
C127 C 0.50464 0.16214 0.10465 0.0
O128 O 0.44974 0.18578 0.92124 0.0
O129 O 0.55955 0.18535 0.92163 0.0
In130 In 0.7546 0.50428 9e-05 0.0
O131 O 0.68622 0.42541 0.9451 0.0
O132 O 0.68576 0.42583 0.05502 0.0
C133 C 0.84671 0.50428 0.89571 0.0
C134 C 0.66253 0.6088 0.00011 0.0
C135 C 0.8467 0.50429 0.10448 0.0
O136 O 0.82341 0.44926 0.92168 0.0
O137 O 0.82304 0.5593 0.92135 0.0
O138 O 0.8234 0.5593 0.0785 0.0
O139 O 0.82304 0.44927 0.07883 0.0
C140 C 0.66252 0.39978 6e-05 0.0
O141 O 0.68608 0.58301 0.05507 0.0
O142 O 0.6859 0.58288 0.94514 0.0
In143 In 0.50464 0.75432 0.00013 0.0
O144 O 0.42588 0.68585 0.05509 0.0
O145 O 0.42627 0.68542 0.94518 0.0
C146 C 0.50467 0.84644 0.10468 0.0
C147 C 0.60907 0.66219 0.00013 0.0
C148 C 0.50461 0.84643 0.89557 0.0
O149 O 0.44976 0.82309 0.07872 0.0
O150 O 0.55957 0.82292 0.07884 0.0
O151 O 0.55952 0.82308 0.92154 0.0
O152 O 0.44971 0.82292 0.92141 0.0
C153 C 0.40021 0.66219 0.00013 0.0
O154 O 0.58326 0.68571 0.94518 0.0
O155 O 0.58314 0.68556 0.0551 0.0
loop_
_geom_bond_atom_site_label_1
_geom_bond_atom_site_label_2
_geom_bond_distance
_geom_bond_site_symmetry_2
_ccdc_geom_bond_type
In0 O1 2.294 1_455 S
In0 O2 2.326 1_455 S
In0 O6 2.266 1_455 S
In0 O7 2.326 . S
In0 O8 2.266 . S
In0 O9 2.326 1_455 S
In0 O11 2.294 . S
In0 O12 2.326 . S
O1 In0 2.294 1_655 S
O1 C10 1.240 . S
O2 In0 2.326 1_655 S
O2 C10 1.252 . S
C3 O6 1.252 1_455 S
C3 O7 1.260 . S
C4 O11 1.240 . S
C4 O12 1.252 . S
C5 O8 1.252 1_655 S
C5 O9 1.260 . S
O6 In0 2.266 1_655 S
O6 C3 1.252 1_655 S
O7 In0 2.326 . S
O7 C3 1.260 . S
O8 In0 2.266 . S
O8 C5 1.252 1_455 S
O9 In0 2.326 1_655 S
O9 C5 1.260 . S
C10 O1 1.240 . S
C10 O2 1.252 . S
O11 In0 2.294 . S
O11 C4 1.240 . S
O12 In0 2.326 . S
O12 C4 1.252 . S
In13 O14 2.294 1_545 S
In13 O15 2.326 . S
In13 O19 2.266 1_545 S
In13 O20 2.326 1_545 S
In13 O21 2.266 . S
In13 O22 2.326 . S
In13 O24 2.294 . S
In13 O25 2.326 1_545 S
O14 In13 2.294 1_565 S
O14 C23 1.240 1_565 S
O15 In13 2.326 . S
O15 C23 1.252 . S
C16 O19 1.252 . S
C16 O20 1.260 . S
C17 O24 1.240 1_565 S
C17 O25 1.252 . S
C18 O21 1.252 . S
C18 O22 1.260 . S
O19 In13 2.266 1_565 S
O19 C16 1.252 . S
O20 In13 2.326 1_565 S
O20 C16 1.260 . S
O21 In13 2.266 . S
O21 C18 1.252 . S
O22 In13 2.326 . S
O22 C18 1.260 . S
C23 O14 1.240 1_545 S
C23 O15 1.252 . S
O24 In13 2.294 . S
O24 C17 1.240 1_545 S
O25 In13 2.326 1_565 S
O25 C17 1.252 . S
In26 O27 2.294 . S
In26 O28 2.326 1_455 S
In26 O32 2.266 . S
In26 O33 2.326 . S
In26 O34 2.266 1_455 S
In26 O35 2.326 1_455 S
In26 O37 2.294 1_455 S
In26 O38 2.326 . S
O27 In26 2.294 . S
O27 C36 1.240 1_455 S
O28 In26 2.326 1_655 S
O28 C36 1.252 . S
C29 O32 1.252 . S
C29 O33 1.260 . S
C30 O37 1.240 1_455 S
C30 O38 1.252 . S
C31 O34 1.252 . S
C31 O35 1.260 . S
O32 In26 2.266 . S
O32 C29 1.252 . S
O33 In26 2.326 . S
O33 C29 1.260 . S
O34 In26 2.266 1_655 S
O34 C31 1.252 . S
O35 In26 2.326 1_655 S
O35 C31 1.260 . S
C36 O27 1.240 1_655 S
C36 O28 1.252 . S
O37 In26 2.294 1_655 S
O37 C30 1.240 1_655 S
O38 In26 2.326 . S
O38 C30 1.252 . S
In39 O40 2.294 1_545 S
In39 O41 2.326 1_545 S
In39 O45 2.266 1_545 S
In39 O46 2.326 . S
In39 O47 2.266 . S
In39 O48 2.326 1_545 S
In39 O50 2.294 . S
In39 O51 2.326 . S
O40 In39 2.294 1_565 S
O40 C49 1.240 . S
O41 In39 2.326 1_565 S
O41 C49 1.252 . S
C42 O45 1.252 1_545 S
C42 O46 1.260 . S
C43 O50 1.240 . S
C43 O51 1.252 . S
C44 O47 1.252 1_565 S
C44 O48 1.260 . S
O45 In39 2.266 1_565 S
O45 C42 1.252 1_565 S
O46 In39 2.326 . S
O46 C42 1.260 . S
O47 In39 2.266 . S
O47 C44 1.252 1_545 S
O48 In39 2.326 1_565 S
O48 C44 1.260 . S
C49 O40 1.240 . S
C49 O41 1.252 . S
O50 In39 2.294 . S
O50 C43 1.240 . S
O51 In39 2.326 . S
O51 C43 1.252 . S
In52 O53 2.294 1_545 S
In52 O54 2.326 . S
In52 O58 2.266 1_545 S
In52 O59 2.326 1_545 S
In52 O60 2.266 . S
In52 O61 2.326 . S
In52 O63 2.294 . S
In52 O64 2.326 1_545 S
O53 In52 2.294 1_565 S
O53 C62 1.240 1_565 S
O54 In52 2.326 . S
O54 C62 1.252 . S
C55 O58 1.252 . S
C55 O59 1.260 . S
C56 O63 1.240 1_565 S
C56 O64 1.252 . S
C57 O60 1.252 . S
C57 O61 1.260 . S
O58 In52 2.266 1_565 S
O58 C55 1.252 . S
O59 In52 2.326 1_565 S
O59 C55 1.260 . S
O60 In52 2.266 . S
O60 C57 1.252 . S
O61 In52 2.326 . S
O61 C57 1.260 . S
C62 O53 1.240 1_545 S
C62 O54 1.252 . S
O63 In52 2.294 . S
O63 C56 1.240 1_545 S
O64 In52 2.326 1_565 S
O64 C56 1.252 . S
In65 O66 2.294 1_455 S
In65 O67 2.326 1_455 S
In65 O71 2.266 1_455 S
In65 O72 2.326 . S
In65 O73 2.266 . S
In65 O74 2.326 1_455 S
In65 O76 2.294 . S
In65 O77 2.326 . S
O66 In65 2.294 1_655 S
O66 C75 1.240 . S
O67 In65 2.326 1_655 S
O67 C75 1.252 . S
C68 O71 1.252 1_455 S
C68 O72 1.260 . S
C69 O76 1.240 . S
C69 O77 1.252 . S
C70 O73 1.252 1_655 S
C70 O74 1.260 . S
O71 In65 2.266 1_655 S
O71 C68 1.252 1_655 S
O72 In65 2.326 . S
O72 C68 1.260 . S
O73 In65 2.266 . S
O73 C70 1.252 1_455 S
O74 In65 2.326 1_655 S
O74 C70 1.260 . S
C75 O66 1.240 . S
C75 O67 1.252 . S
O76 In65 2.294 . S
O76 C69 1.240 . S
O77 In65 2.326 . S
O77 C69 1.252 . S
In78 O79 2.294 . S
In78 O80 2.326 1_545 S
In78 O84 2.266 . S
In78 O85 2.326 . S
In78 O86 2.266 1_545 S
In78 O87 2.326 1_545 S
In78 O89 2.294 1_545 S
In78 O90 2.326 . S
O79 In78 2.294 . S
O79 C88 1.240 1_545 S
O80 In78 2.326 1_565 S
O80 C88 1.252 . S
C81 O84 1.252 . S
C81 O85 1.260 . S
C82 O89 1.240 1_545 S
C82 O90 1.252 . S
C83 O86 1.252 . S
C83 O87 1.260 . S
O84 In78 2.266 . S
O84 C81 1.252 . S
O85 In78 2.326 . S
O85 C81 1.260 . S
O86 In78 2.266 1_565 S
O86 C83 1.252 . S
O87 In78 2.326 1_565 S
O87 C83 1.260 . S
C88 O79 1.240 1_565 S
C88 O80 1.252 . S
O89 In78 2.294 1_565 S
O89 C82 1.240 1_565 S
O90 In78 2.326 . S
O90 C82 1.252 . S
In91 O92 2.294 . S
In91 O93 2.326 . S
In91 O97 2.266 . S
In91 O98 2.326 1_455 S
In91 O99 2.266 1_455 S
In91 O100 2.326 . S
In91 O102 2.294 1_455 S
In91 O103 2.326 1_455 S
O92 In91 2.294 . S
O92 C101 1.240 . S
O93 In91 2.326 . S
O93 C101 1.252 . S
C94 O97 1.252 1_655 S
C94 O98 1.260 . S
C95 O102 1.240 . S
C95 O103 1.252 . S
C96 O99 1.252 1_455 S
C96 O100 1.260 . S
O97 In91 2.266 . S
O97 C94 1.252 1_455 S
O98 In91 2.326 1_655 S
O98 C94 1.260 . S
O99 In91 2.266 1_655 S
O99 C96 1.252 1_655 S
O100 In91 2.326 . S
O100 C96 1.260 . S
C101 O92 1.240 . S
C101 O93 1.252 . S
O102 In91 2.294 1_655 S
O102 C95 1.240 . S
O103 In91 2.326 1_655 S
O103 C95 1.252 . S
In104 O105 2.295 . S
In104 O106 2.327 . S
In104 O110 2.267 . S
In104 O111 2.325 1_554 S
In104 O112 2.266 1_554 S
In104 O113 2.326 . S
In104 O115 2.293 1_554 S
In104 O116 2.326 1_554 S
O105 In104 2.295 . S
O105 C114 1.240 . S
O106 In104 2.327 . S
O106 C114 1.252 . S
C107 O110 1.252 1_556 S
C107 O111 1.260 . S
C108 O115 1.240 . S
C108 O116 1.252 . S
C109 O112 1.252 1_554 S
C109 O113 1.260 . S
O110 In104 2.267 . S
O110 C107 1.252 1_554 S
O111 In104 2.325 1_556 S
O111 C107 1.260 . S
O112 In104 2.266 1_556 S
O112 C109 1.252 1_556 S
O113 In104 2.326 . S
O113 C109 1.260 . S
C114 O105 1.240 . S
C114 O106 1.252 . S
O115 In104 2.293 1_556 S
O115 C108 1.240 . S
O116 In104 2.326 1_556 S
O116 C108 1.252 . S
In117 O118 2.297 . S
In117 O119 2.328 . S
In117 O123 2.267 . S
In117 O124 2.323 1_554 S
In117 O125 2.265 1_554 S
In117 O126 2.328 . S
In117 O128 2.291 1_554 S
In117 O129 2.325 1_554 S
O118 In117 2.297 . S
O118 C127 1.240 . S
O119 In117 2.328 . S
O119 C127 1.252 . S
C120 O123 1.252 1_556 S
C120 O124 1.260 . S
C121 O128 1.240 . S
C121 O129 1.252 . S
C122 O125 1.252 1_554 S
C122 O126 1.260 . S
O123 In117 2.267 . S
O123 C120 1.252 1_554 S
O124 In117 2.323 1_556 S
O124 C120 1.260 . S
O125 In117 2.265 1_556 S
O125 C122 1.252 1_556 S
O126 In117 2.328 . S
O126 C122 1.260 . S
C127 O118 1.240 . S
C127 O119 1.252 . S
O128 In117 2.291 1_556 S
O128 C121 1.240 . S
O129 In117 2.325 1_556 S
O129 C121 1.252 . S
In130 O131 2.293 1_554 S
In130 O132 2.328 . S
In130 O136 2.263 1_554 S
In130 O137 2.324 1_554 S
In130 O138 2.269 . S
In130 O139 2.327 . S
In130 O141 2.295 . S
In130 O142 2.324 1_554 S
O131 In130 2.293 1_556 S
O131 C140 1.240 1_556 S
O132 In130 2.328 . S
O132 C140 1.252 . S
C133 O136 1.252 . S
C133 O137 1.260 . S
C134 O141 1.240 1_556 S
C134 O142 1.252 . S
C135 O138 1.252 . S
C135 O139 1.260 . S
O136 In130 2.263 1_556 S
O136 C133 1.252 . S
O137 In130 2.324 1_556 S
O137 C133 1.260 . S
O138 In130 2.269 . S
O138 C135 1.252 . S
O139 In130 2.327 . S
O139 C135 1.260 . S
C140 O131 1.240 1_554 S
C140 O132 1.252 . S
O141 In130 2.295 . S
O141 C134 1.240 1_554 S
O142 In130 2.324 1_556 S
O142 C134 1.252 . S
In143 O144 2.294 . S
In143 O145 2.326 1_554 S
In143 O149 2.267 . S
In143 O150 2.326 . S
In143 O151 2.265 1_554 S
In143 O152 2.325 1_554 S
In143 O154 2.294 1_554 S
In143 O155 2.327 . S
O144 In143 2.294 . S
O144 C153 1.240 1_554 S
O145 In143 2.326 1_556 S
O145 C153 1.252 . S
C146 O149 1.252 . S
C146 O150 1.260 . S
C147 O154 1.240 1_554 S
C147 O155 1.252 . S
C148 O151 1.252 . S
C148 O152 1.260 . S
O149 In143 2.267 . S
O149 C146 1.252 . S
O150 In143 2.326 . S
O150 C146 1.260 . S
O151 In143 2.265 1_556 S
O151 C148 1.252 . S
O152 In143 2.325 1_556 S
O152 C148 1.260 . S
C153 O144 1.240 1_556 S
C153 O145 1.252 . S
O154 In143 2.294 1_556 S
O154 C147 1.240 1_556 S
O155 In143 2.327 . S
O155 C147 1.252 . S
C5 C68 1.802 1_655 S
C17 C62 1.757 1_565 S
C70 C30 1.774 1_655 S
C42 C56 1.785 1_545 S
C96 C36 1.774 1_455 S
C82 C44 1.785 1_545 S
C3 C94 1.802 1_455 S
C88 C23 1.757 1_565 S
C122 C107 1.807 1_554 S
C109 C153 1.779 1_554 S
C120 C140 1.779 1_556 S
C134 C147 1.752 1_556 S
C148 C83 1.802 . S
C108 C101 1.757 . S
C81 C121 1.774 . S
C95 C133 1.785 . S
C57 C127 1.774 . S
C75 C135 1.785 . S
C146 C55 1.802 . S
C114 C69 1.757 . S
C16 C31 1.807 . S
C10 C18 1.779 . S
C29 C49 1.779 . S
C4 C43 1.752 . S
