# Generated by pormake.
# Topology bnn, (5)-cn, num edge types: 1
# Building blocks:
#     Node 0, Type 0, BuildingBlock: XOMCOT_clean_sbu_0, # of connection points: 5
#     Node 1, Type 0, BuildingBlock: XOMCOT_clean_sbu_0, # of connection points: 5
#     Edge 2, Type (0, 0), BuildingBlock: EYOCIG_clean_linker_4, # of connection points: 2
#     Edge 3, Type (0, 0), BuildingBlock: EYOCIG_clean_linker_4, # of connection points: 2
#     Edge 4, Type (0, 0), BuildingBlock: EYOCIG_clean_linker_4, # of connection points: 2
#     Edge 5, Type (0, 0), BuildingBlock: EYOCIG_clean_linker_4, # of connection points: 2
#     Edge 6, Type (0, 0), BuildingBlock: EYOCIG_clean_linker_4, # of connection points: 2
# Relax obj value: 0.023
# Max RMSD: 0.078
# Mean RMSD: 0.078
data_MOF--net-bnn--node1-XOMCOT_clean_sbu_0--edge1-EYOCIG_clean_linker_4
_symmetry_space_group_name_H-M    P1
_symmetry_Int_Tables_number       1
_symmetry_cell_setting            triclinic
loop_
_symmetry_equiv_pos_as_xyz
'x, y, z'
_cell_length_a     24.09654
_cell_length_b     22.758952
_cell_length_c     14.704681
_cell_angle_alpha  101.56414
_cell_angle_beta   89.80496
_cell_angle_gamma 122.04032
loop_
_atom_site_label
_atom_site_type_symbol
_atom_site_fract_x
_atom_site_fract_y
_atom_site_fract_z
_atom_type_partial_charge
Co0 Co 0.32585 0.68051 0.0328 0.0
C1 C 0.33171 0.68245 0.23985 0.0
C2 C 0.33329 0.77193 0.21101 0.0
C3 C 0.33353 0.77682 0.30611 0.0
N4 N 0.33309 0.71332 0.16889 0.0
N5 N 0.33245 0.72058 0.32374 0.0
H6 H 0.32836 0.63255 0.23153 0.0
H7 H 0.33214 0.8082 0.17464 0.0
C8 C 0.44843 0.83408 0.07694 0.0
O9 O 0.46875 0.82285 0.15049 0.0
N10 N 0.31776 0.6488 0.89754 0.0
C11 C 0.30261 0.58393 0.84984 0.0
C12 C 0.30191 0.5821 0.75539 0.0
C13 C 0.32581 0.68557 0.83128 0.0
N14 N 0.31652 0.64585 0.74415 0.0
C15 C 0.36433 0.58861 0.07509 0.0
C16 C 0.48572 0.64838 1.01022 0.0
C17 C 0.461 0.58516 0.04118 0.0
C18 C 0.39986 0.55604 0.07448 0.0
C19 C 0.4483 0.68003 1.01251 0.0
N20 N 0.38837 0.65055 0.04604 0.0
H21 H 0.31565 0.56137 0.09601 0.0
H22 H 0.4664 0.72621 0.98367 0.0
H23 H 0.29283 0.5409 0.88154 0.0
H24 H 0.33816 0.73999 0.84634 0.0
O25 O 0.24472 0.5905 0.03644 0.0
O26 O 0.24749 0.68572 0.01858 0.0
O27 O 0.39639 0.78285 0.02256 0.0
C28 C 0.21224 0.61962 0.02525 0.0
H29 H 0.3332 0.81772 0.35803 0.0
H30 H 0.29156 0.53745 0.69927 0.0
H31 H 0.53252 0.67205 0.98222 0.0
H32 H 0.37836 0.50676 0.09749 0.0
Co33 Co 0.64799 0.32544 0.02224 0.0
C34 C 0.64738 0.3326 0.81932 0.0
C35 C 0.57265 0.23036 0.84083 0.0
C36 C 0.56759 0.22817 0.74672 0.0
N37 N 0.62309 0.29551 0.88676 0.0
N38 N 0.61444 0.29226 0.73361 0.0
H39 H 0.68729 0.38786 0.83202 0.0
H40 H 0.54076 0.1873 0.87349 0.0
C41 C 0.621 0.18741 0.07872 0.0
O42 O 0.66167 0.22347 0.15645 0.0
N43 N 0.67185 0.35559 0.15785 0.0
C44 C 0.73046 0.41129 0.20399 0.0
C45 C 0.72928 0.41546 0.29864 0.0
C46 C 0.63486 0.32814 0.22602 0.0
N47 N 0.66957 0.36306 0.31214 0.0
C48 C 0.7787 0.42047 0.98154 0.0
C49 C 0.83899 0.35324 0.02417 0.0
C50 C 0.87828 0.42085 1.00463 0.0
C51 C 0.84691 0.45347 0.98132 0.0
C52 C 0.77003 0.32142 0.02323 0.0
N53 N 0.74045 0.35581 1.00428 0.0
H54 H 0.75766 0.44956 0.96692 0.0
H55 H 0.74164 0.27026 0.03988 0.0
H56 H 0.77179 0.44655 0.17154 0.0
H57 H 0.58472 0.2821 0.21267 0.0
O58 O 0.65687 0.41612 0.02413 0.0
O59 O 0.56402 0.31961 0.03804 0.0
O60 O 0.61536 0.22016 0.0207 0.0
C61 C 0.59491 0.38623 0.03358 0.0
H62 H 0.53195 0.18315 0.69215 0.0
H63 H 0.76963 0.45325 0.35334 0.0
H64 H 0.8614 0.3258 0.04186 0.0
H65 H 0.87521 0.50549 0.96539 0.0
C66 C 0.51768 0.51017 0.03612 0.0
C67 C 0.49508 0.54722 0.03624 0.0
C68 C 0.54139 0.46399 0.03653 0.0
C69 C 0.56283 0.42582 0.03566 0.0
C70 C 1.01023 0.49559 1.01342 0.0
C71 C 0.95031 0.45884 1.01065 0.0
C72 C 0.08054 0.54135 1.01697 0.0
C73 C 0.1404 0.57924 0.02029 0.0
C74 C 0.51342 0.96951 0.05636 0.0
C75 C 0.48241 0.90718 0.06295 0.0
C76 C 0.54974 0.04449 0.05563 0.0
C77 C 0.58054 0.10906 0.06158 0.0
C78 C 0.32452 0.67905 0.58116 0.0
C79 C 0.32125 0.66557 0.65775 0.0
C80 C 0.32763 0.69247 0.48973 0.0
C81 C 0.32984 0.70432 0.41225 0.0
C82 C 0.64071 0.33519 0.47689 0.0
C83 C 0.65149 0.34575 0.39907 0.0
C84 C 0.63256 0.32364 0.56921 0.0
C85 C 0.62577 0.31124 0.64651 0.0
loop_
_geom_bond_atom_site_label_1
_geom_bond_atom_site_label_2
_geom_bond_distance
_geom_bond_site_symmetry_2
_ccdc_geom_bond_type
Co0 N4 2.148 . S
Co0 N10 2.128 1_554 S
Co0 N20 2.194 . S
Co0 O25 2.351 . S
Co0 O26 2.155 . S
Co0 O27 2.096 . S
C1 N4 1.301 . S
C1 N5 1.328 . S
C1 H6 0.930 . S
C2 C3 1.333 . S
C2 N4 1.317 . S
C2 H7 0.930 . S
C3 C2 1.333 . S
C3 N5 1.350 . S
C3 H29 0.931 . S
N4 Co0 2.148 . S
N4 C1 1.301 . S
N4 C2 1.317 . S
N5 C1 1.328 . S
N5 C3 1.350 . S
H6 C1 0.930 . S
H7 C2 0.930 . S
C8 O9 1.224 . S
C8 O27 1.247 . S
O9 C8 1.224 . S
N10 Co0 2.128 1_556 S
N10 C11 1.355 . S
N10 C13 1.311 . S
C11 N10 1.355 . S
C11 C12 1.363 . S
C11 H23 0.929 . S
C12 C11 1.363 . S
C12 N14 1.375 . S
C12 H30 0.931 . S
C13 N10 1.311 . S
C13 N14 1.347 . S
C13 H24 0.929 . S
N14 C12 1.375 . S
N14 C13 1.347 . S
C15 C18 1.365 . S
C15 N20 1.328 . S
C15 H21 0.929 . S
C16 C17 1.362 . S
C16 C19 1.378 . S
C16 H31 0.929 . S
C17 C16 1.362 . S
C17 C18 1.366 . S
C18 C15 1.365 . S
C18 C17 1.366 . S
C18 H32 0.930 . S
C19 C16 1.378 . S
C19 N20 1.315 . S
C19 H22 0.930 . S
N20 Co0 2.194 . S
N20 C15 1.328 . S
N20 C19 1.315 . S
H21 C15 0.929 . S
H22 C19 0.930 . S
H23 C11 0.929 . S
H24 C13 0.929 . S
O25 Co0 2.351 . S
O25 C28 1.244 . S
O26 Co0 2.155 . S
O26 C28 1.240 . S
O27 Co0 2.096 . S
O27 C8 1.247 . S
C28 O25 1.244 . S
C28 O26 1.240 . S
H29 C3 0.931 . S
H30 C12 0.931 . S
H31 C16 0.929 . S
H32 C18 0.930 . S
Co33 N37 2.148 1_554 S
Co33 N43 2.128 . S
Co33 N53 2.194 . S
Co33 O58 2.351 . S
Co33 O59 2.155 . S
Co33 O60 2.096 . S
C34 N37 1.301 . S
C34 N38 1.328 . S
C34 H39 0.930 . S
C35 C36 1.333 . S
C35 N37 1.317 . S
C35 H40 0.930 . S
C36 C35 1.333 . S
C36 N38 1.350 . S
C36 H62 0.931 . S
N37 Co33 2.148 1_556 S
N37 C34 1.301 . S
N37 C35 1.317 . S
N38 C34 1.328 . S
N38 C36 1.350 . S
H39 C34 0.930 . S
H40 C35 0.930 . S
C41 O42 1.224 . S
C41 O60 1.247 . S
O42 C41 1.224 . S
N43 Co33 2.128 . S
N43 C44 1.355 . S
N43 C46 1.311 . S
C44 N43 1.355 . S
C44 C45 1.363 . S
C44 H56 0.929 . S
C45 C44 1.363 . S
C45 N47 1.375 . S
C45 H63 0.931 . S
C46 N43 1.311 . S
C46 N47 1.347 . S
C46 H57 0.929 . S
N47 C45 1.375 . S
N47 C46 1.347 . S
C48 C51 1.365 1_556 S
C48 N53 1.329 1_556 S
C48 H54 0.929 . S
C49 C50 1.362 . S
C49 C52 1.378 . S
C49 H64 0.929 . S
C50 C49 1.362 . S
C50 C51 1.366 . S
C51 C48 1.365 1_554 S
C51 C50 1.366 . S
C51 H65 0.930 . S
C52 C49 1.378 . S
C52 N53 1.315 . S
C52 H55 0.930 . S
N53 Co33 2.194 . S
N53 C48 1.329 1_554 S
N53 C52 1.315 . S
H54 C48 0.929 . S
H55 C52 0.930 . S
H56 C44 0.929 . S
H57 C46 0.929 . S
O58 Co33 2.351 . S
O58 C61 1.244 . S
O59 Co33 2.155 . S
O59 C61 1.240 . S
O60 Co33 2.096 . S
O60 C41 1.247 . S
C61 O58 1.244 . S
C61 O59 1.240 . S
H62 C36 0.931 . S
H63 C45 0.931 . S
H64 C49 0.929 . S
H65 C51 0.930 . S
C66 C67 1.170 . S
C66 C68 1.380 . S
C67 C66 1.170 . S
C68 C66 1.380 . S
C68 C69 1.170 . S
C69 C68 1.170 . S
C70 C71 1.170 . S
C70 C72 1.380 1_655 S
C71 C70 1.170 . S
C72 C70 1.380 1_455 S
C72 C73 1.170 . S
C73 C72 1.170 . S
C74 C75 1.170 . S
C74 C76 1.380 1_565 S
C75 C74 1.170 . S
C76 C74 1.380 1_545 S
C76 C77 1.170 . S
C77 C76 1.170 . S
C78 C79 1.170 . S
C78 C80 1.380 . S
C79 C78 1.170 . S
C80 C78 1.380 . S
C80 C81 1.170 . S
C81 C80 1.170 . S
C82 C83 1.170 . S
C82 C84 1.380 . S
C83 C82 1.170 . S
C84 C82 1.380 . S
C84 C85 1.170 . S
C85 C84 1.170 . S
C67 C17 1.492 . S
C69 C61 1.500 . S
C71 C50 1.496 . S
C73 C28 1.494 . S
C75 C8 1.497 . S
C77 C41 1.498 . S
C79 N14 1.460 . S
C81 N5 1.492 . S
C83 N47 1.488 . S
C85 N38 1.469 . S
