# Generated by pormake.
# Topology pcu, (6)-cn, num edge types: 1
# Building blocks:
#     Node 0, Type 0, BuildingBlock: CIFDUS_clean_sbu_1, # of connection points: 6
#     Edge 1, Type (0, 0), BuildingBlock: EYOCIG_clean_linker_4, # of connection points: 2
#     Edge 2, Type (0, 0), BuildingBlock: EYOCIG_clean_linker_4, # of connection points: 2
#     Edge 3, Type (0, 0), BuildingBlock: EYOCIG_clean_linker_4, # of connection points: 2
# Relax obj value: 0.009
# Max RMSD: 0.057
# Mean RMSD: 0.057
data_MOF--net-pcu--node1-CIFDUS_clean_sbu_1--edge1-EYOCIG_clean_linker_4
_symmetry_space_group_name_H-M    P1
_symmetry_Int_Tables_number       1
_symmetry_cell_setting            triclinic
loop_
_symmetry_equiv_pos_as_xyz
'x, y, z'
_cell_length_a     12.718876
_cell_length_b     12.722102
_cell_length_c     12.228712
_cell_angle_alpha  74.392338
_cell_angle_beta   105.03749
_cell_angle_gamma 93.964981
loop_
_atom_site_label
_atom_site_type_symbol
_atom_site_fract_x
_atom_site_fract_y
_atom_site_fract_z
_atom_type_partial_charge
O0 O 1.00015 0.82748 1.01649 0.0
Mn1 Mn 1.01146 -0.01075 0.03361 0.0
O2 O 0.10082 0.7214 0.18448 0.0
Mn3 Mn 0.16338 0.83589 0.2421 0.0
O4 O 0.02298 0.15098 0.05093 0.0
O5 O 0.95976 0.04219 0.85307 0.0
Mn6 Mn 0.86057 0.14362 0.82506 0.0
O7 O 0.84955 0.97785 0.05074 0.0
O8 O 0.92463 0.25787 0.88214 0.0
O9 O 0.17333 0.00089 1.01622 0.0
O10 O 0.27827 0.89973 0.18455 0.0
O11 O 0.8647 0.13948 0.68 0.0
O12 O 0.74546 0.08126 0.88317 0.0
C13 C 0.08512 0.91295 0.32888 0.0
C14 C 0.03706 0.73389 0.08339 0.0
C15 C 0.9875 0.24491 0.98373 0.0
C16 C 0.93735 0.06498 0.73836 0.0
C17 C 0.75675 0.01604 0.98401 0.0
C18 C 0.26648 0.96411 0.08324 0.0
O19 O 0.06297 0.93611 0.21416 0.0
O20 O 0.15849 0.83915 0.38719 0.0
C21 C 0.01626 0.98169 0.47975 0.0
C22 C 0.03548 0.96254 0.39535 0.0
C23 C 1.00438 -0.0057 0.58759 0.0
C24 C 0.98584 0.01418 0.67197 0.0
C25 C 0.45629 -0.00768 0.03392 0.0
C26 C 0.36391 0.98809 0.04318 0.0
C27 C 0.56671 0.98834 0.03283 0.0
C28 C 0.65911 -0.00774 1.02369 0.0
C29 C 1.0103 0.54447 0.03432 0.0
C30 C 0.01391 0.63675 0.04348 0.0
C31 C 0.01466 0.43411 0.03325 0.0
C32 C 1.01077 0.34185 1.02399 0.0
loop_
_geom_bond_atom_site_label_1
_geom_bond_atom_site_label_2
_geom_bond_distance
_geom_bond_site_symmetry_2
_ccdc_geom_bond_type
O0 Mn1 2.163 1_666 S
O0 C14 1.244 1_656 S
Mn1 O0 2.163 1_444 S
Mn1 O4 2.160 . S
Mn1 O5 2.221 1_454 S
Mn1 O7 2.163 1_445 S
Mn1 O9 2.160 1_554 S
Mn1 O19 2.221 1_545 S
O2 Mn3 2.087 . S
O2 C14 1.256 . S
Mn3 O2 2.087 . S
Mn3 O10 2.089 . S
Mn3 O19 2.290 . S
Mn3 O20 2.251 . S
O4 Mn1 2.160 . S
O4 C15 1.239 1_454 S
O5 Mn1 2.221 1_656 S
O5 Mn6 2.290 . S
O5 C16 1.278 . S
Mn6 O5 2.290 . S
Mn6 O8 2.089 . S
Mn6 O11 2.251 . S
Mn6 O12 2.087 . S
O7 Mn1 2.163 1_665 S
O7 C17 1.244 1_564 S
O8 Mn6 2.089 . S
O8 C15 1.256 . S
O9 Mn1 2.160 1_556 S
O9 C18 1.239 1_546 S
O10 Mn3 2.089 . S
O10 C18 1.256 . S
O11 Mn6 2.251 . S
O11 C16 1.241 . S
O12 Mn6 2.087 . S
O12 C17 1.256 . S
C13 O19 1.278 . S
C13 O20 1.241 . S
C14 O0 1.244 1_454 S
C14 O2 1.256 . S
C15 O4 1.239 1_656 S
C15 O8 1.256 . S
C16 O5 1.278 . S
C16 O11 1.241 . S
C17 O7 1.244 1_546 S
C17 O12 1.256 . S
C18 O9 1.239 1_564 S
C18 O10 1.256 . S
O19 Mn1 2.221 1_565 S
O19 Mn3 2.290 . S
O19 C13 1.278 . S
O20 Mn3 2.251 . S
O20 C13 1.241 . S
C21 C22 1.170 . S
C21 C23 1.380 . S
C22 C21 1.170 . S
C23 C21 1.380 . S
C23 C24 1.170 . S
C24 C23 1.170 . S
C25 C26 1.170 . S
C25 C27 1.380 . S
C26 C25 1.170 . S
C27 C25 1.380 . S
C27 C28 1.170 . S
C28 C27 1.170 . S
C29 C30 1.170 . S
C29 C31 1.380 . S
C30 C29 1.170 . S
C31 C29 1.380 . S
C31 C32 1.170 . S
C32 C31 1.170 . S
C22 C13 1.339 1_655 S
C24 C16 1.280 1_565 S
C26 C18 1.433 1_545 S
C28 C17 1.468 1_554 S
C30 C14 1.439 . S
C32 C15 1.466 1_454 S
