# Generated by pormake.
# Topology qtz-x, (6)-cn, num edge types: 1
# Building blocks:
#     Node 0, Type 0, BuildingBlock: JUFBIX_clean_sbu_0, # of connection points: 6
#     Node 1, Type 0, BuildingBlock: JUFBIX_clean_sbu_0, # of connection points: 6
#     Node 2, Type 0, BuildingBlock: JUFBIX_clean_sbu_0, # of connection points: 6
#     Edge 3, Type (0, 0), BuildingBlock: AJUNOK_clean_linker_0, # of connection points: 2
#     Edge 4, Type (0, 0), BuildingBlock: AJUNOK_clean_linker_0, # of connection points: 2
#     Edge 5, Type (0, 0), BuildingBlock: AJUNOK_clean_linker_0, # of connection points: 2
#     Edge 6, Type (0, 0), BuildingBlock: AJUNOK_clean_linker_0, # of connection points: 2
#     Edge 7, Type (0, 0), BuildingBlock: AJUNOK_clean_linker_0, # of connection points: 2
#     Edge 8, Type (0, 0), BuildingBlock: AJUNOK_clean_linker_0, # of connection points: 2
#     Edge 9, Type (0, 0), BuildingBlock: AJUNOK_clean_linker_0, # of connection points: 2
#     Edge 10, Type (0, 0), BuildingBlock: AJUNOK_clean_linker_0, # of connection points: 2
#     Edge 11, Type (0, 0), BuildingBlock: AJUNOK_clean_linker_0, # of connection points: 2
# Relax obj value: 0.505
# Max RMSD: 0.298
# Mean RMSD: 0.298
data_MOF--net-qtz-x--node1-JUFBIX_clean_sbu_0--edge1-AJUNOK_clean_linker_0
_symmetry_space_group_name_H-M    P1
_symmetry_Int_Tables_number       1
_symmetry_cell_setting            triclinic
loop_
_symmetry_equiv_pos_as_xyz
'x, y, z'
_cell_length_a     10.946925
_cell_length_b     10.967654
_cell_length_c     33.206752
_cell_angle_alpha  89.796669
_cell_angle_beta   90.206581
_cell_angle_gamma 120.06309
loop_
_atom_site_label
_atom_site_type_symbol
_atom_site_fract_x
_atom_site_fract_y
_atom_site_fract_z
_atom_type_partial_charge
Co0 Co 0.17788 0.5355 0.15667 0.0
C1 C 0.06702 0.71243 0.16979 0.0
Co2 Co 0.96105 0.42586 0.18104 0.0
C3 C 0.36508 0.57654 0.09273 0.0
C4 C 0.45581 0.75745 0.13088 0.0
N5 N 0.34728 0.62389 0.1284 0.0
N6 N 0.47712 0.67532 0.07207 0.0
C7 C 0.53559 0.78959 0.09613 0.0
H8 H 0.28785 0.47594 0.08025 0.0
H9 H 0.46894 0.83049 0.15459 0.0
C10 C 0.06982 0.24772 0.16811 0.0
N11 N 0.79162 0.33804 0.20872 0.0
C12 C 0.77141 0.38054 0.24492 0.0
C13 C 0.68503 0.20475 0.20475 0.0
N14 N 0.66206 0.27636 0.26534 0.0
C15 C 0.60576 0.16648 0.23941 0.0
C16 C 0.94904 0.42077 0.10061 0.0
O17 O 0.17938 0.36063 0.1568 0.0
O18 O 0.96246 0.2541 0.17939 0.0
O19 O 0.86609 0.3828 0.13054 0.0
O20 O 0.08118 0.48664 0.10636 0.0
O21 O 0.96146 0.59927 0.18247 0.0
H22 H 0.67443 0.13531 0.18025 0.0
H23 H 0.84303 0.48378 0.25671 0.0
O24 O 0.17401 0.70815 0.15682 0.0
O25 O 0.27253 0.58299 0.20775 0.0
O26 O 0.0566 0.46661 0.23128 0.0
C27 C 0.1886 0.53326 0.23755 0.0
H28 H 0.62436 0.89136 0.08823 0.0
H29 H 0.52198 0.06082 0.24627 0.0
Co30 Co 0.45276 0.92715 0.49066 0.0
C31 C 0.74091 0.0369 0.50294 0.0
Co32 Co 0.56149 0.14358 0.51495 0.0
C33 C 0.32196 0.73966 0.42459 0.0
C34 C 0.38942 0.64476 0.46912 0.0
N35 N 0.37234 0.75695 0.4626 0.0
N36 N 0.313 0.62585 0.40651 0.0
C37 C 0.3529 0.56377 0.43457 0.0
H38 H 0.30222 0.81505 0.40913 0.0
H39 H 0.43836 0.63026 0.49568 0.0
C40 C 0.27214 0.03123 0.50231 0.0
N41 N 0.64439 0.3129 0.5423 0.0
C42 C 0.71162 0.33447 0.57793 0.0
C43 C 0.62108 0.42175 0.53815 0.0
N44 N 0.72595 0.4487 0.59729 0.0
C45 C 0.67059 0.50517 0.572 0.0
C46 C 0.56315 0.15557 0.43442 0.0
O47 O 0.27786 0.92319 0.49131 0.0
O48 O 0.38519 0.14062 0.51352 0.0
O49 O 0.61112 0.23806 0.46438 0.0
O50 O 0.49632 1.0237 0.44044 0.0
O51 O 0.73695 0.14378 0.51604 0.0
H52 H 0.55952 0.43184 0.51417 0.0
H53 H 0.73744 0.25982 0.59116 0.0
O54 O 0.62777 0.93233 0.49008 0.0
O55 O 0.41016 0.83353 0.54192 0.0
O56 O 0.50964 0.04901 0.56536 0.0
C57 C 0.44612 0.91738 0.57173 0.0
H58 H 0.36658 0.47392 0.4294 0.0
H59 H 0.65263 0.59112 0.57916 0.0
Co60 Co 0.5966 0.63902 0.82292 0.0
C61 C 0.41935 0.34804 0.83366 0.0
Co62 Co 0.70358 0.52748 0.84665 0.0
C63 C 0.53627 0.76947 0.75701 0.0
C64 C 0.37764 0.70533 0.80238 0.0
N65 N 0.50485 0.71829 0.79497 0.0
N66 N 0.43271 0.78414 0.73994 0.0
C67 C 0.333 0.74599 0.76852 0.0
H68 H 0.62954 0.78725 0.74096 0.0
H69 H 0.31598 0.65803 0.82925 0.0
C70 C 0.87942 0.81967 0.83544 0.0
N71 N 0.79369 0.44628 0.874 0.0
C72 C 0.75022 0.38075 0.90987 0.0
C73 C 0.92931 0.47796 0.87099 0.0
N74 N 0.85456 0.37808 0.93066 0.0
C75 C 0.96724 0.43689 0.906 0.0
C76 C 0.71841 0.53435 0.76643 0.0
O77 O 0.76602 0.81391 0.82367 0.0
O78 O 0.87522 0.70681 0.8471 0.0
O79 O 0.75445 0.48572 0.79603 0.0
O80 O 0.65 0.59746 0.7727 0.0
O81 O 0.5311 0.35066 0.84581 0.0
H82 H 1.00066 0.54236 0.84739 0.0
H83 H 0.64942 0.35242 0.92293 0.0
O84 O 0.42703 0.46235 0.82224 0.0
O85 O 0.54542 0.68031 0.87416 0.0
O86 O 0.65163 0.56966 0.89714 0.0
C87 C 0.58355 0.6331 0.90377 0.0
H88 H 0.23085 0.73732 0.76419 0.0
H89 H 0.0736 0.46492 0.91468 0.0
C90 C 0.18434 0.97325 0.15678 0.0
C91 C 0.06514 0.84742 0.16975 0.0
C92 C 0.18503 0.10175 0.15624 0.0
C93 C 0.06655 0.11012 0.16864 0.0
H94 H 0.27844 0.97296 0.14694 0.0
H95 H 0.2795 0.19521 0.14602 0.0
S96 S 0.727 0.81126 0.20546 0.0
N97 N 0.82498 0.73992 0.19535 0.0
N98 N 0.82611 0.97992 0.19443 0.0
C99 C 0.94648 0.98491 0.1817 0.0
C100 C 0.94584 0.85423 0.18225 0.0
C101 C 0.12983 0.14949 0.51483 0.0
C102 C 0.13552 1.02995 0.50211 0.0
C103 C 1.00229 0.15095 0.51507 0.0
C104 C 0.87496 0.03303 0.50253 0.0
H105 H 0.2247 0.24318 0.52476 0.0
H106 H 1.0039 0.2456 0.52512 0.0
S107 S 0.83204 0.69339 0.46599 0.0
N108 N 1.00175 0.79042 0.47637 0.0
N109 N 0.76311 0.7929 0.47683 0.0
C110 C 0.87917 0.91273 0.48964 0.0
C111 C 1.00895 0.91126 0.48943 0.0
C112 C 0.14156 0.96072 0.8468 0.0
C113 C 1.01545 0.95566 0.83482 0.0
C114 C 0.27141 0.0874 0.84616 0.0
C115 C 0.28086 0.21449 0.83345 0.0
H116 H 0.14044 0.866 0.85678 0.0
H117 H 0.36502 0.08537 0.8558 0.0
S118 S 0.98201 0.25869 0.79845 0.0
N119 N 0.90894 0.08971 0.80947 0.0
N120 N 0.15166 0.32665 0.80824 0.0
C121 C 0.15551 0.21084 0.8212 0.0
C122 C 1.02339 0.08195 0.82189 0.0
C123 C 0.56928 0.77066 0.9624 0.0
C124 C 0.54566 0.64271 0.94592 0.0
C125 C 0.55026 0.78228 0.0039 0.0
C126 C 0.50662 0.66616 0.03014 0.0
H127 H 0.60601 0.86288 0.94338 0.0
H128 H 0.56819 0.88218 0.0154 0.0
S129 S 0.42954 0.30793 0.00129 0.0
N130 N 0.47081 0.39694 0.95858 0.0
N131 N 0.44346 0.42062 0.03628 0.0
C132 C 0.48226 0.53801 0.0137 0.0
C133 C 0.49956 0.52588 0.97169 0.0
C134 C 0.47901 0.12737 0.3637 0.0
C135 C 0.58287 0.20728 0.39248 0.0
C136 C 0.50216 0.15814 0.32262 0.0
C137 C 0.63181 0.26811 0.30818 0.0
H138 H 0.37974 0.03748 0.3729 0.0
H139 H 0.41903 0.09106 0.30192 0.0
S140 S 0.92998 0.5234 0.37294 0.0
N141 N 0.81183 0.41216 0.40507 0.0
N142 N 0.86029 0.46886 0.32784 0.0
C143 C 0.73319 0.35588 0.33725 0.0
C144 C 0.70748 0.32548 0.37937 0.0
C145 C 0.45604 0.73775 0.66836 0.0
C146 C 0.42117 0.80785 0.69775 0.0
C147 C 0.45461 0.76618 0.6271 0.0
C148 C 0.42116 0.86788 0.61399 0.0
H149 H 0.48657 0.66179 0.67745 0.0
H150 H 0.48676 0.71363 0.60559 0.0
S151 S 0.31712 0.0761 0.67874 0.0
N152 N 0.34624 0.97775 0.71076 0.0
N153 N 0.34695 0.03462 0.63347 0.0
C154 C 0.3825 0.93574 0.64304 0.0
C155 C 0.38143 0.90475 0.68487 0.0
C156 C 0.88658 0.28113 0.99445 0.0
C157 C 0.86208 0.37878 0.97385 0.0
C158 C 0.90451 0.28881 0.0365 0.0
C159 C 0.89739 0.39374 0.05896 0.0
H160 H 0.89535 0.20112 0.97781 0.0
H161 H 0.92957 0.21591 0.05137 0.0
S162 S 0.84692 0.68016 0.01864 0.0
N163 N 0.83805 0.5868 0.97865 0.0
N164 N 0.87044 0.59993 0.05756 0.0
C165 C 0.87147 0.49063 0.03872 0.0
C166 C 0.854 0.48342 0.99612 0.0
C167 C 0.33804 0.6848 0.29431 0.0
C168 C 0.23837 0.55129 0.2797 0.0
C169 C 0.36456 0.7077 0.33584 0.0
C170 C 0.29477 0.59721 0.36394 0.0
H171 H 0.38978 0.77347 0.27385 0.0
H172 H 0.43816 0.81318 0.3462 0.0
S173 S 1.03285 0.22647 0.34055 0.0
N174 N 0.07453 0.30594 0.29624 0.0
N175 N 0.12916 0.3488 0.37398 0.0
C176 C 0.20152 0.46195 0.34943 0.0
C177 C 0.17179 0.43919 0.30737 0.0
C178 C 0.70817 0.38382 0.70908 0.0
C179 C 0.75086 0.51802 0.72455 0.0
C180 C 0.70758 0.36289 0.66741 0.0
C181 C 0.75069 0.47582 0.63991 0.0
H182 H 0.66577 0.2932 0.72896 0.0
H183 H 0.66455 0.25598 0.65675 0.0
S184 S 0.89636 0.85146 0.66663 0.0
N185 N 0.8537 0.76777 0.71028 0.0
N186 N 0.85553 0.72903 0.63203 0.0
C187 C 0.80412 0.61202 0.65554 0.0
C188 C 0.80352 0.63295 0.69785 0.0
loop_
_geom_bond_atom_site_label_1
_geom_bond_atom_site_label_2
_geom_bond_distance
_geom_bond_site_symmetry_2
_ccdc_geom_bond_type
Co0 N5 2.057 . S
Co0 O17 2.021 . S
Co0 O20 2.062 1_455 S
Co0 O24 2.117 . S
Co0 O25 2.020 . S
C1 O21 1.259 . S
C1 O24 1.258 1_655 S
Co2 N11 2.057 . S
Co2 O18 2.117 . S
Co2 O19 2.020 . S
Co2 O21 2.021 . S
Co2 O26 2.062 1_655 S
C3 N5 1.316 . S
C3 N6 1.347 . S
C3 H8 0.931 . S
C4 N5 1.375 . S
C4 C7 1.350 . S
C4 H9 0.930 . S
N5 Co0 2.057 . S
N5 C3 1.316 . S
N5 C4 1.375 . S
N6 C3 1.347 . S
N6 C7 1.373 . S
C7 C4 1.350 . S
C7 N6 1.373 . S
C7 H28 0.931 . S
H8 C3 0.931 . S
H9 C4 0.930 . S
C10 O17 1.259 . S
C10 O18 1.258 1_455 S
N11 Co2 2.057 . S
N11 C12 1.316 . S
N11 C13 1.375 . S
C12 N11 1.316 . S
C12 N14 1.347 . S
C12 H23 0.931 . S
C13 N11 1.375 . S
C13 C15 1.350 . S
C13 H22 0.930 . S
N14 C12 1.347 . S
N14 C15 1.373 . S
C15 C13 1.350 . S
C15 N14 1.373 . S
C15 H29 0.931 . S
C16 O19 1.256 . S
C16 O20 1.255 . S
O17 Co0 2.021 . S
O17 C10 1.259 . S
O18 Co2 2.117 . S
O18 C10 1.258 1_655 S
O19 Co2 2.020 . S
O19 C16 1.256 . S
O20 Co0 2.062 1_655 S
O20 C16 1.255 . S
O21 C1 1.259 . S
O21 Co2 2.021 . S
H22 C13 0.930 . S
H23 C12 0.931 . S
O24 Co0 2.117 . S
O24 C1 1.258 1_455 S
O25 Co0 2.020 . S
O25 C27 1.256 . S
O26 Co2 2.062 1_455 S
O26 C27 1.255 . S
C27 O25 1.256 . S
C27 O26 1.255 . S
H28 C7 0.931 . S
H29 C15 0.931 . S
Co30 N35 2.057 . S
Co30 O47 2.021 . S
Co30 O50 2.062 1_565 S
Co30 O54 2.117 . S
Co30 O55 2.020 . S
C31 O51 1.259 . S
C31 O54 1.258 1_545 S
Co32 N41 2.057 . S
Co32 O48 2.117 . S
Co32 O49 2.020 . S
Co32 O51 2.021 . S
Co32 O56 2.062 1_545 S
C33 N35 1.316 . S
C33 N36 1.347 . S
C33 H38 0.931 . S
C34 N35 1.375 . S
C34 C37 1.350 . S
C34 H39 0.930 . S
N35 Co30 2.057 . S
N35 C33 1.316 . S
N35 C34 1.375 . S
N36 C33 1.347 . S
N36 C37 1.373 . S
C37 C34 1.350 . S
C37 N36 1.373 . S
C37 H58 0.931 . S
H38 C33 0.931 . S
H39 C34 0.930 . S
C40 O47 1.259 1_545 S
C40 O48 1.258 . S
N41 Co32 2.057 . S
N41 C42 1.316 . S
N41 C43 1.375 . S
C42 N41 1.316 . S
C42 N44 1.347 . S
C42 H53 0.931 . S
C43 N41 1.375 . S
C43 C45 1.350 . S
C43 H52 0.930 . S
N44 C42 1.347 . S
N44 C45 1.373 . S
C45 C43 1.350 . S
C45 N44 1.373 . S
C45 H59 0.931 . S
C46 O49 1.256 . S
C46 O50 1.255 . S
O47 Co30 2.021 . S
O47 C40 1.259 1_565 S
O48 Co32 2.117 . S
O48 C40 1.258 . S
O49 Co32 2.020 . S
O49 C46 1.256 . S
O50 Co30 2.062 1_545 S
O50 C46 1.255 . S
O51 C31 1.259 . S
O51 Co32 2.021 . S
H52 C43 0.930 . S
H53 C42 0.931 . S
O54 Co30 2.117 . S
O54 C31 1.258 1_565 S
O55 Co30 2.020 . S
O55 C57 1.256 . S
O56 Co32 2.062 1_565 S
O56 C57 1.255 . S
C57 O55 1.256 . S
C57 O56 1.255 . S
H58 C37 0.931 . S
H59 C45 0.931 . S
Co60 N65 2.057 . S
Co60 O77 2.021 . S
Co60 O80 2.062 . S
Co60 O84 2.117 . S
Co60 O85 2.020 . S
C61 O81 1.259 . S
C61 O84 1.258 . S
Co62 N71 2.057 . S
Co62 O78 2.117 . S
Co62 O79 2.020 . S
Co62 O81 2.021 . S
Co62 O86 2.062 . S
C63 N65 1.316 . S
C63 N66 1.347 . S
C63 H68 0.931 . S
C64 N65 1.375 . S
C64 C67 1.350 . S
C64 H69 0.930 . S
N65 Co60 2.057 . S
N65 C63 1.316 . S
N65 C64 1.375 . S
N66 C63 1.347 . S
N66 C67 1.373 . S
C67 C64 1.350 . S
C67 N66 1.373 . S
C67 H88 0.931 . S
H68 C63 0.931 . S
H69 C64 0.930 . S
C70 O77 1.259 . S
C70 O78 1.258 . S
N71 Co62 2.057 . S
N71 C72 1.316 . S
N71 C73 1.375 . S
C72 N71 1.316 . S
C72 N74 1.347 . S
C72 H83 0.931 . S
C73 N71 1.375 . S
C73 C75 1.350 . S
C73 H82 0.930 . S
N74 C72 1.347 . S
N74 C75 1.373 . S
C75 C73 1.350 . S
C75 N74 1.373 . S
C75 H89 0.931 . S
C76 O79 1.256 . S
C76 O80 1.255 . S
O77 Co60 2.021 . S
O77 C70 1.259 . S
O78 Co62 2.117 . S
O78 C70 1.258 . S
O79 Co62 2.020 . S
O79 C76 1.256 . S
O80 Co60 2.062 . S
O80 C76 1.255 . S
O81 C61 1.259 . S
O81 Co62 2.021 . S
H82 C73 0.930 . S
H83 C72 0.931 . S
O84 Co60 2.117 . S
O84 C61 1.258 . S
O85 Co60 2.020 . S
O85 C87 1.256 . S
O86 Co62 2.062 . S
O86 C87 1.255 . S
C87 O85 1.256 . S
C87 O86 1.255 . S
H88 C67 0.931 . S
H89 C75 0.931 . S
C90 C91 1.369 . S
C90 C92 1.419 1_565 S
C90 H94 0.930 . S
C91 C90 1.369 . S
C91 C100 1.429 1_655 S
C92 C90 1.419 1_545 S
C92 C93 1.363 . S
C92 H95 0.929 . S
C93 C92 1.363 . S
C93 C99 1.428 1_655 S
H94 C90 0.930 . S
H95 C92 0.929 . S
S96 N97 1.613 1_545 S
S96 N98 1.610 . S
N97 S96 1.613 1_565 S
N97 C100 1.350 . S
N98 S96 1.610 . S
N98 C99 1.351 . S
C99 C93 1.428 1_455 S
C99 N98 1.351 . S
C99 C100 1.434 1_545 S
C100 C91 1.429 1_455 S
C100 N97 1.350 . S
C100 C99 1.434 1_565 S
C101 C102 1.369 . S
C101 C103 1.419 . S
C101 H105 0.930 . S
C102 C101 1.369 . S
C102 C111 1.429 1_545 S
C103 C101 1.419 . S
C103 C104 1.363 1_455 S
C103 H106 0.929 . S
C104 C103 1.363 1_655 S
C104 C110 1.428 1_545 S
H105 C101 0.930 . S
H106 C103 0.929 . S
S107 N108 1.613 1_655 S
S107 N109 1.610 . S
N108 S107 1.613 1_455 S
N108 C111 1.350 . S
N109 S107 1.610 . S
N109 C110 1.351 . S
C110 C104 1.428 1_565 S
C110 N109 1.351 . S
C110 C111 1.434 1_655 S
C111 C102 1.429 1_565 S
C111 N108 1.350 . S
C111 C110 1.434 1_455 S
C112 C113 1.369 1_455 S
C112 C114 1.419 1_565 S
C112 H116 0.930 . S
C113 C112 1.369 1_655 S
C113 C122 1.429 . S
C114 C112 1.419 1_545 S
C114 C115 1.363 . S
C114 H117 0.929 . S
C115 C114 1.363 . S
C115 C121 1.428 . S
H116 C112 0.930 . S
H117 C114 0.929 . S
S118 N119 1.613 1_545 S
S118 N120 1.610 1_655 S
N119 S118 1.613 1_565 S
N119 C122 1.350 . S
N120 S118 1.610 1_455 S
N120 C121 1.351 . S
C121 C115 1.428 . S
C121 N120 1.351 . S
C121 C122 1.434 1_445 S
C122 C113 1.429 . S
C122 N119 1.350 . S
C122 C121 1.434 1_665 S
C123 C124 1.369 . S
C123 C125 1.419 . S
C123 H127 0.930 . S
C124 C123 1.369 . S
C124 C133 1.429 . S
C125 C123 1.419 . S
C125 C126 1.363 1_556 S
C125 H128 0.929 . S
C126 C125 1.363 1_554 S
C126 C132 1.428 1_554 S
H127 C123 0.930 . S
H128 C125 0.929 . S
S129 N130 1.613 . S
S129 N131 1.610 1_556 S
N130 S129 1.613 . S
N130 C133 1.350 . S
N131 S129 1.610 1_554 S
N131 C132 1.351 1_554 S
C132 C126 1.428 1_556 S
C132 N131 1.351 1_556 S
C132 C133 1.434 . S
C133 C124 1.429 . S
C133 N130 1.350 . S
C133 C132 1.434 . S
C134 C135 1.369 . S
C134 C136 1.419 . S
C134 H138 0.930 . S
C135 C134 1.369 . S
C135 C144 1.429 . S
C136 C134 1.419 . S
C136 C137 1.363 . S
C136 H139 0.929 . S
C137 C136 1.363 . S
C137 C143 1.428 . S
H138 C134 0.930 . S
H139 C136 0.929 . S
S140 N141 1.613 . S
S140 N142 1.610 . S
N141 S140 1.613 . S
N141 C144 1.350 . S
N142 S140 1.610 . S
N142 C143 1.351 . S
C143 C137 1.428 . S
C143 N142 1.351 . S
C143 C144 1.434 . S
C144 C135 1.429 . S
C144 N141 1.350 . S
C144 C143 1.434 . S
C145 C146 1.369 . S
C145 C147 1.419 . S
C145 H149 0.930 . S
C146 C145 1.369 . S
C146 C155 1.429 . S
C147 C145 1.419 . S
C147 C148 1.363 . S
C147 H150 0.929 . S
C148 C147 1.363 . S
C148 C154 1.428 . S
H149 C145 0.930 . S
H150 C147 0.929 . S
S151 N152 1.613 . S
S151 N153 1.610 . S
N152 S151 1.613 . S
N152 C155 1.350 . S
N153 S151 1.610 . S
N153 C154 1.351 . S
C154 C148 1.428 . S
C154 N153 1.351 . S
C154 C155 1.434 . S
C155 C146 1.429 . S
C155 N152 1.350 . S
C155 C154 1.434 . S
C156 C157 1.369 1_554 S
C156 C158 1.419 . S
C156 H160 0.930 . S
C157 C156 1.369 1_556 S
C157 C166 1.429 1_556 S
C158 C156 1.419 . S
C158 C159 1.363 . S
C158 H161 0.929 . S
C159 C158 1.363 . S
C159 C165 1.428 . S
H160 C156 0.930 . S
H161 C158 0.929 . S
S162 N163 1.613 1_554 S
S162 N164 1.610 . S
N163 S162 1.613 1_556 S
N163 C166 1.350 1_556 S
N164 S162 1.610 . S
N164 C165 1.351 . S
C165 C159 1.428 . S
C165 N164 1.351 . S
C165 C166 1.434 . S
C166 C157 1.429 1_554 S
C166 N163 1.350 1_554 S
C166 C165 1.434 . S
C167 C168 1.369 . S
C167 C169 1.419 . S
C167 H171 0.930 . S
C168 C167 1.369 . S
C168 C177 1.429 . S
C169 C167 1.419 . S
C169 C170 1.363 . S
C169 H172 0.929 . S
C170 C169 1.363 . S
C170 C176 1.428 . S
H171 C167 0.930 . S
H172 C169 0.929 . S
S173 N174 1.613 1_655 S
S173 N175 1.610 1_655 S
N174 S173 1.613 1_455 S
N174 C177 1.350 . S
N175 S173 1.610 1_455 S
N175 C176 1.351 . S
C176 C170 1.428 . S
C176 N175 1.351 . S
C176 C177 1.434 . S
C177 C168 1.429 . S
C177 N174 1.350 . S
C177 C176 1.434 . S
C178 C179 1.369 . S
C178 C180 1.419 . S
C178 H182 0.930 . S
C179 C178 1.369 . S
C179 C188 1.429 . S
C180 C178 1.419 . S
C180 C181 1.363 . S
C180 H183 0.929 . S
C181 C180 1.363 . S
C181 C187 1.428 . S
H182 C178 0.930 . S
H183 C180 0.929 . S
S184 N185 1.613 . S
S184 N186 1.610 . S
N185 S184 1.613 . S
N185 C188 1.350 . S
N186 S184 1.610 . S
N186 C187 1.351 . S
C187 C181 1.428 . S
C187 N186 1.351 . S
C187 C188 1.434 . S
C188 C179 1.429 . S
C188 N185 1.350 . S
C188 C187 1.434 . S
C91 C1 1.756 . S
C93 C10 1.757 1_655 S
C102 C40 1.756 . S
C104 C31 1.757 . S
C113 C70 1.756 . S
C115 C61 1.757 . S
C124 C87 1.250 . S
C126 N6 1.254 . S
C135 C46 1.219 . S
C137 N14 1.157 . S
C146 N66 1.258 . S
C148 C57 1.251 . S
C157 N74 1.147 . S
C159 C16 1.213 . S
C168 C27 1.248 . S
C170 N36 1.258 . S
C179 C76 1.208 . S
C181 N44 1.157 . S
