# Generated by pormake.
# Topology pcu, (6)-cn, num edge types: 1
# Building blocks:
#     Node 0, Type 0, BuildingBlock: MIFKUJ_clean_sbu_0, # of connection points: 6
#     Edge 1, Type (0, 0), BuildingBlock: OJICUG_clean_linker_0, # of connection points: 2
#     Edge 2, Type (0, 0), BuildingBlock: OJICUG_clean_linker_0, # of connection points: 2
#     Edge 3, Type (0, 0), BuildingBlock: OJICUG_clean_linker_0, # of connection points: 2
# Relax obj value: 0.000
# Max RMSD: 0.000
# Mean RMSD: 0.000
data_MOF--net-pcu--node1-MIFKUJ_clean_sbu_0--edge1-OJICUG_clean_linker_0
_symmetry_space_group_name_H-M    P1
_symmetry_Int_Tables_number       1
_symmetry_cell_setting            triclinic
loop_
_symmetry_equiv_pos_as_xyz
'x, y, z'
_cell_length_a     11.683921
_cell_length_b     14.286812
_cell_length_c     10.555263
_cell_angle_alpha  100.2855
_cell_angle_beta   98.609122
_cell_angle_gamma 99.605722
loop_
_atom_site_label
_atom_site_type_symbol
_atom_site_fract_x
_atom_site_fract_y
_atom_site_fract_z
_atom_type_partial_charge
Zn0 Zn 0.07216 0.85619 0.94789 0.0
Zn1 Zn 1.05798 0.07032 -0.00597 0.0
C2 C 0.3139 0.8835 0.91294 0.0
O3 O 0.26698 0.81795 0.80551 0.0
C4 C 0.81623 0.043 0.02898 0.0
O5 O 0.86316 0.10855 0.13641 0.0
O6 O 1.05309 0.71083 0.91581 0.0
O7 O 1.00398 0.89435 0.10919 0.0
O8 O 0.12423 0.03651 0.16388 0.0
C9 C 0.09274 0.67204 0.0082 0.0
O10 O 0.14569 0.72815 0.12154 0.0
O11 O 0.2473 0.91173 -0.0095 0.0
C12 C 1.0374 0.25447 0.93372 0.0
O13 O 0.98445 0.19836 0.82038 0.0
O14 O 0.07704 0.21568 0.02611 0.0
O15 O 0.12616 0.03216 0.83273 0.0
O16 O 1.00591 0.88999 0.77804 0.0
O17 O 0.88283 0.01477 0.95142 0.0
C18 C 1.06432 -0.03482 0.19719 0.0
C19 C 0.06582 0.96133 0.74473 0.0
C20 C 0.12807 0.04358 0.43536 0.0
C21 C 1.06459 -0.03565 0.33727 0.0
H22 H 0.1782 0.10487 0.64064 0.0
C23 C 1.0016 0.88399 0.37436 0.0
H24 H 0.17746 0.10665 0.41019 0.0
C25 C 1.00207 0.88292 0.50656 0.0
C26 C 0.06555 0.96216 0.60465 0.0
H27 H 0.95194 0.82163 0.30128 0.0
H28 H 0.95268 0.81986 0.53173 0.0
C29 C 0.12854 0.04251 0.56756 0.0
C30 C 0.51591 0.8935 0.85651 0.0
C31 C 0.4424 0.92431 0.94271 0.0
H32 H 0.69132 0.90663 0.81594 0.0
C33 C 0.49292 -0.00548 0.05748 0.0
H34 H 0.47987 0.83956 0.76721 0.0
C35 C 0.61423 0.033 0.08541 0.0
C36 C 0.68774 0.0022 -0.00079 0.0
H37 H 0.43881 0.01987 0.12599 0.0
H38 H 0.65026 0.08694 0.17471 0.0
C39 C 0.63722 0.93199 0.88444 0.0
C40 C 0.12105 0.52246 0.09194 0.0
C41 C 0.07874 0.56522 -0.01104 0.0
H42 H 0.14115 0.39104 0.15554 0.0
C43 C 1.02261 0.50489 0.86777 0.0
H44 H 0.16465 0.5668 0.1866 0.0
C45 C 1.00908 0.40405 0.84998 0.0
C46 C 1.05139 0.36128 0.95296 0.0
H47 H 0.98899 0.53547 0.78639 0.0
H48 H 0.96548 0.3597 0.75532 0.0
C49 C 0.10753 0.42161 0.07416 0.0
loop_
_geom_bond_atom_site_label_1
_geom_bond_atom_site_label_2
_geom_bond_distance
_geom_bond_site_symmetry_2
_ccdc_geom_bond_type
Zn0 O6 1.969 . S
Zn0 O7 1.965 1_456 S
Zn0 O11 2.024 1_556 S
Zn0 O16 1.969 . S
Zn1 O8 1.969 . S
Zn1 O14 1.969 . S
Zn1 O15 1.965 1_654 S
Zn1 O17 2.024 1_554 S
C2 O3 1.229 . S
C2 O11 1.058 1_556 S
O3 C2 1.229 . S
C4 O5 1.229 . S
C4 O17 1.058 1_554 S
O5 C4 1.229 . S
O6 Zn0 1.969 . S
O6 C9 1.267 1_556 S
O7 Zn0 1.965 1_654 S
O7 C18 1.267 . S
O8 Zn1 1.969 . S
O8 C18 1.248 1_545 S
C9 O6 1.267 1_554 S
C9 O10 1.228 . S
O10 C9 1.228 . S
O11 Zn0 2.024 1_554 S
O11 C2 1.058 1_554 S
C12 O13 1.228 . S
C12 O14 1.267 1_556 S
O13 C12 1.228 . S
O14 Zn1 1.969 . S
O14 C12 1.267 1_554 S
O15 Zn1 1.965 1_456 S
O15 C19 1.260 . S
O16 Zn0 1.969 . S
O16 C19 1.258 1_565 S
O17 Zn1 2.024 1_556 S
O17 C4 1.058 1_556 S
C18 O7 1.267 . S
C18 O8 1.248 1_565 S
C19 O15 1.260 . S
C19 O16 1.258 1_545 S
C20 C21 1.386 1_655 S
C20 H24 0.947 . S
C20 C29 1.389 1_545 S
C21 C20 1.386 1_455 S
C21 C23 1.391 . S
H22 C29 0.948 . S
C23 C21 1.391 . S
C23 C25 1.389 1_545 S
C23 H27 0.947 . S
H24 C20 0.947 . S
C25 C23 1.389 1_565 S
C25 C26 1.389 1_455 S
C25 H28 0.947 . S
C26 C25 1.389 1_655 S
C26 C29 1.389 . S
H27 C23 0.947 . S
H28 C25 0.947 . S
C29 C20 1.389 1_565 S
C29 H22 0.948 . S
C29 C26 1.389 . S
C30 C31 1.389 1_556 S
C30 H34 0.950 . S
C30 C39 1.390 . S
C31 C30 1.389 1_554 S
C31 C33 1.388 1_565 S
H32 C39 0.950 . S
C33 C31 1.388 1_545 S
C33 C35 1.390 . S
C33 H37 0.950 . S
H34 C30 0.950 . S
C35 C33 1.390 . S
C35 C36 1.389 . S
C35 H38 0.950 . S
C36 C35 1.389 . S
C36 C39 1.389 1_544 S
H37 C33 0.950 . S
H38 C35 0.950 . S
C39 C30 1.390 . S
C39 H32 0.950 . S
C39 C36 1.389 1_566 S
C40 C41 1.389 . S
C40 H44 0.950 . S
C40 C49 1.390 . S
C41 C40 1.389 . S
C41 C43 1.389 1_454 S
H42 C49 0.950 . S
C43 C41 1.389 1_656 S
C43 C45 1.390 . S
C43 H47 0.950 . S
H44 C40 0.950 . S
C45 C43 1.390 . S
C45 C46 1.388 1_556 S
C45 H48 0.950 . S
C46 C45 1.388 1_554 S
C46 C49 1.388 1_655 S
H47 C43 0.950 . S
H48 C45 0.950 . S
C49 C40 1.390 . S
C49 H42 0.950 . S
C49 C46 1.388 1_455 S
C21 C18 1.483 1_445 S
C26 C19 1.480 1_665 S
C31 C2 1.412 1_554 S
C36 C4 1.412 . S
C41 C9 1.455 . S
C46 C12 1.456 1_554 S
