# Generated by pormake.
# Topology irl, (4)-cn, num edge types: 1
# Building blocks:
#     Node 0, Type 0, BuildingBlock: QUQFOY_clean_sbu_3, # of connection points: 4
#     Node 1, Type 0, BuildingBlock: QUQFOY_clean_sbu_3, # of connection points: 4
#     Node 2, Type 0, BuildingBlock: QUQFOY_clean_sbu_3, # of connection points: 4
#     Node 3, Type 0, BuildingBlock: QUQFOY_clean_sbu_3, # of connection points: 4
#     Node 4, Type 0, BuildingBlock: QUQFOY_clean_sbu_3, # of connection points: 4
#     Node 5, Type 0, BuildingBlock: QUQFOY_clean_sbu_3, # of connection points: 4
#     Node 6, Type 0, BuildingBlock: QUQFOY_clean_sbu_3, # of connection points: 4
#     Node 7, Type 0, BuildingBlock: QUQFOY_clean_sbu_3, # of connection points: 4
#     Edge 8, Type (0, 0), None
#     Edge 9, Type (0, 0), None
#     Edge 10, Type (0, 0), None
#     Edge 11, Type (0, 0), None
#     Edge 12, Type (0, 0), None
#     Edge 13, Type (0, 0), None
#     Edge 14, Type (0, 0), None
#     Edge 15, Type (0, 0), None
#     Edge 16, Type (0, 0), None
#     Edge 17, Type (0, 0), None
#     Edge 18, Type (0, 0), None
#     Edge 19, Type (0, 0), None
#     Edge 20, Type (0, 0), None
#     Edge 21, Type (0, 0), None
#     Edge 22, Type (0, 0), None
#     Edge 23, Type (0, 0), None
# Relax obj value: 0.058
# Max RMSD: 0.122
# Mean RMSD: 0.122
data_MOF--net-irl--node1-QUQFOY_clean_sbu_3--edge1-none
_symmetry_space_group_name_H-M    P1
_symmetry_Int_Tables_number       1
_symmetry_cell_setting            triclinic
loop_
_symmetry_equiv_pos_as_xyz
'x, y, z'
_cell_length_a     20.682238
_cell_length_b     19.91234
_cell_length_c     13.184268
_cell_angle_alpha  89.988865
_cell_angle_beta   89.999985
_cell_angle_gamma 90.00114
loop_
_atom_site_label
_atom_site_type_symbol
_atom_site_fract_x
_atom_site_fract_y
_atom_site_fract_z
_atom_type_partial_charge
C0 C 0.8894 0.23585 0.78013 0.0
O1 O 0.8344 0.23307 0.82324 0.0
Cd2 Cd 0.81299 0.21225 0.00164 0.0
O3 O -0.05854 0.22994 0.83085 0.0
Cd4 Cd -0.02186 0.21292 0.00704 0.0
C5 C -0.10721 0.06106 0.01247 0.0
O6 O -0.10618 0.27151 0.09313 0.0
O7 O -0.03524 0.22532 0.19057 0.0
O8 O 0.05916 0.3009 -0.00999 0.0
C9 C -0.08784 0.25749 0.18251 0.0
O10 O 0.83958 0.09327 0.01519 0.0
C11 C 0.10727 0.26191 0.00027 0.0
O12 O -0.05267 0.09145 0.00682 0.0
O13 O 0.09568 0.19957 0.01182 0.0
C14 C -0.1058 0.81233 0.78024 0.0
O15 O -0.0508 0.81511 0.82335 0.0
Cd16 Cd -0.02941 0.83593 0.00175 0.0
O17 O 0.84213 0.81824 0.83095 0.0
Cd18 Cd 0.80543 0.83525 0.00712 0.0
C19 C 0.89077 0.98711 0.01249 0.0
O20 O 0.88974 0.77667 0.09325 0.0
O21 O 0.81878 0.82283 0.19066 0.0
O22 O 0.72442 0.74726 -0.00993 0.0
C23 C 0.8714 0.79068 0.18261 0.0
O24 O -0.05601 0.95491 0.01523 0.0
C25 C 0.67631 0.78625 0.00029 0.0
O26 O 0.83623 0.95672 0.00684 0.0
O27 O 0.68788 0.84858 0.01183 0.0
C28 C 0.89073 0.81233 0.66895 0.0
O29 O 0.83576 0.814 0.62559 0.0
Cd30 Cd 0.81529 0.83469 0.44675 0.0
O31 O -0.05724 0.81931 0.61847 0.0
Cd32 Cd -0.01902 0.83662 0.44338 0.0
C33 C -0.10663 0.98713 0.43684 0.0
O34 O -0.10211 0.77702 0.35688 0.0
O35 O -0.03087 0.82276 0.2595 0.0
O36 O 0.06192 0.74918 0.46486 0.0
C37 C -0.08353 0.79066 0.2675 0.0
O38 O 0.84064 0.95406 0.43385 0.0
C39 C 0.11012 0.78816 0.45565 0.0
O40 O -0.05164 0.95764 0.44283 0.0
O41 O 0.09863 0.85035 0.44209 0.0
C42 C -0.10713 0.23585 0.66884 0.0
O43 O -0.05216 0.23418 0.62548 0.0
Cd44 Cd -0.0317 0.2135 0.44664 0.0
O45 O 0.84084 0.22887 0.61837 0.0
Cd46 Cd 0.80259 0.21156 0.44331 0.0
C47 C 0.89022 0.06106 0.43682 0.0
O48 O 0.88568 0.27115 0.35676 0.0
O49 O 0.81442 0.22545 0.25941 0.0
O50 O 0.72165 0.29899 0.4648 0.0
C51 C 0.86709 0.25753 0.2674 0.0
O52 O -0.05706 0.09412 0.43381 0.0
C53 C 0.67346 0.26 0.45563 0.0
O54 O 0.83522 0.09054 0.44281 0.0
O55 O 0.68494 0.19781 0.44208 0.0
C56 C 0.3907 0.73582 0.7887 0.0
O57 O 0.33574 0.73415 0.83206 0.0
Cd58 Cd 0.31528 0.71346 0.01091 0.0
O59 O 0.44273 0.72885 0.83917 0.0
Cd60 Cd 0.48098 0.71154 0.01424 0.0
C61 C 0.39337 0.56103 0.02081 0.0
O62 O 0.39789 0.77112 0.10077 0.0
O63 O 0.46915 0.72543 0.19811 0.0
O64 O 0.56192 0.79898 -0.00727 0.0
C65 C 0.41648 0.75754 0.19015 0.0
O66 O 0.34064 0.59409 0.02381 0.0
C67 C 0.61012 0.75999 0.00194 0.0
O68 O 0.44836 0.59052 0.01481 0.0
O69 O 0.59863 0.6978 0.01551 0.0
C70 C 0.3929 0.31231 0.7888 0.0
O71 O 0.44786 0.31398 0.83217 0.0
Cd72 Cd 0.4683 0.33466 0.01102 0.0
O73 O 0.34087 0.31929 0.83927 0.0
Cd74 Cd 0.3026 0.33659 0.01431 0.0
C75 C 0.39022 0.4871 0.02083 0.0
O76 O 0.38567 0.27701 0.10088 0.0
O77 O 0.3144 0.32267 0.1982 0.0
O78 O 0.22165 0.24916 -0.00721 0.0
C79 C 0.36708 0.29059 0.19026 0.0
O80 O 0.44294 0.45404 0.02385 0.0
C81 C 0.17346 0.28815 0.00196 0.0
O82 O 0.33522 0.45761 0.01483 0.0
O83 O 0.18495 0.35034 0.01552 0.0
C84 C 0.38942 0.3123 0.6775 0.0
O85 O 0.33442 0.31508 0.63441 0.0
Cd86 Cd 0.313 0.3359 0.45602 0.0
O87 O 0.44149 0.31821 0.62678 0.0
Cd88 Cd 0.47814 0.33524 0.45058 0.0
C89 C 0.39279 0.48709 0.44518 0.0
O90 O 0.39382 0.27664 0.36451 0.0
O91 O 0.46475 0.32287 0.26704 0.0
O92 O 0.55916 0.24725 0.46758 0.0
C93 C 0.41214 0.29071 0.27515 0.0
O94 O 0.33958 0.45488 0.44247 0.0
C95 C 0.60727 0.28625 0.45731 0.0
O96 O 0.44733 0.45671 0.45082 0.0
O97 O 0.59568 0.34859 0.44578 0.0
C98 C 0.39418 0.73583 0.6774 0.0
O99 O 0.44918 0.73305 0.6343 0.0
Cd100 Cd 0.47058 0.71223 0.45592 0.0
O101 O 0.34211 0.72992 0.62669 0.0
Cd102 Cd 0.30542 0.7129 0.4505 0.0
C103 C 0.39077 0.56105 0.44516 0.0
O104 O 0.38975 0.77149 0.3644 0.0
O105 O 0.3188 0.72529 0.26696 0.0
O106 O 0.22442 0.8009 0.46752 0.0
C107 C 0.37142 0.75744 0.27504 0.0
O108 O 0.44398 0.59325 0.44243 0.0
C109 C 0.17631 0.76191 0.45729 0.0
O110 O 0.33623 0.59143 0.4508 0.0
O111 O 0.18788 0.69957 0.44577 0.0
loop_
_geom_bond_atom_site_label_1
_geom_bond_atom_site_label_2
_geom_bond_distance
_geom_bond_site_symmetry_2
_ccdc_geom_bond_type
C0 O1 1.306 . S
C0 O3 1.160 1_655 S
O1 C0 1.306 . S
O1 Cd2 2.228 1_556 S
Cd2 O1 2.228 1_554 S
Cd2 O6 2.273 . S
Cd2 O10 2.277 . S
O3 C0 1.160 1_455 S
O3 Cd4 2.203 1_556 S
Cd4 O3 2.203 1_554 S
Cd4 O6 2.411 1_455 S
Cd4 O7 2.333 . S
Cd4 O8 2.352 . S
Cd4 O12 2.277 . S
Cd4 O13 2.356 . S
C5 O10 1.209 1_455 S
C5 O12 1.226 . S
O6 Cd2 2.273 . S
O6 Cd4 2.411 1_655 S
O6 C9 1.320 . S
O7 Cd4 2.333 . S
O7 C9 1.214 1_455 S
O8 Cd4 2.352 . S
O8 C11 1.258 . S
C9 O6 1.320 . S
C9 O7 1.214 1_655 S
O10 Cd2 2.277 . S
O10 C5 1.209 1_655 S
C11 O8 1.258 . S
C11 O13 1.282 . S
O12 Cd4 2.277 . S
O12 C5 1.226 . S
O13 Cd4 2.356 . S
O13 C11 1.282 . S
C14 O15 1.306 . S
C14 O17 1.160 1_455 S
O15 C14 1.306 . S
O15 Cd16 2.228 1_556 S
Cd16 O15 2.228 1_554 S
Cd16 O20 2.273 . S
Cd16 O24 2.277 . S
O17 C14 1.160 1_655 S
O17 Cd18 2.203 1_556 S
Cd18 O17 2.203 1_554 S
Cd18 O20 2.411 1_655 S
Cd18 O21 2.333 . S
Cd18 O22 2.352 . S
Cd18 O26 2.277 . S
Cd18 O27 2.356 . S
C19 O24 1.209 1_655 S
C19 O26 1.226 . S
O20 Cd16 2.273 . S
O20 Cd18 2.411 1_455 S
O20 C23 1.320 . S
O21 Cd18 2.333 . S
O21 C23 1.214 1_655 S
O22 Cd18 2.352 . S
O22 C25 1.258 . S
C23 O20 1.320 . S
C23 O21 1.214 1_455 S
O24 Cd16 2.277 . S
O24 C19 1.209 1_455 S
C25 O22 1.258 . S
C25 O27 1.282 . S
O26 Cd18 2.277 . S
O26 C19 1.226 . S
O27 Cd18 2.356 . S
O27 C25 1.282 . S
C28 O29 1.306 . S
C28 O31 1.160 1_655 S
O29 C28 1.306 . S
O29 Cd30 2.228 . S
Cd30 O29 2.228 . S
Cd30 O34 2.273 . S
Cd30 O38 2.277 . S
O31 C28 1.160 1_455 S
O31 Cd32 2.203 . S
Cd32 O31 2.203 . S
Cd32 O34 2.411 1_455 S
Cd32 O35 2.333 . S
Cd32 O36 2.352 . S
Cd32 O40 2.277 . S
Cd32 O41 2.356 . S
C33 O38 1.209 1_455 S
C33 O40 1.226 . S
O34 Cd30 2.273 . S
O34 Cd32 2.411 1_655 S
O34 C37 1.320 . S
O35 Cd32 2.333 . S
O35 C37 1.214 1_455 S
O36 Cd32 2.352 . S
O36 C39 1.258 . S
C37 O34 1.320 . S
C37 O35 1.214 1_655 S
O38 Cd30 2.277 . S
O38 C33 1.209 1_655 S
C39 O36 1.258 . S
C39 O41 1.282 . S
O40 Cd32 2.277 . S
O40 C33 1.226 . S
O41 Cd32 2.356 . S
O41 C39 1.282 . S
C42 O43 1.306 . S
C42 O45 1.160 1_455 S
O43 C42 1.306 . S
O43 Cd44 2.228 . S
Cd44 O43 2.228 . S
Cd44 O48 2.273 . S
Cd44 O52 2.277 . S
O45 C42 1.160 1_655 S
O45 Cd46 2.203 . S
Cd46 O45 2.203 . S
Cd46 O48 2.411 1_655 S
Cd46 O49 2.333 . S
Cd46 O50 2.352 . S
Cd46 O54 2.277 . S
Cd46 O55 2.356 . S
C47 O52 1.209 1_655 S
C47 O54 1.226 . S
O48 Cd44 2.273 . S
O48 Cd46 2.411 1_455 S
O48 C51 1.320 . S
O49 Cd46 2.333 . S
O49 C51 1.214 1_655 S
O50 Cd46 2.352 . S
O50 C53 1.258 . S
C51 O48 1.320 . S
C51 O49 1.214 1_455 S
O52 Cd44 2.277 . S
O52 C47 1.209 1_455 S
C53 O50 1.258 . S
C53 O55 1.282 . S
O54 Cd46 2.277 . S
O54 C47 1.226 . S
O55 Cd46 2.356 . S
O55 C53 1.282 . S
C56 O57 1.306 . S
C56 O59 1.160 . S
O57 C56 1.306 . S
O57 Cd58 2.228 1_556 S
Cd58 O57 2.228 1_554 S
Cd58 O62 2.273 . S
Cd58 O66 2.277 . S
O59 C56 1.160 . S
O59 Cd60 2.203 1_556 S
Cd60 O59 2.203 1_554 S
Cd60 O62 2.411 . S
Cd60 O63 2.333 . S
Cd60 O64 2.352 . S
Cd60 O68 2.277 . S
Cd60 O69 2.356 . S
C61 O66 1.209 . S
C61 O68 1.226 . S
O62 Cd58 2.273 . S
O62 Cd60 2.411 . S
O62 C65 1.320 . S
O63 Cd60 2.333 . S
O63 C65 1.214 . S
O64 Cd60 2.352 . S
O64 C67 1.258 . S
C65 O62 1.320 . S
C65 O63 1.214 . S
O66 Cd58 2.277 . S
O66 C61 1.209 . S
C67 O64 1.258 . S
C67 O69 1.282 . S
O68 Cd60 2.277 . S
O68 C61 1.226 . S
O69 Cd60 2.356 . S
O69 C67 1.282 . S
C70 O71 1.306 . S
C70 O73 1.160 . S
O71 C70 1.306 . S
O71 Cd72 2.228 1_556 S
Cd72 O71 2.228 1_554 S
Cd72 O76 2.273 . S
Cd72 O80 2.277 . S
O73 C70 1.160 . S
O73 Cd74 2.203 1_556 S
Cd74 O73 2.203 1_554 S
Cd74 O76 2.411 . S
Cd74 O77 2.333 . S
Cd74 O78 2.352 . S
Cd74 O82 2.277 . S
Cd74 O83 2.356 . S
C75 O80 1.209 . S
C75 O82 1.226 . S
O76 Cd72 2.273 . S
O76 Cd74 2.411 . S
O76 C79 1.320 . S
O77 Cd74 2.333 . S
O77 C79 1.214 . S
O78 Cd74 2.352 . S
O78 C81 1.258 . S
C79 O76 1.320 . S
C79 O77 1.214 . S
O80 Cd72 2.277 . S
O80 C75 1.209 . S
C81 O78 1.258 . S
C81 O83 1.282 . S
O82 Cd74 2.277 . S
O82 C75 1.226 . S
O83 Cd74 2.356 . S
O83 C81 1.282 . S
C84 O85 1.306 . S
C84 O87 1.160 . S
O85 C84 1.306 . S
O85 Cd86 2.228 . S
Cd86 O85 2.228 . S
Cd86 O90 2.273 . S
Cd86 O94 2.277 . S
O87 C84 1.160 . S
O87 Cd88 2.203 . S
Cd88 O87 2.203 . S
Cd88 O90 2.411 . S
Cd88 O91 2.333 . S
Cd88 O92 2.352 . S
Cd88 O96 2.277 . S
Cd88 O97 2.356 . S
C89 O94 1.209 . S
C89 O96 1.226 . S
O90 Cd86 2.273 . S
O90 Cd88 2.411 . S
O90 C93 1.320 . S
O91 Cd88 2.333 . S
O91 C93 1.214 . S
O92 Cd88 2.352 . S
O92 C95 1.258 . S
C93 O90 1.320 . S
C93 O91 1.214 . S
O94 Cd86 2.277 . S
O94 C89 1.209 . S
C95 O92 1.258 . S
C95 O97 1.282 . S
O96 Cd88 2.277 . S
O96 C89 1.226 . S
O97 Cd88 2.356 . S
O97 C95 1.282 . S
C98 O99 1.306 . S
C98 O101 1.160 . S
O99 C98 1.306 . S
O99 Cd100 2.228 . S
Cd100 O99 2.228 . S
Cd100 O104 2.273 . S
Cd100 O108 2.277 . S
O101 C98 1.160 . S
O101 Cd102 2.203 . S
Cd102 O101 2.203 . S
Cd102 O104 2.411 . S
Cd102 O105 2.333 . S
Cd102 O106 2.352 . S
Cd102 O110 2.277 . S
Cd102 O111 2.356 . S
C103 O108 1.209 . S
C103 O110 1.226 . S
O104 Cd100 2.273 . S
O104 Cd102 2.411 . S
O104 C107 1.320 . S
O105 Cd102 2.333 . S
O105 C107 1.214 . S
O106 Cd102 2.352 . S
O106 C109 1.258 . S
C107 O104 1.320 . S
C107 O105 1.214 . S
O108 Cd100 2.277 . S
O108 C103 1.209 . S
C109 O106 1.258 . S
C109 O111 1.282 . S
O110 Cd102 2.277 . S
O110 C103 1.226 . S
O111 Cd102 2.356 . S
O111 C109 1.282 . S
C19 C5 1.505 1_665 S
C33 C47 1.505 1_465 S
C61 C75 1.505 . S
C89 C103 1.505 . S
C9 C51 1.407 1_655 S
C37 C23 1.407 1_655 S
C28 C14 1.743 1_655 S
C0 C42 1.743 1_655 S
C65 C107 1.407 . S
C93 C79 1.407 . S
C70 C84 1.743 . S
C56 C98 1.743 . S
C81 C11 1.502 . S
C67 C25 1.502 . S
C39 C109 1.502 . S
C95 C53 1.502 . S
