# Generated by pormake.
# Topology atn, (4)-cn, num edge types: 1
# Building blocks:
#     Node 0, Type 0, BuildingBlock: TATPOV_clean_sbu_0, # of connection points: 4
#     Node 1, Type 0, BuildingBlock: TATPOV_clean_sbu_0, # of connection points: 4
#     Node 2, Type 0, BuildingBlock: TATPOV_clean_sbu_0, # of connection points: 4
#     Node 3, Type 0, BuildingBlock: TATPOV_clean_sbu_0, # of connection points: 4
#     Node 4, Type 0, BuildingBlock: TATPOV_clean_sbu_0, # of connection points: 4
#     Node 5, Type 0, BuildingBlock: TATPOV_clean_sbu_0, # of connection points: 4
#     Node 6, Type 0, BuildingBlock: TATPOV_clean_sbu_0, # of connection points: 4
#     Node 7, Type 0, BuildingBlock: TATPOV_clean_sbu_0, # of connection points: 4
#     Node 8, Type 0, BuildingBlock: TATPOV_clean_sbu_0, # of connection points: 4
#     Node 9, Type 0, BuildingBlock: TATPOV_clean_sbu_0, # of connection points: 4
#     Node 10, Type 0, BuildingBlock: TATPOV_clean_sbu_0, # of connection points: 4
#     Node 11, Type 0, BuildingBlock: TATPOV_clean_sbu_0, # of connection points: 4
#     Node 12, Type 0, BuildingBlock: TATPOV_clean_sbu_0, # of connection points: 4
#     Node 13, Type 0, BuildingBlock: TATPOV_clean_sbu_0, # of connection points: 4
#     Node 14, Type 0, BuildingBlock: TATPOV_clean_sbu_0, # of connection points: 4
#     Node 15, Type 0, BuildingBlock: TATPOV_clean_sbu_0, # of connection points: 4
#     Edge 16, Type (0, 0), None
#     Edge 17, Type (0, 0), None
#     Edge 18, Type (0, 0), None
#     Edge 19, Type (0, 0), None
#     Edge 20, Type (0, 0), None
#     Edge 21, Type (0, 0), None
#     Edge 22, Type (0, 0), None
#     Edge 23, Type (0, 0), None
#     Edge 24, Type (0, 0), None
#     Edge 25, Type (0, 0), None
#     Edge 26, Type (0, 0), None
#     Edge 27, Type (0, 0), None
#     Edge 28, Type (0, 0), None
#     Edge 29, Type (0, 0), None
#     Edge 30, Type (0, 0), None
#     Edge 31, Type (0, 0), None
#     Edge 32, Type (0, 0), None
#     Edge 33, Type (0, 0), None
#     Edge 34, Type (0, 0), None
#     Edge 35, Type (0, 0), None
#     Edge 36, Type (0, 0), None
#     Edge 37, Type (0, 0), None
#     Edge 38, Type (0, 0), None
#     Edge 39, Type (0, 0), None
#     Edge 40, Type (0, 0), None
#     Edge 41, Type (0, 0), None
#     Edge 42, Type (0, 0), None
#     Edge 43, Type (0, 0), None
#     Edge 44, Type (0, 0), None
#     Edge 45, Type (0, 0), None
#     Edge 46, Type (0, 0), None
#     Edge 47, Type (0, 0), None
# Relax obj value: 0.069
# Max RMSD: 0.108
# Mean RMSD: 0.108
data_MOF--net-atn--node1-TATPOV_clean_sbu_0--edge1-none
_symmetry_space_group_name_H-M    P1
_symmetry_Int_Tables_number       1
_symmetry_cell_setting            triclinic
loop_
_symmetry_equiv_pos_as_xyz
'x, y, z'
_cell_length_a     27.605532
_cell_length_b     27.605534
_cell_length_c     12.616095
_cell_angle_alpha  90.0
_cell_angle_beta   90.0
_cell_angle_gamma 90.000001
loop_
_atom_site_label
_atom_site_type_symbol
_atom_site_fract_x
_atom_site_fract_y
_atom_site_fract_z
_atom_type_partial_charge
Zn0 Zn 0.14727 0.31802 -0.0333 0.0
Zn1 Zn 0.21052 0.38653 -0.0333 0.0
O2 O 0.17673 0.38399 0.82058 0.0
O3 O 0.1163 0.33242 0.82583 0.0
O4 O 0.23721 0.45396 -0.03327 0.0
O5 O 0.1163 0.33241 0.10756 0.0
O6 O 0.17672 0.38398 0.11281 0.0
C7 C 0.14147 0.36276 0.77486 0.0
C8 C 0.25328 0.29082 -0.0333 0.0
O9 O 0.26383 0.33576 -0.0333 0.0
O10 O 0.20932 0.27707 -0.0333 0.0
C11 C 0.2781 0.47504 -0.03367 0.0
O12 O 0.31849 0.44994 -0.03427 0.0
C13 C 0.14147 0.36275 0.15853 0.0
Zn14 Zn 0.68518 0.14727 -0.0333 0.0
Zn15 Zn 0.61667 0.21052 -0.0333 0.0
O16 O 0.61922 0.17673 0.82058 0.0
O17 O 0.67079 0.1163 0.82583 0.0
O18 O 0.54925 0.23721 -0.03327 0.0
O19 O 0.6708 0.1163 0.10756 0.0
O20 O 0.61922 0.17672 0.11281 0.0
C21 C 0.64044 0.14147 0.77486 0.0
C22 C 0.71238 0.25327 -0.0333 0.0
O23 O 0.66745 0.26383 -0.0333 0.0
O24 O 0.72613 0.20932 -0.0333 0.0
C25 C 0.52816 0.2781 -0.03367 0.0
O26 O 0.55326 0.31849 -0.03427 0.0
C27 C 0.64045 0.14147 0.15853 0.0
Zn28 Zn 0.85593 0.68518 -0.0333 0.0
Zn29 Zn 0.79268 0.61667 -0.0333 0.0
O30 O 0.82648 0.61922 0.82058 0.0
O31 O 0.88691 0.67079 0.82583 0.0
O32 O 0.766 0.54925 -0.03327 0.0
O33 O 0.88691 0.6708 0.10756 0.0
O34 O 0.82648 0.61922 0.11281 0.0
C35 C 0.86173 0.64044 0.77486 0.0
C36 C 0.74993 0.71238 -0.0333 0.0
O37 O 0.73937 0.66745 -0.0333 0.0
O38 O 0.79389 0.72613 -0.0333 0.0
C39 C 0.72511 0.52816 -0.03367 0.0
O40 O 0.68472 0.55326 -0.03427 0.0
C41 C 0.86174 0.64045 0.15853 0.0
Zn42 Zn 0.31802 0.85593 -0.0333 0.0
Zn43 Zn 0.38653 0.79268 -0.0333 0.0
O44 O 0.38399 0.82648 0.82058 0.0
O45 O 0.33242 0.88691 0.82583 0.0
O46 O 0.45396 0.766 -0.03327 0.0
O47 O 0.33241 0.88691 0.10756 0.0
O48 O 0.38398 0.82648 0.11281 0.0
C49 C 0.36276 0.86173 0.77486 0.0
C50 C 0.29082 0.74993 -0.0333 0.0
O51 O 0.33576 0.73937 -0.0333 0.0
O52 O 0.27707 0.79389 -0.0333 0.0
C53 C 0.47504 0.72511 -0.03367 0.0
O54 O 0.44994 0.68472 -0.03427 0.0
C55 C 0.36275 0.86174 0.15853 0.0
Zn56 Zn 0.14727 0.68515 -0.0333 0.0
Zn57 Zn 0.21053 0.61666 -0.03329 0.0
O58 O 0.17672 0.61921 0.11282 0.0
O59 O 0.11628 0.67077 0.10756 0.0
O60 O 0.23721 0.54923 -0.03325 0.0
O61 O 0.1163 0.67076 0.82583 0.0
O62 O 0.17674 0.61919 0.82058 0.0
C63 C 0.14146 0.64043 0.15854 0.0
C64 C 0.25327 0.71237 -0.0333 0.0
O65 O 0.26383 0.66743 -0.03329 0.0
O66 O 0.20931 0.72611 -0.0333 0.0
C67 C 0.2781 0.52814 -0.03367 0.0
O68 O 0.31849 0.55324 -0.03428 0.0
C69 C 0.14148 0.64042 0.77486 0.0
Zn70 Zn 0.31805 0.14727 -0.0333 0.0
Zn71 Zn 0.38655 0.21053 -0.03329 0.0
O72 O 0.38399 0.17672 0.11282 0.0
O73 O 0.33244 0.11628 0.10756 0.0
O74 O 0.45397 0.23721 -0.03325 0.0
O75 O 0.33245 0.1163 0.82583 0.0
O76 O 0.38401 0.17674 0.82058 0.0
C77 C 0.36277 0.14146 0.15854 0.0
C78 C 0.29084 0.25327 -0.0333 0.0
O79 O 0.33577 0.26383 -0.03329 0.0
O80 O 0.2771 0.20931 -0.0333 0.0
C81 C 0.47506 0.2781 -0.03367 0.0
O82 O 0.44997 0.31849 -0.03428 0.0
C83 C 0.36279 0.14148 0.77486 0.0
Zn84 Zn 0.85594 0.31805 -0.0333 0.0
Zn85 Zn 0.79268 0.38655 -0.03329 0.0
O86 O 0.82648 0.38399 0.11282 0.0
O87 O 0.88692 0.33244 0.10756 0.0
O88 O 0.76599 0.45397 -0.03325 0.0
O89 O 0.88691 0.33245 0.82583 0.0
O90 O 0.82647 0.38401 0.82058 0.0
C91 C 0.86174 0.36277 0.15854 0.0
C92 C 0.74994 0.29084 -0.0333 0.0
O93 O 0.73937 0.33577 -0.03329 0.0
O94 O 0.7939 0.2771 -0.0333 0.0
C95 C 0.7251 0.47506 -0.03367 0.0
O96 O 0.68471 0.44997 -0.03428 0.0
C97 C 0.86172 0.36279 0.77486 0.0
Zn98 Zn 0.68515 0.85594 -0.0333 0.0
Zn99 Zn 0.61666 0.79268 -0.03329 0.0
O100 O 0.61921 0.82648 0.11282 0.0
O101 O 0.67077 0.88692 0.10756 0.0
O102 O 0.54923 0.76599 -0.03325 0.0
O103 O 0.67076 0.88691 0.82583 0.0
O104 O 0.61919 0.82647 0.82058 0.0
C105 C 0.64043 0.86174 0.15854 0.0
C106 C 0.71237 0.74994 -0.0333 0.0
O107 O 0.66743 0.73937 -0.03329 0.0
O108 O 0.72611 0.7939 -0.0333 0.0
C109 C 0.52814 0.7251 -0.03367 0.0
O110 O 0.55324 0.68471 -0.03428 0.0
C111 C 0.64042 0.86172 0.77486 0.0
Zn112 Zn 0.64726 0.81801 0.4667 0.0
Zn113 Zn 0.71052 0.88654 0.4667 0.0
O114 O 0.67672 0.88401 0.32058 0.0
O115 O 0.61629 0.83243 0.32583 0.0
O116 O 0.73722 0.95396 0.46672 0.0
O117 O 0.61629 0.83241 0.60757 0.0
O118 O 0.67672 0.884 0.61281 0.0
C119 C 0.64146 0.86278 0.27489 0.0
C120 C 0.75326 0.79083 0.4667 0.0
O121 O 0.76382 0.83576 0.4667 0.0
O122 O 0.70931 0.77708 0.4667 0.0
C123 C 0.77811 0.97504 0.46645 0.0
O124 O 0.8185 0.94994 0.46602 0.0
C125 C 0.64146 0.86277 0.65851 0.0
Zn126 Zn 0.18519 0.64726 0.4667 0.0
Zn127 Zn 0.11666 0.71052 0.4667 0.0
O128 O 0.1192 0.67672 0.32058 0.0
O129 O 0.17078 0.61629 0.32583 0.0
O130 O 0.04924 0.73722 0.46672 0.0
O131 O 0.17079 0.61629 0.60757 0.0
O132 O 0.1192 0.67672 0.61281 0.0
C133 C 0.14043 0.64146 0.27489 0.0
C134 C 0.21238 0.75326 0.4667 0.0
O135 O 0.16744 0.76382 0.4667 0.0
O136 O 0.22613 0.70931 0.4667 0.0
C137 C 0.02816 0.77811 0.46645 0.0
O138 O 0.05326 0.8185 0.46602 0.0
C139 C 0.14043 0.64146 0.65851 0.0
Zn140 Zn 0.35595 0.18519 0.4667 0.0
Zn141 Zn 0.29268 0.11666 0.4667 0.0
O142 O 0.32648 0.1192 0.32058 0.0
O143 O 0.38692 0.17078 0.32583 0.0
O144 O 0.26598 0.04924 0.46672 0.0
O145 O 0.38692 0.17079 0.60757 0.0
O146 O 0.32649 0.1192 0.61281 0.0
C147 C 0.36174 0.14043 0.27489 0.0
C148 C 0.24994 0.21238 0.4667 0.0
O149 O 0.23938 0.16744 0.4667 0.0
O150 O 0.2939 0.22613 0.4667 0.0
C151 C 0.22509 0.02816 0.46645 0.0
O152 O 0.18471 0.05326 0.46602 0.0
C153 C 0.36175 0.14043 0.65851 0.0
Zn154 Zn 0.81801 0.35595 0.4667 0.0
Zn155 Zn 0.88654 0.29268 0.4667 0.0
O156 O 0.88401 0.32648 0.32058 0.0
O157 O 0.83243 0.38692 0.32583 0.0
O158 O 0.95396 0.26598 0.46672 0.0
O159 O 0.83241 0.38692 0.60757 0.0
O160 O 0.884 0.32649 0.61281 0.0
C161 C 0.86278 0.36174 0.27489 0.0
C162 C 0.79083 0.24994 0.4667 0.0
O163 O 0.83576 0.23938 0.4667 0.0
O164 O 0.77708 0.2939 0.4667 0.0
C165 C 0.97504 0.22509 0.46645 0.0
O166 O 0.94994 0.18471 0.46602 0.0
C167 C 0.86277 0.36175 0.65851 0.0
Zn168 Zn 0.64726 0.18518 0.46669 0.0
Zn169 Zn 0.71054 0.11666 0.46671 0.0
O170 O 0.67673 0.11921 0.61282 0.0
O171 O 0.61629 0.17077 0.60756 0.0
O172 O 0.73723 0.04924 0.46674 0.0
O173 O 0.6163 0.17076 0.32582 0.0
O174 O 0.67675 0.11919 0.32059 0.0
C175 C 0.64147 0.14043 0.65851 0.0
C176 C 0.75327 0.21238 0.4667 0.0
O177 O 0.76383 0.16744 0.46671 0.0
O178 O 0.70931 0.22612 0.4667 0.0
C179 C 0.77812 0.02814 0.46645 0.0
O180 O 0.81851 0.05324 0.46601 0.0
C181 C 0.64149 0.14042 0.27488 0.0
Zn182 Zn 0.81803 0.64726 0.46669 0.0
Zn183 Zn 0.88655 0.71054 0.46671 0.0
O184 O 0.884 0.67673 0.61282 0.0
O185 O 0.83243 0.61629 0.60756 0.0
O186 O 0.95397 0.73723 0.46674 0.0
O187 O 0.83244 0.6163 0.32582 0.0
O188 O 0.88401 0.67675 0.32059 0.0
C189 C 0.86277 0.64147 0.65851 0.0
C190 C 0.79083 0.75327 0.4667 0.0
O191 O 0.83576 0.76383 0.46671 0.0
O192 O 0.77709 0.70931 0.4667 0.0
C193 C 0.97506 0.77812 0.46645 0.0
O194 O 0.94997 0.81851 0.46601 0.0
C195 C 0.86279 0.64149 0.27488 0.0
Zn196 Zn 0.35594 0.81803 0.46669 0.0
Zn197 Zn 0.29267 0.88655 0.46671 0.0
O198 O 0.32647 0.884 0.61282 0.0
O199 O 0.38692 0.83243 0.60756 0.0
O200 O 0.26597 0.95397 0.46674 0.0
O201 O 0.3869 0.83244 0.32582 0.0
O202 O 0.32646 0.88401 0.32059 0.0
C203 C 0.36174 0.86277 0.65851 0.0
C204 C 0.24993 0.79083 0.4667 0.0
O205 O 0.23937 0.83576 0.46671 0.0
O206 O 0.29389 0.77709 0.4667 0.0
C207 C 0.22509 0.97506 0.46645 0.0
O208 O 0.18469 0.94997 0.46601 0.0
C209 C 0.36172 0.86279 0.27488 0.0
Zn210 Zn 0.18518 0.35594 0.46669 0.0
Zn211 Zn 0.11666 0.29267 0.46671 0.0
O212 O 0.11921 0.32647 0.61282 0.0
O213 O 0.17077 0.38692 0.60756 0.0
O214 O 0.04924 0.26597 0.46674 0.0
O215 O 0.17076 0.3869 0.32582 0.0
O216 O 0.11919 0.32646 0.32059 0.0
C217 C 0.14043 0.36174 0.65851 0.0
C218 C 0.21238 0.24993 0.4667 0.0
O219 O 0.16744 0.23937 0.46671 0.0
O220 O 0.22612 0.29389 0.4667 0.0
C221 C 0.02814 0.22509 0.46645 0.0
O222 O 0.05324 0.18469 0.46601 0.0
C223 C 0.14042 0.36172 0.27488 0.0
loop_
_geom_bond_atom_site_label_1
_geom_bond_atom_site_label_2
_geom_bond_distance
_geom_bond_site_symmetry_2
_ccdc_geom_bond_type
Zn0 O3 2.031 1_554 S
Zn0 O5 2.049 . S
Zn0 O10 2.067 . S
Zn1 O2 1.962 . S
Zn1 O4 1.986 1_556 S
Zn1 O6 1.996 1_556 S
Zn1 O9 1.943 1_556 S
O2 Zn1 1.962 . S
O2 C7 1.254 . S
O3 Zn0 2.031 1_556 S
O3 C7 1.269 . S
O4 Zn1 1.986 1_554 S
O4 C11 1.262 1_554 S
O5 Zn0 2.049 . S
O5 C13 1.260 . S
O6 Zn1 1.996 1_554 S
O6 C13 1.257 . S
C7 O2 1.254 . S
C7 O3 1.269 . S
C8 O9 1.249 . S
C8 O10 1.270 . S
O9 Zn1 1.943 1_554 S
O9 C8 1.249 . S
O10 Zn0 2.067 . S
O10 C8 1.270 . S
C11 O4 1.262 1_556 S
C11 O12 1.232 . S
O12 C11 1.232 . S
C13 O5 1.260 . S
C13 O6 1.257 . S
Zn14 O17 2.031 1_554 S
Zn14 O19 2.049 . S
Zn14 O24 2.067 . S
Zn15 O16 1.962 . S
Zn15 O18 1.986 1_556 S
Zn15 O20 1.996 1_556 S
Zn15 O23 1.943 1_556 S
O16 Zn15 1.962 . S
O16 C21 1.254 . S
O17 Zn14 2.031 1_556 S
O17 C21 1.269 . S
O18 Zn15 1.986 1_554 S
O18 C25 1.262 1_554 S
O19 Zn14 2.049 . S
O19 C27 1.260 . S
O20 Zn15 1.996 1_554 S
O20 C27 1.257 . S
C21 O16 1.254 . S
C21 O17 1.269 . S
C22 O23 1.249 . S
C22 O24 1.270 . S
O23 Zn15 1.943 1_554 S
O23 C22 1.249 . S
O24 Zn14 2.067 . S
O24 C22 1.270 . S
C25 O18 1.262 1_556 S
C25 O26 1.232 . S
O26 C25 1.232 . S
C27 O19 1.260 . S
C27 O20 1.257 . S
Zn28 O31 2.031 1_554 S
Zn28 O33 2.049 . S
Zn28 O38 2.067 . S
Zn29 O30 1.962 . S
Zn29 O32 1.986 1_556 S
Zn29 O34 1.996 1_556 S
Zn29 O37 1.943 1_556 S
O30 Zn29 1.962 . S
O30 C35 1.254 . S
O31 Zn28 2.031 1_556 S
O31 C35 1.269 . S
O32 Zn29 1.986 1_554 S
O32 C39 1.262 1_554 S
O33 Zn28 2.049 . S
O33 C41 1.260 . S
O34 Zn29 1.996 1_554 S
O34 C41 1.257 . S
C35 O30 1.254 . S
C35 O31 1.269 . S
C36 O37 1.249 . S
C36 O38 1.270 . S
O37 Zn29 1.943 1_554 S
O37 C36 1.249 . S
O38 Zn28 2.067 . S
O38 C36 1.270 . S
C39 O32 1.262 1_556 S
C39 O40 1.232 . S
O40 C39 1.232 . S
C41 O33 1.260 . S
C41 O34 1.257 . S
Zn42 O45 2.031 1_554 S
Zn42 O47 2.049 . S
Zn42 O52 2.067 . S
Zn43 O44 1.962 . S
Zn43 O46 1.986 1_556 S
Zn43 O48 1.996 1_556 S
Zn43 O51 1.943 1_556 S
O44 Zn43 1.962 . S
O44 C49 1.254 . S
O45 Zn42 2.031 1_556 S
O45 C49 1.269 . S
O46 Zn43 1.986 1_554 S
O46 C53 1.262 1_554 S
O47 Zn42 2.049 . S
O47 C55 1.260 . S
O48 Zn43 1.996 1_554 S
O48 C55 1.257 . S
C49 O44 1.254 . S
C49 O45 1.269 . S
C50 O51 1.249 . S
C50 O52 1.270 . S
O51 Zn43 1.943 1_554 S
O51 C50 1.249 . S
O52 Zn42 2.067 . S
O52 C50 1.270 . S
C53 O46 1.262 1_556 S
C53 O54 1.232 . S
O54 C53 1.232 . S
C55 O47 1.260 . S
C55 O48 1.257 . S
Zn56 O59 2.031 1_556 S
Zn56 O61 2.049 . S
Zn56 O66 2.067 . S
Zn57 O58 1.962 . S
Zn57 O60 1.986 1_554 S
Zn57 O62 1.996 1_554 S
Zn57 O65 1.943 . S
O58 Zn57 1.962 . S
O58 C63 1.254 . S
O59 Zn56 2.031 1_554 S
O59 C63 1.269 . S
O60 Zn57 1.986 1_556 S
O60 C67 1.262 1_556 S
O61 Zn56 2.049 . S
O61 C69 1.260 . S
O62 Zn57 1.996 1_556 S
O62 C69 1.257 . S
C63 O58 1.254 . S
C63 O59 1.269 . S
C64 O65 1.249 1_556 S
C64 O66 1.270 . S
O65 Zn57 1.943 . S
O65 C64 1.249 1_554 S
O66 Zn56 2.067 . S
O66 C64 1.270 . S
C67 O60 1.262 1_554 S
C67 O68 1.232 . S
O68 C67 1.232 . S
C69 O61 1.260 . S
C69 O62 1.257 . S
Zn70 O73 2.031 1_556 S
Zn70 O75 2.049 . S
Zn70 O80 2.067 . S
Zn71 O72 1.962 . S
Zn71 O74 1.986 1_554 S
Zn71 O76 1.996 1_554 S
Zn71 O79 1.943 . S
O72 Zn71 1.962 . S
O72 C77 1.254 . S
O73 Zn70 2.031 1_554 S
O73 C77 1.269 . S
O74 Zn71 1.986 1_556 S
O74 C81 1.262 1_556 S
O75 Zn70 2.049 . S
O75 C83 1.260 . S
O76 Zn71 1.996 1_556 S
O76 C83 1.257 . S
C77 O72 1.254 . S
C77 O73 1.269 . S
C78 O79 1.249 1_556 S
C78 O80 1.270 . S
O79 Zn71 1.943 . S
O79 C78 1.249 1_554 S
O80 Zn70 2.067 . S
O80 C78 1.270 . S
C81 O74 1.262 1_554 S
C81 O82 1.232 . S
O82 C81 1.232 . S
C83 O75 1.260 . S
C83 O76 1.257 . S
Zn84 O87 2.031 1_556 S
Zn84 O89 2.049 . S
Zn84 O94 2.067 . S
Zn85 O86 1.962 . S
Zn85 O88 1.986 1_554 S
Zn85 O90 1.996 1_554 S
Zn85 O93 1.943 . S
O86 Zn85 1.962 . S
O86 C91 1.254 . S
O87 Zn84 2.031 1_554 S
O87 C91 1.269 . S
O88 Zn85 1.986 1_556 S
O88 C95 1.262 1_556 S
O89 Zn84 2.049 . S
O89 C97 1.260 . S
O90 Zn85 1.996 1_556 S
O90 C97 1.257 . S
C91 O86 1.254 . S
C91 O87 1.269 . S
C92 O93 1.249 1_556 S
C92 O94 1.270 . S
O93 Zn85 1.943 . S
O93 C92 1.249 1_554 S
O94 Zn84 2.067 . S
O94 C92 1.270 . S
C95 O88 1.262 1_554 S
C95 O96 1.232 . S
O96 C95 1.232 . S
C97 O89 1.260 . S
C97 O90 1.257 . S
Zn98 O101 2.031 1_556 S
Zn98 O103 2.049 . S
Zn98 O108 2.067 . S
Zn99 O100 1.962 . S
Zn99 O102 1.986 1_554 S
Zn99 O104 1.996 1_554 S
Zn99 O107 1.943 . S
O100 Zn99 1.962 . S
O100 C105 1.254 . S
O101 Zn98 2.031 1_554 S
O101 C105 1.269 . S
O102 Zn99 1.986 1_556 S
O102 C109 1.262 1_556 S
O103 Zn98 2.049 . S
O103 C111 1.260 . S
O104 Zn99 1.996 1_556 S
O104 C111 1.257 . S
C105 O100 1.254 . S
C105 O101 1.269 . S
C106 O107 1.249 1_556 S
C106 O108 1.270 . S
O107 Zn99 1.943 . S
O107 C106 1.249 1_554 S
O108 Zn98 2.067 . S
O108 C106 1.270 . S
C109 O102 1.262 1_554 S
C109 O110 1.232 . S
O110 C109 1.232 . S
C111 O103 1.260 . S
C111 O104 1.257 . S
Zn112 O115 2.031 . S
Zn112 O117 2.049 . S
Zn112 O122 2.067 . S
Zn113 O114 1.962 . S
Zn113 O116 1.986 . S
Zn113 O118 1.996 . S
Zn113 O121 1.943 . S
O114 Zn113 1.962 . S
O114 C119 1.254 . S
O115 Zn112 2.031 . S
O115 C119 1.269 . S
O116 Zn113 1.986 . S
O116 C123 1.262 . S
O117 Zn112 2.049 . S
O117 C125 1.260 . S
O118 Zn113 1.996 . S
O118 C125 1.257 . S
C119 O114 1.254 . S
C119 O115 1.269 . S
C120 O121 1.249 . S
C120 O122 1.270 . S
O121 Zn113 1.943 . S
O121 C120 1.249 . S
O122 Zn112 2.067 . S
O122 C120 1.270 . S
C123 O116 1.262 . S
C123 O124 1.232 . S
O124 C123 1.232 . S
C125 O117 1.260 . S
C125 O118 1.257 . S
Zn126 O129 2.031 . S
Zn126 O131 2.049 . S
Zn126 O136 2.067 . S
Zn127 O128 1.962 . S
Zn127 O130 1.986 . S
Zn127 O132 1.996 . S
Zn127 O135 1.943 . S
O128 Zn127 1.962 . S
O128 C133 1.254 . S
O129 Zn126 2.031 . S
O129 C133 1.269 . S
O130 Zn127 1.986 . S
O130 C137 1.262 . S
O131 Zn126 2.049 . S
O131 C139 1.260 . S
O132 Zn127 1.996 . S
O132 C139 1.257 . S
C133 O128 1.254 . S
C133 O129 1.269 . S
C134 O135 1.249 . S
C134 O136 1.270 . S
O135 Zn127 1.943 . S
O135 C134 1.249 . S
O136 Zn126 2.067 . S
O136 C134 1.270 . S
C137 O130 1.262 . S
C137 O138 1.232 . S
O138 C137 1.232 . S
C139 O131 1.260 . S
C139 O132 1.257 . S
Zn140 O143 2.031 . S
Zn140 O145 2.049 . S
Zn140 O150 2.067 . S
Zn141 O142 1.962 . S
Zn141 O144 1.986 . S
Zn141 O146 1.996 . S
Zn141 O149 1.943 . S
O142 Zn141 1.962 . S
O142 C147 1.254 . S
O143 Zn140 2.031 . S
O143 C147 1.269 . S
O144 Zn141 1.986 . S
O144 C151 1.262 . S
O145 Zn140 2.049 . S
O145 C153 1.260 . S
O146 Zn141 1.996 . S
O146 C153 1.257 . S
C147 O142 1.254 . S
C147 O143 1.269 . S
C148 O149 1.249 . S
C148 O150 1.270 . S
O149 Zn141 1.943 . S
O149 C148 1.249 . S
O150 Zn140 2.067 . S
O150 C148 1.270 . S
C151 O144 1.262 . S
C151 O152 1.232 . S
O152 C151 1.232 . S
C153 O145 1.260 . S
C153 O146 1.257 . S
Zn154 O157 2.031 . S
Zn154 O159 2.049 . S
Zn154 O164 2.067 . S
Zn155 O156 1.962 . S
Zn155 O158 1.986 . S
Zn155 O160 1.996 . S
Zn155 O163 1.943 . S
O156 Zn155 1.962 . S
O156 C161 1.254 . S
O157 Zn154 2.031 . S
O157 C161 1.269 . S
O158 Zn155 1.986 . S
O158 C165 1.262 . S
O159 Zn154 2.049 . S
O159 C167 1.260 . S
O160 Zn155 1.996 . S
O160 C167 1.257 . S
C161 O156 1.254 . S
C161 O157 1.269 . S
C162 O163 1.249 . S
C162 O164 1.270 . S
O163 Zn155 1.943 . S
O163 C162 1.249 . S
O164 Zn154 2.067 . S
O164 C162 1.270 . S
C165 O158 1.262 . S
C165 O166 1.232 . S
O166 C165 1.232 . S
C167 O159 1.260 . S
C167 O160 1.257 . S
Zn168 O171 2.031 . S
Zn168 O173 2.049 . S
Zn168 O178 2.067 . S
Zn169 O170 1.962 . S
Zn169 O172 1.986 . S
Zn169 O174 1.996 . S
Zn169 O177 1.943 . S
O170 Zn169 1.962 . S
O170 C175 1.254 . S
O171 Zn168 2.031 . S
O171 C175 1.269 . S
O172 Zn169 1.986 . S
O172 C179 1.262 . S
O173 Zn168 2.049 . S
O173 C181 1.260 . S
O174 Zn169 1.996 . S
O174 C181 1.257 . S
C175 O170 1.254 . S
C175 O171 1.269 . S
C176 O177 1.249 . S
C176 O178 1.270 . S
O177 Zn169 1.943 . S
O177 C176 1.249 . S
O178 Zn168 2.067 . S
O178 C176 1.270 . S
C179 O172 1.262 . S
C179 O180 1.232 . S
O180 C179 1.232 . S
C181 O173 1.260 . S
C181 O174 1.257 . S
Zn182 O185 2.031 . S
Zn182 O187 2.049 . S
Zn182 O192 2.067 . S
Zn183 O184 1.962 . S
Zn183 O186 1.986 . S
Zn183 O188 1.996 . S
Zn183 O191 1.943 . S
O184 Zn183 1.962 . S
O184 C189 1.254 . S
O185 Zn182 2.031 . S
O185 C189 1.269 . S
O186 Zn183 1.986 . S
O186 C193 1.262 . S
O187 Zn182 2.049 . S
O187 C195 1.260 . S
O188 Zn183 1.996 . S
O188 C195 1.257 . S
C189 O184 1.254 . S
C189 O185 1.269 . S
C190 O191 1.249 . S
C190 O192 1.270 . S
O191 Zn183 1.943 . S
O191 C190 1.249 . S
O192 Zn182 2.067 . S
O192 C190 1.270 . S
C193 O186 1.262 . S
C193 O194 1.232 . S
O194 C193 1.232 . S
C195 O187 1.260 . S
C195 O188 1.257 . S
Zn196 O199 2.031 . S
Zn196 O201 2.049 . S
Zn196 O206 2.067 . S
Zn197 O198 1.962 . S
Zn197 O200 1.986 . S
Zn197 O202 1.996 . S
Zn197 O205 1.943 . S
O198 Zn197 1.962 . S
O198 C203 1.254 . S
O199 Zn196 2.031 . S
O199 C203 1.269 . S
O200 Zn197 1.986 . S
O200 C207 1.262 . S
O201 Zn196 2.049 . S
O201 C209 1.260 . S
O202 Zn197 1.996 . S
O202 C209 1.257 . S
C203 O198 1.254 . S
C203 O199 1.269 . S
C204 O205 1.249 . S
C204 O206 1.270 . S
O205 Zn197 1.943 . S
O205 C204 1.249 . S
O206 Zn196 2.067 . S
O206 C204 1.270 . S
C207 O200 1.262 . S
C207 O208 1.232 . S
O208 C207 1.232 . S
C209 O201 1.260 . S
C209 O202 1.257 . S
Zn210 O213 2.031 . S
Zn210 O215 2.049 . S
Zn210 O220 2.067 . S
Zn211 O212 1.962 . S
Zn211 O214 1.986 . S
Zn211 O216 1.996 . S
Zn211 O219 1.943 . S
O212 Zn211 1.962 . S
O212 C217 1.254 . S
O213 Zn210 2.031 . S
O213 C217 1.269 . S
O214 Zn211 1.986 . S
O214 C221 1.262 . S
O215 Zn210 2.049 . S
O215 C223 1.260 . S
O216 Zn211 1.996 . S
O216 C223 1.257 . S
C217 O212 1.254 . S
C217 O213 1.269 . S
C218 O219 1.249 . S
C218 O220 1.270 . S
O219 Zn211 1.943 . S
O219 C218 1.249 . S
O220 Zn210 2.067 . S
O220 C218 1.270 . S
C221 O214 1.262 . S
C221 O222 1.232 . S
O222 C221 1.232 . S
C223 O215 1.260 . S
C223 O216 1.257 . S
C67 C11 1.312 1_554 S
C81 C25 1.312 1_554 S
C95 C39 1.312 1_554 S
C109 C53 1.312 1_554 S
C179 C123 1.312 1_545 S
C193 C137 1.312 1_655 S
C151 C207 1.312 1_545 S
C221 C165 1.312 1_455 S
C8 C78 1.006 1_554 S
C92 C22 1.006 1_556 S
C36 C106 1.006 1_554 S
C64 C50 1.006 1_556 S
C190 C120 1.007 . S
C204 C134 1.007 . S
C148 C218 1.007 . S
C162 C176 1.007 . S
C223 C13 1.310 . S
C181 C27 1.310 . S
C195 C41 1.310 . S
C209 C55 1.310 . S
C139 C69 1.310 . S
C153 C83 1.310 . S
C97 C167 1.310 . S
C111 C125 1.310 . S
C189 C35 1.551 . S
C203 C49 1.551 . S
C217 C7 1.551 . S
C21 C175 1.551 . S
C161 C91 1.551 . S
C105 C119 1.551 . S
C133 C63 1.551 . S
C147 C77 1.551 . S
