# Generated by pormake.
# Topology snp, (6)-cn, num edge types: 1
# Building blocks:
#     Node 0, Type 0, BuildingBlock: FUNLAD_clean_sbu_0, # of connection points: 6
#     Node 1, Type 0, BuildingBlock: FUNLAD_clean_sbu_0, # of connection points: 6
#     Node 2, Type 0, BuildingBlock: FUNLAD_clean_sbu_0, # of connection points: 6
#     Node 3, Type 0, BuildingBlock: FUNLAD_clean_sbu_0, # of connection points: 6
#     Edge 4, Type (0, 0), BuildingBlock: OJICUG_clean_linker_0, # of connection points: 2
#     Edge 5, Type (0, 0), BuildingBlock: OJICUG_clean_linker_0, # of connection points: 2
#     Edge 6, Type (0, 0), BuildingBlock: OJICUG_clean_linker_0, # of connection points: 2
#     Edge 7, Type (0, 0), BuildingBlock: OJICUG_clean_linker_0, # of connection points: 2
#     Edge 8, Type (0, 0), BuildingBlock: OJICUG_clean_linker_0, # of connection points: 2
#     Edge 9, Type (0, 0), BuildingBlock: OJICUG_clean_linker_0, # of connection points: 2
#     Edge 10, Type (0, 0), BuildingBlock: OJICUG_clean_linker_0, # of connection points: 2
#     Edge 11, Type (0, 0), BuildingBlock: OJICUG_clean_linker_0, # of connection points: 2
#     Edge 12, Type (0, 0), BuildingBlock: OJICUG_clean_linker_0, # of connection points: 2
#     Edge 13, Type (0, 0), BuildingBlock: OJICUG_clean_linker_0, # of connection points: 2
#     Edge 14, Type (0, 0), BuildingBlock: OJICUG_clean_linker_0, # of connection points: 2
#     Edge 15, Type (0, 0), BuildingBlock: OJICUG_clean_linker_0, # of connection points: 2
# Relax obj value: 1.478
# Max RMSD: 0.258
# Mean RMSD: 0.258
data_MOF--net-snp--node1-FUNLAD_clean_sbu_0--edge1-OJICUG_clean_linker_0
_symmetry_space_group_name_H-M    P1
_symmetry_Int_Tables_number       1
_symmetry_cell_setting            triclinic
loop_
_symmetry_equiv_pos_as_xyz
'x, y, z'
_cell_length_a     26.726344
_cell_length_b     27.979888
_cell_length_c     14.695179
_cell_angle_alpha  91.456907
_cell_angle_beta   89.616132
_cell_angle_gamma 89.954932
loop_
_atom_site_label
_atom_site_type_symbol
_atom_site_fract_x
_atom_site_fract_y
_atom_site_fract_z
_atom_type_partial_charge
C0 C 0.25725 0.99421 0.94174 0.0
N1 N 0.37076 0.0839 0.05566 0.0
C2 C 0.39735 0.06692 0.9824 0.0
C3 C 0.44961 0.06948 0.9807 0.0
C4 C 0.47569 0.09154 0.05351 0.0
C5 C 0.44691 0.1096 0.12762 0.0
C6 C 0.39469 0.10473 0.1279 0.0
Zn7 Zn 0.29296 0.07864 0.05404 0.0
C8 C 0.24627 0.13842 0.90443 0.0
N9 N 0.13187 0.07448 0.05006 0.0
C10 C 0.12099 0.04175 0.98421 0.0
C11 C 0.11262 0.0692 0.1351 0.0
C12 C 0.10184 0.02307 0.16501 0.0
C13 C 0.10785 0.98448 0.10283 0.0
C14 C 0.11413 0.99486 1.00991 0.0
Zn15 Zn 0.20903 0.07865 0.05028 0.0
O16 O 0.2982 1.01292 0.96794 0.0
C17 C 0.24833 0.02062 0.20717 0.0
O18 O 0.21663 1.01445 0.96556 0.0
H19 H 0.11343 0.09913 0.18257 0.0
H20 H 0.37818 0.05116 0.92456 0.0
H21 H 0.13153 0.04847 0.91446 0.0
O22 O 0.29167 0.03318 0.17855 0.0
O23 O 0.2102 0.0355 0.16607 0.0
H24 H 0.37333 0.1181 0.18587 0.0
O25 O 0.2043 0.14161 0.12869 0.0
O26 O 0.2863 0.14446 0.13591 0.0
O27 O 0.20684 0.12138 0.93889 0.0
O28 O 0.28904 0.12491 0.93323 0.0
C29 C 0.24382 0.16382 0.15163 0.0
H30 H 0.46897 0.05367 0.92255 0.0
H31 H 0.46407 0.12793 0.18502 0.0
H32 H 0.09295 1.0175 0.23589 0.0
H33 H 0.11727 0.96719 0.95767 0.0
C34 C 0.18039 0.29064 0.38331 0.0
N35 N 0.08255 0.37398 0.54247 0.0
C36 C 0.1254 0.39959 0.55397 0.0
C37 C 0.12432 0.44948 0.5566 0.0
C38 C 0.07874 0.47371 0.54653 0.0
C39 C 1.03465 0.4464 0.53888 0.0
C40 C 1.03744 0.3963 0.53668 0.0
Zn41 Zn 0.09162 0.3021 0.51356 0.0
C42 C 1.03792 0.27224 0.34417 0.0
N43 N 0.12076 0.16795 0.41905 0.0
C44 C 0.17255 0.14484 0.46159 0.0
C45 C 0.06342 0.14632 0.40711 0.0
C46 C 0.0459 0.08882 0.44827 0.0
C47 C 0.10438 0.04818 0.50644 0.0
C48 C 0.17324 0.08651 0.51172 0.0
Zn49 Zn 0.11022 0.23358 0.46857 0.0
O50 O 0.1466 0.32137 0.40392 0.0
C51 C 0.16559 0.25222 0.63306 0.0
O52 O 0.17624 0.24957 0.41442 0.0
H53 H 1.03403 0.16851 0.38104 0.0
H54 H 0.16099 0.38135 0.55686 0.0
H55 H 0.20577 0.16664 0.46754 0.0
O56 O 0.15264 0.29533 0.61719 0.0
O57 O 0.14715 0.21875 0.58537 0.0
H58 H 1.00387 0.37536 0.52624 0.0
O59 O 1.03978 0.21403 0.53585 0.0
O60 O 1.03837 0.27986 0.61876 0.0
O61 O 0.07595 0.24601 0.34749 0.0
O62 O 1.02936 0.30121 0.41111 0.0
C63 C 1.02161 0.2377 0.60333 0.0
H64 H 0.15915 0.46887 0.56435 0.0
H65 H 0.99867 0.46346 0.53039 0.0
H66 H 1.00843 0.07571 0.43683 0.0
H67 H 0.20792 0.07201 0.53706 0.0
C68 C 0.93306 0.10861 0.86096 0.0
N69 N 0.80022 0.08553 0.04035 0.0
C70 C 0.77558 0.10217 0.9668 0.0
C71 C 0.7236 0.10908 0.96958 0.0
C72 C 0.69573 0.09722 0.04778 0.0
C73 C 0.72276 0.08167 0.12355 0.0
C74 C 0.7748 0.07687 0.11886 0.0
Zn75 Zn 0.87488 0.06415 1.02821 0.0
C76 C 0.8817 0.98207 0.89762 0.0
N77 N 0.97477 0.9671 0.97363 0.0
C78 C 1.01605 0.95271 0.92466 0.0
C79 C 0.95137 0.93361 1.02777 0.0
C80 C 0.96957 0.8876 1.03647 0.0
C81 C 1.01806 0.87774 1.0068 0.0
C82 C 1.03723 0.90729 0.93777 0.0
Zn83 Zn 0.96044 0.04471 1.00739 0.0
O84 O 0.89173 0.1094 0.90697 0.0
C85 C 0.94226 0.13828 0.11507 0.0
O86 O 0.96785 0.07941 0.88174 0.0
H87 H 0.91633 0.94213 0.06075 0.0
H88 H 0.79586 0.1087 0.9045 0.0
H89 H 1.03504 0.97797 0.88198 0.0
O90 O 0.897 0.12438 0.11471 0.0
O91 O 0.97489 0.11288 0.07302 0.0
H92 H 0.79432 0.06431 0.17762 0.0
O93 O 0.95195 1.01545 0.13821 0.0
O94 O 0.87015 0.01928 0.15118 0.0
O95 O 0.92652 0.99298 0.91587 0.0
O96 O 0.84729 1.00465 0.93968 0.0
C97 C 0.91254 1.00708 0.18343 0.0
H98 H 0.70572 0.12274 0.90981 0.0
H99 H 0.70421 0.07122 0.18551 0.0
H100 H 0.95049 0.8639 0.08235 0.0
H101 H 0.07274 0.89927 0.90538 0.0
C102 C 0.15563 0.91194 0.49075 0.0
N103 N 0.07261 0.98787 0.69811 0.0
C104 C 0.13029 1.00885 0.70956 0.0
C105 C 0.14825 0.06665 0.66899 0.0
C106 C 0.08972 0.10768 0.61138 0.0
C107 C 1.02089 0.06984 0.60651 0.0
C108 C 1.02107 1.0118 0.6567 0.0
Zn109 Zn 0.07611 0.92115 0.64714 0.0
C110 C 1.00737 0.91139 0.47498 0.0
N111 N 0.07907 0.78112 0.53699 0.0
C112 C 0.12318 0.75682 0.53883 0.0
C113 C 1.035 0.75755 0.52465 0.0
C114 C 1.03386 0.70761 0.51832 0.0
C115 C 0.0785 0.68137 0.52494 0.0
C116 C 0.12375 0.70679 0.53288 0.0
Zn117 Zn 0.0765 0.85273 0.57352 0.0
O118 O 0.1412 0.93717 0.55964 0.0
C119 C 0.15005 0.87227 0.74051 0.0
O120 O 0.13443 0.87161 0.47615 0.0
H121 H 1.00027 0.77736 0.5237 0.0
H122 H 0.15922 0.98644 0.73546 0.0
H123 H 0.15782 0.77608 0.54914 0.0
O124 O 0.12088 0.90692 0.75301 0.0
O125 O 0.14046 0.84263 0.67504 0.0
H126 H 0.9871 0.99098 0.65332 0.0
O127 O 1.01095 0.83752 0.66679 0.0
O128 O 1.01621 0.90939 0.72551 0.0
O129 O 1.01995 0.86744 0.47143 0.0
O130 O 1.02722 0.93817 0.53565 0.0
C131 C 0.99229 0.87103 0.71708 0.0
H132 H 0.18571 0.08026 0.68086 0.0
H133 H 0.98651 0.08403 0.57982 0.0
H134 H 0.99818 0.68973 0.51035 0.0
H135 H 0.15911 0.68826 0.53886 0.0
C136 C 0.04387 0.87378 0.16449 0.0
C137 C 0.05276 0.8557 0.07496 0.0
H138 H 0.04802 0.94179 0.23642 0.0
C139 C 0.10355 0.85667 0.05124 0.0
H140 H 1.01031 0.86367 0.20037 0.0
C141 C 0.12936 0.89862 0.07548 0.0
C142 C 0.10481 0.9338 0.12997 0.0
H143 H 0.11707 0.83503 0.9942 0.0
H144 H 0.16239 0.90765 1.03829 0.0
C145 C 0.0658 0.91816 0.18647 0.0
C146 C 0.08235 0.12239 0.66497 0.0
C147 C 0.10078 0.12827 0.54447 0.0
H148 H 0.06008 0.06093 0.79711 0.0
C149 C 0.12342 0.08776 0.39091 0.0
H150 H 0.07657 0.15731 0.71734 0.0
C151 C 0.11204 0.03355 0.45292 0.0
C152 C 0.09299 0.0276 0.57306 0.0
H153 H 0.13629 0.09505 0.32261 0.0
H154 H 0.11761 0.99885 0.40003 0.0
C155 C 0.07104 0.06812 0.72717 0.0
C156 C 0.61156 0.0946 0.96796 0.0
C157 C 0.63924 0.09871 0.04913 0.0
H158 H 0.54026 0.09193 0.90453 0.0
C159 C 0.61206 0.10223 0.1317 0.0
H160 H 0.62999 0.09096 0.90245 0.0
C161 C 0.55968 0.09966 0.13324 0.0
C162 C 0.53205 0.09526 0.05206 0.0
H163 H 0.63089 0.10678 0.1962 0.0
H164 H 0.5413 0.10032 0.199 0.0
C165 C 0.55915 0.09381 0.96932 0.0
C166 C 0.11553 0.55061 0.49108 0.0
C167 C 0.07788 0.52687 0.53989 0.0
H168 H 0.14482 0.61735 0.44656 0.0
C169 C 1.03972 0.55435 0.58174 0.0
H170 H 0.14495 0.53061 0.45626 0.0
C171 C 1.03964 0.60427 0.57603 0.0
C172 C 0.07762 0.62804 0.52801 0.0
H173 H 1.01043 0.53738 0.62061 0.0
H174 H 1.01036 0.6243 0.61118 0.0
C175 C 0.11543 0.60046 0.48529 0.0
C176 C 0.18595 0.2822 0.22132 0.0
C177 C 0.21228 0.29215 0.30185 0.0
H178 H 0.17281 0.23 0.11509 0.0
C179 C 0.25977 0.27076 0.31128 0.0
H180 H 0.15014 0.29919 0.20997 0.0
C181 C 0.27262 0.23017 0.25795 0.0
C182 C 0.23919 0.21271 0.19191 0.0
H183 H 0.28184 0.27881 0.37132 0.0
H184 H 0.30567 0.20989 0.27484 0.0
C185 C 0.19801 0.2413 0.16894 0.0
C186 C 0.99491 0.21917 0.76421 0.0
C187 C 0.98852 0.21227 0.66977 0.0
H188 H 0.98286 0.19132 0.89785 0.0
C189 C 0.95719 0.17443 0.64011 0.0
H190 H 1.01923 0.2473 0.78988 0.0
C191 C 0.93566 0.14261 0.70246 0.0
C192 C 0.94554 0.14734 0.79596 0.0
H193 H 0.95152 0.16785 0.56795 0.0
H194 H 0.91387 0.11259 0.67692 0.0
C195 C 0.97426 0.18681 0.8262 0.0
C196 C 0.95075 0.90703 0.33587 0.0
C197 C 0.97204 0.93325 0.40869 0.0
H198 H 0.91184 0.90977 0.20854 0.0
C199 C 0.96146 0.98256 0.41567 0.0
H200 H 0.95636 0.86876 0.32988 0.0
C201 C 0.93613 1.00606 0.34642 0.0
C202 C 0.91906 0.9807 0.26925 0.0
H203 H 0.97507 1.00361 0.47285 0.0
H204 H 0.93303 0.04468 0.35019 0.0
C205 C 0.9247 0.93056 0.26674 0.0
C206 C 0.22891 0.91719 0.73611 0.0
C207 C 0.20103 0.88082 0.77801 0.0
H208 H 0.26693 0.98437 0.75641 0.0
C209 C 0.20946 0.87379 0.87099 0.0
H210 H 0.2237 0.92376 0.66447 0.0
C211 C 0.23744 0.90724 0.92293 0.0
C212 C 0.25464 0.9496 0.88413 0.0
H213 H 0.1898 0.84569 0.90549 0.0
H214 H 0.24078 0.90286 0.99558 0.0
C215 C 0.25375 0.95239 0.78899 0.0
C216 C 0.88311 0.94552 0.74381 0.0
C217 C 0.87422 0.93934 0.83688 0.0
H218 H 0.92533 0.92256 0.62681 0.0
C219 C 0.8862 0.89438 0.8723 0.0
H220 H 0.87394 0.9792 0.71311 0.0
C221 C 0.92054 0.86397 0.82603 0.0
C222 C 0.93821 0.87578 0.73942 0.0
H223 H 0.87668 0.88691 0.94217 0.0
H224 H 0.93793 0.83527 0.86249 0.0
C225 C 0.91332 0.91286 0.69448 0.0
C226 C 0.21412 0.94325 0.26197 0.0
C227 C 0.23934 0.98636 0.28239 0.0
H228 H 0.16881 0.88571 0.3104 0.0
C229 C 0.2432 1.00069 0.37453 0.0
H230 H 0.21002 0.93148 0.1917 0.0
C231 C 0.21976 0.97407 0.44344 0.0
C232 C 0.19104 0.93294 0.42198 0.0
H233 H 0.26119 0.03422 0.39276 0.0
H234 H 0.22139 0.98738 0.51316 0.0
C235 C 0.19052 0.91686 0.33041 0.0
C236 C 0.18723 0.24526 0.79699 0.0
C237 C 0.20036 0.23776 0.7054 0.0
H238 H 0.19252 0.21913 0.93249 0.0
C239 C 0.23716 0.20301 0.68305 0.0
H240 H 0.15814 0.27066 0.81599 0.0
C241 C 0.25686 0.17328 0.74955 0.0
C242 C 0.23973 0.17761 0.83954 0.0
H243 H 0.24725 0.19585 0.6125 0.0
H244 H 0.28161 0.14423 0.72903 0.0
C245 C 0.20657 0.21527 0.86333 0.0
C246 C 0.99947 0.20869 0.13335 0.0
C247 C 0.95784 0.18307 0.16451 0.0
H248 H 0.05533 0.26122 0.16431 0.0
C249 C 0.93467 0.19849 0.24656 0.0
H250 H 1.0178 0.19832 0.06988 0.0
C251 C 0.95635 0.23507 0.30115 0.0
C252 C 1.00113 0.25724 0.27391 0.0
H253 H 0.90241 0.17957 0.27231 0.0
H254 H 0.94143 0.24189 0.36898 0.0
C255 C 1.02035 0.24565 0.18667 0.0
loop_
_geom_bond_atom_site_label_1
_geom_bond_atom_site_label_2
_geom_bond_distance
_geom_bond_site_symmetry_2
_ccdc_geom_bond_type
C0 O16 1.251 1_565 S
C0 O18 1.254 1_565 S
N1 C2 1.333 1_554 S
N1 C6 1.307 . S
N1 Zn7 2.020 . S
C2 N1 1.333 1_556 S
C2 C3 1.379 . S
C2 H20 0.952 . S
C3 C2 1.379 . S
C3 C4 1.390 1_556 S
C3 H30 0.949 1_545 S
C4 C3 1.390 1_554 S
C4 C5 1.357 . S
C5 C4 1.357 . S
C5 C6 1.370 . S
C5 H31 0.950 . S
C6 N1 1.307 . S
C6 C5 1.370 . S
C6 H24 0.948 . S
Zn7 N1 2.020 . S
Zn7 O16 2.039 1_554 S
Zn7 O22 2.034 . S
Zn7 O26 2.025 . S
Zn7 O28 2.024 1_554 S
C8 O27 1.246 . S
C8 O28 1.249 . S
N9 C10 1.309 . S
N9 C11 1.329 1_556 S
N9 Zn15 2.019 1_556 S
C10 N9 1.309 . S
C10 C14 1.370 . S
C10 H21 0.948 1_545 S
C11 N9 1.329 1_554 S
C11 C12 1.379 . S
C11 H19 0.952 . S
C12 C11 1.379 . S
C12 C13 1.390 . S
C12 H32 0.949 . S
C13 C12 1.390 . S
C13 C14 1.357 1_554 S
C14 C10 1.370 . S
C14 C13 1.357 1_556 S
C14 H33 0.950 1_545 S
Zn15 N9 2.019 1_554 S
Zn15 O18 2.025 1_554 S
Zn15 O23 2.024 . S
Zn15 O25 2.039 . S
Zn15 O27 2.034 1_554 S
O16 C0 1.251 1_545 S
O16 Zn7 2.039 1_556 S
C17 O22 1.246 1_565 S
C17 O23 1.249 1_565 S
O18 C0 1.254 1_545 S
O18 Zn15 2.025 1_556 S
H19 C11 0.952 . S
H20 C2 0.952 . S
H21 C10 0.948 1_565 S
O22 Zn7 2.034 . S
O22 C17 1.246 1_545 S
O23 Zn15 2.024 . S
O23 C17 1.249 1_545 S
H24 C6 0.948 . S
O25 Zn15 2.039 . S
O25 C29 1.251 . S
O26 Zn7 2.025 . S
O26 C29 1.254 . S
O27 C8 1.246 . S
O27 Zn15 2.034 1_556 S
O28 Zn7 2.024 1_556 S
O28 C8 1.249 . S
C29 O25 1.251 . S
C29 O26 1.254 . S
H30 C3 0.949 1_565 S
H31 C5 0.950 . S
H32 C12 0.949 . S
H33 C14 0.950 1_565 S
C34 O50 1.251 . S
C34 O52 1.254 . S
N35 C36 1.333 . S
N35 C40 1.307 1_455 S
N35 Zn41 2.020 . S
C36 N35 1.333 . S
C36 C37 1.379 . S
C36 H54 0.952 . S
C37 C36 1.379 . S
C37 C38 1.390 . S
C37 H64 0.949 . S
C38 C37 1.390 . S
C38 C39 1.357 1_455 S
C39 C38 1.357 1_655 S
C39 C40 1.370 . S
C39 H65 0.950 . S
C40 N35 1.307 1_655 S
C40 C39 1.370 . S
C40 H58 0.948 . S
Zn41 N35 2.020 . S
Zn41 O50 2.039 . S
Zn41 O56 2.034 . S
Zn41 O60 2.025 1_455 S
Zn41 O62 2.024 1_455 S
C42 O61 1.246 . S
C42 O62 1.249 . S
N43 C44 1.307 . S
N43 C45 1.333 1_455 S
N43 Zn49 2.020 . S
C44 N43 1.307 . S
C44 C48 1.370 . S
C44 H55 0.948 . S
C45 N43 1.333 1_655 S
C45 C46 1.379 . S
C45 H53 0.952 . S
C46 C45 1.379 . S
C46 C47 1.390 1_655 S
C46 H66 0.949 . S
C47 C46 1.390 1_455 S
C47 C48 1.357 . S
C48 C44 1.370 . S
C48 C47 1.357 . S
C48 H67 0.950 . S
Zn49 N43 2.020 . S
Zn49 O52 2.025 . S
Zn49 O57 2.024 . S
Zn49 O59 2.039 1_455 S
Zn49 O61 2.034 1_455 S
O50 C34 1.251 . S
O50 Zn41 2.039 . S
C51 O56 1.246 . S
C51 O57 1.249 . S
O52 C34 1.254 . S
O52 Zn49 2.025 . S
H53 C45 0.952 . S
H54 C36 0.952 . S
H55 C44 0.948 . S
O56 Zn41 2.034 . S
O56 C51 1.246 . S
O57 Zn49 2.024 . S
O57 C51 1.249 . S
H58 C40 0.948 . S
O59 Zn49 2.039 1_655 S
O59 C63 1.251 . S
O60 Zn41 2.025 1_655 S
O60 C63 1.254 . S
O61 C42 1.246 . S
O61 Zn49 2.034 1_655 S
O62 Zn41 2.024 1_655 S
O62 C42 1.249 . S
C63 O59 1.251 . S
C63 O60 1.254 . S
H64 C37 0.949 . S
H65 C39 0.950 . S
H66 C46 0.949 . S
H67 C48 0.950 . S
C68 O84 1.251 . S
C68 O86 1.254 . S
N69 C70 1.333 1_554 S
N69 C74 1.307 1_545 S
N69 Zn75 2.020 . S
C70 N69 1.333 1_556 S
C70 C71 1.379 . S
C70 H88 0.952 . S
C71 C70 1.379 . S
C71 C72 1.391 . S
C71 H98 0.949 . S
C72 C71 1.391 . S
C72 C73 1.356 1_546 S
C73 C72 1.356 1_564 S
C73 C74 1.370 . S
C73 H99 0.950 . S
C74 N69 1.307 1_565 S
C74 C73 1.370 . S
C74 H92 0.948 . S
Zn75 N69 2.020 . S
Zn75 O84 2.039 1_554 S
Zn75 O90 2.034 . S
Zn75 O94 2.025 1_545 S
Zn75 O96 2.024 1_544 S
C76 O95 1.246 . S
C76 O96 1.249 . S
N77 C78 1.307 . S
N77 C79 1.333 1_546 S
N77 Zn83 2.020 1_556 S
C78 N77 1.307 . S
C78 C82 1.370 1_655 S
C78 H89 0.948 . S
C79 N77 1.333 1_564 S
C79 C80 1.379 1_655 S
C79 H87 0.952 . S
C80 C79 1.379 1_455 S
C80 C81 1.390 1_565 S
C80 H100 0.949 . S
C81 C80 1.390 1_545 S
C81 C82 1.357 1_554 S
C82 C78 1.370 1_455 S
C82 C81 1.357 1_556 S
C82 H101 0.950 . S
Zn83 N77 2.020 1_554 S
Zn83 O86 2.025 1_554 S
Zn83 O91 2.024 . S
Zn83 O93 2.039 1_545 S
Zn83 O95 2.034 1_544 S
O84 C68 1.251 . S
O84 Zn75 2.039 1_556 S
C85 O90 1.246 . S
C85 O91 1.249 . S
O86 C68 1.254 . S
O86 Zn83 2.025 1_556 S
H87 C79 0.952 . S
H88 C70 0.952 . S
H89 C78 0.948 . S
O90 Zn75 2.034 . S
O90 C85 1.246 . S
O91 Zn83 2.024 . S
O91 C85 1.249 . S
H92 C74 0.948 . S
O93 Zn83 2.039 1_565 S
O93 C97 1.251 . S
O94 Zn75 2.025 1_565 S
O94 C97 1.254 . S
O95 C76 1.246 . S
O95 Zn83 2.034 1_566 S
O96 Zn75 2.024 1_566 S
O96 C76 1.249 . S
C97 O93 1.251 . S
C97 O94 1.254 . S
H98 C71 0.949 . S
H99 C73 0.950 . S
H100 C80 0.949 . S
H101 C82 0.950 . S
C102 O118 1.251 . S
C102 O120 1.254 . S
N103 C104 1.333 . S
N103 C108 1.307 . S
N103 Zn109 2.020 . S
C104 N103 1.333 . S
C104 C105 1.379 1_565 S
C104 H122 0.952 . S
C105 C104 1.379 1_545 S
C105 C106 1.390 . S
C105 H132 0.949 . S
C106 C105 1.390 . S
C106 C107 1.357 . S
C107 C106 1.357 . S
C107 C108 1.370 1_545 S
C107 H133 0.950 1_455 S
C108 N103 1.307 . S
C108 C107 1.370 1_565 S
C108 H126 0.948 1_455 S
Zn109 N103 2.020 . S
Zn109 O118 2.039 . S
Zn109 O124 2.034 . S
Zn109 O128 2.025 . S
Zn109 O130 2.024 . S
C110 O129 1.246 1_655 S
C110 O130 1.249 1_655 S
N111 C112 1.307 . S
N111 C113 1.333 . S
N111 Zn117 2.020 . S
C112 N111 1.307 . S
C112 C116 1.370 . S
C112 H123 0.948 . S
C113 N111 1.333 . S
C113 C114 1.379 . S
C113 H121 0.955 . S
C114 C113 1.379 . S
C114 C115 1.390 . S
C114 H134 0.949 1_455 S
C115 C114 1.390 . S
C115 C116 1.357 . S
C116 C112 1.370 . S
C116 C115 1.357 . S
C116 H135 0.950 . S
Zn117 N111 2.020 . S
Zn117 O120 2.025 . S
Zn117 O125 2.024 . S
Zn117 O127 2.039 . S
Zn117 O129 2.034 . S
O118 C102 1.251 . S
O118 Zn109 2.039 . S
C119 O124 1.246 . S
C119 O125 1.249 . S
O120 C102 1.254 . S
O120 Zn117 2.025 . S
H121 C113 0.955 . S
H122 C104 0.952 . S
H123 C112 0.948 . S
O124 Zn109 2.034 . S
O124 C119 1.246 . S
O125 Zn117 2.024 . S
O125 C119 1.249 . S
H126 C108 0.948 1_655 S
O127 Zn117 2.039 . S
O127 C131 1.251 1_455 S
O128 Zn109 2.025 . S
O128 C131 1.254 1_455 S
O129 C110 1.246 1_455 S
O129 Zn117 2.034 . S
O130 Zn109 2.024 . S
O130 C110 1.249 1_455 S
C131 O127 1.251 1_655 S
C131 O128 1.254 1_655 S
H132 C105 0.949 . S
H133 C107 0.950 1_655 S
H134 C114 0.949 1_655 S
H135 C116 0.950 . S
C136 C137 1.387 . S
C136 H140 0.950 . S
C136 C145 1.390 . S
C137 C136 1.387 . S
C137 C139 1.387 1_554 S
H138 C145 0.950 . S
C139 C137 1.387 1_556 S
C139 C141 1.390 . S
C139 H143 0.950 . S
H140 C136 0.950 . S
C141 C139 1.390 . S
C141 C142 1.387 1_456 S
C141 H144 0.950 . S
C142 C141 1.387 1_654 S
C142 C145 1.387 1_655 S
H143 C139 0.950 . S
H144 C141 0.950 . S
C145 C136 1.390 . S
C145 H138 0.950 . S
C145 C142 1.387 1_455 S
C146 C147 1.387 . S
C146 H150 0.950 . S
C146 C155 1.390 . S
C147 C146 1.387 . S
C147 C149 1.387 . S
H148 C155 0.950 . S
C149 C147 1.387 . S
C149 C151 1.390 . S
C149 H153 0.950 . S
H150 C146 0.950 . S
C151 C149 1.390 . S
C151 C152 1.387 1_545 S
C151 H154 0.950 . S
C152 C151 1.387 1_565 S
C152 C155 1.387 1_565 S
H153 C149 0.950 . S
H154 C151 0.950 . S
C155 C146 1.390 . S
C155 H148 0.950 . S
C155 C152 1.387 1_545 S
C156 C157 1.387 . S
C156 H160 0.950 . S
C156 C165 1.390 . S
C157 C156 1.387 . S
C157 C159 1.387 1_556 S
H158 C165 0.950 . S
C159 C157 1.387 1_554 S
C159 C161 1.390 . S
C159 H163 0.950 . S
H160 C156 0.950 . S
C161 C159 1.390 . S
C161 C162 1.387 1_554 S
C161 H164 0.950 . S
C162 C161 1.387 1_556 S
C162 C165 1.387 . S
H163 C159 0.950 . S
H164 C161 0.950 . S
C165 C156 1.390 . S
C165 H158 0.950 . S
C165 C162 1.387 . S
C166 C167 1.387 . S
C166 H170 0.950 . S
C166 C175 1.390 . S
C167 C166 1.387 . S
C167 C169 1.387 . S
H168 C175 0.950 . S
C169 C167 1.387 . S
C169 C171 1.390 . S
C169 H173 0.950 . S
H170 C166 0.950 . S
C171 C169 1.390 . S
C171 C172 1.387 . S
C171 H174 0.950 . S
C172 C171 1.387 . S
C172 C175 1.387 . S
H173 C169 0.950 . S
H174 C171 0.950 . S
C175 C166 1.390 . S
C175 H168 0.950 . S
C175 C172 1.387 . S
C176 C177 1.387 . S
C176 H180 0.950 . S
C176 C185 1.390 . S
C177 C176 1.387 . S
C177 C179 1.387 . S
H178 C185 0.950 . S
C179 C177 1.387 . S
C179 C181 1.390 . S
C179 H183 0.950 . S
H180 C176 0.950 . S
C181 C179 1.390 . S
C181 C182 1.387 . S
C181 H184 0.950 . S
C182 C181 1.387 . S
C182 C185 1.387 . S
H183 C179 0.950 . S
H184 C181 0.950 . S
C185 C176 1.390 . S
C185 H178 0.950 . S
C185 C182 1.387 . S
C186 C187 1.387 . S
C186 H190 0.950 . S
C186 C195 1.390 . S
C187 C186 1.387 . S
C187 C189 1.387 . S
H188 C195 0.950 . S
C189 C187 1.387 . S
C189 C191 1.390 . S
C189 H193 0.950 . S
H190 C186 0.950 . S
C191 C189 1.390 . S
C191 C192 1.387 . S
C191 H194 0.950 . S
C192 C191 1.387 . S
C192 C195 1.387 . S
H193 C189 0.950 . S
H194 C191 0.950 . S
C195 C186 1.390 . S
C195 H188 0.950 . S
C195 C192 1.387 . S
C196 C197 1.387 . S
C196 H200 0.950 . S
C196 C205 1.390 . S
C197 C196 1.387 . S
C197 C199 1.387 . S
H198 C205 0.950 . S
C199 C197 1.387 . S
C199 C201 1.390 . S
C199 H203 0.950 . S
H200 C196 0.950 . S
C201 C199 1.390 . S
C201 C202 1.387 . S
C201 H204 0.950 . S
C202 C201 1.387 . S
C202 C205 1.387 . S
H203 C199 0.950 . S
H204 C201 0.950 . S
C205 C196 1.390 . S
C205 H198 0.950 . S
C205 C202 1.387 . S
C206 C207 1.387 . S
C206 H210 0.950 . S
C206 C215 1.390 . S
C207 C206 1.387 . S
C207 C209 1.387 . S
H208 C215 0.950 . S
C209 C207 1.387 . S
C209 C211 1.390 . S
C209 H213 0.950 . S
H210 C206 0.950 . S
C211 C209 1.390 . S
C211 C212 1.387 . S
C211 H214 0.950 . S
C212 C211 1.387 . S
C212 C215 1.387 . S
H213 C209 0.950 . S
H214 C211 0.950 . S
C215 C206 1.390 . S
C215 H208 0.950 . S
C215 C212 1.387 . S
C216 C217 1.387 . S
C216 H220 0.950 . S
C216 C225 1.390 . S
C217 C216 1.387 . S
C217 C219 1.387 . S
H218 C225 0.950 . S
C219 C217 1.387 . S
C219 C221 1.390 . S
C219 H223 0.950 . S
H220 C216 0.950 . S
C221 C219 1.390 . S
C221 C222 1.387 . S
C221 H224 0.950 . S
C222 C221 1.387 . S
C222 C225 1.387 . S
H223 C219 0.950 . S
H224 C221 0.950 . S
C225 C216 1.390 . S
C225 H218 0.950 . S
C225 C222 1.387 . S
C226 C227 1.387 . S
C226 H230 0.950 . S
C226 C235 1.390 . S
C227 C226 1.387 . S
C227 C229 1.387 . S
H228 C235 0.950 . S
C229 C227 1.387 . S
C229 C231 1.390 . S
C229 H233 0.950 . S
H230 C226 0.950 . S
C231 C229 1.390 . S
C231 C232 1.387 . S
C231 H234 0.950 . S
C232 C231 1.387 . S
C232 C235 1.387 . S
H233 C229 0.950 . S
H234 C231 0.950 . S
C235 C226 1.390 . S
C235 H228 0.950 . S
C235 C232 1.387 . S
C236 C237 1.387 . S
C236 H240 0.950 . S
C236 C245 1.390 . S
C237 C236 1.387 . S
C237 C239 1.387 . S
H238 C245 0.950 . S
C239 C237 1.387 . S
C239 C241 1.390 . S
C239 H243 0.950 . S
H240 C236 0.950 . S
C241 C239 1.390 . S
C241 C242 1.387 . S
C241 H244 0.950 . S
C242 C241 1.387 . S
C242 C245 1.387 . S
H243 C239 0.950 . S
H244 C241 0.950 . S
C245 C236 1.390 . S
C245 H238 0.950 . S
C245 C242 1.387 . S
C246 C247 1.387 . S
C246 H250 0.950 . S
C246 C255 1.390 . S
C247 C246 1.387 . S
C247 C249 1.387 . S
H248 C255 0.950 . S
C249 C247 1.387 . S
C249 C251 1.390 . S
C249 H253 0.950 . S
H250 C246 0.950 . S
C251 C249 1.390 . S
C251 C252 1.387 . S
C251 H254 0.950 . S
C252 C251 1.387 . S
C252 C255 1.387 . S
H253 C249 0.950 . S
H254 C251 0.950 . S
C255 C246 1.390 . S
C255 H248 0.950 . S
C255 C252 1.387 . S
C137 C81 0.725 . S
C142 C13 0.725 1_655 S
C147 C106 0.720 . S
C152 C47 0.720 1_565 S
C157 C72 1.261 . S
C162 C4 1.261 1_556 S
C167 C38 1.261 . S
C172 C115 1.261 . S
C177 C34 2.080 . S
C182 C29 2.091 . S
C187 C63 2.135 . S
C192 C68 2.127 . S
C197 C110 2.097 . S
C202 C97 2.124 . S
C207 C119 2.113 . S
C212 C0 2.098 . S
C217 C76 2.113 . S
C222 C131 2.108 . S
C227 C17 2.107 . S
C232 C102 2.124 . S
C237 C51 2.127 . S
C242 C8 2.146 . S
C247 C85 2.079 . S
C252 C42 2.100 . S
