# Generated by pormake.
# Topology sxa, (6)-cn, num edge types: 1
# Building blocks:
#     Node 0, Type 0, BuildingBlock: PAMTUU_clean_sbu_0, # of connection points: 6
#     Node 1, Type 0, BuildingBlock: PAMTUU_clean_sbu_0, # of connection points: 6
#     Node 2, Type 0, BuildingBlock: PAMTUU_clean_sbu_0, # of connection points: 6
#     Node 3, Type 0, BuildingBlock: PAMTUU_clean_sbu_0, # of connection points: 6
#     Edge 4, Type (0, 0), None
#     Edge 5, Type (0, 0), None
#     Edge 6, Type (0, 0), None
#     Edge 7, Type (0, 0), None
#     Edge 8, Type (0, 0), None
#     Edge 9, Type (0, 0), None
#     Edge 10, Type (0, 0), None
#     Edge 11, Type (0, 0), None
#     Edge 12, Type (0, 0), None
#     Edge 13, Type (0, 0), None
#     Edge 14, Type (0, 0), None
#     Edge 15, Type (0, 0), None
# Relax obj value: 0.558
# Max RMSD: 0.402
# Mean RMSD: 0.402
data_MOF--net-sxa--node1-PAMTUU_clean_sbu_0--edge1-none
_symmetry_space_group_name_H-M    P1
_symmetry_Int_Tables_number       1
_symmetry_cell_setting            triclinic
loop_
_symmetry_equiv_pos_as_xyz
'x, y, z'
_cell_length_a     19.307319
_cell_length_b     12.25297
_cell_length_c     11.528996
_cell_angle_alpha  97.531744
_cell_angle_beta   44.455173
_cell_angle_gamma 95.001978
loop_
_atom_site_label
_atom_site_type_symbol
_atom_site_fract_x
_atom_site_fract_y
_atom_site_fract_z
_atom_type_partial_charge
Tb0 Tb 0.1906 0.71606 -0.05173 0.0
Tb1 Tb 0.16469 0.74939 0.15714 0.0
C2 C 0.18437 0.51553 -0.05347 0.0
C3 C 0.15664 0.7181 0.66184 0.0
C4 C 0.96284 0.72889 0.84767 0.0
C5 C 1.01354 0.63056 0.74788 0.0
C6 C 1.1131 0.62528 0.65118 0.0
C7 C 1.11673 0.82105 0.70095 0.0
C8 C 1.017 0.82758 0.79766 0.0
C9 C 0.19947 0.6982 0.71963 0.0
O10 O 1.01836 0.7035 0.18856 0.0
O11 O 1.0154 0.7953 0.37088 0.0
O12 O 0.19551 0.89029 0.00084 0.0
O13 O 0.19142 0.89081 0.00083 0.0
O14 O 0.20924 0.63217 0.21098 0.0
O15 O 0.15196 0.79643 0.35291 0.0
O16 O 0.30739 0.82067 0.03596 0.0
O17 O 0.3309 0.67304 0.88733 0.0
O18 O 0.26541 0.56265 0.83185 0.0
O19 O 1.13081 0.57183 0.09647 0.0
C20 C 0.96576 0.74095 0.3477 0.0
O21 O 1.13862 0.64599 0.85128 0.0
O22 O 0.24599 0.77525 0.73117 0.0
C23 C 1.14011 0.93537 -0.01487 0.0
C24 C 0.28207 0.71491 0.30207 0.0
C25 C 0.39094 0.72455 0.38451 0.0
C26 C 0.36637 0.82165 0.36452 0.0
C27 C 0.31214 0.81683 0.32495 0.0
C28 C 0.32043 0.61879 0.29343 0.0
C29 C 0.37341 0.62304 0.33458 0.0
C30 C 0.19845 0.70542 0.31755 0.0
C31 C 0.36755 0.74028 -0.06544 0.0
H32 H 0.9766 0.55483 0.76165 0.0
H33 H 0.14787 0.54477 0.60515 0.0
H34 H 0.15902 0.89365 0.67642 0.0
H35 H 0.98349 0.90842 0.84533 0.0
H36 H 0.38291 0.90271 0.38807 0.0
H37 H 0.28705 0.89302 0.32606 0.0
H38 H 0.2994 0.53925 0.27449 0.0
H39 H 0.39509 0.54506 0.3348 0.0
Tb40 Tb 0.68966 0.21604 -0.04987 0.0
Tb41 Tb 0.66416 0.24976 0.15815 0.0
C42 C 0.6844 0.01566 -0.05344 0.0
C43 C 0.6552 0.21704 0.66432 0.0
C44 C 0.46326 0.22789 0.83856 0.0
C45 C 0.51449 0.12934 0.74127 0.0
C46 C 0.61296 0.12381 0.65137 0.0
C47 C 0.61594 0.32 0.70092 0.0
C48 C 0.51742 0.32646 0.78999 0.0
C49 C 0.69778 0.19762 0.72253 0.0
O50 O 0.51762 0.20275 0.19043 0.0
O51 O 0.51472 0.29547 0.37209 0.0
O52 O 0.69519 0.39041 0.00136 0.0
O53 O 0.69108 0.39089 0.00135 0.0
O54 O 0.70797 0.13349 0.2143 0.0
O55 O 0.65151 0.29854 0.35357 0.0
O56 O 0.80715 0.32046 0.0362 0.0
O57 O 0.82979 0.17224 0.8894 0.0
O58 O 0.76524 0.06311 0.83189 0.0
O59 O 0.63094 0.07166 0.09682 0.0
C60 C 0.46507 0.2405 0.34938 0.0
O61 O 0.6364 0.14632 0.85512 0.0
O62 O 0.74478 0.2746 0.73298 0.0
C63 C 0.63999 0.43549 -0.01477 0.0
C64 C 0.78114 0.21735 0.30435 0.0
C65 C 0.88989 0.22711 0.38705 0.0
C66 C 0.8651 0.3242 0.36743 0.0
C67 C 0.81099 0.31931 0.3276 0.0
C68 C 0.81963 0.12133 0.29557 0.0
C69 C 0.87255 0.12561 0.33681 0.0
C70 C 0.69753 0.20761 0.31978 0.0
C71 C 0.86685 0.23957 -0.06421 0.0
H72 H 0.47793 0.05361 0.75392 0.0
H73 H 0.64738 0.04331 0.60795 0.0
H74 H 0.65742 0.39268 0.6794 0.0
H75 H 0.48391 0.40721 0.83533 0.0
H76 H 0.8814 0.40527 0.3914 0.0
H77 H 0.78575 0.39546 0.32891 0.0
H78 H 0.79852 0.04182 0.27689 0.0
H79 H 0.89434 0.04763 0.33681 0.0
Tb80 Tb 0.15807 0.20542 0.68826 0.0
Tb81 Tb 1.1322 0.23839 0.89716 0.0
C82 C 0.18336 0.01917 0.85898 0.0
C83 C 1.04066 0.24024 0.5434 0.0
C84 C 0.93204 0.23081 0.46049 0.0
C85 C 0.95631 0.13366 0.48092 0.0
C86 C 1.01045 0.13837 0.52065 0.0
C87 C 1.00252 0.33642 0.55168 0.0
C88 C 0.94967 0.33228 0.51031 0.0
C89 C 1.12423 0.24963 0.52804 0.0
O90 O 1.01548 0.13386 0.80935 0.0
O91 O 0.99181 0.28136 -0.0417 0.0
O92 O 1.05715 0.39167 0.01435 0.0
O93 O 0.19168 0.38292 0.74957 0.0
O94 O 0.18424 0.30822 -0.00592 0.0
O95 O 1.07702 0.17869 0.11389 0.0
O96 O 0.30442 0.25141 0.65681 0.0
O97 O 0.3074 0.15981 0.47438 0.0
O98 O 1.12787 0.06398 0.84325 0.0
O99 O 1.13205 0.06382 0.84335 0.0
C100 C 0.95526 0.21419 0.91084 0.0
O101 O 1.11336 0.32273 0.6348 0.0
O102 O 0.17078 0.15862 0.49246 0.0
C103 C 1.13812 0.43892 0.89972 0.0
C104 C 0.16638 0.23604 0.18327 0.0
C105 C 0.35995 0.2253 -0.00112 0.0
C106 C 0.30919 0.32367 0.09829 0.0
C107 C 0.20976 0.32897 0.1941 0.0
C108 C 0.20618 0.1331 0.14462 0.0
C109 C 0.30578 0.12661 0.04881 0.0
C110 C 1.1235 0.25579 0.12551 0.0
C111 C 0.35701 0.21414 0.49762 0.0
H112 H 0.93958 0.05264 0.45762 0.0
H113 H 1.03537 0.06214 0.51981 0.0
H114 H 1.02369 0.41593 0.57045 0.0
H115 H 0.92822 0.41031 0.50977 0.0
H116 H 0.34605 0.39943 0.08467 0.0
H117 H 0.17507 0.40949 0.23963 0.0
H118 H 0.16397 0.06046 0.16887 0.0
H119 H 0.33932 0.0458 0.00149 0.0
Tb120 Tb 0.65862 0.70523 0.68721 0.0
Tb121 Tb 0.63313 0.7384 0.89532 0.0
C122 C 0.68355 0.51905 0.85859 0.0
C123 C 0.54158 0.73816 0.54117 0.0
C124 C 0.43308 0.72834 0.45797 0.0
C125 C 0.45758 0.63128 0.47817 0.0
C126 C 0.5116 0.63619 0.51818 0.0
C127 C 0.50334 0.83418 0.5494 0.0
C128 C 0.45055 0.82987 0.50792 0.0
C129 C 0.6251 0.7479 0.52595 0.0
O130 O 0.51579 0.63414 0.8089 0.0
O131 O 0.49287 0.7821 -0.04364 0.0
O132 O 0.55742 0.89126 0.01433 0.0
O133 O 0.69165 0.88316 0.74926 0.0
O134 O 0.68639 0.8078 -0.00966 0.0
O135 O 0.57826 0.67916 0.11202 0.0
O136 O 0.80515 0.75207 0.65496 0.0
O137 O 0.80807 0.65981 0.47305 0.0
O138 O 0.62827 0.5639 0.84247 0.0
O139 O 0.63245 0.56376 0.84258 0.0
C140 C 0.45596 0.71488 0.9096 0.0
O141 O 0.61444 0.82172 0.63191 0.0
O142 O 0.67136 0.65702 0.4916 0.0
C143 C 0.63819 0.93883 0.89973 0.0
C144 C 0.66786 0.73696 0.18072 0.0
C145 C 0.85954 0.72626 0.00802 0.0
C146 C 0.80822 0.82483 0.10496 0.0
C147 C 0.70993 0.83033 0.19383 0.0
C148 C 0.70703 0.63403 0.14461 0.0
C149 C 0.80541 0.62767 0.05644 0.0
C150 C 0.6252 0.75619 0.12261 0.0
C151 C 0.8577 0.71461 0.49591 0.0
H152 H 0.44108 0.5502 0.45456 0.0
H153 H 0.53665 0.56005 0.51727 0.0
H154 H 0.52462 0.91369 0.56771 0.0
H155 H 0.42902 0.90786 0.50745 0.0
H156 H 0.84467 0.90059 0.09253 0.0
H157 H 0.6756 0.91084 0.2367 0.0
H158 H 0.66565 0.56128 0.16589 0.0
H159 H 0.83897 0.54696 0.01141 0.0
loop_
_geom_bond_atom_site_label_1
_geom_bond_atom_site_label_2
_geom_bond_distance
_geom_bond_site_symmetry_2
_ccdc_geom_bond_type
Tb0 C9 2.764 . S
Tb0 O10 2.325 1_456 S
Tb0 O13 2.303 1_556 S
Tb0 O17 2.322 . S
Tb0 O18 2.349 . S
Tb0 O21 2.415 . S
Tb0 O22 2.399 . S
Tb1 O11 2.322 . S
Tb1 O12 2.349 1_655 S
Tb1 O14 2.415 1_655 S
Tb1 O15 2.399 1_655 S
Tb1 O16 2.325 1_655 S
Tb1 O19 2.303 1_655 S
Tb1 C30 2.765 1_655 S
C2 O18 1.261 1_554 S
C2 O19 1.257 . S
C3 C6 1.358 . S
C3 C7 1.332 . S
C3 C9 1.504 1_655 S
C4 C5 1.373 . S
C4 C8 1.308 . S
C5 C4 1.373 . S
C5 C6 1.429 . S
C5 H32 0.932 . S
C6 C3 1.358 . S
C6 C5 1.429 . S
C6 H33 0.930 . S
C7 C3 1.332 . S
C7 C8 1.394 . S
C7 H34 0.932 . S
C8 C4 1.308 . S
C8 C7 1.394 . S
C8 H35 0.929 . S
C9 Tb0 2.764 . S
C9 C3 1.504 1_455 S
C9 O21 1.239 . S
C9 O22 1.263 . S
O10 Tb0 2.325 1_654 S
O10 C20 1.236 . S
O11 Tb1 2.322 . S
O11 C20 1.257 . S
O12 Tb1 2.349 1_455 S
O12 C23 1.261 . S
O13 Tb0 2.303 1_554 S
O13 C23 1.257 . S
O14 Tb1 2.415 1_455 S
O14 C30 1.239 . S
O15 Tb1 2.399 1_455 S
O15 C30 1.263 . S
O16 Tb1 2.325 1_455 S
O16 C31 1.236 1_554 S
O17 Tb0 2.322 . S
O17 C31 1.257 . S
O18 Tb0 2.349 . S
O18 C2 1.261 1_556 S
O19 Tb1 2.303 1_455 S
O19 C2 1.257 . S
C20 O10 1.236 . S
C20 O11 1.257 . S
O21 Tb0 2.415 . S
O21 C9 1.239 . S
O22 Tb0 2.399 . S
O22 C9 1.263 . S
C23 O12 1.261 . S
C23 O13 1.257 . S
C24 C27 1.358 . S
C24 C28 1.332 . S
C24 C30 1.504 . S
C25 C26 1.373 . S
C25 C29 1.308 . S
C26 C25 1.373 . S
C26 C27 1.429 . S
C26 H36 0.932 . S
C27 C24 1.358 . S
C27 C26 1.429 . S
C27 H37 0.930 . S
C28 C24 1.332 . S
C28 C29 1.394 . S
C28 H38 0.932 . S
C29 C25 1.308 . S
C29 C28 1.394 . S
C29 H39 0.929 . S
C30 Tb1 2.765 1_455 S
C30 O14 1.239 . S
C30 O15 1.263 . S
C30 C24 1.504 . S
C31 O16 1.236 1_556 S
C31 O17 1.257 . S
H32 C5 0.932 . S
H33 C6 0.930 . S
H34 C7 0.932 . S
H35 C8 0.929 . S
H36 C26 0.932 . S
H37 C27 0.930 . S
H38 C28 0.932 . S
H39 C29 0.929 . S
Tb40 C49 2.764 . S
Tb40 O50 2.325 1_556 S
Tb40 O53 2.303 1_556 S
Tb40 O57 2.322 . S
Tb40 O58 2.349 . S
Tb40 O61 2.415 . S
Tb40 O62 2.399 . S
Tb41 O51 2.322 . S
Tb41 O52 2.349 . S
Tb41 O54 2.415 . S
Tb41 O55 2.399 . S
Tb41 O56 2.325 . S
Tb41 O59 2.303 . S
Tb41 C70 2.764 . S
C42 O58 1.261 1_554 S
C42 O59 1.257 . S
C43 C46 1.358 . S
C43 C47 1.332 . S
C43 C49 1.504 . S
C44 C45 1.373 . S
C44 C48 1.308 . S
C45 C44 1.373 . S
C45 C46 1.429 . S
C45 H72 0.932 . S
C46 C43 1.358 . S
C46 C45 1.429 . S
C46 H73 0.930 . S
C47 C43 1.332 . S
C47 C48 1.394 . S
C47 H74 0.932 . S
C48 C44 1.308 . S
C48 C47 1.394 . S
C48 H75 0.929 . S
C49 Tb40 2.764 . S
C49 C43 1.504 . S
C49 O61 1.239 . S
C49 O62 1.263 . S
O50 Tb40 2.325 1_554 S
O50 C60 1.236 . S
O51 Tb41 2.322 . S
O51 C60 1.257 . S
O52 Tb41 2.349 . S
O52 C63 1.261 . S
O53 Tb40 2.303 1_554 S
O53 C63 1.257 . S
O54 Tb41 2.415 . S
O54 C70 1.239 . S
O55 Tb41 2.399 . S
O55 C70 1.263 . S
O56 Tb41 2.325 . S
O56 C71 1.236 1_554 S
O57 Tb40 2.322 . S
O57 C71 1.257 . S
O58 Tb40 2.349 . S
O58 C42 1.261 1_556 S
O59 Tb41 2.303 . S
O59 C42 1.257 . S
C60 O50 1.236 . S
C60 O51 1.257 . S
O61 Tb40 2.415 . S
O61 C49 1.239 . S
O62 Tb40 2.399 . S
O62 C49 1.263 . S
C63 O52 1.261 . S
C63 O53 1.257 . S
C64 C67 1.358 . S
C64 C68 1.332 . S
C64 C70 1.504 . S
C65 C66 1.373 . S
C65 C69 1.308 . S
C66 C65 1.373 . S
C66 C67 1.429 . S
C66 H76 0.932 . S
C67 C64 1.358 . S
C67 C66 1.429 . S
C67 H77 0.930 . S
C68 C64 1.332 . S
C68 C69 1.394 . S
C68 H78 0.932 . S
C69 C65 1.308 . S
C69 C68 1.394 . S
C69 H79 0.929 . S
C70 Tb41 2.764 . S
C70 O54 1.239 . S
C70 O55 1.263 . S
C70 C64 1.504 . S
C71 O56 1.236 1_556 S
C71 O57 1.257 . S
H72 C45 0.932 . S
H73 C46 0.930 . S
H74 C47 0.932 . S
H75 C48 0.929 . S
H76 C66 0.932 . S
H77 C67 0.930 . S
H78 C68 0.932 . S
H79 C69 0.929 . S
Tb80 C89 2.764 1_455 S
Tb80 O90 2.325 1_455 S
Tb80 O93 2.303 . S
Tb80 O97 2.322 . S
Tb80 O98 2.349 . S
Tb80 O101 2.415 1_455 S
Tb80 O102 2.399 1_455 S
Tb81 O91 2.322 . S
Tb81 O92 2.349 . S
Tb81 O94 2.415 1_655 S
Tb81 O95 2.399 1_655 S
Tb81 O96 2.325 1_654 S
Tb81 O99 2.303 1_554 S
Tb81 C110 2.764 1_655 S
C82 O98 1.272 1_655 S
C82 O99 1.253 . S
C83 C86 1.358 . S
C83 C87 1.332 . S
C83 C89 1.504 . S
C84 C85 1.373 . S
C84 C88 1.308 . S
C85 C84 1.373 . S
C85 C86 1.429 . S
C85 H112 0.932 . S
C86 C83 1.358 . S
C86 C85 1.429 . S
C86 H113 0.930 . S
C87 C83 1.332 . S
C87 C88 1.394 . S
C87 H114 0.932 . S
C88 C84 1.308 . S
C88 C87 1.394 . S
C88 H115 0.929 . S
C89 Tb80 2.764 1_655 S
C89 C83 1.504 . S
C89 O101 1.239 . S
C89 O102 1.263 . S
O90 Tb80 2.325 1_655 S
O90 C100 1.236 1_556 S
O91 Tb81 2.322 . S
O91 C100 1.257 . S
O92 Tb81 2.349 . S
O92 C103 1.261 1_654 S
O93 Tb80 2.303 . S
O93 C103 1.257 . S
O94 Tb81 2.415 1_455 S
O94 C110 1.239 . S
O95 Tb81 2.399 1_455 S
O95 C110 1.263 . S
O96 Tb81 2.325 1_456 S
O96 C111 1.236 . S
O97 Tb80 2.322 . S
O97 C111 1.257 . S
O98 Tb80 2.349 . S
O98 C82 1.272 1_455 S
O99 Tb81 2.303 1_556 S
O99 C82 1.253 . S
C100 O90 1.236 1_554 S
C100 O91 1.257 . S
O101 Tb80 2.415 1_655 S
O101 C89 1.239 . S
O102 Tb80 2.399 1_655 S
O102 C89 1.263 . S
C103 O92 1.261 1_456 S
C103 O93 1.257 . S
C104 C107 1.358 . S
C104 C108 1.332 . S
C104 C110 1.504 . S
C105 C106 1.373 . S
C105 C109 1.308 . S
C106 C105 1.373 . S
C106 C107 1.429 . S
C106 H116 0.932 . S
C107 C104 1.358 . S
C107 C106 1.429 . S
C107 H117 0.930 . S
C108 C104 1.332 . S
C108 C109 1.394 . S
C108 H118 0.932 . S
C109 C105 1.308 . S
C109 C108 1.394 . S
C109 H119 0.929 . S
C110 Tb81 2.764 1_455 S
C110 O94 1.239 . S
C110 O95 1.263 . S
C110 C104 1.504 . S
C111 O96 1.236 . S
C111 O97 1.257 . S
H112 C85 0.932 . S
H113 C86 0.930 . S
H114 C87 0.932 . S
H115 C88 0.929 . S
H116 C106 0.932 . S
H117 C107 0.930 . S
H118 C108 0.932 . S
H119 C109 0.929 . S
Tb120 C129 2.764 . S
Tb120 O130 2.325 . S
Tb120 O133 2.303 . S
Tb120 O137 2.322 . S
Tb120 O138 2.349 . S
Tb120 O141 2.415 . S
Tb120 O142 2.399 . S
Tb121 O131 2.322 . S
Tb121 O132 2.349 . S
Tb121 O134 2.415 . S
Tb121 O135 2.399 . S
Tb121 O136 2.325 1_554 S
Tb121 O139 2.303 1_554 S
Tb121 C150 2.764 . S
C122 O138 1.261 . S
C122 O139 1.257 . S
C123 C126 1.358 . S
C123 C127 1.332 . S
C123 C129 1.504 . S
C124 C125 1.373 . S
C124 C128 1.308 . S
C125 C124 1.373 . S
C125 C126 1.429 . S
C125 H152 0.932 . S
C126 C123 1.358 . S
C126 C125 1.429 . S
C126 H153 0.930 . S
C127 C123 1.332 . S
C127 C128 1.394 . S
C127 H154 0.932 . S
C128 C124 1.308 . S
C128 C127 1.394 . S
C128 H155 0.929 . S
C129 Tb120 2.764 . S
C129 C123 1.504 . S
C129 O141 1.239 . S
C129 O142 1.263 . S
O130 Tb120 2.325 . S
O130 C140 1.236 1_556 S
O131 Tb121 2.322 . S
O131 C140 1.257 . S
O132 Tb121 2.349 . S
O132 C143 1.261 1_554 S
O133 Tb120 2.303 . S
O133 C143 1.257 . S
O134 Tb121 2.415 . S
O134 C150 1.239 . S
O135 Tb121 2.399 . S
O135 C150 1.263 . S
O136 Tb121 2.325 1_556 S
O136 C151 1.236 . S
O137 Tb120 2.322 . S
O137 C151 1.257 . S
O138 Tb120 2.349 . S
O138 C122 1.261 . S
O139 Tb121 2.303 1_556 S
O139 C122 1.257 . S
C140 O130 1.236 1_554 S
C140 O131 1.257 . S
O141 Tb120 2.415 . S
O141 C129 1.239 . S
O142 Tb120 2.399 . S
O142 C129 1.263 . S
C143 O132 1.261 1_556 S
C143 O133 1.257 . S
C144 C147 1.358 . S
C144 C148 1.332 . S
C144 C150 1.504 . S
C145 C146 1.373 . S
C145 C149 1.308 . S
C146 C145 1.373 . S
C146 C147 1.429 . S
C146 H156 0.932 . S
C147 C144 1.358 . S
C147 C146 1.429 . S
C147 H157 0.930 . S
C148 C144 1.332 . S
C148 C149 1.394 . S
C148 H158 0.932 . S
C149 C145 1.308 . S
C149 C148 1.394 . S
C149 H159 0.929 . S
C150 Tb121 2.764 . S
C150 O134 1.239 . S
C150 O135 1.263 . S
C150 C144 1.504 . S
C151 O136 1.236 . S
C151 O137 1.257 . S
H152 C125 0.932 . S
H153 C126 0.930 . S
H154 C127 0.932 . S
H155 C128 0.929 . S
H156 C146 0.932 . S
H157 C147 0.930 . S
H158 C148 0.932 . S
H159 C149 0.929 . S
C103 C2 3.745 1_556 S
C63 C122 5.297 1_554 S
C143 C42 3.745 1_566 S
C23 C82 5.284 1_464 S
C124 C25 2.418 . S
C111 C60 1.737 . S
C84 C65 2.418 . S
C20 C151 1.737 . S
C140 C31 4.011 1_554 S
C105 C44 4.210 1_554 S
C71 C100 4.011 1_556 S
C4 C145 4.209 1_556 S
