# Generated by pormake.
# Topology qtz, (4)-cn, num edge types: 1
# Building blocks:
#     Node 0, Type 0, BuildingBlock: AZAVOO_clean_sbu_0, # of connection points: 4
#     Node 1, Type 0, BuildingBlock: AZAVOO_clean_sbu_0, # of connection points: 4
#     Node 2, Type 0, BuildingBlock: AZAVOO_clean_sbu_0, # of connection points: 4
#     Edge 3, Type (0, 0), BuildingBlock: KIFKEQ_clean_linker_1, # of connection points: 2
#     Edge 4, Type (0, 0), BuildingBlock: KIFKEQ_clean_linker_1, # of connection points: 2
#     Edge 5, Type (0, 0), BuildingBlock: KIFKEQ_clean_linker_1, # of connection points: 2
#     Edge 6, Type (0, 0), BuildingBlock: KIFKEQ_clean_linker_1, # of connection points: 2
#     Edge 7, Type (0, 0), BuildingBlock: KIFKEQ_clean_linker_1, # of connection points: 2
#     Edge 8, Type (0, 0), BuildingBlock: KIFKEQ_clean_linker_1, # of connection points: 2
# Relax obj value: 0.162
# Max RMSD: 0.226
# Mean RMSD: 0.200
data_MOF--net-qtz--node1-AZAVOO_clean_sbu_0--edge1-KIFKEQ_clean_linker_1
_symmetry_space_group_name_H-M    P1
_symmetry_Int_Tables_number       1
_symmetry_cell_setting            triclinic
loop_
_symmetry_equiv_pos_as_xyz
'x, y, z'
_cell_length_a     23.516931
_cell_length_b     23.55595
_cell_length_c     29.68022
_cell_angle_alpha  93.050107
_cell_angle_beta   96.64659
_cell_angle_gamma 122.50833
loop_
_atom_site_label
_atom_site_type_symbol
_atom_site_fract_x
_atom_site_fract_y
_atom_site_fract_z
_atom_type_partial_charge
Mg0 Mg 0.96664 0.48659 0.12048 0.0
O1 O 0.04927 0.58224 0.17018 0.0
O2 O 0.99599 0.60089 0.22098 0.0
Mg3 Mg 0.8814 0.52007 0.20352 0.0
C4 C 0.05037 0.61644 0.20556 0.0
C5 C 0.04392 0.45394 0.06211 0.0
O6 O 0.0038 0.39749 0.07861 0.0
O7 O 0.92869 0.54559 0.08381 0.0
O8 O 0.87197 0.55785 0.13488 0.0
O9 O 0.97791 0.42038 0.16644 0.0
O10 O 0.9048 0.45135 0.17002 0.0
C11 C 0.89067 0.56509 0.09569 0.0
C12 C 0.93107 0.41918 0.18613 0.0
O13 O 0.04135 0.50547 0.07252 0.0
Mg14 Mg 0.61978 0.07164 0.47706 0.0
O15 O 0.52484 1.0036 0.4213 0.0
O16 O 0.51178 0.07126 0.37716 0.0
Mg17 Mg 0.59649 0.18147 0.40496 0.0
C18 C 0.49293 0.01227 0.38729 0.0
C19 C 0.64196 0.98372 0.53845 0.0
O20 O 0.70467 0.03547 0.53858 0.0
O21 O 0.5592 0.10151 0.51566 0.0
O22 O 0.55202 0.1718 0.47114 0.0
O23 O 0.689 0.07102 0.43158 0.0
O24 O 0.65899 0.14545 0.4349 0.0
C25 C 0.54079 0.14246 0.5071 0.0
C26 C 0.69031 0.12204 0.41624 0.0
O27 O 0.59224 0.98285 0.51575 0.0
Mg28 Mg 0.42138 0.49141 0.78437 0.0
O29 O 0.5164 0.53156 0.83971 0.0
O30 O 0.53219 0.62125 0.8829 0.0
Mg31 Mg 0.4475 0.63731 0.85673 0.0
C32 C 0.55007 0.58029 0.87287 0.0
C33 C 0.42646 0.36681 0.74512 0.0
O34 O 0.38509 0.33549 0.77419 0.0
O35 O 0.48241 0.58116 0.74661 0.0
O36 O 0.49321 0.66706 0.79127 0.0
O37 O 0.35233 0.42288 0.82982 0.0
O38 O 0.38282 0.52921 0.8277 0.0
C39 C 0.50335 0.64363 0.75543 0.0
C40 C 0.35078 0.47418 0.84582 0.0
O41 O 0.44975 0.42916 0.74289 0.0
H42 H 0.37581 0.57668 0.90916 0.0
H43 H 0.23808 0.36101 0.86537 0.0
H44 H 0.30448 0.57139 0.96381 0.0
H45 H 0.16498 0.35565 0.91926 0.0
H46 H 0.076 0.36037 0.04615 0.0
H47 H 0.15472 0.36477 -0.00215 0.0
H48 H 0.19616 0.55745 0.96178 0.0
H49 H 0.11929 0.55415 0.0115 0.0
C50 C 0.33011 0.52816 0.91106 0.0
C51 C 0.31199 0.46947 0.88256 0.0
C52 C 0.289 0.52511 0.94233 0.0
C53 C 0.22836 0.46335 0.94541 0.0
C54 C 0.21161 0.40402 0.91805 0.0
C55 C 0.25335 0.40701 0.88712 0.0
C56 C 0.10205 0.40375 0.02796 0.0
C57 C 0.0915 0.45696 0.03258 0.0
C58 C 0.14693 0.40608 0.0001 0.0
C59 C 0.18182 0.46143 -0.02406 0.0
C60 C 0.1711 0.51462 -0.01943 0.0
C61 C 0.12668 0.51258 0.00879 0.0
H62 H 0.95704 0.32624 0.2161 0.0
H63 H 0.84498 0.41897 0.24011 0.0
H64 H 0.89943 0.24665 0.26984 0.0
H65 H 0.78981 0.34178 0.29446 0.0
H66 H 0.63899 0.15071 0.34139 0.0
H67 H 0.70248 0.22163 0.28591 0.0
H68 H 0.88471 0.23551 0.35079 0.0
H69 H 0.81971 0.16243 0.40591 0.0
C70 C 0.92124 0.33056 0.23349 0.0
C71 C 0.90504 0.37848 0.22356 0.0
C72 C 0.88833 0.28502 0.2642 0.0
C73 C 0.839 0.28702 0.28548 0.0
C74 C 0.82606 0.33764 0.2775 0.0
C75 C 0.85834 0.38251 0.24667 0.0
C76 C 0.69238 0.16837 0.34341 0.0
C77 C 0.7251 0.15253 0.37809 0.0
C78 C 0.72885 0.20917 0.31187 0.0
C79 C 0.79907 0.23579 0.31493 0.0
C80 C 0.83072 0.21593 0.34778 0.0
C81 C 0.79369 0.17414 0.37914 0.0
H82 H 0.52278 0.86043 0.53438 0.0
H83 H 0.7326 0.9834 0.60456 0.0
H84 H 0.49941 0.77386 0.58422 0.0
H85 H 0.70882 0.89669 0.65453 0.0
H86 H 0.49128 0.61117 0.6635 0.0
H87 H 0.53321 0.69024 0.60699 0.0
H88 H 0.63161 0.85964 0.71558 0.0
H89 H 0.58957 0.78117 0.77188 0.0
C90 C 0.56404 0.86863 0.56013 0.0
C91 C 0.6293 0.92897 0.56595 0.0
C92 C 0.5508 0.81882 0.58832 0.0
C93 C 0.60237 0.82881 0.62313 0.0
C94 C 0.66821 0.88806 0.62799 0.0
C95 C 0.68171 0.93753 0.59941 0.0
C96 C 0.52297 0.66527 0.6753 0.0
C97 C 0.53662 0.69014 0.72199 0.0
C98 C 0.54662 0.71035 0.643 0.0
C99 C 0.5853 0.78082 0.65704 0.0
C100 C 0.60231 0.80551 0.70392 0.0
C101 C 0.57783 0.76061 0.73607 0.0
H102 H 0.64022 0.68359 0.9414 0.0
H103 H 0.59857 0.49745 0.86895 0.0
H104 H 0.73594 0.69458 -0.00831 0.0
H105 H 0.69352 0.50784 0.92002 0.0
H106 H 0.81749 0.62121 0.11004 0.0
H107 H 0.74464 0.63451 0.05275 0.0
H108 H 0.81752 0.57268 0.94538 0.0
H109 H 0.88981 0.55787 0.00296 0.0
C110 C 0.65154 0.64506 0.93603 0.0
C111 C 0.61107 0.58913 0.9014 0.0
C112 C 0.70645 0.65142 0.96496 0.0
C113 C 0.72218 0.60195 0.96007 0.0
C114 C 0.68335 0.54735 0.92438 0.0
C115 C 0.62846 0.54104 0.89532 0.0
C116 C 0.81914 0.61168 0.07427 0.0
C117 C 0.85881 0.58752 0.06116 0.0
C118 C 0.77751 0.61967 0.04132 0.0
C119 C 0.77457 0.60378 -0.00555 0.0
C120 C 0.81778 0.58415 -0.01875 0.0
C121 C 0.85968 0.57631 0.01429 0.0
H122 H 0.41209 0.88486 0.41052 0.0
H123 H 0.43391 1.00411 0.30025 0.0
H124 H 0.30655 0.788 0.36533 0.0
H125 H 0.32884 0.90689 0.25506 0.0
H126 H 0.17284 0.68888 0.17476 0.0
H127 H 0.28254 0.78353 0.21777 0.0
H128 H 0.18792 0.76808 0.33668 0.0
H129 H 0.07847 0.6745 0.29393 0.0
C130 C 0.39477 0.89023 0.37653 0.0
C131 C 0.43116 0.95229 0.35908 0.0
C132 C 0.33426 0.83492 0.35079 0.0
C133 C 0.3096 0.84016 0.3068 0.0
C134 C 0.34697 0.90144 0.28878 0.0
C135 C 0.40684 0.95713 0.31479 0.0
C136 C 0.17549 0.70577 0.21005 0.0
C137 C 0.11688 0.6743 0.23086 0.0
C138 C 0.23815 0.75996 0.23457 0.0
C139 C 0.24362 0.78274 0.28056 0.0
C140 C 0.18523 0.75105 0.3014 0.0
C141 C 0.12247 0.69781 0.27675 0.0
H142 H 0.38449 0.23252 0.73844 0.0
H143 H 0.5036 0.41592 0.67809 0.0
H144 H 0.40477 0.1698 0.68089 0.0
H145 H 0.52386 0.35363 0.62132 0.0
H146 H 0.48219 0.21506 0.49614 0.0
H147 H 0.45076 0.26352 0.555 0.0
H148 H 0.50234 0.16511 0.65537 0.0
H149 H 0.53364 0.11566 0.59611 0.0
C150 C 0.41526 0.25951 0.71316 0.0
C151 C 0.44199 0.32911 0.71264 0.0
C152 C 0.42694 0.22362 0.68034 0.0
C153 C 0.46501 0.25664 0.64627 0.0
C154 C 0.49309 0.3265 0.64659 0.0
C155 C 0.48183 0.3623 0.67936 0.0
C156 C 0.48616 0.2029 0.53058 0.0
C157 C 0.51147 0.16227 0.54151 0.0
C158 C 0.46841 0.23099 0.56435 0.0
C159 C 0.47546 0.2192 0.6099 0.0
C160 C 0.49654 0.17511 0.6205 0.0
C161 C 0.51448 0.14688 0.58656 0.0
loop_
_geom_bond_atom_site_label_1
_geom_bond_atom_site_label_2
_geom_bond_distance
_geom_bond_site_symmetry_2
_ccdc_geom_bond_type
Mg0 O1 2.028 1_655 S
Mg0 O7 1.986 . S
Mg0 O9 2.114 . S
Mg0 O10 2.251 . S
Mg0 O13 2.010 1_655 S
O1 Mg0 2.028 1_455 S
O1 C4 1.250 . S
O2 Mg3 2.028 1_455 S
O2 C4 1.248 . S
Mg3 O2 2.028 1_655 S
Mg3 O8 2.032 . S
Mg3 O10 2.079 . S
C4 O1 1.250 . S
C4 O2 1.248 . S
C5 O6 1.264 . S
C5 O13 1.249 . S
O6 C5 1.264 . S
O7 Mg0 1.986 . S
O7 C11 1.246 . S
O8 Mg3 2.032 . S
O8 C11 1.259 . S
O9 Mg0 2.114 . S
O9 C12 1.252 . S
O10 Mg0 2.251 . S
O10 Mg3 2.079 . S
O10 C12 1.273 . S
C11 O7 1.246 . S
C11 O8 1.259 . S
C12 O9 1.252 . S
C12 O10 1.273 . S
O13 Mg0 2.010 1_455 S
O13 C5 1.249 . S
Mg14 O15 2.028 1_545 S
Mg14 O21 1.986 . S
Mg14 O23 2.114 . S
Mg14 O24 2.251 . S
Mg14 O27 2.010 1_545 S
O15 Mg14 2.028 1_565 S
O15 C18 1.250 . S
O16 Mg17 2.028 . S
O16 C18 1.248 1_545 S
Mg17 O16 2.028 . S
Mg17 O22 2.032 . S
Mg17 O24 2.079 . S
C18 O15 1.250 . S
C18 O16 1.248 1_565 S
C19 O20 1.264 . S
C19 O27 1.249 . S
O20 C19 1.264 . S
O21 Mg14 1.986 . S
O21 C25 1.246 . S
O22 Mg17 2.032 . S
O22 C25 1.259 . S
O23 Mg14 2.114 . S
O23 C26 1.252 . S
O24 Mg14 2.251 . S
O24 Mg17 2.079 . S
O24 C26 1.273 . S
C25 O21 1.246 . S
C25 O22 1.259 . S
C26 O23 1.252 . S
C26 O24 1.273 . S
O27 Mg14 2.010 1_565 S
O27 C19 1.249 . S
Mg28 O29 2.028 . S
Mg28 O35 1.986 . S
Mg28 O37 2.114 . S
Mg28 O38 2.251 . S
Mg28 O41 2.010 . S
O29 Mg28 2.028 . S
O29 C32 1.250 . S
O30 Mg31 2.028 . S
O30 C32 1.248 . S
Mg31 O30 2.028 . S
Mg31 O36 2.032 . S
Mg31 O38 2.079 . S
C32 O29 1.250 . S
C32 O30 1.248 . S
C33 O34 1.264 . S
C33 O41 1.249 . S
O34 C33 1.264 . S
O35 Mg28 1.986 . S
O35 C39 1.246 . S
O36 Mg31 2.032 . S
O36 C39 1.259 . S
O37 Mg28 2.114 . S
O37 C40 1.252 . S
O38 Mg28 2.251 . S
O38 Mg31 2.079 . S
O38 C40 1.273 . S
C39 O35 1.246 . S
C39 O36 1.259 . S
C40 O37 1.252 . S
C40 O38 1.273 . S
O41 Mg28 2.010 . S
O41 C33 1.249 . S
H42 C50 0.950 . S
H43 C55 0.950 . S
H44 C52 0.950 . S
H45 C54 0.950 . S
H46 C56 0.950 . S
H47 C58 0.950 . S
H48 C60 0.950 . S
H49 C61 0.950 . S
C50 H42 0.950 . S
C50 C51 1.386 . S
C50 C52 1.391 . S
C51 C50 1.386 . S
C51 C55 1.393 . S
C52 H44 0.950 . S
C52 C50 1.391 . S
C52 C53 1.400 . S
C53 C52 1.400 . S
C53 C54 1.398 . S
C53 C59 1.491 1_556 S
C54 H45 0.950 . S
C54 C53 1.398 . S
C54 C55 1.391 . S
C55 H43 0.950 . S
C55 C51 1.393 . S
C55 C54 1.391 . S
C56 H46 0.950 . S
C56 C57 1.386 . S
C56 C58 1.391 . S
C57 C56 1.386 . S
C57 C61 1.393 . S
C58 H47 0.950 . S
C58 C56 1.391 . S
C58 C59 1.400 . S
C59 C53 1.491 1_554 S
C59 C58 1.400 . S
C59 C60 1.398 . S
C60 H48 0.950 . S
C60 C59 1.398 . S
C60 C61 1.391 . S
C61 H49 0.950 . S
C61 C57 1.393 . S
C61 C60 1.391 . S
H62 C70 0.950 . S
H63 C75 0.950 . S
H64 C72 0.950 . S
H65 C74 0.950 . S
H66 C76 0.950 . S
H67 C78 0.950 . S
H68 C80 0.950 . S
H69 C81 0.950 . S
C70 H62 0.950 . S
C70 C71 1.386 . S
C70 C72 1.391 . S
C71 C70 1.386 . S
C71 C75 1.393 . S
C72 H64 0.950 . S
C72 C70 1.391 . S
C72 C73 1.400 . S
C73 C72 1.400 . S
C73 C74 1.398 . S
C73 C79 1.491 . S
C74 H65 0.950 . S
C74 C73 1.398 . S
C74 C75 1.391 . S
C75 H63 0.950 . S
C75 C71 1.393 . S
C75 C74 1.391 . S
C76 H66 0.950 . S
C76 C77 1.386 . S
C76 C78 1.391 . S
C77 C76 1.386 . S
C77 C81 1.393 . S
C78 H67 0.950 . S
C78 C76 1.391 . S
C78 C79 1.400 . S
C79 C73 1.491 . S
C79 C78 1.400 . S
C79 C80 1.398 . S
C80 H68 0.950 . S
C80 C79 1.398 . S
C80 C81 1.391 . S
C81 H69 0.950 . S
C81 C77 1.393 . S
C81 C80 1.391 . S
H82 C90 0.950 . S
H83 C95 0.950 . S
H84 C92 0.950 . S
H85 C94 0.950 . S
H86 C96 0.950 . S
H87 C98 0.950 . S
H88 C100 0.950 . S
H89 C101 0.950 . S
C90 H82 0.950 . S
C90 C91 1.386 . S
C90 C92 1.391 . S
C91 C90 1.386 . S
C91 C95 1.393 . S
C92 H84 0.950 . S
C92 C90 1.391 . S
C92 C93 1.400 . S
C93 C92 1.400 . S
C93 C94 1.398 . S
C93 C99 1.491 . S
C94 H85 0.950 . S
C94 C93 1.398 . S
C94 C95 1.391 . S
C95 H83 0.950 . S
C95 C91 1.393 . S
C95 C94 1.391 . S
C96 H86 0.950 . S
C96 C97 1.386 . S
C96 C98 1.391 . S
C97 C96 1.386 . S
C97 C101 1.393 . S
C98 H87 0.950 . S
C98 C96 1.391 . S
C98 C99 1.400 . S
C99 C93 1.491 . S
C99 C98 1.400 . S
C99 C100 1.398 . S
C100 H88 0.950 . S
C100 C99 1.398 . S
C100 C101 1.391 . S
C101 H89 0.950 . S
C101 C97 1.393 . S
C101 C100 1.391 . S
H102 C110 0.950 . S
H103 C115 0.950 . S
H104 C112 0.950 . S
H105 C114 0.950 1_554 S
H106 C116 0.950 . S
H107 C118 0.950 . S
H108 C120 0.950 1_556 S
H109 C121 0.950 . S
C110 H102 0.950 . S
C110 C111 1.386 . S
C110 C112 1.391 . S
C111 C110 1.386 . S
C111 C115 1.393 . S
C112 H104 0.950 . S
C112 C110 1.391 . S
C112 C113 1.400 . S
C113 C112 1.400 . S
C113 C114 1.398 . S
C113 C119 1.491 1_556 S
C114 H105 0.950 1_556 S
C114 C113 1.398 . S
C114 C115 1.391 . S
C115 H103 0.950 . S
C115 C111 1.393 . S
C115 C114 1.391 . S
C116 H106 0.950 . S
C116 C117 1.386 . S
C116 C118 1.391 . S
C117 C116 1.386 . S
C117 C121 1.393 . S
C118 H107 0.950 . S
C118 C116 1.391 . S
C118 C119 1.400 . S
C119 C113 1.491 1_554 S
C119 C118 1.400 . S
C119 C120 1.398 . S
C120 H108 0.950 1_554 S
C120 C119 1.398 . S
C120 C121 1.391 . S
C121 H109 0.950 . S
C121 C117 1.393 . S
C121 C120 1.391 . S
H122 C130 0.950 . S
H123 C135 0.950 . S
H124 C132 0.950 . S
H125 C134 0.950 . S
H126 C136 0.950 . S
H127 C138 0.950 . S
H128 C140 0.950 . S
H129 C141 0.950 . S
C130 H122 0.950 . S
C130 C131 1.386 . S
C130 C132 1.391 . S
C131 C130 1.386 . S
C131 C135 1.393 . S
C132 H124 0.950 . S
C132 C130 1.391 . S
C132 C133 1.400 . S
C133 C132 1.400 . S
C133 C134 1.398 . S
C133 C139 1.491 . S
C134 H125 0.950 . S
C134 C133 1.398 . S
C134 C135 1.391 . S
C135 H123 0.950 . S
C135 C131 1.393 . S
C135 C134 1.391 . S
C136 H126 0.950 . S
C136 C137 1.386 . S
C136 C138 1.391 . S
C137 C136 1.386 . S
C137 C141 1.393 . S
C138 H127 0.950 . S
C138 C136 1.391 . S
C138 C139 1.400 . S
C139 C133 1.491 . S
C139 C138 1.400 . S
C139 C140 1.398 . S
C140 H128 0.950 . S
C140 C139 1.398 . S
C140 C141 1.391 . S
C141 H129 0.950 . S
C141 C137 1.393 . S
C141 C140 1.391 . S
H142 C150 0.950 . S
H143 C155 0.950 . S
H144 C152 0.950 . S
H145 C154 0.950 . S
H146 C156 0.950 . S
H147 C158 0.950 . S
H148 C160 0.950 . S
H149 C161 0.950 . S
C150 H142 0.950 . S
C150 C151 1.386 . S
C150 C152 1.391 . S
C151 C150 1.386 . S
C151 C155 1.393 . S
C152 H144 0.950 . S
C152 C150 1.391 . S
C152 C153 1.400 . S
C153 C152 1.400 . S
C153 C154 1.398 . S
C153 C159 1.491 . S
C154 H145 0.950 . S
C154 C153 1.398 . S
C154 C155 1.391 . S
C155 H143 0.950 . S
C155 C151 1.393 . S
C155 C154 1.391 . S
C156 H146 0.950 . S
C156 C157 1.386 . S
C156 C158 1.391 . S
C157 C156 1.386 . S
C157 C161 1.393 . S
C158 H147 0.950 . S
C158 C156 1.391 . S
C158 C159 1.400 . S
C159 C153 1.491 . S
C159 C158 1.400 . S
C159 C160 1.398 . S
C160 H148 0.950 . S
C160 C159 1.398 . S
C160 C161 1.391 . S
C161 H149 0.950 . S
C161 C157 1.393 . S
C161 C160 1.391 . S
C51 C40 1.316 . S
C57 C5 1.146 . S
C71 C12 1.346 . S
C77 C26 1.344 . S
C91 C19 1.100 . S
C97 C39 1.218 . S
C111 C32 1.223 . S
C117 C11 1.236 . S
C131 C18 1.309 . S
C137 C4 1.312 . S
C151 C33 1.052 . S
C157 C25 1.213 . S
