# Generated by pormake.
# Topology lon, (4)-cn, num edge types: 1
# Building blocks:
#     Node 0, Type 0, BuildingBlock: NAHDIM_clean_sbu_0, # of connection points: 4
#     Node 1, Type 0, BuildingBlock: NAHDIM_clean_sbu_0, # of connection points: 4
#     Node 2, Type 0, BuildingBlock: NAHDIM_clean_sbu_0, # of connection points: 4
#     Node 3, Type 0, BuildingBlock: NAHDIM_clean_sbu_0, # of connection points: 4
#     Edge 4, Type (0, 0), BuildingBlock: AJUNOK_clean_linker_0, # of connection points: 2
#     Edge 5, Type (0, 0), BuildingBlock: AJUNOK_clean_linker_0, # of connection points: 2
#     Edge 6, Type (0, 0), BuildingBlock: AJUNOK_clean_linker_0, # of connection points: 2
#     Edge 7, Type (0, 0), BuildingBlock: AJUNOK_clean_linker_0, # of connection points: 2
#     Edge 8, Type (0, 0), BuildingBlock: AJUNOK_clean_linker_0, # of connection points: 2
#     Edge 9, Type (0, 0), BuildingBlock: AJUNOK_clean_linker_0, # of connection points: 2
#     Edge 10, Type (0, 0), BuildingBlock: AJUNOK_clean_linker_0, # of connection points: 2
#     Edge 11, Type (0, 0), BuildingBlock: AJUNOK_clean_linker_0, # of connection points: 2
# Relax obj value: 0.020
# Max RMSD: 0.060
# Mean RMSD: 0.060
data_MOF--net-lon--node1-NAHDIM_clean_sbu_0--edge1-AJUNOK_clean_linker_0
_symmetry_space_group_name_H-M    P1
_symmetry_Int_Tables_number       1
_symmetry_cell_setting            triclinic
loop_
_symmetry_equiv_pos_as_xyz
'x, y, z'
_cell_length_a     18.398076
_cell_length_b     18.118979
_cell_length_c     30.405731
_cell_angle_alpha  87.920232
_cell_angle_beta   89.637652
_cell_angle_gamma 120.01774
loop_
_atom_site_label
_atom_site_type_symbol
_atom_site_fract_x
_atom_site_fract_y
_atom_site_fract_z
_atom_type_partial_charge
C0 C 0.4057 0.59577 1.00273 0.0
O1 O 0.36761 0.62327 0.97603 0.0
O2 O 0.39977 0.78561 0.04584 0.0
Zn3 Zn 0.34007 0.66136 0.06678 0.0
O4 O 0.22197 0.60148 0.04384 0.0
C5 C 0.37854 0.70754 0.15864 0.0
O6 O 0.43403 0.78291 0.14154 0.0
O7 O 0.40286 0.60555 0.04374 0.0
C8 C 0.15922 0.58716 0.06807 0.0
O9 O 0.17198 0.61239 0.10868 0.0
C10 C 0.36459 0.83014 0.05015 0.0
O11 O 0.28954 0.79419 0.06906 0.0
O12 O 0.33382 0.6484 0.1331 0.0
C13 C 0.83965 0.45495 0.52249 0.0
O14 O 0.78533 0.47733 0.50926 0.0
O15 O 0.63075 0.38073 0.5583 0.0
Zn16 Zn 0.69524 0.31974 0.57155 0.0
O17 O 0.64454 0.20855 0.54134 0.0
C18 C 0.70469 0.35847 0.66195 0.0
O19 O 0.72004 0.43181 0.64361 0.0
O20 O 0.81524 0.39101 0.54934 0.0
C21 C 0.58523 0.13952 0.5587 0.0
O22 O 0.55482 0.14074 0.59769 0.0
C23 C 0.5869 0.36767 0.52426 0.0
O24 O 0.58246 0.31162 0.49661 0.0
O25 O 0.69273 0.29861 0.63718 0.0
C26 C 0.43362 0.57809 0.49047 0.0
O27 O 0.43744 0.63005 0.52057 0.0
O28 O 0.22702 0.58859 0.45784 0.0
Zn29 Zn 0.34966 0.65238 0.44099 0.0
O30 O 0.40331 0.75759 0.47639 0.0
C31 C 0.32845 0.62911 0.3481 0.0
O32 O 0.27859 0.54958 0.36208 0.0
O33 O 0.39953 0.57754 0.45419 0.0
C34 C 0.45926 0.83003 0.4605 0.0
O35 O 0.48638 0.83654 0.41968 0.0
C36 C 0.18595 0.62778 0.45529 0.0
O37 O 0.22471 0.70763 0.44028 0.0
O38 O 0.36541 0.68537 0.37626 0.0
C39 C 0.81563 0.419 0.00589 0.0
O40 O 0.7549 0.40861 0.03294 0.0
O41 O 0.61293 0.21751 0.96653 0.0
Zn42 Zn 0.67985 0.34169 0.94489 0.0
O43 O 0.62509 0.40794 0.9658 0.0
C44 C 0.68254 0.29711 0.85274 0.0
O45 O 0.67108 0.2239 0.86925 0.0
O46 O 0.79781 0.39444 0.96684 0.0
C47 C 0.57593 0.41876 0.94057 0.0
O48 O 0.5608 0.38522 0.90179 0.0
C49 C 0.54 0.18609 0.98426 0.0
O50 O 0.50709 0.23535 0.98798 0.0
O51 O 0.68792 0.35287 0.87868 0.0
C52 C 0.30855 0.60838 0.22431 0.0
C53 C 0.36733 0.69054 0.20714 0.0
C54 C 0.2964 0.58956 0.26975 0.0
C55 C 0.34228 0.65207 0.30015 0.0
H56 H 0.27141 0.55761 0.20251 0.0
H57 H 0.25048 0.52518 0.28101 0.0
S58 S 0.50375 0.87776 0.27262 0.0
N59 N 0.47188 0.83542 0.2244 0.0
N60 N 0.44895 0.80013 0.30979 0.0
C61 C 0.40107 0.73479 0.28355 0.0
C62 C 0.41362 0.75396 0.23713 0.0
C63 C 0.68958 0.26821 0.72973 0.0
C64 C 0.70001 0.34504 0.71065 0.0
C65 C 0.68419 0.25341 0.77555 0.0
C66 C 0.68882 0.31472 0.80429 0.0
H67 H 0.68555 0.21879 0.70916 0.0
H68 H 0.67623 0.19322 0.78844 0.0
S69 S 0.7147 0.52635 0.7712 0.0
N70 N 0.71407 0.48312 0.72428 0.0
N71 N 0.70381 0.45543 0.81012 0.0
C72 C 0.69911 0.39189 0.78565 0.0
C73 C 0.70475 0.40701 0.73898 0.0
C74 C 0.49258 0.52587 0.01479 0.0
C75 C 0.45017 0.55264 0.98564 0.0
C76 C 0.53382 0.48367 0.99988 0.0
C77 C 0.53401 0.46594 0.95523 0.0
H78 H 0.49381 0.53718 0.04958 0.0
H79 H 0.56484 0.46383 0.02376 0.0
S80 S 0.43523 0.52526 0.86489 0.0
N81 N 0.41313 0.56023 0.90953 0.0
N82 N 0.49031 0.48092 0.88163 0.0
C83 C 0.49274 0.49317 0.92557 0.0
C84 C 0.451 0.53649 0.94073 0.0
C85 C 0.06202 0.50598 0.49486 0.0
C86 C 0.09712 0.58513 0.47128 0.0
C87 C 0.97921 0.46503 0.51153 0.0
C88 C 0.92759 0.50106 0.50502 0.0
H89 H 0.09894 0.47538 0.50094 0.0
H90 H 0.95545 0.40419 0.52942 0.0
S91 S 0.98876 0.70726 0.44529 0.0
N92 N 0.07349 0.69811 0.44217 0.0
N93 N 0.91772 0.62092 0.47329 0.0
C94 C 0.96162 0.58005 0.48132 0.0
C95 C 0.04632 0.62212 0.46454 0.0
C96 C 0.5299 0.04362 0.9974 0.0
C97 C 0.49348 0.09551 1.00113 0.0
C98 C 0.48792 0.9583 0.01335 0.0
C99 C 0.4076 0.92099 0.03376 0.0
H100 H 0.59159 0.06896 0.98205 0.0
H101 H 0.51897 0.9214 0.00958 0.0
S102 S 0.28397 0.02895 0.05176 0.0
N103 N 0.37171 0.10286 0.02683 0.0
N104 N 0.29309 0.94298 0.05673 0.0
C105 C 0.37029 0.97207 0.0377 0.0
C106 C 0.41306 0.05904 0.02143 0.0
C107 C 0.55663 0.48304 0.54352 0.0
C108 C 0.54491 0.41835 0.5152 0.0
C109 C 0.51993 0.53364 0.53539 0.0
C110 C 0.47005 0.522 0.49854 0.0
H111 H 0.59513 0.49545 0.57216 0.0
H112 H 0.53168 0.58293 0.55807 0.0
S113 S 0.41634 0.35886 0.41507 0.0
N114 N 0.47728 0.34369 0.44939 0.0
N115 N 0.40853 0.43884 0.43408 0.0
C116 C 0.45679 0.45683 0.47018 0.0
C117 C 0.49408 0.40506 0.47852 0.0
C118 C 0.00487 0.53042 0.07843 0.0
C119 C 0.07261 0.54333 0.05104 0.0
C120 C 0.92241 0.48992 0.06358 0.0
C121 C 0.90386 0.46046 0.02063 0.0
H122 H 0.01531 0.55196 0.11177 0.0
H123 H 0.87292 0.48208 0.08608 0.0
S124 S 0.05828 0.47719 0.93571 0.0
N125 N 0.11534 0.5224 0.97878 0.0
N126 N 0.96053 0.44634 0.95084 0.0
C127 C 0.97092 0.47247 0.99284 0.0
C128 C 0.0551 0.51383 0.00802 0.0
C129 C 0.58396 0.06077 0.49253 0.0
C130 C 0.55191 0.05911 0.53496 0.0
C131 C 0.55413 0.98643 0.46904 0.0
C132 C 0.49099 0.90703 0.48695 0.0
H133 H 0.63252 0.12012 0.47702 0.0
H134 H 0.58084 0.99164 0.43645 0.0
S135 S 0.38603 0.86729 0.59711 0.0
N136 N 0.45348 0.9708 0.59412 0.0
N137 N 0.39742 0.8311 0.55005 0.0
C138 C 0.45852 0.90415 0.5295 0.0
C139 C 0.48888 0.98008 0.55344 0.0
loop_
_geom_bond_atom_site_label_1
_geom_bond_atom_site_label_2
_geom_bond_distance
_geom_bond_site_symmetry_2
_ccdc_geom_bond_type
C0 O1 1.160 1_554 S
C0 O7 1.185 . S
O1 C0 1.160 1_556 S
O2 Zn3 1.899 . S
O2 C10 1.284 . S
Zn3 O2 1.899 . S
Zn3 O4 2.032 . S
Zn3 O7 2.086 . S
Zn3 O12 1.977 . S
O4 Zn3 2.032 . S
O4 C8 1.278 . S
C5 O6 1.203 . S
C5 O12 1.267 . S
O6 C5 1.203 . S
O7 C0 1.185 . S
O7 Zn3 2.086 . S
C8 O4 1.278 . S
C8 O9 1.211 . S
O9 C8 1.211 . S
C10 O2 1.284 . S
C10 O11 1.273 . S
O11 C10 1.273 . S
O12 Zn3 1.977 . S
O12 C5 1.267 . S
C13 O14 1.160 . S
C13 O20 1.185 . S
O14 C13 1.160 . S
O15 Zn16 1.899 . S
O15 C23 1.284 . S
Zn16 O15 1.899 . S
Zn16 O17 2.032 . S
Zn16 O20 2.086 . S
Zn16 O25 1.977 . S
O17 Zn16 2.032 . S
O17 C21 1.278 . S
C18 O19 1.203 . S
C18 O25 1.267 . S
O19 C18 1.203 . S
O20 C13 1.185 . S
O20 Zn16 2.086 . S
C21 O17 1.278 . S
C21 O22 1.211 . S
O22 C21 1.211 . S
C23 O15 1.284 . S
C23 O24 1.273 . S
O24 C23 1.273 . S
O25 Zn16 1.977 . S
O25 C18 1.267 . S
C26 O27 1.160 . S
C26 O33 1.185 . S
O27 C26 1.160 . S
O28 Zn29 1.899 . S
O28 C36 1.284 . S
Zn29 O28 1.899 . S
Zn29 O30 2.032 . S
Zn29 O33 2.086 . S
Zn29 O38 1.977 . S
O30 Zn29 2.032 . S
O30 C34 1.278 . S
C31 O32 1.203 . S
C31 O38 1.267 . S
O32 C31 1.203 . S
O33 C26 1.185 . S
O33 Zn29 2.086 . S
C34 O30 1.278 . S
C34 O35 1.211 . S
O35 C34 1.211 . S
C36 O28 1.284 . S
C36 O37 1.273 . S
O37 C36 1.273 . S
O38 Zn29 1.977 . S
O38 C31 1.267 . S
C39 O40 1.160 1_556 S
C39 O46 1.185 . S
O40 C39 1.160 1_554 S
O41 Zn42 1.899 . S
O41 C49 1.284 . S
Zn42 O41 1.899 . S
Zn42 O43 2.032 . S
Zn42 O46 2.086 . S
Zn42 O51 1.977 . S
O43 Zn42 2.032 . S
O43 C47 1.278 . S
C44 O45 1.203 . S
C44 O51 1.267 . S
O45 C44 1.203 . S
O46 C39 1.185 . S
O46 Zn42 2.086 . S
C47 O43 1.278 . S
C47 O48 1.211 . S
O48 C47 1.211 . S
C49 O41 1.284 . S
C49 O50 1.273 . S
O50 C49 1.273 . S
O51 Zn42 1.977 . S
O51 C44 1.267 . S
C52 C53 1.369 . S
C52 C54 1.419 . S
C52 H56 0.930 . S
C53 C52 1.369 . S
C53 C62 1.429 . S
C54 C52 1.419 . S
C54 C55 1.363 . S
C54 H57 0.929 . S
C55 C54 1.363 . S
C55 C61 1.428 . S
H56 C52 0.930 . S
H57 C54 0.929 . S
S58 N59 1.613 . S
S58 N60 1.610 . S
N59 S58 1.613 . S
N59 C62 1.350 . S
N60 S58 1.610 . S
N60 C61 1.351 . S
C61 C55 1.428 . S
C61 N60 1.351 . S
C61 C62 1.434 . S
C62 C53 1.429 . S
C62 N59 1.350 . S
C62 C61 1.434 . S
C63 C64 1.369 . S
C63 C65 1.419 . S
C63 H67 0.930 . S
C64 C63 1.369 . S
C64 C73 1.429 . S
C65 C63 1.419 . S
C65 C66 1.363 . S
C65 H68 0.929 . S
C66 C65 1.363 . S
C66 C72 1.428 . S
H67 C63 0.930 . S
H68 C65 0.929 . S
S69 N70 1.613 . S
S69 N71 1.610 . S
N70 S69 1.613 . S
N70 C73 1.350 . S
N71 S69 1.610 . S
N71 C72 1.351 . S
C72 C66 1.428 . S
C72 N71 1.351 . S
C72 C73 1.434 . S
C73 C64 1.429 . S
C73 N70 1.350 . S
C73 C72 1.434 . S
C74 C75 1.369 . S
C74 C76 1.419 . S
C74 H78 0.930 . S
C75 C74 1.369 . S
C75 C84 1.429 1_554 S
C76 C74 1.419 . S
C76 C77 1.363 1_554 S
C76 H79 0.929 . S
C77 C76 1.363 1_556 S
C77 C83 1.428 . S
H78 C74 0.930 . S
H79 C76 0.929 . S
S80 N81 1.613 . S
S80 N82 1.610 . S
N81 S80 1.613 . S
N81 C84 1.350 . S
N82 S80 1.610 . S
N82 C83 1.351 . S
C83 C77 1.428 . S
C83 N82 1.351 . S
C83 C84 1.434 . S
C84 C75 1.429 1_556 S
C84 N81 1.350 . S
C84 C83 1.434 . S
C85 C86 1.369 . S
C85 C87 1.419 1_455 S
C85 H89 0.930 . S
C86 C85 1.369 . S
C86 C95 1.429 . S
C87 C85 1.419 1_655 S
C87 C88 1.363 . S
C87 H90 0.929 . S
C88 C87 1.363 . S
C88 C94 1.428 . S
H89 C85 0.930 . S
H90 C87 0.929 . S
S91 N92 1.613 . S
S91 N93 1.610 1_455 S
N92 S91 1.613 . S
N92 C95 1.350 . S
N93 S91 1.610 1_655 S
N93 C94 1.351 . S
C94 C88 1.428 . S
C94 N93 1.351 . S
C94 C95 1.434 1_655 S
C95 C86 1.429 . S
C95 N92 1.350 . S
C95 C94 1.434 1_455 S
C96 C97 1.369 . S
C96 C98 1.419 1_545 S
C96 H100 0.930 . S
C97 C96 1.369 . S
C97 C106 1.429 1_556 S
C98 C96 1.419 1_565 S
C98 C99 1.363 1_556 S
C98 H101 0.929 . S
C99 C98 1.363 1_554 S
C99 C105 1.428 . S
H100 C96 0.930 . S
H101 C98 0.929 . S
S102 N103 1.613 . S
S102 N104 1.610 1_545 S
N103 S102 1.613 . S
N103 C106 1.350 . S
N104 S102 1.610 1_565 S
N104 C105 1.351 . S
C105 C99 1.428 . S
C105 N104 1.351 . S
C105 C106 1.434 1_565 S
C106 C97 1.429 1_554 S
C106 N103 1.350 . S
C106 C105 1.434 1_545 S
C107 C108 1.369 . S
C107 C109 1.419 . S
C107 H111 0.930 . S
C108 C107 1.369 . S
C108 C117 1.429 . S
C109 C107 1.419 . S
C109 C110 1.363 . S
C109 H112 0.929 . S
C110 C109 1.363 . S
C110 C116 1.428 . S
H111 C107 0.930 . S
H112 C109 0.929 . S
S113 N114 1.613 . S
S113 N115 1.610 . S
N114 S113 1.613 . S
N114 C117 1.350 . S
N115 S113 1.610 . S
N115 C116 1.351 . S
C116 C110 1.428 . S
C116 N115 1.351 . S
C116 C117 1.434 . S
C117 C108 1.429 . S
C117 N114 1.350 . S
C117 C116 1.434 . S
C118 C119 1.369 . S
C118 C120 1.419 1_455 S
C118 H122 0.930 . S
C119 C118 1.369 . S
C119 C128 1.429 1_554 S
C120 C118 1.419 1_655 S
C120 C121 1.363 1_554 S
C120 H123 0.929 . S
C121 C120 1.363 1_556 S
C121 C127 1.428 . S
H122 C118 0.930 . S
H123 C120 0.929 . S
S124 N125 1.613 . S
S124 N126 1.610 1_455 S
N125 S124 1.613 . S
N125 C128 1.350 . S
N126 S124 1.610 1_655 S
N126 C127 1.351 . S
C127 C121 1.428 . S
C127 N126 1.351 . S
C127 C128 1.434 1_655 S
C128 C119 1.429 1_556 S
C128 N125 1.350 . S
C128 C127 1.434 1_455 S
C129 C130 1.369 . S
C129 C131 1.419 1_545 S
C129 H133 0.930 . S
C130 C129 1.369 . S
C130 C139 1.429 . S
C131 C129 1.419 1_565 S
C131 C132 1.363 . S
C131 H134 0.929 . S
C132 C131 1.363 . S
C132 C138 1.428 . S
H133 C129 0.930 . S
H134 C131 0.929 . S
S135 N136 1.613 1_565 S
S135 N137 1.610 . S
N136 S135 1.613 1_545 S
N136 C139 1.350 . S
N137 S135 1.610 . S
N137 C138 1.351 . S
C138 C132 1.428 . S
C138 N137 1.351 . S
C138 C139 1.434 1_565 S
C139 C130 1.429 . S
C139 N136 1.350 . S
C139 C138 1.434 1_545 S
C53 C5 1.500 . S
C55 C31 1.500 . S
C64 C18 1.498 . S
C66 C44 1.502 . S
C75 C0 1.509 . S
C77 C47 1.505 . S
C86 C36 1.468 . S
C88 C13 1.438 . S
C97 C49 1.420 . S
C99 C10 1.422 . S
C108 C23 1.468 . S
C110 C26 1.439 . S
C119 C8 1.511 . S
C121 C39 1.509 . S
C130 C21 1.545 . S
C132 C34 1.550 . S
