# Generated by pormake.
# Topology pcu, (6)-cn, num edge types: 1
# Building blocks:
#     Node 0, Type 0, BuildingBlock: PAMTUU_clean_sbu_0, # of connection points: 6
#     Edge 1, Type (0, 0), BuildingBlock: UVAHIK_clean_linker_0, # of connection points: 2
#     Edge 2, Type (0, 0), BuildingBlock: UVAHIK_clean_linker_0, # of connection points: 2
#     Edge 3, Type (0, 0), BuildingBlock: UVAHIK_clean_linker_0, # of connection points: 2
# Relax obj value: 0.000
# Max RMSD: 0.000
# Mean RMSD: 0.000
data_MOF--net-pcu--node1-PAMTUU_clean_sbu_0--edge1-UVAHIK_clean_linker_0
_symmetry_space_group_name_H-M    P1
_symmetry_Int_Tables_number       1
_symmetry_cell_setting            triclinic
loop_
_symmetry_equiv_pos_as_xyz
'x, y, z'
_cell_length_a     30.019746
_cell_length_b     19.801774
_cell_length_c     19.625881
_cell_angle_alpha  83.692725
_cell_angle_beta   97.496398
_cell_angle_gamma 117.64744
loop_
_atom_site_label
_atom_site_type_symbol
_atom_site_fract_x
_atom_site_fract_y
_atom_site_fract_z
_atom_type_partial_charge
Tb0 Tb 0.0836 0.03088 0.9861 0.0
Tb1 Tb 0.95792 0.94301 0.97126 0.0
C2 C 1.02081 0.981 0.11343 0.0
C3 C 0.22016 0.07336 0.00613 0.0
C4 C 0.30233 0.03921 0.01719 0.0
C5 C 0.30929 0.11041 0.03556 0.0
C6 C 0.26856 0.12729 0.02992 0.0
C7 C 0.21257 0.00121 -0.00996 0.0
C8 C 0.25333 0.98433 -0.00461 0.0
C9 C 0.17913 0.09543 -0.00632 0.0
O10 O 0.06284 0.91274 0.97036 0.0
O11 O 0.98029 0.85296 -0.00159 0.0
O12 O 0.98402 0.93579 0.87579 0.0
O13 O 0.0562 0.04839 0.88103 0.0
O14 O 0.88908 0.86848 0.01178 0.0
O15 O 0.89088 0.92058 0.90886 0.0
O16 O 0.97916 0.06417 0.95391 0.0
O17 O 0.06226 0.11869 0.00036 0.0
O18 O 0.05876 0.98076 0.08699 0.0
O19 O 0.98242 0.98308 0.07442 0.0
C20 C 0.02168 0.85099 0.98597 0.0
O21 O 0.15 0.07336 0.93692 0.0
O22 O 0.15333 0.08645 0.04534 0.0
C23 C 1.02032 -0.00654 0.84539 0.0
C24 C 0.82084 0.89377 0.96814 0.0
C25 C 0.73936 0.92377 0.9815 0.0
C26 C 0.73077 0.85367 0.95819 0.0
C27 C 0.77114 0.83893 0.95156 0.0
C28 C 0.82989 0.96346 -0.00752 0.0
C29 C 0.7894 0.9783 -0.00071 0.0
C30 C 0.86247 0.878 0.957 0.0
C31 C 1.02054 0.12311 0.97698 0.0
H32 H 0.34655 0.15421 0.05182 0.0
H33 H 0.27515 0.18337 0.04231 0.0
H34 H 0.17541 0.95867 0.97171 0.0
H35 H 0.24659 0.92863 0.98173 0.0
H36 H 0.69274 0.80999 0.94515 0.0
H37 H 0.76355 0.78481 0.93276 0.0
H38 H 0.86817 0.00659 0.00526 0.0
H39 H 0.7973 0.03304 0.01688 0.0
C40 C 0.97667 0.95783 0.21948 0.0
C41 C 0.02161 0.9806 0.18891 0.0
C42 C 0.97736 0.95945 0.29057 0.0
C43 C 0.05834 0.97389 0.45508 0.0
H44 H 0.96303 0.02487 0.52428 0.0
C45 C 0.0666 0.03865 0.73916 0.0
C46 C 1.02123 -0.00443 0.77012 0.0
C47 C 0.06764 0.03816 0.66819 0.0
C48 C 0.98971 0.01033 0.50556 0.0
H49 H 0.10262 0.02325 0.20871 0.0
H50 H 0.10423 0.02897 0.33242 0.0
H51 H 0.96362 0.02222 0.40059 0.0
H52 H 0.94127 0.91951 0.75108 0.0
H53 H 0.94296 0.9204 0.62677 0.0
H54 H 0.08524 0.96447 0.56071 0.0
C55 C 0.06813 0.00765 0.30198 0.0
C56 C 0.9899 0.00822 0.4347 0.0
C57 C 0.0673 0.00476 0.23091 0.0
C58 C 0.97681 0.95308 0.72866 0.0
C59 C 0.97769 0.95381 0.65759 0.0
C60 C 0.05868 0.97732 0.52594 0.0
C61 C 0.02316 0.98524 0.3328 0.0
C62 C 0.02389 -0.01076 0.40842 0.0
C63 C 0.02316 -0.00415 0.62683 0.0
C64 C 0.02408 -0.00508 0.55176 0.0
H65 H 0.94078 0.93818 0.18851 0.0
H66 H 0.94179 0.93994 0.31235 0.0
H67 H 0.08451 0.95781 0.43712 0.0
H68 H 0.10146 0.07163 0.76991 0.0
H69 H 0.10311 0.07131 0.6455 0.0
C70 C 0.38559 0.04799 0.07087 0.0
C71 C 0.34648 0.02406 0.01734 0.0
C72 C 0.42843 0.03767 0.06873 0.0
C73 C 0.50138 0.01034 0.94624 0.0
H74 H 0.56188 0.94402 0.10929 0.0
C75 C 0.65613 0.91835 0.93363 0.0
C76 C 0.69611 0.93983 0.98598 0.0
C77 C 0.61467 0.93119 0.93824 0.0
C78 C 0.54585 0.96357 0.06349 0.0
H79 H 0.3217 0.97008 0.91975 0.0
H80 H 0.39596 0.95099 0.91656 0.0
H81 H 0.48652 0.95933 0.11658 0.0
H82 H 0.72394 -0.0077 0.0841 0.0
H83 H 0.6517 0.01578 0.09175 0.0
H84 H 0.56055 0.01455 0.89308 0.0
C85 C 0.39375 0.97842 0.95992 0.0
C86 C 0.5026 0.97222 0.06765 0.0
C87 C 0.35087 -0.01152 0.96219 0.0
C88 C 0.69391 0.97546 0.04272 0.0
C89 C 0.65227 -0.01183 0.04743 0.0
C90 C 0.5446 0.00178 0.9421 0.0
C91 C 0.43327 0.00351 0.01283 0.0
C92 C 0.47966 -0.00477 0.00895 0.0
C93 C 0.61207 0.96591 -0.00467 0.0
C94 C 0.56719 0.97781 0.00054 0.0
H95 H 0.38317 0.07501 0.11438 0.0
H96 H 0.4583 0.05805 0.11012 0.0
H97 H 0.48527 0.02962 0.90035 0.0
H98 H 0.65693 0.8917 0.88877 0.0
H99 H 0.5842 0.91265 0.89749 0.0
C100 C 0.06695 0.77134 -0.0112 0.0
C101 C 0.02154 0.77589 -0.01191 0.0
C102 C 0.06669 0.70055 -0.01087 0.0
C103 C 0.98636 0.49225 0.02259 0.0
H104 H 0.08016 0.47505 0.91566 0.0
C105 C 0.97439 0.20233 0.96805 0.0
C106 C 1.02013 0.19756 0.97745 0.0
C107 C 0.97419 0.27258 0.96997 0.0
C108 C 0.054 0.47913 0.94615 0.0
H109 H 0.94018 0.70941 0.98718 0.0
H110 H 0.93961 0.58628 0.98599 0.0
H111 H 0.0805 0.59801 0.91824 0.0
H112 H 0.10152 0.26311 -0.00428 0.0
H113 H 0.10103 0.38551 -0.00161 0.0
H114 H 0.95936 0.37269 0.04931 0.0
C115 C 0.97559 0.63722 0.98785 0.0
C116 C 0.05429 0.54967 0.94791 0.0
C117 C 0.9759 0.70798 -0.01183 0.0
C118 C 0.06561 0.26466 -0.01169 0.0
C119 C 0.06541 0.33491 -0.01051 0.0
C120 C 0.98578 0.42152 0.02029 0.0
C121 C 1.02097 0.63256 -0.01191 0.0
C122 C 1.02059 0.55727 0.98634 0.0
C123 C 1.01972 0.3396 0.98053 0.0
C124 C 1.01971 0.41432 0.98223 0.0
H125 H 0.10283 0.82246 -0.01059 0.0
H126 H 0.10246 0.69919 -0.00931 0.0
H127 H 0.96042 0.4961 0.05364 0.0
H128 H 0.93867 0.15172 0.95984 0.0
H129 H 0.93843 0.27463 0.9624 0.0
loop_
_geom_bond_atom_site_label_1
_geom_bond_atom_site_label_2
_geom_bond_distance
_geom_bond_site_symmetry_2
_ccdc_geom_bond_type
Tb0 C9 2.764 . S
Tb0 O10 2.325 1_545 S
Tb0 O13 2.303 1_554 S
Tb0 O17 2.322 . S
Tb0 O18 2.349 . S
Tb0 O21 2.415 1_554 S
Tb0 O22 2.399 . S
Tb1 O11 2.322 . S
Tb1 O12 2.349 . S
Tb1 O14 2.415 1_556 S
Tb1 O15 2.399 . S
Tb1 O16 2.325 1_565 S
Tb1 O19 2.303 1_556 S
Tb1 C30 2.764 . S
C2 O18 1.261 . S
C2 O19 1.257 1_445 S
C3 C6 1.358 . S
C3 C7 1.332 1_544 S
C3 C9 1.504 . S
C4 C5 1.373 1_566 S
C4 C8 1.308 . S
C5 C4 1.373 1_544 S
C5 C6 1.429 . S
C5 H32 0.932 . S
C6 C3 1.358 . S
C6 C5 1.429 . S
C6 H33 0.930 . S
C7 C3 1.332 1_566 S
C7 C8 1.394 . S
C7 H34 0.932 . S
C8 C4 1.308 . S
C8 C7 1.394 . S
C8 H35 0.929 . S
C9 Tb0 2.764 . S
C9 C3 1.504 . S
C9 O21 1.239 1_554 S
C9 O22 1.263 . S
O10 Tb0 2.325 1_565 S
O10 C20 1.232 1_455 S
O11 Tb1 2.322 . S
O11 C20 1.265 1_556 S
O12 Tb1 2.349 . S
O12 C23 1.261 . S
O13 Tb0 2.303 1_556 S
O13 C23 1.257 1_445 S
O14 Tb1 2.415 1_554 S
O14 C30 1.239 1_554 S
O15 Tb1 2.399 . S
O15 C30 1.263 . S
O16 Tb1 2.325 1_545 S
O16 C31 1.229 1_655 S
O17 Tb0 2.322 . S
O17 C31 1.271 1_554 S
O18 Tb0 2.349 . S
O18 C2 1.261 . S
O19 Tb1 2.303 1_554 S
O19 C2 1.257 1_665 S
C20 O10 1.232 1_655 S
C20 O11 1.265 1_554 S
O21 Tb0 2.415 1_556 S
O21 C9 1.239 1_556 S
O22 Tb0 2.399 . S
O22 C9 1.263 . S
C23 O12 1.261 . S
C23 O13 1.257 1_665 S
C24 C27 1.358 . S
C24 C28 1.332 1_566 S
C24 C30 1.504 . S
C25 C26 1.373 1_544 S
C25 C29 1.308 . S
C26 C25 1.373 1_566 S
C26 C27 1.429 . S
C26 H36 0.932 . S
C27 C24 1.358 . S
C27 C26 1.429 . S
C27 H37 0.930 . S
C28 C24 1.332 1_544 S
C28 C29 1.394 . S
C28 H38 0.932 . S
C29 C25 1.308 . S
C29 C28 1.394 . S
C29 H39 0.929 . S
C30 Tb1 2.764 . S
C30 O14 1.239 1_556 S
C30 O15 1.263 . S
C30 C24 1.504 . S
C31 O16 1.229 1_455 S
C31 O17 1.271 1_556 S
H32 C5 0.932 . S
H33 C6 0.930 . S
H34 C7 0.932 . S
H35 C8 0.929 . S
H36 C26 0.932 . S
H37 C27 0.930 . S
H38 C28 0.932 . S
H39 C29 0.929 . S
C40 C41 1.349 1_655 S
C40 C42 1.327 . S
C40 H65 0.950 . S
C41 C40 1.349 1_455 S
C41 C57 1.349 1_545 S
C42 C40 1.327 . S
C42 C61 1.429 1_655 S
C42 H66 0.950 . S
C43 C60 1.574 . S
C43 C62 1.368 1_565 S
C43 H67 0.949 . S
H44 C48 0.949 . S
C45 C46 1.349 1_565 S
C45 C47 1.327 . S
C45 H68 0.950 . S
C46 C45 1.349 1_545 S
C46 C58 1.349 1_455 S
C47 C45 1.327 . S
C47 C63 1.429 1_565 S
C47 H69 0.950 . S
C48 H44 0.949 . S
C48 C56 1.574 . S
C48 C64 1.368 1_655 S
H49 C57 0.950 . S
H50 C55 0.950 . S
H51 C56 0.949 . S
H52 C58 0.950 . S
H53 C59 0.950 . S
H54 C60 0.949 . S
C55 H50 0.950 . S
C55 C57 1.327 . S
C55 C61 1.429 1_565 S
C56 C48 1.574 . S
C56 H51 0.949 . S
C56 C62 1.368 1_655 S
C57 C41 1.349 1_565 S
C57 H49 0.950 . S
C57 C55 1.327 . S
C58 C46 1.349 1_655 S
C58 H52 0.950 . S
C58 C59 1.327 . S
C59 H53 0.950 . S
C59 C58 1.327 . S
C59 C63 1.429 1_655 S
C60 C43 1.574 . S
C60 H54 0.949 . S
C60 C64 1.368 1_565 S
C61 C42 1.429 1_455 S
C61 C55 1.429 1_545 S
C61 C62 1.523 . S
C62 C43 1.368 1_545 S
C62 C56 1.368 1_455 S
C62 C61 1.523 . S
C63 C47 1.429 1_545 S
C63 C59 1.429 1_455 S
C63 C64 1.523 . S
C64 C48 1.368 1_455 S
C64 C60 1.368 1_545 S
C64 C63 1.523 . S
H65 C40 0.950 . S
H66 C42 0.950 . S
H67 C43 0.949 . S
H68 C45 0.950 . S
H69 C47 0.950 . S
C70 C71 1.349 1_565 S
C70 C72 1.327 . S
C70 H95 0.950 . S
C71 C70 1.349 1_545 S
C71 C87 1.349 1_554 S
C72 C70 1.327 . S
C72 C91 1.429 1_565 S
C72 H96 0.950 . S
C73 C90 1.574 . S
C73 C92 1.368 1_556 S
C73 H97 0.949 . S
H74 C78 0.949 . S
C75 C76 1.349 1_556 S
C75 C77 1.327 . S
C75 H98 0.950 . S
C76 C75 1.349 1_554 S
C76 C88 1.349 1_545 S
C77 C75 1.327 . S
C77 C93 1.429 1_556 S
C77 H99 0.950 . S
C78 H74 0.949 . S
C78 C86 1.574 . S
C78 C94 1.368 1_565 S
H79 C87 0.950 . S
H80 C85 0.950 . S
H81 C86 0.949 . S
H82 C88 0.950 . S
H83 C89 0.950 . S
H84 C90 0.949 . S
C85 H80 0.950 . S
C85 C87 1.327 . S
C85 C91 1.429 1_556 S
C86 C78 1.574 . S
C86 H81 0.949 . S
C86 C92 1.368 1_565 S
C87 C71 1.349 1_556 S
C87 H79 0.950 . S
C87 C85 1.327 . S
C88 C76 1.349 1_565 S
C88 H82 0.950 . S
C88 C89 1.327 . S
C89 H83 0.950 . S
C89 C88 1.327 . S
C89 C93 1.429 1_565 S
C90 C73 1.574 . S
C90 H84 0.949 . S
C90 C94 1.368 1_556 S
C91 C72 1.429 1_545 S
C91 C85 1.429 1_554 S
C91 C92 1.523 . S
C92 C73 1.368 1_554 S
C92 C86 1.368 1_545 S
C92 C91 1.523 . S
C93 C77 1.429 1_554 S
C93 C89 1.429 1_545 S
C93 C94 1.523 . S
C94 C78 1.368 1_545 S
C94 C90 1.368 1_554 S
C94 C93 1.523 . S
H95 C70 0.950 . S
H96 C72 0.950 . S
H97 C73 0.949 . S
H98 C75 0.950 . S
H99 C77 0.950 . S
C100 C101 1.349 1_556 S
C100 C102 1.327 . S
C100 H125 0.950 . S
C101 C100 1.349 1_554 S
C101 C117 1.349 1_455 S
C102 C100 1.327 . S
C102 C121 1.429 1_556 S
C102 H126 0.950 . S
C103 C120 1.574 . S
C103 C122 1.368 1_655 S
C103 H127 0.949 . S
H104 C108 0.949 . S
C105 C106 1.349 1_655 S
C105 C107 1.327 . S
C105 H128 0.950 . S
C106 C105 1.349 1_455 S
C106 C118 1.349 1_554 S
C107 C105 1.327 . S
C107 C123 1.429 1_655 S
C107 H129 0.950 . S
C108 H104 0.949 . S
C108 C116 1.574 . S
C108 C124 1.368 1_556 S
H109 C117 0.950 . S
H110 C115 0.950 . S
H111 C116 0.949 . S
H112 C118 0.950 . S
H113 C119 0.950 . S
H114 C120 0.949 . S
C115 H110 0.950 . S
C115 C117 1.327 . S
C115 C121 1.429 1_655 S
C116 C108 1.574 . S
C116 H111 0.949 . S
C116 C122 1.368 1_556 S
C117 C101 1.349 1_655 S
C117 H109 0.950 . S
C117 C115 1.327 . S
C118 C106 1.349 1_556 S
C118 H112 0.950 . S
C118 C119 1.327 . S
C119 H113 0.950 . S
C119 C118 1.327 . S
C119 C123 1.429 1_556 S
C120 C103 1.574 . S
C120 H114 0.949 . S
C120 C124 1.368 1_655 S
C121 C102 1.429 1_554 S
C121 C115 1.429 1_455 S
C121 C122 1.523 . S
C122 C103 1.368 1_455 S
C122 C116 1.368 1_554 S
C122 C121 1.523 . S
C123 C107 1.429 1_455 S
C123 C119 1.429 1_554 S
C123 C124 1.523 . S
C124 C108 1.368 1_554 S
C124 C120 1.368 1_455 S
C124 C123 1.523 . S
H125 C100 0.950 . S
H126 C102 0.950 . S
H127 C103 0.949 . S
H128 C105 0.950 . S
H129 C107 0.950 . S
C41 C2 1.466 . S
C46 C23 1.466 1_445 S
C71 C4 1.499 1_544 S
C76 C25 1.499 . S
C101 C20 1.493 1_455 S
C106 C31 1.490 1_554 S
