# Generated by pormake.
# Topology cds, (4)-cn, num edge types: 1
# Building blocks:
#     Node 0, Type 0, BuildingBlock: ESEHIV_clean_sbu_0, # of connection points: 4
#     Node 1, Type 0, BuildingBlock: ESEHIV_clean_sbu_0, # of connection points: 4
#     Edge 2, Type (0, 0), BuildingBlock: MIFKUJ_clean_linker_0, # of connection points: 2
#     Edge 3, Type (0, 0), BuildingBlock: MIFKUJ_clean_linker_0, # of connection points: 2
#     Edge 4, Type (0, 0), BuildingBlock: MIFKUJ_clean_linker_0, # of connection points: 2
#     Edge 5, Type (0, 0), BuildingBlock: MIFKUJ_clean_linker_0, # of connection points: 2
# Relax obj value: 0.000
# Max RMSD: 0.099
# Mean RMSD: 0.094
data_MOF--net-cds--node1-ESEHIV_clean_sbu_0--edge1-MIFKUJ_clean_linker_0
_symmetry_space_group_name_H-M    P1
_symmetry_Int_Tables_number       1
_symmetry_cell_setting            triclinic
loop_
_symmetry_equiv_pos_as_xyz
'x, y, z'
_cell_length_a     19.167255
_cell_length_b     21.623734
_cell_length_c     40.687728
_cell_angle_alpha  103.78867
_cell_angle_beta   103.7369
_cell_angle_gamma 87.774967
loop_
_atom_site_label
_atom_site_type_symbol
_atom_site_fract_x
_atom_site_fract_y
_atom_site_fract_z
_atom_type_partial_charge
Cu0 Cu 0.11998 0.03684 0.0399 0.0
N1 N 0.10374 0.98419 0.99473 0.0
N2 N 0.09095 0.95688 0.93699 0.0
C3 C 0.09515 1.00522 0.96542 0.0
C4 C 0.0968 0.90325 0.94884 0.0
C5 C 0.10434 0.92022 0.98447 0.0
O6 O 0.20785 0.08643 0.04663 0.0
C7 C 0.97487 0.05456 0.0318 0.0
O8 O 0.97749 0.99286 0.01921 0.0
H9 H 0.0946 0.05518 0.96517 0.0
H10 H 0.11119 0.88821 1.0017 0.0
N11 N 0.13466 0.99032 0.0743 0.0
N12 N 0.13605 0.96748 0.12545 0.0
C13 C 0.11124 1.00659 0.10388 0.0
C14 C 0.17566 0.93909 0.07703 0.0
C15 C 0.17649 0.92481 0.10839 0.0
C16 C 0.25929 0.05429 0.03648 0.0
O17 O 0.25013 0.99257 0.02393 0.0
H18 H 0.07765 0.0472 0.10954 0.0
H19 H 0.20485 0.91496 0.05811 0.0
O20 O 0.0336 0.08678 0.04319 0.0
H21 H 0.09577 0.85527 0.93292 0.0
H22 H 0.20696 0.88723 0.11825 0.0
Cu23 Cu 0.94202 0.02449 0.51863 0.0
N24 N 0.88547 0.95029 0.50394 0.0
N25 N 0.85295 0.84938 0.49819 0.0
C26 C 0.9027 0.89607 0.51451 0.0
C27 C 0.8024 0.8755 0.47651 0.0
C28 C 0.82283 0.93767 0.47999 0.0
O29 O 0.99721 0.02566 0.56593 0.0
C30 C 0.96829 0.03716 0.45623 0.0
O31 O 0.9009 0.05443 0.45185 0.0
H32 H 0.95099 0.89113 0.53379 0.0
H33 H 0.79469 0.97094 0.46565 0.0
N34 N 0.88469 0.09703 0.51996 0.0
N35 N 0.85118 0.19766 0.52063 0.0
C36 C 0.90582 0.1561 0.52059 0.0
C37 C 0.81439 0.10117 0.5197 0.0
C38 C 0.79362 0.16301 0.5202 0.0
C39 C 0.96156 0.03814 0.58943 0.0
O40 O 0.89307 0.0508 0.58053 0.0
H41 H 0.95993 0.16761 0.52009 0.0
H42 H 0.78061 0.06198 0.51932 0.0
O43 O 0.99944 1.02172 0.48446 0.0
H44 H 0.75507 0.85099 0.45869 0.0
H45 H 0.74023 0.18086 0.52048 0.0
H46 H 0.08616 0.0694 0.16714 0.0
H47 H 0.07064 0.07814 0.22559 0.0
H48 H 0.14915 0.88784 0.22284 0.0
H49 H 0.16156 0.87722 0.16353 0.0
H50 H 0.04009 0.90349 0.25155 0.0
H51 H 0.25486 1.02221 0.2697 0.0
H52 H 0.33399 0.10186 0.26168 0.0
H53 H 0.19767 0.25178 0.29821 0.0
H54 H 0.11709 0.17293 0.30598 0.0
H55 H 0.06754 0.95087 0.4355 0.0
H56 H 0.1111 0.93663 0.38191 0.0
H57 H 0.993 0.10095 0.35878 0.0
H58 H 0.94817 0.1143 0.41147 0.0
H59 H 0.13663 0.09223 0.34624 0.0
H60 H 0.91657 0.9673 0.32161 0.0
H61 H 0.84181 0.88557 0.33079 0.0
H62 H 0.99787 0.74389 0.30806 0.0
H63 H 0.07411 0.82512 0.29926 0.0
C64 C 0.0996 0.02891 0.17854 0.0
C65 C 0.1257 0.97262 0.16019 0.0
C66 C 0.09148 0.03439 0.21239 0.0
C67 C 0.11016 0.98418 0.22908 0.0
C68 C 0.13492 0.92753 0.21073 0.0
C69 C 0.14256 0.92177 0.17674 0.0
C70 C 0.1026 0.99061 0.26541 0.0
C71 C 0.06249 0.94421 0.27234 0.0
C72 C 0.13128 0.04386 0.29272 0.0
C73 C 0.17959 0.09156 0.28814 0.0
C74 C 0.24144 0.07212 0.27577 0.0
C75 C 0.28661 0.11713 0.27131 0.0
C76 C 0.27078 0.18182 0.27936 0.0
C77 C 0.20982 0.20164 0.29196 0.0
C78 C 0.16441 0.15681 0.29643 0.0
C79 C 0.05217 0.98456 0.41928 0.0
C80 C 1.00437 0.03355 0.4275 0.0
C81 C 0.07673 0.97625 0.38866 0.0
C82 C 0.05492 1.0176 0.36632 0.0
C83 C 1.01052 0.06859 0.37564 0.0
C84 C 0.98483 0.07603 0.40569 0.0
C85 C 0.07355 1.00569 0.33196 0.0
C86 C 0.11544 0.05113 0.32544 0.0
C87 C 0.04739 0.95123 0.30517 0.0
C88 C 1.00142 0.90239 0.31023 0.0
C89 C 0.93525 0.91884 0.3189 0.0
C90 C 0.89255 0.8726 0.32396 0.0
C91 C 0.91519 0.80961 0.32013 0.0
C92 C 0.98049 0.79272 0.3111 0.0
C93 C 0.02345 0.83883 0.30607 0.0
H94 H 0.88206 0.77387 0.32405 0.0
H95 H 0.30583 0.21661 0.2759 0.0
H96 H 0.15066 0.88119 0.88797 0.0
H97 H 0.13988 0.89127 0.82809 0.0
H98 H 1.00457 0.05381 0.84619 0.0
H99 H 0.0158 0.04429 0.90605 0.0
H100 H 0.9512 0.95734 0.78285 0.0
H101 H 0.16815 0.08087 0.84689 0.0
H102 H 0.28983 0.0937 0.88543 0.0
H103 H 0.3658 0.94583 0.81193 0.0
H104 H 0.24418 0.93134 0.77321 0.0
H105 H 0.91842 0.10176 0.64663 0.0
H106 H 0.95327 0.08402 0.70516 0.0
H107 H 0.10752 0.94597 0.67349 0.0
H108 H 0.07355 0.96483 0.61439 0.0
H109 H 0.15721 1.01603 0.74125 0.0
H110 H 0.94856 0.89459 0.6754 0.0
H111 H 0.828 0.87378 0.6362 0.0
H112 H 0.73735 1.00468 0.71151 0.0
H113 H 0.85767 0.02751 0.75087 0.0
C114 C 0.11841 0.91884 0.87907 0.0
C115 C 0.08406 0.962 0.90166 0.0
C116 C 0.11266 0.92478 0.84498 0.0
C117 C 0.07166 0.97344 0.83277 0.0
C118 C 0.03659 1.01602 0.85513 0.0
C119 C 0.0433 1.01075 0.88934 0.0
C120 C 0.06427 0.97989 0.79658 0.0
C121 C 0.99606 0.97071 0.77383 0.0
C122 C 0.12349 0.99473 0.78444 0.0
C123 C 0.19689 1.00451 0.80734 0.0
C124 C 0.21067 0.05076 0.83906 0.0
C125 C 0.27966 0.05841 0.86092 0.0
C126 C 0.33545 1.02046 0.85118 0.0
C127 C 0.32248 0.97509 0.81946 0.0
C128 C 0.25355 0.96716 0.79755 0.0
C129 C 0.96064 0.06833 0.65218 0.0
C130 C 0.99273 0.03418 0.62582 0.0
C131 C 0.98038 0.05809 0.68567 0.0
C132 C 0.03172 1.0125 0.69355 0.0
C133 C 0.0674 0.98108 0.66794 0.0
C134 C 0.0481 0.99194 0.63424 0.0
C135 C 0.04349 0.99539 0.72779 0.0
C136 C 0.1124 1.00218 0.75012 0.0
C137 C 0.98507 0.97711 0.73945 0.0
C138 C 0.91233 0.96312 0.71601 0.0
C139 C 0.90302 0.91932 0.68352 0.0
C140 C 0.8347 0.9071 0.66127 0.0
C141 C 0.77506 0.93784 0.67136 0.0
C142 C 0.78362 0.98089 0.70373 0.0
C143 C 0.85189 0.9935 0.72603 0.0
H144 H 0.72219 0.92827 0.65411 0.0
H145 H 0.38873 0.02616 0.86819 0.0
H146 H 0.942 0.16093 0.07812 0.0
H147 H 0.82077 0.19758 0.08337 0.0
H148 H 0.72778 0.04896 0.99358 0.0
H149 H 0.84725 1.01235 0.98847 0.0
H150 H 0.6566 0.16219 0.99322 0.0
H151 H 0.74938 0.02663 0.07425 0.0
H152 H 0.83632 1.0016 0.12449 0.0
H153 H 0.78994 0.17767 0.19017 0.0
H154 H 0.70339 0.20408 0.14013 0.0
H155 H 0.34476 1.01288 0.9922 0.0
H156 H 0.46477 0.05042 0.99575 0.0
H157 H 0.45279 0.19831 0.08641 0.0
H158 H 0.33053 0.16059 0.08274 0.0
H159 H 0.57893 0.12688 0.09537 0.0
H160 H 0.45674 0.24236 0.01498 0.0
H161 H 0.3685 0.26237 0.96388 0.0
H162 H 0.46893 0.12395 0.89603 0.0
H163 H 0.55657 0.10167 0.94669 0.0
C164 C 0.89554 0.13706 0.05919 0.0
C165 C 0.90398 0.08357 0.03301 0.0
C166 C 0.82644 0.15781 0.06228 0.0
C167 C 0.76513 0.12579 0.03894 0.0
C168 C 0.77408 0.07457 1.01182 0.0
C169 C 0.84253 0.05345 1.00905 0.0
C170 C 0.69119 0.14106 0.04359 0.0
C171 C 0.63952 0.15504 0.01565 0.0
C172 C 0.66929 0.13387 0.07337 0.0
C173 C 0.72077 0.11772 0.10341 0.0
C174 C 0.75817 0.0602 0.09936 0.0
C175 C 0.80729 0.04573 0.12779 0.0
C176 C 0.81886 0.08813 0.16047 0.0
C177 C 0.78109 0.14497 0.16481 0.0
C178 C 0.73202 0.15972 0.13644 0.0
C179 C 0.36704 0.05399 0.01268 0.0
C180 C 0.3283 0.08372 0.03726 0.0
C181 C 0.43567 0.07566 0.01456 0.0
C182 C 0.46774 0.12751 0.04117 0.0
C183 C 0.42884 0.15842 0.06553 0.0
C184 C 0.35905 0.13712 0.06332 0.0
C185 C 0.54375 0.14495 0.04421 0.0
C186 C 0.59592 0.13676 0.0735 0.0
C187 C 0.56607 0.15723 0.01554 0.0
C188 C 0.51332 0.17025 0.98478 0.0
C189 C 0.4597 0.21573 0.9892 0.0
C190 C 0.4097 0.22744 0.96028 0.0
C191 C 0.41299 0.19432 0.92673 0.0
C192 C 0.46631 0.14942 0.92203 0.0
C193 C 0.51623 0.13728 0.95086 0.0
H194 H 0.3743 0.20352 0.90437 0.0
H195 H 0.85693 0.07686 0.18245 0.0
H196 H 0.73917 0.77034 0.48762 0.0
H197 H 0.74255 0.66036 0.49363 0.0
H198 H 0.97396 0.67162 0.52432 0.0
H199 H 0.97103 0.78113 0.51761 0.0
H200 H 0.92785 0.5614 0.47736 0.0
H201 H 0.88011 0.67642 0.58496 0.0
H202 H 0.81817 0.75279 0.62335 0.0
H203 H 0.6209 0.6456 0.57701 0.0
H204 H 0.68163 0.56872 0.53813 0.0
H205 H 0.96902 0.27618 0.53886 0.0
H206 H 0.97204 0.38777 0.53659 0.0
H207 H 0.7416 0.38369 0.50002 0.0
H208 H 0.73789 0.27187 0.50138 0.0
H209 H 0.79196 0.49118 0.55216 0.0
H210 H 0.84403 0.37609 0.4439 0.0
H211 H 0.91038 0.29983 0.40765 0.0
H212 H 0.10524 0.4088 0.4578 0.0
H213 H 0.04022 0.48522 0.49475 0.0
C214 C 0.79079 0.74935 0.49546 0.0
C215 C 0.85479 0.78472 0.50221 0.0
C216 C 0.79264 0.68662 0.49918 0.0
C217 C 0.85851 0.65791 0.50976 0.0
C218 C 0.92252 0.69285 0.51625 0.0
C219 C 0.9207 0.75569 0.51268 0.0
C220 C 0.86048 0.59116 0.51359 0.0
C221 C 0.899 0.54625 0.49411 0.0
C222 C 0.82208 0.57115 0.53508 0.0
C223 C 0.78526 0.61717 0.55839 0.0
C224 C 0.82338 0.66941 0.58276 0.0
C225 C 0.78853 0.71275 0.60464 0.0
C226 C 0.71556 0.70425 0.60251 0.0
C227 C 0.67739 0.65219 0.57858 0.0
C228 C 0.71203 0.60864 0.55666 0.0
C229 C 0.91891 0.29853 0.53001 0.0
C230 C 0.8532 0.2643 0.52017 0.0
C231 C 0.92078 0.3626 0.52888 0.0
C232 C 0.85707 0.39394 0.51793 0.0
C233 C 0.7914 0.36048 0.50867 0.0
C234 C 0.78946 0.29636 0.50959 0.0
C235 C 0.85878 0.46141 0.51571 0.0
C236 C 0.82096 0.50643 0.5355 0.0
C237 C 0.89837 0.48161 0.49475 0.0
C238 C 0.9374 0.436 0.47234 0.0
C239 C 0.90114 0.38351 0.44739 0.0
C240 C 0.93849 0.3403 0.42669 0.0
C241 C 1.01202 0.34936 0.43048 0.0
C242 C 0.04831 0.40178 0.45492 0.0
C243 C 1.01123 0.44508 0.47574 0.0
H244 H 0.04084 0.31585 0.41443 0.0
H245 H 0.68867 0.73789 0.61947 0.0
loop_
_geom_bond_atom_site_label_1
_geom_bond_atom_site_label_2
_geom_bond_distance
_geom_bond_site_symmetry_2
_ccdc_geom_bond_type
Cu0 N1 1.999 1_454 S
Cu0 O6 1.974 . S
Cu0 N11 1.985 . S
Cu0 O20 1.959 1_455 S
N1 Cu0 1.999 1_656 S
N1 C3 1.263 1_655 S
N1 C5 1.389 . S
N2 C3 1.358 1_655 S
N2 C4 1.400 . S
C3 N1 1.263 1_455 S
C3 N2 1.358 1_455 S
C3 H9 0.930 1_545 S
C4 N2 1.400 . S
C4 C5 1.351 . S
C4 H21 0.930 . S
C5 N1 1.389 . S
C5 C4 1.351 . S
C5 H10 0.930 . S
O6 Cu0 1.974 . S
O6 C16 1.282 1_545 S
C7 O8 1.258 1_554 S
C7 O20 1.251 1_565 S
O8 C7 1.258 1_556 S
H9 C3 0.930 1_565 S
H10 C5 0.930 . S
N11 Cu0 1.985 . S
N11 C13 1.335 1_455 S
N11 C14 1.390 1_545 S
N12 C13 1.345 1_455 S
N12 C15 1.336 1_545 S
C13 N11 1.335 1_655 S
C13 N12 1.345 1_655 S
C13 H18 0.930 . S
C14 N11 1.390 1_565 S
C14 C15 1.346 . S
C14 H19 0.930 . S
C15 N12 1.336 1_565 S
C15 C14 1.346 . S
C15 H22 0.929 . S
C16 O6 1.282 1_565 S
C16 O17 1.216 . S
O17 C16 1.216 . S
H18 C13 0.930 . S
H19 C14 0.930 . S
O20 Cu0 1.959 1_655 S
O20 C7 1.251 1_545 S
H21 C4 0.930 . S
H22 C15 0.929 . S
Cu23 N24 1.999 1_545 S
Cu23 O29 1.974 . S
Cu23 N34 1.985 . S
Cu23 O43 1.959 . S
N24 Cu23 1.999 1_565 S
N24 C26 1.263 . S
N24 C28 1.389 . S
N25 C26 1.358 . S
N25 C27 1.400 . S
C26 N24 1.263 . S
C26 N25 1.358 . S
C26 H32 0.930 1_455 S
C27 N25 1.400 . S
C27 C28 1.351 . S
C27 H44 0.930 . S
C28 N24 1.389 . S
C28 C27 1.351 . S
C28 H33 0.930 . S
O29 Cu23 1.974 . S
O29 C39 1.282 1_455 S
C30 O31 1.261 1_545 S
C30 O43 1.251 1_655 S
O31 C30 1.261 1_565 S
H32 C26 0.930 1_655 S
H33 C28 0.930 . S
N34 Cu23 1.985 . S
N34 C36 1.335 . S
N34 C37 1.390 1_455 S
N35 C36 1.345 . S
N35 C38 1.336 1_455 S
C36 N34 1.335 . S
C36 N35 1.345 . S
C36 H41 0.930 . S
C37 N34 1.390 1_655 S
C37 C38 1.346 . S
C37 H42 0.930 . S
C38 N35 1.336 1_655 S
C38 C37 1.346 . S
C38 H45 0.929 . S
C39 O29 1.282 1_655 S
C39 O40 1.216 . S
O40 C39 1.216 . S
H41 C36 0.930 . S
H42 C37 0.930 . S
O43 Cu23 1.959 . S
O43 C30 1.251 1_455 S
H44 C27 0.930 . S
H45 C38 0.929 . S
H46 C64 0.951 . S
H47 C66 0.951 . S
H48 C68 0.950 . S
H49 C69 0.950 . S
H50 C71 0.950 . S
H51 C74 0.950 1_565 S
H52 C75 0.950 . S
H53 C77 0.950 . S
H54 C78 0.950 . S
H55 C79 0.951 . S
H56 C81 0.951 . S
H57 C83 0.950 1_455 S
H58 C84 0.950 . S
H59 C86 0.950 . S
H60 C89 0.950 1_545 S
H61 C90 0.950 . S
H62 C92 0.950 . S
H63 C93 0.950 . S
C64 H46 0.951 . S
C64 C65 1.366 . S
C64 C66 1.388 . S
C65 C64 1.366 . S
C65 C69 1.385 1_445 S
C66 H47 0.951 . S
C66 C64 1.388 . S
C66 C67 1.366 . S
C67 C66 1.366 . S
C67 C68 1.414 1_445 S
C67 C70 1.499 . S
C68 H48 0.950 . S
C68 C67 1.414 1_665 S
C68 C69 1.374 . S
C69 H49 0.950 . S
C69 C65 1.385 1_665 S
C69 C68 1.374 . S
C70 C67 1.499 . S
C70 C71 1.373 1_445 S
C70 C72 1.389 . S
C71 H50 0.950 . S
C71 C70 1.373 1_665 S
C71 C87 1.377 . S
C72 C70 1.389 . S
C72 C73 1.524 . S
C72 C86 1.377 . S
C73 C72 1.524 . S
C73 C74 1.397 . S
C73 C78 1.363 . S
C74 H51 0.950 1_545 S
C74 C73 1.397 . S
C74 C75 1.334 . S
C75 H52 0.950 . S
C75 C74 1.334 . S
C75 C76 1.287 . S
C76 C75 1.287 . S
C76 C77 1.524 . S
C76 H95 0.913 . S
C77 H53 0.950 . S
C77 C76 1.524 . S
C77 C78 1.415 . S
C78 H54 0.950 . S
C78 C73 1.363 . S
C78 C77 1.415 . S
C79 H55 0.951 . S
C79 C80 1.366 1_565 S
C79 C81 1.388 . S
C80 C79 1.366 1_545 S
C80 C84 1.385 . S
C81 H56 0.951 . S
C81 C79 1.388 . S
C81 C82 1.366 1_565 S
C82 C81 1.366 1_545 S
C82 C83 1.414 . S
C82 C85 1.499 . S
C83 H57 0.950 1_655 S
C83 C82 1.414 . S
C83 C84 1.374 . S
C84 H58 0.950 . S
C84 C80 1.385 . S
C84 C83 1.374 . S
C85 C82 1.499 . S
C85 C86 1.373 1_655 S
C85 C87 1.389 1_545 S
C86 H59 0.950 . S
C86 C72 1.377 . S
C86 C85 1.373 1_455 S
C87 C71 1.377 . S
C87 C85 1.389 1_565 S
C87 C88 1.524 . S
C88 C87 1.524 . S
C88 C89 1.397 . S
C88 C93 1.363 . S
C89 H60 0.950 1_565 S
C89 C88 1.397 . S
C89 C90 1.334 . S
C90 H61 0.950 . S
C90 C89 1.334 . S
C90 C91 1.287 . S
C91 C90 1.287 . S
C91 C92 1.524 . S
C91 H94 0.999 . S
C92 H62 0.950 . S
C92 C91 1.524 . S
C92 C93 1.415 . S
C93 H63 0.950 . S
C93 C88 1.363 . S
C93 C92 1.415 . S
H94 C91 0.999 . S
H95 C76 0.913 . S
H96 C114 0.951 . S
H97 C116 0.951 . S
H98 C118 0.950 . S
H99 C119 0.950 . S
H100 C121 0.950 . S
H101 C124 0.950 . S
H102 C125 0.950 . S
H103 C127 0.950 1_565 S
H104 C128 0.943 1_565 S
H105 C129 0.951 . S
H106 C131 0.951 . S
H107 C133 0.950 . S
H108 C134 0.950 . S
H109 C136 0.950 . S
H110 C139 0.950 . S
H111 C140 0.950 . S
H112 C142 0.950 . S
H113 C143 0.950 . S
C114 H96 0.951 . S
C114 C115 1.366 1_565 S
C114 C116 1.388 . S
C115 C114 1.366 1_545 S
C115 C119 1.385 1_455 S
C116 H97 0.951 . S
C116 C114 1.388 . S
C116 C117 1.366 1_565 S
C117 C116 1.366 1_545 S
C117 C118 1.414 1_455 S
C117 C120 1.502 1_455 S
C118 H98 0.950 . S
C118 C117 1.414 1_655 S
C118 C119 1.374 . S
C119 H99 0.950 . S
C119 C115 1.385 1_655 S
C119 C118 1.374 . S
C120 C117 1.502 1_655 S
C120 C121 1.385 . S
C120 C122 1.374 1_655 S
C121 H100 0.950 . S
C121 C120 1.385 . S
C121 C137 1.377 . S
C122 C120 1.374 1_455 S
C122 C123 1.524 . S
C122 C136 1.377 . S
C123 C122 1.524 . S
C123 C124 1.397 . S
C123 C128 1.369 . S
C124 H101 0.950 . S
C124 C123 1.397 . S
C124 C125 1.334 . S
C125 H102 0.950 . S
C125 C124 1.334 . S
C125 C126 1.287 . S
C126 C125 1.287 . S
C126 C127 1.524 . S
C126 H145 0.913 . S
C127 H103 0.950 1_545 S
C127 C126 1.524 . S
C127 C128 1.416 . S
C128 H104 0.943 1_545 S
C128 C123 1.369 . S
C128 C127 1.416 . S
C129 H105 0.951 . S
C129 C130 1.366 . S
C129 C131 1.388 . S
C130 C129 1.366 . S
C130 C134 1.385 1_645 S
C131 H106 0.951 . S
C131 C129 1.388 . S
C131 C132 1.366 . S
C132 C131 1.366 . S
C132 C133 1.414 1_645 S
C132 C135 1.499 . S
C133 H107 0.950 . S
C133 C132 1.414 1_465 S
C133 C134 1.374 . S
C134 H108 0.950 . S
C134 C130 1.385 1_465 S
C134 C133 1.374 . S
C135 C132 1.499 . S
C135 C136 1.373 1_655 S
C135 C137 1.389 . S
C136 H109 0.950 . S
C136 C122 1.377 . S
C136 C135 1.373 1_455 S
C137 C121 1.377 . S
C137 C135 1.389 . S
C137 C138 1.524 1_545 S
C138 C137 1.524 1_565 S
C138 C139 1.397 . S
C138 C143 1.363 1_565 S
C139 H110 0.950 . S
C139 C138 1.397 . S
C139 C140 1.334 . S
C140 H111 0.950 . S
C140 C139 1.334 . S
C140 C141 1.287 . S
C141 C140 1.287 . S
C141 C142 1.524 1_565 S
C141 H144 0.999 . S
C142 H112 0.950 . S
C142 C141 1.524 1_545 S
C142 C143 1.415 . S
C143 H113 0.950 . S
C143 C138 1.363 1_545 S
C143 C142 1.415 . S
H144 C141 0.999 . S
H145 C126 0.913 . S
H146 C164 0.951 . S
H147 C166 0.951 . S
H148 C168 0.950 . S
H149 C169 0.950 . S
H150 C171 0.950 . S
H151 C174 0.949 . S
H152 C175 0.950 . S
H153 C177 0.950 . S
H154 C178 0.950 . S
H155 C179 0.951 . S
H156 C181 0.951 . S
H157 C183 0.950 . S
H158 C184 0.950 . S
H159 C186 0.950 . S
H160 C189 0.950 . S
H161 C190 0.950 1_554 S
H162 C192 0.950 . S
H163 C193 0.950 . S
C164 H146 0.951 . S
C164 C165 1.366 . S
C164 C166 1.388 . S
C165 C164 1.366 . S
C165 C169 1.385 1_554 S
C166 H147 0.951 . S
C166 C164 1.388 . S
C166 C167 1.366 . S
C167 C166 1.366 . S
C167 C168 1.414 1_554 S
C167 C170 1.499 . S
C168 H148 0.950 . S
C168 C167 1.414 1_556 S
C168 C169 1.374 . S
C169 H149 0.950 . S
C169 C165 1.385 1_556 S
C169 C168 1.374 . S
C170 C167 1.499 . S
C170 C171 1.373 1_564 S
C170 C172 1.389 . S
C171 H150 0.950 . S
C171 C170 1.373 1_546 S
C171 C187 1.377 . S
C172 C170 1.389 . S
C172 C173 1.524 . S
C172 C186 1.377 . S
C173 C172 1.524 . S
C173 C174 1.397 . S
C173 C178 1.363 . S
C174 H151 0.949 . S
C174 C173 1.397 . S
C174 C175 1.334 . S
C175 H152 0.950 . S
C175 C174 1.334 . S
C175 C176 1.287 . S
C176 C175 1.287 . S
C176 C177 1.524 . S
C176 H195 0.913 . S
C177 H153 0.950 . S
C177 C176 1.524 . S
C177 C178 1.415 . S
C178 H154 0.950 . S
C178 C173 1.363 . S
C178 C177 1.415 . S
C179 H155 0.951 . S
C179 C180 1.366 1_556 S
C179 C181 1.388 . S
C180 C179 1.366 1_554 S
C180 C184 1.385 . S
C181 H156 0.951 . S
C181 C179 1.388 . S
C181 C182 1.366 1_556 S
C182 C181 1.366 1_554 S
C182 C183 1.414 . S
C182 C185 1.499 . S
C183 H157 0.950 . S
C183 C182 1.414 . S
C183 C184 1.374 . S
C184 H158 0.950 . S
C184 C180 1.385 . S
C184 C183 1.374 . S
C185 C182 1.499 . S
C185 C186 1.373 . S
C185 C187 1.389 1_564 S
C186 H159 0.950 . S
C186 C172 1.377 . S
C186 C185 1.373 . S
C187 C171 1.377 . S
C187 C185 1.389 1_546 S
C187 C188 1.524 . S
C188 C187 1.524 . S
C188 C189 1.397 1_556 S
C188 C193 1.363 . S
C189 H160 0.950 . S
C189 C188 1.397 1_554 S
C189 C190 1.334 1_554 S
C190 H161 0.950 1_556 S
C190 C189 1.334 1_556 S
C190 C191 1.287 . S
C191 C190 1.287 . S
C191 C192 1.524 . S
C191 H194 0.999 . S
C192 H162 0.950 . S
C192 C191 1.524 . S
C192 C193 1.415 . S
C193 H163 0.950 . S
C193 C188 1.363 . S
C193 C192 1.415 . S
H194 C191 0.999 . S
H195 C176 0.913 . S
H196 C214 0.951 . S
H197 C216 0.951 . S
H198 C218 0.950 . S
H199 C219 0.950 . S
H200 C221 0.950 . S
H201 C224 0.950 1_455 S
H202 C225 0.950 . S
H203 C227 0.950 . S
H204 C228 0.950 . S
H205 C229 0.951 . S
H206 C231 0.951 . S
H207 C233 0.950 . S
H208 C234 0.950 . S
H209 C236 0.950 . S
H210 C239 0.950 . S
H211 C240 0.950 . S
H212 C242 0.950 . S
H213 C243 0.950 . S
C214 H196 0.951 . S
C214 C215 1.366 1_655 S
C214 C216 1.388 . S
C215 C214 1.366 1_455 S
C215 C219 1.385 . S
C216 H197 0.951 . S
C216 C214 1.388 . S
C216 C217 1.366 1_655 S
C217 C216 1.366 1_455 S
C217 C218 1.414 . S
C217 C220 1.499 . S
C218 H198 0.950 . S
C218 C217 1.414 . S
C218 C219 1.374 . S
C219 H199 0.950 . S
C219 C215 1.385 . S
C219 C218 1.374 . S
C220 C217 1.499 . S
C220 C221 1.373 . S
C220 C222 1.389 1_455 S
C221 H200 0.950 . S
C221 C220 1.373 . S
C221 C237 1.377 . S
C222 C220 1.389 1_655 S
C222 C223 1.524 . S
C222 C236 1.377 . S
C223 C222 1.524 . S
C223 C224 1.397 . S
C223 C228 1.363 . S
C224 H201 0.950 1_655 S
C224 C223 1.397 . S
C224 C225 1.334 . S
C225 H202 0.950 . S
C225 C224 1.334 . S
C225 C226 1.287 . S
C226 C225 1.287 . S
C226 C227 1.524 . S
C226 H245 0.913 . S
C227 H203 0.950 . S
C227 C226 1.524 . S
C227 C228 1.415 . S
C228 H204 0.950 . S
C228 C223 1.363 . S
C228 C227 1.415 . S
C229 H205 0.951 . S
C229 C230 1.366 . S
C229 C231 1.388 . S
C230 C229 1.366 . S
C230 C234 1.385 1_455 S
C231 H206 0.951 . S
C231 C229 1.388 . S
C231 C232 1.366 . S
C232 C231 1.366 . S
C232 C233 1.414 1_455 S
C232 C235 1.499 . S
C233 H207 0.950 . S
C233 C232 1.414 1_655 S
C233 C234 1.374 . S
C234 H208 0.950 . S
C234 C230 1.385 1_655 S
C234 C233 1.374 . S
C235 C232 1.499 . S
C235 C236 1.373 1_455 S
C235 C237 1.389 . S
C236 H209 0.950 . S
C236 C222 1.377 . S
C236 C235 1.373 1_655 S
C237 C221 1.377 . S
C237 C235 1.389 . S
C237 C238 1.524 . S
C238 C237 1.524 . S
C238 C239 1.397 . S
C238 C243 1.363 . S
C239 H210 0.950 . S
C239 C238 1.397 . S
C239 C240 1.334 . S
C240 H211 0.950 . S
C240 C239 1.334 . S
C240 C241 1.287 . S
C241 C240 1.287 . S
C241 C242 1.524 . S
C241 H244 0.999 . S
C242 H212 0.950 . S
C242 C241 1.524 . S
C242 C243 1.415 . S
C243 H213 0.950 . S
C243 C238 1.363 . S
C243 C242 1.415 . S
H244 C241 0.999 . S
H245 C226 0.913 . S
C65 N12 1.462 . S
C80 C30 1.491 . S
C115 N2 1.452 1_455 S
C130 C39 1.486 . S
C165 C7 1.480 . S
C180 C16 1.473 . S
C215 N25 1.454 . S
C230 N35 1.456 . S
