# Generated by pormake.
# Topology uol, (4)-cn, num edge types: 1
# Building blocks:
#     Node 0, Type 0, BuildingBlock: CEKHIL_clean_sbu_0, # of connection points: 4
#     Node 1, Type 0, BuildingBlock: CEKHIL_clean_sbu_0, # of connection points: 4
#     Node 2, Type 0, BuildingBlock: CEKHIL_clean_sbu_0, # of connection points: 4
#     Node 3, Type 0, BuildingBlock: CEKHIL_clean_sbu_0, # of connection points: 4
#     Node 4, Type 0, BuildingBlock: CEKHIL_clean_sbu_0, # of connection points: 4
#     Node 5, Type 0, BuildingBlock: CEKHIL_clean_sbu_0, # of connection points: 4
#     Node 6, Type 0, BuildingBlock: CEKHIL_clean_sbu_0, # of connection points: 4
#     Node 7, Type 0, BuildingBlock: CEKHIL_clean_sbu_0, # of connection points: 4
#     Node 8, Type 0, BuildingBlock: CEKHIL_clean_sbu_0, # of connection points: 4
#     Node 9, Type 0, BuildingBlock: CEKHIL_clean_sbu_0, # of connection points: 4
#     Node 10, Type 0, BuildingBlock: CEKHIL_clean_sbu_0, # of connection points: 4
#     Node 11, Type 0, BuildingBlock: CEKHIL_clean_sbu_0, # of connection points: 4
#     Edge 12, Type (0, 0), None
#     Edge 13, Type (0, 0), None
#     Edge 14, Type (0, 0), None
#     Edge 15, Type (0, 0), None
#     Edge 16, Type (0, 0), None
#     Edge 17, Type (0, 0), None
#     Edge 18, Type (0, 0), None
#     Edge 19, Type (0, 0), None
#     Edge 20, Type (0, 0), None
#     Edge 21, Type (0, 0), None
#     Edge 22, Type (0, 0), None
#     Edge 23, Type (0, 0), None
#     Edge 24, Type (0, 0), None
#     Edge 25, Type (0, 0), None
#     Edge 26, Type (0, 0), None
#     Edge 27, Type (0, 0), None
#     Edge 28, Type (0, 0), None
#     Edge 29, Type (0, 0), None
#     Edge 30, Type (0, 0), None
#     Edge 31, Type (0, 0), None
#     Edge 32, Type (0, 0), None
#     Edge 33, Type (0, 0), None
#     Edge 34, Type (0, 0), None
#     Edge 35, Type (0, 0), None
# Relax obj value: 0.135
# Max RMSD: 0.174
# Mean RMSD: 0.174
data_MOF--net-uol--node1-CEKHIL_clean_sbu_0--edge1-none
_symmetry_space_group_name_H-M    P1
_symmetry_Int_Tables_number       1
_symmetry_cell_setting            triclinic
loop_
_symmetry_equiv_pos_as_xyz
'x, y, z'
_cell_length_a     14.946556
_cell_length_b     14.945618
_cell_length_c     26.89979
_cell_angle_alpha  90.00001
_cell_angle_beta   89.999995
_cell_angle_gamma 119.99238
loop_
_atom_site_label
_atom_site_type_symbol
_atom_site_fract_x
_atom_site_fract_y
_atom_site_fract_z
_atom_type_partial_charge
Co0 Co 0.10997 0.35507 0.11786 0.0
O1 O 0.05859 0.42897 0.07977 0.0
O2 O 0.15493 0.48798 0.14788 0.0
C3 C 0.1611 0.30381 0.04915 0.0
O4 O 0.17772 0.30318 0.16706 0.0
Co5 Co 0.03229 0.12214 0.10501 0.0
O6 O 0.16659 0.15949 0.13657 0.0
C7 C 0.92426 0.19338 0.17457 0.0
C8 C 0.10659 0.50304 0.11156 0.0
C9 C 0.20187 0.23204 0.16831 0.0
O10 O 0.98255 0.28888 0.16202 0.0
O11 O 0.93144 0.11871 0.15541 0.0
O12 O 0.22165 0.39397 0.06856 0.0
O13 O 0.07307 0.24979 0.07078 0.0
Co14 Co 0.74759 0.11361 0.28452 0.0
O15 O 0.62235 0.06227 0.24642 0.0
O16 O 0.65965 0.15859 0.31453 0.0
C17 C 0.85002 0.16476 0.21582 0.0
O18 O 0.86722 0.18133 0.33373 0.0
Co19 Co 0.90278 0.03583 0.27168 0.0
O20 O -0.00026 0.17011 0.30325 0.0
C21 C 0.7235 0.92783 0.34122 0.0
C22 C 0.59628 0.11027 0.27822 0.0
C23 C 0.96248 0.20543 0.33499 0.0
O24 O 0.68634 0.98618 0.32867 0.0
O25 O 0.80534 0.93497 0.32206 0.0
O26 O 0.8204 0.22532 0.23523 0.0
O27 O 0.81599 0.07671 0.23744 0.0
Co28 Co 0.62658 0.75119 0.45118 0.0
O29 O 0.55266 0.62592 0.41309 0.0
O30 O 0.49367 0.6633 0.48119 0.0
C31 C 0.67786 0.85358 0.38247 0.0
O32 O 0.67849 0.87085 0.50037 0.0
Co33 Co 0.85952 0.90636 0.43832 0.0
O34 O 0.82218 0.00336 0.46987 0.0
C35 C 0.78824 0.72712 0.5079 0.0
C36 C 0.47861 0.5999 0.44488 0.0
C37 C 0.74964 0.96612 0.50161 0.0
O38 O 0.69275 0.68994 0.49534 0.0
O39 O 0.86292 0.80894 0.48873 0.0
O40 O 0.58771 0.82401 0.40187 0.0
O41 O 0.73187 0.81954 0.40409 0.0
Co42 Co 0.868 0.63023 0.61787 0.0
O43 O 0.91937 0.55634 0.57977 0.0
O44 O 0.82304 0.49732 0.64788 0.0
C45 C 0.81685 0.6815 0.54916 0.0
O46 O 0.80024 0.68212 0.66707 0.0
Co47 Co 0.94569 0.86318 0.60502 0.0
O48 O 0.81139 0.82583 0.63658 0.0
C49 C 0.05371 0.79192 0.67458 0.0
C50 C 0.87137 0.48227 0.61156 0.0
C51 C 0.77611 0.75327 0.66832 0.0
O52 O -0.00458 0.69642 0.66202 0.0
O53 O 0.04653 0.8666 0.65542 0.0
O54 O 0.75631 0.59134 0.56857 0.0
O55 O 0.90489 0.73553 0.57078 0.0
Co56 Co 0.23037 0.87169 0.78453 0.0
O57 O 0.35562 0.92303 0.74642 0.0
O58 O 0.31831 0.82671 0.81454 0.0
C59 C 0.12795 0.82054 0.71583 0.0
O60 O 0.11075 0.80397 0.83374 0.0
Co61 Co 0.07519 0.94947 0.77168 0.0
O62 O 0.97823 0.81519 0.80326 0.0
C63 C 0.25447 0.05747 0.84122 0.0
C64 C 0.38168 0.87503 0.77822 0.0
C65 C 0.01548 0.77988 0.83499 0.0
O66 O 0.29163 -0.00087 0.82867 0.0
O67 O 0.17264 0.05033 0.82206 0.0
O68 O 0.15756 0.75998 0.73524 0.0
O69 O 0.16198 0.90859 0.73744 0.0
Co70 Co 0.35139 0.23411 0.95118 0.0
O71 O 0.4253 0.35938 0.91309 0.0
O72 O 0.4843 0.32202 0.9812 0.0
C73 C 0.30011 0.13172 0.88247 0.0
O74 O 0.29948 0.11446 1.00037 0.0
Co75 Co 0.11845 0.07894 0.93833 0.0
O76 O 0.15578 0.98195 0.96988 0.0
C77 C 0.18972 0.2582 1.00789 0.0
C78 C 0.49936 0.38541 0.94489 0.0
C79 C 0.22833 0.01919 1.00162 0.0
O80 O 0.28521 0.29537 0.99534 0.0
O81 O 0.11504 0.17637 0.98873 0.0
O82 O 0.39026 0.1613 0.90188 0.0
O83 O 0.2461 0.16576 0.9041 0.0
Co84 Co 0.62657 0.87169 0.76673 0.0
O85 O 0.55266 0.92307 0.80482 0.0
O86 O 0.49366 0.8267 0.73672 0.0
C87 C 0.67784 0.8206 0.83546 0.0
O88 O 0.67849 0.80394 0.71755 0.0
Co89 Co 0.85949 0.94933 0.77957 0.0
O90 O 0.82194 0.81478 0.7482 0.0
C91 C 0.78825 0.05737 0.71001 0.0
C92 C 0.4786 0.87504 0.77302 0.0
C93 C 0.74948 0.77958 0.71642 0.0
O94 O 0.69276 -0.0009 0.72257 0.0
O95 O 0.86291 0.05016 0.72916 0.0
O96 O 0.5877 0.76003 0.81605 0.0
O97 O 0.73187 0.90862 0.81381 0.0
Co98 Co 0.74756 0.6303 0.93341 0.0
O99 O 0.6223 0.55638 0.9715 0.0
O100 O 0.65966 0.49738 0.90339 0.0
C101 C 0.84992 0.68158 1.00213 0.0
O102 O 0.86722 0.68223 0.88422 0.0
Co103 Co 0.90277 0.86324 0.94625 0.0
O104 O -0.00022 0.82571 0.91487 0.0
C105 C 0.72348 0.79198 0.87671 0.0
C106 C 0.59627 0.48232 0.9397 0.0
C107 C 0.96254 0.75324 0.88309 0.0
O108 O 0.68631 0.69648 0.88925 0.0
O109 O 0.80533 0.86666 0.89585 0.0
O110 O 0.82036 0.59143 0.98272 0.0
O111 O 0.81591 0.7356 0.98049 0.0
Co112 Co 0.10994 0.75127 0.10005 0.0
O113 O 0.05859 0.62602 0.13816 0.0
O114 O 0.15491 0.66332 0.07004 0.0
C115 C 0.16107 0.85367 0.16876 0.0
O116 O 0.17766 0.87091 0.05086 0.0
Co117 Co 0.03227 0.90655 0.11289 0.0
O118 O 0.16677 0.00352 0.0815 0.0
C119 C 0.92419 0.72723 0.04337 0.0
C120 C 0.10659 0.59995 0.10636 0.0
C121 C 0.20199 0.96625 0.04972 0.0
O122 O 0.98251 0.69004 0.05591 0.0
O123 O 0.93139 0.8091 0.06251 0.0
O124 O 0.22163 0.82407 0.14935 0.0
O125 O 0.07305 0.81968 0.14714 0.0
Co126 Co 0.3514 0.11362 0.26673 0.0
O127 O 0.4253 0.06224 0.30481 0.0
O128 O 0.4843 0.1586 0.23671 0.0
C129 C 0.30013 0.16471 0.33545 0.0
O130 O 0.29948 0.18137 0.21754 0.0
Co131 Co 0.11848 0.03599 0.27957 0.0
O132 O 0.15603 0.17053 0.2482 0.0
C133 C 0.18971 0.92792 0.21002 0.0
C134 C 0.49936 0.11026 0.27302 0.0
C135 C 0.22849 0.20573 0.21641 0.0
O136 O 0.2852 0.9862 0.22257 0.0
O137 O 0.11505 0.93514 0.22916 0.0
O138 O 0.39027 0.22529 0.31604 0.0
O139 O 0.2461 0.0767 0.31381 0.0
Co140 Co 0.23041 0.35501 0.4334 0.0
O141 O 0.35567 0.42893 0.47149 0.0
O142 O 0.3183 0.48793 0.40339 0.0
C143 C 0.12804 0.30373 0.50212 0.0
O144 O 0.11075 0.30308 0.38421 0.0
Co145 Co 0.0752 0.12207 0.44624 0.0
O146 O 0.97819 0.1596 0.41487 0.0
C147 C 0.25449 0.19333 0.3767 0.0
C148 C 0.3817 0.50299 0.43969 0.0
C149 C 0.01543 0.23207 0.38308 0.0
O150 O 0.29166 0.28883 0.38925 0.0
O151 O 0.17264 0.11866 0.39585 0.0
O152 O 0.1576 0.39388 0.48271 0.0
O153 O 0.16205 0.24971 0.48049 0.0
Co154 Co 0.86802 0.23403 0.60005 0.0
O155 O 0.91937 0.35928 0.63816 0.0
O156 O 0.82305 0.32199 0.57004 0.0
C157 C 0.81688 0.13161 0.66875 0.0
O158 O 0.8003 0.1144 0.55085 0.0
Co159 Co 0.9457 0.07875 0.61288 0.0
O160 O 0.81121 0.98179 0.58148 0.0
C161 C 0.05378 0.25808 0.54336 0.0
C162 C 0.87137 0.38536 0.60636 0.0
C163 C 0.77598 0.01906 0.54971 0.0
O164 O -0.00455 0.29527 0.55591 0.0
O165 O 0.04658 0.17621 0.5625 0.0
O166 O 0.75633 0.16123 0.64935 0.0
O167 O 0.90492 0.16562 0.64713 0.0
loop_
_geom_bond_atom_site_label_1
_geom_bond_atom_site_label_2
_geom_bond_distance
_geom_bond_site_symmetry_2
_ccdc_geom_bond_type
Co0 O1 2.216 . S
Co0 O2 2.091 . S
Co0 O4 2.004 . S
Co0 O10 2.021 . S
Co0 O12 2.137 . S
Co0 O13 2.244 . S
O1 Co0 2.216 . S
O1 C8 1.247 . S
O2 Co0 2.091 . S
O2 C8 1.261 . S
C3 O12 1.247 . S
C3 O13 1.272 . S
O4 Co0 2.004 . S
O4 C9 1.259 . S
Co5 O6 2.061 . S
Co5 O11 2.052 1_455 S
Co5 O13 2.135 . S
O6 Co5 2.061 . S
O6 C9 1.235 . S
C7 O10 1.238 1_655 S
C7 O11 1.241 . S
C8 O1 1.247 . S
C8 O2 1.261 . S
C9 O4 1.259 . S
C9 O6 1.235 . S
O10 Co0 2.021 . S
O10 C7 1.238 1_455 S
O11 Co5 2.052 1_655 S
O11 C7 1.241 . S
O12 Co0 2.137 . S
O12 C3 1.247 . S
O13 Co0 2.244 . S
O13 C3 1.272 . S
O13 Co5 2.135 . S
Co14 O15 2.216 . S
Co14 O16 2.091 . S
Co14 O18 2.004 . S
Co14 O24 2.021 . S
Co14 O26 2.137 . S
Co14 O27 2.244 . S
O15 Co14 2.216 . S
O15 C22 1.247 . S
O16 Co14 2.091 . S
O16 C22 1.261 . S
C17 O26 1.247 . S
C17 O27 1.272 . S
O18 Co14 2.004 . S
O18 C23 1.259 . S
Co19 O20 2.061 . S
Co19 O25 2.052 1_545 S
Co19 O27 2.135 . S
O20 Co19 2.061 . S
O20 C23 1.235 . S
C21 O24 1.238 1_565 S
C21 O25 1.241 . S
C22 O15 1.247 . S
C22 O16 1.261 . S
C23 O18 1.259 . S
C23 O20 1.235 . S
O24 Co14 2.021 . S
O24 C21 1.238 1_545 S
O25 Co19 2.052 1_565 S
O25 C21 1.241 . S
O26 Co14 2.137 . S
O26 C17 1.247 . S
O27 Co14 2.244 . S
O27 C17 1.272 . S
O27 Co19 2.135 . S
Co28 O29 2.216 . S
Co28 O30 2.091 . S
Co28 O32 2.004 . S
Co28 O38 2.021 . S
Co28 O40 2.137 . S
Co28 O41 2.244 . S
O29 Co28 2.216 . S
O29 C36 1.247 . S
O30 Co28 2.091 . S
O30 C36 1.261 . S
C31 O40 1.247 . S
C31 O41 1.272 . S
O32 Co28 2.004 . S
O32 C37 1.259 . S
Co33 O34 2.061 . S
Co33 O39 2.052 . S
Co33 O41 2.135 . S
O34 Co33 2.061 . S
O34 C37 1.235 . S
C35 O38 1.238 . S
C35 O39 1.241 . S
C36 O29 1.247 . S
C36 O30 1.261 . S
C37 O32 1.259 . S
C37 O34 1.235 . S
O38 Co28 2.021 . S
O38 C35 1.238 . S
O39 Co33 2.052 . S
O39 C35 1.241 . S
O40 Co28 2.137 . S
O40 C31 1.247 . S
O41 Co28 2.244 . S
O41 C31 1.272 . S
O41 Co33 2.135 . S
Co42 O43 2.216 . S
Co42 O44 2.091 . S
Co42 O46 2.004 . S
Co42 O52 2.021 . S
Co42 O54 2.137 . S
Co42 O55 2.244 . S
O43 Co42 2.216 . S
O43 C50 1.247 . S
O44 Co42 2.091 . S
O44 C50 1.261 . S
C45 O54 1.247 . S
C45 O55 1.272 . S
O46 Co42 2.004 . S
O46 C51 1.259 . S
Co47 O48 2.061 . S
Co47 O53 2.052 1_655 S
Co47 O55 2.135 . S
O48 Co47 2.061 . S
O48 C51 1.235 . S
C49 O52 1.238 1_455 S
C49 O53 1.241 . S
C50 O43 1.247 . S
C50 O44 1.261 . S
C51 O46 1.259 . S
C51 O48 1.235 . S
O52 Co42 2.021 . S
O52 C49 1.238 1_655 S
O53 Co47 2.052 1_455 S
O53 C49 1.241 . S
O54 Co42 2.137 . S
O54 C45 1.247 . S
O55 Co42 2.244 . S
O55 C45 1.272 . S
O55 Co47 2.135 . S
Co56 O57 2.216 . S
Co56 O58 2.091 . S
Co56 O60 2.004 . S
Co56 O66 2.021 . S
Co56 O68 2.137 . S
Co56 O69 2.244 . S
O57 Co56 2.216 . S
O57 C64 1.247 . S
O58 Co56 2.091 . S
O58 C64 1.261 . S
C59 O68 1.247 . S
C59 O69 1.272 . S
O60 Co56 2.004 . S
O60 C65 1.259 . S
Co61 O62 2.061 . S
Co61 O67 2.052 1_565 S
Co61 O69 2.135 . S
O62 Co61 2.061 . S
O62 C65 1.235 . S
C63 O66 1.238 1_545 S
C63 O67 1.241 . S
C64 O57 1.247 . S
C64 O58 1.261 . S
C65 O60 1.259 . S
C65 O62 1.235 . S
O66 Co56 2.021 . S
O66 C63 1.238 1_565 S
O67 Co61 2.052 1_545 S
O67 C63 1.241 . S
O68 Co56 2.137 . S
O68 C59 1.247 . S
O69 Co56 2.244 . S
O69 C59 1.272 . S
O69 Co61 2.135 . S
Co70 O71 2.216 . S
Co70 O72 2.091 . S
Co70 O74 2.004 . S
Co70 O80 2.021 . S
Co70 O82 2.137 . S
Co70 O83 2.244 . S
O71 Co70 2.216 . S
O71 C78 1.247 . S
O72 Co70 2.091 . S
O72 C78 1.261 . S
C73 O82 1.247 . S
C73 O83 1.272 . S
O74 Co70 2.004 . S
O74 C79 1.259 . S
Co75 O76 2.061 . S
Co75 O81 2.052 . S
Co75 O83 2.135 . S
O76 Co75 2.061 . S
O76 C79 1.235 . S
C77 O80 1.238 . S
C77 O81 1.241 . S
C78 O71 1.247 . S
C78 O72 1.261 . S
C79 O74 1.259 . S
C79 O76 1.235 . S
O80 Co70 2.021 . S
O80 C77 1.238 . S
O81 Co75 2.052 . S
O81 C77 1.241 . S
O82 Co70 2.137 . S
O82 C73 1.247 . S
O83 Co70 2.244 . S
O83 C73 1.272 . S
O83 Co75 2.135 . S
Co84 O85 2.216 . S
Co84 O86 2.091 . S
Co84 O88 2.004 . S
Co84 O94 2.021 . S
Co84 O96 2.137 . S
Co84 O97 2.244 . S
O85 Co84 2.216 . S
O85 C92 1.247 . S
O86 Co84 2.091 . S
O86 C92 1.261 . S
C87 O96 1.247 . S
C87 O97 1.272 . S
O88 Co84 2.004 . S
O88 C93 1.259 . S
Co89 O90 2.061 . S
Co89 O95 2.052 1_565 S
Co89 O97 2.135 . S
O90 Co89 2.061 . S
O90 C93 1.235 . S
C91 O94 1.238 1_545 S
C91 O95 1.241 . S
C92 O85 1.247 . S
C92 O86 1.261 . S
C93 O88 1.259 . S
C93 O90 1.235 . S
O94 Co84 2.021 . S
O94 C91 1.238 1_565 S
O95 Co89 2.052 1_545 S
O95 C91 1.241 . S
O96 Co84 2.137 . S
O96 C87 1.247 . S
O97 Co84 2.244 . S
O97 C87 1.272 . S
O97 Co89 2.135 . S
Co98 O99 2.216 . S
Co98 O100 2.091 . S
Co98 O102 2.004 . S
Co98 O108 2.021 . S
Co98 O110 2.137 . S
Co98 O111 2.244 . S
O99 Co98 2.216 . S
O99 C106 1.247 . S
O100 Co98 2.091 . S
O100 C106 1.261 . S
C101 O110 1.247 . S
C101 O111 1.272 . S
O102 Co98 2.004 . S
O102 C107 1.259 . S
Co103 O104 2.061 . S
Co103 O109 2.052 . S
Co103 O111 2.135 . S
O104 Co103 2.061 . S
O104 C107 1.235 . S
C105 O108 1.238 . S
C105 O109 1.241 . S
C106 O99 1.247 . S
C106 O100 1.261 . S
C107 O102 1.259 . S
C107 O104 1.235 . S
O108 Co98 2.021 . S
O108 C105 1.238 . S
O109 Co103 2.052 . S
O109 C105 1.241 . S
O110 Co98 2.137 . S
O110 C101 1.247 . S
O111 Co98 2.244 . S
O111 C101 1.272 . S
O111 Co103 2.135 . S
Co112 O113 2.216 . S
Co112 O114 2.091 . S
Co112 O116 2.004 . S
Co112 O122 2.021 . S
Co112 O124 2.137 . S
Co112 O125 2.244 . S
O113 Co112 2.216 . S
O113 C120 1.247 . S
O114 Co112 2.091 . S
O114 C120 1.261 . S
C115 O124 1.247 . S
C115 O125 1.272 . S
O116 Co112 2.004 . S
O116 C121 1.259 . S
Co117 O118 2.061 . S
Co117 O123 2.052 1_455 S
Co117 O125 2.135 . S
O118 Co117 2.061 . S
O118 C121 1.235 . S
C119 O122 1.238 1_655 S
C119 O123 1.241 . S
C120 O113 1.247 . S
C120 O114 1.261 . S
C121 O116 1.259 . S
C121 O118 1.235 . S
O122 Co112 2.021 . S
O122 C119 1.238 1_455 S
O123 Co117 2.052 1_655 S
O123 C119 1.241 . S
O124 Co112 2.137 . S
O124 C115 1.247 . S
O125 Co112 2.244 . S
O125 C115 1.272 . S
O125 Co117 2.135 . S
Co126 O127 2.216 . S
Co126 O128 2.091 . S
Co126 O130 2.004 . S
Co126 O136 2.021 . S
Co126 O138 2.137 . S
Co126 O139 2.244 . S
O127 Co126 2.216 . S
O127 C134 1.247 . S
O128 Co126 2.091 . S
O128 C134 1.261 . S
C129 O138 1.247 . S
C129 O139 1.272 . S
O130 Co126 2.004 . S
O130 C135 1.259 . S
Co131 O132 2.061 . S
Co131 O137 2.052 1_545 S
Co131 O139 2.135 . S
O132 Co131 2.061 . S
O132 C135 1.235 . S
C133 O136 1.238 1_565 S
C133 O137 1.241 . S
C134 O127 1.247 . S
C134 O128 1.261 . S
C135 O130 1.259 . S
C135 O132 1.235 . S
O136 Co126 2.021 . S
O136 C133 1.238 1_545 S
O137 Co131 2.052 1_565 S
O137 C133 1.241 . S
O138 Co126 2.137 . S
O138 C129 1.247 . S
O139 Co126 2.244 . S
O139 C129 1.272 . S
O139 Co131 2.135 . S
Co140 O141 2.216 . S
Co140 O142 2.091 . S
Co140 O144 2.004 . S
Co140 O150 2.021 . S
Co140 O152 2.137 . S
Co140 O153 2.244 . S
O141 Co140 2.216 . S
O141 C148 1.247 . S
O142 Co140 2.091 . S
O142 C148 1.261 . S
C143 O152 1.247 . S
C143 O153 1.272 . S
O144 Co140 2.004 . S
O144 C149 1.259 . S
Co145 O146 2.061 . S
Co145 O151 2.052 . S
Co145 O153 2.135 . S
O146 Co145 2.061 . S
O146 C149 1.235 . S
C147 O150 1.238 . S
C147 O151 1.241 . S
C148 O141 1.247 . S
C148 O142 1.261 . S
C149 O144 1.259 . S
C149 O146 1.235 . S
O150 Co140 2.021 . S
O150 C147 1.238 . S
O151 Co145 2.052 . S
O151 C147 1.241 . S
O152 Co140 2.137 . S
O152 C143 1.247 . S
O153 Co140 2.244 . S
O153 C143 1.272 . S
O153 Co145 2.135 . S
Co154 O155 2.216 . S
Co154 O156 2.091 . S
Co154 O158 2.004 . S
Co154 O164 2.021 . S
Co154 O166 2.137 . S
Co154 O167 2.244 . S
O155 Co154 2.216 . S
O155 C162 1.247 . S
O156 Co154 2.091 . S
O156 C162 1.261 . S
C157 O166 1.247 . S
C157 O167 1.272 . S
O158 Co154 2.004 . S
O158 C163 1.259 . S
Co159 O160 2.061 . S
Co159 O165 2.052 1_655 S
Co159 O167 2.135 . S
O160 Co159 2.061 . S
O160 C163 1.235 . S
C161 O164 1.238 1_455 S
C161 O165 1.241 . S
C162 O155 1.247 . S
C162 O156 1.261 . S
C163 O158 1.259 . S
C163 O160 1.235 . S
O164 Co154 2.021 . S
O164 C161 1.238 1_655 S
O165 Co159 2.052 1_455 S
O165 C161 1.241 . S
O166 Co154 2.137 . S
O166 C157 1.247 . S
O167 Co154 2.244 . S
O167 C157 1.272 . S
O167 Co159 2.135 . S
C120 C8 1.353 . S
C22 C134 1.353 . S
C36 C148 1.353 . S
C50 C162 1.353 . S
C92 C64 1.353 . S
C78 C106 1.353 . S
C135 C9 0.968 . S
C23 C149 0.968 1_655 S
C163 C37 0.968 1_545 S
C51 C93 0.968 . S
C107 C65 0.968 1_655 S
C121 C79 0.968 1_564 S
C3 C77 1.496 1_554 S
C17 C7 1.497 . S
C21 C31 1.497 . S
C45 C35 1.496 . S
C59 C49 1.497 . S
C73 C63 1.497 . S
C87 C105 1.496 . S
C101 C119 1.497 1_556 S
C115 C133 1.497 . S
C129 C147 1.496 . S
C143 C161 1.497 . S
C91 C157 1.497 . S
