# Generated by pormake.
# Topology kag, (6)-cn, num edge types: 1
# Building blocks:
#     Node 0, Type 0, BuildingBlock: MIDCAF_clean_sbu_0, # of connection points: 6
#     Node 1, Type 0, BuildingBlock: MIDCAF_clean_sbu_0, # of connection points: 6
#     Node 2, Type 0, BuildingBlock: MIDCAF_clean_sbu_0, # of connection points: 6
#     Edge 3, Type (0, 0), BuildingBlock: EYOCIG_clean_linker_4, # of connection points: 2
#     Edge 4, Type (0, 0), BuildingBlock: EYOCIG_clean_linker_4, # of connection points: 2
#     Edge 5, Type (0, 0), BuildingBlock: EYOCIG_clean_linker_4, # of connection points: 2
#     Edge 6, Type (0, 0), BuildingBlock: EYOCIG_clean_linker_4, # of connection points: 2
#     Edge 7, Type (0, 0), BuildingBlock: EYOCIG_clean_linker_4, # of connection points: 2
#     Edge 8, Type (0, 0), BuildingBlock: EYOCIG_clean_linker_4, # of connection points: 2
#     Edge 9, Type (0, 0), BuildingBlock: EYOCIG_clean_linker_4, # of connection points: 2
#     Edge 10, Type (0, 0), BuildingBlock: EYOCIG_clean_linker_4, # of connection points: 2
#     Edge 11, Type (0, 0), BuildingBlock: EYOCIG_clean_linker_4, # of connection points: 2
# Relax obj value: 0.346
# Max RMSD: 0.270
# Mean RMSD: 0.266
data_MOF--net-kag--node1-MIDCAF_clean_sbu_0--edge1-EYOCIG_clean_linker_4
_symmetry_space_group_name_H-M    P1
_symmetry_Int_Tables_number       1
_symmetry_cell_setting            triclinic
loop_
_symmetry_equiv_pos_as_xyz
'x, y, z'
_cell_length_a     23.575042
_cell_length_b     23.476386
_cell_length_c     12.332223
_cell_angle_alpha  91.307426
_cell_angle_beta   92.265149
_cell_angle_gamma 120.43011
loop_
_atom_site_label
_atom_site_type_symbol
_atom_site_fract_x
_atom_site_fract_y
_atom_site_fract_z
_atom_type_partial_charge
Zn0 Zn 0.01976 0.45267 0.92004 0.0
Zn1 Zn -0.00254 0.69436 0.15668 0.0
Zn2 Zn 0.02857 0.56253 0.00098 0.0
C3 C 0.08273 0.71328 0.01997 0.0
C4 C 0.06311 0.61163 0.25207 0.0
O5 O 0.92485 0.48585 0.99747 0.0
O6 O 0.92514 0.39432 0.9544 0.0
C7 C 0.0661 0.54993 0.76411 0.0
O8 O 0.03698 0.65303 0.0175 0.0
O9 O 0.07085 0.75574 0.06108 0.0
O10 O 0.03515 0.64616 0.2497 0.0
O11 O 0.07141 0.58399 0.16681 0.0
O12 O 0.03976 0.48816 0.77131 0.0
O13 O 0.07158 0.58681 0.84616 0.0
O14 O 0.09567 0.54891 0.11038 0.0
O15 O 0.09576 0.46623 0.02011 0.0
C16 C 0.11866 0.51008 0.09683 0.0
O17 O 0.94873 0.57986 0.01298 0.0
O18 O 0.90693 0.63744 0.08048 0.0
C19 C 0.89436 0.42299 0.9816 0.0
C20 C 0.90072 0.59008 0.01993 0.0
Zn21 Zn 0.32061 0.0325 0.84829 0.0
Zn22 Zn 0.5817 0.02775 0.09717 0.0
Zn23 Zn 0.47392 0.02492 0.00555 0.0
C24 C 0.52111 0.92968 0.921 0.0
C25 C 0.48305 0.98437 0.24694 0.0
O26 O 0.42453 0.07533 0.96258 0.0
O27 O 0.3752 0.12789 0.9104 0.0
C28 C 0.41659 0.98041 0.75634 0.0
O29 O 0.4843 0.95464 0.90508 0.0
O30 O 0.56489 0.95126 0.99809 0.0
O31 O 0.5442 0.00698 0.24325 0.0
O32 O 0.44884 0.98335 0.16322 0.0
O33 O 0.37504 0.00018 0.75956 0.0
O34 O 0.45132 0.9801 0.84032 0.0
O35 O 0.3768 0.00448 0.99366 0.0
O36 O 0.27165 0.96149 0.95673 0.0
C37 C 0.31826 0.95523 0.99729 0.0
O38 O 0.55556 0.1263 0.00882 0.0
O39 O 0.64341 0.12192 0.06345 0.0
C40 C 0.42417 0.12949 0.95931 0.0
C41 C 0.61772 0.15461 0.02969 0.0
Zn42 Zn 0.38794 0.44135 0.91876 0.0
Zn43 Zn 0.60395 0.63516 0.07146 0.0
Zn44 Zn 0.49769 0.53694 0.99591 0.0
C45 C 0.6367 0.55417 0.94767 0.0
C46 C 0.53196 0.55527 0.24607 0.0
O47 O 0.42256 0.50561 0.11784 0.0
O48 O 0.34034 0.47733 0.99685 0.0
C49 C 0.4772 0.48456 0.76107 0.0
O50 O 0.57357 0.51674 0.93958 0.0
O51 O 0.66347 0.61039 0.99675 0.0
O52 O 0.58564 0.60656 0.22696 0.0
O53 O 0.48794 0.52303 0.16901 0.0
O54 O 0.41858 0.47119 0.76942 0.0
O55 O 0.51361 0.49315 0.84753 0.0
O56 O 0.51498 0.45756 0.9528 0.0
O57 O 0.41587 0.38155 0.99669 0.0
C58 C 0.47603 0.40013 0.98789 0.0
O59 O 0.48908 0.60893 0.91313 0.0
O60 O 0.57542 0.69438 0.99802 0.0
C61 C 0.36471 0.49562 0.09276 0.0
C62 C 0.52624 0.67092 0.93001 0.0
C63 C 0.09429 0.58986 0.5655 0.0
C64 C 0.08337 0.57647 0.65898 0.0
C65 C 0.09405 0.59755 0.45241 0.0
C66 C 0.08257 0.60082 0.35745 0.0
C67 C 0.43991 0.95342 0.44291 0.0
C68 C 0.45451 0.96581 0.35021 0.0
C69 C 0.43165 0.95228 0.5558 0.0
C70 C 0.42843 0.96338 0.65059 0.0
C71 C 0.5123 0.50332 0.55961 0.0
C72 C 0.50276 0.49575 0.65501 0.0
C73 C 0.5174 0.51726 0.44825 0.0
C74 C 0.52185 0.53272 0.3549 0.0
C75 C 0.2248 0.51987 0.19265 0.0
C76 C 0.17672 0.52108 0.15845 0.0
C77 C 0.28242 0.51527 0.19734 0.0
C78 C 0.32729 0.5091 0.16759 0.0
C79 C 0.70644 0.27975 0.0069 0.0
C80 C 0.66078 0.224 0.01373 0.0
C81 C 0.76782 0.33916 0.00072 0.0
C82 C 0.82453 0.3827 0.99475 0.0
C83 C 0.50435 0.81929 0.8369 0.0
C84 C 0.50609 0.86961 0.86407 0.0
C85 C 0.5058 0.76044 0.84416 0.0
C86 C 0.51061 0.71535 0.87781 0.0
C87 C 0.78623 0.52982 0.91572 0.0
C88 C 0.84083 0.55124 0.95564 0.0
C89 C 0.72356 0.52202 0.89893 0.0
C90 C 0.67763 0.52927 0.91419 0.0
C91 C 0.20883 0.76982 0.00701 0.0
C92 C 0.15011 0.73305 0.00559 0.0
C93 C 0.26894 0.83044 0.01685 0.0
C94 C 0.30421 0.88952 0.01608 0.0
C95 C 0.51052 0.31206 0.02484 0.0
C96 C 0.49906 0.35532 0.00657 0.0
C97 C 0.5036 0.24928 0.02689 0.0
C98 C 0.4761 0.19099 0.00556 0.0
loop_
_geom_bond_atom_site_label_1
_geom_bond_atom_site_label_2
_geom_bond_distance
_geom_bond_site_symmetry_2
_ccdc_geom_bond_type
Zn0 O6 1.920 1_455 S
Zn0 O12 1.898 . S
Zn0 O15 1.905 . S
Zn1 O9 1.905 . S
Zn1 O10 1.898 . S
Zn1 O18 1.920 1_455 S
Zn2 O5 2.080 1_455 S
Zn2 O8 2.114 . S
Zn2 O11 2.120 . S
Zn2 O13 2.120 1_554 S
Zn2 O14 2.114 . S
Zn2 O17 2.080 1_454 S
C3 O8 1.166 . S
C3 O9 1.182 . S
C4 O10 1.167 . S
C4 O11 1.299 . S
O5 Zn2 2.080 1_655 S
O5 C19 1.305 1_554 S
O6 Zn0 1.920 1_655 S
O6 C19 1.234 . S
C7 O12 1.167 . S
C7 O13 1.299 . S
O8 Zn2 2.114 . S
O8 C3 1.166 . S
O9 Zn1 1.905 . S
O9 C3 1.182 . S
O10 Zn1 1.898 . S
O10 C4 1.167 . S
O11 Zn2 2.120 . S
O11 C4 1.299 . S
O12 Zn0 1.898 . S
O12 C7 1.167 . S
O13 Zn2 2.120 1_556 S
O13 C7 1.299 . S
O14 Zn2 2.114 . S
O14 C16 1.167 . S
O15 Zn0 1.905 . S
O15 C16 1.182 1_556 S
C16 O14 1.167 . S
C16 O15 1.182 1_554 S
O17 Zn2 2.080 1_656 S
O17 C20 1.305 1_556 S
O18 Zn1 1.920 1_655 S
O18 C20 1.234 . S
C19 O5 1.305 1_556 S
C19 O6 1.234 . S
C20 O17 1.305 1_554 S
C20 O18 1.234 . S
Zn21 O27 1.920 . S
Zn21 O33 1.898 1_545 S
Zn21 O36 1.905 1_545 S
Zn22 O30 1.905 1_545 S
Zn22 O31 1.899 1_545 S
Zn22 O39 1.920 . S
Zn23 O26 2.080 . S
Zn23 O29 2.114 1_545 S
Zn23 O32 2.120 . S
Zn23 O34 2.120 1_554 S
Zn23 O35 2.114 1_544 S
Zn23 O38 2.080 1_554 S
C24 O29 1.166 . S
C24 O30 1.182 . S
C25 O31 1.159 1_545 S
C25 O32 1.299 . S
O26 Zn23 2.080 . S
O26 C40 1.305 1_554 S
O27 Zn21 1.920 . S
O27 C40 1.234 . S
C28 O33 1.167 1_545 S
C28 O34 1.299 . S
O29 Zn23 2.114 1_565 S
O29 C24 1.166 . S
O30 Zn22 1.905 1_565 S
O30 C24 1.182 . S
O31 Zn22 1.899 1_565 S
O31 C25 1.159 1_565 S
O32 Zn23 2.120 . S
O32 C25 1.299 . S
O33 Zn21 1.898 1_565 S
O33 C28 1.167 1_565 S
O34 Zn23 2.120 1_556 S
O34 C28 1.299 . S
O35 Zn23 2.114 1_566 S
O35 C37 1.166 . S
O36 Zn21 1.905 1_565 S
O36 C37 1.182 . S
C37 O35 1.166 . S
C37 O36 1.182 . S
O38 Zn23 2.080 1_556 S
O38 C41 1.305 1_556 S
O39 Zn22 1.920 . S
O39 C41 1.234 . S
C40 O26 1.305 1_556 S
C40 O27 1.234 . S
C41 O38 1.305 1_554 S
C41 O39 1.234 . S
Zn42 O48 1.920 . S
Zn42 O54 1.898 . S
Zn42 O57 1.905 . S
Zn43 O51 1.905 . S
Zn43 O52 1.898 . S
Zn43 O60 1.920 . S
Zn44 O47 2.080 . S
Zn44 O50 2.114 . S
Zn44 O53 2.120 . S
Zn44 O55 2.120 1_554 S
Zn44 O56 2.114 1_554 S
Zn44 O59 2.080 1_554 S
C45 O50 1.166 . S
C45 O51 1.182 . S
C46 O52 1.167 . S
C46 O53 1.299 . S
O47 Zn44 2.080 . S
O47 C61 1.305 1_554 S
O48 Zn42 1.920 . S
O48 C61 1.234 . S
C49 O54 1.167 . S
C49 O55 1.299 . S
O50 Zn44 2.114 . S
O50 C45 1.166 . S
O51 Zn43 1.905 . S
O51 C45 1.182 . S
O52 Zn43 1.898 . S
O52 C46 1.167 . S
O53 Zn44 2.120 . S
O53 C46 1.299 . S
O54 Zn42 1.898 . S
O54 C49 1.167 . S
O55 Zn44 2.120 1_556 S
O55 C49 1.299 . S
O56 Zn44 2.114 1_556 S
O56 C58 1.166 . S
O57 Zn42 1.905 . S
O57 C58 1.182 . S
C58 O56 1.166 . S
C58 O57 1.182 . S
O59 Zn44 2.080 1_556 S
O59 C62 1.305 1_556 S
O60 Zn43 1.920 . S
O60 C62 1.234 . S
C61 O47 1.305 1_556 S
C61 O48 1.234 . S
C62 O59 1.305 1_554 S
C62 O60 1.234 . S
C63 C64 1.170 . S
C63 C65 1.380 . S
C64 C63 1.170 . S
C65 C63 1.380 . S
C65 C66 1.170 . S
C66 C65 1.170 . S
C67 C68 1.170 . S
C67 C69 1.380 . S
C68 C67 1.170 . S
C69 C67 1.380 . S
C69 C70 1.170 . S
C70 C69 1.170 . S
C71 C72 1.170 . S
C71 C73 1.380 . S
C72 C71 1.170 . S
C73 C71 1.380 . S
C73 C74 1.170 . S
C74 C73 1.170 . S
C75 C76 1.170 . S
C75 C77 1.380 1_554 S
C76 C75 1.170 . S
C77 C75 1.380 1_556 S
C77 C78 1.170 . S
C78 C77 1.170 . S
C79 C80 1.170 . S
C79 C81 1.380 1_554 S
C80 C79 1.170 . S
C81 C79 1.380 1_556 S
C81 C82 1.170 . S
C82 C81 1.170 . S
C83 C84 1.170 . S
C83 C85 1.380 1_556 S
C84 C83 1.170 . S
C85 C83 1.380 1_554 S
C85 C86 1.170 . S
C86 C85 1.170 . S
C87 C88 1.170 . S
C87 C89 1.380 1_554 S
C88 C87 1.170 . S
C89 C87 1.380 1_556 S
C89 C90 1.170 . S
C90 C89 1.170 . S
C91 C92 1.170 . S
C91 C93 1.380 1_556 S
C92 C91 1.170 . S
C93 C91 1.380 1_554 S
C93 C94 1.170 . S
C94 C93 1.170 . S
C95 C96 1.170 . S
C95 C97 1.380 1_554 S
C96 C95 1.170 . S
C97 C95 1.380 1_556 S
C97 C98 1.170 . S
C98 C97 1.170 . S
C64 C7 1.301 . S
C66 C4 1.354 . S
C68 C25 1.357 1_565 S
C70 C28 1.297 1_565 S
C72 C49 1.329 . S
C74 C46 1.317 . S
C76 C16 1.185 . S
C78 C61 1.309 . S
C80 C41 1.540 . S
C82 C19 1.546 . S
C84 C24 1.154 1_556 S
C86 C62 1.277 . S
C88 C20 1.042 . S
C90 C45 1.001 1_556 S
C92 C3 0.740 1_556 S
C94 C37 0.811 1_554 S
C96 C58 0.913 1_554 S
C98 C40 1.008 . S
