# Generated by pormake.
# Topology sqp, (5)-cn, num edge types: 1
# Building blocks:
#     Node 0, Type 0, BuildingBlock: BEQFEK_clean_sbu_0, # of connection points: 5
#     Node 1, Type 0, BuildingBlock: BEQFEK_clean_sbu_0, # of connection points: 5
#     Node 2, Type 0, BuildingBlock: BEQFEK_clean_sbu_0, # of connection points: 5
#     Node 3, Type 0, BuildingBlock: BEQFEK_clean_sbu_0, # of connection points: 5
#     Edge 4, Type (0, 0), BuildingBlock: AJUNOK_clean_linker_0, # of connection points: 2
#     Edge 5, Type (0, 0), BuildingBlock: AJUNOK_clean_linker_0, # of connection points: 2
#     Edge 6, Type (0, 0), BuildingBlock: AJUNOK_clean_linker_0, # of connection points: 2
#     Edge 7, Type (0, 0), BuildingBlock: AJUNOK_clean_linker_0, # of connection points: 2
#     Edge 8, Type (0, 0), BuildingBlock: AJUNOK_clean_linker_0, # of connection points: 2
#     Edge 9, Type (0, 0), BuildingBlock: AJUNOK_clean_linker_0, # of connection points: 2
#     Edge 10, Type (0, 0), BuildingBlock: AJUNOK_clean_linker_0, # of connection points: 2
#     Edge 11, Type (0, 0), BuildingBlock: AJUNOK_clean_linker_0, # of connection points: 2
#     Edge 12, Type (0, 0), BuildingBlock: AJUNOK_clean_linker_0, # of connection points: 2
#     Edge 13, Type (0, 0), BuildingBlock: AJUNOK_clean_linker_0, # of connection points: 2
# Relax obj value: 0.029
# Max RMSD: 0.079
# Mean RMSD: 0.079
data_MOF--net-sqp--node1-BEQFEK_clean_sbu_0--edge1-AJUNOK_clean_linker_0
_symmetry_space_group_name_H-M    P1
_symmetry_Int_Tables_number       1
_symmetry_cell_setting            triclinic
loop_
_symmetry_equiv_pos_as_xyz
'x, y, z'
_cell_length_a     18.847244
_cell_length_b     18.817944
_cell_length_c     29.596023
_cell_angle_alpha  95.784233
_cell_angle_beta   96.048714
_cell_angle_gamma 105.03444
loop_
_atom_site_label
_atom_site_type_symbol
_atom_site_fract_x
_atom_site_fract_y
_atom_site_fract_z
_atom_type_partial_charge
Co0 Co 0.0657 0.93861 0.29018 0.0
Co1 Co 0.9665 0.05065 0.29519 0.0
C2 C 0.8991 0.89149 0.25925 0.0
O3 O 0.9623 0.8786 0.26612 0.0
O4 O 0.89239 0.95703 0.26737 0.0
C5 C 0.11678 0.81168 0.2588 0.0
O6 O 0.04592 0.77617 0.25224 0.0
C7 C 0.87229 0.14929 0.27013 0.0
C8 C 0.90905 0.23809 0.32921 0.0
C9 C 0.86268 0.21697 0.28787 0.0
N10 N 0.9232 0.13222 0.29938 0.0
N11 N 0.94451 0.18544 0.33466 0.0
C12 C 0.83265 0.10049 0.22698 0.0
H13 H 0.82076 0.0415 0.23241 0.0
H14 H 0.86895 0.10859 0.19969 0.0
H15 H 0.77998 0.11346 0.21551 0.0
C16 C 0.15643 0.05978 0.24763 0.0
N17 N 0.09291 0.0276 0.26341 0.0
N18 N 0.05108 0.07375 0.2644 0.0
C19 C 0.08678 0.13673 0.24915 0.0
C20 C 0.15469 0.13003 0.23818 0.0
C21 C 0.22142 0.02794 0.24795 0.0
H22 H 0.23484 0.01289 0.2825 0.0
H23 H 0.20651 0.97654 0.223 0.0
H24 H 0.27107 0.06744 0.23897 0.0
O25 O 0.07093 0.96195 0.35754 0.0
O26 O 0.99804 0.03757 0.35878 0.0
H27 H 0.0599 0.22947 0.2839 0.0
H28 H 0.09401 0.24626 0.23009 0.0
C29 C 0.05922 0.20439 0.24826 0.0
H30 H 1.00149 0.18859 0.23063 0.0
H31 H 0.98436 0.1865 0.36215 0.0
O32 O 0.13663 0.87963 0.27601 0.0
C33 C 0.03834 1.00291 0.3796 0.0
Co34 Co 0.09759 0.96581 0.6654 0.0
Co35 Co 0.99138 0.07035 0.66188 0.0
C36 C 0.14678 0.12975 0.70463 0.0
O37 O 0.15732 0.06631 0.69426 0.0
O38 O 0.08282 0.13999 0.69609 0.0
C39 C 0.17683 0.89722 0.72342 0.0
O40 O 0.15696 0.94326 0.75268 0.0
C41 C 0.89315 0.16082 0.69019 0.0
C42 C 0.81514 0.14516 0.62647 0.0
C43 C 0.82979 0.17841 0.67168 0.0
N44 N 0.91412 0.11886 0.65738 0.0
N45 N 0.86787 0.11065 0.61925 0.0
C46 C 0.9293 0.17668 0.73899 0.0
H47 H 0.95708 0.13328 0.74704 0.0
H48 H 0.88809 0.1798 0.76276 0.0
H49 H 0.97254 0.23059 0.74398 0.0
C50 C 0.96817 0.87048 0.6995 0.0
N51 N 1.0045 0.93598 0.68741 0.0
N52 N 0.96053 0.98015 0.68703 0.0
C53 C 0.89485 0.94396 0.6989 0.0
C54 C 0.89781 0.87361 0.70737 0.0
C55 C 0.99642 0.80299 0.69767 0.0
H56 H 0.02958 0.80125 0.66899 0.0
H57 H 0.03235 0.80536 0.73028 0.0
H58 H 0.95018 0.75135 0.69328 0.0
O59 O 0.08205 0.96888 0.5984 0.0
O60 O 1.01164 0.04698 0.59881 0.0
H61 H 0.81216 0.98679 0.66483 0.0
H62 H 0.78123 0.9349 0.71061 0.0
C63 C 0.8289 0.97426 0.69953 0.0
H64 H 0.84374 0.02631 0.72367 0.0
H65 H 0.87089 0.07941 0.58869 0.0
O66 O 0.15781 0.89656 0.68082 0.0
C67 C 0.04638 0.00763 0.5774 0.0
Co68 Co 0.57035 0.43914 0.79182 0.0
Co69 Co 0.46563 0.5463 0.79384 0.0
C70 C 0.40374 0.38657 0.75999 0.0
O71 O 0.46804 0.37724 0.76888 0.0
O72 O 0.39368 0.45116 0.76545 0.0
C73 C 0.62406 0.32717 0.74555 0.0
O74 O 0.55766 0.31057 0.72183 0.0
C75 C 0.36915 0.64426 0.76962 0.0
C76 C 0.39912 0.72659 0.83201 0.0
C77 C 0.35477 0.70826 0.78986 0.0
N78 N 0.41972 0.62611 0.79862 0.0
N79 N 0.43711 0.67567 0.8358 0.0
C80 C 0.3344 0.6001 0.72415 0.0
H81 H 0.33669 0.54179 0.72357 0.0
H82 H 0.36559 0.62432 0.69705 0.0
H83 H 0.27599 0.60185 0.71642 0.0
C84 C 0.65844 0.56078 0.74876 0.0
N85 N 0.59504 0.52733 0.76411 0.0
N86 N 0.55169 0.57206 0.7644 0.0
C87 C 0.58661 0.63571 0.74947 0.0
C88 C 0.65561 0.63077 0.7394 0.0
C89 C 0.72235 0.52792 0.74595 0.0
H90 H 0.74259 0.51783 0.78065 0.0
H91 H 0.70333 0.47383 0.72354 0.0
H92 H 0.76844 0.56456 0.73175 0.0
O93 O 0.57453 0.46343 0.85894 0.0
O94 O 0.49567 0.53278 0.85753 0.0
H95 H 0.55484 0.7226 0.78727 0.0
H96 H 0.59645 0.74955 0.73734 0.0
C97 C 0.55909 0.7036 0.75122 0.0
H98 H 0.50309 0.68977 0.73119 0.0
H99 H 0.47558 0.67512 0.8637 0.0
O100 O 0.64163 0.37998 0.77857 0.0
C101 C 0.53749 0.50109 0.87966 0.0
Co102 Co 0.59777 0.47035 0.16595 0.0
Co103 Co 0.48599 0.56869 0.162 0.0
C104 C 0.64213 0.63422 0.2036 0.0
O105 O 0.65553 0.57182 0.19428 0.0
O106 O 0.5769 0.64117 0.19483 0.0
C107 C 0.68484 0.40542 0.22192 0.0
O108 O 0.6658 0.44976 0.25273 0.0
C109 C 0.38606 0.65519 0.19259 0.0
C110 C 0.30346 0.6363 0.13072 0.0
C111 C 0.3205 0.67013 0.17577 0.0
N112 N 0.40637 0.61424 0.15897 0.0
N113 N 0.35732 0.60408 0.12191 0.0
C114 C 0.42484 0.67229 0.24079 0.0
H115 H 0.45369 0.62947 0.24834 0.0
H116 H 0.38511 0.6755 0.26556 0.0
H117 H 0.46734 0.72659 0.24475 0.0
C118 C 0.47158 0.3707 0.20066 0.0
N119 N 0.5057 0.43708 0.18868 0.0
N120 N 0.45952 0.47897 0.1882 0.0
C121 C 0.39478 0.44064 0.20021 0.0
C122 C 0.40038 0.37095 0.20844 0.0
C123 C 0.50508 0.30685 0.20212 0.0
H124 H 0.53343 0.3009 0.17154 0.0
H125 H 0.54674 0.31803 0.23316 0.0
H126 H 0.46305 0.25406 0.20394 0.0
O127 O 0.57991 0.47236 0.099 0.0
O128 O 0.50421 0.54525 0.09841 0.0
H129 H 0.31216 0.47939 0.16276 0.0
H130 H 0.27755 0.423 0.20551 0.0
C131 C 0.3256 0.46596 0.19768 0.0
H132 H 0.33476 0.51666 0.2225 0.0
H133 H 0.35902 0.57266 0.09115 0.0
O134 O 0.66118 0.40382 0.1799 0.0
C135 C 0.54083 0.50749 0.0774 0.0
C136 C 0.07534 0.9595 0.45382 0.0
C137 C 0.04374 0.00775 0.43031 0.0
C138 C 0.07638 0.95993 0.50133 0.0
C139 C 0.04587 0.00863 0.52724 0.0
H140 H 0.09835 0.92005 0.43536 0.0
H141 H 0.10056 0.92113 0.5177 0.0
S142 S 0.96069 0.14977 0.48263 0.0
N143 N 0.98419 0.10809 0.43715 0.0
N144 N 0.98621 0.10905 0.52588 0.0
C145 C 0.01559 0.05838 0.50426 0.0
C146 C 0.01456 0.05793 0.45602 0.0
C147 C 0.58373 0.47038 0.00327 0.0
C148 C 0.53917 0.50646 0.02702 0.0
C149 C 0.58383 0.46982 0.95585 0.0
C150 C 0.53936 0.50528 0.93019 0.0
H151 H 0.61905 0.44232 0.02137 0.0
H152 H 0.61881 0.44091 0.93922 0.0
S153 S 0.41217 0.60779 0.9759 0.0
N154 N 0.44925 0.57879 0.021 0.0
N155 N 0.44924 0.57763 0.93241 0.0
C156 C 0.49466 0.54182 0.95359 0.0
C157 C 0.49458 0.54239 0.00178 0.0
C158 C 0.24644 0.25322 0.26302 0.0
C159 C 0.21777 0.1903 0.22991 0.0
C160 C 0.30642 0.31114 0.25607 0.0
C161 C 0.33953 0.30772 0.21587 0.0
H162 H 0.22242 0.2575 0.29453 0.0
H163 H 0.32694 0.35903 0.28216 0.0
S164 S 0.28267 0.15654 0.11803 0.0
N165 N 0.2255 0.12848 0.15532 0.0
N166 N 0.33778 0.23809 0.14183 0.0
C167 C 0.31103 0.24539 0.18241 0.0
C168 C 0.25023 0.18633 0.18959 0.0
C169 C 0.77446 0.29334 0.29796 0.0
C170 C 0.81469 0.26073 0.26871 0.0
C171 C 0.73229 0.33941 0.2823 0.0
C172 C 0.72876 0.3549 0.23672 0.0
H173 H 0.77577 0.28334 0.33343 0.0
H174 H 0.70221 0.36303 0.30626 0.0
S175 S 0.82898 0.28812 0.14727 0.0
N176 N 0.85251 0.251 0.19281 0.0
N177 N 0.77134 0.33587 0.16281 0.0
C178 C 0.76885 0.32272 0.20701 0.0
C179 C 0.81239 0.27615 0.22315 0.0
C180 C 0.77829 0.69351 0.22475 0.0
C181 C 0.70547 0.70082 0.2204 0.0
C182 C 0.8399 0.75538 0.23653 0.0
C183 C 0.83191 0.82772 0.24473 0.0
H184 H 0.78831 0.63948 0.21838 0.0
H185 H 0.89436 0.74596 0.23922 0.0
S186 S 0.65304 0.87762 0.23961 0.0
N187 N 0.62874 0.78651 0.22627 0.0
N188 N 0.74453 0.90279 0.24887 0.0
C189 C 0.75931 0.836 0.24114 0.0
C190 C 0.69627 0.7727 0.22898 0.0
C191 C 0.14627 0.70432 0.21533 0.0
C192 C 0.17159 0.77491 0.24164 0.0
C193 C 0.19527 0.67069 0.19495 0.0
C194 C 0.27173 0.70572 0.20046 0.0
H195 H 0.08777 0.67523 0.20935 0.0
H196 H 0.17294 0.61686 0.17438 0.0
S197 S 0.36746 0.89006 0.26629 0.0
N198 N 0.27938 0.87793 0.27289 0.0
N199 N 0.37095 0.81473 0.2338 0.0
C200 C 0.29838 0.77546 0.22731 0.0
C201 C 0.24845 0.81001 0.2481 0.0
C202 C 0.29908 0.76463 0.72611 0.0
C203 C 0.30455 0.75129 0.77212 0.0
C204 C 0.25658 0.81075 0.71033 0.0
C205 C 0.21865 0.84588 0.74009 0.0
H206 H 0.32982 0.74157 0.70242 0.0
H207 H 0.25508 0.82044 0.67482 0.0
S208 S 0.21077 0.82436 0.86303 0.0
N209 N 0.26515 0.77353 0.84657 0.0
N210 N 0.18611 0.86036 0.81729 0.0
C211 C 0.22243 0.83153 0.78594 0.0
C212 C 0.26528 0.78441 0.80185 0.0
C213 C 0.20567 0.26718 0.72147 0.0
C214 C 0.21179 0.19424 0.72218 0.0
C215 C 0.26789 0.32884 0.73326 0.0
C216 C 0.33892 0.32024 0.74628 0.0
H217 H 0.15265 0.27694 0.71074 0.0
H218 H 0.26012 0.38367 0.73182 0.0
S219 S 0.38419 0.14101 0.75693 0.0
N220 N 0.29425 0.11719 0.73929 0.0
N221 N 0.41078 0.2324 0.76132 0.0
C222 C 0.34552 0.24753 0.7481 0.0
C223 C 0.28216 0.18484 0.73619 0.0
C224 C 0.70296 0.18509 0.68373 0.0
C225 C 0.7801 0.21551 0.69452 0.0
C226 C 0.65332 0.22054 0.70164 0.0
C227 C 0.67866 0.28801 0.73119 0.0
H228 H 0.68055 0.13355 0.66079 0.0
H229 H 0.59447 0.19513 0.69165 0.0
S230 S 0.87563 0.3922 0.76922 0.0
N231 N 0.87974 0.31832 0.73553 0.0
N232 N 0.78654 0.38379 0.77076 0.0
C233 C 0.75581 0.3184 0.74314 0.0
C234 C 0.80651 0.28252 0.72437 0.0
C235 C 0.71308 0.72695 0.69196 0.0
C236 C 0.71807 0.69216 0.73151 0.0
C237 C 0.77154 0.78597 0.68433 0.0
C238 C 0.83652 0.81188 0.71611 0.0
H239 H 0.66378 0.70823 0.66678 0.0
H240 H 0.76616 0.81124 0.65329 0.0
S241 S 0.87548 0.74129 0.82572 0.0
N242 N 0.79187 0.68917 0.80343 0.0
N243 N 0.90219 0.79947 0.78864 0.0
C244 C 0.8421 0.7776 0.75571 0.0
C245 C 0.78261 0.71789 0.76359 0.0
loop_
_geom_bond_atom_site_label_1
_geom_bond_atom_site_label_2
_geom_bond_distance
_geom_bond_site_symmetry_2
_ccdc_geom_bond_type
Co0 O3 1.970 1_455 S
Co0 N17 1.989 1_565 S
Co0 O25 1.967 . S
Co0 O32 1.920 . S
Co1 O4 1.966 1_545 S
Co1 N10 2.022 . S
Co1 N18 1.993 1_655 S
Co1 O26 1.941 . S
C2 O3 1.258 . S
C2 O4 1.263 . S
O3 Co0 1.970 1_655 S
O3 C2 1.258 . S
O4 Co1 1.966 1_565 S
O4 C2 1.263 . S
C5 O6 1.235 . S
C5 O32 1.289 . S
O6 C5 1.235 . S
C7 C9 1.400 . S
C7 N10 1.351 . S
C7 C12 1.501 . S
C8 C9 1.387 . S
C8 N11 1.341 . S
C9 C7 1.400 . S
C9 C8 1.387 . S
N10 Co1 2.022 . S
N10 C7 1.351 . S
N10 N11 1.365 . S
N11 C8 1.341 . S
N11 N10 1.365 . S
N11 H31 0.862 . S
C12 C7 1.501 . S
C12 H13 0.961 . S
C12 H14 0.961 . S
C12 H15 0.960 . S
H13 C12 0.961 . S
H14 C12 0.961 . S
H15 C12 0.960 . S
C16 N17 1.342 . S
C16 C20 1.401 . S
C16 C21 1.499 . S
N17 Co0 1.989 1_545 S
N17 C16 1.342 . S
N17 N18 1.388 . S
N18 Co1 1.993 1_455 S
N18 N17 1.388 . S
N18 C19 1.346 . S
C19 N18 1.346 . S
C19 C20 1.396 . S
C19 C29 1.510 . S
C20 C16 1.401 . S
C20 C19 1.396 . S
C21 C16 1.499 . S
C21 H22 0.959 1_545 S
C21 H23 0.960 . S
C21 H24 0.961 . S
H22 C21 0.959 1_565 S
H23 C21 0.960 . S
H24 C21 0.961 . S
O25 Co0 1.967 . S
O25 C33 1.258 . S
O26 Co1 1.941 . S
O26 C33 1.266 1_645 S
H27 C29 0.959 . S
H28 C29 0.961 . S
C29 C19 1.510 . S
C29 H27 0.959 . S
C29 H28 0.961 . S
C29 H30 0.960 1_455 S
H30 C29 0.960 1_655 S
H31 N11 0.862 . S
O32 Co0 1.920 . S
O32 C5 1.289 . S
C33 O25 1.258 . S
C33 O26 1.266 1_465 S
Co34 O37 1.970 1_565 S
Co34 N51 1.989 1_455 S
Co34 O59 1.967 . S
Co34 O66 1.920 . S
Co35 O38 1.966 1_655 S
Co35 N44 2.022 . S
Co35 N52 1.993 1_545 S
Co35 O60 1.941 . S
C36 O37 1.258 . S
C36 O38 1.263 . S
O37 Co34 1.970 1_545 S
O37 C36 1.258 . S
O38 Co35 1.966 1_455 S
O38 C36 1.263 . S
C39 O40 1.235 . S
C39 O66 1.289 . S
O40 C39 1.235 . S
C41 C43 1.400 . S
C41 N44 1.351 . S
C41 C46 1.501 . S
C42 C43 1.387 . S
C42 N45 1.341 . S
C43 C41 1.400 . S
C43 C42 1.387 . S
N44 Co35 2.022 . S
N44 C41 1.351 . S
N44 N45 1.365 . S
N45 C42 1.341 . S
N45 N44 1.365 . S
N45 H65 0.862 . S
C46 C41 1.501 . S
C46 H47 0.961 1_655 S
C46 H48 0.961 . S
C46 H49 0.960 . S
H47 C46 0.961 1_455 S
H48 C46 0.961 . S
H49 C46 0.960 . S
C50 N51 1.342 . S
C50 C54 1.401 . S
C50 C55 1.499 . S
N51 Co34 1.989 1_655 S
N51 C50 1.342 . S
N51 N52 1.388 . S
N52 Co35 1.993 1_565 S
N52 N51 1.388 . S
N52 C53 1.346 . S
C53 N52 1.346 . S
C53 C54 1.396 . S
C53 C63 1.510 . S
C54 C50 1.401 . S
C54 C53 1.396 . S
C55 C50 1.499 . S
C55 H56 0.959 1_655 S
C55 H57 0.960 . S
C55 H58 0.961 . S
H56 C55 0.959 1_455 S
H57 C55 0.960 . S
H58 C55 0.961 . S
O59 Co34 1.967 . S
O59 C67 1.258 . S
O60 Co35 1.941 . S
O60 C67 1.266 1_645 S
H61 C63 0.959 . S
H62 C63 0.961 . S
C63 C53 1.510 . S
C63 H61 0.959 . S
C63 H62 0.961 . S
C63 H64 0.960 1_565 S
H64 C63 0.960 1_545 S
H65 N45 0.862 . S
O66 Co34 1.920 . S
O66 C39 1.289 . S
C67 O59 1.258 . S
C67 O60 1.266 1_465 S
Co68 O71 1.970 . S
Co68 N85 1.989 . S
Co68 O93 1.967 . S
Co68 O100 1.920 . S
Co69 O72 1.966 . S
Co69 N78 2.022 . S
Co69 N86 1.993 . S
Co69 O94 1.941 . S
C70 O71 1.258 . S
C70 O72 1.263 . S
O71 Co68 1.970 . S
O71 C70 1.258 . S
O72 Co69 1.966 . S
O72 C70 1.263 . S
C73 O74 1.235 . S
C73 O100 1.289 . S
O74 C73 1.235 . S
C75 C77 1.400 . S
C75 N78 1.351 . S
C75 C80 1.501 . S
C76 C77 1.387 . S
C76 N79 1.341 . S
C77 C75 1.400 . S
C77 C76 1.387 . S
N78 Co69 2.022 . S
N78 C75 1.351 . S
N78 N79 1.365 . S
N79 C76 1.341 . S
N79 N78 1.365 . S
N79 H99 0.862 . S
C80 C75 1.501 . S
C80 H81 0.961 . S
C80 H82 0.961 . S
C80 H83 0.960 . S
H81 C80 0.961 . S
H82 C80 0.961 . S
H83 C80 0.960 . S
C84 N85 1.342 . S
C84 C88 1.401 . S
C84 C89 1.499 . S
N85 Co68 1.989 . S
N85 C84 1.342 . S
N85 N86 1.388 . S
N86 Co69 1.993 . S
N86 N85 1.388 . S
N86 C87 1.346 . S
C87 N86 1.346 . S
C87 C88 1.396 . S
C87 C97 1.510 . S
C88 C84 1.401 . S
C88 C87 1.396 . S
C89 C84 1.499 . S
C89 H90 0.959 . S
C89 H91 0.960 . S
C89 H92 0.961 . S
H90 C89 0.959 . S
H91 C89 0.960 . S
H92 C89 0.961 . S
O93 Co68 1.967 . S
O93 C101 1.258 . S
O94 Co69 1.941 . S
O94 C101 1.266 . S
H95 C97 0.959 . S
H96 C97 0.961 . S
C97 C87 1.510 . S
C97 H95 0.959 . S
C97 H96 0.961 . S
C97 H98 0.960 . S
H98 C97 0.960 . S
H99 N79 0.862 . S
O100 Co68 1.920 . S
O100 C73 1.289 . S
C101 O93 1.258 . S
C101 O94 1.266 . S
Co102 O105 1.970 . S
Co102 N119 1.989 . S
Co102 O127 1.967 . S
Co102 O134 1.920 . S
Co103 O106 1.966 . S
Co103 N112 2.022 . S
Co103 N120 1.993 . S
Co103 O128 1.941 . S
C104 O105 1.258 . S
C104 O106 1.263 . S
O105 Co102 1.970 . S
O105 C104 1.258 . S
O106 Co103 1.966 . S
O106 C104 1.263 . S
C107 O108 1.235 . S
C107 O134 1.289 . S
O108 C107 1.235 . S
C109 C111 1.400 . S
C109 N112 1.351 . S
C109 C114 1.501 . S
C110 C111 1.387 . S
C110 N113 1.341 . S
C111 C109 1.400 . S
C111 C110 1.387 . S
N112 Co103 2.022 . S
N112 C109 1.351 . S
N112 N113 1.365 . S
N113 C110 1.341 . S
N113 N112 1.365 . S
N113 H133 0.862 . S
C114 C109 1.501 . S
C114 H115 0.961 . S
C114 H116 0.961 . S
C114 H117 0.960 . S
H115 C114 0.961 . S
H116 C114 0.961 . S
H117 C114 0.960 . S
C118 N119 1.342 . S
C118 C122 1.401 . S
C118 C123 1.499 . S
N119 Co102 1.989 . S
N119 C118 1.342 . S
N119 N120 1.388 . S
N120 Co103 1.993 . S
N120 N119 1.388 . S
N120 C121 1.346 . S
C121 N120 1.346 . S
C121 C122 1.396 . S
C121 C131 1.510 . S
C122 C118 1.401 . S
C122 C121 1.396 . S
C123 C118 1.499 . S
C123 H124 0.959 . S
C123 H125 0.960 . S
C123 H126 0.961 . S
H124 C123 0.959 . S
H125 C123 0.960 . S
H126 C123 0.961 . S
O127 Co102 1.967 . S
O127 C135 1.258 . S
O128 Co103 1.941 . S
O128 C135 1.266 . S
H129 C131 0.959 . S
H130 C131 0.961 . S
C131 C121 1.510 . S
C131 H129 0.959 . S
C131 H130 0.961 . S
C131 H132 0.960 . S
H132 C131 0.960 . S
H133 N113 0.862 . S
O134 Co102 1.920 . S
O134 C107 1.289 . S
C135 O127 1.258 . S
C135 O128 1.266 . S
C136 C137 1.369 . S
C136 C138 1.419 . S
C136 H140 0.930 . S
C137 C136 1.369 . S
C137 C146 1.429 1_465 S
C138 C136 1.419 . S
C138 C139 1.363 . S
C138 H141 0.929 . S
C139 C138 1.363 . S
C139 C145 1.428 1_465 S
H140 C136 0.930 . S
H141 C138 0.929 . S
S142 N143 1.613 . S
S142 N144 1.610 . S
N143 S142 1.613 . S
N143 C146 1.350 . S
N144 S142 1.610 . S
N144 C145 1.351 . S
C145 C139 1.428 1_645 S
C145 N144 1.351 . S
C145 C146 1.434 . S
C146 C137 1.429 1_645 S
C146 N143 1.350 . S
C146 C145 1.434 . S
C147 C148 1.369 . S
C147 C149 1.419 1_554 S
C147 H151 0.930 . S
C148 C147 1.369 . S
C148 C157 1.429 . S
C149 C147 1.419 1_556 S
C149 C150 1.363 . S
C149 H152 0.929 . S
C150 C149 1.363 . S
C150 C156 1.428 . S
H151 C147 0.930 . S
H152 C149 0.929 . S
S153 N154 1.613 1_556 S
S153 N155 1.610 . S
N154 S153 1.613 1_554 S
N154 C157 1.350 . S
N155 S153 1.610 . S
N155 C156 1.351 . S
C156 C150 1.428 . S
C156 N155 1.351 . S
C156 C157 1.434 1_556 S
C157 C148 1.429 . S
C157 N154 1.350 . S
C157 C156 1.434 1_554 S
C158 C159 1.369 . S
C158 C160 1.419 . S
C158 H162 0.930 . S
C159 C158 1.369 . S
C159 C168 1.429 . S
C160 C158 1.419 . S
C160 C161 1.363 . S
C160 H163 0.929 . S
C161 C160 1.363 . S
C161 C167 1.428 . S
H162 C158 0.930 . S
H163 C160 0.929 . S
S164 N165 1.613 . S
S164 N166 1.610 . S
N165 S164 1.613 . S
N165 C168 1.350 . S
N166 S164 1.610 . S
N166 C167 1.351 . S
C167 C161 1.428 . S
C167 N166 1.351 . S
C167 C168 1.434 . S
C168 C159 1.429 . S
C168 N165 1.350 . S
C168 C167 1.434 . S
C169 C170 1.369 . S
C169 C171 1.419 . S
C169 H173 0.930 . S
C170 C169 1.369 . S
C170 C179 1.429 . S
C171 C169 1.419 . S
C171 C172 1.363 . S
C171 H174 0.929 . S
C172 C171 1.363 . S
C172 C178 1.428 . S
H173 C169 0.930 . S
H174 C171 0.929 . S
S175 N176 1.613 . S
S175 N177 1.610 . S
N176 S175 1.613 . S
N176 C179 1.350 . S
N177 S175 1.610 . S
N177 C178 1.351 . S
C178 C172 1.428 . S
C178 N177 1.351 . S
C178 C179 1.434 . S
C179 C170 1.429 . S
C179 N176 1.350 . S
C179 C178 1.434 . S
C180 C181 1.369 . S
C180 C182 1.419 . S
C180 H184 0.930 . S
C181 C180 1.369 . S
C181 C190 1.429 . S
C182 C180 1.419 . S
C182 C183 1.363 . S
C182 H185 0.929 . S
C183 C182 1.363 . S
C183 C189 1.428 . S
H184 C180 0.930 . S
H185 C182 0.929 . S
S186 N187 1.613 . S
S186 N188 1.610 . S
N187 S186 1.613 . S
N187 C190 1.350 . S
N188 S186 1.610 . S
N188 C189 1.351 . S
C189 C183 1.428 . S
C189 N188 1.351 . S
C189 C190 1.434 . S
C190 C181 1.429 . S
C190 N187 1.350 . S
C190 C189 1.434 . S
C191 C192 1.369 . S
C191 C193 1.419 . S
C191 H195 0.930 . S
C192 C191 1.369 . S
C192 C201 1.429 . S
C193 C191 1.419 . S
C193 C194 1.363 . S
C193 H196 0.929 . S
C194 C193 1.363 . S
C194 C200 1.428 . S
H195 C191 0.930 . S
H196 C193 0.929 . S
S197 N198 1.613 . S
S197 N199 1.610 . S
N198 S197 1.613 . S
N198 C201 1.350 . S
N199 S197 1.610 . S
N199 C200 1.351 . S
C200 C194 1.428 . S
C200 N199 1.351 . S
C200 C201 1.434 . S
C201 C192 1.429 . S
C201 N198 1.350 . S
C201 C200 1.434 . S
C202 C203 1.369 . S
C202 C204 1.419 . S
C202 H206 0.930 . S
C203 C202 1.369 . S
C203 C212 1.429 . S
C204 C202 1.419 . S
C204 C205 1.363 . S
C204 H207 0.929 . S
C205 C204 1.363 . S
C205 C211 1.428 . S
H206 C202 0.930 . S
H207 C204 0.929 . S
S208 N209 1.613 . S
S208 N210 1.610 . S
N209 S208 1.613 . S
N209 C212 1.350 . S
N210 S208 1.610 . S
N210 C211 1.351 . S
C211 C205 1.428 . S
C211 N210 1.351 . S
C211 C212 1.434 . S
C212 C203 1.429 . S
C212 N209 1.350 . S
C212 C211 1.434 . S
C213 C214 1.369 . S
C213 C215 1.419 . S
C213 H217 0.930 . S
C214 C213 1.369 . S
C214 C223 1.429 . S
C215 C213 1.419 . S
C215 C216 1.363 . S
C215 H218 0.929 . S
C216 C215 1.363 . S
C216 C222 1.428 . S
H217 C213 0.930 . S
H218 C215 0.929 . S
S219 N220 1.613 . S
S219 N221 1.610 . S
N220 S219 1.613 . S
N220 C223 1.350 . S
N221 S219 1.610 . S
N221 C222 1.351 . S
C222 C216 1.428 . S
C222 N221 1.351 . S
C222 C223 1.434 . S
C223 C214 1.429 . S
C223 N220 1.350 . S
C223 C222 1.434 . S
C224 C225 1.369 . S
C224 C226 1.419 . S
C224 H228 0.930 . S
C225 C224 1.369 . S
C225 C234 1.429 . S
C226 C224 1.419 . S
C226 C227 1.363 . S
C226 H229 0.929 . S
C227 C226 1.363 . S
C227 C233 1.428 . S
H228 C224 0.930 . S
H229 C226 0.929 . S
S230 N231 1.613 . S
S230 N232 1.610 . S
N231 S230 1.613 . S
N231 C234 1.350 . S
N232 S230 1.610 . S
N232 C233 1.351 . S
C233 C227 1.428 . S
C233 N232 1.351 . S
C233 C234 1.434 . S
C234 C225 1.429 . S
C234 N231 1.350 . S
C234 C233 1.434 . S
C235 C236 1.369 . S
C235 C237 1.419 . S
C235 H239 0.930 . S
C236 C235 1.369 . S
C236 C245 1.429 . S
C237 C235 1.419 . S
C237 C238 1.363 . S
C237 H240 0.929 . S
C238 C237 1.363 . S
C238 C244 1.428 . S
H239 C235 0.930 . S
H240 C237 0.929 . S
S241 N242 1.613 . S
S241 N243 1.610 . S
N242 S241 1.613 . S
N242 C245 1.350 . S
N243 S241 1.610 . S
N243 C244 1.351 . S
C244 C238 1.428 . S
C244 N243 1.351 . S
C244 C245 1.434 . S
C245 C236 1.429 . S
C245 N242 1.350 . S
C245 C244 1.434 . S
C137 C33 1.511 . S
C139 C67 1.511 . S
C148 C135 1.512 . S
C150 C101 1.511 . S
C159 C20 1.313 . S
C161 C122 1.311 . S
C170 C9 1.512 . S
C172 C107 1.529 . S
C181 C104 1.601 . S
C183 C2 1.602 . S
C192 C5 1.525 . S
C194 C111 1.513 . S
C203 C77 1.509 . S
C205 C39 1.524 . S
C214 C36 1.602 . S
C216 C70 1.600 . S
C225 C43 1.516 . S
C227 C73 1.527 . S
C236 C88 1.311 . S
C238 C54 1.313 . S
