# Generated by pormake.
# Topology neb, (4)-cn, num edge types: 1
# Building blocks:
#     Node 0, Type 0, BuildingBlock: GALJAG_clean_sbu_0, # of connection points: 4
#     Node 1, Type 0, BuildingBlock: GALJAG_clean_sbu_0, # of connection points: 4
#     Node 2, Type 0, BuildingBlock: GALJAG_clean_sbu_0, # of connection points: 4
#     Node 3, Type 0, BuildingBlock: GALJAG_clean_sbu_0, # of connection points: 4
#     Node 4, Type 0, BuildingBlock: GALJAG_clean_sbu_0, # of connection points: 4
#     Node 5, Type 0, BuildingBlock: GALJAG_clean_sbu_0, # of connection points: 4
#     Node 6, Type 0, BuildingBlock: GALJAG_clean_sbu_0, # of connection points: 4
#     Node 7, Type 0, BuildingBlock: GALJAG_clean_sbu_0, # of connection points: 4
#     Node 8, Type 0, BuildingBlock: GALJAG_clean_sbu_0, # of connection points: 4
#     Node 9, Type 0, BuildingBlock: GALJAG_clean_sbu_0, # of connection points: 4
#     Node 10, Type 0, BuildingBlock: GALJAG_clean_sbu_0, # of connection points: 4
#     Node 11, Type 0, BuildingBlock: GALJAG_clean_sbu_0, # of connection points: 4
#     Node 12, Type 0, BuildingBlock: GALJAG_clean_sbu_0, # of connection points: 4
#     Node 13, Type 0, BuildingBlock: GALJAG_clean_sbu_0, # of connection points: 4
#     Node 14, Type 0, BuildingBlock: GALJAG_clean_sbu_0, # of connection points: 4
#     Node 15, Type 0, BuildingBlock: GALJAG_clean_sbu_0, # of connection points: 4
#     Edge 16, Type (0, 0), None
#     Edge 17, Type (0, 0), None
#     Edge 18, Type (0, 0), None
#     Edge 19, Type (0, 0), None
#     Edge 20, Type (0, 0), None
#     Edge 21, Type (0, 0), None
#     Edge 22, Type (0, 0), None
#     Edge 23, Type (0, 0), None
#     Edge 24, Type (0, 0), None
#     Edge 25, Type (0, 0), None
#     Edge 26, Type (0, 0), None
#     Edge 27, Type (0, 0), None
#     Edge 28, Type (0, 0), None
#     Edge 29, Type (0, 0), None
#     Edge 30, Type (0, 0), None
#     Edge 31, Type (0, 0), None
#     Edge 32, Type (0, 0), None
#     Edge 33, Type (0, 0), None
#     Edge 34, Type (0, 0), None
#     Edge 35, Type (0, 0), None
#     Edge 36, Type (0, 0), None
#     Edge 37, Type (0, 0), None
#     Edge 38, Type (0, 0), None
#     Edge 39, Type (0, 0), None
#     Edge 40, Type (0, 0), None
#     Edge 41, Type (0, 0), None
#     Edge 42, Type (0, 0), None
#     Edge 43, Type (0, 0), None
#     Edge 44, Type (0, 0), None
#     Edge 45, Type (0, 0), None
#     Edge 46, Type (0, 0), None
#     Edge 47, Type (0, 0), None
# Relax obj value: 0.003
# Max RMSD: 0.033
# Mean RMSD: 0.033
data_MOF--net-neb--node1-GALJAG_clean_sbu_0--edge1-none
_symmetry_space_group_name_H-M    P1
_symmetry_Int_Tables_number       1
_symmetry_cell_setting            triclinic
loop_
_symmetry_equiv_pos_as_xyz
'x, y, z'
_cell_length_a     18.276488
_cell_length_b     10.503061
_cell_length_c     34.931304
_cell_angle_alpha  90.000004
_cell_angle_beta   90.304893
_cell_angle_gamma 89.999494
loop_
_atom_site_label
_atom_site_type_symbol
_atom_site_fract_x
_atom_site_fract_y
_atom_site_fract_z
_atom_type_partial_charge
In0 In 0.14455 0.16045 0.3925 0.0
O1 O 0.20882 1.00607 0.36 0.0
O2 O 0.09371 1.02097 0.35111 0.0
C3 C 0.24261 0.25855 0.44195 0.0
C4 C 0.04661 0.06473 0.44193 0.0
C5 C 0.13686 0.35528 0.34266 0.0
O6 O 0.25599 0.16032 0.42224 0.0
O7 O 0.17941 0.30487 0.43761 0.0
O8 O 0.08038 0.31414 0.3593 0.0
O9 O 0.19538 0.29807 0.35084 0.0
C10 C 0.15233 0.96402 0.34327 0.0
O11 O 0.03303 0.16157 0.42157 0.0
O12 O 0.10991 1.01852 0.4382 0.0
In13 In 0.14472 0.16046 0.76734 0.0
O14 O 0.08045 1.00609 0.79984 0.0
O15 O 0.19556 1.02098 0.80873 0.0
C16 C 0.04665 0.25855 0.71789 0.0
C17 C 0.24265 0.06473 0.71791 0.0
C18 C 0.15241 0.3553 0.81718 0.0
O19 O 0.03327 0.16033 0.7376 0.0
O20 O 0.10986 0.30488 0.72223 0.0
O21 O 0.20889 0.31414 0.80054 0.0
O22 O 0.09389 0.29808 0.809 0.0
C23 C 0.13694 0.96403 0.81657 0.0
O24 O 0.25623 0.16158 0.73827 0.0
O25 O 0.17936 1.01853 0.72164 0.0
In26 In 0.89473 0.91353 0.51734 0.0
O27 O 0.83046 0.0679 0.54984 0.0
O28 O 0.94556 0.053 0.55873 0.0
C29 C 0.79666 0.81542 0.46789 0.0
C30 C 0.99266 1.00925 0.46791 0.0
C31 C 0.90242 0.71869 0.56718 0.0
O32 O 0.78328 0.91365 0.4876 0.0
O33 O 0.85987 0.7691 0.47223 0.0
O34 O 0.95889 0.75984 0.55054 0.0
O35 O 0.8439 0.7759 0.559 0.0
C36 C 0.88694 0.10996 0.56657 0.0
O37 O 1.00624 0.9124 0.48827 0.0
O38 O 0.92937 0.05545 0.47164 0.0
In39 In 0.89455 0.91352 0.1425 0.0
O40 O 0.78304 0.91239 0.17157 0.0
O41 O 0.85991 0.05545 0.1882 0.0
C42 C 0.88686 0.71868 0.09266 0.0
C43 C 0.90233 0.10994 0.09327 0.0
C44 C 0.99262 0.81542 0.19195 0.0
O45 O 0.83038 0.75983 0.1093 0.0
O46 O 0.94538 0.77589 0.10084 0.0
O47 O 1.006 0.91364 0.17224 0.0
O48 O 0.92941 0.7691 0.18761 0.0
C49 C 0.79662 1.00924 0.19193 0.0
O50 O 0.95882 0.06789 0.11 0.0
O51 O 0.84372 0.053 0.10111 0.0
In52 In 0.14454 0.66046 0.8925 0.0
O53 O 0.20881 0.50608 0.86 0.0
O54 O 0.09371 0.52097 0.85111 0.0
C55 C 0.24261 0.75855 0.94195 0.0
C56 C 0.04661 0.56473 0.94193 0.0
C57 C 0.13685 0.85531 0.84266 0.0
O58 O 0.25599 0.66033 0.92224 0.0
O59 O 0.1794 0.80487 0.93761 0.0
O60 O 0.08037 0.81415 0.8593 0.0
O61 O 0.19537 0.79809 0.85084 0.0
C62 C 0.15232 0.46402 0.84327 0.0
O63 O 0.03303 0.66157 0.92157 0.0
O64 O 0.10991 0.51853 0.9382 0.0
In65 In 0.14474 0.66045 0.26734 0.0
O66 O 0.08047 0.50608 0.29984 0.0
O67 O 0.19557 0.52096 0.30873 0.0
C68 C 0.04667 0.75854 0.21789 0.0
C69 C 0.24267 0.56473 0.21791 0.0
C70 C 0.15243 0.8553 0.31718 0.0
O71 O 0.03329 0.66032 0.2376 0.0
O72 O 0.10988 0.80486 0.22223 0.0
O73 O 0.2089 0.81413 0.30054 0.0
O74 O 0.09391 0.79808 0.309 0.0
C75 C 0.13695 0.46401 0.31657 0.0
O76 O 0.25625 0.66157 0.23827 0.0
O77 O 0.17937 0.51852 0.22164 0.0
In78 In 0.89473 0.41352 0.01734 0.0
O79 O 0.83046 0.56789 0.04984 0.0
O80 O 0.94557 0.553 0.05873 0.0
C81 C 0.79667 0.31543 -0.03211 0.0
C82 C 0.99266 0.50924 -0.03209 0.0
C83 C 0.90242 0.21866 0.06718 0.0
O84 O 0.78328 0.41365 -0.0124 0.0
O85 O 0.85987 0.2691 -0.02777 0.0
O86 O 0.9589 0.25983 0.05054 0.0
O87 O 0.8439 0.27588 0.059 0.0
C88 C 0.88695 0.60995 0.06657 0.0
O89 O 1.00624 0.4124 -0.01173 0.0
O90 O 0.92937 0.55545 -0.02836 0.0
In91 In 0.89454 0.41353 0.6425 0.0
O92 O 0.78302 0.41241 0.67157 0.0
O93 O 0.8599 0.55545 0.6882 0.0
C94 C 0.88685 0.21868 0.59266 0.0
C95 C 0.90232 0.60997 0.59327 0.0
C96 C 0.9926 0.31543 0.69195 0.0
O97 O 0.83037 0.25984 0.6093 0.0
O98 O 0.94537 0.27589 0.60084 0.0
O99 O 1.00598 0.41365 0.67224 0.0
O100 O 0.9294 0.26911 0.68761 0.0
C101 C 0.7966 0.50925 0.69193 0.0
O102 O 0.95881 0.5679 0.61 0.0
O103 O 0.8437 0.55301 0.60111 0.0
In104 In 0.64454 0.16046 0.8925 0.0
O105 O 0.70881 1.00608 0.86 0.0
O106 O 0.59371 1.02098 0.85111 0.0
C107 C 0.74261 0.25855 0.94195 0.0
C108 C 0.54661 0.06473 0.94193 0.0
C109 C 0.63685 0.3553 0.84266 0.0
O110 O 0.75599 0.16033 0.92224 0.0
O111 O 0.67941 0.30487 0.93761 0.0
O112 O 0.58037 0.31415 0.8593 0.0
O113 O 0.69537 0.29808 0.85084 0.0
C114 C 0.65232 0.96403 0.84327 0.0
O115 O 0.53303 0.16158 0.92158 0.0
O116 O 0.60991 1.01852 0.9382 0.0
In117 In 0.64473 0.16045 0.26734 0.0
O118 O 0.75625 0.16157 0.23827 0.0
O119 O 0.67938 1.01852 0.22165 0.0
C120 C 0.65242 0.35528 0.31718 0.0
C121 C 0.63695 0.96402 0.31657 0.0
C122 C 0.54667 0.25854 0.21789 0.0
O123 O 0.7089 0.31413 0.30054 0.0
O124 O 0.5939 0.29807 0.309 0.0
O125 O 0.53329 0.16032 0.2376 0.0
O126 O 0.60987 0.30487 0.22223 0.0
C127 C 0.74267 0.06472 0.21791 0.0
O128 O 0.58047 1.00607 0.29984 0.0
O129 O 0.69557 1.02097 0.30873 0.0
In130 In 0.39473 0.91352 0.01734 0.0
O131 O 0.50624 0.9124 -0.01173 0.0
O132 O 0.42937 0.05545 -0.02836 0.0
C133 C 0.40242 0.71868 0.06718 0.0
C134 C 0.38695 0.10994 0.06657 0.0
C135 C 0.29666 0.81542 -0.03211 0.0
O136 O 0.4589 0.75982 0.05054 0.0
O137 O 0.3439 0.77589 0.059 0.0
O138 O 0.28328 0.91364 -0.0124 0.0
O139 O 0.35987 0.7691 -0.02777 0.0
C140 C 0.49266 1.00924 -0.03209 0.0
O141 O 0.33046 0.06789 0.04984 0.0
O142 O 0.44556 0.05299 0.05873 0.0
In143 In 0.39454 0.91353 0.6425 0.0
O144 O 0.28302 0.91241 0.67157 0.0
O145 O 0.3599 0.05546 0.6882 0.0
C146 C 0.38685 0.71869 0.59266 0.0
C147 C 0.40232 0.10996 0.59327 0.0
C148 C 0.4926 0.81543 0.69195 0.0
O149 O 0.33037 0.75984 0.6093 0.0
O150 O 0.44537 0.7759 0.60084 0.0
O151 O 0.50599 0.91365 0.67224 0.0
O152 O 0.4294 0.76911 0.68761 0.0
C153 C 0.2966 1.00925 0.69193 0.0
O154 O 0.45881 0.0679 0.61 0.0
O155 O 0.3437 0.05301 0.60111 0.0
In156 In 0.64454 0.66045 0.3925 0.0
O157 O 0.70882 0.50607 0.36 0.0
O158 O 0.59371 0.52096 0.35111 0.0
C159 C 0.74261 0.75855 0.44195 0.0
C160 C 0.54661 0.56473 0.44193 0.0
C161 C 0.63686 0.8553 0.34266 0.0
O162 O 0.75599 0.66032 0.42224 0.0
O163 O 0.6794 0.80487 0.43761 0.0
O164 O 0.58038 0.81413 0.3593 0.0
O165 O 0.69538 0.79808 0.35084 0.0
C166 C 0.65233 0.46401 0.34327 0.0
O167 O 0.53303 0.66157 0.42157 0.0
O168 O 0.60991 0.51853 0.4382 0.0
In169 In 0.64472 0.66046 0.76734 0.0
O170 O 0.75623 0.66157 0.73827 0.0
O171 O 0.67936 0.51853 0.72164 0.0
C172 C 0.65241 0.85531 0.81718 0.0
C173 C 0.63694 0.46402 0.81657 0.0
C174 C 0.54666 0.75855 0.71789 0.0
O175 O 0.70889 0.81414 0.80054 0.0
O176 O 0.59389 0.79809 0.809 0.0
O177 O 0.53327 0.66033 0.7376 0.0
O178 O 0.60986 0.80487 0.72223 0.0
C179 C 0.74265 0.56473 0.71791 0.0
O180 O 0.58045 0.50609 0.79984 0.0
O181 O 0.69556 0.52097 0.80873 0.0
In182 In 0.39473 0.41353 0.51734 0.0
O183 O 0.33046 0.5679 0.54984 0.0
O184 O 0.44556 0.55301 0.55873 0.0
C185 C 0.29666 0.31542 0.46789 0.0
C186 C 0.49266 0.50925 0.46791 0.0
C187 C 0.40242 0.21868 0.56718 0.0
O188 O 0.28328 0.41365 0.4876 0.0
O189 O 0.35987 0.26911 0.47223 0.0
O190 O 0.45889 0.25984 0.55054 0.0
O191 O 0.3439 0.2759 0.559 0.0
C192 C 0.38694 0.60997 0.56657 0.0
O193 O 0.50624 0.41241 0.48827 0.0
O194 O 0.42937 0.55545 0.47164 0.0
In195 In 0.39455 0.41352 0.1425 0.0
O196 O 0.28304 0.4124 0.17157 0.0
O197 O 0.35991 0.55544 0.1882 0.0
C198 C 0.38686 0.21866 0.09266 0.0
C199 C 0.40233 0.60995 0.09327 0.0
C200 C 0.49262 0.31542 0.19195 0.0
O201 O 0.33038 0.25983 0.1093 0.0
O202 O 0.44538 0.27588 0.10084 0.0
O203 O 0.506 0.41364 0.17224 0.0
O204 O 0.42941 0.2691 0.18761 0.0
C205 C 0.29662 0.50924 0.19193 0.0
O206 O 0.45882 0.56789 0.11 0.0
O207 O 0.34372 0.553 0.10111 0.0
loop_
_geom_bond_atom_site_label_1
_geom_bond_atom_site_label_2
_geom_bond_distance
_geom_bond_site_symmetry_2
_ccdc_geom_bond_type
In0 O1 2.294 1_545 S
In0 O2 2.326 1_545 S
In0 O6 2.266 . S
In0 O7 2.326 . S
In0 O8 2.266 . S
In0 O9 2.326 . S
In0 O11 2.294 . S
In0 O12 2.326 1_545 S
O1 In0 2.294 1_565 S
O1 C10 1.240 . S
O2 In0 2.326 1_565 S
O2 C10 1.252 . S
C3 O6 1.252 . S
C3 O7 1.260 . S
C4 O11 1.240 . S
C4 O12 1.252 1_545 S
C5 O8 1.252 . S
C5 O9 1.260 . S
O6 In0 2.266 . S
O6 C3 1.252 . S
O7 In0 2.326 . S
O7 C3 1.260 . S
O8 In0 2.266 . S
O8 C5 1.252 . S
O9 In0 2.326 . S
O9 C5 1.260 . S
C10 O1 1.240 . S
C10 O2 1.252 . S
O11 In0 2.294 . S
O11 C4 1.240 . S
O12 In0 2.326 1_565 S
O12 C4 1.252 1_565 S
In13 O14 2.294 1_545 S
In13 O15 2.326 1_545 S
In13 O19 2.266 . S
In13 O20 2.326 . S
In13 O21 2.266 . S
In13 O22 2.326 . S
In13 O24 2.294 . S
In13 O25 2.326 1_545 S
O14 In13 2.294 1_565 S
O14 C23 1.240 . S
O15 In13 2.326 1_565 S
O15 C23 1.252 . S
C16 O19 1.252 . S
C16 O20 1.260 . S
C17 O24 1.240 . S
C17 O25 1.252 1_545 S
C18 O21 1.252 . S
C18 O22 1.260 . S
O19 In13 2.266 . S
O19 C16 1.252 . S
O20 In13 2.326 . S
O20 C16 1.260 . S
O21 In13 2.266 . S
O21 C18 1.252 . S
O22 In13 2.326 . S
O22 C18 1.260 . S
C23 O14 1.240 . S
C23 O15 1.252 . S
O24 In13 2.294 . S
O24 C17 1.240 . S
O25 In13 2.326 1_565 S
O25 C17 1.252 1_565 S
In26 O27 2.294 1_565 S
In26 O28 2.326 1_565 S
In26 O32 2.266 . S
In26 O33 2.326 . S
In26 O34 2.266 . S
In26 O35 2.326 . S
In26 O37 2.294 . S
In26 O38 2.326 1_565 S
O27 In26 2.294 1_545 S
O27 C36 1.240 . S
O28 In26 2.326 1_545 S
O28 C36 1.252 . S
C29 O32 1.252 . S
C29 O33 1.260 . S
C30 O37 1.240 . S
C30 O38 1.252 1_565 S
C31 O34 1.252 . S
C31 O35 1.260 . S
O32 In26 2.266 . S
O32 C29 1.252 . S
O33 In26 2.326 . S
O33 C29 1.260 . S
O34 In26 2.266 . S
O34 C31 1.252 . S
O35 In26 2.326 . S
O35 C31 1.260 . S
C36 O27 1.240 . S
C36 O28 1.252 . S
O37 In26 2.294 . S
O37 C30 1.240 . S
O38 In26 2.326 1_545 S
O38 C30 1.252 1_545 S
In39 O40 2.294 . S
In39 O41 2.326 1_565 S
In39 O45 2.266 . S
In39 O46 2.326 . S
In39 O47 2.266 . S
In39 O48 2.326 . S
In39 O50 2.294 1_565 S
In39 O51 2.326 1_565 S
O40 In39 2.294 . S
O40 C49 1.240 . S
O41 In39 2.326 1_545 S
O41 C49 1.252 1_545 S
C42 O45 1.252 . S
C42 O46 1.260 . S
C43 O50 1.240 . S
C43 O51 1.252 . S
C44 O47 1.252 . S
C44 O48 1.260 . S
O45 In39 2.266 . S
O45 C42 1.252 . S
O46 In39 2.326 . S
O46 C42 1.260 . S
O47 In39 2.266 . S
O47 C44 1.252 . S
O48 In39 2.326 . S
O48 C44 1.260 . S
C49 O40 1.240 . S
C49 O41 1.252 1_565 S
O50 In39 2.294 1_545 S
O50 C43 1.240 . S
O51 In39 2.326 1_545 S
O51 C43 1.252 . S
In52 O53 2.294 . S
In52 O54 2.326 . S
In52 O58 2.266 . S
In52 O59 2.326 . S
In52 O60 2.266 . S
In52 O61 2.326 . S
In52 O63 2.294 . S
In52 O64 2.326 . S
O53 In52 2.294 . S
O53 C62 1.240 . S
O54 In52 2.326 . S
O54 C62 1.252 . S
C55 O58 1.252 . S
C55 O59 1.260 . S
C56 O63 1.240 . S
C56 O64 1.252 . S
C57 O60 1.252 . S
C57 O61 1.260 . S
O58 In52 2.266 . S
O58 C55 1.252 . S
O59 In52 2.326 . S
O59 C55 1.260 . S
O60 In52 2.266 . S
O60 C57 1.252 . S
O61 In52 2.326 . S
O61 C57 1.260 . S
C62 O53 1.240 . S
C62 O54 1.252 . S
O63 In52 2.294 . S
O63 C56 1.240 . S
O64 In52 2.326 . S
O64 C56 1.252 . S
In65 O66 2.294 . S
In65 O67 2.326 . S
In65 O71 2.266 . S
In65 O72 2.326 . S
In65 O73 2.266 . S
In65 O74 2.326 . S
In65 O76 2.294 . S
In65 O77 2.326 . S
O66 In65 2.294 . S
O66 C75 1.240 . S
O67 In65 2.326 . S
O67 C75 1.252 . S
C68 O71 1.252 . S
C68 O72 1.260 . S
C69 O76 1.240 . S
C69 O77 1.252 . S
C70 O73 1.252 . S
C70 O74 1.260 . S
O71 In65 2.266 . S
O71 C68 1.252 . S
O72 In65 2.326 . S
O72 C68 1.260 . S
O73 In65 2.266 . S
O73 C70 1.252 . S
O74 In65 2.326 . S
O74 C70 1.260 . S
C75 O66 1.240 . S
C75 O67 1.252 . S
O76 In65 2.294 . S
O76 C69 1.240 . S
O77 In65 2.326 . S
O77 C69 1.252 . S
In78 O79 2.294 . S
In78 O80 2.326 . S
In78 O84 2.266 . S
In78 O85 2.326 . S
In78 O86 2.266 . S
In78 O87 2.326 . S
In78 O89 2.294 . S
In78 O90 2.326 . S
O79 In78 2.294 . S
O79 C88 1.240 . S
O80 In78 2.326 . S
O80 C88 1.252 . S
C81 O84 1.252 . S
C81 O85 1.260 . S
C82 O89 1.240 . S
C82 O90 1.252 . S
C83 O86 1.252 . S
C83 O87 1.260 . S
O84 In78 2.266 . S
O84 C81 1.252 . S
O85 In78 2.326 . S
O85 C81 1.260 . S
O86 In78 2.266 . S
O86 C83 1.252 . S
O87 In78 2.326 . S
O87 C83 1.260 . S
C88 O79 1.240 . S
C88 O80 1.252 . S
O89 In78 2.294 . S
O89 C82 1.240 . S
O90 In78 2.326 . S
O90 C82 1.252 . S
In91 O92 2.294 . S
In91 O93 2.326 . S
In91 O97 2.266 . S
In91 O98 2.326 . S
In91 O99 2.266 . S
In91 O100 2.326 . S
In91 O102 2.294 . S
In91 O103 2.326 . S
O92 In91 2.294 . S
O92 C101 1.240 . S
O93 In91 2.326 . S
O93 C101 1.252 . S
C94 O97 1.252 . S
C94 O98 1.260 . S
C95 O102 1.240 . S
C95 O103 1.252 . S
C96 O99 1.252 . S
C96 O100 1.260 . S
O97 In91 2.266 . S
O97 C94 1.252 . S
O98 In91 2.326 . S
O98 C94 1.260 . S
O99 In91 2.266 . S
O99 C96 1.252 . S
O100 In91 2.326 . S
O100 C96 1.260 . S
C101 O92 1.240 . S
C101 O93 1.252 . S
O102 In91 2.294 . S
O102 C95 1.240 . S
O103 In91 2.326 . S
O103 C95 1.252 . S
In104 O105 2.294 1_545 S
In104 O106 2.326 1_545 S
In104 O110 2.266 . S
In104 O111 2.326 . S
In104 O112 2.266 . S
In104 O113 2.326 . S
In104 O115 2.294 . S
In104 O116 2.326 1_545 S
O105 In104 2.294 1_565 S
O105 C114 1.240 . S
O106 In104 2.326 1_565 S
O106 C114 1.252 . S
C107 O110 1.252 . S
C107 O111 1.260 . S
C108 O115 1.240 . S
C108 O116 1.252 1_545 S
C109 O112 1.252 . S
C109 O113 1.260 . S
O110 In104 2.266 . S
O110 C107 1.252 . S
O111 In104 2.326 . S
O111 C107 1.260 . S
O112 In104 2.266 . S
O112 C109 1.252 . S
O113 In104 2.326 . S
O113 C109 1.260 . S
C114 O105 1.240 . S
C114 O106 1.252 . S
O115 In104 2.294 . S
O115 C108 1.240 . S
O116 In104 2.326 1_565 S
O116 C108 1.252 1_565 S
In117 O118 2.294 . S
In117 O119 2.326 1_545 S
In117 O123 2.266 . S
In117 O124 2.326 . S
In117 O125 2.266 . S
In117 O126 2.326 . S
In117 O128 2.294 1_545 S
In117 O129 2.326 1_545 S
O118 In117 2.294 . S
O118 C127 1.240 . S
O119 In117 2.326 1_565 S
O119 C127 1.252 1_565 S
C120 O123 1.252 . S
C120 O124 1.260 . S
C121 O128 1.240 . S
C121 O129 1.252 . S
C122 O125 1.252 . S
C122 O126 1.260 . S
O123 In117 2.266 . S
O123 C120 1.252 . S
O124 In117 2.326 . S
O124 C120 1.260 . S
O125 In117 2.266 . S
O125 C122 1.252 . S
O126 In117 2.326 . S
O126 C122 1.260 . S
C127 O118 1.240 . S
C127 O119 1.252 1_545 S
O128 In117 2.294 1_565 S
O128 C121 1.240 . S
O129 In117 2.326 1_565 S
O129 C121 1.252 . S
In130 O131 2.294 . S
In130 O132 2.326 1_565 S
In130 O136 2.266 . S
In130 O137 2.326 . S
In130 O138 2.266 . S
In130 O139 2.326 . S
In130 O141 2.294 1_565 S
In130 O142 2.326 1_565 S
O131 In130 2.294 . S
O131 C140 1.240 . S
O132 In130 2.326 1_545 S
O132 C140 1.252 1_545 S
C133 O136 1.252 . S
C133 O137 1.260 . S
C134 O141 1.240 . S
C134 O142 1.252 . S
C135 O138 1.252 . S
C135 O139 1.260 . S
O136 In130 2.266 . S
O136 C133 1.252 . S
O137 In130 2.326 . S
O137 C133 1.260 . S
O138 In130 2.266 . S
O138 C135 1.252 . S
O139 In130 2.326 . S
O139 C135 1.260 . S
C140 O131 1.240 . S
C140 O132 1.252 1_565 S
O141 In130 2.294 1_545 S
O141 C134 1.240 . S
O142 In130 2.326 1_545 S
O142 C134 1.252 . S
In143 O144 2.294 . S
In143 O145 2.326 1_565 S
In143 O149 2.266 . S
In143 O150 2.326 . S
In143 O151 2.266 . S
In143 O152 2.326 . S
In143 O154 2.294 1_565 S
In143 O155 2.326 1_565 S
O144 In143 2.294 . S
O144 C153 1.240 . S
O145 In143 2.326 1_545 S
O145 C153 1.252 1_545 S
C146 O149 1.252 . S
C146 O150 1.260 . S
C147 O154 1.240 . S
C147 O155 1.252 . S
C148 O151 1.252 . S
C148 O152 1.260 . S
O149 In143 2.266 . S
O149 C146 1.252 . S
O150 In143 2.326 . S
O150 C146 1.260 . S
O151 In143 2.266 . S
O151 C148 1.252 . S
O152 In143 2.326 . S
O152 C148 1.260 . S
C153 O144 1.240 . S
C153 O145 1.252 1_565 S
O154 In143 2.294 1_545 S
O154 C147 1.240 . S
O155 In143 2.326 1_545 S
O155 C147 1.252 . S
In156 O157 2.294 . S
In156 O158 2.326 . S
In156 O162 2.266 . S
In156 O163 2.326 . S
In156 O164 2.266 . S
In156 O165 2.326 . S
In156 O167 2.294 . S
In156 O168 2.326 . S
O157 In156 2.294 . S
O157 C166 1.240 . S
O158 In156 2.326 . S
O158 C166 1.252 . S
C159 O162 1.252 . S
C159 O163 1.260 . S
C160 O167 1.240 . S
C160 O168 1.252 . S
C161 O164 1.252 . S
C161 O165 1.260 . S
O162 In156 2.266 . S
O162 C159 1.252 . S
O163 In156 2.326 . S
O163 C159 1.260 . S
O164 In156 2.266 . S
O164 C161 1.252 . S
O165 In156 2.326 . S
O165 C161 1.260 . S
C166 O157 1.240 . S
C166 O158 1.252 . S
O167 In156 2.294 . S
O167 C160 1.240 . S
O168 In156 2.326 . S
O168 C160 1.252 . S
In169 O170 2.294 . S
In169 O171 2.326 . S
In169 O175 2.266 . S
In169 O176 2.326 . S
In169 O177 2.266 . S
In169 O178 2.326 . S
In169 O180 2.294 . S
In169 O181 2.326 . S
O170 In169 2.294 . S
O170 C179 1.240 . S
O171 In169 2.326 . S
O171 C179 1.252 . S
C172 O175 1.252 . S
C172 O176 1.260 . S
C173 O180 1.240 . S
C173 O181 1.252 . S
C174 O177 1.252 . S
C174 O178 1.260 . S
O175 In169 2.266 . S
O175 C172 1.252 . S
O176 In169 2.326 . S
O176 C172 1.260 . S
O177 In169 2.266 . S
O177 C174 1.252 . S
O178 In169 2.326 . S
O178 C174 1.260 . S
C179 O170 1.240 . S
C179 O171 1.252 . S
O180 In169 2.294 . S
O180 C173 1.240 . S
O181 In169 2.326 . S
O181 C173 1.252 . S
In182 O183 2.294 . S
In182 O184 2.326 . S
In182 O188 2.266 . S
In182 O189 2.326 . S
In182 O190 2.266 . S
In182 O191 2.326 . S
In182 O193 2.294 . S
In182 O194 2.326 . S
O183 In182 2.294 . S
O183 C192 1.240 . S
O184 In182 2.326 . S
O184 C192 1.252 . S
C185 O188 1.252 . S
C185 O189 1.260 . S
C186 O193 1.240 . S
C186 O194 1.252 . S
C187 O190 1.252 . S
C187 O191 1.260 . S
O188 In182 2.266 . S
O188 C185 1.252 . S
O189 In182 2.326 . S
O189 C185 1.260 . S
O190 In182 2.266 . S
O190 C187 1.252 . S
O191 In182 2.326 . S
O191 C187 1.260 . S
C192 O183 1.240 . S
C192 O184 1.252 . S
O193 In182 2.294 . S
O193 C186 1.240 . S
O194 In182 2.326 . S
O194 C186 1.252 . S
In195 O196 2.294 . S
In195 O197 2.326 . S
In195 O201 2.266 . S
In195 O202 2.326 . S
In195 O203 2.266 . S
In195 O204 2.326 . S
In195 O206 2.294 . S
In195 O207 2.326 . S
O196 In195 2.294 . S
O196 C205 1.240 . S
O197 In195 2.326 . S
O197 C205 1.252 . S
C198 O201 1.252 . S
C198 O202 1.260 . S
C199 O206 1.240 . S
C199 O207 1.252 . S
C200 O203 1.252 . S
C200 O204 1.260 . S
O201 In195 2.266 . S
O201 C198 1.252 . S
O202 In195 2.326 . S
O202 C198 1.260 . S
O203 In195 2.266 . S
O203 C200 1.252 . S
O204 In195 2.326 . S
O204 C200 1.260 . S
C205 O196 1.240 . S
C205 O197 1.252 . S
O206 In195 2.294 . S
O206 C199 1.240 . S
O207 In195 2.326 . S
O207 C199 1.252 . S
C185 C3 1.526 . S
C30 C4 1.525 1_665 S
C153 C17 1.524 1_565 S
C16 C96 1.526 1_455 S
C29 C159 1.526 . S
C127 C49 1.524 1_545 S
C44 C68 1.526 1_655 S
C135 C55 1.526 1_554 S
C56 C82 1.524 1_456 S
C205 C69 1.524 . S
C107 C81 1.526 1_556 S
C179 C101 1.524 . S
C108 C140 1.524 1_546 S
C200 C122 1.526 . S
C148 C174 1.526 . S
C186 C160 1.525 . S
C70 C10 1.569 . S
C5 C75 1.569 . S
C18 C62 1.569 . S
C57 C23 1.569 . S
C94 C36 1.569 . S
C95 C31 1.569 . S
C88 C42 1.569 . S
C43 C83 1.569 . S
C172 C114 1.569 . S
C109 C173 1.569 . S
C120 C166 1.569 . S
C161 C121 1.569 . S
C198 C134 1.569 . S
C199 C133 1.569 . S
C146 C192 1.569 . S
C187 C147 1.569 . S
