# Generated by pormake.
# Topology msp, (4)-cn, num edge types: 1
# Building blocks:
#     Node 0, Type 0, BuildingBlock: NAWXER_clean_sbu_0, # of connection points: 4
#     Node 1, Type 0, BuildingBlock: NAWXER_clean_sbu_0, # of connection points: 4
#     Node 2, Type 0, BuildingBlock: NAWXER_clean_sbu_0, # of connection points: 4
#     Node 3, Type 0, BuildingBlock: NAWXER_clean_sbu_0, # of connection points: 4
#     Node 4, Type 0, BuildingBlock: NAWXER_clean_sbu_0, # of connection points: 4
#     Node 5, Type 0, BuildingBlock: NAWXER_clean_sbu_0, # of connection points: 4
#     Node 6, Type 0, BuildingBlock: NAWXER_clean_sbu_0, # of connection points: 4
#     Node 7, Type 0, BuildingBlock: NAWXER_clean_sbu_0, # of connection points: 4
#     Edge 8, Type (0, 0), BuildingBlock: EYOCIG_clean_linker_4, # of connection points: 2
#     Edge 9, Type (0, 0), BuildingBlock: EYOCIG_clean_linker_4, # of connection points: 2
#     Edge 10, Type (0, 0), BuildingBlock: EYOCIG_clean_linker_4, # of connection points: 2
#     Edge 11, Type (0, 0), BuildingBlock: EYOCIG_clean_linker_4, # of connection points: 2
#     Edge 12, Type (0, 0), BuildingBlock: EYOCIG_clean_linker_4, # of connection points: 2
#     Edge 13, Type (0, 0), BuildingBlock: EYOCIG_clean_linker_4, # of connection points: 2
#     Edge 14, Type (0, 0), BuildingBlock: EYOCIG_clean_linker_4, # of connection points: 2
#     Edge 15, Type (0, 0), BuildingBlock: EYOCIG_clean_linker_4, # of connection points: 2
#     Edge 16, Type (0, 0), BuildingBlock: EYOCIG_clean_linker_4, # of connection points: 2
#     Edge 17, Type (0, 0), BuildingBlock: EYOCIG_clean_linker_4, # of connection points: 2
#     Edge 18, Type (0, 0), BuildingBlock: EYOCIG_clean_linker_4, # of connection points: 2
#     Edge 19, Type (0, 0), BuildingBlock: EYOCIG_clean_linker_4, # of connection points: 2
#     Edge 20, Type (0, 0), BuildingBlock: EYOCIG_clean_linker_4, # of connection points: 2
#     Edge 21, Type (0, 0), BuildingBlock: EYOCIG_clean_linker_4, # of connection points: 2
#     Edge 22, Type (0, 0), BuildingBlock: EYOCIG_clean_linker_4, # of connection points: 2
#     Edge 23, Type (0, 0), BuildingBlock: EYOCIG_clean_linker_4, # of connection points: 2
# Relax obj value: 0.113
# Max RMSD: 0.238
# Mean RMSD: 0.238
data_MOF--net-msp--node1-NAWXER_clean_sbu_0--edge1-EYOCIG_clean_linker_4
_symmetry_space_group_name_H-M    P1
_symmetry_Int_Tables_number       1
_symmetry_cell_setting            triclinic
loop_
_symmetry_equiv_pos_as_xyz
'x, y, z'
_cell_length_a     18.172569
_cell_length_b     15.474402
_cell_length_c     34.646976
_cell_angle_alpha  89.994204
_cell_angle_beta   100.35852
_cell_angle_gamma 90.001367
loop_
_atom_site_label
_atom_site_type_symbol
_atom_site_fract_x
_atom_site_fract_y
_atom_site_fract_z
_atom_type_partial_charge
C0 C 0.13494 0.21286 0.42274 0.0
C1 C 0.90772 0.24832 0.32587 0.0
O2 O 0.13114 0.28739 0.40655 0.0
Zn3 Zn 0.05444 0.35566 0.3624 0.0
O4 O 0.08535 0.15573 0.41169 0.0
Zn5 Zn 0.02369 0.2285 0.37472 0.0
O6 O 0.09492 0.237 0.33165 0.0
O7 O 0.11689 0.37583 0.32386 0.0
O8 O 0.92857 0.18316 0.34723 0.0
O9 O 0.94883 0.31607 0.32881 0.0
O10 O 0.03267 0.45128 0.39479 0.0
O11 O 0.99901 0.32536 0.41612 0.0
C12 C 0.12688 0.29737 0.31553 0.0
C13 C 0.00793 0.40718 0.42062 0.0
C14 C 0.37252 0.29912 0.7 0.0
C15 C 0.49382 0.40622 0.59548 0.0
O16 O 0.40421 0.23784 0.68429 0.0
Zn17 Zn 0.47653 0.22806 0.64161 0.0
O18 O 0.38357 0.37719 0.69147 0.0
Zn19 Zn 0.44649 0.35547 0.65348 0.0
O20 O 0.3699 0.28729 0.60916 0.0
O21 O 0.41525 0.15522 0.60453 0.0
O22 O 0.4692 0.45076 0.62121 0.0
O23 O 0.50227 0.32436 0.60011 0.0
O24 O 0.57111 0.18209 0.66949 0.0
O25 O 0.5514 0.31528 0.68768 0.0
C26 C 0.36608 0.2126 0.59312 0.0
C27 C 0.59206 0.24715 0.69089 0.0
C28 C 0.87386 0.69769 0.70055 0.0
C29 C 0.99328 0.58987 0.5954 0.0
O30 O 0.88514 0.61943 0.69241 0.0
Zn31 Zn 0.9473 0.64072 0.65389 0.0
O32 O 0.90496 0.75867 0.68436 0.0
Zn33 Zn 0.97635 0.76822 0.64139 0.0
O34 O 0.91435 0.83997 0.60433 0.0
O35 O 0.86989 0.70765 0.60961 0.0
O36 O 0.00168 0.67176 0.59991 0.0
O37 O 0.96944 0.54538 0.62141 0.0
O38 O 0.05264 0.6822 0.68733 0.0
O39 O 0.07088 0.8154 0.6686 0.0
C40 C 0.86568 0.78191 0.59319 0.0
C41 C 0.09278 0.75075 0.69008 0.0
C42 C 0.40765 0.75116 0.32691 0.0
C43 C 0.63785 0.78126 0.422 0.0
O44 O 0.43 0.81563 0.34842 0.0
Zn45 Zn 0.52513 0.76833 0.375 0.0
O46 O 0.44772 0.68263 0.32929 0.0
Zn47 Zn 0.55326 0.64067 0.36205 0.0
O48 O 0.53161 0.54531 0.39469 0.0
O49 O 0.5007 0.67182 0.41662 0.0
O50 O 0.63232 0.70701 0.40558 0.0
O51 O 0.58885 0.83945 0.41172 0.0
O52 O 0.59525 0.7589 0.33131 0.0
O53 O 0.61403 0.61952 0.32301 0.0
C54 C 0.50863 0.58985 0.42095 0.0
C55 C 0.62563 0.69771 0.31488 0.0
C56 C 0.6277 0.79631 0.81577 0.0
C57 C 0.50952 0.90663 0.92114 0.0
O58 O 0.59551 0.73628 0.83196 0.0
Zn59 Zn 0.5244 0.72819 0.875 0.0
O60 O 0.61779 0.87495 0.82387 0.0
Zn61 Zn 0.55514 0.85539 0.86246 0.0
O62 O 0.63218 0.7871 0.90631 0.0
O63 O 0.58646 0.65552 0.91186 0.0
O64 O 0.53404 0.95089 0.89527 0.0
O65 O 0.50044 0.82488 0.91651 0.0
O66 O 0.42908 0.68302 0.84758 0.0
O67 O 0.44936 0.81573 0.82892 0.0
C68 C 0.63625 0.71266 0.92255 0.0
C69 C 0.4082 0.74801 0.82611 0.0
C70 C 0.87192 0.79676 0.19974 0.0
C71 C 0.99344 0.90696 0.09566 0.0
O72 O 0.90446 0.73652 0.18387 0.0
Zn73 Zn 0.97714 0.72827 0.14151 0.0
O74 O 0.88228 0.87528 0.19167 0.0
Zn75 Zn 0.94602 0.85532 0.15367 0.0
O76 O 0.87034 0.78703 0.10907 0.0
O77 O 0.91654 0.65543 0.10423 0.0
O78 O 0.96833 0.95096 0.1214 0.0
O79 O 0.00253 0.82515 0.10023 0.0
O80 O 0.07173 0.6828 0.16952 0.0
O81 O 0.05121 0.8157 0.18783 0.0
C82 C 0.86717 0.71259 0.09284 0.0
C83 C 0.09227 0.74788 0.19098 0.0
C84 C 0.49489 0.08897 0.09609 0.0
C85 C 0.37344 0.19764 0.20058 0.0
O86 O 0.4715 0.04456 0.12228 0.0
Zn87 Zn 0.44817 0.14003 0.15445 0.0
O88 O 0.50232 0.17102 0.10027 0.0
Zn89 Zn 0.47588 0.26778 0.14131 0.0
O90 O 0.57003 0.31632 0.16839 0.0
O91 O 0.55284 0.18321 0.18759 0.0
O92 O 0.40406 0.25873 0.1842 0.0
O93 O 0.38597 0.1194 0.19296 0.0
O94 O 0.37004 0.20486 0.11013 0.0
O95 O 0.41292 0.33759 0.10383 0.0
C96 C 0.59242 0.25212 0.19007 0.0
C97 C 0.3647 0.27868 0.09335 0.0
C98 C 0.90738 0.25072 0.82681 0.0
C99 C 0.13668 0.28009 0.92237 0.0
O100 O 0.9295 0.31515 0.8484 0.0
Zn101 Zn 0.02451 0.26794 0.87511 0.0
O102 O 0.94765 0.18237 0.82909 0.0
Zn103 Zn 0.0533 0.14056 0.86168 0.0
O104 O 0.03168 0.04493 0.89421 0.0
O105 O 1.00018 0.17083 0.9165 0.0
O106 O 0.13154 0.20629 0.90559 0.0
O107 O 0.08784 0.33851 0.91217 0.0
O108 O 0.09498 0.26002 0.83175 0.0
O109 O 0.11503 0.12123 0.82265 0.0
C110 C 0.00859 0.08887 0.92063 0.0
C111 C 0.12608 0.1999 0.81506 0.0
C112 C 0.99941 0.47939 0.48923 0.0
C113 C 0.00309 0.44575 0.45806 0.0
C114 C 0.99999 0.51776 0.52656 0.0
C115 C 0.9972 0.55164 0.55778 0.0
C116 C 0.50203 0.51714 0.48967 0.0
C117 C 0.50477 0.55133 0.45851 0.0
C118 C 0.50257 0.47839 0.52691 0.0
C119 C 0.49887 0.44445 0.55801 0.0
C120 C 0.50305 0.01694 0.02736 0.0
C121 C 0.49946 0.05031 0.05861 0.0
C122 C 0.50244 0.97885 0.98994 0.0
C123 C 0.50535 0.94482 0.95876 0.0
C124 C 0.00208 0.97914 0.02703 0.0
C125 C 0.99834 0.94554 0.05821 0.0
C126 C 0.00194 0.01706 0.98961 0.0
C127 C 0.00495 0.04989 0.95817 0.0
C128 C 0.71754 0.25443 0.24311 0.0
C129 C 0.66101 0.25655 0.21851 0.0
C130 C 0.78283 0.24915 0.2726 0.0
C131 C 0.83928 0.24608 0.29724 0.0
C132 C 0.7164 0.24698 0.74458 0.0
C133 C 0.66018 0.24441 0.71976 0.0
C134 C 0.78171 0.25204 0.77409 0.0
C135 C 0.83848 0.25447 0.79854 0.0
C136 C 0.21783 0.75267 0.74329 0.0
C137 C 0.16127 0.75455 0.71867 0.0
C138 C 0.28321 0.74807 0.7728 0.0
C139 C 0.33973 0.74548 0.79744 0.0
C140 C 0.28205 0.75296 0.27412 0.0
C141 C 0.33881 0.75513 0.29859 0.0
C142 C 0.2167 0.74809 0.24463 0.0
C143 C 0.16042 0.74548 0.21984 0.0
C144 C 0.27587 0.23747 0.24571 0.0
C145 C 0.32029 0.21838 0.22517 0.0
C146 C 0.2227 0.25841 0.2693 0.0
C147 C 0.17885 0.27558 0.29044 0.0
C148 C 0.27595 0.26019 0.7458 0.0
C149 C 0.31994 0.27867 0.72493 0.0
C150 C 0.22279 0.2394 0.76941 0.0
C151 C 0.17853 0.2221 0.7903 0.0
C152 C 0.72433 0.75656 0.77016 0.0
C153 C 0.68007 0.77387 0.79103 0.0
C154 C 0.77755 0.73607 0.74656 0.0
C155 C 0.82154 0.7186 0.72554 0.0
C156 C 0.77474 0.75816 0.24524 0.0
C157 C 0.81926 0.77483 0.22442 0.0
C158 C 0.72165 0.73744 0.2689 0.0
C159 C 0.67794 0.71836 0.28983 0.0
C160 C 0.27392 0.19852 0.52625 0.0
C161 C 0.31679 0.20241 0.55672 0.0
C162 C 0.22808 0.19865 0.48928 0.0
C163 C 0.18478 0.20273 0.45896 0.0
C164 C 0.77668 0.79284 0.52533 0.0
C165 C 0.81802 0.79004 0.55627 0.0
C166 C 0.73207 0.79268 0.48813 0.0
C167 C 0.6884 0.78951 0.45798 0.0
C168 C 0.77635 0.69915 0.02558 0.0
C169 C 0.81863 0.70278 0.05623 0.0
C170 C 0.73057 0.69913 0.98864 0.0
C171 C 0.68671 0.70283 0.95853 0.0
C172 C 0.27337 0.28785 0.0263 0.0
C173 C 0.31568 0.28552 0.05688 0.0
C174 C 0.22875 0.28852 0.98918 0.0
C175 C 0.186 0.28695 0.95874 0.0
loop_
_geom_bond_atom_site_label_1
_geom_bond_atom_site_label_2
_geom_bond_distance
_geom_bond_site_symmetry_2
_ccdc_geom_bond_type
C0 O2 1.247 . S
C0 O4 1.258 . S
C1 O8 1.247 . S
C1 O9 1.258 . S
O2 C0 1.247 . S
O2 Zn3 2.028 . S
Zn3 O2 2.028 . S
Zn3 O7 2.035 . S
Zn3 O9 2.035 1_455 S
Zn3 O10 2.028 . S
O4 C0 1.258 . S
O4 Zn5 2.035 . S
Zn5 O4 2.035 . S
Zn5 O6 2.028 . S
Zn5 O8 2.028 1_455 S
Zn5 O11 2.035 1_455 S
O6 Zn5 2.028 . S
O6 C12 1.247 . S
O7 Zn3 2.035 . S
O7 C12 1.258 . S
O8 C1 1.247 . S
O8 Zn5 2.028 1_655 S
O9 C1 1.258 . S
O9 Zn3 2.035 1_655 S
O10 Zn3 2.028 . S
O10 C13 1.247 1_455 S
O11 Zn5 2.035 1_655 S
O11 C13 1.258 . S
C12 O6 1.247 . S
C12 O7 1.258 . S
C13 O10 1.247 1_655 S
C13 O11 1.258 . S
C14 O16 1.247 . S
C14 O18 1.258 . S
C15 O22 1.247 . S
C15 O23 1.258 . S
O16 C14 1.247 . S
O16 Zn17 2.028 . S
Zn17 O16 2.028 . S
Zn17 O21 2.035 . S
Zn17 O23 2.035 . S
Zn17 O24 2.028 . S
O18 C14 1.258 . S
O18 Zn19 2.035 . S
Zn19 O18 2.035 . S
Zn19 O20 2.028 . S
Zn19 O22 2.028 . S
Zn19 O25 2.035 . S
O20 Zn19 2.028 . S
O20 C26 1.247 . S
O21 Zn17 2.035 . S
O21 C26 1.258 . S
O22 C15 1.247 . S
O22 Zn19 2.028 . S
O23 C15 1.258 . S
O23 Zn17 2.035 . S
O24 Zn17 2.028 . S
O24 C27 1.247 . S
O25 Zn19 2.035 . S
O25 C27 1.258 . S
C26 O20 1.247 . S
C26 O21 1.258 . S
C27 O24 1.247 . S
C27 O25 1.258 . S
C28 O30 1.247 . S
C28 O32 1.258 . S
C29 O36 1.247 . S
C29 O37 1.258 1_455 S
O30 C28 1.247 . S
O30 Zn31 2.028 . S
Zn31 O30 2.028 . S
Zn31 O35 2.035 . S
Zn31 O37 2.035 . S
Zn31 O38 2.028 1_655 S
O32 C28 1.258 . S
O32 Zn33 2.035 . S
Zn33 O32 2.035 . S
Zn33 O34 2.028 . S
Zn33 O36 2.028 1_655 S
Zn33 O39 2.035 1_655 S
O34 Zn33 2.028 . S
O34 C40 1.247 . S
O35 Zn31 2.035 . S
O35 C40 1.258 . S
O36 C29 1.247 . S
O36 Zn33 2.028 1_455 S
O37 C29 1.258 1_655 S
O37 Zn31 2.035 . S
O38 Zn31 2.028 1_455 S
O38 C41 1.247 . S
O39 Zn33 2.035 1_455 S
O39 C41 1.258 . S
C40 O34 1.247 . S
C40 O35 1.258 . S
C41 O38 1.247 . S
C41 O39 1.258 . S
C42 O44 1.247 . S
C42 O46 1.258 . S
C43 O50 1.247 . S
C43 O51 1.258 . S
O44 C42 1.247 . S
O44 Zn45 2.028 . S
Zn45 O44 2.028 . S
Zn45 O49 2.035 . S
Zn45 O51 2.035 . S
Zn45 O52 2.028 . S
O46 C42 1.258 . S
O46 Zn47 2.035 . S
Zn47 O46 2.035 . S
Zn47 O48 2.028 . S
Zn47 O50 2.028 . S
Zn47 O53 2.035 . S
O48 Zn47 2.028 . S
O48 C54 1.247 . S
O49 Zn45 2.035 . S
O49 C54 1.258 . S
O50 C43 1.247 . S
O50 Zn47 2.028 . S
O51 C43 1.258 . S
O51 Zn45 2.035 . S
O52 Zn45 2.028 . S
O52 C55 1.247 . S
O53 Zn47 2.035 . S
O53 C55 1.258 . S
C54 O48 1.247 . S
C54 O49 1.258 . S
C55 O52 1.247 . S
C55 O53 1.258 . S
C56 O58 1.247 . S
C56 O60 1.258 . S
C57 O64 1.247 . S
C57 O65 1.258 . S
O58 C56 1.247 . S
O58 Zn59 2.028 . S
Zn59 O58 2.028 . S
Zn59 O63 2.035 . S
Zn59 O65 2.035 . S
Zn59 O66 2.028 . S
O60 C56 1.258 . S
O60 Zn61 2.035 . S
Zn61 O60 2.035 . S
Zn61 O62 2.028 . S
Zn61 O64 2.028 . S
Zn61 O67 2.035 . S
O62 Zn61 2.028 . S
O62 C68 1.247 . S
O63 Zn59 2.035 . S
O63 C68 1.258 . S
O64 C57 1.247 . S
O64 Zn61 2.028 . S
O65 C57 1.258 . S
O65 Zn59 2.035 . S
O66 Zn59 2.028 . S
O66 C69 1.247 . S
O67 Zn61 2.035 . S
O67 C69 1.258 . S
C68 O62 1.247 . S
C68 O63 1.258 . S
C69 O66 1.247 . S
C69 O67 1.258 . S
C70 O72 1.247 . S
C70 O74 1.258 . S
C71 O78 1.247 1_455 S
C71 O79 1.258 . S
O72 C70 1.247 . S
O72 Zn73 2.028 . S
Zn73 O72 2.028 . S
Zn73 O77 2.035 . S
Zn73 O79 2.035 1_655 S
Zn73 O80 2.028 1_655 S
O74 C70 1.258 . S
O74 Zn75 2.035 . S
Zn75 O74 2.035 . S
Zn75 O76 2.028 . S
Zn75 O78 2.028 . S
Zn75 O81 2.035 1_655 S
O76 Zn75 2.028 . S
O76 C82 1.247 . S
O77 Zn73 2.035 . S
O77 C82 1.258 . S
O78 C71 1.247 1_655 S
O78 Zn75 2.028 . S
O79 C71 1.258 . S
O79 Zn73 2.035 1_455 S
O80 Zn73 2.028 1_455 S
O80 C83 1.247 . S
O81 Zn75 2.035 1_455 S
O81 C83 1.258 . S
C82 O76 1.247 . S
C82 O77 1.258 . S
C83 O80 1.247 . S
C83 O81 1.258 . S
C84 O86 1.247 . S
C84 O88 1.258 . S
C85 O92 1.247 . S
C85 O93 1.258 . S
O86 C84 1.247 . S
O86 Zn87 2.028 . S
Zn87 O86 2.028 . S
Zn87 O91 2.035 . S
Zn87 O93 2.035 . S
Zn87 O94 2.028 . S
O88 C84 1.258 . S
O88 Zn89 2.035 . S
Zn89 O88 2.035 . S
Zn89 O90 2.028 . S
Zn89 O92 2.028 . S
Zn89 O95 2.035 . S
O90 Zn89 2.028 . S
O90 C96 1.247 . S
O91 Zn87 2.035 . S
O91 C96 1.258 . S
O92 C85 1.247 . S
O92 Zn89 2.028 . S
O93 C85 1.258 . S
O93 Zn87 2.035 . S
O94 Zn87 2.028 . S
O94 C97 1.247 . S
O95 Zn89 2.035 . S
O95 C97 1.258 . S
C96 O90 1.247 . S
C96 O91 1.258 . S
C97 O94 1.247 . S
C97 O95 1.258 . S
C98 O100 1.247 . S
C98 O102 1.258 . S
C99 O106 1.247 . S
C99 O107 1.258 . S
O100 C98 1.247 . S
O100 Zn101 2.028 1_655 S
Zn101 O100 2.028 1_455 S
Zn101 O105 2.035 1_455 S
Zn101 O107 2.035 . S
Zn101 O108 2.028 . S
O102 C98 1.258 . S
O102 Zn103 2.035 1_655 S
Zn103 O102 2.035 1_455 S
Zn103 O104 2.028 . S
Zn103 O106 2.028 . S
Zn103 O109 2.035 . S
O104 Zn103 2.028 . S
O104 C110 1.247 1_455 S
O105 Zn101 2.035 1_655 S
O105 C110 1.258 . S
O106 C99 1.247 . S
O106 Zn103 2.028 . S
O107 C99 1.258 . S
O107 Zn101 2.035 . S
O108 Zn101 2.028 . S
O108 C111 1.247 . S
O109 Zn103 2.035 . S
O109 C111 1.258 . S
C110 O104 1.247 1_655 S
C110 O105 1.258 . S
C111 O108 1.247 . S
C111 O109 1.258 . S
C112 C113 1.170 . S
C112 C114 1.380 1_655 S
C113 C112 1.170 . S
C114 C112 1.380 1_455 S
C114 C115 1.170 . S
C115 C114 1.170 . S
C116 C117 1.170 . S
C116 C118 1.380 . S
C117 C116 1.170 . S
C118 C116 1.380 . S
C118 C119 1.170 . S
C119 C118 1.170 . S
C120 C121 1.170 . S
C120 C122 1.380 1_544 S
C121 C120 1.170 . S
C122 C120 1.380 1_566 S
C122 C123 1.170 . S
C123 C122 1.170 . S
C124 C125 1.170 . S
C124 C126 1.380 1_464 S
C125 C124 1.170 . S
C126 C124 1.380 1_646 S
C126 C127 1.171 . S
C127 C126 1.171 . S
C128 C129 1.170 . S
C128 C130 1.380 . S
C129 C128 1.170 . S
C130 C128 1.380 . S
C130 C131 1.170 . S
C131 C130 1.170 . S
C132 C133 1.170 . S
C132 C134 1.380 . S
C133 C132 1.170 . S
C134 C132 1.380 . S
C134 C135 1.170 . S
C135 C134 1.170 . S
C136 C137 1.170 . S
C136 C138 1.380 . S
C137 C136 1.170 . S
C138 C136 1.380 . S
C138 C139 1.170 . S
C139 C138 1.170 . S
C140 C141 1.170 . S
C140 C142 1.380 . S
C141 C140 1.170 . S
C142 C140 1.380 . S
C142 C143 1.170 . S
C143 C142 1.170 . S
C144 C145 1.170 . S
C144 C146 1.380 . S
C145 C144 1.170 . S
C146 C144 1.380 . S
C146 C147 1.170 . S
C147 C146 1.170 . S
C148 C149 1.170 . S
C148 C150 1.380 . S
C149 C148 1.170 . S
C150 C148 1.380 . S
C150 C151 1.170 . S
C151 C150 1.170 . S
C152 C153 1.170 . S
C152 C154 1.380 . S
C153 C152 1.170 . S
C154 C152 1.380 . S
C154 C155 1.170 . S
C155 C154 1.170 . S
C156 C157 1.170 . S
C156 C158 1.380 . S
C157 C156 1.170 . S
C158 C156 1.380 . S
C158 C159 1.170 . S
C159 C158 1.170 . S
C160 C161 1.170 . S
C160 C162 1.380 . S
C161 C160 1.170 . S
C162 C160 1.380 . S
C162 C163 1.170 . S
C163 C162 1.170 . S
C164 C165 1.170 . S
C164 C166 1.380 . S
C165 C164 1.170 . S
C166 C164 1.380 . S
C166 C167 1.170 . S
C167 C166 1.170 . S
C168 C169 1.170 . S
C168 C170 1.380 1_554 S
C169 C168 1.170 . S
C170 C168 1.380 1_556 S
C170 C171 1.170 . S
C171 C170 1.170 . S
C172 C173 1.170 . S
C172 C174 1.380 1_554 S
C173 C172 1.170 . S
C174 C172 1.380 1_556 S
C174 C175 1.170 . S
C175 C174 1.170 . S
C113 C13 1.877 . S
C115 C29 1.868 . S
C117 C54 1.858 . S
C119 C15 1.882 . S
C121 C84 1.875 . S
C123 C57 1.847 . S
C125 C71 1.880 . S
C127 C110 1.860 . S
C129 C96 1.856 . S
C131 C1 1.865 . S
C133 C27 1.866 . S
C135 C98 1.850 . S
C137 C41 1.859 . S
C139 C69 1.865 . S
C141 C42 1.852 . S
C143 C83 1.867 . S
C145 C85 2.032 . S
C147 C12 2.054 . S
C149 C14 2.029 . S
C151 C111 2.062 . S
C153 C56 2.059 . S
C155 C28 2.039 . S
C157 C70 2.048 . S
C159 C55 2.056 . S
C161 C26 0.872 . S
C163 C0 0.880 . S
C165 C40 0.845 . S
C167 C43 0.893 . S
C169 C82 0.858 . S
C171 C68 0.890 . S
C173 C97 0.875 . S
C175 C99 0.880 . S
