# Generated by pormake.
# Topology uou, (4)-cn, num edge types: 1
# Building blocks:
#     Node 0, Type 0, BuildingBlock: NAHDIM_clean_sbu_0, # of connection points: 4
#     Node 1, Type 0, BuildingBlock: NAHDIM_clean_sbu_0, # of connection points: 4
#     Node 2, Type 0, BuildingBlock: NAHDIM_clean_sbu_0, # of connection points: 4
#     Node 3, Type 0, BuildingBlock: NAHDIM_clean_sbu_0, # of connection points: 4
#     Node 4, Type 0, BuildingBlock: NAHDIM_clean_sbu_0, # of connection points: 4
#     Node 5, Type 0, BuildingBlock: NAHDIM_clean_sbu_0, # of connection points: 4
#     Node 6, Type 0, BuildingBlock: NAHDIM_clean_sbu_0, # of connection points: 4
#     Node 7, Type 0, BuildingBlock: NAHDIM_clean_sbu_0, # of connection points: 4
#     Node 8, Type 0, BuildingBlock: NAHDIM_clean_sbu_0, # of connection points: 4
#     Node 9, Type 0, BuildingBlock: NAHDIM_clean_sbu_0, # of connection points: 4
#     Node 10, Type 0, BuildingBlock: NAHDIM_clean_sbu_0, # of connection points: 4
#     Node 11, Type 0, BuildingBlock: NAHDIM_clean_sbu_0, # of connection points: 4
#     Node 12, Type 0, BuildingBlock: NAHDIM_clean_sbu_0, # of connection points: 4
#     Node 13, Type 0, BuildingBlock: NAHDIM_clean_sbu_0, # of connection points: 4
#     Node 14, Type 0, BuildingBlock: NAHDIM_clean_sbu_0, # of connection points: 4
#     Node 15, Type 0, BuildingBlock: NAHDIM_clean_sbu_0, # of connection points: 4
#     Edge 16, Type (0, 0), None
#     Edge 17, Type (0, 0), None
#     Edge 18, Type (0, 0), None
#     Edge 19, Type (0, 0), None
#     Edge 20, Type (0, 0), None
#     Edge 21, Type (0, 0), None
#     Edge 22, Type (0, 0), None
#     Edge 23, Type (0, 0), None
#     Edge 24, Type (0, 0), None
#     Edge 25, Type (0, 0), None
#     Edge 26, Type (0, 0), None
#     Edge 27, Type (0, 0), None
#     Edge 28, Type (0, 0), None
#     Edge 29, Type (0, 0), None
#     Edge 30, Type (0, 0), None
#     Edge 31, Type (0, 0), None
#     Edge 32, Type (0, 0), None
#     Edge 33, Type (0, 0), None
#     Edge 34, Type (0, 0), None
#     Edge 35, Type (0, 0), None
#     Edge 36, Type (0, 0), None
#     Edge 37, Type (0, 0), None
#     Edge 38, Type (0, 0), None
#     Edge 39, Type (0, 0), None
#     Edge 40, Type (0, 0), None
#     Edge 41, Type (0, 0), None
#     Edge 42, Type (0, 0), None
#     Edge 43, Type (0, 0), None
#     Edge 44, Type (0, 0), None
#     Edge 45, Type (0, 0), None
#     Edge 46, Type (0, 0), None
#     Edge 47, Type (0, 0), None
# Relax obj value: 0.095
# Max RMSD: 0.137
# Mean RMSD: 0.137
data_MOF--net-uou--node1-NAHDIM_clean_sbu_0--edge1-none
_symmetry_space_group_name_H-M    P1
_symmetry_Int_Tables_number       1
_symmetry_cell_setting            triclinic
loop_
_symmetry_equiv_pos_as_xyz
'x, y, z'
_cell_length_a     19.063835
_cell_length_b     19.230891
_cell_length_c     23.015101
_cell_angle_alpha  90.000243
_cell_angle_beta   90.0
_cell_angle_gamma 90.000002
loop_
_atom_site_label
_atom_site_type_symbol
_atom_site_fract_x
_atom_site_fract_y
_atom_site_fract_z
_atom_type_partial_charge
C0 C 0.19964 -0.0233 0.07664 0.0
O1 O 0.15466 0.92515 0.08005 0.0
O2 O 0.05635 0.04883 0.17788 0.0
Zn3 Zn 0.07553 0.05965 0.09248 0.0
O4 O 0.01343 -0.00649 0.04836 0.0
C5 C -0.00601 0.1821 0.06379 0.0
O6 O 0.94107 0.13844 0.06463 0.0
O7 O 0.17773 0.03896 0.07921 0.0
C8 C 0.01048 -0.00594 -0.00668 0.0
O9 O 0.0488 0.03858 0.96392 0.0
C10 C -0.00595 0.04308 0.19679 0.0
O11 O 0.94134 0.04202 0.16012 0.0
O12 O 0.05591 0.15971 0.07188 0.0
C13 C 0.27519 0.96257 0.07664 0.0
O14 O 0.32018 0.01413 0.08004 0.0
O15 O 0.41849 0.89045 0.17789 0.0
Zn16 Zn 0.39931 0.87963 0.09248 0.0
O17 O 0.46141 0.94576 0.04836 0.0
C18 C 0.48085 0.75717 0.06379 0.0
O19 O 0.53376 0.80084 0.06461 0.0
O20 O 0.29711 0.90032 0.07921 0.0
C21 C 0.46435 0.94521 -0.00668 0.0
O22 O 0.42602 0.9007 0.96392 0.0
C23 C 0.48079 0.89618 0.1968 0.0
O24 O 0.5335 0.89723 0.16012 0.0
O25 O 0.41893 0.77957 0.07189 0.0
C26 C 0.69964 0.96257 0.37956 0.0
O27 O 0.65466 0.01412 0.37615 0.0
O28 O 0.55635 0.89044 0.27831 0.0
Zn29 Zn 0.57553 0.87962 0.36372 0.0
O30 O 0.51343 0.94576 0.40784 0.0
C31 C 0.49399 0.75717 0.39241 0.0
O32 O 0.44107 0.80083 0.39157 0.0
O33 O 0.67773 0.90031 0.37699 0.0
C34 C 0.51048 0.94521 0.46288 0.0
O35 O 0.5488 0.90069 0.49228 0.0
C36 C 0.49405 0.89619 0.25941 0.0
O37 O 0.44133 0.89726 0.29608 0.0
O38 O 0.55591 0.77956 0.38432 0.0
C39 C 0.77519 -0.02331 0.37956 0.0
O40 O 0.82018 0.92514 0.37616 0.0
O41 O 0.91849 0.04882 0.27831 0.0
Zn42 Zn 0.89931 0.05964 0.36372 0.0
O43 O 0.96141 -0.00649 0.40784 0.0
C44 C 0.98085 0.1821 0.39241 0.0
O45 O 0.03376 0.13843 0.39159 0.0
O46 O 0.79711 0.03895 0.37699 0.0
C47 C 0.96435 -0.00594 0.46288 0.0
O48 O 0.92602 0.03857 0.49227 0.0
C49 C 0.98079 0.04309 0.2594 0.0
O50 O 0.03351 0.04204 0.29608 0.0
O51 O 0.91893 0.1597 0.38431 0.0
C52 C 0.77519 0.96257 0.87956 0.0
O53 O 0.82017 0.01412 0.87615 0.0
O54 O 0.91848 0.89044 0.77831 0.0
Zn55 Zn 0.8993 0.87962 0.86372 0.0
O56 O 0.9614 0.94576 0.90784 0.0
C57 C 0.98084 0.75717 0.89241 0.0
O58 O 0.03376 0.80083 0.89157 0.0
O59 O 0.7971 0.90031 0.87699 0.0
C60 C 0.96435 0.94521 0.96288 0.0
O61 O 0.92603 0.90069 -0.00772 0.0
C62 C 0.98078 0.89619 0.75941 0.0
O63 O 0.03349 0.89725 0.79608 0.0
O64 O 0.91892 0.77956 0.88432 0.0
C65 C 0.69964 -0.02331 0.87956 0.0
O66 O 0.65465 0.92514 0.87616 0.0
O67 O 0.55634 0.04882 0.77831 0.0
Zn68 Zn 0.57552 0.05964 0.86372 0.0
O69 O 0.51342 -0.00649 0.90784 0.0
C70 C 0.49398 0.1821 0.89241 0.0
O71 O 0.44107 0.13843 0.89159 0.0
O72 O 0.67772 0.03895 0.87699 0.0
C73 C 0.51048 -0.00594 0.96288 0.0
O74 O 0.54881 0.03857 -0.00773 0.0
C75 C 0.49404 0.04309 0.7594 0.0
O76 O 0.44133 0.04204 0.79608 0.0
O77 O 0.5559 0.1597 0.88431 0.0
C78 C 0.27519 -0.0233 0.57664 0.0
O79 O 0.32017 0.92515 0.58005 0.0
O80 O 0.41848 0.04883 0.67788 0.0
Zn81 Zn 0.3993 0.05965 0.59248 0.0
O82 O 0.4614 -0.00649 0.54836 0.0
C83 C 0.48084 0.1821 0.56379 0.0
O84 O 0.53376 0.13844 0.56463 0.0
O85 O 0.2971 0.03896 0.57921 0.0
C86 C 0.46435 -0.00594 0.49332 0.0
O87 O 0.42603 0.03858 0.46392 0.0
C88 C 0.48078 0.04308 0.69679 0.0
O89 O 0.5335 0.04201 0.66012 0.0
O90 O 0.41892 0.15971 0.57187 0.0
C91 C 0.19964 0.96257 0.57664 0.0
O92 O 0.15465 0.01413 0.58004 0.0
O93 O 0.05634 0.89045 0.67789 0.0
Zn94 Zn 0.07552 0.87963 0.59248 0.0
O95 O 0.01342 0.94576 0.54836 0.0
C96 C -0.00602 0.75717 0.56379 0.0
O97 O 0.94107 0.80084 0.56461 0.0
O98 O 0.17772 0.90032 0.57921 0.0
C99 C 0.01048 0.94521 0.49332 0.0
O100 O 0.04881 0.9007 0.46392 0.0
C101 C -0.00596 0.89618 0.69679 0.0
O102 O 0.94132 0.89723 0.66012 0.0
O103 O 0.0559 0.77957 0.57189 0.0
C104 C 0.69964 0.4767 0.07664 0.0
O105 O 0.65466 0.42515 0.08005 0.0
O106 O 0.55635 0.54883 0.17788 0.0
Zn107 Zn 0.57553 0.55965 0.09248 0.0
O108 O 0.51343 0.49351 0.04836 0.0
C109 C 0.49398 0.68209 0.06379 0.0
O110 O 0.44106 0.63844 0.06462 0.0
O111 O 0.67773 0.53896 0.07921 0.0
C112 C 0.51048 0.49406 -0.00668 0.0
O113 O 0.5488 0.53858 0.96392 0.0
C114 C 0.49405 0.54308 0.19679 0.0
O115 O 0.44134 0.54202 0.16012 0.0
O116 O 0.5559 0.6597 0.07188 0.0
C117 C 0.77519 0.46257 0.07664 0.0
O118 O 0.82018 0.51413 0.08004 0.0
O119 O 0.91849 0.39045 0.17789 0.0
Zn120 Zn 0.89931 0.37963 0.09248 0.0
O121 O 0.96141 0.44576 0.04836 0.0
C122 C 0.98085 0.25718 0.06379 0.0
O123 O 0.03377 0.30084 0.0646 0.0
O124 O 0.79711 0.40032 0.07921 0.0
C125 C 0.96435 0.44521 -0.00668 0.0
O126 O 0.92602 0.4007 0.96392 0.0
C127 C 0.98079 0.39618 0.1968 0.0
O128 O 0.0335 0.39723 0.16012 0.0
O129 O 0.91893 0.27957 0.07189 0.0
C130 C 0.19964 0.46257 0.37956 0.0
O131 O 0.15466 0.51412 0.37615 0.0
O132 O 0.05635 0.39044 0.27831 0.0
Zn133 Zn 0.07553 0.37962 0.36372 0.0
O134 O 0.01343 0.44576 0.40784 0.0
C135 C -0.00602 0.25718 0.39241 0.0
O136 O 0.94106 0.30083 0.39158 0.0
O137 O 0.17773 0.40031 0.37699 0.0
C138 C 0.01048 0.44521 0.46288 0.0
O139 O 0.0488 0.40069 0.49228 0.0
C140 C -0.00595 0.39619 0.25941 0.0
O141 O 0.94133 0.39725 0.29608 0.0
O142 O 0.0559 0.27957 0.38432 0.0
C143 C 0.27519 0.47669 0.37956 0.0
O144 O 0.32018 0.42514 0.37616 0.0
O145 O 0.41849 0.54882 0.27831 0.0
Zn146 Zn 0.39931 0.55964 0.36371 0.0
O147 O 0.4614 0.49351 0.40784 0.0
C148 C 0.48085 0.68209 0.39241 0.0
O149 O 0.53377 0.63843 0.3916 0.0
O150 O 0.29711 0.53895 0.37699 0.0
C151 C 0.46435 0.49406 0.46288 0.0
O152 O 0.42602 0.53857 0.49227 0.0
C153 C 0.48079 0.54309 0.2594 0.0
O154 O 0.53351 0.54204 0.29608 0.0
O155 O 0.41893 0.6597 0.38431 0.0
C156 C 0.27519 0.46257 0.87956 0.0
O157 O 0.32017 0.51412 0.87615 0.0
O158 O 0.41848 0.39044 0.77831 0.0
Zn159 Zn 0.3993 0.37962 0.86372 0.0
O160 O 0.4614 0.44576 0.90784 0.0
C161 C 0.48085 0.25718 0.89241 0.0
O162 O 0.53377 0.30083 0.89158 0.0
O163 O 0.2971 0.40031 0.87699 0.0
C164 C 0.46435 0.44521 0.96288 0.0
O165 O 0.42603 0.40069 -0.00772 0.0
C166 C 0.48078 0.39619 0.75941 0.0
O167 O 0.53349 0.39725 0.79608 0.0
O168 O 0.41893 0.27957 0.88432 0.0
C169 C 0.19964 0.47669 0.87956 0.0
O170 O 0.15465 0.42514 0.87616 0.0
O171 O 0.05634 0.54882 0.77831 0.0
Zn172 Zn 0.07552 0.55964 0.86371 0.0
O173 O 0.01342 0.49351 0.90784 0.0
C174 C -0.00602 0.68209 0.89241 0.0
O175 O 0.94106 0.63843 0.8916 0.0
O176 O 0.17772 0.53895 0.87699 0.0
C177 C 0.01048 0.49406 0.96288 0.0
O178 O 0.04881 0.53857 -0.00773 0.0
C179 C -0.00596 0.54309 0.7594 0.0
O180 O 0.94133 0.54204 0.79608 0.0
O181 O 0.0559 0.6597 0.88431 0.0
C182 C 0.77519 0.4767 0.57664 0.0
O183 O 0.82017 0.42515 0.58005 0.0
O184 O 0.91848 0.54883 0.67788 0.0
Zn185 Zn 0.8993 0.55965 0.59248 0.0
O186 O 0.9614 0.49351 0.54836 0.0
C187 C 0.98085 0.68209 0.56379 0.0
O188 O 0.03377 0.63844 0.56462 0.0
O189 O 0.7971 0.53896 0.57921 0.0
C190 C 0.96435 0.49406 0.49332 0.0
O191 O 0.92603 0.53858 0.46392 0.0
C192 C 0.98078 0.54308 0.69679 0.0
O193 O 0.0335 0.54202 0.66012 0.0
O194 O 0.91893 0.6597 0.57188 0.0
C195 C 0.69964 0.46257 0.57664 0.0
O196 O 0.65465 0.51413 0.58004 0.0
O197 O 0.55634 0.39045 0.67789 0.0
Zn198 Zn 0.57552 0.37963 0.59248 0.0
O199 O 0.51343 0.44576 0.54836 0.0
C200 C 0.49398 0.25718 0.56379 0.0
O201 O 0.44106 0.30084 0.5646 0.0
O202 O 0.67772 0.40032 0.57921 0.0
C203 C 0.51048 0.44521 0.49332 0.0
O204 O 0.54881 0.4007 0.46392 0.0
C205 C 0.49404 0.39618 0.69679 0.0
O206 O 0.44132 0.39723 0.66012 0.0
O207 O 0.5559 0.27957 0.57189 0.0
loop_
_geom_bond_atom_site_label_1
_geom_bond_atom_site_label_2
_geom_bond_distance
_geom_bond_site_symmetry_2
_ccdc_geom_bond_type
C0 O1 1.160 1_545 S
C0 O7 1.185 . S
O1 C0 1.160 1_565 S
O2 Zn3 1.899 . S
O2 C10 1.284 1_455 S
Zn3 O2 1.899 . S
Zn3 O4 2.032 1_545 S
Zn3 O7 2.086 . S
Zn3 O12 1.977 . S
O4 Zn3 2.032 1_565 S
O4 C8 1.278 1_465 S
C5 O6 1.203 1_455 S
C5 O12 1.267 . S
O6 C5 1.203 1_655 S
O7 C0 1.185 . S
O7 Zn3 2.086 . S
C8 O4 1.278 1_645 S
C8 O9 1.211 . S
O9 C8 1.211 . S
C10 O2 1.284 1_655 S
C10 O11 1.273 . S
O11 C10 1.273 . S
O12 Zn3 1.977 . S
O12 C5 1.267 . S
C13 O14 1.160 1_565 S
C13 O20 1.185 . S
O14 C13 1.160 1_545 S
O15 Zn16 1.899 . S
O15 C23 1.284 . S
Zn16 O15 1.899 . S
Zn16 O17 2.032 1_565 S
Zn16 O20 2.086 . S
Zn16 O25 1.977 . S
O17 Zn16 2.032 1_545 S
O17 C21 1.278 1_545 S
C18 O19 1.203 . S
C18 O25 1.267 . S
O19 C18 1.203 . S
O20 C13 1.185 . S
O20 Zn16 2.086 . S
C21 O17 1.278 1_565 S
C21 O22 1.211 . S
O22 C21 1.211 . S
C23 O15 1.284 . S
C23 O24 1.273 . S
O24 C23 1.273 . S
O25 Zn16 1.977 . S
O25 C18 1.267 . S
C26 O27 1.160 1_565 S
C26 O33 1.185 . S
O27 C26 1.160 1_545 S
O28 Zn29 1.899 . S
O28 C36 1.284 . S
Zn29 O28 1.899 . S
Zn29 O30 2.032 1_565 S
Zn29 O33 2.086 . S
Zn29 O38 1.977 . S
O30 Zn29 2.032 1_545 S
O30 C34 1.278 1_545 S
C31 O32 1.203 . S
C31 O38 1.267 . S
O32 C31 1.203 . S
O33 C26 1.185 . S
O33 Zn29 2.086 . S
C34 O30 1.278 1_565 S
C34 O35 1.211 . S
O35 C34 1.211 . S
C36 O28 1.284 . S
C36 O37 1.273 . S
O37 C36 1.273 . S
O38 Zn29 1.977 . S
O38 C31 1.267 . S
C39 O40 1.160 1_545 S
C39 O46 1.185 . S
O40 C39 1.160 1_565 S
O41 Zn42 1.899 . S
O41 C49 1.284 1_655 S
Zn42 O41 1.899 . S
Zn42 O43 2.032 1_545 S
Zn42 O46 2.086 . S
Zn42 O51 1.977 . S
O43 Zn42 2.032 1_565 S
O43 C47 1.278 1_665 S
C44 O45 1.203 1_655 S
C44 O51 1.267 . S
O45 C44 1.203 1_455 S
O46 C39 1.185 . S
O46 Zn42 2.086 . S
C47 O43 1.278 1_445 S
C47 O48 1.211 . S
O48 C47 1.211 . S
C49 O41 1.284 1_455 S
C49 O50 1.273 . S
O50 C49 1.273 . S
O51 Zn42 1.977 . S
O51 C44 1.267 . S
C52 O53 1.160 1_565 S
C52 O59 1.185 . S
O53 C52 1.160 1_545 S
O54 Zn55 1.899 . S
O54 C62 1.284 1_655 S
Zn55 O54 1.899 . S
Zn55 O56 2.032 1_565 S
Zn55 O59 2.086 . S
Zn55 O64 1.977 . S
O56 Zn55 2.032 1_545 S
O56 C60 1.278 1_645 S
C57 O58 1.203 1_655 S
C57 O64 1.267 . S
O58 C57 1.203 1_455 S
O59 C52 1.185 . S
O59 Zn55 2.086 . S
C60 O56 1.278 1_465 S
C60 O61 1.211 . S
O61 C60 1.211 . S
C62 O54 1.284 1_455 S
C62 O63 1.273 . S
O63 C62 1.273 . S
O64 Zn55 1.977 . S
O64 C57 1.267 . S
C65 O66 1.160 1_545 S
C65 O72 1.185 . S
O66 C65 1.160 1_565 S
O67 Zn68 1.899 . S
O67 C75 1.284 . S
Zn68 O67 1.899 . S
Zn68 O69 2.032 1_545 S
Zn68 O72 2.086 . S
Zn68 O77 1.977 . S
O69 Zn68 2.032 1_565 S
O69 C73 1.278 1_565 S
C70 O71 1.203 . S
C70 O77 1.267 . S
O71 C70 1.203 . S
O72 C65 1.185 . S
O72 Zn68 2.086 . S
C73 O69 1.278 1_545 S
C73 O74 1.211 . S
O74 C73 1.211 . S
C75 O67 1.284 . S
C75 O76 1.273 . S
O76 C75 1.273 . S
O77 Zn68 1.977 . S
O77 C70 1.267 . S
C78 O79 1.160 1_545 S
C78 O85 1.185 . S
O79 C78 1.160 1_565 S
O80 Zn81 1.899 . S
O80 C88 1.284 . S
Zn81 O80 1.899 . S
Zn81 O82 2.032 1_545 S
Zn81 O85 2.086 . S
Zn81 O90 1.977 . S
O82 Zn81 2.032 1_565 S
O82 C86 1.278 1_565 S
C83 O84 1.203 . S
C83 O90 1.267 . S
O84 C83 1.203 . S
O85 C78 1.185 . S
O85 Zn81 2.086 . S
C86 O82 1.278 1_545 S
C86 O87 1.211 . S
O87 C86 1.211 . S
C88 O80 1.284 . S
C88 O89 1.273 . S
O89 C88 1.273 . S
O90 Zn81 1.977 . S
O90 C83 1.267 . S
C91 O92 1.160 1_565 S
C91 O98 1.185 . S
O92 C91 1.160 1_545 S
O93 Zn94 1.899 . S
O93 C101 1.284 1_455 S
Zn94 O93 1.899 . S
Zn94 O95 2.032 1_565 S
Zn94 O98 2.086 . S
Zn94 O103 1.977 . S
O95 Zn94 2.032 1_545 S
O95 C99 1.278 1_445 S
C96 O97 1.203 1_455 S
C96 O103 1.267 . S
O97 C96 1.203 1_655 S
O98 C91 1.185 . S
O98 Zn94 2.086 . S
C99 O95 1.278 1_665 S
C99 O100 1.211 . S
O100 C99 1.211 . S
C101 O93 1.284 1_655 S
C101 O102 1.273 . S
O102 C101 1.273 . S
O103 Zn94 1.977 . S
O103 C96 1.267 . S
C104 O105 1.160 . S
C104 O111 1.185 . S
O105 C104 1.160 . S
O106 Zn107 1.899 . S
O106 C114 1.284 . S
Zn107 O106 1.899 . S
Zn107 O108 2.032 . S
Zn107 O111 2.086 . S
Zn107 O116 1.977 . S
O108 Zn107 2.032 . S
O108 C112 1.278 . S
C109 O110 1.203 . S
C109 O116 1.267 . S
O110 C109 1.203 . S
O111 C104 1.185 . S
O111 Zn107 2.086 . S
C112 O108 1.278 . S
C112 O113 1.211 . S
O113 C112 1.211 . S
C114 O106 1.284 . S
C114 O115 1.273 . S
O115 C114 1.273 . S
O116 Zn107 1.977 . S
O116 C109 1.267 . S
C117 O118 1.160 . S
C117 O124 1.185 . S
O118 C117 1.160 . S
O119 Zn120 1.899 . S
O119 C127 1.284 1_655 S
Zn120 O119 1.899 . S
Zn120 O121 2.032 . S
Zn120 O124 2.086 . S
Zn120 O129 1.977 . S
O121 Zn120 2.032 . S
O121 C125 1.278 1_655 S
C122 O123 1.203 1_655 S
C122 O129 1.267 . S
O123 C122 1.203 1_455 S
O124 C117 1.185 . S
O124 Zn120 2.086 . S
C125 O121 1.278 1_455 S
C125 O126 1.211 . S
O126 C125 1.211 . S
C127 O119 1.284 1_455 S
C127 O128 1.273 . S
O128 C127 1.273 . S
O129 Zn120 1.977 . S
O129 C122 1.267 . S
C130 O131 1.160 . S
C130 O137 1.185 . S
O131 C130 1.160 . S
O132 Zn133 1.899 . S
O132 C140 1.284 1_455 S
Zn133 O132 1.899 . S
Zn133 O134 2.032 . S
Zn133 O137 2.086 . S
Zn133 O142 1.977 . S
O134 Zn133 2.032 . S
O134 C138 1.278 1_455 S
C135 O136 1.203 1_455 S
C135 O142 1.267 . S
O136 C135 1.203 1_655 S
O137 C130 1.185 . S
O137 Zn133 2.086 . S
C138 O134 1.278 1_655 S
C138 O139 1.211 . S
O139 C138 1.211 . S
C140 O132 1.284 1_655 S
C140 O141 1.273 . S
O141 C140 1.273 . S
O142 Zn133 1.977 . S
O142 C135 1.267 . S
C143 O144 1.160 . S
C143 O150 1.185 . S
O144 C143 1.160 . S
O145 Zn146 1.899 . S
O145 C153 1.284 . S
Zn146 O145 1.899 . S
Zn146 O147 2.032 . S
Zn146 O150 2.086 . S
Zn146 O155 1.977 . S
O147 Zn146 2.032 . S
O147 C151 1.278 . S
C148 O149 1.203 . S
C148 O155 1.267 . S
O149 C148 1.203 . S
O150 C143 1.185 . S
O150 Zn146 2.086 . S
C151 O147 1.278 . S
C151 O152 1.211 . S
O152 C151 1.211 . S
C153 O145 1.284 . S
C153 O154 1.273 . S
O154 C153 1.273 . S
O155 Zn146 1.977 . S
O155 C148 1.267 . S
C156 O157 1.160 . S
C156 O163 1.185 . S
O157 C156 1.160 . S
O158 Zn159 1.899 . S
O158 C166 1.284 . S
Zn159 O158 1.899 . S
Zn159 O160 2.032 . S
Zn159 O163 2.086 . S
Zn159 O168 1.977 . S
O160 Zn159 2.032 . S
O160 C164 1.278 . S
C161 O162 1.203 . S
C161 O168 1.267 . S
O162 C161 1.203 . S
O163 C156 1.185 . S
O163 Zn159 2.086 . S
C164 O160 1.278 . S
C164 O165 1.211 . S
O165 C164 1.211 . S
C166 O158 1.284 . S
C166 O167 1.273 . S
O167 C166 1.273 . S
O168 Zn159 1.977 . S
O168 C161 1.267 . S
C169 O170 1.160 . S
C169 O176 1.185 . S
O170 C169 1.160 . S
O171 Zn172 1.899 . S
O171 C179 1.284 1_455 S
Zn172 O171 1.899 . S
Zn172 O173 2.032 . S
Zn172 O176 2.086 . S
Zn172 O181 1.977 . S
O173 Zn172 2.032 . S
O173 C177 1.278 1_455 S
C174 O175 1.203 1_455 S
C174 O181 1.267 . S
O175 C174 1.203 1_655 S
O176 C169 1.185 . S
O176 Zn172 2.086 . S
C177 O173 1.278 1_655 S
C177 O178 1.211 . S
O178 C177 1.211 . S
C179 O171 1.284 1_655 S
C179 O180 1.273 . S
O180 C179 1.273 . S
O181 Zn172 1.977 . S
O181 C174 1.267 . S
C182 O183 1.160 . S
C182 O189 1.185 . S
O183 C182 1.160 . S
O184 Zn185 1.899 . S
O184 C192 1.284 1_655 S
Zn185 O184 1.899 . S
Zn185 O186 2.032 . S
Zn185 O189 2.086 . S
Zn185 O194 1.977 . S
O186 Zn185 2.032 . S
O186 C190 1.278 1_655 S
C187 O188 1.203 1_655 S
C187 O194 1.267 . S
O188 C187 1.203 1_455 S
O189 C182 1.185 . S
O189 Zn185 2.086 . S
C190 O186 1.278 1_455 S
C190 O191 1.211 . S
O191 C190 1.211 . S
C192 O184 1.284 1_455 S
C192 O193 1.273 . S
O193 C192 1.273 . S
O194 Zn185 1.977 . S
O194 C187 1.267 . S
C195 O196 1.160 . S
C195 O202 1.185 . S
O196 C195 1.160 . S
O197 Zn198 1.899 . S
O197 C205 1.284 . S
Zn198 O197 1.899 . S
Zn198 O199 2.032 . S
Zn198 O202 2.086 . S
Zn198 O207 1.977 . S
O199 Zn198 2.032 . S
O199 C203 1.278 . S
C200 O201 1.203 . S
C200 O207 1.267 . S
O201 C200 1.203 . S
O202 C195 1.185 . S
O202 Zn198 2.086 . S
C203 O199 1.278 . S
C203 O204 1.211 . S
O204 C203 1.211 . S
C205 O197 1.284 . S
C205 O206 1.273 . S
O206 C205 1.273 . S
O207 Zn198 1.977 . S
O207 C200 1.267 . S
C13 C0 1.365 1_565 S
C26 C39 1.365 1_565 S
C52 C65 1.365 1_565 S
C91 C78 1.365 1_565 S
C117 C104 1.365 . S
C143 C130 1.365 . S
C169 C156 1.365 . S
C195 C182 1.365 . S
C49 C10 1.561 1_455 S
C23 C36 1.561 . S
C101 C62 1.561 1_655 S
C88 C75 1.561 . S
C114 C153 1.561 . S
C140 C127 1.561 1_655 S
C205 C166 1.561 . S
C179 C192 1.561 1_655 S
C5 C122 1.352 1_455 S
C18 C109 1.352 . S
C148 C31 1.352 . S
C135 C44 1.352 1_455 S
C174 C57 1.352 1_455 S
C161 C70 1.352 . S
C83 C200 1.352 . S
C96 C187 1.352 1_455 S
C60 C8 1.215 1_466 S
C73 C21 1.215 1_546 S
C86 C34 1.215 1_545 S
C99 C47 1.215 1_665 S
C112 C164 1.215 1_554 S
C125 C177 1.215 1_454 S
C190 C138 1.215 1_455 S
C203 C151 1.215 . S
