# Generated by pormake.
# Topology pcu, (6)-cn, num edge types: 1
# Building blocks:
#     Node 0, Type 0, BuildingBlock: KUMBUR_clean_sbu_1, # of connection points: 6
#     Edge 1, Type (0, 0), BuildingBlock: AJUNOK_clean_linker_0, # of connection points: 2
#     Edge 2, Type (0, 0), BuildingBlock: AJUNOK_clean_linker_0, # of connection points: 2
#     Edge 3, Type (0, 0), BuildingBlock: AJUNOK_clean_linker_0, # of connection points: 2
# Relax obj value: 0.000
# Max RMSD: 0.000
# Mean RMSD: 0.000
data_MOF--net-pcu--node1-KUMBUR_clean_sbu_1--edge1-AJUNOK_clean_linker_0
_symmetry_space_group_name_H-M    P1
_symmetry_Int_Tables_number       1
_symmetry_cell_setting            triclinic
loop_
_symmetry_equiv_pos_as_xyz
'x, y, z'
_cell_length_a     10.673182
_cell_length_b     20.396093
_cell_length_c     10.833693
_cell_angle_alpha  112.22732
_cell_angle_beta   90.181391
_cell_angle_gamma 113.15403
loop_
_atom_site_label
_atom_site_type_symbol
_atom_site_fract_x
_atom_site_fract_y
_atom_site_fract_z
_atom_type_partial_charge
Tb0 Tb 0.93941 0.89109 0.91801 0.0
C1 C 0.43395 0.21346 0.21971 0.0
N2 N 0.30624 0.18649 0.252 0.0
C3 C 0.40724 0.24007 0.4862 0.0
C4 C 0.55417 0.25225 0.31931 0.0
C5 C 0.29098 0.20139 0.38365 0.0
C6 C 0.53956 0.26485 0.45375 0.0
C7 C 0.57468 0.22986 0.04898 0.0
C8 C 0.44369 0.20268 0.08618 0.0
C9 C 0.695 0.26687 0.14729 0.0
C10 C 0.68462 0.27808 0.28207 0.0
Tb11 Tb 0.12521 0.12659 0.07772 0.0
N12 N 0.32482 0.16684 0.99371 0.0
C13 C 0.5808 0.22005 0.91454 0.0
C14 C 0.33058 0.16134 0.86439 0.0
C15 C 0.45819 0.18635 0.82228 0.0
H16 H 0.18957 0.18494 0.4109 0.0
H17 H 0.46191 0.18069 0.71907 0.0
H18 H 0.90728 0.82612 0.5781 0.0
H19 H 0.54821 0.82195 0.21944 0.0
H20 H 0.23826 0.14004 0.79373 0.0
H21 H 0.67945 0.23998 0.88182 0.0
H22 H 0.78627 0.85955 0.16744 0.0
H23 H 0.39466 0.2514 0.59031 0.0
H24 H 0.79638 0.28787 0.12035 0.0
H25 H 0.77771 0.30725 0.35727 0.0
H26 H 0.72436 0.78236 0.38737 0.0
H27 H 0.62951 0.29494 0.53344 0.0
H28 H 0.35479 0.79414 0.05196 0.0
N29 N 0.77929 0.84169 0.72732 0.0
C30 C 0.64705 0.82491 0.74867 0.0
C31 C 0.70179 0.79573 0.48907 0.0
C32 C 0.53872 0.79909 0.64295 0.0
C33 C 0.80599 0.82209 0.59799 0.0
C34 C 0.5682 0.78611 0.51218 0.0
N35 N 0.72533 0.85236 0.97392 0.0
C36 C 0.70118 0.84579 0.09358 0.0
C37 C 0.48336 0.81 0.90184 0.0
C38 C 0.61867 0.82877 0.87536 0.0
C39 C 0.45819 0.80898 0.02818 0.0
C40 C 0.5671 0.82478 0.12308 0.0
H41 H 0.48767 0.76573 0.42777 0.0
H42 H 0.32067 0.76913 0.59318 0.0
H43 H 0.27729 0.78585 0.82511 0.0
O44 O 1.001 0.82604 0.99729 0.0
O45 O 0.83467 0.96482 0.02388 0.0
O46 O 0.91165 0.0687 0.9677 0.0
O47 O 0.86972 0.77059 0.80331 0.0
O48 O 0.04084 0.95176 0.13124 0.0
O49 O 1.0287 0.07194 0.21441 0.0
O50 O 0.17181 0.23513 0.06857 0.0
O51 O 0.23893 0.05787 0.08396 0.0
O52 O 0.15445 0.94414 0.8886 0.0
O53 O 0.05583 0.20311 0.2191 0.0
O54 O 1.03424 0.06673 0.86225 0.0
O55 O 1.03659 0.94416 0.77926 0.0
C56 C 0.80998 1.01282 0.98552 0.0
C57 C 0.99484 0.70513 0.84223 0.0
C58 C 0.06445 0.61189 0.87584 0.0
C59 C 0.10402 0.5942 0.74821 0.0
C60 C 1.02774 0.6837 0.71163 0.0
C61 C 0.0847 0.62956 0.66632 0.0
C62 C 1.01134 0.66815 0.92304 0.0
C63 C 1.03489 1.0121 0.23096 0.0
C64 C 0.93215 0.76053 0.89262 0.0
C65 C 0.40472 0.78589 0.67134 0.0
C66 C 0.37845 0.79322 0.80172 0.0
C67 C 0.25857 1.00478 0.98089 0.0
C68 C 0.09761 0.3302 0.22238 0.0
C69 C 0.0769 0.43715 0.18761 0.0
C70 C 0.04572 0.46375 0.31787 0.0
C71 C 0.06994 0.35911 0.35385 0.0
C72 C 0.10389 0.37044 0.13997 0.0
C73 C 0.04434 0.42559 0.4011 0.0
C74 C 1.02941 1.00341 0.76192 0.0
C75 C 0.10786 0.2549 0.16864 0.0
H76 H 0.14701 0.55177 0.71093 0.0
H77 H 1.01368 0.71046 0.64651 0.0
H78 H 0.11544 0.61575 0.56817 0.0
H79 H 0.98112 0.68237 0.02198 0.0
H80 H 1.02157 0.51389 0.35439 0.0
H81 H 0.06438 0.3291 0.41894 0.0
H82 H 0.12345 0.3482 0.03753 0.0
H83 H 1.01879 0.44595 0.50089 0.0
C84 C 0.0835 0.9642 0.39878 0.0
C85 C 1.03083 1.01034 0.36648 0.0
C86 C 0.0803 0.96068 0.52564 0.0
C87 C 1.02299 1.00255 0.62452 0.0
H88 H 0.12987 0.93142 0.32632 0.0
H89 H 0.12568 0.92625 0.54722 0.0
S90 S 0.86263 0.12781 0.58785 0.0
N91 N 0.91551 0.09675 0.4428 0.0
N92 N 0.90565 0.08841 0.67905 0.0
C93 C 0.96707 0.04748 0.59238 0.0
C94 C 0.97203 0.05188 0.46408 0.0
C95 C 0.46412 1.00373 0.8694 0.0
C96 C 0.39816 1.00596 0.98223 0.0
C97 C 0.5994 1.00829 0.8724 0.0
C98 C 0.67116 1.01291 0.98681 0.0
H99 H 0.41171 0.99977 0.77929 0.0
H100 H 0.64694 1.00637 0.78364 0.0
S101 S 0.5419 0.01849 0.30631 0.0
N102 N 0.4145 1.01348 0.21103 0.0
N103 N 0.66524 0.01849 0.21453 0.0
C104 C 0.60527 1.01417 0.09925 0.0
C105 C 0.46963 1.01165 0.09752 0.0
C106 C 0.94998 0.52636 0.99468 0.0
C107 C 0.0709 0.5682 0.95595 0.0
C108 C 0.95216 0.48213 0.06632 0.0
C109 C 0.07524 0.47828 0.10141 0.0
H110 H 0.85287 0.52733 0.96837 0.0
H111 H 0.85717 0.45098 0.09518 0.0
S112 S 0.42115 0.58203 0.03285 0.0
N113 N 0.31784 0.60635 0.96367 0.0
N114 N 0.32168 0.52247 0.09771 0.0
C115 C 0.19679 0.5201 0.06401 0.0
C116 C 0.19471 0.56539 0.99154 0.0
loop_
_geom_bond_atom_site_label_1
_geom_bond_atom_site_label_2
_geom_bond_distance
_geom_bond_site_symmetry_2
_ccdc_geom_bond_type
Tb0 N29 2.617 . S
Tb0 N35 2.572 . S
Tb0 O44 2.465 . S
Tb0 O45 2.387 . S
Tb0 O47 2.428 . S
Tb0 O48 2.308 1_556 S
Tb0 O52 2.349 1_655 S
Tb0 O55 2.393 . S
Tb0 C64 2.802 . S
C1 N2 1.379 . S
C1 C4 1.416 . S
C1 C8 1.424 . S
N2 C1 1.379 . S
N2 C5 1.334 . S
N2 Tb11 2.617 . S
C3 C5 1.390 . S
C3 C6 1.339 . S
C3 H23 0.930 . S
C4 C1 1.416 . S
C4 C6 1.416 . S
C4 C10 1.448 . S
C5 N2 1.334 . S
C5 C3 1.390 . S
C5 H16 0.930 . S
C6 C3 1.339 . S
C6 C4 1.416 . S
C6 H27 0.930 . S
C7 C8 1.413 . S
C7 C9 1.427 . S
C7 C13 1.416 . S
C8 C1 1.424 . S
C8 C7 1.413 . S
C8 N12 1.361 . S
C9 C7 1.427 . S
C9 C10 1.328 . S
C9 H24 0.929 . S
C10 C4 1.448 . S
C10 C9 1.328 . S
C10 H25 0.930 . S
Tb11 N2 2.617 . S
Tb11 N12 2.572 . S
Tb11 O46 2.349 1_455 S
Tb11 O49 2.393 . S
Tb11 O50 2.465 . S
Tb11 O51 2.387 . S
Tb11 O53 2.428 . S
Tb11 O54 2.308 1_554 S
Tb11 C75 2.802 . S
N12 C8 1.361 . S
N12 Tb11 2.572 . S
N12 C14 1.340 1_554 S
C13 C7 1.416 . S
C13 C15 1.332 1_554 S
C13 H21 0.931 1_554 S
C14 N12 1.340 1_556 S
C14 C15 1.407 . S
C14 H20 0.930 . S
C15 C13 1.332 1_556 S
C15 C14 1.407 . S
C15 H17 0.929 . S
H16 C5 0.930 . S
H17 C15 0.929 . S
H18 C33 0.930 . S
H19 C40 0.929 . S
H20 C14 0.930 . S
H21 C13 0.931 1_556 S
H22 C36 0.930 . S
H23 C3 0.930 . S
H24 C9 0.929 . S
H25 C10 0.930 . S
H26 C31 0.930 . S
H27 C6 0.930 . S
H28 C39 0.931 1_554 S
N29 Tb0 2.617 . S
N29 C30 1.379 . S
N29 C33 1.334 . S
C30 N29 1.379 . S
C30 C32 1.416 . S
C30 C38 1.424 . S
C31 H26 0.930 . S
C31 C33 1.390 . S
C31 C34 1.339 . S
C32 C30 1.416 . S
C32 C34 1.416 . S
C32 C65 1.448 . S
C33 H18 0.930 . S
C33 N29 1.334 . S
C33 C31 1.390 . S
C34 C31 1.339 . S
C34 C32 1.416 . S
C34 H41 0.930 . S
N35 Tb0 2.572 . S
N35 C36 1.340 1_556 S
N35 C38 1.361 . S
C36 H22 0.930 . S
C36 N35 1.340 1_554 S
C36 C40 1.407 . S
C37 C38 1.413 . S
C37 C39 1.416 . S
C37 C66 1.427 . S
C38 C30 1.424 . S
C38 N35 1.361 . S
C38 C37 1.413 . S
C39 H28 0.931 1_556 S
C39 C37 1.416 . S
C39 C40 1.332 1_556 S
C40 H19 0.929 . S
C40 C36 1.407 . S
C40 C39 1.332 1_554 S
H41 C34 0.930 . S
H42 C65 0.930 . S
H43 C66 0.929 . S
O44 Tb0 2.465 . S
O44 C64 1.264 . S
O45 Tb0 2.387 . S
O45 C56 1.257 1_565 S
O46 Tb11 2.349 1_655 S
O46 C56 1.247 1_554 S
O47 Tb0 2.428 . S
O47 C64 1.256 . S
O48 Tb0 2.308 1_554 S
O48 C63 1.266 1_565 S
O49 Tb11 2.393 . S
O49 C63 1.248 1_455 S
O50 Tb11 2.465 . S
O50 C75 1.264 . S
O51 Tb11 2.387 . S
O51 C67 1.260 1_545 S
O52 Tb0 2.349 1_455 S
O52 C67 1.245 1_556 S
O53 Tb11 2.428 . S
O53 C75 1.256 . S
O54 Tb11 2.308 1_556 S
O54 C74 1.266 1_545 S
O55 Tb0 2.393 . S
O55 C74 1.248 1_655 S
C56 O45 1.257 1_545 S
C56 O46 1.247 1_556 S
C57 C60 1.399 . S
C57 C62 1.383 . S
C57 C64 1.496 . S
C58 C59 1.399 . S
C58 C62 1.389 . S
C59 C58 1.399 . S
C59 C61 1.380 . S
C59 H76 0.929 . S
C60 C57 1.399 . S
C60 C61 1.392 . S
C60 H77 0.929 . S
C61 C59 1.380 . S
C61 C60 1.392 . S
C61 H78 0.929 . S
C62 C57 1.383 . S
C62 C58 1.389 . S
C62 H79 0.931 1_556 S
C63 O48 1.266 1_545 S
C63 O49 1.248 1_655 S
C64 Tb0 2.802 . S
C64 O44 1.264 . S
C64 O47 1.256 . S
C64 C57 1.496 . S
C65 C32 1.448 . S
C65 H42 0.930 . S
C65 C66 1.328 . S
C66 C37 1.427 . S
C66 H43 0.929 . S
C66 C65 1.328 . S
C67 O51 1.260 1_565 S
C67 O52 1.245 1_554 S
C68 C71 1.399 . S
C68 C72 1.383 . S
C68 C75 1.496 . S
C69 C70 1.399 . S
C69 C72 1.389 . S
C70 C69 1.399 . S
C70 C73 1.380 . S
C70 H80 0.929 . S
C71 C68 1.399 . S
C71 C73 1.392 . S
C71 H81 0.929 . S
C72 C68 1.383 . S
C72 C69 1.389 . S
C72 H82 0.931 1_554 S
C73 C70 1.380 . S
C73 C71 1.392 . S
C73 H83 0.929 . S
C74 O54 1.266 1_565 S
C74 O55 1.248 1_455 S
C75 Tb11 2.802 . S
C75 O50 1.264 . S
C75 O53 1.256 . S
C75 C68 1.496 . S
H76 C59 0.929 . S
H77 C60 0.929 . S
H78 C61 0.929 . S
H79 C62 0.931 1_554 S
H80 C70 0.929 . S
H81 C71 0.929 . S
H82 C72 0.931 1_556 S
H83 C73 0.929 . S
C84 C85 1.354 1_665 S
C84 C86 1.419 . S
C84 H88 0.930 . S
C85 C84 1.354 1_445 S
C85 C94 1.436 . S
C86 C84 1.419 . S
C86 C87 1.358 1_665 S
C86 H89 0.929 . S
C87 C86 1.358 1_445 S
C87 C93 1.441 . S
H88 C84 0.930 . S
H89 C86 0.929 . S
S90 N91 1.613 . S
S90 N92 1.610 . S
N91 S90 1.613 . S
N91 C94 1.350 . S
N92 S90 1.610 . S
N92 C93 1.351 . S
C93 C87 1.441 . S
C93 N92 1.351 . S
C93 C94 1.434 . S
C94 C85 1.436 . S
C94 N91 1.350 . S
C94 C93 1.434 . S
C95 C96 1.367 1_546 S
C95 C97 1.419 . S
C95 H99 0.930 . S
C96 C95 1.367 1_564 S
C96 C105 1.433 . S
C97 C95 1.419 . S
C97 C98 1.355 1_546 S
C97 H100 0.929 . S
C98 C97 1.355 1_564 S
C98 C104 1.435 . S
H99 C95 0.930 . S
H100 C97 0.929 . S
S101 N102 1.613 . S
S101 N103 1.610 . S
N102 S101 1.613 . S
N102 C105 1.350 . S
N103 S101 1.610 . S
N103 C104 1.351 . S
C104 C98 1.435 . S
C104 N103 1.351 . S
C104 C105 1.434 . S
C105 C96 1.433 . S
C105 N102 1.350 . S
C105 C104 1.434 . S
C106 C107 1.369 1_656 S
C106 C108 1.419 . S
C106 H110 0.930 . S
C107 C106 1.369 1_454 S
C107 C116 1.429 . S
C108 C106 1.419 . S
C108 C109 1.362 1_656 S
C108 H111 0.929 . S
C109 C108 1.362 1_454 S
C109 C115 1.428 . S
H110 C106 0.930 . S
H111 C108 0.929 . S
S112 N113 1.613 . S
S112 N114 1.610 . S
N113 S112 1.613 . S
N113 C116 1.350 . S
N114 S112 1.610 . S
N114 C115 1.351 . S
C115 C109 1.428 . S
C115 N114 1.351 . S
C115 C116 1.434 . S
C116 C107 1.429 . S
C116 N113 1.350 . S
C116 C115 1.434 . S
C85 C63 1.489 1_455 S
C87 C74 1.472 1_545 S
C96 C67 1.494 . S
C98 C56 1.501 1_564 S
C107 C58 1.357 1_454 S
C109 C69 1.359 . S
