# Generated by pormake.
# Topology lon, (4)-cn, num edge types: 1
# Building blocks:
#     Node 0, Type 0, BuildingBlock: QUQFOY_clean_sbu_1, # of connection points: 4
#     Node 1, Type 0, BuildingBlock: QUQFOY_clean_sbu_1, # of connection points: 4
#     Node 2, Type 0, BuildingBlock: QUQFOY_clean_sbu_1, # of connection points: 4
#     Node 3, Type 0, BuildingBlock: QUQFOY_clean_sbu_1, # of connection points: 4
#     Edge 4, Type (0, 0), BuildingBlock: EYOCIG_clean_linker_4, # of connection points: 2
#     Edge 5, Type (0, 0), BuildingBlock: EYOCIG_clean_linker_4, # of connection points: 2
#     Edge 6, Type (0, 0), BuildingBlock: EYOCIG_clean_linker_4, # of connection points: 2
#     Edge 7, Type (0, 0), BuildingBlock: EYOCIG_clean_linker_4, # of connection points: 2
#     Edge 8, Type (0, 0), BuildingBlock: EYOCIG_clean_linker_4, # of connection points: 2
#     Edge 9, Type (0, 0), BuildingBlock: EYOCIG_clean_linker_4, # of connection points: 2
#     Edge 10, Type (0, 0), BuildingBlock: EYOCIG_clean_linker_4, # of connection points: 2
#     Edge 11, Type (0, 0), BuildingBlock: EYOCIG_clean_linker_4, # of connection points: 2
# Relax obj value: 0.207
# Max RMSD: 0.250
# Mean RMSD: 0.241
data_MOF--net-lon--node1-QUQFOY_clean_sbu_1--edge1-EYOCIG_clean_linker_4
_symmetry_space_group_name_H-M    P1
_symmetry_Int_Tables_number       1
_symmetry_cell_setting            triclinic
loop_
_symmetry_equiv_pos_as_xyz
'x, y, z'
_cell_length_a     17.887373
_cell_length_b     20.612838
_cell_length_c     35.579268
_cell_angle_alpha  96.849629
_cell_angle_beta   89.992207
_cell_angle_gamma 115.64266
loop_
_atom_site_label
_atom_site_type_symbol
_atom_site_fract_x
_atom_site_fract_y
_atom_site_fract_z
_atom_type_partial_charge
O0 O 0.24061 0.58781 0.08612 0.0
Cd1 Cd 0.35546 0.65327 0.11273 0.0
Cd2 Cd 0.36734 0.72004 0.05372 0.0
O3 O 0.23924 0.66815 0.05078 0.0
O4 O 0.34353 0.62485 0.16453 0.0
O5 O 0.36563 0.73497 0.15295 0.0
C6 C 0.35095 0.68878 0.17673 0.0
C7 C 0.44193 0.84019 0.04391 0.0
C8 C 0.20265 0.60755 0.06329 0.0
C9 C 0.45745 0.62847 0.05451 0.0
O10 O 0.42199 0.65426 0.03399 0.0
O11 O 0.45079 0.63297 0.09015 0.0
O12 O 0.39805 0.79107 0.01675 0.0
O13 O 0.44093 0.82238 0.07755 0.0
O14 O 0.60574 0.20303 0.5785 0.0
Cd15 Cd 0.65531 0.30645 0.60753 0.0
Cd16 Cd 0.57126 0.32548 0.55298 0.0
O17 O 0.50662 0.21456 0.54719 0.0
O18 O 0.69201 0.29627 0.65821 0.0
O19 O 0.59052 0.32857 0.64944 0.0
C20 C 0.63462 0.31232 0.67195 0.0
C21 C 0.50822 0.40205 0.54957 0.0
C22 C 0.54019 0.17564 0.55692 0.0
C23 C 0.75433 0.39102 0.54977 0.0
O24 O 0.6858 0.36481 0.53054 0.0
O25 O 0.75678 0.38293 0.58451 0.0
O26 O 0.5092 0.35926 0.52036 0.0
O27 O 0.53816 0.39844 0.58186 0.0
O28 O 0.40628 0.80395 0.45474 0.0
Cd29 Cd 0.35197 0.70072 0.42555 0.0
Cd30 Cd 0.24936 0.68251 0.47997 0.0
O31 O 0.29479 0.79341 0.48504 0.0
O32 O 0.39933 0.71099 0.37498 0.0
O33 O 0.26581 0.68013 0.38361 0.0
C34 C 0.32632 0.69613 0.36121 0.0
C35 C 0.1104 0.60475 0.48338 0.0
C36 C 0.36772 0.8319 0.47572 0.0
C37 C 0.36572 0.61626 0.48345 0.0
O38 O 0.32514 0.6442 0.50283 0.0
O39 O 0.3751 0.62311 0.44852 0.0
O40 O 0.15343 0.6485 0.51247 0.0
O41 O 0.14419 0.6082 0.45115 0.0
O42 O 0.65705 0.42043 0.94765 0.0
Cd43 Cd 0.70678 0.35534 0.92082 0.0
Cd44 Cd 0.65171 0.28805 0.98001 0.0
O45 O 0.57513 0.33968 0.9827 0.0
O46 O 0.72374 0.38488 0.86923 0.0
O47 O 0.6358 0.27441 0.88019 0.0
C48 C 0.66745 0.32114 0.85669 0.0
C49 C 0.60628 0.16834 0.99076 0.0
C50 C 0.5991 0.4004 0.97032 0.0
C51 C 0.83332 0.37983 0.97907 0.0
O52 O 0.77208 0.35405 0.99958 0.0
O53 O 0.82223 0.37536 0.94343 0.0
O54 O 0.61181 0.21814 0.01758 0.0
O55 O 0.62278 0.18519 0.95693 0.0
C56 C 0.32748 0.70947 0.24931 0.0
C57 C 0.33928 0.70576 0.21593 0.0
C58 C 0.31641 0.70543 0.28839 0.0
C59 C 0.3147 0.69979 0.32175 0.0
C60 C 0.61632 0.30491 0.74496 0.0
C61 C 0.61981 0.30979 0.71151 0.0
C62 C 0.6237 0.30131 0.78408 0.0
C63 C 0.63923 0.30488 0.81744 0.0
C64 C 0.5211 0.5456 0.01956 0.0
C65 C 0.49252 0.58314 0.03632 0.0
C66 C 0.54703 0.49551 1.00057 0.0
C67 C 0.57067 0.45193 0.98682 0.0
C68 C 0.96308 0.50845 0.49848 0.0
C69 C 0.02891 0.54987 0.48828 0.0
C70 C 0.89031 0.46471 0.51551 0.0
C71 C 0.82909 0.43129 0.53179 0.0
C72 C 0.56117 0.03792 1.01035 0.0
C73 C 0.58217 0.09584 0.99912 0.0
C74 C 0.52772 0.97109 0.02509 0.0
C75 C 0.49063 0.91297 0.03608 0.0
C76 C 0.45524 0.49733 0.53465 0.0
C77 C 0.4804 0.45628 0.54477 0.0
C78 C 0.42632 0.54126 0.51768 0.0
C79 C 0.39923 0.57526 0.50144 0.0
C80 C 0.05569 0.51233 0.03307 0.0
C81 C 0.1228 0.55588 0.04684 0.0
C82 C 0.97973 0.46239 1.01405 0.0
C83 C 0.91366 0.42499 0.99728 0.0
C84 C 0.47923 0.03966 0.52543 0.0
C85 C 0.50839 0.10159 0.54024 0.0
C86 C 0.44313 0.96802 0.50695 0.0
C87 C 0.41001 0.90598 0.49232 0.0
loop_
_geom_bond_atom_site_label_1
_geom_bond_atom_site_label_2
_geom_bond_distance
_geom_bond_site_symmetry_2
_ccdc_geom_bond_type
O0 Cd1 2.223 . S
O0 C8 1.315 . S
Cd1 O0 2.223 . S
Cd1 O4 2.297 . S
Cd1 O5 2.439 . S
Cd1 O11 2.240 . S
Cd2 O3 2.240 . S
Cd2 O10 2.223 1_554 S
Cd2 O12 2.297 . S
Cd2 O13 2.439 . S
O3 Cd2 2.240 . S
O3 C8 1.279 . S
O4 Cd1 2.297 . S
O4 C6 1.247 . S
O5 Cd1 2.439 . S
O5 C6 1.208 . S
C6 O4 1.247 . S
C6 O5 1.208 . S
C7 O12 1.247 . S
C7 O13 1.208 . S
C8 O0 1.315 . S
C8 O3 1.279 . S
C9 O10 1.315 1_554 S
C9 O11 1.279 . S
O10 Cd2 2.223 1_556 S
O10 C9 1.315 1_556 S
O11 Cd1 2.240 . S
O11 C9 1.279 . S
O12 Cd2 2.297 . S
O12 C7 1.247 . S
O13 Cd2 2.439 . S
O13 C7 1.208 . S
O14 Cd15 2.223 . S
O14 C22 1.315 . S
Cd15 O14 2.223 . S
Cd15 O18 2.297 . S
Cd15 O19 2.439 . S
Cd15 O25 2.240 . S
Cd16 O17 2.240 . S
Cd16 O24 2.223 . S
Cd16 O26 2.297 . S
Cd16 O27 2.439 . S
O17 Cd16 2.240 . S
O17 C22 1.279 . S
O18 Cd15 2.297 . S
O18 C20 1.247 . S
O19 Cd15 2.439 . S
O19 C20 1.208 . S
C20 O18 1.247 . S
C20 O19 1.208 . S
C21 O26 1.247 . S
C21 O27 1.208 . S
C22 O14 1.315 . S
C22 O17 1.279 . S
C23 O24 1.315 . S
C23 O25 1.279 . S
O24 Cd16 2.223 . S
O24 C23 1.315 . S
O25 Cd15 2.240 . S
O25 C23 1.279 . S
O26 Cd16 2.297 . S
O26 C21 1.247 . S
O27 Cd16 2.439 . S
O27 C21 1.208 . S
O28 Cd29 2.223 . S
O28 C36 1.315 . S
Cd29 O28 2.223 . S
Cd29 O32 2.297 . S
Cd29 O33 2.439 . S
Cd29 O39 2.240 . S
Cd30 O31 2.240 . S
Cd30 O38 2.223 . S
Cd30 O40 2.297 . S
Cd30 O41 2.439 . S
O31 Cd30 2.240 . S
O31 C36 1.279 . S
O32 Cd29 2.297 . S
O32 C34 1.247 . S
O33 Cd29 2.439 . S
O33 C34 1.208 . S
C34 O32 1.247 . S
C34 O33 1.208 . S
C35 O40 1.247 . S
C35 O41 1.208 . S
C36 O28 1.315 . S
C36 O31 1.279 . S
C37 O38 1.315 . S
C37 O39 1.279 . S
O38 Cd30 2.223 . S
O38 C37 1.315 . S
O39 Cd29 2.240 . S
O39 C37 1.279 . S
O40 Cd30 2.297 . S
O40 C35 1.247 . S
O41 Cd30 2.439 . S
O41 C35 1.208 . S
O42 Cd43 2.223 . S
O42 C50 1.315 . S
Cd43 O42 2.223 . S
Cd43 O46 2.297 . S
Cd43 O47 2.439 . S
Cd43 O53 2.240 . S
Cd44 O45 2.240 . S
Cd44 O52 2.223 1_556 S
Cd44 O54 2.297 . S
Cd44 O55 2.439 . S
O45 Cd44 2.240 . S
O45 C50 1.279 . S
O46 Cd43 2.297 . S
O46 C48 1.247 . S
O47 Cd43 2.439 . S
O47 C48 1.208 . S
C48 O46 1.247 . S
C48 O47 1.208 . S
C49 O54 1.247 . S
C49 O55 1.208 . S
C50 O42 1.315 . S
C50 O45 1.279 . S
C51 O52 1.315 1_556 S
C51 O53 1.279 . S
O52 Cd44 2.223 1_554 S
O52 C51 1.315 1_554 S
O53 Cd43 2.240 . S
O53 C51 1.279 . S
O54 Cd44 2.297 . S
O54 C49 1.247 . S
O55 Cd44 2.439 . S
O55 C49 1.208 . S
C56 C57 1.170 . S
C56 C58 1.380 . S
C57 C56 1.170 . S
C58 C56 1.380 . S
C58 C59 1.170 . S
C59 C58 1.170 . S
C60 C61 1.170 . S
C60 C62 1.380 . S
C61 C60 1.170 . S
C62 C60 1.380 . S
C62 C63 1.170 . S
C63 C62 1.170 . S
C64 C65 1.170 1_556 S
C64 C66 1.380 . S
C65 C64 1.170 1_554 S
C66 C64 1.380 . S
C66 C67 1.170 . S
C67 C66 1.170 . S
C68 C69 1.170 1_655 S
C68 C70 1.380 . S
C69 C68 1.170 1_455 S
C70 C68 1.380 . S
C70 C71 1.170 . S
C71 C70 1.170 . S
C72 C73 1.170 . S
C72 C74 1.380 1_546 S
C73 C72 1.170 . S
C74 C72 1.380 1_564 S
C74 C75 1.170 . S
C75 C74 1.170 . S
C76 C77 1.170 . S
C76 C78 1.380 . S
C77 C76 1.170 . S
C78 C76 1.380 . S
C78 C79 1.170 . S
C79 C78 1.170 . S
C80 C81 1.170 . S
C80 C82 1.380 1_455 S
C81 C80 1.170 . S
C82 C80 1.380 1_655 S
C82 C83 1.170 1_554 S
C83 C82 1.170 1_556 S
C84 C85 1.170 . S
C84 C86 1.380 1_545 S
C85 C84 1.170 . S
C86 C84 1.380 1_565 S
C86 C87 1.170 . S
C87 C86 1.170 . S
C57 C6 1.530 . S
C59 C34 1.507 . S
C61 C20 1.506 . S
C63 C48 1.505 . S
C65 C9 1.687 . S
C67 C50 1.687 . S
C69 C35 1.487 . S
C71 C23 1.505 . S
C73 C49 1.349 . S
C75 C7 1.392 . S
C77 C21 1.488 . S
C79 C37 1.483 . S
C81 C8 1.686 . S
C83 C51 1.685 . S
C85 C22 1.854 . S
C87 C36 1.845 . S
