# Generated by pormake.
# Topology bnn, (5)-cn, num edge types: 1
# Building blocks:
#     Node 0, Type 0, BuildingBlock: XOMCOT_clean_sbu_1, # of connection points: 5
#     Node 1, Type 0, BuildingBlock: XOMCOT_clean_sbu_1, # of connection points: 5
#     Edge 2, Type (0, 0), BuildingBlock: XUDNAN_clean_linker_2, # of connection points: 2
#     Edge 3, Type (0, 0), BuildingBlock: XUDNAN_clean_linker_2, # of connection points: 2
#     Edge 4, Type (0, 0), BuildingBlock: XUDNAN_clean_linker_2, # of connection points: 2
#     Edge 5, Type (0, 0), BuildingBlock: XUDNAN_clean_linker_2, # of connection points: 2
#     Edge 6, Type (0, 0), BuildingBlock: XUDNAN_clean_linker_2, # of connection points: 2
# Relax obj value: 0.039
# Max RMSD: 0.098
# Mean RMSD: 0.098
data_MOF--net-bnn--node1-XOMCOT_clean_sbu_1--edge1-XUDNAN_clean_linker_2
_symmetry_space_group_name_H-M    P1
_symmetry_Int_Tables_number       1
_symmetry_cell_setting            triclinic
loop_
_symmetry_equiv_pos_as_xyz
'x, y, z'
_cell_length_a     30.278997
_cell_length_b     27.210597
_cell_length_c     17.422761
_cell_angle_alpha  96.687742
_cell_angle_beta   89.540301
_cell_angle_gamma 123.49824
loop_
_atom_site_label
_atom_site_type_symbol
_atom_site_fract_x
_atom_site_fract_y
_atom_site_fract_z
_atom_type_partial_charge
C0 C 0.28815 0.60915 0.94641 0.0
C1 C 0.29111 0.60225 0.86756 0.0
N2 N 0.31501 0.65618 0.84406 0.0
N3 N 0.31093 0.66732 0.97249 0.0
C4 C 0.32638 0.69491 0.90844 0.0
H5 H 0.27215 0.57424 0.9829 0.0
Co6 Co 0.32233 0.69762 0.07685 0.0
C7 C 0.41487 0.82247 0.08757 0.0
O8 O 0.43509 0.81361 0.14676 0.0
N9 N 0.33252 0.72776 0.18347 0.0
C10 C 0.33543 0.78136 0.29282 0.0
C11 C 0.32788 0.77273 0.21332 0.0
C12 C 0.34225 0.70951 0.24643 0.0
N13 N 0.3446 0.74146 0.31347 0.0
O14 O 0.26298 0.7038 0.06751 0.0
H15 H 0.31929 0.79765 0.17928 0.0
H16 H 0.34592 0.67229 0.24439 0.0
O17 O 0.37104 0.7793 0.05249 0.0
C18 C 0.2231 0.65372 0.0812 0.0
O19 O 0.23179 0.61505 0.10334 0.0
N20 N 0.37509 0.68224 0.08404 0.0
C21 C 0.4209 0.61695 0.05931 0.0
C22 C 0.4444 0.67264 0.03291 0.0
C23 C 0.42026 0.70444 0.04489 0.0
C24 C 0.35284 0.62885 0.11077 0.0
C25 C 0.37574 0.59654 0.10125 0.0
H26 H 0.43513 0.74357 1.01676 0.0
H27 H 0.31432 0.6086 0.13429 0.0
H28 H 0.34774 0.74254 0.909 0.0
H29 H 0.2777 0.56106 0.83043 0.0
H30 H 0.33418 0.81438 0.3321 0.0
H31 H 0.47866 0.68932 0.99863 0.0
H32 H 0.35623 0.554 0.12286 0.0
C33 C 0.72119 0.44184 0.12385 0.0
C34 C 0.716 0.44665 0.20249 0.0
N35 N 0.66561 0.40495 0.21643 0.0
N36 N 0.67462 0.3965 0.08782 0.0
C37 C 0.64119 0.3766 0.14538 0.0
H38 H 0.75723 0.46861 0.09522 0.0
Co39 Co 0.65901 0.36597 0.98142 0.0
C40 C 0.6225 0.25342 0.05767 0.0
O41 O 0.65245 0.2807 0.12243 0.0
N42 N 0.64288 0.33538 0.87544 0.0
C43 C 0.62517 0.27587 0.76498 0.0
C44 C 0.63703 0.28431 0.84318 0.0
C45 C 0.6356 0.35796 0.81502 0.0
N46 N 0.62444 0.3222 0.74732 0.0
O47 O 0.59377 0.36097 0.98609 0.0
H48 H 0.64186 0.25518 0.87407 0.0
H49 H 0.63824 0.39954 0.82046 0.0
O50 O 0.62413 0.28342 1.00498 0.0
C51 C 0.60658 0.41387 0.98264 0.0
O52 O 0.65664 0.45504 0.97477 0.0
N53 N 0.72645 0.3794 0.97379 0.0
C54 C 0.83704 0.44354 0.98175 0.0
C55 C 0.80745 0.39318 1.0204 0.0
C56 C 0.75175 0.36124 1.01526 0.0
C57 C 0.75456 0.42503 0.93116 0.0
C58 C 0.80954 0.45685 0.93313 0.0
H59 H 0.73007 0.32552 0.04929 0.0
H60 H 0.73447 0.44015 0.90001 0.0
H61 H 0.60004 0.34007 0.13492 0.0
H62 H 0.74783 0.47694 0.24586 0.0
H63 H 0.61872 0.23913 0.72377 0.0
H64 H 0.82697 0.38099 0.05841 0.0
H65 H 0.83034 0.49392 0.90012 0.0
H66 H 0.52378 0.64596 0.06035 0.0
H67 H 0.35984 0.49746 1.00992 0.0
H68 H 0.38871 0.42865 0.98588 0.0
H69 H 0.57849 0.59126 0.91274 0.0
H70 H 0.63796 0.61839 0.97232 0.0
H71 H 0.60418 0.65606 0.98408 0.0
H72 H 0.59772 0.64394 0.12997 0.0
H73 H 0.63101 0.60573 0.11845 0.0
H74 H 0.56688 0.57072 0.15822 0.0
H75 H 0.43515 0.37466 0.9742 0.0
H76 H 0.49722 0.34187 0.96536 0.0
H77 H 0.62995 0.52586 1.01812 0.0
C78 C 0.49408 0.59912 0.04326 0.0
C79 C 0.43955 0.57709 0.03838 0.0
C80 C 0.40184 0.5153 1.01598 0.0
C81 C 0.41779 0.47578 1.00174 0.0
C82 C 0.47169 0.49865 1.00917 0.0
C83 C 0.50933 0.55894 0.02842 0.0
C84 C 0.56472 0.57191 0.03262 0.0
C85 C 0.59831 0.61175 0.9718 0.0
C86 C 0.59165 0.59971 0.1147 0.0
C87 C 0.55222 0.5096 1.01318 0.0
C88 C 0.49837 0.46779 1.00026 0.0
C89 C 0.47752 0.40706 0.98352 0.0
C90 C 0.51289 0.38877 0.97893 0.0
C91 C 0.56825 0.43126 0.99038 0.0
C92 C 0.58781 0.49226 1.00809 0.0
H93 H 0.91177 0.41733 1.00445 0.0
H94 H 0.89515 0.56528 0.99531 0.0
H95 H 0.99187 0.63542 1.01706 0.0
H96 H 0.01485 0.4914 0.1594 0.0
H97 H 0.04927 0.45816 0.12059 0.0
H98 H 0.97855 0.41924 0.10166 0.0
H99 H 0.98987 0.4109 0.95398 0.0
H100 H 0.06063 0.44992 0.9725 0.0
H101 H 0.03374 0.47738 0.91083 0.0
H102 H 0.0917 0.69025 0.03746 0.0
H103 H 0.18575 0.72425 0.06211 0.0
H104 H 0.13539 0.54108 0.06526 0.0
C105 C 0.92833 0.46443 1.0074 0.0
C106 C 0.89562 0.48538 0.99651 0.0
C107 C 0.91926 0.54765 1.00094 0.0
C108 C 0.97427 0.58811 1.01398 0.0
C109 C 1.00535 0.56592 1.02355 0.0
C110 C 0.98321 0.5056 1.02112 0.0
C111 C 0.02535 0.49343 0.0348 0.0
C112 C 0.01646 0.46382 0.1085 0.0
C113 C 0.02751 0.45569 0.96379 0.0
C114 C 0.07444 0.55624 0.04528 0.0
C115 C 0.06233 0.59754 0.03805 0.0
C116 C 0.10169 0.65832 0.04377 0.0
C117 C 0.15489 0.67727 0.05762 0.0
C118 C 0.16778 0.63547 0.06634 0.0
C119 C 0.12684 0.57434 0.05993 0.0
H120 H 0.49804 0.92625 0.16646 0.0
H121 H 0.39118 0.85714 0.96005 0.0
H122 H 0.43365 0.95954 0.92768 0.0
H123 H 0.49678 0.05604 0.21652 0.0
H124 H 0.56565 0.10246 0.2515 0.0
H125 H 0.52846 1.02369 0.25596 0.0
H126 H 0.59808 1.01581 0.17806 0.0
H127 H 0.6356 0.09463 0.17357 0.0
H128 H 0.61422 0.04308 0.08559 0.0
H129 H 0.48798 0.07128 0.91959 0.0
H130 H 0.54753 0.1811 0.9376 0.0
H131 H 0.6167 0.1757 0.15115 0.0
C132 C 0.48377 0.93237 0.11396 0.0
C133 C 0.44138 0.88339 0.06554 0.0
C134 C 0.42366 0.8938 0.99796 0.0
C135 C 0.44758 0.95186 0.97911 0.0
C136 C 0.48904 0.99916 0.02856 0.0
C137 C 0.50686 0.98989 0.09468 0.0
C138 C 0.55089 0.04812 0.13959 0.0
C139 C 0.53444 0.05815 0.22068 0.0
C140 C 0.60277 0.05053 0.14445 0.0
C141 C 0.55512 0.09182 0.08866 0.0
C142 C 0.51936 0.06286 0.02464 0.0
C143 C 0.51612 0.09427 0.96953 0.0
C144 C 0.55018 0.15673 0.98025 0.0
C145 C 0.58691 0.18732 0.04582 0.0
C146 C 0.58913 0.15398 0.10043 0.0
H147 H 0.29752 0.72336 0.7626 0.0
H148 H 0.36495 0.61808 0.75243 0.0
H149 H 0.38755 0.63692 0.61748 0.0
H150 H 0.23516 0.66818 0.5736 0.0
H151 H 0.246 0.7373 0.55293 0.0
H152 H 0.24105 0.72177 0.65138 0.0
H153 H 0.3328 0.81983 0.68979 0.0
H154 H 0.33804 0.83562 0.59125 0.0
H155 H 0.38957 0.83333 0.63827 0.0
H156 H 0.39954 0.66361 0.4837 0.0
H157 H 0.39419 0.68942 0.35509 0.0
H158 H 0.3127 0.77153 0.44787 0.0
C159 C 0.31794 0.70542 0.73198 0.0
C160 C 0.33011 0.66981 0.7673 0.0
C161 C 0.35554 0.6455 0.72569 0.0
C162 C 0.36872 0.65626 0.64951 0.0
C163 C 0.35563 0.69093 0.61569 0.0
C164 C 0.33041 0.71478 0.65518 0.0
C165 C 0.31649 0.74582 0.60288 0.0
C166 C 0.25609 0.71649 0.59472 0.0
C167 C 0.346 0.81262 0.63232 0.0
C168 C 0.33716 0.73491 0.52767 0.0
C169 C 0.36035 0.70405 0.53689 0.0
C170 C 0.38133 0.68762 0.47562 0.0
C171 C 0.37763 0.70207 0.40248 0.0
C172 C 0.35232 0.73183 0.39062 0.0
C173 C 0.33269 0.74927 0.45474 0.0
H174 H 0.71003 0.46839 0.36035 0.0
H175 H 0.57423 0.30199 0.24482 0.0
H176 H 0.54368 0.26929 0.37087 0.0
H177 H 0.73674 0.4053 0.50088 0.0
H178 H 0.7564 0.46503 0.57829 0.0
H179 H 0.76418 0.47978 0.47939 0.0
H180 H 0.70823 0.52518 0.49793 0.0
H181 H 0.70023 0.5105 0.5971 0.0
H182 H 0.64266 0.48195 0.53229 0.0
H183 H 0.53319 0.24816 0.50712 0.0
H184 H 0.5438 0.24132 0.64528 0.0
H185 H 0.6852 0.42013 0.67542 0.0
C186 C 0.6735 0.42537 0.361 0.0
C187 C 0.64477 0.38826 0.2912 0.0
C188 C 0.59703 0.33223 0.29619 0.0
C189 C 0.57919 0.31291 0.36806 0.0
C190 C 0.60911 0.34999 0.43512 0.0
C191 C 0.65512 0.40519 0.43244 0.0
C192 C 0.68202 0.43433 0.51304 0.0
C193 C 0.73814 0.44682 0.51816 0.0
C194 C 0.68334 0.49138 0.53646 0.0
C195 C 0.64476 0.386 0.56103 0.0
C196 C 0.60268 0.33798 0.51476 0.0
C197 C 0.56533 0.2859 0.54417 0.0
C198 C 0.57163 0.28232 0.62247 0.0
C199 C 0.61469 0.3305 0.67075 0.0
C200 C 0.65112 0.38345 0.63999 0.0
loop_
_geom_bond_atom_site_label_1
_geom_bond_atom_site_label_2
_geom_bond_distance
_geom_bond_site_symmetry_2
_ccdc_geom_bond_type
C0 C1 1.351 . S
C0 N3 1.368 . S
C0 H5 0.931 . S
C1 C0 1.351 . S
C1 N2 1.373 . S
C1 H29 0.930 . S
N2 C1 1.373 . S
N2 C4 1.340 . S
N3 C0 1.368 . S
N3 C4 1.321 . S
N3 Co6 2.135 1_556 S
C4 N2 1.340 . S
C4 N3 1.321 . S
C4 H28 0.930 . S
H5 C0 0.931 . S
Co6 N3 2.135 1_554 S
Co6 N9 2.121 . S
Co6 O14 2.055 . S
Co6 O17 2.039 . S
Co6 N20 2.140 . S
C7 O8 1.227 1_554 S
C7 O17 1.265 . S
O8 C7 1.227 1_556 S
N9 Co6 2.121 . S
N9 C11 1.375 . S
N9 C12 1.313 . S
C10 C11 1.338 . S
C10 N13 1.377 . S
C10 H30 0.930 . S
C11 N9 1.375 . S
C11 C10 1.338 . S
C11 H15 0.931 . S
C12 N9 1.313 . S
C12 N13 1.344 . S
C12 H16 0.930 . S
N13 C10 1.377 . S
N13 C12 1.344 . S
O14 Co6 2.055 . S
O14 C18 1.253 . S
H15 C11 0.931 . S
H16 C12 0.930 . S
O17 Co6 2.039 . S
O17 C7 1.265 . S
C18 O14 1.253 . S
C18 O19 1.227 . S
O19 C18 1.227 . S
N20 Co6 2.140 . S
N20 C23 1.346 1_554 S
N20 C24 1.345 . S
C21 C22 1.387 . S
C21 C25 1.391 1_556 S
C22 C21 1.387 . S
C22 C23 1.369 . S
C22 H31 0.929 . S
C23 N20 1.346 1_556 S
C23 C22 1.369 . S
C23 H26 0.928 . S
C24 N20 1.345 . S
C24 C25 1.371 . S
C24 H27 0.931 . S
C25 C21 1.391 1_554 S
C25 C24 1.371 . S
C25 H32 0.930 . S
H26 C23 0.928 . S
H27 C24 0.931 . S
H28 C4 0.930 . S
H29 C1 0.930 . S
H30 C10 0.930 . S
H31 C22 0.929 . S
H32 C25 0.930 . S
C33 C34 1.351 . S
C33 N36 1.368 . S
C33 H38 0.931 . S
C34 C33 1.351 . S
C34 N35 1.373 . S
C34 H62 0.930 . S
N35 C34 1.373 . S
N35 C37 1.340 . S
N36 C33 1.368 . S
N36 C37 1.321 . S
N36 Co39 2.135 . S
C37 N35 1.340 . S
C37 N36 1.321 . S
C37 H61 0.930 . S
H38 C33 0.931 . S
Co39 N36 2.135 . S
Co39 N42 2.121 1_554 S
Co39 O47 2.055 . S
Co39 O50 2.039 . S
Co39 N53 2.140 . S
C40 O41 1.227 . S
C40 O50 1.265 . S
O41 C40 1.227 . S
N42 Co39 2.121 1_556 S
N42 C44 1.375 . S
N42 C45 1.313 . S
C43 C44 1.338 . S
C43 N46 1.377 . S
C43 H63 0.930 . S
C44 N42 1.375 . S
C44 C43 1.338 . S
C44 H48 0.931 . S
C45 N42 1.313 . S
C45 N46 1.344 . S
C45 H49 0.930 . S
N46 C43 1.377 . S
N46 C45 1.344 . S
O47 Co39 2.055 . S
O47 C51 1.253 . S
H48 C44 0.931 . S
H49 C45 0.930 . S
O50 Co39 2.039 . S
O50 C40 1.265 . S
C51 O47 1.253 . S
C51 O52 1.227 1_554 S
O52 C51 1.227 1_556 S
N53 Co39 2.140 . S
N53 C56 1.346 . S
N53 C57 1.345 1_554 S
C54 C55 1.387 . S
C54 C58 1.391 1_554 S
C55 C54 1.387 . S
C55 C56 1.369 . S
C55 H64 0.929 . S
C56 N53 1.346 . S
C56 C55 1.369 . S
C56 H59 0.928 . S
C57 N53 1.345 1_556 S
C57 C58 1.371 . S
C57 H60 0.931 . S
C58 C54 1.391 1_556 S
C58 C57 1.371 . S
C58 H65 0.930 . S
H59 C56 0.928 . S
H60 C57 0.931 . S
H61 C37 0.930 . S
H62 C34 0.930 . S
H63 C43 0.930 . S
H64 C55 0.929 . S
H65 C58 0.930 . S
H66 C78 0.930 . S
H67 C80 0.930 . S
H68 C81 0.930 . S
H69 C85 0.959 . S
H70 C85 0.959 . S
H71 C85 0.961 . S
H72 C86 0.960 . S
H73 C86 0.961 . S
H74 C86 0.959 . S
H75 C89 0.929 . S
H76 C90 0.931 . S
H77 C92 0.930 . S
C78 H66 0.930 . S
C78 C79 1.399 1_554 S
C78 C83 1.399 . S
C79 C78 1.399 1_556 S
C79 C80 1.376 . S
C80 H67 0.930 . S
C80 C79 1.376 . S
C80 C81 1.388 . S
C81 H68 0.930 . S
C81 C80 1.388 . S
C81 C82 1.390 . S
C82 C81 1.390 . S
C82 C83 1.394 1_556 S
C82 C88 1.465 . S
C83 C78 1.399 . S
C83 C82 1.394 1_554 S
C83 C84 1.516 . S
C84 C83 1.516 . S
C84 C85 1.502 . S
C84 C86 1.561 . S
C84 C87 1.526 . S
C85 H69 0.959 . S
C85 H70 0.959 . S
C85 H71 0.961 . S
C85 C84 1.502 . S
C86 H72 0.960 . S
C86 H73 0.961 . S
C86 H74 0.959 . S
C86 C84 1.561 . S
C87 C84 1.526 . S
C87 C88 1.396 1_554 S
C87 C92 1.390 . S
C88 C82 1.465 . S
C88 C87 1.396 1_556 S
C88 C89 1.399 . S
C89 H75 0.929 . S
C89 C88 1.399 . S
C89 C90 1.385 . S
C90 H76 0.931 . S
C90 C89 1.385 . S
C90 C91 1.389 . S
C91 C90 1.389 . S
C91 C92 1.387 1_556 S
C92 H77 0.930 . S
C92 C87 1.390 . S
C92 C91 1.387 1_554 S
H93 C105 0.930 . S
H94 C107 0.930 . S
H95 C108 0.930 . S
H96 C112 0.959 . S
H97 C112 0.959 . S
H98 C112 0.961 1_655 S
H99 C113 0.960 1_655 S
H100 C113 0.961 . S
H101 C113 0.959 . S
H102 C116 0.929 . S
H103 C117 0.931 . S
H104 C119 0.930 . S
C105 H93 0.930 . S
C105 C106 1.399 1_556 S
C105 C110 1.399 . S
C106 C105 1.399 1_554 S
C106 C107 1.376 . S
C107 H94 0.930 . S
C107 C106 1.376 . S
C107 C108 1.388 . S
C108 H95 0.930 . S
C108 C107 1.388 . S
C108 C109 1.390 . S
C109 C108 1.390 . S
C109 C110 1.394 1_554 S
C109 C115 1.465 1_655 S
C110 C105 1.399 . S
C110 C109 1.394 1_556 S
C110 C111 1.516 1_655 S
C111 C110 1.516 1_455 S
C111 C112 1.502 . S
C111 C113 1.561 . S
C111 C114 1.526 . S
C112 H96 0.959 . S
C112 H97 0.959 . S
C112 H98 0.961 1_455 S
C112 C111 1.502 . S
C113 H99 0.960 1_455 S
C113 H100 0.961 . S
C113 H101 0.959 . S
C113 C111 1.561 . S
C114 C111 1.526 . S
C114 C115 1.396 1_556 S
C114 C119 1.390 . S
C115 C109 1.465 1_455 S
C115 C114 1.396 1_554 S
C115 C116 1.399 . S
C116 H102 0.929 . S
C116 C115 1.399 . S
C116 C117 1.385 . S
C117 H103 0.931 . S
C117 C116 1.385 . S
C117 C118 1.389 . S
C118 C117 1.389 . S
C118 C119 1.387 1_554 S
C119 H104 0.930 . S
C119 C114 1.390 . S
C119 C118 1.387 1_556 S
H120 C132 0.930 . S
H121 C134 0.930 . S
H122 C135 0.930 . S
H123 C139 0.959 . S
H124 C139 0.959 . S
H125 C139 0.961 1_565 S
H126 C140 0.960 1_565 S
H127 C140 0.961 . S
H128 C140 0.959 . S
H129 C143 0.929 . S
H130 C144 0.931 . S
H131 C146 0.930 . S
C132 H120 0.930 . S
C132 C133 1.399 . S
C132 C137 1.399 . S
C133 C132 1.399 . S
C133 C134 1.376 1_554 S
C134 H121 0.930 . S
C134 C133 1.376 1_556 S
C134 C135 1.388 . S
C135 H122 0.930 . S
C135 C134 1.388 . S
C135 C136 1.390 . S
C136 C135 1.390 . S
C136 C137 1.394 1_556 S
C136 C142 1.465 1_565 S
C137 C132 1.399 . S
C137 C136 1.394 1_554 S
C137 C138 1.516 1_565 S
C138 C137 1.516 1_545 S
C138 C139 1.502 . S
C138 C140 1.561 . S
C138 C141 1.526 . S
C139 H123 0.959 . S
C139 H124 0.959 . S
C139 H125 0.961 1_545 S
C139 C138 1.502 . S
C140 H126 0.960 1_545 S
C140 H127 0.961 . S
C140 H128 0.959 . S
C140 C138 1.561 . S
C141 C138 1.526 . S
C141 C142 1.396 1_554 S
C141 C146 1.390 . S
C142 C136 1.465 1_545 S
C142 C141 1.396 1_556 S
C142 C143 1.399 . S
C143 H129 0.929 . S
C143 C142 1.399 . S
C143 C144 1.385 . S
C144 H130 0.931 . S
C144 C143 1.385 . S
C144 C145 1.389 1_556 S
C145 C144 1.389 1_554 S
C145 C146 1.387 . S
C146 H131 0.930 . S
C146 C141 1.390 . S
C146 C145 1.387 . S
H147 C159 0.930 . S
H148 C161 0.930 . S
H149 C162 0.930 . S
H150 C166 0.959 . S
H151 C166 0.959 . S
H152 C166 0.961 . S
H153 C167 0.960 . S
H154 C167 0.961 . S
H155 C167 0.959 . S
H156 C170 0.929 . S
H157 C171 0.931 . S
H158 C173 0.930 . S
C159 H147 0.930 . S
C159 C160 1.399 . S
C159 C164 1.399 . S
C160 C159 1.399 . S
C160 C161 1.376 . S
C161 H148 0.930 . S
C161 C160 1.376 . S
C161 C162 1.388 . S
C162 H149 0.930 . S
C162 C161 1.388 . S
C162 C163 1.390 . S
C163 C162 1.390 . S
C163 C164 1.394 . S
C163 C169 1.465 . S
C164 C159 1.399 . S
C164 C163 1.394 . S
C164 C165 1.516 . S
C165 C164 1.516 . S
C165 C166 1.502 . S
C165 C167 1.561 . S
C165 C168 1.526 . S
C166 H150 0.959 . S
C166 H151 0.959 . S
C166 H152 0.961 . S
C166 C165 1.502 . S
C167 H153 0.960 . S
C167 H154 0.961 . S
C167 H155 0.959 . S
C167 C165 1.561 . S
C168 C165 1.526 . S
C168 C169 1.396 . S
C168 C173 1.390 . S
C169 C163 1.465 . S
C169 C168 1.396 . S
C169 C170 1.399 . S
C170 H156 0.929 . S
C170 C169 1.399 . S
C170 C171 1.385 . S
C171 H157 0.931 . S
C171 C170 1.385 . S
C171 C172 1.389 . S
C172 C171 1.389 . S
C172 C173 1.387 . S
C173 H158 0.930 . S
C173 C168 1.390 . S
C173 C172 1.387 . S
H174 C186 0.930 . S
H175 C188 0.930 . S
H176 C189 0.930 . S
H177 C193 0.959 . S
H178 C193 0.959 . S
H179 C193 0.961 . S
H180 C194 0.960 . S
H181 C194 0.961 . S
H182 C194 0.959 . S
H183 C197 0.929 . S
H184 C198 0.931 . S
H185 C200 0.930 . S
C186 H174 0.930 . S
C186 C187 1.399 . S
C186 C191 1.399 . S
C187 C186 1.399 . S
C187 C188 1.376 . S
C188 H175 0.930 . S
C188 C187 1.376 . S
C188 C189 1.388 . S
C189 H176 0.930 . S
C189 C188 1.388 . S
C189 C190 1.390 . S
C190 C189 1.390 . S
C190 C191 1.394 . S
C190 C196 1.465 . S
C191 C186 1.399 . S
C191 C190 1.394 . S
C191 C192 1.516 . S
C192 C191 1.516 . S
C192 C193 1.502 . S
C192 C194 1.561 . S
C192 C195 1.526 . S
C193 H177 0.959 . S
C193 H178 0.959 . S
C193 H179 0.961 . S
C193 C192 1.502 . S
C194 H180 0.960 . S
C194 H181 0.961 . S
C194 H182 0.959 . S
C194 C192 1.561 . S
C195 C192 1.526 . S
C195 C196 1.396 . S
C195 C200 1.390 . S
C196 C190 1.465 . S
C196 C195 1.396 . S
C196 C197 1.399 . S
C197 H183 0.929 . S
C197 C196 1.399 . S
C197 C198 1.385 . S
C198 H184 0.931 . S
C198 C197 1.385 . S
C198 C199 1.389 . S
C199 C198 1.389 . S
C199 C200 1.387 . S
C200 H185 0.930 . S
C200 C195 1.390 . S
C200 C199 1.387 . S
C79 C21 1.502 . S
C91 C51 1.500 1_556 S
C106 C54 1.500 . S
C118 C18 1.500 . S
C133 C7 1.481 . S
C145 C40 1.496 . S
C160 N2 1.459 . S
C172 N13 1.453 . S
C187 N35 1.473 . S
C199 N46 1.422 . S
