# Generated by pormake.
# Topology srs, (3)-cn, num edge types: 1
# Building blocks:
#     Node 0, Type 0, BuildingBlock: OLANEW_clean_sbu_2, # of connection points: 3
#     Node 1, Type 0, BuildingBlock: OLANEW_clean_sbu_2, # of connection points: 3
#     Node 2, Type 0, BuildingBlock: OLANEW_clean_sbu_2, # of connection points: 3
#     Node 3, Type 0, BuildingBlock: OLANEW_clean_sbu_2, # of connection points: 3
#     Node 4, Type 0, BuildingBlock: OLANEW_clean_sbu_2, # of connection points: 3
#     Node 5, Type 0, BuildingBlock: OLANEW_clean_sbu_2, # of connection points: 3
#     Node 6, Type 0, BuildingBlock: OLANEW_clean_sbu_2, # of connection points: 3
#     Node 7, Type 0, BuildingBlock: OLANEW_clean_sbu_2, # of connection points: 3
#     Edge 8, Type (0, 0), None
#     Edge 9, Type (0, 0), None
#     Edge 10, Type (0, 0), None
#     Edge 11, Type (0, 0), None
#     Edge 12, Type (0, 0), None
#     Edge 13, Type (0, 0), None
#     Edge 14, Type (0, 0), None
#     Edge 15, Type (0, 0), None
#     Edge 16, Type (0, 0), None
#     Edge 17, Type (0, 0), None
#     Edge 18, Type (0, 0), None
#     Edge 19, Type (0, 0), None
# Relax obj value: 0.001
# Max RMSD: 0.075
# Mean RMSD: 0.059
data_MOF--net-srs--node1-OLANEW_clean_sbu_2--edge1-none
_symmetry_space_group_name_H-M    P1
_symmetry_Int_Tables_number       1
_symmetry_cell_setting            triclinic
loop_
_symmetry_equiv_pos_as_xyz
'x, y, z'
_cell_length_a     16.353872
_cell_length_b     27.115311
_cell_length_c     26.89856
_cell_angle_alpha  98.627146
_cell_angle_beta   75.017726
_cell_angle_gamma 102.73634
loop_
_atom_site_label
_atom_site_type_symbol
_atom_site_fract_x
_atom_site_fract_y
_atom_site_fract_z
_atom_type_partial_charge
O0 O 0.19498 0.00839 0.03128 0.0
Cd1 Cd 0.08073 0.94894 0.08263 0.0
O2 O 0.11196 0.06531 0.05059 0.0
Cd3 Cd 0.07703 0.13677 0.04263 0.0
O4 O 0.03587 0.20525 0.03216 0.0
C5 C 0.09043 0.24596 0.02257 0.0
O6 O 0.17234 0.24704 0.01921 0.0
C7 C 0.1821 0.05158 0.02575 0.0
C8 C 0.13062 0.9015 0.15186 0.0
O9 O 0.14506 0.88576 0.10363 0.0
O10 O 0.0944 0.94021 0.16736 0.0
O11 O 0.29765 0.87356 0.30238 0.0
Cd12 Cd 0.18916 0.82183 0.2589 0.0
O13 O 0.29945 0.81368 0.34908 0.0
Cd14 Cd 0.20743 0.75719 0.31434 0.0
O15 O 0.11318 0.7022 0.27992 0.0
C16 C 0.05106 0.67334 0.30709 0.0
O17 O 0.04271 0.67616 0.35725 0.0
C18 C 0.3257 0.85884 0.33642 0.0
C19 C 0.15242 0.87477 0.18873 0.0
O20 O 0.11832 0.88131 0.23718 0.0
O21 O 0.20405 0.84335 0.17316 0.0
O22 O 0.4752 0.93615 0.56843 0.0
Cd23 Cd 0.51013 0.8751 0.49279 0.0
O24 O 0.46259 -0.00728 0.52129 0.0
Cd25 Cd 0.46871 0.93946 0.45178 0.0
O26 O 0.40683 0.88168 0.40056 0.0
C27 C 0.38292 0.89535 0.36428 0.0
O28 O 0.40108 0.94354 0.35613 0.0
C29 C 0.46249 -0.02 0.5649 0.0
C30 C 0.56254 0.79084 0.51347 0.0
O31 O 0.61748 0.83137 0.50141 0.0
O32 O 0.48284 0.7902 0.51645 0.0
O33 O 0.49671 0.13571 0.73384 0.0
Cd34 Cd 0.38315 0.07683 0.7001 0.0
O35 O 0.42406 0.10951 0.80854 0.0
Cd36 Cd 0.38998 0.10315 0.89187 0.0
O37 O 0.31084 0.06645 -0.03984 0.0
C38 C 0.24442 0.0828 -0.01268 0.0
O39 O 0.22654 0.12413 -0.02387 0.0
C40 C 0.48819 0.13796 0.78235 0.0
C41 C 0.44045 0.01458 0.61162 0.0
O42 O 0.42419 0.05798 0.60845 0.0
O43 O 0.43159 0.00088 0.65658 0.0
O44 O 0.79767 0.37357 0.80229 0.0
Cd45 Cd 0.6892 0.32179 0.75883 0.0
O46 O 0.79946 0.31373 0.84904 0.0
Cd47 Cd 0.70746 0.25721 0.81432 0.0
O48 O 0.61321 0.20217 0.77994 0.0
C49 C 0.5511 0.17334 0.80713 0.0
O50 O 0.54275 0.17621 0.8573 0.0
C51 C 0.82571 0.35889 0.83634 0.0
C52 C 0.65245 0.37466 0.6886 0.0
O53 O 0.61832 0.38122 0.73705 0.0
O54 O 0.70411 0.34326 0.67306 0.0
O55 O 0.97506 0.43626 0.06837 0.0
Cd56 Cd 1.00997 0.37519 -0.00725 0.0
O57 O 0.96259 0.49284 0.02119 0.0
Cd58 Cd 0.96872 0.43958 -0.0483 0.0
O59 O 0.90683 0.38177 -0.09951 0.0
C60 C 0.88293 0.3954 0.86421 0.0
O61 O 0.90109 0.4436 0.85602 0.0
C62 C 0.96242 0.48012 0.06482 0.0
C63 C 0.06247 0.29096 0.01344 0.0
O64 O 0.11738 0.3315 0.00136 0.0
O65 O 0.98275 0.2903 0.01645 0.0
O66 O 0.99666 0.63581 0.23377 0.0
Cd67 Cd 0.88309 0.57699 0.19998 0.0
O68 O 0.924 0.60954 0.30845 0.0
Cd69 Cd 0.88992 0.6031 0.39176 0.0
O70 O 0.81081 0.56634 0.46001 0.0
C71 C 0.74438 0.58266 0.4872 0.0
O72 O 0.72649 0.62401 0.47605 0.0
C73 C 0.98814 0.63801 0.28228 0.0
C74 C 0.94039 0.51472 0.11153 0.0
O75 O 0.92422 0.55813 0.10834 0.0
O76 O 0.93145 0.501 0.15649 0.0
O77 O 0.69497 0.50822 0.5311 0.0
Cd78 Cd 0.58075 0.44872 0.58241 0.0
O79 O 0.61193 0.56512 0.55047 0.0
Cd80 Cd 0.57699 0.6366 0.54257 0.0
O81 O 0.53588 0.70511 0.53214 0.0
C82 C 0.59046 0.74582 0.52257 0.0
O83 O 0.67236 0.74688 0.51923 0.0
C84 C 0.68207 0.55141 0.5256 0.0
C85 C 0.63064 0.40135 0.6517 0.0
O86 O 0.64515 0.38561 0.60347 0.0
O87 O 0.59436 0.44004 0.66717 0.0
loop_
_geom_bond_atom_site_label_1
_geom_bond_atom_site_label_2
_geom_bond_distance
_geom_bond_site_symmetry_2
_ccdc_geom_bond_type
O0 Cd1 2.300 . S
O0 C7 1.275 . S
Cd1 O0 2.300 . S
Cd1 O9 2.381 . S
Cd1 O10 2.378 . S
O2 Cd3 2.385 . S
O2 C7 1.255 . S
Cd3 O2 2.385 . S
Cd3 O4 2.317 . S
O4 Cd3 2.317 . S
O4 C5 1.232 . S
C5 O4 1.232 . S
C5 O6 1.218 . S
O6 C5 1.218 . S
C7 O0 1.275 . S
C7 O2 1.255 . S
C8 O9 1.258 . S
C8 O10 1.256 . S
O9 Cd1 2.381 . S
O9 C8 1.258 . S
O10 Cd1 2.378 . S
O10 C8 1.256 . S
O11 Cd12 2.300 . S
O11 C18 1.275 . S
Cd12 O11 2.300 . S
Cd12 O20 2.381 1_565 S
Cd12 O21 2.378 . S
O13 Cd14 2.385 . S
O13 C18 1.255 . S
Cd14 O13 2.385 . S
Cd14 O15 2.317 1_455 S
O15 Cd14 2.317 1_655 S
O15 C16 1.232 . S
C16 O15 1.232 . S
C16 O17 1.218 1_655 S
O17 C16 1.218 1_455 S
C18 O11 1.275 . S
C18 O13 1.255 . S
C19 O20 1.258 1_565 S
C19 O21 1.256 . S
O20 Cd12 2.381 1_545 S
O20 C19 1.258 1_545 S
O21 Cd12 2.378 . S
O21 C19 1.256 . S
O22 Cd23 2.300 . S
O22 C29 1.275 . S
Cd23 O22 2.300 . S
Cd23 O31 2.381 . S
Cd23 O32 2.378 . S
O24 Cd25 2.385 . S
O24 C29 1.255 . S
Cd25 O24 2.385 . S
Cd25 O26 2.317 . S
O26 Cd25 2.317 . S
O26 C27 1.232 . S
C27 O26 1.232 . S
C27 O28 1.218 . S
O28 C27 1.218 . S
C29 O22 1.275 . S
C29 O24 1.255 . S
C30 O31 1.258 . S
C30 O32 1.256 . S
O31 Cd23 2.381 . S
O31 C30 1.258 . S
O32 Cd23 2.378 . S
O32 C30 1.256 . S
O33 Cd34 2.300 . S
O33 C40 1.275 . S
Cd34 O33 2.300 . S
Cd34 O42 2.381 . S
Cd34 O43 2.378 1_545 S
O35 Cd36 2.385 1_556 S
O35 C40 1.255 . S
Cd36 O35 2.385 1_554 S
Cd36 O37 2.317 1_554 S
O37 Cd36 2.317 1_556 S
O37 C38 1.232 1_556 S
C38 O37 1.232 1_554 S
C38 O39 1.218 . S
O39 C38 1.218 . S
C40 O33 1.275 . S
C40 O35 1.255 . S
C41 O42 1.258 1_565 S
C41 O43 1.256 . S
O42 Cd34 2.381 . S
O42 C41 1.258 1_545 S
O43 Cd34 2.378 1_565 S
O43 C41 1.256 . S
O44 Cd45 2.300 . S
O44 C51 1.275 . S
Cd45 O44 2.300 . S
Cd45 O53 2.381 . S
Cd45 O54 2.378 . S
O46 Cd47 2.385 . S
O46 C51 1.255 . S
Cd47 O46 2.385 . S
Cd47 O48 2.317 . S
O48 Cd47 2.317 . S
O48 C49 1.232 . S
C49 O48 1.232 . S
C49 O50 1.218 . S
O50 C49 1.218 . S
C51 O44 1.275 . S
C51 O46 1.255 . S
C52 O53 1.258 . S
C52 O54 1.256 . S
O53 Cd45 2.381 . S
O53 C52 1.258 . S
O54 Cd45 2.378 . S
O54 C52 1.256 . S
O55 Cd56 2.300 . S
O55 C62 1.275 . S
Cd56 O55 2.300 . S
Cd56 O64 2.381 1_655 S
Cd56 O65 2.378 . S
O57 Cd58 2.385 . S
O57 C62 1.255 . S
Cd58 O57 2.385 . S
Cd58 O59 2.317 . S
O59 Cd58 2.317 . S
O59 C60 1.232 1_554 S
C60 O59 1.232 1_556 S
C60 O61 1.218 1_556 S
O61 C60 1.218 1_554 S
C62 O55 1.275 . S
C62 O57 1.255 . S
C63 O64 1.258 . S
C63 O65 1.256 1_455 S
O64 Cd56 2.381 1_455 S
O64 C63 1.258 . S
O65 Cd56 2.378 . S
O65 C63 1.256 1_655 S
O66 Cd67 2.300 . S
O66 C73 1.275 . S
Cd67 O66 2.300 . S
Cd67 O75 2.381 . S
Cd67 O76 2.378 . S
O68 Cd69 2.385 . S
O68 C73 1.255 . S
Cd69 O68 2.385 . S
Cd69 O70 2.317 . S
O70 Cd69 2.317 . S
O70 C71 1.232 . S
C71 O70 1.232 . S
C71 O72 1.218 . S
O72 C71 1.218 . S
C73 O66 1.275 . S
C73 O68 1.255 . S
C74 O75 1.258 . S
C74 O76 1.256 . S
O75 Cd67 2.381 . S
O75 C74 1.258 . S
O76 Cd67 2.378 . S
O76 C74 1.256 . S
O77 Cd78 2.300 . S
O77 C84 1.275 . S
Cd78 O77 2.300 . S
Cd78 O86 2.381 . S
Cd78 O87 2.378 . S
O79 Cd80 2.385 . S
O79 C84 1.255 . S
Cd80 O79 2.385 . S
Cd80 O81 2.317 . S
O81 Cd80 2.317 . S
O81 C82 1.232 . S
C82 O81 1.232 . S
C82 O83 1.218 . S
O83 C82 1.218 . S
C84 O77 1.275 . S
C84 O79 1.255 . S
C85 O86 1.258 . S
C85 O87 1.256 . S
O86 Cd78 2.381 . S
O86 C85 1.258 . S
O87 Cd78 2.378 . S
O87 C85 1.256 . S
C19 C8 1.622 1_565 S
C18 C27 1.043 . S
C29 C41 1.416 . S
C7 C38 1.122 . S
C63 C5 1.484 . S
C40 C49 1.015 . S
C16 C73 1.016 . S
C82 C30 1.484 . S
C85 C52 1.622 . S
C60 C51 1.042 . S
C62 C74 1.416 . S
C71 C84 1.122 . S
