# Generated by pormake.
# Topology nbo, (4)-cn, num edge types: 1
# Building blocks:
#     Node 0, Type 0, BuildingBlock: NAWXER_clean_sbu_0, # of connection points: 4
#     Node 1, Type 0, BuildingBlock: NAWXER_clean_sbu_0, # of connection points: 4
#     Node 2, Type 0, BuildingBlock: NAWXER_clean_sbu_0, # of connection points: 4
#     Node 3, Type 0, BuildingBlock: NAWXER_clean_sbu_0, # of connection points: 4
#     Node 4, Type 0, BuildingBlock: NAWXER_clean_sbu_0, # of connection points: 4
#     Node 5, Type 0, BuildingBlock: NAWXER_clean_sbu_0, # of connection points: 4
#     Edge 6, Type (0, 0), BuildingBlock: OJICUG_clean_linker_0, # of connection points: 2
#     Edge 7, Type (0, 0), BuildingBlock: OJICUG_clean_linker_0, # of connection points: 2
#     Edge 8, Type (0, 0), BuildingBlock: OJICUG_clean_linker_0, # of connection points: 2
#     Edge 9, Type (0, 0), BuildingBlock: OJICUG_clean_linker_0, # of connection points: 2
#     Edge 10, Type (0, 0), BuildingBlock: OJICUG_clean_linker_0, # of connection points: 2
#     Edge 11, Type (0, 0), BuildingBlock: OJICUG_clean_linker_0, # of connection points: 2
#     Edge 12, Type (0, 0), BuildingBlock: OJICUG_clean_linker_0, # of connection points: 2
#     Edge 13, Type (0, 0), BuildingBlock: OJICUG_clean_linker_0, # of connection points: 2
#     Edge 14, Type (0, 0), BuildingBlock: OJICUG_clean_linker_0, # of connection points: 2
#     Edge 15, Type (0, 0), BuildingBlock: OJICUG_clean_linker_0, # of connection points: 2
#     Edge 16, Type (0, 0), BuildingBlock: OJICUG_clean_linker_0, # of connection points: 2
#     Edge 17, Type (0, 0), BuildingBlock: OJICUG_clean_linker_0, # of connection points: 2
# Relax obj value: 0.000
# Max RMSD: 0.000
# Mean RMSD: 0.000
data_MOF--net-nbo--node1-NAWXER_clean_sbu_0--edge1-OJICUG_clean_linker_0
_symmetry_space_group_name_H-M    P1
_symmetry_Int_Tables_number       1
_symmetry_cell_setting            triclinic
loop_
_symmetry_equiv_pos_as_xyz
'x, y, z'
_cell_length_a     20.997113
_cell_length_b     21.042308
_cell_length_c     20.97032
_cell_angle_alpha  95.271859
_cell_angle_beta   95.23146
_cell_angle_gamma 95.119937
loop_
_atom_site_label
_atom_site_type_symbol
_atom_site_fract_x
_atom_site_fract_y
_atom_site_fract_z
_atom_type_partial_charge
C0 C 0.03207 0.12058 0.47563 0.0
C1 C 0.03872 0.88818 0.46883 0.0
O2 O 1.01639 0.08137 0.42553 0.0
Zn3 Zn 0.02196 1.00128 0.46558 0.0
O4 O 0.04119 0.09946 0.53069 0.0
Zn5 Zn 0.03925 1.01082 0.57076 0.0
O6 O 0.12817 1.01311 0.61067 0.0
O7 O 0.11879 1.01054 0.50439 0.0
O8 O 0.04031 0.91809 0.52477 0.0
O9 O 0.02537 0.9166 0.41869 0.0
O10 O 0.93745 0.98733 0.51112 0.0
O11 O 0.96129 1.00423 0.61632 0.0
C12 C 0.1538 1.01137 0.55757 0.0
C13 C 0.91971 0.98959 0.56789 0.0
C14 C 0.56373 0.15091 1.00525 0.0
C15 C 0.56506 0.91732 0.02132 0.0
O16 O 0.61521 0.12268 1.00741 0.0
Zn17 Zn 0.57417 0.03744 0.02356 0.0
O18 O 0.5114 0.12076 0.01739 0.0
Zn19 Zn 0.47074 0.02835 0.03083 0.0
O20 O 0.44299 0.03912 0.11673 0.0
O21 O 0.54881 0.0518 0.12045 0.0
O22 O 0.51099 0.9396 0.02743 0.0
O23 O 0.61463 0.95579 0.01722 0.0
O24 O 0.515 0.02449 0.93587 0.0
O25 O 0.4117 0.01842 0.95106 0.0
C26 C 0.49754 0.05108 0.1495 0.0
C27 C 0.45614 0.02021 0.9134 0.0
C28 C 0.12112 0.47995 0.99887 0.0
C29 C 0.88825 0.47692 0.02268 0.0
O30 O 0.08293 0.4296 1.00032 0.0
Zn31 Zn 1.00104 0.46931 0.99944 0.0
O32 O 0.09844 0.5343 0.99695 0.0
Zn33 Zn 1.00868 0.57343 0.9983 0.0
O34 O 1.01948 0.62794 0.08103 0.0
O35 O 1.01723 0.52363 0.08961 0.0
O36 O 0.91734 0.53056 1.01295 0.0
O37 O 0.9169 0.42599 0.01606 0.0
O38 O 0.98296 0.4999 0.90548 0.0
O39 O 0.99471 0.60573 0.91453 0.0
C40 C 1.02113 0.58117 0.11567 0.0
C41 C 0.98195 0.55267 0.8794 0.0
C42 C 0.54247 0.63917 0.99053 0.0
C43 C 0.5318 0.40397 0.94672 0.0
O44 O 0.54528 0.60785 0.93612 0.0
Zn45 Zn 0.52993 0.52064 0.96115 0.0
O46 O 0.53161 0.60853 0.03922 0.0
Zn47 Zn 0.51821 0.51122 0.06195 0.0
O48 O 0.5951 0.50278 0.12107 0.0
O49 O 0.61513 0.51438 0.02076 0.0
O50 O 0.52226 0.42485 1.00375 0.0
O51 O 0.53754 0.44247 0.90355 0.0
O52 O 0.43143 0.51019 0.98245 0.0
O53 O 0.43036 0.49884 0.08595 0.0
C54 C 0.63454 0.50556 0.07839 0.0
C55 C 0.39985 0.50116 0.03102 0.0
C56 C 0.07709 0.63032 0.49619 0.0
C57 C 0.05391 0.39616 0.48616 0.0
O58 O 0.12448 0.59763 0.5079 0.0
Zn59 Zn 0.07133 0.51537 0.50252 0.0
O60 O 1.0195 0.60389 0.49037 0.0
Zn61 Zn 0.96718 0.51299 0.48275 0.0
O62 O 0.91933 0.5182 0.55982 0.0
O63 O 0.02404 0.52717 0.58657 0.0
O64 O 1.00076 0.42092 0.47682 0.0
O65 O 0.10553 0.43234 0.50396 0.0
O66 O 0.03649 0.51644 0.4049 0.0
O67 O 0.93116 0.51961 0.3935 0.0
C68 C 0.96693 0.52728 0.60293 0.0
C69 C 0.98498 0.52197 0.3693 0.0
C70 C 0.64469 0.96859 0.55531 0.0
C71 C 0.40948 0.9588 0.52059 0.0
O72 O 0.60669 0.91844 0.5367 0.0
Zn73 Zn 0.5253 0.95714 0.5298 0.0
O74 O 0.62243 0.02327 0.5607 0.0
Zn75 Zn 0.53325 0.06176 0.54658 0.0
O76 O 0.5204 0.10001 0.63362 0.0
O77 O 0.51549 0.99429 0.62465 0.0
O78 O 0.43965 1.01475 0.52809 0.0
O79 O 0.43991 0.90881 0.51832 0.0
O80 O 0.52355 1.0034 0.44405 0.0
O81 O 0.53817 0.10826 0.46916 0.0
C82 C 0.51044 0.04705 0.65817 0.0
C83 C 0.52866 0.06016 0.42665 0.0
C84 C 1.00156 0.22129 0.43063 0.0
C85 C 0.04189 0.19049 0.47218 0.0
H86 H 0.97334 0.31124 0.40332 0.0
C87 C 0.08972 0.22764 0.51464 0.0
H88 H 0.96428 0.19375 0.39765 0.0
C89 C 0.09601 0.29453 0.51687 0.0
C90 C 0.05337 0.32559 0.47795 0.0
H91 H 0.12175 0.2049 0.54695 0.0
H92 H 0.13225 0.32196 0.55112 0.0
C93 C 1.00666 0.28838 0.43415 0.0
C94 C 0.81339 0.92839 0.53239 0.0
C95 C 0.85047 0.97649 0.57455 0.0
H96 H 0.71891 0.88682 0.49461 0.0
C97 C 0.81939 0.01684 0.61586 0.0
H98 H 0.83638 0.89669 0.49996 0.0
C99 C 0.7521 1.01223 0.61155 0.0
C100 C 0.71494 0.96606 0.56715 0.0
H101 H 0.84683 0.05458 0.64833 0.0
H102 H 0.72906 0.04625 0.64144 0.0
C103 C 0.74625 0.92259 0.52939 0.0
C104 C 0.04703 0.71195 0.42505 0.0
C105 C 0.08466 0.69644 0.47969 0.0
H106 H 1.0026 0.78567 0.37813 0.0
C107 C 0.11571 0.74538 0.52392 0.0
H108 H 0.02279 0.67436 0.39012 0.0
C109 C 0.10367 0.80865 0.51717 0.0
C110 C 0.06046 0.82355 0.46617 0.0
H111 H 0.1445 0.73441 0.56632 0.0
H112 H 0.12539 0.84563 0.5541 0.0
C113 C 0.03517 0.7753 0.4181 0.0
C114 C 0.31307 0.94025 0.57913 0.0
C115 C 0.34015 0.95722 0.52338 0.0
H116 H 0.23266 0.94611 0.6356 0.0
C117 C 0.30697 0.99412 0.4819 0.0
H118 H 0.33949 0.91435 0.61339 0.0
C119 C 0.24842 1.01477 0.49602 0.0
C120 C 0.22105 0.99874 0.55189 0.0
H121 H 0.32822 1.0101 0.44018 0.0
H122 H 0.2243 0.04346 0.46275 0.0
C123 C 0.25351 0.96063 0.59319 0.0
C124 C 0.4618 0.03597 0.32178 0.0
C125 C 0.51769 0.06735 0.35714 0.0
H126 H 0.41087 1.00762 0.22879 0.0
C127 C 0.5651 0.09758 0.32417 0.0
H128 H 0.42474 1.01188 0.34621 0.0
C129 C 0.55798 0.09363 0.25657 0.0
C130 C 0.50264 0.0607 0.22101 0.0
H131 H 0.60894 0.12132 0.35034 0.0
H132 H 0.59632 0.11531 0.23207 0.0
C133 C 0.45389 0.03349 0.25458 0.0
C134 C 0.06624 0.5635 0.22305 0.0
C135 C 1.01748 0.5876 0.18526 0.0
H136 H 0.0933 0.52145 0.30846 0.0
C137 C 0.95708 0.59164 0.20871 0.0
H138 H 0.11226 0.55737 0.20489 0.0
C139 C 0.94505 0.56927 0.26802 0.0
C140 C 0.99329 0.54218 0.30437 0.0
H141 H 0.9179 0.60775 0.17911 0.0
H142 H 0.89802 0.57224 0.28479 0.0
C143 C 0.05441 0.54111 0.28164 0.0
C144 C 0.46471 0.98155 0.73968 0.0
C145 C 0.48549 0.04258 0.72177 0.0
H146 H 0.43539 0.92669 0.815 0.0
C147 C 0.48057 0.09688 0.76436 0.0
H148 H 0.46617 0.93842 0.70762 0.0
C149 C 0.46064 0.08963 0.82553 0.0
C150 C 0.44497 0.02823 0.84484 0.0
H151 H 0.49501 0.14446 0.75178 0.0
H152 H 0.46289 0.1317 0.85978 0.0
C153 C 0.44507 0.9745 0.80062 0.0
C154 C 0.92796 0.49192 0.70466 0.0
C155 C 0.95909 0.53909 0.67218 0.0
H156 H 0.91155 0.4589 0.79622 0.0
C157 C 0.9928 0.59343 0.70814 0.0
H158 H 0.9027 0.4491 0.67801 0.0
C159 C 0.997 0.59974 0.77549 0.0
C160 C 0.96932 0.55074 0.80834 0.0
H161 H 1.01793 0.63004 0.68405 0.0
H162 H 0.02499 0.64124 0.80182 0.0
C163 C 0.93363 0.49735 0.77221 0.0
C164 C 0.2247 0.44683 0.05011 0.0
C165 C 0.19195 0.47864 1.00298 0.0
H166 H 0.31632 0.43054 0.09747 0.0
C167 C 0.22805 0.51668 0.96486 0.0
H168 H 0.19804 0.41816 0.08096 0.0
C169 C 0.29532 0.52289 0.97345 0.0
C170 C 0.32831 0.49301 0.02194 0.0
H171 H 0.20408 0.54232 0.92867 0.0
H172 H 0.32154 0.55265 0.94317 0.0
C173 C 0.29227 0.45465 0.0601 0.0
C174 C 0.60333 0.31634 0.9488 0.0
C175 C 0.54113 0.33568 0.93695 0.0
H176 H 0.6603 0.24276 0.98084 0.0
C177 C 0.48807 0.2922 0.94203 0.0
H178 H 0.64509 0.35005 0.94703 0.0
C179 C 0.49654 0.23248 0.96313 0.0
C180 C 0.55851 0.21413 0.97966 0.0
H181 H 0.4398 0.30657 0.93516 0.0
H182 H 0.45372 0.20152 0.96852 0.0
C183 C 0.61206 0.25567 0.96964 0.0
C184 C 0.78114 0.42514 0.0491 0.0
C185 C 0.82543 0.47928 0.04979 0.0
H186 H 0.68396 0.39112 0.06193 0.0
C187 C 0.80911 0.53912 0.07635 0.0
H188 H 0.79244 0.37839 0.02988 0.0
C189 C 0.74824 0.54597 0.09589 0.0
C190 C 0.70205 0.49326 0.08965 0.0
H191 H 0.84237 0.58191 0.07914 0.0
H192 H 0.73542 0.59364 0.11012 0.0
C193 C 0.71961 0.43227 0.06858 0.0
C194 C 0.58817 0.74606 0.95892 0.0
C195 C 0.55152 0.71059 0.99899 0.0
H196 H 0.62352 0.83981 0.93606 0.0
C197 C 0.52394 0.74406 0.04893 0.0
H198 H 0.61051 0.72166 0.92037 0.0
C199 C 0.53065 0.81111 0.05721 0.0
C200 C 0.56674 0.84669 0.01709 0.0
H201 H 0.49552 0.7184 0.08074 0.0
H202 H 0.50675 0.83536 0.09471 0.0
C203 C 0.59638 0.81356 0.96841 0.0
loop_
_geom_bond_atom_site_label_1
_geom_bond_atom_site_label_2
_geom_bond_distance
_geom_bond_site_symmetry_2
_ccdc_geom_bond_type
C0 O2 1.247 1_455 S
C0 O4 1.258 . S
C1 O8 1.247 1_655 S
C1 O9 1.258 . S
O2 C0 1.247 1_655 S
O2 Zn3 2.028 1_545 S
Zn3 O2 2.028 1_565 S
Zn3 O7 2.035 1_655 S
Zn3 O9 2.035 . S
Zn3 O10 2.028 . S
O4 C0 1.258 . S
O4 Zn5 2.035 . S
Zn5 O4 2.035 . S
Zn5 O6 2.028 . S
Zn5 O8 2.028 1_545 S
Zn5 O11 2.035 1_455 S
O6 Zn5 2.028 . S
O6 C12 1.247 . S
O7 Zn3 2.035 1_455 S
O7 C12 1.258 1_565 S
O8 C1 1.247 1_455 S
O8 Zn5 2.028 1_565 S
O9 C1 1.258 . S
O9 Zn3 2.035 . S
O10 Zn3 2.028 . S
O10 C13 1.247 . S
O11 Zn5 2.035 1_655 S
O11 C13 1.258 1_545 S
C12 O6 1.247 . S
C12 O7 1.258 1_545 S
C13 O10 1.247 . S
C13 O11 1.258 1_565 S
C14 O16 1.247 . S
C14 O18 1.258 1_554 S
C15 O22 1.247 . S
C15 O23 1.258 1_556 S
O16 C14 1.247 . S
O16 Zn17 2.028 . S
Zn17 O16 2.028 . S
Zn17 O21 2.035 . S
Zn17 O23 2.035 1_545 S
Zn17 O24 2.028 1_554 S
O18 C14 1.258 1_556 S
O18 Zn19 2.035 1_545 S
Zn19 O18 2.035 1_565 S
Zn19 O20 2.028 1_556 S
Zn19 O22 2.028 . S
Zn19 O25 2.035 . S
O20 Zn19 2.028 1_554 S
O20 C26 1.247 1_565 S
O21 Zn17 2.035 . S
O21 C26 1.258 . S
O22 C15 1.247 . S
O22 Zn19 2.028 . S
O23 C15 1.258 1_554 S
O23 Zn17 2.035 1_565 S
O24 Zn17 2.028 1_556 S
O24 C27 1.247 1_545 S
O25 Zn19 2.035 . S
O25 C27 1.258 . S
C26 O20 1.247 1_545 S
C26 O21 1.258 . S
C27 O24 1.247 1_565 S
C27 O25 1.258 . S
C28 O30 1.247 1_554 S
C28 O32 1.258 . S
C29 O36 1.247 1_556 S
C29 O37 1.258 . S
O30 C28 1.247 1_556 S
O30 Zn31 2.028 1_455 S
Zn31 O30 2.028 1_655 S
Zn31 O35 2.035 1_556 S
Zn31 O37 2.035 . S
Zn31 O38 2.028 . S
O32 C28 1.258 . S
O32 Zn33 2.035 . S
Zn33 O32 2.035 . S
Zn33 O34 2.028 . S
Zn33 O36 2.028 1_455 S
Zn33 O39 2.035 1_554 S
O34 Zn33 2.028 . S
O34 C40 1.247 . S
O35 Zn31 2.035 1_554 S
O35 C40 1.258 1_655 S
O36 C29 1.247 1_554 S
O36 Zn33 2.028 1_655 S
O37 C29 1.258 . S
O37 Zn31 2.035 . S
O38 Zn31 2.028 . S
O38 C41 1.247 . S
O39 Zn33 2.035 1_556 S
O39 C41 1.258 1_455 S
C40 O34 1.247 . S
C40 O35 1.258 1_455 S
C41 O38 1.247 . S
C41 O39 1.258 1_655 S
C42 O44 1.247 . S
C42 O46 1.258 1_556 S
C43 O50 1.251 . S
C43 O51 1.254 1_554 S
O44 C42 1.247 . S
O44 Zn45 2.028 . S
Zn45 O44 2.028 . S
Zn45 O49 2.035 . S
Zn45 O51 2.035 . S
Zn45 O52 2.028 . S
O46 C42 1.258 1_554 S
O46 Zn47 2.035 . S
Zn47 O46 2.035 . S
Zn47 O48 2.028 . S
Zn47 O50 2.028 . S
Zn47 O53 2.035 . S
O48 Zn47 2.028 . S
O48 C54 1.251 . S
O49 Zn45 2.035 . S
O49 C54 1.254 1_556 S
O50 C43 1.251 . S
O50 Zn47 2.028 . S
O51 C43 1.254 1_556 S
O51 Zn45 2.035 . S
O52 Zn45 2.028 . S
O52 C55 1.247 . S
O53 Zn47 2.035 . S
O53 C55 1.258 1_554 S
C54 O48 1.251 . S
C54 O49 1.254 1_554 S
C55 O52 1.247 . S
C55 O53 1.258 1_556 S
C56 O58 1.251 . S
C56 O60 1.254 1_455 S
C57 O64 1.247 . S
C57 O65 1.258 1_655 S
O58 C56 1.251 . S
O58 Zn59 2.028 . S
Zn59 O58 2.028 . S
Zn59 O63 2.035 . S
Zn59 O65 2.035 . S
Zn59 O66 2.028 . S
O60 C56 1.254 1_655 S
O60 Zn61 2.035 . S
Zn61 O60 2.035 . S
Zn61 O62 2.028 . S
Zn61 O64 2.028 . S
Zn61 O67 2.035 . S
O62 Zn61 2.028 . S
O62 C68 1.247 . S
O63 Zn59 2.035 . S
O63 C68 1.258 1_455 S
O64 C57 1.247 . S
O64 Zn61 2.028 . S
O65 C57 1.258 1_455 S
O65 Zn59 2.035 . S
O66 Zn59 2.028 . S
O66 C69 1.251 . S
O67 Zn61 2.035 . S
O67 C69 1.254 1_655 S
C68 O62 1.247 . S
C68 O63 1.258 1_655 S
C69 O66 1.251 . S
C69 O67 1.254 1_455 S
C70 O72 1.247 . S
C70 O74 1.258 1_565 S
C71 O78 1.251 . S
C71 O79 1.254 1_545 S
O72 C70 1.247 . S
O72 Zn73 2.028 . S
Zn73 O72 2.028 . S
Zn73 O77 2.035 . S
Zn73 O79 2.035 . S
Zn73 O80 2.028 . S
O74 C70 1.258 1_545 S
O74 Zn75 2.035 . S
Zn75 O74 2.035 . S
Zn75 O76 2.028 . S
Zn75 O78 2.028 . S
Zn75 O81 2.035 . S
O76 Zn75 2.028 . S
O76 C82 1.251 . S
O77 Zn73 2.035 . S
O77 C82 1.254 1_565 S
O78 C71 1.251 . S
O78 Zn75 2.028 . S
O79 C71 1.254 1_565 S
O79 Zn73 2.035 . S
O80 Zn73 2.028 . S
O80 C83 1.247 . S
O81 Zn75 2.035 . S
O81 C83 1.258 1_545 S
C82 O76 1.251 . S
C82 O77 1.254 1_545 S
C83 O80 1.247 . S
C83 O81 1.258 1_565 S
C84 C85 1.386 1_655 S
C84 H88 0.950 . S
C84 C93 1.390 . S
C85 C84 1.386 1_455 S
C85 C87 1.389 . S
H86 C93 0.950 . S
C87 C85 1.389 . S
C87 C89 1.390 . S
C87 H91 0.950 . S
H88 C84 0.950 . S
C89 C87 1.390 . S
C89 C90 1.386 . S
C89 H92 0.950 . S
C90 C89 1.386 . S
C90 C93 1.389 1_455 S
H91 C87 0.950 . S
H92 C89 0.950 . S
C93 C84 1.390 . S
C93 H86 0.950 . S
C93 C90 1.389 1_655 S
C94 C95 1.390 . S
C94 H98 0.950 . S
C94 C103 1.390 . S
C95 C94 1.390 . S
C95 C97 1.386 1_545 S
H96 C103 0.950 . S
C97 C95 1.386 1_565 S
C97 C99 1.390 . S
C97 H101 0.950 . S
H98 C94 0.950 . S
C99 C97 1.390 . S
C99 C100 1.388 . S
C99 H102 0.950 . S
C100 C99 1.388 . S
C100 C103 1.387 1_565 S
H101 C97 0.950 . S
H102 C99 0.950 . S
C103 C94 1.390 . S
C103 H96 0.950 . S
C103 C100 1.387 1_545 S
C104 C105 1.387 1_655 S
C104 H108 0.950 . S
C104 C113 1.390 . S
C105 C104 1.387 1_455 S
C105 C107 1.388 . S
H106 C113 0.950 . S
C107 C105 1.388 . S
C107 C109 1.390 . S
C107 H111 0.950 . S
H108 C104 0.950 . S
C109 C107 1.390 . S
C109 C110 1.387 1_455 S
C109 H112 0.950 . S
C110 C109 1.387 1_655 S
C110 C113 1.387 . S
H111 C107 0.950 . S
H112 C109 0.950 . S
C113 C104 1.390 . S
C113 H106 0.950 . S
C113 C110 1.387 . S
C114 C115 1.388 . S
C114 H118 0.950 . S
C114 C123 1.390 . S
C115 C114 1.388 . S
C115 C117 1.387 1_565 S
H116 C123 0.950 . S
C117 C115 1.387 1_545 S
C117 C119 1.390 . S
C117 H121 0.950 . S
H118 C114 0.950 . S
C119 C117 1.390 . S
C119 C120 1.390 . S
C119 H122 0.950 . S
C120 C119 1.390 . S
C120 C123 1.384 1_545 S
H121 C117 0.950 . S
H122 C119 0.950 . S
C123 C114 1.390 . S
C123 H116 0.950 . S
C123 C120 1.384 1_565 S
C124 C125 1.387 1_565 S
C124 H128 0.950 . S
C124 C133 1.390 . S
C125 C124 1.387 1_545 S
C125 C127 1.388 . S
H126 C133 0.950 . S
C127 C125 1.388 . S
C127 C129 1.390 . S
C127 H131 0.950 . S
H128 C124 0.950 . S
C129 C127 1.390 . S
C129 C130 1.387 . S
C129 H132 0.950 . S
C130 C129 1.387 . S
C130 C133 1.388 1_545 S
H131 C127 0.950 . S
H132 C129 0.950 . S
C133 C124 1.390 . S
C133 H126 0.950 . S
C133 C130 1.388 1_565 S
C134 C135 1.387 1_455 S
C134 H138 0.950 . S
C134 C143 1.390 . S
C135 C134 1.387 1_655 S
C135 C137 1.388 . S
H136 C143 0.950 . S
C137 C135 1.388 . S
C137 C139 1.390 . S
C137 H141 0.950 . S
H138 C134 0.950 . S
C139 C137 1.390 . S
C139 C140 1.385 1_655 S
C139 H142 0.950 . S
C140 C139 1.385 1_455 S
C140 C143 1.391 . S
H141 C137 0.950 . S
H142 C139 0.950 . S
C143 C134 1.390 . S
C143 H136 0.950 . S
C143 C140 1.391 . S
C144 C145 1.387 . S
C144 H148 0.950 . S
C144 C153 1.390 . S
C145 C144 1.387 . S
C145 C147 1.388 1_565 S
H146 C153 0.950 . S
C147 C145 1.388 1_545 S
C147 C149 1.390 . S
C147 H151 0.950 . S
H148 C144 0.950 . S
C149 C147 1.390 . S
C149 C150 1.390 . S
C149 H152 0.950 . S
C150 C149 1.390 . S
C150 C153 1.385 1_545 S
H151 C147 0.950 . S
H152 C149 0.950 . S
C153 C144 1.390 . S
C153 H146 0.950 . S
C153 C150 1.385 1_565 S
C154 C155 1.387 1_455 S
C154 H158 0.950 . S
C154 C163 1.391 . S
C155 C154 1.387 1_655 S
C155 C157 1.386 . S
H156 C163 0.951 . S
C157 C155 1.386 . S
C157 C159 1.391 . S
C157 H161 0.950 . S
H158 C154 0.950 . S
C159 C157 1.391 . S
C159 C160 1.387 1_655 S
C159 H162 0.949 1_655 S
C160 C159 1.387 1_455 S
C160 C163 1.386 . S
H161 C157 0.950 . S
H162 C159 0.949 1_455 S
C163 C154 1.391 . S
C163 H156 0.951 . S
C163 C160 1.386 . S
C164 C165 1.390 . S
C164 H168 0.950 . S
C164 C173 1.390 . S
C165 C164 1.390 . S
C165 C167 1.384 1_554 S
H166 C173 0.950 . S
C167 C165 1.384 1_556 S
C167 C169 1.390 . S
C167 H171 0.950 . S
H168 C164 0.950 . S
C169 C167 1.390 . S
C169 C170 1.388 . S
C169 H172 0.950 . S
C170 C169 1.388 . S
C170 C173 1.387 1_556 S
H171 C167 0.950 . S
H172 C169 0.950 . S
C173 C164 1.390 . S
C173 H166 0.950 . S
C173 C170 1.387 1_554 S
C174 C175 1.387 . S
C174 H178 0.950 . S
C174 C183 1.390 . S
C175 C174 1.387 . S
C175 C177 1.389 1_556 S
H176 C183 0.950 . S
C177 C175 1.389 1_554 S
C177 C179 1.390 . S
C177 H181 0.950 . S
H178 C174 0.950 . S
C179 C177 1.390 . S
C179 C180 1.390 . S
C179 H182 0.950 . S
C180 C179 1.390 . S
C180 C183 1.385 1_554 S
H181 C177 0.950 . S
H182 C179 0.950 . S
C183 C174 1.390 . S
C183 H176 0.950 . S
C183 C180 1.385 1_556 S
C184 C185 1.387 1_554 S
C184 H188 0.950 . S
C184 C193 1.390 . S
C185 C184 1.387 1_556 S
C185 C187 1.388 . S
H186 C193 0.950 . S
C187 C185 1.388 . S
C187 C189 1.390 . S
C187 H191 0.950 . S
H188 C184 0.950 . S
C189 C187 1.390 . S
C189 C190 1.385 1_556 S
C189 H192 0.950 . S
C190 C189 1.385 1_554 S
C190 C193 1.389 . S
H191 C187 0.950 . S
H192 C189 0.950 . S
C193 C184 1.390 . S
C193 H186 0.950 . S
C193 C190 1.389 . S
C194 C195 1.385 1_556 S
C194 H198 0.950 . S
C194 C203 1.390 . S
C195 C194 1.385 1_554 S
C195 C197 1.389 . S
H196 C203 0.950 . S
C197 C195 1.389 . S
C197 C199 1.390 . S
C197 H201 0.950 . S
H198 C194 0.950 . S
C199 C197 1.390 . S
C199 C200 1.389 1_554 S
C199 H202 0.950 . S
C200 C199 1.389 1_556 S
C200 C203 1.386 . S
H201 C197 0.950 . S
H202 C199 0.950 . S
C203 C194 1.390 . S
C203 H196 0.950 . S
C203 C200 1.386 . S
C85 C0 1.499 . S
C90 C57 1.497 1_455 S
C95 C13 1.498 1_545 S
C100 C70 1.501 . S
C105 C56 1.499 . S
C110 C1 1.501 . S
C115 C71 1.499 1_565 S
C120 C12 1.497 . S
C125 C83 1.499 1_545 S
C130 C26 1.496 . S
C135 C40 1.499 1_655 S
C140 C69 1.496 . S
C145 C82 1.498 1_565 S
C150 C27 1.500 1_545 S
C155 C68 1.498 . S
C160 C41 1.500 1_455 S
C165 C28 1.499 . S
C170 C55 1.496 . S
C175 C43 1.499 1_556 S
C180 C14 1.497 . S
C185 C29 1.498 . S
C190 C54 1.501 . S
C195 C42 1.499 1_554 S
C200 C15 1.500 . S
