# Generated by pormake.
# Topology bnn, (5)-cn, num edge types: 1
# Building blocks:
#     Node 0, Type 0, BuildingBlock: BEQFEK_clean_sbu_0, # of connection points: 5
#     Node 1, Type 0, BuildingBlock: BEQFEK_clean_sbu_0, # of connection points: 5
#     Edge 2, Type (0, 0), BuildingBlock: OJICUG_clean_linker_0, # of connection points: 2
#     Edge 3, Type (0, 0), BuildingBlock: OJICUG_clean_linker_0, # of connection points: 2
#     Edge 4, Type (0, 0), BuildingBlock: OJICUG_clean_linker_0, # of connection points: 2
#     Edge 5, Type (0, 0), BuildingBlock: OJICUG_clean_linker_0, # of connection points: 2
#     Edge 6, Type (0, 0), BuildingBlock: OJICUG_clean_linker_0, # of connection points: 2
# Relax obj value: 0.093
# Max RMSD: 0.192
# Mean RMSD: 0.179
data_MOF--net-bnn--node1-BEQFEK_clean_sbu_0--edge1-OJICUG_clean_linker_0
_symmetry_space_group_name_H-M    P1
_symmetry_Int_Tables_number       1
_symmetry_cell_setting            triclinic
loop_
_symmetry_equiv_pos_as_xyz
'x, y, z'
_cell_length_a     19.061194
_cell_length_b     19.714824
_cell_length_c     15.646834
_cell_angle_alpha  91.257374
_cell_angle_beta   86.457786
_cell_angle_gamma 111.04148
loop_
_atom_site_label
_atom_site_type_symbol
_atom_site_fract_x
_atom_site_fract_y
_atom_site_fract_z
_atom_type_partial_charge
Co0 Co 0.34264 0.6881 0.11676 0.0
Co1 Co 0.35164 0.68172 0.91599 0.0
C2 C 0.41669 0.82249 0.01158 0.0
O3 O 0.39465 0.79107 0.08383 0.0
O4 O 0.40489 0.78703 0.94141 0.0
C5 C 0.31706 0.72512 0.29736 0.0
O6 O 0.31109 0.78573 0.27174 0.0
C7 C 0.33352 0.70292 0.73053 0.0
C8 C 0.34136 0.60039 0.67942 0.0
C9 C 0.33231 0.66371 0.65475 0.0
N10 N 0.34259 0.66384 0.79582 0.0
N11 N 0.34728 0.60282 0.7644 0.0
C12 C 0.32948 0.77702 0.74113 0.0
H13 H 0.34793 0.79998 0.80461 0.0
H14 H 0.27033 0.77317 0.73641 0.0
H15 H 0.36505 0.81393 0.69006 0.0
C16 C 0.1797 0.61502 0.0898 0.0
N17 N 0.2517 0.6476 0.06019 0.0
N18 N 0.25545 0.64339 0.97605 0.0
C19 C 0.18605 0.60629 0.94947 0.0
C20 C 0.13543 0.58716 0.02071 0.0
C21 C 0.15433 0.61228 0.18251 0.0
H22 H 0.18189 0.66623 0.21199 0.0
H23 H 0.09241 0.59713 0.19148 0.0
H24 H 0.17175 0.57226 0.21578 0.0
O25 O 0.40812 0.63047 0.09013 0.0
O26 O 0.41378 0.62693 0.94865 0.0
H27 H 0.11253 0.54423 0.85173 0.0
H28 H 0.1819 0.63083 0.81779 0.0
C29 C 0.17084 0.58244 0.85873 0.0
H30 H 0.20946 0.55448 0.83575 0.0
H31 H 0.35462 0.56262 0.8012 0.0
O32 O 0.32639 0.6801 0.24259 0.0
C33 C 0.43131 0.6099 0.0199 0.0
Co34 Co 0.6747 0.33471 0.11819 0.0
Co35 Co 0.68438 0.33925 0.9168 0.0
C36 C 0.60194 0.41904 0.01744 0.0
O37 O 0.61786 0.39791 0.08784 0.0
O38 O 0.62344 0.3996 0.94531 0.0
C39 C 0.65583 0.36258 0.29788 0.0
O40 O 0.65712 0.42575 0.27114 0.0
C41 C 0.65994 0.34012 0.73095 0.0
C42 C 0.74023 0.29009 0.67834 0.0
C43 C 0.68805 0.31917 0.6548 0.0
N44 N 0.69445 0.32439 0.79615 0.0
N45 N 0.74232 0.29457 0.76406 0.0
C46 C 0.598 0.36987 0.74255 0.0
H47 H 0.56312 0.3477 0.80197 0.0
H48 H 0.56164 0.35612 0.68726 0.0
H49 H 0.62302 0.42985 0.74883 0.0
C50 C 0.60792 0.17663 0.08366 0.0
N51 N 0.64063 0.24597 0.05698 0.0
N52 N 0.64049 0.24797 0.97308 0.0
C53 C 0.60476 0.18018 0.94377 0.0
C54 C 0.58326 0.13225 0.01282 0.0
C55 C 0.60316 0.15381 0.17512 0.0
H56 H 0.65562 0.18642 0.2059 0.0
H57 H 0.55542 0.16405 0.20993 0.0
H58 H 0.59496 0.0954 0.18033 0.0
O59 O 0.78336 0.38671 0.09323 0.0
O60 O 0.78827 0.39405 0.95148 0.0
H61 H 0.63226 0.15673 0.81475 0.0
H62 H 0.53418 0.11265 0.84828 0.0
C63 C 0.58408 0.1633 0.85288 0.0
H64 H 0.57127 0.20852 0.82525 0.0
H65 H 0.77641 0.27713 0.80094 0.0
O66 O 0.6606 0.31557 0.24318 0.0
C67 C 0.82009 0.40828 0.02225 0.0
C68 C 0.49439 0.53921 0.09758 0.0
C69 C 0.47682 0.56281 0.0203 0.0
H70 H 0.54743 0.47509 0.15754 0.0
C71 C 0.50108 0.53899 0.94253 0.0
H72 H 0.4764 0.55639 0.15861 0.0
C73 C 0.54145 0.49237 0.9419 0.0
C74 C 0.55868 0.46828 0.019 0.0
H75 H 0.48851 0.55592 0.88172 0.0
H76 H 0.55896 0.47516 0.88066 0.0
C77 C 0.53492 0.49241 0.09694 0.0
C78 C 0.94684 0.44124 0.08173 0.0
C79 C 0.90064 0.45362 0.02214 0.0
H80 H 0.05829 0.47216 0.12567 0.0
C81 C 0.93156 0.511 0.96343 0.0
H82 H 0.92421 0.39721 0.12755 0.0
C83 C 0.00733 0.55562 0.9647 0.0
C84 C 0.05417 0.54215 0.02266 0.0
H85 H 0.89676 0.52231 0.91769 0.0
H86 H 0.02939 0.60062 0.92012 0.0
C87 C 0.02324 0.48447 0.08112 0.0
C88 C 0.44175 0.94607 0.07388 0.0
C89 C 0.45776 0.90181 0.00988 0.0
H90 H 0.46639 0.05386 0.1226 0.0
C91 C 0.51461 0.93378 0.94608 0.0
H92 H 0.39768 0.92288 0.12338 0.0
C93 C 0.556 0.00848 0.94762 0.0
C94 C 0.53987 0.05286 0.01152 0.0
H95 H 0.52848 0.90075 0.89642 0.0
H96 H 0.60122 0.03133 0.89933 0.0
C97 C 0.48161 0.02095 0.07391 0.0
C98 C 0.29499 0.73217 0.54024 0.0
C99 C 0.32791 0.68234 0.56405 0.0
H100 H 0.26618 0.78553 0.43688 0.0
C101 C 0.35558 0.64663 0.49901 0.0
H102 H 0.27025 0.75876 0.58756 0.0
C103 C 0.351 0.66027 0.41311 0.0
C104 C 0.31933 0.7107 0.38925 0.0
H105 H 0.38139 0.60791 0.51418 0.0
H106 H 0.37346 0.63175 0.36528 0.0
C107 C 0.2916 0.74687 0.45354 0.0
C108 C 0.66351 0.28433 0.41822 0.0
C109 C 0.65624 0.34871 0.39049 0.0
H110 H 0.67887 0.22475 0.52375 0.0
C111 C 0.65406 0.40136 0.45169 0.0
H112 H 0.66531 0.24257 0.3729 0.0
C113 C 0.66155 0.39088 0.53835 0.0
C114 C 0.67114 0.32746 0.56545 0.0
H115 H 0.64878 0.45167 0.43245 0.0
H116 H 0.66317 0.43386 0.5833 0.0
C117 C 0.67136 0.27409 0.50463 0.0
loop_
_geom_bond_atom_site_label_1
_geom_bond_atom_site_label_2
_geom_bond_distance
_geom_bond_site_symmetry_2
_ccdc_geom_bond_type
Co0 O3 1.970 . S
Co0 N17 1.989 . S
Co0 O25 1.967 . S
Co0 O32 1.920 . S
Co1 O4 1.966 . S
Co1 N10 2.022 . S
Co1 N18 1.993 . S
Co1 O26 1.941 . S
C2 O3 1.258 . S
C2 O4 1.263 1_554 S
O3 Co0 1.970 . S
O3 C2 1.258 . S
O4 Co1 1.966 . S
O4 C2 1.263 1_556 S
C5 O6 1.235 . S
C5 O32 1.289 . S
O6 C5 1.235 . S
C7 C9 1.400 . S
C7 N10 1.351 . S
C7 C12 1.501 . S
C8 C9 1.387 . S
C8 N11 1.341 . S
C9 C7 1.400 . S
C9 C8 1.387 . S
N10 Co1 2.022 . S
N10 C7 1.351 . S
N10 N11 1.365 . S
N11 C8 1.341 . S
N11 N10 1.365 . S
N11 H31 0.862 . S
C12 C7 1.501 . S
C12 H13 0.961 . S
C12 H14 0.961 . S
C12 H15 0.960 . S
H13 C12 0.961 . S
H14 C12 0.961 . S
H15 C12 0.960 . S
C16 N17 1.342 . S
C16 C20 1.401 . S
C16 C21 1.499 . S
N17 Co0 1.989 . S
N17 C16 1.342 . S
N17 N18 1.388 1_554 S
N18 Co1 1.993 . S
N18 N17 1.388 1_556 S
N18 C19 1.346 . S
C19 N18 1.346 . S
C19 C20 1.396 1_556 S
C19 C29 1.510 . S
C20 C16 1.401 . S
C20 C19 1.396 1_554 S
C21 C16 1.499 . S
C21 H22 0.959 . S
C21 H23 0.960 . S
C21 H24 0.961 . S
H22 C21 0.959 . S
H23 C21 0.960 . S
H24 C21 0.961 . S
O25 Co0 1.967 . S
O25 C33 1.258 . S
O26 Co1 1.941 . S
O26 C33 1.266 1_556 S
H27 C29 0.959 . S
H28 C29 0.961 . S
C29 C19 1.510 . S
C29 H27 0.959 . S
C29 H28 0.961 . S
C29 H30 0.960 . S
H30 C29 0.960 . S
H31 N11 0.862 . S
O32 Co0 1.920 . S
O32 C5 1.289 . S
C33 O25 1.258 . S
C33 O26 1.266 1_554 S
Co34 O37 1.970 . S
Co34 N51 1.989 . S
Co34 O59 1.967 . S
Co34 O66 1.920 . S
Co35 O38 1.966 . S
Co35 N44 2.022 . S
Co35 N52 1.993 . S
Co35 O60 1.941 . S
C36 O37 1.258 . S
C36 O38 1.263 1_554 S
O37 Co34 1.970 . S
O37 C36 1.258 . S
O38 Co35 1.966 . S
O38 C36 1.263 1_556 S
C39 O40 1.235 . S
C39 O66 1.289 . S
O40 C39 1.235 . S
C41 C43 1.400 . S
C41 N44 1.351 . S
C41 C46 1.501 . S
C42 C43 1.387 . S
C42 N45 1.341 . S
C43 C41 1.400 . S
C43 C42 1.387 . S
N44 Co35 2.022 . S
N44 C41 1.351 . S
N44 N45 1.365 . S
N45 C42 1.341 . S
N45 N44 1.365 . S
N45 H65 0.862 . S
C46 C41 1.501 . S
C46 H47 0.961 . S
C46 H48 0.961 . S
C46 H49 0.960 . S
H47 C46 0.961 . S
H48 C46 0.961 . S
H49 C46 0.960 . S
C50 N51 1.342 . S
C50 C54 1.401 . S
C50 C55 1.499 . S
N51 Co34 1.989 . S
N51 C50 1.342 . S
N51 N52 1.388 1_554 S
N52 Co35 1.993 . S
N52 N51 1.388 1_556 S
N52 C53 1.346 . S
C53 N52 1.346 . S
C53 C54 1.396 1_556 S
C53 C63 1.510 . S
C54 C50 1.401 . S
C54 C53 1.396 1_554 S
C55 C50 1.499 . S
C55 H56 0.959 . S
C55 H57 0.960 . S
C55 H58 0.961 . S
H56 C55 0.959 . S
H57 C55 0.960 . S
H58 C55 0.961 . S
O59 Co34 1.967 . S
O59 C67 1.258 . S
O60 Co35 1.941 . S
O60 C67 1.266 1_556 S
H61 C63 0.959 . S
H62 C63 0.961 . S
C63 C53 1.510 . S
C63 H61 0.959 . S
C63 H62 0.961 . S
C63 H64 0.960 . S
H64 C63 0.960 . S
H65 N45 0.862 . S
O66 Co34 1.920 . S
O66 C39 1.289 . S
C67 O59 1.258 . S
C67 O60 1.266 1_554 S
C68 C69 1.387 . S
C68 H72 0.950 . S
C68 C77 1.390 . S
C69 C68 1.387 . S
C69 C71 1.387 1_554 S
H70 C77 0.950 . S
C71 C69 1.387 1_556 S
C71 C73 1.390 . S
C71 H75 0.950 . S
H72 C68 0.950 . S
C73 C71 1.390 . S
C73 C74 1.387 1_556 S
C73 H76 0.950 . S
C74 C73 1.387 1_554 S
C74 C77 1.387 . S
H75 C71 0.950 . S
H76 C73 0.950 . S
C77 C68 1.390 . S
C77 H70 0.950 . S
C77 C74 1.387 . S
C78 C79 1.387 . S
C78 H82 0.950 . S
C78 C87 1.390 1_655 S
C79 C78 1.387 . S
C79 C81 1.387 1_554 S
H80 C87 0.950 . S
C81 C79 1.387 1_556 S
C81 C83 1.390 1_655 S
C81 H85 0.950 . S
H82 C78 0.950 . S
C83 C81 1.390 1_455 S
C83 C84 1.387 1_556 S
C83 H86 0.950 . S
C84 C83 1.387 1_554 S
C84 C87 1.387 . S
H85 C81 0.950 . S
H86 C83 0.950 . S
C87 C78 1.390 1_455 S
C87 H80 0.950 . S
C87 C84 1.387 . S
C88 C89 1.387 . S
C88 H92 0.950 . S
C88 C97 1.390 1_565 S
C89 C88 1.387 . S
C89 C91 1.387 1_554 S
H90 C97 0.950 . S
C91 C89 1.387 1_556 S
C91 C93 1.390 1_565 S
C91 H95 0.950 . S
H92 C88 0.950 . S
C93 C91 1.390 1_545 S
C93 C94 1.387 1_556 S
C93 H96 0.950 . S
C94 C93 1.387 1_554 S
C94 C97 1.387 . S
H95 C91 0.950 . S
H96 C93 0.950 . S
C97 C88 1.390 1_545 S
C97 H90 0.950 . S
C97 C94 1.387 . S
C98 C99 1.387 . S
C98 H102 0.950 . S
C98 C107 1.390 . S
C99 C98 1.387 . S
C99 C101 1.387 . S
H100 C107 0.950 . S
C101 C99 1.387 . S
C101 C103 1.390 . S
C101 H105 0.950 . S
H102 C98 0.950 . S
C103 C101 1.390 . S
C103 C104 1.387 . S
C103 H106 0.950 . S
C104 C103 1.387 . S
C104 C107 1.387 . S
H105 C101 0.950 . S
H106 C103 0.950 . S
C107 C98 1.390 . S
C107 H100 0.950 . S
C107 C104 1.387 . S
C108 C109 1.387 . S
C108 H112 0.950 . S
C108 C117 1.390 . S
C109 C108 1.387 . S
C109 C111 1.387 . S
H110 C117 0.950 . S
C111 C109 1.387 . S
C111 C113 1.390 . S
C111 H115 0.950 . S
H112 C108 0.950 . S
C113 C111 1.390 . S
C113 C114 1.387 . S
C113 H116 0.950 . S
C114 C113 1.387 . S
C114 C117 1.387 . S
H115 C111 0.950 . S
H116 C113 0.950 . S
C117 C108 1.390 . S
C117 H110 0.950 . S
C117 C114 1.387 . S
C69 C33 1.570 . S
C74 C36 1.568 . S
C79 C67 1.468 . S
C84 C20 1.470 . S
C89 C2 1.574 . S
C94 C54 1.547 . S
C99 C9 1.400 . S
C104 C5 1.501 . S
C109 C39 1.503 . S
C114 C43 1.415 . S
