# Generated by pormake.
# Topology mon, (4)-cn, num edge types: 1
# Building blocks:
#     Node 0, Type 0, BuildingBlock: NAHDIM_clean_sbu_0, # of connection points: 4
#     Node 1, Type 0, BuildingBlock: NAHDIM_clean_sbu_0, # of connection points: 4
#     Node 2, Type 0, BuildingBlock: NAHDIM_clean_sbu_0, # of connection points: 4
#     Node 3, Type 0, BuildingBlock: NAHDIM_clean_sbu_0, # of connection points: 4
#     Node 4, Type 0, BuildingBlock: NAHDIM_clean_sbu_0, # of connection points: 4
#     Node 5, Type 0, BuildingBlock: NAHDIM_clean_sbu_0, # of connection points: 4
#     Node 6, Type 0, BuildingBlock: NAHDIM_clean_sbu_0, # of connection points: 4
#     Node 7, Type 0, BuildingBlock: NAHDIM_clean_sbu_0, # of connection points: 4
#     Node 8, Type 0, BuildingBlock: NAHDIM_clean_sbu_0, # of connection points: 4
#     Node 9, Type 0, BuildingBlock: NAHDIM_clean_sbu_0, # of connection points: 4
#     Node 10, Type 0, BuildingBlock: NAHDIM_clean_sbu_0, # of connection points: 4
#     Node 11, Type 0, BuildingBlock: NAHDIM_clean_sbu_0, # of connection points: 4
#     Node 12, Type 0, BuildingBlock: NAHDIM_clean_sbu_0, # of connection points: 4
#     Node 13, Type 0, BuildingBlock: NAHDIM_clean_sbu_0, # of connection points: 4
#     Node 14, Type 0, BuildingBlock: NAHDIM_clean_sbu_0, # of connection points: 4
#     Node 15, Type 0, BuildingBlock: NAHDIM_clean_sbu_0, # of connection points: 4
#     Edge 16, Type (0, 0), None
#     Edge 17, Type (0, 0), None
#     Edge 18, Type (0, 0), None
#     Edge 19, Type (0, 0), None
#     Edge 20, Type (0, 0), None
#     Edge 21, Type (0, 0), None
#     Edge 22, Type (0, 0), None
#     Edge 23, Type (0, 0), None
#     Edge 24, Type (0, 0), None
#     Edge 25, Type (0, 0), None
#     Edge 26, Type (0, 0), None
#     Edge 27, Type (0, 0), None
#     Edge 28, Type (0, 0), None
#     Edge 29, Type (0, 0), None
#     Edge 30, Type (0, 0), None
#     Edge 31, Type (0, 0), None
#     Edge 32, Type (0, 0), None
#     Edge 33, Type (0, 0), None
#     Edge 34, Type (0, 0), None
#     Edge 35, Type (0, 0), None
#     Edge 36, Type (0, 0), None
#     Edge 37, Type (0, 0), None
#     Edge 38, Type (0, 0), None
#     Edge 39, Type (0, 0), None
#     Edge 40, Type (0, 0), None
#     Edge 41, Type (0, 0), None
#     Edge 42, Type (0, 0), None
#     Edge 43, Type (0, 0), None
#     Edge 44, Type (0, 0), None
#     Edge 45, Type (0, 0), None
#     Edge 46, Type (0, 0), None
#     Edge 47, Type (0, 0), None
# Relax obj value: 0.126
# Max RMSD: 0.125
# Mean RMSD: 0.125
data_MOF--net-mon--node1-NAHDIM_clean_sbu_0--edge1-none
_symmetry_space_group_name_H-M    P1
_symmetry_Int_Tables_number       1
_symmetry_cell_setting            triclinic
loop_
_symmetry_equiv_pos_as_xyz
'x, y, z'
_cell_length_a     16.426025
_cell_length_b     16.425964
_cell_length_c     34.560692
_cell_angle_alpha  90.000055
_cell_angle_beta   90.0
_cell_angle_gamma 89.999872
loop_
_atom_site_label
_atom_site_type_symbol
_atom_site_fract_x
_atom_site_fract_y
_atom_site_fract_z
_atom_type_partial_charge
C0 C 0.00506 0.18862 0.63593 0.0
O1 O 0.92721 0.17302 0.63143 0.0
O2 O 0.9193 0.97963 0.64213 0.0
Zn3 Zn 0.02189 0.02026 0.61471 0.0
O4 O 0.00828 0.0307 0.55661 0.0
C5 C 0.09509 0.86749 0.63134 0.0
O6 O 0.01953 0.84458 0.62608 0.0
O7 O 0.05634 0.13133 0.63263 0.0
C8 C 0.00972 0.97228 0.53254 0.0
O9 O 0.01694 0.8971 0.54496 0.0
C10 C 0.8611 0.94262 0.62528 0.0
O11 O 0.86091 0.93696 0.5874 0.0
O12 O 0.11372 0.94195 0.62707 0.0
C13 C 0.06167 0.7165 0.88593 0.0
O14 O 0.07727 0.63865 0.88142 0.0
O15 O 0.27066 0.63074 0.89213 0.0
Zn16 Zn 0.23003 0.73332 0.86471 0.0
O17 O 0.21959 0.71971 0.80661 0.0
C18 C 0.3828 0.80653 0.88134 0.0
O19 O 0.40571 0.73097 0.87608 0.0
O20 O 0.11896 0.76777 0.88263 0.0
C21 C 0.27801 0.72116 0.78254 0.0
O22 O 0.35319 0.72837 0.79496 0.0
C23 C 0.30767 0.57254 0.87528 0.0
O24 O 0.31333 0.57235 0.8374 0.0
O25 O 0.30834 0.82516 0.87707 0.0
C26 C 0.5338 0.77309 0.13593 0.0
O27 O 0.61165 0.78868 0.13143 0.0
O28 O 0.61956 -0.01792 0.14213 0.0
Zn29 Zn 0.51697 0.94144 0.11471 0.0
O30 O 0.53058 0.93101 0.05661 0.0
C31 C 0.44377 0.09422 0.13135 0.0
O32 O 0.51932 0.11712 0.12609 0.0
O33 O 0.48252 0.83038 0.13263 0.0
C34 C 0.52913 -0.01057 0.03254 0.0
O35 O 0.52192 0.06461 0.04496 0.0
C36 C 0.67775 0.01908 0.12528 0.0
O37 O 0.67794 0.02475 0.0874 0.0
O38 O 0.42513 0.01976 0.12707 0.0
C39 C 0.47718 0.24522 0.38593 0.0
O40 O 0.46159 0.32307 0.38142 0.0
O41 O 0.26819 0.33098 0.39214 0.0
Zn42 Zn 0.30883 0.22839 0.36472 0.0
O43 O 0.31927 0.242 0.30662 0.0
C44 C 0.15605 0.15518 0.38134 0.0
O45 O 0.13315 0.23074 0.37608 0.0
O46 O 0.41989 0.19394 0.38263 0.0
C47 C 0.26085 0.24055 0.28254 0.0
O48 O 0.18567 0.23334 0.29496 0.0
C49 C 0.23119 0.38917 0.37528 0.0
O50 O 0.22552 0.38936 0.3374 0.0
O51 O 0.23052 0.13655 0.37707 0.0
C52 C 0.00506 0.77309 0.38749 0.0
O53 O 0.92721 0.78869 0.39199 0.0
O54 O 0.9193 -0.01792 0.38128 0.0
Zn55 Zn 0.02189 0.94145 0.4087 0.0
O56 O 0.00828 0.93101 0.4668 0.0
C57 C 0.09509 0.09422 0.39207 0.0
O58 O 0.01953 0.11713 0.39733 0.0
O59 O 0.05634 0.83038 0.39079 0.0
C60 C 0.00972 -0.01056 0.49087 0.0
O61 O 0.01693 0.06461 0.47846 0.0
C62 C 0.8611 0.01909 0.39814 0.0
O63 O 0.86091 0.02475 0.43602 0.0
O64 O 0.11372 0.01976 0.39635 0.0
C65 C 0.47718 0.71649 0.63749 0.0
O66 O 0.46159 0.63864 0.64199 0.0
O67 O 0.26819 0.63073 0.63128 0.0
Zn68 Zn 0.30883 0.73332 0.6587 0.0
O69 O 0.31927 0.71971 0.7168 0.0
C70 C 0.15605 0.80652 0.64207 0.0
O71 O 0.13315 0.73097 0.64733 0.0
O72 O 0.41989 0.76777 0.64079 0.0
C73 C 0.26085 0.72116 0.74087 0.0
O74 O 0.18567 0.72837 0.72846 0.0
C75 C 0.23119 0.57254 0.64814 0.0
O76 O 0.22552 0.57235 0.68602 0.0
O77 O 0.23052 0.82516 0.64635 0.0
C78 C 0.5338 0.18862 0.88749 0.0
O79 O 0.61165 0.17302 0.89199 0.0
O80 O 0.61956 0.97963 0.88128 0.0
Zn81 Zn 0.51697 0.02026 0.9087 0.0
O82 O 0.53058 0.0307 0.9668 0.0
C83 C 0.44377 0.86749 0.89207 0.0
O84 O 0.51932 0.84458 0.89733 0.0
O85 O 0.48252 0.13133 0.89079 0.0
C86 C 0.52913 0.97227 0.99087 0.0
O87 O 0.52192 0.8971 0.97846 0.0
C88 C 0.67775 0.94262 0.89814 0.0
O89 O 0.67794 0.93696 0.93602 0.0
O90 O 0.42513 0.94195 0.89635 0.0
C91 C 0.06167 0.24521 0.13749 0.0
O92 O 0.07727 0.32306 0.14199 0.0
O93 O 0.27066 0.33097 0.13128 0.0
Zn94 Zn 0.23003 0.22839 0.1587 0.0
O95 O 0.21959 0.24199 0.2168 0.0
C96 C 0.3828 0.15518 0.14207 0.0
O97 O 0.40571 0.23074 0.14734 0.0
O98 O 0.11896 0.19394 0.14079 0.0
C99 C 0.27801 0.24055 0.24087 0.0
O100 O 0.35319 0.23334 0.22846 0.0
C101 C 0.30767 0.38917 0.14814 0.0
O102 O 0.31333 0.38936 0.18602 0.0
O103 O 0.30834 0.13655 0.14635 0.0
C104 C 0.97719 0.21647 0.13748 0.0
O105 O 0.96161 0.13862 0.14198 0.0
O106 O 0.7682 0.13073 0.13129 0.0
Zn107 Zn 0.80884 0.23331 0.1587 0.0
O108 O 0.81928 0.21971 0.2168 0.0
C109 C 0.65607 0.30652 0.14207 0.0
O110 O 0.63316 0.23096 0.14733 0.0
O111 O 0.91991 0.26776 0.14079 0.0
C112 C 0.76085 0.22115 0.24087 0.0
O113 O 0.68568 0.22836 0.22846 0.0
C114 C 0.73121 0.07253 0.14815 0.0
O115 O 0.72555 0.07231 0.18602 0.0
O116 O 0.73053 0.32515 0.14635 0.0
C117 C 0.56166 0.74523 0.63748 0.0
O118 O 0.57725 0.82309 0.64198 0.0
O119 O 0.77065 0.83098 0.63129 0.0
Zn120 Zn 0.73002 0.72839 0.6587 0.0
O121 O 0.71958 0.742 0.7168 0.0
C122 C 0.88279 0.65519 0.64207 0.0
O123 O 0.90569 0.73074 0.64733 0.0
O124 O 0.61895 0.69395 0.64079 0.0
C125 C 0.77801 0.74056 0.74087 0.0
O126 O 0.85318 0.73335 0.72846 0.0
C127 C 0.80765 0.88918 0.64815 0.0
O128 O 0.81331 0.88939 0.68602 0.0
O129 O 0.80832 0.63655 0.64635 0.0
C130 C 0.56166 0.21648 0.38593 0.0
O131 O 0.57725 0.13862 0.38144 0.0
O132 O 0.77065 0.13073 0.39213 0.0
Zn133 Zn 0.73002 0.23332 0.36471 0.0
O134 O 0.71958 0.21971 0.30661 0.0
C135 C 0.88278 0.30652 0.38134 0.0
O136 O 0.90569 0.23097 0.37608 0.0
O137 O 0.61895 0.26776 0.38262 0.0
C138 C 0.77801 0.22115 0.28254 0.0
O139 O 0.85318 0.22836 0.29496 0.0
C140 C 0.80765 0.07253 0.37527 0.0
O141 O 0.81331 0.07232 0.33739 0.0
O142 O 0.80832 0.32516 0.37707 0.0
C143 C 0.97719 0.74524 0.88593 0.0
O144 O 0.96161 0.82309 0.88144 0.0
O145 O 0.7682 0.83098 0.89213 0.0
Zn146 Zn 0.80884 0.72839 0.86471 0.0
O147 O 0.81927 0.742 0.80661 0.0
C148 C 0.65607 0.65519 0.88135 0.0
O149 O 0.63316 0.73074 0.87609 0.0
O150 O 0.91991 0.69395 0.88262 0.0
C151 C 0.76085 0.74056 0.78254 0.0
O152 O 0.68567 0.73335 0.79496 0.0
C153 C 0.73121 0.88918 0.87527 0.0
O154 O 0.72555 0.8894 0.83739 0.0
O155 O 0.73053 0.63656 0.87707 0.0
C156 C 0.50506 0.68861 0.13593 0.0
O157 O 0.4272 0.67302 0.13143 0.0
O158 O 0.41931 0.47962 0.14213 0.0
Zn159 Zn 0.5219 0.52026 0.11471 0.0
O160 O 0.50829 0.5307 0.05661 0.0
C161 C 0.59511 0.36749 0.13134 0.0
O162 O 0.51955 0.34458 0.12608 0.0
O163 O 0.55634 0.63132 0.13263 0.0
C164 C 0.50973 0.47227 0.03254 0.0
O165 O 0.51694 0.3971 0.04496 0.0
C166 C 0.36111 0.44263 0.12527 0.0
O167 O 0.3609 0.43696 0.08739 0.0
O168 O 0.61374 0.44195 0.12707 0.0
C169 C 0.0338 0.2731 0.63593 0.0
O170 O 0.11165 0.28868 0.63143 0.0
O171 O 0.11954 0.48209 0.64213 0.0
Zn172 Zn 0.01696 0.44145 0.61471 0.0
O173 O 0.03056 0.43101 0.55661 0.0
C174 C 0.94375 0.59422 0.63134 0.0
O175 O 0.01931 0.61713 0.62608 0.0
O176 O -0.01748 0.33038 0.63263 0.0
C177 C 0.02912 0.48943 0.53254 0.0
O178 O 0.02191 0.56461 0.54496 0.0
C179 C 0.17774 0.51908 0.62527 0.0
O180 O 0.17796 0.52474 0.58739 0.0
O181 O 0.92512 0.51976 0.62707 0.0
C182 C 0.50506 0.2731 0.88748 0.0
O183 O 0.4272 0.28869 0.89199 0.0
O184 O 0.41931 0.48209 0.88129 0.0
Zn185 Zn 0.5219 0.44145 0.9087 0.0
O186 O 0.50829 0.43101 0.9668 0.0
C187 C 0.59511 0.59422 0.89207 0.0
O188 O 0.51955 0.61713 0.89734 0.0
O189 O 0.55634 0.33038 0.89079 0.0
C190 C 0.50973 0.48944 0.99087 0.0
O191 O 0.51694 0.56461 0.97846 0.0
C192 C 0.36111 0.51908 0.89815 0.0
O193 O 0.3609 0.52475 0.93602 0.0
O194 O 0.61374 0.51976 0.89635 0.0
C195 C 0.0338 0.68861 0.38748 0.0
O196 O 0.11165 0.67303 0.39198 0.0
O197 O 0.11954 0.47962 0.38129 0.0
Zn198 Zn 0.01696 0.52026 0.4087 0.0
O199 O 0.03056 0.5307 0.4668 0.0
C200 C 0.94375 0.36749 0.39207 0.0
O201 O 0.0193 0.34458 0.39733 0.0
O202 O -0.01749 0.63133 0.39079 0.0
C203 C 0.02912 0.47227 0.49087 0.0
O204 O 0.02191 0.3971 0.47846 0.0
C205 C 0.17774 0.44263 0.39815 0.0
O206 O 0.17796 0.43697 0.43602 0.0
O207 O 0.92512 0.44195 0.39635 0.0
loop_
_geom_bond_atom_site_label_1
_geom_bond_atom_site_label_2
_geom_bond_distance
_geom_bond_site_symmetry_2
_ccdc_geom_bond_type
C0 O1 1.160 1_455 S
C0 O7 1.185 . S
O1 C0 1.160 1_655 S
O2 Zn3 1.899 1_655 S
O2 C10 1.284 1_545 S
Zn3 O2 1.899 1_455 S
Zn3 O4 2.032 . S
Zn3 O7 2.086 . S
Zn3 O12 1.977 1_545 S
O4 Zn3 2.032 . S
O4 C8 1.278 1_545 S
C5 O6 1.203 . S
C5 O12 1.267 . S
O6 C5 1.203 . S
O7 C0 1.185 . S
O7 Zn3 2.086 . S
C8 O4 1.278 1_565 S
C8 O9 1.211 . S
O9 C8 1.211 . S
C10 O2 1.284 1_565 S
C10 O11 1.273 . S
O11 C10 1.273 . S
O12 Zn3 1.977 1_565 S
O12 C5 1.267 . S
C13 O14 1.160 . S
C13 O20 1.185 . S
O14 C13 1.160 . S
O15 Zn16 1.899 . S
O15 C23 1.284 . S
Zn16 O15 1.899 . S
Zn16 O17 2.032 . S
Zn16 O20 2.086 . S
Zn16 O25 1.977 . S
O17 Zn16 2.032 . S
O17 C21 1.278 . S
C18 O19 1.203 . S
C18 O25 1.267 . S
O19 C18 1.203 . S
O20 C13 1.185 . S
O20 Zn16 2.086 . S
C21 O17 1.278 . S
C21 O22 1.211 . S
O22 C21 1.211 . S
C23 O15 1.284 . S
C23 O24 1.273 . S
O24 C23 1.273 . S
O25 Zn16 1.977 . S
O25 C18 1.267 . S
C26 O27 1.160 . S
C26 O33 1.185 . S
O27 C26 1.160 . S
O28 Zn29 1.899 . S
O28 C36 1.284 1_565 S
Zn29 O28 1.899 . S
Zn29 O30 2.032 . S
Zn29 O33 2.086 . S
Zn29 O38 1.977 1_565 S
O30 Zn29 2.032 . S
O30 C34 1.278 1_565 S
C31 O32 1.203 . S
C31 O38 1.267 . S
O32 C31 1.203 . S
O33 C26 1.185 . S
O33 Zn29 2.086 . S
C34 O30 1.278 1_545 S
C34 O35 1.211 . S
O35 C34 1.211 . S
C36 O28 1.284 1_545 S
C36 O37 1.273 . S
O37 C36 1.273 . S
O38 Zn29 1.977 1_545 S
O38 C31 1.267 . S
C39 O40 1.160 . S
C39 O46 1.185 . S
O40 C39 1.160 . S
O41 Zn42 1.899 . S
O41 C49 1.284 . S
Zn42 O41 1.899 . S
Zn42 O43 2.032 . S
Zn42 O46 2.086 . S
Zn42 O51 1.977 . S
O43 Zn42 2.032 . S
O43 C47 1.278 . S
C44 O45 1.203 . S
C44 O51 1.267 . S
O45 C44 1.203 . S
O46 C39 1.185 . S
O46 Zn42 2.086 . S
C47 O43 1.278 . S
C47 O48 1.211 . S
O48 C47 1.211 . S
C49 O41 1.284 . S
C49 O50 1.273 . S
O50 C49 1.273 . S
O51 Zn42 1.977 . S
O51 C44 1.267 . S
C52 O53 1.160 1_455 S
C52 O59 1.185 . S
O53 C52 1.160 1_655 S
O54 Zn55 1.899 1_655 S
O54 C62 1.284 1_565 S
Zn55 O54 1.899 1_455 S
Zn55 O56 2.032 . S
Zn55 O59 2.086 . S
Zn55 O64 1.977 1_565 S
O56 Zn55 2.032 . S
O56 C60 1.278 1_565 S
C57 O58 1.203 . S
C57 O64 1.267 . S
O58 C57 1.203 . S
O59 C52 1.185 . S
O59 Zn55 2.086 . S
C60 O56 1.278 1_545 S
C60 O61 1.211 . S
O61 C60 1.211 . S
C62 O54 1.284 1_545 S
C62 O63 1.273 . S
O63 C62 1.273 . S
O64 Zn55 1.977 1_545 S
O64 C57 1.267 . S
C65 O66 1.160 . S
C65 O72 1.185 . S
O66 C65 1.160 . S
O67 Zn68 1.899 . S
O67 C75 1.284 . S
Zn68 O67 1.899 . S
Zn68 O69 2.032 . S
Zn68 O72 2.086 . S
Zn68 O77 1.977 . S
O69 Zn68 2.032 . S
O69 C73 1.278 . S
C70 O71 1.203 . S
C70 O77 1.267 . S
O71 C70 1.203 . S
O72 C65 1.185 . S
O72 Zn68 2.086 . S
C73 O69 1.278 . S
C73 O74 1.211 . S
O74 C73 1.211 . S
C75 O67 1.284 . S
C75 O76 1.273 . S
O76 C75 1.273 . S
O77 Zn68 1.977 . S
O77 C70 1.267 . S
C78 O79 1.160 . S
C78 O85 1.185 . S
O79 C78 1.160 . S
O80 Zn81 1.899 . S
O80 C88 1.284 1_545 S
Zn81 O80 1.899 . S
Zn81 O82 2.032 . S
Zn81 O85 2.086 . S
Zn81 O90 1.977 1_545 S
O82 Zn81 2.032 . S
O82 C86 1.278 1_545 S
C83 O84 1.203 . S
C83 O90 1.267 . S
O84 C83 1.203 . S
O85 C78 1.185 . S
O85 Zn81 2.086 . S
C86 O82 1.278 1_565 S
C86 O87 1.211 . S
O87 C86 1.211 . S
C88 O80 1.284 1_565 S
C88 O89 1.273 . S
O89 C88 1.273 . S
O90 Zn81 1.977 1_565 S
O90 C83 1.267 . S
C91 O92 1.160 . S
C91 O98 1.185 . S
O92 C91 1.160 . S
O93 Zn94 1.899 . S
O93 C101 1.284 . S
Zn94 O93 1.899 . S
Zn94 O95 2.032 . S
Zn94 O98 2.086 . S
Zn94 O103 1.977 . S
O95 Zn94 2.032 . S
O95 C99 1.278 . S
C96 O97 1.203 . S
C96 O103 1.267 . S
O97 C96 1.203 . S
O98 C91 1.185 . S
O98 Zn94 2.086 . S
C99 O95 1.278 . S
C99 O100 1.211 . S
O100 C99 1.211 . S
C101 O93 1.284 . S
C101 O102 1.273 . S
O102 C101 1.273 . S
O103 Zn94 1.977 . S
O103 C96 1.267 . S
C104 O105 1.160 1_455 S
C104 O111 1.185 1_455 S
O105 C104 1.160 1_655 S
O106 Zn107 1.899 . S
O106 C114 1.284 . S
Zn107 O106 1.899 . S
Zn107 O108 2.032 . S
Zn107 O111 2.086 . S
Zn107 O116 1.977 . S
O108 Zn107 2.032 . S
O108 C112 1.278 . S
C109 O110 1.203 . S
C109 O116 1.267 . S
O110 C109 1.203 . S
O111 C104 1.185 1_655 S
O111 Zn107 2.086 . S
C112 O108 1.278 . S
C112 O113 1.211 . S
O113 C112 1.211 . S
C114 O106 1.284 . S
C114 O115 1.273 . S
O115 C114 1.273 . S
O116 Zn107 1.977 . S
O116 C109 1.267 . S
C117 O118 1.160 . S
C117 O124 1.185 . S
O118 C117 1.160 . S
O119 Zn120 1.899 . S
O119 C127 1.284 . S
Zn120 O119 1.899 . S
Zn120 O121 2.032 . S
Zn120 O124 2.086 . S
Zn120 O129 1.977 . S
O121 Zn120 2.032 . S
O121 C125 1.278 . S
C122 O123 1.203 . S
C122 O129 1.267 . S
O123 C122 1.203 . S
O124 C117 1.185 . S
O124 Zn120 2.086 . S
C125 O121 1.278 . S
C125 O126 1.211 . S
O126 C125 1.211 . S
C127 O119 1.284 . S
C127 O128 1.273 . S
O128 C127 1.273 . S
O129 Zn120 1.977 . S
O129 C122 1.267 . S
C130 O131 1.160 . S
C130 O137 1.185 . S
O131 C130 1.160 . S
O132 Zn133 1.899 . S
O132 C140 1.284 . S
Zn133 O132 1.899 . S
Zn133 O134 2.032 . S
Zn133 O137 2.086 . S
Zn133 O142 1.977 . S
O134 Zn133 2.032 . S
O134 C138 1.278 . S
C135 O136 1.203 . S
C135 O142 1.267 . S
O136 C135 1.203 . S
O137 C130 1.185 . S
O137 Zn133 2.086 . S
C138 O134 1.278 . S
C138 O139 1.211 . S
O139 C138 1.211 . S
C140 O132 1.284 . S
C140 O141 1.273 . S
O141 C140 1.273 . S
O142 Zn133 1.977 . S
O142 C135 1.267 . S
C143 O144 1.160 1_455 S
C143 O150 1.185 1_455 S
O144 C143 1.160 1_655 S
O145 Zn146 1.899 . S
O145 C153 1.284 . S
Zn146 O145 1.899 . S
Zn146 O147 2.032 . S
Zn146 O150 2.086 . S
Zn146 O155 1.977 . S
O147 Zn146 2.032 . S
O147 C151 1.278 . S
C148 O149 1.203 . S
C148 O155 1.267 . S
O149 C148 1.203 . S
O150 C143 1.185 1_655 S
O150 Zn146 2.086 . S
C151 O147 1.278 . S
C151 O152 1.211 . S
O152 C151 1.211 . S
C153 O145 1.284 . S
C153 O154 1.273 . S
O154 C153 1.273 . S
O155 Zn146 1.977 . S
O155 C148 1.267 . S
C156 O157 1.160 . S
C156 O163 1.185 . S
O157 C156 1.160 . S
O158 Zn159 1.899 . S
O158 C166 1.284 . S
Zn159 O158 1.899 . S
Zn159 O160 2.032 . S
Zn159 O163 2.086 . S
Zn159 O168 1.977 . S
O160 Zn159 2.032 . S
O160 C164 1.278 . S
C161 O162 1.203 . S
C161 O168 1.267 . S
O162 C161 1.203 . S
O163 C156 1.185 . S
O163 Zn159 2.086 . S
C164 O160 1.278 . S
C164 O165 1.211 . S
O165 C164 1.211 . S
C166 O158 1.284 . S
C166 O167 1.273 . S
O167 C166 1.273 . S
O168 Zn159 1.977 . S
O168 C161 1.267 . S
C169 O170 1.160 . S
C169 O176 1.185 . S
O170 C169 1.160 . S
O171 Zn172 1.899 . S
O171 C179 1.284 . S
Zn172 O171 1.899 . S
Zn172 O173 2.032 . S
Zn172 O176 2.086 . S
Zn172 O181 1.977 1_455 S
O173 Zn172 2.032 . S
O173 C177 1.278 . S
C174 O175 1.203 . S
C174 O181 1.267 . S
O175 C174 1.203 . S
O176 C169 1.185 . S
O176 Zn172 2.086 . S
C177 O173 1.278 . S
C177 O178 1.211 . S
O178 C177 1.211 . S
C179 O171 1.284 . S
C179 O180 1.273 . S
O180 C179 1.273 . S
O181 Zn172 1.977 1_655 S
O181 C174 1.267 . S
C182 O183 1.160 . S
C182 O189 1.185 . S
O183 C182 1.160 . S
O184 Zn185 1.899 . S
O184 C192 1.284 . S
Zn185 O184 1.899 . S
Zn185 O186 2.032 . S
Zn185 O189 2.086 . S
Zn185 O194 1.977 . S
O186 Zn185 2.032 . S
O186 C190 1.278 . S
C187 O188 1.203 . S
C187 O194 1.267 . S
O188 C187 1.203 . S
O189 C182 1.185 . S
O189 Zn185 2.086 . S
C190 O186 1.278 . S
C190 O191 1.211 . S
O191 C190 1.211 . S
C192 O184 1.284 . S
C192 O193 1.273 . S
O193 C192 1.273 . S
O194 Zn185 1.977 . S
O194 C187 1.267 . S
C195 O196 1.160 . S
C195 O202 1.185 . S
O196 C195 1.160 . S
O197 Zn198 1.899 . S
O197 C205 1.284 . S
Zn198 O197 1.899 . S
Zn198 O199 2.032 . S
Zn198 O202 2.086 . S
Zn198 O207 1.977 1_455 S
O199 Zn198 2.032 . S
O199 C203 1.278 . S
C200 O201 1.203 . S
C200 O207 1.267 . S
O201 C200 1.203 . S
O202 C195 1.185 . S
O202 Zn198 2.086 . S
C203 O199 1.278 . S
C203 O204 1.211 . S
O204 C203 1.211 . S
C205 O197 1.284 . S
C205 O206 1.273 . S
O206 C205 1.273 . S
O207 Zn198 1.977 1_655 S
O207 C200 1.267 . S
C0 C169 1.466 . S
C143 C13 1.466 . S
C156 C26 1.466 . S
C130 C39 1.466 . S
C52 C195 1.466 . S
C65 C117 1.466 . S
C182 C78 1.466 . S
C91 C104 1.466 . S
C60 C8 1.496 1_545 S
C21 C73 1.496 . S
C34 C86 1.496 1_544 S
C99 C47 1.496 . S
C112 C138 1.496 . S
C125 C151 1.496 . S
C190 C164 1.496 1_556 S
C177 C203 1.496 . S
C70 C5 1.182 . S
C18 C83 1.182 . S
C31 C96 1.182 . S
C57 C44 1.182 . S
C62 C140 1.292 . S
C36 C114 1.292 . S
C153 C88 1.292 . S
C127 C10 1.292 . S
C109 C161 1.182 . S
C135 C200 1.182 . S
C174 C122 1.182 . S
C148 C187 1.182 . S
C192 C23 1.292 . S
C179 C75 1.292 . S
C205 C49 1.292 . S
C166 C101 1.292 . S
