# Generated by pormake.
# Topology qtz-x, (6)-cn, num edge types: 1
# Building blocks:
#     Node 0, Type 0, BuildingBlock: LEVNOQ01_clean_sbu_1, # of connection points: 6
#     Node 1, Type 0, BuildingBlock: LEVNOQ01_clean_sbu_1, # of connection points: 6
#     Node 2, Type 0, BuildingBlock: LEVNOQ01_clean_sbu_1, # of connection points: 6
#     Edge 3, Type (0, 0), BuildingBlock: XIVTED_clean_linker_0, # of connection points: 2
#     Edge 4, Type (0, 0), BuildingBlock: XIVTED_clean_linker_0, # of connection points: 2
#     Edge 5, Type (0, 0), BuildingBlock: XIVTED_clean_linker_0, # of connection points: 2
#     Edge 6, Type (0, 0), BuildingBlock: XIVTED_clean_linker_0, # of connection points: 2
#     Edge 7, Type (0, 0), BuildingBlock: XIVTED_clean_linker_0, # of connection points: 2
#     Edge 8, Type (0, 0), BuildingBlock: XIVTED_clean_linker_0, # of connection points: 2
#     Edge 9, Type (0, 0), BuildingBlock: XIVTED_clean_linker_0, # of connection points: 2
#     Edge 10, Type (0, 0), BuildingBlock: XIVTED_clean_linker_0, # of connection points: 2
#     Edge 11, Type (0, 0), BuildingBlock: XIVTED_clean_linker_0, # of connection points: 2
# Relax obj value: 0.267
# Max RMSD: 0.266
# Mean RMSD: 0.263
data_MOF--net-qtz-x--node1-LEVNOQ01_clean_sbu_1--edge1-XIVTED_clean_linker_0
_symmetry_space_group_name_H-M    P1
_symmetry_Int_Tables_number       1
_symmetry_cell_setting            triclinic
loop_
_symmetry_equiv_pos_as_xyz
'x, y, z'
_cell_length_a     15.444966
_cell_length_b     15.498471
_cell_length_c     38.441983
_cell_angle_alpha  95.135413
_cell_angle_beta   94.753905
_cell_angle_gamma 120.01127
loop_
_atom_site_label
_atom_site_type_symbol
_atom_site_fract_x
_atom_site_fract_y
_atom_site_fract_z
_atom_type_partial_charge
O0 O 0.85235 0.26905 0.07022 0.0
Mg1 Mg -0.00025 0.29101 0.0839 0.0
O2 O 0.85668 0.36935 0.11649 0.0
Mg3 Mg -0.00493 0.41963 0.15856 0.0
O4 O 0.01297 0.29577 0.13627 0.0
O5 O 0.02447 0.18085 0.10287 0.0
O6 O 0.13152 0.46948 0.20123 0.0
O7 O 0.88947 0.3054 0.19423 0.0
Mg8 Mg 0.94464 0.50185 0.22608 0.0
O9 O 0.98012 0.55096 0.17971 0.0
O10 O 0.07303 0.49601 0.24977 0.0
O11 O 0.80134 0.37175 0.21061 0.0
O12 O 0.95294 0.63726 0.22231 0.0
C13 C 0.14492 0.52031 0.09639 0.0
C14 C 0.81333 0.31296 0.08667 0.0
C15 C 0.02505 0.22002 0.13393 0.0
C16 C 0.13984 0.48814 0.23473 0.0
C17 C 0.81379 0.2972 0.20801 0.0
C18 C 0.97226 0.62715 0.19073 0.0
O19 O 0.12114 0.43509 0.0796 0.0
O20 O 0.10272 0.52861 0.12275 0.0
O21 O 0.58314 0.18219 0.42921 0.0
Mg22 Mg 0.48526 0.02654 0.42537 0.0
O23 O 0.67771 0.13722 0.45797 0.0
Mg24 Mg 0.57108 0.02245 0.49364 0.0
O25 O 0.41329 -0.00814 0.46827 0.0
O26 O 0.33715 0.98153 0.41434 0.0
O27 O 0.47954 0.91286 0.53015 0.0
O28 O 0.578 0.15658 0.53176 0.0
Mg29 Mg 0.7102 0.10436 0.56577 0.0
O30 O 0.71591 0.03504 0.51994 0.0
O31 O 0.5744 -0.00737 0.58248 0.0
O32 O 0.73395 0.24726 0.55846 0.0
O33 O 0.83206 0.08413 0.56724 0.0
C34 C 0.54405 0.8675 0.42397 0.0
C35 C 0.66998 0.19692 0.43885 0.0
C36 C 0.33399 0.97573 0.44754 0.0
C37 C 0.49438 0.92076 0.56362 0.0
C38 C 0.64818 0.23746 0.55105 0.0
C39 C 0.79784 0.04208 0.53477 0.0
O40 O 0.52428 0.9202 0.40503 0.0
O41 O 0.55568 0.8856 0.45748 0.0
O42 O 0.40972 0.75529 0.87411 0.0
Mg43 Mg 0.52882 0.73307 0.89314 0.0
O44 O 0.34116 0.59304 0.86915 0.0
Mg45 Mg 0.44273 0.55593 0.8365 0.0
O46 O 0.59339 0.70381 0.85357 0.0
O47 O 0.67494 0.84494 0.89274 0.0
O48 O 0.53361 0.50916 0.80162 0.0
O49 O 0.42599 0.64724 0.79304 0.0
Mg50 Mg 0.31828 0.47505 0.78357 0.0
O51 O 0.298 0.38799 0.82193 0.0
O52 O 0.43798 0.50072 0.75419 0.0
O53 O 0.26272 0.57572 0.78338 0.0
O54 O 0.21002 0.33174 0.76694 0.0
C55 C 0.49326 0.53323 0.91755 0.0
C56 C 0.33598 0.67147 0.87794 0.0
C57 C 0.67438 0.78924 0.86559 0.0
C58 C 0.51601 0.5024 0.76816 0.0
C59 C 0.34796 0.64565 0.77856 0.0
C60 C 0.22996 0.31464 0.79794 0.0
O61 O 0.50464 0.62024 0.92608 0.0
O62 O 0.47733 0.49438 0.88511 0.0
H63 H 0.14878 0.78145 0.17786 0.0
H64 H 0.86875 0.09323 0.16497 0.0
H65 H 0.82581 0.6492 0.15792 0.0
H66 H 0.19 0.22854 0.16773 0.0
H67 H 0.85657 0.9338 0.17385 0.0
H68 H 0.16969 0.94771 0.17445 0.0
C69 C 0.08253 0.78724 0.17108 0.0
C70 C 0.98555 0.70345 0.16902 0.0
C71 C 0.93028 -0.00106 0.17334 0.0
C72 C 0.00796 0.89122 0.16728 0.0
C73 C 0.93761 0.09068 0.1695 0.0
C74 C 0.02979 0.17116 0.16383 0.0
C75 C 0.01661 -0.0094 0.17231 0.0
C76 C 0.11708 0.16584 0.17074 0.0
C77 C 0.09421 0.88207 0.17011 0.0
C78 C 0.90177 0.71343 0.16022 0.0
N79 N 0.10822 0.07523 0.17324 0.0
N80 N 0.91464 0.80655 0.16058 0.0
H81 H 0.31285 0.03415 0.5139 0.0
H82 H 0.83812 0.04236 0.46661 0.0
H83 H 0.14217 0.8652 0.41223 0.0
H84 H 0.86791 0.9329 0.56356 0.0
H85 H 0.95328 -0.00819 0.4437 0.0
H86 H 0.15743 0.01612 0.53286 0.0
C87 C 0.24229 -0.00884 0.49595 0.0
C88 C 0.23994 0.95194 0.4614 0.0
C89 C 0.93168 0.97624 0.46954 0.0
C90 C 0.06403 0.93203 0.48266 0.0
C91 C 0.86655 0.00506 0.48253 0.0
C92 C 0.84634 -0.00638 0.51718 0.0
C93 C 0.97623 0.93713 0.49164 0.0
C94 C 0.88463 0.94527 0.53703 0.0
C95 C 0.15406 0.98091 0.50672 0.0
C96 C 0.14693 0.89805 0.4389 0.0
N97 N 0.94984 0.92067 0.52428 0.0
N98 N 0.06247 0.89109 0.4497 0.0
H99 H 0.85514 0.84765 0.90291 0.0
H100 H 0.12317 0.14134 0.75066 0.0
H101 H 0.70772 0.7971 0.79675 0.0
H102 H 0.2129 0.24942 0.86255 0.0
H103 H 0.00892 0.97214 0.7635 0.0
H104 H 0.01952 0.94182 0.88292 0.0
C105 C 0.85794 0.85481 0.87518 0.0
C106 C 0.769 0.81897 0.85158 0.0
C107 C 0.05516 0.03252 0.78518 0.0
C108 C 0.9551 0.92785 0.82887 0.0
C109 C 0.11953 0.12931 0.77796 0.0
C110 C 0.17402 0.21036 0.80567 0.0
C111 C 0.04498 0.01704 0.82033 0.0
C112 C 0.16993 0.1897 0.84041 0.0
C113 C 0.95142 0.90802 0.86378 0.0
C114 C 0.7754 0.82648 0.81579 0.0
N115 N 0.10466 0.0953 0.84678 0.0
N116 N 0.86744 0.88306 0.8056 0.0
H117 H 0.33408 0.83067 0.91552 0.0
H118 H 0.32543 0.5721 0.07548 0.0
H119 H 0.21366 0.51003 0.9093 0.0
H120 H 0.10027 0.65867 0.07546 0.0
H121 H 0.36745 0.63806 0.02004 0.0
H122 H 0.30477 0.83718 0.97743 0.0
C123 C 0.29846 0.76122 0.92666 0.0
C124 C 0.27994 0.67021 0.90754 0.0
C125 C 0.31222 0.64697 0.03312 0.0
C126 C 0.24897 0.67843 0.97775 0.0
C127 C 0.28919 0.61067 0.06493 0.0
C128 C 0.2075 0.60773 0.07934 0.0
C129 C 0.25358 0.68086 0.01608 0.0
C130 C 0.16276 0.65847 0.06468 0.0
C131 C 0.28287 0.76555 0.96199 0.0
C132 C 0.23191 0.58241 0.92313 0.0
N133 N 0.18345 0.68963 0.03278 0.0
N134 N 0.22119 0.58932 0.95769 0.0
H135 H 0.70056 0.35611 0.40557 0.0
H136 H 0.90246 0.20828 0.24367 0.0
H137 H 0.80643 0.14842 0.41651 0.0
H138 H 0.64176 0.24341 0.23686 0.0
H139 H 0.89594 0.19946 0.30686 0.0
H140 H 0.73318 0.35862 0.34454 0.0
C141 C 0.73509 0.31464 0.39567 0.0
C142 C 0.74519 0.24725 0.4153 0.0
C143 C 0.83916 0.20702 0.2912 0.0
C144 C 0.78022 0.24809 0.34583 0.0
C145 C 0.84123 0.2098 0.25501 0.0
C146 C 0.77586 0.2323 0.2355 0.0
C147 C 0.77145 0.22686 0.30724 0.0
C148 C 0.69629 0.2303 0.25134 0.0
C149 C 0.75121 0.31413 0.36062 0.0
C150 C 0.79363 0.19816 0.40166 0.0
N151 N 0.6988 0.23235 0.2867 0.0
N152 N 0.80629 0.19656 0.36706 0.0
H153 H 0.21147 0.68323 0.74259 0.0
H154 H 0.49646 0.75296 0.5749 0.0
H155 H 0.49791 0.69946 0.73835 0.0
H156 H 0.34026 0.91323 0.59504 0.0
H157 H 0.43427 0.66498 0.6252 0.0
H158 H 0.21063 0.71823 0.68118 0.0
C159 C 0.27446 0.69547 0.72899 0.0
C160 C 0.35501 0.68905 0.74565 0.0
C161 C 0.41059 0.71674 0.61781 0.0
C162 C 0.35096 0.72189 0.67558 0.0
C163 C 0.44494 0.7658 0.58896 0.0
C164 C 0.42399 0.84074 0.58153 0.0
C165 C 0.35618 0.74419 0.63921 0.0
C166 C 0.3581 0.85606 0.60049 0.0
C167 C 0.27302 0.71362 0.69398 0.0
C168 C 0.43448 0.70447 0.72682 0.0
N169 N 0.32789 0.80961 0.6292 0.0
N170 N 0.42964 0.71873 0.6927 0.0
H171 H 0.58048 0.61736 0.98553 0.0
H172 H 0.69397 0.19621 0.02469 0.0
H173 H 0.44388 0.3347 0.91515 0.0
H174 H 0.73298 0.42981 0.10566 0.0
H175 H 0.58445 0.23129 0.98652 0.0
H176 H 0.62438 0.54169 0.03119 0.0
C177 C 0.55778 0.53854 0.97983 0.0
C178 C 0.50901 0.48254 0.94624 0.0
C179 C 0.61498 0.2732 0.01294 0.0
C180 C 0.55947 0.39489 -0.00115 0.0
C181 C 0.67761 0.25323 0.03479 0.0
C182 C 0.72544 0.31245 0.06798 0.0
C183 C 0.60133 0.35371 0.02427 0.0
C184 C 0.69972 0.38379 0.07996 0.0
C185 C 0.58273 0.49518 0.00609 0.0
C186 C 0.48265 0.381 0.9405 0.0
N187 N 0.64135 0.40408 0.05778 0.0
N188 N 0.50928 0.34065 0.96645 0.0
H189 H 0.33169 0.64263 0.23631 0.0
H190 H 0.40943 0.67284 0.42985 0.0
H191 H 0.15291 0.38117 0.28491 0.0
H192 H 0.65539 0.85539 0.37496 0.0
H193 H 0.33773 0.5393 0.37904 0.0
H194 H 0.47039 0.70144 0.28471 0.0
C195 C 0.32357 0.59561 0.25649 0.0
C196 C 0.23124 0.50781 0.25712 0.0
C197 C 0.41004 0.60644 0.37861 0.0
C198 C 0.38795 0.57475 0.31282 0.0
C199 C 0.45155 0.6824 0.40788 0.0
C200 C 0.53634 0.77605 0.4058 0.0
C201 C 0.45308 0.6265 0.34727 0.0
C202 C 0.58804 0.78482 0.37688 0.0
C203 C 0.40265 0.62895 0.28418 0.0
C204 C 0.22314 0.45013 0.28404 0.0
N205 N 0.54369 0.71237 0.34807 0.0
N206 N 0.29986 0.48564 0.31132 0.0
H207 H 0.48617 0.31776 0.74913 0.0
H208 H 0.7654 0.43536 0.58087 0.0
H209 H 0.65532 0.62415 0.72908 0.0
H210 H 0.47725 0.16758 0.58182 0.0
H211 H 0.74825 0.50892 0.63737 0.0
H212 H 0.51466 0.26013 0.69212 0.0
C213 C 0.53369 0.37318 0.73344 0.0
C214 C 0.57018 0.47576 0.74393 0.0
C215 C 0.68804 0.43495 0.62476 0.0
C216 C 0.59975 0.41068 0.67831 0.0
C217 C 0.69703 0.39355 0.59236 0.0
C218 C 0.62262 0.29525 0.57662 0.0
C219 C 0.60545 0.37635 0.64182 0.0
C220 C 0.5361 0.24377 0.59282 0.0
C221 C 0.54774 0.34023 0.70058 0.0
C222 C 0.62788 0.54454 0.72208 0.0
N223 N 0.53099 0.28402 0.62493 0.0
N224 N 0.64076 0.51076 0.6901 0.0
loop_
_geom_bond_atom_site_label_1
_geom_bond_atom_site_label_2
_geom_bond_distance
_geom_bond_site_symmetry_2
_ccdc_geom_bond_type
O0 Mg1 2.002 . S
O0 C14 1.253 . S
Mg1 O0 2.002 . S
Mg1 O4 2.180 1_655 S
Mg1 O5 2.117 . S
Mg1 O19 2.028 1_655 S
O2 Mg3 2.072 1_655 S
O2 C14 1.260 . S
Mg3 O2 2.072 1_455 S
Mg3 O4 2.099 . S
Mg3 O6 2.079 . S
Mg3 O7 2.072 1_455 S
Mg3 O9 2.099 . S
Mg3 O20 2.079 . S
O4 Mg1 2.180 1_455 S
O4 Mg3 2.099 . S
O4 C15 1.279 1_455 S
O5 Mg1 2.117 . S
O5 C15 1.250 . S
O6 Mg3 2.079 . S
O6 C16 1.264 . S
O7 Mg3 2.072 1_655 S
O7 C17 1.260 . S
Mg8 O9 2.180 . S
Mg8 O10 2.030 . S
Mg8 O11 1.990 1_455 S
Mg8 O12 2.117 1_455 S
O9 Mg3 2.099 . S
O9 Mg8 2.180 . S
O9 C18 1.279 1_455 S
O10 Mg8 2.030 . S
O10 C16 1.248 . S
O11 Mg8 1.990 1_655 S
O11 C17 1.253 . S
O12 Mg8 2.117 1_655 S
O12 C18 1.250 . S
C13 O19 1.248 . S
C13 O20 1.264 . S
C14 O0 1.253 . S
C14 O2 1.260 . S
C15 O4 1.279 1_655 S
C15 O5 1.250 . S
C16 O6 1.264 . S
C16 O10 1.248 . S
C17 O7 1.260 . S
C17 O11 1.253 . S
C18 O9 1.279 1_655 S
C18 O12 1.250 . S
O19 Mg1 2.028 1_455 S
O19 C13 1.248 . S
O20 Mg3 2.079 . S
O20 C13 1.264 . S
O21 Mg22 1.996 . S
O21 C35 1.253 . S
Mg22 O21 1.996 . S
Mg22 O25 2.177 1_545 S
Mg22 O26 2.126 . S
Mg22 O40 2.018 1_545 S
O23 Mg24 2.072 1_545 S
O23 C35 1.260 . S
Mg24 O23 2.072 1_565 S
Mg24 O25 2.099 . S
Mg24 O27 2.079 . S
Mg24 O28 2.072 1_565 S
Mg24 O30 2.099 . S
Mg24 O41 2.079 . S
O25 Mg22 2.177 1_565 S
O25 Mg24 2.099 . S
O25 C36 1.279 1_565 S
O26 Mg22 2.126 . S
O26 C36 1.250 . S
O27 Mg24 2.079 . S
O27 C37 1.264 . S
O28 Mg24 2.072 1_545 S
O28 C38 1.260 . S
Mg29 O30 2.180 1_545 S
Mg29 O31 2.030 1_545 S
Mg29 O32 1.990 . S
Mg29 O33 2.117 . S
O30 Mg24 2.099 . S
O30 Mg29 2.180 1_565 S
O30 C39 1.279 1_565 S
O31 Mg29 2.030 1_565 S
O31 C37 1.248 . S
O32 Mg29 1.990 . S
O32 C38 1.253 . S
O33 Mg29 2.117 . S
O33 C39 1.250 . S
C34 O40 1.248 . S
C34 O41 1.264 . S
C35 O21 1.253 . S
C35 O23 1.260 . S
C36 O25 1.279 1_545 S
C36 O26 1.250 . S
C37 O27 1.264 . S
C37 O31 1.248 . S
C38 O28 1.260 . S
C38 O32 1.253 . S
C39 O30 1.279 1_545 S
C39 O33 1.250 . S
O40 Mg22 2.018 1_565 S
O40 C34 1.248 . S
O41 Mg24 2.079 . S
O41 C34 1.264 . S
O42 Mg43 1.990 . S
O42 C56 1.253 . S
Mg43 O42 1.990 . S
Mg43 O46 2.180 . S
Mg43 O47 2.117 . S
Mg43 O61 2.030 . S
O44 Mg45 2.072 . S
O44 C56 1.260 . S
Mg45 O44 2.072 . S
Mg45 O46 2.099 . S
Mg45 O48 2.079 . S
Mg45 O49 2.072 . S
Mg45 O51 2.099 . S
Mg45 O62 2.079 . S
O46 Mg43 2.180 . S
O46 Mg45 2.099 . S
O46 C57 1.279 . S
O47 Mg43 2.117 . S
O47 C57 1.250 . S
O48 Mg45 2.079 . S
O48 C58 1.264 . S
O49 Mg45 2.072 . S
O49 C59 1.260 . S
Mg50 O51 2.180 . S
Mg50 O52 2.030 . S
Mg50 O53 1.990 . S
Mg50 O54 2.117 . S
O51 Mg45 2.099 . S
O51 Mg50 2.180 . S
O51 C60 1.279 . S
O52 Mg50 2.030 . S
O52 C58 1.248 . S
O53 Mg50 1.990 . S
O53 C59 1.253 . S
O54 Mg50 2.117 . S
O54 C60 1.250 . S
C55 O61 1.248 . S
C55 O62 1.264 . S
C56 O42 1.253 . S
C56 O44 1.260 . S
C57 O46 1.279 . S
C57 O47 1.250 . S
C58 O48 1.264 . S
C58 O52 1.248 . S
C59 O49 1.260 . S
C59 O53 1.253 . S
C60 O51 1.279 . S
C60 O54 1.250 . S
O61 Mg43 2.030 . S
O61 C55 1.248 . S
O62 Mg45 2.079 . S
O62 C55 1.264 . S
H63 C69 0.930 . S
H64 C73 0.930 . S
H65 C78 0.929 . S
H66 C76 0.929 . S
H67 C71 0.929 1_565 S
H68 C77 0.929 . S
C69 H63 0.930 . S
C69 C70 1.367 1_455 S
C69 C77 1.378 . S
C70 C69 1.367 1_655 S
C70 C78 1.433 . S
C71 H67 0.929 1_545 S
C71 C73 1.378 . S
C71 C75 1.350 . S
C72 C75 1.463 1_565 S
C72 C77 1.350 1_655 S
C72 N80 1.427 . S
C73 H64 0.930 . S
C73 C71 1.378 . S
C73 C74 1.367 . S
C74 C73 1.367 . S
C74 C76 1.433 1_655 S
C75 C71 1.350 . S
C75 C72 1.463 1_545 S
C75 N79 1.427 1_655 S
C76 H66 0.929 . S
C76 C74 1.433 1_455 S
C76 N79 1.384 . S
C77 H68 0.929 . S
C77 C69 1.378 . S
C77 C72 1.350 1_455 S
C78 H65 0.929 . S
C78 C70 1.433 . S
C78 N80 1.384 . S
N79 C75 1.427 1_455 S
N79 C76 1.384 . S
N80 C72 1.427 . S
N80 C78 1.384 . S
H81 C87 0.930 . S
H82 C91 0.930 . S
H83 C96 0.929 . S
H84 C94 0.929 . S
H85 C89 0.929 . S
H86 C95 0.929 . S
C87 H81 0.930 . S
C87 C88 1.367 . S
C87 C95 1.378 . S
C88 C87 1.367 . S
C88 C96 1.433 . S
C89 H85 0.929 . S
C89 C91 1.378 . S
C89 C93 1.350 1_655 S
C90 C93 1.463 . S
C90 C95 1.350 . S
C90 N98 1.427 . S
C91 H82 0.930 . S
C91 C89 1.378 . S
C91 C92 1.367 . S
C92 C91 1.367 . S
C92 C94 1.433 . S
C93 C89 1.350 1_455 S
C93 C90 1.463 . S
C93 N97 1.427 1_455 S
C94 H84 0.929 . S
C94 C92 1.433 . S
C94 N97 1.384 . S
C95 H86 0.929 . S
C95 C87 1.378 . S
C95 C90 1.350 . S
C96 H83 0.929 . S
C96 C88 1.433 . S
C96 N98 1.384 . S
N97 C93 1.427 1_655 S
N97 C94 1.384 . S
N98 C90 1.427 . S
N98 C96 1.384 . S
H99 C105 0.930 . S
H100 C109 0.930 . S
H101 C114 0.929 . S
H102 C112 0.929 . S
H103 C107 0.929 . S
H104 C113 0.929 1_545 S
C105 H99 0.930 . S
C105 C106 1.367 . S
C105 C113 1.378 . S
C106 C105 1.367 . S
C106 C114 1.433 . S
C107 H103 0.929 . S
C107 C109 1.378 . S
C107 C111 1.350 . S
C108 C111 1.463 1_655 S
C108 C113 1.350 1_545 S
C108 N116 1.427 1_545 S
C109 H100 0.930 . S
C109 C107 1.378 . S
C109 C110 1.367 . S
C110 C109 1.367 . S
C110 C112 1.433 . S
C111 C107 1.350 . S
C111 C108 1.463 1_455 S
C111 N115 1.427 . S
C112 H102 0.929 . S
C112 C110 1.433 . S
C112 N115 1.384 . S
C113 H104 0.929 1_565 S
C113 C105 1.378 . S
C113 C108 1.350 1_565 S
C114 H101 0.929 . S
C114 C106 1.433 . S
C114 N116 1.384 . S
N115 C111 1.427 . S
N115 C112 1.384 . S
N116 C108 1.427 1_565 S
N116 C114 1.384 . S
H117 C123 0.930 . S
H118 C127 0.930 . S
H119 C132 0.929 . S
H120 C130 0.929 . S
H121 C125 0.929 . S
H122 C131 0.929 . S
C123 H117 0.930 . S
C123 C124 1.367 . S
C123 C131 1.378 . S
C124 C123 1.367 . S
C124 C132 1.433 . S
C125 H121 0.929 . S
C125 C127 1.378 . S
C125 C129 1.350 . S
C126 C129 1.463 1_556 S
C126 C131 1.350 . S
C126 N134 1.427 . S
C127 H118 0.930 . S
C127 C125 1.378 . S
C127 C128 1.367 . S
C128 C127 1.367 . S
C128 C130 1.433 . S
C129 C125 1.350 . S
C129 C126 1.463 1_554 S
C129 N133 1.427 . S
C130 H120 0.929 . S
C130 C128 1.433 . S
C130 N133 1.384 . S
C131 H122 0.929 . S
C131 C123 1.378 . S
C131 C126 1.350 . S
C132 H119 0.929 . S
C132 C124 1.433 . S
C132 N134 1.384 . S
N133 C129 1.427 . S
N133 C130 1.384 . S
N134 C126 1.427 . S
N134 C132 1.384 . S
H135 C141 0.930 . S
H136 C145 0.930 . S
H137 C150 0.929 . S
H138 C148 0.929 . S
H139 C143 0.929 . S
H140 C149 0.929 . S
C141 H135 0.930 . S
C141 C142 1.367 . S
C141 C149 1.378 . S
C142 C141 1.367 . S
C142 C150 1.433 . S
C143 H139 0.929 . S
C143 C145 1.378 . S
C143 C147 1.350 . S
C144 C147 1.463 . S
C144 C149 1.350 . S
C144 N152 1.427 . S
C145 H136 0.930 . S
C145 C143 1.378 . S
C145 C146 1.367 . S
C146 C145 1.367 . S
C146 C148 1.433 . S
C147 C143 1.350 . S
C147 C144 1.463 . S
C147 N151 1.427 . S
C148 H138 0.929 . S
C148 C146 1.433 . S
C148 N151 1.384 . S
C149 H140 0.929 . S
C149 C141 1.378 . S
C149 C144 1.350 . S
C150 H137 0.929 . S
C150 C142 1.433 . S
C150 N152 1.384 . S
N151 C147 1.427 . S
N151 C148 1.384 . S
N152 C144 1.427 . S
N152 C150 1.384 . S
H153 C159 0.930 . S
H154 C163 0.930 . S
H155 C168 0.929 . S
H156 C166 0.929 . S
H157 C161 0.929 . S
H158 C167 0.929 . S
C159 H153 0.930 . S
C159 C160 1.367 . S
C159 C167 1.378 . S
C160 C159 1.367 . S
C160 C168 1.433 . S
C161 H157 0.929 . S
C161 C163 1.378 . S
C161 C165 1.350 . S
C162 C165 1.463 . S
C162 C167 1.350 . S
C162 N170 1.427 . S
C163 H154 0.930 . S
C163 C161 1.378 . S
C163 C164 1.367 . S
C164 C163 1.367 . S
C164 C166 1.433 . S
C165 C161 1.350 . S
C165 C162 1.463 . S
C165 N169 1.427 . S
C166 H156 0.929 . S
C166 C164 1.433 . S
C166 N169 1.384 . S
C167 H158 0.929 . S
C167 C159 1.378 . S
C167 C162 1.350 . S
C168 H155 0.929 . S
C168 C160 1.433 . S
C168 N170 1.384 . S
N169 C165 1.427 . S
N169 C166 1.384 . S
N170 C162 1.427 . S
N170 C168 1.384 . S
H171 C177 0.930 . S
H172 C181 0.930 . S
H173 C186 0.929 . S
H174 C184 0.929 . S
H175 C179 0.929 1_556 S
H176 C185 0.929 . S
C177 H171 0.930 . S
C177 C178 1.367 . S
C177 C185 1.378 . S
C178 C177 1.367 . S
C178 C186 1.433 . S
C179 H175 0.929 1_554 S
C179 C181 1.378 . S
C179 C183 1.350 . S
C180 C183 1.463 1_556 S
C180 C185 1.350 . S
C180 N188 1.427 . S
C181 H172 0.930 . S
C181 C179 1.378 . S
C181 C182 1.367 . S
C182 C181 1.367 . S
C182 C184 1.433 . S
C183 C179 1.350 . S
C183 C180 1.463 1_554 S
C183 N187 1.427 . S
C184 H174 0.929 . S
C184 C182 1.433 . S
C184 N187 1.384 . S
C185 H176 0.929 . S
C185 C177 1.378 . S
C185 C180 1.350 . S
C186 H173 0.929 . S
C186 C178 1.433 . S
C186 N188 1.384 . S
N187 C183 1.427 . S
N187 C184 1.384 . S
N188 C180 1.427 . S
N188 C186 1.384 . S
H189 C195 0.930 . S
H190 C199 0.930 . S
H191 C204 0.929 . S
H192 C202 0.929 . S
H193 C197 0.929 . S
H194 C203 0.929 . S
C195 H189 0.930 . S
C195 C196 1.367 . S
C195 C203 1.378 . S
C196 C195 1.367 . S
C196 C204 1.433 . S
C197 H193 0.929 . S
C197 C199 1.378 . S
C197 C201 1.350 . S
C198 C201 1.463 . S
C198 C203 1.350 . S
C198 N206 1.427 . S
C199 H190 0.930 . S
C199 C197 1.378 . S
C199 C200 1.367 . S
C200 C199 1.367 . S
C200 C202 1.433 . S
C201 C197 1.350 . S
C201 C198 1.463 . S
C201 N205 1.427 . S
C202 H192 0.929 . S
C202 C200 1.433 . S
C202 N205 1.384 . S
C203 H194 0.929 . S
C203 C195 1.378 . S
C203 C198 1.350 . S
C204 H191 0.929 . S
C204 C196 1.433 . S
C204 N206 1.384 . S
N205 C201 1.427 . S
N205 C202 1.384 . S
N206 C198 1.427 . S
N206 C204 1.384 . S
H207 C213 0.930 . S
H208 C217 0.930 . S
H209 C222 0.929 . S
H210 C220 0.929 . S
H211 C215 0.929 . S
H212 C221 0.929 . S
C213 H207 0.930 . S
C213 C214 1.367 . S
C213 C221 1.378 . S
C214 C213 1.367 . S
C214 C222 1.433 . S
C215 H211 0.929 . S
C215 C217 1.378 . S
C215 C219 1.350 . S
C216 C219 1.463 . S
C216 C221 1.350 . S
C216 N224 1.427 . S
C217 H208 0.930 . S
C217 C215 1.378 . S
C217 C218 1.367 . S
C218 C217 1.367 . S
C218 C220 1.433 . S
C219 C215 1.350 . S
C219 C216 1.463 . S
C219 N223 1.427 . S
C220 H210 0.929 . S
C220 C218 1.433 . S
C220 N223 1.384 . S
C221 H212 0.929 . S
C221 C213 1.378 . S
C221 C216 1.350 . S
C222 H209 0.929 . S
C222 C214 1.433 . S
C222 N224 1.384 . S
N223 C219 1.427 . S
N223 C220 1.384 . S
N224 C216 1.427 . S
N224 C222 1.384 . S
C70 C18 1.191 . S
C74 C15 1.191 . S
C88 C36 1.216 . S
C92 C39 1.216 . S
C106 C57 1.200 . S
C110 C60 1.200 . S
C124 C56 1.132 . S
C128 C13 1.076 . S
C142 C35 1.434 . S
C146 C17 1.440 . S
C160 C59 1.138 . S
C164 C37 1.086 . S
C178 C55 1.077 . S
C182 C14 1.141 . S
C196 C16 0.808 . S
C200 C34 0.825 . S
C214 C58 1.081 . S
C218 C38 1.149 . S
