# Generated by pormake.
# Topology dmp, (4)-cn, num edge types: 1
# Building blocks:
#     Node 0, Type 0, BuildingBlock: AZAVOO_clean_sbu_0, # of connection points: 4
#     Node 1, Type 0, BuildingBlock: AZAVOO_clean_sbu_0, # of connection points: 4
#     Node 2, Type 0, BuildingBlock: AZAVOO_clean_sbu_0, # of connection points: 4
#     Node 3, Type 0, BuildingBlock: AZAVOO_clean_sbu_0, # of connection points: 4
#     Edge 4, Type (0, 0), BuildingBlock: EZIPEK_clean_linker_0, # of connection points: 2
#     Edge 5, Type (0, 0), BuildingBlock: EZIPEK_clean_linker_0, # of connection points: 2
#     Edge 6, Type (0, 0), BuildingBlock: EZIPEK_clean_linker_0, # of connection points: 2
#     Edge 7, Type (0, 0), BuildingBlock: EZIPEK_clean_linker_0, # of connection points: 2
#     Edge 8, Type (0, 0), BuildingBlock: EZIPEK_clean_linker_0, # of connection points: 2
#     Edge 9, Type (0, 0), BuildingBlock: EZIPEK_clean_linker_0, # of connection points: 2
#     Edge 10, Type (0, 0), BuildingBlock: EZIPEK_clean_linker_0, # of connection points: 2
#     Edge 11, Type (0, 0), BuildingBlock: EZIPEK_clean_linker_0, # of connection points: 2
# Relax obj value: 0.231
# Max RMSD: 0.261
# Mean RMSD: 0.261
data_MOF--net-dmp--node1-AZAVOO_clean_sbu_0--edge1-EZIPEK_clean_linker_0
_symmetry_space_group_name_H-M    P1
_symmetry_Int_Tables_number       1
_symmetry_cell_setting            triclinic
loop_
_symmetry_equiv_pos_as_xyz
'x, y, z'
_cell_length_a     27.153257
_cell_length_b     11.27433
_cell_length_c     16.11109
_cell_angle_alpha  89.686849
_cell_angle_beta   90.277308
_cell_angle_gamma 101.06291
loop_
_atom_site_label
_atom_site_type_symbol
_atom_site_fract_x
_atom_site_fract_y
_atom_site_fract_z
_atom_type_partial_charge
Mg0 Mg 0.08413 0.1203 0.34693 0.0
O1 O 0.13474 0.27803 0.2801 0.0
O2 O 0.19224 0.20834 0.2074 0.0
Mg3 Mg 0.17629 0.00276 0.22271 0.0
C4 C 0.17199 0.29594 0.23049 0.0
C5 C 0.0276 0.26293 0.45899 0.0
O6 O 0.04838 0.19876 0.51225 0.0
O7 O 0.04339 0.06774 0.22506 0.0
O8 O 0.10145 0.99565 0.1526 0.0
O9 O 0.13789 0.14236 0.45218 0.0
O10 O 0.14198 0.02378 0.34387 0.0
C11 C 0.05783 0.02137 0.15954 0.0
C12 C 0.16214 0.07468 0.41053 0.0
O13 O 0.03249 0.24755 0.38167 0.0
Mg14 Mg 0.41421 0.86568 0.33918 0.0
O15 O 0.34338 0.74152 0.28961 0.0
O16 O 0.29709 0.85442 0.22061 0.0
Mg17 Mg 0.33828 0.05123 0.22722 0.0
C18 C 0.30451 0.75264 0.24764 0.0
C19 C 0.44805 0.66933 0.44592 0.0
O20 O 0.43182 0.7353 0.50269 0.0
O21 O 0.44731 0.88344 0.20897 0.0
O22 O 0.40207 0.00563 0.14674 0.0
O23 O 0.37299 0.89418 0.45317 0.0
O24 O 0.37571 0.00862 0.34197 0.0
C25 C 0.43722 0.94477 0.1464 0.0
C26 C 0.3574 0.98071 0.4147 0.0
O27 O 0.44726 0.69971 0.36987 0.0
Mg28 Mg 0.90953 0.8597 0.67647 0.0
O29 O 0.84007 0.72743 0.72332 0.0
O30 O 0.7901 0.83318 0.78847 0.0
Mg31 Mg 0.82751 0.03328 0.78175 0.0
C32 C 0.79997 0.73342 0.76277 0.0
C33 C 0.95203 0.67611 0.57392 0.0
O34 O 0.93859 0.74637 0.51631 0.0
O35 O 0.94194 0.88478 0.80774 0.0
O36 O 0.89288 1.0003 0.86547 0.0
O37 O 0.8686 0.88112 0.55982 0.0
O38 O 0.86759 0.99606 0.66921 0.0
C39 C 0.93007 0.94592 0.8685 0.0
C40 C 0.85069 0.96543 0.59593 0.0
O41 O 0.94667 0.69963 0.65002 0.0
Mg42 Mg 0.57852 0.09552 0.66023 0.0
O43 O 0.63102 0.25249 0.7239 0.0
O44 O 0.69074 0.18328 0.7926 0.0
Mg45 Mg 0.67447 0.97767 0.77773 0.0
C46 C 0.66955 0.2706 0.77115 0.0
C47 C 0.52072 0.24603 0.55367 0.0
O48 O 0.54108 0.18642 0.49777 0.0
O49 O 0.54172 0.04338 0.78514 0.0
O50 O 0.60202 0.97111 0.85308 0.0
O51 O 0.62941 0.11778 0.55151 0.0
O52 O 0.63631 0.99882 0.65942 0.0
C53 C 0.55827 0.99713 0.84955 0.0
C54 C 0.65484 0.0504 0.59189 0.0
O55 O 0.52631 0.22442 0.6302 0.0
C56 C 0.27407 0.95066 0.48767 0.0
C57 C 0.31271 0.02782 0.44345 0.0
C58 C 0.254 0.16212 0.41184 0.0
C59 C 0.21394 0.06668 0.43333 0.0
N60 N 0.18486 0.87134 0.49617 0.0
N61 N 0.3425 0.22225 0.37977 0.0
C62 C 0.22364 0.96149 0.47319 0.0
C63 C 0.30367 0.1393 0.41133 0.0
N64 N 0.28538 0.87187 0.54611 0.0
N65 N 0.24457 0.27396 0.39295 0.0
H66 H 0.37989 0.21447 0.3879 0.0
H67 H 0.33784 0.29759 0.34518 0.0
H68 H 0.2087 0.29386 0.39539 0.0
H69 H 0.27242 0.34983 0.38253 0.0
H70 H 0.25833 0.81829 0.58289 0.0
H71 H 0.32185 0.87452 0.56739 0.0
H72 H 0.1901 0.78674 0.51657 0.0
H73 H 0.14729 0.87872 0.48996 0.0
C74 C 0.24229 0.44529 0.16304 0.0
C75 C 0.19753 0.42341 0.21042 0.0
C76 C 0.21771 0.62957 0.26491 0.0
C77 C 0.26639 0.64298 0.22985 0.0
N78 N 0.32533 0.5664 0.14298 0.0
N79 N 0.13193 0.51915 0.26273 0.0
C80 C 0.27865 0.552 0.17751 0.0
C81 C 0.18176 0.52294 0.24853 0.0
N82 N 0.24774 0.36966 0.09922 0.0
N83 N 0.20662 0.71535 0.31759 0.0
H84 H 0.10423 0.44955 0.24014 0.0
H85 H 0.11766 0.59222 0.28499 0.0
H86 H 0.2318 0.79485 0.33148 0.0
H87 H 0.1739 0.70328 0.35267 0.0
H88 H 0.27779 0.38486 0.05814 0.0
H89 H 0.21849 0.30113 0.07998 0.0
H90 H 0.33865 0.49715 0.11322 0.0
H91 H 0.35202 0.64595 0.14806 0.0
C92 C 0.74616 0.14265 0.58755 0.0
C93 C 0.7066 0.04507 0.56787 0.0
C94 C 0.76767 0.92799 0.52025 0.0
C95 C 0.80578 0.00879 0.56315 0.0
N96 N 0.8346 0.20741 0.61998 0.0
N97 N 0.67857 0.84711 0.50962 0.0
C98 C 0.7961 0.12167 0.59038 0.0
C99 C 0.717 0.93864 0.53169 0.0
N100 N 0.73593 0.25446 0.60316 0.0
N101 N 0.77969 0.84529 0.46618 0.0
H102 H 0.64092 0.85463 0.51333 0.0
H103 H 0.68404 0.76174 0.49217 0.0
H104 H 0.81635 0.84675 0.44695 0.0
H105 H 0.75313 0.78862 0.43035 0.0
H106 H 0.76331 0.33158 0.61232 0.0
H107 H 0.69982 0.27279 0.59966 0.0
H108 H 0.82965 0.28491 0.65107 0.0
H109 H 0.87209 0.19968 0.61388 0.0
C110 C 0.77498 0.52783 0.82844 0.0
C111 C 0.76263 0.62063 0.77694 0.0
C112 C 0.67879 0.49824 0.75353 0.0
C113 C 0.69473 0.39807 0.79161 0.0
N114 N 0.74436 0.34212 0.90407 0.0
N115 N 0.70347 0.69271 0.68619 0.0
C116 C 0.73904 0.41964 0.84063 0.0
C117 C 0.71442 0.60628 0.73929 0.0
N118 N 0.82139 0.54193 0.86437 0.0
N119 N 0.62902 0.49402 0.73768 0.0
H120 H 0.72845 0.773 0.67333 0.0
H121 H 0.67124 0.68022 0.64945 0.0
H122 H 0.60122 0.42408 0.75956 0.0
H123 H 0.6147 0.56735 0.71519 0.0
H124 H 0.83492 0.47198 0.89361 0.0
H125 H 0.84767 0.62215 0.86058 0.0
H126 H 0.77398 0.35694 0.94638 0.0
H127 H 0.71529 0.27206 0.92177 0.0
C128 C 0.00092 0.88211 0.06401 0.0
C129 C 0.02379 0.00149 0.08685 0.0
C130 C 0.98913 0.08191 0.9625 0.0
C131 C 0.96296 0.96368 0.94303 0.0
N132 N 0.93834 0.75333 0.97988 0.0
N133 N 0.03565 0.21692 0.06445 0.0
C134 C 0.96752 0.86408 0.99485 0.0
C135 C 0.01643 0.10202 0.03827 0.0
N136 N 0.01141 0.78596 0.10819 0.0
N137 N 0.99013 0.17384 0.90633 0.0
H138 H 0.05836 0.23578 0.11695 0.0
H139 H 0.02638 0.29387 0.03745 0.0
H140 H 0.97162 0.1625 0.84922 0.0
H141 H 0.01294 0.25878 0.91252 0.0
H142 H 0.00093 0.69657 0.08912 0.0
H143 H 0.03333 0.79572 0.16198 0.0
H144 H 0.93548 0.67996 0.02025 0.0
H145 H 0.91384 0.73705 0.92956 0.0
C146 C 0.54484 0.04899 0.99744 0.0
C147 C 0.52726 0.98118 0.92559 0.0
C148 C 0.44968 0.89115 0.99798 0.0
C149 C 0.46902 0.95192 0.07158 0.0
N150 N 0.53741 0.0759 0.14566 0.0
N151 N 0.4671 0.82412 0.86012 0.0
C152 C 0.51751 0.02634 0.0727 0.0
C153 C 0.4807 0.89862 0.92644 0.0
N154 N 0.58616 0.13987 0.99255 0.0
N155 N 0.40145 0.82749 0.99626 0.0
H156 H 0.489 0.82682 0.80687 0.0
H157 H 0.43631 0.7531 0.86026 0.0
H158 H 0.37838 0.81563 0.0484 0.0
H159 H 0.38314 0.79288 0.94217 0.0
H160 H 0.5976 0.20137 0.04004 0.0
H161 H 0.60667 0.16152 0.93816 0.0
H162 H 0.57476 0.11863 0.15238 0.0
H163 H 0.5177 0.06702 0.20144 0.0
C164 C 0.02272 0.56654 0.5549 0.0
C165 C 0.97068 0.56702 0.54919 0.0
C166 C 0.95521 0.36476 0.48693 0.0
C167 C 0.00762 0.36762 0.48869 0.0
N168 N 0.09227 0.47682 0.50978 0.0
N169 N 0.88675 0.47219 0.50887 0.0
C170 C 0.04169 0.46976 0.51915 0.0
C171 C 0.93667 0.46762 0.51466 0.0
N172 N 0.05395 0.65847 0.59487 0.0
N173 N 0.92346 0.26275 0.46007 0.0
H174 H 0.87155 0.54275 0.53325 0.0
H175 H 0.86017 0.40865 0.4782 0.0
H176 H 0.93612 0.1863 0.43951 0.0
H177 H 0.88455 0.25038 0.46075 0.0
H178 H 0.09119 0.65682 0.60953 0.0
H179 H 0.04178 0.73353 0.61893 0.0
H180 H 0.11893 0.55442 0.52167 0.0
H181 H 0.10776 0.40828 0.48315 0.0
C182 C 0.43132 0.45748 0.50118 0.0
C183 C 0.46617 0.5592 0.47126 0.0
C184 C 0.53636 0.45896 0.5034 0.0
C185 C 0.50152 0.35445 0.52824 0.0
N186 N 0.41692 0.24969 0.55236 0.0
N187 N 0.55073 0.65497 0.43564 0.0
C188 C 0.44918 0.35256 0.52798 0.0
C189 C 0.51837 0.55924 0.46975 0.0
N190 N 0.38126 0.46155 0.50277 0.0
N191 N 0.58665 0.46442 0.5161 0.0
H192 H 0.53945 0.73314 0.41435 0.0
H193 H 0.58827 0.65436 0.42334 0.0
H194 H 0.60137 0.39313 0.54129 0.0
H195 H 0.61369 0.54269 0.50864 0.0
H196 H 0.35363 0.39505 0.52843 0.0
H197 H 0.36675 0.53402 0.47901 0.0
H198 H 0.37806 0.23851 0.55169 0.0
H199 H 0.42913 0.17185 0.57205 0.0
loop_
_geom_bond_atom_site_label_1
_geom_bond_atom_site_label_2
_geom_bond_distance
_geom_bond_site_symmetry_2
_ccdc_geom_bond_type
Mg0 O1 2.028 . S
Mg0 O7 1.986 . S
Mg0 O9 2.114 . S
Mg0 O10 2.251 . S
Mg0 O13 2.010 . S
O1 Mg0 2.028 . S
O1 C4 1.250 . S
O2 Mg3 2.028 . S
O2 C4 1.248 . S
Mg3 O2 2.028 . S
Mg3 O8 2.032 . S
Mg3 O10 2.079 . S
C4 O1 1.250 . S
C4 O2 1.248 . S
C5 O6 1.264 1_455 S
C5 O13 1.249 . S
O6 C5 1.264 1_655 S
O7 Mg0 1.986 . S
O7 C11 1.246 . S
O8 Mg3 2.032 . S
O8 C11 1.259 . S
O9 Mg0 2.114 . S
O9 C12 1.252 . S
O10 Mg0 2.251 . S
O10 Mg3 2.079 . S
O10 C12 1.273 . S
C11 O7 1.246 . S
C11 O8 1.259 . S
C12 O9 1.252 . S
C12 O10 1.273 . S
O13 Mg0 2.010 . S
O13 C5 1.249 . S
Mg14 O15 2.028 . S
Mg14 O21 1.986 . S
Mg14 O23 2.114 . S
Mg14 O24 2.251 . S
Mg14 O27 2.010 . S
O15 Mg14 2.028 . S
O15 C18 1.250 . S
O16 Mg17 2.028 . S
O16 C18 1.248 . S
Mg17 O16 2.028 . S
Mg17 O22 2.032 . S
Mg17 O24 2.079 . S
C18 O15 1.250 . S
C18 O16 1.248 . S
C19 O20 1.264 . S
C19 O27 1.249 . S
O20 C19 1.264 . S
O21 Mg14 1.986 . S
O21 C25 1.246 . S
O22 Mg17 2.032 . S
O22 C25 1.259 . S
O23 Mg14 2.114 . S
O23 C26 1.252 . S
O24 Mg14 2.251 . S
O24 Mg17 2.079 . S
O24 C26 1.273 . S
C25 O21 1.246 . S
C25 O22 1.259 . S
C26 O23 1.252 . S
C26 O24 1.273 . S
O27 Mg14 2.010 . S
O27 C19 1.249 . S
Mg28 O29 2.028 . S
Mg28 O35 1.986 . S
Mg28 O37 2.114 . S
Mg28 O38 2.251 . S
Mg28 O41 2.010 . S
O29 Mg28 2.028 . S
O29 C32 1.250 . S
O30 Mg31 2.028 . S
O30 C32 1.248 . S
Mg31 O30 2.028 . S
Mg31 O36 2.032 . S
Mg31 O38 2.079 . S
C32 O29 1.250 . S
C32 O30 1.248 . S
C33 O34 1.264 1_655 S
C33 O41 1.249 . S
O34 C33 1.264 1_455 S
O35 Mg28 1.986 . S
O35 C39 1.246 . S
O36 Mg31 2.032 . S
O36 C39 1.259 . S
O37 Mg28 2.114 . S
O37 C40 1.252 . S
O38 Mg28 2.251 . S
O38 Mg31 2.079 . S
O38 C40 1.273 . S
C39 O35 1.246 . S
C39 O36 1.259 . S
C40 O37 1.252 . S
C40 O38 1.273 . S
O41 Mg28 2.010 . S
O41 C33 1.249 . S
Mg42 O43 2.028 . S
Mg42 O49 1.986 . S
Mg42 O51 2.114 . S
Mg42 O52 2.251 . S
Mg42 O55 2.010 . S
O43 Mg42 2.028 . S
O43 C46 1.250 . S
O44 Mg45 2.028 . S
O44 C46 1.248 . S
Mg45 O44 2.028 . S
Mg45 O50 2.032 . S
Mg45 O52 2.079 . S
C46 O43 1.250 . S
C46 O44 1.248 . S
C47 O48 1.264 . S
C47 O55 1.249 . S
O48 C47 1.264 . S
O49 Mg42 1.986 . S
O49 C53 1.246 . S
O50 Mg45 2.032 . S
O50 C53 1.259 . S
O51 Mg42 2.114 . S
O51 C54 1.252 . S
O52 Mg42 2.251 . S
O52 Mg45 2.079 . S
O52 C54 1.273 . S
C53 O49 1.246 . S
C53 O50 1.259 . S
C54 O51 1.252 . S
C54 O52 1.273 . S
O55 Mg42 2.010 . S
O55 C47 1.249 . S
C56 C57 1.363 . S
C56 C62 1.379 . S
C56 N64 1.356 . S
C57 C56 1.363 . S
C57 C63 1.363 1_565 S
C58 C59 1.363 . S
C58 C63 1.379 . S
C58 N65 1.356 . S
C59 C58 1.363 . S
C59 C62 1.363 1_545 S
N60 C62 1.356 . S
N60 H72 0.984 . S
N60 H73 0.985 . S
N61 C63 1.356 . S
N61 H66 0.984 . S
N61 H67 0.985 . S
C62 C56 1.379 . S
C62 C59 1.363 1_565 S
C62 N60 1.356 . S
C63 C57 1.363 1_545 S
C63 C58 1.379 . S
C63 N61 1.356 . S
N64 C56 1.356 . S
N64 H70 0.984 . S
N64 H71 0.984 . S
N65 C58 1.356 . S
N65 H68 0.984 . S
N65 H69 0.985 . S
H66 N61 0.984 . S
H67 N61 0.985 . S
H68 N65 0.984 . S
H69 N65 0.985 . S
H70 N64 0.984 . S
H71 N64 0.984 . S
H72 N60 0.984 . S
H73 N60 0.985 . S
C74 C75 1.363 . S
C74 C80 1.379 . S
C74 N82 1.356 . S
C75 C74 1.363 . S
C75 C81 1.363 . S
C76 C77 1.363 . S
C76 C81 1.379 . S
C76 N83 1.356 . S
C77 C76 1.363 . S
C77 C80 1.363 . S
N78 C80 1.356 . S
N78 H90 0.984 . S
N78 H91 0.985 . S
N79 C81 1.356 . S
N79 H84 0.984 . S
N79 H85 0.985 . S
C80 C74 1.379 . S
C80 C77 1.363 . S
C80 N78 1.356 . S
C81 C75 1.363 . S
C81 C76 1.379 . S
C81 N79 1.356 . S
N82 C74 1.356 . S
N82 H88 0.984 . S
N82 H89 0.984 . S
N83 C76 1.356 . S
N83 H86 0.984 . S
N83 H87 0.985 . S
H84 N79 0.984 . S
H85 N79 0.985 . S
H86 N83 0.984 . S
H87 N83 0.985 . S
H88 N82 0.984 . S
H89 N82 0.984 . S
H90 N78 0.984 . S
H91 N78 0.985 . S
C92 C93 1.363 . S
C92 C98 1.379 . S
C92 N100 1.356 . S
C93 C92 1.363 . S
C93 C99 1.363 1_545 S
C94 C95 1.363 . S
C94 C99 1.379 . S
C94 N101 1.356 . S
C95 C94 1.363 . S
C95 C98 1.363 1_565 S
N96 C98 1.356 . S
N96 H108 0.984 . S
N96 H109 0.985 . S
N97 C99 1.356 . S
N97 H102 0.984 . S
N97 H103 0.985 . S
C98 C92 1.379 . S
C98 C95 1.363 1_545 S
C98 N96 1.356 . S
C99 C93 1.363 1_565 S
C99 C94 1.379 . S
C99 N97 1.356 . S
N100 C92 1.356 . S
N100 H106 0.984 . S
N100 H107 0.984 . S
N101 C94 1.356 . S
N101 H104 0.984 . S
N101 H105 0.985 . S
H102 N97 0.984 . S
H103 N97 0.985 . S
H104 N101 0.984 . S
H105 N101 0.985 . S
H106 N100 0.984 . S
H107 N100 0.984 . S
H108 N96 0.984 . S
H109 N96 0.985 . S
C110 C111 1.363 . S
C110 C116 1.379 . S
C110 N118 1.356 . S
C111 C110 1.363 . S
C111 C117 1.363 . S
C112 C113 1.363 . S
C112 C117 1.379 . S
C112 N119 1.356 . S
C113 C112 1.363 . S
C113 C116 1.363 . S
N114 C116 1.356 . S
N114 H126 0.984 . S
N114 H127 0.985 . S
N115 C117 1.356 . S
N115 H120 0.984 . S
N115 H121 0.985 . S
C116 C110 1.379 . S
C116 C113 1.363 . S
C116 N114 1.356 . S
C117 C111 1.363 . S
C117 C112 1.379 . S
C117 N115 1.356 . S
N118 C110 1.356 . S
N118 H124 0.984 . S
N118 H125 0.984 . S
N119 C112 1.356 . S
N119 H122 0.984 . S
N119 H123 0.985 . S
H120 N115 0.984 . S
H121 N115 0.985 . S
H122 N119 0.984 . S
H123 N119 0.985 . S
H124 N118 0.984 . S
H125 N118 0.984 . S
H126 N114 0.984 . S
H127 N114 0.985 . S
C128 C129 1.363 1_565 S
C128 C134 1.379 1_455 S
C128 N136 1.356 . S
C129 C128 1.363 1_545 S
C129 C135 1.363 1_554 S
C130 C131 1.363 1_545 S
C130 C135 1.379 1_655 S
C130 N137 1.356 . S
C131 C130 1.363 1_565 S
C131 C134 1.363 1_556 S
N132 C134 1.356 . S
N132 H144 0.984 . S
N132 H145 0.985 1_554 S
N133 C135 1.356 . S
N133 H138 0.984 1_556 S
N133 H139 0.985 . S
C134 C128 1.379 1_655 S
C134 C131 1.363 1_554 S
C134 N132 1.356 . S
C135 C129 1.363 1_556 S
C135 C130 1.379 1_455 S
C135 N133 1.356 . S
N136 C128 1.356 . S
N136 H142 0.984 . S
N136 H143 0.984 1_565 S
N137 C130 1.356 . S
N137 H140 0.984 1_545 S
N137 H141 0.985 . S
H138 N133 0.984 1_554 S
H139 N133 0.985 . S
H140 N137 0.984 1_565 S
H141 N137 0.985 . S
H142 N136 0.984 . S
H143 N136 0.984 1_545 S
H144 N132 0.984 . S
H145 N132 0.985 1_556 S
C146 C147 1.363 1_554 S
C146 C152 1.378 . S
C146 N154 1.356 . S
C147 C146 1.363 1_556 S
C147 C153 1.364 1_545 S
C148 C149 1.363 1_556 S
C148 C153 1.378 . S
C148 N155 1.356 . S
C149 C148 1.363 1_554 S
C149 C152 1.364 1_565 S
N150 C152 1.357 1_565 S
N150 H162 0.984 1_565 S
N150 H163 0.985 . S
N151 C153 1.356 1_545 S
N151 H156 0.984 . S
N151 H157 0.985 1_545 S
C152 C146 1.378 . S
C152 C149 1.364 1_545 S
C152 N150 1.357 1_545 S
C153 C147 1.364 1_565 S
C153 C148 1.378 . S
C153 N151 1.356 1_565 S
N154 C146 1.356 . S
N154 H160 0.984 . S
N154 H161 0.984 1_554 S
N155 C148 1.356 . S
N155 H158 0.984 1_556 S
N155 H159 0.985 . S
H156 N151 0.984 . S
H157 N151 0.985 1_565 S
H158 N155 0.984 1_554 S
H159 N155 0.985 . S
H160 N154 0.984 . S
H161 N154 0.984 1_556 S
H162 N150 0.984 1_545 S
H163 N150 0.985 . S
C164 C165 1.363 1_455 S
C164 C170 1.379 . S
C164 N172 1.356 . S
C165 C164 1.363 1_655 S
C165 C171 1.363 . S
C166 C167 1.363 1_655 S
C166 C171 1.379 . S
C166 N173 1.356 . S
C167 C166 1.363 1_455 S
C167 C170 1.363 . S
N168 C170 1.356 . S
N168 H180 0.984 . S
N168 H181 0.985 . S
N169 C171 1.356 . S
N169 H174 0.984 . S
N169 H175 0.985 . S
C170 C164 1.379 . S
C170 C167 1.363 . S
C170 N168 1.356 . S
C171 C165 1.363 . S
C171 C166 1.379 . S
C171 N169 1.356 . S
N172 C164 1.356 . S
N172 H178 0.984 . S
N172 H179 0.984 . S
N173 C166 1.356 . S
N173 H176 0.984 . S
N173 H177 0.985 . S
H174 N169 0.984 . S
H175 N169 0.985 . S
H176 N173 0.984 . S
H177 N173 0.985 . S
H178 N172 0.984 . S
H179 N172 0.984 . S
H180 N168 0.984 . S
H181 N168 0.985 . S
C182 C183 1.363 . S
C182 C188 1.379 . S
C182 N190 1.356 . S
C183 C182 1.363 . S
C183 C189 1.363 . S
C184 C185 1.363 . S
C184 C189 1.379 . S
C184 N191 1.356 . S
C185 C184 1.363 . S
C185 C188 1.363 . S
N186 C188 1.356 . S
N186 H198 0.984 . S
N186 H199 0.985 . S
N187 C189 1.356 . S
N187 H192 0.984 . S
N187 H193 0.985 . S
C188 C182 1.379 . S
C188 C185 1.363 . S
C188 N186 1.356 . S
C189 C183 1.363 . S
C189 C184 1.379 . S
C189 N187 1.356 . S
N190 C182 1.356 . S
N190 H196 0.984 . S
N190 H197 0.984 . S
N191 C184 1.356 . S
N191 H194 0.984 . S
N191 H195 0.985 . S
H192 N187 0.984 . S
H193 N187 0.985 . S
H194 N191 0.984 . S
H195 N191 0.985 . S
H196 N190 0.984 . S
H197 N190 0.984 . S
H198 N186 0.984 . S
H199 N186 0.985 . S
C57 C26 1.164 . S
C59 C12 1.164 . S
C75 C4 0.968 . S
C77 C18 0.968 . S
C93 C54 1.164 . S
C95 C40 1.164 . S
C111 C32 0.968 . S
C113 C46 0.968 . S
C129 C11 1.527 . S
C131 C39 1.527 . S
C147 C53 1.527 . S
C149 C25 1.527 . S
C165 C33 1.630 . S
C167 C5 1.630 . S
C183 C19 1.630 . S
C185 C47 1.630 . S
