# Generated by pormake.
# Topology wli, (5)-cn, num edge types: 1
# Building blocks:
#     Node 0, Type 0, BuildingBlock: XOMCOT_clean_sbu_0, # of connection points: 5
#     Node 1, Type 0, BuildingBlock: XOMCOT_clean_sbu_0, # of connection points: 5
#     Node 2, Type 0, BuildingBlock: XOMCOT_clean_sbu_0, # of connection points: 5
#     Node 3, Type 0, BuildingBlock: XOMCOT_clean_sbu_0, # of connection points: 5
#     Node 4, Type 0, BuildingBlock: XOMCOT_clean_sbu_0, # of connection points: 5
#     Node 5, Type 0, BuildingBlock: XOMCOT_clean_sbu_0, # of connection points: 5
#     Edge 6, Type (0, 0), None
#     Edge 7, Type (0, 0), None
#     Edge 8, Type (0, 0), None
#     Edge 9, Type (0, 0), None
#     Edge 10, Type (0, 0), None
#     Edge 11, Type (0, 0), None
#     Edge 12, Type (0, 0), None
#     Edge 13, Type (0, 0), None
#     Edge 14, Type (0, 0), None
#     Edge 15, Type (0, 0), None
#     Edge 16, Type (0, 0), None
#     Edge 17, Type (0, 0), None
#     Edge 18, Type (0, 0), None
#     Edge 19, Type (0, 0), None
#     Edge 20, Type (0, 0), None
# Relax obj value: 0.148
# Max RMSD: 0.159
# Mean RMSD: 0.159
data_MOF--net-wli--node1-XOMCOT_clean_sbu_0--edge1-none
_symmetry_space_group_name_H-M    P1
_symmetry_Int_Tables_number       1
_symmetry_cell_setting            triclinic
loop_
_symmetry_equiv_pos_as_xyz
'x, y, z'
_cell_length_a     17.491126
_cell_length_b     17.067471
_cell_length_c     14.048262
_cell_angle_alpha  89.974495
_cell_angle_beta   90.060121
_cell_angle_gamma 122.07483
loop_
_atom_site_label
_atom_site_type_symbol
_atom_site_fract_x
_atom_site_fract_y
_atom_site_fract_z
_atom_type_partial_charge
Co0 Co 0.28568 0.48964 0.14306 0.0
C1 C 0.14727 0.36674 0.28659 0.0
C2 C 0.17684 0.28872 0.19047 0.0
C3 C 0.10781 0.22773 0.2503 0.0
N4 N 0.20215 0.37623 0.21324 0.0
N5 N 0.08942 0.27719 0.31027 0.0
H6 H 0.14666 0.42351 0.31955 0.0
H7 H 0.20334 0.26952 0.13164 0.0
C8 C 0.39946 0.43111 0.0189 0.0
O9 O 0.44431 0.50844 0.9708 0.0
N10 N 0.36407 0.60562 0.07623 0.0
C11 C 0.33615 0.66262 0.04991 0.0
C12 C 0.40848 0.7447 0.01767 0.0
C13 C 0.45411 0.65562 0.06181 0.0
N14 N 0.48223 0.73904 0.02211 0.0
C15 C 0.11538 0.43208 0.05569 0.0
C16 C 0.17075 0.43111 0.87162 0.0
C17 C 0.08348 0.41249 0.8861 0.0
C18 C 1.05591 0.41337 0.98001 0.0
C19 C 0.22812 0.45178 0.94842 0.0
N20 N 0.20017 0.45041 0.03918 0.0
H21 H 0.09431 0.43441 0.12738 0.0
H22 H 0.29613 0.47259 0.93343 0.0
H23 H 0.26705 0.6452 0.05325 0.0
H24 H 0.49911 0.63266 0.08066 0.0
O25 O 0.24555 0.55675 0.21692 0.0
O26 O 0.36099 0.54296 0.25547 0.0
O27 O 0.34193 0.41959 0.08371 0.0
C28 C 0.31231 0.57838 0.27419 0.0
H29 H 1.07183 0.15306 0.2471 0.0
H30 H 0.4049 0.79951 0.98326 0.0
H31 H 0.19559 0.43012 0.80138 0.0
H32 H 0.98989 0.40142 0.99523 0.0
Co33 Co 0.632 0.84476 0.8251 0.0
C34 C 0.7589 0.83232 0.95678 0.0
C35 C 0.82594 0.96303 0.88494 0.0
C36 C 0.88707 0.96044 0.94544 0.0
N37 N 0.74526 0.8824 0.89164 0.0
N38 N 0.84436 0.87809 0.99005 0.0
H39 H 0.70777 0.76336 0.97904 0.0
H40 H 0.84058 1.02044 0.83957 0.0
C41 C 0.69 1.01426 0.68643 0.0
O42 O 0.61429 0.97943 0.63907 0.0
N43 N 0.51621 0.80169 0.76381 0.0
C44 C 0.45585 0.71195 0.74362 0.0
C45 C 0.37971 0.7037 0.705 0.0
C46 C 0.47399 0.84612 0.74045 0.0
N47 N 0.39298 0.78882 0.69925 0.0
C48 C 0.69273 0.73467 0.73681 0.0
C49 C 0.67375 0.78009 0.55284 0.0
C50 C 0.70804 0.72349 0.56648 0.0
C51 C 0.7146 0.69801 0.6602 0.0
C52 C 0.64978 0.81156 0.63052 0.0
N53 N 0.66416 0.79385 0.7211 0.0
H54 H 0.69749 0.71449 0.80827 0.0
H55 H 0.6169 0.84785 0.61663 0.0
H56 H 0.46771 0.6564 0.75346 0.0
H57 H 0.50081 0.91855 0.75394 0.0
O58 O 0.57064 0.73635 0.9041 0.0
O59 O 0.58489 0.87069 0.93737 0.0
O60 O 0.69896 0.97189 0.7575 0.0
C61 C 0.5515 0.78407 0.96002 0.0
H62 H 0.95713 1.01448 0.95514 0.0
H63 H 0.32401 0.64169 0.6731 0.0
H64 H 0.6663 0.80192 0.48298 0.0
H65 H 0.73648 0.65063 0.67477 0.0
Co66 Co 0.29559 0.8282 0.49419 0.0
C67 C 0.31451 0.98259 0.61222 0.0
C68 C 0.17646 0.89125 0.57189 0.0
C69 C 0.18206 0.95945 0.6306 0.0
N70 N 0.26002 0.90667 0.5584 0.0
N71 N 0.26896 1.01611 0.6558 0.0
H72 H 0.38589 1.0117 0.622 0.0
H73 H 0.11458 0.8323 0.54544 0.0
C74 C 0.12546 0.76762 0.37471 0.0
O75 O 0.15247 0.85302 0.3512 0.0
N76 N 0.33321 0.75016 0.43378 0.0
C77 C 0.41232 0.75488 0.44671 0.0
C78 C 0.41249 0.68728 0.39313 0.0
C79 C 0.28675 0.67946 0.37172 0.0
N80 N 0.33418 0.64128 0.34489 0.0
C81 C 0.41096 1.00367 0.40047 0.0
C82 C 0.35365 0.93944 0.21765 0.0
C83 C 0.41709 1.03394 0.2307 0.0
C84 C 0.44737 1.06537 0.32384 0.0
C85 C 0.32093 0.88028 0.29565 0.0
N86 N 0.34545 0.91302 0.38638 0.0
H87 H 0.43673 1.02884 0.47081 0.0
H88 H 0.27346 0.8081 0.28219 0.0
H89 H 0.46755 0.80482 0.49079 0.0
H90 H 0.22032 0.65725 0.34464 0.0
O91 O 0.40111 0.88185 0.57562 0.0
O92 O 0.26902 0.75494 0.60802 0.0
O93 O 0.17225 0.75026 0.4313 0.0
C94 C 0.3526 0.81235 0.63258 0.0
H95 H 0.12639 0.96427 0.65629 0.0
H96 H 0.46779 0.67625 0.38635 0.0
H97 H 0.32728 0.9107 0.14798 0.0
H98 H 0.49925 0.13671 0.33788 0.0
Co99 Co 0.52193 0.29196 0.87634 0.0
C100 C 0.38374 0.12831 0.76792 0.0
C101 C 0.33547 0.21769 0.79763 0.0
C102 C 0.27328 0.14618 0.73951 0.0
N103 N 0.40445 0.20578 0.81704 0.0
N104 N 0.30474 0.09095 0.72087 0.0
H105 H 0.42733 0.10163 0.76228 0.0
H106 H 0.33254 0.27689 0.81858 0.0
C107 C 0.41032 0.35361 0.98971 0.0
O108 O 0.35131 0.26885 0.01747 0.0
N109 N 0.64153 0.37577 0.93089 0.0
C110 C 0.71729 0.37452 0.91433 0.0
C111 C 0.78812 0.4444 0.96468 0.0
C112 C 0.66794 0.44647 0.99225 0.0
N113 N 0.75637 0.48816 0.01468 0.0
C114 C 0.47305 0.1261 0.97785 0.0
C115 C 0.47326 0.1907 0.15817 0.0
C116 C 0.44888 0.09845 0.14771 0.0
C117 C 0.45213 1.06764 0.05595 0.0
C118 C 0.49614 0.24753 0.07821 0.0
N119 N 0.49069 0.21359 0.98866 0.0
H120 H 0.47665 0.10106 0.9088 0.0
H121 H 0.51694 0.3186 0.08907 0.0
H122 H 0.72176 0.32505 0.87066 0.0
H123 H 0.62323 0.46566 0.0224 0.0
O124 O 0.5736 0.23771 0.79934 0.0
O125 O 0.56509 0.35828 0.75736 0.0
O126 O 0.47607 0.37017 0.93459 0.0
C127 C 0.59257 0.30256 0.73776 0.0
H128 H 0.21299 0.13877 0.70883 0.0
H129 H 0.85593 0.45786 0.96904 0.0
H130 H 0.47313 0.21894 0.22708 0.0
H131 H 0.4391 0.99895 0.04389 0.0
Co132 Co 0.83493 0.27537 0.53028 0.0
C133 C 0.99014 0.29134 0.42518 0.0
C134 C 0.88946 0.14941 0.45258 0.0
C135 C 0.95462 0.15276 0.39384 0.0
N136 N 0.9121 0.23646 0.47363 0.0
N137 N 1.01748 0.2422 0.37668 0.0
H138 H 1.0228 0.36537 0.41912 0.0
H139 H 0.82685 0.08734 0.47232 0.0
C140 C 0.76805 0.10115 0.6501 0.0
O141 O 0.85039 0.1269 0.67583 0.0
N142 N 0.75808 0.31602 0.58281 0.0
C143 C 0.7666 0.39882 0.56913 0.0
C144 C 0.69985 0.40093 0.61865 0.0
C145 C 0.68617 0.26931 0.64124 0.0
N146 N 0.65099 0.32029 0.66554 0.0
C147 C 0.99966 0.39132 0.63314 0.0
C148 C 0.92902 0.32747 0.81269 0.0
C149 C 1.02207 0.38949 0.80328 0.0
C150 C 1.05641 0.42511 0.71224 0.0
C151 C 0.87452 0.29796 0.732 0.0
N152 N 0.91091 0.32405 0.64288 0.0
H153 H 1.02725 0.41986 0.56428 0.0
H154 H 0.80329 0.25065 0.742 0.0
H155 H 0.81921 0.45567 0.52842 0.0
H156 H 0.66206 0.20099 0.66922 0.0
O157 O 0.89411 0.38412 0.45055 0.0
O158 O 0.7706 0.25071 0.41197 0.0
O159 O 0.75382 0.14944 0.59124 0.0
C160 C 0.82889 0.33664 0.39009 0.0
H161 H 0.95281 0.09407 0.36206 0.0
H162 H 0.69255 0.45986 0.62559 0.0
H163 H 0.89825 0.29886 0.88102 0.0
H164 H 0.12675 0.47793 0.70149 0.0
Co165 Co 0.86419 0.63326 0.21851 0.0
C166 C 0.84017 0.75899 0.09375 0.0
C167 C 0.97393 0.83039 0.15199 0.0
C168 C 0.9658 0.89032 0.09245 0.0
N169 N 0.89496 0.7477 0.15284 0.0
N170 N 0.8816 0.84471 0.05628 0.0
H171 H 0.77149 0.7055 0.07741 0.0
H172 H 1.03405 0.84671 0.19069 0.0
C173 C 1.03794 0.68983 0.34001 0.0
O174 O 1.00429 0.61036 0.38359 0.0
N175 N 0.82505 0.51575 0.27975 0.0
C176 C 0.73793 0.45645 0.30376 0.0
C177 C 0.72626 0.37378 0.33109 0.0
C178 C 0.86456 0.46655 0.29067 0.0
N179 N 0.80695 0.38167 0.32733 0.0
C180 C 0.7474 0.67689 0.31347 0.0
C181 C 0.81257 0.68289 0.49463 0.0
C182 C 0.74133 0.69678 0.4835 0.0
C183 C 0.70685 0.6909 0.39134 0.0
C184 C 0.84803 0.66511 0.41564 0.0
N185 N 0.81843 0.66609 0.3261 0.0
H186 H 0.71996 0.67192 0.24335 0.0
H187 H 0.89679 0.6472 0.42834 0.0
H188 H 0.68594 0.47261 0.30211 0.0
H189 H 0.93344 0.4908 0.27111 0.0
O190 O 0.75452 0.56735 0.14577 0.0
O191 O 0.88558 0.58615 0.10283 0.0
O192 O 0.99217 0.70329 0.27744 0.0
C193 C 0.79975 0.54994 0.08561 0.0
H194 H 1.01778 0.96118 0.07671 0.0
H195 H 0.66573 0.317 0.36325 0.0
H196 H 0.84197 0.68624 0.56346 0.0
H197 H 0.64898 0.69663 0.37873 0.0
loop_
_geom_bond_atom_site_label_1
_geom_bond_atom_site_label_2
_geom_bond_distance
_geom_bond_site_symmetry_2
_ccdc_geom_bond_type
Co0 N4 2.148 . S
Co0 N10 2.128 1_554 S
Co0 N20 2.194 1_554 S
Co0 O25 2.351 . S
Co0 O26 2.155 . S
Co0 O27 2.096 . S
C1 N4 1.301 . S
C1 N5 1.328 . S
C1 H6 0.930 . S
C2 C3 1.333 . S
C2 N4 1.317 . S
C2 H7 0.930 . S
C3 C2 1.333 . S
C3 N5 1.350 . S
C3 H29 0.931 . S
N4 Co0 2.148 . S
N4 C1 1.301 . S
N4 C2 1.317 . S
N5 C1 1.328 . S
N5 C3 1.350 . S
H6 C1 0.930 . S
H7 C2 0.930 . S
C8 O9 1.224 . S
C8 O27 1.247 . S
O9 C8 1.224 . S
N10 Co0 2.128 1_556 S
N10 C11 1.355 . S
N10 C13 1.311 . S
C11 N10 1.355 . S
C11 C12 1.363 . S
C11 H23 0.929 . S
C12 C11 1.363 . S
C12 N14 1.375 . S
C12 H30 0.931 . S
C13 N10 1.311 . S
C13 N14 1.347 . S
C13 H24 0.929 . S
N14 C12 1.375 . S
N14 C13 1.347 . S
C15 C18 1.365 . S
C15 N20 1.328 . S
C15 H21 0.929 1_556 S
C16 C17 1.362 1_455 S
C16 C19 1.378 . S
C16 H31 0.929 . S
C17 C16 1.362 1_655 S
C17 C18 1.366 1_655 S
C18 C15 1.365 . S
C18 C17 1.366 1_455 S
C18 H32 0.930 1_455 S
C19 C16 1.378 . S
C19 N20 1.315 . S
C19 H22 0.930 . S
N20 Co0 2.194 1_556 S
N20 C15 1.328 . S
N20 C19 1.315 . S
H21 C15 0.929 1_554 S
H22 C19 0.930 . S
H23 C11 0.929 . S
H24 C13 0.929 . S
O25 Co0 2.351 . S
O25 C28 1.244 . S
O26 Co0 2.155 . S
O26 C28 1.240 . S
O27 Co0 2.096 . S
O27 C8 1.247 . S
C28 O25 1.244 . S
C28 O26 1.240 . S
H29 C3 0.931 . S
H30 C12 0.931 . S
H31 C16 0.929 . S
H32 C18 0.930 1_655 S
Co33 N37 2.148 . S
Co33 N43 2.128 . S
Co33 N53 2.194 . S
Co33 O58 2.351 . S
Co33 O59 2.155 . S
Co33 O60 2.096 . S
C34 N37 1.301 . S
C34 N38 1.328 . S
C34 H39 0.930 . S
C35 C36 1.333 . S
C35 N37 1.317 . S
C35 H40 0.930 . S
C36 C35 1.333 . S
C36 N38 1.350 . S
C36 H62 0.931 . S
N37 Co33 2.148 . S
N37 C34 1.301 . S
N37 C35 1.317 . S
N38 C34 1.328 . S
N38 C36 1.350 . S
H39 C34 0.930 . S
H40 C35 0.930 . S
C41 O42 1.224 . S
C41 O60 1.247 . S
O42 C41 1.224 . S
N43 Co33 2.128 . S
N43 C44 1.355 . S
N43 C46 1.311 . S
C44 N43 1.355 . S
C44 C45 1.363 . S
C44 H56 0.929 . S
C45 C44 1.363 . S
C45 N47 1.375 . S
C45 H63 0.931 . S
C46 N43 1.311 . S
C46 N47 1.347 . S
C46 H57 0.929 . S
N47 C45 1.375 . S
N47 C46 1.347 . S
C48 C51 1.365 . S
C48 N53 1.328 . S
C48 H54 0.929 . S
C49 C50 1.362 . S
C49 C52 1.378 . S
C49 H64 0.929 . S
C50 C49 1.362 . S
C50 C51 1.366 . S
C51 C48 1.365 . S
C51 C50 1.366 . S
C51 H65 0.930 . S
C52 C49 1.378 . S
C52 N53 1.315 . S
C52 H55 0.930 . S
N53 Co33 2.194 . S
N53 C48 1.328 . S
N53 C52 1.315 . S
H54 C48 0.929 . S
H55 C52 0.930 . S
H56 C44 0.929 . S
H57 C46 0.929 . S
O58 Co33 2.351 . S
O58 C61 1.244 . S
O59 Co33 2.155 . S
O59 C61 1.240 . S
O60 Co33 2.096 . S
O60 C41 1.247 . S
C61 O58 1.244 . S
C61 O59 1.240 . S
H62 C36 0.931 . S
H63 C45 0.931 . S
H64 C49 0.929 . S
H65 C51 0.930 . S
Co66 N70 2.148 . S
Co66 N76 2.128 . S
Co66 N86 2.194 . S
Co66 O91 2.351 . S
Co66 O92 2.155 . S
Co66 O93 2.096 . S
C67 N70 1.301 . S
C67 N71 1.328 . S
C67 H72 0.930 . S
C68 C69 1.333 . S
C68 N70 1.317 . S
C68 H73 0.930 . S
C69 C68 1.333 . S
C69 N71 1.350 . S
C69 H95 0.931 . S
N70 Co66 2.148 . S
N70 C67 1.301 . S
N70 C68 1.317 . S
N71 C67 1.328 . S
N71 C69 1.350 . S
H72 C67 0.930 . S
H73 C68 0.930 . S
C74 O75 1.224 . S
C74 O93 1.247 . S
O75 C74 1.224 . S
N76 Co66 2.128 . S
N76 C77 1.355 . S
N76 C79 1.311 . S
C77 N76 1.355 . S
C77 C78 1.363 . S
C77 H89 0.929 . S
C78 C77 1.363 . S
C78 N80 1.375 . S
C78 H96 0.931 . S
C79 N76 1.311 . S
C79 N80 1.347 . S
C79 H90 0.929 . S
N80 C78 1.375 . S
N80 C79 1.347 . S
C81 C84 1.365 . S
C81 N86 1.328 . S
C81 H87 0.929 . S
C82 C83 1.362 . S
C82 C85 1.378 . S
C82 H97 0.929 . S
C83 C82 1.362 . S
C83 C84 1.366 . S
C84 C81 1.365 . S
C84 C83 1.366 . S
C84 H98 0.930 1_565 S
C85 C82 1.378 . S
C85 N86 1.315 . S
C85 H88 0.930 . S
N86 Co66 2.194 . S
N86 C81 1.328 . S
N86 C85 1.315 . S
H87 C81 0.929 . S
H88 C85 0.930 . S
H89 C77 0.929 . S
H90 C79 0.929 . S
O91 Co66 2.351 . S
O91 C94 1.244 . S
O92 Co66 2.155 . S
O92 C94 1.240 . S
O93 Co66 2.096 . S
O93 C74 1.247 . S
C94 O91 1.244 . S
C94 O92 1.240 . S
H95 C69 0.931 . S
H96 C78 0.931 . S
H97 C82 0.929 . S
H98 C84 0.930 1_545 S
Co99 N103 2.148 . S
Co99 N109 2.128 1_556 S
Co99 N119 2.194 1_556 S
Co99 O124 2.351 . S
Co99 O125 2.155 . S
Co99 O126 2.096 . S
C100 N103 1.301 . S
C100 N104 1.328 . S
C100 H105 0.930 . S
C101 C102 1.333 . S
C101 N103 1.317 . S
C101 H106 0.930 . S
C102 C101 1.333 . S
C102 N104 1.350 . S
C102 H128 0.931 . S
N103 Co99 2.148 . S
N103 C100 1.301 . S
N103 C101 1.317 . S
N104 C100 1.328 . S
N104 C102 1.350 . S
H105 C100 0.930 . S
H106 C101 0.930 . S
C107 O108 1.224 . S
C107 O126 1.247 . S
O108 C107 1.224 . S
N109 Co99 2.128 1_554 S
N109 C110 1.355 . S
N109 C112 1.311 . S
C110 N109 1.355 . S
C110 C111 1.363 . S
C110 H122 0.929 . S
C111 C110 1.363 . S
C111 N113 1.375 . S
C111 H129 0.931 . S
C112 N109 1.311 . S
C112 N113 1.347 . S
C112 H123 0.929 . S
N113 C111 1.375 . S
N113 C112 1.347 . S
C114 C117 1.365 . S
C114 N119 1.328 . S
C114 H120 0.929 1_554 S
C115 C116 1.362 1_545 S
C115 C118 1.378 . S
C115 H130 0.929 . S
C116 C115 1.362 1_565 S
C116 C117 1.366 1_565 S
C117 C114 1.365 . S
C117 C116 1.366 1_545 S
C117 H131 0.930 1_545 S
C118 C115 1.378 . S
C118 N119 1.315 . S
C118 H121 0.930 . S
N119 Co99 2.194 1_554 S
N119 C114 1.328 . S
N119 C118 1.315 . S
H120 C114 0.929 1_556 S
H121 C118 0.930 . S
H122 C110 0.929 . S
H123 C112 0.929 . S
O124 Co99 2.351 . S
O124 C127 1.244 . S
O125 Co99 2.155 . S
O125 C127 1.240 . S
O126 Co99 2.096 . S
O126 C107 1.247 . S
C127 O124 1.244 . S
C127 O125 1.240 . S
H128 C102 0.931 . S
H129 C111 0.931 . S
H130 C115 0.929 . S
H131 C117 0.930 1_565 S
Co132 N136 2.148 . S
Co132 N142 2.128 . S
Co132 N152 2.194 . S
Co132 O157 2.351 . S
Co132 O158 2.155 . S
Co132 O159 2.096 . S
C133 N136 1.301 . S
C133 N137 1.328 . S
C133 H138 0.930 . S
C134 C135 1.333 . S
C134 N136 1.317 . S
C134 H139 0.930 . S
C135 C134 1.333 . S
C135 N137 1.350 . S
C135 H161 0.931 . S
N136 Co132 2.148 . S
N136 C133 1.301 . S
N136 C134 1.317 . S
N137 C133 1.328 . S
N137 C135 1.350 . S
H138 C133 0.930 . S
H139 C134 0.930 . S
C140 O141 1.224 . S
C140 O159 1.247 . S
O141 C140 1.224 . S
N142 Co132 2.128 . S
N142 C143 1.355 . S
N142 C145 1.311 . S
C143 N142 1.355 . S
C143 C144 1.363 . S
C143 H155 0.929 . S
C144 C143 1.363 . S
C144 N146 1.375 . S
C144 H162 0.931 . S
C145 N142 1.311 . S
C145 N146 1.347 . S
C145 H156 0.929 . S
N146 C144 1.375 . S
N146 C145 1.347 . S
C147 C150 1.365 . S
C147 N152 1.328 . S
C147 H153 0.929 . S
C148 C149 1.362 . S
C148 C151 1.378 . S
C148 H163 0.929 . S
C149 C148 1.362 . S
C149 C150 1.366 . S
C150 C147 1.365 . S
C150 C149 1.366 . S
C150 H164 0.930 1_655 S
C151 C148 1.378 . S
C151 N152 1.315 . S
C151 H154 0.930 . S
N152 Co132 2.194 . S
N152 C147 1.328 . S
N152 C151 1.315 . S
H153 C147 0.929 . S
H154 C151 0.930 . S
H155 C143 0.929 . S
H156 C145 0.929 . S
O157 Co132 2.351 . S
O157 C160 1.244 . S
O158 Co132 2.155 . S
O158 C160 1.240 . S
O159 Co132 2.096 . S
O159 C140 1.247 . S
C160 O157 1.244 . S
C160 O158 1.240 . S
H161 C135 0.931 . S
H162 C144 0.931 . S
H163 C148 0.929 . S
H164 C150 0.930 1_455 S
Co165 N169 2.148 . S
Co165 N175 2.128 . S
Co165 N185 2.194 . S
Co165 O190 2.351 . S
Co165 O191 2.155 . S
Co165 O192 2.096 . S
C166 N169 1.301 . S
C166 N170 1.328 . S
C166 H171 0.930 . S
C167 C168 1.333 . S
C167 N169 1.317 . S
C167 H172 0.930 . S
C168 C167 1.333 . S
C168 N170 1.350 . S
C168 H194 0.931 . S
N169 Co165 2.148 . S
N169 C166 1.301 . S
N169 C167 1.317 . S
N170 C166 1.328 . S
N170 C168 1.350 . S
H171 C166 0.930 . S
H172 C167 0.930 . S
C173 O174 1.224 . S
C173 O192 1.247 . S
O174 C173 1.224 . S
N175 Co165 2.128 . S
N175 C176 1.355 . S
N175 C178 1.311 . S
C176 N175 1.355 . S
C176 C177 1.363 . S
C176 H188 0.929 . S
C177 C176 1.363 . S
C177 N179 1.375 . S
C177 H195 0.931 . S
C178 N175 1.311 . S
C178 N179 1.347 . S
C178 H189 0.929 . S
N179 C177 1.375 . S
N179 C178 1.347 . S
C180 C183 1.365 . S
C180 N185 1.328 . S
C180 H186 0.929 . S
C181 C182 1.362 . S
C181 C184 1.378 . S
C181 H196 0.929 . S
C182 C181 1.362 . S
C182 C183 1.366 . S
C183 C180 1.365 . S
C183 C182 1.366 . S
C183 H197 0.930 . S
C184 C181 1.378 . S
C184 N185 1.315 . S
C184 H187 0.930 . S
N185 Co165 2.194 . S
N185 C180 1.328 . S
N185 C184 1.315 . S
H186 C180 0.929 . S
H187 C184 0.930 . S
H188 C176 0.929 . S
H189 C178 0.929 . S
O190 Co165 2.351 . S
O190 C193 1.244 . S
O191 Co165 2.155 . S
O191 C193 1.240 . S
O192 Co165 2.096 . S
O192 C173 1.247 . S
C193 O190 1.244 . S
C193 O191 1.240 . S
H194 C168 0.931 . S
H195 C177 0.931 . S
H196 C181 0.929 . S
H197 C183 0.930 . S
N80 C28 1.612 . S
C61 N14 1.612 . S
C94 N47 1.613 . S
C127 N146 1.612 . S
N179 C160 1.613 . S
N113 C193 1.612 . S
C149 C17 0.737 . S
C182 C50 0.737 . S
C116 C83 0.737 . S
C107 C8 2.462 1_556 S
C140 C41 2.462 1_545 S
C74 C173 2.462 1_455 S
N137 N5 2.109 1_655 S
N38 N170 2.109 1_556 S
N104 N71 2.109 1_545 S
