# Generated by pormake.
# Topology osc, (6)-cn, num edge types: 1
# Building blocks:
#     Node 0, Type 0, BuildingBlock: IZENUY_clean_sbu_0, # of connection points: 6
#     Node 1, Type 0, BuildingBlock: IZENUY_clean_sbu_0, # of connection points: 6
#     Node 2, Type 0, BuildingBlock: IZENUY_clean_sbu_0, # of connection points: 6
#     Node 3, Type 0, BuildingBlock: IZENUY_clean_sbu_0, # of connection points: 6
#     Node 4, Type 0, BuildingBlock: IZENUY_clean_sbu_0, # of connection points: 6
#     Node 5, Type 0, BuildingBlock: IZENUY_clean_sbu_0, # of connection points: 6
#     Node 6, Type 0, BuildingBlock: IZENUY_clean_sbu_0, # of connection points: 6
#     Node 7, Type 0, BuildingBlock: IZENUY_clean_sbu_0, # of connection points: 6
#     Edge 8, Type (0, 0), None
#     Edge 9, Type (0, 0), None
#     Edge 10, Type (0, 0), None
#     Edge 11, Type (0, 0), None
#     Edge 12, Type (0, 0), None
#     Edge 13, Type (0, 0), None
#     Edge 14, Type (0, 0), None
#     Edge 15, Type (0, 0), None
#     Edge 16, Type (0, 0), None
#     Edge 17, Type (0, 0), None
#     Edge 18, Type (0, 0), None
#     Edge 19, Type (0, 0), None
#     Edge 20, Type (0, 0), None
#     Edge 21, Type (0, 0), None
#     Edge 22, Type (0, 0), None
#     Edge 23, Type (0, 0), None
#     Edge 24, Type (0, 0), None
#     Edge 25, Type (0, 0), None
#     Edge 26, Type (0, 0), None
#     Edge 27, Type (0, 0), None
#     Edge 28, Type (0, 0), None
#     Edge 29, Type (0, 0), None
#     Edge 30, Type (0, 0), None
#     Edge 31, Type (0, 0), None
# Relax obj value: 0.251
# Max RMSD: 0.250
# Mean RMSD: 0.249
data_MOF--net-osc--node1-IZENUY_clean_sbu_0--edge1-none
_symmetry_space_group_name_H-M    P1
_symmetry_Int_Tables_number       1
_symmetry_cell_setting            triclinic
loop_
_symmetry_equiv_pos_as_xyz
'x, y, z'
_cell_length_a     13.114347
_cell_length_b     21.966204
_cell_length_c     11.771074
_cell_angle_alpha  90.006033
_cell_angle_beta   90.0
_cell_angle_gamma 90.0
loop_
_atom_site_label
_atom_site_type_symbol
_atom_site_fract_x
_atom_site_fract_y
_atom_site_fract_z
_atom_type_partial_charge
Fe0 Fe 0.27167 0.05229 0.45062 0.0
Fe1 Fe 0.31768 0.13964 0.25611 0.0
O2 O 0.33577 0.11538 0.39791 0.0
Fe3 Fe 0.41411 0.16024 0.48988 0.0
O4 O 0.50541 0.10344 0.50787 0.0
O5 O 0.39424 1.02742 0.52548 0.0
O6 O 0.30715 0.99945 0.33757 0.0
C7 C 0.28919 1.0095 0.23444 0.0
C8 C 0.27341 0.10771 0.64853 0.0
O9 O 0.28523 0.06391 0.19845 0.0
C10 C 0.31963 0.25008 0.37935 0.0
O11 O 0.14891 0.07414 0.38114 0.0
O12 O 0.18756 0.15689 0.28126 0.0
O13 O 0.35599 0.13635 0.63088 0.0
O14 O 0.2221 0.09828 0.56297 0.0
C15 C 0.51856 0.14537 0.28943 0.0
O16 O 0.34075 0.22145 0.28793 0.0
O17 O 0.32568 0.22303 0.47402 0.0
C18 C 0.12425 0.125 0.3344 0.0
O19 O 0.45006 0.12197 0.22877 0.0
O20 O 0.49409 0.18284 0.36802 0.0
C21 C 0.48578 0.05015 0.5332 0.0
Fe22 Fe 0.2861 1.01477 0.95062 0.0
Fe23 Fe 0.2401 0.92739 0.75611 0.0
O24 O 0.22201 0.95166 0.89792 0.0
Fe25 Fe 0.14365 0.90681 0.98987 0.0
O26 O 0.05235 0.96362 1.00786 0.0
O27 O 0.16353 0.03963 1.0255 0.0
O28 O 0.25057 0.06758 0.83757 0.0
C29 C 0.26854 0.05754 0.73445 0.0
C30 C 0.28435 0.95933 0.14848 0.0
O31 O 0.27255 1.00313 0.69845 0.0
C32 C 0.23813 0.81696 0.87934 0.0
O33 O 0.40885 0.99292 0.88111 0.0
O34 O 0.37021 0.91015 0.78126 0.0
O35 O 0.20176 0.93071 0.13087 0.0
O36 O 0.33572 0.96881 0.06298 0.0
C37 C 0.03921 0.92168 0.78941 0.0
O38 O 0.21703 0.84559 0.78793 0.0
O39 O 0.23208 0.84402 0.97402 0.0
C40 C 0.43352 0.94205 0.83439 0.0
O41 O 0.10772 0.94506 0.72876 0.0
O42 O 0.06367 0.88421 0.868 0.0
C43 C 0.07199 1.01691 1.0332 0.0
Fe44 Fe 0.77167 0.51477 0.16398 0.0
Fe45 Fe 0.81768 0.42741 0.35848 0.0
O46 O 0.83577 0.45167 0.21668 0.0
Fe47 Fe 0.91411 0.40681 0.12472 0.0
O48 O 1.00541 0.46362 0.10672 0.0
O49 O 0.89424 0.53963 0.08911 0.0
O50 O 0.80715 0.5676 0.27703 0.0
C51 C 0.78919 0.55756 0.38016 0.0
C52 C 0.77341 0.45934 0.96607 0.0
O53 O 0.78523 0.50315 0.41614 0.0
C54 C 0.81963 0.31697 0.23525 0.0
O55 O 0.64891 0.49291 0.23346 0.0
O56 O 0.68756 0.41016 0.33334 0.0
O57 O 0.85599 0.43071 0.98372 0.0
O58 O 0.7221 0.46877 1.05163 0.0
C59 C 1.01856 0.42169 0.32517 0.0
O60 O 0.84075 0.34561 0.32667 0.0
O61 O 0.82568 0.34402 0.14057 0.0
C62 C 0.62425 0.44205 0.2802 0.0
O63 O 0.95006 0.44508 0.38583 0.0
O64 O 0.99409 0.38422 0.24658 0.0
C65 C 0.98578 0.51691 0.0814 0.0
Fe66 Fe 0.7401 0.63966 0.85849 0.0
Fe67 Fe 0.64365 0.66024 0.62473 0.0
O68 O 0.72201 0.61539 0.71668 0.0
Fe69 Fe 0.7861 0.55228 0.66398 0.0
O70 O 0.75057 0.49948 0.77703 0.0
O71 O 0.77255 0.56393 0.91615 0.0
O72 O 0.60772 0.622 0.88584 0.0
C73 C 0.53921 0.64538 0.82518 0.0
C74 C 0.93352 0.625 0.78021 0.0
O75 O 0.56367 0.68285 0.7466 0.0
C76 C 0.78435 0.60772 0.46612 0.0
O77 O 0.71703 0.72147 0.82667 0.0
O78 O 0.73208 0.72304 0.64057 0.0
O79 O 0.90885 0.57413 0.73349 0.0
O80 O 0.87021 0.65691 0.83333 0.0
C81 C 0.57199 0.55015 0.5814 0.0
O82 O 0.70176 0.63635 0.48372 0.0
O83 O 0.83572 0.59824 0.55162 0.0
C84 C 0.73813 0.75009 0.73525 0.0
O85 O 0.55235 0.60344 0.60674 0.0
O86 O 0.66353 0.52742 0.5891 0.0
C87 C 0.76854 0.50952 0.88015 0.0
Fe88 Fe 0.78608 1.01477 0.66393 0.0
Fe89 Fe 0.64366 0.9068 0.62471 0.0
O90 O 0.722 0.95166 0.71666 0.0
Fe91 Fe 0.7401 0.92742 0.85847 0.0
O92 O 0.77254 1.00316 0.91612 0.0
O93 O 0.75058 0.06759 0.77699 0.0
O94 O 0.6635 0.03962 0.58907 0.0
C95 C 0.57197 1.01688 0.58136 0.0
C96 C 0.9335 0.94205 0.78012 0.0
O97 O 0.55234 0.96359 0.6067 0.0
C98 C 0.73817 0.81698 0.73526 0.0
O99 O 0.83565 0.96879 0.55156 0.0
O100 O 0.70177 0.93068 0.48371 0.0
O101 O 0.87022 0.91018 0.83333 0.0
O102 O 0.90884 0.99292 0.73341 0.0
C103 C 0.53922 0.92167 0.82516 0.0
O104 O 0.7321 0.84401 0.64057 0.0
O105 O 0.71704 0.84561 0.82668 0.0
C106 C 0.78434 0.95932 0.466 0.0
O107 O 0.56369 0.8842 0.74658 0.0
O108 O 0.60771 0.94508 0.88581 0.0
C109 C 0.76856 0.05756 0.88012 0.0
Fe110 Fe 0.81767 0.13966 0.35848 0.0
Fe111 Fe 0.7717 0.05228 0.16394 0.0
O112 O 0.83577 0.1154 0.21665 0.0
Fe113 Fe 0.91413 0.16026 0.12472 0.0
O114 O 0.99409 0.18286 0.2466 0.0
O115 O 0.95006 0.122 0.38582 0.0
O116 O 0.78523 0.06392 0.41613 0.0
C117 C 0.78925 1.00951 0.38012 0.0
C118 C 0.8196 0.25009 0.23527 0.0
O119 O 0.80725 0.99948 0.27699 0.0
C120 C 0.77344 0.10775 0.96606 0.0
O121 O 0.68755 0.1569 0.33332 0.0
O122 O 0.64895 0.07413 0.23344 0.0
O123 O 0.82569 0.22305 0.14057 0.0
O124 O 0.84072 0.22146 0.32668 0.0
C125 C 0.9858 0.05017 0.08136 0.0
O126 O 0.72208 0.09822 1.05154 0.0
O127 O 0.85602 0.13637 0.98371 0.0
C128 C 0.62427 0.12501 0.28013 0.0
O129 O 0.89427 1.02744 0.08906 0.0
O130 O 1.00544 0.10346 0.10672 0.0
C131 C 1.01856 0.1454 0.32517 0.0
Fe132 Fe 0.2401 0.63964 0.75612 0.0
Fe133 Fe 0.28608 0.55229 0.95066 0.0
O134 O 0.222 0.61539 0.89794 0.0
Fe135 Fe 0.14366 0.66026 0.98989 0.0
O136 O 0.06369 0.68285 0.86802 0.0
O137 O 0.10771 0.62198 0.72879 0.0
O138 O 0.27254 0.5639 0.69848 0.0
C139 C 0.26856 0.50949 0.73447 0.0
C140 C 0.23817 0.75007 0.87934 0.0
O141 O 0.25058 0.49946 0.8376 0.0
C142 C 0.28434 0.60774 0.14859 0.0
O143 O 0.37022 0.65688 0.78127 0.0
O144 O 0.40884 0.57414 0.88118 0.0
O145 O 0.2321 0.72305 0.97403 0.0
O146 O 0.21704 0.72144 0.78792 0.0
C147 C 0.07197 0.55017 1.03323 0.0
O148 O 0.33565 0.59827 0.06304 0.0
O149 O 0.20177 0.63637 0.13089 0.0
C150 C 0.4335 0.62501 0.83447 0.0
O151 O 0.1635 0.52744 1.02552 0.0
O152 O 0.05234 0.60346 1.00789 0.0
C153 C 0.03922 0.64538 0.78944 0.0
Fe154 Fe 0.2717 0.51477 0.45066 0.0
Fe155 Fe 0.41413 0.40679 0.48988 0.0
O156 O 0.33577 0.45165 0.39795 0.0
Fe157 Fe 0.31767 0.42739 0.25612 0.0
O158 O 0.28523 0.50313 0.19847 0.0
O159 O 0.30725 0.56757 0.33761 0.0
O160 O 0.39427 0.53962 0.52554 0.0
C161 C 0.4858 0.51688 0.53323 0.0
C162 C 0.12427 0.44205 0.33446 0.0
O163 O 0.50544 0.46359 0.50788 0.0
C164 C 0.3196 0.31697 0.37933 0.0
O165 O 0.22208 0.46883 0.56305 0.0
O166 O 0.35602 0.43068 0.63088 0.0
O167 O 0.18755 0.41016 0.28127 0.0
O168 O 0.14895 0.49293 0.38116 0.0
C169 C 0.51856 0.42166 0.28942 0.0
O170 O 0.32569 0.344 0.47403 0.0
O171 O 0.34072 0.34559 0.28792 0.0
C172 C 0.27344 0.45931 0.64854 0.0
O173 O 0.49409 0.38419 0.368 0.0
O174 O 0.45006 0.44506 0.22878 0.0
C175 C 0.28925 0.55754 0.23448 0.0
loop_
_geom_bond_atom_site_label_1
_geom_bond_atom_site_label_2
_geom_bond_distance
_geom_bond_site_symmetry_2
_ccdc_geom_bond_type
Fe0 O2 1.918 . S
Fe0 O5 1.997 1_545 S
Fe0 O6 2.002 1_545 S
Fe0 O11 1.976 . S
Fe0 O14 1.996 . S
Fe1 O2 1.918 . S
Fe1 O9 1.997 . S
Fe1 O12 1.996 . S
Fe1 O16 1.976 . S
Fe1 O19 2.002 . S
O2 Fe0 1.918 . S
O2 Fe1 1.918 . S
O2 Fe3 1.918 . S
Fe3 O2 1.918 . S
Fe3 O4 2.002 . S
Fe3 O13 1.976 . S
Fe3 O17 1.996 . S
Fe3 O20 1.997 . S
O4 Fe3 2.002 . S
O4 C21 1.295 1_545 S
O5 Fe0 1.997 1_565 S
O5 C21 1.235 . S
O6 Fe0 2.002 1_565 S
O6 C7 1.295 1_565 S
C7 O6 1.295 1_545 S
C7 O9 1.235 . S
C8 O13 1.287 . S
C8 O14 1.255 . S
O9 Fe1 1.997 . S
O9 C7 1.235 . S
C10 O16 1.287 . S
C10 O17 1.255 . S
O11 Fe0 1.976 . S
O11 C18 1.287 . S
O12 Fe1 1.996 . S
O12 C18 1.255 . S
O13 Fe3 1.976 . S
O13 C8 1.287 . S
O14 Fe0 1.996 . S
O14 C8 1.255 . S
C15 O19 1.295 . S
C15 O20 1.235 . S
O16 Fe1 1.976 . S
O16 C10 1.287 . S
O17 Fe3 1.996 . S
O17 C10 1.255 . S
C18 O11 1.287 . S
C18 O12 1.255 . S
O19 Fe1 2.002 . S
O19 C15 1.295 . S
O20 Fe3 1.997 . S
O20 C15 1.235 . S
C21 O4 1.295 1_565 S
C21 O5 1.235 . S
Fe22 O24 1.918 . S
Fe22 O27 1.997 1_565 S
Fe22 O28 2.002 1_565 S
Fe22 O33 1.976 . S
Fe22 O36 1.996 1_556 S
Fe23 O24 1.918 . S
Fe23 O31 1.997 . S
Fe23 O34 1.996 . S
Fe23 O38 1.976 . S
Fe23 O41 2.002 . S
O24 Fe22 1.918 . S
O24 Fe23 1.918 . S
O24 Fe25 1.918 . S
Fe25 O24 1.918 . S
Fe25 O26 2.002 . S
Fe25 O35 1.976 1_556 S
Fe25 O39 1.996 . S
Fe25 O42 1.997 1_455 S
O26 Fe25 2.002 . S
O26 C43 1.295 1_565 S
O27 Fe22 1.997 1_545 S
O27 C43 1.235 . S
O28 Fe22 2.002 1_545 S
O28 C29 1.295 1_545 S
C29 O28 1.295 1_565 S
C29 O31 1.235 . S
C30 O35 1.287 . S
C30 O36 1.255 . S
O31 Fe23 1.997 . S
O31 C29 1.235 . S
C32 O38 1.287 . S
C32 O39 1.255 . S
O33 Fe22 1.976 . S
O33 C40 1.287 . S
O34 Fe23 1.996 . S
O34 C40 1.255 . S
O35 Fe25 1.976 1_554 S
O35 C30 1.287 . S
O36 Fe22 1.996 1_554 S
O36 C30 1.255 . S
C37 O41 1.295 1_655 S
C37 O42 1.235 . S
O38 Fe23 1.976 . S
O38 C32 1.287 . S
O39 Fe25 1.996 . S
O39 C32 1.255 . S
C40 O33 1.287 . S
C40 O34 1.255 . S
O41 Fe23 2.002 . S
O41 C37 1.295 1_455 S
O42 Fe25 1.997 1_655 S
O42 C37 1.235 . S
C43 O26 1.295 1_545 S
C43 O27 1.235 . S
Fe44 O46 1.918 . S
Fe44 O49 1.997 . S
Fe44 O50 2.002 . S
Fe44 O55 1.976 . S
Fe44 O58 1.996 1_554 S
Fe45 O46 1.918 . S
Fe45 O53 1.997 . S
Fe45 O56 1.996 . S
Fe45 O60 1.976 . S
Fe45 O63 2.002 . S
O46 Fe44 1.918 . S
O46 Fe45 1.918 . S
O46 Fe47 1.918 . S
Fe47 O46 1.918 . S
Fe47 O48 2.002 . S
Fe47 O57 1.976 1_554 S
Fe47 O61 1.996 . S
Fe47 O64 1.997 1_655 S
O48 Fe47 2.002 . S
O48 C65 1.295 . S
O49 Fe44 1.997 . S
O49 C65 1.235 . S
O50 Fe44 2.002 . S
O50 C51 1.295 . S
C51 O50 1.295 . S
C51 O53 1.235 . S
C52 O57 1.287 . S
C52 O58 1.255 . S
O53 Fe45 1.997 . S
O53 C51 1.235 . S
C54 O60 1.287 . S
C54 O61 1.255 . S
O55 Fe44 1.976 . S
O55 C62 1.287 . S
O56 Fe45 1.996 . S
O56 C62 1.255 . S
O57 Fe47 1.976 1_556 S
O57 C52 1.287 . S
O58 Fe44 1.996 1_556 S
O58 C52 1.255 . S
C59 O63 1.295 1_455 S
C59 O64 1.235 . S
O60 Fe45 1.976 . S
O60 C54 1.287 . S
O61 Fe47 1.996 . S
O61 C54 1.255 . S
C62 O55 1.287 . S
C62 O56 1.255 . S
O63 Fe45 2.002 . S
O63 C59 1.295 1_655 S
O64 Fe47 1.997 1_455 S
O64 C59 1.235 . S
C65 O48 1.295 . S
C65 O49 1.235 . S
Fe66 O68 1.918 . S
Fe66 O71 1.997 . S
Fe66 O72 2.002 . S
Fe66 O77 1.976 . S
Fe66 O80 1.996 . S
Fe67 O68 1.918 . S
Fe67 O75 1.997 . S
Fe67 O78 1.996 . S
Fe67 O82 1.976 . S
Fe67 O85 2.002 . S
O68 Fe66 1.918 . S
O68 Fe67 1.918 . S
O68 Fe69 1.918 . S
Fe69 O68 1.918 . S
Fe69 O70 2.002 . S
Fe69 O79 1.976 . S
Fe69 O83 1.996 . S
Fe69 O86 1.997 . S
O70 Fe69 2.002 . S
O70 C87 1.295 . S
O71 Fe66 1.997 . S
O71 C87 1.235 . S
O72 Fe66 2.002 . S
O72 C73 1.295 . S
C73 O72 1.295 . S
C73 O75 1.235 . S
C74 O79 1.287 . S
C74 O80 1.255 . S
O75 Fe67 1.997 . S
O75 C73 1.235 . S
C76 O82 1.287 . S
C76 O83 1.255 . S
O77 Fe66 1.976 . S
O77 C84 1.287 . S
O78 Fe67 1.996 . S
O78 C84 1.255 . S
O79 Fe69 1.976 . S
O79 C74 1.287 . S
O80 Fe66 1.996 . S
O80 C74 1.255 . S
C81 O85 1.295 . S
C81 O86 1.235 . S
O82 Fe67 1.976 . S
O82 C76 1.287 . S
O83 Fe69 1.996 . S
O83 C76 1.255 . S
C84 O77 1.287 . S
C84 O78 1.255 . S
O85 Fe67 2.002 . S
O85 C81 1.295 . S
O86 Fe69 1.997 . S
O86 C81 1.235 . S
C87 O70 1.295 . S
C87 O71 1.235 . S
Fe88 O90 1.918 . S
Fe88 O93 1.997 1_565 S
Fe88 O94 2.002 1_565 S
Fe88 O99 1.976 . S
Fe88 O102 1.996 . S
Fe89 O90 1.918 . S
Fe89 O97 1.997 . S
Fe89 O100 1.996 . S
Fe89 O104 1.976 . S
Fe89 O107 2.002 . S
O90 Fe88 1.918 . S
O90 Fe89 1.918 . S
O90 Fe91 1.918 . S
Fe91 O90 1.918 . S
Fe91 O92 2.002 . S
Fe91 O101 1.976 . S
Fe91 O105 1.996 . S
Fe91 O108 1.997 . S
O92 Fe91 2.002 . S
O92 C109 1.295 . S
O93 Fe88 1.997 1_545 S
O93 C109 1.235 1_545 S
O94 Fe88 2.002 1_545 S
O94 C95 1.295 . S
C95 O94 1.295 . S
C95 O97 1.235 1_545 S
C96 O101 1.287 . S
C96 O102 1.255 . S
O97 Fe89 1.997 . S
O97 C95 1.235 1_565 S
C98 O104 1.287 . S
C98 O105 1.255 . S
O99 Fe88 1.976 . S
O99 C106 1.287 . S
O100 Fe89 1.996 . S
O100 C106 1.255 . S
O101 Fe91 1.976 . S
O101 C96 1.287 . S
O102 Fe88 1.996 . S
O102 C96 1.255 . S
C103 O107 1.295 . S
C103 O108 1.235 . S
O104 Fe89 1.976 . S
O104 C98 1.287 . S
O105 Fe91 1.996 . S
O105 C98 1.255 . S
C106 O99 1.287 . S
C106 O100 1.255 . S
O107 Fe89 2.002 . S
O107 C103 1.295 . S
O108 Fe91 1.997 . S
O108 C103 1.235 . S
C109 O92 1.295 . S
C109 O93 1.235 1_565 S
Fe110 O112 1.918 . S
Fe110 O115 1.997 . S
Fe110 O116 2.002 . S
Fe110 O121 1.976 . S
Fe110 O124 1.996 . S
Fe111 O112 1.918 . S
Fe111 O119 1.997 1_545 S
Fe111 O122 1.996 . S
Fe111 O126 1.976 1_554 S
Fe111 O129 2.002 1_545 S
O112 Fe110 1.918 . S
O112 Fe111 1.918 . S
O112 Fe113 1.918 . S
Fe113 O112 1.918 . S
Fe113 O114 2.002 1_655 S
Fe113 O123 1.976 . S
Fe113 O127 1.996 1_554 S
Fe113 O130 1.997 . S
O114 Fe113 2.002 1_455 S
O114 C131 1.295 . S
O115 Fe110 1.997 . S
O115 C131 1.235 1_655 S
O116 Fe110 2.002 . S
O116 C117 1.295 . S
C117 O116 1.295 . S
C117 O119 1.235 1_545 S
C118 O123 1.287 . S
C118 O124 1.255 . S
O119 Fe111 1.997 1_565 S
O119 C117 1.235 1_565 S
C120 O126 1.287 . S
C120 O127 1.255 . S
O121 Fe110 1.976 . S
O121 C128 1.287 . S
O122 Fe111 1.996 . S
O122 C128 1.255 . S
O123 Fe113 1.976 . S
O123 C118 1.287 . S
O124 Fe110 1.996 . S
O124 C118 1.255 . S
C125 O129 1.295 . S
C125 O130 1.235 1_565 S
O126 Fe111 1.976 1_556 S
O126 C120 1.287 . S
O127 Fe113 1.996 1_556 S
O127 C120 1.255 . S
C128 O121 1.287 . S
C128 O122 1.255 . S
O129 Fe111 2.002 1_565 S
O129 C125 1.295 . S
O130 Fe113 1.997 . S
O130 C125 1.235 1_545 S
C131 O114 1.295 . S
C131 O115 1.235 1_455 S
Fe132 O134 1.918 . S
Fe132 O137 1.997 . S
Fe132 O138 2.002 . S
Fe132 O143 1.976 . S
Fe132 O146 1.996 . S
Fe133 O134 1.918 . S
Fe133 O141 1.997 . S
Fe133 O144 1.996 . S
Fe133 O148 1.976 1_556 S
Fe133 O151 2.002 . S
O134 Fe132 1.918 . S
O134 Fe133 1.918 . S
O134 Fe135 1.918 . S
Fe135 O134 1.918 . S
Fe135 O136 2.002 1_455 S
Fe135 O145 1.976 . S
Fe135 O149 1.996 1_556 S
Fe135 O152 1.997 . S
O136 Fe135 2.002 1_655 S
O136 C153 1.295 . S
O137 Fe132 1.997 . S
O137 C153 1.235 1_455 S
O138 Fe132 2.002 . S
O138 C139 1.295 . S
C139 O138 1.295 . S
C139 O141 1.235 . S
C140 O145 1.287 . S
C140 O146 1.255 . S
O141 Fe133 1.997 . S
O141 C139 1.235 . S
C142 O148 1.287 . S
C142 O149 1.255 . S
O143 Fe132 1.976 . S
O143 C150 1.287 . S
O144 Fe133 1.996 . S
O144 C150 1.255 . S
O145 Fe135 1.976 . S
O145 C140 1.287 . S
O146 Fe132 1.996 . S
O146 C140 1.255 . S
C147 O151 1.295 . S
C147 O152 1.235 . S
O148 Fe133 1.976 1_554 S
O148 C142 1.287 . S
O149 Fe135 1.996 1_554 S
O149 C142 1.255 . S
C150 O143 1.287 . S
C150 O144 1.255 . S
O151 Fe133 2.002 . S
O151 C147 1.295 . S
O152 Fe135 1.997 . S
O152 C147 1.235 . S
C153 O136 1.295 . S
C153 O137 1.235 1_655 S
Fe154 O156 1.918 . S
Fe154 O159 1.997 . S
Fe154 O160 2.002 . S
Fe154 O165 1.976 . S
Fe154 O168 1.996 . S
Fe155 O156 1.918 . S
Fe155 O163 1.997 . S
Fe155 O166 1.996 . S
Fe155 O170 1.976 . S
Fe155 O173 2.002 . S
O156 Fe154 1.918 . S
O156 Fe155 1.918 . S
O156 Fe157 1.918 . S
Fe157 O156 1.918 . S
Fe157 O158 2.002 . S
Fe157 O167 1.976 . S
Fe157 O171 1.996 . S
Fe157 O174 1.997 . S
O158 Fe157 2.002 . S
O158 C175 1.295 . S
O159 Fe154 1.997 . S
O159 C175 1.235 . S
O160 Fe154 2.002 . S
O160 C161 1.295 . S
C161 O160 1.295 . S
C161 O163 1.235 . S
C162 O167 1.287 . S
C162 O168 1.255 . S
O163 Fe155 1.997 . S
O163 C161 1.235 . S
C164 O170 1.287 . S
C164 O171 1.255 . S
O165 Fe154 1.976 . S
O165 C172 1.287 . S
O166 Fe155 1.996 . S
O166 C172 1.255 . S
O167 Fe157 1.976 . S
O167 C162 1.287 . S
O168 Fe154 1.996 . S
O168 C162 1.255 . S
C169 O173 1.295 . S
C169 O174 1.235 . S
O170 Fe155 1.976 . S
O170 C164 1.287 . S
O171 Fe157 1.996 . S
O171 C164 1.255 . S
C172 O165 1.287 . S
C172 O166 1.255 . S
O173 Fe155 2.002 . S
O173 C169 1.295 . S
O174 Fe157 1.997 . S
O174 C169 1.235 . S
C175 O158 1.295 . S
C175 O159 1.235 . S
C95 C21 2.008 1_545 S
C125 C43 2.008 1_664 S
C147 C65 2.008 1_456 S
C81 C161 2.008 . S
C7 C30 1.863 1_545 S
C29 C8 1.863 1_565 S
C76 C51 1.863 . S
C52 C87 1.863 . S
C120 C109 1.939 1_545 S
C106 C117 1.939 1_565 S
C139 C172 1.939 . S
C142 C175 1.939 . S
C15 C128 1.890 . S
C96 C37 1.890 . S
C162 C59 1.890 . S
C150 C73 1.890 . S
C103 C40 1.851 . S
C18 C131 1.851 . S
C153 C74 1.851 . S
C169 C62 1.851 . S
C10 C164 1.454 . S
C32 C140 1.454 . S
C118 C54 1.454 . S
C98 C84 1.454 . S
