# Generated by pormake.
# Topology qtz, (4)-cn, num edge types: 1
# Building blocks:
#     Node 0, Type 0, BuildingBlock: TATPOV_clean_sbu_0, # of connection points: 4
#     Node 1, Type 0, BuildingBlock: TATPOV_clean_sbu_0, # of connection points: 4
#     Node 2, Type 0, BuildingBlock: TATPOV_clean_sbu_0, # of connection points: 4
#     Edge 3, Type (0, 0), None
#     Edge 4, Type (0, 0), None
#     Edge 5, Type (0, 0), None
#     Edge 6, Type (0, 0), None
#     Edge 7, Type (0, 0), None
#     Edge 8, Type (0, 0), None
# Relax obj value: 0.099
# Max RMSD: 0.179
# Mean RMSD: 0.154
data_MOF--net-qtz--node1-TATPOV_clean_sbu_0--edge1-none
_symmetry_space_group_name_H-M    P1
_symmetry_Int_Tables_number       1
_symmetry_cell_setting            triclinic
loop_
_symmetry_equiv_pos_as_xyz
'x, y, z'
_cell_length_a     10.38897
_cell_length_b     11.069498
_cell_length_c     13.326842
_cell_angle_alpha  89.333501
_cell_angle_beta   90.435645
_cell_angle_gamma 115.64359
loop_
_atom_site_label
_atom_site_type_symbol
_atom_site_fract_x
_atom_site_fract_y
_atom_site_fract_z
_atom_type_partial_charge
Zn0 Zn 0.14199 0.3977 0.24704 0.0
Zn1 Zn 0.99139 0.4585 0.12005 0.0
O2 O 0.13337 0.42592 0.02692 0.0
O3 O 0.27765 0.40053 0.13834 0.0
O4 O 0.85869 0.49149 0.02383 0.0
O5 O 0.98694 0.22316 0.2872 0.0
O6 O 0.84937 0.29575 0.20448 0.0
C7 C 0.24555 0.41066 0.04786 0.0
C8 C 0.16336 0.65954 0.2769 0.0
O9 O 0.10152 0.63673 0.19185 0.0
O10 O 0.17599 0.56542 0.32416 0.0
C11 C 0.91011 0.56137 0.94535 0.0
O12 O 0.04887 0.61621 0.93145 0.0
C13 C 0.86428 0.2099 0.26221 0.0
Zn14 Zn 0.54942 0.84224 0.32577 0.0
Zn15 Zn 0.48421 -0.02681 0.44397 0.0
O16 O 0.55304 0.87585 0.54805 0.0
O17 O 0.53373 0.7179 0.44219 0.0
O18 O 0.45906 0.11455 0.52077 0.0
O19 O 0.74231 -0.02147 0.28929 0.0
O20 O 0.64067 0.10196 0.34506 0.0
C21 C 0.55057 0.76207 0.53092 0.0
C22 C 0.27334 0.79332 0.29764 0.0
O23 O 0.29298 0.83325 0.38794 0.0
O24 O 0.38081 0.82929 0.24133 0.0
C25 C 0.42348 0.12391 0.61016 0.0
O26 O 0.36999 0.01771 0.66888 0.0
C27 C 0.74123 0.09132 0.29757 0.0
Zn28 Zn 0.71816 0.52745 0.66655 0.0
Zn29 Zn 0.50339 0.48153 0.78478 0.0
O30 O 0.68285 0.52192 0.87573 0.0
O31 O 0.86499 0.57145 0.7737 0.0
O32 O 0.34764 0.46537 0.88382 0.0
O33 O 0.6994 0.66945 0.58761 0.0
O34 O 0.50753 0.62586 0.67856 0.0
C35 C 0.81561 0.55581 0.86158 0.0
C36 C 0.48824 0.25842 0.6526 0.0
O37 O 0.42912 0.29361 0.72244 0.0
O38 O 0.60807 0.33962 0.61783 0.0
C39 C 0.34299 0.40976 -0.03135 0.0
O40 O 0.4371 0.36335 -0.01053 0.0
C41 C 0.59187 0.68977 0.60706 0.0
loop_
_geom_bond_atom_site_label_1
_geom_bond_atom_site_label_2
_geom_bond_distance
_geom_bond_site_symmetry_2
_ccdc_geom_bond_type
Zn0 O3 2.031 . S
Zn0 O5 2.049 1_455 S
Zn0 O10 2.067 . S
Zn1 O2 1.962 1_655 S
Zn1 O4 1.986 . S
Zn1 O6 1.996 . S
Zn1 O9 1.943 1_655 S
O2 Zn1 1.962 1_455 S
O2 C7 1.254 . S
O3 Zn0 2.031 . S
O3 C7 1.269 . S
O4 Zn1 1.986 . S
O4 C11 1.262 . S
O5 Zn0 2.049 1_655 S
O5 C13 1.260 . S
O6 Zn1 1.996 . S
O6 C13 1.257 . S
C7 O2 1.254 . S
C7 O3 1.269 . S
C8 O9 1.249 . S
C8 O10 1.270 . S
O9 Zn1 1.943 1_455 S
O9 C8 1.249 . S
O10 Zn0 2.067 . S
O10 C8 1.270 . S
C11 O4 1.262 . S
C11 O12 1.234 . S
O12 C11 1.234 . S
C13 O5 1.260 . S
C13 O6 1.257 . S
Zn14 O17 2.031 . S
Zn14 O19 2.049 1_565 S
Zn14 O24 2.067 . S
Zn15 O16 1.962 1_545 S
Zn15 O18 1.986 . S
Zn15 O20 1.996 . S
Zn15 O23 1.943 1_545 S
O16 Zn15 1.962 1_565 S
O16 C21 1.254 . S
O17 Zn14 2.031 . S
O17 C21 1.269 . S
O18 Zn15 1.986 . S
O18 C25 1.262 . S
O19 Zn14 2.049 1_545 S
O19 C27 1.260 . S
O20 Zn15 1.996 . S
O20 C27 1.257 . S
C21 O16 1.254 . S
C21 O17 1.269 . S
C22 O23 1.249 . S
C22 O24 1.270 . S
O23 Zn15 1.943 1_565 S
O23 C22 1.249 . S
O24 Zn14 2.067 . S
O24 C22 1.270 . S
C25 O18 1.262 . S
C25 O26 1.232 . S
O26 C25 1.232 . S
C27 O19 1.260 . S
C27 O20 1.257 . S
Zn28 O31 2.031 . S
Zn28 O33 2.049 . S
Zn28 O38 2.067 . S
Zn29 O30 1.962 . S
Zn29 O32 1.986 . S
Zn29 O34 1.996 . S
Zn29 O37 1.943 . S
O30 Zn29 1.962 . S
O30 C35 1.254 . S
O31 Zn28 2.031 . S
O31 C35 1.269 . S
O32 Zn29 1.986 . S
O32 C39 1.262 . S
O33 Zn28 2.049 . S
O33 C41 1.260 . S
O34 Zn29 1.996 . S
O34 C41 1.257 . S
C35 O30 1.254 . S
C35 O31 1.269 . S
C36 O37 1.249 . S
C36 O38 1.270 . S
O37 Zn29 1.943 . S
O37 C36 1.249 . S
O38 Zn28 2.067 . S
O38 C36 1.270 . S
C39 O32 1.262 . S
C39 O40 1.232 . S
O40 C39 1.232 . S
C41 O33 1.260 . S
C41 O34 1.257 . S
C39 C7 1.380 1_556 S
C13 C27 1.225 . S
C21 C41 1.384 . S
C35 C11 1.320 1_556 S
C22 C8 1.386 . S
C36 C25 1.297 . S
