# Generated by pormake.
# Topology pcu, (6)-cn, num edge types: 1
# Building blocks:
#     Node 0, Type 0, BuildingBlock: BETFEN_clean_sbu_0, # of connection points: 6
#     Edge 1, Type (0, 0), BuildingBlock: XIVTED_clean_linker_0, # of connection points: 2
#     Edge 2, Type (0, 0), BuildingBlock: XIVTED_clean_linker_0, # of connection points: 2
#     Edge 3, Type (0, 0), BuildingBlock: XIVTED_clean_linker_0, # of connection points: 2
# Relax obj value: 0.000
# Max RMSD: 0.000
# Mean RMSD: 0.000
data_MOF--net-pcu--node1-BETFEN_clean_sbu_0--edge1-XIVTED_clean_linker_0
_symmetry_space_group_name_H-M    P1
_symmetry_Int_Tables_number       1
_symmetry_cell_setting            triclinic
loop_
_symmetry_equiv_pos_as_xyz
'x, y, z'
_cell_length_a     25.591072
_cell_length_b     15.836634
_cell_length_c     14.693472
_cell_angle_alpha  87.835628
_cell_angle_beta   96.235182
_cell_angle_gamma 124.4805
loop_
_atom_site_label
_atom_site_type_symbol
_atom_site_fract_x
_atom_site_fract_y
_atom_site_fract_z
_atom_type_partial_charge
Pr0 Pr 0.95634 0.91489 0.01985 0.0
Pr1 Pr 0.09824 0.04488 0.99719 0.0
C2 C 0.83893 0.8391 0.06852 0.0
C3 C 0.7906 0.86337 0.05815 0.0
C4 C 0.77175 0.88643 0.97268 0.0
C5 C 0.72514 0.90747 0.96443 0.0
C6 C 0.69647 0.90638 0.04148 0.0
C7 C 0.7161 0.88434 0.12706 0.0
C8 C 0.76251 0.86297 0.13517 0.0
C9 C 0.9834 0.93479 0.83818 0.0
C10 C 0.03298 0.1688 1.00124 0.0
C11 C 0.21582 0.1209 0.9491 0.0
C12 C 0.2641 0.09649 0.9594 0.0
C13 C 0.28297 0.07343 0.04485 0.0
C14 C 0.32955 0.05233 0.05304 0.0
C15 C 0.35816 0.05334 0.97595 0.0
C16 C 0.3385 0.07538 0.89039 0.0
C17 C 0.29213 0.09682 0.88234 0.0
C18 C 0.07079 0.02485 0.17878 0.0
C19 C 1.02157 0.79095 0.01545 0.0
O20 O 0.89132 0.90097 0.12172 0.0
O21 O 0.84887 0.80781 0.99524 0.0
O22 O 1.01174 0.00675 0.89779 0.0
O23 O 0.93755 0.85037 0.87036 0.0
O24 O 0.07955 0.17148 0.96741 0.0
O25 O 0.98594 0.08408 0.0347 0.0
O26 O 0.16355 0.05945 0.89551 0.0
O27 O 0.20569 0.1517 0.0225 0.0
O28 O 0.04289 0.9529 0.1192 0.0
O29 O 0.1165 0.10945 0.14661 0.0
O30 O 0.97503 0.78825 0.04938 0.0
O31 O 0.06862 0.8757 0.98203 0.0
H32 H 0.79272 0.88768 0.91203 0.0
H33 H 0.71083 0.92286 0.89725 0.0
H34 H 0.69606 0.88452 0.18821 0.0
H35 H 0.77651 0.84601 0.20188 0.0
H36 H 0.26205 0.07226 0.10554 0.0
H37 H 0.34388 0.03694 0.12021 0.0
H38 H 0.35851 0.07514 0.82921 0.0
H39 H 0.27811 0.11379 0.81564 0.0
H40 H 0.13159 0.17031 0.31654 0.0
H41 H 0.92221 0.78937 0.70034 0.0
H42 H 0.98077 0.85156 0.26154 0.0
H43 H 0.0736 0.10782 0.75541 0.0
H44 H 0.9429 0.8105 0.53961 0.0
H45 H 0.11085 0.1491 0.47722 0.0
C46 C 0.09407 0.09577 0.33838 0.0
C47 C 0.05796 0.01245 0.27578 0.0
C48 C 0.97163 0.87585 0.5867 0.0
C49 C 0.03384 -0.01249 0.45975 0.0
C50 C 0.95984 0.86382 0.6785 0.0
C51 C 0.99614 0.94708 0.74114 0.0
C52 C 1.02017 0.97193 0.55714 0.0
C53 C 0.04439 0.04171 0.70924 0.0
C54 C 0.08225 0.08369 0.43017 0.0
C55 C 1.00984 0.91771 0.30769 0.0
N56 N 0.05497 0.05158 0.61945 0.0
N57 N 0.9992 0.90779 0.39747 0.0
H58 H 0.46668 0.14523 0.88758 0.0
H59 H 0.5879 0.81438 0.12975 0.0
H60 H 0.36507 0.91345 0.08455 0.0
H61 H 0.68956 0.04626 0.93287 0.0
H62 H 0.5064 0.85043 0.11487 0.0
H63 H 0.54817 0.10915 0.90242 0.0
C64 C 0.46116 0.08628 0.93359 0.0
C65 C 0.40852 0.03228 0.98473 0.0
C66 C 0.5465 0.89342 0.07485 0.0
C67 C 0.50269 -0.00855 1.00302 0.0
C68 C 0.59343 0.87335 0.08375 0.0
C69 C 0.64609 0.92739 0.03265 0.0
C70 C 0.55189 0.96817 0.01431 0.0
C71 C 0.64963 0.00159 0.97288 0.0
C72 C 0.50807 0.06619 0.94247 0.0
C73 C 0.40498 0.95809 0.04451 0.0
N74 N 0.60334 0.01975 0.96549 0.0
N75 N 0.45127 0.93991 0.05188 0.0
H76 H 0.93351 0.59916 0.07503 0.0
H77 H 0.12103 0.36056 0.94156 0.0
H78 H 0.11146 0.77159 0.95411 0.0
H79 H 0.94305 0.18816 0.0624 0.0
H80 H 0.11832 0.51227 0.94529 0.0
H81 H 0.93621 0.44745 0.0712 0.0
C82 C 0.97314 0.60522 0.04777 0.0
C83 C 1.02226 0.69826 0.01481 0.0
C84 C 0.07987 0.44116 0.97095 0.0
C85 C 1.02566 0.52504 0.01011 0.0
C86 C 0.08139 0.35451 0.96877 0.0
C87 C 0.03227 0.26147 1.00175 0.0
C88 C 0.02885 0.43469 1.00635 0.0
C89 C 0.98207 0.25821 0.03629 0.0
C90 C 0.97466 0.51856 0.04554 0.0
C91 C 0.07244 0.70152 0.98022 0.0
N92 N 0.9817 0.3435 0.03769 0.0
N93 N 0.07281 0.61623 0.97876 0.0
loop_
_geom_bond_atom_site_label_1
_geom_bond_atom_site_label_2
_geom_bond_distance
_geom_bond_site_symmetry_2
_ccdc_geom_bond_type
Pr0 C2 2.880 . S
Pr0 O20 2.562 1_556 S
Pr0 O21 2.490 . S
Pr0 O22 2.695 1_655 S
Pr0 O23 2.512 . S
Pr0 O25 2.437 1_565 S
Pr0 O28 2.436 1_566 S
Pr0 O30 2.438 . S
Pr1 C11 2.880 . S
Pr1 O22 2.436 1_544 S
Pr1 O24 2.438 . S
Pr1 O26 2.562 1_554 S
Pr1 O27 2.490 . S
Pr1 O28 2.695 1_455 S
Pr1 O29 2.512 . S
Pr1 O31 2.437 1_545 S
C2 Pr0 2.880 . S
C2 C3 1.491 . S
C2 O20 1.254 1_556 S
C2 O21 1.225 . S
C3 C2 1.491 . S
C3 C4 1.392 . S
C3 C8 1.356 1_566 S
C4 C3 1.392 . S
C4 C5 1.368 . S
C4 H32 0.929 . S
C5 C4 1.368 . S
C5 C6 1.386 . S
C5 H33 0.929 . S
C6 C5 1.386 . S
C6 C7 1.373 1_566 S
C7 C6 1.373 1_544 S
C7 C8 1.409 . S
C7 H34 0.931 . S
C8 C3 1.356 1_544 S
C8 C7 1.409 . S
C8 H35 0.930 . S
C9 O22 1.270 1_655 S
C9 O23 1.248 . S
C10 O24 1.267 1_556 S
C10 O25 1.278 1_455 S
C11 Pr1 2.880 . S
C11 C12 1.491 . S
C11 O26 1.254 1_554 S
C11 O27 1.225 . S
C12 C11 1.491 . S
C12 C13 1.392 . S
C12 C17 1.356 1_544 S
C13 C12 1.392 . S
C13 C14 1.368 . S
C13 H36 0.929 . S
C14 C13 1.368 . S
C14 C15 1.386 . S
C14 H37 0.929 . S
C15 C14 1.386 . S
C15 C16 1.373 1_544 S
C16 C15 1.373 1_566 S
C16 C17 1.409 . S
C16 H38 0.931 . S
C17 C12 1.356 1_566 S
C17 C16 1.409 . S
C17 H39 0.930 . S
C18 O28 1.270 1_455 S
C18 O29 1.248 . S
C19 O30 1.267 1_554 S
C19 O31 1.278 1_655 S
O20 Pr0 2.562 1_554 S
O20 C2 1.254 1_554 S
O21 Pr0 2.490 . S
O21 C2 1.225 . S
O22 Pr0 2.695 1_455 S
O22 Pr1 2.436 1_566 S
O22 C9 1.270 1_455 S
O23 Pr0 2.512 . S
O23 C9 1.248 . S
O24 Pr1 2.438 . S
O24 C10 1.267 1_554 S
O25 Pr0 2.437 1_545 S
O25 C10 1.278 1_655 S
O26 Pr1 2.562 1_556 S
O26 C11 1.254 1_556 S
O27 Pr1 2.490 . S
O27 C11 1.225 . S
O28 Pr0 2.436 1_544 S
O28 Pr1 2.695 1_655 S
O28 C18 1.270 1_655 S
O29 Pr1 2.512 . S
O29 C18 1.248 . S
O30 Pr0 2.438 . S
O30 C19 1.267 1_556 S
O31 Pr1 2.437 1_565 S
O31 C19 1.278 1_455 S
H32 C4 0.929 . S
H33 C5 0.929 . S
H34 C7 0.931 . S
H35 C8 0.930 . S
H36 C13 0.929 . S
H37 C14 0.929 . S
H38 C16 0.931 . S
H39 C17 0.930 . S
H40 C46 0.930 . S
H41 C50 0.930 . S
H42 C55 0.929 . S
H43 C53 0.929 . S
H44 C48 0.929 . S
H45 C54 0.929 . S
C46 H40 0.930 . S
C46 C47 1.365 . S
C46 C54 1.378 . S
C47 C46 1.365 . S
C47 C55 1.435 1_645 S
C48 H44 0.929 . S
C48 C50 1.378 . S
C48 C52 1.352 . S
C49 C52 1.463 1_645 S
C49 C54 1.349 . S
C49 N57 1.428 1_645 S
C50 H41 0.930 . S
C50 C48 1.378 . S
C50 C51 1.368 . S
C51 C50 1.368 . S
C51 C53 1.432 1_465 S
C52 C48 1.352 . S
C52 C49 1.463 1_465 S
C52 N56 1.425 1_465 S
C53 H43 0.929 . S
C53 C51 1.432 1_645 S
C53 N56 1.384 . S
C54 H45 0.929 . S
C54 C46 1.378 . S
C54 C49 1.349 . S
C55 H42 0.929 . S
C55 C47 1.435 1_465 S
C55 N57 1.384 . S
N56 C52 1.425 1_645 S
N56 C53 1.384 . S
N57 C49 1.428 1_465 S
N57 C55 1.384 . S
H58 C64 0.930 . S
H59 C68 0.930 . S
H60 C73 0.929 . S
H61 C71 0.929 . S
H62 C66 0.929 . S
H63 C72 0.929 . S
C64 H58 0.930 . S
C64 C65 1.367 . S
C64 C72 1.378 . S
C65 C64 1.367 . S
C65 C73 1.433 1_546 S
C66 H62 0.929 . S
C66 C68 1.378 . S
C66 C70 1.350 . S
C67 C70 1.463 1_546 S
C67 C72 1.350 . S
C67 N75 1.427 1_546 S
C68 H59 0.930 . S
C68 C66 1.378 . S
C68 C69 1.367 . S
C69 C68 1.367 . S
C69 C71 1.433 1_564 S
C70 C66 1.350 . S
C70 C67 1.463 1_564 S
C70 N74 1.427 1_564 S
C71 H61 0.929 . S
C71 C69 1.433 1_546 S
C71 N74 1.384 . S
C72 H63 0.929 . S
C72 C64 1.378 . S
C72 C67 1.350 . S
C73 H60 0.929 . S
C73 C65 1.433 1_564 S
C73 N75 1.384 . S
N74 C70 1.427 1_546 S
N74 C71 1.384 . S
N75 C67 1.427 1_564 S
N75 C73 1.384 . S
H76 C82 0.930 . S
H77 C86 0.930 . S
H78 C91 0.929 . S
H79 C89 0.929 . S
H80 C84 0.929 . S
H81 C90 0.929 . S
C82 H76 0.930 . S
C82 C83 1.372 . S
C82 C90 1.378 . S
C83 C82 1.372 . S
C83 C91 1.417 1_654 S
C84 H80 0.929 . S
C84 C86 1.378 . S
C84 C88 1.350 . S
C85 C88 1.463 1_654 S
C85 C90 1.350 . S
C85 N93 1.427 1_654 S
C86 H77 0.930 . S
C86 C84 1.378 . S
C86 C87 1.367 . S
C87 C86 1.367 . S
C87 C89 1.433 1_456 S
C88 C84 1.350 . S
C88 C85 1.463 1_456 S
C88 N92 1.427 1_456 S
C89 H79 0.929 . S
C89 C87 1.433 1_654 S
C89 N92 1.384 . S
C90 H81 0.929 . S
C90 C82 1.378 . S
C90 C85 1.350 . S
C91 H78 0.929 . S
C91 C83 1.417 1_456 S
C91 N93 1.384 . S
N92 C88 1.427 1_654 S
N92 C89 1.384 . S
N93 C85 1.427 1_456 S
N93 C91 1.384 . S
C47 C18 1.452 1_655 S
C51 C9 1.450 1_455 S
C65 C15 1.499 1_556 S
C69 C6 1.499 1_554 S
C83 C19 1.499 . S
C87 C10 1.487 . S
