# Generated by pormake.
# Topology hex, (8)-cn, num edge types: 1
# Building blocks:
#     Node 0, Type 0, BuildingBlock: EYACOX_clean_sbu_0, # of connection points: 8
#     Edge 1, Type (0, 0), BuildingBlock: CIFDUS_clean_linker_0, # of connection points: 2
#     Edge 2, Type (0, 0), BuildingBlock: CIFDUS_clean_linker_0, # of connection points: 2
#     Edge 3, Type (0, 0), BuildingBlock: CIFDUS_clean_linker_0, # of connection points: 2
#     Edge 4, Type (0, 0), BuildingBlock: CIFDUS_clean_linker_0, # of connection points: 2
# Relax obj value: 0.022
# Max RMSD: 0.059
# Mean RMSD: 0.059
data_MOF--net-hex--node1-EYACOX_clean_sbu_0--edge1-CIFDUS_clean_linker_0
_symmetry_space_group_name_H-M    P1
_symmetry_Int_Tables_number       1
_symmetry_cell_setting            triclinic
loop_
_symmetry_equiv_pos_as_xyz
'x, y, z'
_cell_length_a     22.526192
_cell_length_b     21.705566
_cell_length_c     13.376046
_cell_angle_alpha  110.18224
_cell_angle_beta   73.022981
_cell_angle_gamma 145.22626
loop_
_atom_site_label
_atom_site_type_symbol
_atom_site_fract_x
_atom_site_fract_y
_atom_site_fract_z
_atom_type_partial_charge
Eu0 Eu 0.0324 0.87944 0.92468 0.0
Eu1 Eu 0.93999 -0.04059 0.02871 0.0
O2 O 0.15692 0.91458 0.85043 0.0
O3 O 1.0096 0.75506 0.89114 0.0
O4 O 0.92026 0.909 0.85271 0.0
O5 O 0.03702 0.92227 0.78945 0.0
O6 O 0.85991 0.73246 0.89688 0.0
O7 O 0.81559 0.78454 0.04294 0.0
C8 C 0.16149 0.82519 0.90746 0.0
C9 C 0.26604 0.83812 0.00581 0.0
C10 C 0.15815 0.74456 0.00369 0.0
C11 C 0.1049 0.73931 0.95802 0.0
C12 C 0.32223 0.913 0.94177 0.0
C13 C 0.27098 0.90925 0.8943 0.0
C14 C 0.10584 0.82133 0.86018 0.0
C15 C 0.97799 0.91802 0.77634 0.0
O16 O 0.81304 0.91987 0.03455 0.0
O17 O 0.95217 0.07379 0.12516 0.0
C18 C 0.79097 0.70869 0.96722 0.0
O19 O 0.99034 -0.02324 0.17005 0.0
O20 O 1.00175 0.87298 0.0971 0.0
O21 O 0.10672 0.10469 0.97745 0.0
O22 O 0.16367 0.0586 0.00029 0.0
C23 C 0.86491 0.07342 0.05563 0.0
C24 C 0.77458 0.06977 0.97992 0.0
C25 C 0.77306 0.01398 0.01484 0.0
C26 C 0.86867 0.18137 0.97938 0.0
C27 C 0.95426 0.24293 0.03275 0.0
C28 C 0.95438 0.18967 0.0688 0.0
C29 C 0.86462 0.01538 0.09186 0.0
C30 C 1.00115 0.92761 0.17849 0.0
C31 C 0.18188 0.13119 -0.00991 0.0
H32 H 0.3069 0.84367 0.04453 0.0
H33 H 0.02058 0.66703 0.95772 0.0
H34 H 0.31513 -0.03098 0.84598 0.0
H35 H 0.70086 0.92642 0.01369 0.0
H36 H 0.87227 0.22409 0.94724 0.0
H37 H 0.02254 0.23852 0.10832 0.0
H38 H 0.93359 0.34778 0.16954 0.0
H39 H 0.14549 0.39859 0.94006 0.0
H40 H 0.22652 0.56182 0.90941 0.0
H41 H 0.21415 0.66591 0.92355 0.0
H42 H 0.99532 0.61027 0.14337 0.0
H43 H 0.93259 0.4652 0.19669 0.0
C44 C 1.00111 0.39834 0.11693 0.0
C45 C 0.03451 0.36243 0.05739 0.0
C46 C 0.0402 0.48523 0.09284 0.0
C47 C 0.12018 0.42613 -0.01219 0.0
C48 C 0.16405 0.51715 0.9681 0.0
C49 C 0.15314 0.62264 -0.01601 0.0
C50 C 0.10899 0.64825 0.02975 0.0
C51 C 0.12049 0.54299 0.01566 0.0
C52 C 0.02918 0.59072 0.10637 0.0
C53 C 0.99497 0.50957 0.1379 0.0
H54 H 0.72992 0.16099 0.05608 0.0
H55 H 0.60944 0.87357 0.84872 0.0
H56 H 0.46965 0.81363 0.79502 0.0
H57 H 0.37907 0.84076 0.81512 0.0
H58 H 0.50049 0.12686 0.02694 0.0
H59 H 0.65082 0.19679 0.06235 0.0
C60 C 0.67393 0.08564 -0.00214 0.0
C61 C 0.68058 0.02201 0.95573 0.0
C62 C 0.59767 0.05493 0.96457 0.0
C63 C 0.6056 0.92333 0.88298 0.0
C64 C 0.5271 0.89041 0.85098 0.0
C65 C 0.44154 0.92126 0.86461 0.0
C66 C 0.42987 -0.02022 0.91728 0.0
C67 C 0.52298 0.95609 0.8909 0.0
C68 C 0.50916 0.0821 -0.01632 0.0
C69 C 0.5932 0.12008 0.00634 0.0
H70 H 0.3527 0.1999 0.92749 0.0
H71 H 0.25317 0.31755 0.05412 0.0
H72 H 0.4342 0.50767 0.05902 0.0
H73 H 0.62012 0.63959 0.02892 0.0
H74 H 0.71909 0.52182 0.89146 0.0
H75 H 0.53815 0.33158 0.88863 0.0
C76 C 0.37086 0.26733 0.95651 0.0
C77 C 0.29038 0.24542 -0.0085 0.0
C78 C 0.4745 0.37576 0.95686 0.0
C79 C 0.31423 0.33288 0.02695 0.0
C80 C 0.41749 0.44133 0.02991 0.0
C81 C 0.60193 0.57215 -0.00145 0.0
C82 C 0.68229 0.59408 0.96136 0.0
C83 C 0.49812 0.46359 -0.00463 0.0
C84 C 0.65808 0.50641 0.92036 0.0
C85 C 0.55493 0.39796 0.91908 0.0
H86 H 0.05629 0.90165 0.58921 0.0
H87 H 0.89736 0.95229 0.73034 0.0
H88 H 0.89555 -0.0342 0.55841 0.0
H89 H 0.93516 -0.04121 0.36716 0.0
H90 H 0.08924 0.90259 0.22538 0.0
H91 H 0.09754 0.89666 0.39878 0.0
C92 C 0.02145 0.91583 0.58239 0.0
C93 C 0.97667 0.92531 0.67204 0.0
C94 C 1.01993 0.92282 0.48335 0.0
C95 C 0.9316 0.94357 0.6621 0.0
C96 C 0.93081 0.9518 0.56397 0.0
C97 C 0.97133 0.94628 0.37462 0.0
C98 C 1.01114 0.93086 0.2842 0.0
C99 C 0.97433 0.94106 0.47404 0.0
C100 C 0.05716 0.91377 0.29423 0.0
C101 C 0.0621 0.91044 0.39317 0.0
loop_
_geom_bond_atom_site_label_1
_geom_bond_atom_site_label_2
_geom_bond_distance
_geom_bond_site_symmetry_2
_ccdc_geom_bond_type
Eu0 O2 2.486 . S
Eu0 O3 2.520 1_455 S
Eu0 O5 2.324 1_455 S
Eu0 O6 2.379 1_455 S
Eu0 C14 2.850 . S
Eu0 O20 2.396 1_456 S
Eu0 O22 2.320 1_565 S
Eu1 O4 2.396 1_654 S
Eu1 O7 2.321 1_545 S
Eu1 O16 2.481 . S
Eu1 O17 2.516 1_655 S
Eu1 O19 2.328 1_655 S
Eu1 O21 2.382 1_655 S
Eu1 C29 2.846 . S
O2 Eu0 2.486 . S
O2 C14 1.258 . S
O3 Eu0 2.520 1_655 S
O3 C14 1.246 1_655 S
O4 Eu1 2.396 1_456 S
O4 C15 1.216 1_445 S
O5 Eu0 2.324 1_655 S
O5 C15 1.279 . S
O6 Eu0 2.379 1_655 S
O6 C18 1.239 . S
O7 Eu1 2.321 1_565 S
O7 C18 1.249 1_554 S
C8 C11 1.390 . S
C8 C13 1.370 . S
C8 C14 1.489 . S
C9 C10 1.344 . S
C9 C12 1.415 . S
C9 H32 0.931 . S
C10 C9 1.344 . S
C10 C11 1.423 1_554 S
C11 C8 1.390 . S
C11 C10 1.423 1_556 S
C11 H33 0.930 1_455 S
C12 C9 1.415 . S
C12 C13 1.394 1_554 S
C13 C8 1.370 . S
C13 C12 1.394 1_556 S
C13 H34 0.932 1_565 S
C14 Eu0 2.850 . S
C14 O2 1.258 . S
C14 O3 1.246 1_455 S
C14 C8 1.489 . S
C15 O4 1.216 1_665 S
C15 O5 1.279 . S
O16 Eu1 2.481 . S
O16 C29 1.258 . S
O17 Eu1 2.516 1_455 S
O17 C29 1.246 1_455 S
C18 O6 1.239 . S
C18 O7 1.249 1_556 S
O19 Eu1 2.328 1_455 S
O19 C30 1.279 . S
O20 Eu0 2.396 1_654 S
O20 C30 1.216 1_665 S
O21 Eu1 2.382 1_455 S
O21 C31 1.239 . S
O22 Eu0 2.320 1_545 S
O22 C31 1.249 1_556 S
C23 C25 1.370 . S
C23 C28 1.390 . S
C23 C29 1.489 . S
C24 C25 1.395 1_556 S
C24 C26 1.414 . S
C25 C23 1.370 . S
C25 C24 1.395 1_554 S
C25 H35 0.932 1_545 S
C26 C24 1.414 . S
C26 C27 1.344 . S
C26 H36 0.931 . S
C27 C26 1.344 . S
C27 C28 1.423 1_556 S
C28 C23 1.390 . S
C28 C27 1.423 1_554 S
C28 H37 0.930 1_655 S
C29 Eu1 2.846 . S
C29 O16 1.258 . S
C29 O17 1.246 1_655 S
C29 C23 1.489 . S
C30 O19 1.279 . S
C30 O20 1.216 1_445 S
C31 O21 1.239 . S
C31 O22 1.249 1_554 S
H32 C9 0.931 . S
H33 C11 0.930 1_655 S
H34 C13 0.932 1_545 S
H35 C25 0.932 1_565 S
H36 C26 0.931 . S
H37 C28 0.930 1_455 S
H38 C44 0.930 . S
H39 C47 0.930 . S
H40 C48 0.930 . S
H41 C49 0.930 . S
H42 C52 0.930 . S
H43 C53 0.930 . S
C44 H38 0.930 . S
C44 C45 1.355 1_454 S
C44 C46 1.415 . S
C45 C44 1.355 1_656 S
C45 C47 1.419 . S
C46 C44 1.415 . S
C46 C51 1.425 1_454 S
C46 C53 1.409 . S
C47 H39 0.930 . S
C47 C45 1.419 . S
C47 C48 1.362 . S
C48 H40 0.930 . S
C48 C47 1.362 . S
C48 C51 1.409 . S
C49 H41 0.930 . S
C49 C50 1.355 1_656 S
C49 C51 1.415 . S
C50 C49 1.355 1_454 S
C50 C52 1.419 . S
C51 C46 1.425 1_656 S
C51 C48 1.409 . S
C51 C49 1.415 . S
C52 H42 0.930 . S
C52 C50 1.419 . S
C52 C53 1.362 . S
C53 H43 0.930 . S
C53 C46 1.409 . S
C53 C52 1.362 . S
H54 C60 0.930 . S
H55 C63 0.930 . S
H56 C64 0.930 . S
H57 C65 0.930 . S
H58 C68 0.930 . S
H59 C69 0.930 . S
C60 H54 0.930 . S
C60 C61 1.359 1_564 S
C60 C62 1.415 . S
C61 C60 1.359 1_546 S
C61 C63 1.427 . S
C62 C60 1.415 . S
C62 C67 1.425 1_564 S
C62 C69 1.409 . S
C63 H55 0.930 . S
C63 C61 1.427 . S
C63 C64 1.362 . S
C64 H56 0.930 . S
C64 C63 1.362 . S
C64 C67 1.409 . S
C65 H57 0.930 . S
C65 C66 1.358 1_546 S
C65 C67 1.415 . S
C66 C65 1.358 1_564 S
C66 C68 1.424 . S
C67 C62 1.425 1_546 S
C67 C64 1.409 . S
C67 C65 1.415 . S
C68 H58 0.930 . S
C68 C66 1.424 . S
C68 C69 1.362 . S
C69 H59 0.930 . S
C69 C62 1.409 . S
C69 C68 1.362 . S
H70 C76 0.930 . S
H71 C79 0.930 . S
H72 C80 0.930 . S
H73 C81 0.930 . S
H74 C84 0.930 . S
H75 C85 0.930 . S
C76 H70 0.930 . S
C76 C77 1.355 1_554 S
C76 C78 1.415 . S
C77 C76 1.355 1_556 S
C77 C79 1.419 . S
C78 C76 1.415 . S
C78 C83 1.425 1_554 S
C78 C85 1.409 . S
C79 H71 0.930 . S
C79 C77 1.419 . S
C79 C80 1.362 . S
C80 H72 0.930 . S
C80 C79 1.362 . S
C80 C83 1.409 . S
C81 H73 0.930 . S
C81 C82 1.355 1_556 S
C81 C83 1.415 . S
C82 C81 1.355 1_554 S
C82 C84 1.419 . S
C83 C78 1.425 1_556 S
C83 C80 1.409 . S
C83 C81 1.415 . S
C84 H74 0.930 . S
C84 C82 1.419 . S
C84 C85 1.362 . S
C85 H75 0.930 . S
C85 C78 1.409 . S
C85 C84 1.362 . S
H86 C92 0.930 . S
H87 C95 0.930 . S
H88 C96 0.930 . S
H89 C97 0.930 . S
H90 C100 0.930 . S
H91 C101 0.930 . S
C92 H86 0.930 . S
C92 C93 1.355 1_445 S
C92 C94 1.415 . S
C93 C92 1.355 1_665 S
C93 C95 1.419 . S
C94 C92 1.415 . S
C94 C99 1.425 1_445 S
C94 C101 1.409 . S
C95 H87 0.930 . S
C95 C93 1.419 . S
C95 C96 1.362 . S
C96 H88 0.930 . S
C96 C95 1.362 . S
C96 C99 1.409 . S
C97 H89 0.930 . S
C97 C98 1.355 1_665 S
C97 C99 1.415 . S
C98 C97 1.355 1_445 S
C98 C100 1.419 . S
C99 C94 1.425 1_665 S
C99 C96 1.409 . S
C99 C97 1.415 . S
C100 H90 0.930 . S
C100 C98 1.419 . S
C100 C101 1.362 . S
C101 H91 0.930 . S
C101 C94 1.409 . S
C101 C100 1.362 . S
C45 C27 1.147 . S
C50 C10 1.147 . S
C61 C24 1.871 . S
C66 C12 1.875 . S
C77 C31 1.028 1_556 S
C82 C18 1.028 1_554 S
C93 C15 1.474 . S
C98 C30 1.474 . S
