# Generated by pormake.
# Topology kag, (6)-cn, num edge types: 1
# Building blocks:
#     Node 0, Type 0, BuildingBlock: GEDQOX_clean_sbu_0, # of connection points: 6
#     Node 1, Type 0, BuildingBlock: GEDQOX_clean_sbu_0, # of connection points: 6
#     Node 2, Type 0, BuildingBlock: GEDQOX_clean_sbu_0, # of connection points: 6
#     Edge 3, Type (0, 0), None
#     Edge 4, Type (0, 0), None
#     Edge 5, Type (0, 0), None
#     Edge 6, Type (0, 0), None
#     Edge 7, Type (0, 0), None
#     Edge 8, Type (0, 0), None
#     Edge 9, Type (0, 0), None
#     Edge 10, Type (0, 0), None
#     Edge 11, Type (0, 0), None
# Relax obj value: 0.221
# Max RMSD: 0.324
# Mean RMSD: 0.181
data_MOF--net-kag--node1-GEDQOX_clean_sbu_0--edge1-none
_symmetry_space_group_name_H-M    P1
_symmetry_Int_Tables_number       1
_symmetry_cell_setting            triclinic
loop_
_symmetry_equiv_pos_as_xyz
'x, y, z'
_cell_length_a     31.16538
_cell_length_b     25.585965
_cell_length_c     6.3107412
_cell_angle_alpha  92.539553
_cell_angle_beta   89.52976
_cell_angle_gamma 152.14675
loop_
_atom_site_label
_atom_site_type_symbol
_atom_site_fract_x
_atom_site_fract_y
_atom_site_fract_z
_atom_type_partial_charge
Nd0 Nd 0.13622 0.66013 0.01533 0.0
Nd1 Nd 1.10363 0.50999 0.01433 0.0
C2 C 0.15211 0.77866 0.11252 0.0
C3 C 1.10911 0.78442 0.11471 0.0
C4 C 0.11923 0.82707 0.30167 0.0
C5 C 1.08807 0.8451 0.30461 0.0
C6 C 1.04633 0.82108 0.11994 0.0
C7 C 1.03433 0.77585 0.93362 0.0
C8 C 1.0655 0.75769 0.93091 0.0
C9 C 0.12444 0.60083 0.6134 0.0
C10 C 0.91958 0.38385 0.99804 0.0
C11 C 1.08764 0.39132 0.91788 0.0
C12 C 0.1307 0.38565 0.91506 0.0
C13 C 0.12051 0.34301 0.72784 0.0
C14 C 0.15168 0.32499 0.72436 0.0
C15 C 0.1935 0.34901 0.90874 0.0
C16 C 0.20558 0.39423 0.09531 0.0
C17 C 0.1744 0.41237 0.09857 0.0
C18 C 1.11525 0.56934 0.41611 0.0
C19 C 0.32024 0.78623 0.03127 0.0
O20 O 0.12504 0.71576 0.24545 0.0
O21 O 0.17212 0.77872 0.92941 0.0
O22 O 0.18228 0.70029 0.6724 0.0
O23 O 1.07339 0.53548 0.76056 0.0
O24 O 0.97598 0.48527 0.03354 0.0
O25 O 0.95208 0.37131 0.96421 0.0
O26 O 1.11416 0.4536 0.78423 0.0
O27 O 1.06823 0.39194 0.10135 0.0
O28 O 1.05732 0.46983 0.35711 0.0
O29 O 0.16653 0.63469 0.26911 0.0
O30 O 0.26383 0.68481 0.99559 0.0
O31 O 0.28775 0.79877 0.06543 0.0
H32 H 0.15352 0.84929 0.44457 0.0
H33 H 1.09902 0.88081 0.45007 0.0
H34 H 1.00085 0.7545 0.78989 0.0
H35 H 1.05681 0.72455 0.78459 0.0
H36 H 1.08614 0.32078 0.58517 0.0
H37 H 0.14067 0.28929 0.57872 0.0
H38 H 0.23912 0.41557 0.23882 0.0
H39 H 0.18315 0.44548 0.24509 0.0
Nd40 Nd 0.63253 0.15844 0.04285 0.0
Nd41 Nd 0.60728 1.01163 0.98592 0.0
C42 C 0.67546 0.30513 1.00642 0.0
C43 C 0.65488 0.34003 0.02552 0.0
C44 C 0.7239 0.44841 0.11589 0.0
C45 C 0.71183 0.4898 0.11864 0.0
C46 C 0.63009 0.42395 0.03134 0.0
C47 C 0.55982 0.31411 0.945 0.0
C48 C 0.57223 0.27278 0.94114 0.0
C49 C 0.6195 0.09572 0.41992 0.0
C50 C 0.81768 0.28106 0.99843 0.0
C51 C 0.56435 0.86491 0.02166 0.0
C52 C 0.58492 0.83001 1.00251 0.0
C53 C 0.51588 0.72163 0.91218 0.0
C54 C 0.52795 0.68023 0.90935 0.0
C55 C 0.60971 0.74609 0.99651 0.0
C56 C 0.68 0.85594 0.08282 0.0
C57 C 0.66758 0.89728 0.08678 0.0
C58 C 0.62059 1.07485 0.60907 0.0
C59 C 0.42214 0.88902 0.03072 0.0
O60 O 0.63363 0.23104 0.85335 0.0
O61 O 0.69448 0.30019 0.17901 0.0
O62 O 0.58341 0.10225 0.38279 0.0
O63 O 0.66188 0.12344 0.26338 0.0
O64 O 0.78166 0.28979 0.98614 0.0
O65 O 0.76556 0.1831 0.01497 0.0
O66 O 0.60602 0.93881 0.17504 0.0
O67 O 0.54551 0.8701 0.84909 0.0
O68 O 0.6567 1.06833 0.64609 0.0
O69 O 0.57792 1.04657 0.76549 0.0
O70 O 0.45816 0.88029 0.04277 0.0
O71 O 0.47425 0.98697 0.01425 0.0
H72 H 0.78866 0.50266 0.1803 0.0
H73 H 0.76748 0.57441 0.1872 0.0
H74 H 0.496 0.2609 0.87591 0.0
H75 H 0.51794 0.18915 0.86896 0.0
H76 H 0.45111 0.66737 0.84787 0.0
H77 H 0.47228 0.59561 0.84081 0.0
H78 H 0.74382 0.90915 0.15181 0.0
H79 H 0.72189 0.98091 0.15892 0.0
Nd80 Nd 0.51892 0.47243 1.01064 0.0
Nd81 Nd 0.72087 0.69757 0.01654 0.0
C82 C 0.342 0.29998 0.9313 0.0
C83 C 0.29271 0.29726 0.91133 0.0
C84 C 0.30258 0.33851 0.7343 0.0
C85 C 0.2688 0.35317 0.73191 0.0
C86 C 0.22433 0.32688 0.90616 0.0
C87 C 0.21061 0.2807 0.07874 0.0
C88 C 0.24412 0.2656 0.08084 0.0
C89 C 0.60142 0.56319 0.41409 0.0
C90 C 0.61898 0.69778 1.00276 0.0
C91 C 0.89782 0.87006 0.09524 0.0
C92 C 0.94709 0.87277 0.11577 0.0
C93 C 0.93713 0.83151 0.29301 0.0
C94 C 0.97092 0.81687 0.29591 0.0
C95 C 1.01549 0.84318 0.12196 0.0
C96 C 1.02929 0.88936 0.94916 0.0
C97 C 0.99577 0.90444 0.94655 0.0
C98 C 0.6381 0.60662 0.61366 0.0
C99 C 0.62082 0.47226 0.02493 0.0
O100 O 0.3973 0.34675 0.7823 0.0
O101 O 0.37796 0.32937 0.12118 0.0
O102 O 0.53365 0.45914 0.35154 0.0
O103 O 0.62391 0.61612 0.26778 0.0
O104 O 0.54556 0.58903 0.95197 0.0
O105 O 0.69843 0.76184 0.06165 0.0
O106 O 0.8427 0.82366 0.24438 0.0
O107 O 0.86168 0.84028 0.90533 0.0
O108 O 0.70584 0.71067 0.67604 0.0
O109 O 0.61587 0.55382 0.75976 0.0
O110 O 0.69422 0.581 0.07578 0.0
O111 O 0.54139 0.4082 0.96575 0.0
H112 H 0.33958 0.3638 0.60062 0.0
H113 H 0.28079 0.38928 0.59687 0.0
H114 H 0.17476 0.25725 0.2133 0.0
H115 H 0.23483 0.23283 0.21862 0.0
H116 H 0.90004 0.80619 0.42646 0.0
H117 H 0.95886 0.78076 0.43111 0.0
H118 H 1.06521 0.91282 0.81482 0.0
H119 H 1.00512 0.93721 0.80861 0.0
loop_
_geom_bond_atom_site_label_1
_geom_bond_atom_site_label_2
_geom_bond_distance
_geom_bond_site_symmetry_2
_ccdc_geom_bond_type
Nd0 C2 2.836 1_456 S
Nd0 O20 2.500 1_456 S
Nd0 O21 2.492 1_455 S
Nd0 O22 2.487 1_455 S
Nd0 O23 2.682 . S
Nd0 O24 2.410 1_455 S
Nd0 O29 2.414 1_456 S
Nd0 O31 2.424 1_556 S
Nd1 C11 2.836 1_654 S
Nd1 O23 2.414 1_654 S
Nd1 O25 2.424 1_554 S
Nd1 O26 2.500 1_654 S
Nd1 O27 2.492 1_655 S
Nd1 O28 2.487 1_655 S
Nd1 O29 2.682 . S
Nd1 O30 2.410 1_655 S
C2 Nd0 2.836 1_654 S
C2 C3 1.498 . S
C2 O20 1.258 . S
C2 O21 1.239 1_554 S
C3 C2 1.498 . S
C3 C4 1.366 . S
C3 C8 1.407 1_554 S
C4 C3 1.366 . S
C4 C5 1.392 . S
C4 H32 0.930 . S
C5 C4 1.392 . S
C5 C6 1.398 . S
C5 H33 0.929 . S
C6 C5 1.398 . S
C6 C7 1.352 1_554 S
C7 C6 1.352 1_556 S
C7 C8 1.384 . S
C7 H34 0.930 . S
C8 C3 1.407 1_556 S
C8 C7 1.384 . S
C8 H35 0.929 . S
C9 O22 1.241 1_455 S
C9 O23 1.273 . S
C10 O24 1.251 . S
C10 O25 1.268 . S
C11 Nd1 2.836 1_456 S
C11 C12 1.498 . S
C11 O26 1.258 . S
C11 O27 1.239 1_556 S
C12 C11 1.498 . S
C12 C13 1.366 . S
C12 C17 1.407 1_556 S
C13 C12 1.366 . S
C13 C14 1.392 . S
C13 H36 0.930 . S
C14 C13 1.392 . S
C14 C15 1.398 . S
C14 H37 0.929 . S
C15 C14 1.398 . S
C15 C16 1.352 1_556 S
C16 C15 1.352 1_554 S
C16 C17 1.384 . S
C16 H38 0.930 . S
C17 C12 1.407 1_554 S
C17 C16 1.384 . S
C17 H39 0.929 . S
C18 O28 1.236 1_655 S
C18 O29 1.276 . S
C19 O30 1.251 . S
C19 O31 1.268 . S
O20 Nd0 2.500 1_654 S
O20 C2 1.258 . S
O21 Nd0 2.492 1_655 S
O21 C2 1.239 1_556 S
O22 Nd0 2.487 1_655 S
O22 C9 1.241 1_655 S
O23 Nd0 2.682 . S
O23 Nd1 2.414 1_456 S
O23 C9 1.273 . S
O24 Nd0 2.410 1_655 S
O24 C10 1.251 . S
O25 Nd1 2.424 1_556 S
O25 C10 1.268 . S
O26 Nd1 2.500 1_456 S
O26 C11 1.258 . S
O27 Nd1 2.492 1_455 S
O27 C11 1.239 1_554 S
O28 Nd1 2.487 1_455 S
O28 C18 1.236 1_455 S
O29 Nd0 2.414 1_654 S
O29 Nd1 2.682 . S
O29 C18 1.276 . S
O30 Nd1 2.410 1_455 S
O30 C19 1.251 . S
O31 Nd0 2.424 1_554 S
O31 C19 1.268 . S
H32 C4 0.930 . S
H33 C5 0.929 . S
H34 C7 0.930 . S
H35 C8 0.929 . S
H36 C13 0.930 . S
H37 C14 0.929 . S
H38 C16 0.930 . S
H39 C17 0.929 . S
Nd40 C42 2.836 . S
Nd40 O60 2.500 1_554 S
Nd40 O61 2.492 . S
Nd40 O62 2.487 . S
Nd40 O63 2.682 1_545 S
Nd40 O64 2.410 . S
Nd40 O69 2.414 1_554 S
Nd40 O71 2.424 1_545 S
Nd41 C51 2.836 . S
Nd41 O63 2.414 1_556 S
Nd41 O65 2.424 1_565 S
Nd41 O66 2.500 1_556 S
Nd41 O67 2.492 . S
Nd41 O68 2.487 . S
Nd41 O69 2.682 1_565 S
Nd41 O70 2.410 . S
C42 Nd40 2.836 . S
C42 C43 1.498 . S
C42 O60 1.258 1_554 S
C42 O61 1.239 . S
C43 C42 1.498 . S
C43 C44 1.366 1_554 S
C43 C48 1.407 . S
C44 C43 1.366 1_556 S
C44 C45 1.392 . S
C44 H72 0.930 . S
C45 C44 1.392 . S
C45 C46 1.398 1_556 S
C45 H73 0.929 . S
C46 C45 1.398 1_554 S
C46 C47 1.352 . S
C47 C46 1.352 . S
C47 C48 1.384 . S
C47 H74 0.930 . S
C48 C43 1.407 . S
C48 C47 1.384 . S
C48 H75 0.929 . S
C49 O62 1.241 . S
C49 O63 1.273 1_545 S
C50 O64 1.251 . S
C50 O65 1.268 1_554 S
C51 Nd41 2.836 . S
C51 C52 1.498 . S
C51 O66 1.258 1_556 S
C51 O67 1.239 . S
C52 C51 1.498 . S
C52 C53 1.366 1_556 S
C52 C57 1.407 . S
C53 C52 1.366 1_554 S
C53 C54 1.392 . S
C53 H76 0.930 . S
C54 C53 1.392 . S
C54 C55 1.398 1_554 S
C54 H77 0.929 . S
C55 C54 1.398 1_556 S
C55 C56 1.352 . S
C56 C55 1.352 . S
C56 C57 1.384 . S
C56 H78 0.930 . S
C57 C52 1.407 . S
C57 C56 1.384 . S
C57 H79 0.929 . S
C58 O68 1.241 . S
C58 O69 1.273 1_565 S
C59 O70 1.251 . S
C59 O71 1.268 1_556 S
O60 Nd40 2.500 1_556 S
O60 C42 1.258 1_556 S
O61 Nd40 2.492 . S
O61 C42 1.239 . S
O62 Nd40 2.487 . S
O62 C49 1.241 . S
O63 Nd40 2.682 1_565 S
O63 Nd41 2.414 1_554 S
O63 C49 1.273 1_565 S
O64 Nd40 2.410 . S
O64 C50 1.251 . S
O65 Nd41 2.424 1_545 S
O65 C50 1.268 1_556 S
O66 Nd41 2.500 1_554 S
O66 C51 1.258 1_554 S
O67 Nd41 2.492 . S
O67 C51 1.239 . S
O68 Nd41 2.487 . S
O68 C58 1.241 . S
O69 Nd40 2.414 1_556 S
O69 Nd41 2.682 1_545 S
O69 C58 1.273 1_545 S
O70 Nd41 2.410 . S
O70 C59 1.251 . S
O71 Nd40 2.424 1_565 S
O71 C59 1.268 1_554 S
H72 C44 0.930 . S
H73 C45 0.929 . S
H74 C47 0.930 . S
H75 C48 0.929 . S
H76 C53 0.930 . S
H77 C54 0.929 . S
H78 C56 0.930 . S
H79 C57 0.929 . S
Nd80 C82 2.836 1_554 S
Nd80 O100 2.500 1_554 S
Nd80 O101 2.492 . S
Nd80 O102 2.487 . S
Nd80 O103 2.682 . S
Nd80 O104 2.410 . S
Nd80 O109 2.414 1_554 S
Nd80 O111 2.424 1_554 S
Nd81 C91 2.836 1_556 S
Nd81 O103 2.414 1_556 S
Nd81 O105 2.424 1_556 S
Nd81 O106 2.500 1_556 S
Nd81 O107 2.492 . S
Nd81 O108 2.487 . S
Nd81 O109 2.682 . S
Nd81 O110 2.410 . S
C82 Nd80 2.836 1_556 S
C82 C83 1.498 . S
C82 O100 1.258 . S
C82 O101 1.239 1_556 S
C83 C82 1.498 . S
C83 C84 1.366 . S
C83 C88 1.407 1_556 S
C84 C83 1.366 . S
C84 C85 1.392 . S
C84 H112 0.930 . S
C85 C84 1.392 . S
C85 C86 1.398 . S
C85 H113 0.929 . S
C86 C85 1.398 . S
C86 C87 1.352 1_556 S
C87 C86 1.352 1_554 S
C87 C88 1.384 . S
C87 H114 0.930 . S
C88 C83 1.407 1_554 S
C88 C87 1.384 . S
C88 H115 0.929 . S
C89 O102 1.241 . S
C89 O103 1.273 . S
C90 O104 1.251 . S
C90 O105 1.268 . S
C91 Nd81 2.836 1_554 S
C91 C92 1.498 . S
C91 O106 1.258 . S
C91 O107 1.239 1_554 S
C92 C91 1.498 . S
C92 C93 1.366 . S
C92 C97 1.407 1_554 S
C93 C92 1.366 . S
C93 C94 1.392 . S
C93 H116 0.930 . S
C94 C93 1.392 . S
C94 C95 1.398 . S
C94 H117 0.929 . S
C95 C94 1.398 . S
C95 C96 1.352 1_554 S
C96 C95 1.352 1_556 S
C96 C97 1.384 . S
C96 H118 0.930 . S
C97 C92 1.407 1_556 S
C97 C96 1.384 . S
C97 H119 0.929 . S
C98 O108 1.241 . S
C98 O109 1.273 . S
C99 O110 1.251 . S
C99 O111 1.268 . S
O100 Nd80 2.500 1_556 S
O100 C82 1.258 . S
O101 Nd80 2.492 . S
O101 C82 1.239 1_554 S
O102 Nd80 2.487 . S
O102 C89 1.241 . S
O103 Nd80 2.682 . S
O103 Nd81 2.414 1_554 S
O103 C89 1.273 . S
O104 Nd80 2.410 . S
O104 C90 1.251 . S
O105 Nd81 2.424 1_554 S
O105 C90 1.268 . S
O106 Nd81 2.500 1_554 S
O106 C91 1.258 . S
O107 Nd81 2.492 . S
O107 C91 1.239 1_556 S
O108 Nd81 2.487 . S
O108 C98 1.241 . S
O109 Nd80 2.414 1_556 S
O109 Nd81 2.682 . S
O109 C98 1.273 . S
O110 Nd81 2.410 . S
O110 C99 1.251 . S
O111 Nd80 2.424 1_556 S
O111 C99 1.268 . S
H112 C84 0.930 . S
H113 C85 0.929 . S
H114 C87 0.930 . S
H115 C88 0.929 . S
H116 C93 0.930 . S
H117 C94 0.929 . S
H118 C96 0.930 . S
H119 C97 0.929 . S
C9 C18 1.365 1_455 S
C49 C58 1.549 1_545 S
C98 C89 1.382 . S
C15 C86 1.407 . S
C50 C10 3.993 1_554 S
C55 C90 4.766 1_556 S
C6 C95 1.408 . S
C19 C59 3.993 1_554 S
C99 C46 4.765 1_556 S
