# Generated by pormake.
# Topology uov, (4)-cn, num edge types: 1
# Building blocks:
#     Node 0, Type 0, BuildingBlock: QUQFOY_clean_sbu_3, # of connection points: 4
#     Node 1, Type 0, BuildingBlock: QUQFOY_clean_sbu_3, # of connection points: 4
#     Node 2, Type 0, BuildingBlock: QUQFOY_clean_sbu_3, # of connection points: 4
#     Node 3, Type 0, BuildingBlock: QUQFOY_clean_sbu_3, # of connection points: 4
#     Node 4, Type 0, BuildingBlock: QUQFOY_clean_sbu_3, # of connection points: 4
#     Node 5, Type 0, BuildingBlock: QUQFOY_clean_sbu_3, # of connection points: 4
#     Node 6, Type 0, BuildingBlock: QUQFOY_clean_sbu_3, # of connection points: 4
#     Node 7, Type 0, BuildingBlock: QUQFOY_clean_sbu_3, # of connection points: 4
#     Edge 8, Type (0, 0), None
#     Edge 9, Type (0, 0), None
#     Edge 10, Type (0, 0), None
#     Edge 11, Type (0, 0), None
#     Edge 12, Type (0, 0), None
#     Edge 13, Type (0, 0), None
#     Edge 14, Type (0, 0), None
#     Edge 15, Type (0, 0), None
#     Edge 16, Type (0, 0), None
#     Edge 17, Type (0, 0), None
#     Edge 18, Type (0, 0), None
#     Edge 19, Type (0, 0), None
#     Edge 20, Type (0, 0), None
#     Edge 21, Type (0, 0), None
#     Edge 22, Type (0, 0), None
#     Edge 23, Type (0, 0), None
# Relax obj value: 0.135
# Max RMSD: 0.157
# Mean RMSD: 0.148
data_MOF--net-uov--node1-QUQFOY_clean_sbu_3--edge1-none
_symmetry_space_group_name_H-M    P1
_symmetry_Int_Tables_number       1
_symmetry_cell_setting            triclinic
loop_
_symmetry_equiv_pos_as_xyz
'x, y, z'
_cell_length_a     15.056085
_cell_length_b     15.056482
_cell_length_c     21.157489
_cell_angle_alpha  89.977779
_cell_angle_beta   90.017079
_cell_angle_gamma 79.439858
loop_
_atom_site_label
_atom_site_type_symbol
_atom_site_fract_x
_atom_site_fract_y
_atom_site_fract_z
_atom_type_partial_charge
C0 C 0.78009 0.18379 0.506 0.0
O1 O 0.77776 0.12078 0.54535 0.0
Cd2 Cd 0.92336 0.05945 0.58985 0.0
O3 O 0.84782 0.22357 0.50496 0.0
Cd4 Cd -0.01239 0.23601 0.56508 0.0
C5 C 0.06501 0.08198 0.46202 0.0
O6 O -0.00976 0.14668 0.66431 0.0
O7 O 0.11914 0.15793 0.62211 0.0
O8 O 0.91057 0.38933 0.5916 0.0
C9 C 0.07631 0.12866 0.66665 0.0
O10 O 0.02369 0.03614 0.49833 0.0
C11 C -0.02299 0.42675 0.57783 0.0
O12 O 0.06423 0.16529 0.47231 0.0
O13 O 0.0493 0.37573 0.55984 0.0
C14 C 0.13536 0.82349 0.22743 0.0
O15 O 0.07633 0.80013 0.26383 0.0
Cd16 Cd 0.06442 0.81404 0.37706 0.0
O17 O 0.19962 0.8602 0.24856 0.0
Cd18 Cd 0.25882 0.9092 0.35089 0.0
C19 C 0.23176 0.75209 0.45427 0.0
O20 O 0.11323 0.95543 0.39586 0.0
O21 O 0.19434 0.05952 0.3954 0.0
O22 O 0.35575 0.01794 0.32784 0.0
C23 C 0.12316 0.0333 0.41355 0.0
O24 O 0.20435 0.7195 0.40438 0.0
C25 C 0.42903 0.9614 0.33354 0.0
O26 O 0.282 0.81063 0.44718 0.0
O27 O 0.42337 0.87967 0.34493 0.0
C28 C 0.16543 0.76855 0.50626 0.0
O29 O 0.16763 0.83167 0.54552 0.0
Cd30 Cd 0.02204 0.8929 0.58998 0.0
O31 O 0.09779 0.72864 0.50522 0.0
Cd32 Cd 0.95797 0.71603 0.56517 0.0
C33 C 0.88046 0.87022 0.46208 0.0
O34 O 0.95533 0.80537 0.66435 0.0
O35 O 0.82642 0.7938 0.62223 0.0
O36 O 0.03505 0.56267 0.59169 0.0
C37 C 0.86925 0.82324 0.6667 0.0
O38 O 0.9217 0.91609 0.49841 0.0
C39 C 0.96863 0.52526 0.57784 0.0
O40 O 0.88133 0.78688 0.47237 0.0
O41 O 0.89633 0.5763 0.55982 0.0
C42 C 0.8102 0.12845 0.2272 0.0
O43 O 0.86923 0.15181 0.26361 0.0
Cd44 Cd 0.88116 0.13804 0.37686 0.0
O45 O 0.7459 0.0918 0.24833 0.0
Cd46 Cd 0.6867 0.04294 0.3507 0.0
C47 C 0.71381 0.20026 0.45393 0.0
O48 O 0.83226 -0.00328 0.39578 0.0
O49 O 0.75112 0.89265 0.39539 0.0
O50 O 0.58971 0.93425 0.32777 0.0
C51 C 0.82231 0.91887 0.41355 0.0
O52 O 0.74138 0.23285 0.40408 0.0
C53 C 0.51644 -0.00921 0.3335 0.0
O54 O 0.66367 0.14163 0.44688 0.0
O55 O 0.52213 0.07252 0.34484 0.0
C56 C 0.82031 0.13853 0.15888 0.0
O57 O 0.79697 0.07949 0.12249 0.0
Cd58 Cd 0.81088 0.06758 0.00926 0.0
O59 O 0.85702 0.20279 0.13774 0.0
Cd60 Cd 0.90602 0.26201 0.03541 0.0
C61 C 0.74891 0.23492 0.93205 0.0
O62 O 0.95227 0.11641 -0.00953 0.0
O63 O 0.05634 0.19754 -0.00912 0.0
O64 O 0.01476 0.35893 0.05845 0.0
C65 C 0.03014 0.12633 -0.02723 0.0
O66 O 0.71634 0.2075 -0.01805 0.0
C67 C 0.95821 0.43221 0.05277 0.0
O68 O 0.80744 0.28518 0.93912 0.0
O69 O 0.87648 0.42655 0.04138 0.0
C70 C 0.18059 0.7833 0.8803 0.0
O71 O 0.11757 0.78097 0.84095 0.0
Cd72 Cd 0.05624 0.92657 0.79646 0.0
O73 O 0.22037 0.85102 0.88133 0.0
Cd74 Cd 0.23283 -0.0092 0.82121 0.0
C75 C 0.07881 0.06819 0.92429 0.0
O76 O 0.14349 -0.00657 0.72198 0.0
O77 O 0.15475 0.12233 0.76417 0.0
O78 O 0.38616 0.91376 0.7947 0.0
C79 C 0.12549 0.0795 0.71963 0.0
O80 O 0.03295 0.02688 0.88798 0.0
C81 C 0.42357 -0.0198 0.80846 0.0
O82 O 0.16212 0.06742 0.91398 0.0
O83 O 0.37256 0.0525 0.82644 0.0
C84 C 0.12528 0.81336 0.15911 0.0
O85 O 0.14862 0.8724 0.1227 0.0
Cd86 Cd 0.13482 0.88436 0.00945 0.0
O87 O 0.08863 0.74906 0.13799 0.0
Cd88 Cd 0.03975 0.68988 0.03562 0.0
C89 C 0.19705 0.71702 0.93237 0.0
O90 O -0.0065 0.83545 -0.00943 0.0
O91 O 0.88944 0.75431 -0.00905 0.0
O92 O 0.93106 0.59288 0.05857 0.0
C93 C 0.91564 0.82552 -0.02718 0.0
O94 O 0.22964 0.74459 -0.01779 0.0
C95 C -0.01239 0.51962 0.05282 0.0
O96 O 0.13841 0.66688 0.93943 0.0
O97 O 0.06933 0.52532 0.04147 0.0
C98 C 0.76537 0.1686 0.88006 0.0
O99 O 0.82848 0.17081 0.84079 0.0
Cd100 Cd 0.88972 0.02521 0.79636 0.0
O101 O 0.72546 0.10096 0.8811 0.0
Cd102 Cd 0.71286 0.96114 0.82115 0.0
C103 C 0.867 0.88367 0.92427 0.0
O104 O 0.80222 0.95848 0.72198 0.0
O105 O 0.79066 0.82959 0.76412 0.0
O106 O 0.55951 0.03823 0.79461 0.0
C107 C 0.82009 0.87241 0.71963 0.0
O108 O 0.91289 0.9249 0.88795 0.0
C109 C 0.52209 0.97181 0.80846 0.0
O110 O 0.78367 0.88451 0.91397 0.0
O111 O 0.57312 0.89952 0.82649 0.0
loop_
_geom_bond_atom_site_label_1
_geom_bond_atom_site_label_2
_geom_bond_distance
_geom_bond_site_symmetry_2
_ccdc_geom_bond_type
C0 O1 1.306 . S
C0 O3 1.160 . S
O1 C0 1.306 . S
O1 Cd2 2.228 1_655 S
Cd2 O1 2.228 1_455 S
Cd2 O6 2.273 . S
Cd2 O10 2.277 . S
O3 C0 1.160 . S
O3 Cd4 2.203 1_655 S
Cd4 O3 2.203 1_455 S
Cd4 O6 2.411 . S
Cd4 O7 2.333 . S
Cd4 O8 2.352 . S
Cd4 O12 2.277 . S
Cd4 O13 2.356 . S
C5 O10 1.209 . S
C5 O12 1.226 . S
O6 Cd2 2.273 . S
O6 Cd4 2.411 . S
O6 C9 1.320 . S
O7 Cd4 2.333 . S
O7 C9 1.214 . S
O8 Cd4 2.352 . S
O8 C11 1.258 . S
C9 O6 1.320 . S
C9 O7 1.214 . S
O10 Cd2 2.277 . S
O10 C5 1.209 . S
C11 O8 1.258 . S
C11 O13 1.282 . S
O12 Cd4 2.277 . S
O12 C5 1.226 . S
O13 Cd4 2.356 . S
O13 C11 1.282 . S
C14 O15 1.306 . S
C14 O17 1.160 . S
O15 C14 1.306 . S
O15 Cd16 2.228 . S
Cd16 O15 2.228 . S
Cd16 O20 2.273 1_565 S
Cd16 O24 2.277 . S
O17 C14 1.160 . S
O17 Cd18 2.203 . S
Cd18 O17 2.203 . S
Cd18 O20 2.411 1_565 S
Cd18 O21 2.333 1_565 S
Cd18 O22 2.352 . S
Cd18 O26 2.277 . S
Cd18 O27 2.356 . S
C19 O24 1.209 . S
C19 O26 1.226 . S
O20 Cd16 2.273 1_545 S
O20 Cd18 2.411 1_545 S
O20 C23 1.320 . S
O21 Cd18 2.333 1_545 S
O21 C23 1.214 . S
O22 Cd18 2.352 . S
O22 C25 1.258 . S
C23 O20 1.320 . S
C23 O21 1.214 . S
O24 Cd16 2.277 . S
O24 C19 1.209 . S
C25 O22 1.258 . S
C25 O27 1.282 . S
O26 Cd18 2.277 . S
O26 C19 1.226 . S
O27 Cd18 2.356 . S
O27 C25 1.282 . S
C28 O29 1.306 . S
C28 O31 1.160 . S
O29 C28 1.306 . S
O29 Cd30 2.228 1_455 S
Cd30 O29 2.228 1_655 S
Cd30 O34 2.273 . S
Cd30 O38 2.277 . S
O31 C28 1.160 . S
O31 Cd32 2.203 1_455 S
Cd32 O31 2.203 1_655 S
Cd32 O34 2.411 . S
Cd32 O35 2.333 . S
Cd32 O36 2.352 . S
Cd32 O40 2.277 . S
Cd32 O41 2.356 . S
C33 O38 1.209 . S
C33 O40 1.226 . S
O34 Cd30 2.273 . S
O34 Cd32 2.411 . S
O34 C37 1.320 . S
O35 Cd32 2.333 . S
O35 C37 1.214 . S
O36 Cd32 2.352 . S
O36 C39 1.258 . S
C37 O34 1.320 . S
C37 O35 1.214 . S
O38 Cd30 2.277 . S
O38 C33 1.209 . S
C39 O36 1.258 . S
C39 O41 1.282 . S
O40 Cd32 2.277 . S
O40 C33 1.226 . S
O41 Cd32 2.356 . S
O41 C39 1.282 . S
C42 O43 1.306 . S
C42 O45 1.160 . S
O43 C42 1.306 . S
O43 Cd44 2.228 . S
Cd44 O43 2.228 . S
Cd44 O48 2.273 1_545 S
Cd44 O52 2.277 . S
O45 C42 1.160 . S
O45 Cd46 2.203 . S
Cd46 O45 2.203 . S
Cd46 O48 2.411 1_545 S
Cd46 O49 2.333 1_545 S
Cd46 O50 2.352 . S
Cd46 O54 2.277 . S
Cd46 O55 2.356 . S
C47 O52 1.209 . S
C47 O54 1.226 . S
O48 Cd44 2.273 1_565 S
O48 Cd46 2.411 1_565 S
O48 C51 1.320 . S
O49 Cd46 2.333 1_565 S
O49 C51 1.214 . S
O50 Cd46 2.352 . S
O50 C53 1.258 . S
C51 O48 1.320 . S
C51 O49 1.214 . S
O52 Cd44 2.277 . S
O52 C47 1.209 . S
C53 O50 1.258 . S
C53 O55 1.282 . S
O54 Cd46 2.277 . S
O54 C47 1.226 . S
O55 Cd46 2.356 . S
O55 C53 1.282 . S
C56 O57 1.306 . S
C56 O59 1.160 . S
O57 C56 1.306 . S
O57 Cd58 2.228 . S
Cd58 O57 2.228 . S
Cd58 O62 2.273 1_655 S
Cd58 O66 2.277 . S
O59 C56 1.160 . S
O59 Cd60 2.203 . S
Cd60 O59 2.203 . S
Cd60 O62 2.411 1_655 S
Cd60 O63 2.333 1_654 S
Cd60 O64 2.352 . S
Cd60 O68 2.277 . S
Cd60 O69 2.356 . S
C61 O66 1.209 . S
C61 O68 1.226 . S
O62 Cd58 2.273 1_455 S
O62 Cd60 2.411 1_455 S
O62 C65 1.320 . S
O63 Cd60 2.333 1_456 S
O63 C65 1.214 1_556 S
O64 Cd60 2.352 . S
O64 C67 1.258 . S
C65 O62 1.320 . S
C65 O63 1.214 1_554 S
O66 Cd58 2.277 . S
O66 C61 1.209 . S
C67 O64 1.258 . S
C67 O69 1.282 . S
O68 Cd60 2.277 . S
O68 C61 1.226 . S
O69 Cd60 2.356 . S
O69 C67 1.282 . S
C70 O71 1.306 . S
C70 O73 1.160 . S
O71 C70 1.306 . S
O71 Cd72 2.228 1_565 S
Cd72 O71 2.228 1_545 S
Cd72 O76 2.273 . S
Cd72 O80 2.277 . S
O73 C70 1.160 . S
O73 Cd74 2.203 1_565 S
Cd74 O73 2.203 1_545 S
Cd74 O76 2.411 . S
Cd74 O77 2.333 . S
Cd74 O78 2.352 . S
Cd74 O82 2.277 . S
Cd74 O83 2.356 . S
C75 O80 1.209 . S
C75 O82 1.226 . S
O76 Cd72 2.273 . S
O76 Cd74 2.411 . S
O76 C79 1.320 . S
O77 Cd74 2.333 . S
O77 C79 1.214 . S
O78 Cd74 2.352 . S
O78 C81 1.258 . S
C79 O76 1.320 . S
C79 O77 1.214 . S
O80 Cd72 2.277 . S
O80 C75 1.209 . S
C81 O78 1.258 . S
C81 O83 1.282 . S
O82 Cd74 2.277 . S
O82 C75 1.226 . S
O83 Cd74 2.356 . S
O83 C81 1.282 . S
C84 O85 1.306 . S
C84 O87 1.160 . S
O85 C84 1.306 . S
O85 Cd86 2.228 . S
Cd86 O85 2.228 . S
Cd86 O90 2.273 1_455 S
Cd86 O94 2.277 . S
O87 C84 1.160 . S
O87 Cd88 2.203 . S
Cd88 O87 2.203 . S
Cd88 O90 2.411 1_455 S
Cd88 O91 2.333 1_454 S
Cd88 O92 2.352 . S
Cd88 O96 2.277 . S
Cd88 O97 2.356 . S
C89 O94 1.209 . S
C89 O96 1.226 . S
O90 Cd86 2.273 1_655 S
O90 Cd88 2.411 1_655 S
O90 C93 1.320 . S
O91 Cd88 2.333 1_656 S
O91 C93 1.214 1_556 S
O92 Cd88 2.352 . S
O92 C95 1.258 . S
C93 O90 1.320 . S
C93 O91 1.214 1_554 S
O94 Cd86 2.277 . S
O94 C89 1.209 . S
C95 O92 1.258 . S
C95 O97 1.282 . S
O96 Cd88 2.277 . S
O96 C89 1.226 . S
O97 Cd88 2.356 . S
O97 C95 1.282 . S
C98 O99 1.306 . S
C98 O101 1.160 . S
O99 C98 1.306 . S
O99 Cd100 2.228 1_545 S
Cd100 O99 2.228 1_565 S
Cd100 O104 2.273 . S
Cd100 O108 2.277 . S
O101 C98 1.160 . S
O101 Cd102 2.203 1_545 S
Cd102 O101 2.203 1_565 S
Cd102 O104 2.411 . S
Cd102 O105 2.333 . S
Cd102 O106 2.352 . S
Cd102 O110 2.277 . S
Cd102 O111 2.356 . S
C103 O108 1.209 . S
C103 O110 1.226 . S
O104 Cd100 2.273 . S
O104 Cd102 2.411 . S
O104 C107 1.320 . S
O105 Cd102 2.333 . S
O105 C107 1.214 . S
O106 Cd102 2.352 . S
O106 C109 1.258 . S
C107 O104 1.320 . S
C107 O105 1.214 . S
O108 Cd100 2.277 . S
O108 C103 1.209 . S
C109 O106 1.258 . S
C109 O111 1.282 . S
O110 Cd102 2.277 . S
O110 C103 1.226 . S
O111 Cd102 2.356 . S
O111 C109 1.282 . S
C39 C11 2.101 1_655 S
C53 C25 2.176 1_545 S
C67 C95 2.176 1_655 S
C81 C109 2.101 1_545 S
C23 C5 1.275 . S
C19 C28 1.472 . S
C51 C33 1.275 . S
C47 C0 1.472 . S
C98 C61 1.472 1_556 S
C75 C65 1.275 1_556 S
C89 C70 1.472 1_554 S
C103 C93 1.275 1_556 S
C9 C79 1.791 . S
C84 C14 1.662 . S
C37 C107 1.791 . S
C42 C56 1.662 . S
