# Generated by pormake.
# Topology bsn, (6)-cn, num edge types: 1
# Building blocks:
#     Node 0, Type 0, BuildingBlock: VOLQOD_clean_sbu_1, # of connection points: 6
#     Node 1, Type 0, BuildingBlock: VOLQOD_clean_sbu_1, # of connection points: 6
#     Node 2, Type 0, BuildingBlock: VOLQOD_clean_sbu_1, # of connection points: 6
#     Node 3, Type 0, BuildingBlock: VOLQOD_clean_sbu_1, # of connection points: 6
#     Edge 4, Type (0, 0), None
#     Edge 5, Type (0, 0), None
#     Edge 6, Type (0, 0), None
#     Edge 7, Type (0, 0), None
#     Edge 8, Type (0, 0), None
#     Edge 9, Type (0, 0), None
#     Edge 10, Type (0, 0), None
#     Edge 11, Type (0, 0), None
#     Edge 12, Type (0, 0), None
#     Edge 13, Type (0, 0), None
#     Edge 14, Type (0, 0), None
#     Edge 15, Type (0, 0), None
# Relax obj value: 0.020
# Max RMSD: 0.065
# Mean RMSD: 0.064
data_MOF--net-bsn--node1-VOLQOD_clean_sbu_1--edge1-none
_symmetry_space_group_name_H-M    P1
_symmetry_Int_Tables_number       1
_symmetry_cell_setting            triclinic
loop_
_symmetry_equiv_pos_as_xyz
'x, y, z'
_cell_length_a     16.770718
_cell_length_b     16.855348
_cell_length_c     8.5782864
_cell_angle_alpha  90.01014
_cell_angle_beta   90.020728
_cell_angle_gamma 89.999867
loop_
_atom_site_label
_atom_site_type_symbol
_atom_site_fract_x
_atom_site_fract_y
_atom_site_fract_z
_atom_type_partial_charge
O0 O 0.06741 0.24121 0.71312 0.0
Zn1 Zn 0.07971 0.28709 0.49847 0.0
O2 O 0.00056 0.24127 0.36892 0.0
Zn3 Zn 0.04758 0.1615 0.24127 0.0
Zn4 Zn 0.92136 0.19557 0.49836 0.0
Zn5 Zn 0.95363 0.32099 0.24106 0.0
O6 O 0.00292 0.17476 0.02556 0.0
O7 O -0.00159 0.30766 0.02553 0.0
O8 O 0.18823 0.2775 0.39138 0.0
O9 O 0.16342 0.18679 0.20909 0.0
O10 O 0.03313 0.05215 0.344 0.0
O11 O 0.94584 0.08099 0.53127 0.0
O12 O 0.81279 0.20543 0.39141 0.0
O13 O 0.05495 0.40161 0.53168 0.0
O14 O 0.8378 0.29581 0.20869 0.0
O15 O 0.96795 0.43036 0.34376 0.0
C16 C 0.00066 0.24119 0.78494 0.0
C17 C 0.0007 0.2412 0.95394 0.0
C18 C 0.99212 0.03238 0.46365 0.0
C19 C 0.21016 0.23631 0.27367 0.0
C20 C 0.79093 0.24653 0.27352 0.0
C21 C 0.00871 0.45017 0.46377 0.0
O22 O 0.93387 0.24127 0.71316 0.0
O23 O 0.06687 0.74131 0.26934 0.0
Zn24 Zn 0.07937 0.69558 0.48409 0.0
O25 O 0.00018 0.74129 0.61356 0.0
Zn26 Zn 0.04712 0.82104 0.74142 0.0
Zn27 Zn 0.92102 0.78709 0.48403 0.0
Zn28 Zn 0.95317 0.66154 0.7412 0.0
O29 O 0.00235 0.80773 0.95698 0.0
O30 O -0.00216 0.67483 0.95689 0.0
O31 O 0.18793 0.70543 0.59106 0.0
O32 O 0.16295 0.79585 0.77378 0.0
O33 O 0.03282 0.93038 0.63868 0.0
O34 O 0.94576 0.9016 0.45086 0.0
O35 O 0.8125 0.77749 0.5911 0.0
O36 O 0.05487 0.581 0.45113 0.0
O37 O 0.83733 0.68681 0.77339 0.0
O38 O 0.96764 0.55217 0.6385 0.0
C39 C 9e-05 0.74127 0.19753 0.0
C40 C 7e-05 0.74128 0.02854 0.0
C41 C 0.99204 0.95017 0.5187 0.0
C42 C 0.2098 0.74654 0.70895 0.0
C43 C 0.79058 0.73631 0.70882 0.0
C44 C 0.00861 0.53239 0.5188 0.0
O45 O 0.93333 0.74123 0.26934 0.0
O46 O 0.49795 0.6752 0.52551 0.0
Zn47 Zn 0.45328 0.66186 0.74115 0.0
O48 O 0.50024 0.74163 0.86892 0.0
Zn49 Zn 0.57942 0.6959 -0.00151 0.0
Zn50 Zn 0.54724 0.82135 0.7412 0.0
Zn51 Zn 0.42107 0.78743 -0.00165 0.0
O52 O 0.56701 0.74172 0.21322 0.0
O53 O 0.43347 0.74166 0.21309 0.0
O54 O 0.46775 0.5525 0.84384 0.0
O55 O 0.55483 0.58138 0.03158 0.0
O56 O 0.68795 0.70554 0.89146 0.0
O57 O 0.66304 0.79604 0.70886 0.0
O58 O 0.53294 0.93071 0.84394 0.0
O59 O 0.33742 0.68701 0.70894 0.0
O60 O 0.44572 0.90199 0.03138 0.0
O61 O 0.31251 0.77762 0.89135 0.0
C62 C 0.50021 0.74166 0.45395 0.0
C63 C 0.50023 0.74167 0.28495 0.0
C64 C 0.70983 0.74663 0.77358 0.0
C65 C 0.50863 0.53275 0.96373 0.0
C66 C 0.49204 0.95054 0.96369 0.0
C67 C 0.2906 0.73641 0.77363 0.0
O68 O 0.50247 0.8081 0.52559 0.0
O69 O 0.50275 0.17527 0.45694 0.0
Zn70 Zn 0.54743 0.16189 0.24133 0.0
O71 O 0.50049 0.24165 0.11355 0.0
Zn72 Zn 0.42132 0.19592 0.98396 0.0
Zn73 Zn 0.45348 0.32139 0.24128 0.0
Zn74 Zn 0.57966 0.28743 0.98415 0.0
O75 O 0.43371 0.24176 0.76928 0.0
O76 O 0.56725 0.24169 0.76938 0.0
O77 O 0.53293 0.05252 0.13867 0.0
O78 O 0.44593 0.08139 0.95081 0.0
O79 O 0.31279 0.20554 0.091 0.0
O80 O 0.33767 0.29607 0.27361 0.0
O81 O 0.46775 0.43073 0.1385 0.0
O82 O 0.6633 0.18703 0.27354 0.0
O83 O 0.55504 0.40199 0.95117 0.0
O84 O 0.68822 0.27761 0.09113 0.0
C85 C 0.50049 0.24173 0.52853 0.0
C86 C 0.50048 0.24175 0.69752 0.0
C87 C 0.29089 0.24664 0.20889 0.0
C88 C 0.4921 0.03276 0.01872 0.0
C89 C 0.50868 0.45054 0.01878 0.0
C90 C 0.71012 0.23641 0.20886 0.0
O91 O 0.49823 0.30817 0.45691 0.0
loop_
_geom_bond_atom_site_label_1
_geom_bond_atom_site_label_2
_geom_bond_distance
_geom_bond_site_symmetry_2
_ccdc_geom_bond_type
O0 Zn1 1.953 . S
O0 C16 1.225 . S
Zn1 O0 1.953 . S
Zn1 O2 1.949 . S
Zn1 O8 1.919 . S
Zn1 O13 1.924 . S
O2 Zn1 1.949 . S
O2 Zn3 1.923 . S
O2 Zn4 1.950 1_455 S
O2 Zn5 1.945 1_455 S
Zn3 O2 1.923 . S
Zn3 O6 1.933 . S
Zn3 O9 1.941 . S
Zn3 O10 1.965 . S
Zn4 O2 1.950 1_655 S
Zn4 O11 1.938 . S
Zn4 O12 1.906 . S
Zn4 O22 1.953 . S
Zn5 O2 1.945 1_655 S
Zn5 O7 1.932 . S
Zn5 O14 1.977 . S
Zn5 O15 1.910 . S
O6 Zn3 1.933 . S
O6 C17 1.226 1_554 S
O7 Zn5 1.932 . S
O7 C17 1.307 1_654 S
O8 Zn1 1.919 . S
O8 C19 1.253 . S
O9 Zn3 1.941 . S
O9 C19 1.283 . S
O10 Zn3 1.965 . S
O10 C18 1.303 . S
O11 Zn4 1.938 . S
O11 C18 1.247 1_655 S
O12 Zn4 1.906 . S
O12 C20 1.304 . S
O13 Zn1 1.924 . S
O13 C21 1.311 . S
O14 Zn5 1.977 . S
O14 C20 1.272 . S
O15 Zn5 1.910 . S
O15 C21 1.231 1_655 S
C16 O0 1.225 . S
C16 O22 1.298 1_455 S
C17 O6 1.226 1_556 S
C17 O7 1.307 1_456 S
C18 O10 1.303 . S
C18 O11 1.247 1_455 S
C19 O8 1.253 . S
C19 O9 1.283 . S
C20 O12 1.304 . S
C20 O14 1.272 . S
C21 O13 1.311 . S
C21 O15 1.231 1_455 S
O22 Zn4 1.953 . S
O22 C16 1.298 1_655 S
O23 Zn24 1.953 . S
O23 C39 1.225 . S
Zn24 O23 1.953 . S
Zn24 O25 1.949 . S
Zn24 O31 1.919 . S
Zn24 O36 1.924 . S
O25 Zn24 1.949 . S
O25 Zn26 1.923 . S
O25 Zn27 1.950 1_455 S
O25 Zn28 1.945 1_455 S
Zn26 O25 1.923 . S
Zn26 O29 1.933 . S
Zn26 O32 1.941 . S
Zn26 O33 1.965 . S
Zn27 O25 1.950 1_655 S
Zn27 O34 1.938 . S
Zn27 O35 1.906 . S
Zn27 O45 1.953 . S
Zn28 O25 1.945 1_655 S
Zn28 O30 1.932 . S
Zn28 O37 1.977 . S
Zn28 O38 1.910 . S
O29 Zn26 1.933 . S
O29 C40 1.226 1_556 S
O30 Zn28 1.932 . S
O30 C40 1.307 1_656 S
O31 Zn24 1.919 . S
O31 C42 1.253 . S
O32 Zn26 1.941 . S
O32 C42 1.283 . S
O33 Zn26 1.965 . S
O33 C41 1.300 1_455 S
O34 Zn27 1.938 . S
O34 C41 1.252 . S
O35 Zn27 1.906 . S
O35 C43 1.304 . S
O36 Zn24 1.924 . S
O36 C44 1.311 . S
O37 Zn28 1.977 . S
O37 C43 1.272 . S
O38 Zn28 1.910 . S
O38 C44 1.231 1_655 S
C39 O23 1.225 . S
C39 O45 1.298 1_455 S
C40 O29 1.226 1_554 S
C40 O30 1.307 1_454 S
C41 O33 1.300 1_655 S
C41 O34 1.252 . S
C42 O31 1.253 . S
C42 O32 1.283 . S
C43 O35 1.304 . S
C43 O37 1.272 . S
C44 O36 1.311 . S
C44 O38 1.231 1_455 S
O45 Zn27 1.953 . S
O45 C39 1.298 1_655 S
O46 Zn47 1.953 . S
O46 C62 1.225 . S
Zn47 O46 1.953 . S
Zn47 O48 1.949 . S
Zn47 O54 1.919 . S
Zn47 O59 1.924 . S
O48 Zn47 1.949 . S
O48 Zn49 1.923 1_556 S
O48 Zn50 1.950 . S
O48 Zn51 1.945 1_556 S
Zn49 O48 1.923 1_554 S
Zn49 O52 1.933 . S
Zn49 O55 1.941 1_554 S
Zn49 O56 1.965 1_554 S
Zn50 O48 1.950 . S
Zn50 O57 1.938 . S
Zn50 O58 1.906 . S
Zn50 O68 1.953 . S
Zn51 O48 1.945 1_554 S
Zn51 O53 1.932 . S
Zn51 O60 1.977 1_554 S
Zn51 O61 1.910 1_554 S
O52 Zn49 1.933 . S
O52 C63 1.226 . S
O53 Zn51 1.932 . S
O53 C63 1.307 . S
O54 Zn47 1.919 . S
O54 C65 1.253 . S
O55 Zn49 1.941 1_556 S
O55 C65 1.283 . S
O56 Zn49 1.965 1_556 S
O56 C64 1.303 . S
O57 Zn50 1.938 . S
O57 C64 1.247 . S
O58 Zn50 1.906 . S
O58 C66 1.304 . S
O59 Zn47 1.924 . S
O59 C67 1.311 . S
O60 Zn51 1.977 1_556 S
O60 C66 1.272 . S
O61 Zn51 1.910 1_556 S
O61 C67 1.231 . S
C62 O46 1.225 . S
C62 O68 1.298 . S
C63 O52 1.226 . S
C63 O53 1.307 . S
C64 O56 1.303 . S
C64 O57 1.247 . S
C65 O54 1.253 . S
C65 O55 1.283 . S
C66 O58 1.304 . S
C66 O60 1.272 . S
C67 O59 1.311 . S
C67 O61 1.231 . S
O68 Zn50 1.953 . S
O68 C62 1.298 . S
O69 Zn70 1.953 . S
O69 C85 1.225 . S
Zn70 O69 1.953 . S
Zn70 O71 1.949 . S
Zn70 O77 1.919 . S
Zn70 O82 1.924 . S
O71 Zn70 1.949 . S
O71 Zn72 1.923 1_554 S
O71 Zn73 1.950 . S
O71 Zn74 1.945 1_554 S
Zn72 O71 1.923 1_556 S
Zn72 O75 1.933 . S
Zn72 O78 1.941 1_556 S
Zn72 O79 1.965 1_556 S
Zn73 O71 1.950 . S
Zn73 O80 1.938 . S
Zn73 O81 1.906 . S
Zn73 O91 1.953 . S
Zn74 O71 1.945 1_556 S
Zn74 O76 1.932 . S
Zn74 O83 1.977 1_556 S
Zn74 O84 1.910 1_556 S
O75 Zn72 1.933 . S
O75 C86 1.226 . S
O76 Zn74 1.932 . S
O76 C86 1.307 . S
O77 Zn70 1.919 . S
O77 C88 1.253 . S
O78 Zn72 1.941 1_554 S
O78 C88 1.283 . S
O79 Zn72 1.965 1_554 S
O79 C87 1.303 . S
O80 Zn73 1.938 . S
O80 C87 1.247 . S
O81 Zn73 1.906 . S
O81 C89 1.304 . S
O82 Zn70 1.924 . S
O82 C90 1.311 . S
O83 Zn74 1.977 1_554 S
O83 C89 1.272 . S
O84 Zn74 1.910 1_554 S
O84 C90 1.231 . S
C85 O69 1.225 . S
C85 O91 1.298 . S
C86 O75 1.226 . S
C86 O76 1.307 . S
C87 O79 1.303 . S
C87 O80 1.247 . S
C88 O77 1.253 . S
C88 O78 1.283 . S
C89 O81 1.304 . S
C89 O83 1.272 . S
C90 O82 1.311 . S
C90 O84 1.231 . S
O91 Zn73 1.953 . S
O91 C85 1.298 . S
C21 C44 1.816 . S
C64 C43 1.801 . S
C89 C65 1.818 1_554 S
C20 C90 1.775 . S
C87 C19 1.856 . S
C67 C42 1.825 . S
C66 C88 1.755 1_566 S
C41 C18 1.771 1_665 S
C17 C16 1.275 . S
C40 C39 1.274 . S
C63 C62 1.274 . S
C85 C86 1.274 . S
