# Generated by pormake.
# Topology bcu, (8)-cn, num edge types: 1
# Building blocks:
#     Node 0, Type 0, BuildingBlock: VETTIZ_charged_sbu_0, # of connection points: 8
#     Node 1, Type 0, BuildingBlock: VETTIZ_charged_sbu_0, # of connection points: 8
#     Edge 2, Type (0, 0), BuildingBlock: UKIBIB_clean_linker_0, # of connection points: 2
#     Edge 3, Type (0, 0), BuildingBlock: UKIBIB_clean_linker_0, # of connection points: 2
#     Edge 4, Type (0, 0), BuildingBlock: UKIBIB_clean_linker_0, # of connection points: 2
#     Edge 5, Type (0, 0), BuildingBlock: UKIBIB_clean_linker_0, # of connection points: 2
#     Edge 6, Type (0, 0), BuildingBlock: UKIBIB_clean_linker_0, # of connection points: 2
#     Edge 7, Type (0, 0), BuildingBlock: UKIBIB_clean_linker_0, # of connection points: 2
#     Edge 8, Type (0, 0), BuildingBlock: UKIBIB_clean_linker_0, # of connection points: 2
#     Edge 9, Type (0, 0), BuildingBlock: UKIBIB_clean_linker_0, # of connection points: 2
# Relax obj value: 0.000
# Max RMSD: 0.009
# Mean RMSD: 0.009
data_MOF--net-bcu--node1-VETTIZ_charged_sbu_0--edge1-UKIBIB_clean_linker_0
_symmetry_space_group_name_H-M    P1
_symmetry_Int_Tables_number       1
_symmetry_cell_setting            triclinic
loop_
_symmetry_equiv_pos_as_xyz
'x, y, z'
_cell_length_a     26.610731
_cell_length_b     26.753151
_cell_length_c     26.56258
_cell_angle_alpha  90.008162
_cell_angle_beta   89.984333
_cell_angle_gamma 89.986902
loop_
_atom_site_label
_atom_site_type_symbol
_atom_site_fract_x
_atom_site_fract_y
_atom_site_fract_z
_atom_type_partial_charge
Fe0 Fe 0.99071 0.89525 -0.00635 0.0
O1 O -0.00782 0.96925 0.02459 0.0
Fe2 Fe 0.98955 0.99421 0.88656 0.0
Fe3 Fe -0.00767 -0.00453 0.09954 0.0
O4 O 0.98786 0.96893 0.96184 0.0
O5 O 0.9917 0.02091 0.96144 0.0
O6 O -0.00464 0.02106 0.02426 0.0
Fe7 Fe -0.00578 0.09491 0.99259 0.0
C8 C 0.91713 0.90556 0.08365 0.0
O9 O 0.04419 0.88714 0.04836 0.0
O10 O 0.05275 0.94834 0.10492 0.0
O11 O 0.04947 0.10175 0.93952 0.0
O12 O 0.04818 0.04306 0.87973 0.0
O13 O 0.04412 0.94069 0.88107 0.0
O14 O 0.05159 0.8885 0.94626 0.0
O15 O 0.04466 0.05031 0.10626 0.0
O16 O 0.05464 0.10144 0.0405 0.0
C17 C 0.06562 0.90476 0.90354 0.0
O18 O 0.93415 0.10292 0.94402 0.0
O19 O 0.93555 0.04743 0.88094 0.0
O20 O 0.92948 0.88939 0.0405 0.0
O21 O 0.93977 0.94052 0.10629 0.0
C22 C 0.06594 0.90686 0.08587 0.0
C23 C 0.06689 0.08566 0.08384 0.0
C24 C 0.91801 0.08385 0.08389 0.0
O25 O 0.93184 0.04273 0.10327 0.0
O26 O 0.93952 0.1036 0.04621 0.0
C27 C 0.06662 0.08197 0.89975 0.0
O28 O 0.93005 0.94605 0.88219 0.0
O29 O 0.93768 0.88531 0.93935 0.0
C30 C 0.91691 0.08476 0.90335 0.0
C31 C 0.91644 0.90504 0.90169 0.0
Fe32 Fe 0.49186 0.58886 0.49195 0.0
O33 O 0.45666 0.51556 0.49484 0.0
Fe34 Fe 0.60265 0.49503 0.4918 0.0
Fe35 Fe 0.38111 0.49447 0.49515 0.0
O36 O 0.527 0.51554 0.48996 0.0
O37 O 0.52738 0.47432 0.49092 0.0
O38 O 0.45669 0.47404 0.49746 0.0
Fe39 Fe 0.49257 0.40116 0.49434 0.0
C40 C 0.40113 0.58358 0.56837 0.0
O41 O 0.43972 0.59865 0.43632 0.0
O42 O 0.37629 0.54407 0.43648 0.0
O43 O 0.54666 0.38918 0.44022 0.0
O44 O 0.6066 0.44719 0.43235 0.0
O45 O 0.60746 0.54957 0.43967 0.0
O46 O 0.54001 0.59852 0.43152 0.0
O47 O 0.37712 0.44043 0.44141 0.0
O48 O 0.44552 0.39243 0.43262 0.0
C49 C 0.58371 0.58452 0.41838 0.0
O50 O 0.53938 0.39332 0.55618 0.0
O51 O 0.60766 0.44022 0.54423 0.0
O52 O 0.4429 0.5991 0.55125 0.0
O53 O 0.3765 0.54767 0.54967 0.0
C54 C 0.39888 0.58188 0.41866 0.0
C55 C 0.40164 0.40616 0.41952 0.0
C56 C 0.39968 0.40654 0.56879 0.0
O57 O 0.37707 0.44515 0.55325 0.0
O58 O 0.43904 0.38884 0.54867 0.0
C59 C 0.58535 0.40702 0.41876 0.0
O60 O 0.606 0.54322 0.55117 0.0
O61 O 0.54417 0.5995 0.54806 0.0
C62 C 0.58396 0.40631 0.56733 0.0
C63 C 0.58403 0.58201 0.56752 0.0
C64 C 0.14834 0.13274 0.09115 0.0
C65 C 0.1043 0.11385 0.11319 0.0
C66 C 0.18175 0.1615 0.11988 0.0
C67 C 0.32554 0.35808 0.39672 0.0
C68 C 0.3733 0.37584 0.38278 0.0
C69 C 0.2972 0.32905 0.36362 0.0
H70 H 0.06027 0.11029 0.18186 0.0
H71 H 0.1181 0.16146 0.23138 0.0
H72 H 0.42855 0.37826 0.32299 0.0
H73 H 0.37782 0.32778 0.26394 0.0
C74 C 0.09434 0.12391 0.16419 0.0
C75 C 0.12716 0.15324 0.19246 0.0
C76 C 0.39207 0.36458 0.33468 0.0
C77 C 0.36313 0.33602 0.30107 0.0
C78 C 0.17085 0.17232 0.17042 0.0
C79 C 0.20363 0.20387 0.19962 0.0
C80 C 0.23016 0.23012 0.22522 0.0
C81 C 0.31581 0.31786 0.3157 0.0
C82 C 0.28648 0.28696 0.28232 0.0
C83 C 0.26068 0.261 0.25565 0.0
H84 H 0.15682 0.12527 0.05197 0.0
H85 H 0.21562 0.1759 0.10249 0.0
H86 H 0.31043 0.36603 0.43377 0.0
H87 H 0.26083 0.31519 0.37558 0.0
C88 C 0.87621 0.1654 0.10387 0.0
C89 C 0.87871 0.11318 0.11027 0.0
C90 C 0.84412 0.19426 0.13367 0.0
C91 C 0.60745 0.32434 0.38088 0.0
C92 C 0.61066 0.37681 0.37969 0.0
C93 C 0.63706 0.29534 0.34871 0.0
H94 H 0.84789 0.05034 0.1517 0.0
H95 H 0.79089 0.10124 0.20318 0.0
H96 H 0.64593 0.44 0.34266 0.0
H97 H 0.69692 0.38883 0.28543 0.0
C98 C 0.84693 0.09041 0.1459 0.0
C99 C 0.8145 0.11938 0.17541 0.0
C100 C 0.64272 0.39967 0.34441 0.0
C101 C 0.67193 0.37057 0.31187 0.0
C102 C 0.81365 0.17145 0.16989 0.0
C103 C 0.78249 0.20186 0.20192 0.0
C104 C 0.75706 0.22886 0.22782 0.0
C105 C 0.66973 0.31833 0.31453 0.0
C106 C 0.70154 0.28804 0.28307 0.0
C107 C 0.72741 0.26114 0.25753 0.0
H108 H 0.90049 0.18431 0.07725 0.0
H109 H 0.84384 0.23452 0.12906 0.0
H110 H 0.58369 0.30561 0.4081 0.0
H111 H 0.63513 0.25495 0.3512 0.0
C112 C 0.8978 0.85225 0.15688 0.0
C113 C 0.88085 0.87661 0.11328 0.0
C114 C 0.865 0.82307 0.18536 0.0
C115 C 0.58832 0.63877 0.34082 0.0
C116 C 0.61205 0.61361 0.38068 0.0
C117 C 0.61682 0.66779 0.30738 0.0
H118 H 0.8166 0.89116 0.06554 0.0
H119 H 0.75819 0.84046 0.11665 0.0
H120 H 0.68389 0.59921 0.41689 0.0
H121 H 0.73283 0.65043 0.35916 0.0
C122 C 0.83033 0.87227 0.09888 0.0
C123 C 0.79719 0.84354 0.12796 0.0
C124 C 0.66454 0.61767 0.38619 0.0
C125 C 0.69264 0.64705 0.35338 0.0
C126 C 0.81466 0.81853 0.17097 0.0
C127 C 0.78144 0.78755 0.20015 0.0
C128 C 0.75476 0.7613 0.2255 0.0
C129 C 0.66892 0.67242 0.31407 0.0
C130 C 0.69821 0.70416 0.28172 0.0
C131 C 0.72408 0.73034 0.25548 0.0
H132 H 0.93679 0.85508 0.16837 0.0
H133 H 0.87904 0.80386 0.21841 0.0
H134 H 0.54805 0.63605 0.3356 0.0
H135 H 0.59816 0.68718 0.27684 0.0
C136 C 0.10534 0.82477 0.10752 0.0
C137 C 0.105 0.87723 0.11202 0.0
C138 C 0.13775 0.79588 0.13686 0.0
C139 C 0.37874 0.66403 0.37848 0.0
C140 C 0.37289 0.61172 0.37962 0.0
C141 C 0.3494 0.69326 0.3463 0.0
H142 H 0.13987 0.94045 0.14934 0.0
H143 H 0.19754 0.88942 0.20005 0.0
H144 H 0.33297 0.54907 0.34681 0.0
H145 H 0.28242 0.60059 0.28935 0.0
C146 C 0.13915 0.90018 0.14519 0.0
C147 C 0.17197 0.87114 0.17419 0.0
C148 C 0.33825 0.58923 0.34671 0.0
C149 C 0.30933 0.61855 0.31405 0.0
C150 C 0.17074 0.81889 0.17065 0.0
C151 C 0.20226 0.7885 0.20233 0.0
C152 C 0.2278 0.76132 0.22793 0.0
C153 C 0.3143 0.67069 0.31437 0.0
C154 C 0.28276 0.70141 0.28299 0.0
C155 C 0.25725 0.72869 0.25746 0.0
H156 H 0.0792 0.80582 0.08277 0.0
H157 H 0.13637 0.7555 0.13382 0.0
H158 H 0.40452 0.6826 0.40391 0.0
H159 H 0.35349 0.73357 0.34703 0.0
C160 C 0.1191 0.89208 0.82653 0.0
C161 C 0.10559 0.87732 0.87571 0.0
C162 C 0.15137 0.86264 0.79739 0.0
C163 C 0.36342 0.59672 0.65371 0.0
C164 C 0.37467 0.61468 0.60536 0.0
C165 C 0.33385 0.62542 0.6865 0.0
H166 H 0.1175 0.82073 0.93312 0.0
H167 H 0.17436 0.76972 0.88193 0.0
H168 H 0.3624 0.67463 0.55207 0.0
H169 H 0.3101 0.72449 0.60922 0.0
C170 C 0.12696 0.83337 0.89556 0.0
C171 C 0.15932 0.80402 0.86631 0.0
C172 C 0.35531 0.66094 0.58981 0.0
C173 C 0.32521 0.68914 0.62217 0.0
C174 C 0.17093 0.81812 0.81688 0.0
C175 C 0.20173 0.78622 0.78578 0.0
C176 C 0.2275 0.75929 0.76004 0.0
C177 C 0.31449 0.67163 0.67065 0.0
C178 C 0.28361 0.70136 0.70373 0.0
C179 C 0.25761 0.72764 0.72992 0.0
H180 H 0.10355 0.92561 0.80982 0.0
H181 H 0.16015 0.87413 0.75926 0.0
H182 H 0.37726 0.56061 0.66591 0.0
H183 H 0.32571 0.61138 0.72388 0.0
C184 C 0.37837 0.38074 0.65675 0.0
C185 C 0.37251 0.37509 0.60461 0.0
C186 C 0.34942 0.35174 0.68975 0.0
C187 C 0.10689 0.10617 0.81861 0.0
C188 C 0.10562 0.10953 0.87146 0.0
C189 C 0.139 0.13667 0.79066 0.0
H190 H 0.33255 0.33617 0.54548 0.0
H191 H 0.28199 0.28535 0.60329 0.0
H192 H 0.13797 0.14657 0.93651 0.0
H193 H 0.19541 0.19921 0.8871 0.0
C194 C 0.33771 0.34051 0.58573 0.0
C195 C 0.30885 0.31175 0.61856 0.0
C196 C 0.13824 0.14309 0.89587 0.0
C197 C 0.17086 0.1732 0.86778 0.0
C198 C 0.31452 0.31729 0.67063 0.0
C199 C 0.2845 0.28733 0.70403 0.0
C200 C 0.25855 0.26144 0.7305 0.0
C201 C 0.17074 0.17055 0.81509 0.0
C202 C 0.20221 0.20326 0.78588 0.0
C203 C 0.22822 0.23025 0.76062 0.0
H204 H 0.40485 0.40763 0.67178 0.0
H205 H 0.35408 0.35633 0.73001 0.0
H206 H 0.08162 0.08138 0.79865 0.0
H207 H 0.13838 0.1344 0.74993 0.0
C208 C 0.82992 0.1175 0.88766 0.0
C209 C 0.88083 0.1145 0.87435 0.0
C210 C 0.79677 0.1458 0.85813 0.0
C211 C 0.66535 0.3742 0.60046 0.0
C212 C 0.61271 0.37768 0.60543 0.0
C213 C 0.69346 0.34454 0.63313 0.0
H214 H 0.9373 0.13718 0.82028 0.0
H215 H 0.87949 0.18751 0.76938 0.0
H216 H 0.54866 0.35407 0.64987 0.0
H217 H 0.59867 0.30259 0.70827 0.0
C218 C 0.8981 0.13944 0.8312 0.0
C219 C 0.86523 0.16798 0.80215 0.0
C220 C 0.589 0.35186 0.64493 0.0
C221 C 0.61747 0.32257 0.67819 0.0
C222 C 0.81452 0.17144 0.81557 0.0
C223 C 0.78129 0.20213 0.78601 0.0
C224 C 0.75473 0.22821 0.76028 0.0
C225 C 0.66964 0.3183 0.67184 0.0
C226 C 0.69882 0.28606 0.70394 0.0
C227 C 0.72437 0.25942 0.73011 0.0
H228 H 0.81591 0.09785 0.92043 0.0
H229 H 0.75749 0.14797 0.86867 0.0
H230 H 0.68483 0.39319 0.57017 0.0
H231 H 0.73371 0.34152 0.62765 0.0
C232 C 0.5947 0.66036 0.61919 0.0
C233 C 0.60999 0.6113 0.60731 0.0
C234 C 0.62387 0.69021 0.65112 0.0
C235 C 0.88864 0.82395 0.86652 0.0
C236 C 0.87899 0.87494 0.87472 0.0
C237 C 0.85643 0.79552 0.83666 0.0
H238 H 0.66702 0.55486 0.62164 0.0
H239 H 0.71739 0.60722 0.67748 0.0
H240 H 0.82798 0.93617 0.85944 0.0
H241 H 0.77011 0.88538 0.80815 0.0
C242 C 0.65403 0.59237 0.62979 0.0
C243 C 0.68304 0.62225 0.66162 0.0
C244 C 0.83598 0.89688 0.85357 0.0
C245 C 0.80319 0.86806 0.82433 0.0
C246 C 0.66847 0.67146 0.67173 0.0
C247 C 0.69984 0.70308 0.70224 0.0
C248 C 0.72576 0.72994 0.72772 0.0
C249 C 0.81377 0.81749 0.81534 0.0
C250 C 0.7815 0.78792 0.78382 0.0
C251 C 0.7557 0.76156 0.75772 0.0
H252 H 0.56124 0.67636 0.60248 0.0
H253 H 0.61217 0.72826 0.6588 0.0
H254 H 0.92209 0.80647 0.88173 0.0
H255 H 0.86517 0.75654 0.82977 0.0
loop_
_geom_bond_atom_site_label_1
_geom_bond_atom_site_label_2
_geom_bond_distance
_geom_bond_site_symmetry_2
_ccdc_geom_bond_type
Fe0 O1 1.886 . S
Fe0 O4 1.715 1_554 S
Fe0 O9 2.077 . S
Fe0 O14 1.935 1_554 S
Fe0 O20 2.077 1_455 S
Fe0 O29 1.935 1_454 S
O1 Fe0 1.886 . S
O1 Fe3 1.715 1_565 S
Fe2 O4 1.886 . S
Fe2 O5 1.715 1_565 S
Fe2 O12 1.935 1_565 S
Fe2 O13 2.077 . S
Fe2 O19 1.935 1_465 S
Fe2 O28 2.077 1_455 S
Fe3 O1 1.715 1_545 S
Fe3 O6 1.886 . S
Fe3 O10 1.935 1_545 S
Fe3 O15 2.077 . S
Fe3 O21 1.935 1_445 S
Fe3 O25 2.077 1_455 S
O4 Fe0 1.715 1_556 S
O4 Fe2 1.886 . S
O5 Fe2 1.715 1_545 S
O5 Fe7 1.886 . S
O6 Fe3 1.886 . S
O6 Fe7 1.715 1_554 S
Fe7 O5 1.886 . S
Fe7 O6 1.715 1_556 S
Fe7 O11 2.077 . S
Fe7 O16 1.935 1_556 S
Fe7 O18 2.077 1_455 S
Fe7 O26 1.935 1_456 S
C8 O20 1.381 . S
C8 O21 1.421 . S
O9 Fe0 2.077 . S
O9 C22 1.381 . S
O10 Fe3 1.935 1_565 S
O10 C22 1.421 . S
O11 Fe7 2.077 . S
O11 C27 1.381 . S
O12 Fe2 1.935 1_545 S
O12 C27 1.421 . S
O13 Fe2 2.077 . S
O13 C17 1.381 . S
O14 Fe0 1.935 1_556 S
O14 C17 1.421 . S
O15 Fe3 2.077 . S
O15 C23 1.381 . S
O16 Fe7 1.935 1_554 S
O16 C23 1.421 . S
C17 O13 1.381 . S
C17 O14 1.421 . S
O18 Fe7 2.077 1_655 S
O18 C30 1.381 . S
O19 Fe2 1.935 1_645 S
O19 C30 1.421 . S
O20 Fe0 2.077 1_655 S
O20 C8 1.381 . S
O21 Fe3 1.935 1_665 S
O21 C8 1.421 . S
C22 O9 1.381 . S
C22 O10 1.421 . S
C23 O15 1.381 . S
C23 O16 1.421 . S
C24 O25 1.381 . S
C24 O26 1.421 . S
O25 Fe3 2.077 1_655 S
O25 C24 1.381 . S
O26 Fe7 1.935 1_654 S
O26 C24 1.421 . S
C27 O11 1.381 . S
C27 O12 1.421 . S
O28 Fe2 2.077 1_655 S
O28 C31 1.381 . S
O29 Fe0 1.935 1_656 S
O29 C31 1.421 . S
C30 O18 1.381 . S
C30 O19 1.421 . S
C31 O28 1.381 . S
C31 O29 1.421 . S
Fe32 O33 1.886 . S
Fe32 O36 1.715 . S
Fe32 O41 2.077 . S
Fe32 O46 1.935 . S
Fe32 O52 2.077 . S
Fe32 O61 1.935 . S
O33 Fe32 1.886 . S
O33 Fe35 1.715 . S
Fe34 O36 1.886 . S
Fe34 O37 1.715 . S
Fe34 O44 1.935 . S
Fe34 O45 2.077 . S
Fe34 O51 1.935 . S
Fe34 O60 2.077 . S
Fe35 O33 1.715 . S
Fe35 O38 1.886 . S
Fe35 O42 1.935 . S
Fe35 O47 2.077 . S
Fe35 O53 1.935 . S
Fe35 O57 2.077 . S
O36 Fe32 1.715 . S
O36 Fe34 1.886 . S
O37 Fe34 1.715 . S
O37 Fe39 1.886 . S
O38 Fe35 1.886 . S
O38 Fe39 1.715 . S
Fe39 O37 1.886 . S
Fe39 O38 1.715 . S
Fe39 O43 2.077 . S
Fe39 O48 1.935 . S
Fe39 O50 2.077 . S
Fe39 O58 1.935 . S
C40 O52 1.381 . S
C40 O53 1.421 . S
O41 Fe32 2.077 . S
O41 C54 1.381 . S
O42 Fe35 1.935 . S
O42 C54 1.421 . S
O43 Fe39 2.077 . S
O43 C59 1.381 . S
O44 Fe34 1.935 . S
O44 C59 1.421 . S
O45 Fe34 2.077 . S
O45 C49 1.381 . S
O46 Fe32 1.935 . S
O46 C49 1.421 . S
O47 Fe35 2.077 . S
O47 C55 1.381 . S
O48 Fe39 1.935 . S
O48 C55 1.421 . S
C49 O45 1.381 . S
C49 O46 1.421 . S
O50 Fe39 2.077 . S
O50 C62 1.381 . S
O51 Fe34 1.935 . S
O51 C62 1.421 . S
O52 Fe32 2.077 . S
O52 C40 1.381 . S
O53 Fe35 1.935 . S
O53 C40 1.421 . S
C54 O41 1.381 . S
C54 O42 1.421 . S
C55 O47 1.381 . S
C55 O48 1.421 . S
C56 O57 1.381 . S
C56 O58 1.421 . S
O57 Fe35 2.077 . S
O57 C56 1.381 . S
O58 Fe39 1.935 . S
O58 C56 1.421 . S
C59 O43 1.381 . S
C59 O44 1.421 . S
O60 Fe34 2.077 . S
O60 C63 1.381 . S
O61 Fe32 1.935 . S
O61 C63 1.421 . S
C62 O50 1.381 . S
C62 O51 1.421 . S
C63 O60 1.381 . S
C63 O61 1.421 . S
C64 C65 1.332 . S
C64 C66 1.345 . S
C64 H84 0.932 . S
C65 C64 1.332 . S
C65 C74 1.332 . S
C66 C64 1.345 . S
C66 C78 1.334 . S
C66 H85 0.928 . S
C67 C68 1.332 . S
C67 C69 1.345 . S
C67 H86 0.932 . S
C68 C67 1.332 . S
C68 C76 1.332 . S
C69 C67 1.345 . S
C69 C81 1.334 . S
C69 H87 0.928 . S
H70 C74 0.932 . S
H71 C75 0.928 . S
H72 C76 0.932 . S
H73 C77 0.928 . S
C74 C65 1.332 . S
C74 H70 0.932 . S
C74 C75 1.345 . S
C75 H71 0.928 . S
C75 C74 1.345 . S
C75 C78 1.334 . S
C76 C68 1.332 . S
C76 H72 0.932 . S
C76 C77 1.345 . S
C77 H73 0.928 . S
C77 C76 1.345 . S
C77 C81 1.334 . S
C78 C66 1.334 . S
C78 C75 1.334 . S
C78 C79 1.487 . S
C79 C78 1.487 . S
C79 C80 1.185 . S
C80 C79 1.185 . S
C80 C83 1.482 . S
C81 C69 1.334 . S
C81 C77 1.334 . S
C81 C82 1.487 . S
C82 C81 1.487 . S
C82 C83 1.185 . S
C83 C80 1.482 . S
C83 C82 1.185 . S
H84 C64 0.932 . S
H85 C66 0.928 . S
H86 C67 0.932 . S
H87 C69 0.928 . S
C88 C89 1.332 . S
C88 C90 1.345 . S
C88 H108 0.932 . S
C89 C88 1.332 . S
C89 C98 1.332 . S
C90 C88 1.345 . S
C90 C102 1.334 . S
C90 H109 0.928 . S
C91 C92 1.332 . S
C91 C93 1.345 . S
C91 H110 0.932 . S
C92 C91 1.332 . S
C92 C100 1.332 . S
C93 C91 1.345 . S
C93 C105 1.334 . S
C93 H111 0.928 . S
H94 C98 0.932 . S
H95 C99 0.928 . S
H96 C100 0.932 . S
H97 C101 0.928 . S
C98 C89 1.332 . S
C98 H94 0.932 . S
C98 C99 1.345 . S
C99 H95 0.928 . S
C99 C98 1.345 . S
C99 C102 1.334 . S
C100 C92 1.332 . S
C100 H96 0.932 . S
C100 C101 1.345 . S
C101 H97 0.928 . S
C101 C100 1.345 . S
C101 C105 1.334 . S
C102 C90 1.334 . S
C102 C99 1.334 . S
C102 C103 1.487 . S
C103 C102 1.487 . S
C103 C104 1.185 . S
C104 C103 1.185 . S
C104 C107 1.482 . S
C105 C93 1.334 . S
C105 C101 1.334 . S
C105 C106 1.487 . S
C106 C105 1.487 . S
C106 C107 1.185 . S
C107 C104 1.482 . S
C107 C106 1.185 . S
H108 C88 0.932 . S
H109 C90 0.928 . S
H110 C91 0.932 . S
H111 C93 0.928 . S
C112 C113 1.332 . S
C112 C114 1.345 . S
C112 H132 0.932 . S
C113 C112 1.332 . S
C113 C122 1.332 . S
C114 C112 1.345 . S
C114 C126 1.334 . S
C114 H133 0.928 . S
C115 C116 1.332 . S
C115 C117 1.345 . S
C115 H134 0.932 . S
C116 C115 1.332 . S
C116 C124 1.332 . S
C117 C115 1.345 . S
C117 C129 1.334 . S
C117 H135 0.928 . S
H118 C122 0.932 . S
H119 C123 0.928 . S
H120 C124 0.932 . S
H121 C125 0.928 . S
C122 C113 1.332 . S
C122 H118 0.932 . S
C122 C123 1.345 . S
C123 H119 0.928 . S
C123 C122 1.345 . S
C123 C126 1.334 . S
C124 C116 1.332 . S
C124 H120 0.932 . S
C124 C125 1.345 . S
C125 H121 0.928 . S
C125 C124 1.345 . S
C125 C129 1.334 . S
C126 C114 1.334 . S
C126 C123 1.334 . S
C126 C127 1.487 . S
C127 C126 1.487 . S
C127 C128 1.185 . S
C128 C127 1.185 . S
C128 C131 1.482 . S
C129 C117 1.334 . S
C129 C125 1.334 . S
C129 C130 1.487 . S
C130 C129 1.487 . S
C130 C131 1.185 . S
C131 C128 1.482 . S
C131 C130 1.185 . S
H132 C112 0.932 . S
H133 C114 0.928 . S
H134 C115 0.932 . S
H135 C117 0.928 . S
C136 C137 1.332 . S
C136 C138 1.345 . S
C136 H156 0.932 . S
C137 C136 1.332 . S
C137 C146 1.332 . S
C138 C136 1.345 . S
C138 C150 1.334 . S
C138 H157 0.928 . S
C139 C140 1.332 . S
C139 C141 1.345 . S
C139 H158 0.932 . S
C140 C139 1.332 . S
C140 C148 1.332 . S
C141 C139 1.345 . S
C141 C153 1.334 . S
C141 H159 0.928 . S
H142 C146 0.932 . S
H143 C147 0.928 . S
H144 C148 0.932 . S
H145 C149 0.928 . S
C146 C137 1.332 . S
C146 H142 0.932 . S
C146 C147 1.345 . S
C147 H143 0.928 . S
C147 C146 1.345 . S
C147 C150 1.334 . S
C148 C140 1.332 . S
C148 H144 0.932 . S
C148 C149 1.345 . S
C149 H145 0.928 . S
C149 C148 1.345 . S
C149 C153 1.334 . S
C150 C138 1.334 . S
C150 C147 1.334 . S
C150 C151 1.487 . S
C151 C150 1.487 . S
C151 C152 1.185 . S
C152 C151 1.185 . S
C152 C155 1.482 . S
C153 C141 1.334 . S
C153 C149 1.334 . S
C153 C154 1.487 . S
C154 C153 1.487 . S
C154 C155 1.185 . S
C155 C152 1.482 . S
C155 C154 1.185 . S
H156 C136 0.932 . S
H157 C138 0.928 . S
H158 C139 0.932 . S
H159 C141 0.928 . S
C160 C161 1.332 . S
C160 C162 1.345 . S
C160 H180 0.932 . S
C161 C160 1.332 . S
C161 C170 1.332 . S
C162 C160 1.345 . S
C162 C174 1.334 . S
C162 H181 0.928 . S
C163 C164 1.332 . S
C163 C165 1.345 . S
C163 H182 0.932 . S
C164 C163 1.332 . S
C164 C172 1.332 . S
C165 C163 1.345 . S
C165 C177 1.334 . S
C165 H183 0.928 . S
H166 C170 0.932 . S
H167 C171 0.928 . S
H168 C172 0.932 . S
H169 C173 0.928 . S
C170 C161 1.332 . S
C170 H166 0.932 . S
C170 C171 1.345 . S
C171 H167 0.928 . S
C171 C170 1.345 . S
C171 C174 1.334 . S
C172 C164 1.332 . S
C172 H168 0.932 . S
C172 C173 1.345 . S
C173 H169 0.928 . S
C173 C172 1.345 . S
C173 C177 1.334 . S
C174 C162 1.334 . S
C174 C171 1.334 . S
C174 C175 1.487 . S
C175 C174 1.487 . S
C175 C176 1.185 . S
C176 C175 1.185 . S
C176 C179 1.482 . S
C177 C165 1.334 . S
C177 C173 1.334 . S
C177 C178 1.487 . S
C178 C177 1.487 . S
C178 C179 1.185 . S
C179 C176 1.482 . S
C179 C178 1.185 . S
H180 C160 0.932 . S
H181 C162 0.928 . S
H182 C163 0.932 . S
H183 C165 0.928 . S
C184 C185 1.332 . S
C184 C186 1.345 . S
C184 H204 0.932 . S
C185 C184 1.332 . S
C185 C194 1.332 . S
C186 C184 1.345 . S
C186 C198 1.334 . S
C186 H205 0.928 . S
C187 C188 1.332 . S
C187 C189 1.345 . S
C187 H206 0.932 . S
C188 C187 1.332 . S
C188 C196 1.332 . S
C189 C187 1.345 . S
C189 C201 1.334 . S
C189 H207 0.928 . S
H190 C194 0.932 . S
H191 C195 0.928 . S
H192 C196 0.932 . S
H193 C197 0.928 . S
C194 C185 1.332 . S
C194 H190 0.932 . S
C194 C195 1.345 . S
C195 H191 0.928 . S
C195 C194 1.345 . S
C195 C198 1.334 . S
C196 C188 1.332 . S
C196 H192 0.932 . S
C196 C197 1.345 . S
C197 H193 0.928 . S
C197 C196 1.345 . S
C197 C201 1.334 . S
C198 C186 1.334 . S
C198 C195 1.334 . S
C198 C199 1.487 . S
C199 C198 1.487 . S
C199 C200 1.185 . S
C200 C199 1.185 . S
C200 C203 1.482 . S
C201 C189 1.334 . S
C201 C197 1.334 . S
C201 C202 1.487 . S
C202 C201 1.487 . S
C202 C203 1.185 . S
C203 C200 1.482 . S
C203 C202 1.185 . S
H204 C184 0.932 . S
H205 C186 0.928 . S
H206 C187 0.932 . S
H207 C189 0.928 . S
C208 C209 1.332 . S
C208 C210 1.345 . S
C208 H228 0.932 . S
C209 C208 1.332 . S
C209 C218 1.332 . S
C210 C208 1.345 . S
C210 C222 1.334 . S
C210 H229 0.928 . S
C211 C212 1.332 . S
C211 C213 1.345 . S
C211 H230 0.932 . S
C212 C211 1.332 . S
C212 C220 1.332 . S
C213 C211 1.345 . S
C213 C225 1.334 . S
C213 H231 0.928 . S
H214 C218 0.932 . S
H215 C219 0.928 . S
H216 C220 0.932 . S
H217 C221 0.928 . S
C218 C209 1.332 . S
C218 H214 0.932 . S
C218 C219 1.345 . S
C219 H215 0.928 . S
C219 C218 1.345 . S
C219 C222 1.334 . S
C220 C212 1.332 . S
C220 H216 0.932 . S
C220 C221 1.345 . S
C221 H217 0.928 . S
C221 C220 1.345 . S
C221 C225 1.334 . S
C222 C210 1.334 . S
C222 C219 1.334 . S
C222 C223 1.487 . S
C223 C222 1.487 . S
C223 C224 1.185 . S
C224 C223 1.185 . S
C224 C227 1.482 . S
C225 C213 1.334 . S
C225 C221 1.334 . S
C225 C226 1.487 . S
C226 C225 1.487 . S
C226 C227 1.185 . S
C227 C224 1.482 . S
C227 C226 1.185 . S
H228 C208 0.932 . S
H229 C210 0.928 . S
H230 C211 0.932 . S
H231 C213 0.928 . S
C232 C233 1.332 . S
C232 C234 1.345 . S
C232 H252 0.932 . S
C233 C232 1.332 . S
C233 C242 1.332 . S
C234 C232 1.345 . S
C234 C246 1.334 . S
C234 H253 0.928 . S
C235 C236 1.332 . S
C235 C237 1.345 . S
C235 H254 0.932 . S
C236 C235 1.332 . S
C236 C244 1.332 . S
C237 C235 1.345 . S
C237 C249 1.334 . S
C237 H255 0.928 . S
H238 C242 0.932 . S
H239 C243 0.928 . S
H240 C244 0.932 . S
H241 C245 0.928 . S
C242 C233 1.332 . S
C242 H238 0.932 . S
C242 C243 1.345 . S
C243 H239 0.928 . S
C243 C242 1.345 . S
C243 C246 1.334 . S
C244 C236 1.332 . S
C244 H240 0.932 . S
C244 C245 1.345 . S
C245 H241 0.928 . S
C245 C244 1.345 . S
C245 C249 1.334 . S
C246 C234 1.334 . S
C246 C243 1.334 . S
C246 C247 1.487 . S
C247 C246 1.487 . S
C247 C248 1.185 . S
C248 C247 1.185 . S
C248 C251 1.482 . S
C249 C237 1.334 . S
C249 C245 1.334 . S
C249 C250 1.487 . S
C250 C249 1.487 . S
C250 C251 1.185 . S
C251 C248 1.482 . S
C251 C250 1.185 . S
H252 C232 0.932 . S
H253 C234 0.928 . S
H254 C235 0.932 . S
H255 C237 0.928 . S
C65 C23 1.452 . S
C68 C55 1.447 . S
C89 C24 1.452 . S
C92 C59 1.450 . S
C113 C8 1.452 . S
C116 C49 1.452 . S
C137 C22 1.452 . S
C140 C54 1.450 . S
C161 C17 1.452 . S
C164 C40 1.454 . S
C185 C56 1.452 . S
C188 C27 1.450 . S
C209 C30 1.452 . S
C212 C62 1.454 . S
C233 C63 1.452 . S
C236 C31 1.456 . S
