# Generated by pormake.
# Topology pcu, (6)-cn, num edge types: 1
# Building blocks:
#     Node 0, Type 0, BuildingBlock: GEDQOX_clean_sbu_0, # of connection points: 6
#     Edge 1, Type (0, 0), BuildingBlock: CIFDUS_clean_linker_0, # of connection points: 2
#     Edge 2, Type (0, 0), BuildingBlock: CIFDUS_clean_linker_0, # of connection points: 2
#     Edge 3, Type (0, 0), BuildingBlock: CIFDUS_clean_linker_0, # of connection points: 2
# Relax obj value: 0.000
# Max RMSD: 0.000
# Mean RMSD: 0.000
data_MOF--net-pcu--node1-GEDQOX_clean_sbu_0--edge1-CIFDUS_clean_linker_0
_symmetry_space_group_name_H-M    P1
_symmetry_Int_Tables_number       1
_symmetry_cell_setting            triclinic
loop_
_symmetry_equiv_pos_as_xyz
'x, y, z'
_cell_length_a     13.67985
_cell_length_b     23.530117
_cell_length_c     12.680968
_cell_angle_alpha  82.466416
_cell_angle_beta   96.759714
_cell_angle_gamma 124.65192
loop_
_atom_site_label
_atom_site_type_symbol
_atom_site_fract_x
_atom_site_fract_y
_atom_site_fract_z
_atom_type_partial_charge
Nd0 Nd 0.0876 0.10148 0.02235 0.0
Nd1 Nd 0.94781 0.94507 1.00943 0.0
C2 C 0.1748 0.22861 0.07144 0.0
C3 C 0.14015 0.27797 0.05564 0.0
C4 C 0.21831 0.34448 0.09088 0.0
C5 C 0.18763 0.39252 0.0749 0.0
C6 C 0.07796 0.3748 0.02331 0.0
C7 C 0.99948 0.30766 0.98863 0.0
C8 C 0.0304 0.25966 1.0046 0.0
C9 C 0.04244 0.06029 0.81948 0.0
C10 C 0.79327 1.00836 1.00652 0.0
C11 C 0.86041 0.81779 0.96093 0.0
C12 C 0.89522 0.7685 0.97659 0.0
C13 C 0.8171 0.70198 0.94137 0.0
C14 C 0.8479 0.654 0.95725 0.0
C15 C 0.95764 0.67178 1.00874 0.0
C16 C 0.03609 0.73894 0.04339 0.0
C17 C 1.00505 0.78688 0.0275 0.0
C18 C 0.993 0.98664 0.21218 0.0
C19 C 0.2421 0.03818 0.02497 0.0
O20 O 0.11061 0.17318 0.1351 0.0
O21 O 0.20077 0.21526 0.98587 0.0
O22 O 0.14068 0.11597 0.8502 0.0
O23 O 0.96999 0.03113 0.89244 0.0
O24 O 0.89306 0.0649 0.03909 0.0
O25 O 0.7931 0.95733 0.97385 0.0
O26 O 0.92407 0.87307 0.89685 0.0
O27 O 0.83506 0.83135 0.04666 0.0
O28 O 0.89456 0.93104 0.18151 0.0
O29 O 0.06543 1.01535 0.13926 0.0
O30 O 0.14229 0.98165 0.99243 0.0
O31 O 0.2423 0.0892 0.05773 0.0
H32 H 0.30358 0.35946 0.13011 0.0
H33 H 0.25079 0.44397 0.10129 0.0
H34 H 0.91378 0.29202 0.94983 0.0
H35 H 0.96895 0.2084 0.9769 0.0
H36 H 0.73177 0.68695 0.90223 0.0
H37 H 0.78477 0.60253 0.93089 0.0
H38 H 0.12184 0.75462 0.08211 0.0
H39 H 0.06648 0.83815 0.05517 0.0
H40 H 0.84961 0.92594 0.37879 0.0
H41 H 0.19827 0.09909 0.28914 0.0
H42 H 0.24456 0.13725 0.46938 0.0
H43 H 0.18595 0.12113 0.65283 0.0
H44 H 0.83731 0.94789 0.74242 0.0
H45 H 0.79105 0.90981 0.56217 0.0
C46 C 0.9357 0.972 0.39886 0.0
C47 C 0.02047 1.00963 0.32102 0.0
C48 C 0.96169 0.99351 0.50265 0.0
C49 C 0.1316 0.06925 0.34785 0.0
C50 C 0.15811 0.09106 0.45086 0.0
C51 C 0.09987 0.07508 0.63274 0.0
C52 C 1.01509 0.0374 0.71058 0.0
C53 C 0.0739 0.05357 0.52893 0.0
C54 C 0.90399 0.97777 0.68372 0.0
C55 C 0.87748 0.95599 0.58071 0.0
H56 H 0.27409 0.94135 0.97307 0.0
H57 H 0.46538 0.1469 0.0821 0.0
H58 H 0.65223 0.1557 0.08564 0.0
H59 H 0.76127 0.1052 0.05833 0.0
H60 H 0.57 0.89965 0.9493 0.0
H61 H 0.38315 0.89086 0.94572 0.0
C62 C 0.3565 0.98813 0.99771 0.0
C63 C 0.35538 0.04333 0.02736 0.0
C64 C 0.46375 0.9929 0.99972 0.0
C65 C 0.46332 0.10351 0.059 0.0
C66 C 0.57039 0.10865 0.06105 0.0
C67 C 0.67887 0.05843 0.03367 0.0
C68 C 0.67999 1.00322 1.00405 0.0
C69 C 0.57162 0.05366 0.03164 0.0
C70 C 0.57206 0.94305 0.97238 0.0
C71 C 0.46499 0.93791 0.97031 0.0
H72 H 0.9215 0.58036 0.87216 0.0
H73 H 0.06423 0.64679 0.188 0.0
H74 H 0.1141 0.56127 0.22014 0.0
H75 H 0.11419 0.46626 0.15986 0.0
H76 H 0.97148 0.39984 0.84401 0.0
H77 H 0.92164 0.48537 0.81186 0.0
C78 C 0.96263 0.57578 0.94838 0.0
C79 C 0.98913 0.6201 0.02744 0.0
C80 C 0.99026 0.52609 0.96671 0.0
C81 C 0.04427 0.6141 0.12512 0.0
C82 C 0.07211 0.56485 0.14389 0.0
C83 C 0.07307 0.47085 0.08363 0.0
C84 C 0.04656 0.42652 1.00458 0.0
C85 C 0.04547 0.52055 0.0653 0.0
C86 C 0.99145 0.43254 0.90688 0.0
C87 C 0.96362 0.48179 0.88811 0.0
loop_
_geom_bond_atom_site_label_1
_geom_bond_atom_site_label_2
_geom_bond_distance
_geom_bond_site_symmetry_2
_ccdc_geom_bond_type
Nd0 C2 2.836 . S
Nd0 O20 2.500 1_556 S
Nd0 O21 2.492 . S
Nd0 O22 2.487 . S
Nd0 O23 2.682 1_445 S
Nd0 O24 2.410 1_455 S
Nd0 O29 2.414 1_556 S
Nd0 O31 2.424 . S
Nd1 C11 2.836 . S
Nd1 O23 2.414 1_554 S
Nd1 O25 2.424 . S
Nd1 O26 2.500 1_554 S
Nd1 O27 2.492 . S
Nd1 O28 2.487 . S
Nd1 O29 2.682 1_665 S
Nd1 O30 2.410 1_655 S
C2 Nd0 2.836 . S
C2 C3 1.498 . S
C2 O20 1.258 1_556 S
C2 O21 1.239 . S
C3 C2 1.498 . S
C3 C4 1.366 1_456 S
C3 C8 1.407 . S
C4 C3 1.366 1_654 S
C4 C5 1.392 . S
C4 H32 0.930 . S
C5 C4 1.392 . S
C5 C6 1.398 1_654 S
C5 H33 0.929 . S
C6 C5 1.398 1_456 S
C6 C7 1.352 . S
C7 C6 1.352 . S
C7 C8 1.384 . S
C7 H34 0.930 . S
C8 C3 1.407 . S
C8 C7 1.384 . S
C8 H35 0.929 . S
C9 O22 1.241 . S
C9 O23 1.273 1_445 S
C10 O24 1.251 1_565 S
C10 O25 1.268 1_556 S
C11 Nd1 2.836 . S
C11 C12 1.498 . S
C11 O26 1.258 1_554 S
C11 O27 1.239 . S
C12 C11 1.498 . S
C12 C13 1.366 1_654 S
C12 C17 1.407 . S
C13 C12 1.366 1_456 S
C13 C14 1.392 . S
C13 H36 0.930 . S
C14 C13 1.392 . S
C14 C15 1.398 1_456 S
C14 H37 0.929 . S
C15 C14 1.398 1_654 S
C15 C16 1.352 . S
C16 C15 1.352 . S
C16 C17 1.384 . S
C16 H38 0.930 . S
C17 C12 1.407 . S
C17 C16 1.384 . S
C17 H39 0.929 . S
C18 O28 1.241 . S
C18 O29 1.273 1_665 S
C19 O30 1.251 1_545 S
C19 O31 1.268 1_554 S
O20 Nd0 2.500 1_554 S
O20 C2 1.258 1_554 S
O21 Nd0 2.492 . S
O21 C2 1.239 . S
O22 Nd0 2.487 . S
O22 C9 1.241 . S
O23 Nd0 2.682 1_665 S
O23 Nd1 2.414 1_556 S
O23 C9 1.273 1_665 S
O24 Nd0 2.410 1_655 S
O24 C10 1.251 1_545 S
O25 Nd1 2.424 . S
O25 C10 1.268 1_554 S
O26 Nd1 2.500 1_556 S
O26 C11 1.258 1_556 S
O27 Nd1 2.492 . S
O27 C11 1.239 . S
O28 Nd1 2.487 . S
O28 C18 1.241 . S
O29 Nd0 2.414 1_554 S
O29 Nd1 2.682 1_445 S
O29 C18 1.273 1_445 S
O30 Nd1 2.410 1_455 S
O30 C19 1.251 1_565 S
O31 Nd0 2.424 . S
O31 C19 1.268 1_556 S
H32 C4 0.930 . S
H33 C5 0.929 . S
H34 C7 0.930 . S
H35 C8 0.929 . S
H36 C13 0.930 . S
H37 C14 0.929 . S
H38 C16 0.930 . S
H39 C17 0.929 . S
H40 C46 0.926 . S
H41 C49 0.930 . S
H42 C50 0.930 . S
H43 C51 0.926 . S
H44 C54 0.930 . S
H45 C55 0.930 . S
C46 H40 0.926 . S
C46 C47 1.361 1_545 S
C46 C48 1.414 1_455 S
C47 C46 1.361 1_565 S
C47 C49 1.419 . S
C48 C46 1.414 1_655 S
C48 C53 1.425 1_645 S
C48 C55 1.409 . S
C49 H41 0.930 . S
C49 C47 1.419 . S
C49 C50 1.362 . S
C50 H42 0.930 . S
C50 C49 1.362 . S
C50 C53 1.409 . S
C51 H43 0.926 . S
C51 C52 1.359 1_565 S
C51 C53 1.414 1_655 S
C52 C51 1.359 1_545 S
C52 C54 1.419 . S
C53 C48 1.425 1_465 S
C53 C50 1.409 . S
C53 C51 1.414 1_455 S
C54 H44 0.930 . S
C54 C52 1.419 . S
C54 C55 1.362 . S
C55 H45 0.930 . S
C55 C48 1.409 . S
C55 C54 1.362 . S
H56 C62 0.930 . S
H57 C65 0.930 . S
H58 C66 0.930 . S
H59 C67 0.930 . S
H60 C70 0.930 . S
H61 C71 0.930 . S
C62 H56 0.930 . S
C62 C63 1.355 1_544 S
C62 C64 1.415 . S
C63 C62 1.355 1_566 S
C63 C65 1.419 . S
C64 C62 1.415 . S
C64 C69 1.425 1_544 S
C64 C71 1.409 . S
C65 H57 0.930 . S
C65 C63 1.419 . S
C65 C66 1.362 . S
C66 H58 0.930 . S
C66 C65 1.362 . S
C66 C69 1.409 . S
C67 H59 0.930 . S
C67 C68 1.355 1_566 S
C67 C69 1.415 . S
C68 C67 1.355 1_544 S
C68 C70 1.419 . S
C69 C64 1.425 1_566 S
C69 C66 1.409 . S
C69 C67 1.415 . S
C70 H60 0.930 . S
C70 C68 1.419 . S
C70 C71 1.362 . S
C71 H61 0.930 . S
C71 C64 1.409 . S
C71 C70 1.362 . S
H72 C78 0.930 . S
H73 C81 0.930 . S
H74 C82 0.930 . S
H75 C83 0.930 . S
H76 C86 0.930 . S
H77 C87 0.930 . S
C78 H72 0.930 . S
C78 C79 1.355 1_456 S
C78 C80 1.415 . S
C79 C78 1.355 1_654 S
C79 C81 1.419 . S
C80 C78 1.415 . S
C80 C85 1.425 1_456 S
C80 C87 1.409 . S
C81 H73 0.930 . S
C81 C79 1.419 . S
C81 C82 1.362 . S
C82 H74 0.930 . S
C82 C81 1.362 . S
C82 C85 1.409 . S
C83 H75 0.930 . S
C83 C84 1.355 1_654 S
C83 C85 1.415 . S
C84 C83 1.355 1_456 S
C84 C86 1.419 . S
C85 C80 1.425 1_654 S
C85 C82 1.409 . S
C85 C83 1.415 . S
C86 H76 0.930 . S
C86 C84 1.419 . S
C86 C87 1.362 . S
C87 H77 0.930 . S
C87 C80 1.409 . S
C87 C86 1.362 . S
C47 C18 1.425 1_455 S
C52 C9 1.425 1_655 S
C63 C19 1.497 1_566 S
C68 C10 1.497 1_544 S
C79 C15 1.485 . S
C84 C6 1.485 . S
