# Generated by pormake.
# Topology sxc, (6)-cn, num edge types: 1
# Building blocks:
#     Node 0, Type 0, BuildingBlock: JUFBIX_clean_sbu_0, # of connection points: 6
#     Node 1, Type 0, BuildingBlock: JUFBIX_clean_sbu_0, # of connection points: 6
#     Node 2, Type 0, BuildingBlock: JUFBIX_clean_sbu_0, # of connection points: 6
#     Edge 3, Type (0, 0), BuildingBlock: CIFDUS_clean_linker_0, # of connection points: 2
#     Edge 4, Type (0, 0), BuildingBlock: CIFDUS_clean_linker_0, # of connection points: 2
#     Edge 5, Type (0, 0), BuildingBlock: CIFDUS_clean_linker_0, # of connection points: 2
#     Edge 6, Type (0, 0), BuildingBlock: CIFDUS_clean_linker_0, # of connection points: 2
#     Edge 7, Type (0, 0), BuildingBlock: CIFDUS_clean_linker_0, # of connection points: 2
#     Edge 8, Type (0, 0), BuildingBlock: CIFDUS_clean_linker_0, # of connection points: 2
#     Edge 9, Type (0, 0), BuildingBlock: CIFDUS_clean_linker_0, # of connection points: 2
#     Edge 10, Type (0, 0), BuildingBlock: CIFDUS_clean_linker_0, # of connection points: 2
#     Edge 11, Type (0, 0), BuildingBlock: CIFDUS_clean_linker_0, # of connection points: 2
# Relax obj value: 0.563
# Max RMSD: 0.153
# Mean RMSD: 0.152
data_MOF--net-sxc--node1-JUFBIX_clean_sbu_0--edge1-CIFDUS_clean_linker_0
_symmetry_space_group_name_H-M    P1
_symmetry_Int_Tables_number       1
_symmetry_cell_setting            triclinic
loop_
_symmetry_equiv_pos_as_xyz
'x, y, z'
_cell_length_a     13.385549
_cell_length_b     13.26433
_cell_length_c     38.953298
_cell_angle_alpha  93.973858
_cell_angle_beta   89.744949
_cell_angle_gamma 120.2388
loop_
_atom_site_label
_atom_site_type_symbol
_atom_site_fract_x
_atom_site_fract_y
_atom_site_fract_z
_atom_type_partial_charge
Co0 Co 0.21836 1.05192 1.00722 0.0
C1 C 0.1396 1.07972 0.94525 0.0
Co2 Co 1.10376 0.12274 0.01363 0.0
C3 C 0.32978 0.92852 0.02238 0.0
C4 C 0.39906 1.02077 0.97756 0.0
N5 N 0.3225 1.00234 1.00237 0.0
N6 N 0.39891 0.88962 0.00954 0.0
C7 C 0.44551 0.95034 0.98173 0.0
H8 H 0.26885 0.88739 0.0424 0.0
H9 H 0.41181 1.07302 0.95607 0.0
C10 C 0.18263 0.09617 0.07565 0.0
N11 N 0.99948 0.1724 0.01845 0.0
C12 C 0.99301 0.24731 0.99872 0.0
C13 C 0.92141 0.15224 0.04292 0.0
N14 N 0.92247 0.28467 0.01136 0.0
C15 C 0.8748 0.22259 0.03885 0.0
C16 C 0.98228 0.87618 0.01018 0.0
O17 O 0.23809 1.06238 0.05624 0.0
O18 O 1.11647 0.12586 0.06209 0.0
O19 O 0.97414 0.96747 0.01237 0.0
O20 O 1.08391 0.88963 1.00805 0.0
O21 O 1.09071 0.12015 0.96507 0.0
H22 H 0.90734 0.09851 0.06412 0.0
H23 H 1.05496 0.28995 0.97905 0.0
O24 O 0.19945 1.0415 0.95831 0.0
O25 O 0.34732 0.20714 1.00651 0.0
O26 O 0.23872 0.28523 0.01484 0.0
C27 C 0.33974 0.29858 0.01077 0.0
H28 H 0.49439 0.93125 0.9628 0.0
H29 H 0.82444 0.24018 0.0576 0.0
Co30 Co 0.22913 0.16815 0.34619 0.0
C31 C 0.1317 0.0983 0.27978 0.0
Co32 Co 1.04366 1.04836 0.34427 0.0
C33 C 0.46451 0.26726 0.36342 0.0
C34 C 0.43991 0.37059 0.32866 0.0
N35 N 0.38273 0.27662 0.34713 0.0
N36 N 0.57175 0.34337 0.35337 0.0
C37 C 0.55664 0.41214 0.33252 0.0
H38 H 0.44369 0.19255 0.37784 0.0
H39 H 0.39925 0.39929 0.31086 0.0
C40 C 0.13847 0.11705 0.4107 0.0
N41 N 0.89022 0.93947 0.34333 0.0
C42 C 0.80798 0.94835 0.32716 0.0
C43 C 0.83364 0.84411 0.3613 0.0
N44 N 0.70082 0.86995 0.33668 0.0
C45 C 0.71668 0.801 0.35724 0.0
C46 C 0.16934 0.93002 0.34402 0.0
O47 O 0.23202 0.17871 0.3956 0.0
O48 O 1.04623 1.0533 0.39269 0.0
O49 O 1.07018 0.91961 0.34238 0.0
O50 O 0.25721 1.03386 0.34587 0.0
O51 O 1.03928 1.04268 0.29585 0.0
H52 H 0.87472 0.81503 0.37883 0.0
H53 H 0.82803 1.02368 0.31312 0.0
O54 O 0.22711 0.1581 0.29678 0.0
O55 O 0.20247 0.29655 0.34649 0.0
O56 O 1.01539 0.18263 0.34619 0.0
C57 C 1.10323 0.28625 0.34647 0.0
H58 H 0.62293 0.4756 0.31704 0.0
H59 H 0.65039 0.73581 0.37232 0.0
Co60 Co 0.13274 1.01749 0.6706 0.0
C61 C 0.20225 0.15889 0.61547 0.0
Co62 Co 0.22856 0.20307 0.68567 0.0
C63 C 0.98541 0.77505 0.66938 0.0
C64 C 1.09584 0.81702 0.62674 0.0
N65 N 1.07136 0.86477 0.65492 0.0
N66 N 0.94881 0.67234 0.65066 0.0
C67 C 1.01888 0.69832 0.62373 0.0
H68 H 0.9406 0.78763 0.69099 0.0
H69 H 0.15994 0.86619 0.60835 0.0
C70 C 0.15686 1.06054 0.74067 0.0
N71 N 0.28904 0.35602 0.70107 0.0
C72 C 0.37401 0.44632 0.68651 0.0
C73 C 0.26073 0.4037 0.72845 0.0
N74 N 0.40555 0.54954 0.70429 0.0
C75 C 0.33412 0.52309 0.73087 0.0
C76 C 0.98394 0.10673 0.67809 0.0
O77 O 1.11761 0.97711 0.71734 0.0
O78 O 0.20697 0.16469 0.73203 0.0
O79 O 1.08298 0.19649 0.68427 0.0
O80 O 0.97939 1.00859 0.67129 0.0
O81 O 0.25068 0.24307 0.6385 0.0
H82 H 0.19532 0.35447 0.7465 0.0
H83 H 0.42093 0.43475 0.66535 0.0
O84 O 0.14656 1.05553 0.62461 0.0
O85 O 0.27905 1.02552 0.66993 0.0
O86 O 0.38107 0.21069 0.6871 0.0
C87 C 0.37731 0.114 0.67822 0.0
H88 H 1.00688 0.63853 0.60166 0.0
H89 H 0.34225 0.58384 0.75222 0.0
H90 H 1.04068 0.44524 0.06191 0.0
H91 H 0.90735 0.3952 0.9581 0.0
H92 H 1.08158 0.57396 0.94351 0.0
H93 H 0.27862 0.72895 0.95919 0.0
H94 H 0.41234 0.77875 0.06295 0.0
H95 H 0.23772 0.6004 0.07761 0.0
C96 C 1.04756 0.47712 0.0366 0.0
C97 C 0.96402 0.40633 0.01071 0.0
C98 C 0.15269 0.57043 0.02761 0.0
C99 C 0.97175 0.44863 0.97822 0.0
C100 C 1.07337 0.54708 0.96951 0.0
C101 C 0.27175 0.69718 0.98451 0.0
C102 C 0.35568 0.76767 0.01035 0.0
C103 C 0.1666 0.60398 0.99352 0.0
C104 C 0.34775 0.72548 0.04287 0.0
C105 C 0.24595 0.62727 0.0516 0.0
H106 H 0.64507 0.25372 0.39959 0.0
H107 H 0.67421 0.33333 0.29357 0.0
H108 H 0.6654 0.14951 0.27594 0.0
H109 H 0.62437 0.95604 0.29025 0.0
H110 H 0.59594 0.87668 0.39624 0.0
H111 H 0.60362 1.06002 0.41387 0.0
C112 C 0.65462 0.23259 0.3728 0.0
C113 C 0.65091 0.30175 0.34777 0.0
C114 C 0.63466 0.12094 0.36258 0.0
C115 C 0.67045 0.27827 0.31336 0.0
C116 C 0.6602 0.17083 0.30301 0.0
C117 C 0.6145 0.97702 0.31702 0.0
C118 C 0.61928 0.90852 0.34208 0.0
C119 C 0.63423 1.0886 0.32722 0.0
C120 C 0.59915 0.93154 0.37645 0.0
C121 C 0.60885 1.03874 0.3868 0.0
H122 H 0.83033 0.55745 0.70409 0.0
H123 H 0.79139 0.5881 0.59683 0.0
H124 H 0.6305 0.6213 0.60837 0.0
H125 H 0.52038 0.66796 0.65061 0.0
H126 H 0.56367 0.64317 0.75795 0.0
H127 H 0.72393 0.60909 0.74633 0.0
C128 C 0.78203 0.56519 0.68315 0.0
C129 C 0.82959 0.58436 0.6505 0.0
C130 C 0.70263 0.60165 0.69087 0.0
C131 C 0.76156 0.583 0.62288 0.0
C132 C 0.67402 0.6086 0.62961 0.0
C133 C 0.56978 0.66182 0.67155 0.0
C134 C 0.5227 0.64229 0.70427 0.0
C135 C 0.65041 0.62693 0.66381 0.0
C136 C 0.59273 0.64721 0.73183 0.0
C137 C 0.67989 0.6211 0.72508 0.0
H138 H 0.74727 0.94185 0.66847 0.0
H139 H 0.98448 0.31183 0.69011 0.0
H140 H 0.82448 0.34889 0.69236 0.0
H141 H 0.61381 0.27874 0.68834 0.0
H142 H 0.37669 0.90888 0.66644 0.0
H143 H 0.53663 0.87182 0.66438 0.0
C144 C 0.76417 1.03054 0.67366 0.0
C145 C 0.87969 0.12317 0.67905 0.0
C146 C 0.67022 1.05256 0.67501 0.0
C147 C 0.89777 0.23755 0.6858 0.0
C148 C 0.80558 0.25956 0.68714 0.0
C149 C 0.59693 0.19004 0.68317 0.0
C150 C 0.48147 0.09747 0.67758 0.0
C151 C 0.6909 0.16805 0.68183 0.0
C152 C 0.46339 0.98313 0.67083 0.0
C153 C 0.55555 0.9611 0.66963 0.0
H154 H 0.75668 0.8277 0.00998 0.0
H155 H 0.95819 0.65665 0.01105 0.0
H156 H 0.77908 0.46606 0.01143 0.0
H157 H 0.56525 0.34712 0.01117 0.0
H158 H 0.36374 0.51822 0.01048 0.0
H159 H 0.54281 0.70885 0.01009 0.0
C160 C 0.7622 0.74897 0.01023 0.0
C161 C 0.87269 0.75795 0.01024 0.0
C162 C 0.65828 0.63912 0.01051 0.0
C163 C 0.8759 0.65367 0.01069 0.0
C164 C 0.77306 0.54436 0.01098 0.0
C165 C 0.55976 0.42588 0.01098 0.0
C166 C 0.44929 0.4169 0.011 0.0
C167 C 0.66366 0.53578 0.01082 0.0
C168 C 0.44605 0.52121 0.01078 0.0
C169 C 0.54887 0.63055 0.01047 0.0
H170 H 0.28021 0.51437 0.34634 0.0
H171 H 0.90754 0.30725 0.346 0.0
H172 H 0.89658 0.48645 0.34511 0.0
H173 H 0.99208 0.70184 0.34424 0.0
H174 H 0.36478 0.9088 0.34476 0.0
H175 H 0.37554 0.72947 0.3456 0.0
C176 C 0.19606 0.50762 0.3461 0.0
C177 C 1.09449 0.3956 0.34628 0.0
C178 C 0.19037 0.61151 0.34553 0.0
C179 C 0.98706 0.39076 0.34592 0.0
C180 C 0.98084 0.49366 0.34537 0.0
C181 C 1.07621 0.70853 0.3445 0.0
C182 C 0.17785 0.82056 0.34437 0.0
C183 C 1.08183 0.60459 0.34513 0.0
C184 C 0.28524 0.82533 0.34483 0.0
C185 C 0.29137 0.72239 0.34534 0.0
H186 H 0.2974 0.12284 0.23455 0.0
H187 H 0.95208 1.06918 0.24027 0.0
H188 H 0.939 1.06727 0.17778 0.0
H189 H 1.02451 1.07989 0.12152 0.0
H190 H 0.36326 0.11799 0.11443 0.0
H191 H 0.3802 0.12653 0.17734 0.0
C192 C 0.21962 0.11101 0.22201 0.0
C193 C 0.12606 0.09667 0.24191 0.0
C194 C 0.21143 0.10698 0.18587 0.0
C195 C 1.02507 1.07995 0.22544 0.0
C196 C 1.01756 1.0791 0.18973 0.0
C197 C 1.1022 0.09042 0.13377 0.0
C198 C 0.19288 0.09931 0.11349 0.0
C199 C 1.11004 0.09241 0.16971 0.0
C200 C 0.29229 0.11099 0.12959 0.0
C201 C 0.30207 0.1161 0.16552 0.0
H202 H 0.29432 0.27868 0.45968 0.0
H203 H 0.97493 0.94681 0.4467 0.0
H204 H 0.96662 0.93341 0.50863 0.0
H205 H 1.04995 1.01179 0.5661 0.0
H206 H 0.36416 0.3462 0.58165 0.0
H207 H 0.37403 0.36366 0.5191 0.0
C208 C 0.2231 0.2037 0.47052 0.0
C209 C 0.13564 0.11366 0.44857 0.0
C210 C 0.21763 0.19713 0.50652 0.0
C211 C 1.04318 1.01749 0.46295 0.0
C212 C 1.03831 1.00951 0.49839 0.0
C213 C 1.12075 1.08883 0.55588 0.0
C214 C 0.20679 0.17707 0.57836 0.0
C215 C 0.12507 0.09832 0.52032 0.0
C216 C 0.29683 0.27711 0.56478 0.0
C217 C 0.30266 0.28673 0.52907 0.0
H218 H 0.12835 0.1906 0.7914 0.0
H219 H 0.15817 0.88305 0.77224 0.0
H220 H 0.15571 0.86086 0.83437 0.0
H221 H 0.15356 0.93554 0.8944 0.0
H222 H 1.10954 0.23549 0.91202 0.0
H223 H 1.109 0.25422 0.8502 0.0
C224 C 0.13384 0.11842 0.80086 0.0
C225 C 0.14485 1.03935 0.77751 0.0
C226 C 0.13024 0.10531 0.83629 0.0
C227 C 0.14973 0.94495 0.78988 0.0
C228 C 0.14883 0.93266 0.82534 0.0
C229 C 0.14341 1.00453 0.88457 0.0
C230 C 0.13259 1.08462 0.90766 0.0
C231 C 0.14057 1.01329 0.84883 0.0
C232 C 1.11787 0.17274 0.89473 0.0
C233 C 1.11787 0.18375 0.8594 0.0
loop_
_geom_bond_atom_site_label_1
_geom_bond_atom_site_label_2
_geom_bond_distance
_geom_bond_site_symmetry_2
_ccdc_geom_bond_type
Co0 N5 2.057 1_554 S
Co0 O17 2.021 . S
Co0 O20 2.062 1_455 S
Co0 O24 2.117 1_554 S
Co0 O25 2.020 1_565 S
C1 O21 1.259 1_455 S
C1 O24 1.258 1_545 S
Co2 N11 2.054 1_556 S
Co2 O18 2.103 1_556 S
Co2 O19 2.017 1_546 S
Co2 O21 2.035 . S
Co2 O26 2.062 1_655 S
C3 N5 1.316 1_554 S
C3 N6 1.347 1_554 S
C3 H8 0.931 . S
C4 N5 1.375 . S
C4 C7 1.350 . S
C4 H9 0.930 . S
N5 Co0 2.057 1_556 S
N5 C3 1.316 1_556 S
N5 C4 1.375 . S
N6 C3 1.347 1_556 S
N6 C7 1.373 . S
C7 C4 1.350 . S
C7 N6 1.373 . S
C7 H28 0.931 . S
H8 C3 0.931 . S
H9 C4 0.930 . S
C10 O17 1.259 1_545 S
C10 O18 1.258 1_455 S
N11 Co2 2.054 1_554 S
N11 C12 1.316 1_554 S
N11 C13 1.375 . S
C12 N11 1.316 1_556 S
C12 N14 1.347 1_556 S
C12 H23 0.931 . S
C13 N11 1.375 . S
C13 C15 1.350 . S
C13 H22 0.930 . S
N14 C12 1.347 1_554 S
N14 C15 1.373 . S
C15 C13 1.350 . S
C15 N14 1.373 . S
C15 H29 0.931 . S
C16 O19 1.260 . S
C16 O20 1.255 . S
O17 Co0 2.021 . S
O17 C10 1.259 1_565 S
O18 Co2 2.103 1_554 S
O18 C10 1.258 1_655 S
O19 Co2 2.017 1_564 S
O19 C16 1.260 . S
O20 Co0 2.062 1_655 S
O20 C16 1.255 . S
O21 C1 1.259 1_655 S
O21 Co2 2.035 . S
H22 C13 0.930 . S
H23 C12 0.931 . S
O24 Co0 2.117 1_556 S
O24 C1 1.258 1_565 S
O25 Co0 2.020 1_545 S
O25 C27 1.256 . S
O26 Co2 2.062 1_455 S
O26 C27 1.255 1_556 S
C27 O25 1.256 . S
C27 O26 1.255 1_554 S
H28 C7 0.931 . S
H29 C15 0.931 . S
Co30 N35 2.057 . S
Co30 O47 2.021 . S
Co30 O50 2.062 1_545 S
Co30 O54 2.117 . S
Co30 O55 2.020 . S
C31 O51 1.259 1_445 S
C31 O54 1.258 . S
Co32 N41 2.057 . S
Co32 O48 2.117 1_565 S
Co32 O49 2.020 . S
Co32 O51 2.021 . S
Co32 O56 2.062 1_565 S
C33 N35 1.316 . S
C33 N36 1.347 . S
C33 H38 0.931 . S
C34 N35 1.375 . S
C34 C37 1.350 . S
C34 H39 0.930 . S
N35 Co30 2.057 . S
N35 C33 1.316 . S
N35 C34 1.375 . S
N36 C33 1.347 . S
N36 C37 1.373 . S
C37 C34 1.350 . S
C37 N36 1.373 . S
C37 H58 0.931 . S
H38 C33 0.931 . S
H39 C34 0.930 . S
C40 O47 1.259 . S
C40 O48 1.258 1_455 S
N41 Co32 2.057 . S
N41 C42 1.316 . S
N41 C43 1.375 . S
C42 N41 1.316 . S
C42 N44 1.347 . S
C42 H53 0.931 . S
C43 N41 1.375 . S
C43 C45 1.350 . S
C43 H52 0.930 . S
N44 C42 1.347 . S
N44 C45 1.373 . S
C45 C43 1.350 . S
C45 N44 1.373 . S
C45 H59 0.931 . S
C46 O49 1.256 1_455 S
C46 O50 1.255 . S
O47 Co30 2.021 . S
O47 C40 1.259 . S
O48 Co32 2.117 1_545 S
O48 C40 1.258 1_655 S
O49 Co32 2.020 . S
O49 C46 1.256 1_655 S
O50 Co30 2.062 1_565 S
O50 C46 1.255 . S
O51 C31 1.259 1_665 S
O51 Co32 2.021 . S
H52 C43 0.930 . S
H53 C42 0.931 . S
O54 Co30 2.117 . S
O54 C31 1.258 . S
O55 Co30 2.020 . S
O55 C57 1.256 . S
O56 Co32 2.062 1_545 S
O56 C57 1.255 1_655 S
C57 O55 1.256 . S
C57 O56 1.255 1_455 S
H58 C37 0.931 . S
H59 C45 0.931 . S
Co60 N65 2.057 . S
Co60 O77 2.021 . S
Co60 O80 2.062 . S
Co60 O84 2.117 . S
Co60 O85 2.020 1_655 S
C61 O81 1.259 . S
C61 O84 1.258 1_445 S
Co62 N71 2.057 . S
Co62 O78 2.117 . S
Co62 O79 2.020 1_455 S
Co62 O81 2.021 . S
Co62 O86 2.062 . S
C63 N65 1.316 . S
C63 N66 1.347 . S
C63 H68 0.931 . S
C64 N65 1.375 . S
C64 C67 1.350 . S
C64 H69 0.930 . S
N65 Co60 2.057 . S
N65 C63 1.316 . S
N65 C64 1.375 . S
N66 C63 1.347 . S
N66 C67 1.373 . S
C67 C64 1.350 . S
C67 N66 1.373 . S
C67 H88 0.931 . S
H68 C63 0.931 . S
H69 C64 0.930 . S
C70 O77 1.259 1_445 S
C70 O78 1.258 . S
N71 Co62 2.057 . S
N71 C72 1.316 . S
N71 C73 1.375 . S
C72 N71 1.316 . S
C72 N74 1.347 . S
C72 H83 0.931 . S
C73 N71 1.375 . S
C73 C75 1.350 . S
C73 H82 0.930 . S
N74 C72 1.347 . S
N74 C75 1.373 . S
C75 C73 1.350 . S
C75 N74 1.373 . S
C75 H89 0.931 . S
C76 O79 1.256 . S
C76 O80 1.255 1_545 S
O77 Co60 2.021 . S
O77 C70 1.259 1_665 S
O78 Co62 2.117 . S
O78 C70 1.258 . S
O79 Co62 2.020 1_655 S
O79 C76 1.256 . S
O80 Co60 2.062 . S
O80 C76 1.255 1_565 S
O81 C61 1.259 . S
O81 Co62 2.021 . S
H82 C73 0.930 . S
H83 C72 0.931 . S
O84 Co60 2.117 . S
O84 C61 1.258 1_665 S
O85 Co60 2.020 1_455 S
O85 C87 1.256 . S
O86 Co62 2.062 . S
O86 C87 1.255 1_545 S
C87 O85 1.256 . S
C87 O86 1.255 1_565 S
H88 C67 0.931 . S
H89 C75 0.931 . S
H90 C96 0.930 . S
H91 C99 0.930 . S
H92 C100 0.930 . S
H93 C101 0.930 . S
H94 C104 0.930 . S
H95 C105 0.930 . S
C96 H90 0.930 . S
C96 C97 1.355 1_556 S
C96 C98 1.415 1_655 S
C97 C96 1.355 1_554 S
C97 C99 1.419 . S
C98 C96 1.415 1_455 S
C98 C103 1.425 1_556 S
C98 C105 1.409 . S
C99 H91 0.930 . S
C99 C97 1.419 . S
C99 C100 1.362 . S
C100 H92 0.930 . S
C100 C99 1.362 . S
C100 C103 1.409 1_655 S
C101 H93 0.930 . S
C101 C102 1.332 1_554 S
C101 C103 1.415 . S
C102 C101 1.332 1_556 S
C102 C104 1.445 . S
C103 C98 1.425 1_554 S
C103 C100 1.409 1_455 S
C103 C101 1.415 . S
C104 H94 0.930 . S
C104 C102 1.445 . S
C104 C105 1.362 . S
C105 H95 0.930 . S
C105 C98 1.409 . S
C105 C104 1.362 . S
H106 C112 0.930 . S
H107 C115 0.930 . S
H108 C116 0.930 . S
H109 C117 0.930 . S
H110 C120 0.930 1_545 S
H111 C121 0.930 . S
C112 H106 0.930 . S
C112 C113 1.355 . S
C112 C114 1.415 . S
C113 C112 1.355 . S
C113 C115 1.419 . S
C114 C112 1.415 . S
C114 C119 1.425 1_545 S
C114 C121 1.409 . S
C115 H107 0.930 . S
C115 C113 1.419 . S
C115 C116 1.362 1_545 S
C116 H108 0.930 . S
C116 C115 1.362 1_565 S
C116 C119 1.409 . S
C117 H109 0.930 . S
C117 C118 1.355 . S
C117 C119 1.415 . S
C118 C117 1.355 . S
C118 C120 1.419 . S
C119 C114 1.425 1_565 S
C119 C116 1.409 . S
C119 C117 1.415 . S
C120 H110 0.930 1_565 S
C120 C118 1.419 . S
C120 C121 1.362 1_565 S
C121 H111 0.930 . S
C121 C114 1.409 . S
C121 C120 1.362 1_545 S
H122 C128 0.930 . S
H123 C131 0.930 . S
H124 C132 0.930 . S
H125 C133 0.930 . S
H126 C136 0.930 . S
H127 C137 0.930 . S
C128 H122 0.930 . S
C128 C129 1.355 . S
C128 C130 1.415 . S
C129 C128 1.355 . S
C129 C131 1.419 . S
C130 C128 1.415 . S
C130 C135 1.425 . S
C130 C137 1.409 . S
C131 H123 0.930 . S
C131 C129 1.419 . S
C131 C132 1.362 . S
C132 H124 0.930 . S
C132 C131 1.362 . S
C132 C135 1.409 . S
C133 H125 0.930 . S
C133 C134 1.355 . S
C133 C135 1.415 . S
C134 C133 1.355 . S
C134 C136 1.419 . S
C135 C130 1.425 . S
C135 C132 1.409 . S
C135 C133 1.415 . S
C136 H126 0.930 . S
C136 C134 1.419 . S
C136 C137 1.362 . S
C137 H127 0.930 . S
C137 C130 1.409 . S
C137 C136 1.362 . S
H138 C144 0.930 . S
H139 C147 0.930 . S
H140 C148 0.930 . S
H141 C149 0.930 . S
H142 C152 0.930 . S
H143 C153 0.930 . S
C144 H138 0.930 . S
C144 C145 1.355 1_565 S
C144 C146 1.415 . S
C145 C144 1.355 1_545 S
C145 C147 1.419 . S
C146 C144 1.415 . S
C146 C151 1.425 1_565 S
C146 C153 1.409 . S
C147 H139 0.930 . S
C147 C145 1.419 . S
C147 C148 1.362 . S
C148 H140 0.930 . S
C148 C147 1.362 . S
C148 C151 1.409 . S
C149 H141 0.930 . S
C149 C150 1.355 1_545 S
C149 C151 1.415 . S
C150 C149 1.355 1_565 S
C150 C152 1.419 . S
C151 C146 1.425 1_545 S
C151 C148 1.409 . S
C151 C149 1.415 . S
C152 H142 0.930 . S
C152 C150 1.419 . S
C152 C153 1.362 . S
C153 H143 0.930 . S
C153 C146 1.409 . S
C153 C152 1.362 . S
H154 C160 0.930 . S
H155 C163 0.930 . S
H156 C164 0.930 . S
H157 C165 0.930 . S
H158 C168 0.930 . S
H159 C169 0.930 . S
C160 H154 0.930 . S
C160 C161 1.355 1_556 S
C160 C162 1.415 . S
C161 C160 1.355 1_554 S
C161 C163 1.419 . S
C162 C160 1.415 . S
C162 C167 1.425 1_556 S
C162 C169 1.409 . S
C163 H155 0.930 . S
C163 C161 1.419 . S
C163 C164 1.362 . S
C164 H156 0.930 . S
C164 C163 1.362 . S
C164 C167 1.409 . S
C165 H157 0.930 . S
C165 C166 1.355 1_554 S
C165 C167 1.415 . S
C166 C165 1.355 1_556 S
C166 C168 1.419 . S
C167 C162 1.425 1_554 S
C167 C164 1.409 . S
C167 C165 1.415 . S
C168 H158 0.930 . S
C168 C166 1.419 . S
C168 C169 1.362 . S
C169 H159 0.930 . S
C169 C162 1.409 . S
C169 C168 1.362 . S
H170 C176 0.930 . S
H171 C179 0.930 . S
H172 C180 0.930 1_655 S
H173 C181 0.930 1_655 S
H174 C184 0.930 . S
H175 C185 0.930 . S
C176 H170 0.930 . S
C176 C177 1.355 . S
C176 C178 1.415 . S
C177 C176 1.355 . S
C177 C179 1.419 . S
C178 C176 1.415 . S
C178 C183 1.425 . S
C178 C185 1.409 . S
C179 H171 0.930 . S
C179 C177 1.419 . S
C179 C180 1.362 . S
C180 H172 0.930 1_455 S
C180 C179 1.362 . S
C180 C183 1.409 . S
C181 H173 0.930 1_455 S
C181 C182 1.355 . S
C181 C183 1.415 . S
C182 C181 1.355 . S
C182 C184 1.419 . S
C183 C178 1.425 . S
C183 C180 1.409 . S
C183 C181 1.415 . S
C184 H174 0.930 . S
C184 C182 1.419 . S
C184 C185 1.362 . S
C185 H175 0.930 . S
C185 C178 1.409 . S
C185 C184 1.362 . S
H186 C192 0.930 . S
H187 C195 0.930 . S
H188 C196 0.930 . S
H189 C197 0.930 . S
H190 C200 0.930 . S
H191 C201 0.930 . S
C192 H186 0.930 . S
C192 C193 1.355 . S
C192 C194 1.415 . S
C193 C192 1.355 . S
C193 C195 1.419 1_445 S
C194 C192 1.415 . S
C194 C199 1.425 1_445 S
C194 C201 1.409 . S
C195 H187 0.930 . S
C195 C193 1.419 1_665 S
C195 C196 1.362 . S
C196 H188 0.930 . S
C196 C195 1.362 . S
C196 C199 1.409 . S
C197 H189 0.930 . S
C197 C198 1.355 1_665 S
C197 C199 1.415 . S
C198 C197 1.355 1_445 S
C198 C200 1.419 . S
C199 C194 1.425 1_665 S
C199 C196 1.409 . S
C199 C197 1.415 . S
C200 H190 0.930 . S
C200 C198 1.419 . S
C200 C201 1.362 . S
C201 H191 0.930 . S
C201 C194 1.409 . S
C201 C200 1.362 . S
H202 C208 0.930 . S
H203 C211 0.930 . S
H204 C212 0.930 . S
H205 C213 0.930 1_655 S
H206 C216 0.930 . S
H207 C217 0.930 . S
C208 H202 0.930 . S
C208 C209 1.355 . S
C208 C210 1.415 . S
C209 C208 1.355 . S
C209 C211 1.419 1_445 S
C210 C208 1.415 . S
C210 C215 1.425 1_545 S
C210 C217 1.409 . S
C211 H203 0.930 . S
C211 C209 1.419 1_665 S
C211 C212 1.362 . S
C212 H204 0.930 . S
C212 C211 1.362 . S
C212 C215 1.409 1_655 S
C213 H205 0.930 1_455 S
C213 C214 1.355 1_565 S
C213 C215 1.415 . S
C214 C213 1.355 1_545 S
C214 C216 1.419 . S
C215 C210 1.425 1_565 S
C215 C212 1.409 1_455 S
C215 C213 1.415 . S
C216 H206 0.930 . S
C216 C214 1.419 . S
C216 C217 1.362 . S
C217 H207 0.930 . S
C217 C210 1.409 . S
C217 C216 1.362 . S
H218 C224 0.930 . S
H219 C227 0.930 . S
H220 C228 0.930 . S
H221 C229 0.930 . S
H222 C232 0.930 . S
H223 C233 0.930 . S
C224 H218 0.930 . S
C224 C225 1.355 1_655 S
C224 C226 1.415 . S
C225 C224 1.355 1_455 S
C225 C227 1.419 . S
C226 C224 1.415 . S
C226 C231 1.425 1_655 S
C226 C233 1.409 1_545 S
C227 H219 0.930 . S
C227 C225 1.419 . S
C227 C228 1.362 . S
C228 H220 0.930 . S
C228 C227 1.362 . S
C228 C231 1.409 . S
C229 H221 0.930 . S
C229 C230 1.355 . S
C229 C231 1.415 . S
C230 C229 1.355 . S
C230 C232 1.419 1_445 S
C231 C226 1.425 1_455 S
C231 C228 1.409 . S
C231 C229 1.415 . S
C232 H222 0.930 . S
C232 C230 1.419 1_665 S
C232 C233 1.362 . S
C233 H223 0.930 . S
C233 C226 1.409 1_565 S
C233 C232 1.362 . S
C97 N14 0.448 . S
C102 N6 0.461 . S
C113 N36 0.360 . S
C118 N44 0.360 . S
C129 N66 0.482 . S
C134 N74 0.482 . S
C145 C76 2.752 . S
C150 C87 2.752 . S
C161 C16 2.740 . S
C166 C27 2.740 1_556 S
C177 C57 2.732 . S
C182 C46 2.732 . S
C193 C31 1.481 . S
C198 C10 1.479 . S
C209 C40 1.498 . S
C214 C61 1.479 . S
C225 C70 1.494 . S
C230 C1 1.489 . S
