# Generated by pormake.
# Topology qtz, (4)-cn, num edge types: 1
# Building blocks:
#     Node 0, Type 0, BuildingBlock: QUQFOY_clean_sbu_3, # of connection points: 4
#     Node 1, Type 0, BuildingBlock: QUQFOY_clean_sbu_3, # of connection points: 4
#     Node 2, Type 0, BuildingBlock: QUQFOY_clean_sbu_3, # of connection points: 4
#     Edge 3, Type (0, 0), BuildingBlock: ZUJKAS_clean_linker_0, # of connection points: 2
#     Edge 4, Type (0, 0), BuildingBlock: ZUJKAS_clean_linker_0, # of connection points: 2
#     Edge 5, Type (0, 0), BuildingBlock: ZUJKAS_clean_linker_0, # of connection points: 2
#     Edge 6, Type (0, 0), BuildingBlock: ZUJKAS_clean_linker_0, # of connection points: 2
#     Edge 7, Type (0, 0), BuildingBlock: ZUJKAS_clean_linker_0, # of connection points: 2
#     Edge 8, Type (0, 0), BuildingBlock: ZUJKAS_clean_linker_0, # of connection points: 2
# Relax obj value: 0.008
# Max RMSD: 0.054
# Mean RMSD: 0.048
data_MOF--net-qtz--node1-QUQFOY_clean_sbu_3--edge1-ZUJKAS_clean_linker_0
_symmetry_space_group_name_H-M    P1
_symmetry_Int_Tables_number       1
_symmetry_cell_setting            triclinic
loop_
_symmetry_equiv_pos_as_xyz
'x, y, z'
_cell_length_a     31.446133
_cell_length_b     30.836949
_cell_length_c     39.001801
_cell_angle_alpha  89.902759
_cell_angle_beta   91.376622
_cell_angle_gamma 121.56069
loop_
_atom_site_label
_atom_site_type_symbol
_atom_site_fract_x
_atom_site_fract_y
_atom_site_fract_z
_atom_type_partial_charge
C0 C 0.93054 0.52625 0.11714 0.0
O1 O 0.94349 0.5565 0.14266 0.0
Cd2 Cd -0.00227 0.5617 0.18882 0.0
O3 O 0.9485 0.49785 0.11369 0.0
Cd4 Cd 0.01028 0.48233 0.14331 0.0
C5 C 0.93678 0.43522 0.212 0.0
O6 O 0.06914 0.56874 0.1638 0.0
O7 O 0.07856 0.51023 0.18595 0.0
O8 O 0.04596 0.48717 0.08795 0.0
C9 C 0.09405 0.5572 0.1837 0.0
O10 O 0.95179 0.48145 0.21916 0.0
C11 C 0.0455 0.44588 0.09035 0.0
O12 O 0.94919 0.4233 0.18428 0.0
O13 O 0.02675 0.41993 0.11719 0.0
C14 C 0.44514 0.07619 0.51415 0.0
O15 O 0.42168 0.07064 0.48595 0.0
Cd16 Cd 0.421 0.01932 0.43913 0.0
O17 O 0.46871 0.05335 0.51903 0.0
Cd18 Cd 0.4858 -0.00658 0.48952 0.0
C19 C 0.54738 0.07665 0.42648 0.0
O20 O 0.40449 0.93934 0.46043 0.0
O21 O 0.46466 0.92971 0.44515 0.0
O22 O 0.46853 0.94946 0.54362 0.0
C23 C 0.41888 0.91538 0.44238 0.0
O24 O 0.50421 0.06541 0.41563 0.0
C25 C 0.50835 0.94849 0.5456 0.0
O26 O 0.55294 0.05907 0.45475 0.0
O27 O 0.53896 0.96963 0.52153 0.0
C28 C 0.60622 0.54297 0.85819 0.0
O29 O 0.6281 0.57121 0.83282 0.0
Cd30 Cd 0.58692 0.58139 0.78393 0.0
O31 O 0.55872 0.51845 0.85968 0.0
Cd32 Cd 0.4868 0.5092 0.82477 0.0
C33 C 0.51177 0.4563 0.75801 0.0
O34 O 0.5267 0.59743 0.80659 0.0
O35 O 0.45664 0.54543 0.78099 0.0
O36 O 0.44793 0.51215 0.87737 0.0
C37 C 0.49271 0.59086 0.78534 0.0
O38 O 0.54792 0.50103 0.75185 0.0
C39 C 0.40633 0.47131 0.87145 0.0
O40 O 0.48518 0.44774 0.78423 0.0
O41 O 0.40229 0.44724 0.84396 0.0
H42 H 0.40375 0.51905 0.92941 0.0
H43 H 0.33265 0.49443 0.96561 0.0
H44 H 0.24205 0.36005 0.90292 0.0
H45 H 0.31309 0.38514 0.86593 0.0
H46 H 0.19489 0.41018 0.9141 0.0
H47 H 0.26908 0.38716 0.03789 0.0
H48 H 0.31158 0.448 0.01992 0.0
H49 H 0.29812 0.39076 -0.00226 0.0
C50 C 0.36892 0.4839 0.92352 0.0
C51 C 0.36411 0.45401 0.89481 0.0
C52 C 0.32835 0.46964 0.94443 0.0
C53 C 0.28224 0.42486 0.9374 0.0
C54 C 0.2774 0.39454 0.90899 0.0
H55 H 0.05651 0.36324 0.09012 0.0
H56 H 0.10524 0.34594 0.05031 0.0
C57 C 0.31802 0.40891 0.88791 0.0
C58 C 0.23846 0.41228 0.95829 0.0
H59 H 0.20314 0.40553 0.04111 0.0
C60 C 0.19625 0.40815 0.94184 0.0
C61 C 0.23958 0.40838 -0.00558 0.0
C62 C 0.28184 0.40823 0.01345 0.0
C63 C 0.15682 0.40393 0.96071 0.0
C64 C 0.16027 0.40508 -0.00302 0.0
C65 C 0.20075 0.40545 0.01331 0.0
C66 C 0.12531 0.41113 0.01845 0.0
C67 C 0.11233 0.39926 0.94155 0.0
C68 C 0.12 0.45319 0.0136 0.0
C69 C 0.09211 0.46298 0.03612 0.0
C70 C 0.0694 0.43129 0.06429 0.0
C71 C 0.07346 0.38829 0.06861 0.0
C72 C 0.10134 0.3784 0.04593 0.0
H73 H 0.10636 0.38008 0.91627 0.0
H74 H 0.07773 0.37761 0.95639 0.0
H75 H 0.11924 0.43788 0.93671 0.0
H76 H 0.1392 0.4798 -0.00679 0.0
H77 H 0.08997 0.49656 0.03212 0.0
H78 H 0.87773 0.33217 0.20014 0.0
H79 H 0.81604 0.26832 0.2386 0.0
H80 H 0.85923 0.38405 0.31657 0.0
H81 H 0.91991 0.44801 0.27832 0.0
H82 H 0.82164 0.23589 0.30568 0.0
H83 H 0.71035 0.32829 0.30032 0.0
H84 H 0.76016 0.34419 0.27131 0.0
H85 H 0.77412 0.37016 0.31421 0.0
C86 C 0.87435 0.34389 0.22558 0.0
C87 C 0.9031 0.39529 0.23597 0.0
C88 C 0.83919 0.30739 0.24752 0.0
C89 C 0.83247 0.32174 0.28013 0.0
C90 C 0.86308 0.37243 0.29121 0.0
H91 H 0.64718 0.12285 0.44424 0.0
H92 H 0.71835 0.18084 0.40924 0.0
C93 C 0.89779 0.40891 0.26929 0.0
C94 C 0.79169 0.28457 0.30193 0.0
H95 H 0.68548 0.26172 0.34005 0.0
C96 C 0.79175 0.24134 0.3132 0.0
C97 C 0.7525 0.29161 0.3113 0.0
C98 C 0.74883 0.33579 0.29842 0.0
C99 C 0.75373 0.20509 0.33393 0.0
C100 C 0.71528 0.2129 0.34399 0.0
C101 C 0.71525 0.25604 0.33255 0.0
C102 C 0.67307 0.17581 0.36494 0.0
C103 C 0.7544 0.15826 0.34418 0.0
C104 C 0.62412 0.15444 0.35187 0.0
C105 C 0.58361 0.12211 0.37187 0.0
C106 C 0.59107 0.11024 0.40546 0.0
C107 C 0.64019 0.13109 0.41843 0.0
C108 C 0.68089 0.16392 0.39838 0.0
H109 H 0.77904 0.15194 0.32767 0.0
H110 H 0.76869 0.16295 0.37105 0.0
H111 H 0.71622 0.12388 0.34273 0.0
H112 H 0.61723 0.16316 0.32616 0.0
H113 H 0.54635 0.10653 0.36092 0.0
H114 H 0.45057 0.90453 0.601 0.0
H115 H 0.45922 0.85255 0.64445 0.0
H116 H 0.59325 0.87839 0.59752 0.0
H117 H 0.58454 0.93028 0.55344 0.0
H118 H 0.52469 0.7769 0.60852 0.0
H119 H 0.55449 0.88922 0.72686 0.0
H120 H 0.50101 0.87849 0.70196 0.0
H121 H 0.5623 0.91588 0.68455 0.0
C122 C 0.48234 0.89983 0.60014 0.0
C123 C 0.51685 0.92146 0.57373 0.0
C124 C 0.48741 0.87038 0.62519 0.0
C125 C 0.52725 0.8622 0.6245 0.0
C126 C 0.56244 0.8846 0.59862 0.0
H127 H 0.57118 0.68931 0.78484 0.0
H128 H 0.58329 0.75679 0.74572 0.0
C129 C 0.55744 0.91424 0.57351 0.0
C130 C 0.5293 0.82663 0.64908 0.0
H131 H 0.52669 0.80092 0.73444 0.0
C132 C 0.52581 0.78245 0.63606 0.0
C133 C 0.53132 0.83422 0.68498 0.0
C134 C 0.53801 0.88229 0.70044 0.0
C135 C 0.5221 0.74459 0.65799 0.0
C136 C 0.52096 0.75074 0.69382 0.0
C137 C 0.52674 0.79594 0.70692 0.0
C138 C 0.51298 0.71027 0.71805 0.0
C139 C 0.51929 0.69828 0.64256 0.0
C140 C 0.46892 0.66218 0.71594 0.0
C141 C 0.46191 0.62356 0.7382 0.0
C142 C 0.49872 0.6325 0.76314 0.0
C143 C 0.5422 0.68118 0.76584 0.0
C144 C 0.54919 0.71977 0.74351 0.0
H145 H 0.5348 0.70591 0.61643 0.0
H146 H 0.53987 0.68533 0.65888 0.0
H147 H 0.47964 0.66685 0.64042 0.0
H148 H 0.43999 0.65445 0.69696 0.0
H149 H 0.42784 0.58655 0.73564 0.0
H150 H 0.57466 0.47198 0.9091 0.0
H151 H 0.62603 0.4641 0.95392 0.0
H152 H 0.75715 0.59692 0.91556 0.0
H153 H 0.70654 0.60407 0.87019 0.0
H154 H 0.77433 0.52242 0.92769 0.0
H155 H 0.6848 0.54752 0.04055 0.0
H156 H 0.64216 0.49586 0.01265 0.0
H157 H 0.67259 0.56015 -0.00259 0.0
C158 C 0.6144 0.49965 0.91036 0.0
C159 C 0.63651 0.53869 0.88611 0.0
C160 C 0.64367 0.49527 0.93611 0.0
C161 C 0.69535 0.53038 0.93843 0.0
C162 C 0.71735 0.56942 0.9143 0.0
H163 H 0.90029 0.5941 0.10862 0.0
H164 H 0.84226 0.59214 0.06503 0.0
C165 C 0.68832 0.57347 0.88838 0.0
C166 C 0.72715 0.52604 0.96526 0.0
H167 H 0.74531 0.52522 0.05186 0.0
C168 C 0.76799 0.52303 0.95486 0.0
C169 C 0.71912 0.52736 0.00069 0.0
C170 C 0.6776 0.53339 0.01358 0.0
C171 C 0.80131 0.52181 0.97884 0.0
C172 C 0.79268 0.52201 0.01427 0.0
C173 C 0.75162 0.52461 0.02469 0.0
C174 C 0.82715 0.52208 0.04096 0.0
C175 C 0.84636 0.52216 0.9659 0.0
C176 C 0.83755 0.48301 0.0422 0.0
C177 C 0.87132 0.4844 0.06683 0.0
C178 C 0.89457 0.52441 0.09109 0.0
C179 C 0.88308 0.56277 0.0903 0.0
C180 C 0.84983 0.56166 0.06543 0.0
H181 H 0.85473 0.53612 0.93917 0.0
H182 H 0.87992 0.54649 0.98245 0.0
H183 H 0.83894 0.4828 0.96611 0.0
H184 H 0.81951 0.45138 0.02416 0.0
H185 H 0.8789 0.45394 0.06702 0.0
H186 H 0.32113 0.88226 0.42664 0.0
H187 H 0.26759 0.82012 0.38222 0.0
H188 H 0.38761 0.79824 0.35597 0.0
H189 H 0.44147 0.86052 0.39997 0.0
H190 H 0.34161 0.81478 0.29927 0.0
H191 H 0.20276 0.66454 0.38378 0.0
H192 H 0.2126 0.72673 0.39099 0.0
H193 H 0.26262 0.71583 0.39969 0.0
C194 C 0.33597 0.8639 0.41159 0.0
C195 C 0.38547 0.8762 0.41683 0.0
C196 C 0.3053 0.82831 0.38633 0.0
C197 C 0.32356 0.80428 0.36611 0.0
C198 C 0.37284 0.81632 0.3714 0.0
H199 H 0.14778 0.54126 0.23265 0.0
H200 H 0.20667 0.60229 0.27554 0.0
C201 C 0.40349 0.85184 0.39659 0.0
C202 C 0.29191 0.76775 0.33864 0.0
H203 H 0.18408 0.6536 0.32394 0.0
C204 C 0.30723 0.77944 0.30462 0.0
C205 C 0.24747 0.72148 0.34583 0.0
C206 C 0.23047 0.706 0.38206 0.0
C207 C 0.27877 0.74636 0.27743 0.0
C208 C 0.23356 0.70082 0.28454 0.0
C209 C 0.21866 0.68874 0.31861 0.0
C210 C 0.20082 0.66519 0.25701 0.0
C211 C 0.29758 0.7601 0.24143 0.0
C212 C 0.17835 0.68053 0.2323 0.0
C213 C 0.14477 0.64579 0.20773 0.0
C214 C 0.13286 0.59503 0.20765 0.0
C215 C 0.15621 0.58006 0.23204 0.0
C216 C 0.18977 0.61484 0.25659 0.0
H217 H 0.33822 0.7889 0.24133 0.0
H218 H 0.29034 0.72593 0.22679 0.0
H219 H 0.27772 0.77641 0.22795 0.0
H220 H 0.18575 0.71902 0.23257 0.0
H221 H 0.12721 0.65841 0.18937 0.0
H222 H 0.44706 0.35387 0.76676 0.0
H223 H 0.4321 0.28438 0.72814 0.0
H224 H 0.5361 0.39353 0.65703 0.0
H225 H 0.55213 0.46293 0.6956 0.0
H226 H 0.39656 0.26201 0.66163 0.0
H227 H 0.58912 0.29983 0.67053 0.0
H228 H 0.56682 0.32865 0.69954 0.0
H229 H 0.58741 0.35476 0.65762 0.0
C230 C 0.46683 0.36307 0.74293 0.0
C231 C 0.50118 0.41396 0.73444 0.0
C232 C 0.4582 0.32332 0.7209 0.0
C233 C 0.48375 0.33378 0.69006 0.0
C234 C 0.51698 0.38454 0.68113 0.0
H235 H 0.4143 0.14428 0.50936 0.0
H236 H 0.42043 0.2034 0.55369 0.0
C237 C 0.52589 0.4242 0.70317 0.0
C238 C 0.47552 0.29182 0.66692 0.0
H239 H 0.5369 0.24454 0.62495 0.0
C240 C 0.42712 0.25784 0.65381 0.0
C241 C 0.51528 0.28589 0.65724 0.0
C242 C 0.56747 0.31889 0.67224 0.0
C243 C 0.41771 0.21907 0.63036 0.0
C244 C 0.45801 0.21502 0.61921 0.0
C245 C 0.5061 0.24802 0.63318 0.0
C246 C 0.45157 0.17727 0.59284 0.0
C247 C 0.36467 0.18262 0.61807 0.0
C248 C 0.46798 0.14363 0.59984 0.0
C249 C 0.46529 0.1104 0.5744 0.0
C250 C 0.44602 0.11005 0.54141 0.0
C251 C 0.42897 0.14331 0.53457 0.0
C252 C 0.43211 0.17688 0.55998 0.0
H253 H 0.33739 0.18067 0.63656 0.0
H254 H 0.3579 0.19603 0.59329 0.0
H255 H 0.35759 0.14371 0.61409 0.0
H256 H 0.48333 0.14341 0.62496 0.0
H257 H 0.47862 0.08519 0.58058 0.0
loop_
_geom_bond_atom_site_label_1
_geom_bond_atom_site_label_2
_geom_bond_distance
_geom_bond_site_symmetry_2
_ccdc_geom_bond_type
C0 O1 1.306 . S
C0 O3 1.160 . S
O1 C0 1.306 . S
O1 Cd2 2.228 . S
Cd2 O1 2.228 . S
Cd2 O6 2.273 1_655 S
Cd2 O10 2.277 . S
O3 C0 1.160 . S
O3 Cd4 2.203 1_655 S
Cd4 O3 2.203 1_455 S
Cd4 O6 2.411 . S
Cd4 O7 2.333 . S
Cd4 O8 2.352 . S
Cd4 O12 2.277 1_455 S
Cd4 O13 2.356 . S
C5 O10 1.209 . S
C5 O12 1.226 . S
O6 Cd2 2.273 1_455 S
O6 Cd4 2.411 . S
O6 C9 1.320 . S
O7 Cd4 2.333 . S
O7 C9 1.214 . S
O8 Cd4 2.352 . S
O8 C11 1.258 . S
C9 O6 1.320 . S
C9 O7 1.214 . S
O10 Cd2 2.277 . S
O10 C5 1.209 . S
C11 O8 1.258 . S
C11 O13 1.282 . S
O12 Cd4 2.277 1_655 S
O12 C5 1.226 . S
O13 Cd4 2.356 . S
O13 C11 1.282 . S
C14 O15 1.306 . S
C14 O17 1.160 . S
O15 C14 1.306 . S
O15 Cd16 2.228 . S
Cd16 O15 2.228 . S
Cd16 O20 2.273 1_545 S
Cd16 O24 2.277 . S
O17 C14 1.160 . S
O17 Cd18 2.203 . S
Cd18 O17 2.203 . S
Cd18 O20 2.411 1_545 S
Cd18 O21 2.333 1_545 S
Cd18 O22 2.352 1_545 S
Cd18 O26 2.277 . S
Cd18 O27 2.356 1_545 S
C19 O24 1.209 . S
C19 O26 1.226 . S
O20 Cd16 2.273 1_565 S
O20 Cd18 2.411 1_565 S
O20 C23 1.320 . S
O21 Cd18 2.333 1_565 S
O21 C23 1.214 . S
O22 Cd18 2.352 1_565 S
O22 C25 1.258 . S
C23 O20 1.320 . S
C23 O21 1.214 . S
O24 Cd16 2.277 . S
O24 C19 1.209 . S
C25 O22 1.258 . S
C25 O27 1.282 . S
O26 Cd18 2.277 . S
O26 C19 1.226 . S
O27 Cd18 2.356 1_565 S
O27 C25 1.282 . S
C28 O29 1.306 . S
C28 O31 1.160 . S
O29 C28 1.306 . S
O29 Cd30 2.228 . S
Cd30 O29 2.228 . S
Cd30 O34 2.273 . S
Cd30 O38 2.277 . S
O31 C28 1.160 . S
O31 Cd32 2.203 . S
Cd32 O31 2.203 . S
Cd32 O34 2.411 . S
Cd32 O35 2.333 . S
Cd32 O36 2.352 . S
Cd32 O40 2.277 . S
Cd32 O41 2.356 . S
C33 O38 1.209 . S
C33 O40 1.226 . S
O34 Cd30 2.273 . S
O34 Cd32 2.411 . S
O34 C37 1.320 . S
O35 Cd32 2.333 . S
O35 C37 1.214 . S
O36 Cd32 2.352 . S
O36 C39 1.258 . S
C37 O34 1.320 . S
C37 O35 1.214 . S
O38 Cd30 2.277 . S
O38 C33 1.209 . S
C39 O36 1.258 . S
C39 O41 1.282 . S
O40 Cd32 2.277 . S
O40 C33 1.226 . S
O41 Cd32 2.356 . S
O41 C39 1.282 . S
H42 C50 0.929 . S
H43 C52 0.930 . S
H44 C54 0.930 . S
H45 C57 0.929 . S
H46 C60 0.930 . S
H47 C62 0.960 . S
H48 C62 0.960 . S
H49 C62 0.960 . S
C50 H42 0.929 . S
C50 C51 1.377 . S
C50 C52 1.384 . S
C51 C50 1.377 . S
C51 C57 1.390 . S
C52 H43 0.930 . S
C52 C50 1.384 . S
C52 C53 1.372 . S
C53 C52 1.372 . S
C53 C54 1.400 . S
C53 C58 1.490 . S
C54 H44 0.930 . S
C54 C53 1.400 . S
C54 C57 1.386 . S
H55 C71 0.930 . S
H56 C72 0.931 . S
C57 H45 0.929 . S
C57 C51 1.390 . S
C57 C54 1.386 . S
C58 C53 1.490 . S
C58 C60 1.395 . S
C58 C61 1.403 1_556 S
H59 C65 0.930 . S
C60 H46 0.930 . S
C60 C58 1.395 . S
C60 C63 1.403 . S
C61 C58 1.403 1_554 S
C61 C62 1.524 . S
C61 C65 1.400 . S
C62 H47 0.960 . S
C62 H48 0.960 . S
C62 H49 0.960 . S
C62 C61 1.524 . S
C63 C60 1.403 . S
C63 C64 1.392 1_556 S
C63 C67 1.495 . S
C64 C63 1.392 1_554 S
C64 C65 1.385 . S
C64 C66 1.478 . S
C65 H59 0.930 . S
C65 C61 1.400 . S
C65 C64 1.385 . S
C66 C64 1.478 . S
C66 C68 1.381 . S
C66 C72 1.383 . S
C67 C63 1.495 . S
C67 H73 0.959 . S
C67 H74 0.961 . S
C67 H75 0.960 . S
C68 C66 1.381 . S
C68 C69 1.394 . S
C68 H76 0.930 . S
C69 C68 1.394 . S
C69 C70 1.383 . S
C69 H77 0.929 . S
C70 C69 1.383 . S
C70 C71 1.377 . S
C71 H55 0.930 . S
C71 C70 1.377 . S
C71 C72 1.379 . S
C72 H56 0.931 . S
C72 C66 1.383 . S
C72 C71 1.379 . S
H73 C67 0.959 . S
H74 C67 0.961 . S
H75 C67 0.960 . S
H76 C68 0.930 . S
H77 C69 0.929 . S
H78 C86 0.929 . S
H79 C88 0.930 . S
H80 C90 0.930 . S
H81 C93 0.929 . S
H82 C96 0.930 . S
H83 C98 0.960 . S
H84 C98 0.960 . S
H85 C98 0.960 . S
C86 H78 0.929 . S
C86 C87 1.377 . S
C86 C88 1.384 . S
C87 C86 1.377 . S
C87 C93 1.390 . S
C88 H79 0.930 . S
C88 C86 1.384 . S
C88 C89 1.372 . S
C89 C88 1.372 . S
C89 C90 1.400 . S
C89 C94 1.490 . S
C90 H80 0.930 . S
C90 C89 1.400 . S
C90 C93 1.386 . S
H91 C107 0.930 . S
H92 C108 0.931 . S
C93 H81 0.929 . S
C93 C87 1.390 . S
C93 C90 1.386 . S
C94 C89 1.490 . S
C94 C96 1.395 . S
C94 C97 1.403 . S
H95 C101 0.930 . S
C96 H82 0.930 . S
C96 C94 1.395 . S
C96 C99 1.403 . S
C97 C94 1.403 . S
C97 C98 1.524 . S
C97 C101 1.400 . S
C98 H83 0.960 . S
C98 H84 0.960 . S
C98 H85 0.960 . S
C98 C97 1.524 . S
C99 C96 1.403 . S
C99 C100 1.392 . S
C99 C103 1.495 . S
C100 C99 1.392 . S
C100 C101 1.385 . S
C100 C102 1.478 . S
C101 H95 0.930 . S
C101 C97 1.400 . S
C101 C100 1.385 . S
C102 C100 1.478 . S
C102 C104 1.381 . S
C102 C108 1.383 . S
C103 C99 1.495 . S
C103 H109 0.959 . S
C103 H110 0.961 . S
C103 H111 0.960 . S
C104 C102 1.381 . S
C104 C105 1.394 . S
C104 H112 0.930 . S
C105 C104 1.394 . S
C105 C106 1.383 . S
C105 H113 0.929 . S
C106 C105 1.383 . S
C106 C107 1.377 . S
C107 H91 0.930 . S
C107 C106 1.377 . S
C107 C108 1.379 . S
C108 H92 0.931 . S
C108 C102 1.383 . S
C108 C107 1.379 . S
H109 C103 0.959 . S
H110 C103 0.961 . S
H111 C103 0.960 . S
H112 C104 0.930 . S
H113 C105 0.929 . S
H114 C122 0.929 . S
H115 C124 0.930 . S
H116 C126 0.930 . S
H117 C129 0.929 . S
H118 C132 0.930 . S
H119 C134 0.960 . S
H120 C134 0.960 . S
H121 C134 0.960 . S
C122 H114 0.929 . S
C122 C123 1.377 . S
C122 C124 1.384 . S
C123 C122 1.377 . S
C123 C129 1.390 . S
C124 H115 0.930 . S
C124 C122 1.384 . S
C124 C125 1.372 . S
C125 C124 1.372 . S
C125 C126 1.400 . S
C125 C130 1.490 . S
C126 H116 0.930 . S
C126 C125 1.400 . S
C126 C129 1.386 . S
H127 C143 0.930 . S
H128 C144 0.931 . S
C129 H117 0.929 . S
C129 C123 1.390 . S
C129 C126 1.386 . S
C130 C125 1.490 . S
C130 C132 1.395 . S
C130 C133 1.403 . S
H131 C137 0.930 . S
C132 H118 0.930 . S
C132 C130 1.395 . S
C132 C135 1.403 . S
C133 C130 1.403 . S
C133 C134 1.524 . S
C133 C137 1.400 . S
C134 H119 0.960 . S
C134 H120 0.960 . S
C134 H121 0.960 . S
C134 C133 1.524 . S
C135 C132 1.403 . S
C135 C136 1.392 . S
C135 C139 1.495 . S
C136 C135 1.392 . S
C136 C137 1.385 . S
C136 C138 1.478 . S
C137 H131 0.930 . S
C137 C133 1.400 . S
C137 C136 1.385 . S
C138 C136 1.478 . S
C138 C140 1.381 . S
C138 C144 1.383 . S
C139 C135 1.495 . S
C139 H145 0.959 . S
C139 H146 0.961 . S
C139 H147 0.960 . S
C140 C138 1.381 . S
C140 C141 1.394 . S
C140 H148 0.930 . S
C141 C140 1.394 . S
C141 C142 1.383 . S
C141 H149 0.929 . S
C142 C141 1.383 . S
C142 C143 1.377 . S
C143 H127 0.930 . S
C143 C142 1.377 . S
C143 C144 1.379 . S
C144 H128 0.931 . S
C144 C138 1.383 . S
C144 C143 1.379 . S
H145 C139 0.959 . S
H146 C139 0.961 . S
H147 C139 0.960 . S
H148 C140 0.930 . S
H149 C141 0.929 . S
H150 C158 0.929 . S
H151 C160 0.930 . S
H152 C162 0.930 . S
H153 C165 0.929 . S
H154 C168 0.930 . S
H155 C170 0.960 . S
H156 C170 0.960 . S
H157 C170 0.960 1_556 S
C158 H150 0.929 . S
C158 C159 1.377 . S
C158 C160 1.384 . S
C159 C158 1.377 . S
C159 C165 1.390 . S
C160 H151 0.930 . S
C160 C158 1.384 . S
C160 C161 1.372 . S
C161 C160 1.372 . S
C161 C162 1.400 . S
C161 C166 1.490 . S
C162 H152 0.930 . S
C162 C161 1.400 . S
C162 C165 1.386 . S
H163 C179 0.930 . S
H164 C180 0.931 . S
C165 H153 0.929 . S
C165 C159 1.390 . S
C165 C162 1.386 . S
C166 C161 1.490 . S
C166 C168 1.395 . S
C166 C169 1.403 1_556 S
H167 C173 0.930 . S
C168 H154 0.930 . S
C168 C166 1.395 . S
C168 C171 1.403 . S
C169 C166 1.403 1_554 S
C169 C170 1.524 . S
C169 C173 1.400 . S
C170 H155 0.960 . S
C170 H156 0.960 . S
C170 H157 0.960 1_554 S
C170 C169 1.524 . S
C171 C168 1.403 . S
C171 C172 1.392 1_556 S
C171 C175 1.495 . S
C172 C171 1.392 1_554 S
C172 C173 1.385 . S
C172 C174 1.478 . S
C173 H167 0.930 . S
C173 C169 1.400 . S
C173 C172 1.385 . S
C174 C172 1.478 . S
C174 C176 1.381 . S
C174 C180 1.383 . S
C175 C171 1.495 . S
C175 H181 0.959 . S
C175 H182 0.961 . S
C175 H183 0.960 1_556 S
C176 C174 1.381 . S
C176 C177 1.394 . S
C176 H184 0.930 . S
C177 C176 1.394 . S
C177 C178 1.383 . S
C177 H185 0.929 . S
C178 C177 1.383 . S
C178 C179 1.377 . S
C179 H163 0.930 . S
C179 C178 1.377 . S
C179 C180 1.379 . S
C180 H164 0.931 . S
C180 C174 1.383 . S
C180 C179 1.379 . S
H181 C175 0.959 . S
H182 C175 0.961 . S
H183 C175 0.960 1_554 S
H184 C176 0.930 . S
H185 C177 0.929 . S
H186 C194 0.929 . S
H187 C196 0.930 . S
H188 C198 0.930 . S
H189 C201 0.929 . S
H190 C204 0.930 . S
H191 C206 0.960 . S
H192 C206 0.960 . S
H193 C206 0.960 . S
C194 H186 0.929 . S
C194 C195 1.377 . S
C194 C196 1.384 . S
C195 C194 1.377 . S
C195 C201 1.390 . S
C196 H187 0.930 . S
C196 C194 1.384 . S
C196 C197 1.372 . S
C197 C196 1.372 . S
C197 C198 1.400 . S
C197 C202 1.490 . S
C198 H188 0.930 . S
C198 C197 1.400 . S
C198 C201 1.386 . S
H199 C215 0.930 . S
H200 C216 0.931 . S
C201 H189 0.929 . S
C201 C195 1.390 . S
C201 C198 1.386 . S
C202 C197 1.490 . S
C202 C204 1.395 . S
C202 C205 1.403 . S
H203 C209 0.930 . S
C204 H190 0.930 . S
C204 C202 1.395 . S
C204 C207 1.403 . S
C205 C202 1.403 . S
C205 C206 1.524 . S
C205 C209 1.400 . S
C206 H191 0.960 . S
C206 H192 0.960 . S
C206 H193 0.960 . S
C206 C205 1.524 . S
C207 C204 1.403 . S
C207 C208 1.392 . S
C207 C211 1.495 . S
C208 C207 1.392 . S
C208 C209 1.385 . S
C208 C210 1.478 . S
C209 H203 0.930 . S
C209 C205 1.400 . S
C209 C208 1.385 . S
C210 C208 1.478 . S
C210 C212 1.381 . S
C210 C216 1.383 . S
C211 C207 1.495 . S
C211 H217 0.959 . S
C211 H218 0.961 . S
C211 H219 0.960 . S
C212 C210 1.381 . S
C212 C213 1.394 . S
C212 H220 0.930 . S
C213 C212 1.394 . S
C213 C214 1.383 . S
C213 H221 0.929 . S
C214 C213 1.383 . S
C214 C215 1.377 . S
C215 H199 0.930 . S
C215 C214 1.377 . S
C215 C216 1.379 . S
C216 H200 0.931 . S
C216 C210 1.383 . S
C216 C215 1.379 . S
H217 C211 0.959 . S
H218 C211 0.961 . S
H219 C211 0.960 . S
H220 C212 0.930 . S
H221 C213 0.929 . S
H222 C230 0.929 . S
H223 C232 0.930 . S
H224 C234 0.930 . S
H225 C237 0.929 . S
H226 C240 0.930 . S
H227 C242 0.960 . S
H228 C242 0.960 . S
H229 C242 0.960 . S
C230 H222 0.929 . S
C230 C231 1.377 . S
C230 C232 1.384 . S
C231 C230 1.377 . S
C231 C237 1.390 . S
C232 H223 0.930 . S
C232 C230 1.384 . S
C232 C233 1.372 . S
C233 C232 1.372 . S
C233 C234 1.400 . S
C233 C238 1.490 . S
C234 H224 0.930 . S
C234 C233 1.400 . S
C234 C237 1.386 . S
H235 C251 0.930 . S
H236 C252 0.931 . S
C237 H225 0.929 . S
C237 C231 1.390 . S
C237 C234 1.386 . S
C238 C233 1.490 . S
C238 C240 1.395 . S
C238 C241 1.403 . S
H239 C245 0.930 . S
C240 H226 0.930 . S
C240 C238 1.395 . S
C240 C243 1.403 . S
C241 C238 1.403 . S
C241 C242 1.524 . S
C241 C245 1.400 . S
C242 H227 0.960 . S
C242 H228 0.960 . S
C242 H229 0.960 . S
C242 C241 1.524 . S
C243 C240 1.403 . S
C243 C244 1.392 . S
C243 C247 1.495 . S
C244 C243 1.392 . S
C244 C245 1.385 . S
C244 C246 1.478 . S
C245 H239 0.930 . S
C245 C241 1.400 . S
C245 C244 1.385 . S
C246 C244 1.478 . S
C246 C248 1.381 . S
C246 C252 1.383 . S
C247 C243 1.495 . S
C247 H253 0.959 . S
C247 H254 0.961 . S
C247 H255 0.960 . S
C248 C246 1.381 . S
C248 C249 1.394 . S
C248 H256 0.930 . S
C249 C248 1.394 . S
C249 C250 1.383 . S
C249 H257 0.929 . S
C250 C249 1.383 . S
C250 C251 1.377 . S
C251 H235 0.930 . S
C251 C250 1.377 . S
C251 C252 1.379 . S
C252 H236 0.931 . S
C252 C246 1.383 . S
C252 C251 1.379 . S
H253 C247 0.959 . S
H254 C247 0.961 . S
H255 C247 0.960 . S
H256 C248 0.930 . S
H257 C249 0.929 . S
C51 C39 1.401 . S
C70 C11 1.401 . S
C87 C5 1.519 . S
C106 C19 1.518 . S
C123 C25 1.404 . S
C142 C37 1.392 . S
C159 C28 1.411 . S
C178 C0 1.411 . S
C195 C23 1.404 . S
C214 C9 1.389 . S
C231 C33 1.466 . S
C250 C14 1.466 . S
