# Generated by pormake.
# Topology bcu, (8)-cn, num edge types: 1
# Building blocks:
#     Node 0, Type 0, BuildingBlock: AJUNOK_clean_sbu_0, # of connection points: 8
#     Node 1, Type 0, BuildingBlock: AJUNOK_clean_sbu_0, # of connection points: 8
#     Edge 2, Type (0, 0), BuildingBlock: XIVTED_clean_linker_0, # of connection points: 2
#     Edge 3, Type (0, 0), BuildingBlock: XIVTED_clean_linker_0, # of connection points: 2
#     Edge 4, Type (0, 0), BuildingBlock: XIVTED_clean_linker_0, # of connection points: 2
#     Edge 5, Type (0, 0), BuildingBlock: XIVTED_clean_linker_0, # of connection points: 2
#     Edge 6, Type (0, 0), BuildingBlock: XIVTED_clean_linker_0, # of connection points: 2
#     Edge 7, Type (0, 0), BuildingBlock: XIVTED_clean_linker_0, # of connection points: 2
#     Edge 8, Type (0, 0), BuildingBlock: XIVTED_clean_linker_0, # of connection points: 2
#     Edge 9, Type (0, 0), BuildingBlock: XIVTED_clean_linker_0, # of connection points: 2
# Relax obj value: 0.063
# Max RMSD: 0.173
# Mean RMSD: 0.173
data_MOF--net-bcu--node1-AJUNOK_clean_sbu_0--edge1-XIVTED_clean_linker_0
_symmetry_space_group_name_H-M    P1
_symmetry_Int_Tables_number       1
_symmetry_cell_setting            triclinic
loop_
_symmetry_equiv_pos_as_xyz
'x, y, z'
_cell_length_a     23.892179
_cell_length_b     23.726531
_cell_length_c     17.316218
_cell_angle_alpha  102.05953
_cell_angle_beta   103.3834
_cell_angle_gamma 106.00928
loop_
_atom_site_label
_atom_site_type_symbol
_atom_site_fract_x
_atom_site_fract_y
_atom_site_fract_z
_atom_type_partial_charge
Cd0 Cd 0.97428 0.92925 0.10575 0.0
Cd1 Cd -0.00498 0.02558 0.89593 0.0
C2 C 0.10542 0.93417 0.20543 0.0
N3 N 0.06952 0.9186 0.12567 0.0
C4 C 0.13588 0.87125 0.07692 0.0
C5 C 0.17203 0.88342 0.15928 0.0
C6 C 0.15716 0.91706 0.22376 0.0
C7 C 0.08415 0.88887 0.06148 0.0
H8 H 0.09174 0.95667 0.25524 0.0
H9 H 0.05399 0.87616 0.99876 0.0
C10 C 0.9193 0.89292 0.88114 0.0
C11 C 0.86314 0.02158 0.80072 0.0
C12 C 0.81158 0.03913 0.78422 0.0
C13 C 0.79874 0.07415 0.84967 0.0
C14 C 0.83667 0.08731 0.93128 0.0
C15 C 0.88813 0.06917 0.94486 0.0
N16 N 0.90074 0.03798 0.87965 0.0
H17 H 0.87526 -0.00203 0.75002 0.0
H18 H 0.9196 0.08248 0.00683 0.0
C19 C 0.05243 0.94592 0.78885 0.0
N20 N 0.06299 0.9764 0.86934 0.0
C21 C 0.15235 0.94979 0.91161 0.0
C22 C 0.14252 0.91777 0.82876 0.0
C23 C 0.09166 0.91606 0.76709 0.0
C24 C 0.11179 -0.02089 0.9306 0.0
H25 H 0.01325 0.94472 0.74147 0.0
H26 H 0.11921 0.00401 0.99409 0.0
C27 C 0.04921 0.06131 0.11857 0.0
C28 C 0.9303 0.8315 0.17014 0.0
N29 N 0.90931 -0.02023 0.14022 0.0
C30 C 0.92039 0.00542 0.22246 0.0
C31 C 0.88393 0.03702 0.24922 0.0
C32 C 0.83564 0.0426 0.19074 0.0
C33 C 0.82471 0.01484 0.10597 0.0
C34 C 0.86235 -0.01673 0.08192 0.0
C35 C 0.03776 0.11881 0.82349 0.0
O36 O 0.94749 0.92149 0.95708 0.0
O37 O 0.92698 0.92125 0.82778 0.0
O38 O 0.01969 0.03119 0.04357 0.0
O39 O 0.04259 0.03463 0.1738 0.0
O40 O 0.91702 0.82346 0.09228 0.0
O41 O 0.96393 0.88473 0.21696 0.0
O42 O 0.0495 0.13056 0.90177 0.0
O43 O 0.00581 0.06419 0.77999 0.0
H44 H 0.95786 0.00142 0.26733 0.0
H45 H 0.85451 0.96201 0.0169 0.0
H46 H 0.14588 0.84612 0.02515 0.0
H47 H 0.18268 0.92662 0.28821 0.0
H48 H 0.78454 0.02879 0.72026 0.0
H49 H 0.82814 0.11349 0.98375 0.0
H50 H 0.19121 0.95266 0.96105 0.0
H51 H 0.08162 0.89108 0.70273 0.0
H52 H 0.89335 0.05657 0.31518 0.0
H53 H 0.78832 0.01843 0.05876 0.0
Cd54 Cd 0.41835 0.44867 0.5736 0.0
Cd55 Cd 0.5516 0.50378 0.41886 0.0
C56 C 0.47597 0.38037 0.69219 0.0
N57 N 0.46617 0.38161 0.61221 0.0
C58 C 0.51466 0.30741 0.58419 0.0
C59 C 0.52719 0.30667 0.66737 0.0
C60 C 0.50669 0.34323 0.7213 0.0
C61 C 0.48388 0.3456 0.55774 0.0
H62 H 0.46068 0.40912 0.73374 0.0
H63 H 0.47477 0.34719 0.49421 0.0
C64 C 0.41268 0.4289 0.35571 0.0
C65 C 0.50118 0.58264 0.31319 0.0
C66 C 0.47064 0.62074 0.28696 0.0
C67 C 0.44456 0.65085 0.33974 0.0
C68 C 0.45158 0.64303 0.41935 0.0
C69 C 0.4826 0.60422 0.44309 0.0
N70 N 0.50592 0.57458 0.38951 0.0
H71 H 0.52008 0.5583 0.27192 0.0
H72 H 0.48701 0.59674 0.50339 0.0
C73 C 0.54615 0.3714 0.32227 0.0
N74 N 0.56266 0.40844 0.40099 0.0
C75 C 0.61421 0.34505 0.45396 0.0
C76 C 0.60117 0.30802 0.37267 0.0
C77 C 0.56476 0.32051 0.30663 0.0
C78 C 0.59486 0.39572 0.46671 0.0
H79 H 0.52211 0.38371 0.27096 0.0
H80 H 0.60823 0.4267 0.52848 0.0
C81 C 0.55558 0.52422 0.63093 0.0
C82 C 0.30975 0.39019 0.60641 0.0
N83 N 0.40639 0.54422 0.60266 0.0
C84 C 0.43227 0.58136 0.68202 0.0
C85 C 0.41658 0.63294 0.70738 0.0
C86 C 0.37228 0.64556 0.6514 0.0
C87 C 0.34868 0.60828 0.5685 0.0
C88 C 0.36641 0.55735 0.54538 0.0
C89 C 0.65957 0.55526 0.37998 0.0
O90 O 0.42988 0.44528 0.43456 0.0
O91 O 0.45226 0.44522 0.31954 0.0
O92 O 0.5345 0.50464 0.55256 0.0
O93 O 0.52003 0.5074 0.67208 0.0
O94 O 0.31612 0.37166 0.53558 0.0
O95 O 0.35339 0.43519 0.65962 0.0
O96 O 0.65785 0.57106 0.45401 0.0
O97 O 0.61163 0.51584 0.32603 0.0
H98 H 0.46231 0.56913 0.72737 0.0
H99 H 0.3456 0.5263 0.4831 0.0
H100 H 0.52984 0.28005 0.54069 0.0
H101 H 0.5144 0.34324 0.78545 0.0
H102 H 0.46705 0.62616 0.22562 0.0
H103 H 0.43172 0.66506 0.46166 0.0
H104 H 0.64145 0.33666 0.50681 0.0
H105 H 0.55448 0.29407 0.24289 0.0
H106 H 0.43675 0.6609 0.77148 0.0
H107 H 0.31402 0.61592 0.52334 0.0
H108 H 0.1104 0.11175 0.02283 0.0
H109 H 0.37553 0.35845 0.19581 0.0
H110 H 0.08839 0.15051 0.26607 0.0
H111 H 0.30972 0.40418 0.40397 0.0
H112 H 0.27912 0.27693 0.12295 0.0
H113 H 0.18681 0.21289 0.06171 0.0
C114 C 0.12097 0.14246 0.08395 0.0
C115 C 0.0927 0.12352 0.14077 0.0
C116 C 0.28431 0.30516 0.18356 0.0
C117 C 0.18446 0.23737 0.18951 0.0
C118 C 0.34 0.35184 0.22559 0.0
C119 C 0.351 0.38654 0.30705 0.0
C120 C 0.23913 0.29334 0.22336 0.0
C121 C 0.30352 0.37652 0.34248 0.0
C122 C 0.16599 0.19978 0.10731 0.0
C123 C 0.10967 0.16352 0.22065 0.0
N124 N 0.2498 0.33007 0.30087 0.0
N125 N 0.155 0.21847 0.24296 0.0
H126 H 0.71125 0.01674 0.12999 0.0
H127 H 0.71853 0.31779 0.44956 0.0
H128 H 0.87428 0.14992 0.31537 0.0
H129 H 0.55496 0.19503 0.25469 0.0
H130 H 0.77309 0.2498 0.40932 0.0
H131 H 0.651 0.07652 0.17942 0.0
C132 C 0.73442 0.05858 0.18082 0.0
C133 C 0.79796 0.07817 0.21874 0.0
C134 C 0.72513 0.23735 0.37562 0.0
C135 C 0.72924 0.1462 0.27625 0.0
C136 C 0.6936 0.27589 0.39929 0.0
C137 C 0.63191 0.26231 0.35541 0.0
C138 C 0.69507 0.18476 0.30717 0.0
C139 C 0.6027 0.20781 0.28957 0.0
C140 C 0.69993 0.09241 0.20938 0.0
C141 C 0.82535 0.13235 0.28508 0.0
N142 N 0.63465 0.17121 0.26705 0.0
N143 N 0.79089 0.16435 0.31156 0.0
H144 H 0.95006 0.83713 0.33366 0.0
H145 H 0.67807 0.52321 0.22999 0.0
H146 H 0.85214 0.71474 0.08651 0.0
H147 H 0.76141 0.65444 0.47345 0.0
H148 H 0.75702 0.58203 0.18239 0.0
H149 H 0.8967 0.76048 0.39055 0.0
C150 C 0.91786 0.79379 0.29139 0.0
C151 C 0.90461 0.78259 0.20517 0.0
C152 C 0.75856 0.59759 0.24651 0.0
C153 C 0.84342 0.69495 0.26983 0.0
C154 C 0.71351 0.56404 0.27377 0.0
C155 C 0.7126 0.58476 0.35533 0.0
C156 C 0.8027 0.6525 0.30103 0.0
C157 C 0.76008 0.63734 0.40974 0.0
C158 C 0.88746 0.75008 0.32394 0.0
C159 C 0.8631 0.72549 0.15334 0.0
N160 N 0.80281 0.67002 0.38122 0.0
N161 N 0.83338 0.68402 0.1865 0.0
H162 H 0.28191 0.93123 0.28554 0.0
H163 H 0.36095 0.62262 0.18785 0.0
H164 H 0.17148 0.77045 0.0792 0.0
H165 H 0.44492 0.76319 0.42346 0.0
H166 H 0.30104 0.68337 0.13855 0.0
H167 H 0.352 0.8773 0.32786 0.0
C168 C 0.27249 0.88483 0.24873 0.0
C169 C 0.22014 0.85531 0.17896 0.0
C170 C 0.33267 0.70109 0.20097 0.0
C171 C 0.30068 0.79367 0.22681 0.0
C172 C 0.36716 0.66658 0.22905 0.0
C173 C 0.40815 0.68794 0.30989 0.0
C174 C 0.33916 0.75763 0.25387 0.0
C175 C 0.41347 0.74477 0.36096 0.0
C176 C 0.31263 0.85417 0.27296 0.0
C177 C 0.21133 0.79559 0.13281 0.0
N178 N 0.37938 0.77775 0.33205 0.0
N179 N 0.25092 0.76674 0.15784 0.0
H180 H 0.1836 0.90954 0.69257 0.0
H181 H 0.34706 0.67118 0.79823 0.0
H182 H 0.19562 0.85091 0.91383 0.0
H183 H 0.3358 0.72589 0.57395 0.0
H184 H 0.29877 0.74343 0.84563 0.0
H185 H 0.2451 0.84855 0.65185 0.0
C186 C 0.19917 0.88388 0.73266 0.0
C187 C 0.18385 0.88493 0.80645 0.0
C188 C 0.30719 0.74011 0.7863 0.0
C189 C 0.25476 0.81548 0.76045 0.0
C190 C 0.3354 0.69913 0.75935 0.0
C191 C 0.34605 0.69258 0.68202 0.0
C192 C 0.28878 0.77478 0.73551 0.0
C193 C 0.32808 0.729 0.63364 0.0
C194 C 0.23455 0.84934 0.70952 0.0
C195 C 0.20648 0.85185 0.85675 0.0
N196 N 0.3001 0.76842 0.66107 0.0
N197 N 0.24041 0.81822 0.83254 0.0
H198 H 0.28256 0.42607 0.74885 0.0
H199 H 0.02369 0.10454 0.65877 0.0
H200 H 0.21615 0.2825 0.51652 0.0
H201 H 0.11096 0.23829 0.90001 0.0
H202 H 0.07778 0.17763 0.59765 0.0
H203 H 0.20365 0.36654 0.79572 0.0
C204 C 0.25086 0.38225 0.70725 0.0
C205 C 0.25655 0.35856 0.62926 0.0
C206 C 0.0845 0.19122 0.66378 0.0
C207 C 0.16639 0.29006 0.68286 0.0
C208 C 0.05365 0.14959 0.69875 0.0
C209 C 0.06365 0.16515 0.78478 0.0
C210 C 0.12562 0.24871 0.71528 0.0
C211 C 0.10246 0.22423 0.83351 0.0
C212 C 0.20583 0.34829 0.73413 0.0
C213 C 0.21374 0.30204 0.57751 0.0
N214 N 0.13257 0.26369 0.79813 0.0
N215 N 0.17084 0.26922 0.60573 0.0
H216 H 0.68597 0.02502 0.72955 0.0
H217 H 0.6181 0.34053 0.81432 0.0
H218 H 0.80295 0.18924 0.92658 0.0
H219 H 0.51858 0.18902 0.59236 0.0
H220 H 0.6779 0.28029 0.86552 0.0
H221 H 0.61577 0.07904 0.6881 0.0
C222 C 0.69673 0.07221 0.76456 0.0
C223 C 0.75088 0.10265 0.83137 0.0
C224 C 0.64285 0.26004 0.80574 0.0
C225 C 0.67045 0.16455 0.78442 0.0
C226 C 0.60842 0.29431 0.77662 0.0
C227 C 0.56316 0.26975 0.69893 0.0
C228 C 0.63207 0.20059 0.757 0.0
C229 C 0.55344 0.20997 0.65221 0.0
C230 C 0.65656 0.10296 0.74086 0.0
C231 C 0.76164 0.16348 0.87531 0.0
N232 N 0.58765 0.17739 0.68196 0.0
N233 N 0.72207 0.19245 0.8507 0.0
H234 H 0.62816 0.54612 0.78891 0.0
H235 H 0.85087 0.83737 0.96716 0.0
H236 H 0.61997 0.60598 0.56951 0.0
H237 H 0.88817 0.80794 0.73287 0.0
H238 H 0.77067 0.73644 0.91484 0.0
H239 H 0.72747 0.6283 0.86018 0.0
C240 C 0.64792 0.576 0.75548 0.0
C241 C 0.61714 0.56882 0.67269 0.0
C242 C 0.79789 0.75108 0.87598 0.0
C243 C 0.7289 0.66227 0.75314 0.0
C244 C 0.8438 0.8084 0.90606 0.0
C245 C 0.8766 0.83001 0.85474 0.0
C246 C 0.78437 0.71623 0.79355 0.0
C247 C 0.86362 0.79264 0.77419 0.0
C248 C 0.70414 0.62278 0.79609 0.0
C249 C 0.64394 0.60849 0.63191 0.0
N250 N 0.81771 0.73782 0.74552 0.0
N251 N 0.69845 0.65363 0.67255 0.0
loop_
_geom_bond_atom_site_label_1
_geom_bond_atom_site_label_2
_geom_bond_distance
_geom_bond_site_symmetry_2
_ccdc_geom_bond_type
Cd0 N3 2.334 1_655 S
Cd0 N29 2.304 1_565 S
Cd0 O36 2.268 1_554 S
Cd0 O39 2.273 1_665 S
Cd0 O40 2.417 . S
Cd0 O41 2.330 . S
Cd1 N16 2.304 1_455 S
Cd1 N20 2.334 1_545 S
Cd1 O37 2.273 1_445 S
Cd1 O38 2.268 1_556 S
Cd1 O42 2.417 . S
Cd1 O43 2.330 . S
C2 N3 1.332 . S
C2 C6 1.381 . S
C2 H8 0.931 . S
N3 Cd0 2.334 1_455 S
N3 C2 1.332 . S
N3 C7 1.328 . S
C4 C5 1.396 . S
C4 C7 1.378 . S
C4 H46 0.931 1_554 S
C5 C4 1.396 . S
C5 C6 1.382 . S
C6 C2 1.381 . S
C6 C5 1.382 . S
C6 H47 0.930 . S
C7 N3 1.328 . S
C7 C4 1.378 . S
C7 H9 0.930 1_454 S
H8 C2 0.931 . S
H9 C7 0.930 1_656 S
C10 O36 1.238 . S
C10 O37 1.253 . S
C11 C12 1.379 . S
C11 N16 1.337 . S
C11 H17 0.929 . S
C12 C11 1.379 . S
C12 C13 1.380 . S
C12 H48 0.929 . S
C13 C12 1.380 . S
C13 C14 1.399 . S
C14 C13 1.399 . S
C14 C15 1.376 . S
C14 H49 0.931 1_556 S
C15 C14 1.376 . S
C15 N16 1.338 . S
C15 H18 0.930 1_656 S
N16 Cd1 2.304 1_655 S
N16 C11 1.337 . S
N16 C15 1.338 . S
H17 C11 0.929 . S
H18 C15 0.930 1_454 S
C19 N20 1.332 . S
C19 C23 1.381 . S
C19 H25 0.931 . S
N20 Cd1 2.334 1_565 S
N20 C19 1.332 . S
N20 C24 1.328 . S
C21 C22 1.396 . S
C21 C24 1.378 . S
C21 H50 0.931 1_556 S
C22 C21 1.396 . S
C22 C23 1.382 . S
C23 C19 1.381 . S
C23 C22 1.382 . S
C23 H51 0.930 . S
C24 N20 1.328 . S
C24 C21 1.378 . S
C24 H26 0.930 1_566 S
H25 C19 0.931 . S
H26 C24 0.930 1_544 S
C27 O38 1.238 . S
C27 O39 1.253 . S
C28 O40 1.239 . S
C28 O41 1.230 . S
N29 Cd0 2.304 1_545 S
N29 C30 1.337 . S
N29 C34 1.338 . S
C30 N29 1.337 . S
C30 C31 1.379 . S
C30 H44 0.929 . S
C31 C30 1.379 . S
C31 C32 1.380 . S
C31 H52 0.929 . S
C32 C31 1.380 . S
C32 C33 1.399 . S
C33 C32 1.399 . S
C33 C34 1.376 . S
C33 H53 0.931 1_554 S
C34 N29 1.338 . S
C34 C33 1.376 . S
C34 H45 0.930 1_544 S
C35 O42 1.239 . S
C35 O43 1.230 . S
O36 Cd0 2.268 1_556 S
O36 C10 1.238 . S
O37 Cd1 2.273 1_665 S
O37 C10 1.253 . S
O38 Cd1 2.268 1_554 S
O38 C27 1.238 . S
O39 Cd0 2.273 1_445 S
O39 C27 1.253 . S
O40 Cd0 2.417 . S
O40 C28 1.239 . S
O41 Cd0 2.330 . S
O41 C28 1.230 . S
O42 Cd1 2.417 . S
O42 C35 1.239 . S
O43 Cd1 2.330 . S
O43 C35 1.230 . S
H44 C30 0.929 . S
H45 C34 0.930 1_566 S
H46 C4 0.931 1_556 S
H47 C6 0.930 . S
H48 C12 0.929 . S
H49 C14 0.931 1_554 S
H50 C21 0.931 1_554 S
H51 C23 0.930 . S
H52 C31 0.929 . S
H53 C33 0.931 1_556 S
Cd54 N57 2.334 . S
Cd54 N83 2.304 . S
Cd54 O90 2.268 . S
Cd54 O93 2.273 . S
Cd54 O94 2.417 . S
Cd54 O95 2.330 . S
Cd55 N70 2.304 . S
Cd55 N74 2.334 . S
Cd55 O91 2.273 . S
Cd55 O92 2.268 . S
Cd55 O96 2.417 . S
Cd55 O97 2.330 . S
C56 N57 1.332 . S
C56 C60 1.381 . S
C56 H62 0.931 . S
N57 Cd54 2.334 . S
N57 C56 1.332 . S
N57 C61 1.328 . S
C58 C59 1.396 . S
C58 C61 1.378 . S
C58 H100 0.931 . S
C59 C58 1.396 . S
C59 C60 1.382 . S
C60 C56 1.381 . S
C60 C59 1.382 . S
C60 H101 0.930 . S
C61 N57 1.328 . S
C61 C58 1.378 . S
C61 H63 0.930 . S
H62 C56 0.931 . S
H63 C61 0.930 . S
C64 O90 1.238 . S
C64 O91 1.253 . S
C65 C66 1.379 . S
C65 N70 1.337 . S
C65 H71 0.929 . S
C66 C65 1.379 . S
C66 C67 1.380 . S
C66 H102 0.929 . S
C67 C66 1.380 . S
C67 C68 1.399 . S
C68 C67 1.399 . S
C68 C69 1.376 . S
C68 H103 0.931 . S
C69 C68 1.376 . S
C69 N70 1.338 . S
C69 H72 0.930 . S
N70 Cd55 2.304 . S
N70 C65 1.337 . S
N70 C69 1.338 . S
H71 C65 0.929 . S
H72 C69 0.930 . S
C73 N74 1.332 . S
C73 C77 1.381 . S
C73 H79 0.931 . S
N74 Cd55 2.334 . S
N74 C73 1.332 . S
N74 C78 1.328 . S
C75 C76 1.396 . S
C75 C78 1.378 . S
C75 H104 0.931 . S
C76 C75 1.396 . S
C76 C77 1.382 . S
C77 C73 1.381 . S
C77 C76 1.382 . S
C77 H105 0.930 . S
C78 N74 1.328 . S
C78 C75 1.378 . S
C78 H80 0.930 . S
H79 C73 0.931 . S
H80 C78 0.930 . S
C81 O92 1.238 . S
C81 O93 1.253 . S
C82 O94 1.239 . S
C82 O95 1.230 . S
N83 Cd54 2.304 . S
N83 C84 1.337 . S
N83 C88 1.338 . S
C84 N83 1.337 . S
C84 C85 1.379 . S
C84 H98 0.929 . S
C85 C84 1.379 . S
C85 C86 1.380 . S
C85 H106 0.929 . S
C86 C85 1.380 . S
C86 C87 1.399 . S
C87 C86 1.399 . S
C87 C88 1.376 . S
C87 H107 0.931 . S
C88 N83 1.338 . S
C88 C87 1.376 . S
C88 H99 0.930 . S
C89 O96 1.239 . S
C89 O97 1.230 . S
O90 Cd54 2.268 . S
O90 C64 1.238 . S
O91 Cd55 2.273 . S
O91 C64 1.253 . S
O92 Cd55 2.268 . S
O92 C81 1.238 . S
O93 Cd54 2.273 . S
O93 C81 1.253 . S
O94 Cd54 2.417 . S
O94 C82 1.239 . S
O95 Cd54 2.330 . S
O95 C82 1.230 . S
O96 Cd55 2.417 . S
O96 C89 1.239 . S
O97 Cd55 2.330 . S
O97 C89 1.230 . S
H98 C84 0.929 . S
H99 C88 0.930 . S
H100 C58 0.931 . S
H101 C60 0.930 . S
H102 C66 0.929 . S
H103 C68 0.931 . S
H104 C75 0.931 . S
H105 C77 0.930 . S
H106 C85 0.929 . S
H107 C87 0.931 . S
H108 C114 0.930 . S
H109 C118 0.930 . S
H110 C123 0.929 . S
H111 C121 0.929 . S
H112 C116 0.929 . S
H113 C122 0.929 . S
C114 H108 0.930 . S
C114 C115 1.367 . S
C114 C122 1.378 . S
C115 C114 1.367 . S
C115 C123 1.433 . S
C116 H112 0.929 . S
C116 C118 1.378 . S
C116 C120 1.350 . S
C117 C120 1.463 . S
C117 C122 1.350 . S
C117 N125 1.427 . S
C118 H109 0.930 . S
C118 C116 1.378 . S
C118 C119 1.367 . S
C119 C118 1.367 . S
C119 C121 1.433 . S
C120 C116 1.350 . S
C120 C117 1.463 . S
C120 N124 1.427 . S
C121 H111 0.929 . S
C121 C119 1.433 . S
C121 N124 1.384 . S
C122 H113 0.929 . S
C122 C114 1.378 . S
C122 C117 1.350 . S
C123 H110 0.929 . S
C123 C115 1.433 . S
C123 N125 1.384 . S
N124 C120 1.427 . S
N124 C121 1.384 . S
N125 C117 1.427 . S
N125 C123 1.384 . S
H126 C132 0.930 . S
H127 C136 0.930 . S
H128 C141 0.929 . S
H129 C139 0.929 . S
H130 C134 0.929 . S
H131 C140 0.929 . S
C132 H126 0.930 . S
C132 C133 1.367 . S
C132 C140 1.378 . S
C133 C132 1.367 . S
C133 C141 1.433 . S
C134 H130 0.929 . S
C134 C136 1.378 . S
C134 C138 1.350 . S
C135 C138 1.463 . S
C135 C140 1.350 . S
C135 N143 1.427 . S
C136 H127 0.930 . S
C136 C134 1.378 . S
C136 C137 1.367 . S
C137 C136 1.367 . S
C137 C139 1.433 . S
C138 C134 1.350 . S
C138 C135 1.463 . S
C138 N142 1.427 . S
C139 H129 0.929 . S
C139 C137 1.433 . S
C139 N142 1.384 . S
C140 H131 0.929 . S
C140 C132 1.378 . S
C140 C135 1.350 . S
C141 H128 0.929 . S
C141 C133 1.433 . S
C141 N143 1.384 . S
N142 C138 1.427 . S
N142 C139 1.384 . S
N143 C135 1.427 . S
N143 C141 1.384 . S
H144 C150 0.930 . S
H145 C154 0.930 . S
H146 C159 0.929 . S
H147 C157 0.929 . S
H148 C152 0.929 . S
H149 C158 0.929 . S
C150 H144 0.930 . S
C150 C151 1.367 . S
C150 C158 1.378 . S
C151 C150 1.367 . S
C151 C159 1.433 . S
C152 H148 0.929 . S
C152 C154 1.378 . S
C152 C156 1.350 . S
C153 C156 1.463 . S
C153 C158 1.350 . S
C153 N161 1.427 . S
C154 H145 0.930 . S
C154 C152 1.378 . S
C154 C155 1.367 . S
C155 C154 1.367 . S
C155 C157 1.433 . S
C156 C152 1.350 . S
C156 C153 1.463 . S
C156 N160 1.427 . S
C157 H147 0.929 . S
C157 C155 1.433 . S
C157 N160 1.384 . S
C158 H149 0.929 . S
C158 C150 1.378 . S
C158 C153 1.350 . S
C159 H146 0.929 . S
C159 C151 1.433 . S
C159 N161 1.384 . S
N160 C156 1.427 . S
N160 C157 1.384 . S
N161 C153 1.427 . S
N161 C159 1.384 . S
H162 C168 0.930 . S
H163 C172 0.930 . S
H164 C177 0.929 . S
H165 C175 0.929 . S
H166 C170 0.929 . S
H167 C176 0.929 . S
C168 H162 0.930 . S
C168 C169 1.367 . S
C168 C176 1.378 . S
C169 C168 1.367 . S
C169 C177 1.433 . S
C170 H166 0.929 . S
C170 C172 1.378 . S
C170 C174 1.350 . S
C171 C174 1.463 . S
C171 C176 1.350 . S
C171 N179 1.427 . S
C172 H163 0.930 . S
C172 C170 1.378 . S
C172 C173 1.367 . S
C173 C172 1.367 . S
C173 C175 1.433 . S
C174 C170 1.350 . S
C174 C171 1.463 . S
C174 N178 1.427 . S
C175 H165 0.929 . S
C175 C173 1.433 . S
C175 N178 1.384 . S
C176 H167 0.929 . S
C176 C168 1.378 . S
C176 C171 1.350 . S
C177 H164 0.929 . S
C177 C169 1.433 . S
C177 N179 1.384 . S
N178 C174 1.427 . S
N178 C175 1.384 . S
N179 C171 1.427 . S
N179 C177 1.384 . S
H180 C186 0.930 . S
H181 C190 0.930 . S
H182 C195 0.929 . S
H183 C193 0.929 . S
H184 C188 0.929 . S
H185 C194 0.929 . S
C186 H180 0.930 . S
C186 C187 1.367 . S
C186 C194 1.378 . S
C187 C186 1.367 . S
C187 C195 1.433 . S
C188 H184 0.929 . S
C188 C190 1.378 . S
C188 C192 1.350 . S
C189 C192 1.463 . S
C189 C194 1.350 . S
C189 N197 1.427 . S
C190 H181 0.930 . S
C190 C188 1.378 . S
C190 C191 1.367 . S
C191 C190 1.367 . S
C191 C193 1.433 . S
C192 C188 1.350 . S
C192 C189 1.463 . S
C192 N196 1.427 . S
C193 H183 0.929 . S
C193 C191 1.433 . S
C193 N196 1.384 . S
C194 H185 0.929 . S
C194 C186 1.378 . S
C194 C189 1.350 . S
C195 H182 0.929 . S
C195 C187 1.433 . S
C195 N197 1.384 . S
N196 C192 1.427 . S
N196 C193 1.384 . S
N197 C189 1.427 . S
N197 C195 1.384 . S
H198 C204 0.930 . S
H199 C208 0.930 . S
H200 C213 0.929 . S
H201 C211 0.929 . S
H202 C206 0.929 . S
H203 C212 0.929 . S
C204 H198 0.930 . S
C204 C205 1.367 . S
C204 C212 1.378 . S
C205 C204 1.367 . S
C205 C213 1.433 . S
C206 H202 0.929 . S
C206 C208 1.378 . S
C206 C210 1.350 . S
C207 C210 1.463 . S
C207 C212 1.350 . S
C207 N215 1.427 . S
C208 H199 0.930 . S
C208 C206 1.378 . S
C208 C209 1.367 . S
C209 C208 1.367 . S
C209 C211 1.433 . S
C210 C206 1.350 . S
C210 C207 1.463 . S
C210 N214 1.427 . S
C211 H201 0.929 . S
C211 C209 1.433 . S
C211 N214 1.384 . S
C212 H203 0.929 . S
C212 C204 1.378 . S
C212 C207 1.350 . S
C213 H200 0.929 . S
C213 C205 1.433 . S
C213 N215 1.384 . S
N214 C210 1.427 . S
N214 C211 1.384 . S
N215 C207 1.427 . S
N215 C213 1.384 . S
H216 C222 0.930 . S
H217 C226 0.930 . S
H218 C231 0.929 . S
H219 C229 0.929 . S
H220 C224 0.929 . S
H221 C230 0.929 . S
C222 H216 0.930 . S
C222 C223 1.367 . S
C222 C230 1.378 . S
C223 C222 1.367 . S
C223 C231 1.433 . S
C224 H220 0.929 . S
C224 C226 1.378 . S
C224 C228 1.350 . S
C225 C228 1.463 . S
C225 C230 1.350 . S
C225 N233 1.427 . S
C226 H217 0.930 . S
C226 C224 1.378 . S
C226 C227 1.367 . S
C227 C226 1.367 . S
C227 C229 1.433 . S
C228 C224 1.350 . S
C228 C225 1.463 . S
C228 N232 1.427 . S
C229 H219 0.929 . S
C229 C227 1.433 . S
C229 N232 1.384 . S
C230 H221 0.929 . S
C230 C222 1.378 . S
C230 C225 1.350 . S
C231 H218 0.929 . S
C231 C223 1.433 . S
C231 N233 1.384 . S
N232 C228 1.427 . S
N232 C229 1.384 . S
N233 C225 1.427 . S
N233 C231 1.384 . S
H234 C240 0.930 . S
H235 C244 0.930 . S
H236 C249 0.929 . S
H237 C247 0.929 . S
H238 C242 0.929 . S
H239 C248 0.929 . S
C240 H234 0.930 . S
C240 C241 1.367 . S
C240 C248 1.378 . S
C241 C240 1.367 . S
C241 C249 1.433 . S
C242 H238 0.929 . S
C242 C244 1.378 . S
C242 C246 1.350 . S
C243 C246 1.463 . S
C243 C248 1.350 . S
C243 N251 1.427 . S
C244 H235 0.930 . S
C244 C242 1.378 . S
C244 C245 1.367 . S
C245 C244 1.367 . S
C245 C247 1.433 . S
C246 C242 1.350 . S
C246 C243 1.463 . S
C246 N250 1.427 . S
C247 H237 0.929 . S
C247 C245 1.433 . S
C247 N250 1.384 . S
C248 H239 0.929 . S
C248 C240 1.378 . S
C248 C243 1.350 . S
C249 H236 0.929 . S
C249 C241 1.433 . S
C249 N251 1.384 . S
N250 C246 1.427 . S
N250 C247 1.384 . S
N251 C243 1.427 . S
N251 C249 1.384 . S
C115 C27 0.435 . S
C119 C64 0.433 . S
C133 C32 1.985 . S
C137 C76 1.981 . S
C151 C28 1.275 . S
C155 C89 1.276 . S
C169 C5 1.973 . S
C173 C67 1.976 . S
C187 C22 1.972 . S
C191 C86 1.976 . S
C205 C82 1.276 . S
C209 C35 1.275 . S
C223 C13 1.983 . S
C227 C59 1.980 . S
C241 C81 0.437 . S
C245 C10 0.440 . S
