# Generated by pormake.
# Topology msw, (6)-cn, num edge types: 1
# Building blocks:
#     Node 0, Type 0, BuildingBlock: VOLQOD_clean_sbu_1, # of connection points: 6
#     Node 1, Type 0, BuildingBlock: VOLQOD_clean_sbu_1, # of connection points: 6
#     Edge 2, Type (0, 0), BuildingBlock: FUNLAD_clean_linker_1, # of connection points: 2
#     Edge 3, Type (0, 0), BuildingBlock: FUNLAD_clean_linker_1, # of connection points: 2
#     Edge 4, Type (0, 0), BuildingBlock: FUNLAD_clean_linker_1, # of connection points: 2
#     Edge 5, Type (0, 0), BuildingBlock: FUNLAD_clean_linker_1, # of connection points: 2
#     Edge 6, Type (0, 0), BuildingBlock: FUNLAD_clean_linker_1, # of connection points: 2
#     Edge 7, Type (0, 0), BuildingBlock: FUNLAD_clean_linker_1, # of connection points: 2
# Relax obj value: 0.243
# Max RMSD: 0.191
# Mean RMSD: 0.191
data_MOF--net-msw--node1-VOLQOD_clean_sbu_1--edge1-FUNLAD_clean_linker_1
_symmetry_space_group_name_H-M    P1
_symmetry_Int_Tables_number       1
_symmetry_cell_setting            triclinic
loop_
_symmetry_equiv_pos_as_xyz
'x, y, z'
_cell_length_a     19.785398
_cell_length_b     21.80516
_cell_length_c     17.02061
_cell_angle_alpha  88.911465
_cell_angle_beta   89.458551
_cell_angle_gamma 90.192501
loop_
_atom_site_label
_atom_site_type_symbol
_atom_site_fract_x
_atom_site_fract_y
_atom_site_fract_z
_atom_type_partial_charge
O0 O 0.89061 0.2479 0.34939 0.0
Zn1 Zn 0.92448 0.26079 0.23816 0.0
O2 O 0.85141 0.29783 0.18165 0.0
Zn3 Zn 0.81727 0.24505 0.10344 0.0
Zn4 Zn 0.7776 0.31909 0.24646 0.0
Zn5 Zn 0.88384 0.37191 0.13518 0.0
O6 O 0.81992 0.29271 0.00138 0.0
O7 O 0.91034 0.35117 0.02591 0.0
O8 O 0.96145 0.18578 0.17923 0.0
O9 O 0.88559 0.18045 0.08405 0.0
O10 O 0.72881 0.20123 0.13891 0.0
O11 O 0.71372 0.24936 0.25142 0.0
O12 O 0.7282 0.39442 0.20225 0.0
O13 O 0.99962 0.32212 0.2542 0.0
O14 O 0.80789 0.4307 0.12131 0.0
O15 O 0.95832 0.40811 0.20166 0.0
C16 C 0.85245 0.28421 0.38797 0.0
C17 C 0.87135 0.32427 -0.0219 0.0
C18 C 0.6984 0.2067 0.20501 0.0
C19 C 0.93976 0.16187 0.11612 0.0
C20 C 0.74839 0.43319 0.14993 0.0
C21 C 1.00192 0.38004 0.24367 0.0
O22 O 0.81258 0.32245 0.35486 0.0
O23 O 0.4008 0.74669 0.52877 0.0
Zn24 Zn 0.37612 0.72167 0.63797 0.0
O25 O 0.3421 0.79348 0.68448 0.0
Zn26 Zn 0.41426 0.83042 0.74075 0.0
Zn27 Zn 0.30849 0.84866 0.60669 0.0
Zn28 Zn 0.26775 0.7689 0.74833 0.0
O29 O 0.37845 0.84158 0.8503 0.0
O30 O 0.30249 0.76458 0.85717 0.0
O31 O 0.45222 0.68509 0.7031 0.0
O32 O 0.4894 0.7699 0.75911 0.0
O33 O 0.45248 0.90605 0.68055 0.0
O34 O 0.37786 0.91259 0.5841 0.0
O35 O 0.22261 0.89307 0.6449 0.0
O36 O 0.30179 0.66123 0.62428 0.0
O37 O 0.20201 0.83706 0.75261 0.0
O38 O 0.2206 0.69315 0.70423 0.0
C39 C 0.36006 0.7733 0.48162 0.0
C40 C 0.34093 0.80377 0.88951 0.0
C41 C 0.43196 0.93051 0.61622 0.0
C42 C 0.49423 0.71275 0.74663 0.0
C43 C 0.18931 0.88324 0.70865 0.0
C44 C 0.24219 0.6563 0.65231 0.0
O45 O 0.30822 0.80292 0.50567 0.0
H46 H 0.93236 0.35469 0.87586 0.0
C47 C 0.88913 0.32693 0.89454 0.0
H48 H 0.81501 0.26301 0.86045 0.0
H49 H 0.90812 0.39249 0.52034 0.0
H50 H 0.86793 0.48885 0.57235 0.0
H51 H 0.82907 0.49513 0.71024 0.0
H52 H 0.83253 0.40606 0.79704 0.0
C53 C 0.85602 0.29351 0.84213 0.0
C54 C 0.87954 0.29121 0.75975 0.0
C55 C 0.87479 0.34373 0.7098 0.0
C56 C 0.89345 0.33938 0.62962 0.0
C57 C 0.89169 0.39289 0.58113 0.0
C58 C 0.86916 0.44849 0.61034 0.0
C59 C 0.84759 0.45208 0.68798 0.0
C60 C 0.85017 0.40048 0.73737 0.0
H61 H 0.80991 0.29968 0.50465 0.0
C62 C 0.85469 0.28399 0.47345 0.0
H63 H 0.9575 0.25851 0.48285 0.0
H64 H 0.9059 0.18548 0.84371 0.0
H65 H 0.94954 0.09045 0.79138 0.0
H66 H 0.97634 0.08182 0.65025 0.0
H67 H 0.96003 0.16842 0.56047 0.0
C68 C 0.91173 0.27296 0.51296 0.0
C69 C 0.9122 0.28176 0.59893 0.0
C70 C 0.92242 0.23084 0.64997 0.0
C71 C 0.90615 0.23561 0.73092 0.0
C72 C 0.91657 0.18408 0.78131 0.0
C73 C 0.94179 0.12934 0.75214 0.0
C74 C 0.95687 0.12449 0.67262 0.0
C75 C 0.94714 0.17445 0.62173 0.0
H76 H 0.42086 0.74727 0.37913 0.0
C77 C 0.37608 0.7721 0.39783 0.0
H78 H 0.29599 0.83004 0.36262 0.0
H79 H 0.43675 0.92843 0.05408 0.0
H80 H 0.44362 1.01817 0.13614 0.0
H81 H 0.41299 1.01144 0.27692 0.0
H82 H 0.37536 0.91509 0.33643 0.0
C83 C 0.33909 0.80261 0.34484 0.0
C84 C 0.36082 0.80538 0.26183 0.0
C85 C 0.38324 0.86206 0.22863 0.0
C86 C 0.40133 0.86587 0.14792 0.0
C87 C 0.42248 0.92308 0.11533 0.0
C88 C 0.42674 0.97489 0.16177 0.0
C89 C 0.40944 0.97113 0.24101 0.0
C90 C 0.38781 0.91553 0.27438 0.0
H91 H 0.29802 0.7854 0.00621 0.0
C92 C 0.34203 0.80387 -0.02505 0.0
H93 H 0.44212 0.83737 -0.01533 0.0
H94 H 0.32089 0.68877 0.30797 0.0
H95 H 0.32572 0.59767 0.22917 0.0
H96 H 0.3673 0.60316 0.09196 0.0
H97 H 0.40191 0.70056 0.03256 0.0
C98 C 0.39724 0.81974 0.01481 0.0
C99 C 0.3965 0.81306 0.10136 0.0
C100 C 0.381 0.75517 0.13656 0.0
C101 C 0.36081 0.75155 0.21644 0.0
C102 C 0.33957 0.69402 0.24838 0.0
C103 C 0.34174 0.64124 0.2036 0.0
C104 C 0.36482 0.64436 0.12634 0.0
C105 C 0.3841 0.70056 0.09285 0.0
H106 H 0.58962 0.7027 0.81148 0.0
C107 C 0.54508 0.67811 0.79207 0.0
H108 H 0.48675 0.59725 0.80514 0.0
H109 H 0.72142 0.42963 -0.06215 0.0
H110 H 0.70534 0.38617 0.80935 0.0
H111 H 0.63187 0.43688 0.7118 0.0
H112 H 0.57273 0.53078 0.74278 0.0
C113 C 0.53204 0.6218 0.82217 0.0
C114 C 0.57724 0.59206 0.88144 0.0
C115 C 0.61177 0.5374 0.86236 0.0
C116 C 0.65534 0.50891 0.9181 0.0
C117 C 0.68861 0.45392 0.89747 0.0
C118 C 0.67979 0.42834 0.82389 0.0
C119 C 0.63822 0.45678 0.76906 0.0
C120 C 0.60448 0.51063 0.78771 0.0
H121 H 0.64681 0.47391 0.13229 0.0
C122 C 0.69915 0.47541 0.11238 0.0
H123 H 0.7677 0.50718 0.02474 0.0
H124 H 0.51151 0.69163 -0.05772 0.0
H125 H 0.52994 0.73638 0.0695 0.0
H126 H 0.60994 0.68986 0.16315 0.0
H127 H 0.67257 0.59833 0.12987 0.0
C128 C 0.716 0.50802 0.04685 0.0
C129 C 0.6648 0.53527 -0.0071 0.0
C130 C 0.62937 0.58927 0.0127 0.0
C131 C 0.58468 0.61717 -0.04252 0.0
C132 C 0.5481 0.66979 -0.01974 0.0
C133 C 0.55762 0.69566 0.05358 0.0
C134 C 0.60266 0.66945 0.10636 0.0
C135 C 0.6382 0.61683 0.08654 0.0
H136 H 1.09711 0.39125 0.30858 0.0
C137 C 1.0513 0.41463 0.29017 0.0
H138 H 0.98899 0.4919 0.30587 0.0
H139 H 0.17428 0.48836 0.63061 0.0
H140 H 0.11823 0.39169 0.66189 0.0
H141 H 1.04237 0.34372 0.56677 0.0
H142 H 1.02128 0.39208 0.44016 0.0
C143 C 1.03558 0.46882 0.32204 0.0
C144 C 1.07945 0.49836 0.38169 0.0
C145 C 1.08867 0.47062 0.45721 0.0
C146 C 0.13116 0.49909 0.51319 0.0
C147 C 0.14158 0.46931 0.58667 0.0
C148 C 0.1098 0.41378 0.60535 0.0
C149 C 1.06705 0.38676 0.55175 0.0
C150 C 1.05599 0.4148 0.47879 0.0
H151 H 0.14209 0.61253 0.63412 0.0
C152 C 0.19448 0.61358 0.6144 0.0
H153 H 0.26436 0.58718 0.52682 0.0
H154 H 1.07083 0.56498 0.2443 0.0
H155 H 0.12339 0.66362 0.21543 0.0
H156 H 0.19329 0.71469 0.31414 0.0
H157 H 0.21231 0.66697 0.44174 0.0
C158 C 0.2127 0.58368 0.54879 0.0
C159 C 0.16286 0.55595 0.49456 0.0
C160 C 0.15167 0.58469 0.42027 0.0
C161 C 0.11015 0.55584 0.36386 0.0
C162 C 0.10107 0.58521 0.28975 0.0
C163 C 0.13105 0.6418 0.2723 0.0
C164 C 0.17058 0.67046 0.32778 0.0
C165 C 0.18117 0.64243 0.40082 0.0
H166 H 0.13078 0.97037 0.70252 0.0
C167 C 0.14135 0.92988 0.73844 0.0
H168 H 0.12756 0.88509 0.84886 0.0
H169 H 1.08043 0.15976 -0.01695 0.0
H170 H 0.19681 0.17964 -0.05504 0.0
H171 H 0.26084 0.10512 0.86675 0.0
H172 H 0.20835 1.01102 0.82447 0.0
C173 C 0.11735 0.92571 0.81302 0.0
C174 C 1.07745 0.97448 0.85242 0.0
C175 C 0.10965 1.02851 0.87888 0.0
C176 C 1.0736 0.0703 -0.07284 0.0
C177 C 0.10599 0.1253 -0.05089 0.0
C178 C 0.17277 0.1375 -0.07277 0.0
C179 C 0.20876 0.09562 0.88301 0.0
C180 C 0.17788 1.04173 0.85897 0.0
H181 H 1.02402 0.09509 0.10338 0.0
C182 C 0.9805 0.11528 0.07444 0.0
H183 H 0.9229 0.1213 -0.02946 0.0
H184 H 0.99961 0.8778 0.80789 0.0
H185 H 0.88333 0.85712 0.84704 0.0
H186 H 0.82233 0.92704 -0.06506 0.0
H187 H 0.87704 1.01799 -0.01574 0.0
C188 C 0.96657 0.10113 -0.00078 0.0
C189 C 1.0063 0.05675 -0.04829 0.0
C190 C 0.97386 1.00329 0.92398 0.0
C191 C 1.00931 0.96244 0.87413 0.0
C192 C 0.97532 0.90981 0.84684 0.0
C193 C 0.90853 0.89753 0.86858 0.0
C194 C 0.87415 0.93696 0.91794 0.0
C195 C 0.90615 0.98918 -0.0544 0.0
H196 H 0.51877 0.99501 0.60151 0.0
C197 C 0.47433 0.97654 0.57319 0.0
H198 H 0.41891 0.97098 0.46771 0.0
H199 H 0.58312 0.22887 0.3881 0.0
H200 H 0.51582 0.27234 0.49265 0.0
H201 H 0.44276 0.2066 0.57717 0.0
H202 H 0.43678 0.09695 0.55774 0.0
C203 C 0.46134 0.99181 0.49744 0.0
C204 C 0.50677 1.03171 0.44805 0.0
C205 C 0.50985 0.0957 0.46024 0.0
C206 C 0.55208 0.13354 0.41138 0.0
C207 C 0.55315 0.1976 0.42431 0.0
C208 C 0.51433 0.22332 0.4838 0.0
C209 C 0.47318 0.18633 0.53135 0.0
C210 C 0.47051 0.12332 0.51977 0.0
H211 H 0.61519 0.13824 0.19185 0.0
C212 C 0.64817 0.16054 0.23329 0.0
H213 H 0.67926 0.16925 0.35047 0.0
H214 H 0.5075 0.91164 0.40414 0.0
H215 H 0.57201 0.86817 0.29722 0.0
H216 H 0.64895 0.93272 0.21599 0.0
H217 H 0.66096 1.04113 0.24024 0.0
C218 C 0.64457 0.14666 0.311 0.0
C219 C 0.59172 0.10747 0.35047 0.0
C220 C 0.58681 1.04359 0.33654 0.0
C221 C 0.54357 1.00595 0.38475 0.0
C222 C 0.53938 0.94239 0.36946 0.0
C223 C 0.57638 0.91672 0.30845 0.0
C224 C 0.61955 0.95311 0.26261 0.0
C225 C 0.62551 1.01561 0.2768 0.0
loop_
_geom_bond_atom_site_label_1
_geom_bond_atom_site_label_2
_geom_bond_distance
_geom_bond_site_symmetry_2
_ccdc_geom_bond_type
O0 Zn1 1.953 . S
O0 C16 1.225 . S
Zn1 O0 1.953 . S
Zn1 O2 1.949 . S
Zn1 O8 1.919 . S
Zn1 O13 1.924 . S
O2 Zn1 1.949 . S
O2 Zn3 1.923 . S
O2 Zn4 1.950 . S
O2 Zn5 1.945 . S
Zn3 O2 1.923 . S
Zn3 O6 1.933 . S
Zn3 O9 1.941 . S
Zn3 O10 1.965 . S
Zn4 O2 1.950 . S
Zn4 O11 1.938 . S
Zn4 O12 1.906 . S
Zn4 O22 1.953 . S
Zn5 O2 1.945 . S
Zn5 O7 1.932 . S
Zn5 O14 1.977 . S
Zn5 O15 1.910 . S
O6 Zn3 1.933 . S
O6 C17 1.223 1_554 S
O7 Zn5 1.932 . S
O7 C17 1.303 1_554 S
O8 Zn1 1.919 . S
O8 C19 1.253 . S
O9 Zn3 1.941 . S
O9 C19 1.283 . S
O10 Zn3 1.965 . S
O10 C18 1.303 . S
O11 Zn4 1.938 . S
O11 C18 1.247 . S
O12 Zn4 1.906 . S
O12 C20 1.304 . S
O13 Zn1 1.924 . S
O13 C21 1.311 . S
O14 Zn5 1.977 . S
O14 C20 1.272 . S
O15 Zn5 1.910 . S
O15 C21 1.231 . S
C16 O0 1.225 . S
C16 O22 1.298 . S
C17 O6 1.223 1_556 S
C17 O7 1.303 1_556 S
C18 O10 1.303 . S
C18 O11 1.247 . S
C19 O8 1.253 . S
C19 O9 1.283 . S
C20 O12 1.304 . S
C20 O14 1.272 . S
C21 O13 1.311 . S
C21 O15 1.231 . S
O22 Zn4 1.953 . S
O22 C16 1.298 . S
O23 Zn24 1.953 . S
O23 C39 1.225 . S
Zn24 O23 1.953 . S
Zn24 O25 1.949 . S
Zn24 O31 1.919 . S
Zn24 O36 1.924 . S
O25 Zn24 1.949 . S
O25 Zn26 1.923 . S
O25 Zn27 1.950 . S
O25 Zn28 1.945 . S
Zn26 O25 1.923 . S
Zn26 O29 1.933 . S
Zn26 O32 1.941 . S
Zn26 O33 1.965 . S
Zn27 O25 1.950 . S
Zn27 O34 1.938 . S
Zn27 O35 1.906 . S
Zn27 O45 1.953 . S
Zn28 O25 1.945 . S
Zn28 O30 1.932 . S
Zn28 O37 1.977 . S
Zn28 O38 1.910 . S
O29 Zn26 1.933 . S
O29 C40 1.223 1_556 S
O30 Zn28 1.932 . S
O30 C40 1.303 1_556 S
O31 Zn24 1.919 . S
O31 C42 1.253 . S
O32 Zn26 1.941 . S
O32 C42 1.283 . S
O33 Zn26 1.965 . S
O33 C41 1.303 . S
O34 Zn27 1.938 . S
O34 C41 1.247 . S
O35 Zn27 1.906 . S
O35 C43 1.304 . S
O36 Zn24 1.924 . S
O36 C44 1.311 . S
O37 Zn28 1.977 . S
O37 C43 1.272 . S
O38 Zn28 1.910 . S
O38 C44 1.231 . S
C39 O23 1.225 . S
C39 O45 1.298 . S
C40 O29 1.223 1_554 S
C40 O30 1.303 1_554 S
C41 O33 1.303 . S
C41 O34 1.247 . S
C42 O31 1.253 . S
C42 O32 1.283 . S
C43 O35 1.304 . S
C43 O37 1.272 . S
C44 O36 1.311 . S
C44 O38 1.231 . S
O45 Zn27 1.953 . S
O45 C39 1.298 . S
H46 C47 0.951 1_556 S
C47 H46 0.951 1_554 S
C47 C53 1.265 1_554 S
H48 C53 0.950 . S
H49 C57 0.949 . S
H50 C58 0.950 . S
H51 C59 0.951 . S
H52 C60 0.951 . S
C53 C47 1.265 1_556 S
C53 H48 0.950 . S
C53 C54 1.478 . S
C54 C53 1.478 . S
C54 C55 1.397 . S
C54 C71 1.394 . S
C55 C54 1.397 . S
C55 C56 1.438 . S
C55 C60 1.429 . S
C56 C55 1.438 . S
C56 C57 1.428 . S
C56 C69 1.394 . S
C57 H49 0.949 . S
C57 C56 1.428 . S
C57 C58 1.345 . S
C58 H50 0.950 . S
C58 C57 1.345 . S
C58 C59 1.424 . S
C59 H51 0.951 . S
C59 C58 1.424 . S
C59 C60 1.347 . S
C60 H52 0.951 . S
C60 C55 1.429 . S
C60 C59 1.347 . S
H61 C62 0.951 . S
C62 H61 0.951 . S
C62 C68 1.265 . S
H63 C68 0.950 . S
H64 C72 0.949 . S
H65 C73 0.950 . S
H66 C74 0.951 . S
H67 C75 0.951 . S
C68 C62 1.265 . S
C68 H63 0.950 . S
C68 C69 1.478 . S
C69 C56 1.394 . S
C69 C68 1.478 . S
C69 C70 1.397 . S
C70 C69 1.397 . S
C70 C71 1.438 . S
C70 C75 1.429 . S
C71 C54 1.394 . S
C71 C70 1.438 . S
C71 C72 1.428 . S
C72 H64 0.949 . S
C72 C71 1.428 . S
C72 C73 1.345 . S
C73 H65 0.950 . S
C73 C72 1.345 . S
C73 C74 1.424 . S
C74 H66 0.951 . S
C74 C73 1.424 . S
C74 C75 1.347 . S
C75 H67 0.951 . S
C75 C70 1.429 . S
C75 C74 1.347 . S
H76 C77 0.951 . S
C77 H76 0.951 . S
C77 C83 1.265 . S
H78 C83 0.950 . S
H79 C87 0.949 . S
H80 C88 0.950 . S
H81 C89 0.951 . S
H82 C90 0.951 . S
C83 C77 1.265 . S
C83 H78 0.950 . S
C83 C84 1.478 . S
C84 C83 1.478 . S
C84 C85 1.397 . S
C84 C101 1.394 . S
C85 C84 1.397 . S
C85 C86 1.438 . S
C85 C90 1.429 . S
C86 C85 1.438 . S
C86 C87 1.428 . S
C86 C99 1.394 . S
C87 H79 0.949 . S
C87 C86 1.428 . S
C87 C88 1.345 . S
C88 H80 0.950 . S
C88 C87 1.345 . S
C88 C89 1.424 . S
C89 H81 0.951 . S
C89 C88 1.424 . S
C89 C90 1.347 . S
C90 H82 0.951 . S
C90 C85 1.429 . S
C90 C89 1.347 . S
H91 C92 0.951 1_554 S
C92 H91 0.951 1_556 S
C92 C98 1.265 1_556 S
H93 C98 0.950 . S
H94 C102 0.949 . S
H95 C103 0.950 . S
H96 C104 0.951 . S
H97 C105 0.951 . S
C98 C92 1.265 1_554 S
C98 H93 0.950 . S
C98 C99 1.478 . S
C99 C86 1.394 . S
C99 C98 1.478 . S
C99 C100 1.397 . S
C100 C99 1.397 . S
C100 C101 1.438 . S
C100 C105 1.429 . S
C101 C84 1.394 . S
C101 C100 1.438 . S
C101 C102 1.428 . S
C102 H94 0.949 . S
C102 C101 1.428 . S
C102 C103 1.345 . S
C103 H95 0.950 . S
C103 C102 1.345 . S
C103 C104 1.424 . S
C104 H96 0.951 . S
C104 C103 1.424 . S
C104 C105 1.347 . S
C105 H97 0.951 . S
C105 C100 1.429 . S
C105 C104 1.347 . S
H106 C107 0.951 . S
C107 H106 0.951 . S
C107 C113 1.265 . S
H108 C113 0.950 . S
H109 C117 0.949 . S
H110 C118 0.950 . S
H111 C119 0.951 . S
H112 C120 0.951 . S
C113 C107 1.265 . S
C113 H108 0.950 . S
C113 C114 1.478 . S
C114 C113 1.478 . S
C114 C115 1.397 . S
C114 C131 1.394 1_556 S
C115 C114 1.397 . S
C115 C116 1.438 . S
C115 C120 1.429 . S
C116 C115 1.438 . S
C116 C117 1.428 . S
C116 C129 1.394 1_556 S
C117 H109 0.949 . S
C117 C116 1.428 . S
C117 C118 1.345 . S
C118 H110 0.950 . S
C118 C117 1.345 . S
C118 C119 1.424 . S
C119 H111 0.951 . S
C119 C118 1.424 . S
C119 C120 1.347 . S
C120 H112 0.951 . S
C120 C115 1.429 . S
C120 C119 1.347 . S
H121 C122 0.951 . S
C122 H121 0.951 . S
C122 C128 1.265 . S
H123 C128 0.950 . S
H124 C132 0.949 . S
H125 C133 0.950 . S
H126 C134 0.951 . S
H127 C135 0.951 . S
C128 C122 1.265 . S
C128 H123 0.950 . S
C128 C129 1.478 . S
C129 C116 1.394 1_554 S
C129 C128 1.478 . S
C129 C130 1.397 . S
C130 C129 1.397 . S
C130 C131 1.438 . S
C130 C135 1.429 . S
C131 C114 1.394 1_554 S
C131 C130 1.438 . S
C131 C132 1.428 . S
C132 H124 0.949 . S
C132 C131 1.428 . S
C132 C133 1.345 . S
C133 H125 0.950 . S
C133 C132 1.345 . S
C133 C134 1.424 . S
C134 H126 0.951 . S
C134 C133 1.424 . S
C134 C135 1.347 . S
C135 H127 0.951 . S
C135 C130 1.429 . S
C135 C134 1.347 . S
H136 C137 0.951 . S
C137 H136 0.951 . S
C137 C143 1.265 . S
H138 C143 0.950 . S
H139 C147 0.949 . S
H140 C148 0.950 . S
H141 C149 0.951 . S
H142 C150 0.951 . S
C143 C137 1.265 . S
C143 H138 0.950 . S
C143 C144 1.478 . S
C144 C143 1.478 . S
C144 C145 1.397 . S
C144 C161 1.394 . S
C145 C144 1.397 . S
C145 C146 1.438 1_655 S
C145 C150 1.429 . S
C146 C145 1.438 1_455 S
C146 C147 1.428 . S
C146 C159 1.394 . S
C147 H139 0.949 . S
C147 C146 1.428 . S
C147 C148 1.345 . S
C148 H140 0.950 . S
C148 C147 1.345 . S
C148 C149 1.424 1_455 S
C149 H141 0.951 . S
C149 C148 1.424 1_655 S
C149 C150 1.347 . S
C150 H142 0.951 . S
C150 C145 1.429 . S
C150 C149 1.347 . S
H151 C152 0.951 . S
C152 H151 0.951 . S
C152 C158 1.265 . S
H153 C158 0.950 . S
H154 C162 0.949 . S
H155 C163 0.950 . S
H156 C164 0.951 . S
H157 C165 0.951 . S
C158 C152 1.265 . S
C158 H153 0.950 . S
C158 C159 1.478 . S
C159 C146 1.394 . S
C159 C158 1.478 . S
C159 C160 1.397 . S
C160 C159 1.397 . S
C160 C161 1.438 1_455 S
C160 C165 1.429 . S
C161 C144 1.394 . S
C161 C160 1.438 1_655 S
C161 C162 1.428 . S
C162 H154 0.949 . S
C162 C161 1.428 . S
C162 C163 1.345 . S
C163 H155 0.950 . S
C163 C162 1.345 . S
C163 C164 1.424 1_655 S
C164 H156 0.951 . S
C164 C163 1.424 1_455 S
C164 C165 1.347 . S
C165 H157 0.951 . S
C165 C160 1.429 . S
C165 C164 1.347 . S
H166 C167 0.951 . S
C167 H166 0.951 . S
C167 C173 1.265 . S
H168 C173 0.950 . S
H169 C177 0.949 . S
H170 C178 0.950 . S
H171 C179 0.951 . S
H172 C180 0.951 1_565 S
C173 C167 1.265 . S
C173 H168 0.950 . S
C173 C174 1.478 . S
C174 C173 1.478 . S
C174 C175 1.397 1_566 S
C174 C191 1.394 1_455 S
C175 C174 1.397 1_544 S
C175 C176 1.438 . S
C175 C180 1.429 . S
C176 C175 1.438 . S
C176 C177 1.428 . S
C176 C189 1.394 1_455 S
C177 H169 0.949 . S
C177 C176 1.428 . S
C177 C178 1.345 . S
C178 H170 0.950 . S
C178 C177 1.345 . S
C178 C179 1.424 . S
C179 H171 0.951 . S
C179 C178 1.424 . S
C179 C180 1.347 . S
C180 H172 0.951 1_545 S
C180 C175 1.429 . S
C180 C179 1.347 . S
H181 C182 0.951 . S
C182 H181 0.951 . S
C182 C188 1.265 . S
H183 C188 0.950 . S
H184 C192 0.949 . S
H185 C193 0.950 . S
H186 C194 0.951 . S
H187 C195 0.951 1_545 S
C188 C182 1.265 . S
C188 H183 0.950 . S
C188 C189 1.478 . S
C189 C176 1.394 1_655 S
C189 C188 1.478 . S
C189 C190 1.397 1_544 S
C190 C189 1.397 1_566 S
C190 C191 1.438 . S
C190 C195 1.429 . S
C191 C174 1.394 1_655 S
C191 C190 1.438 . S
C191 C192 1.428 . S
C192 H184 0.949 . S
C192 C191 1.428 . S
C192 C193 1.345 . S
C193 H185 0.950 . S
C193 C192 1.345 . S
C193 C194 1.424 . S
C194 H186 0.951 . S
C194 C193 1.424 . S
C194 C195 1.347 . S
C195 H187 0.951 1_565 S
C195 C190 1.429 . S
C195 C194 1.347 . S
H196 C197 0.951 . S
C197 H196 0.951 . S
C197 C203 1.265 . S
H198 C203 0.950 . S
H199 C207 0.949 . S
H200 C208 0.950 . S
H201 C209 0.951 . S
H202 C210 0.951 . S
C203 C197 1.265 . S
C203 H198 0.950 . S
C203 C204 1.478 . S
C204 C203 1.478 . S
C204 C205 1.397 1_565 S
C204 C221 1.394 . S
C205 C204 1.397 1_545 S
C205 C206 1.438 . S
C205 C210 1.429 . S
C206 C205 1.438 . S
C206 C207 1.428 . S
C206 C219 1.394 . S
C207 H199 0.949 . S
C207 C206 1.428 . S
C207 C208 1.345 . S
C208 H200 0.950 . S
C208 C207 1.345 . S
C208 C209 1.424 . S
C209 H201 0.951 . S
C209 C208 1.424 . S
C209 C210 1.347 . S
C210 H202 0.951 . S
C210 C205 1.429 . S
C210 C209 1.347 . S
H211 C212 0.951 . S
C212 H211 0.951 . S
C212 C218 1.265 . S
H213 C218 0.950 . S
H214 C222 0.949 . S
H215 C223 0.950 . S
H216 C224 0.951 . S
H217 C225 0.951 . S
C218 C212 1.265 . S
C218 H213 0.950 . S
C218 C219 1.478 . S
C219 C206 1.394 . S
C219 C218 1.478 . S
C219 C220 1.397 1_545 S
C220 C219 1.397 1_565 S
C220 C221 1.438 . S
C220 C225 1.429 . S
C221 C204 1.394 . S
C221 C220 1.438 . S
C221 C222 1.428 . S
C222 H214 0.949 . S
C222 C221 1.428 . S
C222 C223 1.345 . S
C223 H215 0.950 . S
C223 C222 1.345 . S
C223 C224 1.424 . S
C224 H216 0.951 . S
C224 C223 1.424 . S
C224 C225 1.347 . S
C225 H217 0.951 . S
C225 C220 1.429 . S
C225 C224 1.347 . S
C47 C17 0.267 1_554 S
C62 C16 0.247 . S
C77 C39 0.210 . S
C92 C40 0.229 1_556 S
C107 C42 2.078 . S
C122 C20 2.085 . S
C137 C21 2.050 . S
C152 C44 2.061 . S
C167 C43 2.091 . S
C182 C19 2.095 . S
C197 C41 2.129 . S
C212 C18 2.090 . S
