# Generated by pormake.
# Topology unm, (4)-cn, num edge types: 1
# Building blocks:
#     Node 0, Type 0, BuildingBlock: NAHDIM_clean_sbu_0, # of connection points: 4
#     Node 1, Type 0, BuildingBlock: NAHDIM_clean_sbu_0, # of connection points: 4
#     Node 2, Type 0, BuildingBlock: NAHDIM_clean_sbu_0, # of connection points: 4
#     Node 3, Type 0, BuildingBlock: NAHDIM_clean_sbu_0, # of connection points: 4
#     Node 4, Type 0, BuildingBlock: NAHDIM_clean_sbu_0, # of connection points: 4
#     Node 5, Type 0, BuildingBlock: NAHDIM_clean_sbu_0, # of connection points: 4
#     Node 6, Type 0, BuildingBlock: NAHDIM_clean_sbu_0, # of connection points: 4
#     Node 7, Type 0, BuildingBlock: NAHDIM_clean_sbu_0, # of connection points: 4
#     Edge 8, Type (0, 0), BuildingBlock: OJICUG_clean_linker_0, # of connection points: 2
#     Edge 9, Type (0, 0), BuildingBlock: OJICUG_clean_linker_0, # of connection points: 2
#     Edge 10, Type (0, 0), BuildingBlock: OJICUG_clean_linker_0, # of connection points: 2
#     Edge 11, Type (0, 0), BuildingBlock: OJICUG_clean_linker_0, # of connection points: 2
#     Edge 12, Type (0, 0), BuildingBlock: OJICUG_clean_linker_0, # of connection points: 2
#     Edge 13, Type (0, 0), BuildingBlock: OJICUG_clean_linker_0, # of connection points: 2
#     Edge 14, Type (0, 0), BuildingBlock: OJICUG_clean_linker_0, # of connection points: 2
#     Edge 15, Type (0, 0), BuildingBlock: OJICUG_clean_linker_0, # of connection points: 2
#     Edge 16, Type (0, 0), BuildingBlock: OJICUG_clean_linker_0, # of connection points: 2
#     Edge 17, Type (0, 0), BuildingBlock: OJICUG_clean_linker_0, # of connection points: 2
#     Edge 18, Type (0, 0), BuildingBlock: OJICUG_clean_linker_0, # of connection points: 2
#     Edge 19, Type (0, 0), BuildingBlock: OJICUG_clean_linker_0, # of connection points: 2
#     Edge 20, Type (0, 0), BuildingBlock: OJICUG_clean_linker_0, # of connection points: 2
#     Edge 21, Type (0, 0), BuildingBlock: OJICUG_clean_linker_0, # of connection points: 2
#     Edge 22, Type (0, 0), BuildingBlock: OJICUG_clean_linker_0, # of connection points: 2
#     Edge 23, Type (0, 0), BuildingBlock: OJICUG_clean_linker_0, # of connection points: 2
# Relax obj value: 0.223
# Max RMSD: 0.178
# Mean RMSD: 0.178
data_MOF--net-unm--node1-NAHDIM_clean_sbu_0--edge1-OJICUG_clean_linker_0
_symmetry_space_group_name_H-M    P1
_symmetry_Int_Tables_number       1
_symmetry_cell_setting            triclinic
loop_
_symmetry_equiv_pos_as_xyz
'x, y, z'
_cell_length_a     19.38655
_cell_length_b     19.227851
_cell_length_c     30.262545
_cell_angle_alpha  90.097777
_cell_angle_beta   89.965532
_cell_angle_gamma 89.997437
loop_
_atom_site_label
_atom_site_type_symbol
_atom_site_fract_x
_atom_site_fract_y
_atom_site_fract_z
_atom_type_partial_charge
C0 C 0.13162 0.27035 0.2213 0.0
O1 O 0.08121 0.31555 0.22561 0.0
O2 O 0.95499 0.21228 0.19654 0.0
Zn3 Zn 0.0384 0.22 0.15619 0.0
O4 O 0.04643 0.14545 0.1088 0.0
C5 C 0.98482 0.34934 0.11766 0.0
O6 O 0.92378 0.32066 0.12202 0.0
O7 O 0.12468 0.22059 0.19383 0.0
C8 C 0.01743 0.1514 0.07126 0.0
O9 O 0.97612 0.20439 0.06429 0.0
C10 C 0.89337 0.19936 0.18467 0.0
O11 O 0.88068 0.18361 0.14321 0.0
O12 O 0.03826 0.31493 0.12817 0.0
C13 C 0.21919 0.6355 0.72097 0.0
O14 O 0.17062 0.58791 0.72261 0.0
O15 O 0.27684 0.45053 0.69236 0.0
Zn16 Zn 0.27127 0.53978 0.65641 0.0
O17 O 0.34497 0.55008 0.60907 0.0
C18 C 0.14468 0.48603 0.61836 0.0
O19 O 0.17447 0.4253 0.62387 0.0
O20 O 0.2712 0.62519 0.69607 0.0
C21 C 0.34072 0.5197 0.57175 0.0
O22 O 0.28989 0.47588 0.5648 0.0
C23 C 0.31086 0.39663 0.68133 0.0
O24 O 0.35044 0.3988 0.64612 0.0
O25 O 0.17786 0.54102 0.62781 0.0
C26 C 0.81888 0.75394 0.18775 0.0
O27 O 0.80942 0.74354 0.14526 0.0
O28 O 0.04777 0.77963 0.19048 0.0
Zn29 Zn 0.95718 0.77351 0.15733 0.0
O30 O 0.94174 0.8477 0.11068 0.0
C31 C 0.00788 0.64576 0.11768 0.0
O32 O 0.06866 0.67517 0.12205 0.0
O33 O 0.87854 0.7714 0.20134 0.0
C34 C 0.97069 0.84368 0.07298 0.0
O35 O 0.01561 0.79379 0.0658 0.0
C36 C 0.10159 0.81285 0.17908 0.0
O37 O 0.09993 0.85216 0.14365 0.0
O38 O 0.95418 0.67949 0.1286 0.0
C39 C 0.77213 0.35452 0.72137 0.0
O40 O 0.82069 0.40206 0.72377 0.0
O41 O 0.71639 0.53948 0.69216 0.0
Zn42 Zn 0.72259 0.45013 0.65612 0.0
O43 O 0.64982 0.44045 0.60814 0.0
C44 C 0.85 0.50333 0.61891 0.0
O45 O 0.82026 0.56414 0.6243 0.0
O46 O 0.72114 0.36477 0.69567 0.0
C47 C 0.656 0.46978 0.57065 0.0
O48 O 0.70837 0.51176 0.56389 0.0
C49 C 0.68279 0.59335 0.68069 0.0
O50 O 0.64448 0.59101 0.64493 0.0
O51 O 0.81664 0.44844 0.62827 0.0
C52 C 0.67041 0.25373 0.30763 0.0
O53 O 0.67992 0.24339 0.3501 0.0
O54 O 0.4415 0.27944 0.30504 0.0
Zn55 Zn 0.53212 0.27329 0.33814 0.0
O56 O 0.54766 0.3475 0.38492 0.0
C57 C 0.48141 0.14564 0.37766 0.0
O58 O 0.42064 0.17506 0.37334 0.0
O59 O 0.61072 0.27112 0.29409 0.0
C60 C 0.51879 0.34349 0.42263 0.0
O61 O 0.47383 0.29363 0.42973 0.0
C62 C 0.38771 0.31271 0.3165 0.0
O63 O 0.38941 0.35205 0.35201 0.0
O64 O 0.53511 0.17931 0.36672 0.0
C65 C 0.27109 0.13563 0.77402 0.0
O66 O 0.31962 0.08798 0.77234 0.0
O67 O 0.2136 0.95084 0.80265 0.0
Zn68 Zn 0.21904 0.04028 0.83861 0.0
O69 O 0.14527 0.0507 0.88591 0.0
C70 C 0.34558 0.98676 0.87675 0.0
O71 O 0.31583 0.926 0.87118 0.0
O72 O 0.21912 0.12549 0.79896 0.0
C73 C 0.14939 0.0203 0.92316 0.0
O74 O 0.20018 0.97643 0.93006 0.0
C75 C 0.17938 0.89707 0.81357 0.0
O76 O 0.13953 0.89953 0.84866 0.0
O77 O 0.3124 0.04171 0.86728 0.0
C78 C 0.35769 0.77018 0.27412 0.0
O79 O 0.40812 0.81536 0.26991 0.0
O80 O 0.5343 0.71215 0.2987 0.0
Zn81 Zn 0.45092 0.71982 0.33909 0.0
O82 O 0.44298 0.64526 0.38633 0.0
C83 C 0.50448 0.84923 0.37781 0.0
O84 O 0.56552 0.82054 0.37341 0.0
O85 O 0.36461 0.72041 0.30148 0.0
C86 C 0.47206 0.65118 0.42385 0.0
O87 O 0.51335 0.70418 0.43092 0.0
C88 C 0.59594 0.69925 0.31054 0.0
O89 O 0.60863 0.68349 0.35197 0.0
O90 O 0.45104 0.81478 0.36729 0.0
C91 C 0.71817 0.85465 0.77432 0.0
O92 O 0.66957 0.90214 0.77197 0.0
O93 O 0.77404 0.03978 0.80353 0.0
Zn94 Zn 0.76774 0.95062 0.83955 0.0
O95 O 0.84042 0.94105 0.88757 0.0
C96 C 0.64026 0.00406 0.87667 0.0
O97 O 0.67002 0.06484 0.87134 0.0
O98 O 0.76919 0.86507 0.79999 0.0
C99 C 0.83413 0.97036 0.92512 0.0
O100 O 0.78171 0.01231 0.93193 0.0
C101 C 0.80746 0.09378 0.81509 0.0
O102 O 0.84552 0.09171 0.85095 0.0
O103 O 0.67363 0.94912 0.86733 0.0
C104 C 0.02075 0.12452 0.99018 0.0
C105 C 0.04022 0.10746 0.03361 0.0
H106 H 0.03963 0.11002 0.92106 0.0
C107 C 0.08794 0.05338 0.04005 0.0
H108 H 0.98342 0.16525 0.98398 0.0
C109 C 0.11997 0.02142 0.00388 0.0
C110 C 0.10525 0.04318 0.96054 0.0
H111 H 0.1033 0.03814 0.07305 0.0
H112 H 0.15915 0.98251 0.0101 0.0
C113 C 0.05308 0.09288 0.95403 0.0
C114 C 0.43692 0.59234 0.54095 0.0
C115 C 0.38473 0.54266 0.53438 0.0
H116 H 0.50643 0.66481 0.51112 0.0
C117 C 0.36984 0.52101 0.49099 0.0
H118 H 0.4505 0.60939 0.57395 0.0
C119 C 0.4017 0.55307 0.45487 0.0
C120 C 0.44943 0.60715 0.4614 0.0
H121 H 0.33063 0.48211 0.48471 0.0
H122 H 0.3862 0.53792 0.42184 0.0
C123 C 0.46909 0.62409 0.50484 0.0
C124 C 0.96681 0.87177 0.99214 0.0
C125 C 0.94532 0.88643 0.03558 0.0
H126 H 0.94883 0.88711 0.92302 0.0
C127 C 0.89395 0.93697 0.04223 0.0
H128 H 0.0069 0.83382 0.98579 0.0
C129 C 0.8609 0.96785 0.00616 0.0
C130 C 0.8782 0.94851 0.96269 0.0
H131 H 0.87684 0.95025 0.07526 0.0
H132 H 0.81919 0.004 0.01249 0.0
C133 C 0.93344 0.9023 0.95607 0.0
C134 C 0.523 0.3714 0.50356 0.0
C135 C 0.54431 0.38615 0.46012 0.0
H136 H 0.54128 0.38656 0.57269 0.0
C137 C 0.59569 0.43666 0.45354 0.0
H138 H 0.48291 0.33346 0.50985 0.0
C139 C 0.62891 0.46743 0.48965 0.0
C140 C 0.61178 0.448 0.53309 0.0
H141 H 0.61267 0.45 0.42052 0.0
H142 H 0.67061 0.50357 0.48336 0.0
C143 C 0.55655 0.40181 0.53966 0.0
C144 C 0.20193 0.33202 0.27886 0.0
C145 C 0.19682 0.28012 0.24619 0.0
H146 H 0.26595 0.38314 0.3266 0.0
C147 C 0.25519 0.23946 0.23663 0.0
H148 H 0.15798 0.36438 0.28702 0.0
C149 C 0.31731 0.25073 0.25905 0.0
C150 C 0.32239 0.30256 0.29179 0.0
H151 H 0.25316 0.19926 0.21155 0.0
H152 H 0.36124 0.21833 0.25089 0.0
C153 C 0.2639 0.34293 0.30152 0.0
C154 C 0.25371 0.75921 0.73689 0.0
C155 C 0.21039 0.70209 0.7453 0.0
H156 H 0.27737 0.86574 0.75128 0.0
C157 C 0.15641 0.70999 0.77599 0.0
H158 H 0.29552 0.75507 0.71328 0.0
C159 C 0.14609 0.77334 0.79786 0.0
C160 C 0.18904 0.83062 0.78925 0.0
H161 H 0.12196 0.66715 0.78322 0.0
H162 H 0.10423 0.7774 0.82144 0.0
C163 C 0.24295 0.82284 0.75846 0.0
C164 C 0.64026 0.71811 0.23361 0.0
C165 C 0.65344 0.71058 0.27902 0.0
H166 H 0.68198 0.73764 0.1693 0.0
C167 C 0.72159 0.71789 0.29426 0.0
H168 H 0.58834 0.71299 0.22079 0.0
C169 C 0.77518 0.73318 0.26479 0.0
C170 C 0.76195 0.74057 0.21936 0.0
H171 H 0.73345 0.71297 0.32908 0.0
H172 H 0.82708 0.73858 0.27759 0.0
C173 C 0.69394 0.73246 0.2041 0.0
C174 C 0.83225 0.28049 0.77763 0.0
C175 C 0.77977 0.28813 0.74593 0.0
H176 H 0.88221 0.21351 0.82416 0.0
C177 C 0.73684 0.23093 0.73681 0.0
H178 H 0.86636 0.32339 0.78544 0.0
C179 C 0.74653 0.1675 0.75868 0.0
C180 C 0.79893 0.16001 0.7905 0.0
H181 H 0.69617 0.23487 0.71242 0.0
H182 H 0.71246 0.12454 0.75094 0.0
C183 C 0.84149 0.21736 0.7998 0.0
C184 C 0.79536 0.23237 0.29121 0.0
C185 C 0.72734 0.24042 0.27597 0.0
H186 H 0.90098 0.21305 0.27445 0.0
C187 C 0.7141 0.23304 0.23053 0.0
H188 H 0.80733 0.23755 0.32602 0.0
C189 C 0.7677 0.21783 0.20102 0.0
C190 C 0.83586 0.2106 0.21622 0.0
H191 H 0.66219 0.23837 0.21776 0.0
H192 H 0.75583 0.21291 0.16619 0.0
C193 C 0.84905 0.21811 0.26166 0.0
C194 C 0.34405 0.27293 0.69699 0.0
C195 C 0.30122 0.33033 0.70568 0.0
H196 H 0.36809 0.16678 0.71159 0.0
C197 C 0.24745 0.32281 0.73658 0.0
H198 H 0.38581 0.2768 0.67333 0.0
C199 C 0.23669 0.25931 0.75817 0.0
C200 C 0.27988 0.20207 0.74968 0.0
H201 H 0.21313 0.3658 0.74382 0.0
H202 H 0.19499 0.25537 0.78186 0.0
C203 C 0.33374 0.20972 0.71888 0.0
C204 C 0.23408 0.73943 0.25875 0.0
C205 C 0.29249 0.78003 0.24928 0.0
H206 H 0.128 0.71842 0.24447 0.0
C207 C 0.28741 0.83195 0.21673 0.0
H208 H 0.23609 0.69922 0.28374 0.0
C209 C 0.22543 0.84293 0.19411 0.0
C210 C 0.1669 0.80263 0.20376 0.0
H211 H 0.33138 0.86426 0.20864 0.0
H212 H 0.2234 0.88315 0.16913 0.0
C213 C 0.17195 0.75077 0.23638 0.0
C214 C 0.74388 0.66746 0.73697 0.0
C215 C 0.69135 0.65973 0.70526 0.0
H216 H 0.79434 0.73515 0.78315 0.0
C217 C 0.64868 0.71697 0.69602 0.0
H218 H 0.77804 0.62459 0.74466 0.0
C219 C 0.65792 0.78024 0.71817 0.0
C220 C 0.71053 0.78812 0.74978 0.0
H221 H 0.60786 0.71293 0.67173 0.0
H222 H 0.62372 0.82305 0.71042 0.0
C223 C 0.75358 0.73103 0.75882 0.0
C224 C 0.93727 0.53858 0.1059 0.0
C225 C 0.00239 0.57055 0.10835 0.0
H226 H 0.88061 0.44322 0.10632 0.0
C227 C 0.06182 0.52883 0.10709 0.0
H228 H 0.89046 0.56935 0.10629 0.0
C229 C 0.05615 0.45645 0.10722 0.0
C230 C 0.99093 0.4245 0.10845 0.0
H231 H 0.11275 0.55187 0.10855 0.0
H232 H 0.10291 0.4257 0.10866 0.0
C233 C 0.93161 0.46622 0.10588 0.0
C234 C 0.96494 0.55959 0.60777 0.0
C235 C 0.92476 0.4989 0.60982 0.0
H236 H 0.06638 0.60314 0.60838 0.0
C237 C 0.95778 0.43384 0.60806 0.0
H238 H 0.94109 0.61051 0.60866 0.0
C239 C 0.02968 0.42958 0.60783 0.0
C240 C 0.06988 0.49029 0.60944 0.0
H241 H 0.92824 0.38605 0.60912 0.0
H242 H 0.05354 0.37867 0.60879 0.0
C243 C 0.03684 0.55533 0.60763 0.0
C244 C 0.42748 0.02879 0.38831 0.0
C245 C 0.48691 0.07049 0.38701 0.0
H246 H 0.38638 0.92565 0.38681 0.0
C247 C 0.55202 0.03853 0.38947 0.0
H248 H 0.37654 0.05183 0.38684 0.0
C249 C 0.55769 0.96617 0.38955 0.0
C250 C 0.49836 0.92444 0.38701 0.0
H251 H 0.59884 0.06929 0.38906 0.0
H252 H 0.60869 0.94316 0.38911 0.0
C253 C 0.43315 0.9564 0.38823 0.0
C254 C 0.46055 0.93038 0.88746 0.0
C255 C 0.42034 0.99108 0.88577 0.0
H256 H 0.56199 0.88683 0.88635 0.0
C257 C 0.45338 0.05613 0.88764 0.0
H258 H 0.43669 0.87946 0.88646 0.0
C259 C 0.52527 0.06038 0.88763 0.0
C260 C 0.56546 -0.00032 0.88565 0.0
H261 H 0.42383 0.10393 0.88684 0.0
H262 H 0.54912 0.1113 0.88677 0.0
C263 C 0.53244 0.93463 0.88736 0.0
loop_
_geom_bond_atom_site_label_1
_geom_bond_atom_site_label_2
_geom_bond_distance
_geom_bond_site_symmetry_2
_ccdc_geom_bond_type
C0 O1 1.160 . S
C0 O7 1.185 . S
O1 C0 1.160 . S
O2 Zn3 1.899 . S
O2 C10 1.282 1_455 S
Zn3 O2 1.899 . S
Zn3 O4 2.032 . S
Zn3 O7 2.086 . S
Zn3 O12 1.977 . S
O4 Zn3 2.032 . S
O4 C8 1.278 . S
C5 O6 1.203 1_455 S
C5 O12 1.267 . S
O6 C5 1.203 1_655 S
O7 C0 1.185 . S
O7 Zn3 2.086 . S
C8 O4 1.278 . S
C8 O9 1.211 . S
O9 C8 1.211 . S
C10 O2 1.282 1_655 S
C10 O11 1.273 . S
O11 C10 1.273 . S
O12 Zn3 1.977 . S
O12 C5 1.267 . S
C13 O14 1.160 . S
C13 O20 1.185 . S
O14 C13 1.160 . S
O15 Zn16 1.899 . S
O15 C23 1.284 . S
Zn16 O15 1.899 . S
Zn16 O17 2.032 . S
Zn16 O20 2.086 . S
Zn16 O25 1.977 . S
O17 Zn16 2.032 . S
O17 C21 1.278 . S
C18 O19 1.203 . S
C18 O25 1.267 . S
O19 C18 1.203 . S
O20 C13 1.185 . S
O20 Zn16 2.086 . S
C21 O17 1.278 . S
C21 O22 1.211 . S
O22 C21 1.211 . S
C23 O15 1.284 . S
C23 O24 1.273 . S
O24 C23 1.273 . S
O25 Zn16 1.977 . S
O25 C18 1.267 . S
C26 O27 1.160 . S
C26 O33 1.185 . S
O27 C26 1.160 . S
O28 Zn29 1.899 . S
O28 C36 1.282 1_655 S
Zn29 O28 1.899 . S
Zn29 O30 2.032 . S
Zn29 O33 2.086 . S
Zn29 O38 1.977 . S
O30 Zn29 2.032 . S
O30 C34 1.278 . S
C31 O32 1.203 1_655 S
C31 O38 1.267 . S
O32 C31 1.203 1_455 S
O33 C26 1.185 . S
O33 Zn29 2.086 . S
C34 O30 1.278 . S
C34 O35 1.211 . S
O35 C34 1.211 . S
C36 O28 1.282 1_455 S
C36 O37 1.273 . S
O37 C36 1.273 . S
O38 Zn29 1.977 . S
O38 C31 1.267 . S
C39 O40 1.160 . S
C39 O46 1.185 . S
O40 C39 1.160 . S
O41 Zn42 1.899 . S
O41 C49 1.284 . S
Zn42 O41 1.899 . S
Zn42 O43 2.032 . S
Zn42 O46 2.086 . S
Zn42 O51 1.977 . S
O43 Zn42 2.032 . S
O43 C47 1.278 . S
C44 O45 1.203 . S
C44 O51 1.267 . S
O45 C44 1.203 . S
O46 C39 1.185 . S
O46 Zn42 2.086 . S
C47 O43 1.278 . S
C47 O48 1.211 . S
O48 C47 1.211 . S
C49 O41 1.284 . S
C49 O50 1.273 . S
O50 C49 1.273 . S
O51 Zn42 1.977 . S
O51 C44 1.267 . S
C52 O53 1.160 . S
C52 O59 1.185 . S
O53 C52 1.160 . S
O54 Zn55 1.899 . S
O54 C62 1.284 . S
Zn55 O54 1.899 . S
Zn55 O56 2.032 . S
Zn55 O59 2.086 . S
Zn55 O64 1.977 . S
O56 Zn55 2.032 . S
O56 C60 1.278 . S
C57 O58 1.203 . S
C57 O64 1.267 . S
O58 C57 1.203 . S
O59 C52 1.185 . S
O59 Zn55 2.086 . S
C60 O56 1.278 . S
C60 O61 1.211 . S
O61 C60 1.211 . S
C62 O54 1.284 . S
C62 O63 1.273 . S
O63 C62 1.273 . S
O64 Zn55 1.977 . S
O64 C57 1.267 . S
C65 O66 1.160 . S
C65 O72 1.185 . S
O66 C65 1.160 . S
O67 Zn68 1.899 . S
O67 C75 1.282 1_545 S
Zn68 O67 1.899 . S
Zn68 O69 2.032 . S
Zn68 O72 2.086 . S
Zn68 O77 1.977 . S
O69 Zn68 2.032 . S
O69 C73 1.278 . S
C70 O71 1.203 1_545 S
C70 O77 1.267 . S
O71 C70 1.203 1_565 S
O72 C65 1.185 . S
O72 Zn68 2.086 . S
C73 O69 1.278 . S
C73 O74 1.211 . S
O74 C73 1.211 . S
C75 O67 1.282 1_565 S
C75 O76 1.273 . S
O76 C75 1.273 . S
O77 Zn68 1.977 . S
O77 C70 1.267 . S
C78 O79 1.160 . S
C78 O85 1.185 . S
O79 C78 1.160 . S
O80 Zn81 1.899 . S
O80 C88 1.284 . S
Zn81 O80 1.899 . S
Zn81 O82 2.032 . S
Zn81 O85 2.086 . S
Zn81 O90 1.977 . S
O82 Zn81 2.032 . S
O82 C86 1.278 . S
C83 O84 1.203 . S
C83 O90 1.267 . S
O84 C83 1.203 . S
O85 C78 1.185 . S
O85 Zn81 2.086 . S
C86 O82 1.278 . S
C86 O87 1.211 . S
O87 C86 1.211 . S
C88 O80 1.284 . S
C88 O89 1.273 . S
O89 C88 1.273 . S
O90 Zn81 1.977 . S
O90 C83 1.267 . S
C91 O92 1.160 . S
C91 O98 1.185 . S
O92 C91 1.160 . S
O93 Zn94 1.899 . S
O93 C101 1.282 1_565 S
Zn94 O93 1.899 . S
Zn94 O95 2.032 . S
Zn94 O98 2.086 . S
Zn94 O103 1.977 . S
O95 Zn94 2.032 . S
O95 C99 1.278 . S
C96 O97 1.203 1_565 S
C96 O103 1.267 . S
O97 C96 1.203 1_545 S
O98 C91 1.185 . S
O98 Zn94 2.086 . S
C99 O95 1.278 . S
C99 O100 1.211 . S
O100 C99 1.211 . S
C101 O93 1.282 1_545 S
C101 O102 1.273 . S
O102 C101 1.273 . S
O103 Zn94 1.977 . S
O103 C96 1.267 . S
C104 C105 1.387 . S
C104 H108 0.950 . S
C104 C113 1.390 1_554 S
C105 C104 1.387 . S
C105 C107 1.387 . S
H106 C113 0.950 . S
C107 C105 1.387 . S
C107 C109 1.390 1_554 S
C107 H111 0.950 . S
H108 C104 0.950 . S
C109 C107 1.390 1_556 S
C109 C110 1.387 . S
C109 H112 0.950 . S
C110 C109 1.387 . S
C110 C113 1.387 . S
H111 C107 0.950 . S
H112 C109 0.950 . S
C113 C104 1.390 1_556 S
C113 H106 0.950 . S
C113 C110 1.387 . S
C114 C115 1.387 . S
C114 H118 0.950 . S
C114 C123 1.390 . S
C115 C114 1.387 . S
C115 C117 1.387 . S
H116 C123 0.950 . S
C117 C115 1.387 . S
C117 C119 1.390 . S
C117 H121 0.950 . S
H118 C114 0.950 . S
C119 C117 1.390 . S
C119 C120 1.387 . S
C119 H122 0.950 . S
C120 C119 1.387 . S
C120 C123 1.387 . S
H121 C117 0.950 . S
H122 C119 0.950 . S
C123 C114 1.390 . S
C123 H116 0.950 . S
C123 C120 1.387 . S
C124 C125 1.387 . S
C124 H128 0.950 . S
C124 C133 1.390 1_554 S
C125 C124 1.387 . S
C125 C127 1.387 . S
H126 C133 0.950 . S
C127 C125 1.387 . S
C127 C129 1.390 1_554 S
C127 H131 0.950 . S
H128 C124 0.950 . S
C129 C127 1.390 1_556 S
C129 C130 1.387 . S
C129 H132 0.950 . S
C130 C129 1.387 . S
C130 C133 1.387 . S
H131 C127 0.950 . S
H132 C129 0.950 . S
C133 C124 1.390 1_556 S
C133 H126 0.950 . S
C133 C130 1.387 . S
C134 C135 1.387 . S
C134 H138 0.950 . S
C134 C143 1.390 . S
C135 C134 1.387 . S
C135 C137 1.387 . S
H136 C143 0.950 . S
C137 C135 1.387 . S
C137 C139 1.390 . S
C137 H141 0.950 . S
H138 C134 0.950 . S
C139 C137 1.390 . S
C139 C140 1.387 . S
C139 H142 0.950 . S
C140 C139 1.387 . S
C140 C143 1.387 . S
H141 C137 0.950 . S
H142 C139 0.950 . S
C143 C134 1.390 . S
C143 H136 0.950 . S
C143 C140 1.387 . S
C144 C145 1.387 . S
C144 H148 0.950 . S
C144 C153 1.390 . S
C145 C144 1.387 . S
C145 C147 1.387 . S
H146 C153 0.950 . S
C147 C145 1.387 . S
C147 C149 1.390 . S
C147 H151 0.950 . S
H148 C144 0.950 . S
C149 C147 1.390 . S
C149 C150 1.387 . S
C149 H152 0.950 . S
C150 C149 1.387 . S
C150 C153 1.387 . S
H151 C147 0.950 . S
H152 C149 0.950 . S
C153 C144 1.390 . S
C153 H146 0.950 . S
C153 C150 1.387 . S
C154 C155 1.387 . S
C154 H158 0.950 . S
C154 C163 1.390 . S
C155 C154 1.387 . S
C155 C157 1.387 . S
H156 C163 0.950 . S
C157 C155 1.387 . S
C157 C159 1.390 . S
C157 H161 0.950 . S
H158 C154 0.950 . S
C159 C157 1.390 . S
C159 C160 1.387 . S
C159 H162 0.950 . S
C160 C159 1.387 . S
C160 C163 1.387 . S
H161 C157 0.950 . S
H162 C159 0.950 . S
C163 C154 1.390 . S
C163 H156 0.950 . S
C163 C160 1.387 . S
C164 C165 1.387 . S
C164 H168 0.950 . S
C164 C173 1.390 . S
C165 C164 1.387 . S
C165 C167 1.387 . S
H166 C173 0.950 . S
C167 C165 1.387 . S
C167 C169 1.390 . S
C167 H171 0.950 . S
H168 C164 0.950 . S
C169 C167 1.390 . S
C169 C170 1.387 . S
C169 H172 0.950 . S
C170 C169 1.387 . S
C170 C173 1.387 . S
H171 C167 0.950 . S
H172 C169 0.950 . S
C173 C164 1.390 . S
C173 H166 0.950 . S
C173 C170 1.387 . S
C174 C175 1.387 . S
C174 H178 0.950 . S
C174 C183 1.390 . S
C175 C174 1.387 . S
C175 C177 1.387 . S
H176 C183 0.950 . S
C177 C175 1.387 . S
C177 C179 1.390 . S
C177 H181 0.950 . S
H178 C174 0.950 . S
C179 C177 1.390 . S
C179 C180 1.387 . S
C179 H182 0.950 . S
C180 C179 1.387 . S
C180 C183 1.387 . S
H181 C177 0.950 . S
H182 C179 0.950 . S
C183 C174 1.390 . S
C183 H176 0.950 . S
C183 C180 1.387 . S
C184 C185 1.387 . S
C184 H188 0.950 . S
C184 C193 1.390 . S
C185 C184 1.387 . S
C185 C187 1.387 . S
H186 C193 0.950 . S
C187 C185 1.387 . S
C187 C189 1.390 . S
C187 H191 0.950 . S
H188 C184 0.950 . S
C189 C187 1.390 . S
C189 C190 1.387 . S
C189 H192 0.950 . S
C190 C189 1.387 . S
C190 C193 1.387 . S
H191 C187 0.950 . S
H192 C189 0.950 . S
C193 C184 1.390 . S
C193 H186 0.950 . S
C193 C190 1.387 . S
C194 C195 1.387 . S
C194 H198 0.950 . S
C194 C203 1.390 . S
C195 C194 1.387 . S
C195 C197 1.387 . S
H196 C203 0.950 . S
C197 C195 1.387 . S
C197 C199 1.390 . S
C197 H201 0.950 . S
H198 C194 0.950 . S
C199 C197 1.390 . S
C199 C200 1.387 . S
C199 H202 0.950 . S
C200 C199 1.387 . S
C200 C203 1.387 . S
H201 C197 0.950 . S
H202 C199 0.950 . S
C203 C194 1.390 . S
C203 H196 0.950 . S
C203 C200 1.387 . S
C204 C205 1.387 . S
C204 H208 0.950 . S
C204 C213 1.390 . S
C205 C204 1.387 . S
C205 C207 1.387 . S
H206 C213 0.950 . S
C207 C205 1.387 . S
C207 C209 1.390 . S
C207 H211 0.950 . S
H208 C204 0.950 . S
C209 C207 1.390 . S
C209 C210 1.387 . S
C209 H212 0.950 . S
C210 C209 1.387 . S
C210 C213 1.387 . S
H211 C207 0.950 . S
H212 C209 0.950 . S
C213 C204 1.390 . S
C213 H206 0.950 . S
C213 C210 1.387 . S
C214 C215 1.387 . S
C214 H218 0.950 . S
C214 C223 1.390 . S
C215 C214 1.387 . S
C215 C217 1.387 . S
H216 C223 0.950 . S
C217 C215 1.387 . S
C217 C219 1.390 . S
C217 H221 0.950 . S
H218 C214 0.950 . S
C219 C217 1.390 . S
C219 C220 1.387 . S
C219 H222 0.950 . S
C220 C219 1.387 . S
C220 C223 1.387 . S
H221 C217 0.950 . S
H222 C219 0.950 . S
C223 C214 1.390 . S
C223 H216 0.950 . S
C223 C220 1.387 . S
C224 C225 1.387 . S
C224 H228 0.950 . S
C224 C233 1.390 1_655 S
C225 C224 1.387 . S
C225 C227 1.387 . S
H226 C233 0.950 . S
C227 C225 1.387 . S
C227 C229 1.390 1_655 S
C227 H231 0.950 . S
H228 C224 0.950 . S
C229 C227 1.390 1_455 S
C229 C230 1.387 . S
C229 H232 0.950 . S
C230 C229 1.387 . S
C230 C233 1.387 . S
H231 C227 0.950 . S
H232 C229 0.950 . S
C233 C224 1.390 1_455 S
C233 H226 0.950 . S
C233 C230 1.387 . S
C234 C235 1.387 . S
C234 H238 0.950 . S
C234 C243 1.390 1_655 S
C235 C234 1.387 . S
C235 C237 1.387 . S
H236 C243 0.950 . S
C237 C235 1.387 . S
C237 C239 1.390 1_655 S
C237 H241 0.950 . S
H238 C234 0.950 . S
C239 C237 1.390 1_455 S
C239 C240 1.387 . S
C239 H242 0.950 . S
C240 C239 1.387 . S
C240 C243 1.387 . S
H241 C237 0.950 . S
H242 C239 0.950 . S
C243 C234 1.390 1_455 S
C243 H236 0.950 . S
C243 C240 1.387 . S
C244 C245 1.387 . S
C244 H248 0.950 . S
C244 C253 1.390 1_545 S
C245 C244 1.387 . S
C245 C247 1.387 . S
H246 C253 0.950 . S
C247 C245 1.387 . S
C247 C249 1.390 1_545 S
C247 H251 0.950 . S
H248 C244 0.950 . S
C249 C247 1.390 1_565 S
C249 C250 1.387 . S
C249 H252 0.950 . S
C250 C249 1.387 . S
C250 C253 1.387 . S
H251 C247 0.950 . S
H252 C249 0.950 . S
C253 C244 1.390 1_565 S
C253 H246 0.950 . S
C253 C250 1.387 . S
C254 C255 1.387 . S
C254 H258 0.950 . S
C254 C263 1.390 1_545 S
C255 C254 1.387 . S
C255 C257 1.387 . S
H256 C263 0.950 . S
C257 C255 1.387 . S
C257 C259 1.390 1_545 S
C257 H261 0.950 . S
H258 C254 0.950 . S
C259 C257 1.390 1_565 S
C259 C260 1.387 . S
C259 H262 0.950 . S
C260 C259 1.387 . S
C260 C263 1.387 . S
H261 C257 0.950 . S
H262 C259 0.950 . S
C263 C254 1.390 1_565 S
C263 H256 0.950 . S
C263 C260 1.387 . S
C105 C8 1.330 . S
C110 C73 1.328 . S
C115 C21 1.327 . S
C120 C86 1.328 . S
C125 C34 1.329 . S
C130 C99 1.328 . S
C135 C60 1.329 . S
C140 C47 1.327 . S
C145 C0 1.637 . S
C150 C62 1.597 . S
C155 C13 1.639 . S
C160 C75 1.601 . S
C165 C88 1.598 . S
C170 C26 1.637 . S
C175 C39 1.638 . S
C180 C101 1.598 . S
C185 C52 1.637 . S
C190 C10 1.600 . S
C195 C23 1.596 . S
C200 C65 1.637 . S
C205 C78 1.639 . S
C210 C36 1.600 . S
C215 C49 1.598 . S
C220 C91 1.639 . S
C225 C31 0.841 . S
C230 C5 0.841 . S
C235 C44 0.841 . S
C240 C18 0.841 . S
C245 C57 0.841 . S
C250 C83 0.841 . S
C255 C70 0.841 . S
C260 C96 0.841 . S
