# Generated by pormake.
# Topology msp, (4)-cn, num edge types: 1
# Building blocks:
#     Node 0, Type 0, BuildingBlock: NAWXER_clean_sbu_0, # of connection points: 4
#     Node 1, Type 0, BuildingBlock: NAWXER_clean_sbu_0, # of connection points: 4
#     Node 2, Type 0, BuildingBlock: NAWXER_clean_sbu_0, # of connection points: 4
#     Node 3, Type 0, BuildingBlock: NAWXER_clean_sbu_0, # of connection points: 4
#     Node 4, Type 0, BuildingBlock: NAWXER_clean_sbu_0, # of connection points: 4
#     Node 5, Type 0, BuildingBlock: NAWXER_clean_sbu_0, # of connection points: 4
#     Node 6, Type 0, BuildingBlock: NAWXER_clean_sbu_0, # of connection points: 4
#     Node 7, Type 0, BuildingBlock: NAWXER_clean_sbu_0, # of connection points: 4
#     Edge 8, Type (0, 0), None
#     Edge 9, Type (0, 0), None
#     Edge 10, Type (0, 0), None
#     Edge 11, Type (0, 0), None
#     Edge 12, Type (0, 0), None
#     Edge 13, Type (0, 0), None
#     Edge 14, Type (0, 0), None
#     Edge 15, Type (0, 0), None
#     Edge 16, Type (0, 0), None
#     Edge 17, Type (0, 0), None
#     Edge 18, Type (0, 0), None
#     Edge 19, Type (0, 0), None
#     Edge 20, Type (0, 0), None
#     Edge 21, Type (0, 0), None
#     Edge 22, Type (0, 0), None
#     Edge 23, Type (0, 0), None
# Relax obj value: 0.113
# Max RMSD: 0.238
# Mean RMSD: 0.238
data_MOF--net-msp--node1-NAWXER_clean_sbu_0--edge1-none
_symmetry_space_group_name_H-M    P1
_symmetry_Int_Tables_number       1
_symmetry_cell_setting            triclinic
loop_
_symmetry_equiv_pos_as_xyz
'x, y, z'
_cell_length_a     10.235067
_cell_length_b     8.8801708
_cell_length_c     19.05168
_cell_angle_alpha  89.999829
_cell_angle_beta   102.68084
_cell_angle_gamma 90.001228
loop_
_atom_site_label
_atom_site_type_symbol
_atom_site_fract_x
_atom_site_fract_y
_atom_site_fract_z
_atom_type_partial_charge
C0 C 0.21014 0.08697 0.4856 0.0
C1 C 0.81451 0.22591 0.29975 0.0
O2 O 0.21095 0.21502 0.45507 0.0
Zn3 Zn 0.09248 0.36298 0.38092 0.0
O4 O 0.10961 -0.00053 0.46694 0.0
Zn5 Zn 0.0114 0.14602 0.39589 0.0
O6 O 0.14049 0.15598 0.31927 0.0
O7 O 0.21054 0.39175 0.31795 0.0
O8 O 0.83374 0.10651 0.33742 0.0
O9 O 0.90299 0.32992 0.31091 0.0
O10 O 0.07246 0.52463 0.44639 0.0
O11 O 0.98216 0.31318 0.47374 0.0
C12 C 0.21144 0.25653 0.29649 0.0
C13 C 0.01559 0.45065 0.48839 0.0
C14 C 0.29497 0.25652 0.74643 0.0
C15 C 0.49083 0.45067 0.55454 0.0
O16 O 0.36591 0.15597 0.72365 0.0
Zn17 Zn 0.495 0.14602 0.64702 0.0
O18 O 0.29589 0.39175 0.72498 0.0
Zn19 Zn 0.41394 0.36299 0.66201 0.0
O20 O 0.29543 0.21503 0.58787 0.0
O21 O 0.3968 -0.00055 0.57596 0.0
O22 O 0.43396 0.52465 0.59655 0.0
O23 O 0.52423 0.3132 0.56918 0.0
O24 O 0.67267 0.10652 0.70549 0.0
O25 O 0.60341 0.32991 0.73202 0.0
C26 C 0.29626 0.08696 0.55736 0.0
C27 C 0.6919 0.2259 0.74317 0.0
C28 C 0.79493 0.71463 0.74643 0.0
C29 C 0.99087 0.52046 0.55457 0.0
O30 O 0.79586 0.5794 0.72498 0.0
Zn31 Zn 0.91394 0.60814 0.66202 0.0
O32 O 0.86589 0.81517 0.72365 0.0
Zn33 Zn 0.99498 0.82512 0.64704 0.0
O34 O 0.89676 0.97166 0.57597 0.0
O35 O 0.79548 0.75604 0.58784 0.0
O36 O 0.02427 0.65793 0.56921 0.0
O37 O 0.93399 0.44648 0.59657 0.0
O38 O 0.1034 0.64123 0.73203 0.0
O39 O 0.17264 0.86465 0.70552 0.0
C40 C 0.79631 0.88406 0.55729 0.0
C41 C 0.19188 0.74526 0.74319 0.0
C42 C 0.31448 0.74528 0.29975 0.0
C43 C 0.71017 0.88417 0.48554 0.0
O44 O 0.33372 0.86466 0.33743 0.0
Zn45 Zn 0.51139 0.82515 0.3959 0.0
O46 O 0.40296 0.64126 0.31089 0.0
Zn47 Zn 0.59243 0.60817 0.38089 0.0
O48 O 0.57242 0.44651 0.44636 0.0
O49 O 0.48216 0.65797 0.47373 0.0
O50 O 0.71096 0.75611 0.45502 0.0
O51 O 0.60963 0.9717 0.46697 0.0
O52 O 0.64046 0.81519 0.31926 0.0
O53 O 0.71047 0.57941 0.31792 0.0
C54 C 0.51556 0.5205 0.48837 0.0
C55 C 0.7114 0.71465 0.29647 0.0
C56 C 0.71142 0.75651 0.79649 0.0
C57 C 0.51556 0.95066 0.98837 0.0
O58 O 0.64047 0.65597 0.81927 0.0
Zn59 Zn 0.51139 0.64602 0.89589 0.0
O60 O 0.71052 0.89173 0.81795 0.0
Zn61 Zn 0.59246 0.86297 0.88091 0.0
O62 O 0.71094 0.71502 0.95507 0.0
O63 O 0.60959 0.49947 0.96695 0.0
O64 O 0.57245 0.02464 0.94638 0.0
O65 O 0.48215 0.8132 0.97374 0.0
O66 O 0.33372 0.60651 0.83743 0.0
O67 O 0.40298 0.82991 0.81091 0.0
C68 C 0.71013 0.58697 0.9856 0.0
C69 C 0.31449 0.7259 0.79976 0.0
C70 C 0.79493 0.75653 0.24642 0.0
C71 C 0.99083 0.95067 0.05455 0.0
O72 O 0.86588 0.65599 0.22364 0.0
Zn73 Zn 0.99498 0.64603 0.14702 0.0
O74 O 0.79586 0.89176 0.22497 0.0
Zn75 Zn 0.91392 0.863 0.16201 0.0
O76 O 0.79541 0.71504 0.08787 0.0
O77 O 0.89679 0.49946 0.07596 0.0
O78 O 0.93395 0.02465 0.09654 0.0
O79 O 0.02423 0.8132 0.06918 0.0
O80 O 0.17264 0.60654 0.2055 0.0
O81 O 0.10339 0.82994 0.23202 0.0
C82 C 0.79625 0.58697 0.05736 0.0
C83 C 0.19187 0.72592 0.24318 0.0
C84 C 0.49084 0.02049 0.05455 0.0
C85 C 0.29496 0.21465 0.24643 0.0
O86 O 0.43395 0.94652 0.09655 0.0
Zn87 Zn 0.41393 0.10819 0.16201 0.0
O88 O 0.52425 0.15796 0.06919 0.0
Zn89 Zn 0.495 0.32514 0.14703 0.0
O90 O 0.67267 0.36465 0.2055 0.0
O91 O 0.60341 0.14125 0.23202 0.0
O92 O 0.36591 0.31519 0.22365 0.0
O93 O 0.29586 0.07943 0.22497 0.0
O94 O 0.29546 0.25614 0.08785 0.0
O95 O 0.3968 0.47169 0.07597 0.0
C96 C 0.69189 0.24526 0.24318 0.0
C97 C 0.29627 0.38418 0.05731 0.0
C98 C 0.81451 0.24525 0.79975 0.0
C99 C 0.21014 0.38419 0.98556 0.0
O100 O 0.83374 0.36464 0.83742 0.0
Zn101 Zn 0.01141 0.32514 0.89589 0.0
O102 O 0.90299 0.14124 0.8109 0.0
Zn103 Zn 0.09247 0.10817 0.8809 0.0
O104 O 0.07244 0.94651 0.94637 0.0
O105 O 0.98216 0.15797 0.97373 0.0
O106 O 0.21098 0.25612 0.95504 0.0
O107 O 0.10961 0.4717 0.96696 0.0
O108 O 0.1405 0.31518 0.81927 0.0
O109 O 0.21052 0.07941 0.81794 0.0
C110 C 0.01557 0.0205 0.98837 0.0
C111 C 0.21144 0.21464 0.79649 0.0
loop_
_geom_bond_atom_site_label_1
_geom_bond_atom_site_label_2
_geom_bond_distance
_geom_bond_site_symmetry_2
_ccdc_geom_bond_type
C0 O2 1.247 . S
C0 O4 1.258 . S
C1 O8 1.247 . S
C1 O9 1.258 . S
O2 C0 1.247 . S
O2 Zn3 2.028 . S
Zn3 O2 2.028 . S
Zn3 O7 2.035 . S
Zn3 O9 2.035 1_455 S
Zn3 O10 2.028 1_455 S
O4 C0 1.258 . S
O4 Zn5 2.035 . S
Zn5 O4 2.035 . S
Zn5 O6 2.028 . S
Zn5 O8 2.028 1_455 S
Zn5 O11 2.035 1_455 S
O6 Zn5 2.028 . S
O6 C12 1.247 . S
O7 Zn3 2.035 . S
O7 C12 1.258 . S
O8 C1 1.247 . S
O8 Zn5 2.028 1_655 S
O9 C1 1.258 . S
O9 Zn3 2.035 1_655 S
O10 Zn3 2.028 1_655 S
O10 C13 1.247 . S
O11 Zn5 2.035 1_655 S
O11 C13 1.258 . S
C12 O6 1.247 . S
C12 O7 1.258 . S
C13 O10 1.247 . S
C13 O11 1.258 . S
C14 O16 1.247 . S
C14 O18 1.258 . S
C15 O22 1.247 . S
C15 O23 1.258 . S
O16 C14 1.247 . S
O16 Zn17 2.028 . S
Zn17 O16 2.028 . S
Zn17 O21 2.035 . S
Zn17 O23 2.035 . S
Zn17 O24 2.028 . S
O18 C14 1.258 . S
O18 Zn19 2.035 . S
Zn19 O18 2.035 . S
Zn19 O20 2.028 . S
Zn19 O22 2.028 . S
Zn19 O25 2.035 . S
O20 Zn19 2.028 . S
O20 C26 1.247 . S
O21 Zn17 2.035 . S
O21 C26 1.258 . S
O22 C15 1.247 . S
O22 Zn19 2.028 . S
O23 C15 1.258 . S
O23 Zn17 2.035 . S
O24 Zn17 2.028 . S
O24 C27 1.247 . S
O25 Zn19 2.035 . S
O25 C27 1.258 . S
C26 O20 1.247 . S
C26 O21 1.258 . S
C27 O24 1.247 . S
C27 O25 1.258 . S
C28 O30 1.247 . S
C28 O32 1.258 . S
C29 O36 1.247 . S
C29 O37 1.258 . S
O30 C28 1.247 . S
O30 Zn31 2.028 . S
Zn31 O30 2.028 . S
Zn31 O35 2.035 . S
Zn31 O37 2.035 1_655 S
Zn31 O38 2.028 1_655 S
O32 C28 1.258 . S
O32 Zn33 2.035 . S
Zn33 O32 2.035 . S
Zn33 O34 2.028 . S
Zn33 O36 2.028 1_655 S
Zn33 O39 2.035 1_655 S
O34 Zn33 2.028 . S
O34 C40 1.247 . S
O35 Zn31 2.035 . S
O35 C40 1.258 . S
O36 C29 1.247 . S
O36 Zn33 2.028 1_455 S
O37 C29 1.258 . S
O37 Zn31 2.035 1_455 S
O38 Zn31 2.028 1_455 S
O38 C41 1.247 . S
O39 Zn33 2.035 1_455 S
O39 C41 1.258 . S
C40 O34 1.247 . S
C40 O35 1.258 . S
C41 O38 1.247 . S
C41 O39 1.258 . S
C42 O44 1.247 . S
C42 O46 1.258 . S
C43 O50 1.247 . S
C43 O51 1.258 . S
O44 C42 1.247 . S
O44 Zn45 2.028 . S
Zn45 O44 2.028 . S
Zn45 O49 2.035 . S
Zn45 O51 2.035 . S
Zn45 O52 2.028 . S
O46 C42 1.258 . S
O46 Zn47 2.035 . S
Zn47 O46 2.035 . S
Zn47 O48 2.028 . S
Zn47 O50 2.028 . S
Zn47 O53 2.035 . S
O48 Zn47 2.028 . S
O48 C54 1.247 . S
O49 Zn45 2.035 . S
O49 C54 1.258 . S
O50 C43 1.247 . S
O50 Zn47 2.028 . S
O51 C43 1.258 . S
O51 Zn45 2.035 . S
O52 Zn45 2.028 . S
O52 C55 1.247 . S
O53 Zn47 2.035 . S
O53 C55 1.258 . S
C54 O48 1.247 . S
C54 O49 1.258 . S
C55 O52 1.247 . S
C55 O53 1.258 . S
C56 O58 1.247 . S
C56 O60 1.258 . S
C57 O64 1.247 . S
C57 O65 1.258 . S
O58 C56 1.247 . S
O58 Zn59 2.028 . S
Zn59 O58 2.028 . S
Zn59 O63 2.035 . S
Zn59 O65 2.035 . S
Zn59 O66 2.028 . S
O60 C56 1.258 . S
O60 Zn61 2.035 . S
Zn61 O60 2.035 . S
Zn61 O62 2.028 . S
Zn61 O64 2.028 . S
Zn61 O67 2.035 . S
O62 Zn61 2.028 . S
O62 C68 1.247 . S
O63 Zn59 2.035 . S
O63 C68 1.258 . S
O64 C57 1.247 . S
O64 Zn61 2.028 . S
O65 C57 1.258 . S
O65 Zn59 2.035 . S
O66 Zn59 2.028 . S
O66 C69 1.247 . S
O67 Zn61 2.035 . S
O67 C69 1.258 . S
C68 O62 1.247 . S
C68 O63 1.258 . S
C69 O66 1.247 . S
C69 O67 1.258 . S
C70 O72 1.247 . S
C70 O74 1.258 . S
C71 O78 1.247 . S
C71 O79 1.258 . S
O72 C70 1.247 . S
O72 Zn73 2.028 . S
Zn73 O72 2.028 . S
Zn73 O77 2.035 . S
Zn73 O79 2.035 1_655 S
Zn73 O80 2.028 1_655 S
O74 C70 1.258 . S
O74 Zn75 2.035 . S
Zn75 O74 2.035 . S
Zn75 O76 2.028 . S
Zn75 O78 2.028 1_655 S
Zn75 O81 2.035 1_655 S
O76 Zn75 2.028 . S
O76 C82 1.247 . S
O77 Zn73 2.035 . S
O77 C82 1.258 . S
O78 C71 1.247 . S
O78 Zn75 2.028 1_455 S
O79 C71 1.258 . S
O79 Zn73 2.035 1_455 S
O80 Zn73 2.028 1_455 S
O80 C83 1.247 . S
O81 Zn75 2.035 1_455 S
O81 C83 1.258 . S
C82 O76 1.247 . S
C82 O77 1.258 . S
C83 O80 1.247 . S
C83 O81 1.258 . S
C84 O86 1.247 . S
C84 O88 1.258 . S
C85 O92 1.247 . S
C85 O93 1.258 . S
O86 C84 1.247 . S
O86 Zn87 2.028 . S
Zn87 O86 2.028 . S
Zn87 O91 2.035 . S
Zn87 O93 2.035 . S
Zn87 O94 2.028 . S
O88 C84 1.258 . S
O88 Zn89 2.035 . S
Zn89 O88 2.035 . S
Zn89 O90 2.028 . S
Zn89 O92 2.028 . S
Zn89 O95 2.035 . S
O90 Zn89 2.028 . S
O90 C96 1.247 . S
O91 Zn87 2.035 . S
O91 C96 1.258 . S
O92 C85 1.247 . S
O92 Zn89 2.028 . S
O93 C85 1.258 . S
O93 Zn87 2.035 . S
O94 Zn87 2.028 . S
O94 C97 1.247 . S
O95 Zn89 2.035 . S
O95 C97 1.258 . S
C96 O90 1.247 . S
C96 O91 1.258 . S
C97 O94 1.247 . S
C97 O95 1.258 . S
C98 O100 1.247 . S
C98 O102 1.258 . S
C99 O106 1.247 . S
C99 O107 1.258 . S
O100 C98 1.247 . S
O100 Zn101 2.028 1_655 S
Zn101 O100 2.028 1_455 S
Zn101 O105 2.035 1_455 S
Zn101 O107 2.035 . S
Zn101 O108 2.028 . S
O102 C98 1.258 . S
O102 Zn103 2.035 1_655 S
Zn103 O102 2.035 1_455 S
Zn103 O104 2.028 1_455 S
Zn103 O106 2.028 . S
Zn103 O109 2.035 . S
O104 Zn103 2.028 1_655 S
O104 C110 1.247 . S
O105 Zn101 2.035 1_655 S
O105 C110 1.258 . S
O106 C99 1.247 . S
O106 Zn103 2.028 . S
O107 C99 1.258 . S
O107 Zn101 2.035 . S
O108 Zn101 2.028 . S
O108 C111 1.247 . S
O109 Zn103 2.035 . S
O109 C111 1.258 . S
C110 O104 1.247 . S
C110 O105 1.258 . S
C111 O108 1.247 . S
C111 O109 1.258 . S
C13 C29 2.747 1_655 S
C54 C15 2.740 . S
C84 C57 2.740 1_544 S
C71 C110 2.740 1_464 S
C96 C1 1.949 . S
C27 C98 1.949 . S
C41 C69 1.952 . S
C42 C83 1.949 . S
C85 C12 2.678 . S
C14 C111 2.678 . S
C56 C28 2.670 . S
C70 C55 2.678 . S
C26 C0 1.285 . S
C40 C43 1.282 . S
C82 C68 1.285 1_554 S
C97 C99 1.285 1_554 S
