# Generated by pormake.
# Topology dmp, (4)-cn, num edge types: 1
# Building blocks:
#     Node 0, Type 0, BuildingBlock: NAHDIM_clean_sbu_0, # of connection points: 4
#     Node 1, Type 0, BuildingBlock: NAHDIM_clean_sbu_0, # of connection points: 4
#     Node 2, Type 0, BuildingBlock: NAHDIM_clean_sbu_0, # of connection points: 4
#     Node 3, Type 0, BuildingBlock: NAHDIM_clean_sbu_0, # of connection points: 4
#     Edge 4, Type (0, 0), BuildingBlock: OJICUG_clean_linker_0, # of connection points: 2
#     Edge 5, Type (0, 0), BuildingBlock: OJICUG_clean_linker_0, # of connection points: 2
#     Edge 6, Type (0, 0), BuildingBlock: OJICUG_clean_linker_0, # of connection points: 2
#     Edge 7, Type (0, 0), BuildingBlock: OJICUG_clean_linker_0, # of connection points: 2
#     Edge 8, Type (0, 0), BuildingBlock: OJICUG_clean_linker_0, # of connection points: 2
#     Edge 9, Type (0, 0), BuildingBlock: OJICUG_clean_linker_0, # of connection points: 2
#     Edge 10, Type (0, 0), BuildingBlock: OJICUG_clean_linker_0, # of connection points: 2
#     Edge 11, Type (0, 0), BuildingBlock: OJICUG_clean_linker_0, # of connection points: 2
# Relax obj value: 0.243
# Max RMSD: 0.269
# Mean RMSD: 0.269
data_MOF--net-dmp--node1-NAHDIM_clean_sbu_0--edge1-OJICUG_clean_linker_0
_symmetry_space_group_name_H-M    P1
_symmetry_Int_Tables_number       1
_symmetry_cell_setting            triclinic
loop_
_symmetry_equiv_pos_as_xyz
'x, y, z'
_cell_length_a     28.750307
_cell_length_b     12.370916
_cell_length_c     14.520956
_cell_angle_alpha  89.771272
_cell_angle_beta   89.803937
_cell_angle_gamma 97.734516
loop_
_atom_site_label
_atom_site_type_symbol
_atom_site_fract_x
_atom_site_fract_y
_atom_site_fract_z
_atom_type_partial_charge
C0 C 0.0193 0.38264 0.35448 0.0
O1 O 0.02865 0.41949 0.27053 0.0
O2 O 0.02583 0.12577 0.19638 0.0
Zn3 Zn 0.06876 0.21281 0.28722 0.0
O4 O 0.11554 0.31995 0.21992 0.0
C5 C 0.10709 0.01536 0.32736 0.0
O6 O 0.0699 0.97157 0.28188 0.0
O7 O 0.03266 0.29273 0.37855 0.0
C8 C 0.14709 0.28422 0.17138 0.0
O9 O 0.1451 0.17858 0.15884 0.0
C10 C 0.02138 0.15552 0.11334 0.0
O11 O 0.04296 0.25055 0.08579 0.0
O12 O 0.11038 0.11537 0.34923 0.0
C13 C 0.42448 0.61937 0.34137 0.0
O14 O 0.42242 0.58196 0.25682 0.0
O15 O 0.40238 0.86915 0.17621 0.0
Zn16 Zn 0.36441 0.76407 0.26357 0.0
O17 O 0.3246 0.64122 0.19872 0.0
C18 C 0.28267 0.85637 0.26332 0.0
O19 O 0.28905 0.83138 0.17675 0.0
O20 O 0.40358 0.70083 0.36076 0.0
C21 C 0.3223 0.56231 0.14253 0.0
O22 O 0.36044 0.53632 0.10318 0.0
C23 C 0.42507 0.8419 0.10673 0.0
O24 O 0.42603 0.73801 0.08993 0.0
O25 O 0.31437 0.84296 0.32163 0.0
C26 C 0.92227 0.63271 0.6114 0.0
O27 O 0.91291 0.59587 0.69535 0.0
O28 O 0.91573 0.88958 0.7695 0.0
Zn29 Zn 0.8728 0.80255 0.67866 0.0
O30 O 0.82602 0.6954 0.74595 0.0
C31 C 0.83447 0.99999 0.63852 0.0
O32 O 0.87167 0.04378 0.68401 0.0
O33 O 0.9089 0.72262 0.58732 0.0
C34 C 0.79448 0.73113 0.79449 0.0
O35 O 0.79646 0.83677 0.80703 0.0
C36 C 0.92018 0.85983 0.85254 0.0
O37 O 0.8986 0.7648 0.88009 0.0
O38 O 0.83118 0.89999 0.61665 0.0
C39 C 0.51709 0.39601 0.62446 0.0
O40 O 0.51915 0.43341 0.70901 0.0
O41 O 0.53918 0.14621 0.78962 0.0
Zn42 Zn 0.57715 0.2513 0.70227 0.0
O43 O 0.61696 0.37413 0.76713 0.0
C44 C 0.65889 0.15899 0.70253 0.0
O45 O 0.65251 0.18397 0.7891 0.0
O46 O 0.53799 0.31454 0.60507 0.0
C47 C 0.61926 0.45304 0.82333 0.0
O48 O 0.58112 0.47903 0.86267 0.0
C49 C 0.51649 0.17346 0.8591 0.0
O50 O 0.51552 0.27734 0.87589 0.0
O51 O 0.6272 0.1724 0.64422 0.0
C52 C 0.23344 0.96618 0.35978 0.0
C53 C 0.23707 0.88788 0.29139 0.0
H54 H 0.18878 0.06922 0.42515 0.0
C55 C 0.19648 0.84232 0.24474 0.0
H56 H 0.26429 1.00218 0.39681 0.0
C57 C 0.15339 0.87747 0.26281 0.0
C58 C 0.15007 0.96168 0.326 0.0
H59 H 0.19817 0.78113 0.19219 0.0
H60 H 0.12332 0.84315 0.22271 0.0
C61 C 0.19028 1.00402 0.37611 0.0
C62 C 0.19262 0.47011 0.16413 0.0
C63 C 0.18978 0.35835 0.14522 0.0
H64 H 0.23683 0.62176 0.17714 0.0
C65 C 0.22991 0.31695 0.11189 0.0
H66 H 0.16232 0.50498 0.18884 0.0
C67 C 0.27295 0.3847 0.10476 0.0
C68 C 0.27636 0.49444 0.13129 0.0
H69 H 0.22875 0.23111 0.09622 0.0
H70 H 0.30389 0.34968 0.08399 0.0
C71 C 0.23542 0.53717 0.15748 0.0
C72 C 0.74508 0.17303 0.72113 0.0
C73 C 0.7045 0.12747 0.67447 0.0
H74 H 0.81824 0.1722 0.74318 0.0
C75 C 0.70813 0.04918 0.60608 0.0
H76 H 0.74339 0.23422 0.77368 0.0
C77 C 0.75129 0.01133 0.58977 0.0
C78 C 0.79149 0.05367 0.63989 0.0
H79 H 0.67728 0.01318 0.56904 0.0
H80 H 0.75279 0.94614 0.54072 0.0
C81 C 0.78817 0.13789 0.70307 0.0
C82 C 0.71165 0.6984 0.85397 0.0
C83 C 0.75178 0.657 0.82065 0.0
H84 H 0.63767 0.66567 0.88187 0.0
C85 C 0.74894 0.54524 0.80174 0.0
H86 H 0.71281 0.78425 0.86964 0.0
C87 C 0.70614 0.47818 0.80838 0.0
C88 C 0.6652 0.52091 0.83458 0.0
H89 H 0.77924 0.51036 0.77703 0.0
H90 H 0.70473 0.39358 0.78873 0.0
C91 C 0.66862 0.63066 0.8611 0.0
C92 C -0.02566 0.97584 0.07483 0.0
C93 C -0.00518 0.08056 0.04697 0.0
H94 H 0.93508 0.82387 0.03534 0.0
C95 C -0.009 0.11157 0.95438 0.0
H96 H -0.02319 0.94913 0.14556 0.0
C97 C 0.96722 0.03951 0.89106 0.0
C98 C 0.94674 0.93479 0.91891 0.0
H99 H 0.00648 0.19148 0.93054 0.0
H100 H 0.96475 0.06622 0.82032 0.0
C101 C 0.95057 0.90378 0.0115 0.0
C102 C 0.49557 0.97755 0.90636 0.0
C103 C 0.49275 0.08863 0.92206 0.0
H104 H 0.47669 0.81279 0.95231 0.0
C105 C 0.46771 0.11782 -0.0007 0.0
H106 H 0.51469 0.95216 0.84765 0.0
C107 C 0.44598 0.03781 0.05946 0.0
C108 C 0.4488 0.92673 0.04377 0.0
H109 H 0.46486 0.20257 0.01351 0.0
H110 H 0.42686 0.0632 0.11818 0.0
C111 C 0.47385 0.89754 0.96652 0.0
C112 C 0.95749 0.60764 0.45568 0.0
C113 C 0.94727 0.56911 0.54566 0.0
H114 H -0.01189 0.57917 0.32496 0.0
C115 C 0.96083 0.46844 0.57218 0.0
H116 H 0.94754 0.68478 0.43295 0.0
C117 C -0.01593 0.40772 0.5102 0.0
C118 C -0.0057 0.44625 0.42022 0.0
H119 H 0.95346 0.43619 0.64092 0.0
H120 H -0.00597 0.33058 0.53293 0.0
C121 C -0.01926 0.54692 0.3937 0.0
C122 C 0.46952 0.46979 0.39237 0.0
C123 C 0.44869 0.56328 0.41371 0.0
H124 H 0.50712 0.34328 0.44189 0.0
C125 C 0.45022 0.60054 0.50507 0.0
H126 H 0.46885 0.43856 0.32274 0.0
C127 C 0.47206 0.54558 0.57347 0.0
C128 C 0.49288 0.45209 0.55212 0.0
H129 H 0.43445 0.67209 0.52395 0.0
H130 H 0.47272 0.57681 0.64309 0.0
C131 C 0.49135 0.41483 0.46076 0.0
loop_
_geom_bond_atom_site_label_1
_geom_bond_atom_site_label_2
_geom_bond_distance
_geom_bond_site_symmetry_2
_ccdc_geom_bond_type
C0 O1 1.160 . S
C0 O7 1.185 . S
O1 C0 1.160 . S
O2 Zn3 1.899 . S
O2 C10 1.284 . S
Zn3 O2 1.899 . S
Zn3 O4 2.032 . S
Zn3 O7 2.086 . S
Zn3 O12 1.977 . S
O4 Zn3 2.032 . S
O4 C8 1.278 . S
C5 O6 1.203 . S
C5 O12 1.267 . S
O6 C5 1.203 . S
O7 C0 1.185 . S
O7 Zn3 2.086 . S
C8 O4 1.278 . S
C8 O9 1.211 . S
O9 C8 1.211 . S
C10 O2 1.284 . S
C10 O11 1.273 . S
O11 C10 1.273 . S
O12 Zn3 1.977 . S
O12 C5 1.267 . S
C13 O14 1.160 . S
C13 O20 1.185 . S
O14 C13 1.160 . S
O15 Zn16 1.899 . S
O15 C23 1.284 . S
Zn16 O15 1.899 . S
Zn16 O17 2.032 . S
Zn16 O20 2.086 . S
Zn16 O25 1.977 . S
O17 Zn16 2.032 . S
O17 C21 1.278 . S
C18 O19 1.203 . S
C18 O25 1.267 . S
O19 C18 1.203 . S
O20 C13 1.185 . S
O20 Zn16 2.086 . S
C21 O17 1.278 . S
C21 O22 1.211 . S
O22 C21 1.211 . S
C23 O15 1.284 . S
C23 O24 1.273 . S
O24 C23 1.273 . S
O25 Zn16 1.977 . S
O25 C18 1.267 . S
C26 O27 1.160 . S
C26 O33 1.185 . S
O27 C26 1.160 . S
O28 Zn29 1.899 . S
O28 C36 1.284 . S
Zn29 O28 1.899 . S
Zn29 O30 2.032 . S
Zn29 O33 2.086 . S
Zn29 O38 1.977 . S
O30 Zn29 2.032 . S
O30 C34 1.278 . S
C31 O32 1.203 . S
C31 O38 1.267 . S
O32 C31 1.203 . S
O33 C26 1.185 . S
O33 Zn29 2.086 . S
C34 O30 1.278 . S
C34 O35 1.211 . S
O35 C34 1.211 . S
C36 O28 1.284 . S
C36 O37 1.273 . S
O37 C36 1.273 . S
O38 Zn29 1.977 . S
O38 C31 1.267 . S
C39 O40 1.160 . S
C39 O46 1.185 . S
O40 C39 1.160 . S
O41 Zn42 1.899 . S
O41 C49 1.284 . S
Zn42 O41 1.899 . S
Zn42 O43 2.032 . S
Zn42 O46 2.086 . S
Zn42 O51 1.977 . S
O43 Zn42 2.032 . S
O43 C47 1.278 . S
C44 O45 1.203 . S
C44 O51 1.267 . S
O45 C44 1.203 . S
O46 C39 1.185 . S
O46 Zn42 2.086 . S
C47 O43 1.278 . S
C47 O48 1.211 . S
O48 C47 1.211 . S
C49 O41 1.284 . S
C49 O50 1.273 . S
O50 C49 1.273 . S
O51 Zn42 1.977 . S
O51 C44 1.267 . S
C52 C53 1.387 . S
C52 H56 0.950 . S
C52 C61 1.390 1_565 S
C53 C52 1.387 . S
C53 C55 1.387 . S
H54 C61 0.950 . S
C55 C53 1.387 . S
C55 C57 1.390 1_565 S
C55 H59 0.950 . S
H56 C52 0.950 . S
C57 C55 1.390 1_545 S
C57 C58 1.387 . S
C57 H60 0.950 . S
C58 C57 1.387 . S
C58 C61 1.387 . S
H59 C55 0.950 . S
H60 C57 0.950 . S
C61 C52 1.390 1_545 S
C61 H54 0.950 . S
C61 C58 1.387 . S
C62 C63 1.387 . S
C62 H66 0.950 . S
C62 C71 1.390 . S
C63 C62 1.387 . S
C63 C65 1.387 . S
H64 C71 0.950 . S
C65 C63 1.387 . S
C65 C67 1.390 . S
C65 H69 0.950 . S
H66 C62 0.950 . S
C67 C65 1.390 . S
C67 C68 1.387 . S
C67 H70 0.950 . S
C68 C67 1.387 . S
C68 C71 1.387 . S
H69 C65 0.950 . S
H70 C67 0.950 . S
C71 C62 1.390 . S
C71 H64 0.950 . S
C71 C68 1.387 . S
C72 C73 1.387 . S
C72 H76 0.950 . S
C72 C81 1.390 1_545 S
C73 C72 1.387 . S
C73 C75 1.387 . S
H74 C81 0.950 . S
C75 C73 1.387 . S
C75 C77 1.390 1_545 S
C75 H79 0.950 . S
H76 C72 0.950 . S
C77 C75 1.390 1_565 S
C77 C78 1.387 . S
C77 H80 0.950 . S
C78 C77 1.387 . S
C78 C81 1.387 . S
H79 C75 0.950 . S
H80 C77 0.950 . S
C81 C72 1.390 1_565 S
C81 H74 0.950 . S
C81 C78 1.387 . S
C82 C83 1.387 . S
C82 H86 0.950 . S
C82 C91 1.390 . S
C83 C82 1.387 . S
C83 C85 1.387 . S
H84 C91 0.950 . S
C85 C83 1.387 . S
C85 C87 1.390 . S
C85 H89 0.950 . S
H86 C82 0.950 . S
C87 C85 1.390 . S
C87 C88 1.387 . S
C87 H90 0.950 . S
C88 C87 1.387 . S
C88 C91 1.387 . S
H89 C85 0.950 . S
H90 C87 0.950 . S
C91 C82 1.390 . S
C91 H84 0.950 . S
C91 C88 1.387 . S
C92 C93 1.387 . S
C92 H96 0.950 . S
C92 C101 1.390 1_445 S
C93 C92 1.387 . S
C93 C95 1.387 1_554 S
H94 C101 0.950 . S
C95 C93 1.387 1_556 S
C95 C97 1.390 1_445 S
C95 H99 0.950 . S
H96 C92 0.950 . S
C97 C95 1.390 1_665 S
C97 C98 1.387 . S
C97 H100 0.950 . S
C98 C97 1.387 . S
C98 C101 1.387 1_556 S
H99 C95 0.950 . S
H100 C97 0.950 . S
C101 C92 1.390 1_665 S
C101 H94 0.950 . S
C101 C98 1.387 1_554 S
C102 C103 1.387 . S
C102 H106 0.950 . S
C102 C111 1.390 1_545 S
C103 C102 1.387 . S
C103 C105 1.387 1_556 S
H104 C111 0.950 . S
C105 C103 1.387 1_554 S
C105 C107 1.390 1_545 S
C105 H109 0.950 . S
H106 C102 0.950 . S
C107 C105 1.390 1_565 S
C107 C108 1.387 . S
C107 H110 0.950 . S
C108 C107 1.387 . S
C108 C111 1.387 1_554 S
H109 C105 0.950 . S
H110 C107 0.950 . S
C111 C102 1.390 1_565 S
C111 H104 0.950 . S
C111 C108 1.387 1_556 S
C112 C113 1.387 . S
C112 H116 0.950 . S
C112 C121 1.397 . S
C113 C112 1.387 . S
C113 C115 1.380 1_655 S
H114 C121 0.950 . S
C115 C113 1.380 1_455 S
C115 C117 1.397 . S
C115 H119 0.950 . S
H116 C112 0.950 . S
C117 C115 1.397 . S
C117 C118 1.387 . S
C117 H120 0.950 . S
C118 C117 1.387 . S
C118 C121 1.380 1_455 S
H119 C115 0.950 . S
H120 C117 0.950 . S
C121 C112 1.397 . S
C121 H114 0.950 . S
C121 C118 1.380 1_655 S
C122 C123 1.387 . S
C122 H126 0.950 . S
C122 C131 1.390 . S
C123 C122 1.387 . S
C123 C125 1.387 . S
H124 C131 0.950 . S
C125 C123 1.387 . S
C125 C127 1.390 . S
C125 H129 0.950 . S
H126 C122 0.950 . S
C127 C125 1.390 . S
C127 C128 1.387 . S
C127 H130 0.950 . S
C128 C127 1.387 . S
C128 C131 1.387 . S
H129 C125 0.950 . S
H130 C127 0.950 . S
C131 C122 1.390 . S
C131 H124 0.950 . S
C131 C128 1.387 . S
C53 C18 1.118 . S
C58 C5 1.118 . S
C63 C8 0.938 . S
C68 C21 0.938 . S
C73 C44 1.118 . S
C78 C31 1.118 . S
C83 C34 0.938 . S
C88 C47 0.938 . S
C93 C10 1.645 . S
C98 C36 1.645 . S
C103 C49 1.646 . S
C108 C23 1.646 . S
C113 C26 1.590 . S
C118 C0 1.590 . S
C123 C13 1.589 . S
C128 C39 1.589 . S
