# Generated by pormake.
# Topology dmp, (4)-cn, num edge types: 1
# Building blocks:
#     Node 0, Type 0, BuildingBlock: CEKHIL_clean_sbu_0, # of connection points: 4
#     Node 1, Type 0, BuildingBlock: CEKHIL_clean_sbu_0, # of connection points: 4
#     Node 2, Type 0, BuildingBlock: CEKHIL_clean_sbu_0, # of connection points: 4
#     Node 3, Type 0, BuildingBlock: CEKHIL_clean_sbu_0, # of connection points: 4
#     Edge 4, Type (0, 0), BuildingBlock: CIFDUS_clean_linker_0, # of connection points: 2
#     Edge 5, Type (0, 0), BuildingBlock: CIFDUS_clean_linker_0, # of connection points: 2
#     Edge 6, Type (0, 0), BuildingBlock: CIFDUS_clean_linker_0, # of connection points: 2
#     Edge 7, Type (0, 0), BuildingBlock: CIFDUS_clean_linker_0, # of connection points: 2
#     Edge 8, Type (0, 0), BuildingBlock: CIFDUS_clean_linker_0, # of connection points: 2
#     Edge 9, Type (0, 0), BuildingBlock: CIFDUS_clean_linker_0, # of connection points: 2
#     Edge 10, Type (0, 0), BuildingBlock: CIFDUS_clean_linker_0, # of connection points: 2
#     Edge 11, Type (0, 0), BuildingBlock: CIFDUS_clean_linker_0, # of connection points: 2
# Relax obj value: 0.088
# Max RMSD: 0.195
# Mean RMSD: 0.195
data_MOF--net-dmp--node1-CEKHIL_clean_sbu_0--edge1-CIFDUS_clean_linker_0
_symmetry_space_group_name_H-M    P1
_symmetry_Int_Tables_number       1
_symmetry_cell_setting            triclinic
loop_
_symmetry_equiv_pos_as_xyz
'x, y, z'
_cell_length_a     34.041478
_cell_length_b     16.699397
_cell_length_c     12.69702
_cell_angle_alpha  90.241379
_cell_angle_beta   90.277087
_cell_angle_gamma 91.596565
loop_
_atom_site_label
_atom_site_type_symbol
_atom_site_fract_x
_atom_site_fract_y
_atom_site_fract_z
_atom_type_partial_charge
Co0 Co 0.10339 0.22416 0.28909 0.0
O1 O 0.06567 0.30705 0.28763 0.0
O2 O 0.10022 0.2732 0.42779 0.0
C3 C 0.0646 0.13439 0.20259 0.0
O4 O 0.14467 0.13994 0.3173 0.0
Co5 Co 0.1348 0.16131 0.07529 0.0
O6 O 0.15435 0.0739 0.16489 0.0
C7 C 0.16763 0.3124 0.1658 0.0
C8 C 0.07366 0.31841 0.38638 0.0
C9 C 0.15946 0.08245 0.26379 0.0
O10 O 0.14626 0.30267 0.2482 0.0
O11 O 0.16548 0.26573 0.08547 0.0
O12 O 0.06135 0.14331 0.30382 0.0
O13 O 0.08874 0.18374 0.15676 0.0
Co14 Co 0.40745 0.72223 0.21024 0.0
O15 O 0.44525 0.63912 0.20079 0.0
O16 O 0.41473 0.67318 0.34701 0.0
C17 C 0.44337 0.81328 0.11879 0.0
O18 O 0.36744 0.80612 0.24991 0.0
Co19 Co 0.36963 0.78981 0.00579 0.0
O20 O 0.35166 0.87426 0.10353 0.0
C21 C 0.34247 0.63326 0.08971 0.0
C22 C 0.44044 0.62868 0.30105 0.0
C23 C 0.35049 0.86408 0.2029 0.0
O24 O 0.36339 0.64412 0.17357 0.0
O25 O 0.34371 0.68033 0.01033 0.0
O26 O 0.44994 0.80319 0.2187 0.0
O27 O 0.41781 0.76442 0.07676 0.0
Co28 Co 0.90959 0.75456 0.71853 0.0
O29 O 0.94876 0.67423 0.72195 0.0
O30 O 0.91296 0.70301 0.58186 0.0
C31 C 0.94726 0.84824 0.80141 0.0
O32 O 0.86642 0.8339 0.68747 0.0
Co33 Co 0.87723 0.8235 0.92766 0.0
O34 O 0.85683 0.90733 0.83342 0.0
C35 C 0.84525 0.66902 0.8435 0.0
C36 C 0.94036 0.6603 0.62389 0.0
C37 C 0.85065 0.89259 0.73617 0.0
O38 O 0.86798 0.67475 0.76318 0.0
O39 O 0.84608 0.71945 0.91994 0.0
O40 O 0.95037 0.83786 0.70035 0.0
O41 O 0.92366 0.79888 0.84908 0.0
Co42 Co 0.6023 0.27111 0.78062 0.0
O43 O 0.56076 0.34661 0.79031 0.0
O44 O 0.59456 0.32243 0.64575 0.0
C45 C 0.5695 0.17163 0.8653 0.0
O46 O 0.64689 0.19778 0.74081 0.0
Co47 Co 0.64082 0.20373 0.98461 0.0
O48 O 0.66633 0.13018 0.88415 0.0
C49 C 0.66313 0.36573 0.90879 0.0
C50 C 0.56654 0.36104 0.69124 0.0
C51 C 0.66772 0.14447 0.7857 0.0
O52 O 0.64262 0.35511 0.82418 0.0
O53 O 0.66321 0.31635 0.9857 0.0
O54 O 0.56354 0.1829 0.76533 0.0
O55 O 0.59253 0.22353 0.91107 0.0
H56 H 0.28141 0.81767 0.28753 0.0
H57 H 0.35786 0.0238 0.23935 0.0
H58 H 0.30461 0.11284 0.28565 0.0
H59 H 0.23355 0.13109 0.29945 0.0
H60 H 0.15522 0.92499 0.31775 0.0
H61 H 0.21143 0.83661 0.32691 0.0
C62 C 0.28664 0.88202 0.29164 0.0
C63 C 0.32338 0.91459 0.26152 0.0
C64 C 0.25517 0.93264 0.3118 0.0
C65 C 0.32983 -0.00213 0.26365 0.0
C66 C 0.2993 0.04861 0.28917 0.0
C67 C 0.22902 0.06708 0.31054 0.0
C68 C 0.19058 0.03427 0.30984 0.0
C69 C 0.26139 0.01673 0.30792 0.0
C70 C 0.18468 0.95125 0.32029 0.0
C71 C 0.21682 0.90083 0.32396 0.0
H72 H 0.21325 0.36422 0.00279 0.0
H73 H 0.19133 0.40541 0.3333 0.0
H74 H 0.24532 0.50416 0.34013 0.0
H75 H 0.299 0.57865 0.2528 0.0
H76 H 0.31874 0.54313 0.92086 0.0
H77 H 0.26574 0.44115 0.9145 0.0
C78 C 0.22013 0.39494 0.0763 0.0
C79 C 0.19823 0.3771 0.1673 0.0
C80 C 0.25116 0.45192 0.0798 0.0
C81 C 0.20751 0.418 0.26174 0.0
C82 C 0.23858 0.47422 0.26604 0.0
C83 C 0.29198 0.54769 0.1795 0.0
C84 C 0.31291 0.5673 0.08772 0.0
C85 C 0.26075 0.49121 0.17578 0.0
C86 C 0.30304 0.52844 0.99255 0.0
C87 C 0.2727 0.4705 0.98883 0.0
H88 H 0.67847 0.99177 0.71756 0.0
H89 H 0.73353 0.22677 0.73543 0.0
H90 H 0.79766 0.17027 0.70039 0.0
H91 H 0.83879 0.05075 0.70432 0.0
H92 H 0.78372 0.81638 0.67544 0.0
H93 H 0.71885 0.87547 0.67191 0.0
C94 C 0.70433 0.03062 0.70915 0.0
C95 C 0.70162 0.11294 0.72935 0.0
C96 C 0.74112 -0.00233 0.68824 0.0
C97 C 0.73514 0.16314 0.71931 0.0
C98 C 0.77184 0.1308 0.7003 0.0
C99 C 0.81262 0.01321 0.69204 0.0
C100 C 0.81581 0.92962 0.69045 0.0
C101 C 0.77541 0.0477 0.69011 0.0
C102 C 0.78185 0.88108 0.67556 0.0
C103 C 0.74472 0.91477 0.67512 0.0
H104 H 0.79417 0.6294 0.00086 0.0
H105 H 0.82531 0.56728 0.68171 0.0
H106 H 0.76934 0.47366 0.67141 0.0
H107 H 0.71136 0.40972 0.752 0.0
H108 H 0.68237 0.46404 0.07401 0.0
H109 H 0.73725 0.56213 0.0835 0.0
C110 C 0.78892 0.59508 0.92922 0.0
C111 C 0.81397 0.60571 0.84225 0.0
C112 C 0.75665 0.54113 0.92363 0.0
C113 C 0.80671 0.56029 0.75022 0.0
C114 C 0.77449 0.50708 0.74378 0.0
C115 C 0.7167 0.44429 0.82349 0.0
C116 C 0.69261 0.43148 0.91149 0.0
C117 C 0.74909 0.49766 0.82956 0.0
C118 C 0.7004 0.4742 0.005 0.0
C119 C 0.73185 0.52961 0.01058 0.0
H120 H 0.06249 0.11366 0.99095 0.0
H121 H 0.01295 0.02228 0.28035 0.0
H122 H 0.97135 0.92727 0.18068 0.0
H123 H 0.94909 0.87072 0.01206 0.0
H124 H 0.99857 0.96114 0.72217 0.0
H125 H 0.04001 0.057 0.82161 0.0
C126 C 0.04269 0.07273 0.0322 0.0
C127 C 0.04079 0.07479 0.14275 0.0
C128 C 0.01872 0.01872 0.97444 0.0
C129 C 0.01496 0.02168 0.19523 0.0
C130 C 0.99111 0.96754 0.13835 0.0
C131 C 0.9688 0.91164 0.9705 0.0
C132 C 0.97079 0.90904 0.86003 0.0
C133 C 0.99268 0.96579 0.02803 0.0
C134 C 0.99652 0.96219 0.80726 0.0
C135 C 0.02027 0.01676 0.86403 0.0
H136 H 0.51458 0.06245 0.79478 0.0
H137 H 0.58208 0.13315 0.07012 0.0
H138 H 0.54894 0.02887 0.17301 0.0
H139 H 0.49995 0.91915 0.18615 0.0
H140 H 0.43204 0.8483 0.91171 0.0
H141 H 0.46598 0.95117 0.8075 0.0
C142 C 0.52216 0.05464 0.8771 0.0
C143 C 0.55069 0.10539 0.92468 0.0
C144 C 0.50273 -0.00512 0.93628 0.0
C145 C 0.56017 0.09483 0.03154 0.0
C146 C 0.54119 0.03531 0.09063 0.0
C147 C 0.49255 0.92635 0.1036 0.0
C148 C 0.46351 0.87646 0.05683 0.0
C149 C 0.51224 0.98538 0.04406 0.0
C150 C 0.45428 0.88619 0.94967 0.0
C151 C 0.47371 0.94489 0.88991 0.0
H152 H 0.99783 0.56578 0.69707 0.0
H153 H 0.93057 0.61667 0.41723 0.0
H154 H 0.96627 0.51529 0.31981 0.0
H155 H 0.01633 0.41304 0.31444 0.0
H156 H 0.08361 0.36133 0.59389 0.0
H157 H 0.04796 0.46287 0.69172 0.0
C158 C 0.9909 0.55475 0.61473 0.0
C159 C 0.96153 0.59874 0.56437 0.0
C160 C 0.01153 0.4965 0.55943 0.0
C161 C 0.95299 0.58366 0.45776 0.0
C162 C 0.9734 0.52575 0.4021 0.0
C163 C 0.02332 0.42389 0.39679 0.0
C164 C 0.05268 0.37973 0.44688 0.0
C165 C 1.00271 0.48197 0.45219 0.0
C166 C 0.06121 0.39452 0.55357 0.0
C167 C 0.04082 0.45251 0.60941 0.0
H168 H 0.44483 0.60657 0.51379 0.0
H169 H 0.49186 0.52365 0.219 0.0
H170 H 0.53565 0.43534 0.31293 0.0
H171 H 0.56139 0.38223 0.47899 0.0
H172 H 0.51411 0.46393 0.77395 0.0
H173 H 0.47009 0.55217 0.68011 0.0
C174 C 0.46447 0.56877 0.47017 0.0
C175 C 0.46498 0.57179 0.35955 0.0
C176 C 0.48988 0.51821 0.52479 0.0
C177 C 0.4908 0.52265 0.30424 0.0
C178 C 0.51599 0.47215 0.35787 0.0
C179 C 0.5416 0.41966 0.52268 0.0
C180 C 0.54117 0.41664 0.63326 0.0
C181 C 0.516 0.46977 0.46816 0.0
C182 C 0.51508 0.46506 0.6887 0.0
C183 C 0.4898 0.51551 0.63512 0.0
loop_
_geom_bond_atom_site_label_1
_geom_bond_atom_site_label_2
_geom_bond_distance
_geom_bond_site_symmetry_2
_ccdc_geom_bond_type
Co0 O1 2.216 . S
Co0 O2 2.091 . S
Co0 O4 2.004 . S
Co0 O10 2.021 . S
Co0 O12 2.137 . S
Co0 O13 2.244 . S
O1 Co0 2.216 . S
O1 C8 1.247 . S
O2 Co0 2.091 . S
O2 C8 1.261 . S
C3 O12 1.247 . S
C3 O13 1.272 . S
O4 Co0 2.004 . S
O4 C9 1.259 . S
Co5 O6 2.061 . S
Co5 O11 2.052 . S
Co5 O13 2.135 . S
O6 Co5 2.061 . S
O6 C9 1.235 . S
C7 O10 1.238 . S
C7 O11 1.241 . S
C8 O1 1.247 . S
C8 O2 1.261 . S
C9 O4 1.259 . S
C9 O6 1.235 . S
O10 Co0 2.021 . S
O10 C7 1.238 . S
O11 Co5 2.052 . S
O11 C7 1.241 . S
O12 Co0 2.137 . S
O12 C3 1.247 . S
O13 Co0 2.244 . S
O13 C3 1.272 . S
O13 Co5 2.135 . S
Co14 O15 2.216 . S
Co14 O16 2.091 . S
Co14 O18 2.004 . S
Co14 O24 2.021 . S
Co14 O26 2.137 . S
Co14 O27 2.244 . S
O15 Co14 2.216 . S
O15 C22 1.247 . S
O16 Co14 2.091 . S
O16 C22 1.261 . S
C17 O26 1.247 . S
C17 O27 1.272 . S
O18 Co14 2.004 . S
O18 C23 1.259 . S
Co19 O20 2.061 . S
Co19 O25 2.052 . S
Co19 O27 2.135 . S
O20 Co19 2.061 . S
O20 C23 1.235 . S
C21 O24 1.238 . S
C21 O25 1.241 . S
C22 O15 1.247 . S
C22 O16 1.261 . S
C23 O18 1.259 . S
C23 O20 1.235 . S
O24 Co14 2.021 . S
O24 C21 1.238 . S
O25 Co19 2.052 . S
O25 C21 1.241 . S
O26 Co14 2.137 . S
O26 C17 1.247 . S
O27 Co14 2.244 . S
O27 C17 1.272 . S
O27 Co19 2.135 . S
Co28 O29 2.216 . S
Co28 O30 2.091 . S
Co28 O32 2.004 . S
Co28 O38 2.021 . S
Co28 O40 2.137 . S
Co28 O41 2.244 . S
O29 Co28 2.216 . S
O29 C36 1.247 . S
O30 Co28 2.091 . S
O30 C36 1.261 . S
C31 O40 1.247 . S
C31 O41 1.272 . S
O32 Co28 2.004 . S
O32 C37 1.259 . S
Co33 O34 2.061 . S
Co33 O39 2.052 . S
Co33 O41 2.135 . S
O34 Co33 2.061 . S
O34 C37 1.235 . S
C35 O38 1.238 . S
C35 O39 1.241 . S
C36 O29 1.247 . S
C36 O30 1.261 . S
C37 O32 1.259 . S
C37 O34 1.235 . S
O38 Co28 2.021 . S
O38 C35 1.238 . S
O39 Co33 2.052 . S
O39 C35 1.241 . S
O40 Co28 2.137 . S
O40 C31 1.247 . S
O41 Co28 2.244 . S
O41 C31 1.272 . S
O41 Co33 2.135 . S
Co42 O43 2.216 . S
Co42 O44 2.091 . S
Co42 O46 2.004 . S
Co42 O52 2.021 . S
Co42 O54 2.137 . S
Co42 O55 2.244 . S
O43 Co42 2.216 . S
O43 C50 1.247 . S
O44 Co42 2.091 . S
O44 C50 1.261 . S
C45 O54 1.247 . S
C45 O55 1.272 . S
O46 Co42 2.004 . S
O46 C51 1.259 . S
Co47 O48 2.061 . S
Co47 O53 2.052 . S
Co47 O55 2.135 . S
O48 Co47 2.061 . S
O48 C51 1.235 . S
C49 O52 1.238 . S
C49 O53 1.241 . S
C50 O43 1.247 . S
C50 O44 1.261 . S
C51 O46 1.259 . S
C51 O48 1.235 . S
O52 Co42 2.021 . S
O52 C49 1.238 . S
O53 Co47 2.052 . S
O53 C49 1.241 . S
O54 Co42 2.137 . S
O54 C45 1.247 . S
O55 Co42 2.244 . S
O55 C45 1.272 . S
O55 Co47 2.135 . S
H56 C62 0.930 . S
H57 C65 0.930 . S
H58 C66 0.927 1_545 S
H59 C67 0.930 . S
H60 C70 0.930 . S
H61 C71 0.927 1_565 S
C62 H56 0.930 . S
C62 C63 1.355 . S
C62 C64 1.415 . S
C63 C62 1.355 . S
C63 C65 1.419 . S
C64 C62 1.415 . S
C64 C69 1.425 1_565 S
C64 C71 1.407 1_565 S
C65 H57 0.930 . S
C65 C63 1.419 . S
C65 C66 1.367 . S
C66 H58 0.927 1_565 S
C66 C65 1.367 . S
C66 C69 1.407 1_565 S
C67 H59 0.930 . S
C67 C68 1.355 . S
C67 C69 1.415 . S
C68 C67 1.355 . S
C68 C70 1.419 . S
C69 C64 1.425 1_545 S
C69 C66 1.407 1_545 S
C69 C67 1.415 . S
C70 H60 0.930 . S
C70 C68 1.419 . S
C70 C71 1.367 . S
C71 H61 0.927 1_545 S
C71 C64 1.407 1_545 S
C71 C70 1.367 . S
H72 C78 0.930 . S
H73 C81 0.930 . S
H74 C82 0.930 . S
H75 C83 0.930 . S
H76 C86 0.930 . S
H77 C87 0.930 1_556 S
C78 H72 0.930 . S
C78 C79 1.355 . S
C78 C80 1.415 . S
C79 C78 1.355 . S
C79 C81 1.419 . S
C80 C78 1.415 . S
C80 C85 1.425 . S
C80 C87 1.409 . S
C81 H73 0.930 . S
C81 C79 1.419 . S
C81 C82 1.362 . S
C82 H74 0.930 . S
C82 C81 1.362 . S
C82 C85 1.409 . S
C83 H75 0.930 . S
C83 C84 1.355 . S
C83 C85 1.415 . S
C84 C83 1.355 . S
C84 C86 1.419 . S
C85 C80 1.425 . S
C85 C82 1.409 . S
C85 C83 1.415 . S
C86 H76 0.930 . S
C86 C84 1.419 . S
C86 C87 1.362 . S
C87 H77 0.930 1_554 S
C87 C80 1.409 . S
C87 C86 1.362 . S
H88 C94 0.930 1_565 S
H89 C97 0.930 . S
H90 C98 0.930 . S
H91 C99 0.930 1_545 S
H92 C102 0.930 . S
H93 C103 0.930 . S
C94 H88 0.930 1_545 S
C94 C95 1.355 . S
C94 C96 1.415 1_545 S
C95 C94 1.355 . S
C95 C97 1.419 . S
C96 C94 1.415 1_565 S
C96 C101 1.425 1_565 S
C96 C103 1.409 . S
C97 H89 0.930 . S
C97 C95 1.419 . S
C97 C98 1.362 . S
C98 H90 0.930 . S
C98 C97 1.362 . S
C98 C101 1.409 . S
C99 H91 0.930 1_565 S
C99 C100 1.355 . S
C99 C101 1.415 1_565 S
C100 C99 1.355 . S
C100 C102 1.419 . S
C101 C96 1.425 1_545 S
C101 C98 1.409 . S
C101 C99 1.415 1_545 S
C102 H92 0.930 . S
C102 C100 1.419 . S
C102 C103 1.362 . S
C103 H93 0.930 . S
C103 C96 1.409 . S
C103 C102 1.362 . S
H104 C110 0.930 . S
H105 C113 0.930 . S
H106 C114 0.930 . S
H107 C115 0.930 . S
H108 C118 0.930 . S
H109 C119 0.930 . S
C110 H104 0.930 . S
C110 C111 1.355 . S
C110 C112 1.415 . S
C111 C110 1.355 . S
C111 C113 1.419 . S
C112 C110 1.415 . S
C112 C117 1.425 . S
C112 C119 1.409 . S
C113 H105 0.930 . S
C113 C111 1.419 . S
C113 C114 1.362 . S
C114 H106 0.930 . S
C114 C113 1.362 . S
C114 C117 1.409 . S
C115 H107 0.930 . S
C115 C116 1.355 . S
C115 C117 1.415 . S
C116 C115 1.355 . S
C116 C118 1.419 . S
C117 C112 1.425 . S
C117 C114 1.409 . S
C117 C115 1.415 . S
C118 H108 0.930 . S
C118 C116 1.419 . S
C118 C119 1.362 . S
C119 H109 0.930 . S
C119 C112 1.409 . S
C119 C118 1.362 . S
H120 C126 0.930 . S
H121 C129 0.930 1_655 S
H122 C130 0.930 . S
H123 C131 0.930 . S
H124 C134 0.930 1_455 S
H125 C135 0.930 . S
C126 H120 0.930 . S
C126 C127 1.355 . S
C126 C128 1.415 1_544 S
C127 C126 1.355 . S
C127 C129 1.419 . S
C128 C126 1.415 1_566 S
C128 C133 1.425 1_466 S
C128 C135 1.409 . S
C129 H121 0.930 1_455 S
C129 C127 1.419 . S
C129 C130 1.362 1_455 S
C130 H122 0.930 . S
C130 C129 1.362 1_655 S
C130 C133 1.409 . S
C131 H123 0.930 . S
C131 C132 1.355 . S
C131 C133 1.415 1_566 S
C132 C131 1.355 . S
C132 C134 1.419 . S
C133 C128 1.425 1_644 S
C133 C130 1.409 . S
C133 C131 1.415 1_544 S
C134 H124 0.930 1_655 S
C134 C132 1.419 . S
C134 C135 1.362 1_655 S
C135 H125 0.930 . S
C135 C128 1.409 . S
C135 C134 1.362 1_455 S
H136 C142 0.930 . S
H137 C145 0.930 . S
H138 C146 0.930 . S
H139 C147 0.930 . S
H140 C150 0.930 . S
H141 C151 0.930 . S
C142 H136 0.930 . S
C142 C143 1.355 . S
C142 C144 1.415 1_545 S
C143 C142 1.355 . S
C143 C145 1.419 . S
C144 C142 1.415 1_565 S
C144 C149 1.425 1_566 S
C144 C151 1.409 . S
C145 H137 0.930 . S
C145 C143 1.419 . S
C145 C146 1.362 1_556 S
C146 H138 0.930 . S
C146 C145 1.362 1_554 S
C146 C149 1.409 . S
C147 H139 0.930 . S
C147 C148 1.355 . S
C147 C149 1.415 1_565 S
C148 C147 1.355 . S
C148 C150 1.419 . S
C149 C144 1.425 1_544 S
C149 C146 1.409 . S
C149 C147 1.415 1_545 S
C150 H140 0.930 . S
C150 C148 1.419 . S
C150 C151 1.362 1_554 S
C151 H141 0.930 . S
C151 C144 1.409 . S
C151 C150 1.362 1_556 S
H152 C158 0.930 1_455 S
H153 C161 0.930 . S
H154 C162 0.930 . S
H155 C163 0.930 1_655 S
H156 C166 0.930 . S
H157 C167 0.930 . S
C158 H152 0.930 1_655 S
C158 C159 1.355 . S
C158 C160 1.415 1_655 S
C159 C158 1.355 . S
C159 C161 1.419 . S
C160 C158 1.415 1_455 S
C160 C165 1.425 1_455 S
C160 C167 1.409 . S
C161 H153 0.930 . S
C161 C159 1.419 . S
C161 C162 1.362 . S
C162 H154 0.930 . S
C162 C161 1.362 . S
C162 C165 1.409 . S
C163 H155 0.930 1_455 S
C163 C164 1.355 . S
C163 C165 1.415 1_455 S
C164 C163 1.355 . S
C164 C166 1.419 . S
C165 C160 1.425 1_655 S
C165 C162 1.409 . S
C165 C163 1.415 1_655 S
C166 H156 0.930 . S
C166 C164 1.419 . S
C166 C167 1.362 . S
C167 H157 0.930 . S
C167 C160 1.409 . S
C167 C166 1.362 . S
H168 C174 0.930 . S
H169 C177 0.930 . S
H170 C178 0.930 . S
H171 C179 0.930 . S
H172 C182 0.930 . S
H173 C183 0.930 . S
C174 H168 0.930 . S
C174 C175 1.355 . S
C174 C176 1.415 . S
C175 C174 1.355 . S
C175 C177 1.419 . S
C176 C174 1.415 . S
C176 C181 1.425 . S
C176 C183 1.409 . S
C177 H169 0.930 . S
C177 C175 1.419 . S
C177 C178 1.362 . S
C178 H170 0.930 . S
C178 C177 1.362 . S
C178 C181 1.409 . S
C179 H171 0.930 . S
C179 C180 1.355 . S
C179 C181 1.415 . S
C180 C179 1.355 . S
C180 C182 1.419 . S
C181 C176 1.425 . S
C181 C178 1.409 . S
C181 C179 1.415 . S
C182 H172 0.930 . S
C182 C180 1.419 . S
C182 C183 1.362 . S
C183 H173 0.930 . S
C183 C176 1.409 . S
C183 C182 1.362 . S
C63 C23 1.083 . S
C68 C9 1.163 . S
C79 C7 1.037 . S
C84 C21 1.022 . S
C95 C51 1.089 . S
C100 C37 1.120 . S
C111 C35 1.080 . S
C116 C49 1.067 . S
C127 C3 1.544 . S
C132 C31 1.544 . S
C143 C45 1.541 . S
C148 C17 1.541 . S
C159 C36 1.546 . S
C164 C8 1.546 . S
C175 C22 1.538 . S
C180 C50 1.538 . S
