# Generated by pormake.
# Topology mdf, (4)-cn, num edge types: 1
# Building blocks:
#     Node 0, Type 0, BuildingBlock: CEKHIL_clean_sbu_0, # of connection points: 4
#     Node 1, Type 0, BuildingBlock: CEKHIL_clean_sbu_0, # of connection points: 4
#     Node 2, Type 0, BuildingBlock: CEKHIL_clean_sbu_0, # of connection points: 4
#     Node 3, Type 0, BuildingBlock: CEKHIL_clean_sbu_0, # of connection points: 4
#     Node 4, Type 0, BuildingBlock: CEKHIL_clean_sbu_0, # of connection points: 4
#     Node 5, Type 0, BuildingBlock: CEKHIL_clean_sbu_0, # of connection points: 4
#     Node 6, Type 0, BuildingBlock: CEKHIL_clean_sbu_0, # of connection points: 4
#     Node 7, Type 0, BuildingBlock: CEKHIL_clean_sbu_0, # of connection points: 4
#     Edge 8, Type (0, 0), None
#     Edge 9, Type (0, 0), None
#     Edge 10, Type (0, 0), None
#     Edge 11, Type (0, 0), None
#     Edge 12, Type (0, 0), None
#     Edge 13, Type (0, 0), None
#     Edge 14, Type (0, 0), None
#     Edge 15, Type (0, 0), None
#     Edge 16, Type (0, 0), None
#     Edge 17, Type (0, 0), None
#     Edge 18, Type (0, 0), None
#     Edge 19, Type (0, 0), None
#     Edge 20, Type (0, 0), None
#     Edge 21, Type (0, 0), None
#     Edge 22, Type (0, 0), None
#     Edge 23, Type (0, 0), None
# Relax obj value: 0.019
# Max RMSD: 0.044
# Mean RMSD: 0.044
data_MOF--net-mdf--node1-CEKHIL_clean_sbu_0--edge1-none
_symmetry_space_group_name_H-M    P1
_symmetry_Int_Tables_number       1
_symmetry_cell_setting            triclinic
loop_
_symmetry_equiv_pos_as_xyz
'x, y, z'
_cell_length_a     16.621542
_cell_length_b     16.855906
_cell_length_c     5.5235301
_cell_angle_alpha  90.05564
_cell_angle_beta   89.938142
_cell_angle_gamma 94.082462
loop_
_atom_site_label
_atom_site_type_symbol
_atom_site_fract_x
_atom_site_fract_y
_atom_site_fract_z
_atom_type_partial_charge
Co0 Co 0.27939 0.55878 0.36741 0.0
O1 O 0.20007 0.63793 0.41009 0.0
O2 O 0.24706 0.57384 0.70982 0.0
C3 C 0.35794 0.63021 0.06503 0.0
O4 O 0.36116 0.47999 0.45612 0.0
Co5 Co 0.3305 0.46498 0.94273 0.0
O6 O 0.42263 0.43085 0.14259 0.0
C7 C 0.17356 0.42087 0.17254 0.0
C8 C 0.19696 0.62374 0.63832 0.0
C9 C 0.4147 0.43761 0.36843 0.0
O10 O 0.19266 0.46989 0.34496 0.0
O11 O 0.21735 0.41398 -0.01607 0.0
O12 O 0.36621 0.64258 0.29146 0.0
O13 O 0.30453 0.57319 0.01958 0.0
Co14 Co 0.45689 0.76384 0.56086 0.0
O15 O 0.39112 0.85669 0.53506 0.0
O16 O 0.43045 0.79183 0.2272 0.0
C17 C 0.39255 0.68769 0.87605 0.0
O18 O 0.51707 0.66701 0.46072 0.0
Co19 Co 0.56433 0.71482 -0.01613 0.0
O20 O 0.60942 0.64342 0.73811 0.0
C21 C 0.60802 0.8598 0.71704 0.0
C22 C 0.3877 0.84669 0.30432 0.0
C23 C 0.57693 0.62957 0.53387 0.0
O24 O 0.56089 0.83481 0.54342 0.0
O25 O 0.60775 0.82682 0.92504 0.0
O26 O 0.35978 0.69605 0.66961 0.0
O27 O 0.45469 0.73701 0.90512 0.0
Co28 Co 0.25206 0.95408 0.86796 0.0
O29 O 0.33136 0.87491 0.91033 0.0
O30 O 0.28434 0.93913 0.2103 0.0
C31 C 0.17349 0.88267 0.56573 0.0
O32 O 0.17023 0.03291 0.95664 0.0
Co33 Co 0.20125 0.04773 0.44267 0.0
O34 O 0.10906 0.08191 0.64285 0.0
C35 C 0.35796 0.09198 0.67298 0.0
C36 C 0.33444 0.88916 0.13854 0.0
C37 C 0.11676 0.07522 0.86872 0.0
O38 O 0.3388 0.043 0.84533 0.0
O39 O 0.31432 0.09875 0.48432 0.0
O40 O 0.16524 0.87028 0.79211 0.0
O41 O 0.22699 0.93959 0.52029 0.0
Co42 Co 0.07447 0.74918 0.06124 0.0
O43 O 0.1402 0.65631 0.0352 0.0
O44 O 0.10103 0.72112 0.72753 0.0
C45 C 0.13871 0.82533 0.37653 0.0
O46 O 1.01445 0.84603 -0.03883 0.0
Co47 Co 0.96671 0.79834 0.48354 0.0
O48 O 0.92146 0.86932 0.23751 0.0
C49 C 0.92343 0.65312 0.21748 0.0
C50 C 0.14372 0.66628 0.80445 0.0
C51 C 0.95431 0.88329 0.03371 0.0
O52 O 0.97049 0.67821 0.04369 0.0
O53 O 0.9236 0.68617 0.42552 0.0
O54 O 0.17155 0.81691 0.16999 0.0
O55 O 0.07649 0.77608 0.40565 0.0
Co56 Co 0.77939 0.05878 0.8674 0.0
O57 O 0.70006 0.13792 0.91008 0.0
O58 O 0.74706 0.07383 0.20982 0.0
C59 C 0.85793 0.13021 0.56503 0.0
O60 O 0.86116 0.97999 0.95611 0.0
Co61 Co 0.83051 0.96498 0.4427 0.0
O62 O 0.92264 0.93084 0.64256 0.0
C63 C 0.67356 0.92089 0.67244 0.0
C64 C 0.69696 0.12374 0.13831 0.0
C65 C 0.91471 0.93762 0.8684 0.0
O66 O 0.69266 0.96989 0.84493 0.0
O67 O 0.71736 0.91399 0.48387 0.0
O68 O 0.8662 0.14258 0.79146 0.0
O69 O 0.80453 0.07319 0.51958 0.0
Co70 Co 0.95689 0.26384 0.06086 0.0
O71 O 0.89112 0.35669 0.03506 0.0
O72 O 0.93045 0.29183 0.72719 0.0
C73 C 0.89254 0.1877 0.37604 0.0
O74 O 0.01706 0.16701 0.96073 0.0
Co75 Co 0.06432 0.21482 0.4839 0.0
O76 O 0.10941 0.14342 0.23815 0.0
C77 C 0.10799 0.35981 0.21713 0.0
C78 C 0.8877 0.34669 0.80432 0.0
C79 C 0.07692 0.12956 0.03391 0.0
O80 O 0.06089 0.3348 0.04345 0.0
O81 O 0.10772 0.32683 0.42511 0.0
O82 O 0.85978 0.19605 0.16961 0.0
O83 O 0.95469 0.23701 0.40512 0.0
Co84 Co 0.75207 0.45409 0.36795 0.0
O85 O 0.83136 0.37491 0.41032 0.0
O86 O 0.78434 0.43913 0.71029 0.0
C87 C 0.67349 0.38267 0.06572 0.0
O88 O 0.67023 0.53291 0.45663 0.0
Co89 Co 0.70123 0.54773 0.94264 0.0
O90 O 0.60905 0.58191 0.14283 0.0
C91 C 0.85796 0.59195 0.17288 0.0
C92 C 0.83444 0.38916 0.63853 0.0
C93 C 0.61676 0.57521 0.36869 0.0
O94 O 0.8388 0.543 0.3453 0.0
O95 O 0.81431 0.59874 -0.01574 0.0
O96 O 0.66524 0.37028 0.29211 0.0
O97 O 0.72699 0.43959 0.02029 0.0
Co98 Co 0.57447 0.24918 0.56124 0.0
O99 O 0.6402 0.15631 0.53519 0.0
O100 O 0.60102 0.22112 0.22752 0.0
C101 C 0.63871 0.32533 0.87653 0.0
O102 O 0.51445 0.34603 0.46118 0.0
Co103 Co 0.46672 0.29834 -0.01643 0.0
O104 O 0.42147 0.36933 0.73754 0.0
C105 C 0.42346 0.15311 0.71757 0.0
C106 C 0.64371 0.16628 0.30444 0.0
C107 C 0.45432 0.3833 0.53375 0.0
O108 O 0.47048 0.17822 0.54371 0.0
O109 O 0.42363 0.18617 0.9256 0.0
O110 O 0.67155 0.3169 0.66999 0.0
O111 O 0.5765 0.27608 0.90565 0.0
loop_
_geom_bond_atom_site_label_1
_geom_bond_atom_site_label_2
_geom_bond_distance
_geom_bond_site_symmetry_2
_ccdc_geom_bond_type
Co0 O1 2.216 . S
Co0 O2 2.091 . S
Co0 O4 2.004 . S
Co0 O10 2.021 . S
Co0 O12 2.137 . S
Co0 O13 2.244 . S
O1 Co0 2.216 . S
O1 C8 1.247 . S
O2 Co0 2.091 . S
O2 C8 1.261 . S
C3 O12 1.247 . S
C3 O13 1.272 . S
O4 Co0 2.004 . S
O4 C9 1.259 . S
Co5 O6 2.061 1_556 S
Co5 O11 2.053 . S
Co5 O13 2.135 1_556 S
O6 Co5 2.061 1_554 S
O6 C9 1.235 . S
C7 O10 1.238 . S
C7 O11 1.238 1_554 S
C8 O1 1.247 . S
C8 O2 1.261 . S
C9 O4 1.259 . S
C9 O6 1.235 . S
O10 Co0 2.021 . S
O10 C7 1.238 . S
O11 Co5 2.053 . S
O11 C7 1.238 1_556 S
O12 Co0 2.137 . S
O12 C3 1.247 . S
O13 Co0 2.244 . S
O13 C3 1.272 . S
O13 Co5 2.135 1_554 S
Co14 O15 2.216 . S
Co14 O16 2.091 . S
Co14 O18 2.004 . S
Co14 O24 2.021 . S
Co14 O26 2.137 . S
Co14 O27 2.244 . S
O15 Co14 2.216 . S
O15 C22 1.247 . S
O16 Co14 2.091 . S
O16 C22 1.261 . S
C17 O26 1.247 . S
C17 O27 1.272 . S
O18 Co14 2.004 . S
O18 C23 1.259 . S
Co19 O20 2.061 1_554 S
Co19 O25 2.053 . S
Co19 O27 2.135 1_554 S
O20 Co19 2.061 1_556 S
O20 C23 1.235 . S
C21 O24 1.238 . S
C21 O25 1.238 1_556 S
C22 O15 1.247 . S
C22 O16 1.261 . S
C23 O18 1.259 . S
C23 O20 1.235 . S
O24 Co14 2.021 . S
O24 C21 1.238 . S
O25 Co19 2.053 . S
O25 C21 1.238 1_554 S
O26 Co14 2.137 . S
O26 C17 1.247 . S
O27 Co14 2.244 . S
O27 C17 1.272 . S
O27 Co19 2.135 1_556 S
Co28 O29 2.216 . S
Co28 O30 2.091 1_556 S
Co28 O32 2.004 1_566 S
Co28 O38 2.021 1_565 S
Co28 O40 2.137 . S
Co28 O41 2.244 . S
O29 Co28 2.216 . S
O29 C36 1.247 1_556 S
O30 Co28 2.091 1_554 S
O30 C36 1.261 . S
C31 O40 1.247 . S
C31 O41 1.272 . S
O32 Co28 2.004 1_544 S
O32 C37 1.259 1_554 S
Co33 O34 2.061 . S
Co33 O39 2.052 . S
Co33 O41 2.135 1_545 S
O34 Co33 2.061 . S
O34 C37 1.235 . S
C35 O38 1.238 . S
C35 O39 1.241 . S
C36 O29 1.247 1_554 S
C36 O30 1.261 . S
C37 O32 1.259 1_556 S
C37 O34 1.235 . S
O38 Co28 2.021 1_545 S
O38 C35 1.238 . S
O39 Co33 2.052 . S
O39 C35 1.241 . S
O40 Co28 2.137 . S
O40 C31 1.247 . S
O41 Co28 2.244 . S
O41 C31 1.272 . S
O41 Co33 2.135 1_565 S
Co42 O43 2.216 . S
Co42 O44 2.091 1_554 S
Co42 O46 2.004 1_454 S
Co42 O52 2.021 1_455 S
Co42 O54 2.137 . S
Co42 O55 2.244 . S
O43 Co42 2.216 . S
O43 C50 1.247 1_554 S
O44 Co42 2.091 1_556 S
O44 C50 1.261 . S
C45 O54 1.247 . S
C45 O55 1.272 . S
O46 Co42 2.004 1_656 S
O46 C51 1.259 1_556 S
Co47 O48 2.061 . S
Co47 O53 2.052 . S
Co47 O55 2.135 1_655 S
O48 Co47 2.061 . S
O48 C51 1.235 . S
C49 O52 1.238 . S
C49 O53 1.241 . S
C50 O43 1.247 1_556 S
C50 O44 1.261 . S
C51 O46 1.259 1_554 S
C51 O48 1.235 . S
O52 Co42 2.021 1_655 S
O52 C49 1.238 . S
O53 Co47 2.052 . S
O53 C49 1.241 . S
O54 Co42 2.137 . S
O54 C45 1.247 . S
O55 Co42 2.244 . S
O55 C45 1.272 . S
O55 Co47 2.135 1_455 S
Co56 O57 2.216 . S
Co56 O58 2.091 1_556 S
Co56 O60 2.004 1_546 S
Co56 O66 2.021 1_545 S
Co56 O68 2.137 . S
Co56 O69 2.244 . S
O57 Co56 2.216 . S
O57 C64 1.247 1_556 S
O58 Co56 2.091 1_554 S
O58 C64 1.261 . S
C59 O68 1.247 . S
C59 O69 1.272 . S
O60 Co56 2.004 1_564 S
O60 C65 1.259 1_554 S
Co61 O62 2.061 . S
Co61 O67 2.052 . S
Co61 O69 2.135 1_565 S
O62 Co61 2.061 . S
O62 C65 1.235 . S
C63 O66 1.238 . S
C63 O67 1.241 . S
C64 O57 1.247 1_554 S
C64 O58 1.261 . S
C65 O60 1.259 1_556 S
C65 O62 1.235 . S
O66 Co56 2.021 1_565 S
O66 C63 1.238 . S
O67 Co61 2.052 . S
O67 C63 1.241 . S
O68 Co56 2.137 . S
O68 C59 1.247 . S
O69 Co56 2.244 . S
O69 C59 1.272 . S
O69 Co61 2.135 1_545 S
Co70 O71 2.216 . S
Co70 O72 2.091 1_554 S
Co70 O74 2.004 1_654 S
Co70 O80 2.021 1_655 S
Co70 O82 2.137 . S
Co70 O83 2.244 . S
O71 Co70 2.216 . S
O71 C78 1.247 1_554 S
O72 Co70 2.091 1_556 S
O72 C78 1.261 . S
C73 O82 1.247 . S
C73 O83 1.272 . S
O74 Co70 2.004 1_456 S
O74 C79 1.259 1_556 S
Co75 O76 2.061 . S
Co75 O81 2.052 . S
Co75 O83 2.135 1_455 S
O76 Co75 2.061 . S
O76 C79 1.235 . S
C77 O80 1.238 . S
C77 O81 1.241 . S
C78 O71 1.247 1_556 S
C78 O72 1.261 . S
C79 O74 1.259 1_554 S
C79 O76 1.235 . S
O80 Co70 2.021 1_455 S
O80 C77 1.238 . S
O81 Co75 2.052 . S
O81 C77 1.241 . S
O82 Co70 2.137 . S
O82 C73 1.247 . S
O83 Co70 2.244 . S
O83 C73 1.272 . S
O83 Co75 2.135 1_655 S
Co84 O85 2.216 . S
Co84 O86 2.091 . S
Co84 O88 2.004 . S
Co84 O94 2.021 . S
Co84 O96 2.137 . S
Co84 O97 2.244 . S
O85 Co84 2.216 . S
O85 C92 1.247 . S
O86 Co84 2.091 . S
O86 C92 1.261 . S
C87 O96 1.247 . S
C87 O97 1.272 . S
O88 Co84 2.004 . S
O88 C93 1.259 . S
Co89 O90 2.061 1_556 S
Co89 O95 2.053 . S
Co89 O97 2.135 1_556 S
O90 Co89 2.061 1_554 S
O90 C93 1.235 . S
C91 O94 1.238 . S
C91 O95 1.238 1_554 S
C92 O85 1.247 . S
C92 O86 1.261 . S
C93 O88 1.259 . S
C93 O90 1.235 . S
O94 Co84 2.021 . S
O94 C91 1.238 . S
O95 Co89 2.053 . S
O95 C91 1.238 1_556 S
O96 Co84 2.137 . S
O96 C87 1.247 . S
O97 Co84 2.244 . S
O97 C87 1.272 . S
O97 Co89 2.135 1_554 S
Co98 O99 2.216 . S
Co98 O100 2.091 . S
Co98 O102 2.004 . S
Co98 O108 2.021 . S
Co98 O110 2.137 . S
Co98 O111 2.244 . S
O99 Co98 2.216 . S
O99 C106 1.247 . S
O100 Co98 2.091 . S
O100 C106 1.261 . S
C101 O110 1.247 . S
C101 O111 1.272 . S
O102 Co98 2.004 . S
O102 C107 1.259 . S
Co103 O104 2.061 1_554 S
Co103 O109 2.053 . S
Co103 O111 2.135 1_554 S
O104 Co103 2.061 1_556 S
O104 C107 1.235 . S
C105 O108 1.238 . S
C105 O109 1.238 1_556 S
C106 O99 1.247 . S
C106 O100 1.261 . S
C107 O102 1.259 . S
C107 O104 1.235 . S
O108 Co98 2.021 . S
O108 C105 1.238 . S
O109 Co103 2.053 . S
O109 C105 1.238 1_554 S
O110 Co98 2.137 . S
O110 C101 1.247 . S
O111 Co98 2.244 . S
O111 C101 1.272 . S
O111 Co103 2.135 1_556 S
C17 C3 1.452 1_556 S
C22 C36 1.457 . S
C45 C31 1.452 . S
C50 C8 1.457 . S
C59 C73 1.452 . S
C78 C92 1.457 . S
C87 C101 1.452 1_554 S
C64 C106 1.457 . S
C9 C107 1.398 . S
C63 C21 1.518 . S
C79 C37 1.398 1_554 S
C49 C91 1.518 . S
C35 C105 1.518 . S
C65 C51 1.398 1_556 S
C77 C7 1.518 . S
C23 C93 1.398 . S
