# Generated by pormake.
# Topology uon, (4)-cn, num edge types: 1
# Building blocks:
#     Node 0, Type 0, BuildingBlock: NAWXER_clean_sbu_0, # of connection points: 4
#     Node 1, Type 0, BuildingBlock: NAWXER_clean_sbu_0, # of connection points: 4
#     Node 2, Type 0, BuildingBlock: NAWXER_clean_sbu_0, # of connection points: 4
#     Node 3, Type 0, BuildingBlock: NAWXER_clean_sbu_0, # of connection points: 4
#     Node 4, Type 0, BuildingBlock: NAWXER_clean_sbu_0, # of connection points: 4
#     Node 5, Type 0, BuildingBlock: NAWXER_clean_sbu_0, # of connection points: 4
#     Edge 6, Type (0, 0), None
#     Edge 7, Type (0, 0), None
#     Edge 8, Type (0, 0), None
#     Edge 9, Type (0, 0), None
#     Edge 10, Type (0, 0), None
#     Edge 11, Type (0, 0), None
#     Edge 12, Type (0, 0), None
#     Edge 13, Type (0, 0), None
#     Edge 14, Type (0, 0), None
#     Edge 15, Type (0, 0), None
#     Edge 16, Type (0, 0), None
#     Edge 17, Type (0, 0), None
# Relax obj value: 0.135
# Max RMSD: 0.134
# Mean RMSD: 0.134
data_MOF--net-uon--node1-NAWXER_clean_sbu_0--edge1-none
_symmetry_space_group_name_H-M    P1
_symmetry_Int_Tables_number       1
_symmetry_cell_setting            triclinic
loop_
_symmetry_equiv_pos_as_xyz
'x, y, z'
_cell_length_a     12.084193
_cell_length_b     12.086538
_cell_length_c     14.00552
_cell_angle_alpha  89.999897
_cell_angle_beta   89.999675
_cell_angle_gamma 120.00659
loop_
_atom_site_label
_atom_site_type_symbol
_atom_site_fract_x
_atom_site_fract_y
_atom_site_fract_z
_atom_type_partial_charge
C0 C 0.24153 0.46018 -0.01172 0.0
C1 C 0.48829 0.77908 0.74094 0.0
O2 O 0.36048 0.49595 -0.00972 0.0
Zn3 Zn 0.51854 0.59755 -0.10513 0.0
O4 O 1.19557 0.48217 -0.0866 0.0
Zn5 Zn 0.35106 0.59741 0.83862 0.0
O6 O 0.4077 0.49599 0.7432 0.0
O7 O 0.55898 0.48249 0.82009 0.0
O8 O 0.36676 0.72815 0.74692 0.0
O9 O 0.54676 0.73361 0.78831 0.0
O10 O 0.63352 0.72838 -0.01344 0.0
O11 O 0.4588 0.73353 -0.05479 0.0
C12 C 0.491 0.46039 0.74521 0.0
C13 C 0.56279 0.77914 -0.00743 0.0
C14 C 0.91702 0.17341 0.32165 0.0
C15 C 0.84519 0.42031 0.07425 0.0
O16 O 1.0003 0.29231 0.32364 0.0
Zn17 Zn 1.05692 0.45033 0.2282 0.0
O18 O 0.84903 1.1275 0.24678 0.0
Zn19 Zn 0.88944 0.28298 0.17196 0.0
O20 O 1.04751 0.33944 0.07656 0.0
O21 O 0.21242 0.4906 0.15344 0.0
O22 O 0.77446 0.29881 0.08025 0.0
O23 O 0.94917 0.47868 0.12162 0.0
O24 O 1.04121 0.56539 0.31987 0.0
O25 O 0.8612 0.39083 0.27851 0.0
C26 C 1.16645 0.42264 0.07857 0.0
C27 C 0.91969 0.4948 0.32587 0.0
C28 C 0.87947 1.09833 0.41193 0.0
C29 C 0.56052 0.85136 0.65917 0.0
O30 O 0.84382 0.97944 0.40991 0.0
Zn31 Zn 0.74228 0.82137 0.50529 0.0
O32 O 0.8574 0.14423 0.48681 0.0
Zn33 Zn 0.74222 0.98871 0.56158 0.0
O34 O 0.84373 0.93217 0.657 0.0
O35 O 0.85743 0.78104 0.5801 0.0
O36 O 0.61138 0.97287 0.65327 0.0
O37 O 0.6061 0.79297 0.61182 0.0
O38 O 0.61152 0.70639 0.41356 0.0
O39 O 0.60615 0.88094 0.45497 0.0
C40 C 0.87944 0.84897 0.65499 0.0
C41 C 0.56064 0.77701 0.40757 0.0
C42 C 0.91699 0.81143 0.74527 0.0
C43 C 0.84517 0.49259 -0.00748 0.0
O44 O 1.00029 0.77585 0.74325 0.0
Zn45 Zn 1.05692 0.67441 0.83864 0.0
O46 O 0.84898 0.78931 0.82014 0.0
Zn47 Zn 0.88942 0.67422 -0.10509 0.0
O48 O 1.04749 0.7758 -0.00967 0.0
O49 O 0.2124 0.78962 -0.08658 0.0
O50 O 0.77443 0.54335 -0.0134 0.0
O51 O 0.94918 0.53823 -0.05483 0.0
O52 O 1.04125 0.54371 0.74692 0.0
O53 O 0.86121 0.5382 0.7883 0.0
C54 C 1.16644 0.81158 -0.01169 0.0
C55 C 0.91972 0.49277 0.74092 0.0
C56 C 0.48837 0.77696 0.3258 0.0
C57 C 0.24154 0.84913 0.07859 0.0
O58 O 0.54684 0.88096 0.27848 0.0
Zn59 Zn 0.51856 0.9888 0.17195 0.0
O60 O 0.36682 0.70642 0.31993 0.0
Zn61 Zn 0.3511 0.82145 0.22822 0.0
O62 O 0.45884 0.79307 0.12164 0.0
O63 O 0.63352 0.97298 0.0802 0.0
O64 O 1.19558 0.78116 0.15347 0.0
O65 O 0.36048 0.93232 0.07657 0.0
O66 O 0.55899 0.14429 0.24675 0.0
O67 O 0.40774 0.9795 0.32364 0.0
C68 C 0.56286 0.85147 0.07431 0.0
C69 C 0.49102 1.09839 0.32164 0.0
C70 C 0.84752 0.42047 0.65915 0.0
C71 C 0.52859 0.17351 0.4119 0.0
O72 O 0.80193 0.47887 0.61181 0.0
Zn73 Zn 0.66576 0.45048 0.50526 0.0
O74 O 0.79659 0.29895 0.65328 0.0
Zn75 Zn 0.66579 0.28312 0.56156 0.0
O76 O 0.80192 0.39091 0.45499 0.0
O77 O 0.79653 0.56545 0.41351 0.0
O78 O 0.55063 1.1276 0.48678 0.0
O79 O 0.56425 0.29241 0.40988 0.0
O80 O 0.55059 0.49081 0.58005 0.0
O81 O 0.56426 0.33965 0.65695 0.0
C82 C 0.84749 0.49489 0.40765 0.0
C83 C 0.52857 0.42286 0.65494 0.0
loop_
_geom_bond_atom_site_label_1
_geom_bond_atom_site_label_2
_geom_bond_distance
_geom_bond_site_symmetry_2
_ccdc_geom_bond_type
C0 O2 1.247 . S
C0 O4 1.258 . S
C1 O8 1.247 . S
C1 O9 1.258 1_556 S
O2 C0 1.247 . S
O2 Zn3 2.028 . S
Zn3 O2 2.028 . S
Zn3 O7 2.035 . S
Zn3 O9 2.035 . S
Zn3 O10 2.028 . S
O4 C0 1.258 . S
O4 Zn5 2.035 1_554 S
Zn5 O4 2.035 1_556 S
Zn5 O6 2.028 . S
Zn5 O8 2.028 . S
Zn5 O11 2.035 1_556 S
O6 Zn5 2.028 . S
O6 C12 1.247 . S
O7 Zn3 2.035 . S
O7 C12 1.258 1_554 S
O8 C1 1.247 . S
O8 Zn5 2.028 . S
O9 C1 1.258 1_554 S
O9 Zn3 2.035 . S
O10 Zn3 2.028 . S
O10 C13 1.247 . S
O11 Zn5 2.035 1_554 S
O11 C13 1.258 . S
C12 O6 1.247 . S
C12 O7 1.258 1_556 S
C13 O10 1.247 . S
C13 O11 1.258 . S
C14 O16 1.247 . S
C14 O18 1.258 . S
C15 O22 1.247 . S
C15 O23 1.258 . S
O16 C14 1.247 . S
O16 Zn17 2.028 . S
Zn17 O16 2.028 . S
Zn17 O21 2.035 . S
Zn17 O23 2.035 . S
Zn17 O24 2.028 . S
O18 C14 1.258 . S
O18 Zn19 2.035 . S
Zn19 O18 2.035 . S
Zn19 O20 2.028 . S
Zn19 O22 2.028 . S
Zn19 O25 2.035 . S
O20 Zn19 2.028 . S
O20 C26 1.247 . S
O21 Zn17 2.035 . S
O21 C26 1.258 . S
O22 C15 1.247 . S
O22 Zn19 2.028 . S
O23 C15 1.258 . S
O23 Zn17 2.035 . S
O24 Zn17 2.028 . S
O24 C27 1.247 . S
O25 Zn19 2.035 . S
O25 C27 1.258 . S
C26 O20 1.247 . S
C26 O21 1.258 . S
C27 O24 1.247 . S
C27 O25 1.258 . S
C28 O30 1.247 . S
C28 O32 1.258 . S
C29 O36 1.247 . S
C29 O37 1.258 . S
O30 C28 1.247 . S
O30 Zn31 2.028 . S
Zn31 O30 2.028 . S
Zn31 O35 2.035 . S
Zn31 O37 2.035 . S
Zn31 O38 2.028 . S
O32 C28 1.258 . S
O32 Zn33 2.035 . S
Zn33 O32 2.035 . S
Zn33 O34 2.028 . S
Zn33 O36 2.028 . S
Zn33 O39 2.035 . S
O34 Zn33 2.028 . S
O34 C40 1.247 . S
O35 Zn31 2.035 . S
O35 C40 1.258 . S
O36 C29 1.247 . S
O36 Zn33 2.028 . S
O37 C29 1.258 . S
O37 Zn31 2.035 . S
O38 Zn31 2.028 . S
O38 C41 1.247 . S
O39 Zn33 2.035 . S
O39 C41 1.258 . S
C40 O34 1.247 . S
C40 O35 1.258 . S
C41 O38 1.247 . S
C41 O39 1.258 . S
C42 O44 1.247 . S
C42 O46 1.258 1_556 S
C43 O50 1.247 . S
C43 O51 1.258 . S
O44 C42 1.247 . S
O44 Zn45 2.028 . S
Zn45 O44 2.028 . S
Zn45 O49 2.035 1_556 S
Zn45 O51 2.035 1_556 S
Zn45 O52 2.028 . S
O46 C42 1.258 1_554 S
O46 Zn47 2.035 . S
Zn47 O46 2.035 . S
Zn47 O48 2.028 . S
Zn47 O50 2.028 . S
Zn47 O53 2.035 . S
O48 Zn47 2.028 . S
O48 C54 1.247 . S
O49 Zn45 2.035 1_554 S
O49 C54 1.258 . S
O50 C43 1.247 . S
O50 Zn47 2.028 . S
O51 C43 1.258 . S
O51 Zn45 2.035 1_554 S
O52 Zn45 2.028 . S
O52 C55 1.247 . S
O53 Zn47 2.035 . S
O53 C55 1.258 1_554 S
C54 O48 1.247 . S
C54 O49 1.258 . S
C55 O52 1.247 . S
C55 O53 1.258 1_556 S
C56 O58 1.247 . S
C56 O60 1.258 . S
C57 O64 1.247 . S
C57 O65 1.258 . S
O58 C56 1.247 . S
O58 Zn59 2.028 . S
Zn59 O58 2.028 . S
Zn59 O63 2.035 . S
Zn59 O65 2.035 . S
Zn59 O66 2.028 . S
O60 C56 1.258 . S
O60 Zn61 2.035 . S
Zn61 O60 2.035 . S
Zn61 O62 2.028 . S
Zn61 O64 2.028 . S
Zn61 O67 2.035 . S
O62 Zn61 2.028 . S
O62 C68 1.247 . S
O63 Zn59 2.035 . S
O63 C68 1.258 . S
O64 C57 1.247 . S
O64 Zn61 2.028 . S
O65 C57 1.258 . S
O65 Zn59 2.035 . S
O66 Zn59 2.028 . S
O66 C69 1.247 . S
O67 Zn61 2.035 . S
O67 C69 1.258 . S
C68 O62 1.247 . S
C68 O63 1.258 . S
C69 O66 1.247 . S
C69 O67 1.258 . S
C70 O72 1.247 . S
C70 O74 1.258 . S
C71 O78 1.247 . S
C71 O79 1.258 . S
O72 C70 1.247 . S
O72 Zn73 2.028 . S
Zn73 O72 2.028 . S
Zn73 O77 2.035 . S
Zn73 O79 2.035 . S
Zn73 O80 2.028 . S
O74 C70 1.258 . S
O74 Zn75 2.035 . S
Zn75 O74 2.035 . S
Zn75 O76 2.028 . S
Zn75 O78 2.028 . S
Zn75 O81 2.035 . S
O76 Zn75 2.028 . S
O76 C82 1.247 . S
O77 Zn73 2.035 . S
O77 C82 1.258 . S
O78 C71 1.247 . S
O78 Zn75 2.028 . S
O79 C71 1.258 . S
O79 Zn73 2.035 . S
O80 Zn73 2.028 . S
O80 C83 1.247 . S
O81 Zn75 2.035 . S
O81 C83 1.258 . S
C82 O76 1.247 . S
C82 O77 1.258 . S
C83 O80 1.247 . S
C83 O81 1.258 . S
C12 C83 1.556 . S
C26 C0 1.557 1_655 S
C14 C28 1.557 1_545 S
C42 C40 1.557 . S
C54 C57 1.555 1_655 S
C71 C69 1.554 1_545 S
C68 C13 1.505 . S
C82 C27 1.505 . S
C29 C1 1.504 . S
C43 C15 1.504 . S
C56 C41 1.505 . S
C70 C55 1.505 . S
