# Generated by pormake.
# Topology hex, (8)-cn, num edge types: 1
# Building blocks:
#     Node 0, Type 0, BuildingBlock: EYACOX_clean_sbu_0, # of connection points: 8
#     Edge 1, Type (0, 0), BuildingBlock: KIFKEQ_clean_linker_1, # of connection points: 2
#     Edge 2, Type (0, 0), BuildingBlock: KIFKEQ_clean_linker_1, # of connection points: 2
#     Edge 3, Type (0, 0), BuildingBlock: KIFKEQ_clean_linker_1, # of connection points: 2
#     Edge 4, Type (0, 0), BuildingBlock: KIFKEQ_clean_linker_1, # of connection points: 2
# Relax obj value: 0.024
# Max RMSD: 0.062
# Mean RMSD: 0.062
data_MOF--net-hex--node1-EYACOX_clean_sbu_0--edge1-KIFKEQ_clean_linker_1
_symmetry_space_group_name_H-M    P1
_symmetry_Int_Tables_number       1
_symmetry_cell_setting            triclinic
loop_
_symmetry_equiv_pos_as_xyz
'x, y, z'
_cell_length_a     24.907592
_cell_length_b     23.739208
_cell_length_c     15.540549
_cell_angle_alpha  112.72437
_cell_angle_beta   71.805109
_cell_angle_gamma 144.65324
loop_
_atom_site_label
_atom_site_type_symbol
_atom_site_fract_x
_atom_site_fract_y
_atom_site_fract_z
_atom_type_partial_charge
Eu0 Eu 0.05274 0.91515 0.94965 0.0
Eu1 Eu 0.96934 -0.00884 0.02956 0.0
O2 O 0.17257 0.95583 0.90825 0.0
O3 O 0.03558 0.80279 0.91384 0.0
O4 O 0.96416 0.95125 0.8731 0.0
O5 O 0.06263 0.95162 0.8268 0.0
O6 O 0.90677 0.78723 0.89824 0.0
O7 O 0.8602 0.83031 0.02526 0.0
C8 C 0.16378 0.86111 0.94974 0.0
C9 C 0.23697 0.84656 0.03156 0.0
C10 C 0.14329 0.78193 0.04345 0.0
C11 C 0.10666 0.78962 0.00319 0.0
C12 C 0.29337 0.91289 0.97422 0.0
C13 C 0.25704 0.92065 0.93308 0.0
C14 C 0.12434 0.86691 0.90388 0.0
C15 C 1.01395 0.95161 0.80956 0.0
O16 O 0.85117 0.94942 0.03705 0.0
O17 O 0.97921 0.09831 0.10897 0.0
C18 C 0.84125 0.7662 0.94958 0.0
O19 O 1.01414 0.01094 0.15549 0.0
O20 O 1.00116 0.89469 0.09524 0.0
O21 O 0.11453 0.11499 0.98026 0.0
O22 O 0.15911 0.07664 0.02517 0.0
C23 C 0.88369 0.08022 0.05597 0.0
C24 C 0.78544 0.05533 -0.00803 0.0
C25 C 0.79824 0.01547 0.01641 0.0
C26 C 0.85704 0.15883 0.00812 0.0
C27 C 0.93906 0.22383 0.05219 0.0
C28 C 0.95315 0.18519 0.07594 0.0
C29 C 0.89616 0.03819 0.08468 0.0
C30 C 1.00843 0.9537 0.16617 0.0
C31 C 0.17979 0.13775 -0.00374 0.0
H32 H 0.2642 0.83741 0.059 0.0
H33 H 0.0333 0.73752 0.01084 0.0
H34 H 0.3002 -0.02919 0.88707 0.0
H35 H 0.74157 0.93502 0.00641 0.0
H36 H 0.84603 0.18978 -0.00749 0.0
H37 H 1.01675 0.23651 0.11129 0.0
H38 H 0.05958 0.35377 0.94138 0.0
H39 H 0.94798 0.32619 0.21968 0.0
H40 H 0.09634 0.48944 0.95868 0.0
H41 H 0.98491 0.46264 0.23752 0.0
H42 H 0.15515 0.77952 0.21076 0.0
H43 H 0.11748 0.65235 0.2306 0.0
H44 H 0.96922 0.46138 0.9683 0.0
H45 H 1.00692 0.58804 0.94853 0.0
C46 C 0.04797 0.38085 0.00817 0.0
C47 C 1.00203 0.33061 0.07953 0.0
C48 C 0.0667 0.45658 0.01733 0.0
C49 C 0.0403 0.48368 0.09825 0.0
C50 C 1.00489 0.44216 0.17411 0.0
C51 C 0.98551 0.36562 0.16461 0.0
C52 C 0.11022 0.70798 0.16002 0.0
C53 C 0.08442 0.69369 0.07776 0.0
C54 C 0.08995 0.63604 0.17071 0.0
C55 C 0.04373 0.54921 0.09919 0.0
C56 C 1.0074 0.52932 0.02315 0.0
C57 C 0.02705 0.60074 0.01283 0.0
H58 H 0.63351 0.96591 0.09949 0.0
H59 H 0.7412 0.02472 0.82599 0.0
H60 H 0.52008 0.93996 0.08096 0.0
H61 H 0.62734 -0.00167 0.80682 0.0
H62 H 0.3411 0.86073 0.8127 0.0
H63 H 0.4536 0.87709 0.80256 0.0
H64 H 0.55453 0.07421 0.07826 0.0
H65 H 0.44277 0.05802 0.08773 0.0
C66 C 0.62959 0.96794 0.03344 0.0
C67 C 0.69528 -0.00405 0.96375 0.0
C68 C 0.56622 0.95557 0.02359 0.0
C69 C 0.56674 -0.0299 0.94347 0.0
C70 C 0.6257 -0.01263 0.86955 0.0
C71 C 0.68983 0.00084 0.87987 0.0
C72 C 0.39099 0.91199 0.86874 0.0
C73 C 0.3842 0.95936 0.95046 0.0
C74 C 0.45411 0.91977 0.86375 0.0
C75 C 0.51066 -0.02578 0.94087 0.0
C76 C 0.51008 0.02949 0.01867 0.0
C77 C 0.44782 0.02243 0.02325 0.0
H78 H 0.24404 0.26575 0.91074 0.0
H79 H 0.32953 0.20185 0.01458 0.0
H80 H 0.40293 0.40837 0.86218 0.0
H81 H 0.48771 0.34469 0.96727 0.0
H82 H 0.76244 0.58739 0.85277 0.0
H83 H 0.59553 0.42278 0.83294 0.0
H84 H 0.53791 0.56665 0.96757 0.0
H85 H 0.70269 0.7291 0.98664 0.0
C86 C 0.29662 0.28212 0.92317 0.0
C87 C 0.27514 0.22431 0.96823 0.0
C88 C 0.38696 0.36274 0.89441 0.0
C89 C 0.45679 0.38655 0.91055 0.0
C90 C 0.43456 0.3265 0.95239 0.0
C91 C 0.3444 0.24599 0.98108 0.0
C92 C 0.71366 0.58322 0.87589 0.0
C93 C 0.74418 0.66954 0.92349 0.0
C94 C 0.61881 0.48971 0.86447 0.0
C95 C 0.55459 0.4827 0.89946 0.0
C96 C 0.58603 0.57012 0.93935 0.0
C97 C 0.6802 0.66287 0.9516 0.0
H98 H 0.9184 0.94587 0.74702 0.0
H99 H 0.113 0.96212 0.65792 0.0
H100 H 0.92029 0.94941 0.59214 0.0
H101 H 0.11577 0.96736 0.50267 0.0
H102 H 1.00533 0.85181 0.21374 0.0
H103 H 1.00976 0.85433 0.3692 0.0
H104 H 0.02527 0.06467 0.48879 0.0
H105 H 1.01907 0.061 0.33293 0.0
C106 C 0.96195 0.95059 0.69459 0.0
C107 C 1.01544 0.95342 0.7149 0.0
C108 C 0.96343 0.95335 0.60593 0.0
C109 C 1.0184 0.95905 0.53552 0.0
C110 C 0.07203 0.96199 0.55553 0.0
C111 C 0.07062 0.95926 0.64446 0.0
C112 C 1.00952 0.89859 0.27303 0.0
C113 C 1.0113 0.95585 0.26092 0.0
C114 C 1.01286 0.90057 0.3621 0.0
C115 C 1.01798 0.95974 0.44101 0.0
C116 C 1.02031 0.01748 0.4291 0.0
C117 C 1.01706 0.01562 0.33987 0.0
loop_
_geom_bond_atom_site_label_1
_geom_bond_atom_site_label_2
_geom_bond_distance
_geom_bond_site_symmetry_2
_ccdc_geom_bond_type
Eu0 O2 2.472 . S
Eu0 O3 2.507 1_455 S
Eu0 O5 2.336 1_455 S
Eu0 O6 2.389 1_455 S
Eu0 C14 2.835 . S
Eu0 O20 2.396 1_456 S
Eu0 O22 2.323 1_565 S
Eu1 O4 2.396 1_654 S
Eu1 O7 2.323 1_545 S
Eu1 O16 2.472 . S
Eu1 O17 2.507 1_655 S
Eu1 O19 2.336 1_655 S
Eu1 O21 2.389 1_655 S
Eu1 C29 2.835 . S
O2 Eu0 2.472 . S
O2 C14 1.258 . S
O3 Eu0 2.507 1_655 S
O3 C14 1.246 1_655 S
O4 Eu1 2.396 1_456 S
O4 C15 1.216 1_445 S
O5 Eu0 2.336 1_655 S
O5 C15 1.279 . S
O6 Eu0 2.389 1_655 S
O6 C18 1.239 . S
O7 Eu1 2.323 1_565 S
O7 C18 1.249 1_554 S
C8 C11 1.390 . S
C8 C13 1.370 . S
C8 C14 1.489 . S
C9 C10 1.344 . S
C9 C12 1.414 . S
C9 H32 0.931 . S
C10 C9 1.344 . S
C10 C11 1.423 1_554 S
C11 C8 1.390 . S
C11 C10 1.423 1_556 S
C11 H33 0.930 1_455 S
C12 C9 1.414 . S
C12 C13 1.395 1_554 S
C13 C8 1.370 . S
C13 C12 1.395 1_556 S
C13 H34 0.932 1_565 S
C14 Eu0 2.835 . S
C14 O2 1.258 . S
C14 O3 1.246 1_455 S
C14 C8 1.489 . S
C15 O4 1.216 1_665 S
C15 O5 1.279 . S
O16 Eu1 2.472 . S
O16 C29 1.258 . S
O17 Eu1 2.507 1_455 S
O17 C29 1.246 1_455 S
C18 O6 1.239 . S
C18 O7 1.249 1_556 S
O19 Eu1 2.336 1_455 S
O19 C30 1.279 . S
O20 Eu0 2.396 1_654 S
O20 C30 1.216 1_665 S
O21 Eu1 2.389 1_455 S
O21 C31 1.239 . S
O22 Eu0 2.323 1_545 S
O22 C31 1.249 1_556 S
C23 C25 1.370 . S
C23 C28 1.390 . S
C23 C29 1.489 . S
C24 C25 1.396 1_556 S
C24 C26 1.413 . S
C25 C23 1.370 . S
C25 C24 1.396 1_554 S
C25 H35 0.932 1_545 S
C26 C24 1.413 . S
C26 C27 1.345 . S
C26 H36 0.931 . S
C27 C26 1.345 . S
C27 C28 1.418 1_556 S
C28 C23 1.390 . S
C28 C27 1.418 1_554 S
C28 H37 0.930 1_655 S
C29 Eu1 2.835 . S
C29 O16 1.258 . S
C29 O17 1.246 1_655 S
C29 C23 1.489 . S
C30 O19 1.279 . S
C30 O20 1.216 1_445 S
C31 O21 1.239 . S
C31 O22 1.249 1_554 S
H32 C9 0.931 . S
H33 C11 0.930 1_655 S
H34 C13 0.932 1_545 S
H35 C25 0.932 1_565 S
H36 C26 0.931 . S
H37 C28 0.930 1_455 S
H38 C46 0.950 . S
H39 C51 0.950 . S
H40 C48 0.950 . S
H41 C50 0.950 . S
H42 C52 0.950 1_655 S
H43 C54 0.950 . S
H44 C56 0.950 . S
H45 C57 0.950 . S
C46 H38 0.950 . S
C46 C47 1.386 1_455 S
C46 C48 1.390 . S
C47 C46 1.386 1_655 S
C47 C51 1.393 1_556 S
C48 H40 0.950 . S
C48 C46 1.390 . S
C48 C49 1.400 1_455 S
C49 C48 1.400 1_655 S
C49 C50 1.398 1_556 S
C49 C55 1.491 1_656 S
C50 H41 0.950 . S
C50 C49 1.398 1_554 S
C50 C51 1.391 . S
C51 H39 0.950 . S
C51 C47 1.393 1_554 S
C51 C50 1.391 . S
C52 H42 0.950 1_455 S
C52 C53 1.386 . S
C52 C54 1.390 1_455 S
C53 C52 1.386 . S
C53 C57 1.393 1_554 S
C54 H43 0.950 . S
C54 C52 1.390 1_655 S
C54 C55 1.400 1_655 S
C55 C49 1.491 1_454 S
C55 C54 1.400 1_455 S
C55 C56 1.398 1_554 S
C56 H44 0.950 . S
C56 C55 1.398 1_556 S
C56 C57 1.391 . S
C57 H45 0.950 . S
C57 C53 1.393 1_556 S
C57 C56 1.391 . S
H58 C66 0.950 . S
H59 C71 0.950 . S
H60 C68 0.950 . S
H61 C70 0.950 . S
H62 C72 0.950 . S
H63 C74 0.950 . S
H64 C76 0.950 . S
H65 C77 0.950 . S
C66 H58 0.950 . S
C66 C67 1.386 1_565 S
C66 C68 1.391 . S
C67 C66 1.386 1_545 S
C67 C71 1.393 1_554 S
C68 H60 0.950 . S
C68 C66 1.391 . S
C68 C69 1.400 1_565 S
C69 C68 1.400 1_545 S
C69 C70 1.398 1_554 S
C69 C75 1.491 1_544 S
C70 H61 0.950 . S
C70 C69 1.398 1_556 S
C70 C71 1.391 . S
C71 H59 0.950 . S
C71 C67 1.393 1_556 S
C71 C70 1.391 . S
C72 H62 0.950 . S
C72 C73 1.386 1_545 S
C72 C74 1.391 . S
C73 C72 1.386 1_565 S
C73 C77 1.393 1_556 S
C74 H63 0.950 . S
C74 C72 1.391 . S
C74 C75 1.400 1_545 S
C75 C69 1.491 1_566 S
C75 C74 1.400 1_565 S
C75 C76 1.398 1_556 S
C76 H64 0.950 . S
C76 C75 1.398 1_554 S
C76 C77 1.391 . S
C77 H65 0.950 . S
C77 C73 1.393 1_554 S
C77 C76 1.391 . S
H78 C86 0.950 . S
H79 C91 0.950 . S
H80 C88 0.950 . S
H81 C90 0.950 . S
H82 C92 0.950 . S
H83 C94 0.950 . S
H84 C96 0.950 . S
H85 C97 0.950 . S
C86 H78 0.950 . S
C86 C87 1.386 . S
C86 C88 1.391 . S
C87 C86 1.386 . S
C87 C91 1.393 1_554 S
C88 H80 0.950 . S
C88 C86 1.391 . S
C88 C89 1.400 . S
C89 C88 1.400 . S
C89 C90 1.398 1_554 S
C89 C95 1.491 1_554 S
C90 H81 0.950 . S
C90 C89 1.398 1_556 S
C90 C91 1.391 . S
C91 H79 0.950 . S
C91 C87 1.393 1_556 S
C91 C90 1.391 . S
C92 H82 0.950 . S
C92 C93 1.386 . S
C92 C94 1.391 . S
C93 C92 1.386 . S
C93 C97 1.393 1_556 S
C94 H83 0.950 . S
C94 C92 1.391 . S
C94 C95 1.400 . S
C95 C89 1.491 1_556 S
C95 C94 1.400 . S
C95 C96 1.398 1_556 S
C96 H84 0.950 . S
C96 C95 1.398 1_554 S
C96 C97 1.391 . S
C97 H85 0.950 . S
C97 C93 1.393 1_554 S
C97 C96 1.391 . S
H98 C106 0.950 . S
H99 C111 0.950 . S
H100 C108 0.950 . S
H101 C110 0.950 . S
H102 C112 0.950 . S
H103 C114 0.950 . S
H104 C116 0.950 . S
H105 C117 0.950 . S
C106 H98 0.950 . S
C106 C107 1.386 1_665 S
C106 C108 1.391 . S
C107 C106 1.386 1_445 S
C107 C111 1.393 . S
C108 H100 0.950 . S
C108 C106 1.391 . S
C108 C109 1.394 1_665 S
C109 C108 1.394 1_445 S
C109 C110 1.410 . S
C109 C115 1.483 1_445 S
C110 H101 0.950 . S
C110 C109 1.410 . S
C110 C111 1.391 . S
C111 H99 0.950 . S
C111 C107 1.393 . S
C111 C110 1.391 . S
C112 H102 0.950 . S
C112 C113 1.386 1_445 S
C112 C114 1.391 . S
C113 C112 1.386 1_665 S
C113 C117 1.393 . S
C114 H103 0.950 . S
C114 C112 1.391 . S
C114 C115 1.396 1_445 S
C115 C109 1.483 1_665 S
C115 C114 1.396 1_665 S
C115 C116 1.406 . S
C116 H104 0.950 . S
C116 C115 1.406 . S
C116 C117 1.391 . S
C117 H105 0.950 . S
C117 C113 1.393 . S
C117 C116 1.391 . S
C47 C27 1.148 . S
C53 C10 1.143 . S
C67 C24 2.015 1_554 S
C73 C12 2.016 1_556 S
C87 C31 0.877 . S
C93 C18 0.877 . S
C107 C15 1.491 1_445 S
C113 C30 1.491 1_665 S
