# Generated by pormake.
# Topology qtz-x, (6)-cn, num edge types: 1
# Building blocks:
#     Node 0, Type 0, BuildingBlock: BETDEL_clean_sbu_0, # of connection points: 6
#     Node 1, Type 0, BuildingBlock: BETDEL_clean_sbu_0, # of connection points: 6
#     Node 2, Type 0, BuildingBlock: BETDEL_clean_sbu_0, # of connection points: 6
#     Edge 3, Type (0, 0), BuildingBlock: EYOCIG_clean_linker_4, # of connection points: 2
#     Edge 4, Type (0, 0), BuildingBlock: EYOCIG_clean_linker_4, # of connection points: 2
#     Edge 5, Type (0, 0), BuildingBlock: EYOCIG_clean_linker_4, # of connection points: 2
#     Edge 6, Type (0, 0), BuildingBlock: EYOCIG_clean_linker_4, # of connection points: 2
#     Edge 7, Type (0, 0), BuildingBlock: EYOCIG_clean_linker_4, # of connection points: 2
#     Edge 8, Type (0, 0), BuildingBlock: EYOCIG_clean_linker_4, # of connection points: 2
#     Edge 9, Type (0, 0), BuildingBlock: EYOCIG_clean_linker_4, # of connection points: 2
#     Edge 10, Type (0, 0), BuildingBlock: EYOCIG_clean_linker_4, # of connection points: 2
#     Edge 11, Type (0, 0), BuildingBlock: EYOCIG_clean_linker_4, # of connection points: 2
# Relax obj value: 0.144
# Max RMSD: 0.220
# Mean RMSD: 0.215
data_MOF--net-qtz-x--node1-BETDEL_clean_sbu_0--edge1-EYOCIG_clean_linker_4
_symmetry_space_group_name_H-M    P1
_symmetry_Int_Tables_number       1
_symmetry_cell_setting            triclinic
loop_
_symmetry_equiv_pos_as_xyz
'x, y, z'
_cell_length_a     11.521715
_cell_length_b     11.350712
_cell_length_c     34.18502
_cell_angle_alpha  84.370132
_cell_angle_beta   98.413539
_cell_angle_gamma 119.73383
loop_
_atom_site_label
_atom_site_type_symbol
_atom_site_fract_x
_atom_site_fract_y
_atom_site_fract_z
_atom_type_partial_charge
Dy0 Dy 0.89674 0.48961 0.21405 0.0
C1 C 0.2822 0.75841 0.10861 0.0
C2 C 0.7418 0.36073 0.27437 0.0
Dy3 Dy 0.12848 0.62314 0.1687 0.0
O4 O 0.73773 0.45727 0.25175 0.0
O5 O 0.82367 0.32836 0.26241 0.0
O6 O 0.83909 0.6482 0.19361 0.0
O7 O 0.04485 0.70559 0.20486 0.0
C8 C 0.96121 0.74658 0.19283 0.0
C9 C 0.06326 0.36545 0.18991 0.0
O10 O 0.24961 0.69695 0.22673 0.0
O11 O 0.07322 0.53781 0.26035 0.0
O12 O 0.27982 0.65419 0.12844 0.0
O13 O 0.20704 0.79432 0.12315 0.0
O14 O 0.18545 0.46334 0.18851 0.0
O15 O 0.98019 0.40706 0.17801 0.0
O16 O 0.78065 0.40652 0.15543 0.0
O17 O 0.95418 0.57182 0.12221 0.0
C18 C 0.20128 0.62932 0.25949 0.0
C19 C 0.82906 0.47332 0.12247 0.0
Dy20 Dy 0.65622 0.13368 0.55175 0.0
C21 C 0.45128 0.71418 0.44569 0.0
C22 C 0.7384 0.31566 0.61014 0.0
Dy23 Dy 0.51861 0.88276 0.50678 0.0
O24 O 0.81759 0.2993 0.59083 0.0
O25 O 0.61424 0.23792 0.59631 0.0
O26 O 0.85135 0.183 0.53161 0.0
O27 O 0.71207 0.97843 0.54359 0.0
C28 C 0.8252 0.05823 0.53153 0.0
C29 C 0.34794 0.95495 0.52715 0.0
O30 O 0.51231 0.77764 0.56575 0.0
O31 O 0.56352 0.97084 0.598 0.0
O32 O 0.36758 0.73092 0.46275 0.0
O33 O 0.57103 0.78092 0.46428 0.0
O34 O 0.32132 0.83019 0.52581 0.0
O35 O 0.46142 0.0363 0.5154 0.0
O36 O 0.64471 0.23476 0.49298 0.0
O37 O 0.60495 0.04722 0.46034 0.0
C38 C 0.52236 0.83972 0.59789 0.0
C39 C 0.63471 0.1753 0.46033 0.0
Dy40 Dy 0.55599 0.70498 0.87801 0.0
C41 C 0.80605 0.52199 0.79005 0.0
C42 C 0.43785 0.7695 0.92978 0.0
Dy43 Dy 0.68362 0.57516 0.84316 0.0
O44 O 0.53794 0.85643 0.9111 0.0
O45 O 0.39702 0.64805 0.91846 0.0
O46 O 0.70794 0.90801 0.85625 0.0
O47 O 0.76776 0.76187 0.87569 0.0
C48 C 0.80524 0.87998 0.86069 0.0
C49 C 0.43484 0.39902 0.86047 0.0
O50 O 0.76241 0.55369 0.90536 0.0
O51 O 0.61022 0.59686 0.9298 0.0
O52 O 0.70393 0.43192 0.80744 0.0
O53 O 0.84815 0.64052 0.80396 0.0
O54 O 0.53135 0.36996 0.86356 0.0
O55 O 0.47233 0.51755 0.8459 0.0
O56 O 0.46128 0.70546 0.81598 0.0
O57 O 0.61771 0.67145 0.79078 0.0
C58 C 0.69945 0.5544 0.93466 0.0
C59 C 0.51929 0.70097 0.78589 0.0
C60 C 0.00563 -0.00033 0.1916 0.0
C61 C 0.992 0.88652 0.19248 0.0
C62 C 0.01658 0.11162 0.19112 0.0
C63 C 0.03116 0.22513 0.19026 0.0
C64 C 0.1452 0.00101 0.52925 0.0
C65 C 0.24236 0.98759 0.52796 0.0
C66 C 0.02751 0.01086 0.53005 0.0
C67 C 0.93054 0.02485 0.53112 0.0
C68 C 0.05535 0.08191 0.86081 0.0
C69 C 0.94353 0.98551 0.86133 0.0
C70 C 0.18449 0.19821 0.8606 0.0
C71 C 0.29646 0.29422 0.86002 0.0
C72 C 0.38233 0.81203 0.99758 0.0
C73 C 0.41037 0.79694 0.96648 0.0
C74 C 0.35326 0.81273 0.03628 0.0
C75 C 0.31904 0.79313 0.06906 0.0
C76 C 0.66131 0.28015 0.38822 0.0
C77 C 0.652 0.24599 0.42266 0.0
C78 C 0.67699 0.30653 0.34751 0.0
C79 C 0.7051 0.33316 0.31397 0.0
C80 C 0.45787 0.72429 0.71005 0.0
C81 C 0.47183 0.71716 0.74569 0.0
C82 C 0.46501 0.73713 0.66884 0.0
C83 C 0.48614 0.76718 0.63478 0.0
C84 C 0.72321 0.46643 1.00773 0.0
C85 C 0.72138 0.5034 0.97346 0.0
C86 C 0.72704 0.43854 0.04894 0.0
C87 C 0.753 0.43676 0.08437 0.0
C88 C 0.34229 0.65748 0.32915 0.0
C89 C 0.28737 0.65249 0.29602 0.0
C90 C 0.39212 0.6648 0.36963 0.0
C91 C 0.42798 0.68799 0.40427 0.0
C92 C 0.82983 0.47296 0.71871 0.0
C93 C 0.82551 0.50329 0.75109 0.0
C94 C 0.80938 0.42854 0.67985 0.0
C95 C 0.77936 0.37779 0.64797 0.0
loop_
_geom_bond_atom_site_label_1
_geom_bond_atom_site_label_2
_geom_bond_distance
_geom_bond_site_symmetry_2
_ccdc_geom_bond_type
Dy0 O4 2.398 . S
Dy0 O5 2.491 . S
Dy0 O6 2.403 . S
Dy0 O7 2.664 1_655 S
Dy0 O11 2.326 1_655 S
Dy0 O15 2.310 . S
Dy0 O16 2.351 . S
C1 O12 1.185 . S
C1 O13 1.355 . S
C2 O4 1.185 . S
C2 O5 1.355 . S
Dy3 O7 2.310 . S
Dy3 O10 2.351 . S
Dy3 O12 2.398 . S
Dy3 O13 2.491 . S
Dy3 O14 2.403 . S
Dy3 O15 2.664 1_455 S
Dy3 O17 2.326 1_455 S
O4 Dy0 2.398 . S
O4 C2 1.185 . S
O5 Dy0 2.491 . S
O5 C2 1.355 . S
O6 Dy0 2.403 . S
O6 C8 1.254 . S
O7 Dy0 2.664 1_455 S
O7 Dy3 2.310 . S
O7 C8 1.268 1_455 S
C8 O6 1.254 . S
C8 O7 1.268 1_655 S
C9 O14 1.254 . S
C9 O15 1.268 1_455 S
O10 Dy3 2.351 . S
O10 C18 1.249 . S
O11 Dy0 2.326 1_455 S
O11 C18 1.267 . S
O12 C1 1.185 . S
O12 Dy3 2.398 . S
O13 C1 1.355 . S
O13 Dy3 2.491 . S
O14 Dy3 2.403 . S
O14 C9 1.254 . S
O15 Dy0 2.310 . S
O15 Dy3 2.664 1_655 S
O15 C9 1.268 1_655 S
O16 Dy0 2.351 . S
O16 C19 1.249 . S
O17 Dy3 2.326 1_655 S
O17 C19 1.267 . S
C18 O10 1.249 . S
C18 O11 1.267 . S
C19 O16 1.249 . S
C19 O17 1.267 . S
Dy20 O24 2.398 . S
Dy20 O25 2.491 . S
Dy20 O26 2.403 . S
Dy20 O27 2.664 1_545 S
Dy20 O31 2.326 1_545 S
Dy20 O35 2.310 . S
Dy20 O36 2.351 . S
C21 O32 1.185 . S
C21 O33 1.355 . S
C22 O24 1.185 . S
C22 O25 1.355 . S
Dy23 O27 2.310 . S
Dy23 O30 2.351 . S
Dy23 O32 2.398 . S
Dy23 O33 2.491 . S
Dy23 O34 2.403 . S
Dy23 O35 2.664 1_565 S
Dy23 O37 2.326 1_565 S
O24 Dy20 2.398 . S
O24 C22 1.185 . S
O25 Dy20 2.491 . S
O25 C22 1.355 . S
O26 Dy20 2.403 . S
O26 C28 1.254 . S
O27 Dy20 2.664 1_565 S
O27 Dy23 2.310 . S
O27 C28 1.268 1_565 S
C28 O26 1.254 . S
C28 O27 1.268 1_545 S
C29 O34 1.254 . S
C29 O35 1.268 1_565 S
O30 Dy23 2.351 . S
O30 C38 1.249 . S
O31 Dy20 2.326 1_565 S
O31 C38 1.267 . S
O32 C21 1.185 . S
O32 Dy23 2.398 . S
O33 C21 1.355 . S
O33 Dy23 2.491 . S
O34 Dy23 2.403 . S
O34 C29 1.254 . S
O35 Dy20 2.310 . S
O35 Dy23 2.664 1_545 S
O35 C29 1.268 1_545 S
O36 Dy20 2.351 . S
O36 C39 1.249 . S
O37 Dy23 2.326 1_545 S
O37 C39 1.267 . S
C38 O30 1.249 . S
C38 O31 1.267 . S
C39 O36 1.249 . S
C39 O37 1.267 . S
Dy40 O44 2.398 . S
Dy40 O45 2.491 . S
Dy40 O46 2.403 . S
Dy40 O47 2.664 . S
Dy40 O51 2.326 . S
Dy40 O55 2.310 . S
Dy40 O56 2.351 . S
C41 O52 1.185 . S
C41 O53 1.355 . S
C42 O44 1.185 . S
C42 O45 1.355 . S
Dy43 O47 2.310 . S
Dy43 O50 2.351 . S
Dy43 O52 2.398 . S
Dy43 O53 2.491 . S
Dy43 O54 2.403 . S
Dy43 O55 2.664 . S
Dy43 O57 2.326 . S
O44 Dy40 2.398 . S
O44 C42 1.185 . S
O45 Dy40 2.491 . S
O45 C42 1.355 . S
O46 Dy40 2.403 . S
O46 C48 1.254 . S
O47 Dy40 2.664 . S
O47 Dy43 2.310 . S
O47 C48 1.268 . S
C48 O46 1.254 . S
C48 O47 1.268 . S
C49 O54 1.254 . S
C49 O55 1.268 . S
O50 Dy43 2.351 . S
O50 C58 1.249 . S
O51 Dy40 2.326 . S
O51 C58 1.267 . S
O52 C41 1.185 . S
O52 Dy43 2.398 . S
O53 C41 1.355 . S
O53 Dy43 2.491 . S
O54 Dy43 2.403 . S
O54 C49 1.254 . S
O55 Dy40 2.310 . S
O55 Dy43 2.664 . S
O55 C49 1.268 . S
O56 Dy40 2.351 . S
O56 C59 1.249 . S
O57 Dy43 2.326 . S
O57 C59 1.267 . S
C58 O50 1.249 . S
C58 O51 1.267 . S
C59 O56 1.249 . S
C59 O57 1.267 . S
C60 C61 1.170 . S
C60 C62 1.380 1_565 S
C61 C60 1.170 . S
C62 C60 1.380 1_545 S
C62 C63 1.170 . S
C63 C62 1.170 . S
C64 C65 1.170 . S
C64 C66 1.380 . S
C65 C64 1.170 . S
C66 C64 1.380 . S
C66 C67 1.170 1_455 S
C67 C66 1.170 1_655 S
C68 C69 1.170 1_455 S
C68 C70 1.380 . S
C69 C68 1.170 1_655 S
C70 C68 1.380 . S
C70 C71 1.170 . S
C71 C70 1.170 . S
C72 C73 1.170 . S
C72 C74 1.380 1_556 S
C73 C72 1.170 . S
C74 C72 1.380 1_554 S
C74 C75 1.170 . S
C75 C74 1.170 . S
C76 C77 1.170 . S
C76 C78 1.380 . S
C77 C76 1.170 . S
C78 C76 1.380 . S
C78 C79 1.170 . S
C79 C78 1.170 . S
C80 C81 1.170 . S
C80 C82 1.380 . S
C81 C80 1.170 . S
C82 C80 1.380 . S
C82 C83 1.170 . S
C83 C82 1.170 . S
C84 C85 1.170 . S
C84 C86 1.380 1_556 S
C85 C84 1.170 . S
C86 C84 1.380 1_554 S
C86 C87 1.170 . S
C87 C86 1.170 . S
C88 C89 1.170 . S
C88 C90 1.380 . S
C89 C88 1.170 . S
C90 C88 1.380 . S
C90 C91 1.170 . S
C91 C90 1.170 . S
C92 C93 1.170 . S
C92 C94 1.380 . S
C93 C92 1.170 . S
C94 C92 1.380 . S
C94 C95 1.170 . S
C95 C94 1.170 . S
C61 C8 1.265 . S
C63 C9 1.310 1_655 S
C65 C29 1.334 1_545 S
C67 C28 1.298 . S
C69 C48 1.276 1_545 S
C71 C49 1.256 . S
C73 C42 1.291 . S
C75 C1 1.248 . S
C77 C39 1.558 . S
C79 C2 1.549 . S
C81 C59 1.616 . S
C83 C38 1.611 . S
C85 C58 1.608 . S
C87 C19 1.609 . S
C89 C18 1.379 . S
C91 C21 1.369 . S
C93 C41 1.231 . S
C95 C22 1.285 . S
