# Generated by pormake.
# Topology uni, (4)-cn, num edge types: 1
# Building blocks:
#     Node 0, Type 0, BuildingBlock: GALJAG_clean_sbu_0, # of connection points: 4
#     Node 1, Type 0, BuildingBlock: GALJAG_clean_sbu_0, # of connection points: 4
#     Node 2, Type 0, BuildingBlock: GALJAG_clean_sbu_0, # of connection points: 4
#     Node 3, Type 0, BuildingBlock: GALJAG_clean_sbu_0, # of connection points: 4
#     Node 4, Type 0, BuildingBlock: GALJAG_clean_sbu_0, # of connection points: 4
#     Node 5, Type 0, BuildingBlock: GALJAG_clean_sbu_0, # of connection points: 4
#     Edge 6, Type (0, 0), BuildingBlock: EYOCIG_clean_linker_4, # of connection points: 2
#     Edge 7, Type (0, 0), BuildingBlock: EYOCIG_clean_linker_4, # of connection points: 2
#     Edge 8, Type (0, 0), BuildingBlock: EYOCIG_clean_linker_4, # of connection points: 2
#     Edge 9, Type (0, 0), BuildingBlock: EYOCIG_clean_linker_4, # of connection points: 2
#     Edge 10, Type (0, 0), BuildingBlock: EYOCIG_clean_linker_4, # of connection points: 2
#     Edge 11, Type (0, 0), BuildingBlock: EYOCIG_clean_linker_4, # of connection points: 2
#     Edge 12, Type (0, 0), BuildingBlock: EYOCIG_clean_linker_4, # of connection points: 2
#     Edge 13, Type (0, 0), BuildingBlock: EYOCIG_clean_linker_4, # of connection points: 2
#     Edge 14, Type (0, 0), BuildingBlock: EYOCIG_clean_linker_4, # of connection points: 2
#     Edge 15, Type (0, 0), BuildingBlock: EYOCIG_clean_linker_4, # of connection points: 2
#     Edge 16, Type (0, 0), BuildingBlock: EYOCIG_clean_linker_4, # of connection points: 2
#     Edge 17, Type (0, 0), BuildingBlock: EYOCIG_clean_linker_4, # of connection points: 2
# Relax obj value: 0.070
# Max RMSD: 0.134
# Mean RMSD: 0.134
data_MOF--net-uni--node1-GALJAG_clean_sbu_0--edge1-EYOCIG_clean_linker_4
_symmetry_space_group_name_H-M    P1
_symmetry_Int_Tables_number       1
_symmetry_cell_setting            triclinic
loop_
_symmetry_equiv_pos_as_xyz
'x, y, z'
_cell_length_a     30.171944
_cell_length_b     30.178389
_cell_length_c     19.589701
_cell_angle_alpha  90.030106
_cell_angle_beta   89.941948
_cell_angle_gamma 119.97872
loop_
_atom_site_label
_atom_site_type_symbol
_atom_site_fract_x
_atom_site_fract_y
_atom_site_fract_z
_atom_type_partial_charge
In0 In 0.62651 0.00813 0.06582 0.0
O1 O 0.58689 0.97638 0.96371 0.0
O2 O 0.58654 0.04193 1.00333 0.0
C3 C 0.64031 0.92946 0.1005 0.0
C4 C 0.71901 0.0868 0.0312 0.0
C5 C 0.57182 0.00634 0.17564 0.0
O6 O 0.60894 0.92557 0.05523 0.0
O7 O 0.66542 0.97292 0.12775 0.0
O8 O 0.61825 0.03961 0.16809 0.0
O9 O 0.55248 0.97432 0.12789 0.0
C10 C 0.57384 0.0097 0.95583 0.0
O11 O 0.6914 0.09073 0.07632 0.0
O12 O 0.70077 0.0433 1.00406 0.0
In13 In 0.62596 0.62489 0.2332 0.0
O14 O 0.6181 0.58499 0.1312 0.0
O15 O 0.55216 0.58463 0.17077 0.0
C16 C 0.71849 0.63896 0.26817 0.0
C17 C 0.63981 0.7173 0.19806 0.0
C18 C 0.57316 0.57055 0.34324 0.0
O19 O 0.69105 0.6074 0.22305 0.0
O20 O 0.70007 0.66414 0.29514 0.0
O21 O 0.58592 0.61683 0.33521 0.0
O22 O 0.58617 0.55117 0.29584 0.0
C23 C 0.5717 0.57185 0.12332 0.0
O24 O 0.60827 0.68986 0.24326 0.0
O25 O 0.66503 0.69892 0.17109 0.0
In26 In 0.00871 0.62421 0.39998 0.0
O27 O 0.04129 0.61672 0.29816 0.0
O28 O 0.97586 0.55052 0.33726 0.0
C29 C 0.08683 0.7167 0.43557 0.0
C30 C 0.93014 0.63812 0.36492 0.0
C31 C 0.01023 0.57145 0.51001 0.0
O32 O 0.0911 0.68958 0.39003 0.0
O33 O 0.04325 0.69798 0.46266 0.0
O34 O 0.97633 0.58366 0.50155 0.0
O35 O 0.04299 0.58496 0.46304 0.0
C36 C 0.00837 0.57026 0.29007 0.0
O37 O 0.92594 0.60628 0.40966 0.0
O38 O 0.97381 0.66354 0.33827 0.0
In39 In 0.39197 0.00665 0.56629 0.0
O40 O 0.3269 0.92415 0.57705 0.0
O41 O 0.31755 0.9717 0.50509 0.0
C42 C 0.44689 0.00856 0.67569 0.0
C43 C 0.44464 0.0052 0.456 0.0
C44 C 0.37807 0.08512 0.6017 0.0
O45 O 0.40068 0.97478 0.66787 0.0
O46 O 0.46593 0.04101 0.62837 0.0
O47 O 0.40908 0.08903 0.55579 0.0
O48 O 0.35334 0.04172 0.62924 0.0
C49 C 0.29922 0.92821 0.53226 0.0
O50 O 0.43158 0.0385 0.4641 0.0
O51 O 0.4319 0.97289 0.5034 0.0
In52 In 0.39289 0.39012 0.73338 0.0
O53 O 0.41023 0.32498 0.74429 0.0
O54 O 0.35424 0.31616 0.67114 0.0
C55 C 0.44557 0.44485 0.8432 0.0
C56 C 0.44727 0.4433 0.62355 0.0
C57 C 0.29998 0.37528 0.76802 0.0
O58 O 0.43359 0.3988 0.83487 0.0
O59 O 0.4318 0.46382 0.79622 0.0
O60 O 0.32718 0.40659 0.72249 0.0
O61 O 0.31888 0.3508 0.79567 0.0
C62 C 0.37905 0.29762 0.69877 0.0
O63 O 0.40099 0.43049 0.63177 0.0
O64 O 0.46665 0.43007 0.67061 0.0
In65 In 0.01032 0.39092 0.89967 0.0
O66 O 0.09263 0.40755 0.9093 0.0
O67 O 0.04447 0.35111 0.83725 0.0
C68 C 0.00968 0.44402 1.00996 0.0
C69 C 0.01172 0.44554 0.79006 0.0
C70 C 0.93139 0.29868 0.9346 0.0
O71 O 0.04292 0.4309 1.00148 0.0
O72 O 0.97711 0.43118 0.96292 0.0
O73 O 0.9276 0.32626 0.88939 0.0
O74 O 0.97486 0.31684 0.96174 0.0
C75 C 0.08811 0.37585 0.86412 0.0
O76 O 0.978 0.39936 0.79832 0.0
O77 O 0.0445 0.46468 0.83696 0.0
C78 C 0.52015 0.00352 0.28589 0.0
C79 C 0.54334 0.00441 0.23531 0.0
C80 C 0.49377 0.00323 0.34555 0.0
C81 C 0.47134 0.00369 0.39623 0.0
C82 C 0.52449 0.51914 0.4537 0.0
C83 C 0.54671 0.54226 0.40306 0.0
C84 C 0.49846 0.49273 0.51335 0.0
C85 C 0.47556 0.47016 0.56393 0.0
C86 C 0.01348 0.49689 0.68011 0.0
C87 C 0.01318 0.47394 0.73059 0.0
C88 C 0.01302 0.52291 0.62051 0.0
C89 C 0.01207 0.54507 0.56988 0.0
C90 C 0.52489 0.01188 0.84548 0.0
C91 C 0.54723 0.01135 0.89613 0.0
C92 C 0.4986 0.01158 0.78583 0.0
C93 C 0.47541 0.01063 0.73529 0.0
C94 C 0.5205 0.52273 1.01304 0.0
C95 C 0.54345 0.54515 0.06363 0.0
C96 C 0.49436 0.49642 0.95343 0.0
C97 C 0.47208 0.4733 0.90286 0.0
C98 C 0.00771 0.49309 0.12048 0.0
C99 C 0.00835 0.47069 0.06987 0.0
C100 C 0.00733 0.51925 0.18003 0.0
C101 C 0.00742 0.54214 0.2305 0.0
C102 C 0.6477 0.80473 0.15935 0.0
C103 C 0.64463 0.76491 0.17634 0.0
C104 C 0.64783 0.84966 0.13895 0.0
C105 C 0.64494 0.88654 0.1221 0.0
C106 C 0.85068 0.64639 0.32678 0.0
C107 C 0.88741 0.64318 0.3435 0.0
C108 C 0.80589 0.64664 0.30665 0.0
C109 C 0.7661 0.64376 0.28987 0.0
C110 C 0.16634 0.80404 0.47449 0.0
C111 C 0.12951 0.76428 0.45756 0.0
C112 C 0.21137 0.84879 0.49462 0.0
C113 C 0.25138 0.88548 0.51114 0.0
C114 C 0.3709 0.20992 0.66082 0.0
C115 C 0.37413 0.24987 0.67751 0.0
C116 C 0.3706 0.16489 0.64058 0.0
C117 C 0.37342 0.12798 0.62361 0.0
C118 C 0.16718 0.36695 0.82571 0.0
C119 C 0.13052 0.37034 0.84239 0.0
C120 C 0.2121 0.36684 0.80584 0.0
C121 C 0.25211 0.37006 0.7894 0.0
C122 C 0.85147 0.21136 0.97282 0.0
C123 C 0.8884 0.25112 0.95607 0.0
C124 C 0.80651 0.1665 0.99298 0.0
C125 C 0.76667 0.12967 1.00974 0.0
loop_
_geom_bond_atom_site_label_1
_geom_bond_atom_site_label_2
_geom_bond_distance
_geom_bond_site_symmetry_2
_ccdc_geom_bond_type
In0 O1 2.294 1_544 S
In0 O2 2.326 1_554 S
In0 O6 2.266 1_545 S
In0 O7 2.326 1_545 S
In0 O8 2.266 . S
In0 O9 2.326 1_545 S
In0 O11 2.294 . S
In0 O12 2.326 1_554 S
O1 In0 2.294 1_566 S
O1 C10 1.240 1_565 S
O2 In0 2.326 1_556 S
O2 C10 1.252 . S
C3 O6 1.252 . S
C3 O7 1.260 . S
C4 O11 1.240 1_556 S
C4 O12 1.252 . S
C5 O8 1.255 . S
C5 O9 1.256 1_545 S
O6 In0 2.266 1_565 S
O6 C3 1.252 . S
O7 In0 2.326 1_565 S
O7 C3 1.260 . S
O8 In0 2.266 . S
O8 C5 1.255 . S
O9 In0 2.326 1_565 S
O9 C5 1.256 1_565 S
C10 O1 1.240 1_545 S
C10 O2 1.252 . S
O11 In0 2.294 . S
O11 C4 1.240 1_554 S
O12 In0 2.326 1_556 S
O12 C4 1.252 . S
In13 O14 2.294 . S
In13 O15 2.326 . S
In13 O19 2.266 . S
In13 O20 2.326 . S
In13 O21 2.266 . S
In13 O22 2.326 . S
In13 O24 2.294 . S
In13 O25 2.326 . S
O14 In13 2.294 . S
O14 C23 1.240 . S
O15 In13 2.326 . S
O15 C23 1.252 . S
C16 O19 1.252 . S
C16 O20 1.260 . S
C17 O24 1.240 . S
C17 O25 1.252 . S
C18 O21 1.252 . S
C18 O22 1.260 . S
O19 In13 2.266 . S
O19 C16 1.252 . S
O20 In13 2.326 . S
O20 C16 1.260 . S
O21 In13 2.266 . S
O21 C18 1.252 . S
O22 In13 2.326 . S
O22 C18 1.260 . S
C23 O14 1.240 . S
C23 O15 1.252 . S
O24 In13 2.294 . S
O24 C17 1.240 . S
O25 In13 2.326 . S
O25 C17 1.252 . S
In26 O27 2.294 . S
In26 O28 2.326 1_455 S
In26 O32 2.266 . S
In26 O33 2.326 . S
In26 O34 2.266 1_455 S
In26 O35 2.326 . S
In26 O37 2.294 1_455 S
In26 O38 2.326 1_455 S
O27 In26 2.294 . S
O27 C36 1.240 . S
O28 In26 2.326 1_655 S
O28 C36 1.252 1_655 S
C29 O32 1.252 . S
C29 O33 1.260 . S
C30 O37 1.240 . S
C30 O38 1.252 . S
C31 O34 1.252 1_455 S
C31 O35 1.260 . S
O32 In26 2.266 . S
O32 C29 1.252 . S
O33 In26 2.326 . S
O33 C29 1.260 . S
O34 In26 2.266 1_655 S
O34 C31 1.252 1_655 S
O35 In26 2.326 . S
O35 C31 1.260 . S
C36 O27 1.240 . S
C36 O28 1.252 1_455 S
O37 In26 2.294 1_655 S
O37 C30 1.240 . S
O38 In26 2.326 1_655 S
O38 C30 1.252 . S
In39 O40 2.294 1_545 S
In39 O41 2.326 1_545 S
In39 O45 2.266 1_545 S
In39 O46 2.326 . S
In39 O47 2.266 . S
In39 O48 2.326 . S
In39 O50 2.294 . S
In39 O51 2.326 1_545 S
O40 In39 2.294 1_565 S
O40 C49 1.240 . S
O41 In39 2.326 1_565 S
O41 C49 1.252 . S
C42 O45 1.252 1_545 S
C42 O46 1.260 . S
C43 O50 1.233 1_565 S
C43 O51 1.257 . S
C44 O47 1.252 . S
C44 O48 1.260 . S
O45 In39 2.266 1_565 S
O45 C42 1.252 1_565 S
O46 In39 2.326 . S
O46 C42 1.260 . S
O47 In39 2.266 . S
O47 C44 1.252 . S
O48 In39 2.326 . S
O48 C44 1.260 . S
C49 O40 1.240 . S
C49 O41 1.252 . S
O50 In39 2.294 . S
O50 C43 1.233 1_545 S
O51 In39 2.326 1_565 S
O51 C43 1.257 . S
In52 O53 2.294 . S
In52 O54 2.326 . S
In52 O58 2.266 . S
In52 O59 2.326 . S
In52 O60 2.266 . S
In52 O61 2.326 . S
In52 O63 2.294 . S
In52 O64 2.326 . S
O53 In52 2.294 . S
O53 C62 1.240 . S
O54 In52 2.326 . S
O54 C62 1.252 . S
C55 O58 1.252 . S
C55 O59 1.260 . S
C56 O63 1.240 . S
C56 O64 1.252 . S
C57 O60 1.252 . S
C57 O61 1.260 . S
O58 In52 2.266 . S
O58 C55 1.252 . S
O59 In52 2.326 . S
O59 C55 1.260 . S
O60 In52 2.266 . S
O60 C57 1.252 . S
O61 In52 2.326 . S
O61 C57 1.260 . S
C62 O53 1.240 . S
C62 O54 1.252 . S
O63 In52 2.294 . S
O63 C56 1.240 . S
O64 In52 2.326 . S
O64 C56 1.252 . S
In65 O66 2.294 . S
In65 O67 2.326 . S
In65 O71 2.266 . S
In65 O72 2.326 1_455 S
In65 O73 2.266 1_455 S
In65 O74 2.326 1_455 S
In65 O76 2.294 1_455 S
In65 O77 2.326 . S
O66 In65 2.294 . S
O66 C75 1.240 . S
O67 In65 2.326 . S
O67 C75 1.252 . S
C68 O71 1.252 . S
C68 O72 1.260 1_455 S
C69 O76 1.240 1_455 S
C69 O77 1.252 . S
C70 O73 1.252 . S
C70 O74 1.260 . S
O71 In65 2.266 . S
O71 C68 1.252 . S
O72 In65 2.326 1_655 S
O72 C68 1.260 1_655 S
O73 In65 2.266 1_655 S
O73 C70 1.252 . S
O74 In65 2.326 1_655 S
O74 C70 1.260 . S
C75 O66 1.240 . S
C75 O67 1.252 . S
O76 In65 2.294 1_655 S
O76 C69 1.240 1_655 S
O77 In65 2.326 . S
O77 C69 1.252 . S
C78 C79 1.170 . S
C78 C80 1.380 . S
C79 C78 1.170 . S
C80 C78 1.380 . S
C80 C81 1.170 . S
C81 C80 1.170 . S
C82 C83 1.170 . S
C82 C84 1.380 . S
C83 C82 1.170 . S
C84 C82 1.380 . S
C84 C85 1.170 . S
C85 C84 1.170 . S
C86 C87 1.170 . S
C86 C88 1.380 . S
C87 C86 1.170 . S
C88 C86 1.380 . S
C88 C89 1.170 . S
C89 C88 1.170 . S
C90 C91 1.170 . S
C90 C92 1.380 . S
C91 C90 1.170 . S
C92 C90 1.380 . S
C92 C93 1.170 . S
C93 C92 1.170 . S
C94 C95 1.170 1_556 S
C94 C96 1.380 . S
C95 C94 1.170 1_554 S
C96 C94 1.380 . S
C96 C97 1.170 . S
C97 C96 1.170 . S
C98 C99 1.170 . S
C98 C100 1.380 . S
C99 C98 1.170 . S
C100 C98 1.380 . S
C100 C101 1.170 . S
C101 C100 1.170 . S
C102 C103 1.170 . S
C102 C104 1.380 . S
C103 C102 1.170 . S
C104 C102 1.380 . S
C104 C105 1.170 . S
C105 C104 1.170 . S
C106 C107 1.170 . S
C106 C108 1.380 . S
C107 C106 1.170 . S
C108 C106 1.380 . S
C108 C109 1.170 . S
C109 C108 1.170 . S
C110 C111 1.170 . S
C110 C112 1.380 . S
C111 C110 1.170 . S
C112 C110 1.380 . S
C112 C113 1.170 . S
C113 C112 1.170 . S
C114 C115 1.170 . S
C114 C116 1.380 . S
C115 C114 1.170 . S
C116 C114 1.380 . S
C116 C117 1.170 . S
C117 C116 1.170 . S
C118 C119 1.170 . S
C118 C120 1.380 . S
C119 C118 1.170 . S
C120 C118 1.380 . S
C120 C121 1.170 . S
C121 C120 1.170 . S
C122 C123 1.170 . S
C122 C124 1.380 . S
C123 C122 1.170 . S
C124 C122 1.380 . S
C124 C125 1.170 . S
C125 C124 1.170 . S
C79 C5 1.722 1_565 S
C81 C43 1.721 . S
C83 C18 1.718 . S
C85 C56 1.721 . S
C87 C69 1.721 . S
C89 C31 1.717 . S
C91 C10 1.719 . S
C93 C42 1.720 . S
C95 C23 1.720 . S
C97 C55 1.720 . S
C99 C68 1.716 1_554 S
C101 C36 1.718 . S
C103 C17 1.450 . S
C105 C3 1.452 . S
C107 C30 1.453 . S
C109 C16 1.464 . S
C111 C29 1.465 . S
C113 C49 1.454 . S
C115 C62 1.452 . S
C117 C44 1.463 . S
C119 C75 1.465 . S
C121 C57 1.467 . S
C123 C70 1.451 . S
C125 C4 1.451 . S
