# Generated by pormake.
# Topology bnn, (5)-cn, num edge types: 1
# Building blocks:
#     Node 0, Type 0, BuildingBlock: XOMCOT_clean_sbu_1, # of connection points: 5
#     Node 1, Type 0, BuildingBlock: XOMCOT_clean_sbu_1, # of connection points: 5
#     Edge 2, Type (0, 0), BuildingBlock: EZIPEK_clean_linker_0, # of connection points: 2
#     Edge 3, Type (0, 0), BuildingBlock: EZIPEK_clean_linker_0, # of connection points: 2
#     Edge 4, Type (0, 0), BuildingBlock: EZIPEK_clean_linker_0, # of connection points: 2
#     Edge 5, Type (0, 0), BuildingBlock: EZIPEK_clean_linker_0, # of connection points: 2
#     Edge 6, Type (0, 0), BuildingBlock: EZIPEK_clean_linker_0, # of connection points: 2
# Relax obj value: 0.039
# Max RMSD: 0.097
# Mean RMSD: 0.097
data_MOF--net-bnn--node1-XOMCOT_clean_sbu_1--edge1-EZIPEK_clean_linker_0
_symmetry_space_group_name_H-M    P1
_symmetry_Int_Tables_number       1
_symmetry_cell_setting            triclinic
loop_
_symmetry_equiv_pos_as_xyz
'x, y, z'
_cell_length_a     23.750058
_cell_length_b     20.136368
_cell_length_c     13.476543
_cell_angle_alpha  99.160674
_cell_angle_beta   89.860221
_cell_angle_gamma 125.8384
loop_
_atom_site_label
_atom_site_type_symbol
_atom_site_fract_x
_atom_site_fract_y
_atom_site_fract_z
_atom_type_partial_charge
C0 C 0.26809 0.59581 0.91327 0.0
C1 C 0.26166 0.58702 0.80964 0.0
N2 N 0.28577 0.66181 0.78805 0.0
N3 N 0.29601 0.67575 0.95646 0.0
C4 C 0.30605 0.71448 0.8779 0.0
H5 H 0.25507 0.54763 0.95473 0.0
Co6 Co 0.31954 0.71818 0.09558 0.0
C7 C 0.44639 0.89287 0.07551 0.0
O8 O 0.49303 0.88427 0.10977 0.0
N9 N 0.34169 0.75904 0.23765 0.0
C10 C 0.39331 0.83084 0.39373 0.0
C11 C 0.39696 0.83229 0.29243 0.0
C12 C 0.30487 0.71447 0.30878 0.0
N13 N 0.33556 0.75666 0.40362 0.0
O14 O 0.24279 0.725 0.09815 0.0
H15 H 0.43934 0.88357 0.26317 0.0
H16 H 0.25834 0.65066 0.29149 0.0
O17 O 0.38096 0.83366 0.06885 0.0
C18 C 0.18751 0.65296 0.10222 0.0
O19 O 0.19254 0.59189 0.10652 0.0
N20 N 0.38804 0.69938 0.09185 0.0
C21 C 0.44855 0.61497 0.05727 0.0
C22 C 0.46659 0.67858 1.00483 0.0
C23 C 0.43368 0.71801 1.02064 0.0
C24 C 0.37122 0.63854 0.14424 0.0
C25 C 0.40044 0.59538 0.12783 0.0
H26 H 0.4409 0.75844 0.97042 0.0
H27 H 0.32991 0.61742 0.19241 0.0
H28 H 0.32949 0.7803 0.88567 0.0
H29 H 0.24323 0.53112 0.75433 0.0
H30 H 0.43161 0.87901 0.45538 0.0
H31 H 0.50225 0.69366 0.94765 0.0
H32 H 0.38377 0.54498 0.16754 0.0
C33 C 0.70079 0.52278 0.18588 0.0
C34 C 0.70049 0.52954 0.28905 0.0
N35 N 0.66945 0.45287 0.30962 0.0
N36 N 0.66934 0.44209 0.14193 0.0
C37 C 0.65127 0.40105 0.21977 0.0
H38 H 0.72423 0.57385 0.14562 0.0
Co39 Co 0.66264 0.40603 1.0035 0.0
C40 C 0.61719 0.22937 1.02016 0.0
O41 O 0.67929 0.2458 1.01631 0.0
N42 N 0.65674 0.37128 0.86307 0.0
C43 C 0.67214 0.31879 0.71587 0.0
C44 C 0.67424 0.32168 0.81825 0.0
C45 C 0.64567 0.39932 0.78591 0.0
N46 N 0.65438 0.36788 0.69608 0.0
O47 O 0.57546 0.39066 0.98724 0.0
H48 H 0.69427 0.29602 0.85778 0.0
H49 H 0.63631 0.44621 0.79531 0.0
O50 O 0.60946 0.28696 1.01737 0.0
C51 C 0.58521 0.45871 0.97861 0.0
O52 O 0.64883 0.52376 0.97224 0.0
N53 N 0.75234 0.43251 1.02187 0.0
C54 C 0.89561 0.5128 0.05657 0.0
C55 C 0.8499 0.45358 0.11356 0.0
C56 C 0.77816 0.41541 0.09662 0.0
C57 C 0.79703 0.49242 0.96889 0.0
C58 C 0.86868 0.53261 0.98416 0.0
H59 H 0.74408 0.37454 0.14584 0.0
H60 H 0.77726 0.51169 0.91669 0.0
H61 H 0.62892 0.33565 0.21207 0.0
H62 H 0.72365 0.58643 0.34495 0.0
H63 H 0.68767 0.28842 0.66119 0.0
H64 H 0.86967 0.43842 0.1717 0.0
H65 H 0.90295 0.57935 0.94036 0.0
C66 C 0.51168 0.56015 0.11582 0.0
C67 C 0.47658 0.56528 0.03561 0.0
C68 C 0.49867 0.47968 0.91568 0.0
C69 C 0.53138 0.47286 0.99699 0.0
N70 N 0.54437 0.47889 0.17543 0.0
N71 N 0.41882 0.509 0.86428 0.0
C72 C 0.52948 0.50381 0.09753 0.0
C73 C 0.46455 0.51867 0.9367 0.0
N74 N 0.5315 0.61204 0.20792 0.0
N75 N 0.50116 0.45002 0.81864 0.0
H76 H 0.39046 0.53342 0.87804 0.0
H77 H 0.40377 0.46986 0.79379 0.0
H78 H 0.52133 0.41585 0.80203 0.0
H79 H 0.48577 0.46204 0.75557 0.0
H80 H 0.56283 0.6155 0.26554 0.0
H81 H 0.5232 0.65792 0.22318 0.0
H82 H 0.53942 0.49538 0.25053 0.0
H83 H 0.55242 0.4328 0.16238 0.0
C84 C 0.01465 0.61461 0.15651 0.0
C85 C 0.9717 0.553 0.06928 0.0
C86 C 0.07508 0.57933 0.99455 0.0
C87 C 0.11689 0.63201 0.0866 0.0
N88 N 0.12743 0.6967 0.25856 0.0
N89 N 0.95949 0.46692 0.9119 0.0
C90 C 0.08708 0.64941 0.16853 0.0
C91 C 1.00153 0.53283 0.98988 0.0
N92 N 0.9866 0.64119 0.22626 0.0
N93 N 0.10612 0.57516 0.91083 0.0
H94 H 0.90503 0.42986 0.90655 0.0
H95 H 0.97839 0.44395 0.8576 0.0
H96 H 0.16015 0.61127 0.91171 0.0
H97 H 0.07906 0.54397 0.83885 0.0
H98 H 0.01645 0.69158 0.28619 0.0
H99 H 0.93379 0.61684 0.21994 0.0
H100 H 0.10724 0.70345 0.32496 0.0
H101 H 0.18116 0.7259 0.26787 0.0
C102 C 0.50667 0.99176 0.95698 0.0
C103 C 0.47162 0.97295 0.0446 0.0
C104 C 0.50799 0.11723 0.08974 0.0
C105 C 0.55574 0.14009 1.01564 0.0
N106 N 0.5903 0.09703 0.86491 0.0
N107 N 0.43195 1.01375 0.19004 0.0
C108 C 0.55131 0.07629 0.94445 0.0
C109 C 0.46927 1.03423 0.1088 0.0
N110 N 0.49572 0.92805 0.88492 0.0
N111 N 0.49823 0.17361 0.14006 0.0
H112 H 0.39809 0.9524 0.20055 0.0
H113 H 0.43601 1.05742 0.24847 0.0
H114 H 0.52148 0.23245 0.12331 0.0
H115 H 0.4607 0.15909 0.18975 0.0
H116 H 0.51486 0.93533 0.81495 0.0
H117 H 0.46177 0.86566 0.89165 0.0
H118 H 0.59797 1.05717 0.81831 0.0
H119 H 0.61562 0.15547 0.84563 0.0
C120 C 0.2542 0.70172 0.64526 0.0
C121 C 0.29654 0.68342 0.68944 0.0
C122 C 0.35599 0.70008 0.53666 0.0
C123 C 0.31805 0.72551 0.49627 0.0
N124 N 0.23643 0.75907 0.51304 0.0
N125 N 0.39493 0.67785 0.68596 0.0
C126 C 0.26828 0.72831 0.55073 0.0
C127 C 0.34928 0.68564 0.63724 0.0
N128 N 0.19979 0.69188 0.69315 0.0
N129 N 0.39775 0.68888 0.47776 0.0
H130 H 0.39243 0.66957 0.76072 0.0
H131 H 0.43878 0.6868 0.6558 0.0
H132 H 0.40343 0.6992 0.40374 0.0
H133 H 0.4219 0.66285 0.49876 0.0
H134 H 0.16264 0.69653 0.66128 0.0
H135 H 0.18917 0.67332 0.76285 0.0
H136 H 0.20454 0.77072 0.55286 0.0
H137 H 0.24564 0.7779 0.44336 0.0
C138 C 0.72711 0.45909 0.46603 0.0
C139 C 0.6653 0.43238 0.40803 0.0
C140 C 0.59559 0.36229 0.54111 0.0
C141 C 0.65796 0.39371 0.60146 0.0
N142 N 0.7834 0.48452 0.6316 0.0
N143 N 0.542 0.3678 0.3923 0.0
C144 C 0.72394 0.44597 0.56682 0.0
C145 C 0.59972 0.38646 0.44621 0.0
N146 N 0.78812 0.49368 0.42288 0.0
N147 N 0.53268 0.30734 0.57366 0.0
H148 H 0.54391 0.38422 0.32218 0.0
H149 H 0.4936 0.34131 0.41955 0.0
H150 H 0.52869 0.2897 0.64355 0.0
H151 H 0.48489 0.27539 0.52947 0.0
H152 H 0.83367 0.50713 0.45783 0.0
H153 H 0.79151 0.50196 0.34807 0.0
H154 H 0.8331 0.52955 0.61414 0.0
H155 H 0.78233 0.47703 0.70658 0.0
loop_
_geom_bond_atom_site_label_1
_geom_bond_atom_site_label_2
_geom_bond_distance
_geom_bond_site_symmetry_2
_ccdc_geom_bond_type
C0 C1 1.351 . S
C0 N3 1.368 . S
C0 H5 0.931 . S
C1 C0 1.351 . S
C1 N2 1.373 . S
C1 H29 0.930 . S
N2 C1 1.373 . S
N2 C4 1.340 . S
N3 C0 1.368 . S
N3 C4 1.321 . S
N3 Co6 2.135 1_556 S
C4 N2 1.340 . S
C4 N3 1.321 . S
C4 H28 0.930 . S
H5 C0 0.931 . S
Co6 N3 2.135 1_554 S
Co6 N9 2.121 . S
Co6 O14 2.055 . S
Co6 O17 2.039 . S
Co6 N20 2.140 . S
C7 O8 1.227 1_554 S
C7 O17 1.265 . S
O8 C7 1.227 1_556 S
N9 Co6 2.121 . S
N9 C11 1.375 . S
N9 C12 1.313 . S
C10 C11 1.338 . S
C10 N13 1.377 . S
C10 H30 0.930 . S
C11 N9 1.375 . S
C11 C10 1.338 . S
C11 H15 0.931 . S
C12 N9 1.313 . S
C12 N13 1.344 . S
C12 H16 0.930 . S
N13 C10 1.377 . S
N13 C12 1.344 . S
O14 Co6 2.055 . S
O14 C18 1.253 . S
H15 C11 0.931 . S
H16 C12 0.930 . S
O17 Co6 2.039 . S
O17 C7 1.265 . S
C18 O14 1.253 . S
C18 O19 1.227 . S
O19 C18 1.227 . S
N20 Co6 2.140 . S
N20 C23 1.346 1_554 S
N20 C24 1.345 . S
C21 C22 1.387 . S
C21 C25 1.391 1_556 S
C22 C21 1.387 . S
C22 C23 1.369 . S
C22 H31 0.929 . S
C23 N20 1.346 1_556 S
C23 C22 1.369 . S
C23 H26 0.928 . S
C24 N20 1.345 . S
C24 C25 1.371 . S
C24 H27 0.931 . S
C25 C21 1.391 1_554 S
C25 C24 1.371 . S
C25 H32 0.930 . S
H26 C23 0.928 . S
H27 C24 0.931 . S
H28 C4 0.930 . S
H29 C1 0.930 . S
H30 C10 0.930 . S
H31 C22 0.929 . S
H32 C25 0.930 . S
C33 C34 1.351 . S
C33 N36 1.368 . S
C33 H38 0.931 . S
C34 C33 1.351 . S
C34 N35 1.373 . S
C34 H62 0.930 . S
N35 C34 1.373 . S
N35 C37 1.340 . S
N36 C33 1.368 . S
N36 C37 1.321 . S
N36 Co39 2.135 . S
C37 N35 1.340 . S
C37 N36 1.321 . S
C37 H61 0.930 . S
H38 C33 0.931 . S
Co39 N36 2.135 . S
Co39 N42 2.121 1_554 S
Co39 O47 2.055 . S
Co39 O50 2.039 . S
Co39 N53 2.140 . S
C40 O41 1.227 . S
C40 O50 1.265 . S
O41 C40 1.227 . S
N42 Co39 2.121 1_556 S
N42 C44 1.375 . S
N42 C45 1.313 . S
C43 C44 1.338 . S
C43 N46 1.377 . S
C43 H63 0.930 . S
C44 N42 1.375 . S
C44 C43 1.338 . S
C44 H48 0.931 . S
C45 N42 1.313 . S
C45 N46 1.344 . S
C45 H49 0.930 . S
N46 C43 1.377 . S
N46 C45 1.344 . S
O47 Co39 2.055 . S
O47 C51 1.253 1_554 S
H48 C44 0.931 . S
H49 C45 0.930 . S
O50 Co39 2.039 . S
O50 C40 1.265 . S
C51 O47 1.253 1_556 S
C51 O52 1.227 . S
O52 C51 1.227 . S
N53 Co39 2.140 . S
N53 C56 1.346 . S
N53 C57 1.345 1_554 S
C54 C55 1.387 . S
C54 C58 1.391 1_554 S
C55 C54 1.387 . S
C55 C56 1.369 . S
C55 H64 0.929 . S
C56 N53 1.346 . S
C56 C55 1.369 . S
C56 H59 0.928 . S
C57 N53 1.345 1_556 S
C57 C58 1.371 . S
C57 H60 0.931 . S
C58 C54 1.391 1_556 S
C58 C57 1.371 . S
C58 H65 0.930 . S
H59 C56 0.928 . S
H60 C57 0.931 . S
H61 C37 0.930 . S
H62 C34 0.930 . S
H63 C43 0.930 . S
H64 C55 0.929 . S
H65 C58 0.930 . S
C66 C67 1.363 1_554 S
C66 C72 1.379 . S
C66 N74 1.356 . S
C67 C66 1.363 1_556 S
C67 C73 1.363 . S
C68 C69 1.363 . S
C68 C73 1.379 . S
C68 N75 1.356 . S
C69 C68 1.363 . S
C69 C72 1.363 1_556 S
N70 C72 1.356 . S
N70 H82 0.984 . S
N70 H83 0.985 . S
N71 C73 1.356 . S
N71 H76 0.984 . S
N71 H77 0.985 . S
C72 C66 1.379 . S
C72 C69 1.363 1_554 S
C72 N70 1.356 . S
C73 C67 1.363 . S
C73 C68 1.379 . S
C73 N71 1.356 . S
N74 C66 1.356 . S
N74 H80 0.984 . S
N74 H81 0.984 . S
N75 C68 1.356 . S
N75 H78 0.984 . S
N75 H79 0.985 . S
H76 N71 0.984 . S
H77 N71 0.985 . S
H78 N75 0.984 . S
H79 N75 0.985 . S
H80 N74 0.984 . S
H81 N74 0.984 . S
H82 N70 0.984 . S
H83 N70 0.985 . S
C84 C85 1.361 1_455 S
C84 C90 1.386 . S
C84 N92 1.350 1_455 S
C85 C84 1.361 1_655 S
C85 C91 1.363 1_554 S
C86 C87 1.363 1_556 S
C86 C91 1.379 1_455 S
C86 N93 1.356 . S
C87 C86 1.363 1_554 S
C87 C90 1.363 . S
N88 C90 1.356 . S
N88 H100 0.984 . S
N88 H101 0.985 . S
N89 C91 1.356 . S
N89 H94 0.984 . S
N89 H95 0.985 . S
C90 C84 1.386 . S
C90 C87 1.363 . S
C90 N88 1.356 . S
C91 C85 1.363 1_556 S
C91 C86 1.379 1_655 S
C91 N89 1.356 . S
N92 C84 1.350 1_655 S
N92 H98 0.984 . S
N92 H99 0.984 . S
N93 C86 1.356 . S
N93 H96 0.984 . S
N93 H97 0.985 . S
H94 N89 0.984 . S
H95 N89 0.985 . S
H96 N93 0.984 . S
H97 N93 0.985 . S
H98 N92 0.984 . S
H99 N92 0.984 . S
H100 N88 0.984 . S
H101 N88 0.985 . S
C102 C103 1.363 1_556 S
C102 C108 1.379 1_565 S
C102 N110 1.356 . S
C103 C102 1.363 1_554 S
C103 C109 1.363 . S
C104 C105 1.363 . S
C104 C109 1.379 1_545 S
C104 N111 1.356 . S
C105 C104 1.363 . S
C105 C108 1.363 1_554 S
N106 C108 1.356 . S
N106 H118 0.984 . S
N106 H119 0.985 . S
N107 C109 1.356 . S
N107 H112 0.984 . S
N107 H113 0.985 . S
C108 C102 1.379 1_545 S
C108 C105 1.363 1_556 S
C108 N106 1.356 . S
C109 C103 1.363 . S
C109 C104 1.379 1_565 S
C109 N107 1.356 . S
N110 C102 1.356 . S
N110 H116 0.984 . S
N110 H117 0.984 . S
N111 C104 1.356 . S
N111 H114 0.984 . S
N111 H115 0.985 . S
H112 N107 0.984 . S
H113 N107 0.985 . S
H114 N111 0.984 . S
H115 N111 0.985 . S
H116 N110 0.984 . S
H117 N110 0.984 . S
H118 N106 0.984 . S
H119 N106 0.985 . S
C120 C121 1.363 . S
C120 C126 1.379 . S
C120 N128 1.356 . S
C121 C120 1.363 . S
C121 C127 1.363 . S
C122 C123 1.363 . S
C122 C127 1.379 . S
C122 N129 1.356 . S
C123 C122 1.363 . S
C123 C126 1.363 . S
N124 C126 1.356 . S
N124 H136 0.984 . S
N124 H137 0.985 . S
N125 C127 1.356 . S
N125 H130 0.984 . S
N125 H131 0.985 . S
C126 C120 1.379 . S
C126 C123 1.363 . S
C126 N124 1.356 . S
C127 C121 1.363 . S
C127 C122 1.379 . S
C127 N125 1.356 . S
N128 C120 1.356 . S
N128 H134 0.984 . S
N128 H135 0.984 . S
N129 C122 1.356 . S
N129 H132 0.984 . S
N129 H133 0.985 . S
H130 N125 0.984 . S
H131 N125 0.985 . S
H132 N129 0.984 . S
H133 N129 0.985 . S
H134 N128 0.984 . S
H135 N128 0.984 . S
H136 N124 0.984 . S
H137 N124 0.985 . S
C138 C139 1.363 . S
C138 C144 1.379 . S
C138 N146 1.356 . S
C139 C138 1.363 . S
C139 C145 1.363 . S
C140 C141 1.363 . S
C140 C145 1.379 . S
C140 N147 1.356 . S
C141 C140 1.363 . S
C141 C144 1.363 . S
N142 C144 1.356 . S
N142 H154 0.984 . S
N142 H155 0.985 . S
N143 C145 1.356 . S
N143 H148 0.984 . S
N143 H149 0.985 . S
C144 C138 1.379 . S
C144 C141 1.363 . S
C144 N142 1.356 . S
C145 C139 1.363 . S
C145 C140 1.379 . S
C145 N143 1.356 . S
N146 C138 1.356 . S
N146 H152 0.984 . S
N146 H153 0.984 . S
N147 C140 1.356 . S
N147 H150 0.984 . S
N147 H151 0.985 . S
H148 N143 0.984 . S
H149 N143 0.985 . S
H150 N147 0.984 . S
H151 N147 0.985 . S
H152 N146 0.984 . S
H153 N146 0.984 . S
H154 N142 0.984 . S
H155 N142 0.985 . S
C67 C21 1.507 . S
C69 C51 1.508 . S
C85 C54 1.507 . S
C87 C18 1.508 . S
C103 C7 1.497 . S
C105 C40 1.497 . S
C121 N2 1.466 . S
C123 N13 1.469 . S
C139 N35 1.466 . S
C141 N46 1.469 . S
