# Generated by pormake.
# Topology pcu, (6)-cn, num edge types: 1
# Building blocks:
#     Node 0, Type 0, BuildingBlock: INOVEN_clean_sbu_0, # of connection points: 6
#     Edge 1, Type (0, 0), BuildingBlock: AJUNOK_clean_linker_0, # of connection points: 2
#     Edge 2, Type (0, 0), BuildingBlock: AJUNOK_clean_linker_0, # of connection points: 2
#     Edge 3, Type (0, 0), BuildingBlock: AJUNOK_clean_linker_0, # of connection points: 2
# Relax obj value: 0.000
# Max RMSD: 0.000
# Mean RMSD: 0.000
data_MOF--net-pcu--node1-INOVEN_clean_sbu_0--edge1-AJUNOK_clean_linker_0
_symmetry_space_group_name_H-M    P1
_symmetry_Int_Tables_number       1
_symmetry_cell_setting            triclinic
loop_
_symmetry_equiv_pos_as_xyz
'x, y, z'
_cell_length_a     21.094191
_cell_length_b     11.507029
_cell_length_c     10.344505
_cell_angle_alpha  87.993625
_cell_angle_beta   98.790263
_cell_angle_gamma 122.64514
loop_
_atom_site_label
_atom_site_type_symbol
_atom_site_fract_x
_atom_site_fract_y
_atom_site_fract_z
_atom_type_partial_charge
Gd0 Gd 0.95927 0.88971 0.03599 0.0
Gd1 Gd 0.12938 0.0636 0.03496 0.0
C2 C 0.04852 0.22759 0.03113 0.0
C3 C 0.82335 0.78831 0.08852 0.0
C4 C 0.76589 0.82635 0.0728 0.0
C5 C 0.72689 0.8235 0.94857 0.0
C6 C 0.74853 0.86361 0.184 0.0
C7 C 0.65565 0.8974 0.04723 0.0
C8 C 0.69408 0.89893 0.17137 0.0
C9 C 0.67226 0.85841 0.93606 0.0
C10 C 0.99959 0.92606 0.79532 0.0
C11 C 1.04177 0.72769 0.03619 0.0
C12 C 0.26581 0.16327 0.98624 0.0
C13 C 0.32028 0.11849 0.99511 0.0
C14 C 0.36086 0.11839 0.11641 0.0
C15 C 0.33354 0.07847 0.88046 0.0
C16 C 0.42773 0.04181 1.00767 0.0
C17 C 0.3864 0.03988 0.8867 0.0
C18 C 0.41383 0.08003 0.12254 0.0
C19 C 0.08719 0.02263 0.27527 0.0
O20 O 0.98841 0.11005 0.05929 0.0
O21 O 0.10764 0.23176 0.99817 0.0
O22 O 0.83699 0.75301 0.98211 0.0
O23 O 0.88528 0.86514 0.17323 0.0
O24 O 0.94121 0.81373 0.82791 0.0
O25 O 1.03044 0.0171 0.88833 0.0
O26 O 0.10013 0.84552 1.0053 0.0
O27 O 0.98221 0.72122 0.0707 0.0
O28 O 0.25164 0.19063 0.09624 0.0
O29 O 0.20478 0.09752 0.89719 0.0
O30 O 0.14468 0.13761 0.24418 0.0
O31 O 0.05806 0.93411 0.18073 0.0
H32 H 0.7382 0.79384 0.86085 0.0
H33 H 0.77722 0.86559 0.28097 0.0
H34 H 0.68249 0.92871 0.25874 0.0
H35 H 0.64233 0.85328 0.83938 0.0
H36 H 0.35234 0.14907 0.20673 0.0
H37 H 0.30321 0.07757 0.7856 0.0
H38 H 0.39482 0.00819 0.79682 0.0
H39 H 0.44505 0.08282 0.21707 0.0
C40 C 0.0999 0.10303 0.50532 0.0
C41 C 0.06418 -0.00468 0.40713 0.0
C42 C 0.07904 0.07995 0.63087 0.0
C43 C 1.02155 0.9483 0.66281 0.0
H44 H 0.14423 0.20626 0.48505 0.0
H45 H 0.10794 0.16612 0.70311 0.0
S46 S 0.91185 0.63034 0.44212 0.0
N47 N 0.96963 0.75127 0.35176 0.0
N48 N 0.93021 0.70812 0.58651 0.0
C49 C 0.98574 0.83956 0.56579 0.0
C50 C 1.00708 0.86298 0.43827 0.0
C51 C 0.48581 0.91094 0.10488 0.0
C52 C 0.48576 0.00517 1.01449 0.0
C53 C 0.54076 0.8765 0.11461 0.0
C54 C 0.59777 0.93498 0.03432 0.0
H55 H 0.44262 0.86254 0.1679 0.0
H56 H 0.53817 0.80248 0.18476 0.0
S57 S 0.62607 0.19493 0.78864 0.0
N58 N 0.54971 0.16135 0.84755 0.0
N59 N 0.65294 0.09669 0.86585 0.0
C60 C 0.59875 0.03024 0.94433 0.0
C61 C 0.5428 0.06528 0.93441 0.0
C62 C 0.97936 0.4709 0.04518 0.0
C63 C 0.04509 0.60201 0.03607 0.0
C64 C 0.981 0.35068 0.04368 0.0
C65 C 0.04847 0.35659 0.03306 0.0
H66 H 0.92586 0.46051 0.05246 0.0
H67 H 0.92865 0.25229 0.04999 0.0
S68 S 0.2378 0.67566 1.01438 0.0
N69 N 0.18065 0.73096 1.02123 0.0
N70 N 0.18369 0.50598 1.01853 0.0
C71 C 0.11495 0.48739 1.0256 0.0
C72 C 0.11328 0.60971 0.02707 0.0
loop_
_geom_bond_atom_site_label_1
_geom_bond_atom_site_label_2
_geom_bond_distance
_geom_bond_site_symmetry_2
_ccdc_geom_bond_type
Gd0 C3 2.818 . S
Gd0 O20 2.377 1_565 S
Gd0 O22 2.448 . S
Gd0 O23 2.506 1_556 S
Gd0 O24 2.435 . S
Gd0 O25 2.717 1_665 S
Gd0 O27 2.395 . S
Gd0 O31 2.327 1_556 S
Gd1 C12 2.818 . S
Gd1 O21 2.395 . S
Gd1 O25 2.327 1_554 S
Gd1 O26 2.377 1_545 S
Gd1 O28 2.448 . S
Gd1 O29 2.506 1_554 S
Gd1 O30 2.435 . S
Gd1 O31 2.717 1_445 S
C2 O20 1.240 1_455 S
C2 O21 1.240 1_556 S
C3 Gd0 2.818 . S
C3 C4 1.510 . S
C3 O22 1.249 . S
C3 O23 1.252 1_556 S
C4 C3 1.510 . S
C4 C5 1.404 . S
C4 C6 1.352 1_566 S
C5 C4 1.404 . S
C5 C9 1.389 . S
C5 H32 0.930 . S
C6 C4 1.352 1_544 S
C6 C8 1.374 . S
C6 H33 0.931 . S
C7 C8 1.359 1_565 S
C7 C9 1.364 1_554 S
C8 C6 1.374 . S
C8 C7 1.359 1_545 S
C8 H34 0.931 . S
C9 C5 1.389 . S
C9 C7 1.364 1_556 S
C9 H35 0.931 . S
C10 O24 1.256 . S
C10 O25 1.257 1_665 S
C11 O26 1.240 1_655 S
C11 O27 1.240 1_554 S
C12 Gd1 2.818 . S
C12 C13 1.510 . S
C12 O28 1.249 . S
C12 O29 1.252 1_554 S
C13 C12 1.510 . S
C13 C14 1.404 . S
C13 C15 1.352 1_544 S
C14 C13 1.404 . S
C14 C18 1.389 . S
C14 H36 0.930 . S
C15 C13 1.352 1_566 S
C15 C17 1.374 . S
C15 H37 0.931 . S
C16 C17 1.359 1_545 S
C16 C18 1.364 1_556 S
C17 C15 1.374 . S
C17 C16 1.359 1_565 S
C17 H38 0.931 . S
C18 C14 1.389 . S
C18 C16 1.364 1_554 S
C18 H39 0.931 . S
C19 O30 1.256 . S
C19 O31 1.257 1_445 S
O20 Gd0 2.377 1_545 S
O20 C2 1.240 1_655 S
O21 Gd1 2.395 . S
O21 C2 1.240 1_554 S
O22 Gd0 2.448 . S
O22 C3 1.249 . S
O23 Gd0 2.506 1_554 S
O23 C3 1.252 1_554 S
O24 Gd0 2.435 . S
O24 C10 1.256 . S
O25 Gd0 2.717 1_445 S
O25 Gd1 2.327 1_556 S
O25 C10 1.257 1_445 S
O26 Gd1 2.377 1_565 S
O26 C11 1.240 1_455 S
O27 Gd0 2.395 . S
O27 C11 1.240 1_556 S
O28 Gd1 2.448 . S
O28 C12 1.249 . S
O29 Gd1 2.506 1_556 S
O29 C12 1.252 1_556 S
O30 Gd1 2.435 . S
O30 C19 1.256 . S
O31 Gd0 2.327 1_554 S
O31 Gd1 2.717 1_665 S
O31 C19 1.257 1_665 S
H32 C5 0.930 . S
H33 C6 0.931 . S
H34 C8 0.931 . S
H35 C9 0.931 . S
H36 C14 0.930 . S
H37 C15 0.931 . S
H38 C17 0.931 . S
H39 C18 0.931 . S
C40 C41 1.371 1_445 S
C40 C42 1.417 1_455 S
C40 H44 0.936 . S
C41 C40 1.371 1_665 S
C41 C50 1.427 . S
C42 C40 1.417 1_655 S
C42 C43 1.360 1_545 S
C42 H45 0.934 . S
C43 C42 1.360 1_565 S
C43 C49 1.428 . S
H44 C40 0.936 . S
H45 C42 0.934 . S
S46 N47 1.613 . S
S46 N48 1.610 . S
N47 S46 1.613 . S
N47 C50 1.350 . S
N48 S46 1.610 . S
N48 C49 1.351 . S
C49 C43 1.428 . S
C49 N48 1.351 . S
C49 C50 1.434 . S
C50 C41 1.427 . S
C50 N47 1.350 . S
C50 C49 1.434 . S
C51 C52 1.364 1_564 S
C51 C53 1.419 . S
C51 H55 0.930 . S
C52 C51 1.364 1_546 S
C52 C61 1.429 . S
C53 C51 1.419 . S
C53 C54 1.362 1_564 S
C53 H56 0.929 . S
C54 C53 1.362 1_546 S
C54 C60 1.433 . S
H55 C51 0.930 . S
H56 C53 0.929 . S
S57 N58 1.613 . S
S57 N59 1.610 . S
N58 S57 1.613 . S
N58 C61 1.350 . S
N59 S57 1.610 . S
N59 C60 1.351 . S
C60 C54 1.433 . S
C60 N59 1.351 . S
C60 C61 1.434 . S
C61 C52 1.429 . S
C61 N58 1.350 . S
C61 C60 1.434 . S
C62 C63 1.369 1_656 S
C62 C64 1.419 . S
C62 H66 0.930 . S
C63 C62 1.369 1_454 S
C63 C72 1.429 . S
C64 C62 1.419 . S
C64 C65 1.347 1_656 S
C64 H67 0.929 . S
C65 C64 1.347 1_454 S
C65 C71 1.434 . S
H66 C62 0.930 . S
H67 C64 0.929 . S
S68 N69 1.613 . S
S68 N70 1.610 . S
N69 S68 1.613 . S
N69 C72 1.350 . S
N70 S68 1.610 . S
N70 C71 1.351 . S
C71 C65 1.434 . S
C71 N70 1.351 . S
C71 C72 1.434 . S
C72 C63 1.429 . S
C72 N69 1.350 . S
C72 C71 1.434 . S
C41 C19 1.459 1_665 S
C43 C10 1.458 . S
C52 C16 1.502 . S
C54 C7 1.495 1_546 S
C63 C11 1.496 1_455 S
C65 C2 1.505 1_554 S
