# Generated by pormake.
# Topology pcu, (6)-cn, num edge types: 1
# Building blocks:
#     Node 0, Type 0, BuildingBlock: UKALOJ_clean_sbu_0, # of connection points: 6
#     Edge 1, Type (0, 0), BuildingBlock: UVAHIK_clean_linker_0, # of connection points: 2
#     Edge 2, Type (0, 0), BuildingBlock: UVAHIK_clean_linker_0, # of connection points: 2
#     Edge 3, Type (0, 0), BuildingBlock: UVAHIK_clean_linker_0, # of connection points: 2
# Relax obj value: 0.010
# Max RMSD: 0.054
# Mean RMSD: 0.054
data_MOF--net-pcu--node1-UKALOJ_clean_sbu_0--edge1-UVAHIK_clean_linker_0
_symmetry_space_group_name_H-M    P1
_symmetry_Int_Tables_number       1
_symmetry_cell_setting            triclinic
loop_
_symmetry_equiv_pos_as_xyz
'x, y, z'
_cell_length_a     19.905109
_cell_length_b     19.898183
_cell_length_c     24.728473
_cell_angle_alpha  98.406724
_cell_angle_beta   82.371275
_cell_angle_gamma 99.252513
loop_
_atom_site_label
_atom_site_type_symbol
_atom_site_fract_x
_atom_site_fract_y
_atom_site_fract_z
_atom_type_partial_charge
Zn0 Zn 0.97283 -0.00643 0.05951 0.0
O1 O 0.96364 0.88685 0.06411 0.0
C2 C 0.11902 -0.00291 0.01578 0.0
Zn3 Zn -0.01419 0.97797 0.96791 0.0
C4 C 0.96815 0.84678 0.01917 0.0
O5 O 0.97671 0.87176 0.97389 0.0
C6 C -0.00951 0.12477 1.00825 0.0
O7 O 0.87851 0.96859 0.96659 0.0
O8 O 0.86579 0.98448 0.05684 0.0
N9 N 0.00105 0.95582 0.88423 0.0
C10 C -0.01794 0.9821 0.84227 0.0
C11 C 0.0367 0.89942 0.80735 0.0
N12 N 0.03505 0.90458 0.86236 0.0
N13 N 0.00406 0.94761 0.79354 0.0
C14 C 0.9765 -0.01059 0.18516 0.0
C15 C 0.92186 0.0721 0.22006 0.0
N16 N 0.95757 0.01573 0.14319 0.0
N17 N 0.92357 0.06696 0.16505 0.0
N18 N 0.95446 0.02388 0.23388 0.0
H19 H 0.05079 0.92975 0.13768 0.0
H20 H -0.01481 0.88311 0.18047 0.0
H21 H 0.05343 0.94019 0.21126 0.0
C22 C 0.0194 0.93269 0.17814 0.0
C23 C 0.93915 0.03881 0.8493 0.0
H24 H 0.90505 0.03126 0.81621 0.0
H25 H 0.97334 0.08839 0.84691 0.0
H26 H 0.90781 0.04179 0.88978 0.0
O27 O -0.00501 0.08469 0.96331 0.0
O28 O -0.01807 0.09979 0.05353 0.0
C29 C 0.83962 0.97446 1.01164 0.0
O30 O 0.08013 0.00295 0.06084 0.0
O31 O 0.09284 0.98707 0.97058 0.0
C32 C 0.95332 0.94958 0.30607 0.0
C33 C 0.96329 0.01511 0.28909 0.0
C34 C 0.9582 0.94215 0.36074 0.0
C35 C 0.94684 0.03766 0.50074 0.0
H36 H 0.0375 0.89361 0.53578 0.0
C37 C 0.00506 0.02184 0.72133 0.0
C38 C -0.00486 0.95633 0.73834 0.0
C39 C 8e-05 0.02923 0.66666 0.0
C40 C 0.01131 0.93363 0.52671 0.0
H41 H -0.01443 0.12404 0.31561 0.0
H42 H -0.00514 0.11137 0.411 0.0
H43 H 0.03192 0.90566 0.43983 0.0
H44 H 0.97284 0.84739 0.71188 0.0
H45 H 0.96339 0.85997 0.61651 0.0
H46 H 0.92624 0.06563 0.58762 0.0
C47 C -0.01719 0.06567 0.38235 0.0
C48 C 0.00815 0.94053 0.4717 0.0
C49 C 0.97789 0.07299 0.32778 0.0
C50 C 0.98048 0.89842 0.69969 0.0
C51 C 0.97547 0.90569 0.64513 0.0
C52 C 0.95 0.03076 0.55574 0.0
C53 C 0.97262 0.00018 0.39959 0.0
C54 C 0.97593 -0.00734 0.45806 0.0
C55 C -0.01438 0.97116 0.62785 0.0
C56 C -0.01776 0.97864 0.56938 0.0
H57 H 0.93968 0.90427 0.27757 0.0
H58 H 0.94886 0.89104 0.37291 0.0
H59 H 0.92066 0.07768 0.49166 0.0
H60 H 0.01873 0.06717 0.7498 0.0
H61 H 0.00939 0.08032 0.65447 0.0
C62 C 0.22256 0.00486 0.06542 0.0
C63 C 0.19366 -0.00115 0.01575 0.0
C64 C 0.29251 0.00287 0.06511 0.0
C65 C 0.45838 0.02404 0.97754 0.0
H66 H 0.51522 0.91683 0.07776 0.0
C67 C 0.73608 0.96669 0.96201 0.0
C68 C 0.76498 0.9727 1.01167 0.0
C69 C 0.66613 0.96869 0.96232 0.0
C70 C 0.50026 0.94754 0.04989 0.0
H71 H 0.21583 0.98691 0.92681 0.0
H72 H 0.33754 0.98304 0.92635 0.0
H73 H 0.39406 0.92504 0.07927 0.0
H74 H 0.74281 0.98465 0.10061 0.0
H75 H 0.6211 -0.01147 0.10107 0.0
H76 H 0.56458 0.04653 0.94815 0.0
C77 C 0.30634 -0.01001 0.96555 0.0
C78 C 0.43083 0.95234 0.05082 0.0
C79 C 0.23644 -0.00812 0.96584 0.0
C80 C 0.7222 0.97968 0.06159 0.0
C81 C 0.65231 0.98158 0.06188 0.0
C82 C 0.52781 0.01924 0.97661 0.0
C83 C 0.33512 -0.00506 0.01515 0.0
C84 C 0.40907 -0.00935 0.01466 0.0
C85 C 0.62352 0.97664 1.01227 0.0
C86 C 0.54957 0.98093 1.01277 0.0
H87 H 0.19105 0.01034 0.10459 0.0
H88 H 0.31327 0.00776 0.10405 0.0
H89 H 0.44342 0.05475 0.94967 0.0
H90 H 0.76758 0.96122 0.92283 0.0
H91 H 0.64537 0.96381 0.92337 0.0
C92 C 0.96238 0.74372 0.06828 0.0
C93 C 0.96633 0.77207 0.01893 0.0
C94 C 0.96428 0.67357 0.06737 0.0
C95 C 0.93918 0.50667 0.97879 0.0
H96 H 0.05163 0.44995 0.07555 0.0
C97 C -0.00373 0.22783 0.95913 0.0
C98 C -0.00768 0.19948 1.00848 0.0
C99 C -0.00563 0.29798 0.96004 0.0
C100 C 0.01949 0.46488 0.04862 0.0
H101 H 0.97441 0.74871 0.92995 0.0
H102 H 0.97811 0.62691 0.92846 0.0
H103 H 0.04297 0.57138 0.07895 0.0
H104 H -0.01575 0.22284 0.09747 0.0
H105 H 0.98056 0.34464 0.09896 0.0
H106 H 0.9157 0.40017 0.94846 0.0
C107 C 0.97286 0.65859 0.96788 0.0
C108 C 0.0144 0.53446 0.05067 0.0
C109 C 0.97109 0.72859 0.96877 0.0
C110 C -0.01244 0.24296 0.05865 0.0
C111 C -0.0142 0.31296 0.05953 0.0
C112 C 0.94426 0.43709 0.97674 0.0
C113 C 0.96998 0.6303 0.01711 0.0
C114 C 0.97421 0.55617 0.01576 0.0
C115 C -0.01132 0.34125 1.0103 0.0
C116 C -0.01554 0.41537 1.01165 0.0
H117 H 0.95858 0.77576 0.10761 0.0
H118 H 0.96108 0.65317 0.10605 0.0
H119 H 0.90704 0.5216 0.95186 0.0
H120 H 6e-05 0.19578 0.91981 0.0
H121 H -0.00243 0.31838 0.92136 0.0
loop_
_geom_bond_atom_site_label_1
_geom_bond_atom_site_label_2
_geom_bond_distance
_geom_bond_site_symmetry_2
_ccdc_geom_bond_type
Zn0 O1 2.055 . S
Zn0 O8 2.046 . S
Zn0 N16 2.036 1_565 S
Zn0 O28 2.053 1_565 S
Zn0 O30 2.066 1_665 S
O1 Zn0 2.055 . S
O1 C4 1.259 1_554 S
C2 O30 1.256 1_565 S
C2 O31 1.244 1_554 S
Zn3 O5 2.046 . S
Zn3 O7 2.055 . S
Zn3 N9 2.036 1_655 S
Zn3 O27 2.066 1_665 S
Zn3 O31 2.053 1_655 S
C4 O1 1.259 1_556 S
C4 O5 1.254 . S
O5 Zn3 2.046 . S
O5 C4 1.254 . S
C6 O27 1.256 1_655 S
C6 O28 1.244 1_556 S
O7 Zn3 2.055 . S
O7 C29 1.259 1_556 S
O8 Zn0 2.046 . S
O8 C29 1.254 . S
N9 Zn3 2.036 1_455 S
N9 C10 1.298 1_465 S
N9 N12 1.398 . S
C10 N9 1.298 1_645 S
C10 N13 1.367 1_655 S
C10 C23 1.481 . S
C11 N12 1.299 . S
C11 N13 1.379 1_565 S
N12 N9 1.398 . S
N12 C11 1.299 . S
N13 C10 1.367 1_455 S
N13 C11 1.379 1_545 S
C14 N16 1.298 1_465 S
C14 N18 1.367 1_565 S
C14 C22 1.481 . S
C15 N17 1.299 . S
C15 N18 1.379 1_655 S
N16 Zn0 2.036 1_545 S
N16 C14 1.298 1_645 S
N16 N17 1.398 . S
N17 C15 1.299 . S
N17 N16 1.398 . S
N18 C14 1.367 1_545 S
N18 C15 1.379 1_455 S
H19 C22 0.980 . S
H20 C22 0.981 . S
H21 C22 0.981 . S
C22 C14 1.481 . S
C22 H19 0.980 . S
C22 H20 0.981 . S
C22 H21 0.981 . S
C23 C10 1.481 . S
C23 H24 0.980 . S
C23 H25 0.981 . S
C23 H26 0.981 . S
H24 C23 0.980 . S
H25 C23 0.981 . S
H26 C23 0.981 . S
O27 Zn3 2.066 1_445 S
O27 C6 1.256 1_455 S
O28 Zn0 2.053 1_545 S
O28 C6 1.244 1_554 S
C29 O7 1.259 1_554 S
C29 O8 1.254 . S
O30 Zn0 2.066 1_445 S
O30 C2 1.256 1_545 S
O31 C2 1.244 1_556 S
O31 Zn3 2.053 1_455 S
C32 C33 1.349 1_565 S
C32 C34 1.327 . S
C32 H57 0.950 . S
C33 C32 1.349 1_545 S
C33 C49 1.349 1_455 S
C34 C32 1.327 . S
C34 C53 1.429 1_565 S
C34 H58 0.950 . S
C35 C52 1.574 . S
C35 C54 1.368 1_655 S
C35 H59 0.949 . S
H36 C40 0.949 . S
C37 C38 1.349 1_655 S
C37 C39 1.327 . S
C37 H60 0.950 . S
C38 C37 1.349 1_455 S
C38 C50 1.349 1_545 S
C39 C37 1.327 . S
C39 C55 1.429 1_655 S
C39 H61 0.950 . S
C40 H36 0.949 . S
C40 C48 1.574 . S
C40 C56 1.368 1_565 S
H41 C49 0.950 . S
H42 C47 0.950 . S
H43 C48 0.949 . S
H44 C50 0.950 . S
H45 C51 0.950 . S
H46 C52 0.949 . S
C47 H42 0.950 . S
C47 C49 1.327 . S
C47 C53 1.429 1_655 S
C48 C40 1.574 . S
C48 H43 0.949 . S
C48 C54 1.368 1_565 S
C49 C33 1.349 1_655 S
C49 H41 0.950 . S
C49 C47 1.327 . S
C50 C38 1.349 1_565 S
C50 H44 0.950 . S
C50 C51 1.327 . S
C51 H45 0.950 . S
C51 C50 1.327 . S
C51 C55 1.429 1_565 S
C52 C35 1.574 . S
C52 H46 0.949 . S
C52 C56 1.368 1_655 S
C53 C34 1.429 1_545 S
C53 C47 1.429 1_455 S
C53 C54 1.523 . S
C54 C35 1.368 1_455 S
C54 C48 1.368 1_545 S
C54 C53 1.523 . S
C55 C39 1.429 1_455 S
C55 C51 1.429 1_545 S
C55 C56 1.523 . S
C56 C40 1.368 1_545 S
C56 C52 1.368 1_455 S
C56 C55 1.523 . S
H57 C32 0.950 . S
H58 C34 0.950 . S
H59 C35 0.949 . S
H60 C37 0.950 . S
H61 C39 0.950 . S
C62 C63 1.349 . S
C62 C64 1.327 . S
C62 H87 0.950 . S
C63 C62 1.349 . S
C63 C79 1.349 1_564 S
C64 C62 1.327 . S
C64 C83 1.429 . S
C64 H88 0.950 . S
C65 C82 1.574 . S
C65 C84 1.368 1_546 S
C65 H89 0.949 . S
H66 C70 0.949 . S
C67 C68 1.349 1_546 S
C67 C69 1.327 . S
C67 H90 0.950 . S
C68 C67 1.349 1_564 S
C68 C80 1.349 . S
C69 C67 1.327 . S
C69 C85 1.429 1_546 S
C69 H91 0.950 . S
C70 H66 0.949 . S
C70 C78 1.574 . S
C70 C86 1.368 . S
H71 C79 0.950 . S
H72 C77 0.950 . S
H73 C78 0.949 . S
H74 C80 0.950 . S
H75 C81 0.950 . S
H76 C82 0.949 . S
C77 H72 0.950 . S
C77 C79 1.327 . S
C77 C83 1.429 1_546 S
C78 C70 1.574 . S
C78 H73 0.949 . S
C78 C84 1.368 . S
C79 C63 1.349 1_546 S
C79 H71 0.950 . S
C79 C77 1.327 . S
C80 C68 1.349 . S
C80 H74 0.950 . S
C80 C81 1.327 . S
C81 H75 0.950 . S
C81 C80 1.327 . S
C81 C85 1.429 . S
C82 C65 1.574 . S
C82 H76 0.949 . S
C82 C86 1.368 1_546 S
C83 C64 1.429 . S
C83 C77 1.429 1_564 S
C83 C84 1.523 . S
C84 C65 1.368 1_564 S
C84 C78 1.368 . S
C84 C83 1.523 . S
C85 C69 1.429 1_564 S
C85 C81 1.429 . S
C85 C86 1.523 . S
C86 C70 1.368 . S
C86 C82 1.368 1_564 S
C86 C85 1.523 . S
H87 C62 0.950 . S
H88 C64 0.950 . S
H89 C65 0.949 . S
H90 C67 0.950 . S
H91 C69 0.950 . S
C92 C93 1.349 1_554 S
C92 C94 1.327 . S
C92 H117 0.950 . S
C93 C92 1.349 1_556 S
C93 C109 1.349 1_655 S
C94 C92 1.327 . S
C94 C113 1.429 1_554 S
C94 H118 0.950 . S
C95 C112 1.574 . S
C95 C114 1.368 1_455 S
C95 H119 0.949 . S
H96 C100 0.949 . S
C97 C98 1.349 1_455 S
C97 C99 1.327 . S
C97 H120 0.950 . S
C98 C97 1.349 1_655 S
C98 C110 1.349 1_556 S
C99 C97 1.327 . S
C99 C115 1.429 1_455 S
C99 H121 0.950 . S
C100 H96 0.949 . S
C100 C108 1.574 . S
C100 C116 1.368 1_554 S
H101 C109 0.950 . S
H102 C107 0.950 . S
H103 C108 0.949 . S
H104 C110 0.950 . S
H105 C111 0.950 . S
H106 C112 0.949 . S
C107 H102 0.950 . S
C107 C109 1.327 . S
C107 C113 1.429 1_455 S
C108 C100 1.574 . S
C108 H103 0.949 . S
C108 C114 1.368 1_554 S
C109 C93 1.349 1_455 S
C109 H101 0.950 . S
C109 C107 1.327 . S
C110 C98 1.349 1_554 S
C110 H104 0.950 . S
C110 C111 1.327 . S
C111 H105 0.950 . S
C111 C110 1.327 . S
C111 C115 1.429 1_554 S
C112 C95 1.574 . S
C112 H106 0.949 . S
C112 C116 1.368 1_455 S
C113 C94 1.429 1_556 S
C113 C107 1.429 1_655 S
C113 C114 1.523 . S
C114 C95 1.368 1_655 S
C114 C108 1.368 1_556 S
C114 C113 1.523 . S
C115 C99 1.429 1_655 S
C115 C111 1.429 1_556 S
C115 C116 1.523 . S
C116 C100 1.368 1_556 S
C116 C112 1.368 1_655 S
C116 C115 1.523 . S
H117 C92 0.950 . S
H118 C94 0.950 . S
H119 C95 0.949 . S
H120 C97 0.950 . S
H121 C99 0.950 . S
C33 N18 1.456 . S
C38 N13 1.456 . S
C63 C2 1.496 . S
C68 C29 1.492 . S
C93 C4 1.492 . S
C98 C6 1.496 . S
