# Generated by pormake.
# Topology pcu, (6)-cn, num edge types: 1
# Building blocks:
#     Node 0, Type 0, BuildingBlock: FUNLAD_clean_sbu_0, # of connection points: 6
#     Edge 1, Type (0, 0), BuildingBlock: TEMPAE_clean_linker_10, # of connection points: 2
#     Edge 2, Type (0, 0), BuildingBlock: TEMPAE_clean_linker_10, # of connection points: 2
#     Edge 3, Type (0, 0), BuildingBlock: TEMPAE_clean_linker_10, # of connection points: 2
# Relax obj value: 0.000
# Max RMSD: 0.000
# Mean RMSD: 0.000
data_MOF--net-pcu--node1-FUNLAD_clean_sbu_0--edge1-TEMPAE_clean_linker_10
_symmetry_space_group_name_H-M    P1
_symmetry_Int_Tables_number       1
_symmetry_cell_setting            triclinic
loop_
_symmetry_equiv_pos_as_xyz
'x, y, z'
_cell_length_a     15.564708
_cell_length_b     15.567715
_cell_length_c     21.953232
_cell_angle_alpha  91.14934
_cell_angle_beta   93.328292
_cell_angle_gamma 95.223552
loop_
_atom_site_label
_atom_site_type_symbol
_atom_site_fract_x
_atom_site_fract_y
_atom_site_fract_z
_atom_type_partial_charge
C0 C 0.16634 -0.00585 0.01512 0.0
N1 N 0.98195 0.98606 0.86872 0.0
C2 C 0.03923 0.04191 0.84143 0.0
C3 C 0.03983 0.04369 0.77795 0.0
C4 C 0.98138 -0.01304 0.7421 0.0
C5 C 0.92313 0.92971 0.77139 0.0
C6 C 0.92429 0.93059 0.83511 0.0
Zn7 Zn 0.98476 -0.01372 0.96194 0.0
C8 C 0.98271 0.81064 1.01075 0.0
N9 N -0.004 -0.01061 0.15617 0.0
C10 C 0.05105 0.04724 0.18987 0.0
C11 C 0.94095 0.93116 0.18335 0.0
C12 C 0.93906 0.93026 0.24679 0.0
C13 C -0.00526 -0.01052 0.28273 0.0
C14 C 0.05172 0.0482 0.25358 0.0
Zn15 Zn -0.00702 -0.01037 0.06296 0.0
O16 O 0.1204 0.98234 0.96541 0.0
C17 C -0.00454 0.16536 0.01448 0.0
O18 O 0.13011 0.0045 0.06483 0.0
H19 H 0.89805 0.8854 0.15576 0.0
H20 H 0.08495 0.08505 0.86896 0.0
H21 H 0.09405 0.09315 0.16731 0.0
O22 O -0.00051 0.12329 0.96469 0.0
O23 O -0.01086 0.12512 0.06404 0.0
H24 H 0.87916 0.8869 0.85774 0.0
O25 O 0.85578 0.97482 0.05927 0.0
O26 O 0.84913 -0.01004 0.95991 0.0
O27 O -0.003 0.85417 0.06045 0.0
O28 O 0.97 0.84926 0.96102 0.0
C29 C 0.81129 0.98113 1.00945 0.0
H30 H 0.08647 0.08809 0.75713 0.0
H31 H 0.87655 0.88546 0.7453 0.0
H32 H 0.89493 0.88322 0.26752 0.0
H33 H 0.09519 0.09536 0.27969 0.0
C34 C 0.06977 -0.00434 0.38707 0.0
C35 C -0.00729 -0.00984 0.35024 0.0
C36 C 0.0685 -0.00502 0.45095 0.0
C37 C -0.01174 -0.01062 0.47858 0.0
C38 C 0.91028 0.9845 0.44162 0.0
C39 C 0.91345 0.98465 0.37788 0.0
C40 C 0.15297 -0.00041 0.48888 0.0
C41 C 0.8235 0.97937 0.4694 0.0
C42 C 0.97869 0.90971 0.64073 0.0
C43 C 0.98176 -0.01259 0.67454 0.0
C44 C 0.98105 0.9094 0.5769 0.0
C45 C 0.98582 -0.01133 0.54619 0.0
C46 C -0.01185 0.06728 0.58007 0.0
C47 C 0.98644 0.0657 0.64387 0.0
C48 C 0.97917 0.82431 0.54236 0.0
C49 C -0.00772 0.15303 0.5489 0.0
H50 H 0.13112 -0.00097 0.36585 0.0
H51 H 0.85376 0.98148 0.34957 0.0
H52 H 0.15863 0.05691 0.52019 0.0
H53 H 0.1548 0.94185 0.51758 0.0
H54 H 0.20979 0.00342 0.46034 0.0
H55 H 0.76892 0.97664 0.43428 0.0
H56 H 0.81551 0.92123 0.49766 0.0
H57 H 0.8198 0.03631 0.50003 0.0
H58 H 0.97605 0.84913 0.66435 0.0
H59 H -0.01216 0.12584 0.66983 0.0
H60 H 0.03796 0.82301 0.51621 0.0
H61 H 0.92263 0.81668 0.50891 0.0
H62 H 0.97569 0.76841 0.57308 0.0
H63 H 0.05128 0.16156 0.52282 0.0
H64 H -0.00712 0.20825 0.58181 0.0
H65 H 0.93593 0.1547 0.51572 0.0
C66 C 0.31583 0.04638 0.05492 0.0
C67 C 0.26076 -0.0075 0.01497 0.0
C68 C 0.40595 0.04603 0.05401 0.0
C69 C 0.4412 -0.01192 0.0138 0.0
C70 C 0.38548 0.9322 0.97436 0.0
C71 C 0.29589 0.93624 0.97465 0.0
C72 C 0.4634 0.10844 0.09535 0.0
C73 C 0.42041 0.86755 0.9323 0.0
C74 C 0.6725 0.03132 0.96823 0.0
C75 C 0.71666 0.98125 1.00968 0.0
C76 C 0.58299 0.03552 0.96989 0.0
C77 C 0.5364 0.98607 0.01264 0.0
C78 C 0.58061 0.93395 0.05377 0.0
C79 C 0.6706 0.93339 0.0525 0.0
C80 C 0.53852 0.09377 0.92651 0.0
C81 C 0.5328 0.87818 0.09865 0.0
H82 H 0.28842 0.09021 0.08582 0.0
H83 H 0.25304 0.8939 0.94422 0.0
H84 H 0.50389 0.07256 0.12729 0.0
H85 H 0.50792 0.14916 0.06779 0.0
H86 H 0.42579 0.15121 0.12241 0.0
H87 H 0.36813 0.8261 0.90655 0.0
H88 H 0.46159 0.90156 0.89913 0.0
H89 H 0.46166 0.82559 0.95905 0.0
H90 H 0.70839 0.06914 0.93558 0.0
H91 H 0.70486 0.89435 0.08437 0.0
H92 H 0.50371 0.14009 0.9526 0.0
H93 H 0.4897 0.05507 0.89603 0.0
H94 H 0.58467 0.1307 0.89785 0.0
H95 H 0.49998 0.91901 0.13027 0.0
H96 H 0.57642 0.83914 0.12604 0.0
H97 H 0.48196 0.83388 0.07394 0.0
C98 C 0.92764 0.66335 0.97116 0.0
C99 C 0.98413 0.71622 1.01083 0.0
C100 C 0.92797 0.57319 0.97175 0.0
C101 C -0.01149 0.53572 1.01132 0.0
C102 C 0.04694 0.58926 0.05051 0.0
C103 C 0.04293 0.67888 0.05058 0.0
C104 C 0.86283 0.51805 0.93075 0.0
C105 C 0.1143 0.55199 0.09186 0.0
C106 C 0.94788 0.30198 0.05635 0.0
C107 C -0.00483 0.25999 0.01433 0.0
C108 C 0.94376 0.39158 0.05508 0.0
C109 C -0.00951 0.44045 1.01211 0.0
C110 C 0.03976 0.3984 0.97035 0.0
C111 C 0.04026 0.30832 0.97127 0.0
C112 C 0.8885 0.43377 0.09915 0.0
C113 C 0.09263 0.4486 0.92517 0.0
H114 H 0.88188 0.69247 0.94069 0.0
H115 H 0.08726 0.72006 0.08078 0.0
H116 H 0.89656 0.47935 0.89831 0.0
H117 H 0.82397 0.472 0.95849 0.0
H118 H 0.8183 0.55716 0.90424 0.0
H119 H 0.15743 0.60283 0.11746 0.0
H120 H 0.08248 0.50897 0.12516 0.0
H121 H 0.15447 0.51222 0.06459 0.0
H122 H 0.9122 0.26438 0.08921 0.0
H123 H 0.07718 0.27576 0.93897 0.0
H124 H 0.84058 0.47013 0.07361 0.0
H125 H 0.92928 0.48081 0.12949 0.0
H126 H 0.85337 0.3861 0.12794 0.0
H127 H 0.04981 0.48327 0.89406 0.0
H128 H 0.12974 0.40642 0.89726 0.0
H129 H 0.13863 0.49798 0.9497 0.0
loop_
_geom_bond_atom_site_label_1
_geom_bond_atom_site_label_2
_geom_bond_distance
_geom_bond_site_symmetry_2
_ccdc_geom_bond_type
C0 O16 1.243 1_544 S
C0 O18 1.263 . S
N1 C2 1.333 1_665 S
N1 C6 1.307 . S
N1 Zn7 2.020 . S
C2 N1 1.333 1_445 S
C2 C3 1.379 . S
C2 H20 0.952 . S
C3 C2 1.379 . S
C3 C4 1.391 1_455 S
C3 H30 0.949 . S
C4 C3 1.391 1_655 S
C4 C5 1.355 1_545 S
C5 C4 1.355 1_565 S
C5 C6 1.370 . S
C5 H31 0.950 . S
C6 N1 1.307 . S
C6 C5 1.370 . S
C6 H24 0.948 . S
Zn7 N1 2.020 . S
Zn7 O16 2.039 1_655 S
Zn7 O22 2.034 1_665 S
Zn7 O26 2.025 . S
Zn7 O28 2.024 . S
C8 O27 1.246 1_556 S
C8 O28 1.249 . S
N9 C10 1.307 . S
N9 C11 1.333 1_445 S
N9 Zn15 2.020 . S
C10 N9 1.307 . S
C10 C14 1.370 . S
C10 H21 0.948 . S
C11 N9 1.333 1_665 S
C11 C12 1.379 . S
C11 H19 0.952 . S
C12 C11 1.379 . S
C12 C13 1.390 1_655 S
C12 H32 0.949 . S
C13 C12 1.390 1_455 S
C13 C14 1.356 1_565 S
C14 C10 1.370 . S
C14 C13 1.356 1_545 S
C14 H33 0.950 . S
Zn15 N9 2.020 . S
Zn15 O18 2.025 . S
Zn15 O23 2.024 . S
Zn15 O25 2.039 1_455 S
Zn15 O27 2.034 1_445 S
O16 C0 1.243 1_566 S
O16 Zn7 2.039 1_455 S
C17 O22 1.246 1_554 S
C17 O23 1.249 . S
O18 C0 1.263 . S
O18 Zn15 2.025 . S
H19 C11 0.952 . S
H20 C2 0.952 . S
H21 C10 0.948 . S
O22 Zn7 2.034 1_445 S
O22 C17 1.246 1_556 S
O23 Zn15 2.024 . S
O23 C17 1.249 . S
H24 C6 0.948 . S
O25 Zn15 2.039 1_655 S
O25 C29 1.246 1_544 S
O26 Zn7 2.025 . S
O26 C29 1.259 . S
O27 C8 1.246 1_554 S
O27 Zn15 2.034 1_665 S
O28 Zn7 2.024 . S
O28 C8 1.249 . S
C29 O25 1.246 1_566 S
C29 O26 1.259 . S
H30 C3 0.949 . S
H31 C5 0.950 . S
H32 C12 0.949 . S
H33 C14 0.950 . S
C34 C35 1.385 1_455 S
C34 C36 1.394 . S
C34 H50 0.931 . S
C35 C34 1.385 1_655 S
C35 C39 1.383 1_545 S
C36 C34 1.394 . S
C36 C37 1.366 1_455 S
C36 C40 1.531 . S
C37 C36 1.366 1_655 S
C37 C38 1.412 . S
C37 C45 1.503 . S
C38 C37 1.412 . S
C38 C39 1.392 1_545 S
C38 C41 1.511 1_545 S
C39 C35 1.383 1_565 S
C39 C38 1.392 1_565 S
C39 H51 0.929 . S
C40 C36 1.531 . S
C40 H52 0.960 . S
C40 H53 0.962 1_545 S
C40 H54 0.960 . S
C41 C38 1.511 1_565 S
C41 H55 0.961 . S
C41 H56 0.961 . S
C41 H57 0.961 1_565 S
C42 C43 1.368 1_465 S
C42 C44 1.363 . S
C42 H58 0.931 . S
C43 C42 1.368 1_645 S
C43 C47 1.410 . S
C44 C42 1.363 . S
C44 C45 1.370 1_465 S
C44 C48 1.524 . S
C45 C37 1.503 . S
C45 C44 1.370 1_645 S
C45 C46 1.404 . S
C46 C45 1.404 . S
C46 C47 1.404 . S
C46 C49 1.539 . S
C47 C43 1.410 . S
C47 C46 1.404 . S
C47 H59 0.930 . S
C48 C44 1.524 . S
C48 H60 0.956 . S
C48 H61 0.961 1_455 S
C48 H62 0.961 . S
C49 C46 1.539 . S
C49 H63 0.958 1_655 S
C49 H64 0.961 . S
C49 H65 0.960 . S
H50 C34 0.931 . S
H51 C39 0.929 . S
H52 C40 0.960 . S
H53 C40 0.962 1_565 S
H54 C40 0.960 . S
H55 C41 0.961 . S
H56 C41 0.961 . S
H57 C41 0.961 1_545 S
H58 C42 0.931 . S
H59 C47 0.930 . S
H60 C48 0.956 . S
H61 C48 0.961 1_655 S
H62 C48 0.961 . S
H63 C49 0.958 1_455 S
H64 C49 0.961 . S
H65 C49 0.960 . S
C66 C67 1.391 1_545 S
C66 C68 1.394 . S
C66 H82 0.931 . S
C67 C66 1.391 1_565 S
C67 C71 1.376 1_554 S
C68 C66 1.394 . S
C68 C69 1.369 1_545 S
C68 C72 1.531 . S
C69 C68 1.369 1_565 S
C69 C70 1.410 1_554 S
C69 C77 1.503 . S
C70 C69 1.410 1_556 S
C70 C71 1.392 . S
C70 C73 1.511 . S
C71 C67 1.376 1_556 S
C71 C70 1.392 . S
C71 H83 0.929 . S
C72 C68 1.531 . S
C72 H84 0.960 . S
C72 H85 0.962 . S
C72 H86 0.960 . S
C73 C70 1.511 . S
C73 H87 0.961 . S
C73 H88 0.961 . S
C73 H89 0.961 . S
C74 C75 1.370 1_546 S
C74 C76 1.363 . S
C74 H90 0.931 . S
C75 C74 1.370 1_564 S
C75 C79 1.408 . S
C76 C74 1.363 . S
C76 C77 1.370 1_546 S
C76 C80 1.524 . S
C77 C69 1.503 . S
C77 C76 1.370 1_564 S
C77 C78 1.403 . S
C78 C77 1.403 . S
C78 C79 1.404 . S
C78 C81 1.539 . S
C79 C75 1.408 . S
C79 C78 1.404 . S
C79 H91 0.930 . S
C80 C76 1.524 . S
C80 H92 0.956 . S
C80 H93 0.961 . S
C80 H94 0.961 . S
C81 C78 1.539 . S
C81 H95 0.958 . S
C81 H96 0.961 . S
C81 H97 0.960 . S
H82 C66 0.931 . S
H83 C71 0.929 . S
H84 C72 0.960 . S
H85 C72 0.962 . S
H86 C72 0.960 . S
H87 C73 0.961 . S
H88 C73 0.961 . S
H89 C73 0.961 . S
H90 C74 0.931 . S
H91 C79 0.930 . S
H92 C80 0.956 . S
H93 C80 0.961 . S
H94 C80 0.961 . S
H95 C81 0.958 . S
H96 C81 0.961 . S
H97 C81 0.960 . S
C98 C99 1.391 1_655 S
C98 C100 1.394 . S
C98 H114 0.931 . S
C99 C98 1.391 1_455 S
C99 C103 1.376 1_556 S
C100 C98 1.394 . S
C100 C101 1.369 1_655 S
C100 C104 1.531 . S
C101 C100 1.369 1_455 S
C101 C102 1.410 1_556 S
C101 C109 1.503 . S
C102 C101 1.410 1_554 S
C102 C103 1.392 . S
C102 C105 1.511 . S
C103 C99 1.376 1_554 S
C103 C102 1.392 . S
C103 H115 0.929 . S
C104 C100 1.531 . S
C104 H116 0.960 . S
C104 H117 0.962 . S
C104 H118 0.960 . S
C105 C102 1.511 . S
C105 H119 0.961 . S
C105 H120 0.961 . S
C105 H121 0.961 . S
C106 C107 1.370 1_654 S
C106 C108 1.363 . S
C106 H122 0.931 . S
C107 C106 1.370 1_456 S
C107 C111 1.408 . S
C108 C106 1.363 . S
C108 C109 1.370 1_654 S
C108 C112 1.524 . S
C109 C101 1.503 . S
C109 C108 1.370 1_456 S
C109 C110 1.403 . S
C110 C109 1.403 . S
C110 C111 1.404 . S
C110 C113 1.539 . S
C111 C107 1.408 . S
C111 C110 1.404 . S
C111 H123 0.930 . S
C112 C108 1.524 . S
C112 H124 0.956 . S
C112 H125 0.961 . S
C112 H126 0.961 . S
C113 C110 1.539 . S
C113 H127 0.958 . S
C113 H128 0.961 . S
C113 H129 0.960 . S
H114 C98 0.931 . S
H115 C103 0.929 . S
H116 C104 0.960 . S
H117 C104 0.962 . S
H118 C104 0.960 . S
H119 C105 0.961 . S
H120 C105 0.961 . S
H121 C105 0.961 . S
H122 C106 0.931 . S
H123 C111 0.930 . S
H124 C112 0.956 . S
H125 C112 0.961 . S
H126 C112 0.961 . S
H127 C113 0.958 . S
H128 C113 0.961 . S
H129 C113 0.960 . S
C35 C13 1.494 1_645 S
C43 C4 1.497 . S
C67 C0 1.495 1_565 S
C75 C29 1.498 1_554 S
C99 C8 1.494 1_455 S
C107 C17 1.495 1_556 S
