# Generated by pormake.
# Topology umg, (4)-cn, num edge types: 1
# Building blocks:
#     Node 0, Type 0, BuildingBlock: QUQFOY_clean_sbu_3, # of connection points: 4
#     Node 1, Type 0, BuildingBlock: QUQFOY_clean_sbu_3, # of connection points: 4
#     Node 2, Type 0, BuildingBlock: QUQFOY_clean_sbu_3, # of connection points: 4
#     Node 3, Type 0, BuildingBlock: QUQFOY_clean_sbu_3, # of connection points: 4
#     Node 4, Type 0, BuildingBlock: QUQFOY_clean_sbu_3, # of connection points: 4
#     Node 5, Type 0, BuildingBlock: QUQFOY_clean_sbu_3, # of connection points: 4
#     Node 6, Type 0, BuildingBlock: QUQFOY_clean_sbu_3, # of connection points: 4
#     Node 7, Type 0, BuildingBlock: QUQFOY_clean_sbu_3, # of connection points: 4
#     Node 8, Type 0, BuildingBlock: QUQFOY_clean_sbu_3, # of connection points: 4
#     Node 9, Type 0, BuildingBlock: QUQFOY_clean_sbu_3, # of connection points: 4
#     Node 10, Type 0, BuildingBlock: QUQFOY_clean_sbu_3, # of connection points: 4
#     Node 11, Type 0, BuildingBlock: QUQFOY_clean_sbu_3, # of connection points: 4
#     Edge 12, Type (0, 0), None
#     Edge 13, Type (0, 0), None
#     Edge 14, Type (0, 0), None
#     Edge 15, Type (0, 0), None
#     Edge 16, Type (0, 0), None
#     Edge 17, Type (0, 0), None
#     Edge 18, Type (0, 0), None
#     Edge 19, Type (0, 0), None
#     Edge 20, Type (0, 0), None
#     Edge 21, Type (0, 0), None
#     Edge 22, Type (0, 0), None
#     Edge 23, Type (0, 0), None
#     Edge 24, Type (0, 0), None
#     Edge 25, Type (0, 0), None
#     Edge 26, Type (0, 0), None
#     Edge 27, Type (0, 0), None
#     Edge 28, Type (0, 0), None
#     Edge 29, Type (0, 0), None
#     Edge 30, Type (0, 0), None
#     Edge 31, Type (0, 0), None
#     Edge 32, Type (0, 0), None
#     Edge 33, Type (0, 0), None
#     Edge 34, Type (0, 0), None
#     Edge 35, Type (0, 0), None
# Relax obj value: 0.091
# Max RMSD: 0.325
# Mean RMSD: 0.211
data_MOF--net-umg--node1-QUQFOY_clean_sbu_3--edge1-none
_symmetry_space_group_name_H-M    P1
_symmetry_Int_Tables_number       1
_symmetry_cell_setting            triclinic
loop_
_symmetry_equiv_pos_as_xyz
'x, y, z'
_cell_length_a     13.48412
_cell_length_b     13.48273
_cell_length_c     39.338775
_cell_angle_alpha  93.010255
_cell_angle_beta   93.095936
_cell_angle_gamma 117.87707
loop_
_atom_site_label
_atom_site_type_symbol
_atom_site_fract_x
_atom_site_fract_y
_atom_site_fract_z
_atom_type_partial_charge
C0 C 0.37766 0.6993 0.1331 0.0
O1 O 0.37135 0.78858 0.12836 0.0
Cd2 Cd 0.30336 0.80359 0.07096 0.0
O3 O 0.36816 0.63323 0.10766 0.0
Cd4 Cd 0.35228 0.64019 0.04567 0.0
C5 C 0.08187 0.54477 0.05407 0.0
O6 O 0.41483 0.82475 0.02244 0.0
O7 O 0.27174 0.67969 -0.00432 0.0
O8 O 0.53243 0.6432 0.03802 0.0
C9 C 0.3494 0.78015 -0.00484 0.0
O10 O 0.10893 0.64868 0.05912 0.0
C11 C 0.48765 0.5406 0.02648 0.0
O12 O 0.15679 0.51399 0.05059 0.0
O13 O 0.38079 0.48714 0.022 0.0
C14 C 0.59856 0.26568 0.45178 0.0
O15 O 0.50272 0.2578 0.44334 0.0
Cd16 Cd 0.42623 0.21113 0.38393 0.0
O17 O 0.65762 0.25724 0.42903 0.0
Cd18 Cd 0.63494 0.23894 0.36665 0.0
C19 C 0.43972 0.96872 0.36686 0.0
O20 O 0.55555 0.35885 0.35019 0.0
O21 O 0.53126 0.22799 0.31236 0.0
O22 O 0.81312 0.40325 0.36906 0.0
C23 C 0.55122 0.32921 0.31875 0.0
O24 O 0.3701 0.00702 0.37 0.0
C25 C 0.86394 0.35607 0.35487 0.0
O26 O 0.544 0.03612 0.3664 0.0
O27 O 0.80864 0.25098 0.34605 0.0
C28 C 0.26657 0.65808 0.79047 0.0
O29 O 0.18846 0.55901 0.78134 0.0
Cd30 Cd 0.15834 0.45395 0.72512 0.0
O31 O 0.32662 0.71846 0.76856 0.0
Cd32 Cd 0.31659 0.68602 0.7072 0.0
C33 C 0.41517 0.4909 0.71661 0.0
O34 O 0.1825 0.5238 0.6692 0.0
O35 O 0.13879 0.65522 0.67633 0.0
O36 O 0.33543 0.86876 0.7004 0.0
C37 C 0.13966 0.57985 0.65596 0.0
O38 O 0.31806 0.42106 0.72449 0.0
C39 C 0.4297 0.90989 0.68802 0.0
O40 O 0.43661 0.58968 0.7091 0.0
O41 O 0.47413 0.84564 0.68341 0.0
C42 C 0.6923 0.32288 0.12894 0.0
O43 O 0.71382 0.24314 0.1205 0.0
Cd44 Cd 0.76322 0.2032 0.06364 0.0
O45 O 0.6782 0.37956 0.10646 0.0
Cd46 Cd 0.67596 0.36494 0.04559 0.0
C47 C 0.96452 0.45833 0.05406 0.0
O48 O 0.69393 0.22601 0.0081 0.0
O49 O 0.52612 0.18483 0.01775 0.0
O50 O 0.51016 0.38567 0.04068 0.0
C51 C 0.59233 0.18426 -0.00377 0.0
O52 O 0.94504 0.3606 0.06155 0.0
C53 C 0.55227 0.47912 0.02779 0.0
O54 O 0.88443 0.48154 0.04708 0.0
O55 O 0.65544 0.52216 0.02178 0.0
C56 C 0.29519 0.58398 0.44996 0.0
O57 O 0.39815 0.61301 0.44614 0.0
Cd58 Cd 0.48986 0.65398 0.39264 0.0
O59 O 0.22547 0.5651 0.42436 0.0
Cd60 Cd 0.2164 0.5601 0.36192 0.0
C61 C 0.40505 0.84793 0.36839 0.0
O62 O 0.36429 0.51834 0.34952 0.0
O63 O 0.25467 0.5008 0.30601 0.0
O64 O 0.04952 0.38211 0.36242 0.0
C65 C 0.35241 0.52037 0.31735 0.0
O66 O 0.48134 0.82293 0.37852 0.0
C67 C -0.01591 0.4204 0.35239 0.0
O68 O 0.30234 0.77206 0.36156 0.0
O69 O 0.02749 0.52279 0.34553 0.0
C70 C 0.66969 0.31981 0.79112 0.0
O71 O 0.75118 0.41434 0.78618 0.0
Cd72 Cd 0.762 0.48116 0.7294 0.0
O73 O 0.60357 0.25696 0.76607 0.0
Cd74 Cd 0.59466 0.2666 0.70454 0.0
C75 C 0.50215 0.45476 0.71593 0.0
O76 O 0.77918 0.36903 0.68159 0.0
O77 O 0.63442 0.36595 0.65396 0.0
O78 O 0.59512 0.08604 0.69562 0.0
C79 C 0.73511 0.38242 0.65392 0.0
O80 O 0.6061 0.52689 0.71932 0.0
C81 C 0.49089 0.03142 0.68597 0.0
O82 O 0.47187 0.34996 0.71274 0.0
O83 O 0.43749 0.08743 0.68252 0.0
C84 C 0.25941 0.58639 0.48455 0.0
O85 O 0.16981 0.59219 0.48912 0.0
Cd86 Cd 0.15432 0.66009 0.54647 0.0
O87 O 0.32532 0.59618 0.51009 0.0
Cd88 Cd 0.31794 0.61164 0.572 0.0
C89 C 0.41291 0.8819 0.56326 0.0
O90 O 0.1333 0.54866 0.59508 0.0
O91 O 0.27826 0.69158 0.622 0.0
O92 O 0.31482 0.43131 0.57932 0.0
C93 C 0.17784 0.61372 0.62243 0.0
O94 O 0.30898 0.85473 0.55815 0.0
C95 C 0.41741 0.47587 0.59091 0.0
O96 O 0.44378 0.80709 0.56692 0.0
O97 O 0.47086 0.58269 0.59562 0.0
C98 C 0.64088 0.29038 0.82594 0.0
O99 O 0.54658 0.20858 0.8309 0.0
Cd100 Cd 0.48028 0.19673 0.88773 0.0
O101 O 0.70396 0.35622 0.851 0.0
Cd102 Cd 0.69491 0.364 0.91257 0.0
C103 C 0.5065 0.4564 0.90133 0.0
O104 O 0.59298 0.17913 0.93537 0.0
O105 O 0.59587 0.32347 0.96318 0.0
O106 O 0.8755 0.3635 0.9213 0.0
C107 C 0.57985 0.2229 0.96311 0.0
O108 O 0.43439 0.35243 0.89794 0.0
C109 C 0.93012 0.46753 0.93118 0.0
O110 O 0.61131 0.4867 0.90451 0.0
O111 O 0.87411 0.52086 0.93477 0.0
C112 C 0.38005 0.66402 0.1678 0.0
O113 O 0.35101 0.56115 0.17182 0.0
Cd114 Cd 0.30938 0.4704 0.22551 0.0
O115 O 0.39858 0.73402 0.19325 0.0
Cd116 Cd 0.40287 0.74424 0.2557 0.0
C117 C 0.11502 0.55547 0.24895 0.0
O118 O 0.44433 0.59656 0.26869 0.0
O119 O 0.4617 0.70719 0.31191 0.0
O120 O 0.58082 0.91124 0.25527 0.0
C121 C 0.44188 0.6092 0.30082 0.0
O122 O 0.14015 0.47907 0.23911 0.0
C123 C 0.54225 0.97667 0.26502 0.0
O124 O 0.19083 0.65824 0.25572 0.0
O125 O 0.43968 0.93322 0.27166 0.0
C126 C 0.63546 0.2716 0.48794 0.0
O127 O 0.71479 0.24953 0.49651 0.0
Cd128 Cd 0.75463 0.19995 0.55335 0.0
O129 O 0.57878 0.28607 0.51031 0.0
Cd130 Cd 0.59305 0.28785 0.57127 0.0
C131 C 0.49932 -0.00082 0.56309 0.0
O132 O 0.73169 0.2691 0.60878 0.0
O133 O 0.77289 0.43732 0.5994 0.0
O134 O 0.57239 0.45374 0.57658 0.0
C135 C 0.77355 0.37057 0.62074 0.0
O136 O 0.59693 0.01845 0.55557 0.0
C137 C 0.47885 0.41124 0.58938 0.0
O138 O 0.47625 0.0794 0.56997 0.0
O139 O 0.43566 0.30778 0.59509 0.0
C140 C 0.30276 0.69367 0.82698 0.0
O141 O 0.402 0.77149 0.83607 0.0
Cd142 Cd 0.50745 0.80041 0.89219 0.0
O143 O 0.24264 0.6333 0.84888 0.0
Cd144 Cd 0.27558 0.64223 0.9102 0.0
C145 C 0.47032 0.54336 0.90064 0.0
O146 O 0.43827 0.77582 0.94818 0.0
O147 O 0.30647 0.81939 0.94145 0.0
O148 O 0.09303 0.62359 0.91717 0.0
C149 C 0.38242 0.8185 0.96158 0.0
O150 O 0.54005 0.64044 0.89269 0.0
C151 C 0.0517 0.5288 0.92926 0.0
O152 O 0.37167 0.52198 0.90823 0.0
O153 O 0.11579 0.48409 0.93369 0.0
C154 C 0.69817 0.3603 0.16502 0.0
O155 O 0.70619 0.45629 0.17322 0.0
Cd156 Cd 0.75198 0.53398 0.23247 0.0
O157 O 0.70615 0.30142 0.18795 0.0
Cd158 Cd 0.72381 0.32552 0.25031 0.0
C159 C -0.00582 0.52083 0.25027 0.0
O160 O 0.60353 0.40521 0.26608 0.0
O161 O 0.7337 0.42983 0.30431 0.0
O162 O 0.5595 0.14738 0.248 0.0
C163 C 0.63266 0.41005 0.2976 0.0
O164 O 0.95594 0.5904 0.24684 0.0
C165 C 0.60656 0.09679 0.26243 0.0
O166 O 0.92674 0.41659 0.25083 0.0
O167 O 0.71157 0.15222 0.27138 0.0
loop_
_geom_bond_atom_site_label_1
_geom_bond_atom_site_label_2
_geom_bond_distance
_geom_bond_site_symmetry_2
_ccdc_geom_bond_type
C0 O1 1.306 . S
C0 O3 1.160 . S
O1 C0 1.306 . S
O1 Cd2 2.228 . S
Cd2 O1 2.228 . S
Cd2 O6 2.273 . S
Cd2 O10 2.277 . S
O3 C0 1.160 . S
O3 Cd4 2.203 . S
Cd4 O3 2.203 . S
Cd4 O6 2.411 . S
Cd4 O7 2.333 . S
Cd4 O8 2.352 . S
Cd4 O12 2.277 . S
Cd4 O13 2.356 . S
C5 O10 1.209 . S
C5 O12 1.226 . S
O6 Cd2 2.273 . S
O6 Cd4 2.411 . S
O6 C9 1.320 . S
O7 Cd4 2.333 . S
O7 C9 1.214 . S
O8 Cd4 2.352 . S
O8 C11 1.258 . S
C9 O6 1.320 . S
C9 O7 1.214 . S
O10 Cd2 2.277 . S
O10 C5 1.209 . S
C11 O8 1.258 . S
C11 O13 1.282 . S
O12 Cd4 2.277 . S
O12 C5 1.226 . S
O13 Cd4 2.356 . S
O13 C11 1.282 . S
C14 O15 1.306 . S
C14 O17 1.160 . S
O15 C14 1.306 . S
O15 Cd16 2.228 . S
Cd16 O15 2.228 . S
Cd16 O20 2.273 . S
Cd16 O24 2.277 . S
O17 C14 1.160 . S
O17 Cd18 2.203 . S
Cd18 O17 2.203 . S
Cd18 O20 2.411 . S
Cd18 O21 2.333 . S
Cd18 O22 2.352 . S
Cd18 O26 2.277 . S
Cd18 O27 2.356 . S
C19 O24 1.209 . S
C19 O26 1.226 . S
O20 Cd16 2.273 . S
O20 Cd18 2.411 . S
O20 C23 1.320 . S
O21 Cd18 2.333 . S
O21 C23 1.214 . S
O22 Cd18 2.352 . S
O22 C25 1.258 . S
C23 O20 1.320 . S
C23 O21 1.214 . S
O24 Cd16 2.277 . S
O24 C19 1.209 . S
C25 O22 1.258 . S
C25 O27 1.282 . S
O26 Cd18 2.277 . S
O26 C19 1.226 . S
O27 Cd18 2.356 . S
O27 C25 1.282 . S
C28 O29 1.306 . S
C28 O31 1.160 . S
O29 C28 1.306 . S
O29 Cd30 2.228 . S
Cd30 O29 2.228 . S
Cd30 O34 2.273 . S
Cd30 O38 2.277 . S
O31 C28 1.160 . S
O31 Cd32 2.203 . S
Cd32 O31 2.203 . S
Cd32 O34 2.411 . S
Cd32 O35 2.333 . S
Cd32 O36 2.352 . S
Cd32 O40 2.277 . S
Cd32 O41 2.356 . S
C33 O38 1.209 . S
C33 O40 1.226 . S
O34 Cd30 2.273 . S
O34 Cd32 2.411 . S
O34 C37 1.320 . S
O35 Cd32 2.333 . S
O35 C37 1.214 . S
O36 Cd32 2.352 . S
O36 C39 1.258 . S
C37 O34 1.320 . S
C37 O35 1.214 . S
O38 Cd30 2.277 . S
O38 C33 1.209 . S
C39 O36 1.258 . S
C39 O41 1.282 . S
O40 Cd32 2.277 . S
O40 C33 1.226 . S
O41 Cd32 2.356 . S
O41 C39 1.282 . S
C42 O43 1.306 . S
C42 O45 1.160 . S
O43 C42 1.306 . S
O43 Cd44 2.228 . S
Cd44 O43 2.228 . S
Cd44 O48 2.273 . S
Cd44 O52 2.277 . S
O45 C42 1.160 . S
O45 Cd46 2.203 . S
Cd46 O45 2.203 . S
Cd46 O48 2.411 . S
Cd46 O49 2.333 . S
Cd46 O50 2.352 . S
Cd46 O54 2.277 . S
Cd46 O55 2.356 . S
C47 O52 1.209 . S
C47 O54 1.226 . S
O48 Cd44 2.273 . S
O48 Cd46 2.411 . S
O48 C51 1.320 . S
O49 Cd46 2.333 . S
O49 C51 1.214 . S
O50 Cd46 2.352 . S
O50 C53 1.258 . S
C51 O48 1.320 . S
C51 O49 1.214 . S
O52 Cd44 2.277 . S
O52 C47 1.209 . S
C53 O50 1.258 . S
C53 O55 1.282 . S
O54 Cd46 2.277 . S
O54 C47 1.226 . S
O55 Cd46 2.356 . S
O55 C53 1.282 . S
C56 O57 1.306 . S
C56 O59 1.160 . S
O57 C56 1.306 . S
O57 Cd58 2.228 . S
Cd58 O57 2.228 . S
Cd58 O62 2.273 . S
Cd58 O66 2.277 . S
O59 C56 1.160 . S
O59 Cd60 2.203 . S
Cd60 O59 2.203 . S
Cd60 O62 2.411 . S
Cd60 O63 2.333 . S
Cd60 O64 2.352 . S
Cd60 O68 2.277 . S
Cd60 O69 2.356 . S
C61 O66 1.209 . S
C61 O68 1.226 . S
O62 Cd58 2.273 . S
O62 Cd60 2.411 . S
O62 C65 1.320 . S
O63 Cd60 2.333 . S
O63 C65 1.214 . S
O64 Cd60 2.352 . S
O64 C67 1.258 . S
C65 O62 1.320 . S
C65 O63 1.214 . S
O66 Cd58 2.277 . S
O66 C61 1.209 . S
C67 O64 1.258 . S
C67 O69 1.282 . S
O68 Cd60 2.277 . S
O68 C61 1.226 . S
O69 Cd60 2.356 . S
O69 C67 1.282 . S
C70 O71 1.306 . S
C70 O73 1.160 . S
O71 C70 1.306 . S
O71 Cd72 2.228 . S
Cd72 O71 2.228 . S
Cd72 O76 2.273 . S
Cd72 O80 2.277 . S
O73 C70 1.160 . S
O73 Cd74 2.203 . S
Cd74 O73 2.203 . S
Cd74 O76 2.411 . S
Cd74 O77 2.333 . S
Cd74 O78 2.352 . S
Cd74 O82 2.277 . S
Cd74 O83 2.356 . S
C75 O80 1.209 . S
C75 O82 1.226 . S
O76 Cd72 2.273 . S
O76 Cd74 2.411 . S
O76 C79 1.320 . S
O77 Cd74 2.333 . S
O77 C79 1.214 . S
O78 Cd74 2.352 . S
O78 C81 1.258 . S
C79 O76 1.320 . S
C79 O77 1.214 . S
O80 Cd72 2.277 . S
O80 C75 1.209 . S
C81 O78 1.258 . S
C81 O83 1.282 . S
O82 Cd74 2.277 . S
O82 C75 1.226 . S
O83 Cd74 2.356 . S
O83 C81 1.282 . S
C84 O85 1.306 . S
C84 O87 1.160 . S
O85 C84 1.306 . S
O85 Cd86 2.228 . S
Cd86 O85 2.228 . S
Cd86 O90 2.273 . S
Cd86 O94 2.277 . S
O87 C84 1.160 . S
O87 Cd88 2.203 . S
Cd88 O87 2.203 . S
Cd88 O90 2.411 . S
Cd88 O91 2.333 . S
Cd88 O92 2.352 . S
Cd88 O96 2.277 . S
Cd88 O97 2.356 . S
C89 O94 1.209 . S
C89 O96 1.226 . S
O90 Cd86 2.273 . S
O90 Cd88 2.411 . S
O90 C93 1.320 . S
O91 Cd88 2.333 . S
O91 C93 1.214 . S
O92 Cd88 2.352 . S
O92 C95 1.258 . S
C93 O90 1.320 . S
C93 O91 1.214 . S
O94 Cd86 2.277 . S
O94 C89 1.209 . S
C95 O92 1.258 . S
C95 O97 1.282 . S
O96 Cd88 2.277 . S
O96 C89 1.226 . S
O97 Cd88 2.356 . S
O97 C95 1.282 . S
C98 O99 1.306 . S
C98 O101 1.160 . S
O99 C98 1.306 . S
O99 Cd100 2.228 . S
Cd100 O99 2.228 . S
Cd100 O104 2.273 . S
Cd100 O108 2.277 . S
O101 C98 1.160 . S
O101 Cd102 2.203 . S
Cd102 O101 2.203 . S
Cd102 O104 2.411 . S
Cd102 O105 2.333 . S
Cd102 O106 2.352 . S
Cd102 O110 2.277 . S
Cd102 O111 2.356 . S
C103 O108 1.209 . S
C103 O110 1.226 . S
O104 Cd100 2.273 . S
O104 Cd102 2.411 . S
O104 C107 1.320 . S
O105 Cd102 2.333 . S
O105 C107 1.214 . S
O106 Cd102 2.352 . S
O106 C109 1.258 . S
C107 O104 1.320 . S
C107 O105 1.214 . S
O108 Cd100 2.277 . S
O108 C103 1.209 . S
C109 O106 1.258 . S
C109 O111 1.282 . S
O110 Cd102 2.277 . S
O110 C103 1.226 . S
O111 Cd102 2.356 . S
O111 C109 1.282 . S
C112 O113 1.306 . S
C112 O115 1.160 . S
O113 C112 1.306 . S
O113 Cd114 2.228 . S
Cd114 O113 2.228 . S
Cd114 O118 2.273 . S
Cd114 O122 2.277 . S
O115 C112 1.160 . S
O115 Cd116 2.203 . S
Cd116 O115 2.203 . S
Cd116 O118 2.411 . S
Cd116 O119 2.333 . S
Cd116 O120 2.352 . S
Cd116 O124 2.277 . S
Cd116 O125 2.356 . S
C117 O122 1.209 . S
C117 O124 1.226 . S
O118 Cd114 2.273 . S
O118 Cd116 2.411 . S
O118 C121 1.320 . S
O119 Cd116 2.333 . S
O119 C121 1.214 . S
O120 Cd116 2.352 . S
O120 C123 1.258 . S
C121 O118 1.320 . S
C121 O119 1.214 . S
O122 Cd114 2.277 . S
O122 C117 1.209 . S
C123 O120 1.258 . S
C123 O125 1.282 . S
O124 Cd116 2.277 . S
O124 C117 1.226 . S
O125 Cd116 2.356 . S
O125 C123 1.282 . S
C126 O127 1.306 . S
C126 O129 1.160 . S
O127 C126 1.306 . S
O127 Cd128 2.228 . S
Cd128 O127 2.228 . S
Cd128 O132 2.273 . S
Cd128 O136 2.277 . S
O129 C126 1.160 . S
O129 Cd130 2.203 . S
Cd130 O129 2.203 . S
Cd130 O132 2.411 . S
Cd130 O133 2.333 . S
Cd130 O134 2.352 . S
Cd130 O138 2.277 . S
Cd130 O139 2.356 . S
C131 O136 1.209 . S
C131 O138 1.226 . S
O132 Cd128 2.273 . S
O132 Cd130 2.411 . S
O132 C135 1.320 . S
O133 Cd130 2.333 . S
O133 C135 1.214 . S
O134 Cd130 2.352 . S
O134 C137 1.258 . S
C135 O132 1.320 . S
C135 O133 1.214 . S
O136 Cd128 2.277 . S
O136 C131 1.209 . S
C137 O134 1.258 . S
C137 O139 1.282 . S
O138 Cd130 2.277 . S
O138 C131 1.226 . S
O139 Cd130 2.356 . S
O139 C137 1.282 . S
C140 O141 1.306 . S
C140 O143 1.160 . S
O141 C140 1.306 . S
O141 Cd142 2.228 . S
Cd142 O141 2.228 . S
Cd142 O146 2.273 . S
Cd142 O150 2.277 . S
O143 C140 1.160 . S
O143 Cd144 2.203 . S
Cd144 O143 2.203 . S
Cd144 O146 2.411 . S
Cd144 O147 2.333 . S
Cd144 O148 2.352 . S
Cd144 O152 2.277 . S
Cd144 O153 2.356 . S
C145 O150 1.209 . S
C145 O152 1.226 . S
O146 Cd142 2.273 . S
O146 Cd144 2.411 . S
O146 C149 1.320 . S
O147 Cd144 2.333 . S
O147 C149 1.214 . S
O148 Cd144 2.352 . S
O148 C151 1.258 . S
C149 O146 1.320 . S
C149 O147 1.214 . S
O150 Cd142 2.277 . S
O150 C145 1.209 . S
C151 O148 1.258 . S
C151 O153 1.282 . S
O152 Cd144 2.277 . S
O152 C145 1.226 . S
O153 Cd144 2.356 . S
O153 C151 1.282 . S
C154 O155 1.306 . S
C154 O157 1.160 . S
O155 C154 1.306 . S
O155 Cd156 2.228 . S
Cd156 O155 2.228 . S
Cd156 O160 2.273 . S
Cd156 O164 2.277 . S
O157 C154 1.160 . S
O157 Cd158 2.203 . S
Cd158 O157 2.203 . S
Cd158 O160 2.411 . S
Cd158 O161 2.333 . S
Cd158 O162 2.352 . S
Cd158 O166 2.277 . S
Cd158 O167 2.356 . S
C159 O164 1.209 . S
C159 O166 1.226 . S
O160 Cd156 2.273 . S
O160 Cd158 2.411 . S
O160 C163 1.320 . S
O161 Cd158 2.333 . S
O161 C163 1.214 . S
O162 Cd158 2.352 . S
O162 C165 1.258 . S
C163 O160 1.320 . S
C163 O161 1.214 . S
O164 Cd156 2.277 . S
O164 C159 1.209 . S
C165 O162 1.258 . S
C165 O167 1.282 . S
O166 Cd158 2.277 . S
O166 C159 1.226 . S
O167 Cd158 2.356 . S
O167 C165 1.282 . S
C149 C9 1.953 1_556 S
C23 C163 1.440 . S
C37 C93 1.953 . S
C51 C107 1.903 1_554 S
C121 C65 1.248 . S
C79 C135 1.903 . S
C112 C0 1.899 . S
C14 C126 3.019 . S
C28 C140 3.587 . S
C42 C154 3.020 . S
C84 C56 1.900 . S
C98 C70 1.433 . S
C47 C5 1.574 1_655 S
C19 C61 1.560 1_545 S
C75 C33 1.562 . S
C131 C89 1.574 1_545 S
C145 C103 1.562 . S
C117 C159 1.560 1_455 S
C53 C11 1.423 . S
C25 C67 1.383 1_655 S
C81 C39 1.435 1_545 S
C95 C137 1.423 . S
C151 C109 1.435 1_455 S
C123 C165 1.383 1_565 S
