# Generated by pormake.
# Topology pcu, (6)-cn, num edge types: 1
# Building blocks:
#     Node 0, Type 0, BuildingBlock: CIFDUS_clean_sbu_1, # of connection points: 6
#     Edge 1, Type (0, 0), BuildingBlock: FUNLAD_clean_linker_0, # of connection points: 2
#     Edge 2, Type (0, 0), BuildingBlock: FUNLAD_clean_linker_0, # of connection points: 2
#     Edge 3, Type (0, 0), BuildingBlock: FUNLAD_clean_linker_0, # of connection points: 2
# Relax obj value: 0.009
# Max RMSD: 0.057
# Mean RMSD: 0.057
data_MOF--net-pcu--node1-CIFDUS_clean_sbu_1--edge1-FUNLAD_clean_linker_0
_symmetry_space_group_name_H-M    P1
_symmetry_Int_Tables_number       1
_symmetry_cell_setting            triclinic
loop_
_symmetry_equiv_pos_as_xyz
'x, y, z'
_cell_length_a     18.284941
_cell_length_b     18.080266
_cell_length_c     17.427472
_cell_angle_alpha  69.579915
_cell_angle_beta   105.34774
_cell_angle_gamma 97.127205
loop_
_atom_site_label
_atom_site_type_symbol
_atom_site_fract_x
_atom_site_fract_y
_atom_site_fract_z
_atom_type_partial_charge
O0 O 0.99539 0.87877 1.0288 0.0
Mn1 Mn 0.01796 0.98588 0.05556 0.0
O2 O 0.03846 0.78146 0.15044 0.0
Mn3 Mn 0.0947 0.84708 0.20566 0.0
O4 O 0.04053 0.09299 0.08233 0.0
O5 O 0.99755 0.04356 0.92968 0.0
Mn6 Mn 0.94122 0.12469 0.90547 0.0
O7 O 0.90303 -0.01185 1.05392 0.0
O8 O 0.99747 0.1903 0.96069 0.0
O9 O 0.13289 0.98361 0.0572 0.0
O10 O 0.18476 0.88744 0.17575 0.0
O11 O 0.95644 0.12951 0.80446 0.0
O12 O 0.85117 0.08433 0.93537 0.0
C13 C 0.04136 0.90507 0.2615 0.0
C14 C 1.00327 0.80523 0.07338 0.0
C15 C 0.03265 0.16653 1.03775 0.0
C16 C 0.99455 0.0667 0.84961 0.0
C17 C 0.8457 0.02801 1.0026 0.0
C18 C 0.19022 0.94375 0.10853 0.0
O19 O 0.03837 0.9282 0.18144 0.0
O20 O 0.07947 0.84226 0.30667 0.0
C21 C 0.97056 0.89822 0.36505 0.0
C22 C 1.00898 0.94538 0.30396 0.0
C23 C 0.96717 0.92222 0.43176 0.0
C24 C 1.0029 -0.00629 0.43882 0.0
C25 C 0.03312 0.04521 0.37212 0.0
C26 C 0.03659 0.02097 0.30505 0.0
C27 C 1.01319 0.01361 0.51685 0.0
C28 C 0.0227 0.95813 0.59427 0.0
C29 C 0.033 0.97805 0.6723 0.0
C30 C 1.00276 0.92656 0.739 0.0
C31 C 0.99929 0.95082 0.80606 0.0
C32 C 0.02693 0.0264 0.80715 0.0
H33 H 0.09591 0.08891 0.63129 0.0
C34 C 0.06538 0.07353 0.74607 0.0
C35 C 0.06876 0.04952 0.67936 0.0
H36 H 0.08701 0.13219 0.74583 0.0
H37 H 0.94894 0.83955 0.36529 0.0
H38 H 0.94003 0.8828 0.47984 0.0
H39 H 0.05952 0.10147 0.37528 0.0
H40 H 0.06761 0.05772 0.25936 0.0
H41 H 0.01623 0.07581 0.51029 0.0
H42 H 0.01966 0.89593 0.60084 0.0
H43 H 0.97634 0.87031 0.73584 0.0
H44 H 0.96826 0.91408 0.85174 0.0
C45 C 0.32814 0.91645 0.14539 0.0
C46 C 0.26595 0.96055 0.08892 0.0
C47 C 0.39906 0.92797 0.12669 0.0
C48 C 0.41023 0.98475 1.05116 0.0
C49 C 0.34824 0.02911 0.99468 0.0
C50 C 0.27685 0.01737 1.01335 0.0
C51 C 0.48449 -0.00283 1.02764 0.0
C52 C 0.55143 0.9746 0.08349 0.0
C53 C 0.62569 0.98701 0.05996 0.0
C54 C 0.68768 0.94265 0.11645 0.0
C55 C 0.75907 0.9544 0.09778 0.0
C56 C 0.76997 0.01122 1.02221 0.0
H57 H 0.59197 0.08132 0.94014 0.0
C58 C 0.70778 0.05532 0.96573 0.0
C59 C 0.63687 0.0438 0.98444 0.0
H60 H 0.71388 0.10017 0.90712 0.0
H61 H 0.32204 0.87161 0.204 0.0
H62 H 0.44395 0.89045 0.17099 0.0
H63 H 0.35497 0.07286 0.93565 0.0
H64 H 0.23018 0.05201 0.96816 0.0
H65 H 0.48297 0.02619 0.96133 0.0
H66 H 0.55295 0.94557 0.14979 0.0
H67 H 0.68095 0.8989 0.17547 0.0
H68 H 0.80574 0.91975 0.14296 0.0
C69 C 0.03001 0.72306 0.99803 0.0
C70 C 0.97953 0.74285 1.03542 0.0
C71 C 0.02968 0.64597 0.99694 0.0
C72 C 0.97845 0.58784 1.03294 0.0
C73 C 0.92247 0.61036 0.06129 0.0
C74 C 0.92368 0.68701 0.06367 0.0
C75 C 0.98444 0.50283 1.04627 0.0
C76 C 0.05151 0.46893 0.06486 0.0
C77 C 0.05749 0.38392 0.07819 0.0
C78 C 0.11345 0.3614 1.0498 0.0
C79 C 0.11222 0.28475 1.04741 0.0
C80 C 0.05639 0.22891 0.07572 0.0
H81 H 0.96418 0.34057 0.13954 0.0
C82 C 1.00595 0.2487 0.11315 0.0
C83 C 1.00629 0.32578 0.11424 0.0
H84 H 0.96147 0.20692 0.13385 0.0
H85 H 0.07451 0.76483 0.97736 0.0
H86 H 0.07183 0.6312 0.97167 0.0
H87 H 0.8816 0.56701 0.08804 0.0
H88 H 0.88536 0.70054 0.09456 0.0
H89 H 0.93237 0.46662 1.04503 0.0
H90 H 0.10359 0.50514 0.06611 0.0
H91 H 0.15429 0.40476 1.02301 0.0
H92 H 0.15051 0.27123 1.01649 0.0
loop_
_geom_bond_atom_site_label_1
_geom_bond_atom_site_label_2
_geom_bond_distance
_geom_bond_site_symmetry_2
_ccdc_geom_bond_type
O0 Mn1 2.163 1_666 S
O0 C14 1.244 1_656 S
Mn1 O0 2.163 1_444 S
Mn1 O4 2.160 . S
Mn1 O5 2.221 1_454 S
Mn1 O7 2.163 1_445 S
Mn1 O9 2.160 1_554 S
Mn1 O19 2.221 1_545 S
O2 Mn3 2.087 . S
O2 C14 1.256 . S
Mn3 O2 2.087 . S
Mn3 O10 2.089 . S
Mn3 O19 2.290 . S
Mn3 O20 2.251 . S
O4 Mn1 2.160 . S
O4 C15 1.239 1_454 S
O5 Mn1 2.221 1_656 S
O5 Mn6 2.290 . S
O5 C16 1.278 . S
Mn6 O5 2.290 . S
Mn6 O8 2.089 . S
Mn6 O11 2.251 . S
Mn6 O12 2.087 . S
O7 Mn1 2.163 1_665 S
O7 C17 1.244 1_564 S
O8 Mn6 2.089 . S
O8 C15 1.256 . S
O9 Mn1 2.160 1_556 S
O9 C18 1.239 1_546 S
O10 Mn3 2.089 . S
O10 C18 1.256 . S
O11 Mn6 2.251 . S
O11 C16 1.241 . S
O12 Mn6 2.087 . S
O12 C17 1.256 . S
C13 O19 1.278 . S
C13 O20 1.241 . S
C14 O0 1.244 1_454 S
C14 O2 1.256 . S
C15 O4 1.239 1_656 S
C15 O8 1.256 . S
C16 O5 1.278 . S
C16 O11 1.241 . S
C17 O7 1.244 1_546 S
C17 O12 1.256 . S
C18 O9 1.239 1_564 S
C18 O10 1.256 . S
O19 Mn1 2.221 1_565 S
O19 Mn3 2.290 . S
O19 C13 1.278 . S
O20 Mn3 2.251 . S
O20 C13 1.241 . S
C21 C22 1.386 . S
C21 C23 1.383 . S
C21 H37 0.951 1_565 S
C22 C21 1.386 . S
C22 C26 1.383 1_655 S
C23 C21 1.383 . S
C23 C24 1.409 . S
C23 H38 0.951 . S
C24 C23 1.409 . S
C24 C25 1.368 1_655 S
C24 C27 1.481 1_655 S
C25 C24 1.368 1_455 S
C25 C26 1.367 . S
C25 H39 0.951 . S
C26 C22 1.383 1_455 S
C26 C25 1.367 . S
C26 H40 0.950 . S
C27 C24 1.481 1_455 S
C27 C28 1.297 1_455 S
C27 H41 0.950 . S
C28 C27 1.297 1_655 S
C28 C29 1.479 . S
C28 H42 0.950 . S
C29 C28 1.479 . S
C29 C30 1.375 . S
C29 C35 1.404 1_655 S
C30 C29 1.375 . S
C30 C31 1.369 . S
C30 H43 0.950 . S
C31 C30 1.369 . S
C31 C32 1.392 . S
C31 H44 0.951 1_565 S
C32 C31 1.392 . S
C32 C34 1.384 1_655 S
H33 C35 0.949 . S
C34 C32 1.384 1_455 S
C34 C35 1.385 . S
C34 H36 0.950 . S
C35 C29 1.404 1_455 S
C35 H33 0.949 . S
C35 C34 1.385 . S
H36 C34 0.950 . S
H37 C21 0.951 1_545 S
H38 C23 0.951 . S
H39 C25 0.951 . S
H40 C26 0.950 . S
H41 C27 0.950 . S
H42 C28 0.950 . S
H43 C30 0.950 . S
H44 C31 0.951 1_545 S
C45 C46 1.379 1_566 S
C45 C47 1.383 . S
C45 H61 0.951 . S
C46 C45 1.379 1_544 S
C46 C50 1.387 . S
C47 C45 1.383 . S
C47 C48 1.402 1_565 S
C47 H62 0.951 . S
C48 C47 1.402 1_545 S
C48 C49 1.375 1_556 S
C48 C51 1.481 . S
C49 C48 1.375 1_554 S
C49 C50 1.367 . S
C49 H63 0.951 . S
C50 C46 1.387 . S
C50 C49 1.367 . S
C50 H64 0.950 . S
C51 C48 1.481 . S
C51 C52 1.297 . S
C51 H65 0.950 1_556 S
C52 C51 1.297 . S
C52 C53 1.479 . S
C52 H66 0.950 1_545 S
C53 C52 1.479 . S
C53 C54 1.375 1_545 S
C53 C59 1.404 . S
C54 C53 1.375 1_565 S
C54 C55 1.369 . S
C54 H67 0.950 . S
C55 C54 1.369 . S
C55 C56 1.392 1_565 S
C55 H68 0.951 . S
C56 C55 1.392 1_545 S
C56 C58 1.384 1_556 S
H57 C59 0.949 1_554 S
C58 C56 1.384 1_554 S
C58 C59 1.385 1_554 S
C58 H60 0.950 . S
C59 C53 1.404 . S
C59 H57 0.949 1_556 S
C59 C58 1.385 1_556 S
H60 C58 0.950 . S
H61 C45 0.951 . S
H62 C47 0.951 . S
H63 C49 0.951 . S
H64 C50 0.950 . S
H65 C51 0.950 1_554 S
H66 C52 0.950 1_565 S
H67 C54 0.950 . S
H68 C55 0.951 . S
C69 C70 1.386 1_556 S
C69 C71 1.383 . S
C69 H85 0.951 . S
C70 C69 1.386 1_554 S
C70 C74 1.383 1_455 S
C71 C69 1.383 . S
C71 C72 1.402 1_456 S
C71 H86 0.951 . S
C72 C71 1.402 1_654 S
C72 C73 1.375 . S
C72 C75 1.481 . S
C73 C72 1.375 . S
C73 C74 1.367 . S
C73 H87 0.951 . S
C74 C70 1.383 1_655 S
C74 C73 1.367 . S
C74 H88 0.950 . S
C75 C72 1.481 . S
C75 C76 1.297 1_655 S
C75 H89 0.950 . S
C76 C75 1.297 1_455 S
C76 C77 1.479 . S
C76 H90 0.949 1_554 S
C77 C76 1.479 . S
C77 C78 1.375 1_554 S
C77 C83 1.404 1_455 S
C78 C77 1.375 1_556 S
C78 C79 1.369 . S
C78 H91 0.950 . S
C79 C78 1.369 . S
C79 C80 1.392 1_556 S
C79 H92 0.951 . S
C80 C79 1.392 1_554 S
C80 C82 1.384 1_455 S
H81 C83 0.949 . S
C82 C80 1.384 1_655 S
C82 C83 1.385 . S
C82 H84 0.950 . S
C83 C77 1.404 1_655 S
C83 H81 0.949 . S
C83 C82 1.385 . S
H84 C82 0.950 . S
H85 C69 0.951 . S
H86 C71 0.951 . S
H87 C73 0.951 . S
H88 C74 0.950 . S
H89 C75 0.950 . S
H90 C76 0.949 1_556 S
H91 C78 0.950 . S
H92 C79 0.951 . S
C22 C13 1.243 1_655 S
C32 C16 1.324 1_565 S
C46 C18 1.473 1_545 S
C56 C17 1.393 . S
C70 C14 1.424 . S
C80 C15 1.487 1_454 S
