# Generated by pormake.
# Topology rob, (6)-cn, num edge types: 1
# Building blocks:
#     Node 0, Type 0, BuildingBlock: BETGAK_clean_sbu_0, # of connection points: 6
#     Node 1, Type 0, BuildingBlock: BETGAK_clean_sbu_0, # of connection points: 6
#     Node 2, Type 0, BuildingBlock: BETGAK_clean_sbu_0, # of connection points: 6
#     Node 3, Type 0, BuildingBlock: BETGAK_clean_sbu_0, # of connection points: 6
#     Edge 4, Type (0, 0), BuildingBlock: EYOCIG_clean_linker_4, # of connection points: 2
#     Edge 5, Type (0, 0), BuildingBlock: EYOCIG_clean_linker_4, # of connection points: 2
#     Edge 6, Type (0, 0), BuildingBlock: EYOCIG_clean_linker_4, # of connection points: 2
#     Edge 7, Type (0, 0), BuildingBlock: EYOCIG_clean_linker_4, # of connection points: 2
#     Edge 8, Type (0, 0), BuildingBlock: EYOCIG_clean_linker_4, # of connection points: 2
#     Edge 9, Type (0, 0), BuildingBlock: EYOCIG_clean_linker_4, # of connection points: 2
#     Edge 10, Type (0, 0), BuildingBlock: EYOCIG_clean_linker_4, # of connection points: 2
#     Edge 11, Type (0, 0), BuildingBlock: EYOCIG_clean_linker_4, # of connection points: 2
#     Edge 12, Type (0, 0), BuildingBlock: EYOCIG_clean_linker_4, # of connection points: 2
#     Edge 13, Type (0, 0), BuildingBlock: EYOCIG_clean_linker_4, # of connection points: 2
#     Edge 14, Type (0, 0), BuildingBlock: EYOCIG_clean_linker_4, # of connection points: 2
#     Edge 15, Type (0, 0), BuildingBlock: EYOCIG_clean_linker_4, # of connection points: 2
# Relax obj value: 0.230
# Max RMSD: 0.234
# Mean RMSD: 0.234
data_MOF--net-rob--node1-BETGAK_clean_sbu_0--edge1-EYOCIG_clean_linker_4
_symmetry_space_group_name_H-M    P1
_symmetry_Int_Tables_number       1
_symmetry_cell_setting            triclinic
loop_
_symmetry_equiv_pos_as_xyz
'x, y, z'
_cell_length_a     14.805225
_cell_length_b     17.056324
_cell_length_c     30.810154
_cell_angle_alpha  90.002806
_cell_angle_beta   130.06505
_cell_angle_gamma 89.998891
loop_
_atom_site_label
_atom_site_type_symbol
_atom_site_fract_x
_atom_site_fract_y
_atom_site_fract_z
_atom_type_partial_charge
La0 La 0.20309 0.32991 1.01444 0.0
La1 La 0.37713 0.23016 0.02215 0.0
C2 C 0.06763 0.38483 0.02952 0.0
C3 C 0.06835 0.38438 0.07764 0.0
C4 C 0.06144 0.4559 0.09793 0.0
C5 C 0.06004 0.4572 0.14284 0.0
C6 C 0.06544 0.38694 0.16792 0.0
C7 C 0.07603 0.3155 0.14912 0.0
C8 C 0.07788 0.31411 0.10431 0.0
C9 C 0.35625 0.40905 1.0151 0.0
C10 C 0.42757 0.25958 0.134 0.0
C11 C 0.51253 0.17493 1.00711 0.0
C12 C 0.51217 0.17553 0.9591 0.0
C13 C 0.5195 0.1041 0.93889 0.0
C14 C 0.52113 0.10292 0.89405 0.0
C15 C 0.51555 0.17324 0.86897 0.0
C16 C 0.50461 0.24459 0.88772 0.0
C17 C 0.5025 0.24585 0.93244 0.0
C18 C 0.22363 0.15132 0.02151 0.0
C19 C 0.1528 0.30063 0.90261 0.0
O20 O 0.15212 0.42525 0.0374 0.0
O21 O 0.04926 0.31774 1.00419 0.0
O22 O 0.24744 0.42973 0.98695 0.0
O23 O 0.3788 0.34881 0.04454 0.0
O24 O 0.3192 0.28769 0.10223 0.0
O25 O 0.47878 0.24008 0.11294 0.0
O26 O 0.42757 0.13477 0.99896 0.0
O27 O 0.53129 0.2419 0.03262 0.0
O28 O 0.33244 0.13053 0.04974 0.0
O29 O 0.20154 0.21133 0.992 0.0
O30 O 0.26124 0.27263 0.9344 0.0
O31 O 0.10149 0.31996 0.92365 0.0
H32 H 0.0562 0.51075 0.07869 0.0
H33 H 0.0528 0.51292 0.15732 0.0
H34 H 0.08114 0.2608 0.1685 0.0
H35 H 0.08569 0.25816 0.09034 0.0
H36 H 0.52485 0.04921 0.95812 0.0
H37 H 0.52862 0.04726 0.87961 0.0
H38 H 0.49937 0.29934 0.86834 0.0
H39 H 0.49435 0.30174 0.94636 0.0
La40 La 0.70309 0.83018 1.01447 0.0
La41 La 0.87668 0.73016 0.02199 0.0
C42 C 0.56796 0.88541 0.02968 0.0
C43 C 0.56874 0.88512 0.07782 0.0
C44 C 0.5619 0.9567 0.09807 0.0
C45 C 0.56046 0.95816 0.14297 0.0
C46 C 0.56577 0.88797 0.16809 0.0
C47 C 0.5763 0.81646 0.14934 0.0
C48 C 0.57818 0.81492 0.10454 0.0
C49 C 0.8564 0.90908 1.01511 0.0
C50 C 0.92751 0.75961 0.13394 0.0
C51 C 1.01161 0.67464 1.00673 0.0
C52 C 1.01089 0.67509 0.95861 0.0
C53 C 1.0177 0.60359 0.93827 0.0
C54 C 1.01918 0.60234 0.89337 0.0
C55 C 1.01396 0.67264 0.86837 0.0
C56 C 1.00341 0.74404 0.88721 0.0
C57 C 1.00149 0.74539 0.932 0.0
C58 C 0.7231 0.65156 0.02141 0.0
C59 C 0.65241 0.8009 0.90255 0.0
O60 O 0.65252 0.92566 0.03753 0.0
O61 O 0.54937 0.81828 1.00436 0.0
O62 O 0.74766 0.92991 0.98701 0.0
O63 O 0.87881 0.84882 0.04451 0.0
O64 O 0.81922 0.78785 0.10224 0.0
O65 O 0.97856 0.74003 0.11281 0.0
O66 O 0.92674 0.63459 0.99874 0.0
O67 O 1.0306 0.74166 0.03224 0.0
O68 O 0.83184 0.63064 0.04958 0.0
O69 O 0.70109 0.71158 0.99192 0.0
O70 O 0.76074 0.77274 0.93428 0.0
O71 O 0.60127 0.82034 0.92366 0.0
H72 H 0.55672 1.0115 0.0788 0.0
H73 H 0.55327 1.01393 0.1574 0.0
H74 H 0.58133 0.76181 0.16875 0.0
H75 H 0.58592 0.75891 0.0906 0.0
H76 H 1.02282 0.54872 0.95745 0.0
H77 H 1.02633 0.54664 0.87885 0.0
H78 H 0.9984 0.79877 0.86788 0.0
H79 H 0.99375 0.80133 0.946 0.0
La80 La 0.37677 0.83025 0.5221 0.0
La81 La 0.20291 0.73027 0.51436 0.0
C82 C 0.51225 0.88553 0.50712 0.0
C83 C 0.51188 0.88524 0.45911 0.0
C84 C 0.51905 0.95682 0.43898 0.0
C85 C 0.52081 0.95829 0.39418 0.0
C86 C 0.51551 0.88812 0.36905 0.0
C87 C 0.5047 0.81661 0.38769 0.0
C88 C 0.50248 0.81505 0.43238 0.0
C89 C 0.22337 0.90916 0.52137 0.0
C90 C 0.15257 0.75974 0.40253 0.0
C91 C 0.06759 0.67482 0.52938 0.0
C92 C 0.06786 0.67519 0.57735 0.0
C93 C 0.06059 0.60361 0.59745 0.0
C94 C 0.05863 0.60214 0.64218 0.0
C95 C 0.06389 0.67233 0.6673 0.0
C96 C 0.07486 0.74383 0.64871 0.0
C97 C 0.07721 0.74538 0.60406 0.0
C98 C 0.35662 0.65163 0.51504 0.0
C99 C 0.42699 0.80088 0.6339 0.0
O100 O 0.42747 0.92573 0.49911 0.0
O101 O 0.53077 0.81842 0.53244 0.0
O102 O 0.33215 0.92995 0.54955 0.0
O103 O 0.20098 0.84895 0.49194 0.0
O104 O 0.26089 0.78795 0.43431 0.0
O105 O 0.10133 0.74018 0.42356 0.0
O106 O 0.15259 0.63476 0.5375 0.0
O107 O 0.04877 0.74186 0.50392 0.0
O108 O 0.24784 0.63074 0.4868 0.0
O109 O 0.37858 0.71163 0.54454 0.0
O110 O 0.31863 0.77275 0.6021 0.0
O111 O 0.47831 0.82032 0.61288 0.0
H112 H 0.5242 1.0116 0.45826 0.0
H113 H 0.5282 1.01407 0.37983 0.0
H114 H 0.49968 0.76197 0.36827 0.0
H115 H 0.49448 0.75905 0.44622 0.0
H116 H 0.0555 0.54883 0.57818 0.0
H117 H 0.05115 0.54637 0.6565 0.0
H118 H 0.0799 0.79846 0.66815 0.0
H119 H 0.08527 0.80138 0.59023 0.0
La120 La 0.87695 0.33011 0.52213 0.0
La121 La 0.70283 0.2304 0.51437 0.0
C122 C 1.01256 0.38503 0.50713 0.0
C123 C 1.0121 0.38453 0.4591 0.0
C124 C 1.01928 0.45601 0.43889 0.0
C125 C 1.02088 0.45729 0.39404 0.0
C126 C 1.01545 0.38701 0.36896 0.0
C127 C 1.00463 0.3156 0.3877 0.0
C128 C 1.00255 0.31425 0.43243 0.0
C129 C 0.72376 0.40927 0.52143 0.0
C130 C 0.65254 0.25976 0.40255 0.0
C131 C 0.56745 0.17524 0.52943 0.0
C132 C 0.56806 0.17576 0.57751 0.0
C133 C 0.56112 0.10428 0.59782 0.0
C134 C 0.55972 0.10304 0.64273 0.0
C135 C 0.56517 0.17334 0.6678 0.0
C136 C 0.57576 0.24474 0.64897 0.0
C137 C 0.5776 0.24607 0.60416 0.0
C138 C 0.85632 0.15152 0.51503 0.0
C139 C 0.92718 0.3008 0.63394 0.0
O140 O 0.9279 0.4254 0.49913 0.0
O141 O 1.03094 0.31798 0.5325 0.0
O142 O 0.83258 0.42994 0.54961 0.0
O143 O 0.70122 0.34904 0.49199 0.0
O144 O 0.76093 0.28784 0.43434 0.0
O145 O 0.60125 0.24034 0.42359 0.0
O146 O 0.65221 0.13499 0.53745 0.0
O147 O 0.5488 0.24226 0.50399 0.0
O148 O 0.7475 0.13075 0.48679 0.0
O149 O 0.87844 0.21153 0.54454 0.0
O150 O 0.81876 0.27279 0.60214 0.0
O151 O 0.97851 0.32017 0.61291 0.0
H152 H 1.02456 0.51087 0.45813 0.0
H153 H 1.02828 0.51299 0.37961 0.0
H154 H 0.99951 0.26089 0.36831 0.0
H155 H 0.99453 0.25831 0.44634 0.0
H156 H 0.55588 0.04941 0.57861 0.0
H157 H 0.55248 0.04735 0.65723 0.0
H158 H 0.5809 0.29947 0.66835 0.0
H159 H 0.58544 0.302 0.59018 0.0
C160 C 0.57438 0.55814 1.01739 0.0
C161 C 0.63719 0.60347 1.01715 0.0
C162 C 0.50448 0.50273 0.01889 0.0
C163 C 0.4418 0.45734 0.01919 0.0
C164 C 0.50545 0.55828 0.51909 0.0
C165 C 0.44257 0.60357 0.51931 0.0
C166 C 0.57545 0.50291 0.51762 0.0
C167 C 0.63818 0.45755 0.51734 0.0
C168 C 0.0749 0.05791 1.01749 0.0
C169 C 0.13777 0.1032 1.01727 0.0
C170 C 1.00486 1.00257 0.01896 0.0
C171 C 0.94207 0.95726 0.01922 0.0
C172 C 1.00497 0.05805 0.51902 0.0
C173 C 0.94216 0.10337 0.51926 0.0
C174 C 0.07493 1.00267 0.51752 0.0
C175 C 0.13769 0.95735 0.51724 0.0
C176 C 0.55743 0.24345 0.29569 0.0
C177 C 0.5927 0.24851 0.34344 0.0
C178 C 0.52277 0.2434 0.24088 0.0
C179 C 0.48747 0.24839 0.19312 0.0
C180 C 0.54693 0.88966 0.24775 0.0
C181 C 0.5555 0.88906 0.21144 0.0
C182 C 0.53468 0.88973 0.2895 0.0
C183 C 0.52597 0.88922 0.32576 0.0
C184 C 0.55699 0.81716 0.79563 0.0
C185 C 0.59242 0.81213 0.84342 0.0
C186 C 0.52216 0.81714 0.74079 0.0
C187 C 0.48681 0.8121 0.69302 0.0
C188 C 0.54656 0.17207 0.74754 0.0
C189 C 0.55502 0.17248 0.71119 0.0
C190 C 0.53444 0.17206 0.78933 0.0
C191 C 0.52585 0.17244 0.82563 0.0
C192 C 1.02282 0.74338 0.24085 0.0
C193 C 0.98749 0.74837 0.19307 0.0
C194 C 0.05751 0.74342 0.29566 0.0
C195 C 0.09278 0.74847 0.34342 0.0
C196 C 1.03445 0.38832 0.28935 0.0
C197 C 1.02581 0.3879 0.32564 0.0
C198 C 0.04666 0.3883 0.2476 0.0
C199 C 0.0552 0.38786 0.21128 0.0
C200 C 1.02254 0.31692 0.74085 0.0
C201 C 0.98711 0.31193 0.69307 0.0
C202 C 0.05744 0.31688 0.79571 0.0
C203 C 0.09288 0.31183 0.84349 0.0
C204 C 0.04475 0.671 0.74686 0.0
C205 C 0.05344 0.67128 0.71059 0.0
C206 C 1.03274 0.67126 0.78868 0.0
C207 C 1.02419 0.67177 0.82501 0.0
loop_
_geom_bond_atom_site_label_1
_geom_bond_atom_site_label_2
_geom_bond_distance
_geom_bond_site_symmetry_2
_ccdc_geom_bond_type
La0 C2 2.928 1_556 S
La0 O20 2.521 1_556 S
La0 O21 2.628 1_556 S
La0 O22 2.554 1_556 S
La0 O23 2.757 . S
La0 O24 2.470 1_556 S
La0 O29 2.482 1_556 S
La0 O31 2.503 . S
La1 C11 2.928 1_554 S
La1 O23 2.482 1_554 S
La1 O25 2.503 . S
La1 O26 2.521 1_554 S
La1 O27 2.628 1_554 S
La1 O28 2.554 1_554 S
La1 O29 2.757 . S
La1 O30 2.470 1_554 S
C2 La0 2.928 1_554 S
C2 C3 1.503 . S
C2 O20 1.261 . S
C2 O21 1.243 . S
C3 C2 1.503 . S
C3 C4 1.394 . S
C3 C8 1.373 . S
C4 C3 1.394 . S
C4 C5 1.380 . S
C4 H32 0.930 . S
C5 C4 1.380 . S
C5 C6 1.376 . S
C5 H33 0.930 . S
C6 C5 1.376 . S
C6 C7 1.370 . S
C7 C6 1.370 . S
C7 C8 1.396 . S
C7 H34 0.929 . S
C8 C3 1.373 . S
C8 C7 1.396 . S
C8 H35 0.929 . S
C9 O22 1.240 . S
C9 O23 1.289 1_554 S
C10 O24 1.258 . S
C10 O25 1.256 . S
C11 La1 2.928 1_556 S
C11 C12 1.503 . S
C11 O26 1.261 . S
C11 O27 1.243 . S
C12 C11 1.503 . S
C12 C13 1.394 . S
C12 C17 1.373 . S
C13 C12 1.394 . S
C13 C14 1.380 . S
C13 H36 0.930 . S
C14 C13 1.380 . S
C14 C15 1.376 . S
C14 H37 0.930 . S
C15 C14 1.376 . S
C15 C16 1.370 . S
C16 C15 1.370 . S
C16 C17 1.396 . S
C16 H38 0.929 . S
C17 C12 1.373 . S
C17 C16 1.396 . S
C17 H39 0.929 . S
C18 O28 1.240 . S
C18 O29 1.289 1_556 S
C19 O30 1.258 . S
C19 O31 1.256 . S
O20 La0 2.521 1_554 S
O20 C2 1.261 . S
O21 La0 2.628 1_554 S
O21 C2 1.243 . S
O22 La0 2.554 1_554 S
O22 C9 1.240 . S
O23 La0 2.757 . S
O23 La1 2.482 1_556 S
O23 C9 1.289 1_556 S
O24 La0 2.470 1_554 S
O24 C10 1.258 . S
O25 La1 2.503 . S
O25 C10 1.256 . S
O26 La1 2.521 1_556 S
O26 C11 1.261 . S
O27 La1 2.628 1_556 S
O27 C11 1.243 . S
O28 La1 2.554 1_556 S
O28 C18 1.240 . S
O29 La0 2.482 1_554 S
O29 La1 2.757 . S
O29 C18 1.289 1_554 S
O30 La1 2.470 1_556 S
O30 C19 1.258 . S
O31 La0 2.503 . S
O31 C19 1.256 . S
H32 C4 0.930 . S
H33 C5 0.930 . S
H34 C7 0.929 . S
H35 C8 0.929 . S
H36 C13 0.930 . S
H37 C14 0.930 . S
H38 C16 0.929 . S
H39 C17 0.929 . S
La40 C42 2.928 1_556 S
La40 O60 2.521 1_556 S
La40 O61 2.628 1_556 S
La40 O62 2.554 1_556 S
La40 O63 2.757 . S
La40 O64 2.470 1_556 S
La40 O69 2.482 1_556 S
La40 O71 2.503 . S
La41 C51 2.928 1_554 S
La41 O63 2.482 1_554 S
La41 O65 2.503 . S
La41 O66 2.521 1_554 S
La41 O67 2.628 1_554 S
La41 O68 2.554 1_554 S
La41 O69 2.757 . S
La41 O70 2.470 1_554 S
C42 La40 2.928 1_554 S
C42 C43 1.503 . S
C42 O60 1.261 . S
C42 O61 1.243 . S
C43 C42 1.503 . S
C43 C44 1.394 . S
C43 C48 1.373 . S
C44 C43 1.394 . S
C44 C45 1.380 . S
C44 H72 0.930 . S
C45 C44 1.380 . S
C45 C46 1.376 . S
C45 H73 0.930 . S
C46 C45 1.376 . S
C46 C47 1.370 . S
C47 C46 1.370 . S
C47 C48 1.396 . S
C47 H74 0.929 . S
C48 C43 1.373 . S
C48 C47 1.396 . S
C48 H75 0.929 . S
C49 O62 1.240 . S
C49 O63 1.289 1_554 S
C50 O64 1.258 . S
C50 O65 1.256 . S
C51 La41 2.928 1_556 S
C51 C52 1.503 . S
C51 O66 1.261 . S
C51 O67 1.243 . S
C52 C51 1.503 . S
C52 C53 1.394 . S
C52 C57 1.373 . S
C53 C52 1.394 . S
C53 C54 1.380 . S
C53 H76 0.930 . S
C54 C53 1.380 . S
C54 C55 1.376 . S
C54 H77 0.930 . S
C55 C54 1.376 . S
C55 C56 1.370 . S
C56 C55 1.370 . S
C56 C57 1.396 . S
C56 H78 0.929 . S
C57 C52 1.373 . S
C57 C56 1.396 . S
C57 H79 0.929 . S
C58 O68 1.240 . S
C58 O69 1.289 1_556 S
C59 O70 1.258 . S
C59 O71 1.256 . S
O60 La40 2.521 1_554 S
O60 C42 1.261 . S
O61 La40 2.628 1_554 S
O61 C42 1.243 . S
O62 La40 2.554 1_554 S
O62 C49 1.240 . S
O63 La40 2.757 . S
O63 La41 2.482 1_556 S
O63 C49 1.289 1_556 S
O64 La40 2.470 1_554 S
O64 C50 1.258 . S
O65 La41 2.503 . S
O65 C50 1.256 . S
O66 La41 2.521 1_556 S
O66 C51 1.261 . S
O67 La41 2.628 1_556 S
O67 C51 1.243 . S
O68 La41 2.554 1_556 S
O68 C58 1.240 . S
O69 La40 2.482 1_554 S
O69 La41 2.757 . S
O69 C58 1.289 1_554 S
O70 La41 2.470 1_556 S
O70 C59 1.258 . S
O71 La40 2.503 . S
O71 C59 1.256 . S
H72 C44 0.930 . S
H73 C45 0.930 . S
H74 C47 0.929 . S
H75 C48 0.929 . S
H76 C53 0.930 . S
H77 C54 0.930 . S
H78 C56 0.929 . S
H79 C57 0.929 . S
La80 C82 2.928 . S
La80 O100 2.521 . S
La80 O101 2.628 . S
La80 O102 2.554 . S
La80 O103 2.757 . S
La80 O104 2.470 . S
La80 O109 2.482 . S
La80 O111 2.503 . S
La81 C91 2.928 . S
La81 O103 2.482 . S
La81 O105 2.503 . S
La81 O106 2.521 . S
La81 O107 2.628 . S
La81 O108 2.554 . S
La81 O109 2.757 . S
La81 O110 2.470 . S
C82 La80 2.928 . S
C82 C83 1.503 . S
C82 O100 1.261 . S
C82 O101 1.243 . S
C83 C82 1.503 . S
C83 C84 1.394 . S
C83 C88 1.373 . S
C84 C83 1.394 . S
C84 C85 1.380 . S
C84 H112 0.930 . S
C85 C84 1.380 . S
C85 C86 1.376 . S
C85 H113 0.930 . S
C86 C85 1.376 . S
C86 C87 1.370 . S
C87 C86 1.370 . S
C87 C88 1.396 . S
C87 H114 0.929 . S
C88 C83 1.373 . S
C88 C87 1.396 . S
C88 H115 0.929 . S
C89 O102 1.240 . S
C89 O103 1.289 . S
C90 O104 1.258 . S
C90 O105 1.256 . S
C91 La81 2.928 . S
C91 C92 1.503 . S
C91 O106 1.261 . S
C91 O107 1.243 . S
C92 C91 1.503 . S
C92 C93 1.394 . S
C92 C97 1.373 . S
C93 C92 1.394 . S
C93 C94 1.380 . S
C93 H116 0.930 . S
C94 C93 1.380 . S
C94 C95 1.376 . S
C94 H117 0.930 . S
C95 C94 1.376 . S
C95 C96 1.370 . S
C96 C95 1.370 . S
C96 C97 1.396 . S
C96 H118 0.929 . S
C97 C92 1.373 . S
C97 C96 1.396 . S
C97 H119 0.929 . S
C98 O108 1.240 . S
C98 O109 1.289 . S
C99 O110 1.258 . S
C99 O111 1.256 . S
O100 La80 2.521 . S
O100 C82 1.261 . S
O101 La80 2.628 . S
O101 C82 1.243 . S
O102 La80 2.554 . S
O102 C89 1.240 . S
O103 La80 2.757 . S
O103 La81 2.482 . S
O103 C89 1.289 . S
O104 La80 2.470 . S
O104 C90 1.258 . S
O105 La81 2.503 . S
O105 C90 1.256 . S
O106 La81 2.521 . S
O106 C91 1.261 . S
O107 La81 2.628 . S
O107 C91 1.243 . S
O108 La81 2.554 . S
O108 C98 1.240 . S
O109 La80 2.482 . S
O109 La81 2.757 . S
O109 C98 1.289 . S
O110 La81 2.470 . S
O110 C99 1.258 . S
O111 La80 2.503 . S
O111 C99 1.256 . S
H112 C84 0.930 . S
H113 C85 0.930 . S
H114 C87 0.929 . S
H115 C88 0.929 . S
H116 C93 0.930 . S
H117 C94 0.930 . S
H118 C96 0.929 . S
H119 C97 0.929 . S
La120 C122 2.928 . S
La120 O140 2.521 . S
La120 O141 2.628 . S
La120 O142 2.554 . S
La120 O143 2.757 . S
La120 O144 2.470 . S
La120 O149 2.482 . S
La120 O151 2.503 . S
La121 C131 2.928 . S
La121 O143 2.482 . S
La121 O145 2.503 . S
La121 O146 2.521 . S
La121 O147 2.628 . S
La121 O148 2.554 . S
La121 O149 2.757 . S
La121 O150 2.470 . S
C122 La120 2.928 . S
C122 C123 1.503 . S
C122 O140 1.261 . S
C122 O141 1.243 . S
C123 C122 1.503 . S
C123 C124 1.394 . S
C123 C128 1.373 . S
C124 C123 1.394 . S
C124 C125 1.380 . S
C124 H152 0.930 . S
C125 C124 1.380 . S
C125 C126 1.376 . S
C125 H153 0.930 . S
C126 C125 1.376 . S
C126 C127 1.370 . S
C127 C126 1.370 . S
C127 C128 1.396 . S
C127 H154 0.929 . S
C128 C123 1.373 . S
C128 C127 1.396 . S
C128 H155 0.929 . S
C129 O142 1.240 . S
C129 O143 1.289 . S
C130 O144 1.258 . S
C130 O145 1.256 . S
C131 La121 2.928 . S
C131 C132 1.503 . S
C131 O146 1.261 . S
C131 O147 1.243 . S
C132 C131 1.503 . S
C132 C133 1.394 . S
C132 C137 1.373 . S
C133 C132 1.394 . S
C133 C134 1.380 . S
C133 H156 0.930 . S
C134 C133 1.380 . S
C134 C135 1.376 . S
C134 H157 0.930 . S
C135 C134 1.376 . S
C135 C136 1.370 . S
C136 C135 1.370 . S
C136 C137 1.396 . S
C136 H158 0.929 . S
C137 C132 1.373 . S
C137 C136 1.396 . S
C137 H159 0.929 . S
C138 O148 1.240 . S
C138 O149 1.289 . S
C139 O150 1.258 . S
C139 O151 1.256 . S
O140 La120 2.521 . S
O140 C122 1.261 . S
O141 La120 2.628 . S
O141 C122 1.243 . S
O142 La120 2.554 . S
O142 C129 1.240 . S
O143 La120 2.757 . S
O143 La121 2.482 . S
O143 C129 1.289 . S
O144 La120 2.470 . S
O144 C130 1.258 . S
O145 La121 2.503 . S
O145 C130 1.256 . S
O146 La121 2.521 . S
O146 C131 1.261 . S
O147 La121 2.628 . S
O147 C131 1.243 . S
O148 La121 2.554 . S
O148 C138 1.240 . S
O149 La120 2.482 . S
O149 La121 2.757 . S
O149 C138 1.289 . S
O150 La121 2.470 . S
O150 C139 1.258 . S
O151 La120 2.503 . S
O151 C139 1.256 . S
H152 C124 0.930 . S
H153 C125 0.930 . S
H154 C127 0.929 . S
H155 C128 0.929 . S
H156 C133 0.930 . S
H157 C134 0.930 . S
H158 C136 0.929 . S
H159 C137 0.929 . S
C160 C161 1.170 . S
C160 C162 1.380 1_556 S
C161 C160 1.170 . S
C162 C160 1.380 1_554 S
C162 C163 1.170 . S
C163 C162 1.170 . S
C164 C165 1.170 . S
C164 C166 1.380 . S
C165 C164 1.170 . S
C166 C164 1.380 . S
C166 C167 1.170 . S
C167 C166 1.170 . S
C168 C169 1.170 . S
C168 C170 1.369 1_446 S
C169 C168 1.170 . S
C170 C168 1.369 1_664 S
C170 C171 1.182 . S
C171 C170 1.182 . S
C172 C173 1.170 . S
C172 C174 1.380 1_645 S
C173 C172 1.170 . S
C174 C172 1.380 1_465 S
C174 C175 1.170 . S
C175 C174 1.170 . S
C176 C177 1.170 . S
C176 C178 1.380 . S
C177 C176 1.170 . S
C178 C176 1.380 . S
C178 C179 1.170 . S
C179 C178 1.170 . S
C180 C181 1.170 . S
C180 C182 1.380 . S
C181 C180 1.170 . S
C182 C180 1.380 . S
C182 C183 1.170 . S
C183 C182 1.170 . S
C184 C185 1.170 . S
C184 C186 1.380 . S
C185 C184 1.170 . S
C186 C184 1.380 . S
C186 C187 1.170 . S
C187 C186 1.170 . S
C188 C189 1.170 . S
C188 C190 1.380 . S
C189 C188 1.170 . S
C190 C188 1.380 . S
C190 C191 1.170 . S
C191 C190 1.170 . S
C192 C193 1.170 . S
C192 C194 1.380 1_655 S
C193 C192 1.170 . S
C194 C192 1.380 1_455 S
C194 C195 1.170 . S
C195 C194 1.170 . S
C196 C197 1.170 . S
C196 C198 1.380 . S
C197 C196 1.170 . S
C198 C196 1.380 . S
C198 C199 1.170 . S
C199 C198 1.170 . S
C200 C201 1.170 . S
C200 C202 1.380 1_655 S
C201 C200 1.170 . S
C202 C200 1.380 1_455 S
C202 C203 1.170 . S
C203 C202 1.170 . S
C204 C205 1.170 . S
C204 C206 1.380 . S
C205 C204 1.170 . S
C206 C204 1.380 . S
C206 C207 1.170 . S
C207 C206 1.170 . S
C161 C58 1.681 . S
C163 C9 1.686 . S
C165 C98 1.684 . S
C167 C129 1.692 . S
C169 C18 1.686 . S
C171 C49 1.680 . S
C173 C138 1.688 . S
C175 C89 1.679 . S
C177 C130 1.823 . S
C179 C10 1.818 . S
C181 C46 1.138 . S
C183 C86 1.149 . S
C185 C59 1.824 . S
C187 C99 1.821 . S
C189 C135 1.116 . S
C191 C15 1.143 . S
C193 C50 1.823 . S
C195 C90 1.822 . S
C197 C126 1.124 1_455 S
C199 C6 1.112 . S
C201 C139 1.812 . S
C203 C19 1.821 . S
C205 C95 1.151 1_655 S
C207 C55 1.130 . S
