# Generated by pormake.
# Topology fnu, (5)-cn, num edge types: 1
# Building blocks:
#     Node 0, Type 0, BuildingBlock: BEQFEK_clean_sbu_0, # of connection points: 5
#     Node 1, Type 0, BuildingBlock: BEQFEK_clean_sbu_0, # of connection points: 5
#     Node 2, Type 0, BuildingBlock: BEQFEK_clean_sbu_0, # of connection points: 5
#     Node 3, Type 0, BuildingBlock: BEQFEK_clean_sbu_0, # of connection points: 5
#     Node 4, Type 0, BuildingBlock: BEQFEK_clean_sbu_0, # of connection points: 5
#     Node 5, Type 0, BuildingBlock: BEQFEK_clean_sbu_0, # of connection points: 5
#     Edge 6, Type (0, 0), None
#     Edge 7, Type (0, 0), None
#     Edge 8, Type (0, 0), None
#     Edge 9, Type (0, 0), None
#     Edge 10, Type (0, 0), None
#     Edge 11, Type (0, 0), None
#     Edge 12, Type (0, 0), None
#     Edge 13, Type (0, 0), None
#     Edge 14, Type (0, 0), None
#     Edge 15, Type (0, 0), None
#     Edge 16, Type (0, 0), None
#     Edge 17, Type (0, 0), None
#     Edge 18, Type (0, 0), None
#     Edge 19, Type (0, 0), None
#     Edge 20, Type (0, 0), None
# Relax obj value: 0.179
# Max RMSD: 0.177
# Mean RMSD: 0.177
data_MOF--net-fnu--node1-BEQFEK_clean_sbu_0--edge1-none
_symmetry_space_group_name_H-M    P1
_symmetry_Int_Tables_number       1
_symmetry_cell_setting            triclinic
loop_
_symmetry_equiv_pos_as_xyz
'x, y, z'
_cell_length_a     11.932714
_cell_length_b     14.391931
_cell_length_c     20.006199
_cell_angle_alpha  90.002297
_cell_angle_beta   97.895497
_cell_angle_gamma 127.09682
loop_
_atom_site_label
_atom_site_type_symbol
_atom_site_fract_x
_atom_site_fract_y
_atom_site_fract_z
_atom_type_partial_charge
Co0 Co 0.97845 0.96549 0.13873 0.0
Co1 Co 0.04546 0.01117 0.29882 0.0
C2 C 0.92159 0.77859 0.22811 0.0
O3 O 0.93239 0.8271 0.17517 0.0
O4 O 0.95898 0.83668 0.2855 0.0
C5 C 0.94787 0.84672 1.02852 0.0
O6 O 0.89366 0.77088 0.97475 0.0
C7 C 0.98353 0.99921 0.44273 0.0
C8 C 0.19474 0.13565 0.50138 0.0
C9 C 0.05406 0.05107 0.5086 0.0
N10 N 0.07557 0.05115 0.39839 0.0
N11 N 0.20244 0.13239 0.43465 0.0
C12 C 0.83485 0.89253 0.42395 0.0
H13 H 0.81969 0.85462 0.37234 0.0
H14 H 0.76324 0.91708 0.42612 0.0
H15 H 0.81028 0.8272 0.46059 0.0
C16 C 0.84763 0.07827 0.14625 0.0
N17 N 0.89807 0.0234 0.17615 0.0
N18 N 0.92901 0.04868 0.24259 0.0
C19 C 0.89892 0.12223 0.2567 0.0
C20 C 0.84238 0.141 0.196 0.0
C21 C 0.83034 0.08837 0.07162 0.0
H22 H 0.86247 0.0437 0.04393 0.0
H23 H 0.71744 0.04973 0.05163 0.0
H24 H 0.89658 0.18215 0.06244 0.0
O25 O 0.18917 0.09225 0.15553 0.0
O26 O 0.2409 0.10895 0.26823 0.0
H27 H 0.96904 0.27419 0.32223 0.0
H28 H 0.87173 0.13384 0.35807 0.0
C29 C 0.95053 0.18927 0.32493 0.0
H30 H 0.05294 0.20784 0.3479 0.0
H31 H 0.29544 0.18272 0.41397 0.0
O32 O 0.87853 0.87877 0.04844 0.0
C33 C 0.28004 0.13572 0.21009 0.0
Co34 Co 0.06858 0.01057 0.9432 0.0
Co35 Co 1.00206 0.9894 0.78311 0.0
C36 C 0.1254 0.88041 0.85387 0.0
O37 O 0.11479 0.91832 0.9068 0.0
O38 O 0.08796 0.90101 0.79647 0.0
C39 C 0.09938 0.92251 0.05336 0.0
O40 O 0.15351 0.90091 0.10718 0.0
C41 C 0.06396 0.03702 0.639 0.0
C42 C 0.855 0.97021 0.58096 0.0
C43 C 0.99439 0.02157 0.57339 0.0
N44 N 0.97283 0.99988 0.68359 0.0
N45 N 0.84722 0.95882 0.64766 0.0
C46 C 0.21034 0.07349 0.65706 0.0
H47 H 0.22787 0.05687 0.71009 0.0
H48 H 0.28555 0.16777 0.65016 0.0
H49 H 0.22709 0.02414 0.62244 0.0
C50 C 0.19857 0.25404 0.93578 0.0
N51 N 0.1488 0.14891 0.90589 0.0
N52 N 0.11848 0.14337 0.83943 0.0
C53 C 0.14863 0.24702 0.82528 0.0
C54 C 0.20451 0.32219 0.886 0.0
C55 C 0.21365 0.28081 1.01029 0.0
H56 H 0.18275 0.20431 1.03803 0.0
H57 H 0.32565 0.35629 1.03076 0.0
H58 H 0.14514 0.30636 1.01878 0.0
O59 O 0.8579 0.92645 0.92628 0.0
O60 O 0.80636 0.89178 0.81355 0.0
H61 H 0.0789 0.32896 0.7596 0.0
H62 H 0.17599 0.28556 0.72388 0.0
C63 C 0.09724 0.26245 0.757 0.0
H64 H 0.99471 0.17867 0.73409 0.0
H65 H 0.7549 0.91914 0.6686 0.0
O66 O 0.1686 0.02393 1.03347 0.0
C67 C 0.76712 0.87925 0.87168 0.0
Co68 Co 0.64514 0.29886 0.47207 0.0
Co69 Co 0.71217 0.34455 0.63215 0.0
C70 C 0.58825 0.11196 0.56145 0.0
O71 O 0.59906 0.16047 0.50851 0.0
O72 O 0.62567 0.17005 0.61884 0.0
C73 C 0.61453 0.18007 0.36187 0.0
O74 O 0.56031 0.10421 0.3081 0.0
C75 C 0.65026 0.33268 0.77606 0.0
C76 C 0.86155 0.4689 0.83473 0.0
C77 C 0.72084 0.38445 0.84194 0.0
N78 N 0.74232 0.38455 0.73172 0.0
N79 N 0.86924 0.46565 0.768 0.0
C80 C 0.5015 0.22613 0.75726 0.0
H81 H 0.48634 0.18817 0.70566 0.0
H82 H 0.43004 0.25086 0.75936 0.0
H83 H 0.47672 0.16079 0.79391 0.0
C84 C 0.51435 0.41166 0.47959 0.0
N85 N 0.56477 0.35679 0.50948 0.0
N86 N 0.59573 0.38208 0.57592 0.0
C87 C 0.56564 0.45562 0.59004 0.0
C88 C 0.5091 0.4744 0.52934 0.0
C89 C 0.49706 0.42177 0.40495 0.0
H90 H 0.52917 0.37708 0.37727 0.0
H91 H 0.38417 0.38314 0.38497 0.0
H92 H 0.56331 0.51554 0.39578 0.0
O93 O 0.85586 0.42561 0.48886 0.0
O94 O 0.90759 0.44231 0.60156 0.0
H95 H 0.63576 0.60759 0.65557 0.0
H96 H 0.53844 0.46723 0.6914 0.0
C97 C 0.61725 0.52267 0.65826 0.0
H98 H 0.71965 0.54123 0.68123 0.0
H99 H 0.96225 0.51589 0.74732 0.0
O100 O 0.54521 0.21214 0.38178 0.0
C101 C 0.94673 0.46908 0.54342 0.0
Co102 Co 0.73528 0.34391 0.27654 0.0
Co103 Co 0.66878 0.32273 0.11645 0.0
C104 C 0.79207 0.21372 0.18721 0.0
O105 O 0.78147 0.25162 0.24014 0.0
O106 O 0.75465 0.23433 0.12982 0.0
C107 C 0.76604 0.25583 0.3867 0.0
O108 O 0.82016 0.23423 0.44052 0.0
C109 C 0.73069 0.37028 0.97232 0.0
C110 C 0.52184 0.30383 0.91431 0.0
C111 C 0.66117 0.35498 0.90673 0.0
N112 N 0.63961 0.33327 1.01693 0.0
N113 N 0.51406 0.29241 0.98102 0.0
C114 C 0.87697 0.4065 0.99035 0.0
H115 H 0.89452 0.38993 0.04339 0.0
H116 H 0.95233 0.50074 0.98339 0.0
H117 H 0.89346 0.35695 0.95574 0.0
C118 C 0.86528 0.58737 0.26912 0.0
N119 N 0.81552 0.48224 0.23923 0.0
N120 N 0.7852 0.4767 0.17276 0.0
C121 C 0.81533 0.58035 0.15862 0.0
C122 C 0.87119 0.65551 0.21934 0.0
C123 C 0.88038 0.61415 0.34363 0.0
H124 H 0.84945 0.53763 0.37137 0.0
H125 H 0.9924 0.68961 0.36409 0.0
H126 H 0.81192 0.63973 0.35213 0.0
O127 O 0.5246 0.25979 0.25961 0.0
O128 O 0.47307 0.22512 0.14688 0.0
H129 H 0.7456 0.66229 0.09294 0.0
H130 H 0.84263 0.61885 0.0572 0.0
C131 C 0.76392 0.59577 0.09035 0.0
H132 H 0.66136 0.51199 0.06745 0.0
H133 H 0.42177 0.25286 1.00197 0.0
O134 O 0.83528 0.35725 0.36681 0.0
C135 C 0.43383 0.2126 0.20501 0.0
Co136 Co 0.31175 0.63216 0.80539 0.0
Co137 Co 0.37876 0.67785 0.96548 0.0
C138 C 0.25488 0.44526 0.89478 0.0
O139 O 0.26568 0.49378 0.84183 0.0
O140 O 0.29227 0.50335 0.95216 0.0
C141 C 0.2812 0.5134 0.69519 0.0
O142 O 0.227 0.43756 0.64141 0.0
C143 C 0.31685 0.66596 0.1094 0.0
C144 C 0.52811 0.80229 0.16804 0.0
C145 C 0.38742 0.71779 0.17527 0.0
N146 N 0.40889 0.71785 0.06505 0.0
N147 N 0.53579 0.79902 0.10131 0.0
C148 C 0.16813 0.55934 0.09061 0.0
H149 H 0.15302 0.5213 1.03905 0.0
H150 H 0.09659 0.584 0.09264 0.0
H151 H 0.14338 0.49407 0.12731 0.0
C152 C 0.18094 0.74495 0.81291 0.0
N153 N 0.23137 0.69008 0.84281 0.0
N154 N 0.26233 0.71538 0.90925 0.0
C155 C 0.23228 0.78894 0.92336 0.0
C156 C 0.17575 0.80772 0.86266 0.0
C157 C 0.1636 0.75502 0.73827 0.0
H158 H 0.19574 0.71035 0.71059 0.0
H159 H 0.05069 0.71634 0.7183 0.0
H160 H 0.22981 0.84879 0.72908 0.0
O161 O 0.52247 0.75892 0.8222 0.0
O162 O 0.5742 0.77561 0.9349 0.0
H163 H 0.30241 0.94092 0.98888 0.0
H164 H 0.20516 0.80058 1.02474 0.0
C165 C 0.28393 0.85601 0.99158 0.0
H166 H 0.38635 0.87459 1.01453 0.0
H167 H 0.62879 0.84929 0.08063 0.0
O168 O 0.21186 0.54545 0.7151 0.0
C169 C 0.61334 0.80239 0.87676 0.0
Co170 Co 0.40197 0.67727 0.60988 0.0
Co171 Co 0.33546 0.6561 0.44978 0.0
C172 C 0.45878 0.54711 0.52054 0.0
O173 O 0.44817 0.58501 0.57348 0.0
O174 O 0.42136 0.56771 0.46315 0.0
C175 C 0.43271 0.58918 0.72003 0.0
O176 O 0.48683 0.56758 0.77385 0.0
C177 C 0.39734 0.70371 0.30566 0.0
C178 C 0.18841 0.63703 0.24764 0.0
C179 C 0.32777 0.68831 0.24006 0.0
N180 N 0.30624 0.66662 0.35026 0.0
N181 N 0.18065 0.62563 0.31435 0.0
C182 C 0.54369 0.74009 0.3237 0.0
H183 H 0.56118 0.72336 0.37671 0.0
H184 H 0.61896 0.83439 0.31686 0.0
H185 H 0.56039 0.69076 0.28903 0.0
C186 C 0.53197 0.92074 0.60246 0.0
N187 N 0.4822 0.81561 0.57257 0.0
N188 N 0.45187 0.81007 0.5061 0.0
C189 C 0.48198 0.91371 0.49196 0.0
C190 C 0.53785 0.98888 0.55268 0.0
C191 C 0.54712 0.94753 0.67697 0.0
H192 H 0.51617 0.87101 0.70471 0.0
H193 H 0.65915 0.02297 0.69742 0.0
H194 H 0.47869 0.97314 0.68549 0.0
O195 O 0.19129 0.59316 0.59294 0.0
O196 O 0.13976 0.55848 0.48021 0.0
H197 H 0.41223 0.99565 0.42629 0.0
H198 H 0.50924 0.95219 0.39054 0.0
C199 C 0.43054 0.92912 0.42369 0.0
H200 H 0.32798 0.84534 0.4008 0.0
H201 H 0.08835 0.586 0.3353 0.0
O202 O 0.50195 0.69061 0.70015 0.0
C203 C 0.10052 0.54596 0.53834 0.0
loop_
_geom_bond_atom_site_label_1
_geom_bond_atom_site_label_2
_geom_bond_distance
_geom_bond_site_symmetry_2
_ccdc_geom_bond_type
Co0 O3 1.970 1_455 S
Co0 N17 1.989 1_465 S
Co0 O25 1.967 1_565 S
Co0 O32 1.920 1_565 S
Co1 O4 1.966 1_445 S
Co1 N10 2.022 . S
Co1 N18 1.993 1_455 S
Co1 O26 1.941 . S
C2 O3 1.258 . S
C2 O4 1.263 . S
O3 Co0 1.970 1_655 S
O3 C2 1.258 . S
O4 Co1 1.966 1_665 S
O4 C2 1.263 . S
C5 O6 1.235 1_556 S
C5 O32 1.289 1_666 S
O6 C5 1.235 1_554 S
C7 C9 1.400 1_565 S
C7 N10 1.351 1_665 S
C7 C12 1.501 . S
C8 C9 1.387 1_455 S
C8 N11 1.341 . S
C9 C7 1.400 1_545 S
C9 C8 1.387 1_655 S
N10 Co1 2.022 . S
N10 C7 1.351 1_445 S
N10 N11 1.365 . S
N11 C8 1.341 . S
N11 N10 1.365 . S
N11 H31 0.862 . S
C12 C7 1.501 . S
C12 H13 0.961 . S
C12 H14 0.961 . S
C12 H15 0.960 . S
H13 C12 0.961 . S
H14 C12 0.961 . S
H15 C12 0.960 . S
C16 N17 1.342 . S
C16 C20 1.401 . S
C16 C21 1.499 . S
N17 Co0 1.989 1_645 S
N17 C16 1.342 . S
N17 N18 1.388 . S
N18 Co1 1.993 1_655 S
N18 N17 1.388 . S
N18 C19 1.346 . S
C19 N18 1.346 . S
C19 C20 1.396 . S
C19 C29 1.510 . S
C20 C16 1.401 . S
C20 C19 1.396 . S
C21 C16 1.499 . S
C21 H22 0.959 . S
C21 H23 0.960 . S
C21 H24 0.961 . S
H22 C21 0.959 . S
H23 C21 0.960 . S
H24 C21 0.961 . S
O25 Co0 1.967 1_545 S
O25 C33 1.258 . S
O26 Co1 1.941 . S
O26 C33 1.266 . S
H27 C29 0.959 . S
H28 C29 0.961 . S
C29 C19 1.510 . S
C29 H27 0.959 . S
C29 H28 0.961 . S
C29 H30 0.960 . S
H30 C29 0.960 . S
H31 N11 0.862 . S
O32 Co0 1.920 1_545 S
O32 C5 1.289 1_444 S
C33 O25 1.258 . S
C33 O26 1.266 . S
Co34 O37 1.970 . S
Co34 N51 1.989 1_565 S
Co34 O59 1.967 1_455 S
Co34 O66 1.920 1_565 S
Co35 O38 1.966 1_655 S
Co35 N44 2.022 . S
Co35 N52 1.993 1_665 S
Co35 O60 1.941 . S
C36 O37 1.258 . S
C36 O38 1.263 . S
O37 Co34 1.970 . S
O37 C36 1.258 . S
O38 Co35 1.966 1_455 S
O38 C36 1.263 . S
C39 O40 1.235 1_554 S
C39 O66 1.289 1_554 S
O40 C39 1.235 1_556 S
C41 C43 1.400 1_565 S
C41 N44 1.351 1_455 S
C41 C46 1.501 . S
C42 C43 1.387 1_655 S
C42 N45 1.341 . S
C43 C41 1.400 1_545 S
C43 C42 1.387 1_455 S
N44 Co35 2.022 . S
N44 C41 1.351 1_655 S
N44 N45 1.365 1_565 S
N45 C42 1.341 . S
N45 N44 1.365 1_545 S
N45 H65 0.862 . S
C46 C41 1.501 . S
C46 H47 0.961 . S
C46 H48 0.961 1_565 S
C46 H49 0.960 . S
H47 C46 0.961 . S
H48 C46 0.961 1_545 S
H49 C46 0.960 . S
C50 N51 1.342 . S
C50 C54 1.401 . S
C50 C55 1.499 . S
N51 Co34 1.989 1_545 S
N51 C50 1.342 . S
N51 N52 1.388 . S
N52 Co35 1.993 1_445 S
N52 N51 1.388 . S
N52 C53 1.346 . S
C53 N52 1.346 . S
C53 C54 1.396 . S
C53 C63 1.510 . S
C54 C50 1.401 . S
C54 C53 1.396 . S
C55 C50 1.499 . S
C55 H56 0.959 . S
C55 H57 0.960 . S
C55 H58 0.961 . S
H56 C55 0.959 . S
H57 C55 0.960 . S
H58 C55 0.961 . S
O59 Co34 1.967 1_655 S
O59 C67 1.258 . S
O60 Co35 1.941 . S
O60 C67 1.266 . S
H61 C63 0.959 . S
H62 C63 0.961 . S
C63 C53 1.510 . S
C63 H61 0.959 . S
C63 H62 0.961 . S
C63 H64 0.960 . S
H64 C63 0.960 . S
H65 N45 0.862 . S
O66 Co34 1.920 1_545 S
O66 C39 1.289 1_556 S
C67 O59 1.258 . S
C67 O60 1.266 . S
Co68 O71 1.970 . S
Co68 N85 1.989 . S
Co68 O93 1.967 . S
Co68 O100 1.920 . S
Co69 O72 1.966 . S
Co69 N78 2.022 . S
Co69 N86 1.993 . S
Co69 O94 1.941 . S
C70 O71 1.258 . S
C70 O72 1.263 . S
O71 Co68 1.970 . S
O71 C70 1.258 . S
O72 Co69 1.966 . S
O72 C70 1.263 . S
C73 O74 1.235 . S
C73 O100 1.289 . S
O74 C73 1.235 . S
C75 C77 1.400 . S
C75 N78 1.351 . S
C75 C80 1.501 . S
C76 C77 1.387 . S
C76 N79 1.341 . S
C77 C75 1.400 . S
C77 C76 1.387 . S
N78 Co69 2.022 . S
N78 C75 1.351 . S
N78 N79 1.365 . S
N79 C76 1.341 . S
N79 N78 1.365 . S
N79 H99 0.862 . S
C80 C75 1.501 . S
C80 H81 0.961 . S
C80 H82 0.961 . S
C80 H83 0.960 . S
H81 C80 0.961 . S
H82 C80 0.961 . S
H83 C80 0.960 . S
C84 N85 1.342 . S
C84 C88 1.401 . S
C84 C89 1.499 . S
N85 Co68 1.989 . S
N85 C84 1.342 . S
N85 N86 1.388 . S
N86 Co69 1.993 . S
N86 N85 1.388 . S
N86 C87 1.346 . S
C87 N86 1.346 . S
C87 C88 1.396 . S
C87 C97 1.510 . S
C88 C84 1.401 . S
C88 C87 1.396 . S
C89 C84 1.499 . S
C89 H90 0.959 . S
C89 H91 0.960 . S
C89 H92 0.961 . S
H90 C89 0.959 . S
H91 C89 0.960 . S
H92 C89 0.961 . S
O93 Co68 1.967 . S
O93 C101 1.258 . S
O94 Co69 1.941 . S
O94 C101 1.266 . S
H95 C97 0.959 . S
H96 C97 0.961 . S
C97 C87 1.510 . S
C97 H95 0.959 . S
C97 H96 0.961 . S
C97 H98 0.960 . S
H98 C97 0.960 . S
H99 N79 0.862 . S
O100 Co68 1.920 . S
O100 C73 1.289 . S
C101 O93 1.258 . S
C101 O94 1.266 . S
Co102 O105 1.970 . S
Co102 N119 1.989 . S
Co102 O127 1.967 . S
Co102 O134 1.920 . S
Co103 O106 1.966 . S
Co103 N112 2.022 1_554 S
Co103 N120 1.993 . S
Co103 O128 1.941 . S
C104 O105 1.258 . S
C104 O106 1.263 . S
O105 Co102 1.970 . S
O105 C104 1.258 . S
O106 Co103 1.966 . S
O106 C104 1.263 . S
C107 O108 1.235 . S
C107 O134 1.289 . S
O108 C107 1.235 . S
C109 C111 1.400 . S
C109 N112 1.351 . S
C109 C114 1.501 . S
C110 C111 1.387 . S
C110 N113 1.341 . S
C111 C109 1.400 . S
C111 C110 1.387 . S
N112 Co103 2.022 1_556 S
N112 C109 1.351 . S
N112 N113 1.365 . S
N113 C110 1.341 . S
N113 N112 1.365 . S
N113 H133 0.862 . S
C114 C109 1.501 . S
C114 H115 0.961 . S
C114 H116 0.961 . S
C114 H117 0.960 . S
H115 C114 0.961 . S
H116 C114 0.961 . S
H117 C114 0.960 . S
C118 N119 1.342 . S
C118 C122 1.401 . S
C118 C123 1.499 . S
N119 Co102 1.989 . S
N119 C118 1.342 . S
N119 N120 1.388 . S
N120 Co103 1.993 . S
N120 N119 1.388 . S
N120 C121 1.346 . S
C121 N120 1.346 . S
C121 C122 1.396 . S
C121 C131 1.510 . S
C122 C118 1.401 . S
C122 C121 1.396 . S
C123 C118 1.499 . S
C123 H124 0.959 . S
C123 H125 0.960 . S
C123 H126 0.961 . S
H124 C123 0.959 . S
H125 C123 0.960 . S
H126 C123 0.961 . S
O127 Co102 1.967 . S
O127 C135 1.258 . S
O128 Co103 1.941 . S
O128 C135 1.266 . S
H129 C131 0.959 . S
H130 C131 0.961 . S
C131 C121 1.510 . S
C131 H129 0.959 . S
C131 H130 0.961 . S
C131 H132 0.960 1_554 S
H132 C131 0.960 1_556 S
H133 N113 0.862 . S
O134 Co102 1.920 . S
O134 C107 1.289 . S
C135 O127 1.258 . S
C135 O128 1.266 . S
Co136 O139 1.970 . S
Co136 N153 1.989 . S
Co136 O161 1.967 . S
Co136 O168 1.920 . S
Co137 O140 1.966 . S
Co137 N146 2.022 1_556 S
Co137 N154 1.993 . S
Co137 O162 1.941 . S
C138 O139 1.258 . S
C138 O140 1.263 . S
O139 Co136 1.970 . S
O139 C138 1.258 . S
O140 Co137 1.966 . S
O140 C138 1.263 . S
C141 O142 1.235 . S
C141 O168 1.289 . S
O142 C141 1.235 . S
C143 C145 1.400 . S
C143 N146 1.351 . S
C143 C148 1.501 . S
C144 C145 1.387 . S
C144 N147 1.341 . S
C145 C143 1.400 . S
C145 C144 1.387 . S
N146 Co137 2.022 1_554 S
N146 C143 1.351 . S
N146 N147 1.365 . S
N147 C144 1.341 . S
N147 N146 1.365 . S
N147 H167 0.862 . S
C148 C143 1.501 . S
C148 H149 0.961 . S
C148 H150 0.961 . S
C148 H151 0.960 . S
H149 C148 0.961 . S
H150 C148 0.961 . S
H151 C148 0.960 . S
C152 N153 1.342 . S
C152 C156 1.401 . S
C152 C157 1.499 . S
N153 Co136 1.989 . S
N153 C152 1.342 . S
N153 N154 1.388 . S
N154 Co137 1.993 . S
N154 N153 1.388 . S
N154 C155 1.346 . S
C155 N154 1.346 . S
C155 C156 1.396 . S
C155 C165 1.510 . S
C156 C152 1.401 . S
C156 C155 1.396 . S
C157 C152 1.499 . S
C157 H158 0.959 . S
C157 H159 0.960 . S
C157 H160 0.961 . S
H158 C157 0.959 . S
H159 C157 0.960 . S
H160 C157 0.961 . S
O161 Co136 1.967 . S
O161 C169 1.258 . S
O162 Co137 1.941 . S
O162 C169 1.266 . S
H163 C165 0.959 . S
H164 C165 0.961 . S
C165 C155 1.510 . S
C165 H163 0.959 . S
C165 H164 0.961 . S
C165 H166 0.960 1_556 S
H166 C165 0.960 1_554 S
H167 N147 0.862 . S
O168 Co136 1.920 . S
O168 C141 1.289 . S
C169 O161 1.258 . S
C169 O162 1.266 . S
Co170 O173 1.970 . S
Co170 N187 1.989 . S
Co170 O195 1.967 . S
Co170 O202 1.920 . S
Co171 O174 1.966 . S
Co171 N180 2.022 . S
Co171 N188 1.993 . S
Co171 O196 1.941 . S
C172 O173 1.258 . S
C172 O174 1.263 . S
O173 Co170 1.970 . S
O173 C172 1.258 . S
O174 Co171 1.966 . S
O174 C172 1.263 . S
C175 O176 1.235 . S
C175 O202 1.289 . S
O176 C175 1.235 . S
C177 C179 1.400 . S
C177 N180 1.351 . S
C177 C182 1.501 . S
C178 C179 1.387 . S
C178 N181 1.341 . S
C179 C177 1.400 . S
C179 C178 1.387 . S
N180 Co171 2.022 . S
N180 C177 1.351 . S
N180 N181 1.365 . S
N181 C178 1.341 . S
N181 N180 1.365 . S
N181 H201 0.862 . S
C182 C177 1.501 . S
C182 H183 0.961 . S
C182 H184 0.961 . S
C182 H185 0.960 . S
H183 C182 0.961 . S
H184 C182 0.961 . S
H185 C182 0.960 . S
C186 N187 1.342 . S
C186 C190 1.401 . S
C186 C191 1.499 . S
N187 Co170 1.989 . S
N187 C186 1.342 . S
N187 N188 1.388 . S
N188 Co171 1.993 . S
N188 N187 1.388 . S
N188 C189 1.346 . S
C189 N188 1.346 . S
C189 C190 1.396 . S
C189 C199 1.510 . S
C190 C186 1.401 . S
C190 C189 1.396 . S
C191 C186 1.499 . S
C191 H192 0.959 . S
C191 H193 0.960 1_565 S
C191 H194 0.961 . S
H192 C191 0.959 . S
H193 C191 0.960 1_545 S
H194 C191 0.961 . S
O195 Co170 1.967 . S
O195 C203 1.258 . S
O196 Co171 1.941 . S
O196 C203 1.266 . S
H197 C199 0.959 . S
H198 C199 0.961 . S
C199 C189 1.510 . S
C199 H197 0.959 . S
C199 H198 0.961 . S
C199 H200 0.960 . S
H200 C199 0.960 . S
H201 N181 0.862 . S
O202 Co170 1.920 . S
O202 C175 1.289 . S
C203 O195 1.258 . S
C203 O196 1.266 . S
C33 C135 1.780 . S
C20 C104 2.100 . S
C122 C2 2.099 . S
C54 C138 2.099 . S
C169 C67 1.781 . S
C36 C156 2.099 . S
C101 C203 1.781 1_655 S
C88 C172 2.099 . S
C190 C70 2.099 1_565 S
C43 C9 1.785 1_455 S
C111 C77 1.785 . S
C179 C145 1.785 . S
C5 C39 2.202 1_666 S
C107 C73 2.203 . S
C175 C141 2.204 . S
