# Generated by pormake.
# Topology wht, (6)-cn, num edge types: 1
# Building blocks:
#     Node 0, Type 0, BuildingBlock: VOLQOD_clean_sbu_1, # of connection points: 6
#     Node 1, Type 0, BuildingBlock: VOLQOD_clean_sbu_1, # of connection points: 6
#     Node 2, Type 0, BuildingBlock: VOLQOD_clean_sbu_1, # of connection points: 6
#     Node 3, Type 0, BuildingBlock: VOLQOD_clean_sbu_1, # of connection points: 6
#     Node 4, Type 0, BuildingBlock: VOLQOD_clean_sbu_1, # of connection points: 6
#     Node 5, Type 0, BuildingBlock: VOLQOD_clean_sbu_1, # of connection points: 6
#     Node 6, Type 0, BuildingBlock: VOLQOD_clean_sbu_1, # of connection points: 6
#     Node 7, Type 0, BuildingBlock: VOLQOD_clean_sbu_1, # of connection points: 6
#     Edge 8, Type (0, 0), None
#     Edge 9, Type (0, 0), None
#     Edge 10, Type (0, 0), None
#     Edge 11, Type (0, 0), None
#     Edge 12, Type (0, 0), None
#     Edge 13, Type (0, 0), None
#     Edge 14, Type (0, 0), None
#     Edge 15, Type (0, 0), None
#     Edge 16, Type (0, 0), None
#     Edge 17, Type (0, 0), None
#     Edge 18, Type (0, 0), None
#     Edge 19, Type (0, 0), None
#     Edge 20, Type (0, 0), None
#     Edge 21, Type (0, 0), None
#     Edge 22, Type (0, 0), None
#     Edge 23, Type (0, 0), None
#     Edge 24, Type (0, 0), None
#     Edge 25, Type (0, 0), None
#     Edge 26, Type (0, 0), None
#     Edge 27, Type (0, 0), None
#     Edge 28, Type (0, 0), None
#     Edge 29, Type (0, 0), None
#     Edge 30, Type (0, 0), None
#     Edge 31, Type (0, 0), None
# Relax obj value: 0.367
# Max RMSD: 0.254
# Mean RMSD: 0.253
data_MOF--net-wht--node1-VOLQOD_clean_sbu_1--edge1-none
_symmetry_space_group_name_H-M    P1
_symmetry_Int_Tables_number       1
_symmetry_cell_setting            triclinic
loop_
_symmetry_equiv_pos_as_xyz
'x, y, z'
_cell_length_a     14.316076
_cell_length_b     14.153076
_cell_length_c     24.256116
_cell_angle_alpha  90.374254
_cell_angle_beta   90.001064
_cell_angle_gamma 89.998833
loop_
_atom_site_label
_atom_site_type_symbol
_atom_site_fract_x
_atom_site_fract_y
_atom_site_fract_z
_atom_type_partial_charge
O0 O 0.16609 0.27801 0.25613 0.0
Zn1 Zn 0.18739 0.24209 0.17647 0.0
O2 O 0.06433 0.23902 0.15226 0.0
Zn3 Zn 0.01973 0.12011 0.12687 0.0
Zn4 Zn 0.97023 0.30418 0.18974 0.0
Zn5 Zn 0.0789 0.29852 0.0878 0.0
O6 O 0.01121 0.11383 0.04454 0.0
O7 O 0.13705 0.20624 0.04297 0.0
O8 O 0.24088 0.10071 0.16356 0.0
O9 O 0.11388 0.02137 0.13694 0.0
O10 O 0.9161 0.08182 0.17554 0.0
O11 O 0.90977 0.20477 0.23345 0.0
O12 O 0.87959 0.36086 0.12758 0.0
O13 O 0.25358 0.36431 0.14123 0.0
O14 O 0.96313 0.31352 0.05525 0.0
O15 O 0.14003 0.42381 0.09039 0.0
C16 C 0.10991 0.33773 0.2785 0.0
C17 C 0.08757 0.1403 0.02234 0.0
C18 C 0.89509 0.11857 0.22211 0.0
C19 C 0.19977 0.02287 0.14884 0.0
C20 C 0.88882 0.34533 0.07532 0.0
C21 C 0.21901 0.43301 0.11282 0.0
O22 O 0.03968 0.37272 0.2523 0.0
O23 O 0.26473 0.58587 0.28781 0.0
Zn24 Zn 0.23305 0.66665 0.35195 0.0
O25 O 0.23753 0.57382 0.40508 0.0
Zn26 Zn 0.11815 0.52774 0.42131 0.0
Zn27 Zn 0.3136 0.4738 0.37636 0.0
Zn28 Zn 0.30275 0.61429 0.46728 0.0
O29 O 0.12563 0.51257 0.50519 0.0
O30 O 0.2058 0.64536 0.52235 0.0
O31 O 0.09185 0.71729 0.34569 0.0
O32 O 0.0173 0.6226 0.40416 0.0
O33 O 0.08946 0.4231 0.36374 0.0
O34 O 0.23215 0.39544 0.33102 0.0
O35 O 0.36075 0.39528 0.44052 0.0
O36 O 0.35566 0.74881 0.36335 0.0
O37 O 0.35124 0.5068 0.50475 0.0
O38 O 0.41286 0.69579 0.44307 0.0
C39 C 0.35202 0.5726 0.28127 0.0
C40 C 0.14963 0.58013 0.53805 0.0
C41 C 0.14447 0.38428 0.3287 0.0
C42 C 0.01575 0.68975 0.36953 0.0
C43 C 0.36516 0.42218 0.49078 0.0
C44 C 0.42313 0.74234 0.39852 0.0
O45 O 0.39988 0.5343 0.31968 0.0
O46 O 0.81408 0.7056 0.76054 0.0
Zn47 Zn 0.78691 0.73641 0.67909 0.0
O48 O 0.90635 0.73841 0.64765 0.0
Zn49 Zn 0.95403 0.85986 0.62962 0.0
Zn50 Zn -0.00482 0.66436 0.6851 0.0
Zn51 Zn 0.89223 0.68021 0.58064 0.0
O52 O 0.96599 0.87514 0.54556 0.0
O53 O 0.84642 0.77651 0.53244 0.0
O54 O 0.73067 0.87608 0.66477 0.0
O55 O 0.85767 0.957 0.64036 0.0
O56 O 0.05128 0.88915 0.68819 0.0
O57 O 0.06836 0.75001 0.73014 0.0
O58 O 0.08169 0.59689 0.62826 0.0
O59 O 0.72127 0.6118 0.64638 0.0
O60 O 0.01012 0.64943 0.55292 0.0
O61 O 0.82179 0.56008 0.5834 0.0
C62 C 0.86782 0.63984 0.77835 0.0
C63 C 0.89417 0.8481 0.51801 0.0
C64 C 0.08176 0.83797 0.72769 0.0
C65 C 0.77116 0.95432 0.6507 0.0
C66 C 0.07792 0.60951 0.576 0.0
C67 C 0.75039 0.54661 0.61291 0.0
O68 O 0.92673 0.59912 0.74611 0.0
O69 O 0.76605 0.31411 0.01433 0.0
Zn70 Zn 0.73039 0.28653 0.93279 0.0
O71 O 0.72245 0.41156 0.90905 0.0
Zn72 Zn 0.60154 0.4529 0.88986 0.0
Zn73 Zn 0.79597 0.50779 0.93819 0.0
Zn74 Zn 0.77876 0.39936 0.8433 0.0
O75 O 0.59215 0.45284 0.80643 0.0
O76 O 0.68861 0.32898 0.8056 0.0
O77 O 0.58985 0.22713 0.91544 0.0
O78 O 0.50485 0.35638 0.90048 0.0
O79 O 0.57211 0.55581 0.94509 0.0
O80 O 0.71256 0.58781 0.9812 0.0
O81 O 0.86186 0.58447 0.87318 0.0
O82 O 0.85545 0.22668 0.89397 0.0
O83 O 0.77985 0.51656 0.8067 0.0
O84 O 0.90779 0.34343 0.8423 0.0
C85 C 0.82486 0.37601 0.0324 0.0
C86 C 0.62043 0.37442 0.78545 0.0
C87 C 0.62452 0.59489 0.98141 0.0
C88 C 0.51027 0.26753 0.90435 0.0
C89 C 0.83165 0.58232 0.82315 0.0
C90 C 0.9209 0.26341 0.86383 0.0
O91 O 0.8582 0.44055 1.00076 0.0
O92 O 0.66608 0.19981 0.50017 0.0
Zn93 Zn 0.68736 0.23574 0.57983 0.0
O94 O 0.56429 0.23882 0.60403 0.0
Zn95 Zn 0.51969 0.35772 0.62942 0.0
Zn96 Zn 0.4702 0.17364 0.56655 0.0
Zn97 Zn 0.57886 0.17933 0.6685 0.0
O98 O 0.51118 0.364 0.71176 0.0
O99 O 0.63703 0.27161 0.71331 0.0
O100 O 0.74083 0.37713 0.59274 0.0
O101 O 0.61382 0.45647 0.61935 0.0
O102 O 0.41604 0.396 0.58076 0.0
O103 O 0.40971 0.27304 0.52285 0.0
O104 O 0.37959 0.11693 0.62872 0.0
O105 O 0.75355 0.11354 0.61508 0.0
O106 O 0.46309 0.16435 0.70105 0.0
O107 O 0.63999 0.05404 0.66591 0.0
C108 C 0.6099 0.14009 0.4778 0.0
C109 C 0.58754 0.33753 0.73395 0.0
C110 C 0.395 0.35923 0.5342 0.0
C111 C 0.69972 0.45497 0.60745 0.0
C112 C 0.3888 0.13249 0.68098 0.0
C113 C 0.71897 0.04483 0.64349 0.0
O114 O 0.53966 0.10511 0.50399 0.0
O115 O 0.26605 0.16368 0.74199 0.0
Zn116 Zn 0.23039 0.19121 0.82354 0.0
O117 O 0.22245 0.06617 0.84725 0.0
Zn118 Zn 0.10156 0.02482 0.86647 0.0
Zn119 Zn 0.29598 0.96996 0.81809 0.0
Zn120 Zn 0.27881 0.07832 0.913 0.0
O121 O 0.09219 0.02492 0.9499 0.0
O122 O 0.18872 0.14872 0.95073 0.0
O123 O 0.08983 0.25059 0.84089 0.0
O124 O 0.00486 0.12133 0.85585 0.0
O125 O 0.07211 0.92189 0.81126 0.0
O126 O 0.21253 0.88995 0.77509 0.0
O127 O 0.36192 0.89326 0.88309 0.0
O128 O 0.35544 0.25104 0.86238 0.0
O129 O 0.27989 0.9611 0.94958 0.0
O130 O 0.40784 0.13424 0.91398 0.0
C131 C 0.32485 0.10179 0.7239 0.0
C132 C 0.12049 0.10335 0.97086 0.0
C133 C 0.1245 0.88282 0.77493 0.0
C134 C 0.01026 0.21019 0.85198 0.0
C135 C 0.33173 0.89537 0.93313 0.0
C136 C 0.42092 0.2143 0.89249 0.0
O137 O 0.35819 0.03721 0.75552 0.0
O138 O 0.3141 0.77219 0.99575 0.0
Zn139 Zn 0.28695 0.74143 0.07721 0.0
O140 O 0.40641 0.73943 0.10865 0.0
Zn141 Zn 0.45407 0.61797 0.1267 0.0
Zn142 Zn 0.49526 0.81345 0.07118 0.0
Zn143 Zn 0.39232 0.79765 0.17565 0.0
O144 O 0.46607 0.60271 0.21075 0.0
O145 O 0.34652 0.70138 0.22389 0.0
O146 O 0.23071 0.60176 0.09154 0.0
O147 O 0.3577 0.52084 0.11597 0.0
O148 O 0.55129 0.58862 0.06813 0.0
O149 O 0.56846 0.72774 0.02618 0.0
O150 O 0.58175 0.88097 0.12801 0.0
O151 O 0.22132 0.86604 0.10992 0.0
O152 O 0.51022 0.82847 0.20336 0.0
O153 O 0.32185 0.91777 0.17289 0.0
C154 C 0.36793 0.83784 0.97791 0.0
C155 C 0.39428 0.62979 0.23831 0.0
C156 C 0.58183 0.63978 0.02864 0.0
C157 C 0.27119 0.52353 0.10561 0.0
C158 C 0.578 0.8684 0.18028 0.0
C159 C 0.25044 0.93124 0.14338 0.0
O160 O 0.42684 0.87863 0.01012 0.0
O161 O 0.76466 0.89194 0.46847 0.0
Zn162 Zn 0.73304 0.81118 0.40432 0.0
O163 O 0.73751 0.904 0.35118 0.0
Zn164 Zn 0.61812 0.9501 0.33496 0.0
Zn165 Zn 0.81359 0.00401 0.37992 0.0
Zn166 Zn 0.80275 0.86353 0.28899 0.0
O167 O 0.62556 0.9653 0.25108 0.0
O168 O 0.70582 0.83252 0.23389 0.0
O169 O 0.59185 0.76052 0.41057 0.0
O170 O 0.51728 0.85524 0.35212 0.0
O171 O 0.58944 0.05473 0.39255 0.0
O172 O 0.73214 0.08238 0.42526 0.0
O173 O 0.86079 0.08253 0.31578 0.0
O174 O 0.85567 0.72903 0.39292 0.0
O175 O 0.85128 0.97102 0.25154 0.0
O176 O 0.91285 0.78201 0.31319 0.0
C177 C 0.85194 0.90525 0.47502 0.0
C178 C 0.64972 0.89782 0.2182 0.0
C179 C 0.64446 0.09355 0.42759 0.0
C180 C 0.51575 0.78807 0.38673 0.0
C181 C 0.8652 0.05564 0.26551 0.0
C182 C 0.92314 0.73548 0.35775 0.0
O183 O 0.89984 0.94351 0.43662 0.0
loop_
_geom_bond_atom_site_label_1
_geom_bond_atom_site_label_2
_geom_bond_distance
_geom_bond_site_symmetry_2
_ccdc_geom_bond_type
O0 Zn1 1.953 . S
O0 C16 1.225 . S
Zn1 O0 1.953 . S
Zn1 O2 1.949 . S
Zn1 O8 1.919 . S
Zn1 O13 1.924 . S
O2 Zn1 1.949 . S
O2 Zn3 1.923 . S
O2 Zn4 1.950 1_455 S
O2 Zn5 1.945 . S
Zn3 O2 1.923 . S
Zn3 O6 1.933 . S
Zn3 O9 1.941 . S
Zn3 O10 1.965 1_455 S
Zn4 O2 1.950 1_655 S
Zn4 O11 1.938 . S
Zn4 O12 1.906 . S
Zn4 O22 1.953 . S
Zn5 O2 1.945 . S
Zn5 O7 1.932 . S
Zn5 O14 1.977 1_455 S
Zn5 O15 1.910 . S
O6 Zn3 1.933 . S
O6 C17 1.226 . S
O7 Zn5 1.932 . S
O7 C17 1.307 . S
O8 Zn1 1.919 . S
O8 C19 1.253 . S
O9 Zn3 1.941 . S
O9 C19 1.283 . S
O10 Zn3 1.965 1_655 S
O10 C18 1.303 . S
O11 Zn4 1.938 . S
O11 C18 1.247 . S
O12 Zn4 1.906 . S
O12 C20 1.304 . S
O13 Zn1 1.924 . S
O13 C21 1.311 . S
O14 Zn5 1.977 1_655 S
O14 C20 1.272 . S
O15 Zn5 1.910 . S
O15 C21 1.231 . S
C16 O0 1.225 . S
C16 O22 1.298 1_455 S
C17 O6 1.226 . S
C17 O7 1.307 . S
C18 O10 1.303 . S
C18 O11 1.247 . S
C19 O8 1.253 . S
C19 O9 1.283 . S
C20 O12 1.304 . S
C20 O14 1.272 . S
C21 O13 1.311 . S
C21 O15 1.231 . S
O22 Zn4 1.953 . S
O22 C16 1.298 1_655 S
O23 Zn24 1.953 . S
O23 C39 1.225 . S
Zn24 O23 1.953 . S
Zn24 O25 1.949 . S
Zn24 O31 1.919 . S
Zn24 O36 1.924 . S
O25 Zn24 1.949 . S
O25 Zn26 1.923 . S
O25 Zn27 1.950 . S
O25 Zn28 1.945 . S
Zn26 O25 1.923 . S
Zn26 O29 1.933 . S
Zn26 O32 1.941 . S
Zn26 O33 1.965 . S
Zn27 O25 1.950 . S
Zn27 O34 1.938 . S
Zn27 O35 1.906 . S
Zn27 O45 1.953 . S
Zn28 O25 1.945 . S
Zn28 O30 1.932 . S
Zn28 O37 1.977 . S
Zn28 O38 1.910 . S
O29 Zn26 1.933 . S
O29 C40 1.226 . S
O30 Zn28 1.932 . S
O30 C40 1.307 . S
O31 Zn24 1.919 . S
O31 C42 1.253 . S
O32 Zn26 1.941 . S
O32 C42 1.283 . S
O33 Zn26 1.965 . S
O33 C41 1.303 . S
O34 Zn27 1.938 . S
O34 C41 1.247 . S
O35 Zn27 1.906 . S
O35 C43 1.304 . S
O36 Zn24 1.924 . S
O36 C44 1.311 . S
O37 Zn28 1.977 . S
O37 C43 1.272 . S
O38 Zn28 1.910 . S
O38 C44 1.231 . S
C39 O23 1.225 . S
C39 O45 1.298 . S
C40 O29 1.226 . S
C40 O30 1.307 . S
C41 O33 1.303 . S
C41 O34 1.247 . S
C42 O31 1.253 . S
C42 O32 1.283 . S
C43 O35 1.304 . S
C43 O37 1.272 . S
C44 O36 1.311 . S
C44 O38 1.231 . S
O45 Zn27 1.953 . S
O45 C39 1.298 . S
O46 Zn47 1.953 . S
O46 C62 1.225 . S
Zn47 O46 1.953 . S
Zn47 O48 1.949 . S
Zn47 O54 1.919 . S
Zn47 O59 1.924 . S
O48 Zn47 1.949 . S
O48 Zn49 1.923 . S
O48 Zn50 1.950 1_655 S
O48 Zn51 1.945 . S
Zn49 O48 1.923 . S
Zn49 O52 1.933 . S
Zn49 O55 1.941 . S
Zn49 O56 1.965 1_655 S
Zn50 O48 1.950 1_455 S
Zn50 O57 1.938 . S
Zn50 O58 1.906 . S
Zn50 O68 1.953 . S
Zn51 O48 1.945 . S
Zn51 O53 1.932 . S
Zn51 O60 1.977 1_655 S
Zn51 O61 1.910 . S
O52 Zn49 1.933 . S
O52 C63 1.226 . S
O53 Zn51 1.932 . S
O53 C63 1.307 . S
O54 Zn47 1.919 . S
O54 C65 1.253 . S
O55 Zn49 1.941 . S
O55 C65 1.283 . S
O56 Zn49 1.965 1_455 S
O56 C64 1.303 . S
O57 Zn50 1.938 . S
O57 C64 1.247 . S
O58 Zn50 1.906 . S
O58 C66 1.304 . S
O59 Zn47 1.924 . S
O59 C67 1.311 . S
O60 Zn51 1.977 1_455 S
O60 C66 1.272 . S
O61 Zn51 1.910 . S
O61 C67 1.231 . S
C62 O46 1.225 . S
C62 O68 1.298 1_655 S
C63 O52 1.226 . S
C63 O53 1.307 . S
C64 O56 1.303 . S
C64 O57 1.247 . S
C65 O54 1.253 . S
C65 O55 1.283 . S
C66 O58 1.304 . S
C66 O60 1.272 . S
C67 O59 1.311 . S
C67 O61 1.231 . S
O68 Zn50 1.953 . S
O68 C62 1.298 1_455 S
O69 Zn70 1.953 1_554 S
O69 C85 1.225 . S
Zn70 O69 1.953 1_556 S
Zn70 O71 1.949 . S
Zn70 O77 1.919 . S
Zn70 O82 1.924 . S
O71 Zn70 1.949 . S
O71 Zn72 1.923 . S
O71 Zn73 1.950 . S
O71 Zn74 1.945 . S
Zn72 O71 1.923 . S
Zn72 O75 1.933 . S
Zn72 O78 1.941 . S
Zn72 O79 1.965 . S
Zn73 O71 1.950 . S
Zn73 O80 1.938 . S
Zn73 O81 1.906 . S
Zn73 O91 1.953 . S
Zn74 O71 1.945 . S
Zn74 O76 1.932 . S
Zn74 O83 1.977 . S
Zn74 O84 1.910 . S
O75 Zn72 1.933 . S
O75 C86 1.226 . S
O76 Zn74 1.932 . S
O76 C86 1.307 . S
O77 Zn70 1.919 . S
O77 C88 1.253 . S
O78 Zn72 1.941 . S
O78 C88 1.283 . S
O79 Zn72 1.965 . S
O79 C87 1.303 . S
O80 Zn73 1.938 . S
O80 C87 1.247 . S
O81 Zn73 1.906 . S
O81 C89 1.304 . S
O82 Zn70 1.924 . S
O82 C90 1.311 . S
O83 Zn74 1.977 . S
O83 C89 1.272 . S
O84 Zn74 1.910 . S
O84 C90 1.231 . S
C85 O69 1.225 . S
C85 O91 1.298 1_554 S
C86 O75 1.226 . S
C86 O76 1.307 . S
C87 O79 1.303 . S
C87 O80 1.247 . S
C88 O77 1.253 . S
C88 O78 1.283 . S
C89 O81 1.304 . S
C89 O83 1.272 . S
C90 O82 1.311 . S
C90 O84 1.231 . S
O91 Zn73 1.953 . S
O91 C85 1.298 1_556 S
O92 Zn93 1.953 . S
O92 C108 1.225 . S
Zn93 O92 1.953 . S
Zn93 O94 1.949 . S
Zn93 O100 1.919 . S
Zn93 O105 1.924 . S
O94 Zn93 1.949 . S
O94 Zn95 1.923 . S
O94 Zn96 1.950 . S
O94 Zn97 1.945 . S
Zn95 O94 1.923 . S
Zn95 O98 1.933 . S
Zn95 O101 1.941 . S
Zn95 O102 1.965 . S
Zn96 O94 1.950 . S
Zn96 O103 1.938 . S
Zn96 O104 1.906 . S
Zn96 O114 1.953 . S
Zn97 O94 1.945 . S
Zn97 O99 1.932 . S
Zn97 O106 1.977 . S
Zn97 O107 1.910 . S
O98 Zn95 1.933 . S
O98 C109 1.226 . S
O99 Zn97 1.932 . S
O99 C109 1.307 . S
O100 Zn93 1.919 . S
O100 C111 1.253 . S
O101 Zn95 1.941 . S
O101 C111 1.283 . S
O102 Zn95 1.965 . S
O102 C110 1.303 . S
O103 Zn96 1.938 . S
O103 C110 1.247 . S
O104 Zn96 1.906 . S
O104 C112 1.304 . S
O105 Zn93 1.924 . S
O105 C113 1.311 . S
O106 Zn97 1.977 . S
O106 C112 1.272 . S
O107 Zn97 1.910 . S
O107 C113 1.231 . S
C108 O92 1.225 . S
C108 O114 1.298 . S
C109 O98 1.226 . S
C109 O99 1.307 . S
C110 O102 1.303 . S
C110 O103 1.247 . S
C111 O100 1.253 . S
C111 O101 1.283 . S
C112 O104 1.304 . S
C112 O106 1.272 . S
C113 O105 1.311 . S
C113 O107 1.231 . S
O114 Zn96 1.953 . S
O114 C108 1.298 . S
O115 Zn116 1.953 . S
O115 C131 1.225 . S
Zn116 O115 1.953 . S
Zn116 O117 1.949 . S
Zn116 O123 1.919 . S
Zn116 O128 1.924 . S
O117 Zn116 1.949 . S
O117 Zn118 1.923 . S
O117 Zn119 1.950 1_545 S
O117 Zn120 1.945 . S
Zn118 O117 1.923 . S
Zn118 O121 1.933 . S
Zn118 O124 1.941 . S
Zn118 O125 1.965 1_545 S
Zn119 O117 1.950 1_565 S
Zn119 O126 1.938 . S
Zn119 O127 1.906 . S
Zn119 O137 1.953 . S
Zn120 O117 1.945 . S
Zn120 O122 1.932 . S
Zn120 O129 1.977 1_545 S
Zn120 O130 1.910 . S
O121 Zn118 1.933 . S
O121 C132 1.226 . S
O122 Zn120 1.932 . S
O122 C132 1.307 . S
O123 Zn116 1.919 . S
O123 C134 1.253 . S
O124 Zn118 1.941 . S
O124 C134 1.283 . S
O125 Zn118 1.965 1_565 S
O125 C133 1.303 . S
O126 Zn119 1.938 . S
O126 C133 1.247 . S
O127 Zn119 1.906 . S
O127 C135 1.304 . S
O128 Zn116 1.924 . S
O128 C136 1.311 . S
O129 Zn120 1.977 1_565 S
O129 C135 1.272 . S
O130 Zn120 1.910 . S
O130 C136 1.231 . S
C131 O115 1.225 . S
C131 O137 1.298 1_545 S
C132 O121 1.226 . S
C132 O122 1.307 . S
C133 O125 1.303 . S
C133 O126 1.247 . S
C134 O123 1.253 . S
C134 O124 1.283 . S
C135 O127 1.304 . S
C135 O129 1.272 . S
C136 O128 1.311 . S
C136 O130 1.231 . S
O137 Zn119 1.953 . S
O137 C131 1.298 1_565 S
O138 Zn139 1.953 1_556 S
O138 C154 1.225 . S
Zn139 O138 1.953 1_554 S
Zn139 O140 1.949 . S
Zn139 O146 1.919 . S
Zn139 O151 1.924 . S
O140 Zn139 1.949 . S
O140 Zn141 1.923 . S
O140 Zn142 1.950 . S
O140 Zn143 1.945 . S
Zn141 O140 1.923 . S
Zn141 O144 1.933 . S
Zn141 O147 1.941 . S
Zn141 O148 1.965 . S
Zn142 O140 1.950 . S
Zn142 O149 1.938 . S
Zn142 O150 1.906 . S
Zn142 O160 1.953 . S
Zn143 O140 1.945 . S
Zn143 O145 1.932 . S
Zn143 O152 1.977 . S
Zn143 O153 1.910 . S
O144 Zn141 1.933 . S
O144 C155 1.226 . S
O145 Zn143 1.932 . S
O145 C155 1.307 . S
O146 Zn139 1.919 . S
O146 C157 1.253 . S
O147 Zn141 1.941 . S
O147 C157 1.283 . S
O148 Zn141 1.965 . S
O148 C156 1.303 . S
O149 Zn142 1.938 . S
O149 C156 1.247 . S
O150 Zn142 1.906 . S
O150 C158 1.304 . S
O151 Zn139 1.924 . S
O151 C159 1.311 . S
O152 Zn143 1.977 . S
O152 C158 1.272 . S
O153 Zn143 1.910 . S
O153 C159 1.231 . S
C154 O138 1.225 . S
C154 O160 1.298 1_556 S
C155 O144 1.226 . S
C155 O145 1.307 . S
C156 O148 1.303 . S
C156 O149 1.247 . S
C157 O146 1.253 . S
C157 O147 1.283 . S
C158 O150 1.304 . S
C158 O152 1.272 . S
C159 O151 1.311 . S
C159 O153 1.231 . S
O160 Zn142 1.953 . S
O160 C154 1.298 1_554 S
O161 Zn162 1.953 . S
O161 C177 1.225 . S
Zn162 O161 1.953 . S
Zn162 O163 1.949 . S
Zn162 O169 1.919 . S
Zn162 O174 1.924 . S
O163 Zn162 1.949 . S
O163 Zn164 1.923 . S
O163 Zn165 1.950 1_565 S
O163 Zn166 1.945 . S
Zn164 O163 1.923 . S
Zn164 O167 1.933 . S
Zn164 O170 1.941 . S
Zn164 O171 1.965 1_565 S
Zn165 O163 1.950 1_545 S
Zn165 O172 1.938 . S
Zn165 O173 1.906 . S
Zn165 O183 1.953 . S
Zn166 O163 1.945 . S
Zn166 O168 1.932 . S
Zn166 O175 1.977 1_565 S
Zn166 O176 1.910 . S
O167 Zn164 1.933 . S
O167 C178 1.226 . S
O168 Zn166 1.932 . S
O168 C178 1.307 . S
O169 Zn162 1.919 . S
O169 C180 1.253 . S
O170 Zn164 1.941 . S
O170 C180 1.283 . S
O171 Zn164 1.965 1_545 S
O171 C179 1.303 . S
O172 Zn165 1.938 . S
O172 C179 1.247 . S
O173 Zn165 1.906 . S
O173 C181 1.304 . S
O174 Zn162 1.924 . S
O174 C182 1.311 . S
O175 Zn166 1.977 1_545 S
O175 C181 1.272 . S
O176 Zn166 1.910 . S
O176 C182 1.231 . S
C177 O161 1.225 . S
C177 O183 1.298 1_565 S
C178 O167 1.226 . S
C178 O168 1.307 . S
C179 O171 1.303 . S
C179 O172 1.247 . S
C180 O169 1.253 . S
C180 O170 1.283 . S
C181 O173 1.304 . S
C181 O175 1.272 . S
C182 O174 1.311 . S
C182 O176 1.231 . S
O183 Zn165 1.953 . S
O183 C177 1.298 1_545 S
C18 C181 2.012 . S
C43 C110 2.012 . S
C64 C133 2.066 . S
C156 C87 2.065 1_554 S
C16 C41 1.717 . S
C66 C40 1.540 . S
C89 C62 1.568 . S
C20 C85 1.566 . S
C108 C179 1.717 . S
C131 C112 1.566 . S
C154 C135 1.569 . S
C158 C178 1.540 . S
C132 C17 1.177 1_556 S
C155 C39 1.202 . S
C177 C63 1.202 . S
C109 C86 1.177 . S
C19 C159 2.336 1_545 S
C44 C180 2.244 . S
C113 C65 2.261 1_545 S
C136 C88 2.306 . S
C67 C111 2.336 . S
C134 C90 2.306 1_455 S
C157 C21 2.261 . S
C182 C42 2.245 1_655 S
