# Generated by pormake.
# Topology uol, (4)-cn, num edge types: 1
# Building blocks:
#     Node 0, Type 0, BuildingBlock: NAWXER_clean_sbu_0, # of connection points: 4
#     Node 1, Type 0, BuildingBlock: NAWXER_clean_sbu_0, # of connection points: 4
#     Node 2, Type 0, BuildingBlock: NAWXER_clean_sbu_0, # of connection points: 4
#     Node 3, Type 0, BuildingBlock: NAWXER_clean_sbu_0, # of connection points: 4
#     Node 4, Type 0, BuildingBlock: NAWXER_clean_sbu_0, # of connection points: 4
#     Node 5, Type 0, BuildingBlock: NAWXER_clean_sbu_0, # of connection points: 4
#     Node 6, Type 0, BuildingBlock: NAWXER_clean_sbu_0, # of connection points: 4
#     Node 7, Type 0, BuildingBlock: NAWXER_clean_sbu_0, # of connection points: 4
#     Node 8, Type 0, BuildingBlock: NAWXER_clean_sbu_0, # of connection points: 4
#     Node 9, Type 0, BuildingBlock: NAWXER_clean_sbu_0, # of connection points: 4
#     Node 10, Type 0, BuildingBlock: NAWXER_clean_sbu_0, # of connection points: 4
#     Node 11, Type 0, BuildingBlock: NAWXER_clean_sbu_0, # of connection points: 4
#     Edge 12, Type (0, 0), None
#     Edge 13, Type (0, 0), None
#     Edge 14, Type (0, 0), None
#     Edge 15, Type (0, 0), None
#     Edge 16, Type (0, 0), None
#     Edge 17, Type (0, 0), None
#     Edge 18, Type (0, 0), None
#     Edge 19, Type (0, 0), None
#     Edge 20, Type (0, 0), None
#     Edge 21, Type (0, 0), None
#     Edge 22, Type (0, 0), None
#     Edge 23, Type (0, 0), None
#     Edge 24, Type (0, 0), None
#     Edge 25, Type (0, 0), None
#     Edge 26, Type (0, 0), None
#     Edge 27, Type (0, 0), None
#     Edge 28, Type (0, 0), None
#     Edge 29, Type (0, 0), None
#     Edge 30, Type (0, 0), None
#     Edge 31, Type (0, 0), None
#     Edge 32, Type (0, 0), None
#     Edge 33, Type (0, 0), None
#     Edge 34, Type (0, 0), None
#     Edge 35, Type (0, 0), None
# Relax obj value: 0.141
# Max RMSD: 0.284
# Mean RMSD: 0.284
data_MOF--net-uol--node1-NAWXER_clean_sbu_0--edge1-none
_symmetry_space_group_name_H-M    P1
_symmetry_Int_Tables_number       1
_symmetry_cell_setting            triclinic
loop_
_symmetry_equiv_pos_as_xyz
'x, y, z'
_cell_length_a     14.868413
_cell_length_b     14.868862
_cell_length_c     29.183539
_cell_angle_alpha  89.999864
_cell_angle_beta   90.000078
_cell_angle_gamma 120.00251
loop_
_atom_site_label
_atom_site_type_symbol
_atom_site_fract_x
_atom_site_fract_y
_atom_site_fract_z
_atom_type_partial_charge
C0 C 0.18386 0.30717 0.02739 0.0
C1 C 0.95389 0.23691 0.1563 0.0
O2 O 0.23292 0.36846 0.06071 0.0
Zn3 Zn 0.18804 0.4037 0.12639 0.0
O4 O 0.08622 0.24887 0.02971 0.0
Zn5 Zn 0.06751 0.28529 0.09042 0.0
O6 O 0.0793 0.43515 0.08003 0.0
O7 O 0.21402 0.54217 0.12181 0.0
O8 O 0.93359 0.1975 0.11653 0.0
O9 O 0.04396 0.31505 0.16496 0.0
O10 O 0.28358 0.38983 0.16413 0.0
O11 O 0.16438 0.24258 0.13237 0.0
C12 C 0.14135 0.52701 0.09484 0.0
C13 C 0.24437 0.29284 0.15825 0.0
C14 C 0.95776 0.24127 0.32491 0.0
C15 C 0.62055 0.1382 0.26151 0.0
O16 O 0.92803 0.16127 0.29903 0.0
Zn17 Zn 0.78846 0.0644 0.25709 0.0
O18 O 0.89998 0.28046 0.3308 0.0
Zn19 Zn 0.79056 0.18492 0.29306 0.0
O20 O 0.73515 0.04084 0.33163 0.0
O21 O 0.74233 0.93049 0.28319 0.0
O22 O 0.67805 0.21087 0.28848 0.0
O23 O 0.65038 0.07618 0.2467 0.0
O24 O 0.84359 0.08312 0.19637 0.0
O25 O 0.87068 0.22981 0.22738 0.0
C26 C 0.72322 0.95077 0.32297 0.0
C27 C 0.88291 0.18076 0.19406 0.0
C28 C 0.72276 0.95465 0.49158 0.0
C29 C 0.4886 0.61745 0.42818 0.0
O30 O 0.77303 0.92493 0.46571 0.0
Zn31 Zn 0.73032 0.78537 0.42376 0.0
O32 O 0.62577 0.89686 0.49748 0.0
Zn33 Zn 0.6119 0.78746 0.45973 0.0
O34 O 0.70056 0.73204 0.4983 0.0
O35 O 0.81812 0.73924 0.44986 0.0
O36 O 0.47343 0.67494 0.45515 0.0
O37 O 0.58046 0.64729 0.41336 0.0
O38 O 0.76674 0.8405 0.36304 0.0
O39 O 0.64713 0.86758 0.39405 0.0
C40 C 0.77871 0.72012 0.48964 0.0
C41 C 0.70842 0.87981 0.36073 0.0
C42 C 0.83486 0.70531 0.52739 0.0
C43 C 0.06483 0.77556 0.65631 0.0
O44 O 0.7858 0.64402 0.56072 0.0
Zn45 Zn 0.83067 0.60877 0.6264 0.0
O46 O 0.93251 0.76361 0.52971 0.0
Zn47 Zn 0.95121 0.72718 0.59042 0.0
O48 O 0.93941 0.57732 0.58003 0.0
O49 O 0.80469 0.4703 0.62181 0.0
O50 O 0.08513 0.81497 0.61653 0.0
O51 O 0.97475 0.69742 0.66496 0.0
O52 O 0.73514 0.62265 0.66414 0.0
O53 O 0.85434 0.7699 0.63237 0.0
C54 C 0.87736 0.48546 0.59484 0.0
C55 C 0.77435 0.71963 0.65825 0.0
C56 C 0.06096 0.77121 0.82491 0.0
C57 C 0.39818 0.87428 0.76151 0.0
O58 O 0.09069 0.8512 0.79904 0.0
Zn59 Zn 0.23026 0.94807 0.75709 0.0
O60 O 0.11875 0.73202 0.83081 0.0
Zn61 Zn 0.22816 0.82756 0.79307 0.0
O62 O 0.28358 0.97164 0.83163 0.0
O63 O 0.27639 0.08199 0.78319 0.0
O64 O 0.34068 0.80161 0.78848 0.0
O65 O 0.36834 0.9363 0.7467 0.0
O66 O 0.17513 0.92936 0.69637 0.0
O67 O 0.14804 0.78267 0.72739 0.0
C68 C 0.29551 0.0617 0.82297 0.0
C69 C 0.1358 0.83172 0.69406 0.0
C70 C 0.24002 0.29236 0.98963 0.0
C71 C 0.31031 0.13266 0.86073 0.0
O72 O 0.31816 0.28044 0.9983 0.0
Zn73 Zn 0.40682 0.22502 0.95973 0.0
O74 O 0.2006 0.27323 0.94986 0.0
Zn75 Zn 0.2884 0.22711 0.92376 0.0
O76 O 0.2457 0.08755 0.96571 0.0
O77 O 0.39295 0.11562 0.99748 0.0
O78 O 0.25199 0.17198 0.86304 0.0
O79 O 0.37159 0.1449 0.89405 0.0
O80 O 0.54529 0.33754 0.95515 0.0
O81 O 0.43826 0.36519 0.91337 0.0
C82 C 0.29597 0.05783 0.99159 0.0
C83 C 0.53012 0.39503 0.92818 0.0
C84 C 0.72276 0.77123 0.6787 0.0
C85 C 0.48862 0.87428 0.7421 0.0
O86 O 0.77303 0.85121 0.70458 0.0
Zn87 Zn 0.73034 0.94808 0.74653 0.0
O88 O 0.62577 0.73203 0.67281 0.0
Zn89 Zn 0.61191 0.82756 0.71055 0.0
O90 O 0.70057 0.97164 0.67199 0.0
O91 O 0.81814 0.082 0.72042 0.0
O92 O 0.47344 0.80161 0.71514 0.0
O93 O 0.58048 0.9363 0.75692 0.0
O94 O 0.76675 0.92935 0.80724 0.0
O95 O 0.64714 0.78267 0.77623 0.0
C96 C 0.77872 0.06171 0.68064 0.0
C97 C 0.70843 0.83172 0.80956 0.0
C98 C 0.88294 0.70529 0.97622 0.0
C99 C 0.72323 0.77555 0.84731 0.0
O100 O 0.8707 0.644 0.9429 0.0
Zn101 Zn 0.79058 0.60877 0.87722 0.0
O102 O 0.84362 0.7636 0.9739 0.0
Zn103 Zn 0.78848 0.72719 0.91319 0.0
O104 O 0.6504 0.57733 0.92358 0.0
O105 O 0.67807 0.47029 0.8818 0.0
O106 O 0.74236 0.81498 0.88708 0.0
O107 O 0.73516 0.69742 0.83865 0.0
O108 O 0.89999 0.62264 0.83948 0.0
O109 O 0.92805 0.76989 0.87124 0.0
C110 C 0.62058 0.48547 0.90877 0.0
C111 C 0.95777 0.71962 0.84536 0.0
C112 C 0.24437 0.95464 0.01204 0.0
C113 C 0.14134 0.61745 0.07543 0.0
O114 O 0.16438 0.92491 0.03791 0.0
Zn115 Zn 0.06751 0.78533 0.07986 0.0
O116 O 0.28359 0.89687 0.00615 0.0
Zn117 Zn 0.18805 0.78746 0.04389 0.0
O118 O 0.04397 0.73203 0.00532 0.0
O119 O 0.93359 0.7392 0.05376 0.0
O120 O 0.21402 0.67496 0.04847 0.0
O121 O 0.0793 0.64726 0.09025 0.0
O122 O 0.08622 0.84046 0.14058 0.0
O123 O 0.23292 0.86757 0.10957 0.0
C124 C 0.95389 0.72009 0.01398 0.0
C125 C 0.18386 0.8798 0.14289 0.0
C126 C 0.24001 0.95077 0.18065 0.0
C127 C 0.3103 0.18076 0.30956 0.0
O128 O 0.31816 0.04083 0.17199 0.0
Zn129 Zn 0.40681 0.18491 0.21055 0.0
O130 O 0.20058 0.93048 0.22042 0.0
Zn131 Zn 0.28838 0.0644 0.24653 0.0
O132 O 0.24569 0.16126 0.20457 0.0
O133 O 0.39295 0.28045 0.17281 0.0
O134 O 0.25197 0.08312 0.30724 0.0
O135 O 0.37158 0.22981 0.27623 0.0
O136 O 0.54529 0.21088 0.21514 0.0
O137 O 0.43824 0.07617 0.25692 0.0
C138 C 0.29596 0.24125 0.1787 0.0
C139 C 0.5301 0.1382 0.2421 0.0
C140 C 0.39815 0.52701 0.40877 0.0
C141 C 0.06095 0.29286 0.34536 0.0
O142 O 0.36832 0.43515 0.42358 0.0
Zn143 Zn 0.23024 0.2853 0.41319 0.0
O144 O 0.34066 0.54219 0.3818 0.0
Zn145 Zn 0.22815 0.40371 0.37721 0.0
O146 O 0.14802 0.36848 0.44289 0.0
O147 O 0.1751 0.24888 0.4739 0.0
O148 O 0.11874 0.38984 0.33947 0.0
O149 O 0.09067 0.24259 0.37124 0.0
O150 O 0.27636 0.1975 0.38708 0.0
O151 O 0.28357 0.31506 0.33865 0.0
C152 C 0.13578 0.30719 0.47622 0.0
C153 C 0.29549 0.23693 0.34731 0.0
C154 C 0.87736 0.39501 0.57544 0.0
C155 C 0.77435 0.05784 0.51203 0.0
O156 O 0.93941 0.36522 0.59025 0.0
Zn157 Zn 0.95121 0.22715 0.57986 0.0
O158 O 0.80468 0.33751 0.54847 0.0
Zn159 Zn 0.83067 0.22502 0.54389 0.0
O160 O 0.7858 0.1449 0.60957 0.0
O161 O 0.93251 0.17203 0.64057 0.0
O162 O 0.73513 0.1156 0.50615 0.0
O163 O 0.85434 0.08757 0.53791 0.0
O164 O 0.08513 0.27329 0.55375 0.0
O165 O 0.97474 0.28046 0.50531 0.0
C166 C 0.83487 0.13268 0.64289 0.0
C167 C 0.06482 0.2924 0.51397 0.0
loop_
_geom_bond_atom_site_label_1
_geom_bond_atom_site_label_2
_geom_bond_distance
_geom_bond_site_symmetry_2
_ccdc_geom_bond_type
C0 O2 1.247 . S
C0 O4 1.258 . S
C1 O8 1.247 1_455 S
C1 O9 1.258 . S
O2 C0 1.247 . S
O2 Zn3 2.028 . S
Zn3 O2 2.028 . S
Zn3 O7 2.035 . S
Zn3 O9 2.035 . S
Zn3 O10 2.028 . S
O4 C0 1.258 . S
O4 Zn5 2.035 . S
Zn5 O4 2.035 . S
Zn5 O6 2.028 . S
Zn5 O8 2.028 1_455 S
Zn5 O11 2.035 . S
O6 Zn5 2.028 . S
O6 C12 1.247 . S
O7 Zn3 2.035 . S
O7 C12 1.258 . S
O8 C1 1.247 1_655 S
O8 Zn5 2.028 1_655 S
O9 C1 1.258 . S
O9 Zn3 2.035 . S
O10 Zn3 2.028 . S
O10 C13 1.247 . S
O11 Zn5 2.035 . S
O11 C13 1.258 . S
C12 O6 1.247 . S
C12 O7 1.258 . S
C13 O10 1.247 . S
C13 O11 1.258 . S
C14 O16 1.247 . S
C14 O18 1.258 . S
C15 O22 1.247 . S
C15 O23 1.258 . S
O16 C14 1.247 . S
O16 Zn17 2.028 . S
Zn17 O16 2.028 . S
Zn17 O21 2.035 1_545 S
Zn17 O23 2.035 . S
Zn17 O24 2.028 . S
O18 C14 1.258 . S
O18 Zn19 2.035 . S
Zn19 O18 2.035 . S
Zn19 O20 2.028 . S
Zn19 O22 2.028 . S
Zn19 O25 2.035 . S
O20 Zn19 2.028 . S
O20 C26 1.247 . S
O21 Zn17 2.035 1_565 S
O21 C26 1.258 1_565 S
O22 C15 1.247 . S
O22 Zn19 2.028 . S
O23 C15 1.258 . S
O23 Zn17 2.035 . S
O24 Zn17 2.028 . S
O24 C27 1.247 . S
O25 Zn19 2.035 . S
O25 C27 1.258 . S
C26 O20 1.247 . S
C26 O21 1.258 1_545 S
C27 O24 1.247 . S
C27 O25 1.258 . S
C28 O30 1.247 . S
C28 O32 1.258 . S
C29 O36 1.247 . S
C29 O37 1.258 . S
O30 C28 1.247 . S
O30 Zn31 2.028 . S
Zn31 O30 2.028 . S
Zn31 O35 2.035 . S
Zn31 O37 2.035 . S
Zn31 O38 2.028 . S
O32 C28 1.258 . S
O32 Zn33 2.035 . S
Zn33 O32 2.035 . S
Zn33 O34 2.028 . S
Zn33 O36 2.028 . S
Zn33 O39 2.035 . S
O34 Zn33 2.028 . S
O34 C40 1.247 . S
O35 Zn31 2.035 . S
O35 C40 1.258 . S
O36 C29 1.247 . S
O36 Zn33 2.028 . S
O37 C29 1.258 . S
O37 Zn31 2.035 . S
O38 Zn31 2.028 . S
O38 C41 1.247 . S
O39 Zn33 2.035 . S
O39 C41 1.258 . S
C40 O34 1.247 . S
C40 O35 1.258 . S
C41 O38 1.247 . S
C41 O39 1.258 . S
C42 O44 1.247 . S
C42 O46 1.258 . S
C43 O50 1.247 1_655 S
C43 O51 1.258 . S
O44 C42 1.247 . S
O44 Zn45 2.028 . S
Zn45 O44 2.028 . S
Zn45 O49 2.035 . S
Zn45 O51 2.035 . S
Zn45 O52 2.028 . S
O46 C42 1.258 . S
O46 Zn47 2.035 . S
Zn47 O46 2.035 . S
Zn47 O48 2.028 . S
Zn47 O50 2.028 1_655 S
Zn47 O53 2.035 . S
O48 Zn47 2.028 . S
O48 C54 1.247 . S
O49 Zn45 2.035 . S
O49 C54 1.258 . S
O50 C43 1.247 1_455 S
O50 Zn47 2.028 1_455 S
O51 C43 1.258 . S
O51 Zn45 2.035 . S
O52 Zn45 2.028 . S
O52 C55 1.247 . S
O53 Zn47 2.035 . S
O53 C55 1.258 . S
C54 O48 1.247 . S
C54 O49 1.258 . S
C55 O52 1.247 . S
C55 O53 1.258 . S
C56 O58 1.247 . S
C56 O60 1.258 . S
C57 O64 1.247 . S
C57 O65 1.258 . S
O58 C56 1.247 . S
O58 Zn59 2.028 . S
Zn59 O58 2.028 . S
Zn59 O63 2.035 1_565 S
Zn59 O65 2.035 . S
Zn59 O66 2.028 . S
O60 C56 1.258 . S
O60 Zn61 2.035 . S
Zn61 O60 2.035 . S
Zn61 O62 2.028 . S
Zn61 O64 2.028 . S
Zn61 O67 2.035 . S
O62 Zn61 2.028 . S
O62 C68 1.247 . S
O63 Zn59 2.035 1_545 S
O63 C68 1.258 1_545 S
O64 C57 1.247 . S
O64 Zn61 2.028 . S
O65 C57 1.258 . S
O65 Zn59 2.035 . S
O66 Zn59 2.028 . S
O66 C69 1.247 . S
O67 Zn61 2.035 . S
O67 C69 1.258 . S
C68 O62 1.247 . S
C68 O63 1.258 1_565 S
C69 O66 1.247 . S
C69 O67 1.258 . S
C70 O72 1.247 . S
C70 O74 1.258 1_554 S
C71 O78 1.247 . S
C71 O79 1.258 . S
O72 C70 1.247 . S
O72 Zn73 2.028 1_554 S
Zn73 O72 2.028 1_556 S
Zn73 O77 2.035 . S
Zn73 O79 2.035 . S
Zn73 O80 2.028 . S
O74 C70 1.258 1_556 S
O74 Zn75 2.035 . S
Zn75 O74 2.035 . S
Zn75 O76 2.028 . S
Zn75 O78 2.028 . S
Zn75 O81 2.035 . S
O76 Zn75 2.028 . S
O76 C82 1.247 . S
O77 Zn73 2.035 . S
O77 C82 1.258 . S
O78 C71 1.247 . S
O78 Zn75 2.028 . S
O79 C71 1.258 . S
O79 Zn73 2.035 . S
O80 Zn73 2.028 . S
O80 C83 1.247 . S
O81 Zn75 2.035 . S
O81 C83 1.258 . S
C82 O76 1.247 . S
C82 O77 1.258 . S
C83 O80 1.247 . S
C83 O81 1.258 . S
C84 O86 1.247 . S
C84 O88 1.258 . S
C85 O92 1.247 . S
C85 O93 1.258 . S
O86 C84 1.247 . S
O86 Zn87 2.028 . S
Zn87 O86 2.028 . S
Zn87 O91 2.035 1_565 S
Zn87 O93 2.035 . S
Zn87 O94 2.028 . S
O88 C84 1.258 . S
O88 Zn89 2.035 . S
Zn89 O88 2.035 . S
Zn89 O90 2.028 . S
Zn89 O92 2.028 . S
Zn89 O95 2.035 . S
O90 Zn89 2.028 . S
O90 C96 1.247 . S
O91 Zn87 2.035 1_545 S
O91 C96 1.258 1_545 S
O92 C85 1.247 . S
O92 Zn89 2.028 . S
O93 C85 1.258 . S
O93 Zn87 2.035 . S
O94 Zn87 2.028 . S
O94 C97 1.247 . S
O95 Zn89 2.035 . S
O95 C97 1.258 . S
C96 O90 1.247 . S
C96 O91 1.258 1_565 S
C97 O94 1.247 . S
C97 O95 1.258 . S
C98 O100 1.247 . S
C98 O102 1.258 . S
C99 O106 1.247 . S
C99 O107 1.258 . S
O100 C98 1.247 . S
O100 Zn101 2.028 . S
Zn101 O100 2.028 . S
Zn101 O105 2.035 . S
Zn101 O107 2.035 . S
Zn101 O108 2.028 . S
O102 C98 1.258 . S
O102 Zn103 2.035 . S
Zn103 O102 2.035 . S
Zn103 O104 2.028 . S
Zn103 O106 2.028 . S
Zn103 O109 2.035 . S
O104 Zn103 2.028 . S
O104 C110 1.247 . S
O105 Zn101 2.035 . S
O105 C110 1.258 . S
O106 C99 1.247 . S
O106 Zn103 2.028 . S
O107 C99 1.258 . S
O107 Zn101 2.035 . S
O108 Zn101 2.028 . S
O108 C111 1.247 . S
O109 Zn103 2.035 . S
O109 C111 1.258 . S
C110 O104 1.247 . S
C110 O105 1.258 . S
C111 O108 1.247 . S
C111 O109 1.258 . S
C112 O114 1.247 . S
C112 O116 1.258 . S
C113 O120 1.247 . S
C113 O121 1.258 . S
O114 C112 1.247 . S
O114 Zn115 2.028 . S
Zn115 O114 2.028 . S
Zn115 O119 2.035 1_455 S
Zn115 O121 2.035 . S
Zn115 O122 2.028 . S
O116 C112 1.258 . S
O116 Zn117 2.035 . S
Zn117 O116 2.035 . S
Zn117 O118 2.028 1_554 S
Zn117 O120 2.028 . S
Zn117 O123 2.035 . S
O118 Zn117 2.028 1_556 S
O118 C124 1.247 . S
O119 Zn115 2.035 1_655 S
O119 C124 1.258 1_654 S
O120 C113 1.247 . S
O120 Zn117 2.028 . S
O121 C113 1.258 . S
O121 Zn115 2.035 . S
O122 Zn115 2.028 . S
O122 C125 1.247 . S
O123 Zn117 2.035 . S
O123 C125 1.258 . S
C124 O118 1.247 . S
C124 O119 1.258 1_456 S
C125 O122 1.247 . S
C125 O123 1.258 . S
C126 O128 1.247 . S
C126 O130 1.258 1_545 S
C127 O134 1.247 . S
C127 O135 1.258 . S
O128 C126 1.247 . S
O128 Zn129 2.028 . S
Zn129 O128 2.028 . S
Zn129 O133 2.035 . S
Zn129 O135 2.035 . S
Zn129 O136 2.028 . S
O130 C126 1.258 1_565 S
O130 Zn131 2.035 1_565 S
Zn131 O130 2.035 1_545 S
Zn131 O132 2.028 . S
Zn131 O134 2.028 . S
Zn131 O137 2.035 . S
O132 Zn131 2.028 . S
O132 C138 1.247 . S
O133 Zn129 2.035 . S
O133 C138 1.258 . S
O134 C127 1.247 . S
O134 Zn131 2.028 . S
O135 C127 1.258 . S
O135 Zn129 2.035 . S
O136 Zn129 2.028 . S
O136 C139 1.247 . S
O137 Zn131 2.035 . S
O137 C139 1.258 . S
C138 O132 1.247 . S
C138 O133 1.258 . S
C139 O136 1.247 . S
C139 O137 1.258 . S
C140 O142 1.247 . S
C140 O144 1.258 . S
C141 O148 1.247 . S
C141 O149 1.258 . S
O142 C140 1.247 . S
O142 Zn143 2.028 . S
Zn143 O142 2.028 . S
Zn143 O147 2.035 . S
Zn143 O149 2.035 . S
Zn143 O150 2.028 . S
O144 C140 1.258 . S
O144 Zn145 2.035 . S
Zn145 O144 2.035 . S
Zn145 O146 2.028 . S
Zn145 O148 2.028 . S
Zn145 O151 2.035 . S
O146 Zn145 2.028 . S
O146 C152 1.247 . S
O147 Zn143 2.035 . S
O147 C152 1.258 . S
O148 C141 1.247 . S
O148 Zn145 2.028 . S
O149 C141 1.258 . S
O149 Zn143 2.035 . S
O150 Zn143 2.028 . S
O150 C153 1.247 . S
O151 Zn145 2.035 . S
O151 C153 1.258 . S
C152 O146 1.247 . S
C152 O147 1.258 . S
C153 O150 1.247 . S
C153 O151 1.258 . S
C154 O156 1.247 . S
C154 O158 1.258 . S
C155 O162 1.247 . S
C155 O163 1.258 . S
O156 C154 1.247 . S
O156 Zn157 2.028 . S
Zn157 O156 2.028 . S
Zn157 O161 2.035 . S
Zn157 O163 2.035 . S
Zn157 O164 2.028 1_655 S
O158 C154 1.258 . S
O158 Zn159 2.035 . S
Zn159 O158 2.035 . S
Zn159 O160 2.028 . S
Zn159 O162 2.028 . S
Zn159 O165 2.035 . S
O160 Zn159 2.028 . S
O160 C166 1.247 . S
O161 Zn157 2.035 . S
O161 C166 1.258 . S
O162 C155 1.247 . S
O162 Zn159 2.028 . S
O163 C155 1.258 . S
O163 Zn157 2.035 . S
O164 Zn157 2.028 1_455 S
O164 C167 1.247 1_455 S
O165 Zn159 2.035 . S
O165 C167 1.258 . S
C166 O160 1.247 . S
C166 O161 1.258 . S
C167 O164 1.247 1_655 S
C167 O165 1.258 . S
C113 C12 1.892 . S
C15 C139 1.887 . S
C29 C140 1.892 . S
C54 C154 1.897 . S
C85 C57 1.887 . S
C83 C110 1.892 . S
C138 C13 1.533 . S
C14 C141 1.533 1_655 S
C155 C28 1.533 1_545 S
C55 C84 1.533 . S
C111 C56 1.533 1_655 S
C112 C82 1.536 1_564 S
C0 C70 2.144 . S
C27 C1 2.137 1_655 S
C26 C41 2.143 1_545 S
C42 C40 2.144 . S
C69 C43 2.138 1_455 S
C71 C68 2.143 1_545 S
C97 C99 2.137 . S
C98 C124 2.144 1_655 S
C125 C126 2.143 1_565 S
C127 C153 2.138 . S
C152 C167 2.139 1_455 S
C96 C166 2.144 1_565 S
