# Generated by pormake.
# Topology sma, (6)-cn, num edge types: 1
# Building blocks:
#     Node 0, Type 0, BuildingBlock: NUHQIS_clean_sbu_0, # of connection points: 6
#     Node 1, Type 0, BuildingBlock: NUHQIS_clean_sbu_0, # of connection points: 6
#     Node 2, Type 0, BuildingBlock: NUHQIS_clean_sbu_0, # of connection points: 6
#     Edge 3, Type (0, 0), BuildingBlock: EYOCIG_clean_linker_4, # of connection points: 2
#     Edge 4, Type (0, 0), BuildingBlock: EYOCIG_clean_linker_4, # of connection points: 2
#     Edge 5, Type (0, 0), BuildingBlock: EYOCIG_clean_linker_4, # of connection points: 2
#     Edge 6, Type (0, 0), BuildingBlock: EYOCIG_clean_linker_4, # of connection points: 2
#     Edge 7, Type (0, 0), BuildingBlock: EYOCIG_clean_linker_4, # of connection points: 2
#     Edge 8, Type (0, 0), BuildingBlock: EYOCIG_clean_linker_4, # of connection points: 2
#     Edge 9, Type (0, 0), BuildingBlock: EYOCIG_clean_linker_4, # of connection points: 2
#     Edge 10, Type (0, 0), BuildingBlock: EYOCIG_clean_linker_4, # of connection points: 2
#     Edge 11, Type (0, 0), BuildingBlock: EYOCIG_clean_linker_4, # of connection points: 2
# Relax obj value: 0.057
# Max RMSD: 0.168
# Mean RMSD: 0.163
data_MOF--net-sma--node1-NUHQIS_clean_sbu_0--edge1-EYOCIG_clean_linker_4
_symmetry_space_group_name_H-M    P1
_symmetry_Int_Tables_number       1
_symmetry_cell_setting            triclinic
loop_
_symmetry_equiv_pos_as_xyz
'x, y, z'
_cell_length_a     34.302111
_cell_length_b     34.201583
_cell_length_c     11.224815
_cell_angle_alpha  90.14183
_cell_angle_beta   94.99062
_cell_angle_gamma 120.01714
loop_
_atom_site_label
_atom_site_type_symbol
_atom_site_fract_x
_atom_site_fract_y
_atom_site_fract_z
_atom_type_partial_charge
Tb0 Tb 0.09688 0.53343 0.15359 0.0
Eu1 Eu 1.01574 0.57582 0.14998 0.0
C2 C 0.06887 0.54723 0.3664 0.0
C3 C 0.98606 0.46888 0.16075 0.0
C4 C 0.20179 0.5298 0.08273 0.0
C5 C 0.27432 0.53432 0.13955 0.0
C6 C 0.2318 0.5254 0.16799 0.0
C7 C 0.21694 0.54718 -0.02832 0.0
C8 C 0.25967 0.55619 0.94337 0.0
C9 C 0.28759 0.54776 0.02527 0.0
C10 C 0.15368 0.51031 0.10662 0.0
O11 O 0.09074 0.57221 0.00566 0.0
O12 O 1.01758 0.55769 -0.03535 0.0
O13 O 0.08631 0.63525 0.20055 0.0
O14 O 0.13603 0.60572 0.20548 0.0
C15 C 0.05458 0.56115 0.93108 0.0
O16 O 0.98607 0.61711 0.10074 0.0
O17 O 0.96551 0.57571 0.25728 0.0
O18 O 0.05265 0.55471 0.26848 0.0
O19 O 0.09582 0.53261 0.34768 0.0
O20 O 1.02697 0.47444 0.1492 0.0
O21 O 0.97533 0.50096 0.16111 0.0
C22 C 0.12672 0.63864 0.21901 0.0
O23 O 0.1466 0.51758 0.21435 0.0
O24 O 0.12478 0.51185 0.02553 0.0
C25 C 0.90906 0.58448 0.13931 0.0
C26 C 0.82146 0.56862 0.07021 0.0
C27 C 0.85336 0.58308 -0.01281 0.0
C28 C 0.89682 0.59098 0.02115 0.0
C29 C 0.87568 0.5664 0.21972 0.0
C30 C 0.83192 0.55842 0.18524 0.0
C31 C 0.95704 0.60035 0.18138 0.0
H32 H 0.29563 0.5281 0.20448 0.0
H33 H 0.22134 0.51244 0.25459 0.0
H34 H 0.195 0.55157 0.90447 0.0
H35 H 0.26973 0.56719 0.85509 0.0
H36 H 0.84542 0.59064 0.89762 0.0
H37 H 0.9213 0.60423 -0.04395 0.0
H38 H 0.88401 0.56051 0.31072 0.0
H39 H 0.80726 0.54673 0.25003 0.0
Tb40 Tb 0.62471 0.10526 0.49126 0.0
Eu41 Eu 0.49996 1.02465 0.47952 0.0
C42 C 0.58543 0.06965 0.70302 0.0
C43 C 0.57776 0.99457 0.49839 0.0
C44 C 0.73426 0.21033 0.42293 0.0
C45 C 0.80514 0.2813 0.47057 0.0
C46 C 0.77064 0.24009 0.5059 0.0
C47 C 0.73075 0.22471 0.30721 0.0
C48 C 0.76528 0.26605 0.27206 0.0
C49 C 0.80371 0.29328 0.35171 0.0
C50 C 0.705 0.16286 0.45457 0.0
O51 O 0.57865 0.09658 0.33343 0.0
O52 O 0.51802 1.02493 0.29801 0.0
O53 O 0.51233 0.09488 0.52343 0.0
O54 O 0.59201 0.1433 0.53934 0.0
C55 C 0.55494 0.05895 0.26609 0.0
O56 O 0.4282 0.99264 0.42227 0.0
O57 O 0.45154 0.97369 0.5886 0.0
O58 O 0.55784 0.05599 0.60841 0.0
O59 O 0.62655 0.09638 0.68258 0.0
O60 O 0.61356 0.03557 0.4902 0.0
O61 O 0.53508 0.98434 0.49575 0.0
C62 C 0.55004 0.13448 0.54744 0.0
O63 O 0.68937 0.15702 0.55851 0.0
O64 O 0.67539 0.13312 0.37268 0.0
C65 C 0.38693 0.91533 0.4702 0.0
C66 C 0.31761 0.82605 0.41004 0.0
C67 C 0.332 0.85781 0.32205 0.0
C68 C 0.36643 0.90218 0.35167 0.0
C69 C 0.37492 0.88218 0.55556 0.0
C70 C 0.3404 0.83764 0.52552 0.0
C71 C 0.41754 0.96371 0.50731 0.0
H72 H 0.83429 0.30223 0.53388 0.0
H73 H 0.77399 0.23014 0.59609 0.0
H74 H 0.70283 0.20295 0.24178 0.0
H75 H 0.76337 0.27526 0.18034 0.0
H76 H 0.31487 0.84899 0.23199 0.0
H77 H 0.3753 0.92652 0.2829 0.0
H78 H 0.3906 0.89116 0.64695 0.0
H79 H 0.32982 0.81311 0.59404 0.0
Tb80 Tb 0.5762 0.62315 0.82647 0.0
Eu81 Eu 0.53221 0.4992 0.81256 0.0
C82 C 0.56729 0.57802 0.03915 0.0
C83 C 0.6397 0.57623 0.85399 0.0
C84 C 0.58349 0.73519 0.75697 0.0
C85 C 0.58401 0.80503 0.80361 0.0
C86 C 0.59091 0.76971 0.83997 0.0
C87 C 0.56466 0.73419 0.6398 0.0
C88 C 0.55771 0.76958 0.60358 0.0
C89 C 0.5697 0.80622 0.68374 0.0
C90 C 0.60146 0.70499 0.79104 0.0
O91 O 0.53707 0.58303 0.66326 0.0
O92 O 0.55075 0.52417 0.6363 0.0
O93 O 0.47334 0.50998 0.84238 0.0
O94 O 0.50449 0.58957 0.85709 0.0
C95 C 0.54698 0.55804 0.59722 0.0
O96 O 0.49384 0.42933 0.74408 0.0
O97 O 0.53308 0.44637 0.92015 0.0
O98 O 0.5565 0.55323 0.94385 0.0
O99 O 0.5821 0.61978 0.0193 0.0
O100 O 0.63454 0.61201 0.83901 0.0
O101 O 0.60729 0.53349 0.84746 0.0
C102 C 0.47095 0.54722 0.86041 0.0
O103 O 0.59208 0.68709 0.89421 0.0
O104 O 0.60019 0.67679 0.70989 0.0
C105 C 0.5288 0.3858 0.80024 0.0
C106 C 0.5497 0.31824 0.74624 0.0
C107 C 0.53053 0.33343 0.65614 0.0
C108 C 0.52013 0.36687 0.68264 0.0
C109 C 0.55137 0.37287 0.88839 0.0
C110 C 0.56181 0.33925 0.86148 0.0
C111 C 0.51058 0.41536 0.83281 0.0
H112 H 0.59287 0.83285 0.86707 0.0
H113 H 0.60492 0.771 0.93121 0.0
H114 H 0.55787 0.70766 0.57436 0.0
H115 H 0.54594 0.76982 0.51097 0.0
H116 H 0.52147 0.31781 0.5663 0.0
H117 H 0.50339 0.37629 0.61182 0.0
H118 H 0.55908 0.3872 -0.02068 0.0
H119 H 0.57719 0.32819 0.93187 0.0
C120 C 0.35952 0.54663 -0.04146 0.0
C121 C 0.3267 0.54727 -0.01216 0.0
C122 C 0.39653 0.54342 0.92266 0.0
C123 C 0.42917 0.54235 0.89375 0.0
C124 C 0.87716 0.35958 0.26892 0.0
C125 C 0.84384 0.32944 0.30724 0.0
C126 C 0.917 0.39372 0.22398 0.0
C127 C 0.95086 0.4257 0.19356 0.0
C128 C 0.58331 0.92329 0.55908 0.0
C129 C 0.58533 0.95815 0.53029 0.0
C130 C 0.57731 0.88202 0.60194 0.0
C131 C 0.57386 0.8475 0.63932 0.0
C132 C 0.7151 0.58083 0.94183 0.0
C133 C 0.68308 0.58358 0.90049 0.0
C134 C 0.74935 0.57372 -0.00319 0.0
C135 C 0.78071 0.57001 0.03911 0.0
C136 C 0.24085 0.75054 0.35123 0.0
C137 C 0.276 0.78408 0.38442 0.0
C138 C 0.19889 0.71359 0.30601 0.0
C139 C 0.16415 0.68085 0.26618 0.0
C140 C 0.55154 0.24449 0.68649 0.0
C141 C 0.55203 0.27815 0.72125 0.0
C142 C 0.54787 0.2045 0.63789 0.0
C143 C 0.54627 0.17114 0.59612 0.0
C144 C 0.06074 0.56913 0.70373 0.0
C145 C 0.0595 0.56582 0.80856 0.0
C146 C 0.06046 0.56643 0.58119 0.0
C147 C 0.06234 0.55869 0.47968 0.0
C148 C 0.56213 0.05471 0.0402 0.0
C149 C 0.56081 0.05895 0.14428 0.0
C150 C 0.56447 0.0526 0.91879 0.0
C151 C 0.57146 0.05875 0.81733 0.0
C152 C 0.54085 0.55496 0.3682 0.0
C153 C 0.54267 0.5596 0.47314 0.0
C154 C 0.54548 0.5527 0.24881 0.0
C155 C 0.554 0.56005 0.14905 0.0
loop_
_geom_bond_atom_site_label_1
_geom_bond_atom_site_label_2
_geom_bond_distance
_geom_bond_site_symmetry_2
_ccdc_geom_bond_type
Tb0 C10 2.825 . S
Tb0 O11 2.347 . S
Tb0 O14 2.366 . S
Tb0 O19 2.418 . S
Tb0 O20 2.384 1_455 S
Tb0 O23 2.479 . S
Tb0 O24 2.471 . S
Eu1 O12 2.418 1_554 S
Eu1 O13 2.384 1_655 S
Eu1 O16 2.479 . S
Eu1 O17 2.471 . S
Eu1 O18 2.347 1_655 S
Eu1 O21 2.366 . S
Eu1 C31 2.825 . S
C2 O18 1.259 . S
C2 O19 1.265 . S
C3 O20 1.255 . S
C3 O21 1.265 . S
C4 C6 1.380 . S
C4 C7 1.374 . S
C4 C10 1.507 . S
C5 C6 1.384 . S
C5 C9 1.387 . S
C5 H32 0.930 . S
C6 C4 1.380 . S
C6 C5 1.384 . S
C6 H33 0.931 . S
C7 C4 1.374 . S
C7 C8 1.390 . S
C7 H34 0.930 1_554 S
C8 C7 1.390 . S
C8 C9 1.391 . S
C8 H35 0.930 1_554 S
C9 C5 1.387 . S
C9 C8 1.391 . S
C10 Tb0 2.825 . S
C10 C4 1.507 . S
C10 O23 1.238 . S
C10 O24 1.247 . S
O11 Tb0 2.347 . S
O11 C15 1.259 1_554 S
O12 Eu1 2.418 1_556 S
O12 C15 1.265 1_655 S
O13 Eu1 2.384 1_455 S
O13 C22 1.255 . S
O14 Tb0 2.366 . S
O14 C22 1.265 . S
C15 O11 1.259 1_556 S
C15 O12 1.265 1_455 S
O16 Eu1 2.479 . S
O16 C31 1.238 . S
O17 Eu1 2.471 . S
O17 C31 1.247 . S
O18 Eu1 2.347 1_455 S
O18 C2 1.259 . S
O19 Tb0 2.418 . S
O19 C2 1.265 . S
O20 Tb0 2.384 1_655 S
O20 C3 1.255 . S
O21 Eu1 2.366 . S
O21 C3 1.265 . S
C22 O13 1.255 . S
C22 O14 1.265 . S
O23 Tb0 2.479 . S
O23 C10 1.238 . S
O24 Tb0 2.471 . S
O24 C10 1.247 . S
C25 C28 1.380 . S
C25 C29 1.374 . S
C25 C31 1.507 . S
C26 C27 1.387 . S
C26 C30 1.391 . S
C27 C26 1.387 . S
C27 C28 1.384 . S
C27 H36 0.930 . S
C28 C25 1.380 . S
C28 C27 1.384 . S
C28 H37 0.931 . S
C29 C25 1.374 . S
C29 C30 1.390 . S
C29 H38 0.930 . S
C30 C26 1.391 . S
C30 C29 1.390 . S
C30 H39 0.930 . S
C31 Eu1 2.825 . S
C31 O16 1.238 . S
C31 O17 1.247 . S
C31 C25 1.507 . S
H32 C5 0.930 . S
H33 C6 0.931 . S
H34 C7 0.930 1_556 S
H35 C8 0.930 1_556 S
H36 C27 0.930 . S
H37 C28 0.931 . S
H38 C29 0.930 . S
H39 C30 0.930 . S
Tb40 C50 2.825 . S
Tb40 O51 2.347 . S
Tb40 O54 2.366 . S
Tb40 O59 2.418 . S
Tb40 O60 2.384 1_545 S
Tb40 O63 2.479 . S
Tb40 O64 2.471 . S
Eu41 O52 2.416 . S
Eu41 O53 2.403 . S
Eu41 O56 2.468 1_545 S
Eu41 O57 2.460 1_545 S
Eu41 O58 2.345 . S
Eu41 O61 2.347 1_545 S
Eu41 C71 2.812 1_545 S
C42 O58 1.259 . S
C42 O59 1.265 . S
C43 O60 1.255 . S
C43 O61 1.265 . S
C44 C46 1.380 . S
C44 C47 1.374 . S
C44 C50 1.507 . S
C45 C46 1.384 . S
C45 C49 1.387 . S
C45 H72 0.930 . S
C46 C44 1.380 . S
C46 C45 1.384 . S
C46 H73 0.931 . S
C47 C44 1.374 . S
C47 C48 1.390 . S
C47 H74 0.930 . S
C48 C47 1.390 . S
C48 C49 1.391 . S
C48 H75 0.930 . S
C49 C45 1.387 . S
C49 C48 1.391 . S
C50 Tb40 2.825 . S
C50 C44 1.507 . S
C50 O63 1.238 . S
C50 O64 1.247 . S
O51 Tb40 2.347 . S
O51 C55 1.259 . S
O52 Eu41 2.416 . S
O52 C55 1.265 . S
O53 Eu41 2.403 . S
O53 C62 1.255 . S
O54 Tb40 2.366 . S
O54 C62 1.265 . S
C55 O51 1.259 . S
C55 O52 1.265 . S
O56 Eu41 2.468 1_565 S
O56 C71 1.238 . S
O57 Eu41 2.460 1_565 S
O57 C71 1.247 . S
O58 Eu41 2.345 . S
O58 C42 1.259 . S
O59 Tb40 2.418 . S
O59 C42 1.265 . S
O60 Tb40 2.384 1_565 S
O60 C43 1.255 . S
O61 Eu41 2.347 1_565 S
O61 C43 1.265 . S
C62 O53 1.255 . S
C62 O54 1.265 . S
O63 Tb40 2.479 . S
O63 C50 1.238 . S
O64 Tb40 2.471 . S
O64 C50 1.247 . S
C65 C68 1.380 . S
C65 C69 1.374 . S
C65 C71 1.507 . S
C66 C67 1.387 . S
C66 C70 1.391 . S
C67 C66 1.387 . S
C67 C68 1.384 . S
C67 H76 0.930 . S
C68 C65 1.380 . S
C68 C67 1.384 . S
C68 H77 0.931 . S
C69 C65 1.374 . S
C69 C70 1.390 . S
C69 H78 0.930 . S
C70 C66 1.391 . S
C70 C69 1.390 . S
C70 H79 0.930 . S
C71 Eu41 2.812 1_565 S
C71 O56 1.238 . S
C71 O57 1.247 . S
C71 C65 1.507 . S
H72 C45 0.930 . S
H73 C46 0.931 . S
H74 C47 0.930 . S
H75 C48 0.930 . S
H76 C67 0.930 . S
H77 C68 0.931 . S
H78 C69 0.930 . S
H79 C70 0.930 . S
Tb80 C90 2.825 . S
Tb80 O91 2.347 . S
Tb80 O94 2.366 . S
Tb80 O99 2.418 1_556 S
Tb80 O100 2.384 . S
Tb80 O103 2.479 . S
Tb80 O104 2.471 . S
Eu81 O92 2.418 . S
Eu81 O93 2.384 . S
Eu81 O96 2.479 . S
Eu81 O97 2.471 . S
Eu81 O98 2.347 . S
Eu81 O101 2.366 . S
Eu81 C111 2.825 . S
C82 O98 1.259 1_554 S
C82 O99 1.265 . S
C83 O100 1.255 . S
C83 O101 1.265 . S
C84 C86 1.380 . S
C84 C87 1.374 . S
C84 C90 1.507 . S
C85 C86 1.384 . S
C85 C89 1.387 . S
C85 H112 0.930 . S
C86 C84 1.380 . S
C86 C85 1.384 . S
C86 H113 0.931 1_556 S
C87 C84 1.374 . S
C87 C88 1.390 . S
C87 H114 0.930 . S
C88 C87 1.390 . S
C88 C89 1.391 . S
C88 H115 0.930 . S
C89 C85 1.387 . S
C89 C88 1.391 . S
C90 Tb80 2.825 . S
C90 C84 1.507 . S
C90 O103 1.238 . S
C90 O104 1.247 . S
O91 Tb80 2.347 . S
O91 C95 1.259 . S
O92 Eu81 2.418 . S
O92 C95 1.265 . S
O93 Eu81 2.384 . S
O93 C102 1.255 . S
O94 Tb80 2.366 . S
O94 C102 1.265 . S
C95 O91 1.259 . S
C95 O92 1.265 . S
O96 Eu81 2.479 . S
O96 C111 1.238 . S
O97 Eu81 2.471 . S
O97 C111 1.247 . S
O98 Eu81 2.347 . S
O98 C82 1.259 1_556 S
O99 Tb80 2.418 1_554 S
O99 C82 1.265 . S
O100 Tb80 2.384 . S
O100 C83 1.255 . S
O101 Eu81 2.366 . S
O101 C83 1.265 . S
C102 O93 1.255 . S
C102 O94 1.265 . S
O103 Tb80 2.479 . S
O103 C90 1.238 . S
O104 Tb80 2.471 . S
O104 C90 1.247 . S
C105 C108 1.380 . S
C105 C109 1.374 . S
C105 C111 1.507 . S
C106 C107 1.387 . S
C106 C110 1.391 . S
C107 C106 1.387 . S
C107 C108 1.384 . S
C107 H116 0.930 . S
C108 C105 1.380 . S
C108 C107 1.384 . S
C108 H117 0.931 . S
C109 C105 1.374 . S
C109 C110 1.390 . S
C109 H118 0.930 1_556 S
C110 C106 1.391 . S
C110 C109 1.390 . S
C110 H119 0.930 1_556 S
C111 Eu81 2.825 . S
C111 O96 1.238 . S
C111 O97 1.247 . S
C111 C105 1.507 . S
H112 C85 0.930 . S
H113 C86 0.931 1_554 S
H114 C87 0.930 . S
H115 C88 0.930 . S
H116 C107 0.930 . S
H117 C108 0.931 . S
H118 C109 0.930 1_554 S
H119 C110 0.930 1_554 S
C120 C121 1.170 . S
C120 C122 1.380 1_554 S
C121 C120 1.170 . S
C122 C120 1.380 1_556 S
C122 C123 1.170 . S
C123 C122 1.170 . S
C124 C125 1.170 . S
C124 C126 1.380 . S
C125 C124 1.170 . S
C126 C124 1.380 . S
C126 C127 1.170 . S
C127 C126 1.170 . S
C128 C129 1.170 . S
C128 C130 1.380 . S
C129 C128 1.170 . S
C130 C128 1.380 . S
C130 C131 1.170 . S
C131 C130 1.170 . S
C132 C133 1.170 . S
C132 C134 1.380 1_556 S
C133 C132 1.170 . S
C134 C132 1.380 1_554 S
C134 C135 1.170 . S
C135 C134 1.170 . S
C136 C137 1.170 . S
C136 C138 1.380 . S
C137 C136 1.170 . S
C138 C136 1.380 . S
C138 C139 1.170 . S
C139 C138 1.170 . S
C140 C141 1.170 . S
C140 C142 1.380 . S
C141 C140 1.170 . S
C142 C140 1.380 . S
C142 C143 1.170 . S
C143 C142 1.170 . S
C144 C145 1.170 . S
C144 C146 1.380 . S
C145 C144 1.170 . S
C146 C144 1.380 . S
C146 C147 1.170 . S
C147 C146 1.170 . S
C148 C149 1.170 . S
C148 C150 1.380 1_554 S
C149 C148 1.170 . S
C150 C148 1.380 1_556 S
C150 C151 1.170 . S
C151 C150 1.170 . S
C152 C153 1.170 . S
C152 C154 1.380 . S
C153 C152 1.170 . S
C154 C152 1.380 . S
C154 C155 1.170 . S
C155 C154 1.170 . S
C121 C9 1.907 . S
C123 C102 1.885 . S
C125 C49 2.036 . S
C127 C3 2.013 . S
C129 C43 1.915 . S
C131 C89 1.937 . S
C133 C83 2.093 . S
C135 C26 2.059 . S
C137 C66 1.933 . S
C139 C22 1.966 . S
C141 C106 2.024 . S
C143 C62 2.052 . S
C145 C15 0.685 . S
C147 C2 0.762 . S
C149 C55 0.729 . S
C151 C42 0.675 . S
C153 C95 0.751 . S
C155 C82 0.703 . S
