# Generated by pormake.
# Topology hjm, (4)-cn, num edge types: 1
# Building blocks:
#     Node 0, Type 0, BuildingBlock: QUQFOY_clean_sbu_3, # of connection points: 4
#     Node 1, Type 0, BuildingBlock: QUQFOY_clean_sbu_3, # of connection points: 4
#     Node 2, Type 0, BuildingBlock: QUQFOY_clean_sbu_3, # of connection points: 4
#     Node 3, Type 0, BuildingBlock: QUQFOY_clean_sbu_3, # of connection points: 4
#     Node 4, Type 0, BuildingBlock: QUQFOY_clean_sbu_3, # of connection points: 4
#     Node 5, Type 0, BuildingBlock: QUQFOY_clean_sbu_3, # of connection points: 4
#     Node 6, Type 0, BuildingBlock: QUQFOY_clean_sbu_3, # of connection points: 4
#     Node 7, Type 0, BuildingBlock: QUQFOY_clean_sbu_3, # of connection points: 4
#     Edge 8, Type (0, 0), None
#     Edge 9, Type (0, 0), None
#     Edge 10, Type (0, 0), None
#     Edge 11, Type (0, 0), None
#     Edge 12, Type (0, 0), None
#     Edge 13, Type (0, 0), None
#     Edge 14, Type (0, 0), None
#     Edge 15, Type (0, 0), None
#     Edge 16, Type (0, 0), None
#     Edge 17, Type (0, 0), None
#     Edge 18, Type (0, 0), None
#     Edge 19, Type (0, 0), None
#     Edge 20, Type (0, 0), None
#     Edge 21, Type (0, 0), None
#     Edge 22, Type (0, 0), None
#     Edge 23, Type (0, 0), None
# Relax obj value: 0.090
# Max RMSD: 0.133
# Mean RMSD: 0.133
data_MOF--net-hjm--node1-QUQFOY_clean_sbu_3--edge1-none
_symmetry_space_group_name_H-M    P1
_symmetry_Int_Tables_number       1
_symmetry_cell_setting            triclinic
loop_
_symmetry_equiv_pos_as_xyz
'x, y, z'
_cell_length_a     13.046751
_cell_length_b     11.785846
_cell_length_c     13.251333
_cell_angle_alpha  89.99719
_cell_angle_beta   59.857406
_cell_angle_gamma 89.995424
loop_
_atom_site_label
_atom_site_type_symbol
_atom_site_fract_x
_atom_site_fract_y
_atom_site_fract_z
_atom_type_partial_charge
C0 C 0.21383 0.253 0.03962 0.0
O1 O 0.19729 0.3564 0.06896 0.0
Cd2 Cd 0.20642 0.43565 0.22779 0.0
O3 O 0.21651 0.17702 0.10722 0.0
Cd4 Cd 0.17862 0.1822 0.31445 0.0
C5 C 0.44821 0.2933 0.20918 0.0
O6 O 0.04753 0.34874 0.39056 0.0
O7 O 0.16167 0.31616 0.46021 0.0
O8 O 0.03258 0.02303 0.40291 0.0
C9 C 0.07303 0.36856 0.46885 0.0
O10 O 0.39922 0.3869 0.2092 0.0
C11 C 0.08163 -0.02043 0.45601 0.0
O12 O 0.39126 0.20017 0.23373 0.0
O13 O 0.17586 0.02702 0.43983 0.0
C14 C 0.80681 0.25296 0.35003 0.0
O15 O 0.82333 0.35637 0.32069 0.0
Cd16 Cd 0.8142 0.43563 0.16187 0.0
O17 O 0.80413 0.17699 0.28243 0.0
Cd18 Cd 0.84201 0.18218 0.0752 0.0
C19 C 0.57242 0.2933 0.18047 0.0
O20 O 0.9731 0.34871 -0.0009 0.0
O21 O 0.85897 0.31617 0.92944 0.0
O22 O 0.98806 0.02301 -0.01327 0.0
C23 C 0.94761 0.36855 0.9208 0.0
O24 O 0.6214 0.3869 0.18046 0.0
C25 C 0.93901 -0.02043 0.93363 0.0
O26 O 0.62938 0.20017 0.15592 0.0
O27 O 0.84478 0.02702 -0.05019 0.0
C28 C 0.02302 0.46467 0.54822 0.0
O29 O 0.08065 0.49934 0.59673 0.0
Cd30 Cd 0.04447 0.67379 0.74611 0.0
O31 O 0.92618 0.51211 0.56644 0.0
Cd32 Cd 0.79157 0.68385 0.68389 0.0
C33 C 0.02981 0.88197 0.53677 0.0
O34 O 0.8144 0.65564 0.85755 0.0
O35 O 0.69243 0.78338 0.87402 0.0
O36 O 0.62077 0.57928 0.69376 0.0
C37 C 0.73507 0.72424 0.92331 0.0
O38 O 0.08136 0.8458 0.59191 0.0
C39 C 0.56941 0.6692 0.68934 0.0
O40 O 0.93235 0.83845 0.55327 0.0
O41 O 0.62451 0.76167 0.67552 0.0
C42 C 0.99761 0.46467 0.84144 0.0
O43 O 0.93999 0.49935 0.79292 0.0
Cd44 Cd 0.97617 0.6738 0.64354 0.0
O45 O 0.09446 0.51209 0.82321 0.0
Cd46 Cd 0.22908 0.68382 0.70576 0.0
C47 C 0.99084 0.88197 0.85287 0.0
O48 O 0.20624 0.65562 0.5321 0.0
O49 O 0.32823 0.78332 0.51561 0.0
O50 O 0.39989 0.57927 0.69591 0.0
C51 C 0.28557 0.7242 0.46634 0.0
O52 O 0.93928 0.84581 0.79773 0.0
C53 C 0.45123 0.66919 0.70031 0.0
O54 O 0.08829 0.83842 0.83637 0.0
O55 O 0.39611 0.76166 0.71414 0.0
C56 C 0.71383 0.75297 0.03961 0.0
O57 O 0.69732 0.85638 0.06893 0.0
Cd58 Cd 0.70642 0.93563 0.22777 0.0
O59 O 0.71649 0.677 0.10723 0.0
Cd60 Cd 0.67861 0.68219 0.31445 0.0
C61 C 0.9482 0.79328 0.20918 0.0
O62 O 0.54753 0.84874 0.39056 0.0
O63 O 0.66167 0.81616 0.4602 0.0
O64 O 0.53256 0.52304 0.40292 0.0
C65 C 0.57303 0.86856 0.46885 0.0
O66 O 0.89922 0.88689 0.20919 0.0
C67 C 0.58161 0.47957 0.45602 0.0
O68 O 0.89125 0.70016 0.23373 0.0
O69 O 0.67585 0.52701 0.43983 0.0
C70 C 0.3068 0.75294 0.35003 0.0
O71 O 0.32331 0.85635 0.32072 0.0
Cd72 Cd 0.31419 0.93561 0.16188 0.0
O73 O 0.30415 0.67697 0.28242 0.0
Cd74 Cd 0.34202 0.68218 0.07519 0.0
C75 C 0.07242 0.79328 0.18047 0.0
O76 O 0.4731 0.84872 -0.0009 0.0
O77 O 0.35897 0.81617 0.92944 0.0
O78 O 0.48808 0.52301 -0.01328 0.0
C79 C 0.44761 0.86855 0.9208 0.0
O80 O 0.1214 0.88688 0.18046 0.0
C81 C 0.43904 0.47957 0.93362 0.0
O82 O 0.12938 0.70015 0.15592 0.0
O83 O 0.34479 0.52702 -0.05019 0.0
C84 C 0.52302 -0.03533 0.54822 0.0
O85 O 0.58065 -0.00066 0.59673 0.0
Cd86 Cd 0.54448 0.17379 0.7461 0.0
O87 O 0.42617 0.01211 0.56645 0.0
Cd88 Cd 0.29156 0.18385 0.68391 0.0
C89 C 0.52978 0.38197 0.53677 0.0
O90 O 0.31441 0.15565 0.85757 0.0
O91 O 0.19241 0.28338 0.87403 0.0
O92 O 0.12077 0.07927 0.69377 0.0
C93 C 0.23513 0.22429 0.92329 0.0
O94 O 0.58135 0.34581 0.59191 0.0
C95 C 0.06941 0.16919 0.68935 0.0
O96 O 0.43233 0.33844 0.55328 0.0
O97 O 0.12451 0.26166 0.67553 0.0
C98 C 0.49762 -0.03534 0.84144 0.0
O99 O 0.43999 -0.00065 0.79292 0.0
Cd100 Cd 0.47616 0.1738 0.64355 0.0
O101 O 0.59446 0.01208 0.82321 0.0
Cd102 Cd 0.72909 0.18381 0.70575 0.0
C103 C 0.49086 0.38197 0.85287 0.0
O104 O 0.70623 0.15563 0.53209 0.0
O105 O 0.82825 0.28332 0.5156 0.0
O106 O 0.89989 0.07926 0.6959 0.0
C107 C 0.78552 0.22425 0.46636 0.0
O108 O 0.4393 0.34581 0.79773 0.0
C109 C 0.95123 0.16918 0.70031 0.0
O110 O 0.58831 0.33842 0.83636 0.0
O111 O 0.89611 0.26165 0.71413 0.0
loop_
_geom_bond_atom_site_label_1
_geom_bond_atom_site_label_2
_geom_bond_distance
_geom_bond_site_symmetry_2
_ccdc_geom_bond_type
C0 O1 1.306 . S
C0 O3 1.160 . S
O1 C0 1.306 . S
O1 Cd2 2.228 . S
Cd2 O1 2.228 . S
Cd2 O6 2.273 . S
Cd2 O10 2.277 . S
O3 C0 1.160 . S
O3 Cd4 2.203 . S
Cd4 O3 2.203 . S
Cd4 O6 2.411 . S
Cd4 O7 2.333 . S
Cd4 O8 2.352 . S
Cd4 O12 2.277 . S
Cd4 O13 2.356 . S
C5 O10 1.209 . S
C5 O12 1.226 . S
O6 Cd2 2.273 . S
O6 Cd4 2.411 . S
O6 C9 1.320 . S
O7 Cd4 2.333 . S
O7 C9 1.214 . S
O8 Cd4 2.352 . S
O8 C11 1.258 . S
C9 O6 1.320 . S
C9 O7 1.214 . S
O10 Cd2 2.277 . S
O10 C5 1.209 . S
C11 O8 1.258 . S
C11 O13 1.282 . S
O12 Cd4 2.277 . S
O12 C5 1.226 . S
O13 Cd4 2.356 . S
O13 C11 1.282 . S
C14 O15 1.306 . S
C14 O17 1.160 . S
O15 C14 1.306 . S
O15 Cd16 2.228 . S
Cd16 O15 2.228 . S
Cd16 O20 2.273 . S
Cd16 O24 2.277 . S
O17 C14 1.160 . S
O17 Cd18 2.203 . S
Cd18 O17 2.203 . S
Cd18 O20 2.411 . S
Cd18 O21 2.333 1_554 S
Cd18 O22 2.352 . S
Cd18 O26 2.277 . S
Cd18 O27 2.356 . S
C19 O24 1.209 . S
C19 O26 1.226 . S
O20 Cd16 2.273 . S
O20 Cd18 2.411 . S
O20 C23 1.320 . S
O21 Cd18 2.333 1_556 S
O21 C23 1.214 1_556 S
O22 Cd18 2.352 . S
O22 C25 1.258 . S
C23 O20 1.320 . S
C23 O21 1.214 1_554 S
O24 Cd16 2.277 . S
O24 C19 1.209 . S
C25 O22 1.258 . S
C25 O27 1.282 . S
O26 Cd18 2.277 . S
O26 C19 1.226 . S
O27 Cd18 2.356 . S
O27 C25 1.282 . S
C28 O29 1.306 1_655 S
C28 O31 1.160 . S
O29 C28 1.306 1_455 S
O29 Cd30 2.228 . S
Cd30 O29 2.228 . S
Cd30 O34 2.273 1_455 S
Cd30 O38 2.277 . S
O31 C28 1.160 . S
O31 Cd32 2.203 . S
Cd32 O31 2.203 . S
Cd32 O34 2.411 . S
Cd32 O35 2.333 . S
Cd32 O36 2.352 . S
Cd32 O40 2.277 . S
Cd32 O41 2.356 . S
C33 O38 1.209 1_655 S
C33 O40 1.226 . S
O34 Cd30 2.273 1_655 S
O34 Cd32 2.411 . S
O34 C37 1.320 . S
O35 Cd32 2.333 . S
O35 C37 1.214 . S
O36 Cd32 2.352 . S
O36 C39 1.258 . S
C37 O34 1.320 . S
C37 O35 1.214 . S
O38 Cd30 2.277 . S
O38 C33 1.209 1_455 S
C39 O36 1.258 . S
C39 O41 1.282 . S
O40 Cd32 2.277 . S
O40 C33 1.226 . S
O41 Cd32 2.356 . S
O41 C39 1.282 . S
C42 O43 1.306 1_455 S
C42 O45 1.160 . S
O43 C42 1.306 1_655 S
O43 Cd44 2.228 . S
Cd44 O43 2.228 . S
Cd44 O48 2.273 1_655 S
Cd44 O52 2.277 . S
O45 C42 1.160 . S
O45 Cd46 2.203 . S
Cd46 O45 2.203 . S
Cd46 O48 2.411 . S
Cd46 O49 2.333 . S
Cd46 O50 2.352 . S
Cd46 O54 2.277 . S
Cd46 O55 2.356 . S
C47 O52 1.209 1_455 S
C47 O54 1.226 . S
O48 Cd44 2.273 1_455 S
O48 Cd46 2.411 . S
O48 C51 1.320 . S
O49 Cd46 2.333 . S
O49 C51 1.214 . S
O50 Cd46 2.352 . S
O50 C53 1.258 . S
C51 O48 1.320 . S
C51 O49 1.214 . S
O52 Cd44 2.277 . S
O52 C47 1.209 1_655 S
C53 O50 1.258 . S
C53 O55 1.282 . S
O54 Cd46 2.277 . S
O54 C47 1.226 . S
O55 Cd46 2.356 . S
O55 C53 1.282 . S
C56 O57 1.306 . S
C56 O59 1.160 . S
O57 C56 1.306 . S
O57 Cd58 2.228 1_565 S
Cd58 O57 2.228 1_545 S
Cd58 O62 2.273 1_545 S
Cd58 O66 2.277 1_545 S
O59 C56 1.160 . S
O59 Cd60 2.203 . S
Cd60 O59 2.203 . S
Cd60 O62 2.411 . S
Cd60 O63 2.333 . S
Cd60 O64 2.352 . S
Cd60 O68 2.277 . S
Cd60 O69 2.356 . S
C61 O66 1.209 . S
C61 O68 1.226 . S
O62 Cd58 2.273 1_565 S
O62 Cd60 2.411 . S
O62 C65 1.320 . S
O63 Cd60 2.333 . S
O63 C65 1.214 . S
O64 Cd60 2.352 . S
O64 C67 1.258 . S
C65 O62 1.320 . S
C65 O63 1.214 . S
O66 Cd58 2.277 1_565 S
O66 C61 1.209 . S
C67 O64 1.258 . S
C67 O69 1.282 . S
O68 Cd60 2.277 . S
O68 C61 1.226 . S
O69 Cd60 2.356 . S
O69 C67 1.282 . S
C70 O71 1.306 . S
C70 O73 1.160 . S
O71 C70 1.306 . S
O71 Cd72 2.228 1_565 S
Cd72 O71 2.228 1_545 S
Cd72 O76 2.273 1_545 S
Cd72 O80 2.277 1_545 S
O73 C70 1.160 . S
O73 Cd74 2.203 . S
Cd74 O73 2.203 . S
Cd74 O76 2.411 . S
Cd74 O77 2.333 1_554 S
Cd74 O78 2.352 . S
Cd74 O82 2.277 . S
Cd74 O83 2.356 . S
C75 O80 1.209 . S
C75 O82 1.226 . S
O76 Cd72 2.273 1_565 S
O76 Cd74 2.411 . S
O76 C79 1.320 . S
O77 Cd74 2.333 1_556 S
O77 C79 1.214 1_556 S
O78 Cd74 2.352 . S
O78 C81 1.258 . S
C79 O76 1.320 . S
C79 O77 1.214 1_554 S
O80 Cd72 2.277 1_565 S
O80 C75 1.209 . S
C81 O78 1.258 . S
C81 O83 1.282 . S
O82 Cd74 2.277 . S
O82 C75 1.226 . S
O83 Cd74 2.356 . S
O83 C81 1.282 . S
C84 O85 1.306 . S
C84 O87 1.160 . S
O85 C84 1.306 . S
O85 Cd86 2.228 . S
Cd86 O85 2.228 . S
Cd86 O90 2.273 . S
Cd86 O94 2.277 . S
O87 C84 1.160 . S
O87 Cd88 2.203 . S
Cd88 O87 2.203 . S
Cd88 O90 2.411 . S
Cd88 O91 2.333 . S
Cd88 O92 2.352 . S
Cd88 O96 2.277 . S
Cd88 O97 2.356 . S
C89 O94 1.209 . S
C89 O96 1.226 . S
O90 Cd86 2.273 . S
O90 Cd88 2.411 . S
O90 C93 1.320 . S
O91 Cd88 2.333 . S
O91 C93 1.214 . S
O92 Cd88 2.352 . S
O92 C95 1.258 . S
C93 O90 1.320 . S
C93 O91 1.214 . S
O94 Cd86 2.277 . S
O94 C89 1.209 . S
C95 O92 1.258 . S
C95 O97 1.282 . S
O96 Cd88 2.277 . S
O96 C89 1.226 . S
O97 Cd88 2.356 . S
O97 C95 1.282 . S
C98 O99 1.306 . S
C98 O101 1.160 . S
O99 C98 1.306 . S
O99 Cd100 2.228 . S
Cd100 O99 2.228 . S
Cd100 O104 2.273 . S
Cd100 O108 2.277 . S
O101 C98 1.160 . S
O101 Cd102 2.203 . S
Cd102 O101 2.203 . S
Cd102 O104 2.411 . S
Cd102 O105 2.333 . S
Cd102 O106 2.352 . S
Cd102 O110 2.277 . S
Cd102 O111 2.356 . S
C103 O108 1.209 . S
C103 O110 1.226 . S
O104 Cd100 2.273 . S
O104 Cd102 2.411 . S
O104 C107 1.320 . S
O105 Cd102 2.333 . S
O105 C107 1.214 . S
O106 Cd102 2.352 . S
O106 C109 1.258 . S
C107 O104 1.320 . S
C107 O105 1.214 . S
O108 Cd100 2.277 . S
O108 C103 1.209 . S
C109 O106 1.258 . S
C109 O111 1.282 . S
O110 Cd102 2.277 . S
O110 C103 1.226 . S
O111 Cd102 2.356 . S
O111 C109 1.282 . S
C11 C33 1.919 1_445 S
C47 C25 1.919 1_466 S
C89 C67 1.919 . S
C81 C103 1.919 1_554 S
C23 C42 1.446 1_654 S
C9 C28 1.446 1_455 S
C98 C79 1.446 1_546 S
C65 C84 1.446 1_565 S
C70 C51 1.537 . S
C37 C56 1.537 1_556 S
C14 C107 1.537 . S
C0 C93 1.537 1_554 S
C5 C19 1.614 . S
C39 C53 1.596 . S
C75 C61 1.614 1_455 S
C95 C109 1.596 1_455 S
