# Generated by pormake.
# Topology pcu, (6)-cn, num edge types: 1
# Building blocks:
#     Node 0, Type 0, BuildingBlock: INOVEN_clean_sbu_0, # of connection points: 6
#     Edge 1, Type (0, 0), BuildingBlock: CIFDUS_clean_linker_0, # of connection points: 2
#     Edge 2, Type (0, 0), BuildingBlock: CIFDUS_clean_linker_0, # of connection points: 2
#     Edge 3, Type (0, 0), BuildingBlock: CIFDUS_clean_linker_0, # of connection points: 2
# Relax obj value: 0.000
# Max RMSD: 0.000
# Mean RMSD: 0.000
data_MOF--net-pcu--node1-INOVEN_clean_sbu_0--edge1-CIFDUS_clean_linker_0
_symmetry_space_group_name_H-M    P1
_symmetry_Int_Tables_number       1
_symmetry_cell_setting            triclinic
loop_
_symmetry_equiv_pos_as_xyz
'x, y, z'
_cell_length_a     23.583904
_cell_length_b     13.579651
_cell_length_c     12.632825
_cell_angle_alpha  85.583807
_cell_angle_beta   97.760142
_cell_angle_gamma 124.51281
loop_
_atom_site_label
_atom_site_type_symbol
_atom_site_fract_x
_atom_site_fract_y
_atom_site_fract_z
_atom_type_partial_charge
Gd0 Gd 0.95259 0.91578 0.01303 0.0
Gd1 Gd 0.10896 0.05334 1.01222 0.0
C2 C 0.04707 0.20801 1.009 0.0
C3 C 0.8285 0.83464 0.05379 0.0
C4 C 0.78082 0.87352 0.04407 0.0
C5 C 0.71232 0.79565 0.99847 0.0
C6 C 0.80209 -0.01392 0.08036 0.0
C7 C 0.6865 0.94149 0.02607 0.0
C8 C 0.75543 0.01972 0.0714 0.0
C9 C 0.66567 0.82917 0.9894 0.0
C10 C 0.99618 0.95656 0.81761 0.0
C11 C 1.01448 0.76114 0.01595 0.0
C12 C 0.23319 0.13472 0.97205 0.0
C13 C 0.28085 0.09579 0.98161 0.0
C14 C 0.34936 0.1736 0.0272 0.0
C15 C 0.25954 0.98326 0.9452 0.0
C16 C 0.37512 0.02774 0.99936 0.0
C17 C 0.30618 0.94957 0.95404 0.0
C18 C 0.39598 0.14004 0.03615 0.0
C19 C 0.065 0.01251 0.2075 0.0
O20 O 0.98908 0.10823 0.03368 0.0
O21 O 0.09901 0.20745 0.98178 0.0
O22 O 0.8419 0.8132 0.96441 0.0
O23 O 0.88304 0.88933 0.12464 0.0
O24 O 0.93915 0.86003 0.84273 0.0
O25 O 1.02478 0.02929 0.89425 0.0
O26 O 0.07246 0.86093 0.99126 0.0
O27 O 0.96256 0.76168 0.04331 0.0
O28 O 0.21957 0.15549 0.06153 0.0
O29 O 0.17882 0.08053 0.90085 0.0
O30 O 0.12198 0.10923 0.18246 0.0
O31 O 0.03683 0.93985 0.13086 0.0
H32 H 0.69481 0.7085 0.96976 0.0
H33 H 0.85457 0.0478 0.11632 0.0
H34 H 0.77312 0.10634 0.10156 0.0
H35 H 0.61343 0.76742 0.95252 0.0
H36 H 0.36689 0.26072 0.05601 0.0
H37 H 0.20705 0.9216 0.90924 0.0
H38 H 0.28847 0.86297 0.9238 0.0
H39 H 0.44823 0.20173 0.07303 0.0
H40 H 0.12677 0.15503 0.38242 0.0
H41 H 0.95277 0.80595 0.27477 0.0
H42 H 0.91629 0.75734 0.45446 0.0
H43 H 0.93426 0.81389 0.64265 0.0
H44 H 0.10837 0.16294 0.75024 0.0
H45 H 0.14478 0.21152 0.57055 0.0
C46 C 0.08084 0.06841 0.39842 0.0
C47 C 0.04244 0.98423 0.31564 0.0
C48 C 0.06042 0.04095 0.502 0.0
C49 C 0.98307 0.87232 0.33726 0.0
C50 C 0.96227 0.84441 0.43999 0.0
C51 C 0.98019 0.9005 0.62662 0.0
C52 C 1.01864 -0.01532 0.7094 0.0
C53 C 1.00062 0.92793 0.52303 0.0
C54 C 0.07803 0.09656 0.68776 0.0
C55 C 0.09879 0.12447 0.58503 0.0
H56 H 0.51133 0.16661 0.96461 0.0
H57 H 0.35135 0.80922 0.05446 0.0
H58 H 0.43297 0.75118 0.0696 0.0
H59 H 0.55027 0.80257 0.06072 0.0
H60 H 0.71023 0.15997 0.97085 0.0
H61 H 0.62861 0.21799 0.95567 0.0
C62 C 0.49439 0.07629 0.98856 0.0
C63 C 0.42511 -0.00743 1.00835 0.0
C64 C 0.54177 0.04363 0.99799 0.0
C65 C 0.40399 0.87528 0.03738 0.0
C66 C 0.4508 0.84213 0.04677 0.0
C67 C 0.5672 0.89289 0.03675 0.0
C68 C 0.63649 0.97662 0.01698 0.0
C69 C 0.51981 0.92554 0.0273 0.0
C70 C 0.65759 0.0939 0.98792 0.0
C71 C 0.61078 0.12704 0.97851 0.0
H72 H 0.11443 0.729 0.9827 0.0
H73 H 0.90259 0.53685 0.0539 0.0
H74 H 0.89433 0.34918 0.0584 0.0
H75 H 0.9471 0.24014 0.04213 0.0
H76 H 0.15894 0.43228 0.97095 0.0
H77 H 0.16719 0.61995 0.9664 0.0
C78 C 0.06635 0.64624 0.99893 0.0
C79 C 1.00924 0.64725 0.01779 0.0
C80 C 0.06195 0.53873 1.00158 0.0
C81 C 0.94744 0.5389 0.03918 0.0
C82 C 0.94262 0.43143 0.04178 0.0
C83 C 0.99518 0.3229 0.02589 0.0
C84 C 0.05229 0.32189 1.00706 0.0
C85 C 0.99958 0.43041 0.02322 0.0
C86 C 0.11409 0.43024 0.98565 0.0
C87 C 0.11891 0.5377 0.98302 0.0
loop_
_geom_bond_atom_site_label_1
_geom_bond_atom_site_label_2
_geom_bond_distance
_geom_bond_site_symmetry_2
_ccdc_geom_bond_type
Gd0 C3 2.818 . S
Gd0 O20 2.377 1_565 S
Gd0 O22 2.448 . S
Gd0 O23 2.506 1_556 S
Gd0 O24 2.435 . S
Gd0 O25 2.717 1_665 S
Gd0 O27 2.395 . S
Gd0 O31 2.327 1_556 S
Gd1 C12 2.818 . S
Gd1 O21 2.395 . S
Gd1 O25 2.327 1_554 S
Gd1 O26 2.377 1_545 S
Gd1 O28 2.448 . S
Gd1 O29 2.506 1_554 S
Gd1 O30 2.435 . S
Gd1 O31 2.717 1_445 S
C2 O20 1.240 1_455 S
C2 O21 1.240 1_556 S
C3 Gd0 2.818 . S
C3 C4 1.510 . S
C3 O22 1.249 . S
C3 O23 1.252 1_556 S
C4 C3 1.510 . S
C4 C5 1.404 . S
C4 C6 1.352 1_566 S
C5 C4 1.404 . S
C5 C9 1.389 . S
C5 H32 0.930 . S
C6 C4 1.352 1_544 S
C6 C8 1.374 . S
C6 H33 0.931 . S
C7 C8 1.359 1_565 S
C7 C9 1.364 1_554 S
C8 C6 1.374 . S
C8 C7 1.359 1_545 S
C8 H34 0.931 . S
C9 C5 1.389 . S
C9 C7 1.364 1_556 S
C9 H35 0.931 . S
C10 O24 1.256 . S
C10 O25 1.257 1_665 S
C11 O26 1.240 1_655 S
C11 O27 1.240 1_554 S
C12 Gd1 2.818 . S
C12 C13 1.510 . S
C12 O28 1.249 . S
C12 O29 1.252 1_554 S
C13 C12 1.510 . S
C13 C14 1.404 . S
C13 C15 1.352 1_544 S
C14 C13 1.404 . S
C14 C18 1.389 . S
C14 H36 0.930 . S
C15 C13 1.352 1_566 S
C15 C17 1.374 . S
C15 H37 0.931 . S
C16 C17 1.359 1_545 S
C16 C18 1.364 1_556 S
C17 C15 1.374 . S
C17 C16 1.359 1_565 S
C17 H38 0.931 . S
C18 C14 1.389 . S
C18 C16 1.364 1_554 S
C18 H39 0.931 . S
C19 O30 1.256 . S
C19 O31 1.257 1_445 S
O20 Gd0 2.377 1_545 S
O20 C2 1.240 1_655 S
O21 Gd1 2.395 . S
O21 C2 1.240 1_554 S
O22 Gd0 2.448 . S
O22 C3 1.249 . S
O23 Gd0 2.506 1_554 S
O23 C3 1.252 1_554 S
O24 Gd0 2.435 . S
O24 C10 1.256 . S
O25 Gd0 2.717 1_445 S
O25 Gd1 2.327 1_556 S
O25 C10 1.257 1_445 S
O26 Gd1 2.377 1_565 S
O26 C11 1.240 1_455 S
O27 Gd0 2.395 . S
O27 C11 1.240 1_556 S
O28 Gd1 2.448 . S
O28 C12 1.249 . S
O29 Gd1 2.506 1_556 S
O29 C12 1.252 1_556 S
O30 Gd1 2.435 . S
O30 C19 1.256 . S
O31 Gd0 2.327 1_554 S
O31 Gd1 2.717 1_665 S
O31 C19 1.257 1_665 S
H32 C5 0.930 . S
H33 C6 0.931 . S
H34 C8 0.931 . S
H35 C9 0.931 . S
H36 C14 0.930 . S
H37 C15 0.931 . S
H38 C17 0.931 . S
H39 C18 0.931 . S
H40 C46 0.930 . S
H41 C49 0.930 . S
H42 C50 0.930 . S
H43 C51 0.930 . S
H44 C54 0.930 . S
H45 C55 0.930 . S
C46 H40 0.930 . S
C46 C47 1.361 1_655 S
C46 C48 1.415 . S
C47 C46 1.361 1_455 S
C47 C49 1.413 1_545 S
C48 C46 1.415 . S
C48 C53 1.425 1_645 S
C48 C55 1.409 . S
C49 H41 0.930 . S
C49 C47 1.413 1_565 S
C49 C50 1.362 . S
C50 H42 0.930 . S
C50 C49 1.362 . S
C50 C53 1.409 . S
C51 H43 0.930 . S
C51 C52 1.359 1_455 S
C51 C53 1.415 . S
C52 C51 1.359 1_655 S
C52 C54 1.415 1_565 S
C53 C48 1.425 1_465 S
C53 C50 1.409 . S
C53 C51 1.415 . S
C54 H44 0.930 . S
C54 C52 1.415 1_545 S
C54 C55 1.362 . S
C55 H45 0.930 . S
C55 C48 1.409 . S
C55 C54 1.362 . S
H56 C62 0.930 . S
H57 C65 0.930 . S
H58 C66 0.930 . S
H59 C67 0.930 . S
H60 C70 0.930 . S
H61 C71 0.930 . S
C62 H56 0.930 . S
C62 C63 1.355 1_544 S
C62 C64 1.415 . S
C63 C62 1.355 1_566 S
C63 C65 1.419 . S
C64 C62 1.415 . S
C64 C69 1.425 1_544 S
C64 C71 1.409 . S
C65 H57 0.930 . S
C65 C63 1.419 . S
C65 C66 1.362 . S
C66 H58 0.930 . S
C66 C65 1.362 . S
C66 C69 1.409 . S
C67 H59 0.930 . S
C67 C68 1.355 1_566 S
C67 C69 1.415 . S
C68 C67 1.355 1_544 S
C68 C70 1.419 . S
C69 C64 1.425 1_566 S
C69 C66 1.409 . S
C69 C67 1.415 . S
C70 H60 0.930 . S
C70 C68 1.419 . S
C70 C71 1.362 . S
C71 H61 0.930 . S
C71 C64 1.409 . S
C71 C70 1.362 . S
H72 C78 0.930 . S
H73 C81 0.930 . S
H74 C82 0.930 . S
H75 C83 0.930 . S
H76 C86 0.930 . S
H77 C87 0.930 . S
C78 H72 0.930 . S
C78 C79 1.355 1_455 S
C78 C80 1.415 . S
C79 C78 1.355 1_655 S
C79 C81 1.419 1_556 S
C80 C78 1.415 . S
C80 C85 1.425 1_456 S
C80 C87 1.409 . S
C81 H73 0.930 . S
C81 C79 1.419 1_554 S
C81 C82 1.362 . S
C82 H74 0.930 . S
C82 C81 1.362 . S
C82 C85 1.409 . S
C83 H75 0.930 . S
C83 C84 1.355 1_655 S
C83 C85 1.415 . S
C84 C83 1.355 1_455 S
C84 C86 1.419 1_554 S
C85 C80 1.425 1_654 S
C85 C82 1.409 . S
C85 C83 1.415 . S
C86 H76 0.930 . S
C86 C84 1.419 1_556 S
C86 C87 1.362 . S
C87 H77 0.930 . S
C87 C80 1.409 . S
C87 C86 1.362 . S
C47 C19 1.424 . S
C52 C10 1.424 . S
C63 C16 1.494 1_565 S
C68 C7 1.494 1_545 S
C79 C11 1.485 1_556 S
C84 C2 1.485 1_554 S
