# Generated by pormake.
# Topology snp, (6)-cn, num edge types: 1
# Building blocks:
#     Node 0, Type 0, BuildingBlock: MIFKUJ_clean_sbu_0, # of connection points: 6
#     Node 1, Type 0, BuildingBlock: MIFKUJ_clean_sbu_0, # of connection points: 6
#     Node 2, Type 0, BuildingBlock: MIFKUJ_clean_sbu_0, # of connection points: 6
#     Node 3, Type 0, BuildingBlock: MIFKUJ_clean_sbu_0, # of connection points: 6
#     Edge 4, Type (0, 0), BuildingBlock: EYOCIG_clean_linker_4, # of connection points: 2
#     Edge 5, Type (0, 0), BuildingBlock: EYOCIG_clean_linker_4, # of connection points: 2
#     Edge 6, Type (0, 0), BuildingBlock: EYOCIG_clean_linker_4, # of connection points: 2
#     Edge 7, Type (0, 0), BuildingBlock: EYOCIG_clean_linker_4, # of connection points: 2
#     Edge 8, Type (0, 0), BuildingBlock: EYOCIG_clean_linker_4, # of connection points: 2
#     Edge 9, Type (0, 0), BuildingBlock: EYOCIG_clean_linker_4, # of connection points: 2
#     Edge 10, Type (0, 0), BuildingBlock: EYOCIG_clean_linker_4, # of connection points: 2
#     Edge 11, Type (0, 0), BuildingBlock: EYOCIG_clean_linker_4, # of connection points: 2
#     Edge 12, Type (0, 0), BuildingBlock: EYOCIG_clean_linker_4, # of connection points: 2
#     Edge 13, Type (0, 0), BuildingBlock: EYOCIG_clean_linker_4, # of connection points: 2
#     Edge 14, Type (0, 0), BuildingBlock: EYOCIG_clean_linker_4, # of connection points: 2
#     Edge 15, Type (0, 0), BuildingBlock: EYOCIG_clean_linker_4, # of connection points: 2
# Relax obj value: 0.272
# Max RMSD: 0.229
# Mean RMSD: 0.229
data_MOF--net-snp--node1-MIFKUJ_clean_sbu_0--edge1-EYOCIG_clean_linker_4
_symmetry_space_group_name_H-M    P1
_symmetry_Int_Tables_number       1
_symmetry_cell_setting            triclinic
loop_
_symmetry_equiv_pos_as_xyz
'x, y, z'
_cell_length_a     19.160231
_cell_length_b     19.161532
_cell_length_c     25.935299
_cell_angle_alpha  89.93004
_cell_angle_beta   90.033054
_cell_angle_gamma 89.977098
loop_
_atom_site_label
_atom_site_type_symbol
_atom_site_fract_x
_atom_site_fract_y
_atom_site_fract_z
_atom_type_partial_charge
Zn0 Zn 0.28478 -0.02592 0.07622 0.0
Zn1 Zn 0.30693 0.94958 0.91279 0.0
C2 C 0.24305 0.90383 0.16119 0.0
O3 O 0.20479 0.96059 0.1601 0.0
C4 C 0.33549 0.06016 0.844 0.0
O5 O 0.39524 0.02692 0.84153 0.0
O6 O 0.29859 0.06038 0.11946 0.0
O7 O 0.35712 -0.02904 0.01933 0.0
O8 O 0.40461 0.96101 0.9427 0.0
C9 C 0.35602 0.07618 0.1409 0.0
O10 O 0.41183 0.03811 0.1326 0.0
O11 O 0.2866 0.89266 0.12527 0.0
C12 C 0.24027 0.86868 0.83871 0.0
O13 O 0.19428 0.91784 0.84788 0.0
O14 O 0.29662 0.86724 0.86448 0.0
O15 O 0.24601 0.94597 0.97495 0.0
O16 O 0.18871 -0.01951 0.04191 0.0
O17 O 0.28703 0.037 0.87263 0.0
C18 C 0.41038 -0.02513 0.99059 0.0
C19 C 0.19049 -0.0288 -0.0065 0.0
Zn20 Zn 0.14017 0.28514 0.57588 0.0
Zn21 Zn 0.16342 0.30777 0.41226 0.0
C22 C 0.20969 0.2428 0.66096 0.0
O23 O 0.1524 0.20538 0.65993 0.0
C24 C 0.05172 0.33586 0.34389 0.0
O25 O 0.08454 0.39575 0.34073 0.0
O26 O 0.05376 0.29962 0.61896 0.0
O27 O 0.14373 0.35718 0.51879 0.0
O28 O 0.15271 0.40544 0.44236 0.0
C29 C 0.03872 0.35707 0.64064 0.0
O30 O 0.07769 0.41233 0.63268 0.0
O31 O 0.22147 0.2862 0.62499 0.0
C32 C 0.24362 0.24181 0.33724 0.0
O33 O 0.19445 0.19577 0.34621 0.0
O34 O 0.2453 0.29769 0.36345 0.0
O35 O 0.16729 0.24638 0.47431 0.0
O36 O 0.13361 0.1891 0.54162 0.0
O37 O 0.07554 0.28785 0.37271 0.0
C38 C 0.13982 0.41084 0.49041 0.0
C39 C 0.14261 0.19075 0.49315 0.0
Zn40 Zn 0.82995 0.14036 0.07508 0.0
Zn41 Zn 0.80646 0.16476 0.91157 0.0
C42 C 0.87135 0.20984 0.16037 0.0
O43 O 0.9102 0.15349 0.15887 0.0
C44 C 0.77747 0.05332 0.84354 0.0
O45 O 0.71742 0.08604 0.84118 0.0
O46 O 0.81735 0.05328 0.11787 0.0
O47 O 0.75726 0.14347 0.01834 0.0
O48 O 0.70906 0.15332 0.94188 0.0
C49 C 0.7603 0.03752 0.13986 0.0
O50 O 0.70452 0.07592 0.13225 0.0
O51 O 0.82739 0.22097 0.12465 0.0
C52 C 0.87212 0.24543 0.83667 0.0
O53 O 0.91801 0.19599 0.84537 0.0
O54 O 0.81632 0.24711 0.86303 0.0
O55 O 0.86798 0.16805 0.97346 0.0
O56 O 0.92611 0.13591 0.04076 0.0
O57 O 0.82612 0.07719 0.87167 0.0
C58 C 0.70373 0.13948 0.98982 0.0
C59 C 0.92427 0.14487 0.99229 0.0
Zn60 Zn -0.02718 0.82943 0.57646 0.0
Zn61 Zn 0.95116 0.80645 0.41281 0.0
C62 C 0.9022 0.87098 0.66102 0.0
O63 O 0.95893 0.90924 0.65996 0.0
C64 C 0.06289 0.77857 0.345 0.0
O65 O 0.02989 0.71876 0.34209 0.0
O66 O 0.05896 0.81576 0.62005 0.0
O67 O -0.02913 0.75727 0.51954 0.0
O68 O 0.96283 0.70899 0.44313 0.0
C69 C 0.07371 0.75834 0.64199 0.0
O70 O 0.0348 0.7031 0.6339 0.0
O71 O 0.89119 0.82723 0.62521 0.0
C72 C 0.8712 0.87193 0.33746 0.0
O73 O 0.91968 0.91843 0.34711 0.0
O74 O 0.86973 0.81576 0.36345 0.0
O75 O 0.94604 0.8678 0.47473 0.0
O76 O -0.02171 0.92563 0.54207 0.0
O77 O 0.03918 0.8268 0.37357 0.0
C78 C -0.02415 0.70376 0.49119 0.0
C79 C 0.96956 0.92387 0.49357 0.0
C80 C 0.02784 0.07984 0.94791 0.0
C81 C -0.02301 0.11206 0.9614 0.0
C82 C 0.08875 0.03837 0.94826 0.0
C83 C 0.13876 0.00516 0.96225 0.0
C84 C 0.03485 0.02719 0.44885 0.0
C85 C 0.00261 -0.02352 0.46265 0.0
C86 C 0.07599 0.08828 0.44866 0.0
C87 C 0.1089 0.13863 0.46223 0.0
C88 C 0.58854 0.07612 0.0178 0.0
C89 C 0.6427 0.10484 0.00827 0.0
C90 C 0.52578 0.03835 0.01796 0.0
C91 C 0.47156 0.00958 0.00869 0.0
C92 C 0.07779 0.52637 0.51908 0.0
C93 C 0.10596 0.47205 0.50921 0.0
C94 C 0.04007 0.58916 0.51943 0.0
C95 C 0.0109 0.64313 0.50999 0.0
C96 C 0.322 0.20757 0.25831 0.0
C97 C 0.2907 0.23005 0.29504 0.0
C98 C 0.34593 0.16865 0.21562 0.0
C99 C 0.3553 0.12613 0.18209 0.0
C100 C 0.9459 0.34776 0.71524 0.0
C101 C -0.01135 0.35671 0.68178 0.0
C102 C 0.90665 0.3241 0.7579 0.0
C103 C 0.88394 0.29279 0.79459 0.0
C104 C 0.79422 0.90592 0.25761 0.0
C105 C 0.82492 0.88346 0.2947 0.0
C106 C 0.77086 0.94487 0.21467 0.0
C107 C 0.76165 -0.0125 0.1811 0.0
C108 C 0.16595 0.76732 0.71708 0.0
C109 C 0.12345 0.75864 0.6834 0.0
C110 C 0.20516 0.79061 0.75985 0.0
C111 C 0.22811 0.82171 0.79653 0.0
C112 C 0.80254 0.94976 0.77947 0.0
C113 C 0.79114 -0.00294 0.80875 0.0
C114 C 0.82417 0.90616 0.73888 0.0
C115 C 0.853 0.88283 0.70151 0.0
C116 C 0.20894 0.82611 0.23963 0.0
C117 C 0.23168 0.85489 0.202 0.0
C118 C 0.16595 0.80436 0.28058 0.0
C119 C 0.11889 0.79278 0.31006 0.0
C120 C 0.28758 0.20682 0.73891 0.0
C121 C 0.25872 0.23026 0.70152 0.0
C122 C 0.3098 0.16331 0.77948 0.0
C123 C 0.32175 0.11618 0.80889 0.0
C124 C 0.90562 0.28747 0.23872 0.0
C125 C 0.88279 0.25861 0.20119 0.0
C126 C 0.94867 0.30948 0.27955 0.0
C127 C -0.00428 0.3213 0.30901 0.0
loop_
_geom_bond_atom_site_label_1
_geom_bond_atom_site_label_2
_geom_bond_distance
_geom_bond_site_symmetry_2
_ccdc_geom_bond_type
Zn0 O6 1.969 . S
Zn0 O7 1.965 . S
Zn0 O11 2.024 1_545 S
Zn0 O16 1.969 . S
Zn1 O8 1.969 . S
Zn1 O14 1.969 . S
Zn1 O15 1.965 . S
Zn1 O17 2.024 1_565 S
C2 O3 1.229 . S
C2 O11 1.058 . S
O3 C2 1.229 . S
C4 O5 1.229 . S
C4 O17 1.058 . S
O5 C4 1.229 . S
O6 Zn0 1.969 . S
O6 C9 1.267 . S
O7 Zn0 1.965 . S
O7 C18 1.260 1_554 S
O8 Zn1 1.969 . S
O8 C18 1.258 1_565 S
C9 O6 1.267 . S
C9 O10 1.228 . S
O10 C9 1.228 . S
O11 Zn0 2.024 1_565 S
O11 C2 1.058 . S
C12 O13 1.228 . S
C12 O14 1.267 . S
O13 C12 1.228 . S
O14 Zn1 1.969 . S
O14 C12 1.267 . S
O15 Zn1 1.965 . S
O15 C19 1.260 1_566 S
O16 Zn0 1.969 . S
O16 C19 1.258 . S
O17 Zn1 2.024 1_545 S
O17 C4 1.058 . S
C18 O7 1.260 1_556 S
C18 O8 1.258 1_545 S
C19 O15 1.260 1_544 S
C19 O16 1.258 . S
Zn20 O26 1.969 . S
Zn20 O27 1.965 . S
Zn20 O31 2.024 . S
Zn20 O36 1.969 . S
Zn21 O28 1.969 . S
Zn21 O34 1.969 . S
Zn21 O35 1.965 . S
Zn21 O37 2.024 . S
C22 O23 1.229 . S
C22 O31 1.058 . S
O23 C22 1.229 . S
C24 O25 1.229 . S
C24 O37 1.058 . S
O25 C24 1.229 . S
O26 Zn20 1.969 . S
O26 C29 1.267 . S
O27 Zn20 1.965 . S
O27 C38 1.260 . S
O28 Zn21 1.969 . S
O28 C38 1.258 . S
C29 O26 1.267 . S
C29 O30 1.228 . S
O30 C29 1.228 . S
O31 Zn20 2.024 . S
O31 C22 1.058 . S
C32 O33 1.228 . S
C32 O34 1.267 . S
O33 C32 1.228 . S
O34 Zn21 1.969 . S
O34 C32 1.267 . S
O35 Zn21 1.965 . S
O35 C39 1.260 . S
O36 Zn20 1.969 . S
O36 C39 1.258 . S
O37 Zn21 2.024 . S
O37 C24 1.058 . S
C38 O27 1.260 . S
C38 O28 1.258 . S
C39 O35 1.260 . S
C39 O36 1.258 . S
Zn40 O46 1.969 . S
Zn40 O47 1.965 . S
Zn40 O51 2.024 . S
Zn40 O56 1.969 . S
Zn41 O48 1.969 . S
Zn41 O54 1.969 . S
Zn41 O55 1.965 . S
Zn41 O57 2.024 . S
C42 O43 1.229 . S
C42 O51 1.058 . S
O43 C42 1.229 . S
C44 O45 1.229 . S
C44 O57 1.058 . S
O45 C44 1.229 . S
O46 Zn40 1.969 . S
O46 C49 1.267 . S
O47 Zn40 1.965 . S
O47 C58 1.260 1_554 S
O48 Zn41 1.969 . S
O48 C58 1.258 . S
C49 O46 1.267 . S
C49 O50 1.228 . S
O50 C49 1.228 . S
O51 Zn40 2.024 . S
O51 C42 1.058 . S
C52 O53 1.228 . S
C52 O54 1.267 . S
O53 C52 1.228 . S
O54 Zn41 1.969 . S
O54 C52 1.267 . S
O55 Zn41 1.965 . S
O55 C59 1.260 1_556 S
O56 Zn40 1.969 . S
O56 C59 1.258 . S
O57 Zn41 2.024 . S
O57 C44 1.058 . S
C58 O47 1.260 1_556 S
C58 O48 1.258 . S
C59 O55 1.260 1_554 S
C59 O56 1.258 . S
Zn60 O66 1.969 . S
Zn60 O67 1.965 . S
Zn60 O71 2.024 1_455 S
Zn60 O76 1.969 . S
Zn61 O68 1.969 . S
Zn61 O74 1.969 . S
Zn61 O75 1.965 . S
Zn61 O77 2.024 1_655 S
C62 O63 1.229 . S
C62 O71 1.058 . S
O63 C62 1.229 . S
C64 O65 1.229 . S
C64 O77 1.058 . S
O65 C64 1.229 . S
O66 Zn60 1.969 . S
O66 C69 1.267 . S
O67 Zn60 1.965 . S
O67 C78 1.260 . S
O68 Zn61 1.969 . S
O68 C78 1.258 1_655 S
C69 O66 1.267 . S
C69 O70 1.228 . S
O70 C69 1.228 . S
O71 Zn60 2.024 1_655 S
O71 C62 1.058 . S
C72 O73 1.228 . S
C72 O74 1.267 . S
O73 C72 1.228 . S
O74 Zn61 1.969 . S
O74 C72 1.267 . S
O75 Zn61 1.965 . S
O75 C79 1.260 1_655 S
O76 Zn60 1.969 . S
O76 C79 1.258 . S
O77 Zn61 2.024 1_455 S
O77 C64 1.058 . S
C78 O67 1.260 . S
C78 O68 1.258 1_455 S
C79 O75 1.260 1_455 S
C79 O76 1.258 . S
C80 C81 1.170 . S
C80 C82 1.380 . S
C81 C80 1.170 . S
C82 C80 1.380 . S
C82 C83 1.170 . S
C83 C82 1.170 . S
C84 C85 1.170 . S
C84 C86 1.380 . S
C85 C84 1.170 . S
C86 C84 1.380 . S
C86 C87 1.170 . S
C87 C86 1.170 . S
C88 C89 1.170 . S
C88 C90 1.380 . S
C89 C88 1.170 . S
C90 C88 1.380 . S
C90 C91 1.170 . S
C91 C90 1.170 . S
C92 C93 1.170 . S
C92 C94 1.380 . S
C93 C92 1.170 . S
C94 C92 1.380 . S
C94 C95 1.170 . S
C95 C94 1.170 . S
C96 C97 1.170 . S
C96 C98 1.380 . S
C97 C96 1.170 . S
C98 C96 1.380 . S
C98 C99 1.170 . S
C99 C98 1.170 . S
C100 C101 1.172 . S
C100 C102 1.380 . S
C101 C100 1.172 . S
C102 C100 1.380 . S
C102 C103 1.170 . S
C103 C102 1.170 . S
C104 C105 1.170 . S
C104 C106 1.380 . S
C105 C104 1.170 . S
C106 C104 1.380 . S
C106 C107 1.170 1_565 S
C107 C106 1.170 1_545 S
C108 C109 1.170 . S
C108 C110 1.380 . S
C109 C108 1.170 . S
C110 C108 1.380 . S
C110 C111 1.170 . S
C111 C110 1.170 . S
C112 C113 1.169 1_565 S
C112 C114 1.380 . S
C113 C112 1.169 1_545 S
C114 C112 1.380 . S
C114 C115 1.170 . S
C115 C114 1.170 . S
C116 C117 1.170 . S
C116 C118 1.380 . S
C117 C116 1.170 . S
C118 C116 1.380 . S
C118 C119 1.170 . S
C119 C118 1.170 . S
C120 C121 1.170 . S
C120 C122 1.380 . S
C121 C120 1.170 . S
C122 C120 1.380 . S
C122 C123 1.170 . S
C123 C122 1.170 . S
C124 C125 1.170 . S
C124 C126 1.380 . S
C125 C124 1.170 . S
C126 C124 1.380 . S
C126 C127 1.170 1_655 S
C127 C126 1.170 1_455 S
C81 C59 0.866 1_456 S
C83 C19 0.832 1_556 S
C85 C79 0.827 1_545 S
C87 C39 0.802 . S
C89 C58 1.262 1_554 S
C91 C18 1.261 1_554 S
C93 C38 1.316 . S
C95 C78 1.265 . S
C97 C32 1.224 . S
C99 C9 1.279 . S
C101 C29 1.276 1_655 S
C103 C52 1.228 . S
C105 C72 1.174 . S
C107 C49 1.250 . S
C109 C69 1.249 . S
C111 C12 1.191 . S
C113 C44 1.710 . S
C115 C62 1.554 . S
C117 C2 1.538 . S
C119 C64 1.714 . S
C121 C22 1.511 . S
C123 C4 1.686 . S
C125 C42 1.510 . S
C127 C24 1.703 . S
