# Generated by pormake.
# Topology qzd, (4)-cn, num edge types: 1
# Building blocks:
#     Node 0, Type 0, BuildingBlock: ESEHIV_clean_sbu_0, # of connection points: 4
#     Node 1, Type 0, BuildingBlock: ESEHIV_clean_sbu_0, # of connection points: 4
#     Node 2, Type 0, BuildingBlock: ESEHIV_clean_sbu_0, # of connection points: 4
#     Edge 3, Type (0, 0), BuildingBlock: OJICUG_clean_linker_0, # of connection points: 2
#     Edge 4, Type (0, 0), BuildingBlock: OJICUG_clean_linker_0, # of connection points: 2
#     Edge 5, Type (0, 0), BuildingBlock: OJICUG_clean_linker_0, # of connection points: 2
#     Edge 6, Type (0, 0), BuildingBlock: OJICUG_clean_linker_0, # of connection points: 2
#     Edge 7, Type (0, 0), BuildingBlock: OJICUG_clean_linker_0, # of connection points: 2
#     Edge 8, Type (0, 0), BuildingBlock: OJICUG_clean_linker_0, # of connection points: 2
# Relax obj value: 0.000
# Max RMSD: 0.157
# Mean RMSD: 0.078
data_MOF--net-qzd--node1-ESEHIV_clean_sbu_0--edge1-OJICUG_clean_linker_0
_symmetry_space_group_name_H-M    P1
_symmetry_Int_Tables_number       1
_symmetry_cell_setting            triclinic
loop_
_symmetry_equiv_pos_as_xyz
'x, y, z'
_cell_length_a     10.553623
_cell_length_b     12.969724
_cell_length_c     33.761192
_cell_angle_alpha  99.787447
_cell_angle_beta   98.587613
_cell_angle_gamma 114.09527
loop_
_atom_site_label
_atom_site_type_symbol
_atom_site_fract_x
_atom_site_fract_y
_atom_site_fract_z
_atom_type_partial_charge
Cu0 Cu 0.36405 0.24243 0.08102 0.0
N1 N 0.36191 0.17335 0.12555 0.0
N2 N 0.32911 0.1381 0.18689 0.0
C3 C 0.31459 0.19862 0.15906 0.0
C4 C 0.38851 0.07212 0.17012 0.0
C5 C 0.40824 0.09383 0.13221 0.0
O6 O 0.26295 0.33761 0.09157 0.0
C7 C 0.67045 0.35983 0.10573 0.0
O8 O 0.65409 0.35581 0.14334 0.0
H9 H 0.27299 0.26233 0.16324 0.0
H10 H 0.45398 0.05512 0.11114 0.0
N11 N 0.26402 0.12653 0.03135 0.0
N12 N 0.17731 1.0391 0.96345 0.0
C13 C 0.27128 0.13754 0.9926 0.0
C14 C 0.16421 1.017 0.0267 0.0
C15 C 0.11052 0.96293 0.98496 0.0
C16 C 0.17373 0.3462 0.064 0.0
O17 O 0.16548 0.30722 0.02473 0.0
H18 H 0.33934 0.21808 0.98598 0.0
H19 H 0.13074 0.98 0.05192 0.0
O20 O 0.56021 0.32544 0.07622 0.0
H21 H 0.41463 1.01172 0.18398 0.0
H22 H 1.02728 0.87467 0.97157 0.0
Cu23 Cu 0.1893 0.20561 0.42791 0.0
N24 N 0.24445 0.36637 0.44025 0.0
N25 N 0.36527 0.55576 0.44268 0.0
C26 C 0.35555 0.44736 0.43052 0.0
C27 C 0.25548 0.5418 0.46078 0.0
C28 C 0.18119 0.42501 0.45918 0.0
O29 O 0.23994 0.16395 0.37612 0.0
C30 C 0.32011 0.22682 0.51126 0.0
O31 O 0.33966 0.33553 0.51754 0.0
H32 H 0.42584 0.42629 0.41407 0.0
H33 H 0.08784 0.38554 0.47106 0.0
N34 N 0.99135 0.123 0.42009 0.0
N35 N 0.78073 0.98107 0.4206 0.0
C36 C 0.92392 1.01858 0.42818 0.0
C37 C 0.88772 0.15322 0.40699 0.0
C38 C 0.7577 0.06585 0.40724 0.0
C39 C 0.18396 0.18764 0.34489 0.0
O40 O 0.09677 0.23511 0.34972 0.0
H41 H 0.9798 0.97246 0.44024 0.0
H42 H 0.9054 0.23332 0.39807 0.0
O43 O 0.27133 0.16151 0.47435 0.0
H44 H 0.23114 0.61095 0.47462 0.0
H45 H 0.65438 0.0647 0.39792 0.0
Cu46 Cu 1.04261 0.99835 0.70675 0.0
N47 N 0.92187 0.07029 0.70063 0.0
N48 N 0.85136 0.20805 0.69248 0.0
C49 C 0.96223 0.18044 0.69709 0.0
C50 C 0.73663 0.11082 0.69309 0.0
C51 C 0.78052 1.02615 0.69817 0.0
O52 O 0.18592 0.06707 0.67608 0.0
C53 C 1.03037 0.97934 0.78662 0.0
O54 O 0.89538 0.91571 0.76677 0.0
H55 H 0.07079 0.23835 0.69725 0.0
H56 H 0.71404 0.93859 0.69992 0.0
N57 N 0.93828 0.83674 0.68408 0.0
N58 N 0.86881 0.64454 0.67411 0.0
C59 C 0.96393 0.75292 0.69709 0.0
C60 C 0.82333 0.7799 0.65173 0.0
C61 C 0.78008 0.66143 0.64553 0.0
C62 C 0.20327 1.00875 0.64468 0.0
O63 O 0.14011 0.89415 0.63596 0.0
H64 H 1.04985 0.7715 0.72325 0.0
H65 H 0.77504 0.82183 0.63375 0.0
O66 O 0.12028 1.02706 0.76607 0.0
H67 H 0.62893 0.10169 0.69058 0.0
H68 H 0.69164 0.59334 0.62136 0.0
C69 C 1.04969 0.39401 0.11737 0.0
C70 C 0.05934 0.37481 0.07587 0.0
H71 H 0.92026 0.40584 0.15946 0.0
C72 C 0.94803 0.3678 0.04515 0.0
H73 H 0.13348 0.40034 0.1419 0.0
C74 C 0.82531 0.3707 0.05523 0.0
C75 C 0.81094 0.38085 0.09629 0.0
H76 H 0.95201 0.35378 1.0129 0.0
H77 H 0.73868 0.35889 0.03044 0.0
C78 C 0.927 0.39707 0.12745 0.0
C79 C 0.54197 0.8636 0.43178 0.0
C80 C 0.67552 0.87372 0.42607 0.0
H81 H 0.33868 0.75511 0.44115 0.0
C82 C 0.70477 0.77714 0.42596 0.0
H83 H 0.5159 0.93625 0.43248 0.0
C84 C 0.60356 0.67346 0.43146 0.0
C85 C 0.47001 0.66324 0.43717 0.0
H86 H 0.8055 0.78085 0.42121 0.0
H87 H 0.63102 0.60178 0.43165 0.0
C88 C 0.44064 0.7598 0.43727 0.0
C89 C 0.73566 0.4303 0.66407 0.0
C90 C 0.864 0.53433 0.67883 0.0
H91 H 0.63106 0.24539 0.65644 0.0
C92 C 0.98775 0.52873 0.69821 0.0
H93 H 0.63791 0.43122 0.64939 0.0
C94 C 0.98346 0.4222 0.7027 0.0
C95 C 0.85527 0.31813 0.68792 0.0
H96 H 0.08885 0.60648 0.70957 0.0
H97 H 0.0807 0.42192 0.71817 0.0
C98 C 0.73133 0.32366 0.66858 0.0
C99 C 0.14773 0.19094 0.27037 0.0
C100 C 0.21855 0.168 0.30399 0.0
H101 H 0.12492 0.19747 0.2071 0.0
C102 C 0.32342 0.13034 0.29801 0.0
H103 H 0.06539 0.21906 0.27356 0.0
C104 C 0.35846 0.11852 0.25946 0.0
C105 C 0.28956 0.14438 0.22616 0.0
H106 H 0.38006 0.11197 0.32325 0.0
H107 H 0.44189 0.09198 0.25607 0.0
C108 C 0.18256 0.17925 0.23211 0.0
C109 C 0.25125 1.0013 0.57383 0.0
C110 C 0.26512 0.06775 0.61324 0.0
H111 H 0.25872 0.99921 0.51062 0.0
C112 C 0.32041 0.18967 0.62012 0.0
H113 H 0.21011 0.90725 0.56742 0.0
C114 C 0.34931 0.24253 0.58752 0.0
C115 C 0.32263 0.17469 0.54719 0.0
H116 H 0.33415 0.24383 0.65016 0.0
H117 H 0.38433 0.33591 0.59352 0.0
C118 C 0.27921 0.05408 0.54114 0.0
C119 C 0.21119 0.07298 0.85601 0.0
C120 C 0.07304 0.99387 0.832 0.0
H121 H 0.35325 0.14918 0.91677 0.0
C122 C 0.97196 0.92862 0.85194 0.0
H123 H 0.29162 0.12453 0.84164 0.0
C124 C 1.00699 0.94255 0.89467 0.0
C125 C 0.14417 1.02253 0.91897 0.0
H126 H 0.86444 0.86676 0.83457 0.0
H127 H 0.92483 0.89223 0.90875 0.0
C128 C 0.24621 0.0875 0.89909 0.0
loop_
_geom_bond_atom_site_label_1
_geom_bond_atom_site_label_2
_geom_bond_distance
_geom_bond_site_symmetry_2
_ccdc_geom_bond_type
Cu0 N1 1.999 . S
Cu0 O6 1.974 1_455 S
Cu0 N11 1.985 1_554 S
Cu0 O20 1.959 . S
N1 Cu0 1.999 . S
N1 C3 1.263 1_455 S
N1 C5 1.389 . S
N2 C3 1.358 1_455 S
N2 C4 1.400 . S
C3 N1 1.263 1_655 S
C3 N2 1.358 1_655 S
C3 H9 0.930 1_545 S
C4 N2 1.400 . S
C4 C5 1.351 . S
C4 H21 0.930 . S
C5 N1 1.389 . S
C5 C4 1.351 . S
C5 H10 0.930 . S
O6 Cu0 1.974 1_655 S
O6 C16 1.282 1_545 S
C7 O8 1.261 . S
C7 O20 1.251 1_565 S
O8 C7 1.261 . S
H9 C3 0.930 1_565 S
H10 C5 0.930 . S
N11 Cu0 1.985 1_556 S
N11 C13 1.335 . S
N11 C14 1.390 1_445 S
N12 C13 1.345 . S
N12 C15 1.336 1_445 S
C13 N11 1.335 . S
C13 N12 1.345 . S
C13 H18 0.930 . S
C14 N11 1.390 1_665 S
C14 C15 1.346 . S
C14 H19 0.930 . S
C15 N12 1.336 1_665 S
C15 C14 1.346 . S
C15 H22 0.929 . S
C16 O6 1.282 1_565 S
C16 O17 1.216 . S
O17 C16 1.216 . S
H18 C13 0.930 . S
H19 C14 0.930 . S
O20 Cu0 1.959 . S
O20 C7 1.251 1_545 S
H21 C4 0.930 . S
H22 C15 0.929 . S
Cu23 N24 1.999 . S
Cu23 O29 1.974 . S
Cu23 N34 1.985 1_445 S
Cu23 O43 1.959 . S
N24 Cu23 1.999 . S
N24 C26 1.263 . S
N24 C28 1.389 . S
N25 C26 1.358 . S
N25 C27 1.400 . S
C26 N24 1.263 . S
C26 N25 1.358 . S
C26 H32 0.930 . S
C27 N25 1.400 . S
C27 C28 1.351 . S
C27 H44 0.930 . S
C28 N24 1.389 . S
C28 C27 1.351 . S
C28 H33 0.930 . S
O29 Cu23 1.974 . S
O29 C39 1.282 1_455 S
C30 O31 1.258 1_455 S
C30 O43 1.255 . S
O31 C30 1.258 1_655 S
H32 C26 0.930 . S
H33 C28 0.930 . S
N34 Cu23 1.985 1_665 S
N34 C36 1.335 . S
N34 C37 1.390 . S
N35 C36 1.345 . S
N35 C38 1.336 . S
C36 N34 1.335 . S
C36 N35 1.345 . S
C36 H41 0.930 . S
C37 N34 1.390 . S
C37 C38 1.346 . S
C37 H42 0.930 . S
C38 N35 1.336 . S
C38 C37 1.346 . S
C38 H45 0.929 . S
C39 O29 1.282 1_655 S
C39 O40 1.216 . S
O40 C39 1.216 . S
H41 C36 0.930 . S
H42 C37 0.930 . S
O43 Cu23 1.959 . S
O43 C30 1.255 . S
H44 C27 0.930 . S
H45 C38 0.929 . S
Cu46 N47 1.999 . S
Cu46 O52 1.974 . S
Cu46 N57 1.985 1_545 S
Cu46 O66 1.959 . S
N47 Cu46 1.999 . S
N47 C49 1.263 . S
N47 C51 1.389 . S
N48 C49 1.358 . S
N48 C50 1.400 . S
C49 N47 1.263 . S
C49 N48 1.358 . S
C49 H55 0.930 . S
C50 N48 1.400 . S
C50 C51 1.351 . S
C50 H67 0.930 . S
C51 N47 1.389 . S
C51 C50 1.351 . S
C51 H56 0.930 . S
O52 Cu46 1.974 . S
O52 C62 1.282 . S
C53 O54 1.261 . S
C53 O66 1.251 . S
O54 C53 1.261 . S
H55 C49 0.930 . S
H56 C51 0.930 . S
N57 Cu46 1.985 1_565 S
N57 C59 1.335 . S
N57 C60 1.390 . S
N58 C59 1.345 . S
N58 C61 1.336 . S
C59 N57 1.335 . S
C59 N58 1.345 . S
C59 H64 0.930 . S
C60 N57 1.390 . S
C60 C61 1.346 . S
C60 H65 0.930 . S
C61 N58 1.336 . S
C61 C60 1.346 . S
C61 H68 0.929 . S
C62 O52 1.282 . S
C62 O63 1.216 . S
O63 C62 1.216 . S
H64 C59 0.930 . S
H65 C60 0.930 . S
O66 Cu46 1.959 . S
O66 C53 1.251 . S
H67 C50 0.930 . S
H68 C61 0.929 . S
C69 C70 1.387 1_545 S
C69 H73 0.950 . S
C69 C78 1.390 . S
C70 C69 1.387 1_565 S
C70 C72 1.387 . S
H71 C78 0.950 . S
C72 C70 1.387 . S
C72 C74 1.390 . S
C72 H76 0.950 . S
H73 C69 0.950 . S
C74 C72 1.390 . S
C74 C75 1.387 . S
C74 H77 0.950 . S
C75 C74 1.387 . S
C75 C78 1.387 1_565 S
H76 C72 0.950 . S
H77 C74 0.950 . S
C78 C69 1.390 . S
C78 H71 0.950 . S
C78 C75 1.387 1_545 S
C79 C80 1.387 . S
C79 H83 0.950 . S
C79 C88 1.390 . S
C80 C79 1.387 . S
C80 C82 1.387 . S
H81 C88 0.950 . S
C82 C80 1.387 . S
C82 C84 1.390 . S
C82 H86 0.950 . S
H83 C79 0.950 . S
C84 C82 1.390 . S
C84 C85 1.387 . S
C84 H87 0.950 . S
C85 C84 1.387 . S
C85 C88 1.387 . S
H86 C82 0.950 . S
H87 C84 0.950 . S
C88 C79 1.390 . S
C88 H81 0.950 . S
C88 C85 1.387 . S
C89 C90 1.387 . S
C89 H93 0.950 . S
C89 C98 1.390 . S
C90 C89 1.387 . S
C90 C92 1.387 . S
H91 C98 0.950 . S
C92 C90 1.387 . S
C92 C94 1.390 . S
C92 H96 0.950 . S
H93 C89 0.950 . S
C94 C92 1.390 . S
C94 C95 1.387 . S
C94 H97 0.950 . S
C95 C94 1.387 . S
C95 C98 1.387 . S
H96 C92 0.950 . S
H97 C94 0.950 . S
C98 C89 1.390 . S
C98 H91 0.950 . S
C98 C95 1.387 . S
C99 C100 1.387 . S
C99 H103 0.950 . S
C99 C108 1.390 . S
C100 C99 1.387 . S
C100 C102 1.387 1_545 S
H101 C108 0.950 . S
C102 C100 1.387 1_565 S
C102 C104 1.390 . S
C102 H106 0.950 . S
H103 C99 0.950 . S
C104 C102 1.390 . S
C104 C105 1.388 1_665 S
C104 H107 0.950 . S
C105 C104 1.388 1_445 S
C105 C108 1.385 1_455 S
H106 C102 0.950 . S
H107 C104 0.950 . S
C108 C99 1.390 . S
C108 H101 0.950 . S
C108 C105 1.385 1_655 S
C109 C110 1.387 . S
C109 H113 0.950 1_545 S
C109 C118 1.390 . S
C110 C109 1.387 . S
C110 C112 1.387 . S
H111 C118 0.950 1_665 S
C112 C110 1.387 . S
C112 C114 1.390 . S
C112 H116 0.950 . S
H113 C109 0.950 1_565 S
C114 C112 1.390 . S
C114 C115 1.387 . S
C114 H117 0.950 . S
C115 C114 1.387 . S
C115 C118 1.387 . S
H116 C112 0.950 . S
H117 C114 0.950 . S
C118 C109 1.390 . S
C118 H111 0.950 1_445 S
C118 C115 1.387 . S
C119 C120 1.387 . S
C119 H123 0.950 . S
C119 C128 1.390 . S
C120 C119 1.387 . S
C120 C122 1.387 1_545 S
H121 C128 0.950 . S
C122 C120 1.387 1_565 S
C122 C124 1.390 . S
C122 H126 0.950 . S
H123 C119 0.950 . S
C124 C122 1.390 . S
C124 C125 1.387 1_565 S
C124 H127 0.950 . S
C125 C124 1.387 1_545 S
C125 C128 1.387 . S
H126 C122 0.950 . S
H127 C124 0.950 . S
C128 C119 1.390 . S
C128 H121 0.950 . S
C128 C125 1.387 . S
C70 C16 1.491 . S
C75 C7 1.498 . S
C80 N35 1.466 . S
C85 N25 1.462 . S
C90 N58 1.466 . S
C95 N48 1.463 . S
C100 C39 1.593 . S
C105 N2 1.543 . S
C110 C62 1.576 . S
C115 C30 1.596 . S
C120 C53 1.513 . S
C125 N12 1.491 . S
