# Generated by pormake.
# Topology kag, (6)-cn, num edge types: 1
# Building blocks:
#     Node 0, Type 0, BuildingBlock: GEDQOX_clean_sbu_0, # of connection points: 6
#     Node 1, Type 0, BuildingBlock: GEDQOX_clean_sbu_0, # of connection points: 6
#     Node 2, Type 0, BuildingBlock: GEDQOX_clean_sbu_0, # of connection points: 6
#     Edge 3, Type (0, 0), BuildingBlock: EYOCIG_clean_linker_4, # of connection points: 2
#     Edge 4, Type (0, 0), BuildingBlock: EYOCIG_clean_linker_4, # of connection points: 2
#     Edge 5, Type (0, 0), BuildingBlock: EYOCIG_clean_linker_4, # of connection points: 2
#     Edge 6, Type (0, 0), BuildingBlock: EYOCIG_clean_linker_4, # of connection points: 2
#     Edge 7, Type (0, 0), BuildingBlock: EYOCIG_clean_linker_4, # of connection points: 2
#     Edge 8, Type (0, 0), BuildingBlock: EYOCIG_clean_linker_4, # of connection points: 2
#     Edge 9, Type (0, 0), BuildingBlock: EYOCIG_clean_linker_4, # of connection points: 2
#     Edge 10, Type (0, 0), BuildingBlock: EYOCIG_clean_linker_4, # of connection points: 2
#     Edge 11, Type (0, 0), BuildingBlock: EYOCIG_clean_linker_4, # of connection points: 2
# Relax obj value: 0.106
# Max RMSD: 0.231
# Mean RMSD: 0.129
data_MOF--net-kag--node1-GEDQOX_clean_sbu_0--edge1-EYOCIG_clean_linker_4
_symmetry_space_group_name_H-M    P1
_symmetry_Int_Tables_number       1
_symmetry_cell_setting            triclinic
loop_
_symmetry_equiv_pos_as_xyz
'x, y, z'
_cell_length_a     43.333952
_cell_length_b     35.917052
_cell_length_c     11.717196
_cell_angle_alpha  94.703369
_cell_angle_beta   89.459514
_cell_angle_gamma 144.31588
loop_
_atom_site_label
_atom_site_type_symbol
_atom_site_fract_x
_atom_site_fract_y
_atom_site_fract_z
_atom_type_partial_charge
Nd0 Nd 1.05726 0.59578 0.99842 0.0
Nd1 Nd 0.07356 0.52644 0.00223 0.0
C2 C 1.02674 0.63334 0.05558 0.0
C3 C 0.975 0.60106 0.04115 0.0
C4 C 0.94172 0.57029 0.13087 0.0
C5 C 0.89934 0.55349 0.12953 0.0
C6 C 0.88994 0.56666 0.03785 0.0
C7 C 0.91859 0.58961 0.94186 0.0
C8 C 0.96095 0.60649 0.94302 0.0
C9 C 1.05331 0.5632 0.77299 0.0
C10 C 0.95073 0.4364 0.98896 0.0
C11 C 0.1039 0.48863 0.94507 0.0
C12 C 0.15572 0.52105 0.95946 0.0
C13 C 0.18926 0.55242 0.87021 0.0
C14 C 0.23221 0.57026 0.87221 0.0
C15 C 0.24192 0.55747 0.96402 0.0
C16 C 0.21278 0.5336 0.05935 0.0
C17 C 0.16985 0.51568 0.05754 0.0
C18 C 0.07742 0.55874 0.22765 0.0
C19 C 0.18004 0.6861 0.01183 0.0
O20 O 1.03125 0.61201 0.12871 0.0
O21 O 1.05027 0.64798 0.96225 0.0
O22 O 1.04732 0.59221 0.80406 0.0
O23 O 1.06001 0.55122 0.86065 0.0
O24 O 0.97078 0.49021 0.99795 0.0
O25 O 0.98111 0.4361 0.98121 0.0
O26 O 0.09926 0.50979 0.87183 0.0
O27 O 0.08048 0.47416 0.0385 0.0
O28 O 0.08346 0.52982 0.19634 0.0
O29 O 0.07069 0.57083 0.14021 0.0
O30 O 0.16002 0.63229 0.00254 0.0
O31 O 0.14962 0.68633 0.01987 0.0
H32 H 0.95068 0.5636 0.20587 0.0
H33 H 0.87681 0.53511 0.20368 0.0
H34 H 0.9109 0.59918 0.87005 0.0
H35 H 0.98485 0.62812 0.87096 0.0
H36 H 0.18021 0.559 0.7952 0.0
H37 H 0.25507 0.58927 0.7985 0.0
H38 H 0.22064 0.52423 0.13121 0.0
H39 H 0.14571 0.49353 0.1292 0.0
Nd40 Nd 0.56657 0.10397 0.01172 0.0
Nd41 Nd 0.56412 1.01783 0.98863 0.0
C42 C 0.58314 0.19294 0.00437 0.0
C43 C 0.59202 0.24278 0.00495 0.0
C44 C 0.60642 0.27303 0.90685 0.0
C45 C 0.60954 0.31519 0.90505 0.0
C46 C 0.59806 0.32759 0.00111 0.0
C47 C 0.58868 0.30225 0.10244 0.0
C48 C 0.58565 0.26029 0.10441 0.0
C49 C 0.56375 0.07122 0.2189 0.0
C50 C 0.68155 0.17113 0.00515 0.0
C51 C 0.55266 0.93366 0.00362 0.0
C52 C 0.53735 0.87828 0.99759 0.0
C53 C 0.52278 0.84794 0.09569 0.0
C54 C 0.51972 0.80586 0.098 0.0
C55 C 0.53151 0.79366 0.00246 0.0
C56 C 0.54078 0.81877 0.90082 0.0
C57 C 0.54362 0.86057 0.89824 0.0
C58 C 0.56684 1.05039 0.78112 0.0
C59 C 0.44903 0.95046 0.99476 0.0
O60 O 0.58414 0.17029 0.91322 0.0
O61 O 0.57071 0.16569 0.09583 0.0
O62 O 0.53784 0.07511 0.18972 0.0
O63 O 0.59194 0.08604 0.14071 0.0
O64 O 0.65608 0.17812 0.99498 0.0
O65 O 0.65556 0.11453 0.01726 0.0
O66 O 0.54556 0.95118 0.08984 0.0
O67 O 0.56548 0.96097 0.91188 0.0
O68 O 0.59185 1.04521 0.80972 0.0
O69 O 0.53878 1.03585 0.85932 0.0
O70 O 0.47443 0.94326 0.00326 0.0
O71 O 0.47497 1.00726 0.98436 0.0
H72 H 0.61345 0.26239 0.83017 0.0
H73 H 0.61813 0.3353 0.82651 0.0
H74 H 0.58085 0.31212 0.17854 0.0
H75 H 0.57625 0.23965 0.1828 0.0
H76 H 0.51676 0.85957 0.17298 0.0
H77 H 0.51154 0.78626 0.177 0.0
H78 H 0.5492 0.8094 0.82534 0.0
H79 H 0.55415 0.88217 0.82048 0.0
Nd80 Nd 0.5008 0.50116 0.99427 0.0
Nd81 Nd 0.6296 0.62094 0.00839 0.0
C82 C 0.41392 0.45069 0.93164 0.0
C83 C 0.40172 0.47913 0.94814 0.0
C84 C 0.41012 0.51118 0.8618 0.0
C85 C 0.3926 0.53083 0.87031 0.0
C86 C 0.36738 0.51969 0.96582 0.0
C87 C 0.3624 0.49245 0.05637 0.0
C88 C 0.37998 0.47278 0.04815 0.0
C89 C 0.54369 0.54542 0.22001 0.0
C90 C 0.58023 0.65604 0.02383 0.0
C91 C 0.71649 0.67173 0.07212 0.0
C92 C 0.72909 0.64378 0.05475 0.0
C93 C 0.72109 0.61194 0.14082 0.0
C94 C 0.73928 0.59314 0.13205 0.0
C95 C 0.76476 0.60491 0.03654 0.0
C96 C 0.76916 0.63169 0.946 0.0
C97 C 0.75089 0.6505 0.95448 0.0
C98 C 0.58713 0.57651 0.78235 0.0
C99 C 0.55024 0.46613 0.97995 0.0
O100 O 0.44911 0.47574 0.85944 0.0
O101 O 0.41852 0.43644 0.02371 0.0
O102 O 0.49308 0.49521 0.18982 0.0
O103 O 0.56798 0.56779 0.13063 0.0
O104 O 0.53351 0.59345 0.00268 0.0
O105 O 0.62569 0.68191 0.03952 0.0
O106 O 0.68077 0.64568 0.1435 0.0
O107 O 0.7123 0.68672 0.98075 0.0
O108 O 0.63767 0.62637 0.81318 0.0
O109 O 0.56238 0.55438 0.87123 0.0
O110 O 0.59694 0.52872 0.00128 0.0
O111 O 0.50478 0.44024 0.96346 0.0
H112 H 0.42832 0.51887 0.78546 0.0
H113 H 0.39706 0.55265 0.80052 0.0
H114 H 0.34336 0.4844 0.13132 0.0
H115 H 0.37462 0.45039 0.11802 0.0
H116 H 0.70276 0.60389 0.21726 0.0
H117 H 0.73519 0.57157 0.20173 0.0
H118 H 0.78831 0.6401 0.87095 0.0
H119 H 0.75583 0.67262 0.8847 0.0
C120 C 0.06351 0.55886 0.55163 0.0
C121 C 1.05976 0.55707 0.65452 0.0
C122 C 0.06738 0.563 0.44917 0.0
C123 C 0.07106 0.56482 0.34626 0.0
C124 C 0.56784 0.06373 0.44001 0.0
C125 C 0.56937 0.06769 0.33764 0.0
C126 C 0.56371 1.05912 0.5604 0.0
C127 C 0.56177 1.05469 0.66262 0.0
C128 C 0.56422 0.55824 0.5607 0.0
C129 C 0.56674 0.55898 0.66391 0.0
C130 C 0.56742 0.56362 0.44093 0.0
C131 C 0.5646 0.56301 0.33788 0.0
C132 C 0.30103 0.55592 0.95618 0.0
C133 C 0.27505 0.55818 0.95335 0.0
C134 C 0.32549 0.54528 0.96316 0.0
C135 C 0.34418 0.5331 0.96694 0.0
C136 C 0.78785 0.27387 0.99841 0.0
C137 C 0.73952 0.22709 0.0015 0.0
C138 C 0.84473 0.32884 0.99383 0.0
C139 C 0.89305 0.37623 0.99114 0.0
C140 C 0.55077 0.73941 0.0175 0.0
C141 C 0.54174 0.76387 0.013 0.0
C142 C 0.56647 0.71636 0.02325 0.0
C143 C 0.57827 0.69493 0.02598 0.0
C144 C 0.83237 0.57041 0.04692 0.0
C145 C 0.85768 0.56721 0.04915 0.0
C146 C 0.80799 0.58113 0.03978 0.0
C147 C 0.78873 0.59254 0.03545 0.0
C148 C 0.286 0.79347 0.00666 0.0
C149 C 0.23769 0.74632 0.00955 0.0
C150 C 0.34282 0.84785 0.00184 0.0
C151 C 0.39112 0.89442 0.99865 0.0
C152 C 0.56403 0.40589 0.98159 0.0
C153 C 0.55223 0.42729 0.97835 0.0
C154 C 0.57961 0.38273 0.98744 0.0
C155 C 0.58826 0.35785 0.99143 0.0
loop_
_geom_bond_atom_site_label_1
_geom_bond_atom_site_label_2
_geom_bond_distance
_geom_bond_site_symmetry_2
_ccdc_geom_bond_type
Nd0 C2 2.836 1_556 S
Nd0 O20 2.500 1_556 S
Nd0 O21 2.492 . S
Nd0 O22 2.487 . S
Nd0 O23 2.682 1_655 S
Nd0 O24 2.410 . S
Nd0 O29 2.414 1_556 S
Nd0 O31 2.424 1_656 S
Nd1 C11 2.836 1_554 S
Nd1 O23 2.414 1_554 S
Nd1 O25 2.424 1_454 S
Nd1 O26 2.500 1_554 S
Nd1 O27 2.492 . S
Nd1 O28 2.487 . S
Nd1 O29 2.682 1_455 S
Nd1 O30 2.410 . S
C2 Nd0 2.836 1_554 S
C2 C3 1.498 . S
C2 O20 1.258 . S
C2 O21 1.239 1_554 S
C3 C2 1.498 . S
C3 C4 1.366 . S
C3 C8 1.407 1_554 S
C4 C3 1.366 . S
C4 C5 1.392 . S
C4 H32 0.930 . S
C5 C4 1.392 . S
C5 C6 1.398 . S
C5 H33 0.929 . S
C6 C5 1.398 . S
C6 C7 1.352 1_554 S
C7 C6 1.352 1_556 S
C7 C8 1.384 . S
C7 H34 0.930 . S
C8 C3 1.407 1_556 S
C8 C7 1.384 . S
C8 H35 0.929 . S
C9 O22 1.241 1_455 S
C9 O23 1.273 . S
C10 O24 1.251 . S
C10 O25 1.268 . S
C11 Nd1 2.836 1_556 S
C11 C12 1.498 . S
C11 O26 1.258 . S
C11 O27 1.239 1_556 S
C12 C11 1.498 . S
C12 C13 1.366 . S
C12 C17 1.407 1_556 S
C13 C12 1.366 . S
C13 C14 1.392 . S
C13 H36 0.930 . S
C14 C13 1.392 . S
C14 C15 1.398 . S
C14 H37 0.929 . S
C15 C14 1.398 . S
C15 C16 1.352 1_556 S
C16 C15 1.352 1_554 S
C16 C17 1.384 . S
C16 H38 0.930 . S
C17 C12 1.407 1_554 S
C17 C16 1.384 . S
C17 H39 0.929 . S
C18 O28 1.241 . S
C18 O29 1.273 1_455 S
C19 O30 1.251 . S
C19 O31 1.268 . S
O20 Nd0 2.500 1_554 S
O20 C2 1.258 . S
O21 Nd0 2.492 . S
O21 C2 1.239 1_556 S
O22 Nd0 2.487 . S
O22 C9 1.241 1_655 S
O23 Nd0 2.682 1_455 S
O23 Nd1 2.414 1_556 S
O23 C9 1.273 . S
O24 Nd0 2.410 . S
O24 C10 1.251 . S
O25 Nd1 2.424 1_656 S
O25 C10 1.268 . S
O26 Nd1 2.500 1_556 S
O26 C11 1.258 . S
O27 Nd1 2.492 . S
O27 C11 1.239 1_554 S
O28 Nd1 2.487 . S
O28 C18 1.241 . S
O29 Nd0 2.414 1_554 S
O29 Nd1 2.682 1_655 S
O29 C18 1.273 1_655 S
O30 Nd1 2.410 . S
O30 C19 1.251 . S
O31 Nd0 2.424 1_454 S
O31 C19 1.268 . S
H32 C4 0.930 . S
H33 C5 0.929 . S
H34 C7 0.930 . S
H35 C8 0.929 . S
H36 C13 0.930 . S
H37 C14 0.929 . S
H38 C16 0.930 . S
H39 C17 0.929 . S
Nd40 C42 2.836 . S
Nd40 O60 2.500 1_554 S
Nd40 O61 2.492 . S
Nd40 O62 2.487 . S
Nd40 O63 2.682 1_545 S
Nd40 O64 2.410 . S
Nd40 O69 2.414 1_554 S
Nd40 O71 2.424 1_545 S
Nd41 C51 2.836 . S
Nd41 O63 2.414 1_556 S
Nd41 O65 2.424 1_565 S
Nd41 O66 2.500 1_556 S
Nd41 O67 2.492 . S
Nd41 O68 2.487 . S
Nd41 O69 2.682 1_565 S
Nd41 O70 2.410 . S
C42 Nd40 2.836 . S
C42 C43 1.498 . S
C42 O60 1.258 1_554 S
C42 O61 1.239 . S
C43 C42 1.498 . S
C43 C44 1.366 1_554 S
C43 C48 1.407 . S
C44 C43 1.366 1_556 S
C44 C45 1.392 . S
C44 H72 0.930 . S
C45 C44 1.392 . S
C45 C46 1.398 1_556 S
C45 H73 0.929 . S
C46 C45 1.398 1_554 S
C46 C47 1.352 . S
C47 C46 1.352 . S
C47 C48 1.384 . S
C47 H74 0.930 . S
C48 C43 1.407 . S
C48 C47 1.384 . S
C48 H75 0.929 . S
C49 O62 1.241 . S
C49 O63 1.273 1_545 S
C50 O64 1.251 . S
C50 O65 1.268 1_554 S
C51 Nd41 2.836 . S
C51 C52 1.498 . S
C51 O66 1.258 1_556 S
C51 O67 1.239 . S
C52 C51 1.498 . S
C52 C53 1.366 1_556 S
C52 C57 1.407 . S
C53 C52 1.366 1_554 S
C53 C54 1.392 . S
C53 H76 0.930 . S
C54 C53 1.392 . S
C54 C55 1.398 1_554 S
C54 H77 0.929 . S
C55 C54 1.398 1_556 S
C55 C56 1.352 . S
C56 C55 1.352 . S
C56 C57 1.384 . S
C56 H78 0.930 . S
C57 C52 1.407 . S
C57 C56 1.384 . S
C57 H79 0.929 . S
C58 O68 1.241 . S
C58 O69 1.273 1_565 S
C59 O70 1.251 . S
C59 O71 1.268 1_556 S
O60 Nd40 2.500 1_556 S
O60 C42 1.258 1_556 S
O61 Nd40 2.492 . S
O61 C42 1.239 . S
O62 Nd40 2.487 . S
O62 C49 1.241 . S
O63 Nd40 2.682 1_565 S
O63 Nd41 2.414 1_554 S
O63 C49 1.273 1_565 S
O64 Nd40 2.410 . S
O64 C50 1.251 . S
O65 Nd41 2.424 1_545 S
O65 C50 1.268 1_556 S
O66 Nd41 2.500 1_554 S
O66 C51 1.258 1_554 S
O67 Nd41 2.492 . S
O67 C51 1.239 . S
O68 Nd41 2.487 . S
O68 C58 1.241 . S
O69 Nd40 2.414 1_556 S
O69 Nd41 2.682 1_545 S
O69 C58 1.273 1_545 S
O70 Nd41 2.410 . S
O70 C59 1.251 . S
O71 Nd40 2.424 1_565 S
O71 C59 1.268 1_554 S
H72 C44 0.930 . S
H73 C45 0.929 . S
H74 C47 0.930 . S
H75 C48 0.929 . S
H76 C53 0.930 . S
H77 C54 0.929 . S
H78 C56 0.930 . S
H79 C57 0.929 . S
Nd80 C82 2.836 1_554 S
Nd80 O100 2.500 1_554 S
Nd80 O101 2.492 . S
Nd80 O102 2.487 . S
Nd80 O103 2.682 . S
Nd80 O104 2.410 . S
Nd80 O109 2.414 1_554 S
Nd80 O111 2.424 1_554 S
Nd81 C91 2.836 1_556 S
Nd81 O103 2.414 1_556 S
Nd81 O105 2.424 1_556 S
Nd81 O106 2.500 1_556 S
Nd81 O107 2.492 . S
Nd81 O108 2.487 . S
Nd81 O109 2.682 . S
Nd81 O110 2.410 . S
C82 Nd80 2.836 1_556 S
C82 C83 1.498 . S
C82 O100 1.258 . S
C82 O101 1.239 1_556 S
C83 C82 1.498 . S
C83 C84 1.366 . S
C83 C88 1.407 1_556 S
C84 C83 1.366 . S
C84 C85 1.392 . S
C84 H112 0.930 . S
C85 C84 1.392 . S
C85 C86 1.398 . S
C85 H113 0.929 . S
C86 C85 1.398 . S
C86 C87 1.352 1_556 S
C87 C86 1.352 1_554 S
C87 C88 1.384 . S
C87 H114 0.930 . S
C88 C83 1.407 1_554 S
C88 C87 1.384 . S
C88 H115 0.929 . S
C89 O102 1.241 . S
C89 O103 1.273 . S
C90 O104 1.251 . S
C90 O105 1.268 . S
C91 Nd81 2.836 1_554 S
C91 C92 1.498 . S
C91 O106 1.258 . S
C91 O107 1.239 1_554 S
C92 C91 1.498 . S
C92 C93 1.366 . S
C92 C97 1.407 1_554 S
C93 C92 1.366 . S
C93 C94 1.392 . S
C93 H116 0.930 . S
C94 C93 1.392 . S
C94 C95 1.398 . S
C94 H117 0.929 . S
C95 C94 1.398 . S
C95 C96 1.352 1_554 S
C96 C95 1.352 1_556 S
C96 C97 1.384 . S
C96 H118 0.930 . S
C97 C92 1.407 1_556 S
C97 C96 1.384 . S
C97 H119 0.929 . S
C98 O108 1.241 . S
C98 O109 1.273 . S
C99 O110 1.251 . S
C99 O111 1.268 . S
O100 Nd80 2.500 1_556 S
O100 C82 1.258 . S
O101 Nd80 2.492 . S
O101 C82 1.239 1_554 S
O102 Nd80 2.487 . S
O102 C89 1.241 . S
O103 Nd80 2.682 . S
O103 Nd81 2.414 1_554 S
O103 C89 1.273 . S
O104 Nd80 2.410 . S
O104 C90 1.251 . S
O105 Nd81 2.424 1_554 S
O105 C90 1.268 . S
O106 Nd81 2.500 1_554 S
O106 C91 1.258 . S
O107 Nd81 2.492 . S
O107 C91 1.239 1_556 S
O108 Nd81 2.487 . S
O108 C98 1.241 . S
O109 Nd80 2.414 1_556 S
O109 Nd81 2.682 . S
O109 C98 1.273 . S
O110 Nd81 2.410 . S
O110 C99 1.251 . S
O111 Nd80 2.424 1_556 S
O111 C99 1.268 . S
H112 C84 0.930 . S
H113 C85 0.929 . S
H114 C87 0.930 . S
H115 C88 0.929 . S
H116 C93 0.930 . S
H117 C94 0.929 . S
H118 C96 0.930 . S
H119 C97 0.929 . S
C120 C121 1.170 . S
C120 C122 1.380 . S
C121 C120 1.170 . S
C122 C120 1.380 . S
C122 C123 1.170 . S
C123 C122 1.170 . S
C124 C125 1.170 . S
C124 C126 1.380 . S
C125 C124 1.170 . S
C126 C124 1.380 . S
C126 C127 1.169 1_545 S
C127 C126 1.169 1_565 S
C128 C129 1.170 . S
C128 C130 1.380 . S
C129 C128 1.170 . S
C130 C128 1.380 . S
C130 C131 1.170 . S
C131 C130 1.170 . S
C132 C133 1.170 . S
C132 C134 1.380 . S
C133 C132 1.170 . S
C134 C132 1.380 . S
C134 C135 1.170 . S
C135 C134 1.170 . S
C136 C137 1.170 . S
C136 C138 1.380 . S
C137 C136 1.170 . S
C138 C136 1.380 . S
C138 C139 1.170 . S
C139 C138 1.170 . S
C140 C141 1.170 . S
C140 C142 1.380 . S
C141 C140 1.170 . S
C142 C140 1.380 . S
C142 C143 1.170 . S
C143 C142 1.170 . S
C144 C145 1.170 . S
C144 C146 1.380 . S
C145 C144 1.170 . S
C146 C144 1.380 . S
C146 C147 1.170 . S
C147 C146 1.170 . S
C148 C149 1.170 . S
C148 C150 1.380 . S
C149 C148 1.170 . S
C150 C148 1.380 . S
C150 C151 1.170 . S
C151 C150 1.170 . S
C152 C153 1.170 . S
C152 C154 1.380 . S
C153 C152 1.170 . S
C154 C152 1.380 . S
C154 C155 1.170 . S
C155 C154 1.170 . S
C121 C9 1.459 . S
C123 C18 1.416 . S
C125 C49 1.465 . S
C127 C58 1.444 . S
C129 C98 1.423 . S
C131 C89 1.460 . S
C133 C15 0.968 . S
C135 C86 0.941 . S
C137 C50 2.570 . S
C139 C10 2.652 1_554 S
C141 C55 2.139 1_554 S
C143 C90 2.251 . S
C145 C6 0.935 . S
C147 C95 0.980 . S
C149 C19 2.653 1_556 S
C151 C59 2.586 . S
C153 C99 2.258 1_554 S
C155 C46 2.136 . S
