# Generated by pormake.
# Topology uoz, (4)-cn, num edge types: 1
# Building blocks:
#     Node 0, Type 0, BuildingBlock: CEKHIL_clean_sbu_0, # of connection points: 4
#     Node 1, Type 0, BuildingBlock: CEKHIL_clean_sbu_0, # of connection points: 4
#     Node 2, Type 0, BuildingBlock: CEKHIL_clean_sbu_0, # of connection points: 4
#     Node 3, Type 0, BuildingBlock: CEKHIL_clean_sbu_0, # of connection points: 4
#     Node 4, Type 0, BuildingBlock: CEKHIL_clean_sbu_0, # of connection points: 4
#     Node 5, Type 0, BuildingBlock: CEKHIL_clean_sbu_0, # of connection points: 4
#     Node 6, Type 0, BuildingBlock: CEKHIL_clean_sbu_0, # of connection points: 4
#     Node 7, Type 0, BuildingBlock: CEKHIL_clean_sbu_0, # of connection points: 4
#     Node 8, Type 0, BuildingBlock: CEKHIL_clean_sbu_0, # of connection points: 4
#     Node 9, Type 0, BuildingBlock: CEKHIL_clean_sbu_0, # of connection points: 4
#     Node 10, Type 0, BuildingBlock: CEKHIL_clean_sbu_0, # of connection points: 4
#     Node 11, Type 0, BuildingBlock: CEKHIL_clean_sbu_0, # of connection points: 4
#     Node 12, Type 0, BuildingBlock: CEKHIL_clean_sbu_0, # of connection points: 4
#     Node 13, Type 0, BuildingBlock: CEKHIL_clean_sbu_0, # of connection points: 4
#     Node 14, Type 0, BuildingBlock: CEKHIL_clean_sbu_0, # of connection points: 4
#     Node 15, Type 0, BuildingBlock: CEKHIL_clean_sbu_0, # of connection points: 4
#     Edge 16, Type (0, 0), None
#     Edge 17, Type (0, 0), None
#     Edge 18, Type (0, 0), None
#     Edge 19, Type (0, 0), None
#     Edge 20, Type (0, 0), None
#     Edge 21, Type (0, 0), None
#     Edge 22, Type (0, 0), None
#     Edge 23, Type (0, 0), None
#     Edge 24, Type (0, 0), None
#     Edge 25, Type (0, 0), None
#     Edge 26, Type (0, 0), None
#     Edge 27, Type (0, 0), None
#     Edge 28, Type (0, 0), None
#     Edge 29, Type (0, 0), None
#     Edge 30, Type (0, 0), None
#     Edge 31, Type (0, 0), None
#     Edge 32, Type (0, 0), None
#     Edge 33, Type (0, 0), None
#     Edge 34, Type (0, 0), None
#     Edge 35, Type (0, 0), None
#     Edge 36, Type (0, 0), None
#     Edge 37, Type (0, 0), None
#     Edge 38, Type (0, 0), None
#     Edge 39, Type (0, 0), None
#     Edge 40, Type (0, 0), None
#     Edge 41, Type (0, 0), None
#     Edge 42, Type (0, 0), None
#     Edge 43, Type (0, 0), None
#     Edge 44, Type (0, 0), None
#     Edge 45, Type (0, 0), None
#     Edge 46, Type (0, 0), None
#     Edge 47, Type (0, 0), None
# Relax obj value: 0.166
# Max RMSD: 0.172
# Mean RMSD: 0.172
data_MOF--net-uoz--node1-CEKHIL_clean_sbu_0--edge1-none
_symmetry_space_group_name_H-M    P1
_symmetry_Int_Tables_number       1
_symmetry_cell_setting            triclinic
loop_
_symmetry_equiv_pos_as_xyz
'x, y, z'
_cell_length_a     26.802083
_cell_length_b     26.80179
_cell_length_c     8.2894697
_cell_angle_alpha  90.00334
_cell_angle_beta   90.000566
_cell_angle_gamma 90.000754
loop_
_atom_site_label
_atom_site_type_symbol
_atom_site_fract_x
_atom_site_fract_y
_atom_site_fract_z
_atom_type_partial_charge
Co0 Co 0.0403 0.58756 0.39025 0.0
O1 O 0.00741 0.52515 0.45307 0.0
O2 O 0.06367 0.56358 0.60087 0.0
C3 C 0.9731 0.62913 0.29944 0.0
O4 O 0.082 0.65153 0.36128 0.0
Co5 Co 0.04177 0.6215 1.02463 0.0
O6 O 0.08331 0.67703 0.10019 0.0
C7 C 0.09087 0.53029 0.14327 0.0
C8 C 0.0346 0.52505 0.58245 0.0
C9 C 0.09641 0.68138 0.24688 0.0
O10 O 0.09406 0.54945 0.28348 0.0
O11 O 0.06861 0.55189 1.02594 0.0
O12 O 0.98213 0.62694 0.45372 0.0
O13 O 1.00113 0.60197 0.20902 0.0
Co14 Co 0.72801 0.73173 0.64025 0.0
O15 O 0.79043 0.69887 0.70314 0.0
O16 O 0.75197 0.75513 0.85088 0.0
C17 C 0.68646 0.66452 0.54945 0.0
O18 O 0.66403 0.77341 0.6112 0.0
Co19 Co 0.6941 0.73317 0.2746 0.0
O20 O 0.63856 0.77472 0.35007 0.0
C21 C 0.78527 0.78233 0.39331 0.0
C22 C 0.79051 0.72607 0.8325 0.0
C23 C 0.63419 0.78781 0.49677 0.0
O24 O 0.76611 0.7855 0.53351 0.0
O25 O 0.76369 0.76006 0.27597 0.0
O26 O 0.68865 0.67355 0.70371 0.0
O27 O 0.71362 0.69255 0.45903 0.0
Co28 Co 0.58376 0.41944 0.89026 0.0
O29 O 0.61664 0.48185 0.95312 0.0
O30 O 0.56038 0.44341 0.1009 0.0
C31 C 0.65095 0.37787 0.79945 0.0
O32 O 0.54205 0.35547 0.86127 0.0
Co33 Co 0.58228 0.3855 0.52463 0.0
O34 O 0.54074 0.32997 0.60017 0.0
C35 C 0.53319 0.47671 0.64331 0.0
C36 C 0.58945 0.48194 1.08249 0.0
C37 C 0.52764 0.32562 0.74686 0.0
O38 O 0.52999 0.45755 0.78351 0.0
O39 O 0.55544 0.45511 0.52598 0.0
O40 O 0.64192 0.38006 0.95372 0.0
O41 O 0.62292 0.40503 0.70903 0.0
Co42 Co 0.89604 0.27527 0.14023 0.0
O43 O 0.83362 0.30813 0.2031 0.0
O44 O 0.87209 0.25189 0.35087 0.0
C45 C 0.93759 0.34247 1.0494 0.0
O46 O 0.96002 0.23359 0.11124 0.0
Co47 Co 0.92997 0.27379 0.77461 0.0
O48 O 0.9855 0.23225 0.85013 0.0
C49 C 0.83878 0.22466 0.89329 0.0
C50 C 0.83355 0.28095 0.33248 0.0
C51 C 0.98986 0.21917 0.99684 0.0
O52 O 0.85794 0.22149 1.03351 0.0
O53 O 0.86037 0.24692 0.77595 0.0
O54 O 0.93541 0.33345 0.20368 0.0
O55 O 0.91044 0.31444 0.95899 0.0
Co56 Co 0.04031 0.41952 0.88961 0.0
O57 O 0.00742 0.48193 0.82678 0.0
O58 O 0.06367 0.44349 0.67896 0.0
C59 C 0.97312 0.37795 0.98044 0.0
O60 O 0.08201 0.35554 0.91858 0.0
Co61 Co 0.04178 0.38556 0.25525 0.0
O62 O 0.08333 0.33004 0.17968 0.0
C63 C 0.09095 0.47673 0.13665 0.0
C64 C 0.0346 0.48202 0.6974 0.0
C65 C 0.09643 0.3257 1.03299 0.0
O66 O 0.09408 0.45763 0.99633 0.0
O67 O 0.06867 0.45515 0.25396 0.0
O68 O 0.98213 0.38014 0.82617 0.0
O69 O 1.00115 0.4051 1.07086 0.0
Co70 Co 0.89604 0.73182 0.13966 0.0
O71 O 0.83363 0.69892 1.07688 0.0
O72 O 0.87205 0.75517 0.92901 0.0
C73 C 0.93762 0.66464 0.2305 0.0
O74 O 0.96001 0.77353 0.16857 0.0
Co75 Co 0.93002 0.73331 0.50529 0.0
O76 O 0.98555 0.77483 0.42964 0.0
C77 C 0.83884 0.78246 0.38671 0.0
C78 C 0.83353 0.7261 0.94748 0.0
C79 C 0.98988 0.78794 0.28294 0.0
O80 O 0.85793 0.7856 0.24639 0.0
O81 O 0.86043 0.7602 0.50402 0.0
O82 O 0.93541 0.67365 1.07622 0.0
O83 O 0.91047 0.69267 0.32092 0.0
Co84 Co 0.58375 0.58748 0.38967 0.0
O85 O 0.61663 0.52506 0.32685 0.0
O86 O 0.56038 0.5635 0.17902 0.0
C87 C 0.65094 0.62904 0.4805 0.0
O88 O 0.54205 0.65145 0.41862 0.0
Co89 Co 0.58228 0.62145 0.75529 0.0
O90 O 0.54073 0.67696 0.67971 0.0
C91 C 0.5331 0.53028 0.6367 0.0
C92 C 0.58945 0.52497 0.19746 0.0
C93 C 0.52763 0.6813 0.53301 0.0
O94 O 0.52998 0.54937 0.49638 0.0
O95 O 0.55538 0.55186 0.75402 0.0
O96 O 0.64193 0.62684 0.32622 0.0
O97 O 0.62291 0.60189 0.57092 0.0
Co98 Co 0.72801 0.27519 0.63963 0.0
O99 O 0.79042 0.30809 0.57685 0.0
O100 O 0.752 0.25183 0.42897 0.0
C101 C 0.68643 0.34236 0.73049 0.0
O102 O 0.66405 0.23347 0.66853 0.0
Co103 Co 0.69403 0.27369 1.00526 0.0
O104 O 0.63852 0.23215 0.9296 0.0
C105 C 0.78522 0.22454 0.88666 0.0
C106 C 0.79052 0.28092 0.44744 0.0
C107 C 0.63419 0.21905 0.7829 0.0
O108 O 0.76613 0.22141 0.74633 0.0
O109 O 0.76363 0.24681 1.00399 0.0
O110 O 0.68863 0.33335 0.57621 0.0
O111 O 0.71359 0.31433 0.8209 0.0
Co112 Co 0.39606 0.23171 0.63956 0.0
O113 O 0.33364 0.19884 0.5767 0.0
O114 O 0.37209 0.2551 0.42895 0.0
C115 C 0.43762 0.16451 0.73035 0.0
O116 O 0.46003 0.27341 0.66855 0.0
Co117 Co 0.43 0.23318 1.00518 0.0
O118 O 0.48551 0.27474 0.92966 0.0
C119 C 0.33879 0.28228 0.88653 0.0
C120 C 0.33355 0.22603 0.44735 0.0
C121 C 0.48988 0.28783 0.78296 0.0
O122 O 0.35795 0.28547 0.74632 0.0
O123 O 0.36038 0.26002 1.00385 0.0
O124 O 0.43543 0.17354 0.57608 0.0
O125 O 0.41047 0.19254 0.82078 0.0
Co126 Co 0.228 0.77527 0.13957 0.0
O127 O 0.29042 0.80814 1.0767 0.0
O128 O 0.25195 0.75189 0.92891 0.0
C129 C 0.18646 0.84248 0.23044 0.0
O130 O 0.16402 0.73359 0.16857 0.0
Co131 Co 0.19408 0.7738 0.50521 0.0
O132 O 0.13855 0.73225 0.42969 0.0
C133 C 0.28527 0.72467 0.38648 0.0
C134 C 0.2905 0.78095 0.94731 0.0
C135 C 0.13418 0.71917 0.28298 0.0
O136 O 0.2661 0.7215 0.24627 0.0
O137 O 0.26368 0.74693 0.50383 0.0
O138 O 0.18864 0.83346 1.07616 0.0
O139 O 0.21361 0.81444 0.32083 0.0
Co140 Co 0.22801 0.23177 0.14023 0.0
O141 O 0.29041 0.19887 0.20304 0.0
O142 O 0.25201 0.25515 0.35086 0.0
C143 C 0.18643 0.16459 1.04947 0.0
O144 O 0.16405 0.2735 0.11126 0.0
Co145 Co 0.19403 0.23323 0.77461 0.0
O146 O 0.13853 0.2748 0.85018 0.0
C147 C 0.28523 0.28238 0.89315 0.0
C148 C 0.29053 0.22606 0.33241 0.0
C149 C 0.1342 0.2879 0.99688 0.0
O150 O 0.26614 0.28553 1.03347 0.0
O151 O 0.26364 0.26009 0.77586 0.0
O152 O 0.18862 0.17362 0.20374 0.0
O153 O 0.21358 0.19261 0.95902 0.0
Co154 Co 0.39603 0.7752 0.64015 0.0
O155 O 0.33362 0.8081 0.70294 0.0
O156 O 0.37204 0.75185 0.8508 0.0
C157 C 0.4376 0.84239 0.54931 0.0
O158 O 0.46 0.7335 0.61123 0.0
Co159 Co 0.43001 0.77371 0.27453 0.0
O160 O 0.48553 0.73217 0.35016 0.0
C161 C 0.33883 0.72455 0.3931 0.0
C162 C 0.33352 0.78093 0.83234 0.0
C163 C 0.48987 0.71909 0.49687 0.0
O164 O 0.35792 0.72143 0.53343 0.0
O165 O 0.36042 0.74682 0.27579 0.0
O166 O 0.4354 0.83338 0.70358 0.0
O167 O 0.41045 0.81435 0.45889 0.0
Co168 Co 0.5403 0.08745 0.89014 0.0
O169 O 0.50742 0.02503 0.95299 0.0
O170 O 0.56368 0.06348 0.10078 0.0
C171 C 0.47312 0.12902 0.7993 0.0
O172 O 0.582 0.15142 0.86116 0.0
Co173 Co 0.54179 0.12138 0.52452 0.0
O174 O 0.58334 0.1769 0.60005 0.0
C175 C 0.59089 0.03017 0.64321 0.0
C176 C 0.53461 0.02495 1.08237 0.0
C177 C 0.59642 0.18127 0.74676 0.0
O178 O 0.59407 0.04934 0.78342 0.0
O179 O 0.56864 0.05177 0.52586 0.0
O180 O 0.48213 0.12682 0.95358 0.0
O181 O 0.50115 0.10185 0.70889 0.0
Co182 Co 0.08377 0.91952 0.39031 0.0
O183 O 0.11664 0.98193 0.45323 0.0
O184 O 0.06039 0.94346 0.60097 0.0
C185 C 0.15095 0.87796 0.29943 0.0
O186 O 0.04207 0.85555 0.36125 0.0
Co187 Co 0.08228 0.88561 1.02465 0.0
O188 O 0.04073 0.83008 0.10012 0.0
C189 C 0.03317 0.9768 0.14342 0.0
C190 C 0.08945 0.982 0.58261 0.0
C191 C 0.02766 0.82571 0.24683 0.0
O192 O 0.03 0.95764 0.28363 0.0
O193 O 0.05542 0.95521 1.02606 0.0
O194 O 0.14194 0.88014 0.45371 0.0
O195 O 0.12293 0.90513 0.20904 0.0
Co196 Co 0.54031 0.91942 0.38953 0.0
O197 O 0.50744 0.98184 0.32674 0.0
O198 O 0.56368 0.94339 0.17889 0.0
C199 C 0.47312 0.87787 0.48036 0.0
O200 O 0.582 0.85544 0.41847 0.0
Co201 Co 0.54178 0.88545 0.75517 0.0
O202 O 0.5833 0.82992 0.67955 0.0
C203 C 0.59098 0.97661 0.63659 0.0
C204 C 0.53462 0.98193 0.19734 0.0
C205 C 0.59639 0.82557 0.53285 0.0
O206 O 0.5941 0.95751 0.49626 0.0
O207 O 0.5687 0.95503 0.7539 0.0
O208 O 0.48213 0.88006 0.32608 0.0
O209 O 0.50116 0.90501 0.57079 0.0
Co210 Co 0.08372 0.08754 0.88975 0.0
O211 O 0.1166 0.02511 0.82701 0.0
O212 O 0.06036 0.06355 0.67912 0.0
C213 C 0.15091 0.1291 0.98056 0.0
O214 O 0.04204 0.15152 0.91862 0.0
Co215 Co 0.08224 0.12154 0.25536 0.0
O216 O 0.04073 0.17707 0.17968 0.0
C217 C 0.03306 0.03036 0.13682 0.0
C218 C 0.08942 0.02502 0.69759 0.0
C219 C 0.02765 0.1814 1.03297 0.0
O220 O 0.02993 0.04945 0.99649 0.0
O221 O 0.05533 0.05195 0.25413 0.0
O222 O 0.1419 0.12689 0.82628 0.0
O223 O 0.12287 0.10196 1.07101 0.0
loop_
_geom_bond_atom_site_label_1
_geom_bond_atom_site_label_2
_geom_bond_distance
_geom_bond_site_symmetry_2
_ccdc_geom_bond_type
Co0 O1 2.216 . S
Co0 O2 2.091 . S
Co0 O4 2.004 . S
Co0 O10 2.021 . S
Co0 O12 2.137 . S
Co0 O13 2.244 1_455 S
O1 Co0 2.216 . S
O1 C8 1.247 . S
O2 Co0 2.091 . S
O2 C8 1.261 . S
C3 O12 1.247 1_655 S
C3 O13 1.272 . S
O4 Co0 2.004 . S
O4 C9 1.259 . S
Co5 O6 2.061 1_556 S
Co5 O11 2.052 . S
Co5 O13 2.135 1_456 S
O6 Co5 2.061 1_554 S
O6 C9 1.235 . S
C7 O10 1.238 . S
C7 O11 1.241 1_554 S
C8 O1 1.247 . S
C8 O2 1.261 . S
C9 O4 1.259 . S
C9 O6 1.235 . S
O10 Co0 2.021 . S
O10 C7 1.238 . S
O11 Co5 2.052 . S
O11 C7 1.241 1_556 S
O12 Co0 2.137 . S
O12 C3 1.247 1_455 S
O13 Co0 2.244 1_655 S
O13 C3 1.272 . S
O13 Co5 2.135 1_654 S
Co14 O15 2.216 . S
Co14 O16 2.091 . S
Co14 O18 2.004 . S
Co14 O24 2.021 . S
Co14 O26 2.137 . S
Co14 O27 2.244 . S
O15 Co14 2.216 . S
O15 C22 1.247 . S
O16 Co14 2.091 . S
O16 C22 1.261 . S
C17 O26 1.247 . S
C17 O27 1.272 . S
O18 Co14 2.004 . S
O18 C23 1.259 . S
Co19 O20 2.061 . S
Co19 O25 2.052 . S
Co19 O27 2.135 . S
O20 Co19 2.061 . S
O20 C23 1.235 . S
C21 O24 1.238 . S
C21 O25 1.241 . S
C22 O15 1.247 . S
C22 O16 1.261 . S
C23 O18 1.259 . S
C23 O20 1.235 . S
O24 Co14 2.021 . S
O24 C21 1.238 . S
O25 Co19 2.052 . S
O25 C21 1.241 . S
O26 Co14 2.137 . S
O26 C17 1.247 . S
O27 Co14 2.244 . S
O27 C17 1.272 . S
O27 Co19 2.135 . S
Co28 O29 2.216 . S
Co28 O30 2.091 . S
Co28 O32 2.004 . S
Co28 O38 2.021 . S
Co28 O40 2.137 . S
Co28 O41 2.244 . S
O29 Co28 2.216 . S
O29 C36 1.247 . S
O30 Co28 2.091 . S
O30 C36 1.261 . S
C31 O40 1.247 . S
C31 O41 1.272 . S
O32 Co28 2.004 . S
O32 C37 1.259 . S
Co33 O34 2.061 . S
Co33 O39 2.052 . S
Co33 O41 2.135 . S
O34 Co33 2.061 . S
O34 C37 1.235 . S
C35 O38 1.238 . S
C35 O39 1.241 . S
C36 O29 1.247 . S
C36 O30 1.261 . S
C37 O32 1.259 . S
C37 O34 1.235 . S
O38 Co28 2.021 . S
O38 C35 1.238 . S
O39 Co33 2.052 . S
O39 C35 1.241 . S
O40 Co28 2.137 . S
O40 C31 1.247 . S
O41 Co28 2.244 . S
O41 C31 1.272 . S
O41 Co33 2.135 . S
Co42 O43 2.216 . S
Co42 O44 2.091 . S
Co42 O46 2.004 . S
Co42 O52 2.021 1_554 S
Co42 O54 2.137 . S
Co42 O55 2.244 1_554 S
O43 Co42 2.216 . S
O43 C50 1.247 . S
O44 Co42 2.091 . S
O44 C50 1.261 . S
C45 O54 1.247 . S
C45 O55 1.272 1_554 S
O46 Co42 2.004 . S
O46 C51 1.259 1_554 S
Co47 O48 2.061 . S
Co47 O53 2.052 . S
Co47 O55 2.135 . S
O48 Co47 2.061 . S
O48 C51 1.235 . S
C49 O52 1.238 . S
C49 O53 1.241 . S
C50 O43 1.247 . S
C50 O44 1.261 . S
C51 O46 1.259 1_556 S
C51 O48 1.235 . S
O52 Co42 2.021 1_556 S
O52 C49 1.238 . S
O53 Co47 2.052 . S
O53 C49 1.241 . S
O54 Co42 2.137 . S
O54 C45 1.247 . S
O55 Co42 2.244 1_556 S
O55 C45 1.272 1_556 S
O55 Co47 2.135 . S
Co56 O57 2.216 . S
Co56 O58 2.091 . S
Co56 O60 2.004 . S
Co56 O66 2.021 . S
Co56 O68 2.137 . S
Co56 O69 2.244 1_455 S
O57 Co56 2.216 . S
O57 C64 1.247 . S
O58 Co56 2.091 . S
O58 C64 1.261 . S
C59 O68 1.247 1_655 S
C59 O69 1.272 . S
O60 Co56 2.004 . S
O60 C65 1.259 . S
Co61 O62 2.061 . S
Co61 O67 2.052 . S
Co61 O69 2.135 1_454 S
O62 Co61 2.061 . S
O62 C65 1.235 1_554 S
C63 O66 1.238 1_554 S
C63 O67 1.241 . S
C64 O57 1.247 . S
C64 O58 1.261 . S
C65 O60 1.259 . S
C65 O62 1.235 1_556 S
O66 Co56 2.021 . S
O66 C63 1.238 1_556 S
O67 Co61 2.052 . S
O67 C63 1.241 . S
O68 Co56 2.137 . S
O68 C59 1.247 1_455 S
O69 Co56 2.244 1_655 S
O69 C59 1.272 . S
O69 Co61 2.135 1_656 S
Co70 O71 2.216 1_554 S
Co70 O72 2.091 1_554 S
Co70 O74 2.004 . S
Co70 O80 2.021 . S
Co70 O82 2.137 1_554 S
Co70 O83 2.244 . S
O71 Co70 2.216 1_556 S
O71 C78 1.247 . S
O72 Co70 2.091 1_556 S
O72 C78 1.261 . S
C73 O82 1.247 1_554 S
C73 O83 1.272 . S
O74 Co70 2.004 . S
O74 C79 1.259 . S
Co75 O76 2.061 . S
Co75 O81 2.052 . S
Co75 O83 2.135 . S
O76 Co75 2.061 . S
O76 C79 1.235 . S
C77 O80 1.238 . S
C77 O81 1.241 . S
C78 O71 1.247 . S
C78 O72 1.261 . S
C79 O74 1.259 . S
C79 O76 1.235 . S
O80 Co70 2.021 . S
O80 C77 1.238 . S
O81 Co75 2.052 . S
O81 C77 1.241 . S
O82 Co70 2.137 1_556 S
O82 C73 1.247 1_556 S
O83 Co70 2.244 . S
O83 C73 1.272 . S
O83 Co75 2.135 . S
Co84 O85 2.216 . S
Co84 O86 2.091 . S
Co84 O88 2.004 . S
Co84 O94 2.021 . S
Co84 O96 2.137 . S
Co84 O97 2.244 . S
O85 Co84 2.216 . S
O85 C92 1.247 . S
O86 Co84 2.091 . S
O86 C92 1.261 . S
C87 O96 1.247 . S
C87 O97 1.272 . S
O88 Co84 2.004 . S
O88 C93 1.259 . S
Co89 O90 2.061 . S
Co89 O95 2.052 . S
Co89 O97 2.135 . S
O90 Co89 2.061 . S
O90 C93 1.235 . S
C91 O94 1.238 . S
C91 O95 1.241 . S
C92 O85 1.247 . S
C92 O86 1.261 . S
C93 O88 1.259 . S
C93 O90 1.235 . S
O94 Co84 2.021 . S
O94 C91 1.238 . S
O95 Co89 2.052 . S
O95 C91 1.241 . S
O96 Co84 2.137 . S
O96 C87 1.247 . S
O97 Co84 2.244 . S
O97 C87 1.272 . S
O97 Co89 2.135 . S
Co98 O99 2.216 . S
Co98 O100 2.091 . S
Co98 O102 2.004 . S
Co98 O108 2.021 . S
Co98 O110 2.137 . S
Co98 O111 2.244 . S
O99 Co98 2.216 . S
O99 C106 1.247 . S
O100 Co98 2.091 . S
O100 C106 1.261 . S
C101 O110 1.247 . S
C101 O111 1.272 . S
O102 Co98 2.004 . S
O102 C107 1.259 . S
Co103 O104 2.061 . S
Co103 O109 2.052 . S
Co103 O111 2.135 . S
O104 Co103 2.061 . S
O104 C107 1.235 . S
C105 O108 1.238 . S
C105 O109 1.241 . S
C106 O99 1.247 . S
C106 O100 1.261 . S
C107 O102 1.259 . S
C107 O104 1.235 . S
O108 Co98 2.021 . S
O108 C105 1.238 . S
O109 Co103 2.052 . S
O109 C105 1.241 . S
O110 Co98 2.137 . S
O110 C101 1.247 . S
O111 Co98 2.244 . S
O111 C101 1.272 . S
O111 Co103 2.135 . S
Co112 O113 2.216 . S
Co112 O114 2.091 . S
Co112 O116 2.004 . S
Co112 O122 2.021 . S
Co112 O124 2.137 . S
Co112 O125 2.244 . S
O113 Co112 2.216 . S
O113 C120 1.247 . S
O114 Co112 2.091 . S
O114 C120 1.261 . S
C115 O124 1.247 . S
C115 O125 1.272 . S
O116 Co112 2.004 . S
O116 C121 1.259 . S
Co117 O118 2.061 . S
Co117 O123 2.052 . S
Co117 O125 2.135 . S
O118 Co117 2.061 . S
O118 C121 1.235 . S
C119 O122 1.238 . S
C119 O123 1.241 . S
C120 O113 1.247 . S
C120 O114 1.261 . S
C121 O116 1.259 . S
C121 O118 1.235 . S
O122 Co112 2.021 . S
O122 C119 1.238 . S
O123 Co117 2.052 . S
O123 C119 1.241 . S
O124 Co112 2.137 . S
O124 C115 1.247 . S
O125 Co112 2.244 . S
O125 C115 1.272 . S
O125 Co117 2.135 . S
Co126 O127 2.216 1_554 S
Co126 O128 2.091 1_554 S
Co126 O130 2.004 . S
Co126 O136 2.021 . S
Co126 O138 2.137 1_554 S
Co126 O139 2.244 . S
O127 Co126 2.216 1_556 S
O127 C134 1.247 . S
O128 Co126 2.091 1_556 S
O128 C134 1.261 . S
C129 O138 1.247 1_554 S
C129 O139 1.272 . S
O130 Co126 2.004 . S
O130 C135 1.259 . S
Co131 O132 2.061 . S
Co131 O137 2.052 . S
Co131 O139 2.135 . S
O132 Co131 2.061 . S
O132 C135 1.235 . S
C133 O136 1.238 . S
C133 O137 1.241 . S
C134 O127 1.247 . S
C134 O128 1.261 . S
C135 O130 1.259 . S
C135 O132 1.235 . S
O136 Co126 2.021 . S
O136 C133 1.238 . S
O137 Co131 2.052 . S
O137 C133 1.241 . S
O138 Co126 2.137 1_556 S
O138 C129 1.247 1_556 S
O139 Co126 2.244 . S
O139 C129 1.272 . S
O139 Co131 2.135 . S
Co140 O141 2.216 . S
Co140 O142 2.091 . S
Co140 O144 2.004 . S
Co140 O150 2.021 1_554 S
Co140 O152 2.137 . S
Co140 O153 2.244 1_554 S
O141 Co140 2.216 . S
O141 C148 1.247 . S
O142 Co140 2.091 . S
O142 C148 1.261 . S
C143 O152 1.247 . S
C143 O153 1.272 1_554 S
O144 Co140 2.004 . S
O144 C149 1.259 1_554 S
Co145 O146 2.061 . S
Co145 O151 2.052 . S
Co145 O153 2.135 . S
O146 Co145 2.061 . S
O146 C149 1.235 . S
C147 O150 1.238 . S
C147 O151 1.241 . S
C148 O141 1.247 . S
C148 O142 1.261 . S
C149 O144 1.259 1_556 S
C149 O146 1.235 . S
O150 Co140 2.021 1_556 S
O150 C147 1.238 . S
O151 Co145 2.052 . S
O151 C147 1.241 . S
O152 Co140 2.137 . S
O152 C143 1.247 . S
O153 Co140 2.244 1_556 S
O153 C143 1.272 1_556 S
O153 Co145 2.135 . S
Co154 O155 2.216 . S
Co154 O156 2.091 . S
Co154 O158 2.004 . S
Co154 O164 2.021 . S
Co154 O166 2.137 . S
Co154 O167 2.244 . S
O155 Co154 2.216 . S
O155 C162 1.247 . S
O156 Co154 2.091 . S
O156 C162 1.261 . S
C157 O166 1.247 . S
C157 O167 1.272 . S
O158 Co154 2.004 . S
O158 C163 1.259 . S
Co159 O160 2.061 . S
Co159 O165 2.052 . S
Co159 O167 2.135 . S
O160 Co159 2.061 . S
O160 C163 1.235 . S
C161 O164 1.238 . S
C161 O165 1.241 . S
C162 O155 1.247 . S
C162 O156 1.261 . S
C163 O158 1.259 . S
C163 O160 1.235 . S
O164 Co154 2.021 . S
O164 C161 1.238 . S
O165 Co159 2.052 . S
O165 C161 1.241 . S
O166 Co154 2.137 . S
O166 C157 1.247 . S
O167 Co154 2.244 . S
O167 C157 1.272 . S
O167 Co159 2.135 . S
Co168 O169 2.216 . S
Co168 O170 2.091 . S
Co168 O172 2.004 . S
Co168 O178 2.021 . S
Co168 O180 2.137 . S
Co168 O181 2.244 . S
O169 Co168 2.216 . S
O169 C176 1.247 . S
O170 Co168 2.091 . S
O170 C176 1.261 . S
C171 O180 1.247 . S
C171 O181 1.272 . S
O172 Co168 2.004 . S
O172 C177 1.259 . S
Co173 O174 2.061 . S
Co173 O179 2.052 . S
Co173 O181 2.135 . S
O174 Co173 2.061 . S
O174 C177 1.235 . S
C175 O178 1.238 . S
C175 O179 1.241 . S
C176 O169 1.247 . S
C176 O170 1.261 . S
C177 O172 1.259 . S
C177 O174 1.235 . S
O178 Co168 2.021 . S
O178 C175 1.238 . S
O179 Co173 2.052 . S
O179 C175 1.241 . S
O180 Co168 2.137 . S
O180 C171 1.247 . S
O181 Co168 2.244 . S
O181 C171 1.272 . S
O181 Co173 2.135 . S
Co182 O183 2.216 . S
Co182 O184 2.091 . S
Co182 O186 2.004 . S
Co182 O192 2.021 . S
Co182 O194 2.137 . S
Co182 O195 2.244 . S
O183 Co182 2.216 . S
O183 C190 1.247 . S
O184 Co182 2.091 . S
O184 C190 1.261 . S
C185 O194 1.247 . S
C185 O195 1.272 . S
O186 Co182 2.004 . S
O186 C191 1.259 1_455 S
Co187 O188 2.061 1_556 S
Co187 O193 2.052 . S
Co187 O195 2.135 1_556 S
O188 Co187 2.061 1_554 S
O188 C191 1.235 1_455 S
C189 O192 1.238 . S
C189 O193 1.241 1_554 S
C190 O183 1.247 . S
C190 O184 1.261 . S
C191 O186 1.259 1_655 S
C191 O188 1.235 1_655 S
O192 Co182 2.021 . S
O192 C189 1.238 . S
O193 Co187 2.052 . S
O193 C189 1.241 1_556 S
O194 Co182 2.137 . S
O194 C185 1.247 . S
O195 Co182 2.244 . S
O195 C185 1.272 . S
O195 Co187 2.135 1_554 S
Co196 O197 2.216 . S
Co196 O198 2.091 . S
Co196 O200 2.004 . S
Co196 O206 2.021 . S
Co196 O208 2.137 . S
Co196 O209 2.244 . S
O197 Co196 2.216 . S
O197 C204 1.247 . S
O198 Co196 2.091 . S
O198 C204 1.261 . S
C199 O208 1.247 . S
C199 O209 1.272 . S
O200 Co196 2.004 . S
O200 C205 1.259 . S
Co201 O202 2.061 . S
Co201 O207 2.052 . S
Co201 O209 2.135 . S
O202 Co201 2.061 . S
O202 C205 1.235 . S
C203 O206 1.238 . S
C203 O207 1.241 . S
C204 O197 1.247 . S
C204 O198 1.261 . S
C205 O200 1.259 . S
C205 O202 1.235 . S
O206 Co196 2.021 . S
O206 C203 1.238 . S
O207 Co201 2.052 . S
O207 C203 1.241 . S
O208 Co196 2.137 . S
O208 C199 1.247 . S
O209 Co196 2.244 . S
O209 C199 1.272 . S
O209 Co201 2.135 . S
Co210 O211 2.216 . S
Co210 O212 2.091 . S
Co210 O214 2.004 . S
Co210 O220 2.021 . S
Co210 O222 2.137 . S
Co210 O223 2.244 . S
O211 Co210 2.216 . S
O211 C218 1.247 . S
O212 Co210 2.091 . S
O212 C218 1.261 . S
C213 O222 1.247 . S
C213 O223 1.272 . S
O214 Co210 2.004 . S
O214 C219 1.259 1_455 S
Co215 O216 2.061 . S
Co215 O221 2.052 . S
Co215 O223 2.135 1_554 S
O216 Co215 2.061 . S
O216 C219 1.235 1_454 S
C217 O220 1.238 1_554 S
C217 O221 1.241 . S
C218 O211 1.247 . S
C218 O212 1.261 . S
C219 O214 1.259 1_655 S
C219 O216 1.235 1_656 S
O220 Co210 2.021 . S
O220 C217 1.238 1_556 S
O221 Co215 2.052 . S
O221 C217 1.241 . S
O222 Co210 2.137 . S
O222 C213 1.247 . S
O223 Co210 2.244 . S
O223 C213 1.272 . S
O223 Co215 2.135 1_556 S
C135 C9 1.691 . S
C205 C23 1.691 . S
C37 C121 1.691 . S
C51 C219 1.691 . S
C65 C149 1.691 . S
C191 C79 1.691 . S
C163 C93 1.691 . S
C107 C177 1.691 . S
C59 C45 2.062 1_556 S
C171 C115 2.062 . S
C87 C17 2.062 . S
C129 C185 2.062 . S
C3 C73 2.062 . S
C213 C143 2.062 1_556 S
C101 C31 2.062 . S
C157 C199 2.062 . S
C7 C63 0.822 . S
C77 C21 0.822 . S
C91 C35 0.822 . S
C49 C105 0.822 . S
C147 C119 0.822 . S
C161 C133 0.822 . S
C203 C175 0.822 1_565 S
C217 C189 0.822 1_545 S
C64 C8 1.794 . S
C78 C22 1.794 . S
C92 C36 1.794 1_554 S
C50 C106 1.794 . S
C120 C148 1.794 . S
C162 C134 1.794 . S
C204 C176 1.794 1_564 S
C218 C190 1.794 1_545 S
