# Generated by pormake.
# Topology afw, (4)-cn, num edge types: 1
# Building blocks:
#     Node 0, Type 0, BuildingBlock: GALJAG_clean_sbu_0, # of connection points: 4
#     Node 1, Type 0, BuildingBlock: GALJAG_clean_sbu_0, # of connection points: 4
#     Node 2, Type 0, BuildingBlock: GALJAG_clean_sbu_0, # of connection points: 4
#     Node 3, Type 0, BuildingBlock: GALJAG_clean_sbu_0, # of connection points: 4
#     Node 4, Type 0, BuildingBlock: GALJAG_clean_sbu_0, # of connection points: 4
#     Node 5, Type 0, BuildingBlock: GALJAG_clean_sbu_0, # of connection points: 4
#     Node 6, Type 0, BuildingBlock: GALJAG_clean_sbu_0, # of connection points: 4
#     Node 7, Type 0, BuildingBlock: GALJAG_clean_sbu_0, # of connection points: 4
#     Node 8, Type 0, BuildingBlock: GALJAG_clean_sbu_0, # of connection points: 4
#     Edge 9, Type (0, 0), BuildingBlock: EYOCIG_clean_linker_4, # of connection points: 2
#     Edge 10, Type (0, 0), BuildingBlock: EYOCIG_clean_linker_4, # of connection points: 2
#     Edge 11, Type (0, 0), BuildingBlock: EYOCIG_clean_linker_4, # of connection points: 2
#     Edge 12, Type (0, 0), BuildingBlock: EYOCIG_clean_linker_4, # of connection points: 2
#     Edge 13, Type (0, 0), BuildingBlock: EYOCIG_clean_linker_4, # of connection points: 2
#     Edge 14, Type (0, 0), BuildingBlock: EYOCIG_clean_linker_4, # of connection points: 2
#     Edge 15, Type (0, 0), BuildingBlock: EYOCIG_clean_linker_4, # of connection points: 2
#     Edge 16, Type (0, 0), BuildingBlock: EYOCIG_clean_linker_4, # of connection points: 2
#     Edge 17, Type (0, 0), BuildingBlock: EYOCIG_clean_linker_4, # of connection points: 2
#     Edge 18, Type (0, 0), BuildingBlock: EYOCIG_clean_linker_4, # of connection points: 2
#     Edge 19, Type (0, 0), BuildingBlock: EYOCIG_clean_linker_4, # of connection points: 2
#     Edge 20, Type (0, 0), BuildingBlock: EYOCIG_clean_linker_4, # of connection points: 2
#     Edge 21, Type (0, 0), BuildingBlock: EYOCIG_clean_linker_4, # of connection points: 2
#     Edge 22, Type (0, 0), BuildingBlock: EYOCIG_clean_linker_4, # of connection points: 2
#     Edge 23, Type (0, 0), BuildingBlock: EYOCIG_clean_linker_4, # of connection points: 2
#     Edge 24, Type (0, 0), BuildingBlock: EYOCIG_clean_linker_4, # of connection points: 2
#     Edge 25, Type (0, 0), BuildingBlock: EYOCIG_clean_linker_4, # of connection points: 2
#     Edge 26, Type (0, 0), BuildingBlock: EYOCIG_clean_linker_4, # of connection points: 2
# Relax obj value: 0.092
# Max RMSD: 0.157
# Mean RMSD: 0.157
data_MOF--net-afw--node1-GALJAG_clean_sbu_0--edge1-EYOCIG_clean_linker_4
_symmetry_space_group_name_H-M    P1
_symmetry_Int_Tables_number       1
_symmetry_cell_setting            triclinic
loop_
_symmetry_equiv_pos_as_xyz
'x, y, z'
_cell_length_a     36.85553
_cell_length_b     36.835027
_cell_length_c     22.047796
_cell_angle_alpha  90.010308
_cell_angle_beta   90.034487
_cell_angle_gamma 119.97391
loop_
_atom_site_label
_atom_site_type_symbol
_atom_site_fract_x
_atom_site_fract_y
_atom_site_fract_z
_atom_type_partial_charge
In0 In 0.00174 0.1949 -0.01042 0.0
O1 O 0.00107 0.22434 0.89839 0.0
O2 O 0.04965 0.2611 0.9618 0.0
C3 C 0.93915 0.11483 -0.01416 0.0
C4 C 0.97076 0.22784 0.06873 0.0
C5 C 0.06395 0.17684 -0.00705 0.0
O6 O 0.94836 0.13868 0.94025 0.0
O7 O 0.96053 0.13142 0.03287 0.0
O8 O 0.05482 0.19142 0.03871 0.0
O9 O 0.04266 0.17237 0.94592 0.0
C10 C 0.0332 0.25905 0.91087 0.0
O11 O 0.00271 0.22489 0.08102 0.0
O12 O 0.95423 0.21365 0.01777 0.0
In13 In 0.81799 0.82763 -0.00883 0.0
O14 O 0.78874 0.7974 0.8999 0.0
O15 O 0.75177 0.80907 0.96306 0.0
C16 C 0.89823 0.84563 -0.01192 0.0
C17 C 0.78523 0.76361 0.0701 0.0
C18 C 0.83555 0.90776 -0.00582 0.0
O19 O 0.87452 0.8309 0.94233 0.0
O20 O 0.88141 0.85024 0.03498 0.0
O21 O 0.82098 0.8841 0.03997 0.0
O22 O 0.84023 0.89095 0.94731 0.0
C23 C 0.75394 0.79467 0.9122 0.0
O24 O 0.78793 0.79841 0.08243 0.0
O25 O 0.79959 0.76142 0.01923 0.0
In26 In 0.18568 0.01109 -0.01013 0.0
O27 O 0.21533 0.01028 0.08084 0.0
O28 O 0.25193 0.059 0.01765 0.0
C29 C 0.10547 0.94887 -0.00551 0.0
C30 C 0.21827 0.97974 0.9107 0.0
C31 C 0.16787 0.07349 -0.01411 0.0
O32 O 0.12946 0.95836 0.03998 0.0
O33 O 0.122 0.96974 0.94709 0.0
O34 O 0.18202 0.0639 0.94013 0.0
O35 O 0.16379 0.05264 0.03324 0.0
C36 C 0.25001 0.04243 0.06841 0.0
O37 O 0.21564 0.01189 0.89852 0.0
O38 O 0.20388 0.96315 0.96153 0.0
In39 In 0.66881 0.52841 0.32401 0.0
O40 O 0.66775 0.55772 0.23286 0.0
O41 O 0.71647 0.59464 0.29599 0.0
C42 C 0.60632 0.44826 0.32075 0.0
C43 C 0.63791 0.5613 0.40336 0.0
C44 C 0.73119 0.51058 0.3268 0.0
O45 O 0.61534 0.47203 0.27509 0.0
O46 O 0.62786 0.46497 0.36762 0.0
O47 O 0.72221 0.52522 0.37264 0.0
O48 O 0.70967 0.50594 0.27997 0.0
C49 C 0.69984 0.5925 0.24519 0.0
O50 O 0.66994 0.55845 0.41549 0.0
O51 O 0.62127 0.54704 0.35248 0.0
In52 In 0.48493 0.16095 0.32308 0.0
O53 O 0.45585 0.13085 0.23168 0.0
O54 O 0.41876 0.14246 0.29466 0.0
C55 C 0.5652 0.17905 0.31919 0.0
C56 C 0.45215 0.09674 0.40176 0.0
C57 C 0.50249 0.24109 0.3275 0.0
O58 O 0.54142 0.16467 0.27346 0.0
O59 O 0.54844 0.18324 0.36646 0.0
O60 O 0.48811 0.21716 0.37303 0.0
O61 O 0.50694 0.22453 0.28016 0.0
C62 C 0.42104 0.1281 0.24382 0.0
O63 O 0.45461 0.13143 0.4141 0.0
O64 O 0.46678 0.09476 0.35102 0.0
In65 In 0.85271 0.34476 0.32327 0.0
O66 O 0.88162 0.34351 0.41473 0.0
O67 O 0.91882 0.39234 0.35203 0.0
C68 C 0.77244 0.28262 0.32637 0.0
C69 C 0.88559 0.31349 0.24449 0.0
C70 C 0.83512 0.40731 0.31926 0.0
O71 O 0.79605 0.2918 0.37226 0.0
O72 O 0.78937 0.30377 0.27933 0.0
O73 O 0.84976 0.39803 0.27374 0.0
O74 O 0.83044 0.38607 0.36638 0.0
C75 C 0.91646 0.3756 0.4028 0.0
O76 O 0.88318 0.34577 0.2323 0.0
O77 O 0.87089 0.29678 0.29515 0.0
In78 In 0.33568 0.86197 0.65651 0.0
O79 O 0.33466 0.89095 0.56505 0.0
O80 O 0.3832 0.92819 0.62823 0.0
C81 C 0.27356 0.78166 0.65358 0.0
C82 C 0.30427 0.89474 0.73522 0.0
C83 C 0.39828 0.84448 0.65992 0.0
O84 O 0.28249 0.80527 0.60776 0.0
O85 O 0.29499 0.7986 0.70047 0.0
O86 O 0.38919 0.8592 0.70556 0.0
O87 O 0.37677 0.83962 0.61299 0.0
C88 C 0.36665 0.92583 0.57729 0.0
O89 O 0.33643 0.89219 0.74766 0.0
O90 O 0.28776 0.88026 0.68434 0.0
In91 In 0.15186 0.49409 0.65668 0.0
O92 O 0.1222 0.46366 0.5657 0.0
O93 O 0.0856 0.47574 0.62897 0.0
C94 C 0.23205 0.51199 0.65222 0.0
C95 C 0.11926 0.4301 0.73568 0.0
C96 C 0.16978 0.57434 0.66083 0.0
O97 O 0.20813 0.49762 0.60663 0.0
O98 O 0.21545 0.51624 0.69963 0.0
O99 O 0.15556 0.55055 0.70653 0.0
O100 O 0.17385 0.55758 0.61344 0.0
C101 C 0.0875 0.46109 0.57819 0.0
O102 O 0.12185 0.46485 0.74795 0.0
O103 O 0.1337 0.42795 0.68486 0.0
In104 In 0.51944 0.67837 0.65675 0.0
O105 O 0.54832 0.67744 0.74837 0.0
O106 O 0.58557 0.726 0.6853 0.0
C107 C 0.43922 0.61609 0.65956 0.0
C108 C 0.55247 0.647 0.57845 0.0
C109 C 0.50188 0.74094 0.65268 0.0
O110 O 0.46276 0.62529 0.70554 0.0
O111 O 0.45619 0.63733 0.61259 0.0
O112 O 0.51659 0.73169 0.60721 0.0
O113 O 0.49706 0.71961 0.69977 0.0
C114 C 0.58319 0.70945 0.73624 0.0
O115 O 0.54987 0.67911 0.56587 0.0
O116 O 0.53789 0.63049 0.62925 0.0
C117 C 0.13915 0.12635 -0.01342 0.0
C118 C 0.15289 0.10276 -0.01669 0.0
C119 C 0.11699 0.14836 -0.00821 0.0
C120 C 0.09333 0.162 -0.00479 0.0
C121 C 0.86383 0.98924 -0.00746 0.0
C122 C 0.85025 0.95196 -0.00372 0.0
C123 C 0.88591 0.03338 -0.01306 0.0
C124 C 0.90962 0.07066 -0.01663 0.0
C125 C 0.97974 0.87418 -0.01067 0.0
C126 C 0.94245 0.86051 -0.01409 0.0
C127 C 0.02391 0.89617 -0.00561 0.0
C128 C 0.06124 0.91968 -0.00257 0.0
C129 C 0.80656 0.4603 0.31987 0.0
C130 C 0.82028 0.43669 0.31656 0.0
C131 C 0.78437 0.48227 0.3252 0.0
C132 C 0.76065 0.49584 0.32881 0.0
C133 C 0.53097 0.32262 0.32715 0.0
C134 C 0.51731 0.2853 0.33034 0.0
C135 C 0.55312 0.36679 0.32195 0.0
C136 C 0.57683 0.40407 0.31848 0.0
C137 C 0.64674 0.20779 0.3199 0.0
C138 C 0.60943 0.19405 0.31665 0.0
C139 C 0.69089 0.22986 0.32508 0.0
C140 C 0.7282 0.25341 0.32852 0.0
C141 C 0.45149 0.81621 0.65872 0.0
C142 C 0.42778 0.8298 0.66226 0.0
C143 C 0.47358 0.79414 0.65337 0.0
C144 C 0.48719 0.77044 0.65001 0.0
C145 C 0.22068 0.7001 0.65505 0.0
C146 C 0.24427 0.73741 0.65152 0.0
C147 C 0.19856 0.65593 0.66028 0.0
C148 C 0.18479 0.61859 0.66349 0.0
C149 C 0.31359 0.54081 0.65261 0.0
C150 C 0.27627 0.527 0.6494 0.0
C151 C 0.35774 0.56303 0.65791 0.0
C152 C 0.39501 0.58672 0.6615 0.0
C153 C 0.06497 0.32595 0.84054 0.0
C154 C 0.04945 0.29467 0.87121 0.0
C155 C 0.08376 0.36325 0.80607 0.0
C156 C 0.0997 0.3945 0.77534 0.0
C157 C 0.68711 0.75928 0.84167 0.0
C158 C 0.71837 0.77516 0.87242 0.0
C159 C 0.64984 0.74069 0.80709 0.0
C160 C 0.61864 0.72538 0.77622 0.0
C161 C 0.27253 0.92992 0.80559 0.0
C162 C 0.28803 0.91414 0.77489 0.0
C163 C 0.25375 0.94843 0.84014 0.0
C164 C 0.23782 0.96372 0.87094 0.0
C165 C 0.35431 0.09261 0.17311 0.0
C166 C 0.38553 0.10853 0.20393 0.0
C167 C 0.31702 0.07394 0.13858 0.0
C168 C 0.28571 0.05856 0.10794 0.0
C169 C 0.93953 0.26331 0.13947 0.0
C170 C 0.95481 0.24738 0.10862 0.0
C171 C 0.92096 0.28199 0.17408 0.0
C172 C 0.90509 0.29738 0.20483 0.0
C173 C 0.73118 0.6594 0.17488 0.0
C174 C 0.71583 0.62811 0.20552 0.0
C175 C 0.74982 0.69674 0.14047 0.0
C176 C 0.76571 0.72802 0.1098 0.0
C177 C 0.02042 0.42544 0.50816 0.0
C178 C 0.05176 0.44144 0.53873 0.0
C179 C 0.9831 0.40676 0.47367 0.0
C180 C 0.9519 0.39146 0.44281 0.0
C181 C 0.60669 0.59676 0.47411 0.0
C182 C 0.62201 0.58086 0.44331 0.0
C183 C 0.58803 0.61544 0.50853 0.0
C184 C 0.57207 0.63084 0.53905 0.0
C185 C 0.39799 -0.00749 0.50653 0.0
C186 C 0.38264 0.9613 0.53735 0.0
C187 C 0.41667 0.02979 0.47198 0.0
C188 C 0.4326 0.06107 0.44131 0.0
loop_
_geom_bond_atom_site_label_1
_geom_bond_atom_site_label_2
_geom_bond_distance
_geom_bond_site_symmetry_2
_ccdc_geom_bond_type
In0 O1 2.294 1_554 S
In0 O2 2.326 1_554 S
In0 O6 2.266 1_454 S
In0 O7 2.326 1_455 S
In0 O8 2.266 . S
In0 O9 2.326 1_554 S
In0 O11 2.294 . S
In0 O12 2.326 1_455 S
O1 In0 2.294 1_556 S
O1 C10 1.240 . S
O2 In0 2.326 1_556 S
O2 C10 1.252 . S
C3 O6 1.252 1_554 S
C3 O7 1.260 . S
C4 O11 1.240 1_655 S
C4 O12 1.252 . S
C5 O8 1.252 . S
C5 O9 1.260 1_554 S
O6 In0 2.266 1_656 S
O6 C3 1.252 1_556 S
O7 In0 2.326 1_655 S
O7 C3 1.260 . S
O8 In0 2.266 . S
O8 C5 1.252 . S
O9 In0 2.326 1_556 S
O9 C5 1.260 1_556 S
C10 O1 1.240 . S
C10 O2 1.252 . S
O11 In0 2.294 . S
O11 C4 1.240 1_455 S
O12 In0 2.326 1_655 S
O12 C4 1.252 . S
In13 O14 2.294 1_554 S
In13 O15 2.326 1_554 S
In13 O19 2.266 1_554 S
In13 O20 2.326 . S
In13 O21 2.266 . S
In13 O22 2.326 1_554 S
In13 O24 2.294 . S
In13 O25 2.326 . S
O14 In13 2.294 1_556 S
O14 C23 1.240 . S
O15 In13 2.326 1_556 S
O15 C23 1.252 . S
C16 O19 1.252 1_554 S
C16 O20 1.260 . S
C17 O24 1.240 . S
C17 O25 1.252 . S
C18 O21 1.252 . S
C18 O22 1.260 1_554 S
O19 In13 2.266 1_556 S
O19 C16 1.252 1_556 S
O20 In13 2.326 . S
O20 C16 1.260 . S
O21 In13 2.266 . S
O21 C18 1.252 . S
O22 In13 2.326 1_556 S
O22 C18 1.260 1_556 S
C23 O14 1.240 . S
C23 O15 1.252 . S
O24 In13 2.294 . S
O24 C17 1.240 . S
O25 In13 2.326 . S
O25 C17 1.252 . S
In26 O27 2.294 . S
In26 O28 2.326 . S
In26 O32 2.266 1_545 S
In26 O33 2.326 1_544 S
In26 O34 2.266 1_554 S
In26 O35 2.326 . S
In26 O37 2.294 1_554 S
In26 O38 2.326 1_544 S
O27 In26 2.294 . S
O27 C36 1.240 . S
O28 In26 2.326 . S
O28 C36 1.252 . S
C29 O32 1.252 . S
C29 O33 1.260 1_554 S
C30 O37 1.240 1_565 S
C30 O38 1.252 . S
C31 O34 1.252 1_554 S
C31 O35 1.260 . S
O32 In26 2.266 1_565 S
O32 C29 1.252 . S
O33 In26 2.326 1_566 S
O33 C29 1.260 1_556 S
O34 In26 2.266 1_556 S
O34 C31 1.252 1_556 S
O35 In26 2.326 . S
O35 C31 1.260 . S
C36 O27 1.240 . S
C36 O28 1.252 . S
O37 In26 2.294 1_556 S
O37 C30 1.240 1_545 S
O38 In26 2.326 1_566 S
O38 C30 1.252 . S
In39 O40 2.294 . S
In39 O41 2.326 . S
In39 O45 2.266 . S
In39 O46 2.326 . S
In39 O47 2.266 . S
In39 O48 2.326 . S
In39 O50 2.294 . S
In39 O51 2.326 . S
O40 In39 2.294 . S
O40 C49 1.240 . S
O41 In39 2.326 . S
O41 C49 1.252 . S
C42 O45 1.252 . S
C42 O46 1.260 . S
C43 O50 1.240 . S
C43 O51 1.252 . S
C44 O47 1.252 . S
C44 O48 1.260 . S
O45 In39 2.266 . S
O45 C42 1.252 . S
O46 In39 2.326 . S
O46 C42 1.260 . S
O47 In39 2.266 . S
O47 C44 1.252 . S
O48 In39 2.326 . S
O48 C44 1.260 . S
C49 O40 1.240 . S
C49 O41 1.252 . S
O50 In39 2.294 . S
O50 C43 1.240 . S
O51 In39 2.326 . S
O51 C43 1.252 . S
In52 O53 2.294 . S
In52 O54 2.326 . S
In52 O58 2.266 . S
In52 O59 2.326 . S
In52 O60 2.266 . S
In52 O61 2.326 . S
In52 O63 2.294 . S
In52 O64 2.326 . S
O53 In52 2.294 . S
O53 C62 1.240 . S
O54 In52 2.326 . S
O54 C62 1.252 . S
C55 O58 1.252 . S
C55 O59 1.260 . S
C56 O63 1.240 . S
C56 O64 1.252 . S
C57 O60 1.252 . S
C57 O61 1.260 . S
O58 In52 2.266 . S
O58 C55 1.252 . S
O59 In52 2.326 . S
O59 C55 1.260 . S
O60 In52 2.266 . S
O60 C57 1.252 . S
O61 In52 2.326 . S
O61 C57 1.260 . S
C62 O53 1.240 . S
C62 O54 1.252 . S
O63 In52 2.294 . S
O63 C56 1.240 . S
O64 In52 2.326 . S
O64 C56 1.252 . S
In65 O66 2.294 . S
In65 O67 2.326 . S
In65 O71 2.266 . S
In65 O72 2.326 . S
In65 O73 2.266 . S
In65 O74 2.326 . S
In65 O76 2.294 . S
In65 O77 2.326 . S
O66 In65 2.294 . S
O66 C75 1.240 . S
O67 In65 2.326 . S
O67 C75 1.252 . S
C68 O71 1.252 . S
C68 O72 1.260 . S
C69 O76 1.240 . S
C69 O77 1.252 . S
C70 O73 1.252 . S
C70 O74 1.260 . S
O71 In65 2.266 . S
O71 C68 1.252 . S
O72 In65 2.326 . S
O72 C68 1.260 . S
O73 In65 2.266 . S
O73 C70 1.252 . S
O74 In65 2.326 . S
O74 C70 1.260 . S
C75 O66 1.240 . S
C75 O67 1.252 . S
O76 In65 2.294 . S
O76 C69 1.240 . S
O77 In65 2.326 . S
O77 C69 1.252 . S
In78 O79 2.294 . S
In78 O80 2.326 . S
In78 O84 2.266 . S
In78 O85 2.326 . S
In78 O86 2.266 . S
In78 O87 2.326 . S
In78 O89 2.294 . S
In78 O90 2.326 . S
O79 In78 2.294 . S
O79 C88 1.240 . S
O80 In78 2.326 . S
O80 C88 1.252 . S
C81 O84 1.252 . S
C81 O85 1.260 . S
C82 O89 1.240 . S
C82 O90 1.252 . S
C83 O86 1.252 . S
C83 O87 1.260 . S
O84 In78 2.266 . S
O84 C81 1.252 . S
O85 In78 2.326 . S
O85 C81 1.260 . S
O86 In78 2.266 . S
O86 C83 1.252 . S
O87 In78 2.326 . S
O87 C83 1.260 . S
C88 O79 1.240 . S
C88 O80 1.252 . S
O89 In78 2.294 . S
O89 C82 1.240 . S
O90 In78 2.326 . S
O90 C82 1.252 . S
In91 O92 2.294 . S
In91 O93 2.326 . S
In91 O97 2.266 . S
In91 O98 2.326 . S
In91 O99 2.266 . S
In91 O100 2.326 . S
In91 O102 2.294 . S
In91 O103 2.326 . S
O92 In91 2.294 . S
O92 C101 1.240 . S
O93 In91 2.326 . S
O93 C101 1.252 . S
C94 O97 1.252 . S
C94 O98 1.260 . S
C95 O102 1.240 . S
C95 O103 1.252 . S
C96 O99 1.252 . S
C96 O100 1.260 . S
O97 In91 2.266 . S
O97 C94 1.252 . S
O98 In91 2.326 . S
O98 C94 1.260 . S
O99 In91 2.266 . S
O99 C96 1.252 . S
O100 In91 2.326 . S
O100 C96 1.260 . S
C101 O92 1.240 . S
C101 O93 1.252 . S
O102 In91 2.294 . S
O102 C95 1.240 . S
O103 In91 2.326 . S
O103 C95 1.252 . S
In104 O105 2.294 . S
In104 O106 2.326 . S
In104 O110 2.266 . S
In104 O111 2.326 . S
In104 O112 2.266 . S
In104 O113 2.326 . S
In104 O115 2.294 . S
In104 O116 2.326 . S
O105 In104 2.294 . S
O105 C114 1.240 . S
O106 In104 2.326 . S
O106 C114 1.252 . S
C107 O110 1.252 . S
C107 O111 1.260 . S
C108 O115 1.240 . S
C108 O116 1.252 . S
C109 O112 1.252 . S
C109 O113 1.260 . S
O110 In104 2.266 . S
O110 C107 1.252 . S
O111 In104 2.326 . S
O111 C107 1.260 . S
O112 In104 2.266 . S
O112 C109 1.252 . S
O113 In104 2.326 . S
O113 C109 1.260 . S
C114 O105 1.240 . S
C114 O106 1.252 . S
O115 In104 2.294 . S
O115 C108 1.240 . S
O116 In104 2.326 . S
O116 C108 1.252 . S
C117 C118 1.170 . S
C117 C119 1.380 . S
C118 C117 1.170 . S
C119 C117 1.380 . S
C119 C120 1.170 . S
C120 C119 1.170 . S
C121 C122 1.170 . S
C121 C123 1.380 1_565 S
C122 C121 1.170 . S
C123 C121 1.380 1_545 S
C123 C124 1.170 . S
C124 C123 1.170 . S
C125 C126 1.170 . S
C125 C127 1.380 1_655 S
C126 C125 1.170 . S
C127 C125 1.380 1_455 S
C127 C128 1.170 . S
C128 C127 1.170 . S
C129 C130 1.170 . S
C129 C131 1.380 . S
C130 C129 1.170 . S
C131 C129 1.380 . S
C131 C132 1.170 . S
C132 C131 1.170 . S
C133 C134 1.170 . S
C133 C135 1.380 . S
C134 C133 1.170 . S
C135 C133 1.380 . S
C135 C136 1.170 . S
C136 C135 1.170 . S
C137 C138 1.170 . S
C137 C139 1.380 . S
C138 C137 1.170 . S
C139 C137 1.380 . S
C139 C140 1.170 . S
C140 C139 1.170 . S
C141 C142 1.170 . S
C141 C143 1.380 . S
C142 C141 1.170 . S
C143 C141 1.380 . S
C143 C144 1.170 . S
C144 C143 1.170 . S
C145 C146 1.170 . S
C145 C147 1.380 . S
C146 C145 1.170 . S
C147 C145 1.380 . S
C147 C148 1.170 . S
C148 C147 1.170 . S
C149 C150 1.170 . S
C149 C151 1.380 . S
C150 C149 1.170 . S
C151 C149 1.380 . S
C151 C152 1.170 . S
C152 C151 1.170 . S
C153 C154 1.170 . S
C153 C155 1.380 . S
C154 C153 1.170 . S
C155 C153 1.380 . S
C155 C156 1.170 . S
C156 C155 1.170 . S
C157 C158 1.170 . S
C157 C159 1.380 . S
C158 C157 1.170 . S
C159 C157 1.380 . S
C159 C160 1.170 . S
C160 C159 1.170 . S
C161 C162 1.170 . S
C161 C163 1.380 . S
C162 C161 1.170 . S
C163 C161 1.380 . S
C163 C164 1.170 . S
C164 C163 1.170 . S
C165 C166 1.170 . S
C165 C167 1.380 . S
C166 C165 1.170 . S
C167 C165 1.380 . S
C167 C168 1.170 . S
C168 C167 1.170 . S
C169 C170 1.170 . S
C169 C171 1.380 . S
C170 C169 1.170 . S
C171 C169 1.380 . S
C171 C172 1.170 . S
C172 C171 1.170 . S
C173 C174 1.170 . S
C173 C175 1.380 . S
C174 C173 1.170 . S
C175 C173 1.380 . S
C175 C176 1.170 . S
C176 C175 1.170 . S
C177 C178 1.170 . S
C177 C179 1.380 1_455 S
C178 C177 1.170 . S
C179 C177 1.380 1_655 S
C179 C180 1.170 . S
C180 C179 1.170 . S
C181 C182 1.170 . S
C181 C183 1.380 . S
C182 C181 1.170 . S
C183 C181 1.380 . S
C183 C184 1.170 . S
C184 C183 1.170 . S
C185 C186 1.149 1_545 S
C185 C187 1.403 . S
C186 C185 1.149 1_565 S
C187 C185 1.403 . S
C187 C188 1.170 . S
C188 C187 1.170 . S
C118 C31 1.212 . S
C120 C5 1.203 . S
C122 C18 1.222 . S
C124 C3 1.227 . S
C126 C16 1.205 . S
C128 C29 1.214 . S
C130 C70 1.221 . S
C132 C44 1.212 . S
C134 C57 1.226 . S
C136 C42 1.220 . S
C138 C55 1.215 . S
C140 C68 1.206 . S
C142 C83 1.217 . S
C144 C109 1.224 . S
C146 C81 1.198 . S
C148 C96 1.204 . S
C150 C94 1.218 . S
C152 C107 1.208 . S
C154 C10 1.437 . S
C156 C95 1.433 . S
C158 C23 1.434 . S
C160 C114 1.437 . S
C162 C82 1.434 . S
C164 C30 1.437 . S
C166 C62 1.437 . S
C168 C36 1.432 . S
C170 C4 1.435 . S
C172 C69 1.436 . S
C174 C49 1.434 . S
C176 C17 1.436 . S
C178 C101 1.433 . S
C180 C75 1.436 . S
C182 C43 1.438 . S
C184 C108 1.433 . S
C186 C88 1.437 . S
C188 C56 1.433 . S
