# Generated by pormake.
# Topology smm, (6)-cn, num edge types: 1
# Building blocks:
#     Node 0, Type 0, BuildingBlock: VOLQOD_clean_sbu_1, # of connection points: 6
#     Node 1, Type 0, BuildingBlock: VOLQOD_clean_sbu_1, # of connection points: 6
#     Node 2, Type 0, BuildingBlock: VOLQOD_clean_sbu_1, # of connection points: 6
#     Node 3, Type 0, BuildingBlock: VOLQOD_clean_sbu_1, # of connection points: 6
#     Node 4, Type 0, BuildingBlock: VOLQOD_clean_sbu_1, # of connection points: 6
#     Node 5, Type 0, BuildingBlock: VOLQOD_clean_sbu_1, # of connection points: 6
#     Node 6, Type 0, BuildingBlock: VOLQOD_clean_sbu_1, # of connection points: 6
#     Node 7, Type 0, BuildingBlock: VOLQOD_clean_sbu_1, # of connection points: 6
#     Node 8, Type 0, BuildingBlock: VOLQOD_clean_sbu_1, # of connection points: 6
#     Edge 9, Type (0, 0), None
#     Edge 10, Type (0, 0), None
#     Edge 11, Type (0, 0), None
#     Edge 12, Type (0, 0), None
#     Edge 13, Type (0, 0), None
#     Edge 14, Type (0, 0), None
#     Edge 15, Type (0, 0), None
#     Edge 16, Type (0, 0), None
#     Edge 17, Type (0, 0), None
#     Edge 18, Type (0, 0), None
#     Edge 19, Type (0, 0), None
#     Edge 20, Type (0, 0), None
#     Edge 21, Type (0, 0), None
#     Edge 22, Type (0, 0), None
#     Edge 23, Type (0, 0), None
#     Edge 24, Type (0, 0), None
#     Edge 25, Type (0, 0), None
#     Edge 26, Type (0, 0), None
#     Edge 27, Type (0, 0), None
#     Edge 28, Type (0, 0), None
#     Edge 29, Type (0, 0), None
#     Edge 30, Type (0, 0), None
#     Edge 31, Type (0, 0), None
#     Edge 32, Type (0, 0), None
#     Edge 33, Type (0, 0), None
#     Edge 34, Type (0, 0), None
#     Edge 35, Type (0, 0), None
# Relax obj value: 0.259
# Max RMSD: 0.219
# Mean RMSD: 0.217
data_MOF--net-smm--node1-VOLQOD_clean_sbu_1--edge1-none
_symmetry_space_group_name_H-M    P1
_symmetry_Int_Tables_number       1
_symmetry_cell_setting            triclinic
loop_
_symmetry_equiv_pos_as_xyz
'x, y, z'
_cell_length_a     28.667459
_cell_length_b     28.844353
_cell_length_c     8.5132936
_cell_angle_alpha  89.533468
_cell_angle_beta   88.940764
_cell_angle_gamma 120.47937
loop_
_atom_site_label
_atom_site_type_symbol
_atom_site_fract_x
_atom_site_fract_y
_atom_site_fract_z
_atom_type_partial_charge
O0 O 0.92313 0.156 0.70124 0.0
Zn1 Zn 0.89802 0.13066 0.93366 0.0
O2 O -0.03363 0.15365 0.03635 0.0
Zn3 Zn -0.01178 0.21668 0.15694 0.0
Zn4 Zn 0.02341 0.17049 0.88283 0.0
Zn5 Zn -0.03916 0.09834 0.16644 0.0
O6 O -0.00512 0.20202 0.38741 0.0
O7 O -0.05139 0.11248 0.3836 0.0
O8 O 0.85683 0.16476 0.04989 0.0
O9 O 0.92509 0.22492 0.18878 0.0
O10 O 0.04522 0.28457 0.02816 0.0
O11 O 0.06024 0.24815 0.81756 0.0
O12 O 0.07402 0.14275 0.93159 0.0
O13 O 0.85192 0.04697 0.94325 0.0
O14 O 0.0256 0.08983 0.13365 0.0
O15 O 0.89817 0.02874 0.11478 0.0
C16 C -0.04018 0.15148 0.62561 0.0
C17 C -0.03498 0.15611 0.45574 0.0
C18 C 0.06534 0.28886 0.8889 0.0
C19 C 0.87565 0.20153 0.15373 0.0
C20 C 0.06587 0.10775 0.037 0.0
C21 C 0.85802 0.01341 0.02688 0.0
O22 O -0.01158 0.13569 0.69267 0.0
O23 O 0.73744 0.8141 0.3305 0.0
Zn24 Zn 0.74576 0.84031 0.09317 0.0
O25 O 0.79092 0.81445 -0.00091 0.0
Zn26 Zn 0.74277 0.75049 0.89075 0.0
Zn27 Zn 0.82623 0.7947 0.15119 0.0
Zn28 Zn 0.84357 0.86759 0.86056 0.0
O29 O 0.74738 0.76692 0.65333 0.0
O30 O 0.81476 0.85211 0.64596 0.0
O31 O 0.6782 0.8127 0.94566 0.0
O32 O 0.66954 0.73292 0.94903 0.0
O33 O 0.74173 0.68417 0.97976 0.0
O34 O 0.78714 0.71492 0.19977 0.0
O35 O 0.90551 0.82741 0.10981 0.0
O36 O 0.78742 0.92334 0.08208 0.0
O37 O 0.91715 0.87331 0.8867 0.0
O38 O 0.85328 0.9391 0.90989 0.0
C39 C 0.77597 0.81533 0.4098 0.0
C40 C 0.7755 0.81224 0.5808 0.0
C41 C 0.75481 0.67598 0.11596 0.0
C42 C 0.65413 0.76419 0.89929 0.0
C43 C 0.93566 0.85737 -0.00281 0.0
C44 C 0.82834 0.95577 0.9958 0.0
O45 O 0.81993 0.82431 0.34539 0.0
O46 O 0.19256 0.04082 0.68237 0.0
Zn47 Zn 0.183 0.05515 0.92224 0.0
O48 O 0.14121 -0.01824 0.01343 0.0
Zn49 Zn 0.19254 -0.03003 0.11915 0.0
Zn50 Zn 0.10411 0.92434 0.86858 0.0
Zn51 Zn 0.089 -0.02209 0.15915 0.0
O52 O 0.19018 -0.01786 0.35774 0.0
O53 O 0.11946 -0.00622 0.37044 0.0
O54 O 0.25134 0.09676 0.06967 0.0
O55 O 0.26367 0.0284 0.05058 0.0
O56 O 0.1954 0.9065 0.02857 0.0
O57 O 0.13543 0.87617 0.83848 0.0
O58 O 0.02333 0.88702 0.8931 0.0
O59 O 0.13723 0.09267 0.94268 0.0
O60 O 0.01524 0.91048 0.136 0.0
O61 O 0.07605 0.03683 0.11911 0.0
C62 C 0.16089 -0.00121 0.603 0.0
C63 C 0.16111 -0.00266 0.432 0.0
C64 C 0.17473 0.87731 0.90817 0.0
C65 C 0.27769 0.07371 0.10766 0.0
C66 C -0.00561 0.88355 0.01241 0.0
C67 C 0.09635 0.07929 0.03486 0.0
O68 O 0.12161 0.95704 0.66536 0.0
O69 O 0.66702 0.52902 0.64528 0.0
Zn70 Zn 0.69224 0.52812 0.41563 0.0
O71 O 0.62352 0.48458 0.31046 0.0
Zn72 Zn 0.6051 0.52803 0.18647 0.0
Zn73 Zn 0.56536 0.44332 0.46193 0.0
Zn74 Zn 0.6264 0.43513 0.17949 0.0
O75 O 0.59469 0.50616 0.95748 0.0
O76 O 0.63789 0.4605 0.96287 0.0
O77 O 0.73573 0.60371 0.30172 0.0
O78 O 0.67126 0.59772 0.14798 0.0
O79 O 0.55121 0.54084 0.3158 0.0
O80 O 0.5291 0.48409 0.5207 0.0
O81 O 0.51504 0.36412 0.41961 0.0
O82 O 0.73797 0.49013 0.40059 0.0
O83 O 0.56321 0.36122 0.21704 0.0
O84 O 0.68936 0.43059 0.22123 0.0
C85 C 0.62786 0.48897 0.72037 0.0
C86 C 0.62281 0.48865 0.88962 0.0
C87 C 0.52819 0.52265 0.45118 0.0
C88 C 0.71989 0.62256 0.19122 0.0
C89 C 0.52354 0.33782 0.31529 0.0
C90 C 0.73023 0.45243 0.30706 0.0
O91 O 0.59887 0.44429 0.65576 0.0
O92 O 0.40344 0.13645 0.66614 0.0
Zn93 Zn 0.41278 0.16566 0.43107 0.0
O94 O 0.45597 0.13762 0.33512 0.0
Zn95 Zn 0.40722 0.07259 0.22898 0.0
Zn96 Zn 0.49582 0.12322 0.48791 0.0
Zn97 Zn 0.50677 0.1884 0.19366 0.0
O98 O 0.41396 0.08705 0.98676 0.0
O99 O 0.47949 0.1728 0.98119 0.0
O100 O 0.34549 0.13993 0.28302 0.0
O101 O 0.3334 0.05849 0.271 0.0
O102 O 0.40635 0.0072 0.33654 0.0
O103 O 0.45745 0.04516 0.5445 0.0
O104 O 0.577 0.15639 0.44529 0.0
O105 O 0.45607 0.24962 0.41756 0.0
O106 O 0.58069 0.19859 0.22228 0.0
O107 O 0.51511 0.25823 0.23105 0.0
C108 C 0.44237 0.13767 0.74327 0.0
C109 C 0.44151 0.13263 0.91448 0.0
C110 C 0.42378 0.00373 0.47164 0.0
C111 C 0.31993 0.09232 0.22936 0.0
C112 C 0.6039 0.18677 0.3289 0.0
C113 C 0.49475 0.27869 0.31958 0.0
O114 O 0.48841 0.1541 0.67881 0.0
O115 O 0.80333 0.28041 0.65915 0.0
Zn116 Zn 0.77861 0.25579 0.43056 0.0
O117 O 0.80618 0.32531 0.32216 0.0
Zn118 Zn 0.86793 0.34325 0.19308 0.0
Zn119 Zn 0.82779 0.38673 0.45973 0.0
Zn120 Zn 0.75406 0.32181 0.18928 0.0
O121 O 0.85776 0.35624 0.96442 0.0
O122 O 0.76816 0.30775 0.97557 0.0
O123 O 0.81257 0.21343 0.31901 0.0
O124 O 0.87119 0.27856 0.1582 0.0
O125 O 0.93465 0.39066 0.32267 0.0
O126 O 0.90714 0.42645 0.50656 0.0
O127 O 0.79587 0.43387 0.41326 0.0
O128 O 0.69338 0.2103 0.41952 0.0
O129 O 0.7464 0.38621 0.21373 0.0
O130 O 0.68372 0.2605 0.23952 0.0
C131 C 0.80838 0.32174 0.73122 0.0
C132 C 0.81243 0.32528 0.90017 0.0
C133 C 0.94332 0.41856 0.44668 0.0
C134 C 0.84772 0.2301 0.20502 0.0
C135 C 0.76199 0.42544 0.30715 0.0
C136 C 0.66356 0.21919 0.32819 0.0
O137 O 0.80039 0.35646 0.6652 0.0
O138 O 0.25607 0.81674 0.36152 0.0
Zn139 Zn 0.23127 0.79119 0.59446 0.0
O140 O 0.2996 0.81515 0.6968 0.0
Zn141 Zn 0.3216 0.87757 0.81991 0.0
Zn142 Zn 0.357 0.8337 0.54391 0.0
Zn143 Zn 0.29424 0.76039 0.82793 0.0
O144 O 0.33086 0.86368 0.04818 0.0
O145 O 0.28138 0.77449 0.04446 0.0
O146 O 0.1895 0.82307 0.71747 0.0
O147 O 0.25697 0.88208 0.86203 0.0
O148 O 0.37771 0.9462 0.69361 0.0
O149 O 0.39373 0.91114 0.48173 0.0
O150 O 0.40847 0.80807 0.59177 0.0
O151 O 0.18572 0.70735 0.60601 0.0
O152 O 0.36007 0.75406 0.79239 0.0
O153 O 0.23154 0.69008 0.78112 0.0
C154 C 0.29373 0.8137 0.28613 0.0
C155 C 0.29901 0.81826 0.1164 0.0
C156 C 0.39882 0.95136 0.55545 0.0
C157 C 0.20753 0.85799 0.82669 0.0
C158 C 0.40065 0.7731 0.69634 0.0
C159 C 0.19124 0.6742 0.69355 0.0
O160 O 0.32333 0.79922 0.35317 0.0
O161 O 0.07909 0.47224 -0.00196 0.0
Zn162 Zn 0.08312 0.49947 0.765 0.0
O163 O 0.12765 0.47622 0.65663 0.0
Zn164 Zn 0.08547 0.41237 0.53876 0.0
Zn165 Zn 0.16547 0.46007 0.80933 0.0
Zn166 Zn 0.17935 0.53106 0.52211 0.0
O167 O 0.10701 0.42666 0.30561 0.0
O168 O 0.1507 0.51596 0.30933 0.0
O169 O 0.01134 0.46954 0.6395 0.0
O170 O 0.01521 0.40597 0.50364 0.0
O171 O 0.07405 0.34469 0.66643 0.0
O172 O 0.12571 0.38249 0.87304 0.0
O173 O 0.24327 0.4898 0.76231 0.0
O174 O 0.12317 0.58313 0.75479 0.0
O175 O 0.2536 0.53919 0.54809 0.0
O176 O 0.18669 0.601 0.57205 0.0
C177 C 0.12056 0.47725 0.06931 0.0
C178 C 0.12173 0.47227 0.23899 0.0
C179 C 0.09073 0.3411 0.80286 0.0
C180 C -0.00732 0.433 0.53501 0.0
C181 C 0.2728 0.52204 0.65314 0.0
C182 C 0.16211 0.61646 0.66353 0.0
O183 O 0.16552 0.49531 -0.00196 0.0
O184 O 0.5331 0.70652 0.34484 0.0
Zn185 Zn 0.51996 0.72363 0.58141 0.0
O186 O 0.47737 0.65201 0.67851 0.0
Zn187 Zn 0.52549 0.63545 0.78396 0.0
Zn188 Zn 0.43968 0.60378 0.51659 0.0
Zn189 Zn 0.42379 0.64491 0.81967 0.0
O190 O 0.5218 0.64663 0.02807 0.0
O191 O 0.45248 0.66051 0.03006 0.0
O192 O 0.58623 0.76452 0.73009 0.0
O193 O 0.59859 0.6953 0.73079 0.0
O194 O 0.52224 0.56934 0.6742 0.0
O195 O 0.47555 0.56325 0.45982 0.0
O196 O 0.36059 0.55774 0.54865 0.0
O197 O 0.47267 0.75956 0.5997 0.0
O198 O 0.35098 0.57684 0.79457 0.0
O199 O 0.41169 0.70331 0.77736 0.0
C200 C 0.49276 0.67057 0.26841 0.0
C201 C 0.49262 0.66286 0.09758 0.0
C202 C 0.50552 0.5511 0.53615 0.0
C203 C 0.61183 0.74183 0.77863 0.0
C204 C 0.33129 0.5503 0.66984 0.0
C205 C 0.4318 0.74567 0.69296 0.0
O206 O 0.44653 0.64572 0.33422 0.0
loop_
_geom_bond_atom_site_label_1
_geom_bond_atom_site_label_2
_geom_bond_distance
_geom_bond_site_symmetry_2
_ccdc_geom_bond_type
O0 Zn1 1.953 . S
O0 C16 1.225 . S
Zn1 O0 1.953 . S
Zn1 O2 1.949 1_656 S
Zn1 O8 1.919 . S
Zn1 O13 1.924 . S
O2 Zn1 1.949 1_454 S
O2 Zn3 1.923 . S
O2 Zn4 1.950 1_554 S
O2 Zn5 1.945 . S
Zn3 O2 1.923 . S
Zn3 O6 1.933 . S
Zn3 O9 1.941 1_455 S
Zn3 O10 1.965 . S
Zn4 O2 1.950 1_556 S
Zn4 O11 1.938 . S
Zn4 O12 1.906 . S
Zn4 O22 1.953 . S
Zn5 O2 1.945 . S
Zn5 O7 1.932 . S
Zn5 O14 1.977 . S
Zn5 O15 1.910 1_455 S
O6 Zn3 1.933 . S
O6 C17 1.226 . S
O7 Zn5 1.932 . S
O7 C17 1.307 . S
O8 Zn1 1.919 . S
O8 C19 1.253 1_556 S
O9 Zn3 1.941 1_655 S
O9 C19 1.283 . S
O10 Zn3 1.965 . S
O10 C18 1.303 1_554 S
O11 Zn4 1.938 . S
O11 C18 1.247 . S
O12 Zn4 1.906 . S
O12 C20 1.304 1_556 S
O13 Zn1 1.924 . S
O13 C21 1.311 1_556 S
O14 Zn5 1.977 . S
O14 C20 1.272 . S
O15 Zn5 1.910 1_655 S
O15 C21 1.231 . S
C16 O0 1.225 . S
C16 O22 1.298 1_655 S
C17 O6 1.226 . S
C17 O7 1.307 . S
C18 O10 1.303 1_556 S
C18 O11 1.247 . S
C19 O8 1.253 1_554 S
C19 O9 1.283 . S
C20 O12 1.304 1_554 S
C20 O14 1.272 . S
C21 O13 1.311 1_554 S
C21 O15 1.231 . S
O22 Zn4 1.953 . S
O22 C16 1.298 1_455 S
O23 Zn24 1.953 . S
O23 C39 1.225 . S
Zn24 O23 1.953 . S
Zn24 O25 1.949 . S
Zn24 O31 1.919 . S
Zn24 O36 1.924 . S
O25 Zn24 1.949 . S
O25 Zn26 1.923 1_554 S
O25 Zn27 1.950 . S
O25 Zn28 1.945 1_554 S
Zn26 O25 1.923 1_556 S
Zn26 O29 1.933 . S
Zn26 O32 1.941 . S
Zn26 O33 1.965 . S
Zn27 O25 1.950 . S
Zn27 O34 1.938 . S
Zn27 O35 1.906 . S
Zn27 O45 1.953 . S
Zn28 O25 1.945 1_556 S
Zn28 O30 1.932 . S
Zn28 O37 1.977 . S
Zn28 O38 1.910 . S
O29 Zn26 1.933 . S
O29 C40 1.226 . S
O30 Zn28 1.932 . S
O30 C40 1.307 . S
O31 Zn24 1.919 . S
O31 C42 1.253 1_554 S
O32 Zn26 1.941 . S
O32 C42 1.283 . S
O33 Zn26 1.965 . S
O33 C41 1.303 1_556 S
O34 Zn27 1.938 . S
O34 C41 1.247 . S
O35 Zn27 1.906 . S
O35 C43 1.308 1_554 S
O36 Zn24 1.924 . S
O36 C44 1.311 . S
O37 Zn28 1.977 . S
O37 C43 1.281 . S
O38 Zn28 1.910 . S
O38 C44 1.231 1_556 S
C39 O23 1.225 . S
C39 O45 1.298 . S
C40 O29 1.226 . S
C40 O30 1.307 . S
C41 O33 1.303 1_554 S
C41 O34 1.247 . S
C42 O31 1.253 1_556 S
C42 O32 1.283 . S
C43 O35 1.308 1_556 S
C43 O37 1.281 . S
C44 O36 1.311 . S
C44 O38 1.231 1_554 S
O45 Zn27 1.953 . S
O45 C39 1.298 . S
O46 Zn47 1.953 . S
O46 C62 1.225 . S
Zn47 O46 1.953 . S
Zn47 O48 1.949 1_556 S
Zn47 O54 1.919 . S
Zn47 O59 1.924 . S
O48 Zn47 1.949 1_554 S
O48 Zn49 1.937 . S
O48 Zn50 1.950 1_544 S
O48 Zn51 1.945 . S
Zn49 O48 1.937 . S
Zn49 O52 1.934 1_545 S
Zn49 O55 1.948 . S
Zn49 O56 1.944 1_545 S
Zn50 O48 1.950 1_566 S
Zn50 O57 1.938 . S
Zn50 O58 1.906 . S
Zn50 O68 1.953 . S
Zn51 O48 1.945 . S
Zn51 O53 1.932 . S
Zn51 O60 1.977 1_545 S
Zn51 O61 1.910 . S
O52 Zn49 1.934 1_565 S
O52 C63 1.226 1_565 S
O53 Zn51 1.932 . S
O53 C63 1.307 . S
O54 Zn47 1.919 . S
O54 C65 1.253 1_556 S
O55 Zn49 1.948 . S
O55 C65 1.283 . S
O56 Zn49 1.944 1_565 S
O56 C64 1.303 1_554 S
O57 Zn50 1.938 . S
O57 C64 1.247 . S
O58 Zn50 1.906 . S
O58 C66 1.304 1_556 S
O59 Zn47 1.924 . S
O59 C67 1.311 1_556 S
O60 Zn51 1.977 1_565 S
O60 C66 1.272 . S
O61 Zn51 1.910 . S
O61 C67 1.231 . S
C62 O46 1.225 . S
C62 O68 1.298 1_545 S
C63 O52 1.226 1_545 S
C63 O53 1.307 . S
C64 O56 1.303 1_556 S
C64 O57 1.247 . S
C65 O54 1.253 1_554 S
C65 O55 1.283 . S
C66 O58 1.304 1_554 S
C66 O60 1.272 . S
C67 O59 1.311 1_554 S
C67 O61 1.231 . S
O68 Zn50 1.953 . S
O68 C62 1.298 1_565 S
O69 Zn70 1.953 . S
O69 C85 1.225 . S
Zn70 O69 1.953 . S
Zn70 O71 1.949 . S
Zn70 O77 1.919 . S
Zn70 O82 1.924 . S
O71 Zn70 1.949 . S
O71 Zn72 1.923 . S
O71 Zn73 1.950 . S
O71 Zn74 1.945 . S
Zn72 O71 1.923 . S
Zn72 O75 1.933 1_554 S
Zn72 O78 1.941 . S
Zn72 O79 1.965 . S
Zn73 O71 1.950 . S
Zn73 O80 1.938 . S
Zn73 O81 1.906 . S
Zn73 O91 1.953 . S
Zn74 O71 1.945 . S
Zn74 O76 1.932 1_554 S
Zn74 O83 1.977 . S
Zn74 O84 1.910 . S
O75 Zn72 1.933 1_556 S
O75 C86 1.226 . S
O76 Zn74 1.932 1_556 S
O76 C86 1.307 . S
O77 Zn70 1.919 . S
O77 C88 1.253 . S
O78 Zn72 1.941 . S
O78 C88 1.283 . S
O79 Zn72 1.965 . S
O79 C87 1.303 . S
O80 Zn73 1.938 . S
O80 C87 1.247 . S
O81 Zn73 1.906 . S
O81 C89 1.304 . S
O82 Zn70 1.924 . S
O82 C90 1.311 . S
O83 Zn74 1.977 . S
O83 C89 1.272 . S
O84 Zn74 1.910 . S
O84 C90 1.231 . S
C85 O69 1.225 . S
C85 O91 1.298 . S
C86 O75 1.226 . S
C86 O76 1.307 . S
C87 O79 1.303 . S
C87 O80 1.247 . S
C88 O77 1.253 . S
C88 O78 1.283 . S
C89 O81 1.304 . S
C89 O83 1.272 . S
C90 O82 1.311 . S
C90 O84 1.231 . S
O91 Zn73 1.953 . S
O91 C85 1.298 . S
O92 Zn93 1.953 . S
O92 C108 1.225 . S
Zn93 O92 1.953 . S
Zn93 O94 1.949 . S
Zn93 O100 1.919 . S
Zn93 O105 1.924 . S
O94 Zn93 1.949 . S
O94 Zn95 1.923 . S
O94 Zn96 1.950 . S
O94 Zn97 1.945 . S
Zn95 O94 1.923 . S
Zn95 O98 1.933 1_554 S
Zn95 O101 1.941 . S
Zn95 O102 1.965 . S
Zn96 O94 1.950 . S
Zn96 O103 1.938 . S
Zn96 O104 1.906 . S
Zn96 O114 1.953 . S
Zn97 O94 1.945 . S
Zn97 O99 1.932 1_554 S
Zn97 O106 1.977 . S
Zn97 O107 1.910 . S
O98 Zn95 1.933 1_556 S
O98 C109 1.226 . S
O99 Zn97 1.932 1_556 S
O99 C109 1.307 . S
O100 Zn93 1.919 . S
O100 C111 1.253 . S
O101 Zn95 1.941 . S
O101 C111 1.283 . S
O102 Zn95 1.965 . S
O102 C110 1.303 . S
O103 Zn96 1.938 . S
O103 C110 1.247 . S
O104 Zn96 1.906 . S
O104 C112 1.304 . S
O105 Zn93 1.924 . S
O105 C113 1.311 . S
O106 Zn97 1.977 . S
O106 C112 1.272 . S
O107 Zn97 1.910 . S
O107 C113 1.231 . S
C108 O92 1.225 . S
C108 O114 1.298 . S
C109 O98 1.226 . S
C109 O99 1.307 . S
C110 O102 1.303 . S
C110 O103 1.247 . S
C111 O100 1.253 . S
C111 O101 1.283 . S
C112 O104 1.304 . S
C112 O106 1.272 . S
C113 O105 1.311 . S
C113 O107 1.231 . S
O114 Zn96 1.953 . S
O114 C108 1.298 . S
O115 Zn116 1.953 . S
O115 C131 1.225 . S
Zn116 O115 1.953 . S
Zn116 O117 1.949 . S
Zn116 O123 1.919 . S
Zn116 O128 1.924 . S
O117 Zn116 1.949 . S
O117 Zn118 1.923 . S
O117 Zn119 1.950 . S
O117 Zn120 1.945 . S
Zn118 O117 1.923 . S
Zn118 O121 1.933 1_554 S
Zn118 O124 1.941 . S
Zn118 O125 1.965 . S
Zn119 O117 1.950 . S
Zn119 O126 1.938 . S
Zn119 O127 1.906 . S
Zn119 O137 1.953 . S
Zn120 O117 1.945 . S
Zn120 O122 1.932 1_554 S
Zn120 O129 1.977 . S
Zn120 O130 1.910 . S
O121 Zn118 1.933 1_556 S
O121 C132 1.226 . S
O122 Zn120 1.932 1_556 S
O122 C132 1.307 . S
O123 Zn116 1.919 . S
O123 C134 1.253 . S
O124 Zn118 1.941 . S
O124 C134 1.283 . S
O125 Zn118 1.965 . S
O125 C133 1.302 . S
O126 Zn119 1.938 . S
O126 C133 1.260 . S
O127 Zn119 1.906 . S
O127 C135 1.304 . S
O128 Zn116 1.924 . S
O128 C136 1.311 . S
O129 Zn120 1.977 . S
O129 C135 1.272 . S
O130 Zn120 1.910 . S
O130 C136 1.231 . S
C131 O115 1.225 . S
C131 O137 1.298 . S
C132 O121 1.226 . S
C132 O122 1.307 . S
C133 O125 1.302 . S
C133 O126 1.260 . S
C134 O123 1.253 . S
C134 O124 1.283 . S
C135 O127 1.304 . S
C135 O129 1.272 . S
C136 O128 1.311 . S
C136 O130 1.231 . S
O137 Zn119 1.953 . S
O137 C131 1.298 . S
O138 Zn139 1.953 . S
O138 C154 1.225 . S
Zn139 O138 1.953 . S
Zn139 O140 1.949 . S
Zn139 O146 1.919 . S
Zn139 O151 1.924 . S
O140 Zn139 1.949 . S
O140 Zn141 1.923 . S
O140 Zn142 1.950 . S
O140 Zn143 1.945 . S
Zn141 O140 1.923 . S
Zn141 O144 1.933 1_556 S
Zn141 O147 1.941 . S
Zn141 O148 1.965 . S
Zn142 O140 1.950 . S
Zn142 O149 1.938 . S
Zn142 O150 1.906 . S
Zn142 O160 1.953 . S
Zn143 O140 1.945 . S
Zn143 O145 1.932 1_556 S
Zn143 O152 1.977 . S
Zn143 O153 1.910 . S
O144 Zn141 1.933 1_554 S
O144 C155 1.226 . S
O145 Zn143 1.932 1_554 S
O145 C155 1.307 . S
O146 Zn139 1.919 . S
O146 C157 1.253 . S
O147 Zn141 1.941 . S
O147 C157 1.283 . S
O148 Zn141 1.965 . S
O148 C156 1.303 . S
O149 Zn142 1.938 . S
O149 C156 1.247 . S
O150 Zn142 1.906 . S
O150 C158 1.304 . S
O151 Zn139 1.924 . S
O151 C159 1.311 . S
O152 Zn143 1.977 . S
O152 C158 1.272 . S
O153 Zn143 1.910 . S
O153 C159 1.231 . S
C154 O138 1.225 . S
C154 O160 1.298 . S
C155 O144 1.226 . S
C155 O145 1.307 . S
C156 O148 1.303 . S
C156 O149 1.247 . S
C157 O146 1.253 . S
C157 O147 1.283 . S
C158 O150 1.304 . S
C158 O152 1.272 . S
C159 O151 1.311 . S
C159 O153 1.231 . S
O160 Zn142 1.953 . S
O160 C154 1.298 . S
O161 Zn162 1.953 1_554 S
O161 C177 1.225 . S
Zn162 O161 1.953 1_556 S
Zn162 O163 1.949 . S
Zn162 O169 1.919 . S
Zn162 O174 1.924 . S
O163 Zn162 1.949 . S
O163 Zn164 1.923 . S
O163 Zn165 1.950 . S
O163 Zn166 1.945 . S
Zn164 O163 1.923 . S
Zn164 O167 1.933 . S
Zn164 O170 1.941 . S
Zn164 O171 1.965 . S
Zn165 O163 1.950 . S
Zn165 O172 1.938 . S
Zn165 O173 1.906 . S
Zn165 O183 1.953 1_556 S
Zn166 O163 1.945 . S
Zn166 O168 1.932 . S
Zn166 O175 1.977 . S
Zn166 O176 1.910 . S
O167 Zn164 1.933 . S
O167 C178 1.226 . S
O168 Zn166 1.932 . S
O168 C178 1.307 . S
O169 Zn162 1.919 . S
O169 C180 1.253 . S
O170 Zn164 1.941 . S
O170 C180 1.283 . S
O171 Zn164 1.965 . S
O171 C179 1.303 . S
O172 Zn165 1.938 . S
O172 C179 1.247 . S
O173 Zn165 1.906 . S
O173 C181 1.304 . S
O174 Zn162 1.924 . S
O174 C182 1.311 . S
O175 Zn166 1.977 . S
O175 C181 1.272 . S
O176 Zn166 1.910 . S
O176 C182 1.231 . S
C177 O161 1.225 . S
C177 O183 1.298 . S
C178 O167 1.226 . S
C178 O168 1.307 . S
C179 O171 1.303 . S
C179 O172 1.247 . S
C180 O169 1.253 . S
C180 O170 1.283 . S
C181 O173 1.304 . S
C181 O175 1.272 . S
C182 O174 1.311 . S
C182 O176 1.231 . S
O183 Zn165 1.953 1_554 S
O183 C177 1.298 . S
O184 Zn185 1.953 . S
O184 C200 1.225 . S
Zn185 O184 1.953 . S
Zn185 O186 1.949 . S
Zn185 O192 1.919 . S
Zn185 O197 1.924 . S
O186 Zn185 1.949 . S
O186 Zn187 1.923 . S
O186 Zn188 1.950 . S
O186 Zn189 1.945 . S
Zn187 O186 1.923 . S
Zn187 O190 1.933 1_556 S
Zn187 O193 1.941 . S
Zn187 O194 1.965 . S
Zn188 O186 1.950 . S
Zn188 O195 1.938 . S
Zn188 O196 1.906 . S
Zn188 O206 1.953 . S
Zn189 O186 1.945 . S
Zn189 O191 1.932 1_556 S
Zn189 O198 1.977 . S
Zn189 O199 1.910 . S
O190 Zn187 1.933 1_554 S
O190 C201 1.226 . S
O191 Zn189 1.932 1_554 S
O191 C201 1.307 . S
O192 Zn185 1.919 . S
O192 C203 1.253 . S
O193 Zn187 1.941 . S
O193 C203 1.283 . S
O194 Zn187 1.965 . S
O194 C202 1.303 . S
O195 Zn188 1.938 . S
O195 C202 1.247 . S
O196 Zn188 1.906 . S
O196 C204 1.304 . S
O197 Zn185 1.924 . S
O197 C205 1.311 . S
O198 Zn189 1.977 . S
O198 C204 1.272 . S
O199 Zn189 1.910 . S
O199 C205 1.231 . S
C200 O184 1.225 . S
C200 O206 1.298 . S
C201 O190 1.226 . S
C201 O191 1.307 . S
C202 O194 1.303 . S
C202 O195 1.247 . S
C203 O192 1.253 . S
C203 O193 1.283 . S
C204 O196 1.304 . S
C204 O198 1.272 . S
C205 O197 1.311 . S
C205 O199 1.231 . S
O206 Zn188 1.953 . S
O206 C200 1.298 . S
C18 C179 1.490 . S
C42 C203 1.543 . S
C64 C157 1.547 . S
C111 C65 1.524 . S
C134 C19 1.539 . S
C41 C88 1.545 . S
C180 C133 1.543 1_455 S
C202 C87 1.496 . S
C110 C156 1.509 1_545 S
C67 C20 1.088 . S
C44 C21 1.110 1_565 S
C43 C66 1.007 1_656 S
C90 C135 1.089 . S
C89 C113 1.087 . S
C112 C136 1.082 . S
C205 C158 1.096 . S
C182 C159 1.122 . S
C204 C181 1.031 . S
C16 C17 1.727 1_655 S
C40 C39 1.714 . S
C62 C63 1.714 . S
C85 C86 1.733 . S
C108 C109 1.724 . S
C131 C132 1.715 . S
C154 C155 1.734 . S
C177 C178 1.735 . S
C200 C201 1.722 . S
