# Generated by pormake.
# Topology ukk, (4)-cn, num edge types: 1
# Building blocks:
#     Node 0, Type 0, BuildingBlock: NAWXER_clean_sbu_0, # of connection points: 4
#     Node 1, Type 0, BuildingBlock: NAWXER_clean_sbu_0, # of connection points: 4
#     Node 2, Type 0, BuildingBlock: NAWXER_clean_sbu_0, # of connection points: 4
#     Node 3, Type 0, BuildingBlock: NAWXER_clean_sbu_0, # of connection points: 4
#     Node 4, Type 0, BuildingBlock: NAWXER_clean_sbu_0, # of connection points: 4
#     Node 5, Type 0, BuildingBlock: NAWXER_clean_sbu_0, # of connection points: 4
#     Node 6, Type 0, BuildingBlock: NAWXER_clean_sbu_0, # of connection points: 4
#     Node 7, Type 0, BuildingBlock: NAWXER_clean_sbu_0, # of connection points: 4
#     Node 8, Type 0, BuildingBlock: NAWXER_clean_sbu_0, # of connection points: 4
#     Node 9, Type 0, BuildingBlock: NAWXER_clean_sbu_0, # of connection points: 4
#     Node 10, Type 0, BuildingBlock: NAWXER_clean_sbu_0, # of connection points: 4
#     Node 11, Type 0, BuildingBlock: NAWXER_clean_sbu_0, # of connection points: 4
#     Node 12, Type 0, BuildingBlock: NAWXER_clean_sbu_0, # of connection points: 4
#     Node 13, Type 0, BuildingBlock: NAWXER_clean_sbu_0, # of connection points: 4
#     Node 14, Type 0, BuildingBlock: NAWXER_clean_sbu_0, # of connection points: 4
#     Node 15, Type 0, BuildingBlock: NAWXER_clean_sbu_0, # of connection points: 4
#     Edge 16, Type (0, 0), None
#     Edge 17, Type (0, 0), None
#     Edge 18, Type (0, 0), None
#     Edge 19, Type (0, 0), None
#     Edge 20, Type (0, 0), None
#     Edge 21, Type (0, 0), None
#     Edge 22, Type (0, 0), None
#     Edge 23, Type (0, 0), None
#     Edge 24, Type (0, 0), None
#     Edge 25, Type (0, 0), None
#     Edge 26, Type (0, 0), None
#     Edge 27, Type (0, 0), None
#     Edge 28, Type (0, 0), None
#     Edge 29, Type (0, 0), None
#     Edge 30, Type (0, 0), None
#     Edge 31, Type (0, 0), None
#     Edge 32, Type (0, 0), None
#     Edge 33, Type (0, 0), None
#     Edge 34, Type (0, 0), None
#     Edge 35, Type (0, 0), None
#     Edge 36, Type (0, 0), None
#     Edge 37, Type (0, 0), None
#     Edge 38, Type (0, 0), None
#     Edge 39, Type (0, 0), None
#     Edge 40, Type (0, 0), None
#     Edge 41, Type (0, 0), None
#     Edge 42, Type (0, 0), None
#     Edge 43, Type (0, 0), None
#     Edge 44, Type (0, 0), None
#     Edge 45, Type (0, 0), None
#     Edge 46, Type (0, 0), None
#     Edge 47, Type (0, 0), None
# Relax obj value: 0.021
# Max RMSD: 0.113
# Mean RMSD: 0.113
data_MOF--net-ukk--node1-NAWXER_clean_sbu_0--edge1-none
_symmetry_space_group_name_H-M    P1
_symmetry_Int_Tables_number       1
_symmetry_cell_setting            triclinic
loop_
_symmetry_equiv_pos_as_xyz
'x, y, z'
_cell_length_a     24.871671
_cell_length_b     24.871685
_cell_length_c     6.4448614
_cell_angle_alpha  90.031673
_cell_angle_beta   89.89765
_cell_angle_gamma 90.00005
loop_
_atom_site_label
_atom_site_type_symbol
_atom_site_fract_x
_atom_site_fract_y
_atom_site_fract_z
_atom_type_partial_charge
C0 C 0.36931 0.23851 0.06724 0.0
C1 C 0.39018 0.04693 0.27697 0.0
O2 O 0.38162 0.20601 -0.07741 0.0
Zn3 Zn 0.39623 0.12422 0.8821 0.0
O4 O 0.363 0.22109 0.25222 0.0
Zn5 Zn 0.37418 0.14415 0.20059 0.0
O6 O 0.45574 0.14687 0.13643 0.0
O7 O 0.47498 0.12717 0.81138 0.0
O8 O 0.38075 0.08509 0.40086 0.0
O9 O 0.39454 0.05706 0.08325 0.0
O10 O 0.33408 0.11068 0.70936 0.0
O11 O 0.3043 0.12545 0.02386 0.0
C12 C 0.4904 0.14022 -0.0063 0.0
C13 C 0.29501 0.11462 0.83347 0.0
C14 C 0.14011 0.54433 0.84288 0.0
C15 C 0.11452 0.73968 0.0033 0.0
O16 O 0.12698 0.55985 0.02517 0.0
Zn17 Zn 0.12412 0.63852 -0.04564 0.0
O18 O 0.14685 0.57888 0.70012 0.0
Zn19 Zn 0.14421 0.66036 0.63586 0.0
O20 O 0.22118 0.67143 0.58438 0.0
O21 O 0.20597 0.65305 0.91401 0.0
O22 O 0.12549 0.73031 0.81295 0.0
O23 O 0.11043 0.70067 0.12731 0.0
O24 O 0.05706 0.64012 0.75306 0.0
O25 O 0.0852 0.65368 0.43543 0.0
C26 C 0.23854 0.66521 0.76936 0.0
C27 C 0.04699 0.64436 0.55935 0.0
C28 C 0.54431 0.89436 -0.00563 0.0
C29 C 0.73952 0.92023 0.83231 0.0
O30 O 0.57888 0.88779 0.13691 0.0
Zn31 Zn 0.66037 0.89059 0.20044 0.0
O32 O 0.55978 0.90733 0.8119 0.0
Zn33 Zn 0.63844 0.91034 0.88197 0.0
O34 O 0.65311 0.8286 -0.07757 0.0
O35 O 0.67164 0.81369 0.25192 0.0
O36 O 0.7005 0.92395 0.70835 0.0
O37 O 0.73018 0.90945 0.02279 0.0
O38 O 0.65367 0.94968 0.40089 0.0
O39 O 0.63999 0.97754 0.08322 0.0
C40 C 0.6654 0.79618 0.06705 0.0
C41 C 0.64426 0.98776 0.27689 0.0
C42 C 0.89425 0.49047 0.84252 0.0
C43 C 0.92003 0.29522 0.00456 0.0
O44 O 0.90711 0.4751 0.02506 0.0
Zn45 Zn 0.91017 0.39636 -0.04487 0.0
O46 O 0.88774 0.45579 0.70002 0.0
Zn47 Zn 0.89057 0.37422 0.6367 0.0
O48 O 0.81372 0.36285 0.58503 0.0
O49 O 0.82848 0.38164 0.91449 0.0
O50 O 0.9094 0.30447 0.81403 0.0
O51 O 0.92359 0.33431 0.1286 0.0
O52 O 0.97748 0.39467 0.75409 0.0
O53 O 0.94972 0.38075 0.43646 0.0
C54 C 0.79613 0.36921 0.76987 0.0
C55 C 0.98776 0.39026 0.56043 0.0
C56 C 0.49029 0.39442 0.09258 0.0
C57 C 0.29503 0.42027 0.25365 0.0
O58 O 0.45576 0.38776 -0.05008 0.0
Zn59 Zn 0.3743 0.39051 0.88592 0.0
O60 O 0.47476 0.40751 0.27491 0.0
Zn61 Zn 0.39613 0.41047 0.20441 0.0
O62 O 0.3815 0.32867 0.16425 0.0
O63 O 0.36312 0.31357 0.83469 0.0
O64 O 0.33401 0.42421 0.37766 0.0
O65 O 0.30442 0.40935 0.06328 0.0
O66 O 0.38108 0.44953 0.68528 0.0
O67 O 0.39463 0.47754 0.00293 0.0
C68 C 0.3693 0.29616 0.01967 0.0
C69 C 0.39043 0.48768 0.80922 0.0
C70 C 0.39457 0.54422 0.74341 0.0
C71 C 0.42023 0.73961 0.58341 0.0
O72 O 0.40771 0.55969 0.56113 0.0
Zn73 Zn 0.41059 0.63841 0.63195 0.0
O74 O 0.38784 0.57882 0.88614 0.0
Zn75 Zn 0.3905 0.66032 -0.04953 0.0
O76 O 0.31354 0.67144 0.00193 0.0
O77 O 0.32875 0.65298 0.67227 0.0
O78 O 0.40926 0.73025 0.77372 0.0
O79 O 0.42429 0.70059 0.45928 0.0
O80 O 0.47765 0.64004 0.83326 0.0
O81 O 0.4495 0.65367 0.15088 0.0
C82 C 0.29618 0.66519 0.81693 0.0
C83 C 0.48771 0.64433 0.02699 0.0
C84 C 0.73957 0.61467 0.25413 0.0
C85 C 0.54423 0.64026 0.093 0.0
O86 O 0.73032 0.62537 0.06365 0.0
Zn87 Zn 0.66051 0.6441 0.88668 0.0
O88 O 0.70047 0.61094 0.37821 0.0
Zn89 Zn 0.63836 0.62436 0.20515 0.0
O90 O 0.64009 0.55709 0.00418 0.0
O91 O 0.65401 0.58497 0.68655 0.0
O92 O 0.55959 0.62734 0.27547 0.0
O93 O 0.57893 0.64684 -0.04961 0.0
O94 O 0.67177 0.72099 0.83485 0.0
O95 O 0.653 0.7061 0.16442 0.0
C96 C 0.64451 0.54688 0.81049 0.0
C97 C 0.66539 0.73851 0.01972 0.0
C98 C 0.64038 0.49036 0.74447 0.0
C99 C 0.61456 0.29515 0.58226 0.0
O100 O 0.6275 0.47495 0.56195 0.0
Zn101 Zn 0.62441 0.39625 0.63193 0.0
O102 O 0.64687 0.45573 0.88701 0.0
Zn103 Zn 0.64402 0.37419 -0.04963 0.0
O104 O 0.72088 0.36287 0.00201 0.0
O105 O 0.7061 0.38156 0.67254 0.0
O106 O 0.62521 0.30443 0.77279 0.0
O107 O 0.61096 0.33421 0.45829 0.0
O108 O 0.55712 0.39463 0.83307 0.0
O109 O 0.58487 0.3808 0.15072 0.0
C110 C 0.73846 0.36919 0.81717 0.0
C111 C 0.54684 0.39028 0.02673 0.0
C112 C 0.86934 0.73856 0.56666 0.0
C113 C 0.89017 0.54698 0.77639 0.0
O114 O 0.88168 0.70607 0.42203 0.0
Zn115 Zn 0.8963 0.62428 0.38158 0.0
O116 O 0.86301 0.72114 0.75161 0.0
Zn117 Zn 0.87422 0.64421 0.70002 0.0
O118 O 0.95579 0.64692 0.63607 0.0
O119 O 0.97507 0.62722 0.31107 0.0
O120 O 0.88075 0.58515 0.90025 0.0
O121 O 0.89457 0.55711 0.58268 0.0
O122 O 0.83416 0.61074 0.2088 0.0
O123 O 0.80435 0.62548 0.52329 0.0
C124 C 0.99046 0.64026 0.49342 0.0
C125 C 0.79508 0.61465 0.3329 0.0
C126 C 0.64012 0.0443 0.34266 0.0
C127 C 0.61447 0.23963 0.50331 0.0
O128 O 0.62702 0.05981 0.52501 0.0
Zn129 Zn 0.62412 0.13848 0.45431 0.0
O130 O 0.64683 0.07887 0.19993 0.0
Zn131 Zn 0.64415 0.16035 0.13576 0.0
O132 O 0.72113 0.17146 0.0842 0.0
O133 O 0.70594 0.15304 0.41383 0.0
O134 O 0.6254 0.23027 0.31293 0.0
O135 O 0.61044 0.20062 0.62735 0.0
O136 O 0.55703 0.14007 0.25315 0.0
O137 O 0.58511 0.15367 -0.06454 0.0
C138 C 0.7385 0.16523 0.26916 0.0
C139 C 0.54693 0.14432 0.05947 0.0
C140 C 0.04429 0.39437 0.49449 0.0
C141 C 0.2395 0.42023 0.33263 0.0
O142 O 0.07885 0.38781 0.63711 0.0
Zn143 Zn 0.16034 0.39061 0.70075 0.0
O144 O 0.05979 0.40734 0.31204 0.0
Zn145 Zn 0.13843 0.41035 0.38226 0.0
O146 O 0.1531 0.32861 0.42278 0.0
O147 O 0.1716 0.31372 0.7523 0.0
O148 O 0.20049 0.42395 0.20863 0.0
O149 O 0.23015 0.40946 0.52311 0.0
O150 O 0.15363 0.4497 0.90121 0.0
O151 O 0.13998 0.47755 0.58349 0.0
C152 C 0.16538 0.2962 0.56744 0.0
C153 C 0.14423 0.48778 0.77716 0.0
C154 C 0.3943 0.99041 0.34303 0.0
C155 C 0.42013 0.79514 0.50465 0.0
O156 O 0.4072 0.97503 0.5255 0.0
Zn157 Zn 0.41027 0.89629 0.45543 0.0
O158 O 0.38777 0.95574 0.20051 0.0
Zn159 Zn 0.39061 0.87418 0.13703 0.0
O160 O 0.31376 0.86282 0.08552 0.0
O161 O 0.32856 0.88157 0.41501 0.0
O162 O 0.40945 0.8044 0.31418 0.0
O163 O 0.42375 0.83421 0.62872 0.0
O164 O 0.47754 0.89463 0.25416 0.0
O165 O 0.44972 0.88075 -0.06341 0.0
C166 C 0.2962 0.86916 0.2704 0.0
C167 C 0.48778 0.89024 0.06046 0.0
C168 C 0.79505 0.92029 0.75333 0.0
C169 C 0.9903 0.89445 0.59236 0.0
O170 O 0.80443 0.90939 0.56293 0.0
Zn171 Zn 0.87433 0.89057 0.38552 0.0
O172 O 0.83403 0.92422 0.87734 0.0
Zn173 Zn 0.89614 0.91051 0.70405 0.0
O174 O 0.89465 0.9776 0.50262 0.0
O175 O 0.8811 0.94961 0.18493 0.0
O176 O 0.97475 0.90752 0.77468 0.0
O177 O 0.95579 0.8878 0.44962 0.0
O178 O 0.86315 0.81363 0.33416 0.0
O179 O 0.88151 0.82872 0.66375 0.0
C180 C 0.89045 0.98775 0.30892 0.0
C181 C 0.86933 0.79622 0.51912 0.0
C182 C 0.89458 0.04429 0.24317 0.0
C183 C 0.92017 0.2397 0.08335 0.0
O184 O 0.90773 0.05978 0.06092 0.0
Zn185 Zn 0.91058 0.13849 0.13185 0.0
O186 O 0.88782 0.07888 0.38592 0.0
Zn187 Zn 0.89046 0.16038 0.45033 0.0
O188 O 0.81349 0.17147 0.50173 0.0
O189 O 0.82872 0.15304 0.17206 0.0
O190 O 0.90918 0.23034 0.27365 0.0
O191 O 0.92428 0.20068 -0.04077 0.0
O192 O 0.97763 0.14012 0.33326 0.0
O193 O 0.94943 0.15373 0.65083 0.0
C194 C 0.79615 0.16523 0.31672 0.0
C195 C 0.98766 0.1444 0.52702 0.0
C196 C 0.2395 0.11469 0.75468 0.0
C197 C 0.04417 0.1403 0.59315 0.0
O198 O 0.23027 0.12537 0.56418 0.0
Zn199 Zn 0.16049 0.14411 0.38715 0.0
O200 O 0.20039 0.111 0.87874 0.0
Zn201 Zn 0.13829 0.12439 0.70558 0.0
O202 O 0.14007 0.0571 0.50472 0.0
O203 O 0.15403 0.08498 0.18713 0.0
O204 O 0.0595 0.12739 0.77567 0.0
O205 O 0.07889 0.14687 0.45063 0.0
O206 O 0.17177 0.221 0.33529 0.0
O207 O 0.15295 0.20613 0.66482 0.0
C208 C 0.14453 0.04689 0.31105 0.0
C209 C 0.16537 0.23853 0.52014 0.0
C210 C 0.14044 0.99037 0.24497 0.0
C211 C 0.11466 0.7952 0.08229 0.0
O212 O 0.12762 0.97497 0.06238 0.0
Zn213 Zn 0.12452 0.89628 0.1322 0.0
O214 O 0.14691 0.95573 0.3875 0.0
Zn215 Zn 0.14406 0.87417 0.45067 0.0
O216 O 0.22092 0.86282 0.50249 0.0
O217 O 0.20619 0.88156 0.17304 0.0
O218 O 0.12525 0.80444 0.27289 0.0
O219 O 0.11113 0.83427 -0.04166 0.0
O220 O 0.05718 0.89464 0.33307 0.0
O221 O 0.08485 0.88075 0.65079 0.0
C222 C 0.23852 0.86916 0.31769 0.0
C223 C 0.04685 0.89028 0.52669 0.0
loop_
_geom_bond_atom_site_label_1
_geom_bond_atom_site_label_2
_geom_bond_distance
_geom_bond_site_symmetry_2
_ccdc_geom_bond_type
C0 O2 1.247 1_554 S
C0 O4 1.258 . S
C1 O8 1.247 . S
C1 O9 1.258 1_554 S
O2 C0 1.247 1_556 S
O2 Zn3 2.028 . S
Zn3 O2 2.028 . S
Zn3 O7 2.035 1_556 S
Zn3 O9 2.035 . S
Zn3 O10 2.028 . S
O4 C0 1.258 . S
O4 Zn5 2.035 . S
Zn5 O4 2.035 . S
Zn5 O6 2.028 . S
Zn5 O8 2.028 . S
Zn5 O11 2.035 . S
O6 Zn5 2.028 . S
O6 C12 1.247 . S
O7 Zn3 2.035 1_554 S
O7 C12 1.258 . S
O8 C1 1.247 . S
O8 Zn5 2.028 . S
O9 C1 1.258 1_556 S
O9 Zn3 2.035 . S
O10 Zn3 2.028 . S
O10 C13 1.247 1_556 S
O11 Zn5 2.035 . S
O11 C13 1.258 . S
C12 O6 1.247 . S
C12 O7 1.258 . S
C13 O10 1.247 1_554 S
C13 O11 1.258 . S
C14 O16 1.247 . S
C14 O18 1.258 . S
C15 O22 1.247 . S
C15 O23 1.258 1_556 S
O16 C14 1.247 . S
O16 Zn17 2.028 1_556 S
Zn17 O16 2.028 1_554 S
Zn17 O21 2.035 . S
Zn17 O23 2.035 . S
Zn17 O24 2.028 . S
O18 C14 1.258 . S
O18 Zn19 2.035 . S
Zn19 O18 2.035 . S
Zn19 O20 2.028 . S
Zn19 O22 2.028 . S
Zn19 O25 2.035 . S
O20 Zn19 2.028 . S
O20 C26 1.247 . S
O21 Zn17 2.035 . S
O21 C26 1.258 1_554 S
O22 C15 1.247 . S
O22 Zn19 2.028 . S
O23 C15 1.258 1_554 S
O23 Zn17 2.035 . S
O24 Zn17 2.028 . S
O24 C27 1.247 1_554 S
O25 Zn19 2.035 . S
O25 C27 1.258 . S
C26 O20 1.247 . S
C26 O21 1.258 1_556 S
C27 O24 1.247 1_556 S
C27 O25 1.258 . S
C28 O30 1.247 . S
C28 O32 1.258 . S
C29 O36 1.247 1_554 S
C29 O37 1.258 . S
O30 C28 1.247 . S
O30 Zn31 2.028 . S
Zn31 O30 2.028 . S
Zn31 O35 2.035 . S
Zn31 O37 2.035 . S
Zn31 O38 2.028 . S
O32 C28 1.258 . S
O32 Zn33 2.035 1_554 S
Zn33 O32 2.035 1_556 S
Zn33 O34 2.028 . S
Zn33 O36 2.028 . S
Zn33 O39 2.035 . S
O34 Zn33 2.028 . S
O34 C40 1.247 1_556 S
O35 Zn31 2.035 . S
O35 C40 1.258 . S
O36 C29 1.247 1_556 S
O36 Zn33 2.028 . S
O37 C29 1.258 . S
O37 Zn31 2.035 . S
O38 Zn31 2.028 . S
O38 C41 1.247 . S
O39 Zn33 2.035 . S
O39 C41 1.258 1_556 S
C40 O34 1.247 1_554 S
C40 O35 1.258 . S
C41 O38 1.247 . S
C41 O39 1.258 1_554 S
C42 O44 1.247 . S
C42 O46 1.258 . S
C43 O50 1.247 . S
C43 O51 1.258 1_556 S
O44 C42 1.247 . S
O44 Zn45 2.028 1_556 S
Zn45 O44 2.028 1_554 S
Zn45 O49 2.035 . S
Zn45 O51 2.035 . S
Zn45 O52 2.028 . S
O46 C42 1.258 . S
O46 Zn47 2.035 . S
Zn47 O46 2.035 . S
Zn47 O48 2.028 . S
Zn47 O50 2.028 . S
Zn47 O53 2.035 . S
O48 Zn47 2.028 . S
O48 C54 1.247 . S
O49 Zn45 2.035 . S
O49 C54 1.258 1_554 S
O50 C43 1.247 . S
O50 Zn47 2.028 . S
O51 C43 1.258 1_554 S
O51 Zn45 2.035 . S
O52 Zn45 2.028 . S
O52 C55 1.247 1_554 S
O53 Zn47 2.035 . S
O53 C55 1.258 . S
C54 O48 1.247 . S
C54 O49 1.258 1_556 S
C55 O52 1.247 1_556 S
C55 O53 1.258 . S
C56 O58 1.247 . S
C56 O60 1.258 1_556 S
C57 O64 1.247 . S
C57 O65 1.258 . S
O58 C56 1.247 . S
O58 Zn59 2.028 . S
Zn59 O58 2.028 . S
Zn59 O63 2.035 . S
Zn59 O65 2.035 1_556 S
Zn59 O66 2.028 . S
O60 C56 1.258 1_554 S
O60 Zn61 2.035 . S
Zn61 O60 2.035 . S
Zn61 O62 2.028 . S
Zn61 O64 2.028 . S
Zn61 O67 2.035 . S
O62 Zn61 2.028 . S
O62 C68 1.247 . S
O63 Zn59 2.035 . S
O63 C68 1.258 1_556 S
O64 C57 1.247 . S
O64 Zn61 2.028 . S
O65 C57 1.258 . S
O65 Zn59 2.035 1_554 S
O66 Zn59 2.028 . S
O66 C69 1.247 1_556 S
O67 Zn61 2.035 . S
O67 C69 1.258 . S
C68 O62 1.247 . S
C68 O63 1.258 1_554 S
C69 O66 1.247 1_554 S
C69 O67 1.258 . S
C70 O72 1.247 1_554 S
C70 O74 1.258 . S
C71 O78 1.247 . S
C71 O79 1.258 . S
O72 C70 1.247 1_556 S
O72 Zn73 2.028 . S
Zn73 O72 2.028 . S
Zn73 O77 2.035 . S
Zn73 O79 2.035 . S
Zn73 O80 2.028 . S
O74 C70 1.258 . S
O74 Zn75 2.035 . S
Zn75 O74 2.035 . S
Zn75 O76 2.028 . S
Zn75 O78 2.028 1_554 S
Zn75 O81 2.035 . S
O76 Zn75 2.028 . S
O76 C82 1.247 1_554 S
O77 Zn73 2.035 . S
O77 C82 1.258 . S
O78 C71 1.247 . S
O78 Zn75 2.028 1_556 S
O79 C71 1.258 . S
O79 Zn73 2.035 . S
O80 Zn73 2.028 . S
O80 C83 1.247 . S
O81 Zn75 2.035 . S
O81 C83 1.258 1_554 S
C82 O76 1.247 1_556 S
C82 O77 1.258 . S
C83 O80 1.247 . S
C83 O81 1.258 1_556 S
C84 O86 1.247 . S
C84 O88 1.258 . S
C85 O92 1.247 1_556 S
C85 O93 1.258 . S
O86 C84 1.247 . S
O86 Zn87 2.028 1_554 S
Zn87 O86 2.028 1_556 S
Zn87 O91 2.035 . S
Zn87 O93 2.035 . S
Zn87 O94 2.028 . S
O88 C84 1.258 . S
O88 Zn89 2.035 . S
Zn89 O88 2.035 . S
Zn89 O90 2.028 . S
Zn89 O92 2.028 . S
Zn89 O95 2.035 . S
O90 Zn89 2.028 . S
O90 C96 1.247 . S
O91 Zn87 2.035 . S
O91 C96 1.258 1_556 S
O92 C85 1.247 1_554 S
O92 Zn89 2.028 . S
O93 C85 1.258 . S
O93 Zn87 2.035 . S
O94 Zn87 2.028 . S
O94 C97 1.247 1_556 S
O95 Zn89 2.035 . S
O95 C97 1.258 . S
C96 O90 1.247 . S
C96 O91 1.258 1_554 S
C97 O94 1.247 1_554 S
C97 O95 1.258 . S
C98 O100 1.247 1_554 S
C98 O102 1.258 . S
C99 O106 1.247 . S
C99 O107 1.258 . S
O100 C98 1.247 1_556 S
O100 Zn101 2.028 . S
Zn101 O100 2.028 . S
Zn101 O105 2.035 . S
Zn101 O107 2.035 . S
Zn101 O108 2.028 . S
O102 C98 1.258 . S
O102 Zn103 2.035 . S
Zn103 O102 2.035 . S
Zn103 O104 2.028 . S
Zn103 O106 2.028 1_554 S
Zn103 O109 2.035 . S
O104 Zn103 2.028 . S
O104 C110 1.247 1_554 S
O105 Zn101 2.035 . S
O105 C110 1.258 . S
O106 C99 1.247 . S
O106 Zn103 2.028 1_556 S
O107 C99 1.258 . S
O107 Zn101 2.035 . S
O108 Zn101 2.028 . S
O108 C111 1.247 . S
O109 Zn103 2.035 . S
O109 C111 1.258 1_554 S
C110 O104 1.247 1_556 S
C110 O105 1.258 . S
C111 O108 1.247 . S
C111 O109 1.258 1_556 S
C112 O114 1.247 . S
C112 O116 1.258 . S
C113 O120 1.247 . S
C113 O121 1.258 . S
O114 C112 1.247 . S
O114 Zn115 2.028 . S
Zn115 O114 2.028 . S
Zn115 O119 2.035 . S
Zn115 O121 2.035 . S
Zn115 O122 2.028 . S
O116 C112 1.258 . S
O116 Zn117 2.035 . S
Zn117 O116 2.035 . S
Zn117 O118 2.028 . S
Zn117 O120 2.028 . S
Zn117 O123 2.035 . S
O118 Zn117 2.028 . S
O118 C124 1.247 . S
O119 Zn115 2.035 . S
O119 C124 1.258 . S
O120 C113 1.247 . S
O120 Zn117 2.028 . S
O121 C113 1.258 . S
O121 Zn115 2.035 . S
O122 Zn115 2.028 . S
O122 C125 1.247 . S
O123 Zn117 2.035 . S
O123 C125 1.258 . S
C124 O118 1.247 . S
C124 O119 1.258 . S
C125 O122 1.247 . S
C125 O123 1.258 . S
C126 O128 1.247 . S
C126 O130 1.258 . S
C127 O134 1.247 . S
C127 O135 1.258 . S
O128 C126 1.247 . S
O128 Zn129 2.028 . S
Zn129 O128 2.028 . S
Zn129 O133 2.035 . S
Zn129 O135 2.035 . S
Zn129 O136 2.028 . S
O130 C126 1.258 . S
O130 Zn131 2.035 . S
Zn131 O130 2.035 . S
Zn131 O132 2.028 . S
Zn131 O134 2.028 . S
Zn131 O137 2.035 . S
O132 Zn131 2.028 . S
O132 C138 1.247 . S
O133 Zn129 2.035 . S
O133 C138 1.258 . S
O134 C127 1.247 . S
O134 Zn131 2.028 . S
O135 C127 1.258 . S
O135 Zn129 2.035 . S
O136 Zn129 2.028 . S
O136 C139 1.247 . S
O137 Zn131 2.035 . S
O137 C139 1.258 . S
C138 O132 1.247 . S
C138 O133 1.258 . S
C139 O136 1.247 . S
C139 O137 1.258 . S
C140 O142 1.247 . S
C140 O144 1.258 . S
C141 O148 1.247 . S
C141 O149 1.258 . S
O142 C140 1.247 . S
O142 Zn143 2.028 . S
Zn143 O142 2.028 . S
Zn143 O147 2.035 . S
Zn143 O149 2.035 . S
Zn143 O150 2.028 . S
O144 C140 1.258 . S
O144 Zn145 2.035 . S
Zn145 O144 2.035 . S
Zn145 O146 2.028 . S
Zn145 O148 2.028 . S
Zn145 O151 2.035 . S
O146 Zn145 2.028 . S
O146 C152 1.247 . S
O147 Zn143 2.035 . S
O147 C152 1.258 . S
O148 C141 1.247 . S
O148 Zn145 2.028 . S
O149 C141 1.258 . S
O149 Zn143 2.035 . S
O150 Zn143 2.028 . S
O150 C153 1.247 . S
O151 Zn145 2.035 . S
O151 C153 1.258 . S
C152 O146 1.247 . S
C152 O147 1.258 . S
C153 O150 1.247 . S
C153 O151 1.258 . S
C154 O156 1.247 . S
C154 O158 1.258 . S
C155 O162 1.247 . S
C155 O163 1.258 . S
O156 C154 1.247 . S
O156 Zn157 2.028 . S
Zn157 O156 2.028 . S
Zn157 O161 2.035 . S
Zn157 O163 2.035 . S
Zn157 O164 2.028 . S
O158 C154 1.258 . S
O158 Zn159 2.035 . S
Zn159 O158 2.035 . S
Zn159 O160 2.028 . S
Zn159 O162 2.028 . S
Zn159 O165 2.035 . S
O160 Zn159 2.028 . S
O160 C166 1.247 . S
O161 Zn157 2.035 . S
O161 C166 1.258 . S
O162 C155 1.247 . S
O162 Zn159 2.028 . S
O163 C155 1.258 . S
O163 Zn157 2.035 . S
O164 Zn157 2.028 . S
O164 C167 1.247 . S
O165 Zn159 2.035 . S
O165 C167 1.258 . S
C166 O160 1.247 . S
C166 O161 1.258 . S
C167 O164 1.247 . S
C167 O165 1.258 . S
C168 O170 1.247 . S
C168 O172 1.258 . S
C169 O176 1.247 . S
C169 O177 1.258 . S
O170 C168 1.247 . S
O170 Zn171 2.028 . S
Zn171 O170 2.028 . S
Zn171 O175 2.035 . S
Zn171 O177 2.035 . S
Zn171 O178 2.028 . S
O172 C168 1.258 . S
O172 Zn173 2.035 . S
Zn173 O172 2.035 . S
Zn173 O174 2.028 . S
Zn173 O176 2.028 . S
Zn173 O179 2.035 . S
O174 Zn173 2.028 . S
O174 C180 1.247 . S
O175 Zn171 2.035 . S
O175 C180 1.258 . S
O176 C169 1.247 . S
O176 Zn173 2.028 . S
O177 C169 1.258 . S
O177 Zn171 2.035 . S
O178 Zn171 2.028 . S
O178 C181 1.247 . S
O179 Zn173 2.035 . S
O179 C181 1.258 . S
C180 O174 1.247 . S
C180 O175 1.258 . S
C181 O178 1.247 . S
C181 O179 1.258 . S
C182 O184 1.247 . S
C182 O186 1.258 . S
C183 O190 1.247 . S
C183 O191 1.258 . S
O184 C182 1.247 . S
O184 Zn185 2.028 . S
Zn185 O184 2.028 . S
Zn185 O189 2.035 . S
Zn185 O191 2.035 . S
Zn185 O192 2.028 . S
O186 C182 1.258 . S
O186 Zn187 2.035 . S
Zn187 O186 2.035 . S
Zn187 O188 2.028 . S
Zn187 O190 2.028 . S
Zn187 O193 2.035 . S
O188 Zn187 2.028 . S
O188 C194 1.247 . S
O189 Zn185 2.035 . S
O189 C194 1.258 . S
O190 C183 1.247 . S
O190 Zn187 2.028 . S
O191 C183 1.258 . S
O191 Zn185 2.035 . S
O192 Zn185 2.028 . S
O192 C195 1.247 . S
O193 Zn187 2.035 . S
O193 C195 1.258 . S
C194 O188 1.247 . S
C194 O189 1.258 . S
C195 O192 1.247 . S
C195 O193 1.258 . S
C196 O198 1.247 . S
C196 O200 1.258 . S
C197 O204 1.247 . S
C197 O205 1.258 . S
O198 C196 1.247 . S
O198 Zn199 2.028 . S
Zn199 O198 2.028 . S
Zn199 O203 2.035 . S
Zn199 O205 2.035 . S
Zn199 O206 2.028 . S
O200 C196 1.258 . S
O200 Zn201 2.035 . S
Zn201 O200 2.035 . S
Zn201 O202 2.028 . S
Zn201 O204 2.028 . S
Zn201 O207 2.035 . S
O202 Zn201 2.028 . S
O202 C208 1.247 . S
O203 Zn199 2.035 . S
O203 C208 1.258 . S
O204 C197 1.247 . S
O204 Zn201 2.028 . S
O205 C197 1.258 . S
O205 Zn199 2.035 . S
O206 Zn199 2.028 . S
O206 C209 1.247 . S
O207 Zn201 2.035 . S
O207 C209 1.258 . S
C208 O202 1.247 . S
C208 O203 1.258 . S
C209 O206 1.247 . S
C209 O207 1.258 . S
C210 O212 1.247 . S
C210 O214 1.258 . S
C211 O218 1.247 . S
C211 O219 1.258 . S
O212 C210 1.247 . S
O212 Zn213 2.028 . S
Zn213 O212 2.028 . S
Zn213 O217 2.035 . S
Zn213 O219 2.035 . S
Zn213 O220 2.028 . S
O214 C210 1.258 . S
O214 Zn215 2.035 . S
Zn215 O214 2.035 . S
Zn215 O216 2.028 . S
Zn215 O218 2.028 . S
Zn215 O221 2.035 . S
O216 Zn215 2.028 . S
O216 C222 1.247 . S
O217 Zn213 2.035 . S
O217 C222 1.258 . S
O218 C211 1.247 . S
O218 Zn215 2.028 . S
O219 C211 1.258 . S
O219 Zn213 2.035 . S
O220 Zn213 2.028 . S
O220 C223 1.247 . S
O221 Zn215 2.035 . S
O221 C223 1.258 . S
C222 O216 1.247 . S
C222 O217 1.258 . S
C223 O220 1.247 . S
C223 O221 1.258 . S
C154 C1 1.568 1_565 S
C27 C124 1.569 1_455 S
C41 C126 1.568 1_565 S
C140 C55 1.569 1_455 S
C69 C70 1.568 . S
C83 C85 1.567 . S
C98 C96 1.567 . S
C56 C111 1.569 . S
C42 C113 1.568 . S
C139 C12 1.570 . S
C14 C153 1.568 . S
C167 C28 1.570 . S
C180 C182 1.567 1_565 S
C195 C197 1.567 1_655 S
C210 C208 1.567 1_565 S
C169 C223 1.567 1_655 S
C68 C0 1.469 . S
C26 C82 1.463 . S
C40 C97 1.466 . S
C110 C54 1.463 . S
C112 C181 1.467 . S
C194 C138 1.464 . S
C152 C209 1.467 . S
C222 C166 1.464 . S
C196 C13 1.833 1_556 S
C211 C15 1.838 1_554 S
C29 C168 1.833 1_554 S
C183 C43 1.838 1_554 S
C141 C57 1.827 . S
C155 C71 1.837 . S
C84 C125 1.832 . S
C127 C99 1.837 . S
