# Generated by pormake.
# Topology pcu, (6)-cn, num edge types: 1
# Building blocks:
#     Node 0, Type 0, BuildingBlock: BETFEN_clean_sbu_0, # of connection points: 6
#     Edge 1, Type (0, 0), BuildingBlock: EYOCIG_clean_linker_4, # of connection points: 2
#     Edge 2, Type (0, 0), BuildingBlock: EYOCIG_clean_linker_4, # of connection points: 2
#     Edge 3, Type (0, 0), BuildingBlock: EYOCIG_clean_linker_4, # of connection points: 2
# Relax obj value: 0.000
# Max RMSD: 0.000
# Mean RMSD: 0.000
data_MOF--net-pcu--node1-BETFEN_clean_sbu_0--edge1-EYOCIG_clean_linker_4
_symmetry_space_group_name_H-M    P1
_symmetry_Int_Tables_number       1
_symmetry_cell_setting            triclinic
loop_
_symmetry_equiv_pos_as_xyz
'x, y, z'
_cell_length_a     22.980341
_cell_length_b     12.160103
_cell_length_c     11.620086
_cell_angle_alpha  86.750069
_cell_angle_beta   96.494339
_cell_angle_gamma 121.50569
loop_
_atom_site_label
_atom_site_type_symbol
_atom_site_fract_x
_atom_site_fract_y
_atom_site_fract_z
_atom_type_partial_charge
Pr0 Pr 0.93269 0.91103 0.99443 0.0
Pr1 Pr 0.10703 0.04856 0.01827 0.0
C2 C 0.8064 0.85315 0.03208 0.0
C3 C 0.76028 0.90524 0.01508 0.0
C4 C 0.71424 0.87565 0.91449 0.0
C5 C 0.66216 0.90376 0.90877 0.0
C6 C 0.65559 0.96166 1.00336 0.0
C7 C 0.70407 -0.00023 0.09998 0.0
C8 C 0.75607 0.97185 0.10589 0.0
C9 C 0.98599 0.9618 0.77919 0.0
C10 C 0.0429 0.23609 0.99386 0.0
C11 C 0.23323 0.10688 0.97943 0.0
C12 C 0.27971 0.0556 0.99729 0.0
C13 C 0.32537 0.08536 0.09839 0.0
C14 C 0.37757 0.05752 0.10513 0.0
C15 C 0.38467 -0.0003 0.01112 0.0
C16 C 0.33661 0.96156 0.91383 0.0
C17 C 0.28448 -0.01075 0.90688 0.0
C18 C 0.05424 -0.00153 0.23371 0.0
C19 C 0.99662 0.72334 0.02015 0.0
O20 O 0.85951 0.90939 0.10972 0.0
O21 O 0.8186 0.81252 0.94078 0.0
O22 O 1.0186 -0.01125 0.87808 0.0
O23 O 0.92087 0.90468 0.78941 0.0
O24 O 0.09886 0.232 0.98559 0.0
O25 O 0.9811 0.13415 1.00437 0.0
O26 O 0.1797 0.04858 0.90283 0.0
O27 O 0.2214 0.14928 0.07001 0.0
O28 O 0.02127 0.97214 0.13504 0.0
O29 O 0.11926 0.05433 0.22306 0.0
O30 O 0.94068 0.7276 0.02809 0.0
O31 O 0.05842 0.82518 0.00922 0.0
H32 H 0.71618 0.82494 0.84273 0.0
H33 H 0.62514 0.87453 0.83301 0.0
H34 H 0.69974 0.04531 0.17338 0.0
H35 H 0.79072 -0.00349 0.18436 0.0
H36 H 0.32301 0.13584 0.16989 0.0
H37 H 0.41426 0.08677 0.18133 0.0
H38 H 0.34135 0.9161 0.84079 0.0
H39 H 0.25012 0.96453 0.82804 0.0
C40 C 0.0213 -0.02043 0.446 0.0
C41 C 0.02819 -0.01851 0.34424 0.0
C42 C 0.01975 -0.01773 0.56732 0.0
C43 C 1.01254 -0.02019 0.66899 0.0
C44 C 0.49466 -0.01705 0.00854 0.0
C45 C 0.44452 -0.00945 0.00965 0.0
C46 C 0.54552 0.97796 0.0068 0.0
C47 C 0.59587 0.97097 0.0061 0.0
C48 C 1.00723 0.52099 0.01269 0.0
C49 C 0.99272 0.60226 0.01818 0.0
C50 C 0.03206 0.43804 1.00274 0.0
C51 C 0.0467 0.35703 0.99666 0.0
loop_
_geom_bond_atom_site_label_1
_geom_bond_atom_site_label_2
_geom_bond_distance
_geom_bond_site_symmetry_2
_ccdc_geom_bond_type
Pr0 C2 2.880 . S
Pr0 O20 2.562 1_556 S
Pr0 O21 2.490 . S
Pr0 O22 2.695 1_655 S
Pr0 O23 2.512 . S
Pr0 O25 2.437 1_565 S
Pr0 O28 2.436 1_566 S
Pr0 O30 2.438 . S
Pr1 C11 2.880 . S
Pr1 O22 2.436 1_544 S
Pr1 O24 2.438 . S
Pr1 O26 2.562 1_554 S
Pr1 O27 2.490 . S
Pr1 O28 2.695 1_455 S
Pr1 O29 2.512 . S
Pr1 O31 2.437 1_545 S
C2 Pr0 2.880 . S
C2 C3 1.491 . S
C2 O20 1.254 1_556 S
C2 O21 1.225 . S
C3 C2 1.491 . S
C3 C4 1.392 . S
C3 C8 1.356 1_566 S
C4 C3 1.392 . S
C4 C5 1.368 . S
C4 H32 0.929 . S
C5 C4 1.368 . S
C5 C6 1.386 . S
C5 H33 0.929 . S
C6 C5 1.386 . S
C6 C7 1.373 1_566 S
C7 C6 1.373 1_544 S
C7 C8 1.409 . S
C7 H34 0.931 . S
C8 C3 1.356 1_544 S
C8 C7 1.409 . S
C8 H35 0.930 . S
C9 O22 1.270 1_655 S
C9 O23 1.248 . S
C10 O24 1.267 1_556 S
C10 O25 1.278 1_455 S
C11 Pr1 2.880 . S
C11 C12 1.491 . S
C11 O26 1.254 1_554 S
C11 O27 1.225 . S
C12 C11 1.491 . S
C12 C13 1.392 . S
C12 C17 1.356 1_544 S
C13 C12 1.392 . S
C13 C14 1.368 . S
C13 H36 0.929 . S
C14 C13 1.368 . S
C14 C15 1.386 . S
C14 H37 0.929 . S
C15 C14 1.386 . S
C15 C16 1.373 1_544 S
C16 C15 1.373 1_566 S
C16 C17 1.409 . S
C16 H38 0.931 . S
C17 C12 1.356 1_566 S
C17 C16 1.409 . S
C17 H39 0.930 . S
C18 O28 1.270 1_455 S
C18 O29 1.248 . S
C19 O30 1.267 1_554 S
C19 O31 1.278 1_655 S
O20 Pr0 2.562 1_554 S
O20 C2 1.254 1_554 S
O21 Pr0 2.490 . S
O21 C2 1.225 . S
O22 Pr0 2.695 1_455 S
O22 Pr1 2.436 1_566 S
O22 C9 1.270 1_455 S
O23 Pr0 2.512 . S
O23 C9 1.248 . S
O24 Pr1 2.438 . S
O24 C10 1.267 1_554 S
O25 Pr0 2.437 1_545 S
O25 C10 1.278 1_655 S
O26 Pr1 2.562 1_556 S
O26 C11 1.254 1_556 S
O27 Pr1 2.490 . S
O27 C11 1.225 . S
O28 Pr0 2.436 1_544 S
O28 Pr1 2.695 1_655 S
O28 C18 1.270 1_655 S
O29 Pr1 2.512 . S
O29 C18 1.248 . S
O30 Pr0 2.438 . S
O30 C19 1.267 1_556 S
O31 Pr1 2.437 1_565 S
O31 C19 1.278 1_455 S
H32 C4 0.929 . S
H33 C5 0.929 . S
H34 C7 0.931 . S
H35 C8 0.930 . S
H36 C13 0.929 . S
H37 C14 0.929 . S
H38 C16 0.931 . S
H39 C17 0.930 . S
C40 C41 1.170 . S
C40 C42 1.380 . S
C41 C40 1.170 . S
C42 C40 1.380 . S
C42 C43 1.170 . S
C43 C42 1.170 . S
C44 C45 1.170 . S
C44 C46 1.380 . S
C45 C44 1.170 . S
C46 C44 1.380 . S
C46 C47 1.170 . S
C47 C46 1.170 . S
C48 C49 1.170 . S
C48 C50 1.380 . S
C49 C48 1.170 . S
C50 C48 1.380 . S
C50 C51 1.170 . S
C51 C50 1.170 . S
C41 C18 1.435 . S
C43 C9 1.468 1_445 S
C45 C15 1.496 . S
C47 C6 1.500 1_544 S
C49 C19 1.485 . S
C51 C10 1.497 1_654 S
