# Generated by pormake.
# Topology bcu, (8)-cn, num edge types: 1
# Building blocks:
#     Node 0, Type 0, BuildingBlock: VETTIZ_charged_sbu_0, # of connection points: 8
#     Node 1, Type 0, BuildingBlock: VETTIZ_charged_sbu_0, # of connection points: 8
#     Edge 2, Type (0, 0), BuildingBlock: OJICUG_clean_linker_0, # of connection points: 2
#     Edge 3, Type (0, 0), BuildingBlock: OJICUG_clean_linker_0, # of connection points: 2
#     Edge 4, Type (0, 0), BuildingBlock: OJICUG_clean_linker_0, # of connection points: 2
#     Edge 5, Type (0, 0), BuildingBlock: OJICUG_clean_linker_0, # of connection points: 2
#     Edge 6, Type (0, 0), BuildingBlock: OJICUG_clean_linker_0, # of connection points: 2
#     Edge 7, Type (0, 0), BuildingBlock: OJICUG_clean_linker_0, # of connection points: 2
#     Edge 8, Type (0, 0), BuildingBlock: OJICUG_clean_linker_0, # of connection points: 2
#     Edge 9, Type (0, 0), BuildingBlock: OJICUG_clean_linker_0, # of connection points: 2
# Relax obj value: 0.000
# Max RMSD: 0.009
# Mean RMSD: 0.009
data_MOF--net-bcu--node1-VETTIZ_charged_sbu_0--edge1-OJICUG_clean_linker_0
_symmetry_space_group_name_H-M    P1
_symmetry_Int_Tables_number       1
_symmetry_cell_setting            triclinic
loop_
_symmetry_equiv_pos_as_xyz
'x, y, z'
_cell_length_a     13.674508
_cell_length_b     14.881633
_cell_length_c     15.83031
_cell_angle_alpha  92.361204
_cell_angle_beta   90.498872
_cell_angle_gamma 92.751977
loop_
_atom_site_label
_atom_site_type_symbol
_atom_site_fract_x
_atom_site_fract_y
_atom_site_fract_z
_atom_type_partial_charge
Fe0 Fe 0.13971 0.83044 0.95785 0.0
O1 O 0.13272 0.96129 0.98389 0.0
Fe2 Fe 0.0677 0.03609 0.88935 0.0
Fe3 Fe 1.06014 1.00929 0.08378 0.0
O4 O 0.1278 0.95935 0.97428 0.0
O5 O 0.99512 0.08409 -0.01076 0.0
O6 O 1.00004 0.08603 -0.00116 0.0
Fe7 Fe 0.98813 0.21494 0.01528 0.0
C8 C 0.95298 0.83436 0.06734 0.0
O9 O 0.22931 0.84188 0.06173 0.0
O10 O 0.13431 0.91736 0.15833 0.0
O11 O 0.10056 0.25264 0.93235 0.0
O12 O 0.18061 0.12754 0.91441 0.0
O13 O 0.15791 0.97783 0.79734 0.0
O14 O 0.24107 0.8727 0.87007 0.0
O15 O 0.17174 0.10479 0.11649 0.0
O16 O 0.08372 0.22677 0.11549 0.0
C17 C 0.23005 0.92467 0.80682 0.0
O18 O 0.89854 0.2035 0.9114 0.0
O19 O 0.99353 0.12802 0.81479 0.0
O20 O 1.02729 0.79274 0.04079 0.0
O21 O 0.94723 0.91784 0.05872 0.0
C22 C 0.20593 0.86533 0.13815 0.0
C23 C 0.15541 0.18492 0.14284 0.0
C24 C 0.89779 0.12071 0.16631 0.0
O25 O 0.96993 0.06755 0.17579 0.0
O26 O 0.88677 0.17268 0.10306 0.0
C27 C 0.17486 0.21102 0.90579 0.0
O28 O 0.9561 0.94059 0.85664 0.0
O29 O 1.04412 0.81861 0.85764 0.0
C30 C 0.92192 0.18005 0.83498 0.0
C31 C 0.97243 0.86046 0.83029 0.0
Fe32 Fe 0.57253 0.62523 0.46279 0.0
O33 O 0.49262 0.54556 0.53767 0.0
Fe34 Fe 0.77798 0.49868 0.42929 0.0
Fe35 Fe 0.34986 0.5467 0.54383 0.0
O36 O 0.63453 0.50944 0.4308 0.0
O37 O 0.63522 0.49982 0.43545 0.0
O38 O 0.49331 0.53594 0.54233 0.0
Fe39 Fe 0.55531 0.42015 0.51034 0.0
C40 C 0.43356 0.73825 0.57378 0.0
O41 O 0.47161 0.60918 0.36473 0.0
O42 O 0.33566 0.61982 0.43922 0.0
O43 O 0.63118 0.30963 0.4608 0.0
O44 O 0.74345 0.37589 0.37022 0.0
O45 O 0.76361 0.57609 0.3276 0.0
O46 O 0.66779 0.69064 0.3751 0.0
O47 O 0.31781 0.42847 0.47169 0.0
O48 O 0.45845 0.3943 0.41199 0.0
C49 C 0.72739 0.65403 0.32052 0.0
O50 O 0.65623 0.4362 0.6084 0.0
O51 O 0.79218 0.42556 0.5339 0.0
O52 O 0.49666 0.73575 0.51233 0.0
O53 O 0.38439 0.66949 0.60291 0.0
C54 C 0.38384 0.63354 0.37269 0.0
C55 C 0.36585 0.38736 0.41445 0.0
C56 C 0.40045 0.39135 0.65261 0.0
O57 O 0.36423 0.46929 0.64553 0.0
O58 O 0.46004 0.35474 0.59803 0.0
C59 C 0.69428 0.30714 0.39934 0.0
O60 O 0.81003 0.61691 0.50144 0.0
O61 O 0.66939 0.65108 0.56114 0.0
C62 C 0.744 0.41184 0.60044 0.0
C63 C 0.76199 0.65802 0.55868 0.0
C64 C 0.16171 0.28809 0.27078 0.0
C65 C 0.21114 0.22982 0.21512 0.0
H66 H 0.17063 0.38215 0.37662 0.0
C67 C 0.31157 0.21983 0.22823 0.0
H68 H 0.08382 0.29636 0.26345 0.0
C69 C 0.36195 0.27033 0.29352 0.0
C70 C 0.31247 0.33044 0.34771 0.0
H71 H 0.35151 0.17542 0.18667 0.0
H72 H 0.43982 0.26279 0.30118 0.0
C73 C 0.21139 0.33722 0.33621 0.0
C74 C 0.73236 0.15596 0.21735 0.0
C75 C 0.8283 0.13253 0.23598 0.0
H76 H 0.60944 0.22825 0.25974 0.0
C77 C 0.86233 0.14056 0.31996 0.0
H78 H 0.70404 0.14915 0.15314 0.0
C79 C 0.80728 0.18516 0.38129 0.0
C80 C 0.71793 0.22104 0.35895 0.0
H81 H 0.936 0.12291 0.33589 0.0
H82 H 0.84058 0.20235 0.44259 0.0
C83 C 0.67734 0.19987 0.27869 0.0
C84 C 0.82919 0.84017 0.18418 0.0
C85 C 0.88004 0.78954 0.12259 0.0
H86 H 0.7405 0.83767 0.2959 0.0
C87 C 0.86681 0.69582 0.11985 0.0
H88 H 0.83748 0.91296 0.18782 0.0
C89 C 0.80937 0.6533 0.18021 0.0
C90 C 0.76571 0.70309 0.2467 0.0
H91 H 0.90344 0.65507 0.0727 0.0
H92 H 0.80364 0.58037 0.17713 0.0
C93 C 0.773 0.79732 0.24607 0.0
C94 C 0.35 0.78356 0.18743 0.0
C95 C 0.25689 0.81708 0.20397 0.0
H96 H 0.46292 0.69841 0.22647 0.0
C97 C 0.20722 0.79059 0.27633 0.0
H98 H 0.39007 0.8027 0.1317 0.0
C99 C 0.24799 0.72937 0.32932 0.0
C100 C 0.34007 0.69375 0.31183 0.0
H101 H 0.1349 0.81378 0.28997 0.0
H102 H 0.20652 0.7098 0.38414 0.0
C103 C 0.39133 0.7228 0.24092 0.0
C104 C 0.39548 0.88942 0.75577 0.0
C105 C 0.29954 0.91284 0.73715 0.0
H106 H 0.5184 0.81713 0.71338 0.0
C107 C 0.26551 0.90482 0.65317 0.0
H108 H 0.4238 0.89623 0.81999 0.0
C109 C 0.32056 0.86022 0.59184 0.0
C110 C 0.40991 0.82434 0.61418 0.0
H111 H 0.19184 0.92248 0.63724 0.0
H112 H 0.28726 0.84303 0.53053 0.0
C113 C 0.4505 0.84551 0.69444 0.0
C114 C 0.35485 0.24807 0.72706 0.0
C115 C 0.36212 0.3423 0.72642 0.0
H116 H 0.29038 0.13243 0.7853 0.0
C117 C 0.31845 0.39208 0.79292 0.0
H118 H 0.38735 0.20772 0.67723 0.0
C119 C 0.26103 0.34956 0.85329 0.0
C120 C 0.24781 0.25583 0.85055 0.0
H121 H 0.32419 0.46501 0.79599 0.0
H122 H 0.2244 0.3903 0.90043 0.0
C123 C 0.29866 0.20521 0.78896 0.0
C124 C 0.92062 0.25479 0.6968 0.0
C125 C 0.87094 0.2283 0.76916 0.0
H126 H 0.92132 0.33558 0.58899 0.0
C127 C 0.77783 0.26182 0.7857 0.0
H128 H 0.99294 0.23159 0.68317 0.0
C129 C 0.7365 0.32257 0.73221 0.0
C130 C 0.78777 0.35162 0.6613 0.0
H131 H 0.73776 0.24268 0.84143 0.0
H132 H 0.66492 0.34697 0.74665 0.0
C133 C 0.87985 0.31601 0.64381 0.0
C134 C 0.91645 0.70815 0.63692 0.0
C135 C 0.81537 0.71494 0.62542 0.0
H136 H 1.04402 0.749 0.70969 0.0
C137 C 0.76589 0.77506 0.67961 0.0
H138 H 0.9572 0.66322 0.59652 0.0
C139 C 0.81628 0.82556 0.7449 0.0
C140 C 0.9167 0.81555 0.75801 0.0
H141 H 0.68803 0.78261 0.67194 0.0
H142 H 0.77633 0.86997 0.78645 0.0
C143 C 0.96613 0.75728 0.70236 0.0
loop_
_geom_bond_atom_site_label_1
_geom_bond_atom_site_label_2
_geom_bond_distance
_geom_bond_site_symmetry_2
_ccdc_geom_bond_type
Fe0 O1 1.886 . S
Fe0 O4 1.715 1_554 S
Fe0 O9 2.077 . S
Fe0 O14 1.935 1_554 S
Fe0 O20 2.077 1_455 S
Fe0 O29 1.935 1_454 S
O1 Fe0 1.886 . S
O1 Fe3 1.715 1_565 S
Fe2 O4 1.886 . S
Fe2 O5 1.715 1_565 S
Fe2 O12 1.935 1_565 S
Fe2 O13 2.077 . S
Fe2 O19 1.935 1_465 S
Fe2 O28 2.077 1_455 S
Fe3 O1 1.715 1_545 S
Fe3 O6 1.886 . S
Fe3 O10 1.935 1_545 S
Fe3 O15 2.077 . S
Fe3 O21 1.935 1_445 S
Fe3 O25 2.077 1_455 S
O4 Fe0 1.715 1_556 S
O4 Fe2 1.886 . S
O5 Fe2 1.715 1_545 S
O5 Fe7 1.886 . S
O6 Fe3 1.886 . S
O6 Fe7 1.715 1_554 S
Fe7 O5 1.886 . S
Fe7 O6 1.715 1_556 S
Fe7 O11 2.077 . S
Fe7 O16 1.935 1_556 S
Fe7 O18 2.077 1_455 S
Fe7 O26 1.935 1_456 S
C8 O20 1.381 . S
C8 O21 1.421 . S
O9 Fe0 2.077 . S
O9 C22 1.381 . S
O10 Fe3 1.935 1_565 S
O10 C22 1.421 . S
O11 Fe7 2.077 . S
O11 C27 1.381 . S
O12 Fe2 1.935 1_545 S
O12 C27 1.421 . S
O13 Fe2 2.077 . S
O13 C17 1.381 . S
O14 Fe0 1.935 1_556 S
O14 C17 1.421 . S
O15 Fe3 2.077 . S
O15 C23 1.381 . S
O16 Fe7 1.935 1_554 S
O16 C23 1.421 . S
C17 O13 1.381 . S
C17 O14 1.421 . S
O18 Fe7 2.077 1_655 S
O18 C30 1.381 . S
O19 Fe2 1.935 1_645 S
O19 C30 1.421 . S
O20 Fe0 2.077 1_655 S
O20 C8 1.381 . S
O21 Fe3 1.935 1_665 S
O21 C8 1.421 . S
C22 O9 1.381 . S
C22 O10 1.421 . S
C23 O15 1.381 . S
C23 O16 1.421 . S
C24 O25 1.381 . S
C24 O26 1.421 . S
O25 Fe3 2.077 1_655 S
O25 C24 1.381 . S
O26 Fe7 1.935 1_654 S
O26 C24 1.421 . S
C27 O11 1.381 . S
C27 O12 1.421 . S
O28 Fe2 2.077 1_655 S
O28 C31 1.381 . S
O29 Fe0 1.935 1_656 S
O29 C31 1.421 . S
C30 O18 1.381 . S
C30 O19 1.421 . S
C31 O28 1.381 . S
C31 O29 1.421 . S
Fe32 O33 1.886 . S
Fe32 O36 1.715 . S
Fe32 O41 2.077 . S
Fe32 O46 1.935 . S
Fe32 O52 2.077 . S
Fe32 O61 1.935 . S
O33 Fe32 1.886 . S
O33 Fe35 1.715 . S
Fe34 O36 1.886 . S
Fe34 O37 1.715 . S
Fe34 O44 1.935 . S
Fe34 O45 2.077 . S
Fe34 O51 1.935 . S
Fe34 O60 2.077 . S
Fe35 O33 1.715 . S
Fe35 O38 1.886 . S
Fe35 O42 1.935 . S
Fe35 O47 2.077 . S
Fe35 O53 1.935 . S
Fe35 O57 2.077 . S
O36 Fe32 1.715 . S
O36 Fe34 1.886 . S
O37 Fe34 1.715 . S
O37 Fe39 1.886 . S
O38 Fe35 1.886 . S
O38 Fe39 1.715 . S
Fe39 O37 1.886 . S
Fe39 O38 1.715 . S
Fe39 O43 2.077 . S
Fe39 O48 1.935 . S
Fe39 O50 2.077 . S
Fe39 O58 1.935 . S
C40 O52 1.381 . S
C40 O53 1.421 . S
O41 Fe32 2.077 . S
O41 C54 1.381 . S
O42 Fe35 1.935 . S
O42 C54 1.421 . S
O43 Fe39 2.077 . S
O43 C59 1.381 . S
O44 Fe34 1.935 . S
O44 C59 1.421 . S
O45 Fe34 2.077 . S
O45 C49 1.381 . S
O46 Fe32 1.935 . S
O46 C49 1.421 . S
O47 Fe35 2.077 . S
O47 C55 1.381 . S
O48 Fe39 1.935 . S
O48 C55 1.421 . S
C49 O45 1.381 . S
C49 O46 1.421 . S
O50 Fe39 2.077 . S
O50 C62 1.381 . S
O51 Fe34 1.935 . S
O51 C62 1.421 . S
O52 Fe32 2.077 . S
O52 C40 1.381 . S
O53 Fe35 1.935 . S
O53 C40 1.421 . S
C54 O41 1.381 . S
C54 O42 1.421 . S
C55 O47 1.381 . S
C55 O48 1.421 . S
C56 O57 1.381 . S
C56 O58 1.421 . S
O57 Fe35 2.077 . S
O57 C56 1.381 . S
O58 Fe39 1.935 . S
O58 C56 1.421 . S
C59 O43 1.381 . S
C59 O44 1.421 . S
O60 Fe34 2.077 . S
O60 C63 1.381 . S
O61 Fe32 1.935 . S
O61 C63 1.421 . S
C62 O50 1.381 . S
C62 O51 1.421 . S
C63 O60 1.381 . S
C63 O61 1.421 . S
C64 C65 1.387 . S
C64 H68 0.950 . S
C64 C73 1.390 . S
C65 C64 1.387 . S
C65 C67 1.387 . S
H66 C73 0.950 . S
C67 C65 1.387 . S
C67 C69 1.390 . S
C67 H71 0.950 . S
H68 C64 0.950 . S
C69 C67 1.390 . S
C69 C70 1.387 . S
C69 H72 0.950 . S
C70 C69 1.387 . S
C70 C73 1.387 . S
H71 C67 0.950 . S
H72 C69 0.950 . S
C73 C64 1.390 . S
C73 H66 0.950 . S
C73 C70 1.387 . S
C74 C75 1.387 . S
C74 H78 0.950 . S
C74 C83 1.390 . S
C75 C74 1.387 . S
C75 C77 1.387 . S
H76 C83 0.950 . S
C77 C75 1.387 . S
C77 C79 1.390 . S
C77 H81 0.950 . S
H78 C74 0.950 . S
C79 C77 1.390 . S
C79 C80 1.387 . S
C79 H82 0.950 . S
C80 C79 1.387 . S
C80 C83 1.387 . S
H81 C77 0.950 . S
H82 C79 0.950 . S
C83 C74 1.390 . S
C83 H76 0.950 . S
C83 C80 1.387 . S
C84 C85 1.387 . S
C84 H88 0.950 . S
C84 C93 1.390 . S
C85 C84 1.387 . S
C85 C87 1.387 . S
H86 C93 0.950 . S
C87 C85 1.387 . S
C87 C89 1.390 . S
C87 H91 0.950 . S
H88 C84 0.950 . S
C89 C87 1.390 . S
C89 C90 1.387 . S
C89 H92 0.950 . S
C90 C89 1.387 . S
C90 C93 1.387 . S
H91 C87 0.950 . S
H92 C89 0.950 . S
C93 C84 1.390 . S
C93 H86 0.950 . S
C93 C90 1.387 . S
C94 C95 1.387 . S
C94 H98 0.950 . S
C94 C103 1.390 . S
C95 C94 1.387 . S
C95 C97 1.387 . S
H96 C103 0.950 . S
C97 C95 1.387 . S
C97 C99 1.390 . S
C97 H101 0.950 . S
H98 C94 0.950 . S
C99 C97 1.390 . S
C99 C100 1.387 . S
C99 H102 0.950 . S
C100 C99 1.387 . S
C100 C103 1.387 . S
H101 C97 0.950 . S
H102 C99 0.950 . S
C103 C94 1.390 . S
C103 H96 0.950 . S
C103 C100 1.387 . S
C104 C105 1.387 . S
C104 H108 0.950 . S
C104 C113 1.390 . S
C105 C104 1.387 . S
C105 C107 1.387 . S
H106 C113 0.950 . S
C107 C105 1.387 . S
C107 C109 1.390 . S
C107 H111 0.950 . S
H108 C104 0.950 . S
C109 C107 1.390 . S
C109 C110 1.387 . S
C109 H112 0.950 . S
C110 C109 1.387 . S
C110 C113 1.387 . S
H111 C107 0.950 . S
H112 C109 0.950 . S
C113 C104 1.390 . S
C113 H106 0.950 . S
C113 C110 1.387 . S
C114 C115 1.387 . S
C114 H118 0.950 . S
C114 C123 1.390 . S
C115 C114 1.387 . S
C115 C117 1.387 . S
H116 C123 0.950 . S
C117 C115 1.387 . S
C117 C119 1.390 . S
C117 H121 0.950 . S
H118 C114 0.950 . S
C119 C117 1.390 . S
C119 C120 1.387 . S
C119 H122 0.950 . S
C120 C119 1.387 . S
C120 C123 1.387 . S
H121 C117 0.950 . S
H122 C119 0.950 . S
C123 C114 1.390 . S
C123 H116 0.950 . S
C123 C120 1.387 . S
C124 C125 1.387 . S
C124 H128 0.950 . S
C124 C133 1.390 . S
C125 C124 1.387 . S
C125 C127 1.387 . S
H126 C133 0.950 . S
C127 C125 1.387 . S
C127 C129 1.390 . S
C127 H131 0.950 . S
H128 C124 0.950 . S
C129 C127 1.390 . S
C129 C130 1.387 . S
C129 H132 0.950 . S
C130 C129 1.387 . S
C130 C133 1.387 . S
H131 C127 0.950 . S
H132 C129 0.950 . S
C133 C124 1.390 . S
C133 H126 0.950 . S
C133 C130 1.387 . S
C134 C135 1.387 . S
C134 H138 0.950 . S
C134 C143 1.390 . S
C135 C134 1.387 . S
C135 C137 1.387 . S
H136 C143 0.950 . S
C137 C135 1.387 . S
C137 C139 1.390 . S
C137 H141 0.950 . S
H138 C134 0.950 . S
C139 C137 1.390 . S
C139 C140 1.387 . S
C139 H142 0.950 . S
C140 C139 1.387 . S
C140 C143 1.387 . S
H141 C137 0.950 . S
H142 C139 0.950 . S
C143 C134 1.390 . S
C143 H136 0.950 . S
C143 C140 1.387 . S
C65 C23 1.451 . S
C70 C55 1.448 . S
C75 C24 1.450 . S
C80 C59 1.452 . S
C85 C8 1.450 . S
C90 C49 1.453 . S
C95 C22 1.453 . S
C100 C54 1.450 . S
C105 C17 1.453 . S
C110 C40 1.452 . S
C115 C56 1.450 . S
C120 C27 1.452 . S
C125 C30 1.451 . S
C130 C62 1.454 . S
C135 C63 1.452 . S
C140 C31 1.456 . S
