# Generated by pormake.
# Topology wni, (7)-cn, num edge types: 1
# Building blocks:
#     Node 0, Type 0, BuildingBlock: NUHQUE_clean_sbu_2, # of connection points: 7
#     Node 1, Type 0, BuildingBlock: NUHQUE_clean_sbu_2, # of connection points: 7
#     Node 2, Type 0, BuildingBlock: NUHQUE_clean_sbu_2, # of connection points: 7
#     Node 3, Type 0, BuildingBlock: NUHQUE_clean_sbu_2, # of connection points: 7
#     Node 4, Type 0, BuildingBlock: NUHQUE_clean_sbu_2, # of connection points: 7
#     Node 5, Type 0, BuildingBlock: NUHQUE_clean_sbu_2, # of connection points: 7
#     Edge 6, Type (0, 0), None
#     Edge 7, Type (0, 0), None
#     Edge 8, Type (0, 0), None
#     Edge 9, Type (0, 0), None
#     Edge 10, Type (0, 0), None
#     Edge 11, Type (0, 0), None
#     Edge 12, Type (0, 0), None
#     Edge 13, Type (0, 0), None
#     Edge 14, Type (0, 0), None
#     Edge 15, Type (0, 0), None
#     Edge 16, Type (0, 0), None
#     Edge 17, Type (0, 0), None
#     Edge 18, Type (0, 0), None
#     Edge 19, Type (0, 0), None
#     Edge 20, Type (0, 0), None
#     Edge 21, Type (0, 0), None
#     Edge 22, Type (0, 0), None
#     Edge 23, Type (0, 0), None
#     Edge 24, Type (0, 0), None
#     Edge 25, Type (0, 0), None
#     Edge 26, Type (0, 0), None
# Relax obj value: 0.347
# Max RMSD: 0.316
# Mean RMSD: 0.316
data_MOF--net-wni--node1-NUHQUE_clean_sbu_2--edge1-none
_symmetry_space_group_name_H-M    P1
_symmetry_Int_Tables_number       1
_symmetry_cell_setting            triclinic
loop_
_symmetry_equiv_pos_as_xyz
'x, y, z'
_cell_length_a     18.663679
_cell_length_b     18.663642
_cell_length_c     14.821334
_cell_angle_alpha  90.000479
_cell_angle_beta   89.998507
_cell_angle_gamma 120.00061
loop_
_atom_site_label
_atom_site_type_symbol
_atom_site_fract_x
_atom_site_fract_y
_atom_site_fract_z
_atom_type_partial_charge
O0 O 0.50583 0.65755 0.07189 0.0
Tb1 Tb 0.42221 0.55003 0.15156 0.0
Eu2 Eu 0.23712 0.40211 0.20631 0.0
C3 C 0.47946 0.68178 1.00264 0.0
O4 O 0.401 0.63995 0.9799 0.0
C5 C 0.3551 0.37207 0.08432 0.0
O6 O 0.11944 0.31519 0.28487 0.0
C7 C 0.1958 0.4523 1.06303 0.0
C8 C 0.11423 0.31197 0.37399 0.0
O9 O 0.18154 0.35413 0.42239 0.0
C10 C 0.31329 0.58392 0.28247 0.0
C11 C 0.15742 0.50251 1.04736 0.0
C12 C 0.14534 0.51964 0.95942 0.0
C13 C 0.09201 0.55041 0.94152 0.0
C14 C 1.05644 0.57088 1.01335 0.0
C15 C 1.07287 0.55809 0.1028 0.0
C16 C 0.12408 0.5245 0.11917 0.0
O17 O 0.37829 0.44739 1.05618 0.0
O18 O 0.31482 0.34596 0.16167 0.0
O19 O 0.53957 0.57276 0.20546 0.0
O20 O 0.43075 0.50269 0.28406 0.0
C21 C 0.51063 0.53406 0.28133 0.0
O22 O 0.27844 0.50581 0.30774 0.0
O23 O 0.35809 0.61026 0.20847 0.0
O24 O 0.14819 0.37936 0.09966 0.0
O25 O 0.26932 0.49202 0.09885 0.0
H26 H 0.16904 0.49927 0.90411 0.0
H27 H 1.01059 0.58893 0.99953 0.0
H28 H 0.13345 0.50991 0.18747 0.0
O29 O 0.46437 0.87267 0.73856 0.0
Tb30 Tb 0.57189 0.89657 0.81822 0.0
Eu31 Eu 0.71981 0.8594 0.87297 0.0
C32 C 0.44014 0.82207 0.6693 0.0
O33 O 0.48197 0.78544 0.64656 0.0
C34 C 0.74985 1.00742 0.75098 0.0
O35 O 0.80673 0.82864 0.95153 0.0
C36 C 0.66963 0.76789 0.7297 0.0
C37 C 0.80995 0.82665 1.04066 0.0
O38 O 0.76779 0.8518 0.08906 0.0
C39 C 0.538 0.75376 0.94914 0.0
C40 C 0.61941 0.67929 0.71403 0.0
C41 C 0.60228 0.65008 0.62609 0.0
C42 C 0.57151 0.56598 0.60819 0.0
C43 C 0.55104 0.50994 0.68002 0.0
C44 C 0.56384 0.53916 0.76947 0.0
C45 C 0.59742 0.62396 0.78584 0.0
O46 O 0.67453 0.95528 0.72284 0.0
O47 O 0.77596 0.99324 0.82833 0.0
O48 O 0.54916 0.9912 0.87212 0.0
O49 O 0.61923 0.95246 0.95072 0.0
C50 C 0.58786 1.00096 0.94799 0.0
O51 O 0.61611 0.79702 0.97441 0.0
O52 O 0.51166 0.77222 0.87513 0.0
O53 O 0.74256 0.79322 0.76633 0.0
O54 O 0.6299 0.80169 0.76552 0.0
H55 H 0.62264 0.69415 0.57078 0.0
H56 H 0.533 0.44605 0.6662 0.0
H57 H 0.61202 0.64793 0.85414 0.0
O58 O 0.24925 0.6161 0.40522 0.0
Tb59 Tb 0.22534 0.69971 0.48489 0.0
Eu60 Eu 0.26252 0.88481 0.53964 0.0
C61 C 0.29984 0.64246 0.33597 0.0
O62 O 0.33648 0.72092 0.31323 0.0
C63 C 0.1145 0.76683 0.41765 0.0
O64 O 0.29328 1.00248 0.61821 0.0
C65 C 0.35403 0.92613 0.39637 0.0
C66 C 0.29527 1.00769 0.70733 0.0
O67 O 0.27012 0.94037 0.75573 0.0
C68 C 0.36815 0.80863 0.61581 0.0
C69 C 0.44263 0.9645 0.38069 0.0
C70 C 0.47184 0.97658 0.29276 0.0
C71 C 0.55594 1.02991 0.27486 0.0
C72 C 0.61198 0.06549 0.34668 0.0
C73 C 0.58276 0.04906 0.43613 0.0
C74 C 0.49796 0.99785 0.4525 0.0
O75 O 0.16664 0.74364 0.38951 0.0
O76 O 0.12868 0.80711 0.49501 0.0
O77 O 0.13072 0.58235 0.53879 0.0
O78 O 0.16946 0.69117 0.61739 0.0
C79 C 0.12096 0.6113 0.61466 0.0
O80 O 0.3249 0.84348 0.64108 0.0
O81 O 0.34969 0.76383 0.5418 0.0
O82 O 0.32871 0.97374 0.433 0.0
O83 O 0.32023 0.8526 0.43219 0.0
H84 H 0.42777 0.95288 0.23745 0.0
H85 H 0.67587 0.11134 0.33286 0.0
H86 H 0.47399 0.98848 0.5208 0.0
O87 O 0.68193 0.48143 1.05478 0.0
Tb88 Tb 0.57442 0.39782 0.9751 0.0
Eu89 Eu 0.42646 0.21275 0.92029 0.0
C90 C 0.70612 0.45509 0.12409 0.0
O91 O 0.66425 0.37664 0.14688 0.0
C92 C 0.39644 0.33076 1.04229 0.0
O93 O 0.33951 0.09511 0.84168 0.0
C94 C 0.47657 0.17136 0.06357 0.0
C95 C 0.33639 0.08991 0.75256 0.0
O96 O 0.37867 0.15721 0.70417 0.0
C97 C 0.6083 0.28887 0.84424 0.0
C98 C 0.52682 0.13302 0.07924 0.0
C99 C 0.54396 0.12095 0.16717 0.0
C100 C 0.57481 0.06769 0.18505 0.0
C101 C 0.59532 1.03213 0.11324 0.0
C102 C 0.58252 1.04857 1.02379 0.0
C103 C 0.54887 0.09973 1.00742 0.0
O104 O 0.47177 0.35398 0.07045 0.0
O105 O 0.37033 0.29046 0.96494 0.0
O106 O 0.59728 0.5152 0.92113 0.0
O107 O 0.5271 0.40635 0.84258 0.0
C108 C 0.55861 0.48624 0.84525 0.0
O109 O 0.53021 0.25408 0.81891 0.0
O110 O 0.63461 0.33363 0.91827 0.0
O111 O 0.40367 0.12374 1.02685 0.0
O112 O 0.51628 0.24492 1.02783 0.0
H113 H 0.52355 0.14461 0.22249 0.0
H114 H 0.61342 0.98633 0.12706 0.0
H115 H 0.53429 0.1091 0.93912 0.0
O116 O 0.64049 0.22488 0.72144 0.0
Tb117 Tb 0.7241 0.20098 0.64176 0.0
Eu118 Eu 0.90917 0.23809 0.58695 0.0
C119 C 0.66684 0.27541 0.79076 0.0
O120 O 0.74529 0.31199 0.81355 0.0
C121 C 0.79116 0.09007 0.70895 0.0
O122 O 1.02681 0.26879 0.50835 0.0
C123 C 0.95056 0.3296 0.73023 0.0
C124 C 1.03201 0.27087 0.41922 0.0
O125 O 0.96471 0.24585 0.37083 0.0
C126 C 0.83305 0.34382 0.5109 0.0
C127 C 0.9889 0.41819 0.7459 0.0
C128 C 1.00097 0.44739 0.83384 0.0
C129 C 1.05423 0.53151 0.85172 0.0
C130 C 0.08979 0.58758 0.77991 0.0
C131 C 0.07335 0.55834 0.69046 0.0
C132 C 1.02219 0.47353 0.67409 0.0
O133 O 0.76794 0.14218 0.73711 0.0
O134 O 0.83146 0.10425 0.6316 0.0
O135 O 0.60673 0.10647 0.58779 0.0
O136 O 0.71557 0.14514 0.50924 0.0
C137 C 0.63568 0.09676 0.51191 0.0
O138 O 0.86784 0.30052 0.48558 0.0
O139 O 0.78829 0.32537 0.58494 0.0
O140 O 0.99817 0.30432 0.69352 0.0
O141 O 0.877 0.29575 0.69449 0.0
H142 H 0.97731 0.40332 0.88916 0.0
H143 H 0.13559 0.65148 0.79373 0.0
H144 H 1.01281 0.44957 0.60579 0.0
O145 O 0.89704 0.44 0.38811 0.0
Tb146 Tb 0.92094 0.54751 0.30843 0.0
Eu147 Eu 0.88383 0.69547 0.25362 0.0
C148 C 0.84651 0.41581 0.45742 0.0
O149 O 0.80993 0.45768 0.48022 0.0
C150 C 1.03185 0.72549 0.37562 0.0
O151 O 0.85313 0.78241 0.17501 0.0
C152 C 0.79232 0.64536 0.39689 0.0
C153 C 0.85104 0.78553 0.08588 0.0
O154 O 0.87606 0.74325 1.03749 0.0
C155 C 0.77812 0.51363 0.17756 0.0
C156 C 0.70373 0.5951 0.41257 0.0
C157 C 0.67452 0.57796 0.5005 0.0
C158 C 0.59041 0.54711 0.51838 0.0
C159 C 0.53434 0.5266 0.44658 0.0
C160 C 0.56358 0.5394 0.35712 0.0
C161 C 0.64839 0.57305 0.34075 0.0
O162 O 0.97974 0.65016 0.40378 0.0
O163 O 1.01767 0.7516 0.29827 0.0
O164 O 1.01546 0.52465 0.25446 0.0
O165 O 0.97679 0.59483 0.17591 0.0
C166 C 1.02517 0.56332 0.17858 0.0
O167 O 0.82141 0.59172 0.15224 0.0
O168 O 0.79656 0.48732 0.2516 0.0
O169 O 0.81761 0.71825 0.36018 0.0
O170 O 0.82617 0.60564 0.36116 0.0
H171 H 0.71859 0.59837 0.55582 0.0
H172 H 0.47044 0.5085 0.4604 0.0
H173 H 0.67235 0.58764 0.27245 0.0
loop_
_geom_bond_atom_site_label_1
_geom_bond_atom_site_label_2
_geom_bond_distance
_geom_bond_site_symmetry_2
_ccdc_geom_bond_type
O0 Tb1 2.292 1_556 S
O0 C3 1.255 . S
Tb1 O0 2.292 1_554 S
Tb1 O17 2.326 . S
Tb1 O19 2.500 . S
Tb1 O20 2.473 . S
Tb1 O23 2.324 . S
Eu2 O6 2.292 . S
Eu2 C7 2.852 . S
Eu2 O18 2.324 . S
Eu2 O22 2.326 . S
Eu2 O24 2.500 . S
Eu2 O25 2.473 . S
C3 O0 1.255 . S
C3 O4 1.247 . S
O4 C3 1.247 . S
C5 O17 1.242 . S
C5 O18 1.258 . S
O6 Eu2 2.292 . S
O6 C8 1.255 . S
C7 Eu2 2.852 . S
C7 C11 1.503 . S
C7 O24 1.273 . S
C7 O25 1.257 . S
C8 O6 1.255 . S
C8 O9 1.247 . S
O9 C8 1.247 . S
C10 O22 1.242 . S
C10 O23 1.258 . S
C11 C7 1.503 . S
C11 C12 1.379 1_554 S
C11 C16 1.392 1_455 S
C12 C11 1.379 1_556 S
C12 C13 1.404 1_455 S
C12 H26 0.929 . S
C13 C12 1.404 1_655 S
C13 C14 1.389 . S
C14 C13 1.389 . S
C14 C15 1.399 . S
C14 H27 0.931 . S
C15 C14 1.399 . S
C15 C16 1.390 1_556 S
C16 C11 1.392 1_655 S
C16 C15 1.390 1_554 S
C16 H28 0.929 . S
O17 Tb1 2.326 . S
O17 C5 1.242 . S
O18 Eu2 2.324 . S
O18 C5 1.258 . S
O19 Tb1 2.500 . S
O19 C21 1.273 . S
O20 Tb1 2.473 . S
O20 C21 1.257 . S
C21 O19 1.273 . S
C21 O20 1.257 . S
O22 Eu2 2.326 . S
O22 C10 1.242 . S
O23 Tb1 2.324 . S
O23 C10 1.258 . S
O24 Eu2 2.500 . S
O24 C7 1.273 . S
O25 Eu2 2.473 . S
O25 C7 1.257 . S
H26 C12 0.929 . S
H27 C14 0.931 . S
H28 C16 0.929 . S
O29 Tb30 2.292 . S
O29 C32 1.255 . S
Tb30 O29 2.292 . S
Tb30 O46 2.326 . S
Tb30 O48 2.500 . S
Tb30 O49 2.473 . S
Tb30 O52 2.324 . S
Eu31 O35 2.292 . S
Eu31 C36 2.852 . S
Eu31 O47 2.324 . S
Eu31 O51 2.326 . S
Eu31 O53 2.500 . S
Eu31 O54 2.473 . S
C32 O29 1.255 . S
C32 O33 1.247 . S
O33 C32 1.247 . S
C34 O46 1.242 . S
C34 O47 1.258 . S
O35 Eu31 2.292 . S
O35 C37 1.255 1_556 S
C36 Eu31 2.852 . S
C36 C40 1.503 . S
C36 O53 1.273 . S
C36 O54 1.257 . S
C37 O35 1.255 1_554 S
C37 O38 1.247 . S
O38 C37 1.247 . S
C39 O51 1.242 . S
C39 O52 1.258 . S
C40 C36 1.503 . S
C40 C41 1.379 . S
C40 C45 1.392 . S
C41 C40 1.379 . S
C41 C42 1.404 . S
C41 H55 0.929 . S
C42 C41 1.404 . S
C42 C43 1.389 . S
C43 C42 1.389 . S
C43 C44 1.399 . S
C43 H56 0.931 . S
C44 C43 1.399 . S
C44 C45 1.390 . S
C45 C40 1.392 . S
C45 C44 1.390 . S
C45 H57 0.929 . S
O46 Tb30 2.326 . S
O46 C34 1.242 . S
O47 Eu31 2.324 . S
O47 C34 1.258 . S
O48 Tb30 2.500 . S
O48 C50 1.273 . S
O49 Tb30 2.473 . S
O49 C50 1.257 . S
C50 O48 1.273 . S
C50 O49 1.257 . S
O51 Eu31 2.326 . S
O51 C39 1.242 . S
O52 Tb30 2.324 . S
O52 C39 1.258 . S
O53 Eu31 2.500 . S
O53 C36 1.273 . S
O54 Eu31 2.473 . S
O54 C36 1.257 . S
H55 C41 0.929 . S
H56 C43 0.931 . S
H57 C45 0.929 . S
O58 Tb59 2.292 . S
O58 C61 1.255 . S
Tb59 O58 2.292 . S
Tb59 O75 2.326 . S
Tb59 O77 2.500 . S
Tb59 O78 2.473 . S
Tb59 O81 2.324 . S
Eu60 O64 2.292 . S
Eu60 C65 2.852 . S
Eu60 O76 2.324 . S
Eu60 O80 2.326 . S
Eu60 O82 2.500 . S
Eu60 O83 2.473 . S
C61 O58 1.255 . S
C61 O62 1.247 . S
O62 C61 1.247 . S
C63 O75 1.242 . S
C63 O76 1.258 . S
O64 Eu60 2.292 . S
O64 C66 1.255 . S
C65 Eu60 2.852 . S
C65 C69 1.503 . S
C65 O82 1.273 . S
C65 O83 1.257 . S
C66 O64 1.255 . S
C66 O67 1.247 . S
O67 C66 1.247 . S
C68 O80 1.242 . S
C68 O81 1.258 . S
C69 C65 1.503 . S
C69 C70 1.379 . S
C69 C74 1.392 1_565 S
C70 C69 1.379 . S
C70 C71 1.404 1_565 S
C70 H84 0.929 . S
C71 C70 1.404 1_545 S
C71 C72 1.389 . S
C72 C71 1.389 . S
C72 C73 1.399 . S
C72 H85 0.931 . S
C73 C72 1.399 . S
C73 C74 1.390 . S
C74 C69 1.392 1_545 S
C74 C73 1.390 . S
C74 H86 0.929 . S
O75 Tb59 2.326 . S
O75 C63 1.242 . S
O76 Eu60 2.324 . S
O76 C63 1.258 . S
O77 Tb59 2.500 . S
O77 C79 1.273 . S
O78 Tb59 2.473 . S
O78 C79 1.257 . S
C79 O77 1.273 . S
C79 O78 1.257 . S
O80 Eu60 2.326 . S
O80 C68 1.242 . S
O81 Tb59 2.324 . S
O81 C68 1.258 . S
O82 Eu60 2.500 . S
O82 C65 1.273 . S
O83 Eu60 2.473 . S
O83 C65 1.257 . S
H84 C70 0.929 . S
H85 C72 0.931 . S
H86 C74 0.929 . S
O87 Tb88 2.292 1_554 S
O87 C90 1.255 . S
Tb88 O87 2.292 1_556 S
Tb88 O104 2.326 . S
Tb88 O106 2.500 . S
Tb88 O107 2.473 . S
Tb88 O110 2.324 . S
Eu89 O93 2.292 . S
Eu89 C94 2.852 . S
Eu89 O105 2.324 . S
Eu89 O109 2.326 . S
Eu89 O111 2.500 . S
Eu89 O112 2.473 . S
C90 O87 1.255 . S
C90 O91 1.247 . S
O91 C90 1.247 . S
C92 O104 1.242 . S
C92 O105 1.258 . S
O93 Eu89 2.292 . S
O93 C95 1.255 . S
C94 Eu89 2.852 . S
C94 C98 1.503 . S
C94 O111 1.273 . S
C94 O112 1.257 . S
C95 O93 1.255 . S
C95 O96 1.247 . S
O96 C95 1.247 . S
C97 O109 1.242 . S
C97 O110 1.258 . S
C98 C94 1.503 . S
C98 C99 1.379 1_556 S
C98 C103 1.392 1_545 S
C99 C98 1.379 1_554 S
C99 C100 1.404 1_545 S
C99 H113 0.929 . S
C100 C99 1.404 1_565 S
C100 C101 1.389 . S
C101 C100 1.389 . S
C101 C102 1.399 . S
C101 H114 0.931 . S
C102 C101 1.399 . S
C102 C103 1.390 1_554 S
C103 C98 1.392 1_565 S
C103 C102 1.390 1_556 S
C103 H115 0.929 . S
O104 Tb88 2.326 . S
O104 C92 1.242 . S
O105 Eu89 2.324 . S
O105 C92 1.258 . S
O106 Tb88 2.500 . S
O106 C108 1.273 . S
O107 Tb88 2.473 . S
O107 C108 1.257 . S
C108 O106 1.273 . S
C108 O107 1.257 . S
O109 Eu89 2.326 . S
O109 C97 1.242 . S
O110 Tb88 2.324 . S
O110 C97 1.258 . S
O111 Eu89 2.500 . S
O111 C94 1.273 . S
O112 Eu89 2.473 . S
O112 C94 1.257 . S
H113 C99 0.929 . S
H114 C101 0.931 . S
H115 C103 0.929 . S
O116 Tb117 2.292 . S
O116 C119 1.255 . S
Tb117 O116 2.292 . S
Tb117 O133 2.326 . S
Tb117 O135 2.500 . S
Tb117 O136 2.473 . S
Tb117 O139 2.324 . S
Eu118 O122 2.292 . S
Eu118 C123 2.852 . S
Eu118 O134 2.324 . S
Eu118 O138 2.326 . S
Eu118 O140 2.500 . S
Eu118 O141 2.473 . S
C119 O116 1.255 . S
C119 O120 1.247 . S
O120 C119 1.247 . S
C121 O133 1.242 . S
C121 O134 1.258 . S
O122 Eu118 2.292 . S
O122 C124 1.255 . S
C123 Eu118 2.852 . S
C123 C127 1.503 . S
C123 O140 1.273 . S
C123 O141 1.257 . S
C124 O122 1.255 . S
C124 O125 1.247 . S
O125 C124 1.247 . S
C126 O138 1.242 . S
C126 O139 1.258 . S
C127 C123 1.503 . S
C127 C128 1.379 . S
C127 C132 1.392 1_655 S
C128 C127 1.379 . S
C128 C129 1.404 1_655 S
C128 H142 0.929 . S
C129 C128 1.404 1_455 S
C129 C130 1.389 . S
C130 C129 1.389 . S
C130 C131 1.399 . S
C130 H143 0.931 . S
C131 C130 1.399 . S
C131 C132 1.390 . S
C132 C127 1.392 1_455 S
C132 C131 1.390 . S
C132 H144 0.929 . S
O133 Tb117 2.326 . S
O133 C121 1.242 . S
O134 Eu118 2.324 . S
O134 C121 1.258 . S
O135 Tb117 2.500 . S
O135 C137 1.273 . S
O136 Tb117 2.473 . S
O136 C137 1.257 . S
C137 O135 1.273 . S
C137 O136 1.257 . S
O138 Eu118 2.326 . S
O138 C126 1.242 . S
O139 Tb117 2.324 . S
O139 C126 1.258 . S
O140 Eu118 2.500 . S
O140 C123 1.273 . S
O141 Eu118 2.473 . S
O141 C123 1.257 . S
H142 C128 0.929 . S
H143 C130 0.931 . S
H144 C132 0.929 . S
O145 Tb146 2.292 . S
O145 C148 1.255 . S
Tb146 O145 2.292 . S
Tb146 O162 2.326 . S
Tb146 O164 2.500 . S
Tb146 O165 2.473 . S
Tb146 O168 2.324 . S
Eu147 O151 2.292 . S
Eu147 C152 2.852 . S
Eu147 O163 2.324 . S
Eu147 O167 2.326 . S
Eu147 O169 2.500 . S
Eu147 O170 2.473 . S
C148 O145 1.255 . S
C148 O149 1.247 . S
O149 C148 1.247 . S
C150 O162 1.242 . S
C150 O163 1.258 . S
O151 Eu147 2.292 . S
O151 C153 1.255 1_554 S
C152 Eu147 2.852 . S
C152 C156 1.503 . S
C152 O169 1.273 . S
C152 O170 1.257 . S
C153 O151 1.255 1_556 S
C153 O154 1.247 . S
O154 C153 1.247 . S
C155 O167 1.242 . S
C155 O168 1.258 . S
C156 C152 1.503 . S
C156 C157 1.379 . S
C156 C161 1.392 . S
C157 C156 1.379 . S
C157 C158 1.404 . S
C157 H171 0.929 . S
C158 C157 1.404 . S
C158 C159 1.389 . S
C159 C158 1.389 . S
C159 C160 1.399 . S
C159 H172 0.931 . S
C160 C159 1.399 . S
C160 C161 1.390 . S
C161 C156 1.392 . S
C161 C160 1.390 . S
C161 H173 0.929 . S
O162 Tb146 2.326 . S
O162 C150 1.242 . S
O163 Eu147 2.324 . S
O163 C150 1.258 . S
O164 Tb146 2.500 . S
O164 C166 1.273 . S
O165 Tb146 2.473 . S
O165 C166 1.257 . S
C166 O164 1.273 . S
C166 O165 1.257 . S
O167 Eu147 2.326 . S
O167 C155 1.242 . S
O168 Tb146 2.324 . S
O168 C155 1.258 . S
O169 Eu147 2.500 . S
O169 C152 1.273 . S
O170 Eu147 2.473 . S
O170 C152 1.257 . S
H171 C157 0.929 . S
H172 C159 0.931 . S
H173 C161 0.929 . S
C160 C21 3.194 . S
C50 C102 3.194 1_556 S
C79 C131 3.194 . S
C44 C108 3.194 . S
C73 C137 3.194 . S
C15 C166 3.194 1_556 S
C92 C5 3.395 1_556 S
C121 C34 3.395 1_545 S
C150 C63 3.395 1_655 S
C124 C8 4.719 1_655 S
C37 C153 4.719 1_554 S
C95 C66 4.719 1_545 S
C3 C39 2.787 . S
C68 C32 2.787 . S
C10 C61 2.787 . S
C90 C155 2.787 . S
C119 C97 2.787 . S
C126 C148 2.787 . S
C129 C13 1.980 1_455 S
C42 C158 1.980 . S
C100 C71 1.980 1_565 S
