# Generated by pormake.
# Topology hex, (8)-cn, num edge types: 1
# Building blocks:
#     Node 0, Type 0, BuildingBlock: NUHRAL_clean_sbu_3, # of connection points: 8
#     Edge 1, Type (0, 0), BuildingBlock: KIFKEQ_clean_linker_1, # of connection points: 2
#     Edge 2, Type (0, 0), BuildingBlock: KIFKEQ_clean_linker_1, # of connection points: 2
#     Edge 3, Type (0, 0), BuildingBlock: KIFKEQ_clean_linker_1, # of connection points: 2
#     Edge 4, Type (0, 0), BuildingBlock: KIFKEQ_clean_linker_1, # of connection points: 2
# Relax obj value: 0.035
# Max RMSD: 0.098
# Mean RMSD: 0.098
data_MOF--net-hex--node1-NUHRAL_clean_sbu_3--edge1-KIFKEQ_clean_linker_1
_symmetry_space_group_name_H-M    P1
_symmetry_Int_Tables_number       1
_symmetry_cell_setting            triclinic
loop_
_symmetry_equiv_pos_as_xyz
'x, y, z'
_cell_length_a     22.232314
_cell_length_b     18.454498
_cell_length_c     15.11153
_cell_angle_alpha  112.87086
_cell_angle_beta   100.40491
_cell_angle_gamma 112.3595
loop_
_atom_site_label
_atom_site_type_symbol
_atom_site_fract_x
_atom_site_fract_y
_atom_site_fract_z
_atom_type_partial_charge
C0 C 0.79434 0.8445 0.95353 0.0
C1 C 0.76506 0.76836 0.96647 0.0
C2 C 0.70791 0.75121 -0.00171 0.0
C3 C 0.68112 0.81048 0.01887 0.0
C4 C 0.70655 0.88272 0.00066 0.0
C5 C 0.76352 0.90029 0.96869 0.0
O6 O 0.03461 0.93964 0.10006 0.0
Tb7 Tb 0.96978 0.87449 0.93706 0.0
O8 O 0.96861 0.75143 0.92044 0.0
O9 O 0.04052 0.07757 0.16689 0.0
Eu10 Eu 0.08625 0.10974 0.05718 0.0
O11 O 0.86029 0.79238 0.86228 0.0
C12 C 0.20544 0.11133 0.07605 0.0
O13 O 0.90982 0.93891 0.96959 0.0
O14 O 1.01354 0.04141 0.8912 0.0
O15 O 1.01215 0.90638 0.82996 0.0
C16 C 0.8505 0.8609 0.91149 0.0
C17 C 0.04108 0.25199 0.06388 0.0
O18 O 0.98285 0.19008 0.05706 0.0
C19 C 0.03364 0.00627 0.17388 0.0
C20 C 1.01144 0.97236 0.81655 0.0
O21 O 0.09624 0.2404 0.07157 0.0
C22 C 0.26223 0.12724 0.03535 0.0
C23 C 0.34822 0.08592 0.98556 0.0
C24 C 0.2922 0.0704 0.01979 0.0
C25 C 0.28993 0.20108 0.01805 0.0
C26 C 0.34601 0.21654 0.98385 0.0
C27 C 0.37415 0.15873 0.9681 0.0
C28 C 0.02888 0.75402 0.95281 0.0
O29 O 0.08787 0.82891 0.98588 0.0
O30 O 0.20036 0.18215 0.13292 0.0
O31 O 0.14394 0.03738 0.01402 0.0
H32 H 0.78439 0.72075 0.94786 0.0
H33 H 0.6349 0.79453 0.03863 0.0
H34 H 0.78174 0.95472 0.95131 0.0
H35 H 0.27251 0.01501 0.03535 0.0
H36 H 0.26865 0.24659 0.03196 0.0
H37 H 0.41979 0.17373 0.9471 0.0
H38 H 0.945 0.30992 0.07595 0.0
H39 H 0.13831 0.36605 0.02359 0.0
H40 H 0.94263 0.43017 0.04751 0.0
H41 H 0.13466 0.48394 0.99103 0.0
H42 H 0.14482 0.74925 0.04104 0.0
H43 H 0.14874 0.63055 0.0707 0.0
H44 H 0.92191 0.46687 0.91539 0.0
H45 H 0.91793 0.58762 0.88925 0.0
C46 C 0.98698 0.3479 0.05819 0.0
C47 C 0.04195 0.32856 0.05238 0.0
C48 C 0.98529 0.41639 0.04084 0.0
C49 C 0.03815 0.46672 0.01609 0.0
C50 C 0.09351 0.44771 0.01127 0.0
C51 C 0.09557 0.37983 0.02972 0.0
C52 C 0.09572 0.68776 0.01264 0.0
C53 C 0.031 0.67809 0.96286 0.0
C54 C 0.09801 0.61926 0.02928 0.0
C55 C 0.03566 0.53882 -0.00413 0.0
C56 C 0.97097 0.52845 0.94404 0.0
C57 C 0.96866 0.59737 0.92808 0.0
H58 H 0.60917 0.83998 0.82761 0.0
H59 H 0.69953 0.0104 0.16109 0.0
H60 H 0.51287 0.87261 0.81744 0.0
H61 H 0.60589 0.04941 0.15197 0.0
H62 H 0.39979 0.04294 0.12543 0.0
H63 H 0.48727 -0.00674 0.12606 0.0
H64 H 0.47523 0.97287 0.82753 0.0
H65 H 0.38465 0.01497 0.82409 0.0
C66 C 0.60987 0.88798 0.89834 0.0
C67 C 0.66246 0.92474 -0.00525 0.0
C68 C 0.55437 0.90642 0.89294 0.0
C69 C 0.5507 0.9634 0.98398 0.0
C70 C 0.60562 0.00352 0.08029 0.0
C71 C 0.66038 0.98329 0.08568 0.0
C72 C 0.41405 0.02423 0.0584 0.0
C73 C 0.38581 0.03342 0.97511 0.0
C74 C 0.4655 -0.00212 0.05964 0.0
C75 C 0.49024 0.98122 0.97813 0.0
C76 C 0.45794 0.98445 0.89173 0.0
C77 C 0.40587 0.00897 0.88972 0.0
H78 H 0.4023 0.39578 0.12664 0.0
H79 H 0.37511 0.21652 0.8174 0.0
H80 H 0.49176 0.52389 0.12631 0.0
H81 H 0.46728 0.34143 0.81905 0.0
H82 H 0.60796 0.59795 0.8241 0.0
H83 H 0.51008 0.47228 0.81391 0.0
H84 H 0.6094 0.58405 0.14551 0.0
H85 H 0.70484 0.71331 0.15514 0.0
C86 C 0.41411 0.38435 0.05755 0.0
C87 C 0.38201 0.29638 0.97221 0.0
C88 C 0.46673 0.45721 0.05816 0.0
C89 C 0.48876 0.44317 0.9739 0.0
C90 C 0.45224 0.35591 0.88545 0.0
C91 C 0.39905 0.28387 0.88423 0.0
C92 C 0.60979 0.59356 0.89392 0.0
C93 C 0.66456 0.66361 0.98987 0.0
C94 C 0.55331 0.52189 0.88857 0.0
C95 C 0.55079 0.5178 0.9791 0.0
C96 C 0.60818 0.58573 0.07443 0.0
C97 C 0.66399 0.65858 0.07992 0.0
H98 H 0.0419 0.87082 0.6634 0.0
H99 H 0.97736 0.07325 0.74865 0.0
H100 H 0.04736 0.87984 0.50789 0.0
H101 H 0.98016 0.07983 0.59207 0.0
H102 H 0.06891 0.14475 0.36678 0.0
H103 H 0.06246 0.13408 0.52116 0.0
H104 H 0.97621 0.84399 0.34291 0.0
H105 H 0.98533 0.85533 0.1906 0.0
C106 C 0.0279 0.91615 0.64806 0.0
C107 C 1.00949 0.97148 0.7182 0.0
C108 C 0.03082 0.92126 0.55894 0.0
C109 C 1.01461 0.98106 0.53785 0.0
C110 C 0.99449 0.03458 0.60701 0.0
C111 C 0.99234 0.03021 0.6964 0.0
C112 C 0.04861 0.07889 0.36093 0.0
C113 C 0.02816 0.00111 0.26713 0.0
C114 C 0.04453 0.07255 0.44906 0.0
C115 C 1.01896 -0.01191 0.44446 0.0
C116 C 0.99752 0.91027 0.34986 0.0
C117 C 1.00242 0.91679 0.26239 0.0
loop_
_geom_bond_atom_site_label_1
_geom_bond_atom_site_label_2
_geom_bond_distance
_geom_bond_site_symmetry_2
_ccdc_geom_bond_type
C0 C1 1.387 . S
C0 C5 1.380 . S
C0 C16 1.494 . S
C1 C0 1.387 . S
C1 C2 1.386 1_556 S
C1 H32 0.930 . S
C2 C1 1.386 1_554 S
C2 C3 1.397 . S
C3 C2 1.397 . S
C3 C4 1.393 1_554 S
C3 H33 0.930 . S
C4 C3 1.393 1_556 S
C4 C5 1.395 . S
C5 C0 1.380 . S
C5 C4 1.395 . S
C5 H34 0.930 . S
O6 Tb7 2.295 1_554 S
O6 C19 1.242 1_665 S
Tb7 O6 2.295 1_556 S
Tb7 O8 2.312 . S
Tb7 O11 2.438 . S
Tb7 O13 2.472 . S
Tb7 O15 2.308 . S
Tb7 C16 2.821 . S
O8 Tb7 2.312 . S
O8 C28 1.264 1_655 S
O9 Eu10 2.308 . S
O9 C19 1.243 . S
Eu10 O9 2.308 . S
Eu10 C12 2.821 . S
Eu10 O14 2.295 1_554 S
Eu10 O21 2.312 . S
Eu10 O30 2.438 . S
Eu10 O31 2.472 . S
O11 Tb7 2.438 . S
O11 C16 1.263 . S
C12 Eu10 2.821 . S
C12 C22 1.494 . S
C12 O30 1.263 . S
C12 O31 1.264 . S
O13 Tb7 2.472 . S
O13 C16 1.264 . S
O14 Eu10 2.295 1_556 S
O14 C20 1.242 1_445 S
O15 Tb7 2.308 . S
O15 C20 1.243 . S
C16 C0 1.494 . S
C16 Tb7 2.821 . S
C16 O11 1.263 . S
C16 O13 1.264 . S
C17 O18 1.260 . S
C17 O21 1.264 1_655 S
O18 C17 1.260 . S
C19 O6 1.242 1_445 S
C19 O9 1.243 . S
C20 O14 1.242 1_665 S
C20 O15 1.243 . S
O21 Eu10 2.312 . S
O21 C17 1.264 1_455 S
C22 C12 1.494 . S
C22 C24 1.380 . S
C22 C25 1.387 . S
C23 C24 1.395 . S
C23 C27 1.393 1_554 S
C24 C22 1.380 . S
C24 C23 1.395 . S
C24 H35 0.930 . S
C25 C22 1.387 . S
C25 C26 1.386 1_554 S
C25 H36 0.930 . S
C26 C25 1.386 1_556 S
C26 C27 1.397 . S
C27 C23 1.393 1_556 S
C27 C26 1.397 . S
C27 H37 0.930 . S
C28 O8 1.264 1_455 S
C28 O29 1.260 . S
O29 C28 1.260 . S
O30 Eu10 2.438 . S
O30 C12 1.263 . S
O31 Eu10 2.472 . S
O31 C12 1.264 . S
H32 C1 0.930 . S
H33 C3 0.930 . S
H34 C5 0.930 . S
H35 C24 0.930 . S
H36 C25 0.930 . S
H37 C27 0.930 . S
H38 C46 0.950 . S
H39 C51 0.950 . S
H40 C48 0.955 . S
H41 C50 0.950 . S
H42 C52 0.950 . S
H43 C54 0.955 . S
H44 C56 0.950 . S
H45 C57 0.950 . S
C46 H38 0.950 . S
C46 C47 1.386 . S
C46 C48 1.388 . S
C47 C46 1.386 . S
C47 C51 1.393 1_554 S
C48 H40 0.955 . S
C48 C46 1.388 . S
C48 C49 1.398 1_655 S
C49 C48 1.398 1_455 S
C49 C50 1.399 1_554 S
C49 C55 1.490 1_554 S
C50 H41 0.950 . S
C50 C49 1.399 1_556 S
C50 C51 1.391 1_455 S
C51 H39 0.950 . S
C51 C47 1.393 1_556 S
C51 C50 1.391 1_655 S
C52 H42 0.950 . S
C52 C53 1.386 . S
C52 C54 1.387 . S
C53 C52 1.386 . S
C53 C57 1.393 1_556 S
C54 H43 0.955 . S
C54 C52 1.387 . S
C54 C55 1.398 . S
C55 C49 1.490 1_556 S
C55 C54 1.398 . S
C55 C56 1.399 1_456 S
C56 H44 0.950 . S
C56 C55 1.399 1_654 S
C56 C57 1.391 1_655 S
C57 H45 0.950 . S
C57 C53 1.393 1_554 S
C57 C56 1.391 1_455 S
H58 C66 0.950 . S
H59 C71 0.950 . S
H60 C68 0.950 . S
H61 C70 0.950 1_545 S
H62 C72 0.950 . S
H63 C74 0.950 . S
H64 C76 0.950 1_565 S
H65 C77 0.950 . S
C66 H58 0.950 . S
C66 C67 1.386 . S
C66 C68 1.391 . S
C67 C66 1.386 . S
C67 C71 1.393 1_556 S
C68 H60 0.950 . S
C68 C66 1.391 . S
C68 C69 1.400 . S
C69 C68 1.400 . S
C69 C70 1.398 1_556 S
C69 C75 1.491 1_566 S
C70 H61 0.950 1_565 S
C70 C69 1.398 1_554 S
C70 C71 1.391 . S
C71 H59 0.950 . S
C71 C67 1.393 1_554 S
C71 C70 1.391 . S
C72 H62 0.950 . S
C72 C73 1.386 . S
C72 C74 1.391 . S
C73 C72 1.386 . S
C73 C77 1.393 1_554 S
C74 H63 0.950 . S
C74 C72 1.391 . S
C74 C75 1.400 . S
C75 C69 1.491 1_544 S
C75 C74 1.400 . S
C75 C76 1.398 1_554 S
C76 H64 0.950 1_545 S
C76 C75 1.398 1_556 S
C76 C77 1.391 . S
C77 H65 0.950 . S
C77 C73 1.393 1_556 S
C77 C76 1.391 . S
H78 C86 0.950 . S
H79 C91 0.950 . S
H80 C88 0.950 . S
H81 C90 0.950 . S
H82 C92 0.950 . S
H83 C94 0.950 . S
H84 C96 0.950 . S
H85 C97 0.950 . S
C86 H78 0.950 . S
C86 C87 1.386 1_554 S
C86 C88 1.391 . S
C87 C86 1.386 1_556 S
C87 C91 1.393 . S
C88 H80 0.950 . S
C88 C86 1.391 . S
C88 C89 1.400 1_554 S
C89 C88 1.400 1_556 S
C89 C90 1.398 . S
C89 C95 1.491 1_556 S
C90 H81 0.950 . S
C90 C89 1.398 . S
C90 C91 1.391 . S
C91 H79 0.950 . S
C91 C87 1.393 . S
C91 C90 1.391 . S
C92 H82 0.950 . S
C92 C93 1.386 1_556 S
C92 C94 1.391 . S
C93 C92 1.386 1_554 S
C93 C97 1.393 . S
C94 H83 0.950 . S
C94 C92 1.391 . S
C94 C95 1.400 1_556 S
C95 C89 1.491 1_554 S
C95 C94 1.400 1_554 S
C95 C96 1.398 . S
C96 H84 0.950 . S
C96 C95 1.398 . S
C96 C97 1.391 . S
C97 H85 0.950 . S
C97 C93 1.393 . S
C97 C96 1.391 . S
H98 C106 0.950 . S
H99 C111 0.950 . S
H100 C108 0.950 . S
H101 C110 0.950 . S
H102 C112 0.950 . S
H103 C114 0.950 . S
H104 C116 0.950 . S
H105 C117 0.950 . S
C106 H98 0.950 . S
C106 C107 1.386 1_455 S
C106 C108 1.391 . S
C107 C106 1.386 1_655 S
C107 C111 1.393 1_565 S
C108 H100 0.950 . S
C108 C106 1.391 . S
C108 C109 1.387 1_455 S
C109 C108 1.387 1_655 S
C109 C110 1.416 1_565 S
C109 C115 1.487 1_665 S
C110 H101 0.950 . S
C110 C109 1.416 1_545 S
C110 C111 1.391 . S
C111 H99 0.950 . S
C111 C107 1.393 1_545 S
C111 C110 1.391 . S
C112 H102 0.950 . S
C112 C113 1.386 1_655 S
C112 C114 1.391 . S
C113 C112 1.386 1_455 S
C113 C117 1.393 1_545 S
C114 H103 0.950 . S
C114 C112 1.391 . S
C114 C115 1.400 1_655 S
C115 C109 1.487 1_445 S
C115 C114 1.400 1_455 S
C115 C116 1.398 1_545 S
C116 H104 0.950 . S
C116 C115 1.398 1_565 S
C116 C117 1.391 . S
C117 H105 0.950 . S
C117 C113 1.393 1_565 S
C117 C116 1.391 . S
C47 C17 0.433 . S
C53 C28 0.433 . S
C67 C4 2.069 . S
C73 C23 2.069 . S
C87 C26 1.843 . S
C93 C2 1.843 . S
C107 C20 1.485 . S
C113 C19 1.485 . S
