# Generated by pormake.
# Topology pcu, (6)-cn, num edge types: 1
# Building blocks:
#     Node 0, Type 0, BuildingBlock: JUFBIX_clean_sbu_0, # of connection points: 6
#     Edge 1, Type (0, 0), BuildingBlock: OJICUG_clean_linker_0, # of connection points: 2
#     Edge 2, Type (0, 0), BuildingBlock: OJICUG_clean_linker_0, # of connection points: 2
#     Edge 3, Type (0, 0), BuildingBlock: OJICUG_clean_linker_0, # of connection points: 2
# Relax obj value: 0.000
# Max RMSD: 0.000
# Mean RMSD: 0.000
data_MOF--net-pcu--node1-JUFBIX_clean_sbu_0--edge1-OJICUG_clean_linker_0
_symmetry_space_group_name_H-M    P1
_symmetry_Int_Tables_number       1
_symmetry_cell_setting            triclinic
loop_
_symmetry_equiv_pos_as_xyz
'x, y, z'
_cell_length_a     10.872827
_cell_length_b     15.637928
_cell_length_c     10.870864
_cell_angle_alpha  82.686461
_cell_angle_beta   91.274294
_cell_angle_gamma 101.83588
loop_
_atom_site_label
_atom_site_type_symbol
_atom_site_fract_x
_atom_site_fract_y
_atom_site_fract_z
_atom_type_partial_charge
Co0 Co 0.99552 0.97045 0.02029 0.0
C1 C 0.01916 0.04707 0.24097 0.0
Co2 Co 0.03733 0.11602 0.9952 0.0
C3 C 1.00675 0.78764 1.006 0.0
C4 C 0.86234 0.80178 0.12782 0.0
N5 N 0.9537 0.84857 0.05003 0.0
N6 N 0.95229 0.70466 0.05383 0.0
C7 C 0.86114 0.71362 0.13028 0.0
H8 H 0.08567 0.80415 0.94238 0.0
H9 H 0.8011 0.83011 0.18051 0.0
C10 C 1.0137 1.0394 0.77452 0.0
N11 N 0.07915 0.23791 0.96546 0.0
C12 C 0.0261 0.29883 0.00949 0.0
C13 C 0.17052 0.28469 0.88767 0.0
N14 N 0.08057 0.38182 0.96166 0.0
C15 C 0.17172 0.37286 0.88521 0.0
C16 C 0.24954 1.04017 0.01143 0.0
O17 O 0.99313 0.96687 0.84598 0.0
O18 O 0.0344 0.1113 0.82155 0.0
O19 O 0.21083 0.11207 0.99884 0.0
O20 O 0.16972 0.96775 0.02341 0.0
O21 O 0.03972 0.11961 0.16951 0.0
H22 H 0.23176 0.25636 0.83498 0.0
H23 H 0.94718 0.28232 0.07311 0.0
O24 O 0.99846 0.97517 0.19394 0.0
O25 O 0.82202 0.97441 0.01665 0.0
O26 O 0.86314 0.11872 0.99208 0.0
C27 C 0.78331 0.04631 1.00406 0.0
H28 H 0.79738 0.66033 0.18379 0.0
H29 H 0.23547 0.42615 0.8317 0.0
C30 C 0.99482 0.96458 0.45514 0.0
C31 C 0.01817 0.04539 0.37741 0.0
H32 H 0.97502 0.89916 0.6412 0.0
C33 C 0.03972 0.12402 0.43146 0.0
H34 H 0.97771 0.90269 0.41653 0.0
C35 C 0.03803 0.1219 0.56035 0.0
C36 C 1.01469 1.04108 0.63808 0.0
H37 H 0.05784 0.18732 0.37429 0.0
H38 H 0.05514 0.18378 0.59896 0.0
C39 C 0.99313 0.96245 0.58403 0.0
C40 C 0.47338 0.12211 0.9959 0.0
C41 C 0.38603 1.04151 0.01024 0.0
H42 H 0.66708 0.18697 0.98251 0.0
C43 C 0.43051 0.96266 0.02203 0.0
H44 H 0.44227 0.18414 0.98639 0.0
C45 C 0.55947 0.96436 0.01959 0.0
C46 C 0.64682 0.04496 1.00525 0.0
H47 H 0.36578 0.8995 0.03298 0.0
H48 H 0.59059 0.90233 0.0291 0.0
C49 C 0.60234 0.12382 0.99346 0.0
C50 C 0.95829 0.548 0.11913 0.0
C51 C 0.98522 0.62333 0.03063 0.0
H52 H 0.96868 0.41271 0.16739 0.0
C53 C 0.04386 0.61758 0.91902 0.0
H54 H 0.91512 0.55033 0.20701 0.0
C55 C 0.07457 0.53847 0.89636 0.0
C56 C 0.04763 0.46315 0.98486 0.0
H57 H 0.06418 0.67377 0.8481 0.0
H58 H 0.11774 0.53614 0.80848 0.0
C59 C 0.98899 0.4689 0.09647 0.0
loop_
_geom_bond_atom_site_label_1
_geom_bond_atom_site_label_2
_geom_bond_distance
_geom_bond_site_symmetry_2
_ccdc_geom_bond_type
Co0 N5 2.057 1_556 S
Co0 O17 2.021 . S
Co0 O20 2.062 1_655 S
Co0 O24 2.117 1_556 S
Co0 O25 2.020 . S
C1 O21 1.259 . S
C1 O24 1.258 1_445 S
Co2 N11 2.057 1_554 S
Co2 O18 2.117 1_554 S
Co2 O19 2.020 . S
Co2 O21 2.021 . S
Co2 O26 2.062 1_455 S
C3 N5 1.316 1_556 S
C3 N6 1.347 1_556 S
C3 H8 0.931 . S
C4 N5 1.375 . S
C4 C7 1.350 . S
C4 H9 0.930 . S
N5 Co0 2.057 1_554 S
N5 C3 1.316 1_554 S
N5 C4 1.375 . S
N6 C3 1.347 1_554 S
N6 C7 1.373 . S
C7 C4 1.350 . S
C7 N6 1.373 . S
C7 H28 0.931 . S
H8 C3 0.931 . S
H9 C4 0.930 . S
C10 O17 1.259 . S
C10 O18 1.258 1_665 S
N11 Co2 2.057 1_556 S
N11 C12 1.316 1_556 S
N11 C13 1.375 . S
C12 N11 1.316 1_554 S
C12 N14 1.347 1_554 S
C12 H23 0.931 . S
C13 N11 1.375 . S
C13 C15 1.350 . S
C13 H22 0.930 . S
N14 C12 1.347 1_556 S
N14 C15 1.373 . S
C15 C13 1.350 . S
C15 N14 1.373 . S
C15 H29 0.931 . S
C16 O19 1.264 1_556 S
C16 O20 1.248 1_545 S
O17 Co0 2.021 . S
O17 C10 1.259 . S
O18 Co2 2.117 1_556 S
O18 C10 1.258 1_445 S
O19 Co2 2.020 . S
O19 C16 1.264 1_554 S
O20 Co0 2.062 1_455 S
O20 C16 1.248 1_565 S
O21 C1 1.259 . S
O21 Co2 2.021 . S
H22 C13 0.930 . S
H23 C12 0.931 . S
O24 Co0 2.117 1_554 S
O24 C1 1.258 1_665 S
O25 Co0 2.020 . S
O25 C27 1.261 1_556 S
O26 Co2 2.062 1_655 S
O26 C27 1.251 1_545 S
C27 O25 1.261 1_554 S
C27 O26 1.251 1_565 S
H28 C7 0.931 . S
H29 C15 0.931 . S
C30 C31 1.386 1_455 S
C30 H34 0.950 . S
C30 C39 1.390 . S
C31 C30 1.386 1_655 S
C31 C33 1.389 1_565 S
H32 C39 0.950 . S
C33 C31 1.389 1_545 S
C33 C35 1.390 . S
C33 H37 0.950 . S
H34 C30 0.950 . S
C35 C33 1.390 . S
C35 C36 1.388 1_655 S
C35 H38 0.950 . S
C36 C35 1.388 1_455 S
C36 C39 1.388 1_545 S
H37 C33 0.950 . S
H38 C35 0.950 . S
C39 C30 1.390 . S
C39 H32 0.950 . S
C39 C36 1.388 1_565 S
C40 C41 1.387 1_545 S
C40 H44 0.950 . S
C40 C49 1.390 . S
C41 C40 1.387 1_565 S
C41 C43 1.389 1_556 S
H42 C49 0.950 . S
C43 C41 1.389 1_554 S
C43 C45 1.390 . S
C43 H47 0.950 . S
H44 C40 0.950 . S
C45 C43 1.390 . S
C45 C46 1.388 1_565 S
C45 H48 0.950 . S
C46 C45 1.388 1_545 S
C46 C49 1.388 1_554 S
H47 C43 0.950 . S
H48 C45 0.950 . S
C49 C40 1.390 . S
C49 H42 0.950 . S
C49 C46 1.388 1_556 S
C50 C51 1.388 . S
C50 H54 0.950 . S
C50 C59 1.389 . S
C51 C50 1.388 . S
C51 C53 1.389 1_454 S
H52 C59 0.950 . S
C53 C51 1.389 1_656 S
C53 C55 1.389 . S
C53 H57 0.950 . S
H54 C50 0.950 . S
C55 C53 1.389 . S
C55 C56 1.388 1_556 S
C55 H58 0.950 . S
C56 C55 1.388 1_554 S
C56 C59 1.389 1_655 S
H57 C53 0.950 . S
H58 C55 0.950 . S
C59 C50 1.389 . S
C59 H52 0.950 . S
C59 C56 1.389 1_455 S
C31 C1 1.496 1_665 S
C36 C10 1.496 1_445 S
C41 C16 1.498 1_565 S
C46 C27 1.498 1_545 S
C51 N6 1.464 1_455 S
C56 N14 1.465 1_654 S
