# Generated by pormake.
# Topology kag, (6)-cn, num edge types: 1
# Building blocks:
#     Node 0, Type 0, BuildingBlock: KUMBOL_clean_sbu_1, # of connection points: 6
#     Node 1, Type 0, BuildingBlock: KUMBOL_clean_sbu_1, # of connection points: 6
#     Node 2, Type 0, BuildingBlock: KUMBOL_clean_sbu_1, # of connection points: 6
#     Edge 3, Type (0, 0), None
#     Edge 4, Type (0, 0), None
#     Edge 5, Type (0, 0), None
#     Edge 6, Type (0, 0), None
#     Edge 7, Type (0, 0), None
#     Edge 8, Type (0, 0), None
#     Edge 9, Type (0, 0), None
#     Edge 10, Type (0, 0), None
#     Edge 11, Type (0, 0), None
# Relax obj value: 0.250
# Max RMSD: 0.242
# Mean RMSD: 0.196
data_MOF--net-kag--node1-KUMBOL_clean_sbu_1--edge1-none
_symmetry_space_group_name_H-M    P1
_symmetry_Int_Tables_number       1
_symmetry_cell_setting            triclinic
loop_
_symmetry_equiv_pos_as_xyz
'x, y, z'
_cell_length_a     15.445656
_cell_length_b     25.017667
_cell_length_c     7.0024292
_cell_angle_alpha  106.13017
_cell_angle_beta   100.46697
_cell_angle_gamma 86.850904
loop_
_atom_site_label
_atom_site_type_symbol
_atom_site_fract_x
_atom_site_fract_y
_atom_site_fract_z
_atom_type_partial_charge
C0 C 0.12259 0.30555 0.0511 0.0
C1 C 0.19731 0.34088 0.39166 0.0
C2 C 0.15523 0.34941 0.2088 0.0
C3 C 0.19694 0.28826 0.42065 0.0
C4 C 0.13628 0.25099 0.06915 0.0
C5 C 0.16757 0.24258 0.25903 0.0
N6 N 0.0918 0.31604 0.87197 0.0
C7 C 0.07847 0.2723 0.70068 0.0
C8 C 0.12637 0.20725 0.89452 0.0
C9 C 0.09757 0.21778 0.70952 0.0
Gd10 Gd 0.06952 0.55907 0.04573 0.0
Gd11 Gd 1.05289 0.41129 0.8996 0.0
N12 N 0.15867 0.39897 0.17084 0.0
C13 C 0.24985 0.38299 0.52719 0.0
C14 C 0.21592 0.43897 0.29593 0.0
C15 C 0.26289 0.43136 0.47421 0.0
H16 H 0.21862 0.47931 0.27141 0.0
H17 H 0.30912 0.4628 0.56672 0.0
H18 H 0.91004 0.48053 0.68299 0.0
H19 H 1.05407 0.27794 0.5539 0.0
H20 H 0.80712 0.49159 0.39192 0.0
H21 H 0.29111 0.37443 0.65667 0.0
H22 H 0.22193 0.28306 0.5666 0.0
H23 H 1.04724 0.6964 0.35557 0.0
H24 H 0.14662 0.1661 0.89991 0.0
H25 H 0.09122 0.18378 0.57424 0.0
H26 H 0.8844 0.66645 0.32632 0.0
H27 H 0.17377 0.20132 0.28002 0.0
H28 H 0.9548 0.79616 0.9622 0.0
H29 H 1.00335 0.78788 0.30125 0.0
N30 N 1.02204 0.65211 0.04338 0.0
C31 C 0.99084 0.65762 0.85698 0.0
C32 C 1.02709 0.69875 0.20412 0.0
C33 C 0.9783 0.75686 -0.01656 0.0
C34 C 1.00395 0.75132 0.17618 0.0
C35 C 0.97217 0.71009 0.8207 0.0
H36 H 0.92712 0.75323 0.59206 0.0
N37 N 0.96127 0.56308 0.76569 0.0
C38 C 0.96012 0.61082 0.71171 0.0
C39 C 0.85936 0.57177 0.41107 0.0
C40 C 0.91465 0.61475 0.52558 0.0
C41 C 0.90673 0.52014 0.65081 0.0
C42 C 0.8526 0.52463 0.47575 0.0
O43 O 0.20684 0.42758 0.89087 0.0
O44 O 0.21148 0.52217 -0.01899 0.0
O45 O 0.20035 0.58888 0.08225 0.0
O46 O 0.12752 0.61865 0.32886 0.0
O47 O 1.0331 0.44001 0.22619 0.0
O48 O 0.06857 0.53254 0.32637 0.0
O49 O 0.91501 0.53939 0.05634 0.0
O50 O 0.91249 0.44464 -0.02098 0.0
O51 O 0.92349 0.3806 0.86538 0.0
O52 O 0.98761 0.36259 0.602 0.0
O53 O 0.0932 0.53191 0.72254 0.0
O54 O 0.06057 0.43891 0.62296 0.0
C55 C 0.25651 0.4742 0.93423 0.0
C56 C 1.0543 0.48649 0.36738 0.0
C57 C 0.2366 0.67815 0.28705 0.0
C58 C 0.26085 0.75413 0.14352 0.0
C59 C 0.32341 0.75764 0.49117 0.0
C60 C 0.28692 0.70614 0.47076 0.0
C61 C 0.30798 0.78243 0.33248 0.0
C62 C 0.22909 0.70051 0.12194 0.0
C63 C 0.19952 0.62298 0.25993 0.0
C64 C 0.91166 0.66496 0.47633 0.0
C65 C 0.93801 0.71351 0.62577 0.0
H66 H 0.81388 0.57937 0.28742 0.0
C67 C 0.86618 0.49203 0.0176 0.0
C68 C 0.07501 0.48502 0.58178 0.0
C69 C 0.87918 0.29928 0.61748 0.0
C70 C 0.85082 0.21488 0.70782 0.0
C71 C 0.79437 0.22548 0.37157 0.0
C72 C 0.83274 0.27764 0.42318 0.0
C73 C 0.80531 0.19352 0.50942 0.0
C74 C 0.88388 0.26921 0.76123 0.0
C75 C 0.91829 0.3547 0.67498 0.0
H76 H 0.36146 0.77978 0.63261 0.0
H77 H 0.29799 0.68833 0.59767 0.0
H78 H 0.33328 0.8237 0.36007 0.0
H79 H 0.1982 0.67507 -0.02297 0.0
H80 H 0.76083 0.20842 0.21969 0.0
H81 H 0.82641 0.30085 0.31165 0.0
H82 H 0.77918 0.15189 0.45737 0.0
H83 H 0.91423 0.28878 0.91467 0.0
C84 C 0.87094 0.94757 0.18388 0.0
C85 C 0.93917 0.8957 0.90496 0.0
C86 C 0.86471 0.92246 -0.01894 0.0
C87 C 1.01798 0.89282 0.03775 0.0
C88 C 0.94932 0.94353 0.31834 0.0
C89 C 1.0213 0.91397 0.24487 0.0
N90 N 0.80154 0.97765 0.2496 0.0
C91 C 0.80839 0.00752 0.44704 0.0
C92 C 0.95401 0.97068 0.52238 0.0
C93 C 0.884 0.00364 0.58646 0.0
Gd94 Gd 0.42295 0.97308 0.89592 0.0
Gd95 Gd 0.67654 -0.01577 0.0088 0.0
N96 N 0.78765 0.92661 0.85709 0.0
C97 C 0.93227 0.87216 0.6981 0.0
C98 C 0.78228 0.90414 0.65309 0.0
C99 C 0.85357 0.87637 0.57198 0.0
H100 H 0.72608 0.90908 0.54595 0.0
H101 H 0.84875 0.86037 0.41037 0.0
H102 H 0.4572 0.06269 0.36498 0.0
H103 H 0.75567 0.0349 0.49601 0.0
H104 H 0.35845 0.10554 0.60455 0.0
H105 H 0.98785 0.85266 0.63279 0.0
H106 H 0.07547 0.87222 -0.01686 0.0
H107 H 0.31784 0.95644 0.42049 0.0
H108 H 1.01156 0.96662 0.63167 0.0
H109 H 0.88859 0.02483 0.74395 0.0
H110 H 0.07934 0.10096 0.17982 0.0
H111 H 0.08083 0.90885 0.34628 0.0
H112 H 0.06804 0.03757 0.45905 0.0
H113 H 0.17111 0.97907 0.25443 0.0
N114 N 0.30075 0.00609 0.7123 0.0
C115 C 0.24523 0.03812 0.82674 0.0
C116 C 0.27469 -0.01607 0.50956 0.0
C117 C 0.13247 0.02785 0.53237 0.0
C118 C 0.19072 -0.00472 0.41607 0.0
C119 C 0.15762 0.04661 0.74197 0.0
H120 H 1.02863 0.0751 0.8101 0.0
N121 N 0.35804 0.04677 0.11036 0.0
C122 C 0.27416 0.05798 0.03301 0.0
C123 C 0.24564 0.10114 0.3689 0.0
C124 C 0.21488 0.08361 0.16099 0.0
C125 C 0.38973 0.06737 0.30982 0.0
C126 C 0.33355 0.09208 0.44416 0.0
O127 O 0.62898 0.90137 0.04746 0.0
O128 O 0.49375 0.88762 0.84488 0.0
O129 O 0.30729 0.94601 -0.0261 0.0
O130 O 0.3512 0.90116 0.69261 0.0
O131 O 0.61143 0.95188 0.67466 0.0
O132 O 0.47027 -0.01614 0.62104 0.0
O133 O 0.47502 0.05339 0.84309 0.0
O134 O 0.59259 0.06391 0.08711 0.0
O135 O 0.71837 0.03125 0.82392 0.0
O136 O 0.737 0.0639 0.15408 0.0
O137 O 0.47709 0.96773 0.21709 0.0
O138 O 0.62838 0.9806 0.29936 0.0
C139 C 0.55737 0.86978 0.96632 0.0
C140 C 0.54586 0.97052 0.55992 0.0
C141 C 0.25172 0.85629 0.81941 0.0
C142 C 0.23844 0.78147 -0.02471 0.0
C143 C 0.13569 0.78985 0.67839 0.0
C144 C 0.17729 0.83696 0.67642 0.0
C145 C 0.16683 0.76158 0.82027 0.0
C146 C 0.28232 0.8294 -0.0286 0.0
C147 C 0.29157 0.90618 0.80748 0.0
C148 C 0.1258 0.08664 0.0798 0.0
C149 C 0.09718 0.06987 0.87035 0.0
H150 H 0.20222 0.12112 0.47281 0.0
C151 C 0.54262 0.08531 0.95164 0.0
C152 C 0.55171 0.97239 0.34684 0.0
C153 C 0.81993 0.10681 -0.01716 0.0
C154 C 0.86504 0.18111 0.85759 0.0
C155 C 0.94496 0.16333 0.16739 0.0
C156 C 0.89103 0.11837 0.14265 0.0
C157 C 0.9321 0.19444 0.02835 0.0
C158 C 0.80946 0.13658 0.83756 0.0
C159 C 0.74724 0.07189 -0.01691 0.0
H160 H 0.07721 0.77577 0.57421 0.0
H161 H 0.15155 0.85812 0.56253 0.0
H162 H 0.13194 0.72469 0.80688 0.0
H163 H 0.33971 0.84581 0.08211 0.0
H164 H 0.99496 0.17576 0.29922 0.0
H165 H 0.90051 0.09591 0.25682 0.0
H166 H 0.97423 0.22953 0.06035 0.0
H167 H 0.7546 0.1266 0.71574 0.0
C168 C 0.66731 0.66485 0.31032 0.0
C169 C 0.75286 0.69108 0.09618 0.0
C170 C 0.69882 0.65264 0.13156 0.0
C171 C 0.77272 0.74237 0.23869 0.0
C172 C 0.69095 0.71529 0.45847 0.0
C173 C 0.74321 0.75371 0.4221 0.0
N174 N 0.60901 0.62954 0.33462 0.0
C175 C 0.57414 0.64181 0.506 0.0
C176 C 0.65738 0.72725 0.63574 0.0
C177 C 0.6021 0.68911 0.66093 0.0
Gd178 Gd 0.57505 0.39797 0.91704 0.0
Gd179 Gd 0.54728 0.56533 0.03802 0.0
N180 N 0.67226 0.60492 -0.01295 0.0
C181 C 0.78308 0.67785 0.91537 0.0
C182 C 0.70028 0.59283 0.80609 0.0
C183 C 0.75663 0.62872 0.77108 0.0
H184 H 0.67421 0.55798 0.6844 0.0
H185 H 0.76208 0.62516 0.61995 0.0
H186 H 0.44868 0.40873 0.27252 0.0
H187 H 0.52427 0.61585 0.52214 0.0
H188 H 0.36094 0.34248 0.33861 0.0
H189 H 0.8154 0.70895 0.87496 0.0
H190 H 0.81271 0.77244 0.20986 0.0
H191 H 0.59805 0.34793 0.43216 0.0
H192 H 0.67659 0.76441 0.75739 0.0
H193 H 0.59057 0.69329 0.80786 0.0
H194 H 0.29401 0.1994 0.73397 0.0
H195 H 0.75953 0.79224 0.53555 0.0
H196 H 0.43759 0.20299 0.19615 0.0
H197 H 0.52602 0.27181 0.14566 0.0
N198 N 0.51249 0.33573 0.62056 0.0
C199 C 0.45224 0.30183 0.6453 0.0
C200 C 0.54688 0.32295 0.44861 0.0
C201 C 0.45926 0.23946 0.31899 0.0
C202 C 0.51619 0.27641 0.2936 0.0
C203 C 0.42562 0.25255 0.49578 0.0
H204 H 0.33909 0.18472 0.398 0.0
N205 N 0.44789 0.36217 -0.03133 0.0
C206 C 0.41974 0.31491 0.82349 0.0
C207 C 0.33452 0.29091 0.04029 0.0
C208 C 0.36272 0.27784 0.85702 0.0
C209 C 0.42099 0.37452 0.15052 0.0
C210 C 0.36437 0.33911 0.18645 0.0
O211 O 0.70161 0.53291 0.05143 0.0
O212 O 0.71828 0.43698 0.95275 0.0
O213 O 0.60911 0.33255 0.07954 0.0
O214 O 0.65431 0.32227 0.81019 0.0
O215 O 0.5158 0.52021 0.69919 0.0
O216 O 0.59532 0.43768 0.65767 0.0
O217 O 0.41905 0.43064 0.88925 0.0
O218 O 0.40576 0.52655 0.00874 0.0
O219 O 0.5075 0.62907 0.87104 0.0
O220 O 0.46238 0.63794 0.14143 0.0
O221 O 0.60803 0.44213 0.25646 0.0
O222 O 0.5312 0.52579 0.30077 0.0
C223 C 0.75628 0.48778 0.00721 0.0
C224 C 0.55936 0.48017 0.58723 0.0
C225 C 0.61801 0.23175 0.8638 0.0
C226 C 0.57434 0.13283 0.86972 0.0
C227 C 0.59422 0.15368 0.55934 0.0
C228 C 0.61458 0.20895 0.65596 0.0
C229 C 0.57651 0.11698 0.66396 0.0
C230 C 0.60312 0.19037 -0.02672 0.0
C231 C 0.64391 0.29634 0.9423 0.0
C232 C 0.33901 0.22774 0.71084 0.0
C233 C 0.36644 0.21749 0.5252 0.0
H234 H 0.30066 0.26032 0.08007 0.0
C235 C 0.36622 0.47639 0.94426 0.0
C236 C 0.56677 0.48308 0.37048 0.0
C237 C 0.49194 0.72767 0.08236 0.0
C238 C 0.54008 0.82239 0.06087 0.0
C239 C 0.54051 0.80313 0.38331 0.0
C240 C 0.50386 0.75089 0.29143 0.0
C241 C 0.56486 0.83543 0.27036 0.0
C242 C 0.49953 0.76766 0.96594 0.0
C243 C 0.46937 0.6636 0.00655 0.0
H244 H 0.59549 0.13868 0.4001 0.0
H245 H 0.63108 0.23359 0.56365 0.0
H246 H 0.5705 0.07404 0.58436 0.0
H247 H 0.61495 0.20124 0.13527 0.0
H248 H 0.55458 0.81762 0.54591 0.0
H249 H 0.48781 0.72765 0.3885 0.0
H250 H 0.60102 0.87244 0.35067 0.0
H251 H 0.47977 0.75523 0.80481 0.0
loop_
_geom_bond_atom_site_label_1
_geom_bond_atom_site_label_2
_geom_bond_distance
_geom_bond_site_symmetry_2
_ccdc_geom_bond_type
C0 C2 1.422 . S
C0 C4 1.415 . S
C0 N6 1.369 . S
C1 C2 1.421 . S
C1 C3 1.417 . S
C1 C13 1.422 1_556 S
C2 C0 1.422 . S
C2 C1 1.421 . S
C2 N12 1.359 . S
C3 C1 1.417 . S
C3 C5 1.329 . S
C3 H22 0.930 . S
C4 C0 1.415 . S
C4 C5 1.437 . S
C4 C8 1.413 . S
C5 C3 1.329 . S
C5 C4 1.437 . S
C5 H27 0.929 . S
N6 C0 1.369 . S
N6 C7 1.338 . S
N6 Gd11 2.622 1_455 S
C7 N6 1.338 . S
C7 C9 1.378 . S
C7 H19 0.929 . S
C8 C4 1.413 . S
C8 C9 1.348 . S
C8 H24 0.931 . S
C9 C7 1.378 . S
C9 C8 1.348 . S
C9 H25 0.930 . S
Gd10 N30 2.622 1_455 S
Gd10 N37 2.570 1_455 S
Gd10 O44 2.353 . S
Gd10 O45 2.468 1_554 S
Gd10 O46 2.427 . S
Gd10 O48 2.388 . S
Gd10 O49 2.386 1_455 S
Gd10 O53 2.307 1_454 S
Gd10 C63 2.805 . S
Gd11 N6 2.622 1_655 S
Gd11 N12 2.570 1_655 S
Gd11 O43 2.386 1_655 S
Gd11 O47 2.307 1_656 S
Gd11 O50 2.353 . S
Gd11 O51 2.468 1_556 S
Gd11 O52 2.427 . S
Gd11 O54 2.388 . S
Gd11 C75 2.805 . S
N12 C2 1.359 . S
N12 Gd11 2.570 1_455 S
N12 C14 1.343 1_556 S
C13 C1 1.422 1_554 S
C13 C15 1.321 . S
C13 H21 0.931 . S
C14 N12 1.343 1_554 S
C14 C15 1.390 . S
C14 H16 0.931 . S
C15 C13 1.321 . S
C15 C14 1.390 . S
C15 H17 0.930 . S
H16 C14 0.931 . S
H17 C15 0.930 . S
H18 C41 0.931 . S
H19 C7 0.929 . S
H20 C42 0.930 . S
H21 C13 0.931 . S
H22 C3 0.930 . S
H23 C32 0.929 . S
H24 C8 0.931 . S
H25 C9 0.930 . S
H26 C64 0.930 . S
H27 C5 0.929 . S
H28 C33 0.931 . S
H29 C34 0.930 . S
N30 Gd10 2.622 1_655 S
N30 C31 1.369 . S
N30 C32 1.338 . S
C31 N30 1.369 . S
C31 C35 1.415 . S
C31 C38 1.422 . S
C32 H23 0.929 . S
C32 N30 1.338 . S
C32 C34 1.378 . S
C33 H28 0.931 . S
C33 C34 1.348 . S
C33 C35 1.413 . S
C34 H29 0.930 . S
C34 C32 1.378 . S
C34 C33 1.348 . S
C35 C31 1.415 . S
C35 C33 1.413 . S
C35 C65 1.437 . S
H36 C65 0.929 . S
N37 Gd10 2.570 1_655 S
N37 C38 1.359 . S
N37 C41 1.343 1_554 S
C38 C31 1.422 . S
C38 N37 1.359 . S
C38 C40 1.421 . S
C39 C40 1.422 1_556 S
C39 C42 1.321 . S
C39 H66 0.931 . S
C40 C38 1.421 . S
C40 C39 1.422 1_554 S
C40 C64 1.417 . S
C41 H18 0.931 . S
C41 N37 1.343 1_556 S
C41 C42 1.390 . S
C42 H20 0.930 . S
C42 C39 1.321 . S
C42 C41 1.390 . S
O43 Gd11 2.386 1_455 S
O43 C55 1.265 1_556 S
O44 Gd10 2.353 . S
O44 C55 1.242 . S
O45 Gd10 2.468 1_556 S
O45 C63 1.263 1_556 S
O46 Gd10 2.427 . S
O46 C63 1.252 . S
O47 Gd11 2.307 1_454 S
O47 C56 1.261 . S
O48 Gd10 2.388 . S
O48 C56 1.252 . S
O49 Gd10 2.386 1_655 S
O49 C67 1.265 1_554 S
O50 Gd11 2.353 . S
O50 C67 1.242 . S
O51 Gd11 2.468 1_554 S
O51 C75 1.263 1_554 S
O52 Gd11 2.427 . S
O52 C75 1.252 . S
O53 Gd10 2.307 1_656 S
O53 C68 1.261 . S
O54 Gd11 2.388 . S
O54 C68 1.252 . S
C55 O43 1.265 1_554 S
C55 O44 1.242 . S
C56 O47 1.261 . S
C56 O48 1.252 . S
C57 C60 1.394 . S
C57 C62 1.370 . S
C57 C63 1.500 . S
C58 C61 1.383 . S
C58 C62 1.395 . S
C59 C60 1.396 . S
C59 C61 1.365 . S
C59 H76 0.929 . S
C60 C57 1.394 . S
C60 C59 1.396 . S
C60 H77 0.930 . S
C61 C58 1.383 . S
C61 C59 1.365 . S
C61 H78 0.931 . S
C62 C57 1.370 . S
C62 C58 1.395 . S
C62 H79 0.930 1_554 S
C63 Gd10 2.805 . S
C63 O45 1.263 1_554 S
C63 O46 1.252 . S
C63 C57 1.500 . S
C64 H26 0.930 . S
C64 C40 1.417 . S
C64 C65 1.329 . S
C65 C35 1.437 . S
C65 H36 0.929 . S
C65 C64 1.329 . S
H66 C39 0.931 . S
C67 O49 1.265 1_556 S
C67 O50 1.242 . S
C68 O53 1.261 . S
C68 O54 1.252 . S
C69 C72 1.394 . S
C69 C74 1.370 . S
C69 C75 1.500 . S
C70 C73 1.383 . S
C70 C74 1.395 . S
C71 C72 1.396 . S
C71 C73 1.365 . S
C71 H80 0.929 . S
C72 C69 1.394 . S
C72 C71 1.396 . S
C72 H81 0.930 . S
C73 C70 1.383 . S
C73 C71 1.365 . S
C73 H82 0.931 . S
C74 C69 1.370 . S
C74 C70 1.395 . S
C74 H83 0.930 1_556 S
C75 Gd11 2.805 . S
C75 O51 1.263 1_556 S
C75 O52 1.252 . S
C75 C69 1.500 . S
H76 C59 0.929 . S
H77 C60 0.930 . S
H78 C61 0.931 . S
H79 C62 0.930 1_556 S
H80 C71 0.929 . S
H81 C72 0.930 . S
H82 C73 0.931 . S
H83 C74 0.930 1_554 S
C84 C86 1.422 . S
C84 C88 1.415 . S
C84 N90 1.369 . S
C85 C86 1.421 1_556 S
C85 C87 1.417 1_556 S
C85 C97 1.422 . S
C86 C84 1.422 . S
C86 C85 1.421 1_554 S
C86 N96 1.359 1_554 S
C87 C85 1.417 1_554 S
C87 C89 1.329 . S
C87 H106 0.930 . S
C88 C84 1.415 . S
C88 C89 1.437 . S
C88 C92 1.413 . S
C89 C87 1.329 . S
C89 C88 1.437 . S
C89 H111 0.929 . S
N90 C84 1.369 . S
N90 C91 1.338 . S
N90 Gd95 2.622 1_565 S
C91 N90 1.338 . S
C91 C93 1.378 . S
C91 H103 0.929 1_565 S
C92 C88 1.413 . S
C92 C93 1.348 . S
C92 H108 0.931 . S
C93 C91 1.378 . S
C93 C92 1.348 . S
C93 H109 0.930 . S
Gd94 N114 2.622 1_565 S
Gd94 N121 2.570 1_566 S
Gd94 O128 2.353 . S
Gd94 O129 2.468 1_556 S
Gd94 O130 2.427 . S
Gd94 O132 2.388 . S
Gd94 O133 2.386 1_565 S
Gd94 O137 2.307 1_566 S
Gd94 C147 2.805 . S
Gd95 N90 2.622 1_545 S
Gd95 N96 2.570 1_544 S
Gd95 O127 2.386 1_545 S
Gd95 O131 2.307 1_544 S
Gd95 O134 2.353 . S
Gd95 O135 2.468 1_554 S
Gd95 O136 2.427 . S
Gd95 O138 2.388 . S
Gd95 C159 2.805 . S
N96 C86 1.359 1_556 S
N96 Gd95 2.570 1_566 S
N96 C98 1.343 . S
C97 C85 1.422 . S
C97 C99 1.321 . S
C97 H105 0.931 . S
C98 N96 1.343 . S
C98 C99 1.390 . S
C98 H100 0.931 . S
C99 C97 1.321 . S
C99 C98 1.390 . S
C99 H101 0.930 . S
H100 C98 0.931 . S
H101 C99 0.930 . S
H102 C125 0.931 . S
H103 C91 0.929 1_545 S
H104 C126 0.930 . S
H105 C97 0.931 . S
H106 C87 0.930 . S
H107 C116 0.929 1_565 S
H108 C92 0.931 . S
H109 C93 0.930 . S
H110 C148 0.930 . S
H111 C89 0.929 . S
H112 C117 0.931 . S
H113 C118 0.930 . S
N114 Gd94 2.622 1_545 S
N114 C115 1.369 . S
N114 C116 1.338 . S
C115 N114 1.369 . S
C115 C119 1.415 . S
C115 C122 1.422 . S
C116 H107 0.929 1_545 S
C116 N114 1.338 . S
C116 C118 1.378 . S
C117 H112 0.931 . S
C117 C118 1.348 . S
C117 C119 1.413 . S
C118 H113 0.930 . S
C118 C116 1.378 . S
C118 C117 1.348 . S
C119 C115 1.415 . S
C119 C117 1.413 . S
C119 C149 1.437 . S
H120 C149 0.929 . S
N121 Gd94 2.570 1_544 S
N121 C122 1.359 1_554 S
N121 C125 1.343 . S
C122 C115 1.422 . S
C122 N121 1.359 1_556 S
C122 C124 1.421 1_556 S
C123 C124 1.422 . S
C123 C126 1.321 . S
C123 H150 0.931 . S
C124 C122 1.421 1_554 S
C124 C123 1.422 . S
C124 C148 1.417 1_554 S
C125 H102 0.931 . S
C125 N121 1.343 . S
C125 C126 1.390 . S
C126 H104 0.930 . S
C126 C123 1.321 . S
C126 C125 1.390 . S
O127 Gd95 2.386 1_565 S
O127 C139 1.265 1_554 S
O128 Gd94 2.353 . S
O128 C139 1.242 . S
O129 Gd94 2.468 1_554 S
O129 C147 1.263 1_554 S
O130 Gd94 2.427 . S
O130 C147 1.252 . S
O131 Gd95 2.307 1_566 S
O131 C140 1.261 . S
O132 Gd94 2.388 . S
O132 C140 1.252 . S
O133 Gd94 2.386 1_545 S
O133 C151 1.265 1_556 S
O134 Gd95 2.353 . S
O134 C151 1.242 . S
O135 Gd95 2.468 1_556 S
O135 C159 1.263 1_556 S
O136 Gd95 2.427 . S
O136 C159 1.252 . S
O137 Gd94 2.307 1_544 S
O137 C152 1.261 . S
O138 Gd95 2.388 . S
O138 C152 1.252 . S
C139 O127 1.265 1_556 S
C139 O128 1.242 . S
C140 O131 1.261 . S
C140 O132 1.252 . S
C141 C144 1.394 . S
C141 C146 1.370 1_556 S
C141 C147 1.500 . S
C142 C145 1.383 1_554 S
C142 C146 1.395 . S
C143 C144 1.396 . S
C143 C145 1.365 . S
C143 H160 0.929 . S
C144 C141 1.394 . S
C144 C143 1.396 . S
C144 H161 0.930 . S
C145 C142 1.383 1_556 S
C145 C143 1.365 . S
C145 H162 0.931 . S
C146 C141 1.370 1_554 S
C146 C142 1.395 . S
C146 H163 0.930 . S
C147 Gd94 2.805 . S
C147 O129 1.263 1_556 S
C147 O130 1.252 . S
C147 C141 1.500 . S
C148 H110 0.930 . S
C148 C124 1.417 1_556 S
C148 C149 1.329 . S
C149 C119 1.437 . S
C149 H120 0.929 . S
C149 C148 1.329 . S
H150 C123 0.931 . S
C151 O133 1.265 1_554 S
C151 O134 1.242 . S
C152 O137 1.261 . S
C152 O138 1.252 . S
C153 C156 1.394 . S
C153 C158 1.370 1_554 S
C153 C159 1.500 . S
C154 C157 1.383 1_556 S
C154 C158 1.395 . S
C155 C156 1.396 . S
C155 C157 1.365 . S
C155 H164 0.929 . S
C156 C153 1.394 . S
C156 C155 1.396 . S
C156 H165 0.930 . S
C157 C154 1.383 1_554 S
C157 C155 1.365 . S
C157 H166 0.931 . S
C158 C153 1.370 1_556 S
C158 C154 1.395 . S
C158 H167 0.930 . S
C159 Gd95 2.805 . S
C159 O135 1.263 1_554 S
C159 O136 1.252 . S
C159 C153 1.500 . S
H160 C143 0.929 . S
H161 C144 0.930 . S
H162 C145 0.931 . S
H163 C146 0.930 . S
H164 C155 0.929 . S
H165 C156 0.930 . S
H166 C157 0.931 . S
H167 C158 0.930 . S
C168 C170 1.422 . S
C168 C172 1.415 . S
C168 N174 1.369 . S
C169 C170 1.421 . S
C169 C171 1.417 . S
C169 C181 1.422 1_554 S
C170 C168 1.422 . S
C170 C169 1.421 . S
C170 N180 1.359 . S
C171 C169 1.417 . S
C171 C173 1.329 . S
C171 H190 0.930 . S
C172 C168 1.415 . S
C172 C173 1.437 . S
C172 C176 1.413 . S
C173 C171 1.329 . S
C173 C172 1.437 . S
C173 H195 0.929 . S
N174 C168 1.369 . S
N174 C175 1.338 . S
N174 Gd179 2.622 . S
C175 N174 1.338 . S
C175 C177 1.378 . S
C175 H187 0.929 . S
C176 C172 1.413 . S
C176 C177 1.348 . S
C176 H192 0.931 . S
C177 C175 1.378 . S
C177 C176 1.348 . S
C177 H193 0.930 1_556 S
Gd178 N198 2.622 . S
Gd178 N205 2.570 . S
Gd178 O212 2.353 . S
Gd178 O213 2.468 1_556 S
Gd178 O214 2.427 . S
Gd178 O216 2.388 . S
Gd178 O217 2.386 . S
Gd178 O221 2.307 1_556 S
Gd178 C231 2.805 . S
Gd179 N174 2.622 . S
Gd179 N180 2.570 . S
Gd179 O211 2.386 . S
Gd179 O215 2.307 1_554 S
Gd179 O218 2.353 . S
Gd179 O219 2.468 1_554 S
Gd179 O220 2.427 . S
Gd179 O222 2.388 . S
Gd179 C243 2.805 . S
N180 C170 1.359 . S
N180 Gd179 2.570 . S
N180 C182 1.343 1_554 S
C181 C169 1.422 1_556 S
C181 C183 1.321 . S
C181 H189 0.931 . S
C182 N180 1.343 1_556 S
C182 C183 1.390 . S
C182 H184 0.931 . S
C183 C181 1.321 . S
C183 C182 1.390 . S
C183 H185 0.930 . S
H184 C182 0.931 . S
H185 C183 0.930 . S
H186 C209 0.931 . S
H187 C175 0.929 . S
H188 C210 0.930 . S
H189 C181 0.931 . S
H190 C171 0.930 . S
H191 C200 0.929 . S
H192 C176 0.931 . S
H193 C177 0.930 1_554 S
H194 C232 0.930 . S
H195 C173 0.929 . S
H196 C201 0.931 . S
H197 C202 0.930 1_556 S
N198 Gd178 2.622 . S
N198 C199 1.369 . S
N198 C200 1.338 . S
C199 N198 1.369 . S
C199 C203 1.415 . S
C199 C206 1.422 . S
C200 H191 0.929 . S
C200 N198 1.338 . S
C200 C202 1.378 . S
C201 H196 0.931 . S
C201 C202 1.348 . S
C201 C203 1.413 . S
C202 H197 0.930 1_554 S
C202 C200 1.378 . S
C202 C201 1.348 . S
C203 C199 1.415 . S
C203 C201 1.413 . S
C203 C233 1.437 . S
H204 C233 0.929 . S
N205 Gd178 2.570 . S
N205 C206 1.359 . S
N205 C209 1.343 1_556 S
C206 C199 1.422 . S
C206 N205 1.359 . S
C206 C208 1.421 . S
C207 C208 1.422 1_554 S
C207 C210 1.321 . S
C207 H234 0.931 . S
C208 C206 1.421 . S
C208 C207 1.422 1_556 S
C208 C232 1.417 . S
C209 H186 0.931 . S
C209 N205 1.343 1_554 S
C209 C210 1.390 . S
C210 H188 0.930 . S
C210 C207 1.321 . S
C210 C209 1.390 . S
O211 Gd179 2.386 . S
O211 C223 1.265 . S
O212 Gd178 2.353 . S
O212 C223 1.242 1_556 S
O213 Gd178 2.468 1_554 S
O213 C231 1.263 1_554 S
O214 Gd178 2.427 . S
O214 C231 1.252 . S
O215 Gd179 2.307 1_556 S
O215 C224 1.261 . S
O216 Gd178 2.388 . S
O216 C224 1.252 . S
O217 Gd178 2.386 . S
O217 C235 1.265 . S
O218 Gd179 2.353 . S
O218 C235 1.242 1_554 S
O219 Gd179 2.468 1_556 S
O219 C243 1.263 1_556 S
O220 Gd179 2.427 . S
O220 C243 1.252 . S
O221 Gd178 2.307 1_554 S
O221 C236 1.261 . S
O222 Gd179 2.388 . S
O222 C236 1.252 . S
C223 O211 1.265 . S
C223 O212 1.242 1_554 S
C224 O215 1.261 . S
C224 O216 1.252 . S
C225 C228 1.394 . S
C225 C230 1.370 1_556 S
C225 C231 1.500 . S
C226 C229 1.383 . S
C226 C230 1.395 1_556 S
C227 C228 1.396 . S
C227 C229 1.365 . S
C227 H244 0.929 . S
C228 C225 1.394 . S
C228 C227 1.396 . S
C228 H245 0.930 . S
C229 C226 1.383 . S
C229 C227 1.365 . S
C229 H246 0.931 . S
C230 C225 1.370 1_554 S
C230 C226 1.395 1_554 S
C230 H247 0.930 . S
C231 Gd178 2.805 . S
C231 O213 1.263 1_556 S
C231 O214 1.252 . S
C231 C225 1.500 . S
C232 H194 0.930 . S
C232 C208 1.417 . S
C232 C233 1.329 . S
C233 C203 1.437 . S
C233 H204 0.929 . S
C233 C232 1.329 . S
H234 C207 0.931 . S
C235 O217 1.265 . S
C235 O218 1.242 1_556 S
C236 O221 1.261 . S
C236 O222 1.252 . S
C237 C240 1.394 . S
C237 C242 1.370 1_554 S
C237 C243 1.500 . S
C238 C241 1.383 . S
C238 C242 1.395 1_554 S
C239 C240 1.396 . S
C239 C241 1.365 . S
C239 H248 0.929 . S
C240 C237 1.394 . S
C240 C239 1.396 . S
C240 H249 0.930 . S
C241 C238 1.383 . S
C241 C239 1.365 . S
C241 H250 0.931 . S
C242 C237 1.370 1_556 S
C242 C238 1.395 1_556 S
C242 H251 0.930 . S
C243 Gd179 2.805 . S
C243 O219 1.263 1_554 S
C243 O220 1.252 . S
C243 C237 1.500 . S
H244 C227 0.929 . S
H245 C228 0.930 . S
H246 C229 0.931 . S
H247 C230 0.930 . S
H248 C239 0.929 . S
H249 C240 0.930 . S
H250 C241 0.931 . S
H251 C242 0.930 . S
C68 C56 1.559 1_655 S
C152 C140 1.726 1_545 S
C224 C236 1.403 . S
C55 C235 3.605 1_554 S
C154 C70 1.180 . S
C139 C238 3.431 1_556 S
C67 C223 3.607 1_556 S
C58 C142 1.184 . S
C226 C151 3.429 1_556 S
