# Generated by pormake.
# Topology kag, (6)-cn, num edge types: 1
# Building blocks:
#     Node 0, Type 0, BuildingBlock: MIFKUJ_clean_sbu_0, # of connection points: 6
#     Node 1, Type 0, BuildingBlock: MIFKUJ_clean_sbu_0, # of connection points: 6
#     Node 2, Type 0, BuildingBlock: MIFKUJ_clean_sbu_0, # of connection points: 6
#     Edge 3, Type (0, 0), BuildingBlock: KIFKEQ_clean_linker_1, # of connection points: 2
#     Edge 4, Type (0, 0), BuildingBlock: KIFKEQ_clean_linker_1, # of connection points: 2
#     Edge 5, Type (0, 0), BuildingBlock: KIFKEQ_clean_linker_1, # of connection points: 2
#     Edge 6, Type (0, 0), BuildingBlock: KIFKEQ_clean_linker_1, # of connection points: 2
#     Edge 7, Type (0, 0), BuildingBlock: KIFKEQ_clean_linker_1, # of connection points: 2
#     Edge 8, Type (0, 0), BuildingBlock: KIFKEQ_clean_linker_1, # of connection points: 2
#     Edge 9, Type (0, 0), BuildingBlock: KIFKEQ_clean_linker_1, # of connection points: 2
#     Edge 10, Type (0, 0), BuildingBlock: KIFKEQ_clean_linker_1, # of connection points: 2
#     Edge 11, Type (0, 0), BuildingBlock: KIFKEQ_clean_linker_1, # of connection points: 2
# Relax obj value: 0.013
# Max RMSD: 0.072
# Mean RMSD: 0.048
data_MOF--net-kag--node1-MIFKUJ_clean_sbu_0--edge1-KIFKEQ_clean_linker_1
_symmetry_space_group_name_H-M    P1
_symmetry_Int_Tables_number       1
_symmetry_cell_setting            triclinic
loop_
_symmetry_equiv_pos_as_xyz
'x, y, z'
_cell_length_a     35.735599
_cell_length_b     34.699765
_cell_length_c     14.620865
_cell_angle_alpha  92.029043
_cell_angle_beta   96.872417
_cell_angle_gamma 115.79795
loop_
_atom_site_label
_atom_site_type_symbol
_atom_site_fract_x
_atom_site_fract_y
_atom_site_fract_z
_atom_type_partial_charge
Zn0 Zn 0.05273 0.56017 0.96411 0.0
Zn1 Zn 0.95142 0.46404 0.94523 0.0
C2 C 0.11615 0.54134 0.05737 0.0
O3 O 0.11714 0.5711 0.11711 0.0
C4 C 0.90895 0.51954 0.96223 0.0
O5 O 0.93903 0.54712 0.92142 0.0
O6 O 0.09427 0.6226 0.9719 0.0
O7 O 0.02273 0.54435 0.83407 0.0
O8 O 0.96533 0.48204 0.81893 0.0
C9 C 0.11761 0.63358 0.90909 0.0
O10 O 0.11208 0.6045 0.84209 0.0
O11 O 0.08875 0.52881 -0.01501 0.0
C12 C 0.90904 0.3792 0.00176 0.0
O13 O 0.9205 0.40089 0.08385 0.0
O14 O 0.92018 0.3994 0.93139 0.0
O15 O 0.99832 0.483 0.05331 0.0
O16 O 0.01857 0.5526 0.06705 0.0
O17 O 0.90891 0.48381 0.97884 0.0
C18 C 0.99166 0.51393 0.78407 0.0
C19 C 1.00394 0.5168 0.10134 0.0
Zn20 Zn 0.47045 0.95041 0.92414 0.0
Zn21 Zn 0.56478 0.05296 0.94994 0.0
C22 C 0.4797 0.87538 0.89129 0.0
O23 O 0.45574 0.87546 0.8158 0.0
C24 C 0.55317 0.12249 0.02691 0.0
O25 O 0.58477 0.1243 0.086 0.0
O26 O 0.40762 0.91631 0.91071 0.0
O27 O 0.48798 0.99546 0.03097 0.0
O28 O 0.55582 0.01524 0.05346 0.0
C29 C 0.39282 0.89679 0.97955 0.0
O30 O 0.41872 0.90202 0.05588 0.0
O31 O 0.49267 0.90676 0.95359 0.0
C32 C 0.65318 0.09656 0.91576 0.0
O33 O 0.64143 0.06931 0.84138 0.0
O34 O 0.62653 0.09386 0.96857 0.0
O35 O 0.54887 0.02531 0.82022 0.0
O36 O 0.48559 0.96941 0.80039 0.0
O37 O 0.53627 0.09188 0.96232 0.0
C38 C 0.521 1.00097 0.08405 0.0
C39 C 0.51753 0.996 0.76836 0.0
Zn40 Zn 0.55277 0.48629 0.05286 0.0
Zn41 Zn 0.45579 0.51096 0.04157 0.0
C42 C 0.50985 0.39058 0.02725 0.0
O43 O 0.478 0.39282 0.05942 0.0
C44 C 0.48773 0.59268 0.96293 0.0
O45 O 0.4757 0.5675 0.88525 0.0
O46 O 0.61645 0.51683 0.07283 0.0
O47 O 0.53044 0.50926 0.9457 0.0
O48 O 0.46131 0.48057 0.92794 0.0
C49 C 0.63618 0.52979 0.00457 0.0
O50 O 0.61478 0.52788 0.92361 0.0
O51 O 0.54157 0.42509 0.01656 0.0
C52 C 0.37805 0.49873 0.10596 0.0
O53 O 0.4013 0.50693 0.18749 0.0
O54 O 0.39421 0.49732 0.0337 0.0
O55 O 0.47348 0.49489 0.16428 0.0
O56 O 0.53245 0.48695 0.17569 0.0
O57 O 0.48462 0.57587 0.0393 0.0
C58 C 0.49496 0.48723 0.89626 0.0
C59 C 0.50204 0.48811 0.21094 0.0
H60 H 0.038 0.57954 0.68702 0.0
H61 H 0.93675 0.45044 0.65043 0.0
H62 H 0.03615 0.57932 0.52046 0.0
H63 H 0.93458 0.45062 0.4828 0.0
H64 H 0.98956 0.45033 0.20894 0.0
H65 H 0.98117 0.44942 0.37195 0.0
H66 H 0.99301 0.57883 0.37702 0.0
H67 H 1.00163 0.57986 0.21407 0.0
C68 C 0.015 0.55124 0.64347 0.0
C69 C 0.98771 0.51487 0.68228 0.0
C70 C 0.01377 0.55127 0.54778 0.0
C71 C 0.98528 0.51492 0.48847 0.0
C72 C 0.95719 0.47893 0.52691 0.0
C73 C 0.95829 0.47895 0.62287 0.0
C74 C 0.98973 0.47834 0.24441 0.0
C75 C 0.99636 0.5152 0.19863 0.0
C76 C 0.98481 0.47777 0.33779 0.0
C77 C 0.98655 0.5141 0.3874 0.0
C78 C 0.99209 0.55054 0.34094 0.0
C79 C 0.99696 0.5511 0.24758 0.0
H80 H 0.58531 0.00811 0.21539 0.0
H81 H 0.45392 0.98071 0.17659 0.0
H82 H 0.58424 0.00252 0.38075 0.0
H83 H 0.45316 0.97584 0.34207 0.0
H84 H 0.57829 0.04948 0.67416 0.0
H85 H 0.57863 0.04646 0.50813 0.0
H86 H 0.45927 0.93291 0.46816 0.0
H87 H 0.45841 0.9362 0.63474 0.0
C88 C 0.55619 1.00078 0.24207 0.0
C89 C 0.51978 0.99516 0.18313 0.0
C90 C 0.55564 0.99771 0.33673 0.0
C91 C 0.5187 0.98902 0.37421 0.0
C92 C 0.48197 0.98215 0.31492 0.0
C93 C 0.4825 0.98518 0.22023 0.0
C94 C 0.55216 0.02371 0.63024 0.0
C95 C 0.51821 0.9932 0.66771 0.0
C96 C 0.55253 0.02184 0.53509 0.0
C97 C 0.51902 0.9894 0.47536 0.0
C98 C 0.48531 0.95852 0.51267 0.0
C99 C 0.48491 0.96037 0.60802 0.0
H100 H 0.43758 0.49059 0.76005 0.0
H101 H 0.54828 0.4691 0.80514 0.0
H102 H 0.439 0.48757 0.59457 0.0
H103 H 0.54854 0.46337 0.6385 0.0
H104 H 0.56748 0.50944 0.35072 0.0
H105 H 0.56431 0.50519 0.51564 0.0
H106 H 0.42839 0.4466 0.45817 0.0
H107 H 0.43205 0.45358 0.29419 0.0
C108 C 0.46179 0.48435 0.73419 0.0
C109 C 0.49318 0.48065 0.79535 0.0
C110 C 0.46249 0.4823 0.63895 0.0
C111 C 0.49403 0.47539 0.60234 0.0
C112 C 0.5244 0.46984 0.66385 0.0
C113 C 0.52419 0.47287 0.75936 0.0
C114 C 0.53699 0.4955 0.37365 0.0
C115 C 0.50005 0.48229 0.30998 0.0
C116 C 0.53506 0.49273 0.46825 0.0
C117 C 0.49605 0.47576 0.50106 0.0
C118 C 0.45906 0.46094 0.4363 0.0
C119 C 0.46107 0.46466 0.34207 0.0
H120 H 0.12752 0.48462 0.94131 0.0
H121 H 0.18114 0.56583 0.19941 0.0
H122 H 0.18687 0.46682 0.95431 0.0
H123 H 0.24069 0.5491 0.21108 0.0
H124 H 0.33184 0.49276 0.24531 0.0
H125 H 0.26447 0.49534 0.23581 0.0
H126 H 0.26045 0.50232 0.94051 0.0
H127 H 0.32722 0.49841 0.9497 0.0
C128 C 0.15175 0.49839 0.00118 0.0
C129 C 0.14965 0.52682 0.0691 0.0
C130 C 0.18593 0.48842 0.0083 0.0
C131 C 0.21876 0.50666 0.08349 0.0
C132 C 0.21581 0.53393 0.15283 0.0
C133 C 0.18168 0.54379 0.14582 0.0
C134 C 0.31634 0.49432 0.17816 0.0
C135 C 0.33511 0.49576 0.09839 0.0
C136 C 0.27778 0.49604 0.17277 0.0
C137 C 0.25716 0.49956 0.08757 0.0
C138 C 0.27515 0.4992 0.00719 0.0
C139 C 0.31361 0.49719 0.0125 0.0
H140 H 0.68542 0.15935 0.05996 0.0
H141 H 0.71736 0.11652 0.81253 0.0
H142 H 0.7521 0.22336 0.08207 0.0
H143 H 0.78507 0.1805 0.83622 0.0
H144 H 0.86623 0.32876 0.84038 0.0
H145 H 0.80889 0.25638 0.82328 0.0
H146 H 0.82677 0.25231 0.11978 0.0
H147 H 0.88328 0.3253 0.13707 0.0
C148 C 0.707 0.16321 0.01101 0.0
C149 C 0.69586 0.13294 0.93398 0.0
C150 C 0.74551 0.19988 0.02416 0.0
C151 C 0.77403 0.2072 0.96087 0.0
C152 C 0.7636 0.17611 0.88563 0.0
C153 C 0.7249 0.13934 0.87233 0.0
C154 C 0.85836 0.31219 0.90184 0.0
C155 C 0.87888 0.33304 -0.00977 0.0
C156 C 0.82559 0.27052 0.89198 0.0
C157 C 0.81282 0.24866 0.97026 0.0
C158 C 0.83518 0.26858 0.05819 0.0
C159 C 0.86773 0.31035 0.06808 0.0
H160 H 0.52326 0.86022 0.04322 0.0
H161 H 0.45601 0.8052 0.76888 0.0
H162 H 0.53395 0.79581 0.06487 0.0
H163 H 0.46558 0.74111 0.79112 0.0
H164 H 0.50938 0.64076 0.81753 0.0
H165 H 0.51559 0.71293 0.80379 0.0
H166 H 0.49358 0.72067 0.08663 0.0
H167 H 0.48884 0.64888 0.10124 0.0
C168 C 0.51099 0.83457 -0.01256 0.0
C169 C 0.48876 0.8379 0.90435 0.0
C170 C 0.5169 0.79757 -0.0 0.0
C171 C 0.50081 0.76322 0.92963 0.0
C172 C 0.47922 0.76711 0.84622 0.0
C173 C 0.47338 0.80389 0.83372 0.0
C174 C 0.50659 0.65814 0.87732 0.0
C175 C 0.49813 0.63887 0.96009 0.0
C176 C 0.50986 0.69946 0.86929 0.0
C177 C 0.50424 0.7224 0.94348 0.0
C178 C 0.49829 0.70412 0.02816 0.0
C179 C 0.49543 0.66284 0.03648 0.0
H180 H 0.89311 0.58752 0.91633 0.0
H181 H 0.84453 0.47126 0.05427 0.0
H182 H 0.83151 0.59826 0.9388 0.0
H183 H 0.78294 0.48167 0.07541 0.0
H184 H 0.68688 0.52217 0.15206 0.0
H185 H 0.75707 0.52671 0.15355 0.0
H186 H 0.75688 0.56212 0.8733 0.0
H187 H 0.68717 0.55824 0.87217 0.0
C188 C 0.86952 0.56447 0.95214 0.0
C189 C 0.87359 0.52833 0.98275 0.0
C190 C 0.83415 0.57054 0.96468 0.0
C191 C 0.80221 0.54076 0.0086 0.0
C192 C 0.80714 0.50553 0.0423 0.0
C193 C 0.84235 0.49937 0.02945 0.0
C194 C 0.70215 0.53176 0.09141 0.0
C195 C 0.6812 0.53942 0.01164 0.0
C196 C 0.74227 0.53406 0.09207 0.0
C197 C 0.7624 0.54429 0.01319 0.0
C198 C 0.74245 0.55444 0.93548 0.0
C199 C 0.70231 0.55199 0.93468 0.0
H200 H 0.14408 0.6988 0.04843 0.0
H201 H 0.17151 0.66671 0.7842 0.0
H202 H 0.2067 0.76781 0.06464 0.0
H203 H 0.23425 0.73503 0.80122 0.0
H204 H 0.33243 0.8718 0.82632 0.0
H205 H 0.26155 0.81289 0.80759 0.0
H206 H 0.28214 0.78954 0.09327 0.0
H207 H 0.35248 0.84878 0.11254 0.0
C208 C 0.1632 0.70662 -0.00657 0.0
C209 C 0.153 0.67712 0.91537 0.0
C210 C 0.19918 0.74605 0.00294 0.0
C211 C 0.22559 0.75684 0.93445 0.0
C212 C 0.21437 0.72801 0.85477 0.0
C213 C 0.17852 0.68863 0.84536 0.0
C214 C 0.32158 0.85451 0.8855 0.0
C215 C 0.34825 0.86471 0.97068 0.0
C216 C 0.28105 0.82062 0.87461 0.0
C217 C 0.26632 0.79628 0.9487 0.0
C218 C 0.29231 0.80786 0.03501 0.0
C219 C 0.33281 0.84168 0.04587 0.0
H220 H 0.44791 0.30927 0.03873 0.0
H221 H 0.57664 0.37744 -0.00985 0.0
H222 H 0.45478 0.24189 0.03588 0.0
H223 H 0.58332 0.31058 -0.01153 0.0
H224 H 0.59607 0.20014 0.12865 0.0
H225 H 0.58224 0.26277 0.12163 0.0
H226 H 0.47103 0.19075 0.92209 0.0
H227 H 0.48512 0.12754 0.92785 0.0
C228 C 0.47745 0.30986 0.02648 0.0
C229 C 0.51182 0.34886 0.01544 0.0
C230 C 0.48129 0.2713 0.02467 0.0
C231 C 0.51973 0.27121 0.0131 0.0
C232 C 0.55351 0.30986 -0.00122 0.0
C233 C 0.54955 0.34814 -0.00065 0.0
C234 C 0.5684 0.19731 0.08377 0.0
C235 C 0.54179 0.15881 0.02848 0.0
C236 C 0.56067 0.23335 0.0794 0.0
C237 C 0.52583 0.23171 0.02064 0.0
C238 C 0.49813 0.19282 0.96795 0.0
C239 C 0.50625 0.15675 0.9712 0.0
loop_
_geom_bond_atom_site_label_1
_geom_bond_atom_site_label_2
_geom_bond_distance
_geom_bond_site_symmetry_2
_ccdc_geom_bond_type
Zn0 O6 1.969 . S
Zn0 O7 1.965 1_554 S
Zn0 O11 2.024 1_554 S
Zn0 O16 1.969 . S
Zn1 O8 1.969 . S
Zn1 O14 1.969 . S
Zn1 O15 1.965 1_556 S
Zn1 O17 2.024 1_556 S
C2 O3 1.229 . S
C2 O11 1.058 1_554 S
O3 C2 1.229 . S
C4 O5 1.229 . S
C4 O17 1.058 1_556 S
O5 C4 1.229 . S
O6 Zn0 1.969 . S
O6 C9 1.267 1_554 S
O7 Zn0 1.965 1_556 S
O7 C18 1.260 1_455 S
O8 Zn1 1.969 . S
O8 C18 1.258 . S
C9 O6 1.267 1_556 S
C9 O10 1.228 . S
O10 C9 1.228 . S
O11 Zn0 2.024 1_556 S
O11 C2 1.058 1_556 S
C12 O13 1.228 . S
C12 O14 1.267 1_554 S
O13 C12 1.228 . S
O14 Zn1 1.969 . S
O14 C12 1.267 1_556 S
O15 Zn1 1.965 1_554 S
O15 C19 1.260 1_655 S
O16 Zn0 1.969 . S
O16 C19 1.258 . S
O17 Zn1 2.024 1_554 S
O17 C4 1.058 1_554 S
C18 O7 1.260 1_655 S
C18 O8 1.258 . S
C19 O15 1.260 1_455 S
C19 O16 1.258 . S
Zn20 O26 1.969 . S
Zn20 O27 1.965 1_556 S
Zn20 O31 2.024 1_556 S
Zn20 O36 1.969 . S
Zn21 O28 1.969 . S
Zn21 O34 1.969 . S
Zn21 O35 1.965 1_554 S
Zn21 O37 2.024 1_554 S
C22 O23 1.229 . S
C22 O31 1.058 1_556 S
O23 C22 1.229 . S
C24 O25 1.229 . S
C24 O37 1.058 1_554 S
O25 C24 1.229 . S
O26 Zn20 1.969 . S
O26 C29 1.267 1_556 S
O27 Zn20 1.965 1_554 S
O27 C38 1.260 1_565 S
O28 Zn21 1.969 . S
O28 C38 1.258 . S
C29 O26 1.267 1_554 S
C29 O30 1.228 . S
O30 C29 1.228 . S
O31 Zn20 2.024 1_554 S
O31 C22 1.058 1_554 S
C32 O33 1.228 . S
C32 O34 1.267 1_556 S
O33 C32 1.228 . S
O34 Zn21 1.969 . S
O34 C32 1.267 1_554 S
O35 Zn21 1.965 1_556 S
O35 C39 1.260 1_545 S
O36 Zn20 1.969 . S
O36 C39 1.258 . S
O37 Zn21 2.024 1_556 S
O37 C24 1.058 1_556 S
C38 O27 1.260 1_545 S
C38 O28 1.258 . S
C39 O35 1.260 1_565 S
C39 O36 1.258 . S
Zn40 O46 1.969 . S
Zn40 O47 1.965 1_554 S
Zn40 O51 2.024 1_554 S
Zn40 O56 1.969 . S
Zn41 O48 1.969 . S
Zn41 O54 1.969 . S
Zn41 O55 1.965 1_556 S
Zn41 O57 2.024 1_556 S
C42 O43 1.229 . S
C42 O51 1.058 1_554 S
O43 C42 1.229 . S
C44 O45 1.229 . S
C44 O57 1.058 1_556 S
O45 C44 1.229 . S
O46 Zn40 1.969 . S
O46 C49 1.267 1_554 S
O47 Zn40 1.965 1_556 S
O47 C58 1.260 . S
O48 Zn41 1.969 . S
O48 C58 1.258 . S
C49 O46 1.267 1_556 S
C49 O50 1.228 . S
O50 C49 1.228 . S
O51 Zn40 2.024 1_556 S
O51 C42 1.058 1_556 S
C52 O53 1.228 . S
C52 O54 1.267 1_554 S
O53 C52 1.228 . S
O54 Zn41 1.969 . S
O54 C52 1.267 1_556 S
O55 Zn41 1.965 1_554 S
O55 C59 1.260 . S
O56 Zn40 1.969 . S
O56 C59 1.258 . S
O57 Zn41 2.024 1_554 S
O57 C44 1.058 1_554 S
C58 O47 1.260 . S
C58 O48 1.258 . S
C59 O55 1.260 . S
C59 O56 1.258 . S
H60 C68 0.950 . S
H61 C73 0.950 . S
H62 C70 0.950 . S
H63 C72 0.950 . S
H64 C74 0.950 . S
H65 C76 0.950 . S
H66 C78 0.950 . S
H67 C79 0.950 . S
C68 H60 0.950 . S
C68 C69 1.376 1_655 S
C68 C70 1.391 . S
C69 C68 1.376 1_455 S
C69 C73 1.406 . S
C70 H62 0.950 . S
C70 C68 1.391 . S
C70 C71 1.400 1_655 S
C71 C70 1.400 1_455 S
C71 C72 1.398 . S
C71 C77 1.487 . S
C72 H63 0.950 . S
C72 C71 1.398 . S
C72 C73 1.391 . S
C73 H61 0.950 . S
C73 C69 1.406 . S
C73 C72 1.391 . S
C74 H64 0.950 . S
C74 C75 1.386 . S
C74 C76 1.391 . S
C75 C74 1.386 . S
C75 C79 1.393 1_455 S
C76 H65 0.950 . S
C76 C74 1.391 . S
C76 C77 1.420 . S
C77 C71 1.487 . S
C77 C76 1.420 . S
C77 C78 1.383 1_455 S
C78 H66 0.950 . S
C78 C77 1.383 1_655 S
C78 C79 1.391 . S
C79 H67 0.950 . S
C79 C75 1.393 1_655 S
C79 C78 1.391 . S
H80 C88 0.950 . S
H81 C93 0.950 . S
H82 C90 0.950 . S
H83 C92 0.950 . S
H84 C94 0.950 . S
H85 C96 0.950 . S
H86 C98 0.950 . S
H87 C99 0.950 . S
C88 H80 0.950 . S
C88 C89 1.386 1_565 S
C88 C90 1.391 . S
C89 C88 1.386 1_545 S
C89 C93 1.393 . S
C90 H82 0.950 . S
C90 C88 1.391 . S
C90 C91 1.400 1_565 S
C91 C90 1.400 1_545 S
C91 C92 1.398 . S
C91 C97 1.492 . S
C92 H83 0.950 . S
C92 C91 1.398 . S
C92 C93 1.391 . S
C93 H81 0.950 . S
C93 C89 1.393 . S
C93 C92 1.391 . S
C94 H84 0.950 . S
C94 C95 1.389 . S
C94 C96 1.391 . S
C95 C94 1.389 . S
C95 C99 1.390 1_545 S
C96 H85 0.950 . S
C96 C94 1.391 . S
C96 C97 1.420 . S
C97 C91 1.492 . S
C97 C96 1.420 . S
C97 C98 1.377 1_545 S
C98 H86 0.950 . S
C98 C97 1.377 1_565 S
C98 C99 1.391 . S
C99 H87 0.950 . S
C99 C95 1.390 1_565 S
C99 C98 1.391 . S
H100 C108 0.950 . S
H101 C113 0.950 . S
H102 C110 0.950 . S
H103 C112 0.950 . S
H104 C114 0.950 . S
H105 C116 0.950 . S
H106 C118 0.950 . S
H107 C119 0.950 . S
C108 H100 0.950 . S
C108 C109 1.386 . S
C108 C110 1.391 . S
C109 C108 1.386 . S
C109 C113 1.393 . S
C110 H102 0.950 . S
C110 C108 1.391 . S
C110 C111 1.400 . S
C111 C110 1.400 . S
C111 C112 1.398 . S
C111 C117 1.491 . S
C112 H103 0.950 . S
C112 C111 1.398 . S
C112 C113 1.391 . S
C113 H101 0.950 . S
C113 C109 1.393 . S
C113 C112 1.391 . S
C114 H104 0.950 . S
C114 C115 1.386 . S
C114 C116 1.391 . S
C115 C114 1.386 . S
C115 C119 1.393 . S
C116 H105 0.950 . S
C116 C114 1.391 . S
C116 C117 1.400 . S
C117 C111 1.491 . S
C117 C116 1.400 . S
C117 C118 1.398 . S
C118 H106 0.950 . S
C118 C117 1.398 . S
C118 C119 1.391 . S
C119 H107 0.950 . S
C119 C115 1.393 . S
C119 C118 1.391 . S
H120 C128 0.950 1_556 S
H121 C133 0.950 . S
H122 C130 0.950 1_556 S
H123 C132 0.950 . S
H124 C134 0.950 . S
H125 C136 0.950 . S
H126 C138 0.950 . S
H127 C139 0.950 . S
C128 H120 0.950 1_554 S
C128 C129 1.386 . S
C128 C130 1.391 . S
C129 C128 1.386 . S
C129 C133 1.393 . S
C130 H122 0.950 1_554 S
C130 C128 1.391 . S
C130 C131 1.400 . S
C131 C130 1.400 . S
C131 C132 1.398 . S
C131 C137 1.491 . S
C132 H123 0.950 . S
C132 C131 1.398 . S
C132 C133 1.391 . S
C133 H121 0.950 . S
C133 C129 1.393 . S
C133 C132 1.391 . S
C134 H124 0.950 . S
C134 C135 1.386 . S
C134 C136 1.391 . S
C135 C134 1.386 . S
C135 C139 1.393 1_554 S
C136 H125 0.950 . S
C136 C134 1.391 . S
C136 C137 1.400 . S
C137 C131 1.491 . S
C137 C136 1.400 . S
C137 C138 1.398 1_554 S
C138 H126 0.950 . S
C138 C137 1.398 1_556 S
C138 C139 1.391 . S
C139 H127 0.950 . S
C139 C135 1.393 1_556 S
C139 C138 1.391 . S
H140 C148 0.950 . S
H141 C153 0.950 . S
H142 C150 0.950 . S
H143 C152 0.950 . S
H144 C154 0.950 . S
H145 C156 0.950 . S
H146 C158 0.950 . S
H147 C159 0.950 . S
C148 H140 0.950 . S
C148 C149 1.386 1_554 S
C148 C150 1.391 . S
C149 C148 1.386 1_556 S
C149 C153 1.393 . S
C150 H142 0.950 . S
C150 C148 1.391 . S
C150 C151 1.403 . S
C151 C150 1.403 . S
C151 C152 1.396 1_554 S
C151 C157 1.490 . S
C152 H143 0.950 . S
C152 C151 1.396 1_556 S
C152 C153 1.391 . S
C153 H141 0.950 . S
C153 C149 1.393 . S
C153 C152 1.391 . S
C154 H144 0.950 . S
C154 C155 1.386 1_556 S
C154 C156 1.391 . S
C155 C154 1.386 1_554 S
C155 C159 1.393 . S
C156 H145 0.950 . S
C156 C154 1.391 . S
C156 C157 1.400 1_556 S
C157 C151 1.490 . S
C157 C156 1.400 1_554 S
C157 C158 1.398 . S
C158 H146 0.950 . S
C158 C157 1.398 . S
C158 C159 1.391 . S
C159 H147 0.950 . S
C159 C155 1.393 . S
C159 C158 1.391 . S
H160 C168 0.950 . S
H161 C173 0.950 . S
H162 C170 0.950 . S
H163 C172 0.950 . S
H164 C174 0.950 . S
H165 C176 0.950 . S
H166 C178 0.950 . S
H167 C179 0.950 . S
C168 H160 0.950 . S
C168 C169 1.386 1_554 S
C168 C170 1.391 . S
C169 C168 1.386 1_556 S
C169 C173 1.393 . S
C170 H162 0.950 . S
C170 C168 1.391 . S
C170 C171 1.400 1_554 S
C171 C170 1.400 1_556 S
C171 C172 1.398 . S
C171 C177 1.491 . S
C172 H163 0.950 . S
C172 C171 1.398 . S
C172 C173 1.391 . S
C173 H161 0.950 . S
C173 C169 1.393 . S
C173 C172 1.391 . S
C174 H164 0.950 . S
C174 C175 1.385 1_556 S
C174 C176 1.391 . S
C175 C174 1.385 1_554 S
C175 C179 1.393 . S
C176 H165 0.950 . S
C176 C174 1.391 . S
C176 C177 1.400 . S
C177 C171 1.491 . S
C177 C176 1.400 . S
C177 C178 1.398 1_556 S
C178 H166 0.950 . S
C178 C177 1.398 1_554 S
C178 C179 1.391 . S
C179 H167 0.950 . S
C179 C175 1.393 . S
C179 C178 1.391 . S
H180 C188 0.950 . S
H181 C193 0.950 . S
H182 C190 0.950 . S
H183 C192 0.950 . S
H184 C194 0.950 . S
H185 C196 0.950 . S
H186 C198 0.950 . S
H187 C199 0.950 . S
C188 H180 0.950 . S
C188 C189 1.386 . S
C188 C190 1.391 . S
C189 C188 1.386 . S
C189 C193 1.393 1_556 S
C190 H182 0.950 . S
C190 C188 1.391 . S
C190 C191 1.400 . S
C191 C190 1.400 . S
C191 C192 1.398 1_556 S
C191 C197 1.491 . S
C192 H183 0.950 . S
C192 C191 1.398 1_554 S
C192 C193 1.391 . S
C193 H181 0.950 . S
C193 C189 1.393 1_554 S
C193 C192 1.391 . S
C194 H184 0.950 . S
C194 C195 1.386 1_554 S
C194 C196 1.391 . S
C195 C194 1.386 1_556 S
C195 C199 1.393 . S
C196 H185 0.950 . S
C196 C194 1.391 . S
C196 C197 1.400 1_554 S
C197 C191 1.491 . S
C197 C196 1.400 1_556 S
C197 C198 1.398 . S
C198 H186 0.950 . S
C198 C197 1.398 . S
C198 C199 1.391 . S
C199 H187 0.950 . S
C199 C195 1.393 . S
C199 C198 1.391 . S
H200 C208 0.950 . S
H201 C213 0.950 . S
H202 C210 0.950 . S
H203 C212 0.950 . S
H204 C214 0.950 . S
H205 C216 0.950 . S
H206 C218 0.950 . S
H207 C219 0.950 . S
C208 H200 0.950 . S
C208 C209 1.386 1_554 S
C208 C210 1.391 . S
C209 C208 1.386 1_556 S
C209 C213 1.393 . S
C210 H202 0.950 . S
C210 C208 1.391 . S
C210 C211 1.400 1_554 S
C211 C210 1.400 1_556 S
C211 C212 1.398 . S
C211 C217 1.491 1_556 S
C212 H203 0.950 . S
C212 C211 1.398 . S
C212 C213 1.391 . S
C213 H201 0.950 . S
C213 C209 1.393 . S
C213 C212 1.391 . S
C214 H204 0.950 . S
C214 C215 1.386 1_556 S
C214 C216 1.391 . S
C215 C214 1.386 1_554 S
C215 C219 1.393 . S
C216 H205 0.950 . S
C216 C214 1.391 . S
C216 C217 1.400 1_556 S
C217 C211 1.491 1_554 S
C217 C216 1.400 1_554 S
C217 C218 1.398 . S
C218 H206 0.950 . S
C218 C217 1.398 . S
C218 C219 1.391 . S
C219 H207 0.950 . S
C219 C215 1.393 . S
C219 C218 1.391 . S
H220 C228 0.950 . S
H221 C233 0.950 . S
H222 C230 0.950 . S
H223 C232 0.950 . S
H224 C234 0.950 . S
H225 C236 0.950 . S
H226 C238 0.950 . S
H227 C239 0.950 . S
C228 H220 0.950 . S
C228 C229 1.386 . S
C228 C230 1.391 . S
C229 C228 1.386 . S
C229 C233 1.393 1_556 S
C230 H222 0.950 . S
C230 C228 1.391 . S
C230 C231 1.400 . S
C231 C230 1.400 . S
C231 C232 1.398 1_556 S
C231 C237 1.491 1_556 S
C232 H223 0.950 . S
C232 C231 1.398 1_554 S
C232 C233 1.391 . S
C233 H221 0.950 . S
C233 C229 1.393 1_554 S
C233 C232 1.391 . S
C234 H224 0.950 . S
C234 C235 1.386 . S
C234 C236 1.391 . S
C235 C234 1.386 . S
C235 C239 1.393 1_554 S
C236 H225 0.950 . S
C236 C234 1.391 . S
C236 C237 1.400 . S
C237 C231 1.491 1_554 S
C237 C236 1.400 . S
C237 C238 1.398 1_554 S
C238 H226 0.950 . S
C238 C237 1.398 1_556 S
C238 C239 1.391 . S
C239 H227 0.950 . S
C239 C235 1.393 1_556 S
C239 C238 1.391 . S
C69 C18 1.494 1_455 S
C75 C19 1.500 . S
C89 C38 1.480 . S
C95 C39 1.479 1_545 S
C109 C58 1.474 . S
C115 C59 1.474 . S
C129 C2 1.311 . S
C135 C52 1.376 . S
C149 C32 1.296 . S
C155 C12 1.268 . S
C169 C22 1.381 . S
C175 C44 1.399 1_554 S
C189 C4 1.301 . S
C195 C49 1.376 . S
C209 C9 1.279 . S
C215 C29 1.283 . S
C229 C42 1.390 1_556 S
C235 C24 1.393 . S
