# Generated by pormake.
# Topology lon, (4)-cn, num edge types: 1
# Building blocks:
#     Node 0, Type 0, BuildingBlock: QUQFOY_clean_sbu_1, # of connection points: 4
#     Node 1, Type 0, BuildingBlock: QUQFOY_clean_sbu_1, # of connection points: 4
#     Node 2, Type 0, BuildingBlock: QUQFOY_clean_sbu_1, # of connection points: 4
#     Node 3, Type 0, BuildingBlock: QUQFOY_clean_sbu_1, # of connection points: 4
#     Edge 4, Type (0, 0), BuildingBlock: XIVTED_clean_linker_0, # of connection points: 2
#     Edge 5, Type (0, 0), BuildingBlock: XIVTED_clean_linker_0, # of connection points: 2
#     Edge 6, Type (0, 0), BuildingBlock: XIVTED_clean_linker_0, # of connection points: 2
#     Edge 7, Type (0, 0), BuildingBlock: XIVTED_clean_linker_0, # of connection points: 2
#     Edge 8, Type (0, 0), BuildingBlock: XIVTED_clean_linker_0, # of connection points: 2
#     Edge 9, Type (0, 0), BuildingBlock: XIVTED_clean_linker_0, # of connection points: 2
#     Edge 10, Type (0, 0), BuildingBlock: XIVTED_clean_linker_0, # of connection points: 2
#     Edge 11, Type (0, 0), BuildingBlock: XIVTED_clean_linker_0, # of connection points: 2
# Relax obj value: 0.207
# Max RMSD: 0.252
# Mean RMSD: 0.241
data_MOF--net-lon--node1-QUQFOY_clean_sbu_1--edge1-XIVTED_clean_linker_0
_symmetry_space_group_name_H-M    P1
_symmetry_Int_Tables_number       1
_symmetry_cell_setting            triclinic
loop_
_symmetry_equiv_pos_as_xyz
'x, y, z'
_cell_length_a     23.3094
_cell_length_b     26.12628
_cell_length_c     44.827364
_cell_angle_alpha  94.362446
_cell_angle_beta   89.97391
_cell_angle_gamma 115.17957
loop_
_atom_site_label
_atom_site_type_symbol
_atom_site_fract_x
_atom_site_fract_y
_atom_site_fract_z
_atom_type_partial_charge
O0 O 0.2134 0.61021 0.0755 0.0
Cd1 Cd 0.29991 0.64677 0.09816 0.0
Cd2 Cd 0.33103 0.7142 0.04798 0.0
O3 O 0.23664 0.66479 0.03786 0.0
O4 O 0.28327 0.60582 0.13511 0.0
O5 O 0.31355 0.69836 0.13611 0.0
C6 C 0.29815 0.6536 0.15045 0.0
C7 C 0.37143 0.80824 0.03576 0.0
C8 C 0.19741 0.62367 0.05125 0.0
C9 C 0.39925 0.64089 0.05651 0.0
O10 O 0.39059 0.67546 0.04073 0.0
O11 O 0.36948 0.62628 0.08041 0.0
O12 O 0.35437 0.76648 0.0155 0.0
O13 O 0.36498 0.79672 0.06341 0.0
O14 O 0.61266 0.20163 0.56832 0.0
Cd15 Cd 0.66108 0.28051 0.58965 0.0
Cd16 Cd 0.58889 0.31155 0.55091 0.0
O17 O 0.54943 0.22454 0.54122 0.0
O18 O 0.68766 0.26966 0.62982 0.0
O19 O 0.62143 0.30884 0.62265 0.0
C20 C 0.6515 0.2919 0.64088 0.0
C21 C 0.52035 0.35308 0.54086 0.0
C22 C 0.56697 0.18779 0.54946 0.0
C23 C 0.73377 0.36459 0.54772 0.0
O24 O 0.68038 0.36085 0.5387 0.0
O25 O 0.73773 0.33564 0.56845 0.0
O26 O 0.54187 0.3303 0.52001 0.0
O27 O 0.53688 0.35175 0.56816 0.0
O28 O 0.37897 0.76348 0.44564 0.0
Cd29 Cd 0.33507 0.68186 0.42568 0.0
Cd30 Cd 0.25546 0.66882 0.47065 0.0
O31 O 0.29734 0.75572 0.47279 0.0
O32 O 0.37395 0.68363 0.38614 0.0
O33 O 0.27311 0.66696 0.39126 0.0
C34 C 0.31958 0.67311 0.37398 0.0
C35 C 0.14631 0.62239 0.47288 0.0
C36 C 0.35118 0.78593 0.46283 0.0
C37 C 0.33342 0.60483 0.4721 0.0
O38 O 0.30308 0.62637 0.48814 0.0
O39 O 0.34564 0.61761 0.44533 0.0
O40 O 0.18093 0.65193 0.49586 0.0
O41 O 0.17354 0.62032 0.448 0.0
O42 O 0.60979 0.40031 0.9368 0.0
Cd43 Cd 0.6639 0.36494 0.91548 0.0
Cd44 Cd 0.63563 0.30172 0.96541 0.0
O45 O 0.59104 0.35284 0.97705 0.0
O46 O 0.67414 0.39491 0.8754 0.0
O47 O 0.63016 0.30313 0.88174 0.0
C48 C 0.64778 0.34321 0.86386 0.0
C49 C 0.58329 0.20798 0.97772 0.0
C50 C 0.58608 0.39054 0.9624 0.0
C51 C 0.77275 0.37623 0.95533 0.0
O52 O 0.73266 0.33889 0.9705 0.0
O53 O 0.75496 0.39248 0.93252 0.0
O54 O 0.61017 0.24938 0.99787 0.0
O55 O 0.58636 0.21963 0.95011 0.0
H56 H 0.31607 0.58121 0.18552 0.0
H57 H 0.2384 0.69877 0.34043 0.0
H58 H 0.28197 0.73149 0.19025 0.0
H59 H 0.38375 0.63796 0.33303 0.0
H60 H 0.23144 0.69515 0.28537 0.0
H61 H 0.31838 0.58516 0.24019 0.0
C62 C 0.30875 0.6149 0.19809 0.0
C63 C 0.29908 0.65627 0.18343 0.0
C64 C 0.26465 0.6826 0.29597 0.0
C65 C 0.30055 0.66028 0.2458 0.0
C66 C 0.26832 0.68422 0.32721 0.0
C67 C 0.31175 0.66866 0.34114 0.0
C68 C 0.30337 0.66374 0.2788 0.0
C69 C 0.34987 0.65054 0.32312 0.0
C70 C 0.31028 0.61717 0.22921 0.0
C71 C 0.29004 0.69909 0.2008 0.0
N72 N 0.34439 0.64807 0.29286 0.0
N73 N 0.29046 0.69979 0.23122 0.0
H74 H 0.60801 0.36072 0.67317 0.0
H75 H 0.63129 0.24516 0.83058 0.0
H76 H 0.67878 0.23452 0.68285 0.0
H77 H 0.64642 0.41398 0.82257 0.0
H78 H 0.62631 0.22957 0.77574 0.0
H79 H 0.60008 0.37001 0.72774 0.0
C80 C 0.62153 0.3348 0.68676 0.0
C81 C 0.64457 0.29715 0.67356 0.0
C82 C 0.63035 0.26985 0.78609 0.0
C83 C 0.63476 0.30694 0.73565 0.0
C84 C 0.63288 0.27865 0.8173 0.0
C85 C 0.63973 0.33105 0.83105 0.0
C86 C 0.63353 0.3134 0.76866 0.0
C87 C 0.64172 0.37311 0.81283 0.0
C88 C 0.61713 0.3402 0.71782 0.0
C89 C 0.66139 0.26449 0.69217 0.0
N90 N 0.63854 0.36337 0.78255 0.0
N91 N 0.65598 0.27 0.72229 0.0
H92 H 0.46412 0.65598 1.00452 0.0
H93 H 0.53422 0.38435 0.01753 0.0
H94 H 0.42067 0.55807 0.08167 0.0
H95 H 0.57481 0.48041 0.93972 0.0
H96 H 0.49609 0.44983 0.04214 0.0
H97 H 0.51207 0.59631 0.98193 0.0
C98 C 0.46542 0.62246 0.01692 0.0
C99 C 0.43771 0.61166 0.04492 0.0
C100 C 0.51324 0.45654 0.01966 0.0
C101 C 0.49172 0.54272 0.01897 0.0
C102 C 0.53469 0.41895 1.00551 0.0
C103 C 0.55764 0.42681 0.97646 0.0
C104 C 0.51472 0.50235 1.0047 0.0
C105 C 0.55735 0.47258 0.96207 0.0
C106 C 0.49249 0.58818 1.00391 0.0
C107 C 0.44105 0.56774 0.05995 0.0
N108 N 0.53631 0.50868 0.97637 0.0
N109 N 0.467 0.53455 0.04666 0.0
H110 H 0.0637 0.65279 0.50362 0.0
H111 H 0.83967 0.34784 0.53656 0.0
H112 H 0.07687 0.51271 0.45157 0.0
H113 H 0.75809 0.46611 0.52591 0.0
H114 H 0.93495 0.41086 0.51187 0.0
H115 H 0.95666 0.58871 0.5177 0.0
C116 C 0.04333 0.60876 0.49469 0.0
C117 C 0.07847 0.58771 0.47636 0.0
C118 C 0.89585 0.4226 0.51481 0.0
C119 C 0.95838 0.51452 0.49323 0.0
C120 C 0.84203 0.38716 0.52911 0.0
C121 C 0.79144 0.40218 0.53333 0.0
C122 C 0.89958 0.47397 0.50557 0.0
C123 C 0.79631 0.45322 0.52302 0.0
C124 C -0.01738 0.57243 0.50271 0.0
C125 C 0.05069 0.53039 0.46552 0.0
N126 N 0.85006 0.48794 0.51002 0.0
N127 N -0.00742 0.49524 0.47472 0.0
H128 H 0.56669 0.17291 0.03416 0.0
H129 H 0.38501 0.84335 0.97936 0.0
H130 H 0.52401 0.10947 0.94123 0.0
H131 H 0.42058 0.90731 0.0724 0.0
H132 H 0.43425 0.94048 0.96504 0.0
H133 H 0.51243 0.07611 0.04854 0.0
C134 C 0.54587 0.13859 0.01674 0.0
C135 C 0.55003 0.1493 0.9864 0.0
C136 C 0.43115 0.93338 0.9886 0.0
C137 C 0.48769 0.03815 1.0028 0.0
C138 C 0.40301 0.87787 0.99682 0.0
C139 C 0.39883 0.86719 0.02716 0.0
C140 C 0.45556 0.9787 0.01084 0.0
C141 C 0.42284 0.91361 0.04876 0.0
C142 C 0.51479 0.08328 0.02501 0.0
C143 C 0.522 0.10314 0.96486 0.0
N144 N 0.4504 0.96738 0.04017 0.0
N145 N 0.49212 0.04953 0.97349 0.0
H146 H 0.46609 0.34762 0.48652 0.0
H147 H 0.33978 0.58273 0.53081 0.0
H148 H 0.48553 0.42499 0.57678 0.0
H149 H 0.37342 0.53353 0.44071 0.0
H150 H 0.37671 0.51548 0.54954 0.0
H151 H 0.41301 0.4041 0.47118 0.0
C152 C 0.45878 0.37629 0.50322 0.0
C153 C 0.48108 0.3822 0.53291 0.0
C154 C 0.37571 0.51947 0.5257 0.0
C155 C 0.42055 0.44764 0.51532 0.0
C156 C 0.35464 0.55768 0.51499 0.0
C157 C 0.35398 0.56401 0.48416 0.0
C158 C 0.39529 0.48701 0.50534 0.0
C159 C 0.37365 0.53051 0.46466 0.0
C160 C 0.42855 0.40868 0.4944 0.0
C161 C 0.46937 0.41945 0.55362 0.0
N162 N 0.39339 0.49354 0.47558 0.0
N163 N 0.44032 0.45132 0.54437 0.0
H164 H 0.14815 0.63759 0.99869 0.0
H165 H 0.82719 0.35478 1.00406 0.0
H166 H 0.10385 0.52754 0.0708 0.0
H167 H 0.86946 0.46661 0.93284 0.0
H168 H 0.93174 0.41399 0.02697 0.0
H169 H 0.04792 0.57354 0.97328 0.0
C170 C 0.11717 0.60019 0.00931 0.0
C171 C 0.13443 0.588 0.03697 0.0
C172 C 0.91834 0.42534 1.00621 0.0
C173 C 0.01989 0.51414 0.00779 0.0
C174 C 0.85873 0.39136 0.993 0.0
C175 C 0.83924 0.40606 0.96662 0.0
C176 C 0.9587 0.47445 0.993 0.0
C177 C 0.88231 0.45381 0.95327 0.0
C178 C 0.06007 0.56346 0.99469 0.0
C179 C 0.09244 0.53876 0.04956 0.0
N180 N 0.93983 0.4866 0.96676 0.0
N181 N 0.03715 0.50359 0.03484 0.0
H182 H 0.61343 0.10777 0.5461 0.0
H183 H 0.29501 0.85409 0.48272 0.0
H184 H 0.44919 0.13415 0.52213 0.0
H185 H 0.47806 0.8558 0.46561 0.0
H186 H 0.34792 0.95352 0.5026 0.0
H187 H 0.56137 0.01079 0.52253 0.0
C188 C 0.5663 0.09304 0.53601 0.0
C189 C 0.53541 0.12887 0.53609 0.0
C190 C 0.37636 0.93217 0.49426 0.0
C191 C 0.47591 0.0184 0.50931 0.0
C192 C 0.34633 0.87554 0.48302 0.0
C193 C 0.38236 0.84685 0.4726 0.0
C194 C 0.4428 0.95976 0.49566 0.0
C195 C 0.44864 0.87655 0.47334 0.0
C196 C 0.53695 0.03798 0.52239 0.0
C197 C 0.47463 0.10786 0.52249 0.0
N198 N 0.47688 0.93136 0.48506 0.0
N199 N 0.44655 0.0537 0.50982 0.0
loop_
_geom_bond_atom_site_label_1
_geom_bond_atom_site_label_2
_geom_bond_distance
_geom_bond_site_symmetry_2
_ccdc_geom_bond_type
O0 Cd1 2.223 . S
O0 C8 1.315 . S
Cd1 O0 2.223 . S
Cd1 O4 2.297 . S
Cd1 O5 2.439 . S
Cd1 O11 2.240 . S
Cd2 O3 2.240 . S
Cd2 O10 2.223 . S
Cd2 O12 2.297 . S
Cd2 O13 2.439 . S
O3 Cd2 2.240 . S
O3 C8 1.279 . S
O4 Cd1 2.297 . S
O4 C6 1.247 . S
O5 Cd1 2.439 . S
O5 C6 1.208 . S
C6 O4 1.247 . S
C6 O5 1.208 . S
C7 O12 1.247 . S
C7 O13 1.208 . S
C8 O0 1.315 . S
C8 O3 1.279 . S
C9 O10 1.315 . S
C9 O11 1.279 . S
O10 Cd2 2.223 . S
O10 C9 1.315 . S
O11 Cd1 2.240 . S
O11 C9 1.279 . S
O12 Cd2 2.297 . S
O12 C7 1.247 . S
O13 Cd2 2.439 . S
O13 C7 1.208 . S
O14 Cd15 2.223 . S
O14 C22 1.315 . S
Cd15 O14 2.223 . S
Cd15 O18 2.297 . S
Cd15 O19 2.439 . S
Cd15 O25 2.240 . S
Cd16 O17 2.240 . S
Cd16 O24 2.223 . S
Cd16 O26 2.297 . S
Cd16 O27 2.439 . S
O17 Cd16 2.240 . S
O17 C22 1.279 . S
O18 Cd15 2.297 . S
O18 C20 1.247 . S
O19 Cd15 2.439 . S
O19 C20 1.208 . S
C20 O18 1.247 . S
C20 O19 1.208 . S
C21 O26 1.247 . S
C21 O27 1.208 . S
C22 O14 1.315 . S
C22 O17 1.279 . S
C23 O24 1.315 . S
C23 O25 1.279 . S
O24 Cd16 2.223 . S
O24 C23 1.315 . S
O25 Cd15 2.240 . S
O25 C23 1.279 . S
O26 Cd16 2.297 . S
O26 C21 1.247 . S
O27 Cd16 2.439 . S
O27 C21 1.208 . S
O28 Cd29 2.223 . S
O28 C36 1.315 . S
Cd29 O28 2.223 . S
Cd29 O32 2.297 . S
Cd29 O33 2.439 . S
Cd29 O39 2.240 . S
Cd30 O31 2.240 . S
Cd30 O38 2.223 . S
Cd30 O40 2.297 . S
Cd30 O41 2.439 . S
O31 Cd30 2.240 . S
O31 C36 1.279 . S
O32 Cd29 2.297 . S
O32 C34 1.247 . S
O33 Cd29 2.439 . S
O33 C34 1.208 . S
C34 O32 1.247 . S
C34 O33 1.208 . S
C35 O40 1.247 . S
C35 O41 1.208 . S
C36 O28 1.315 . S
C36 O31 1.279 . S
C37 O38 1.315 . S
C37 O39 1.279 . S
O38 Cd30 2.223 . S
O38 C37 1.315 . S
O39 Cd29 2.240 . S
O39 C37 1.279 . S
O40 Cd30 2.297 . S
O40 C35 1.247 . S
O41 Cd30 2.439 . S
O41 C35 1.208 . S
O42 Cd43 2.223 . S
O42 C50 1.315 . S
Cd43 O42 2.223 . S
Cd43 O46 2.297 . S
Cd43 O47 2.439 . S
Cd43 O53 2.240 . S
Cd44 O45 2.240 . S
Cd44 O52 2.223 . S
Cd44 O54 2.297 . S
Cd44 O55 2.439 . S
O45 Cd44 2.240 . S
O45 C50 1.279 . S
O46 Cd43 2.297 . S
O46 C48 1.247 . S
O47 Cd43 2.439 . S
O47 C48 1.208 . S
C48 O46 1.247 . S
C48 O47 1.208 . S
C49 O54 1.247 . S
C49 O55 1.208 . S
C50 O42 1.315 . S
C50 O45 1.279 . S
C51 O52 1.315 . S
C51 O53 1.279 . S
O52 Cd44 2.223 . S
O52 C51 1.315 . S
O53 Cd43 2.240 . S
O53 C51 1.279 . S
O54 Cd44 2.297 . S
O54 C49 1.247 . S
O55 Cd44 2.439 . S
O55 C49 1.208 . S
H56 C62 0.930 . S
H57 C66 0.930 . S
H58 C71 0.929 . S
H59 C69 0.929 . S
H60 C64 0.929 . S
H61 C70 0.929 . S
C62 H56 0.930 . S
C62 C63 1.367 . S
C62 C70 1.378 . S
C63 C62 1.367 . S
C63 C71 1.433 . S
C64 H60 0.929 . S
C64 C66 1.378 . S
C64 C68 1.350 . S
C65 C68 1.463 . S
C65 C70 1.350 . S
C65 N73 1.427 . S
C66 H57 0.930 . S
C66 C64 1.378 . S
C66 C67 1.367 . S
C67 C66 1.367 . S
C67 C69 1.433 . S
C68 C64 1.350 . S
C68 C65 1.463 . S
C68 N72 1.427 . S
C69 H59 0.929 . S
C69 C67 1.433 . S
C69 N72 1.384 . S
C70 H61 0.929 . S
C70 C62 1.378 . S
C70 C65 1.350 . S
C71 H58 0.929 . S
C71 C63 1.433 . S
C71 N73 1.384 . S
N72 C68 1.427 . S
N72 C69 1.384 . S
N73 C65 1.427 . S
N73 C71 1.384 . S
H74 C80 0.930 . S
H75 C84 0.930 . S
H76 C89 0.929 . S
H77 C87 0.929 . S
H78 C82 0.929 . S
H79 C88 0.929 . S
C80 H74 0.930 . S
C80 C81 1.367 . S
C80 C88 1.378 . S
C81 C80 1.367 . S
C81 C89 1.433 . S
C82 H78 0.929 . S
C82 C84 1.378 . S
C82 C86 1.350 . S
C83 C86 1.463 . S
C83 C88 1.350 . S
C83 N91 1.427 . S
C84 H75 0.930 . S
C84 C82 1.378 . S
C84 C85 1.367 . S
C85 C84 1.367 . S
C85 C87 1.433 . S
C86 C82 1.350 . S
C86 C83 1.463 . S
C86 N90 1.427 . S
C87 H77 0.929 . S
C87 C85 1.433 . S
C87 N90 1.384 . S
C88 H79 0.929 . S
C88 C80 1.378 . S
C88 C83 1.350 . S
C89 H76 0.929 . S
C89 C81 1.433 . S
C89 N91 1.384 . S
N90 C86 1.427 . S
N90 C87 1.384 . S
N91 C83 1.427 . S
N91 C89 1.384 . S
H92 C98 0.930 . S
H93 C102 0.930 . S
H94 C107 0.929 . S
H95 C105 0.929 . S
H96 C100 0.909 1_554 S
H97 C106 0.929 . S
C98 H92 0.930 . S
C98 C99 1.367 1_556 S
C98 C106 1.378 . S
C99 C98 1.367 1_554 S
C99 C107 1.433 . S
C100 H96 0.909 1_556 S
C100 C102 1.384 . S
C100 C104 1.364 . S
C101 C104 1.463 . S
C101 C106 1.350 . S
C101 N109 1.427 1_556 S
C102 H93 0.930 . S
C102 C100 1.384 . S
C102 C103 1.367 . S
C103 C102 1.367 . S
C103 C105 1.433 . S
C104 C100 1.364 . S
C104 C101 1.463 . S
C104 N108 1.427 . S
C105 H95 0.929 . S
C105 C103 1.433 . S
C105 N108 1.384 . S
C106 H97 0.929 . S
C106 C98 1.378 . S
C106 C101 1.350 . S
C107 H94 0.929 . S
C107 C99 1.433 . S
C107 N109 1.384 . S
N108 C104 1.427 . S
N108 C105 1.384 . S
N109 C101 1.427 1_554 S
N109 C107 1.384 . S
H110 C116 0.930 . S
H111 C120 0.930 . S
H112 C125 0.929 . S
H113 C123 0.929 . S
H114 C118 0.929 . S
H115 C124 0.929 . S
C116 H110 0.930 . S
C116 C117 1.367 . S
C116 C124 1.378 1_455 S
C117 C116 1.367 . S
C117 C125 1.433 . S
C118 H114 0.929 . S
C118 C120 1.378 . S
C118 C122 1.350 . S
C119 C122 1.463 . S
C119 C124 1.350 . S
C119 N127 1.427 1_655 S
C120 H111 0.930 . S
C120 C118 1.378 . S
C120 C121 1.367 . S
C121 C120 1.367 . S
C121 C123 1.433 . S
C122 C118 1.350 . S
C122 C119 1.463 . S
C122 N126 1.427 . S
C123 H113 0.929 . S
C123 C121 1.433 . S
C123 N126 1.384 . S
C124 H115 0.929 . S
C124 C116 1.378 1_655 S
C124 C119 1.350 . S
C125 H112 0.929 . S
C125 C117 1.433 . S
C125 N127 1.384 . S
N126 C122 1.427 . S
N126 C123 1.384 . S
N127 C119 1.427 1_455 S
N127 C125 1.384 . S
H128 C134 0.930 . S
H129 C138 0.930 . S
H130 C143 0.929 . S
H131 C141 0.929 . S
H132 C136 0.929 . S
H133 C142 0.929 . S
C134 H128 0.930 . S
C134 C135 1.367 . S
C134 C142 1.378 1_556 S
C135 C134 1.367 . S
C135 C143 1.433 . S
C136 H132 0.929 . S
C136 C138 1.378 1_556 S
C136 C140 1.350 1_556 S
C137 C140 1.463 1_546 S
C137 C142 1.350 1_556 S
C137 N145 1.427 . S
C138 H129 0.930 . S
C138 C136 1.378 1_554 S
C138 C139 1.367 . S
C139 C138 1.367 . S
C139 C141 1.433 . S
C140 C136 1.350 1_554 S
C140 C137 1.463 1_564 S
C140 N144 1.427 . S
C141 H131 0.929 . S
C141 C139 1.433 . S
C141 N144 1.384 . S
C142 H133 0.929 . S
C142 C134 1.378 1_554 S
C142 C137 1.350 1_554 S
C143 H130 0.929 . S
C143 C135 1.433 . S
C143 N145 1.384 . S
N144 C140 1.427 . S
N144 C141 1.384 . S
N145 C137 1.427 . S
N145 C143 1.384 . S
H146 C152 0.930 . S
H147 C156 0.930 . S
H148 C161 0.929 . S
H149 C159 0.929 . S
H150 C154 0.929 . S
H151 C160 0.929 . S
C152 H146 0.930 . S
C152 C153 1.367 . S
C152 C160 1.378 . S
C153 C152 1.367 . S
C153 C161 1.433 . S
C154 H150 0.929 . S
C154 C156 1.378 . S
C154 C158 1.350 . S
C155 C158 1.463 . S
C155 C160 1.350 . S
C155 N163 1.427 . S
C156 H147 0.930 . S
C156 C154 1.378 . S
C156 C157 1.367 . S
C157 C156 1.367 . S
C157 C159 1.433 . S
C158 C154 1.350 . S
C158 C155 1.463 . S
C158 N162 1.427 . S
C159 H149 0.929 . S
C159 C157 1.433 . S
C159 N162 1.384 . S
C160 H151 0.929 . S
C160 C152 1.378 . S
C160 C155 1.350 . S
C161 H148 0.929 . S
C161 C153 1.433 . S
C161 N163 1.384 . S
N162 C158 1.427 . S
N162 C159 1.384 . S
N163 C155 1.427 . S
N163 C161 1.384 . S
H164 C170 0.930 1_556 S
H165 C174 0.930 . S
H166 C179 0.929 . S
H167 C177 0.929 . S
H168 C172 0.929 . S
H169 C178 0.929 . S
C170 H164 0.930 1_554 S
C170 C171 1.367 . S
C170 C178 1.378 1_554 S
C171 C170 1.367 . S
C171 C179 1.433 . S
C172 H168 0.929 . S
C172 C174 1.378 . S
C172 C176 1.350 . S
C173 C176 1.463 1_455 S
C173 C178 1.350 1_554 S
C173 N181 1.427 . S
C174 H165 0.930 . S
C174 C172 1.378 . S
C174 C175 1.367 1_554 S
C175 C174 1.367 1_556 S
C175 C177 1.433 . S
C176 C172 1.350 . S
C176 C173 1.463 1_655 S
C176 N180 1.427 1_554 S
C177 H167 0.929 . S
C177 C175 1.433 . S
C177 N180 1.384 . S
C178 H169 0.929 . S
C178 C170 1.378 1_556 S
C178 C173 1.350 1_556 S
C179 H166 0.929 . S
C179 C171 1.433 . S
C179 N181 1.384 . S
N180 C176 1.427 1_556 S
N180 C177 1.384 . S
N181 C173 1.427 . S
N181 C179 1.384 . S
H182 C188 0.930 . S
H183 C192 0.930 . S
H184 C197 0.929 . S
H185 C195 0.929 . S
H186 C190 0.929 . S
H187 C196 0.929 . S
C188 H182 0.930 . S
C188 C189 1.367 . S
C188 C196 1.378 . S
C189 C188 1.367 . S
C189 C197 1.433 . S
C190 H186 0.929 . S
C190 C192 1.378 . S
C190 C194 1.350 . S
C191 C194 1.463 1_545 S
C191 C196 1.350 . S
C191 N199 1.427 . S
C192 H183 0.930 . S
C192 C190 1.378 . S
C192 C193 1.367 . S
C193 C192 1.367 . S
C193 C195 1.433 . S
C194 C190 1.350 . S
C194 C191 1.463 1_565 S
C194 N198 1.427 . S
C195 H185 0.929 . S
C195 C193 1.433 . S
C195 N198 1.384 . S
C196 H187 0.929 . S
C196 C188 1.378 . S
C196 C191 1.350 . S
C197 H184 0.929 . S
C197 C189 1.433 . S
C197 N199 1.384 . S
N198 C194 1.427 . S
N198 C195 1.384 . S
N199 C191 1.427 . S
N199 C197 1.384 . S
C63 C6 1.517 . S
C67 C34 1.531 . S
C81 C20 1.526 . S
C85 C48 1.527 . S
C99 C9 1.693 . S
C103 C50 1.693 . S
C117 C35 1.453 . S
C121 C23 1.490 . S
C135 C49 1.351 . S
C139 C7 1.359 . S
C153 C21 1.452 . S
C157 C37 1.490 . S
C171 C8 1.693 . S
C175 C51 1.693 . S
C189 C22 1.865 . S
C193 C36 1.864 . S
