# Generated by pormake.
# Topology reo, (8)-cn, num edge types: 1
# Building blocks:
#     Node 0, Type 0, BuildingBlock: GIZVER_clean_sbu_0, # of connection points: 8
#     Node 1, Type 0, BuildingBlock: GIZVER_clean_sbu_0, # of connection points: 8
#     Node 2, Type 0, BuildingBlock: GIZVER_clean_sbu_0, # of connection points: 8
#     Edge 3, Type (0, 0), BuildingBlock: EYOCIG_clean_linker_4, # of connection points: 2
#     Edge 4, Type (0, 0), BuildingBlock: EYOCIG_clean_linker_4, # of connection points: 2
#     Edge 5, Type (0, 0), BuildingBlock: EYOCIG_clean_linker_4, # of connection points: 2
#     Edge 6, Type (0, 0), BuildingBlock: EYOCIG_clean_linker_4, # of connection points: 2
#     Edge 7, Type (0, 0), BuildingBlock: EYOCIG_clean_linker_4, # of connection points: 2
#     Edge 8, Type (0, 0), BuildingBlock: EYOCIG_clean_linker_4, # of connection points: 2
#     Edge 9, Type (0, 0), BuildingBlock: EYOCIG_clean_linker_4, # of connection points: 2
#     Edge 10, Type (0, 0), BuildingBlock: EYOCIG_clean_linker_4, # of connection points: 2
#     Edge 11, Type (0, 0), BuildingBlock: EYOCIG_clean_linker_4, # of connection points: 2
#     Edge 12, Type (0, 0), BuildingBlock: EYOCIG_clean_linker_4, # of connection points: 2
#     Edge 13, Type (0, 0), BuildingBlock: EYOCIG_clean_linker_4, # of connection points: 2
#     Edge 14, Type (0, 0), BuildingBlock: EYOCIG_clean_linker_4, # of connection points: 2
# Relax obj value: 0.099
# Max RMSD: 0.207
# Mean RMSD: 0.144
data_MOF--net-reo--node1-GIZVER_clean_sbu_0--edge1-EYOCIG_clean_linker_4
_symmetry_space_group_name_H-M    P1
_symmetry_Int_Tables_number       1
_symmetry_cell_setting            triclinic
loop_
_symmetry_equiv_pos_as_xyz
'x, y, z'
_cell_length_a     20.039209
_cell_length_b     20.790115
_cell_length_c     21.147788
_cell_angle_alpha  108.46412
_cell_angle_beta   92.947021
_cell_angle_gamma 73.835075
loop_
_atom_site_label
_atom_site_type_symbol
_atom_site_fract_x
_atom_site_fract_y
_atom_site_fract_z
_atom_type_partial_charge
Co0 Co 0.06363 0.96228 0.62316 0.0
Co1 Co 0.14567 1.01813 0.58429 0.0
Co2 Co 0.01265 0.04403 0.50382 0.0
O3 O 0.08099 0.97561 0.54018 0.0
H4 H 0.10332 0.93204 0.50612 0.0
O5 O 0.94431 0.11246 0.46745 0.0
Co6 Co 0.96167 0.12578 0.38447 0.0
Co7 Co 0.87963 0.06994 0.42335 0.0
H8 H 0.92199 0.15603 0.50151 0.0
O9 O 0.23243 0.96537 0.5869 0.0
O10 O 0.14302 1.00227 0.66475 0.0
O11 O 0.1302 0.11808 0.60302 0.0
O12 O 0.01916 0.13184 0.57854 0.0
O13 O 0.08927 0.04888 0.45058 0.0
O14 O 0.97503 0.14512 0.31104 0.0
O15 O 0.90428 0.21468 0.40066 0.0
O16 O 0.02962 1.03682 0.35836 0.0
O17 O 1.00614 0.95623 0.42909 0.0
O18 O 0.8951 0.96999 0.40463 0.0
O19 O 0.88228 0.08578 0.34288 0.0
O20 O 0.79287 0.12269 0.42074 0.0
C21 C 0.09285 0.88267 0.66475 0.0
C22 C 0.93817 0.0524 0.62013 0.0
C23 C 0.06845 0.15656 0.60707 0.0
C24 C 0.20961 0.97724 0.64707 0.0
C25 C 0.93245 0.20539 0.34288 0.0
C26 C 0.08714 1.03567 0.3875 0.0
C27 C 0.95685 0.9315 0.40057 0.0
C28 C 0.81569 0.11081 0.36056 0.0
O29 O 0.05028 0.94293 0.69659 0.0
O30 O 0.12102 0.87338 0.60696 0.0
O31 O 0.93604 1.03919 0.55705 0.0
O32 O 0.99568 0.05124 0.64928 0.0
Co33 Co 0.64787 1.02605 0.88892 0.0
Co34 Co 0.64147 0.09342 1.00261 0.0
Co35 Co 0.51265 0.04403 0.00382 0.0
O36 O 0.5694 0.07788 0.95236 0.0
H37 H 0.54298 0.1204 0.94337 0.0
O38 O 0.45591 1.01018 0.05528 0.0
Co39 Co 0.37744 0.06202 0.11872 0.0
Co40 Co 0.38383 0.99464 0.00503 0.0
H41 H 0.48232 0.96766 0.06427 0.0
O42 O 0.65219 0.17916 0.01882 0.0
O43 O 0.71435 0.07247 0.94826 0.0
O44 O 0.66035 0.05615 0.07379 0.0
O45 O 0.54664 0.09232 0.09456 0.0
O46 O 0.43717 0.1328 0.0107 0.0
O47 O 0.30866 0.10371 0.18065 0.0
O48 O 0.38875 0.99851 0.16335 0.0
O49 O 0.35485 0.1356 0.08021 0.0
O50 O 0.47867 0.99575 0.91307 0.0
O51 O 0.36496 1.0319 0.93384 0.0
O52 O 0.31096 1.0156 0.05938 0.0
O53 O 0.37312 0.90891 0.98882 0.0
C54 C 0.69214 1.04248 0.8124 0.0
C55 C 0.64714 0.92691 0.96592 0.0
C56 C 0.60905 0.07917 0.11441 0.0
C57 C 0.70596 0.1398 0.97959 0.0
C58 C 0.33317 0.04559 0.19524 0.0
C59 C 0.37816 0.16115 0.04172 0.0
C60 C 0.41626 1.00886 0.89322 0.0
C61 C 0.31933 0.94827 0.02805 0.0
O62 O 0.71665 0.98436 0.827 0.0
O63 O 0.63656 0.08955 0.84429 0.0
O64 O 0.58813 0.95527 0.99694 0.0
O65 O 0.67045 0.95247 0.92743 0.0
Co66 Co 0.9864 0.42517 0.07594 0.0
Co67 Co 0.90171 0.45725 0.98713 0.0
Co68 Co 0.01265 0.54403 0.00382 0.0
O69 O 0.95278 0.50739 0.04841 0.0
H70 H 0.92139 0.54523 0.08191 0.0
O71 O 0.07252 0.58068 0.95923 0.0
Co72 Co 0.0389 0.66289 0.9317 0.0
Co73 Co 0.12359 0.63082 0.0205 0.0
H74 H 0.10391 0.54284 0.92573 0.0
O75 O 0.82315 0.43698 0.00837 0.0
O76 O 0.93514 0.37262 0.00498 0.0
O77 O 0.92301 0.4386 0.89478 0.0
O78 O 0.02414 0.4647 0.91529 0.0
O79 O 0.92565 0.60047 0.97437 0.0
O80 O 0.01453 0.73512 0.89869 0.0
O81 O 0.10841 0.64024 0.87025 0.0
O82 O 0.96043 0.69675 0.99096 0.0
O83 O 1.00117 0.62337 0.09236 0.0
O84 O 0.10229 0.64948 0.11286 0.0
O85 O 0.09016 0.71545 1.00265 0.0
O86 O 0.20215 0.65109 0.99926 0.0
C87 C 0.95469 0.38929 0.14604 0.0
C88 C 0.11291 0.42158 0.02383 0.0
C89 C 0.98299 0.43529 0.87577 0.0
C90 C 0.86904 0.3783 0.00645 0.0
C91 C 0.07061 0.69876 0.86159 0.0
C92 C 0.91239 0.66649 0.98381 0.0
C93 C 0.04231 0.65279 0.13187 0.0
C94 C 0.15626 0.70976 1.00118 0.0
O95 O 1.01077 0.35294 0.10894 0.0
O96 O 0.91689 0.44782 0.13738 0.0
O97 O 0.09965 0.4876 0.03327 0.0
O98 O 0.06487 0.39132 0.01668 0.0
C99 C 0.92303 0.33652 0.23556 0.0
C100 C 0.93451 0.36342 0.19575 0.0
C101 C 0.91666 0.29919 0.27965 0.0
C102 C 0.91923 0.26119 0.31333 0.0
C103 C 0.71563 0.11756 0.27525 0.0
C104 C 0.76433 0.11341 0.31107 0.0
C105 C 0.661 0.11353 0.23064 0.0
C106 C 0.62524 0.10241 0.18307 0.0
C107 C 0.98612 0.80569 0.30863 0.0
C108 C 0.97387 0.86293 0.35083 0.0
C109 C 1.00134 0.74576 0.25072 0.0
C110 C 0.01614 0.70235 0.19618 0.0
C111 C 0.25237 1.02651 0.27843 0.0
C112 C 0.2927 1.03057 0.24028 0.0
C113 C 0.19782 1.02652 0.31845 0.0
C114 C 0.14773 1.03077 0.35059 0.0
C115 C 0.10865 0.78886 0.72797 0.0
C116 C 0.10607 0.82686 0.69429 0.0
C117 C 0.10227 0.75153 0.77206 0.0
C118 C 0.0908 0.72463 0.81187 0.0
C119 C 0.36431 0.97454 0.77699 0.0
C120 C 0.40007 0.98564 0.82456 0.0
C121 C 0.30968 0.9705 0.73237 0.0
C122 C 0.26098 0.97465 0.69656 0.0
C123 C 0.02396 0.3423 0.75692 0.0
C124 C 1.00916 0.38573 0.81146 0.0
C125 C 0.03918 0.28237 0.69901 0.0
C126 C 0.05143 0.22514 0.65681 0.0
C127 C 0.77293 0.06156 0.72921 0.0
C128 C 0.73261 0.0575 0.76736 0.0
C129 C 0.82748 0.06155 0.68918 0.0
C130 C 0.87758 0.05729 0.65705 0.0
C131 C 0.2365 0.33484 0.02426 0.0
C132 C 0.1829 0.37944 0.02477 0.0
C133 C 0.29222 0.27662 0.02668 0.0
C134 C 0.33403 0.22406 0.03127 0.0
C135 C 0.19976 0.82203 0.01856 0.0
C136 C 0.17841 0.77161 0.01065 0.0
C137 C 0.23132 0.87672 0.02879 0.0
C138 C 0.26673 0.91582 0.0331 0.0
C139 C 0.79397 0.21136 0.97885 0.0
C140 C 0.75856 0.17226 0.97454 0.0
C141 C 0.82553 0.26605 0.98908 0.0
C142 C 0.84689 0.31647 0.99699 0.0
C143 C 0.7888 0.75323 0.98338 0.0
C144 C 0.8424 0.70863 0.98287 0.0
C145 C 0.73308 0.81144 0.98095 0.0
C146 C 0.69128 0.864 0.97637 0.0
loop_
_geom_bond_atom_site_label_1
_geom_bond_atom_site_label_2
_geom_bond_distance
_geom_bond_site_symmetry_2
_ccdc_geom_bond_type
Co0 O3 2.042 . S
Co0 O10 2.264 . S
Co0 O29 2.286 . S
Co0 O30 2.069 . S
Co0 O32 2.015 1_455 S
Co1 O3 2.122 1_545 S
Co1 O9 2.073 1_545 S
Co1 O10 2.327 1_545 S
Co1 O11 1.976 . S
Co2 O3 2.087 1_545 S
Co2 O5 2.087 1_455 S
Co2 O12 2.112 . S
Co2 O13 2.145 1_545 S
Co2 O17 2.111 1_445 S
Co2 O31 2.146 1_455 S
O3 Co0 2.042 . S
O3 Co1 2.122 1_565 S
O3 Co2 2.087 1_565 S
O3 H4 0.980 . S
H4 O3 0.980 . S
O5 Co2 2.087 1_655 S
O5 Co6 2.042 . S
O5 Co7 2.122 1_545 S
O5 H8 0.980 . S
Co6 O5 2.042 . S
Co6 O14 2.286 . S
Co6 O15 2.069 . S
Co6 O16 2.015 1_655 S
Co6 O19 2.264 . S
Co7 O5 2.122 1_565 S
Co7 O18 1.976 . S
Co7 O19 2.327 1_565 S
Co7 O20 2.073 1_565 S
H8 O5 0.980 . S
O9 Co1 2.073 1_565 S
O9 C24 1.245 . S
O10 Co0 2.264 . S
O10 Co1 2.327 1_565 S
O10 C24 1.257 . S
O11 Co1 1.976 . S
O11 C23 1.251 . S
O12 Co2 2.112 . S
O12 C23 1.274 . S
O13 Co2 2.145 1_565 S
O13 C26 1.245 . S
O14 Co6 2.286 . S
O14 C25 1.259 . S
O15 Co6 2.069 . S
O15 C25 1.289 . S
O16 Co6 2.015 1_455 S
O16 C26 1.257 1_545 S
O17 Co2 2.111 1_665 S
O17 C27 1.274 . S
O18 Co7 1.976 . S
O18 C27 1.251 . S
O19 Co6 2.264 . S
O19 Co7 2.327 1_545 S
O19 C28 1.257 . S
O20 Co7 2.073 1_545 S
O20 C28 1.245 . S
C21 O29 1.259 . S
C21 O30 1.289 . S
C22 O31 1.244 . S
C22 O32 1.257 1_545 S
C23 O11 1.251 . S
C23 O12 1.274 . S
C24 O9 1.245 . S
C24 O10 1.257 . S
C25 O14 1.259 . S
C25 O15 1.289 . S
C26 O13 1.245 . S
C26 O16 1.257 1_565 S
C27 O17 1.274 . S
C27 O18 1.251 . S
C28 O19 1.257 . S
C28 O20 1.245 . S
O29 Co0 2.286 . S
O29 C21 1.259 . S
O30 Co0 2.069 . S
O30 C21 1.289 . S
O31 Co2 2.146 1_655 S
O31 C22 1.244 . S
O32 Co0 2.015 1_655 S
O32 C22 1.257 1_565 S
Co33 O36 2.040 1_565 S
Co33 O43 2.255 1_565 S
Co33 O62 2.286 . S
Co33 O63 2.059 1_565 S
Co33 O65 2.028 . S
Co34 O36 2.122 1_554 S
Co34 O42 2.073 . S
Co34 O43 2.327 1_554 S
Co34 O44 1.976 . S
Co35 O36 2.087 1_554 S
Co35 O38 2.087 1_545 S
Co35 O45 2.112 . S
Co35 O46 2.144 . S
Co35 O50 2.111 1_544 S
Co35 O64 2.143 1_544 S
O36 Co33 2.040 1_545 S
O36 Co34 2.122 1_556 S
O36 Co35 2.087 1_556 S
O36 H37 0.980 . S
H37 O36 0.980 . S
O38 Co35 2.087 1_565 S
O38 Co39 2.039 1_565 S
O38 Co40 2.122 1_554 S
O38 H41 0.980 . S
Co39 O38 2.039 1_545 S
Co39 O47 2.286 . S
Co39 O48 2.055 1_545 S
Co39 O49 2.032 . S
Co39 O52 2.251 1_545 S
Co40 O38 2.122 1_556 S
Co40 O51 1.976 . S
Co40 O52 2.327 1_556 S
Co40 O53 2.073 . S
H41 O38 0.980 . S
O42 Co34 2.073 . S
O42 C57 1.245 1_554 S
O43 Co33 2.255 1_545 S
O43 Co34 2.327 1_556 S
O43 C57 1.257 . S
O44 Co34 1.976 . S
O44 C56 1.251 . S
O45 Co35 2.112 . S
O45 C56 1.274 . S
O46 Co35 2.144 . S
O46 C59 1.246 . S
O47 Co39 2.286 . S
O47 C58 1.259 1_545 S
O48 Co39 2.055 1_565 S
O48 C58 1.289 . S
O49 Co39 2.032 . S
O49 C59 1.257 . S
O50 Co35 2.111 1_566 S
O50 C60 1.274 . S
O51 Co40 1.976 . S
O51 C60 1.251 . S
O52 Co39 2.251 1_565 S
O52 Co40 2.327 1_554 S
O52 C61 1.257 . S
O53 Co40 2.073 . S
O53 C61 1.245 1_556 S
C54 O62 1.259 1_545 S
C54 O63 1.289 . S
C55 O64 1.246 . S
C55 O65 1.257 . S
C56 O44 1.251 . S
C56 O45 1.274 . S
C57 O42 1.245 1_556 S
C57 O43 1.257 . S
C58 O47 1.259 1_565 S
C58 O48 1.289 . S
C59 O46 1.246 . S
C59 O49 1.257 . S
C60 O50 1.274 . S
C60 O51 1.251 . S
C61 O52 1.257 . S
C61 O53 1.245 1_554 S
O62 Co33 2.286 . S
O62 C54 1.259 1_565 S
O63 Co33 2.059 1_545 S
O63 C54 1.289 . S
O64 Co35 2.143 1_566 S
O64 C55 1.246 . S
O65 Co33 2.028 . S
O65 C55 1.257 . S
Co66 O69 2.042 . S
Co66 O76 2.264 1_554 S
Co66 O95 2.286 1_655 S
Co66 O96 2.069 . S
Co66 O98 2.015 1_655 S
Co67 O69 2.122 1_556 S
Co67 O75 2.073 1_556 S
Co67 O76 2.325 . S
Co67 O77 1.976 . S
Co68 O69 2.087 1_455 S
Co68 O71 2.087 1_554 S
Co68 O78 2.111 1_454 S
Co68 O79 2.143 1_454 S
Co68 O83 2.112 . S
Co68 O97 2.144 . S
O69 Co66 2.042 . S
O69 Co67 2.122 1_554 S
O69 Co68 2.087 1_655 S
O69 H70 0.980 . S
H70 O69 0.980 . S
O71 Co68 2.087 1_556 S
O71 Co72 2.042 . S
O71 Co73 2.122 1_556 S
O71 H74 0.980 . S
Co72 O71 2.042 . S
Co72 O80 2.286 1_455 S
Co72 O81 2.069 . S
Co72 O82 2.015 1_455 S
Co72 O85 2.263 1_556 S
Co73 O71 2.122 1_554 S
Co73 O84 1.976 . S
Co73 O85 2.329 . S
Co73 O86 2.073 1_554 S
H74 O71 0.980 . S
O75 Co67 2.073 1_554 S
O75 C90 1.245 . S
O76 Co66 2.264 1_556 S
O76 Co67 2.325 . S
O76 C90 1.258 1_556 S
O77 Co67 1.976 . S
O77 C89 1.251 . S
O78 Co68 2.111 1_656 S
O78 C89 1.274 . S
O79 Co68 2.143 1_656 S
O79 C92 1.246 1_556 S
O80 Co72 2.286 1_655 S
O80 C91 1.259 1_655 S
O81 Co72 2.069 . S
O81 C91 1.289 . S
O82 Co72 2.015 1_655 S
O82 C92 1.257 1_556 S
O83 Co68 2.112 . S
O83 C93 1.274 . S
O84 Co73 1.976 . S
O84 C93 1.251 . S
O85 Co72 2.263 1_554 S
O85 Co73 2.329 . S
O85 C94 1.257 1_554 S
O86 Co73 2.073 1_556 S
O86 C94 1.245 . S
C87 O95 1.259 1_655 S
C87 O96 1.289 . S
C88 O97 1.246 1_556 S
C88 O98 1.257 1_556 S
C89 O77 1.251 . S
C89 O78 1.274 . S
C90 O75 1.245 . S
C90 O76 1.258 1_554 S
C91 O80 1.259 1_455 S
C91 O81 1.289 . S
C92 O79 1.246 1_554 S
C92 O82 1.257 1_554 S
C93 O83 1.274 . S
C93 O84 1.251 . S
C94 O85 1.257 1_556 S
C94 O86 1.245 . S
O95 Co66 2.286 1_455 S
O95 C87 1.259 1_455 S
O96 Co66 2.069 . S
O96 C87 1.289 . S
O97 Co68 2.144 . S
O97 C88 1.246 1_554 S
O98 Co66 2.015 1_455 S
O98 C88 1.257 1_554 S
C99 C100 1.170 . S
C99 C101 1.380 . S
C100 C99 1.170 . S
C101 C99 1.380 . S
C101 C102 1.170 . S
C102 C101 1.170 . S
C103 C104 1.170 . S
C103 C105 1.380 . S
C104 C103 1.170 . S
C105 C103 1.380 . S
C105 C106 1.170 . S
C106 C105 1.170 . S
C107 C108 1.170 . S
C107 C109 1.380 . S
C108 C107 1.170 . S
C109 C107 1.380 . S
C109 C110 1.170 1_455 S
C110 C109 1.170 1_655 S
C111 C112 1.170 . S
C111 C113 1.380 . S
C112 C111 1.170 . S
C113 C111 1.380 . S
C113 C114 1.170 . S
C114 C113 1.170 . S
C115 C116 1.170 . S
C115 C117 1.380 . S
C116 C115 1.170 . S
C117 C115 1.380 . S
C117 C118 1.170 . S
C118 C117 1.170 . S
C119 C120 1.170 . S
C119 C121 1.380 . S
C120 C119 1.170 . S
C121 C119 1.380 . S
C121 C122 1.170 . S
C122 C121 1.170 . S
C123 C124 1.169 1_655 S
C123 C125 1.381 . S
C124 C123 1.169 1_455 S
C125 C123 1.381 . S
C125 C126 1.170 . S
C126 C125 1.170 . S
C127 C128 1.170 . S
C127 C129 1.380 . S
C128 C127 1.170 . S
C129 C127 1.380 . S
C129 C130 1.170 . S
C130 C129 1.170 . S
C131 C132 1.170 . S
C131 C133 1.380 . S
C132 C131 1.170 . S
C133 C131 1.380 . S
C133 C134 1.170 1_556 S
C134 C133 1.170 1_554 S
C135 C136 1.170 . S
C135 C137 1.380 1_556 S
C136 C135 1.170 . S
C137 C135 1.380 1_554 S
C137 C138 1.170 . S
C138 C137 1.170 . S
C139 C140 1.170 . S
C139 C141 1.380 1_556 S
C140 C139 1.170 . S
C141 C139 1.380 1_554 S
C141 C142 1.170 . S
C142 C141 1.170 . S
C143 C144 1.170 . S
C143 C145 1.380 1_554 S
C144 C143 1.170 . S
C145 C143 1.380 1_556 S
C145 C146 1.170 . S
C146 C145 1.170 . S
C100 C87 1.655 . S
C102 C25 1.567 . S
C104 C28 1.284 . S
C106 C56 1.233 . S
C108 C27 1.244 1_455 S
C110 C93 1.182 1_655 S
C112 C58 1.922 . S
C114 C26 1.776 . S
C116 C21 1.588 . S
C118 C91 1.654 . S
C120 C60 1.262 . S
C122 C24 1.222 . S
C124 C89 1.181 1_455 S
C126 C23 1.214 1_655 S
C128 C54 1.917 . S
C130 C22 1.737 . S
C132 C88 2.052 . S
C134 C59 2.136 . S
C136 C94 1.117 . S
C138 C61 1.189 . S
C140 C57 1.196 . S
C142 C90 1.140 . S
C144 C92 2.023 . S
C146 C55 2.133 . S
