# Generated by pormake.
# Topology fnv, (5)-cn, num edge types: 1
# Building blocks:
#     Node 0, Type 0, BuildingBlock: BEQFEK_clean_sbu_0, # of connection points: 5
#     Node 1, Type 0, BuildingBlock: BEQFEK_clean_sbu_0, # of connection points: 5
#     Node 2, Type 0, BuildingBlock: BEQFEK_clean_sbu_0, # of connection points: 5
#     Node 3, Type 0, BuildingBlock: BEQFEK_clean_sbu_0, # of connection points: 5
#     Node 4, Type 0, BuildingBlock: BEQFEK_clean_sbu_0, # of connection points: 5
#     Node 5, Type 0, BuildingBlock: BEQFEK_clean_sbu_0, # of connection points: 5
#     Edge 6, Type (0, 0), BuildingBlock: EYOCIG_clean_linker_4, # of connection points: 2
#     Edge 7, Type (0, 0), BuildingBlock: EYOCIG_clean_linker_4, # of connection points: 2
#     Edge 8, Type (0, 0), BuildingBlock: EYOCIG_clean_linker_4, # of connection points: 2
#     Edge 9, Type (0, 0), BuildingBlock: EYOCIG_clean_linker_4, # of connection points: 2
#     Edge 10, Type (0, 0), BuildingBlock: EYOCIG_clean_linker_4, # of connection points: 2
#     Edge 11, Type (0, 0), BuildingBlock: EYOCIG_clean_linker_4, # of connection points: 2
#     Edge 12, Type (0, 0), BuildingBlock: EYOCIG_clean_linker_4, # of connection points: 2
#     Edge 13, Type (0, 0), BuildingBlock: EYOCIG_clean_linker_4, # of connection points: 2
#     Edge 14, Type (0, 0), BuildingBlock: EYOCIG_clean_linker_4, # of connection points: 2
#     Edge 15, Type (0, 0), BuildingBlock: EYOCIG_clean_linker_4, # of connection points: 2
#     Edge 16, Type (0, 0), BuildingBlock: EYOCIG_clean_linker_4, # of connection points: 2
#     Edge 17, Type (0, 0), BuildingBlock: EYOCIG_clean_linker_4, # of connection points: 2
#     Edge 18, Type (0, 0), BuildingBlock: EYOCIG_clean_linker_4, # of connection points: 2
#     Edge 19, Type (0, 0), BuildingBlock: EYOCIG_clean_linker_4, # of connection points: 2
#     Edge 20, Type (0, 0), BuildingBlock: EYOCIG_clean_linker_4, # of connection points: 2
# Relax obj value: 0.505
# Max RMSD: 0.271
# Mean RMSD: 0.271
data_MOF--net-fnv--node1-BEQFEK_clean_sbu_0--edge1-EYOCIG_clean_linker_4
_symmetry_space_group_name_H-M    P1
_symmetry_Int_Tables_number       1
_symmetry_cell_setting            triclinic
loop_
_symmetry_equiv_pos_as_xyz
'x, y, z'
_cell_length_a     29.062478
_cell_length_b     29.051505
_cell_length_c     25.393104
_cell_angle_alpha  89.981761
_cell_angle_beta   90.041705
_cell_angle_gamma 119.99909
loop_
_atom_site_label
_atom_site_type_symbol
_atom_site_fract_x
_atom_site_fract_y
_atom_site_fract_z
_atom_type_partial_charge
Co0 Co 0.25611 0.35993 0.94058 0.0
Co1 Co 0.25851 0.45103 0.01013 0.0
C2 C 0.2666 0.4597 0.89359 0.0
O3 O 0.26245 0.4142 0.88856 0.0
O4 O 0.2649 0.47851 0.93822 0.0
C5 C 0.21517 0.28013 0.85979 0.0
O6 O 0.18537 0.3008 0.8479 0.0
C7 C 0.2375 0.53369 0.05032 0.0
C8 C 0.26236 0.53926 0.13348 0.0
C9 C 0.24282 0.56038 0.09696 0.0
N10 N 0.25351 0.49817 0.0587 0.0
N11 N 0.26857 0.50189 0.10841 0.0
C12 C 0.21729 0.54134 -0.0012 0.0
H13 H 0.25147 0.56405 0.97197 0.0
H14 H 0.19082 0.50212 -0.01962 0.0
H15 H 0.19572 0.56358 0.00383 0.0
C16 C 0.15682 0.29567 0.0033 0.0
N17 N 0.20003 0.34208 -0.01047 0.0
N18 N 0.2007 0.38079 0.01718 0.0
C19 C 0.15762 0.36045 0.04853 0.0
C20 C 0.12874 0.30606 0.04104 0.0
C21 C 0.14315 0.24267 -0.0189 0.0
H22 H 0.17955 0.23952 -0.02204 0.0
H23 H 0.12666 0.23898 0.94091 0.0
H24 H 0.11322 0.20982 0.00584 0.0
O25 O 0.32633 0.39137 -0.02334 0.0
O26 O 0.32665 0.45513 0.02546 0.0
H27 H 0.17337 0.40765 0.11782 0.0
H28 H 0.10376 0.36873 0.10159 0.0
C29 C 0.14432 0.39259 0.08498 0.0
H30 H 0.14717 0.42715 0.06351 0.0
H31 H 0.28298 0.47879 0.12524 0.0
O32 O 0.24637 0.29759 0.8991 0.0
C33 C 0.34896 0.42992 0.00894 0.0
Co34 Co 0.88221 0.26295 0.27361 0.0
Co35 Co 0.79344 0.26492 0.34333 0.0
C36 C 0.79262 0.27292 0.22676 0.0
O37 O 0.83404 0.26894 0.22165 0.0
O38 O 0.77221 0.27121 0.27144 0.0
C39 C 0.92115 0.22223 0.1928 0.0
O40 O 0.87069 0.19228 0.18099 0.0
C41 C 0.68982 0.24396 0.38349 0.0
C42 C 0.70891 0.26796 0.46686 0.0
C43 C 0.6684 0.24898 0.4302 0.0
N44 N 0.74125 0.25962 0.39195 0.0
N45 N 0.75246 0.27415 0.4418 0.0
C46 C 0.66212 0.22443 0.3318 0.0
H47 H 0.67397 0.25894 0.30529 0.0
H48 H 0.6746 0.19787 0.31313 0.0
H49 H 0.61829 0.20312 0.33666 0.0
C50 C 0.84767 0.16369 0.33633 0.0
N51 N 0.84427 0.20682 0.32262 0.0
N52 N 0.80617 0.20728 0.35032 0.0
C53 C 0.78358 0.16412 0.38161 0.0
C54 C 0.80926 0.13543 0.37406 0.0
C55 C 0.88709 0.15024 0.31403 0.0
H56 H 0.92656 0.18675 0.31081 0.0
H57 H 0.87424 0.1337 0.27388 0.0
H58 H 0.89021 0.12039 0.33876 0.0
O59 O 0.92077 0.33325 0.30958 0.0
O60 O 0.85733 0.33324 0.35859 0.0
H61 H 0.75199 0.17923 0.45114 0.0
H62 H 0.72126 0.10977 0.43425 0.0
C63 C 0.73806 0.15051 0.41803 0.0
H64 H 0.70644 0.15363 0.39667 0.0
H65 H 0.78988 0.28822 0.45871 0.0
O66 O 0.93487 0.25345 0.23206 0.0
C67 C 0.90481 0.35576 0.34193 0.0
Co68 Co 0.60574 0.88935 0.60645 0.0
Co69 Co 0.51489 0.8008 0.67626 0.0
C70 C 0.50595 0.79989 0.55973 0.0
O71 O 0.55141 0.84125 0.55457 0.0
O72 O 0.48726 0.7795 0.60443 0.0
C73 C 0.68552 0.92788 0.52575 0.0
O74 O 0.66499 0.87735 0.5142 0.0
C75 C 0.43234 0.69724 0.71676 0.0
C76 C 0.42719 0.71669 0.79994 0.0
C77 C 0.40586 0.67597 0.76349 0.0
N78 N 0.46795 0.74877 0.725 0.0
N79 N 0.46448 0.76019 0.77473 0.0
C80 C 0.4244 0.6693 0.66526 0.0
H81 H 0.40157 0.68077 0.63855 0.0
H82 H 0.4635 0.68198 0.64667 0.0
H83 H 0.40216 0.62549 0.67038 0.0
C84 C 0.67021 0.85457 0.66932 0.0
N85 N 0.62376 0.85129 0.65552 0.0
N86 N 0.58515 0.81328 0.68326 0.0
C87 C 0.60558 0.79062 0.71466 0.0
C88 C 0.65993 0.81616 0.70713 0.0
C89 C 0.72315 0.89392 0.64706 0.0
H90 H 0.72616 0.93341 0.64362 0.0
H91 H 0.72692 0.88093 0.60701 0.0
H92 H 0.75602 0.89707 0.67195 0.0
O93 O 0.57434 0.92822 0.64238 0.0
O94 O 0.51077 0.86487 0.69138 0.0
H95 H 0.55867 0.75923 0.7841 0.0
H96 H 0.59744 0.72844 0.76768 0.0
C97 C 0.57356 0.7452 0.75119 0.0
H98 H 0.5389 0.7135 0.72983 0.0
H99 H 0.4877 0.79773 0.79147 0.0
O100 O 0.66795 0.94178 0.5648 0.0
C101 C 0.53588 0.91236 0.67471 0.0
Co102 Co 0.70237 0.61269 0.94019 0.0
Co103 Co 0.70039 0.52188 0.0099 0.0
C104 C 0.69217 0.51298 0.8934 0.0
O105 O 0.69614 0.5584 0.8883 0.0
O106 O 0.69399 0.49427 0.93806 0.0
C107 C 0.74339 0.69236 0.85939 0.0
O108 O 0.77332 0.67177 0.84783 0.0
C109 C 0.72095 0.43894 0.05025 0.0
C110 C 0.69738 0.43449 0.1337 0.0
C111 C 0.71601 0.41263 0.09706 0.0
N112 N 0.70559 0.47496 0.05864 0.0
N113 N 0.69131 0.4719 0.10853 0.0
C114 C 0.74013 0.43043 -0.00145 0.0
H115 H 0.7055 0.40793 0.97214 0.0
H116 H 0.76685 0.46937 -0.02024 0.0
H117 H 0.76115 0.40762 0.00342 0.0
C118 C 0.80166 0.67731 0.0029 0.0
N119 N 0.75855 0.6308 -0.01085 0.0
N120 N 0.7581 0.5922 0.01682 0.0
C121 C 0.80127 0.61271 0.04811 0.0
C122 C 0.82993 0.6671 0.04061 0.0
C123 C 0.81505 0.73025 -0.01928 0.0
H124 H 0.7785 0.73313 -0.0226 0.0
H125 H 0.83172 0.73412 0.94062 0.0
H126 H 0.84477 0.76316 0.00558 0.0
O127 O 0.63221 0.58121 -0.02373 0.0
O128 O 0.63219 0.51764 0.02518 0.0
H129 H 0.78638 0.56617 0.11777 0.0
H130 H 0.85573 0.60459 0.10052 0.0
C131 C 0.81489 0.58073 0.08451 0.0
H132 H 0.81149 0.54586 0.06322 0.0
H133 H 0.6775 0.49548 0.1254 0.0
O134 O 0.71202 0.67488 0.89852 0.0
C135 C 0.60973 0.54272 0.00862 0.0
Co136 Co 0.07586 0.70961 0.27339 0.0
Co137 Co 0.16446 0.70729 0.34319 0.0
C138 C 0.16526 0.69931 0.22664 0.0
O139 O 0.12391 0.70342 0.22149 0.0
O140 O 0.18565 0.70096 0.27135 0.0
C141 C 0.03728 0.75087 0.19268 0.0
O142 O 0.08779 0.78087 0.18114 0.0
C143 C 0.26801 0.7281 0.3835 0.0
C144 C 0.24884 0.70383 0.4668 0.0
C145 C 0.2894 0.72295 0.43022 0.0
N146 N 0.21657 0.71238 0.39188 0.0
N147 N 0.20531 0.69768 0.44167 0.0
C148 C 0.29577 0.74784 0.33191 0.0
H149 H 0.28404 0.71342 0.3053 0.0
H150 H 0.28321 0.77437 0.31327 0.0
H151 H 0.33959 0.76924 0.33688 0.0
C152 C 0.1106 0.80882 0.33628 0.0
N153 N 0.11393 0.76568 0.32246 0.0
N154 N 0.15197 0.76508 0.35019 0.0
C155 C 0.1746 0.80816 0.3816 0.0
C156 C 0.14901 0.83694 0.37409 0.0
C157 C 0.0712 0.82238 0.31405 0.0
H158 H 0.03174 0.78588 0.31063 0.0
H159 H 0.0841 0.83914 0.27398 0.0
H160 H 0.06804 0.8521 0.33894 0.0
O161 O 0.03707 0.63933 0.30935 0.0
O162 O 0.10043 0.63908 0.35839 0.0
H163 H 0.20601 0.79271 0.45113 0.0
H164 H 0.23686 0.86225 0.43451 0.0
C165 C 0.22004 0.82156 0.41814 0.0
H166 H 0.25167 0.81847 0.39682 0.0
H167 H 0.16787 0.68354 0.45851 0.0
O168 O 0.0234 0.71939 0.23175 0.0
C169 C 0.05294 0.61671 0.34171 0.0
Co170 Co 0.35262 0.08307 0.6068 0.0
Co171 Co 0.44374 0.17182 0.67631 0.0
C172 C 0.45222 0.17248 0.55977 0.0
O173 O 0.40675 0.13109 0.55477 0.0
O174 O 0.47108 0.19299 0.6044 0.0
C175 C 0.27262 0.04434 0.52623 0.0
O176 O 0.29309 0.09485 0.5146 0.0
C177 C 0.52662 0.27537 0.7166 0.0
C178 C 0.53164 0.25609 0.79989 0.0
C179 C 0.55311 0.2967 0.76334 0.0
N180 N 0.49085 0.2239 0.72495 0.0
N181 N 0.49426 0.21258 0.77474 0.0
C182 C 0.53467 0.30319 0.66501 0.0
H183 H 0.55718 0.29133 0.63834 0.0
H184 H 0.49559 0.29078 0.64644 0.0
H185 H 0.55725 0.34701 0.66997 0.0
C186 C 0.28836 0.1179 0.66985 0.0
N187 N 0.33477 0.12121 0.65591 0.0
N188 N 0.37349 0.15932 0.6835 0.0
C189 C 0.35317 0.18203 0.71492 0.0
C190 C 0.29878 0.1564 0.7076 0.0
C191 C 0.23534 0.07844 0.6478 0.0
H192 H 0.23237 0.03896 0.64442 0.0
H193 H 0.23136 0.09128 0.60773 0.0
H194 H 0.20256 0.07532 0.67277 0.0
O195 O 0.3842 0.0443 0.64267 0.0
O196 O 0.44798 0.1078 0.69143 0.0
H197 H 0.40017 0.21363 0.78433 0.0
H198 H 0.36155 0.24451 0.7676 0.0
C199 C 0.38533 0.22759 0.75128 0.0
H200 H 0.42001 0.25913 0.72984 0.0
H201 H 0.47091 0.17512 0.79157 0.0
O202 O 0.29028 0.03052 0.56531 0.0
C203 C 0.42282 0.06027 0.67487 0.0
C204 C 0.50735 0.49975 0.028 0.0
C205 C 0.5541 0.51993 0.01875 0.0
C206 C 0.4514 0.47279 0.02808 0.0
C207 C 0.40462 0.45265 0.01893 0.0
C208 C -0.00669 0.51426 0.3609 0.0
C209 C 0.01998 0.56104 0.35173 0.0
C210 C 0.96424 0.45827 0.36097 0.0
C211 C 0.93761 0.41147 0.3519 0.0
C212 C 0.49294 0.97189 0.69379 0.0
C213 C 0.51314 0.94531 0.68464 0.0
C214 C 0.46591 0.00084 0.69383 0.0
C215 C 0.44565 0.02739 0.68475 0.0
C216 C 0.20129 0.66393 0.15127 0.0
C217 C 0.1825 0.68062 0.18299 0.0
C218 C 0.21783 0.63275 0.12354 0.0
C219 C 0.22826 0.59987 0.108 0.0
C220 C 0.5235 0.20821 0.48431 0.0
C221 C 0.48806 0.18955 0.51607 0.0
C222 C 0.57119 0.22454 0.45661 0.0
C223 C 0.61443 0.23474 0.44113 0.0
C224 C 0.33341 0.57871 0.79028 0.0
C225 C 0.36631 0.62196 0.77466 0.0
C226 C 0.30217 0.53104 0.8181 0.0
C227 C 0.28539 0.49561 0.8499 0.0
C228 C 0.75658 0.30833 0.15136 0.0
C229 C 0.77536 0.29163 0.18312 0.0
C230 C 0.74021 0.33968 0.12362 0.0
C231 C 0.73009 0.37278 0.10809 0.0
C232 C 0.38665 0.74752 0.45674 0.0
C233 C 0.34338 0.73726 0.44125 0.0
C234 C 0.4344 0.76394 0.48441 0.0
C235 C 0.46994 0.78269 0.51611 0.0
C236 C 0.62565 0.39395 0.79007 0.0
C237 C 0.59272 0.3507 0.77444 0.0
C238 C 0.65683 0.44162 0.81792 0.0
C239 C 0.67348 0.47704 0.84973 0.0
C240 C 0.24043 0.18573 0.7616 0.0
C241 C 0.26245 0.16846 0.73457 0.0
C242 C 0.2247 0.21404 0.79533 0.0
C243 C 0.21914 0.24418 0.82375 0.0
C244 C -0.00322 0.23186 0.12838 0.0
C245 C 0.96107 0.22623 0.15676 0.0
C246 C 0.04088 0.24765 0.09475 0.0
C247 C 0.08025 0.26972 0.06785 0.0
C248 C 0.78002 0.04749 0.42764 0.0
C249 C 0.79727 0.08691 0.40078 0.0
C250 C 0.75168 0.00336 0.46125 0.0
C251 C 0.72153 0.96766 0.48964 0.0
C252 C 0.7184 0.78682 0.76098 0.0
C253 C 0.69634 0.8041 0.73399 0.0
C254 C 0.7341 0.75847 0.79472 0.0
C255 C 0.73959 0.72833 0.82321 0.0
C256 C 0.91776 0.72575 0.09436 0.0
C257 C 0.87838 0.7036 0.06742 0.0
C258 C 0.96184 0.74154 0.12805 0.0
C259 C -0.00249 0.74708 0.1565 0.0
C260 C 0.17824 0.92472 0.42796 0.0
C261 C 0.16102 0.88538 0.40098 0.0
C262 C 0.20652 0.9688 0.46168 0.0
C263 C 0.23664 0.0045 0.49011 0.0
loop_
_geom_bond_atom_site_label_1
_geom_bond_atom_site_label_2
_geom_bond_distance
_geom_bond_site_symmetry_2
_ccdc_geom_bond_type
Co0 O3 1.970 . S
Co0 N17 1.989 1_556 S
Co0 O25 1.967 . S
Co0 O32 1.920 . S
Co1 O4 1.966 1_554 S
Co1 N10 2.022 . S
Co1 N18 1.993 . S
Co1 O26 1.941 . S
C2 O3 1.258 . S
C2 O4 1.263 . S
O3 Co0 1.970 . S
O3 C2 1.258 . S
O4 Co1 1.966 1_556 S
O4 C2 1.263 . S
C5 O6 1.235 . S
C5 O32 1.289 . S
O6 C5 1.235 . S
C7 C9 1.400 . S
C7 N10 1.351 . S
C7 C12 1.501 . S
C8 C9 1.387 . S
C8 N11 1.341 . S
C9 C7 1.400 . S
C9 C8 1.387 . S
N10 Co1 2.022 . S
N10 C7 1.351 . S
N10 N11 1.365 . S
N11 C8 1.341 . S
N11 N10 1.365 . S
N11 H31 0.862 . S
C12 C7 1.501 . S
C12 H13 0.953 1_554 S
C12 H14 0.961 . S
C12 H15 0.960 . S
H13 C12 0.953 1_556 S
H14 C12 0.961 . S
H15 C12 0.960 . S
C16 N17 1.342 . S
C16 C20 1.401 . S
C16 C21 1.499 1_554 S
N17 Co0 1.989 1_554 S
N17 C16 1.342 . S
N17 N18 1.388 . S
N18 Co1 1.993 . S
N18 N17 1.388 . S
N18 C19 1.346 . S
C19 N18 1.346 . S
C19 C20 1.396 . S
C19 C29 1.510 . S
C20 C16 1.401 . S
C20 C19 1.396 . S
C21 C16 1.499 1_556 S
C21 H22 0.959 . S
C21 H23 0.960 . S
C21 H24 0.961 1_556 S
H22 C21 0.959 . S
H23 C21 0.960 . S
H24 C21 0.961 1_554 S
O25 Co0 1.967 . S
O25 C33 1.258 1_556 S
O26 Co1 1.941 . S
O26 C33 1.266 . S
H27 C29 0.959 . S
H28 C29 0.961 . S
C29 C19 1.510 . S
C29 H27 0.959 . S
C29 H28 0.961 . S
C29 H30 0.960 . S
H30 C29 0.960 . S
H31 N11 0.862 . S
O32 Co0 1.920 . S
O32 C5 1.289 . S
C33 O25 1.258 1_554 S
C33 O26 1.266 . S
Co34 O37 1.970 . S
Co34 N51 1.989 . S
Co34 O59 1.967 . S
Co34 O66 1.920 . S
Co35 O38 1.966 . S
Co35 N44 2.022 . S
Co35 N52 1.993 . S
Co35 O60 1.941 . S
C36 O37 1.258 . S
C36 O38 1.263 . S
O37 Co34 1.970 . S
O37 C36 1.258 . S
O38 Co35 1.966 . S
O38 C36 1.263 . S
C39 O40 1.235 . S
C39 O66 1.289 . S
O40 C39 1.235 . S
C41 C43 1.400 . S
C41 N44 1.351 . S
C41 C46 1.501 . S
C42 C43 1.387 . S
C42 N45 1.341 . S
C43 C41 1.400 . S
C43 C42 1.387 . S
N44 Co35 2.022 . S
N44 C41 1.351 . S
N44 N45 1.365 . S
N45 C42 1.341 . S
N45 N44 1.365 . S
N45 H65 0.862 . S
C46 C41 1.501 . S
C46 H47 0.961 . S
C46 H48 0.961 . S
C46 H49 0.960 . S
H47 C46 0.961 . S
H48 C46 0.961 . S
H49 C46 0.960 . S
C50 N51 1.342 . S
C50 C54 1.401 . S
C50 C55 1.499 . S
N51 Co34 1.989 . S
N51 C50 1.342 . S
N51 N52 1.388 . S
N52 Co35 1.993 . S
N52 N51 1.388 . S
N52 C53 1.346 . S
C53 N52 1.346 . S
C53 C54 1.396 . S
C53 C63 1.510 . S
C54 C50 1.401 . S
C54 C53 1.396 . S
C55 C50 1.499 . S
C55 H56 0.959 . S
C55 H57 0.960 . S
C55 H58 0.961 . S
H56 C55 0.959 . S
H57 C55 0.960 . S
H58 C55 0.961 . S
O59 Co34 1.967 . S
O59 C67 1.258 . S
O60 Co35 1.941 . S
O60 C67 1.266 . S
H61 C63 0.959 . S
H62 C63 0.961 . S
C63 C53 1.510 . S
C63 H61 0.959 . S
C63 H62 0.961 . S
C63 H64 0.960 . S
H64 C63 0.960 . S
H65 N45 0.862 . S
O66 Co34 1.920 . S
O66 C39 1.289 . S
C67 O59 1.258 . S
C67 O60 1.266 . S
Co68 O71 1.970 . S
Co68 N85 1.989 . S
Co68 O93 1.967 . S
Co68 O100 1.920 . S
Co69 O72 1.966 . S
Co69 N78 2.022 . S
Co69 N86 1.993 . S
Co69 O94 1.941 . S
C70 O71 1.258 . S
C70 O72 1.263 . S
O71 Co68 1.970 . S
O71 C70 1.258 . S
O72 Co69 1.966 . S
O72 C70 1.263 . S
C73 O74 1.235 . S
C73 O100 1.289 . S
O74 C73 1.235 . S
C75 C77 1.400 . S
C75 N78 1.351 . S
C75 C80 1.501 . S
C76 C77 1.387 . S
C76 N79 1.341 . S
C77 C75 1.400 . S
C77 C76 1.387 . S
N78 Co69 2.022 . S
N78 C75 1.351 . S
N78 N79 1.365 . S
N79 C76 1.341 . S
N79 N78 1.365 . S
N79 H99 0.862 . S
C80 C75 1.501 . S
C80 H81 0.961 . S
C80 H82 0.961 . S
C80 H83 0.960 . S
H81 C80 0.961 . S
H82 C80 0.961 . S
H83 C80 0.960 . S
C84 N85 1.342 . S
C84 C88 1.401 . S
C84 C89 1.499 . S
N85 Co68 1.989 . S
N85 C84 1.342 . S
N85 N86 1.388 . S
N86 Co69 1.993 . S
N86 N85 1.388 . S
N86 C87 1.346 . S
C87 N86 1.346 . S
C87 C88 1.396 . S
C87 C97 1.510 . S
C88 C84 1.401 . S
C88 C87 1.396 . S
C89 C84 1.499 . S
C89 H90 0.959 . S
C89 H91 0.960 . S
C89 H92 0.961 . S
H90 C89 0.959 . S
H91 C89 0.960 . S
H92 C89 0.961 . S
O93 Co68 1.967 . S
O93 C101 1.258 . S
O94 Co69 1.941 . S
O94 C101 1.266 . S
H95 C97 0.959 . S
H96 C97 0.961 . S
C97 C87 1.510 . S
C97 H95 0.959 . S
C97 H96 0.961 . S
C97 H98 0.960 . S
H98 C97 0.960 . S
H99 N79 0.862 . S
O100 Co68 1.920 . S
O100 C73 1.289 . S
C101 O93 1.258 . S
C101 O94 1.266 . S
Co102 O105 1.970 . S
Co102 N119 1.989 1_556 S
Co102 O127 1.967 . S
Co102 O134 1.920 . S
Co103 O106 1.966 1_554 S
Co103 N112 2.022 . S
Co103 N120 1.993 . S
Co103 O128 1.941 . S
C104 O105 1.258 . S
C104 O106 1.263 . S
O105 Co102 1.970 . S
O105 C104 1.258 . S
O106 Co103 1.966 1_556 S
O106 C104 1.263 . S
C107 O108 1.235 . S
C107 O134 1.289 . S
O108 C107 1.235 . S
C109 C111 1.400 . S
C109 N112 1.351 . S
C109 C114 1.501 . S
C110 C111 1.387 . S
C110 N113 1.341 . S
C111 C109 1.400 . S
C111 C110 1.387 . S
N112 Co103 2.022 . S
N112 C109 1.351 . S
N112 N113 1.365 . S
N113 C110 1.341 . S
N113 N112 1.365 . S
N113 H133 0.862 . S
C114 C109 1.501 . S
C114 H115 0.953 1_554 S
C114 H116 0.961 . S
C114 H117 0.960 . S
H115 C114 0.953 1_556 S
H116 C114 0.961 . S
H117 C114 0.960 . S
C118 N119 1.342 . S
C118 C122 1.401 . S
C118 C123 1.499 1_554 S
N119 Co102 1.989 1_554 S
N119 C118 1.342 . S
N119 N120 1.388 . S
N120 Co103 1.993 . S
N120 N119 1.388 . S
N120 C121 1.346 . S
C121 N120 1.346 . S
C121 C122 1.396 . S
C121 C131 1.510 . S
C122 C118 1.401 . S
C122 C121 1.396 . S
C123 C118 1.499 1_556 S
C123 H124 0.959 . S
C123 H125 0.960 . S
C123 H126 0.961 1_556 S
H124 C123 0.959 . S
H125 C123 0.960 . S
H126 C123 0.961 1_554 S
O127 Co102 1.967 . S
O127 C135 1.258 1_556 S
O128 Co103 1.941 . S
O128 C135 1.266 . S
H129 C131 0.959 . S
H130 C131 0.961 . S
C131 C121 1.510 . S
C131 H129 0.959 . S
C131 H130 0.961 . S
C131 H132 0.960 . S
H132 C131 0.960 . S
H133 N113 0.862 . S
O134 Co102 1.920 . S
O134 C107 1.289 . S
C135 O127 1.258 1_554 S
C135 O128 1.266 . S
Co136 O139 1.970 . S
Co136 N153 1.989 . S
Co136 O161 1.967 . S
Co136 O168 1.920 . S
Co137 O140 1.966 . S
Co137 N146 2.022 . S
Co137 N154 1.993 . S
Co137 O162 1.941 . S
C138 O139 1.258 . S
C138 O140 1.263 . S
O139 Co136 1.970 . S
O139 C138 1.258 . S
O140 Co137 1.966 . S
O140 C138 1.263 . S
C141 O142 1.235 . S
C141 O168 1.289 . S
O142 C141 1.235 . S
C143 C145 1.400 . S
C143 N146 1.351 . S
C143 C148 1.501 . S
C144 C145 1.387 . S
C144 N147 1.341 . S
C145 C143 1.400 . S
C145 C144 1.387 . S
N146 Co137 2.022 . S
N146 C143 1.351 . S
N146 N147 1.365 . S
N147 C144 1.341 . S
N147 N146 1.365 . S
N147 H167 0.862 . S
C148 C143 1.501 . S
C148 H149 0.961 . S
C148 H150 0.961 . S
C148 H151 0.960 . S
H149 C148 0.961 . S
H150 C148 0.961 . S
H151 C148 0.960 . S
C152 N153 1.342 . S
C152 C156 1.401 . S
C152 C157 1.499 . S
N153 Co136 1.989 . S
N153 C152 1.342 . S
N153 N154 1.388 . S
N154 Co137 1.993 . S
N154 N153 1.388 . S
N154 C155 1.346 . S
C155 N154 1.346 . S
C155 C156 1.396 . S
C155 C165 1.510 . S
C156 C152 1.401 . S
C156 C155 1.396 . S
C157 C152 1.499 . S
C157 H158 0.959 . S
C157 H159 0.960 . S
C157 H160 0.961 . S
H158 C157 0.959 . S
H159 C157 0.960 . S
H160 C157 0.961 . S
O161 Co136 1.967 . S
O161 C169 1.258 . S
O162 Co137 1.941 . S
O162 C169 1.266 . S
H163 C165 0.959 . S
H164 C165 0.961 . S
C165 C155 1.510 . S
C165 H163 0.959 . S
C165 H164 0.961 . S
C165 H166 0.960 . S
H166 C165 0.960 . S
H167 N147 0.862 . S
O168 Co136 1.920 . S
O168 C141 1.289 . S
C169 O161 1.258 . S
C169 O162 1.266 . S
Co170 O173 1.970 . S
Co170 N187 1.989 . S
Co170 O195 1.967 . S
Co170 O202 1.920 . S
Co171 O174 1.966 . S
Co171 N180 2.022 . S
Co171 N188 1.993 . S
Co171 O196 1.941 . S
C172 O173 1.258 . S
C172 O174 1.263 . S
O173 Co170 1.970 . S
O173 C172 1.258 . S
O174 Co171 1.966 . S
O174 C172 1.263 . S
C175 O176 1.235 . S
C175 O202 1.289 . S
O176 C175 1.235 . S
C177 C179 1.400 . S
C177 N180 1.351 . S
C177 C182 1.501 . S
C178 C179 1.387 . S
C178 N181 1.341 . S
C179 C177 1.400 . S
C179 C178 1.387 . S
N180 Co171 2.022 . S
N180 C177 1.351 . S
N180 N181 1.365 . S
N181 C178 1.341 . S
N181 N180 1.365 . S
N181 H201 0.862 . S
C182 C177 1.501 . S
C182 H183 0.961 . S
C182 H184 0.961 . S
C182 H185 0.960 . S
H183 C182 0.961 . S
H184 C182 0.961 . S
H185 C182 0.960 . S
C186 N187 1.342 . S
C186 C190 1.401 . S
C186 C191 1.499 . S
N187 Co170 1.989 . S
N187 C186 1.342 . S
N187 N188 1.388 . S
N188 Co171 1.993 . S
N188 N187 1.388 . S
N188 C189 1.346 . S
C189 N188 1.346 . S
C189 C190 1.396 . S
C189 C199 1.510 . S
C190 C186 1.401 . S
C190 C189 1.396 . S
C191 C186 1.499 . S
C191 H192 0.959 . S
C191 H193 0.960 . S
C191 H194 0.961 . S
H192 C191 0.959 . S
H193 C191 0.960 . S
H194 C191 0.961 . S
O195 Co170 1.967 . S
O195 C203 1.258 . S
O196 Co171 1.941 . S
O196 C203 1.266 . S
H197 C199 0.959 . S
H198 C199 0.961 . S
C199 C189 1.510 . S
C199 H197 0.959 . S
C199 H198 0.961 . S
C199 H200 0.960 . S
H200 C199 0.960 . S
H201 N181 0.862 . S
O202 Co170 1.920 . S
O202 C175 1.289 . S
C203 O195 1.258 . S
C203 O196 1.266 . S
C204 C205 1.170 . S
C204 C206 1.380 . S
C205 C204 1.170 . S
C206 C204 1.380 . S
C206 C207 1.170 . S
C207 C206 1.170 . S
C208 C209 1.170 . S
C208 C210 1.380 1_455 S
C209 C208 1.170 . S
C210 C208 1.380 1_655 S
C210 C211 1.170 . S
C211 C210 1.170 . S
C212 C213 1.170 . S
C212 C214 1.380 1_565 S
C213 C212 1.170 . S
C214 C212 1.380 1_545 S
C214 C215 1.170 . S
C215 C214 1.170 . S
C216 C217 1.170 . S
C216 C218 1.380 . S
C217 C216 1.170 . S
C218 C216 1.380 . S
C218 C219 1.170 . S
C219 C218 1.170 . S
C220 C221 1.170 . S
C220 C222 1.380 . S
C221 C220 1.170 . S
C222 C220 1.380 . S
C222 C223 1.170 . S
C223 C222 1.170 . S
C224 C225 1.170 . S
C224 C226 1.380 . S
C225 C224 1.170 . S
C226 C224 1.380 . S
C226 C227 1.170 . S
C227 C226 1.170 . S
C228 C229 1.170 . S
C228 C230 1.380 . S
C229 C228 1.170 . S
C230 C228 1.380 . S
C230 C231 1.170 . S
C231 C230 1.170 . S
C232 C233 1.170 . S
C232 C234 1.380 . S
C233 C232 1.170 . S
C234 C232 1.380 . S
C234 C235 1.170 . S
C235 C234 1.170 . S
C236 C237 1.170 . S
C236 C238 1.380 . S
C237 C236 1.170 . S
C238 C236 1.380 . S
C238 C239 1.170 . S
C239 C238 1.170 . S
C240 C241 1.170 . S
C240 C242 1.380 . S
C241 C240 1.170 . S
C242 C240 1.380 . S
C242 C243 1.170 . S
C243 C242 1.170 . S
C244 C245 1.170 1_455 S
C244 C246 1.380 . S
C245 C244 1.170 1_655 S
C246 C244 1.380 . S
C246 C247 1.170 . S
C247 C246 1.170 . S
C248 C249 1.170 . S
C248 C250 1.380 . S
C249 C248 1.170 . S
C250 C248 1.380 . S
C250 C251 1.170 1_545 S
C251 C250 1.170 1_565 S
C252 C253 1.170 . S
C252 C254 1.380 . S
C253 C252 1.170 . S
C254 C252 1.380 . S
C254 C255 1.170 . S
C255 C254 1.170 . S
C256 C257 1.170 . S
C256 C258 1.380 . S
C257 C256 1.170 . S
C258 C256 1.380 . S
C258 C259 1.170 1_655 S
C259 C258 1.170 1_455 S
C260 C261 1.170 . S
C260 C262 1.380 . S
C261 C260 1.170 . S
C262 C260 1.380 . S
C262 C263 1.170 1_565 S
C263 C262 1.170 1_545 S
C205 C135 1.405 . S
C207 C33 1.426 . S
C209 C169 1.413 . S
C211 C67 1.382 . S
C213 C101 1.387 . S
C215 C203 1.383 . S
C217 C138 1.136 . S
C219 C9 1.122 . S
C221 C172 1.135 . S
C223 C43 1.127 . S
C225 C77 1.082 . S
C227 C2 1.104 . S
C229 C36 1.115 . S
C231 C111 1.086 . S
C233 C145 1.126 . S
C235 C70 1.133 . S
C237 C179 1.120 . S
C239 C104 1.136 . S
C241 C190 1.030 . S
C243 C5 1.088 . S
C245 C39 1.093 . S
C247 C20 1.045 . S
C249 C54 1.077 . S
C251 C73 1.092 . S
C253 C88 1.078 . S
C255 C107 1.091 . S
C257 C122 1.078 . S
C259 C141 1.092 . S
C261 C156 1.058 . S
C263 C175 1.095 . S
