# Generated by pormake.
# Topology pcu, (6)-cn, num edge types: 1
# Building blocks:
#     Node 0, Type 0, BuildingBlock: BETDAH_clean_sbu_0, # of connection points: 6
#     Edge 1, Type (0, 0), BuildingBlock: ZUJKAS_clean_linker_0, # of connection points: 2
#     Edge 2, Type (0, 0), BuildingBlock: ZUJKAS_clean_linker_0, # of connection points: 2
#     Edge 3, Type (0, 0), BuildingBlock: ZUJKAS_clean_linker_0, # of connection points: 2
# Relax obj value: 0.000
# Max RMSD: 0.000
# Mean RMSD: 0.000
data_MOF--net-pcu--node1-BETDAH_clean_sbu_0--edge1-ZUJKAS_clean_linker_0
_symmetry_space_group_name_H-M    P1
_symmetry_Int_Tables_number       1
_symmetry_cell_setting            triclinic
loop_
_symmetry_equiv_pos_as_xyz
'x, y, z'
_cell_length_a     29.683671
_cell_length_b     19.974002
_cell_length_c     18.765459
_cell_angle_alpha  86.473741
_cell_angle_beta   97.113911
_cell_angle_gamma 125.06377
loop_
_atom_site_label
_atom_site_type_symbol
_atom_site_fract_x
_atom_site_fract_y
_atom_site_fract_z
_atom_type_partial_charge
Ho0 Ho 0.96436 0.93145 0.02815 0.0
Ho1 Ho 0.08717 0.03821 1.00329 0.0
C2 C 0.02835 0.1285 1.00533 0.0
C3 C 0.8691 0.87185 0.07333 0.0
C4 C 0.82787 0.89159 0.06723 0.0
C5 C 0.78694 0.85567 0.11445 0.0
C6 C 0.74615 0.87101 0.1081 0.0
C7 C 0.74524 0.92257 0.05408 0.0
C8 C 0.78713 0.95968 1.00752 0.0
C9 C 0.82807 0.94442 1.01411 0.0
C10 C 0.98472 0.94349 0.89003 0.0
C11 C 1.02315 0.84115 0.02587 0.0
C12 C 0.18259 0.098 0.95853 0.0
C13 C 0.22377 0.07816 0.96457 0.0
C14 C 0.26471 0.1141 0.91736 0.0
C15 C 0.30547 0.09871 0.92367 0.0
C16 C 0.30635 0.04708 0.97763 0.0
C17 C 0.26445 0.00994 0.02417 0.0
C18 C 0.22353 0.02525 0.01763 0.0
C19 C 0.06647 0.02597 0.14138 0.0
O20 O 0.98749 0.0604 0.03241 0.0
O21 O 0.06904 0.13201 0.97921 0.0
O22 O 0.87513 0.84751 0.01434 0.0
O23 O 0.91644 0.92297 0.11099 0.0
O24 O 0.94366 0.87848 0.91688 0.0
O25 O 1.01031 0.00062 0.93598 0.0
O26 O 0.064 0.90926 0.99879 0.0
O27 O 0.9825 0.83764 0.0521 0.0
O28 O 0.1764 0.12195 0.01763 0.0
O29 O 0.13534 0.04719 0.92057 0.0
O30 O 0.10749 0.09115 0.11463 0.0
O31 O 0.04124 0.96901 0.09531 0.0
H32 H 0.78629 0.81516 0.15611 0.0
H33 H 0.71542 0.84263 0.14587 0.0
H34 H 0.78765 -0.00086 0.96492 0.0
H35 H 0.85946 0.97303 0.97719 0.0
H36 H 0.26539 0.15467 0.87573 0.0
H37 H 0.33621 0.12712 0.8859 0.0
H38 H 0.2639 0.97043 0.06674 0.0
H39 H 0.19214 -0.00338 0.05453 0.0
H40 H 0.98895 0.88845 0.20905 0.0
H41 H 0.974 0.87475 0.33646 0.0
H42 H 0.10663 0.12956 0.37256 0.0
H43 H 0.12123 0.14379 0.2455 0.0
H44 H 0.05043 0.90417 0.45639 0.0
H45 H 0.97975 0.10748 0.46191 0.0
H46 H 0.98204 0.06817 0.37931 0.0
H47 H 0.04434 0.15375 0.42499 0.0
C48 C 1.01457 0.94159 0.24416 0.0
C49 C 0.05613 0.01724 0.21748 0.0
C50 C 1.00608 0.93368 0.31684 0.0
C51 C 0.03871 0.00141 0.36379 0.0
C52 C 0.08025 0.07691 0.33708 0.0
H53 H 0.06228 0.08066 0.82205 0.0
H54 H 0.07692 0.09401 0.69456 0.0
C55 C 0.08875 0.08483 0.26456 0.0
C56 C 0.03073 -0.00731 0.44121 0.0
H57 H 1.00007 0.06445 0.57481 0.0
C58 C 0.03908 0.9388 0.48224 0.0
C59 C 1.01621 0.03827 0.47486 0.0
C60 C 1.00455 0.09465 0.43298 0.0
C61 C 0.03427 0.93032 0.55632 0.0
C62 C 1.01979 0.97595 0.58999 0.0
C63 C 1.0114 0.02981 0.54895 0.0
C64 C 1.01196 0.9674 0.66745 0.0
C65 C 0.04589 0.87391 0.59822 0.0
C66 C 0.97038 0.89204 0.6943 0.0
C67 C 0.96203 0.88432 0.76687 0.0
C68 C 0.99487 0.95197 0.81385 0.0
C69 C 0.03648 0.02748 0.78702 0.0
C70 C 0.0448 0.03519 0.71429 0.0
H71 H 0.07051 0.86082 0.5692 0.0
H72 H 0.06857 0.90053 0.65179 0.0
H73 H 1.00608 0.81494 0.60644 0.0
H74 H 0.94385 0.83936 0.6589 0.0
H75 H 0.92951 0.82547 0.78605 0.0
H76 H 0.41666 0.15819 0.96161 0.0
H77 H 0.48972 0.13539 0.97271 0.0
H78 H 0.37234 0.88364 0.02699 0.0
H79 H 0.29838 0.90489 1.01305 0.0
H80 H 0.53006 0.08797 0.08896 0.0
H81 H 0.44341 0.85976 0.86819 0.0
H82 H 0.41758 0.92064 0.87964 0.0
H83 H 0.3968 0.83218 0.93428 0.0
C84 C 0.406 0.09749 0.97474 0.0
C85 C 0.35122 0.03322 0.98569 0.0
C86 C 0.44806 0.08477 0.98168 0.0
C87 C 0.43653 0.00747 0.99954 0.0
C88 C 0.38216 0.94343 1.01165 0.0
H89 H 0.63494 0.81145 0.07014 0.0
H90 H 0.56187 0.83423 0.05902 0.0
C91 C 0.33997 0.95602 1.00455 0.0
C92 C 0.48172 -0.00531 1.00693 0.0
H93 H 0.5215 0.88162 0.94273 0.0
C94 C 0.52829 0.04309 0.05674 0.0
C95 C 0.4795 0.93608 0.96498 0.0
C96 C 0.43192 0.88467 0.90828 0.0
C97 C 0.57207 0.03351 0.0667 0.0
C98 C 0.56984 0.9749 0.02475 0.0
C99 C 0.52327 0.9265 0.97494 0.0
C100 C 0.61504 0.96213 0.03214 0.0
C101 C 0.61965 0.08492 0.1234 0.0
C102 C 0.6694 0.02617 0.02 0.0
C103 C 0.7116 0.0136 0.02711 0.0
C104 C 0.70036 0.93641 0.046 0.0
C105 C 0.64559 0.87213 0.05698 0.0
C106 C 0.60352 0.88485 0.05003 0.0
H107 H 0.60816 0.10985 0.16348 0.0
H108 H 0.63398 0.04895 0.15204 0.0
H109 H 0.65477 0.1374 0.09739 0.0
H110 H 0.67921 0.08595 1.00464 0.0
H111 H 0.75318 0.06472 0.01859 0.0
H112 H 0.94598 0.68707 0.07197 0.0
H113 H 0.94764 0.56593 0.07029 0.0
H114 H 0.10339 0.70831 0.9797 0.0
H115 H 0.10267 0.82946 0.98198 0.0
H116 H 0.95146 0.49324 0.94924 0.0
H117 H 0.13394 0.59617 0.14962 0.0
H118 H 0.09793 0.64508 0.14035 0.0
H119 H 0.14639 0.6673 0.07846 0.0
C120 C 0.98081 0.69275 0.05228 0.0
C121 C 1.02423 0.76799 0.02731 0.0
C122 C 0.98163 0.62352 0.05126 0.0
C123 C 1.02602 0.62862 0.0258 0.0
C124 C 0.06933 0.70353 1.0009 0.0
H125 H 0.10553 0.28255 0.95918 0.0
H126 H 0.10386 0.40369 0.96075 0.0
C127 C 0.0686 0.77262 1.00187 0.0
C128 C 1.02615 0.555 0.02244 0.0
H129 H 0.10003 0.47641 0.08171 0.0
C130 C 0.9837 0.48921 0.97852 0.0
C131 C 0.06854 0.55044 0.06038 0.0
C132 C 0.11405 0.61817 0.11038 0.0
C133 C 0.98295 0.41922 0.97056 0.0
C134 C 1.02534 0.41465 1.00851 0.0
C135 C 0.06779 0.48045 0.05243 0.0
C136 C 1.02546 0.34102 1.00517 0.0
C137 C 0.93745 0.35149 0.92056 0.0
C138 C 0.98213 0.26612 0.03007 0.0
C139 C 0.98287 0.19703 0.02916 0.0
C140 C 0.02726 0.20164 1.00379 0.0
C141 C 0.07068 0.27687 0.97882 0.0
C142 C 0.06986 0.34611 0.97977 0.0
H143 H 0.91757 0.3735 0.8813 0.0
H144 H 0.95356 0.32456 0.89061 0.0
H145 H 0.90508 0.30238 0.95247 0.0
H146 H 0.94806 0.26135 0.05123 0.0
H147 H 0.94879 0.1402 0.04906 0.0
loop_
_geom_bond_atom_site_label_1
_geom_bond_atom_site_label_2
_geom_bond_distance
_geom_bond_site_symmetry_2
_ccdc_geom_bond_type
Ho0 C3 2.811 . S
Ho0 O20 2.322 1_565 S
Ho0 O22 2.378 . S
Ho0 O23 2.524 1_556 S
Ho0 O24 2.381 . S
Ho0 O25 2.669 1_665 S
Ho0 O27 2.346 . S
Ho0 O31 2.305 1_556 S
Ho1 C12 2.811 . S
Ho1 O21 2.346 . S
Ho1 O25 2.305 1_554 S
Ho1 O26 2.322 1_545 S
Ho1 O28 2.378 . S
Ho1 O29 2.524 1_554 S
Ho1 O30 2.381 . S
Ho1 O31 2.669 1_445 S
C2 O20 1.259 1_455 S
C2 O21 1.268 1_556 S
C3 Ho0 2.811 . S
C3 C4 1.490 . S
C3 O22 1.215 . S
C3 O23 1.289 1_556 S
C4 C3 1.490 . S
C4 C5 1.339 1_566 S
C4 C9 1.421 . S
C5 C4 1.339 1_544 S
C5 C6 1.442 . S
C5 H32 0.930 . S
C6 C5 1.442 . S
C6 C7 1.368 1_544 S
C6 H33 0.931 . S
C7 C6 1.368 1_566 S
C7 C8 1.336 . S
C8 C7 1.336 . S
C8 C9 1.403 . S
C8 H34 0.934 . S
C9 C4 1.421 . S
C9 C8 1.403 . S
C9 H35 0.930 . S
C10 O24 1.275 . S
C10 O25 1.256 1_665 S
C11 O26 1.259 1_655 S
C11 O27 1.268 1_554 S
C12 Ho1 2.811 . S
C12 C13 1.490 . S
C12 O28 1.215 . S
C12 O29 1.289 1_554 S
C13 C12 1.490 . S
C13 C14 1.336 1_544 S
C13 C18 1.424 . S
C14 C13 1.336 1_566 S
C14 C15 1.442 . S
C14 H36 0.930 . S
C15 C14 1.442 . S
C15 C16 1.381 1_566 S
C15 H37 0.931 . S
C16 C15 1.381 1_544 S
C16 C17 1.321 . S
C17 C16 1.321 . S
C17 C18 1.403 . S
C17 H38 0.934 . S
C18 C13 1.424 . S
C18 C17 1.403 . S
C18 H39 0.930 . S
C19 O30 1.275 . S
C19 O31 1.256 1_445 S
O20 Ho0 2.322 1_545 S
O20 C2 1.259 1_655 S
O21 Ho1 2.346 . S
O21 C2 1.268 1_554 S
O22 Ho0 2.378 . S
O22 C3 1.215 . S
O23 Ho0 2.524 1_554 S
O23 C3 1.289 1_554 S
O24 Ho0 2.381 . S
O24 C10 1.275 . S
O25 Ho0 2.669 1_445 S
O25 Ho1 2.305 1_556 S
O25 C10 1.256 1_445 S
O26 Ho1 2.322 1_565 S
O26 C11 1.259 1_455 S
O27 Ho0 2.346 . S
O27 C11 1.268 1_556 S
O28 Ho1 2.378 . S
O28 C12 1.215 . S
O29 Ho1 2.524 1_556 S
O29 C12 1.289 1_556 S
O30 Ho1 2.381 . S
O30 C19 1.275 . S
O31 Ho0 2.305 1_554 S
O31 Ho1 2.669 1_665 S
O31 C19 1.256 1_665 S
H32 C5 0.930 . S
H33 C6 0.931 . S
H34 C8 0.934 . S
H35 C9 0.930 . S
H36 C14 0.930 . S
H37 C15 0.931 . S
H38 C17 0.934 . S
H39 C18 0.930 . S
H40 C48 0.929 . S
H41 C50 0.930 . S
H42 C52 0.930 . S
H43 C55 0.929 . S
H44 C58 0.930 . S
H45 C60 0.960 . S
H46 C60 0.960 . S
H47 C60 0.960 . S
C48 H40 0.929 . S
C48 C49 1.374 1_655 S
C48 C50 1.384 . S
C49 C48 1.374 1_455 S
C49 C55 1.393 1_545 S
C50 H41 0.930 . S
C50 C48 1.384 . S
C50 C51 1.372 . S
C51 C50 1.372 . S
C51 C52 1.400 1_645 S
C51 C56 1.491 1_545 S
C52 H42 0.930 . S
C52 C51 1.400 1_465 S
C52 C55 1.386 . S
H53 C69 0.930 . S
H54 C70 0.931 . S
C55 H43 0.929 . S
C55 C49 1.393 1_565 S
C55 C52 1.386 . S
C56 C51 1.491 1_565 S
C56 C58 1.397 . S
C56 C59 1.400 1_665 S
H57 C63 0.930 . S
C58 H44 0.930 . S
C58 C56 1.397 . S
C58 C61 1.403 . S
C59 C56 1.400 1_445 S
C59 C60 1.524 . S
C59 C63 1.400 . S
C60 H45 0.960 . S
C60 H46 0.960 . S
C60 H47 0.960 . S
C60 C59 1.524 . S
C61 C58 1.403 . S
C61 C62 1.392 . S
C61 C65 1.495 . S
C62 C61 1.392 . S
C62 C63 1.385 1_665 S
C62 C64 1.478 . S
C63 H57 0.930 . S
C63 C59 1.400 . S
C63 C62 1.385 1_445 S
C64 C62 1.478 . S
C64 C66 1.381 1_565 S
C64 C70 1.383 1_655 S
C65 C61 1.495 . S
C65 H71 0.959 . S
C65 H72 0.961 . S
C65 H73 0.960 . S
C66 C64 1.381 1_545 S
C66 C67 1.394 . S
C66 H74 0.930 . S
C67 C66 1.394 . S
C67 C68 1.383 1_545 S
C67 H75 0.929 . S
C68 C67 1.383 1_565 S
C68 C69 1.377 1_655 S
C69 H53 0.930 . S
C69 C68 1.377 1_455 S
C69 C70 1.379 . S
C70 H54 0.931 . S
C70 C64 1.383 1_455 S
C70 C69 1.379 . S
H71 C65 0.959 . S
H72 C65 0.961 . S
H73 C65 0.960 . S
H74 C66 0.930 . S
H75 C67 0.929 . S
H76 C84 0.929 . S
H77 C86 0.930 . S
H78 C88 0.930 . S
H79 C91 0.929 . S
H80 C94 0.930 . S
H81 C96 0.960 . S
H82 C96 0.960 . S
H83 C96 0.964 . S
C84 H76 0.929 . S
C84 C85 1.389 1_545 S
C84 C86 1.384 . S
C85 C84 1.389 1_565 S
C85 C91 1.380 1_556 S
C86 H77 0.930 . S
C86 C84 1.384 . S
C86 C87 1.372 . S
C87 C86 1.372 . S
C87 C88 1.400 1_546 S
C87 C92 1.490 . S
C88 H78 0.930 . S
C88 C87 1.400 1_564 S
C88 C91 1.386 . S
H89 C105 0.930 . S
H90 C106 0.931 . S
C91 H79 0.929 . S
C91 C85 1.380 1_554 S
C91 C88 1.386 . S
C92 C87 1.490 . S
C92 C94 1.395 1_556 S
C92 C95 1.403 1_545 S
H93 C99 0.930 . S
C94 H80 0.930 . S
C94 C92 1.395 1_554 S
C94 C97 1.403 . S
C95 C92 1.403 1_565 S
C95 C96 1.524 . S
C95 C99 1.400 . S
C96 H81 0.960 . S
C96 H82 0.960 . S
C96 H83 0.964 . S
C96 C95 1.524 . S
C97 C94 1.403 . S
C97 C98 1.392 . S
C97 C101 1.495 . S
C98 C97 1.392 . S
C98 C99 1.385 1_544 S
C98 C100 1.478 . S
C99 H93 0.930 . S
C99 C95 1.400 . S
C99 C98 1.385 1_566 S
C100 C98 1.478 . S
C100 C102 1.381 1_554 S
C100 C106 1.383 1_545 S
C101 C97 1.495 . S
C101 H107 0.959 . S
C101 H108 0.961 . S
C101 H109 0.960 1_554 S
C102 C100 1.381 1_556 S
C102 C103 1.394 . S
C102 H110 0.930 . S
C103 C102 1.394 . S
C103 C104 1.383 1_556 S
C103 H111 0.929 . S
C104 C103 1.383 1_554 S
C104 C105 1.377 1_545 S
C105 H89 0.930 . S
C105 C104 1.377 1_565 S
C105 C106 1.379 . S
C106 H90 0.931 . S
C106 C100 1.383 1_565 S
C106 C105 1.379 . S
H107 C101 0.959 . S
H108 C101 0.961 . S
H109 C101 0.960 1_556 S
H110 C102 0.930 . S
H111 C103 0.929 . S
H112 C120 0.929 . S
H113 C122 0.930 . S
H114 C124 0.930 . S
H115 C127 0.929 . S
H116 C130 0.930 . S
H117 C132 0.960 . S
H118 C132 0.960 . S
H119 C132 0.960 . S
C120 H112 0.929 . S
C120 C121 1.396 . S
C120 C122 1.384 . S
C121 C120 1.396 . S
C121 C127 1.386 1_454 S
C122 H113 0.930 . S
C122 C120 1.384 . S
C122 C123 1.372 . S
C123 C122 1.372 . S
C123 C124 1.400 1_454 S
C123 C128 1.487 . S
C124 H114 0.930 . S
C124 C123 1.400 1_656 S
C124 C127 1.386 . S
H125 C141 0.930 . S
H126 C142 0.931 . S
C127 H115 0.929 . S
C127 C121 1.386 1_656 S
C127 C124 1.386 . S
C128 C123 1.487 . S
C128 C130 1.393 1_455 S
C128 C131 1.407 1_554 S
H129 C135 0.930 . S
C130 H116 0.930 . S
C130 C128 1.393 1_655 S
C130 C133 1.403 . S
C131 C128 1.407 1_556 S
C131 C132 1.524 . S
C131 C135 1.400 . S
C132 H117 0.960 . S
C132 H118 0.960 . S
C132 H119 0.960 . S
C132 C131 1.524 . S
C133 C130 1.403 . S
C133 C134 1.392 . S
C133 C137 1.495 . S
C134 C133 1.392 . S
C134 C135 1.385 1_654 S
C134 C136 1.478 . S
C135 H129 0.930 . S
C135 C131 1.400 . S
C135 C134 1.385 1_456 S
C136 C134 1.478 . S
C136 C138 1.381 1_655 S
C136 C142 1.383 1_554 S
C137 C133 1.495 . S
C137 H143 0.959 . S
C137 H144 0.961 . S
C137 H145 0.960 . S
C138 C136 1.381 1_455 S
C138 C139 1.394 . S
C138 H146 0.930 . S
C139 C138 1.394 . S
C139 C140 1.383 1_455 S
C139 H147 0.929 . S
C140 C139 1.383 1_655 S
C140 C141 1.377 1_554 S
C141 H125 0.930 . S
C141 C140 1.377 1_556 S
C141 C142 1.379 . S
C142 H126 0.931 . S
C142 C136 1.383 1_556 S
C142 C141 1.379 . S
H143 C137 0.959 . S
H144 C137 0.961 . S
H145 C137 0.960 . S
H146 C138 0.930 . S
H147 C139 0.929 . S
C49 C19 1.461 . S
C68 C10 1.436 . S
C85 C16 1.497 1_566 S
C104 C7 1.497 1_544 S
C121 C11 1.477 1_455 S
C140 C2 1.498 1_654 S
