# Generated by pormake.
# Topology ukh, (4)-cn, num edge types: 1
# Building blocks:
#     Node 0, Type 0, BuildingBlock: AZAVOO_clean_sbu_0, # of connection points: 4
#     Node 1, Type 0, BuildingBlock: AZAVOO_clean_sbu_0, # of connection points: 4
#     Node 2, Type 0, BuildingBlock: AZAVOO_clean_sbu_0, # of connection points: 4
#     Node 3, Type 0, BuildingBlock: AZAVOO_clean_sbu_0, # of connection points: 4
#     Node 4, Type 0, BuildingBlock: AZAVOO_clean_sbu_0, # of connection points: 4
#     Node 5, Type 0, BuildingBlock: AZAVOO_clean_sbu_0, # of connection points: 4
#     Node 6, Type 0, BuildingBlock: AZAVOO_clean_sbu_0, # of connection points: 4
#     Node 7, Type 0, BuildingBlock: AZAVOO_clean_sbu_0, # of connection points: 4
#     Node 8, Type 0, BuildingBlock: AZAVOO_clean_sbu_0, # of connection points: 4
#     Node 9, Type 0, BuildingBlock: AZAVOO_clean_sbu_0, # of connection points: 4
#     Node 10, Type 0, BuildingBlock: AZAVOO_clean_sbu_0, # of connection points: 4
#     Node 11, Type 0, BuildingBlock: AZAVOO_clean_sbu_0, # of connection points: 4
#     Edge 12, Type (0, 0), None
#     Edge 13, Type (0, 0), None
#     Edge 14, Type (0, 0), None
#     Edge 15, Type (0, 0), None
#     Edge 16, Type (0, 0), None
#     Edge 17, Type (0, 0), None
#     Edge 18, Type (0, 0), None
#     Edge 19, Type (0, 0), None
#     Edge 20, Type (0, 0), None
#     Edge 21, Type (0, 0), None
#     Edge 22, Type (0, 0), None
#     Edge 23, Type (0, 0), None
#     Edge 24, Type (0, 0), None
#     Edge 25, Type (0, 0), None
#     Edge 26, Type (0, 0), None
#     Edge 27, Type (0, 0), None
#     Edge 28, Type (0, 0), None
#     Edge 29, Type (0, 0), None
#     Edge 30, Type (0, 0), None
#     Edge 31, Type (0, 0), None
#     Edge 32, Type (0, 0), None
#     Edge 33, Type (0, 0), None
#     Edge 34, Type (0, 0), None
#     Edge 35, Type (0, 0), None
# Relax obj value: 0.220
# Max RMSD: 0.243
# Mean RMSD: 0.243
data_MOF--net-ukh--node1-AZAVOO_clean_sbu_0--edge1-none
_symmetry_space_group_name_H-M    P1
_symmetry_Int_Tables_number       1
_symmetry_cell_setting            triclinic
loop_
_symmetry_equiv_pos_as_xyz
'x, y, z'
_cell_length_a     13.924642
_cell_length_b     13.924149
_cell_length_c     28.320456
_cell_angle_alpha  89.998592
_cell_angle_beta   90.000351
_cell_angle_gamma 120.00444
loop_
_atom_site_label
_atom_site_type_symbol
_atom_site_fract_x
_atom_site_fract_y
_atom_site_fract_z
_atom_type_partial_charge
Mg0 Mg 0.33827 0.24778 0.04701 0.0
O1 O 0.32159 0.32485 0.98082 0.0
O2 O 0.19417 0.32255 0.02757 0.0
Mg3 Mg 0.07908 0.13933 0.05064 0.0
C4 C 0.24568 0.34885 -0.01192 0.0
C5 C 0.55975 0.49104 0.06767 0.0
O6 O 0.66633 0.55267 0.07583 0.0
O7 O 0.32319 0.16878 0.11787 0.0
O8 O 0.15094 0.14044 0.12483 0.0
O9 O 0.36216 0.11766 0.00763 0.0
O10 O 0.19723 0.09145 0.02193 0.0
C11 C 0.23637 0.14184 0.14244 0.0
C12 C 0.25704 0.05486 0.00423 0.0
O13 O 0.51853 0.38693 0.0618 0.0
Mg14 Mg 0.10701 0.33006 0.38036 0.0
O15 O 1.01326 0.31339 0.31417 0.0
O16 O 0.88814 0.18593 0.36092 0.0
Mg17 Mg 0.95628 0.07083 0.38396 0.0
C18 C 0.91334 0.23745 0.32143 0.0
C19 C 0.0852 0.55152 0.40101 0.0
O20 O 0.13016 0.6581 0.40918 0.0
O21 O 0.17093 0.31495 0.45121 0.0
O22 O 0.02703 0.14266 0.45815 0.0
O23 O 0.26103 0.35398 0.34096 0.0
O24 O 0.1223 0.18904 0.35527 0.0
C25 C 0.11105 0.22809 0.47577 0.0
C26 C 0.21871 0.24885 0.33757 0.0
O27 O 0.1481 0.51031 0.39516 0.0
Mg28 Mg 0.79347 0.09868 0.71369 0.0
O29 O 0.71637 1.00488 0.64751 0.0
O30 O 0.71871 0.87979 0.69428 0.0
Mg31 Mg 0.90195 0.94796 0.71732 0.0
C32 C 0.69238 0.90496 0.65478 0.0
C33 C 0.55022 0.07689 0.73434 0.0
O34 O 0.48859 0.12184 0.7425 0.0
O35 O 0.87251 0.16266 0.78454 0.0
O36 O 0.90088 0.01877 0.7915 0.0
O37 O 0.92358 0.25269 0.67428 0.0
O38 O 0.94978 0.11397 0.6886 0.0
C39 C 0.89948 0.1028 0.80911 0.0
C40 C 0.98638 0.21037 0.67089 0.0
O41 O 0.65433 0.13978 0.72847 0.0
Mg42 Mg 0.71132 0.78531 0.04703 0.0
O43 O 0.72803 0.70824 0.98085 0.0
O44 O 0.85549 0.71057 0.0276 0.0
Mg45 Mg 0.97051 0.89381 0.05067 0.0
C46 C 0.80394 0.68423 -0.01189 0.0
C47 C 0.48985 0.54204 0.06768 0.0
O48 O 0.38326 0.48041 0.07584 0.0
O49 O 0.72636 0.86434 0.11788 0.0
O50 O 0.89861 0.89268 0.12485 0.0
O51 O 0.68741 0.9154 0.00762 0.0
O52 O 0.85234 0.94165 0.02195 0.0
C53 C 0.81318 0.89129 0.14245 0.0
C54 C 0.79253 0.97822 0.00423 0.0
O55 O 0.53107 0.64616 0.06182 0.0
Mg56 Mg 0.94247 0.70307 0.38036 0.0
O57 O 0.03624 0.71981 0.31417 0.0
O58 O 0.16138 0.84724 0.36093 0.0
Mg59 Mg 0.09318 0.96225 0.38401 0.0
C60 C 0.13617 0.79572 0.32143 0.0
C61 C 0.96429 0.48161 0.401 0.0
O62 O 0.91933 0.37502 0.40916 0.0
O63 O 0.8785 0.71807 0.45121 0.0
O64 O 1.02242 0.89033 0.45819 0.0
O65 O 0.78846 0.67915 0.34096 0.0
O66 O 0.92716 0.8441 0.35529 0.0
C67 C 0.93838 0.80489 0.47579 0.0
C68 C 0.83077 0.78428 0.33758 0.0
O69 O 0.9014 0.52282 0.39513 0.0
Mg70 Mg 0.25595 0.93416 0.71368 0.0
O71 O 0.33301 0.02791 0.64749 0.0
O72 O 0.33068 0.15302 0.69425 0.0
Mg73 Mg 0.14745 0.08486 0.71729 0.0
C74 C 0.357 0.12783 0.65475 0.0
C75 C 0.49921 0.95597 0.73434 0.0
O76 O 0.56083 0.91102 0.74251 0.0
O77 O 0.17695 0.87024 0.78454 0.0
O78 O 0.14857 1.01414 0.79148 0.0
O79 O 0.12583 0.78011 0.6743 0.0
O80 O 0.09963 0.91883 0.6886 0.0
C81 C 0.14999 0.93012 0.8091 0.0
C82 C 0.06303 0.82242 0.6709 0.0
O83 O 0.3951 0.89307 0.72848 0.0
Mg84 Mg 0.75255 0.66425 0.6179 0.0
O85 O 0.62913 0.72973 0.62234 0.0
O86 O 0.75224 0.87106 0.58427 0.0
Mg87 Mg 0.92497 0.96345 0.61423 0.0
C88 C 0.67454 0.83293 0.61409 0.0
C89 C 0.54542 0.47773 0.55799 0.0
O90 O 0.49165 0.38443 0.53437 0.0
O91 O 0.82367 0.7276 0.54309 0.0
O92 O 0.96675 0.90096 0.54768 0.0
O93 O 0.9094 0.66095 0.63474 0.0
O94 O 0.88894 0.80512 0.65011 0.0
C95 C 0.90849 0.81083 0.52501 0.0
C96 C 0.95071 0.76094 0.65081 0.0
O97 O 0.63332 0.49974 0.58045 0.0
Mg98 Mg 0.10475 0.74437 0.95123 0.0
O99 O 0.91582 0.6209 0.95565 0.0
O100 O 0.89762 0.74401 0.91758 0.0
Mg101 Mg 0.97796 0.91677 0.94752 0.0
C102 C 0.85806 0.66633 0.94741 0.0
C103 C 0.08422 0.53728 0.89132 0.0
O104 O 0.12379 0.48356 0.8677 0.0
O105 O 0.11255 0.81546 0.87642 0.0
O106 O 0.08225 0.95852 0.88097 0.0
O107 O 0.26488 0.90123 0.96808 0.0
O108 O 0.10024 0.88077 0.98342 0.0
C109 C 0.11414 0.90026 0.85832 0.0
C110 C 0.2062 0.94254 0.98413 0.0
O111 O 0.15008 0.62518 0.9138 0.0
Mg112 Mg 0.37688 0.09656 0.28456 0.0
O113 O 0.31139 0.90764 0.28898 0.0
O114 O 0.17009 0.88944 0.25091 0.0
Mg115 Mg 0.07769 0.96977 0.28086 0.0
C116 C 0.20819 0.84986 0.28074 0.0
C117 C 0.56345 0.07601 0.22467 0.0
O118 O 0.65676 0.11559 0.20106 0.0
O119 O 0.31359 0.10437 0.20975 0.0
O120 O 0.14024 0.07409 0.21431 0.0
O121 O 0.38018 0.25671 0.30141 0.0
O122 O 0.23598 0.09206 0.31676 0.0
C123 C 0.23038 0.10597 0.19165 0.0
C124 C 0.28018 0.19802 0.31747 0.0
O125 O 0.5414 0.14188 0.24713 0.0
Mg126 Mg 0.29686 0.36855 0.61789 0.0
O127 O 0.42028 0.30306 0.6223 0.0
O128 O 0.29716 0.16174 0.58423 0.0
Mg129 Mg 0.12442 0.06935 0.61418 0.0
C130 C 0.37486 0.19986 0.61406 0.0
C131 C 0.50401 0.55513 0.558 0.0
O132 O 0.55777 0.64845 0.53439 0.0
O133 O 0.22576 0.30529 0.54307 0.0
O134 O 0.08268 0.13193 0.54763 0.0
O135 O 0.14003 0.37185 0.63474 0.0
O136 O 0.16045 0.22765 0.65008 0.0
C137 C 0.14094 0.22208 0.52498 0.0
C138 C 0.0987 0.27185 0.65079 0.0
O139 O 0.4161 0.53309 0.58047 0.0
Mg140 Mg 0.94483 0.28869 0.95121 0.0
O141 O 0.13375 0.41212 0.95562 0.0
O142 O 0.15194 0.28899 0.91756 0.0
Mg143 Mg 0.07158 0.11625 0.94752 0.0
C144 C 0.19152 0.3667 0.94738 0.0
C145 C 0.9654 0.49583 0.89131 0.0
O146 O 0.92584 0.54958 0.86771 0.0
O147 O 0.93699 0.21754 0.8764 0.0
O148 O 0.96727 0.07447 0.88098 0.0
O149 O 0.78468 0.13184 0.96807 0.0
O150 O 0.94932 0.1523 0.98341 0.0
C151 C 0.93537 0.13272 0.85831 0.0
C152 C 0.84336 0.09053 0.98413 0.0
O153 O 0.89952 0.4079 0.91377 0.0
Mg154 Mg 0.67262 0.93658 0.28456 0.0
O155 O 0.73813 0.12551 0.28897 0.0
O156 O 0.87945 0.14371 0.25091 0.0
Mg157 Mg 0.97181 0.06335 0.28088 0.0
C158 C 0.84133 0.18329 0.28073 0.0
C159 C 0.48607 0.95718 0.22466 0.0
O160 O 0.39276 0.91763 0.20105 0.0
O161 O 0.73594 0.92877 0.20975 0.0
O162 O 0.90928 0.95904 0.21433 0.0
O163 O 0.6693 0.77643 0.30141 0.0
O164 O 0.81349 0.94107 0.31676 0.0
C165 C 0.81915 0.92716 0.19167 0.0
C166 C 0.76929 0.83511 0.31748 0.0
O167 O 0.50811 0.8913 0.24712 0.0
loop_
_geom_bond_atom_site_label_1
_geom_bond_atom_site_label_2
_geom_bond_distance
_geom_bond_site_symmetry_2
_ccdc_geom_bond_type
Mg0 O1 2.028 . S
Mg0 O7 1.986 . S
Mg0 O9 2.114 1_554 S
Mg0 O10 2.251 . S
Mg0 O13 2.010 . S
O1 Mg0 2.028 . S
O1 C4 1.250 . S
O2 Mg3 2.028 1_545 S
O2 C4 1.248 . S
Mg3 O2 2.028 1_565 S
Mg3 O8 2.032 1_565 S
Mg3 O10 2.079 1_565 S
C4 O1 1.250 . S
C4 O2 1.248 . S
C5 O6 1.264 . S
C5 O13 1.249 . S
O6 C5 1.264 . S
O7 Mg0 1.986 . S
O7 C11 1.246 . S
O8 Mg3 2.032 1_545 S
O8 C11 1.259 . S
O9 Mg0 2.114 1_556 S
O9 C12 1.252 . S
O10 Mg0 2.251 . S
O10 Mg3 2.079 1_545 S
O10 C12 1.273 1_554 S
C11 O7 1.246 . S
C11 O8 1.259 . S
C12 O9 1.252 . S
C12 O10 1.273 1_556 S
O13 Mg0 2.010 . S
O13 C5 1.249 . S
Mg14 O15 2.028 1_455 S
Mg14 O21 1.986 . S
Mg14 O23 2.114 . S
Mg14 O24 2.251 . S
Mg14 O27 2.010 . S
O15 Mg14 2.028 1_655 S
O15 C18 1.250 . S
O16 Mg17 2.028 1_655 S
O16 C18 1.248 . S
Mg17 O16 2.028 1_455 S
Mg17 O22 2.032 . S
Mg17 O24 2.079 . S
C18 O15 1.250 . S
C18 O16 1.248 . S
C19 O20 1.264 . S
C19 O27 1.249 . S
O20 C19 1.264 . S
O21 Mg14 1.986 . S
O21 C25 1.246 . S
O22 Mg17 2.032 . S
O22 C25 1.259 . S
O23 Mg14 2.114 . S
O23 C26 1.252 . S
O24 Mg14 2.251 . S
O24 Mg17 2.079 . S
O24 C26 1.273 . S
C25 O21 1.246 . S
C25 O22 1.259 . S
C26 O23 1.252 . S
C26 O24 1.273 . S
O27 Mg14 2.010 . S
O27 C19 1.249 . S
Mg28 O29 2.028 1_545 S
Mg28 O35 1.986 . S
Mg28 O37 2.114 . S
Mg28 O38 2.251 . S
Mg28 O41 2.010 . S
O29 Mg28 2.028 1_565 S
O29 C32 1.250 . S
O30 Mg31 2.028 1_665 S
O30 C32 1.248 . S
Mg31 O30 2.028 1_445 S
Mg31 O36 2.032 1_455 S
Mg31 O38 2.079 1_455 S
C32 O29 1.250 . S
C32 O30 1.248 . S
C33 O34 1.264 . S
C33 O41 1.249 . S
O34 C33 1.264 . S
O35 Mg28 1.986 . S
O35 C39 1.246 . S
O36 Mg31 2.032 1_655 S
O36 C39 1.259 . S
O37 Mg28 2.114 . S
O37 C40 1.252 . S
O38 Mg28 2.251 . S
O38 Mg31 2.079 1_655 S
O38 C40 1.273 . S
C39 O35 1.246 . S
C39 O36 1.259 . S
C40 O37 1.252 . S
C40 O38 1.273 . S
O41 Mg28 2.010 . S
O41 C33 1.249 . S
Mg42 O43 2.028 . S
Mg42 O49 1.986 . S
Mg42 O51 2.114 1_554 S
Mg42 O52 2.251 . S
Mg42 O55 2.010 . S
O43 Mg42 2.028 . S
O43 C46 1.250 . S
O44 Mg45 2.028 1_565 S
O44 C46 1.248 . S
Mg45 O44 2.028 1_545 S
Mg45 O50 2.032 1_545 S
Mg45 O52 2.079 1_545 S
C46 O43 1.250 . S
C46 O44 1.248 . S
C47 O48 1.264 . S
C47 O55 1.249 . S
O48 C47 1.264 . S
O49 Mg42 1.986 . S
O49 C53 1.246 . S
O50 Mg45 2.032 1_565 S
O50 C53 1.259 . S
O51 Mg42 2.114 1_556 S
O51 C54 1.252 . S
O52 Mg42 2.251 . S
O52 Mg45 2.079 1_565 S
O52 C54 1.273 1_554 S
C53 O49 1.246 . S
C53 O50 1.259 . S
C54 O51 1.252 . S
C54 O52 1.273 1_556 S
O55 Mg42 2.010 . S
O55 C47 1.249 . S
Mg56 O57 2.028 1_655 S
Mg56 O63 1.986 . S
Mg56 O65 2.114 . S
Mg56 O66 2.251 . S
Mg56 O69 2.010 . S
O57 Mg56 2.028 1_455 S
O57 C60 1.250 . S
O58 Mg59 2.028 1_455 S
O58 C60 1.248 . S
Mg59 O58 2.028 1_655 S
Mg59 O64 2.032 . S
Mg59 O66 2.079 . S
C60 O57 1.250 . S
C60 O58 1.248 . S
C61 O62 1.264 . S
C61 O69 1.249 . S
O62 C61 1.264 . S
O63 Mg56 1.986 . S
O63 C67 1.246 . S
O64 Mg59 2.032 . S
O64 C67 1.259 . S
O65 Mg56 2.114 . S
O65 C68 1.252 . S
O66 Mg56 2.251 . S
O66 Mg59 2.079 . S
O66 C68 1.273 . S
C67 O63 1.246 . S
C67 O64 1.259 . S
C68 O65 1.252 . S
C68 O66 1.273 . S
O69 Mg56 2.010 . S
O69 C61 1.249 . S
Mg70 O71 2.028 1_565 S
Mg70 O77 1.986 . S
Mg70 O79 2.114 . S
Mg70 O80 2.251 . S
Mg70 O83 2.010 . S
O71 Mg70 2.028 1_545 S
O71 C74 1.250 . S
O72 Mg73 2.028 1_445 S
O72 C74 1.248 . S
Mg73 O72 2.028 1_665 S
Mg73 O78 2.032 1_655 S
Mg73 O80 2.079 1_655 S
C74 O71 1.250 . S
C74 O72 1.248 . S
C75 O76 1.264 . S
C75 O83 1.249 . S
O76 C75 1.264 . S
O77 Mg70 1.986 . S
O77 C81 1.246 . S
O78 Mg73 2.032 1_455 S
O78 C81 1.259 . S
O79 Mg70 2.114 . S
O79 C82 1.252 . S
O80 Mg70 2.251 . S
O80 Mg73 2.079 1_455 S
O80 C82 1.273 . S
C81 O77 1.246 . S
C81 O78 1.259 . S
C82 O79 1.252 . S
C82 O80 1.273 . S
O83 Mg70 2.010 . S
O83 C75 1.249 . S
Mg84 O85 2.028 . S
Mg84 O91 1.986 . S
Mg84 O93 2.114 . S
Mg84 O94 2.251 . S
Mg84 O97 2.010 . S
O85 Mg84 2.028 . S
O85 C88 1.250 . S
O86 Mg87 2.028 1_655 S
O86 C88 1.248 . S
Mg87 O86 2.028 1_455 S
Mg87 O92 2.032 1_455 S
Mg87 O94 2.079 1_455 S
C88 O85 1.250 . S
C88 O86 1.248 . S
C89 O90 1.264 . S
C89 O97 1.249 . S
O90 C89 1.264 . S
O91 Mg84 1.986 . S
O91 C95 1.246 . S
O92 Mg87 2.032 1_655 S
O92 C95 1.259 . S
O93 Mg84 2.114 . S
O93 C96 1.252 . S
O94 Mg84 2.251 . S
O94 Mg87 2.079 1_655 S
O94 C96 1.273 . S
C95 O91 1.246 . S
C95 O92 1.259 . S
C96 O93 1.252 . S
C96 O94 1.273 . S
O97 Mg84 2.010 . S
O97 C89 1.249 . S
Mg98 O99 2.028 1_455 S
Mg98 O105 1.986 . S
Mg98 O107 2.114 1_556 S
Mg98 O108 2.251 . S
Mg98 O111 2.010 . S
O99 Mg98 2.028 1_655 S
O99 C102 1.250 . S
O100 Mg101 2.028 1_665 S
O100 C102 1.248 . S
Mg101 O100 2.028 1_445 S
Mg101 O106 2.032 1_545 S
Mg101 O108 2.079 1_545 S
C102 O99 1.250 . S
C102 O100 1.248 . S
C103 O104 1.264 . S
C103 O111 1.249 . S
O104 C103 1.264 . S
O105 Mg98 1.986 . S
O105 C109 1.246 . S
O106 Mg101 2.032 1_565 S
O106 C109 1.259 . S
O107 Mg98 2.114 1_554 S
O107 C110 1.252 . S
O108 Mg98 2.251 . S
O108 Mg101 2.079 1_565 S
O108 C110 1.273 1_556 S
C109 O105 1.246 . S
C109 O106 1.259 . S
C110 O107 1.252 . S
C110 O108 1.273 1_554 S
O111 Mg98 2.010 . S
O111 C103 1.249 . S
Mg112 O113 2.028 1_545 S
Mg112 O119 1.986 . S
Mg112 O121 2.114 . S
Mg112 O122 2.251 . S
Mg112 O125 2.010 . S
O113 Mg112 2.028 1_565 S
O113 C116 1.250 . S
O114 Mg115 2.028 1_565 S
O114 C116 1.248 . S
Mg115 O114 2.028 1_545 S
Mg115 O120 2.032 . S
Mg115 O122 2.079 . S
C116 O113 1.250 . S
C116 O114 1.248 . S
C117 O118 1.264 . S
C117 O125 1.249 . S
O118 C117 1.264 . S
O119 Mg112 1.986 . S
O119 C123 1.246 . S
O120 Mg115 2.032 . S
O120 C123 1.259 . S
O121 Mg112 2.114 . S
O121 C124 1.252 . S
O122 Mg112 2.251 . S
O122 Mg115 2.079 . S
O122 C124 1.273 . S
C123 O119 1.246 . S
C123 O120 1.259 . S
C124 O121 1.252 . S
C124 O122 1.273 . S
O125 Mg112 2.010 . S
O125 C117 1.249 . S
Mg126 O127 2.028 . S
Mg126 O133 1.986 . S
Mg126 O135 2.114 . S
Mg126 O136 2.251 . S
Mg126 O139 2.010 . S
O127 Mg126 2.028 . S
O127 C130 1.250 . S
O128 Mg129 2.028 1_455 S
O128 C130 1.248 . S
Mg129 O128 2.028 1_655 S
Mg129 O134 2.032 1_655 S
Mg129 O136 2.079 1_655 S
C130 O127 1.250 . S
C130 O128 1.248 . S
C131 O132 1.264 . S
C131 O139 1.249 . S
O132 C131 1.264 . S
O133 Mg126 1.986 . S
O133 C137 1.246 . S
O134 Mg129 2.032 1_455 S
O134 C137 1.259 . S
O135 Mg126 2.114 . S
O135 C138 1.252 . S
O136 Mg126 2.251 . S
O136 Mg129 2.079 1_455 S
O136 C138 1.273 . S
C137 O133 1.246 . S
C137 O134 1.259 . S
C138 O135 1.252 . S
C138 O136 1.273 . S
O139 Mg126 2.010 . S
O139 C131 1.249 . S
Mg140 O141 2.028 1_655 S
Mg140 O147 1.986 . S
Mg140 O149 2.114 1_556 S
Mg140 O150 2.251 . S
Mg140 O153 2.010 . S
O141 Mg140 2.028 1_455 S
O141 C144 1.250 . S
O142 Mg143 2.028 1_445 S
O142 C144 1.248 . S
Mg143 O142 2.028 1_665 S
Mg143 O148 2.032 1_565 S
Mg143 O150 2.079 1_565 S
C144 O141 1.250 . S
C144 O142 1.248 . S
C145 O146 1.264 . S
C145 O153 1.249 . S
O146 C145 1.264 . S
O147 Mg140 1.986 . S
O147 C151 1.246 . S
O148 Mg143 2.032 1_545 S
O148 C151 1.259 . S
O149 Mg140 2.114 1_554 S
O149 C152 1.252 . S
O150 Mg140 2.251 . S
O150 Mg143 2.079 1_545 S
O150 C152 1.273 1_556 S
C151 O147 1.246 . S
C151 O148 1.259 . S
C152 O149 1.252 . S
C152 O150 1.273 1_554 S
O153 Mg140 2.010 . S
O153 C145 1.249 . S
Mg154 O155 2.028 1_565 S
Mg154 O161 1.986 . S
Mg154 O163 2.114 . S
Mg154 O164 2.251 . S
Mg154 O167 2.010 . S
O155 Mg154 2.028 1_545 S
O155 C158 1.250 . S
O156 Mg157 2.028 1_545 S
O156 C158 1.248 . S
Mg157 O156 2.028 1_565 S
Mg157 O162 2.032 . S
Mg157 O164 2.079 . S
C158 O155 1.250 . S
C158 O156 1.248 . S
C159 O160 1.264 . S
C159 O167 1.249 . S
O160 C159 1.264 . S
O161 Mg154 1.986 . S
O161 C165 1.246 . S
O162 Mg157 2.032 . S
O162 C165 1.259 . S
O163 Mg154 2.114 . S
O163 C166 1.252 . S
O164 Mg154 2.251 . S
O164 Mg157 2.079 . S
O164 C166 1.273 . S
C165 O161 1.246 . S
C165 O162 1.259 . S
C166 O163 1.252 . S
C166 O164 1.273 . S
O167 Mg154 2.010 . S
O167 C159 1.249 . S
C47 C5 2.619 . S
C19 C61 2.619 1_455 S
C75 C33 2.619 1_565 S
C89 C131 2.619 . S
C145 C103 2.619 1_655 S
C117 C159 2.619 1_545 S
C123 C11 1.493 . S
C25 C137 1.493 . S
C39 C151 1.493 . S
C53 C165 1.494 . S
C95 C67 1.493 . S
C109 C81 1.493 . S
C110 C12 1.462 1_564 S
C26 C124 1.462 . S
C40 C138 1.462 1_655 S
C54 C152 1.462 1_566 S
C166 C68 1.462 . S
C82 C96 1.462 1_455 S
C144 C4 1.516 1_556 S
C158 C18 1.516 . S
C88 C32 1.516 . S
C46 C102 1.516 1_554 S
C60 C116 1.516 . S
C74 C130 1.516 . S
