# Generated by pormake.
# Topology uoo, (4)-cn, num edge types: 1
# Building blocks:
#     Node 0, Type 0, BuildingBlock: QUQFOY_clean_sbu_3, # of connection points: 4
#     Node 1, Type 0, BuildingBlock: QUQFOY_clean_sbu_3, # of connection points: 4
#     Node 2, Type 0, BuildingBlock: QUQFOY_clean_sbu_3, # of connection points: 4
#     Node 3, Type 0, BuildingBlock: QUQFOY_clean_sbu_3, # of connection points: 4
#     Node 4, Type 0, BuildingBlock: QUQFOY_clean_sbu_3, # of connection points: 4
#     Node 5, Type 0, BuildingBlock: QUQFOY_clean_sbu_3, # of connection points: 4
#     Edge 6, Type (0, 0), None
#     Edge 7, Type (0, 0), None
#     Edge 8, Type (0, 0), None
#     Edge 9, Type (0, 0), None
#     Edge 10, Type (0, 0), None
#     Edge 11, Type (0, 0), None
#     Edge 12, Type (0, 0), None
#     Edge 13, Type (0, 0), None
#     Edge 14, Type (0, 0), None
#     Edge 15, Type (0, 0), None
#     Edge 16, Type (0, 0), None
#     Edge 17, Type (0, 0), None
# Relax obj value: 0.196
# Max RMSD: 0.149
# Mean RMSD: 0.148
data_MOF--net-uoo--node1-QUQFOY_clean_sbu_3--edge1-none
_symmetry_space_group_name_H-M    P1
_symmetry_Int_Tables_number       1
_symmetry_cell_setting            triclinic
loop_
_symmetry_equiv_pos_as_xyz
'x, y, z'
_cell_length_a     12.806615
_cell_length_b     12.573921
_cell_length_c     19.736076
_cell_angle_alpha  89.999929
_cell_angle_beta   89.998218
_cell_angle_gamma 120.00391
loop_
_atom_site_label
_atom_site_type_symbol
_atom_site_fract_x
_atom_site_fract_y
_atom_site_fract_z
_atom_type_partial_charge
C0 C 0.31467 0.41025 0.02303 0.0
O1 O 0.30926 0.4963 -0.00721 0.0
Cd2 Cd 0.12973 0.45182 0.93683 0.0
O3 O 0.21967 0.30792 0.03547 0.0
Cd4 Cd -0.00442 0.21495 0.03265 0.0
C5 C 0.0469 0.1556 0.87645 0.0
O6 O 0.00653 0.41335 0.03129 0.0
O7 O 0.83747 0.26115 -0.0023 0.0
O8 O -0.00122 0.1762 0.15362 0.0
C9 C -0.10157 0.37331 0.01443 0.0
O10 O 0.08796 0.27049 0.86954 0.0
C11 C -0.11057 0.09105 0.1568 0.0
O12 O 0.00519 0.10231 0.93298 0.0
O13 O 0.83255 0.05448 0.10123 0.0
C14 C 0.4367 -0.04034 0.39897 0.0
O15 O 0.479 0.01878 0.45367 0.0
Cd16 Cd 0.67683 0.17919 0.47543 0.0
O17 O 0.50531 -0.02747 0.34893 0.0
Cd18 Cd 0.73228 0.08659 0.34882 0.0
C19 C 0.74775 -0.03068 0.50205 0.0
O20 O 0.73216 0.27848 0.36783 0.0
O21 O -0.09358 0.29339 0.37361 0.0
O22 O 0.72152 0.04982 0.22609 0.0
C23 C 0.84493 0.3466 0.36843 0.0
O24 O 0.77306 0.07321 0.52615 0.0
C25 C 0.8258 0.06148 0.22189 0.0
O26 O 0.72297 -0.0522 0.43939 0.0
O27 O -0.11786 0.07515 0.27697 0.0
C28 C 0.39268 0.86824 0.65158 0.0
O29 O 0.38295 0.81437 0.59563 0.0
Cd30 Cd 0.42232 0.65568 0.56974 0.0
O31 O 0.44426 0.8515 0.70261 0.0
Cd32 Cd 0.55813 0.73601 0.69777 0.0
C33 C 0.69764 0.8639 0.54881 0.0
O34 O 0.36798 0.54955 0.67471 0.0
O35 O 0.5249 0.53112 0.66382 0.0
O36 O 0.58093 0.74246 0.8217 0.0
C37 C 0.41158 0.47984 0.6708 0.0
O38 O 0.62641 0.75866 0.52419 0.0
C39 C 0.67551 0.73339 0.82061 0.0
O40 O 0.68788 0.88405 0.61098 0.0
O41 O 0.72131 0.73844 0.76291 0.0
C42 C 0.43096 0.41657 0.02305 0.0
O43 O 0.43638 0.33056 -0.00724 0.0
Cd44 Cd 0.61592 0.37508 0.9368 0.0
O45 O 0.52592 0.51893 0.03549 0.0
Cd46 Cd 0.75002 0.61195 0.03267 0.0
C47 C 0.69876 0.67132 0.87646 0.0
O48 O 0.73908 0.41357 0.03128 0.0
O49 O -0.09183 0.56579 -0.00227 0.0
O50 O 0.74678 0.65066 0.15363 0.0
C51 C 0.84719 0.45362 0.01443 0.0
O52 O 0.65771 0.55643 0.86952 0.0
C53 C 0.85613 0.73582 0.15682 0.0
O54 O 0.7404 0.72459 0.93299 0.0
O55 O -0.08698 0.77241 0.10125 0.0
C56 C 0.30881 0.8671 0.39897 0.0
O57 O 0.26652 0.80798 0.45368 0.0
Cd58 Cd 0.06868 0.6476 0.47545 0.0
O59 O 0.24021 0.85427 0.34895 0.0
Cd60 Cd 0.01324 0.74023 0.34884 0.0
C61 C -0.00221 0.85751 0.50208 0.0
O62 O 0.01334 0.54833 0.36785 0.0
O63 O 0.83908 0.53343 0.3736 0.0
O64 O 0.02403 0.77703 0.22611 0.0
C65 C -0.09943 0.48022 0.36845 0.0
O66 O -0.02751 0.75363 0.52619 0.0
C67 C -0.08025 0.76538 0.22192 0.0
O68 O 0.02254 0.87902 0.43942 0.0
O69 O 0.86339 0.7517 0.27699 0.0
C70 C 0.3529 -0.04135 0.65158 0.0
O71 O 0.36261 0.0125 0.59562 0.0
Cd72 Cd 0.32321 0.17116 0.56973 0.0
O73 O 0.30132 -0.02461 0.70261 0.0
Cd74 Cd 0.18744 0.09087 0.69778 0.0
C75 C 0.0479 -0.03706 0.54883 0.0
O76 O 0.37759 0.27733 0.67468 0.0
O77 O 0.22067 0.29576 0.66384 0.0
O78 O 0.1647 0.08444 0.82171 0.0
C79 C 0.33399 0.34704 0.67079 0.0
O80 O 0.11912 0.06818 0.5242 0.0
C81 C 0.07014 0.09354 0.8206 0.0
O82 O 0.05767 -0.0572 0.61099 0.0
O83 O 0.02427 0.08845 0.76292 0.0
loop_
_geom_bond_atom_site_label_1
_geom_bond_atom_site_label_2
_geom_bond_distance
_geom_bond_site_symmetry_2
_ccdc_geom_bond_type
C0 O1 1.306 . S
C0 O3 1.160 . S
O1 C0 1.306 . S
O1 Cd2 2.228 1_554 S
Cd2 O1 2.228 1_556 S
Cd2 O6 2.273 1_556 S
Cd2 O10 2.277 . S
O3 C0 1.160 . S
O3 Cd4 2.203 . S
Cd4 O3 2.203 . S
Cd4 O6 2.411 . S
Cd4 O7 2.333 1_455 S
Cd4 O8 2.352 . S
Cd4 O12 2.277 1_554 S
Cd4 O13 2.356 1_455 S
C5 O10 1.209 . S
C5 O12 1.226 . S
O6 Cd2 2.273 1_554 S
O6 Cd4 2.411 . S
O6 C9 1.320 1_455 S
O7 Cd4 2.333 1_655 S
O7 C9 1.214 . S
O8 Cd4 2.352 . S
O8 C11 1.258 . S
C9 O6 1.320 1_655 S
C9 O7 1.214 . S
O10 Cd2 2.277 . S
O10 C5 1.209 . S
C11 O8 1.258 . S
C11 O13 1.282 1_455 S
O12 Cd4 2.277 1_556 S
O12 C5 1.226 . S
O13 Cd4 2.356 1_655 S
O13 C11 1.282 1_655 S
C14 O15 1.306 1_565 S
C14 O17 1.160 . S
O15 C14 1.306 1_545 S
O15 Cd16 2.228 . S
Cd16 O15 2.228 . S
Cd16 O20 2.273 . S
Cd16 O24 2.277 . S
O17 C14 1.160 . S
O17 Cd18 2.203 1_565 S
Cd18 O17 2.203 1_545 S
Cd18 O20 2.411 . S
Cd18 O21 2.333 1_655 S
Cd18 O22 2.352 . S
Cd18 O26 2.277 . S
Cd18 O27 2.356 1_655 S
C19 O24 1.209 . S
C19 O26 1.226 . S
O20 Cd16 2.273 . S
O20 Cd18 2.411 . S
O20 C23 1.320 1_655 S
O21 Cd18 2.333 1_455 S
O21 C23 1.214 . S
O22 Cd18 2.352 . S
O22 C25 1.258 . S
C23 O20 1.320 1_455 S
C23 O21 1.214 . S
O24 Cd16 2.277 . S
O24 C19 1.209 . S
C25 O22 1.258 . S
C25 O27 1.282 1_655 S
O26 Cd18 2.277 . S
O26 C19 1.226 . S
O27 Cd18 2.356 1_455 S
O27 C25 1.282 1_455 S
C28 O29 1.306 1_545 S
C28 O31 1.160 . S
O29 C28 1.306 1_565 S
O29 Cd30 2.228 . S
Cd30 O29 2.228 . S
Cd30 O34 2.273 . S
Cd30 O38 2.277 . S
O31 C28 1.160 . S
O31 Cd32 2.203 1_545 S
Cd32 O31 2.203 1_565 S
Cd32 O34 2.411 . S
Cd32 O35 2.333 . S
Cd32 O36 2.352 . S
Cd32 O40 2.277 . S
Cd32 O41 2.356 . S
C33 O38 1.209 . S
C33 O40 1.226 . S
O34 Cd30 2.273 . S
O34 Cd32 2.411 . S
O34 C37 1.320 . S
O35 Cd32 2.333 . S
O35 C37 1.214 . S
O36 Cd32 2.352 . S
O36 C39 1.258 . S
C37 O34 1.320 . S
C37 O35 1.214 . S
O38 Cd30 2.277 . S
O38 C33 1.209 . S
C39 O36 1.258 . S
C39 O41 1.282 . S
O40 Cd32 2.277 . S
O40 C33 1.226 . S
O41 Cd32 2.356 . S
O41 C39 1.282 . S
C42 O43 1.306 . S
C42 O45 1.160 . S
O43 C42 1.306 . S
O43 Cd44 2.228 1_554 S
Cd44 O43 2.228 1_556 S
Cd44 O48 2.273 1_556 S
Cd44 O52 2.277 . S
O45 C42 1.160 . S
O45 Cd46 2.203 . S
Cd46 O45 2.203 . S
Cd46 O48 2.411 . S
Cd46 O49 2.333 1_655 S
Cd46 O50 2.352 . S
Cd46 O54 2.277 1_554 S
Cd46 O55 2.356 1_655 S
C47 O52 1.209 . S
C47 O54 1.226 . S
O48 Cd44 2.273 1_554 S
O48 Cd46 2.411 . S
O48 C51 1.320 1_655 S
O49 Cd46 2.333 1_455 S
O49 C51 1.214 . S
O50 Cd46 2.352 . S
O50 C53 1.258 . S
C51 O48 1.320 1_455 S
C51 O49 1.214 . S
O52 Cd44 2.277 . S
O52 C47 1.209 . S
C53 O50 1.258 . S
C53 O55 1.282 1_655 S
O54 Cd46 2.277 1_556 S
O54 C47 1.226 . S
O55 Cd46 2.356 1_455 S
O55 C53 1.282 1_455 S
C56 O57 1.306 1_545 S
C56 O59 1.160 . S
O57 C56 1.306 1_565 S
O57 Cd58 2.228 . S
Cd58 O57 2.228 . S
Cd58 O62 2.273 . S
Cd58 O66 2.277 . S
O59 C56 1.160 . S
O59 Cd60 2.203 1_545 S
Cd60 O59 2.203 1_565 S
Cd60 O62 2.411 . S
Cd60 O63 2.333 1_455 S
Cd60 O64 2.352 . S
Cd60 O68 2.277 . S
Cd60 O69 2.356 1_455 S
C61 O66 1.209 . S
C61 O68 1.226 . S
O62 Cd58 2.273 . S
O62 Cd60 2.411 . S
O62 C65 1.320 1_455 S
O63 Cd60 2.333 1_655 S
O63 C65 1.214 . S
O64 Cd60 2.352 . S
O64 C67 1.258 . S
C65 O62 1.320 1_655 S
C65 O63 1.214 . S
O66 Cd58 2.277 . S
O66 C61 1.209 . S
C67 O64 1.258 . S
C67 O69 1.282 1_455 S
O68 Cd60 2.277 . S
O68 C61 1.226 . S
O69 Cd60 2.356 1_655 S
O69 C67 1.282 1_655 S
C70 O71 1.306 1_565 S
C70 O73 1.160 . S
O71 C70 1.306 1_545 S
O71 Cd72 2.228 . S
Cd72 O71 2.228 . S
Cd72 O76 2.273 . S
Cd72 O80 2.277 . S
O73 C70 1.160 . S
O73 Cd74 2.203 1_565 S
Cd74 O73 2.203 1_545 S
Cd74 O76 2.411 . S
Cd74 O77 2.333 . S
Cd74 O78 2.352 . S
Cd74 O82 2.277 . S
Cd74 O83 2.356 . S
C75 O80 1.209 . S
C75 O82 1.226 . S
O76 Cd72 2.273 . S
O76 Cd74 2.411 . S
O76 C79 1.320 . S
O77 Cd74 2.333 . S
O77 C79 1.214 . S
O78 Cd74 2.352 . S
O78 C81 1.258 . S
C79 O76 1.320 . S
C79 O77 1.214 . S
O80 Cd72 2.277 . S
O80 C75 1.209 . S
C81 O78 1.258 . S
C81 O83 1.282 . S
O82 Cd74 2.277 . S
O82 C75 1.226 . S
O83 Cd74 2.356 . S
O83 C81 1.282 . S
C81 C5 1.381 . S
C25 C11 1.435 1_655 S
C19 C33 1.362 1_545 S
C47 C39 1.381 . S
C67 C53 1.434 1_455 S
C75 C61 1.362 1_545 S
C0 C42 1.615 . S
C23 C65 1.924 1_455 S
C70 C28 1.647 1_565 S
C79 C37 1.933 . S
C51 C9 1.882 1_455 S
C14 C56 1.614 1_565 S
