# Generated by pormake.
# Topology uoc, (4)-cn, num edge types: 1
# Building blocks:
#     Node 0, Type 0, BuildingBlock: NAHDIM_clean_sbu_0, # of connection points: 4
#     Node 1, Type 0, BuildingBlock: NAHDIM_clean_sbu_0, # of connection points: 4
#     Node 2, Type 0, BuildingBlock: NAHDIM_clean_sbu_0, # of connection points: 4
#     Node 3, Type 0, BuildingBlock: NAHDIM_clean_sbu_0, # of connection points: 4
#     Node 4, Type 0, BuildingBlock: NAHDIM_clean_sbu_0, # of connection points: 4
#     Node 5, Type 0, BuildingBlock: NAHDIM_clean_sbu_0, # of connection points: 4
#     Node 6, Type 0, BuildingBlock: NAHDIM_clean_sbu_0, # of connection points: 4
#     Node 7, Type 0, BuildingBlock: NAHDIM_clean_sbu_0, # of connection points: 4
#     Edge 8, Type (0, 0), BuildingBlock: EYOCIG_clean_linker_4, # of connection points: 2
#     Edge 9, Type (0, 0), BuildingBlock: EYOCIG_clean_linker_4, # of connection points: 2
#     Edge 10, Type (0, 0), BuildingBlock: EYOCIG_clean_linker_4, # of connection points: 2
#     Edge 11, Type (0, 0), BuildingBlock: EYOCIG_clean_linker_4, # of connection points: 2
#     Edge 12, Type (0, 0), BuildingBlock: EYOCIG_clean_linker_4, # of connection points: 2
#     Edge 13, Type (0, 0), BuildingBlock: EYOCIG_clean_linker_4, # of connection points: 2
#     Edge 14, Type (0, 0), BuildingBlock: EYOCIG_clean_linker_4, # of connection points: 2
#     Edge 15, Type (0, 0), BuildingBlock: EYOCIG_clean_linker_4, # of connection points: 2
#     Edge 16, Type (0, 0), BuildingBlock: EYOCIG_clean_linker_4, # of connection points: 2
#     Edge 17, Type (0, 0), BuildingBlock: EYOCIG_clean_linker_4, # of connection points: 2
#     Edge 18, Type (0, 0), BuildingBlock: EYOCIG_clean_linker_4, # of connection points: 2
#     Edge 19, Type (0, 0), BuildingBlock: EYOCIG_clean_linker_4, # of connection points: 2
#     Edge 20, Type (0, 0), BuildingBlock: EYOCIG_clean_linker_4, # of connection points: 2
#     Edge 21, Type (0, 0), BuildingBlock: EYOCIG_clean_linker_4, # of connection points: 2
#     Edge 22, Type (0, 0), BuildingBlock: EYOCIG_clean_linker_4, # of connection points: 2
#     Edge 23, Type (0, 0), BuildingBlock: EYOCIG_clean_linker_4, # of connection points: 2
# Relax obj value: 0.197
# Max RMSD: 0.195
# Mean RMSD: 0.195
data_MOF--net-uoc--node1-NAHDIM_clean_sbu_0--edge1-EYOCIG_clean_linker_4
_symmetry_space_group_name_H-M    P1
_symmetry_Int_Tables_number       1
_symmetry_cell_setting            triclinic
loop_
_symmetry_equiv_pos_as_xyz
'x, y, z'
_cell_length_a     21.965099
_cell_length_b     21.977152
_cell_length_c     43.37662
_cell_angle_alpha  90.038624
_cell_angle_beta   90.070101
_cell_angle_gamma 96.137949
loop_
_atom_site_label
_atom_site_type_symbol
_atom_site_fract_x
_atom_site_fract_y
_atom_site_fract_z
_atom_type_partial_charge
C0 C 0.07689 0.37598 0.0804 0.0
O1 O 0.13298 0.38541 0.06976 0.0
O2 O 0.15318 0.25654 0.04893 0.0
Zn3 Zn 0.11275 0.25695 0.09078 0.0
O4 O 0.16862 0.27559 0.12726 0.0
C5 C 0.07979 0.12518 0.08956 0.0
O6 O 0.13296 0.12416 0.07594 0.0
O7 O 0.05645 0.32345 0.09037 0.0
C8 C 0.19262 0.23418 0.14185 0.0
O9 O 0.1896 0.17859 0.13063 0.0
C10 C 0.20623 0.24351 0.04174 0.0
O11 O 0.24421 0.2283 0.06307 0.0
O12 O 0.06185 0.17578 0.09782 0.0
C13 C 0.8734 0.57749 0.352 0.0
O14 O 0.88357 0.63361 0.36257 0.0
O15 O 0.75426 0.65504 0.38351 0.0
Zn16 Zn 0.7547 0.61464 0.34159 0.0
O17 O 0.77386 0.67043 0.30521 0.0
C18 C 0.62268 0.58271 0.34209 0.0
O19 O 0.62181 0.63551 0.35612 0.0
O20 O 0.82061 0.5576 0.34207 0.0
C21 C 0.73248 0.69465 0.29068 0.0
O22 O 0.67702 0.69218 0.30201 0.0
C23 C 0.74183 0.70828 0.39072 0.0
O24 O 0.72725 0.74649 0.3694 0.0
O25 O 0.67327 0.56452 0.33402 0.0
C26 C 0.40699 0.11066 0.58018 0.0
O27 O 0.3504 0.10022 0.57025 0.0
O28 O 0.3288 0.22944 0.54872 0.0
Zn29 Zn 0.36968 0.22897 0.59054 0.0
O30 O 0.31462 0.20888 0.62707 0.0
C31 C 0.40059 0.36109 0.59036 0.0
O32 O 0.34746 0.36174 0.57658 0.0
O33 O 0.42722 0.16361 0.58972 0.0
C34 C 0.2903 0.24983 0.64184 0.0
O35 O 0.29176 0.30524 0.63058 0.0
C36 C 0.27548 0.24185 0.54157 0.0
O37 O 0.23733 0.25634 0.56295 0.0
O38 O 0.41932 0.31059 0.59817 0.0
C39 C 0.60729 0.90587 0.85376 0.0
O40 O 0.59779 0.84894 0.8632 0.0
O41 O 0.72848 0.8289 0.88405 0.0
Zn42 Zn 0.72639 0.87089 0.84264 0.0
O43 O 0.70599 0.81636 0.80589 0.0
C44 C 0.85838 0.90371 0.84217 0.0
O45 O 0.86016 0.85049 0.85563 0.0
O46 O 0.65996 0.92717 0.84431 0.0
C47 C 0.74691 0.79245 0.7909 0.0
O48 O 0.80262 0.79442 0.80192 0.0
C49 C 0.74141 0.7755 0.89057 0.0
O50 O 0.7556 0.73818 0.86873 0.0
O51 O 0.8073 0.9218 0.83481 0.0
C52 C 0.57752 0.87612 0.57946 0.0
O53 O 0.63442 0.88589 0.56999 0.0
O54 O 0.65432 0.75503 0.54852 0.0
Zn55 Zn 0.61274 0.75703 0.59004 0.0
O56 O 0.66774 0.77753 0.62662 0.0
C57 C 0.57965 0.62515 0.59041 0.0
O58 O 0.6328 0.6233 0.57688 0.0
O59 O 0.5563 0.82327 0.58867 0.0
C60 C 0.69134 0.73663 0.64176 0.0
O61 O 0.68867 0.6807 0.63101 0.0
C62 C 0.70761 0.74178 0.54196 0.0
O63 O 0.7449 0.72732 0.56377 0.0
O64 O 0.56178 0.67621 0.59791 0.0
C65 C 0.37292 0.07687 0.85347 0.0
O66 O 0.38358 0.13367 0.86302 0.0
O67 O 0.25283 0.15579 0.8839 0.0
Zn68 Zn 0.25466 0.11429 0.84232 0.0
O69 O 0.27609 0.16943 0.80594 0.0
C70 C 0.12243 0.08283 0.84182 0.0
O71 O 0.12125 0.1358 0.85565 0.0
O72 O 0.31996 0.05667 0.8439 0.0
C73 C 0.23546 0.1937 0.79088 0.0
O74 O 0.17949 0.19123 0.80153 0.0
C75 C 0.23949 0.20902 0.89051 0.0
O76 O 0.22494 0.24628 0.86873 0.0
O77 O 0.17321 0.06451 0.83417 0.0
C78 C 0.90615 0.61038 0.08046 0.0
O79 O 0.84994 0.59998 0.06998 0.0
O80 O 0.82766 0.72848 0.04888 0.0
Zn81 Zn 0.8686 0.72882 0.09067 0.0
O82 O 0.81314 0.70963 0.12718 0.0
C83 C 0.89999 0.86088 0.08939 0.0
O84 O 0.8467 0.86131 0.07575 0.0
O85 O 0.92597 0.66324 0.09027 0.0
C86 C 0.78896 0.75082 0.14185 0.0
O87 O 0.7916 0.80644 0.13075 0.0
C88 C 0.7744 0.74111 0.04177 0.0
O89 O 0.73658 0.7563 0.06314 0.0
O90 O 0.91852 0.81057 0.09766 0.0
C91 C 0.10746 0.40612 0.35243 0.0
O92 O 0.0976 0.34988 0.36281 0.0
O93 O 0.22833 0.32901 0.38349 0.0
Zn94 Zn 0.22672 0.37011 0.34178 0.0
O95 O 0.20778 0.31461 0.30521 0.0
C96 C 0.35854 0.40374 0.34213 0.0
O97 O 0.36027 0.35096 0.35604 0.0
O98 O 0.16016 0.42641 0.34262 0.0
C99 C 0.24937 0.29064 0.29075 0.0
O100 O 0.30479 0.29343 0.30222 0.0
C101 C 0.24187 0.27593 0.39027 0.0
O102 O 0.25681 0.23857 0.36862 0.0
O103 O 0.30754 0.42126 0.33419 0.0
C104 C 0.23041 0.24002 -0.0178 0.0
C105 C 0.222 0.24087 0.00968 0.0
C106 C 0.23508 0.2351 0.94982 0.0
C107 C 0.2363 0.22602 0.92241 0.0
C108 C 0.75009 0.72294 0.2321 0.0
C109 C 0.74209 0.71001 0.25886 0.0
C110 C 0.76006 0.73266 0.20032 0.0
C111 C 0.77332 0.7407 0.17361 0.0
C112 C 0.2509 0.24534 0.48203 0.0
C113 C 0.25946 0.24445 0.50951 0.0
C114 C 0.24613 0.25026 0.44964 0.0
C115 C 0.24496 0.25927 0.42222 0.0
C116 C 0.72812 0.76574 0.7322 0.0
C117 C 0.73644 0.778 0.75902 0.0
C118 C 0.7185 0.75606 0.70038 0.0
C119 C 0.70603 0.7475 0.67359 0.0
C120 C 0.23156 0.26219 0.23216 0.0
C121 C 0.23989 0.27514 0.25891 0.0
C122 C 0.22141 0.25229 0.20038 0.0
C123 C 0.20825 0.24406 0.17365 0.0
C124 C 0.73377 0.73748 0.48266 0.0
C125 C 0.72467 0.73866 0.51007 0.0
C126 C 0.73864 0.73272 0.45028 0.0
C127 C 0.7394 0.72418 0.4228 0.0
C128 C 0.26442 0.23194 0.70066 0.0
C129 C 0.27626 0.24001 0.67379 0.0
C130 C 0.25508 0.22213 0.73247 0.0
C131 C 0.24655 0.20905 0.75917 0.0
C132 C 0.74976 0.74424 -0.01775 0.0
C133 C 0.7583 0.74356 0.00972 0.0
C134 C 0.74521 0.74912 0.94985 0.0
C135 C 0.74426 0.75826 0.92244 0.0
C136 C 0.00829 0.02144 0.09588 0.0
C137 C 0.04018 0.06932 0.09323 0.0
C138 C 0.97075 0.9651 0.09582 0.0
C139 C 0.93909 0.91708 0.09308 0.0
C140 C 0.01541 0.4741 0.35065 0.0
C141 C 0.05801 0.44378 0.35128 0.0
C142 C 0.96503 0.50898 0.35052 0.0
C143 C 0.92253 0.53943 0.35098 0.0
C144 C 0.47072 0.46537 0.59775 0.0
C145 C 0.4394 0.41727 0.59459 0.0
C146 C 0.50806 0.52181 0.5978 0.0
C147 C 0.53987 0.56962 0.59469 0.0
C148 C 0.51466 0.97313 0.85273 0.0
C149 C 0.55744 0.94305 0.85305 0.0
C150 C 0.46424 0.00794 0.85263 0.0
C151 C 0.42188 0.03857 0.85281 0.0
C152 C 0.97477 0.51889 0.0821 0.0
C153 C 0.94432 0.56137 0.08159 0.0
C154 C 0.00945 0.4684 0.08207 0.0
C155 C 0.03951 0.42562 0.08151 0.0
C156 C 0.46202 0.47508 0.33466 0.0
C157 C 0.41413 0.4434 0.33779 0.0
C158 C 0.51853 0.51232 0.33467 0.0
C159 C 0.56662 0.54368 0.33781 0.0
C160 C 0.47556 0.01912 0.58135 0.0
C161 C 0.44514 0.06163 0.58104 0.0
C162 C 0.51022 0.96863 0.58113 0.0
C163 C 0.54027 0.92587 0.58053 0.0
C164 C 0.96195 0.97485 0.83448 0.0
C165 C 0.91406 0.94322 0.83774 0.0
C166 C 0.01844 0.01215 0.83438 0.0
C167 C 0.06649 0.0436 0.83753 0.0
loop_
_geom_bond_atom_site_label_1
_geom_bond_atom_site_label_2
_geom_bond_distance
_geom_bond_site_symmetry_2
_ccdc_geom_bond_type
C0 O1 1.160 . S
C0 O7 1.185 . S
O1 C0 1.160 . S
O2 Zn3 1.899 . S
O2 C10 1.284 . S
Zn3 O2 1.899 . S
Zn3 O4 2.032 . S
Zn3 O7 2.086 . S
Zn3 O12 1.977 . S
O4 Zn3 2.032 . S
O4 C8 1.278 . S
C5 O6 1.203 . S
C5 O12 1.267 . S
O6 C5 1.203 . S
O7 C0 1.185 . S
O7 Zn3 2.086 . S
C8 O4 1.278 . S
C8 O9 1.211 . S
O9 C8 1.211 . S
C10 O2 1.284 . S
C10 O11 1.273 . S
O11 C10 1.273 . S
O12 Zn3 1.977 . S
O12 C5 1.267 . S
C13 O14 1.160 . S
C13 O20 1.185 . S
O14 C13 1.160 . S
O15 Zn16 1.899 . S
O15 C23 1.284 . S
Zn16 O15 1.899 . S
Zn16 O17 2.032 . S
Zn16 O20 2.086 . S
Zn16 O25 1.977 . S
O17 Zn16 2.032 . S
O17 C21 1.278 . S
C18 O19 1.203 . S
C18 O25 1.267 . S
O19 C18 1.203 . S
O20 C13 1.185 . S
O20 Zn16 2.086 . S
C21 O17 1.278 . S
C21 O22 1.211 . S
O22 C21 1.211 . S
C23 O15 1.284 . S
C23 O24 1.273 . S
O24 C23 1.273 . S
O25 Zn16 1.977 . S
O25 C18 1.267 . S
C26 O27 1.160 . S
C26 O33 1.185 . S
O27 C26 1.160 . S
O28 Zn29 1.899 . S
O28 C36 1.284 . S
Zn29 O28 1.899 . S
Zn29 O30 2.032 . S
Zn29 O33 2.086 . S
Zn29 O38 1.977 . S
O30 Zn29 2.032 . S
O30 C34 1.278 . S
C31 O32 1.203 . S
C31 O38 1.267 . S
O32 C31 1.203 . S
O33 C26 1.185 . S
O33 Zn29 2.086 . S
C34 O30 1.278 . S
C34 O35 1.211 . S
O35 C34 1.211 . S
C36 O28 1.284 . S
C36 O37 1.273 . S
O37 C36 1.273 . S
O38 Zn29 1.977 . S
O38 C31 1.267 . S
C39 O40 1.160 . S
C39 O46 1.185 . S
O40 C39 1.160 . S
O41 Zn42 1.899 . S
O41 C49 1.284 . S
Zn42 O41 1.899 . S
Zn42 O43 2.032 . S
Zn42 O46 2.086 . S
Zn42 O51 1.977 . S
O43 Zn42 2.032 . S
O43 C47 1.278 . S
C44 O45 1.203 . S
C44 O51 1.267 . S
O45 C44 1.203 . S
O46 C39 1.185 . S
O46 Zn42 2.086 . S
C47 O43 1.278 . S
C47 O48 1.211 . S
O48 C47 1.211 . S
C49 O41 1.284 . S
C49 O50 1.273 . S
O50 C49 1.273 . S
O51 Zn42 1.977 . S
O51 C44 1.267 . S
C52 O53 1.160 . S
C52 O59 1.185 . S
O53 C52 1.160 . S
O54 Zn55 1.899 . S
O54 C62 1.284 . S
Zn55 O54 1.899 . S
Zn55 O56 2.032 . S
Zn55 O59 2.086 . S
Zn55 O64 1.977 . S
O56 Zn55 2.032 . S
O56 C60 1.278 . S
C57 O58 1.203 . S
C57 O64 1.267 . S
O58 C57 1.203 . S
O59 C52 1.185 . S
O59 Zn55 2.086 . S
C60 O56 1.278 . S
C60 O61 1.211 . S
O61 C60 1.211 . S
C62 O54 1.284 . S
C62 O63 1.273 . S
O63 C62 1.273 . S
O64 Zn55 1.977 . S
O64 C57 1.267 . S
C65 O66 1.160 . S
C65 O72 1.185 . S
O66 C65 1.160 . S
O67 Zn68 1.899 . S
O67 C75 1.284 . S
Zn68 O67 1.899 . S
Zn68 O69 2.032 . S
Zn68 O72 2.086 . S
Zn68 O77 1.977 . S
O69 Zn68 2.032 . S
O69 C73 1.278 . S
C70 O71 1.203 . S
C70 O77 1.267 . S
O71 C70 1.203 . S
O72 C65 1.185 . S
O72 Zn68 2.086 . S
C73 O69 1.278 . S
C73 O74 1.211 . S
O74 C73 1.211 . S
C75 O67 1.284 . S
C75 O76 1.273 . S
O76 C75 1.273 . S
O77 Zn68 1.977 . S
O77 C70 1.267 . S
C78 O79 1.160 . S
C78 O85 1.185 . S
O79 C78 1.160 . S
O80 Zn81 1.899 . S
O80 C88 1.284 . S
Zn81 O80 1.899 . S
Zn81 O82 2.032 . S
Zn81 O85 2.086 . S
Zn81 O90 1.977 . S
O82 Zn81 2.032 . S
O82 C86 1.278 . S
C83 O84 1.203 . S
C83 O90 1.267 . S
O84 C83 1.203 . S
O85 C78 1.185 . S
O85 Zn81 2.086 . S
C86 O82 1.278 . S
C86 O87 1.211 . S
O87 C86 1.211 . S
C88 O80 1.284 . S
C88 O89 1.273 . S
O89 C88 1.273 . S
O90 Zn81 1.977 . S
O90 C83 1.267 . S
C91 O92 1.160 . S
C91 O98 1.185 . S
O92 C91 1.160 . S
O93 Zn94 1.899 . S
O93 C101 1.284 . S
Zn94 O93 1.899 . S
Zn94 O95 2.032 . S
Zn94 O98 2.086 . S
Zn94 O103 1.977 . S
O95 Zn94 2.032 . S
O95 C99 1.278 . S
C96 O97 1.203 . S
C96 O103 1.267 . S
O97 C96 1.203 . S
O98 C91 1.185 . S
O98 Zn94 2.086 . S
C99 O95 1.278 . S
C99 O100 1.211 . S
O100 C99 1.211 . S
C101 O93 1.284 . S
C101 O102 1.273 . S
O102 C101 1.273 . S
O103 Zn94 1.977 . S
O103 C96 1.267 . S
C104 C105 1.170 . S
C104 C106 1.380 1_554 S
C105 C104 1.170 . S
C106 C104 1.380 1_556 S
C106 C107 1.170 . S
C107 C106 1.170 . S
C108 C109 1.170 . S
C108 C110 1.380 . S
C109 C108 1.170 . S
C110 C108 1.380 . S
C110 C111 1.170 . S
C111 C110 1.170 . S
C112 C113 1.170 . S
C112 C114 1.380 . S
C113 C112 1.170 . S
C114 C112 1.380 . S
C114 C115 1.170 . S
C115 C114 1.170 . S
C116 C117 1.170 . S
C116 C118 1.380 . S
C117 C116 1.170 . S
C118 C116 1.380 . S
C118 C119 1.170 . S
C119 C118 1.170 . S
C120 C121 1.170 . S
C120 C122 1.380 . S
C121 C120 1.170 . S
C122 C120 1.380 . S
C122 C123 1.170 . S
C123 C122 1.170 . S
C124 C125 1.170 . S
C124 C126 1.380 . S
C125 C124 1.170 . S
C126 C124 1.380 . S
C126 C127 1.170 . S
C127 C126 1.170 . S
C128 C129 1.170 . S
C128 C130 1.380 . S
C129 C128 1.170 . S
C130 C128 1.380 . S
C130 C131 1.170 . S
C131 C130 1.170 . S
C132 C133 1.170 . S
C132 C134 1.380 1_554 S
C133 C132 1.170 . S
C134 C132 1.380 1_556 S
C134 C135 1.170 . S
C135 C134 1.170 . S
C136 C137 1.170 . S
C136 C138 1.380 1_445 S
C137 C136 1.170 . S
C138 C136 1.380 1_665 S
C138 C139 1.170 . S
C139 C138 1.170 . S
C140 C141 1.170 . S
C140 C142 1.380 1_455 S
C141 C140 1.170 . S
C142 C140 1.380 1_655 S
C142 C143 1.170 . S
C143 C142 1.170 . S
C144 C145 1.170 . S
C144 C146 1.380 . S
C145 C144 1.170 . S
C146 C144 1.380 . S
C146 C147 1.170 . S
C147 C146 1.170 . S
C148 C149 1.170 . S
C148 C150 1.380 1_565 S
C149 C148 1.170 . S
C150 C148 1.380 1_545 S
C150 C151 1.170 . S
C151 C150 1.170 . S
C152 C153 1.170 . S
C152 C154 1.380 1_655 S
C153 C152 1.170 . S
C154 C152 1.380 1_455 S
C154 C155 1.170 . S
C155 C154 1.170 . S
C156 C157 1.170 . S
C156 C158 1.380 . S
C157 C156 1.170 . S
C158 C156 1.380 . S
C158 C159 1.170 . S
C159 C158 1.170 . S
C160 C161 1.170 . S
C160 C162 1.380 1_545 S
C161 C160 1.170 . S
C162 C160 1.380 1_565 S
C162 C163 1.170 . S
C163 C162 1.170 . S
C164 C165 1.170 . S
C164 C166 1.380 1_665 S
C165 C164 1.170 . S
C166 C164 1.380 1_445 S
C166 C167 1.170 . S
C167 C166 1.170 . S
C105 C10 1.241 . S
C107 C75 1.262 . S
C109 C21 1.172 . S
C111 C86 1.188 . S
C113 C36 1.243 . S
C115 C101 1.264 . S
C117 C47 1.143 . S
C119 C60 1.157 . S
C121 C99 1.173 . S
C123 C8 1.187 . S
C125 C62 1.267 . S
C127 C23 1.248 . S
C129 C34 1.128 . S
C131 C73 1.186 . S
C133 C88 1.252 . S
C135 C49 1.268 . S
C137 C5 1.493 . S
C139 C83 1.483 . S
C141 C91 1.519 . S
C143 C13 1.525 . S
C145 C31 1.499 . S
C147 C57 1.513 . S
C149 C39 1.503 . S
C151 C65 1.519 . S
C153 C78 1.526 . S
C155 C0 1.516 . S
C157 C96 1.512 . S
C159 C18 1.503 . S
C161 C26 1.526 . S
C163 C52 1.511 . S
C165 C44 1.512 . S
C167 C70 1.505 . S
