# Generated by pormake.
# Topology msw, (6)-cn, num edge types: 1
# Building blocks:
#     Node 0, Type 0, BuildingBlock: VOLQOD_clean_sbu_1, # of connection points: 6
#     Node 1, Type 0, BuildingBlock: VOLQOD_clean_sbu_1, # of connection points: 6
#     Edge 2, Type (0, 0), BuildingBlock: UVAHIK_clean_linker_0, # of connection points: 2
#     Edge 3, Type (0, 0), BuildingBlock: UVAHIK_clean_linker_0, # of connection points: 2
#     Edge 4, Type (0, 0), BuildingBlock: UVAHIK_clean_linker_0, # of connection points: 2
#     Edge 5, Type (0, 0), BuildingBlock: UVAHIK_clean_linker_0, # of connection points: 2
#     Edge 6, Type (0, 0), BuildingBlock: UVAHIK_clean_linker_0, # of connection points: 2
#     Edge 7, Type (0, 0), BuildingBlock: UVAHIK_clean_linker_0, # of connection points: 2
# Relax obj value: 0.242
# Max RMSD: 0.190
# Mean RMSD: 0.190
data_MOF--net-msw--node1-VOLQOD_clean_sbu_1--edge1-UVAHIK_clean_linker_0
_symmetry_space_group_name_H-M    P1
_symmetry_Int_Tables_number       1
_symmetry_cell_setting            triclinic
loop_
_symmetry_equiv_pos_as_xyz
'x, y, z'
_cell_length_a     26.575471
_cell_length_b     24.87334
_cell_length_c     20.093672
_cell_angle_alpha  89.740823
_cell_angle_beta   92.927378
_cell_angle_gamma 90.923098
loop_
_atom_site_label
_atom_site_type_symbol
_atom_site_fract_x
_atom_site_fract_y
_atom_site_fract_z
_atom_type_partial_charge
O0 O 0.82076 0.25985 0.30991 0.0
Zn1 Zn 0.83999 0.29346 0.22482 0.0
O2 O 0.78054 0.32525 0.18669 0.0
Zn3 Zn 0.75364 0.28287 0.11416 0.0
Zn4 Zn 0.7292 0.33493 0.24758 0.0
Zn5 Zn 0.80064 0.39291 0.15146 0.0
O6 O 0.74055 0.33455 0.03951 0.0
O7 O 0.81345 0.37825 0.05594 0.0
O8 O 0.87013 0.24224 0.15919 0.0
O9 O 0.80748 0.23576 0.08184 0.0
O10 O 0.69276 0.2373 0.13914 0.0
O11 O 0.67493 0.27968 0.23191 0.0
O12 O 0.6949 0.40736 0.2313 0.0
O13 O 0.8905 0.35101 0.2544 0.0
O14 O 0.74335 0.44258 0.15451 0.0
O15 O 0.85947 0.42465 0.20637 0.0
C16 C 0.79222 0.27913 0.35283 0.0
C17 C 0.77966 0.35685 0.01662 0.0
C18 C 0.66532 0.24334 0.18873 0.0
C19 C 0.85185 0.22418 0.10347 0.0
C20 C 0.70463 0.44422 0.18907 0.0
C21 C 0.89185 0.40172 0.24541 0.0
O22 O 0.75996 0.31572 0.33828 0.0
O23 O 0.31531 0.78863 0.55308 0.0
Zn24 Zn 0.30629 0.76435 0.64641 0.0
O25 O 0.29101 0.82886 0.69022 0.0
Zn26 Zn 0.35358 0.85768 0.72402 0.0
Zn27 Zn 0.25986 0.87864 0.62802 0.0
Zn28 Zn 0.24689 0.81239 0.75788 0.0
O29 O 0.34082 0.88682 0.81338 0.0
O30 O 0.28568 0.82375 0.84541 0.0
O31 O 0.36639 0.72834 0.69297 0.0
O32 O 0.40262 0.79893 0.74372 0.0
O33 O 0.38151 0.91105 0.65826 0.0
O34 O 0.31172 0.93241 0.5989 0.0
O35 O 0.20032 0.91792 0.6669 0.0
O36 O 0.24768 0.71435 0.64912 0.0
O37 O 0.19689 0.86992 0.75996 0.0
O38 O 0.20768 0.742 0.73721 0.0
C39 C 0.28293 0.81567 0.51837 0.0
C40 C 0.31661 0.86286 0.85845 0.0
C41 C 0.35894 0.93798 0.61181 0.0
C42 C 0.40157 0.74894 0.73063 0.0
C43 C 0.18186 0.90883 0.72342 0.0
C44 C 0.21222 0.70929 0.68899 0.0
O45 O 0.245 0.83619 0.54484 0.0
C46 C 0.75304 0.32827 0.90228 0.0
C47 C 0.79196 0.34285 -0.05136 0.0
C48 C 0.76405 0.30442 0.84249 0.0
C49 C 0.86138 0.29117 0.72418 0.0
H50 H 0.7665 0.18338 0.65246 0.0
C51 C 0.7596 0.26428 0.4652 0.0
C52 C 0.79923 0.26099 0.42212 0.0
C53 C 0.76788 0.25268 0.53262 0.0
C54 C 0.79402 0.21245 0.67244 0.0
H55 H 0.87305 0.34529 -0.03142 0.0
H56 H 0.89233 0.30376 0.86306 0.0
H57 H 0.76576 0.20783 0.76995 0.0
H58 H 0.87782 0.24045 0.41431 0.0
H59 H 0.89268 0.22223 0.5334 0.0
H60 H 0.88772 0.29782 0.62571 0.0
C61 C 0.85337 0.31093 0.87319 0.0
C62 C 0.79335 0.2268 0.73923 0.0
C63 C 0.84233 0.33521 0.93309 0.0
C64 C 0.84663 0.24328 0.44673 0.0
C65 C 0.85518 0.23272 0.51452 0.0
C66 C 0.8624 0.27638 0.65748 0.0
C67 C 0.81419 0.29426 0.82812 0.0
C68 C 0.82475 0.26877 0.76437 0.0
C69 C 0.81611 0.23853 0.55802 0.0
C70 C 0.82662 0.23937 0.63043 0.0
H71 H 0.71394 0.33381 0.91313 0.0
H72 H 0.73315 0.29366 0.80758 0.0
H73 H 0.88613 0.32348 0.74239 0.0
H74 H 0.72265 0.27735 0.44718 0.0
H75 H 0.73737 0.25821 0.56557 0.0
C76 C 0.34759 0.84588 0.44083 0.0
C77 C 0.29665 0.83631 0.45324 0.0
C78 C 0.36081 0.87128 0.38217 0.0
C79 C 0.30623 0.94558 0.23491 0.0
H80 H 0.40618 0.86842 0.14071 0.0
C81 C 0.28288 0.87907 -0.0309 0.0
C82 C 0.32328 0.88217 0.92706 0.0
C83 C 0.28915 0.8964 0.03469 0.0
C84 C 0.37932 0.89166 0.16687 0.0
H85 H 0.21965 0.84615 0.4153 0.0
H86 H 0.24257 0.88738 0.3108 0.0
H87 H 0.39982 0.85399 0.25954 0.0
H88 H 0.40133 0.90716 0.91901 0.0
H89 H 0.41299 0.93513 0.03586 0.0
H90 H 0.28247 0.97871 0.14015 0.0
C91 C 0.27237 0.87716 0.34721 0.0
C92 C 0.37557 0.88339 0.23502 0.0
C93 C 0.25916 0.85261 0.40635 0.0
C94 C 0.36973 0.90426 -0.04909 0.0
C95 C 0.37634 0.92052 0.0172 0.0
C96 C 0.30956 0.95324 0.16658 0.0
C97 C 0.32334 0.88681 0.33451 0.0
C98 C 0.33686 0.90767 0.26871 0.0
C99 C 0.33615 0.91622 0.05954 0.0
C100 C 0.34417 0.92383 0.13169 0.0
H101 H 0.37723 0.83518 0.47729 0.0
H102 H 0.40032 0.8787 0.37413 0.0
H103 H 0.27711 0.96614 0.26018 0.0
H104 H 0.24654 0.86291 -0.04861 0.0
H105 H 0.2579 0.8918 0.06696 0.0
C106 C 0.48138 0.73616 0.7996 0.0
C107 C 0.43706 0.71396 0.7691 0.0
C108 C 0.50987 0.70683 0.84699 0.0
C109 C 0.49552 0.60183 -0.02764 0.0
H110 H 0.64138 0.59933 -0.02246 0.0
C111 C 0.61684 0.46735 0.15244 0.0
C112 C 0.66656 0.48429 0.16883 0.0
C113 C 0.58545 0.4989 0.11056 0.0
C114 C 0.60069 0.60052 -0.02215 0.0
H115 H 0.38901 0.64266 0.76248 0.0
H116 H 0.43895 0.59137 0.84565 0.0
H117 H 0.59585 0.64351 0.88525 0.0
H118 H 0.72073 0.54957 0.16092 0.0
H119 H 0.66519 0.60613 0.09165 0.0
H120 H 0.50032 0.55948 0.06552 0.0
C121 C 0.45138 0.63163 0.83286 0.0
C122 C 0.57462 0.62544 0.92443 0.0
C123 C 0.4232 0.66074 0.78464 0.0
C124 C 0.6825 0.53566 0.1489 0.0
C125 C 0.65093 0.56757 0.10821 0.0
C126 C 0.52165 0.57727 0.02632 0.0
C127 C 0.49435 0.65488 0.86557 0.0
C128 C 0.5218 0.62637 0.92103 0.0
C129 C 0.60314 0.54821 0.0852 0.0
C130 C 0.57465 0.5764 0.02985 0.0
H131 H 0.49298 0.77711 0.78883 0.0
H132 H 0.54273 0.72586 0.87146 0.0
H133 H 0.45475 0.60262 -0.02851 0.0
H134 H 0.60392 0.42751 0.16632 0.0
H135 H 0.54895 0.48257 0.09403 0.0
C136 C 0.91505 0.48817 0.30346 0.0
C137 C 0.92683 0.43478 0.28874 0.0
C138 C 0.94297 0.51661 0.35303 0.0
C139 C 1.03225 0.49388 0.50008 0.0
H140 H 0.05192 0.64834 0.48876 0.0
C141 C 0.18581 0.6191 0.64638 0.0
C142 C 0.17235 0.6693 0.67116 0.0
C143 C 0.15034 0.58705 0.61068 0.0
C144 C 0.046 0.60529 0.49308 0.0
H145 H 0.9789 0.37041 0.31199 0.0
H146 H 1.02931 0.4208 0.39566 0.0
H147 H 1.00501 0.60124 0.39897 0.0
H148 H 0.11087 0.72423 0.68124 0.0
H149 H 0.04875 0.66844 0.61739 0.0
H150 H 0.07592 0.4982 0.59283 0.0
C151 C 0.99721 0.44017 0.37109 0.0
C152 C 1.01908 0.57815 0.44154 0.0
C153 C 0.96872 0.41142 0.32235 0.0
C154 C 0.12195 0.68528 0.6636 0.0
C155 C 0.08664 0.65372 0.62646 0.0
C156 C 0.05996 0.52099 0.55103 0.0
C157 C 0.98397 0.49272 0.38843 0.0
C158 C 1.01209 0.52194 0.44397 0.0
C159 C 0.10105 0.60522 0.59775 0.0
C160 C 0.06728 0.57691 0.54786 0.0
H161 H 0.8826 0.50716 0.27914 0.0
H162 H 0.93103 0.55662 0.36519 0.0
H163 H 1.02669 0.45086 0.50487 0.0
H164 H 0.22461 0.60624 0.65098 0.0
H165 H 0.16252 0.55 0.58886 0.0
C166 C 0.10972 0.97453 0.71534 0.0
C167 C 0.14681 0.94647 0.75307 0.0
C168 C 0.07489 1.00618 0.74751 0.0
C169 C 1.02228 1.01977 0.91445 0.0
H170 H 0.97814 0.16007 0.85318 0.0
C171 C 0.92731 0.16728 0.08615 0.0
C172 C 0.88341 0.19209 0.06028 0.0
C173 C 0.95709 0.13778 0.04449 0.0
C174 C 0.98991 0.1207 0.87051 0.0
H175 H 0.17909 0.93294 0.8531 0.0
H176 H 0.12031 0.98841 0.90795 0.0
H177 H 1.03421 0.10804 0.78564 0.0
H178 H 0.83714 0.2067 -0.03014 0.0
H179 H 0.88951 0.15568 0.89737 0.0
H180 H 0.97931 1.03275 -0.0001 0.0
C181 C 0.11613 0.98454 0.85427 0.0
C182 C 1.0218 0.09086 0.83174 0.0
C183 C 0.15009 0.95283 0.82261 0.0
C184 C 0.87042 0.18751 -0.00836 0.0
C185 C 0.9006 0.15871 -0.05013 0.0
C186 C 0.99103 1.04967 -0.04673 0.0
C187 C 0.07717 1.01043 0.81762 0.0
C188 C 1.0392 1.04048 0.85407 0.0
C189 C 0.94401 0.13316 -0.02404 0.0
C190 C 0.97519 0.1008 0.93238 0.0
H191 H 0.1066 0.97054 0.66163 0.0
H192 H 0.04541 1.0259 0.71782 0.0
H193 H 1.03372 0.98044 0.93231 0.0
H194 H 0.93849 0.17034 0.13861 0.0
H195 H 0.9907 0.11894 0.0658 0.0
C196 C 0.36466 1.01091 0.52611 0.0
C197 C 0.38847 0.97128 0.56606 0.0
C198 C 0.39092 1.03822 0.47742 0.0
C199 C 0.4948 1.02563 0.36735 0.0
H200 H 0.49837 0.1814 0.36669 0.0
C201 C 0.63667 0.15141 0.21932 0.0
C202 C 0.62478 0.20466 0.20265 0.0
C203 C 0.60262 0.11918 0.25329 0.0
C204 C 0.4969 0.13793 0.36466 0.0
H205 H 0.45839 0.9289 0.58575 0.0
H206 H 0.50409 0.9764 0.49993 0.0
H207 H 0.45007 0.1336 0.44825 0.0
H208 H 0.56708 0.2649 0.20299 0.0
H209 H 0.50607 0.20774 0.25745 0.0
H210 H 0.54092 1.02966 0.28311 0.0
C211 C 0.46519 0.98642 0.50686 0.0
C212 C 0.46949 0.11059 0.41207 0.0
C213 C 0.43922 0.95979 0.55649 0.0
C214 C 0.57684 0.22373 0.21508 0.0
C215 C 0.54233 0.19119 0.24744 0.0
C216 C 0.52161 1.05299 0.31902 0.0
C217 C 0.4412 1.02573 0.46674 0.0
C218 C 0.46871 1.05426 0.41447 0.0
C219 C 0.55574 0.13949 0.27032 0.0
C220 C 0.52356 0.10962 0.31745 0.0
H221 H 0.32548 1.02036 0.53189 0.0
H222 H 0.37155 1.06829 0.44701 0.0
H223 H 0.49422 0.98207 0.36772 0.0
H224 H 0.67391 0.13631 0.21142 0.0
H225 H 0.6147 0.07987 0.27025 0.0
loop_
_geom_bond_atom_site_label_1
_geom_bond_atom_site_label_2
_geom_bond_distance
_geom_bond_site_symmetry_2
_ccdc_geom_bond_type
O0 Zn1 1.953 . S
O0 C16 1.225 . S
Zn1 O0 1.953 . S
Zn1 O2 1.949 . S
Zn1 O8 1.919 . S
Zn1 O13 1.924 . S
O2 Zn1 1.949 . S
O2 Zn3 1.923 . S
O2 Zn4 1.950 . S
O2 Zn5 1.945 . S
Zn3 O2 1.923 . S
Zn3 O6 1.933 . S
Zn3 O9 1.941 . S
Zn3 O10 1.965 . S
Zn4 O2 1.950 . S
Zn4 O11 1.938 . S
Zn4 O12 1.906 . S
Zn4 O22 1.953 . S
Zn5 O2 1.945 . S
Zn5 O7 1.932 . S
Zn5 O14 1.977 . S
Zn5 O15 1.910 . S
O6 Zn3 1.933 . S
O6 C17 1.226 . S
O7 Zn5 1.932 . S
O7 C17 1.307 . S
O8 Zn1 1.919 . S
O8 C19 1.253 . S
O9 Zn3 1.941 . S
O9 C19 1.283 . S
O10 Zn3 1.965 . S
O10 C18 1.303 . S
O11 Zn4 1.938 . S
O11 C18 1.247 . S
O12 Zn4 1.906 . S
O12 C20 1.304 . S
O13 Zn1 1.924 . S
O13 C21 1.311 . S
O14 Zn5 1.977 . S
O14 C20 1.272 . S
O15 Zn5 1.910 . S
O15 C21 1.231 . S
C16 O0 1.225 . S
C16 O22 1.298 . S
C17 O6 1.226 . S
C17 O7 1.307 . S
C18 O10 1.303 . S
C18 O11 1.247 . S
C19 O8 1.253 . S
C19 O9 1.283 . S
C20 O12 1.304 . S
C20 O14 1.272 . S
C21 O13 1.311 . S
C21 O15 1.231 . S
O22 Zn4 1.953 . S
O22 C16 1.298 . S
O23 Zn24 1.953 . S
O23 C39 1.225 . S
Zn24 O23 1.953 . S
Zn24 O25 1.949 . S
Zn24 O31 1.919 . S
Zn24 O36 1.924 . S
O25 Zn24 1.949 . S
O25 Zn26 1.923 . S
O25 Zn27 1.950 . S
O25 Zn28 1.945 . S
Zn26 O25 1.923 . S
Zn26 O29 1.933 . S
Zn26 O32 1.941 . S
Zn26 O33 1.965 . S
Zn27 O25 1.950 . S
Zn27 O34 1.938 . S
Zn27 O35 1.906 . S
Zn27 O45 1.953 . S
Zn28 O25 1.945 . S
Zn28 O30 1.932 . S
Zn28 O37 1.977 . S
Zn28 O38 1.910 . S
O29 Zn26 1.933 . S
O29 C40 1.226 . S
O30 Zn28 1.932 . S
O30 C40 1.307 . S
O31 Zn24 1.919 . S
O31 C42 1.253 . S
O32 Zn26 1.941 . S
O32 C42 1.283 . S
O33 Zn26 1.965 . S
O33 C41 1.303 . S
O34 Zn27 1.938 . S
O34 C41 1.247 . S
O35 Zn27 1.906 . S
O35 C43 1.304 . S
O36 Zn24 1.924 . S
O36 C44 1.311 . S
O37 Zn28 1.977 . S
O37 C43 1.272 . S
O38 Zn28 1.910 . S
O38 C44 1.231 . S
C39 O23 1.225 . S
C39 O45 1.298 . S
C40 O29 1.226 . S
C40 O30 1.307 . S
C41 O33 1.303 . S
C41 O34 1.247 . S
C42 O31 1.253 . S
C42 O32 1.283 . S
C43 O35 1.304 . S
C43 O37 1.272 . S
C44 O36 1.311 . S
C44 O38 1.231 . S
O45 Zn27 1.953 . S
O45 C39 1.298 . S
C46 C47 1.349 . S
C46 C48 1.327 1_554 S
C46 H71 0.950 . S
C47 C46 1.349 . S
C47 C63 1.349 . S
C48 C46 1.327 1_556 S
C48 C67 1.429 . S
C48 H72 0.950 . S
C49 C66 1.574 . S
C49 C68 1.368 . S
C49 H73 0.949 . S
H50 C54 0.949 . S
C51 C52 1.349 . S
C51 C53 1.327 . S
C51 H74 0.950 . S
C52 C51 1.349 . S
C52 C64 1.349 . S
C53 C51 1.327 . S
C53 C69 1.429 . S
C53 H75 0.950 . S
C54 H50 0.949 . S
C54 C62 1.574 . S
C54 C70 1.368 . S
H55 C63 0.950 . S
H56 C61 0.950 . S
H57 C62 0.949 . S
H58 C64 0.950 . S
H59 C65 0.950 . S
H60 C66 0.949 . S
C61 H56 0.950 . S
C61 C63 1.327 1_556 S
C61 C67 1.429 . S
C62 C54 1.574 . S
C62 H57 0.949 . S
C62 C68 1.368 . S
C63 C47 1.349 . S
C63 H55 0.950 . S
C63 C61 1.327 1_554 S
C64 C52 1.349 . S
C64 H58 0.950 . S
C64 C65 1.327 . S
C65 H59 0.950 . S
C65 C64 1.327 . S
C65 C69 1.429 . S
C66 C49 1.574 . S
C66 H60 0.949 . S
C66 C70 1.368 . S
C67 C48 1.429 . S
C67 C61 1.429 . S
C67 C68 1.523 . S
C68 C49 1.368 . S
C68 C62 1.368 . S
C68 C67 1.523 . S
C69 C53 1.429 . S
C69 C65 1.429 . S
C69 C70 1.523 . S
C70 C54 1.368 . S
C70 C66 1.368 . S
C70 C69 1.523 . S
H71 C46 0.950 . S
H72 C48 0.950 . S
H73 C49 0.949 . S
H74 C51 0.950 . S
H75 C53 0.950 . S
C76 C77 1.349 . S
C76 C78 1.327 . S
C76 H101 0.950 . S
C77 C76 1.349 . S
C77 C93 1.349 . S
C78 C76 1.327 . S
C78 C97 1.429 . S
C78 H102 0.950 . S
C79 C96 1.574 . S
C79 C98 1.368 . S
C79 H103 0.949 . S
H80 C84 0.949 . S
C81 C82 1.349 . S
C81 C83 1.327 1_556 S
C81 H104 0.950 . S
C82 C81 1.349 . S
C82 C94 1.349 . S
C83 C81 1.327 1_554 S
C83 C99 1.429 . S
C83 H105 0.950 . S
C84 H80 0.949 . S
C84 C92 1.574 . S
C84 C100 1.368 . S
H85 C93 0.950 . S
H86 C91 0.950 . S
H87 C92 0.949 . S
H88 C94 0.950 . S
H89 C95 0.950 . S
H90 C96 0.949 . S
C91 H86 0.950 . S
C91 C93 1.327 . S
C91 C97 1.429 . S
C92 C84 1.574 . S
C92 H87 0.949 . S
C92 C98 1.368 . S
C93 C77 1.349 . S
C93 H85 0.950 . S
C93 C91 1.327 . S
C94 C82 1.349 . S
C94 H88 0.950 . S
C94 C95 1.327 1_556 S
C95 H89 0.950 . S
C95 C94 1.327 1_554 S
C95 C99 1.429 . S
C96 C79 1.574 . S
C96 H90 0.949 . S
C96 C100 1.368 . S
C97 C78 1.429 . S
C97 C91 1.429 . S
C97 C98 1.523 . S
C98 C79 1.368 . S
C98 C92 1.368 . S
C98 C97 1.523 . S
C99 C83 1.429 . S
C99 C95 1.429 . S
C99 C100 1.523 . S
C100 C84 1.368 . S
C100 C96 1.368 . S
C100 C99 1.523 . S
H101 C76 0.950 . S
H102 C78 0.950 . S
H103 C79 0.949 . S
H104 C81 0.950 . S
H105 C83 0.950 . S
C106 C107 1.349 . S
C106 C108 1.327 . S
C106 H131 0.950 . S
C107 C106 1.349 . S
C107 C123 1.349 . S
C108 C106 1.327 . S
C108 C127 1.429 . S
C108 H132 0.950 . S
C109 C126 1.574 . S
C109 C128 1.368 1_554 S
C109 H133 0.949 . S
H110 C114 0.949 . S
C111 C112 1.349 . S
C111 C113 1.327 . S
C111 H134 0.950 . S
C112 C111 1.349 . S
C112 C124 1.349 . S
C113 C111 1.327 . S
C113 C129 1.429 . S
C113 H135 0.950 . S
C114 H110 0.949 . S
C114 C122 1.574 . S
C114 C130 1.368 1_556 S
H115 C123 0.950 . S
H116 C121 0.950 . S
H117 C122 0.949 . S
H118 C124 0.950 . S
H119 C125 0.950 . S
H120 C126 0.949 . S
C121 H116 0.950 . S
C121 C123 1.327 . S
C121 C127 1.429 . S
C122 C114 1.574 . S
C122 H117 0.949 . S
C122 C128 1.368 . S
C123 C107 1.349 . S
C123 H115 0.950 . S
C123 C121 1.327 . S
C124 C112 1.349 . S
C124 H118 0.950 . S
C124 C125 1.327 . S
C125 H119 0.950 . S
C125 C124 1.327 . S
C125 C129 1.429 . S
C126 C109 1.574 . S
C126 H120 0.949 . S
C126 C130 1.368 . S
C127 C108 1.429 . S
C127 C121 1.429 . S
C127 C128 1.523 . S
C128 C109 1.368 1_556 S
C128 C122 1.368 . S
C128 C127 1.523 . S
C129 C113 1.429 . S
C129 C125 1.429 . S
C129 C130 1.523 . S
C130 C114 1.368 1_554 S
C130 C126 1.368 . S
C130 C129 1.523 . S
H131 C106 0.950 . S
H132 C108 0.950 . S
H133 C109 0.949 . S
H134 C111 0.950 . S
H135 C113 0.950 . S
C136 C137 1.349 . S
C136 C138 1.327 . S
C136 H161 0.950 . S
C137 C136 1.349 . S
C137 C153 1.349 . S
C138 C136 1.327 . S
C138 C157 1.429 . S
C138 H162 0.950 . S
C139 C156 1.574 1_655 S
C139 C158 1.368 . S
C139 H163 0.949 . S
H140 C144 0.949 . S
C141 C142 1.349 . S
C141 C143 1.327 . S
C141 H164 0.950 . S
C142 C141 1.349 . S
C142 C154 1.349 . S
C143 C141 1.327 . S
C143 C159 1.429 . S
C143 H165 0.950 . S
C144 H140 0.949 . S
C144 C152 1.574 1_455 S
C144 C160 1.368 . S
H145 C153 0.950 . S
H146 C151 0.950 . S
H147 C152 0.949 . S
H148 C154 0.950 . S
H149 C155 0.950 . S
H150 C156 0.949 . S
C151 H146 0.950 . S
C151 C153 1.327 . S
C151 C157 1.429 . S
C152 C144 1.574 1_655 S
C152 H147 0.949 . S
C152 C158 1.368 . S
C153 C137 1.349 . S
C153 H145 0.950 . S
C153 C151 1.327 . S
C154 C142 1.349 . S
C154 H148 0.950 . S
C154 C155 1.327 . S
C155 H149 0.950 . S
C155 C154 1.327 . S
C155 C159 1.429 . S
C156 C139 1.574 1_455 S
C156 H150 0.949 . S
C156 C160 1.368 . S
C157 C138 1.429 . S
C157 C151 1.429 . S
C157 C158 1.523 . S
C158 C139 1.368 . S
C158 C152 1.368 . S
C158 C157 1.523 . S
C159 C143 1.429 . S
C159 C155 1.429 . S
C159 C160 1.523 . S
C160 C144 1.368 . S
C160 C156 1.368 . S
C160 C159 1.523 . S
H161 C136 0.950 . S
H162 C138 0.950 . S
H163 C139 0.949 . S
H164 C141 0.950 . S
H165 C143 0.950 . S
C166 C167 1.349 . S
C166 C168 1.327 . S
C166 H191 0.950 . S
C167 C166 1.349 . S
C167 C183 1.349 . S
C168 C166 1.327 . S
C168 C187 1.429 . S
C168 H192 0.950 . S
C169 C186 1.566 1_465 S
C169 C188 1.368 1_554 S
C169 H193 0.949 . S
H170 C174 0.949 . S
C171 C172 1.349 . S
C171 C173 1.327 . S
C171 H194 0.950 . S
C172 C171 1.349 . S
C172 C184 1.349 . S
C173 C171 1.327 . S
C173 C189 1.429 . S
C173 H195 0.950 . S
C174 H170 0.949 . S
C174 C182 1.574 1_545 S
C174 C190 1.368 1_556 S
H175 C183 0.950 . S
H176 C181 0.950 1_554 S
H177 C182 0.949 . S
H178 C184 0.950 . S
H179 C185 0.950 1_556 S
H180 C186 0.949 1_455 S
C181 H176 0.950 1_556 S
C181 C183 1.327 . S
C181 C187 1.429 . S
C182 C174 1.574 1_565 S
C182 H177 0.949 . S
C182 C188 1.368 1_655 S
C183 C167 1.349 . S
C183 H175 0.950 . S
C183 C181 1.327 . S
C184 C172 1.349 . S
C184 H178 0.950 . S
C184 C185 1.327 . S
C185 H179 0.950 1_554 S
C185 C184 1.327 . S
C185 C189 1.429 . S
C186 C169 1.566 1_645 S
C186 H180 0.949 1_655 S
C186 C190 1.377 . S
C187 C168 1.429 . S
C187 C181 1.429 . S
C187 C188 1.523 . S
C188 C169 1.368 1_556 S
C188 C182 1.368 1_455 S
C188 C187 1.523 . S
C189 C173 1.429 . S
C189 C185 1.429 . S
C189 C190 1.523 . S
C190 C174 1.368 1_554 S
C190 C186 1.377 . S
C190 C189 1.523 . S
H191 C166 0.950 . S
H192 C168 0.950 . S
H193 C169 0.949 . S
H194 C171 0.950 . S
H195 C173 0.950 . S
C196 C197 1.349 . S
C196 C198 1.327 . S
C196 H221 0.950 . S
C197 C196 1.349 . S
C197 C213 1.349 . S
C198 C196 1.327 . S
C198 C217 1.429 . S
C198 H222 0.950 . S
C199 C216 1.574 . S
C199 C218 1.368 . S
C199 H223 0.949 . S
H200 C204 0.949 . S
C201 C202 1.349 . S
C201 C203 1.327 . S
C201 H224 0.950 . S
C202 C201 1.349 . S
C202 C214 1.349 . S
C203 C201 1.327 . S
C203 C219 1.429 . S
C203 H225 0.950 . S
C204 H200 0.949 . S
C204 C212 1.574 . S
C204 C220 1.368 . S
H205 C213 0.950 . S
H206 C211 0.950 . S
H207 C212 0.949 . S
H208 C214 0.950 . S
H209 C215 0.950 . S
H210 C216 0.949 . S
C211 H206 0.950 . S
C211 C213 1.327 . S
C211 C217 1.429 . S
C212 C204 1.574 . S
C212 H207 0.949 . S
C212 C218 1.368 1_545 S
C213 C197 1.349 . S
C213 H205 0.950 . S
C213 C211 1.327 . S
C214 C202 1.349 . S
C214 H208 0.950 . S
C214 C215 1.327 . S
C215 H209 0.950 . S
C215 C214 1.327 . S
C215 C219 1.429 . S
C216 C199 1.574 . S
C216 H210 0.949 . S
C216 C220 1.368 1_565 S
C217 C198 1.429 . S
C217 C211 1.429 . S
C217 C218 1.523 . S
C218 C199 1.368 . S
C218 C212 1.368 1_565 S
C218 C217 1.523 . S
C219 C203 1.429 . S
C219 C215 1.429 . S
C219 C220 1.523 . S
C220 C204 1.368 . S
C220 C216 1.368 1_545 S
C220 C219 1.523 . S
H221 C196 0.950 . S
H222 C198 0.950 . S
H223 C199 0.949 . S
H224 C201 0.950 . S
H225 C203 0.950 . S
C47 C17 0.429 . S
C52 C16 0.424 . S
C77 C39 0.424 . S
C82 C40 0.429 . S
C107 C42 2.159 . S
C112 C20 2.149 . S
C137 C21 2.109 . S
C142 C44 2.109 . S
C167 C43 2.149 . S
C172 C19 2.159 . S
C197 C41 2.198 . S
C202 C18 2.198 . S
