# Generated by pormake.
# Topology unh, (4)-cn, num edge types: 1
# Building blocks:
#     Node 0, Type 0, BuildingBlock: QUQFOY_clean_sbu_1, # of connection points: 4
#     Node 1, Type 0, BuildingBlock: QUQFOY_clean_sbu_1, # of connection points: 4
#     Node 2, Type 0, BuildingBlock: QUQFOY_clean_sbu_1, # of connection points: 4
#     Node 3, Type 0, BuildingBlock: QUQFOY_clean_sbu_1, # of connection points: 4
#     Node 4, Type 0, BuildingBlock: QUQFOY_clean_sbu_1, # of connection points: 4
#     Node 5, Type 0, BuildingBlock: QUQFOY_clean_sbu_1, # of connection points: 4
#     Edge 6, Type (0, 0), BuildingBlock: AJUNOK_clean_linker_0, # of connection points: 2
#     Edge 7, Type (0, 0), BuildingBlock: AJUNOK_clean_linker_0, # of connection points: 2
#     Edge 8, Type (0, 0), BuildingBlock: AJUNOK_clean_linker_0, # of connection points: 2
#     Edge 9, Type (0, 0), BuildingBlock: AJUNOK_clean_linker_0, # of connection points: 2
#     Edge 10, Type (0, 0), BuildingBlock: AJUNOK_clean_linker_0, # of connection points: 2
#     Edge 11, Type (0, 0), BuildingBlock: AJUNOK_clean_linker_0, # of connection points: 2
#     Edge 12, Type (0, 0), BuildingBlock: AJUNOK_clean_linker_0, # of connection points: 2
#     Edge 13, Type (0, 0), BuildingBlock: AJUNOK_clean_linker_0, # of connection points: 2
#     Edge 14, Type (0, 0), BuildingBlock: AJUNOK_clean_linker_0, # of connection points: 2
#     Edge 15, Type (0, 0), BuildingBlock: AJUNOK_clean_linker_0, # of connection points: 2
#     Edge 16, Type (0, 0), BuildingBlock: AJUNOK_clean_linker_0, # of connection points: 2
#     Edge 17, Type (0, 0), BuildingBlock: AJUNOK_clean_linker_0, # of connection points: 2
# Relax obj value: 0.055
# Max RMSD: 0.146
# Mean RMSD: 0.146
data_MOF--net-unh--node1-QUQFOY_clean_sbu_1--edge1-AJUNOK_clean_linker_0
_symmetry_space_group_name_H-M    P1
_symmetry_Int_Tables_number       1
_symmetry_cell_setting            triclinic
loop_
_symmetry_equiv_pos_as_xyz
'x, y, z'
_cell_length_a     32.354109
_cell_length_b     32.382419
_cell_length_c     16.803178
_cell_angle_alpha  90.134768
_cell_angle_beta   90.073227
_cell_angle_gamma 120.38284
loop_
_atom_site_label
_atom_site_type_symbol
_atom_site_fract_x
_atom_site_fract_y
_atom_site_fract_z
_atom_type_partial_charge
O0 O 0.07277 0.5565 0.01176 0.0
Cd1 Cd 0.12017 0.60465 0.09465 0.0
Cd2 Cd 0.16791 0.56168 0.05356 0.0
O3 O 0.10474 0.51067 1.00105 0.0
O4 O 0.08113 0.61839 0.17066 0.0
O5 O 0.11771 0.5787 0.20327 0.0
C6 C 0.08927 0.59413 0.22289 0.0
C7 C 0.21512 0.54356 0.13529 0.0
C8 C 0.07118 0.51893 0.98491 0.0
C9 C 0.20734 0.6643 1.00322 0.0
O10 O 0.20582 0.62479 0.9915 0.0
O11 O 0.17866 0.66694 0.0518 0.0
O12 O 0.21277 0.53647 0.05945 0.0
O13 O 0.18817 0.55824 0.16563 0.0
O14 O 0.51676 0.06374 0.17103 0.0
Cd15 Cd 0.51018 0.10689 0.25303 0.0
Cd16 Cd 0.6054 0.1632 0.22838 0.0
O17 O 0.59562 0.10408 0.1632 0.0
O18 O 0.45941 0.06471 0.32957 0.0
O19 O 0.5365 0.10804 0.36049 0.0
C20 C 0.49339 0.07617 0.38079 0.0
C21 C 0.67418 0.20924 0.30593 0.0
C22 C 0.55538 0.0678 0.14459 0.0
C23 C 0.53794 0.19948 0.18043 0.0
O24 O 0.57968 0.20489 0.18115 0.0
O25 O 0.50261 0.16226 0.20981 0.0
O26 O 0.67571 0.20958 0.22935 0.0
O27 O 0.63394 0.1798 0.33925 0.0
O28 O 0.47065 0.52094 0.34286 0.0
Cd29 Cd 0.42187 0.51887 0.42401 0.0
Cd30 Cd 0.46783 0.61272 0.38926 0.0
O31 O 0.51791 0.59931 0.33797 0.0
O32 O 0.40676 0.46514 0.49954 0.0
O33 O 0.44694 0.54181 0.5329 0.0
C34 C 0.43085 0.49776 0.55233 0.0
C35 C 0.48746 0.67388 0.48222 0.0
C36 C 0.50903 0.5575 0.31927 0.0
C37 C 0.36565 0.55132 0.33316 0.0
O38 O 0.40557 0.58991 0.3248 0.0
O39 O 0.36185 0.51832 0.37894 0.0
O40 O 0.49798 0.6835 0.40795 0.0
O41 O 0.4672 0.62972 0.50387 0.0
O42 O 0.95753 0.46388 0.50972 0.0
Cd43 Cd 0.91094 0.41576 0.59226 0.0
Cd44 Cd 0.8637 0.46159 0.55718 0.0
O45 O 0.92828 0.51232 0.50813 0.0
O46 O 0.94959 0.40132 0.6693 0.0
O47 O 0.9143 0.44244 0.70021 0.0
C48 C 0.94185 0.42629 0.72094 0.0
C49 C 0.81975 0.47678 0.65127 0.0
C50 C 0.96026 0.50267 0.48711 0.0
C51 C 0.82212 0.35999 0.49987 0.0
O52 O 0.82478 0.40023 0.4906 0.0
O53 O 0.85015 0.35563 0.5479 0.0
O54 O 0.82165 0.4897 0.57808 0.0
O55 O 0.84485 0.45777 0.67139 0.0
O56 O 0.51193 0.95692 0.66954 0.0
Cd57 Cd 0.51955 0.9146 0.75159 0.0
Cd58 Cd 0.42354 0.85824 0.73201 0.0
O59 O 0.43295 0.91667 0.6659 0.0
O60 O 0.56947 0.95654 0.83049 0.0
O61 O 0.49203 0.91235 0.85794 0.0
C62 C 0.53477 0.9441 0.88043 0.0
C63 C 0.35484 0.8138 0.81037 0.0
C64 C 0.47277 0.95237 0.64446 0.0
C65 C 0.48956 0.82079 0.68048 0.0
O66 O 0.44791 0.81552 0.6839 0.0
O67 O 0.52566 0.85838 0.70787 0.0
O68 O 0.35295 0.81282 0.73382 0.0
O69 O 0.39557 0.84269 0.84319 0.0
O70 O 0.5602 0.50176 0.84385 0.0
Cd71 Cd 0.61047 0.50615 0.92301 0.0
Cd72 Cd 0.56551 0.40946 0.89465 0.0
O73 O 0.51813 0.42307 0.83185 0.0
O74 O 0.62435 0.55839 1.00136 0.0
O75 O 0.58648 0.48133 0.03113 0.0
C76 C 0.60129 0.52485 0.05288 0.0
C77 C 0.54018 0.3468 0.98609 0.0
C78 C 0.52424 0.46426 0.81602 0.0
C79 C 0.66992 0.47211 0.84517 0.0
O80 O 0.63193 0.43118 0.84503 0.0
O81 O 0.6705 0.50827 0.8762 0.0
O82 O 0.53432 0.33839 0.91062 0.0
O83 O 0.55822 0.39049 1.00969 0.0
C84 C 0.04071 0.45957 0.87269 0.0
C85 C 0.03292 0.48788 0.92754 0.0
C86 C 1.00915 0.43684 0.8088 0.0
C87 C 0.96853 0.44141 0.79747 0.0
H88 H 0.07284 0.45714 0.87629 0.0
H89 H 0.01825 0.41785 0.7656 0.0
S90 S 0.92694 0.50358 0.93327 0.0
N91 N 0.97795 0.5135 0.97267 0.0
N92 N 0.91863 0.47068 0.85311 0.0
C93 C 0.9582 0.46623 0.8557 0.0
C94 C 0.9904 0.4895 0.92053 0.0
C95 C 0.58578 0.01364 0.96976 0.0
C96 C 0.54273 0.97012 0.95691 0.0
C97 C 0.59071 0.04392 0.03346 0.0
C98 C 0.55274 0.03186 0.08662 0.0
H99 H 0.61507 0.02581 0.92791 0.0
H100 H 0.62359 0.07814 0.03833 0.0
S101 S 0.43591 0.91781 0.08806 0.0
N102 N 0.46391 0.91353 1.00921 0.0
N103 N 0.47311 0.97026 0.12871 0.0
C104 C 0.51094 0.98671 0.07814 0.0
C105 C 0.50596 0.95588 0.0134 0.0
C106 C 0.5695 0.58848 0.20949 0.0
C107 C 0.54033 0.55122 0.26203 0.0
C108 C 0.59207 0.58057 0.14487 0.0
C109 C 0.5865 0.53516 0.13053 0.0
H110 H 0.57264 0.62328 0.21528 0.0
H111 H 0.61172 0.60962 0.10343 0.0
S112 S 0.52178 0.4283 0.25988 0.0
N113 N 0.51282 0.46919 0.30209 0.0
N114 N 0.55538 0.45438 0.18117 0.0
C115 C 0.56092 0.4988 0.1867 0.0
C116 C 0.53778 0.50681 0.25226 0.0
C117 C 0.03519 0.52415 0.41205 0.0
C118 C 0.99817 0.53361 0.42933 0.0
C119 C 0.0666 0.54647 0.34843 0.0
C120 C 0.0623 0.57912 0.299 0.0
H121 H 0.03883 0.49771 0.44582 0.0
H122 H 0.09291 0.53608 0.33568 0.0
S123 S 0.97598 0.62175 0.32548 0.0
N124 N 0.96248 0.58207 0.39695 0.0
N125 N 0.02147 0.62395 0.27728 0.0
C126 C 0.02777 0.59166 0.3191 0.0
C127 C 0.99576 0.56896 0.38425 0.0
C128 C 0.52353 0.05928 0.5062 0.0
C129 C 0.48458 0.04929 0.45636 0.0
C130 C 0.51861 0.02898 0.56928 0.0
C131 C 0.47449 0.98738 0.58552 0.0
H132 H 0.55883 0.08955 0.49436 0.0
H133 H 0.5503 0.03746 0.60369 0.0
S134 S 0.35967 0.94847 0.47964 0.0
N135 N 0.39903 0.99744 0.43269 0.0
N136 N 0.38981 0.94049 0.55137 0.0
C137 C 0.43438 0.97877 0.53977 0.0
C138 C 0.43942 1.0097 0.47523 0.0
C139 C 0.46662 0.43368 0.70128 0.0
C140 C 0.49224 0.46945 0.7587 0.0
C141 C 0.44362 0.44176 0.63739 0.0
C142 C 0.44535 0.48586 0.62872 0.0
H143 H 0.46671 0.40029 0.70285 0.0
H144 H 0.42693 0.4143 0.59203 0.0
S145 S 0.49921 0.58733 0.7719 0.0
N146 N 0.51172 0.54778 0.80924 0.0
N147 N 0.46861 0.5629 0.68946 0.0
C148 C 0.46722 0.52023 0.68951 0.0
C149 C 0.49065 0.51205 0.75438 0.0
C150 C 0.24612 0.53554 0.26821 0.0
C151 C 0.25094 0.53949 0.18473 0.0
C152 C 0.28241 0.53703 0.31651 0.0
C153 C 0.32505 0.54367 0.28285 0.0
H154 H 0.21451 0.53219 0.29654 0.0
H155 H 0.27796 0.53498 0.38054 0.0
S156 S 0.35495 0.55372 0.06844 0.0
N157 N 0.30121 0.54784 0.071 0.0
N158 N 0.36954 0.5521 0.16207 0.0
C159 C 0.32985 0.54642 0.19984 0.0
C160 C 0.29272 0.54389 0.15063 0.0
C161 C 0.71921 0.23857 0.43542 0.0
C162 C 0.71566 0.24524 0.35332 0.0
C163 C 0.75536 0.27494 0.48261 0.0
C164 C 0.78821 0.31948 0.44946 0.0
H165 H 0.69334 0.20542 0.46371 0.0
H166 H 0.75627 0.26896 0.54583 0.0
S167 S 0.79624 0.35461 0.23776 0.0
N168 N 0.75025 0.29937 0.2408 0.0
N169 N 0.81675 0.36761 0.32984 0.0
C170 C 0.78592 0.32611 0.36743 0.0
C171 C 0.75004 0.289 0.31922 0.0
C172 C 0.46131 0.73528 0.65009 0.0
C173 C 0.49534 0.78389 0.63866 0.0
C174 C 0.46104 0.69967 0.60217 0.0
C175 C 0.49384 0.71152 0.53937 0.0
H176 H 0.43381 0.72482 0.69503 0.0
H177 H 0.43323 0.66282 0.61171 0.0
S178 S 0.59193 0.83344 0.48778 0.0
N179 N 0.56462 0.84191 0.56368 0.0
N180 N 0.56307 0.77508 0.47142 0.0
C181 C 0.52915 0.75987 0.52914 0.0
C182 C 0.53019 0.79604 0.57942 0.0
C183 C 0.73553 0.51241 0.74543 0.0
C184 C 0.71274 0.47747 0.8046 0.0
C185 C 0.77133 0.51302 0.69734 0.0
C186 C 0.78639 0.47954 0.70843 0.0
H187 H 0.7239 0.53785 0.73351 0.0
H188 H 0.78657 0.53921 0.65011 0.0
S189 S 0.74055 0.3836 0.86084 0.0
N190 N 0.7091 0.4103 0.87466 0.0
N191 N 0.77757 0.41241 0.78691 0.0
C192 C 0.76559 0.44614 0.77057 0.0
C193 C 0.72838 0.44481 0.81794 0.0
C194 C 0.31307 0.78392 0.9419 0.0
C195 C 0.31304 0.77916 0.85839 0.0
C196 C 0.27697 0.74788 0.98909 0.0
C197 C 0.2403 0.70567 0.95425 0.0
H198 H 0.34193 0.81498 0.97127 0.0
H199 H 0.27913 0.75197 0.05323 0.0
S200 S 0.22133 0.67667 0.73915 0.0
N201 N 0.27051 0.72976 0.74328 0.0
N202 N 0.20404 0.66209 0.83227 0.0
C203 C 0.23872 0.70127 0.87114 0.0
C204 C 0.2747 0.73805 0.82307 0.0
C205 C 0.56304 0.32043 0.10918 0.0
C206 C 0.53246 0.3087 0.04285 0.0
C207 C 0.56294 0.28466 0.15608 0.0
C208 C 0.53113 0.23597 0.14003 0.0
H209 H 0.58935 0.35744 0.12211 0.0
H210 H 0.58901 0.29511 0.2037 0.0
S211 S 0.44047 0.18638 0.97873 0.0
N212 N 0.46749 0.24498 0.9666 0.0
N213 N 0.46604 0.17775 0.05713 0.0
C214 C 0.49819 0.22375 0.07734 0.0
C215 C 0.49919 0.26015 0.02808 0.0
loop_
_geom_bond_atom_site_label_1
_geom_bond_atom_site_label_2
_geom_bond_distance
_geom_bond_site_symmetry_2
_ccdc_geom_bond_type
O0 Cd1 2.223 1_556 S
O0 C8 1.315 . S
Cd1 O0 2.223 1_554 S
Cd1 O4 2.297 . S
Cd1 O5 2.439 . S
Cd1 O11 2.240 . S
Cd2 O3 2.240 . S
Cd2 O10 2.223 1_554 S
Cd2 O12 2.297 . S
Cd2 O13 2.439 . S
O3 Cd2 2.240 . S
O3 C8 1.279 1_554 S
O4 Cd1 2.297 . S
O4 C6 1.247 . S
O5 Cd1 2.439 . S
O5 C6 1.208 . S
C6 O4 1.247 . S
C6 O5 1.208 . S
C7 O12 1.247 . S
C7 O13 1.208 . S
C8 O0 1.315 . S
C8 O3 1.279 1_556 S
C9 O10 1.315 . S
C9 O11 1.279 1_556 S
O10 Cd2 2.223 1_556 S
O10 C9 1.315 . S
O11 Cd1 2.240 . S
O11 C9 1.279 1_554 S
O12 Cd2 2.297 . S
O12 C7 1.247 . S
O13 Cd2 2.439 . S
O13 C7 1.208 . S
O14 Cd15 2.223 . S
O14 C22 1.315 . S
Cd15 O14 2.223 . S
Cd15 O18 2.297 . S
Cd15 O19 2.439 . S
Cd15 O25 2.240 . S
Cd16 O17 2.240 . S
Cd16 O24 2.223 . S
Cd16 O26 2.297 . S
Cd16 O27 2.439 . S
O17 Cd16 2.240 . S
O17 C22 1.279 . S
O18 Cd15 2.297 . S
O18 C20 1.247 . S
O19 Cd15 2.439 . S
O19 C20 1.208 . S
C20 O18 1.247 . S
C20 O19 1.208 . S
C21 O26 1.247 . S
C21 O27 1.208 . S
C22 O14 1.315 . S
C22 O17 1.279 . S
C23 O24 1.315 . S
C23 O25 1.279 . S
O24 Cd16 2.223 . S
O24 C23 1.315 . S
O25 Cd15 2.240 . S
O25 C23 1.279 . S
O26 Cd16 2.297 . S
O26 C21 1.247 . S
O27 Cd16 2.439 . S
O27 C21 1.208 . S
O28 Cd29 2.223 . S
O28 C36 1.315 . S
Cd29 O28 2.223 . S
Cd29 O32 2.297 . S
Cd29 O33 2.439 . S
Cd29 O39 2.240 . S
Cd30 O31 2.240 . S
Cd30 O38 2.223 . S
Cd30 O40 2.297 . S
Cd30 O41 2.439 . S
O31 Cd30 2.240 . S
O31 C36 1.279 . S
O32 Cd29 2.297 . S
O32 C34 1.247 . S
O33 Cd29 2.439 . S
O33 C34 1.208 . S
C34 O32 1.247 . S
C34 O33 1.208 . S
C35 O40 1.247 . S
C35 O41 1.208 . S
C36 O28 1.315 . S
C36 O31 1.279 . S
C37 O38 1.315 . S
C37 O39 1.279 . S
O38 Cd30 2.223 . S
O38 C37 1.315 . S
O39 Cd29 2.240 . S
O39 C37 1.279 . S
O40 Cd30 2.297 . S
O40 C35 1.247 . S
O41 Cd30 2.439 . S
O41 C35 1.208 . S
O42 Cd43 2.223 . S
O42 C50 1.315 . S
Cd43 O42 2.223 . S
Cd43 O46 2.297 . S
Cd43 O47 2.439 . S
Cd43 O53 2.240 . S
Cd44 O45 2.240 . S
Cd44 O52 2.223 . S
Cd44 O54 2.297 . S
Cd44 O55 2.439 . S
O45 Cd44 2.240 . S
O45 C50 1.279 . S
O46 Cd43 2.297 . S
O46 C48 1.247 . S
O47 Cd43 2.439 . S
O47 C48 1.208 . S
C48 O46 1.247 . S
C48 O47 1.208 . S
C49 O54 1.247 . S
C49 O55 1.208 . S
C50 O42 1.315 . S
C50 O45 1.279 . S
C51 O52 1.315 . S
C51 O53 1.279 . S
O52 Cd44 2.223 . S
O52 C51 1.315 . S
O53 Cd43 2.240 . S
O53 C51 1.279 . S
O54 Cd44 2.297 . S
O54 C49 1.247 . S
O55 Cd44 2.439 . S
O55 C49 1.208 . S
O56 Cd57 2.223 . S
O56 C64 1.315 . S
Cd57 O56 2.223 . S
Cd57 O60 2.297 . S
Cd57 O61 2.439 . S
Cd57 O67 2.240 . S
Cd58 O59 2.240 . S
Cd58 O66 2.223 . S
Cd58 O68 2.297 . S
Cd58 O69 2.439 . S
O59 Cd58 2.240 . S
O59 C64 1.279 . S
O60 Cd57 2.297 . S
O60 C62 1.247 . S
O61 Cd57 2.439 . S
O61 C62 1.208 . S
C62 O60 1.247 . S
C62 O61 1.208 . S
C63 O68 1.247 . S
C63 O69 1.208 . S
C64 O56 1.315 . S
C64 O59 1.279 . S
C65 O66 1.315 . S
C65 O67 1.279 . S
O66 Cd58 2.223 . S
O66 C65 1.315 . S
O67 Cd57 2.240 . S
O67 C65 1.279 . S
O68 Cd58 2.297 . S
O68 C63 1.247 . S
O69 Cd58 2.439 . S
O69 C63 1.208 . S
O70 Cd71 2.223 . S
O70 C78 1.315 . S
Cd71 O70 2.223 . S
Cd71 O74 2.297 1_556 S
Cd71 O75 2.439 1_556 S
Cd71 O81 2.240 . S
Cd72 O73 2.240 . S
Cd72 O80 2.223 . S
Cd72 O82 2.297 . S
Cd72 O83 2.444 . S
O73 Cd72 2.240 . S
O73 C78 1.279 . S
O74 Cd71 2.297 1_554 S
O74 C76 1.247 . S
O75 Cd71 2.439 1_554 S
O75 C76 1.208 . S
C76 O74 1.247 . S
C76 O75 1.208 . S
C77 O82 1.247 . S
C77 O83 1.210 . S
C78 O70 1.315 . S
C78 O73 1.279 . S
C79 O80 1.315 . S
C79 O81 1.279 . S
O80 Cd72 2.223 . S
O80 C79 1.315 . S
O81 Cd71 2.240 . S
O81 C79 1.279 . S
O82 Cd72 2.297 . S
O82 C77 1.247 . S
O83 Cd72 2.444 . S
O83 C77 1.210 . S
C84 C85 1.369 . S
C84 C86 1.419 . S
C84 H88 0.930 . S
C85 C84 1.369 . S
C85 C94 1.429 . S
C86 C84 1.419 . S
C86 C87 1.363 1_455 S
C86 H89 0.929 . S
C87 C86 1.363 1_655 S
C87 C93 1.428 . S
H88 C84 0.930 . S
H89 C86 0.929 . S
S90 N91 1.613 1_655 S
S90 N92 1.610 . S
N91 S90 1.613 1_455 S
N91 C94 1.350 . S
N92 S90 1.610 . S
N92 C93 1.351 . S
C93 C87 1.428 . S
C93 N92 1.351 . S
C93 C94 1.434 1_655 S
C94 C85 1.429 . S
C94 N91 1.350 . S
C94 C93 1.434 1_455 S
C95 C96 1.369 1_545 S
C95 C97 1.418 1_556 S
C95 H99 0.930 . S
C96 C95 1.369 1_565 S
C96 C105 1.429 1_556 S
C97 C95 1.418 1_554 S
C97 C98 1.364 . S
C97 H100 0.929 1_554 S
C98 C97 1.364 . S
C98 C104 1.428 . S
H99 C95 0.930 . S
H100 C97 0.929 1_556 S
S101 N102 1.613 . S
S101 N103 1.610 1_565 S
N102 S101 1.613 . S
N102 C105 1.350 . S
N103 S101 1.610 1_545 S
N103 C104 1.351 . S
C104 C98 1.428 . S
C104 N103 1.351 . S
C104 C105 1.434 1_545 S
C105 C96 1.429 1_554 S
C105 N102 1.350 . S
C105 C104 1.434 1_565 S
C106 C107 1.369 . S
C106 C108 1.419 . S
C106 H110 0.930 . S
C107 C106 1.369 . S
C107 C116 1.429 . S
C108 C106 1.419 . S
C108 C109 1.363 . S
C108 H111 0.929 . S
C109 C108 1.363 . S
C109 C115 1.428 . S
H110 C106 0.930 . S
H111 C108 0.929 . S
S112 N113 1.613 . S
S112 N114 1.610 . S
N113 S112 1.613 . S
N113 C116 1.350 . S
N114 S112 1.610 . S
N114 C115 1.351 . S
C115 C109 1.428 . S
C115 N114 1.351 . S
C115 C116 1.434 . S
C116 C107 1.429 . S
C116 N113 1.350 . S
C116 C115 1.434 . S
C117 C118 1.369 . S
C117 C119 1.419 1_655 S
C117 H121 0.930 1_655 S
C118 C117 1.369 . S
C118 C127 1.429 . S
C119 C117 1.419 1_455 S
C119 C120 1.363 . S
C119 H122 0.929 . S
C120 C119 1.363 . S
C120 C126 1.428 1_455 S
H121 C117 0.930 1_455 S
H122 C119 0.929 . S
S123 N124 1.613 . S
S123 N125 1.610 . S
N124 S123 1.613 . S
N124 C127 1.350 . S
N125 S123 1.610 . S
N125 C126 1.351 . S
C126 C120 1.428 1_655 S
C126 N125 1.351 . S
C126 C127 1.434 . S
C127 C118 1.429 . S
C127 N124 1.350 . S
C127 C126 1.434 . S
C128 C129 1.369 . S
C128 C130 1.419 1_545 S
C128 H132 0.930 . S
C129 C128 1.369 . S
C129 C138 1.429 1_545 S
C130 C128 1.419 1_565 S
C130 C131 1.363 . S
C130 H133 0.929 1_565 S
C131 C130 1.363 . S
C131 C137 1.428 . S
H132 C128 0.930 . S
H133 C130 0.929 1_545 S
S134 N135 1.613 . S
S134 N136 1.610 . S
N135 S134 1.613 . S
N135 C138 1.350 . S
N136 S134 1.610 . S
N136 C137 1.351 . S
C137 C131 1.428 . S
C137 N136 1.351 . S
C137 C138 1.434 . S
C138 C129 1.429 1_565 S
C138 N135 1.350 . S
C138 C137 1.434 . S
C139 C140 1.369 . S
C139 C141 1.419 . S
C139 H143 0.930 . S
C140 C139 1.369 . S
C140 C149 1.429 . S
C141 C139 1.419 . S
C141 C142 1.363 . S
C141 H144 0.929 . S
C142 C141 1.363 . S
C142 C148 1.428 . S
H143 C139 0.930 . S
H144 C141 0.929 . S
S145 N146 1.613 . S
S145 N147 1.610 . S
N146 S145 1.613 . S
N146 C149 1.350 . S
N147 S145 1.610 . S
N147 C148 1.351 . S
C148 C142 1.428 . S
C148 N147 1.351 . S
C148 C149 1.434 . S
C149 C140 1.429 . S
C149 N146 1.350 . S
C149 C148 1.434 . S
C150 C151 1.369 . S
C150 C152 1.419 . S
C150 H154 0.930 . S
C151 C150 1.369 . S
C151 C160 1.429 . S
C152 C150 1.419 . S
C152 C153 1.363 . S
C152 H155 0.929 . S
C153 C152 1.363 . S
C153 C159 1.428 . S
H154 C150 0.930 . S
H155 C152 0.929 . S
S156 N157 1.613 . S
S156 N158 1.610 . S
N157 S156 1.613 . S
N157 C160 1.350 . S
N158 S156 1.610 . S
N158 C159 1.351 . S
C159 C153 1.428 . S
C159 N158 1.351 . S
C159 C160 1.434 . S
C160 C151 1.429 . S
C160 N157 1.350 . S
C160 C159 1.434 . S
C161 C162 1.369 . S
C161 C163 1.419 . S
C161 H165 0.930 . S
C162 C161 1.369 . S
C162 C171 1.429 . S
C163 C161 1.419 . S
C163 C164 1.363 . S
C163 H166 0.929 . S
C164 C163 1.363 . S
C164 C170 1.428 . S
H165 C161 0.930 . S
H166 C163 0.929 . S
S167 N168 1.613 . S
S167 N169 1.610 . S
N168 S167 1.613 . S
N168 C171 1.350 . S
N169 S167 1.610 . S
N169 C170 1.351 . S
C170 C164 1.428 . S
C170 N169 1.351 . S
C170 C171 1.434 . S
C171 C162 1.429 . S
C171 N168 1.350 . S
C171 C170 1.434 . S
C172 C173 1.369 . S
C172 C174 1.419 . S
C172 H176 0.930 . S
C173 C172 1.369 . S
C173 C182 1.429 . S
C174 C172 1.419 . S
C174 C175 1.363 . S
C174 H177 0.929 . S
C175 C174 1.363 . S
C175 C181 1.428 . S
H176 C172 0.930 . S
H177 C174 0.929 . S
S178 N179 1.613 . S
S178 N180 1.610 . S
N179 S178 1.613 . S
N179 C182 1.350 . S
N180 S178 1.610 . S
N180 C181 1.351 . S
C181 C175 1.428 . S
C181 N180 1.351 . S
C181 C182 1.434 . S
C182 C173 1.429 . S
C182 N179 1.350 . S
C182 C181 1.434 . S
C183 C184 1.369 . S
C183 C185 1.419 . S
C183 H187 0.930 . S
C184 C183 1.369 . S
C184 C193 1.429 . S
C185 C183 1.419 . S
C185 C186 1.363 . S
C185 H188 0.929 . S
C186 C185 1.363 . S
C186 C192 1.428 . S
H187 C183 0.930 . S
H188 C185 0.929 . S
S189 N190 1.613 . S
S189 N191 1.610 . S
N190 S189 1.613 . S
N190 C193 1.350 . S
N191 S189 1.610 . S
N191 C192 1.351 . S
C192 C186 1.428 . S
C192 N191 1.351 . S
C192 C193 1.434 . S
C193 C184 1.429 . S
C193 N190 1.350 . S
C193 C192 1.434 . S
C194 C195 1.369 . S
C194 C196 1.419 . S
C194 H198 0.930 . S
C195 C194 1.369 . S
C195 C204 1.429 . S
C196 C194 1.419 . S
C196 C197 1.363 . S
C196 H199 0.929 1_556 S
C197 C196 1.363 . S
C197 C203 1.428 . S
H198 C194 0.930 . S
H199 C196 0.929 1_554 S
S200 N201 1.613 . S
S200 N202 1.610 . S
N201 S200 1.613 . S
N201 C204 1.350 . S
N202 S200 1.610 . S
N202 C203 1.351 . S
C203 C197 1.428 . S
C203 N202 1.351 . S
C203 C204 1.434 . S
C204 C195 1.429 . S
C204 N201 1.350 . S
C204 C203 1.434 . S
C205 C206 1.369 . S
C205 C207 1.419 . S
C205 H209 0.930 . S
C206 C205 1.369 . S
C206 C215 1.429 . S
C207 C205 1.419 . S
C207 C208 1.363 . S
C207 H210 0.929 . S
C208 C207 1.363 . S
C208 C214 1.428 . S
H209 C205 0.930 . S
H210 C207 0.929 . S
S211 N212 1.613 . S
S211 N213 1.610 1_556 S
N212 S211 1.613 . S
N212 C215 1.350 1_556 S
N213 S211 1.610 1_554 S
N213 C214 1.351 . S
C214 C208 1.428 . S
C214 N213 1.351 . S
C214 C215 1.434 . S
C215 C206 1.429 . S
C215 N212 1.350 1_554 S
C215 C214 1.434 . S
C85 C8 1.440 . S
C87 C48 1.489 . S
C96 C62 1.492 . S
C98 C22 1.440 . S
C107 C36 1.438 . S
C109 C76 1.490 . S
C118 C50 1.446 . S
C120 C6 1.487 . S
C129 C20 1.486 . S
C131 C64 1.447 . S
C140 C78 1.447 . S
C142 C34 1.485 . S
C151 C7 1.453 . S
C153 C37 1.467 . S
C162 C21 1.451 . S
C164 C51 1.466 . S
C173 C65 1.468 . S
C175 C35 1.455 . S
C184 C79 1.465 . S
C186 C49 1.452 . S
C195 C63 1.452 . S
C197 C9 1.466 . S
C206 C77 1.456 1_554 S
C208 C23 1.468 . S
