# Generated by pormake.
# Topology vme, (6)-cn, num edge types: 1
# Building blocks:
#     Node 0, Type 0, BuildingBlock: MIDCAF_clean_sbu_0, # of connection points: 6
#     Node 1, Type 0, BuildingBlock: MIDCAF_clean_sbu_0, # of connection points: 6
#     Node 2, Type 0, BuildingBlock: MIDCAF_clean_sbu_0, # of connection points: 6
#     Node 3, Type 0, BuildingBlock: MIDCAF_clean_sbu_0, # of connection points: 6
#     Edge 4, Type (0, 0), BuildingBlock: EYOCIG_clean_linker_4, # of connection points: 2
#     Edge 5, Type (0, 0), BuildingBlock: EYOCIG_clean_linker_4, # of connection points: 2
#     Edge 6, Type (0, 0), BuildingBlock: EYOCIG_clean_linker_4, # of connection points: 2
#     Edge 7, Type (0, 0), BuildingBlock: EYOCIG_clean_linker_4, # of connection points: 2
#     Edge 8, Type (0, 0), BuildingBlock: EYOCIG_clean_linker_4, # of connection points: 2
#     Edge 9, Type (0, 0), BuildingBlock: EYOCIG_clean_linker_4, # of connection points: 2
#     Edge 10, Type (0, 0), BuildingBlock: EYOCIG_clean_linker_4, # of connection points: 2
#     Edge 11, Type (0, 0), BuildingBlock: EYOCIG_clean_linker_4, # of connection points: 2
#     Edge 12, Type (0, 0), BuildingBlock: EYOCIG_clean_linker_4, # of connection points: 2
#     Edge 13, Type (0, 0), BuildingBlock: EYOCIG_clean_linker_4, # of connection points: 2
#     Edge 14, Type (0, 0), BuildingBlock: EYOCIG_clean_linker_4, # of connection points: 2
#     Edge 15, Type (0, 0), BuildingBlock: EYOCIG_clean_linker_4, # of connection points: 2
# Relax obj value: 0.250
# Max RMSD: 0.207
# Mean RMSD: 0.207
data_MOF--net-vme--node1-MIDCAF_clean_sbu_0--edge1-EYOCIG_clean_linker_4
_symmetry_space_group_name_H-M    P1
_symmetry_Int_Tables_number       1
_symmetry_cell_setting            triclinic
loop_
_symmetry_equiv_pos_as_xyz
'x, y, z'
_cell_length_a     19.362842
_cell_length_b     19.179801
_cell_length_c     22.78175
_cell_angle_alpha  90.119025
_cell_angle_beta   104.15434
_cell_angle_gamma 89.846453
loop_
_atom_site_label
_atom_site_type_symbol
_atom_site_fract_x
_atom_site_fract_y
_atom_site_fract_z
_atom_type_partial_charge
Zn0 Zn 0.21853 0.47644 0.25749 0.0
Zn1 Zn 0.13115 0.29018 0.38195 0.0
Zn2 Zn 0.17817 0.37994 0.32493 0.0
C3 C 0.2572 0.31328 0.45224 0.0
C4 C 0.10218 0.23607 0.26976 0.0
O5 O 0.09587 0.46434 0.30095 0.0
O6 O 0.12913 0.53434 0.23589 0.0
C7 C 0.3196 0.46863 0.37134 0.0
O8 O 0.24882 0.36662 0.41699 0.0
O9 O 0.22184 0.25867 0.43521 0.0
O10 O 0.07931 0.23009 0.31665 0.0
O11 O 0.14752 0.28428 0.26639 0.0
O12 O 0.30013 0.50634 0.32481 0.0
O13 O 0.2825 0.41552 0.37943 0.0
O14 O 0.19894 0.32343 0.24596 0.0
O15 O 0.2426 0.40778 0.1992 0.0
C16 C 0.22893 0.34408 0.20436 0.0
O17 O 0.08622 0.42597 0.34901 0.0
O18 O 0.07541 0.35377 0.42175 0.0
C19 C 0.0842 0.51735 0.26515 0.0
C20 C 0.06016 0.41064 0.3941 0.0
Zn21 Zn 0.81772 0.79064 0.03445 0.0
Zn22 Zn 0.72843 0.97753 0.15897 0.0
Zn23 Zn 0.76956 0.88055 0.0915 0.0
C24 C 0.71877 0.84517 0.21201 0.0
C25 C 0.62759 0.96915 0.04499 0.0
O26 O 0.86141 0.92663 0.06756 0.0
O27 O 0.87428 0.85386 -0.00442 0.0
C28 C 0.84547 0.73628 0.14651 0.0
O29 O 0.74892 0.82439 0.17044 0.0
O30 O 0.70474 0.90889 0.21717 0.0
O31 O 0.64671 1.00707 0.09151 0.0
O32 O 0.66509 0.91606 0.03699 0.0
O33 O 0.86855 0.72998 0.09973 0.0
O34 O 0.8003 0.78491 0.14989 0.0
O35 O 0.6988 0.86719 -0.00046 0.0
O36 O 0.72763 0.75994 -0.01999 0.0
C37 C 0.69114 0.8142 -0.03621 0.0
O38 O 0.85133 0.96502 0.11563 0.0
O39 O 0.81763 0.03541 0.18054 0.0
C40 C 0.88846 0.91105 0.02301 0.0
C41 C 0.86271 1.01819 0.15138 0.0
Zn42 Zn 0.72823 0.57642 0.6585 0.0
Zn43 Zn 0.8165 0.76274 0.53439 0.0
Zn44 Zn 0.76892 0.67301 0.59121 0.0
C45 C 0.69038 0.73948 0.46367 0.0
C46 C 0.84459 0.81707 0.64651 0.0
O47 O 0.85104 0.58847 0.61534 0.0
O48 O 0.81752 0.51839 0.6802 0.0
C49 C 0.62743 0.58441 0.54452 0.0
O50 O 0.69841 0.68631 0.4991 0.0
O51 O 0.72617 0.79391 0.48043 0.0
O52 O 0.86763 0.82314 0.59973 0.0
O53 O 0.79938 0.7687 0.64979 0.0
O54 O 0.64673 0.54668 0.59106 0.0
O55 O 0.66465 0.63748 0.53652 0.0
O56 O 0.74794 0.72944 0.67013 0.0
O57 O 0.70412 0.64508 0.71677 0.0
C58 C 0.71785 0.70878 0.71166 0.0
O59 O 0.86106 0.62692 0.56744 0.0
O60 O 0.87293 0.69929 0.49515 0.0
C61 C 0.86256 0.5354 0.65106 0.0
C62 C 0.88775 0.64232 0.52273 0.0
Zn63 Zn 0.12998 0.26252 0.88186 0.0
Zn64 Zn 0.21805 0.07527 0.75704 0.0
Zn65 Zn 0.17738 0.17233 0.82463 0.0
C66 C 0.22792 0.20755 0.70395 0.0
C67 C 0.31917 0.08343 0.87088 0.0
O68 O 0.08557 0.12659 0.84885 0.0
O69 O 0.07377 0.19937 0.92116 0.0
C70 C 0.10158 0.31661 0.76971 0.0
O71 O 0.19795 0.22842 0.7456 0.0
O72 O 0.24176 0.14379 0.69874 0.0
O73 O 0.29984 0.04553 0.82437 0.0
O74 O 0.28184 0.13661 0.87896 0.0
O75 O 0.07876 0.32302 0.81661 0.0
O76 O 0.14667 0.26794 0.76623 0.0
O77 O 0.24828 0.18559 0.91655 0.0
O78 O 0.22046 0.29324 0.93576 0.0
C79 C 0.25641 0.23871 0.95218 0.0
O80 O 0.0953 0.08812 0.80069 0.0
O81 O 0.12865 1.01765 0.73565 0.0
C82 C 0.05907 0.14227 0.89369 0.0
C83 C 0.08371 0.03497 0.76492 0.0
C84 C -0.02215 0.09744 0.16914 0.0
C85 C 0.92696 0.05878 0.1585 0.0
C86 C 0.03279 0.14669 0.19088 0.0
C87 C 0.07123 0.19065 0.21994 0.0
C88 C 0.96895 0.59695 0.2473 0.0
C89 C 0.01984 0.55807 0.25808 0.0
C90 C 0.91419 0.64653 0.2254 0.0
C91 C 0.87605 0.69073 0.19628 0.0
C92 C 0.96848 0.95587 0.74724 0.0
C93 C 0.01939 0.9945 0.75789 0.0
C94 C 0.91359 0.90657 0.72546 0.0
C95 C 0.87528 0.86254 0.69637 0.0
C96 C -0.02221 0.45575 0.66894 0.0
C97 C 0.92691 0.49464 0.65819 0.0
C98 C 0.03258 0.40621 0.69082 0.0
C99 C 0.07081 0.36207 0.71993 0.0
C100 C 0.95729 0.5501 0.47411 0.0
C101 C 0.9254 0.59065 0.49787 0.0
C102 C -0.00908 0.50279 0.44308 0.0
C103 C 0.02266 0.46226 0.41916 0.0
C104 C 0.95717 1.00322 -0.02587 0.0
C105 C 0.92564 0.96274 -0.00197 0.0
C106 C -0.0096 0.05037 0.9429 0.0
C107 C 0.02189 0.09076 0.91886 0.0
C108 C 0.28428 0.24068 0.06931 0.0
C109 C 0.28016 0.22904 0.01645 0.0
C110 C 0.26837 0.26537 0.1232 0.0
C111 C 0.24821 0.29575 0.16253 0.0
C112 C 0.67938 0.76653 0.2929 0.0
C113 C 0.69954 0.79692 0.25372 0.0
C114 C 0.66327 0.74173 0.34657 0.0
C115 C 0.66706 0.72995 0.39932 0.0
C116 C 0.6625 0.81219 0.84668 0.0
C117 C 0.66681 0.82385 0.89956 0.0
C118 C 0.67833 0.78748 0.79277 0.0
C119 C 0.69853 0.7571 0.75347 0.0
C120 C 0.26734 0.28608 0.623 0.0
C121 C 0.24718 0.25574 0.66221 0.0
C122 C 0.28354 0.31088 0.56936 0.0
C123 C 0.27996 0.32271 0.51664 0.0
C124 C 0.44096 0.51089 0.4426 0.0
C125 C 0.38532 0.48676 0.41372 0.0
C126 C 0.50614 0.54226 0.47311 0.0
C127 C 0.56176 0.56636 0.50204 0.0
C128 C 0.44072 0.04167 0.94242 0.0
C129 C 0.38496 0.06547 0.9133 0.0
C130 C 0.5061 1.01076 -0.02671 0.0
C131 C 0.56184 0.987 0.00245 0.0
loop_
_geom_bond_atom_site_label_1
_geom_bond_atom_site_label_2
_geom_bond_distance
_geom_bond_site_symmetry_2
_ccdc_geom_bond_type
Zn0 O6 1.920 . S
Zn0 O12 1.898 . S
Zn0 O15 1.905 . S
Zn1 O9 1.905 . S
Zn1 O10 1.898 . S
Zn1 O18 1.920 . S
Zn2 O5 2.080 . S
Zn2 O8 2.114 . S
Zn2 O11 2.120 . S
Zn2 O13 2.120 . S
Zn2 O14 2.114 . S
Zn2 O17 2.080 . S
C3 O8 1.166 . S
C3 O9 1.182 . S
C4 O10 1.167 . S
C4 O11 1.299 . S
O5 Zn2 2.080 . S
O5 C19 1.305 . S
O6 Zn0 1.920 . S
O6 C19 1.234 . S
C7 O12 1.167 . S
C7 O13 1.299 . S
O8 Zn2 2.114 . S
O8 C3 1.166 . S
O9 Zn1 1.905 . S
O9 C3 1.182 . S
O10 Zn1 1.898 . S
O10 C4 1.167 . S
O11 Zn2 2.120 . S
O11 C4 1.299 . S
O12 Zn0 1.898 . S
O12 C7 1.167 . S
O13 Zn2 2.120 . S
O13 C7 1.299 . S
O14 Zn2 2.114 . S
O14 C16 1.166 . S
O15 Zn0 1.905 . S
O15 C16 1.182 . S
C16 O14 1.166 . S
C16 O15 1.182 . S
O17 Zn2 2.080 . S
O17 C20 1.305 . S
O18 Zn1 1.920 . S
O18 C20 1.234 . S
C19 O5 1.305 . S
C19 O6 1.234 . S
C20 O17 1.305 . S
C20 O18 1.234 . S
Zn21 O27 1.920 . S
Zn21 O33 1.898 . S
Zn21 O36 1.905 1_554 S
Zn22 O30 1.905 . S
Zn22 O31 1.898 . S
Zn22 O39 1.920 1_565 S
Zn23 O26 2.080 . S
Zn23 O29 2.114 . S
Zn23 O32 2.120 . S
Zn23 O34 2.120 . S
Zn23 O35 2.114 . S
Zn23 O38 2.080 . S
C24 O29 1.166 . S
C24 O30 1.182 . S
C25 O31 1.167 . S
C25 O32 1.299 . S
O26 Zn23 2.080 . S
O26 C40 1.305 . S
O27 Zn21 1.920 . S
O27 C40 1.234 . S
C28 O33 1.167 . S
C28 O34 1.299 . S
O29 Zn23 2.114 . S
O29 C24 1.166 . S
O30 Zn22 1.905 . S
O30 C24 1.182 . S
O31 Zn22 1.898 . S
O31 C25 1.167 . S
O32 Zn23 2.120 . S
O32 C25 1.299 . S
O33 Zn21 1.898 . S
O33 C28 1.167 . S
O34 Zn23 2.120 . S
O34 C28 1.299 . S
O35 Zn23 2.114 . S
O35 C37 1.184 . S
O36 Zn21 1.905 1_556 S
O36 C37 1.170 1_556 S
C37 O35 1.184 . S
C37 O36 1.170 1_554 S
O38 Zn23 2.080 . S
O38 C41 1.305 1_565 S
O39 Zn22 1.920 1_545 S
O39 C41 1.234 . S
C40 O26 1.305 . S
C40 O27 1.234 . S
C41 O38 1.305 1_545 S
C41 O39 1.234 . S
Zn42 O48 1.920 . S
Zn42 O54 1.898 . S
Zn42 O57 1.905 . S
Zn43 O51 1.905 . S
Zn43 O52 1.898 . S
Zn43 O60 1.920 . S
Zn44 O47 2.080 . S
Zn44 O50 2.114 . S
Zn44 O53 2.120 . S
Zn44 O55 2.120 . S
Zn44 O56 2.114 . S
Zn44 O59 2.080 . S
C45 O50 1.166 . S
C45 O51 1.182 . S
C46 O52 1.167 . S
C46 O53 1.299 . S
O47 Zn44 2.080 . S
O47 C61 1.305 . S
O48 Zn42 1.920 . S
O48 C61 1.234 . S
C49 O54 1.167 . S
C49 O55 1.299 . S
O50 Zn44 2.114 . S
O50 C45 1.166 . S
O51 Zn43 1.905 . S
O51 C45 1.182 . S
O52 Zn43 1.898 . S
O52 C46 1.167 . S
O53 Zn44 2.120 . S
O53 C46 1.299 . S
O54 Zn42 1.898 . S
O54 C49 1.167 . S
O55 Zn44 2.120 . S
O55 C49 1.299 . S
O56 Zn44 2.114 . S
O56 C58 1.166 . S
O57 Zn42 1.905 . S
O57 C58 1.182 . S
C58 O56 1.166 . S
C58 O57 1.182 . S
O59 Zn44 2.080 . S
O59 C62 1.305 . S
O60 Zn43 1.920 . S
O60 C62 1.234 . S
C61 O47 1.305 . S
C61 O48 1.234 . S
C62 O59 1.305 . S
C62 O60 1.234 . S
Zn63 O69 1.920 . S
Zn63 O75 1.898 . S
Zn63 O78 1.905 1_556 S
Zn64 O72 1.905 . S
Zn64 O73 1.898 . S
Zn64 O81 1.920 1_545 S
Zn65 O68 2.080 . S
Zn65 O71 2.114 . S
Zn65 O74 2.120 . S
Zn65 O76 2.120 . S
Zn65 O77 2.114 . S
Zn65 O80 2.080 . S
C66 O71 1.166 . S
C66 O72 1.182 . S
C67 O73 1.167 . S
C67 O74 1.299 . S
O68 Zn65 2.080 . S
O68 C82 1.305 . S
O69 Zn63 1.920 . S
O69 C82 1.234 . S
C70 O75 1.167 . S
C70 O76 1.299 . S
O71 Zn65 2.114 . S
O71 C66 1.166 . S
O72 Zn64 1.905 . S
O72 C66 1.182 . S
O73 Zn64 1.898 . S
O73 C67 1.167 . S
O74 Zn65 2.120 . S
O74 C67 1.299 . S
O75 Zn63 1.898 . S
O75 C70 1.167 . S
O76 Zn65 2.120 . S
O76 C70 1.299 . S
O77 Zn65 2.114 . S
O77 C79 1.184 . S
O78 Zn63 1.905 1_554 S
O78 C79 1.170 1_554 S
C79 O77 1.184 . S
C79 O78 1.170 1_556 S
O80 Zn65 2.080 . S
O80 C83 1.305 1_545 S
O81 Zn64 1.920 1_565 S
O81 C83 1.234 . S
C82 O68 1.305 . S
C82 O69 1.234 . S
C83 O80 1.305 1_565 S
C83 O81 1.234 . S
C84 C85 1.170 . S
C84 C86 1.380 . S
C85 C84 1.170 . S
C86 C84 1.380 . S
C86 C87 1.170 1_655 S
C87 C86 1.170 1_455 S
C88 C89 1.170 . S
C88 C90 1.380 . S
C89 C88 1.170 . S
C90 C88 1.380 . S
C90 C91 1.170 1_455 S
C91 C90 1.170 1_655 S
C92 C93 1.170 . S
C92 C94 1.380 . S
C93 C92 1.170 . S
C94 C92 1.380 . S
C94 C95 1.170 1_455 S
C95 C94 1.170 1_655 S
C96 C97 1.170 . S
C96 C98 1.380 . S
C97 C96 1.170 . S
C98 C96 1.380 . S
C98 C99 1.170 1_655 S
C99 C98 1.170 1_455 S
C100 C101 1.170 . S
C100 C102 1.380 1_655 S
C101 C100 1.170 . S
C102 C100 1.380 1_455 S
C102 C103 1.170 . S
C103 C102 1.170 . S
C104 C105 1.170 . S
C104 C106 1.380 1_664 S
C105 C104 1.170 . S
C106 C104 1.380 1_446 S
C106 C107 1.170 . S
C107 C106 1.170 . S
C108 C109 1.170 . S
C108 C110 1.380 . S
C109 C108 1.170 . S
C110 C108 1.380 . S
C110 C111 1.170 . S
C111 C110 1.170 . S
C112 C113 1.170 . S
C112 C114 1.380 . S
C113 C112 1.170 . S
C114 C112 1.380 . S
C114 C115 1.170 . S
C115 C114 1.170 . S
C116 C117 1.170 . S
C116 C118 1.380 . S
C117 C116 1.170 . S
C118 C116 1.380 . S
C118 C119 1.170 . S
C119 C118 1.170 . S
C120 C121 1.170 . S
C120 C122 1.380 . S
C121 C120 1.170 . S
C122 C120 1.380 . S
C122 C123 1.170 . S
C123 C122 1.170 . S
C124 C125 1.170 . S
C124 C126 1.380 . S
C125 C124 1.170 . S
C126 C124 1.380 . S
C126 C127 1.170 . S
C127 C126 1.170 . S
C128 C129 1.170 . S
C128 C130 1.380 1_546 S
C129 C128 1.170 . S
C130 C128 1.380 1_564 S
C130 C131 1.170 . S
C131 C130 1.170 . S
C85 C41 1.675 . S
C87 C4 1.582 . S
C89 C19 1.682 . S
C91 C28 1.531 . S
C93 C83 1.685 . S
C95 C46 1.577 . S
C97 C61 1.686 . S
C99 C70 1.578 . S
C101 C62 0.761 . S
C103 C20 0.769 . S
C105 C40 0.699 . S
C107 C82 0.805 . S
C109 C79 1.242 1_554 S
C111 C16 1.433 . S
C113 C24 1.458 . S
C115 C45 1.193 . S
C117 C37 1.245 1_556 S
C119 C58 1.452 . S
C121 C66 1.426 . S
C123 C3 1.274 . S
C125 C7 1.263 . S
C127 C49 1.281 . S
C129 C67 1.306 . S
C131 C25 1.248 . S
