# Generated by pormake.
# Topology ilc, (8)-cn, num edge types: 1
# Building blocks:
#     Node 0, Type 0, BuildingBlock: EBIMEJ_clean_sbu_0, # of connection points: 8
#     Node 1, Type 0, BuildingBlock: EBIMEJ_clean_sbu_0, # of connection points: 8
#     Node 2, Type 0, BuildingBlock: EBIMEJ_clean_sbu_0, # of connection points: 8
#     Edge 3, Type (0, 0), BuildingBlock: EYOCIG_clean_linker_4, # of connection points: 2
#     Edge 4, Type (0, 0), BuildingBlock: EYOCIG_clean_linker_4, # of connection points: 2
#     Edge 5, Type (0, 0), BuildingBlock: EYOCIG_clean_linker_4, # of connection points: 2
#     Edge 6, Type (0, 0), BuildingBlock: EYOCIG_clean_linker_4, # of connection points: 2
#     Edge 7, Type (0, 0), BuildingBlock: EYOCIG_clean_linker_4, # of connection points: 2
#     Edge 8, Type (0, 0), BuildingBlock: EYOCIG_clean_linker_4, # of connection points: 2
#     Edge 9, Type (0, 0), BuildingBlock: EYOCIG_clean_linker_4, # of connection points: 2
#     Edge 10, Type (0, 0), BuildingBlock: EYOCIG_clean_linker_4, # of connection points: 2
#     Edge 11, Type (0, 0), BuildingBlock: EYOCIG_clean_linker_4, # of connection points: 2
#     Edge 12, Type (0, 0), BuildingBlock: EYOCIG_clean_linker_4, # of connection points: 2
#     Edge 13, Type (0, 0), BuildingBlock: EYOCIG_clean_linker_4, # of connection points: 2
#     Edge 14, Type (0, 0), BuildingBlock: EYOCIG_clean_linker_4, # of connection points: 2
# Relax obj value: 0.159
# Max RMSD: 0.228
# Mean RMSD: 0.228
data_MOF--net-ilc--node1-EBIMEJ_clean_sbu_0--edge1-EYOCIG_clean_linker_4
_symmetry_space_group_name_H-M    P1
_symmetry_Int_Tables_number       1
_symmetry_cell_setting            triclinic
loop_
_symmetry_equiv_pos_as_xyz
'x, y, z'
_cell_length_a     20.732092
_cell_length_b     18.681341
_cell_length_c     13.759448
_cell_angle_alpha  85.319753
_cell_angle_beta   96.556699
_cell_angle_gamma 136.43491
loop_
_atom_site_label
_atom_site_type_symbol
_atom_site_fract_x
_atom_site_fract_y
_atom_site_fract_z
_atom_type_partial_charge
Co0 Co 1.01572 0.95084 0.21828 0.0
Co1 Co 0.11714 0.00992 1.02325 0.0
Co2 Co 0.97385 0.01565 1.02831 0.0
H3 H 0.99632 0.96874 0.10245 0.0
O4 O 0.99787 0.92816 0.08015 0.0
H5 H 0.08227 0.04059 0.94264 0.0
O6 O 0.08562 0.08702 0.95858 0.0
Co7 Co 1.03051 0.01941 0.83106 0.0
O8 O 0.16206 0.09122 0.80566 0.0
O9 O 0.23017 0.09221 0.94719 0.0
O10 O 0.99905 0.09973 0.80642 0.0
O11 O 0.94692 0.08813 0.94817 0.0
O12 O 0.98114 0.88928 0.35335 0.0
O13 O 0.8918 0.79636 0.23137 0.0
O14 O 0.93703 0.87203 0.87878 0.0
O15 O 0.05179 0.89187 0.92935 0.0
C16 C 0.86686 0.9407 0.20328 0.0
C17 C 0.14489 0.92975 0.20497 0.0
C18 C 0.92948 0.91802 0.68429 0.0
C19 C 0.11968 0.16345 0.19233 0.0
C20 C 0.23092 0.11341 0.85548 0.0
C21 C 0.9623 0.11487 0.85772 0.0
C22 C 0.90498 0.801 0.32283 0.0
C23 C 0.97091 0.83684 0.88509 0.0
O24 O 0.9366 0.9686 0.25557 0.0
O25 O 0.86267 0.94122 0.10906 0.0
O26 O 0.15262 0.94839 0.1123 0.0
O27 O 0.10255 0.93741 0.25552 0.0
O28 O 1.0141 0.96669 0.69676 0.0
O29 O 0.90292 0.92877 0.75367 0.0
O30 O 0.1289 0.10475 0.21956 0.0
O31 O 0.05669 0.13521 0.12549 0.0
Co32 Co 0.68692 0.2909 0.5543 0.0
Co33 Co 0.77914 0.33676 0.35593 0.0
Co34 Co 0.64183 0.35067 0.36239 0.0
H35 H 0.66481 0.30528 0.43823 0.0
O36 O 0.66373 0.26208 0.41737 0.0
H37 H 0.74302 0.36503 0.27421 0.0
O38 O 0.74874 0.4138 0.28782 0.0
Co39 Co 0.68744 0.33802 0.16407 0.0
O40 O 0.81534 0.40235 0.13418 0.0
O41 O 0.8877 0.41062 0.27584 0.0
O42 O 0.65293 0.41493 0.13526 0.0
O43 O 0.61428 0.421 0.279 0.0
O44 O 0.6477 0.225 0.68739 0.0
O45 O 0.56289 0.13589 0.5619 0.0
O46 O 0.59306 0.19479 0.22066 0.0
O47 O 0.70651 0.2117 0.26843 0.0
C48 C 0.54142 0.28646 0.5409 0.0
C49 C 0.81639 0.27064 0.54149 0.0
C50 C 0.58604 0.23254 1.01923 0.0
C51 C 0.79318 0.50393 0.52265 0.0
C52 C 0.88484 0.42525 0.18304 0.0
C53 C 0.62191 0.43739 0.18629 0.0
C54 C 0.57296 0.13757 0.6535 0.0
C55 C 0.62403 0.15638 0.22816 0.0
O56 O 0.61015 0.31149 0.59268 0.0
O57 O 0.53521 0.28435 0.44674 0.0
O58 O 0.81592 0.27834 0.44751 0.0
O59 O 0.77926 0.28529 0.59229 0.0
O60 O 0.67089 0.28205 0.03189 0.0
O61 O 0.55926 0.24448 0.08727 0.0
O62 O 0.8004 0.44417 0.55332 0.0
O63 O 0.73051 0.47555 0.45486 0.0
Co64 Co 0.3771 0.64813 0.89298 0.0
Co65 Co 0.44623 0.67163 0.69558 0.0
Co66 Co 0.30268 0.67723 0.70256 0.0
H67 H 0.33259 0.63905 0.78009 0.0
O68 O 0.33044 0.59448 0.76075 0.0
H69 H 0.42214 0.71742 0.62236 0.0
O70 O 0.42137 0.75832 0.64564 0.0
Co71 Co 0.40059 0.73484 0.50776 0.0
O72 O 0.48548 0.72484 0.47023 0.0
O73 O 0.55913 0.75046 0.61666 0.0
O74 O 0.30923 0.7421 0.47176 0.0
O75 O 0.27174 0.7451 0.61781 0.0
O76 O 0.50324 0.74803 0.97085 0.0
O77 O 0.37893 0.65944 0.03968 0.0
O78 O 0.29405 0.58006 0.49821 0.0
O79 O 0.36778 0.55378 0.59702 0.0
C80 C 0.18596 0.5736 0.86862 0.0
C81 C 0.45892 0.56988 0.8641 0.0
C82 C 0.50968 0.8894 0.40678 0.0
C83 C 0.44962 0.83944 0.84881 0.0
C84 C 0.5553 0.75255 0.52241 0.0
C85 C 0.27358 0.75754 0.52416 0.0
C86 C 0.4672 0.72783 0.04893 0.0
C87 C 0.30575 0.52394 0.52798 0.0
O88 O 0.25086 0.58888 0.91916 0.0
O89 O 0.18915 0.59613 0.77717 0.0
O90 O 0.47706 0.60244 0.7753 0.0
O91 O 0.41305 0.5727 0.91453 0.0
O92 O 0.42823 0.80573 0.37746 0.0
O93 O 0.52662 0.88758 0.49679 0.0
O94 O 0.47732 0.79761 0.85317 0.0
O95 O 0.37133 0.79247 0.80166 0.0
C96 C 0.82363 0.77725 0.54746 0.0
C97 C 0.86545 0.83923 0.61248 0.0
C98 C 0.8054 0.72819 0.46181 0.0
C99 C 0.83083 0.73447 0.38511 0.0
C100 C 0.46834 0.05345 0.78981 0.0
C101 C 0.4971 0.06619 0.71313 0.0
C102 C 0.48287 0.09641 0.87834 0.0
C103 C 0.523 0.15597 0.94533 0.0
C104 C 0.56658 0.86043 0.19287 0.0
C105 C 0.52089 0.79956 0.127 0.0
C106 C 0.59669 0.92461 0.27048 0.0
C107 C 0.58099 0.93906 0.34302 0.0
C108 C 0.2195 0.82688 0.40615 0.0
C109 C 0.2395 0.79599 0.47073 0.0
C110 C 0.20124 0.8635 0.32427 0.0
C111 C 0.18113 0.89406 0.25943 0.0
C112 C 0.23285 0.37738 0.40127 0.0
C113 C 0.26836 0.44227 0.463 0.0
C114 C 0.1955 0.30874 0.32241 0.0
C115 C 0.15895 0.24426 0.2598 0.0
C116 C 0.68425 0.82819 0.40388 0.0
C117 C 0.63333 0.79619 0.46855 0.0
C118 C 0.738 0.86538 0.32175 0.0
C119 C 0.78879 0.89717 0.25701 0.0
C120 C 0.88342 0.21636 0.66126 0.0
C121 C 0.85681 0.24032 0.59701 0.0
C122 C 0.90873 0.18593 0.74179 0.0
C123 C 0.92942 0.15449 0.80432 0.0
C124 C 0.87432 0.65014 0.65353 0.0
C125 C 0.83498 0.58727 0.58822 0.0
C126 C 0.91152 0.71262 0.73816 0.0
C127 C 0.9422 0.7693 0.80688 0.0
C128 C 0.41613 0.22382 0.65803 0.0
C129 C 0.46637 0.25032 0.59493 0.0
C130 C 0.36112 0.19041 0.73761 0.0
C131 C 0.30793 0.15676 0.80003 0.0
C132 C 0.56018 0.49678 0.06544 0.0
C133 C 0.58546 0.47208 0.13055 0.0
C134 C 0.52966 0.51964 0.98292 0.0
C135 C 0.50233 0.54269 0.91859 0.0
C136 C 0.51573 0.96228 0.99986 0.0
C137 C 0.48224 0.90672 0.92928 0.0
C138 C 0.55405 0.02369 0.08555 0.0
C139 C 0.58982 0.08393 0.1525 0.0
C140 C 0.06138 0.51346 0.98502 0.0
C141 C 0.11253 0.53999 0.92333 0.0
C142 C 1.00827 0.48688 0.06357 0.0
C143 C 0.95771 0.46037 0.12602 0.0
loop_
_geom_bond_atom_site_label_1
_geom_bond_atom_site_label_2
_geom_bond_distance
_geom_bond_site_symmetry_2
_ccdc_geom_bond_type
Co0 H3 2.400 . S
Co0 O4 2.009 . S
Co0 O12 2.115 . S
Co0 O13 2.315 . S
Co0 O24 2.053 . S
Co0 O27 2.094 1_655 S
Co0 O30 2.122 1_665 S
Co1 O4 2.126 1_456 S
Co1 H5 2.388 1_565 S
Co1 O6 2.053 1_565 S
Co1 O9 2.047 1_565 S
Co1 O15 2.113 1_455 S
Co1 O26 2.063 1_556 S
Co2 H3 2.388 1_545 S
Co2 O4 2.053 1_545 S
Co2 O6 2.126 1_654 S
Co2 O11 2.063 1_554 S
Co2 O25 2.047 1_545 S
Co2 O31 2.113 1_655 S
H3 Co0 2.400 . S
H3 Co2 2.388 1_565 S
H3 O4 0.760 . S
O4 Co0 2.009 . S
O4 Co1 2.126 1_654 S
O4 Co2 2.053 1_565 S
O4 H3 0.760 . S
H5 Co1 2.388 1_545 S
H5 O6 0.760 . S
H5 Co7 2.400 . S
O6 Co1 2.053 1_545 S
O6 Co2 2.126 1_456 S
O6 H5 0.760 . S
O6 Co7 2.009 . S
Co7 H5 2.400 . S
Co7 O6 2.009 . S
Co7 O8 2.053 . S
Co7 O10 2.094 1_455 S
Co7 O14 2.122 1_445 S
Co7 O28 2.115 . S
Co7 O29 2.315 . S
O8 Co7 2.053 . S
O8 C20 1.259 . S
O9 Co1 2.047 1_545 S
O9 C20 1.257 . S
O10 Co7 2.094 1_655 S
O10 C21 1.253 . S
O11 Co2 2.063 1_556 S
O11 C21 1.268 . S
O12 Co0 2.115 . S
O12 C22 1.281 . S
O13 Co0 2.315 . S
O13 C22 1.252 . S
O14 Co7 2.122 1_665 S
O14 C23 1.272 . S
O15 Co1 2.113 1_655 S
O15 C23 1.245 . S
C16 O24 1.259 . S
C16 O25 1.257 . S
C17 O26 1.268 . S
C17 O27 1.253 . S
C18 O28 1.281 . S
C18 O29 1.252 . S
C19 O30 1.272 . S
C19 O31 1.245 . S
C20 O8 1.259 . S
C20 O9 1.257 . S
C21 O10 1.253 . S
C21 O11 1.268 . S
C22 O12 1.281 . S
C22 O13 1.252 . S
C23 O14 1.272 . S
C23 O15 1.245 . S
O24 Co0 2.053 . S
O24 C16 1.259 . S
O25 Co2 2.047 1_565 S
O25 C16 1.257 . S
O26 Co1 2.063 1_554 S
O26 C17 1.268 . S
O27 Co0 2.094 1_455 S
O27 C17 1.253 . S
O28 Co7 2.115 . S
O28 C18 1.281 . S
O29 Co7 2.315 . S
O29 C18 1.252 . S
O30 Co0 2.122 1_445 S
O30 C19 1.272 . S
O31 Co2 2.113 1_455 S
O31 C19 1.245 . S
Co32 H35 2.400 . S
Co32 O36 2.009 . S
Co32 O44 2.115 . S
Co32 O45 2.315 . S
Co32 O56 2.053 . S
Co32 O59 2.094 . S
Co32 O62 2.122 . S
Co33 O36 2.126 . S
Co33 H37 2.388 . S
Co33 O38 2.053 . S
Co33 O41 2.047 . S
Co33 O47 2.113 . S
Co33 O58 2.063 . S
Co34 H35 2.388 . S
Co34 O36 2.053 . S
Co34 O38 2.126 . S
Co34 O43 2.063 . S
Co34 O57 2.047 . S
Co34 O63 2.113 . S
H35 Co32 2.400 . S
H35 Co34 2.388 . S
H35 O36 0.760 . S
O36 Co32 2.009 . S
O36 Co33 2.126 . S
O36 Co34 2.053 . S
O36 H35 0.760 . S
H37 Co33 2.388 . S
H37 O38 0.760 . S
H37 Co39 2.400 . S
O38 Co33 2.053 . S
O38 Co34 2.126 . S
O38 H37 0.760 . S
O38 Co39 2.009 . S
Co39 H37 2.400 . S
Co39 O38 2.009 . S
Co39 O40 2.053 . S
Co39 O42 2.094 . S
Co39 O46 2.122 . S
Co39 O60 2.115 1_554 S
Co39 O61 2.315 . S
O40 Co39 2.053 . S
O40 C52 1.259 . S
O41 Co33 2.047 . S
O41 C52 1.257 . S
O42 Co39 2.094 . S
O42 C53 1.253 . S
O43 Co34 2.063 . S
O43 C53 1.268 . S
O44 Co32 2.115 . S
O44 C54 1.281 . S
O45 Co32 2.315 . S
O45 C54 1.252 . S
O46 Co39 2.122 . S
O46 C55 1.272 . S
O47 Co33 2.113 . S
O47 C55 1.245 . S
C48 O56 1.259 . S
C48 O57 1.257 . S
C49 O58 1.268 . S
C49 O59 1.253 . S
C50 O60 1.281 . S
C50 O61 1.252 1_556 S
C51 O62 1.272 . S
C51 O63 1.245 . S
C52 O40 1.259 . S
C52 O41 1.257 . S
C53 O42 1.253 . S
C53 O43 1.268 . S
C54 O44 1.281 . S
C54 O45 1.252 . S
C55 O46 1.272 . S
C55 O47 1.245 . S
O56 Co32 2.053 . S
O56 C48 1.259 . S
O57 Co34 2.047 . S
O57 C48 1.257 . S
O58 Co33 2.063 . S
O58 C49 1.268 . S
O59 Co32 2.094 . S
O59 C49 1.253 . S
O60 Co39 2.115 1_556 S
O60 C50 1.281 . S
O61 Co39 2.315 . S
O61 C50 1.252 1_554 S
O62 Co32 2.122 . S
O62 C51 1.272 . S
O63 Co34 2.113 . S
O63 C51 1.245 . S
Co64 H67 2.400 . S
Co64 O68 2.009 . S
Co64 O76 2.115 1_556 S
Co64 O77 2.315 . S
Co64 O88 2.053 . S
Co64 O91 2.094 . S
Co64 O94 2.122 . S
Co65 O68 2.126 . S
Co65 H69 2.388 . S
Co65 O70 2.053 . S
Co65 O73 2.047 . S
Co65 O79 2.113 . S
Co65 O90 2.063 . S
Co66 H67 2.388 . S
Co66 O68 2.053 . S
Co66 O70 2.126 . S
Co66 O75 2.063 . S
Co66 O89 2.047 . S
Co66 O95 2.113 . S
H67 Co64 2.400 . S
H67 Co66 2.388 . S
H67 O68 0.760 . S
O68 Co64 2.009 . S
O68 Co65 2.126 . S
O68 Co66 2.053 . S
O68 H67 0.760 . S
H69 Co65 2.388 . S
H69 O70 0.760 . S
H69 Co71 2.400 . S
O70 Co65 2.053 . S
O70 Co66 2.126 . S
O70 H69 0.760 . S
O70 Co71 2.009 . S
Co71 H69 2.400 . S
Co71 O70 2.009 . S
Co71 O72 2.053 . S
Co71 O74 2.094 . S
Co71 O78 2.122 . S
Co71 O92 2.115 . S
Co71 O93 2.315 . S
O72 Co71 2.053 . S
O72 C84 1.259 . S
O73 Co65 2.047 . S
O73 C84 1.257 . S
O74 Co71 2.094 . S
O74 C85 1.253 . S
O75 Co66 2.063 . S
O75 C85 1.268 . S
O76 Co64 2.115 1_554 S
O76 C86 1.281 . S
O77 Co64 2.315 . S
O77 C86 1.252 1_556 S
O78 Co71 2.122 . S
O78 C87 1.272 . S
O79 Co65 2.113 . S
O79 C87 1.245 . S
C80 O88 1.259 . S
C80 O89 1.257 . S
C81 O90 1.268 . S
C81 O91 1.253 . S
C82 O92 1.281 . S
C82 O93 1.252 . S
C83 O94 1.272 . S
C83 O95 1.245 . S
C84 O72 1.259 . S
C84 O73 1.257 . S
C85 O74 1.253 . S
C85 O75 1.268 . S
C86 O76 1.281 . S
C86 O77 1.252 1_554 S
C87 O78 1.272 . S
C87 O79 1.245 . S
O88 Co64 2.053 . S
O88 C80 1.259 . S
O89 Co66 2.047 . S
O89 C80 1.257 . S
O90 Co65 2.063 . S
O90 C81 1.268 . S
O91 Co64 2.094 . S
O91 C81 1.253 . S
O92 Co71 2.115 . S
O92 C82 1.281 . S
O93 Co71 2.315 . S
O93 C82 1.252 . S
O94 Co64 2.122 . S
O94 C83 1.272 . S
O95 Co66 2.113 . S
O95 C83 1.245 . S
C96 C97 1.170 . S
C96 C98 1.380 1_445 S
C97 C96 1.170 . S
C98 C96 1.380 1_665 S
C98 C99 1.170 . S
C99 C98 1.170 . S
C100 C101 1.170 . S
C100 C102 1.380 . S
C101 C100 1.170 . S
C102 C100 1.380 . S
C102 C103 1.170 . S
C103 C102 1.170 . S
C104 C105 1.170 . S
C104 C106 1.380 . S
C105 C104 1.170 . S
C106 C104 1.380 . S
C106 C107 1.170 . S
C107 C106 1.170 . S
C108 C109 1.170 . S
C108 C110 1.380 . S
C109 C108 1.170 . S
C110 C108 1.380 . S
C110 C111 1.170 . S
C111 C110 1.170 . S
C112 C113 1.170 . S
C112 C114 1.380 . S
C113 C112 1.170 . S
C114 C112 1.380 . S
C114 C115 1.170 . S
C115 C114 1.170 . S
C116 C117 1.170 . S
C116 C118 1.380 . S
C117 C116 1.170 . S
C118 C116 1.380 . S
C118 C119 1.170 . S
C119 C118 1.170 . S
C120 C121 1.170 . S
C120 C122 1.380 . S
C121 C120 1.170 . S
C122 C120 1.380 . S
C122 C123 1.170 . S
C123 C122 1.170 . S
C124 C125 1.170 . S
C124 C126 1.380 . S
C125 C124 1.170 . S
C126 C124 1.380 . S
C126 C127 1.170 . S
C127 C126 1.170 . S
C128 C129 1.170 . S
C128 C130 1.380 . S
C129 C128 1.170 . S
C130 C128 1.380 . S
C130 C131 1.170 . S
C131 C130 1.170 . S
C132 C133 1.170 . S
C132 C134 1.380 1_554 S
C133 C132 1.170 . S
C134 C132 1.380 1_556 S
C134 C135 1.170 . S
C135 C134 1.170 . S
C136 C137 1.170 . S
C136 C138 1.380 1_566 S
C137 C136 1.170 . S
C138 C136 1.380 1_544 S
C138 C139 1.170 . S
C139 C138 1.170 . S
C140 C141 1.170 . S
C140 C142 1.380 1_456 S
C141 C140 1.170 . S
C142 C140 1.380 1_654 S
C142 C143 1.170 . S
C143 C142 1.170 . S
C97 C18 1.136 . S
C99 C22 1.066 . S
C101 C54 1.099 . S
C103 C50 1.113 . S
C105 C86 1.043 . S
C107 C82 1.118 . S
C109 C85 2.393 . S
C111 C17 2.380 . S
C113 C87 1.075 . S
C115 C19 1.147 . S
C117 C84 1.812 . S
C119 C16 1.775 . S
C121 C49 2.381 . S
C123 C21 2.393 . S
C125 C51 1.132 . S
C127 C23 1.126 . S
C129 C48 1.802 . S
C131 C20 1.776 . S
C133 C53 2.395 . S
C135 C81 2.382 . S
C137 C83 1.089 . S
C139 C55 1.120 . S
C141 C80 1.812 . S
C143 C52 1.775 . S
