# Generated by pormake.
# Topology cds, (4)-cn, num edge types: 1
# Building blocks:
#     Node 0, Type 0, BuildingBlock: NAWXER_clean_sbu_0, # of connection points: 4
#     Node 1, Type 0, BuildingBlock: NAWXER_clean_sbu_0, # of connection points: 4
#     Edge 2, Type (0, 0), BuildingBlock: MIFKUJ_clean_linker_0, # of connection points: 2
#     Edge 3, Type (0, 0), BuildingBlock: MIFKUJ_clean_linker_0, # of connection points: 2
#     Edge 4, Type (0, 0), BuildingBlock: MIFKUJ_clean_linker_0, # of connection points: 2
#     Edge 5, Type (0, 0), BuildingBlock: MIFKUJ_clean_linker_0, # of connection points: 2
# Relax obj value: 0.000
# Max RMSD: 0.000
# Mean RMSD: 0.000
data_MOF--net-cds--node1-NAWXER_clean_sbu_0--edge1-MIFKUJ_clean_linker_0
_symmetry_space_group_name_H-M    P1
_symmetry_Int_Tables_number       1
_symmetry_cell_setting            triclinic
loop_
_symmetry_equiv_pos_as_xyz
'x, y, z'
_cell_length_a     19.198814
_cell_length_b     19.231327
_cell_length_c     38.282598
_cell_angle_alpha  97.436862
_cell_angle_beta   97.542161
_cell_angle_gamma 89.253265
loop_
_atom_site_label
_atom_site_type_symbol
_atom_site_fract_x
_atom_site_fract_y
_atom_site_fract_z
_atom_type_partial_charge
C0 C 0.18979 0.1086 0.02456 0.0
C1 C 0.93475 0.11129 0.0214 0.0
O2 O 0.16274 0.04686 0.01826 0.0
Zn3 Zn 0.06005 0.99994 0.01302 0.0
O4 O 0.1503 0.16137 0.02998 0.0
Zn5 Zn 0.06251 0.11053 0.02394 0.0
O6 O 0.07239 0.05633 0.07008 0.0
O7 O 0.06597 0.94295 0.05124 0.0
O8 O 0.97683 0.16318 0.02813 0.0
O9 O 0.95916 0.04912 0.01524 0.0
O10 O 0.05154 0.95289 0.96523 0.0
O11 O 0.05062 0.06837 0.96818 0.0
C12 C 0.07234 0.99266 0.07673 0.0
C13 C 0.04773 1.00756 0.94967 0.0
C14 C 0.90666 0.08912 0.49885 0.0
C15 C 0.90586 0.83435 0.49609 0.0
O16 O 0.96864 0.0635 0.50406 0.0
Zn17 Zn 0.01637 0.96214 0.50656 0.0
O18 O 0.85377 0.04826 0.49379 0.0
Zn19 Zn 0.90517 0.96176 0.49752 0.0
O20 O 0.95034 0.97403 0.55266 0.0
O21 O 0.06572 0.96885 0.55403 0.0
O22 O 0.85309 0.87466 0.49262 0.0
O23 O 0.96797 0.86062 0.50109 0.0
O24 O 0.07112 0.95499 0.46752 0.0
O25 O 0.95673 0.9499 0.45027 0.0
C26 C 0.01201 0.97499 0.57032 0.0
C27 C 0.01992 0.94877 0.44268 0.0
H28 H 0.01987 0.8795 0.10125 0.0
H29 H 0.01714 0.86209 0.16348 0.0
H30 H 0.13237 0.05496 0.19811 0.0
H31 H 0.13347 0.07388 0.13609 0.0
H32 H 0.17604 0.92219 0.23441 0.0
H33 H 0.98087 0.07723 0.20154 0.0
H34 H 0.87434 0.10658 0.16289 0.0
H35 H 0.77297 0.91955 0.18148 0.0
H36 H 0.87948 0.88851 0.21978 0.0
H37 H 0.1285 1.00332 0.41546 0.0
H38 H 0.14297 1.00117 0.35285 0.0
H39 H 0.95509 0.87477 0.32277 0.0
H40 H 0.93823 0.88093 0.38527 0.0
H41 H 0.94886 0.96556 0.2819 0.0
H42 H 0.13285 0.81077 0.31736 0.0
H43 H 0.23786 0.77083 0.3536 0.0
H44 H 0.35866 0.93945 0.32826 0.0
H45 H 0.25413 0.98099 0.29224 0.0
C46 C 0.04535 0.9177 0.12214 0.0
C47 C 0.07664 0.97818 0.11391 0.0
C48 C 0.04367 0.90773 0.15758 0.0
C49 C 0.07456 0.9573 0.18521 0.0
C50 C 0.10847 0.01612 0.17707 0.0
C51 C 0.10875 0.02695 0.1417 0.0
C52 C 0.06759 0.95033 0.22259 0.0
C53 C 0.12669 0.93209 0.24507 0.0
C54 C 1.00257 0.96109 0.23587 0.0
C55 C 0.93841 0.98012 0.21313 0.0
C56 C 0.93613 0.042 0.19708 0.0
C57 C 0.87571 0.05902 0.17531 0.0
C58 C 0.817 0.01484 0.16964 0.0
C59 C 0.81853 0.95365 0.18583 0.0
C60 C 0.8789 0.93633 0.20758 0.0
C61 C 0.09075 0.97457 0.39543 0.0
C62 C 0.03227 0.9423 0.40514 0.0
C63 C 0.09925 0.97291 0.3596 0.0
C64 C 0.05077 0.93682 0.33283 0.0
C65 C 0.9932 0.90316 0.34274 0.0
C66 C 0.98367 0.90648 0.37848 0.0
C67 C 0.05771 0.93741 0.29452 0.0
C68 C 0.99845 0.95475 0.27161 0.0
C69 C 0.1224 0.92418 0.28073 0.0
C70 C 0.18545 0.89934 0.30234 0.0
C71 C 0.18168 0.83963 0.31972 0.0
C72 C 0.24114 0.81666 0.34019 0.0
C73 C 0.30485 0.85268 0.3433 0.0
C74 C 0.30926 0.91165 0.32586 0.0
C75 C 0.24994 0.93489 0.30538 0.0
H76 H 0.35082 0.8348 0.35916 0.0
H77 H 0.77026 0.02811 0.15278 0.0
H78 H 0.99954 0.10624 0.90735 0.0
H79 H 0.99306 0.09804 0.84262 0.0
H80 H 0.07777 0.8889 0.83883 0.0
H81 H 0.08302 0.89597 0.90357 0.0
H82 H 0.14508 0.99106 0.80041 0.0
H83 H 0.91956 0.89275 0.81221 0.0
H84 H 0.80615 0.89406 0.83597 0.0
H85 H 0.7487 0.08362 0.79135 0.0
H86 H 0.86226 0.08389 0.76767 0.0
H87 H 0.10085 0.90212 0.61341 0.0
H88 H 0.10668 0.90498 0.67776 0.0
H89 H 0.94882 0.06722 0.67954 0.0
H90 H 0.93899 0.05972 0.61479 0.0
H91 H 0.9193 0.98708 0.7206 0.0
H92 H 0.13893 0.09278 0.70978 0.0
H93 H 0.25362 0.10264 0.68834 0.0
H94 H 0.3249 0.91679 0.73318 0.0
H95 H 0.21032 0.90535 0.75453 0.0
C96 C 0.01651 0.05837 0.89273 0.0
C97 C 0.04174 1.00169 0.9105 0.0
C98 C 0.01267 0.05379 0.85581 0.0
C99 C 0.03496 0.9929 0.8361 0.0
C100 C 0.06038 0.93629 0.8537 0.0
C101 C 0.06301 0.94032 0.89059 0.0
C102 C 0.03249 0.9889 0.79712 0.0
C103 C 0.0959 0.98925 0.78274 0.0
C104 C 0.96819 0.98909 0.77452 0.0
C105 C 0.89966 0.98865 0.78845 0.0
C106 C 0.88299 0.93502 0.80771 0.0
C107 C 0.81863 0.9354 0.8211 0.0
C108 C 0.77031 0.98895 0.81522 0.0
C109 C 0.7862 0.04218 0.79589 0.0
C110 C 0.85051 0.04203 0.78243 0.0
C111 C 0.06788 0.93865 0.62772 0.0
C112 C 0.01976 0.98098 0.60937 0.0
C113 C 0.0715 0.94071 0.66456 0.0
C114 C 0.02927 0.98743 0.68396 0.0
C115 C 0.98195 0.03056 0.66543 0.0
C116 C 0.97655 0.02663 0.62846 0.0
C117 C 0.03237 0.98976 0.72325 0.0
C118 C 0.9689 0.98906 0.73791 0.0
C119 C 0.09683 0.99104 0.74624 0.0
C120 C 0.1658 0.99786 0.73345 0.0
C121 C 0.1789 0.05376 0.71486 0.0
C122 C 0.24392 0.05967 0.70276 0.0
C123 C 0.29644 0.01027 0.70931 0.0
C124 C 0.28414 0.95496 0.72808 0.0
C125 C 0.2192 0.94878 0.74022 0.0
H126 H 0.34673 0.01494 0.69991 0.0
H127 H 0.72047 0.98902 0.82556 0.0
H128 H 0.83124 0.01589 0.99535 0.0
H129 H 0.70486 0.03033 0.99522 0.0
H130 H 0.73722 0.24303 0.04607 0.0
H131 H 0.86461 0.22913 0.04619 0.0
H132 H 0.6446 0.16601 0.07753 0.0
H133 H 0.67218 0.22134 0.96261 0.0
H134 H 0.71422 0.20588 0.90397 0.0
H135 H 0.60014 0.01185 0.87599 0.0
H136 H 0.55812 0.02562 0.93471 0.0
H137 H 0.27088 0.22576 0.04914 0.0
H138 H 0.39769 0.23882 0.04843 0.0
H139 H 0.40759 0.02523 0.9986 0.0
H140 H 0.28166 0.01149 0.99946 0.0
H141 H 0.47873 0.12004 0.96616 0.0
H142 H 0.46195 0.05957 0.08325 0.0
H143 H 0.42101 0.07404 0.14217 0.0
H144 H 0.51568 0.27865 0.16587 0.0
H145 H 0.55632 0.26577 0.10682 0.0
C146 C 0.81168 0.06591 1.00644 0.0
C147 C 0.85802 0.12144 0.02075 0.0
C148 C 0.73933 0.07413 1.0062 0.0
C149 C 0.71167 0.13792 0.02037 0.0
C150 C 0.75761 0.19346 0.03492 0.0
C151 C 0.83024 0.18551 0.03484 0.0
C152 C 0.63471 0.14523 0.02044 0.0
C153 C 0.60825 0.15753 0.05315 0.0
C154 C 0.58746 0.13292 0.98863 0.0
C155 C 0.61241 0.12429 0.95321 0.0
C156 C 0.65649 0.17507 0.94408 0.0
C157 C 0.68022 0.16668 0.9108 0.0
C158 C 0.65993 0.10789 0.88629 0.0
C159 C 0.6158 0.05737 0.89501 0.0
C160 C 0.59192 0.0655 0.92828 0.0
C161 C 0.30013 0.18162 0.03805 0.0
C162 C 0.26626 0.11752 0.02448 0.0
C163 C 0.3725 0.18914 0.03772 0.0
C164 C 0.41193 0.13292 0.0235 0.0
C165 C 0.37806 0.06928 0.0096 0.0
C166 C 0.30612 0.06145 0.01031 0.0
C167 C 0.4887 0.13961 0.02327 0.0
C168 C 0.51507 0.12974 0.99049 0.0
C169 C 0.53581 0.15422 0.05499 0.0
C170 C 0.51134 0.1621 0.09045 0.0
C171 C 0.47341 0.10795 0.10088 0.0
C172 C 0.4504 0.11579 0.13433 0.0
C173 C 0.46552 0.17733 0.1577 0.0
C174 C 0.50386 0.23108 0.1477 0.0
C175 C 0.52691 0.22353 0.11425 0.0
H176 H 0.4477 0.18329 0.1836 0.0
H177 H 0.67826 0.10162 0.86052 0.0
H178 H 1.00863 0.73737 0.50619 0.0
H179 H 0.9959 0.61109 0.50362 0.0
H180 H 0.77103 0.62962 0.47994 0.0
H181 H 0.7832 0.7573 0.48303 0.0
H182 H 0.80746 0.53959 0.52894 0.0
H183 H 0.86644 0.56914 0.41445 0.0
H184 H 0.93416 0.615 0.37189 0.0
H185 H 0.11941 0.51201 0.41516 0.0
H186 H 0.05308 0.46637 0.45835 0.0
H187 H 0.78413 0.16316 0.48676 0.0
H188 H 0.77213 0.28939 0.48357 0.0
H189 H 0.99723 0.31381 0.50594 0.0
H190 H 0.00975 0.18845 0.50879 0.0
H191 H 0.94516 0.38117 0.45127 0.0
H192 H 0.89008 0.36274 0.56939 0.0
H193 H 0.82437 0.3189 0.61331 0.0
H194 H 0.63296 0.40136 0.56356 0.0
H195 H 0.69746 0.44491 0.51903 0.0
C196 C 0.95633 0.7149 0.50037 0.0
C197 C 0.89693 0.75754 0.49458 0.0
C198 C 0.94919 0.64248 0.49878 0.0
C199 C 0.88263 0.61074 0.49099 0.0
C200 C 0.82293 0.65305 0.4858 0.0
C201 C 0.83002 0.72591 0.48749 0.0
C202 C 0.87631 0.53334 0.48853 0.0
C203 C 0.83639 0.50479 0.51144 0.0
C204 C 0.91488 0.48802 0.46605 0.0
C205 C 0.95481 0.51466 0.4398 0.0
C206 C 0.92172 0.5566 0.41504 0.0
C207 C 0.95986 0.58253 0.39078 0.0
C208 C 0.03107 0.56652 0.39086 0.0
C209 C 0.06425 0.52438 0.41514 0.0
C210 C 0.02637 0.49838 0.43948 0.0
C211 C 0.83104 0.19552 0.49113 0.0
C212 C 0.89793 0.16563 0.49801 0.0
C213 C 0.82404 0.26765 0.48939 0.0
C214 C 0.88379 0.31109 0.49464 0.0
C215 C 0.95041 0.28131 0.50166 0.0
C216 C 0.95745 0.20951 0.50341 0.0
C217 C 0.87786 0.3875 0.49236 0.0
C218 C 0.9154 0.41585 0.46842 0.0
C219 C 0.8372 0.43248 0.51391 0.0
C220 C 0.79843 0.40629 0.54063 0.0
C221 C 0.83388 0.37096 0.56763 0.0
C222 C 0.79688 0.34629 0.59267 0.0
C223 C 0.72449 0.35713 0.59116 0.0
C224 C 0.68899 0.39286 0.56465 0.0
C225 C 0.72575 0.41758 0.53952 0.0
H226 H 0.69594 0.33801 0.61058 0.0
H227 H 0.06051 0.58668 0.37208 0.0
loop_
_geom_bond_atom_site_label_1
_geom_bond_atom_site_label_2
_geom_bond_distance
_geom_bond_site_symmetry_2
_ccdc_geom_bond_type
C0 O2 1.250 1_554 S
C0 O4 1.257 1_565 S
C1 O8 1.255 1_556 S
C1 O9 1.254 1_545 S
O2 C0 1.250 1_556 S
O2 Zn3 2.025 . S
Zn3 O2 2.025 . S
Zn3 O7 2.035 1_556 S
Zn3 O9 2.036 1_455 S
Zn3 O10 2.028 1_455 S
O4 C0 1.257 1_545 S
O4 Zn5 2.036 . S
Zn5 O4 2.036 . S
Zn5 O6 2.028 . S
Zn5 O8 2.025 1_455 S
Zn5 O11 2.035 1_454 S
O6 Zn5 2.028 . S
O6 C12 1.251 . S
O7 Zn3 2.035 1_554 S
O7 C12 1.254 1_565 S
O8 C1 1.255 1_554 S
O8 Zn5 2.025 1_655 S
O9 C1 1.254 1_565 S
O9 Zn3 2.036 1_655 S
O10 Zn3 2.028 1_655 S
O10 C13 1.248 . S
O11 Zn5 2.035 1_656 S
O11 C13 1.257 1_545 S
C12 O6 1.251 . S
C12 O7 1.254 1_545 S
C13 O10 1.248 . S
C13 O11 1.257 1_565 S
C14 O16 1.251 . S
C14 O18 1.254 1_455 S
C15 O22 1.248 . S
C15 O23 1.257 1_655 S
O16 C14 1.251 . S
O16 Zn17 2.043 . S
Zn17 O16 2.043 . S
Zn17 O21 2.034 . S
Zn17 O23 2.020 1_545 S
Zn17 O24 2.029 1_545 S
O18 C14 1.254 1_655 S
O18 Zn19 2.024 1_545 S
Zn19 O18 2.024 1_565 S
Zn19 O20 2.029 1_565 S
Zn19 O22 2.039 . S
Zn19 O25 2.034 . S
O20 Zn19 2.029 1_545 S
O20 C26 1.248 . S
O21 Zn17 2.034 . S
O21 C26 1.257 1_455 S
O22 C15 1.248 . S
O22 Zn19 2.039 . S
O23 C15 1.257 1_455 S
O23 Zn17 2.020 1_565 S
O24 Zn17 2.029 1_565 S
O24 C27 1.251 . S
O25 Zn19 2.034 . S
O25 C27 1.254 1_655 S
C26 O20 1.248 . S
C26 O21 1.257 1_655 S
C27 O24 1.251 . S
C27 O25 1.254 1_455 S
H28 C46 0.951 . S
H29 C48 0.951 . S
H30 C50 0.950 . S
H31 C51 0.950 . S
H32 C53 0.950 . S
H33 C56 0.950 . S
H34 C57 0.950 . S
H35 C59 0.950 . S
H36 C60 0.950 . S
H37 C61 0.951 . S
H38 C63 0.951 . S
H39 C65 0.950 . S
H40 C66 0.950 . S
H41 C68 0.950 . S
H42 C71 0.950 . S
H43 C72 0.950 . S
H44 C74 0.950 . S
H45 C75 0.950 . S
C46 H28 0.951 . S
C46 C47 1.365 1_665 S
C46 C48 1.388 . S
C47 C46 1.365 1_445 S
C47 C51 1.385 . S
C48 H29 0.951 . S
C48 C46 1.388 . S
C48 C49 1.366 1_565 S
C49 C48 1.366 1_545 S
C49 C50 1.414 1_655 S
C49 C52 1.499 . S
C50 H30 0.950 . S
C50 C49 1.414 1_455 S
C50 C51 1.374 . S
C51 H31 0.950 . S
C51 C47 1.385 . S
C51 C50 1.374 . S
C52 C49 1.499 . S
C52 C53 1.373 1_655 S
C52 C54 1.389 . S
C53 H32 0.950 . S
C53 C52 1.373 1_455 S
C53 C69 1.377 1_545 S
C54 C52 1.389 . S
C54 C55 1.524 . S
C54 C68 1.377 1_545 S
C55 C54 1.524 . S
C55 C56 1.397 . S
C55 C60 1.363 1_545 S
C56 H33 0.950 . S
C56 C55 1.397 . S
C56 C57 1.334 . S
C57 H34 0.950 . S
C57 C56 1.334 . S
C57 C58 1.287 . S
C58 C57 1.287 . S
C58 C59 1.524 1_545 S
C58 H77 0.913 . S
C59 H35 0.950 . S
C59 C58 1.524 1_565 S
C59 C60 1.415 . S
C60 H36 0.950 . S
C60 C55 1.363 1_565 S
C60 C59 1.415 . S
C61 H37 0.951 . S
C61 C62 1.368 1_455 S
C61 C63 1.388 . S
C62 C61 1.368 1_655 S
C62 C66 1.383 1_545 S
C63 H38 0.951 . S
C63 C61 1.388 . S
C63 C64 1.366 1_545 S
C64 C63 1.366 1_565 S
C64 C65 1.414 1_455 S
C64 C67 1.499 . S
C65 H39 0.950 . S
C65 C64 1.414 1_655 S
C65 C66 1.374 . S
C66 H40 0.950 . S
C66 C62 1.383 1_565 S
C66 C65 1.374 . S
C67 C64 1.499 . S
C67 C68 1.373 1_455 S
C67 C69 1.389 . S
C68 H41 0.950 . S
C68 C54 1.377 1_565 S
C68 C67 1.373 1_655 S
C69 C53 1.377 1_565 S
C69 C67 1.389 . S
C69 C70 1.524 . S
C70 C69 1.524 . S
C70 C71 1.397 . S
C70 C75 1.363 1_565 S
C71 H42 0.950 . S
C71 C70 1.397 . S
C71 C72 1.334 . S
C72 H43 0.950 . S
C72 C71 1.334 . S
C72 C73 1.287 . S
C73 C72 1.287 . S
C73 C74 1.524 1_565 S
C73 H76 0.999 . S
C74 H44 0.950 . S
C74 C73 1.524 1_545 S
C74 C75 1.415 . S
C75 H45 0.950 . S
C75 C70 1.363 1_545 S
C75 C74 1.415 . S
H76 C73 0.999 . S
H77 C58 0.913 . S
H78 C96 0.951 . S
H79 C98 0.951 . S
H80 C100 0.950 . S
H81 C101 0.950 . S
H82 C103 0.950 . S
H83 C106 0.950 1_565 S
H84 C107 0.950 . S
H85 C109 0.950 . S
H86 C110 0.950 . S
H87 C111 0.951 . S
H88 C113 0.951 . S
H89 C115 0.950 . S
H90 C116 0.950 . S
H91 C118 0.950 . S
H92 C121 0.950 1_545 S
H93 C122 0.950 . S
H94 C124 0.950 . S
H95 C125 0.950 . S
C96 H78 0.951 . S
C96 C97 1.365 1_655 S
C96 C98 1.388 . S
C97 C96 1.365 1_455 S
C97 C101 1.385 1_545 S
C98 H79 0.951 . S
C98 C96 1.388 . S
C98 C99 1.360 1_545 S
C99 C98 1.360 1_565 S
C99 C100 1.420 1_655 S
C99 C102 1.498 . S
C100 H80 0.950 . S
C100 C99 1.420 1_455 S
C100 C101 1.374 . S
C101 H81 0.950 . S
C101 C97 1.385 1_565 S
C101 C100 1.374 . S
C102 C99 1.498 . S
C102 C103 1.373 1_655 S
C102 C104 1.389 1_565 S
C103 H82 0.950 . S
C103 C102 1.373 1_455 S
C103 C119 1.377 . S
C104 C102 1.389 1_545 S
C104 C105 1.524 . S
C104 C118 1.377 . S
C105 C104 1.524 . S
C105 C106 1.397 . S
C105 C110 1.363 . S
C106 H83 0.950 1_545 S
C106 C105 1.397 . S
C106 C107 1.334 . S
C107 H84 0.950 . S
C107 C106 1.334 . S
C107 C108 1.287 . S
C108 C107 1.287 . S
C108 C109 1.524 . S
C108 H127 0.913 . S
C109 H85 0.950 . S
C109 C108 1.524 . S
C109 C110 1.415 . S
C110 H86 0.950 . S
C110 C105 1.363 . S
C110 C109 1.415 . S
C111 H87 0.951 . S
C111 C112 1.365 1_465 S
C111 C113 1.388 . S
C112 C111 1.365 1_645 S
C112 C116 1.385 . S
C113 H88 0.951 . S
C113 C111 1.388 . S
C113 C114 1.357 1_565 S
C114 C113 1.357 1_545 S
C114 C115 1.424 1_455 S
C114 C117 1.498 . S
C115 H89 0.950 . S
C115 C114 1.424 1_655 S
C115 C116 1.374 . S
C116 H90 0.950 . S
C116 C112 1.385 . S
C116 C115 1.374 . S
C117 C114 1.498 . S
C117 C118 1.373 1_455 S
C117 C119 1.389 1_545 S
C118 H91 0.950 . S
C118 C104 1.377 . S
C118 C117 1.373 1_655 S
C119 C103 1.377 . S
C119 C117 1.389 1_565 S
C119 C120 1.524 . S
C120 C119 1.524 . S
C120 C121 1.397 . S
C120 C125 1.363 . S
C121 H92 0.950 1_565 S
C121 C120 1.397 . S
C121 C122 1.334 . S
C122 H93 0.950 . S
C122 C121 1.334 . S
C122 C123 1.287 . S
C123 C122 1.287 . S
C123 C124 1.524 . S
C123 H126 0.999 . S
C124 H94 0.950 . S
C124 C123 1.524 . S
C124 C125 1.415 . S
C125 H95 0.950 . S
C125 C120 1.363 . S
C125 C124 1.415 . S
H126 C123 0.999 . S
H127 C108 0.913 . S
H128 C146 0.951 . S
H129 C148 0.951 . S
H130 C150 0.950 . S
H131 C151 0.950 . S
H132 C153 0.950 . S
H133 C156 0.950 . S
H134 C157 0.950 . S
H135 C159 0.950 . S
H136 C160 0.950 . S
H137 C161 0.951 . S
H138 C163 0.951 . S
H139 C165 0.950 . S
H140 C166 0.950 . S
H141 C168 0.950 . S
H142 C171 0.950 . S
H143 C172 0.950 . S
H144 C174 0.950 . S
H145 C175 0.950 . S
C146 H128 0.951 . S
C146 C147 1.365 1_566 S
C146 C148 1.388 . S
C147 C146 1.365 1_544 S
C147 C151 1.385 . S
C148 H129 0.951 . S
C148 C146 1.388 . S
C148 C149 1.370 1_565 S
C149 C148 1.370 1_545 S
C149 C150 1.410 1_556 S
C149 C152 1.494 1_556 S
C150 H130 0.950 . S
C150 C149 1.410 1_554 S
C150 C151 1.374 . S
C151 H131 0.950 . S
C151 C147 1.385 . S
C151 C150 1.374 . S
C152 C149 1.494 1_554 S
C152 C153 1.394 1_545 S
C152 C154 1.372 1_554 S
C153 H132 0.950 . S
C153 C152 1.394 1_565 S
C153 C169 1.377 . S
C154 C152 1.372 1_556 S
C154 C155 1.524 . S
C154 C168 1.377 . S
C155 C154 1.524 . S
C155 C156 1.397 . S
C155 C160 1.363 . S
C156 H133 0.950 . S
C156 C155 1.397 . S
C156 C157 1.334 . S
C157 H134 0.950 . S
C157 C156 1.334 . S
C157 C158 1.287 . S
C158 C157 1.287 . S
C158 C159 1.524 . S
C158 H177 0.913 . S
C159 H135 0.950 . S
C159 C158 1.524 . S
C159 C160 1.415 . S
C160 H136 0.950 . S
C160 C155 1.363 . S
C160 C159 1.415 . S
C161 H137 0.951 . S
C161 C162 1.365 . S
C161 C163 1.388 . S
C162 C161 1.365 . S
C162 C166 1.385 1_544 S
C163 H138 0.951 . S
C163 C161 1.388 . S
C163 C164 1.377 1_545 S
C164 C163 1.377 1_565 S
C164 C165 1.404 1_554 S
C164 C167 1.494 1_554 S
C165 H139 0.950 . S
C165 C164 1.404 1_556 S
C165 C166 1.374 . S
C166 H140 0.950 . S
C166 C162 1.385 1_566 S
C166 C165 1.374 . S
C167 C164 1.494 1_556 S
C167 C168 1.388 1_565 S
C167 C169 1.377 1_556 S
C168 H141 0.950 . S
C168 C154 1.377 . S
C168 C167 1.388 1_545 S
C169 C153 1.377 . S
C169 C167 1.377 1_554 S
C169 C170 1.524 . S
C170 C169 1.524 . S
C170 C171 1.397 . S
C170 C175 1.363 . S
C171 H142 0.950 . S
C171 C170 1.397 . S
C171 C172 1.334 . S
C172 H143 0.950 . S
C172 C171 1.334 . S
C172 C173 1.287 . S
C173 C172 1.287 . S
C173 C174 1.524 . S
C173 H176 0.999 . S
C174 H144 0.950 . S
C174 C173 1.524 . S
C174 C175 1.415 . S
C175 H145 0.950 . S
C175 C170 1.363 . S
C175 C174 1.415 . S
H176 C173 0.999 . S
H177 C158 0.913 . S
H178 C196 0.951 . S
H179 C198 0.951 . S
H180 C200 0.950 . S
H181 C201 0.950 . S
H182 C203 0.950 . S
H183 C206 0.950 . S
H184 C207 0.950 . S
H185 C209 0.950 . S
H186 C210 0.950 . S
H187 C211 0.951 . S
H188 C213 0.951 . S
H189 C215 0.950 . S
H190 C216 0.950 . S
H191 C218 0.950 . S
H192 C221 0.950 . S
H193 C222 0.950 . S
H194 C224 0.950 . S
H195 C225 0.950 . S
C196 H178 0.951 . S
C196 C197 1.365 . S
C196 C198 1.388 . S
C197 C196 1.365 . S
C197 C201 1.386 1_455 S
C198 H179 0.951 . S
C198 C196 1.388 . S
C198 C199 1.379 . S
C199 C198 1.379 . S
C199 C200 1.401 1_455 S
C199 C202 1.498 1_455 S
C200 H180 0.950 . S
C200 C199 1.401 1_655 S
C200 C201 1.374 . S
C201 H181 0.950 . S
C201 C197 1.386 1_655 S
C201 C200 1.374 . S
C202 C199 1.498 1_655 S
C202 C203 1.387 . S
C202 C204 1.376 1_655 S
C203 H182 0.950 . S
C203 C202 1.387 . S
C203 C219 1.377 . S
C204 C202 1.376 1_455 S
C204 C205 1.524 . S
C204 C218 1.377 . S
C205 C204 1.524 . S
C205 C206 1.397 . S
C205 C210 1.363 . S
C206 H183 0.950 . S
C206 C205 1.397 . S
C206 C207 1.334 . S
C207 H184 0.950 . S
C207 C206 1.334 . S
C207 C208 1.287 . S
C208 C207 1.287 . S
C208 C209 1.524 . S
C208 H227 0.913 . S
C209 H185 0.950 . S
C209 C208 1.524 . S
C209 C210 1.415 . S
C210 H186 0.950 . S
C210 C205 1.363 . S
C210 C209 1.415 . S
C211 H187 0.951 . S
C211 C212 1.365 1_655 S
C211 C213 1.388 . S
C212 C211 1.365 1_455 S
C212 C216 1.386 . S
C213 H188 0.951 . S
C213 C211 1.388 . S
C213 C214 1.376 . S
C214 C213 1.376 . S
C214 C215 1.404 1_655 S
C214 C217 1.498 1_655 S
C215 H189 0.950 . S
C215 C214 1.404 1_455 S
C215 C216 1.374 . S
C216 H190 0.950 . S
C216 C212 1.386 . S
C216 C215 1.374 . S
C217 C214 1.498 1_455 S
C217 C218 1.373 . S
C217 C219 1.389 1_455 S
C218 H191 0.950 . S
C218 C204 1.377 . S
C218 C217 1.373 . S
C219 C203 1.377 . S
C219 C217 1.389 1_655 S
C219 C220 1.524 . S
C220 C219 1.524 . S
C220 C221 1.397 . S
C220 C225 1.363 . S
C221 H192 0.950 . S
C221 C220 1.397 . S
C221 C222 1.334 . S
C222 H193 0.950 . S
C222 C221 1.334 . S
C222 C223 1.287 . S
C223 C222 1.287 . S
C223 C224 1.524 . S
C223 H226 0.999 . S
C224 H194 0.950 . S
C224 C223 1.524 . S
C224 C225 1.415 . S
C225 H195 0.950 . S
C225 C220 1.363 . S
C225 C224 1.415 . S
H226 C223 0.999 . S
H227 C208 0.913 . S
C47 C12 1.498 . S
C62 C27 1.495 1_645 S
C97 C13 1.498 1_445 S
C112 C26 1.503 . S
C147 C1 1.498 1_554 S
C162 C0 1.498 1_545 S
C197 C15 1.499 1_455 S
C212 C14 1.499 . S
