# Generated by pormake.
# Topology bnn, (5)-cn, num edge types: 1
# Building blocks:
#     Node 0, Type 0, BuildingBlock: XOMCOT_clean_sbu_0, # of connection points: 5
#     Node 1, Type 0, BuildingBlock: XOMCOT_clean_sbu_0, # of connection points: 5
#     Edge 2, Type (0, 0), BuildingBlock: TEMPAE_clean_linker_10, # of connection points: 2
#     Edge 3, Type (0, 0), BuildingBlock: TEMPAE_clean_linker_10, # of connection points: 2
#     Edge 4, Type (0, 0), BuildingBlock: TEMPAE_clean_linker_10, # of connection points: 2
#     Edge 5, Type (0, 0), BuildingBlock: TEMPAE_clean_linker_10, # of connection points: 2
#     Edge 6, Type (0, 0), BuildingBlock: TEMPAE_clean_linker_10, # of connection points: 2
# Relax obj value: 0.023
# Max RMSD: 0.078
# Mean RMSD: 0.078
data_MOF--net-bnn--node1-XOMCOT_clean_sbu_0--edge1-TEMPAE_clean_linker_10
_symmetry_space_group_name_H-M    P1
_symmetry_Int_Tables_number       1
_symmetry_cell_setting            triclinic
loop_
_symmetry_equiv_pos_as_xyz
'x, y, z'
_cell_length_a     30.02461
_cell_length_b     27.397066
_cell_length_c     17.751275
_cell_angle_alpha  100.99922
_cell_angle_beta   89.356433
_cell_angle_gamma 123.23872
loop_
_atom_site_label
_atom_site_type_symbol
_atom_site_fract_x
_atom_site_fract_y
_atom_site_fract_z
_atom_type_partial_charge
Co0 Co 0.33644 0.70167 0.05062 0.0
C1 C 0.331 0.70739 0.21824 0.0
C2 C 0.34897 0.78837 0.18864 0.0
C3 C 0.34907 0.79525 0.26756 0.0
N4 N 0.33812 0.73354 0.15804 0.0
N5 N 0.33774 0.74432 0.28594 0.0
H6 H 0.32247 0.66295 0.21284 0.0
H7 H 0.35675 0.82129 0.156 0.0
C8 C 0.4336 0.80452 0.99935 0.0
O9 O 0.44526 0.76815 0.95934 0.0
N10 N 0.33433 0.67034 0.9418 0.0
C11 C 0.33404 0.62159 0.90818 0.0
C12 C 0.33307 0.61715 0.82966 0.0
C13 C 0.33174 0.69363 0.88264 0.0
N14 N 0.33173 0.66248 0.81376 0.0
C15 C 0.366 0.62396 0.08179 0.0
C16 C 0.47491 0.70725 0.11771 0.0
C17 C 0.45425 0.64659 0.11132 0.0
C18 C 0.39906 0.60506 0.09591 0.0
C19 C 0.43997 0.72447 0.1043 0.0
N20 N 0.38669 0.68236 0.08053 0.0
H21 H 0.32363 0.59049 0.06842 0.0
H22 H 0.45617 0.7715 0.11288 0.0
H23 H 0.33388 0.59043 0.93717 0.0
H24 H 0.33136 0.73355 0.89014 0.0
O25 O 0.27008 0.62769 0.05613 0.0
O26 O 0.27591 0.70532 0.0249 0.0
O27 O 0.39436 0.78498 0.03996 0.0
C28 C 0.24577 0.65126 0.03618 0.0
H29 H 0.35672 0.83458 0.3083 0.0
H30 H 0.33271 0.58275 0.78731 0.0
H31 H 0.51748 0.74074 0.13205 0.0
H32 H 0.38175 0.55791 0.09205 0.0
Co33 Co 0.66524 0.36548 0.03621 0.0
C34 C 0.65487 0.36219 0.86643 0.0
C35 C 0.58203 0.29691 0.90503 0.0
C36 C 0.57309 0.28954 0.82663 0.0
N37 N 0.63358 0.34173 0.92996 0.0
N38 N 0.61887 0.33074 0.80287 0.0
H39 H 0.69579 0.39783 0.86495 0.0
H40 H 0.55326 0.27024 0.94131 0.0
C41 C 0.6365 0.24093 0.97762 0.0
O42 O 0.6565 0.25703 0.91374 0.0
N43 N 0.69453 0.38812 0.14256 0.0
C44 C 0.74393 0.43425 0.1753 0.0
C45 C 0.74785 0.43515 0.25279 0.0
C46 C 0.66871 0.36236 0.20045 0.0
N47 N 0.7005 0.39016 0.26827 0.0
C48 C 0.76637 0.43772 0.98181 0.0
C49 C 0.81124 0.37837 1.01626 0.0
C50 C 0.84358 0.43266 0.9935 0.0
C51 C 0.82051 0.46198 0.97509 0.0
C52 C 0.75719 0.35596 0.02345 0.0
N53 N 0.73498 0.3852 1.00543 0.0
H54 H 0.75057 0.46338 0.97207 0.0
H55 H 0.73475 0.3177 0.04912 0.0
H56 H 0.77475 0.46565 0.14543 0.0
H57 H 0.6275 0.32432 0.19315 0.0
O58 O 0.67674 0.44306 0.04602 0.0
O59 O 0.60244 0.36341 0.06948 0.0
O60 O 0.63874 0.27936 0.03412 0.0
C61 C 0.62886 0.41974 0.06688 0.0
H62 H 0.536 0.25645 0.78983 0.0
H63 H 0.7822 0.46743 0.29502 0.0
H64 H 0.82841 0.35562 0.03335 0.0
H65 H 0.84471 0.5047 0.95876 0.0
C66 C 0.49705 0.60906 0.1813 0.0
C67 C 0.48924 0.6247 0.11443 0.0
C68 C 0.5227 0.57877 0.18049 0.0
C69 C 0.53961 0.56273 0.11066 0.0
C70 C 0.53283 0.57994 0.04354 0.0
C71 C 0.50789 0.61099 0.04641 0.0
C72 C 0.53005 0.56217 0.25352 0.0
C73 C 0.54971 0.5632 0.96775 0.0
C74 C 0.63948 0.51832 0.10498 0.0
C75 C 0.60566 0.4557 0.08445 0.0
C76 C 0.61848 0.55369 0.11701 0.0
C77 C 0.56232 0.52579 0.10639 0.0
C78 C 0.52792 0.46246 0.0871 0.0
C79 C 0.55004 0.42812 0.07722 0.0
C80 C 0.65643 0.62093 0.13927 0.0
C81 C 0.46784 0.43102 0.07397 0.0
H82 H 0.48172 0.61903 0.23346 0.0
H83 H 0.50077 0.6223 0.99451 0.0
H84 H 0.5046 0.51284 0.24625 0.0
H85 H 0.57226 0.57664 0.26539 0.0
H86 H 0.5192 0.58259 0.30437 0.0
H87 H 0.54312 0.58157 0.9216 0.0
H88 H 0.59275 0.57983 0.97505 0.0
H89 H 0.52667 0.51375 0.94849 0.0
H90 H 0.68256 0.53978 0.11131 0.0
H91 H 0.52384 0.37973 0.06097 0.0
H92 H 0.64465 0.63927 0.19098 0.0
H93 H 0.65421 0.64081 0.0917 0.0
H94 H 0.69863 0.63539 0.15177 0.0
H95 H 0.45307 0.44543 0.12536 0.0
H96 H 0.44661 0.38155 0.06179 0.0
H97 H 0.4572 0.44347 0.02444 0.0
C98 C 0.92508 0.43765 0.94909 0.0
C99 C 0.90226 0.46257 0.99778 0.0
C100 C 0.98107 0.46734 0.95193 0.0
C101 C 1.01455 0.52225 1.00613 0.0
C102 C 0.99134 0.54686 0.05627 0.0
C103 C 0.93543 0.517 0.05082 0.0
C104 C 1.0044 0.44037 0.89656 0.0
C105 C 0.02551 0.60449 0.11606 0.0
C106 C 0.15681 0.57197 0.06663 0.0
C107 C 0.18676 0.61796 0.02729 0.0
C108 C 0.1007 0.54029 0.06004 0.0
C109 C 0.07389 0.55393 1.0113 0.0
C110 C 0.10397 0.59951 0.97007 0.0
C111 C 0.1602 0.63159 0.97941 0.0
C112 C 0.07019 0.49315 0.10654 0.0
C113 C 0.07677 0.61446 0.91631 0.0
H114 H 0.89912 0.39559 0.90795 0.0
H115 H 0.91743 0.53583 0.08874 0.0
H116 H 0.03133 0.47277 0.86186 0.0
H117 H 0.02899 0.43075 0.92914 0.0
H118 H 0.97292 0.39826 0.85663 0.0
H119 H 1.00107 0.61672 0.15195 0.0
H120 H 0.05152 0.60034 0.15467 0.0
H121 H 0.05222 0.64159 0.08738 0.0
H122 H 0.17737 0.56161 0.10405 0.0
H123 H 0.18335 0.66679 0.94839 0.0
H124 H 0.04087 0.44941 0.06762 0.0
H125 H 0.04716 0.50527 0.146 0.0
H126 H 0.09707 0.48777 0.14149 0.0
H127 H 0.04683 0.5735 0.87337 0.0
H128 H 0.10571 0.64856 0.88499 0.0
H129 H 0.05485 0.6317 0.94955 0.0
C130 C 0.44251 0.90184 1.01183 0.0
C131 C 0.46591 0.869 0.99835 0.0
C132 C 0.47164 0.96265 1.00955 0.0
C133 C 0.52606 0.99196 0.99554 0.0
C134 C 0.55029 0.95932 0.98349 0.0
C135 C 0.51967 0.89795 0.98388 0.0
C136 C 0.44378 0.99522 0.02055 0.0
C137 C 0.60854 0.98927 0.97029 0.0
C138 C 0.58563 0.13218 0.91551 0.0
C139 C 0.6101 0.17769 0.98274 0.0
C140 C 0.55838 0.07166 0.91888 0.0
C141 C 0.55685 0.05622 0.99104 0.0
C142 C 0.58278 0.10213 0.05896 0.0
C143 C 0.6084 0.16233 0.05415 0.0
C144 C 0.52998 1.0242 0.84539 0.0
C145 C 0.58324 0.08763 0.1367 0.0
H146 H 0.40082 0.87955 0.02245 0.0
H147 H 0.53802 0.87284 0.97404 0.0
H148 H 0.46462 0.03383 0.07066 0.0
H149 H 0.44544 1.01323 0.96889 0.0
H150 H 0.40114 0.96581 0.03017 0.0
H151 H 0.62215 0.95855 0.96622 0.0
H152 H 0.61509 1.00572 0.91613 0.0
H153 H 0.63392 1.02874 1.01812 0.0
H154 H 0.58643 0.14384 0.86025 0.0
H155 H 0.62762 0.19745 0.10617 0.0
H156 H 0.4865 0.99526 0.85059 0.0
H157 H 0.54535 0.99506 0.83575 0.0
H158 H 0.53509 0.04364 0.79395 0.0
H159 H 0.5418 0.06218 0.15258 0.0
H160 H 0.60823 0.12849 0.18304 0.0
H161 H 0.59877 0.05881 0.13402 0.0
C162 C 0.30235 0.69749 0.7191 0.0
C163 C 0.3322 0.67558 0.73884 0.0
C164 C 0.30142 0.70864 0.6452 0.0
C165 C 0.33198 0.69878 0.59049 0.0
C166 C 0.36286 0.67757 0.61076 0.0
C167 C 0.36219 0.66575 0.6844 0.0
C168 C 0.26733 0.7303 0.62536 0.0
C169 C 0.39689 0.6677 0.55481 0.0
C170 C 0.29837 0.6759 0.37528 0.0
C171 C 0.33555 0.73299 0.36232 0.0
C172 C 0.29584 0.66445 0.44962 0.0
C173 C 0.33213 0.71097 0.51215 0.0
C174 C 0.36986 0.76869 0.49924 0.0
C175 C 0.37077 0.7791 0.42463 0.0
C176 C 0.25446 0.60257 0.46125 0.0
C177 C 0.40997 0.81917 0.56394 0.0
H178 H 0.2788 0.70458 0.76097 0.0
H179 H 0.38587 0.6496 0.70001 0.0
H180 H 0.29282 0.77438 0.60976 0.0
H181 H 0.23793 0.69869 0.57429 0.0
H182 H 0.24522 0.73476 0.67391 0.0
H183 H 0.41939 0.65216 0.58011 0.0
H184 H 0.37127 0.63397 0.50202 0.0
H185 H 0.42599 0.70988 0.53668 0.0
H186 H 0.27075 0.64042 0.32731 0.0
H187 H 0.39997 0.82308 0.41454 0.0
H188 H 0.2297 0.60517 0.50671 0.0
H189 H 0.27463 0.58271 0.48133 0.0
H190 H 0.22757 0.57216 0.40745 0.0
H191 H 0.38885 0.82709 0.61148 0.0
H192 H 0.43628 0.86158 0.54448 0.0
H193 H 0.43548 0.80684 0.58811 0.0
C194 C 0.72263 0.37941 0.3943 0.0
C195 C 0.68632 0.37732 0.34289 0.0
C196 C 0.71035 0.36936 0.46858 0.0
C197 C 0.66117 0.35865 0.49253 0.0
C198 C 0.62427 0.35636 0.44058 0.0
C199 C 0.63704 0.36496 0.36587 0.0
C200 C 0.75012 0.37059 0.52156 0.0
C201 C 0.57201 0.34645 0.4646 0.0
C202 C 0.60934 0.28729 0.6647 0.0
C203 C 0.62838 0.33764 0.72498 0.0
C204 C 0.61992 0.2934 0.58867 0.0
C205 C 0.64899 0.35123 0.57255 0.0
C206 C 0.66734 0.40217 0.6332 0.0
C207 C 0.65744 0.39475 0.70898 0.0
C208 C 0.60096 0.23818 0.52596 0.0
C209 C 0.69735 0.46445 0.61803 0.0
H210 H 0.76051 0.38851 0.37591 0.0
H211 H 0.60936 0.3641 0.32613 0.0
H212 H 0.76492 0.40799 0.57284 0.0
H213 H 0.73036 0.32854 0.54273 0.0
H214 H 0.7851 0.37612 0.49253 0.0
H215 H 0.54763 0.34564 0.41715 0.0
H216 H 0.54804 0.30355 0.48351 0.0
H217 H 0.58014 0.38259 0.51458 0.0
H218 H 0.5874 0.24323 0.67762 0.0
H219 H 0.67169 0.43349 0.75583 0.0
H220 H 0.63578 0.24149 0.49898 0.0
H221 H 0.5741 0.23467 0.47983 0.0
H222 H 0.57915 0.19654 0.54825 0.0
H223 H 0.73554 0.47529 0.59513 0.0
H224 H 0.70658 0.49899 0.67095 0.0
H225 H 0.67338 0.46686 0.57351 0.0
loop_
_geom_bond_atom_site_label_1
_geom_bond_atom_site_label_2
_geom_bond_distance
_geom_bond_site_symmetry_2
_ccdc_geom_bond_type
Co0 N4 2.148 . S
Co0 N10 2.128 1_554 S
Co0 N20 2.194 . S
Co0 O25 2.351 . S
Co0 O26 2.155 . S
Co0 O27 2.096 . S
C1 N4 1.301 . S
C1 N5 1.328 . S
C1 H6 0.930 . S
C2 C3 1.333 . S
C2 N4 1.317 . S
C2 H7 0.930 . S
C3 C2 1.333 . S
C3 N5 1.350 . S
C3 H29 0.931 . S
N4 Co0 2.148 . S
N4 C1 1.301 . S
N4 C2 1.317 . S
N5 C1 1.328 . S
N5 C3 1.350 . S
H6 C1 0.930 . S
H7 C2 0.930 . S
C8 O9 1.224 . S
C8 O27 1.247 . S
O9 C8 1.224 . S
N10 Co0 2.128 1_556 S
N10 C11 1.355 . S
N10 C13 1.311 . S
C11 N10 1.355 . S
C11 C12 1.363 . S
C11 H23 0.929 . S
C12 C11 1.363 . S
C12 N14 1.375 . S
C12 H30 0.931 . S
C13 N10 1.311 . S
C13 N14 1.347 . S
C13 H24 0.929 . S
N14 C12 1.375 . S
N14 C13 1.347 . S
C15 C18 1.365 . S
C15 N20 1.328 . S
C15 H21 0.929 . S
C16 C17 1.362 . S
C16 C19 1.378 . S
C16 H31 0.929 . S
C17 C16 1.362 . S
C17 C18 1.366 . S
C18 C15 1.365 . S
C18 C17 1.366 . S
C18 H32 0.930 . S
C19 C16 1.378 . S
C19 N20 1.315 . S
C19 H22 0.930 . S
N20 Co0 2.194 . S
N20 C15 1.328 . S
N20 C19 1.315 . S
H21 C15 0.929 . S
H22 C19 0.930 . S
H23 C11 0.929 . S
H24 C13 0.929 . S
O25 Co0 2.351 . S
O25 C28 1.244 . S
O26 Co0 2.155 . S
O26 C28 1.240 . S
O27 Co0 2.096 . S
O27 C8 1.247 . S
C28 O25 1.244 . S
C28 O26 1.240 . S
H29 C3 0.931 . S
H30 C12 0.931 . S
H31 C16 0.929 . S
H32 C18 0.930 . S
Co33 N37 2.148 1_554 S
Co33 N43 2.128 . S
Co33 N53 2.194 . S
Co33 O58 2.351 . S
Co33 O59 2.155 . S
Co33 O60 2.096 . S
C34 N37 1.301 . S
C34 N38 1.328 . S
C34 H39 0.930 . S
C35 C36 1.333 . S
C35 N37 1.317 . S
C35 H40 0.930 . S
C36 C35 1.333 . S
C36 N38 1.350 . S
C36 H62 0.931 . S
N37 Co33 2.148 1_556 S
N37 C34 1.301 . S
N37 C35 1.317 . S
N38 C34 1.328 . S
N38 C36 1.350 . S
H39 C34 0.930 . S
H40 C35 0.930 . S
C41 O42 1.224 . S
C41 O60 1.247 . S
O42 C41 1.224 . S
N43 Co33 2.128 . S
N43 C44 1.355 . S
N43 C46 1.311 . S
C44 N43 1.355 . S
C44 C45 1.363 . S
C44 H56 0.929 . S
C45 C44 1.363 . S
C45 N47 1.375 . S
C45 H63 0.931 . S
C46 N43 1.311 . S
C46 N47 1.347 . S
C46 H57 0.929 . S
N47 C45 1.375 . S
N47 C46 1.347 . S
C48 C51 1.365 . S
C48 N53 1.328 . S
C48 H54 0.929 1_554 S
C49 C50 1.362 . S
C49 C52 1.378 . S
C49 H64 0.929 . S
C50 C49 1.362 . S
C50 C51 1.366 . S
C51 C48 1.365 . S
C51 C50 1.366 . S
C51 H65 0.930 . S
C52 C49 1.378 . S
C52 N53 1.315 . S
C52 H55 0.930 . S
N53 Co33 2.194 . S
N53 C48 1.328 . S
N53 C52 1.315 . S
H54 C48 0.929 1_556 S
H55 C52 0.930 . S
H56 C44 0.929 . S
H57 C46 0.929 . S
O58 Co33 2.351 . S
O58 C61 1.244 . S
O59 Co33 2.155 . S
O59 C61 1.240 . S
O60 Co33 2.096 . S
O60 C41 1.247 . S
C61 O58 1.244 . S
C61 O59 1.240 . S
H62 C36 0.931 . S
H63 C45 0.931 . S
H64 C49 0.929 . S
H65 C51 0.930 . S
C66 C67 1.391 . S
C66 C68 1.394 . S
C66 H82 0.931 . S
C67 C66 1.391 . S
C67 C71 1.376 1_554 S
C68 C66 1.394 . S
C68 C69 1.369 1_554 S
C68 C72 1.531 . S
C69 C68 1.369 1_556 S
C69 C70 1.410 . S
C69 C77 1.503 1_556 S
C70 C69 1.410 . S
C70 C71 1.392 . S
C70 C73 1.511 . S
C71 C67 1.376 1_556 S
C71 C70 1.392 . S
C71 H83 0.929 . S
C72 C68 1.531 . S
C72 H84 0.960 . S
C72 H85 0.962 . S
C72 H86 0.960 . S
C73 C70 1.511 . S
C73 H87 0.961 . S
C73 H88 0.961 . S
C73 H89 0.961 . S
C74 C75 1.370 . S
C74 C76 1.363 . S
C74 H90 0.931 . S
C75 C74 1.370 . S
C75 C79 1.408 1_554 S
C76 C74 1.363 . S
C76 C77 1.370 . S
C76 C80 1.524 . S
C77 C69 1.503 1_554 S
C77 C76 1.370 . S
C77 C78 1.403 1_554 S
C78 C77 1.403 1_556 S
C78 C79 1.404 . S
C78 C81 1.539 . S
C79 C75 1.408 1_556 S
C79 C78 1.404 . S
C79 H91 0.930 . S
C80 C76 1.524 . S
C80 H92 0.956 . S
C80 H93 0.961 . S
C80 H94 0.961 . S
C81 C78 1.539 . S
C81 H95 0.958 . S
C81 H96 0.961 . S
C81 H97 0.960 . S
H82 C66 0.931 . S
H83 C71 0.929 . S
H84 C72 0.960 . S
H85 C72 0.962 . S
H86 C72 0.960 . S
H87 C73 0.961 . S
H88 C73 0.961 . S
H89 C73 0.961 . S
H90 C74 0.931 . S
H91 C79 0.930 . S
H92 C80 0.956 . S
H93 C80 0.961 . S
H94 C80 0.961 . S
H95 C81 0.958 . S
H96 C81 0.961 . S
H97 C81 0.960 . S
C98 C99 1.391 . S
C98 C100 1.394 . S
C98 H114 0.931 . S
C99 C98 1.391 . S
C99 C103 1.376 . S
C100 C98 1.394 . S
C100 C101 1.369 . S
C100 C104 1.531 . S
C101 C100 1.369 . S
C101 C102 1.410 . S
C101 C109 1.503 1_655 S
C102 C101 1.410 . S
C102 C103 1.392 . S
C102 C105 1.511 1_654 S
C103 C99 1.376 . S
C103 C102 1.392 . S
C103 H115 0.929 . S
C104 C100 1.531 . S
C104 H116 0.967 1_655 S
C104 H117 0.962 1_655 S
C104 H118 0.960 . S
C105 C102 1.511 1_456 S
C105 H119 0.943 1_456 S
C105 H120 0.978 1_556 S
C105 H121 0.962 . S
C106 C107 1.370 . S
C106 C108 1.363 . S
C106 H122 0.931 . S
C107 C106 1.370 . S
C107 C111 1.408 1_554 S
C108 C106 1.363 . S
C108 C109 1.370 . S
C108 C112 1.524 . S
C109 C101 1.503 1_455 S
C109 C108 1.370 . S
C109 C110 1.403 1_554 S
C110 C109 1.403 1_556 S
C110 C111 1.404 . S
C110 C113 1.539 . S
C111 C107 1.408 1_556 S
C111 C110 1.404 . S
C111 H123 0.930 . S
C112 C108 1.524 . S
C112 H124 0.956 . S
C112 H125 0.961 . S
C112 H126 0.961 . S
C113 C110 1.539 . S
C113 H127 0.958 . S
C113 H128 0.961 . S
C113 H129 0.960 . S
H114 C98 0.931 . S
H115 C103 0.929 . S
H116 C104 0.967 1_455 S
H117 C104 0.962 1_455 S
H118 C104 0.960 . S
H119 C105 0.943 1_654 S
H120 C105 0.978 1_554 S
H121 C105 0.962 . S
H122 C106 0.931 . S
H123 C111 0.930 . S
H124 C112 0.956 . S
H125 C112 0.961 . S
H126 C112 0.961 . S
H127 C113 0.958 . S
H128 C113 0.961 . S
H129 C113 0.960 . S
C130 C131 1.391 . S
C130 C132 1.394 . S
C130 H146 0.931 . S
C131 C130 1.391 . S
C131 C135 1.376 1_554 S
C132 C130 1.394 . S
C132 C133 1.369 . S
C132 C136 1.531 . S
C133 C132 1.369 . S
C133 C134 1.410 1_554 S
C133 C141 1.503 1_565 S
C134 C133 1.410 1_556 S
C134 C135 1.392 . S
C134 C137 1.511 . S
C135 C131 1.376 1_556 S
C135 C134 1.392 . S
C135 H147 0.929 . S
C136 C132 1.531 . S
C136 H148 0.960 1_565 S
C136 H149 0.962 . S
C136 H150 0.960 . S
C137 C134 1.511 . S
C137 H151 0.961 . S
C137 H152 0.961 . S
C137 H153 0.961 . S
C138 C139 1.370 1_556 S
C138 C140 1.363 . S
C138 H154 0.931 . S
C139 C138 1.370 1_554 S
C139 C143 1.408 . S
C140 C138 1.363 . S
C140 C141 1.370 1_556 S
C140 C144 1.524 . S
C141 C133 1.503 1_545 S
C141 C140 1.370 1_554 S
C141 C142 1.403 . S
C142 C141 1.403 . S
C142 C143 1.404 . S
C142 C145 1.539 . S
C143 C139 1.408 . S
C143 C142 1.404 . S
C143 H155 0.930 . S
C144 C140 1.524 . S
C144 H156 0.956 1_545 S
C144 H157 0.961 1_545 S
C144 H158 0.961 . S
C145 C142 1.539 . S
C145 H159 0.958 . S
C145 H160 0.961 . S
C145 H161 0.960 . S
H146 C130 0.931 . S
H147 C135 0.929 . S
H148 C136 0.960 1_545 S
H149 C136 0.962 . S
H150 C136 0.960 . S
H151 C137 0.961 . S
H152 C137 0.961 . S
H153 C137 0.961 . S
H154 C138 0.931 . S
H155 C143 0.930 . S
H156 C144 0.956 1_565 S
H157 C144 0.961 1_565 S
H158 C144 0.961 . S
H159 C145 0.958 . S
H160 C145 0.961 . S
H161 C145 0.960 . S
C162 C163 1.391 . S
C162 C164 1.394 . S
C162 H178 0.931 . S
C163 C162 1.391 . S
C163 C167 1.376 . S
C164 C162 1.394 . S
C164 C165 1.369 . S
C164 C168 1.531 . S
C165 C164 1.369 . S
C165 C166 1.410 . S
C165 C173 1.503 . S
C166 C165 1.410 . S
C166 C167 1.392 . S
C166 C169 1.511 . S
C167 C163 1.376 . S
C167 C166 1.392 . S
C167 H179 0.929 . S
C168 C164 1.531 . S
C168 H180 0.960 . S
C168 H181 0.962 . S
C168 H182 0.960 . S
C169 C166 1.511 . S
C169 H183 0.961 . S
C169 H184 0.961 . S
C169 H185 0.961 . S
C170 C171 1.370 . S
C170 C172 1.363 . S
C170 H186 0.931 . S
C171 C170 1.370 . S
C171 C175 1.408 . S
C172 C170 1.363 . S
C172 C173 1.370 . S
C172 C176 1.524 . S
C173 C165 1.503 . S
C173 C172 1.370 . S
C173 C174 1.403 . S
C174 C173 1.403 . S
C174 C175 1.404 . S
C174 C177 1.539 . S
C175 C171 1.408 . S
C175 C174 1.404 . S
C175 H187 0.930 . S
C176 C172 1.524 . S
C176 H188 0.956 . S
C176 H189 0.961 . S
C176 H190 0.961 . S
C177 C174 1.539 . S
C177 H191 0.958 . S
C177 H192 0.961 . S
C177 H193 0.960 . S
H178 C162 0.931 . S
H179 C167 0.929 . S
H180 C168 0.960 . S
H181 C168 0.962 . S
H182 C168 0.960 . S
H183 C169 0.961 . S
H184 C169 0.961 . S
H185 C169 0.961 . S
H186 C170 0.931 . S
H187 C175 0.930 . S
H188 C176 0.956 . S
H189 C176 0.961 . S
H190 C176 0.961 . S
H191 C177 0.958 . S
H192 C177 0.961 . S
H193 C177 0.960 . S
C194 C195 1.391 . S
C194 C196 1.394 . S
C194 H210 0.931 . S
C195 C194 1.391 . S
C195 C199 1.376 . S
C196 C194 1.394 . S
C196 C197 1.369 . S
C196 C200 1.531 . S
C197 C196 1.369 . S
C197 C198 1.410 . S
C197 C205 1.503 . S
C198 C197 1.410 . S
C198 C199 1.392 . S
C198 C201 1.511 . S
C199 C195 1.376 . S
C199 C198 1.392 . S
C199 H211 0.929 . S
C200 C196 1.531 . S
C200 H212 0.960 . S
C200 H213 0.962 . S
C200 H214 0.960 . S
C201 C198 1.511 . S
C201 H215 0.961 . S
C201 H216 0.961 . S
C201 H217 0.961 . S
C202 C203 1.370 . S
C202 C204 1.363 . S
C202 H218 0.931 . S
C203 C202 1.370 . S
C203 C207 1.408 . S
C204 C202 1.363 . S
C204 C205 1.370 . S
C204 C208 1.524 . S
C205 C197 1.503 . S
C205 C204 1.370 . S
C205 C206 1.403 . S
C206 C205 1.403 . S
C206 C207 1.404 . S
C206 C209 1.539 . S
C207 C203 1.408 . S
C207 C206 1.404 . S
C207 H219 0.930 . S
C208 C204 1.524 . S
C208 H220 0.956 . S
C208 H221 0.961 . S
C208 H222 0.961 . S
C209 C206 1.539 . S
C209 H223 0.958 . S
C209 H224 0.961 . S
C209 H225 0.960 . S
H210 C194 0.931 . S
H211 C199 0.929 . S
H212 C200 0.960 . S
H213 C200 0.962 . S
H214 C200 0.960 . S
H215 C201 0.961 . S
H216 C201 0.961 . S
H217 C201 0.961 . S
H218 C202 0.931 . S
H219 C207 0.930 . S
H220 C208 0.956 . S
H221 C208 0.961 . S
H222 C208 0.961 . S
H223 C209 0.958 . S
H224 C209 0.961 . S
H225 C209 0.960 . S
C67 C17 1.501 . S
C75 C61 1.500 . S
C99 C50 1.485 . S
C107 C28 1.497 . S
C131 C8 1.496 . S
C139 C41 1.499 . S
C163 N14 1.484 . S
C171 N5 1.461 . S
C195 N47 1.439 . S
C203 N38 1.478 . S
