# Generated by pormake.
# Topology pcu, (6)-cn, num edge types: 1
# Building blocks:
#     Node 0, Type 0, BuildingBlock: KUMJIN_clean_sbu_0, # of connection points: 6
#     Edge 1, Type (0, 0), BuildingBlock: XIVTED_clean_linker_0, # of connection points: 2
#     Edge 2, Type (0, 0), BuildingBlock: XIVTED_clean_linker_0, # of connection points: 2
#     Edge 3, Type (0, 0), BuildingBlock: XIVTED_clean_linker_0, # of connection points: 2
# Relax obj value: 0.000
# Max RMSD: 0.000
# Mean RMSD: 0.000
data_MOF--net-pcu--node1-KUMJIN_clean_sbu_0--edge1-XIVTED_clean_linker_0
_symmetry_space_group_name_H-M    P1
_symmetry_Int_Tables_number       1
_symmetry_cell_setting            triclinic
loop_
_symmetry_equiv_pos_as_xyz
'x, y, z'
_cell_length_a     14.140715
_cell_length_b     24.54182
_cell_length_c     15.436564
_cell_angle_alpha  115.66428
_cell_angle_beta   74.900349
_cell_angle_gamma 116.03948
loop_
_atom_site_label
_atom_site_type_symbol
_atom_site_fract_x
_atom_site_fract_y
_atom_site_fract_z
_atom_type_partial_charge
Eu0 Eu 0.09869 0.08956 0.03389 0.0
C1 C 0.77186 0.81919 0.80381 0.0
C2 C 0.60359 0.81665 0.89566 0.0
C3 C 0.61034 0.75785 0.72209 0.0
C4 C 0.71451 0.83841 0.89104 0.0
C5 C 0.7203 0.77757 0.71859 0.0
C6 C 0.5521 0.77742 0.81047 0.0
C7 C 0.8888 0.77404 0.63432 0.0
N8 N 0.87776 0.83878 0.80303 0.0
C9 C 0.93623 0.81515 0.72081 0.0
C10 C 0.78051 0.75575 0.63292 0.0
Eu11 Eu 0.95312 0.91007 0.95117 0.0
N12 N 0.76664 0.87589 0.97204 0.0
C13 C 0.71194 0.88962 0.06076 0.0
C14 C 0.54759 0.83366 0.98604 0.0
C15 C 0.60193 0.86956 0.06903 0.0
H16 H 1.02008 0.82951 0.72162 0.0
H17 H 0.5592 0.88199 0.13941 0.0
H18 H 0.46705 0.76073 0.81247 0.0
H19 H 0.93574 0.75654 0.56884 0.0
H20 H 0.75292 0.91756 0.12547 0.0
H21 H 0.49258 0.11777 0.84551 0.0
H22 H 0.46238 0.81813 -0.00734 0.0
H23 H 0.03179 0.17004 0.2635 0.0
H24 H 0.29886 0.08217 0.85952 0.0
H25 H 0.11618 0.24296 0.41627 0.0
H26 H 0.56935 0.72633 0.65725 0.0
H27 H 0.58946 0.18159 0.99223 0.0
H28 H 0.58484 0.23891 0.17243 0.0
H29 H 0.74387 0.72373 0.5659 0.0
H30 H 0.48257 0.27323 0.3277 0.0
N31 N 0.28518 0.12378 0.01295 0.0
C32 C 0.33986 0.11008 0.92421 0.0
C33 C 0.50425 0.16605 -0.00112 0.0
C34 C 0.44826 0.18301 0.08928 0.0
C35 C 0.44987 0.13017 0.9159 0.0
C36 C 0.33734 0.16123 0.09394 0.0
H37 H 0.30806 0.27578 0.41913 0.0
N38 N 0.1741 0.1608 0.18202 0.0
C39 C 0.1631 0.22549 0.35077 0.0
C40 C 0.28001 0.1804 0.1812 0.0
C41 C 0.11564 0.1844 0.26428 0.0
C42 C 0.2714 0.24378 0.35211 0.0
C43 C 0.3316 0.222 0.26642 0.0
O44 O 0.04382 0.16819 0.07127 0.0
O45 O 0.9458 0.00707 -0.00721 0.0
O46 O 0.96024 0.94214 0.83217 0.0
O47 O 0.10626 0.04045 0.8689 0.0
O48 O 0.93661 0.08837 0.10919 0.0
O49 O 0.15581 0.14999 0.94679 0.0
O50 O 1.00795 0.83143 0.91387 0.0
O51 O 0.10589 0.99254 0.99211 0.0
O52 O 0.09167 0.05745 0.1528 0.0
O53 O 0.94553 0.9592 0.11615 0.0
O54 O 0.1153 0.91126 0.87597 0.0
O55 O 0.89597 0.8497 0.03835 0.0
C56 C 0.88191 0.03122 0.05296 0.0
C57 C 0.16305 0.25834 0.0295 0.0
C58 C 0.17458 0.36426 0.04376 0.0
C59 C 0.12063 0.29623 0.0167 0.0
C60 C 0.27184 0.39357 0.08389 0.0
C61 C 0.26002 0.28856 0.06958 0.0
C62 C 0.31402 0.35587 0.09658 0.0
C63 C 0.03506 0.99134 0.80946 0.0
C64 C 0.10412 0.18767 0.00232 0.0
C65 C 0.44156 0.24174 0.26287 0.0
C66 C 0.49979 0.22221 0.17446 0.0
C67 C 0.16994 0.96847 0.93211 0.0
C68 C 0.88866 0.74132 0.95572 0.0
C69 C 0.93108 0.70343 0.96852 0.0
C70 C 0.87711 0.63541 0.94149 0.0
C71 C 0.77983 0.6061 0.9014 0.0
C72 C 0.79167 0.71111 0.91568 0.0
C73 C 0.73766 0.6438 0.88871 0.0
C74 C 1.01682 0.00826 0.17554 0.0
C75 C 0.94764 0.81199 0.98285 0.0
H76 H 0.04486 0.27273 0.987 0.0
H77 H 0.31614 0.44557 0.10431 0.0
H78 H 0.29394 0.26023 0.07993 0.0
H79 H 0.38901 0.37892 0.12727 0.0
H80 H 1.00687 0.72693 -0.00181 0.0
H81 H 0.73552 0.5541 0.881 0.0
H82 H 0.75776 0.73944 0.90533 0.0
H83 H 0.66266 0.62076 0.85804 0.0
H84 H 0.86811 0.92323 0.25979 0.0
H85 H 0.18375 0.0764 0.72523 0.0
H86 H 0.16449 0.08856 0.30739 0.0
H87 H 0.88749 0.91098 0.67753 0.0
H88 H 0.17836 0.08138 0.57202 0.0
H89 H 0.87352 0.91824 0.41299 0.0
C90 C 0.934 0.95877 0.30258 0.0
C91 C 1.01559 0.00667 0.27067 0.0
C92 C 0.11479 0.0438 0.59491 0.0
C93 C 1.02257 0.00093 0.44613 0.0
C94 C 0.11789 0.04084 0.68241 0.0
C95 C 0.03632 0.99291 0.71431 0.0
C96 C 0.02937 0.99865 0.53883 0.0
C97 C 0.95286 0.94831 0.65562 0.0
C98 C 0.93711 0.9558 0.39008 0.0
C99 C 0.09909 0.05124 0.32932 0.0
N100 N 0.95151 0.95235 0.57094 0.0
N101 N 0.10045 0.0472 0.41399 0.0
H102 H 0.2539 0.02709 0.10678 0.0
H103 H 0.79782 0.97255 0.87839 0.0
H104 H 0.3272 0.93795 0.80166 0.0
H105 H 0.72481 0.06198 0.18349 0.0
H106 H 0.62541 0.95812 0.8489 0.0
H107 H 0.42635 0.0416 0.13632 0.0
C108 C 0.30699 0.01157 0.04579 0.0
C109 C 0.27727 0.98282 0.95133 0.0
C110 C 0.64657 0.98055 0.92243 0.0
C111 C 0.47383 0.99695 0.98481 0.0
C112 C 0.7448 0.98816 0.93938 0.0
C113 C 0.7746 0.01697 0.03383 0.0
C114 C 0.57806 0.0029 0.0004 0.0
C115 C 0.70405 0.03859 0.10973 0.0
C116 C 0.40524 0.01922 0.06277 0.0
C117 C 0.34791 0.9613 0.87544 0.0
N118 N 0.60904 0.03102 0.09146 0.0
N119 N 0.44293 0.9689 0.89373 0.0
H120 H 0.87881 0.51466 0.81886 0.0
H121 H 0.17284 0.48499 0.16642 0.0
H122 H 0.97733 0.66398 0.09508 0.0
H123 H 0.0744 0.33569 0.89016 0.0
H124 H 0.10223 0.5513 0.14136 0.0
H125 H 0.94942 0.44835 0.84391 0.0
C126 C 0.91483 0.53344 0.88504 0.0
C127 C 0.92178 0.59506 0.95506 0.0
C128 C 0.096 0.50403 0.08619 0.0
C129 C 1.00391 0.51939 0.98386 0.0
C130 C 0.13684 0.46622 0.10022 0.0
C131 C 0.12991 0.4046 0.03019 0.0
C132 C 0.04778 0.48028 0.00139 0.0
C133 C 0.08056 0.38249 0.94665 0.0
C134 C 0.95566 0.49562 0.89907 0.0
C135 C 0.97115 0.61718 0.03859 0.0
N136 N 0.04165 0.42031 0.93454 0.0
N137 N 1.01006 0.57936 0.0507 0.0
loop_
_geom_bond_atom_site_label_1
_geom_bond_atom_site_label_2
_geom_bond_distance
_geom_bond_site_symmetry_2
_ccdc_geom_bond_type
Eu0 N31 2.657 1_554 S
Eu0 N38 2.609 . S
Eu0 O44 2.558 . S
Eu0 O45 2.612 1_444 S
Eu0 O47 2.339 1_554 S
Eu0 O48 2.563 1_455 S
Eu0 O49 2.419 . S
Eu0 O51 2.380 . S
Eu0 O52 2.432 1_455 S
Eu0 C64 2.848 . S
C1 C4 1.429 . S
C1 C5 1.411 . S
C1 N8 1.377 . S
C2 C4 1.420 . S
C2 C6 1.423 . S
C2 C14 1.392 1_556 S
C3 C5 1.420 . S
C3 C6 1.351 . S
C3 H26 0.931 . S
C4 C1 1.429 . S
C4 C2 1.420 . S
C4 N12 1.362 1_556 S
C5 C1 1.411 . S
C5 C3 1.420 . S
C5 C10 1.395 . S
C6 C2 1.423 . S
C6 C3 1.351 . S
C6 H18 0.930 . S
C7 C9 1.400 . S
C7 C10 1.386 . S
C7 H19 0.930 . S
N8 C1 1.377 . S
N8 C9 1.321 . S
N8 Eu11 2.609 . S
C9 C7 1.400 . S
C9 N8 1.321 . S
C9 H16 0.930 . S
C10 C5 1.395 . S
C10 C7 1.386 . S
C10 H29 0.930 . S
Eu11 N8 2.609 . S
Eu11 N12 2.657 1_556 S
Eu11 O45 2.380 . S
Eu11 O46 2.432 1_655 S
Eu11 O50 2.558 . S
Eu11 O51 2.612 1_666 S
Eu11 O53 2.339 1_556 S
Eu11 O54 2.563 1_655 S
Eu11 O55 2.419 . S
Eu11 C75 2.848 . S
N12 C4 1.362 1_554 S
N12 Eu11 2.657 1_554 S
N12 C13 1.334 . S
C13 N12 1.334 . S
C13 C15 1.413 . S
C13 H20 0.929 . S
C14 C2 1.392 1_554 S
C14 C15 1.367 . S
C14 H22 0.930 . S
C15 C13 1.413 . S
C15 C14 1.367 . S
C15 H17 0.930 . S
H16 C9 0.930 . S
H17 C15 0.930 . S
H18 C6 0.930 . S
H19 C7 0.930 . S
H20 C13 0.929 . S
H21 C35 0.930 . S
H22 C14 0.930 . S
H23 C41 0.930 . S
H24 C32 0.929 . S
H25 C39 0.930 . S
H26 C3 0.931 . S
H27 C33 0.930 . S
H28 C66 0.930 . S
H29 C10 0.930 . S
H30 C65 0.931 . S
N31 Eu0 2.657 1_556 S
N31 C32 1.334 . S
N31 C36 1.362 1_556 S
C32 H24 0.929 . S
C32 N31 1.334 . S
C32 C35 1.413 . S
C33 H27 0.930 . S
C33 C34 1.392 1_556 S
C33 C35 1.367 . S
C34 C33 1.392 1_554 S
C34 C36 1.420 . S
C34 C66 1.423 . S
C35 H21 0.930 . S
C35 C32 1.413 . S
C35 C33 1.367 . S
C36 N31 1.362 1_554 S
C36 C34 1.420 . S
C36 C40 1.429 . S
H37 C42 0.930 . S
N38 Eu0 2.609 . S
N38 C40 1.377 . S
N38 C41 1.321 . S
C39 H25 0.930 . S
C39 C41 1.400 . S
C39 C42 1.386 . S
C40 C36 1.429 . S
C40 N38 1.377 . S
C40 C43 1.411 . S
C41 H23 0.930 . S
C41 N38 1.321 . S
C41 C39 1.400 . S
C42 H37 0.930 . S
C42 C39 1.386 . S
C42 C43 1.395 . S
C43 C40 1.411 . S
C43 C42 1.395 . S
C43 C65 1.420 . S
O44 Eu0 2.558 . S
O44 C64 1.257 . S
O45 Eu0 2.612 1_666 S
O45 Eu11 2.380 . S
O45 C56 1.276 1_566 S
O46 Eu11 2.432 1_455 S
O46 C63 1.264 . S
O47 Eu0 2.339 1_556 S
O47 C63 1.254 1_545 S
O48 Eu0 2.563 1_655 S
O48 C56 1.235 . S
O49 Eu0 2.419 . S
O49 C64 1.249 . S
O50 Eu11 2.558 . S
O50 C75 1.257 . S
O51 Eu0 2.380 . S
O51 Eu11 2.612 1_444 S
O51 C67 1.276 1_544 S
O52 Eu0 2.432 1_655 S
O52 C74 1.264 . S
O53 Eu11 2.339 1_554 S
O53 C74 1.254 1_565 S
O54 Eu11 2.563 1_455 S
O54 C67 1.235 . S
O55 Eu11 2.419 . S
O55 C75 1.249 . S
C56 O45 1.276 1_544 S
C56 O48 1.235 . S
C57 C59 1.393 . S
C57 C61 1.395 . S
C57 C64 1.492 . S
C58 C59 1.392 . S
C58 C60 1.386 . S
C59 C57 1.393 . S
C59 C58 1.392 . S
C59 H76 0.930 1_554 S
C60 C58 1.386 . S
C60 C62 1.395 . S
C60 H77 0.930 . S
C61 C57 1.395 . S
C61 C62 1.379 . S
C61 H78 0.930 . S
C62 C60 1.395 . S
C62 C61 1.379 . S
C62 H79 0.930 . S
C63 O46 1.264 . S
C63 O47 1.254 1_565 S
C64 Eu0 2.848 . S
C64 O44 1.257 . S
C64 O49 1.249 . S
C64 C57 1.492 . S
C65 H30 0.931 . S
C65 C43 1.420 . S
C65 C66 1.351 . S
C66 H28 0.930 . S
C66 C34 1.423 . S
C66 C65 1.351 . S
C67 O51 1.276 1_566 S
C67 O54 1.235 . S
C68 C69 1.393 . S
C68 C72 1.395 . S
C68 C75 1.492 . S
C69 C68 1.393 . S
C69 C70 1.392 . S
C69 H80 0.930 1_556 S
C70 C69 1.392 . S
C70 C71 1.386 . S
C71 C70 1.386 . S
C71 C73 1.395 . S
C71 H81 0.930 . S
C72 C68 1.395 . S
C72 C73 1.379 . S
C72 H82 0.930 . S
C73 C71 1.395 . S
C73 C72 1.379 . S
C73 H83 0.930 . S
C74 O52 1.264 . S
C74 O53 1.254 1_545 S
C75 Eu11 2.848 . S
C75 O50 1.257 . S
C75 O55 1.249 . S
C75 C68 1.492 . S
H76 C59 0.930 1_556 S
H77 C60 0.930 . S
H78 C61 0.930 . S
H79 C62 0.930 . S
H80 C69 0.930 1_554 S
H81 C71 0.930 . S
H82 C72 0.930 . S
H83 C73 0.930 . S
H84 C90 0.930 . S
H85 C94 0.930 . S
H86 C99 0.929 . S
H87 C97 0.929 . S
H88 C92 0.929 . S
H89 C98 0.929 . S
C90 H84 0.930 . S
C90 C91 1.367 . S
C90 C98 1.378 . S
C91 C90 1.367 . S
C91 C99 1.433 1_665 S
C92 H88 0.929 . S
C92 C94 1.378 . S
C92 C96 1.349 . S
C93 C96 1.461 1_665 S
C93 C98 1.350 . S
C93 N101 1.428 1_665 S
C94 H85 0.930 . S
C94 C92 1.378 . S
C94 C95 1.365 . S
C95 C94 1.365 . S
C95 C97 1.434 1_445 S
C96 C92 1.349 . S
C96 C93 1.461 1_445 S
C96 N100 1.429 1_445 S
C97 H87 0.929 . S
C97 C95 1.434 1_665 S
C97 N100 1.384 . S
C98 H89 0.929 . S
C98 C90 1.378 . S
C98 C93 1.350 . S
C99 H86 0.929 . S
C99 C91 1.433 1_445 S
C99 N101 1.384 . S
N100 C96 1.429 1_665 S
N100 C97 1.384 . S
N101 C93 1.428 1_445 S
N101 C99 1.384 . S
H102 C108 0.930 . S
H103 C112 0.930 . S
H104 C117 0.929 . S
H105 C115 0.929 . S
H106 C110 0.929 . S
H107 C116 0.929 . S
C108 H102 0.930 . S
C108 C109 1.384 . S
C108 C116 1.378 . S
C109 C108 1.384 . S
C109 C117 1.425 1_564 S
C110 H106 0.929 . S
C110 C112 1.378 . S
C110 C114 1.350 . S
C111 C114 1.463 1_564 S
C111 C116 1.350 . S
C111 N119 1.427 1_564 S
C112 H103 0.930 . S
C112 C110 1.378 . S
C112 C113 1.375 . S
C113 C112 1.375 . S
C113 C115 1.428 1_546 S
C114 C110 1.350 . S
C114 C111 1.463 1_546 S
C114 N118 1.427 1_546 S
C115 H105 0.929 . S
C115 C113 1.428 1_564 S
C115 N118 1.384 . S
C116 H107 0.929 . S
C116 C108 1.378 . S
C116 C111 1.350 . S
C117 H104 0.929 . S
C117 C109 1.425 1_546 S
C117 N119 1.384 . S
N118 C114 1.427 1_564 S
N118 C115 1.384 . S
N119 C111 1.427 1_546 S
N119 C117 1.384 . S
H120 C126 0.930 . S
H121 C130 0.930 . S
H122 C135 0.929 . S
H123 C133 0.929 . S
H124 C128 0.929 . S
H125 C134 0.929 . S
C126 H120 0.930 . S
C126 C127 1.367 . S
C126 C134 1.378 . S
C127 C126 1.367 . S
C127 C135 1.434 1_456 S
C128 H124 0.929 . S
C128 C130 1.378 . S
C128 C132 1.350 . S
C129 C132 1.465 1_456 S
C129 C134 1.349 . S
C129 N137 1.426 1_456 S
C130 H121 0.930 . S
C130 C128 1.378 . S
C130 C131 1.367 . S
C131 C130 1.367 . S
C131 C133 1.433 1_654 S
C132 C128 1.350 . S
C132 C129 1.465 1_654 S
C132 N136 1.427 1_654 S
C133 H123 0.929 . S
C133 C131 1.433 1_456 S
C133 N136 1.384 . S
C134 H125 0.929 . S
C134 C126 1.378 . S
C134 C129 1.349 . S
C135 H122 0.929 . S
C135 C127 1.434 1_654 S
C135 N137 1.384 . S
N136 C132 1.427 1_456 S
N136 C133 1.384 . S
N137 C129 1.426 1_654 S
N137 C135 1.384 . S
C91 C74 1.475 1_565 S
C95 C63 1.476 1_545 S
C109 C67 1.428 1_554 S
C113 C56 1.430 1_556 S
C127 C70 1.311 1_455 S
C131 C58 1.313 1_655 S
