# Generated by pormake.
# Topology pcu, (6)-cn, num edge types: 1
# Building blocks:
#     Node 0, Type 0, BuildingBlock: KUMJIN_clean_sbu_1, # of connection points: 6
#     Edge 1, Type (0, 0), BuildingBlock: XUDNAN_clean_linker_2, # of connection points: 2
#     Edge 2, Type (0, 0), BuildingBlock: XUDNAN_clean_linker_2, # of connection points: 2
#     Edge 3, Type (0, 0), BuildingBlock: XUDNAN_clean_linker_2, # of connection points: 2
# Relax obj value: 0.000
# Max RMSD: 0.000
# Mean RMSD: 0.000
data_MOF--net-pcu--node1-KUMJIN_clean_sbu_1--edge1-XUDNAN_clean_linker_2
_symmetry_space_group_name_H-M    P1
_symmetry_Int_Tables_number       1
_symmetry_cell_setting            triclinic
loop_
_symmetry_equiv_pos_as_xyz
'x, y, z'
_cell_length_a     14.903004
_cell_length_b     24.72866
_cell_length_c     14.851987
_cell_angle_alpha  114.08035
_cell_angle_beta   89.350329
_cell_angle_gamma 115.52629
loop_
_atom_site_label
_atom_site_type_symbol
_atom_site_fract_x
_atom_site_fract_y
_atom_site_fract_z
_atom_type_partial_charge
Eu0 Eu 0.99534 0.926 0.93273 0.0
C1 C 0.34539 0.2268 0.21445 0.0
N2 N 0.2458 0.19889 0.22015 0.0
C3 C 0.29054 0.2504 0.40016 0.0
C4 C 0.42197 0.26727 0.30223 0.0
C5 C 0.21728 0.21087 0.3111 0.0
C6 C 0.39335 0.27848 0.39574 0.0
C7 C 0.47347 0.24387 0.11196 0.0
C8 C 0.37092 0.21509 0.12041 0.0
C9 C 0.54998 0.28369 0.19918 0.0
C10 C 0.52431 0.29527 0.29401 0.0
Eu11 Eu 0.1283 0.12861 0.06561 0.0
N12 N 0.29532 0.17458 0.03701 0.0
C13 C 0.49598 0.23195 0.01605 0.0
C14 C 0.31648 0.16535 0.9439 0.0
C15 C 0.41702 0.19312 0.93179 0.0
H16 H 0.13783 0.19029 0.31501 0.0
H17 H 0.43352 0.18484 0.85754 0.0
H18 H 0.93193 0.88139 0.68799 0.0
H19 H 0.75646 0.89373 0.20879 0.0
H20 H 0.25617 0.13705 0.87899 0.0
H21 H 0.57381 0.25331 0.0064 0.0
H22 H 0.91726 0.9292 0.15017 0.0
H23 H 0.26765 0.25932 0.47213 0.0
H24 H 0.62922 0.30596 0.19412 0.0
H25 H 0.58418 0.32629 0.36062 0.0
H26 H 0.77552 0.82143 0.55873 0.0
H27 H 0.44993 0.30914 0.4649 0.0
H28 H 0.59343 0.83401 0.08894 0.0
N29 N 0.85247 0.87274 0.80508 0.0
C30 C 0.76106 0.84855 0.83195 0.0
C31 C 0.7705 0.82893 0.63531 0.0
C32 C 0.67011 0.81354 0.76042 0.0
C33 C 0.85881 0.86328 0.70867 0.0
C34 C 0.67577 0.80391 0.66122 0.0
N35 N 0.8474 0.89564 0.00045 0.0
C36 C 0.84745 0.90598 0.09793 0.0
C37 C 0.66441 0.83747 0.96201 0.0
C38 C 0.75843 0.86048 0.93211 0.0
C39 C 0.66413 0.85068 0.06302 0.0
C40 C 0.75601 0.88469 0.13104 0.0
H41 H 0.60751 0.77732 0.60415 0.0
H42 H 0.50598 0.76254 0.73598 0.0
H43 H 0.50095 0.78385 0.91221 0.0
O44 O 1.00217 0.85324 0.97664 0.0
O45 O 0.90613 0.98219 0.93288 0.0
O46 O 0.97385 0.07051 0.08853 0.0
O47 O 0.98083 0.83063 0.81922 0.0
O48 O 0.07977 0.98185 0.09465 0.0
O49 O 0.0616 0.07778 0.16537 0.0
O50 O 0.07905 0.17392 0.99032 0.0
O51 O 0.23362 0.08337 0.0557 0.0
O52 O 0.16341 0.9742 0.92824 0.0
O53 O 0.13556 0.22664 0.15106 0.0
O54 O 0.06849 0.07045 0.89509 0.0
O55 O 0.08013 0.97173 0.83501 0.0
C56 C 0.89673 0.02681 0.01363 0.0
C57 C 0.91163 0.73859 0.85962 0.0
C58 C 0.87401 0.63478 0.87081 0.0
C59 C 0.77946 0.6034 0.80631 0.0
C60 C 0.81667 0.70617 0.79634 0.0
C61 C 0.75099 0.63906 0.77037 0.0
C62 C 0.9391 0.70308 0.89778 0.0
C63 C 0.08563 0.03433 0.17357 0.0
C64 C 0.98498 0.8085 0.88429 0.0
C65 C 0.57666 0.78975 0.79003 0.0
C66 C 0.5738 0.80197 0.89051 0.0
C67 C 0.2398 0.02916 0.99622 0.0
C68 C 1.01503 0.24718 0.08766 0.0
C69 C 0.94838 0.31963 0.0759 0.0
C70 C 0.86892 0.29253 0.1219 0.0
C71 C 0.9352 0.221 0.13298 0.0
C72 C 0.02043 0.29545 0.05789 0.0
C73 C 0.86213 0.24325 0.14922 0.0
C74 C 0.08346 0.02293 0.8249 0.0
C75 C 0.0952 0.22642 0.07358 0.0
H76 H 0.72789 0.55083 0.78147 0.0
H77 H 0.79369 0.73229 0.76594 0.0
H78 H 0.67821 0.61417 0.7207 0.0
H79 H 1.01169 0.72912 0.9484 0.0
H80 H 0.81293 0.31021 0.13904 0.0
H81 H 0.93032 0.18411 0.15689 0.0
H82 H 0.08131 0.31402 0.02082 0.0
H83 H 0.80088 0.22305 0.18475 0.0
H84 H 0.02299 0.0891 0.34927 0.0
H85 H 0.20212 0.98738 0.22105 0.0
H86 H 0.22921 0.98035 0.3781 0.0
H87 H 0.17403 0.18441 0.61184 0.0
H88 H 0.06303 0.17523 0.66675 0.0
H89 H 0.06602 0.17877 0.5478 0.0
H90 H 0.90097 0.06566 0.46688 0.0
H91 H 0.89795 0.06133 0.58504 0.0
H92 H 0.89682 0.99358 0.47397 0.0
H93 H 0.22188 0.97242 0.53818 0.0
H94 H 0.18984 0.97077 0.70031 0.0
H95 H 0.02002 0.08055 0.73194 0.0
C96 C 0.0701 0.06704 0.35558 0.0
C97 C 0.11057 0.03882 0.27314 0.0
C98 C 0.16997 1.00898 0.28315 0.0
C99 C 0.18614 1.00493 0.37216 0.0
C100 C 0.14296 0.03134 0.451 0.0
C101 C 0.08714 0.06253 0.44451 0.0
C102 C 0.04498 0.0834 0.53922 0.0
C103 C 0.0897 0.16001 0.59471 0.0
C104 C 0.92827 0.04892 0.51478 0.0
C105 C 0.08363 0.05735 0.59826 0.0
C106 C 0.14019 0.02771 0.54566 0.0
C107 C 0.17897 0.9963 0.58093 0.0
C108 C 0.15968 0.99516 0.67268 0.0
C109 C 0.10259 0.02553 0.72856 0.0
C110 C 0.0649 0.05761 0.69122 0.0
H111 H 0.34039 0.97563 0.85694 0.0
H112 H 0.36011 0.08604 0.17661 0.0
H113 H 0.52401 0.09019 0.21357 0.0
H114 H 0.46195 0.87823 0.87218 0.0
H115 H 0.53098 0.88734 0.77421 0.0
H116 H 0.4111 0.88855 0.77425 0.0
H117 H 0.49934 1.00356 0.76967 0.0
H118 H 0.61916 1.00221 0.77235 0.0
H119 H 0.60752 0.07195 0.86675 0.0
H120 H 0.68248 0.08305 0.21829 0.0
H121 H 0.83977 0.075 0.19058 0.0
H122 H 0.72861 0.97429 0.86723 0.0
C123 C 0.37908 0.99985 0.93451 0.0
C124 C 0.33741 0.02986 0.01413 0.0
C125 C 0.39085 0.06268 0.11466 0.0
C126 C 0.48369 0.06502 0.13649 0.0
C127 C 0.52297 0.03507 0.05685 0.0
C128 C 0.47369 1.00396 0.95779 0.0
C129 C 0.53765 0.9804 0.88689 0.0
C130 C 0.48207 0.90404 0.82319 0.0
C131 C 0.5677 0.01671 0.81997 0.0
C132 C 0.62932 1.0021 0.96197 0.0
C133 C 0.61824 0.03321 0.05943 0.0
C134 C 0.69243 0.05901 0.14241 0.0
C135 C 0.7817 0.05431 0.12573 0.0
C136 C 0.79698 0.02471 0.02677 0.0
C137 C 0.71884 0.99705 0.94368 0.0
H138 H 0.75309 0.52806 0.91105 0.0
H139 H 0.06718 0.65137 0.91064 0.0
H140 H 0.11957 0.58765 0.96897 0.0
H141 H 0.7979 0.50301 0.12505 0.0
H142 H 0.70168 0.41661 0.06984 0.0
H143 H 0.68849 0.47492 0.03485 0.0
H144 H 0.67102 0.39821 0.84707 0.0
H145 H 0.68367 0.33969 0.88181 0.0
H146 H 0.7682 0.37352 0.8091 0.0
H147 H 0.13908 0.51131 0.02924 0.0
H148 H 0.12333 0.42376 0.07646 0.0
H149 H 0.79476 0.34071 0.01673 0.0
C150 C 0.83293 0.54169 0.92221 0.0
C151 C 0.90574 0.59597 0.90703 0.0
C152 C 1.00954 0.61176 0.92423 0.0
C153 C 0.04029 0.57531 0.95662 0.0
C154 C 0.96654 0.52229 0.97028 0.0
C155 C 0.86488 0.50498 0.95266 0.0
C156 C 0.80055 0.44376 0.96869 0.0
C157 C 0.74383 0.46062 0.05473 0.0
C158 C 0.72651 0.38534 0.87082 0.0
C159 C 0.8821 0.42939 0.99784 0.0
C160 C 0.97731 0.47579 0.99947 0.0
C161 C 0.06473 0.47407 0.02678 0.0
C162 C 0.05469 0.42338 0.05251 0.0
C163 C 0.95764 0.37386 0.04913 0.0
C164 C 0.87039 0.37753 0.0213 0.0
loop_
_geom_bond_atom_site_label_1
_geom_bond_atom_site_label_2
_geom_bond_distance
_geom_bond_site_symmetry_2
_ccdc_geom_bond_type
Eu0 N29 2.600 . S
Eu0 N35 2.562 . S
Eu0 O44 2.462 . S
Eu0 O45 2.373 . S
Eu0 O47 2.432 . S
Eu0 O48 2.291 1_556 S
Eu0 O52 2.335 1_655 S
Eu0 O55 2.372 . S
Eu0 C64 2.787 . S
C1 N2 1.365 . S
C1 C4 1.405 . S
C1 C8 1.448 . S
N2 C1 1.365 . S
N2 C5 1.319 . S
N2 Eu11 2.600 . S
C3 C5 1.397 . S
C3 C6 1.367 . S
C3 H23 0.931 . S
C4 C1 1.405 . S
C4 C6 1.403 . S
C4 C10 1.439 . S
C5 N2 1.319 . S
C5 C3 1.397 . S
C5 H16 0.930 . S
C6 C3 1.367 . S
C6 C4 1.403 . S
C6 H27 0.929 . S
C7 C8 1.430 . S
C7 C9 1.387 . S
C7 C13 1.404 . S
C8 C1 1.448 . S
C8 C7 1.430 . S
C8 N12 1.351 . S
C9 C7 1.387 . S
C9 C10 1.374 . S
C9 H24 0.931 . S
C10 C4 1.439 . S
C10 C9 1.374 . S
C10 H25 0.931 . S
Eu11 N2 2.600 . S
Eu11 N12 2.562 . S
Eu11 O46 2.335 1_455 S
Eu11 O49 2.372 . S
Eu11 O50 2.462 . S
Eu11 O51 2.373 . S
Eu11 O53 2.432 . S
Eu11 O54 2.291 1_554 S
Eu11 C75 2.787 . S
N12 C8 1.351 . S
N12 Eu11 2.562 . S
N12 C14 1.325 1_554 S
C13 C7 1.404 . S
C13 C15 1.366 1_554 S
C13 H21 0.930 1_554 S
C14 N12 1.325 1_556 S
C14 C15 1.416 . S
C14 H20 0.929 . S
C15 C13 1.366 1_556 S
C15 C14 1.416 . S
C15 H17 0.930 . S
H16 C5 0.930 . S
H17 C15 0.930 . S
H18 C33 0.930 . S
H19 C40 0.930 . S
H20 C14 0.929 . S
H21 C13 0.930 1_556 S
H22 C36 0.929 . S
H23 C3 0.931 . S
H24 C9 0.931 . S
H25 C10 0.931 . S
H26 C31 0.931 . S
H27 C6 0.929 . S
H28 C39 0.930 1_554 S
N29 Eu0 2.600 . S
N29 C30 1.365 . S
N29 C33 1.319 . S
C30 N29 1.365 . S
C30 C32 1.405 . S
C30 C38 1.448 . S
C31 H26 0.931 . S
C31 C33 1.397 . S
C31 C34 1.367 . S
C32 C30 1.405 . S
C32 C34 1.403 . S
C32 C65 1.439 . S
C33 H18 0.930 . S
C33 N29 1.319 . S
C33 C31 1.397 . S
C34 C31 1.367 . S
C34 C32 1.403 . S
C34 H41 0.929 . S
N35 Eu0 2.562 . S
N35 C36 1.325 1_556 S
N35 C38 1.351 . S
C36 H22 0.929 . S
C36 N35 1.325 1_554 S
C36 C40 1.416 . S
C37 C38 1.430 . S
C37 C39 1.404 . S
C37 C66 1.387 . S
C38 C30 1.448 . S
C38 N35 1.351 . S
C38 C37 1.430 . S
C39 H28 0.930 1_556 S
C39 C37 1.404 . S
C39 C40 1.366 1_556 S
C40 H19 0.930 . S
C40 C36 1.416 . S
C40 C39 1.366 1_554 S
H41 C34 0.929 . S
H42 C65 0.931 . S
H43 C66 0.931 . S
O44 Eu0 2.462 . S
O44 C64 1.252 . S
O45 Eu0 2.373 . S
O45 C56 1.248 . S
O46 Eu11 2.335 1_655 S
O46 C56 1.264 1_544 S
O47 Eu0 2.432 . S
O47 C64 1.268 . S
O48 Eu0 2.291 1_554 S
O48 C63 1.255 1_565 S
O49 Eu11 2.372 . S
O49 C63 1.257 1_455 S
O50 Eu11 2.462 . S
O50 C75 1.252 . S
O51 Eu11 2.373 . S
O51 C67 1.252 . S
O52 Eu0 2.335 1_455 S
O52 C67 1.262 1_566 S
O53 Eu11 2.432 . S
O53 C75 1.268 . S
O54 Eu11 2.291 1_556 S
O54 C74 1.255 1_545 S
O55 Eu0 2.372 . S
O55 C74 1.257 1_655 S
C56 O45 1.248 . S
C56 O46 1.264 1_566 S
C57 C60 1.382 . S
C57 C62 1.390 . S
C57 C64 1.506 . S
C58 C59 1.398 . S
C58 C62 1.392 . S
C59 C58 1.398 . S
C59 C61 1.372 . S
C59 H76 0.931 . S
C60 C57 1.382 . S
C60 C61 1.390 . S
C60 H77 0.931 . S
C61 C59 1.372 . S
C61 C60 1.390 . S
C61 H78 0.929 . S
C62 C57 1.390 . S
C62 C58 1.392 . S
C62 H79 0.930 1_556 S
C63 O48 1.255 1_545 S
C63 O49 1.257 1_655 S
C64 Eu0 2.787 . S
C64 O44 1.252 . S
C64 O47 1.268 . S
C64 C57 1.506 . S
C65 C32 1.439 . S
C65 H42 0.931 . S
C65 C66 1.374 . S
C66 C37 1.387 . S
C66 H43 0.931 . S
C66 C65 1.374 . S
C67 O51 1.252 . S
C67 O52 1.262 1_544 S
C68 C71 1.382 . S
C68 C72 1.390 . S
C68 C75 1.506 . S
C69 C70 1.398 . S
C69 C72 1.392 . S
C70 C69 1.398 . S
C70 C73 1.372 . S
C70 H80 0.931 . S
C71 C68 1.382 . S
C71 C73 1.390 . S
C71 H81 0.931 . S
C72 C68 1.390 . S
C72 C69 1.392 . S
C72 H82 0.930 1_554 S
C73 C70 1.372 . S
C73 C71 1.390 . S
C73 H83 0.929 . S
C74 O54 1.255 1_565 S
C74 O55 1.257 1_455 S
C75 Eu11 2.787 . S
C75 O50 1.252 . S
C75 O53 1.268 . S
C75 C68 1.506 . S
H76 C59 0.931 . S
H77 C60 0.931 . S
H78 C61 0.929 . S
H79 C62 0.930 1_554 S
H80 C70 0.931 . S
H81 C71 0.931 . S
H82 C72 0.930 1_556 S
H83 C73 0.929 . S
H84 C96 0.930 . S
H85 C98 0.930 . S
H86 C99 0.930 . S
H87 C103 0.959 . S
H88 C103 0.959 . S
H89 C103 0.961 . S
H90 C104 0.960 1_455 S
H91 C104 0.961 1_455 S
H92 C104 0.959 . S
H93 C107 0.929 . S
H94 C108 0.931 . S
H95 C110 0.930 . S
C96 H84 0.930 . S
C96 C97 1.399 1_445 S
C96 C101 1.399 . S
C97 C96 1.399 1_665 S
C97 C98 1.376 . S
C98 H85 0.930 . S
C98 C97 1.376 . S
C98 C99 1.388 . S
C99 H86 0.930 . S
C99 C98 1.388 . S
C99 C100 1.390 . S
C100 C99 1.390 . S
C100 C101 1.394 1_665 S
C100 C106 1.465 . S
C101 C96 1.399 . S
C101 C100 1.394 1_445 S
C101 C102 1.516 . S
C102 C101 1.516 . S
C102 C103 1.502 . S
C102 C104 1.561 1_455 S
C102 C105 1.526 . S
C103 H87 0.959 . S
C103 H88 0.959 . S
C103 H89 0.961 . S
C103 C102 1.502 . S
C104 H90 0.960 1_655 S
C104 H91 0.961 1_655 S
C104 H92 0.959 . S
C104 C102 1.561 1_655 S
C105 C102 1.526 . S
C105 C106 1.396 1_445 S
C105 C110 1.390 . S
C106 C100 1.465 . S
C106 C105 1.396 1_665 S
C106 C107 1.399 . S
C107 H93 0.929 . S
C107 C106 1.399 . S
C107 C108 1.385 . S
C108 H94 0.931 . S
C108 C107 1.385 . S
C108 C109 1.389 . S
C109 C108 1.389 . S
C109 C110 1.387 1_665 S
C110 H95 0.930 . S
C110 C105 1.390 . S
C110 C109 1.387 1_445 S
H111 C123 0.930 . S
H112 C125 0.930 . S
H113 C126 0.930 . S
H114 C130 0.959 . S
H115 C130 0.959 . S
H116 C130 0.961 . S
H117 C131 0.960 . S
H118 C131 0.961 . S
H119 C131 0.959 . S
H120 C134 0.929 . S
H121 C135 0.931 . S
H122 C137 0.930 . S
C123 H111 0.930 . S
C123 C124 1.399 1_566 S
C123 C128 1.399 . S
C124 C123 1.399 1_544 S
C124 C125 1.376 . S
C125 H112 0.930 . S
C125 C124 1.376 . S
C125 C126 1.388 . S
C126 H113 0.930 . S
C126 C125 1.388 . S
C126 C127 1.390 . S
C127 C126 1.390 . S
C127 C128 1.394 1_544 S
C127 C133 1.465 . S
C128 C123 1.399 . S
C128 C127 1.394 1_566 S
C128 C129 1.516 . S
C129 C128 1.516 . S
C129 C130 1.502 . S
C129 C131 1.561 1_565 S
C129 C132 1.526 . S
C130 H114 0.959 . S
C130 H115 0.959 . S
C130 H116 0.961 . S
C130 C129 1.502 . S
C131 H117 0.960 . S
C131 H118 0.961 . S
C131 H119 0.959 . S
C131 C129 1.561 1_545 S
C132 C129 1.526 . S
C132 C133 1.396 1_566 S
C132 C137 1.390 . S
C133 C127 1.465 . S
C133 C132 1.396 1_544 S
C133 C134 1.399 . S
C134 H120 0.929 . S
C134 C133 1.399 . S
C134 C135 1.385 . S
C135 H121 0.931 . S
C135 C134 1.385 . S
C135 C136 1.389 . S
C136 C135 1.389 . S
C136 C137 1.387 1_544 S
C137 H122 0.930 . S
C137 C132 1.390 . S
C137 C136 1.387 1_566 S
H138 C150 0.930 . S
H139 C152 0.930 . S
H140 C153 0.930 . S
H141 C157 0.959 . S
H142 C157 0.959 . S
H143 C157 0.961 . S
H144 C158 0.960 1_554 S
H145 C158 0.961 1_554 S
H146 C158 0.959 . S
H147 C161 0.929 . S
H148 C162 0.931 . S
H149 C164 0.930 . S
C150 H138 0.930 . S
C150 C151 1.399 1_654 S
C150 C155 1.399 . S
C151 C150 1.399 1_456 S
C151 C152 1.376 . S
C152 H139 0.930 . S
C152 C151 1.376 . S
C152 C153 1.388 . S
C153 H140 0.930 . S
C153 C152 1.388 . S
C153 C154 1.390 . S
C154 C153 1.390 . S
C154 C155 1.394 1_456 S
C154 C160 1.465 . S
C155 C150 1.399 . S
C155 C154 1.394 1_654 S
C155 C156 1.516 . S
C156 C155 1.516 . S
C156 C157 1.502 . S
C156 C158 1.561 1_554 S
C156 C159 1.526 . S
C157 H141 0.959 . S
C157 H142 0.959 . S
C157 H143 0.961 . S
C157 C156 1.502 . S
C158 H144 0.960 1_556 S
C158 H145 0.961 1_556 S
C158 H146 0.959 . S
C158 C156 1.561 1_556 S
C159 C156 1.526 . S
C159 C160 1.396 1_654 S
C159 C164 1.390 . S
C160 C154 1.465 . S
C160 C159 1.396 1_456 S
C160 C161 1.399 . S
C161 H147 0.929 . S
C161 C160 1.399 . S
C161 C162 1.385 . S
C162 H148 0.931 . S
C162 C161 1.385 . S
C162 C163 1.389 . S
C163 C162 1.389 . S
C163 C164 1.387 1_456 S
C164 H149 0.930 . S
C164 C159 1.390 . S
C164 C163 1.387 1_654 S
C97 C63 1.479 1_565 S
C109 C74 1.462 1_655 S
C124 C67 1.477 . S
C136 C56 1.499 1_544 S
C151 C58 1.299 1_455 S
C163 C69 1.394 1_556 S
