# Generated by pormake.
# Topology qtz, (4)-cn, num edge types: 1
# Building blocks:
#     Node 0, Type 0, BuildingBlock: AZAVOO_clean_sbu_0, # of connection points: 4
#     Node 1, Type 0, BuildingBlock: AZAVOO_clean_sbu_0, # of connection points: 4
#     Node 2, Type 0, BuildingBlock: AZAVOO_clean_sbu_0, # of connection points: 4
#     Edge 3, Type (0, 0), BuildingBlock: TEMPAE_clean_linker_10, # of connection points: 2
#     Edge 4, Type (0, 0), BuildingBlock: TEMPAE_clean_linker_10, # of connection points: 2
#     Edge 5, Type (0, 0), BuildingBlock: TEMPAE_clean_linker_10, # of connection points: 2
#     Edge 6, Type (0, 0), BuildingBlock: TEMPAE_clean_linker_10, # of connection points: 2
#     Edge 7, Type (0, 0), BuildingBlock: TEMPAE_clean_linker_10, # of connection points: 2
#     Edge 8, Type (0, 0), BuildingBlock: TEMPAE_clean_linker_10, # of connection points: 2
# Relax obj value: 0.162
# Max RMSD: 0.226
# Mean RMSD: 0.200
data_MOF--net-qtz--node1-AZAVOO_clean_sbu_0--edge1-TEMPAE_clean_linker_10
_symmetry_space_group_name_H-M    P1
_symmetry_Int_Tables_number       1
_symmetry_cell_setting            triclinic
loop_
_symmetry_equiv_pos_as_xyz
'x, y, z'
_cell_length_a     23.109921
_cell_length_b     23.810761
_cell_length_c     29.09062
_cell_angle_alpha  92.84754
_cell_angle_beta   95.431906
_cell_angle_gamma 123.49791
loop_
_atom_site_label
_atom_site_type_symbol
_atom_site_fract_x
_atom_site_fract_y
_atom_site_fract_z
_atom_type_partial_charge
Mg0 Mg 0.97846 0.51221 0.1312 0.0
O1 O 0.06065 0.60714 0.18121 0.0
O2 O 0.00574 0.62081 0.23529 0.0
Mg3 Mg 0.88937 0.53306 0.22071 0.0
C4 C 0.06146 0.63988 0.21763 0.0
C5 C 0.03098 0.49796 0.0435 0.0
O6 O 0.96373 0.4494 0.03592 0.0
O7 O 0.93393 0.56757 0.09765 0.0
O8 O 0.87276 0.56975 0.15201 0.0
O9 O 0.99574 0.44771 0.17529 0.0
O10 O 0.9159 0.47038 0.18234 0.0
C11 C 0.89137 0.58072 0.11161 0.0
C12 C 0.94597 0.441 0.19664 0.0
O13 O 0.05539 0.53911 0.08056 0.0
Mg14 Mg 0.64165 0.06422 0.49212 0.0
O15 O 0.54944 0.01017 0.43251 0.0
O16 O 0.54259 0.08735 0.39659 0.0
Mg17 Mg 0.63041 0.19172 0.43457 0.0
C18 C 0.52014 0.02571 0.40097 0.0
C19 C 0.63852 0.93694 0.51457 0.0
O20 O 0.69486 0.96827 0.4941 0.0
O21 O 0.57659 0.08433 0.5363 0.0
O22 O 0.57491 0.16364 0.49911 0.0
O23 O 0.71565 0.07616 0.44303 0.0
O24 O 0.69147 0.15185 0.4606 0.0
C25 C 0.55843 0.12594 0.53186 0.0
C26 C 0.72445 0.13383 0.43745 0.0
O27 O 0.60382 0.96328 0.51869 0.0
Mg28 Mg 0.41829 0.46702 0.78279 0.0
O29 O 0.51027 0.51564 0.84235 0.0
O30 O 0.52838 0.61236 0.87429 0.0
Mg31 Mg 0.44584 0.62458 0.8358 0.0
C32 C 0.54422 0.56884 0.87199 0.0
C33 C 0.40684 0.33226 0.75265 0.0
O34 O 0.34383 0.30515 0.76419 0.0
O35 O 0.48695 0.54572 0.73667 0.0
O36 O 0.49829 0.63839 0.7707 0.0
O37 O 0.34228 0.41321 0.83272 0.0
O38 O 0.37704 0.51479 0.8136 0.0
C39 C 0.51036 0.60865 0.73899 0.0
C40 C 0.34068 0.46669 0.83789 0.0
O41 O 0.44884 0.3965 0.75722 0.0
C42 C 0.28726 0.52518 0.86726 0.0
C43 C 0.29903 0.47356 0.87036 0.0
C44 C 0.2452 0.53133 0.89585 0.0
C45 C 0.21464 0.48507 0.92866 0.0
C46 C 0.22731 0.43356 0.93267 0.0
C47 C 0.26912 0.42811 0.90316 0.0
C48 C 0.23224 0.58644 0.89021 0.0
C49 C 0.19606 0.38386 0.96774 0.0
C50 C 0.15107 0.53608 0.02777 0.0
C51 C 0.07854 0.49849 0.01279 0.0
C52 C 0.19605 0.5318 0.00089 0.0
C53 C 0.1678 0.48965 0.9578 0.0
C54 C 0.09488 0.45288 0.94197 0.0
C55 C 0.05104 0.45747 0.96981 0.0
C56 C 0.27357 0.5715 0.01889 0.0
C57 C 0.06313 0.40833 0.89578 0.0
H58 H 0.30963 0.5601 0.84163 0.0
H59 H 0.27823 0.38825 0.9057 0.0
H60 H 0.17538 0.56331 0.87981 0.0
H61 H 0.24829 0.61889 0.92381 0.0
H62 H 0.26119 0.61919 0.86365 0.0
H63 H 0.2134 0.34866 0.96781 0.0
H64 H 0.21102 0.41161 0.00318 0.0
H65 H 0.13797 0.35347 0.95996 0.0
H66 H 0.1726 0.56753 0.06113 0.0
H67 H 0.99504 0.42844 0.95803 0.0
H68 H 0.30392 0.60653 -0.00617 0.0
H69 H 0.29061 0.53632 0.02224 0.0
H70 H 0.28708 0.60163 0.05325 0.0
H71 H 0.08782 0.43884 0.8673 0.0
H72 H 0.00555 0.38385 0.88827 0.0
H73 H 0.07354 0.36809 0.89546 0.0
C74 C 0.85304 0.37046 0.24394 0.0
C75 C 0.92138 0.39802 0.23436 0.0
C76 C 0.82601 0.32532 0.27713 0.0
C77 C 0.86912 0.30884 0.30222 0.0
C78 C 0.93869 0.33741 0.29333 0.0
C79 C 0.96381 0.38116 0.25891 0.0
C80 C 0.75111 0.29503 0.28514 0.0
C81 C 0.98658 0.32232 0.32046 0.0
C82 C 0.80632 0.24801 0.41578 0.0
C83 C 0.76852 0.17754 0.40458 0.0
C84 C 0.84385 0.29161 0.38376 0.0
C85 C 0.84141 0.26375 0.33899 0.0
C86 C 0.80542 0.1925 0.32808 0.0
C87 C 0.77003 0.15001 0.36148 0.0
C88 C 0.88312 0.36733 0.3971 0.0
C89 C 0.80047 0.16107 0.28029 0.0
H90 H 0.81984 0.38279 0.22456 0.0
H91 H 0.01673 0.40257 0.25148 0.0
H92 H 0.72153 0.23882 0.2809 0.0
H93 H 0.75019 0.31148 0.32126 0.0
H94 H 0.72347 0.3102 0.26081 0.0
H95 H 0.03925 0.34865 0.30924 0.0
H96 H 0.99298 0.33831 0.3581 0.0
H97 H 0.96302 0.26693 0.31622 0.0
H98 H 0.8057 0.26908 0.44951 0.0
H99 H 0.74047 0.09536 0.353 0.0
H100 H 0.85515 0.38693 0.37813 0.0
H101 H 0.93649 0.39359 0.38712 0.0
H102 H 0.88787 0.38078 0.43501 0.0
H103 H 0.76782 0.16924 0.25469 0.0
H104 H 0.77667 0.10565 0.27887 0.0
H105 H 0.85313 0.18569 0.26938 0.0
C106 C 0.55857 0.84149 0.55734 0.0
C107 C 0.62019 0.87607 0.53719 0.0
C108 C 0.54502 0.78976 0.58452 0.0
C109 C 0.59444 0.77235 0.5918 0.0
C110 C 0.65423 0.8036 0.56882 0.0
C111 C 0.66646 0.85525 0.54169 0.0
C112 C 0.48006 0.75699 0.60801 0.0
C113 C 0.70762 0.78582 0.57532 0.0
C114 C 0.59285 0.71857 0.71119 0.0
C115 C 0.54623 0.64801 0.70151 0.0
C116 C 0.61425 0.75949 0.67526 0.0
C117 C 0.58775 0.72895 0.62855 0.0
C118 C 0.54616 0.65735 0.61847 0.0
C119 C 0.52597 0.61744 0.65528 0.0
C120 C 0.65988 0.83567 0.68754 0.0
C121 C 0.51776 0.623 0.56908 0.0
H122 H 0.52204 0.85657 0.55339 0.0
H123 H 0.71392 0.88132 0.5258 0.0
H124 H 0.45164 0.70093 0.60238 0.0
H125 H 0.49541 0.77292 0.64608 0.0
H126 H 0.4436 0.77121 0.59503 0.0
H127 H 0.74304 0.8043 0.5484 0.0
H128 H 0.74009 0.80951 0.60998 0.0
H129 H 0.68151 0.73016 0.57417 0.0
H130 H 0.60944 0.74214 0.74701 0.0
H131 H 0.48996 0.56279 0.64773 0.0
H132 H 0.62791 0.8567 0.68009 0.0
H133 H 0.70294 0.85901 0.6661 0.0
H134 H 0.68315 0.85088 0.72486 0.0
H135 H 0.47249 0.62535 0.55618 0.0
H136 H 0.49965 0.5688 0.56665 0.0
H137 H 0.55791 0.64911 0.5458 0.0
C138 C 0.65518 0.64493 0.92773 0.0
C139 C 0.60314 0.57982 0.90523 0.0
C140 C 0.71023 0.65543 0.96024 0.0
C141 C 0.71228 0.59926 0.9712 0.0
C142 C 0.66043 0.5336 0.9481 0.0
C143 C 0.60692 0.52481 0.91508 0.0
C144 C 0.76546 0.72633 -0.0166 0.0
C145 C 0.66016 0.47218 0.95931 0.0
C146 C 0.87129 0.61061 0.03274 0.0
C147 C 0.85416 0.59937 0.0779 0.0
C148 C 0.82795 0.61536 -0.00186 0.0
C149 C 0.76563 0.60768 0.00886 0.0
C150 C 0.75055 0.60083 0.05505 0.0
C151 C 0.79531 0.59741 0.08906 0.0
C152 C 0.84669 0.62453 0.94952 0.0
C153 C 0.68439 0.59202 0.06789 0.0
H154 H 0.653 0.6878 0.91985 0.0
H155 H 0.56681 0.47435 0.89792 0.0
H156 H 0.7617 0.72973 0.02105 0.0
H157 H 0.81861 0.73848 -0.01965 0.0
H158 H 0.75987 0.7652 0.96807 0.0
H159 H 0.61697 0.42489 0.93753 0.0
H160 H 0.71075 0.47963 0.95401 0.0
H161 H 0.65435 0.46541 -0.00355 0.0
H162 H 0.91698 0.61288 0.02382 0.0
H163 H 0.78161 0.58912 0.12385 0.0
H164 H 0.83985 0.66312 0.93512 0.0
H165 H 0.81102 0.57602 0.92647 0.0
H166 H 0.90155 0.64014 0.94851 0.0
H167 H 0.67886 0.63241 0.05564 0.0
H168 H 0.68338 0.59311 0.10602 0.0
H169 H 0.63812 0.54267 0.05049 0.0
C170 C 0.42096 0.98542 0.33602 0.0
C171 C 0.45604 0.97039 0.37014 0.0
C172 C 0.35788 0.93364 0.30874 0.0
C173 C 0.32904 0.86514 0.31572 0.0
C174 C 0.3649 0.84949 0.34931 0.0
C175 C 0.42789 0.90219 0.37604 0.0
C176 C 0.32133 0.95233 0.27312 0.0
C177 C 0.3359 0.77706 0.35776 0.0
C178 C 0.13291 0.7346 0.28304 0.0
C179 C 0.12958 0.70007 0.24127 0.0
C180 C 0.19734 0.7891 0.30715 0.0
C181 C 0.26013 0.80984 0.28909 0.0
C182 C 0.25714 0.77631 0.24648 0.0
C183 C 0.19199 0.72185 0.22311 0.0
C184 C 0.19833 0.8236 0.35249 0.0
C185 C 0.32293 0.79711 0.22602 0.0
H186 H 0.44217 0.03782 0.33103 0.0
H187 H 0.45443 0.88982 0.40218 0.0
H188 H 0.31164 0.92471 0.23842 0.0
H189 H 0.2695 0.93685 0.28255 0.0
H190 H 0.35221 0.00766 0.27042 0.0
H191 H 0.37138 0.77322 0.384 0.0
H192 H 0.28432 0.75453 0.37006 0.0
H193 H 0.32718 0.74613 0.32482 0.0
H194 H 0.08519 0.71842 0.29743 0.0
H195 H 0.19019 0.69578 0.19084 0.0
H196 H 0.225 0.87888 0.35087 0.0
H197 H 0.22858 0.81722 0.38126 0.0
H198 H 0.14476 0.80291 0.36103 0.0
H199 H 0.35269 0.85194 0.22196 0.0
H200 H 0.31144 0.76786 0.1916 0.0
H201 H 0.35746 0.78925 0.25 0.0
C202 C 0.49423 0.31904 0.71833 0.0
C203 C 0.42633 0.28936 0.72961 0.0
C204 C 0.51121 0.28163 0.69083 0.0
C205 C 0.45901 0.21279 0.67415 0.0
C206 C 0.39182 0.18116 0.68814 0.0
C207 C 0.3762 0.2199 0.71574 0.0
C208 C 0.58374 0.31722 0.67702 0.0
C209 C 0.33509 0.10769 0.67153 0.0
C210 C 0.48499 0.16549 0.55586 0.0
C211 C 0.52159 0.13558 0.56713 0.0
C212 C 0.46016 0.18666 0.59015 0.0
C213 C 0.47236 0.17791 0.63702 0.0
C214 C 0.50463 0.14319 0.64821 0.0
C215 C 0.52885 0.12221 0.61299 0.0
C216 C 0.42518 0.22268 0.57654 0.0
C217 C 0.51782 0.13228 0.69772 0.0
H218 H 0.53361 0.37242 0.72946 0.0
H219 H 0.32376 0.19636 0.72468 0.0
H220 H 0.60612 0.28678 0.68277 0.0
H221 H 0.58051 0.32273 0.63937 0.0
H222 H 0.62026 0.36849 0.69679 0.0
H223 H 0.29055 0.08768 0.69176 0.0
H224 H 0.31476 0.10265 0.63439 0.0
H225 H 0.35629 0.07581 0.67404 0.0
H226 H 0.47814 0.1749 0.52031 0.0
H227 H 0.55694 0.09893 0.62189 0.0
H228 H 0.45991 0.27701 0.59109 0.0
H229 H 0.37536 0.2007 0.59116 0.0
H230 H 0.41373 0.21961 0.5382 0.0
H231 H 0.56206 0.18097 0.71737 0.0
H232 H 0.5314 0.09429 0.69951 0.0
H233 H 0.4712 0.1153 0.71532 0.0
loop_
_geom_bond_atom_site_label_1
_geom_bond_atom_site_label_2
_geom_bond_distance
_geom_bond_site_symmetry_2
_ccdc_geom_bond_type
Mg0 O1 2.028 1_655 S
Mg0 O7 1.986 . S
Mg0 O9 2.114 . S
Mg0 O10 2.251 . S
Mg0 O13 2.010 1_655 S
O1 Mg0 2.028 1_455 S
O1 C4 1.250 . S
O2 Mg3 2.028 1_455 S
O2 C4 1.248 . S
Mg3 O2 2.028 1_655 S
Mg3 O8 2.032 . S
Mg3 O10 2.079 . S
C4 O1 1.250 . S
C4 O2 1.248 . S
C5 O6 1.264 . S
C5 O13 1.249 . S
O6 C5 1.264 . S
O7 Mg0 1.986 . S
O7 C11 1.246 . S
O8 Mg3 2.032 . S
O8 C11 1.259 . S
O9 Mg0 2.114 . S
O9 C12 1.252 . S
O10 Mg0 2.251 . S
O10 Mg3 2.079 . S
O10 C12 1.273 . S
C11 O7 1.246 . S
C11 O8 1.259 . S
C12 O9 1.252 . S
C12 O10 1.273 . S
O13 Mg0 2.010 1_455 S
O13 C5 1.249 . S
Mg14 O15 2.028 1_545 S
Mg14 O21 1.986 . S
Mg14 O23 2.114 . S
Mg14 O24 2.251 . S
Mg14 O27 2.010 1_545 S
O15 Mg14 2.028 1_565 S
O15 C18 1.250 . S
O16 Mg17 2.028 . S
O16 C18 1.248 1_545 S
Mg17 O16 2.028 . S
Mg17 O22 2.032 . S
Mg17 O24 2.079 . S
C18 O15 1.250 . S
C18 O16 1.248 1_565 S
C19 O20 1.264 . S
C19 O27 1.249 . S
O20 C19 1.264 . S
O21 Mg14 1.986 . S
O21 C25 1.246 . S
O22 Mg17 2.032 . S
O22 C25 1.259 . S
O23 Mg14 2.114 . S
O23 C26 1.252 . S
O24 Mg14 2.251 . S
O24 Mg17 2.079 . S
O24 C26 1.273 . S
C25 O21 1.246 . S
C25 O22 1.259 . S
C26 O23 1.252 . S
C26 O24 1.273 . S
O27 Mg14 2.010 1_565 S
O27 C19 1.249 . S
Mg28 O29 2.028 . S
Mg28 O35 1.986 . S
Mg28 O37 2.114 . S
Mg28 O38 2.251 . S
Mg28 O41 2.010 . S
O29 Mg28 2.028 . S
O29 C32 1.250 . S
O30 Mg31 2.028 . S
O30 C32 1.248 . S
Mg31 O30 2.028 . S
Mg31 O36 2.032 . S
Mg31 O38 2.079 . S
C32 O29 1.250 . S
C32 O30 1.248 . S
C33 O34 1.264 . S
C33 O41 1.249 . S
O34 C33 1.264 . S
O35 Mg28 1.986 . S
O35 C39 1.246 . S
O36 Mg31 2.032 . S
O36 C39 1.259 . S
O37 Mg28 2.114 . S
O37 C40 1.252 . S
O38 Mg28 2.251 . S
O38 Mg31 2.079 . S
O38 C40 1.273 . S
C39 O35 1.246 . S
C39 O36 1.259 . S
C40 O37 1.252 . S
C40 O38 1.273 . S
O41 Mg28 2.010 . S
O41 C33 1.249 . S
C42 C43 1.391 . S
C42 C44 1.394 . S
C42 H58 0.931 . S
C43 C42 1.391 . S
C43 C47 1.376 . S
C44 C42 1.394 . S
C44 C45 1.369 . S
C44 C48 1.531 . S
C45 C44 1.369 . S
C45 C46 1.410 . S
C45 C53 1.503 1_556 S
C46 C45 1.410 . S
C46 C47 1.392 . S
C46 C49 1.511 1_556 S
C47 C43 1.376 . S
C47 C46 1.392 . S
C47 H59 0.929 . S
C48 C44 1.531 . S
C48 H60 0.960 . S
C48 H61 0.962 . S
C48 H62 0.960 . S
C49 C46 1.511 1_554 S
C49 H63 0.961 . S
C49 H64 0.961 . S
C49 H65 0.961 . S
C50 C51 1.370 . S
C50 C52 1.363 . S
C50 H66 0.931 . S
C51 C50 1.370 . S
C51 C55 1.408 . S
C52 C50 1.363 . S
C52 C53 1.370 . S
C52 C56 1.524 . S
C53 C45 1.503 1_554 S
C53 C52 1.370 . S
C53 C54 1.403 . S
C54 C53 1.403 . S
C54 C55 1.404 . S
C54 C57 1.539 1_554 S
C55 C51 1.408 . S
C55 C54 1.404 . S
C55 H67 0.930 . S
C56 C52 1.524 . S
C56 H68 0.956 . S
C56 H69 0.961 . S
C56 H70 0.961 . S
C57 C54 1.539 1_556 S
C57 H71 0.958 . S
C57 H72 0.961 . S
C57 H73 0.960 . S
H58 C42 0.931 . S
H59 C47 0.929 . S
H60 C48 0.960 . S
H61 C48 0.962 . S
H62 C48 0.960 . S
H63 C49 0.961 . S
H64 C49 0.961 . S
H65 C49 0.961 . S
H66 C50 0.931 . S
H67 C55 0.930 . S
H68 C56 0.956 . S
H69 C56 0.961 . S
H70 C56 0.961 . S
H71 C57 0.958 . S
H72 C57 0.961 . S
H73 C57 0.960 . S
C74 C75 1.391 . S
C74 C76 1.394 . S
C74 H90 0.931 . S
C75 C74 1.391 . S
C75 C79 1.376 . S
C76 C74 1.394 . S
C76 C77 1.369 . S
C76 C80 1.531 . S
C77 C76 1.369 . S
C77 C78 1.410 . S
C77 C85 1.503 . S
C78 C77 1.410 . S
C78 C79 1.392 . S
C78 C81 1.511 . S
C79 C75 1.376 . S
C79 C78 1.392 . S
C79 H91 0.929 . S
C80 C76 1.531 . S
C80 H92 0.960 . S
C80 H93 0.962 . S
C80 H94 0.960 . S
C81 C78 1.511 . S
C81 H95 0.961 . S
C81 H96 0.961 . S
C81 H97 0.961 . S
C82 C83 1.370 . S
C82 C84 1.363 . S
C82 H98 0.931 . S
C83 C82 1.370 . S
C83 C87 1.408 . S
C84 C82 1.363 . S
C84 C85 1.370 . S
C84 C88 1.524 . S
C85 C77 1.503 . S
C85 C84 1.370 . S
C85 C86 1.403 . S
C86 C85 1.403 . S
C86 C87 1.404 . S
C86 C89 1.539 . S
C87 C83 1.408 . S
C87 C86 1.404 . S
C87 H99 0.930 . S
C88 C84 1.524 . S
C88 H100 0.956 . S
C88 H101 0.961 . S
C88 H102 0.961 . S
C89 C86 1.539 . S
C89 H103 0.958 . S
C89 H104 0.961 . S
C89 H105 0.960 . S
H90 C74 0.931 . S
H91 C79 0.929 . S
H92 C80 0.960 . S
H93 C80 0.962 . S
H94 C80 0.960 . S
H95 C81 0.961 . S
H96 C81 0.961 . S
H97 C81 0.961 . S
H98 C82 0.931 . S
H99 C87 0.930 . S
H100 C88 0.956 . S
H101 C88 0.961 . S
H102 C88 0.961 . S
H103 C89 0.958 . S
H104 C89 0.961 . S
H105 C89 0.960 . S
C106 C107 1.391 . S
C106 C108 1.394 . S
C106 H122 0.931 . S
C107 C106 1.391 . S
C107 C111 1.376 . S
C108 C106 1.394 . S
C108 C109 1.369 . S
C108 C112 1.531 . S
C109 C108 1.369 . S
C109 C110 1.410 . S
C109 C117 1.503 . S
C110 C109 1.410 . S
C110 C111 1.392 . S
C110 C113 1.511 . S
C111 C107 1.376 . S
C111 C110 1.392 . S
C111 H123 0.929 . S
C112 C108 1.531 . S
C112 H124 0.960 . S
C112 H125 0.962 . S
C112 H126 0.960 . S
C113 C110 1.511 . S
C113 H127 0.961 . S
C113 H128 0.961 . S
C113 H129 0.961 . S
C114 C115 1.370 . S
C114 C116 1.363 . S
C114 H130 0.931 . S
C115 C114 1.370 . S
C115 C119 1.408 . S
C116 C114 1.363 . S
C116 C117 1.370 . S
C116 C120 1.524 . S
C117 C109 1.503 . S
C117 C116 1.370 . S
C117 C118 1.403 . S
C118 C117 1.403 . S
C118 C119 1.404 . S
C118 C121 1.539 . S
C119 C115 1.408 . S
C119 C118 1.404 . S
C119 H131 0.930 . S
C120 C116 1.524 . S
C120 H132 0.956 . S
C120 H133 0.961 . S
C120 H134 0.961 . S
C121 C118 1.539 . S
C121 H135 0.958 . S
C121 H136 0.961 . S
C121 H137 0.960 . S
H122 C106 0.931 . S
H123 C111 0.929 . S
H124 C112 0.960 . S
H125 C112 0.962 . S
H126 C112 0.960 . S
H127 C113 0.961 . S
H128 C113 0.961 . S
H129 C113 0.961 . S
H130 C114 0.931 . S
H131 C119 0.930 . S
H132 C120 0.956 . S
H133 C120 0.961 . S
H134 C120 0.961 . S
H135 C121 0.958 . S
H136 C121 0.961 . S
H137 C121 0.960 . S
C138 C139 1.391 . S
C138 C140 1.394 . S
C138 H154 0.931 . S
C139 C138 1.391 . S
C139 C143 1.376 . S
C140 C138 1.394 . S
C140 C141 1.369 . S
C140 C144 1.531 . S
C141 C140 1.369 . S
C141 C142 1.410 . S
C141 C149 1.503 1_556 S
C142 C141 1.410 . S
C142 C143 1.392 . S
C142 C145 1.511 1_556 S
C143 C139 1.376 . S
C143 C142 1.392 . S
C143 H155 0.929 . S
C144 C140 1.531 . S
C144 H156 0.960 . S
C144 H157 0.962 . S
C144 H158 0.960 . S
C145 C142 1.511 1_554 S
C145 H159 0.961 . S
C145 H160 0.961 . S
C145 H161 0.961 . S
C146 C147 1.370 . S
C146 C148 1.363 . S
C146 H162 0.931 . S
C147 C146 1.370 . S
C147 C151 1.408 . S
C148 C146 1.363 . S
C148 C149 1.370 . S
C148 C152 1.524 1_554 S
C149 C141 1.503 1_554 S
C149 C148 1.370 . S
C149 C150 1.403 . S
C150 C149 1.403 . S
C150 C151 1.404 . S
C150 C153 1.539 . S
C151 C147 1.408 . S
C151 C150 1.404 . S
C151 H163 0.930 . S
C152 C148 1.524 1_556 S
C152 H164 0.956 . S
C152 H165 0.961 . S
C152 H166 0.961 . S
C153 C150 1.539 . S
C153 H167 0.958 . S
C153 H168 0.961 . S
C153 H169 0.960 . S
H154 C138 0.931 . S
H155 C143 0.929 . S
H156 C144 0.960 . S
H157 C144 0.962 . S
H158 C144 0.960 . S
H159 C145 0.961 . S
H160 C145 0.961 . S
H161 C145 0.961 . S
H162 C146 0.931 . S
H163 C151 0.930 . S
H164 C152 0.956 . S
H165 C152 0.961 . S
H166 C152 0.961 . S
H167 C153 0.958 . S
H168 C153 0.961 . S
H169 C153 0.960 . S
C170 C171 1.391 . S
C170 C172 1.394 . S
C170 H186 0.931 . S
C171 C170 1.391 . S
C171 C175 1.376 . S
C172 C170 1.394 . S
C172 C173 1.369 . S
C172 C176 1.531 . S
C173 C172 1.369 . S
C173 C174 1.410 . S
C173 C181 1.503 . S
C174 C173 1.410 . S
C174 C175 1.392 . S
C174 C177 1.511 . S
C175 C171 1.376 . S
C175 C174 1.392 . S
C175 H187 0.929 . S
C176 C172 1.531 . S
C176 H188 0.960 . S
C176 H189 0.962 . S
C176 H190 0.960 . S
C177 C174 1.511 . S
C177 H191 0.961 . S
C177 H192 0.961 . S
C177 H193 0.961 . S
C178 C179 1.370 . S
C178 C180 1.363 . S
C178 H194 0.931 . S
C179 C178 1.370 . S
C179 C183 1.408 . S
C180 C178 1.363 . S
C180 C181 1.370 . S
C180 C184 1.524 . S
C181 C173 1.503 . S
C181 C180 1.370 . S
C181 C182 1.403 . S
C182 C181 1.403 . S
C182 C183 1.404 . S
C182 C185 1.539 . S
C183 C179 1.408 . S
C183 C182 1.404 . S
C183 H195 0.930 . S
C184 C180 1.524 . S
C184 H196 0.956 . S
C184 H197 0.961 . S
C184 H198 0.961 . S
C185 C182 1.539 . S
C185 H199 0.958 . S
C185 H200 0.961 . S
C185 H201 0.960 . S
H186 C170 0.931 . S
H187 C175 0.929 . S
H188 C176 0.960 . S
H189 C176 0.962 . S
H190 C176 0.960 . S
H191 C177 0.961 . S
H192 C177 0.961 . S
H193 C177 0.961 . S
H194 C178 0.931 . S
H195 C183 0.930 . S
H196 C184 0.956 . S
H197 C184 0.961 . S
H198 C184 0.961 . S
H199 C185 0.958 . S
H200 C185 0.961 . S
H201 C185 0.960 . S
C202 C203 1.391 . S
C202 C204 1.394 . S
C202 H218 0.931 . S
C203 C202 1.391 . S
C203 C207 1.376 . S
C204 C202 1.394 . S
C204 C205 1.369 . S
C204 C208 1.531 . S
C205 C204 1.369 . S
C205 C206 1.410 . S
C205 C213 1.503 . S
C206 C205 1.410 . S
C206 C207 1.392 . S
C206 C209 1.511 . S
C207 C203 1.376 . S
C207 C206 1.392 . S
C207 H219 0.929 . S
C208 C204 1.531 . S
C208 H220 0.960 . S
C208 H221 0.962 . S
C208 H222 0.960 . S
C209 C206 1.511 . S
C209 H223 0.961 . S
C209 H224 0.961 . S
C209 H225 0.961 . S
C210 C211 1.370 . S
C210 C212 1.363 . S
C210 H226 0.931 . S
C211 C210 1.370 . S
C211 C215 1.408 . S
C212 C210 1.363 . S
C212 C213 1.370 . S
C212 C216 1.524 . S
C213 C205 1.503 . S
C213 C212 1.370 . S
C213 C214 1.403 . S
C214 C213 1.403 . S
C214 C215 1.404 . S
C214 C217 1.539 . S
C215 C211 1.408 . S
C215 C214 1.404 . S
C215 H227 0.930 . S
C216 C212 1.524 . S
C216 H228 0.956 . S
C216 H229 0.961 . S
C216 H230 0.961 . S
C217 C214 1.539 . S
C217 H231 0.958 . S
C217 H232 0.961 . S
C217 H233 0.960 . S
H218 C202 0.931 . S
H219 C207 0.929 . S
H220 C208 0.960 . S
H221 C208 0.962 . S
H222 C208 0.960 . S
H223 C209 0.961 . S
H224 C209 0.961 . S
H225 C209 0.961 . S
H226 C210 0.931 . S
H227 C215 0.930 . S
H228 C216 0.956 . S
H229 C216 0.961 . S
H230 C216 0.961 . S
H231 C217 0.958 . S
H232 C217 0.961 . S
H233 C217 0.960 . S
C43 C40 1.323 . S
C51 C5 1.094 . S
C75 C12 1.352 . S
C83 C26 1.349 . S
C107 C19 1.072 . S
C115 C39 1.228 . S
C139 C32 1.207 . S
C147 C11 1.231 . S
C171 C18 1.281 . S
C179 C4 1.312 . S
C203 C33 1.116 . S
C211 C25 1.223 . S
