# Generated by pormake.
# Topology uoo, (4)-cn, num edge types: 1
# Building blocks:
#     Node 0, Type 0, BuildingBlock: CEKHIL_clean_sbu_0, # of connection points: 4
#     Node 1, Type 0, BuildingBlock: CEKHIL_clean_sbu_0, # of connection points: 4
#     Node 2, Type 0, BuildingBlock: CEKHIL_clean_sbu_0, # of connection points: 4
#     Node 3, Type 0, BuildingBlock: CEKHIL_clean_sbu_0, # of connection points: 4
#     Node 4, Type 0, BuildingBlock: CEKHIL_clean_sbu_0, # of connection points: 4
#     Node 5, Type 0, BuildingBlock: CEKHIL_clean_sbu_0, # of connection points: 4
#     Edge 6, Type (0, 0), BuildingBlock: EYOCIG_clean_linker_4, # of connection points: 2
#     Edge 7, Type (0, 0), BuildingBlock: EYOCIG_clean_linker_4, # of connection points: 2
#     Edge 8, Type (0, 0), BuildingBlock: EYOCIG_clean_linker_4, # of connection points: 2
#     Edge 9, Type (0, 0), BuildingBlock: EYOCIG_clean_linker_4, # of connection points: 2
#     Edge 10, Type (0, 0), BuildingBlock: EYOCIG_clean_linker_4, # of connection points: 2
#     Edge 11, Type (0, 0), BuildingBlock: EYOCIG_clean_linker_4, # of connection points: 2
#     Edge 12, Type (0, 0), BuildingBlock: EYOCIG_clean_linker_4, # of connection points: 2
#     Edge 13, Type (0, 0), BuildingBlock: EYOCIG_clean_linker_4, # of connection points: 2
#     Edge 14, Type (0, 0), BuildingBlock: EYOCIG_clean_linker_4, # of connection points: 2
#     Edge 15, Type (0, 0), BuildingBlock: EYOCIG_clean_linker_4, # of connection points: 2
#     Edge 16, Type (0, 0), BuildingBlock: EYOCIG_clean_linker_4, # of connection points: 2
#     Edge 17, Type (0, 0), BuildingBlock: EYOCIG_clean_linker_4, # of connection points: 2
# Relax obj value: 0.253
# Max RMSD: 0.173
# Mean RMSD: 0.173
data_MOF--net-uoo--node1-CEKHIL_clean_sbu_0--edge1-EYOCIG_clean_linker_4
_symmetry_space_group_name_H-M    P1
_symmetry_Int_Tables_number       1
_symmetry_cell_setting            triclinic
loop_
_symmetry_equiv_pos_as_xyz
'x, y, z'
_cell_length_a     19.249441
_cell_length_b     19.243645
_cell_length_c     30.436602
_cell_angle_alpha  90.03944
_cell_angle_beta   89.961329
_cell_angle_gamma 120.03754
loop_
_atom_site_label
_atom_site_type_symbol
_atom_site_fract_x
_atom_site_fract_y
_atom_site_fract_z
_atom_type_partial_charge
Co0 Co 0.14132 0.31338 0.98731 0.0
O1 O 0.03538 0.29731 0.97454 0.0
O2 O 0.14143 0.41144 -0.00361 0.0
C3 C 0.15089 0.25086 0.92734 0.0
O4 O 0.25953 0.36085 0.00105 0.0
Co5 Co 0.185 0.18273 0.00447 0.0
O6 O 0.29902 0.27007 0.00811 0.0
C7 C 0.09677 0.21747 0.07151 0.0
C8 C 0.06739 0.37333 0.98385 0.0
C9 C 0.31391 0.34228 0.00739 0.0
O10 O 0.1098 0.2806 0.0503 0.0
O11 O 0.11561 0.16667 0.05715 0.0
O12 O 0.16589 0.32444 0.92502 0.0
O13 O 0.12627 0.21501 0.9648 0.0
Co14 Co 0.82869 0.14257 0.3214 0.0
O15 O 0.73806 0.037 0.30855 0.0
O16 O 0.73125 0.14319 0.33142 0.0
C17 C 0.89952 0.1527 0.26081 0.0
O18 O 0.90034 0.26063 0.33525 0.0
Co19 Co 0.00334 0.18531 0.33695 0.0
O20 O 0.03088 0.29966 0.33963 0.0
C21 C 0.88197 0.09774 0.40495 0.0
C22 C 0.69466 0.0694 0.31837 0.0
C23 C 0.97383 0.31491 0.34019 0.0
O24 O 0.83121 0.11038 0.38416 0.0
O25 O 0.95134 0.1167 0.39008 0.0
O26 O 0.84101 0.16783 0.25918 0.0
O27 O 0.91118 0.12739 0.2979 0.0
Co28 Co 0.6865 0.82975 0.65453 0.0
O29 O 0.70192 0.7394 0.64171 0.0
O30 O 0.58822 0.73188 0.66371 0.0
C31 C 0.74898 0.90156 0.59442 0.0
O32 O 0.63955 0.90095 0.66837 0.0
Co33 Co 0.81774 0.00439 0.67121 0.0
O34 O 0.73067 0.03127 0.67527 0.0
C35 C 0.78247 0.88212 0.73879 0.0
C36 C 0.62592 0.69561 0.65105 0.0
C37 C 0.65841 0.97403 0.67476 0.0
O38 O 0.71959 0.83142 0.71754 0.0
O39 O 0.8332 0.95169 0.72429 0.0
O40 O 0.67531 0.84308 0.59221 0.0
O41 O 0.78488 0.91282 0.63183 0.0
Co42 Co 0.85544 0.68614 0.98747 0.0
O43 O 0.96068 0.70049 0.97447 0.0
O44 O 0.85361 0.58716 -0.00375 0.0
C45 C 0.8465 0.74951 0.92779 0.0
O46 O 0.73753 0.64042 0.00135 0.0
Co47 Co 0.81456 0.81896 0.00501 0.0
O48 O 0.70001 0.73276 0.00833 0.0
C49 C 0.90159 0.78199 0.07172 0.0
C50 C 0.92765 0.62435 0.98367 0.0
C51 C 0.68397 0.66018 0.00761 0.0
O52 O 0.88741 0.71848 0.05047 0.0
O53 O 0.88393 0.83367 0.05745 0.0
O54 O 0.83067 0.67567 0.92521 0.0
O55 O 0.87186 0.7851 0.96525 0.0
Co56 Co 0.17056 0.85774 0.32119 0.0
O57 O 0.26061 0.96355 0.30817 0.0
O58 O 0.26841 0.85796 0.33107 0.0
C59 C 0.09921 0.8467 0.26077 0.0
O60 O 0.09956 0.73964 0.33521 0.0
Co61 Co 0.99573 0.81413 0.33715 0.0
O62 O 0.96888 0.69998 0.33988 0.0
C63 C 0.11766 0.9035 0.40454 0.0
C64 C 0.30449 0.93172 0.318 0.0
C65 C 0.02619 0.68511 0.34029 0.0
O66 O 0.16817 0.89025 0.38389 0.0
O67 O 0.0482 0.88428 0.38974 0.0
O68 O 0.15807 0.8321 0.25902 0.0
O69 O 0.08753 0.8721 0.29785 0.0
Co70 Co 0.31306 0.17036 0.65468 0.0
O71 O 0.29839 0.26103 0.64158 0.0
O72 O 0.41128 0.26795 0.66454 0.0
C73 C 0.25192 0.09931 0.59415 0.0
O74 O 0.35946 0.09887 0.66891 0.0
Co75 Co 0.18145 0.99582 0.67055 0.0
O76 O 0.26819 0.96848 0.67493 0.0
C77 C 0.21431 0.1178 0.73797 0.0
C78 C 0.37419 0.30452 0.65141 0.0
C79 C 0.34046 0.02569 0.67499 0.0
O80 O 0.2782 0.16832 0.71737 0.0
O81 O 0.16391 0.0484 0.72309 0.0
O82 O 0.32581 0.15748 0.59248 0.0
O83 O 0.21514 0.08771 0.63132 0.0
C84 C 0.18419 0.1582 0.81554 0.0
C85 C 0.1982 0.14003 0.78011 0.0
C86 C 0.16962 0.18367 0.85623 0.0
C87 C 0.16001 0.21128 0.8897 0.0
C88 C 0.9861 0.17413 0.18964 0.0
C89 C 0.94836 0.16338 0.22301 0.0
C90 C 0.02652 0.18906 0.14907 0.0
C91 C 0.05857 0.20252 0.11362 0.0
C92 C 0.84175 0.02814 0.48277 0.0
C93 C 0.85986 0.0599 0.44723 0.0
C94 C 0.81616 0.988 0.52344 0.0
C95 C 0.78846 0.95047 0.55681 0.0
C96 C 0.82539 0.81656 0.85746 0.0
C97 C 0.83617 0.78916 0.89063 0.0
C98 C 0.81046 0.84174 0.81682 0.0
C99 C 0.79726 0.85974 0.78117 0.0
C100 C 0.01226 0.82431 0.18973 0.0
C101 C 0.05012 0.83549 0.22306 0.0
C102 C 0.9718 0.80938 0.1492 0.0
C103 C 0.93976 0.79638 0.11379 0.0
C104 C 0.18499 0.01468 0.5226 0.0
C105 C 0.21284 0.05157 0.55613 0.0
C106 C 0.15884 0.97454 0.48196 0.0
C107 C 0.14011 0.94211 0.4466 0.0
C108 C 0.46058 0.46635 0.01602 0.0
C109 C 0.39511 0.40721 0.01236 0.0
C110 C 0.53662 0.53731 0.01608 0.0
C111 C 0.60236 0.59612 0.01251 0.0
C112 C 0.99771 0.46208 0.34838 0.0
C113 C 0.99092 0.39641 0.34485 0.0
C114 C 0.00289 0.53814 0.3484 0.0
C115 C 0.00951 0.60374 0.34491 0.0
C116 C 0.46397 0.00242 0.68411 0.0
C117 C 0.40506 0.00902 0.68021 0.0
C118 C 0.53483 0.9972 0.68402 0.0
C119 C 0.59374 0.99057 0.68007 0.0
C120 C 0.46882 0.45984 0.64383 0.0
C121 C 0.41896 0.38974 0.64584 0.0
C122 C 0.53208 0.54013 0.64375 0.0
C123 C 0.58173 0.61032 0.64566 0.0
C124 C 0.98828 0.52974 0.97666 0.0
C125 C 0.96811 0.57962 0.97847 0.0
C126 C 0.00529 0.46656 0.97671 0.0
C127 C 0.02598 0.41709 0.97856 0.0
C128 C 0.53962 0.00921 0.31066 0.0
C129 C 0.60955 0.02902 0.31272 0.0
C130 C 0.45967 0.99292 0.31055 0.0
C131 C 0.38964 0.97277 0.31245 0.0
loop_
_geom_bond_atom_site_label_1
_geom_bond_atom_site_label_2
_geom_bond_distance
_geom_bond_site_symmetry_2
_ccdc_geom_bond_type
Co0 O1 2.216 . S
Co0 O2 2.091 . S
Co0 O4 2.004 1_556 S
Co0 O10 2.021 1_556 S
Co0 O12 2.137 . S
Co0 O13 2.244 . S
O1 Co0 2.216 . S
O1 C8 1.247 . S
O2 Co0 2.091 . S
O2 C8 1.261 . S
C3 O12 1.247 . S
C3 O13 1.272 . S
O4 Co0 2.004 1_554 S
O4 C9 1.259 . S
Co5 O6 2.061 . S
Co5 O11 2.052 . S
Co5 O13 2.135 1_554 S
O6 Co5 2.061 . S
O6 C9 1.235 . S
C7 O10 1.238 . S
C7 O11 1.241 . S
C8 O1 1.247 . S
C8 O2 1.261 . S
C9 O4 1.259 . S
C9 O6 1.235 . S
O10 Co0 2.021 1_554 S
O10 C7 1.238 . S
O11 Co5 2.052 . S
O11 C7 1.241 . S
O12 Co0 2.137 . S
O12 C3 1.247 . S
O13 Co0 2.244 . S
O13 C3 1.272 . S
O13 Co5 2.135 1_556 S
Co14 O15 2.216 . S
Co14 O16 2.091 . S
Co14 O18 2.004 . S
Co14 O24 2.021 . S
Co14 O26 2.137 . S
Co14 O27 2.244 . S
O15 Co14 2.216 . S
O15 C22 1.247 . S
O16 Co14 2.091 . S
O16 C22 1.261 . S
C17 O26 1.247 . S
C17 O27 1.272 . S
O18 Co14 2.004 . S
O18 C23 1.259 . S
Co19 O20 2.061 . S
Co19 O25 2.052 1_455 S
Co19 O27 2.135 1_455 S
O20 Co19 2.061 . S
O20 C23 1.235 1_455 S
C21 O24 1.238 . S
C21 O25 1.241 . S
C22 O15 1.247 . S
C22 O16 1.261 . S
C23 O18 1.259 . S
C23 O20 1.235 1_655 S
O24 Co14 2.021 . S
O24 C21 1.238 . S
O25 Co19 2.052 1_655 S
O25 C21 1.241 . S
O26 Co14 2.137 . S
O26 C17 1.247 . S
O27 Co14 2.244 . S
O27 C17 1.272 . S
O27 Co19 2.135 1_655 S
Co28 O29 2.216 . S
Co28 O30 2.091 . S
Co28 O32 2.004 . S
Co28 O38 2.021 . S
Co28 O40 2.137 . S
Co28 O41 2.244 . S
O29 Co28 2.216 . S
O29 C36 1.247 . S
O30 Co28 2.091 . S
O30 C36 1.261 . S
C31 O40 1.247 . S
C31 O41 1.272 . S
O32 Co28 2.004 . S
O32 C37 1.259 . S
Co33 O34 2.061 . S
Co33 O39 2.052 1_545 S
Co33 O41 2.135 1_545 S
O34 Co33 2.061 . S
O34 C37 1.235 1_545 S
C35 O38 1.238 . S
C35 O39 1.241 . S
C36 O29 1.247 . S
C36 O30 1.261 . S
C37 O32 1.259 . S
C37 O34 1.235 1_565 S
O38 Co28 2.021 . S
O38 C35 1.238 . S
O39 Co33 2.052 1_565 S
O39 C35 1.241 . S
O40 Co28 2.137 . S
O40 C31 1.247 . S
O41 Co28 2.244 . S
O41 C31 1.272 . S
O41 Co33 2.135 1_565 S
Co42 O43 2.216 . S
Co42 O44 2.091 . S
Co42 O46 2.004 1_556 S
Co42 O52 2.021 1_556 S
Co42 O54 2.137 . S
Co42 O55 2.244 . S
O43 Co42 2.216 . S
O43 C50 1.247 . S
O44 Co42 2.091 . S
O44 C50 1.261 . S
C45 O54 1.247 . S
C45 O55 1.272 . S
O46 Co42 2.004 1_554 S
O46 C51 1.259 . S
Co47 O48 2.061 . S
Co47 O53 2.052 . S
Co47 O55 2.135 1_554 S
O48 Co47 2.061 . S
O48 C51 1.235 . S
C49 O52 1.238 . S
C49 O53 1.241 . S
C50 O43 1.247 . S
C50 O44 1.261 . S
C51 O46 1.259 . S
C51 O48 1.235 . S
O52 Co42 2.021 1_554 S
O52 C49 1.238 . S
O53 Co47 2.052 . S
O53 C49 1.241 . S
O54 Co42 2.137 . S
O54 C45 1.247 . S
O55 Co42 2.244 . S
O55 C45 1.272 . S
O55 Co47 2.135 1_556 S
Co56 O57 2.216 . S
Co56 O58 2.091 . S
Co56 O60 2.004 . S
Co56 O66 2.021 . S
Co56 O68 2.137 . S
Co56 O69 2.244 . S
O57 Co56 2.216 . S
O57 C64 1.247 . S
O58 Co56 2.091 . S
O58 C64 1.261 . S
C59 O68 1.247 . S
C59 O69 1.272 . S
O60 Co56 2.004 . S
O60 C65 1.259 . S
Co61 O62 2.061 . S
Co61 O67 2.052 1_655 S
Co61 O69 2.135 1_655 S
O62 Co61 2.061 . S
O62 C65 1.235 1_655 S
C63 O66 1.238 . S
C63 O67 1.241 . S
C64 O57 1.247 . S
C64 O58 1.261 . S
C65 O60 1.259 . S
C65 O62 1.235 1_455 S
O66 Co56 2.021 . S
O66 C63 1.238 . S
O67 Co61 2.052 1_455 S
O67 C63 1.241 . S
O68 Co56 2.137 . S
O68 C59 1.247 . S
O69 Co56 2.244 . S
O69 C59 1.272 . S
O69 Co61 2.135 1_455 S
Co70 O71 2.216 . S
Co70 O72 2.091 . S
Co70 O74 2.004 . S
Co70 O80 2.021 . S
Co70 O82 2.137 . S
Co70 O83 2.244 . S
O71 Co70 2.216 . S
O71 C78 1.247 . S
O72 Co70 2.091 . S
O72 C78 1.261 . S
C73 O82 1.247 . S
C73 O83 1.272 . S
O74 Co70 2.004 . S
O74 C79 1.259 . S
Co75 O76 2.061 . S
Co75 O81 2.052 1_565 S
Co75 O83 2.135 1_565 S
O76 Co75 2.061 . S
O76 C79 1.235 1_565 S
C77 O80 1.238 . S
C77 O81 1.241 . S
C78 O71 1.247 . S
C78 O72 1.261 . S
C79 O74 1.259 . S
C79 O76 1.235 1_545 S
O80 Co70 2.021 . S
O80 C77 1.238 . S
O81 Co75 2.052 1_545 S
O81 C77 1.241 . S
O82 Co70 2.137 . S
O82 C73 1.247 . S
O83 Co70 2.244 . S
O83 C73 1.272 . S
O83 Co75 2.135 1_545 S
C84 C85 1.170 . S
C84 C86 1.380 . S
C85 C84 1.170 . S
C86 C84 1.380 . S
C86 C87 1.170 . S
C87 C86 1.170 . S
C88 C89 1.170 . S
C88 C90 1.380 1_655 S
C89 C88 1.170 . S
C90 C88 1.380 1_455 S
C90 C91 1.170 . S
C91 C90 1.170 . S
C92 C93 1.170 . S
C92 C94 1.380 1_545 S
C93 C92 1.170 . S
C94 C92 1.380 1_565 S
C94 C95 1.170 . S
C95 C94 1.170 . S
C96 C97 1.170 . S
C96 C98 1.380 . S
C97 C96 1.170 . S
C98 C96 1.380 . S
C98 C99 1.170 . S
C99 C98 1.170 . S
C100 C101 1.170 . S
C100 C102 1.380 1_455 S
C101 C100 1.170 . S
C102 C100 1.380 1_655 S
C102 C103 1.170 . S
C103 C102 1.170 . S
C104 C105 1.170 . S
C104 C106 1.380 1_545 S
C105 C104 1.170 . S
C106 C104 1.380 1_565 S
C106 C107 1.170 . S
C107 C106 1.170 . S
C108 C109 1.170 . S
C108 C110 1.380 . S
C109 C108 1.170 . S
C110 C108 1.380 . S
C110 C111 1.170 . S
C111 C110 1.170 . S
C112 C113 1.170 . S
C112 C114 1.380 1_655 S
C113 C112 1.170 . S
C114 C112 1.380 1_455 S
C114 C115 1.170 . S
C115 C114 1.170 . S
C116 C117 1.170 . S
C116 C118 1.380 1_545 S
C117 C116 1.170 . S
C118 C116 1.380 1_565 S
C118 C119 1.170 . S
C119 C118 1.170 . S
C120 C121 1.170 . S
C120 C122 1.380 . S
C121 C120 1.170 . S
C122 C120 1.380 . S
C122 C123 1.170 . S
C123 C122 1.170 . S
C124 C125 1.170 . S
C124 C126 1.370 1_655 S
C125 C124 1.170 . S
C126 C124 1.370 1_455 S
C126 C127 1.181 . S
C127 C126 1.181 . S
C128 C129 1.170 . S
C128 C130 1.380 1_545 S
C129 C128 1.170 . S
C130 C128 1.380 1_565 S
C130 C131 1.170 . S
C131 C130 1.170 . S
C85 C77 1.344 . S
C87 C3 1.336 . S
C89 C17 1.314 . S
C91 C7 1.349 . S
C93 C21 1.344 . S
C95 C31 1.342 . S
C97 C45 1.337 . S
C99 C35 1.345 . S
C101 C59 1.314 . S
C103 C49 1.349 . S
C105 C73 1.331 . S
C107 C63 1.345 . S
C109 C9 1.551 . S
C111 C51 1.561 . S
C113 C23 1.547 . S
C115 C65 1.545 . S
C117 C79 1.563 . S
C119 C37 1.565 . S
C121 C78 1.459 . S
C123 C36 1.478 . S
C125 C50 1.455 . S
C127 C8 1.480 . S
C129 C22 1.460 . S
C131 C64 1.477 . S
