# Generated by pormake.
# Topology snp, (6)-cn, num edge types: 1
# Building blocks:
#     Node 0, Type 0, BuildingBlock: JUFBIX_clean_sbu_0, # of connection points: 6
#     Node 1, Type 0, BuildingBlock: JUFBIX_clean_sbu_0, # of connection points: 6
#     Node 2, Type 0, BuildingBlock: JUFBIX_clean_sbu_0, # of connection points: 6
#     Node 3, Type 0, BuildingBlock: JUFBIX_clean_sbu_0, # of connection points: 6
#     Edge 4, Type (0, 0), BuildingBlock: AJUNOK_clean_linker_0, # of connection points: 2
#     Edge 5, Type (0, 0), BuildingBlock: AJUNOK_clean_linker_0, # of connection points: 2
#     Edge 6, Type (0, 0), BuildingBlock: AJUNOK_clean_linker_0, # of connection points: 2
#     Edge 7, Type (0, 0), BuildingBlock: AJUNOK_clean_linker_0, # of connection points: 2
#     Edge 8, Type (0, 0), BuildingBlock: AJUNOK_clean_linker_0, # of connection points: 2
#     Edge 9, Type (0, 0), BuildingBlock: AJUNOK_clean_linker_0, # of connection points: 2
#     Edge 10, Type (0, 0), BuildingBlock: AJUNOK_clean_linker_0, # of connection points: 2
#     Edge 11, Type (0, 0), BuildingBlock: AJUNOK_clean_linker_0, # of connection points: 2
#     Edge 12, Type (0, 0), BuildingBlock: AJUNOK_clean_linker_0, # of connection points: 2
#     Edge 13, Type (0, 0), BuildingBlock: AJUNOK_clean_linker_0, # of connection points: 2
#     Edge 14, Type (0, 0), BuildingBlock: AJUNOK_clean_linker_0, # of connection points: 2
#     Edge 15, Type (0, 0), BuildingBlock: AJUNOK_clean_linker_0, # of connection points: 2
# Relax obj value: 0.749
# Max RMSD: 0.277
# Mean RMSD: 0.273
data_MOF--net-snp--node1-JUFBIX_clean_sbu_0--edge1-AJUNOK_clean_linker_0
_symmetry_space_group_name_H-M    P1
_symmetry_Int_Tables_number       1
_symmetry_cell_setting            triclinic
loop_
_symmetry_equiv_pos_as_xyz
'x, y, z'
_cell_length_a     20.741679
_cell_length_b     20.363606
_cell_length_c     20.735412
_cell_angle_alpha  86.57715
_cell_angle_beta   97.832189
_cell_angle_gamma 100.03343
loop_
_atom_site_label
_atom_site_type_symbol
_atom_site_fract_x
_atom_site_fract_y
_atom_site_fract_z
_atom_type_partial_charge
Co0 Co 0.26719 0.08314 0.14341 0.0
C1 C 0.37514 0.04032 0.10955 0.0
Co2 Co 0.24276 0.00425 0.07117 0.0
C3 C 0.25862 0.15385 0.25798 0.0
C4 C 0.33412 0.20444 0.2034 0.0
N5 N 0.28662 0.15008 0.20346 0.0
N6 N 0.28645 0.20857 0.29182 0.0
C7 C 0.33437 0.24027 0.25769 0.0
H8 H 0.21867 0.11693 0.2727 0.0
H9 H 0.36731 0.21654 0.16684 0.0
C10 C 0.13539 0.04029 0.10876 0.0
N11 N 0.22454 0.9365 1.01188 0.0
C12 C 0.1898 0.93583 0.95185 0.0
C13 C 0.24497 0.87686 1.01978 0.0
N14 N 0.18709 0.87781 0.92215 0.0
C15 C 0.22206 0.84077 0.96488 0.0
C16 C 0.24703 0.9572 0.20115 0.0
O17 O 0.17702 0.07889 0.14586 0.0
O18 O 0.15428 0.00647 0.06787 0.0
O19 O 0.23447 0.93939 0.1423 0.0
O20 O 0.26814 0.0182 0.21274 0.0
O21 O 0.33176 0.00098 0.07527 0.0
H22 H 0.27474 0.86065 0.06275 0.0
H23 H 0.16812 -0.02218 0.93015 0.0
O24 O 0.35778 0.08442 0.14112 0.0
O25 O 0.26321 0.14822 0.07379 0.0
O26 O 0.24806 0.07023 1.00196 0.0
C27 C 0.25269 0.13135 1.01476 0.0
H28 H 0.36865 0.28501 0.27181 0.0
H29 H 0.2296 0.79063 0.95749 0.0
Co30 Co -0.00245 0.24376 0.71549 0.0
C31 C 0.03431 0.37626 0.68179 0.0
Co32 Co 0.08529 0.26385 0.66271 0.0
C33 C 0.91826 0.19276 0.81946 0.0
C34 C 0.86632 0.24703 0.74394 0.0
N35 N 0.92501 0.22692 0.76203 0.0
N36 N 0.8575 0.19024 0.83723 0.0
C37 C 0.82473 0.22435 0.78983 0.0
H38 H 0.95666 0.16905 0.84711 0.0
H39 H 0.85445 0.27629 0.70003 0.0
C40 C 0.04304 0.13195 0.68763 0.0
N41 N 0.15696 0.28107 0.61576 0.0
C42 C 0.16481 0.24996 0.56234 0.0
C43 C 0.20907 0.33109 0.62327 0.0
N44 N 0.21862 0.27934 0.53526 0.0
C45 C 0.24704 0.33021 0.57377 0.0
C46 C 0.11923 0.26114 0.79552 0.0
O47 O 0.00094 0.15264 0.71696 0.0
O48 O 0.08771 0.17349 0.66443 0.0
O49 O 0.14263 0.27121 0.74162 0.0
O50 O 0.05683 0.25234 0.79549 0.0
O51 O 0.08053 0.35484 0.65966 0.0
H52 H 0.21775 0.3671 0.66111 0.0
H53 H 0.13028 0.20814 0.54204 0.0
O54 O -0.00664 0.33581 0.71132 0.0
O55 O 0.93982 0.23213 0.63414 0.0
O56 O 0.0279 0.25326 0.58376 0.0
C57 C 0.96591 0.23574 0.58163 0.0
H58 H 0.7744 0.23258 0.78869 0.0
H59 H 0.29153 0.3648 0.56629 0.0
Co60 Co 0.76771 0.00024 0.19373 0.0
C61 C 0.87237 0.95582 0.16151 0.0
Co62 Co 0.73904 0.91924 0.12373 0.0
C63 C 0.82247 0.07341 0.31099 0.0
C64 C 0.76464 0.12874 0.24187 0.0
N65 N 0.78691 0.07004 0.25125 0.0
N66 N 0.82364 0.13211 0.33903 0.0
C67 C 0.78697 0.1668 0.29558 0.0
H68 H 0.84577 0.03284 0.33384 0.0
H69 H 0.73364 0.1428 0.1988 0.0
C70 C 0.63416 0.96825 0.15503 0.0
N71 N 0.71918 0.8505 0.06593 0.0
C72 C 0.75092 0.84373 1.0147 0.0
C73 C 0.67115 0.7965 0.06562 0.0
N74 N 0.725 0.78755 0.98261 0.0
C75 C 0.67429 0.75793 1.01405 0.0
C76 C 0.7508 0.87425 0.25272 0.0
O77 O 0.67964 0.00653 0.18792 0.0
O78 O 0.64842 0.92201 0.12375 0.0
O79 O 0.73915 0.85618 0.19422 0.0
O80 O 0.75967 0.93607 0.26449 0.0
O81 O 0.82941 0.91912 0.12387 0.0
H82 H 0.63598 0.78606 0.10045 0.0
H83 H 0.79129 0.88038 1.00023 0.0
O84 O 0.85516 -0.00566 0.19918 0.0
O85 O 0.77851 0.06308 0.12063 0.0
O86 O 0.7415 -0.01791 0.05312 0.0
C87 C 0.76413 0.04326 0.06245 0.0
H88 H 0.77775 0.21661 0.30176 0.0
H89 H 0.64185 0.71182 1.00062 0.0
Co90 Co 0.92185 0.74899 0.60176 0.0
C91 C -0.03268 0.88005 0.56661 0.0
Co92 Co 0.00787 0.76524 0.54657 0.0
C93 C 0.84797 0.72466 0.71314 0.0
C94 C 0.79521 0.76722 0.62984 0.0
N95 N 0.85075 0.74172 0.64937 0.0
N96 N 0.79331 0.73946 0.73404 0.0
C97 C 0.75975 0.76537 0.68128 0.0
H98 H 0.88701 0.70516 0.7443 0.0
H99 H 0.7842 0.79163 0.58305 0.0
C100 C -0.02957 0.63473 0.5906 0.0
N101 N 0.07949 0.77593 0.49905 0.0
C102 C 0.08608 0.80847 0.44085 0.0
C103 C 0.13799 0.7556 0.51751 0.0
N104 N 0.14629 0.80915 0.42241 0.0
C105 C 0.17918 0.77624 0.47077 0.0
C106 C 0.04205 0.78035 0.67935 0.0
O107 O 0.92435 0.65657 0.6131 0.0
O108 O 0.0087 0.67374 0.55697 0.0
O109 O 0.06701 0.78029 0.62659 0.0
O110 O -0.01986 0.76486 0.67872 0.0
O111 O 0.00782 0.85595 0.53846 0.0
H112 H 0.1504 0.72858 0.56272 0.0
H113 H 0.04823 0.83325 0.41364 0.0
O114 O 0.92238 0.84105 0.59225 0.0
O115 O 0.86333 0.73578 0.52348 0.0
O116 O 0.94768 0.75298 0.46801 0.0
C117 C 0.88542 0.74365 0.4689 0.0
H118 H 0.71557 0.78694 0.68124 0.0
H119 H 0.22958 0.76809 0.47234 0.0
C120 C 0.95531 -0.02799 0.08635 0.0
C121 C 0.94073 0.96682 0.15073 0.0
C122 C 0.01843 -0.00088 0.0727 0.0
C123 C 0.06816 0.02168 0.12309 0.0
H124 H 0.91711 0.95815 0.04605 0.0
H125 H 0.0284 0.00265 1.02251 0.0
S126 S 0.05621 0.00881 0.30047 0.0
N127 N -0.01895 -0.02028 0.26562 0.0
N128 N 0.10096 0.03018 0.24018 0.0
C129 C 0.05473 0.0141 0.18796 0.0
C130 C -0.00946 -0.01363 0.20177 0.0
C131 C 0.94172 -0.0268 0.62391 0.0
C132 C -0.0149 0.94855 0.58879 0.0
C133 C 0.96273 0.02996 0.66031 0.0
C134 C 0.02775 0.06469 0.66236 0.0
H135 H 0.89158 0.94728 0.62503 0.0
H136 H 0.92693 0.04761 0.68547 0.0
S137 S 0.1607 0.02168 0.578 0.0
N138 N 0.09607 0.96392 0.55725 0.0
N139 N 0.13559 0.07078 0.62635 0.0
C140 C 0.0717 0.04091 0.62725 0.0
C141 C 0.05019 -0.01672 0.58971 0.0
C142 C 0.52205 0.95998 0.09358 0.0
C143 C 0.5673 -0.01563 0.14677 0.0
C144 C 0.46104 -0.01897 0.08022 0.0
C145 C 0.44309 0.02705 0.11968 0.0
H146 H 0.53419 0.92539 0.06122 0.0
H147 H 0.42742 0.96039 0.03892 0.0
S148 S 0.54371 0.10455 0.26614 0.0
N149 N 0.58996 0.05603 0.24019 0.0
N150 N 0.47506 0.09585 0.21461 0.0
C151 C 0.48795 0.05199 0.17303 0.0
C152 C 0.55001 0.03031 0.18688 0.0
C153 C 0.962 0.46324 0.67394 0.0
C154 C 0.02184 0.44452 0.66335 0.0
C155 C 0.94474 0.52402 0.64871 0.0
C156 C -0.01355 0.56816 0.61159 0.0
H157 H 0.9274 0.43015 0.70076 0.0
H158 H 0.89836 0.5364 0.65846 0.0
S159 S 0.15048 0.54402 0.57252 0.0
N160 N 0.12426 0.47637 0.61564 0.0
N161 N 0.09152 0.58962 0.56718 0.0
C162 C 0.04688 0.55031 0.60128 0.0
C163 C 0.06474 0.4889 0.6276 0.0
C164 C 0.23171 0.19549 0.45886 0.0
C165 C 0.23746 0.26266 0.47464 0.0
C166 C 0.24785 0.17817 0.39923 0.0
C167 C 0.26991 0.22743 0.35285 0.0
H168 H 0.21513 0.15606 0.49321 0.0
H169 H 0.2437 0.12581 0.38972 0.0
S170 S 0.28569 0.41051 0.3676 0.0
N171 N 0.26209 0.37853 0.43735 0.0
N172 N 0.29153 0.34627 0.32509 0.0
C173 C 0.27443 0.29482 0.36757 0.0
C174 C 0.25842 0.31236 0.42845 0.0
C175 C 0.86775 0.1652 0.95613 0.0
C176 C 0.8318 0.15639 0.89377 0.0
C177 C 0.84333 0.13181 1.0115 0.0
C178 C 0.78283 0.08731 1.00608 0.0
H179 H 0.9151 0.19795 0.96195 0.0
H180 H 0.87346 0.13852 0.05836 0.0
S181 S 0.67057 0.04657 0.85348 0.0
N182 N 0.73268 0.10076 0.82991 0.0
N183 N 0.68767 0.03672 0.93326 0.0
C184 C 0.74638 0.07862 0.94397 0.0
C185 C 0.7706 0.1135 0.88801 0.0
C186 C 0.86801 0.77318 0.34983 0.0
C187 C 0.84133 0.75881 0.40899 0.0
C188 C 0.83531 0.80655 0.29774 0.0
C189 C 0.77528 0.82761 0.30313 0.0
H190 H 0.9165 0.76257 0.34502 0.0
H191 H 0.85947 0.82001 0.25449 0.0
S192 S 0.67803 0.79199 0.44146 0.0
N193 N 0.74496 0.75864 0.46479 0.0
N194 N 0.68627 0.82535 0.36785 0.0
C195 C 0.74545 0.80947 0.35943 0.0
C196 C 0.77765 0.77361 0.41198 0.0
C197 C 0.14269 0.78983 0.76293 0.0
C198 C 0.08162 0.80837 0.73906 0.0
C199 C 0.17738 0.8136 0.82234 0.0
C200 C 0.1527 0.85759 0.85919 0.0
H201 H 0.1628 0.75542 0.73656 0.0
H202 H 0.22383 0.79726 0.83968 0.0
S203 S -0.00205 0.92693 0.81251 0.0
N204 N 0.00029 0.87727 0.75316 0.0
N205 N 0.06473 0.92143 0.86444 0.0
C206 C 0.0928 0.8785 0.83397 0.0
C207 C 0.05745 0.85394 0.77402 0.0
C208 C 0.6952 0.74288 0.87264 0.0
C209 C 0.74383 0.76719 0.9235 0.0
C210 C 0.71224 0.73049 0.81193 0.0
C211 C 0.77853 0.7413 0.79989 0.0
H212 H 0.64346 0.73639 0.87886 0.0
H213 H 0.67306 0.71432 0.77326 0.0
S214 S 0.92485 0.79646 0.92044 0.0
N215 N 0.86111 0.79518 0.96054 0.0
N216 N 0.89345 0.77291 0.84622 0.0
C217 C 0.82791 0.76192 0.85172 0.0
C218 C 0.81042 0.7748 0.9135 0.0
C219 C 0.26181 0.91439 0.31695 0.0
C220 C 0.22454 0.91156 0.25493 0.0
C221 C 0.23657 0.87936 0.37103 0.0
C222 C 0.17227 0.8421 0.36554 0.0
H223 H 0.31036 0.9449 0.32391 0.0
H224 H 0.26665 0.88337 0.41804 0.0
S225 S 0.05385 0.82035 0.21435 0.0
N226 N 0.12005 0.86834 0.19115 0.0
N227 N 0.07206 0.80435 0.29314 0.0
C228 C 0.13455 0.83881 0.3038 0.0
C229 C 0.16087 0.87299 0.24842 0.0
C230 C 0.21663 0.21203 0.84766 0.0
C231 C 0.16252 0.24337 0.85473 0.0
C232 C 0.24879 0.17903 0.90063 0.0
C233 C 0.22972 0.1783 0.96307 0.0
H234 H 0.23112 0.20838 0.79991 0.0
H235 H 0.28685 0.15146 0.89212 0.0
S236 S 0.09529 0.25777 1.00902 0.0
N237 N 0.09397 0.27454 0.92998 0.0
N238 N 0.15627 0.21521 0.03007 0.0
C239 C 0.17901 0.21355 0.97182 0.0
C240 C 0.14497 0.24546 0.91754 0.0
C241 C 0.83092 0.19686 0.43831 0.0
C242 C 0.85795 0.15495 0.40122 0.0
C243 C 0.86506 0.22231 0.49744 0.0
C244 C 0.92797 0.20774 0.52077 0.0
H245 H 0.78291 0.20998 0.42152 0.0
H246 H 0.84279 0.25458 0.52425 0.0
S247 S 0.01901 0.09736 0.44493 0.0
N248 N 0.95075 0.09866 0.39401 0.0
N249 N 0.0137 0.14487 0.50503 0.0
C250 C 0.95462 0.16452 0.48513 0.0
C251 C 0.91997 0.1385 0.42541 0.0
loop_
_geom_bond_atom_site_label_1
_geom_bond_atom_site_label_2
_geom_bond_distance
_geom_bond_site_symmetry_2
_ccdc_geom_bond_type
Co0 N5 2.057 . S
Co0 O17 2.021 . S
Co0 O20 2.062 . S
Co0 O24 2.117 . S
Co0 O25 2.020 . S
C1 O21 1.259 . S
C1 O24 1.258 . S
Co2 N11 2.057 1_544 S
Co2 O18 2.117 . S
Co2 O19 2.020 1_545 S
Co2 O21 2.021 . S
Co2 O26 2.062 1_554 S
C3 N5 1.316 . S
C3 N6 1.347 . S
C3 H8 0.931 . S
C4 N5 1.375 . S
C4 C7 1.350 . S
C4 H9 0.930 . S
N5 Co0 2.057 . S
N5 C3 1.316 . S
N5 C4 1.375 . S
N6 C3 1.347 . S
N6 C7 1.373 . S
C7 C4 1.350 . S
C7 N6 1.373 . S
C7 H28 0.931 . S
H8 C3 0.931 . S
H9 C4 0.930 . S
C10 O17 1.259 . S
C10 O18 1.258 . S
N11 Co2 2.057 1_566 S
N11 C12 1.316 . S
N11 C13 1.375 . S
C12 N11 1.316 . S
C12 N14 1.347 . S
C12 H23 0.931 . S
C13 N11 1.375 . S
C13 C15 1.350 . S
C13 H22 0.930 . S
N14 C12 1.347 . S
N14 C15 1.373 . S
C15 C13 1.350 . S
C15 N14 1.373 . S
C15 H29 0.931 . S
C16 O19 1.256 . S
C16 O20 1.255 1_565 S
O17 Co0 2.021 . S
O17 C10 1.259 . S
O18 Co2 2.117 . S
O18 C10 1.258 . S
O19 Co2 2.020 1_565 S
O19 C16 1.256 . S
O20 Co0 2.062 . S
O20 C16 1.255 1_545 S
O21 C1 1.259 . S
O21 Co2 2.021 . S
H22 C13 0.930 . S
H23 C12 0.931 . S
O24 Co0 2.117 . S
O24 C1 1.258 . S
O25 Co0 2.020 . S
O25 C27 1.256 1_554 S
O26 Co2 2.062 1_556 S
O26 C27 1.255 . S
C27 O25 1.256 1_556 S
C27 O26 1.255 . S
H28 C7 0.931 . S
H29 C15 0.931 . S
Co30 N35 2.057 1_455 S
Co30 O47 2.021 . S
Co30 O50 2.062 . S
Co30 O54 2.117 . S
Co30 O55 2.020 1_455 S
C31 O51 1.259 . S
C31 O54 1.258 . S
Co32 N41 2.057 . S
Co32 O48 2.117 . S
Co32 O49 2.020 . S
Co32 O51 2.021 . S
Co32 O56 2.062 . S
C33 N35 1.316 . S
C33 N36 1.347 . S
C33 H38 0.931 . S
C34 N35 1.375 . S
C34 C37 1.350 . S
C34 H39 0.930 . S
N35 Co30 2.057 1_655 S
N35 C33 1.316 . S
N35 C34 1.375 . S
N36 C33 1.347 . S
N36 C37 1.373 . S
C37 C34 1.350 . S
C37 N36 1.373 . S
C37 H58 0.931 . S
H38 C33 0.931 . S
H39 C34 0.930 . S
C40 O47 1.259 . S
C40 O48 1.258 . S
N41 Co32 2.057 . S
N41 C42 1.316 . S
N41 C43 1.375 . S
C42 N41 1.316 . S
C42 N44 1.347 . S
C42 H53 0.931 . S
C43 N41 1.375 . S
C43 C45 1.350 . S
C43 H52 0.930 . S
N44 C42 1.347 . S
N44 C45 1.373 . S
C45 C43 1.350 . S
C45 N44 1.373 . S
C45 H59 0.931 . S
C46 O49 1.256 . S
C46 O50 1.255 . S
O47 Co30 2.021 . S
O47 C40 1.259 . S
O48 Co32 2.117 . S
O48 C40 1.258 . S
O49 Co32 2.020 . S
O49 C46 1.256 . S
O50 Co30 2.062 . S
O50 C46 1.255 . S
O51 C31 1.259 . S
O51 Co32 2.021 . S
H52 C43 0.930 . S
H53 C42 0.931 . S
O54 Co30 2.117 . S
O54 C31 1.258 . S
O55 Co30 2.020 1_655 S
O55 C57 1.256 . S
O56 Co32 2.062 . S
O56 C57 1.255 1_455 S
C57 O55 1.256 . S
C57 O56 1.255 1_655 S
H58 C37 0.931 . S
H59 C45 0.931 . S
Co60 N65 2.057 . S
Co60 O77 2.021 . S
Co60 O80 2.062 1_545 S
Co60 O84 2.117 . S
Co60 O85 2.020 . S
C61 O81 1.259 . S
C61 O84 1.258 1_565 S
Co62 N71 2.057 . S
Co62 O78 2.117 . S
Co62 O79 2.020 . S
Co62 O81 2.021 . S
Co62 O86 2.062 1_565 S
C63 N65 1.316 . S
C63 N66 1.347 . S
C63 H68 0.931 . S
C64 N65 1.375 . S
C64 C67 1.350 . S
C64 H69 0.930 . S
N65 Co60 2.057 . S
N65 C63 1.316 . S
N65 C64 1.375 . S
N66 C63 1.347 . S
N66 C67 1.373 . S
C67 C64 1.350 . S
C67 N66 1.373 . S
C67 H88 0.931 . S
H68 C63 0.931 . S
H69 C64 0.930 . S
C70 O77 1.259 . S
C70 O78 1.258 1_545 S
N71 Co62 2.057 . S
N71 C72 1.316 1_554 S
N71 C73 1.375 1_554 S
C72 N71 1.316 1_556 S
C72 N74 1.347 . S
C72 H83 0.931 . S
C73 N71 1.375 1_556 S
C73 C75 1.350 . S
C73 H82 0.930 1_556 S
N74 C72 1.347 . S
N74 C75 1.373 . S
C75 C73 1.350 . S
C75 N74 1.373 . S
C75 H89 0.931 . S
C76 O79 1.256 . S
C76 O80 1.255 . S
O77 Co60 2.021 . S
O77 C70 1.259 . S
O78 Co62 2.117 . S
O78 C70 1.258 1_565 S
O79 Co62 2.020 . S
O79 C76 1.256 . S
O80 Co60 2.062 1_565 S
O80 C76 1.255 . S
O81 C61 1.259 . S
O81 Co62 2.021 . S
H82 C73 0.930 1_554 S
H83 C72 0.931 . S
O84 Co60 2.117 . S
O84 C61 1.258 1_545 S
O85 Co60 2.020 . S
O85 C87 1.256 . S
O86 Co62 2.062 1_545 S
O86 C87 1.255 . S
C87 O85 1.256 . S
C87 O86 1.255 . S
H88 C67 0.931 . S
H89 C75 0.931 . S
Co90 N95 2.057 . S
Co90 O107 2.021 . S
Co90 O110 2.062 1_655 S
Co90 O114 2.117 . S
Co90 O115 2.020 . S
C91 O111 1.259 . S
C91 O114 1.258 1_455 S
Co92 N101 2.057 . S
Co92 O108 2.117 . S
Co92 O109 2.020 . S
Co92 O111 2.021 . S
Co92 O116 2.062 1_455 S
C93 N95 1.316 . S
C93 N96 1.347 . S
C93 H98 0.931 . S
C94 N95 1.375 . S
C94 C97 1.350 . S
C94 H99 0.930 . S
N95 Co90 2.057 . S
N95 C93 1.316 . S
N95 C94 1.375 . S
N96 C93 1.347 . S
N96 C97 1.373 . S
C97 C94 1.350 . S
C97 N96 1.373 . S
C97 H118 0.931 . S
H98 C93 0.931 . S
H99 C94 0.930 . S
C100 O107 1.259 . S
C100 O108 1.258 1_655 S
N101 Co92 2.057 . S
N101 C102 1.316 . S
N101 C103 1.375 . S
C102 N101 1.316 . S
C102 N104 1.347 . S
C102 H113 0.931 . S
C103 N101 1.375 . S
C103 C105 1.350 . S
C103 H112 0.930 . S
N104 C102 1.347 . S
N104 C105 1.373 . S
C105 C103 1.350 . S
C105 N104 1.373 . S
C105 H119 0.931 . S
C106 O109 1.256 . S
C106 O110 1.255 . S
O107 Co90 2.021 . S
O107 C100 1.259 . S
O108 Co92 2.117 . S
O108 C100 1.258 1_455 S
O109 Co92 2.020 . S
O109 C106 1.256 . S
O110 Co90 2.062 1_455 S
O110 C106 1.255 . S
O111 C91 1.259 . S
O111 Co92 2.021 . S
H112 C103 0.930 . S
H113 C102 0.931 . S
O114 Co90 2.117 . S
O114 C91 1.258 1_655 S
O115 Co90 2.020 . S
O115 C117 1.256 . S
O116 Co92 2.062 1_655 S
O116 C117 1.255 . S
C117 O115 1.256 . S
C117 O116 1.255 . S
H118 C97 0.931 . S
H119 C105 0.931 . S
C120 C121 1.369 . S
C120 C122 1.419 1_655 S
C120 H124 0.930 . S
C121 C120 1.369 . S
C121 C130 1.429 1_655 S
C122 C120 1.419 1_455 S
C122 C123 1.363 . S
C122 H125 0.929 1_554 S
C123 C122 1.363 . S
C123 C129 1.428 . S
H124 C120 0.930 . S
H125 C122 0.929 1_556 S
S126 N127 1.613 . S
S126 N128 1.610 . S
N127 S126 1.613 . S
N127 C130 1.350 . S
N128 S126 1.610 . S
N128 C129 1.351 . S
C129 C123 1.428 . S
C129 N128 1.351 . S
C129 C130 1.434 . S
C130 C121 1.429 1_455 S
C130 N127 1.350 . S
C130 C129 1.434 . S
C131 C132 1.369 1_645 S
C131 C133 1.419 1_655 S
C131 H135 0.930 . S
C132 C131 1.369 1_465 S
C132 C141 1.429 . S
C133 C131 1.419 1_455 S
C133 C134 1.363 . S
C133 H136 0.929 1_455 S
C134 C133 1.363 . S
C134 C140 1.428 . S
H135 C131 0.930 . S
H136 C133 0.929 1_655 S
S137 N138 1.613 . S
S137 N139 1.610 1_565 S
N138 S137 1.613 . S
N138 C141 1.350 . S
N139 S137 1.610 1_545 S
N139 C140 1.351 . S
C140 C134 1.428 . S
C140 N139 1.351 . S
C140 C141 1.434 1_545 S
C141 C132 1.429 . S
C141 N138 1.350 . S
C141 C140 1.434 1_565 S
C142 C143 1.369 1_565 S
C142 C144 1.419 . S
C142 H146 0.930 . S
C143 C142 1.369 1_545 S
C143 C152 1.429 . S
C144 C142 1.419 . S
C144 C145 1.363 1_565 S
C144 H147 0.929 . S
C145 C144 1.363 1_545 S
C145 C151 1.428 . S
H146 C142 0.930 . S
H147 C144 0.929 . S
S148 N149 1.613 . S
S148 N150 1.610 . S
N149 S148 1.613 . S
N149 C152 1.350 . S
N150 S148 1.610 . S
N150 C151 1.351 . S
C151 C145 1.428 . S
C151 N150 1.351 . S
C151 C152 1.434 . S
C152 C143 1.429 . S
C152 N149 1.350 . S
C152 C151 1.434 . S
C153 C154 1.369 1_655 S
C153 C155 1.419 . S
C153 H157 0.930 . S
C154 C153 1.369 1_455 S
C154 C163 1.429 . S
C155 C153 1.419 . S
C155 C156 1.363 1_655 S
C155 H158 0.929 . S
C156 C155 1.363 1_455 S
C156 C162 1.428 . S
H157 C153 0.930 . S
H158 C155 0.929 . S
S159 N160 1.613 . S
S159 N161 1.610 . S
N160 S159 1.613 . S
N160 C163 1.350 . S
N161 S159 1.610 . S
N161 C162 1.351 . S
C162 C156 1.428 . S
C162 N161 1.351 . S
C162 C163 1.434 . S
C163 C154 1.429 . S
C163 N160 1.350 . S
C163 C162 1.434 . S
C164 C165 1.369 . S
C164 C166 1.419 . S
C164 H168 0.930 . S
C165 C164 1.369 . S
C165 C174 1.429 . S
C166 C164 1.419 . S
C166 C167 1.363 . S
C166 H169 0.929 . S
C167 C166 1.363 . S
C167 C173 1.428 . S
H168 C164 0.930 . S
H169 C166 0.929 . S
S170 N171 1.613 . S
S170 N172 1.610 . S
N171 S170 1.613 . S
N171 C174 1.350 . S
N172 S170 1.610 . S
N172 C173 1.351 . S
C173 C167 1.428 . S
C173 N172 1.351 . S
C173 C174 1.434 . S
C174 C165 1.429 . S
C174 N171 1.350 . S
C174 C173 1.434 . S
C175 C176 1.369 . S
C175 C177 1.419 . S
C175 H179 0.930 . S
C176 C175 1.369 . S
C176 C185 1.429 . S
C177 C175 1.419 . S
C177 C178 1.363 . S
C177 H180 0.929 1_556 S
C178 C177 1.363 . S
C178 C184 1.428 . S
H179 C175 0.930 . S
H180 C177 0.929 1_554 S
S181 N182 1.613 . S
S181 N183 1.610 . S
N182 S181 1.613 . S
N182 C185 1.350 . S
N183 S181 1.610 . S
N183 C184 1.351 . S
C184 C178 1.428 . S
C184 N183 1.351 . S
C184 C185 1.434 . S
C185 C176 1.429 . S
C185 N182 1.350 . S
C185 C184 1.434 . S
C186 C187 1.369 . S
C186 C188 1.419 . S
C186 H190 0.930 . S
C187 C186 1.369 . S
C187 C196 1.429 . S
C188 C186 1.419 . S
C188 C189 1.363 . S
C188 H191 0.929 . S
C189 C188 1.363 . S
C189 C195 1.428 . S
H190 C186 0.930 . S
H191 C188 0.929 . S
S192 N193 1.613 . S
S192 N194 1.610 . S
N193 S192 1.613 . S
N193 C196 1.350 . S
N194 S192 1.610 . S
N194 C195 1.351 . S
C195 C189 1.428 . S
C195 N194 1.351 . S
C195 C196 1.434 . S
C196 C187 1.429 . S
C196 N193 1.350 . S
C196 C195 1.434 . S
C197 C198 1.369 . S
C197 C199 1.419 . S
C197 H201 0.930 . S
C198 C197 1.369 . S
C198 C207 1.429 . S
C199 C197 1.419 . S
C199 C200 1.363 . S
C199 H202 0.929 . S
C200 C199 1.363 . S
C200 C206 1.428 . S
H201 C197 0.930 . S
H202 C199 0.929 . S
S203 N204 1.613 . S
S203 N205 1.610 . S
N204 S203 1.613 . S
N204 C207 1.350 . S
N205 S203 1.610 . S
N205 C206 1.351 . S
C206 C200 1.428 . S
C206 N205 1.351 . S
C206 C207 1.434 . S
C207 C198 1.429 . S
C207 N204 1.350 . S
C207 C206 1.434 . S
C208 C209 1.369 . S
C208 C210 1.419 . S
C208 H212 0.930 . S
C209 C208 1.369 . S
C209 C218 1.429 . S
C210 C208 1.419 . S
C210 C211 1.363 . S
C210 H213 0.929 . S
C211 C210 1.363 . S
C211 C217 1.428 . S
H212 C208 0.930 . S
H213 C210 0.929 . S
S214 N215 1.613 . S
S214 N216 1.610 . S
N215 S214 1.613 . S
N215 C218 1.350 . S
N216 S214 1.610 . S
N216 C217 1.351 . S
C217 C211 1.428 . S
C217 N216 1.351 . S
C217 C218 1.434 . S
C218 C209 1.429 . S
C218 N215 1.350 . S
C218 C217 1.434 . S
C219 C220 1.369 . S
C219 C221 1.419 . S
C219 H223 0.930 1_565 S
C220 C219 1.369 . S
C220 C229 1.429 . S
C221 C219 1.419 . S
C221 C222 1.363 . S
C221 H224 0.929 . S
C222 C221 1.363 . S
C222 C228 1.428 . S
H223 C219 0.930 1_545 S
H224 C221 0.929 . S
S225 N226 1.613 . S
S225 N227 1.610 . S
N226 S225 1.613 . S
N226 C229 1.350 . S
N227 S225 1.610 . S
N227 C228 1.351 . S
C228 C222 1.428 . S
C228 N227 1.351 . S
C228 C229 1.434 . S
C229 C220 1.429 . S
C229 N226 1.350 . S
C229 C228 1.434 . S
C230 C231 1.369 . S
C230 C232 1.419 . S
C230 H234 0.930 . S
C231 C230 1.369 . S
C231 C240 1.429 . S
C232 C230 1.419 . S
C232 C233 1.363 . S
C232 H235 0.929 . S
C233 C232 1.363 . S
C233 C239 1.428 . S
H234 C230 0.930 . S
H235 C232 0.929 . S
S236 N237 1.613 . S
S236 N238 1.610 . S
N237 S236 1.613 . S
N237 C240 1.350 . S
N238 S236 1.610 . S
N238 C239 1.351 . S
C239 C233 1.428 . S
C239 N238 1.351 . S
C239 C240 1.434 . S
C240 C231 1.429 . S
C240 N237 1.350 . S
C240 C239 1.434 . S
C241 C242 1.369 . S
C241 C243 1.419 . S
C241 H245 0.930 . S
C242 C241 1.369 . S
C242 C251 1.429 . S
C243 C241 1.419 . S
C243 C244 1.363 . S
C243 H246 0.929 . S
C244 C243 1.363 . S
C244 C250 1.428 . S
H245 C241 0.930 . S
H246 C243 0.929 . S
S247 N248 1.626 . S
S247 N249 1.614 1_655 S
N248 S247 1.626 . S
N248 C251 1.350 . S
N249 S247 1.614 1_455 S
N249 C250 1.351 1_455 S
C250 C244 1.428 . S
C250 N249 1.351 1_655 S
C250 C251 1.434 . S
C251 C242 1.429 . S
C251 N248 1.350 . S
C251 C250 1.434 . S
C121 C61 1.069 1_545 S
C123 C10 1.060 . S
C132 C91 1.156 . S
C134 C40 1.169 . S
C143 C70 0.925 . S
C145 C1 0.931 . S
C154 C31 1.028 . S
C156 C100 1.018 1_455 S
C165 N44 1.252 . S
C167 N6 1.339 . S
C176 N36 1.563 . S
C178 C87 1.543 1_556 S
C187 C117 1.661 . S
C189 C76 1.674 . S
C198 C106 1.436 . S
C200 N14 1.321 . S
C209 N74 1.338 . S
C211 N96 1.242 . S
C220 C16 1.543 . S
C222 N104 1.562 . S
C231 C46 1.663 . S
C233 C27 1.671 . S
C242 N66 1.322 . S
C244 C57 1.436 . S
