# Generated by pormake.
# Topology cds, (4)-cn, num edge types: 1
# Building blocks:
#     Node 0, Type 0, BuildingBlock: NAWXER_clean_sbu_0, # of connection points: 4
#     Node 1, Type 0, BuildingBlock: NAWXER_clean_sbu_0, # of connection points: 4
#     Edge 2, Type (0, 0), BuildingBlock: XUDNAN_clean_linker_2, # of connection points: 2
#     Edge 3, Type (0, 0), BuildingBlock: XUDNAN_clean_linker_2, # of connection points: 2
#     Edge 4, Type (0, 0), BuildingBlock: XUDNAN_clean_linker_2, # of connection points: 2
#     Edge 5, Type (0, 0), BuildingBlock: XUDNAN_clean_linker_2, # of connection points: 2
# Relax obj value: 0.000
# Max RMSD: 0.000
# Mean RMSD: 0.000
data_MOF--net-cds--node1-NAWXER_clean_sbu_0--edge1-XUDNAN_clean_linker_2
_symmetry_space_group_name_H-M    P1
_symmetry_Int_Tables_number       1
_symmetry_cell_setting            triclinic
loop_
_symmetry_equiv_pos_as_xyz
'x, y, z'
_cell_length_a     14.613834
_cell_length_b     14.610577
_cell_length_c     29.139196
_cell_angle_alpha  96.530296
_cell_angle_beta   96.320923
_cell_angle_gamma 89.844056
loop_
_atom_site_label
_atom_site_type_symbol
_atom_site_fract_x
_atom_site_fract_y
_atom_site_fract_z
_atom_type_partial_charge
C0 C 0.23361 0.89303 1.00344 0.0
C1 C 0.89897 0.89509 1.00125 0.0
O2 O 0.1796 0.82524 0.98895 0.0
Zn3 Zn 0.0654 0.89265 0.99634 0.0
O4 O 0.20064 0.97291 0.01434 0.0
Zn5 Zn 0.06925 0.03716 0.0166 0.0
O6 O 0.07898 0.09033 0.08014 0.0
O7 O 0.08276 0.9376 0.07112 0.0
O8 O 0.93663 0.97479 0.01192 0.0
O9 O 0.94731 0.82659 0.98812 0.0
O10 O 0.05611 0.97412 0.93933 0.0
O11 O 0.06412 0.11963 0.96941 0.0
C12 C 0.08599 1.01441 0.09763 0.0
C13 C 0.0575 0.05996 0.93402 0.0
C14 C 0.9109 0.25242 0.51012 0.0
C15 C 0.91124 0.9185 0.51113 0.0
O16 O 0.99153 0.21869 0.51711 0.0
Zn17 Zn 0.05456 0.0871 0.51857 0.0
O18 O 0.84136 0.19897 0.49992 0.0
Zn19 Zn 0.90899 0.08407 0.50454 0.0
O20 O 0.96572 0.0994 0.57795 0.0
O21 O 0.11779 0.10486 0.57991 0.0
O22 O 0.84206 0.96693 0.4993 0.0
O23 O 0.99168 0.95538 0.51891 0.0
O24 O 0.1284 0.07188 0.46765 0.0
O25 O 0.98009 0.07127 0.44349 0.0
C26 C 0.04608 0.10701 0.60106 0.0
C27 C 0.06403 0.0667 0.43454 0.0
H28 H 0.98585 0.10588 0.16176 0.0
H29 H 0.21497 0.92 0.14687 0.0
H30 H 0.2389 0.9185 0.23231 0.0
H31 H 0.07381 0.23708 0.27033 0.0
H32 H 0.96388 0.24332 0.29309 0.0
H33 H 0.969 0.23488 0.23127 0.0
H34 H 0.86352 0.0899 0.21965 0.0
H35 H 0.85792 0.09802 0.28141 0.0
H36 H 0.89613 0.99307 0.25088 0.0
H37 H 0.24048 0.94174 0.31929 0.0
H38 H 0.20823 0.97209 0.4012 0.0
H39 H 0.96795 0.1296 0.35858 0.0
C40 C 0.04149 0.06572 0.17675 0.0
C41 C 0.09959 1.01402 0.1483 0.0
C42 C 0.17028 0.96025 0.1685 0.0
C43 C 0.18447 0.95932 0.21684 0.0
C44 C 0.12594 1.01096 0.24414 0.0
C45 C 0.05484 0.06189 0.2248 0.0
C46 C 0.99775 0.10589 0.26158 0.0
C47 C 1.00138 0.21156 0.26421 0.0
C48 C 0.89793 0.06952 0.25285 0.0
C49 C 0.04825 0.07234 0.30464 0.0
C50 C 0.12291 0.01901 0.29391 0.0
C51 C 0.18177 0.98272 0.32809 0.0
C52 C 0.16317 1.00057 0.37445 0.0
C53 C 0.08535 0.0525 0.38596 0.0
C54 C 0.02735 0.08882 0.35057 0.0
H55 H 0.97318 0.97337 0.85213 0.0
H56 H 0.14393 0.20982 0.91022 0.0
H57 H 0.15748 0.24975 0.83098 0.0
H58 H 0.08729 0.90885 0.75312 0.0
H59 H 0.98429 0.8789 0.71437 0.0
H60 H 0.98581 0.87011 0.77558 0.0
H61 H 0.84462 0.97735 0.77916 0.0
H62 H 0.84218 0.98585 0.71783 0.0
H63 H 0.84903 0.08883 0.75853 0.0
H64 H 0.16619 0.25338 0.7454 0.0
H65 H 0.15149 0.23334 0.65927 0.0
H66 H 0.96224 1.0047 0.65716 0.0
C67 C 1.01261 0.03404 0.84808 0.0
C68 C 0.05786 0.08846 0.88709 0.0
C69 C 0.10837 0.16766 0.88067 0.0
C70 C 0.11678 0.19057 0.83586 0.0
C71 C 0.07246 0.13471 0.79802 0.0
C72 C 0.01968 0.05927 0.80367 0.0
C73 C 0.97782 1.01158 0.75725 0.0
C74 C 1.01081 0.91144 0.74965 0.0
C75 C 0.87214 0.01622 0.75295 0.0
C76 C 0.01712 0.07068 0.72457 0.0
C77 C 0.07244 0.14069 0.74877 0.0
C78 C 0.12163 0.20004 0.72607 0.0
C79 C 0.11333 0.18796 0.67733 0.0
C80 C 0.05491 0.11846 0.65208 0.0
C81 C 1.0059 0.0595 0.67595 0.0
H82 H 0.75187 0.80589 0.94566 0.0
H83 H 0.83149 0.96171 0.07987 0.0
H84 H 0.67112 0.95919 0.0979 0.0
H85 H 0.54732 0.92498 0.9217 0.0
H86 H 0.47981 0.82743 0.89329 0.0
H87 H 0.60288 0.82775 0.89296 0.0
H88 H 0.61283 0.67402 0.92948 0.0
H89 H 0.48952 0.67315 0.92984 0.0
H90 H 0.56363 0.66578 0.98297 0.0
H91 H 0.50512 0.95767 0.09874 0.0
H92 H 0.33646 0.9586 0.08197 0.0
H93 H 0.35551 0.8041 0.94719 0.0
C94 C 0.73529 0.83709 0.97921 0.0
C95 C 0.80366 0.88334 1.01166 0.0
C96 C 0.77979 0.92588 0.05471 0.0
C97 C 0.68908 0.92437 0.06537 0.0
C98 C 0.62262 0.88036 0.03249 0.0
C99 C 0.64389 0.83737 0.99025 0.0
C100 C 0.55672 0.80338 0.95968 0.0
C101 C 0.54609 0.84861 0.91423 0.0
C102 C 0.55563 0.69779 0.94992 0.0
C103 C 0.48367 0.83667 0.99089 0.0
C104 C 0.52407 0.87976 0.03292 0.0
C105 C 0.47245 0.92276 0.06637 0.0
C106 C 0.37684 0.92324 0.05646 0.0
C107 C 0.3335 0.8807 0.0136 0.0
C108 C 0.38727 0.8352 0.98064 0.0
H109 H 0.81509 0.77256 0.45826 0.0
H110 H 0.98731 0.85026 0.58777 0.0
H111 H 0.98805 0.68935 0.6051 0.0
H112 H 0.68252 0.58354 0.50005 0.0
H113 H 0.68257 0.51033 0.44591 0.0
H114 H 0.6826 0.63386 0.44636 0.0
H115 H 0.82926 0.62446 0.40368 0.0
H116 H 0.8299 0.50121 0.40327 0.0
H117 H 0.92995 0.56843 0.42848 0.0
H118 H 0.98858 0.52285 0.60462 0.0
H119 H 0.98791 0.3542 0.58665 0.0
H120 H 0.81489 0.37575 0.45755 0.0
C121 C 0.85051 0.75548 0.49076 0.0
C122 C 0.90056 0.8234 0.52198 0.0
C123 C 0.94855 0.79889 0.56357 0.0
C124 C 0.94898 0.70787 0.57381 0.0
C125 C 0.90132 0.64181 0.54199 0.0
C126 C 0.85267 0.66382 0.50133 0.0
C127 C 0.81521 0.57709 0.47135 0.0
C128 C 0.70942 0.57617 0.46559 0.0
C129 C 0.85339 0.56725 0.42389 0.0
C130 C 0.85309 0.50336 0.50092 0.0
C131 C 0.90156 0.54306 0.54174 0.0
C132 C 0.94945 0.49074 0.57327 0.0
C133 C 0.94902 0.39515 0.56267 0.0
C134 C 0.90066 0.35252 0.52106 0.0
C135 C 0.85058 0.40698 0.49007 0.0
loop_
_geom_bond_atom_site_label_1
_geom_bond_atom_site_label_2
_geom_bond_distance
_geom_bond_site_symmetry_2
_ccdc_geom_bond_type
C0 O2 1.251 1_554 S
C0 O4 1.257 1_565 S
C1 O8 1.251 1_556 S
C1 O9 1.254 1_545 S
O2 C0 1.251 1_556 S
O2 Zn3 2.025 . S
Zn3 O2 2.025 . S
Zn3 O7 2.035 1_556 S
Zn3 O9 2.036 1_455 S
Zn3 O10 2.028 1_455 S
O4 C0 1.257 1_545 S
O4 Zn5 2.036 . S
Zn5 O4 2.036 . S
Zn5 O6 2.028 . S
Zn5 O8 2.027 1_455 S
Zn5 O11 2.035 1_454 S
O6 Zn5 2.028 . S
O6 C12 1.251 . S
O7 Zn3 2.035 1_554 S
O7 C12 1.254 1_565 S
O8 C1 1.251 1_554 S
O8 Zn5 2.027 1_655 S
O9 C1 1.254 1_565 S
O9 Zn3 2.036 1_655 S
O10 Zn3 2.028 1_655 S
O10 C13 1.248 . S
O11 Zn5 2.035 1_656 S
O11 C13 1.257 1_545 S
C12 O6 1.251 . S
C12 O7 1.254 1_545 S
C13 O10 1.248 . S
C13 O11 1.257 1_565 S
C14 O16 1.251 . S
C14 O18 1.254 1_455 S
C15 O22 1.248 . S
C15 O23 1.256 1_655 S
O16 C14 1.251 . S
O16 Zn17 2.028 . S
Zn17 O16 2.028 . S
Zn17 O21 2.035 . S
Zn17 O23 2.035 1_545 S
Zn17 O24 2.028 1_545 S
O18 C14 1.254 1_655 S
O18 Zn19 2.023 1_545 S
Zn19 O18 2.023 1_565 S
Zn19 O20 2.029 1_565 S
Zn19 O22 2.040 . S
Zn19 O25 2.034 . S
O20 Zn19 2.029 1_545 S
O20 C26 1.248 . S
O21 Zn17 2.035 . S
O21 C26 1.256 1_455 S
O22 C15 1.248 . S
O22 Zn19 2.040 . S
O23 C15 1.256 1_455 S
O23 Zn17 2.035 1_565 S
O24 Zn17 2.028 1_565 S
O24 C27 1.251 . S
O25 Zn19 2.034 . S
O25 C27 1.254 1_655 S
C26 O20 1.248 . S
C26 O21 1.256 1_655 S
C27 O24 1.251 . S
C27 O25 1.254 1_455 S
H28 C40 0.928 1_455 S
H29 C42 0.930 . S
H30 C43 0.930 . S
H31 C47 0.959 . S
H32 C47 0.959 . S
H33 C47 0.961 . S
H34 C48 0.960 . S
H35 C48 0.961 . S
H36 C48 0.959 . S
H37 C51 0.929 . S
H38 C52 0.931 . S
H39 C54 0.930 1_455 S
C40 H28 0.928 1_655 S
C40 C41 1.399 1_545 S
C40 C45 1.401 . S
C41 C40 1.399 1_565 S
C41 C42 1.376 . S
C42 H29 0.930 . S
C42 C41 1.376 . S
C42 C43 1.388 . S
C43 H30 0.930 . S
C43 C42 1.388 . S
C43 C44 1.390 . S
C44 C43 1.390 . S
C44 C45 1.394 1_565 S
C44 C50 1.465 . S
C45 C40 1.401 . S
C45 C44 1.394 1_545 S
C45 C46 1.516 . S
C46 C45 1.516 . S
C46 C47 1.502 1_655 S
C46 C48 1.561 . S
C46 C49 1.526 . S
C47 H31 0.959 . S
C47 H32 0.959 . S
C47 H33 0.961 . S
C47 C46 1.502 1_455 S
C48 H34 0.960 . S
C48 H35 0.961 . S
C48 H36 0.959 . S
C48 C46 1.561 . S
C49 C46 1.526 . S
C49 C50 1.396 1_545 S
C49 C54 1.390 . S
C50 C44 1.465 . S
C50 C49 1.396 1_565 S
C50 C51 1.399 . S
C51 H37 0.929 . S
C51 C50 1.399 . S
C51 C52 1.385 . S
C52 H38 0.931 . S
C52 C51 1.385 . S
C52 C53 1.389 . S
C53 C52 1.389 . S
C53 C54 1.387 1_565 S
C54 H39 0.930 1_655 S
C54 C49 1.390 . S
C54 C53 1.387 1_545 S
H55 C67 0.930 . S
H56 C69 0.930 . S
H57 C70 0.930 . S
H58 C74 0.959 . S
H59 C74 0.959 . S
H60 C74 0.961 . S
H61 C75 0.960 . S
H62 C75 0.961 . S
H63 C75 0.959 . S
H64 C78 0.929 . S
H65 C79 0.931 . S
H66 C81 0.930 . S
C67 H55 0.930 . S
C67 C68 1.399 1_645 S
C67 C72 1.399 . S
C68 C67 1.399 1_465 S
C68 C69 1.376 . S
C69 H56 0.930 . S
C69 C68 1.376 . S
C69 C70 1.388 . S
C70 H57 0.930 . S
C70 C69 1.388 . S
C70 C71 1.390 . S
C71 C70 1.390 . S
C71 C72 1.394 1_465 S
C71 C77 1.465 . S
C72 C67 1.399 . S
C72 C71 1.394 1_645 S
C72 C73 1.516 . S
C73 C72 1.516 . S
C73 C74 1.502 . S
C73 C75 1.561 1_655 S
C73 C76 1.526 . S
C74 H58 0.959 . S
C74 H59 0.959 . S
C74 H60 0.961 . S
C74 C73 1.502 . S
C75 H61 0.960 . S
C75 H62 0.961 . S
C75 H63 0.959 . S
C75 C73 1.561 1_455 S
C76 C73 1.526 . S
C76 C77 1.396 1_645 S
C76 C81 1.390 . S
C77 C71 1.465 . S
C77 C76 1.396 1_465 S
C77 C78 1.399 . S
C78 H64 0.929 . S
C78 C77 1.399 . S
C78 C79 1.385 . S
C79 H65 0.931 . S
C79 C78 1.385 . S
C79 C80 1.389 . S
C80 C79 1.389 . S
C80 C81 1.387 1_465 S
C81 H66 0.930 . S
C81 C76 1.390 . S
C81 C80 1.387 1_645 S
H82 C94 0.930 . S
H83 C96 0.930 . S
H84 C97 0.930 . S
H85 C101 0.959 . S
H86 C101 0.959 . S
H87 C101 0.961 . S
H88 C102 0.961 . S
H89 C102 0.961 . S
H90 C102 0.956 1_554 S
H91 C105 0.929 . S
H92 C106 0.931 . S
H93 C108 0.930 . S
C94 H82 0.930 . S
C94 C95 1.399 1_566 S
C94 C99 1.399 . S
C95 C94 1.399 1_544 S
C95 C96 1.376 . S
C96 H83 0.930 . S
C96 C95 1.376 . S
C96 C97 1.388 . S
C97 H84 0.930 . S
C97 C96 1.388 . S
C97 C98 1.390 . S
C98 C97 1.390 . S
C98 C99 1.394 1_544 S
C98 C104 1.465 . S
C99 C94 1.399 . S
C99 C98 1.394 1_566 S
C99 C100 1.516 . S
C100 C99 1.516 . S
C100 C101 1.502 . S
C100 C102 1.563 . S
C100 C103 1.526 . S
C101 H85 0.959 . S
C101 H86 0.959 . S
C101 H87 0.961 . S
C101 C100 1.502 . S
C102 H88 0.961 . S
C102 H89 0.961 . S
C102 H90 0.956 1_556 S
C102 C100 1.563 . S
C103 C100 1.526 . S
C103 C104 1.396 1_566 S
C103 C108 1.390 . S
C104 C98 1.465 . S
C104 C103 1.396 1_544 S
C104 C105 1.399 . S
C105 H91 0.929 . S
C105 C104 1.399 . S
C105 C106 1.385 . S
C106 H92 0.931 . S
C106 C105 1.385 . S
C106 C107 1.389 . S
C107 C106 1.389 . S
C107 C108 1.387 1_544 S
C108 H93 0.930 . S
C108 C103 1.390 . S
C108 C107 1.387 1_566 S
H109 C121 0.930 . S
H110 C123 0.930 . S
H111 C124 0.930 . S
H112 C128 0.959 . S
H113 C128 0.959 . S
H114 C128 0.961 . S
H115 C129 0.960 . S
H116 C129 0.961 . S
H117 C129 0.959 . S
H118 C132 0.929 . S
H119 C133 0.931 . S
H120 C135 0.930 . S
C121 H109 0.930 . S
C121 C122 1.399 1_655 S
C121 C126 1.399 . S
C122 C121 1.399 1_455 S
C122 C123 1.376 . S
C123 H110 0.930 . S
C123 C122 1.376 . S
C123 C124 1.388 . S
C124 H111 0.930 . S
C124 C123 1.388 . S
C124 C125 1.390 . S
C125 C124 1.390 . S
C125 C126 1.394 1_455 S
C125 C131 1.465 . S
C126 C121 1.399 . S
C126 C125 1.394 1_655 S
C126 C127 1.516 . S
C127 C126 1.516 . S
C127 C128 1.502 . S
C127 C129 1.561 . S
C127 C130 1.526 . S
C128 H112 0.959 . S
C128 H113 0.959 . S
C128 H114 0.961 . S
C128 C127 1.502 . S
C129 H115 0.960 . S
C129 H116 0.961 . S
C129 H117 0.959 . S
C129 C127 1.561 . S
C130 C127 1.526 . S
C130 C131 1.396 1_655 S
C130 C135 1.390 . S
C131 C125 1.465 . S
C131 C130 1.396 1_455 S
C131 C132 1.399 . S
C132 H118 0.929 . S
C132 C131 1.399 . S
C132 C133 1.385 . S
C133 H119 0.931 . S
C133 C132 1.385 . S
C133 C134 1.389 . S
C134 C133 1.389 . S
C134 C135 1.387 1_455 S
C135 H120 0.930 . S
C135 C130 1.390 . S
C135 C134 1.387 1_655 S
C41 C12 1.494 1_665 S
C53 C27 1.483 1_655 S
C68 C13 1.495 1_455 S
C80 C26 1.501 1_465 S
C95 C1 1.496 1_554 S
C107 C0 1.488 1_545 S
C122 C15 1.492 1_455 S
C134 C14 1.489 . S
