# Generated by pormake.
# Topology sol, (6)-cn, num edge types: 1
# Building blocks:
#     Node 0, Type 0, BuildingBlock: IZENUY_clean_sbu_0, # of connection points: 6
#     Node 1, Type 0, BuildingBlock: IZENUY_clean_sbu_0, # of connection points: 6
#     Node 2, Type 0, BuildingBlock: IZENUY_clean_sbu_0, # of connection points: 6
#     Node 3, Type 0, BuildingBlock: IZENUY_clean_sbu_0, # of connection points: 6
#     Node 4, Type 0, BuildingBlock: IZENUY_clean_sbu_0, # of connection points: 6
#     Node 5, Type 0, BuildingBlock: IZENUY_clean_sbu_0, # of connection points: 6
#     Node 6, Type 0, BuildingBlock: IZENUY_clean_sbu_0, # of connection points: 6
#     Node 7, Type 0, BuildingBlock: IZENUY_clean_sbu_0, # of connection points: 6
#     Edge 8, Type (0, 0), None
#     Edge 9, Type (0, 0), None
#     Edge 10, Type (0, 0), None
#     Edge 11, Type (0, 0), None
#     Edge 12, Type (0, 0), None
#     Edge 13, Type (0, 0), None
#     Edge 14, Type (0, 0), None
#     Edge 15, Type (0, 0), None
#     Edge 16, Type (0, 0), None
#     Edge 17, Type (0, 0), None
#     Edge 18, Type (0, 0), None
#     Edge 19, Type (0, 0), None
#     Edge 20, Type (0, 0), None
#     Edge 21, Type (0, 0), None
#     Edge 22, Type (0, 0), None
#     Edge 23, Type (0, 0), None
#     Edge 24, Type (0, 0), None
#     Edge 25, Type (0, 0), None
#     Edge 26, Type (0, 0), None
#     Edge 27, Type (0, 0), None
#     Edge 28, Type (0, 0), None
#     Edge 29, Type (0, 0), None
#     Edge 30, Type (0, 0), None
#     Edge 31, Type (0, 0), None
# Relax obj value: 0.159
# Max RMSD: 0.159
# Mean RMSD: 0.158
data_MOF--net-sol--node1-IZENUY_clean_sbu_0--edge1-none
_symmetry_space_group_name_H-M    P1
_symmetry_Int_Tables_number       1
_symmetry_cell_setting            triclinic
loop_
_symmetry_equiv_pos_as_xyz
'x, y, z'
_cell_length_a     16.496089
_cell_length_b     12.815928
_cell_length_c     12.913936
_cell_angle_alpha  90.001134
_cell_angle_beta   90.000164
_cell_angle_gamma 89.998016
loop_
_atom_site_label
_atom_site_type_symbol
_atom_site_fract_x
_atom_site_fract_y
_atom_site_fract_z
_atom_type_partial_charge
Fe0 Fe 0.1986 0.0773 0.21024 0.0
Fe1 Fe 0.31769 0.23118 0.12075 0.0
O2 O 0.21666 0.18673 0.13144 0.0
Fe3 Fe 0.13443 0.25651 0.07397 0.0
O4 O 0.08476 0.2784 0.20095 0.0
O5 O 0.10091 0.1178 0.25004 0.0
O6 O 0.23876 0.14694 0.321 0.0
C7 C 0.30814 0.18792 0.32683 0.0
C8 C 0.09027 0.03477 0.05515 0.0
O9 O 0.35304 0.18929 0.24847 0.0
C10 C 0.25 0.28252 0.92521 0.0
O11 O 0.29535 0.01674 0.18357 0.0
O12 O 0.34873 0.11032 0.05865 0.0
O13 O 0.07423 0.13302 1.04839 0.0
O14 O 0.15281 1.00383 0.1041 0.0
C15 C 0.24189 0.41619 0.14236 0.0
O16 O 0.30369 0.28653 0.994 0.0
O17 O 0.17944 0.24674 0.94394 0.0
C18 C 0.33798 0.02397 0.10332 0.0
O19 O 0.2883 0.34978 0.18237 0.0
O20 O 0.1815 0.38815 0.08818 0.0
C21 C 0.07373 0.20719 0.26704 0.0
Fe22 Fe 0.38344 0.44118 0.71024 0.0
Fe23 Fe 0.26435 0.28729 0.62075 0.0
O24 O 0.36538 0.33175 0.63144 0.0
Fe25 Fe 0.44761 0.26197 0.57397 0.0
O26 O 0.49728 0.24008 0.70094 0.0
O27 O 0.48113 0.40068 0.75005 0.0
O28 O 0.34328 0.37154 0.821 0.0
C29 C 0.2739 0.33056 0.82683 0.0
C30 C 0.49177 0.48371 0.55516 0.0
O31 O 0.229 0.32919 0.74847 0.0
C32 C 0.33204 0.23597 0.42521 0.0
O33 O 0.28669 0.50174 0.68357 0.0
O34 O 0.23331 0.40815 0.55865 0.0
O35 O 0.50781 0.38546 0.5484 0.0
O36 O 0.42923 0.51465 0.60411 0.0
C37 C 0.34016 0.10229 0.64235 0.0
O38 O 0.27836 0.23194 0.494 0.0
O39 O 0.4026 0.27174 0.44394 0.0
C40 C 0.24406 0.49451 0.60332 0.0
O41 O 0.29375 0.16869 0.68236 0.0
O42 O 0.40055 0.13034 0.58817 0.0
C43 C 0.50831 0.31129 0.76704 0.0
Fe44 Fe 0.6986 0.44119 0.89988 0.0
Fe45 Fe 0.8177 0.28731 0.98936 0.0
O46 O 0.71666 0.33176 0.97867 0.0
Fe47 Fe 0.63443 0.26197 1.03614 0.0
O48 O 0.58476 0.24008 0.90918 0.0
O49 O 0.60091 0.4007 0.86006 0.0
O50 O 0.73876 0.37156 0.78911 0.0
C51 C 0.80814 0.33058 0.78329 0.0
C52 C 0.59027 0.48371 1.05497 0.0
O53 O 0.85305 0.3292 0.86165 0.0
C54 C 0.75 0.23596 0.1849 0.0
O55 O 0.79534 0.50175 0.92655 0.0
O56 O 0.84873 0.40817 1.05147 0.0
O57 O 0.57423 0.38546 0.06172 0.0
O58 O 0.65281 0.51465 1.00602 0.0
C59 C 0.74191 0.1023 0.96774 0.0
O60 O 0.80369 0.23196 0.11612 0.0
O61 O 0.67945 0.27174 0.16617 0.0
C62 C 0.83799 0.49452 1.00679 0.0
O63 O 0.78831 0.16871 0.92775 0.0
O64 O 0.68151 0.13034 1.02193 0.0
C65 C 0.57375 0.3113 0.84309 0.0
Fe66 Fe 0.88344 0.07729 0.39987 0.0
Fe67 Fe 0.76434 0.23118 0.48936 0.0
O68 O 0.86538 0.18673 0.47867 0.0
Fe69 Fe 0.94761 0.25651 0.53614 0.0
O70 O 0.99728 0.27839 0.40918 0.0
O71 O 0.98113 0.11778 0.36005 0.0
O72 O 0.84328 0.14692 0.28911 0.0
C73 C 0.7739 0.1879 0.28329 0.0
C74 C 0.99177 0.03477 0.55496 0.0
O75 O 0.729 0.18928 0.36164 0.0
C76 C 0.83204 0.28251 0.68491 0.0
O77 O 0.78669 0.01673 0.42655 0.0
O78 O 0.73331 0.11032 0.55146 0.0
O79 O 1.00781 0.13302 0.56172 0.0
O80 O 0.92923 1.00382 0.50601 0.0
C81 C 0.84014 0.41618 0.46775 0.0
O82 O 0.77835 0.28653 0.61611 0.0
O83 O 0.9026 0.24674 0.66617 0.0
C84 C 0.74406 0.02396 0.5068 0.0
O85 O 0.79373 0.34977 0.42775 0.0
O86 O 0.90054 0.38814 0.52194 0.0
C87 C 1.00829 0.20718 0.34309 0.0
Fe88 Fe 0.7818 0.78493 1.03598 0.0
Fe89 Fe 0.89904 0.89198 0.8868 0.0
O90 O 0.88236 0.81228 0.99525 0.0
Fe91 Fe 0.96706 0.75647 0.05912 0.0
O92 O 0.93214 0.62733 1.02551 0.0
O93 O 0.80661 0.65197 0.07825 0.0
O94 O 0.75423 0.7275 0.91003 0.0
C95 C 0.76388 0.77148 0.82349 0.0
C96 C 0.85248 0.79104 0.22581 0.0
O97 O 0.80545 0.85435 0.81755 0.0
C98 C 1.02687 0.95406 1.02722 0.0
O99 O 0.74059 0.91594 0.99945 0.0
O100 O 0.85178 0.99708 0.94987 0.0
O101 O 0.91596 0.74833 0.18835 0.0
O102 O 0.80291 0.83575 0.16526 0.0
C103 C 1.01017 0.74759 0.84525 0.0
O104 O 0.99718 0.94891 0.93581 0.0
O105 O 1.0081 0.88488 0.09372 0.0
C106 C 0.77857 0.99902 0.9755 0.0
O107 O 0.94474 0.78662 0.81758 0.0
O108 O 1.03088 0.75216 0.94034 0.0
C109 C 0.86362 0.59204 1.05032 0.0
Fe110 Fe 0.80025 0.73356 0.53599 0.0
Fe111 Fe 0.68301 0.62649 0.38683 0.0
O112 O 0.69968 0.7062 0.49528 0.0
Fe113 Fe 0.61498 0.76202 0.55915 0.0
O114 O 0.64991 0.89116 0.52553 0.0
O115 O 0.77544 0.86652 0.57827 0.0
O116 O 0.8278 0.79099 0.41004 0.0
C117 C 0.81815 0.74699 0.32351 0.0
C118 C 0.72954 0.7274 0.7258 0.0
O119 O 0.7766 0.6641 0.31758 0.0
C120 C 0.55517 0.56443 0.52724 0.0
O121 O 0.84146 0.60255 0.49945 0.0
O122 O 0.73026 0.5214 0.44993 0.0
O123 O 0.66608 0.77015 0.68838 0.0
O124 O 0.77917 0.68275 0.66528 0.0
C125 C 0.57188 0.77088 0.34527 0.0
O126 O 0.58486 0.56957 0.43583 0.0
O127 O 0.57394 0.63361 0.59374 0.0
C128 C 0.80348 0.51947 0.47553 0.0
O129 O 0.63731 0.73184 0.3176 0.0
O130 O 0.55117 0.76633 0.44036 0.0
C131 C 0.71843 0.92644 0.55033 0.0
Fe132 Fe 0.39902 0.62648 0.22331 0.0
Fe133 Fe 0.46706 0.76202 1.051 0.0
O134 O 0.38235 0.70621 0.11486 0.0
Fe135 Fe 0.2818 0.73357 0.07413 0.0
O136 O 0.25423 0.79099 0.20008 0.0
O137 O 0.30541 0.66409 0.29254 0.0
O138 O 0.4447 0.73181 0.29257 0.0
C139 C 0.51009 0.77091 0.26486 0.0
C140 C 0.27856 0.51947 0.13457 0.0
O141 O 0.53086 0.76633 0.1698 0.0
C142 C 0.35249 0.72745 0.88431 0.0
O143 O 0.49717 0.56956 0.17432 0.0
O144 O 0.5081 0.6336 1.01641 0.0
O145 O 0.24058 0.60256 0.11065 0.0
O146 O 0.35178 0.5214 0.16018 0.0
C147 C 0.36362 0.92645 0.0598 0.0
O148 O 0.41596 0.77015 0.92177 0.0
O149 O 0.30291 0.68275 0.94485 0.0
C150 C 0.52687 0.56442 0.0829 0.0
O151 O 0.43214 0.89116 0.08461 0.0
O152 O 0.3066 0.86652 1.03186 0.0
C153 C 0.26386 0.74699 0.28662 0.0
Fe154 Fe 0.11498 0.75645 0.55098 0.0
Fe155 Fe 0.30025 0.7849 0.57412 0.0
O156 O 0.19969 0.81227 0.61484 0.0
Fe157 Fe 0.18303 0.89201 0.72328 0.0
O158 O 0.13734 0.78669 0.79255 0.0
O159 O 0.05119 0.75214 0.66978 0.0
O160 O 0.14991 0.62732 0.58458 0.0
C161 C 0.21843 0.59203 0.55978 0.0
C162 C 0.05517 0.95405 0.58288 0.0
O163 O 0.27544 0.65195 0.53184 0.0
C164 C 0.30349 0.99901 0.63454 0.0
O165 O 0.16608 0.74832 0.42174 0.0
O166 O 0.27917 0.83571 0.44483 0.0
O167 O 0.08487 0.94892 0.67429 0.0
O168 O 0.07394 0.88487 0.51639 0.0
C169 C 0.31817 0.7715 0.7866 0.0
O170 O 0.34147 0.91591 0.61065 0.0
O171 O 0.23026 0.99708 0.66013 0.0
C172 C 0.22954 0.79107 0.38431 0.0
O173 O 0.3278 0.72748 0.70007 0.0
O174 O 0.27664 0.85441 0.7925 0.0
C175 C 0.07196 0.74757 0.76484 0.0
loop_
_geom_bond_atom_site_label_1
_geom_bond_atom_site_label_2
_geom_bond_distance
_geom_bond_site_symmetry_2
_ccdc_geom_bond_type
Fe0 O2 1.918 . S
Fe0 O5 1.997 . S
Fe0 O6 2.002 . S
Fe0 O11 1.976 1_545 S
Fe0 O14 1.996 . S
Fe1 O2 1.918 . S
Fe1 O9 1.997 . S
Fe1 O12 1.996 . S
Fe1 O16 1.976 1_554 S
Fe1 O19 2.002 . S
O2 Fe0 1.918 . S
O2 Fe1 1.918 . S
O2 Fe3 1.918 . S
Fe3 O2 1.918 . S
Fe3 O4 2.002 . S
Fe3 O13 1.976 1_554 S
Fe3 O17 1.996 1_554 S
Fe3 O20 1.997 . S
O4 Fe3 2.002 . S
O4 C21 1.295 . S
O5 Fe0 1.997 . S
O5 C21 1.235 . S
O6 Fe0 2.002 . S
O6 C7 1.295 . S
C7 O6 1.295 . S
C7 O9 1.235 . S
C8 O13 1.287 1_554 S
C8 O14 1.255 . S
O9 Fe1 1.997 . S
O9 C7 1.235 . S
C10 O16 1.287 . S
C10 O17 1.255 . S
O11 Fe0 1.976 1_565 S
O11 C18 1.287 1_565 S
O12 Fe1 1.996 . S
O12 C18 1.255 . S
O13 Fe3 1.976 1_556 S
O13 C8 1.287 1_556 S
O14 Fe0 1.996 . S
O14 C8 1.255 . S
C15 O19 1.295 . S
C15 O20 1.235 . S
O16 Fe1 1.976 1_556 S
O16 C10 1.287 . S
O17 Fe3 1.996 1_556 S
O17 C10 1.255 . S
C18 O11 1.287 1_545 S
C18 O12 1.255 . S
O19 Fe1 2.002 . S
O19 C15 1.295 . S
O20 Fe3 1.997 . S
O20 C15 1.235 . S
C21 O4 1.295 . S
C21 O5 1.235 . S
Fe22 O24 1.918 . S
Fe22 O27 1.997 . S
Fe22 O28 2.002 . S
Fe22 O33 1.976 . S
Fe22 O36 1.996 . S
Fe23 O24 1.918 . S
Fe23 O31 1.997 . S
Fe23 O34 1.996 . S
Fe23 O38 1.976 . S
Fe23 O41 2.002 . S
O24 Fe22 1.918 . S
O24 Fe23 1.918 . S
O24 Fe25 1.918 . S
Fe25 O24 1.918 . S
Fe25 O26 2.002 . S
Fe25 O35 1.976 . S
Fe25 O39 1.996 . S
Fe25 O42 1.997 . S
O26 Fe25 2.002 . S
O26 C43 1.295 . S
O27 Fe22 1.997 . S
O27 C43 1.235 . S
O28 Fe22 2.002 . S
O28 C29 1.295 . S
C29 O28 1.295 . S
C29 O31 1.235 . S
C30 O35 1.287 . S
C30 O36 1.255 . S
O31 Fe23 1.997 . S
O31 C29 1.235 . S
C32 O38 1.287 . S
C32 O39 1.255 . S
O33 Fe22 1.976 . S
O33 C40 1.287 . S
O34 Fe23 1.996 . S
O34 C40 1.255 . S
O35 Fe25 1.976 . S
O35 C30 1.287 . S
O36 Fe22 1.996 . S
O36 C30 1.255 . S
C37 O41 1.295 . S
C37 O42 1.235 . S
O38 Fe23 1.976 . S
O38 C32 1.287 . S
O39 Fe25 1.996 . S
O39 C32 1.255 . S
C40 O33 1.287 . S
C40 O34 1.255 . S
O41 Fe23 2.002 . S
O41 C37 1.295 . S
O42 Fe25 1.997 . S
O42 C37 1.235 . S
C43 O26 1.295 . S
C43 O27 1.235 . S
Fe44 O46 1.918 . S
Fe44 O49 1.997 . S
Fe44 O50 2.002 . S
Fe44 O55 1.976 . S
Fe44 O58 1.996 . S
Fe45 O46 1.918 . S
Fe45 O53 1.997 . S
Fe45 O56 1.996 . S
Fe45 O60 1.976 1_556 S
Fe45 O63 2.002 . S
O46 Fe44 1.918 . S
O46 Fe45 1.918 . S
O46 Fe47 1.918 . S
Fe47 O46 1.918 . S
Fe47 O48 2.002 . S
Fe47 O57 1.976 1_556 S
Fe47 O61 1.996 1_556 S
Fe47 O64 1.997 . S
O48 Fe47 2.002 . S
O48 C65 1.295 . S
O49 Fe44 1.997 . S
O49 C65 1.235 . S
O50 Fe44 2.002 . S
O50 C51 1.295 . S
C51 O50 1.295 . S
C51 O53 1.235 . S
C52 O57 1.287 1_556 S
C52 O58 1.255 . S
O53 Fe45 1.997 . S
O53 C51 1.235 . S
C54 O60 1.287 . S
C54 O61 1.255 . S
O55 Fe44 1.976 . S
O55 C62 1.287 . S
O56 Fe45 1.996 . S
O56 C62 1.255 . S
O57 Fe47 1.976 1_554 S
O57 C52 1.287 1_554 S
O58 Fe44 1.996 . S
O58 C52 1.255 . S
C59 O63 1.295 . S
C59 O64 1.235 . S
O60 Fe45 1.976 1_554 S
O60 C54 1.287 . S
O61 Fe47 1.996 1_554 S
O61 C54 1.255 . S
C62 O55 1.287 . S
C62 O56 1.255 . S
O63 Fe45 2.002 . S
O63 C59 1.295 . S
O64 Fe47 1.997 . S
O64 C59 1.235 . S
C65 O48 1.295 . S
C65 O49 1.235 . S
Fe66 O68 1.918 . S
Fe66 O71 1.997 . S
Fe66 O72 2.002 . S
Fe66 O77 1.976 1_545 S
Fe66 O80 1.996 . S
Fe67 O68 1.918 . S
Fe67 O75 1.997 . S
Fe67 O78 1.996 . S
Fe67 O82 1.976 . S
Fe67 O85 2.002 . S
O68 Fe66 1.918 . S
O68 Fe67 1.918 . S
O68 Fe69 1.918 . S
Fe69 O68 1.918 . S
Fe69 O70 2.002 . S
Fe69 O79 1.976 . S
Fe69 O83 1.996 . S
Fe69 O86 1.997 . S
O70 Fe69 2.002 . S
O70 C87 1.295 . S
O71 Fe66 1.997 . S
O71 C87 1.235 . S
O72 Fe66 2.002 . S
O72 C73 1.295 . S
C73 O72 1.295 . S
C73 O75 1.235 . S
C74 O79 1.287 . S
C74 O80 1.255 . S
O75 Fe67 1.997 . S
O75 C73 1.235 . S
C76 O82 1.287 . S
C76 O83 1.255 . S
O77 Fe66 1.976 1_565 S
O77 C84 1.287 1_565 S
O78 Fe67 1.996 . S
O78 C84 1.255 . S
O79 Fe69 1.976 . S
O79 C74 1.287 . S
O80 Fe66 1.996 . S
O80 C74 1.255 . S
C81 O85 1.295 . S
C81 O86 1.235 . S
O82 Fe67 1.976 . S
O82 C76 1.287 . S
O83 Fe69 1.996 . S
O83 C76 1.255 . S
C84 O77 1.287 1_545 S
C84 O78 1.255 . S
O85 Fe67 2.002 . S
O85 C81 1.295 . S
O86 Fe69 1.997 . S
O86 C81 1.235 . S
C87 O70 1.295 . S
C87 O71 1.235 . S
Fe88 O90 1.918 . S
Fe88 O93 1.997 . S
Fe88 O94 2.002 . S
Fe88 O99 1.976 . S
Fe88 O102 1.996 1_556 S
Fe89 O90 1.918 . S
Fe89 O97 1.997 . S
Fe89 O100 1.996 1_565 S
Fe89 O104 1.976 . S
Fe89 O107 2.002 . S
O90 Fe88 1.918 . S
O90 Fe89 1.918 . S
O90 Fe91 1.918 . S
Fe91 O90 1.918 . S
Fe91 O92 2.002 . S
Fe91 O101 1.976 1_556 S
Fe91 O105 1.996 1_556 S
Fe91 O108 1.997 . S
O92 Fe91 2.002 . S
O92 C109 1.295 . S
O93 Fe88 1.997 . S
O93 C109 1.235 . S
O94 Fe88 2.002 . S
O94 C95 1.295 . S
C95 O94 1.295 . S
C95 O97 1.235 . S
C96 O101 1.287 . S
C96 O102 1.255 . S
O97 Fe89 1.997 . S
O97 C95 1.235 . S
C98 O104 1.287 . S
C98 O105 1.255 1_556 S
O99 Fe88 1.976 . S
O99 C106 1.277 1_565 S
O100 Fe89 1.996 1_545 S
O100 C106 1.256 . S
O101 Fe91 1.976 1_554 S
O101 C96 1.287 . S
O102 Fe88 1.996 1_554 S
O102 C96 1.255 . S
C103 O107 1.295 . S
C103 O108 1.235 . S
O104 Fe89 1.976 . S
O104 C98 1.287 . S
O105 Fe91 1.996 1_554 S
O105 C98 1.255 1_554 S
C106 O99 1.277 1_545 S
C106 O100 1.256 . S
O107 Fe89 2.002 . S
O107 C103 1.295 . S
O108 Fe91 1.997 . S
O108 C103 1.235 . S
C109 O92 1.295 . S
C109 O93 1.235 . S
Fe110 O112 1.918 . S
Fe110 O115 1.997 . S
Fe110 O116 2.002 . S
Fe110 O121 1.976 . S
Fe110 O124 1.996 . S
Fe111 O112 1.918 . S
Fe111 O119 1.997 . S
Fe111 O122 1.996 . S
Fe111 O126 1.976 . S
Fe111 O129 2.002 . S
O112 Fe110 1.918 . S
O112 Fe111 1.918 . S
O112 Fe113 1.918 . S
Fe113 O112 1.918 . S
Fe113 O114 2.002 . S
Fe113 O123 1.976 . S
Fe113 O127 1.996 . S
Fe113 O130 1.997 . S
O114 Fe113 2.002 . S
O114 C131 1.295 . S
O115 Fe110 1.997 . S
O115 C131 1.235 . S
O116 Fe110 2.002 . S
O116 C117 1.295 . S
C117 O116 1.295 . S
C117 O119 1.235 . S
C118 O123 1.287 . S
C118 O124 1.255 . S
O119 Fe111 1.997 . S
O119 C117 1.235 . S
C120 O126 1.287 . S
C120 O127 1.255 . S
O121 Fe110 1.976 . S
O121 C128 1.287 . S
O122 Fe111 1.996 . S
O122 C128 1.255 . S
O123 Fe113 1.976 . S
O123 C118 1.287 . S
O124 Fe110 1.996 . S
O124 C118 1.255 . S
C125 O129 1.295 . S
C125 O130 1.235 . S
O126 Fe111 1.976 . S
O126 C120 1.287 . S
O127 Fe113 1.996 . S
O127 C120 1.255 . S
C128 O121 1.287 . S
C128 O122 1.255 . S
O129 Fe111 2.002 . S
O129 C125 1.295 . S
O130 Fe113 1.997 . S
O130 C125 1.235 . S
C131 O114 1.295 . S
C131 O115 1.235 . S
Fe132 O134 1.918 . S
Fe132 O137 1.997 . S
Fe132 O138 2.002 . S
Fe132 O143 1.976 . S
Fe132 O146 1.996 . S
Fe133 O134 1.918 . S
Fe133 O141 1.997 . S
Fe133 O144 1.996 1_554 S
Fe133 O148 1.976 1_554 S
Fe133 O151 2.002 . S
O134 Fe132 1.918 . S
O134 Fe133 1.918 . S
O134 Fe135 1.918 . S
Fe135 O134 1.918 . S
Fe135 O136 2.002 . S
Fe135 O145 1.976 . S
Fe135 O149 1.996 1_554 S
Fe135 O152 1.997 . S
O136 Fe135 2.002 . S
O136 C153 1.295 . S
O137 Fe132 1.997 . S
O137 C153 1.235 . S
O138 Fe132 2.002 . S
O138 C139 1.295 . S
C139 O138 1.295 . S
C139 O141 1.235 . S
C140 O145 1.287 . S
C140 O146 1.255 . S
O141 Fe133 1.997 . S
O141 C139 1.235 . S
C142 O148 1.287 . S
C142 O149 1.255 . S
O143 Fe132 1.976 . S
O143 C150 1.287 . S
O144 Fe133 1.996 1_556 S
O144 C150 1.255 1_556 S
O145 Fe135 1.976 . S
O145 C140 1.287 . S
O146 Fe132 1.996 . S
O146 C140 1.255 . S
C147 O151 1.295 . S
C147 O152 1.235 . S
O148 Fe133 1.976 1_556 S
O148 C142 1.287 . S
O149 Fe135 1.996 1_556 S
O149 C142 1.255 . S
C150 O143 1.287 . S
C150 O144 1.255 1_554 S
O151 Fe133 2.002 . S
O151 C147 1.295 . S
O152 Fe135 1.997 . S
O152 C147 1.235 . S
C153 O136 1.295 . S
C153 O137 1.235 . S
Fe154 O156 1.918 . S
Fe154 O159 1.997 . S
Fe154 O160 2.002 . S
Fe154 O165 1.976 . S
Fe154 O168 1.996 . S
Fe155 O156 1.918 . S
Fe155 O163 1.997 . S
Fe155 O166 1.996 . S
Fe155 O170 1.976 . S
Fe155 O173 2.002 . S
O156 Fe154 1.918 . S
O156 Fe155 1.918 . S
O156 Fe157 1.918 . S
Fe157 O156 1.918 . S
Fe157 O158 2.002 . S
Fe157 O167 1.976 . S
Fe157 O171 1.996 1_565 S
Fe157 O174 1.997 . S
O158 Fe157 2.002 . S
O158 C175 1.295 . S
O159 Fe154 1.997 . S
O159 C175 1.235 . S
O160 Fe154 2.002 . S
O160 C161 1.295 . S
C161 O160 1.295 . S
C161 O163 1.235 . S
C162 O167 1.287 . S
C162 O168 1.255 . S
O163 Fe155 1.997 . S
O163 C161 1.235 . S
C164 O170 1.277 1_545 S
C164 O171 1.256 . S
O165 Fe154 1.976 . S
O165 C172 1.287 . S
O166 Fe155 1.996 . S
O166 C172 1.255 . S
O167 Fe157 1.976 . S
O167 C162 1.287 . S
O168 Fe154 1.996 . S
O168 C162 1.255 . S
C169 O173 1.295 . S
C169 O174 1.235 . S
O170 Fe155 1.976 . S
O170 C164 1.277 1_565 S
O171 Fe157 1.996 1_545 S
O171 C164 1.256 . S
C172 O165 1.287 . S
C172 O166 1.255 . S
O173 Fe155 2.002 . S
O173 C169 1.295 . S
O174 Fe157 1.997 . S
O174 C169 1.235 . S
C175 O158 1.295 . S
C175 O159 1.235 . S
C21 C87 1.372 1_455 S
C43 C65 1.372 . S
C103 C175 1.289 1_655 S
C125 C139 1.289 . S
C8 C98 2.081 1_444 S
C120 C30 2.081 . S
C150 C52 2.081 1_554 S
C74 C162 2.081 1_645 S
C147 C18 1.071 1_565 S
C161 C40 1.071 . S
C62 C109 1.071 . S
C84 C131 1.071 1_545 S
C59 C106 1.057 . S
C128 C81 1.049 . S
C15 C140 1.049 . S
C164 C37 1.057 . S
C10 C29 1.633 . S
C7 C32 1.633 . S
C73 C54 1.633 . S
C76 C51 1.633 . S
C96 C117 1.626 . S
C95 C118 1.626 . S
C169 C142 1.626 . S
C172 C153 1.626 . S
