# Generated by pormake.
# Topology vmg, (6)-cn, num edge types: 1
# Building blocks:
#     Node 0, Type 0, BuildingBlock: VOLQOD_clean_sbu_1, # of connection points: 6
#     Node 1, Type 0, BuildingBlock: VOLQOD_clean_sbu_1, # of connection points: 6
#     Node 2, Type 0, BuildingBlock: VOLQOD_clean_sbu_1, # of connection points: 6
#     Node 3, Type 0, BuildingBlock: VOLQOD_clean_sbu_1, # of connection points: 6
#     Node 4, Type 0, BuildingBlock: VOLQOD_clean_sbu_1, # of connection points: 6
#     Node 5, Type 0, BuildingBlock: VOLQOD_clean_sbu_1, # of connection points: 6
#     Node 6, Type 0, BuildingBlock: VOLQOD_clean_sbu_1, # of connection points: 6
#     Node 7, Type 0, BuildingBlock: VOLQOD_clean_sbu_1, # of connection points: 6
#     Edge 8, Type (0, 0), None
#     Edge 9, Type (0, 0), None
#     Edge 10, Type (0, 0), None
#     Edge 11, Type (0, 0), None
#     Edge 12, Type (0, 0), None
#     Edge 13, Type (0, 0), None
#     Edge 14, Type (0, 0), None
#     Edge 15, Type (0, 0), None
#     Edge 16, Type (0, 0), None
#     Edge 17, Type (0, 0), None
#     Edge 18, Type (0, 0), None
#     Edge 19, Type (0, 0), None
#     Edge 20, Type (0, 0), None
#     Edge 21, Type (0, 0), None
#     Edge 22, Type (0, 0), None
#     Edge 23, Type (0, 0), None
#     Edge 24, Type (0, 0), None
#     Edge 25, Type (0, 0), None
#     Edge 26, Type (0, 0), None
#     Edge 27, Type (0, 0), None
#     Edge 28, Type (0, 0), None
#     Edge 29, Type (0, 0), None
#     Edge 30, Type (0, 0), None
#     Edge 31, Type (0, 0), None
# Relax obj value: 0.361
# Max RMSD: 0.274
# Mean RMSD: 0.274
data_MOF--net-vmg--node1-VOLQOD_clean_sbu_1--edge1-none
_symmetry_space_group_name_H-M    P1
_symmetry_Int_Tables_number       1
_symmetry_cell_setting            triclinic
loop_
_symmetry_equiv_pos_as_xyz
'x, y, z'
_cell_length_a     14.180449
_cell_length_b     24.548841
_cell_length_c     14.048507
_cell_angle_alpha  90.001473
_cell_angle_beta   96.452196
_cell_angle_gamma 89.999377
loop_
_atom_site_label
_atom_site_type_symbol
_atom_site_fract_x
_atom_site_fract_y
_atom_site_fract_z
_atom_type_partial_charge
O0 O 0.10351 0.48491 0.08772 0.0
Zn1 Zn 0.23999 0.46529 0.122 0.0
O2 O 0.24214 0.38849 0.12133 0.0
Zn3 Zn 0.26088 0.35842 0.24453 0.0
Zn4 Zn 0.13491 0.35824 0.04905 0.0
Zn5 Zn 0.34097 0.3681 0.051 0.0
O6 O 0.39121 0.32194 0.25591 0.0
O7 O 0.45534 0.36944 0.14255 0.0
O8 O 0.29244 0.49542 0.25641 0.0
O9 O 0.28384 0.41887 0.33998 0.0
O10 O 0.13454 0.32143 0.27227 0.0
O11 O 0.04299 0.3374 0.13596 0.0
O12 O 0.17229 0.28474 0.99503 0.0
O13 O 0.29736 0.49281 0.00425 0.0
O14 O 0.32913 0.29023 0.02247 0.0
O15 O 0.33282 0.41596 0.93176 0.0
C16 C 0.05019 0.4666 0.01545 0.0
C17 C 0.46345 0.34007 0.21804 0.0
C18 C 0.05275 0.32158 0.22216 0.0
C19 C 0.3007 0.46971 0.3365 0.0
C20 C 0.25449 0.26248 0.00266 0.0
C21 C 0.31563 0.46702 0.92919 0.0
O22 O 0.06623 0.42077 0.97593 0.0
O23 O 0.91522 0.48491 0.40475 0.0
Zn24 Zn 0.77874 0.46529 0.37047 0.0
O25 O 0.77659 0.38849 0.37113 0.0
Zn26 Zn 0.75783 0.35842 0.24792 0.0
Zn27 Zn 0.88382 0.35823 0.44341 0.0
Zn28 Zn 0.67777 0.3681 0.44147 0.0
O29 O 0.62749 0.32196 0.23654 0.0
O30 O 0.5634 0.36944 0.34995 0.0
O31 O 0.7263 0.49542 0.23606 0.0
O32 O 0.73489 0.41887 0.15248 0.0
O33 O 0.88417 0.32142 0.22018 0.0
O34 O 0.97573 0.33738 0.35651 0.0
O35 O 0.84644 0.28474 0.49745 0.0
O36 O 0.72137 0.49281 0.48822 0.0
O37 O 0.68961 0.29023 0.47 0.0
O38 O 0.68593 0.41596 0.56071 0.0
C39 C 0.96855 0.4666 0.47702 0.0
C40 C 0.55527 0.34005 0.27448 0.0
C41 C 0.96595 0.32155 0.27032 0.0
C42 C 0.71803 0.46972 0.15596 0.0
C43 C 0.76424 0.26248 0.48981 0.0
C44 C 0.70312 0.46702 0.56329 0.0
O45 O 0.95251 0.42077 0.51653 0.0
O46 O 0.91522 0.48116 0.90475 0.0
Zn47 Zn 0.77874 0.50078 0.87047 0.0
O48 O 0.77659 0.57758 0.87114 0.0
Zn49 Zn 0.75785 0.60765 0.74794 0.0
Zn50 Zn 0.88382 0.60784 0.94342 0.0
Zn51 Zn 0.67776 0.59798 0.94147 0.0
O52 O 0.62752 0.64413 0.73656 0.0
O53 O 0.5634 0.59664 0.84992 0.0
O54 O 0.7263 0.47066 0.73606 0.0
O55 O 0.73489 0.5472 0.65249 0.0
O56 O 0.88419 0.64465 0.7202 0.0
O57 O 0.97575 0.62868 0.85651 0.0
O58 O 0.84644 0.68133 -0.00256 0.0
O59 O 0.72137 0.47326 0.98822 0.0
O60 O 0.68961 0.67585 0.97 0.0
O61 O 0.68591 0.55012 0.06071 0.0
C62 C 0.96855 0.49947 0.97702 0.0
C63 C 0.55529 0.62601 0.77443 0.0
C64 C 0.96598 0.6445 0.77031 0.0
C65 C 0.71803 0.49636 0.65597 0.0
C66 C 0.76425 0.70359 0.98981 0.0
C67 C 0.70309 0.49906 0.06328 0.0
O68 O 0.9525 0.54531 0.01654 0.0
O69 O 0.10352 0.48116 0.58772 0.0
Zn70 Zn 0.24 0.50078 0.622 0.0
O71 O 0.24215 0.57759 0.62134 0.0
Zn72 Zn 0.2609 0.60765 0.74455 0.0
Zn73 Zn 0.13492 0.60784 0.54905 0.0
Zn74 Zn 0.34097 0.59797 0.551 0.0
O75 O 0.39124 0.64412 0.75593 0.0
O76 O 0.45534 0.59664 0.64252 0.0
O77 O 0.29244 0.47065 0.75641 0.0
O78 O 0.28385 0.5472 0.83999 0.0
O79 O 0.13456 0.64465 0.77229 0.0
O80 O 0.043 0.62869 0.63596 0.0
O81 O 0.17229 0.68133 0.49502 0.0
O82 O 0.29737 0.47326 0.50425 0.0
O83 O 0.32913 0.67585 0.52247 0.0
O84 O 0.33281 0.55011 0.43175 0.0
C85 C 0.05019 0.49947 0.51545 0.0
C86 C 0.46346 0.62603 0.71798 0.0
C87 C 0.05279 0.64452 0.72215 0.0
C88 C 0.30071 0.49636 0.8365 0.0
C89 C 0.25449 0.70359 0.50265 0.0
C90 C 0.31564 0.49905 0.42919 0.0
O91 O 0.06623 0.54531 0.47594 0.0
O92 O 0.60351 -0.01509 0.08772 0.0
Zn93 Zn 0.73999 0.96529 0.122 0.0
O94 O 0.74214 0.88849 0.12133 0.0
Zn95 Zn 0.76088 0.85842 0.24453 0.0
Zn96 Zn 0.63491 0.85824 0.04905 0.0
Zn97 Zn 0.84097 0.8681 0.051 0.0
O98 O 0.89121 0.82194 0.25591 0.0
O99 O 0.95534 0.86944 0.14255 0.0
O100 O 0.79244 -0.00458 0.25641 0.0
O101 O 0.78384 0.91887 0.33998 0.0
O102 O 0.63454 0.82143 0.27227 0.0
O103 O 0.54299 0.8374 0.13596 0.0
O104 O 0.67229 0.78474 0.99503 0.0
O105 O 0.79736 -0.00719 0.00425 0.0
O106 O 0.82913 0.79023 0.02247 0.0
O107 O 0.83282 0.91596 0.93176 0.0
C108 C 0.55019 0.9666 0.01545 0.0
C109 C 0.96345 0.84007 0.21804 0.0
C110 C 0.55275 0.82158 0.22216 0.0
C111 C 0.8007 0.96971 0.3365 0.0
C112 C 0.75449 0.76248 0.00265 0.0
C113 C 0.81563 0.96702 0.92919 0.0
O114 O 0.56623 0.92077 0.97593 0.0
O115 O 0.41522 -0.01509 0.40475 0.0
Zn116 Zn 0.27874 0.96529 0.37047 0.0
O117 O 0.27659 0.88849 0.37113 0.0
Zn118 Zn 0.25783 0.85842 0.24792 0.0
Zn119 Zn 0.38382 0.85823 0.44341 0.0
Zn120 Zn 0.17777 0.8681 0.44147 0.0
O121 O 0.12749 0.82196 0.23654 0.0
O122 O 0.0634 0.86944 0.34995 0.0
O123 O 0.2263 -0.00458 0.23606 0.0
O124 O 0.23489 0.91887 0.15248 0.0
O125 O 0.38417 0.82142 0.22018 0.0
O126 O 0.47573 0.83738 0.35651 0.0
O127 O 0.34644 0.78474 0.49745 0.0
O128 O 0.22137 -0.00719 0.48822 0.0
O129 O 0.18961 0.79023 0.47 0.0
O130 O 0.18593 0.91596 0.56071 0.0
C131 C 0.46855 0.9666 0.47702 0.0
C132 C 0.05527 0.84005 0.27448 0.0
C133 C 0.46595 0.82155 0.27032 0.0
C134 C 0.21803 0.96972 0.15596 0.0
C135 C 0.26424 0.76248 0.48982 0.0
C136 C 0.20312 0.96702 0.56329 0.0
O137 O 0.45251 0.92077 0.51653 0.0
O138 O 0.41522 0.98116 0.90475 0.0
Zn139 Zn 0.27874 0.00078 0.87047 0.0
O140 O 0.27659 0.07758 0.87114 0.0
Zn141 Zn 0.25785 0.10765 0.74794 0.0
Zn142 Zn 0.38382 0.10784 0.94342 0.0
Zn143 Zn 0.17776 0.09798 0.94147 0.0
O144 O 0.12752 0.14413 0.73656 0.0
O145 O 0.0634 0.09664 0.84992 0.0
O146 O 0.2263 0.97066 0.73606 0.0
O147 O 0.23489 0.0472 0.65249 0.0
O148 O 0.38419 0.14465 0.7202 0.0
O149 O 0.47575 0.12868 0.85651 0.0
O150 O 0.34644 0.18133 -0.00256 0.0
O151 O 0.22137 0.97326 0.98822 0.0
O152 O 0.18961 0.17585 0.97 0.0
O153 O 0.18591 0.05012 0.06071 0.0
C154 C 0.46855 -0.00053 0.97702 0.0
C155 C 0.05529 0.12601 0.77443 0.0
C156 C 0.46598 0.1445 0.77031 0.0
C157 C 0.21803 -0.00364 0.65597 0.0
C158 C 0.26425 0.20359 0.98982 0.0
C159 C 0.20309 -0.00094 0.06328 0.0
O160 O 0.4525 0.04531 0.01654 0.0
O161 O 0.60352 0.98116 0.58772 0.0
Zn162 Zn 0.74 0.00078 0.622 0.0
O163 O 0.74215 0.07759 0.62134 0.0
Zn164 Zn 0.7609 0.10765 0.74455 0.0
Zn165 Zn 0.63492 0.10784 0.54905 0.0
Zn166 Zn 0.84097 0.09797 0.551 0.0
O167 O 0.89124 0.14412 0.75593 0.0
O168 O 0.95534 0.09664 0.64252 0.0
O169 O 0.79244 0.97065 0.75641 0.0
O170 O 0.78385 0.0472 0.83999 0.0
O171 O 0.63456 0.14465 0.77229 0.0
O172 O 0.543 0.12869 0.63596 0.0
O173 O 0.67229 0.18133 0.49502 0.0
O174 O 0.79737 0.97326 0.50425 0.0
O175 O 0.82913 0.17585 0.52247 0.0
O176 O 0.83281 0.05011 0.43176 0.0
C177 C 0.55019 -0.00053 0.51545 0.0
C178 C 0.96346 0.12603 0.71798 0.0
C179 C 0.55279 0.14452 0.72215 0.0
C180 C 0.80071 -0.00364 0.8365 0.0
C181 C 0.75449 0.20359 0.50265 0.0
C182 C 0.81564 -0.00095 0.42919 0.0
O183 O 0.56623 0.04531 0.47594 0.0
loop_
_geom_bond_atom_site_label_1
_geom_bond_atom_site_label_2
_geom_bond_distance
_geom_bond_site_symmetry_2
_ccdc_geom_bond_type
O0 Zn1 1.953 . S
O0 C16 1.225 1_554 S
Zn1 O0 1.953 . S
Zn1 O2 1.949 . S
Zn1 O8 1.919 . S
Zn1 O13 1.924 1_554 S
O2 Zn1 1.949 . S
O2 Zn3 1.923 . S
O2 Zn4 1.950 . S
O2 Zn5 1.945 . S
Zn3 O2 1.923 . S
Zn3 O6 1.933 . S
Zn3 O9 1.941 . S
Zn3 O10 1.965 . S
Zn4 O2 1.950 . S
Zn4 O11 1.938 . S
Zn4 O12 1.906 . S
Zn4 O22 1.953 1_554 S
Zn5 O2 1.945 . S
Zn5 O7 1.932 . S
Zn5 O14 1.977 1_554 S
Zn5 O15 1.910 1_554 S
O6 Zn3 1.933 . S
O6 C17 1.226 . S
O7 Zn5 1.932 . S
O7 C17 1.307 . S
O8 Zn1 1.919 . S
O8 C19 1.253 . S
O9 Zn3 1.941 . S
O9 C19 1.283 . S
O10 Zn3 1.965 . S
O10 C18 1.303 . S
O11 Zn4 1.938 . S
O11 C18 1.247 . S
O12 Zn4 1.906 . S
O12 C20 1.304 1_554 S
O13 Zn1 1.924 1_556 S
O13 C21 1.311 . S
O14 Zn5 1.977 1_556 S
O14 C20 1.272 . S
O15 Zn5 1.910 1_556 S
O15 C21 1.231 . S
C16 O0 1.225 1_556 S
C16 O22 1.298 . S
C17 O6 1.226 . S
C17 O7 1.307 . S
C18 O10 1.303 . S
C18 O11 1.247 . S
C19 O8 1.253 . S
C19 O9 1.283 . S
C20 O12 1.304 1_556 S
C20 O14 1.272 . S
C21 O13 1.311 . S
C21 O15 1.231 . S
O22 Zn4 1.953 1_556 S
O22 C16 1.298 . S
O23 Zn24 1.953 . S
O23 C39 1.225 . S
Zn24 O23 1.953 . S
Zn24 O25 1.949 . S
Zn24 O31 1.919 . S
Zn24 O36 1.924 . S
O25 Zn24 1.949 . S
O25 Zn26 1.923 . S
O25 Zn27 1.950 . S
O25 Zn28 1.945 . S
Zn26 O25 1.923 . S
Zn26 O29 1.933 . S
Zn26 O32 1.941 . S
Zn26 O33 1.965 . S
Zn27 O25 1.950 . S
Zn27 O34 1.938 . S
Zn27 O35 1.906 . S
Zn27 O45 1.953 . S
Zn28 O25 1.945 . S
Zn28 O30 1.932 . S
Zn28 O37 1.977 . S
Zn28 O38 1.910 . S
O29 Zn26 1.933 . S
O29 C40 1.226 . S
O30 Zn28 1.932 . S
O30 C40 1.307 . S
O31 Zn24 1.919 . S
O31 C42 1.253 . S
O32 Zn26 1.941 . S
O32 C42 1.283 . S
O33 Zn26 1.965 . S
O33 C41 1.303 . S
O34 Zn27 1.938 . S
O34 C41 1.247 . S
O35 Zn27 1.906 . S
O35 C43 1.304 . S
O36 Zn24 1.924 . S
O36 C44 1.311 . S
O37 Zn28 1.977 . S
O37 C43 1.272 . S
O38 Zn28 1.910 . S
O38 C44 1.231 . S
C39 O23 1.225 . S
C39 O45 1.298 . S
C40 O29 1.226 . S
C40 O30 1.307 . S
C41 O33 1.303 . S
C41 O34 1.247 . S
C42 O31 1.253 . S
C42 O32 1.283 . S
C43 O35 1.304 . S
C43 O37 1.272 . S
C44 O36 1.311 . S
C44 O38 1.231 . S
O45 Zn27 1.953 . S
O45 C39 1.298 . S
O46 Zn47 1.953 . S
O46 C62 1.225 1_556 S
Zn47 O46 1.953 . S
Zn47 O48 1.949 . S
Zn47 O54 1.919 . S
Zn47 O59 1.924 1_556 S
O48 Zn47 1.949 . S
O48 Zn49 1.923 . S
O48 Zn50 1.950 . S
O48 Zn51 1.945 . S
Zn49 O48 1.923 . S
Zn49 O52 1.933 . S
Zn49 O55 1.941 . S
Zn49 O56 1.965 . S
Zn50 O48 1.950 . S
Zn50 O57 1.938 . S
Zn50 O58 1.906 . S
Zn50 O68 1.953 1_556 S
Zn51 O48 1.945 . S
Zn51 O53 1.932 . S
Zn51 O60 1.977 1_556 S
Zn51 O61 1.910 1_556 S
O52 Zn49 1.933 . S
O52 C63 1.226 . S
O53 Zn51 1.932 . S
O53 C63 1.307 . S
O54 Zn47 1.919 . S
O54 C65 1.253 . S
O55 Zn49 1.941 . S
O55 C65 1.283 . S
O56 Zn49 1.965 . S
O56 C64 1.303 . S
O57 Zn50 1.938 . S
O57 C64 1.247 . S
O58 Zn50 1.906 . S
O58 C66 1.304 1_556 S
O59 Zn47 1.924 1_554 S
O59 C67 1.311 . S
O60 Zn51 1.977 1_554 S
O60 C66 1.272 . S
O61 Zn51 1.910 1_554 S
O61 C67 1.231 . S
C62 O46 1.225 1_554 S
C62 O68 1.298 . S
C63 O52 1.226 . S
C63 O53 1.307 . S
C64 O56 1.303 . S
C64 O57 1.247 . S
C65 O54 1.253 . S
C65 O55 1.283 . S
C66 O58 1.304 1_554 S
C66 O60 1.272 . S
C67 O59 1.311 . S
C67 O61 1.231 . S
O68 Zn50 1.953 1_554 S
O68 C62 1.298 . S
O69 Zn70 1.953 . S
O69 C85 1.225 . S
Zn70 O69 1.953 . S
Zn70 O71 1.949 . S
Zn70 O77 1.919 . S
Zn70 O82 1.924 . S
O71 Zn70 1.949 . S
O71 Zn72 1.923 . S
O71 Zn73 1.950 . S
O71 Zn74 1.945 . S
Zn72 O71 1.923 . S
Zn72 O75 1.933 . S
Zn72 O78 1.941 . S
Zn72 O79 1.965 . S
Zn73 O71 1.950 . S
Zn73 O80 1.938 . S
Zn73 O81 1.906 . S
Zn73 O91 1.953 . S
Zn74 O71 1.945 . S
Zn74 O76 1.932 . S
Zn74 O83 1.977 . S
Zn74 O84 1.910 . S
O75 Zn72 1.933 . S
O75 C86 1.226 . S
O76 Zn74 1.932 . S
O76 C86 1.307 . S
O77 Zn70 1.919 . S
O77 C88 1.253 . S
O78 Zn72 1.941 . S
O78 C88 1.283 . S
O79 Zn72 1.965 . S
O79 C87 1.303 . S
O80 Zn73 1.938 . S
O80 C87 1.247 . S
O81 Zn73 1.906 . S
O81 C89 1.304 . S
O82 Zn70 1.924 . S
O82 C90 1.311 . S
O83 Zn74 1.977 . S
O83 C89 1.272 . S
O84 Zn74 1.910 . S
O84 C90 1.231 . S
C85 O69 1.225 . S
C85 O91 1.298 . S
C86 O75 1.226 . S
C86 O76 1.307 . S
C87 O79 1.303 . S
C87 O80 1.247 . S
C88 O77 1.253 . S
C88 O78 1.283 . S
C89 O81 1.304 . S
C89 O83 1.272 . S
C90 O82 1.311 . S
C90 O84 1.231 . S
O91 Zn73 1.953 . S
O91 C85 1.298 . S
O92 Zn93 1.953 . S
O92 C108 1.225 1_554 S
Zn93 O92 1.953 . S
Zn93 O94 1.949 . S
Zn93 O100 1.919 1_565 S
Zn93 O105 1.924 1_564 S
O94 Zn93 1.949 . S
O94 Zn95 1.923 . S
O94 Zn96 1.950 . S
O94 Zn97 1.945 . S
Zn95 O94 1.923 . S
Zn95 O98 1.933 . S
Zn95 O101 1.941 . S
Zn95 O102 1.965 . S
Zn96 O94 1.950 . S
Zn96 O103 1.938 . S
Zn96 O104 1.906 . S
Zn96 O114 1.953 1_554 S
Zn97 O94 1.945 . S
Zn97 O99 1.932 . S
Zn97 O106 1.977 1_554 S
Zn97 O107 1.910 1_554 S
O98 Zn95 1.933 . S
O98 C109 1.226 . S
O99 Zn97 1.932 . S
O99 C109 1.307 . S
O100 Zn93 1.919 1_545 S
O100 C111 1.253 . S
O101 Zn95 1.941 . S
O101 C111 1.283 1_565 S
O102 Zn95 1.965 . S
O102 C110 1.303 . S
O103 Zn96 1.938 . S
O103 C110 1.247 . S
O104 Zn96 1.906 . S
O104 C112 1.304 1_554 S
O105 Zn93 1.924 1_546 S
O105 C113 1.311 1_545 S
O106 Zn97 1.977 1_556 S
O106 C112 1.272 . S
O107 Zn97 1.910 1_556 S
O107 C113 1.231 . S
C108 O92 1.225 1_556 S
C108 O114 1.298 . S
C109 O98 1.226 . S
C109 O99 1.307 . S
C110 O102 1.303 . S
C110 O103 1.247 . S
C111 O100 1.253 . S
C111 O101 1.283 1_545 S
C112 O104 1.304 1_556 S
C112 O106 1.272 . S
C113 O105 1.311 1_565 S
C113 O107 1.231 . S
O114 Zn96 1.953 1_556 S
O114 C108 1.298 . S
O115 Zn116 1.953 . S
O115 C131 1.225 . S
Zn116 O115 1.953 . S
Zn116 O117 1.949 . S
Zn116 O123 1.919 1_565 S
Zn116 O128 1.924 1_565 S
O117 Zn116 1.949 . S
O117 Zn118 1.923 . S
O117 Zn119 1.950 . S
O117 Zn120 1.945 . S
Zn118 O117 1.923 . S
Zn118 O121 1.933 . S
Zn118 O124 1.941 . S
Zn118 O125 1.965 . S
Zn119 O117 1.950 . S
Zn119 O126 1.938 . S
Zn119 O127 1.906 . S
Zn119 O137 1.953 . S
Zn120 O117 1.945 . S
Zn120 O122 1.932 . S
Zn120 O129 1.977 . S
Zn120 O130 1.910 . S
O121 Zn118 1.933 . S
O121 C132 1.226 . S
O122 Zn120 1.932 . S
O122 C132 1.307 . S
O123 Zn116 1.919 1_545 S
O123 C134 1.253 . S
O124 Zn118 1.941 . S
O124 C134 1.283 1_565 S
O125 Zn118 1.965 . S
O125 C133 1.303 . S
O126 Zn119 1.938 . S
O126 C133 1.247 . S
O127 Zn119 1.906 . S
O127 C135 1.304 . S
O128 Zn116 1.924 1_545 S
O128 C136 1.311 1_545 S
O129 Zn120 1.977 . S
O129 C135 1.272 . S
O130 Zn120 1.910 . S
O130 C136 1.231 . S
C131 O115 1.225 . S
C131 O137 1.298 . S
C132 O121 1.226 . S
C132 O122 1.307 . S
C133 O125 1.303 . S
C133 O126 1.247 . S
C134 O123 1.253 . S
C134 O124 1.283 1_545 S
C135 O127 1.304 . S
C135 O129 1.272 . S
C136 O128 1.311 1_565 S
C136 O130 1.231 . S
O137 Zn119 1.953 . S
O137 C131 1.298 . S
O138 Zn139 1.953 . S
O138 C154 1.225 1_556 S
Zn139 O138 1.953 . S
Zn139 O140 1.949 . S
Zn139 O146 1.919 1_545 S
Zn139 O151 1.924 1_546 S
O140 Zn139 1.949 . S
O140 Zn141 1.923 . S
O140 Zn142 1.950 . S
O140 Zn143 1.945 . S
Zn141 O140 1.923 . S
Zn141 O144 1.933 . S
Zn141 O147 1.941 . S
Zn141 O148 1.965 . S
Zn142 O140 1.950 . S
Zn142 O149 1.938 . S
Zn142 O150 1.906 . S
Zn142 O160 1.953 1_556 S
Zn143 O140 1.945 . S
Zn143 O145 1.932 . S
Zn143 O152 1.977 1_556 S
Zn143 O153 1.910 1_556 S
O144 Zn141 1.933 . S
O144 C155 1.226 . S
O145 Zn143 1.932 . S
O145 C155 1.307 . S
O146 Zn139 1.919 1_565 S
O146 C157 1.253 . S
O147 Zn141 1.941 . S
O147 C157 1.283 1_545 S
O148 Zn141 1.965 . S
O148 C156 1.303 . S
O149 Zn142 1.938 . S
O149 C156 1.247 . S
O150 Zn142 1.906 . S
O150 C158 1.304 1_556 S
O151 Zn139 1.924 1_564 S
O151 C159 1.311 1_565 S
O152 Zn143 1.977 1_554 S
O152 C158 1.272 . S
O153 Zn143 1.910 1_554 S
O153 C159 1.231 . S
C154 O138 1.225 1_554 S
C154 O160 1.298 . S
C155 O144 1.226 . S
C155 O145 1.307 . S
C156 O148 1.303 . S
C156 O149 1.247 . S
C157 O146 1.253 . S
C157 O147 1.283 1_565 S
C158 O150 1.304 1_554 S
C158 O152 1.272 . S
C159 O151 1.311 1_545 S
C159 O153 1.231 . S
O160 Zn142 1.953 1_554 S
O160 C154 1.298 . S
O161 Zn162 1.953 . S
O161 C177 1.225 . S
Zn162 O161 1.953 . S
Zn162 O163 1.949 . S
Zn162 O169 1.919 1_545 S
Zn162 O174 1.924 1_545 S
O163 Zn162 1.949 . S
O163 Zn164 1.923 . S
O163 Zn165 1.950 . S
O163 Zn166 1.945 . S
Zn164 O163 1.923 . S
Zn164 O167 1.933 . S
Zn164 O170 1.941 . S
Zn164 O171 1.965 . S
Zn165 O163 1.950 . S
Zn165 O172 1.938 . S
Zn165 O173 1.906 . S
Zn165 O183 1.953 . S
Zn166 O163 1.945 . S
Zn166 O168 1.932 . S
Zn166 O175 1.977 . S
Zn166 O176 1.910 . S
O167 Zn164 1.933 . S
O167 C178 1.226 . S
O168 Zn166 1.932 . S
O168 C178 1.307 . S
O169 Zn162 1.919 1_565 S
O169 C180 1.253 . S
O170 Zn164 1.941 . S
O170 C180 1.283 1_545 S
O171 Zn164 1.965 . S
O171 C179 1.303 . S
O172 Zn165 1.938 . S
O172 C179 1.247 . S
O173 Zn165 1.906 . S
O173 C181 1.304 . S
O174 Zn162 1.924 1_565 S
O174 C182 1.311 1_565 S
O175 Zn166 1.977 . S
O175 C181 1.272 . S
O176 Zn166 1.910 . S
O176 C182 1.231 . S
C177 O161 1.225 . S
C177 O183 1.298 . S
C178 O167 1.226 . S
C178 O168 1.307 . S
C179 O171 1.303 . S
C179 O172 1.247 . S
C180 O169 1.253 . S
C180 O170 1.283 1_565 S
C181 O173 1.304 . S
C181 O175 1.272 . S
C182 O174 1.311 1_545 S
C182 O176 1.231 . S
O183 Zn165 1.953 . S
O183 C177 1.298 . S
C40 C17 1.695 . S
C63 C86 1.695 . S
C132 C109 1.695 1_455 S
C155 C178 1.695 1_455 S
C20 C158 1.713 1_556 S
C43 C181 1.713 . S
C112 C66 1.713 1_556 S
C89 C135 1.713 . S
C62 C16 1.837 1_654 S
C85 C39 1.837 1_455 S
C108 C154 1.837 1_566 S
C131 C177 1.837 1_565 S
C18 C41 2.110 1_455 S
C87 C64 2.110 1_455 S
C133 C110 2.110 . S
C179 C156 2.110 . S
C21 C88 2.243 . S
C44 C65 2.243 . S
C42 C67 2.243 . S
C19 C90 2.243 . S
C113 C180 2.243 . S
C157 C136 2.243 . S
C134 C159 2.243 . S
C182 C111 2.243 . S
