# Generated by pormake.
# Topology sqp, (5)-cn, num edge types: 1
# Building blocks:
#     Node 0, Type 0, BuildingBlock: BEQFEK_clean_sbu_0, # of connection points: 5
#     Node 1, Type 0, BuildingBlock: BEQFEK_clean_sbu_0, # of connection points: 5
#     Node 2, Type 0, BuildingBlock: BEQFEK_clean_sbu_0, # of connection points: 5
#     Node 3, Type 0, BuildingBlock: BEQFEK_clean_sbu_0, # of connection points: 5
#     Edge 4, Type (0, 0), BuildingBlock: OJICUG_clean_linker_0, # of connection points: 2
#     Edge 5, Type (0, 0), BuildingBlock: OJICUG_clean_linker_0, # of connection points: 2
#     Edge 6, Type (0, 0), BuildingBlock: OJICUG_clean_linker_0, # of connection points: 2
#     Edge 7, Type (0, 0), BuildingBlock: OJICUG_clean_linker_0, # of connection points: 2
#     Edge 8, Type (0, 0), BuildingBlock: OJICUG_clean_linker_0, # of connection points: 2
#     Edge 9, Type (0, 0), BuildingBlock: OJICUG_clean_linker_0, # of connection points: 2
#     Edge 10, Type (0, 0), BuildingBlock: OJICUG_clean_linker_0, # of connection points: 2
#     Edge 11, Type (0, 0), BuildingBlock: OJICUG_clean_linker_0, # of connection points: 2
#     Edge 12, Type (0, 0), BuildingBlock: OJICUG_clean_linker_0, # of connection points: 2
#     Edge 13, Type (0, 0), BuildingBlock: OJICUG_clean_linker_0, # of connection points: 2
# Relax obj value: 0.029
# Max RMSD: 0.078
# Mean RMSD: 0.078
data_MOF--net-sqp--node1-BEQFEK_clean_sbu_0--edge1-OJICUG_clean_linker_0
_symmetry_space_group_name_H-M    P1
_symmetry_Int_Tables_number       1
_symmetry_cell_setting            triclinic
loop_
_symmetry_equiv_pos_as_xyz
'x, y, z'
_cell_length_a     18.794091
_cell_length_b     18.787984
_cell_length_c     29.295072
_cell_angle_alpha  95.724027
_cell_angle_beta   95.678433
_cell_angle_gamma 104.89361
loop_
_atom_site_label
_atom_site_type_symbol
_atom_site_fract_x
_atom_site_fract_y
_atom_site_fract_z
_atom_type_partial_charge
Co0 Co 0.05986 0.92628 0.28946 0.0
Co1 Co 0.95727 0.03545 0.29599 0.0
C2 C 0.89382 0.8782 0.25645 0.0
O3 O 0.95765 0.8667 0.2638 0.0
O4 O 0.88476 0.94272 0.26561 0.0
C5 C 0.12812 0.84533 0.23029 0.0
O6 O 0.08464 0.867 0.19986 0.0
C7 C 0.86207 0.13542 0.2734 0.0
C8 C 0.89588 0.21915 0.33555 0.0
C9 C 0.85099 0.20166 0.29332 0.0
N10 N 0.91221 0.11605 0.30231 0.0
N11 N 0.93155 0.16614 0.33948 0.0
C12 C 0.82476 0.09017 0.22839 0.0
H13 H 0.82477 0.03133 0.22862 0.0
H14 H 0.85553 0.11161 0.2 0.0
H15 H 0.76674 0.09379 0.22143 0.0
C16 C 0.15303 0.05457 0.25227 0.0
N17 N 0.08816 0.0185 0.26557 0.0
N18 N 0.04386 0.06259 0.26624 0.0
C19 C 0.07886 0.12762 0.25265 0.0
C20 C 0.14919 0.12479 0.24356 0.0
C21 C 0.22107 0.02685 0.25468 0.0
H22 H 0.22211 0.99262 0.28332 0.0
H23 H 0.22027 0.99208 0.22163 0.0
H24 H 0.27241 0.07349 0.26002 0.0
O25 O 0.06257 0.94439 0.35732 0.0
O26 O 0.987 0.01805 0.35973 0.0
H27 H 0.04564 0.21781 0.28634 0.0
H28 H 0.08087 0.2357 0.23225 0.0
C29 C 0.04728 0.19283 0.25067 0.0
H30 H 0.98998 0.17419 0.23235 0.0
H31 H 0.9701 0.1647 0.36734 0.0
O32 O 0.12749 0.86446 0.2731 0.0
C33 C 0.02762 0.98271 0.37999 0.0
Co34 Co 0.09255 0.95918 0.66877 0.0
Co35 Co 0.98347 0.06187 0.6623 0.0
C36 C 0.14065 0.12537 0.70171 0.0
O37 O 0.15211 0.06148 0.69435 0.0
O38 O 0.07616 0.13445 0.69263 0.0
C39 C 0.1734 0.89097 0.72798 0.0
O40 O 0.15165 0.93445 0.7584 0.0
C41 C 0.88351 0.15718 0.68477 0.0
C42 C 0.79969 0.12289 0.62271 0.0
C43 C 0.81722 0.16807 0.66487 0.0
N44 N 0.90287 0.10688 0.65593 0.0
N45 N 0.85273 0.08726 0.61882 0.0
C46 C 0.92881 0.19483 0.7297 0.0
H47 H 0.98766 0.19496 0.72939 0.0
H48 H 0.90757 0.16419 0.75818 0.0
H49 H 0.92505 0.25284 0.73656 0.0
C50 C 0.96429 0.86612 0.70605 0.0
N51 N 1.00038 0.93098 0.69273 0.0
N52 N 0.95636 0.97535 0.69211 0.0
C53 C 0.89138 0.94043 0.70578 0.0
C54 C 0.89413 0.87006 0.71483 0.0
C55 C 0.9919 0.798 0.70358 0.0
H56 H 0.02618 0.79696 0.67495 0.0
H57 H 0.02659 0.79872 0.73662 0.0
H58 H 0.94524 0.74668 0.69819 0.0
O59 O 0.07441 0.9563 0.60091 0.0
O60 O 1.00088 0.03198 0.59856 0.0
H61 H 0.80112 0.97362 0.67224 0.0
H62 H 0.78353 0.9387 0.72645 0.0
C63 C 0.82628 0.97214 0.70788 0.0
H64 H 0.84505 0.02953 0.7261 0.0
H65 H 0.85415 0.04853 0.59103 0.0
O66 O 0.15436 0.89156 0.68517 0.0
C67 C 0.03613 0.99127 0.57827 0.0
Co68 Co 0.56109 0.42744 0.78916 0.0
Co69 Co 0.45945 0.53731 0.79651 0.0
C70 C 0.39554 0.37998 0.7562 0.0
O71 O 0.45917 0.36813 0.76348 0.0
O72 O 0.38683 0.4446 0.7656 0.0
C73 C 0.62321 0.33945 0.7306 0.0
O74 O 0.57399 0.35437 0.70062 0.0
C75 C 0.36633 0.63807 0.77226 0.0
C76 C 0.38764 0.71408 0.83765 0.0
C77 C 0.34944 0.70058 0.79333 0.0
N78 N 0.41292 0.61685 0.8027 0.0
N79 N 0.42502 0.66245 0.84171 0.0
C80 C 0.33708 0.59728 0.72484 0.0
H81 H 0.3422 0.53967 0.72262 0.0
H82 H 0.37003 0.62576 0.69931 0.0
H83 H 0.2781 0.59648 0.71574 0.0
C84 C 0.65447 0.55501 0.75173 0.0
N85 N 0.58963 0.51975 0.76537 0.0
N86 N 0.54668 0.56511 0.76733 0.0
C87 C 0.58285 0.63063 0.7548 0.0
C88 C 0.65238 0.62641 0.74458 0.0
C89 C 0.71845 0.52188 0.74784 0.0
H90 H 0.72884 0.49572 0.77925 0.0
H91 H 0.70418 0.47826 0.71752 0.0
H92 H 0.76977 0.56343 0.74273 0.0
O93 O 0.56368 0.44515 0.85716 0.0
O94 O 0.48853 0.51918 0.86005 0.0
H95 H 0.54627 0.7119 0.79557 0.0
H96 H 0.59633 0.74798 0.74992 0.0
C97 C 0.55597 0.69912 0.75933 0.0
H98 H 0.50267 0.68902 0.73663 0.0
H99 H 0.4593 0.6586 0.87111 0.0
O100 O 0.62867 0.36567 0.77291 0.0
C101 C 0.52888 0.48338 0.88006 0.0
Co102 Co 0.59172 0.4576 0.16894 0.0
Co103 Co 0.48194 0.55935 0.16183 0.0
C104 C 0.63924 0.62327 0.20195 0.0
O105 O 0.65105 0.5596 0.19458 0.0
O106 O 0.57463 0.63201 0.19268 0.0
C107 C 0.67959 0.39549 0.22748 0.0
O108 O 0.66453 0.44469 0.25746 0.0
C109 C 0.38123 0.65258 0.18607 0.0
C110 C 0.30508 0.63085 0.12074 0.0
C111 C 0.31866 0.66931 0.16501 0.0
N112 N 0.4024 0.60583 0.15567 0.0
N113 N 0.35673 0.59349 0.1167 0.0
C114 C 0.42209 0.68213 0.23343 0.0
H115 H 0.47972 0.67713 0.23559 0.0
H116 H 0.39377 0.64927 0.25905 0.0
H117 H 0.42278 0.74113 0.24245 0.0
C118 C 0.46425 0.36424 0.20649 0.0
N119 N 0.4995 0.4291 0.19285 0.0
N120 N 0.45421 0.47212 0.19101 0.0
C121 C 0.38876 0.436 0.20365 0.0
C122 C 0.39294 0.36642 0.21379 0.0
C123 C 0.49729 0.30017 0.21023 0.0
H124 H 0.52348 0.28988 0.1788 0.0
H125 H 0.54085 0.3143 0.24056 0.0
H126 H 0.45571 0.24881 0.21524 0.0
O127 O 0.5739 0.45493 0.10095 0.0
O128 O 0.5 0.53022 0.09827 0.0
H129 H 0.30734 0.47252 0.16305 0.0
H130 H 0.27158 0.42276 0.20889 0.0
C131 C 0.32036 0.46299 0.19929 0.0
H132 H 0.33066 0.51643 0.22193 0.0
H133 H 0.36054 0.55904 0.08734 0.0
O134 O 0.6535 0.39003 0.18516 0.0
C135 C 0.53568 0.48981 0.07815 0.0
C136 C 0.07276 0.9447 0.45513 0.0
C137 C 0.03149 0.98486 0.43079 0.0
H138 H 0.10647 0.91474 0.52097 0.0
C139 C 0.99163 0.02616 0.45533 0.0
H140 H 0.10389 0.91215 0.43721 0.0
C141 C 0.99276 0.02731 0.50296 0.0
C142 C 0.03395 0.98735 0.52746 0.0
H143 H 0.95908 0.05769 0.4378 0.0
H144 H 0.96132 0.05995 0.52053 0.0
C145 C 0.074 0.94596 0.50307 0.0
C146 C 0.49308 0.5265 0.00294 0.0
C147 C 0.53405 0.48629 0.02738 0.0
H148 H 0.45996 0.55761 0.93794 0.0
C149 C 0.57434 0.44517 0.00299 0.0
H150 H 0.46147 0.55897 0.02049 0.0
C151 C 0.57352 0.44444 0.95508 0.0
C152 C 0.53246 0.48488 0.93082 0.0
H153 H 0.60665 0.41378 0.02085 0.0
H154 H 0.60481 0.4121 0.93712 0.0
C155 C 0.49239 0.52589 0.95539 0.0
C156 C 0.23187 0.25347 0.26614 0.0
C157 C 0.21103 0.18694 0.23559 0.0
H158 H 0.30696 0.36251 0.28327 0.0
C159 C 0.2507 0.17934 0.19814 0.0
H160 H 0.20259 0.26003 0.29566 0.0
C161 C 0.3099 0.23784 0.19101 0.0
C162 C 0.33102 0.30423 0.22171 0.0
H163 H 0.2354 0.12843 0.17421 0.0
H164 H 0.33894 0.23145 0.16136 0.0
C165 C 0.29151 0.3117 0.25925 0.0
C166 C 0.77682 0.2927 0.30665 0.0
C167 C 0.80416 0.24802 0.27526 0.0
H168 H 0.71632 0.37386 0.31631 0.0
C169 C 0.79027 0.25246 0.22769 0.0
H170 H 0.7868 0.29107 0.34355 0.0
C171 C 0.74905 0.29964 0.21197 0.0
C172 C 0.72216 0.34444 0.24354 0.0
H173 H 0.81297 0.22158 0.20252 0.0
H174 H 0.73958 0.30214 0.17515 0.0
C175 C 0.73645 0.34033 0.29103 0.0
C176 C 0.69435 0.7611 0.22327 0.0
C177 C 0.70351 0.68888 0.2175 0.0
H178 H 0.74717 0.87773 0.23951 0.0
C179 C 0.77573 0.67998 0.22369 0.0
H180 H 0.63955 0.77002 0.21847 0.0
C181 C 0.83724 0.74153 0.23516 0.0
C182 C 0.82832 0.81378 0.24101 0.0
H183 H 0.7851 0.62532 0.21927 0.0
H184 H 0.89187 0.73219 0.23983 0.0
C185 C 0.75611 0.8229 0.23496 0.0
C186 C 0.21729 0.76845 0.24584 0.0
C187 C 0.17869 0.80184 0.21456 0.0
H188 H 0.28955 0.69844 0.25501 0.0
C189 C 0.1882 0.7928 0.1676 0.0
H190 H 0.21057 0.77382 0.28221 0.0
C191 C 0.23483 0.75106 0.15217 0.0
C192 C 0.27319 0.7171 0.18322 0.0
H193 H 0.15955 0.81795 0.14255 0.0
H194 H 0.24064 0.74525 0.11566 0.0
C195 C 0.26357 0.72598 0.23028 0.0
C196 C 0.29297 0.75571 0.72806 0.0
C197 C 0.30167 0.74603 0.7751 0.0
H198 H 0.24524 0.8087 0.67611 0.0
C199 C 0.26753 0.78431 0.80612 0.0
H200 H 0.32063 0.72981 0.70334 0.0
C201 C 0.22579 0.8309 0.79068 0.0
C202 C 0.2169 0.84045 0.74372 0.0
H203 H 0.27321 0.77846 0.84262 0.0
H204 H 0.20049 0.85948 0.8157 0.0
C205 C 0.25048 0.80194 0.71247 0.0
C206 C 0.19595 0.2631 0.72338 0.0
C207 C 0.20508 0.19088 0.7171 0.0
H208 H 0.24882 0.37968 0.74007 0.0
C209 C 0.27731 0.18196 0.7227 0.0
H210 H 0.14113 0.27204 0.71903 0.0
C211 C 0.33884 0.24349 0.73416 0.0
C212 C 0.32994 0.31572 0.74061 0.0
H213 H 0.28665 0.12732 0.71784 0.0
H214 H 0.3935 0.23412 0.73839 0.0
C215 C 0.25774 0.32488 0.73507 0.0
C216 C 0.72601 0.242 0.65147 0.0
C217 C 0.77081 0.2149 0.68289 0.0
H218 H 0.6447 0.30228 0.64176 0.0
C219 C 0.76645 0.22903 0.73046 0.0
H220 H 0.72758 0.23182 0.61457 0.0
C221 C 0.71922 0.27024 0.74616 0.0
C222 C 0.6743 0.29688 0.71456 0.0
H223 H 0.79743 0.20652 0.75566 0.0
H224 H 0.71679 0.2799 0.78297 0.0
C225 C 0.67833 0.28236 0.66707 0.0
C226 C 0.70711 0.728 0.69924 0.0
C227 C 0.71458 0.68833 0.73669 0.0
H228 H 0.75883 0.81698 0.66289 0.0
C229 C 0.78101 0.70928 0.7673 0.0
H230 H 0.65628 0.71268 0.67528 0.0
C231 C 0.83954 0.76845 0.76018 0.0
C232 C 0.83195 0.80826 0.72281 0.0
H233 H 0.7874 0.68012 0.79689 0.0
H234 H 0.89048 0.78361 0.78404 0.0
C235 C 0.76539 0.7876 0.69235 0.0
loop_
_geom_bond_atom_site_label_1
_geom_bond_atom_site_label_2
_geom_bond_distance
_geom_bond_site_symmetry_2
_ccdc_geom_bond_type
Co0 O3 1.970 1_455 S
Co0 N17 1.989 1_565 S
Co0 O25 1.967 . S
Co0 O32 1.920 . S
Co1 O4 1.966 1_545 S
Co1 N10 2.022 . S
Co1 N18 1.993 1_655 S
Co1 O26 1.941 . S
C2 O3 1.258 . S
C2 O4 1.263 . S
O3 Co0 1.970 1_655 S
O3 C2 1.258 . S
O4 Co1 1.966 1_565 S
O4 C2 1.263 . S
C5 O6 1.235 . S
C5 O32 1.289 . S
O6 C5 1.235 . S
C7 C9 1.400 . S
C7 N10 1.351 . S
C7 C12 1.501 . S
C8 C9 1.387 . S
C8 N11 1.341 . S
C9 C7 1.400 . S
C9 C8 1.387 . S
N10 Co1 2.022 . S
N10 C7 1.351 . S
N10 N11 1.365 . S
N11 C8 1.341 . S
N11 N10 1.365 . S
N11 H31 0.862 . S
C12 C7 1.501 . S
C12 H13 0.961 . S
C12 H14 0.961 . S
C12 H15 0.960 . S
H13 C12 0.961 . S
H14 C12 0.961 . S
H15 C12 0.960 . S
C16 N17 1.342 . S
C16 C20 1.401 . S
C16 C21 1.499 . S
N17 Co0 1.989 1_545 S
N17 C16 1.342 . S
N17 N18 1.388 . S
N18 Co1 1.993 1_455 S
N18 N17 1.388 . S
N18 C19 1.346 . S
C19 N18 1.346 . S
C19 C20 1.396 . S
C19 C29 1.510 . S
C20 C16 1.401 . S
C20 C19 1.396 . S
C21 C16 1.499 . S
C21 H22 0.959 1_545 S
C21 H23 0.960 . S
C21 H24 0.961 . S
H22 C21 0.959 1_565 S
H23 C21 0.960 . S
H24 C21 0.961 . S
O25 Co0 1.967 . S
O25 C33 1.258 . S
O26 Co1 1.941 . S
O26 C33 1.266 1_645 S
H27 C29 0.959 . S
H28 C29 0.961 . S
C29 C19 1.510 . S
C29 H27 0.959 . S
C29 H28 0.961 . S
C29 H30 0.960 1_455 S
H30 C29 0.960 1_655 S
H31 N11 0.862 . S
O32 Co0 1.920 . S
O32 C5 1.289 . S
C33 O25 1.258 . S
C33 O26 1.266 1_465 S
Co34 O37 1.970 1_565 S
Co34 N51 1.989 1_455 S
Co34 O59 1.967 . S
Co34 O66 1.920 . S
Co35 O38 1.966 1_655 S
Co35 N44 2.022 . S
Co35 N52 1.993 1_545 S
Co35 O60 1.941 . S
C36 O37 1.258 . S
C36 O38 1.263 . S
O37 Co34 1.970 1_545 S
O37 C36 1.258 . S
O38 Co35 1.966 1_455 S
O38 C36 1.263 . S
C39 O40 1.235 . S
C39 O66 1.289 . S
O40 C39 1.235 . S
C41 C43 1.400 . S
C41 N44 1.351 . S
C41 C46 1.501 . S
C42 C43 1.387 . S
C42 N45 1.341 . S
C43 C41 1.400 . S
C43 C42 1.387 . S
N44 Co35 2.022 . S
N44 C41 1.351 . S
N44 N45 1.365 . S
N45 C42 1.341 . S
N45 N44 1.365 . S
N45 H65 0.862 . S
C46 C41 1.501 . S
C46 H47 0.961 1_655 S
C46 H48 0.961 . S
C46 H49 0.960 . S
H47 C46 0.961 1_455 S
H48 C46 0.961 . S
H49 C46 0.960 . S
C50 N51 1.342 . S
C50 C54 1.401 . S
C50 C55 1.499 . S
N51 Co34 1.989 1_655 S
N51 C50 1.342 . S
N51 N52 1.388 . S
N52 Co35 1.993 1_565 S
N52 N51 1.388 . S
N52 C53 1.346 . S
C53 N52 1.346 . S
C53 C54 1.396 . S
C53 C63 1.510 . S
C54 C50 1.401 . S
C54 C53 1.396 . S
C55 C50 1.499 . S
C55 H56 0.959 1_655 S
C55 H57 0.960 . S
C55 H58 0.961 . S
H56 C55 0.959 1_455 S
H57 C55 0.960 . S
H58 C55 0.961 . S
O59 Co34 1.967 . S
O59 C67 1.258 . S
O60 Co35 1.941 . S
O60 C67 1.266 1_645 S
H61 C63 0.959 . S
H62 C63 0.961 . S
C63 C53 1.510 . S
C63 H61 0.959 . S
C63 H62 0.961 . S
C63 H64 0.960 1_565 S
H64 C63 0.960 1_545 S
H65 N45 0.862 . S
O66 Co34 1.920 . S
O66 C39 1.289 . S
C67 O59 1.258 . S
C67 O60 1.266 1_465 S
Co68 O71 1.970 . S
Co68 N85 1.989 . S
Co68 O93 1.967 . S
Co68 O100 1.920 . S
Co69 O72 1.966 . S
Co69 N78 2.022 . S
Co69 N86 1.993 . S
Co69 O94 1.941 . S
C70 O71 1.258 . S
C70 O72 1.263 . S
O71 Co68 1.970 . S
O71 C70 1.258 . S
O72 Co69 1.966 . S
O72 C70 1.263 . S
C73 O74 1.235 . S
C73 O100 1.289 . S
O74 C73 1.235 . S
C75 C77 1.400 . S
C75 N78 1.351 . S
C75 C80 1.501 . S
C76 C77 1.387 . S
C76 N79 1.341 . S
C77 C75 1.400 . S
C77 C76 1.387 . S
N78 Co69 2.022 . S
N78 C75 1.351 . S
N78 N79 1.365 . S
N79 C76 1.341 . S
N79 N78 1.365 . S
N79 H99 0.862 . S
C80 C75 1.501 . S
C80 H81 0.961 . S
C80 H82 0.961 . S
C80 H83 0.960 . S
H81 C80 0.961 . S
H82 C80 0.961 . S
H83 C80 0.960 . S
C84 N85 1.342 . S
C84 C88 1.401 . S
C84 C89 1.499 . S
N85 Co68 1.989 . S
N85 C84 1.342 . S
N85 N86 1.388 . S
N86 Co69 1.993 . S
N86 N85 1.388 . S
N86 C87 1.346 . S
C87 N86 1.346 . S
C87 C88 1.396 . S
C87 C97 1.510 . S
C88 C84 1.401 . S
C88 C87 1.396 . S
C89 C84 1.499 . S
C89 H90 0.959 . S
C89 H91 0.960 . S
C89 H92 0.961 . S
H90 C89 0.959 . S
H91 C89 0.960 . S
H92 C89 0.961 . S
O93 Co68 1.967 . S
O93 C101 1.258 . S
O94 Co69 1.941 . S
O94 C101 1.266 . S
H95 C97 0.959 . S
H96 C97 0.961 . S
C97 C87 1.510 . S
C97 H95 0.959 . S
C97 H96 0.961 . S
C97 H98 0.960 . S
H98 C97 0.960 . S
H99 N79 0.862 . S
O100 Co68 1.920 . S
O100 C73 1.289 . S
C101 O93 1.258 . S
C101 O94 1.266 . S
Co102 O105 1.970 . S
Co102 N119 1.989 . S
Co102 O127 1.967 . S
Co102 O134 1.920 . S
Co103 O106 1.966 . S
Co103 N112 2.022 . S
Co103 N120 1.993 . S
Co103 O128 1.941 . S
C104 O105 1.258 . S
C104 O106 1.263 . S
O105 Co102 1.970 . S
O105 C104 1.258 . S
O106 Co103 1.966 . S
O106 C104 1.263 . S
C107 O108 1.235 . S
C107 O134 1.289 . S
O108 C107 1.235 . S
C109 C111 1.400 . S
C109 N112 1.351 . S
C109 C114 1.501 . S
C110 C111 1.387 . S
C110 N113 1.341 . S
C111 C109 1.400 . S
C111 C110 1.387 . S
N112 Co103 2.022 . S
N112 C109 1.351 . S
N112 N113 1.365 . S
N113 C110 1.341 . S
N113 N112 1.365 . S
N113 H133 0.862 . S
C114 C109 1.501 . S
C114 H115 0.961 . S
C114 H116 0.961 . S
C114 H117 0.960 . S
H115 C114 0.961 . S
H116 C114 0.961 . S
H117 C114 0.960 . S
C118 N119 1.342 . S
C118 C122 1.401 . S
C118 C123 1.499 . S
N119 Co102 1.989 . S
N119 C118 1.342 . S
N119 N120 1.388 . S
N120 Co103 1.993 . S
N120 N119 1.388 . S
N120 C121 1.346 . S
C121 N120 1.346 . S
C121 C122 1.396 . S
C121 C131 1.510 . S
C122 C118 1.401 . S
C122 C121 1.396 . S
C123 C118 1.499 . S
C123 H124 0.959 . S
C123 H125 0.960 . S
C123 H126 0.961 . S
H124 C123 0.959 . S
H125 C123 0.960 . S
H126 C123 0.961 . S
O127 Co102 1.967 . S
O127 C135 1.258 . S
O128 Co103 1.941 . S
O128 C135 1.266 . S
H129 C131 0.959 . S
H130 C131 0.961 . S
C131 C121 1.510 . S
C131 H129 0.959 . S
C131 H130 0.961 . S
C131 H132 0.960 . S
H132 C131 0.960 . S
H133 N113 0.862 . S
O134 Co102 1.920 . S
O134 C107 1.289 . S
C135 O127 1.258 . S
C135 O128 1.266 . S
C136 C137 1.387 1_655 S
C136 H140 0.950 . S
C136 C145 1.390 . S
C137 C136 1.387 1_455 S
C137 C139 1.387 1_565 S
H138 C145 0.950 . S
C139 C137 1.387 1_545 S
C139 C141 1.390 . S
C139 H143 0.950 . S
H140 C136 0.950 . S
C141 C139 1.390 . S
C141 C142 1.387 1_545 S
C141 H144 0.950 . S
C142 C141 1.387 1_565 S
C142 C145 1.387 1_455 S
H143 C139 0.950 . S
H144 C141 0.950 . S
C145 C136 1.390 . S
C145 H138 0.950 . S
C145 C142 1.387 1_655 S
C146 C147 1.387 . S
C146 H150 0.950 . S
C146 C155 1.390 1_554 S
C147 C146 1.387 . S
C147 C149 1.387 . S
H148 C155 0.950 . S
C149 C147 1.387 . S
C149 C151 1.390 1_554 S
C149 H153 0.950 . S
H150 C146 0.950 . S
C151 C149 1.390 1_556 S
C151 C152 1.387 . S
C151 H154 0.950 . S
C152 C151 1.387 . S
C152 C155 1.387 . S
H153 C149 0.950 . S
H154 C151 0.950 . S
C155 C146 1.390 1_556 S
C155 H148 0.950 . S
C155 C152 1.387 . S
C156 C157 1.387 . S
C156 H160 0.950 . S
C156 C165 1.390 . S
C157 C156 1.387 . S
C157 C159 1.387 . S
H158 C165 0.950 . S
C159 C157 1.387 . S
C159 C161 1.390 . S
C159 H163 0.950 . S
H160 C156 0.950 . S
C161 C159 1.390 . S
C161 C162 1.387 . S
C161 H164 0.950 . S
C162 C161 1.387 . S
C162 C165 1.387 . S
H163 C159 0.950 . S
H164 C161 0.950 . S
C165 C156 1.390 . S
C165 H158 0.950 . S
C165 C162 1.387 . S
C166 C167 1.387 . S
C166 H170 0.950 . S
C166 C175 1.390 . S
C167 C166 1.387 . S
C167 C169 1.387 . S
H168 C175 0.950 . S
C169 C167 1.387 . S
C169 C171 1.390 . S
C169 H173 0.950 . S
H170 C166 0.950 . S
C171 C169 1.390 . S
C171 C172 1.387 . S
C171 H174 0.950 . S
C172 C171 1.387 . S
C172 C175 1.387 . S
H173 C169 0.950 . S
H174 C171 0.950 . S
C175 C166 1.390 . S
C175 H168 0.950 . S
C175 C172 1.387 . S
C176 C177 1.387 . S
C176 H180 0.950 . S
C176 C185 1.390 . S
C177 C176 1.387 . S
C177 C179 1.387 . S
H178 C185 0.950 . S
C179 C177 1.387 . S
C179 C181 1.390 . S
C179 H183 0.950 . S
H180 C176 0.950 . S
C181 C179 1.390 . S
C181 C182 1.387 . S
C181 H184 0.950 . S
C182 C181 1.387 . S
C182 C185 1.387 . S
H183 C179 0.950 . S
H184 C181 0.950 . S
C185 C176 1.390 . S
C185 H178 0.950 . S
C185 C182 1.387 . S
C186 C187 1.387 . S
C186 H190 0.950 . S
C186 C195 1.390 . S
C187 C186 1.387 . S
C187 C189 1.387 . S
H188 C195 0.950 . S
C189 C187 1.387 . S
C189 C191 1.390 . S
C189 H193 0.950 . S
H190 C186 0.950 . S
C191 C189 1.390 . S
C191 C192 1.387 . S
C191 H194 0.950 . S
C192 C191 1.387 . S
C192 C195 1.387 . S
H193 C189 0.950 . S
H194 C191 0.950 . S
C195 C186 1.390 . S
C195 H188 0.950 . S
C195 C192 1.387 . S
C196 C197 1.387 . S
C196 H200 0.950 . S
C196 C205 1.390 . S
C197 C196 1.387 . S
C197 C199 1.387 . S
H198 C205 0.950 . S
C199 C197 1.387 . S
C199 C201 1.390 . S
C199 H203 0.950 . S
H200 C196 0.950 . S
C201 C199 1.390 . S
C201 C202 1.387 . S
C201 H204 0.950 . S
C202 C201 1.387 . S
C202 C205 1.387 . S
H203 C199 0.950 . S
H204 C201 0.950 . S
C205 C196 1.390 . S
C205 H198 0.950 . S
C205 C202 1.387 . S
C206 C207 1.387 . S
C206 H210 0.950 . S
C206 C215 1.390 . S
C207 C206 1.387 . S
C207 C209 1.387 . S
H208 C215 0.950 . S
C209 C207 1.387 . S
C209 C211 1.390 . S
C209 H213 0.950 . S
H210 C206 0.950 . S
C211 C209 1.390 . S
C211 C212 1.387 . S
C211 H214 0.950 . S
C212 C211 1.387 . S
C212 C215 1.387 . S
H213 C209 0.950 . S
H214 C211 0.950 . S
C215 C206 1.390 . S
C215 H208 0.950 . S
C215 C212 1.387 . S
C216 C217 1.387 . S
C216 H220 0.950 . S
C216 C225 1.390 . S
C217 C216 1.387 . S
C217 C219 1.387 . S
H218 C225 0.950 . S
C219 C217 1.387 . S
C219 C221 1.390 . S
C219 H223 0.950 . S
H220 C216 0.950 . S
C221 C219 1.390 . S
C221 C222 1.387 . S
C221 H224 0.950 . S
C222 C221 1.387 . S
C222 C225 1.387 . S
H223 C219 0.950 . S
H224 C221 0.950 . S
C225 C216 1.390 . S
C225 H218 0.950 . S
C225 C222 1.387 . S
C226 C227 1.387 . S
C226 H230 0.950 . S
C226 C235 1.390 . S
C227 C226 1.387 . S
C227 C229 1.387 . S
H228 C235 0.950 . S
C229 C227 1.387 . S
C229 C231 1.390 . S
C229 H233 0.950 . S
H230 C226 0.950 . S
C231 C229 1.390 . S
C231 C232 1.387 . S
C231 H234 0.950 . S
C232 C231 1.387 . S
C232 C235 1.387 . S
H233 C229 0.950 . S
H234 C231 0.950 . S
C235 C226 1.390 . S
C235 H228 0.950 . S
C235 C232 1.387 . S
C137 C33 1.511 . S
C142 C67 1.512 . S
C147 C135 1.512 . S
C152 C101 1.512 . S
C157 C20 1.313 . S
C162 C122 1.313 . S
C167 C9 1.513 . S
C172 C107 1.526 . S
C177 C104 1.602 . S
C182 C2 1.602 . S
C187 C5 1.526 . S
C192 C111 1.511 . S
C197 C77 1.511 . S
C202 C39 1.526 . S
C207 C36 1.602 . S
C212 C70 1.602 . S
C217 C43 1.513 . S
C222 C73 1.526 . S
C227 C88 1.313 . S
C232 C54 1.314 . S
