# Generated by pormake.
# Topology dmp, (4)-cn, num edge types: 1
# Building blocks:
#     Node 0, Type 0, BuildingBlock: KUFVIS_clean_sbu_0, # of connection points: 4
#     Node 1, Type 0, BuildingBlock: KUFVIS_clean_sbu_0, # of connection points: 4
#     Node 2, Type 0, BuildingBlock: KUFVIS_clean_sbu_0, # of connection points: 4
#     Node 3, Type 0, BuildingBlock: KUFVIS_clean_sbu_0, # of connection points: 4
#     Edge 4, Type (0, 0), None
#     Edge 5, Type (0, 0), None
#     Edge 6, Type (0, 0), None
#     Edge 7, Type (0, 0), None
#     Edge 8, Type (0, 0), None
#     Edge 9, Type (0, 0), None
#     Edge 10, Type (0, 0), None
#     Edge 11, Type (0, 0), None
# Relax obj value: 0.118
# Max RMSD: 0.215
# Mean RMSD: 0.215
data_MOF--net-dmp--node1-KUFVIS_clean_sbu_0--edge1-none
_symmetry_space_group_name_H-M    P1
_symmetry_Int_Tables_number       1
_symmetry_cell_setting            triclinic
loop_
_symmetry_equiv_pos_as_xyz
'x, y, z'
_cell_length_a     17.895167
_cell_length_b     8.724246
_cell_length_c     9.3968666
_cell_angle_alpha  90.95548
_cell_angle_beta   88.912453
_cell_angle_gamma 95.532039
loop_
_atom_site_label
_atom_site_type_symbol
_atom_site_fract_x
_atom_site_fract_y
_atom_site_fract_z
_atom_type_partial_charge
Mn0 Mn 0.09762 0.26484 0.17006 0.0
Mn1 Mn 0.19101 0.10615 -0.05127 0.0
C2 C 0.21007 0.4397 -0.02796 0.0
C3 C 0.00999 0.41774 0.32681 0.0
C4 C 0.21577 0.01511 0.25771 0.0
O5 O 0.01159 0.12286 0.02996 0.0
O6 O 0.08948 0.00115 -0.10285 0.0
C7 C 0.15015 0.13489 0.65018 0.0
N8 N 0.20352 0.14536 0.75269 0.0
C9 C 0.29566 0.25318 0.5898 0.0
C10 C 0.24229 0.24643 0.48391 0.0
C11 C 0.16931 0.1851 0.51419 0.0
C12 C 0.27408 0.20213 0.7244 0.0
H13 H 0.09273 0.09165 0.66987 0.0
C14 C 0.02183 0.02509 -0.07747 0.0
O15 O 0.02359 0.27534 0.3522 0.0
O16 O 0.04236 0.46117 0.20857 0.0
N17 N 0.29439 0.19327 -0.03195 0.0
C18 C 0.33951 0.22664 0.08282 0.0
C19 C 0.41719 0.23991 0.06151 0.0
C20 C 0.44597 0.27571 -0.07332 0.0
C21 C 0.39689 0.27706 0.81409 0.0
C22 C 0.32258 0.22066 0.83622 0.0
H23 H 0.31787 0.22341 0.18962 0.0
O24 O 0.15999 0.32828 -0.00868 0.0
O25 O 0.1592 0.3227 -0.01293 0.0
O26 O 0.1721 0.07622 0.16996 0.0
O27 O 0.17465 0.07222 0.16464 0.0
C28 C 0.41895 0.33225 0.68116 0.0
C29 C 0.36797 0.32001 0.56865 0.0
H30 H 0.25603 0.29328 0.38011 0.0
H31 H 0.1284 0.17448 0.43251 0.0
H32 H 0.45449 0.22898 0.14918 0.0
H33 H 0.50573 0.30036 -0.09051 0.0
H34 H 0.47444 0.38773 0.66882 0.0
H35 H 0.38212 0.36428 0.46557 0.0
Mn36 Mn 0.39106 0.67794 0.22189 0.0
Mn37 Mn 0.29719 0.80565 -0.06726 0.0
C38 C 0.26374 0.50643 0.08451 0.0
C39 C 0.48253 0.52472 0.33845 0.0
C40 C 0.28415 0.92789 0.21462 0.0
O41 O 0.46777 0.83346 0.07727 0.0
O42 O 0.40502 0.86562 0.87655 0.0
C43 C 0.32842 0.67263 0.65209 0.0
N44 N 0.27959 0.69297 0.76201 0.0
C45 C 0.17496 0.60391 0.62069 0.0
C46 C 0.22272 0.58385 0.5046 0.0
C47 C 0.2999 0.62069 0.51998 0.0
C48 C 0.20496 0.67414 0.74271 0.0
H49 H 0.38812 0.69961 0.66397 0.0
C50 C 0.46517 0.89256 -0.05195 0.0
O51 O 0.47234 0.66616 0.38042 0.0
O52 O 0.44629 0.4867 0.22348 0.0
N53 N 0.1924 0.76307 -0.02532 0.0
C54 C 0.15303 0.74833 0.10094 0.0
C55 C 0.0754 0.74206 0.10102 0.0
C56 C 0.03935 0.70124 -0.02501 0.0
C57 C 0.08234 0.67117 0.85333 0.0
C58 C 0.15897 0.71247 0.85462 0.0
H59 H 0.17917 0.73452 0.20113 0.0
O60 O 0.31444 0.61683 0.06331 0.0
O61 O 0.3149 0.62119 0.05882 0.0
O62 O 0.32084 0.85069 0.29914 0.0
O63 O 0.31051 0.9403 0.09157 0.0
C64 C 0.05289 0.58797 0.73812 0.0
C65 C 0.09947 0.54943 0.62379 0.0
H66 H 0.20086 0.538 0.40423 0.0
H67 H 0.33685 0.60344 0.43115 0.0
H68 H 0.04379 0.75329 0.1991 0.0
H69 H 0.97879 0.68585 -0.02545 0.0
H70 H -0.00503 0.54793 0.74593 0.0
H71 H 0.07994 0.46612 0.5463 0.0
Mn72 Mn 0.87655 0.6818 0.58721 0.0
Mn73 Mn 0.78708 0.84924 0.80696 0.0
C74 C 0.77304 0.50882 0.80858 0.0
C75 C 0.96187 0.52758 0.42522 0.0
C76 C 0.75614 0.93893 0.50655 0.0
O77 O 0.96534 0.82836 0.71827 0.0
O78 O 0.88913 0.95693 0.84732 0.0
C79 C 0.83106 0.86358 0.10599 0.0
N80 N 0.77817 0.82645 0.00479 0.0
C81 C 0.69807 0.6924 0.17112 0.0
C82 C 0.75275 0.71825 0.27448 0.0
C83 C 0.81887 0.80961 0.24263 0.0
C84 C 0.71193 0.75127 0.03708 0.0
H85 H 0.88322 0.93167 0.08544 0.0
C86 C 0.95626 0.9303 0.82271 0.0
O87 O 0.94554 0.66789 0.39796 0.0
O88 O 0.93397 0.48776 0.54777 0.0
N89 N 0.6851 0.75287 0.79514 0.0
C90 C 0.63917 0.7112 0.68267 0.0
C91 C 0.56403 0.65948 0.70962 0.0
C92 C 0.54258 0.61034 0.84529 0.0
C93 C 0.59485 0.62795 -0.04694 0.0
C94 C 0.66195 0.71735 -0.07166 0.0
H95 H 0.6579 0.72416 0.57393 0.0
O96 O 0.81891 0.62353 0.77419 0.0
O97 O 0.81977 0.63034 0.77803 0.0
O98 O 0.80106 0.86978 0.58652 0.0
O99 O 0.79879 0.87391 0.59094 0.0
C100 C 0.58585 0.55222 0.0808 0.0
C101 C 0.63509 0.59222 0.19112 0.0
H102 H 0.74458 0.66635 0.37813 0.0
H103 H 0.86044 0.83959 0.32211 0.0
H104 H 0.52371 0.6504 0.62574 0.0
H105 H 0.48549 0.56457 0.86697 0.0
H106 H 0.54746 0.45162 0.08897 0.0
H107 H 0.6304 0.53479 0.28679 0.0
Mn108 Mn 0.57705 0.25327 0.61265 0.0
Mn109 Mn 0.69389 0.12365 0.85824 0.0
C110 C 0.71163 0.4304 0.71404 0.0
C111 C 0.5268 0.40592 0.42189 0.0
C112 C 0.69027 0.02553 0.56434 0.0
O113 O 0.52601 0.05237 0.7418 0.0
O114 O 0.59104 0.04811 -0.05902 0.0
C115 C 0.68097 0.24332 0.15143 0.0
N116 N 0.72165 0.22897 0.02902 0.0
C117 C 0.82973 0.36339 0.13094 0.0
C118 C 0.79035 0.38167 0.25785 0.0
C119 C 0.71646 0.31666 0.2695 0.0
C120 C 0.79577 0.27153 0.02452 0.0
H121 H 0.62235 0.20057 0.1586 0.0
C122 C 0.53201 0.00032 0.87187 0.0
O123 O 0.50239 0.26052 0.4439 0.0
O124 O 0.58658 0.44829 0.49442 0.0
N125 N 0.79502 0.18116 0.79141 0.0
C126 C 0.82673 0.19726 0.65802 0.0
C127 C 0.90417 0.20638 0.6414 0.0
C128 C 0.94721 0.25957 0.7565 0.0
C129 C 0.91024 0.29309 -0.11598 0.0
C130 C 0.83491 0.24012 -0.09829 0.0
H131 H 0.7953 0.21467 0.56477 0.0
O132 O 0.66389 0.31921 0.7512 0.0
O133 O 0.66354 0.3148 0.75542 0.0
O134 O 0.65362 0.11898 0.49479 0.0
O135 O 0.66921 0.00369 0.6902 0.0
C136 C 0.94347 0.38797 -0.01224 0.0
C137 C 0.90009 0.43817 0.10214 0.0
H138 H 0.81575 0.44597 0.34666 0.0
H139 H 0.68616 0.33604 0.36597 0.0
H140 H 0.92945 0.1932 0.53751 0.0
H141 H 0.00727 0.28369 0.74302 0.0
H142 H 0.00196 0.42381 -0.02511 0.0
H143 H 0.91977 0.53712 0.16456 0.0
loop_
_geom_bond_atom_site_label_1
_geom_bond_atom_site_label_2
_geom_bond_distance
_geom_bond_site_symmetry_2
_ccdc_geom_bond_type
Mn0 O5 2.095 . S
Mn0 O15 2.162 . S
Mn0 O16 2.297 . S
Mn0 O24 2.385 . S
Mn0 O25 2.209 . S
Mn0 O26 2.094 . S
Mn1 O6 2.121 . S
Mn1 N8 2.257 . S
Mn1 N17 2.282 . S
Mn1 O25 2.215 1_556 S
Mn1 O27 2.117 1_556 S
C2 O24 1.234 . S
C2 O25 1.283 . S
C3 O15 1.281 . S
C3 O16 1.236 . S
C4 O26 1.240 . S
C4 O27 1.264 . S
O5 Mn0 2.095 . S
O5 C14 1.250 1_554 S
O6 Mn1 2.121 . S
O6 C14 1.258 . S
C7 N8 1.326 . S
C7 C11 1.460 . S
C7 H13 0.929 . S
N8 Mn1 2.257 . S
N8 C7 1.326 . S
N8 C12 1.362 . S
C9 C10 1.258 . S
C9 C12 1.431 . S
C9 C29 1.449 . S
C10 C9 1.258 . S
C10 C11 1.477 . S
C10 H30 0.931 . S
C11 C7 1.460 . S
C11 C10 1.477 . S
C11 H31 0.930 . S
C12 N8 1.362 . S
C12 C9 1.431 . S
C12 C22 1.476 . S
H13 C7 0.929 . S
C14 O5 1.250 1_556 S
C14 O6 1.258 . S
O15 Mn0 2.162 . S
O15 C3 1.281 . S
O16 Mn0 2.297 . S
O16 C3 1.236 . S
N17 Mn1 2.282 . S
N17 C18 1.328 1_556 S
N17 C22 1.318 . S
C18 N17 1.328 1_554 S
C18 C19 1.457 . S
C18 H23 0.929 . S
C19 C18 1.457 . S
C19 C20 1.291 1_554 S
C19 H32 0.931 . S
C20 C19 1.291 1_556 S
C20 C21 1.373 . S
C20 H33 0.929 . S
C21 C20 1.373 . S
C21 C22 1.396 . S
C21 C28 1.403 . S
C22 C12 1.476 . S
C22 N17 1.318 . S
C22 C21 1.396 . S
H23 C18 0.929 . S
O24 Mn0 2.385 . S
O24 C2 1.234 . S
O25 Mn0 2.209 . S
O25 Mn1 2.215 1_554 S
O25 C2 1.283 . S
O26 Mn0 2.094 . S
O26 C4 1.240 . S
O27 Mn1 2.117 1_554 S
O27 C4 1.264 . S
C28 C21 1.403 . S
C28 C29 1.399 . S
C28 H34 0.929 . S
C29 C9 1.449 . S
C29 C28 1.399 . S
C29 H35 0.930 . S
H30 C10 0.931 . S
H31 C11 0.930 . S
H32 C19 0.931 . S
H33 C20 0.929 . S
H34 C28 0.929 . S
H35 C29 0.930 . S
Mn36 O41 2.095 . S
Mn36 O51 2.162 . S
Mn36 O52 2.297 . S
Mn36 O60 2.385 . S
Mn36 O61 2.209 . S
Mn36 O62 2.094 . S
Mn37 O42 2.121 . S
Mn37 N44 2.257 . S
Mn37 N53 2.282 . S
Mn37 O61 2.215 1_556 S
Mn37 O63 2.117 1_556 S
C38 O60 1.234 . S
C38 O61 1.283 . S
C39 O51 1.281 . S
C39 O52 1.236 . S
C40 O62 1.240 . S
C40 O63 1.264 . S
O41 Mn36 2.095 . S
O41 C50 1.250 1_554 S
O42 Mn37 2.121 . S
O42 C50 1.258 . S
C43 N44 1.326 . S
C43 C47 1.460 . S
C43 H49 0.929 . S
N44 Mn37 2.257 . S
N44 C43 1.326 . S
N44 C48 1.362 . S
C45 C46 1.258 . S
C45 C48 1.431 . S
C45 C65 1.449 . S
C46 C45 1.258 . S
C46 C47 1.477 . S
C46 H66 0.931 . S
C47 C43 1.460 . S
C47 C46 1.477 . S
C47 H67 0.930 . S
C48 N44 1.362 . S
C48 C45 1.431 . S
C48 C58 1.476 . S
H49 C43 0.929 . S
C50 O41 1.250 1_556 S
C50 O42 1.258 . S
O51 Mn36 2.162 . S
O51 C39 1.281 . S
O52 Mn36 2.297 . S
O52 C39 1.236 . S
N53 Mn37 2.282 . S
N53 C54 1.328 1_556 S
N53 C58 1.318 . S
C54 N53 1.328 1_554 S
C54 C55 1.457 . S
C54 H59 0.929 . S
C55 C54 1.457 . S
C55 C56 1.291 1_554 S
C55 H68 0.931 . S
C56 C55 1.291 1_556 S
C56 C57 1.373 . S
C56 H69 0.929 1_455 S
C57 C56 1.373 . S
C57 C58 1.396 . S
C57 C64 1.403 . S
C58 C48 1.476 . S
C58 N53 1.318 . S
C58 C57 1.396 . S
H59 C54 0.929 . S
O60 Mn36 2.385 . S
O60 C38 1.234 . S
O61 Mn36 2.209 . S
O61 Mn37 2.215 1_554 S
O61 C38 1.283 . S
O62 Mn36 2.094 . S
O62 C40 1.240 . S
O63 Mn37 2.117 1_554 S
O63 C40 1.264 . S
C64 C57 1.403 . S
C64 C65 1.399 . S
C64 H70 0.929 1_455 S
C65 C45 1.449 . S
C65 C64 1.399 . S
C65 H71 0.930 . S
H66 C46 0.931 . S
H67 C47 0.930 . S
H68 C55 0.931 . S
H69 C56 0.929 1_655 S
H70 C64 0.929 1_655 S
H71 C65 0.930 . S
Mn72 O77 2.095 . S
Mn72 O87 2.162 . S
Mn72 O88 2.297 . S
Mn72 O96 2.385 . S
Mn72 O97 2.209 . S
Mn72 O98 2.094 . S
Mn73 O78 2.121 . S
Mn73 N80 2.257 . S
Mn73 N89 2.282 . S
Mn73 O97 2.215 1_554 S
Mn73 O99 2.117 1_554 S
C74 O96 1.234 . S
C74 O97 1.283 . S
C75 O87 1.281 . S
C75 O88 1.236 . S
C76 O98 1.240 . S
C76 O99 1.264 . S
O77 Mn72 2.095 . S
O77 C86 1.250 1_556 S
O78 Mn73 2.121 . S
O78 C86 1.258 . S
C79 N80 1.326 . S
C79 C83 1.460 . S
C79 H85 0.929 . S
N80 Mn73 2.257 . S
N80 C79 1.326 . S
N80 C84 1.362 . S
C81 C82 1.258 . S
C81 C84 1.431 . S
C81 C101 1.449 . S
C82 C81 1.258 . S
C82 C83 1.477 . S
C82 H102 0.931 . S
C83 C79 1.460 . S
C83 C82 1.477 . S
C83 H103 0.930 . S
C84 N80 1.362 . S
C84 C81 1.431 . S
C84 C94 1.476 . S
H85 C79 0.929 . S
C86 O77 1.250 1_554 S
C86 O78 1.258 . S
O87 Mn72 2.162 . S
O87 C75 1.281 . S
O88 Mn72 2.297 . S
O88 C75 1.236 . S
N89 Mn73 2.282 . S
N89 C90 1.328 1_554 S
N89 C94 1.318 . S
C90 N89 1.328 1_556 S
C90 C91 1.457 . S
C90 H95 0.929 . S
C91 C90 1.457 . S
C91 C92 1.291 1_556 S
C91 H104 0.931 . S
C92 C91 1.291 1_554 S
C92 C93 1.373 . S
C92 H105 0.929 . S
C93 C92 1.373 . S
C93 C94 1.396 . S
C93 C100 1.403 . S
C94 C84 1.476 . S
C94 N89 1.318 . S
C94 C93 1.396 . S
H95 C90 0.929 . S
O96 Mn72 2.385 . S
O96 C74 1.234 . S
O97 Mn72 2.209 . S
O97 Mn73 2.215 1_556 S
O97 C74 1.283 . S
O98 Mn72 2.094 . S
O98 C76 1.240 . S
O99 Mn73 2.117 1_556 S
O99 C76 1.264 . S
C100 C93 1.403 . S
C100 C101 1.399 . S
C100 H106 0.929 . S
C101 C81 1.449 . S
C101 C100 1.399 . S
C101 H107 0.930 . S
H102 C82 0.931 . S
H103 C83 0.930 . S
H104 C91 0.931 . S
H105 C92 0.929 . S
H106 C100 0.929 . S
H107 C101 0.930 . S
Mn108 O113 2.095 . S
Mn108 O123 2.162 . S
Mn108 O124 2.297 . S
Mn108 O132 2.385 . S
Mn108 O133 2.209 . S
Mn108 O134 2.094 . S
Mn109 O114 2.121 . S
Mn109 N116 2.257 . S
Mn109 N125 2.282 . S
Mn109 O133 2.215 1_554 S
Mn109 O135 2.117 1_554 S
C110 O132 1.234 . S
C110 O133 1.283 . S
C111 O123 1.281 . S
C111 O124 1.236 . S
C112 O134 1.240 . S
C112 O135 1.264 . S
O113 Mn108 2.095 . S
O113 C122 1.250 1_556 S
O114 Mn109 2.121 . S
O114 C122 1.258 . S
C115 N116 1.326 . S
C115 C119 1.460 . S
C115 H121 0.929 . S
N116 Mn109 2.257 . S
N116 C115 1.326 . S
N116 C120 1.362 . S
C117 C118 1.258 . S
C117 C120 1.431 . S
C117 C137 1.449 . S
C118 C117 1.258 . S
C118 C119 1.477 . S
C118 H138 0.931 . S
C119 C115 1.460 . S
C119 C118 1.477 . S
C119 H139 0.930 . S
C120 N116 1.362 . S
C120 C117 1.431 . S
C120 C130 1.476 . S
H121 C115 0.929 . S
C122 O113 1.250 1_554 S
C122 O114 1.258 . S
O123 Mn108 2.162 . S
O123 C111 1.281 . S
O124 Mn108 2.297 . S
O124 C111 1.236 . S
N125 Mn109 2.282 . S
N125 C126 1.328 1_554 S
N125 C130 1.318 . S
C126 N125 1.328 1_556 S
C126 C127 1.457 . S
C126 H131 0.929 . S
C127 C126 1.457 . S
C127 C128 1.291 1_556 S
C127 H140 0.931 . S
C128 C127 1.291 1_554 S
C128 C129 1.373 . S
C128 H141 0.929 1_655 S
C129 C128 1.373 . S
C129 C130 1.396 . S
C129 C136 1.403 . S
C130 C120 1.476 . S
C130 N125 1.318 . S
C130 C129 1.396 . S
H131 C126 0.929 . S
O132 Mn108 2.385 . S
O132 C110 1.234 . S
O133 Mn108 2.209 . S
O133 Mn109 2.215 1_556 S
O133 C110 1.283 . S
O134 Mn108 2.094 . S
O134 C112 1.240 . S
O135 Mn109 2.117 1_556 S
O135 C112 1.264 . S
C136 C129 1.403 . S
C136 C137 1.399 . S
C136 H142 0.929 1_655 S
C137 C117 1.449 . S
C137 C136 1.399 . S
C137 H143 0.930 . S
H138 C118 0.931 . S
H139 C119 0.930 . S
H140 C127 0.931 . S
H141 C128 0.929 1_455 S
H142 C136 0.929 1_455 S
H143 C137 0.930 . S
C40 C4 1.223 1_565 S
C2 C38 1.080 . S
C112 C76 1.223 1_545 S
C74 C110 1.080 . S
C14 C86 1.794 1_446 S
C122 C50 1.794 1_544 S
C75 C3 2.013 1_655 S
C39 C111 2.013 . S
