# Generated by pormake.
# Topology sma, (6)-cn, num edge types: 1
# Building blocks:
#     Node 0, Type 0, BuildingBlock: BETDEL_clean_sbu_0, # of connection points: 6
#     Node 1, Type 0, BuildingBlock: BETDEL_clean_sbu_0, # of connection points: 6
#     Node 2, Type 0, BuildingBlock: BETDEL_clean_sbu_0, # of connection points: 6
#     Edge 3, Type (0, 0), BuildingBlock: KIFKEQ_clean_linker_1, # of connection points: 2
#     Edge 4, Type (0, 0), BuildingBlock: KIFKEQ_clean_linker_1, # of connection points: 2
#     Edge 5, Type (0, 0), BuildingBlock: KIFKEQ_clean_linker_1, # of connection points: 2
#     Edge 6, Type (0, 0), BuildingBlock: KIFKEQ_clean_linker_1, # of connection points: 2
#     Edge 7, Type (0, 0), BuildingBlock: KIFKEQ_clean_linker_1, # of connection points: 2
#     Edge 8, Type (0, 0), BuildingBlock: KIFKEQ_clean_linker_1, # of connection points: 2
#     Edge 9, Type (0, 0), BuildingBlock: KIFKEQ_clean_linker_1, # of connection points: 2
#     Edge 10, Type (0, 0), BuildingBlock: KIFKEQ_clean_linker_1, # of connection points: 2
#     Edge 11, Type (0, 0), BuildingBlock: KIFKEQ_clean_linker_1, # of connection points: 2
# Relax obj value: 0.131
# Max RMSD: 0.205
# Mean RMSD: 0.205
data_MOF--net-sma--node1-BETDEL_clean_sbu_0--edge1-KIFKEQ_clean_linker_1
_symmetry_space_group_name_H-M    P1
_symmetry_Int_Tables_number       1
_symmetry_cell_setting            triclinic
loop_
_symmetry_equiv_pos_as_xyz
'x, y, z'
_cell_length_a     31.569089
_cell_length_b     31.953419
_cell_length_c     14.669221
_cell_angle_alpha  89.844423
_cell_angle_beta   89.582416
_cell_angle_gamma 119.73947
loop_
_atom_site_label
_atom_site_type_symbol
_atom_site_fract_x
_atom_site_fract_y
_atom_site_fract_z
_atom_type_partial_charge
Dy0 Dy 0.08706 0.52127 0.10851 0.0
C1 C 0.94486 0.58131 0.14459 0.0
C2 C 0.15507 0.50144 0.03501 0.0
Dy3 Dy 1.01891 0.55983 0.13198 0.0
O4 O 0.14732 0.50328 0.12152 0.0
O5 O 0.12547 0.5102 -0.01154 0.0
O6 O 0.07288 0.489 0.24688 0.0
O7 O 0.06875 0.55252 0.22552 0.0
C8 C 0.06126 0.51935 0.28196 0.0
C9 C 1.04543 0.55603 -0.04087 0.0
O10 O 0.0865 0.62379 0.18199 0.0
O11 O 0.13734 0.60236 0.1067 0.0
O12 O 0.98872 0.61013 0.11499 0.0
O13 O 0.94256 0.54176 0.17334 0.0
O14 O 1.04066 0.59089 -0.0087 0.0
O15 O 1.03409 0.52406 0.01913 0.0
O16 O 1.0173 0.45055 0.11257 0.0
O17 O 0.97036 0.48215 0.16939 0.0
C18 C 0.13019 0.63502 0.14942 0.0
C19 C 0.97651 0.44497 0.15053 0.0
Dy20 Dy 0.51759 1.00278 0.42729 0.0
C21 C 0.7196 0.14234 0.45619 0.0
C22 C 0.42976 0.93427 0.35977 0.0
Dy23 Dy 0.62481 0.06859 0.44579 0.0
O24 O 0.43951 0.94367 0.44557 0.0
O25 O 0.46779 0.96267 0.31087 0.0
O26 O 0.50164 1.02015 0.56569 0.0
O27 O 0.56786 1.02026 0.54132 0.0
C28 C 0.54367 1.02975 0.59841 0.0
C29 C 0.59469 0.04176 0.27453 0.0
O30 O 0.62195 1.00208 0.49923 0.0
O31 O 0.54876 0.95202 0.42894 0.0
O32 O 0.70552 0.1002 0.42181 0.0
O33 O 0.68193 0.14288 0.49097 0.0
O34 O 0.63466 0.04666 0.30703 0.0
O35 O 0.57336 0.05332 0.33364 0.0
O36 O 0.51597 0.07221 0.4273 0.0
O37 O 0.59565 0.11784 0.47714 0.0
C38 C 0.58912 0.95884 0.47009 0.0
C39 C 0.55224 0.11275 0.46017 0.0
Dy40 Dy 0.57152 0.57671 0.77554 0.0
C41 C 0.53554 0.38666 0.76253 0.0
C42 C 0.58849 0.66336 0.70726 0.0
Dy43 Dy 0.53638 0.47158 0.78861 0.0
O44 O 0.57929 0.65029 0.79225 0.0
O45 O 0.58895 0.62939 0.65998 0.0
O46 O 0.60251 0.59255 0.91458 0.0
O47 O 0.54003 0.52476 0.88751 0.0
C48 C 0.57196 0.54971 -0.05418 0.0
C49 C 0.533 0.50369 0.62207 0.0
O50 O 0.4664 0.46644 0.83364 0.0
O51 O 0.48894 0.54242 0.7755 0.0
O52 O 0.57071 0.42934 0.74242 0.0
O53 O 0.50063 0.38993 0.80458 0.0
O54 O 0.49914 0.46392 0.65695 0.0
O55 O 0.56752 0.5245 0.67739 0.0
O56 O 0.6442 0.57972 0.78325 0.0
O57 O 0.61155 0.50293 0.8446 0.0
C58 C 0.45537 0.50002 0.80988 0.0
C59 C 0.64949 0.54556 0.82458 0.0
H60 H 0.21632 0.4794 0.12607 0.0
H61 H 0.18175 0.50685 0.85615 0.0
H62 H 0.28471 0.47289 0.0636 0.0
H63 H 0.25008 0.50002 0.79321 0.0
H64 H 0.41631 0.5549 0.75247 0.0
H65 H 0.3398 0.54932 0.80125 0.0
H66 H 0.30636 0.42369 -0.03583 0.0
H67 H 0.38338 0.42948 0.91606 0.0
C68 C 0.22306 0.48349 0.0532 0.0
C69 C 0.19396 0.49385 -0.00404 0.0
C70 C 0.26203 0.47945 0.0173 0.0
C71 C 0.27289 0.48601 0.92342 0.0
C72 C 0.24293 0.49524 0.86592 0.0
C73 C 0.20373 0.49895 0.90182 0.0
C74 C 0.39244 0.5257 0.79786 0.0
C75 C 0.40616 0.49281 0.83078 0.0
C76 C 0.34838 0.52235 0.82539 0.0
C77 C 0.31709 0.48621 0.88696 0.0
C78 C 0.32997 0.45227 0.91745 0.0
C79 C 0.37394 0.4554 0.88935 0.0
H80 H 0.74929 0.23563 0.50102 0.0
H81 H 0.7916 0.14778 0.34482 0.0
H82 H 0.81398 0.30785 0.42695 0.0
H83 H 0.85512 0.21961 0.2682 0.0
H84 H 0.98747 0.36679 0.18903 0.0
H85 H 0.93063 0.29405 0.27348 0.0
H86 H 0.82505 0.34275 0.27885 0.0
H87 H 0.88216 0.41567 0.19713 0.0
C88 C 0.77309 0.23187 0.45221 0.0
C89 C 0.7653 0.18608 0.42855 0.0
C90 C 0.80972 0.27317 0.40859 0.0
C91 C 0.8391 0.26958 0.33973 0.0
C92 C 0.83334 0.22392 0.32075 0.0
C93 C 0.79692 0.18265 0.36488 0.0
C94 C 0.95177 0.36149 0.20686 0.0
C95 C 0.93939 0.39708 0.18635 0.0
C96 C 0.91922 0.31987 0.25576 0.0
C97 C 0.8735 0.31283 0.2848 0.0
C98 C 0.86045 0.34751 0.26029 0.0
C99 C 0.893 0.38911 0.21217 0.0
H100 H 0.53498 0.86582 0.41089 0.0
H101 H 0.65428 0.95646 0.58814 0.0
H102 H 0.53887 0.79531 0.46458 0.0
H103 H 0.65793 0.88605 0.64146 0.0
H104 H 0.59645 0.74049 0.80009 0.0
H105 H 0.60054 0.81323 0.73649 0.0
H106 H 0.59561 0.7599 0.46431 0.0
H107 H 0.59178 0.68718 0.52806 0.0
C108 C 0.56232 0.87079 0.46049 0.0
C109 C 0.59418 0.91671 0.49545 0.0
C110 C 0.56466 0.83046 0.4909 0.0
C111 C 0.59853 0.83525 0.55755 0.0
C112 C 0.63115 0.88129 0.59074 0.0
C113 C 0.62919 0.92162 0.55967 0.0
C114 C 0.59667 0.74457 0.72672 0.0
C115 C 0.59381 0.70838 0.66891 0.0
C116 C 0.5992 0.7862 0.69032 0.0
C117 C 0.59836 0.79213 0.59547 0.0
C118 C 0.59597 0.75606 0.53765 0.0
C119 C 0.59404 0.71466 0.57408 0.0
H120 H 0.67937 0.48168 0.86585 0.0
H121 H 0.72581 0.63343 0.87575 0.0
H122 H 0.75023 0.49563 -0.0471 0.0
H123 H 0.79691 0.64751 -0.03458 0.0
H124 H 0.94375 0.65177 0.04104 0.0
H125 H 0.87362 0.64709 -0.03739 0.0
H126 H 0.77865 0.5143 0.10626 0.0
H127 H 0.84905 0.51831 0.1822 0.0
C128 C 0.70504 0.51821 0.88612 0.0
C129 C 0.69697 0.55645 0.8638 0.0
C130 C 0.74541 0.52614 0.93723 0.0
C131 C 0.77878 0.57253 -0.03165 0.0
C132 C 0.77192 0.61129 0.94276 0.0
C133 C 0.73139 0.60333 0.89084 0.0
C134 C 0.90771 0.62223 0.05754 0.0
C135 C 0.9019 0.58515 0.11718 0.0
C136 C 0.86746 0.6195 0.01239 0.0
C137 C 0.82055 0.5797 0.02627 0.0
C138 C 0.81443 0.54475 0.09181 0.0
C139 C 0.85468 0.54733 0.13643 0.0
H140 H 0.34756 0.87349 0.45548 0.0
H141 H 0.40885 0.90518 0.18328 0.0
H142 H 0.27389 0.80399 0.39811 0.0
H143 H 0.33492 0.83578 0.12545 0.0
H144 H 0.22498 0.67177 0.09243 0.0
H145 H 0.29587 0.74708 0.13864 0.0
H146 H 0.20267 0.78166 0.30046 0.0
H147 H 0.13178 0.70618 0.25516 0.0
C148 C 0.34499 0.86585 0.38319 0.0
C149 C 0.38386 0.89457 0.32382 0.0
C150 C 0.30273 0.8262 0.35021 0.0
C151 C 0.29858 0.81431 0.2572 0.0
C152 C 0.33722 0.84371 0.19757 0.0
C153 C 0.37939 0.88356 0.23055 0.0
C154 C 0.21949 0.6956 0.1372 0.0
C155 C 0.17268 0.68273 0.1705 0.0
C156 C 0.26014 0.73892 0.1633 0.0
C157 C 0.25494 0.77024 0.22363 0.0
C158 C 0.20796 0.758 0.25486 0.0
C159 C 0.16729 0.71483 0.22839 0.0
H160 H 0.58878 0.38748 0.61947 0.0
H161 H 0.4737 0.28913 0.80106 0.0
H162 H 0.58553 0.32096 0.53765 0.0
H163 H 0.47248 0.22066 0.72063 0.0
H164 H 0.46528 0.11012 0.50173 0.0
H165 H 0.45584 0.17428 0.57506 0.0
H166 H 0.6125 0.26644 0.56901 0.0
H167 H 0.62151 0.20459 0.49321 0.0
C168 C 0.56318 0.35137 0.6432 0.0
C169 C 0.53224 0.34361 0.71831 0.0
C170 C 0.56139 0.31301 0.59593 0.0
C171 C 0.52961 0.26532 0.6236 0.0
C172 C 0.49743 0.25704 0.69754 0.0
C173 C 0.49845 0.29606 0.74424 0.0
C174 C 0.4974 0.14467 0.51402 0.0
C175 C 0.5441 0.15238 0.49078 0.0
C176 C 0.49207 0.18105 0.55739 0.0
C177 C 0.53336 0.22565 0.57779 0.0
C178 C 0.5797 0.2331 0.55295 0.0
C179 C 0.58493 0.19733 0.50951 0.0
H180 H 0.08012 0.62548 0.82934 0.0
H181 H 1.02039 0.47244 0.86913 0.0
H182 H 0.08294 0.61561 0.66539 0.0
H183 H 1.02059 0.46179 0.70448 0.0
H184 H 0.07351 0.46682 0.41352 0.0
H185 H 0.07113 0.47554 0.57739 0.0
H186 H 1.03197 0.58628 0.53768 0.0
H187 H 1.03711 0.57914 0.3727 0.0
C188 C 0.06748 0.58966 0.80259 0.0
C189 C 1.05002 0.54969 0.86127 0.0
C190 C 0.06854 0.58389 0.70865 0.0
C191 C 1.0514 0.53783 0.67136 0.0
C192 C 1.03459 0.49788 0.73073 0.0
C193 C 1.03431 0.50383 0.82499 0.0
C194 C 0.0643 0.49298 0.43987 0.0
C195 C 1.05589 0.52265 0.38077 0.0
C196 C 0.06258 0.49774 0.53396 0.0
C197 C 1.05156 0.53174 0.57107 0.0
C198 C 1.04166 0.56045 0.51151 0.0
C199 C 1.04415 0.55617 0.41711 0.0
H200 H 0.65586 0.04647 0.14061 0.0
H201 H 0.51426 1.0328 0.1869 0.0
H202 H 0.645 0.04682 -0.02218 0.0
H203 H 0.50126 1.0291 0.02243 0.0
H204 H 0.51233 0.07083 0.72305 0.0
H205 H 0.52441 0.07461 0.88769 0.0
H206 H 0.60447 0.99777 0.85743 0.0
H207 H 0.59512 0.99731 0.69325 0.0
C208 C 0.62189 0.04263 0.11571 0.0
C209 C 0.58568 0.03922 0.17617 0.0
C210 C 0.61545 0.04242 0.02209 0.0
C211 C 0.57203 0.03749 -0.01354 0.0
C212 C 0.53547 0.03361 0.0473 0.0
C213 C 0.54251 0.03504 0.14149 0.0
C214 C 0.53298 0.05538 0.75224 0.0
C215 C 0.55319 0.03419 0.6963 0.0
C216 C 0.53945 0.05699 0.84642 0.0
C217 C 0.56534 0.03641 0.88627 0.0
C218 C 0.58532 1.01503 0.82937 0.0
C219 C 0.57988 1.01455 0.73522 0.0
H220 H 0.475 0.44228 0.49337 0.0
H221 H 0.60256 0.58224 0.52862 0.0
H222 H 0.48582 0.45069 0.32987 0.0
H223 H 0.61109 0.59296 0.36364 0.0
H224 H 0.64377 0.57918 0.06934 0.0
H225 H 0.63456 0.5675 0.23418 0.0
H226 H 0.47746 0.48878 0.20431 0.0
H227 H 0.4874 0.49757 0.03973 0.0
C228 C 0.50479 0.47544 0.46586 0.0
C229 C 0.5378 0.51185 0.52339 0.0
C230 C 0.51082 0.48043 0.37187 0.0
C231 C 0.5492 0.52259 0.33316 0.0
C232 C 0.58162 0.5596 0.39105 0.0
C233 C 0.57635 0.55395 0.48552 0.0
C234 C 0.60745 0.55879 0.09875 0.0
C235 C 0.56627 0.53901 0.0431 0.0
C236 C 0.60205 0.55259 0.19293 0.0
C237 C 0.55524 0.52761 0.23287 0.0
C238 C 0.5141 0.50744 0.17613 0.0
C239 C 0.51964 0.51251 0.08188 0.0
loop_
_geom_bond_atom_site_label_1
_geom_bond_atom_site_label_2
_geom_bond_distance
_geom_bond_site_symmetry_2
_ccdc_geom_bond_type
Dy0 O4 2.398 . S
Dy0 O5 2.491 . S
Dy0 O6 2.403 . S
Dy0 O7 2.664 1_455 S
Dy0 O11 2.326 . S
Dy0 O15 2.310 . S
Dy0 O16 2.351 1_455 S
C1 O12 1.185 . S
C1 O13 1.355 . S
C2 O4 1.185 . S
C2 O5 1.355 . S
Dy3 O7 2.310 . S
Dy3 O10 2.351 1_655 S
Dy3 O12 2.398 . S
Dy3 O13 2.491 . S
Dy3 O14 2.403 1_554 S
Dy3 O15 2.664 1_655 S
Dy3 O17 2.326 . S
O4 Dy0 2.398 . S
O4 C2 1.185 . S
O5 Dy0 2.491 . S
O5 C2 1.355 . S
O6 Dy0 2.403 . S
O6 C8 1.254 . S
O7 Dy0 2.664 1_655 S
O7 Dy3 2.310 . S
O7 C8 1.268 1_655 S
C8 O6 1.254 . S
C8 O7 1.268 1_455 S
C9 O14 1.245 1_455 S
C9 O15 1.273 1_556 S
O10 Dy3 2.351 1_455 S
O10 C18 1.249 . S
O11 Dy0 2.326 . S
O11 C18 1.267 . S
O12 C1 1.185 . S
O12 Dy3 2.398 . S
O13 C1 1.355 . S
O13 Dy3 2.491 . S
O14 Dy3 2.403 1_556 S
O14 C9 1.245 1_655 S
O15 Dy0 2.310 . S
O15 Dy3 2.664 1_455 S
O15 C9 1.273 1_554 S
O16 Dy0 2.351 1_655 S
O16 C19 1.249 . S
O17 Dy3 2.326 . S
O17 C19 1.267 . S
C18 O10 1.249 . S
C18 O11 1.267 . S
C19 O16 1.249 . S
C19 O17 1.267 . S
Dy20 O24 2.398 . S
Dy20 O25 2.491 . S
Dy20 O26 2.403 . S
Dy20 O27 2.664 1_565 S
Dy20 O31 2.326 . S
Dy20 O35 2.310 . S
Dy20 O36 2.351 1_565 S
C21 O32 1.185 . S
C21 O33 1.355 . S
C22 O24 1.185 . S
C22 O25 1.355 . S
Dy23 O27 2.310 . S
Dy23 O30 2.351 1_545 S
Dy23 O32 2.398 . S
Dy23 O33 2.491 . S
Dy23 O34 2.403 . S
Dy23 O35 2.664 1_545 S
Dy23 O37 2.326 . S
O24 Dy20 2.398 . S
O24 C22 1.185 . S
O25 Dy20 2.491 . S
O25 C22 1.355 . S
O26 Dy20 2.403 . S
O26 C28 1.254 . S
O27 Dy20 2.664 1_545 S
O27 Dy23 2.310 . S
O27 C28 1.268 1_545 S
C28 O26 1.254 . S
C28 O27 1.268 1_565 S
C29 O34 1.254 . S
C29 O35 1.268 1_545 S
O30 Dy23 2.351 1_565 S
O30 C38 1.249 . S
O31 Dy20 2.326 . S
O31 C38 1.267 . S
O32 C21 1.185 . S
O32 Dy23 2.398 . S
O33 C21 1.355 . S
O33 Dy23 2.491 . S
O34 Dy23 2.403 . S
O34 C29 1.254 . S
O35 Dy20 2.310 . S
O35 Dy23 2.664 1_565 S
O35 C29 1.268 1_565 S
O36 Dy20 2.351 1_545 S
O36 C39 1.249 . S
O37 Dy23 2.326 . S
O37 C39 1.267 . S
C38 O30 1.249 . S
C38 O31 1.267 . S
C39 O36 1.249 . S
C39 O37 1.267 . S
Dy40 O44 2.398 . S
Dy40 O45 2.491 . S
Dy40 O46 2.403 1_556 S
Dy40 O47 2.664 . S
Dy40 O51 2.326 . S
Dy40 O55 2.310 . S
Dy40 O56 2.351 . S
C41 O52 1.185 . S
C41 O53 1.355 . S
C42 O44 1.185 . S
C42 O45 1.355 . S
Dy43 O47 2.310 . S
Dy43 O50 2.351 . S
Dy43 O52 2.398 . S
Dy43 O53 2.491 . S
Dy43 O54 2.403 . S
Dy43 O55 2.664 . S
Dy43 O57 2.326 . S
O44 Dy40 2.398 . S
O44 C42 1.185 . S
O45 Dy40 2.491 . S
O45 C42 1.355 . S
O46 Dy40 2.403 1_554 S
O46 C48 1.254 . S
O47 Dy40 2.664 . S
O47 Dy43 2.310 . S
O47 C48 1.268 1_556 S
C48 O46 1.254 . S
C48 O47 1.268 1_554 S
C49 O54 1.254 . S
C49 O55 1.268 . S
O50 Dy43 2.351 . S
O50 C58 1.249 . S
O51 Dy40 2.326 . S
O51 C58 1.267 . S
O52 C41 1.185 . S
O52 Dy43 2.398 . S
O53 C41 1.355 . S
O53 Dy43 2.491 . S
O54 Dy43 2.403 . S
O54 C49 1.254 . S
O55 Dy40 2.310 . S
O55 Dy43 2.664 . S
O55 C49 1.268 . S
O56 Dy40 2.351 . S
O56 C59 1.249 . S
O57 Dy43 2.326 . S
O57 C59 1.267 . S
C58 O50 1.249 . S
C58 O51 1.267 . S
C59 O56 1.249 . S
C59 O57 1.267 . S
H60 C68 0.950 . S
H61 C73 0.950 1_556 S
H62 C70 0.950 . S
H63 C72 0.950 . S
H64 C74 0.950 . S
H65 C76 0.950 . S
H66 C78 0.950 . S
H67 C79 0.950 . S
C68 H60 0.950 . S
C68 C69 1.386 . S
C68 C70 1.391 . S
C69 C68 1.386 . S
C69 C73 1.393 . S
C70 H62 0.950 . S
C70 C68 1.391 . S
C70 C71 1.400 . S
C71 C70 1.400 . S
C71 C72 1.398 1_554 S
C71 C77 1.491 1_554 S
C72 H63 0.950 . S
C72 C71 1.398 1_556 S
C72 C73 1.391 1_556 S
C73 H61 0.950 1_554 S
C73 C69 1.393 . S
C73 C72 1.391 1_554 S
C74 H64 0.950 . S
C74 C75 1.386 . S
C74 C76 1.391 . S
C75 C74 1.386 . S
C75 C79 1.393 . S
C76 H65 0.950 . S
C76 C74 1.391 . S
C76 C77 1.400 . S
C77 C71 1.491 1_556 S
C77 C76 1.400 . S
C77 C78 1.398 1_556 S
C78 H66 0.950 . S
C78 C77 1.398 1_554 S
C78 C79 1.391 1_554 S
C79 H67 0.950 . S
C79 C75 1.393 . S
C79 C78 1.391 1_556 S
H80 C88 0.950 . S
H81 C93 0.950 . S
H82 C90 0.950 . S
H83 C92 0.950 . S
H84 C94 0.950 . S
H85 C96 0.950 . S
H86 C98 0.950 . S
H87 C99 0.950 . S
C88 H80 0.950 . S
C88 C89 1.386 . S
C88 C90 1.391 . S
C89 C88 1.386 . S
C89 C93 1.393 . S
C90 H82 0.950 . S
C90 C88 1.391 . S
C90 C91 1.400 . S
C91 C90 1.400 . S
C91 C92 1.398 . S
C91 C97 1.491 . S
C92 H83 0.950 . S
C92 C91 1.398 . S
C92 C93 1.391 . S
C93 H81 0.950 . S
C93 C89 1.393 . S
C93 C92 1.391 . S
C94 H84 0.950 . S
C94 C95 1.386 . S
C94 C96 1.391 . S
C95 C94 1.386 . S
C95 C99 1.393 . S
C96 H85 0.950 . S
C96 C94 1.391 . S
C96 C97 1.400 . S
C97 C91 1.491 . S
C97 C96 1.400 . S
C97 C98 1.398 . S
C98 H86 0.950 . S
C98 C97 1.398 . S
C98 C99 1.391 . S
C99 H87 0.950 . S
C99 C95 1.393 . S
C99 C98 1.391 . S
H100 C108 0.950 . S
H101 C113 0.950 . S
H102 C110 0.950 . S
H103 C112 0.950 . S
H104 C114 0.950 . S
H105 C116 0.950 . S
H106 C118 0.950 . S
H107 C119 0.950 . S
C108 H100 0.950 . S
C108 C109 1.386 . S
C108 C110 1.391 . S
C109 C108 1.386 . S
C109 C113 1.393 . S
C110 H102 0.950 . S
C110 C108 1.391 . S
C110 C111 1.400 . S
C111 C110 1.400 . S
C111 C112 1.398 . S
C111 C117 1.491 . S
C112 H103 0.950 . S
C112 C111 1.398 . S
C112 C113 1.391 . S
C113 H101 0.950 . S
C113 C109 1.393 . S
C113 C112 1.391 . S
C114 H104 0.950 . S
C114 C115 1.386 . S
C114 C116 1.391 . S
C115 C114 1.386 . S
C115 C119 1.393 . S
C116 H105 0.950 . S
C116 C114 1.391 . S
C116 C117 1.400 . S
C117 C111 1.491 . S
C117 C116 1.400 . S
C117 C118 1.398 . S
C118 H106 0.950 . S
C118 C117 1.398 . S
C118 C119 1.391 . S
C119 H107 0.950 . S
C119 C115 1.393 . S
C119 C118 1.391 . S
H120 C128 0.950 1_554 S
H121 C133 0.950 . S
H122 C130 0.950 . S
H123 C132 0.950 . S
H124 C134 0.950 1_556 S
H125 C136 0.950 . S
H126 C138 0.950 . S
H127 C139 0.950 . S
C128 H120 0.950 1_556 S
C128 C129 1.386 . S
C128 C130 1.391 1_556 S
C129 C128 1.386 . S
C129 C133 1.393 . S
C130 H122 0.950 . S
C130 C128 1.391 1_554 S
C130 C131 1.400 1_554 S
C131 C130 1.400 1_556 S
C131 C132 1.398 . S
C131 C137 1.491 1_556 S
C132 H123 0.950 . S
C132 C131 1.398 . S
C132 C133 1.391 . S
C133 H121 0.950 . S
C133 C129 1.393 . S
C133 C132 1.391 . S
C134 H124 0.950 1_554 S
C134 C135 1.386 . S
C134 C136 1.391 1_554 S
C135 C134 1.386 . S
C135 C139 1.393 . S
C136 H125 0.950 . S
C136 C134 1.391 1_556 S
C136 C137 1.400 1_556 S
C137 C131 1.491 1_554 S
C137 C136 1.400 1_554 S
C137 C138 1.398 . S
C138 H126 0.950 . S
C138 C137 1.398 . S
C138 C139 1.391 . S
C139 H127 0.950 . S
C139 C135 1.393 . S
C139 C138 1.391 . S
H140 C148 0.950 . S
H141 C153 0.950 . S
H142 C150 0.950 . S
H143 C152 0.950 . S
H144 C154 0.950 . S
H145 C156 0.950 . S
H146 C158 0.950 . S
H147 C159 0.950 . S
C148 H140 0.950 . S
C148 C149 1.386 . S
C148 C150 1.391 . S
C149 C148 1.386 . S
C149 C153 1.393 . S
C150 H142 0.950 . S
C150 C148 1.391 . S
C150 C151 1.400 . S
C151 C150 1.400 . S
C151 C152 1.398 . S
C151 C157 1.491 . S
C152 H143 0.950 . S
C152 C151 1.398 . S
C152 C153 1.391 . S
C153 H141 0.950 . S
C153 C149 1.393 . S
C153 C152 1.391 . S
C154 H144 0.950 . S
C154 C155 1.386 . S
C154 C156 1.391 . S
C155 C154 1.386 . S
C155 C159 1.393 . S
C156 H145 0.950 . S
C156 C154 1.391 . S
C156 C157 1.400 . S
C157 C151 1.491 . S
C157 C156 1.400 . S
C157 C158 1.398 . S
C158 H146 0.950 . S
C158 C157 1.398 . S
C158 C159 1.391 . S
C159 H147 0.950 . S
C159 C155 1.393 . S
C159 C158 1.391 . S
H160 C168 0.950 . S
H161 C173 0.950 . S
H162 C170 0.950 . S
H163 C172 0.950 . S
H164 C174 0.950 . S
H165 C176 0.950 . S
H166 C178 0.950 . S
H167 C179 0.950 . S
C168 H160 0.950 . S
C168 C169 1.386 . S
C168 C170 1.391 . S
C169 C168 1.386 . S
C169 C173 1.393 . S
C170 H162 0.950 . S
C170 C168 1.391 . S
C170 C171 1.400 . S
C171 C170 1.400 . S
C171 C172 1.398 . S
C171 C177 1.491 . S
C172 H163 0.950 . S
C172 C171 1.398 . S
C172 C173 1.391 . S
C173 H161 0.950 . S
C173 C169 1.393 . S
C173 C172 1.391 . S
C174 H164 0.950 . S
C174 C175 1.386 . S
C174 C176 1.391 . S
C175 C174 1.386 . S
C175 C179 1.393 . S
C176 H165 0.950 . S
C176 C174 1.391 . S
C176 C177 1.400 . S
C177 C171 1.491 . S
C177 C176 1.400 . S
C177 C178 1.398 . S
C178 H166 0.950 . S
C178 C177 1.398 . S
C178 C179 1.391 . S
C179 H167 0.950 . S
C179 C175 1.393 . S
C179 C178 1.391 . S
H180 C188 0.950 . S
H181 C193 0.950 . S
H182 C190 0.950 . S
H183 C192 0.950 . S
H184 C194 0.950 . S
H185 C196 0.950 . S
H186 C198 0.950 . S
H187 C199 0.950 . S
C188 H180 0.950 . S
C188 C189 1.386 . S
C188 C190 1.391 . S
C189 C188 1.386 . S
C189 C193 1.393 1_455 S
C190 H182 0.950 . S
C190 C188 1.391 . S
C190 C191 1.400 . S
C191 C190 1.400 . S
C191 C192 1.398 1_455 S
C191 C197 1.491 . S
C192 H183 0.950 . S
C192 C191 1.398 1_655 S
C192 C193 1.391 . S
C193 H181 0.950 . S
C193 C189 1.393 1_655 S
C193 C192 1.391 . S
C194 H184 0.950 . S
C194 C195 1.386 . S
C194 C196 1.391 . S
C195 C194 1.386 . S
C195 C199 1.393 1_655 S
C196 H185 0.950 . S
C196 C194 1.391 . S
C196 C197 1.398 1_655 S
C197 C191 1.491 . S
C197 C196 1.398 1_455 S
C197 C198 1.400 . S
C198 H186 0.950 . S
C198 C197 1.400 . S
C198 C199 1.391 . S
C199 H187 0.950 . S
C199 C195 1.393 1_455 S
C199 C198 1.391 . S
H200 C208 0.950 . S
H201 C213 0.950 . S
H202 C210 0.950 . S
H203 C212 0.950 . S
H204 C214 0.950 . S
H205 C216 0.950 . S
H206 C218 0.950 . S
H207 C219 0.950 . S
C208 H200 0.950 . S
C208 C209 1.386 . S
C208 C210 1.391 . S
C209 C208 1.386 . S
C209 C213 1.393 1_565 S
C210 H202 0.950 . S
C210 C208 1.391 . S
C210 C211 1.410 . S
C211 C210 1.410 . S
C211 C212 1.389 1_565 S
C211 C217 1.491 1_564 S
C212 H203 0.950 . S
C212 C211 1.389 1_545 S
C212 C213 1.391 . S
C213 H201 0.950 . S
C213 C209 1.393 1_545 S
C213 C212 1.391 . S
C214 H204 0.950 . S
C214 C215 1.386 . S
C214 C216 1.391 . S
C215 C214 1.386 . S
C215 C219 1.393 1_545 S
C216 H205 0.950 . S
C216 C214 1.391 . S
C216 C217 1.418 . S
C217 C211 1.491 1_546 S
C217 C216 1.418 . S
C217 C218 1.381 1_545 S
C218 H206 0.950 . S
C218 C217 1.381 1_565 S
C218 C219 1.391 . S
C219 H207 0.950 . S
C219 C215 1.393 1_565 S
C219 C218 1.391 . S
H220 C228 0.950 . S
H221 C233 0.950 . S
H222 C230 0.950 . S
H223 C232 0.950 . S
H224 C234 0.950 . S
H225 C236 0.950 . S
H226 C238 0.950 . S
H227 C239 0.950 . S
C228 H220 0.950 . S
C228 C229 1.386 . S
C228 C230 1.391 . S
C229 C228 1.386 . S
C229 C233 1.393 . S
C230 H222 0.950 . S
C230 C228 1.391 . S
C230 C231 1.400 . S
C231 C230 1.400 . S
C231 C232 1.398 . S
C231 C237 1.491 . S
C232 H223 0.950 . S
C232 C231 1.398 . S
C232 C233 1.391 . S
C233 H221 0.950 . S
C233 C229 1.393 . S
C233 C232 1.391 . S
C234 H224 0.950 . S
C234 C235 1.386 . S
C234 C236 1.391 . S
C235 C234 1.386 . S
C235 C239 1.393 . S
C236 H225 0.950 . S
C236 C234 1.391 . S
C236 C237 1.400 . S
C237 C231 1.491 . S
C237 C236 1.400 . S
C237 C238 1.398 . S
C238 H226 0.950 . S
C238 C237 1.398 . S
C238 C239 1.391 . S
C239 H227 0.950 . S
C239 C235 1.393 . S
C239 C238 1.391 . S
C69 C2 1.865 . S
C75 C58 1.804 . S
C89 C21 1.870 . S
C95 C19 1.957 . S
C109 C38 1.823 . S
C115 C42 1.882 . S
C129 C59 1.957 . S
C135 C1 1.868 . S
C149 C22 1.867 . S
C155 C18 1.811 . S
C169 C41 1.881 . S
C175 C39 1.958 . S
C189 C9 0.587 . S
C195 C8 0.581 1_655 S
C209 C29 0.566 1_565 S
C215 C28 0.566 1_545 S
C229 C49 0.580 . S
C235 C48 0.580 . S
