# Generated by pormake.
# Topology pcu, (6)-cn, num edge types: 1
# Building blocks:
#     Node 0, Type 0, BuildingBlock: NUHQIS_clean_sbu_0, # of connection points: 6
#     Edge 1, Type (0, 0), BuildingBlock: FUNLAD_clean_linker_0, # of connection points: 2
#     Edge 2, Type (0, 0), BuildingBlock: FUNLAD_clean_linker_0, # of connection points: 2
#     Edge 3, Type (0, 0), BuildingBlock: FUNLAD_clean_linker_0, # of connection points: 2
# Relax obj value: 0.000
# Max RMSD: 0.000
# Mean RMSD: 0.000
data_MOF--net-pcu--node1-NUHQIS_clean_sbu_0--edge1-FUNLAD_clean_linker_0
_symmetry_space_group_name_H-M    P1
_symmetry_Int_Tables_number       1
_symmetry_cell_setting            triclinic
loop_
_symmetry_equiv_pos_as_xyz
'x, y, z'
_cell_length_a     27.856957
_cell_length_b     17.78806
_cell_length_c     17.685636
_cell_angle_alpha  91.204816
_cell_angle_beta   97.564151
_cell_angle_gamma 123.52204
loop_
_atom_site_label
_atom_site_type_symbol
_atom_site_fract_x
_atom_site_fract_y
_atom_site_fract_z
_atom_type_partial_charge
Tb0 Tb 0.95639 0.93178 0.97708 0.0
Eu1 Eu 0.10275 0.05818 0.01627 0.0
C2 C 0.03265 -0.00878 0.84729 0.0
C3 C 1.02585 0.83952 -0.00801 0.0
C4 C 0.80339 0.87308 0.9513 0.0
C5 C 0.70738 0.84262 0.90411 0.0
C6 C 0.74866 0.82089 0.90343 0.0
C7 C 0.81643 0.94813 -0.0005 0.0
C8 C 0.77512 0.96982 0.00038 0.0
C9 C 0.71987 0.91712 0.9529 0.0
C10 C 0.84574 0.84738 0.95132 0.0
O11 O 0.9843 0.92671 0.09657 0.0
O12 O 0.06958 0.06758 0.12275 0.0
O13 O 0.07566 0.15336 0.98446 0.0
O14 O 0.98252 0.06846 0.01262 0.0
C15 C 1.02466 -0.00289 0.14552 0.0
O16 O 0.18314 0.10265 0.09558 0.0
O17 O 0.18814 0.14939 0.98304 0.0
O18 O 0.07451 -0.00516 0.8943 0.0
O19 O 0.98958 0.98839 0.87302 0.0
O20 O 0.97981 0.83552 0.95585 0.0
O21 O 0.07116 0.91425 0.03149 0.0
C22 C 0.02737 0.14503 -0.0034 0.0
O23 O 0.87788 0.87529 0.89788 0.0
O24 O 0.87654 0.8575 0.01743 0.0
C25 C 0.26105 0.12567 0.03687 0.0
C26 C 0.34554 0.08561 0.02604 0.0
C27 C 0.35753 0.15612 0.07955 0.0
C28 C 0.31578 0.17584 0.08482 0.0
C29 C 0.24872 0.05541 0.98306 0.0
C30 C 0.29064 0.03585 0.97745 0.0
C31 C 0.21696 0.14565 0.04573 0.0
H32 H 0.6652 0.79986 0.86738 0.0
H33 H 0.73758 0.76261 0.86591 0.0
H34 H 0.85843 -0.01031 0.03685 0.0
H35 H 0.78671 0.0284 0.03786 0.0
H36 H 0.39945 0.19663 0.11723 0.0
H37 H 0.32616 0.23015 0.12685 0.0
H38 H 0.2065 0.01513 0.94592 0.0
H39 H 0.27955 0.98045 0.93623 0.0
C40 C 0.06598 0.06318 0.28332 0.0
C41 C 1.02003 -0.00499 0.22791 0.0
C42 C 0.0616 0.06001 0.3612 0.0
C43 C 1.01109 -0.01159 0.38519 0.0
C44 C 0.96477 0.92155 0.32964 0.0
C45 C 0.96927 0.92439 0.25192 0.0
C46 C 1.00458 0.98227 0.46723 0.0
C47 C 0.0503 0.01698 0.52513 0.0
C48 C 0.04381 0.00823 0.60711 0.0
C49 C 0.08807 0.01257 0.65923 0.0
C50 C 0.08407 0.0058 0.73698 0.0
C51 C 0.03589 -0.00447 0.76452 0.0
H52 H 0.9615 -0.00251 0.59676 0.0
C53 C 0.99172 -0.00816 0.71249 0.0
C54 C 0.99566 -0.00166 0.63463 0.0
H55 H 0.95427 0.98478 0.7319 0.0
H56 H 0.10547 0.11895 0.26667 0.0
H57 H 0.09749 0.1144 0.40211 0.0
H58 H 0.92516 0.86622 0.34648 0.0
H59 H 0.93279 0.87118 0.21071 0.0
H60 H 0.96039 0.9428 0.47961 0.0
H61 H 0.0941 0.04862 0.51213 0.0
H62 H 0.12583 0.02086 0.6397 0.0
H63 H 0.11907 0.00939 0.7755 0.0
C64 C 0.39956 0.04148 0.95132 0.0
C65 C 0.38985 0.06345 0.02218 0.0
C66 C 0.44165 0.02169 0.94821 0.0
C67 C 0.4752 0.0233 0.01615 0.0
C68 C 0.46474 0.04408 0.08678 0.0
C69 C 0.42295 0.06415 0.08984 0.0
C70 C 0.52031 0.00181 0.01702 0.0
C71 C 0.54394 -0.00044 0.95557 0.0
C72 C 0.58929 0.97847 0.95747 0.0
C73 C 0.59789 0.95181 0.88785 0.0
C74 C 0.64001 0.93203 0.88633 0.0
C75 C 0.67529 0.93916 0.95451 0.0
H76 H 0.62147 0.00935 0.08063 0.0
C77 C 0.66737 0.96714 0.02421 0.0
C78 C 0.62507 0.98666 0.02577 0.0
H79 H 0.69349 0.97306 0.07794 0.0
H80 H 0.37504 0.04054 0.89801 0.0
H81 H 0.44687 0.00416 0.89241 0.0
H82 H 0.4892 0.04506 0.14022 0.0
H83 H 0.41607 0.0791 0.14553 0.0
H84 H 0.53471 0.98783 0.0717 0.0
H85 H 0.52937 0.01264 0.90057 0.0
H86 H 0.5717 0.94583 0.83413 0.0
H87 H 0.64539 0.9122 0.83141 0.0
C88 C 0.98142 0.67447 0.95032 0.0
C89 C 0.02881 0.75901 0.98754 0.0
C90 C 0.98583 0.59979 0.94622 0.0
C91 C 0.0378 0.60854 0.97946 0.0
C92 C 0.08517 0.69332 0.01543 0.0
C93 C 0.08074 0.76742 0.01978 0.0
C94 C 0.04521 0.53208 0.97754 0.0
C95 C 1.0005 0.4443 0.97076 0.0
C96 C 1.00908 0.36913 0.97661 0.0
C97 C 0.9651 0.28763 -0.0003 0.0
C98 C 0.97159 0.21568 0.00727 0.0
C99 C 1.02217 0.22324 -0.00868 0.0
H100 H 0.0936 0.43707 0.9392 0.0
C101 C 0.06602 0.30443 0.96731 0.0
C102 C 0.05948 0.37654 0.95964 0.0
H103 H 0.10509 0.31199 0.95341 0.0
H104 H 0.94108 0.66602 0.92419 0.0
H105 H 0.94886 0.53611 0.91604 0.0
H106 H 0.12581 0.70227 0.04101 0.0
H107 H 0.11849 0.83159 0.04829 0.0
H108 H 0.08974 0.54977 0.9884 0.0
H109 H 0.95617 0.4268 0.9669 0.0
H110 H 0.9257 0.27975 0.01265 0.0
H111 H 0.93667 0.15402 0.02546 0.0
loop_
_geom_bond_atom_site_label_1
_geom_bond_atom_site_label_2
_geom_bond_distance
_geom_bond_site_symmetry_2
_ccdc_geom_bond_type
Tb0 C10 2.825 . S
Tb0 O11 2.347 1_556 S
Tb0 O14 2.366 1_565 S
Tb0 O19 2.418 . S
Tb0 O20 2.384 . S
Tb0 O23 2.479 . S
Tb0 O24 2.471 1_556 S
Eu1 O12 2.418 . S
Eu1 O13 2.384 . S
Eu1 O16 2.479 . S
Eu1 O17 2.471 1_554 S
Eu1 O18 2.347 1_554 S
Eu1 O21 2.366 1_545 S
Eu1 C31 2.825 . S
C2 O18 1.259 1_665 S
C2 O19 1.265 . S
C3 O20 1.255 1_554 S
C3 O21 1.265 1_655 S
C4 C6 1.380 . S
C4 C7 1.374 1_566 S
C4 C10 1.507 . S
C5 C6 1.384 . S
C5 C9 1.387 . S
C5 H32 0.930 . S
C6 C4 1.380 . S
C6 C5 1.384 . S
C6 H33 0.931 . S
C7 C4 1.374 1_544 S
C7 C8 1.390 . S
C7 H34 0.930 . S
C8 C7 1.390 . S
C8 C9 1.391 1_544 S
C8 H35 0.930 . S
C9 C5 1.387 . S
C9 C8 1.391 1_566 S
C10 Tb0 2.825 . S
C10 C4 1.507 . S
C10 O23 1.238 . S
C10 O24 1.247 1_556 S
O11 Tb0 2.347 1_554 S
O11 C15 1.259 1_665 S
O12 Eu1 2.418 . S
O12 C15 1.265 . S
O13 Eu1 2.384 . S
O13 C22 1.255 . S
O14 Tb0 2.366 1_545 S
O14 C22 1.265 1_656 S
C15 O11 1.259 1_445 S
C15 O12 1.265 . S
O16 Eu1 2.479 . S
O16 C31 1.238 . S
O17 Eu1 2.471 1_556 S
O17 C31 1.247 1_556 S
O18 Eu1 2.347 1_556 S
O18 C2 1.259 1_445 S
O19 Tb0 2.418 . S
O19 C2 1.265 . S
O20 Tb0 2.384 . S
O20 C3 1.255 1_556 S
O21 Eu1 2.366 1_565 S
O21 C3 1.265 1_455 S
C22 O13 1.255 . S
C22 O14 1.265 1_454 S
O23 Tb0 2.479 . S
O23 C10 1.238 . S
O24 Tb0 2.471 1_554 S
O24 C10 1.247 1_554 S
C25 C28 1.380 . S
C25 C29 1.374 1_544 S
C25 C31 1.507 . S
C26 C27 1.387 . S
C26 C30 1.391 1_544 S
C27 C26 1.387 . S
C27 C28 1.384 . S
C27 H36 0.930 . S
C28 C25 1.380 . S
C28 C27 1.384 . S
C28 H37 0.931 . S
C29 C25 1.374 1_566 S
C29 C30 1.390 . S
C29 H38 0.930 . S
C30 C26 1.391 1_566 S
C30 C29 1.390 . S
C30 H39 0.930 . S
C31 Eu1 2.825 . S
C31 O16 1.238 . S
C31 O17 1.247 1_554 S
C31 C25 1.507 . S
H32 C5 0.930 . S
H33 C6 0.931 . S
H34 C7 0.930 . S
H35 C8 0.930 . S
H36 C27 0.930 . S
H37 C28 0.931 . S
H38 C29 0.930 . S
H39 C30 0.930 . S
C40 C41 1.386 1_455 S
C40 C42 1.383 . S
C40 H56 0.951 . S
C41 C40 1.386 1_655 S
C41 C45 1.383 1_545 S
C42 C40 1.383 . S
C42 C43 1.402 1_455 S
C42 H57 0.951 . S
C43 C42 1.402 1_655 S
C43 C44 1.375 1_545 S
C43 C46 1.481 . S
C44 C43 1.375 1_565 S
C44 C45 1.367 . S
C44 H58 0.951 . S
C45 C41 1.383 1_565 S
C45 C44 1.367 . S
C45 H59 0.950 . S
C46 C43 1.481 . S
C46 C47 1.297 1_655 S
C46 H60 0.950 . S
C47 C46 1.297 1_455 S
C47 C48 1.479 . S
C47 H61 0.950 . S
C48 C47 1.479 . S
C48 C49 1.375 . S
C48 C54 1.404 1_455 S
C49 C48 1.375 . S
C49 C50 1.369 . S
C49 H62 0.950 . S
C50 C49 1.369 . S
C50 C51 1.392 . S
C50 H63 0.951 . S
C51 C50 1.392 . S
C51 C53 1.384 1_455 S
H52 C54 0.949 . S
C53 C51 1.384 1_655 S
C53 C54 1.385 . S
C53 H55 0.950 . S
C54 C48 1.404 1_655 S
C54 H52 0.949 . S
C54 C53 1.385 . S
H55 C53 0.950 . S
H56 C40 0.951 . S
H57 C42 0.951 . S
H58 C44 0.951 . S
H59 C45 0.950 . S
H60 C46 0.950 . S
H61 C47 0.950 . S
H62 C49 0.950 . S
H63 C50 0.951 . S
C64 C65 1.386 1_556 S
C64 C66 1.383 . S
C64 H80 0.951 . S
C65 C64 1.386 1_554 S
C65 C69 1.383 1_545 S
C66 C64 1.383 . S
C66 C67 1.399 1_546 S
C66 H81 0.951 . S
C67 C66 1.399 1_564 S
C67 C68 1.376 . S
C67 C70 1.483 . S
C68 C67 1.376 . S
C68 C69 1.367 . S
C68 H82 0.951 . S
C69 C65 1.383 1_565 S
C69 C68 1.367 . S
C69 H83 0.950 . S
C70 C67 1.483 . S
C70 C71 1.297 1_565 S
C70 H84 0.950 . S
C71 C70 1.297 1_545 S
C71 C72 1.479 . S
C71 H85 0.950 1_554 S
C72 C71 1.479 . S
C72 C73 1.375 1_554 S
C72 C78 1.404 1_545 S
C73 C72 1.375 1_556 S
C73 C74 1.369 . S
C73 H86 0.950 . S
C74 C73 1.369 . S
C74 C75 1.392 1_556 S
C74 H87 0.951 . S
C75 C74 1.392 1_554 S
C75 C77 1.384 1_545 S
H76 C78 0.949 . S
C77 C75 1.384 1_565 S
C77 C78 1.385 . S
C77 H79 0.950 . S
C78 C72 1.404 1_565 S
C78 H76 0.949 . S
C78 C77 1.385 . S
H79 C77 0.950 . S
H80 C64 0.951 . S
H81 C66 0.951 . S
H82 C68 0.951 . S
H83 C69 0.950 . S
H84 C70 0.950 . S
H85 C71 0.950 1_556 S
H86 C73 0.950 . S
H87 C74 0.951 . S
C88 C89 1.386 1_655 S
C88 C90 1.383 . S
C88 H104 0.951 . S
C89 C88 1.386 1_455 S
C89 C93 1.383 1_556 S
C90 C88 1.383 . S
C90 C91 1.402 1_655 S
C90 H105 0.951 . S
C91 C90 1.402 1_455 S
C91 C92 1.375 . S
C91 C94 1.481 . S
C92 C91 1.375 . S
C92 C93 1.367 1_556 S
C92 H106 0.951 1_556 S
C93 C89 1.383 1_554 S
C93 C92 1.367 1_554 S
C93 H107 0.950 . S
C94 C91 1.481 . S
C94 C95 1.297 1_455 S
C94 H108 0.950 . S
C95 C94 1.297 1_655 S
C95 C96 1.479 . S
C95 H109 0.950 . S
C96 C95 1.479 . S
C96 C97 1.375 . S
C96 C102 1.404 1_655 S
C97 C96 1.375 . S
C97 C98 1.369 . S
C97 H110 0.950 . S
C98 C97 1.369 . S
C98 C99 1.392 . S
C98 H111 0.951 . S
C99 C98 1.392 . S
C99 C101 1.384 1_655 S
H100 C102 0.949 . S
C101 C99 1.384 1_455 S
C101 C102 1.385 . S
C101 H103 0.950 . S
C102 C96 1.404 1_455 S
C102 H100 0.949 . S
C102 C101 1.385 . S
H103 C101 0.950 . S
H104 C88 0.951 . S
H105 C90 0.951 . S
H106 C92 0.951 1_554 S
H107 C93 0.950 . S
H108 C94 0.950 . S
H109 C95 0.950 . S
H110 C97 0.950 . S
H111 C98 0.951 . S
C41 C15 1.477 1_655 S
C51 C2 1.475 1_445 S
C65 C26 1.487 . S
C75 C9 1.498 1_544 S
C89 C3 1.498 1_456 S
C99 C22 1.488 1_656 S
