# Generated by pormake.
# Topology umm, (4)-cn, num edge types: 1
# Building blocks:
#     Node 0, Type 0, BuildingBlock: MUDLON_clean_sbu_0, # of connection points: 4
#     Node 1, Type 0, BuildingBlock: MUDLON_clean_sbu_0, # of connection points: 4
#     Node 2, Type 0, BuildingBlock: MUDLON_clean_sbu_0, # of connection points: 4
#     Node 3, Type 0, BuildingBlock: MUDLON_clean_sbu_0, # of connection points: 4
#     Node 4, Type 0, BuildingBlock: MUDLON_clean_sbu_0, # of connection points: 4
#     Node 5, Type 0, BuildingBlock: MUDLON_clean_sbu_0, # of connection points: 4
#     Node 6, Type 0, BuildingBlock: MUDLON_clean_sbu_0, # of connection points: 4
#     Node 7, Type 0, BuildingBlock: MUDLON_clean_sbu_0, # of connection points: 4
#     Node 8, Type 0, BuildingBlock: MUDLON_clean_sbu_0, # of connection points: 4
#     Node 9, Type 0, BuildingBlock: MUDLON_clean_sbu_0, # of connection points: 4
#     Node 10, Type 0, BuildingBlock: MUDLON_clean_sbu_0, # of connection points: 4
#     Node 11, Type 0, BuildingBlock: MUDLON_clean_sbu_0, # of connection points: 4
#     Edge 12, Type (0, 0), None
#     Edge 13, Type (0, 0), None
#     Edge 14, Type (0, 0), None
#     Edge 15, Type (0, 0), None
#     Edge 16, Type (0, 0), None
#     Edge 17, Type (0, 0), None
#     Edge 18, Type (0, 0), None
#     Edge 19, Type (0, 0), None
#     Edge 20, Type (0, 0), None
#     Edge 21, Type (0, 0), None
#     Edge 22, Type (0, 0), None
#     Edge 23, Type (0, 0), None
#     Edge 24, Type (0, 0), None
#     Edge 25, Type (0, 0), None
#     Edge 26, Type (0, 0), None
#     Edge 27, Type (0, 0), None
#     Edge 28, Type (0, 0), None
#     Edge 29, Type (0, 0), None
#     Edge 30, Type (0, 0), None
#     Edge 31, Type (0, 0), None
#     Edge 32, Type (0, 0), None
#     Edge 33, Type (0, 0), None
#     Edge 34, Type (0, 0), None
#     Edge 35, Type (0, 0), None
# Relax obj value: 0.061
# Max RMSD: 0.170
# Mean RMSD: 0.170
data_MOF--net-umm--node1-MUDLON_clean_sbu_0--edge1-none
_symmetry_space_group_name_H-M    P1
_symmetry_Int_Tables_number       1
_symmetry_cell_setting            triclinic
loop_
_symmetry_equiv_pos_as_xyz
'x, y, z'
_cell_length_a     27.017461
_cell_length_b     27.045839
_cell_length_c     14.0551
_cell_angle_alpha  89.995231
_cell_angle_beta   90.001421
_cell_angle_gamma 120.02277
loop_
_atom_site_label
_atom_site_type_symbol
_atom_site_fract_x
_atom_site_fract_y
_atom_site_fract_z
_atom_type_partial_charge
Mg0 Mg 0.42406 0.56487 0.09033 0.0
C1 C 0.51196 0.53365 0.10955 0.0
O2 O 0.54051 0.58972 0.10811 0.0
C3 C 0.33549 0.58346 0.02675 0.0
O4 O 0.38257 0.6329 0.0372 0.0
C5 C 0.42422 0.59534 0.29477 0.0
O6 O 0.37837 0.54442 0.29278 0.0
O7 O 0.45109 0.61724 0.2178 0.0
O8 O 0.45745 0.50733 0.10515 0.0
O9 O 0.46669 0.60864 0.96211 0.0
C10 C 0.44287 0.57999 0.88742 0.0
O11 O 0.39718 0.52922 0.89484 0.0
O12 O 0.33566 0.53838 0.05238 0.0
Mg13 Mg 0.87706 0.41448 0.4227 0.0
C14 C 0.99623 0.50233 0.44204 0.0
O15 O 0.96863 0.53081 0.44055 0.0
C16 C 0.76984 0.32592 0.35922 0.0
O17 O 0.76744 0.37295 0.3694 0.0
C18 C 0.84668 0.41467 0.62706 0.0
O19 O 0.85173 0.36884 0.62506 0.0
O20 O 0.85168 0.44154 0.5501 0.0
O21 O 0.96807 0.44788 0.43761 0.0
O22 O 0.87596 0.45701 0.29436 0.0
C23 C 0.88084 0.4332 0.21971 0.0
O24 O 0.88589 0.38753 0.2272 0.0
O25 O 0.81515 0.32614 0.38494 0.0
Mg26 Mg 0.48089 0.86768 0.75609 0.0
C27 C 0.51191 0.98669 0.77513 0.0
O28 O 0.45578 0.95901 0.77367 0.0
C29 C 0.46232 0.76051 0.69325 0.0
O30 O 0.41283 0.75808 0.70359 0.0
C31 C 0.45036 0.83737 0.96046 0.0
O32 O 0.50131 0.84247 0.95843 0.0
O33 O 0.42843 0.84232 0.88351 0.0
O34 O 0.53835 0.95867 0.77079 0.0
O35 O 0.43709 0.86633 0.62778 0.0
C36 C 0.46578 0.87117 0.55311 0.0
O37 O 0.51659 0.8763 0.56057 0.0
O38 O 0.50746 0.80586 0.71858 0.0
Mg39 Mg 0.63111 0.47108 0.09026 0.0
C40 C 0.54321 0.50231 0.10954 0.0
O41 O 0.51466 0.44624 0.10811 0.0
C42 C 0.71967 0.4525 0.02663 0.0
O43 O 0.67259 0.40306 0.03707 0.0
C44 C 0.63093 0.44064 0.29471 0.0
O45 O 0.67675 0.49158 0.29271 0.0
O46 O 0.60408 0.4187 0.21773 0.0
O47 O 0.59772 0.52862 0.1051 0.0
O48 O 0.58846 0.42732 0.96205 0.0
C49 C 0.61228 0.45598 0.88735 0.0
O50 O 0.65797 0.50674 0.89476 0.0
O51 O 0.71951 0.49758 0.05228 0.0
Mg52 Mg 0.17805 0.62147 0.42276 0.0
C53 C 0.05888 0.53361 0.44204 0.0
O54 O 0.08648 0.50513 0.44057 0.0
C55 C 0.28526 0.71005 0.3593 0.0
O56 O 0.28767 0.66302 0.3695 0.0
C57 C 0.20846 0.62129 0.62712 0.0
O58 O 0.20346 0.66715 0.6251 0.0
O59 O 0.20343 0.59441 0.55017 0.0
O60 O 0.08703 0.58806 0.43764 0.0
O61 O 0.17917 0.57896 0.29443 0.0
C62 C 0.1743 0.60277 0.21977 0.0
O63 O 0.16924 0.64843 0.22724 0.0
O64 O 0.23994 0.70981 0.385 0.0
Mg65 Mg 0.5742 0.16829 0.75604 0.0
C66 C 0.54317 0.04928 0.77512 0.0
O67 O 0.5993 0.07696 0.77366 0.0
C68 C 0.59277 0.27547 0.69316 0.0
O69 O 0.64226 0.27788 0.7035 0.0
C70 C 0.60473 0.19861 0.96039 0.0
O71 O 0.55378 0.19351 0.95836 0.0
O72 O 0.62666 0.19365 0.88345 0.0
O73 O 0.51673 0.0773 0.77076 0.0
O74 O 0.61799 0.16964 0.62772 0.0
C75 C 0.5893 0.16481 0.55305 0.0
O76 O 0.5385 0.15968 0.5605 0.0
O77 O 0.54763 0.23011 0.71851 0.0
Mg78 Mg 0.48085 0.62161 0.5908 0.0
C79 C 0.51192 0.53367 0.57161 0.0
O80 O 0.4558 0.50522 0.57308 0.0
C81 C 0.46231 0.7102 0.65391 0.0
O82 O 0.41281 0.66314 0.64376 0.0
C83 C 0.45024 0.62135 0.38645 0.0
O84 O 0.50117 0.66721 0.38842 0.0
O85 O 0.42835 0.59449 0.46342 0.0
O86 O 0.53835 0.58812 0.57599 0.0
O87 O 0.43712 0.57914 0.71915 0.0
C88 C 0.46582 0.60296 0.79382 0.0
O89 O 0.5166 0.64865 0.78637 0.0
O90 O 0.50742 0.70998 0.62836 0.0
Mg91 Mg 0.87711 0.47115 0.92316 0.0
C92 C 0.99626 0.50234 0.90387 0.0
O93 O 0.96863 0.44627 0.90532 0.0
C94 C 0.76993 0.45252 0.98681 0.0
O95 O 0.76751 0.40309 0.97639 0.0
C96 C 0.84671 0.44067 0.71876 0.0
O97 O 0.85183 0.49157 0.72076 0.0
O98 O 0.85167 0.41877 0.79571 0.0
O99 O 0.96814 0.52868 0.90829 0.0
O100 O 0.87597 0.42744 0.05143 0.0
C101 C 0.88088 0.45613 0.12609 0.0
O102 O 0.88602 0.50689 0.11862 0.0
O103 O 0.81523 0.49761 0.96114 0.0
Mg104 Mg 0.42412 0.86756 0.25656 0.0
C105 C 0.51194 0.9867 0.23743 0.0
O106 O 0.54054 0.95922 0.23888 0.0
C107 C 0.33554 0.76034 0.31973 0.0
O108 O 0.38265 0.75801 0.30934 0.0
C109 C 0.42435 0.83733 0.05217 0.0
O110 O 0.37844 0.84233 0.05419 0.0
O111 O 0.45125 0.84232 0.12911 0.0
O112 O 0.45743 0.95848 0.24181 0.0
O113 O 0.4667 0.86639 0.38482 0.0
C114 C 0.44282 0.87115 0.4595 0.0
O115 O 0.39708 0.87616 0.45206 0.0
O116 O 0.33571 0.80562 0.29427 0.0
Mg117 Mg 0.57427 0.41439 0.59074 0.0
C118 C 0.5432 0.50235 0.5716 0.0
O119 O 0.59933 0.53079 0.57308 0.0
C120 C 0.59279 0.32577 0.65382 0.0
O121 O 0.64229 0.37283 0.64365 0.0
C122 C 0.6049 0.41462 0.38639 0.0
O123 O 0.554 0.36873 0.38837 0.0
O124 O 0.62677 0.44151 0.46335 0.0
O125 O 0.51678 0.44789 0.57596 0.0
O126 O 0.61801 0.45684 0.71908 0.0
C127 C 0.58932 0.43301 0.79376 0.0
O128 O 0.53853 0.38733 0.78632 0.0
O129 O 0.54768 0.32601 0.6283 0.0
Mg130 Mg 0.17807 0.56483 0.92324 0.0
C131 C 0.05892 0.53365 0.90388 0.0
O132 O 0.08655 0.58972 0.90532 0.0
C133 C 0.28524 0.58345 0.98693 0.0
O134 O 0.28766 0.63288 0.97652 0.0
C135 C 0.20844 0.5953 0.71882 0.0
O136 O 0.20328 0.54438 0.72084 0.0
O137 O 0.20352 0.61722 0.79578 0.0
O138 O 0.08703 0.5073 0.90834 0.0
O139 O 0.17919 0.60853 0.05149 0.0
C140 C 0.17428 0.57984 0.12616 0.0
O141 O 0.16914 0.52908 0.11871 0.0
O142 O 0.23994 0.53836 0.96124 0.0
Mg143 Mg 0.63097 0.16841 0.25651 0.0
C144 C 0.54314 0.04928 0.23742 0.0
O145 O 0.51454 0.07676 0.23886 0.0
C146 C 0.71956 0.27563 0.31965 0.0
O147 O 0.67246 0.27798 0.30925 0.0
C148 C 0.63075 0.19864 0.0521 0.0
O149 O 0.67665 0.19364 0.05413 0.0
O150 O 0.60385 0.19366 0.12904 0.0
O151 O 0.59765 0.0775 0.24179 0.0
O152 O 0.58839 0.16959 0.38476 0.0
C153 C 0.61226 0.16482 0.45944 0.0
O154 O 0.658 0.15981 0.45201 0.0
O155 O 0.71938 0.23035 0.29421 0.0
loop_
_geom_bond_atom_site_label_1
_geom_bond_atom_site_label_2
_geom_bond_distance
_geom_bond_site_symmetry_2
_ccdc_geom_bond_type
Mg0 O7 2.141 . S
Mg0 O8 2.048 . S
Mg0 O9 2.048 1_554 S
Mg0 O12 2.141 . S
C1 O2 1.313 . S
C1 O8 1.195 . S
O2 C1 1.313 . S
C3 O4 1.245 . S
C3 O12 1.289 . S
O4 C3 1.245 . S
C5 O6 1.245 . S
C5 O7 1.289 . S
O6 C5 1.245 . S
O7 Mg0 2.141 . S
O7 C5 1.289 . S
O8 Mg0 2.048 . S
O8 C1 1.195 . S
O9 Mg0 2.048 1_556 S
O9 C10 1.195 . S
C10 O9 1.195 . S
C10 O11 1.313 . S
O11 C10 1.313 . S
O12 Mg0 2.141 . S
O12 C3 1.289 . S
Mg13 O20 2.141 . S
Mg13 O21 2.048 . S
Mg13 O22 2.048 . S
Mg13 O25 2.141 . S
C14 O15 1.313 . S
C14 O21 1.195 . S
O15 C14 1.313 . S
C16 O17 1.245 . S
C16 O25 1.289 . S
O17 C16 1.245 . S
C18 O19 1.245 . S
C18 O20 1.289 . S
O19 C18 1.245 . S
O20 Mg13 2.141 . S
O20 C18 1.289 . S
O21 Mg13 2.048 . S
O21 C14 1.195 . S
O22 Mg13 2.048 . S
O22 C23 1.195 . S
C23 O22 1.195 . S
C23 O24 1.313 . S
O24 C23 1.313 . S
O25 Mg13 2.141 . S
O25 C16 1.289 . S
Mg26 O33 2.141 . S
Mg26 O34 2.048 . S
Mg26 O35 2.048 . S
Mg26 O38 2.141 . S
C27 O28 1.313 . S
C27 O34 1.195 . S
O28 C27 1.313 . S
C29 O30 1.245 . S
C29 O38 1.289 . S
O30 C29 1.245 . S
C31 O32 1.245 . S
C31 O33 1.289 . S
O32 C31 1.245 . S
O33 Mg26 2.141 . S
O33 C31 1.289 . S
O34 Mg26 2.048 . S
O34 C27 1.195 . S
O35 Mg26 2.048 . S
O35 C36 1.195 . S
C36 O35 1.195 . S
C36 O37 1.313 . S
O37 C36 1.313 . S
O38 Mg26 2.141 . S
O38 C29 1.289 . S
Mg39 O46 2.141 . S
Mg39 O47 2.048 . S
Mg39 O48 2.048 1_554 S
Mg39 O51 2.141 . S
C40 O41 1.313 . S
C40 O47 1.195 . S
O41 C40 1.313 . S
C42 O43 1.245 . S
C42 O51 1.289 . S
O43 C42 1.245 . S
C44 O45 1.245 . S
C44 O46 1.289 . S
O45 C44 1.245 . S
O46 Mg39 2.141 . S
O46 C44 1.289 . S
O47 Mg39 2.048 . S
O47 C40 1.195 . S
O48 Mg39 2.048 1_556 S
O48 C49 1.195 . S
C49 O48 1.195 . S
C49 O50 1.313 . S
O50 C49 1.313 . S
O51 Mg39 2.141 . S
O51 C42 1.289 . S
Mg52 O59 2.141 . S
Mg52 O60 2.048 . S
Mg52 O61 2.048 . S
Mg52 O64 2.141 . S
C53 O54 1.313 . S
C53 O60 1.195 . S
O54 C53 1.313 . S
C55 O56 1.245 . S
C55 O64 1.289 . S
O56 C55 1.245 . S
C57 O58 1.245 . S
C57 O59 1.289 . S
O58 C57 1.245 . S
O59 Mg52 2.141 . S
O59 C57 1.289 . S
O60 Mg52 2.048 . S
O60 C53 1.195 . S
O61 Mg52 2.048 . S
O61 C62 1.195 . S
C62 O61 1.195 . S
C62 O63 1.313 . S
O63 C62 1.313 . S
O64 Mg52 2.141 . S
O64 C55 1.289 . S
Mg65 O72 2.141 . S
Mg65 O73 2.048 . S
Mg65 O74 2.048 . S
Mg65 O77 2.141 . S
C66 O67 1.313 . S
C66 O73 1.195 . S
O67 C66 1.313 . S
C68 O69 1.245 . S
C68 O77 1.289 . S
O69 C68 1.245 . S
C70 O71 1.245 . S
C70 O72 1.289 . S
O71 C70 1.245 . S
O72 Mg65 2.141 . S
O72 C70 1.289 . S
O73 Mg65 2.048 . S
O73 C66 1.195 . S
O74 Mg65 2.048 . S
O74 C75 1.195 . S
C75 O74 1.195 . S
C75 O76 1.313 . S
O76 C75 1.313 . S
O77 Mg65 2.141 . S
O77 C68 1.289 . S
Mg78 O85 2.141 . S
Mg78 O86 2.048 . S
Mg78 O87 2.048 . S
Mg78 O90 2.141 . S
C79 O80 1.313 . S
C79 O86 1.195 . S
O80 C79 1.313 . S
C81 O82 1.245 . S
C81 O90 1.289 . S
O82 C81 1.245 . S
C83 O84 1.245 . S
C83 O85 1.289 . S
O84 C83 1.245 . S
O85 Mg78 2.141 . S
O85 C83 1.289 . S
O86 Mg78 2.048 . S
O86 C79 1.195 . S
O87 Mg78 2.048 . S
O87 C88 1.195 . S
C88 O87 1.195 . S
C88 O89 1.313 . S
O89 C88 1.313 . S
O90 Mg78 2.141 . S
O90 C81 1.289 . S
Mg91 O98 2.141 . S
Mg91 O99 2.048 . S
Mg91 O100 2.048 1_556 S
Mg91 O103 2.141 . S
C92 O93 1.313 . S
C92 O99 1.195 . S
O93 C92 1.313 . S
C94 O95 1.245 . S
C94 O103 1.289 . S
O95 C94 1.245 . S
C96 O97 1.245 . S
C96 O98 1.289 . S
O97 C96 1.245 . S
O98 Mg91 2.141 . S
O98 C96 1.289 . S
O99 Mg91 2.048 . S
O99 C92 1.195 . S
O100 Mg91 2.048 1_554 S
O100 C101 1.195 . S
C101 O100 1.195 . S
C101 O102 1.313 . S
O102 C101 1.313 . S
O103 Mg91 2.141 . S
O103 C94 1.289 . S
Mg104 O111 2.141 . S
Mg104 O112 2.048 . S
Mg104 O113 2.048 . S
Mg104 O116 2.141 . S
C105 O106 1.313 . S
C105 O112 1.195 . S
O106 C105 1.313 . S
C107 O108 1.245 . S
C107 O116 1.289 . S
O108 C107 1.245 . S
C109 O110 1.245 . S
C109 O111 1.289 . S
O110 C109 1.245 . S
O111 Mg104 2.141 . S
O111 C109 1.289 . S
O112 Mg104 2.048 . S
O112 C105 1.195 . S
O113 Mg104 2.048 . S
O113 C114 1.195 . S
C114 O113 1.195 . S
C114 O115 1.313 . S
O115 C114 1.313 . S
O116 Mg104 2.141 . S
O116 C107 1.289 . S
Mg117 O124 2.141 . S
Mg117 O125 2.048 . S
Mg117 O126 2.048 . S
Mg117 O129 2.141 . S
C118 O119 1.313 . S
C118 O125 1.195 . S
O119 C118 1.313 . S
C120 O121 1.245 . S
C120 O129 1.289 . S
O121 C120 1.245 . S
C122 O123 1.245 . S
C122 O124 1.289 . S
O123 C122 1.245 . S
O124 Mg117 2.141 . S
O124 C122 1.289 . S
O125 Mg117 2.048 . S
O125 C118 1.195 . S
O126 Mg117 2.048 . S
O126 C127 1.195 . S
C127 O126 1.195 . S
C127 O128 1.313 . S
O128 C127 1.313 . S
O129 Mg117 2.141 . S
O129 C120 1.289 . S
Mg130 O137 2.141 . S
Mg130 O138 2.048 . S
Mg130 O139 2.048 1_556 S
Mg130 O142 2.141 . S
C131 O132 1.313 . S
C131 O138 1.195 . S
O132 C131 1.313 . S
C133 O134 1.245 . S
C133 O142 1.289 . S
O134 C133 1.245 . S
C135 O136 1.245 . S
C135 O137 1.289 . S
O136 C135 1.245 . S
O137 Mg130 2.141 . S
O137 C135 1.289 . S
O138 Mg130 2.048 . S
O138 C131 1.195 . S
O139 Mg130 2.048 1_554 S
O139 C140 1.195 . S
C140 O139 1.195 . S
C140 O141 1.313 . S
O141 C140 1.313 . S
O142 Mg130 2.141 . S
O142 C133 1.289 . S
Mg143 O150 2.141 . S
Mg143 O151 2.048 . S
Mg143 O152 2.048 . S
Mg143 O155 2.141 . S
C144 O145 1.313 . S
C144 O151 1.195 . S
O145 C144 1.313 . S
C146 O147 1.245 . S
C146 O155 1.289 . S
O147 C146 1.245 . S
C148 O149 1.245 . S
C148 O150 1.289 . S
O149 C148 1.245 . S
O150 Mg143 2.141 . S
O150 C148 1.289 . S
O151 Mg143 2.048 . S
O151 C144 1.195 . S
O152 Mg143 2.048 . S
O152 C153 1.195 . S
C153 O152 1.195 . S
C153 O154 1.313 . S
O154 C153 1.313 . S
O155 Mg143 2.141 . S
O155 C146 1.289 . S
C5 C83 1.723 . S
C18 C96 1.723 . S
C31 C109 1.723 1_556 S
C44 C122 1.723 . S
C57 C135 1.723 . S
C148 C70 1.723 1_554 S
C3 C133 2.097 1_554 S
C16 C146 2.097 . S
C29 C81 2.097 . S
C42 C94 2.097 1_554 S
C55 C107 2.097 . S
C68 C120 2.097 . S
C1 C40 2.352 . S
C14 C53 2.352 1_655 S
C66 C27 2.353 1_545 S
C79 C118 2.352 . S
C131 C92 2.351 1_455 S
C105 C144 2.352 1_565 S
C88 C10 0.921 . S
C23 C101 0.921 . S
C36 C114 0.920 . S
C127 C49 0.921 . S
C140 C62 0.921 . S
C75 C153 0.920 . S
