# Generated by pormake.
# Topology pcu, (6)-cn, num edge types: 1
# Building blocks:
#     Node 0, Type 0, BuildingBlock: BETDIP_clean_sbu_0, # of connection points: 6
#     Edge 1, Type (0, 0), BuildingBlock: AJUNOK_clean_linker_0, # of connection points: 2
#     Edge 2, Type (0, 0), BuildingBlock: AJUNOK_clean_linker_0, # of connection points: 2
#     Edge 3, Type (0, 0), BuildingBlock: AJUNOK_clean_linker_0, # of connection points: 2
# Relax obj value: 0.000
# Max RMSD: 0.000
# Mean RMSD: 0.000
data_MOF--net-pcu--node1-BETDIP_clean_sbu_0--edge1-AJUNOK_clean_linker_0
_symmetry_space_group_name_H-M    P1
_symmetry_Int_Tables_number       1
_symmetry_cell_setting            triclinic
loop_
_symmetry_equiv_pos_as_xyz
'x, y, z'
_cell_length_a     20.966746
_cell_length_b     11.368755
_cell_length_c     10.24234
_cell_angle_alpha  89.330365
_cell_angle_beta   98.191291
_cell_angle_gamma 122.93597
loop_
_atom_site_label
_atom_site_type_symbol
_atom_site_fract_x
_atom_site_fract_y
_atom_site_fract_z
_atom_type_partial_charge
Tb0 Tb 0.95782 0.88994 1.02305 0.0
Tb1 Tb 0.12879 0.06605 1.02698 0.0
C2 C 0.82368 0.78847 0.07159 0.0
C3 C 0.76669 0.8287 0.05985 0.0
C4 C 0.77153 0.92204 0.15575 0.0
C5 C 0.71568 0.95476 0.14595 0.0
C6 C 0.6535 0.89437 0.04064 0.0
C7 C 0.64907 0.80211 0.94426 0.0
C8 C 0.70469 0.76894 0.95426 0.0
C9 C 1.00158 0.92852 0.78829 0.0
C10 C 0.0471 0.226 1.02438 0.0
C11 C 0.26292 0.16644 0.9786 0.0
C12 C 0.31816 0.12231 0.98705 0.0
C13 C 0.3129 0.03284 0.88636 0.0
C14 C 0.36595 -0.00656 0.89474 0.0
C15 C 0.42552 0.04286 1.00365 0.0
C16 C 0.43163 0.13416 0.10307 0.0
C17 C 0.37863 0.17358 0.09479 0.0
C18 C 0.0854 0.03151 0.26104 0.0
C19 C 1.03928 0.73046 1.02275 0.0
O20 O 0.88598 0.86133 0.16007 0.0
O21 O 0.83849 0.75933 0.96091 0.0
O22 O 1.03142 0.01739 0.88635 0.0
O23 O 0.94111 0.8149 0.81674 0.0
O24 O 0.98556 0.10609 0.04923 0.0
O25 O 0.10782 0.23127 0.99454 0.0
O26 O 0.2008 0.09799 0.88917 0.0
O27 O 0.24817 0.19256 0.09073 0.0
O28 O 0.05535 0.93995 0.16485 0.0
O29 O 0.14574 0.14407 0.23089 0.0
O30 O 0.10018 0.85086 0.99796 0.0
O31 O 0.97897 0.72421 0.05629 0.0
H32 H 0.81808 0.96912 0.2391 0.0
H33 H 0.72049 0.02581 0.22203 0.0
H34 H 0.60282 0.75619 0.86042 0.0
H35 H 0.69899 0.69599 0.87923 0.0
H36 H 0.26797 -0.00659 0.80067 0.0
H37 H 0.36098 0.92567 0.81508 0.0
H38 H 0.47716 0.17429 0.18789 0.0
H39 H 0.38509 0.24447 0.1729 0.0
C40 C 1.00646 0.87286 0.42524 0.0
C41 C 0.06381 0.00753 0.39497 0.0
C42 C 0.9868 0.84826 0.55283 0.0
C43 C 1.02373 0.95737 0.65469 0.0
H44 H 0.9769 0.78553 0.35019 0.0
H45 H 0.94254 0.74275 0.57185 0.0
S46 S 0.17611 0.3302 0.62491 0.0
N47 N 0.15622 0.25194 0.47653 0.0
N48 N 0.119 0.2061 0.71499 0.0
C49 C 0.08064 0.09272 0.62511 0.0
C50 C 0.10071 0.11767 0.49557 0.0
C51 C 0.56168 0.10559 0.03963 0.0
C52 C 0.48228 0.00187 1.01266 0.0
C53 C 0.61645 0.06988 0.04848 0.0
C54 C 0.594 0.92898 0.031 0.0
H55 H 0.5817 0.21556 0.05238 0.0
H56 H 0.67695 0.15357 0.06757 0.0
S57 S 0.39294 0.6167 0.96931 0.0
N58 N 0.38381 0.75187 0.97531 0.0
N59 N 0.48654 0.68444 0.99265 0.0
C60 C 0.51468 0.824 1.00579 0.0
C61 C 0.45894 0.86049 0.99646 0.0
C62 C 0.98784 0.48176 0.0775 0.0
C63 C 1.0412 0.60204 1.01949 0.0
C64 C 0.99001 0.36058 0.07839 0.0
C65 C 0.04573 0.35504 1.02156 0.0
H66 H 0.94447 0.48137 0.12404 0.0
H67 H 0.94807 0.27117 0.12527 0.0
S68 S 0.19472 0.6377 0.84743 0.0
N69 N 0.14867 0.7048 0.89681 0.0
N70 N 0.15329 0.47857 0.89991 0.0
C71 C 0.09869 0.47387 0.96139 0.0
C72 C 0.09626 0.59684 0.95994 0.0
loop_
_geom_bond_atom_site_label_1
_geom_bond_atom_site_label_2
_geom_bond_distance
_geom_bond_site_symmetry_2
_ccdc_geom_bond_type
Tb0 C2 2.809 . S
Tb0 O20 2.484 1_556 S
Tb0 O21 2.440 . S
Tb0 O22 2.658 1_655 S
Tb0 O23 2.409 . S
Tb0 O24 2.378 1_565 S
Tb0 O28 2.325 1_566 S
Tb0 O31 2.341 . S
Tb1 C11 2.809 . S
Tb1 O22 2.325 1_544 S
Tb1 O25 2.341 . S
Tb1 O26 2.484 1_554 S
Tb1 O27 2.440 . S
Tb1 O28 2.658 1_455 S
Tb1 O29 2.409 . S
Tb1 O30 2.378 1_545 S
C2 Tb0 2.809 . S
C2 C3 1.514 . S
C2 O20 1.248 1_556 S
C2 O21 1.266 . S
C3 C2 1.514 . S
C3 C4 1.355 1_566 S
C3 C8 1.348 . S
C4 C3 1.355 1_544 S
C4 C5 1.386 . S
C4 H32 0.927 . S
C5 C4 1.386 . S
C5 C6 1.347 1_544 S
C5 H33 0.931 . S
C6 C5 1.347 1_566 S
C6 C7 1.369 . S
C7 C6 1.369 . S
C7 C8 1.408 . S
C7 H34 0.930 . S
C8 C3 1.348 . S
C8 C7 1.408 . S
C8 H35 0.930 . S
C9 O22 1.281 1_655 S
C9 O23 1.254 . S
C10 O24 1.236 1_455 S
C10 O25 1.266 1_556 S
C11 Tb1 2.809 . S
C11 C12 1.514 . S
C11 O26 1.248 1_554 S
C11 O27 1.266 . S
C12 C11 1.514 . S
C12 C13 1.356 1_544 S
C12 C17 1.348 . S
C13 C12 1.356 1_566 S
C13 C14 1.385 . S
C13 H36 0.927 . S
C14 C13 1.385 . S
C14 C15 1.347 1_566 S
C14 H37 0.931 . S
C15 C14 1.347 1_544 S
C15 C16 1.369 . S
C16 C15 1.369 . S
C16 C17 1.408 . S
C16 H38 0.930 . S
C17 C12 1.348 . S
C17 C16 1.408 . S
C17 H39 0.930 . S
C18 O28 1.281 1_455 S
C18 O29 1.254 . S
C19 O30 1.236 1_655 S
C19 O31 1.266 1_554 S
O20 Tb0 2.484 1_554 S
O20 C2 1.248 1_554 S
O21 Tb0 2.440 . S
O21 C2 1.266 . S
O22 Tb0 2.658 1_455 S
O22 Tb1 2.325 1_566 S
O22 C9 1.281 1_455 S
O23 Tb0 2.409 . S
O23 C9 1.254 . S
O24 Tb0 2.378 1_545 S
O24 C10 1.236 1_655 S
O25 Tb1 2.341 . S
O25 C10 1.266 1_554 S
O26 Tb1 2.484 1_556 S
O26 C11 1.248 1_556 S
O27 Tb1 2.440 . S
O27 C11 1.266 . S
O28 Tb0 2.325 1_544 S
O28 Tb1 2.658 1_655 S
O28 C18 1.281 1_655 S
O29 Tb1 2.409 . S
O29 C18 1.254 . S
O30 Tb1 2.378 1_565 S
O30 C19 1.236 1_455 S
O31 Tb0 2.341 . S
O31 C19 1.266 1_556 S
H32 C4 0.927 . S
H33 C5 0.931 . S
H34 C7 0.930 . S
H35 C8 0.930 . S
H36 C13 0.927 . S
H37 C14 0.931 . S
H38 C16 0.930 . S
H39 C17 0.930 . S
C40 C41 1.373 1_665 S
C40 C42 1.419 . S
C40 H44 0.930 . S
C41 C40 1.373 1_445 S
C41 C50 1.423 . S
C42 C40 1.419 . S
C42 C43 1.367 1_665 S
C42 H45 0.929 . S
C43 C42 1.367 1_445 S
C43 C49 1.426 . S
H44 C40 0.930 . S
H45 C42 0.929 . S
S46 N47 1.613 . S
S46 N48 1.610 . S
N47 S46 1.613 . S
N47 C50 1.350 . S
N48 S46 1.610 . S
N48 C49 1.351 . S
C49 C43 1.426 . S
C49 N48 1.351 . S
C49 C50 1.434 . S
C50 C41 1.423 . S
C50 N47 1.350 . S
C50 C49 1.434 . S
C51 C52 1.368 1_546 S
C51 C53 1.419 . S
C51 H55 0.930 . S
C52 C51 1.368 1_564 S
C52 C61 1.429 . S
C53 C51 1.419 . S
C53 C54 1.363 1_546 S
C53 H56 0.929 . S
C54 C53 1.363 1_564 S
C54 C60 1.429 . S
H55 C51 0.930 . S
H56 C53 0.929 . S
S57 N58 1.613 . S
S57 N59 1.610 . S
N58 S57 1.613 . S
N58 C61 1.350 . S
N59 S57 1.610 . S
N59 C60 1.351 . S
C60 C54 1.429 . S
C60 N59 1.351 . S
C60 C61 1.434 . S
C61 C52 1.429 . S
C61 N58 1.350 . S
C61 C60 1.434 . S
C62 C63 1.369 1_654 S
C62 C64 1.419 . S
C62 H66 0.930 . S
C63 C62 1.369 1_456 S
C63 C72 1.430 . S
C64 C62 1.419 . S
C64 C65 1.361 1_654 S
C64 H67 0.929 . S
C65 C64 1.361 1_456 S
C65 C71 1.429 . S
H66 C62 0.930 . S
H67 C64 0.929 . S
S68 N69 1.613 . S
S68 N70 1.610 . S
N69 S68 1.613 . S
N69 C72 1.350 . S
N70 S68 1.610 . S
N70 C71 1.351 . S
C71 C65 1.429 . S
C71 N70 1.351 . S
C71 C72 1.434 . S
C72 C63 1.430 . S
C72 N69 1.350 . S
C72 C71 1.434 . S
C41 C18 1.452 . S
C43 C9 1.451 1_445 S
C52 C15 1.500 1_565 S
C54 C6 1.498 1_554 S
C63 C19 1.491 1_456 S
C65 C10 1.490 . S
