# Generated by pormake.
# Topology kag, (6)-cn, num edge types: 1
# Building blocks:
#     Node 0, Type 0, BuildingBlock: BETDEL_clean_sbu_0, # of connection points: 6
#     Node 1, Type 0, BuildingBlock: BETDEL_clean_sbu_0, # of connection points: 6
#     Node 2, Type 0, BuildingBlock: BETDEL_clean_sbu_0, # of connection points: 6
#     Edge 3, Type (0, 0), BuildingBlock: AJUNOK_clean_linker_0, # of connection points: 2
#     Edge 4, Type (0, 0), BuildingBlock: AJUNOK_clean_linker_0, # of connection points: 2
#     Edge 5, Type (0, 0), BuildingBlock: AJUNOK_clean_linker_0, # of connection points: 2
#     Edge 6, Type (0, 0), BuildingBlock: AJUNOK_clean_linker_0, # of connection points: 2
#     Edge 7, Type (0, 0), BuildingBlock: AJUNOK_clean_linker_0, # of connection points: 2
#     Edge 8, Type (0, 0), BuildingBlock: AJUNOK_clean_linker_0, # of connection points: 2
#     Edge 9, Type (0, 0), BuildingBlock: AJUNOK_clean_linker_0, # of connection points: 2
#     Edge 10, Type (0, 0), BuildingBlock: AJUNOK_clean_linker_0, # of connection points: 2
#     Edge 11, Type (0, 0), BuildingBlock: AJUNOK_clean_linker_0, # of connection points: 2
# Relax obj value: 0.021
# Max RMSD: 0.075
# Mean RMSD: 0.053
data_MOF--net-kag--node1-BETDEL_clean_sbu_0--edge1-AJUNOK_clean_linker_0
_symmetry_space_group_name_H-M    P1
_symmetry_Int_Tables_number       1
_symmetry_cell_setting            triclinic
loop_
_symmetry_equiv_pos_as_xyz
'x, y, z'
_cell_length_a     22.783478
_cell_length_b     25.421604
_cell_length_c     10.408875
_cell_angle_alpha  97.93071
_cell_angle_beta   92.538467
_cell_angle_gamma 110.86754
loop_
_atom_site_label
_atom_site_type_symbol
_atom_site_fract_x
_atom_site_fract_y
_atom_site_fract_z
_atom_type_partial_charge
Dy0 Dy 0.99336 0.44854 1.004 0.0
C1 C 0.132 0.69517 0.04285 0.0
C2 C 0.92704 0.34095 0.04898 0.0
Dy3 Dy 0.0544 0.58376 0.02819 0.0
O4 O 0.9682 0.35333 0.96451 0.0
O5 O 0.92435 0.38767 0.11279 0.0
O6 O 0.97946 0.42657 0.78421 0.0
O7 O 1.01631 0.51069 0.87544 0.0
C8 C 1.00108 0.47922 0.76567 0.0
C9 C 1.02232 0.54219 0.24941 0.0
O10 O 0.95435 0.57159 0.97491 0.0
O11 O 0.91221 0.47912 1.02252 0.0
O12 O 0.1308 0.66333 0.13046 0.0
O13 O 0.09035 0.66591 0.94442 0.0
O14 O 1.019 0.58982 0.22507 0.0
O15 O 0.04528 0.52063 0.1574 0.0
O16 O 0.09618 0.46219 0.03427 0.0
O17 O 0.13295 0.55351 0.9794 0.0
C18 C 0.90587 0.52657 0.99503 0.0
C19 C 0.14228 0.50728 1.00561 0.0
Dy20 Dy 0.59414 0.0535 0.04702 0.0
C21 C 0.33471 0.91282 0.05469 0.0
C22 C 0.71376 0.13161 0.04674 0.0
Dy23 Dy 0.45237 0.98985 0.03329 0.0
O24 O 0.68263 0.12234 0.14749 0.0
O25 O 0.67975 0.0971 0.94391 0.0
O26 O 0.60528 0.02433 0.23647 0.0
O27 O 0.52472 0.04252 0.18863 0.0
C28 C 0.55154 0.02473 0.27208 0.0
C29 C 0.49322 0.01893 0.80765 0.0
O30 O 0.45147 0.07721 0.08938 0.0
O31 O 0.55262 0.12099 0.03097 0.0
O32 O 0.35542 0.92949 0.9476 0.0
O33 O 0.37781 0.93986 0.15137 0.0
O34 O 0.43899 1.01732 0.8443 0.0
O35 O 0.52144 1.00139 0.88962 0.0
O36 O 0.59575 0.96577 0.9941 0.0
O37 O 0.49309 0.92197 0.04411 0.0
C38 C 0.49786 0.12285 0.06554 0.0
C39 C 0.5485 0.9201 1.01535 0.0
Dy40 Dy 0.54748 0.58498 1.02141 0.0
C41 C 0.48472 0.34584 0.06534 0.0
C42 C 0.55898 0.69513 1.01457 0.0
Dy43 Dy 0.50128 0.4502 1.00133 0.0
O44 O 0.52935 0.66369 0.09668 0.0
O45 O 0.5831 0.66631 0.9341 0.0
O46 O 0.58914 0.59344 0.22729 0.0
O47 O 0.50897 0.52245 0.14994 0.0
C48 C 0.54924 0.5448 0.24766 0.0
C49 C 0.5139 0.4797 0.76177 0.0
O50 O 0.41024 0.46348 0.02648 0.0
O51 O 0.44307 0.55336 0.96437 0.0
O52 O 0.44453 0.35641 0.98992 0.0
O53 O 0.53269 0.39258 0.10793 0.0
O54 O 0.49379 0.4271 0.78158 0.0
O55 O 0.52443 0.51147 0.87064 0.0
O56 O 0.63706 0.57309 0.97843 0.0
O57 O 0.60733 0.4815 0.03043 0.0
C58 C 0.39828 0.50759 0.99356 0.0
C59 C 0.65049 0.52849 1.00195 0.0
C60 C 1.00632 0.54841 0.61292 0.0
C61 C 1.00998 0.49655 0.63621 0.0
C62 C 1.00936 0.5624 0.48674 0.0
C63 C 1.01757 0.52557 0.38052 0.0
H64 H 0.9994 0.57756 0.69173 0.0
H65 H 1.00551 0.60251 0.4726 0.0
S66 S 0.03438 0.38654 0.39368 0.0
N67 N 1.02409 0.40903 0.54446 0.0
N68 N 0.03268 0.43655 0.30954 0.0
C69 C 1.02315 0.47442 0.40394 0.0
C70 C 1.01863 0.45962 0.53132 0.0
C71 C 0.57275 1.009 0.49801 0.0
C72 C 0.53478 0.02219 0.40696 0.0
C73 C 0.55988 1.00911 0.62844 0.0
C74 C 0.5085 0.02232 0.67209 0.0
H75 H 0.61293 0.9987 0.46857 0.0
H76 H 0.59004 0.9983 0.69508 0.0
S77 S 0.39522 0.06073 0.47279 0.0
N78 N 0.44401 0.04922 0.36977 0.0
N79 N 0.41995 0.04981 0.61457 0.0
C80 C 0.47036 0.03589 0.58214 0.0
C81 C 0.48336 0.03558 0.44949 0.0
C82 C 0.56564 0.55018 0.61587 0.0
C83 C 0.5212 0.49713 0.63179 0.0
C84 C 0.57554 0.56489 0.49092 0.0
C85 C 0.5404 0.52751 0.37812 0.0
H86 H 0.59384 0.57995 0.70004 0.0
H87 H 0.61054 0.60604 0.48288 0.0
S88 S 0.41568 0.38486 0.36919 0.0
N89 N 0.44091 0.40771 0.52521 0.0
N90 N 0.45759 0.43616 0.29223 0.0
C91 C 0.49494 0.4749 0.3937 0.0
C92 C 0.48583 0.45952 0.52009 0.0
C93 C 0.21923 0.45644 0.9935 0.0
C94 C 0.20762 0.50761 1.004 0.0
C95 C 0.28091 0.45653 0.98961 0.0
C96 C 0.3332 0.50777 0.99573 0.0
H97 H 0.18043 0.41594 0.98696 0.0
H98 H 0.28752 0.4161 0.98072 0.0
S99 S 0.32906 0.65403 0.03666 0.0
N100 N 0.25454 0.61139 0.02934 0.0
N101 N 0.3694 0.61142 1.02132 0.0
C102 C 0.32226 0.55931 1.00878 0.0
C103 C 0.2598 0.55926 1.01315 0.0
C104 C 0.79437 0.22318 0.16055 0.0
C105 C 0.77384 0.18048 0.04915 0.0
C106 C 0.84613 0.27388 0.16183 0.0
C107 C 0.88023 0.28338 0.0528 0.0
H108 H 0.76857 0.21866 0.24588 0.0
H109 H 0.85832 0.30663 0.24754 0.0
S110 S 0.84957 0.18291 0.74105 0.0
N111 N 0.79398 0.14957 0.82974 0.0
N112 N 0.89253 0.24434 0.83309 0.0
C113 C 0.8626 0.2397 0.94337 0.0
C114 C 0.80901 0.18837 0.94123 0.0
C115 C 0.52073 0.82774 0.09524 0.0
C116 C 0.55653 0.86482 1.01517 0.0
C117 C 0.52302 0.77362 0.09457 0.0
C118 C 0.56076 0.75374 1.01294 0.0
H119 H 0.49028 0.8405 0.15944 0.0
H120 H 0.494 0.74683 0.15773 0.0
S121 S 0.66438 0.83405 0.78523 0.0
N122 N 0.63198 0.87837 0.85316 0.0
N123 N 0.63574 0.77551 0.85074 0.0
C124 C 0.59755 0.79035 0.93303 0.0
C125 C 0.59571 0.84623 0.93473 0.0
C126 C 0.79059 0.48126 1.01578 0.0
C127 C 0.84152 0.52893 0.99214 0.0
C128 C 0.72959 0.48185 1.01838 0.0
C129 C 0.71628 0.53015 0.99731 0.0
H130 H 0.79755 0.44276 0.03343 0.0
H131 H 0.69267 0.44377 0.0375 0.0
S132 S 0.83236 0.66625 0.92838 0.0
N133 N 0.8743 0.62596 0.9452 0.0
N134 N 0.75934 0.62707 0.9499 0.0
C135 C 0.76651 0.57816 0.97221 0.0
C136 C 0.82907 0.57757 0.96963 0.0
C137 C 0.18765 0.78117 0.94141 0.0
C138 C 0.17809 0.75419 0.05189 0.0
C139 C 0.23661 0.83421 0.94506 0.0
C140 C 0.2773 0.86227 0.05959 0.0
H141 H 0.15885 0.76019 0.85013 0.0
H142 H 0.24401 0.85232 0.85612 0.0
S143 S 0.26803 0.8122 0.37895 0.0
N144 N 0.21043 0.76146 0.28179 0.0
N145 N 0.30175 0.86103 0.28851 0.0
C146 C 0.266 0.83718 0.1725 0.0
C147 C 0.21658 0.7831 0.16862 0.0
C148 C 0.53922 0.28245 0.12506 0.0
C149 C 0.48315 0.28844 0.08046 0.0
C150 C 0.54276 0.22853 0.1227 0.0
C151 C 0.49003 0.17849 0.07831 0.0
H152 H 0.58166 0.31969 0.15693 0.0
H153 H 0.58758 0.22608 0.15405 0.0
S154 S 0.33065 0.17073 0.96121 0.0
N155 N 0.3727 0.23983 0.9968 0.0
N156 N 0.37899 0.13806 0.99575 0.0
C157 C 0.4327 0.18367 0.03982 0.0
C158 C 0.42937 0.23881 0.03993 0.0
loop_
_geom_bond_atom_site_label_1
_geom_bond_atom_site_label_2
_geom_bond_distance
_geom_bond_site_symmetry_2
_ccdc_geom_bond_type
Dy0 O4 2.398 . S
Dy0 O5 2.491 1_556 S
Dy0 O6 2.403 . S
Dy0 O7 2.664 1_655 S
Dy0 O11 2.326 . S
Dy0 O15 2.310 1_556 S
Dy0 O16 2.351 1_655 S
C1 O12 1.185 . S
C1 O13 1.355 1_554 S
C2 O4 1.185 . S
C2 O5 1.355 1_556 S
Dy3 O7 2.310 1_554 S
Dy3 O10 2.351 1_455 S
Dy3 O12 2.398 . S
Dy3 O13 2.491 1_554 S
Dy3 O14 2.403 . S
Dy3 O15 2.664 1_455 S
Dy3 O17 2.326 . S
O4 Dy0 2.398 . S
O4 C2 1.185 . S
O5 Dy0 2.491 1_554 S
O5 C2 1.355 1_554 S
O6 Dy0 2.403 . S
O6 C8 1.254 . S
O7 Dy0 2.664 1_455 S
O7 Dy3 2.310 1_556 S
O7 C8 1.268 1_455 S
C8 O6 1.254 . S
C8 O7 1.268 1_655 S
C9 O14 1.254 . S
C9 O15 1.268 1_455 S
O10 Dy3 2.351 1_655 S
O10 C18 1.249 1_554 S
O11 Dy0 2.326 . S
O11 C18 1.267 . S
O12 C1 1.185 . S
O12 Dy3 2.398 . S
O13 C1 1.355 1_556 S
O13 Dy3 2.491 1_556 S
O14 Dy3 2.403 . S
O14 C9 1.254 . S
O15 Dy0 2.310 1_554 S
O15 Dy3 2.664 1_655 S
O15 C9 1.268 1_655 S
O16 Dy0 2.351 1_455 S
O16 C19 1.249 1_556 S
O17 Dy3 2.326 . S
O17 C19 1.267 . S
C18 O10 1.249 1_556 S
C18 O11 1.267 . S
C19 O16 1.249 1_554 S
C19 O17 1.267 . S
Dy20 O24 2.398 . S
Dy20 O25 2.491 1_554 S
Dy20 O26 2.403 . S
Dy20 O27 2.664 1_545 S
Dy20 O31 2.326 . S
Dy20 O35 2.310 1_554 S
Dy20 O36 2.351 1_545 S
C21 O32 1.185 . S
C21 O33 1.355 1_556 S
C22 O24 1.185 . S
C22 O25 1.355 1_554 S
Dy23 O27 2.310 1_556 S
Dy23 O30 2.351 1_565 S
Dy23 O32 2.398 . S
Dy23 O33 2.491 1_556 S
Dy23 O34 2.403 . S
Dy23 O35 2.664 1_565 S
Dy23 O37 2.326 . S
O24 Dy20 2.398 . S
O24 C22 1.185 . S
O25 Dy20 2.491 1_556 S
O25 C22 1.355 1_556 S
O26 Dy20 2.403 . S
O26 C28 1.254 . S
O27 Dy20 2.664 1_565 S
O27 Dy23 2.310 1_554 S
O27 C28 1.268 1_565 S
C28 O26 1.254 . S
C28 O27 1.268 1_545 S
C29 O34 1.254 . S
C29 O35 1.268 1_565 S
O30 Dy23 2.351 1_545 S
O30 C38 1.249 1_556 S
O31 Dy20 2.326 . S
O31 C38 1.267 . S
O32 C21 1.185 . S
O32 Dy23 2.398 . S
O33 C21 1.355 1_554 S
O33 Dy23 2.491 1_554 S
O34 Dy23 2.403 . S
O34 C29 1.254 . S
O35 Dy20 2.310 1_556 S
O35 Dy23 2.664 1_545 S
O35 C29 1.268 1_545 S
O36 Dy20 2.351 1_565 S
O36 C39 1.249 1_554 S
O37 Dy23 2.326 . S
O37 C39 1.267 . S
C38 O30 1.249 1_554 S
C38 O31 1.267 . S
C39 O36 1.249 1_556 S
C39 O37 1.267 . S
Dy40 O44 2.398 . S
Dy40 O45 2.491 1_554 S
Dy40 O46 2.403 . S
Dy40 O47 2.664 . S
Dy40 O51 2.326 . S
Dy40 O55 2.310 1_554 S
Dy40 O56 2.351 . S
C41 O52 1.185 . S
C41 O53 1.355 1_556 S
C42 O44 1.185 . S
C42 O45 1.355 1_554 S
Dy43 O47 2.310 1_556 S
Dy43 O50 2.351 . S
Dy43 O52 2.398 . S
Dy43 O53 2.491 1_556 S
Dy43 O54 2.403 . S
Dy43 O55 2.664 . S
Dy43 O57 2.326 . S
O44 Dy40 2.398 . S
O44 C42 1.185 . S
O45 Dy40 2.491 1_556 S
O45 C42 1.355 1_556 S
O46 Dy40 2.403 . S
O46 C48 1.254 . S
O47 Dy40 2.664 . S
O47 Dy43 2.310 1_554 S
O47 C48 1.268 . S
C48 O46 1.254 . S
C48 O47 1.268 . S
C49 O54 1.254 . S
C49 O55 1.268 . S
O50 Dy43 2.351 . S
O50 C58 1.249 1_556 S
O51 Dy40 2.326 . S
O51 C58 1.267 . S
O52 C41 1.185 . S
O52 Dy43 2.398 . S
O53 C41 1.355 1_554 S
O53 Dy43 2.491 1_554 S
O54 Dy43 2.403 . S
O54 C49 1.254 . S
O55 Dy40 2.310 1_556 S
O55 Dy43 2.664 . S
O55 C49 1.268 . S
O56 Dy40 2.351 . S
O56 C59 1.249 1_554 S
O57 Dy43 2.326 . S
O57 C59 1.267 . S
C58 O50 1.249 1_554 S
C58 O51 1.267 . S
C59 O56 1.249 1_556 S
C59 O57 1.267 . S
C60 C61 1.369 . S
C60 C62 1.419 . S
C60 H64 0.930 . S
C61 C60 1.369 . S
C61 C70 1.429 1_455 S
C62 C60 1.419 . S
C62 C63 1.363 1_455 S
C62 H65 0.929 . S
C63 C62 1.363 1_655 S
C63 C69 1.428 . S
H64 C60 0.930 . S
H65 C62 0.929 . S
S66 N67 1.613 . S
S66 N68 1.610 . S
N67 S66 1.613 . S
N67 C70 1.350 . S
N68 S66 1.610 . S
N68 C69 1.351 . S
C69 C63 1.428 . S
C69 N68 1.351 . S
C69 C70 1.434 . S
C70 C61 1.429 1_655 S
C70 N67 1.350 . S
C70 C69 1.434 . S
C71 C72 1.369 1_565 S
C71 C73 1.419 . S
C71 H75 0.930 . S
C72 C71 1.369 1_545 S
C72 C81 1.429 . S
C73 C71 1.419 . S
C73 C74 1.363 1_565 S
C73 H76 0.929 . S
C74 C73 1.363 1_545 S
C74 C80 1.428 . S
H75 C71 0.930 . S
H76 C73 0.929 . S
S77 N78 1.613 . S
S77 N79 1.610 . S
N78 S77 1.613 . S
N78 C81 1.350 . S
N79 S77 1.610 . S
N79 C80 1.351 . S
C80 C74 1.428 . S
C80 N79 1.351 . S
C80 C81 1.434 . S
C81 C72 1.429 . S
C81 N78 1.350 . S
C81 C80 1.434 . S
C82 C83 1.369 . S
C82 C84 1.419 . S
C82 H86 0.930 . S
C83 C82 1.369 . S
C83 C92 1.429 . S
C84 C82 1.419 . S
C84 C85 1.363 . S
C84 H87 0.929 . S
C85 C84 1.363 . S
C85 C91 1.428 . S
H86 C82 0.930 . S
H87 C84 0.929 . S
S88 N89 1.613 . S
S88 N90 1.610 . S
N89 S88 1.613 . S
N89 C92 1.350 . S
N90 S88 1.610 . S
N90 C91 1.351 . S
C91 C85 1.428 . S
C91 N90 1.351 . S
C91 C92 1.434 . S
C92 C83 1.429 . S
C92 N89 1.350 . S
C92 C91 1.434 . S
C93 C94 1.369 . S
C93 C95 1.419 . S
C93 H97 0.930 . S
C94 C93 1.369 . S
C94 C103 1.429 1_556 S
C95 C93 1.419 . S
C95 C96 1.363 . S
C95 H98 0.929 . S
C96 C95 1.363 . S
C96 C102 1.428 1_556 S
H97 C93 0.930 . S
H98 C95 0.929 . S
S99 N100 1.613 . S
S99 N101 1.610 . S
N100 S99 1.613 . S
N100 C103 1.350 . S
N101 S99 1.610 . S
N101 C102 1.351 . S
C102 C96 1.428 1_554 S
C102 N101 1.351 . S
C102 C103 1.434 . S
C103 C94 1.429 1_554 S
C103 N100 1.350 . S
C103 C102 1.434 . S
C104 C105 1.369 1_554 S
C104 C106 1.419 . S
C104 H108 0.930 . S
C105 C104 1.369 1_556 S
C105 C114 1.429 . S
C106 C104 1.419 . S
C106 C107 1.363 1_554 S
C106 H109 0.929 . S
C107 C106 1.363 1_556 S
C107 C113 1.428 . S
H108 C104 0.930 . S
H109 C106 0.929 . S
S110 N111 1.613 . S
S110 N112 1.610 . S
N111 S110 1.613 . S
N111 C114 1.350 . S
N112 S110 1.610 . S
N112 C113 1.351 . S
C113 C107 1.428 . S
C113 N112 1.351 . S
C113 C114 1.434 . S
C114 C105 1.429 . S
C114 N111 1.350 . S
C114 C113 1.434 . S
C115 C116 1.369 1_554 S
C115 C117 1.419 . S
C115 H119 0.930 . S
C116 C115 1.369 1_556 S
C116 C125 1.429 . S
C117 C115 1.419 . S
C117 C118 1.357 1_554 S
C117 H120 0.929 . S
C118 C117 1.357 1_556 S
C118 C124 1.435 . S
H119 C115 0.930 . S
H120 C117 0.929 . S
S121 N122 1.613 . S
S121 N123 1.610 . S
N122 S121 1.613 . S
N122 C125 1.350 . S
N123 S121 1.610 . S
N123 C124 1.351 . S
C124 C118 1.435 . S
C124 N123 1.351 . S
C124 C125 1.434 . S
C125 C116 1.429 . S
C125 N122 1.350 . S
C125 C124 1.434 . S
C126 C127 1.369 . S
C126 C128 1.419 . S
C126 H130 0.930 . S
C127 C126 1.369 . S
C127 C136 1.429 1_554 S
C128 C126 1.419 . S
C128 C129 1.363 . S
C128 H131 0.929 . S
C129 C128 1.363 . S
C129 C135 1.428 1_554 S
H130 C126 0.930 . S
H131 C128 0.929 . S
S132 N133 1.613 . S
S132 N134 1.610 . S
N133 S132 1.613 . S
N133 C136 1.350 . S
N134 S132 1.610 . S
N134 C135 1.351 . S
C135 C129 1.428 1_556 S
C135 N134 1.351 . S
C135 C136 1.434 . S
C136 C127 1.429 1_556 S
C136 N133 1.350 . S
C136 C135 1.434 . S
C137 C138 1.369 1_556 S
C137 C139 1.419 . S
C137 H141 0.930 . S
C138 C137 1.369 1_554 S
C138 C147 1.429 . S
C139 C137 1.419 . S
C139 C140 1.363 1_556 S
C139 H142 0.929 . S
C140 C139 1.363 1_554 S
C140 C146 1.428 . S
H141 C137 0.930 . S
H142 C139 0.929 . S
S143 N144 1.613 . S
S143 N145 1.610 . S
N144 S143 1.613 . S
N144 C147 1.350 . S
N145 S143 1.610 . S
N145 C146 1.351 . S
C146 C140 1.428 . S
C146 N145 1.351 . S
C146 C147 1.434 . S
C147 C138 1.429 . S
C147 N144 1.350 . S
C147 C146 1.434 . S
C148 C149 1.369 1_554 S
C148 C150 1.419 . S
C148 H152 0.930 . S
C149 C148 1.369 1_556 S
C149 C158 1.429 . S
C150 C148 1.419 . S
C150 C151 1.363 . S
C150 H153 0.929 . S
C151 C150 1.363 . S
C151 C157 1.428 1_554 S
H152 C148 0.930 . S
H153 C150 0.929 . S
S154 N155 1.613 . S
S154 N156 1.610 . S
N155 S154 1.613 . S
N155 C158 1.350 . S
N156 S154 1.610 . S
N156 C157 1.351 . S
C157 C151 1.428 1_556 S
C157 N156 1.351 . S
C157 C158 1.434 . S
C158 C149 1.429 . S
C158 N155 1.350 . S
C158 C157 1.434 . S
C61 C8 1.457 1_455 S
C63 C9 1.464 1_655 S
C72 C28 1.455 . S
C74 C29 1.456 1_545 S
C83 C49 1.458 . S
C85 C48 1.465 . S
C94 C19 1.780 1_556 S
C96 C58 1.767 1_556 S
C105 C22 1.255 1_556 S
C107 C2 1.234 . S
C116 C39 1.547 . S
C118 C42 1.502 1_556 S
C127 C18 1.782 1_554 S
C129 C59 1.768 1_554 S
C138 C1 1.236 . S
C140 C21 1.256 1_554 S
C149 C41 1.498 . S
C151 C38 1.551 . S
