# Generated by pormake.
# Topology pcu, (6)-cn, num edge types: 1
# Building blocks:
#     Node 0, Type 0, BuildingBlock: HISSIN_clean_sbu_0, # of connection points: 6
#     Edge 1, Type (0, 0), BuildingBlock: AJUNOK_clean_linker_0, # of connection points: 2
#     Edge 2, Type (0, 0), BuildingBlock: AJUNOK_clean_linker_0, # of connection points: 2
#     Edge 3, Type (0, 0), BuildingBlock: AJUNOK_clean_linker_0, # of connection points: 2
# Relax obj value: 0.000
# Max RMSD: 0.000
# Mean RMSD: 0.000
data_MOF--net-pcu--node1-HISSIN_clean_sbu_0--edge1-AJUNOK_clean_linker_0
_symmetry_space_group_name_H-M    P1
_symmetry_Int_Tables_number       1
_symmetry_cell_setting            triclinic
loop_
_symmetry_equiv_pos_as_xyz
'x, y, z'
_cell_length_a     11.229012
_cell_length_b     21.387094
_cell_length_c     11.341332
_cell_angle_alpha  118.8081
_cell_angle_beta   87.667035
_cell_angle_gamma 97.851491
loop_
_atom_site_label
_atom_site_type_symbol
_atom_site_fract_x
_atom_site_fract_y
_atom_site_fract_z
_atom_type_partial_charge
Eu0 Eu 0.98892 0.9435 0.88622 0.0
Eu1 Eu 0.02863 0.12294 0.04603 0.0
C2 C 0.25003 0.03276 0.96529 0.0
C3 C 0.98156 0.74832 0.80734 0.0
C4 C 0.05863 0.76661 0.91679 0.0
C5 C 0.93703 0.62672 0.77537 0.0
C6 C 0.07427 0.71528 0.95575 0.0
C7 C 0.92158 0.67804 0.73639 0.0
C8 C 0.01241 0.64501 0.88645 0.0
C9 C 0.95861 0.80275 0.77028 0.0
O10 O 0.9838 0.09113 0.83119 0.0
O11 O 0.0336 0.97588 0.72643 0.0
C12 C 0.00846 0.03312 0.7225 0.0
O13 O 0.81403 0.97813 0.8658 0.0
O14 O 0.14631 0.22576 0.12251 0.0
O15 O 0.9551 0.22456 0.15343 0.0
O16 O 0.83483 0.08502 0.06184 0.0
C17 C 0.76744 1.03227 0.96307 0.0
O18 O 0.95775 0.97826 0.10473 0.0
O19 O 0.06093 0.09289 0.20595 0.0
O20 O 0.20534 0.08513 0.96088 0.0
O21 O 0.87592 0.84232 0.83811 0.0
O22 O 0.05279 0.84063 0.75396 0.0
O23 O 0.17981 0.97903 0.96739 0.0
C24 C 0.05639 0.31861 0.12001 0.0
C25 C 0.98887 0.30379 0.00579 0.0
C26 C 0.1202 0.44004 0.15713 0.0
C27 C 0.98563 0.35716 -0.03127 0.0
C28 C 0.12286 0.38676 0.19456 0.0
C29 C 0.05012 0.42615 0.04496 0.0
C30 C 0.05742 0.26385 0.16304 0.0
C31 C 0.01029 0.03503 0.21083 0.0
H32 H 0.10571 0.82073 -0.02722 0.0
H33 H 0.88795 0.57311 0.72042 0.0
H34 H 0.13467 0.73054 0.0401 0.0
H35 H 0.86138 0.66313 0.652 0.0
H36 H 0.93762 0.25123 0.94614 0.0
H37 H 0.17323 0.49206 0.21578 0.0
H38 H 0.93088 0.34487 0.88186 0.0
H39 H 0.17645 0.39888 0.28215 0.0
C40 C 0.02495 0.09803 0.46295 0.0
C41 C 0.0109 0.03345 0.33999 0.0
C42 C 0.02295 0.09749 0.58622 0.0
C43 C 0.00875 1.03233 0.59111 0.0
H44 H 0.03602 0.14949 0.4643 0.0
H45 H 0.0338 0.14861 0.67826 0.0
S46 S 0.96996 0.84833 0.29737 0.0
N47 N 0.98317 0.90249 0.23085 0.0
N48 N 0.98009 0.90147 0.46176 0.0
C49 C 0.99548 0.96737 0.46878 0.0
C50 C 0.9963 0.96793 0.34351 0.0
C51 C 0.43183 0.96896 0.91198 0.0
C52 C 0.38203 0.03387 0.96567 0.0
C53 C 0.55681 0.96874 0.90934 0.0
C54 C 0.63621 0.0335 0.96318 0.0
H55 H 0.37395 0.91784 0.87009 0.0
H56 H 0.59137 0.91755 0.86684 0.0
S57 S 0.55173 0.21797 0.11595 0.0
N58 N 0.42214 0.16461 0.07326 0.0
N59 N 0.65655 0.16415 0.07059 0.0
C60 C 0.58765 0.09875 0.01778 0.0
C61 C 0.46066 0.09894 0.01833 0.0
C62 C 0.04727 0.52107 0.8349 0.0
C63 C 0.02503 0.59082 0.9301 0.0
C64 C 0.05625 0.46842 0.87297 0.0
C65 C 0.04321 0.48343 0.00772 0.0
H66 H 0.05843 0.50716 0.73012 0.0
H67 H 0.07418 0.4156 0.79633 0.0
S68 S 0.97564 0.65618 0.29421 0.0
N69 N 0.985 0.67106 0.16395 0.0
N70 N 0.00158 0.57224 0.2355 0.0
C71 C 0.02027 0.55284 0.1038 0.0
C72 C 0.01126 0.60644 0.06502 0.0
loop_
_geom_bond_atom_site_label_1
_geom_bond_atom_site_label_2
_geom_bond_distance
_geom_bond_site_symmetry_2
_ccdc_geom_bond_type
Eu0 C9 2.828 . S
Eu0 O11 2.392 . S
Eu0 O13 2.418 . S
Eu0 O18 2.373 1_556 S
Eu0 O21 2.488 . S
Eu0 O22 2.471 1_655 S
Eu0 O23 2.349 1_655 S
Eu1 O10 2.373 1_554 S
Eu1 O14 2.488 . S
Eu1 O15 2.471 1_455 S
Eu1 O16 2.349 1_455 S
Eu1 O19 2.392 . S
Eu1 O20 2.418 . S
Eu1 C30 2.828 . S
C2 O20 1.244 . S
C2 O23 1.265 1_544 S
C3 C4 1.379 1_656 S
C3 C7 1.373 . S
C3 C9 1.505 . S
C4 C3 1.379 1_454 S
C4 C6 1.369 . S
C4 H32 0.930 . S
C5 C7 1.383 . S
C5 C8 1.382 . S
C5 H33 0.930 . S
C6 C4 1.369 . S
C6 C8 1.392 1_454 S
C6 H34 0.930 . S
C7 C3 1.373 . S
C7 C5 1.383 . S
C7 H35 0.931 . S
C8 C5 1.382 . S
C8 C6 1.392 1_656 S
C9 Eu0 2.828 . S
C9 C3 1.505 . S
C9 O21 1.249 . S
C9 O22 1.244 1_655 S
O10 Eu1 2.373 1_556 S
O10 C12 1.258 1_545 S
O11 Eu0 2.392 . S
O11 C12 1.242 1_655 S
C12 O10 1.258 1_565 S
C12 O11 1.242 1_455 S
O13 Eu0 2.418 . S
O13 C17 1.244 . S
O14 Eu1 2.488 . S
O14 C30 1.249 . S
O15 Eu1 2.471 1_655 S
O15 C30 1.244 1_655 S
O16 Eu1 2.349 1_655 S
O16 C17 1.265 1_544 S
C17 O13 1.244 . S
C17 O16 1.265 1_566 S
O18 Eu0 2.373 1_554 S
O18 C31 1.258 1_665 S
O19 Eu1 2.392 . S
O19 C31 1.242 . S
O20 Eu1 2.418 . S
O20 C2 1.244 . S
O21 Eu0 2.488 . S
O21 C9 1.249 . S
O22 Eu0 2.471 1_455 S
O22 C9 1.244 1_455 S
O23 Eu0 2.349 1_455 S
O23 C2 1.265 1_566 S
C24 C25 1.379 1_454 S
C24 C28 1.373 . S
C24 C30 1.505 . S
C25 C24 1.379 1_656 S
C25 C27 1.369 . S
C25 H36 0.930 . S
C26 C28 1.383 . S
C26 C29 1.382 . S
C26 H37 0.930 . S
C27 C25 1.369 . S
C27 C29 1.392 1_656 S
C27 H38 0.930 . S
C28 C24 1.373 . S
C28 C26 1.383 . S
C28 H39 0.931 . S
C29 C26 1.382 . S
C29 C27 1.392 1_454 S
C30 Eu1 2.828 . S
C30 O14 1.249 . S
C30 O15 1.244 1_455 S
C30 C24 1.505 . S
C31 O18 1.258 1_445 S
C31 O19 1.242 . S
H32 C4 0.930 . S
H33 C5 0.930 . S
H34 C6 0.930 . S
H35 C7 0.931 . S
H36 C25 0.930 . S
H37 C26 0.930 . S
H38 C27 0.930 . S
H39 C28 0.931 . S
C40 C41 1.361 1_645 S
C40 C42 1.419 . S
C40 H44 0.930 . S
C41 C40 1.361 1_465 S
C41 C50 1.444 . S
C42 C40 1.419 . S
C42 C43 1.352 1_645 S
C42 H45 0.929 . S
C43 C42 1.352 1_465 S
C43 C49 1.435 . S
H44 C40 0.930 . S
H45 C42 0.929 . S
S46 N47 1.613 . S
S46 N48 1.610 . S
N47 S46 1.613 . S
N47 C50 1.350 . S
N48 S46 1.610 . S
N48 C49 1.351 . S
C49 C43 1.435 . S
C49 N48 1.351 . S
C49 C50 1.434 . S
C50 C41 1.444 . S
C50 N47 1.350 . S
C50 C49 1.434 . S
C51 C52 1.354 1_566 S
C51 C53 1.419 . S
C51 H55 0.930 . S
C52 C51 1.354 1_544 S
C52 C61 1.441 . S
C53 C51 1.419 . S
C53 C54 1.354 1_566 S
C53 H56 0.929 . S
C54 C53 1.354 1_544 S
C54 C60 1.440 . S
H55 C51 0.930 . S
H56 C53 0.929 . S
S57 N58 1.613 . S
S57 N59 1.610 . S
N58 S57 1.613 . S
N58 C61 1.350 . S
N59 S57 1.610 . S
N59 C60 1.351 . S
C60 C54 1.440 . S
C60 N59 1.351 . S
C60 C61 1.434 . S
C61 C52 1.441 . S
C61 N58 1.350 . S
C61 C60 1.434 . S
C62 C63 1.369 1_656 S
C62 C64 1.419 . S
C62 H66 0.930 . S
C63 C62 1.369 1_454 S
C63 C72 1.431 . S
C64 C62 1.419 . S
C64 C65 1.361 1_656 S
C64 H67 0.929 . S
C65 C64 1.361 1_454 S
C65 C71 1.428 . S
H66 C62 0.930 . S
H67 C64 0.929 . S
S68 N69 1.613 . S
S68 N70 1.610 . S
N69 S68 1.613 . S
N69 C72 1.350 . S
N70 S68 1.610 . S
N70 C71 1.351 . S
C71 C65 1.428 . S
C71 N70 1.351 . S
C71 C72 1.434 . S
C72 C63 1.431 . S
C72 N69 1.350 . S
C72 C71 1.434 . S
C41 C31 1.493 1_565 S
C43 C12 1.504 . S
C52 C2 1.468 . S
C54 C17 1.464 1_544 S
C63 C8 1.492 1_454 S
C65 C29 1.495 . S
