# Generated by pormake.
# Topology pcu, (6)-cn, num edge types: 1
# Building blocks:
#     Node 0, Type 0, BuildingBlock: PAMTUU_clean_sbu_0, # of connection points: 6
#     Edge 1, Type (0, 0), BuildingBlock: XUDNAN_clean_linker_2, # of connection points: 2
#     Edge 2, Type (0, 0), BuildingBlock: XUDNAN_clean_linker_2, # of connection points: 2
#     Edge 3, Type (0, 0), BuildingBlock: XUDNAN_clean_linker_2, # of connection points: 2
# Relax obj value: 0.000
# Max RMSD: 0.000
# Mean RMSD: 0.000
data_MOF--net-pcu--node1-PAMTUU_clean_sbu_0--edge1-XUDNAN_clean_linker_2
_symmetry_space_group_name_H-M    P1
_symmetry_Int_Tables_number       1
_symmetry_cell_setting            triclinic
loop_
_symmetry_equiv_pos_as_xyz
'x, y, z'
_cell_length_a     25.509201
_cell_length_b     15.166883
_cell_length_c     14.952201
_cell_angle_alpha  83.509484
_cell_angle_beta   98.08622
_cell_angle_gamma 117.38763
loop_
_atom_site_label
_atom_site_type_symbol
_atom_site_fract_x
_atom_site_fract_y
_atom_site_fract_z
_atom_type_partial_charge
Tb0 Tb 0.10592 0.03885 0.99435 0.0
Tb1 Tb 0.9572 0.92553 0.97425 0.0
C2 C 0.03444 0.96008 0.15963 0.0
C3 C 0.2678 0.09119 0.02504 0.0
C4 C 0.37193 0.06418 0.04895 0.0
C5 C 0.3597 0.11049 0.11417 0.0
C6 C 0.30846 0.1242 0.1021 0.0
C7 C 0.27864 0.04124 0.96149 0.0
C8 C 0.33005 0.02786 0.97337 0.0
C9 C 0.21823 0.11859 0.00763 0.0
O10 O 0.07965 0.89202 0.95266 0.0
O11 O 0.98336 0.80505 0.99077 0.0
O12 O 0.98678 0.9299 0.84311 0.0
O13 O 0.07282 0.07399 0.86094 0.0
O14 O 0.87698 0.82777 0.02764 0.0
O15 O 0.87733 0.90396 0.89652 0.0
O16 O 0.98349 0.08474 0.95826 0.0
O17 O 0.08117 0.15079 0.02146 0.0
O18 O 0.0751 0.95468 0.11905 0.0
O19 O 0.98937 0.96898 0.11295 0.0
C20 C 0.03229 0.80826 0.96753 0.0
O21 O 0.18431 0.09277 0.93188 0.0
O22 O 0.18768 0.10745 0.07472 0.0
C23 C 1.03184 0.00611 0.80907 0.0
C24 C 0.80015 0.87591 0.98287 0.0
C25 C 0.71486 0.93481 0.01819 0.0
C26 C 0.70569 0.88077 0.94202 0.0
C27 C 0.74783 0.8516 0.92476 0.0
C28 C 0.80956 0.92929 0.05929 0.0
C29 C 0.76723 0.95797 0.077 0.0
C30 C 0.84509 0.84838 0.96032 0.0
C31 C 0.03294 0.15939 0.98964 0.0
H32 H 0.3903 0.13781 0.17407 0.0
H33 H 0.30146 0.16326 0.152 0.0
H34 H 0.24846 0.0152 0.90096 0.0
H35 H 0.33809 -0.00729 0.92127 0.0
H36 H 0.6666 0.86297 0.89428 0.0
H37 H 0.73994 0.81121 0.86498 0.0
H38 H 0.84978 0.94947 0.10496 0.0
H39 H 0.7756 -0.0018 0.13698 0.0
H40 H 0.95079 0.91281 0.27871 0.0
H41 H 0.13999 0.0275 0.26368 0.0
H42 H 0.15874 0.05358 0.42689 0.0
H43 H 0.95956 0.07502 0.44238 0.0
H44 H 0.90021 0.98143 0.50308 0.0
H45 H 0.90067 0.97138 0.38431 0.0
H46 H 0.89483 0.79587 0.41713 0.0
H47 H 0.89391 0.80504 0.53594 0.0
H48 H 0.94933 0.77924 0.4984 0.0
H49 H 0.15843 0.07829 0.58722 0.0
H50 H 0.1384 0.0805 0.74296 0.0
H51 H 0.94895 0.93707 0.66117 0.0
C52 C 0.99605 0.94289 0.31012 0.0
C53 C 0.04398 0.96833 0.25862 0.0
C54 C 0.10258 0.00689 0.30192 0.0
C55 C 0.11376 0.02254 0.3945 0.0
C56 C 0.06578 -0.00231 0.44322 0.0
C57 C 1.00799 0.95699 0.40331 0.0
C58 C 0.96465 0.93409 0.47266 0.0
C59 C 0.92919 -0.00592 0.44918 0.0
C60 C 0.92324 0.82188 0.48155 0.0
C61 C 1.00733 0.9695 0.55731 0.0
C62 C 0.06543 0.00713 0.53804 0.0
C63 C 0.11315 0.04814 0.60354 0.0
C64 C 0.10129 0.04963 0.69166 0.0
C65 C 0.04216 0.00885 0.71397 0.0
C66 C 0.99454 0.96812 0.64588 0.0
H67 H 0.39313 0.91156 0.00514 0.0
H68 H 0.4821 0.20705 0.10885 0.0
H69 H 0.57819 0.20324 0.11749 0.0
H70 H 0.48689 0.81363 0.13884 0.0
H71 H 0.48646 0.7437 0.04871 0.0
H72 H 0.42405 0.76747 0.05444 0.0
H73 H 0.43461 0.84745 0.89126 0.0
H74 H 0.49711 0.82412 0.88511 0.0
H75 H 0.50463 0.94859 0.86416 0.0
H76 H 0.66549 0.17124 0.10843 0.0
H77 H 0.73744 0.1123 0.08405 0.0
H78 H 0.59232 0.83663 0.98784 0.0
C79 C 0.43276 0.97554 0.02969 0.0
C80 C 0.42963 0.05931 0.05703 0.0
C81 C 0.48281 0.14107 0.08925 0.0
C82 C 0.53783 0.13999 0.09381 0.0
C83 C 0.53928 0.05665 0.06593 0.0
C84 C 0.48818 0.97578 0.03469 0.0
C85 C 0.50229 0.89635 0.00716 0.0
C86 C 0.4732 0.79957 0.06581 0.0
C87 C 0.48355 0.87809 0.90591 0.0
C88 C 0.56931 0.94562 0.02718 0.0
C89 C 0.58969 0.03798 0.06112 0.0
C90 C 0.64999 0.09854 0.08275 0.0
C91 C 0.69057 0.06395 0.06923 0.0
C92 C 0.6709 0.96929 0.03459 0.0
C93 C 0.60918 0.90959 0.01373 0.0
H94 H 0.9541 0.61149 0.01294 0.0
H95 H 0.12078 0.79581 0.89685 0.0
H96 H 0.13503 0.64913 0.88668 0.0
H97 H 1.0019 0.44758 0.14713 0.0
H98 H 0.93329 0.33611 0.12807 0.0
H99 H 0.93269 0.45488 0.12299 0.0
H100 H 0.87823 0.42471 0.96127 0.0
H101 H 0.87837 0.30551 0.96617 0.0
H102 H 0.90983 0.39577 0.87504 0.0
H103 H 0.13818 0.49111 0.90028 0.0
H104 H 0.12494 0.31941 0.92551 0.0
H105 H 0.95411 0.22717 0.02402 0.0
C106 C 0.9931 0.62052 0.98435 0.0
C107 C 0.03641 0.71583 0.95647 0.0
C108 C 0.08701 0.72437 0.91969 0.0
C109 C 0.09566 0.64124 0.91322 0.0
C110 C 0.05316 0.54924 0.94285 0.0
C111 C 1.00247 0.53734 0.97668 0.0
C112 C 0.96487 0.42876 0.00507 0.0
C113 C 0.95779 0.41613 0.10686 0.0
C114 C 0.90423 0.38618 0.94848 0.0
C115 C 1.00312 0.3829 0.98291 0.0
C116 C 0.05394 0.45467 0.94762 0.0
C117 C 0.09826 0.43366 0.92668 0.0
C118 C 0.09053 0.33622 0.94181 0.0
C119 C 0.03858 0.26071 0.97638 0.0
C120 C 0.99391 0.28383 -0.00347 0.0
loop_
_geom_bond_atom_site_label_1
_geom_bond_atom_site_label_2
_geom_bond_distance
_geom_bond_site_symmetry_2
_ccdc_geom_bond_type
Tb0 C9 2.764 . S
Tb0 O10 2.325 1_545 S
Tb0 O13 2.303 1_554 S
Tb0 O17 2.322 . S
Tb0 O18 2.349 . S
Tb0 O21 2.415 1_554 S
Tb0 O22 2.399 . S
Tb1 O11 2.322 . S
Tb1 O12 2.349 . S
Tb1 O14 2.415 1_556 S
Tb1 O15 2.399 . S
Tb1 O16 2.325 1_565 S
Tb1 O19 2.303 1_556 S
Tb1 C30 2.764 . S
C2 O18 1.261 . S
C2 O19 1.257 1_445 S
C3 C6 1.358 . S
C3 C7 1.332 1_544 S
C3 C9 1.504 . S
C4 C5 1.373 1_566 S
C4 C8 1.308 . S
C5 C4 1.373 1_544 S
C5 C6 1.429 . S
C5 H32 0.932 . S
C6 C3 1.358 . S
C6 C5 1.429 . S
C6 H33 0.930 . S
C7 C3 1.332 1_566 S
C7 C8 1.394 . S
C7 H34 0.932 . S
C8 C4 1.308 . S
C8 C7 1.394 . S
C8 H35 0.929 . S
C9 Tb0 2.764 . S
C9 C3 1.504 . S
C9 O21 1.239 1_554 S
C9 O22 1.263 . S
O10 Tb0 2.325 1_565 S
O10 C20 1.232 1_455 S
O11 Tb1 2.322 . S
O11 C20 1.266 1_556 S
O12 Tb1 2.349 . S
O12 C23 1.261 . S
O13 Tb0 2.303 1_556 S
O13 C23 1.257 1_445 S
O14 Tb1 2.415 1_554 S
O14 C30 1.239 1_554 S
O15 Tb1 2.399 . S
O15 C30 1.263 . S
O16 Tb1 2.325 1_545 S
O16 C31 1.229 1_655 S
O17 Tb0 2.322 . S
O17 C31 1.271 1_554 S
O18 Tb0 2.349 . S
O18 C2 1.261 . S
O19 Tb1 2.303 1_554 S
O19 C2 1.257 1_665 S
C20 O10 1.232 1_655 S
C20 O11 1.266 1_554 S
O21 Tb0 2.415 1_556 S
O21 C9 1.239 1_556 S
O22 Tb0 2.399 . S
O22 C9 1.263 . S
C23 O12 1.261 . S
C23 O13 1.257 1_665 S
C24 C27 1.358 . S
C24 C28 1.332 1_566 S
C24 C30 1.504 . S
C25 C26 1.373 1_544 S
C25 C29 1.308 . S
C26 C25 1.373 1_566 S
C26 C27 1.429 . S
C26 H36 0.932 . S
C27 C24 1.358 . S
C27 C26 1.429 . S
C27 H37 0.930 . S
C28 C24 1.332 1_544 S
C28 C29 1.394 . S
C28 H38 0.932 . S
C29 C25 1.308 . S
C29 C28 1.394 . S
C29 H39 0.929 . S
C30 Tb1 2.764 . S
C30 O14 1.239 1_556 S
C30 O15 1.263 . S
C30 C24 1.504 . S
C31 O16 1.229 1_455 S
C31 O17 1.271 1_556 S
H32 C5 0.932 . S
H33 C6 0.930 . S
H34 C7 0.932 . S
H35 C8 0.929 . S
H36 C26 0.932 . S
H37 C27 0.930 . S
H38 C28 0.932 . S
H39 C29 0.929 . S
H40 C52 0.930 . S
H41 C54 0.930 . S
H42 C55 0.930 . S
H43 C59 0.959 . S
H44 C59 0.959 . S
H45 C59 0.961 . S
H46 C60 0.960 . S
H47 C60 0.961 . S
H48 C60 0.959 1_455 S
H49 C63 0.929 . S
H50 C64 0.931 . S
H51 C66 0.930 . S
C52 H40 0.930 . S
C52 C53 1.399 1_665 S
C52 C57 1.399 . S
C53 C52 1.399 1_445 S
C53 C54 1.376 . S
C54 H41 0.930 . S
C54 C53 1.376 . S
C54 C55 1.388 . S
C55 H42 0.930 . S
C55 C54 1.388 . S
C55 C56 1.390 . S
C56 C55 1.390 . S
C56 C57 1.394 1_445 S
C56 C62 1.465 . S
C57 C52 1.399 . S
C57 C56 1.394 1_665 S
C57 C58 1.516 . S
C58 C57 1.516 . S
C58 C59 1.502 . S
C58 C60 1.561 . S
C58 C61 1.526 . S
C59 H43 0.959 . S
C59 H44 0.959 . S
C59 H45 0.961 . S
C59 C58 1.502 . S
C60 H46 0.960 . S
C60 H47 0.961 . S
C60 H48 0.959 1_655 S
C60 C58 1.561 . S
C61 C58 1.526 . S
C61 C62 1.396 1_665 S
C61 C66 1.390 . S
C62 C56 1.465 . S
C62 C61 1.396 1_445 S
C62 C63 1.399 . S
C63 H49 0.929 . S
C63 C62 1.399 . S
C63 C64 1.385 . S
C64 H50 0.931 . S
C64 C63 1.385 . S
C64 C65 1.389 . S
C65 C64 1.389 . S
C65 C66 1.387 1_445 S
C66 H51 0.930 . S
C66 C61 1.390 . S
C66 C65 1.387 1_665 S
H67 C79 0.930 . S
H68 C81 0.930 . S
H69 C82 0.930 . S
H70 C86 0.959 . S
H71 C86 0.959 . S
H72 C86 0.961 . S
H73 C87 0.960 . S
H74 C87 0.961 . S
H75 C87 0.959 . S
H76 C90 0.929 . S
H77 C91 0.931 . S
H78 C93 0.930 . S
C79 H67 0.930 . S
C79 C80 1.399 1_565 S
C79 C84 1.399 . S
C80 C79 1.399 1_545 S
C80 C81 1.376 1_556 S
C81 H68 0.930 . S
C81 C80 1.376 1_554 S
C81 C82 1.388 . S
C82 H69 0.930 . S
C82 C81 1.388 . S
C82 C83 1.391 . S
C83 C82 1.391 . S
C83 C84 1.393 1_544 S
C83 C89 1.465 . S
C84 C79 1.399 . S
C84 C83 1.393 1_566 S
C84 C85 1.516 . S
C85 C84 1.516 . S
C85 C86 1.502 1_556 S
C85 C87 1.561 . S
C85 C88 1.526 . S
C86 H70 0.959 . S
C86 H71 0.959 . S
C86 H72 0.961 . S
C86 C85 1.502 1_554 S
C87 H73 0.960 . S
C87 H74 0.961 . S
C87 H75 0.959 . S
C87 C85 1.561 . S
C88 C85 1.526 . S
C88 C89 1.396 1_566 S
C88 C93 1.390 . S
C89 C83 1.465 . S
C89 C88 1.396 1_544 S
C89 C90 1.399 . S
C90 H76 0.929 . S
C90 C89 1.399 . S
C90 C91 1.385 . S
C91 H77 0.931 . S
C91 C90 1.385 . S
C91 C92 1.389 . S
C92 C91 1.389 . S
C92 C93 1.387 1_544 S
C93 H78 0.930 . S
C93 C88 1.390 . S
C93 C92 1.387 1_566 S
H94 C106 0.930 . S
H95 C108 0.930 . S
H96 C109 0.930 . S
H97 C113 0.959 . S
H98 C113 0.959 . S
H99 C113 0.961 . S
H100 C114 0.960 . S
H101 C114 0.961 . S
H102 C114 0.959 . S
H103 C117 0.929 . S
H104 C118 0.931 . S
H105 C120 0.930 . S
C106 H94 0.930 . S
C106 C107 1.399 1_454 S
C106 C111 1.399 1_455 S
C107 C106 1.399 1_656 S
C107 C108 1.376 . S
C108 H95 0.930 . S
C108 C107 1.376 . S
C108 C109 1.388 . S
C109 H96 0.930 . S
C109 C108 1.388 . S
C109 C110 1.390 . S
C110 C109 1.390 . S
C110 C111 1.394 1_556 S
C110 C116 1.465 . S
C111 C106 1.399 1_655 S
C111 C110 1.394 1_554 S
C111 C112 1.523 . S
C112 C111 1.523 . S
C112 C113 1.489 1_655 S
C112 C114 1.578 . S
C112 C115 1.517 . S
C113 H97 0.959 . S
C113 H98 0.959 . S
C113 H99 0.961 . S
C113 C112 1.489 1_455 S
C114 H100 0.960 . S
C114 H101 0.961 . S
C114 H102 0.959 . S
C114 C112 1.578 . S
C115 C112 1.517 . S
C115 C116 1.396 1_554 S
C115 C120 1.390 1_655 S
C116 C110 1.465 . S
C116 C115 1.396 1_556 S
C116 C117 1.399 . S
C117 H103 0.929 . S
C117 C116 1.399 . S
C117 C118 1.385 . S
C118 H104 0.931 . S
C118 C117 1.385 . S
C118 C119 1.389 . S
C119 C118 1.389 . S
C119 C120 1.387 1_656 S
C120 H105 0.930 . S
C120 C115 1.390 1_455 S
C120 C119 1.387 1_454 S
C53 C2 1.434 . S
C65 C23 1.477 1_445 S
C80 C4 1.495 1_545 S
C92 C25 1.489 . S
C107 C20 1.492 1_556 S
C119 C31 1.475 1_655 S
