# Generated by pormake.
# Topology npo, (4)-cn, num edge types: 1
# Building blocks:
#     Node 0, Type 0, BuildingBlock: QUQFOY_clean_sbu_1, # of connection points: 4
#     Node 1, Type 0, BuildingBlock: QUQFOY_clean_sbu_1, # of connection points: 4
#     Node 2, Type 0, BuildingBlock: QUQFOY_clean_sbu_1, # of connection points: 4
#     Node 3, Type 0, BuildingBlock: QUQFOY_clean_sbu_1, # of connection points: 4
#     Node 4, Type 0, BuildingBlock: QUQFOY_clean_sbu_1, # of connection points: 4
#     Node 5, Type 0, BuildingBlock: QUQFOY_clean_sbu_1, # of connection points: 4
#     Edge 6, Type (0, 0), BuildingBlock: OJICUG_clean_linker_0, # of connection points: 2
#     Edge 7, Type (0, 0), BuildingBlock: OJICUG_clean_linker_0, # of connection points: 2
#     Edge 8, Type (0, 0), BuildingBlock: OJICUG_clean_linker_0, # of connection points: 2
#     Edge 9, Type (0, 0), BuildingBlock: OJICUG_clean_linker_0, # of connection points: 2
#     Edge 10, Type (0, 0), BuildingBlock: OJICUG_clean_linker_0, # of connection points: 2
#     Edge 11, Type (0, 0), BuildingBlock: OJICUG_clean_linker_0, # of connection points: 2
#     Edge 12, Type (0, 0), BuildingBlock: OJICUG_clean_linker_0, # of connection points: 2
#     Edge 13, Type (0, 0), BuildingBlock: OJICUG_clean_linker_0, # of connection points: 2
#     Edge 14, Type (0, 0), BuildingBlock: OJICUG_clean_linker_0, # of connection points: 2
#     Edge 15, Type (0, 0), BuildingBlock: OJICUG_clean_linker_0, # of connection points: 2
#     Edge 16, Type (0, 0), BuildingBlock: OJICUG_clean_linker_0, # of connection points: 2
#     Edge 17, Type (0, 0), BuildingBlock: OJICUG_clean_linker_0, # of connection points: 2
# Relax obj value: 0.257
# Max RMSD: 0.247
# Mean RMSD: 0.247
data_MOF--net-npo--node1-QUQFOY_clean_sbu_1--edge1-OJICUG_clean_linker_0
_symmetry_space_group_name_H-M    P1
_symmetry_Int_Tables_number       1
_symmetry_cell_setting            triclinic
loop_
_symmetry_equiv_pos_as_xyz
'x, y, z'
_cell_length_a     34.571806
_cell_length_b     34.788855
_cell_length_c     18.676416
_cell_angle_alpha  89.969695
_cell_angle_beta   89.966674
_cell_angle_gamma 119.71601
loop_
_atom_site_label
_atom_site_type_symbol
_atom_site_fract_x
_atom_site_fract_y
_atom_site_fract_z
_atom_type_partial_charge
O0 O 0.57253 0.12378 0.37471 0.0
Cd1 Cd 0.50435 0.08854 0.38759 0.0
Cd2 Cd 0.50458 0.08882 0.24363 0.0
O3 O 0.57273 0.12396 0.25673 0.0
O4 O 0.49441 0.06883 0.48935 0.0
O5 O 0.47122 0.02241 0.39777 0.0
C6 C 0.47428 0.02865 0.46623 0.0
C7 C 0.47447 0.0289 0.16524 0.0
C8 C 0.5937 0.13541 0.31579 0.0
C9 C 0.46223 0.13576 0.31567 0.0
O10 O 0.47184 0.12431 0.25666 0.0
O11 O 0.47157 0.12399 0.37463 0.0
O12 O 0.49469 0.06907 0.14194 0.0
O13 O 0.47136 0.0227 0.23373 0.0
O14 O 0.4053 0.59258 0.87595 0.0
Cd15 Cd 0.37262 0.52483 0.88888 0.0
Cd16 Cd 0.37279 0.5249 0.74511 0.0
O17 O 0.40558 0.59264 0.75796 0.0
O18 O 0.38224 0.51462 0.99062 0.0
O19 O 0.40545 0.49105 0.89898 0.0
C20 C 0.40214 0.49405 0.96745 0.0
C21 C 0.40222 0.494 0.66657 0.0
C22 C 0.41477 0.61355 0.81695 0.0
C23 C 0.28354 0.48412 0.81689 0.0
O24 O 0.30467 0.4933 0.75795 0.0
O25 O 0.30451 0.49312 0.87592 0.0
O26 O 0.38249 0.51474 0.64338 0.0
O27 O 0.40544 0.49093 0.73504 0.0
O28 O 0.76868 0.31807 0.25782 0.0
Cd29 Cd 0.80354 0.38585 0.24522 0.0
Cd30 Cd 0.80337 0.38546 0.38902 0.0
O31 O 0.76862 0.31773 0.37581 0.0
O32 O 0.82333 0.39622 0.14344 0.0
O33 O 0.87007 0.41974 0.23498 0.0
C34 C 0.86376 0.41684 0.16652 0.0
C35 C 0.86364 0.41635 0.46743 0.0
C36 C 0.7571 0.29696 0.31669 0.0
C37 C 0.75497 0.42643 0.31746 0.0
O38 O 0.7668 0.4171 0.37636 0.0
O39 O 0.76706 0.41754 0.2584 0.0
O40 O 0.82322 0.39554 0.49071 0.0
O41 O 0.86989 0.41945 0.39894 0.0
O42 O 0.40319 0.78677 0.75746 0.0
Cd43 Cd 0.37039 0.82219 0.74426 0.0
Cd44 Cd 0.37024 0.82223 0.88822 0.0
O45 O 0.40298 0.78673 0.87544 0.0
O46 O 0.38037 0.84188 0.64249 0.0
O47 O 0.40351 0.88831 0.73405 0.0
C48 C 0.40047 0.88206 0.66559 0.0
C49 C 0.40033 0.88217 0.96658 0.0
C50 C 0.41257 0.77514 0.81653 0.0
C51 C 0.28108 0.77546 0.81617 0.0
O52 O 0.30208 0.78707 0.87519 0.0
O53 O 0.30222 0.78696 0.7572 0.0
O54 O 0.3801 0.84201 0.98989 0.0
O55 O 0.40346 0.88837 0.89809 0.0
O56 O 0.46916 0.31812 0.37562 0.0
Cd57 Cd 0.50197 0.38583 0.3889 0.0
Cd58 Cd 0.50232 0.38629 0.24513 0.0
O59 O 0.46963 0.31851 0.25764 0.0
O60 O 0.49211 0.39582 0.49063 0.0
O61 O 0.46934 0.41981 0.39899 0.0
C62 C 0.47245 0.41663 0.46746 0.0
C63 C 0.4729 0.41719 0.16657 0.0
C64 C 0.46006 0.29737 0.31649 0.0
C65 C 0.5913 0.42679 0.31739 0.0
O66 O 0.57041 0.41798 0.25831 0.0
O67 O 0.5701 0.41743 0.37627 0.0
O68 O 0.49286 0.39667 0.1434 0.0
O69 O 0.46948 0.42007 0.23504 0.0
O70 O 0.10784 0.49353 0.87551 0.0
Cd71 Cd 0.07133 0.52521 0.88835 0.0
Cd72 Cd 0.07139 0.52519 0.74455 0.0
O73 O 0.10795 0.49357 0.75755 0.0
O74 O 0.05154 0.51504 0.99013 0.0
O75 O 0.0048 0.4913 0.8986 0.0
C76 C 0.01111 0.49434 0.96705 0.0
C77 C 0.01112 0.49417 0.66615 0.0
C78 C 0.11986 0.48444 0.81656 0.0
C79 C 0.1177 0.6139 0.81628 0.0
O80 O 0.10617 0.59295 0.75732 0.0
O81 O 0.10614 0.59296 0.87531 0.0
O82 O 0.05154 0.51491 0.64287 0.0
O83 O 0.00486 0.4912 0.73463 0.0
C84 C 0.44435 0.18795 0.38067 0.0
C85 C 0.44771 0.16932 0.31579 0.0
H86 H 0.44471 0.24306 0.43189 0.0
C87 C 0.44473 0.18837 0.25108 0.0
H88 H 0.4458 0.17374 0.43153 0.0
C89 C 0.44408 0.22821 0.25129 0.0
C90 C 0.44642 0.24972 0.3162 0.0
H91 H 0.44649 0.1745 0.20009 0.0
H92 H 0.44541 0.24381 0.20044 0.0
C93 C 0.44369 0.22779 0.38087 0.0
C94 C 0.21378 0.46793 0.75196 0.0
C95 C 0.23562 0.47057 0.81681 0.0
H96 H 0.15925 0.46945 0.70091 0.0
C97 C 0.21361 0.46782 0.88156 0.0
H98 H 0.22945 0.46928 0.70106 0.0
C99 C 0.17325 0.46792 0.88148 0.0
C100 C 0.15417 0.47077 0.81663 0.0
H101 H 0.22915 0.46909 0.93253 0.0
H102 H 0.15893 0.46926 0.93238 0.0
C103 C 0.17342 0.46802 0.75188 0.0
C104 C 0.66359 0.18755 0.38086 0.0
C105 C 0.64172 0.16889 0.31597 0.0
H106 H 0.71813 0.24268 0.43212 0.0
C107 C 0.66381 0.18791 0.25128 0.0
H108 H 0.6479 0.17337 0.43171 0.0
C109 C 0.7042 0.22774 0.25151 0.0
C110 C 0.72323 0.24929 0.31643 0.0
H111 H 0.64827 0.17401 0.20027 0.0
H112 H 0.71851 0.24332 0.20066 0.0
C113 C 0.70399 0.22738 0.38109 0.0
C114 C 0.4304 0.72279 0.75195 0.0
C115 C 0.42709 0.74159 0.81668 0.0
H116 H 0.42999 0.66755 0.70115 0.0
C117 C 0.43014 0.72272 0.88153 0.0
H118 H 0.42889 0.73686 0.70098 0.0
C119 C 0.4308 0.68289 0.88164 0.0
C120 C 0.42841 0.6612 0.81689 0.0
H121 H 0.42843 0.73673 0.93242 0.0
H122 H 0.42954 0.66743 0.93261 0.0
C123 C 0.43106 0.68296 0.75205 0.0
C124 C 0.66098 0.44274 0.38237 0.0
C125 C 0.63923 0.44033 0.31753 0.0
H126 H 0.71544 0.44103 0.43331 0.0
C127 C 0.66131 0.4433 0.25277 0.0
H128 H 0.64524 0.44122 0.43327 0.0
C129 C 0.70167 0.4432 0.25279 0.0
C130 C 0.72066 0.44011 0.31757 0.0
H131 H 0.64585 0.44221 0.20182 0.0
H132 H 0.71605 0.44203 0.20185 0.0
C133 C 0.70133 0.44264 0.38239 0.0
C134 C 0.21102 0.72316 0.88095 0.0
C135 C 0.23306 0.74198 0.81616 0.0
H136 H 0.15636 0.66789 0.93193 0.0
C137 C 0.21115 0.72313 0.75137 0.0
H138 H 0.22659 0.73721 0.93188 0.0
C139 C 0.17076 0.68329 0.7514 0.0
C140 C 0.15156 0.66157 0.81621 0.0
H141 H 0.22681 0.73716 0.70043 0.0
H142 H 0.15658 0.66784 0.70047 0.0
C143 C 0.17063 0.68331 0.88098 0.0
C144 C 0.41545 0.91211 0.09156 0.0
C145 C 0.4193 0.91978 1.01725 0.0
H146 H 0.42982 0.94048 0.1966 0.0
C147 C 0.44143 -0.03641 0.99211 0.0
H148 H 0.39859 0.87872 0.11271 0.0
C149 C 0.45933 -0.00103 1.04025 0.0
C150 C 0.45548 -0.0087 0.11456 0.0
H151 H 0.44496 -0.0294 0.93522 0.0
H152 H 0.47619 0.03236 1.0191 0.0
C153 C 0.43335 0.9475 0.13971 0.0
C154 C 0.45834 0.43257 0.59253 0.0
C155 C 0.45435 0.43636 0.51825 0.0
H156 H 0.44508 0.4478 0.69765 0.0
C157 C 0.43314 0.45928 0.49324 0.0
H158 H 0.47453 0.41512 0.61357 0.0
C159 C 0.41629 0.47803 0.5415 0.0
C160 C 0.42029 0.47424 0.61578 0.0
H161 H 0.42956 0.4628 0.43637 0.0
H162 H 0.40011 0.49548 0.52045 0.0
C163 C 0.44149 0.45132 0.64079 0.0
C164 C -0.01885 0.47817 0.0922 0.0
C165 C -0.02666 0.47458 1.01794 0.0
H166 H -0.04726 0.46275 0.19739 0.0
C167 C 0.92925 0.45183 0.99304 0.0
H168 H 0.01476 0.49548 0.11316 0.0
C169 C 0.89372 0.43305 1.04138 0.0
C170 C 0.90153 0.43663 0.11565 0.0
H171 H 0.92213 0.44846 0.93619 0.0
H172 H 0.86011 0.41573 1.02043 0.0
C173 C -0.05438 0.45939 0.14054 0.0
C174 C 0.43343 0.94725 0.49214 0.0
C175 C 0.45538 -0.00892 0.51708 0.0
H176 H 0.39889 0.87849 0.51948 0.0
C177 C 0.45914 -0.0012 0.59135 0.0
H178 H 0.42997 0.9402 0.43529 0.0
C179 C 0.44133 -0.03655 0.63967 0.0
C180 C 0.41938 0.91962 0.61474 0.0
H181 H 0.47586 0.03221 0.61234 0.0
H182 H 0.44478 -0.02949 0.69652 0.0
C183 C 0.41562 0.9119 0.54046 0.0
C184 C 0.41613 0.478 0.09253 0.0
C185 C 0.42036 0.47443 1.01824 0.0
H186 H 0.42935 0.46273 0.19765 0.0
C187 C 0.44195 0.45188 0.99325 0.0
H188 H 0.39965 0.49516 0.11356 0.0
C189 C 0.45895 0.43328 1.0415 0.0
C190 C 0.45471 0.43684 0.11579 0.0
H191 H 0.44573 0.44854 0.93638 0.0
H192 H 0.47542 0.41611 1.02047 0.0
C193 C 0.43313 0.4594 0.14079 0.0
C194 C -0.01893 0.47797 0.54116 0.0
C195 C -0.02668 0.4743 0.61546 0.0
H196 H -0.04742 0.46254 0.43611 0.0
C197 C 0.92926 0.45137 0.64058 0.0
H198 H 0.01466 0.49542 0.52003 0.0
C199 C 0.89369 0.43251 0.59242 0.0
C200 C 0.90144 0.43618 0.51812 0.0
H201 H 0.92218 0.44794 0.69747 0.0
H202 H 0.8601 0.41506 0.61355 0.0
C203 C -0.0545 0.4591 0.493 0.0
loop_
_geom_bond_atom_site_label_1
_geom_bond_atom_site_label_2
_geom_bond_distance
_geom_bond_site_symmetry_2
_ccdc_geom_bond_type
O0 Cd1 2.223 . S
O0 C8 1.315 . S
Cd1 O0 2.223 . S
Cd1 O4 2.297 . S
Cd1 O5 2.439 . S
Cd1 O11 2.240 . S
Cd2 O3 2.240 . S
Cd2 O10 2.223 . S
Cd2 O12 2.297 . S
Cd2 O13 2.439 . S
O3 Cd2 2.240 . S
O3 C8 1.279 . S
O4 Cd1 2.297 . S
O4 C6 1.247 . S
O5 Cd1 2.439 . S
O5 C6 1.208 . S
C6 O4 1.247 . S
C6 O5 1.208 . S
C7 O12 1.247 . S
C7 O13 1.208 . S
C8 O0 1.315 . S
C8 O3 1.279 . S
C9 O10 1.315 . S
C9 O11 1.279 . S
O10 Cd2 2.223 . S
O10 C9 1.315 . S
O11 Cd1 2.240 . S
O11 C9 1.279 . S
O12 Cd2 2.297 . S
O12 C7 1.247 . S
O13 Cd2 2.439 . S
O13 C7 1.208 . S
O14 Cd15 2.223 . S
O14 C22 1.315 . S
Cd15 O14 2.223 . S
Cd15 O18 2.297 . S
Cd15 O19 2.439 . S
Cd15 O25 2.240 . S
Cd16 O17 2.240 . S
Cd16 O24 2.223 . S
Cd16 O26 2.297 . S
Cd16 O27 2.439 . S
O17 Cd16 2.240 . S
O17 C22 1.279 . S
O18 Cd15 2.297 . S
O18 C20 1.247 . S
O19 Cd15 2.439 . S
O19 C20 1.208 . S
C20 O18 1.247 . S
C20 O19 1.208 . S
C21 O26 1.247 . S
C21 O27 1.208 . S
C22 O14 1.315 . S
C22 O17 1.279 . S
C23 O24 1.315 . S
C23 O25 1.279 . S
O24 Cd16 2.223 . S
O24 C23 1.315 . S
O25 Cd15 2.240 . S
O25 C23 1.279 . S
O26 Cd16 2.297 . S
O26 C21 1.247 . S
O27 Cd16 2.439 . S
O27 C21 1.208 . S
O28 Cd29 2.223 . S
O28 C36 1.315 . S
Cd29 O28 2.223 . S
Cd29 O32 2.297 . S
Cd29 O33 2.439 . S
Cd29 O39 2.240 . S
Cd30 O31 2.240 . S
Cd30 O38 2.223 . S
Cd30 O40 2.297 . S
Cd30 O41 2.439 . S
O31 Cd30 2.240 . S
O31 C36 1.279 . S
O32 Cd29 2.297 . S
O32 C34 1.247 . S
O33 Cd29 2.439 . S
O33 C34 1.208 . S
C34 O32 1.247 . S
C34 O33 1.208 . S
C35 O40 1.247 . S
C35 O41 1.208 . S
C36 O28 1.315 . S
C36 O31 1.279 . S
C37 O38 1.315 . S
C37 O39 1.279 . S
O38 Cd30 2.223 . S
O38 C37 1.315 . S
O39 Cd29 2.240 . S
O39 C37 1.279 . S
O40 Cd30 2.297 . S
O40 C35 1.247 . S
O41 Cd30 2.439 . S
O41 C35 1.208 . S
O42 Cd43 2.223 . S
O42 C50 1.315 . S
Cd43 O42 2.223 . S
Cd43 O46 2.297 . S
Cd43 O47 2.439 . S
Cd43 O53 2.240 . S
Cd44 O45 2.240 . S
Cd44 O52 2.223 . S
Cd44 O54 2.297 . S
Cd44 O55 2.439 . S
O45 Cd44 2.240 . S
O45 C50 1.279 . S
O46 Cd43 2.297 . S
O46 C48 1.247 . S
O47 Cd43 2.439 . S
O47 C48 1.208 . S
C48 O46 1.247 . S
C48 O47 1.208 . S
C49 O54 1.247 . S
C49 O55 1.208 . S
C50 O42 1.315 . S
C50 O45 1.279 . S
C51 O52 1.315 . S
C51 O53 1.279 . S
O52 Cd44 2.223 . S
O52 C51 1.315 . S
O53 Cd43 2.240 . S
O53 C51 1.279 . S
O54 Cd44 2.297 . S
O54 C49 1.247 . S
O55 Cd44 2.439 . S
O55 C49 1.208 . S
O56 Cd57 2.223 . S
O56 C64 1.315 . S
Cd57 O56 2.223 . S
Cd57 O60 2.297 . S
Cd57 O61 2.439 . S
Cd57 O67 2.240 . S
Cd58 O59 2.240 . S
Cd58 O66 2.223 . S
Cd58 O68 2.297 . S
Cd58 O69 2.439 . S
O59 Cd58 2.240 . S
O59 C64 1.279 . S
O60 Cd57 2.297 . S
O60 C62 1.247 . S
O61 Cd57 2.439 . S
O61 C62 1.208 . S
C62 O60 1.247 . S
C62 O61 1.208 . S
C63 O68 1.247 . S
C63 O69 1.208 . S
C64 O56 1.315 . S
C64 O59 1.279 . S
C65 O66 1.315 . S
C65 O67 1.279 . S
O66 Cd58 2.223 . S
O66 C65 1.315 . S
O67 Cd57 2.240 . S
O67 C65 1.279 . S
O68 Cd58 2.297 . S
O68 C63 1.247 . S
O69 Cd58 2.439 . S
O69 C63 1.208 . S
O70 Cd71 2.223 . S
O70 C78 1.315 . S
Cd71 O70 2.223 . S
Cd71 O74 2.297 . S
Cd71 O75 2.439 . S
Cd71 O81 2.240 . S
Cd72 O73 2.240 . S
Cd72 O80 2.223 . S
Cd72 O82 2.297 . S
Cd72 O83 2.439 . S
O73 Cd72 2.240 . S
O73 C78 1.279 . S
O74 Cd71 2.297 . S
O74 C76 1.247 . S
O75 Cd71 2.439 . S
O75 C76 1.208 . S
C76 O74 1.247 . S
C76 O75 1.208 . S
C77 O82 1.247 . S
C77 O83 1.208 . S
C78 O70 1.315 . S
C78 O73 1.279 . S
C79 O80 1.315 . S
C79 O81 1.279 . S
O80 Cd72 2.223 . S
O80 C79 1.315 . S
O81 Cd71 2.240 . S
O81 C79 1.279 . S
O82 Cd72 2.297 . S
O82 C77 1.247 . S
O83 Cd72 2.439 . S
O83 C77 1.208 . S
C84 C85 1.387 . S
C84 H88 0.950 . S
C84 C93 1.390 . S
C85 C84 1.387 . S
C85 C87 1.387 . S
H86 C93 0.950 . S
C87 C85 1.387 . S
C87 C89 1.390 . S
C87 H91 0.950 . S
H88 C84 0.950 . S
C89 C87 1.390 . S
C89 C90 1.387 . S
C89 H92 0.950 . S
C90 C89 1.387 . S
C90 C93 1.387 . S
H91 C87 0.950 . S
H92 C89 0.950 . S
C93 C84 1.390 . S
C93 H86 0.950 . S
C93 C90 1.387 . S
C94 C95 1.387 . S
C94 H98 0.950 . S
C94 C103 1.390 . S
C95 C94 1.387 . S
C95 C97 1.387 . S
H96 C103 0.950 . S
C97 C95 1.387 . S
C97 C99 1.390 . S
C97 H101 0.950 . S
H98 C94 0.950 . S
C99 C97 1.390 . S
C99 C100 1.387 . S
C99 H102 0.950 . S
C100 C99 1.387 . S
C100 C103 1.387 . S
H101 C97 0.950 . S
H102 C99 0.950 . S
C103 C94 1.390 . S
C103 H96 0.950 . S
C103 C100 1.387 . S
C104 C105 1.387 . S
C104 H108 0.950 . S
C104 C113 1.390 . S
C105 C104 1.387 . S
C105 C107 1.387 . S
H106 C113 0.950 . S
C107 C105 1.387 . S
C107 C109 1.390 . S
C107 H111 0.950 . S
H108 C104 0.950 . S
C109 C107 1.390 . S
C109 C110 1.387 . S
C109 H112 0.950 . S
C110 C109 1.387 . S
C110 C113 1.387 . S
H111 C107 0.950 . S
H112 C109 0.950 . S
C113 C104 1.390 . S
C113 H106 0.950 . S
C113 C110 1.387 . S
C114 C115 1.387 . S
C114 H118 0.950 . S
C114 C123 1.390 . S
C115 C114 1.387 . S
C115 C117 1.387 . S
H116 C123 0.950 . S
C117 C115 1.387 . S
C117 C119 1.390 . S
C117 H121 0.950 . S
H118 C114 0.950 . S
C119 C117 1.390 . S
C119 C120 1.387 . S
C119 H122 0.950 . S
C120 C119 1.387 . S
C120 C123 1.387 . S
H121 C117 0.950 . S
H122 C119 0.950 . S
C123 C114 1.390 . S
C123 H116 0.950 . S
C123 C120 1.387 . S
C124 C125 1.387 . S
C124 H128 0.950 . S
C124 C133 1.390 . S
C125 C124 1.387 . S
C125 C127 1.387 . S
H126 C133 0.950 . S
C127 C125 1.387 . S
C127 C129 1.390 . S
C127 H131 0.950 . S
H128 C124 0.950 . S
C129 C127 1.390 . S
C129 C130 1.387 . S
C129 H132 0.950 . S
C130 C129 1.387 . S
C130 C133 1.387 . S
H131 C127 0.950 . S
H132 C129 0.950 . S
C133 C124 1.390 . S
C133 H126 0.950 . S
C133 C130 1.387 . S
C134 C135 1.387 . S
C134 H138 0.950 . S
C134 C143 1.390 . S
C135 C134 1.387 . S
C135 C137 1.387 . S
H136 C143 0.950 . S
C137 C135 1.387 . S
C137 C139 1.390 . S
C137 H141 0.950 . S
H138 C134 0.950 . S
C139 C137 1.390 . S
C139 C140 1.387 . S
C139 H142 0.950 . S
C140 C139 1.387 . S
C140 C143 1.387 . S
H141 C137 0.950 . S
H142 C139 0.950 . S
C143 C134 1.390 . S
C143 H136 0.950 . S
C143 C140 1.387 . S
C144 C145 1.387 . S
C144 H148 0.950 . S
C144 C153 1.390 1_566 S
C145 C144 1.387 . S
C145 C147 1.387 . S
H146 C153 0.950 . S
C147 C145 1.387 . S
C147 C149 1.390 1_566 S
C147 H151 0.950 . S
H148 C144 0.950 . S
C149 C147 1.390 1_544 S
C149 C150 1.387 . S
C149 H152 0.950 . S
C150 C149 1.387 . S
C150 C153 1.387 . S
H151 C147 0.950 . S
H152 C149 0.950 . S
C153 C144 1.390 1_544 S
C153 H146 0.950 . S
C153 C150 1.387 . S
C154 C155 1.387 . S
C154 H158 0.950 . S
C154 C163 1.390 . S
C155 C154 1.387 . S
C155 C157 1.387 . S
H156 C163 0.950 . S
C157 C155 1.387 . S
C157 C159 1.390 . S
C157 H161 0.950 . S
H158 C154 0.950 . S
C159 C157 1.390 . S
C159 C160 1.387 . S
C159 H162 0.950 . S
C160 C159 1.387 . S
C160 C163 1.387 . S
H161 C157 0.950 . S
H162 C159 0.950 . S
C163 C154 1.390 . S
C163 H156 0.950 . S
C163 C160 1.387 . S
C164 C165 1.387 . S
C164 H168 0.950 . S
C164 C173 1.390 1_556 S
C165 C164 1.387 . S
C165 C167 1.387 1_455 S
H166 C173 0.950 . S
C167 C165 1.387 1_655 S
C167 C169 1.390 1_556 S
C167 H171 0.950 . S
H168 C164 0.950 . S
C169 C167 1.390 1_554 S
C169 C170 1.387 . S
C169 H172 0.950 . S
C170 C169 1.387 . S
C170 C173 1.387 1_655 S
H171 C167 0.950 . S
H172 C169 0.950 . S
C173 C164 1.390 1_554 S
C173 H166 0.950 . S
C173 C170 1.387 1_455 S
C174 C175 1.387 . S
C174 H178 0.950 . S
C174 C183 1.390 1_545 S
C175 C174 1.387 . S
C175 C177 1.387 . S
H176 C183 0.950 . S
C177 C175 1.387 . S
C177 C179 1.390 1_545 S
C177 H181 0.950 . S
H178 C174 0.950 . S
C179 C177 1.390 1_565 S
C179 C180 1.387 . S
C179 H182 0.950 . S
C180 C179 1.387 . S
C180 C183 1.387 . S
H181 C177 0.950 . S
H182 C179 0.950 . S
C183 C174 1.390 1_565 S
C183 H176 0.950 . S
C183 C180 1.387 . S
C184 C185 1.387 . S
C184 H188 0.950 . S
C184 C193 1.390 1_556 S
C185 C184 1.387 . S
C185 C187 1.387 . S
H186 C193 0.950 . S
C187 C185 1.387 . S
C187 C189 1.390 1_556 S
C187 H191 0.950 . S
H188 C184 0.950 . S
C189 C187 1.390 1_554 S
C189 C190 1.387 . S
C189 H192 0.950 . S
C190 C189 1.387 . S
C190 C193 1.387 . S
H191 C187 0.950 . S
H192 C189 0.950 . S
C193 C184 1.390 1_554 S
C193 H186 0.950 . S
C193 C190 1.387 . S
C194 C195 1.387 . S
C194 H198 0.950 . S
C194 C203 1.390 . S
C195 C194 1.387 . S
C195 C197 1.387 1_455 S
H196 C203 0.950 . S
C197 C195 1.387 1_655 S
C197 C199 1.390 . S
C197 H201 0.950 . S
H198 C194 0.950 . S
C199 C197 1.390 . S
C199 C200 1.387 . S
C199 H202 0.950 . S
C200 C199 1.387 . S
C200 C203 1.387 1_655 S
H201 C197 0.950 . S
H202 C199 0.950 . S
C203 C194 1.390 . S
C203 H196 0.950 . S
C203 C200 1.387 1_455 S
C85 C9 1.490 . S
C90 C64 1.488 . S
C95 C23 1.488 . S
C100 C78 1.488 . S
C105 C8 1.488 . S
C110 C36 1.490 . S
C115 C50 1.488 . S
C120 C22 1.490 . S
C125 C65 1.488 . S
C130 C37 1.488 . S
C135 C51 1.488 . S
C140 C79 1.490 . S
C145 C49 1.463 . S
C150 C7 1.463 . S
C155 C62 1.463 . S
C160 C21 1.462 . S
C165 C76 1.463 . S
C170 C34 1.461 . S
C175 C6 1.463 . S
C180 C48 1.463 . S
C185 C20 1.461 . S
C190 C63 1.460 . S
C195 C77 1.463 . S
C200 C35 1.461 . S
