# Generated by pormake.
# Topology gsi, (4)-cn, num edge types: 1
# Building blocks:
#     Node 0, Type 0, BuildingBlock: NAHDIM_clean_sbu_0, # of connection points: 4
#     Node 1, Type 0, BuildingBlock: NAHDIM_clean_sbu_0, # of connection points: 4
#     Node 2, Type 0, BuildingBlock: NAHDIM_clean_sbu_0, # of connection points: 4
#     Node 3, Type 0, BuildingBlock: NAHDIM_clean_sbu_0, # of connection points: 4
#     Node 4, Type 0, BuildingBlock: NAHDIM_clean_sbu_0, # of connection points: 4
#     Node 5, Type 0, BuildingBlock: NAHDIM_clean_sbu_0, # of connection points: 4
#     Node 6, Type 0, BuildingBlock: NAHDIM_clean_sbu_0, # of connection points: 4
#     Node 7, Type 0, BuildingBlock: NAHDIM_clean_sbu_0, # of connection points: 4
#     Node 8, Type 0, BuildingBlock: NAHDIM_clean_sbu_0, # of connection points: 4
#     Node 9, Type 0, BuildingBlock: NAHDIM_clean_sbu_0, # of connection points: 4
#     Node 10, Type 0, BuildingBlock: NAHDIM_clean_sbu_0, # of connection points: 4
#     Node 11, Type 0, BuildingBlock: NAHDIM_clean_sbu_0, # of connection points: 4
#     Node 12, Type 0, BuildingBlock: NAHDIM_clean_sbu_0, # of connection points: 4
#     Node 13, Type 0, BuildingBlock: NAHDIM_clean_sbu_0, # of connection points: 4
#     Node 14, Type 0, BuildingBlock: NAHDIM_clean_sbu_0, # of connection points: 4
#     Node 15, Type 0, BuildingBlock: NAHDIM_clean_sbu_0, # of connection points: 4
#     Edge 16, Type (0, 0), None
#     Edge 17, Type (0, 0), None
#     Edge 18, Type (0, 0), None
#     Edge 19, Type (0, 0), None
#     Edge 20, Type (0, 0), None
#     Edge 21, Type (0, 0), None
#     Edge 22, Type (0, 0), None
#     Edge 23, Type (0, 0), None
#     Edge 24, Type (0, 0), None
#     Edge 25, Type (0, 0), None
#     Edge 26, Type (0, 0), None
#     Edge 27, Type (0, 0), None
#     Edge 28, Type (0, 0), None
#     Edge 29, Type (0, 0), None
#     Edge 30, Type (0, 0), None
#     Edge 31, Type (0, 0), None
#     Edge 32, Type (0, 0), None
#     Edge 33, Type (0, 0), None
#     Edge 34, Type (0, 0), None
#     Edge 35, Type (0, 0), None
#     Edge 36, Type (0, 0), None
#     Edge 37, Type (0, 0), None
#     Edge 38, Type (0, 0), None
#     Edge 39, Type (0, 0), None
#     Edge 40, Type (0, 0), None
#     Edge 41, Type (0, 0), None
#     Edge 42, Type (0, 0), None
#     Edge 43, Type (0, 0), None
#     Edge 44, Type (0, 0), None
#     Edge 45, Type (0, 0), None
#     Edge 46, Type (0, 0), None
#     Edge 47, Type (0, 0), None
# Relax obj value: 0.040
# Max RMSD: 0.066
# Mean RMSD: 0.054
data_MOF--net-gsi--node1-NAHDIM_clean_sbu_0--edge1-none
_symmetry_space_group_name_H-M    P1
_symmetry_Int_Tables_number       1
_symmetry_cell_setting            triclinic
loop_
_symmetry_equiv_pos_as_xyz
'x, y, z'
_cell_length_a     18.330822
_cell_length_b     19.44488
_cell_length_c     20.195106
_cell_angle_alpha  90.006375
_cell_angle_beta   90.001226
_cell_angle_gamma 95.644117
loop_
_atom_site_label
_atom_site_type_symbol
_atom_site_fract_x
_atom_site_fract_y
_atom_site_fract_z
_atom_type_partial_charge
C0 C 0.05066 0.24267 0.08885 0.0
O1 O 0.11013 0.28623 0.08805 0.0
O2 O 0.21228 0.14348 0.03059 0.0
Zn3 Zn 0.15459 0.14492 0.1149 0.0
O4 O 0.21061 0.20987 0.17822 0.0
C5 C 0.17793 0.03425 0.20518 0.0
O6 O 0.22666 0.08068 0.23082 0.0
O7 O 0.05599 0.17869 0.09775 0.0
C8 C 0.18043 0.23697 0.22703 0.0
O9 O 0.10973 0.22352 0.23722 0.0
C10 C 0.27605 0.12306 0.03036 0.0
O11 O 0.30396 0.10124 0.08548 0.0
O12 O 0.14088 0.04942 0.15498 0.0
C13 C 0.97833 0.26858 0.08886 0.0
O14 O 0.91886 0.22502 0.08808 0.0
O15 O 0.81671 0.36781 0.0306 0.0
Zn16 Zn 0.87442 0.36636 0.11491 0.0
O17 O 0.8184 0.30143 0.17822 0.0
C18 C 0.85109 0.47705 0.20518 0.0
O19 O 0.80233 0.43063 0.2308 0.0
O20 O 0.97301 0.33257 0.09775 0.0
C21 C 0.84858 0.27435 0.22704 0.0
O22 O 0.91928 0.28781 0.23724 0.0
C23 C 0.75292 0.38817 0.0304 0.0
O24 O 0.72499 0.40993 0.08554 0.0
O25 O 0.88816 0.46186 0.155 0.0
C26 C 0.16623 0.96545 0.23494 0.0
O27 O 0.12032 0.91737 0.20795 0.0
O28 O 0.07792 0.82933 0.33794 0.0
Zn29 Zn 0.186 0.85824 0.32866 0.0
O30 O 0.23232 0.79166 0.26944 0.0
C31 C 0.21079 0.88685 0.46874 0.0
O32 O 0.14699 0.91212 0.46663 0.0
O33 O 0.20049 0.95225 0.28734 0.0
C34 C 0.2982 0.77917 0.2792 0.0
O35 O 0.33584 0.8097 0.32809 0.0
C36 C 0.05407 0.76587 0.34122 0.0
O37 O 0.1005 0.71857 0.34038 0.0
O38 O 0.23646 0.86117 0.41699 0.0
C39 C 0.8628 0.54585 0.23495 0.0
O40 O 0.90874 0.59391 0.20798 0.0
O41 O 0.95109 0.68199 0.33795 0.0
Zn42 Zn 0.84301 0.65308 0.32867 0.0
O43 O 0.79669 0.71966 0.26945 0.0
C44 C 0.81819 0.62441 0.46871 0.0
O45 O 0.88195 0.59907 0.46658 0.0
O46 O 0.82852 0.55907 0.28734 0.0
C47 C 0.73082 0.73217 0.27921 0.0
O48 O 0.69318 0.70167 0.32811 0.0
C49 C 0.97494 0.74545 0.34122 0.0
O50 O 0.92852 0.79276 0.34035 0.0
O51 O 0.79255 0.65015 0.41699 0.0
C52 C 0.47834 0.76859 0.58886 0.0
O53 O 0.41887 0.72503 0.58808 0.0
O54 O 0.31672 0.86781 0.5306 0.0
Zn55 Zn 0.37443 0.86637 0.61491 0.0
O56 O 0.3184 0.80143 0.67822 0.0
C57 C 0.35109 0.97705 0.70517 0.0
O58 O 0.30233 0.93064 0.73079 0.0
O59 O 0.47301 0.83258 0.59774 0.0
C60 C 0.34858 0.77435 0.72704 0.0
O61 O 0.41928 0.78782 0.73724 0.0
C62 C 0.25293 0.88818 0.53039 0.0
O63 O 0.225 0.90993 0.58554 0.0
O64 O 0.38816 0.96186 0.65499 0.0
C65 C 0.85559 0.95841 0.73201 0.0
O66 O 0.80633 0.915 0.70297 0.0
O67 O 0.81466 0.85449 0.91533 0.0
Zn68 Zn 0.86369 0.84519 0.82606 0.0
O69 O 0.79459 0.78707 0.7667 0.0
C70 C 0.98317 0.77652 0.88827 0.0
O71 O 0.95568 0.79534 0.94468 0.0
O72 O 0.88746 0.94016 0.7843 0.0
C73 C 0.72528 0.78171 0.77249 0.0
O74 O 0.69438 0.81579 0.81919 0.0
C75 C 0.79063 0.80018 0.94659 0.0
O76 O 0.79941 0.73934 0.92125 0.0
O77 O 0.95517 0.79408 0.83393 0.0
C78 C 0.17343 0.55292 0.73201 0.0
O79 O 0.22275 0.5963 0.70302 0.0
O80 O 0.21435 0.65685 0.91532 0.0
Zn81 Zn 0.16532 0.66617 0.82605 0.0
O82 O 0.23443 0.72426 0.76671 0.0
C83 C 0.04586 0.73486 0.88827 0.0
O84 O 0.07335 0.71605 0.94468 0.0
O85 O 0.14152 0.57119 0.78428 0.0
C86 C 0.30374 0.72963 0.7725 0.0
O87 O 0.33464 0.69558 0.81921 0.0
C88 C 0.23838 0.71115 0.94661 0.0
O89 O 0.22961 0.772 0.92129 0.0
O90 O 0.07385 0.71729 0.83393 0.0
C91 C 0.77514 0.20667 0.51078 0.0
O92 O 0.78943 0.2627 0.54656 0.0
O93 O 0.95346 0.18012 0.61047 0.0
Zn94 Zn 0.846 0.14582 0.62036 0.0
O95 O 0.79865 0.20695 0.68471 0.0
C96 C 0.87104 0.02872 0.70556 0.0
O97 O 0.91996 0.07272 0.73432 0.0
O98 O 0.79411 0.1494 0.53183 0.0
C99 C 0.83283 0.23232 0.73516 0.0
O100 O 0.90028 0.21828 0.74654 0.0
C101 C 0.97523 0.2442 0.6068 0.0
O102 O 0.9273 0.29006 0.60819 0.0
O103 O 0.83486 0.04792 0.65623 0.0
C104 C 0.25387 0.30465 0.51076 0.0
O105 O 0.23958 0.24861 0.54651 0.0
O106 O 0.07556 0.33119 0.61047 0.0
Zn107 Zn 0.18302 0.36549 0.62036 0.0
O108 O 0.23038 0.30436 0.6847 0.0
C109 C 0.15797 0.48262 0.70555 0.0
O110 O 0.10899 0.43864 0.73427 0.0
O111 O 0.23491 0.36192 0.53183 0.0
C112 C 0.19621 0.27903 0.73516 0.0
O113 O 0.12877 0.29311 0.74656 0.0
C114 C 0.0538 0.26711 0.6068 0.0
O115 O 0.10173 0.22126 0.6082 0.0
O116 O 0.19418 0.46339 0.65624 0.0
C117 C 0.67343 0.05291 0.23202 0.0
O118 O 0.72275 0.09629 0.20302 0.0
O119 O 0.71435 0.15685 0.41533 0.0
Zn120 Zn 0.66532 0.16616 0.32606 0.0
O121 O 0.73442 0.22426 0.26671 0.0
C122 C 0.54585 0.23486 0.38827 0.0
O123 O 0.57335 0.21606 0.44468 0.0
O124 O 0.64152 0.07119 0.28429 0.0
C125 C 0.80374 0.22963 0.27251 0.0
O126 O 0.83464 0.19557 0.31922 0.0
C127 C 0.73838 0.21114 0.44661 0.0
O128 O 0.72961 0.272 0.42129 0.0
O129 O 0.57385 0.21728 0.33393 0.0
C130 C 0.55067 0.74268 0.58885 0.0
O131 O 0.61014 0.78624 0.58805 0.0
O132 O 0.71229 0.64348 0.53059 0.0
Zn133 Zn 0.65459 0.64492 0.61491 0.0
O134 O 0.71061 0.70988 0.67822 0.0
C135 C 0.67793 0.53426 0.70518 0.0
O136 O 0.72666 0.58069 0.73083 0.0
O137 O 0.55599 0.67869 0.59776 0.0
C138 C 0.68043 0.73698 0.72703 0.0
O139 O 0.60973 0.72353 0.73722 0.0
C140 C 0.77606 0.62307 0.53037 0.0
O141 O 0.80397 0.60126 0.58549 0.0
O142 O 0.64088 0.54943 0.65499 0.0
C143 C 0.66623 0.46545 0.73495 0.0
O144 O 0.62032 0.41738 0.70796 0.0
O145 O 0.57792 0.32934 0.83794 0.0
Zn146 Zn 0.686 0.35825 0.82867 0.0
O147 O 0.73232 0.29166 0.76944 0.0
C148 C 0.71079 0.38685 0.96874 0.0
O149 O 0.64699 0.41211 0.96663 0.0
O150 O 0.70049 0.45225 0.78735 0.0
C151 C 0.7982 0.27918 0.7792 0.0
O152 O 0.83585 0.30971 0.82809 0.0
C153 C 0.55407 0.26587 0.84122 0.0
O154 O 0.60049 0.21857 0.84038 0.0
O155 O 0.73646 0.36118 0.917 0.0
C156 C 0.36279 0.04586 0.73495 0.0
O157 O 0.40873 0.09392 0.70798 0.0
O158 O 0.45109 0.18199 0.83795 0.0
Zn159 Zn 0.34301 0.15308 0.82867 0.0
O160 O 0.29669 0.21966 0.76944 0.0
C161 C 0.31818 0.12439 0.96871 0.0
O162 O 0.38194 0.09905 0.96656 0.0
O163 O 0.32851 0.05908 0.78733 0.0
C164 C 0.23082 0.23218 0.77921 0.0
O165 O 0.19318 0.20168 0.82811 0.0
C166 C 0.47494 0.24546 0.84122 0.0
O167 O 0.42852 0.29276 0.84035 0.0
O168 O 0.29255 0.15015 0.91699 0.0
C169 C 0.35559 0.45841 0.232 0.0
O170 O 0.30632 0.415 0.20296 0.0
O171 O 0.31466 0.35448 0.41532 0.0
Zn172 Zn 0.36369 0.34518 0.32605 0.0
O173 O 0.29459 0.28707 0.2667 0.0
C174 C 0.48317 0.27652 0.38827 0.0
O175 O 0.45568 0.29534 0.44468 0.0
O176 O 0.38746 0.44016 0.28429 0.0
C177 C 0.22527 0.28171 0.27249 0.0
O178 O 0.19438 0.31578 0.31919 0.0
C179 C 0.29063 0.30018 0.44659 0.0
O180 O 0.29941 0.23934 0.42125 0.0
O181 O 0.45516 0.29407 0.33393 0.0
C182 C 0.27514 0.70666 0.01078 0.0
O183 O 0.28943 0.7627 0.04656 0.0
O184 O 0.45346 0.68011 0.11047 0.0
Zn185 Zn 0.346 0.64581 0.12036 0.0
O186 O 0.29865 0.70695 0.18471 0.0
C187 C 0.37104 0.52871 0.20555 0.0
O188 O 0.41996 0.57271 0.23431 0.0
O189 O 0.29412 0.6494 0.03183 0.0
C190 C 0.33283 0.73231 0.23516 0.0
O191 O 0.40028 0.71827 0.24654 0.0
C192 C 0.47523 0.74419 0.1068 0.0
O193 O 0.4273 0.79005 0.10819 0.0
O194 O 0.33486 0.54792 0.15622 0.0
C195 C 0.75387 0.80465 0.01076 0.0
O196 O 0.73958 0.7486 0.04651 0.0
O197 O 0.57557 0.83119 0.11047 0.0
Zn198 Zn 0.68302 0.86549 0.12037 0.0
O199 O 0.73038 0.80436 0.1847 0.0
C200 C 0.65797 0.98261 0.20555 0.0
O201 O 0.609 0.93863 0.23428 0.0
O202 O 0.73491 0.86191 0.03183 0.0
C203 C 0.69621 0.77902 0.23517 0.0
O204 O 0.62877 0.7931 0.24656 0.0
C205 C 0.5538 0.76711 0.1068 0.0
O206 O 0.60173 0.72125 0.1082 0.0
O207 O 0.69418 0.96339 0.15625 0.0
loop_
_geom_bond_atom_site_label_1
_geom_bond_atom_site_label_2
_geom_bond_distance
_geom_bond_site_symmetry_2
_ccdc_geom_bond_type
C0 O1 1.160 . S
C0 O7 1.185 . S
O1 C0 1.160 . S
O2 Zn3 1.899 . S
O2 C10 1.284 . S
Zn3 O2 1.899 . S
Zn3 O4 2.032 . S
Zn3 O7 2.086 . S
Zn3 O12 1.977 . S
O4 Zn3 2.032 . S
O4 C8 1.278 . S
C5 O6 1.203 . S
C5 O12 1.267 . S
O6 C5 1.203 . S
O7 C0 1.185 . S
O7 Zn3 2.086 . S
C8 O4 1.278 . S
C8 O9 1.211 . S
O9 C8 1.211 . S
C10 O2 1.284 . S
C10 O11 1.273 . S
O11 C10 1.273 . S
O12 Zn3 1.977 . S
O12 C5 1.267 . S
C13 O14 1.160 . S
C13 O20 1.185 . S
O14 C13 1.160 . S
O15 Zn16 1.899 . S
O15 C23 1.284 . S
Zn16 O15 1.899 . S
Zn16 O17 2.032 . S
Zn16 O20 2.086 . S
Zn16 O25 1.977 . S
O17 Zn16 2.032 . S
O17 C21 1.278 . S
C18 O19 1.203 . S
C18 O25 1.267 . S
O19 C18 1.203 . S
O20 C13 1.185 . S
O20 Zn16 2.086 . S
C21 O17 1.278 . S
C21 O22 1.211 . S
O22 C21 1.211 . S
C23 O15 1.284 . S
C23 O24 1.273 . S
O24 C23 1.273 . S
O25 Zn16 1.977 . S
O25 C18 1.267 . S
C26 O27 1.160 . S
C26 O33 1.185 . S
O27 C26 1.160 . S
O28 Zn29 1.899 . S
O28 C36 1.284 . S
Zn29 O28 1.899 . S
Zn29 O30 2.032 . S
Zn29 O33 2.086 . S
Zn29 O38 1.977 . S
O30 Zn29 2.032 . S
O30 C34 1.278 . S
C31 O32 1.203 . S
C31 O38 1.267 . S
O32 C31 1.203 . S
O33 C26 1.185 . S
O33 Zn29 2.086 . S
C34 O30 1.278 . S
C34 O35 1.211 . S
O35 C34 1.211 . S
C36 O28 1.284 . S
C36 O37 1.273 . S
O37 C36 1.273 . S
O38 Zn29 1.977 . S
O38 C31 1.267 . S
C39 O40 1.160 . S
C39 O46 1.185 . S
O40 C39 1.160 . S
O41 Zn42 1.899 . S
O41 C49 1.284 . S
Zn42 O41 1.899 . S
Zn42 O43 2.032 . S
Zn42 O46 2.086 . S
Zn42 O51 1.977 . S
O43 Zn42 2.032 . S
O43 C47 1.278 . S
C44 O45 1.203 . S
C44 O51 1.267 . S
O45 C44 1.203 . S
O46 C39 1.185 . S
O46 Zn42 2.086 . S
C47 O43 1.278 . S
C47 O48 1.211 . S
O48 C47 1.211 . S
C49 O41 1.284 . S
C49 O50 1.273 . S
O50 C49 1.273 . S
O51 Zn42 1.977 . S
O51 C44 1.267 . S
C52 O53 1.160 . S
C52 O59 1.185 . S
O53 C52 1.160 . S
O54 Zn55 1.899 . S
O54 C62 1.284 . S
Zn55 O54 1.899 . S
Zn55 O56 2.032 . S
Zn55 O59 2.086 . S
Zn55 O64 1.977 . S
O56 Zn55 2.032 . S
O56 C60 1.278 . S
C57 O58 1.203 . S
C57 O64 1.267 . S
O58 C57 1.203 . S
O59 C52 1.185 . S
O59 Zn55 2.086 . S
C60 O56 1.278 . S
C60 O61 1.211 . S
O61 C60 1.211 . S
C62 O54 1.284 . S
C62 O63 1.273 . S
O63 C62 1.273 . S
O64 Zn55 1.977 . S
O64 C57 1.267 . S
C65 O66 1.160 . S
C65 O72 1.185 . S
O66 C65 1.160 . S
O67 Zn68 1.899 . S
O67 C75 1.284 . S
Zn68 O67 1.899 . S
Zn68 O69 2.032 . S
Zn68 O72 2.086 . S
Zn68 O77 1.977 . S
O69 Zn68 2.032 . S
O69 C73 1.278 . S
C70 O71 1.203 . S
C70 O77 1.267 . S
O71 C70 1.203 . S
O72 C65 1.185 . S
O72 Zn68 2.086 . S
C73 O69 1.278 . S
C73 O74 1.211 . S
O74 C73 1.211 . S
C75 O67 1.284 . S
C75 O76 1.273 . S
O76 C75 1.273 . S
O77 Zn68 1.977 . S
O77 C70 1.267 . S
C78 O79 1.160 . S
C78 O85 1.185 . S
O79 C78 1.160 . S
O80 Zn81 1.899 . S
O80 C88 1.284 . S
Zn81 O80 1.899 . S
Zn81 O82 2.032 . S
Zn81 O85 2.086 . S
Zn81 O90 1.977 . S
O82 Zn81 2.032 . S
O82 C86 1.278 . S
C83 O84 1.203 . S
C83 O90 1.267 . S
O84 C83 1.203 . S
O85 C78 1.185 . S
O85 Zn81 2.086 . S
C86 O82 1.278 . S
C86 O87 1.211 . S
O87 C86 1.211 . S
C88 O80 1.284 . S
C88 O89 1.273 . S
O89 C88 1.273 . S
O90 Zn81 1.977 . S
O90 C83 1.267 . S
C91 O92 1.160 . S
C91 O98 1.185 . S
O92 C91 1.160 . S
O93 Zn94 1.899 . S
O93 C101 1.284 . S
Zn94 O93 1.899 . S
Zn94 O95 2.032 . S
Zn94 O98 2.086 . S
Zn94 O103 1.977 . S
O95 Zn94 2.032 . S
O95 C99 1.278 . S
C96 O97 1.203 . S
C96 O103 1.267 . S
O97 C96 1.203 . S
O98 C91 1.185 . S
O98 Zn94 2.086 . S
C99 O95 1.278 . S
C99 O100 1.211 . S
O100 C99 1.211 . S
C101 O93 1.284 . S
C101 O102 1.273 . S
O102 C101 1.273 . S
O103 Zn94 1.977 . S
O103 C96 1.267 . S
C104 O105 1.160 . S
C104 O111 1.185 . S
O105 C104 1.160 . S
O106 Zn107 1.899 . S
O106 C114 1.284 . S
Zn107 O106 1.899 . S
Zn107 O108 2.032 . S
Zn107 O111 2.086 . S
Zn107 O116 1.977 . S
O108 Zn107 2.032 . S
O108 C112 1.278 . S
C109 O110 1.203 . S
C109 O116 1.267 . S
O110 C109 1.203 . S
O111 C104 1.185 . S
O111 Zn107 2.086 . S
C112 O108 1.278 . S
C112 O113 1.211 . S
O113 C112 1.211 . S
C114 O106 1.284 . S
C114 O115 1.273 . S
O115 C114 1.273 . S
O116 Zn107 1.977 . S
O116 C109 1.267 . S
C117 O118 1.160 . S
C117 O124 1.185 . S
O118 C117 1.160 . S
O119 Zn120 1.899 . S
O119 C127 1.284 . S
Zn120 O119 1.899 . S
Zn120 O121 2.032 . S
Zn120 O124 2.086 . S
Zn120 O129 1.977 . S
O121 Zn120 2.032 . S
O121 C125 1.278 . S
C122 O123 1.203 . S
C122 O129 1.267 . S
O123 C122 1.203 . S
O124 C117 1.185 . S
O124 Zn120 2.086 . S
C125 O121 1.278 . S
C125 O126 1.211 . S
O126 C125 1.211 . S
C127 O119 1.284 . S
C127 O128 1.273 . S
O128 C127 1.273 . S
O129 Zn120 1.977 . S
O129 C122 1.267 . S
C130 O131 1.160 . S
C130 O137 1.185 . S
O131 C130 1.160 . S
O132 Zn133 1.899 . S
O132 C140 1.284 . S
Zn133 O132 1.899 . S
Zn133 O134 2.032 . S
Zn133 O137 2.086 . S
Zn133 O142 1.977 . S
O134 Zn133 2.032 . S
O134 C138 1.278 . S
C135 O136 1.203 . S
C135 O142 1.267 . S
O136 C135 1.203 . S
O137 C130 1.185 . S
O137 Zn133 2.086 . S
C138 O134 1.278 . S
C138 O139 1.211 . S
O139 C138 1.211 . S
C140 O132 1.284 . S
C140 O141 1.273 . S
O141 C140 1.273 . S
O142 Zn133 1.977 . S
O142 C135 1.267 . S
C143 O144 1.160 . S
C143 O150 1.185 . S
O144 C143 1.160 . S
O145 Zn146 1.899 . S
O145 C153 1.284 . S
Zn146 O145 1.899 . S
Zn146 O147 2.032 . S
Zn146 O150 2.086 . S
Zn146 O155 1.977 . S
O147 Zn146 2.032 . S
O147 C151 1.278 . S
C148 O149 1.203 . S
C148 O155 1.267 . S
O149 C148 1.203 . S
O150 C143 1.185 . S
O150 Zn146 2.086 . S
C151 O147 1.278 . S
C151 O152 1.211 . S
O152 C151 1.211 . S
C153 O145 1.284 . S
C153 O154 1.273 . S
O154 C153 1.273 . S
O155 Zn146 1.977 . S
O155 C148 1.267 . S
C156 O157 1.160 . S
C156 O163 1.185 . S
O157 C156 1.160 . S
O158 Zn159 1.899 . S
O158 C166 1.284 . S
Zn159 O158 1.899 . S
Zn159 O160 2.032 . S
Zn159 O163 2.086 . S
Zn159 O168 1.977 . S
O160 Zn159 2.032 . S
O160 C164 1.278 . S
C161 O162 1.203 . S
C161 O168 1.267 . S
O162 C161 1.203 . S
O163 C156 1.185 . S
O163 Zn159 2.086 . S
C164 O160 1.278 . S
C164 O165 1.211 . S
O165 C164 1.211 . S
C166 O158 1.284 . S
C166 O167 1.273 . S
O167 C166 1.273 . S
O168 Zn159 1.977 . S
O168 C161 1.267 . S
C169 O170 1.160 . S
C169 O176 1.185 . S
O170 C169 1.160 . S
O171 Zn172 1.899 . S
O171 C179 1.284 . S
Zn172 O171 1.899 . S
Zn172 O173 2.032 . S
Zn172 O176 2.086 . S
Zn172 O181 1.977 . S
O173 Zn172 2.032 . S
O173 C177 1.278 . S
C174 O175 1.203 . S
C174 O181 1.267 . S
O175 C174 1.203 . S
O176 C169 1.185 . S
O176 Zn172 2.086 . S
C177 O173 1.278 . S
C177 O178 1.211 . S
O178 C177 1.211 . S
C179 O171 1.284 . S
C179 O180 1.273 . S
O180 C179 1.273 . S
O181 Zn172 1.977 . S
O181 C174 1.267 . S
C182 O183 1.160 . S
C182 O189 1.185 . S
O183 C182 1.160 . S
O184 Zn185 1.899 . S
O184 C192 1.284 . S
Zn185 O184 1.899 . S
Zn185 O186 2.032 . S
Zn185 O189 2.086 . S
Zn185 O194 1.977 . S
O186 Zn185 2.032 . S
O186 C190 1.278 . S
C187 O188 1.203 . S
C187 O194 1.267 . S
O188 C187 1.203 . S
O189 C182 1.185 . S
O189 Zn185 2.086 . S
C190 O186 1.278 . S
C190 O191 1.211 . S
O191 C190 1.211 . S
C192 O184 1.284 . S
C192 O193 1.273 . S
O193 C192 1.273 . S
O194 Zn185 1.977 . S
O194 C187 1.267 . S
C195 O196 1.160 . S
C195 O202 1.185 . S
O196 C195 1.160 . S
O197 Zn198 1.899 . S
O197 C205 1.284 . S
Zn198 O197 1.899 . S
Zn198 O199 2.032 . S
Zn198 O202 2.086 . S
Zn198 O207 1.977 . S
O199 Zn198 2.032 . S
O199 C203 1.278 . S
C200 O201 1.203 . S
C200 O207 1.267 . S
O201 C200 1.203 . S
O202 C195 1.185 . S
O202 Zn198 2.086 . S
C203 O199 1.278 . S
C203 O204 1.211 . S
O204 C203 1.211 . S
C205 O197 1.284 . S
C205 O206 1.273 . S
O206 C205 1.273 . S
O207 Zn198 1.977 . S
O207 C200 1.267 . S
C8 C177 0.988 . S
C21 C125 0.988 . S
C190 C34 1.136 . S
C47 C203 1.136 . S
C60 C86 0.988 . S
C138 C73 0.988 . S
C151 C99 1.136 . S
C112 C164 1.136 . S
C26 C5 1.702 1_565 S
C18 C39 1.702 . S
C161 C10 1.592 1_556 S
C23 C148 1.592 1_554 S
C62 C31 1.592 . S
C140 C44 1.592 . S
C13 C0 1.442 1_655 S
C49 C36 1.499 1_655 S
C130 C52 1.442 . S
C96 C65 1.594 1_545 S
C78 C109 1.594 . S
C195 C75 1.595 1_554 S
C88 C182 1.595 1_556 S
C127 C91 1.595 . S
C104 C179 1.595 . S
C83 C70 1.543 1_455 S
C114 C101 1.419 1_455 S
C122 C174 1.543 . S
C135 C143 1.702 . S
C156 C57 1.702 1_545 S
C166 C153 1.499 . S
C187 C169 1.594 . S
C117 C200 1.594 1_545 S
C205 C192 1.419 . S
