# Generated by pormake.
# Topology uog, (4)-cn, num edge types: 1
# Building blocks:
#     Node 0, Type 0, BuildingBlock: CEKHIL_clean_sbu_0, # of connection points: 4
#     Node 1, Type 0, BuildingBlock: CEKHIL_clean_sbu_0, # of connection points: 4
#     Node 2, Type 0, BuildingBlock: CEKHIL_clean_sbu_0, # of connection points: 4
#     Node 3, Type 0, BuildingBlock: CEKHIL_clean_sbu_0, # of connection points: 4
#     Node 4, Type 0, BuildingBlock: CEKHIL_clean_sbu_0, # of connection points: 4
#     Node 5, Type 0, BuildingBlock: CEKHIL_clean_sbu_0, # of connection points: 4
#     Edge 6, Type (0, 0), BuildingBlock: OJICUG_clean_linker_0, # of connection points: 2
#     Edge 7, Type (0, 0), BuildingBlock: OJICUG_clean_linker_0, # of connection points: 2
#     Edge 8, Type (0, 0), BuildingBlock: OJICUG_clean_linker_0, # of connection points: 2
#     Edge 9, Type (0, 0), BuildingBlock: OJICUG_clean_linker_0, # of connection points: 2
#     Edge 10, Type (0, 0), BuildingBlock: OJICUG_clean_linker_0, # of connection points: 2
#     Edge 11, Type (0, 0), BuildingBlock: OJICUG_clean_linker_0, # of connection points: 2
#     Edge 12, Type (0, 0), BuildingBlock: OJICUG_clean_linker_0, # of connection points: 2
#     Edge 13, Type (0, 0), BuildingBlock: OJICUG_clean_linker_0, # of connection points: 2
#     Edge 14, Type (0, 0), BuildingBlock: OJICUG_clean_linker_0, # of connection points: 2
#     Edge 15, Type (0, 0), BuildingBlock: OJICUG_clean_linker_0, # of connection points: 2
#     Edge 16, Type (0, 0), BuildingBlock: OJICUG_clean_linker_0, # of connection points: 2
#     Edge 17, Type (0, 0), BuildingBlock: OJICUG_clean_linker_0, # of connection points: 2
# Relax obj value: 0.070
# Max RMSD: 0.166
# Mean RMSD: 0.166
data_MOF--net-uog--node1-CEKHIL_clean_sbu_0--edge1-OJICUG_clean_linker_0
_symmetry_space_group_name_H-M    P1
_symmetry_Int_Tables_number       1
_symmetry_cell_setting            triclinic
loop_
_symmetry_equiv_pos_as_xyz
'x, y, z'
_cell_length_a     20.766463
_cell_length_b     20.781469
_cell_length_c     30.666544
_cell_angle_alpha  89.952323
_cell_angle_beta   90.046219
_cell_angle_gamma 119.99874
loop_
_atom_site_label
_atom_site_type_symbol
_atom_site_fract_x
_atom_site_fract_y
_atom_site_fract_z
_atom_type_partial_charge
Co0 Co 0.59951 0.27369 0.16492 0.0
O1 O 0.62306 0.1958 0.15942 0.0
O2 O 0.51448 0.18286 0.14162 0.0
C3 C 0.64234 0.3033 0.23361 0.0
O4 O 0.56037 0.34792 0.16809 0.0
Co5 Co 0.73367 0.42953 0.17218 0.0
O6 O 0.65932 0.45947 0.18448 0.0
C7 C 0.68867 0.36393 0.08545 0.0
C8 C 0.55678 0.15309 0.14495 0.0
C9 C 0.59006 0.41817 0.17729 0.0
O10 O 0.63523 0.30715 0.10398 0.0
O11 O 0.73867 0.41897 0.10706 0.0
O12 O 0.57562 0.25021 0.22555 0.0
O13 O 0.68514 0.3322 0.19983 0.0
Co14 Co 0.31808 0.60014 0.49166 0.0
O15 O 0.41896 0.62199 0.48563 0.0
O16 O 0.32195 0.51152 0.4734 0.0
C17 C 0.33553 0.65322 0.55767 0.0
O18 O 0.20502 0.56219 0.49641 0.0
Co19 Co 0.29695 0.73449 0.491 0.0
O20 O 0.19381 0.66327 0.50778 0.0
C21 C 0.31317 0.6773 0.40737 0.0
C22 C 0.39423 0.55375 0.47482 0.0
C23 C 0.16526 0.59324 0.50433 0.0
O24 O 0.31715 0.62664 0.42891 0.0
O25 O 0.30914 0.73022 0.42603 0.0
O26 O 0.32086 0.58539 0.55331 0.0
O27 O 0.34813 0.69104 0.52179 0.0
Co28 Co 0.74072 0.3321 0.83225 0.0
O29 O 0.81885 0.43356 0.82728 0.0
O30 O 0.83209 0.33803 0.80989 0.0
C31 C 0.70852 0.34415 0.90038 0.0
O32 O 0.66648 0.21867 0.83495 0.0
Co33 Co 0.58425 0.30966 0.83752 0.0
O34 O 0.55436 0.20554 0.85031 0.0
C35 C 0.65269 0.33122 0.75159 0.0
C36 C 0.86182 0.41006 0.81318 0.0
C37 C 0.59603 0.17786 0.84368 0.0
O38 O 0.70908 0.33494 0.77091 0.0
O39 O 0.59659 0.32528 0.77243 0.0
O40 O 0.76227 0.33113 0.8932 0.0
O41 O 0.68083 0.35852 0.86618 0.0
Co42 Co 0.41287 0.71739 0.15825 0.0
O43 O 0.3912 0.7965 0.15251 0.0
O44 O 0.50165 0.80996 0.14008 0.0
C45 C 0.35987 0.68125 0.22423 0.0
O46 O 0.45048 0.64203 0.16272 0.0
Co47 Co 0.27813 0.56236 0.15711 0.0
O48 O 0.34898 0.52987 0.17383 0.0
C49 C 0.33538 0.63667 0.07375 0.0
C50 C 0.45944 0.84002 0.14163 0.0
C51 C 0.41911 0.57117 0.17051 0.0
O52 O 0.38634 0.69071 0.09547 0.0
O53 O 0.28212 0.57969 0.09222 0.0
O54 O 0.4278 0.73432 0.21989 0.0
O55 O 0.32185 0.65651 0.18837 0.0
Co56 Co 0.68742 0.4126 0.49794 0.0
O57 O 0.586 0.38933 0.49244 0.0
O58 O 0.6818 0.4979 0.47495 0.0
C59 C 0.67469 0.36908 0.56634 0.0
O60 O 0.80072 0.45142 0.50118 0.0
Co61 Co 0.70881 0.27767 0.50503 0.0
O62 O 0.81329 0.35225 0.51715 0.0
C63 C 0.68673 0.32275 0.41852 0.0
C64 C 0.60969 0.45573 0.47818 0.0
C65 C 0.84124 0.42157 0.51023 0.0
O66 O 0.68522 0.37727 0.43687 0.0
O67 O 0.69057 0.27208 0.44018 0.0
O68 O 0.68782 0.43577 0.55881 0.0
O69 O 0.66054 0.32683 0.53235 0.0
Co70 Co 0.29796 0.70141 0.82467 0.0
O71 O 0.21874 0.60068 0.81888 0.0
O72 O 0.20545 0.69769 0.80631 0.0
C73 C 0.33328 0.68401 0.89086 0.0
O74 O 0.37328 0.81436 0.8292 0.0
Co75 Co 0.45319 0.72208 0.82443 0.0
O76 O 0.48558 0.82546 0.84075 0.0
C77 C 0.3795 0.70432 0.74066 0.0
C78 C 0.17525 0.62546 0.80801 0.0
C79 C 0.44412 0.85406 0.83714 0.0
O80 O 0.32521 0.70155 0.76197 0.0
O81 O 0.43622 0.70805 0.75956 0.0
O82 O 0.2805 0.69925 0.88626 0.0
O83 O 0.35848 0.67107 0.85511 0.0
C84 C 0.58435 0.0493 0.1366 0.0
C85 C 0.53182 0.07363 0.13643 0.0
H86 H 0.60322 0.9566 0.13789 0.0
C87 C 0.45631 0.02053 0.13262 0.0
H88 H 0.64326 0.0889 0.13916 0.0
C89 C 0.43363 0.9447 0.13193 0.0
C90 C 0.48591 0.92023 0.13482 0.0
H91 H 0.41458 0.03727 0.13234 0.0
H92 H 0.37459 0.90504 0.13082 0.0
C93 C 0.56168 0.97345 0.13571 0.0
C94 C 0.52478 0.57932 0.46536 0.0
C95 C 0.44797 0.52721 0.46807 0.0
H96 H 0.63636 0.59806 0.46592 0.0
C97 C 0.4253 0.45144 0.46883 0.0
H98 H 0.54427 0.63836 0.46437 0.0
C99 C 0.47839 0.4286 0.46974 0.0
C100 C 0.5553 0.48094 0.46972 0.0
H101 H 0.36686 0.41002 0.47087 0.0
H102 H 0.45896 0.36968 0.47217 0.0
C103 C 0.57785 0.55646 0.46608 0.0
C104 C 0.9658 0.5414 0.8048 0.0
C105 C 0.94131 0.46455 0.80456 0.0
H106 H 0.05873 0.65286 0.80554 0.0
C107 C 0.99424 0.44205 0.80013 0.0
H108 H 0.92632 0.56078 0.80782 0.0
C109 C 0.07013 0.4951 0.79882 0.0
C110 C 0.09483 0.57184 0.8017 0.0
H111 H 0.97738 0.38359 0.79972 0.0
H112 H 0.10971 0.47566 0.79721 0.0
C113 C 0.0417 0.59447 0.80328 0.0
C114 C 0.03988 0.58464 0.50671 0.0
C115 C 0.08245 0.54858 0.50728 0.0
H116 H 0.93144 0.57386 0.50694 0.0
C117 C 0.04472 0.47089 0.50973 0.0
H118 H 0.06667 0.64459 0.50463 0.0
C119 C 0.96683 0.4305 0.51145 0.0
C120 C 0.92422 0.4665 0.51029 0.0
H121 H 0.07523 0.44121 0.51024 0.0
H122 H 0.94004 0.3705 0.51303 0.0
C123 C 0.96197 0.5442 0.50795 0.0
C124 C 0.44217 0.97443 0.84278 0.0
C125 C 0.48224 0.93682 0.84013 0.0
H126 H 0.44622 0.0789 0.84647 0.0
C127 C 0.56089 0.97944 0.83955 0.0
H128 H 0.38195 0.94388 0.84332 0.0
C129 C 0.59827 0.05731 0.84102 0.0
C130 C 0.55818 0.09493 0.84358 0.0
H131 H 0.59413 0.95272 0.83733 0.0
H132 H 0.65847 0.08789 0.83999 0.0
C133 C 0.47954 0.05223 0.84472 0.0
C134 C 0.42721 0.45416 0.17322 0.0
C135 C 0.46353 0.53278 0.17359 0.0
H136 H 0.43764 0.35635 0.17384 0.0
C137 C 0.54127 0.57254 0.17605 0.0
H138 H 0.36721 0.42114 0.17115 0.0
C139 C 0.58146 0.5349 0.178 0.0
C140 C 0.54522 0.45629 0.17706 0.0
H141 H 0.57115 0.63272 0.1764 0.0
H142 H 0.64151 0.56799 0.17957 0.0
C143 C 0.46747 0.41651 0.17468 0.0
C144 C 0.75471 0.41594 0.96863 0.0
C145 C 0.69543 0.35891 0.94526 0.0
H146 H 0.79929 0.46287 0.03123 0.0
C147 C 0.63206 0.30676 0.96767 0.0
H148 H 0.80485 0.45585 0.95181 0.0
C149 C 0.62941 0.30962 0.01318 0.0
C150 C 0.69019 0.36481 0.03703 0.0
H151 H 0.58669 0.26123 0.95033 0.0
H152 H 0.58047 0.26704 0.02969 0.0
C153 C 0.75191 0.41936 0.01407 0.0
C154 C 0.3203 0.61032 0.29323 0.0
C155 C 0.3264 0.6688 0.26764 0.0
H156 H 0.31144 0.56713 0.35751 0.0
C157 C 0.32167 0.72714 0.28759 0.0
H158 H 0.32611 0.56603 0.2786 0.0
C159 C 0.31458 0.7289 0.33286 0.0
C160 C 0.31306 0.67267 0.35903 0.0
H161 H 0.32837 0.77389 0.26837 0.0
H162 H 0.31381 0.77599 0.3474 0.0
C163 C 0.31335 0.612 0.33851 0.0
C164 C 0.59581 0.33227 0.67921 0.0
C165 C 0.65346 0.33217 0.70315 0.0
H166 H 0.55707 0.3423 0.61609 0.0
C167 C 0.71299 0.33327 0.68024 0.0
H168 H 0.54895 0.33085 0.69562 0.0
C169 C 0.71661 0.33818 0.63475 0.0
C170 C 0.66076 0.34178 0.61132 0.0
H171 H 0.75825 0.33269 0.69747 0.0
H172 H 0.76514 0.34361 0.61814 0.0
C173 C 0.59984 0.33768 0.63371 0.0
C174 C 0.40383 0.71219 0.95998 0.0
C175 C 0.34442 0.66165 0.93423 0.0
H176 H 0.44756 0.74402 0.02435 0.0
C177 C 0.28481 0.59916 0.95388 0.0
H178 H 0.4492 0.76181 0.94558 0.0
C179 C 0.28281 0.58911 -0.00094 0.0
C180 C 0.34008 0.64209 0.02544 0.0
H181 H 0.23745 0.56051 0.93452 0.0
H182 H 0.23482 0.54181 0.0134 0.0
C183 C 0.40187 0.70241 0.00518 0.0
C184 C 0.7003 0.3841 0.34584 0.0
C185 C 0.68481 0.32021 0.37019 0.0
H186 H 0.70124 0.42948 0.2826 0.0
C187 C 0.66568 0.25415 0.34788 0.0
H188 H 0.71615 0.43628 0.362 0.0
C189 C 0.65732 0.25073 0.30259 0.0
C190 C 0.66951 0.31359 0.27868 0.0
H191 H 0.65384 0.20421 0.36549 0.0
H192 H 0.63818 0.19793 0.28634 0.0
C193 C 0.69301 0.38085 0.30038 0.0
C194 C 0.4283 0.6986 0.66655 0.0
C195 C 0.3748 0.70308 0.6923 0.0
H196 H 0.45815 0.68127 0.60252 0.0
C197 C 0.31477 0.70422 0.67137 0.0
H198 H 0.47541 0.69815 0.6814 0.0
C199 C 0.30582 0.69595 0.62613 0.0
C200 C 0.35691 0.68692 0.60103 0.0
H201 H 0.27277 0.7084 0.69006 0.0
H202 H 0.25643 0.69151 0.61121 0.0
C203 C 0.41907 0.69007 0.62135 0.0
loop_
_geom_bond_atom_site_label_1
_geom_bond_atom_site_label_2
_geom_bond_distance
_geom_bond_site_symmetry_2
_ccdc_geom_bond_type
Co0 O1 2.216 . S
Co0 O2 2.091 . S
Co0 O4 2.004 . S
Co0 O10 2.021 . S
Co0 O12 2.137 . S
Co0 O13 2.244 . S
O1 Co0 2.216 . S
O1 C8 1.247 . S
O2 Co0 2.091 . S
O2 C8 1.261 . S
C3 O12 1.247 . S
C3 O13 1.272 . S
O4 Co0 2.004 . S
O4 C9 1.259 . S
Co5 O6 2.061 . S
Co5 O11 2.052 . S
Co5 O13 2.135 . S
O6 Co5 2.061 . S
O6 C9 1.235 . S
C7 O10 1.238 . S
C7 O11 1.241 . S
C8 O1 1.247 . S
C8 O2 1.261 . S
C9 O4 1.259 . S
C9 O6 1.235 . S
O10 Co0 2.021 . S
O10 C7 1.238 . S
O11 Co5 2.052 . S
O11 C7 1.241 . S
O12 Co0 2.137 . S
O12 C3 1.247 . S
O13 Co0 2.244 . S
O13 C3 1.272 . S
O13 Co5 2.135 . S
Co14 O15 2.216 . S
Co14 O16 2.091 . S
Co14 O18 2.004 . S
Co14 O24 2.021 . S
Co14 O26 2.137 . S
Co14 O27 2.244 . S
O15 Co14 2.216 . S
O15 C22 1.247 . S
O16 Co14 2.091 . S
O16 C22 1.261 . S
C17 O26 1.247 . S
C17 O27 1.272 . S
O18 Co14 2.004 . S
O18 C23 1.259 . S
Co19 O20 2.061 . S
Co19 O25 2.052 . S
Co19 O27 2.135 . S
O20 Co19 2.061 . S
O20 C23 1.235 . S
C21 O24 1.238 . S
C21 O25 1.241 . S
C22 O15 1.247 . S
C22 O16 1.261 . S
C23 O18 1.259 . S
C23 O20 1.235 . S
O24 Co14 2.021 . S
O24 C21 1.238 . S
O25 Co19 2.052 . S
O25 C21 1.241 . S
O26 Co14 2.137 . S
O26 C17 1.247 . S
O27 Co14 2.244 . S
O27 C17 1.272 . S
O27 Co19 2.135 . S
Co28 O29 2.216 . S
Co28 O30 2.091 . S
Co28 O32 2.004 . S
Co28 O38 2.021 . S
Co28 O40 2.137 . S
Co28 O41 2.244 . S
O29 Co28 2.216 . S
O29 C36 1.247 . S
O30 Co28 2.091 . S
O30 C36 1.261 . S
C31 O40 1.247 . S
C31 O41 1.272 . S
O32 Co28 2.004 . S
O32 C37 1.259 . S
Co33 O34 2.061 . S
Co33 O39 2.052 . S
Co33 O41 2.135 . S
O34 Co33 2.061 . S
O34 C37 1.235 . S
C35 O38 1.238 . S
C35 O39 1.241 . S
C36 O29 1.247 . S
C36 O30 1.261 . S
C37 O32 1.259 . S
C37 O34 1.235 . S
O38 Co28 2.021 . S
O38 C35 1.238 . S
O39 Co33 2.052 . S
O39 C35 1.241 . S
O40 Co28 2.137 . S
O40 C31 1.247 . S
O41 Co28 2.244 . S
O41 C31 1.272 . S
O41 Co33 2.135 . S
Co42 O43 2.216 . S
Co42 O44 2.091 . S
Co42 O46 2.004 . S
Co42 O52 2.021 . S
Co42 O54 2.137 . S
Co42 O55 2.244 . S
O43 Co42 2.216 . S
O43 C50 1.247 . S
O44 Co42 2.091 . S
O44 C50 1.261 . S
C45 O54 1.247 . S
C45 O55 1.272 . S
O46 Co42 2.004 . S
O46 C51 1.259 . S
Co47 O48 2.061 . S
Co47 O53 2.052 . S
Co47 O55 2.135 . S
O48 Co47 2.061 . S
O48 C51 1.235 . S
C49 O52 1.238 . S
C49 O53 1.241 . S
C50 O43 1.247 . S
C50 O44 1.261 . S
C51 O46 1.259 . S
C51 O48 1.235 . S
O52 Co42 2.021 . S
O52 C49 1.238 . S
O53 Co47 2.052 . S
O53 C49 1.241 . S
O54 Co42 2.137 . S
O54 C45 1.247 . S
O55 Co42 2.244 . S
O55 C45 1.272 . S
O55 Co47 2.135 . S
Co56 O57 2.216 . S
Co56 O58 2.091 . S
Co56 O60 2.004 . S
Co56 O66 2.021 . S
Co56 O68 2.137 . S
Co56 O69 2.244 . S
O57 Co56 2.216 . S
O57 C64 1.247 . S
O58 Co56 2.091 . S
O58 C64 1.261 . S
C59 O68 1.247 . S
C59 O69 1.272 . S
O60 Co56 2.004 . S
O60 C65 1.259 . S
Co61 O62 2.061 . S
Co61 O67 2.052 . S
Co61 O69 2.135 . S
O62 Co61 2.061 . S
O62 C65 1.235 . S
C63 O66 1.238 . S
C63 O67 1.241 . S
C64 O57 1.247 . S
C64 O58 1.261 . S
C65 O60 1.259 . S
C65 O62 1.235 . S
O66 Co56 2.021 . S
O66 C63 1.238 . S
O67 Co61 2.052 . S
O67 C63 1.241 . S
O68 Co56 2.137 . S
O68 C59 1.247 . S
O69 Co56 2.244 . S
O69 C59 1.272 . S
O69 Co61 2.135 . S
Co70 O71 2.216 . S
Co70 O72 2.091 . S
Co70 O74 2.004 . S
Co70 O80 2.021 . S
Co70 O82 2.137 . S
Co70 O83 2.244 . S
O71 Co70 2.216 . S
O71 C78 1.247 . S
O72 Co70 2.091 . S
O72 C78 1.261 . S
C73 O82 1.247 . S
C73 O83 1.272 . S
O74 Co70 2.004 . S
O74 C79 1.259 . S
Co75 O76 2.061 . S
Co75 O81 2.052 . S
Co75 O83 2.135 . S
O76 Co75 2.061 . S
O76 C79 1.235 . S
C77 O80 1.238 . S
C77 O81 1.241 . S
C78 O71 1.247 . S
C78 O72 1.261 . S
C79 O74 1.259 . S
C79 O76 1.235 . S
O80 Co70 2.021 . S
O80 C77 1.238 . S
O81 Co75 2.052 . S
O81 C77 1.241 . S
O82 Co70 2.137 . S
O82 C73 1.247 . S
O83 Co70 2.244 . S
O83 C73 1.272 . S
O83 Co75 2.135 . S
C84 C85 1.387 . S
C84 H88 0.950 . S
C84 C93 1.390 1_545 S
C85 C84 1.387 . S
C85 C87 1.387 . S
H86 C93 0.950 . S
C87 C85 1.387 . S
C87 C89 1.390 1_545 S
C87 H91 0.950 . S
H88 C84 0.950 . S
C89 C87 1.390 1_565 S
C89 C90 1.387 . S
C89 H92 0.950 . S
C90 C89 1.387 . S
C90 C93 1.387 . S
H91 C87 0.950 . S
H92 C89 0.950 . S
C93 C84 1.390 1_565 S
C93 H86 0.950 . S
C93 C90 1.387 . S
C94 C95 1.387 . S
C94 H98 0.950 . S
C94 C103 1.390 . S
C95 C94 1.387 . S
C95 C97 1.387 . S
H96 C103 0.950 . S
C97 C95 1.387 . S
C97 C99 1.390 . S
C97 H101 0.950 . S
H98 C94 0.950 . S
C99 C97 1.390 . S
C99 C100 1.387 . S
C99 H102 0.950 . S
C100 C99 1.387 . S
C100 C103 1.387 . S
H101 C97 0.950 . S
H102 C99 0.950 . S
C103 C94 1.390 . S
C103 H96 0.950 . S
C103 C100 1.387 . S
C104 C105 1.387 . S
C104 H108 0.950 . S
C104 C113 1.390 1_655 S
C105 C104 1.387 . S
C105 C107 1.387 . S
H106 C113 0.950 . S
C107 C105 1.387 . S
C107 C109 1.390 1_655 S
C107 H111 0.950 . S
H108 C104 0.950 . S
C109 C107 1.390 1_455 S
C109 C110 1.387 . S
C109 H112 0.950 . S
C110 C109 1.387 . S
C110 C113 1.387 . S
H111 C107 0.950 . S
H112 C109 0.950 . S
C113 C104 1.390 1_455 S
C113 H106 0.950 . S
C113 C110 1.387 . S
C114 C115 1.387 . S
C114 H118 0.950 . S
C114 C123 1.390 1_455 S
C115 C114 1.387 . S
C115 C117 1.387 . S
H116 C123 0.950 . S
C117 C115 1.387 . S
C117 C119 1.390 1_455 S
C117 H121 0.950 . S
H118 C114 0.950 . S
C119 C117 1.390 1_655 S
C119 C120 1.387 . S
C119 H122 0.950 . S
C120 C119 1.387 . S
C120 C123 1.387 . S
H121 C117 0.950 . S
H122 C119 0.950 . S
C123 C114 1.390 1_655 S
C123 H116 0.950 . S
C123 C120 1.387 . S
C124 C125 1.387 . S
C124 H128 0.950 . S
C124 C133 1.390 1_565 S
C125 C124 1.387 . S
C125 C127 1.387 . S
H126 C133 0.950 . S
C127 C125 1.387 . S
C127 C129 1.390 1_565 S
C127 H131 0.950 . S
H128 C124 0.950 . S
C129 C127 1.390 1_545 S
C129 C130 1.387 . S
C129 H132 0.950 . S
C130 C129 1.387 . S
C130 C133 1.387 . S
H131 C127 0.950 . S
H132 C129 0.950 . S
C133 C124 1.390 1_545 S
C133 H126 0.950 . S
C133 C130 1.387 . S
C134 C135 1.387 . S
C134 H138 0.950 . S
C134 C143 1.390 . S
C135 C134 1.387 . S
C135 C137 1.387 . S
H136 C143 0.950 . S
C137 C135 1.387 . S
C137 C139 1.390 . S
C137 H141 0.950 . S
H138 C134 0.950 . S
C139 C137 1.390 . S
C139 C140 1.387 . S
C139 H142 0.950 . S
C140 C139 1.387 . S
C140 C143 1.387 . S
H141 C137 0.950 . S
H142 C139 0.950 . S
C143 C134 1.390 . S
C143 H136 0.950 . S
C143 C140 1.387 . S
C144 C145 1.387 . S
C144 H148 0.950 . S
C144 C153 1.390 1_556 S
C145 C144 1.387 . S
C145 C147 1.387 . S
H146 C153 0.950 . S
C147 C145 1.387 . S
C147 C149 1.390 1_556 S
C147 H151 0.950 . S
H148 C144 0.950 . S
C149 C147 1.390 1_554 S
C149 C150 1.387 . S
C149 H152 0.950 . S
C150 C149 1.387 . S
C150 C153 1.387 . S
H151 C147 0.950 . S
H152 C149 0.950 . S
C153 C144 1.390 1_554 S
C153 H146 0.950 . S
C153 C150 1.387 . S
C154 C155 1.387 . S
C154 H158 0.950 . S
C154 C163 1.390 . S
C155 C154 1.387 . S
C155 C157 1.387 . S
H156 C163 0.950 . S
C157 C155 1.387 . S
C157 C159 1.390 . S
C157 H161 0.950 . S
H158 C154 0.950 . S
C159 C157 1.390 . S
C159 C160 1.387 . S
C159 H162 0.950 . S
C160 C159 1.387 . S
C160 C163 1.387 . S
H161 C157 0.950 . S
H162 C159 0.950 . S
C163 C154 1.390 . S
C163 H156 0.950 . S
C163 C160 1.387 . S
C164 C165 1.387 . S
C164 H168 0.950 . S
C164 C173 1.390 . S
C165 C164 1.387 . S
C165 C167 1.387 . S
H166 C173 0.950 . S
C167 C165 1.387 . S
C167 C169 1.390 . S
C167 H171 0.950 . S
H168 C164 0.950 . S
C169 C167 1.390 . S
C169 C170 1.387 . S
C169 H172 0.950 . S
C170 C169 1.387 . S
C170 C173 1.387 . S
H171 C167 0.950 . S
H172 C169 0.950 . S
C173 C164 1.390 . S
C173 H166 0.950 . S
C173 C170 1.387 . S
C174 C175 1.387 . S
C174 H178 0.950 . S
C174 C183 1.390 1_556 S
C175 C174 1.387 . S
C175 C177 1.387 . S
H176 C183 0.950 . S
C177 C175 1.387 . S
C177 C179 1.390 1_556 S
C177 H181 0.950 . S
H178 C174 0.950 . S
C179 C177 1.390 1_554 S
C179 C180 1.387 . S
C179 H182 0.950 . S
C180 C179 1.387 . S
C180 C183 1.387 . S
H181 C177 0.950 . S
H182 C179 0.950 . S
C183 C174 1.390 1_554 S
C183 H176 0.950 . S
C183 C180 1.387 . S
C184 C185 1.387 . S
C184 H188 0.950 . S
C184 C193 1.390 . S
C185 C184 1.387 . S
C185 C187 1.387 . S
H186 C193 0.950 . S
C187 C185 1.387 . S
C187 C189 1.390 . S
C187 H191 0.950 . S
H188 C184 0.950 . S
C189 C187 1.390 . S
C189 C190 1.387 . S
C189 H192 0.950 . S
C190 C189 1.387 . S
C190 C193 1.387 . S
H191 C187 0.950 . S
H192 C189 0.950 . S
C193 C184 1.390 . S
C193 H186 0.950 . S
C193 C190 1.387 . S
C194 C195 1.387 . S
C194 H198 0.950 . S
C194 C203 1.390 . S
C195 C194 1.387 . S
C195 C197 1.387 . S
H196 C203 0.950 . S
C197 C195 1.387 . S
C197 C199 1.390 . S
C197 H201 0.950 . S
H198 C194 0.950 . S
C199 C197 1.390 . S
C199 C200 1.387 . S
C199 H202 0.950 . S
C200 C199 1.387 . S
C200 C203 1.387 . S
H201 C197 0.950 . S
H202 C199 0.950 . S
C203 C194 1.390 . S
C203 H196 0.950 . S
C203 C200 1.387 . S
C85 C8 1.440 . S
C90 C50 1.440 . S
C95 C22 1.440 . S
C100 C64 1.440 . S
C105 C36 1.440 . S
C110 C78 1.440 . S
C115 C23 1.478 . S
C120 C65 1.478 . S
C125 C79 1.480 . S
C130 C37 1.480 . S
C135 C51 1.480 . S
C140 C9 1.480 . S
C145 C31 1.372 . S
C150 C7 1.415 . S
C155 C45 1.376 . S
C160 C21 1.418 . S
C165 C35 1.416 . S
C170 C59 1.373 . S
C175 C73 1.376 . S
C180 C49 1.418 . S
C185 C63 1.418 . S
C190 C3 1.376 . S
C195 C77 1.415 . S
C200 C17 1.372 . S
