# Generated by pormake.
# Topology pcu, (6)-cn, num edge types: 1
# Building blocks:
#     Node 0, Type 0, BuildingBlock: BETDIP_clean_sbu_0, # of connection points: 6
#     Edge 1, Type (0, 0), BuildingBlock: FUNLAD_clean_linker_1, # of connection points: 2
#     Edge 2, Type (0, 0), BuildingBlock: FUNLAD_clean_linker_1, # of connection points: 2
#     Edge 3, Type (0, 0), BuildingBlock: FUNLAD_clean_linker_1, # of connection points: 2
# Relax obj value: 0.000
# Max RMSD: 0.000
# Mean RMSD: 0.000
data_MOF--net-pcu--node1-BETDIP_clean_sbu_0--edge1-FUNLAD_clean_linker_1
_symmetry_space_group_name_H-M    P1
_symmetry_Int_Tables_number       1
_symmetry_cell_setting            triclinic
loop_
_symmetry_equiv_pos_as_xyz
'x, y, z'
_cell_length_a     26.067484
_cell_length_b     15.860645
_cell_length_c     15.053373
_cell_angle_alpha  90.697453
_cell_angle_beta   96.750716
_cell_angle_gamma 124.94865
loop_
_atom_site_label
_atom_site_type_symbol
_atom_site_fract_x
_atom_site_fract_y
_atom_site_fract_z
_atom_type_partial_charge
Tb0 Tb 0.9575 0.93591 1.00443 0.0
Tb1 Tb 0.09988 0.04877 0.02008 0.0
C2 C 0.84834 0.87219 0.03402 0.0
C3 C 0.80606 0.90645 0.02915 0.0
C4 C 0.82561 0.00249 0.0702 0.0
C5 C 0.78295 0.02965 0.06795 0.0
C6 C 0.71998 0.96155 0.02496 0.0
C7 C 0.70134 0.86673 0.98166 0.0
C8 C 0.74385 0.83954 0.98434 0.0
C9 C 1.00145 0.96547 0.85081 0.0
C10 C 0.0482 0.18388 0.01929 0.0
C11 C 0.20918 0.11267 0.99105 0.0
C12 C 0.25142 0.07833 0.99586 0.0
C13 C 0.23183 0.98232 0.95472 0.0
C14 C 0.27446 0.95509 0.95693 0.0
C15 C 0.33742 0.0231 0.99996 0.0
C16 C 0.35609 0.1179 0.04335 0.0
C17 C 0.31362 0.14516 0.04072 0.0
C18 C 0.05557 0.01901 0.17355 0.0
C19 C 1.00918 0.80081 1.00495 0.0
O20 O 0.89855 0.92015 0.09611 0.0
O21 O 0.8601 0.85229 0.9573 0.0
O22 O 1.02738 0.02734 0.92082 0.0
O23 O 0.94579 0.88711 0.86247 0.0
O24 O 0.99164 0.09869 0.0255 0.0
O25 O 0.09671 0.18178 1.00623 0.0
O26 O 0.15913 0.06511 0.92869 0.0
O27 O 0.19719 0.13206 0.06777 0.0
O28 O 0.03004 0.95734 0.10347 0.0
O29 O 0.11122 0.09757 0.16208 0.0
O30 O 0.06572 0.88601 0.99872 0.0
O31 O 0.96069 0.80291 0.01816 0.0
H32 H 0.87353 0.05614 0.10476 0.0
H33 H 0.79905 0.10366 0.10103 0.0
H34 H 0.65427 0.8129 0.94516 0.0
H35 H 0.72788 0.76542 0.95164 0.0
H36 H 0.18392 0.92874 0.92012 0.0
H37 H 0.25833 0.88109 0.92378 0.0
H38 H 0.40316 0.17165 0.07991 0.0
H39 H 0.3296 0.21926 0.07349 0.0
H40 H 0.98731 0.9197 0.26312 0.0
C41 C 0.0327 -0.00738 0.26086 0.0
H42 H 0.11399 0.12502 0.33553 0.0
H43 H 0.90436 0.95449 0.62056 0.0
H44 H 0.84676 -0.00376 0.51371 0.0
H45 H 0.88093 0.05285 0.3668 0.0
H46 H 0.97267 0.0676 0.32573 0.0
C47 C 0.06749 0.05404 0.33713 0.0
C48 C 0.04714 0.02229 0.42653 0.0
C49 C 0.99363 0.015 0.44983 0.0
C50 C 0.97445 0.98368 0.53513 0.0
C51 C 0.92094 0.97739 0.55666 0.0
C52 C 0.88751 0.00147 0.49605 0.0
C53 C 0.90671 0.03324 0.41331 0.0
C54 C 0.95927 0.04062 0.39031 0.0
H55 H 0.06958 0.06427 0.76091 0.0
C56 C 1.02413 0.99152 0.76336 0.0
H57 H 0.94262 0.85918 0.68897 0.0
H58 H 0.15215 0.02923 0.40364 0.0
H59 H 0.20971 0.98736 0.51043 0.0
H60 H 0.1755 0.93064 0.6573 0.0
H61 H 0.08378 0.91592 0.6984 0.0
C62 C 0.98916 0.93001 0.68719 0.0
C63 C 1.00939 0.96148 0.59769 0.0
C64 C 0.06287 0.96868 0.57436 0.0
C65 C 0.08206 2e-05 0.48907 0.0
C66 C 0.13557 0.0063 0.46753 0.0
C67 C 0.16896 0.98214 0.52811 0.0
C68 C 0.14975 0.95031 0.61082 0.0
C69 C 0.0972 0.94296 0.63384 0.0
H70 H 0.3615 0.91223 0.97539 0.0
C71 C 0.3817 -0.00786 0.99817 0.0
H72 H 0.46825 0.13855 0.04154 0.0
H73 H 0.61279 0.9387 0.17602 0.0
H74 H 0.5876 0.96775 0.31831 0.0
H75 H 0.51648 0.02266 0.3238 0.0
H76 H 0.46981 0.04837 0.18687 0.0
C77 C 0.44516 0.05776 0.01963 0.0
C78 C 0.48694 0.02243 0.01554 0.0
C79 C 0.51463 0.00933 0.09617 0.0
C80 C 0.55611 0.97853 0.09306 0.0
C81 C 0.58175 0.96347 0.17453 0.0
C82 C 0.56752 0.97957 0.25669 0.0
C83 C 0.52745 0.01045 0.25978 0.0
C84 C 0.50109 0.02512 0.1807 0.0
H85 H 0.69584 0.07234 0.04952 0.0
C86 C 0.67567 -0.00755 0.02672 0.0
H87 H 0.58915 0.84603 0.98324 0.0
H88 H 0.44454 0.04579 0.8488 0.0
H89 H 0.46973 0.01674 0.70651 0.0
H90 H 0.54086 0.96184 0.70102 0.0
H91 H 0.58754 0.93614 0.83796 0.0
C92 C 0.61222 0.9268 1.0052 0.0
C93 C 0.57041 0.96209 1.00929 0.0
C94 C 0.54272 0.97519 0.92865 0.0
C95 C 0.50124 0.00599 0.93176 0.0
C96 C 0.47559 0.02103 0.85029 0.0
C97 C 0.48982 0.00493 0.76813 0.0
C98 C 0.52989 0.97405 0.76504 0.0
C99 C 0.55625 0.95939 0.84412 0.0
H100 H 0.95249 0.63082 0.99618 0.0
C101 C 1.00054 0.70064 1.00401 0.0
H102 H 0.09799 0.76264 0.02444 0.0
H103 H 0.95325 0.27918 0.14157 0.0
H104 H 0.92013 0.33403 0.25999 0.0
H105 H 0.94389 0.5087 0.27098 0.0
H106 H 1.00014 0.62888 0.16291 0.0
C107 C 0.04972 0.69346 0.01688 0.0
C108 C 0.03984 0.59123 0.01583 0.0
C109 C 1.00833 0.52285 0.08131 0.0
C110 C 0.99622 0.4232 0.07651 0.0
C111 C 0.96394 0.35594 0.142 0.0
C112 C 0.94477 0.3865 0.21063 0.0
C113 C 0.95802 0.48472 0.21668 0.0
C114 C 0.98979 0.55264 0.15345 0.0
H115 H 0.10489 0.35388 0.02797 0.0
C116 C 0.05684 0.28405 0.02014 0.0
H117 H 0.95938 0.22205 0.99967 0.0
H118 H 0.10412 0.7055 0.88253 0.0
H119 H 0.13725 0.65066 0.76412 0.0
H120 H 0.1135 0.47599 0.75315 0.0
H121 H 0.05726 0.35582 0.86122 0.0
C122 C 1.00765 0.29123 1.00723 0.0
C123 C 1.01753 0.39346 1.00827 0.0
C124 C 0.04905 0.46184 0.94279 0.0
C125 C 0.06116 0.56149 0.94759 0.0
C126 C 0.09343 0.62875 0.8821 0.0
C127 C 0.1126 0.59819 0.81348 0.0
C128 C 0.09937 0.49998 0.80744 0.0
C129 C 0.0676 0.43206 0.87066 0.0
loop_
_geom_bond_atom_site_label_1
_geom_bond_atom_site_label_2
_geom_bond_distance
_geom_bond_site_symmetry_2
_ccdc_geom_bond_type
Tb0 C2 2.809 . S
Tb0 O20 2.484 1_556 S
Tb0 O21 2.440 . S
Tb0 O22 2.658 1_655 S
Tb0 O23 2.409 . S
Tb0 O24 2.378 1_565 S
Tb0 O28 2.325 1_566 S
Tb0 O31 2.341 . S
Tb1 C11 2.809 . S
Tb1 O22 2.325 1_544 S
Tb1 O25 2.341 . S
Tb1 O26 2.484 1_554 S
Tb1 O27 2.440 . S
Tb1 O28 2.658 1_455 S
Tb1 O29 2.409 . S
Tb1 O30 2.378 1_545 S
C2 Tb0 2.809 . S
C2 C3 1.514 . S
C2 O20 1.248 1_556 S
C2 O21 1.266 . S
C3 C2 1.514 . S
C3 C4 1.355 1_566 S
C3 C8 1.348 . S
C4 C3 1.355 1_544 S
C4 C5 1.386 . S
C4 H32 0.927 . S
C5 C4 1.386 . S
C5 C6 1.339 1_544 S
C5 H33 0.931 . S
C6 C5 1.339 1_566 S
C6 C7 1.378 . S
C7 C6 1.378 . S
C7 C8 1.408 . S
C7 H34 0.930 . S
C8 C3 1.348 . S
C8 C7 1.408 . S
C8 H35 0.930 . S
C9 O22 1.281 1_655 S
C9 O23 1.254 . S
C10 O24 1.236 1_455 S
C10 O25 1.266 1_556 S
C11 Tb1 2.809 . S
C11 C12 1.514 . S
C11 O26 1.248 1_554 S
C11 O27 1.266 . S
C12 C11 1.514 . S
C12 C13 1.356 1_544 S
C12 C17 1.348 . S
C13 C12 1.356 1_566 S
C13 C14 1.384 . S
C13 H36 0.927 . S
C14 C13 1.384 . S
C14 C15 1.337 1_566 S
C14 H37 0.931 . S
C15 C14 1.337 1_544 S
C15 C16 1.380 . S
C16 C15 1.380 . S
C16 C17 1.408 . S
C16 H38 0.930 . S
C17 C12 1.348 . S
C17 C16 1.408 . S
C17 H39 0.930 . S
C18 O28 1.281 1_455 S
C18 O29 1.254 . S
C19 O30 1.236 1_655 S
C19 O31 1.266 1_554 S
O20 Tb0 2.484 1_554 S
O20 C2 1.248 1_554 S
O21 Tb0 2.440 . S
O21 C2 1.266 . S
O22 Tb0 2.658 1_455 S
O22 Tb1 2.325 1_566 S
O22 C9 1.281 1_455 S
O23 Tb0 2.409 . S
O23 C9 1.254 . S
O24 Tb0 2.378 1_545 S
O24 C10 1.236 1_655 S
O25 Tb1 2.341 . S
O25 C10 1.266 1_554 S
O26 Tb1 2.484 1_556 S
O26 C11 1.248 1_556 S
O27 Tb1 2.440 . S
O27 C11 1.266 . S
O28 Tb0 2.325 1_544 S
O28 Tb1 2.658 1_655 S
O28 C18 1.281 1_655 S
O29 Tb1 2.409 . S
O29 C18 1.254 . S
O30 Tb1 2.378 1_565 S
O30 C19 1.236 1_455 S
O31 Tb0 2.341 . S
O31 C19 1.266 1_556 S
H32 C4 0.927 . S
H33 C5 0.931 . S
H34 C7 0.930 . S
H35 C8 0.930 . S
H36 C13 0.927 . S
H37 C14 0.931 . S
H38 C16 0.930 . S
H39 C17 0.930 . S
H40 C41 0.951 . S
C41 H40 0.951 . S
C41 C47 1.265 1_445 S
H42 C47 0.950 . S
H43 C51 0.949 . S
H44 C52 0.950 . S
H45 C53 0.951 . S
H46 C54 0.951 . S
C47 C41 1.265 1_665 S
C47 H42 0.950 . S
C47 C48 1.478 . S
C48 C47 1.478 . S
C48 C49 1.397 . S
C48 C65 1.394 1_665 S
C49 C48 1.397 . S
C49 C50 1.438 . S
C49 C54 1.429 . S
C50 C49 1.438 . S
C50 C51 1.428 . S
C50 C63 1.394 1_665 S
C51 H43 0.949 . S
C51 C50 1.428 . S
C51 C52 1.345 . S
C52 H44 0.950 . S
C52 C51 1.345 . S
C52 C53 1.424 . S
C53 H45 0.951 . S
C53 C52 1.424 . S
C53 C54 1.347 . S
C54 H46 0.951 . S
C54 C49 1.429 . S
C54 C53 1.347 . S
H55 C56 0.951 . S
C56 H55 0.951 . S
C56 C62 1.265 1_665 S
H57 C62 0.950 . S
H58 C66 0.949 . S
H59 C67 0.950 . S
H60 C68 0.951 . S
H61 C69 0.951 . S
C62 C56 1.265 1_445 S
C62 H57 0.950 . S
C62 C63 1.478 . S
C63 C50 1.394 1_445 S
C63 C62 1.478 . S
C63 C64 1.397 . S
C64 C63 1.397 . S
C64 C65 1.438 . S
C64 C69 1.429 . S
C65 C48 1.394 1_445 S
C65 C64 1.438 . S
C65 C66 1.428 . S
C66 H58 0.949 . S
C66 C65 1.428 . S
C66 C67 1.345 . S
C67 H59 0.950 . S
C67 C66 1.345 . S
C67 C68 1.424 . S
C68 H60 0.951 . S
C68 C67 1.424 . S
C68 C69 1.347 . S
C69 H61 0.951 . S
C69 C64 1.429 . S
C69 C68 1.347 . S
H70 C71 0.951 . S
C71 H70 0.951 . S
C71 C77 1.265 1_566 S
H72 C77 0.950 . S
H73 C81 0.949 . S
H74 C82 0.950 . S
H75 C83 0.951 . S
H76 C84 0.951 . S
C77 C71 1.265 1_544 S
C77 H72 0.950 . S
C77 C78 1.478 . S
C78 C77 1.478 . S
C78 C79 1.397 . S
C78 C95 1.394 1_544 S
C79 C78 1.397 . S
C79 C80 1.438 . S
C79 C84 1.429 . S
C80 C79 1.438 . S
C80 C81 1.428 . S
C80 C93 1.394 1_544 S
C81 H73 0.949 . S
C81 C80 1.428 . S
C81 C82 1.345 . S
C82 H74 0.950 . S
C82 C81 1.345 . S
C82 C83 1.424 . S
C83 H75 0.951 . S
C83 C82 1.424 . S
C83 C84 1.347 . S
C84 H76 0.951 . S
C84 C79 1.429 . S
C84 C83 1.347 . S
H85 C86 0.951 . S
C86 H85 0.951 . S
C86 C92 1.265 1_544 S
H87 C92 0.950 . S
H88 C96 0.949 . S
H89 C97 0.950 . S
H90 C98 0.951 . S
H91 C99 0.951 . S
C92 C86 1.265 1_566 S
C92 H87 0.950 . S
C92 C93 1.478 . S
C93 C80 1.394 1_566 S
C93 C92 1.478 . S
C93 C94 1.397 . S
C94 C93 1.397 . S
C94 C95 1.438 . S
C94 C99 1.429 . S
C95 C78 1.394 1_566 S
C95 C94 1.438 . S
C95 C96 1.428 . S
C96 H88 0.949 . S
C96 C95 1.428 . S
C96 C97 1.345 . S
C97 H89 0.950 . S
C97 C96 1.345 . S
C97 C98 1.424 . S
C98 H90 0.951 . S
C98 C97 1.424 . S
C98 C99 1.347 . S
C99 H91 0.951 . S
C99 C94 1.429 . S
C99 C98 1.347 . S
H100 C101 0.953 . S
C101 H100 0.953 . S
C101 C107 1.265 1_455 S
H102 C107 0.950 . S
H103 C111 0.949 . S
H104 C112 0.950 . S
H105 C113 0.951 . S
H106 C114 0.951 . S
C107 C101 1.265 1_655 S
C107 H102 0.950 . S
C107 C108 1.478 1_556 S
C108 C107 1.478 1_554 S
C108 C109 1.397 1_554 S
C108 C125 1.394 1_655 S
C109 C108 1.397 1_556 S
C109 C110 1.438 . S
C109 C114 1.429 . S
C110 C109 1.438 . S
C110 C111 1.428 . S
C110 C123 1.394 1_656 S
C111 H103 0.949 . S
C111 C110 1.428 . S
C111 C112 1.345 . S
C112 H104 0.950 . S
C112 C111 1.345 . S
C112 C113 1.424 . S
C113 H105 0.951 . S
C113 C112 1.424 . S
C113 C114 1.347 . S
C114 H106 0.951 . S
C114 C109 1.429 . S
C114 C113 1.347 . S
H115 C116 0.951 . S
C116 H115 0.951 . S
C116 C122 1.266 1_655 S
H117 C122 0.948 . S
H118 C126 0.949 . S
H119 C127 0.950 . S
H120 C128 0.951 . S
H121 C129 0.951 . S
C122 C116 1.266 1_455 S
C122 H117 0.948 . S
C122 C123 1.478 . S
C123 C110 1.394 1_454 S
C123 C122 1.478 . S
C123 C124 1.397 . S
C124 C123 1.397 . S
C124 C125 1.438 . S
C124 C129 1.429 . S
C125 C108 1.394 1_455 S
C125 C124 1.438 . S
C125 C126 1.428 . S
C126 H118 0.949 . S
C126 C125 1.428 . S
C126 C127 1.345 . S
C127 H119 0.950 . S
C127 C126 1.345 . S
C127 C128 1.424 . S
C128 H120 0.951 . S
C128 C127 1.424 . S
C128 C129 1.347 . S
C129 H121 0.951 . S
C129 C124 1.429 . S
C129 C128 1.347 . S
C41 C18 1.401 . S
C56 C9 1.401 . S
C71 C15 1.493 1_566 S
C86 C6 1.493 1_544 S
C101 C19 1.487 1_456 S
C116 C10 1.489 1_654 S
