# Generated by pormake.
# Topology pcu, (6)-cn, num edge types: 1
# Building blocks:
#     Node 0, Type 0, BuildingBlock: KUMBOL_clean_sbu_0, # of connection points: 6
#     Edge 1, Type (0, 0), BuildingBlock: XUDNAN_clean_linker_2, # of connection points: 2
#     Edge 2, Type (0, 0), BuildingBlock: XUDNAN_clean_linker_2, # of connection points: 2
#     Edge 3, Type (0, 0), BuildingBlock: XUDNAN_clean_linker_2, # of connection points: 2
# Relax obj value: 0.000
# Max RMSD: 0.000
# Mean RMSD: 0.000
data_MOF--net-pcu--node1-KUMBOL_clean_sbu_0--edge1-XUDNAN_clean_linker_2
_symmetry_space_group_name_H-M    P1
_symmetry_Int_Tables_number       1
_symmetry_cell_setting            triclinic
loop_
_symmetry_equiv_pos_as_xyz
'x, y, z'
_cell_length_a     24.395108
_cell_length_b     13.848411
_cell_length_c     15.176952
_cell_angle_alpha  75.006725
_cell_angle_beta   115.03195
_cell_angle_gamma 114.76093
loop_
_atom_site_label
_atom_site_type_symbol
_atom_site_fract_x
_atom_site_fract_y
_atom_site_fract_z
_atom_type_partial_charge
Gd0 Gd 0.10765 0.07718 0.04607 0.0
Gd1 Gd 0.92859 0.93778 0.96127 0.0
C2 C 0.85463 0.58048 0.93444 0.0
C3 C 0.80014 0.57297 0.75887 0.0
C4 C 0.85022 0.74283 0.82796 0.0
C5 C 0.87085 0.6923 0.92051 0.0
C6 C 0.8132 0.68353 0.7462 0.0
C7 C 0.82071 0.52146 0.85293 0.0
C8 C 0.87106 0.53105 0.02996 0.0
C9 C 0.90209 0.59279 0.1086 0.0
N10 N 0.90337 0.75178 -0.0025 0.0
C11 C 0.9176 0.70364 0.09098 0.0
H12 H 0.94193 0.75053 0.15234 0.0
C13 C 0.83479 0.89975 0.73125 0.0
N14 N 0.8627 0.84915 0.8188 0.0
C15 C 0.79854 0.84484 0.64765 0.0
C16 C 0.78852 0.73653 0.65486 0.0
H17 H 0.84298 0.98378 0.72558 0.0
H18 H 0.80862 0.43565 0.86207 0.0
H19 H 0.11442 0.29353 0.8829 0.0
H20 H 0.85846 0.44516 0.04367 0.0
H21 H 0.91428 0.55511 0.18279 0.0
H22 H 0.77242 0.52612 0.69686 0.0
H23 H 0.16624 0.97911 0.27877 0.0
H24 H 0.23278 0.57196 0.03646 0.0
H25 H 0.16413 0.48937 0.88117 0.0
H26 H 0.3045 0.42809 0.37102 0.0
H27 H 0.77841 0.88602 0.57781 0.0
H28 H 0.76009 0.69395 0.59014 0.0
H29 H 0.28521 0.54829 0.21916 0.0
H30 H 0.23705 0.04642 0.43994 0.0
N31 N 0.15174 0.26481 0.03771 0.0
C32 C 0.2106 0.48577 0.03767 0.0
C33 C 0.17195 0.43949 0.94992 0.0
C34 C 0.22113 0.42018 0.12586 0.0
C35 C 0.19067 0.3085 0.12344 0.0
C36 C 0.14363 0.32825 0.95123 0.0
N37 N 0.17452 0.13397 0.20263 0.0
C38 C 0.20244 0.24103 0.20859 0.0
C39 C 0.22766 0.10202 0.37545 0.0
C40 C 0.25556 0.21192 0.38312 0.0
C41 C 0.18773 0.06417 0.28397 0.0
C42 C 0.24376 0.28303 0.29898 0.0
H43 H 0.2868 0.24102 0.45401 0.0
O44 O 0.18268 0.01371 0.0798 0.0
O45 O 0.02459 0.92808 0.00378 0.0
O46 O 0.97498 0.94577 0.1281 0.0
O47 O 0.07267 0.09035 0.15498 0.0
O48 O 0.10377 0.909 0.11686 0.0
O49 O 0.16625 0.13214 0.95555 0.0
O50 O 0.84668 0.98954 0.91166 0.0
O51 O 1.01091 0.08932 0.9966 0.0
O52 O 0.06123 0.09845 0.88097 0.0
O53 O 0.96096 0.95886 0.83578 0.0
O54 O 0.9274 0.10079 0.88461 0.0
O55 O 0.86708 0.88673 0.04668 0.0
C56 C 0.04682 0.85816 0.05956 0.0
C57 C 0.27274 0.39425 0.30224 0.0
C58 C 0.26177 0.46267 0.21579 0.0
C59 C 0.20169 0.07398 0.00894 0.0
C60 C 0.27197 0.12589 0.03318 0.0
C61 C 0.30772 0.21305 0.08924 0.0
C62 C 0.30385 0.08587 0.00104 0.0
C63 C 0.37134 0.13259 0.02418 0.0
C64 C 0.37459 0.25979 0.11275 0.0
C65 C 0.40632 0.22006 0.0806 0.0
C66 C 0.02372 0.02249 0.18172 0.0
C67 C 0.98575 0.15438 0.93612 0.0
C68 C 0.827 0.93284 0.98281 0.0
C69 C 0.7577 0.86761 0.95418 0.0
C70 C 0.73472 0.76508 0.92543 0.0
C71 C 0.7137 0.90954 0.95234 0.0
C72 C 0.64687 0.85 0.92039 0.0
C73 C 0.66864 0.70544 0.89441 0.0
C74 C 0.62489 0.74757 0.89145 0.0
C75 C 1.01081 0.03557 0.81601 0.0
H76 H 0.28409 0.24469 0.11494 0.0
H77 H 0.27602 0.01725 0.95913 0.0
H78 H 0.40196 0.32725 0.15591 0.0
H79 H 0.45808 0.2588 0.09877 0.0
H80 H 0.76773 0.73127 0.92666 0.0
H81 H 0.73132 0.98921 0.97362 0.0
H82 H 0.65125 0.6264 0.87226 0.0
H83 H 0.57382 0.69964 0.8673 0.0
H84 H 0.9553 0.8842 0.30056 0.0
H85 H 0.09043 0.20647 0.2687 0.0
H86 H 0.09274 0.24573 0.41801 0.0
H87 H 0.86704 0.95403 0.40744 0.0
H88 H 0.85947 0.83591 0.49305 0.0
H89 H 0.86268 0.83268 0.37735 0.0
H90 H 0.95988 0.76753 0.46773 0.0
H91 H 0.95675 0.77063 0.58339 0.0
H92 H 0.0307 0.8446 0.55947 0.0
H93 H 0.08692 0.25157 0.57202 0.0
H94 H 0.07644 0.22019 0.73158 0.0
H95 H 0.94698 0.89404 0.67458 0.0
C96 C 0.98469 0.96315 0.32474 0.0
C97 C 0.02247 0.04206 0.2722 0.0
C98 C 0.06107 0.14412 0.30703 0.0
C99 C 0.06257 0.16784 0.39192 0.0
C100 C 0.02549 0.08878 0.44232 0.0
C101 C 0.98745 0.98826 0.41106 0.0
C102 C 0.9559 0.91686 0.48413 0.0
C103 C 0.88187 0.88288 0.43769 0.0
C104 C 0.97709 0.81913 0.52616 0.0
C105 C 0.98339 0.99289 0.56136 0.0
C106 C 0.02273 0.09182 0.5344 0.0
C107 C 0.05596 0.17472 0.59403 0.0
C108 C 0.04986 0.15586 0.68488 0.0
C109 C 1.01097 0.05477 0.71574 0.0
C110 C 0.97638 0.9726 0.65234 0.0
H111 H 0.4893 0.10617 0.12392 0.0
H112 H 0.32967 0.06394 0.84491 0.0
H113 H 0.38391 0.99106 0.78737 0.0
H114 H 0.6166 0.18859 0.02619 0.0
H115 H 0.66362 0.11902 0.12644 0.0
H116 H 0.61254 0.16876 0.14577 0.0
H117 H 0.55426 0.97889 0.21404 0.0
H118 H 0.60514 0.9286 0.19496 0.0
H119 H 0.51842 0.86887 0.14106 0.0
H120 H 0.4538 0.91832 0.76138 0.0
H121 H 0.53535 0.85222 0.7683 0.0
H122 H 0.65142 0.94649 0.06193 0.0
C123 C 0.46604 0.08286 0.05027 0.0
C124 C 0.40493 0.09053 0.98913 0.0
C125 C 0.37587 0.05736 0.89378 0.0
C126 C 0.40655 0.01656 0.86012 0.0
C127 C 0.4665 1.00975 0.92238 0.0
C128 C 0.4961 0.04222 0.01533 0.0
C129 C 0.56026 0.02496 0.06801 0.0
C130 C 0.61658 0.1317 0.09305 0.0
C131 C 0.55943 0.9456 0.15994 0.0
C132 C 0.562 0.97742 0.99019 0.0
C133 C 0.50735 0.96921 0.90684 0.0
C134 C 0.49691 0.92476 0.82608 0.0
C135 C 0.54333 0.88709 0.83081 0.0
C136 C 0.59967 0.89442 0.9155 0.0
C137 C 0.60922 0.94114 0.99579 0.0
H138 H 0.06381 0.67324 0.16959 0.0
H139 H 1.00759 0.81968 0.8714 0.0
H140 H 0.99441 0.66089 0.81106 0.0
H141 H 0.15489 0.54831 0.14191 0.0
H142 H 0.12964 0.42353 0.21418 0.0
H143 H 0.13176 0.54473 0.24091 0.0
H144 H 1.01035 0.46618 0.21912 0.0
H145 H 1.01117 0.34145 0.20544 0.0
H146 H 0.95255 0.39579 0.11345 0.0
H147 H 0.98527 0.48798 0.78073 0.0
H148 H 0.9735 0.30179 0.78175 0.0
H149 H 0.0381 0.26308 0.09782 0.0
C150 C 0.0481 0.67087 0.09166 0.0
C151 C 0.03483 0.75795 0.02499 0.0
C152 C 1.01569 0.75312 0.92371 0.0
C153 C 1.00885 0.66338 0.88864 0.0
C154 C 1.02202 0.57894 0.95579 0.0
C155 C 0.04038 0.58068 0.05508 0.0
C156 C 0.05062 0.47754 0.11061 0.0
C157 C 0.12095 0.49978 0.18105 0.0
C158 C 1.00335 0.4168 0.16538 0.0
C159 C 0.03504 0.41823 0.02666 0.0
C160 C 1.01895 0.47895 0.93821 0.0
C161 C 0.9985 0.43989 0.84944 0.0
C162 C 0.99215 0.33446 0.85064 0.0
C163 C 1.00686 0.26981 0.93984 0.0
C164 C 0.02938 0.31253 0.0291 0.0
loop_
_geom_bond_atom_site_label_1
_geom_bond_atom_site_label_2
_geom_bond_distance
_geom_bond_site_symmetry_2
_ccdc_geom_bond_type
Gd0 N31 2.661 1_554 S
Gd0 N37 2.601 . S
Gd0 O44 2.545 . S
Gd0 O45 2.606 1_444 S
Gd0 O47 2.429 1_545 S
Gd0 O48 2.545 1_545 S
Gd0 O49 2.412 . S
Gd0 O51 2.362 . S
Gd0 O52 2.324 1_554 S
Gd0 C59 2.828 . S
Gd1 N10 2.661 1_556 S
Gd1 N14 2.601 . S
Gd1 O45 2.362 . S
Gd1 O46 2.324 1_556 S
Gd1 O50 2.545 . S
Gd1 O51 2.606 1_666 S
Gd1 O53 2.429 1_565 S
Gd1 O54 2.545 1_565 S
Gd1 O55 2.412 . S
Gd1 C68 2.828 . S
C2 C5 1.417 . S
C2 C7 1.431 . S
C2 C8 1.412 1_556 S
C3 C6 1.437 . S
C3 C7 1.317 . S
C3 H22 0.929 . S
C4 C5 1.426 . S
C4 C6 1.413 . S
C4 N14 1.359 . S
C5 C2 1.417 . S
C5 C4 1.426 . S
C5 N10 1.350 1_556 S
C6 C3 1.437 . S
C6 C4 1.413 . S
C6 C16 1.391 . S
C7 C2 1.431 . S
C7 C3 1.317 . S
C7 H18 0.930 . S
C8 C2 1.412 1_554 S
C8 C9 1.355 . S
C8 H20 0.930 . S
C9 C8 1.355 . S
C9 C11 1.402 . S
C9 H21 0.930 . S
N10 Gd1 2.661 1_554 S
N10 C5 1.350 1_554 S
N10 C11 1.307 . S
C11 C9 1.402 . S
C11 N10 1.307 . S
C11 H12 0.930 . S
H12 C11 0.930 . S
C13 N14 1.334 . S
C13 C15 1.394 . S
C13 H17 0.930 . S
N14 Gd1 2.601 . S
N14 C4 1.359 . S
N14 C13 1.334 . S
C15 C13 1.394 . S
C15 C16 1.359 . S
C15 H27 0.930 . S
C16 C6 1.391 . S
C16 C15 1.359 . S
C16 H28 0.929 . S
H17 C13 0.930 . S
H18 C7 0.930 . S
H19 C36 0.930 . S
H20 C8 0.930 . S
H21 C9 0.930 . S
H22 C3 0.929 . S
H23 C41 0.930 . S
H24 C32 0.930 . S
H25 C33 0.930 . S
H26 C57 0.929 . S
H27 C15 0.930 . S
H28 C16 0.929 . S
H29 C58 0.930 . S
H30 C39 0.930 . S
N31 Gd0 2.661 1_556 S
N31 C35 1.350 1_556 S
N31 C36 1.307 . S
C32 H24 0.930 . S
C32 C33 1.355 . S
C32 C34 1.412 1_556 S
C33 H25 0.930 . S
C33 C32 1.355 . S
C33 C36 1.402 . S
C34 C32 1.412 1_554 S
C34 C35 1.417 . S
C34 C58 1.431 . S
C35 N31 1.350 1_554 S
C35 C34 1.417 . S
C35 C38 1.426 . S
C36 H19 0.930 . S
C36 N31 1.307 . S
C36 C33 1.402 . S
N37 Gd0 2.601 . S
N37 C38 1.359 . S
N37 C41 1.334 . S
C38 C35 1.426 . S
C38 N37 1.359 . S
C38 C42 1.413 . S
C39 H30 0.930 . S
C39 C40 1.359 . S
C39 C41 1.394 . S
C40 C39 1.359 . S
C40 C42 1.391 . S
C40 H43 0.929 . S
C41 H23 0.930 . S
C41 N37 1.334 . S
C41 C39 1.394 . S
C42 C38 1.413 . S
C42 C40 1.391 . S
C42 C57 1.437 . S
H43 C40 0.929 . S
O44 Gd0 2.545 . S
O44 C59 1.258 . S
O45 Gd0 2.606 1_666 S
O45 Gd1 2.362 . S
O45 C56 1.284 1_656 S
O46 Gd1 2.324 1_554 S
O46 C66 1.254 1_655 S
O47 Gd0 2.429 1_565 S
O47 C66 1.268 . S
O48 Gd0 2.545 1_565 S
O48 C56 1.250 . S
O49 Gd0 2.412 . S
O49 C59 1.252 . S
O50 Gd1 2.545 . S
O50 C68 1.258 . S
O51 Gd0 2.362 . S
O51 Gd1 2.606 1_444 S
O51 C67 1.284 1_454 S
O52 Gd0 2.324 1_556 S
O52 C75 1.254 1_455 S
O53 Gd1 2.429 1_545 S
O53 C75 1.268 . S
O54 Gd1 2.545 1_545 S
O54 C67 1.250 . S
O55 Gd1 2.412 . S
O55 C68 1.252 . S
C56 O45 1.284 1_454 S
C56 O48 1.250 . S
C57 H26 0.929 . S
C57 C42 1.437 . S
C57 C58 1.317 . S
C58 H29 0.930 . S
C58 C34 1.431 . S
C58 C57 1.317 . S
C59 Gd0 2.828 . S
C59 O44 1.258 . S
C59 O49 1.252 . S
C59 C60 1.497 . S
C60 C59 1.497 . S
C60 C61 1.395 . S
C60 C62 1.380 . S
C61 C60 1.395 . S
C61 C64 1.398 . S
C61 H76 0.930 . S
C62 C60 1.380 . S
C62 C63 1.391 . S
C62 H77 0.930 1_554 S
C63 C62 1.391 . S
C63 C65 1.387 . S
C64 C61 1.398 . S
C64 C65 1.380 . S
C64 H78 0.930 . S
C65 C63 1.387 . S
C65 C64 1.380 . S
C65 H79 0.930 . S
C66 O46 1.254 1_455 S
C66 O47 1.268 . S
C67 O51 1.284 1_656 S
C67 O54 1.250 . S
C68 Gd1 2.828 . S
C68 O50 1.258 . S
C68 O55 1.252 . S
C68 C69 1.497 . S
C69 C68 1.497 . S
C69 C70 1.395 . S
C69 C71 1.380 . S
C70 C69 1.395 . S
C70 C73 1.398 . S
C70 H80 0.930 . S
C71 C69 1.380 . S
C71 C72 1.391 . S
C71 H81 0.930 1_556 S
C72 C71 1.391 . S
C72 C74 1.387 . S
C73 C70 1.398 . S
C73 C74 1.380 . S
C73 H82 0.930 . S
C74 C72 1.387 . S
C74 C73 1.380 . S
C74 H83 0.930 . S
C75 O52 1.254 1_655 S
C75 O53 1.268 . S
H76 C61 0.930 . S
H77 C62 0.930 1_556 S
H78 C64 0.930 . S
H79 C65 0.930 . S
H80 C70 0.930 . S
H81 C71 0.930 1_554 S
H82 C73 0.930 . S
H83 C74 0.930 . S
H84 C96 0.930 . S
H85 C98 0.930 . S
H86 C99 0.930 . S
H87 C103 0.959 1_545 S
H88 C103 0.959 . S
H89 C103 0.961 . S
H90 C104 0.960 . S
H91 C104 0.961 . S
H92 C104 0.959 . S
H93 C107 0.929 . S
H94 C108 0.931 . S
H95 C110 0.930 . S
C96 H84 0.930 . S
C96 C97 1.399 1_665 S
C96 C101 1.399 . S
C97 C96 1.399 1_445 S
C97 C98 1.376 . S
C98 H85 0.930 . S
C98 C97 1.376 . S
C98 C99 1.388 . S
C99 H86 0.930 . S
C99 C98 1.388 . S
C99 C100 1.390 . S
C100 C99 1.390 . S
C100 C101 1.394 1_445 S
C100 C106 1.465 . S
C101 C96 1.399 . S
C101 C100 1.394 1_665 S
C101 C102 1.516 . S
C102 C101 1.516 . S
C102 C103 1.502 . S
C102 C104 1.561 . S
C102 C105 1.526 . S
C103 H87 0.959 1_565 S
C103 H88 0.959 . S
C103 H89 0.961 . S
C103 C102 1.502 . S
C104 H90 0.960 . S
C104 H91 0.961 . S
C104 H92 0.959 . S
C104 C102 1.561 . S
C105 C102 1.526 . S
C105 C106 1.396 1_665 S
C105 C110 1.390 . S
C106 C100 1.465 . S
C106 C105 1.396 1_445 S
C106 C107 1.399 . S
C107 H93 0.929 . S
C107 C106 1.399 . S
C107 C108 1.385 . S
C108 H94 0.931 . S
C108 C107 1.385 . S
C108 C109 1.389 . S
C109 C108 1.389 . S
C109 C110 1.387 1_445 S
C110 H95 0.930 . S
C110 C105 1.390 . S
C110 C109 1.387 1_665 S
H111 C123 0.930 . S
H112 C125 0.930 . S
H113 C126 0.930 . S
H114 C130 0.959 1_545 S
H115 C130 0.959 . S
H116 C130 0.961 . S
H117 C131 0.960 . S
H118 C131 0.961 . S
H119 C131 0.959 . S
H120 C134 0.929 . S
H121 C135 0.931 . S
H122 C137 0.930 . S
C123 H111 0.930 . S
C123 C124 1.403 1_554 S
C123 C128 1.399 . S
C124 C123 1.403 1_556 S
C124 C125 1.376 1_565 S
C125 H112 0.930 . S
C125 C124 1.376 1_545 S
C125 C126 1.388 . S
C126 H113 0.930 . S
C126 C125 1.388 . S
C126 C127 1.390 . S
C127 C126 1.390 . S
C127 C128 1.394 1_546 S
C127 C133 1.465 . S
C128 C123 1.399 . S
C128 C127 1.394 1_564 S
C128 C129 1.516 . S
C129 C128 1.516 . S
C129 C130 1.502 . S
C129 C131 1.561 . S
C129 C132 1.526 . S
C130 H114 0.959 1_565 S
C130 H115 0.959 . S
C130 H116 0.961 . S
C130 C129 1.502 . S
C131 H117 0.960 . S
C131 H118 0.961 . S
C131 H119 0.959 . S
C131 C129 1.561 . S
C132 C129 1.526 . S
C132 C133 1.396 1_564 S
C132 C137 1.390 . S
C133 C127 1.465 . S
C133 C132 1.396 1_546 S
C133 C134 1.399 . S
C134 H120 0.929 . S
C134 C133 1.399 . S
C134 C135 1.385 . S
C135 H121 0.931 . S
C135 C134 1.385 . S
C135 C136 1.389 . S
C136 C135 1.389 . S
C136 C137 1.387 1_546 S
C137 H122 0.930 . S
C137 C132 1.390 . S
C137 C136 1.387 1_564 S
H138 C150 0.930 . S
H139 C152 0.930 . S
H140 C153 0.930 . S
H141 C157 0.959 . S
H142 C157 0.959 . S
H143 C157 0.961 . S
H144 C158 0.960 . S
H145 C158 0.961 . S
H146 C158 0.959 . S
H147 C161 0.929 . S
H148 C162 0.931 . S
H149 C164 0.930 . S
C150 H138 0.930 . S
C150 C151 1.399 1_454 S
C150 C155 1.399 . S
C151 C150 1.399 1_656 S
C151 C152 1.376 . S
C152 H139 0.930 . S
C152 C151 1.376 . S
C152 C153 1.388 . S
C153 H140 0.930 . S
C153 C152 1.388 . S
C153 C154 1.390 . S
C154 C153 1.390 . S
C154 C155 1.394 1_656 S
C154 C160 1.465 . S
C155 C150 1.399 . S
C155 C154 1.394 1_454 S
C155 C156 1.516 . S
C156 C155 1.516 . S
C156 C157 1.502 . S
C156 C158 1.561 1_455 S
C156 C159 1.526 . S
C157 H141 0.959 . S
C157 H142 0.959 . S
C157 H143 0.961 . S
C157 C156 1.502 . S
C158 H144 0.960 . S
C158 H145 0.961 . S
C158 H146 0.959 . S
C158 C156 1.561 1_655 S
C159 C156 1.526 . S
C159 C160 1.396 1_454 S
C159 C164 1.390 . S
C160 C154 1.465 . S
C160 C159 1.396 1_656 S
C160 C161 1.399 . S
C161 H147 0.929 . S
C161 C160 1.399 . S
C161 C162 1.385 . S
C162 H148 0.931 . S
C162 C161 1.385 . S
C162 C163 1.389 . S
C163 C162 1.389 . S
C163 C164 1.387 1_656 S
C164 H149 0.930 . S
C164 C159 1.390 . S
C164 C163 1.387 1_454 S
C97 C66 1.452 1_545 S
C109 C75 1.470 1_455 S
C124 C63 1.378 1_566 S
C136 C72 1.265 1_545 S
C151 C56 1.465 1_656 S
C163 C67 1.400 . S
