# Generated by pormake.
# Topology pcu, (6)-cn, num edge types: 1
# Building blocks:
#     Node 0, Type 0, BuildingBlock: BETFEN_clean_sbu_0, # of connection points: 6
#     Edge 1, Type (0, 0), BuildingBlock: FUNLAD_clean_linker_1, # of connection points: 2
#     Edge 2, Type (0, 0), BuildingBlock: FUNLAD_clean_linker_1, # of connection points: 2
#     Edge 3, Type (0, 0), BuildingBlock: FUNLAD_clean_linker_1, # of connection points: 2
# Relax obj value: 0.000
# Max RMSD: 0.000
# Mean RMSD: 0.000
data_MOF--net-pcu--node1-BETFEN_clean_sbu_0--edge1-FUNLAD_clean_linker_1
_symmetry_space_group_name_H-M    P1
_symmetry_Int_Tables_number       1
_symmetry_cell_setting            triclinic
loop_
_symmetry_equiv_pos_as_xyz
'x, y, z'
_cell_length_a     26.227373
_cell_length_b     16.062184
_cell_length_c     14.575674
_cell_angle_alpha  86.955428
_cell_angle_beta   97.437106
_cell_angle_gamma 122.58428
loop_
_atom_site_label
_atom_site_type_symbol
_atom_site_fract_x
_atom_site_fract_y
_atom_site_fract_z
_atom_type_partial_charge
Pr0 Pr 0.95627 0.93069 0.05939 0.0
Pr1 Pr 0.10248 0.0337 1.0118 0.0
C2 C 0.85653 0.87672 0.14005 0.0
C3 C 0.80306 0.88605 0.12237 0.0
C4 C 0.74505 0.80413 0.13438 0.0
C5 C 0.69367 0.81088 0.11668 0.0
C6 C 0.69925 0.89996 0.0876 0.0
C7 C 0.75755 0.98205 0.07492 0.0
C8 C 0.80891 0.97506 0.09207 0.0
C9 C 0.96649 0.94264 0.86808 0.0
C10 C 0.04321 0.17208 1.01489 0.0
C11 C 0.20222 0.08787 0.93106 0.0
C12 C 0.25569 0.07854 0.94867 0.0
C13 C 0.3137 0.16045 0.93661 0.0
C14 C 0.36508 0.15372 0.95427 0.0
C15 C 0.35951 0.06464 0.98339 0.0
C16 C 0.30121 -0.01744 0.99612 0.0
C17 C 0.24986 -0.01045 0.979 0.0
C18 C 0.0923 0.02143 0.20313 0.0
C19 C 1.01555 0.79236 0.05631 0.0
O20 O 0.90967 0.95795 0.16301 0.0
O21 O 0.85862 0.81788 0.0836 0.0
O22 O 1.00803 0.97287 0.93478 0.0
O23 O 0.91443 0.9031 0.90043 0.0
O24 O 0.08507 0.16198 0.98413 0.0
O25 O 0.99576 0.10021 0.05326 0.0
O26 O 0.14909 0.00665 0.90803 0.0
O27 O 0.20012 0.14661 0.98762 0.0
O28 O 0.05075 -0.00815 0.13648 0.0
O29 O 0.14432 0.06064 0.17073 0.0
O30 O 0.97378 0.80253 0.0873 0.0
O31 O 0.0629 0.86415 1.01769 0.0
H32 H 0.73941 0.73462 0.15712 0.0
H33 H 0.64938 0.74624 0.12622 0.0
H34 H 0.76373 0.05117 0.04993 0.0
H35 H 0.85308 0.03906 0.08087 0.0
H36 H 0.31932 0.22996 0.91386 0.0
H37 H 0.40936 0.21835 0.9447 0.0
H38 H 0.29505 0.91346 1.02113 0.0
H39 H 0.20569 0.92556 0.99025 0.0
H40 H 0.12797 0.05812 0.35001 0.0
C41 C 0.08615 0.02103 0.30246 0.0
H42 H 0.99002 0.9369 0.29049 0.0
H43 H 0.99532 0.80581 0.71193 0.0
H44 H 0.96426 0.65412 0.6319 0.0
H45 H 0.96264 0.6495 0.46259 0.0
H46 H 0.99217 0.79674 0.37218 0.0
C47 C 0.03238 0.97793 0.33624 0.0
C48 C 0.02988 0.97987 0.43803 0.0
C49 C 1.01119 0.89277 0.48978 0.0
C50 C 1.01133 0.89514 0.58745 0.0
C51 C 0.9946 0.80774 0.63751 0.0
C52 C 0.97707 0.72025 0.59249 0.0
C53 C 0.9762 0.71767 0.49716 0.0
C54 C 0.99319 0.80271 0.44609 0.0
H55 H 0.93089 0.90489 0.72131 0.0
C56 C 0.97269 0.94259 0.76883 0.0
H57 H 0.0688 0.02796 0.78077 0.0
H58 H 0.06374 0.15839 0.35938 0.0
H59 H 0.09476 0.31007 0.43938 0.0
H60 H 0.09628 0.31468 0.60867 0.0
H61 H 0.06671 0.16743 0.69909 0.0
C62 C 1.0265 -0.01375 0.73505 0.0
C63 C 1.02905 -0.01571 0.63328 0.0
C64 C 0.04775 0.0714 0.58152 0.0
C65 C 0.04762 0.06903 0.48385 0.0
C66 C 0.06441 0.15645 0.4338 0.0
C67 C 0.08192 0.24394 0.4788 0.0
C68 C 0.08274 0.24651 0.57411 0.0
C69 C 0.06572 0.16146 0.62519 0.0
H70 H 0.45915 0.13152 1.01524 0.0
C71 C 0.41567 0.06157 1.00283 0.0
H72 H 0.37422 0.90734 0.98384 0.0
H73 H 0.61854 0.95484 0.892 0.0
H74 H 0.563 0.92315 0.73825 0.0
H75 H 0.46613 0.91677 0.71151 0.0
H76 H 0.42432 0.94254 0.83838 0.0
C77 C 0.41592 0.97797 1.00261 0.0
C78 C 0.47405 0.98042 1.0197 0.0
C79 C 0.49731 0.96328 0.94522 0.0
C80 C 0.55289 0.96588 0.96084 0.0
C81 C 0.57597 0.95169 0.88451 0.0
C82 C 0.54469 0.93391 0.79575 0.0
C83 C 0.49017 0.9304 0.78068 0.0
C84 C 0.46661 0.94511 0.85418 0.0
H85 H 0.59962 0.8331 0.05569 0.0
C86 C 0.6431 0.90305 0.06814 0.0
H87 H 0.68454 0.05727 0.08719 0.0
H88 H 0.44023 0.00979 0.17899 0.0
H89 H 0.49577 0.04148 0.33274 0.0
H90 H 0.59264 0.04785 0.35948 0.0
H91 H 0.63445 0.02207 0.23262 0.0
C92 C 0.64285 -0.01335 0.06839 0.0
C93 C 0.58472 -0.0158 0.05129 0.0
C94 C 0.56146 0.00134 0.12577 0.0
C95 C 0.50587 -0.00126 0.11015 0.0
C96 C 0.4828 0.01294 0.18648 0.0
C97 C 0.51408 0.03071 0.27524 0.0
C98 C 0.5686 0.03422 0.29031 0.0
C99 C 0.59215 0.0195 0.21682 0.0
H100 H 0.96777 0.63413 0.09116 0.0
C101 C 1.0081 0.69458 0.06382 0.0
H102 H 0.08868 0.73734 1.00632 0.0
H103 H 1.02458 0.31623 0.20915 0.0
H104 H 0.04426 0.4017 0.35404 0.0
H105 H 0.0636 0.5699 0.35567 0.0
H106 H 0.06287 0.65321 0.21246 0.0
C107 C 0.04903 0.6783 0.03618 0.0
C108 C 0.03892 0.57796 0.03647 0.0
C109 C 0.0403 0.53093 0.12109 0.0
C110 C 0.03013 0.43462 0.12012 0.0
C111 C 0.03176 0.3892 0.20563 0.0
C112 C 0.04326 0.43758 0.28943 0.0
C113 C 0.05405 0.5322 0.29035 0.0
C114 C 0.05302 0.57892 0.20747 0.0
H115 H 0.09102 0.33033 0.98014 0.0
C116 C 0.05067 0.26986 1.0074 0.0
H117 H 0.97004 0.22707 0.06478 0.0
H118 H 0.03418 0.6482 0.86201 0.0
H119 H 1.01454 0.56275 0.71711 0.0
H120 H 0.9952 0.39455 0.71549 0.0
H121 H 0.99591 0.31123 0.85871 0.0
C122 C 1.00971 0.28612 1.03498 0.0
C123 C 1.01983 0.38647 1.03469 0.0
C124 C 1.01845 0.4335 0.95007 0.0
C125 C 1.02862 0.52981 0.95104 0.0
C126 C 1.027 0.57523 0.86553 0.0
C127 C 1.01553 0.52686 0.78173 0.0
C128 C 1.00473 0.43225 0.78081 0.0
C129 C 1.00575 0.38552 0.8637 0.0
loop_
_geom_bond_atom_site_label_1
_geom_bond_atom_site_label_2
_geom_bond_distance
_geom_bond_site_symmetry_2
_ccdc_geom_bond_type
Pr0 C2 2.880 . S
Pr0 O20 2.562 1_556 S
Pr0 O21 2.490 . S
Pr0 O22 2.695 1_655 S
Pr0 O23 2.512 . S
Pr0 O25 2.437 1_565 S
Pr0 O28 2.436 1_566 S
Pr0 O30 2.438 . S
Pr1 C11 2.880 . S
Pr1 O22 2.436 1_544 S
Pr1 O24 2.438 . S
Pr1 O26 2.562 1_554 S
Pr1 O27 2.490 . S
Pr1 O28 2.695 1_455 S
Pr1 O29 2.512 . S
Pr1 O31 2.437 1_545 S
C2 Pr0 2.880 . S
C2 C3 1.491 . S
C2 O20 1.254 1_556 S
C2 O21 1.225 . S
C3 C2 1.491 . S
C3 C4 1.392 . S
C3 C8 1.356 1_566 S
C4 C3 1.392 . S
C4 C5 1.368 . S
C4 H32 0.929 . S
C5 C4 1.368 . S
C5 C6 1.386 . S
C5 H33 0.929 . S
C6 C5 1.386 . S
C6 C7 1.373 1_566 S
C7 C6 1.373 1_544 S
C7 C8 1.409 . S
C7 H34 0.931 . S
C8 C3 1.356 1_544 S
C8 C7 1.409 . S
C8 H35 0.930 . S
C9 O22 1.270 1_655 S
C9 O23 1.248 . S
C10 O24 1.267 1_556 S
C10 O25 1.278 1_455 S
C11 Pr1 2.880 . S
C11 C12 1.491 . S
C11 O26 1.254 1_554 S
C11 O27 1.225 . S
C12 C11 1.491 . S
C12 C13 1.392 . S
C12 C17 1.356 1_544 S
C13 C12 1.392 . S
C13 C14 1.368 . S
C13 H36 0.929 . S
C14 C13 1.368 . S
C14 C15 1.386 . S
C14 H37 0.929 . S
C15 C14 1.386 . S
C15 C16 1.373 1_544 S
C16 C15 1.373 1_566 S
C16 C17 1.409 . S
C16 H38 0.931 . S
C17 C12 1.356 1_566 S
C17 C16 1.409 . S
C17 H39 0.930 . S
C18 O28 1.270 1_455 S
C18 O29 1.248 . S
C19 O30 1.267 1_554 S
C19 O31 1.278 1_655 S
O20 Pr0 2.562 1_554 S
O20 C2 1.254 1_554 S
O21 Pr0 2.490 . S
O21 C2 1.225 . S
O22 Pr0 2.695 1_455 S
O22 Pr1 2.436 1_566 S
O22 C9 1.270 1_455 S
O23 Pr0 2.512 . S
O23 C9 1.248 . S
O24 Pr1 2.438 . S
O24 C10 1.267 1_554 S
O25 Pr0 2.437 1_545 S
O25 C10 1.278 1_655 S
O26 Pr1 2.562 1_556 S
O26 C11 1.254 1_556 S
O27 Pr1 2.490 . S
O27 C11 1.225 . S
O28 Pr0 2.436 1_544 S
O28 Pr1 2.695 1_655 S
O28 C18 1.270 1_655 S
O29 Pr1 2.512 . S
O29 C18 1.248 . S
O30 Pr0 2.438 . S
O30 C19 1.267 1_556 S
O31 Pr1 2.437 1_565 S
O31 C19 1.278 1_455 S
H32 C4 0.929 . S
H33 C5 0.929 . S
H34 C7 0.931 . S
H35 C8 0.930 . S
H36 C13 0.929 . S
H37 C14 0.929 . S
H38 C16 0.931 . S
H39 C17 0.930 . S
H40 C41 0.951 . S
C41 H40 0.951 . S
C41 C47 1.265 1_445 S
H42 C47 0.950 . S
H43 C51 0.949 . S
H44 C52 0.950 . S
H45 C53 0.951 . S
H46 C54 0.951 . S
C47 C41 1.265 1_665 S
C47 H42 0.950 . S
C47 C48 1.478 . S
C48 C47 1.478 . S
C48 C49 1.397 . S
C48 C65 1.394 1_665 S
C49 C48 1.397 . S
C49 C50 1.438 . S
C49 C54 1.429 . S
C50 C49 1.438 . S
C50 C51 1.428 . S
C50 C63 1.394 1_665 S
C51 H43 0.949 . S
C51 C50 1.428 . S
C51 C52 1.345 . S
C52 H44 0.950 . S
C52 C51 1.345 . S
C52 C53 1.424 . S
C53 H45 0.951 . S
C53 C52 1.424 . S
C53 C54 1.347 . S
C54 H46 0.951 . S
C54 C49 1.429 . S
C54 C53 1.347 . S
H55 C56 0.951 . S
C56 H55 0.951 . S
C56 C62 1.265 1_665 S
H57 C62 0.950 . S
H58 C66 0.949 . S
H59 C67 0.950 . S
H60 C68 0.951 . S
H61 C69 0.951 . S
C62 C56 1.265 1_445 S
C62 H57 0.950 . S
C62 C63 1.478 . S
C63 C50 1.394 1_445 S
C63 C62 1.478 . S
C63 C64 1.397 . S
C64 C63 1.397 . S
C64 C65 1.438 . S
C64 C69 1.429 . S
C65 C48 1.394 1_445 S
C65 C64 1.438 . S
C65 C66 1.428 . S
C66 H58 0.949 . S
C66 C65 1.428 . S
C66 C67 1.345 . S
C67 H59 0.950 . S
C67 C66 1.345 . S
C67 C68 1.424 . S
C68 H60 0.951 . S
C68 C67 1.424 . S
C68 C69 1.347 . S
C69 H61 0.951 . S
C69 C64 1.429 . S
C69 C68 1.347 . S
H70 C71 0.951 . S
C71 H70 0.951 . S
C71 C77 1.265 1_544 S
H72 C77 0.950 . S
H73 C81 0.949 . S
H74 C82 0.950 . S
H75 C83 0.951 . S
H76 C84 0.951 . S
C77 C71 1.265 1_566 S
C77 H72 0.950 . S
C77 C78 1.478 . S
C78 C77 1.478 . S
C78 C79 1.397 . S
C78 C95 1.394 1_566 S
C79 C78 1.397 . S
C79 C80 1.438 . S
C79 C84 1.429 . S
C80 C79 1.438 . S
C80 C81 1.428 . S
C80 C93 1.394 1_566 S
C81 H73 0.949 . S
C81 C80 1.428 . S
C81 C82 1.345 . S
C82 H74 0.950 . S
C82 C81 1.345 . S
C82 C83 1.424 . S
C83 H75 0.951 . S
C83 C82 1.424 . S
C83 C84 1.347 . S
C84 H76 0.951 . S
C84 C79 1.429 . S
C84 C83 1.347 . S
H85 C86 0.952 . S
C86 H85 0.952 . S
C86 C92 1.263 1_566 S
H87 C92 0.950 . S
H88 C96 0.949 . S
H89 C97 0.950 . S
H90 C98 0.951 . S
H91 C99 0.951 . S
C92 C86 1.263 1_544 S
C92 H87 0.950 . S
C92 C93 1.478 . S
C93 C80 1.394 1_544 S
C93 C92 1.478 . S
C93 C94 1.397 . S
C94 C93 1.397 . S
C94 C95 1.438 . S
C94 C99 1.429 . S
C95 C78 1.394 1_544 S
C95 C94 1.438 . S
C95 C96 1.428 . S
C96 H88 0.949 . S
C96 C95 1.428 . S
C96 C97 1.345 . S
C97 H89 0.950 . S
C97 C96 1.345 . S
C97 C98 1.424 . S
C98 H90 0.951 . S
C98 C97 1.424 . S
C98 C99 1.347 . S
C99 H91 0.951 . S
C99 C94 1.429 . S
C99 C98 1.347 . S
H100 C101 0.951 . S
C101 H100 0.951 . S
C101 C107 1.265 1_656 S
H102 C107 0.950 . S
H103 C111 0.949 . S
H104 C112 0.950 . S
H105 C113 0.951 . S
H106 C114 0.951 . S
C107 C101 1.265 1_454 S
C107 H102 0.950 . S
C107 C108 1.478 . S
C108 C107 1.478 . S
C108 C109 1.397 . S
C108 C125 1.394 1_554 S
C109 C108 1.397 . S
C109 C110 1.438 1_455 S
C109 C114 1.429 . S
C110 C109 1.438 1_655 S
C110 C111 1.428 . S
C110 C123 1.394 1_554 S
C111 H103 0.949 . S
C111 C110 1.428 . S
C111 C112 1.345 . S
C112 H104 0.950 . S
C112 C111 1.345 . S
C112 C113 1.424 1_655 S
C113 H105 0.951 . S
C113 C112 1.424 1_455 S
C113 C114 1.347 . S
C114 H106 0.951 . S
C114 C109 1.429 . S
C114 C113 1.347 . S
H115 C116 0.951 . S
C116 H115 0.951 . S
C116 C122 1.265 1_454 S
H117 C122 0.950 . S
H118 C126 0.949 . S
H119 C127 0.950 . S
H120 C128 0.951 . S
H121 C129 0.951 . S
C122 C116 1.265 1_656 S
C122 H117 0.950 . S
C122 C123 1.478 . S
C123 C110 1.394 1_556 S
C123 C122 1.478 . S
C123 C124 1.397 . S
C124 C123 1.397 . S
C124 C125 1.438 1_655 S
C124 C129 1.429 . S
C125 C108 1.394 1_556 S
C125 C124 1.438 1_455 S
C125 C126 1.428 . S
C126 H118 0.949 . S
C126 C125 1.428 . S
C126 C127 1.345 . S
C127 H119 0.950 . S
C127 C126 1.345 . S
C127 C128 1.424 1_455 S
C128 H120 0.951 . S
C128 C127 1.424 1_655 S
C128 C129 1.347 . S
C129 H121 0.951 . S
C129 C124 1.429 . S
C129 C128 1.347 . S
C41 C18 1.399 . S
C56 C9 1.399 . S
C71 C15 1.484 . S
C86 C6 1.485 . S
C101 C19 1.479 1_556 S
C116 C10 1.479 1_554 S
