# Generated by pormake.
# Topology upa, (4)-cn, num edge types: 1
# Building blocks:
#     Node 0, Type 0, BuildingBlock: NAHDIM_clean_sbu_0, # of connection points: 4
#     Node 1, Type 0, BuildingBlock: NAHDIM_clean_sbu_0, # of connection points: 4
#     Node 2, Type 0, BuildingBlock: NAHDIM_clean_sbu_0, # of connection points: 4
#     Node 3, Type 0, BuildingBlock: NAHDIM_clean_sbu_0, # of connection points: 4
#     Node 4, Type 0, BuildingBlock: NAHDIM_clean_sbu_0, # of connection points: 4
#     Node 5, Type 0, BuildingBlock: NAHDIM_clean_sbu_0, # of connection points: 4
#     Node 6, Type 0, BuildingBlock: NAHDIM_clean_sbu_0, # of connection points: 4
#     Node 7, Type 0, BuildingBlock: NAHDIM_clean_sbu_0, # of connection points: 4
#     Edge 8, Type (0, 0), None
#     Edge 9, Type (0, 0), None
#     Edge 10, Type (0, 0), None
#     Edge 11, Type (0, 0), None
#     Edge 12, Type (0, 0), None
#     Edge 13, Type (0, 0), None
#     Edge 14, Type (0, 0), None
#     Edge 15, Type (0, 0), None
#     Edge 16, Type (0, 0), None
#     Edge 17, Type (0, 0), None
#     Edge 18, Type (0, 0), None
#     Edge 19, Type (0, 0), None
#     Edge 20, Type (0, 0), None
#     Edge 21, Type (0, 0), None
#     Edge 22, Type (0, 0), None
#     Edge 23, Type (0, 0), None
# Relax obj value: 0.280
# Max RMSD: 0.209
# Mean RMSD: 0.209
data_MOF--net-upa--node1-NAHDIM_clean_sbu_0--edge1-none
_symmetry_space_group_name_H-M    P1
_symmetry_Int_Tables_number       1
_symmetry_cell_setting            triclinic
loop_
_symmetry_equiv_pos_as_xyz
'x, y, z'
_cell_length_a     12.18837
_cell_length_b     12.189074
_cell_length_c     18.279268
_cell_angle_alpha  90.026457
_cell_angle_beta   89.97259
_cell_angle_gamma 89.998702
loop_
_atom_site_label
_atom_site_type_symbol
_atom_site_fract_x
_atom_site_fract_y
_atom_site_fract_z
_atom_type_partial_charge
C0 C 0.45884 0.13392 0.27498 0.0
O1 O 0.47688 0.13154 0.34577 0.0
O2 O 0.13497 0.2963 0.26196 0.0
Zn3 Zn 0.22861 0.18152 0.31504 0.0
O4 O 0.27836 0.20704 0.41999 0.0
C5 C 0.03027 0.04829 0.3269 0.0
O6 O 0.98 0.14177 0.33692 0.0
O7 O 0.36206 0.15114 0.25143 0.0
C8 C 0.26009 0.28255 0.4663 0.0
O9 O 0.2011 0.36814 0.448 0.0
C10 C 0.05124 0.34792 0.28539 0.0
O11 O 0.03173 0.35189 0.35593 0.0
O12 O 0.1339 0.0452 0.31776 0.0
C13 C 0.36156 0.95875 0.77537 0.0
O14 O 0.36374 0.97689 0.84616 0.0
O15 O 0.19926 0.63489 0.7623 0.0
Zn16 Zn 0.31411 0.72853 0.81538 0.0
O17 O 0.28869 0.77836 0.92036 0.0
C18 C 0.44735 0.53018 0.82709 0.0
O19 O 0.35387 0.4799 0.83703 0.0
O20 O 0.34449 0.86192 0.7518 0.0
C21 C 0.21319 0.76011 0.96666 0.0
O22 O 0.12759 0.7011 0.94834 0.0
C23 C 0.14765 0.55117 0.78572 0.0
O24 O 0.14377 0.53168 0.85625 0.0
O25 O 0.45044 0.63381 0.81804 0.0
C26 C 0.53769 0.86179 0.27522 0.0
O27 O 0.51964 0.86424 0.34602 0.0
O28 O 0.86156 0.69933 0.26229 0.0
Zn29 Zn 0.7679 0.8144 0.31523 0.0
O30 O 0.71791 0.78896 0.42014 0.0
C31 C 0.96635 0.94764 0.32674 0.0
O32 O 0.01677 0.85409 0.33596 0.0
O33 O 0.63451 0.84465 0.25162 0.0
C34 C 0.73565 0.71321 0.4663 0.0
O35 O 0.79422 0.62735 0.44785 0.0
C36 C 0.94518 0.64772 0.28584 0.0
O37 O 0.96457 0.64422 0.3564 0.0
O38 O 0.86264 0.95077 0.31809 0.0
C39 C 0.63378 0.03773 0.77492 0.0
O40 O 0.63124 0.01971 0.84571 0.0
O41 O 0.79616 0.36165 0.76197 0.0
Zn42 Zn 0.68131 0.26792 0.81503 0.0
O43 O 0.70703 0.21793 0.91988 0.0
C44 C 0.54801 0.46626 0.82688 0.0
O45 O 0.64157 0.51665 0.83617 0.0
O46 O 0.651 0.13451 0.75136 0.0
C47 C 0.78272 0.23594 0.96605 0.0
O48 O 0.86836 0.29484 0.94764 0.0
C49 C 0.84785 0.4453 0.78546 0.0
O50 O 0.85161 0.46476 0.85601 0.0
O51 O 0.54489 0.36257 0.81807 0.0
C52 C 0.95882 0.36163 0.2346 0.0
O53 O 0.97695 0.36388 0.16381 0.0
O54 O 0.635 0.19925 0.24765 0.0
Zn55 Zn 0.72861 0.31417 0.19462 0.0
O56 O 0.77843 0.2888 0.08964 0.0
C57 C 0.53021 0.44737 0.183 0.0
O58 O 0.47993 0.35388 0.1731 0.0
O59 O 0.86201 0.34452 0.25819 0.0
C60 C 0.7603 0.21324 0.04336 0.0
O61 O 0.70143 0.12756 0.06168 0.0
C62 C 0.55132 0.14761 0.22418 0.0
O63 O 0.53179 0.14381 0.15365 0.0
O64 O 0.63385 0.45047 0.19199 0.0
C65 C 0.13393 0.45873 0.73489 0.0
O66 O 0.13162 0.47683 0.66411 0.0
O67 O 0.29624 0.13484 0.74795 0.0
Zn68 Zn 0.18153 0.22852 0.69482 0.0
O69 O 0.20718 0.27834 0.58989 0.0
C70 C 0.04829 0.03023 0.68287 0.0
O71 O 0.14179 0.97998 0.6729 0.0
O72 O 0.15111 0.36194 0.75844 0.0
C73 C 0.28267 0.25994 0.54359 0.0
O74 O 0.36812 0.20072 0.56186 0.0
C75 C 0.34795 0.05114 0.72455 0.0
O76 O 0.35201 0.03153 0.65403 0.0
O77 O 0.04518 0.13386 0.69201 0.0
C78 C 0.03771 0.63367 0.2351 0.0
O79 O 0.0197 0.63103 0.16431 0.0
O80 O 0.36162 0.79616 0.24801 0.0
Zn81 Zn 0.2679 0.68126 0.195 0.0
O82 O 0.21792 0.7069 0.09014 0.0
C83 C 0.46627 0.54801 0.18319 0.0
O84 O 0.51664 0.64156 0.17386 0.0
O85 O 0.13448 0.65098 0.25867 0.0
C86 C 0.23586 0.7826 0.04396 0.0
O87 O 0.2947 0.86829 0.06234 0.0
C88 C 0.44522 0.84787 0.22447 0.0
O89 O 0.46473 0.85159 0.15393 0.0
O90 O 0.36257 0.54487 0.19201 0.0
C91 C 0.8618 0.53774 0.7347 0.0
O92 O 0.86423 0.51962 0.66391 0.0
O93 O 0.69941 0.86164 0.74766 0.0
Zn94 Zn 0.81439 0.76791 0.69466 0.0
O95 O 0.78884 0.71787 0.58977 0.0
C96 C 0.94764 0.9663 0.68301 0.0
O97 O 0.85408 0.01668 0.67373 0.0
O98 O 0.84466 0.63455 0.75829 0.0
C99 C 0.71312 0.73576 0.54362 0.0
O100 O 0.6274 0.79456 0.56204 0.0
C101 C 0.64771 0.94523 0.72414 0.0
O102 O 0.64408 0.96471 0.65361 0.0
O103 O 0.95078 0.8626 0.69174 0.0
loop_
_geom_bond_atom_site_label_1
_geom_bond_atom_site_label_2
_geom_bond_distance
_geom_bond_site_symmetry_2
_ccdc_geom_bond_type
C0 O1 1.160 . S
C0 O7 1.185 . S
O1 C0 1.160 . S
O2 Zn3 1.899 . S
O2 C10 1.284 1_455 S
Zn3 O2 1.899 . S
Zn3 O4 2.032 . S
Zn3 O7 2.086 . S
Zn3 O12 1.977 . S
O4 Zn3 2.032 . S
O4 C8 1.278 . S
C5 O6 1.203 1_465 S
C5 O12 1.267 1_565 S
O6 C5 1.203 1_645 S
O7 C0 1.185 . S
O7 Zn3 2.086 . S
C8 O4 1.278 . S
C8 O9 1.211 . S
O9 C8 1.211 . S
C10 O2 1.284 1_655 S
C10 O11 1.273 . S
O11 C10 1.273 . S
O12 Zn3 1.977 . S
O12 C5 1.267 1_545 S
C13 O14 1.160 . S
C13 O20 1.185 . S
O14 C13 1.160 . S
O15 Zn16 1.899 . S
O15 C23 1.284 . S
Zn16 O15 1.899 . S
Zn16 O17 2.032 . S
Zn16 O20 2.086 . S
Zn16 O25 1.977 . S
O17 Zn16 2.032 . S
O17 C21 1.278 . S
C18 O19 1.203 . S
C18 O25 1.267 . S
O19 C18 1.203 . S
O20 C13 1.185 . S
O20 Zn16 2.086 . S
C21 O17 1.278 . S
C21 O22 1.211 . S
O22 C21 1.211 . S
C23 O15 1.284 . S
C23 O24 1.273 . S
O24 C23 1.273 . S
O25 Zn16 1.977 . S
O25 C18 1.267 . S
C26 O27 1.160 . S
C26 O33 1.185 . S
O27 C26 1.160 . S
O28 Zn29 1.899 . S
O28 C36 1.284 1_655 S
Zn29 O28 1.899 . S
Zn29 O30 2.032 . S
Zn29 O33 2.086 . S
Zn29 O38 1.977 . S
O30 Zn29 2.032 . S
O30 C34 1.278 . S
C31 O32 1.203 1_645 S
C31 O38 1.267 1_545 S
O32 C31 1.203 1_465 S
O33 C26 1.185 . S
O33 Zn29 2.086 . S
C34 O30 1.278 . S
C34 O35 1.211 . S
O35 C34 1.211 . S
C36 O28 1.284 1_455 S
C36 O37 1.273 . S
O37 C36 1.273 . S
O38 Zn29 1.977 . S
O38 C31 1.267 1_565 S
C39 O40 1.160 . S
C39 O46 1.185 . S
O40 C39 1.160 . S
O41 Zn42 1.899 . S
O41 C49 1.284 . S
Zn42 O41 1.899 . S
Zn42 O43 2.032 . S
Zn42 O46 2.086 . S
Zn42 O51 1.977 . S
O43 Zn42 2.032 . S
O43 C47 1.278 . S
C44 O45 1.203 . S
C44 O51 1.267 . S
O45 C44 1.203 . S
O46 C39 1.185 . S
O46 Zn42 2.086 . S
C47 O43 1.278 . S
C47 O48 1.211 . S
O48 C47 1.211 . S
C49 O41 1.284 . S
C49 O50 1.273 . S
O50 C49 1.273 . S
O51 Zn42 1.977 . S
O51 C44 1.267 . S
C52 O53 1.160 . S
C52 O59 1.185 . S
O53 C52 1.160 . S
O54 Zn55 1.899 . S
O54 C62 1.284 . S
Zn55 O54 1.899 . S
Zn55 O56 2.032 . S
Zn55 O59 2.086 . S
Zn55 O64 1.977 . S
O56 Zn55 2.032 . S
O56 C60 1.278 . S
C57 O58 1.203 . S
C57 O64 1.267 . S
O58 C57 1.203 . S
O59 C52 1.185 . S
O59 Zn55 2.086 . S
C60 O56 1.278 . S
C60 O61 1.211 . S
O61 C60 1.211 . S
C62 O54 1.284 . S
C62 O63 1.273 . S
O63 C62 1.273 . S
O64 Zn55 1.977 . S
O64 C57 1.267 . S
C65 O66 1.160 . S
C65 O72 1.185 . S
O66 C65 1.160 . S
O67 Zn68 1.899 . S
O67 C75 1.284 1_545 S
Zn68 O67 1.899 . S
Zn68 O69 2.032 . S
Zn68 O72 2.086 . S
Zn68 O77 1.977 . S
O69 Zn68 2.032 . S
O69 C73 1.278 . S
C70 O71 1.203 1_645 S
C70 O77 1.267 1_655 S
O71 C70 1.203 1_465 S
O72 C65 1.185 . S
O72 Zn68 2.086 . S
C73 O69 1.278 . S
C73 O74 1.211 . S
O74 C73 1.211 . S
C75 O67 1.284 1_565 S
C75 O76 1.273 . S
O76 C75 1.273 . S
O77 Zn68 1.977 . S
O77 C70 1.267 1_455 S
C78 O79 1.160 . S
C78 O85 1.185 . S
O79 C78 1.160 . S
O80 Zn81 1.899 . S
O80 C88 1.284 . S
Zn81 O80 1.899 . S
Zn81 O82 2.032 . S
Zn81 O85 2.086 . S
Zn81 O90 1.977 . S
O82 Zn81 2.032 . S
O82 C86 1.278 . S
C83 O84 1.203 . S
C83 O90 1.267 . S
O84 C83 1.203 . S
O85 C78 1.185 . S
O85 Zn81 2.086 . S
C86 O82 1.278 . S
C86 O87 1.211 . S
O87 C86 1.211 . S
C88 O80 1.284 . S
C88 O89 1.273 . S
O89 C88 1.273 . S
O90 Zn81 1.977 . S
O90 C83 1.267 . S
C91 O92 1.160 . S
C91 O98 1.185 . S
O92 C91 1.160 . S
O93 Zn94 1.899 . S
O93 C101 1.284 1_565 S
Zn94 O93 1.899 . S
Zn94 O95 2.032 . S
Zn94 O98 2.086 . S
Zn94 O103 1.977 . S
O95 Zn94 2.032 . S
O95 C99 1.278 . S
C96 O97 1.203 1_465 S
C96 O103 1.267 1_455 S
O97 C96 1.203 1_645 S
O98 C91 1.185 . S
O98 Zn94 2.086 . S
C99 O95 1.278 . S
C99 O100 1.211 . S
O100 C99 1.211 . S
C101 O93 1.284 1_545 S
C101 O102 1.273 . S
O102 C101 1.273 . S
O103 Zn94 1.977 . S
O103 C96 1.267 1_655 S
C5 C31 0.637 1_465 S
C18 C44 0.637 . S
C57 C83 0.637 . S
C70 C96 0.637 1_645 S
C8 C73 1.634 . S
C21 C86 1.634 1_556 S
C99 C34 1.634 . S
C47 C60 1.634 1_556 S
C62 C0 2.214 . S
C13 C75 2.214 . S
C26 C88 2.214 . S
C39 C101 2.214 . S
C10 C52 2.214 . S
C65 C23 2.214 . S
C78 C36 2.214 . S
C49 C91 2.214 . S
