# Generated by pormake.
# Topology dia, (4)-cn, num edge types: 1
# Building blocks:
#     Node 0, Type 0, BuildingBlock: NAHDIM_clean_sbu_0, # of connection points: 4
#     Node 1, Type 0, BuildingBlock: NAHDIM_clean_sbu_0, # of connection points: 4
#     Node 2, Type 0, BuildingBlock: NAHDIM_clean_sbu_0, # of connection points: 4
#     Node 3, Type 0, BuildingBlock: NAHDIM_clean_sbu_0, # of connection points: 4
#     Node 4, Type 0, BuildingBlock: NAHDIM_clean_sbu_0, # of connection points: 4
#     Node 5, Type 0, BuildingBlock: NAHDIM_clean_sbu_0, # of connection points: 4
#     Node 6, Type 0, BuildingBlock: NAHDIM_clean_sbu_0, # of connection points: 4
#     Node 7, Type 0, BuildingBlock: NAHDIM_clean_sbu_0, # of connection points: 4
#     Edge 8, Type (0, 0), BuildingBlock: OJICUG_clean_linker_0, # of connection points: 2
#     Edge 9, Type (0, 0), BuildingBlock: OJICUG_clean_linker_0, # of connection points: 2
#     Edge 10, Type (0, 0), BuildingBlock: OJICUG_clean_linker_0, # of connection points: 2
#     Edge 11, Type (0, 0), BuildingBlock: OJICUG_clean_linker_0, # of connection points: 2
#     Edge 12, Type (0, 0), BuildingBlock: OJICUG_clean_linker_0, # of connection points: 2
#     Edge 13, Type (0, 0), BuildingBlock: OJICUG_clean_linker_0, # of connection points: 2
#     Edge 14, Type (0, 0), BuildingBlock: OJICUG_clean_linker_0, # of connection points: 2
#     Edge 15, Type (0, 0), BuildingBlock: OJICUG_clean_linker_0, # of connection points: 2
#     Edge 16, Type (0, 0), BuildingBlock: OJICUG_clean_linker_0, # of connection points: 2
#     Edge 17, Type (0, 0), BuildingBlock: OJICUG_clean_linker_0, # of connection points: 2
#     Edge 18, Type (0, 0), BuildingBlock: OJICUG_clean_linker_0, # of connection points: 2
#     Edge 19, Type (0, 0), BuildingBlock: OJICUG_clean_linker_0, # of connection points: 2
#     Edge 20, Type (0, 0), BuildingBlock: OJICUG_clean_linker_0, # of connection points: 2
#     Edge 21, Type (0, 0), BuildingBlock: OJICUG_clean_linker_0, # of connection points: 2
#     Edge 22, Type (0, 0), BuildingBlock: OJICUG_clean_linker_0, # of connection points: 2
#     Edge 23, Type (0, 0), BuildingBlock: OJICUG_clean_linker_0, # of connection points: 2
# Relax obj value: 0.005
# Max RMSD: 0.032
# Mean RMSD: 0.032
data_MOF--net-dia--node1-NAHDIM_clean_sbu_0--edge1-OJICUG_clean_linker_0
_symmetry_space_group_name_H-M    P1
_symmetry_Int_Tables_number       1
_symmetry_cell_setting            triclinic
loop_
_symmetry_equiv_pos_as_xyz
'x, y, z'
_cell_length_a     27.350869
_cell_length_b     25.15069
_cell_length_c     25.113568
_cell_angle_alpha  88.476974
_cell_angle_beta   94.612211
_cell_angle_gamma 94.539838
loop_
_atom_site_label
_atom_site_type_symbol
_atom_site_fract_x
_atom_site_fract_y
_atom_site_fract_z
_atom_type_partial_charge
C0 C 0.06435 0.16145 0.72138 0.0
O1 O 0.07432 0.11287 0.73672 0.0
O2 O 0.15796 0.08848 0.67864 0.0
Zn3 Zn 0.11599 0.13611 0.63091 0.0
O4 O 0.06545 0.09269 0.58379 0.0
C5 C 0.19932 0.17603 0.57083 0.0
O6 O 0.21725 0.13055 0.58557 0.0
O7 O 0.07896 0.18026 0.67741 0.0
C8 C 0.07412 0.07412 0.53921 0.0
O9 O 0.11832 0.08245 0.52224 0.0
C10 C 0.17423 0.04574 0.66374 0.0
O11 O 0.16404 0.03032 0.61428 0.0
O12 O 0.15772 0.18629 0.58557 0.0
C13 C 0.94707 0.28332 0.84786 0.0
O14 O 0.93853 0.26776 0.89683 0.0
O15 O 0.84514 0.3141 0.91633 0.0
Zn16 Zn 0.88466 0.36559 0.87039 0.0
O17 O 0.92782 0.41651 0.91762 0.0
C18 C 0.82276 0.44934 0.82926 0.0
O19 O 0.83594 0.47126 0.87565 0.0
O20 O 0.92787 0.32452 0.82795 0.0
C21 C 0.95115 0.4572 0.8981 0.0
O22 O 0.94645 0.46638 0.84626 0.0
C23 C 0.80726 0.32714 0.93751 0.0
O24 O 0.79308 0.37555 0.92922 0.0
O25 O 0.83901 0.40508 0.81887 0.0
C26 C 0.56323 0.16017 0.21999 0.0
O27 O 0.57251 0.11122 0.2347 0.0
O28 O 0.65784 0.08806 0.17801 0.0
Zn29 Zn 0.61578 0.13546 0.13011 0.0
O30 O 0.56537 0.09187 0.08301 0.0
C31 C 0.69905 0.1756 0.07005 0.0
O32 O 0.71705 0.13014 0.08471 0.0
O33 O 0.5786 0.17949 0.17656 0.0
C34 C 0.57408 0.07312 0.03853 0.0
O35 O 0.61831 0.08133 0.02161 0.0
C36 C 0.67432 0.04538 0.16326 0.0
O37 O 0.6643 0.0298 0.11383 0.0
O38 O 0.65743 0.18575 0.08481 0.0
C39 C 0.93891 0.77842 0.32457 0.0
O40 O 0.93141 0.76588 0.37454 0.0
O41 O 0.83831 0.81281 0.39186 0.0
Zn42 Zn 0.87991 0.86289 0.3463 0.0
O43 O 0.92893 0.91088 0.39113 0.0
C44 C 0.79756 0.92476 0.31122 0.0
O45 O 0.78622 0.91681 0.36078 0.0
O46 O 0.91958 0.81874 0.3028 0.0
C47 C 0.9198 0.95356 0.41314 0.0
O48 O 0.87503 0.96936 0.4079 0.0
C49 C 0.82692 0.82323 0.43834 0.0
O50 O 0.84286 0.86916 0.45954 0.0
O51 O 0.83583 0.90574 0.29624 0.0
C52 C 0.06818 0.65852 0.21123 0.0
O53 O 0.07946 0.611 0.22878 0.0
O54 O 0.17554 0.59683 0.185 0.0
Zn55 Zn 0.13277 0.63685 0.13126 0.0
O56 O 0.09194 0.58589 0.08182 0.0
C57 C 0.20012 0.67232 0.0523 0.0
O58 O 0.19503 0.62175 0.03956 0.0
O59 O 0.08692 0.67829 0.16972 0.0
C60 C 0.07348 0.60198 0.03675 0.0
O61 O 0.08175 0.65229 0.02235 0.0
C62 C 0.19271 0.5533 0.17391 0.0
O63 O 0.18171 0.53323 0.12629 0.0
O64 O 0.17668 0.68798 0.08992 0.0
C65 C 0.44615 0.28178 0.34695 0.0
O66 O 0.43697 0.26562 0.39558 0.0
O67 O 0.34523 0.31363 0.41626 0.0
Zn68 Zn 0.38476 0.36488 0.37008 0.0
O69 O 0.42815 0.41578 0.4171 0.0
C70 C 0.32306 0.44883 0.3291 0.0
O71 O 0.33652 0.47076 0.37542 0.0
O72 O 0.42773 0.3236 0.32752 0.0
C73 C 0.4516 0.45631 0.39744 0.0
O74 O 0.44691 0.46531 0.34557 0.0
C75 C 0.30751 0.32689 0.43759 0.0
O76 O 0.29347 0.37535 0.42927 0.0
O77 O 0.33908 0.40446 0.31867 0.0
C78 C 0.4371 0.77651 0.82306 0.0
O79 O 0.42858 0.76283 0.87251 0.0
O80 O 0.33784 0.81212 0.89148 0.0
Zn81 Zn 0.37948 0.86205 0.8458 0.0
O82 O 0.4287 0.90989 0.89057 0.0
C83 C 0.29722 0.92417 0.81105 0.0
O84 O 0.28591 0.91609 0.86061 0.0
O85 O 0.41892 0.81784 0.80207 0.0
C86 C 0.41967 0.95265 0.91249 0.0
O87 O 0.37495 0.96859 0.90717 0.0
C88 C 0.3267 0.82259 0.93805 0.0
O89 O 0.34294 0.86844 0.95922 0.0
O90 O 0.33541 0.90512 0.79594 0.0
C91 C 0.56653 0.65733 0.7092 0.0
O92 O 0.57677 0.60915 0.72567 0.0
O93 O 0.67526 0.59686 0.6845 0.0
Zn94 Zn 0.63261 0.63672 0.63051 0.0
O95 O 0.59208 0.5856 0.58098 0.0
C96 C 0.7003 0.67244 0.55195 0.0
O97 O 0.69549 0.62185 0.53926 0.0
O98 O 0.58648 0.67796 0.66875 0.0
C99 C 0.57384 0.6015 0.53574 0.0
O100 O 0.58217 0.65174 0.52115 0.0
C101 C 0.69263 0.55341 0.67351 0.0
O102 O 0.6819 0.53333 0.62585 0.0
O103 O 0.67656 0.68799 0.58938 0.0
C104 C 0.29687 0.23779 0.48415 0.0
C105 C 0.27982 0.28825 0.47162 0.0
H106 H 0.28498 0.16293 0.52541 0.0
C107 C 0.23609 0.30152 0.49203 0.0
H108 H 0.33046 0.22633 0.46912 0.0
C109 C 0.20991 0.26509 0.52417 0.0
C110 C 0.22702 0.21468 0.53683 0.0
H111 H 0.22191 0.34004 0.4831 0.0
H112 H 0.17632 0.27655 0.5392 0.0
C113 C 0.27082 0.20146 0.51651 0.0
C114 C 0.7445 0.47823 0.70175 0.0
C115 C 0.72539 0.52641 0.71361 0.0
H116 H 0.79015 0.4161 0.72884 0.0
C117 C 0.73835 0.54886 0.76395 0.0
H118 H 0.73527 0.45984 0.66336 0.0
C119 C 0.76992 0.52383 0.80148 0.0
C120 C 0.78917 0.47573 0.78956 0.0
H121 H 0.72428 0.58595 0.77439 0.0
H122 H 0.77924 0.54227 0.83983 0.0
C123 C 0.77601 0.45314 0.73932 0.0
C124 C 0.54621 0.00729 0.96729 0.0
C125 C 0.53463 0.04239 0.00618 0.0
H126 H 0.51885 0.95076 0.90766 0.0
C127 C 0.48497 0.04789 0.01389 0.0
H128 H 0.58417 0.00212 0.96061 0.0
C129 C 0.44759 0.01921 0.98297 0.0
C130 C 0.45917 0.98365 0.94452 0.0
H131 H 0.47494 0.07481 0.04346 0.0
H132 H 0.40964 0.02439 0.98968 0.0
C133 C 0.50884 0.97778 0.93714 0.0
C134 C 0.98557 0.76508 0.24464 0.0
C135 C 0.9709 0.7471 0.29482 0.0
H136 H 0.02802 0.75142 0.17902 0.0
C137 C 0.98796 0.69941 0.31689 0.0
H138 H 0.97315 0.80172 0.22656 0.0
C139 C 0.01919 0.67044 0.28952 0.0
C140 C 0.03438 0.68876 0.23968 0.0
H141 H 0.97727 0.68441 0.35544 0.0
H142 H 0.0318 0.63395 0.30775 0.0
C143 C 0.01715 0.73633 0.21746 0.0
C144 C 0.26726 0.9502 0.71789 0.0
C145 C 0.26583 0.95528 0.77331 0.0
H146 H 0.23878 0.97427 0.63976 0.0
C147 C 0.23396 0.99023 0.79243 0.0
H148 H 0.29134 0.92341 0.70201 0.0
C149 C 0.20447 0.01997 0.75682 0.0
C150 C 0.20553 0.0145 0.7014 0.0
H151 H 0.2322 0.99509 0.83494 0.0
H152 H 0.18045 0.04683 0.7727 0.0
C153 C 0.23702 0.97913 0.68228 0.0
C154 C 1.00043 0.54433 0.91418 0.0
C155 C 0.98276 0.49406 0.93345 0.0
H156 H 0.04264 0.61799 0.9318 0.0
C157 C 0.99551 0.47939 0.98686 0.0
H158 H 0.99118 0.55686 0.87326 0.0
C159 C 0.02539 0.5142 0.02026 0.0
C160 C 0.04265 0.56469 0.00115 0.0
H161 H 0.98261 0.44085 0.00287 0.0
H162 H 0.03455 0.50171 0.06123 0.0
C163 C 0.02981 0.57941 0.94778 0.0
C164 C 0.4906 0.27091 0.26488 0.0
C165 C 0.47692 0.25121 0.31489 0.0
H166 H 0.5288 0.25785 0.19585 0.0
C167 C 0.49253 0.20174 0.33378 0.0
H168 H 0.47929 0.30895 0.24922 0.0
C169 C 0.52073 0.17232 0.30306 0.0
C170 C 0.53421 0.19188 0.25294 0.0
H171 H 0.48262 0.18542 0.37213 0.0
H172 H 0.53187 0.13418 0.31864 0.0
C173 C 0.51907 0.24164 0.23431 0.0
C174 C 0.78366 0.7324 0.44897 0.0
C175 C 0.79495 0.78447 0.46768 0.0
H176 H 0.74516 0.65612 0.46104 0.0
C177 C 0.77499 0.79931 0.51443 0.0
H178 H 0.79854 0.71968 0.41312 0.0
C179 C 0.74408 0.76301 0.54165 0.0
C180 C 0.73287 0.71091 0.52301 0.0
H181 H 0.78286 0.83916 0.52983 0.0
H182 H 0.72917 0.77576 0.57747 0.0
C183 C 0.75313 0.69593 0.47649 0.0
C184 C 0.23879 0.54866 0.26414 0.0
C185 C 0.22554 0.5262 0.21386 0.0
H186 H 0.27996 0.54198 0.33984 0.0
C187 C 0.24442 0.47792 0.20191 0.0
H188 H 0.22491 0.58583 0.27465 0.0
C189 C 0.27598 0.45273 0.23935 0.0
C190 C 0.28942 0.47533 0.28954 0.0
H191 H 0.23495 0.45953 0.16357 0.0
H192 H 0.28993 0.41561 0.22882 0.0
C193 C 0.27042 0.52353 0.30154 0.0
C194 C 0.73572 0.30139 0.99165 0.0
C195 C 0.77956 0.28833 0.97134 0.0
H196 H 0.67586 0.2761 0.03857 0.0
C197 C 0.7967 0.23789 0.98379 0.0
H198 H 0.72147 0.33988 0.98279 0.0
C199 C 0.77064 0.20139 0.01597 0.0
C200 C 0.72674 0.21441 0.03619 0.0
H201 H 0.83038 0.22658 0.96883 0.0
H202 H 0.78488 0.16289 0.02481 0.0
C203 C 0.70953 0.26479 0.02362 0.0
C204 C 0.73407 0.9905 0.29224 0.0
C205 C 0.76612 0.95562 0.27331 0.0
H206 H 0.68036 0.0468 0.2722 0.0
C207 C 0.76766 0.95039 0.21792 0.0
H208 H 0.73222 0.99548 0.33472 0.0
C209 C 0.73736 0.97908 0.18216 0.0
C210 C 0.70569 0.01437 0.20109 0.0
H211 H 0.79187 0.92366 0.20219 0.0
H212 H 0.7392 0.97411 0.13967 0.0
C213 C 0.70451 0.02 0.25647 0.0
C214 C 0.94765 0.02005 0.48372 0.0
C215 C 0.95926 0.98462 0.44517 0.0
H216 H 0.97497 0.07555 0.5443 0.0
C217 C 0.00894 0.97891 0.43768 0.0
H218 H 0.9097 0.0251 0.49051 0.0
C219 C 0.04629 0.00845 0.46784 0.0
C220 C 0.03468 0.0434 0.50684 0.0
H221 H 0.01898 0.952 0.40811 0.0
H222 H 0.08425 0.00339 0.46107 0.0
C223 C 0.98501 0.04874 0.51465 0.0
C224 C 0.99443 0.20385 0.83545 0.0
C225 C 0.97795 0.25275 0.81595 0.0
H226 H 0.03449 0.13667 0.82091 0.0
C227 C 0.99086 0.27183 0.76544 0.0
H228 H 0.98515 0.18801 0.87419 0.0
C229 C 0.01937 0.24251 0.73499 0.0
C230 C 0.03535 0.19329 0.75423 0.0
H231 H 0.97887 0.30943 0.7493 0.0
H232 H 0.02846 0.25822 0.69613 0.0
C233 C 0.02269 0.17437 0.80485 0.0
C234 C 0.51603 0.66786 0.78657 0.0
C235 C 0.53258 0.68734 0.73768 0.0
H236 H 0.47303 0.68076 0.85188 0.0
C237 C 0.51662 0.73588 0.71649 0.0
H238 H 0.52763 0.6306 0.80398 0.0
C239 C 0.485 0.76446 0.74378 0.0
C240 C 0.46902 0.74534 0.79306 0.0
H241 H 0.52856 0.75188 0.6788 0.0
H242 H 0.47361 0.80188 0.72654 0.0
C243 C 0.48476 0.69666 0.81407 0.0
C244 C 0.24419 0.76272 0.04182 0.0
C245 C 0.23266 0.71067 0.02318 0.0
H246 H 0.28321 0.8387 0.02984 0.0
C247 C 0.2526 0.6956 0.97649 0.0
H248 H 0.22954 0.77553 0.07776 0.0
C249 C 0.28311 0.73194 0.94881 0.0
C250 C 0.29472 0.78396 0.96753 0.0
H251 H 0.24438 0.65582 0.96103 0.0
H252 H 0.29774 0.71916 0.91284 0.0
C253 C 0.27509 0.79889 0.01444 0.0
C254 C 0.50107 0.54337 0.41322 0.0
C255 C 0.48328 0.49323 0.43267 0.0
H256 H 0.54335 0.61704 0.43062 0.0
C257 C 0.49589 0.47877 0.48617 0.0
H258 H 0.49194 0.55574 0.37222 0.0
C259 C 0.52575 0.51368 0.51948 0.0
C260 C 0.54311 0.56406 0.50019 0.0
H261 H 0.48289 0.44033 0.50231 0.0
H262 H 0.53478 0.50136 0.56052 0.0
C263 C 0.53044 0.57856 0.44672 0.0
loop_
_geom_bond_atom_site_label_1
_geom_bond_atom_site_label_2
_geom_bond_distance
_geom_bond_site_symmetry_2
_ccdc_geom_bond_type
C0 O1 1.160 . S
C0 O7 1.185 . S
O1 C0 1.160 . S
O2 Zn3 1.899 . S
O2 C10 1.284 . S
Zn3 O2 1.899 . S
Zn3 O4 2.032 . S
Zn3 O7 2.086 . S
Zn3 O12 1.977 . S
O4 Zn3 2.032 . S
O4 C8 1.278 . S
C5 O6 1.203 . S
C5 O12 1.267 . S
O6 C5 1.203 . S
O7 C0 1.185 . S
O7 Zn3 2.086 . S
C8 O4 1.278 . S
C8 O9 1.211 . S
O9 C8 1.211 . S
C10 O2 1.284 . S
C10 O11 1.273 . S
O11 C10 1.273 . S
O12 Zn3 1.977 . S
O12 C5 1.267 . S
C13 O14 1.160 . S
C13 O20 1.185 . S
O14 C13 1.160 . S
O15 Zn16 1.899 . S
O15 C23 1.284 . S
Zn16 O15 1.899 . S
Zn16 O17 2.032 . S
Zn16 O20 2.086 . S
Zn16 O25 1.977 . S
O17 Zn16 2.032 . S
O17 C21 1.278 . S
C18 O19 1.203 . S
C18 O25 1.267 . S
O19 C18 1.203 . S
O20 C13 1.185 . S
O20 Zn16 2.086 . S
C21 O17 1.278 . S
C21 O22 1.211 . S
O22 C21 1.211 . S
C23 O15 1.284 . S
C23 O24 1.273 . S
O24 C23 1.273 . S
O25 Zn16 1.977 . S
O25 C18 1.267 . S
C26 O27 1.160 . S
C26 O33 1.185 . S
O27 C26 1.160 . S
O28 Zn29 1.899 . S
O28 C36 1.284 . S
Zn29 O28 1.899 . S
Zn29 O30 2.032 . S
Zn29 O33 2.086 . S
Zn29 O38 1.977 . S
O30 Zn29 2.032 . S
O30 C34 1.278 . S
C31 O32 1.203 . S
C31 O38 1.267 . S
O32 C31 1.203 . S
O33 C26 1.185 . S
O33 Zn29 2.086 . S
C34 O30 1.278 . S
C34 O35 1.211 . S
O35 C34 1.211 . S
C36 O28 1.284 . S
C36 O37 1.273 . S
O37 C36 1.273 . S
O38 Zn29 1.977 . S
O38 C31 1.267 . S
C39 O40 1.160 . S
C39 O46 1.185 . S
O40 C39 1.160 . S
O41 Zn42 1.899 . S
O41 C49 1.284 . S
Zn42 O41 1.899 . S
Zn42 O43 2.032 . S
Zn42 O46 2.086 . S
Zn42 O51 1.977 . S
O43 Zn42 2.032 . S
O43 C47 1.278 . S
C44 O45 1.203 . S
C44 O51 1.267 . S
O45 C44 1.203 . S
O46 C39 1.185 . S
O46 Zn42 2.086 . S
C47 O43 1.278 . S
C47 O48 1.211 . S
O48 C47 1.211 . S
C49 O41 1.284 . S
C49 O50 1.273 . S
O50 C49 1.273 . S
O51 Zn42 1.977 . S
O51 C44 1.267 . S
C52 O53 1.160 . S
C52 O59 1.185 . S
O53 C52 1.160 . S
O54 Zn55 1.899 . S
O54 C62 1.284 . S
Zn55 O54 1.899 . S
Zn55 O56 2.032 . S
Zn55 O59 2.086 . S
Zn55 O64 1.977 . S
O56 Zn55 2.032 . S
O56 C60 1.278 . S
C57 O58 1.203 . S
C57 O64 1.267 . S
O58 C57 1.203 . S
O59 C52 1.185 . S
O59 Zn55 2.086 . S
C60 O56 1.278 . S
C60 O61 1.211 . S
O61 C60 1.211 . S
C62 O54 1.284 . S
C62 O63 1.273 . S
O63 C62 1.273 . S
O64 Zn55 1.977 . S
O64 C57 1.267 . S
C65 O66 1.160 . S
C65 O72 1.185 . S
O66 C65 1.160 . S
O67 Zn68 1.899 . S
O67 C75 1.284 . S
Zn68 O67 1.899 . S
Zn68 O69 2.032 . S
Zn68 O72 2.086 . S
Zn68 O77 1.977 . S
O69 Zn68 2.032 . S
O69 C73 1.278 . S
C70 O71 1.203 . S
C70 O77 1.267 . S
O71 C70 1.203 . S
O72 C65 1.185 . S
O72 Zn68 2.086 . S
C73 O69 1.278 . S
C73 O74 1.211 . S
O74 C73 1.211 . S
C75 O67 1.284 . S
C75 O76 1.273 . S
O76 C75 1.273 . S
O77 Zn68 1.977 . S
O77 C70 1.267 . S
C78 O79 1.160 . S
C78 O85 1.185 . S
O79 C78 1.160 . S
O80 Zn81 1.899 . S
O80 C88 1.284 . S
Zn81 O80 1.899 . S
Zn81 O82 2.032 . S
Zn81 O85 2.086 . S
Zn81 O90 1.977 . S
O82 Zn81 2.032 . S
O82 C86 1.278 . S
C83 O84 1.203 . S
C83 O90 1.267 . S
O84 C83 1.203 . S
O85 C78 1.185 . S
O85 Zn81 2.086 . S
C86 O82 1.278 . S
C86 O87 1.211 . S
O87 C86 1.211 . S
C88 O80 1.284 . S
C88 O89 1.273 . S
O89 C88 1.273 . S
O90 Zn81 1.977 . S
O90 C83 1.267 . S
C91 O92 1.160 . S
C91 O98 1.185 . S
O92 C91 1.160 . S
O93 Zn94 1.899 . S
O93 C101 1.284 . S
Zn94 O93 1.899 . S
Zn94 O95 2.032 . S
Zn94 O98 2.086 . S
Zn94 O103 1.977 . S
O95 Zn94 2.032 . S
O95 C99 1.278 . S
C96 O97 1.203 . S
C96 O103 1.267 . S
O97 C96 1.203 . S
O98 C91 1.185 . S
O98 Zn94 2.086 . S
C99 O95 1.278 . S
C99 O100 1.211 . S
O100 C99 1.211 . S
C101 O93 1.284 . S
C101 O102 1.273 . S
O102 C101 1.273 . S
O103 Zn94 1.977 . S
O103 C96 1.267 . S
C104 C105 1.387 . S
C104 H108 0.950 . S
C104 C113 1.390 . S
C105 C104 1.387 . S
C105 C107 1.387 . S
H106 C113 0.950 . S
C107 C105 1.387 . S
C107 C109 1.390 . S
C107 H111 0.950 . S
H108 C104 0.950 . S
C109 C107 1.390 . S
C109 C110 1.387 . S
C109 H112 0.950 . S
C110 C109 1.387 . S
C110 C113 1.387 . S
H111 C107 0.950 . S
H112 C109 0.950 . S
C113 C104 1.390 . S
C113 H106 0.950 . S
C113 C110 1.387 . S
C114 C115 1.387 . S
C114 H118 0.950 . S
C114 C123 1.390 . S
C115 C114 1.387 . S
C115 C117 1.387 . S
H116 C123 0.950 . S
C117 C115 1.387 . S
C117 C119 1.390 . S
C117 H121 0.950 . S
H118 C114 0.950 . S
C119 C117 1.390 . S
C119 C120 1.387 . S
C119 H122 0.950 . S
C120 C119 1.387 . S
C120 C123 1.387 . S
H121 C117 0.950 . S
H122 C119 0.950 . S
C123 C114 1.390 . S
C123 H116 0.950 . S
C123 C120 1.387 . S
C124 C125 1.387 1_565 S
C124 H128 0.950 . S
C124 C133 1.390 . S
C125 C124 1.387 1_545 S
C125 C127 1.387 1_554 S
H126 C133 0.950 . S
C127 C125 1.387 1_556 S
C127 C129 1.390 . S
C127 H131 0.950 . S
H128 C124 0.950 . S
C129 C127 1.390 . S
C129 C130 1.387 1_545 S
C129 H132 0.950 . S
C130 C129 1.387 1_565 S
C130 C133 1.387 1_556 S
H131 C127 0.950 . S
H132 C129 0.950 . S
C133 C124 1.390 . S
C133 H126 0.950 . S
C133 C130 1.387 1_554 S
C134 C135 1.387 . S
C134 H138 0.950 . S
C134 C143 1.390 . S
C135 C134 1.387 . S
C135 C137 1.387 1_655 S
H136 C143 0.950 . S
C137 C135 1.387 1_455 S
C137 C139 1.390 . S
C137 H141 0.950 . S
H138 C134 0.950 . S
C139 C137 1.390 . S
C139 C140 1.387 . S
C139 H142 0.950 . S
C140 C139 1.387 . S
C140 C143 1.387 1_455 S
H141 C137 0.950 . S
H142 C139 0.950 . S
C143 C134 1.390 . S
C143 H136 0.950 . S
C143 C140 1.387 1_655 S
C144 C145 1.387 . S
C144 H148 0.950 . S
C144 C153 1.390 1_565 S
C145 C144 1.387 . S
C145 C147 1.387 1_565 S
H146 C153 0.950 . S
C147 C145 1.387 1_545 S
C147 C149 1.390 . S
C147 H151 0.950 . S
H148 C144 0.950 . S
C149 C147 1.390 . S
C149 C150 1.387 . S
C149 H152 0.950 . S
C150 C149 1.387 . S
C150 C153 1.387 . S
H151 C147 0.950 . S
H152 C149 0.950 . S
C153 C144 1.390 1_545 S
C153 H146 0.950 . S
C153 C150 1.387 . S
C154 C155 1.387 . S
C154 H158 0.950 . S
C154 C163 1.390 1_655 S
C155 C154 1.387 . S
C155 C157 1.387 1_556 S
H156 C163 0.950 . S
C157 C155 1.387 1_554 S
C157 C159 1.390 1_655 S
C157 H161 0.950 . S
H158 C154 0.950 . S
C159 C157 1.390 1_455 S
C159 C160 1.387 . S
C159 H162 0.950 . S
C160 C159 1.387 . S
C160 C163 1.387 1_554 S
H161 C157 0.950 . S
H162 C159 0.950 . S
C163 C154 1.390 1_455 S
C163 H156 0.950 . S
C163 C160 1.387 1_556 S
C164 C165 1.387 . S
C164 H168 0.950 . S
C164 C173 1.390 . S
C165 C164 1.387 . S
C165 C167 1.387 . S
H166 C173 0.950 . S
C167 C165 1.387 . S
C167 C169 1.390 . S
C167 H171 0.950 . S
H168 C164 0.950 . S
C169 C167 1.390 . S
C169 C170 1.387 . S
C169 H172 0.950 . S
C170 C169 1.387 . S
C170 C173 1.387 . S
H171 C167 0.950 . S
H172 C169 0.950 . S
C173 C164 1.390 . S
C173 H166 0.950 . S
C173 C170 1.387 . S
C174 C175 1.387 . S
C174 H178 0.950 . S
C174 C183 1.390 . S
C175 C174 1.387 . S
C175 C177 1.387 . S
H176 C183 0.950 . S
C177 C175 1.387 . S
C177 C179 1.390 . S
C177 H181 0.950 . S
H178 C174 0.950 . S
C179 C177 1.390 . S
C179 C180 1.387 . S
C179 H182 0.950 . S
C180 C179 1.387 . S
C180 C183 1.387 . S
H181 C177 0.950 . S
H182 C179 0.950 . S
C183 C174 1.390 . S
C183 H176 0.950 . S
C183 C180 1.387 . S
C184 C185 1.387 . S
C184 H188 0.950 . S
C184 C193 1.390 . S
C185 C184 1.387 . S
C185 C187 1.387 . S
H186 C193 0.950 . S
C187 C185 1.387 . S
C187 C189 1.390 . S
C187 H191 0.950 . S
H188 C184 0.950 . S
C189 C187 1.390 . S
C189 C190 1.387 . S
C189 H192 0.950 . S
C190 C189 1.387 . S
C190 C193 1.387 . S
H191 C187 0.950 . S
H192 C189 0.950 . S
C193 C184 1.390 . S
C193 H186 0.950 . S
C193 C190 1.387 . S
C194 C195 1.387 . S
C194 H198 0.950 . S
C194 C203 1.390 1_556 S
C195 C194 1.387 . S
C195 C197 1.387 . S
H196 C203 0.950 . S
C197 C195 1.387 . S
C197 C199 1.390 . S
C197 H201 0.950 . S
H198 C194 0.950 . S
C199 C197 1.390 . S
C199 C200 1.387 1_556 S
C199 H202 0.949 1_556 S
C200 C199 1.387 1_554 S
C200 C203 1.387 . S
H201 C197 0.950 . S
H202 C199 0.949 1_554 S
C203 C194 1.390 1_554 S
C203 H196 0.950 . S
C203 C200 1.387 . S
C204 C205 1.387 1_545 S
C204 H208 0.950 . S
C204 C213 1.390 . S
C205 C204 1.387 1_565 S
C205 C207 1.387 . S
H206 C213 0.950 . S
C207 C205 1.387 . S
C207 C209 1.390 1_565 S
C207 H211 0.950 . S
H208 C204 0.950 . S
C209 C207 1.390 1_545 S
C209 C210 1.387 . S
C209 H212 0.950 . S
C210 C209 1.387 . S
C210 C213 1.387 . S
H211 C207 0.950 . S
H212 C209 0.950 . S
C213 C204 1.390 . S
C213 H206 0.950 . S
C213 C210 1.387 . S
C214 C215 1.387 . S
C214 H218 0.950 . S
C214 C223 1.390 1_655 S
C215 C214 1.387 . S
C215 C217 1.387 1_565 S
H216 C223 0.950 . S
C217 C215 1.387 1_545 S
C217 C219 1.390 1_655 S
C217 H221 0.950 . S
H218 C214 0.950 . S
C219 C217 1.390 1_455 S
C219 C220 1.387 . S
C219 H222 0.950 . S
C220 C219 1.387 . S
C220 C223 1.387 1_545 S
H221 C217 0.950 . S
H222 C219 0.950 . S
C223 C214 1.390 1_455 S
C223 H216 0.950 . S
C223 C220 1.387 1_565 S
C224 C225 1.387 . S
C224 H228 0.950 . S
C224 C233 1.390 1_655 S
C225 C224 1.387 . S
C225 C227 1.387 . S
H226 C233 0.950 . S
C227 C225 1.387 . S
C227 C229 1.390 1_655 S
C227 H231 0.950 . S
H228 C224 0.950 . S
C229 C227 1.390 1_455 S
C229 C230 1.387 . S
C229 H232 0.950 . S
C230 C229 1.387 . S
C230 C233 1.387 . S
H231 C227 0.950 . S
H232 C229 0.950 . S
C233 C224 1.390 1_455 S
C233 H226 0.950 . S
C233 C230 1.387 . S
C234 C235 1.387 . S
C234 H238 0.950 . S
C234 C243 1.390 . S
C235 C234 1.387 . S
C235 C237 1.387 . S
H236 C243 0.950 . S
C237 C235 1.387 . S
C237 C239 1.390 . S
C237 H241 0.950 . S
H238 C234 0.950 . S
C239 C237 1.390 . S
C239 C240 1.387 . S
C239 H242 0.950 . S
C240 C239 1.387 . S
C240 C243 1.387 . S
H241 C237 0.950 . S
H242 C239 0.950 . S
C243 C234 1.390 . S
C243 H236 0.950 . S
C243 C240 1.387 . S
C244 C245 1.387 . S
C244 H248 0.950 . S
C244 C253 1.390 . S
C245 C244 1.387 . S
C245 C247 1.387 1_554 S
H246 C253 0.950 . S
C247 C245 1.387 1_556 S
C247 C249 1.390 . S
C247 H251 0.950 . S
H248 C244 0.950 . S
C249 C247 1.390 . S
C249 C250 1.387 . S
C249 H252 0.950 . S
C250 C249 1.387 . S
C250 C253 1.387 1_556 S
H251 C247 0.950 . S
H252 C249 0.950 . S
C253 C244 1.390 . S
C253 H246 0.950 . S
C253 C250 1.387 1_554 S
C254 C255 1.387 . S
C254 H258 0.950 . S
C254 C263 1.390 . S
C255 C254 1.387 . S
C255 C257 1.387 . S
H256 C263 0.950 . S
C257 C255 1.387 . S
C257 C259 1.390 . S
C257 H261 0.950 . S
H258 C254 0.950 . S
C259 C257 1.390 . S
C259 C260 1.387 . S
C259 H262 0.950 . S
C260 C259 1.387 . S
C260 C263 1.387 . S
H261 C257 0.950 . S
H262 C259 0.950 . S
C263 C254 1.390 . S
C263 H256 0.950 . S
C263 C260 1.387 . S
C105 C75 1.487 . S
C110 C5 1.478 . S
C115 C101 1.486 . S
C120 C18 1.479 . S
C125 C34 1.472 . S
C130 C86 1.473 . S
C135 C39 1.480 . S
C140 C52 1.481 . S
C145 C83 1.479 . S
C150 C10 1.486 . S
C155 C21 1.474 . S
C160 C60 1.474 . S
C165 C65 1.480 . S
C170 C26 1.480 . S
C175 C49 1.487 . S
C180 C96 1.478 . S
C185 C62 1.487 . S
C190 C70 1.478 . S
C195 C23 1.486 . S
C200 C31 1.479 . S
C205 C44 1.478 . S
C210 C36 1.487 . S
C215 C47 1.472 . S
C220 C8 1.473 . S
C225 C13 1.481 . S
C230 C0 1.481 . S
C235 C91 1.481 . S
C240 C78 1.481 . S
C245 C57 1.480 . S
C250 C88 1.486 . S
C255 C73 1.474 . S
C260 C99 1.474 . S
