# Generated by pormake.
# Topology eta-c, (3)-cn, num edge types: 1
# Building blocks:
#     Node 0, Type 0, BuildingBlock: OLANEW_clean_sbu_2, # of connection points: 3
#     Node 1, Type 0, BuildingBlock: OLANEW_clean_sbu_2, # of connection points: 3
#     Node 2, Type 0, BuildingBlock: OLANEW_clean_sbu_2, # of connection points: 3
#     Node 3, Type 0, BuildingBlock: OLANEW_clean_sbu_2, # of connection points: 3
#     Node 4, Type 0, BuildingBlock: OLANEW_clean_sbu_2, # of connection points: 3
#     Node 5, Type 0, BuildingBlock: OLANEW_clean_sbu_2, # of connection points: 3
#     Edge 6, Type (0, 0), None
#     Edge 7, Type (0, 0), None
#     Edge 8, Type (0, 0), None
#     Edge 9, Type (0, 0), None
#     Edge 10, Type (0, 0), None
#     Edge 11, Type (0, 0), None
#     Edge 12, Type (0, 0), None
#     Edge 13, Type (0, 0), None
#     Edge 14, Type (0, 0), None
# Relax obj value: 0.001
# Max RMSD: 0.041
# Mean RMSD: 0.024
data_MOF--net-eta-c--node1-OLANEW_clean_sbu_2--edge1-none
_symmetry_space_group_name_H-M    P1
_symmetry_Int_Tables_number       1
_symmetry_cell_setting            triclinic
loop_
_symmetry_equiv_pos_as_xyz
'x, y, z'
_cell_length_a     28.217727
_cell_length_b     23.377092
_cell_length_c     6.8231955
_cell_angle_alpha  98.888112
_cell_angle_beta   98.439623
_cell_angle_gamma 119.85401
loop_
_atom_site_label
_atom_site_type_symbol
_atom_site_fract_x
_atom_site_fract_y
_atom_site_fract_z
_atom_type_partial_charge
O0 O 0.40138 0.71537 0.79935 0.0
Cd1 Cd 0.43546 0.81877 0.07959 0.0
O2 O 0.30976 0.63698 0.63433 0.0
Cd3 Cd 0.25501 0.66999 0.77169 0.0
O4 O 0.27565 0.74142 0.0814 0.0
C5 C 0.25872 0.73309 0.24326 0.0
O6 O 0.21088 0.67741 0.23464 0.0
C7 C 0.36309 0.65964 0.66711 0.0
C8 C 0.51104 0.94289 0.00538 0.0
O9 O 0.52675 0.90246 0.04805 0.0
O10 O 0.45955 0.92471 -0.00557 0.0
O11 O 0.58025 0.34614 0.61265 0.0
Cd12 Cd 0.58666 0.41218 0.3613 0.0
O13 O 0.65485 0.4363 0.83701 0.0
Cd14 Cd 0.6847 0.49255 0.60812 0.0
O15 O 0.72736 0.50247 0.35981 0.0
C16 C 0.7467 0.46374 0.33504 0.0
O17 O 0.74212 0.4253 0.46151 0.0
C18 C 0.61371 0.37445 0.79169 0.0
C19 C 0.53602 0.48839 0.3755 0.0
O20 O 0.50764 0.42485 0.27834 0.0
O21 O 0.58775 0.5155 0.47388 0.0
O22 O 0.24043 0.59454 0.98251 0.0
Cd23 Cd 0.16449 0.61227 0.8373 0.0
O24 O 0.33264 0.67639 0.03738 0.0
Cd25 Cd 0.34045 0.76115 0.88337 0.0
O26 O 0.28684 0.76041 0.60572 0.0
C27 C 0.30177 0.77155 0.44227 0.0
O28 O 0.35552 0.79949 0.44586 0.0
C29 C 0.29304 0.61708 0.04319 0.0
C30 C 0.0614 0.48713 0.72737 0.0
O31 O 0.0921 0.50462 0.60071 0.0
O32 O 0.07848 0.52919 0.90387 0.0
O33 O 0.72047 0.19715 0.16556 0.0
Cd34 Cd 0.62862 0.13411 0.90796 0.0
O35 O 0.71194 0.27382 0.36199 0.0
Cd36 Cd 0.63514 0.24505 0.13166 0.0
O37 O 0.60208 0.27504 0.88162 0.0
C38 C 0.61033 0.33426 0.9399 0.0
O39 O 0.63049 0.36539 0.1361 0.0
C40 C 0.74022 0.24682 0.32403 0.0
C41 C 0.55129 0.00867 0.97153 0.0
O42 O 0.59309 0.01621 0.90117 0.0
O43 O 0.54586 0.06009 0.01356 0.0
O44 O 0.42806 0.65321 0.49846 0.0
Cd45 Cd 0.46943 0.61157 0.26294 0.0
O46 O 0.35123 0.55608 0.48827 0.0
Cd47 Cd 0.36945 0.50746 0.23832 0.0
O48 O 0.35484 0.57653 0.09689 0.0
C49 C 0.30704 0.56864 0.09863 0.0
O50 O 0.26878 0.51444 0.14436 0.0
C51 C 0.38221 0.62082 0.55103 0.0
C52 C 0.51154 0.53045 0.3556 0.0
O53 O 0.54202 0.59567 0.42679 0.0
O54 O 0.46061 0.50332 0.24932 0.0
O55 O 0.82724 0.25246 0.39316 0.0
Cd56 Cd 0.91947 0.28437 0.60261 0.0
O57 O 0.8167 0.31647 0.63064 0.0
Cd58 Cd 0.77854 0.36179 0.80339 0.0
O59 O 0.76154 0.39589 0.08783 0.0
C60 C 0.76356 0.45156 0.14698 0.0
O61 O 0.77556 0.49428 0.03104 0.0
C62 C 0.797 0.27358 0.45572 0.0
C63 C 0.01005 0.41865 0.67726 0.0
O64 O 0.99731 0.37337 0.51299 0.0
O65 O 0.97898 0.40139 0.80295 0.0
loop_
_geom_bond_atom_site_label_1
_geom_bond_atom_site_label_2
_geom_bond_distance
_geom_bond_site_symmetry_2
_ccdc_geom_bond_type
O0 Cd1 2.300 . S
O0 C7 1.275 . S
Cd1 O0 2.300 . S
Cd1 O9 2.381 . S
Cd1 O10 2.378 1_556 S
O2 Cd3 2.385 . S
O2 C7 1.255 . S
Cd3 O2 2.385 . S
Cd3 O4 2.317 1_556 S
O4 Cd3 2.317 1_554 S
O4 C5 1.232 . S
C5 O4 1.232 . S
C5 O6 1.218 . S
O6 C5 1.218 . S
C7 O0 1.275 . S
C7 O2 1.255 . S
C8 O9 1.258 1_554 S
C8 O10 1.256 . S
O9 Cd1 2.381 . S
O9 C8 1.258 1_556 S
O10 Cd1 2.378 1_554 S
O10 C8 1.256 . S
O11 Cd12 2.300 . S
O11 C18 1.275 . S
Cd12 O11 2.300 . S
Cd12 O20 2.381 . S
Cd12 O21 2.378 . S
O13 Cd14 2.385 . S
O13 C18 1.255 . S
Cd14 O13 2.385 . S
Cd14 O15 2.317 . S
O15 Cd14 2.317 . S
O15 C16 1.232 . S
C16 O15 1.232 . S
C16 O17 1.218 . S
O17 C16 1.218 . S
C18 O11 1.275 . S
C18 O13 1.255 . S
C19 O20 1.258 . S
C19 O21 1.256 . S
O20 Cd12 2.381 . S
O20 C19 1.258 . S
O21 Cd12 2.378 . S
O21 C19 1.256 . S
O22 Cd23 2.300 . S
O22 C29 1.275 . S
Cd23 O22 2.300 . S
Cd23 O31 2.381 . S
Cd23 O32 2.378 . S
O24 Cd25 2.385 . S
O24 C29 1.255 . S
Cd25 O24 2.385 . S
Cd25 O26 2.317 . S
O26 Cd25 2.317 . S
O26 C27 1.232 . S
C27 O26 1.232 . S
C27 O28 1.218 . S
O28 C27 1.218 . S
C29 O22 1.275 . S
C29 O24 1.255 . S
C30 O31 1.258 . S
C30 O32 1.256 . S
O31 Cd23 2.381 . S
O31 C30 1.258 . S
O32 Cd23 2.378 . S
O32 C30 1.256 . S
O33 Cd34 2.300 . S
O33 C40 1.275 . S
Cd34 O33 2.300 . S
Cd34 O42 2.381 . S
Cd34 O43 2.378 . S
O35 Cd36 2.385 . S
O35 C40 1.255 . S
Cd36 O35 2.385 . S
Cd36 O37 2.317 1_554 S
O37 Cd36 2.317 1_556 S
O37 C38 1.232 . S
C38 O37 1.232 . S
C38 O39 1.218 . S
O39 C38 1.218 . S
C40 O33 1.275 . S
C40 O35 1.255 . S
C41 O42 1.258 . S
C41 O43 1.256 . S
O42 Cd34 2.381 . S
O42 C41 1.258 . S
O43 Cd34 2.378 . S
O43 C41 1.256 . S
O44 Cd45 2.300 . S
O44 C51 1.275 . S
Cd45 O44 2.300 . S
Cd45 O53 2.381 . S
Cd45 O54 2.378 . S
O46 Cd47 2.385 . S
O46 C51 1.255 . S
Cd47 O46 2.385 . S
Cd47 O48 2.317 . S
O48 Cd47 2.317 . S
O48 C49 1.232 . S
C49 O48 1.232 . S
C49 O50 1.218 . S
O50 C49 1.218 . S
C51 O44 1.275 . S
C51 O46 1.255 . S
C52 O53 1.258 . S
C52 O54 1.256 . S
O53 Cd45 2.381 . S
O53 C52 1.258 . S
O54 Cd45 2.378 . S
O54 C52 1.256 . S
O55 Cd56 2.300 . S
O55 C62 1.275 . S
Cd56 O55 2.300 . S
Cd56 O64 2.381 . S
Cd56 O65 2.378 . S
O57 Cd58 2.385 . S
O57 C62 1.255 . S
Cd58 O57 2.385 . S
Cd58 O59 2.317 . S
O59 Cd58 2.317 . S
O59 C60 1.232 . S
C60 O59 1.232 . S
C60 O61 1.218 . S
O61 C60 1.218 . S
C62 O55 1.275 . S
C62 O57 1.255 . S
C63 O64 1.258 . S
C63 O65 1.256 . S
O64 Cd56 2.381 . S
O64 C63 1.258 . S
O65 Cd56 2.378 . S
O65 C63 1.256 . S
C8 C41 1.479 1_565 S
C52 C19 1.847 . S
C30 C63 1.462 1_455 S
C5 C27 1.224 . S
C18 C38 1.149 . S
C49 C29 1.575 1_554 S
C62 C40 1.421 . S
C51 C7 1.737 . S
C60 C16 1.659 1_556 S
