# Generated by pormake.
# Topology uoj, (4)-cn, num edge types: 1
# Building blocks:
#     Node 0, Type 0, BuildingBlock: QUQFOY_clean_sbu_3, # of connection points: 4
#     Node 1, Type 0, BuildingBlock: QUQFOY_clean_sbu_3, # of connection points: 4
#     Node 2, Type 0, BuildingBlock: QUQFOY_clean_sbu_3, # of connection points: 4
#     Node 3, Type 0, BuildingBlock: QUQFOY_clean_sbu_3, # of connection points: 4
#     Node 4, Type 0, BuildingBlock: QUQFOY_clean_sbu_3, # of connection points: 4
#     Node 5, Type 0, BuildingBlock: QUQFOY_clean_sbu_3, # of connection points: 4
#     Node 6, Type 0, BuildingBlock: QUQFOY_clean_sbu_3, # of connection points: 4
#     Node 7, Type 0, BuildingBlock: QUQFOY_clean_sbu_3, # of connection points: 4
#     Edge 8, Type (0, 0), None
#     Edge 9, Type (0, 0), None
#     Edge 10, Type (0, 0), None
#     Edge 11, Type (0, 0), None
#     Edge 12, Type (0, 0), None
#     Edge 13, Type (0, 0), None
#     Edge 14, Type (0, 0), None
#     Edge 15, Type (0, 0), None
#     Edge 16, Type (0, 0), None
#     Edge 17, Type (0, 0), None
#     Edge 18, Type (0, 0), None
#     Edge 19, Type (0, 0), None
#     Edge 20, Type (0, 0), None
#     Edge 21, Type (0, 0), None
#     Edge 22, Type (0, 0), None
#     Edge 23, Type (0, 0), None
# Relax obj value: 0.109
# Max RMSD: 0.139
# Mean RMSD: 0.135
data_MOF--net-uoj--node1-QUQFOY_clean_sbu_3--edge1-none
_symmetry_space_group_name_H-M    P1
_symmetry_Int_Tables_number       1
_symmetry_cell_setting            triclinic
loop_
_symmetry_equiv_pos_as_xyz
'x, y, z'
_cell_length_a     16.399089
_cell_length_b     16.410344
_cell_length_c     17.345133
_cell_angle_alpha  89.998199
_cell_angle_beta   90.001566
_cell_angle_gamma 92.301117
loop_
_atom_site_label
_atom_site_type_symbol
_atom_site_fract_x
_atom_site_fract_y
_atom_site_fract_z
_atom_type_partial_charge
C0 C 0.01049 0.3393 0.21701 0.0
O1 O 0.93392 0.33092 0.22145 0.0
Cd2 Cd 0.85068 0.28955 0.32556 0.0
O3 O 0.0564 0.31515 0.27097 0.0
Cd4 Cd 0.02362 0.23965 0.39313 0.0
C5 C 0.94565 0.40459 0.47027 0.0
O6 O 0.9055 0.16444 0.34889 0.0
O7 O 0.91497 0.17576 0.47235 0.0
O8 O 0.12139 0.14401 0.35405 0.0
C9 C 0.87821 0.14511 0.41442 0.0
O10 O 0.88222 0.38546 0.43065 0.0
C11 C 0.14778 0.13024 0.42129 0.0
O12 O 0.0107 0.36526 0.46386 0.0
O13 O 0.12196 0.17354 0.47612 0.0
C14 C 0.14103 0.78154 0.43644 0.0
O15 O 0.17684 0.79146 0.37221 0.0
Cd16 Cd 0.28482 0.89178 0.35531 0.0
O17 O 0.16623 0.81888 0.49629 0.0
Cd18 Cd 0.27977 0.91015 0.52986 0.0
C19 C 0.19705 0.05971 0.4348 0.0
O20 O 0.39117 0.87968 0.44688 0.0
O21 O 0.38228 0.00539 0.48516 0.0
O22 O 0.34953 0.8216 0.61776 0.0
C23 C 0.42508 0.94957 0.45796 0.0
O24 O 0.22232 0.02154 0.37613 0.0
C25 C 0.33128 0.85959 0.67839 0.0
O26 O 0.20467 0.03146 0.50275 0.0
O27 O 0.2875 0.92146 0.67098 0.0
C28 C 0.88661 0.54297 0.27982 0.0
O29 O 0.95217 0.50802 0.29647 0.0
Cd30 Cd 0.05817 0.5531 0.38399 0.0
O31 O 0.8614 0.60151 0.31993 0.0
Cd32 Cd 0.90846 0.65551 0.44483 0.0
C33 C 0.94805 0.48169 0.51281 0.0
O34 O 0.03765 0.69533 0.38203 0.0
O35 O 0.02763 0.7221 0.50391 0.0
O36 O 0.81495 0.74934 0.39823 0.0
C37 C 0.06662 0.73092 0.44113 0.0
O38 O 0.0161 0.52079 0.51326 0.0
C39 C 0.79262 0.77469 0.46354 0.0
O40 O 0.88467 0.52299 0.50651 0.0
O41 O 0.82308 0.74273 0.52317 0.0
C42 C 0.80059 0.10094 0.42142 0.0
O43 O 0.76226 0.08042 0.36056 0.0
Cd44 Cd 0.64757 -0.01061 0.35722 0.0
O45 O 0.77406 0.08133 0.48779 0.0
Cd46 Cd 0.65628 0.00562 0.5381 0.0
C47 C 0.74049 0.844 0.46734 0.0
O48 O 0.54865 0.02589 0.44764 0.0
O49 O 0.54986 0.90793 0.50485 0.0
O50 O 0.59333 0.10926 0.61577 0.0
C51 C 0.512 -0.04101 0.46497 0.0
O52 O 0.71173 0.86933 0.40395 0.0
C53 C 0.60782 0.07615 0.67999 0.0
O54 O 0.73342 0.88358 0.52995 0.0
O55 O 0.64762 0.01118 0.67914 0.0
C56 C 0.2815 0.64231 -0.00386 0.0
O57 O 0.29136 0.67828 0.06029 0.0
Cd58 Cd 0.39159 0.78638 0.07694 0.0
O59 O 0.31878 0.66742 0.93622 0.0
Cd60 Cd 0.40986 0.78095 0.90233 0.0
C61 C 0.5595 0.69839 -0.00245 0.0
O62 O 0.37944 0.89243 -0.01487 0.0
O63 O 0.5052 0.8835 0.9467 0.0
O64 O 0.32096 0.85027 0.81444 0.0
C65 C 0.44936 0.9263 0.97391 0.0
O66 O 0.52136 0.7238 0.05619 0.0
C67 C 0.35897 0.83207 0.75379 0.0
O68 O 0.53121 0.70592 0.9296 0.0
O69 O 0.42102 0.78849 0.7612 0.0
C70 C 0.83789 0.51059 0.2159 0.0
O71 O 0.8291 0.43408 0.21149 0.0
Cd72 Cd 0.78843 0.35143 0.10677 0.0
O73 O 0.81435 0.55657 0.16175 0.0
Cd74 Cd 0.73905 0.52461 0.03924 0.0
C75 C 0.90426 0.44685 0.96261 0.0
O76 O 0.66357 0.40661 0.08296 0.0
O77 O 0.6753 0.41622 0.95955 0.0
O78 O 0.64356 0.62252 0.07834 0.0
C79 C 0.64451 0.37937 0.01734 0.0
O80 O 0.88499 0.38347 0.00221 0.0
C81 C 0.62994 0.649 0.01111 0.0
O82 O 0.86487 0.51185 0.96883 0.0
O83 O 0.67327 0.62315 0.9563 0.0
C84 C 0.6006 0.30165 0.01023 0.0
O85 O 0.58027 0.26319 0.07104 0.0
Cd86 Cd 0.48946 0.14841 0.07463 0.0
O87 O 0.58095 0.27522 0.94382 0.0
Cd88 Cd 0.50524 0.15736 0.89367 0.0
C89 C 0.3438 0.24155 0.96499 0.0
O90 O 0.52581 0.04976 -0.01601 0.0
O91 O 0.40757 0.05102 0.92716 0.0
O92 O 0.60884 0.09459 0.81581 0.0
C93 C 0.4588 0.01315 0.96684 0.0
O94 O 0.36926 0.21265 0.02828 0.0
C95 C 0.5754 0.10876 0.75167 0.0
O96 O 0.38321 0.23451 0.90227 0.0
O97 O 0.51031 0.14841 0.75262 0.0
C98 C 0.04308 0.38803 0.15321 0.0
O99 O 0.00814 0.45355 0.13651 0.0
Cd100 Cd 0.05327 0.55942 0.04899 0.0
O101 O 0.10168 0.3628 0.11314 0.0
Cd102 Cd 0.15561 0.40975 -0.01182 0.0
C103 C -0.01844 0.44925 0.92032 0.0
O104 O 0.19557 0.53888 0.05082 0.0
O105 O 0.22212 0.52878 0.9289 0.0
O106 O 0.24956 0.31619 0.03447 0.0
C107 C 0.23103 0.56781 -0.00837 0.0
O108 O 0.02061 0.5173 0.91981 0.0
C109 C 0.27459 0.2938 0.96905 0.0
O110 O 0.0229 0.38596 0.92683 0.0
O111 O 0.24243 0.32429 0.90954 0.0
loop_
_geom_bond_atom_site_label_1
_geom_bond_atom_site_label_2
_geom_bond_distance
_geom_bond_site_symmetry_2
_ccdc_geom_bond_type
C0 O1 1.306 . S
C0 O3 1.160 . S
O1 C0 1.306 . S
O1 Cd2 2.228 1_455 S
Cd2 O1 2.228 1_655 S
Cd2 O6 2.273 . S
Cd2 O10 2.277 . S
O3 C0 1.160 . S
O3 Cd4 2.203 . S
Cd4 O3 2.203 . S
Cd4 O6 2.411 1_455 S
Cd4 O7 2.333 1_455 S
Cd4 O8 2.352 . S
Cd4 O12 2.277 . S
Cd4 O13 2.356 . S
C5 O10 1.209 1_455 S
C5 O12 1.226 . S
O6 Cd2 2.273 . S
O6 Cd4 2.411 1_655 S
O6 C9 1.320 . S
O7 Cd4 2.333 1_655 S
O7 C9 1.214 . S
O8 Cd4 2.352 . S
O8 C11 1.258 . S
C9 O6 1.320 . S
C9 O7 1.214 . S
O10 Cd2 2.277 . S
O10 C5 1.209 1_655 S
C11 O8 1.258 . S
C11 O13 1.282 . S
O12 Cd4 2.277 . S
O12 C5 1.226 . S
O13 Cd4 2.356 . S
O13 C11 1.282 . S
C14 O15 1.306 . S
C14 O17 1.160 . S
O15 C14 1.306 . S
O15 Cd16 2.228 . S
Cd16 O15 2.228 . S
Cd16 O20 2.273 . S
Cd16 O24 2.277 1_565 S
O17 C14 1.160 . S
O17 Cd18 2.203 . S
Cd18 O17 2.203 . S
Cd18 O20 2.411 . S
Cd18 O21 2.333 . S
Cd18 O22 2.352 . S
Cd18 O26 2.277 1_565 S
Cd18 O27 2.356 . S
C19 O24 1.209 . S
C19 O26 1.226 . S
O20 Cd16 2.273 . S
O20 Cd18 2.411 . S
O20 C23 1.320 . S
O21 Cd18 2.333 . S
O21 C23 1.214 . S
O22 Cd18 2.352 . S
O22 C25 1.258 . S
C23 O20 1.320 . S
C23 O21 1.214 . S
O24 Cd16 2.277 1_545 S
O24 C19 1.209 . S
C25 O22 1.258 . S
C25 O27 1.282 . S
O26 Cd18 2.277 1_545 S
O26 C19 1.226 . S
O27 Cd18 2.356 . S
O27 C25 1.282 . S
C28 O29 1.306 . S
C28 O31 1.160 . S
O29 C28 1.306 . S
O29 Cd30 2.228 1_655 S
Cd30 O29 2.228 1_455 S
Cd30 O34 2.273 . S
Cd30 O38 2.277 . S
O31 C28 1.160 . S
O31 Cd32 2.203 . S
Cd32 O31 2.203 . S
Cd32 O34 2.411 1_655 S
Cd32 O35 2.333 1_655 S
Cd32 O36 2.352 . S
Cd32 O40 2.277 . S
Cd32 O41 2.356 . S
C33 O38 1.209 1_655 S
C33 O40 1.226 . S
O34 Cd30 2.273 . S
O34 Cd32 2.411 1_455 S
O34 C37 1.320 . S
O35 Cd32 2.333 1_455 S
O35 C37 1.214 . S
O36 Cd32 2.352 . S
O36 C39 1.258 . S
C37 O34 1.320 . S
C37 O35 1.214 . S
O38 Cd30 2.277 . S
O38 C33 1.209 1_455 S
C39 O36 1.258 . S
C39 O41 1.282 . S
O40 Cd32 2.277 . S
O40 C33 1.226 . S
O41 Cd32 2.356 . S
O41 C39 1.282 . S
C42 O43 1.306 . S
C42 O45 1.160 . S
O43 C42 1.306 . S
O43 Cd44 2.228 . S
Cd44 O43 2.228 . S
Cd44 O48 2.273 . S
Cd44 O52 2.277 1_545 S
O45 C42 1.160 . S
O45 Cd46 2.203 . S
Cd46 O45 2.203 . S
Cd46 O48 2.411 . S
Cd46 O49 2.333 . S
Cd46 O50 2.352 . S
Cd46 O54 2.277 1_545 S
Cd46 O55 2.356 . S
C47 O52 1.209 . S
C47 O54 1.226 . S
O48 Cd44 2.273 . S
O48 Cd46 2.411 . S
O48 C51 1.320 . S
O49 Cd46 2.333 . S
O49 C51 1.214 . S
O50 Cd46 2.352 . S
O50 C53 1.258 . S
C51 O48 1.320 . S
C51 O49 1.214 . S
O52 Cd44 2.277 1_565 S
O52 C47 1.209 . S
C53 O50 1.258 . S
C53 O55 1.282 . S
O54 Cd46 2.277 1_565 S
O54 C47 1.226 . S
O55 Cd46 2.356 . S
O55 C53 1.282 . S
C56 O57 1.306 . S
C56 O59 1.160 1_554 S
O57 C56 1.306 . S
O57 Cd58 2.228 . S
Cd58 O57 2.228 . S
Cd58 O62 2.273 . S
Cd58 O66 2.277 . S
O59 C56 1.160 1_556 S
O59 Cd60 2.203 . S
Cd60 O59 2.203 . S
Cd60 O62 2.411 1_556 S
Cd60 O63 2.333 . S
Cd60 O64 2.352 . S
Cd60 O68 2.277 . S
Cd60 O69 2.356 . S
C61 O66 1.209 . S
C61 O68 1.226 1_554 S
O62 Cd58 2.273 . S
O62 Cd60 2.411 1_554 S
O62 C65 1.320 1_554 S
O63 Cd60 2.333 . S
O63 C65 1.214 . S
O64 Cd60 2.352 . S
O64 C67 1.258 . S
C65 O62 1.320 1_556 S
C65 O63 1.214 . S
O66 Cd58 2.277 . S
O66 C61 1.209 . S
C67 O64 1.258 . S
C67 O69 1.282 . S
O68 Cd60 2.277 . S
O68 C61 1.226 1_556 S
O69 Cd60 2.356 . S
O69 C67 1.282 . S
C70 O71 1.306 . S
C70 O73 1.160 . S
O71 C70 1.306 . S
O71 Cd72 2.228 . S
Cd72 O71 2.228 . S
Cd72 O76 2.273 . S
Cd72 O80 2.277 . S
O73 C70 1.160 . S
O73 Cd74 2.203 . S
Cd74 O73 2.203 . S
Cd74 O76 2.411 . S
Cd74 O77 2.333 1_554 S
Cd74 O78 2.352 . S
Cd74 O82 2.277 1_554 S
Cd74 O83 2.356 1_554 S
C75 O80 1.209 . S
C75 O82 1.226 1_554 S
O76 Cd72 2.273 . S
O76 Cd74 2.411 . S
O76 C79 1.320 1_554 S
O77 Cd74 2.333 1_556 S
O77 C79 1.214 . S
O78 Cd74 2.352 . S
O78 C81 1.258 1_554 S
C79 O76 1.320 1_556 S
C79 O77 1.214 . S
O80 Cd72 2.277 . S
O80 C75 1.209 . S
C81 O78 1.258 1_556 S
C81 O83 1.282 . S
O82 Cd74 2.277 1_556 S
O82 C75 1.226 1_556 S
O83 Cd74 2.356 1_556 S
O83 C81 1.282 . S
C84 O85 1.306 . S
C84 O87 1.160 1_554 S
O85 C84 1.306 . S
O85 Cd86 2.228 . S
Cd86 O85 2.228 . S
Cd86 O90 2.273 . S
Cd86 O94 2.277 . S
O87 C84 1.160 1_556 S
O87 Cd88 2.203 . S
Cd88 O87 2.203 . S
Cd88 O90 2.411 1_556 S
Cd88 O91 2.333 . S
Cd88 O92 2.352 . S
Cd88 O96 2.277 . S
Cd88 O97 2.356 . S
C89 O94 1.209 . S
C89 O96 1.226 1_554 S
O90 Cd86 2.273 . S
O90 Cd88 2.411 1_554 S
O90 C93 1.320 1_554 S
O91 Cd88 2.333 . S
O91 C93 1.214 . S
O92 Cd88 2.352 . S
O92 C95 1.258 . S
C93 O90 1.320 1_556 S
C93 O91 1.214 . S
O94 Cd86 2.277 . S
O94 C89 1.209 . S
C95 O92 1.258 . S
C95 O97 1.282 . S
O96 Cd88 2.277 . S
O96 C89 1.226 1_556 S
O97 Cd88 2.356 . S
O97 C95 1.282 . S
C98 O99 1.306 . S
C98 O101 1.160 . S
O99 C98 1.306 . S
O99 Cd100 2.228 . S
Cd100 O99 2.228 . S
Cd100 O104 2.273 . S
Cd100 O108 2.277 . S
O101 C98 1.160 . S
O101 Cd102 2.203 . S
Cd102 O101 2.203 . S
Cd102 O104 2.411 . S
Cd102 O105 2.333 1_554 S
Cd102 O106 2.352 . S
Cd102 O110 2.277 1_554 S
Cd102 O111 2.356 1_554 S
C103 O108 1.209 . S
C103 O110 1.226 1_554 S
O104 Cd100 2.273 . S
O104 Cd102 2.411 . S
O104 C107 1.320 1_554 S
O105 Cd102 2.333 1_556 S
O105 C107 1.214 . S
O106 Cd102 2.352 . S
O106 C109 1.258 1_554 S
C107 O104 1.320 1_556 S
C107 O105 1.214 . S
O108 Cd100 2.277 . S
O108 C103 1.209 . S
C109 O106 1.258 1_556 S
C109 O111 1.282 . S
O110 Cd102 2.277 1_556 S
O110 C103 1.226 1_556 S
O111 Cd102 2.356 1_556 S
O111 C109 1.282 . S
C98 C0 1.486 . S
C25 C67 1.576 . S
C28 C70 1.486 . S
C95 C53 1.576 . S
C19 C11 1.810 . S
C14 C37 1.755 . S
C47 C39 1.810 . S
C42 C9 1.755 . S
C107 C56 1.756 1_556 S
C81 C61 1.810 1_556 S
C79 C84 1.756 1_556 S
C89 C109 1.810 1_554 S
C33 C5 1.415 1_655 S
C51 C23 1.395 1_545 S
C93 C65 1.395 1_545 S
C103 C75 1.415 1_455 S
