# Generated by pormake.
# Topology reo, (8)-cn, num edge types: 1
# Building blocks:
#     Node 0, Type 0, BuildingBlock: TAGTUT_clean_sbu_3, # of connection points: 8
#     Node 1, Type 0, BuildingBlock: TAGTUT_clean_sbu_3, # of connection points: 8
#     Node 2, Type 0, BuildingBlock: TAGTUT_clean_sbu_3, # of connection points: 8
#     Edge 3, Type (0, 0), BuildingBlock: OJICUG_clean_linker_0, # of connection points: 2
#     Edge 4, Type (0, 0), BuildingBlock: OJICUG_clean_linker_0, # of connection points: 2
#     Edge 5, Type (0, 0), BuildingBlock: OJICUG_clean_linker_0, # of connection points: 2
#     Edge 6, Type (0, 0), BuildingBlock: OJICUG_clean_linker_0, # of connection points: 2
#     Edge 7, Type (0, 0), BuildingBlock: OJICUG_clean_linker_0, # of connection points: 2
#     Edge 8, Type (0, 0), BuildingBlock: OJICUG_clean_linker_0, # of connection points: 2
#     Edge 9, Type (0, 0), BuildingBlock: OJICUG_clean_linker_0, # of connection points: 2
#     Edge 10, Type (0, 0), BuildingBlock: OJICUG_clean_linker_0, # of connection points: 2
#     Edge 11, Type (0, 0), BuildingBlock: OJICUG_clean_linker_0, # of connection points: 2
#     Edge 12, Type (0, 0), BuildingBlock: OJICUG_clean_linker_0, # of connection points: 2
#     Edge 13, Type (0, 0), BuildingBlock: OJICUG_clean_linker_0, # of connection points: 2
#     Edge 14, Type (0, 0), BuildingBlock: OJICUG_clean_linker_0, # of connection points: 2
# Relax obj value: 0.170
# Max RMSD: 0.190
# Mean RMSD: 0.190
data_MOF--net-reo--node1-TAGTUT_clean_sbu_3--edge1-OJICUG_clean_linker_0
_symmetry_space_group_name_H-M    P1
_symmetry_Int_Tables_number       1
_symmetry_cell_setting            triclinic
loop_
_symmetry_equiv_pos_as_xyz
'x, y, z'
_cell_length_a     18.36585
_cell_length_b     18.365066
_cell_length_c     18.376639
_cell_angle_alpha  90.83518
_cell_angle_beta   90.744077
_cell_angle_gamma 90.864323
loop_
_atom_site_label
_atom_site_type_symbol
_atom_site_fract_x
_atom_site_fract_y
_atom_site_fract_z
_atom_type_partial_charge
C0 C 0.94783 0.83211 0.55027 0.0
C1 C 0.7171 0.00065 0.57405 0.0
C2 C 0.78235 0.06935 0.35817 0.0
Mg3 Mg 0.10704 0.88319 0.48193 0.0
Mg4 Mg 0.14494 0.05763 0.4935 0.0
O5 O 0.08464 0.98471 0.45046 0.0
Mg6 Mg 0.98297 -0.00745 0.48393 0.0
O7 O 0.88176 -0.00085 0.51732 0.0
Mg8 Mg 0.83397 0.92322 0.45354 0.0
Mg9 Mg 0.84218 0.09419 0.51187 0.0
C10 C 0.02063 0.1547 0.424 0.0
O11 O 0.01615 0.0672 0.58156 0.0
O12 O 0.21452 0.90498 0.41641 0.0
O13 O 0.93066 0.15355 0.57003 0.0
O14 O 0.16499 0.91307 0.58835 0.0
O15 O 0.23789 0.02513 0.43376 0.0
O16 O 0.16185 0.03288 0.6074 0.0
O17 O 0.94344 0.92061 0.38739 0.0
O18 O 0.04378 0.85277 0.381 0.0
C19 C 0.98088 0.87026 0.357 0.0
C20 C 0.25342 0.963 0.40591 0.0
O21 O 0.97648 0.09981 0.42234 0.0
O22 O 0.73633 0.94556 0.53414 0.0
O23 O 0.08399 0.15203 0.45462 0.0
O24 O 0.78897 0.00268 0.37349 0.0
O25 O 0.74976 0.06267 0.57225 0.0
O26 O 0.80285 0.11983 0.40256 0.0
O27 O -0.00413 0.88297 0.54222 0.0
O28 O 0.88243 0.84012 0.52786 0.0
C29 C 0.17476 0.96868 0.62947 0.0
C30 C -0.00929 0.13021 0.59732 0.0
C31 C 0.35718 0.98032 0.86989 0.0
C32 C 0.40558 0.2533 0.96267 0.0
C33 C 0.62909 0.1749 0.96876 0.0
Mg34 Mg 0.45393 0.83389 0.92323 0.0
Mg35 Mg 0.51224 0.84269 0.09405 0.0
O36 O 0.51775 0.88199 -0.00111 0.0
Mg37 Mg 0.48396 0.983 -0.00776 0.0
O38 O 0.45002 0.08444 0.98441 0.0
Mg39 Mg 0.48176 0.10708 0.883 0.0
Mg40 Mg 0.49277 0.14482 0.05735 0.0
C41 C 0.59774 -0.00864 0.1295 0.0
O42 O 0.42219 0.97598 0.09948 0.0
O43 O 0.53462 0.7364 0.94586 0.0
O44 O 0.45394 0.08365 0.15166 0.0
O45 O 0.37388 0.78891 0.00287 0.0
O46 O 0.57255 0.75021 0.06287 0.0
O47 O 0.40278 0.80336 0.1199 0.0
O48 O 0.54247 -0.00376 0.88261 0.0
O49 O 0.52825 0.88255 0.84014 0.0
C50 C 0.55048 0.94806 0.83192 0.0
C51 C 0.57444 0.71737 0.001 0.0
O52 O 0.58144 0.01672 0.06669 0.0
O53 O 0.41614 0.2144 0.90471 0.0
O54 O 0.57077 0.93119 0.15309 0.0
O55 O 0.58816 0.16524 0.91306 0.0
O56 O 0.43321 0.23771 0.0248 0.0
O57 O 0.60672 0.16192 0.03283 0.0
O58 O 0.38783 0.94326 0.92029 0.0
O59 O 0.38086 0.04341 0.85236 0.0
C60 C 0.35846 0.78254 0.06953 0.0
C61 C 0.42365 0.02008 0.15436 0.0
C62 C 0.83171 0.54988 0.94862 0.0
C63 C 0.0002 0.57483 0.71755 0.0
C64 C 0.06959 0.35918 0.78168 0.0
Mg65 Mg 0.88352 0.4816 0.10735 0.0
Mg66 Mg 0.05799 0.49336 0.14434 0.0
O67 O 0.98494 0.4502 0.08436 0.0
Mg68 Mg -0.00757 0.48404 0.98288 0.0
O69 O -0.00122 0.51784 0.88192 0.0
Mg70 Mg 0.92308 0.4538 0.83412 0.0
Mg71 Mg 0.09389 0.51281 0.84227 0.0
C72 C 0.15482 0.42437 0.01944 0.0
O73 O 0.06671 0.58187 0.01627 0.0
O74 O 0.90576 0.41613 0.21463 0.0
O75 O 0.15309 0.57134 0.93059 0.0
O76 O 0.91349 0.5882 0.16519 0.0
O77 O 0.02595 0.43369 0.23738 0.0
O78 O 0.03329 0.60723 0.1615 0.0
O79 O 0.9207 0.38733 0.9433 0.0
O80 O 0.85316 0.38059 0.04393 0.0
C81 C 0.87051 0.35673 0.98088 0.0
C82 C 0.96391 0.40577 0.25323 0.0
O83 O 0.09985 0.42275 0.97556 0.0
O84 O 0.94516 0.53477 0.73678 0.0
O85 O 0.15223 0.45473 0.08294 0.0
O86 O 0.00286 0.37429 0.78844 0.0
O87 O 0.06221 0.57316 0.75008 0.0
O88 O 0.11993 0.40362 0.80249 0.0
O89 O 0.88271 0.542 -0.0036 0.0
O90 O 0.83973 0.52763 0.88314 0.0
C91 C 0.96915 0.62936 0.17465 0.0
C92 C 0.12955 0.59827 -0.00922 0.0
C93 C 0.92146 0.28611 0.30119 0.0
C94 C 0.96495 0.34925 0.30959 0.0
H95 H 0.90708 0.17415 0.32839 0.0
C96 C 0.02164 0.35027 0.36183 0.0
H97 H 0.87846 0.28308 0.26029 0.0
C98 C 0.03823 0.28784 0.40067 0.0
C99 C -0.002 0.22304 0.38882 0.0
H100 H 0.05634 0.39811 0.36931 0.0
H101 H 0.08466 0.28972 0.43757 0.0
C102 C 0.93819 0.22346 0.3401 0.0
C103 C 0.76824 0.06055 0.22461 0.0
C104 C 0.74005 0.0836 0.29179 0.0
H105 H 0.74413 0.01388 0.11885 0.0
C106 C 0.66444 0.08933 0.29894 0.0
H107 H 0.82636 0.05361 0.21864 0.0
C108 C 0.61775 0.06372 0.24332 0.0
C109 C 0.64592 0.03431 0.17891 0.0
H110 H 0.64136 0.10465 0.35085 0.0
H111 H 0.55987 0.06177 0.25292 0.0
C112 C 0.72132 0.03671 0.16808 0.0
C113 C 0.00724 0.82226 0.236 0.0
C114 C 0.95621 0.82988 0.29195 0.0
H115 H 0.05309 0.7509 0.15629 0.0
C116 C 0.90005 0.77809 0.29798 0.0
H117 H 0.05139 0.86165 0.23087 0.0
C118 C 0.90086 0.71468 0.25489 0.0
C119 C 0.95857 0.70235 0.2066 0.0
H120 H 0.86105 0.7823 0.34153 0.0
H121 H 0.86039 0.6725 0.26449 0.0
C122 C 0.00922 0.75836 0.19441 0.0
C123 C 0.33936 0.93766 0.2231 0.0
C124 C 0.38862 -0.00284 0.22274 0.0
H125 H 0.25923 0.87812 0.28284 0.0
C126 C 0.40118 0.03685 0.28768 0.0
H127 H 0.32712 0.90698 0.17369 0.0
C128 C 0.36247 0.02014 0.35023 0.0
C129 C 0.30967 0.96384 0.34919 0.0
H130 H 0.43853 0.08301 0.28961 0.0
H131 H 0.37047 0.0545 0.39819 0.0
C132 C 0.30059 0.9208 0.28588 0.0
C133 C 0.03478 0.74782 0.61264 0.0
C134 C 0.96492 0.76239 0.58577 0.0
H135 H 0.10138 0.67587 0.67353 0.0
C136 C 0.909 0.70976 0.59466 0.0
H137 H 0.07914 0.78653 0.6059 0.0
C138 C 0.92137 0.64632 0.63343 0.0
C139 C -0.0099 0.6336 0.66404 0.0
H140 H 0.85446 0.71845 0.57375 0.0
H141 H 0.8762 0.60896 0.64202 0.0
C142 C 0.04734 0.68394 0.65109 0.0
C143 C 0.23586 0.00584 0.82247 0.0
C144 C 0.29216 0.95521 0.82969 0.0
H145 H 0.15594 0.05166 0.75149 0.0
C146 C 0.29857 0.89953 0.7775 0.0
H147 H 0.23044 0.04965 0.86214 0.0
C148 C 0.25549 0.90049 0.71417 0.0
C149 C 0.20684 0.9579 0.70229 0.0
H150 H 0.34241 0.86088 0.78136 0.0
H151 H 0.26536 0.86043 0.67172 0.0
C152 C 0.19432 0.00803 0.75862 0.0
C153 C 0.06413 0.2254 0.7663 0.0
C154 C 0.084 0.29358 0.73811 0.0
H155 H 0.01973 0.11844 0.74264 0.0
C156 C 0.08607 0.30182 0.66244 0.0
H157 H 0.05993 0.21853 0.82457 0.0
C158 C 0.05992 0.24611 0.61614 0.0
C159 C 0.03382 0.18042 0.64457 0.0
H160 H 0.09882 0.35446 0.63947 0.0
H161 H 0.05499 0.25645 0.55859 0.0
C162 C 0.03998 0.16868 0.71961 0.0
C163 C 0.61258 0.03511 0.7473 0.0
C164 C 0.58573 0.9652 0.76203 0.0
H165 H 0.67331 0.10182 0.67508 0.0
C166 C 0.59437 0.90931 0.70938 0.0
H167 H 0.60601 0.07945 0.78602 0.0
C168 C 0.63293 0.92176 0.64577 0.0
C169 C 0.66359 -0.00947 0.63291 0.0
H170 H 0.57342 0.85474 0.71817 0.0
H171 H 0.64136 0.87661 0.6084 0.0
C172 C 0.65083 0.04774 0.68326 0.0
C173 C 0.22337 0.34011 0.93695 0.0
C174 C 0.22313 0.38929 -0.00354 0.0
H175 H 0.28281 0.25972 0.87756 0.0
C176 C 0.28807 0.40157 0.03621 0.0
H177 H 0.17397 0.32813 0.90618 0.0
C178 C 0.35043 0.36259 0.0196 0.0
C179 C 0.34921 0.30979 0.96338 0.0
H180 H 0.29009 0.43887 0.08236 0.0
H181 H 0.39836 0.37037 0.05402 0.0
C182 C 0.28598 0.30104 0.92022 0.0
C183 C 0.16816 0.72141 0.03765 0.0
C184 C 0.17922 0.64609 0.03385 0.0
H185 H 0.21858 0.82642 0.05589 0.0
C186 C 0.24391 0.61775 0.06225 0.0
H187 H 0.11869 0.74434 0.01563 0.0
C188 C 0.29954 0.66426 0.08829 0.0
C189 C 0.29217 0.73994 0.08391 0.0
H190 H 0.25371 0.55996 0.05919 0.0
H191 H 0.35162 0.64115 0.10279 0.0
C192 C 0.22475 0.76821 0.06185 0.0
C193 C 0.7147 0.25515 0.90074 0.0
C194 C 0.70215 0.20676 0.95826 0.0
H195 H 0.78263 0.34172 0.86117 0.0
C196 C 0.75804 0.19431 0.00879 0.0
H197 H 0.67259 0.26492 0.86038 0.0
C198 C 0.82209 0.23574 0.00688 0.0
C199 C 0.82994 0.2918 0.95606 0.0
H200 H 0.7504 0.15609 0.0525 0.0
H201 H 0.86139 0.2304 0.05095 0.0
C202 C 0.77825 0.29808 0.90001 0.0
C203 C 0.74789 0.61331 0.03552 0.0
C204 C 0.76191 0.58519 0.96599 0.0
H205 H 0.67645 0.6754 0.10181 0.0
C206 C 0.70873 0.59289 0.91052 0.0
H207 H 0.78704 0.60754 0.07954 0.0
C208 C 0.64536 0.63182 0.92288 0.0
C209 C 0.63321 0.66375 -0.00882 0.0
H210 H 0.71695 0.57093 0.85627 0.0
H211 H 0.60757 0.63947 0.878 0.0
C212 C 0.68406 0.65192 0.04809 0.0
loop_
_geom_bond_atom_site_label_1
_geom_bond_atom_site_label_2
_geom_bond_distance
_geom_bond_site_symmetry_2
_ccdc_geom_bond_type
C0 O27 1.312 1_655 S
C0 O28 1.208 . S
C1 O22 1.331 . S
C1 O25 1.244 1_565 S
C2 O24 1.264 1_545 S
C2 O26 1.273 . S
Mg3 O5 1.936 1_565 S
Mg3 O12 2.081 . S
Mg3 O14 2.023 . S
Mg3 O18 2.031 . S
Mg3 O27 2.291 . S
Mg4 O5 1.963 . S
Mg4 O15 1.942 . S
Mg4 O16 1.955 . S
Mg4 O23 1.986 . S
O5 Mg3 1.936 1_545 S
O5 Mg4 1.963 . S
O5 Mg6 1.915 . S
Mg6 O5 1.915 . S
Mg6 O7 1.915 1_455 S
Mg6 O11 2.013 . S
Mg6 O17 2.114 1_445 S
Mg6 O21 2.013 1_455 S
Mg6 O27 2.114 1_545 S
O7 Mg6 1.915 1_655 S
O7 Mg8 1.936 1_545 S
O7 Mg9 1.963 . S
Mg8 O7 1.936 1_565 S
Mg8 O17 2.291 . S
Mg8 O22 2.081 . S
Mg8 O24 2.023 . S
Mg8 O28 2.031 . S
Mg9 O7 1.963 . S
Mg9 O13 1.986 . S
Mg9 O25 1.942 . S
Mg9 O26 1.955 . S
C10 O21 1.191 1_455 S
C10 O23 1.307 . S
O11 Mg6 2.013 . S
O11 C30 1.191 1_455 S
O12 Mg3 2.081 . S
O12 C20 1.331 . S
O13 Mg9 1.986 . S
O13 C30 1.307 . S
O14 Mg3 2.023 . S
O14 C29 1.264 1_565 S
O15 Mg4 1.942 . S
O15 C20 1.244 1_545 S
O16 Mg4 1.955 . S
O16 C29 1.273 . S
O17 Mg6 2.114 1_665 S
O17 Mg8 2.291 . S
O17 C19 1.312 1_655 S
O18 Mg3 2.031 . S
O18 C19 1.208 . S
C19 O17 1.312 1_455 S
C19 O18 1.208 . S
C20 O12 1.331 . S
C20 O15 1.244 1_565 S
O21 Mg6 2.013 1_655 S
O21 C10 1.191 1_655 S
O22 C1 1.331 . S
O22 Mg8 2.081 . S
O23 Mg4 1.986 . S
O23 C10 1.307 . S
O24 C2 1.264 1_565 S
O24 Mg8 2.023 . S
O25 C1 1.244 1_545 S
O25 Mg9 1.942 . S
O26 C2 1.273 . S
O26 Mg9 1.955 . S
O27 C0 1.312 1_455 S
O27 Mg3 2.291 . S
O27 Mg6 2.114 1_565 S
O28 C0 1.208 . S
O28 Mg8 2.031 . S
C29 O14 1.264 1_545 S
C29 O16 1.273 . S
C30 O11 1.191 1_655 S
C30 O13 1.307 . S
C31 O58 1.312 1_545 S
C31 O59 1.208 . S
C32 O53 1.331 . S
C32 O56 1.244 1_556 S
C33 O55 1.264 1_554 S
C33 O57 1.273 . S
Mg34 O36 1.936 1_556 S
Mg34 O43 2.081 . S
Mg34 O45 2.023 . S
Mg34 O49 2.031 . S
Mg34 O58 2.291 . S
Mg35 O36 1.963 . S
Mg35 O46 1.942 . S
Mg35 O47 1.955 . S
Mg35 O54 1.986 . S
O36 Mg34 1.936 1_554 S
O36 Mg35 1.963 . S
O36 Mg37 1.915 1_565 S
Mg37 O36 1.915 1_545 S
Mg37 O38 1.915 . S
Mg37 O42 2.013 1_545 S
Mg37 O48 2.114 1_554 S
Mg37 O52 2.013 . S
Mg37 O58 2.114 1_544 S
O38 Mg37 1.915 . S
O38 Mg39 1.936 1_554 S
O38 Mg40 1.963 . S
Mg39 O38 1.936 1_556 S
Mg39 O48 2.291 . S
Mg39 O53 2.081 . S
Mg39 O55 2.023 . S
Mg39 O59 2.031 . S
Mg40 O38 1.963 . S
Mg40 O44 1.986 . S
Mg40 O56 1.942 . S
Mg40 O57 1.955 . S
C41 O52 1.191 1_565 S
C41 O54 1.307 . S
O42 Mg37 2.013 1_565 S
O42 C61 1.191 1_565 S
O43 Mg34 2.081 . S
O43 C51 1.331 . S
O44 Mg40 1.986 . S
O44 C61 1.307 . S
O45 Mg34 2.023 . S
O45 C60 1.264 1_556 S
O46 Mg35 1.942 . S
O46 C51 1.244 1_554 S
O47 Mg35 1.955 . S
O47 C60 1.273 . S
O48 Mg37 2.114 1_556 S
O48 Mg39 2.291 . S
O48 C50 1.312 1_545 S
O49 Mg34 2.031 . S
O49 C50 1.208 . S
C50 O48 1.312 1_565 S
C50 O49 1.208 . S
C51 O43 1.331 . S
C51 O46 1.244 1_556 S
O52 Mg37 2.013 . S
O52 C41 1.191 1_545 S
O53 C32 1.331 . S
O53 Mg39 2.081 . S
O54 Mg35 1.986 . S
O54 C41 1.307 . S
O55 C33 1.264 1_556 S
O55 Mg39 2.023 . S
O56 C32 1.244 1_554 S
O56 Mg40 1.942 . S
O57 C33 1.273 . S
O57 Mg40 1.955 . S
O58 C31 1.312 1_565 S
O58 Mg34 2.291 . S
O58 Mg37 2.114 1_566 S
O59 C31 1.208 . S
O59 Mg39 2.031 . S
C60 O45 1.264 1_554 S
C60 O47 1.273 . S
C61 O42 1.191 1_545 S
C61 O44 1.307 . S
C62 O89 1.312 1_556 S
C62 O90 1.208 . S
C63 O84 1.331 . S
C63 O87 1.244 1_655 S
C64 O86 1.264 1_455 S
C64 O88 1.273 . S
Mg65 O67 1.936 1_655 S
Mg65 O74 2.081 . S
Mg65 O76 2.023 . S
Mg65 O80 2.031 . S
Mg65 O89 2.291 . S
Mg66 O67 1.963 . S
Mg66 O77 1.942 . S
Mg66 O78 1.955 . S
Mg66 O85 1.986 . S
O67 Mg65 1.936 1_455 S
O67 Mg66 1.963 . S
O67 Mg68 1.915 . S
Mg68 O67 1.915 . S
Mg68 O69 1.915 1_554 S
Mg68 O73 2.013 . S
Mg68 O79 2.114 1_454 S
Mg68 O83 2.013 1_554 S
Mg68 O89 2.114 1_455 S
O69 Mg68 1.915 1_556 S
O69 Mg70 1.936 1_455 S
O69 Mg71 1.963 . S
Mg70 O69 1.936 1_655 S
Mg70 O79 2.291 . S
Mg70 O84 2.081 . S
Mg70 O86 2.023 . S
Mg70 O90 2.031 . S
Mg71 O69 1.963 . S
Mg71 O75 1.986 . S
Mg71 O87 1.942 . S
Mg71 O88 1.955 . S
C72 O83 1.191 1_554 S
C72 O85 1.307 . S
O73 Mg68 2.013 . S
O73 C92 1.191 1_554 S
O74 Mg65 2.081 . S
O74 C82 1.331 . S
O75 Mg71 1.986 . S
O75 C92 1.307 . S
O76 Mg65 2.023 . S
O76 C91 1.264 1_655 S
O77 Mg66 1.942 . S
O77 C82 1.244 1_455 S
O78 Mg66 1.955 . S
O78 C91 1.273 . S
O79 Mg68 2.114 1_656 S
O79 Mg70 2.291 . S
O79 C81 1.312 1_556 S
O80 Mg65 2.031 . S
O80 C81 1.208 . S
C81 O79 1.312 1_554 S
C81 O80 1.208 . S
C82 O74 1.331 . S
C82 O77 1.244 1_655 S
O83 Mg68 2.013 1_556 S
O83 C72 1.191 1_556 S
O84 C63 1.331 . S
O84 Mg70 2.081 . S
O85 Mg66 1.986 . S
O85 C72 1.307 . S
O86 C64 1.264 1_655 S
O86 Mg70 2.023 . S
O87 C63 1.244 1_455 S
O87 Mg71 1.942 . S
O88 C64 1.273 . S
O88 Mg71 1.955 . S
O89 C62 1.312 1_554 S
O89 Mg65 2.291 . S
O89 Mg68 2.114 1_655 S
O90 C62 1.208 . S
O90 Mg70 2.031 . S
C91 O76 1.264 1_455 S
C91 O78 1.273 . S
C92 O73 1.191 1_556 S
C92 O75 1.307 . S
C93 C94 1.387 . S
C93 H97 0.950 . S
C93 C102 1.390 . S
C94 C93 1.387 . S
C94 C96 1.387 1_655 S
H95 C102 0.950 . S
C96 C94 1.387 1_455 S
C96 C98 1.390 . S
C96 H100 0.950 . S
H97 C93 0.950 . S
C98 C96 1.390 . S
C98 C99 1.387 . S
C98 H101 0.950 . S
C99 C98 1.387 . S
C99 C102 1.387 1_455 S
H100 C96 0.950 . S
H101 C98 0.950 . S
C102 C93 1.390 . S
C102 H95 0.950 . S
C102 C99 1.387 1_655 S
C103 C104 1.387 1_565 S
C103 H107 0.950 . S
C103 C112 1.390 . S
C104 C103 1.387 1_545 S
C104 C106 1.387 . S
H105 C112 0.950 . S
C106 C104 1.387 . S
C106 C108 1.390 . S
C106 H110 0.950 . S
H107 C103 0.950 . S
C108 C106 1.390 . S
C108 C109 1.387 . S
C108 H111 0.950 . S
C109 C108 1.387 . S
C109 C112 1.387 1_545 S
H110 C106 0.950 . S
H111 C108 0.950 . S
C112 C103 1.390 . S
C112 H105 0.950 . S
C112 C109 1.387 1_565 S
C113 C114 1.390 . S
C113 H117 0.950 . S
C113 C122 1.390 . S
C114 C113 1.390 . S
C114 C116 1.386 1_455 S
H115 C122 0.950 . S
C116 C114 1.386 1_655 S
C116 C118 1.390 . S
C116 H120 0.950 . S
H117 C113 0.950 . S
C118 C116 1.390 . S
C118 C119 1.387 1_655 S
C118 H121 0.950 . S
C119 C118 1.387 1_455 S
C119 C122 1.387 . S
H120 C116 0.950 . S
H121 C118 0.950 . S
C122 C113 1.390 . S
C122 H115 0.950 . S
C122 C119 1.387 . S
C123 C124 1.387 1_565 S
C123 H127 0.950 . S
C123 C132 1.390 . S
C124 C123 1.387 1_545 S
C124 C126 1.387 . S
H125 C132 0.950 . S
C126 C124 1.387 . S
C126 C128 1.390 . S
C126 H130 0.950 . S
H127 C123 0.950 . S
C128 C126 1.390 . S
C128 C129 1.387 1_545 S
C128 H131 0.950 . S
C129 C128 1.387 1_565 S
C129 C132 1.387 . S
H130 C126 0.950 . S
H131 C128 0.950 . S
C132 C123 1.390 . S
C132 H125 0.950 . S
C132 C129 1.387 . S
C133 C134 1.387 . S
C133 H137 0.950 . S
C133 C142 1.390 . S
C134 C133 1.387 . S
C134 C136 1.387 1_455 S
H135 C142 0.950 . S
C136 C134 1.387 1_655 S
C136 C138 1.390 . S
C136 H140 0.950 . S
H137 C133 0.950 . S
C138 C136 1.390 . S
C138 C139 1.387 . S
C138 H141 0.950 . S
C139 C138 1.387 . S
C139 C142 1.387 1_655 S
H140 C136 0.950 . S
H141 C138 0.950 . S
C142 C133 1.390 . S
C142 H135 0.950 . S
C142 C139 1.387 1_455 S
C143 C144 1.395 . S
C143 H147 0.950 . S
C143 C152 1.390 . S
C144 C143 1.395 . S
C144 C146 1.381 1_545 S
H145 C152 0.950 . S
C146 C144 1.381 1_565 S
C146 C148 1.390 . S
C146 H150 0.950 . S
H147 C143 0.950 . S
C148 C146 1.390 . S
C148 C149 1.387 1_565 S
C148 H151 0.950 . S
C149 C148 1.387 1_545 S
C149 C152 1.387 . S
H150 C146 0.950 . S
H151 C148 0.950 . S
C152 C143 1.390 . S
C152 H145 0.950 . S
C152 C149 1.387 . S
C153 C154 1.387 1_655 S
C153 H157 0.950 . S
C153 C162 1.390 . S
C154 C153 1.387 1_455 S
C154 C156 1.387 . S
H155 C162 0.950 . S
C156 C154 1.387 . S
C156 C158 1.390 . S
C156 H160 0.950 . S
H157 C153 0.950 . S
C158 C156 1.390 . S
C158 C159 1.387 . S
C158 H161 0.950 . S
C159 C158 1.387 . S
C159 C162 1.387 1_455 S
H160 C156 0.950 . S
H161 C158 0.950 . S
C162 C153 1.390 . S
C162 H155 0.950 . S
C162 C159 1.387 1_655 S
C163 C164 1.387 . S
C163 H167 0.950 . S
C163 C172 1.390 . S
C164 C163 1.387 . S
C164 C166 1.387 1_545 S
H165 C172 0.950 . S
C166 C164 1.387 1_565 S
C166 C168 1.390 . S
C166 H170 0.950 . S
H167 C163 0.950 . S
C168 C166 1.390 . S
C168 C169 1.387 . S
C168 H171 0.950 . S
C169 C168 1.387 . S
C169 C172 1.387 1_565 S
H170 C166 0.950 . S
H171 C168 0.950 . S
C172 C163 1.390 . S
C172 H165 0.950 . S
C172 C169 1.387 1_545 S
C173 C174 1.387 1_556 S
C173 H177 0.950 . S
C173 C182 1.390 . S
C174 C173 1.387 1_554 S
C174 C176 1.387 . S
H175 C182 0.950 . S
C176 C174 1.387 . S
C176 C178 1.390 . S
C176 H180 0.950 . S
H177 C173 0.950 . S
C178 C176 1.390 . S
C178 C179 1.387 1_554 S
C178 H181 0.950 . S
C179 C178 1.387 1_556 S
C179 C182 1.387 . S
H180 C176 0.950 . S
H181 C178 0.950 . S
C182 C173 1.390 . S
C182 H175 0.950 . S
C182 C179 1.387 . S
C183 C184 1.387 1_556 S
C183 H187 0.950 . S
C183 C192 1.390 . S
C184 C183 1.387 1_554 S
C184 C186 1.387 . S
H185 C192 0.950 . S
C186 C184 1.387 . S
C186 C188 1.390 . S
C186 H190 0.950 . S
H187 C183 0.950 . S
C188 C186 1.390 . S
C188 C189 1.387 . S
C188 H191 0.950 . S
C189 C188 1.387 . S
C189 C192 1.387 1_554 S
H190 C186 0.950 . S
H191 C188 0.950 . S
C192 C183 1.390 . S
C192 H185 0.950 . S
C192 C189 1.387 1_556 S
C193 C194 1.387 1_556 S
C193 H197 0.950 . S
C193 C202 1.390 . S
C194 C193 1.387 1_554 S
C194 C196 1.387 . S
H195 C202 0.950 . S
C196 C194 1.387 . S
C196 C198 1.390 . S
C196 H200 0.950 . S
H197 C193 0.950 . S
C198 C196 1.390 . S
C198 C199 1.393 . S
C198 H201 0.950 . S
C199 C198 1.393 . S
C199 C202 1.382 1_554 S
H200 C196 0.950 . S
H201 C198 0.950 . S
C202 C193 1.390 . S
C202 H195 0.950 . S
C202 C199 1.382 1_556 S
C203 C204 1.387 . S
C203 H207 0.950 . S
C203 C212 1.390 . S
C204 C203 1.387 . S
C204 C206 1.387 1_554 S
H205 C212 0.950 . S
C206 C204 1.387 1_556 S
C206 C208 1.390 . S
C206 H210 0.950 . S
H207 C203 0.950 . S
C208 C206 1.390 . S
C208 C209 1.387 . S
C208 H211 0.950 . S
C209 C208 1.387 . S
C209 C212 1.387 1_556 S
H210 C206 0.950 . S
H211 C208 0.950 . S
C212 C203 1.390 . S
C212 H205 0.950 . S
C212 C209 1.387 1_554 S
C94 C82 1.419 . S
C99 C10 1.369 . S
C104 C2 1.457 . S
C109 C41 1.389 1_545 S
C114 C19 1.404 . S
C119 C91 1.520 . S
C124 C61 1.369 . S
C129 C20 1.419 . S
C134 C0 1.328 1_455 S
C139 C63 1.443 . S
C144 C31 1.404 . S
C149 C29 1.519 . S
C154 C64 1.457 . S
C159 C30 1.389 1_455 S
C164 C50 1.331 1_545 S
C169 C1 1.444 . S
C174 C72 1.369 . S
C179 C32 1.419 . S
C184 C92 1.389 1_554 S
C189 C60 1.457 . S
C194 C33 1.519 . S
C199 C81 1.400 . S
C204 C62 1.328 1_554 S
C209 C51 1.443 . S
