# Generated by pormake.
# Topology pcu, (6)-cn, num edge types: 1
# Building blocks:
#     Node 0, Type 0, BuildingBlock: GEDQOX_clean_sbu_0, # of connection points: 6
#     Edge 1, Type (0, 0), None
#     Edge 2, Type (0, 0), None
#     Edge 3, Type (0, 0), None
# Relax obj value: 0.000
# Max RMSD: 0.000
# Mean RMSD: 0.000
data_MOF--net-pcu--node1-GEDQOX_clean_sbu_0--edge1-none
_symmetry_space_group_name_H-M    P1
_symmetry_Int_Tables_number       1
_symmetry_cell_setting            triclinic
loop_
_symmetry_equiv_pos_as_xyz
'x, y, z'
_cell_length_a     7.0311256
_cell_length_b     16.894686
_cell_length_c     6.0916231
_cell_angle_alpha  83.508184
_cell_angle_beta   95.661762
_cell_angle_gamma 120.32575
loop_
_atom_site_label
_atom_site_type_symbol
_atom_site_fract_x
_atom_site_fract_y
_atom_site_fract_z
_atom_type_partial_charge
Nd0 Nd 0.15665 0.12278 1.01467 0.0
Nd1 Nd 0.88722 0.91048 0.06415 0.0
C2 C 0.32248 0.30062 0.04742 0.0
C3 C 0.23208 0.36253 0.04709 0.0
C4 C 0.04139 0.33607 0.15935 0.0
C5 C 0.95542 0.39501 0.15326 0.0
C6 C 0.05858 0.48185 1.03531 0.0
C7 C 0.24815 0.50725 0.9208 0.0
C8 C 0.33318 0.44801 0.9261 0.0
C9 C 0.04904 0.03868 0.6303 0.0
C10 C 0.61358 1.01506 0.03784 0.0
C11 C 0.7208 0.73255 1.03096 0.0
C12 C 0.80627 0.66848 1.02959 0.0
C13 C 0.90383 0.66533 0.8426 0.0
C14 C 0.98407 0.60459 0.84394 0.0
C15 C 0.96964 0.54566 1.03248 0.0
C16 C 0.8703 0.54861 0.21882 0.0
C17 C 0.7884 0.6088 0.21671 0.0
C18 C 0.99468 0.99491 0.44825 0.0
C19 C 0.43026 0.01818 0.04082 0.0
O20 O 0.28498 0.24141 0.21924 0.0
O21 O 0.30021 0.26525 0.86003 0.0
O22 O 0.23755 0.1117 0.66691 0.0
O23 O 0.92198 1.01484 0.78637 0.0
O24 O 0.80387 0.0907 0.07162 0.0
O25 O 0.59934 0.93698 0.99978 0.0
O26 O 0.75727 0.79176 0.85929 0.0
O27 O 0.74355 0.7681 0.21839 0.0
O28 O 0.80619 0.92185 0.4118 0.0
O29 O 0.12167 0.01833 0.29237 0.0
O30 O 0.23995 0.94253 1.00699 0.0
O31 O 0.44454 0.09627 0.07897 0.0
H32 H 0.95753 0.26953 0.25049 0.0
H33 H 0.80621 0.37169 0.23881 0.0
H34 H 0.33337 0.57345 0.82903 0.0
H35 H 0.47852 0.46906 0.83571 0.0
H36 H 0.91828 0.70966 0.69459 0.0
H37 H 0.05538 0.60341 0.69574 0.0
H38 H 0.85783 0.50526 0.36811 0.0
H39 H 0.71117 0.60873 0.36213 0.0
loop_
_geom_bond_atom_site_label_1
_geom_bond_atom_site_label_2
_geom_bond_distance
_geom_bond_site_symmetry_2
_ccdc_geom_bond_type
Nd0 C2 2.836 . S
Nd0 O20 2.500 1_556 S
Nd0 O21 2.492 . S
Nd0 O22 2.487 . S
Nd0 O23 2.682 1_445 S
Nd0 O24 2.410 1_455 S
Nd0 O29 2.414 1_556 S
Nd0 O31 2.424 . S
Nd1 C11 2.836 . S
Nd1 O23 2.414 1_554 S
Nd1 O25 2.424 . S
Nd1 O26 2.500 1_554 S
Nd1 O27 2.492 . S
Nd1 O28 2.487 . S
Nd1 O29 2.682 1_665 S
Nd1 O30 2.410 1_655 S
C2 Nd0 2.836 . S
C2 C3 1.498 . S
C2 O20 1.258 1_556 S
C2 O21 1.239 . S
C3 C2 1.498 . S
C3 C4 1.366 1_456 S
C3 C8 1.407 . S
C4 C3 1.366 1_654 S
C4 C5 1.392 . S
C4 H32 0.930 . S
C5 C4 1.392 . S
C5 C6 1.398 1_654 S
C5 H33 0.929 . S
C6 C5 1.398 1_456 S
C6 C7 1.352 . S
C7 C6 1.352 . S
C7 C8 1.384 . S
C7 H34 0.930 . S
C8 C3 1.407 . S
C8 C7 1.384 . S
C8 H35 0.929 . S
C9 O22 1.241 . S
C9 O23 1.273 1_445 S
C10 O24 1.251 1_565 S
C10 O25 1.268 1_556 S
C11 Nd1 2.836 . S
C11 C12 1.498 . S
C11 O26 1.258 1_554 S
C11 O27 1.239 . S
C12 C11 1.498 . S
C12 C13 1.366 1_654 S
C12 C17 1.407 . S
C13 C12 1.366 1_456 S
C13 C14 1.392 . S
C13 H36 0.930 . S
C14 C13 1.392 . S
C14 C15 1.398 1_456 S
C14 H37 0.929 . S
C15 C14 1.398 1_654 S
C15 C16 1.352 . S
C16 C15 1.352 . S
C16 C17 1.384 . S
C16 H38 0.930 . S
C17 C12 1.407 . S
C17 C16 1.384 . S
C17 H39 0.929 . S
C18 O28 1.241 . S
C18 O29 1.273 1_665 S
C19 O30 1.251 1_545 S
C19 O31 1.268 1_554 S
O20 Nd0 2.500 1_554 S
O20 C2 1.258 1_554 S
O21 Nd0 2.492 . S
O21 C2 1.239 . S
O22 Nd0 2.487 . S
O22 C9 1.241 . S
O23 Nd0 2.682 1_665 S
O23 Nd1 2.414 1_556 S
O23 C9 1.273 1_665 S
O24 Nd0 2.410 1_655 S
O24 C10 1.251 1_545 S
O25 Nd1 2.424 . S
O25 C10 1.268 1_554 S
O26 Nd1 2.500 1_556 S
O26 C11 1.258 1_556 S
O27 Nd1 2.492 . S
O27 C11 1.239 . S
O28 Nd1 2.487 . S
O28 C18 1.241 . S
O29 Nd0 2.414 1_554 S
O29 Nd1 2.682 1_445 S
O29 C18 1.273 1_445 S
O30 Nd1 2.410 1_455 S
O30 C19 1.251 1_565 S
O31 Nd0 2.424 . S
O31 C19 1.268 1_556 S
H32 C4 0.930 . S
H33 C5 0.929 . S
H34 C7 0.930 . S
H35 C8 0.929 . S
H36 C13 0.930 . S
H37 C14 0.929 . S
H38 C16 0.930 . S
H39 C17 0.929 . S
C18 C9 1.500 1_665 S
C19 C10 1.500 1_544 S
C15 C6 1.500 1_654 S
