# Generated by pormake.
# Topology hex, (8)-cn, num edge types: 1
# Building blocks:
#     Node 0, Type 0, BuildingBlock: LIZSOE_clean_sbu_0, # of connection points: 8
#     Edge 1, Type (0, 0), BuildingBlock: TEMPAE_clean_linker_10, # of connection points: 2
#     Edge 2, Type (0, 0), BuildingBlock: TEMPAE_clean_linker_10, # of connection points: 2
#     Edge 3, Type (0, 0), BuildingBlock: TEMPAE_clean_linker_10, # of connection points: 2
#     Edge 4, Type (0, 0), BuildingBlock: TEMPAE_clean_linker_10, # of connection points: 2
# Relax obj value: 0.133
# Max RMSD: 0.233
# Mean RMSD: 0.233
data_MOF--net-hex--node1-LIZSOE_clean_sbu_0--edge1-TEMPAE_clean_linker_10
_symmetry_space_group_name_H-M    P1
_symmetry_Int_Tables_number       1
_symmetry_cell_setting            triclinic
loop_
_symmetry_equiv_pos_as_xyz
'x, y, z'
_cell_length_a     15.955422
_cell_length_b     22.729268
_cell_length_c     15.832006
_cell_angle_alpha  106.78523
_cell_angle_beta   78.558334
_cell_angle_gamma 135.59248
loop_
_atom_site_label
_atom_site_type_symbol
_atom_site_fract_x
_atom_site_fract_y
_atom_site_fract_z
_atom_type_partial_charge
Co0 Co 0.07427 0.89718 0.00697 0.0
N1 N 1.01906 0.79898 0.03323 0.0
C2 C 0.92132 0.71722 -0.00429 0.0
N3 N 1.00294 0.70645 0.079 0.0
C4 C 0.064 0.78972 0.08619 0.0
C5 C 0.90841 0.66117 0.02662 0.0
Co6 Co 0.93379 0.09832 0.94868 0.0
N7 N 0.96334 0.1672 0.88584 0.0
N8 N 0.0276 0.28292 0.85315 0.0
C9 C 0.9675 0.21759 0.78247 0.0
C10 C 0.92875 0.14637 0.80252 0.0
C11 C 1.02202 0.25035 0.91523 0.0
Co12 Co 1.01149 1.00271 0.99295 0.0
C13 C 0.80411 0.98557 0.05271 0.0
H14 H 0.87483 0.08279 0.76032 0.0
O15 O 0.12612 0.98624 0.97764 0.0
O16 O 0.16519 0.13124 0.01346 0.0
O17 O 1.00417 1.00453 0.12438 0.0
O18 O 0.84861 0.87743 0.97187 0.0
O19 O 0.9198 0.83318 -0.00324 0.0
O20 O 0.09784 0.17725 0.97131 0.0
O21 O 0.90505 0.02759 0.01216 0.0
O22 O 0.94206 0.0401 0.84614 0.0
O23 O 0.06228 0.93762 0.12383 0.0
O24 O 0.07852 0.86346 0.89105 0.0
O25 O 1.02223 0.99468 0.86132 0.0
O26 O 0.90221 0.0276 0.01243 0.0
C27 C 0.02896 0.97563 0.16401 0.0
C28 C 0.06052 0.29716 0.00949 0.0
H29 H 0.04013 0.25682 0.05117 0.0
H30 H 0.15785 0.35459 0.01148 0.0
H31 H 1.01646 0.32019 0.03711 0.0
C32 C 0.18229 0.1913 -0.00323 0.0
C33 C 0.83136 0.81721 0.98347 0.0
H34 H 0.86704 0.69867 0.94362 0.0
H35 H 0.25231 0.88506 0.10072 0.0
H36 H 0.17412 0.84199 0.19703 0.0
H37 H 0.18179 0.91748 0.16828 0.0
C38 C 0.17412 0.86307 0.14191 0.0
C39 C 0.15251 0.94016 0.94167 0.0
C40 C 0.97966 1.00505 0.81362 0.0
H41 H 0.848 0.59276 -0.0016 0.0
H42 H 0.94767 0.22017 0.72283 0.0
C43 C 0.16993 0.43843 0.90663 0.0
C44 C 0.05753 0.36118 0.8704 0.0
C45 C 0.18967 0.51056 0.94907 0.0
C46 C 0.09452 0.50436 0.95333 0.0
C47 C 0.98304 0.42796 0.9114 0.0
C48 C 0.96609 0.35697 0.87014 0.0
C49 C 0.3092 0.59115 0.99332 0.0
C50 C 0.87992 0.41978 0.91352 0.0
C51 C 0.04293 0.63148 0.11727 0.0
C52 C 0.06238 0.67881 0.0631 0.0
C53 C 0.06778 0.58097 0.08614 0.0
C54 C 0.11017 0.57777 -0.00108 0.0
C55 C 0.14106 0.63242 0.94801 0.0
C56 C 0.11527 0.68155 0.98057 0.0
C57 C 0.03555 0.52375 0.14224 0.0
C58 C 0.18759 0.63159 0.85516 0.0
H59 H 0.23917 0.44004 0.90704 0.0
H60 H 0.87886 0.29619 0.84324 0.0
H61 H 0.3443 0.64855 0.97386 0.0
H62 H 0.29797 0.60078 0.06594 0.0
H63 H 0.37668 0.5877 0.97702 0.0
H64 H 0.80022 0.35616 0.87622 0.0
H65 H 0.8534 0.42855 0.98278 0.0
H66 H 0.90756 0.47072 0.88506 0.0
H67 H 0.99975 0.62868 0.18026 0.0
H68 H 0.1273 0.7173 0.93859 0.0
H69 H 0.10272 0.52043 0.13539 0.0
H70 H 0.94763 0.45748 0.1199 0.0
H71 H 0.02873 0.5467 0.21302 0.0
H72 H 0.25507 0.6289 0.85062 0.0
H73 H 0.22863 0.68925 0.83209 0.0
H74 H 0.11223 0.57345 0.8098 0.0
C75 C 0.59754 0.92321 0.04861 0.0
C76 C 0.72071 0.99475 0.04788 0.0
C77 C 0.51474 0.9249 0.0344 0.0
C78 C 0.55466 1.00045 0.01868 0.0
C79 C 0.67989 0.07473 0.02255 0.0
C80 C 0.76014 0.07136 0.03947 0.0
C81 C 0.3846 0.84446 0.0371 0.0
C82 C 0.7323 0.1576 0.00517 0.0
C83 C 0.31897 0.9464 0.89042 0.0
C84 C 0.27532 0.97664 0.95431 0.0
C85 C 0.41496 0.95939 0.90863 0.0
C86 C 0.46643 1.00003 -0.00539 0.0
C87 C 0.42887 0.03636 0.05759 0.0
C88 C 0.33583 0.02579 0.03609 0.0
C89 C 0.45698 0.92531 0.83663 0.0
C90 C 0.47934 0.07973 0.15033 0.0
H91 H 0.56533 0.86436 0.05798 0.0
H92 H 0.85405 0.12922 0.04635 0.0
H93 H 0.33005 0.83863 -0.00428 0.0
H94 H 0.36987 0.7866 0.01444 0.0
H95 H 0.35385 0.84574 0.1063 0.0
H96 H 0.7781 0.1669 0.9407 0.0
H97 H 0.66529 0.15939 0.00281 0.0
H98 H 0.80041 0.21284 0.0566 0.0
H99 H 0.27478 0.90932 0.82642 0.0
H100 H 0.30338 0.04936 0.08626 0.0
H101 H 0.42166 0.86503 0.84832 0.0
H102 H 0.55631 0.97247 0.8368 0.0
H103 H 0.42564 0.91096 0.77037 0.0
H104 H 0.47216 0.03696 0.17873 0.0
H105 H 0.43231 0.09633 0.19421 0.0
H106 H 0.57567 0.13968 0.14954 0.0
C107 C 0.39402 0.31872 0.9602 0.0
C108 C 0.29635 0.28393 0.01724 0.0
C109 C 0.48249 0.4078 0.96028 0.0
C110 C 0.46888 0.4627 0.01463 0.0
C111 C 0.37291 0.42776 0.07535 0.0
C112 C 0.29136 0.34018 0.07779 0.0
C113 C 0.58679 0.44071 0.89886 0.0
C114 C 0.35068 0.48075 0.13505 0.0
C115 C 0.70588 0.70927 0.07483 0.0
C116 C 0.71426 0.73187 -0.00235 0.0
C117 C 0.63169 0.62329 0.07966 0.0
C118 C 0.5528 0.55566 0.00842 0.0
C119 C 0.55379 0.57814 0.93243 0.0
C120 C 0.63648 0.66574 0.92722 0.0
C121 C 0.6479 0.60796 0.15923 0.0
C122 C 0.47366 0.5111 0.85333 0.0
H123 H 0.39827 0.27586 0.91231 0.0
H124 H 0.21599 0.31362 0.12216 0.0
H125 H 0.55587 0.4197 0.83014 0.0
H126 H 0.66208 0.5118 0.91463 0.0
H127 H 0.62052 0.41215 0.90134 0.0
H128 H 0.25553 0.4397 0.1553 0.0
H129 H 0.4049 0.51543 0.19626 0.0
H130 H 0.37489 0.52859 0.10293 0.0
H131 H 0.76861 0.75991 0.12866 0.0
H132 H 0.64498 0.68201 0.86607 0.0
H133 H 0.602 0.54063 0.15295 0.0
H134 H 0.61526 0.62669 0.21878 0.0
H135 H 0.7448 0.6504 0.17096 0.0
H136 H 0.52712 0.50652 0.80052 0.0
H137 H 0.43943 0.53095 0.82661 0.0
H138 H 0.39647 0.44646 0.86801 0.0
C139 C 0.08416 0.01413 0.67033 0.0
C140 C 0.97945 0.98318 0.71663 0.0
C141 C 0.09197 0.0135 0.57993 0.0
C142 C 0.99265 0.98106 0.53576 0.0
C143 C 0.8851 0.94608 0.58176 0.0
C144 C 0.87992 0.94753 0.67146 0.0
C145 C 0.20767 0.05046 0.53248 0.0
C146 C 0.77665 0.90973 0.53705 0.0
C147 C 0.03959 0.04729 0.32215 0.0
C148 C 1.00913 0.97667 0.25937 0.0
C149 C 0.03515 0.05003 0.41298 0.0
C150 C 0.9988 0.98037 0.44056 0.0
C151 C 0.9641 0.90792 0.37705 0.0
C152 C 0.96939 0.90695 0.28769 0.0
C153 C 0.07165 0.12798 0.47938 0.0
C154 C 0.92289 0.83168 0.40324 0.0
H155 H 0.16183 0.04337 0.70575 0.0
H156 H 0.7992 0.92426 0.70775 0.0
H157 H 0.19076 1.00213 0.47372 0.0
H158 H 0.24547 0.1068 0.50864 0.0
H159 H 0.27538 0.0711 0.5755 0.0
H160 H 0.69907 0.88335 0.58199 0.0
H161 H 0.79898 0.96075 0.51283 0.0
H162 H 0.74948 0.85776 0.47885 0.0
H163 H 0.0709 0.10129 0.30038 0.0
H164 H 0.94418 0.8515 0.2393 0.0
H165 H 0.14964 0.15921 0.51876 0.0
H166 H 0.99763 0.10829 0.52607 0.0
H167 H 0.0958 0.17599 0.4475 0.0
H168 H 0.99483 0.85272 0.4412 0.0
H169 H 0.89841 0.78014 0.34526 0.0
H170 H 0.84396 0.80403 0.44676 0.0
loop_
_geom_bond_atom_site_label_1
_geom_bond_atom_site_label_2
_geom_bond_distance
_geom_bond_site_symmetry_2
_ccdc_geom_bond_type
Co0 N1 2.034 . S
Co0 O15 2.262 1_654 S
Co0 O19 1.958 1_554 S
Co0 O23 1.950 1_655 S
Co0 O24 2.057 1_654 S
N1 Co0 2.034 . S
N1 C2 1.366 . S
N1 C4 1.332 1_655 S
C2 N1 1.366 . S
C2 C5 1.377 . S
C2 H34 0.931 . S
N3 C4 1.341 . S
N3 C5 1.332 1_455 S
C4 N1 1.332 1_455 S
C4 N3 1.341 . S
C4 C38 1.361 . S
C5 C2 1.377 . S
C5 N3 1.332 1_655 S
C5 H41 0.930 . S
Co6 N7 2.034 1_655 S
Co6 O20 1.950 1_655 S
Co6 O21 2.257 1_556 S
Co6 O22 1.958 . S
Co6 O26 2.060 . S
N7 Co6 2.034 1_455 S
N7 C10 1.366 . S
N7 C11 1.332 . S
N8 C9 1.337 . S
N8 C11 1.346 . S
C9 N8 1.337 . S
C9 C10 1.377 . S
C9 H42 0.930 . S
C10 N7 1.366 . S
C10 C9 1.377 . S
C10 H14 0.931 . S
C11 N7 1.332 . S
C11 N8 1.346 . S
C11 C28 1.361 1_556 S
Co12 O15 2.097 1_655 S
Co12 O16 2.065 1_666 S
Co12 O17 2.065 1_566 S
Co12 O18 2.042 . S
Co12 O21 2.099 1_566 S
Co12 O25 2.042 1_655 S
C13 O21 1.253 . S
C13 O26 1.259 1_554 S
H14 C10 0.931 . S
O15 Co0 2.262 1_456 S
O15 Co12 2.097 1_455 S
O15 C39 1.253 . S
O16 Co12 2.065 1_444 S
O16 C32 1.221 . S
O17 Co12 2.065 1_544 S
O17 C27 1.221 1_545 S
O18 Co12 2.042 . S
O18 C33 1.237 . S
O19 Co0 1.958 1_556 S
O19 C33 1.278 . S
O20 Co6 1.950 1_455 S
O20 C32 1.277 1_556 S
O21 Co6 2.257 1_554 S
O21 Co12 2.099 1_544 S
O21 C13 1.253 . S
O22 Co6 1.958 . S
O22 C40 1.286 . S
O23 Co0 1.950 1_455 S
O23 C27 1.277 1_455 S
O24 Co0 2.057 1_456 S
O24 C39 1.263 . S
O25 Co12 2.042 1_455 S
O25 C40 1.231 1_465 S
O26 Co6 2.060 . S
O26 C13 1.259 1_556 S
C27 O17 1.221 1_565 S
C27 O23 1.277 1_655 S
C28 C11 1.361 1_554 S
C28 H29 0.960 . S
C28 H30 0.961 . S
C28 H31 0.961 1_455 S
H29 C28 0.960 . S
H30 C28 0.961 . S
H31 C28 0.961 1_655 S
C32 O16 1.221 . S
C32 O20 1.277 1_554 S
C33 O18 1.237 . S
C33 O19 1.278 . S
H34 C2 0.931 . S
H35 C38 0.961 . S
H36 C38 0.961 . S
H37 C38 0.960 . S
C38 C4 1.361 . S
C38 H35 0.961 . S
C38 H36 0.961 . S
C38 H37 0.960 . S
C39 O15 1.253 . S
C39 O24 1.263 . S
C40 O22 1.286 . S
C40 O25 1.231 1_645 S
H41 C5 0.930 . S
H42 C9 0.930 . S
C43 C44 1.391 1_455 S
C43 C45 1.394 . S
C43 H59 0.931 . S
C44 C43 1.391 1_655 S
C44 C48 1.376 . S
C45 C43 1.394 . S
C45 C46 1.369 1_455 S
C45 C49 1.531 . S
C46 C45 1.369 1_655 S
C46 C47 1.414 . S
C46 C54 1.503 1_656 S
C47 C46 1.414 . S
C47 C48 1.394 . S
C47 C50 1.505 1_556 S
C48 C44 1.376 . S
C48 C47 1.394 . S
C48 H60 0.929 . S
C49 C45 1.531 . S
C49 H61 0.960 . S
C49 H62 0.962 . S
C49 H63 0.960 . S
C50 C47 1.505 1_554 S
C50 H64 0.961 . S
C50 H65 0.961 . S
C50 H66 0.961 . S
C51 C52 1.370 . S
C51 C53 1.363 . S
C51 H67 0.931 . S
C52 C51 1.370 . S
C52 C56 1.408 1_455 S
C53 C51 1.363 . S
C53 C54 1.370 . S
C53 C57 1.524 . S
C54 C46 1.503 1_454 S
C54 C53 1.370 . S
C54 C55 1.403 1_455 S
C55 C54 1.403 1_655 S
C55 C56 1.404 . S
C55 C58 1.539 1_554 S
C56 C52 1.408 1_655 S
C56 C55 1.404 . S
C56 H68 0.930 . S
C57 C53 1.524 . S
C57 H69 0.956 . S
C57 H70 0.961 . S
C57 H71 0.961 . S
C58 C55 1.539 1_556 S
C58 H72 0.958 . S
C58 H73 0.961 . S
C58 H74 0.960 . S
H59 C43 0.931 . S
H60 C48 0.929 . S
H61 C49 0.960 . S
H62 C49 0.962 . S
H63 C49 0.960 . S
H64 C50 0.961 . S
H65 C50 0.961 . S
H66 C50 0.961 . S
H67 C51 0.931 . S
H68 C56 0.930 . S
H69 C57 0.956 . S
H70 C57 0.961 . S
H71 C57 0.961 . S
H72 C58 0.958 . S
H73 C58 0.961 . S
H74 C58 0.960 . S
C75 C76 1.391 1_565 S
C75 C77 1.394 . S
C75 H91 0.931 . S
C76 C75 1.391 1_545 S
C76 C80 1.376 . S
C77 C75 1.394 . S
C77 C78 1.369 1_565 S
C77 C81 1.531 . S
C78 C77 1.369 1_545 S
C78 C79 1.410 . S
C78 C86 1.503 . S
C79 C78 1.410 . S
C79 C80 1.392 . S
C79 C82 1.511 1_554 S
C80 C76 1.376 . S
C80 C79 1.392 . S
C80 H92 0.929 . S
C81 C77 1.531 . S
C81 H93 0.960 . S
C81 H94 0.962 . S
C81 H95 0.960 . S
C82 C79 1.511 1_556 S
C82 H96 0.961 . S
C82 H97 0.961 . S
C82 H98 0.961 1_556 S
C83 C84 1.369 . S
C83 C85 1.363 . S
C83 H99 0.931 . S
C84 C83 1.369 . S
C84 C88 1.408 1_566 S
C85 C83 1.363 . S
C85 C86 1.370 1_566 S
C85 C89 1.524 . S
C86 C78 1.503 . S
C86 C85 1.370 1_544 S
C86 C87 1.403 . S
C87 C86 1.403 . S
C87 C88 1.404 . S
C87 C90 1.539 . S
C88 C84 1.408 1_544 S
C88 C87 1.404 . S
C88 H100 0.930 . S
C89 C85 1.524 . S
C89 H101 0.956 . S
C89 H102 0.961 . S
C89 H103 0.961 . S
C90 C87 1.539 . S
C90 H104 0.958 . S
C90 H105 0.961 . S
C90 H106 0.960 . S
H91 C75 0.931 . S
H92 C80 0.929 . S
H93 C81 0.960 . S
H94 C81 0.962 . S
H95 C81 0.960 . S
H96 C82 0.961 . S
H97 C82 0.961 . S
H98 C82 0.961 1_554 S
H99 C83 0.931 . S
H100 C88 0.930 . S
H101 C89 0.956 . S
H102 C89 0.961 . S
H103 C89 0.961 . S
H104 C90 0.958 . S
H105 C90 0.961 . S
H106 C90 0.960 . S
C107 C108 1.391 1_556 S
C107 C109 1.394 . S
C107 H123 0.931 . S
C108 C107 1.391 1_554 S
C108 C112 1.376 . S
C109 C107 1.394 . S
C109 C110 1.369 . S
C109 C113 1.531 . S
C110 C109 1.369 . S
C110 C111 1.410 1_556 S
C110 C118 1.503 . S
C111 C110 1.410 1_554 S
C111 C112 1.392 . S
C111 C114 1.511 . S
C112 C108 1.376 . S
C112 C111 1.392 . S
C112 H124 0.929 . S
C113 C109 1.531 . S
C113 H125 0.960 . S
C113 H126 0.962 . S
C113 H127 0.960 . S
C114 C111 1.511 . S
C114 H128 0.961 . S
C114 H129 0.961 . S
C114 H130 0.961 . S
C115 C116 1.370 1_554 S
C115 C117 1.363 . S
C115 H131 0.931 . S
C116 C115 1.370 1_556 S
C116 C120 1.408 . S
C117 C115 1.363 . S
C117 C118 1.370 1_554 S
C117 C121 1.524 . S
C118 C110 1.503 . S
C118 C117 1.370 1_556 S
C118 C119 1.403 . S
C119 C118 1.403 . S
C119 C120 1.404 . S
C119 C122 1.539 . S
C120 C116 1.408 . S
C120 C119 1.404 . S
C120 H132 0.930 . S
C121 C117 1.524 . S
C121 H133 0.956 . S
C121 H134 0.961 . S
C121 H135 0.961 . S
C122 C119 1.539 . S
C122 H136 0.958 . S
C122 H137 0.961 . S
C122 H138 0.960 . S
H123 C107 0.931 . S
H124 C112 0.929 . S
H125 C113 0.960 . S
H126 C113 0.962 . S
H127 C113 0.960 . S
H128 C114 0.961 . S
H129 C114 0.961 . S
H130 C114 0.961 . S
H131 C115 0.931 . S
H132 C120 0.930 . S
H133 C121 0.956 . S
H134 C121 0.961 . S
H135 C121 0.961 . S
H136 C122 0.958 . S
H137 C122 0.961 . S
H138 C122 0.960 . S
C139 C140 1.385 1_445 S
C139 C141 1.394 . S
C139 H155 0.931 . S
C140 C139 1.385 1_665 S
C140 C144 1.384 . S
C141 C139 1.394 . S
C141 C142 1.369 1_545 S
C141 C145 1.531 . S
C142 C141 1.369 1_565 S
C142 C143 1.410 1_455 S
C142 C150 1.507 . S
C143 C142 1.410 1_655 S
C143 C144 1.392 . S
C143 C146 1.511 . S
C144 C140 1.384 . S
C144 C143 1.392 . S
C144 H156 0.929 . S
C145 C141 1.531 . S
C145 H157 0.960 . S
C145 H158 0.962 . S
C145 H159 0.960 . S
C146 C143 1.511 . S
C146 H160 0.961 . S
C146 H161 0.961 . S
C146 H162 0.961 . S
C147 C148 1.369 . S
C147 C149 1.363 . S
C147 H163 0.931 . S
C148 C147 1.369 . S
C148 C152 1.410 1_445 S
C149 C147 1.363 . S
C149 C150 1.364 1_545 S
C149 C153 1.524 . S
C150 C142 1.507 . S
C150 C149 1.364 1_565 S
C150 C151 1.406 1_455 S
C151 C150 1.406 1_655 S
C151 C152 1.404 . S
C151 C154 1.539 . S
C152 C148 1.410 1_665 S
C152 C151 1.404 . S
C152 H164 0.930 . S
C153 C149 1.524 . S
C153 H165 0.956 . S
C153 H166 0.961 1_455 S
C153 H167 0.965 . S
C154 C151 1.539 . S
C154 H168 0.958 1_655 S
C154 H169 0.961 . S
C154 H170 0.960 . S
H155 C139 0.931 . S
H156 C144 0.929 . S
H157 C145 0.960 . S
H158 C145 0.962 . S
H159 C145 0.960 . S
H160 C146 0.961 . S
H161 C146 0.961 . S
H162 C146 0.961 . S
H163 C147 0.931 . S
H164 C152 0.930 . S
H165 C153 0.956 . S
H166 C153 0.961 1_655 S
H167 C153 0.965 . S
H168 C154 0.958 1_455 S
H169 C154 0.961 . S
H170 C154 0.960 . S
C44 N8 1.550 1_655 S
C52 N3 1.382 . S
C76 C13 1.660 . S
C84 C39 1.656 . S
C108 C32 1.551 . S
C116 C33 1.637 . S
C140 C40 1.461 1_565 S
C148 C27 1.407 1_445 S
