# Generated by pormake.
# Topology qtz, (4)-cn, num edge types: 1
# Building blocks:
#     Node 0, Type 0, BuildingBlock: GALJAG_clean_sbu_0, # of connection points: 4
#     Node 1, Type 0, BuildingBlock: GALJAG_clean_sbu_0, # of connection points: 4
#     Node 2, Type 0, BuildingBlock: GALJAG_clean_sbu_0, # of connection points: 4
#     Edge 3, Type (0, 0), BuildingBlock: CIFDUS_clean_linker_0, # of connection points: 2
#     Edge 4, Type (0, 0), BuildingBlock: CIFDUS_clean_linker_0, # of connection points: 2
#     Edge 5, Type (0, 0), BuildingBlock: CIFDUS_clean_linker_0, # of connection points: 2
#     Edge 6, Type (0, 0), BuildingBlock: CIFDUS_clean_linker_0, # of connection points: 2
#     Edge 7, Type (0, 0), BuildingBlock: CIFDUS_clean_linker_0, # of connection points: 2
#     Edge 8, Type (0, 0), BuildingBlock: CIFDUS_clean_linker_0, # of connection points: 2
# Relax obj value: 0.004
# Max RMSD: 0.037
# Mean RMSD: 0.037
data_MOF--net-qtz--node1-GALJAG_clean_sbu_0--edge1-CIFDUS_clean_linker_0
_symmetry_space_group_name_H-M    P1
_symmetry_Int_Tables_number       1
_symmetry_cell_setting            triclinic
loop_
_symmetry_equiv_pos_as_xyz
'x, y, z'
_cell_length_a     21.579104
_cell_length_b     21.592548
_cell_length_c     23.23842
_cell_angle_alpha  89.880486
_cell_angle_beta   90.277376
_cell_angle_gamma 119.90984
loop_
_atom_site_label
_atom_site_type_symbol
_atom_site_fract_x
_atom_site_fract_y
_atom_site_fract_z
_atom_type_partial_charge
In0 In 0.01759 0.51375 0.16518 0.0
O1 O 0.95176 0.40172 0.20376 0.0
O2 O 0.94815 0.48738 0.24512 0.0
C3 C 0.08784 0.47829 0.08799 0.0
C4 C 0.92644 0.53383 0.09885 0.0
C5 C 0.12798 0.61903 0.2247 0.0
O6 O 0.07874 0.45715 0.13949 0.0
O7 O 0.0603 0.516 0.07492 0.0
O8 O 0.0769 0.62625 0.20595 0.0
O9 O 0.12265 0.55957 0.2136 0.0
C10 C 0.92629 0.42127 0.24396 0.0
O11 O 0.98531 0.58564 0.11593 0.0
O12 O 0.91474 0.473 0.11481 0.0
In13 In 0.52028 0.01348 0.50042 0.0
O14 O 0.61955 0.04279 0.44586 0.0
O15 O 0.57941 0.1148 0.44718 0.0
C16 C 0.5368 0.92785 0.57704 0.0
C17 C 0.49922 0.09861 0.57294 0.0
C18 C 0.41853 0.93189 0.42237 0.0
O19 O 0.58939 0.9821 0.55538 0.0
O20 O 0.47674 0.91767 0.56056 0.0
O21 O 0.41806 0.98268 0.44869 0.0
O22 O 0.47066 0.92327 0.43476 0.0
C23 C 0.62644 0.10149 0.42893 0.0
O24 O 0.448 0.04258 0.55166 0.0
O25 O 0.56051 0.11051 0.55866 0.0
In26 In 0.50609 0.50444 0.83622 0.0
O27 O 0.55985 0.61993 0.80138 0.0
O28 O 0.45287 0.54662 0.77656 0.0
C29 C 0.60436 0.50467 0.90793 0.0
C30 C 0.40253 0.48085 0.91189 0.0
C31 C 0.51017 0.4145 0.75799 0.0
O32 O 0.61476 0.56115 0.88269 0.0
O33 O 0.54487 0.44985 0.89721 0.0
O34 O 0.45813 0.3955 0.79183 0.0
O35 O 0.55854 0.47901 0.76261 0.0
C36 C 0.50517 0.60918 0.77302 0.0
O37 O 0.38928 0.44759 0.86471 0.0
O38 O 0.46758 0.52538 0.92092 0.0
H39 H 0.27005 0.45696 0.88608 0.0
H40 H 0.41098 0.48587 0.02826 0.0
H41 H 0.32145 0.47892 0.09624 0.0
H42 H 0.20675 0.47321 0.11458 0.0
H43 H 0.07258 0.46044 0.9719 0.0
H44 H 0.15511 0.4519 0.90453 0.0
C45 C 0.28045 0.46073 0.93203 0.0
C46 C 0.34637 0.47132 0.95248 0.0
C47 C 0.23005 0.45988 0.97054 0.0
C48 C 0.36033 0.47763 0.01184 0.0
C49 C 0.30927 0.47369 0.0506 0.0
C50 C 0.19522 0.46741 0.06878 0.0
C51 C 0.13368 0.46666 0.04798 0.0
C52 C 0.24445 0.46598 0.03038 0.0
C53 C 0.11975 0.46085 0.98861 0.0
C54 C 0.1669 0.45612 0.95021 0.0
H55 H 0.88305 0.28035 0.25932 0.0
H56 H 0.84585 0.44849 0.3181 0.0
H57 H 0.74934 0.36404 0.37982 0.0
H58 H 0.67358 0.24218 0.41541 0.0
H59 H 0.7131 0.07426 0.36087 0.0
H60 H 0.8106 0.15874 0.29907 0.0
C61 C 0.85399 0.29845 0.2859 0.0
C62 C 0.87136 0.37047 0.28399 0.0
C63 C 0.7988 0.24963 0.32175 0.0
C64 C 0.83361 0.39336 0.31886 0.0
C65 C 0.77822 0.34507 0.35402 0.0
C66 C 0.70347 0.22407 0.38988 0.0
C67 C 0.68589 0.1521 0.39215 0.0
C68 C 0.76 0.27304 0.35543 0.0
C69 C 0.72566 0.12948 0.35963 0.0
C70 C 0.78132 0.17772 0.32433 0.0
H71 H 0.43087 0.80222 0.61714 0.0
H72 H 0.65926 0.94195 0.62571 0.0
H73 H 0.6702 0.85697 0.68912 0.0
H74 H 0.61425 0.74063 0.74031 0.0
H75 H 0.38584 0.60111 0.72745 0.0
H76 H 0.37562 0.6883 0.66777 0.0
C77 C 0.48309 0.81435 0.63306 0.0
C78 C 0.54412 0.87826 0.61682 0.0
C79 C 0.48897 0.76507 0.66871 0.0
C80 C 0.61141 0.893 0.63761 0.0
C81 C 0.61768 0.84442 0.67383 0.0
C82 C 0.56235 0.72967 0.72459 0.0
C83 C 0.50096 0.66443 0.73825 0.0
C84 C 0.55679 0.77996 0.68942 0.0
C85 C 0.43402 0.65073 0.71739 0.0
C86 C 0.42801 0.70059 0.68326 0.0
H87 H 0.73742 0.61285 0.93897 0.0
H88 H 0.58998 0.38766 0.96294 0.0
H89 H 0.67632 0.37758 0.02397 0.0
H90 H 0.79359 0.43114 0.06939 0.0
H91 H 0.94278 0.65596 0.04796 0.0
H92 H 0.85598 0.66779 0.98719 0.0
C93 C 0.7243 0.56174 0.95774 0.0
C94 C 0.6574 0.50111 0.94626 0.0
C95 C 0.77448 0.55613 0.99312 0.0
C96 C 0.64105 0.4352 0.97094 0.0
C97 C 0.69042 0.42926 0.00588 0.0
C98 C 0.80726 0.48283 0.05145 0.0
C99 C 0.87455 0.5425 0.06291 0.0
C100 C 0.75729 0.48916 0.017 0.0
C101 C 0.89124 0.60916 0.03967 0.0
C102 C 0.84166 0.61591 0.00493 0.0
H103 H 0.4058 0.81514 0.36877 0.0
H104 H 0.30149 0.9401 0.38728 0.0
H105 H 0.20306 0.85588 0.32563 0.0
H106 H 0.14451 0.74363 0.26923 0.0
H107 H 0.24926 0.6185 0.25417 0.0
H108 H 0.34952 0.70588 0.31148 0.0
C109 C 0.36177 0.82427 0.35905 0.0
C110 C 0.36089 0.88369 0.38257 0.0
C111 C 0.30521 0.77535 0.3243 0.0
C112 C 0.30338 0.89467 0.36966 0.0
C113 C 0.24705 0.84648 0.3345 0.0
C114 C 0.18951 0.73586 0.2783 0.0
C115 C 0.18929 0.67455 0.25764 0.0
C116 C 0.24703 0.78618 0.31199 0.0
C117 C 0.24788 0.66502 0.2698 0.0
C118 C 0.30535 0.715 0.30256 0.0
H119 H 0.40995 0.27676 0.73335 0.0
H120 H 0.62665 0.43981 0.69576 0.0
H121 H 0.64258 0.35588 0.6364 0.0
H122 H 0.59616 0.23592 0.59655 0.0
H123 H 0.37832 0.07328 0.62999 0.0
H124 H 0.3616 0.15711 0.68979 0.0
C125 C 0.46046 0.29389 0.71188 0.0
C126 C 0.51706 0.36431 0.71905 0.0
C127 C 0.4692 0.24536 0.67742 0.0
C128 C 0.58216 0.38594 0.69083 0.0
C129 C 0.59146 0.33792 0.65704 0.0
C130 C 0.5451 0.21875 0.61713 0.0
C131 C 0.48876 0.14847 0.60942 0.0
C132 C 0.53559 0.26744 0.65039 0.0
C133 C 0.42255 0.12716 0.63554 0.0
C134 C 0.41298 0.17505 0.66964 0.0
loop_
_geom_bond_atom_site_label_1
_geom_bond_atom_site_label_2
_geom_bond_distance
_geom_bond_site_symmetry_2
_ccdc_geom_bond_type
In0 O1 2.294 1_455 S
In0 O2 2.326 1_455 S
In0 O6 2.266 . S
In0 O7 2.326 . S
In0 O8 2.266 . S
In0 O9 2.326 . S
In0 O11 2.294 1_455 S
In0 O12 2.326 1_455 S
O1 In0 2.294 1_655 S
O1 C10 1.240 . S
O2 In0 2.326 1_655 S
O2 C10 1.252 . S
C3 O6 1.252 . S
C3 O7 1.260 . S
C4 O11 1.240 . S
C4 O12 1.252 . S
C5 O8 1.252 . S
C5 O9 1.260 . S
O6 In0 2.266 . S
O6 C3 1.252 . S
O7 In0 2.326 . S
O7 C3 1.260 . S
O8 In0 2.266 . S
O8 C5 1.252 . S
O9 In0 2.326 . S
O9 C5 1.260 . S
C10 O1 1.240 . S
C10 O2 1.252 . S
O11 In0 2.294 1_655 S
O11 C4 1.240 . S
O12 In0 2.326 1_655 S
O12 C4 1.252 . S
In13 O14 2.294 . S
In13 O15 2.326 . S
In13 O19 2.266 1_545 S
In13 O20 2.326 1_545 S
In13 O21 2.266 1_545 S
In13 O22 2.326 1_545 S
In13 O24 2.294 . S
In13 O25 2.326 . S
O14 In13 2.294 . S
O14 C23 1.240 . S
O15 In13 2.326 . S
O15 C23 1.252 . S
C16 O19 1.252 . S
C16 O20 1.260 . S
C17 O24 1.240 . S
C17 O25 1.252 . S
C18 O21 1.252 . S
C18 O22 1.260 . S
O19 In13 2.266 1_565 S
O19 C16 1.252 . S
O20 In13 2.326 1_565 S
O20 C16 1.260 . S
O21 In13 2.266 1_565 S
O21 C18 1.252 . S
O22 In13 2.326 1_565 S
O22 C18 1.260 . S
C23 O14 1.240 . S
C23 O15 1.252 . S
O24 In13 2.294 . S
O24 C17 1.240 . S
O25 In13 2.326 . S
O25 C17 1.252 . S
In26 O27 2.294 . S
In26 O28 2.326 . S
In26 O32 2.266 . S
In26 O33 2.326 . S
In26 O34 2.266 . S
In26 O35 2.326 . S
In26 O37 2.294 . S
In26 O38 2.326 . S
O27 In26 2.294 . S
O27 C36 1.240 . S
O28 In26 2.326 . S
O28 C36 1.252 . S
C29 O32 1.252 . S
C29 O33 1.260 . S
C30 O37 1.240 . S
C30 O38 1.252 . S
C31 O34 1.252 . S
C31 O35 1.260 . S
O32 In26 2.266 . S
O32 C29 1.252 . S
O33 In26 2.326 . S
O33 C29 1.260 . S
O34 In26 2.266 . S
O34 C31 1.252 . S
O35 In26 2.326 . S
O35 C31 1.260 . S
C36 O27 1.240 . S
C36 O28 1.252 . S
O37 In26 2.294 . S
O37 C30 1.240 . S
O38 In26 2.326 . S
O38 C30 1.252 . S
H39 C45 0.930 . S
H40 C48 0.930 1_554 S
H41 C49 0.930 . S
H42 C50 0.930 . S
H43 C53 0.930 1_556 S
H44 C54 0.930 . S
C45 H39 0.930 . S
C45 C46 1.355 . S
C45 C47 1.415 . S
C46 C45 1.355 . S
C46 C48 1.419 . S
C47 C45 1.415 . S
C47 C52 1.425 1_556 S
C47 C54 1.409 . S
C48 H40 0.930 1_556 S
C48 C46 1.419 . S
C48 C49 1.362 1_556 S
C49 H41 0.930 . S
C49 C48 1.362 1_554 S
C49 C52 1.409 . S
C50 H42 0.930 . S
C50 C51 1.355 . S
C50 C52 1.415 . S
C51 C50 1.355 . S
C51 C53 1.419 . S
C52 C47 1.425 1_554 S
C52 C49 1.409 . S
C52 C50 1.415 . S
C53 H43 0.930 1_554 S
C53 C51 1.419 . S
C53 C54 1.362 1_554 S
C54 H44 0.930 . S
C54 C47 1.409 . S
C54 C53 1.362 1_556 S
H55 C61 0.930 . S
H56 C64 0.930 . S
H57 C65 0.930 . S
H58 C66 0.930 . S
H59 C69 0.930 . S
H60 C70 0.930 . S
C61 H55 0.930 . S
C61 C62 1.355 . S
C61 C63 1.415 . S
C62 C61 1.355 . S
C62 C64 1.419 . S
C63 C61 1.415 . S
C63 C68 1.425 . S
C63 C70 1.409 . S
C64 H56 0.930 . S
C64 C62 1.419 . S
C64 C65 1.362 . S
C65 H57 0.930 . S
C65 C64 1.362 . S
C65 C68 1.409 . S
C66 H58 0.930 . S
C66 C67 1.355 . S
C66 C68 1.415 . S
C67 C66 1.355 . S
C67 C69 1.419 . S
C68 C63 1.425 . S
C68 C65 1.409 . S
C68 C66 1.415 . S
C69 H59 0.930 . S
C69 C67 1.419 . S
C69 C70 1.362 . S
C70 H60 0.930 . S
C70 C63 1.409 . S
C70 C69 1.362 . S
H71 C77 0.930 . S
H72 C80 0.930 . S
H73 C81 0.930 . S
H74 C82 0.930 . S
H75 C85 0.930 . S
H76 C86 0.930 . S
C77 H71 0.930 . S
C77 C78 1.355 . S
C77 C79 1.415 . S
C78 C77 1.355 . S
C78 C80 1.419 . S
C79 C77 1.415 . S
C79 C84 1.425 . S
C79 C86 1.409 . S
C80 H72 0.930 . S
C80 C78 1.419 . S
C80 C81 1.362 . S
C81 H73 0.930 . S
C81 C80 1.362 . S
C81 C84 1.409 . S
C82 H74 0.930 . S
C82 C83 1.355 . S
C82 C84 1.415 . S
C83 C82 1.355 . S
C83 C85 1.419 . S
C84 C79 1.425 . S
C84 C81 1.409 . S
C84 C82 1.415 . S
C85 H75 0.930 . S
C85 C83 1.419 . S
C85 C86 1.362 . S
C86 H76 0.930 . S
C86 C79 1.409 . S
C86 C85 1.362 . S
H87 C93 0.930 . S
H88 C96 0.930 1_554 S
H89 C97 0.930 . S
H90 C98 0.930 . S
H91 C101 0.930 1_556 S
H92 C102 0.930 . S
C93 H87 0.930 . S
C93 C94 1.355 . S
C93 C95 1.415 . S
C94 C93 1.355 . S
C94 C96 1.419 . S
C95 C93 1.415 . S
C95 C100 1.425 1_556 S
C95 C102 1.409 . S
C96 H88 0.930 1_556 S
C96 C94 1.419 . S
C96 C97 1.362 1_556 S
C97 H89 0.930 . S
C97 C96 1.362 1_554 S
C97 C100 1.409 . S
C98 H90 0.930 . S
C98 C99 1.355 . S
C98 C100 1.415 . S
C99 C98 1.355 . S
C99 C101 1.419 . S
C100 C95 1.425 1_554 S
C100 C97 1.409 . S
C100 C98 1.415 . S
C101 H91 0.930 1_554 S
C101 C99 1.419 . S
C101 C102 1.362 1_554 S
C102 H92 0.930 . S
C102 C95 1.409 . S
C102 C101 1.362 1_556 S
H103 C109 0.930 . S
H104 C112 0.930 . S
H105 C113 0.930 . S
H106 C114 0.930 . S
H107 C117 0.930 . S
H108 C118 0.930 . S
C109 H103 0.930 . S
C109 C110 1.355 . S
C109 C111 1.415 . S
C110 C109 1.355 . S
C110 C112 1.419 . S
C111 C109 1.415 . S
C111 C116 1.425 . S
C111 C118 1.409 . S
C112 H104 0.930 . S
C112 C110 1.419 . S
C112 C113 1.362 . S
C113 H105 0.930 . S
C113 C112 1.362 . S
C113 C116 1.409 . S
C114 H106 0.930 . S
C114 C115 1.355 . S
C114 C116 1.415 . S
C115 C114 1.355 . S
C115 C117 1.419 . S
C116 C111 1.425 . S
C116 C113 1.409 . S
C116 C114 1.415 . S
C117 H107 0.930 . S
C117 C115 1.419 . S
C117 C118 1.362 . S
C118 H108 0.930 . S
C118 C111 1.409 . S
C118 C117 1.362 . S
H119 C125 0.930 . S
H120 C128 0.930 . S
H121 C129 0.930 . S
H122 C130 0.930 . S
H123 C133 0.930 . S
H124 C134 0.930 . S
C125 H119 0.930 . S
C125 C126 1.355 . S
C125 C127 1.415 . S
C126 C125 1.355 . S
C126 C128 1.419 . S
C127 C125 1.415 . S
C127 C132 1.425 . S
C127 C134 1.409 . S
C128 H120 0.930 . S
C128 C126 1.419 . S
C128 C129 1.362 . S
C129 H121 0.930 . S
C129 C128 1.362 . S
C129 C132 1.409 . S
C130 H122 0.930 . S
C130 C131 1.355 . S
C130 C132 1.415 . S
C131 C130 1.355 . S
C131 C133 1.419 . S
C132 C127 1.425 . S
C132 C129 1.409 . S
C132 C130 1.415 . S
C133 H123 0.930 . S
C133 C131 1.419 . S
C133 C134 1.362 . S
C134 H124 0.930 . S
C134 C127 1.409 . S
C134 C133 1.362 . S
C46 C30 1.539 . S
C51 C3 1.537 . S
C62 C10 1.532 . S
C67 C23 1.532 . S
C78 C16 1.536 . S
C83 C36 1.534 . S
C94 C29 1.536 . S
C99 C4 1.538 . S
C110 C18 1.541 . S
C115 C5 1.540 . S
C126 C31 1.535 . S
C131 C17 1.536 . S
