# Generated by pormake.
# Topology bnn, (5)-cn, num edge types: 1
# Building blocks:
#     Node 0, Type 0, BuildingBlock: BEQFEK_clean_sbu_0, # of connection points: 5
#     Node 1, Type 0, BuildingBlock: BEQFEK_clean_sbu_0, # of connection points: 5
#     Edge 2, Type (0, 0), BuildingBlock: XUDNAN_clean_linker_2, # of connection points: 2
#     Edge 3, Type (0, 0), BuildingBlock: XUDNAN_clean_linker_2, # of connection points: 2
#     Edge 4, Type (0, 0), BuildingBlock: XUDNAN_clean_linker_2, # of connection points: 2
#     Edge 5, Type (0, 0), BuildingBlock: XUDNAN_clean_linker_2, # of connection points: 2
#     Edge 6, Type (0, 0), BuildingBlock: XUDNAN_clean_linker_2, # of connection points: 2
# Relax obj value: 0.103
# Max RMSD: 0.191
# Mean RMSD: 0.179
data_MOF--net-bnn--node1-BEQFEK_clean_sbu_0--edge1-XUDNAN_clean_linker_2
_symmetry_space_group_name_H-M    P1
_symmetry_Int_Tables_number       1
_symmetry_cell_setting            triclinic
loop_
_symmetry_equiv_pos_as_xyz
'x, y, z'
_cell_length_a     25.408542
_cell_length_b     26.611547
_cell_length_c     19.45858
_cell_angle_alpha  90.791486
_cell_angle_beta   86.206269
_cell_angle_gamma 111.26628
loop_
_atom_site_label
_atom_site_type_symbol
_atom_site_fract_x
_atom_site_fract_y
_atom_site_fract_z
_atom_type_partial_charge
Co0 Co 0.34397 0.69238 0.10132 0.0
Co1 Co 0.35446 0.6875 0.93951 0.0
C2 C 0.39068 0.79273 0.01398 0.0
O3 O 0.37462 0.76826 0.07167 0.0
O4 O 0.38747 0.76712 0.95755 0.0
C5 C 0.31102 0.72306 0.2357 0.0
O6 O 0.29786 0.75851 0.2013 0.0
C7 C 0.34588 0.70648 0.79102 0.0
C8 C 0.33101 0.62497 0.7499 0.0
C9 C 0.33514 0.67632 0.73101 0.0
N10 N 0.34674 0.67392 0.84298 0.0
N11 N 0.33835 0.62546 0.81776 0.0
C12 C 0.35823 0.76565 0.79871 0.0
H13 H 0.39526 0.78367 0.83002 0.0
H14 H 0.32133 0.77174 0.82612 0.0
H15 H 0.36781 0.78689 0.7482 0.0
C16 C 0.22424 0.63085 0.07924 0.0
N17 N 0.27825 0.65584 0.05535 0.0
N18 N 0.28124 0.65622 0.98753 0.0
C19 C 0.22836 0.63265 0.96615 0.0
C20 C 0.19049 0.61574 0.02365 0.0
C21 C 0.20593 0.61998 0.15402 0.0
H22 H 0.23839 0.61057 0.18099 0.0
H23 H 0.20123 0.65648 0.17746 0.0
H24 H 0.16497 0.58568 0.16126 0.0
O25 O 0.3992 0.6579 0.08217 0.0
O26 O 0.40588 0.65058 0.96859 0.0
H27 H 0.22447 0.59804 0.86609 0.0
H28 H 0.16837 0.62297 0.88831 0.0
C29 C 0.21394 0.63068 0.89259 0.0
H30 H 0.23918 0.66947 0.86641 0.0
H31 H 0.33672 0.5924 0.84725 0.0
O32 O 0.32948 0.69054 0.2029 0.0
C33 C 0.41962 0.64249 0.02811 0.0
Co34 Co 0.67979 0.32768 0.10499 0.0
Co35 Co 0.68706 0.33596 0.94321 0.0
C36 C 0.62543 0.39268 0.02914 0.0
O37 O 0.63798 0.37386 0.08287 0.0
O38 O 0.64049 0.38106 0.96898 0.0
C39 C 0.6228 0.30943 0.23961 0.0
O40 O 0.57943 0.3095 0.20645 0.0
C41 C 0.66294 0.33436 0.79558 0.0
C42 C 0.72382 0.29943 0.74981 0.0
C43 C 0.68117 0.31721 0.73369 0.0
N44 N 0.69279 0.32591 0.8459 0.0
N45 N 0.72937 0.3055 0.81797 0.0
C46 C 0.62047 0.36112 0.80667 0.0
H47 H 0.63675 0.39574 0.84167 0.0
H48 H 0.58071 0.33198 0.83143 0.0
H49 H 0.61146 0.37616 0.75763 0.0
C50 C 0.62628 0.21212 0.07533 0.0
N51 N 0.65446 0.26342 0.05452 0.0
N52 N 0.65433 0.26654 0.98713 0.0
C53 C 0.62462 0.21714 0.96307 0.0
C54 C 0.6058 0.18099 0.01829 0.0
C55 C 0.61713 0.19377 0.14899 0.0
H56 H 0.65559 0.21523 0.17677 0.0
H57 H 0.58138 0.20332 0.17388 0.0
H58 H 0.607 0.14963 0.15293 0.0
O59 O 0.75965 0.36987 0.08375 0.0
O60 O 0.76649 0.37669 0.96961 0.0
H61 H 0.64507 0.20657 0.85699 0.0
H62 H 0.57301 0.1671 0.88555 0.0
C63 C 0.60795 0.20651 0.89039 0.0
H64 H 0.59442 0.23893 0.87212 0.0
H65 H 0.75761 0.29491 0.84577 0.0
O66 O 0.6691 0.31472 0.20582 0.0
C67 C 0.78854 0.38737 0.02753 0.0
H68 H 0.4569 0.58322 0.93104 0.0
H69 H 0.46725 0.63214 0.14543 0.0
H70 H 0.52161 0.57496 0.16606 0.0
H71 H 0.43859 0.44666 0.96068 0.0
H72 H 0.4821 0.44057 0.8864 0.0
H73 H 0.44664 0.48813 0.88533 0.0
H74 H 0.54236 0.56562 0.85592 0.0
H75 H 0.57807 0.51818 0.85623 0.0
H76 H 0.60009 0.57664 0.91049 0.0
H77 H 0.56715 0.50879 0.1679 0.0
H78 H 0.61048 0.44091 0.14875 0.0
H79 H 0.57558 0.43397 0.93224 0.0
C80 C 0.47148 0.58255 0.98195 0.0
C81 C 0.45752 0.61216 0.03663 0.0
C82 C 0.477 0.60977 0.10269 0.0
C83 C 0.50802 0.57738 0.11507 0.0
C84 C 0.51976 0.54776 0.06086 0.0
C85 C 0.50294 0.55031 0.99537 0.0
C86 C 0.52073 0.51301 0.94716 0.0
C87 C 0.46892 0.46952 0.9182 0.0
C88 C 0.56283 0.5453 0.889 0.0
C89 C 0.54922 0.4887 0.9964 0.0
C90 C 0.54781 0.50951 0.06162 0.0
C91 C 0.56919 0.49253 0.11694 0.0
C92 C 0.59348 0.45359 0.10541 0.0
C93 C 0.5967 0.43201 0.03885 0.0
C94 C 0.5741 0.44987 0.98355 0.0
H95 H 0.88647 0.39649 0.94874 0.0
H96 H 0.81926 0.46959 0.11629 0.0
H97 H 0.91346 0.53972 0.12626 0.0
H98 H 0.01663 0.41549 0.02556 0.0
H99 H 0.05953 0.42912 0.94552 0.0
H100 H 0.98571 0.38714 0.9465 0.0
H101 H 0.97048 0.4498 0.85539 0.0
H102 H 0.04427 0.49219 0.8545 0.0
H103 H 0.99059 0.52087 0.87235 0.0
H104 H 0.0129 0.60153 0.11906 0.0
H105 H 0.11649 0.64663 0.10424 0.0
H106 H 0.1237 0.53009 0.94927 0.0
C107 C 0.89183 0.42764 0.98695 0.0
C108 C 0.84584 0.428 0.03162 0.0
C109 C 0.8542 0.46865 0.08187 0.0
C110 C 0.90736 0.50884 0.0876 0.0
C111 C 0.95201 0.50741 0.04331 0.0
C112 C 0.94532 0.46758 0.99461 0.0
C113 C 0.00179 0.47342 0.95762 0.0
C114 C 0.01679 0.42332 0.96954 0.0
C115 C 0.00176 0.48475 0.88038 0.0
C116 C 0.04092 0.52239 0.99364 0.0
C117 C 0.01088 0.54177 0.04189 0.0
C118 C 0.03708 0.58655 0.08187 0.0
C119 C 0.0959 0.61165 0.07344 0.0
C120 C 0.12799 0.59129 0.02651 0.0
C121 C 0.10004 0.54657 0.98532 0.0
H122 H 0.47971 0.86522 0.93556 0.0
H123 H 0.34786 0.85372 0.09474 0.0
H124 H 0.38435 0.95261 0.10494 0.0
H125 H 0.58758 0.96684 0.01639 0.0
H126 H 0.62335 1.00246 0.93858 0.0
H127 H 0.58287 0.93127 0.93612 0.0
H128 H 0.52343 0.94769 0.84178 0.0
H129 H 0.56395 0.01904 0.84375 0.0
H130 H 0.48793 0.99482 0.8572 0.0
H131 H 0.43714 0.05058 0.1043 0.0
H132 H 0.50655 0.14365 0.0959 0.0
H133 H 0.60876 0.09399 0.94204 0.0
C134 C 0.45795 0.88386 0.97125 0.0
C135 C 0.41071 0.85212 0.01398 0.0
C136 C 0.38405 0.87749 0.06152 0.0
C137 C 0.40428 0.93359 0.06748 0.0
C138 C 0.4516 0.96383 0.02592 0.0
C139 C 0.47838 0.94014 0.97883 0.0
C140 C 0.53151 0.9821 0.94516 0.0
C141 C 0.58445 0.96993 0.95998 0.0
C142 C 0.52638 0.98614 0.86734 0.0
C143 C 0.53077 0.03261 0.98179 0.0
C144 C 0.48373 0.02101 0.02735 0.0
C145 C 0.47411 0.06029 0.06873 0.0
C146 C 0.51394 0.11287 0.06404 0.0
C147 C 0.56312 0.1256 0.01902 0.0
C148 C 0.57128 0.08513 0.97667 0.0
H149 H 0.36706 0.64127 0.60893 0.0
H150 H 0.28103 0.74413 0.69513 0.0
H151 H 0.266 0.76812 0.57772 0.0
H152 H 0.43663 0.72333 0.46056 0.0
H153 H 0.42653 0.66652 0.40455 0.0
H154 H 0.43217 0.65937 0.49537 0.0
H155 H 0.33573 0.57958 0.50236 0.0
H156 H 0.32968 0.58666 0.41162 0.0
H157 H 0.27421 0.58912 0.47275 0.0
H158 H 0.26055 0.7807 0.44986 0.0
H159 H 0.26398 0.7798 0.32254 0.0
H160 H 0.3497 0.66522 0.32141 0.0
C161 C 0.34539 0.66915 0.60308 0.0
C162 C 0.32702 0.69235 0.66108 0.0
C163 C 0.29782 0.72781 0.65141 0.0
C164 C 0.2884 0.74109 0.5849 0.0
C165 C 0.30768 0.71792 0.52876 0.0
C166 C 0.33535 0.68251 0.53725 0.0
C167 C 0.35081 0.66219 0.46872 0.0
C168 C 0.41537 0.67887 0.4566 0.0
C169 C 0.3208 0.60075 0.46359 0.0
C170 C 0.3277 0.69184 0.4202 0.0
C171 C 0.30305 0.72386 0.45569 0.0
C172 C 0.2796 0.75564 0.42156 0.0
C173 C 0.28175 0.75486 0.34926 0.0
C174 C 0.30692 0.72234 0.31196 0.0
C175 C 0.32982 0.69027 0.34829 0.0
H176 H 0.70922 0.32519 0.32407 0.0
H177 H 0.52776 0.28665 0.32717 0.0
H178 H 0.52235 0.28456 0.45451 0.0
H179 H 0.70812 0.24236 0.46955 0.0
H180 H 0.77222 0.29042 0.50054 0.0
H181 H 0.76109 0.28724 0.40989 0.0
H182 H 0.77634 0.38898 0.40907 0.0
H183 H 0.78719 0.39242 0.49979 0.0
H184 H 0.73345 0.41356 0.46775 0.0
H185 H 0.53718 0.28622 0.58207 0.0
H186 H 0.57119 0.29224 0.69909 0.0
H187 H 0.74325 0.33371 0.61123 0.0
C188 C 0.66821 0.31588 0.35139 0.0
C189 C 0.61885 0.30589 0.31567 0.0
C190 C 0.56613 0.29439 0.35347 0.0
C191 C 0.56264 0.29312 0.42578 0.0
C192 C 0.61227 0.30369 0.45936 0.0
C193 C 0.66403 0.31486 0.42334 0.0
C194 C 0.71126 0.32586 0.47145 0.0
C195 C 0.73983 0.28396 0.46231 0.0
C196 C 0.7546 0.38364 0.46141 0.0
C197 C 0.67801 0.31907 0.54028 0.0
C198 C 0.62097 0.30619 0.53236 0.0
C199 C 0.58187 0.29707 0.58887 0.0
C200 C 0.60167 0.30129 0.65517 0.0
C201 C 0.6601 0.31523 0.66425 0.0
C202 C 0.69844 0.32375 0.60586 0.0
loop_
_geom_bond_atom_site_label_1
_geom_bond_atom_site_label_2
_geom_bond_distance
_geom_bond_site_symmetry_2
_ccdc_geom_bond_type
Co0 O3 1.970 . S
Co0 N17 1.989 . S
Co0 O25 1.967 . S
Co0 O32 1.920 . S
Co1 O4 1.966 . S
Co1 N10 2.022 . S
Co1 N18 1.993 . S
Co1 O26 1.941 . S
C2 O3 1.258 . S
C2 O4 1.263 1_554 S
O3 Co0 1.970 . S
O3 C2 1.258 . S
O4 Co1 1.966 . S
O4 C2 1.263 1_556 S
C5 O6 1.235 . S
C5 O32 1.289 . S
O6 C5 1.235 . S
C7 C9 1.400 . S
C7 N10 1.351 . S
C7 C12 1.501 . S
C8 C9 1.387 . S
C8 N11 1.341 . S
C9 C7 1.400 . S
C9 C8 1.387 . S
N10 Co1 2.022 . S
N10 C7 1.351 . S
N10 N11 1.365 . S
N11 C8 1.341 . S
N11 N10 1.365 . S
N11 H31 0.862 . S
C12 C7 1.501 . S
C12 H13 0.961 . S
C12 H14 0.961 . S
C12 H15 0.960 . S
H13 C12 0.961 . S
H14 C12 0.961 . S
H15 C12 0.960 . S
C16 N17 1.342 . S
C16 C20 1.401 . S
C16 C21 1.499 . S
N17 Co0 1.989 . S
N17 C16 1.342 . S
N17 N18 1.388 1_554 S
N18 Co1 1.993 . S
N18 N17 1.388 1_556 S
N18 C19 1.346 . S
C19 N18 1.346 . S
C19 C20 1.396 1_556 S
C19 C29 1.510 . S
C20 C16 1.401 . S
C20 C19 1.396 1_554 S
C21 C16 1.499 . S
C21 H22 0.959 . S
C21 H23 0.960 . S
C21 H24 0.961 . S
H22 C21 0.959 . S
H23 C21 0.960 . S
H24 C21 0.961 . S
O25 Co0 1.967 . S
O25 C33 1.258 . S
O26 Co1 1.941 . S
O26 C33 1.266 1_556 S
H27 C29 0.959 . S
H28 C29 0.961 . S
C29 C19 1.510 . S
C29 H27 0.959 . S
C29 H28 0.961 . S
C29 H30 0.960 . S
H30 C29 0.960 . S
H31 N11 0.862 . S
O32 Co0 1.920 . S
O32 C5 1.289 . S
C33 O25 1.258 . S
C33 O26 1.266 1_554 S
Co34 O37 1.970 . S
Co34 N51 1.989 . S
Co34 O59 1.967 . S
Co34 O66 1.920 . S
Co35 O38 1.966 . S
Co35 N44 2.022 . S
Co35 N52 1.993 . S
Co35 O60 1.941 . S
C36 O37 1.258 . S
C36 O38 1.263 1_554 S
O37 Co34 1.970 . S
O37 C36 1.258 . S
O38 Co35 1.966 . S
O38 C36 1.263 1_556 S
C39 O40 1.235 . S
C39 O66 1.289 . S
O40 C39 1.235 . S
C41 C43 1.400 . S
C41 N44 1.351 . S
C41 C46 1.501 . S
C42 C43 1.387 . S
C42 N45 1.341 . S
C43 C41 1.400 . S
C43 C42 1.387 . S
N44 Co35 2.022 . S
N44 C41 1.351 . S
N44 N45 1.365 . S
N45 C42 1.341 . S
N45 N44 1.365 . S
N45 H65 0.862 . S
C46 C41 1.501 . S
C46 H47 0.961 . S
C46 H48 0.961 . S
C46 H49 0.960 . S
H47 C46 0.961 . S
H48 C46 0.961 . S
H49 C46 0.960 . S
C50 N51 1.342 . S
C50 C54 1.401 . S
C50 C55 1.499 . S
N51 Co34 1.989 . S
N51 C50 1.342 . S
N51 N52 1.388 1_554 S
N52 Co35 1.993 . S
N52 N51 1.388 1_556 S
N52 C53 1.346 . S
C53 N52 1.346 . S
C53 C54 1.396 1_556 S
C53 C63 1.510 . S
C54 C50 1.401 . S
C54 C53 1.396 1_554 S
C55 C50 1.499 . S
C55 H56 0.959 . S
C55 H57 0.960 . S
C55 H58 0.961 . S
H56 C55 0.959 . S
H57 C55 0.960 . S
H58 C55 0.961 . S
O59 Co34 1.967 . S
O59 C67 1.258 . S
O60 Co35 1.941 . S
O60 C67 1.266 1_556 S
H61 C63 0.959 . S
H62 C63 0.961 . S
C63 C53 1.510 . S
C63 H61 0.959 . S
C63 H62 0.961 . S
C63 H64 0.960 . S
H64 C63 0.960 . S
H65 N45 0.862 . S
O66 Co34 1.920 . S
O66 C39 1.289 . S
C67 O59 1.258 . S
C67 O60 1.266 1_554 S
H68 C80 0.930 . S
H69 C82 0.930 . S
H70 C83 0.930 . S
H71 C87 0.959 . S
H72 C87 0.959 . S
H73 C87 0.961 . S
H74 C88 0.960 . S
H75 C88 0.961 . S
H76 C88 0.959 . S
H77 C91 0.929 . S
H78 C92 0.931 . S
H79 C94 0.930 . S
C80 H68 0.930 . S
C80 C81 1.399 1_556 S
C80 C85 1.399 . S
C81 C80 1.399 1_554 S
C81 C82 1.376 . S
C82 H69 0.930 . S
C82 C81 1.376 . S
C82 C83 1.388 . S
C83 H70 0.930 . S
C83 C82 1.388 . S
C83 C84 1.390 . S
C84 C83 1.390 . S
C84 C85 1.394 1_554 S
C84 C90 1.465 . S
C85 C80 1.399 . S
C85 C84 1.394 1_556 S
C85 C86 1.516 . S
C86 C85 1.516 . S
C86 C87 1.502 . S
C86 C88 1.561 . S
C86 C89 1.526 . S
C87 H71 0.959 . S
C87 H72 0.959 . S
C87 H73 0.961 . S
C87 C86 1.502 . S
C88 H74 0.960 . S
C88 H75 0.961 . S
C88 H76 0.959 . S
C88 C86 1.561 . S
C89 C86 1.526 . S
C89 C90 1.396 1_556 S
C89 C94 1.390 . S
C90 C84 1.465 . S
C90 C89 1.396 1_554 S
C90 C91 1.399 . S
C91 H77 0.929 . S
C91 C90 1.399 . S
C91 C92 1.385 . S
C92 H78 0.931 . S
C92 C91 1.385 . S
C92 C93 1.389 . S
C93 C92 1.389 . S
C93 C94 1.387 1_554 S
C94 H79 0.930 . S
C94 C89 1.390 . S
C94 C93 1.387 1_556 S
H95 C107 0.930 . S
H96 C109 0.930 . S
H97 C110 0.930 . S
H98 C114 0.959 1_554 S
H99 C114 0.959 . S
H100 C114 0.961 1_655 S
H101 C115 0.960 1_655 S
H102 C115 0.961 . S
H103 C115 0.959 1_655 S
H104 C118 0.929 . S
H105 C119 0.931 . S
H106 C121 0.930 . S
C107 H95 0.930 . S
C107 C108 1.399 1_556 S
C107 C112 1.399 . S
C108 C107 1.399 1_554 S
C108 C109 1.376 . S
C109 H96 0.930 . S
C109 C108 1.376 . S
C109 C110 1.388 . S
C110 H97 0.930 . S
C110 C109 1.388 . S
C110 C111 1.390 . S
C111 C110 1.390 . S
C111 C112 1.394 1_554 S
C111 C117 1.465 1_655 S
C112 C107 1.399 . S
C112 C111 1.394 1_556 S
C112 C113 1.516 1_655 S
C113 C112 1.516 1_455 S
C113 C114 1.502 . S
C113 C115 1.561 . S
C113 C116 1.526 . S
C114 H98 0.959 1_556 S
C114 H99 0.959 . S
C114 H100 0.961 1_455 S
C114 C113 1.502 . S
C115 H101 0.960 1_455 S
C115 H102 0.961 . S
C115 H103 0.959 1_455 S
C115 C113 1.561 . S
C116 C113 1.526 . S
C116 C117 1.396 1_556 S
C116 C121 1.390 . S
C117 C111 1.465 1_455 S
C117 C116 1.396 1_554 S
C117 C118 1.399 . S
C118 H104 0.929 . S
C118 C117 1.399 . S
C118 C119 1.385 . S
C119 H105 0.931 . S
C119 C118 1.385 . S
C119 C120 1.389 . S
C120 C119 1.389 . S
C120 C121 1.387 1_554 S
C121 H106 0.930 . S
C121 C116 1.390 . S
C121 C120 1.387 1_556 S
H122 C134 0.930 . S
H123 C136 0.930 . S
H124 C137 0.930 . S
H125 C141 0.959 . S
H126 C141 0.959 . S
H127 C141 0.961 . S
H128 C142 0.960 . S
H129 C142 0.961 1_545 S
H130 C142 0.959 . S
H131 C145 0.929 . S
H132 C146 0.931 . S
H133 C148 0.930 . S
C134 H122 0.930 . S
C134 C135 1.399 1_556 S
C134 C139 1.399 . S
C135 C134 1.399 1_554 S
C135 C136 1.376 . S
C136 H123 0.930 . S
C136 C135 1.376 . S
C136 C137 1.388 . S
C137 H124 0.930 . S
C137 C136 1.388 . S
C137 C138 1.390 . S
C138 C137 1.390 . S
C138 C139 1.394 1_554 S
C138 C144 1.465 1_565 S
C139 C134 1.399 . S
C139 C138 1.394 1_556 S
C139 C140 1.516 . S
C140 C139 1.516 . S
C140 C141 1.502 . S
C140 C142 1.561 . S
C140 C143 1.526 1_565 S
C141 H125 0.959 . S
C141 H126 0.959 . S
C141 H127 0.961 . S
C141 C140 1.502 . S
C142 H128 0.960 . S
C142 H129 0.961 1_565 S
C142 H130 0.959 . S
C142 C140 1.561 . S
C143 C140 1.526 1_545 S
C143 C144 1.396 1_556 S
C143 C148 1.390 . S
C144 C138 1.465 1_545 S
C144 C143 1.396 1_554 S
C144 C145 1.399 . S
C145 H131 0.929 . S
C145 C144 1.399 . S
C145 C146 1.385 . S
C146 H132 0.931 . S
C146 C145 1.385 . S
C146 C147 1.389 . S
C147 C146 1.389 . S
C147 C148 1.387 1_554 S
C148 H133 0.930 . S
C148 C143 1.390 . S
C148 C147 1.387 1_556 S
H149 C161 0.930 . S
H150 C163 0.930 . S
H151 C164 0.930 . S
H152 C168 0.959 . S
H153 C168 0.959 . S
H154 C168 0.961 . S
H155 C169 0.960 . S
H156 C169 0.961 . S
H157 C169 0.959 . S
H158 C172 0.929 . S
H159 C173 0.931 . S
H160 C175 0.930 . S
C161 H149 0.930 . S
C161 C162 1.399 . S
C161 C166 1.399 . S
C162 C161 1.399 . S
C162 C163 1.376 . S
C163 H150 0.930 . S
C163 C162 1.376 . S
C163 C164 1.388 . S
C164 H151 0.930 . S
C164 C163 1.388 . S
C164 C165 1.390 . S
C165 C164 1.390 . S
C165 C166 1.394 . S
C165 C171 1.465 . S
C166 C161 1.399 . S
C166 C165 1.394 . S
C166 C167 1.516 . S
C167 C166 1.516 . S
C167 C168 1.502 . S
C167 C169 1.561 . S
C167 C170 1.526 . S
C168 H152 0.959 . S
C168 H153 0.959 . S
C168 H154 0.961 . S
C168 C167 1.502 . S
C169 H155 0.960 . S
C169 H156 0.961 . S
C169 H157 0.959 . S
C169 C167 1.561 . S
C170 C167 1.526 . S
C170 C171 1.396 . S
C170 C175 1.390 . S
C171 C165 1.465 . S
C171 C170 1.396 . S
C171 C172 1.399 . S
C172 H158 0.929 . S
C172 C171 1.399 . S
C172 C173 1.385 . S
C173 H159 0.931 . S
C173 C172 1.385 . S
C173 C174 1.389 . S
C174 C173 1.389 . S
C174 C175 1.387 . S
C175 H160 0.930 . S
C175 C170 1.390 . S
C175 C174 1.387 . S
H176 C188 0.930 . S
H177 C190 0.930 . S
H178 C191 0.930 . S
H179 C195 0.959 . S
H180 C195 0.959 . S
H181 C195 0.961 . S
H182 C196 0.960 . S
H183 C196 0.961 . S
H184 C196 0.959 . S
H185 C199 0.929 . S
H186 C200 0.931 . S
H187 C202 0.930 . S
C188 H176 0.930 . S
C188 C189 1.399 . S
C188 C193 1.399 . S
C189 C188 1.399 . S
C189 C190 1.376 . S
C190 H177 0.930 . S
C190 C189 1.376 . S
C190 C191 1.388 . S
C191 H178 0.930 . S
C191 C190 1.388 . S
C191 C192 1.390 . S
C192 C191 1.390 . S
C192 C193 1.394 . S
C192 C198 1.465 . S
C193 C188 1.399 . S
C193 C192 1.394 . S
C193 C194 1.516 . S
C194 C193 1.516 . S
C194 C195 1.502 . S
C194 C196 1.561 . S
C194 C197 1.526 . S
C195 H179 0.959 . S
C195 H180 0.959 . S
C195 H181 0.961 . S
C195 C194 1.502 . S
C196 H182 0.960 . S
C196 H183 0.961 . S
C196 H184 0.959 . S
C196 C194 1.561 . S
C197 C194 1.526 . S
C197 C198 1.396 . S
C197 C202 1.390 . S
C198 C192 1.465 . S
C198 C197 1.396 . S
C198 C199 1.399 . S
C199 H185 0.929 . S
C199 C198 1.399 . S
C199 C200 1.385 . S
C200 H186 0.931 . S
C200 C199 1.385 . S
C200 C201 1.389 . S
C201 C200 1.389 . S
C201 C202 1.387 . S
C202 H187 0.930 . S
C202 C197 1.390 . S
C202 C201 1.387 . S
C81 C33 1.566 . S
C93 C36 1.554 . S
C108 C67 1.443 . S
C120 C20 1.445 . S
C135 C2 1.535 . S
C147 C54 1.514 . S
C162 C9 1.444 . S
C174 C5 1.468 . S
C189 C39 1.473 . S
C201 C43 1.436 . S
