# Generated by pormake.
# Topology pcu, (6)-cn, num edge types: 1
# Building blocks:
#     Node 0, Type 0, BuildingBlock: KUMBUR_clean_sbu_0, # of connection points: 6
#     Edge 1, Type (0, 0), BuildingBlock: UKIBIB_clean_linker_0, # of connection points: 2
#     Edge 2, Type (0, 0), BuildingBlock: UKIBIB_clean_linker_0, # of connection points: 2
#     Edge 3, Type (0, 0), BuildingBlock: UKIBIB_clean_linker_0, # of connection points: 2
# Relax obj value: 0.000
# Max RMSD: 0.000
# Mean RMSD: 0.000
data_MOF--net-pcu--node1-KUMBUR_clean_sbu_0--edge1-UKIBIB_clean_linker_0
_symmetry_space_group_name_H-M    P1
_symmetry_Int_Tables_number       1
_symmetry_cell_setting            triclinic
loop_
_symmetry_equiv_pos_as_xyz
'x, y, z'
_cell_length_a     19.396723
_cell_length_b     29.958669
_cell_length_c     21.211056
_cell_angle_alpha  116.13048
_cell_angle_beta   75.49673
_cell_angle_gamma 117.49654
loop_
_atom_site_label
_atom_site_type_symbol
_atom_site_fract_x
_atom_site_fract_y
_atom_site_fract_z
_atom_type_partial_charge
Tb0 Tb 0.06362 0.06881 0.01621 0.0
C1 C 0.81413 0.84201 0.87949 0.0
C2 C 0.7112 0.84029 0.97187 0.0
C3 C 0.6792 0.78236 0.85062 0.0
C4 C 0.79098 0.8606 0.94985 0.0
C5 C 0.75856 0.80201 0.82913 0.0
C6 C 0.65558 0.80145 0.92189 0.0
C7 C 0.86431 0.79954 0.74079 0.0
N8 N 0.89132 0.86125 0.86064 0.0
C9 C 0.91712 0.83847 0.79281 0.0
C10 C 0.78457 0.78168 0.75888 0.0
Tb11 Tb 0.97436 0.92353 0.94944 0.0
N12 N 0.8466 0.89761 -0.00322 0.0
C13 C 0.82475 0.91536 0.06737 0.0
C14 C 0.6895 0.85901 0.04351 0.0
C15 C 0.74658 0.89677 0.09137 0.0
H16 H 0.97891 0.85176 0.77856 0.0
H17 H 0.73046 0.91191 0.14704 0.0
H18 H 0.59427 0.7854 0.93793 0.0
H19 H 0.8852 0.78312 0.68686 0.0
H20 H 0.86573 0.94579 0.10666 0.0
H21 H 0.30763 0.08051 0.81871 0.0
H22 H 0.62897 0.84447 0.06241 0.0
H23 H 0.05897 0.14052 0.18709 0.0
H24 H 0.17234 0.04659 0.85904 0.0
H25 H 0.15262 0.20922 0.27883 0.0
H26 H 0.63578 0.75168 0.81271 0.0
H27 H 0.40906 0.14799 0.90338 0.0
H28 H 0.44369 0.20709 0.02787 0.0
H29 H 0.74374 0.75116 0.71864 0.0
H30 H 0.4021 0.2408 0.15307 0.0
N31 N 0.1914 0.09479 0.96892 0.0
C32 C 0.2133 0.07704 0.89834 0.0
C33 C 0.34853 0.13343 0.92226 0.0
C34 C 0.32678 0.15216 -0.00611 0.0
C35 C 0.29147 0.09565 0.87437 0.0
C36 C 0.24699 0.13183 0.01587 0.0
H37 H 0.29408 0.24128 0.2471 0.0
N38 N 0.14661 0.13111 0.10505 0.0
C39 C 0.17354 0.19282 0.22491 0.0
C40 C 0.22381 0.1504 0.08622 0.0
C41 C 0.12077 0.15385 0.17287 0.0
C42 C 0.25328 0.21073 0.20685 0.0
C43 C 0.27934 0.19042 0.13661 0.0
O44 O 1.00386 0.11929 0.06236 0.0
O45 O 0.95812 -0.00324 0.9798 0.0
O46 O 0.97273 0.94431 0.86129 0.0
O47 O 0.04894 0.03783 0.90154 0.0
O48 O 0.95 0.05637 0.07405 0.0
O49 O 0.08941 0.12978 0.97729 0.0
O50 O 0.03411 0.87305 0.90323 0.0
O51 O 0.07976 0.99557 -0.01419 0.0
O52 O 0.06529 0.04803 0.10434 0.0
O53 O 0.98909 0.9545 0.06409 0.0
O54 O 0.08808 0.93602 0.89166 0.0
O55 O 0.94858 0.86254 -0.01168 0.0
C56 C 0.90954 0.01128 0.02694 0.0
C57 C 0.05374 0.20463 0.05469 0.0
C58 C 0.05345 0.28365 0.0477 0.0
C59 C 0.05241 0.23107 0.01433 0.0
C60 C 0.05373 0.30882 0.12139 0.0
C61 C 0.05604 0.23142 0.12828 0.0
C62 C 0.05551 0.28298 0.16124 0.0
C63 C 1.01148 0.99085 0.85082 0.0
C64 C 0.03793 0.14631 0.02152 0.0
C65 C 0.3587 0.21011 0.11514 0.0
C66 C 0.38236 0.19102 0.04389 0.0
C67 C 0.12847 0.98115 0.93877 0.0
C68 C 0.98431 0.78771 0.91091 0.0
C69 C 0.98549 0.76128 0.95134 0.0
C70 C 0.98457 0.70873 0.91802 0.0
C71 C 0.98455 0.68359 0.84432 0.0
C72 C 0.98225 0.76094 0.8373 0.0
C73 C 0.9829 0.70942 0.8044 0.0
C74 C 0.02655 0.00148 0.11481 0.0
C75 C 1.00006 0.84602 0.94406 0.0
H76 H 0.04921 0.21058 0.9577 0.0
H77 H 0.05223 0.34866 0.14824 0.0
H78 H 0.05452 0.21171 0.16095 0.0
H79 H 0.05515 0.30263 0.21801 0.0
H80 H 0.98849 0.78174 0.00798 0.0
H81 H 0.98613 0.64377 0.81752 0.0
H82 H 0.98386 0.78066 0.80459 0.0
H83 H 0.98345 0.68979 0.74763 0.0
C84 C 0.07202 0.04658 0.24011 0.0
C85 C 0.0254 0.00079 0.18629 0.0
C86 C 0.07012 0.04555 0.3066 0.0
C87 C 0.96593 0.94579 0.72556 0.0
C88 C 1.01263 0.99155 0.77934 0.0
C89 C 0.96781 0.94683 0.65908 0.0
H90 H 0.93973 0.91758 0.16269 0.0
H91 H 0.93691 0.91609 0.27798 0.0
H92 H 0.09847 0.07471 0.80289 0.0
H93 H 0.10128 0.07622 0.6876 0.0
C94 C 0.97686 0.95387 0.20189 0.0
C95 C 0.975 0.9529 0.26837 0.0
C96 C 0.06127 0.03845 0.76371 0.0
C97 C 0.06311 0.03943 0.69724 0.0
C98 C 0.0217 -0.00131 0.3217 0.0
C99 C 0.0204 -0.00248 0.3911 0.0
C100 C 0.01945 -0.00333 0.4488 0.0
C101 C 1.01632 0.99366 0.64395 0.0
C102 C 1.01761 0.99485 0.57455 0.0
C103 C 1.01856 0.9957 0.51686 0.0
H104 H 0.11083 0.08329 0.23086 0.0
H105 H 0.107 0.08156 0.34628 0.0
H106 H 0.92705 0.9091 0.73484 0.0
H107 H 0.93085 0.91084 0.61943 0.0
C108 C 0.25227 0.96684 0.89388 0.0
C109 C 0.20872 0.99142 0.95052 0.0
C110 C 0.32363 0.96998 0.90356 0.0
C111 C 0.78584 0.02571 0.07199 0.0
C112 C 0.8293 0.00109 0.01529 0.0
C113 C 0.71452 0.02267 0.06237 0.0
H114 H 0.20735 0.03862 0.06264 0.0
H115 H 0.33381 0.04545 0.0792 0.0
H116 H 0.83055 0.95389 0.90316 0.0
H117 H 0.70418 0.94725 0.88672 0.0
C118 C 0.23961 0.02004 0.01748 0.0
C119 C 0.31181 0.02357 0.02708 0.0
C120 C 0.79836 0.97252 0.94836 0.0
C121 C 0.72621 0.96909 0.93882 0.0
C122 C 0.35408 -0.00206 0.97017 0.0
C123 C 0.42738 -0.00131 0.97907 0.0
C124 C 0.48858 -0.00261 0.98204 0.0
C125 C 0.68403 0.99476 -0.00422 0.0
C126 C 0.61076 0.99409 -0.01305 0.0
C127 C 0.54959 0.99543 -0.01601 0.0
H128 H 0.2302 0.94394 0.84177 0.0
H129 H 0.35459 0.9497 0.85882 0.0
H130 H 0.80795 0.04858 0.12407 0.0
H131 H 0.68362 0.04297 0.10715 0.0
C132 C 0.92459 0.62559 0.94427 0.0
C133 C 0.98316 0.67814 0.95745 0.0
C134 C 0.93326 0.58882 0.96151 0.0
C135 C 0.11312 0.36681 0.02152 0.0
C136 C 0.05467 0.31422 0.00833 0.0
C137 C 0.1043 0.40352 0.00429 0.0
H138 H 0.09264 0.73585 0.00613 0.0
H139 H 0.10736 0.67067 0.03762 0.0
H140 H 0.94522 0.25639 0.95964 0.0
H141 H 0.93022 0.32148 0.92816 0.0
C142 C 0.04679 0.69542 -0.00459 0.0
C143 C 0.0554 0.65826 0.01295 0.0
C144 C 0.99099 0.29686 0.97038 0.0
C145 C 0.98222 0.33397 0.95284 0.0
C146 C 1.00034 0.6041 -0.00748 0.0
C147 C 1.01582 0.56174 -0.00699 0.0
C148 C 1.01848 0.521 -0.01169 0.0
C149 C 0.03717 0.38815 0.97327 0.0
C150 C 0.02155 0.43045 0.97275 0.0
C151 C 1.01883 0.47116 0.97745 0.0
H152 H 0.87502 0.61158 0.91532 0.0
H153 H 0.89012 0.54723 0.94583 0.0
H154 H 0.16274 0.38088 0.05045 0.0
H155 H 0.14736 0.44514 0.01996 0.0
loop_
_geom_bond_atom_site_label_1
_geom_bond_atom_site_label_2
_geom_bond_distance
_geom_bond_site_symmetry_2
_ccdc_geom_bond_type
Tb0 N31 2.660 1_554 S
Tb0 N38 2.600 . S
Tb0 O44 2.546 . S
Tb0 O45 2.610 1_444 S
Tb0 O47 2.320 1_554 S
Tb0 O48 2.552 1_455 S
Tb0 O49 2.413 . S
Tb0 O51 2.362 . S
Tb0 O52 2.422 1_455 S
Tb0 C64 2.833 . S
C1 C4 1.432 . S
C1 C5 1.414 . S
C1 N8 1.359 . S
C2 C4 1.417 . S
C2 C6 1.432 . S
C2 C14 1.410 1_556 S
C3 C5 1.444 . S
C3 C6 1.317 . S
C3 H26 0.929 . S
C4 C1 1.432 . S
C4 C2 1.417 . S
C4 N12 1.360 1_556 S
C5 C1 1.414 . S
C5 C3 1.444 . S
C5 C10 1.385 . S
C6 C2 1.432 . S
C6 C3 1.317 . S
C6 H18 0.930 . S
C7 C9 1.392 . S
C7 C10 1.370 . S
C7 H19 0.931 . S
N8 C1 1.359 . S
N8 C9 1.327 . S
N8 Tb11 2.600 . S
C9 C7 1.392 . S
C9 N8 1.327 . S
C9 H16 0.930 . S
C10 C5 1.385 . S
C10 C7 1.370 . S
C10 H29 0.930 . S
Tb11 N8 2.600 . S
Tb11 N12 2.660 1_556 S
Tb11 O45 2.362 . S
Tb11 O46 2.422 1_655 S
Tb11 O50 2.546 . S
Tb11 O51 2.610 1_666 S
Tb11 O53 2.320 1_556 S
Tb11 O54 2.552 1_655 S
Tb11 O55 2.413 . S
Tb11 C75 2.833 . S
N12 C4 1.360 1_554 S
N12 Tb11 2.660 1_554 S
N12 C13 1.305 . S
C13 N12 1.305 . S
C13 C15 1.407 . S
C13 H20 0.930 . S
C14 C2 1.410 1_554 S
C14 C15 1.345 . S
C14 H22 0.930 . S
C15 C13 1.407 . S
C15 C14 1.345 . S
C15 H17 0.930 . S
H16 C9 0.930 . S
H17 C15 0.930 . S
H18 C6 0.930 . S
H19 C7 0.931 . S
H20 C13 0.930 . S
H21 C35 0.930 . S
H22 C14 0.930 . S
H23 C41 0.930 . S
H24 C32 0.930 . S
H25 C39 0.931 . S
H26 C3 0.929 . S
H27 C33 0.930 . S
H28 C66 0.930 . S
H29 C10 0.930 . S
H30 C65 0.929 . S
N31 Tb0 2.660 1_556 S
N31 C32 1.305 . S
N31 C36 1.360 1_556 S
C32 H24 0.930 . S
C32 N31 1.305 . S
C32 C35 1.407 . S
C33 H27 0.930 . S
C33 C34 1.410 1_556 S
C33 C35 1.345 . S
C34 C33 1.410 1_554 S
C34 C36 1.417 . S
C34 C66 1.432 . S
C35 H21 0.930 . S
C35 C32 1.407 . S
C35 C33 1.345 . S
C36 N31 1.360 1_554 S
C36 C34 1.417 . S
C36 C40 1.432 . S
H37 C42 0.930 . S
N38 Tb0 2.600 . S
N38 C40 1.359 . S
N38 C41 1.327 . S
C39 H25 0.931 . S
C39 C41 1.392 . S
C39 C42 1.370 . S
C40 C36 1.432 . S
C40 N38 1.359 . S
C40 C43 1.414 . S
C41 H23 0.930 . S
C41 N38 1.327 . S
C41 C39 1.392 . S
C42 H37 0.930 . S
C42 C39 1.370 . S
C42 C43 1.385 . S
C43 C40 1.414 . S
C43 C42 1.385 . S
C43 C65 1.444 . S
O44 Tb0 2.546 . S
O44 C64 1.251 . S
O45 Tb0 2.610 1_666 S
O45 Tb11 2.362 . S
O45 C56 1.283 1_566 S
O46 Tb11 2.422 1_455 S
O46 C63 1.257 . S
O47 Tb0 2.320 1_556 S
O47 C63 1.260 1_545 S
O48 Tb0 2.552 1_655 S
O48 C56 1.243 . S
O49 Tb0 2.413 . S
O49 C64 1.256 . S
O50 Tb11 2.546 . S
O50 C75 1.251 . S
O51 Tb0 2.362 . S
O51 Tb11 2.610 1_444 S
O51 C67 1.283 1_544 S
O52 Tb0 2.422 1_655 S
O52 C74 1.259 . S
O53 Tb11 2.320 1_554 S
O53 C74 1.260 1_565 S
O54 Tb11 2.552 1_455 S
O54 C67 1.243 . S
O55 Tb11 2.413 . S
O55 C75 1.256 . S
C56 O45 1.283 1_544 S
C56 O48 1.243 . S
C57 C59 1.382 . S
C57 C61 1.393 . S
C57 C64 1.500 . S
C58 C59 1.400 . S
C58 C60 1.384 . S
C59 C57 1.382 . S
C59 C58 1.400 . S
C59 H76 0.930 1_554 S
C60 C58 1.384 . S
C60 C62 1.392 . S
C60 H77 0.931 . S
C61 C57 1.393 . S
C61 C62 1.401 . S
C61 H78 0.930 . S
C62 C60 1.392 . S
C62 C61 1.401 . S
C62 H79 0.930 . S
C63 O46 1.257 . S
C63 O47 1.260 1_565 S
C64 Tb0 2.833 . S
C64 O44 1.251 . S
C64 O49 1.256 . S
C64 C57 1.500 . S
C65 H30 0.929 . S
C65 C43 1.444 . S
C65 C66 1.317 . S
C66 H28 0.930 . S
C66 C34 1.432 . S
C66 C65 1.317 . S
C67 O51 1.283 1_566 S
C67 O54 1.243 . S
C68 C69 1.382 . S
C68 C72 1.393 . S
C68 C75 1.500 . S
C69 C68 1.382 . S
C69 C70 1.400 . S
C69 H80 0.930 1_556 S
C70 C69 1.400 . S
C70 C71 1.384 . S
C71 C70 1.384 . S
C71 C73 1.392 . S
C71 H81 0.931 . S
C72 C68 1.393 . S
C72 C73 1.401 . S
C72 H82 0.930 . S
C73 C71 1.392 . S
C73 C72 1.401 . S
C73 H83 0.930 . S
C74 O52 1.259 . S
C74 O53 1.260 1_545 S
C75 Tb11 2.833 . S
C75 O50 1.251 . S
C75 O55 1.256 . S
C75 C68 1.500 . S
H76 C59 0.930 1_556 S
H77 C60 0.931 . S
H78 C61 0.930 . S
H79 C62 0.930 . S
H80 C69 0.930 1_554 S
H81 C71 0.931 . S
H82 C72 0.930 . S
H83 C73 0.930 . S
C84 C85 1.332 . S
C84 C86 1.345 . S
C84 H104 0.932 . S
C85 C84 1.332 . S
C85 C94 1.332 1_445 S
C86 C84 1.345 . S
C86 C98 1.334 . S
C86 H105 0.928 . S
C87 C88 1.332 1_665 S
C87 C89 1.345 . S
C87 H106 0.932 . S
C88 C87 1.332 1_445 S
C88 C96 1.332 . S
C89 C87 1.345 . S
C89 C101 1.334 1_665 S
C89 H107 0.928 . S
H90 C94 0.932 . S
H91 C95 0.928 . S
H92 C96 0.932 . S
H93 C97 0.928 . S
C94 C85 1.332 1_665 S
C94 H90 0.932 . S
C94 C95 1.345 . S
C95 H91 0.928 . S
C95 C94 1.345 . S
C95 C98 1.334 1_665 S
C96 C88 1.332 . S
C96 H92 0.932 . S
C96 C97 1.345 . S
C97 H93 0.928 . S
C97 C96 1.345 . S
C97 C101 1.334 . S
C98 C86 1.334 . S
C98 C95 1.334 1_445 S
C98 C99 1.487 . S
C99 C98 1.487 . S
C99 C100 1.185 . S
C100 C99 1.185 . S
C100 C103 1.482 . S
C101 C89 1.334 1_445 S
C101 C97 1.334 . S
C101 C102 1.487 . S
C102 C101 1.487 . S
C102 C103 1.185 . S
C103 C100 1.482 . S
C103 C102 1.185 . S
H104 C84 0.932 . S
H105 C86 0.928 . S
H106 C87 0.932 . S
H107 C89 0.928 . S
C108 C109 1.332 1_566 S
C108 C110 1.345 . S
C108 H128 0.932 . S
C109 C108 1.332 1_544 S
C109 C118 1.332 . S
C110 C108 1.345 . S
C110 C122 1.334 1_566 S
C110 H129 0.928 . S
C111 C112 1.332 . S
C111 C113 1.345 . S
C111 H130 0.932 . S
C112 C111 1.332 . S
C112 C120 1.332 1_544 S
C113 C111 1.345 . S
C113 C125 1.334 . S
C113 H131 0.928 . S
H114 C118 0.932 . S
H115 C119 0.928 . S
H116 C120 0.932 . S
H117 C121 0.928 . S
C118 C109 1.332 . S
C118 H114 0.932 . S
C118 C119 1.345 . S
C119 H115 0.928 . S
C119 C118 1.345 . S
C119 C122 1.334 . S
C120 C112 1.332 1_566 S
C120 H116 0.932 . S
C120 C121 1.345 . S
C121 H117 0.928 . S
C121 C120 1.345 . S
C121 C125 1.334 1_566 S
C122 C110 1.334 1_544 S
C122 C119 1.334 . S
C122 C123 1.487 . S
C123 C122 1.487 . S
C123 C124 1.185 . S
C124 C123 1.185 . S
C124 C127 1.482 . S
C125 C113 1.334 . S
C125 C121 1.334 1_544 S
C125 C126 1.487 . S
C126 C125 1.487 . S
C126 C127 1.185 . S
C127 C124 1.482 . S
C127 C126 1.185 . S
H128 C108 0.932 . S
H129 C110 0.928 . S
H130 C111 0.932 . S
H131 C113 0.928 . S
C132 C133 1.332 1_656 S
C132 C134 1.345 . S
C132 H152 0.932 . S
C133 C132 1.332 1_454 S
C133 C142 1.332 . S
C134 C132 1.345 . S
C134 C146 1.334 1_656 S
C134 H153 0.928 . S
C135 C136 1.332 . S
C135 C137 1.345 . S
C135 H154 0.932 . S
C136 C135 1.332 . S
C136 C144 1.332 1_454 S
C137 C135 1.345 . S
C137 C149 1.334 . S
C137 H155 0.928 . S
H138 C142 0.932 . S
H139 C143 0.928 . S
H140 C144 0.932 . S
H141 C145 0.928 . S
C142 C133 1.332 . S
C142 H138 0.932 . S
C142 C143 1.345 . S
C143 H139 0.928 . S
C143 C142 1.345 . S
C143 C146 1.334 . S
C144 C136 1.332 1_656 S
C144 H140 0.932 . S
C144 C145 1.345 . S
C145 H141 0.928 . S
C145 C144 1.345 . S
C145 C149 1.334 1_656 S
C146 C134 1.334 1_454 S
C146 C143 1.334 . S
C146 C147 1.487 . S
C147 C146 1.487 . S
C147 C148 1.185 . S
C148 C147 1.185 . S
C148 C151 1.482 . S
C149 C137 1.334 . S
C149 C145 1.334 1_454 S
C149 C150 1.487 . S
C150 C149 1.487 . S
C150 C151 1.185 . S
C151 C148 1.482 . S
C151 C150 1.185 . S
H152 C132 0.932 . S
H153 C134 0.928 . S
H154 C135 0.932 . S
H155 C137 0.928 . S
C85 C74 1.472 1_455 S
C88 C63 1.472 1_545 S
C109 C67 1.435 1_544 S
C112 C56 1.435 . S
C133 C70 1.321 1_454 S
C136 C58 1.321 . S
