# Generated by pormake.
# Topology uov, (4)-cn, num edge types: 1
# Building blocks:
#     Node 0, Type 0, BuildingBlock: QUQFOY_clean_sbu_1, # of connection points: 4
#     Node 1, Type 0, BuildingBlock: QUQFOY_clean_sbu_1, # of connection points: 4
#     Node 2, Type 0, BuildingBlock: QUQFOY_clean_sbu_1, # of connection points: 4
#     Node 3, Type 0, BuildingBlock: QUQFOY_clean_sbu_1, # of connection points: 4
#     Node 4, Type 0, BuildingBlock: QUQFOY_clean_sbu_1, # of connection points: 4
#     Node 5, Type 0, BuildingBlock: QUQFOY_clean_sbu_1, # of connection points: 4
#     Node 6, Type 0, BuildingBlock: QUQFOY_clean_sbu_1, # of connection points: 4
#     Node 7, Type 0, BuildingBlock: QUQFOY_clean_sbu_1, # of connection points: 4
#     Edge 8, Type (0, 0), None
#     Edge 9, Type (0, 0), None
#     Edge 10, Type (0, 0), None
#     Edge 11, Type (0, 0), None
#     Edge 12, Type (0, 0), None
#     Edge 13, Type (0, 0), None
#     Edge 14, Type (0, 0), None
#     Edge 15, Type (0, 0), None
#     Edge 16, Type (0, 0), None
#     Edge 17, Type (0, 0), None
#     Edge 18, Type (0, 0), None
#     Edge 19, Type (0, 0), None
#     Edge 20, Type (0, 0), None
#     Edge 21, Type (0, 0), None
#     Edge 22, Type (0, 0), None
#     Edge 23, Type (0, 0), None
# Relax obj value: 0.029
# Max RMSD: 0.055
# Mean RMSD: 0.055
data_MOF--net-uov--node1-QUQFOY_clean_sbu_1--edge1-none
_symmetry_space_group_name_H-M    P1
_symmetry_Int_Tables_number       1
_symmetry_cell_setting            triclinic
loop_
_symmetry_equiv_pos_as_xyz
'x, y, z'
_cell_length_a     16.093886
_cell_length_b     16.093391
_cell_length_c     20.016668
_cell_angle_alpha  89.992225
_cell_angle_beta   90.007902
_cell_angle_gamma 90.000002
loop_
_atom_site_label
_atom_site_type_symbol
_atom_site_fract_x
_atom_site_fract_y
_atom_site_fract_z
_atom_type_partial_charge
O0 O 0.88903 0.21961 0.55126 0.0
Cd1 Cd -0.0041 0.28444 0.56641 0.0
Cd2 Cd 0.00182 0.15241 0.66698 0.0
O3 O 0.87577 0.14599 0.6437 0.0
O4 O -0.02138 0.38785 0.51407 0.0
O5 O -0.00623 0.38723 0.62409 0.0
C6 C -0.02011 0.42802 0.56966 0.0
C7 C 0.05649 0.095 0.76615 0.0
C8 C 0.84747 0.17015 0.58754 0.0
C9 C 0.11414 0.15285 0.54067 0.0
O10 O 0.07959 0.11998 0.59107 0.0
O11 O 0.09701 0.22649 0.5226 0.0
O12 O 0.01563 0.05056 0.72435 0.0
O13 O 0.06134 0.17375 0.75501 0.0
O14 O 0.2197 0.05723 0.54002 0.0
Cd15 Cd 0.28451 0.9503 0.52508 0.0
Cd16 Cd 0.15249 0.94409 0.4243 0.0
O17 O 0.14585 0.07011 0.44763 0.0
O18 O 0.38795 0.96763 0.57739 0.0
O19 O 0.38728 0.95228 0.46737 0.0
C20 C 0.42809 0.96624 0.52178 0.0
C21 C 0.09498 0.88946 0.32515 0.0
C22 C 0.17016 0.0986 0.50368 0.0
C23 C 0.15302 0.83184 0.55073 0.0
O24 O 0.12026 0.86619 0.50018 0.0
O25 O 0.22652 0.84928 0.569 0.0
O26 O 0.05055 0.93018 0.36703 0.0
O27 O 0.17376 0.88473 0.33619 0.0
O28 O 0.05733 0.72634 0.55139 0.0
Cd29 Cd 0.95038 0.66157 0.56633 0.0
Cd30 Cd 0.94422 0.79359 0.66702 0.0
O31 O 0.07026 0.80016 0.64379 0.0
O32 O 0.96773 0.55815 0.51404 0.0
O33 O 0.95232 0.55878 0.62404 0.0
C34 C 0.96632 0.51799 0.56964 0.0
C35 C 0.88952 0.85102 0.76616 0.0
C36 C 0.09874 0.77585 0.58773 0.0
C37 C 0.83206 0.79315 0.54055 0.0
O38 O 0.86643 0.82593 0.59107 0.0
O39 O 0.84939 0.7196 0.52237 0.0
O40 O 0.93029 0.89547 0.72432 0.0
O41 O 0.88475 0.77225 0.75507 0.0
O42 O 0.72645 0.88872 0.53985 0.0
Cd43 Cd 0.66165 -0.00433 0.525 0.0
Cd44 Cd 0.7936 0.00201 0.42407 0.0
O45 O 0.80045 0.87601 0.44752 0.0
O46 O 0.55827 -0.02171 0.57735 0.0
O47 O 0.55882 -0.00621 0.46735 0.0
C48 C 0.51807 -0.02024 0.52176 0.0
C49 C 0.8511 0.05661 0.3249 0.0
C50 C 0.77608 0.84744 0.50353 0.0
C51 C 0.79308 0.11426 0.55053 0.0
O52 O 0.82572 0.08005 0.49989 0.0
O53 O 0.71971 0.09661 0.56897 0.0
O54 O 0.89555 0.01599 0.36685 0.0
O55 O 0.7723 0.06125 0.3359 0.0
O56 O 0.05705 0.21969 0.05119 0.0
Cd57 Cd 0.95018 0.28452 0.06631 0.0
Cd58 Cd 0.94428 0.15254 0.1669 0.0
O59 O 0.07034 0.14616 0.14367 0.0
O60 O 0.96747 0.38796 1.01401 0.0
O61 O 0.95231 0.38727 0.12404 0.0
C62 C 0.9662 0.42809 0.06962 0.0
C63 C 0.88962 0.09511 0.26606 0.0
C64 C 0.09863 0.17028 0.0875 0.0
C65 C 0.83198 0.15292 1.04055 0.0
O66 O 0.86655 0.12006 0.09096 0.0
O67 O 0.84908 0.22657 1.02249 0.0
O68 O 0.9305 0.05068 0.22427 0.0
O69 O 0.88474 0.17386 0.25491 0.0
O70 O 0.21958 0.889 1.04006 0.0
Cd71 Cd 0.28445 -0.00413 1.02503 0.0
Cd72 Cd 0.15254 0.00195 0.92419 0.0
O73 O 0.14588 0.87594 0.94763 0.0
O74 O 0.38784 -0.02146 0.07738 0.0
O75 O 0.38724 -0.0062 0.96735 0.0
C76 C 0.42802 -0.02013 1.02179 0.0
C77 C 0.09503 0.0565 0.82501 0.0
C78 C 0.17006 0.84755 1.00376 0.0
C79 C 0.15299 0.11435 0.05053 0.0
O80 O 0.12027 0.07994 1.0 0.0
O81 O 0.22646 0.09692 0.06886 0.0
O82 O 0.05061 0.01579 0.86691 0.0
O83 O 0.17381 0.06126 0.83606 0.0
O84 O 0.88889 0.72646 0.05136 0.0
Cd85 Cd -0.00421 0.66164 0.06638 0.0
Cd86 Cd 0.00182 0.79354 0.16712 0.0
O87 O 0.87579 0.80013 0.14378 0.0
O88 O -0.02156 0.55825 1.01405 0.0
O89 O -0.00624 0.55883 0.12406 0.0
C90 C -0.02021 0.51806 0.06964 0.0
C91 C 0.05645 0.85096 0.2663 0.0
C92 C 0.84741 0.77596 0.08765 0.0
C93 C 0.11413 0.79319 1.04075 0.0
O94 O 0.0797 0.82592 0.09125 0.0
O95 O 0.09681 0.71966 1.02251 0.0
O96 O 0.01568 0.89541 0.22445 0.0
O97 O 0.06123 0.7722 0.25521 0.0
O98 O 0.72637 0.05736 1.03992 0.0
Cd99 Cd 0.66157 0.95041 1.02511 0.0
Cd100 Cd 0.79347 0.94408 0.92416 0.0
O101 O 0.80027 0.07008 0.94755 0.0
O102 O 0.55816 0.9678 0.07741 0.0
O103 O 0.55878 0.95229 0.96741 0.0
C104 C 0.51799 0.96633 1.02181 0.0
C105 C 0.85098 0.8895 0.825 0.0
C106 C 0.77595 0.09866 1.00357 0.0
C107 C 0.79301 0.83186 0.05066 0.0
O108 O 0.82563 0.86608 1.0 0.0
O109 O 0.71963 0.84947 0.06909 0.0
O110 O 0.89542 0.93013 0.86694 0.0
O111 O 0.77219 0.88483 0.836 0.0
loop_
_geom_bond_atom_site_label_1
_geom_bond_atom_site_label_2
_geom_bond_distance
_geom_bond_site_symmetry_2
_ccdc_geom_bond_type
O0 Cd1 2.223 . S
O0 C8 1.315 1_455 S
Cd1 O0 2.223 . S
Cd1 O4 2.297 . S
Cd1 O5 2.439 . S
Cd1 O11 2.240 . S
Cd2 O3 2.240 1_455 S
Cd2 O10 2.223 . S
Cd2 O12 2.297 . S
Cd2 O13 2.439 . S
O3 Cd2 2.240 1_655 S
O3 C8 1.279 . S
O4 Cd1 2.297 . S
O4 C6 1.247 . S
O5 Cd1 2.439 . S
O5 C6 1.208 . S
C6 O4 1.247 . S
C6 O5 1.208 . S
C7 O12 1.247 . S
C7 O13 1.208 . S
C8 O0 1.315 1_655 S
C8 O3 1.279 . S
C9 O10 1.315 . S
C9 O11 1.279 . S
O10 Cd2 2.223 . S
O10 C9 1.315 . S
O11 Cd1 2.240 . S
O11 C9 1.279 . S
O12 Cd2 2.297 . S
O12 C7 1.247 . S
O13 Cd2 2.439 . S
O13 C7 1.208 . S
O14 Cd15 2.223 . S
O14 C22 1.315 1_565 S
Cd15 O14 2.223 . S
Cd15 O18 2.297 . S
Cd15 O19 2.439 . S
Cd15 O25 2.240 . S
Cd16 O17 2.240 1_565 S
Cd16 O24 2.223 . S
Cd16 O26 2.297 . S
Cd16 O27 2.439 . S
O17 Cd16 2.240 1_545 S
O17 C22 1.279 . S
O18 Cd15 2.297 . S
O18 C20 1.247 . S
O19 Cd15 2.439 . S
O19 C20 1.208 . S
C20 O18 1.247 . S
C20 O19 1.208 . S
C21 O26 1.247 . S
C21 O27 1.208 . S
C22 O14 1.315 1_545 S
C22 O17 1.279 . S
C23 O24 1.315 . S
C23 O25 1.279 . S
O24 Cd16 2.223 . S
O24 C23 1.315 . S
O25 Cd15 2.240 . S
O25 C23 1.279 . S
O26 Cd16 2.297 . S
O26 C21 1.247 . S
O27 Cd16 2.439 . S
O27 C21 1.208 . S
O28 Cd29 2.223 . S
O28 C36 1.315 1_655 S
Cd29 O28 2.223 . S
Cd29 O32 2.297 . S
Cd29 O33 2.439 . S
Cd29 O39 2.240 . S
Cd30 O31 2.240 1_655 S
Cd30 O38 2.223 . S
Cd30 O40 2.297 . S
Cd30 O41 2.439 . S
O31 Cd30 2.240 1_455 S
O31 C36 1.279 . S
O32 Cd29 2.297 . S
O32 C34 1.247 . S
O33 Cd29 2.439 . S
O33 C34 1.208 . S
C34 O32 1.247 . S
C34 O33 1.208 . S
C35 O40 1.247 . S
C35 O41 1.208 . S
C36 O28 1.315 1_455 S
C36 O31 1.279 . S
C37 O38 1.315 . S
C37 O39 1.279 . S
O38 Cd30 2.223 . S
O38 C37 1.315 . S
O39 Cd29 2.240 . S
O39 C37 1.279 . S
O40 Cd30 2.297 . S
O40 C35 1.247 . S
O41 Cd30 2.439 . S
O41 C35 1.208 . S
O42 Cd43 2.223 . S
O42 C50 1.315 1_545 S
Cd43 O42 2.223 . S
Cd43 O46 2.297 . S
Cd43 O47 2.439 . S
Cd43 O53 2.240 . S
Cd44 O45 2.240 1_545 S
Cd44 O52 2.223 . S
Cd44 O54 2.297 . S
Cd44 O55 2.439 . S
O45 Cd44 2.240 1_565 S
O45 C50 1.279 . S
O46 Cd43 2.297 . S
O46 C48 1.247 . S
O47 Cd43 2.439 . S
O47 C48 1.208 . S
C48 O46 1.247 . S
C48 O47 1.208 . S
C49 O54 1.247 . S
C49 O55 1.208 . S
C50 O42 1.315 1_565 S
C50 O45 1.279 . S
C51 O52 1.315 . S
C51 O53 1.279 . S
O52 Cd44 2.223 . S
O52 C51 1.315 . S
O53 Cd43 2.240 . S
O53 C51 1.279 . S
O54 Cd44 2.297 . S
O54 C49 1.247 . S
O55 Cd44 2.439 . S
O55 C49 1.208 . S
O56 Cd57 2.223 1_556 S
O56 C64 1.319 1_655 S
Cd57 O56 2.223 1_554 S
Cd57 O60 2.297 1_554 S
Cd57 O61 2.439 . S
Cd57 O67 2.240 . S
Cd58 O59 2.240 1_655 S
Cd58 O66 2.223 . S
Cd58 O68 2.297 . S
Cd58 O69 2.439 . S
O59 Cd58 2.240 1_455 S
O59 C64 1.274 1_554 S
O60 Cd57 2.297 1_556 S
O60 C62 1.247 1_556 S
O61 Cd57 2.439 . S
O61 C62 1.208 . S
C62 O60 1.247 1_554 S
C62 O61 1.208 . S
C63 O68 1.247 . S
C63 O69 1.208 . S
C64 O56 1.319 1_455 S
C64 O59 1.274 1_556 S
C65 O66 1.315 . S
C65 O67 1.279 . S
O66 Cd58 2.223 . S
O66 C65 1.315 . S
O67 Cd57 2.240 . S
O67 C65 1.279 . S
O68 Cd58 2.297 . S
O68 C63 1.247 . S
O69 Cd58 2.439 . S
O69 C63 1.208 . S
O70 Cd71 2.223 1_554 S
O70 C78 1.319 1_545 S
Cd71 O70 2.223 1_556 S
Cd71 O74 2.297 1_556 S
Cd71 O75 2.439 . S
Cd71 O81 2.240 . S
Cd72 O73 2.240 1_545 S
Cd72 O80 2.223 . S
Cd72 O82 2.297 . S
Cd72 O83 2.439 . S
O73 Cd72 2.240 1_565 S
O73 C78 1.274 1_556 S
O74 Cd71 2.297 1_554 S
O74 C76 1.247 1_554 S
O75 Cd71 2.439 . S
O75 C76 1.208 . S
C76 O74 1.247 1_556 S
C76 O75 1.208 . S
C77 O82 1.247 . S
C77 O83 1.208 . S
C78 O70 1.319 1_565 S
C78 O73 1.274 1_554 S
C79 O80 1.315 . S
C79 O81 1.279 . S
O80 Cd72 2.223 . S
O80 C79 1.315 . S
O81 Cd71 2.240 . S
O81 C79 1.279 . S
O82 Cd72 2.297 . S
O82 C77 1.247 . S
O83 Cd72 2.439 . S
O83 C77 1.208 . S
O84 Cd85 2.223 1_556 S
O84 C92 1.319 1_455 S
Cd85 O84 2.223 1_554 S
Cd85 O88 2.297 1_554 S
Cd85 O89 2.439 . S
Cd85 O95 2.240 . S
Cd86 O87 2.240 1_455 S
Cd86 O94 2.223 . S
Cd86 O96 2.297 . S
Cd86 O97 2.439 . S
O87 Cd86 2.240 1_655 S
O87 C92 1.274 1_554 S
O88 Cd85 2.297 1_556 S
O88 C90 1.247 1_556 S
O89 Cd85 2.439 . S
O89 C90 1.208 . S
C90 O88 1.247 1_554 S
C90 O89 1.208 . S
C91 O96 1.247 . S
C91 O97 1.208 . S
C92 O84 1.319 1_655 S
C92 O87 1.274 1_556 S
C93 O94 1.315 . S
C93 O95 1.279 . S
O94 Cd86 2.223 . S
O94 C93 1.315 . S
O95 Cd85 2.240 . S
O95 C93 1.279 . S
O96 Cd86 2.297 . S
O96 C91 1.247 . S
O97 Cd86 2.439 . S
O97 C91 1.208 . S
O98 Cd99 2.223 1_554 S
O98 C106 1.319 1_565 S
Cd99 O98 2.223 1_556 S
Cd99 O102 2.297 1_556 S
Cd99 O103 2.439 . S
Cd99 O109 2.240 . S
Cd100 O101 2.240 1_565 S
Cd100 O108 2.223 . S
Cd100 O110 2.297 . S
Cd100 O111 2.439 . S
O101 Cd100 2.240 1_545 S
O101 C106 1.274 1_556 S
O102 Cd99 2.297 1_554 S
O102 C104 1.247 1_554 S
O103 Cd99 2.439 . S
O103 C104 1.208 . S
C104 O102 1.247 1_556 S
C104 O103 1.208 . S
C105 O110 1.247 . S
C105 O111 1.208 . S
C106 O98 1.319 1_545 S
C106 O101 1.274 1_554 S
C107 O108 1.315 . S
C107 O109 1.279 . S
O108 Cd100 2.223 . S
O108 C107 1.315 . S
O109 Cd99 2.240 . S
O109 C107 1.279 . S
O110 Cd100 2.297 . S
O110 C105 1.247 . S
O111 Cd100 2.439 . S
O111 C105 1.208 . S
C34 C6 1.641 1_655 S
C48 C20 1.641 1_545 S
C62 C90 1.641 1_655 S
C76 C104 1.641 1_545 S
C22 C9 1.462 . S
C23 C36 1.462 . S
C50 C37 1.462 . S
C51 C8 1.462 . S
C106 C65 1.464 . S
C79 C64 1.464 . S
C93 C78 1.464 . S
C107 C92 1.464 . S
C7 C77 1.543 . S
C91 C21 1.543 . S
C35 C105 1.543 . S
C49 C63 1.543 . S
