# Generated by pormake.
# Topology ukf, (4)-cn, num edge types: 1
# Building blocks:
#     Node 0, Type 0, BuildingBlock: AZAVOO_clean_sbu_0, # of connection points: 4
#     Node 1, Type 0, BuildingBlock: AZAVOO_clean_sbu_0, # of connection points: 4
#     Node 2, Type 0, BuildingBlock: AZAVOO_clean_sbu_0, # of connection points: 4
#     Node 3, Type 0, BuildingBlock: AZAVOO_clean_sbu_0, # of connection points: 4
#     Node 4, Type 0, BuildingBlock: AZAVOO_clean_sbu_0, # of connection points: 4
#     Node 5, Type 0, BuildingBlock: AZAVOO_clean_sbu_0, # of connection points: 4
#     Node 6, Type 0, BuildingBlock: AZAVOO_clean_sbu_0, # of connection points: 4
#     Node 7, Type 0, BuildingBlock: AZAVOO_clean_sbu_0, # of connection points: 4
#     Node 8, Type 0, BuildingBlock: AZAVOO_clean_sbu_0, # of connection points: 4
#     Node 9, Type 0, BuildingBlock: AZAVOO_clean_sbu_0, # of connection points: 4
#     Node 10, Type 0, BuildingBlock: AZAVOO_clean_sbu_0, # of connection points: 4
#     Node 11, Type 0, BuildingBlock: AZAVOO_clean_sbu_0, # of connection points: 4
#     Edge 12, Type (0, 0), None
#     Edge 13, Type (0, 0), None
#     Edge 14, Type (0, 0), None
#     Edge 15, Type (0, 0), None
#     Edge 16, Type (0, 0), None
#     Edge 17, Type (0, 0), None
#     Edge 18, Type (0, 0), None
#     Edge 19, Type (0, 0), None
#     Edge 20, Type (0, 0), None
#     Edge 21, Type (0, 0), None
#     Edge 22, Type (0, 0), None
#     Edge 23, Type (0, 0), None
#     Edge 24, Type (0, 0), None
#     Edge 25, Type (0, 0), None
#     Edge 26, Type (0, 0), None
#     Edge 27, Type (0, 0), None
#     Edge 28, Type (0, 0), None
#     Edge 29, Type (0, 0), None
#     Edge 30, Type (0, 0), None
#     Edge 31, Type (0, 0), None
#     Edge 32, Type (0, 0), None
#     Edge 33, Type (0, 0), None
#     Edge 34, Type (0, 0), None
#     Edge 35, Type (0, 0), None
# Relax obj value: 0.210
# Max RMSD: 0.204
# Mean RMSD: 0.204
data_MOF--net-ukf--node1-AZAVOO_clean_sbu_0--edge1-none
_symmetry_space_group_name_H-M    P1
_symmetry_Int_Tables_number       1
_symmetry_cell_setting            triclinic
loop_
_symmetry_equiv_pos_as_xyz
'x, y, z'
_cell_length_a     15.809269
_cell_length_b     15.809773
_cell_length_c     27.353238
_cell_angle_alpha  90.000839
_cell_angle_beta   89.999592
_cell_angle_gamma 120.00267
loop_
_atom_site_label
_atom_site_type_symbol
_atom_site_fract_x
_atom_site_fract_y
_atom_site_fract_z
_atom_type_partial_charge
Mg0 Mg 0.33476 0.22061 0.06811 0.0
O1 O 0.48211 0.23838 0.04602 0.0
O2 O 0.59555 0.37721 0.08161 0.0
Mg3 Mg 0.52574 0.43706 0.13455 0.0
C4 C 0.57057 0.30489 0.05279 0.0
C5 C 0.1633 0.00843 0.0443 0.0
O6 O 0.1134 0.04934 0.0595 0.0
O7 O 0.3441 0.16619 0.14519 0.0
O8 O 0.45855 0.30269 0.18189 0.0
O9 O 0.36593 0.34291 1.00875 0.0
O10 O 0.40101 0.36485 0.08646 0.0
C11 C 0.39422 0.21259 0.18276 0.0
C12 C 0.40722 0.40226 0.04479 0.0
O13 O 0.25578 0.06053 0.04015 0.0
Mg14 Mg 0.07026 0.35671 0.40144 0.0
O15 O 0.19986 0.50405 0.37935 0.0
O16 O 0.17445 0.61748 0.41494 0.0
Mg17 Mg 0.04479 0.54768 0.46788 0.0
C18 C 0.22181 0.59251 0.38612 0.0
C19 C 0.11098 0.18525 0.37763 0.0
O20 O 0.02016 0.13535 0.39284 0.0
O21 O 0.13403 0.36605 0.47852 0.0
O22 O 0.11198 0.4805 0.51522 0.0
O23 O -0.02087 0.38787 0.34207 0.0
O24 O -0.00772 0.42295 0.41979 0.0
C25 C 0.13776 0.41617 0.51609 0.0
C26 C -0.03892 0.42916 0.37812 0.0
O27 O 0.15136 0.27772 0.37348 0.0
Mg28 Mg 0.66968 0.09221 0.73477 0.0
O29 O 0.65192 0.22179 0.71268 0.0
O30 O 0.51308 0.19639 0.74827 0.0
Mg31 Mg 0.45322 0.06673 0.80121 0.0
C32 C 0.5854 0.24374 0.71945 0.0
C33 C 0.88185 0.13292 0.71096 0.0
O34 O 0.84092 0.04211 0.72616 0.0
O35 O 0.7241 0.15598 0.81185 0.0
O36 O 0.58759 0.13391 0.84855 0.0
O37 O 0.54739 0.00107 0.67541 0.0
O38 O 0.52544 0.01422 0.75312 0.0
C39 C 0.67771 0.1597 0.84943 0.0
C40 C 0.48803 -0.01698 0.71146 0.0
O41 O 0.82976 0.17331 0.70682 0.0
Mg42 Mg 0.53361 0.69162 0.06811 0.0
O43 O 0.38626 0.67386 0.04602 0.0
O44 O 0.27282 0.53503 0.08161 0.0
Mg45 Mg 0.34263 0.47517 0.13455 0.0
C46 C 0.2978 0.60735 0.05279 0.0
C47 C 0.70507 0.90381 0.0443 0.0
O48 O 0.75497 0.8629 0.0595 0.0
O49 O 0.52427 0.74605 0.14519 0.0
O50 O 0.40982 0.60954 0.18189 0.0
O51 O 0.50244 0.56933 1.00875 0.0
O52 O 0.46736 0.54738 0.08646 0.0
C53 C 0.47415 0.69965 0.18276 0.0
C54 C 0.46115 0.50997 0.04479 0.0
O55 O 0.61259 0.8517 0.04015 0.0
Mg56 Mg 0.7981 0.55554 0.40144 0.0
O57 O 0.66851 0.40819 0.37935 0.0
O58 O 0.69391 0.29476 0.41494 0.0
Mg59 Mg 0.82358 0.36457 0.46787 0.0
C60 C 0.64656 0.31973 0.38612 0.0
C61 C 0.75738 0.727 0.37763 0.0
O62 O 0.8482 0.77689 0.39283 0.0
O63 O 0.73433 0.54619 0.47852 0.0
O64 O 0.75639 0.43175 0.51522 0.0
O65 O 0.88923 0.52438 0.34207 0.0
O66 O 0.87609 0.48929 0.41979 0.0
C67 C 0.73061 0.49607 0.51609 0.0
C68 C 0.90729 0.48309 0.37812 0.0
O69 O 0.717 0.63452 0.37348 0.0
Mg70 Mg 0.19867 0.82002 0.73478 0.0
O71 O 0.21644 0.69044 0.71269 0.0
O72 O 0.35528 0.71585 0.74827 0.0
Mg73 Mg 0.41514 0.84551 0.80121 0.0
C74 C 0.28295 0.6685 0.71945 0.0
C75 C -0.01349 0.77931 0.71096 0.0
O76 O 0.02744 0.87013 0.72615 0.0
O77 O 0.14425 0.75625 0.81186 0.0
O78 O 0.28077 0.77832 0.84855 0.0
O79 O 0.32096 0.91115 0.67541 0.0
O80 O 0.34291 0.89801 0.75313 0.0
C81 C 0.19065 0.75254 0.84943 0.0
C82 C 0.38032 0.92922 0.71146 0.0
O83 O 0.03859 0.73892 0.70682 0.0
Mg84 Mg 0.66967 0.5555 0.67404 0.0
O85 O 0.65191 0.40816 0.69612 0.0
O86 O 0.51307 0.29473 0.66052 0.0
Mg87 Mg 0.45318 0.36454 0.60762 0.0
C88 C 0.58541 0.31969 0.68933 0.0
C89 C 0.88184 0.72698 0.69787 0.0
O90 O 0.8409 0.77687 0.6827 0.0
O91 O 0.72407 0.54616 0.59695 0.0
O92 O 0.58752 0.43175 0.56025 0.0
O93 O 0.54739 0.52435 0.73342 0.0
O94 O 0.52543 0.48925 0.6557 0.0
C95 C 0.67763 0.49609 0.55937 0.0
C96 C 0.48803 0.48306 0.69737 0.0
O97 O 0.82976 0.63449 0.70199 0.0
Mg98 Mg 0.07029 0.69161 1.00738 0.0
O99 O 0.19989 0.67385 1.02946 0.0
O100 O 0.17447 0.53502 0.99386 0.0
Mg101 Mg 0.04476 0.47512 0.94095 0.0
C102 C 0.22184 0.60735 1.02267 0.0
C103 C 0.11098 0.90376 1.03121 0.0
O104 O 0.02013 0.86281 1.01605 0.0
O105 O 0.13402 0.746 0.93029 0.0
O106 O 0.11189 0.60946 0.89359 0.0
O107 O -0.02084 0.56933 0.06676 0.0
O108 O -0.0077 0.54737 0.98904 0.0
C109 C 0.13765 0.69956 0.89271 0.0
C110 C -0.03891 0.50997 1.03071 0.0
O111 O 0.1514 0.8517 1.03532 0.0
Mg112 Mg 0.33478 0.09222 0.34071 0.0
O113 O 0.48214 0.22181 0.36279 0.0
O114 O 0.59556 0.19641 0.32719 0.0
Mg115 Mg 0.52575 0.0667 0.27428 0.0
C116 C 0.5706 0.24378 0.356 0.0
C117 C 0.16331 0.13292 0.36454 0.0
O118 O 0.11341 0.04207 0.34938 0.0
O119 O 0.34412 0.15595 0.26362 0.0
O120 O 0.45853 0.13382 0.22692 0.0
O121 O 0.36594 0.0011 0.40008 0.0
O122 O 0.40103 0.01422 0.32237 0.0
C123 C 0.39419 0.15958 0.22604 0.0
C124 C 0.40723 -0.01697 0.36404 0.0
O125 O 0.2558 0.17332 0.36865 0.0
Mg126 Mg 0.19868 0.35673 0.67404 0.0
O127 O 0.21644 0.50408 0.69612 0.0
O128 O 0.35529 0.61751 0.66052 0.0
Mg129 Mg 0.41518 0.54769 0.60762 0.0
C130 C 0.28295 0.59254 0.68933 0.0
C131 C -0.01349 0.18526 0.69788 0.0
O132 O 0.02747 0.13536 0.68272 0.0
O133 O 0.14429 0.36607 0.59695 0.0
O134 O 0.28084 0.48049 0.56025 0.0
O135 O 0.32095 0.38787 0.73341 0.0
O136 O 0.34292 0.42297 0.6557 0.0
C137 C 0.19073 0.41615 0.55937 0.0
C138 C 0.38032 0.42917 0.69737 0.0
O139 O 0.03859 0.27774 0.70198 0.0
Mg140 Mg 0.79807 0.22062 1.00738 0.0
O141 O 0.66848 0.23838 1.02946 0.0
O142 O 0.6939 0.37722 0.99386 0.0
Mg143 Mg 0.82361 0.43711 0.94095 0.0
C144 C 0.64652 0.30488 1.02267 0.0
C145 C 0.75739 0.00847 1.03121 0.0
O146 O 0.84824 0.04943 1.01606 0.0
O147 O 0.73434 0.16623 0.93028 0.0
O148 O 0.75648 0.30278 0.89359 0.0
O149 O 0.8892 0.3429 0.06675 0.0
O150 O 0.87607 0.36486 0.98904 0.0
C151 C 0.73071 0.21267 0.89271 0.0
C152 C 0.90728 0.40226 1.03071 0.0
O153 O 0.71697 0.06053 1.03532 0.0
Mg154 Mg 0.53359 0.82003 0.34071 0.0
O155 O 0.38623 0.69043 0.36279 0.0
O156 O 0.2728 0.71584 0.32719 0.0
Mg157 Mg 0.34262 0.84554 0.27428 0.0
C158 C 0.29777 0.66847 0.356 0.0
C159 C 0.70506 0.77933 0.36454 0.0
O160 O 0.75496 0.87017 0.34938 0.0
O161 O 0.52425 0.7563 0.26362 0.0
O162 O 0.40983 0.77842 0.22692 0.0
O163 O 0.50243 0.91115 0.40008 0.0
O164 O 0.46734 0.89802 0.32237 0.0
C165 C 0.47417 0.75266 0.22604 0.0
C166 C 0.46114 0.92922 0.36404 0.0
O167 O 0.61257 0.73892 0.36866 0.0
loop_
_geom_bond_atom_site_label_1
_geom_bond_atom_site_label_2
_geom_bond_distance
_geom_bond_site_symmetry_2
_ccdc_geom_bond_type
Mg0 O1 2.028 . S
Mg0 O7 1.986 . S
Mg0 O9 2.114 . S
Mg0 O10 2.251 . S
Mg0 O13 2.010 . S
O1 Mg0 2.028 . S
O1 C4 1.250 . S
O2 Mg3 2.028 . S
O2 C4 1.248 . S
Mg3 O2 2.028 . S
Mg3 O8 2.032 . S
Mg3 O10 2.079 . S
C4 O1 1.250 . S
C4 O2 1.248 . S
C5 O6 1.264 . S
C5 O13 1.249 . S
O6 C5 1.264 . S
O7 Mg0 1.986 . S
O7 C11 1.246 . S
O8 Mg3 2.032 . S
O8 C11 1.259 . S
O9 Mg0 2.114 . S
O9 C12 1.252 . S
O10 Mg0 2.251 . S
O10 Mg3 2.079 . S
O10 C12 1.273 . S
C11 O7 1.246 . S
C11 O8 1.259 . S
C12 O9 1.252 . S
C12 O10 1.273 . S
O13 Mg0 2.010 . S
O13 C5 1.249 . S
Mg14 O15 2.028 . S
Mg14 O21 1.986 . S
Mg14 O23 2.114 . S
Mg14 O24 2.251 . S
Mg14 O27 2.010 . S
O15 Mg14 2.028 . S
O15 C18 1.250 . S
O16 Mg17 2.028 . S
O16 C18 1.248 . S
Mg17 O16 2.028 . S
Mg17 O22 2.032 . S
Mg17 O24 2.079 . S
C18 O15 1.250 . S
C18 O16 1.248 . S
C19 O20 1.264 . S
C19 O27 1.249 . S
O20 C19 1.264 . S
O21 Mg14 1.986 . S
O21 C25 1.246 . S
O22 Mg17 2.032 . S
O22 C25 1.259 . S
O23 Mg14 2.114 . S
O23 C26 1.252 . S
O24 Mg14 2.251 . S
O24 Mg17 2.079 . S
O24 C26 1.273 . S
C25 O21 1.246 . S
C25 O22 1.259 . S
C26 O23 1.252 . S
C26 O24 1.273 . S
O27 Mg14 2.010 . S
O27 C19 1.249 . S
Mg28 O29 2.028 . S
Mg28 O35 1.986 . S
Mg28 O37 2.114 . S
Mg28 O38 2.251 . S
Mg28 O41 2.010 . S
O29 Mg28 2.028 . S
O29 C32 1.250 . S
O30 Mg31 2.028 . S
O30 C32 1.248 . S
Mg31 O30 2.028 . S
Mg31 O36 2.032 . S
Mg31 O38 2.079 . S
C32 O29 1.250 . S
C32 O30 1.248 . S
C33 O34 1.264 . S
C33 O41 1.249 . S
O34 C33 1.264 . S
O35 Mg28 1.986 . S
O35 C39 1.246 . S
O36 Mg31 2.032 . S
O36 C39 1.259 . S
O37 Mg28 2.114 . S
O37 C40 1.252 . S
O38 Mg28 2.251 . S
O38 Mg31 2.079 . S
O38 C40 1.273 . S
C39 O35 1.246 . S
C39 O36 1.259 . S
C40 O37 1.252 . S
C40 O38 1.273 . S
O41 Mg28 2.010 . S
O41 C33 1.249 . S
Mg42 O43 2.028 . S
Mg42 O49 1.986 . S
Mg42 O51 2.114 . S
Mg42 O52 2.251 . S
Mg42 O55 2.010 . S
O43 Mg42 2.028 . S
O43 C46 1.250 . S
O44 Mg45 2.028 . S
O44 C46 1.248 . S
Mg45 O44 2.028 . S
Mg45 O50 2.032 . S
Mg45 O52 2.079 . S
C46 O43 1.250 . S
C46 O44 1.248 . S
C47 O48 1.264 . S
C47 O55 1.249 . S
O48 C47 1.264 . S
O49 Mg42 1.986 . S
O49 C53 1.246 . S
O50 Mg45 2.032 . S
O50 C53 1.259 . S
O51 Mg42 2.114 . S
O51 C54 1.252 . S
O52 Mg42 2.251 . S
O52 Mg45 2.079 . S
O52 C54 1.273 . S
C53 O49 1.246 . S
C53 O50 1.259 . S
C54 O51 1.252 . S
C54 O52 1.273 . S
O55 Mg42 2.010 . S
O55 C47 1.249 . S
Mg56 O57 2.028 . S
Mg56 O63 1.986 . S
Mg56 O65 2.114 . S
Mg56 O66 2.251 . S
Mg56 O69 2.010 . S
O57 Mg56 2.028 . S
O57 C60 1.250 . S
O58 Mg59 2.028 . S
O58 C60 1.248 . S
Mg59 O58 2.028 . S
Mg59 O64 2.032 . S
Mg59 O66 2.079 . S
C60 O57 1.250 . S
C60 O58 1.248 . S
C61 O62 1.264 . S
C61 O69 1.249 . S
O62 C61 1.264 . S
O63 Mg56 1.986 . S
O63 C67 1.246 . S
O64 Mg59 2.032 . S
O64 C67 1.259 . S
O65 Mg56 2.114 . S
O65 C68 1.252 . S
O66 Mg56 2.251 . S
O66 Mg59 2.079 . S
O66 C68 1.273 . S
C67 O63 1.246 . S
C67 O64 1.259 . S
C68 O65 1.252 . S
C68 O66 1.273 . S
O69 Mg56 2.010 . S
O69 C61 1.249 . S
Mg70 O71 2.028 . S
Mg70 O77 1.986 . S
Mg70 O79 2.114 . S
Mg70 O80 2.251 . S
Mg70 O83 2.010 . S
O71 Mg70 2.028 . S
O71 C74 1.250 . S
O72 Mg73 2.028 . S
O72 C74 1.248 . S
Mg73 O72 2.028 . S
Mg73 O78 2.032 . S
Mg73 O80 2.079 . S
C74 O71 1.250 . S
C74 O72 1.248 . S
C75 O76 1.264 . S
C75 O83 1.249 . S
O76 C75 1.264 . S
O77 Mg70 1.986 . S
O77 C81 1.246 . S
O78 Mg73 2.032 . S
O78 C81 1.259 . S
O79 Mg70 2.114 . S
O79 C82 1.252 . S
O80 Mg70 2.251 . S
O80 Mg73 2.079 . S
O80 C82 1.273 . S
C81 O77 1.246 . S
C81 O78 1.259 . S
C82 O79 1.252 . S
C82 O80 1.273 . S
O83 Mg70 2.010 . S
O83 C75 1.249 . S
Mg84 O85 2.028 . S
Mg84 O91 1.986 . S
Mg84 O93 2.114 . S
Mg84 O94 2.251 . S
Mg84 O97 2.010 . S
O85 Mg84 2.028 . S
O85 C88 1.250 . S
O86 Mg87 2.028 . S
O86 C88 1.248 . S
Mg87 O86 2.028 . S
Mg87 O92 2.032 . S
Mg87 O94 2.079 . S
C88 O85 1.250 . S
C88 O86 1.248 . S
C89 O90 1.264 . S
C89 O97 1.249 . S
O90 C89 1.264 . S
O91 Mg84 1.986 . S
O91 C95 1.246 . S
O92 Mg87 2.032 . S
O92 C95 1.259 . S
O93 Mg84 2.114 . S
O93 C96 1.252 . S
O94 Mg84 2.251 . S
O94 Mg87 2.079 . S
O94 C96 1.273 . S
C95 O91 1.246 . S
C95 O92 1.259 . S
C96 O93 1.252 . S
C96 O94 1.273 . S
O97 Mg84 2.010 . S
O97 C89 1.249 . S
Mg98 O99 2.028 . S
Mg98 O105 1.986 . S
Mg98 O107 2.114 . S
Mg98 O108 2.251 . S
Mg98 O111 2.010 . S
O99 Mg98 2.028 . S
O99 C102 1.250 . S
O100 Mg101 2.028 . S
O100 C102 1.248 . S
Mg101 O100 2.028 . S
Mg101 O106 2.032 . S
Mg101 O108 2.079 . S
C102 O99 1.250 . S
C102 O100 1.248 . S
C103 O104 1.264 . S
C103 O111 1.249 . S
O104 C103 1.264 . S
O105 Mg98 1.986 . S
O105 C109 1.246 . S
O106 Mg101 2.032 . S
O106 C109 1.259 . S
O107 Mg98 2.114 . S
O107 C110 1.252 . S
O108 Mg98 2.251 . S
O108 Mg101 2.079 . S
O108 C110 1.273 . S
C109 O105 1.246 . S
C109 O106 1.259 . S
C110 O107 1.252 . S
C110 O108 1.273 . S
O111 Mg98 2.010 . S
O111 C103 1.249 . S
Mg112 O113 2.028 . S
Mg112 O119 1.986 . S
Mg112 O121 2.114 . S
Mg112 O122 2.251 . S
Mg112 O125 2.010 . S
O113 Mg112 2.028 . S
O113 C116 1.250 . S
O114 Mg115 2.028 . S
O114 C116 1.248 . S
Mg115 O114 2.028 . S
Mg115 O120 2.032 . S
Mg115 O122 2.079 . S
C116 O113 1.250 . S
C116 O114 1.248 . S
C117 O118 1.264 . S
C117 O125 1.249 . S
O118 C117 1.264 . S
O119 Mg112 1.986 . S
O119 C123 1.246 . S
O120 Mg115 2.032 . S
O120 C123 1.259 . S
O121 Mg112 2.114 . S
O121 C124 1.252 . S
O122 Mg112 2.251 . S
O122 Mg115 2.079 . S
O122 C124 1.273 . S
C123 O119 1.246 . S
C123 O120 1.259 . S
C124 O121 1.252 . S
C124 O122 1.273 . S
O125 Mg112 2.010 . S
O125 C117 1.249 . S
Mg126 O127 2.028 . S
Mg126 O133 1.986 . S
Mg126 O135 2.114 . S
Mg126 O136 2.251 . S
Mg126 O139 2.010 . S
O127 Mg126 2.028 . S
O127 C130 1.250 . S
O128 Mg129 2.028 . S
O128 C130 1.248 . S
Mg129 O128 2.028 . S
Mg129 O134 2.032 . S
Mg129 O136 2.079 . S
C130 O127 1.250 . S
C130 O128 1.248 . S
C131 O132 1.264 . S
C131 O139 1.249 . S
O132 C131 1.264 . S
O133 Mg126 1.986 . S
O133 C137 1.246 . S
O134 Mg129 2.032 . S
O134 C137 1.259 . S
O135 Mg126 2.114 . S
O135 C138 1.252 . S
O136 Mg126 2.251 . S
O136 Mg129 2.079 . S
O136 C138 1.273 . S
C137 O133 1.246 . S
C137 O134 1.259 . S
C138 O135 1.252 . S
C138 O136 1.273 . S
O139 Mg126 2.010 . S
O139 C131 1.249 . S
Mg140 O141 2.028 . S
Mg140 O147 1.986 . S
Mg140 O149 2.114 . S
Mg140 O150 2.251 . S
Mg140 O153 2.010 . S
O141 Mg140 2.028 . S
O141 C144 1.250 . S
O142 Mg143 2.028 . S
O142 C144 1.248 . S
Mg143 O142 2.028 . S
Mg143 O148 2.032 . S
Mg143 O150 2.079 . S
C144 O141 1.250 . S
C144 O142 1.248 . S
C145 O146 1.264 . S
C145 O153 1.249 . S
O146 C145 1.264 . S
O147 Mg140 1.986 . S
O147 C151 1.246 . S
O148 Mg143 2.032 . S
O148 C151 1.259 . S
O149 Mg140 2.114 . S
O149 C152 1.252 . S
O150 Mg140 2.251 . S
O150 Mg143 2.079 . S
O150 C152 1.273 . S
C151 O147 1.246 . S
C151 O148 1.259 . S
C152 O149 1.252 . S
C152 O150 1.273 . S
O153 Mg140 2.010 . S
O153 C145 1.249 . S
Mg154 O155 2.028 . S
Mg154 O161 1.986 . S
Mg154 O163 2.114 . S
Mg154 O164 2.251 . S
Mg154 O167 2.010 . S
O155 Mg154 2.028 . S
O155 C158 1.250 . S
O156 Mg157 2.028 . S
O156 C158 1.248 . S
Mg157 O156 2.028 . S
Mg157 O162 2.032 . S
Mg157 O164 2.079 . S
C158 O155 1.250 . S
C158 O156 1.248 . S
C159 O160 1.264 . S
C159 O167 1.249 . S
O160 C159 1.264 . S
O161 Mg154 1.986 . S
O161 C165 1.246 . S
O162 Mg157 2.032 . S
O162 C165 1.259 . S
O163 Mg154 2.114 . S
O163 C166 1.252 . S
O164 Mg154 2.251 . S
O164 Mg157 2.079 . S
O164 C166 1.273 . S
C165 O161 1.246 . S
C165 O162 1.259 . S
C166 O163 1.252 . S
C166 O164 1.273 . S
O167 Mg154 2.010 . S
O167 C159 1.249 . S
C103 C5 1.002 1_566 S
C19 C117 1.002 . S
C33 C131 1.002 1_655 S
C47 C145 1.002 1_564 S
C159 C61 1.002 . S
C89 C75 1.002 1_655 S
C144 C4 1.432 1_556 S
C18 C158 1.432 . S
C32 C88 1.432 . S
C102 C46 1.432 1_556 S
C116 C60 1.432 . S
C130 C74 1.432 . S
C11 C123 1.569 . S
C25 C137 1.569 . S
C151 C39 1.569 . S
C53 C165 1.569 . S
C95 C67 1.569 . S
C109 C81 1.569 . S
C54 C12 1.605 . S
C68 C26 1.605 1_655 S
C40 C82 1.605 1_545 S
C96 C138 1.605 . S
C110 C152 1.605 1_455 S
C166 C124 1.605 1_565 S
