# Generated by pormake.
# Topology npo, (4)-cn, num edge types: 1
# Building blocks:
#     Node 0, Type 0, BuildingBlock: AZAVOO_clean_sbu_0, # of connection points: 4
#     Node 1, Type 0, BuildingBlock: AZAVOO_clean_sbu_0, # of connection points: 4
#     Node 2, Type 0, BuildingBlock: AZAVOO_clean_sbu_0, # of connection points: 4
#     Node 3, Type 0, BuildingBlock: AZAVOO_clean_sbu_0, # of connection points: 4
#     Node 4, Type 0, BuildingBlock: AZAVOO_clean_sbu_0, # of connection points: 4
#     Node 5, Type 0, BuildingBlock: AZAVOO_clean_sbu_0, # of connection points: 4
#     Edge 6, Type (0, 0), None
#     Edge 7, Type (0, 0), None
#     Edge 8, Type (0, 0), None
#     Edge 9, Type (0, 0), None
#     Edge 10, Type (0, 0), None
#     Edge 11, Type (0, 0), None
#     Edge 12, Type (0, 0), None
#     Edge 13, Type (0, 0), None
#     Edge 14, Type (0, 0), None
#     Edge 15, Type (0, 0), None
#     Edge 16, Type (0, 0), None
#     Edge 17, Type (0, 0), None
# Relax obj value: 0.258
# Max RMSD: 0.280
# Mean RMSD: 0.237
data_MOF--net-npo--node1-AZAVOO_clean_sbu_0--edge1-none
_symmetry_space_group_name_H-M    P1
_symmetry_Int_Tables_number       1
_symmetry_cell_setting            triclinic
loop_
_symmetry_equiv_pos_as_xyz
'x, y, z'
_cell_length_a     21.526151
_cell_length_b     18.576213
_cell_length_c     12.081678
_cell_angle_alpha  89.994037
_cell_angle_beta   90.007394
_cell_angle_gamma 134.2989
loop_
_atom_site_label
_atom_site_type_symbol
_atom_site_fract_x
_atom_site_fract_y
_atom_site_fract_z
_atom_type_partial_charge
Mg0 Mg 0.48598 0.09032 0.27174 0.0
O1 O 0.63142 0.19593 0.2408 0.0
O2 O 0.66736 0.10911 0.262 0.0
Mg3 Mg 0.54585 0.95136 0.32489 0.0
C4 C 0.68634 0.1891 0.23532 0.0
C5 C 0.4365 0.20592 0.26046 0.0
O6 O 0.37699 0.12822 0.32367 0.0
O7 O 0.46451 0.01958 0.10286 0.0
O8 O 0.49118 0.92665 0.15122 0.0
O9 O 0.50499 0.12802 0.44861 0.0
O10 O 0.4856 0.00266 0.38266 0.0
C11 C 0.46759 0.95482 0.08049 0.0
C12 C 0.49904 0.0549 0.46658 0.0
O13 O 0.49055 0.20938 0.21022 0.0
Mg14 Mg 0.36836 0.4328 0.73476 0.0
O15 O 0.43381 0.5963 0.74213 0.0
O16 O 0.57295 0.69526 0.79065 0.0
Mg17 Mg 0.59763 0.5941 0.81013 0.0
C18 C 0.50887 0.68282 0.76212 0.0
C19 C 0.20638 0.39709 0.72689 0.0
O20 O 0.22957 0.42056 0.83109 0.0
O21 O 0.43445 0.4698 0.56689 0.0
O22 O 0.57094 0.56015 0.62336 0.0
O23 O 0.33742 0.40922 0.91416 0.0
O24 O 0.46004 0.46486 0.84809 0.0
C25 C 0.51382 0.51885 0.54695 0.0
C26 C 0.4132 0.44367 0.9326 0.0
O27 O 0.25001 0.39293 0.66096 0.0
Mg28 Mg 0.9212 0.52666 0.17143 0.0
O29 O 0.79748 0.36172 0.19479 0.0
O30 O 0.82614 0.26805 0.17074 0.0
Mg31 Mg 0.96789 0.37524 0.11078 0.0
C32 C 0.77468 0.27742 0.19743 0.0
C33 C 0.81702 0.58458 0.18468 0.0
O34 O 0.83384 0.59677 0.07828 0.0
O35 O 0.96651 0.51832 0.33848 0.0
O36 O 0.00448 0.43719 0.28796 0.0
O37 O 0.89525 0.52175 -0.00663 0.0
O38 O 0.97064 0.49087 0.05801 0.0
C39 C -0.00126 0.48258 0.36019 0.0
C40 C 0.93726 0.49692 0.97447 0.0
O41 O 0.84927 0.56291 0.24818 0.0
Mg42 Mg 0.47066 0.88591 0.77177 0.0
O43 O 0.32522 0.78032 0.74082 0.0
O44 O 0.28929 0.86716 0.76197 0.0
Mg45 Mg 0.41082 0.0249 0.82485 0.0
C46 C 0.2703 0.78716 0.73531 0.0
C47 C 0.52012 0.7703 0.76048 0.0
O48 O 0.57966 0.848 0.82367 0.0
O49 O 0.49213 0.95665 0.60287 0.0
O50 O 0.4655 0.04963 0.6512 0.0
O51 O 0.45165 0.8482 0.94865 0.0
O52 O 0.47106 0.97358 0.88266 0.0
C53 C 0.4891 0.02144 0.5805 0.0
C54 C 0.45764 0.92136 0.96658 0.0
O55 O 0.46606 0.76683 0.71026 0.0
Mg56 Mg 0.58826 0.54341 0.23478 0.0
O57 O 0.52281 0.37991 0.24214 0.0
O58 O 0.38367 0.28094 0.29064 0.0
Mg59 Mg 0.35899 0.3821 0.31011 0.0
C60 C 0.44774 0.29339 0.2621 0.0
C61 C 0.75026 0.57917 0.2269 0.0
O62 O 0.72715 0.55576 0.33112 0.0
O63 O 0.52216 0.50642 0.0669 0.0
O64 O 0.38567 0.41605 0.12335 0.0
O65 O 0.61919 0.56697 0.4142 0.0
O66 O 0.49658 0.51135 0.34809 0.0
C67 C 0.44281 0.45737 0.04694 0.0
C68 C 0.5434 0.53252 0.43261 0.0
O69 O 0.70659 0.58328 0.16098 0.0
Mg70 Mg 0.03544 0.4496 0.67146 0.0
O71 O 0.15915 0.61453 0.69481 0.0
O72 O 0.1305 0.7082 0.67073 0.0
Mg73 Mg -0.01127 0.60101 0.61075 0.0
C74 C 0.18196 0.69884 0.69743 0.0
C75 C 0.13959 0.39164 0.68471 0.0
O76 O 0.12271 0.3794 0.57831 0.0
O77 O -0.00987 0.45793 0.83849 0.0
O78 O 0.95214 0.53904 0.78793 0.0
O79 O 0.06138 0.4545 0.49341 0.0
O80 O -0.01402 0.48538 0.55802 0.0
C81 C 0.95786 0.49365 0.86016 0.0
C82 C 0.01936 0.4793 0.47449 0.0
O83 O 0.10739 0.41336 0.74821 0.0
loop_
_geom_bond_atom_site_label_1
_geom_bond_atom_site_label_2
_geom_bond_distance
_geom_bond_site_symmetry_2
_ccdc_geom_bond_type
Mg0 O1 2.028 . S
Mg0 O7 1.986 . S
Mg0 O9 2.114 . S
Mg0 O10 2.251 . S
Mg0 O13 2.010 . S
O1 Mg0 2.028 . S
O1 C4 1.250 . S
O2 Mg3 2.028 . S
O2 C4 1.248 . S
Mg3 O2 2.028 . S
Mg3 O8 2.032 1_545 S
Mg3 O10 2.079 . S
C4 O1 1.250 . S
C4 O2 1.248 . S
C5 O6 1.264 . S
C5 O13 1.249 . S
O6 C5 1.264 . S
O7 Mg0 1.986 . S
O7 C11 1.246 . S
O8 Mg3 2.032 1_565 S
O8 C11 1.259 1_565 S
O9 Mg0 2.114 . S
O9 C12 1.252 . S
O10 Mg0 2.251 . S
O10 Mg3 2.079 . S
O10 C12 1.273 . S
C11 O7 1.246 . S
C11 O8 1.259 1_545 S
C12 O9 1.252 . S
C12 O10 1.273 . S
O13 Mg0 2.010 . S
O13 C5 1.249 . S
Mg14 O15 2.028 . S
Mg14 O21 1.986 . S
Mg14 O23 2.114 . S
Mg14 O24 2.251 . S
Mg14 O27 2.010 . S
O15 Mg14 2.028 . S
O15 C18 1.250 . S
O16 Mg17 2.028 . S
O16 C18 1.248 . S
Mg17 O16 2.028 . S
Mg17 O22 2.032 . S
Mg17 O24 2.079 . S
C18 O15 1.250 . S
C18 O16 1.248 . S
C19 O20 1.264 . S
C19 O27 1.249 . S
O20 C19 1.264 . S
O21 Mg14 1.986 . S
O21 C25 1.246 . S
O22 Mg17 2.032 . S
O22 C25 1.259 . S
O23 Mg14 2.114 . S
O23 C26 1.252 . S
O24 Mg14 2.251 . S
O24 Mg17 2.079 . S
O24 C26 1.273 . S
C25 O21 1.246 . S
C25 O22 1.259 . S
C26 O23 1.252 . S
C26 O24 1.273 . S
O27 Mg14 2.010 . S
O27 C19 1.249 . S
Mg28 O29 2.028 . S
Mg28 O35 1.986 . S
Mg28 O37 2.114 . S
Mg28 O38 2.252 . S
Mg28 O41 2.010 . S
O29 Mg28 2.028 . S
O29 C32 1.250 . S
O30 Mg31 2.028 . S
O30 C32 1.248 . S
Mg31 O30 2.028 . S
Mg31 O36 2.032 . S
Mg31 O38 2.078 . S
C32 O29 1.250 . S
C32 O30 1.248 . S
C33 O34 1.264 . S
C33 O41 1.249 . S
O34 C33 1.264 . S
O35 Mg28 1.986 . S
O35 C39 1.246 1_655 S
O36 Mg31 2.032 . S
O36 C39 1.259 1_655 S
O37 Mg28 2.114 . S
O37 C40 1.252 . S
O38 Mg28 2.252 . S
O38 Mg31 2.078 . S
O38 C40 1.273 . S
C39 O35 1.246 1_455 S
C39 O36 1.259 1_455 S
C40 O37 1.252 . S
C40 O38 1.273 . S
O41 Mg28 2.010 . S
O41 C33 1.249 . S
Mg42 O43 2.028 . S
Mg42 O49 1.986 . S
Mg42 O51 2.114 . S
Mg42 O52 2.251 . S
Mg42 O55 2.010 . S
O43 Mg42 2.028 . S
O43 C46 1.250 . S
O44 Mg45 2.028 . S
O44 C46 1.248 . S
Mg45 O44 2.028 . S
Mg45 O50 2.032 1_565 S
Mg45 O52 2.079 . S
C46 O43 1.250 . S
C46 O44 1.248 . S
C47 O48 1.264 . S
C47 O55 1.249 . S
O48 C47 1.264 . S
O49 Mg42 1.986 . S
O49 C53 1.246 . S
O50 Mg45 2.032 1_545 S
O50 C53 1.259 1_545 S
O51 Mg42 2.114 . S
O51 C54 1.252 . S
O52 Mg42 2.251 . S
O52 Mg45 2.079 . S
O52 C54 1.273 . S
C53 O49 1.246 . S
C53 O50 1.259 1_565 S
C54 O51 1.252 . S
C54 O52 1.273 . S
O55 Mg42 2.010 . S
O55 C47 1.249 . S
Mg56 O57 2.028 . S
Mg56 O63 1.986 . S
Mg56 O65 2.114 . S
Mg56 O66 2.251 . S
Mg56 O69 2.010 . S
O57 Mg56 2.028 . S
O57 C60 1.250 . S
O58 Mg59 2.028 . S
O58 C60 1.248 . S
Mg59 O58 2.028 . S
Mg59 O64 2.032 . S
Mg59 O66 2.079 . S
C60 O57 1.250 . S
C60 O58 1.248 . S
C61 O62 1.264 . S
C61 O69 1.249 . S
O62 C61 1.264 . S
O63 Mg56 1.986 . S
O63 C67 1.246 . S
O64 Mg59 2.032 . S
O64 C67 1.259 . S
O65 Mg56 2.114 . S
O65 C68 1.252 . S
O66 Mg56 2.251 . S
O66 Mg59 2.079 . S
O66 C68 1.273 . S
C67 O63 1.246 . S
C67 O64 1.259 . S
C68 O65 1.252 . S
C68 O66 1.273 . S
O69 Mg56 2.010 . S
O69 C61 1.249 . S
Mg70 O71 2.028 . S
Mg70 O77 1.986 . S
Mg70 O79 2.114 . S
Mg70 O80 2.252 . S
Mg70 O83 2.010 . S
O71 Mg70 2.028 . S
O71 C74 1.250 . S
O72 Mg73 2.028 . S
O72 C74 1.248 . S
Mg73 O72 2.028 . S
Mg73 O78 2.032 . S
Mg73 O80 2.079 . S
C74 O71 1.250 . S
C74 O72 1.248 . S
C75 O76 1.264 . S
C75 O83 1.249 . S
O76 C75 1.264 . S
O77 Mg70 1.986 . S
O77 C81 1.246 1_455 S
O78 Mg73 2.032 . S
O78 C81 1.259 1_455 S
O79 Mg70 2.114 . S
O79 C82 1.252 . S
O80 Mg70 2.252 . S
O80 Mg73 2.079 . S
O80 C82 1.273 . S
C81 O77 1.246 1_655 S
C81 O78 1.259 1_655 S
C82 O79 1.252 . S
C82 O80 1.273 . S
O83 Mg70 2.010 . S
O83 C75 1.249 . S
C5 C60 1.369 . S
C19 C75 1.468 . S
C4 C32 1.337 . S
C47 C18 1.369 . S
C61 C33 1.468 . S
C46 C74 1.337 . S
C54 C11 1.429 1_566 S
C68 C25 1.588 . S
C81 C40 1.514 1_556 S
C12 C53 1.429 1_545 S
C26 C67 1.588 1_556 S
C82 C39 1.514 . S
