# Generated by pormake.
# Topology bnn, (5)-cn, num edge types: 1
# Building blocks:
#     Node 0, Type 0, BuildingBlock: XOMCOT_clean_sbu_1, # of connection points: 5
#     Node 1, Type 0, BuildingBlock: XOMCOT_clean_sbu_1, # of connection points: 5
#     Edge 2, Type (0, 0), BuildingBlock: AJUNOK_clean_linker_0, # of connection points: 2
#     Edge 3, Type (0, 0), BuildingBlock: AJUNOK_clean_linker_0, # of connection points: 2
#     Edge 4, Type (0, 0), BuildingBlock: AJUNOK_clean_linker_0, # of connection points: 2
#     Edge 5, Type (0, 0), BuildingBlock: AJUNOK_clean_linker_0, # of connection points: 2
#     Edge 6, Type (0, 0), BuildingBlock: AJUNOK_clean_linker_0, # of connection points: 2
# Relax obj value: 0.039
# Max RMSD: 0.098
# Mean RMSD: 0.098
data_MOF--net-bnn--node1-XOMCOT_clean_sbu_1--edge1-AJUNOK_clean_linker_0
_symmetry_space_group_name_H-M    P1
_symmetry_Int_Tables_number       1
_symmetry_cell_setting            triclinic
loop_
_symmetry_equiv_pos_as_xyz
'x, y, z'
_cell_length_a     23.892043
_cell_length_b     19.922293
_cell_length_c     13.523488
_cell_angle_alpha  96.513239
_cell_angle_beta   90.105259
_cell_angle_gamma 127.23466
loop_
_atom_site_label
_atom_site_type_symbol
_atom_site_fract_x
_atom_site_fract_y
_atom_site_fract_z
_atom_type_partial_charge
C0 C 0.31821 0.6232 0.89806 0.0
C1 C 0.31832 0.62243 0.79619 0.0
N2 N 0.32099 0.68869 0.77515 0.0
N3 N 0.32212 0.69065 0.94093 0.0
C4 C 0.32325 0.72896 0.86396 0.0
H5 H 0.31462 0.57687 0.93795 0.0
Co6 Co 0.32147 0.72171 0.07597 0.0
C7 C 0.43808 0.90805 0.11366 0.0
O8 O 0.45793 0.89767 0.19762 0.0
N9 N 0.31895 0.75334 0.2124 0.0
C10 C 0.30712 0.81813 0.34718 0.0
C11 C 0.30816 0.81108 0.24499 0.0
C12 C 0.32257 0.72486 0.29666 0.0
N13 N 0.3158 0.76328 0.37945 0.0
O14 O 0.24018 0.71432 0.04497 0.0
H15 H 0.30194 0.84659 0.19724 0.0
H16 H 0.32844 0.67555 0.29875 0.0
O17 O 0.38536 0.84295 0.05753 0.0
C18 C 0.18847 0.63523 0.03768 0.0
O19 O 0.20142 0.58192 0.05446 0.0
N20 N 0.39486 0.71615 0.10422 0.0
C21 C 0.47317 0.65488 0.10417 0.0
C22 C 0.50103 0.73307 0.07095 0.0
C23 C 0.46038 0.76222 0.07011 0.0
C24 C 0.36777 0.6405 0.1368 0.0
C25 C 0.4067 0.6101 0.14059 0.0
H26 H 0.47926 0.8174 0.03454 0.0
H27 H 0.31316 0.60001 0.15292 0.0
H28 H 0.32565 0.78534 0.87291 0.0
H29 H 0.31505 0.57578 0.74155 0.0
H30 H 0.30163 0.86135 0.3938 0.0
H31 H 0.55167 0.76845 0.03997 0.0
H32 H 0.3833 0.5497 0.16706 0.0
C33 C 0.77412 0.52963 0.19609 0.0
C34 C 0.77521 0.53467 0.29828 0.0
N35 N 0.70992 0.47307 0.32193 0.0
N36 N 0.7088 0.46388 0.15484 0.0
C37 C 0.67087 0.43071 0.2335 0.0
H38 H 0.81823 0.57224 0.15503 0.0
Co39 Co 0.67612 0.43188 1.01935 0.0
C40 C 0.6008 0.24364 0.98291 0.0
O41 O 0.62298 0.24884 0.89326 0.0
N42 N 0.64142 0.40041 0.88287 0.0
C43 C 0.56491 0.34198 0.74718 0.0
C44 C 0.57229 0.34499 0.84896 0.0
C45 C 0.67458 0.43147 0.80001 0.0
N46 N 0.62943 0.39724 0.71711 0.0
O47 O 0.60201 0.43841 0.04994 0.0
H48 H 0.52962 0.30959 0.89572 0.0
H49 H 0.73063 0.47879 0.79885 0.0
O50 O 0.61864 0.31108 0.03931 0.0
C51 C 0.62821 0.51685 0.05674 0.0
O52 O 0.69556 0.57253 0.04473 0.0
N53 N 0.75496 0.43738 0.99047 0.0
C54 C 0.89376 0.49447 0.98404 0.0
C55 C 0.84208 0.4158 1.01586 0.0
C56 C 0.77268 0.38856 1.01952 0.0
C57 C 0.80484 0.51382 0.96008 0.0
C58 C 0.87392 0.54266 0.95405 0.0
H59 H 0.73539 0.33219 0.05285 0.0
H60 H 0.79187 0.55569 0.94693 0.0
H61 H 0.61507 0.37797 0.22598 0.0
H62 H 0.82094 0.57985 0.35077 0.0
H63 H 0.51595 0.30421 0.69952 0.0
H64 H 0.85603 0.37834 0.04357 0.0
H65 H 0.91226 0.60423 0.9306 0.0
C66 C 0.58258 0.66643 0.12765 0.0
C67 C 0.51073 0.61686 0.09448 0.0
C68 C 0.61935 0.63226 0.11765 0.0
C69 C 0.5856 0.54717 0.07455 0.0
H70 H 0.6106 0.73213 0.16155 0.0
H71 H 0.67496 0.67321 0.14339 0.0
S72 S 0.39893 0.39183 0.97107 0.0
N73 N 0.40762 0.47912 1.01288 0.0
N74 N 0.4768 0.4146 0.99655 0.0
C75 C 0.51365 0.49652 0.04191 0.0
C76 C 0.47623 0.53151 0.0511 0.0
C77 C 0.02087 0.61582 0.03555 0.0
C78 C 0.96938 0.53075 0.99095 0.0
C79 C 0.09247 0.65097 0.04661 0.0
C80 C 0.11484 0.6019 1.01444 0.0
H81 H 1.00552 0.65493 0.06469 0.0
H82 H 0.13001 0.71569 0.08405 0.0
S83 S 1.00255 0.37962 0.88284 0.0
N84 N 0.94683 0.40124 0.90668 0.0
N85 N 0.08112 0.46644 0.92897 0.0
C86 C 0.06434 0.51784 0.96671 0.0
C87 C 0.99165 0.48238 0.95482 0.0
C88 C 0.47038 1.00408 0.98341 0.0
C89 C 0.47848 0.9946 0.08292 0.0
C90 C 0.50987 0.08484 0.95205 0.0
C91 C 0.55797 0.1596 1.01926 0.0
H92 H 0.43418 0.94863 0.92863 0.0
H93 H 0.50246 0.08876 0.87443 0.0
S94 S 0.60014 0.17056 0.2873 0.0
N95 N 0.53959 1.06796 0.24827 0.0
N96 N 0.61243 0.2191 0.18931 0.0
C97 C 0.5661 0.15138 0.11903 0.0
C98 C 0.52681 1.06913 0.15076 0.0
C99 C 0.36157 0.70669 0.60631 0.0
C100 C 0.32065 0.71066 0.6776 0.0
C101 C 0.36056 0.7254 0.50987 0.0
C102 C 0.31796 0.74791 0.48065 0.0
H103 H 0.39497 0.68951 0.62567 0.0
H104 H 0.39364 0.72248 0.45784 0.0
S105 S 0.19715 0.76136 0.63848 0.0
N106 N 0.23468 0.73584 0.71243 0.0
N107 N 0.23138 0.76935 0.53047 0.0
C108 C 0.27647 0.7517 0.55146 0.0
C109 C 0.27811 0.7334 0.65006 0.0
C110 C 0.63504 0.37153 0.43839 0.0
C111 C 0.68697 0.45572 0.42079 0.0
C112 C 0.6154 0.35278 0.5351 0.0
C113 C 0.64694 0.41768 0.6176 0.0
H114 H 0.61059 0.3196 0.37733 0.0
H115 H 0.57669 0.28697 0.54591 0.0
S116 S 0.77574 0.64963 0.60996 0.0
N117 N 0.76257 0.6054 0.49295 0.0
N118 N 0.72605 0.56992 0.67432 0.0
C119 C 0.69625 0.50237 0.60058 0.0
C120 C 0.71612 0.52149 0.50231 0.0
loop_
_geom_bond_atom_site_label_1
_geom_bond_atom_site_label_2
_geom_bond_distance
_geom_bond_site_symmetry_2
_ccdc_geom_bond_type
C0 C1 1.351 . S
C0 N3 1.368 . S
C0 H5 0.931 . S
C1 C0 1.351 . S
C1 N2 1.373 . S
C1 H29 0.930 . S
N2 C1 1.373 . S
N2 C4 1.340 . S
N3 C0 1.368 . S
N3 C4 1.321 . S
N3 Co6 2.135 1_556 S
C4 N2 1.340 . S
C4 N3 1.321 . S
C4 H28 0.930 . S
H5 C0 0.931 . S
Co6 N3 2.135 1_554 S
Co6 N9 2.121 . S
Co6 O14 2.055 . S
Co6 O17 2.039 . S
Co6 N20 2.140 . S
C7 O8 1.227 1_554 S
C7 O17 1.265 . S
O8 C7 1.227 1_556 S
N9 Co6 2.121 . S
N9 C11 1.375 . S
N9 C12 1.313 . S
C10 C11 1.338 . S
C10 N13 1.377 . S
C10 H30 0.930 . S
C11 N9 1.375 . S
C11 C10 1.338 . S
C11 H15 0.931 . S
C12 N9 1.313 . S
C12 N13 1.344 . S
C12 H16 0.930 . S
N13 C10 1.377 . S
N13 C12 1.344 . S
O14 Co6 2.055 . S
O14 C18 1.253 . S
H15 C11 0.931 . S
H16 C12 0.930 . S
O17 Co6 2.039 . S
O17 C7 1.265 . S
C18 O14 1.253 . S
C18 O19 1.227 . S
O19 C18 1.227 . S
N20 Co6 2.140 . S
N20 C23 1.346 1_554 S
N20 C24 1.345 . S
C21 C22 1.387 . S
C21 C25 1.391 1_556 S
C22 C21 1.387 . S
C22 C23 1.369 . S
C22 H31 0.929 . S
C23 N20 1.346 1_556 S
C23 C22 1.369 . S
C23 H26 0.928 . S
C24 N20 1.345 . S
C24 C25 1.371 . S
C24 H27 0.931 . S
C25 C21 1.391 1_554 S
C25 C24 1.371 . S
C25 H32 0.930 . S
H26 C23 0.928 . S
H27 C24 0.931 . S
H28 C4 0.930 . S
H29 C1 0.930 . S
H30 C10 0.930 . S
H31 C22 0.929 . S
H32 C25 0.930 . S
C33 C34 1.351 . S
C33 N36 1.368 . S
C33 H38 0.931 . S
C34 C33 1.351 . S
C34 N35 1.373 . S
C34 H62 0.930 . S
N35 C34 1.373 . S
N35 C37 1.340 . S
N36 C33 1.368 . S
N36 C37 1.321 . S
N36 Co39 2.135 . S
C37 N35 1.340 . S
C37 N36 1.321 . S
C37 H61 0.930 . S
H38 C33 0.931 . S
Co39 N36 2.135 . S
Co39 N42 2.121 1_554 S
Co39 O47 2.055 . S
Co39 O50 2.039 . S
Co39 N53 2.140 . S
C40 O41 1.227 . S
C40 O50 1.265 . S
O41 C40 1.227 . S
N42 Co39 2.121 1_556 S
N42 C44 1.375 . S
N42 C45 1.313 . S
C43 C44 1.338 . S
C43 N46 1.377 . S
C43 H63 0.930 . S
C44 N42 1.375 . S
C44 C43 1.338 . S
C44 H48 0.931 . S
C45 N42 1.313 . S
C45 N46 1.344 . S
C45 H49 0.930 . S
N46 C43 1.377 . S
N46 C45 1.344 . S
O47 Co39 2.055 . S
O47 C51 1.253 1_554 S
H48 C44 0.931 . S
H49 C45 0.930 . S
O50 Co39 2.039 . S
O50 C40 1.265 . S
C51 O47 1.253 1_556 S
C51 O52 1.227 . S
O52 C51 1.227 . S
N53 Co39 2.140 . S
N53 C56 1.346 . S
N53 C57 1.345 1_554 S
C54 C55 1.387 . S
C54 C58 1.391 1_554 S
C55 C54 1.387 . S
C55 C56 1.369 . S
C55 H64 0.929 . S
C56 N53 1.346 . S
C56 C55 1.369 . S
C56 H59 0.928 . S
C57 N53 1.345 1_556 S
C57 C58 1.371 . S
C57 H60 0.931 . S
C58 C54 1.391 1_556 S
C58 C57 1.371 . S
C58 H65 0.930 . S
H59 C56 0.928 . S
H60 C57 0.931 . S
H61 C37 0.930 . S
H62 C34 0.930 . S
H63 C43 0.930 . S
H64 C55 0.929 . S
H65 C58 0.930 . S
C66 C67 1.369 . S
C66 C68 1.419 . S
C66 H70 0.930 . S
C67 C66 1.369 . S
C67 C76 1.429 1_556 S
C68 C66 1.419 . S
C68 C69 1.363 . S
C68 H71 0.929 . S
C69 C68 1.363 . S
C69 C75 1.428 1_556 S
H70 C66 0.930 . S
H71 C68 0.929 . S
S72 N73 1.613 . S
S72 N74 1.610 . S
N73 S72 1.613 . S
N73 C76 1.350 . S
N74 S72 1.610 . S
N74 C75 1.351 . S
C75 C69 1.428 1_554 S
C75 N74 1.351 . S
C75 C76 1.434 . S
C76 C67 1.429 1_554 S
C76 N73 1.350 . S
C76 C75 1.434 . S
C77 C78 1.369 . S
C77 C79 1.419 1_655 S
C77 H81 0.930 . S
C78 C77 1.369 . S
C78 C87 1.429 1_554 S
C79 C77 1.419 1_455 S
C79 C80 1.363 . S
C79 H82 0.929 . S
C80 C79 1.363 . S
C80 C86 1.428 1_554 S
H81 C77 0.930 . S
H82 C79 0.929 . S
S83 N84 1.613 1_455 S
S83 N85 1.610 . S
N84 S83 1.613 1_655 S
N84 C87 1.350 . S
N85 S83 1.610 . S
N85 C86 1.351 . S
C86 C80 1.428 1_556 S
C86 N85 1.351 . S
C86 C87 1.434 1_455 S
C87 C78 1.429 1_556 S
C87 N84 1.350 . S
C87 C86 1.434 1_655 S
C88 C89 1.369 1_556 S
C88 C90 1.419 1_565 S
C88 H92 0.930 . S
C89 C88 1.369 1_554 S
C89 C98 1.429 . S
C90 C88 1.419 1_545 S
C90 C91 1.363 1_556 S
C90 H93 0.929 . S
C91 C90 1.363 1_554 S
C91 C97 1.428 . S
H92 C88 0.930 . S
H93 C90 0.929 . S
S94 N95 1.613 1_545 S
S94 N96 1.610 . S
N95 S94 1.613 1_565 S
N95 C98 1.350 . S
N96 S94 1.610 . S
N96 C97 1.351 . S
C97 C91 1.428 . S
C97 N96 1.351 . S
C97 C98 1.434 1_545 S
C98 C89 1.429 . S
C98 N95 1.350 . S
C98 C97 1.434 1_565 S
C99 C100 1.369 . S
C99 C101 1.419 . S
C99 H103 0.930 . S
C100 C99 1.369 . S
C100 C109 1.429 . S
C101 C99 1.419 . S
C101 C102 1.363 . S
C101 H104 0.929 . S
C102 C101 1.363 . S
C102 C108 1.428 . S
H103 C99 0.930 . S
H104 C101 0.929 . S
S105 N106 1.613 . S
S105 N107 1.610 . S
N106 S105 1.613 . S
N106 C109 1.350 . S
N107 S105 1.610 . S
N107 C108 1.351 . S
C108 C102 1.428 . S
C108 N107 1.351 . S
C108 C109 1.434 . S
C109 C100 1.429 . S
C109 N106 1.350 . S
C109 C108 1.434 . S
C110 C111 1.369 . S
C110 C112 1.419 . S
C110 H114 0.930 . S
C111 C110 1.369 . S
C111 C120 1.429 . S
C112 C110 1.419 . S
C112 C113 1.363 . S
C112 H115 0.929 . S
C113 C112 1.363 . S
C113 C119 1.428 . S
H114 C110 0.930 . S
H115 C112 0.929 . S
S116 N117 1.613 . S
S116 N118 1.610 . S
N117 S116 1.613 . S
N117 C120 1.350 . S
N118 S116 1.610 . S
N118 C119 1.351 . S
C119 C113 1.428 . S
C119 N118 1.351 . S
C119 C120 1.434 . S
C120 C111 1.429 . S
C120 N117 1.350 . S
C120 C119 1.434 . S
C67 C21 1.506 . S
C69 C51 1.508 . S
C78 C54 1.507 . S
C80 C18 1.508 . S
C89 C7 1.498 . S
C91 C40 1.495 . S
C100 N2 1.462 . S
C102 N13 1.471 . S
C111 N35 1.461 . S
C113 N46 1.472 . S
