# Generated by pormake.
# Topology wjh, (4)-cn, num edge types: 1
# Building blocks:
#     Node 0, Type 0, BuildingBlock: NAHDIM_clean_sbu_0, # of connection points: 4
#     Node 1, Type 0, BuildingBlock: NAHDIM_clean_sbu_0, # of connection points: 4
#     Node 2, Type 0, BuildingBlock: NAHDIM_clean_sbu_0, # of connection points: 4
#     Node 3, Type 0, BuildingBlock: NAHDIM_clean_sbu_0, # of connection points: 4
#     Node 4, Type 0, BuildingBlock: NAHDIM_clean_sbu_0, # of connection points: 4
#     Node 5, Type 0, BuildingBlock: NAHDIM_clean_sbu_0, # of connection points: 4
#     Node 6, Type 0, BuildingBlock: NAHDIM_clean_sbu_0, # of connection points: 4
#     Node 7, Type 0, BuildingBlock: NAHDIM_clean_sbu_0, # of connection points: 4
#     Node 8, Type 0, BuildingBlock: NAHDIM_clean_sbu_0, # of connection points: 4
#     Node 9, Type 0, BuildingBlock: NAHDIM_clean_sbu_0, # of connection points: 4
#     Node 10, Type 0, BuildingBlock: NAHDIM_clean_sbu_0, # of connection points: 4
#     Node 11, Type 0, BuildingBlock: NAHDIM_clean_sbu_0, # of connection points: 4
#     Edge 12, Type (0, 0), None
#     Edge 13, Type (0, 0), None
#     Edge 14, Type (0, 0), None
#     Edge 15, Type (0, 0), None
#     Edge 16, Type (0, 0), None
#     Edge 17, Type (0, 0), None
#     Edge 18, Type (0, 0), None
#     Edge 19, Type (0, 0), None
#     Edge 20, Type (0, 0), None
#     Edge 21, Type (0, 0), None
#     Edge 22, Type (0, 0), None
#     Edge 23, Type (0, 0), None
#     Edge 24, Type (0, 0), None
#     Edge 25, Type (0, 0), None
#     Edge 26, Type (0, 0), None
#     Edge 27, Type (0, 0), None
#     Edge 28, Type (0, 0), None
#     Edge 29, Type (0, 0), None
#     Edge 30, Type (0, 0), None
#     Edge 31, Type (0, 0), None
#     Edge 32, Type (0, 0), None
#     Edge 33, Type (0, 0), None
#     Edge 34, Type (0, 0), None
#     Edge 35, Type (0, 0), None
# Relax obj value: 0.144
# Max RMSD: 0.139
# Mean RMSD: 0.139
data_MOF--net-wjh--node1-NAHDIM_clean_sbu_0--edge1-none
_symmetry_space_group_name_H-M    P1
_symmetry_Int_Tables_number       1
_symmetry_cell_setting            triclinic
loop_
_symmetry_equiv_pos_as_xyz
'x, y, z'
_cell_length_a     29.530747
_cell_length_b     29.52818
_cell_length_c     10.260807
_cell_angle_alpha  90.007364
_cell_angle_beta   89.9912
_cell_angle_gamma 119.99074
loop_
_atom_site_label
_atom_site_type_symbol
_atom_site_fract_x
_atom_site_fract_y
_atom_site_fract_z
_atom_type_partial_charge
C0 C 0.5098 0.22894 0.16294 0.0
O1 O 0.55437 0.22929 0.15575 0.0
O2 O 0.50207 0.12169 0.93131 0.0
Zn3 Zn 0.4736 0.12245 0.11314 0.0
O4 O 0.52304 0.12396 0.2489 0.0
C5 C 0.38105 0.02021 0.07154 0.0
O6 O 0.39322 0.02955 0.94753 0.0
O7 O 0.4673 0.18654 0.14284 0.0
C8 C 0.51711 0.08108 0.29241 0.0
O9 O 0.48118 0.03657 0.2425 0.0
C10 C 0.54466 0.12149 0.9119 0.0
O11 O 0.57258 0.12173 1.01168 0.0
O12 O 0.40589 0.05631 0.15391 0.0
C13 C 0.27378 0.51319 0.32924 0.0
O14 O 0.318 0.55775 0.32228 0.0
O15 O 0.37332 0.50541 0.09765 0.0
Zn16 Zn 0.34406 0.47696 0.27946 0.0
O17 O 0.39197 0.52642 0.41524 0.0
C18 C 0.35383 0.38443 0.23805 0.0
O19 O 0.35674 0.39662 0.11404 0.0
O20 O 0.27367 0.47068 0.30903 0.0
C21 C 0.42896 0.52052 0.45862 0.0
O22 O 0.43757 0.48463 0.40857 0.0
C23 C 0.41605 0.54806 0.07826 0.0
O24 O 0.44363 0.57607 0.17805 0.0
O25 O 0.34249 0.40925 0.32034 0.0
C26 C 0.75362 0.27734 0.49652 0.0
O27 O 0.75325 0.32156 0.4896 0.0
O28 O 0.86058 0.37677 0.26431 0.0
Zn29 Zn 0.86005 0.34762 0.44607 0.0
O30 O 0.85863 0.39558 0.58199 0.0
C31 C 0.96232 0.35741 0.40381 0.0
O32 O 0.95297 0.36045 0.27992 0.0
O33 O 0.79601 0.27724 0.47603 0.0
C34 C 0.90151 0.43237 0.62596 0.0
O35 O 0.94604 0.44081 0.57646 0.0
C36 C 0.86119 0.41977 0.24494 0.0
O37 O 0.86162 0.44778 0.34475 0.0
O38 O 0.92622 0.34601 0.48631 0.0
C39 C 0.46933 0.75712 0.66257 0.0
O40 O 0.42477 0.7568 0.65549 0.0
O41 O 0.47715 0.86443 0.43092 0.0
Zn42 Zn 0.50559 0.86362 0.61273 0.0
O43 O 0.45614 0.86212 0.7485 0.0
C44 C 0.59816 0.96586 0.57132 0.0
O45 O 0.586 0.95658 0.4473 0.0
O46 O 0.51185 0.79951 0.64237 0.0
C47 C 0.46206 0.905 0.79198 0.0
O48 O 0.49798 0.94951 0.74203 0.0
C49 C 0.43449 0.8645 0.41154 0.0
O50 O 0.40648 0.86407 0.51134 0.0
O51 O 0.5733 0.92973 0.65361 0.0
C52 C 0.70531 0.4729 0.8299 0.0
O53 O 0.66109 0.42832 0.82299 0.0
O54 O 0.60579 0.48055 0.59796 0.0
Zn55 Zn 0.635 0.50906 0.77978 0.0
O56 O 0.58707 0.45962 0.91557 0.0
C57 C 0.62522 0.60156 0.73808 0.0
O58 O 0.62235 0.58934 0.6141 0.0
O59 O 0.70539 0.51539 0.80951 0.0
C60 C 0.55013 0.46555 0.95913 0.0
O61 O 0.54154 0.50149 0.90924 0.0
C62 C 0.563 0.43798 0.57857 0.0
O63 O 0.53529 0.4101 0.67836 0.0
O64 O 0.63653 0.57677 0.82047 0.0
C65 C 0.2255 0.7088 0.99567 0.0
O66 O 0.22583 0.66456 0.98855 0.0
O67 O 0.11836 0.60939 0.76371 0.0
Zn68 Zn 0.11903 0.63859 0.94553 0.0
O69 O 0.12048 0.59062 0.08133 0.0
C70 C 0.01677 0.62884 0.9038 0.0
O71 O 0.02604 0.62577 0.77986 0.0
O72 O 0.18312 0.70893 0.97538 0.0
C73 C 0.0776 0.55379 0.12517 0.0
O74 O 0.03308 0.54532 0.07559 0.0
C75 C 0.11798 0.5665 0.74431 0.0
O76 O 0.11793 0.53868 0.84409 0.0
O77 O 0.05292 0.64024 0.98613 0.0
C78 C 0.75376 0.47292 0.86085 0.0
O79 O 0.75342 0.42835 0.86808 0.0
O80 O 0.86128 0.48083 0.09197 0.0
Zn81 Zn 0.86027 0.50915 0.91012 0.0
O82 O 0.85863 0.4596 0.77446 0.0
C83 C 0.96251 0.6018 0.95093 0.0
O84 O 0.95326 0.58989 0.07508 0.0
O85 O 0.79617 0.51544 0.88076 0.0
C86 C 0.90149 0.46534 0.73142 0.0
O87 O 0.94599 0.50111 0.78177 0.0
C88 C 0.86089 0.43795 0.11137 0.0
O89 O 0.85976 0.40958 1.0116 0.0
O90 O 0.92638 0.57679 0.86875 0.0
C91 C 0.27393 0.7572 0.02681 0.0
O92 O 0.31813 0.75682 0.03397 0.0
O93 O 0.37342 0.86439 0.25859 0.0
Zn94 Zn 0.34421 0.86367 0.07678 0.0
O95 O 0.39214 0.86215 0.94099 0.0
C96 C 0.35389 0.96593 0.11847 0.0
O97 O 0.35672 0.95661 0.24249 0.0
O98 O 0.27384 0.79962 0.047 0.0
C99 C 0.42909 0.90502 0.89744 0.0
O100 O 0.43767 0.94954 0.94732 0.0
C101 C 0.41619 0.86455 0.27796 0.0
O102 O 0.44385 0.86428 0.17816 0.0
O103 O 0.34266 0.92983 0.03607 0.0
C104 C 0.50981 0.27738 0.19394 0.0
O105 O 0.55438 0.3216 0.20096 0.0
O106 O 0.50202 0.37694 0.4256 0.0
Zn107 Zn 0.47359 0.34768 0.24377 0.0
O108 O 0.52306 0.3956 0.10802 0.0
C109 C 0.38097 0.35731 0.28513 0.0
O110 O 0.39305 0.36013 0.4092 0.0
O111 O 0.46731 0.27729 0.21416 0.0
C112 C 0.51716 0.43257 0.06457 0.0
O113 O 0.48124 0.44118 0.11455 0.0
C114 C 0.5447 0.41962 0.44499 0.0
O115 O 0.57276 0.44715 0.3452 0.0
O116 O 0.40589 0.3461 0.20284 0.0
C117 C 0.22534 0.51321 0.3601 0.0
O118 O 0.22571 0.55779 0.36731 0.0
O119 O 0.11796 0.50547 0.5913 0.0
Zn120 Zn 0.11884 0.47707 0.40947 0.0
O121 O 0.12047 0.52658 0.27376 0.0
C122 C 0.0166 0.38446 0.45071 0.0
O123 O 0.02593 0.39642 0.57482 0.0
O124 O 0.1829 0.47071 0.38001 0.0
C125 C 0.07761 0.52081 0.23061 0.0
O126 O 0.0331 0.48501 0.28087 0.0
C127 C 0.11811 0.54824 0.61072 0.0
O128 O 0.11886 0.57642 0.51095 0.0
O129 O 0.05268 0.40943 0.36837 0.0
C130 C 0.70522 0.22889 0.52759 0.0
O131 O 0.661 0.22924 0.53497 0.0
O132 O 0.60571 0.12157 0.7589 0.0
Zn133 Zn 0.63497 0.12238 0.57706 0.0
O134 O 0.58705 0.12394 0.44133 0.0
C135 C 0.62531 0.02013 0.6184 0.0
O136 O 0.62247 0.0294 0.74246 0.0
O137 O 0.70533 0.18648 0.54746 0.0
C138 C 0.55009 0.08107 0.39784 0.0
O139 O 0.54149 0.03655 0.44776 0.0
C140 C 0.563 0.12153 0.77831 0.0
O141 O 0.53544 0.122 0.67853 0.0
O142 O 0.63655 0.05625 0.53611 0.0
C143 C 0.46931 0.70867 0.69359 0.0
O144 O 0.42473 0.66447 0.70071 0.0
O145 O 0.477 0.60913 0.92528 0.0
Zn146 Zn 0.50547 0.63835 0.74345 0.0
O147 O 0.45601 0.59043 0.60768 0.0
C148 C 0.59807 0.62871 0.78502 0.0
O149 O 0.58597 0.62593 0.90907 0.0
O150 O 0.5118 0.70875 0.71376 0.0
C151 C 0.46194 0.55349 0.56407 0.0
O152 O 0.49789 0.54491 0.61387 0.0
C153 C 0.43439 0.56637 0.94467 0.0
O154 O 0.40645 0.53871 0.84489 0.0
O155 O 0.57316 0.63988 0.70264 0.0
loop_
_geom_bond_atom_site_label_1
_geom_bond_atom_site_label_2
_geom_bond_distance
_geom_bond_site_symmetry_2
_ccdc_geom_bond_type
C0 O1 1.160 . S
C0 O7 1.185 . S
O1 C0 1.160 . S
O2 Zn3 1.899 1_556 S
O2 C10 1.284 . S
Zn3 O2 1.899 1_554 S
Zn3 O4 2.032 . S
Zn3 O7 2.086 . S
Zn3 O12 1.977 . S
O4 Zn3 2.032 . S
O4 C8 1.278 . S
C5 O6 1.204 . S
C5 O12 1.267 . S
O6 C5 1.204 . S
O7 C0 1.185 . S
O7 Zn3 2.086 . S
C8 O4 1.278 . S
C8 O9 1.211 . S
O9 C8 1.211 . S
C10 O2 1.284 . S
C10 O11 1.273 . S
O11 C10 1.273 . S
O12 Zn3 1.977 . S
O12 C5 1.267 . S
C13 O14 1.160 . S
C13 O20 1.185 . S
O14 C13 1.160 . S
O15 Zn16 1.899 . S
O15 C23 1.284 . S
Zn16 O15 1.899 . S
Zn16 O17 2.032 . S
Zn16 O20 2.086 . S
Zn16 O25 1.977 . S
O17 Zn16 2.032 . S
O17 C21 1.278 . S
C18 O19 1.203 . S
C18 O25 1.267 . S
O19 C18 1.203 . S
O20 C13 1.185 . S
O20 Zn16 2.086 . S
C21 O17 1.278 . S
C21 O22 1.211 . S
O22 C21 1.211 . S
C23 O15 1.284 . S
C23 O24 1.273 . S
O24 C23 1.273 . S
O25 Zn16 1.977 . S
O25 C18 1.267 . S
C26 O27 1.160 . S
C26 O33 1.185 . S
O27 C26 1.160 . S
O28 Zn29 1.899 . S
O28 C36 1.284 . S
Zn29 O28 1.899 . S
Zn29 O30 2.032 . S
Zn29 O33 2.086 . S
Zn29 O38 1.977 . S
O30 Zn29 2.032 . S
O30 C34 1.278 . S
C31 O32 1.203 . S
C31 O38 1.267 . S
O32 C31 1.203 . S
O33 C26 1.185 . S
O33 Zn29 2.086 . S
C34 O30 1.278 . S
C34 O35 1.211 . S
O35 C34 1.211 . S
C36 O28 1.284 . S
C36 O37 1.273 . S
O37 C36 1.273 . S
O38 Zn29 1.977 . S
O38 C31 1.267 . S
C39 O40 1.160 . S
C39 O46 1.185 . S
O40 C39 1.160 . S
O41 Zn42 1.899 . S
O41 C49 1.284 . S
Zn42 O41 1.899 . S
Zn42 O43 2.032 . S
Zn42 O46 2.086 . S
Zn42 O51 1.977 . S
O43 Zn42 2.032 . S
O43 C47 1.278 . S
C44 O45 1.203 . S
C44 O51 1.267 . S
O45 C44 1.203 . S
O46 C39 1.185 . S
O46 Zn42 2.086 . S
C47 O43 1.278 . S
C47 O48 1.211 . S
O48 C47 1.211 . S
C49 O41 1.284 . S
C49 O50 1.273 . S
O50 C49 1.273 . S
O51 Zn42 1.977 . S
O51 C44 1.267 . S
C52 O53 1.160 . S
C52 O59 1.185 . S
O53 C52 1.160 . S
O54 Zn55 1.899 . S
O54 C62 1.284 . S
Zn55 O54 1.899 . S
Zn55 O56 2.032 . S
Zn55 O59 2.086 . S
Zn55 O64 1.977 . S
O56 Zn55 2.032 . S
O56 C60 1.278 . S
C57 O58 1.203 . S
C57 O64 1.267 . S
O58 C57 1.203 . S
O59 C52 1.185 . S
O59 Zn55 2.086 . S
C60 O56 1.278 . S
C60 O61 1.211 . S
O61 C60 1.211 . S
C62 O54 1.284 . S
C62 O63 1.273 . S
O63 C62 1.273 . S
O64 Zn55 1.977 . S
O64 C57 1.267 . S
C65 O66 1.160 . S
C65 O72 1.185 . S
O66 C65 1.160 . S
O67 Zn68 1.899 . S
O67 C75 1.284 . S
Zn68 O67 1.899 . S
Zn68 O69 2.032 1_556 S
Zn68 O72 2.086 . S
Zn68 O77 1.977 . S
O69 Zn68 2.032 1_554 S
O69 C73 1.278 . S
C70 O71 1.203 . S
C70 O77 1.267 . S
O71 C70 1.203 . S
O72 C65 1.185 . S
O72 Zn68 2.086 . S
C73 O69 1.278 . S
C73 O74 1.211 . S
O74 C73 1.211 . S
C75 O67 1.284 . S
C75 O76 1.273 . S
O76 C75 1.273 . S
O77 Zn68 1.977 . S
O77 C70 1.267 . S
C78 O79 1.160 . S
C78 O85 1.185 . S
O79 C78 1.160 . S
O80 Zn81 1.899 1_554 S
O80 C88 1.284 . S
Zn81 O80 1.899 1_556 S
Zn81 O82 2.032 . S
Zn81 O85 2.086 . S
Zn81 O90 1.977 . S
O82 Zn81 2.032 . S
O82 C86 1.278 . S
C83 O84 1.203 . S
C83 O90 1.267 . S
O84 C83 1.203 . S
O85 C78 1.185 . S
O85 Zn81 2.086 . S
C86 O82 1.278 . S
C86 O87 1.211 . S
O87 C86 1.211 . S
C88 O80 1.284 . S
C88 O89 1.273 . S
O89 C88 1.273 . S
O90 Zn81 1.977 . S
O90 C83 1.267 . S
C91 O92 1.160 . S
C91 O98 1.185 . S
O92 C91 1.160 . S
O93 Zn94 1.899 . S
O93 C101 1.284 . S
Zn94 O93 1.899 . S
Zn94 O95 2.032 1_554 S
Zn94 O98 2.086 . S
Zn94 O103 1.977 . S
O95 Zn94 2.032 1_556 S
O95 C99 1.278 . S
C96 O97 1.203 . S
C96 O103 1.267 . S
O97 C96 1.203 . S
O98 C91 1.185 . S
O98 Zn94 2.086 . S
C99 O95 1.278 . S
C99 O100 1.211 . S
O100 C99 1.211 . S
C101 O93 1.284 . S
C101 O102 1.273 . S
O102 C101 1.273 . S
O103 Zn94 1.977 . S
O103 C96 1.267 . S
C104 O105 1.160 . S
C104 O111 1.185 . S
O105 C104 1.160 . S
O106 Zn107 1.899 . S
O106 C114 1.284 . S
Zn107 O106 1.899 . S
Zn107 O108 2.032 . S
Zn107 O111 2.086 . S
Zn107 O116 1.977 . S
O108 Zn107 2.032 . S
O108 C112 1.278 . S
C109 O110 1.203 . S
C109 O116 1.267 . S
O110 C109 1.203 . S
O111 C104 1.185 . S
O111 Zn107 2.086 . S
C112 O108 1.278 . S
C112 O113 1.211 . S
O113 C112 1.211 . S
C114 O106 1.284 . S
C114 O115 1.273 . S
O115 C114 1.273 . S
O116 Zn107 1.977 . S
O116 C109 1.267 . S
C117 O118 1.160 . S
C117 O124 1.185 . S
O118 C117 1.160 . S
O119 Zn120 1.899 . S
O119 C127 1.284 . S
Zn120 O119 1.899 . S
Zn120 O121 2.032 . S
Zn120 O124 2.086 . S
Zn120 O129 1.977 . S
O121 Zn120 2.032 . S
O121 C125 1.278 . S
C122 O123 1.203 . S
C122 O129 1.267 . S
O123 C122 1.203 . S
O124 C117 1.185 . S
O124 Zn120 2.086 . S
C125 O121 1.278 . S
C125 O126 1.211 . S
O126 C125 1.211 . S
C127 O119 1.284 . S
C127 O128 1.273 . S
O128 C127 1.273 . S
O129 Zn120 1.977 . S
O129 C122 1.267 . S
C130 O131 1.160 . S
C130 O137 1.185 . S
O131 C130 1.160 . S
O132 Zn133 1.899 . S
O132 C140 1.284 . S
Zn133 O132 1.899 . S
Zn133 O134 2.032 . S
Zn133 O137 2.086 . S
Zn133 O142 1.977 . S
O134 Zn133 2.032 . S
O134 C138 1.278 . S
C135 O136 1.203 . S
C135 O142 1.267 . S
O136 C135 1.203 . S
O137 C130 1.185 . S
O137 Zn133 2.086 . S
C138 O134 1.278 . S
C138 O139 1.211 . S
O139 C138 1.211 . S
C140 O132 1.284 . S
C140 O141 1.273 . S
O141 C140 1.273 . S
O142 Zn133 1.977 . S
O142 C135 1.267 . S
C143 O144 1.160 . S
C143 O150 1.185 . S
O144 C143 1.160 . S
O145 Zn146 1.899 . S
O145 C153 1.284 . S
Zn146 O145 1.899 . S
Zn146 O147 2.032 . S
Zn146 O150 2.086 . S
Zn146 O155 1.977 . S
O147 Zn146 2.032 . S
O147 C151 1.278 . S
C148 O149 1.203 . S
C148 O155 1.267 . S
O149 C148 1.203 . S
O150 C143 1.185 . S
O150 Zn146 2.086 . S
C151 O147 1.278 . S
C151 O152 1.211 . S
O152 C151 1.211 . S
C153 O145 1.284 . S
C153 O154 1.273 . S
O154 C153 1.273 . S
O155 Zn146 1.977 . S
O155 C148 1.267 . S
C8 C138 1.233 . S
C21 C151 1.233 . S
C86 C34 1.234 . S
C47 C99 1.233 . S
C112 C60 1.233 1_554 S
C125 C73 1.234 . S
C104 C0 1.629 . S
C13 C117 1.629 . S
C130 C26 1.629 . S
C39 C143 1.629 . S
C52 C78 1.629 . S
C65 C91 1.629 1_556 S
C140 C10 1.534 . S
C153 C23 1.535 1_556 S
C88 C36 1.535 . S
C49 C101 1.534 . S
C62 C114 1.535 . S
C127 C75 1.534 . S
C5 C96 1.172 1_545 S
C109 C18 1.171 . S
C122 C31 1.172 1_455 S
C44 C135 1.172 1_565 S
C57 C148 1.171 . S
C70 C83 1.172 1_455 S
