# Generated by pormake.
# Topology gsi, (4)-cn, num edge types: 1
# Building blocks:
#     Node 0, Type 0, BuildingBlock: QUQFOY_clean_sbu_1, # of connection points: 4
#     Node 1, Type 0, BuildingBlock: QUQFOY_clean_sbu_1, # of connection points: 4
#     Node 2, Type 0, BuildingBlock: QUQFOY_clean_sbu_1, # of connection points: 4
#     Node 3, Type 0, BuildingBlock: QUQFOY_clean_sbu_1, # of connection points: 4
#     Node 4, Type 0, BuildingBlock: QUQFOY_clean_sbu_1, # of connection points: 4
#     Node 5, Type 0, BuildingBlock: QUQFOY_clean_sbu_1, # of connection points: 4
#     Node 6, Type 0, BuildingBlock: QUQFOY_clean_sbu_1, # of connection points: 4
#     Node 7, Type 0, BuildingBlock: QUQFOY_clean_sbu_1, # of connection points: 4
#     Node 8, Type 0, BuildingBlock: QUQFOY_clean_sbu_1, # of connection points: 4
#     Node 9, Type 0, BuildingBlock: QUQFOY_clean_sbu_1, # of connection points: 4
#     Node 10, Type 0, BuildingBlock: QUQFOY_clean_sbu_1, # of connection points: 4
#     Node 11, Type 0, BuildingBlock: QUQFOY_clean_sbu_1, # of connection points: 4
#     Node 12, Type 0, BuildingBlock: QUQFOY_clean_sbu_1, # of connection points: 4
#     Node 13, Type 0, BuildingBlock: QUQFOY_clean_sbu_1, # of connection points: 4
#     Node 14, Type 0, BuildingBlock: QUQFOY_clean_sbu_1, # of connection points: 4
#     Node 15, Type 0, BuildingBlock: QUQFOY_clean_sbu_1, # of connection points: 4
#     Edge 16, Type (0, 0), None
#     Edge 17, Type (0, 0), None
#     Edge 18, Type (0, 0), None
#     Edge 19, Type (0, 0), None
#     Edge 20, Type (0, 0), None
#     Edge 21, Type (0, 0), None
#     Edge 22, Type (0, 0), None
#     Edge 23, Type (0, 0), None
#     Edge 24, Type (0, 0), None
#     Edge 25, Type (0, 0), None
#     Edge 26, Type (0, 0), None
#     Edge 27, Type (0, 0), None
#     Edge 28, Type (0, 0), None
#     Edge 29, Type (0, 0), None
#     Edge 30, Type (0, 0), None
#     Edge 31, Type (0, 0), None
#     Edge 32, Type (0, 0), None
#     Edge 33, Type (0, 0), None
#     Edge 34, Type (0, 0), None
#     Edge 35, Type (0, 0), None
#     Edge 36, Type (0, 0), None
#     Edge 37, Type (0, 0), None
#     Edge 38, Type (0, 0), None
#     Edge 39, Type (0, 0), None
#     Edge 40, Type (0, 0), None
#     Edge 41, Type (0, 0), None
#     Edge 42, Type (0, 0), None
#     Edge 43, Type (0, 0), None
#     Edge 44, Type (0, 0), None
#     Edge 45, Type (0, 0), None
#     Edge 46, Type (0, 0), None
#     Edge 47, Type (0, 0), None
# Relax obj value: 0.161
# Max RMSD: 0.240
# Mean RMSD: 0.176
data_MOF--net-gsi--node1-QUQFOY_clean_sbu_1--edge1-none
_symmetry_space_group_name_H-M    P1
_symmetry_Int_Tables_number       1
_symmetry_cell_setting            triclinic
loop_
_symmetry_equiv_pos_as_xyz
'x, y, z'
_cell_length_a     21.25498
_cell_length_b     20.425662
_cell_length_c     22.269383
_cell_angle_alpha  89.996505
_cell_angle_beta   90.000596
_cell_angle_gamma 94.711583
loop_
_atom_site_label
_atom_site_type_symbol
_atom_site_fract_x
_atom_site_fract_y
_atom_site_fract_z
_atom_type_partial_charge
O0 O -0.02681 0.27383 0.132 0.0
Cd1 Cd 0.05995 0.23138 0.13697 0.0
Cd2 Cd -0.00739 0.17034 0.23205 0.0
O3 O -0.08409 0.20535 0.19122 0.0
O4 O 0.11239 0.27987 0.0745 0.0
O5 O 0.0956 0.17187 0.07398 0.0
C6 C 0.12376 0.22451 0.05125 0.0
C7 C -0.00166 0.06095 0.25745 0.0
C8 C -0.07987 0.25336 0.15475 0.0
C9 C 0.09984 0.26268 0.26362 0.0
O10 O 0.04697 0.23768 0.28212 0.0
O11 O 0.1162 0.25692 0.20935 0.0
O12 O -0.03258 0.09896 0.29055 0.0
O13 O 0.02409 0.08427 0.20851 0.0
O14 O 0.81476 0.27529 0.13199 0.0
Cd15 Cd 0.728 0.31771 0.13696 0.0
Cd16 Cd 0.79533 0.37878 0.23204 0.0
O17 O 0.87204 0.34379 0.19121 0.0
O18 O 0.67556 0.26921 0.07449 0.0
O19 O 0.69233 0.37721 0.07396 0.0
C20 C 0.66417 0.32457 0.05125 0.0
C21 C 0.78958 0.48816 0.25745 0.0
C22 C 0.86782 0.2958 0.15474 0.0
C23 C 0.68812 0.28641 0.26362 0.0
O24 O 0.74098 0.31142 0.28211 0.0
O25 O 0.67175 0.29217 0.20935 0.0
O26 O 0.82052 0.45015 0.29055 0.0
O27 O 0.76384 0.46484 0.20852 0.0
O28 O -0.03962 0.7949 0.41748 0.0
Cd29 Cd 0.05699 0.82051 0.41355 0.0
Cd30 Cd 0.01968 0.88568 0.30423 0.0
O31 O -0.05815 0.82276 0.32312 0.0
O32 O 0.09126 0.77166 0.48211 0.0
O33 O 0.10986 0.87895 0.47212 0.0
C34 C 0.12016 0.82572 0.50037 0.0
C35 C 0.00552 0.99326 0.27596 0.0
C36 C -0.07551 0.79387 0.37167 0.0
C37 C 0.11811 0.79438 0.29296 0.0
O38 O 0.0944 0.84272 0.26869 0.0
O39 O 0.1049 0.77738 0.3465 0.0
O40 O -0.00367 0.94572 0.23822 0.0
O41 O 0.02228 0.97999 0.33007 0.0
O42 O 0.82754 0.7542 0.41748 0.0
Cd43 Cd 0.73093 0.72859 0.41356 0.0
Cd44 Cd 0.76823 0.66341 0.30424 0.0
O45 O 0.84606 0.72633 0.32312 0.0
O46 O 0.69666 0.77744 0.4821 0.0
O47 O 0.67805 0.67016 0.47213 0.0
C48 C 0.66776 0.72339 0.50037 0.0
C49 C 0.7824 0.55584 0.27597 0.0
C50 C 0.86343 0.75522 0.37167 0.0
C51 C 0.6698 0.75472 0.29296 0.0
O52 O 0.69351 0.70638 0.2687 0.0
O53 O 0.68302 0.77172 0.3465 0.0
O54 O 0.79158 0.60339 0.23823 0.0
O55 O 0.76564 0.5691 0.33007 0.0
O56 O 0.31474 0.77528 0.632 0.0
Cd57 Cd 0.22798 0.81772 0.63697 0.0
Cd58 Cd 0.29532 0.87876 0.73204 0.0
O59 O 0.37202 0.84376 0.69121 0.0
O60 O 0.17554 0.76923 0.5745 0.0
O61 O 0.19233 0.87723 0.57396 0.0
C62 C 0.16416 0.82459 0.55125 0.0
C63 C 0.28959 0.98815 0.75744 0.0
C64 C 0.3678 0.79575 0.65475 0.0
C65 C 0.1881 0.78642 0.76362 0.0
O66 O 0.24097 0.81142 0.78211 0.0
O67 O 0.17173 0.79219 0.70935 0.0
O68 O 0.32051 0.95014 0.79054 0.0
O69 O 0.26384 0.96483 0.70851 0.0
O70 O 0.71629 0.98624 0.87206 0.0
Cd71 Cd 0.67274 0.8974 0.90324 0.0
Cd72 Cd 0.77592 0.85167 0.83321 0.0
O73 O 0.78466 0.94889 0.80782 0.0
O74 O 0.6095 0.92017 0.96535 0.0
O75 O 0.6855 0.8546 0.98286 0.0
C76 C 0.63579 0.8811 1.00115 0.0
C77 C 0.86651 0.79403 0.83878 0.0
C78 C 0.7573 0.99596 0.83055 0.0
C79 C 0.64277 0.80014 0.80395 0.0
O80 O 0.70144 0.7979 0.7956 0.0
O81 O 0.62143 0.83803 0.84281 0.0
O82 O 0.84539 0.81407 0.78856 0.0
O83 O 0.83772 0.80861 0.88737 0.0
O84 O 0.07164 0.56285 0.87207 0.0
Cd85 Cd 0.11519 0.65169 0.90325 0.0
Cd86 Cd 0.01201 0.69743 0.83321 0.0
O87 O 0.00327 0.60021 0.80783 0.0
O88 O 0.17843 0.62893 0.96536 0.0
O89 O 0.10242 0.69449 0.98286 0.0
C90 C 0.15213 0.668 1.00116 0.0
C91 C -0.07859 0.75505 0.83878 0.0
C92 C 0.03063 0.55314 0.83055 0.0
C93 C 0.14516 0.74897 0.80397 0.0
O94 O 0.08648 0.75121 0.79561 0.0
O95 O 0.16649 0.71108 0.84282 0.0
O96 O -0.05747 0.73503 0.78856 0.0
O97 O -0.0498 0.74047 0.88737 0.0
O98 O 0.84687 0.22344 0.74161 0.0
Cd99 Cd 0.76532 0.16577 0.76098 0.0
Cd100 Cd 0.73165 0.22463 0.64746 0.0
O101 O 0.82653 0.25795 0.6494 0.0
O102 O 0.77932 0.11274 0.83509 0.0
O103 O 0.75577 0.06854 0.74626 0.0
C104 C 0.76638 0.0611 0.80286 0.0
C105 C 0.68261 0.18846 0.55793 0.0
C106 C 0.8633 0.25552 0.69435 0.0
C107 C 0.66294 0.25799 0.76005 0.0
O108 O 0.67384 0.2704 0.7051 0.0
O109 O 0.69124 0.21513 0.78798 0.0
O110 O 0.69601 0.24993 0.56858 0.0
O111 O 0.69913 0.14645 0.59701 0.0
O112 O -0.05894 0.32568 0.74161 0.0
Cd113 Cd 0.02262 0.38333 0.76099 0.0
Cd114 Cd 0.05629 0.32448 0.64746 0.0
O115 O -0.0386 0.29117 0.6494 0.0
O116 O 0.00862 0.43636 0.8351 0.0
O117 O 0.03217 0.48057 0.74626 0.0
C118 C 0.02156 0.488 0.80286 0.0
C119 C 0.10532 0.36064 0.55792 0.0
C120 C -0.07537 0.2936 0.69435 0.0
C121 C 0.12499 0.2911 0.76005 0.0
O122 O 0.11408 0.2787 0.70511 0.0
O123 O 0.09669 0.33397 0.78798 0.0
O124 O 0.09192 0.29917 0.56858 0.0
O125 O 0.08882 0.40266 0.597 0.0
O126 O 0.57164 0.06285 0.37207 0.0
Cd127 Cd 0.6152 0.15169 0.40325 0.0
Cd128 Cd 0.51202 0.19744 0.33321 0.0
O129 O 0.50328 0.10022 0.30783 0.0
O130 O 0.67844 0.12892 0.46536 0.0
O131 O 0.60243 0.1945 0.48285 0.0
C132 C 0.65214 0.16801 0.50115 0.0
C133 C 0.42143 0.25507 0.33878 0.0
C134 C 0.53064 0.05314 0.33055 0.0
C135 C 0.64517 0.24897 0.30396 0.0
O136 O 0.5865 0.25122 0.29561 0.0
O137 O 0.6665 0.21107 0.34281 0.0
O138 O 0.44255 0.23504 0.28856 0.0
O139 O 0.45022 0.24048 0.38737 0.0
O140 O 0.47316 0.77382 0.63199 0.0
Cd141 Cd 0.55993 0.7314 0.63696 0.0
Cd142 Cd 0.4926 0.67033 0.73206 0.0
O143 O 0.4159 0.70532 0.69122 0.0
O144 O 0.61237 0.77988 0.57448 0.0
O145 O 0.59559 0.67189 0.57398 0.0
C146 C 0.62375 0.72452 0.55125 0.0
C147 C 0.49834 0.56094 0.75746 0.0
C148 C 0.42011 0.75331 0.65474 0.0
C149 C 0.59982 0.76269 0.76361 0.0
O150 O 0.54696 0.73767 0.78212 0.0
O151 O 0.61618 0.75694 0.70934 0.0
O152 O 0.46742 0.59895 0.79056 0.0
O153 O 0.52409 0.58426 0.70852 0.0
O154 O 0.46039 0.29488 0.91748 0.0
Cd155 Cd 0.55699 0.32049 0.91355 0.0
Cd156 Cd 0.51969 0.38567 0.80424 0.0
O157 O 0.44186 0.32275 0.82312 0.0
O158 O 0.59127 0.27165 0.9821 0.0
O159 O 0.60987 0.37893 0.97212 0.0
C160 C 0.62017 0.3257 1.00036 0.0
C161 C 0.50552 0.49325 0.77597 0.0
C162 C 0.42449 0.29385 0.87167 0.0
C163 C 0.61811 0.29437 0.79296 0.0
O164 O 0.5944 0.34271 0.76869 0.0
O165 O 0.6049 0.27737 0.8465 0.0
O166 O 0.49634 0.44571 0.73823 0.0
O167 O 0.52228 0.47998 0.83008 0.0
O168 O 0.32754 0.25418 0.91748 0.0
Cd169 Cd 0.23094 0.22858 0.91356 0.0
Cd170 Cd 0.26824 0.1634 0.80424 0.0
O171 O 0.34607 0.22632 0.82312 0.0
O172 O 0.19667 0.27743 0.98211 0.0
O173 O 0.17806 0.17014 0.97213 0.0
C174 C 0.16777 0.22337 1.00037 0.0
C175 C 0.2824 0.05583 0.77596 0.0
C176 C 0.36344 0.25521 0.87167 0.0
C177 C 0.16981 0.25471 0.79296 0.0
O178 O 0.19352 0.20637 0.76869 0.0
O179 O 0.18303 0.27171 0.84651 0.0
O180 O 0.29159 0.10338 0.73822 0.0
O181 O 0.26564 0.06909 0.83007 0.0
O182 O 0.2163 0.48624 0.37206 0.0
Cd183 Cd 0.17275 0.3974 0.40324 0.0
Cd184 Cd 0.27593 0.35167 0.33321 0.0
O185 O 0.28466 0.44889 0.30782 0.0
O186 O 0.1095 0.42016 0.46535 0.0
O187 O 0.18551 0.3546 0.48286 0.0
C188 C 0.1358 0.38108 0.50114 0.0
C189 C 0.36652 0.29404 0.33878 0.0
C190 C 0.2573 0.49596 0.33055 0.0
C191 C 0.14278 0.30012 0.30396 0.0
O192 O 0.20145 0.29789 0.2956 0.0
O193 O 0.12145 0.33802 0.34281 0.0
O194 O 0.3454 0.31407 0.28856 0.0
O195 O 0.33773 0.30862 0.38737 0.0
O196 O 0.34686 0.72345 0.24162 0.0
Cd197 Cd 0.26531 0.66578 0.26099 0.0
Cd198 Cd 0.23164 0.72463 0.14746 0.0
O199 O 0.32652 0.75795 0.1494 0.0
O200 O 0.27932 0.61274 0.33509 0.0
O201 O 0.25576 0.56854 0.24626 0.0
C202 C 0.26637 0.5611 0.30286 0.0
C203 C 0.18261 0.68846 0.05793 0.0
C204 C 0.36329 0.75553 0.19435 0.0
C205 C 0.16294 0.75799 0.26005 0.0
O206 O 0.17384 0.77041 0.2051 0.0
O207 O 0.19123 0.71513 0.28798 0.0
O208 O 0.196 0.74992 0.06858 0.0
O209 O 0.19912 0.64644 0.09701 0.0
O210 O 0.44105 0.82568 0.24161 0.0
Cd211 Cd 0.52261 0.88334 0.26099 0.0
Cd212 Cd 0.55628 0.82448 0.14746 0.0
O213 O 0.46139 0.79118 0.1494 0.0
O214 O 0.50861 0.93636 0.3351 0.0
O215 O 0.53217 0.98058 0.24626 0.0
C216 C 0.52156 0.98801 0.30286 0.0
C217 C 0.60531 0.86065 0.05792 0.0
C218 C 0.42462 0.79361 0.19435 0.0
C219 C 0.62498 0.79111 0.26005 0.0
O220 O 0.61407 0.7787 0.20511 0.0
O221 O 0.59669 0.83397 0.28798 0.0
O222 O 0.59191 0.79918 0.06858 0.0
O223 O 0.58881 0.90267 0.097 0.0
loop_
_geom_bond_atom_site_label_1
_geom_bond_atom_site_label_2
_geom_bond_distance
_geom_bond_site_symmetry_2
_ccdc_geom_bond_type
O0 Cd1 2.223 . S
O0 C8 1.315 . S
Cd1 O0 2.223 . S
Cd1 O4 2.297 . S
Cd1 O5 2.439 . S
Cd1 O11 2.240 . S
Cd2 O3 2.240 . S
Cd2 O10 2.223 . S
Cd2 O12 2.297 . S
Cd2 O13 2.439 . S
O3 Cd2 2.240 . S
O3 C8 1.279 . S
O4 Cd1 2.297 . S
O4 C6 1.247 . S
O5 Cd1 2.439 . S
O5 C6 1.208 . S
C6 O4 1.247 . S
C6 O5 1.208 . S
C7 O12 1.247 . S
C7 O13 1.208 . S
C8 O0 1.315 . S
C8 O3 1.279 . S
C9 O10 1.315 . S
C9 O11 1.279 . S
O10 Cd2 2.223 . S
O10 C9 1.315 . S
O11 Cd1 2.240 . S
O11 C9 1.279 . S
O12 Cd2 2.297 . S
O12 C7 1.247 . S
O13 Cd2 2.439 . S
O13 C7 1.208 . S
O14 Cd15 2.223 . S
O14 C22 1.315 . S
Cd15 O14 2.223 . S
Cd15 O18 2.297 . S
Cd15 O19 2.439 . S
Cd15 O25 2.240 . S
Cd16 O17 2.240 . S
Cd16 O24 2.223 . S
Cd16 O26 2.297 . S
Cd16 O27 2.439 . S
O17 Cd16 2.240 . S
O17 C22 1.279 . S
O18 Cd15 2.297 . S
O18 C20 1.247 . S
O19 Cd15 2.439 . S
O19 C20 1.208 . S
C20 O18 1.247 . S
C20 O19 1.208 . S
C21 O26 1.247 . S
C21 O27 1.208 . S
C22 O14 1.315 . S
C22 O17 1.279 . S
C23 O24 1.315 . S
C23 O25 1.279 . S
O24 Cd16 2.223 . S
O24 C23 1.315 . S
O25 Cd15 2.240 . S
O25 C23 1.279 . S
O26 Cd16 2.297 . S
O26 C21 1.247 . S
O27 Cd16 2.439 . S
O27 C21 1.208 . S
O28 Cd29 2.223 . S
O28 C36 1.315 . S
Cd29 O28 2.223 . S
Cd29 O32 2.297 . S
Cd29 O33 2.439 . S
Cd29 O39 2.240 . S
Cd30 O31 2.240 . S
Cd30 O38 2.223 . S
Cd30 O40 2.297 . S
Cd30 O41 2.439 . S
O31 Cd30 2.240 . S
O31 C36 1.279 . S
O32 Cd29 2.297 . S
O32 C34 1.247 . S
O33 Cd29 2.439 . S
O33 C34 1.208 . S
C34 O32 1.247 . S
C34 O33 1.208 . S
C35 O40 1.247 . S
C35 O41 1.208 . S
C36 O28 1.315 . S
C36 O31 1.279 . S
C37 O38 1.315 . S
C37 O39 1.279 . S
O38 Cd30 2.223 . S
O38 C37 1.315 . S
O39 Cd29 2.240 . S
O39 C37 1.279 . S
O40 Cd30 2.297 . S
O40 C35 1.247 . S
O41 Cd30 2.439 . S
O41 C35 1.208 . S
O42 Cd43 2.223 . S
O42 C50 1.315 . S
Cd43 O42 2.223 . S
Cd43 O46 2.297 . S
Cd43 O47 2.439 . S
Cd43 O53 2.240 . S
Cd44 O45 2.240 . S
Cd44 O52 2.223 . S
Cd44 O54 2.297 . S
Cd44 O55 2.439 . S
O45 Cd44 2.240 . S
O45 C50 1.279 . S
O46 Cd43 2.297 . S
O46 C48 1.247 . S
O47 Cd43 2.439 . S
O47 C48 1.208 . S
C48 O46 1.247 . S
C48 O47 1.208 . S
C49 O54 1.247 . S
C49 O55 1.208 . S
C50 O42 1.315 . S
C50 O45 1.279 . S
C51 O52 1.315 . S
C51 O53 1.279 . S
O52 Cd44 2.223 . S
O52 C51 1.315 . S
O53 Cd43 2.240 . S
O53 C51 1.279 . S
O54 Cd44 2.297 . S
O54 C49 1.247 . S
O55 Cd44 2.439 . S
O55 C49 1.208 . S
O56 Cd57 2.223 . S
O56 C64 1.315 . S
Cd57 O56 2.223 . S
Cd57 O60 2.297 . S
Cd57 O61 2.439 . S
Cd57 O67 2.240 . S
Cd58 O59 2.240 . S
Cd58 O66 2.223 . S
Cd58 O68 2.297 . S
Cd58 O69 2.439 . S
O59 Cd58 2.240 . S
O59 C64 1.279 . S
O60 Cd57 2.297 . S
O60 C62 1.247 . S
O61 Cd57 2.439 . S
O61 C62 1.208 . S
C62 O60 1.247 . S
C62 O61 1.208 . S
C63 O68 1.247 . S
C63 O69 1.208 . S
C64 O56 1.315 . S
C64 O59 1.279 . S
C65 O66 1.315 . S
C65 O67 1.279 . S
O66 Cd58 2.223 . S
O66 C65 1.315 . S
O67 Cd57 2.240 . S
O67 C65 1.279 . S
O68 Cd58 2.297 . S
O68 C63 1.247 . S
O69 Cd58 2.439 . S
O69 C63 1.208 . S
O70 Cd71 2.223 . S
O70 C78 1.315 . S
Cd71 O70 2.223 . S
Cd71 O74 2.297 . S
Cd71 O75 2.439 . S
Cd71 O81 2.240 . S
Cd72 O73 2.240 . S
Cd72 O80 2.223 . S
Cd72 O82 2.297 1_655 S
Cd72 O83 2.439 . S
O73 Cd72 2.240 . S
O73 C78 1.279 . S
O74 Cd71 2.297 . S
O74 C76 1.247 . S
O75 Cd71 2.439 . S
O75 C76 1.208 . S
C76 O74 1.247 . S
C76 O75 1.208 . S
C77 O82 1.247 . S
C77 O83 1.208 1_455 S
C78 O70 1.315 . S
C78 O73 1.279 . S
C79 O80 1.315 . S
C79 O81 1.279 . S
O80 Cd72 2.223 . S
O80 C79 1.315 . S
O81 Cd71 2.240 . S
O81 C79 1.279 . S
O82 Cd72 2.297 1_455 S
O82 C77 1.247 . S
O83 Cd72 2.439 . S
O83 C77 1.208 1_655 S
O84 Cd85 2.223 . S
O84 C92 1.315 . S
Cd85 O84 2.223 . S
Cd85 O88 2.297 . S
Cd85 O89 2.439 . S
Cd85 O95 2.240 . S
Cd86 O87 2.240 . S
Cd86 O94 2.223 . S
Cd86 O96 2.297 1_455 S
Cd86 O97 2.439 . S
O87 Cd86 2.240 . S
O87 C92 1.279 . S
O88 Cd85 2.297 . S
O88 C90 1.247 . S
O89 Cd85 2.439 . S
O89 C90 1.208 . S
C90 O88 1.247 . S
C90 O89 1.208 . S
C91 O96 1.247 . S
C91 O97 1.208 1_655 S
C92 O84 1.315 . S
C92 O87 1.279 . S
C93 O94 1.315 . S
C93 O95 1.279 . S
O94 Cd86 2.223 . S
O94 C93 1.315 . S
O95 Cd85 2.240 . S
O95 C93 1.279 . S
O96 Cd86 2.297 1_655 S
O96 C91 1.247 . S
O97 Cd86 2.439 . S
O97 C91 1.208 1_455 S
O98 Cd99 2.223 . S
O98 C106 1.315 . S
Cd99 O98 2.223 . S
Cd99 O102 2.297 . S
Cd99 O103 2.439 . S
Cd99 O109 2.240 . S
Cd100 O101 2.240 . S
Cd100 O108 2.223 . S
Cd100 O110 2.297 . S
Cd100 O111 2.439 . S
O101 Cd100 2.240 . S
O101 C106 1.279 . S
O102 Cd99 2.297 . S
O102 C104 1.247 . S
O103 Cd99 2.439 . S
O103 C104 1.208 . S
C104 O102 1.247 . S
C104 O103 1.208 . S
C105 O110 1.247 . S
C105 O111 1.208 . S
C106 O98 1.315 . S
C106 O101 1.279 . S
C107 O108 1.315 . S
C107 O109 1.279 . S
O108 Cd100 2.223 . S
O108 C107 1.315 . S
O109 Cd99 2.240 . S
O109 C107 1.279 . S
O110 Cd100 2.297 . S
O110 C105 1.247 . S
O111 Cd100 2.439 . S
O111 C105 1.208 . S
O112 Cd113 2.223 . S
O112 C120 1.315 . S
Cd113 O112 2.223 . S
Cd113 O116 2.297 . S
Cd113 O117 2.439 . S
Cd113 O123 2.240 . S
Cd114 O115 2.240 . S
Cd114 O122 2.223 . S
Cd114 O124 2.297 . S
Cd114 O125 2.439 . S
O115 Cd114 2.240 . S
O115 C120 1.279 . S
O116 Cd113 2.297 . S
O116 C118 1.247 . S
O117 Cd113 2.439 . S
O117 C118 1.208 . S
C118 O116 1.247 . S
C118 O117 1.208 . S
C119 O124 1.247 . S
C119 O125 1.208 . S
C120 O112 1.315 . S
C120 O115 1.279 . S
C121 O122 1.315 . S
C121 O123 1.279 . S
O122 Cd114 2.223 . S
O122 C121 1.315 . S
O123 Cd113 2.240 . S
O123 C121 1.279 . S
O124 Cd114 2.297 . S
O124 C119 1.247 . S
O125 Cd114 2.439 . S
O125 C119 1.208 . S
O126 Cd127 2.223 . S
O126 C134 1.315 . S
Cd127 O126 2.223 . S
Cd127 O130 2.297 . S
Cd127 O131 2.439 . S
Cd127 O137 2.240 . S
Cd128 O129 2.240 . S
Cd128 O136 2.223 . S
Cd128 O138 2.297 . S
Cd128 O139 2.439 . S
O129 Cd128 2.240 . S
O129 C134 1.279 . S
O130 Cd127 2.297 . S
O130 C132 1.247 . S
O131 Cd127 2.439 . S
O131 C132 1.208 . S
C132 O130 1.247 . S
C132 O131 1.208 . S
C133 O138 1.247 . S
C133 O139 1.208 . S
C134 O126 1.315 . S
C134 O129 1.279 . S
C135 O136 1.315 . S
C135 O137 1.279 . S
O136 Cd128 2.223 . S
O136 C135 1.315 . S
O137 Cd127 2.240 . S
O137 C135 1.279 . S
O138 Cd128 2.297 . S
O138 C133 1.247 . S
O139 Cd128 2.439 . S
O139 C133 1.208 . S
O140 Cd141 2.223 . S
O140 C148 1.315 . S
Cd141 O140 2.223 . S
Cd141 O144 2.297 . S
Cd141 O145 2.439 . S
Cd141 O151 2.240 . S
Cd142 O143 2.240 . S
Cd142 O150 2.223 . S
Cd142 O152 2.297 . S
Cd142 O153 2.439 . S
O143 Cd142 2.240 . S
O143 C148 1.279 . S
O144 Cd141 2.297 . S
O144 C146 1.247 . S
O145 Cd141 2.439 . S
O145 C146 1.208 . S
C146 O144 1.247 . S
C146 O145 1.208 . S
C147 O152 1.247 . S
C147 O153 1.208 . S
C148 O140 1.315 . S
C148 O143 1.279 . S
C149 O150 1.315 . S
C149 O151 1.279 . S
O150 Cd142 2.223 . S
O150 C149 1.315 . S
O151 Cd141 2.240 . S
O151 C149 1.279 . S
O152 Cd142 2.297 . S
O152 C147 1.247 . S
O153 Cd142 2.439 . S
O153 C147 1.208 . S
O154 Cd155 2.223 . S
O154 C162 1.315 . S
Cd155 O154 2.223 . S
Cd155 O158 2.297 . S
Cd155 O159 2.439 . S
Cd155 O165 2.240 . S
Cd156 O157 2.240 . S
Cd156 O164 2.223 . S
Cd156 O166 2.297 . S
Cd156 O167 2.439 . S
O157 Cd156 2.240 . S
O157 C162 1.279 . S
O158 Cd155 2.297 . S
O158 C160 1.247 . S
O159 Cd155 2.439 . S
O159 C160 1.208 . S
C160 O158 1.247 . S
C160 O159 1.208 . S
C161 O166 1.247 . S
C161 O167 1.208 . S
C162 O154 1.315 . S
C162 O157 1.279 . S
C163 O164 1.315 . S
C163 O165 1.279 . S
O164 Cd156 2.223 . S
O164 C163 1.315 . S
O165 Cd155 2.240 . S
O165 C163 1.279 . S
O166 Cd156 2.297 . S
O166 C161 1.247 . S
O167 Cd156 2.439 . S
O167 C161 1.208 . S
O168 Cd169 2.223 . S
O168 C176 1.315 . S
Cd169 O168 2.223 . S
Cd169 O172 2.297 . S
Cd169 O173 2.439 . S
Cd169 O179 2.240 . S
Cd170 O171 2.240 . S
Cd170 O178 2.223 . S
Cd170 O180 2.297 . S
Cd170 O181 2.439 . S
O171 Cd170 2.240 . S
O171 C176 1.279 . S
O172 Cd169 2.297 . S
O172 C174 1.247 . S
O173 Cd169 2.439 . S
O173 C174 1.208 . S
C174 O172 1.247 . S
C174 O173 1.208 . S
C175 O180 1.247 . S
C175 O181 1.208 . S
C176 O168 1.315 . S
C176 O171 1.279 . S
C177 O178 1.315 . S
C177 O179 1.279 . S
O178 Cd170 2.223 . S
O178 C177 1.315 . S
O179 Cd169 2.240 . S
O179 C177 1.279 . S
O180 Cd170 2.297 . S
O180 C175 1.247 . S
O181 Cd170 2.439 . S
O181 C175 1.208 . S
O182 Cd183 2.223 . S
O182 C190 1.315 . S
Cd183 O182 2.223 . S
Cd183 O186 2.297 . S
Cd183 O187 2.439 . S
Cd183 O193 2.240 . S
Cd184 O185 2.240 . S
Cd184 O192 2.223 . S
Cd184 O194 2.297 . S
Cd184 O195 2.439 . S
O185 Cd184 2.240 . S
O185 C190 1.279 . S
O186 Cd183 2.297 . S
O186 C188 1.247 . S
O187 Cd183 2.439 . S
O187 C188 1.208 . S
C188 O186 1.247 . S
C188 O187 1.208 . S
C189 O194 1.247 . S
C189 O195 1.208 . S
C190 O182 1.315 . S
C190 O185 1.279 . S
C191 O192 1.315 . S
C191 O193 1.279 . S
O192 Cd184 2.223 . S
O192 C191 1.315 . S
O193 Cd183 2.240 . S
O193 C191 1.279 . S
O194 Cd184 2.297 . S
O194 C189 1.247 . S
O195 Cd184 2.439 . S
O195 C189 1.208 . S
O196 Cd197 2.223 . S
O196 C204 1.315 . S
Cd197 O196 2.223 . S
Cd197 O200 2.297 . S
Cd197 O201 2.439 . S
Cd197 O207 2.240 . S
Cd198 O199 2.240 . S
Cd198 O206 2.223 . S
Cd198 O208 2.297 . S
Cd198 O209 2.439 . S
O199 Cd198 2.240 . S
O199 C204 1.279 . S
O200 Cd197 2.297 . S
O200 C202 1.247 . S
O201 Cd197 2.439 . S
O201 C202 1.208 . S
C202 O200 1.247 . S
C202 O201 1.208 . S
C203 O208 1.247 . S
C203 O209 1.208 . S
C204 O196 1.315 . S
C204 O199 1.279 . S
C205 O206 1.315 . S
C205 O207 1.279 . S
O206 Cd198 2.223 . S
O206 C205 1.315 . S
O207 Cd197 2.240 . S
O207 C205 1.279 . S
O208 Cd198 2.297 . S
O208 C203 1.247 . S
O209 Cd198 2.439 . S
O209 C203 1.208 . S
O210 Cd211 2.223 . S
O210 C218 1.315 . S
Cd211 O210 2.223 . S
Cd211 O214 2.297 . S
Cd211 O215 2.439 . S
Cd211 O221 2.240 . S
Cd212 O213 2.240 . S
Cd212 O220 2.223 . S
Cd212 O222 2.297 . S
Cd212 O223 2.439 . S
O213 Cd212 2.240 . S
O213 C218 1.279 . S
O214 Cd211 2.297 . S
O214 C216 1.247 . S
O215 Cd211 2.439 . S
O215 C216 1.208 . S
C216 O214 1.247 . S
C216 O215 1.208 . S
C217 O222 1.247 . S
C217 O223 1.208 . S
C218 O210 1.315 . S
C218 O213 1.279 . S
C219 O220 1.315 . S
C219 O221 1.279 . S
O220 Cd212 2.223 . S
O220 C219 1.315 . S
O221 Cd211 2.240 . S
O221 C219 1.279 . S
O222 Cd212 2.297 . S
O222 C217 1.247 . S
O223 Cd212 2.439 . S
O223 C217 1.208 . S
C9 C191 1.865 . S
C23 C135 1.865 . S
C205 C37 1.547 . S
C51 C219 1.547 . S
C65 C93 1.865 . S
C149 C79 1.865 . S
C163 C107 1.547 . S
C121 C177 1.547 . S
C35 C7 1.489 1_565 S
C21 C49 1.489 . S
C174 C6 1.701 1_556 S
C20 C160 1.701 1_554 S
C62 C34 1.701 . S
C146 C48 1.701 . S
C22 C8 2.534 1_655 S
C50 C36 1.953 1_655 S
C148 C64 2.534 . S
C104 C78 1.812 1_545 S
C92 C118 1.812 . S
C217 C76 2.098 1_554 S
C90 C203 2.099 1_556 S
C132 C105 2.099 . S
C119 C188 2.098 . S
C91 C77 1.405 1_655 S
C120 C106 2.122 1_455 S
C133 C189 1.405 . S
C147 C161 1.489 . S
C175 C63 1.489 1_545 S
C176 C162 1.953 . S
C202 C190 1.812 . S
C134 C216 1.812 1_545 S
C218 C204 2.122 . S
