# Generated by pormake.
# Topology mmt, (4)-cn, num edge types: 1
# Building blocks:
#     Node 0, Type 0, BuildingBlock: NAHDIM_clean_sbu_0, # of connection points: 4
#     Node 1, Type 0, BuildingBlock: NAHDIM_clean_sbu_0, # of connection points: 4
#     Node 2, Type 0, BuildingBlock: NAHDIM_clean_sbu_0, # of connection points: 4
#     Node 3, Type 0, BuildingBlock: NAHDIM_clean_sbu_0, # of connection points: 4
#     Node 4, Type 0, BuildingBlock: NAHDIM_clean_sbu_0, # of connection points: 4
#     Node 5, Type 0, BuildingBlock: NAHDIM_clean_sbu_0, # of connection points: 4
#     Node 6, Type 0, BuildingBlock: NAHDIM_clean_sbu_0, # of connection points: 4
#     Node 7, Type 0, BuildingBlock: NAHDIM_clean_sbu_0, # of connection points: 4
#     Edge 8, Type (0, 0), None
#     Edge 9, Type (0, 0), None
#     Edge 10, Type (0, 0), None
#     Edge 11, Type (0, 0), None
#     Edge 12, Type (0, 0), None
#     Edge 13, Type (0, 0), None
#     Edge 14, Type (0, 0), None
#     Edge 15, Type (0, 0), None
#     Edge 16, Type (0, 0), None
#     Edge 17, Type (0, 0), None
#     Edge 18, Type (0, 0), None
#     Edge 19, Type (0, 0), None
#     Edge 20, Type (0, 0), None
#     Edge 21, Type (0, 0), None
#     Edge 22, Type (0, 0), None
#     Edge 23, Type (0, 0), None
# Relax obj value: 0.073
# Max RMSD: 0.129
# Mean RMSD: 0.129
data_MOF--net-mmt--node1-NAHDIM_clean_sbu_0--edge1-none
_symmetry_space_group_name_H-M    P1
_symmetry_Int_Tables_number       1
_symmetry_cell_setting            triclinic
loop_
_symmetry_equiv_pos_as_xyz
'x, y, z'
_cell_length_a     10.335279
_cell_length_b     17.72045
_cell_length_c     19.996293
_cell_angle_alpha  89.994207
_cell_angle_beta   89.999866
_cell_angle_gamma 89.998248
loop_
_atom_site_label
_atom_site_type_symbol
_atom_site_fract_x
_atom_site_fract_y
_atom_site_fract_z
_atom_type_partial_charge
C0 C -0.02105 0.47641 0.45695 0.0
O1 O 0.88824 0.49106 0.41286 0.0
O2 O 0.17207 0.64229 0.35654 0.0
Zn3 Zn 0.15206 0.52877 0.35276 0.0
O4 O 0.03267 0.4875 0.28132 0.0
C5 C 0.34194 0.43605 0.28946 0.0
O6 O 0.23984 0.40087 0.26606 0.0
O7 O 0.09691 0.48859 0.44251 0.0
C8 C 0.93552 0.5121 0.24932 0.0
O9 O 0.8909 0.58021 0.26102 0.0
C10 C 0.20373 0.68111 0.30564 0.0
O11 O 0.21028 0.64875 0.24667 0.0
O12 O 0.32844 0.4898 0.3308 0.0
C13 C 0.46201 0.94817 0.49128 0.0
O14 O 0.54586 0.9573 0.44269 0.0
O15 O 0.27557 0.78723 0.36844 0.0
Zn16 Zn 0.29655 0.89974 0.38293 0.0
O17 O 0.42696 0.95055 0.32239 0.0
C18 C 0.10687 -0.01334 0.31266 0.0
O19 O 0.20902 0.01 0.2797 0.0
O20 O 0.34929 0.92287 0.47847 0.0
C21 C 0.50546 0.92541 0.27905 0.0
O22 O 0.5124 0.8527 0.26699 0.0
C23 C 0.23425 0.76163 0.31292 0.0
O24 O 0.21784 0.8077 0.26219 0.0
O25 O 0.12057 0.94282 0.3624 0.0
C26 C 0.47897 0.45646 0.03607 0.0
O27 O 0.39964 0.47564 0.08443 0.0
O28 O 0.7033 0.28945 0.14898 0.0
Zn29 Zn 0.63252 0.39581 0.145 0.0
O30 O 0.47111 0.39525 0.19992 0.0
C31 C 0.86552 0.45941 0.20561 0.0
O32 O 0.91327 0.39186 0.19481 0.0
O33 O 0.58464 0.42296 0.04981 0.0
C34 C 0.46714 0.42424 0.2579 0.0
O35 O 0.57157 0.45426 0.28409 0.0
C36 C 0.72186 0.25869 0.20561 0.0
O37 O 0.70293 0.29795 0.26042 0.0
O38 O 0.75226 0.47492 0.18535 0.0
C39 C -0.02059 -0.02723 0.06062 0.0
O40 O 0.07177 -0.02027 0.10522 0.0
O41 O 0.75228 0.13561 0.1607 0.0
Zn42 Zn 0.81356 0.02726 0.16743 0.0
O43 O 0.97203 0.02524 0.22484 0.0
C44 C 0.59277 -0.02117 0.24584 0.0
O45 O 0.58607 0.05087 0.26064 0.0
O46 O 0.86351 -0.01006 0.0757 0.0
C47 C -0.02101 -0.00131 0.28365 0.0
O48 O 0.87528 -0.02844 0.31293 0.0
C49 C 0.76431 0.17996 0.21031 0.0
O50 O 0.81103 0.1543 0.26696 0.0
O51 O 0.67969 0.95574 0.20599 0.0
C52 C 0.94467 0.4488 0.5237 0.0
O53 O 0.03651 0.43356 0.56701 0.0
O54 O 0.78482 0.30037 0.64734 0.0
Zn55 Zn 0.78939 0.41405 0.63686 0.0
O56 O 0.92628 0.46545 0.69289 0.0
C57 C 0.5988 0.49088 0.71748 0.0
O58 O 0.70091 0.5105 0.75238 0.0
O59 O 0.82681 0.44234 0.54106 0.0
C60 C -0.00719 0.44079 0.74159 0.0
O61 O -0.02204 0.37113 0.76256 0.0
C62 C 0.73128 0.27399 0.6996 0.0
O63 O 0.69214 0.32054 0.7465 0.0
O64 O 0.61274 0.45228 0.6644 0.0
C65 C 0.49742 0.97011 0.55951 0.0
O66 O 0.41732 0.95704 0.6091 0.0
O67 O 0.72145 0.14841 0.65683 0.0
Zn68 Zn 0.65681 0.04013 0.66238 0.0
O69 O 0.49702 0.03732 0.71994 0.0
C70 C 0.86902 -0.00735 0.74519 0.0
O71 O 0.85878 0.06213 0.76725 0.0
O72 O 0.60417 0.0039 0.57035 0.0
C73 C 0.48738 0.00404 0.77593 0.0
O74 O 0.5884 0.97021 0.80207 0.0
C75 C 0.70038 0.19339 0.7052 0.0
O76 O 0.64018 0.1687 0.75871 0.0
O77 O 0.79362 0.96979 0.69938 0.0
C78 C 0.44613 0.47426 0.96647 0.0
O79 O 0.52585 0.45527 0.91823 0.0
O80 O 0.23197 0.64763 0.85896 0.0
Zn81 Zn 0.2956 0.53926 0.85787 0.0
O82 O 0.45932 0.53251 0.80318 0.0
C83 C 0.08767 0.49117 0.77284 0.0
O84 O 0.10193 0.55996 0.74968 0.0
O85 O 0.34143 0.50882 0.95273 0.0
C86 C 0.46965 0.50379 0.74523 0.0
O87 O 0.36685 0.47769 0.71442 0.0
C88 C 0.25654 0.69215 0.81073 0.0
O89 O 0.32143 0.66726 0.75878 0.0
O90 O 0.15924 0.46855 0.82043 0.0
C91 C 0.01058 0.94777 0.9928 0.0
O92 O 0.91763 0.93871 0.94878 0.0
O93 O 0.16805 0.79867 0.86707 0.0
Zn94 Zn 0.16568 0.91178 0.87962 0.0
O95 O 0.03178 0.96576 0.82397 0.0
C96 C 0.35901 -0.00637 0.80523 0.0
O97 O 0.25749 0.02173 0.77468 0.0
O98 O 0.12765 0.93737 0.97556 0.0
C99 C 0.96294 0.94146 0.77608 0.0
O100 O 0.97345 0.87113 0.75619 0.0
C101 C 0.225 0.77266 0.81565 0.0
O102 O 0.26825 0.81948 0.76993 0.0
O103 O 0.3437 0.94847 0.85391 0.0
loop_
_geom_bond_atom_site_label_1
_geom_bond_atom_site_label_2
_geom_bond_distance
_geom_bond_site_symmetry_2
_ccdc_geom_bond_type
C0 O1 1.160 . S
C0 O7 1.185 . S
O1 C0 1.160 . S
O2 Zn3 1.899 . S
O2 C10 1.284 . S
Zn3 O2 1.899 . S
Zn3 O4 2.032 1_455 S
Zn3 O7 2.086 . S
Zn3 O12 1.977 . S
O4 Zn3 2.032 1_655 S
O4 C8 1.278 . S
C5 O6 1.203 . S
C5 O12 1.267 . S
O6 C5 1.203 . S
O7 C0 1.185 . S
O7 Zn3 2.086 . S
C8 O4 1.278 . S
C8 O9 1.211 1_655 S
O9 C8 1.211 1_455 S
C10 O2 1.284 . S
C10 O11 1.273 . S
O11 C10 1.273 . S
O12 Zn3 1.977 . S
O12 C5 1.267 . S
C13 O14 1.160 . S
C13 O20 1.185 1_565 S
O14 C13 1.160 . S
O15 Zn16 1.899 . S
O15 C23 1.284 . S
Zn16 O15 1.899 . S
Zn16 O17 2.032 . S
Zn16 O20 2.086 1_565 S
Zn16 O25 1.977 1_565 S
O17 Zn16 2.032 . S
O17 C21 1.278 . S
C18 O19 1.203 . S
C18 O25 1.267 1_565 S
O19 C18 1.203 . S
O20 C13 1.185 1_545 S
O20 Zn16 2.086 1_545 S
C21 O17 1.278 . S
C21 O22 1.211 . S
O22 C21 1.211 . S
C23 O15 1.284 . S
C23 O24 1.273 . S
O24 C23 1.273 . S
O25 Zn16 1.977 1_545 S
O25 C18 1.267 1_545 S
C26 O27 1.160 . S
C26 O33 1.185 . S
O27 C26 1.160 . S
O28 Zn29 1.899 . S
O28 C36 1.284 . S
Zn29 O28 1.899 . S
Zn29 O30 2.032 . S
Zn29 O33 2.086 . S
Zn29 O38 1.977 . S
O30 Zn29 2.032 . S
O30 C34 1.278 . S
C31 O32 1.203 . S
C31 O38 1.267 . S
O32 C31 1.203 . S
O33 C26 1.185 . S
O33 Zn29 2.086 . S
C34 O30 1.278 . S
C34 O35 1.211 . S
O35 C34 1.211 . S
C36 O28 1.284 . S
C36 O37 1.273 . S
O37 C36 1.273 . S
O38 Zn29 1.977 . S
O38 C31 1.267 . S
C39 O40 1.160 . S
C39 O46 1.185 1_545 S
O40 C39 1.160 . S
O41 Zn42 1.899 . S
O41 C49 1.284 . S
Zn42 O41 1.899 . S
Zn42 O43 2.032 1_655 S
Zn42 O46 2.086 1_545 S
Zn42 O51 1.977 1_545 S
O43 Zn42 2.032 1_455 S
O43 C47 1.278 . S
C44 O45 1.203 . S
C44 O51 1.267 1_545 S
O45 C44 1.203 . S
O46 C39 1.185 1_565 S
O46 Zn42 2.086 1_565 S
C47 O43 1.278 . S
C47 O48 1.211 1_455 S
O48 C47 1.211 1_655 S
C49 O41 1.284 . S
C49 O50 1.273 . S
O50 C49 1.273 . S
O51 Zn42 1.977 1_565 S
O51 C44 1.267 1_565 S
C52 O53 1.160 . S
C52 O59 1.185 . S
O53 C52 1.160 . S
O54 Zn55 1.899 . S
O54 C62 1.284 . S
Zn55 O54 1.899 . S
Zn55 O56 2.032 1_655 S
Zn55 O59 2.086 . S
Zn55 O64 1.977 . S
O56 Zn55 2.032 1_455 S
O56 C60 1.278 . S
C57 O58 1.203 . S
C57 O64 1.267 . S
O58 C57 1.203 . S
O59 C52 1.185 . S
O59 Zn55 2.086 . S
C60 O56 1.278 . S
C60 O61 1.211 1_455 S
O61 C60 1.211 1_655 S
C62 O54 1.284 . S
C62 O63 1.273 . S
O63 C62 1.273 . S
O64 Zn55 1.977 . S
O64 C57 1.267 . S
C65 O66 1.160 . S
C65 O72 1.185 1_545 S
O66 C65 1.160 . S
O67 Zn68 1.899 . S
O67 C75 1.284 . S
Zn68 O67 1.899 . S
Zn68 O69 2.032 . S
Zn68 O72 2.086 1_545 S
Zn68 O77 1.977 1_545 S
O69 Zn68 2.032 . S
O69 C73 1.278 . S
C70 O71 1.203 . S
C70 O77 1.267 1_545 S
O71 C70 1.203 . S
O72 C65 1.185 1_565 S
O72 Zn68 2.086 1_565 S
C73 O69 1.278 . S
C73 O74 1.211 . S
O74 C73 1.211 . S
C75 O67 1.284 . S
C75 O76 1.273 . S
O76 C75 1.273 . S
O77 Zn68 1.977 1_565 S
O77 C70 1.267 1_565 S
C78 O79 1.160 . S
C78 O85 1.185 . S
O79 C78 1.160 . S
O80 Zn81 1.899 . S
O80 C88 1.284 . S
Zn81 O80 1.899 . S
Zn81 O82 2.032 . S
Zn81 O85 2.086 . S
Zn81 O90 1.977 . S
O82 Zn81 2.032 . S
O82 C86 1.278 . S
C83 O84 1.203 . S
C83 O90 1.267 . S
O84 C83 1.203 . S
O85 C78 1.185 . S
O85 Zn81 2.086 . S
C86 O82 1.278 . S
C86 O87 1.211 . S
O87 C86 1.211 . S
C88 O80 1.284 . S
C88 O89 1.273 . S
O89 C88 1.273 . S
O90 Zn81 1.977 . S
O90 C83 1.267 . S
C91 O92 1.160 . S
C91 O98 1.185 1_565 S
O92 C91 1.160 . S
O93 Zn94 1.899 . S
O93 C101 1.284 . S
Zn94 O93 1.899 . S
Zn94 O95 2.032 1_455 S
Zn94 O98 2.086 1_565 S
Zn94 O103 1.977 1_565 S
O95 Zn94 2.032 1_655 S
O95 C99 1.278 . S
C96 O97 1.203 . S
C96 O103 1.267 1_565 S
O97 C96 1.203 . S
O98 C91 1.185 1_545 S
O98 Zn94 2.086 1_545 S
C99 O95 1.278 . S
C99 O100 1.211 1_655 S
O100 C99 1.211 1_455 S
C101 O93 1.284 . S
C101 O102 1.273 . S
O102 C101 1.273 . S
O103 Zn94 1.977 1_545 S
O103 C96 1.267 1_545 S
C5 C34 1.112 . S
C47 C18 1.112 1_545 S
C31 C8 1.112 . S
C44 C21 1.112 1_545 S
C86 C57 1.112 . S
C70 C99 1.112 1_545 S
C83 C60 1.112 . S
C96 C73 1.112 1_565 S
C0 C52 1.683 1_455 S
C13 C65 1.682 1_565 S
C26 C78 1.682 1_554 S
C91 C39 1.682 1_466 S
C10 C23 1.760 . S
C49 C36 1.760 . S
C75 C62 1.760 . S
C88 C101 1.760 . S
