# Generated by pormake.
# Topology wfs, (7)-cn, num edge types: 1
# Building blocks:
#     Node 0, Type 0, BuildingBlock: NUHQUE_clean_sbu_2, # of connection points: 7
#     Node 1, Type 0, BuildingBlock: NUHQUE_clean_sbu_2, # of connection points: 7
#     Node 2, Type 0, BuildingBlock: NUHQUE_clean_sbu_2, # of connection points: 7
#     Node 3, Type 0, BuildingBlock: NUHQUE_clean_sbu_2, # of connection points: 7
#     Node 4, Type 0, BuildingBlock: NUHQUE_clean_sbu_2, # of connection points: 7
#     Node 5, Type 0, BuildingBlock: NUHQUE_clean_sbu_2, # of connection points: 7
#     Node 6, Type 0, BuildingBlock: NUHQUE_clean_sbu_2, # of connection points: 7
#     Node 7, Type 0, BuildingBlock: NUHQUE_clean_sbu_2, # of connection points: 7
#     Edge 8, Type (0, 0), None
#     Edge 9, Type (0, 0), None
#     Edge 10, Type (0, 0), None
#     Edge 11, Type (0, 0), None
#     Edge 12, Type (0, 0), None
#     Edge 13, Type (0, 0), None
#     Edge 14, Type (0, 0), None
#     Edge 15, Type (0, 0), None
#     Edge 16, Type (0, 0), None
#     Edge 17, Type (0, 0), None
#     Edge 18, Type (0, 0), None
#     Edge 19, Type (0, 0), None
#     Edge 20, Type (0, 0), None
#     Edge 21, Type (0, 0), None
#     Edge 22, Type (0, 0), None
#     Edge 23, Type (0, 0), None
#     Edge 24, Type (0, 0), None
#     Edge 25, Type (0, 0), None
#     Edge 26, Type (0, 0), None
#     Edge 27, Type (0, 0), None
#     Edge 28, Type (0, 0), None
#     Edge 29, Type (0, 0), None
#     Edge 30, Type (0, 0), None
#     Edge 31, Type (0, 0), None
#     Edge 32, Type (0, 0), None
#     Edge 33, Type (0, 0), None
#     Edge 34, Type (0, 0), None
#     Edge 35, Type (0, 0), None
# Relax obj value: 0.310
# Max RMSD: 0.183
# Mean RMSD: 0.183
data_MOF--net-wfs--node1-NUHQUE_clean_sbu_2--edge1-none
_symmetry_space_group_name_H-M    P1
_symmetry_Int_Tables_number       1
_symmetry_cell_setting            triclinic
loop_
_symmetry_equiv_pos_as_xyz
'x, y, z'
_cell_length_a     14.446011
_cell_length_b     21.793168
_cell_length_c     15.435382
_cell_angle_alpha  90.001052
_cell_angle_beta   89.999553
_cell_angle_gamma 90.001441
loop_
_atom_site_label
_atom_site_type_symbol
_atom_site_fract_x
_atom_site_fract_y
_atom_site_fract_z
_atom_type_partial_charge
O0 O 0.27765 0.97693 0.32542 0.0
Tb1 Tb 0.28632 0.03915 0.21658 0.0
Eu2 Eu 0.29021 0.15836 0.08642 0.0
C3 C 0.30098 0.91922 0.31602 0.0
O4 O 0.3591 0.90451 0.25398 0.0
C5 C 0.37868 0.02617 0.04813 0.0
O6 O 0.20704 0.21096 0.98441 0.0
C7 C 0.4476 0.21053 0.12295 0.0
C8 C 0.11992 0.23071 0.98602 0.0
O9 O 0.09132 0.26427 0.9207 0.0
C10 C 0.19116 0.15749 0.27485 0.0
C11 C 0.48043 0.26773 0.1629 0.0
C12 C 0.57289 0.27379 0.19149 0.0
C13 C 0.60441 0.33015 0.22499 0.0
C14 C 0.54275 0.37992 0.22812 0.0
C15 C 0.44869 0.37246 0.20689 0.0
C16 C 0.41812 0.31642 0.17392 0.0
O17 O 0.40222 0.02743 0.13036 0.0
O18 O 0.31709 0.06658 1.02099 0.0
O19 O 0.19827 0.96829 0.16319 0.0
O20 O 0.16533 0.06086 0.13822 0.0
C21 C 0.13923 0.00453 0.12664 0.0
O22 O 0.18472 0.1734 0.19295 0.0
O23 O 0.25432 0.11744 0.29889 0.0
O24 O 0.40424 0.21726 0.04866 0.0
O25 O 0.4069 0.17088 0.17469 0.0
H26 H 0.61923 0.2347 0.18926 0.0
H27 H 0.5662 0.42288 0.2557 0.0
H28 H 0.34558 0.31044 0.15772 0.0
O29 O 0.27762 0.01573 0.72532 0.0
Tb30 Tb 0.28632 0.95352 0.83417 0.0
Eu31 Eu 0.2902 0.83428 0.96437 0.0
C32 C 0.30096 0.07344 0.7347 0.0
O33 O 0.3591 0.08815 0.79673 0.0
C34 C 0.37871 0.96646 1.00261 0.0
O35 O 0.20702 0.78168 0.06637 0.0
C36 C 0.44759 0.7821 0.92784 0.0
C37 C 0.1199 0.76194 0.06477 0.0
O38 O 0.09129 0.72838 0.13008 0.0
C39 C 0.19117 0.83516 0.77592 0.0
C40 C 0.48041 0.72491 0.88787 0.0
C41 C 0.57288 0.71886 0.85929 0.0
C42 C 0.6044 0.6625 0.82578 0.0
C43 C 0.54274 0.61273 0.82263 0.0
C44 C 0.44867 0.62018 0.84386 0.0
C45 C 0.4181 0.67622 0.87684 0.0
O46 O 0.40222 0.96527 0.92037 0.0
O47 O 0.31713 0.92606 0.0298 0.0
O48 O 0.19826 0.02437 0.88756 0.0
O49 O 0.16535 0.9318 0.91255 0.0
C50 C 0.13923 0.98813 0.92412 0.0
O51 O 0.18472 0.81926 0.85783 0.0
O52 O 0.25434 0.87521 0.75189 0.0
O53 O 0.40422 0.77537 1.00212 0.0
O54 O 0.40689 0.82176 0.8761 0.0
H55 H 0.61922 0.75794 0.86153 0.0
H56 H 0.56619 0.56977 0.79505 0.0
H57 H 0.34556 0.6822 0.89303 0.0
O58 O 0.90478 0.01569 0.32545 0.0
Tb59 Tb 0.89611 0.9535 0.21659 0.0
Eu60 Eu 0.89219 0.83429 0.08642 0.0
C61 C 0.88143 0.0734 0.31609 0.0
O62 O 0.82326 0.08811 0.25408 0.0
C63 C 0.80375 0.96649 0.04813 0.0
O64 O 0.97536 0.78168 0.9844 0.0
C65 C 0.73478 0.78212 0.12293 0.0
C66 C 1.06247 0.76193 0.98602 0.0
O67 O 1.09113 0.72839 0.9207 0.0
C68 C 0.99123 0.83514 0.27486 0.0
C69 C 0.70196 0.72493 0.1629 0.0
C70 C 0.60949 0.71887 0.19147 0.0
C71 C 0.57798 0.66252 0.225 0.0
C72 C 0.63965 0.61275 0.22817 0.0
C73 C 0.73371 0.62021 0.20694 0.0
C74 C 0.76428 0.67624 0.17394 0.0
O75 O 0.78021 0.96523 0.13037 0.0
O76 O 0.86533 0.92607 1.02099 0.0
O77 O 0.98416 0.02439 0.16328 0.0
O78 O 1.01708 0.93175 0.13822 0.0
C79 C 1.04316 0.9881 0.12679 0.0
O80 O 0.99766 0.81922 0.19295 0.0
O81 O 0.92807 0.8752 0.29889 0.0
O82 O 0.77816 0.77538 0.04865 0.0
O83 O 0.77548 0.82178 0.17467 0.0
H84 H 0.56315 0.75796 0.18923 0.0
H85 H 0.61621 0.5698 0.25578 0.0
H86 H 0.83681 0.68223 0.15775 0.0
O87 O 0.9048 0.97695 0.72529 0.0
Tb88 Tb 0.8961 0.03914 0.83417 0.0
Eu89 Eu 0.89219 0.15838 0.96438 0.0
C90 C 0.88144 0.91924 0.73465 0.0
O91 O 0.82326 0.90453 0.79664 0.0
C92 C 0.80372 0.02619 1.00262 0.0
O93 O 0.97538 0.21098 0.06638 0.0
C94 C 0.7348 0.21055 0.92786 0.0
C95 C 1.0625 0.23073 0.06476 0.0
O96 O 1.09115 0.26427 0.13008 0.0
C97 C 0.99121 0.15751 0.77592 0.0
C98 C 0.70198 0.26774 0.88788 0.0
C99 C 0.60951 0.27379 0.85931 0.0
C100 C 0.578 0.33014 0.82577 0.0
C101 C 0.63967 0.3799 0.82258 0.0
C102 C 0.73374 0.37245 0.8438 0.0
C103 C 0.7643 0.31642 0.87681 0.0
O104 O 0.78021 0.02737 0.92038 0.0
O105 O 0.86529 0.0666 0.0298 0.0
O106 O 0.98417 0.96825 0.88747 0.0
O107 O 1.01707 0.06089 0.91256 0.0
C108 C 1.04316 0.00454 0.92397 0.0
O109 O 0.99766 0.17342 0.85783 0.0
O110 O 0.92805 0.11745 0.75189 0.0
O111 O 0.77818 0.2173 1.00214 0.0
O112 O 0.77548 0.17088 0.87613 0.0
H113 H 0.56316 0.2347 0.86158 0.0
H114 H 0.61623 0.42285 0.79497 0.0
H115 H 0.83684 0.31043 0.893 0.0
O116 O 0.77766 0.47689 0.82539 0.0
Tb117 Tb 0.78631 0.53914 0.71658 0.0
Eu118 Eu 0.7902 0.65836 0.58641 0.0
C119 C 0.80101 0.41918 0.81596 0.0
O120 O 0.85907 0.40444 0.75388 0.0
C121 C 0.87868 0.52617 0.54813 0.0
O122 O 0.70704 0.71097 0.4844 0.0
C123 C 0.9476 0.71054 0.62293 0.0
C124 C 0.61992 0.73071 0.48602 0.0
O125 O 0.59131 0.76428 0.42071 0.0
C126 C 0.69119 0.6575 0.77485 0.0
C127 C 0.98043 0.76774 0.66288 0.0
C128 C 1.07289 0.77379 0.69147 0.0
C129 C 0.1044 0.83016 0.72496 0.0
C130 C 1.04277 0.87994 0.72807 0.0
C131 C 0.94871 0.87249 0.70683 0.0
C132 C 0.91812 0.81644 0.67388 0.0
O133 O 0.90221 0.52743 0.63036 0.0
O134 O 0.81708 0.56658 0.52099 0.0
O135 O 0.69827 0.46829 0.66316 0.0
O136 O 0.66533 0.56085 0.63822 0.0
C137 C 0.63923 0.50453 0.62663 0.0
O138 O 0.68472 0.67341 0.69295 0.0
O139 O 0.75427 0.6174 0.79893 0.0
O140 O 0.90423 0.71726 0.54864 0.0
O141 O 0.90689 0.6709 0.67468 0.0
H142 H 0.11922 0.7347 0.68927 0.0
H143 H 1.06623 0.9229 0.75564 0.0
H144 H 0.84558 0.81046 0.65768 0.0
O145 O 0.77762 0.51577 0.22535 0.0
Tb146 Tb 0.78631 0.45353 0.33417 0.0
Eu147 Eu 0.7902 0.33428 0.46438 0.0
C148 C 0.80099 0.57347 0.23477 0.0
O149 O 0.85907 0.58822 0.29683 0.0
C150 C 0.8787 0.46646 0.50261 0.0
O151 O 0.70701 0.28168 0.56638 0.0
C152 C 0.94758 0.28209 0.42785 0.0
C153 C 0.61989 0.26193 0.56477 0.0
O154 O 0.59128 0.22837 0.63007 0.0
C155 C 0.6912 0.33515 0.27593 0.0
C156 C 0.98041 0.22489 0.3879 0.0
C157 C 1.07287 0.21885 0.35931 0.0
C158 C 0.10438 0.16249 0.32581 0.0
C159 C 1.04275 0.1127 0.32269 0.0
C160 C 0.94869 0.12016 0.34392 0.0
C161 C 0.9181 0.17619 0.37688 0.0
O162 O 0.90221 0.46526 0.42037 0.0
O163 O 0.81712 0.42606 0.5298 0.0
O164 O 0.69825 0.52437 0.38758 0.0
O165 O 0.66534 0.43181 0.41255 0.0
C166 C 0.63923 0.48813 0.42413 0.0
O167 O 0.68472 0.31925 0.35783 0.0
O168 O 0.75429 0.37525 0.25185 0.0
O169 O 0.90421 0.27536 0.50214 0.0
O170 O 0.90688 0.32175 0.37611 0.0
H171 H 0.1192 0.25794 0.36152 0.0
H172 H 1.06621 0.06974 0.29511 0.0
H173 H 0.84556 0.18217 0.39307 0.0
O174 O 0.40477 0.51573 0.82542 0.0
Tb175 Tb 0.39612 0.45351 0.71659 0.0
Eu176 Eu 0.39219 0.33428 0.58641 0.0
C177 C 0.38139 0.57344 0.81603 0.0
O178 O 0.32329 0.58818 0.75399 0.0
C179 C 0.30375 0.46649 0.54813 0.0
O180 O 0.47536 0.28168 0.48439 0.0
C181 C 0.23479 0.28211 0.62291 0.0
C182 C 0.56248 0.26192 0.48602 0.0
O183 O 0.59113 0.22838 0.4207 0.0
C184 C 0.49119 0.33513 0.77486 0.0
C185 C 0.20196 0.22491 0.66287 0.0
C186 C 0.1095 0.21887 0.69146 0.0
C187 C 1.07799 0.16251 0.72497 0.0
C188 C 0.13963 0.11273 0.72811 0.0
C189 C 0.23369 0.12019 0.70687 0.0
C190 C 0.26427 0.17622 0.6739 0.0
O191 O 0.28022 0.46523 0.63037 0.0
O192 O 0.36534 0.42607 0.52099 0.0
O193 O 0.48416 0.52439 0.66326 0.0
O194 O 0.51709 0.43176 0.63822 0.0
C195 C 0.54316 0.4881 0.62677 0.0
O196 O 0.49765 0.31921 0.69295 0.0
O197 O 0.42813 0.37524 0.79893 0.0
O198 O 0.27817 0.27538 0.54863 0.0
O199 O 0.27549 0.32177 0.67466 0.0
H200 H 1.06316 0.25795 0.68923 0.0
H201 H 0.11619 0.06977 0.75571 0.0
H202 H 0.33681 0.1822 0.65771 0.0
O203 O 0.4048 0.47691 0.22533 0.0
Tb204 Tb 0.39611 0.53912 0.33417 0.0
Eu205 Eu 0.3922 0.65838 0.46439 0.0
C206 C 0.38141 0.41921 0.23471 0.0
O207 O 0.32329 0.40446 0.29674 0.0
C208 C 0.30372 0.52619 0.50262 0.0
O209 O 0.47539 0.71098 0.5664 0.0
C210 C 0.23481 0.71056 0.42788 0.0
C211 C 0.5625 0.73074 0.56477 0.0
O212 O 0.59116 0.76429 0.63008 0.0
C213 C 0.49118 0.65752 0.27593 0.0
C214 C 0.20198 0.76775 0.38791 0.0
C215 C 0.10952 0.7738 0.35933 0.0
C216 C 1.07801 0.83015 0.3258 0.0
C217 C 0.13965 0.87993 0.32264 0.0
C218 C 0.23372 0.87247 0.34387 0.0
C219 C 0.2643 0.81644 0.37686 0.0
O220 O 0.28021 0.52738 0.42038 0.0
O221 O 0.3653 0.5666 0.52981 0.0
O222 O 0.48417 0.46825 0.38749 0.0
O223 O 0.51707 0.56089 0.41256 0.0
C224 C 0.54316 0.50454 0.42399 0.0
O225 O 0.49766 0.67343 0.35783 0.0
O226 O 0.42811 0.61741 0.25186 0.0
O227 O 0.2782 0.7173 0.50216 0.0
O228 O 0.27549 0.67089 0.37615 0.0
H229 H 1.06318 0.73471 0.36157 0.0
H230 H 0.11621 0.92288 0.29503 0.0
H231 H 0.33684 0.81046 0.39304 0.0
loop_
_geom_bond_atom_site_label_1
_geom_bond_atom_site_label_2
_geom_bond_distance
_geom_bond_site_symmetry_2
_ccdc_geom_bond_type
O0 Tb1 2.292 1_565 S
O0 C3 1.255 . S
Tb1 O0 2.292 1_545 S
Tb1 O17 2.326 . S
Tb1 O19 2.500 1_545 S
Tb1 O20 2.473 1_455 S
Tb1 O23 2.324 . S
Eu2 O6 2.290 1_554 S
Eu2 C7 2.857 . S
Eu2 O18 2.323 1_554 S
Eu2 O22 2.336 . S
Eu2 O24 2.503 . S
Eu2 O25 2.479 . S
C3 O0 1.255 . S
C3 O4 1.247 1_565 S
O4 C3 1.247 1_545 S
C5 O17 1.242 . S
C5 O18 1.258 1_554 S
O6 Eu2 2.290 1_556 S
O6 C8 1.255 1_455 S
C7 Eu2 2.857 . S
C7 C11 1.503 . S
C7 O24 1.273 . S
C7 O25 1.257 . S
C8 O6 1.255 1_655 S
C8 O9 1.247 . S
O9 C8 1.247 . S
C10 O22 1.242 . S
C10 O23 1.258 . S
C11 C7 1.503 . S
C11 C12 1.379 . S
C11 C16 1.392 . S
C12 C11 1.379 . S
C12 C13 1.404 . S
C12 H26 0.929 . S
C13 C12 1.404 . S
C13 C14 1.389 . S
C14 C13 1.389 . S
C14 C15 1.399 . S
C14 H27 0.931 . S
C15 C14 1.399 . S
C15 C16 1.390 . S
C16 C11 1.392 . S
C16 C15 1.390 . S
C16 H28 0.929 . S
O17 Tb1 2.326 . S
O17 C5 1.242 . S
O18 Eu2 2.323 1_556 S
O18 C5 1.258 1_556 S
O19 Tb1 2.500 1_565 S
O19 C21 1.273 . S
O20 Tb1 2.473 1_655 S
O20 C21 1.257 1_645 S
C21 O19 1.273 . S
C21 O20 1.257 1_465 S
O22 Eu2 2.336 . S
O22 C10 1.242 . S
O23 Tb1 2.324 . S
O23 C10 1.258 . S
O24 Eu2 2.503 . S
O24 C7 1.273 . S
O25 Eu2 2.479 . S
O25 C7 1.257 . S
H26 C12 0.929 . S
H27 C14 0.931 . S
H28 C16 0.929 . S
O29 Tb30 2.292 1_545 S
O29 C32 1.255 . S
Tb30 O29 2.292 1_565 S
Tb30 O46 2.326 . S
Tb30 O48 2.500 1_565 S
Tb30 O49 2.473 1_455 S
Tb30 O52 2.324 . S
Eu31 O35 2.290 1_556 S
Eu31 C36 2.857 . S
Eu31 O47 2.323 1_556 S
Eu31 O51 2.336 . S
Eu31 O53 2.503 . S
Eu31 O54 2.479 . S
C32 O29 1.255 . S
C32 O33 1.247 1_545 S
O33 C32 1.247 1_565 S
C34 O46 1.242 . S
C34 O47 1.258 1_556 S
O35 Eu31 2.290 1_554 S
O35 C37 1.255 1_455 S
C36 Eu31 2.857 . S
C36 C40 1.503 . S
C36 O53 1.273 . S
C36 O54 1.257 . S
C37 O35 1.255 1_655 S
C37 O38 1.247 . S
O38 C37 1.247 . S
C39 O51 1.242 . S
C39 O52 1.258 . S
C40 C36 1.503 . S
C40 C41 1.379 . S
C40 C45 1.392 . S
C41 C40 1.379 . S
C41 C42 1.404 . S
C41 H55 0.929 . S
C42 C41 1.404 . S
C42 C43 1.389 . S
C43 C42 1.389 . S
C43 C44 1.399 . S
C43 H56 0.931 . S
C44 C43 1.399 . S
C44 C45 1.390 . S
C45 C40 1.392 . S
C45 C44 1.390 . S
C45 H57 0.929 . S
O46 Tb30 2.326 . S
O46 C34 1.242 . S
O47 Eu31 2.323 1_554 S
O47 C34 1.258 1_554 S
O48 Tb30 2.500 1_545 S
O48 C50 1.273 . S
O49 Tb30 2.473 1_655 S
O49 C50 1.257 1_665 S
C50 O48 1.273 . S
C50 O49 1.257 1_445 S
O51 Eu31 2.336 . S
O51 C39 1.242 . S
O52 Tb30 2.324 . S
O52 C39 1.258 . S
O53 Eu31 2.503 . S
O53 C36 1.273 . S
O54 Eu31 2.479 . S
O54 C36 1.257 . S
H55 C41 0.929 . S
H56 C43 0.931 . S
H57 C45 0.929 . S
O58 Tb59 2.292 1_545 S
O58 C61 1.255 . S
Tb59 O58 2.292 1_565 S
Tb59 O75 2.326 . S
Tb59 O77 2.500 1_565 S
Tb59 O78 2.473 1_655 S
Tb59 O81 2.324 . S
Eu60 O64 2.290 1_554 S
Eu60 C65 2.857 . S
Eu60 O76 2.323 1_554 S
Eu60 O80 2.336 . S
Eu60 O82 2.503 . S
Eu60 O83 2.479 . S
C61 O58 1.255 . S
C61 O62 1.247 1_545 S
O62 C61 1.247 1_565 S
C63 O75 1.242 . S
C63 O76 1.258 1_554 S
O64 Eu60 2.290 1_556 S
O64 C66 1.255 1_655 S
C65 Eu60 2.857 . S
C65 C69 1.503 . S
C65 O82 1.273 . S
C65 O83 1.257 . S
C66 O64 1.255 1_455 S
C66 O67 1.247 . S
O67 C66 1.247 . S
C68 O80 1.242 . S
C68 O81 1.258 . S
C69 C65 1.503 . S
C69 C70 1.379 . S
C69 C74 1.392 . S
C70 C69 1.379 . S
C70 C71 1.404 . S
C70 H84 0.929 . S
C71 C70 1.404 . S
C71 C72 1.389 . S
C72 C71 1.389 . S
C72 C73 1.399 . S
C72 H85 0.931 . S
C73 C72 1.399 . S
C73 C74 1.390 . S
C74 C69 1.392 . S
C74 C73 1.390 . S
C74 H86 0.929 . S
O75 Tb59 2.326 . S
O75 C63 1.242 . S
O76 Eu60 2.323 1_556 S
O76 C63 1.258 1_556 S
O77 Tb59 2.500 1_545 S
O77 C79 1.273 . S
O78 Tb59 2.473 1_455 S
O78 C79 1.257 1_465 S
C79 O77 1.273 . S
C79 O78 1.257 1_645 S
O80 Eu60 2.336 . S
O80 C68 1.242 . S
O81 Tb59 2.324 . S
O81 C68 1.258 . S
O82 Eu60 2.503 . S
O82 C65 1.273 . S
O83 Eu60 2.479 . S
O83 C65 1.257 . S
H84 C70 0.929 . S
H85 C72 0.931 . S
H86 C74 0.929 . S
O87 Tb88 2.292 1_565 S
O87 C90 1.255 . S
Tb88 O87 2.292 1_545 S
Tb88 O104 2.326 . S
Tb88 O106 2.500 1_545 S
Tb88 O107 2.473 1_655 S
Tb88 O110 2.324 . S
Eu89 O93 2.290 1_556 S
Eu89 C94 2.857 . S
Eu89 O105 2.323 1_556 S
Eu89 O109 2.336 . S
Eu89 O111 2.503 . S
Eu89 O112 2.479 . S
C90 O87 1.255 . S
C90 O91 1.247 1_565 S
O91 C90 1.247 1_545 S
C92 O104 1.242 . S
C92 O105 1.258 1_556 S
O93 Eu89 2.290 1_554 S
O93 C95 1.255 1_655 S
C94 Eu89 2.857 . S
C94 C98 1.503 . S
C94 O111 1.273 . S
C94 O112 1.257 . S
C95 O93 1.255 1_455 S
C95 O96 1.247 . S
O96 C95 1.247 . S
C97 O109 1.242 . S
C97 O110 1.258 . S
C98 C94 1.503 . S
C98 C99 1.379 . S
C98 C103 1.392 . S
C99 C98 1.379 . S
C99 C100 1.404 . S
C99 H113 0.929 . S
C100 C99 1.404 . S
C100 C101 1.389 . S
C101 C100 1.389 . S
C101 C102 1.399 . S
C101 H114 0.931 . S
C102 C101 1.399 . S
C102 C103 1.390 . S
C103 C98 1.392 . S
C103 C102 1.390 . S
C103 H115 0.929 . S
O104 Tb88 2.326 . S
O104 C92 1.242 . S
O105 Eu89 2.323 1_554 S
O105 C92 1.258 1_554 S
O106 Tb88 2.500 1_565 S
O106 C108 1.273 . S
O107 Tb88 2.473 1_455 S
O107 C108 1.257 1_445 S
C108 O106 1.273 . S
C108 O107 1.257 1_665 S
O109 Eu89 2.336 . S
O109 C97 1.242 . S
O110 Tb88 2.324 . S
O110 C97 1.258 . S
O111 Eu89 2.503 . S
O111 C94 1.273 . S
O112 Eu89 2.479 . S
O112 C94 1.257 . S
H113 C99 0.929 . S
H114 C101 0.931 . S
H115 C103 0.929 . S
O116 Tb117 2.292 . S
O116 C119 1.255 . S
Tb117 O116 2.292 . S
Tb117 O133 2.326 . S
Tb117 O135 2.500 . S
Tb117 O136 2.473 . S
Tb117 O139 2.324 . S
Eu118 O122 2.292 . S
Eu118 C123 2.852 . S
Eu118 O134 2.324 . S
Eu118 O138 2.326 . S
Eu118 O140 2.500 . S
Eu118 O141 2.473 . S
C119 O116 1.255 . S
C119 O120 1.247 . S
O120 C119 1.247 . S
C121 O133 1.242 . S
C121 O134 1.258 . S
O122 Eu118 2.292 . S
O122 C124 1.255 . S
C123 Eu118 2.852 . S
C123 C127 1.503 . S
C123 O140 1.273 . S
C123 O141 1.257 . S
C124 O122 1.255 . S
C124 O125 1.247 . S
O125 C124 1.247 . S
C126 O138 1.242 . S
C126 O139 1.258 . S
C127 C123 1.503 . S
C127 C128 1.379 . S
C127 C132 1.392 . S
C128 C127 1.379 . S
C128 C129 1.404 . S
C128 H142 0.929 . S
C129 C128 1.404 . S
C129 C130 1.389 . S
C130 C129 1.389 . S
C130 C131 1.399 . S
C130 H143 0.931 . S
C131 C130 1.399 . S
C131 C132 1.390 . S
C132 C127 1.392 . S
C132 C131 1.390 . S
C132 H144 0.929 . S
O133 Tb117 2.326 . S
O133 C121 1.242 . S
O134 Eu118 2.324 . S
O134 C121 1.258 . S
O135 Tb117 2.500 . S
O135 C137 1.273 . S
O136 Tb117 2.473 . S
O136 C137 1.257 . S
C137 O135 1.273 . S
C137 O136 1.257 . S
O138 Eu118 2.326 . S
O138 C126 1.242 . S
O139 Tb117 2.324 . S
O139 C126 1.258 . S
O140 Eu118 2.500 . S
O140 C123 1.273 . S
O141 Eu118 2.473 . S
O141 C123 1.257 . S
H142 C128 0.929 . S
H143 C130 0.931 . S
H144 C132 0.929 . S
O145 Tb146 2.292 . S
O145 C148 1.255 . S
Tb146 O145 2.292 . S
Tb146 O162 2.326 . S
Tb146 O164 2.500 . S
Tb146 O165 2.473 . S
Tb146 O168 2.324 . S
Eu147 O151 2.292 . S
Eu147 C152 2.852 . S
Eu147 O163 2.324 . S
Eu147 O167 2.326 . S
Eu147 O169 2.500 . S
Eu147 O170 2.473 . S
C148 O145 1.255 . S
C148 O149 1.247 . S
O149 C148 1.247 . S
C150 O162 1.242 . S
C150 O163 1.258 . S
O151 Eu147 2.292 . S
O151 C153 1.255 . S
C152 Eu147 2.852 . S
C152 C156 1.503 . S
C152 O169 1.273 . S
C152 O170 1.257 . S
C153 O151 1.255 . S
C153 O154 1.247 . S
O154 C153 1.247 . S
C155 O167 1.242 . S
C155 O168 1.258 . S
C156 C152 1.503 . S
C156 C157 1.379 . S
C156 C161 1.392 . S
C157 C156 1.379 . S
C157 C158 1.404 . S
C157 H171 0.929 . S
C158 C157 1.404 . S
C158 C159 1.389 . S
C159 C158 1.389 . S
C159 C160 1.399 . S
C159 H172 0.931 . S
C160 C159 1.399 . S
C160 C161 1.390 . S
C161 C156 1.392 . S
C161 C160 1.390 . S
C161 H173 0.929 . S
O162 Tb146 2.326 . S
O162 C150 1.242 . S
O163 Eu147 2.324 . S
O163 C150 1.258 . S
O164 Tb146 2.500 . S
O164 C166 1.273 . S
O165 Tb146 2.473 . S
O165 C166 1.257 . S
C166 O164 1.273 . S
C166 O165 1.257 . S
O167 Eu147 2.326 . S
O167 C155 1.242 . S
O168 Tb146 2.324 . S
O168 C155 1.258 . S
O169 Eu147 2.500 . S
O169 C152 1.273 . S
O170 Eu147 2.473 . S
O170 C152 1.257 . S
H171 C157 0.929 . S
H172 C159 0.931 . S
H173 C161 0.929 . S
O174 Tb175 2.292 . S
O174 C177 1.255 . S
Tb175 O174 2.292 . S
Tb175 O191 2.326 . S
Tb175 O193 2.500 . S
Tb175 O194 2.473 . S
Tb175 O197 2.324 . S
Eu176 O180 2.292 . S
Eu176 C181 2.852 . S
Eu176 O192 2.324 . S
Eu176 O196 2.326 . S
Eu176 O198 2.500 . S
Eu176 O199 2.473 . S
C177 O174 1.255 . S
C177 O178 1.247 . S
O178 C177 1.247 . S
C179 O191 1.242 . S
C179 O192 1.258 . S
O180 Eu176 2.292 . S
O180 C182 1.255 . S
C181 Eu176 2.852 . S
C181 C185 1.503 . S
C181 O198 1.273 . S
C181 O199 1.257 . S
C182 O180 1.255 . S
C182 O183 1.247 . S
O183 C182 1.247 . S
C184 O196 1.242 . S
C184 O197 1.258 . S
C185 C181 1.503 . S
C185 C186 1.379 . S
C185 C190 1.392 . S
C186 C185 1.379 . S
C186 C187 1.404 . S
C186 H200 0.929 . S
C187 C186 1.404 . S
C187 C188 1.389 . S
C188 C187 1.389 . S
C188 C189 1.399 . S
C188 H201 0.931 . S
C189 C188 1.399 . S
C189 C190 1.390 . S
C190 C185 1.392 . S
C190 C189 1.390 . S
C190 H202 0.929 . S
O191 Tb175 2.326 . S
O191 C179 1.242 . S
O192 Eu176 2.324 . S
O192 C179 1.258 . S
O193 Tb175 2.500 . S
O193 C195 1.273 . S
O194 Tb175 2.473 . S
O194 C195 1.257 . S
C195 O193 1.273 . S
C195 O194 1.257 . S
O196 Eu176 2.326 . S
O196 C184 1.242 . S
O197 Tb175 2.324 . S
O197 C184 1.258 . S
O198 Eu176 2.500 . S
O198 C181 1.273 . S
O199 Eu176 2.473 . S
O199 C181 1.257 . S
H200 C186 0.929 . S
H201 C188 0.931 . S
H202 C190 0.929 . S
O203 Tb204 2.292 . S
O203 C206 1.255 . S
Tb204 O203 2.292 . S
Tb204 O220 2.326 . S
Tb204 O222 2.500 . S
Tb204 O223 2.473 . S
Tb204 O226 2.324 . S
Eu205 O209 2.292 . S
Eu205 C210 2.852 . S
Eu205 O221 2.324 . S
Eu205 O225 2.326 . S
Eu205 O227 2.500 . S
Eu205 O228 2.473 . S
C206 O203 1.255 . S
C206 O207 1.247 . S
O207 C206 1.247 . S
C208 O220 1.242 . S
C208 O221 1.258 . S
O209 Eu205 2.292 . S
O209 C211 1.255 . S
C210 Eu205 2.852 . S
C210 C214 1.503 . S
C210 O227 1.273 . S
C210 O228 1.257 . S
C211 O209 1.255 . S
C211 O212 1.247 . S
O212 C211 1.247 . S
C213 O225 1.242 . S
C213 O226 1.258 . S
C214 C210 1.503 . S
C214 C215 1.379 . S
C214 C219 1.392 . S
C215 C214 1.379 . S
C215 C216 1.404 . S
C215 H229 0.929 . S
C216 C215 1.404 . S
C216 C217 1.389 . S
C217 C216 1.389 . S
C217 C218 1.399 . S
C217 H230 0.931 . S
C218 C217 1.399 . S
C218 C219 1.390 . S
C219 C214 1.392 . S
C219 C218 1.390 . S
C219 H231 0.929 . S
O220 Tb204 2.326 . S
O220 C208 1.242 . S
O221 Eu205 2.324 . S
O221 C208 1.258 . S
O222 Tb204 2.500 . S
O222 C224 1.273 . S
O223 Tb204 2.473 . S
O223 C224 1.257 . S
C224 O222 1.273 . S
C224 O223 1.257 . S
O225 Eu205 2.326 . S
O225 C213 1.242 . S
O226 Tb204 2.324 . S
O226 C213 1.258 . S
O227 Eu205 2.500 . S
O227 C210 1.273 . S
O228 Eu205 2.473 . S
O228 C210 1.257 . S
H229 C215 0.929 . S
H230 C217 0.931 . S
H231 C219 0.929 . S
C3 C218 2.809 . S
C39 C129 2.848 1_455 S
C160 C61 2.809 . S
C97 C187 2.848 1_655 S
C32 C189 2.809 . S
C216 C68 2.848 1_455 S
C90 C131 2.809 . S
C158 C10 2.848 1_655 S
C119 C102 2.809 . S
C13 C155 2.848 . S
C44 C177 2.809 . S
C213 C71 2.848 . S
C148 C73 2.809 . S
C184 C100 2.848 . S
C206 C15 2.809 . S
C42 C126 2.848 . S
C21 C79 0.669 1_465 S
C108 C50 0.669 1_665 S
C137 C195 0.669 . S
C166 C224 0.669 . S
C5 C34 2.667 1_544 S
C37 C66 1.620 1_654 S
C92 C63 2.667 1_546 S
C8 C95 1.620 1_656 S
C150 C121 2.667 . S
C182 C153 1.620 . S
C179 C208 2.667 . S
C124 C211 1.620 . S
