# Generated by pormake.
# Topology sxc, (6)-cn, num edge types: 1
# Building blocks:
#     Node 0, Type 0, BuildingBlock: BETFAJ_clean_sbu_0, # of connection points: 6
#     Node 1, Type 0, BuildingBlock: BETFAJ_clean_sbu_0, # of connection points: 6
#     Node 2, Type 0, BuildingBlock: BETFAJ_clean_sbu_0, # of connection points: 6
#     Edge 3, Type (0, 0), BuildingBlock: OJICUG_clean_linker_0, # of connection points: 2
#     Edge 4, Type (0, 0), BuildingBlock: OJICUG_clean_linker_0, # of connection points: 2
#     Edge 5, Type (0, 0), BuildingBlock: OJICUG_clean_linker_0, # of connection points: 2
#     Edge 6, Type (0, 0), BuildingBlock: OJICUG_clean_linker_0, # of connection points: 2
#     Edge 7, Type (0, 0), BuildingBlock: OJICUG_clean_linker_0, # of connection points: 2
#     Edge 8, Type (0, 0), BuildingBlock: OJICUG_clean_linker_0, # of connection points: 2
#     Edge 9, Type (0, 0), BuildingBlock: OJICUG_clean_linker_0, # of connection points: 2
#     Edge 10, Type (0, 0), BuildingBlock: OJICUG_clean_linker_0, # of connection points: 2
#     Edge 11, Type (0, 0), BuildingBlock: OJICUG_clean_linker_0, # of connection points: 2
# Relax obj value: 0.516
# Max RMSD: 0.192
# Mean RMSD: 0.104
data_MOF--net-sxc--node1-BETFAJ_clean_sbu_0--edge1-OJICUG_clean_linker_0
_symmetry_space_group_name_H-M    P1
_symmetry_Int_Tables_number       1
_symmetry_cell_setting            triclinic
loop_
_symmetry_equiv_pos_as_xyz
'x, y, z'
_cell_length_a     11.721803
_cell_length_b     12.499959
_cell_length_c     33.093533
_cell_angle_alpha  93.583164
_cell_angle_beta   90.071679
_cell_angle_gamma 80.091169
loop_
_atom_site_label
_atom_site_type_symbol
_atom_site_fract_x
_atom_site_fract_y
_atom_site_fract_z
_atom_type_partial_charge
Sm0 Sm 0.14419 0.24143 0.00523 0.0
Sm1 Sm 1.02968 0.25915 0.00356 0.0
C2 C 0.3617 0.26113 -0.01094 0.0
C3 C 0.42958 0.34463 0.00173 0.0
C4 C 0.52303 0.3594 0.97771 0.0
C5 C 0.56944 0.45481 0.98306 0.0
C6 C 0.52192 0.53691 0.01229 0.0
C7 C 0.43338 0.51819 0.03816 0.0
C8 C 0.3875 0.42259 0.0329 0.0
C9 C 0.1355 0.22899 0.08825 0.0
C10 C 0.1069 0.50469 -0.00929 0.0
C11 C 0.81249 0.2394 0.02077 0.0
C12 C 0.7448 1.15364 0.01103 0.0
C13 C 0.65365 1.14198 0.03677 0.0
C14 C 0.60814 1.04568 0.03444 0.0
C15 C 0.6544 0.95961 0.00658 0.0
C16 C 0.74053 0.97481 0.97905 0.0
C17 C 0.78543 1.07121 0.98127 0.0
C18 C 1.04039 0.27474 0.92052 0.0
C19 C 1.06791 0.99605 0.01879 0.0
O20 O 0.27431 0.29627 0.9665 0.0
O21 O 0.334 1.20082 0.01681 0.0
O22 O 0.08106 0.30417 0.06836 0.0
O23 O 0.19027 1.15185 0.06391 0.0
O24 O 0.07159 0.43535 0.01498 0.0
O25 O 0.06969 0.43931 0.01635 0.0
O26 O 0.9001 1.20934 0.04387 0.0
O27 O 0.83983 0.29388 -0.00888 0.0
O28 O 0.09319 1.19826 0.94022 0.0
O29 O 0.98586 0.3513 0.9452 0.0
O30 O 0.10213 1.06522 -0.0058 0.0
O31 O 0.10395 1.06132 -0.00714 0.0
H32 H 0.55535 0.30032 0.95324 0.0
H33 H 0.63721 0.46721 0.96255 0.0
H34 H 0.39626 0.57939 0.0613 0.0
H35 H 0.31435 0.41268 0.05145 0.0
H36 H 0.6225 1.20457 0.06023 0.0
H37 H 0.542 1.03612 0.05611 0.0
H38 H 0.7764 0.91051 0.95684 0.0
H39 H 0.85677 1.07863 0.96144 0.0
Sm40 Sm 0.10024 0.33865 0.34483 0.0
Sm41 Sm 0.15165 1.12474 0.33956 0.0
C42 C 0.07959 0.53603 0.32082 0.0
C43 C 1.0631 0.55657 0.27742 0.0
C44 C 0.14604 0.50541 0.2486 0.0
C45 C 0.12564 0.51254 0.20727 0.0
C46 C 1.02199 0.5727 0.19295 0.0
C47 C 0.93585 0.61756 0.22222 0.0
C48 C 0.95681 0.61067 0.26372 0.0
C49 C 0.0922 0.27127 0.42324 0.0
C50 C 0.87833 0.22573 0.34465 0.0
C51 C 0.16741 0.91688 0.32162 0.0
C52 C 0.1519 0.88342 0.27881 0.0
C53 C 0.2205 0.79109 0.26026 0.0
C54 C 0.21301 0.76823 0.2185 0.0
C55 C 0.13664 0.83764 0.19431 0.0
C56 C 0.07463 0.93415 0.21293 0.0
C57 C 0.08086 0.95578 0.25462 0.0
C58 C 0.16002 1.20689 0.26324 0.0
C59 C 0.37529 0.2271 0.35083 0.0
O60 O 0.17998 0.48103 0.33041 0.0
O61 O 0.99374 0.50259 0.33841 0.0
O62 O 0.16844 0.22992 0.3971 0.0
O63 O 1.02311 0.35259 0.4093 0.0
O64 O 0.91685 0.30692 0.32921 0.0
O65 O 0.95577 1.14753 0.35847 0.0
O66 O 0.2595 0.96037 0.32836 0.0
O67 O 0.07563 0.97311 0.33996 0.0
O68 O 0.07869 0.23302 0.28865 0.0
O69 O 0.24334 1.14364 0.27928 0.0
O70 O 0.33194 1.1448 0.36357 0.0
O71 O 0.30253 0.30764 0.33597 0.0
H72 H 0.22726 0.45839 0.25778 0.0
H73 H 0.19398 0.47303 0.18679 0.0
H74 H 0.8532 0.66248 0.21357 0.0
H75 H 0.88927 0.64702 0.28516 0.0
H76 H 0.27904 0.73631 0.27804 0.0
H77 H 0.26285 0.69265 0.20586 0.0
H78 H 1.01678 0.9907 0.19561 0.0
H79 H 1.02964 1.02987 0.26799 0.0
Sm80 Sm 0.10947 1.13416 0.67511 0.0
Sm81 Sm 1.05393 0.36074 0.66534 0.0
C82 C 0.11232 0.93412 0.69552 0.0
C83 C 1.02325 0.86801 0.68657 0.0
C84 C 0.97741 0.81741 0.71785 0.0
C85 C 0.87393 0.77798 0.71214 0.0
C86 C 0.81556 0.78943 0.67514 0.0
C87 C 0.86587 0.83332 0.64306 0.0
C88 C 0.96843 0.87319 0.6488 0.0
C89 C 0.11021 1.1827 0.59438 0.0
C90 C 0.83163 0.24693 0.66716 0.0
C91 C 1.0526 0.55951 0.64382 0.0
C92 C 0.14313 0.62451 0.65199 0.0
C93 C 0.18835 0.67414 0.6203 0.0
C94 C 0.2924 0.71297 0.62539 0.0
C95 C 0.35205 0.70169 0.66216 0.0
C96 C 0.30251 0.65864 0.69461 0.0
C97 C 0.19937 0.61949 0.6895 0.0
C98 C 1.04633 0.31476 0.74592 0.0
C99 C 0.33163 0.24759 0.67376 0.0
O100 O 0.07764 1.01893 0.7203 0.0
O101 O 0.17038 0.95664 0.66437 0.0
O102 O 1.0339 0.22344 0.62042 0.0
O103 O 0.18898 1.11261 0.61038 0.0
O104 O 0.90644 1.16574 0.6809 0.0
O105 O 0.86975 0.33021 0.6529 0.0
O106 O 0.08523 0.47381 0.61923 0.0
O107 O 0.99528 0.53867 0.67542 0.0
O108 O 0.12553 0.27185 0.72098 0.0
O109 O 0.97082 0.3855 0.72881 0.0
O110 O 0.25699 0.32875 0.65998 0.0
O111 O 0.29344 1.16425 0.68785 0.0
H112 H 1.01791 0.81426 0.7473 0.0
H113 H 0.83626 0.7446 0.73736 0.0
H114 H 0.82314 0.8413 0.61408 0.0
H115 H 1.0013 0.91321 0.6243 0.0
H116 H 0.14675 0.67715 0.59104 0.0
H117 H 0.32947 0.74573 0.5999 0.0
H118 H 0.34622 0.65083 0.72342 0.0
H119 H 0.16703 0.58021 0.7143 0.0
C120 C 1.03635 0.692 0.03256 0.0
C121 C 0.09573 0.63049 -0.00079 0.0
H122 H 0.98131 0.84997 0.06394 0.0
C123 C 0.14615 0.6927 0.97167 0.0
H124 H 0.99433 0.65082 0.05451 0.0
C125 C 0.13826 0.80871 0.97696 0.0
C126 C 0.07913 0.87019 0.01038 0.0
H127 H 0.19289 0.6509 0.94544 0.0
H128 H 0.17939 0.84996 0.95477 0.0
C129 C 1.02863 0.808 0.03789 0.0
C130 C 0.58396 1.13982 0.3648 0.0
C131 C 0.50421 0.22686 0.35051 0.0
H132 H 0.76279 1.07046 0.37427 0.0
C133 C 0.54952 0.31294 0.33457 0.0
H134 H 0.55316 1.07173 0.37719 0.0
C135 C 0.66979 0.31199 0.33277 0.0
C136 C 0.74976 0.22496 0.34687 0.0
H137 H 0.4919 0.38138 0.32311 0.0
H138 H 0.70006 0.38004 0.32014 0.0
C139 C 0.7047 1.13893 0.36305 0.0
C140 C 0.67032 0.66941 0.68512 0.0
C141 C 0.69764 0.76542 0.67109 0.0
H142 H 0.53847 0.57393 0.69293 0.0
C143 C 0.61061 0.84112 0.6543 0.0
H144 H 0.73632 0.60964 0.69787 0.0
C145 C 0.4977 0.82098 0.65151 0.0
C146 C 0.47033 0.7251 0.66565 0.0
H147 H 0.62944 0.91679 0.64393 0.0
H148 H 0.43163 0.8808 0.63883 0.0
C149 C 0.55741 0.64936 0.6824 0.0
C150 C 0.62383 0.33602 0.6564 0.0
C151 C 0.70375 0.24614 0.66844 0.0
H152 H 0.4455 0.40782 0.64886 0.0
C153 C 0.65963 1.15718 0.68245 0.0
H154 H 0.65396 0.40629 0.64552 0.0
C155 C 0.53951 1.1582 0.68441 0.0
C156 C 0.45957 0.24819 0.67244 0.0
H157 H 0.71788 1.08641 0.69194 0.0
H158 H 0.5094 1.0878 0.69521 0.0
C159 C 0.50373 0.33708 0.65839 0.0
C160 C 0.50333 0.84226 0.0137 0.0
C161 C 0.61991 0.85159 0.00838 0.0
H162 H 0.38104 0.73509 0.01884 0.0
C163 C 0.70469 0.75692 0.00596 0.0
H164 H 0.43615 0.91379 0.0154 0.0
C165 C 0.67344 0.65477 0.00825 0.0
C166 C 0.55672 0.64526 0.01301 0.0
H167 H 0.79549 0.76185 0.00268 0.0
H168 H 0.74062 0.58324 0.00631 0.0
C169 C 0.472 0.74003 0.01592 0.0
C170 C 0.12321 0.60696 0.13082 0.0
C171 C 1.0153 0.60848 0.14998 0.0
H172 H 0.26237 0.69861 0.13192 0.0
C173 C 0.93601 0.70438 0.14421 0.0
H174 H 0.18114 0.53092 0.12357 0.0
C175 C 0.97921 0.80223 0.14867 0.0
C176 C 0.09988 0.79599 0.15387 0.0
H177 H 0.84388 0.70671 0.14796 0.0
H178 H 0.91874 0.87621 0.15659 0.0
C179 C 0.16956 0.70339 0.13477 0.0
C180 C 0.24101 1.16017 0.19329 0.0
C181 C 0.15134 1.21666 0.21863 0.0
H182 H 0.30514 1.11902 0.13274 0.0
C183 C 1.055 0.27841 0.20063 0.0
H184 H 0.31605 1.11092 0.20596 0.0
C185 C 1.05037 0.28547 0.15827 0.0
C186 C 0.14017 0.2279 0.13315 0.0
H187 H 0.98418 0.32229 0.21928 0.0
H188 H 0.97582 0.33428 0.14514 0.0
C189 C 0.23484 1.16468 0.15121 0.0
C190 C 1.01255 0.30375 0.49448 0.0
C191 C 0.09717 0.24792 0.46698 0.0
H192 H 0.95009 0.32712 0.55598 0.0
C193 C 0.18583 1.17 0.48181 0.0
H194 H 0.94286 0.36411 0.48414 0.0
C195 C 0.19002 1.14893 0.52309 0.0
C196 C 0.10535 1.20482 0.55055 0.0
H197 H 0.25231 1.12544 0.46152 0.0
H198 H 0.25971 1.08868 0.5335 0.0
C199 C 1.01654 0.28246 0.5357 0.0
C200 C 0.96716 0.37216 0.81566 0.0
C201 C 1.04671 0.30112 0.79043 0.0
H202 H 0.90354 0.41961 0.87591 0.0
C203 C 0.12358 1.21846 0.80831 0.0
H204 H 0.90644 0.4366 0.80304 0.0
C205 C 0.1207 1.20771 0.85048 0.0
C206 C 1.04185 0.28022 0.87561 0.0
H207 H 0.18555 1.16208 0.78973 0.0
H208 H 0.18118 1.14379 0.86347 0.0
C209 C 0.96533 0.36236 0.85756 0.0
loop_
_geom_bond_atom_site_label_1
_geom_bond_atom_site_label_2
_geom_bond_distance
_geom_bond_site_symmetry_2
_ccdc_geom_bond_type
Sm0 C2 2.846 . S
Sm0 O20 2.543 1_554 S
Sm0 O21 2.450 . S
Sm0 O22 2.681 1_455 S
Sm0 O23 2.464 . S
Sm0 O24 2.396 . S
Sm0 O28 2.386 1_554 S
Sm0 O31 2.408 1_545 S
Sm1 C11 2.843 1_556 S
Sm1 O22 2.386 1_566 S
Sm1 O25 2.408 1_565 S
Sm1 O26 2.543 1_556 S
Sm1 O27 2.450 . S
Sm1 O28 2.681 1_665 S
Sm1 O29 2.464 . S
Sm1 O30 2.396 . S
C2 Sm0 2.846 . S
C2 C3 1.506 . S
C2 O20 1.261 1_554 S
C2 O21 1.242 . S
C3 C2 1.506 . S
C3 C4 1.358 1_554 S
C3 C8 1.382 . S
C4 C3 1.358 1_556 S
C4 C5 1.385 . S
C4 H32 0.930 . S
C5 C4 1.385 . S
C5 C6 1.381 1_556 S
C5 H33 0.929 . S
C6 C5 1.381 1_554 S
C6 C7 1.351 . S
C7 C6 1.351 . S
C7 C8 1.398 . S
C7 H34 0.930 . S
C8 C3 1.382 . S
C8 C7 1.398 . S
C8 H35 0.929 . S
C9 O22 1.271 1_455 S
C9 O23 1.251 . S
C10 O24 1.252 1_655 S
C10 O25 1.272 1_554 S
C11 Sm1 2.843 1_554 S
C11 C12 1.508 . S
C11 O26 1.274 . S
C11 O27 1.227 1_554 S
C12 C11 1.508 . S
C12 C13 1.358 . S
C12 C17 1.382 1_554 S
C13 C12 1.358 . S
C13 C14 1.385 . S
C13 H36 0.930 . S
C14 C13 1.385 . S
C14 C15 1.395 . S
C14 H37 0.929 . S
C15 C14 1.395 . S
C15 C16 1.335 1_554 S
C16 C15 1.335 1_556 S
C16 C17 1.398 . S
C16 H38 0.930 . S
C17 C12 1.382 1_556 S
C17 C16 1.398 . S
C17 H39 0.929 . S
C18 O28 1.271 1_655 S
C18 O29 1.251 1_545 S
C19 O30 1.252 1_455 S
C19 O31 1.272 1_556 S
O20 Sm0 2.543 1_556 S
O20 C2 1.261 1_556 S
O21 Sm0 2.450 . S
O21 C2 1.242 . S
O22 Sm0 2.681 1_655 S
O22 Sm1 2.386 1_544 S
O22 C9 1.271 1_655 S
O23 Sm0 2.464 . S
O23 C9 1.251 . S
O24 Sm0 2.396 . S
O24 C10 1.252 1_455 S
O25 Sm1 2.408 1_545 S
O25 C10 1.272 1_556 S
O26 Sm1 2.543 1_554 S
O26 C11 1.274 . S
O27 Sm1 2.450 . S
O27 C11 1.227 1_556 S
O28 Sm0 2.386 1_556 S
O28 Sm1 2.681 1_445 S
O28 C18 1.271 1_455 S
O29 Sm1 2.464 . S
O29 C18 1.251 1_565 S
O30 Sm1 2.396 . S
O30 C19 1.252 1_655 S
O31 Sm0 2.408 1_565 S
O31 C19 1.272 1_554 S
H32 C4 0.930 . S
H33 C5 0.929 . S
H34 C7 0.930 . S
H35 C8 0.929 . S
H36 C13 0.930 . S
H37 C14 0.929 . S
H38 C16 0.930 . S
H39 C17 0.929 . S
Sm40 C42 2.851 . S
Sm40 O60 2.543 1_455 S
Sm40 O61 2.450 . S
Sm40 O62 2.681 . S
Sm40 O63 2.464 . S
Sm40 O64 2.396 1_455 S
Sm40 O68 2.386 . S
Sm40 O71 2.408 . S
Sm41 C51 2.846 1_655 S
Sm41 O62 2.386 1_665 S
Sm41 O65 2.408 . S
Sm41 O66 2.543 1_655 S
Sm41 O67 2.450 1_655 S
Sm41 O68 2.681 1_665 S
Sm41 O69 2.464 . S
Sm41 O70 2.396 1_655 S
C42 Sm40 2.851 . S
C42 C43 1.500 1_455 S
C42 O60 1.262 1_455 S
C42 O61 1.247 . S
C43 C42 1.500 1_655 S
C43 C44 1.358 . S
C43 C48 1.382 . S
C44 C43 1.358 . S
C44 C45 1.385 . S
C44 H72 0.930 . S
C45 C44 1.385 . S
C45 C46 1.395 . S
C45 H73 0.929 . S
C46 C45 1.395 . S
C46 C47 1.335 . S
C47 C46 1.335 . S
C47 C48 1.398 . S
C47 H74 0.930 . S
C48 C43 1.382 . S
C48 C47 1.398 . S
C48 H75 0.934 . S
C49 O62 1.271 . S
C49 O63 1.251 . S
C50 O64 1.252 . S
C50 O65 1.272 1_545 S
C51 Sm41 2.846 1_455 S
C51 C52 1.506 . S
C51 O66 1.261 . S
C51 O67 1.242 . S
C52 C51 1.506 . S
C52 C53 1.358 . S
C52 C57 1.382 . S
C53 C52 1.358 . S
C53 C54 1.385 . S
C53 H76 0.930 . S
C54 C53 1.385 . S
C54 C55 1.395 . S
C54 H77 0.929 . S
C55 C54 1.395 . S
C55 C56 1.335 . S
C56 C55 1.335 . S
C56 C57 1.398 . S
C56 H78 0.930 . S
C57 C52 1.382 . S
C57 C56 1.398 . S
C57 H79 0.929 . S
C58 O68 1.271 . S
C58 O69 1.251 1_445 S
C59 O70 1.252 . S
C59 O71 1.272 1_565 S
O60 Sm40 2.543 1_655 S
O60 C42 1.262 1_655 S
O61 Sm40 2.450 . S
O61 C42 1.247 . S
O62 Sm40 2.681 . S
O62 Sm41 2.386 1_445 S
O62 C49 1.271 . S
O63 Sm40 2.464 . S
O63 C49 1.251 . S
O64 Sm40 2.396 1_655 S
O64 C50 1.252 . S
O65 Sm41 2.408 . S
O65 C50 1.272 1_565 S
O66 Sm41 2.543 1_455 S
O66 C51 1.261 . S
O67 Sm41 2.450 1_455 S
O67 C51 1.242 . S
O68 Sm40 2.386 . S
O68 Sm41 2.681 1_445 S
O68 C58 1.271 . S
O69 Sm41 2.464 . S
O69 C58 1.251 1_665 S
O70 Sm41 2.396 1_455 S
O70 C59 1.252 . S
O71 Sm40 2.408 . S
O71 C59 1.272 1_545 S
H72 C44 0.930 . S
H73 C45 0.929 . S
H74 C47 0.930 . S
H75 C48 0.934 . S
H76 C53 0.930 . S
H77 C54 0.929 . S
H78 C56 0.930 . S
H79 C57 0.929 . S
Sm80 C82 2.846 1_455 S
Sm80 O100 2.543 1_455 S
Sm80 O101 2.450 1_455 S
Sm80 O102 2.681 1_565 S
Sm80 O103 2.464 . S
Sm80 O104 2.396 1_455 S
Sm80 O108 2.386 . S
Sm80 O111 2.408 . S
Sm81 C91 2.846 . S
Sm81 O102 2.386 . S
Sm81 O105 2.408 1_455 S
Sm81 O106 2.543 . S
Sm81 O107 2.450 . S
Sm81 O108 2.681 1_545 S
Sm81 O109 2.464 . S
Sm81 O110 2.396 . S
C82 Sm80 2.846 1_655 S
C82 C83 1.506 . S
C82 O100 1.261 . S
C82 O101 1.242 . S
C83 C82 1.506 . S
C83 C84 1.358 . S
C83 C88 1.382 . S
C84 C83 1.358 . S
C84 C85 1.385 . S
C84 H112 0.930 . S
C85 C84 1.385 . S
C85 C86 1.395 . S
C85 H113 0.929 . S
C86 C85 1.395 . S
C86 C87 1.335 . S
C87 C86 1.335 . S
C87 C88 1.398 . S
C87 H114 0.930 . S
C88 C83 1.382 . S
C88 C87 1.398 . S
C88 H115 0.929 . S
C89 O102 1.271 1_565 S
C89 O103 1.251 . S
C90 O104 1.252 1_545 S
C90 O105 1.272 . S
C91 Sm81 2.846 . S
C91 C92 1.506 . S
C91 O106 1.261 . S
C91 O107 1.242 . S
C92 C91 1.506 . S
C92 C93 1.358 . S
C92 C97 1.382 . S
C93 C92 1.358 . S
C93 C94 1.385 . S
C93 H116 0.930 . S
C94 C93 1.385 . S
C94 C95 1.395 . S
C94 H117 0.929 . S
C95 C94 1.395 . S
C95 C96 1.335 . S
C96 C95 1.335 . S
C96 C97 1.398 . S
C96 H118 0.930 . S
C97 C92 1.382 . S
C97 C96 1.398 . S
C97 H119 0.929 . S
C98 O108 1.271 1_545 S
C98 O109 1.251 . S
C99 O110 1.252 . S
C99 O111 1.272 1_545 S
O100 Sm80 2.543 1_655 S
O100 C82 1.261 . S
O101 Sm80 2.450 1_655 S
O101 C82 1.242 . S
O102 Sm80 2.681 1_545 S
O102 Sm81 2.386 . S
O102 C89 1.271 1_545 S
O103 Sm80 2.464 . S
O103 C89 1.251 . S
O104 Sm80 2.396 1_655 S
O104 C90 1.252 1_565 S
O105 Sm81 2.408 1_655 S
O105 C90 1.272 . S
O106 Sm81 2.543 . S
O106 C91 1.261 . S
O107 Sm81 2.450 . S
O107 C91 1.242 . S
O108 Sm80 2.386 . S
O108 Sm81 2.681 1_565 S
O108 C98 1.271 1_565 S
O109 Sm81 2.464 . S
O109 C98 1.251 . S
O110 Sm81 2.396 . S
O110 C99 1.252 . S
O111 Sm80 2.408 . S
O111 C99 1.272 1_565 S
H112 C84 0.930 . S
H113 C85 0.929 . S
H114 C87 0.930 . S
H115 C88 0.929 . S
H116 C93 0.930 . S
H117 C94 0.929 . S
H118 C96 0.930 . S
H119 C97 0.929 . S
C120 C121 1.388 1_456 S
C120 H124 0.950 1_455 S
C120 C129 1.390 . S
C121 C120 1.388 1_654 S
C121 C123 1.387 1_655 S
H122 C129 0.950 . S
C123 C121 1.387 1_455 S
C123 C125 1.390 . S
C123 H127 0.950 . S
H124 C120 0.950 1_655 S
C125 C123 1.390 . S
C125 C126 1.387 . S
C125 H128 0.950 . S
C126 C125 1.387 . S
C126 C129 1.387 1_554 S
H127 C123 0.950 . S
H128 C125 0.950 . S
C129 C120 1.390 . S
C129 H122 0.950 . S
C129 C126 1.387 1_556 S
C130 C131 1.387 . S
C130 H134 0.950 1_545 S
C130 C139 1.390 . S
C131 C130 1.387 . S
C131 C133 1.387 . S
H132 C139 0.950 . S
C133 C131 1.387 . S
C133 C135 1.390 . S
C133 H137 0.950 . S
H134 C130 0.950 1_565 S
C135 C133 1.390 . S
C135 C136 1.387 . S
C135 H138 0.950 . S
C136 C135 1.387 . S
C136 C139 1.387 . S
H137 C133 0.950 . S
H138 C135 0.950 . S
C139 C130 1.390 . S
C139 H132 0.950 . S
C139 C136 1.387 . S
C140 C141 1.387 . S
C140 H144 0.950 . S
C140 C149 1.390 . S
C141 C140 1.387 . S
C141 C143 1.387 . S
H142 C149 0.950 . S
C143 C141 1.387 . S
C143 C145 1.390 . S
C143 H147 0.950 . S
H144 C140 0.950 . S
C145 C143 1.390 . S
C145 C146 1.387 . S
C145 H148 0.950 . S
C146 C145 1.387 . S
C146 C149 1.387 . S
H147 C143 0.950 . S
H148 C145 0.950 . S
C149 C140 1.390 . S
C149 H142 0.950 . S
C149 C146 1.387 . S
C150 C151 1.387 . S
C150 H154 0.950 . S
C150 C159 1.390 . S
C151 C150 1.387 . S
C151 C153 1.387 . S
H152 C159 0.950 . S
C153 C151 1.387 . S
C153 C155 1.390 . S
C153 H157 0.952 . S
H154 C150 0.950 . S
C155 C153 1.390 . S
C155 C156 1.387 . S
C155 H158 0.950 . S
C156 C155 1.387 . S
C156 C159 1.387 . S
H157 C153 0.952 . S
H158 C155 0.950 . S
C159 C150 1.390 . S
C159 H152 0.950 . S
C159 C156 1.387 . S
C160 C161 1.387 . S
C160 H164 0.950 . S
C160 C169 1.390 . S
C161 C160 1.387 . S
C161 C163 1.387 1_554 S
H162 C169 0.950 . S
C163 C161 1.387 1_556 S
C163 C165 1.390 . S
C163 H167 0.950 . S
H164 C160 0.950 . S
C165 C163 1.390 . S
C165 C166 1.390 1_556 S
C165 H168 0.950 . S
C166 C165 1.390 1_554 S
C166 C169 1.385 . S
H167 C163 0.950 . S
H168 C165 0.950 . S
C169 C160 1.390 . S
C169 H162 0.950 . S
C169 C166 1.385 . S
C170 C171 1.387 . S
C170 H174 0.950 . S
C170 C179 1.390 1_655 S
C171 C170 1.387 . S
C171 C173 1.387 . S
H172 C179 0.950 . S
C173 C171 1.387 . S
C173 C175 1.390 1_655 S
C173 H177 0.950 . S
H174 C170 0.950 . S
C175 C173 1.390 1_455 S
C175 C176 1.387 . S
C175 H178 0.950 . S
C176 C175 1.387 . S
C176 C179 1.387 . S
H177 C173 0.950 . S
H178 C175 0.950 . S
C179 C170 1.390 1_455 S
C179 H172 0.950 . S
C179 C176 1.387 . S
C180 C181 1.387 1_665 S
C180 H184 0.950 . S
C180 C189 1.390 . S
C181 C180 1.387 1_445 S
C181 C183 1.387 . S
H182 C189 0.950 . S
C183 C181 1.387 . S
C183 C185 1.390 . S
C183 H187 0.950 . S
H184 C180 0.950 . S
C185 C183 1.390 . S
C185 C186 1.387 . S
C185 H188 0.950 . S
C186 C185 1.387 . S
C186 C189 1.387 1_445 S
H187 C183 0.950 . S
H188 C185 0.950 . S
C189 C180 1.390 . S
C189 H182 0.950 . S
C189 C186 1.387 1_665 S
C190 C191 1.387 . S
C190 H194 0.950 . S
C190 C199 1.390 . S
C191 C190 1.387 . S
C191 C193 1.387 1_545 S
H192 C199 0.950 . S
C193 C191 1.387 1_565 S
C193 C195 1.390 . S
C193 H197 0.950 . S
H194 C190 0.950 . S
C195 C193 1.390 . S
C195 C196 1.387 1_565 S
C195 H198 0.950 . S
C196 C195 1.387 1_545 S
C196 C199 1.387 . S
H197 C193 0.950 . S
H198 C195 0.950 . S
C199 C190 1.390 . S
C199 H192 0.950 . S
C199 C196 1.387 . S
C200 C201 1.387 . S
C200 H204 0.950 . S
C200 C209 1.390 . S
C201 C200 1.387 . S
C201 C203 1.387 1_545 S
H202 C209 0.950 . S
C203 C201 1.387 1_565 S
C203 C205 1.390 . S
C203 H207 0.950 . S
H204 C200 0.950 . S
C205 C203 1.390 . S
C205 C206 1.387 1_565 S
C205 H208 0.950 1_455 S
C206 C205 1.387 1_545 S
C206 C209 1.387 . S
H207 C203 0.950 . S
H208 C205 0.950 1_655 S
C209 C200 1.390 . S
C209 H202 0.950 . S
C209 C206 1.387 . S
C121 C10 4.930 . S
C126 C19 4.930 1_554 S
C131 C59 3.110 1_545 S
C136 C50 3.110 . S
C141 C86 0.590 . S
C146 C95 0.590 . S
C151 C90 3.008 . S
C156 C99 3.008 . S
C161 C15 0.901 . S
C166 C6 0.899 . S
C171 C46 0.896 . S
C176 C55 0.896 . S
C181 C58 1.458 . S
C186 C9 1.447 . S
C191 C49 1.470 . S
C196 C89 1.472 1_545 S
C201 C98 1.452 . S
C206 C18 1.471 1_455 S
