# Generated by pormake.
# Topology pcu, (6)-cn, num edge types: 1
# Building blocks:
#     Node 0, Type 0, BuildingBlock: GEDQOX_clean_sbu_0, # of connection points: 6
#     Edge 1, Type (0, 0), BuildingBlock: ZUJKAS_clean_linker_0, # of connection points: 2
#     Edge 2, Type (0, 0), BuildingBlock: ZUJKAS_clean_linker_0, # of connection points: 2
#     Edge 3, Type (0, 0), BuildingBlock: ZUJKAS_clean_linker_0, # of connection points: 2
# Relax obj value: 0.000
# Max RMSD: 0.000
# Mean RMSD: 0.000
data_MOF--net-pcu--node1-GEDQOX_clean_sbu_0--edge1-ZUJKAS_clean_linker_0
_symmetry_space_group_name_H-M    P1
_symmetry_Int_Tables_number       1
_symmetry_cell_setting            triclinic
loop_
_symmetry_equiv_pos_as_xyz
'x, y, z'
_cell_length_a     19.748192
_cell_length_b     30.308783
_cell_length_c     19.085804
_cell_angle_alpha  84.701433
_cell_angle_beta   96.202059
_cell_angle_gamma 125.15557
loop_
_atom_site_label
_atom_site_type_symbol
_atom_site_fract_x
_atom_site_fract_y
_atom_site_fract_z
_atom_type_partial_charge
Nd0 Nd 0.06162 0.0715 0.02123 0.0
Nd1 Nd 0.96651 0.95284 0.99379 0.0
C2 C 0.11419 0.16871 0.06218 0.0
C3 C 0.09486 0.20988 0.05079 0.0
C4 C 0.04014 0.20922 0.09315 0.0
C5 C 0.02686 0.25027 0.08566 0.0
C6 C 0.0683 0.29338 0.0359 0.0
C7 C 0.12223 0.29357 0.99303 0.0
C8 C 0.13551 0.25258 1.00053 0.0
C9 C 0.0444 0.04949 0.88082 0.0
C10 C 0.85864 0.9976 0.99953 0.0
C11 C 0.91378 0.85549 0.9533 0.0
C12 C 0.93323 0.81437 0.96468 0.0
C13 C 0.98804 0.8151 0.92237 0.0
C14 C 1.00138 0.77408 0.92986 0.0
C15 C 0.95991 0.73093 0.97957 0.0
C16 C 0.90589 0.73068 0.0224 0.0
C17 C 0.89255 0.77164 0.0149 0.0
C18 C 0.98385 0.97519 0.13417 0.0
C19 C 0.16947 0.02676 0.01511 0.0
O20 O 0.06294 0.12372 0.0969 0.0
O21 O 0.14399 0.16104 0.01026 0.0
O22 O 0.11049 0.09018 0.91115 0.0
O23 O 0.98761 0.02296 0.92325 0.0
O24 O 0.9257 0.03789 0.03217 0.0
O25 O 0.86085 0.96263 0.96554 0.0
O26 O 0.96471 0.90037 0.91823 0.0
O27 O 0.88436 0.86332 1.00536 0.0
O28 O 0.91756 0.93459 0.10386 0.0
O29 O 0.04064 1.00135 0.09173 0.0
O30 O 0.10236 0.98647 0.98253 0.0
O31 O 0.1673 0.06171 0.04922 0.0
H32 H 1.00855 0.17746 0.13311 0.0
H33 H 0.98575 0.24893 0.12035 0.0
H34 H 0.15443 0.32551 0.95343 0.0
H35 H 0.17865 0.2548 0.96738 0.0
H36 H 0.01966 0.84689 0.88245 0.0
H37 H 0.04257 0.77546 0.89521 0.0
H38 H 0.87368 0.69872 0.06197 0.0
H39 H 0.84934 0.76937 0.04801 0.0
H40 H 0.86567 0.91831 0.22843 0.0
H41 H 0.87731 0.93216 0.35437 0.0
H42 H 0.13295 0.06688 0.33937 0.0
H43 H 0.1212 0.05355 0.21229 0.0
H44 H 0.98062 0.92806 0.45977 0.0
H45 H 0.03787 0.13073 0.44066 0.0
H46 H 1.00094 0.08849 0.36565 0.0
H47 H 0.10888 0.12619 0.39572 0.0
C48 C 0.92441 0.95107 0.25179 0.0
C49 C 0.99257 0.98489 0.21041 0.0
C50 C 0.93094 0.95887 0.32392 0.0
C51 C 1.00565 1.00088 0.35646 0.0
C52 C 0.07415 0.03477 0.3153 0.0
H53 H 0.16264 0.10665 0.78664 0.0
H54 H 0.15128 0.09288 0.66071 0.0
C55 C 0.0676 0.02697 0.2428 0.0
C56 C 1.01149 1.00803 0.43365 0.0
H57 H 0.04824 0.0968 0.55521 0.0
C58 C 0.9952 0.96492 0.48063 0.0
C59 C 0.03028 0.05604 0.46096 0.0
C60 C 0.04478 0.10289 0.41324 0.0
C61 C 0.99862 0.96883 0.55402 0.0
C62 C 0.01737 0.01683 0.58133 0.0
C63 C 0.03368 0.05995 0.53435 0.0
C64 C 0.02308 0.02395 0.65853 0.0
C65 C 0.98417 0.92199 0.60173 0.0
C66 C 0.95456 0.98993 0.69963 0.0
C67 C 0.96098 0.99768 0.77213 0.0
C68 C 0.03585 0.03985 0.80458 0.0
C69 C 0.10402 0.07383 0.76325 0.0
C70 C 0.09763 0.06606 0.69112 0.0
H71 H 0.99134 0.89425 0.57435 0.0
H72 H 0.02786 0.93639 0.64941 0.0
H73 H 0.91999 0.89857 0.61909 0.0
H74 H 0.89587 0.95775 0.67552 0.0
H75 H 0.90736 0.97098 0.8026 0.0
H76 H 0.20582 0.98831 0.91431 0.0
H77 H 0.32651 0.98572 0.9132 0.0
H78 H 0.42874 0.07225 0.10628 0.0
H79 H 0.30679 0.07506 0.10801 0.0
H80 H 0.50476 0.0754 0.92099 0.0
H81 H 0.3998 0.92155 0.1429 0.0
H82 H 0.33048 0.93474 0.09156 0.0
H83 H 0.40555 0.98183 0.15545 0.0
C84 C 0.25418 1.00716 0.95641 0.0
C85 C 0.24689 0.03128 0.01188 0.0
C86 C 0.32304 1.00583 0.95539 0.0
C87 C 0.38525 0.02823 0.00999 0.0
C88 C 0.38032 0.05443 0.06409 0.0
H89 H 0.82217 0.03622 0.10002 0.0
H90 H 0.7014 0.03875 0.10087 0.0
C91 C 0.31128 0.05621 0.06487 0.0
C92 C 0.45275 0.02123 0.01122 0.0
H93 H 0.52313 0.94883 0.09305 0.0
C94 C 0.50926 0.04793 0.9586 0.0
C95 C 0.45665 0.98465 0.05992 0.0
C96 C 0.39473 0.95362 0.11553 0.0
C97 C 0.57123 0.03957 0.9541 0.0
C98 C 0.57516 1.00301 1.00283 0.0
C99 C 0.51862 0.97629 0.05543 0.0
C100 C 0.64276 0.9961 1.00416 0.0
C101 C 0.63315 0.07058 0.89849 0.0
C102 C 0.64778 0.96985 0.95019 0.0
C103 C 0.71687 0.96811 0.94955 0.0
C104 C 0.78122 0.99311 1.00257 0.0
C105 C 0.77385 0.0173 0.05791 0.0
C106 C 0.70494 0.01861 0.05878 0.0
H107 H 0.62795 0.10257 0.871 0.0
H108 H 0.6974 0.08958 0.9225 0.0
H109 H 0.62246 0.04235 0.85868 0.0
H110 H 0.59939 0.95196 0.90799 0.0
H111 H 0.72142 0.9492 0.90652 0.0
H112 H 0.10327 0.73674 0.97022 0.0
H113 H 0.12045 0.66256 0.97801 0.0
H114 H 0.8609 0.54886 0.01316 0.0
H115 H 0.84245 0.62231 1.00299 0.0
H116 H 0.09398 0.58907 0.08767 0.0
H117 H 0.88697 0.48098 0.8536 0.0
H118 H 0.92269 0.54905 0.87055 0.0
H119 H 0.83797 0.49263 0.91642 0.0
C120 C 0.04948 0.69591 0.97869 0.0
C121 C 0.97131 0.68581 0.98562 0.0
C122 C 0.05959 0.65348 0.98363 0.0
C123 C 0.99176 0.59981 0.99505 0.0
C124 C 0.91396 0.58965 1.0029 0.0
H125 H 0.92501 0.28763 0.04531 0.0
H126 H 0.90789 0.36183 0.03749 0.0
C127 C 0.90377 0.63199 0.99799 0.0
C128 C 1.00271 0.55468 1.00018 0.0
H129 H 0.93439 0.4353 0.92775 0.0
C130 C 0.05939 0.55562 0.05242 0.0
C131 C 0.95749 0.51077 0.95441 0.0
C132 C 0.89843 0.50835 0.89514 0.0
C133 C 0.07089 0.5136 0.061 0.0
C134 C 0.02566 0.46969 0.01523 0.0
C135 C 0.96898 0.46875 0.96299 0.0
C136 C 0.03657 0.42455 0.02038 0.0
C137 C 0.12995 0.51603 0.12026 0.0
C138 C 0.11435 0.43468 0.01251 0.0
C139 C 0.12451 0.39233 0.01742 0.0
C140 C 0.05695 0.33852 0.02984 0.0
C141 C 0.9788 0.32845 0.0368 0.0
C142 C 0.96873 0.37089 0.03184 0.0
H143 H 0.14145 0.54342 0.16179 0.0
H144 H 0.10566 0.47533 0.14488 0.0
H145 H 0.19038 0.53172 0.09897 0.0
H146 H 0.16742 0.47547 1.00222 0.0
H147 H 0.1858 0.40198 0.0124 0.0
loop_
_geom_bond_atom_site_label_1
_geom_bond_atom_site_label_2
_geom_bond_distance
_geom_bond_site_symmetry_2
_ccdc_geom_bond_type
Nd0 C2 2.836 . S
Nd0 O20 2.500 1_556 S
Nd0 O21 2.492 . S
Nd0 O22 2.487 . S
Nd0 O23 2.682 1_445 S
Nd0 O24 2.410 1_455 S
Nd0 O29 2.414 1_556 S
Nd0 O31 2.424 . S
Nd1 C11 2.836 . S
Nd1 O23 2.414 1_554 S
Nd1 O25 2.424 . S
Nd1 O26 2.500 1_554 S
Nd1 O27 2.492 . S
Nd1 O28 2.487 . S
Nd1 O29 2.682 1_665 S
Nd1 O30 2.410 1_655 S
C2 Nd0 2.836 . S
C2 C3 1.498 . S
C2 O20 1.258 1_556 S
C2 O21 1.239 . S
C3 C2 1.498 . S
C3 C4 1.366 1_456 S
C3 C8 1.407 . S
C4 C3 1.366 1_654 S
C4 C5 1.392 . S
C4 H32 0.930 . S
C5 C4 1.392 . S
C5 C6 1.398 1_654 S
C5 H33 0.929 . S
C6 C5 1.398 1_456 S
C6 C7 1.352 . S
C7 C6 1.352 . S
C7 C8 1.384 . S
C7 H34 0.930 . S
C8 C3 1.407 . S
C8 C7 1.384 . S
C8 H35 0.929 . S
C9 O22 1.241 . S
C9 O23 1.273 1_445 S
C10 O24 1.251 1_565 S
C10 O25 1.268 1_556 S
C11 Nd1 2.836 . S
C11 C12 1.498 . S
C11 O26 1.258 1_554 S
C11 O27 1.239 . S
C12 C11 1.498 . S
C12 C13 1.366 1_654 S
C12 C17 1.407 . S
C13 C12 1.366 1_456 S
C13 C14 1.392 . S
C13 H36 0.930 . S
C14 C13 1.392 . S
C14 C15 1.398 1_456 S
C14 H37 0.929 . S
C15 C14 1.398 1_654 S
C15 C16 1.352 . S
C16 C15 1.352 . S
C16 C17 1.384 . S
C16 H38 0.930 . S
C17 C12 1.407 . S
C17 C16 1.384 . S
C17 H39 0.929 . S
C18 O28 1.241 . S
C18 O29 1.273 1_665 S
C19 O30 1.251 1_545 S
C19 O31 1.268 1_554 S
O20 Nd0 2.500 1_554 S
O20 C2 1.258 1_554 S
O21 Nd0 2.492 . S
O21 C2 1.239 . S
O22 Nd0 2.487 . S
O22 C9 1.241 . S
O23 Nd0 2.682 1_665 S
O23 Nd1 2.414 1_556 S
O23 C9 1.273 1_665 S
O24 Nd0 2.410 1_655 S
O24 C10 1.251 1_545 S
O25 Nd1 2.424 . S
O25 C10 1.268 1_554 S
O26 Nd1 2.500 1_556 S
O26 C11 1.258 1_556 S
O27 Nd1 2.492 . S
O27 C11 1.239 . S
O28 Nd1 2.487 . S
O28 C18 1.241 . S
O29 Nd0 2.414 1_554 S
O29 Nd1 2.682 1_445 S
O29 C18 1.273 1_445 S
O30 Nd1 2.410 1_455 S
O30 C19 1.251 1_565 S
O31 Nd0 2.424 . S
O31 C19 1.268 1_556 S
H32 C4 0.930 . S
H33 C5 0.929 . S
H34 C7 0.930 . S
H35 C8 0.929 . S
H36 C13 0.930 . S
H37 C14 0.929 . S
H38 C16 0.930 . S
H39 C17 0.929 . S
H40 C48 0.929 . S
H41 C50 0.930 . S
H42 C52 0.930 . S
H43 C55 0.929 . S
H44 C58 0.930 . S
H45 C60 0.960 . S
H46 C60 0.960 . S
H47 C60 0.960 . S
C48 H40 0.929 . S
C48 C49 1.387 1_565 S
C48 C50 1.384 . S
C49 C48 1.387 1_545 S
C49 C55 1.383 1_655 S
C50 H41 0.930 . S
C50 C48 1.384 . S
C50 C51 1.371 . S
C51 C50 1.371 . S
C51 C52 1.401 1_665 S
C51 C56 1.490 . S
C52 H42 0.930 . S
C52 C51 1.401 1_445 S
C52 C55 1.386 . S
H53 C69 0.930 . S
H54 C70 0.929 . S
C55 H43 0.929 . S
C55 C49 1.383 1_455 S
C55 C52 1.386 . S
C56 C51 1.490 . S
C56 C58 1.395 . S
C56 C59 1.403 1_665 S
H57 C63 0.930 . S
C58 H44 0.930 . S
C58 C56 1.395 . S
C58 C61 1.403 . S
C59 C56 1.403 1_445 S
C59 C60 1.524 . S
C59 C63 1.400 . S
C60 H45 0.960 . S
C60 H46 0.960 . S
C60 H47 0.960 . S
C60 C59 1.524 . S
C61 C58 1.403 . S
C61 C62 1.392 . S
C61 C65 1.495 . S
C62 C61 1.392 . S
C62 C63 1.385 1_665 S
C62 C64 1.478 . S
C63 H57 0.930 . S
C63 C59 1.400 . S
C63 C62 1.385 1_445 S
C64 C62 1.478 . S
C64 C66 1.381 . S
C64 C70 1.384 1_665 S
C65 C61 1.495 . S
C65 H71 0.959 . S
C65 H72 0.961 . S
C65 H73 0.960 . S
C66 C64 1.381 . S
C66 C67 1.394 . S
C66 H74 0.930 . S
C67 C66 1.394 . S
C67 C68 1.383 . S
C67 H75 0.929 . S
C68 C67 1.383 . S
C68 C69 1.377 1_665 S
C69 H53 0.930 . S
C69 C68 1.377 1_445 S
C69 C70 1.380 . S
C70 H54 0.929 . S
C70 C64 1.384 1_445 S
C70 C69 1.380 . S
H71 C65 0.959 . S
H72 C65 0.961 . S
H73 C65 0.960 . S
H74 C66 0.930 . S
H75 C67 0.929 . S
H76 C84 0.929 . S
H77 C86 0.930 . S
H78 C88 0.930 . S
H79 C91 0.929 . S
H80 C94 0.930 . S
H81 C96 0.960 . S
H82 C96 0.960 1_556 S
H83 C96 0.960 . S
C84 H76 0.929 . S
C84 C85 1.390 1_545 S
C84 C86 1.384 . S
C85 C84 1.390 1_565 S
C85 C91 1.386 1_556 S
C86 H77 0.930 . S
C86 C84 1.384 . S
C86 C87 1.372 . S
C87 C86 1.372 . S
C87 C88 1.400 1_546 S
C87 C92 1.489 . S
C88 H78 0.930 . S
C88 C87 1.400 1_564 S
C88 C91 1.386 . S
H89 C105 0.930 1_565 S
H90 C106 0.931 . S
C91 H79 0.929 . S
C91 C85 1.386 1_554 S
C91 C88 1.386 . S
C92 C87 1.489 . S
C92 C94 1.395 . S
C92 C95 1.403 1_546 S
H93 C99 0.930 . S
C94 H80 0.930 . S
C94 C92 1.395 . S
C94 C97 1.403 . S
C95 C92 1.403 1_564 S
C95 C96 1.524 . S
C95 C99 1.400 . S
C96 H81 0.960 . S
C96 H82 0.960 1_554 S
C96 H83 0.960 . S
C96 C95 1.524 . S
C97 C94 1.403 . S
C97 C98 1.392 . S
C97 C101 1.495 . S
C98 C97 1.392 . S
C98 C99 1.385 1_546 S
C98 C100 1.478 . S
C99 H93 0.930 . S
C99 C95 1.400 . S
C99 C98 1.385 1_564 S
C100 C98 1.478 . S
C100 C102 1.381 . S
C100 C106 1.383 1_556 S
C101 C97 1.495 . S
C101 H107 0.959 . S
C101 H108 0.961 . S
C101 H109 0.960 . S
C102 C100 1.381 . S
C102 C103 1.394 . S
C102 H110 0.930 . S
C103 C102 1.394 . S
C103 C104 1.383 . S
C103 H111 0.929 . S
C104 C103 1.383 . S
C104 C105 1.377 1_556 S
C105 H89 0.930 1_545 S
C105 C104 1.377 1_554 S
C105 C106 1.379 . S
C106 H90 0.931 . S
C106 C100 1.383 1_554 S
C106 C105 1.379 . S
H107 C101 0.959 . S
H108 C101 0.961 . S
H109 C101 0.960 . S
H110 C102 0.930 . S
H111 C103 0.929 . S
H112 C120 0.929 . S
H113 C122 0.930 . S
H114 C124 0.930 . S
H115 C127 0.932 . S
H116 C130 0.930 . S
H117 C132 0.960 . S
H118 C132 0.960 . S
H119 C132 0.960 . S
C120 H112 0.929 . S
C120 C121 1.393 . S
C120 C122 1.384 . S
C121 C120 1.393 . S
C121 C127 1.384 1_456 S
C122 H113 0.930 . S
C122 C120 1.384 . S
C122 C123 1.372 . S
C123 C122 1.372 . S
C123 C124 1.398 1_456 S
C123 C128 1.491 1_556 S
C124 H114 0.930 . S
C124 C123 1.398 1_654 S
C124 C127 1.385 . S
H125 C141 0.930 . S
H126 C142 0.931 . S
C127 H115 0.932 . S
C127 C121 1.384 1_654 S
C127 C124 1.385 . S
C128 C123 1.491 1_554 S
C128 C130 1.395 . S
C128 C131 1.403 1_454 S
H129 C135 0.930 . S
C130 H116 0.930 . S
C130 C128 1.395 . S
C130 C133 1.403 . S
C131 C128 1.403 1_656 S
C131 C132 1.524 . S
C131 C135 1.400 . S
C132 H117 0.960 . S
C132 H118 0.960 . S
C132 H119 0.960 . S
C132 C131 1.524 . S
C133 C130 1.403 . S
C133 C134 1.392 . S
C133 C137 1.495 . S
C134 C133 1.392 . S
C134 C135 1.385 1_454 S
C134 C136 1.478 . S
C135 H129 0.930 . S
C135 C131 1.400 . S
C135 C134 1.385 1_656 S
C136 C134 1.478 . S
C136 C138 1.381 . S
C136 C142 1.383 1_455 S
C137 C133 1.495 . S
C137 H143 0.959 . S
C137 H144 0.961 . S
C137 H145 0.960 . S
C138 C136 1.381 . S
C138 C139 1.394 1_554 S
C138 H146 0.930 1_554 S
C139 C138 1.394 1_556 S
C139 C140 1.383 1_556 S
C139 H147 0.929 . S
C140 C139 1.383 1_554 S
C140 C141 1.377 1_455 S
C141 H125 0.930 . S
C141 C140 1.377 1_655 S
C141 C142 1.379 . S
C142 H126 0.931 . S
C142 C136 1.383 1_655 S
C142 C141 1.379 . S
H143 C137 0.959 . S
H144 C137 0.961 . S
H145 C137 0.960 . S
H146 C138 0.930 1_556 S
H147 C139 0.929 . S
C49 C18 1.450 1_545 S
C68 C9 1.474 1_665 S
C85 C19 1.484 1_566 S
C104 C10 1.492 1_545 S
C121 C15 1.488 1_456 S
C140 C6 1.494 1_554 S
