# Generated by pormake.
# Topology unp, (4)-cn, num edge types: 1
# Building blocks:
#     Node 0, Type 0, BuildingBlock: NAHDIM_clean_sbu_0, # of connection points: 4
#     Node 1, Type 0, BuildingBlock: NAHDIM_clean_sbu_0, # of connection points: 4
#     Node 2, Type 0, BuildingBlock: NAHDIM_clean_sbu_0, # of connection points: 4
#     Node 3, Type 0, BuildingBlock: NAHDIM_clean_sbu_0, # of connection points: 4
#     Node 4, Type 0, BuildingBlock: NAHDIM_clean_sbu_0, # of connection points: 4
#     Node 5, Type 0, BuildingBlock: NAHDIM_clean_sbu_0, # of connection points: 4
#     Node 6, Type 0, BuildingBlock: NAHDIM_clean_sbu_0, # of connection points: 4
#     Node 7, Type 0, BuildingBlock: NAHDIM_clean_sbu_0, # of connection points: 4
#     Node 8, Type 0, BuildingBlock: NAHDIM_clean_sbu_0, # of connection points: 4
#     Node 9, Type 0, BuildingBlock: NAHDIM_clean_sbu_0, # of connection points: 4
#     Node 10, Type 0, BuildingBlock: NAHDIM_clean_sbu_0, # of connection points: 4
#     Node 11, Type 0, BuildingBlock: NAHDIM_clean_sbu_0, # of connection points: 4
#     Node 12, Type 0, BuildingBlock: NAHDIM_clean_sbu_0, # of connection points: 4
#     Node 13, Type 0, BuildingBlock: NAHDIM_clean_sbu_0, # of connection points: 4
#     Node 14, Type 0, BuildingBlock: NAHDIM_clean_sbu_0, # of connection points: 4
#     Node 15, Type 0, BuildingBlock: NAHDIM_clean_sbu_0, # of connection points: 4
#     Node 16, Type 0, BuildingBlock: NAHDIM_clean_sbu_0, # of connection points: 4
#     Node 17, Type 0, BuildingBlock: NAHDIM_clean_sbu_0, # of connection points: 4
#     Edge 18, Type (0, 0), None
#     Edge 19, Type (0, 0), None
#     Edge 20, Type (0, 0), None
#     Edge 21, Type (0, 0), None
#     Edge 22, Type (0, 0), None
#     Edge 23, Type (0, 0), None
#     Edge 24, Type (0, 0), None
#     Edge 25, Type (0, 0), None
#     Edge 26, Type (0, 0), None
#     Edge 27, Type (0, 0), None
#     Edge 28, Type (0, 0), None
#     Edge 29, Type (0, 0), None
#     Edge 30, Type (0, 0), None
#     Edge 31, Type (0, 0), None
#     Edge 32, Type (0, 0), None
#     Edge 33, Type (0, 0), None
#     Edge 34, Type (0, 0), None
#     Edge 35, Type (0, 0), None
#     Edge 36, Type (0, 0), None
#     Edge 37, Type (0, 0), None
#     Edge 38, Type (0, 0), None
#     Edge 39, Type (0, 0), None
#     Edge 40, Type (0, 0), None
#     Edge 41, Type (0, 0), None
#     Edge 42, Type (0, 0), None
#     Edge 43, Type (0, 0), None
#     Edge 44, Type (0, 0), None
#     Edge 45, Type (0, 0), None
#     Edge 46, Type (0, 0), None
#     Edge 47, Type (0, 0), None
#     Edge 48, Type (0, 0), None
#     Edge 49, Type (0, 0), None
#     Edge 50, Type (0, 0), None
#     Edge 51, Type (0, 0), None
#     Edge 52, Type (0, 0), None
#     Edge 53, Type (0, 0), None
# Relax obj value: 0.383
# Max RMSD: 0.214
# Mean RMSD: 0.211
data_MOF--net-unp--node1-NAHDIM_clean_sbu_0--edge1-none
_symmetry_space_group_name_H-M    P1
_symmetry_Int_Tables_number       1
_symmetry_cell_setting            triclinic
loop_
_symmetry_equiv_pos_as_xyz
'x, y, z'
_cell_length_a     22.28248
_cell_length_b     22.282212
_cell_length_c     29.255075
_cell_angle_alpha  90.220571
_cell_angle_beta   89.779885
_cell_angle_gamma 120.2558
loop_
_atom_site_label
_atom_site_type_symbol
_atom_site_fract_x
_atom_site_fract_y
_atom_site_fract_z
_atom_type_partial_charge
C0 C 0.2733 0.27141 0.13031 0.0
O1 O 0.28953 0.27387 0.0869 0.0
O2 O 0.11123 0.06516 0.12685 0.0
Zn3 Zn 0.14174 0.15954 0.10002 0.0
O4 O 0.18105 0.1634 0.03721 0.0
C5 C 0.00371 0.12781 0.11995 0.0
O6 O 0.0152 0.10196 0.15695 0.0
O7 O 0.21129 0.23049 0.14313 0.0
C8 C 0.16781 0.19157 0.00409 0.0
O9 O 0.13241 0.22322 0.01145 0.0
C10 C 0.11869 0.01777 0.10818 0.0
O11 O 0.15306 0.03029 0.06952 0.0
O12 O 0.05356 0.16283 0.09249 0.0
C13 C 0.67864 1e-05 0.12615 0.0
O14 O 0.67819 0.01518 0.08288 0.0
O15 O 0.88437 0.04586 0.1237 0.0
Zn16 Zn 0.79021 -0.02044 0.09704 0.0
O17 O 0.78607 0.01154 0.0334 0.0
C18 C 0.82204 0.8748 0.12019 0.0
O19 O 0.84722 0.91401 0.15673 0.0
O20 O 0.71851 0.97825 0.13929 0.0
C21 C 0.75735 0.96787 0.00122 0.0
O22 O 0.7253 0.90109 0.01019 0.0
C23 C 0.93216 0.09953 0.10402 0.0
O24 O 0.92018 0.11859 0.06428 0.0
O25 O 0.78764 0.88813 0.09159 0.0
C26 C 0.95039 0.67763 0.13433 0.0
O27 O 0.9405 0.66138 0.09074 0.0
O28 O 0.90315 0.83737 0.12693 0.0
Zn29 Zn -0.03086 0.80778 0.10258 0.0
O30 O 0.9376 0.7679 0.03947 0.0
C31 C 0.07417 0.94607 0.12363 0.0
O32 O 0.03432 0.93411 0.15963 0.0
O33 O -0.03138 0.73907 0.14683 0.0
C34 C -0.01869 0.78123 0.00754 0.0
O35 O 0.04808 0.81704 0.01647 0.0
C36 C 0.85014 0.83061 0.10616 0.0
O37 O 0.83166 0.79748 0.06691 0.0
O38 O 0.06116 0.89649 0.09639 0.0
C39 C 0.26105 0.28367 0.83101 0.0
O40 O 0.26351 0.29991 0.87442 0.0
O41 O 0.05481 0.12161 0.83446 0.0
Zn42 Zn 0.14918 0.15211 0.8613 0.0
O43 O 0.15305 0.19142 0.92411 0.0
C44 C 0.11745 0.01408 0.84137 0.0
O45 O 0.09161 0.02557 0.80436 0.0
O46 O 0.22015 0.22166 0.81819 0.0
C47 C 0.18122 0.17817 0.95722 0.0
O48 O 0.21286 0.14277 0.94987 0.0
C49 C 0.00742 0.12907 0.85313 0.0
O50 O 0.01994 0.16343 0.89179 0.0
O51 O 0.15247 0.06392 0.86883 0.0
C52 C 0.66729 0.96078 0.82697 0.0
O53 O 0.65104 0.95088 0.87055 0.0
O54 O 0.82703 0.91353 0.83437 0.0
Zn55 Zn 0.79743 -0.02047 0.85872 0.0
O56 O 0.75755 0.94798 0.92183 0.0
C57 C 0.93573 0.08455 0.83767 0.0
O58 O 0.92377 0.04471 0.80168 0.0
O59 O 0.72873 -0.021 0.81447 0.0
C60 C 0.77087 -0.00831 0.95376 0.0
O61 O 0.80669 0.05847 0.94483 0.0
C62 C 0.82028 0.86053 0.85514 0.0
O63 O 0.78714 0.84206 0.89438 0.0
O64 O 0.88614 0.07154 0.86492 0.0
C65 C -0.01033 0.68901 0.83515 0.0
O66 O 0.00484 0.68858 0.87842 0.0
O67 O 0.0355 0.89474 0.83761 0.0
Zn68 Zn -0.0308 0.80058 0.86426 0.0
O69 O 0.00117 0.79643 0.9279 0.0
C70 C 0.86445 0.83241 0.8411 0.0
O71 O 0.90365 0.85759 0.80456 0.0
O72 O 0.96789 0.72888 0.82201 0.0
C73 C 0.95749 0.76771 0.96008 0.0
O74 O 0.89071 0.73565 0.95111 0.0
C75 C 0.08917 0.94253 0.85729 0.0
O76 O 0.10823 0.93054 0.89703 0.0
O77 O 0.87777 0.79802 0.86971 0.0
C78 C 0.93566 0.59572 0.4676 0.0
O79 O 0.95178 0.60042 0.42403 0.0
O80 O 0.77414 0.3894 0.46039 0.0
Zn81 Zn 0.80427 0.48513 0.43613 0.0
O82 O 0.84352 0.49265 0.37286 0.0
C83 C 0.66622 0.45175 0.45744 0.0
O84 O 0.67797 0.42389 0.49328 0.0
O85 O 0.87378 0.55391 0.48023 0.0
C86 C 0.83018 0.5226 0.34093 0.0
O87 O 0.79465 0.55365 0.34991 0.0
C88 C 0.78077 0.34291 0.43963 0.0
O89 O 0.81408 0.35743 0.40046 0.0
O90 O 0.71591 0.48848 0.43027 0.0
C91 C 0.34003 0.32266 0.46356 0.0
O92 O 0.33713 0.33538 0.42009 0.0
O93 O 0.54704 0.3691 0.46046 0.0
Zn94 Zn 0.45267 0.3045 0.43347 0.0
O95 O 0.44895 0.3395 0.37072 0.0
C96 C 0.48383 0.19822 0.45328 0.0
O97 O 0.5096 0.2359 0.49037 0.0
O98 O 0.38156 0.30283 0.47649 0.0
C99 C 0.42006 0.29755 0.33769 0.0
O100 O 0.38769 0.23033 0.34513 0.0
C101 C 0.59457 0.42421 0.44195 0.0
O102 O 0.58225 0.44591 0.40337 0.0
O103 O 0.44912 0.21284 0.42578 0.0
C104 C 0.61173 0.0013 0.45953 0.0
O105 O 0.59726 -0.01479 0.41618 0.0
O106 O 0.56525 0.16082 0.45715 0.0
Zn107 Zn 0.63134 0.13297 0.43045 0.0
O108 O 0.59913 0.09584 0.36686 0.0
C109 C 0.73637 0.27043 0.4536 0.0
O110 O 0.69722 0.25654 0.49016 0.0
O111 O 0.63266 0.06305 0.47271 0.0
C112 C 0.64267 0.11093 0.33459 0.0
O113 O 0.70949 0.14641 0.34343 0.0
C114 C 0.51185 0.15479 0.43735 0.0
O115 O 0.49295 0.1235 0.3975 0.0
O116 O 0.72287 0.22234 0.42494 0.0
C117 C 0.92171 0.62238 0.16856 0.0
O118 O 0.92169 0.63839 0.21179 0.0
O119 O 0.71654 0.4611 0.17104 0.0
Zn120 Zn 0.81065 0.48967 0.19761 0.0
O121 O 0.8149 0.52634 0.26131 0.0
C122 C 0.77838 0.35256 0.17429 0.0
O123 O 0.75316 0.36621 0.13784 0.0
O124 O 0.88234 0.56023 0.15539 0.0
C125 C 0.84349 0.51174 0.29347 0.0
O126 O 0.87531 0.47695 0.28447 0.0
C127 C 0.66894 0.46706 0.19078 0.0
O128 O 0.68118 0.49869 0.2305 0.0
O129 O 0.81301 0.40076 0.20289 0.0
C130 C 0.32847 0.29884 0.16462 0.0
O131 O 0.31212 0.28638 0.20808 0.0
O132 O 0.48888 0.25233 0.16802 0.0
Zn133 Zn 0.45905 0.31677 0.19491 0.0
O134 O 0.41949 0.28185 0.2577 0.0
C135 C 0.59731 0.42331 0.17494 0.0
O136 O 0.58557 0.38552 0.13791 0.0
O137 O 0.39006 0.31825 0.1518 0.0
C138 C 0.43339 0.32387 0.2908 0.0
O139 O 0.46945 0.39107 0.28338 0.0
C140 C 0.48152 0.19773 0.18683 0.0
O141 O 0.44761 0.17645 0.22568 0.0
O142 O 0.54762 0.4086 0.20248 0.0
C143 C 0.64978 0.02651 0.1604 0.0
O144 O 0.6602 0.02113 0.20396 0.0
O145 O 0.69668 0.23348 0.16768 0.0
Zn146 Zn 0.63055 0.13773 0.1921 0.0
O147 O 0.66223 0.13036 0.25519 0.0
C148 C 0.52573 0.17044 0.17124 0.0
O149 O 0.56545 0.19812 0.13517 0.0
O150 O 0.63093 0.06897 0.14788 0.0
C151 C 0.61865 0.09994 0.28718 0.0
O152 O 0.55184 0.06832 0.27836 0.0
C153 C 0.75003 0.28015 0.18828 0.0
O154 O 0.76872 0.26587 0.22738 0.0
O155 O 0.53868 0.13412 0.19842 0.0
C156 C 0.61204 0.9321 0.79274 0.0
O157 O 0.62805 0.93207 0.7495 0.0
O158 O 0.45076 0.72692 0.79026 0.0
Zn159 Zn 0.47933 0.82103 0.76368 0.0
O160 O 0.516 0.82526 0.69999 0.0
C161 C 0.34223 0.78876 0.787 0.0
O162 O 0.35587 0.76355 0.82346 0.0
O163 O 0.54989 0.89272 0.80591 0.0
C164 C 0.5014 0.85385 0.66783 0.0
O165 O 0.46661 0.88567 0.67683 0.0
C166 C 0.45672 0.67931 0.77053 0.0
O167 O 0.48835 0.69154 0.73081 0.0
O168 O 0.39042 0.82339 0.7584 0.0
C169 C 0.01616 0.66016 0.8009 0.0
O170 O 0.01078 0.67057 0.75734 0.0
O171 O 0.22314 0.70708 0.79362 0.0
Zn172 Zn 0.1274 0.64094 0.7692 0.0
O173 O 0.12002 0.67262 0.70611 0.0
C174 C 0.1601 0.53612 0.79005 0.0
O175 O 0.18777 0.57585 0.82611 0.0
O176 O 0.05864 0.64132 0.81342 0.0
C177 C 0.0896 0.62904 0.67412 0.0
O178 O 0.05798 0.56223 0.68295 0.0
C179 C 0.26982 0.76042 0.77302 0.0
O180 O 0.25553 0.7791 0.73391 0.0
O181 O 0.12378 0.54906 0.76288 0.0
C182 C 0.2885 0.33884 0.7967 0.0
O183 O 0.27604 0.32249 0.75324 0.0
O184 O 0.24198 0.49925 0.79328 0.0
Zn185 Zn 0.30642 0.46942 0.7664 0.0
O186 O 0.27149 0.42985 0.70362 0.0
C187 C 0.41296 0.60769 0.78637 0.0
O188 O 0.37517 0.59595 0.8234 0.0
O189 O 0.30789 0.40043 0.80951 0.0
C190 C 0.31351 0.44375 0.67052 0.0
O191 O 0.38071 0.47982 0.67793 0.0
C192 C 0.18738 0.49188 0.77448 0.0
O193 O 0.16608 0.45797 0.73563 0.0
O194 O 0.39825 0.55799 0.75883 0.0
C195 C 0.58538 0.946 0.49371 0.0
O196 O 0.59011 0.96214 0.53727 0.0
O197 O 0.37905 0.78449 0.50091 0.0
Zn198 Zn 0.47477 0.81462 0.52517 0.0
O199 O 0.4823 0.85387 0.58844 0.0
C200 C 0.44139 0.67656 0.50387 0.0
O201 O 0.41354 0.68831 0.46802 0.0
O202 O 0.54355 0.88413 0.48107 0.0
C203 C 0.51225 0.84054 0.62036 0.0
O204 O 0.54331 0.80501 0.61139 0.0
C205 C 0.33256 0.79112 0.52166 0.0
O206 O 0.34708 0.82445 0.56084 0.0
O207 O 0.47813 0.72625 0.53103 0.0
C208 C -0.00904 0.6221 0.50178 0.0
O209 O -0.02515 0.60764 0.54512 0.0
O210 O 0.15047 0.57561 0.50415 0.0
Zn211 Zn 0.12262 0.6417 0.53084 0.0
O212 O 0.0855 0.6095 0.59444 0.0
C213 C 0.26008 0.74673 0.5077 0.0
O214 O 0.24619 0.70757 0.47113 0.0
O215 O 0.0527 0.64301 0.48859 0.0
C216 C 0.10059 0.65305 0.62671 0.0
O217 O 0.13606 0.71987 0.61786 0.0
C218 C 0.14445 0.52222 0.52396 0.0
O219 O 0.11317 0.50333 0.5638 0.0
O220 O 0.21199 0.73323 0.53635 0.0
C221 C 0.31229 0.35037 0.49776 0.0
O222 O 0.32503 0.34746 0.54123 0.0
O223 O 0.35874 0.55738 0.50085 0.0
Zn224 Zn 0.29414 0.46301 0.52784 0.0
O225 O 0.32914 0.4593 0.59059 0.0
C226 C 0.18786 0.49417 0.50802 0.0
O227 O 0.22554 0.51995 0.47092 0.0
O228 O 0.29247 0.3919 0.48483 0.0
C229 C 0.28719 0.43041 0.62362 0.0
O230 O 0.21997 0.39803 0.61619 0.0
C231 C 0.41385 0.60492 0.51935 0.0
O232 O 0.43556 0.5926 0.55794 0.0
O233 O 0.20248 0.45947 0.53553 0.0
loop_
_geom_bond_atom_site_label_1
_geom_bond_atom_site_label_2
_geom_bond_distance
_geom_bond_site_symmetry_2
_ccdc_geom_bond_type
C0 O1 1.160 . S
C0 O7 1.185 . S
O1 C0 1.160 . S
O2 Zn3 1.899 . S
O2 C10 1.284 . S
Zn3 O2 1.899 . S
Zn3 O4 2.032 . S
Zn3 O7 2.086 . S
Zn3 O12 1.977 . S
O4 Zn3 2.032 . S
O4 C8 1.278 . S
C5 O6 1.203 1_455 S
C5 O12 1.267 . S
O6 C5 1.203 1_655 S
O7 C0 1.185 . S
O7 Zn3 2.086 . S
C8 O4 1.278 . S
C8 O9 1.211 . S
O9 C8 1.211 . S
C10 O2 1.284 . S
C10 O11 1.273 . S
O11 C10 1.273 . S
O12 Zn3 1.977 . S
O12 C5 1.267 . S
C13 O14 1.160 . S
C13 O20 1.185 1_545 S
O14 C13 1.160 . S
O15 Zn16 1.899 1_545 S
O15 C23 1.284 . S
Zn16 O15 1.899 1_565 S
Zn16 O17 2.032 1_565 S
Zn16 O20 2.086 . S
Zn16 O25 1.977 . S
O17 Zn16 2.032 1_545 S
O17 C21 1.278 1_545 S
C18 O19 1.203 . S
C18 O25 1.267 . S
O19 C18 1.203 . S
O20 C13 1.185 1_565 S
O20 Zn16 2.086 . S
C21 O17 1.278 1_565 S
C21 O22 1.211 . S
O22 C21 1.211 . S
C23 O15 1.284 . S
C23 O24 1.273 . S
O24 C23 1.273 . S
O25 Zn16 1.977 . S
O25 C18 1.267 . S
C26 O27 1.160 . S
C26 O33 1.185 1_655 S
O27 C26 1.160 . S
O28 Zn29 1.899 1_655 S
O28 C36 1.284 . S
Zn29 O28 1.899 1_455 S
Zn29 O30 2.032 1_455 S
Zn29 O33 2.086 . S
Zn29 O38 1.977 . S
O30 Zn29 2.032 1_655 S
O30 C34 1.278 1_655 S
C31 O32 1.203 1_565 S
C31 O38 1.267 . S
O32 C31 1.203 1_545 S
O33 C26 1.185 1_455 S
O33 Zn29 2.086 . S
C34 O30 1.278 1_455 S
C34 O35 1.211 . S
O35 C34 1.211 . S
C36 O28 1.284 . S
C36 O37 1.273 . S
O37 C36 1.273 . S
O38 Zn29 1.977 . S
O38 C31 1.267 . S
C39 O40 1.160 . S
C39 O46 1.185 . S
O40 C39 1.160 . S
O41 Zn42 1.899 . S
O41 C49 1.284 . S
Zn42 O41 1.899 . S
Zn42 O43 2.032 . S
Zn42 O46 2.086 . S
Zn42 O51 1.977 . S
O43 Zn42 2.032 . S
O43 C47 1.278 . S
C44 O45 1.203 1_545 S
C44 O51 1.267 . S
O45 C44 1.203 1_565 S
O46 C39 1.185 . S
O46 Zn42 2.086 . S
C47 O43 1.278 . S
C47 O48 1.211 . S
O48 C47 1.211 . S
C49 O41 1.284 . S
C49 O50 1.273 . S
O50 C49 1.273 . S
O51 Zn42 1.977 . S
O51 C44 1.267 . S
C52 O53 1.160 . S
C52 O59 1.185 1_565 S
O53 C52 1.160 . S
O54 Zn55 1.899 1_565 S
O54 C62 1.284 . S
Zn55 O54 1.899 1_545 S
Zn55 O56 2.032 1_545 S
Zn55 O59 2.086 . S
Zn55 O64 1.977 . S
O56 Zn55 2.032 1_565 S
O56 C60 1.278 1_565 S
C57 O58 1.203 1_655 S
C57 O64 1.267 . S
O58 C57 1.203 1_455 S
O59 C52 1.185 1_545 S
O59 Zn55 2.086 . S
C60 O56 1.278 1_545 S
C60 O61 1.211 . S
O61 C60 1.211 . S
C62 O54 1.284 . S
C62 O63 1.273 . S
O63 C62 1.273 . S
O64 Zn55 1.977 . S
O64 C57 1.267 . S
C65 O66 1.160 . S
C65 O72 1.185 1_455 S
O66 C65 1.160 . S
O67 Zn68 1.899 1_455 S
O67 C75 1.284 . S
Zn68 O67 1.899 1_655 S
Zn68 O69 2.032 1_655 S
Zn68 O72 2.086 . S
Zn68 O77 1.977 . S
O69 Zn68 2.032 1_455 S
O69 C73 1.278 1_455 S
C70 O71 1.203 . S
C70 O77 1.267 . S
O71 C70 1.203 . S
O72 C65 1.185 1_655 S
O72 Zn68 2.086 . S
C73 O69 1.278 1_655 S
C73 O74 1.211 . S
O74 C73 1.211 . S
C75 O67 1.284 . S
C75 O76 1.273 . S
O76 C75 1.273 . S
O77 Zn68 1.977 . S
O77 C70 1.267 . S
C78 O79 1.160 . S
C78 O85 1.185 . S
O79 C78 1.160 . S
O80 Zn81 1.899 . S
O80 C88 1.284 . S
Zn81 O80 1.899 . S
Zn81 O82 2.032 . S
Zn81 O85 2.086 . S
Zn81 O90 1.977 . S
O82 Zn81 2.032 . S
O82 C86 1.278 . S
C83 O84 1.203 . S
C83 O90 1.267 . S
O84 C83 1.203 . S
O85 C78 1.185 . S
O85 Zn81 2.086 . S
C86 O82 1.278 . S
C86 O87 1.211 . S
O87 C86 1.211 . S
C88 O80 1.284 . S
C88 O89 1.273 . S
O89 C88 1.273 . S
O90 Zn81 1.977 . S
O90 C83 1.267 . S
C91 O92 1.160 . S
C91 O98 1.185 . S
O92 C91 1.160 . S
O93 Zn94 1.899 . S
O93 C101 1.284 . S
Zn94 O93 1.899 . S
Zn94 O95 2.032 . S
Zn94 O98 2.086 . S
Zn94 O103 1.977 . S
O95 Zn94 2.032 . S
O95 C99 1.278 . S
C96 O97 1.203 . S
C96 O103 1.267 . S
O97 C96 1.203 . S
O98 C91 1.185 . S
O98 Zn94 2.086 . S
C99 O95 1.278 . S
C99 O100 1.211 . S
O100 C99 1.211 . S
C101 O93 1.284 . S
C101 O102 1.273 . S
O102 C101 1.273 . S
O103 Zn94 1.977 . S
O103 C96 1.267 . S
C104 O105 1.160 . S
C104 O111 1.185 . S
O105 C104 1.160 . S
O106 Zn107 1.899 . S
O106 C114 1.284 . S
Zn107 O106 1.899 . S
Zn107 O108 2.032 . S
Zn107 O111 2.086 . S
Zn107 O116 1.977 . S
O108 Zn107 2.032 . S
O108 C112 1.278 . S
C109 O110 1.203 . S
C109 O116 1.267 . S
O110 C109 1.203 . S
O111 C104 1.185 . S
O111 Zn107 2.086 . S
C112 O108 1.278 . S
C112 O113 1.211 . S
O113 C112 1.211 . S
C114 O106 1.284 . S
C114 O115 1.273 . S
O115 C114 1.273 . S
O116 Zn107 1.977 . S
O116 C109 1.267 . S
C117 O118 1.160 . S
C117 O124 1.185 . S
O118 C117 1.160 . S
O119 Zn120 1.899 . S
O119 C127 1.284 . S
Zn120 O119 1.899 . S
Zn120 O121 2.032 . S
Zn120 O124 2.086 . S
Zn120 O129 1.977 . S
O121 Zn120 2.032 . S
O121 C125 1.278 . S
C122 O123 1.203 . S
C122 O129 1.267 . S
O123 C122 1.203 . S
O124 C117 1.185 . S
O124 Zn120 2.086 . S
C125 O121 1.278 . S
C125 O126 1.211 . S
O126 C125 1.211 . S
C127 O119 1.284 . S
C127 O128 1.273 . S
O128 C127 1.273 . S
O129 Zn120 1.977 . S
O129 C122 1.267 . S
C130 O131 1.160 . S
C130 O137 1.185 . S
O131 C130 1.160 . S
O132 Zn133 1.899 . S
O132 C140 1.284 . S
Zn133 O132 1.899 . S
Zn133 O134 2.032 . S
Zn133 O137 2.086 . S
Zn133 O142 1.977 . S
O134 Zn133 2.032 . S
O134 C138 1.278 . S
C135 O136 1.203 . S
C135 O142 1.267 . S
O136 C135 1.203 . S
O137 C130 1.185 . S
O137 Zn133 2.086 . S
C138 O134 1.278 . S
C138 O139 1.211 . S
O139 C138 1.211 . S
C140 O132 1.284 . S
C140 O141 1.273 . S
O141 C140 1.273 . S
O142 Zn133 1.977 . S
O142 C135 1.267 . S
C143 O144 1.160 . S
C143 O150 1.185 . S
O144 C143 1.160 . S
O145 Zn146 1.899 . S
O145 C153 1.284 . S
Zn146 O145 1.899 . S
Zn146 O147 2.032 . S
Zn146 O150 2.086 . S
Zn146 O155 1.977 . S
O147 Zn146 2.032 . S
O147 C151 1.278 . S
C148 O149 1.203 . S
C148 O155 1.267 . S
O149 C148 1.203 . S
O150 C143 1.185 . S
O150 Zn146 2.086 . S
C151 O147 1.278 . S
C151 O152 1.211 . S
O152 C151 1.211 . S
C153 O145 1.284 . S
C153 O154 1.273 . S
O154 C153 1.273 . S
O155 Zn146 1.977 . S
O155 C148 1.267 . S
C156 O157 1.160 . S
C156 O163 1.185 . S
O157 C156 1.160 . S
O158 Zn159 1.899 . S
O158 C166 1.284 . S
Zn159 O158 1.899 . S
Zn159 O160 2.032 . S
Zn159 O163 2.086 . S
Zn159 O168 1.977 . S
O160 Zn159 2.032 . S
O160 C164 1.278 . S
C161 O162 1.203 . S
C161 O168 1.267 . S
O162 C161 1.203 . S
O163 C156 1.185 . S
O163 Zn159 2.086 . S
C164 O160 1.278 . S
C164 O165 1.211 . S
O165 C164 1.211 . S
C166 O158 1.284 . S
C166 O167 1.273 . S
O167 C166 1.273 . S
O168 Zn159 1.977 . S
O168 C161 1.267 . S
C169 O170 1.160 . S
C169 O176 1.185 . S
O170 C169 1.160 . S
O171 Zn172 1.899 . S
O171 C179 1.284 . S
Zn172 O171 1.899 . S
Zn172 O173 2.032 . S
Zn172 O176 2.086 . S
Zn172 O181 1.977 . S
O173 Zn172 2.032 . S
O173 C177 1.278 . S
C174 O175 1.203 . S
C174 O181 1.267 . S
O175 C174 1.203 . S
O176 C169 1.185 . S
O176 Zn172 2.086 . S
C177 O173 1.278 . S
C177 O178 1.211 . S
O178 C177 1.211 . S
C179 O171 1.284 . S
C179 O180 1.273 . S
O180 C179 1.273 . S
O181 Zn172 1.977 . S
O181 C174 1.267 . S
C182 O183 1.160 . S
C182 O189 1.185 . S
O183 C182 1.160 . S
O184 Zn185 1.899 . S
O184 C192 1.284 . S
Zn185 O184 1.899 . S
Zn185 O186 2.032 . S
Zn185 O189 2.086 . S
Zn185 O194 1.977 . S
O186 Zn185 2.032 . S
O186 C190 1.278 . S
C187 O188 1.203 . S
C187 O194 1.267 . S
O188 C187 1.203 . S
O189 C182 1.185 . S
O189 Zn185 2.086 . S
C190 O186 1.278 . S
C190 O191 1.211 . S
O191 C190 1.211 . S
C192 O184 1.284 . S
C192 O193 1.273 . S
O193 C192 1.273 . S
O194 Zn185 1.977 . S
O194 C187 1.267 . S
C195 O196 1.160 . S
C195 O202 1.185 . S
O196 C195 1.160 . S
O197 Zn198 1.899 . S
O197 C205 1.284 . S
Zn198 O197 1.899 . S
Zn198 O199 2.032 . S
Zn198 O202 2.086 . S
Zn198 O207 1.977 . S
O199 Zn198 2.032 . S
O199 C203 1.278 . S
C200 O201 1.203 . S
C200 O207 1.267 . S
O201 C200 1.203 . S
O202 C195 1.185 . S
O202 Zn198 2.086 . S
C203 O199 1.278 . S
C203 O204 1.211 . S
O204 C203 1.211 . S
C205 O197 1.284 . S
C205 O206 1.273 . S
O206 C205 1.273 . S
O207 Zn198 1.977 . S
O207 C200 1.267 . S
C208 O209 1.160 . S
C208 O215 1.185 . S
O209 C208 1.160 . S
O210 Zn211 1.899 . S
O210 C218 1.284 . S
Zn211 O210 1.899 . S
Zn211 O212 2.032 . S
Zn211 O215 2.086 . S
Zn211 O220 1.977 . S
O212 Zn211 2.032 . S
O212 C216 1.278 . S
C213 O214 1.203 . S
C213 O220 1.267 . S
O214 C213 1.203 . S
O215 C208 1.185 . S
O215 Zn211 2.086 . S
C216 O212 1.278 . S
C216 O217 1.211 . S
O217 C216 1.211 . S
C218 O210 1.284 . S
C218 O219 1.273 . S
O219 C218 1.273 . S
O220 Zn211 1.977 . S
O220 C213 1.267 . S
C221 O222 1.160 . S
C221 O228 1.185 . S
O222 C221 1.160 . S
O223 Zn224 1.899 . S
O223 C231 1.284 . S
Zn224 O223 1.899 . S
Zn224 O225 2.032 . S
Zn224 O228 2.086 . S
Zn224 O233 1.977 . S
O225 Zn224 2.032 . S
O225 C229 1.278 . S
C226 O227 1.203 . S
C226 O233 1.267 . S
O227 C226 1.203 . S
O228 C221 1.185 . S
O228 Zn224 2.086 . S
C229 O225 1.278 . S
C229 O230 1.211 . S
O230 C229 1.211 . S
C231 O223 1.284 . S
C231 O232 1.273 . S
O232 C231 1.273 . S
O233 Zn224 1.977 . S
O233 C226 1.267 . S
C130 C0 1.254 . S
C13 C143 1.233 . S
C117 C26 1.254 . S
C182 C39 1.254 . S
C52 C156 1.253 . S
C169 C65 1.233 . S
C78 C208 1.264 1_655 S
C221 C91 1.295 . S
C104 C195 1.264 1_545 S
C5 C23 1.239 1_455 S
C18 C36 1.186 . S
C10 C31 1.240 1_545 S
C75 C44 1.239 1_565 S
C49 C57 1.240 1_455 S
C70 C62 1.186 . S
C83 C101 1.271 . S
C96 C114 1.252 . S
C88 C109 1.238 . S
C153 C122 1.267 . S
C127 C135 1.236 . S
C140 C148 1.253 . S
C179 C161 1.267 . S
C192 C174 1.253 . S
C166 C187 1.236 . S
C200 C231 1.271 . S
C213 C205 1.238 . S
C226 C218 1.252 . S
C8 C47 1.721 1_554 S
C60 C21 1.652 1_546 S
C73 C34 1.652 1_656 S
C125 C86 1.730 . S
C138 C99 1.713 . S
C112 C151 1.729 . S
C203 C164 1.730 . S
C216 C177 1.729 . S
C229 C190 1.713 . S
