# Generated by pormake.
# Topology sxb, (6)-cn, num edge types: 1
# Building blocks:
#     Node 0, Type 0, BuildingBlock: UKALOJ_clean_sbu_0, # of connection points: 6
#     Node 1, Type 0, BuildingBlock: UKALOJ_clean_sbu_0, # of connection points: 6
#     Node 2, Type 0, BuildingBlock: UKALOJ_clean_sbu_0, # of connection points: 6
#     Node 3, Type 0, BuildingBlock: UKALOJ_clean_sbu_0, # of connection points: 6
#     Edge 4, Type (0, 0), BuildingBlock: OJICUG_clean_linker_0, # of connection points: 2
#     Edge 5, Type (0, 0), BuildingBlock: OJICUG_clean_linker_0, # of connection points: 2
#     Edge 6, Type (0, 0), BuildingBlock: OJICUG_clean_linker_0, # of connection points: 2
#     Edge 7, Type (0, 0), BuildingBlock: OJICUG_clean_linker_0, # of connection points: 2
#     Edge 8, Type (0, 0), BuildingBlock: OJICUG_clean_linker_0, # of connection points: 2
#     Edge 9, Type (0, 0), BuildingBlock: OJICUG_clean_linker_0, # of connection points: 2
#     Edge 10, Type (0, 0), BuildingBlock: OJICUG_clean_linker_0, # of connection points: 2
#     Edge 11, Type (0, 0), BuildingBlock: OJICUG_clean_linker_0, # of connection points: 2
#     Edge 12, Type (0, 0), BuildingBlock: OJICUG_clean_linker_0, # of connection points: 2
#     Edge 13, Type (0, 0), BuildingBlock: OJICUG_clean_linker_0, # of connection points: 2
#     Edge 14, Type (0, 0), BuildingBlock: OJICUG_clean_linker_0, # of connection points: 2
#     Edge 15, Type (0, 0), BuildingBlock: OJICUG_clean_linker_0, # of connection points: 2
# Relax obj value: 0.081
# Max RMSD: 0.145
# Mean RMSD: 0.145
data_MOF--net-sxb--node1-UKALOJ_clean_sbu_0--edge1-OJICUG_clean_linker_0
_symmetry_space_group_name_H-M    P1
_symmetry_Int_Tables_number       1
_symmetry_cell_setting            triclinic
loop_
_symmetry_equiv_pos_as_xyz
'x, y, z'
_cell_length_a     10.975981
_cell_length_b     19.523902
_cell_length_c     32.334009
_cell_angle_alpha  99.195081
_cell_angle_beta   89.902892
_cell_angle_gamma 89.999448
loop_
_atom_site_label
_atom_site_type_symbol
_atom_site_fract_x
_atom_site_fract_y
_atom_site_fract_z
_atom_type_partial_charge
Zn0 Zn 0.94846 0.04165 0.08056 0.0
O1 O 0.00584 0.93757 0.08181 0.0
C2 C 0.19153 0.06248 0.04752 0.0
Zn3 Zn 0.94841 0.02373 1.01065 0.0
C4 C 0.03108 0.89891 0.04733 0.0
O5 O 0.00633 0.92032 1.01321 0.0
C6 C 0.86579 0.16647 0.04388 0.0
O7 O 0.76307 0.99736 1.00917 0.0
O8 O 0.76356 0.01489 0.07802 0.0
N9 N -0.03862 1.00118 0.94644 0.0
C10 C 0.91507 0.02972 0.91452 0.0
C11 C 0.03137 0.94692 0.88767 0.0
N12 N 0.03313 0.94956 0.92953 0.0
N13 N -0.04179 0.99685 0.87746 0.0
C14 C -0.01806 0.03568 0.17668 0.0
C15 C 0.86551 0.11841 0.20355 0.0
N16 N 0.93551 0.0642 0.14477 0.0
N17 N 0.86367 0.11576 0.16169 0.0
N18 N 0.93881 0.06852 0.21374 0.0
H19 H 0.02475 0.92795 0.16532 0.0
H20 H 0.12765 0.97939 0.20084 0.0
H21 H 0.13605 0.98259 0.14533 0.0
C22 C 0.07357 0.97823 0.17177 0.0
C23 C 0.82356 0.08723 0.91942 0.0
H24 H 0.76097 0.08288 0.94583 0.0
H25 H 0.76959 0.08614 0.89033 0.0
H26 H 0.87247 0.13747 0.92591 0.0
O27 O 0.89104 0.12781 1.0094 0.0
O28 O 0.89053 0.14506 0.078 0.0
C29 C 0.70535 0.00291 0.04369 0.0
O30 O 0.1338 0.06803 0.08204 0.0
O31 O 0.13332 0.05049 1.01319 0.0
Zn32 Zn 0.94809 0.04227 0.58038 0.0
O33 O 0.7639 0.06862 0.57734 0.0
C34 C 0.86177 0.89976 0.54667 0.0
Zn35 Zn 0.94956 0.02309 0.51082 0.0
C36 C 0.70562 0.06209 0.54306 0.0
O37 O 0.7635 0.04881 0.5086 0.0
C38 C 0.19202 0.00327 0.54814 0.0
O39 O 0.0115 0.12658 0.51012 0.0
O40 O 0.00877 0.14509 0.5788 0.0
N41 N -0.03856 1.00049 0.44702 0.0
C42 C 0.93907 0.03789 0.41623 0.0
C43 C 0.00835 0.93976 0.38749 0.0
N44 N 0.00444 0.9396 0.42907 0.0
N45 N -0.0313 1.001 0.37843 0.0
C46 C -0.04151 0.02749 0.67497 0.0
C47 C 0.88926 0.12563 0.7037 0.0
N48 N 0.9362 0.06488 0.64418 0.0
N49 N 0.89323 0.12579 0.66212 0.0
N50 N 0.92885 0.06438 0.71277 0.0
H51 H 0.94111 0.91703 0.66507 0.0
H52 H 0.07483 0.94933 0.69423 0.0
H53 H 0.06763 0.94797 0.63828 0.0
C54 C 0.01451 0.95655 0.66777 0.0
C55 C 0.88301 0.10881 0.42345 0.0
H56 H 0.82995 0.11739 0.45295 0.0
H57 H 0.82261 0.11602 0.397 0.0
H58 H -0.04362 0.14834 0.42613 0.0
O59 O 0.13375 0.99674 0.51387 0.0
O60 O 0.13414 0.01654 0.5826 0.0
C61 C 0.03589 0.1656 0.54453 0.0
O62 O 0.88614 0.93878 0.58108 0.0
O63 O 0.88889 0.92026 0.5124 0.0
Zn64 Zn 0.44879 0.54229 0.08038 0.0
O65 O 0.51077 0.43882 0.08112 0.0
C66 C 0.69163 0.56208 0.043 0.0
Zn67 Zn 0.44802 0.52306 1.01082 0.0
C68 C 0.5355 0.39978 0.04671 0.0
O69 O 0.5087 0.42026 1.01244 0.0
C70 C 0.36132 0.66557 0.04449 0.0
O71 O 0.26381 0.49672 1.01393 0.0
O72 O 0.26271 0.51656 0.08266 0.0
N73 N 0.4366 0.50035 0.94703 0.0
C74 C 0.45884 0.53775 0.91621 0.0
C75 C 0.39001 0.43954 0.88755 0.0
N76 N 0.39389 0.4394 0.92914 0.0
N77 N 0.4294 0.50082 0.87845 0.0
C78 C 0.43808 0.5276 0.17499 0.0
C79 C 0.50685 0.62583 0.20364 0.0
N80 N 0.46023 0.56501 0.14417 0.0
N81 N 0.5029 0.62597 0.16206 0.0
N82 N 0.46755 0.56454 0.21275 0.0
H83 H 0.32906 0.44805 0.13845 0.0
H84 H 0.3222 0.4493 0.19441 0.0
H85 H 0.45588 0.41716 0.165 0.0
C86 C 0.38233 0.45662 0.16785 0.0
C87 C 0.51464 0.60872 0.92336 0.0
H88 H 0.44113 0.64819 0.92618 0.0
H89 H 0.57487 0.61601 0.89682 0.0
H90 H 0.56783 0.6173 0.95278 0.0
O91 O 0.38605 0.62654 1.01008 0.0
O92 O 0.3881 0.64509 0.07876 0.0
C93 C 0.20518 0.50327 0.0482 0.0
O94 O 0.633 0.56864 0.07728 0.0
O95 O 0.63411 0.54878 1.00854 0.0
Zn96 Zn 0.44855 0.54161 0.58055 0.0
O97 O 0.26319 0.56798 0.58207 0.0
C98 C 0.36624 0.39888 0.54737 0.0
Zn99 Zn 0.44929 0.52366 0.51064 0.0
C100 C 0.20581 0.56243 0.54755 0.0
O101 O 0.26437 0.55044 0.51322 0.0
C102 C 0.69203 0.50284 0.54364 0.0
O103 O 0.50669 0.62772 0.50935 0.0
O104 O 0.5065 0.645 0.57795 0.0
N105 N 0.43677 0.50104 0.44643 0.0
C106 C 0.48266 0.52976 0.41447 0.0
C107 C 0.3673 0.44656 0.38773 0.0
N108 N 0.36561 0.44918 0.42959 0.0
N109 N 0.43983 0.49676 0.37745 0.0
C110 C 0.41501 0.53555 0.67672 0.0
C111 C 0.53055 0.61865 0.70347 0.0
N112 N 0.46106 0.56422 0.64476 0.0
N113 N 0.53233 0.61601 0.66161 0.0
N114 N 0.45784 0.56851 0.71374 0.0
H115 H 0.26114 0.48216 0.64562 0.0
H116 H 0.27023 0.47863 0.70107 0.0
H117 H 0.37329 0.42769 0.66521 0.0
C118 C 0.32399 0.47781 0.6719 0.0
C119 C 0.57353 0.58757 0.41927 0.0
H120 H 0.52412 0.63766 0.42601 0.0
H121 H 0.62715 0.58684 0.39008 0.0
H122 H 0.63652 0.58322 0.44551 0.0
O123 O 0.63466 0.49729 0.50912 0.0
O124 O 0.63347 0.51483 0.57797 0.0
C125 C 0.5316 0.6664 0.54382 0.0
O126 O 0.39115 0.43755 0.58184 0.0
O127 O 0.39134 0.42027 0.51324 0.0
C128 C 0.23968 0.76458 0.08327 0.0
C129 C 0.28266 0.72781 0.04502 0.0
H130 H 0.12451 0.84532 0.11408 0.0
C131 C 0.23726 0.74581 1.00754 0.0
H132 H 0.27096 0.75159 0.11281 0.0
C133 C 0.15165 0.79931 1.00833 0.0
C134 C 0.10881 0.83617 0.04662 0.0
H135 H 0.26668 0.71802 0.97748 0.0
H136 H 0.12041 0.8124 0.9788 0.0
C137 C 0.15395 0.81788 0.08404 0.0
C138 C 0.65957 0.31955 0.08367 0.0
C139 C 0.61417 0.33755 0.04619 0.0
H140 H 0.77644 0.25298 0.1124 0.0
C141 C 0.65715 0.30078 1.00794 0.0
H142 H 0.63015 0.34734 0.11372 0.0
C143 C 0.7429 0.24748 1.00717 0.0
C144 C 0.78804 0.2292 0.04459 0.0
H145 H 0.62587 0.31376 0.97839 0.0
H146 H 0.77234 0.22004 0.97713 0.0
C147 C 0.74519 0.26606 0.08288 0.0
C148 C 0.16039 0.24581 0.50759 0.0
C149 C 0.11457 0.22783 0.54507 0.0
H150 H 0.2776 0.31235 0.47885 0.0
C151 C 0.15714 0.26461 0.58332 0.0
H152 H 0.13128 0.21801 0.47754 0.0
C153 C 0.2429 0.3179 0.58409 0.0
C154 C 0.28847 0.33615 0.54667 0.0
H155 H 0.12553 0.25163 0.61286 0.0
H156 H 0.27201 0.34535 0.61413 0.0
C157 C 0.24603 0.29928 0.50838 0.0
C158 C 0.7373 0.81953 0.58361 0.0
C159 C 0.78314 0.83751 0.54613 0.0
H160 H 0.62012 0.75297 0.61234 0.0
C161 C 0.74063 0.8007 0.50788 0.0
H162 H 0.76635 0.84735 0.61367 0.0
C163 C 0.65492 0.74738 0.50711 0.0
C164 C 0.60933 0.72914 0.54453 0.0
H165 H 0.77226 0.81367 0.47834 0.0
H166 H 0.62586 0.71991 0.47707 0.0
C167 C 0.65171 0.76603 0.58282 0.0
C168 C 0.38766 0.04746 0.08404 0.0
C169 C 0.32499 0.05316 0.0469 0.0
H170 H 0.55571 0.02429 0.11204 0.0
C171 C 0.38722 0.03826 1.00845 0.0
H172 H 0.34189 0.05721 0.11412 0.0
C173 C 0.50922 0.01792 1.00717 0.0
C174 C 0.57188 0.01222 0.04431 0.0
H175 H 0.34117 0.04109 0.97917 0.0
H176 H 0.55499 0.00818 0.97709 0.0
C177 C 0.50965 0.02713 0.08276 0.0
C178 C 0.38871 0.03847 0.58419 0.0
C179 C 0.32555 0.01248 0.54727 0.0
H180 H 0.55688 0.07736 0.61168 0.0
C181 C 0.38718 0.00681 0.50867 0.0
H182 H 0.34348 0.04481 0.61437 0.0
C183 C 0.50893 0.02689 0.50701 0.0
C184 C 0.57209 0.05288 0.54393 0.0
H185 H 0.34077 0.988 0.47952 0.0
H186 H 0.55417 0.02055 0.47684 0.0
C187 C 0.51047 0.05855 0.58253 0.0
C188 C 0.88636 0.55866 0.08251 0.0
C189 C 0.82516 0.55287 0.04389 0.0
H190 H 0.05301 0.54503 0.11438 0.0
C191 C 0.88872 0.52676 1.007 0.0
H192 H 0.83964 0.57757 0.11163 0.0
C193 C 0.01045 0.50668 1.0087 0.0
C194 C 0.07166 0.51247 0.04731 0.0
H195 H 0.8438 0.52032 0.97682 0.0
H196 H 0.05717 0.48777 0.97957 0.0
C197 C 0.0081 0.53859 0.0842 0.0
C198 C 0.01053 0.53828 0.50846 0.0
C199 C 0.07236 0.55311 0.54691 0.0
H200 H 0.84309 0.50826 0.47707 0.0
C201 C 0.0093 0.54732 0.58404 0.0
H202 H 0.05689 0.54118 0.47919 0.0
C203 C 0.88732 0.52699 0.58273 0.0
C204 C 0.82549 0.51216 0.54428 0.0
H205 H 0.05476 0.55701 0.61412 0.0
H206 H 0.84096 0.52408 0.61201 0.0
C207 C 0.88855 0.51794 0.50715 0.0
C208 C -0.01267 0.0865 0.3295 0.0
C209 C -0.03827 0.01892 0.33692 0.0
H210 H -0.0013 0.1552 0.28391 0.0
C211 C 0.93458 0.9673 0.30262 0.0
H212 H 0.01442 0.12672 0.35472 0.0
C213 C 0.93 0.98319 0.26204 0.0
C214 C -0.04751 0.05102 0.25493 0.0
H215 H 0.91531 0.9147 0.30733 0.0
H216 H 0.9058 0.94295 0.23631 0.0
C217 C -0.01935 0.10261 0.28893 0.0
C218 C -0.03272 0.08219 0.82917 0.0
C219 C 0.94466 0.01436 0.83627 0.0
H220 H -0.01781 0.15066 0.78388 0.0
C221 C 0.91651 0.96278 0.80226 0.0
H222 H -0.00853 0.12241 0.85491 0.0
C223 C 0.90998 0.97889 0.7617 0.0
C224 C 0.93569 0.04647 0.75428 0.0
H225 H 0.89837 0.9102 0.80728 0.0
H226 H 0.8829 0.93869 0.73647 0.0
C227 C -0.03717 0.09807 0.78859 0.0
C228 C 0.4813 0.46286 0.30217 0.0
C229 C 0.45296 0.51435 0.33625 0.0
H230 H 0.51461 0.43891 0.23631 0.0
C231 C 0.42968 0.58214 0.32921 0.0
H232 H 0.49993 0.41032 0.30714 0.0
C233 C 0.4337 0.59807 0.28862 0.0
C234 C 0.46104 0.54656 0.25426 0.0
H235 H 0.4053 0.62229 0.355 0.0
H236 H 0.41386 0.65063 0.28397 0.0
C237 C 0.48738 0.47903 0.26161 0.0
C238 C 0.41616 0.60246 0.789 0.0
C239 C 0.44452 0.55095 0.75495 0.0
H240 H 0.38264 0.62646 0.85485 0.0
C241 C 0.46764 0.48315 0.762 0.0
H242 H 0.39766 0.65501 0.78402 0.0
C243 C 0.46343 0.46723 0.80259 0.0
C244 C 0.43607 0.51878 0.83694 0.0
H245 H 0.49202 0.44298 0.73622 0.0
H246 H 0.48314 0.41467 0.80726 0.0
C247 C 0.40989 0.58631 0.82957 0.0
loop_
_geom_bond_atom_site_label_1
_geom_bond_atom_site_label_2
_geom_bond_distance
_geom_bond_site_symmetry_2
_ccdc_geom_bond_type
Zn0 O1 2.055 1_645 S
Zn0 O8 2.046 1_545 S
Zn0 N16 2.036 . S
Zn0 O28 2.053 . S
Zn0 O30 2.066 1_655 S
O1 Zn0 2.055 1_465 S
O1 C4 1.259 . S
C2 O30 1.256 . S
C2 O31 1.244 1_554 S
Zn3 O5 2.046 1_655 S
Zn3 O7 2.055 . S
Zn3 N9 2.036 1_655 S
Zn3 O27 2.066 1_565 S
Zn3 O31 2.053 1_665 S
C4 O1 1.259 . S
C4 O5 1.254 1_554 S
O5 Zn3 2.046 1_455 S
O5 C4 1.254 1_556 S
C6 O27 1.256 1_554 S
C6 O28 1.244 . S
O7 Zn3 2.055 . S
O7 C29 1.259 1_556 S
O8 Zn0 2.046 1_565 S
O8 C29 1.254 . S
N9 Zn3 2.036 1_455 S
N9 C10 1.298 1_465 S
N9 N12 1.398 . S
C10 N9 1.298 1_645 S
C10 N13 1.367 1_655 S
C10 C23 1.481 . S
C11 N12 1.299 . S
C11 N13 1.379 1_565 S
N12 N9 1.398 . S
N12 C11 1.299 . S
N13 C10 1.367 1_455 S
N13 C11 1.379 1_545 S
C14 N16 1.298 1_465 S
C14 N18 1.367 1_565 S
C14 C22 1.481 . S
C15 N17 1.299 . S
C15 N18 1.379 1_655 S
N16 Zn0 2.036 . S
N16 C14 1.298 1_645 S
N16 N17 1.398 . S
N17 C15 1.299 . S
N17 N16 1.398 . S
N18 C14 1.367 1_545 S
N18 C15 1.379 1_455 S
H19 C22 0.980 . S
H20 C22 0.981 . S
H21 C22 0.981 . S
C22 C14 1.481 . S
C22 H19 0.980 . S
C22 H20 0.981 . S
C22 H21 0.981 . S
C23 C10 1.481 . S
C23 H24 0.980 1_545 S
C23 H25 0.981 1_545 S
C23 H26 0.981 . S
H24 C23 0.980 1_565 S
H25 C23 0.981 1_565 S
H26 C23 0.981 . S
O27 Zn3 2.066 1_545 S
O27 C6 1.256 1_556 S
O28 Zn0 2.053 . S
O28 C6 1.244 . S
C29 O7 1.259 1_554 S
C29 O8 1.254 . S
O30 Zn0 2.066 1_455 S
O30 C2 1.256 . S
O31 C2 1.244 1_556 S
O31 Zn3 2.053 1_445 S
Zn32 O33 2.055 . S
Zn32 O40 2.046 1_655 S
Zn32 N48 2.036 1_655 S
Zn32 O60 2.053 1_655 S
Zn32 O62 2.066 1_545 S
O33 Zn32 2.055 . S
O33 C36 1.259 . S
C34 O62 1.256 . S
C34 O63 1.244 . S
Zn35 O37 2.046 . S
Zn35 O39 2.055 1_655 S
Zn35 N41 2.036 . S
Zn35 O59 2.066 1_655 S
Zn35 O63 2.053 1_545 S
C36 O33 1.259 . S
C36 O37 1.254 . S
O37 Zn35 2.046 . S
O37 C36 1.254 . S
C38 O59 1.256 . S
C38 O60 1.244 . S
O39 Zn35 2.055 1_455 S
O39 C61 1.259 . S
O40 Zn32 2.046 1_455 S
O40 C61 1.254 . S
N41 Zn35 2.036 . S
N41 C42 1.298 1_655 S
N41 N44 1.398 1_545 S
C42 N41 1.298 1_455 S
C42 N45 1.367 . S
C42 C55 1.481 . S
C43 N44 1.299 . S
C43 N45 1.379 1_665 S
N44 N41 1.398 1_565 S
N44 C43 1.299 . S
N45 C42 1.367 . S
N45 C43 1.379 1_445 S
C46 N48 1.298 1_655 S
C46 N50 1.367 1_655 S
C46 C54 1.481 . S
C47 N49 1.299 . S
C47 N50 1.379 . S
N48 Zn32 2.036 1_455 S
N48 C46 1.298 1_455 S
N48 N49 1.398 . S
N49 C47 1.299 . S
N49 N48 1.398 . S
N50 C46 1.367 1_455 S
N50 C47 1.379 . S
H51 C54 0.980 . S
H52 C54 0.981 . S
H53 C54 0.981 1_565 S
C54 C46 1.481 . S
C54 H51 0.980 . S
C54 H52 0.981 . S
C54 H53 0.981 1_545 S
C55 C42 1.481 . S
C55 H56 0.980 . S
C55 H57 0.981 . S
C55 H58 0.981 . S
H56 C55 0.980 . S
H57 C55 0.981 . S
H58 C55 0.981 . S
O59 Zn35 2.066 1_455 S
O59 C38 1.256 . S
O60 Zn32 2.053 1_455 S
O60 C38 1.244 . S
C61 O39 1.259 . S
C61 O40 1.254 . S
O62 Zn32 2.066 1_565 S
O62 C34 1.256 . S
O63 C34 1.244 . S
O63 Zn35 2.053 1_565 S
Zn64 O65 2.055 . S
Zn64 O72 2.046 . S
Zn64 N80 2.036 . S
Zn64 O92 2.053 . S
Zn64 O94 2.066 . S
O65 Zn64 2.055 . S
O65 C68 1.259 . S
C66 O94 1.256 . S
C66 O95 1.244 1_554 S
Zn67 O69 2.046 . S
Zn67 O71 2.055 . S
Zn67 N73 2.036 . S
Zn67 O91 2.066 . S
Zn67 O95 2.053 . S
C68 O65 1.259 . S
C68 O69 1.254 1_554 S
O69 Zn67 2.046 . S
O69 C68 1.254 1_556 S
C70 O91 1.256 1_554 S
C70 O92 1.244 . S
O71 Zn67 2.055 . S
O71 C93 1.259 1_556 S
O72 Zn64 2.046 . S
O72 C93 1.254 . S
N73 Zn67 2.036 . S
N73 C74 1.298 . S
N73 N76 1.398 . S
C74 N73 1.298 . S
C74 N77 1.367 . S
C74 C87 1.481 . S
C75 N76 1.299 . S
C75 N77 1.379 . S
N76 N73 1.398 . S
N76 C75 1.299 . S
N77 C74 1.367 . S
N77 C75 1.379 . S
C78 N80 1.298 . S
C78 N82 1.367 . S
C78 C86 1.481 . S
C79 N81 1.299 . S
C79 N82 1.379 . S
N80 Zn64 2.036 . S
N80 C78 1.298 . S
N80 N81 1.398 . S
N81 C79 1.299 . S
N81 N80 1.398 . S
N82 C78 1.367 . S
N82 C79 1.379 . S
H83 C86 0.980 . S
H84 C86 0.981 . S
H85 C86 0.981 . S
C86 C78 1.481 . S
C86 H83 0.980 . S
C86 H84 0.981 . S
C86 H85 0.981 . S
C87 C74 1.481 . S
C87 H88 0.980 . S
C87 H89 0.981 . S
C87 H90 0.981 . S
H88 C87 0.980 . S
H89 C87 0.981 . S
H90 C87 0.981 . S
O91 Zn67 2.066 . S
O91 C70 1.256 1_556 S
O92 Zn64 2.053 . S
O92 C70 1.244 . S
C93 O71 1.259 1_554 S
C93 O72 1.254 . S
O94 Zn64 2.066 . S
O94 C66 1.256 . S
O95 C66 1.244 1_556 S
O95 Zn67 2.053 . S
Zn96 O97 2.055 . S
Zn96 O104 2.046 . S
Zn96 N112 2.036 . S
Zn96 O124 2.053 . S
Zn96 O126 2.066 . S
O97 Zn96 2.055 . S
O97 C100 1.259 . S
C98 O126 1.256 . S
C98 O127 1.244 . S
Zn99 O101 2.046 . S
Zn99 O103 2.055 . S
Zn99 N105 2.036 . S
Zn99 O123 2.066 . S
Zn99 O127 2.053 . S
C100 O97 1.259 . S
C100 O101 1.254 . S
O101 Zn99 2.046 . S
O101 C100 1.254 . S
C102 O123 1.256 . S
C102 O124 1.244 . S
O103 Zn99 2.055 . S
O103 C125 1.259 . S
O104 Zn96 2.046 . S
O104 C125 1.254 . S
N105 Zn99 2.036 . S
N105 C106 1.298 . S
N105 N108 1.398 . S
C106 N105 1.298 . S
C106 N109 1.367 . S
C106 C119 1.481 . S
C107 N108 1.299 . S
C107 N109 1.379 . S
N108 N105 1.398 . S
N108 C107 1.299 . S
N109 C106 1.367 . S
N109 C107 1.379 . S
C110 N112 1.298 . S
C110 N114 1.367 . S
C110 C118 1.481 . S
C111 N113 1.299 . S
C111 N114 1.379 . S
N112 Zn96 2.036 . S
N112 C110 1.298 . S
N112 N113 1.398 . S
N113 C111 1.299 . S
N113 N112 1.398 . S
N114 C110 1.367 . S
N114 C111 1.379 . S
H115 C118 0.980 . S
H116 C118 0.981 . S
H117 C118 0.981 . S
C118 C110 1.481 . S
C118 H115 0.980 . S
C118 H116 0.981 . S
C118 H117 0.981 . S
C119 C106 1.481 . S
C119 H120 0.980 . S
C119 H121 0.981 . S
C119 H122 0.981 . S
H120 C119 0.980 . S
H121 C119 0.981 . S
H122 C119 0.981 . S
O123 Zn99 2.066 . S
O123 C102 1.256 . S
O124 Zn96 2.053 . S
O124 C102 1.244 . S
C125 O103 1.259 . S
C125 O104 1.254 . S
O126 Zn96 2.066 . S
O126 C98 1.256 . S
O127 C98 1.244 . S
O127 Zn99 2.053 . S
C128 C129 1.387 . S
C128 H132 0.950 . S
C128 C137 1.390 . S
C129 C128 1.387 . S
C129 C131 1.387 1_554 S
H130 C137 0.950 . S
C131 C129 1.387 1_556 S
C131 C133 1.390 . S
C131 H135 0.950 . S
H132 C128 0.950 . S
C133 C131 1.390 . S
C133 C134 1.387 1_556 S
C133 H136 0.950 . S
C134 C133 1.387 1_554 S
C134 C137 1.387 . S
H135 C131 0.950 . S
H136 C133 0.950 . S
C137 C128 1.390 . S
C137 H130 0.950 . S
C137 C134 1.387 . S
C138 C139 1.387 . S
C138 H142 0.950 . S
C138 C147 1.390 . S
C139 C138 1.387 . S
C139 C141 1.387 1_554 S
H140 C147 0.950 . S
C141 C139 1.387 1_556 S
C141 C143 1.390 . S
C141 H145 0.950 . S
H142 C138 0.950 . S
C143 C141 1.390 . S
C143 C144 1.387 1_556 S
C143 H146 0.950 . S
C144 C143 1.387 1_554 S
C144 C147 1.387 . S
H145 C141 0.950 . S
H146 C143 0.950 . S
C147 C138 1.390 . S
C147 H140 0.950 . S
C147 C144 1.387 . S
C148 C149 1.387 . S
C148 H152 0.950 . S
C148 C157 1.390 . S
C149 C148 1.387 . S
C149 C151 1.387 . S
H150 C157 0.950 . S
C151 C149 1.387 . S
C151 C153 1.390 . S
C151 H155 0.950 . S
H152 C148 0.950 . S
C153 C151 1.390 . S
C153 C154 1.387 . S
C153 H156 0.950 . S
C154 C153 1.387 . S
C154 C157 1.387 . S
H155 C151 0.950 . S
H156 C153 0.950 . S
C157 C148 1.390 . S
C157 H150 0.950 . S
C157 C154 1.387 . S
C158 C159 1.387 . S
C158 H162 0.950 . S
C158 C167 1.390 . S
C159 C158 1.387 . S
C159 C161 1.387 . S
H160 C167 0.950 . S
C161 C159 1.387 . S
C161 C163 1.390 . S
C161 H165 0.950 . S
H162 C158 0.950 . S
C163 C161 1.390 . S
C163 C164 1.387 . S
C163 H166 0.950 . S
C164 C163 1.387 . S
C164 C167 1.387 . S
H165 C161 0.950 . S
H166 C163 0.950 . S
C167 C158 1.390 . S
C167 H160 0.950 . S
C167 C164 1.387 . S
C168 C169 1.387 1_565 S
C168 H172 0.950 . S
C168 C177 1.390 . S
C169 C168 1.387 1_545 S
C169 C171 1.387 . S
H170 C177 0.950 . S
C171 C169 1.387 . S
C171 C173 1.390 . S
C171 H175 0.950 . S
H172 C168 0.950 . S
C173 C171 1.390 . S
C173 C174 1.387 1_545 S
C173 H176 0.950 . S
C174 C173 1.387 1_565 S
C174 C177 1.387 . S
H175 C171 0.950 . S
H176 C173 0.950 . S
C177 C168 1.390 . S
C177 H170 0.950 . S
C177 C174 1.387 . S
C178 C179 1.387 . S
C178 H182 0.950 . S
C178 C187 1.390 . S
C179 C178 1.387 . S
C179 C181 1.387 . S
H180 C187 0.950 . S
C181 C179 1.387 . S
C181 C183 1.390 . S
C181 H185 0.950 . S
H182 C178 0.950 . S
C183 C181 1.390 . S
C183 C184 1.387 . S
C183 H186 0.950 . S
C184 C183 1.387 . S
C184 C187 1.387 . S
H185 C181 0.950 . S
H186 C183 0.950 . S
C187 C178 1.390 . S
C187 H180 0.950 . S
C187 C184 1.387 . S
C188 C189 1.387 . S
C188 H192 0.950 . S
C188 C197 1.390 1_655 S
C189 C188 1.387 . S
C189 C191 1.387 1_554 S
H190 C197 0.950 . S
C191 C189 1.387 1_556 S
C191 C193 1.390 1_655 S
C191 H195 0.950 . S
H192 C188 0.950 . S
C193 C191 1.390 1_455 S
C193 C194 1.387 1_556 S
C193 H196 0.950 . S
C194 C193 1.387 1_554 S
C194 C197 1.387 . S
H195 C191 0.950 . S
H196 C193 0.950 . S
C197 C188 1.390 1_455 S
C197 H190 0.950 . S
C197 C194 1.387 . S
C198 C199 1.387 . S
C198 H202 0.950 . S
C198 C207 1.390 1_455 S
C199 C198 1.387 . S
C199 C201 1.387 . S
H200 C207 0.950 . S
C201 C199 1.387 . S
C201 C203 1.390 1_455 S
C201 H205 0.950 . S
H202 C198 0.950 . S
C203 C201 1.390 1_655 S
C203 C204 1.387 . S
C203 H206 0.950 . S
C204 C203 1.387 . S
C204 C207 1.387 . S
H205 C201 0.950 . S
H206 C203 0.950 . S
C207 C198 1.390 1_655 S
C207 H200 0.950 . S
C207 C204 1.387 . S
C208 C209 1.387 . S
C208 H212 0.950 . S
C208 C217 1.390 . S
C209 C208 1.387 . S
C209 C211 1.387 1_455 S
H210 C217 0.950 . S
C211 C209 1.387 1_655 S
C211 C213 1.390 . S
C211 H215 0.950 . S
H212 C208 0.950 . S
C213 C211 1.390 . S
C213 C214 1.387 1_655 S
C213 H216 0.950 . S
C214 C213 1.387 1_455 S
C214 C217 1.387 . S
H215 C211 0.950 . S
H216 C213 0.950 . S
C217 C208 1.390 . S
C217 H210 0.950 . S
C217 C214 1.387 . S
C218 C219 1.387 1_455 S
C218 H222 0.950 . S
C218 C227 1.390 . S
C219 C218 1.387 1_655 S
C219 C221 1.387 . S
H220 C227 0.950 . S
C221 C219 1.387 . S
C221 C223 1.390 . S
C221 H225 0.950 . S
H222 C218 0.950 . S
C223 C221 1.390 . S
C223 C224 1.387 . S
C223 H226 0.950 . S
C224 C223 1.387 . S
C224 C227 1.387 1_655 S
H225 C221 0.950 . S
H226 C223 0.950 . S
C227 C218 1.390 . S
C227 H220 0.950 . S
C227 C224 1.387 1_455 S
C228 C229 1.387 . S
C228 H232 0.950 . S
C228 C237 1.390 . S
C229 C228 1.387 . S
C229 C231 1.387 . S
H230 C237 0.950 . S
C231 C229 1.387 . S
C231 C233 1.390 . S
C231 H235 0.950 . S
H232 C228 0.950 . S
C233 C231 1.390 . S
C233 C234 1.387 . S
C233 H236 0.950 . S
C234 C233 1.387 . S
C234 C237 1.387 . S
H235 C231 0.950 . S
H236 C233 0.950 . S
C237 C228 1.390 . S
C237 H230 0.950 . S
C237 C234 1.387 . S
C238 C239 1.387 . S
C238 H242 0.950 . S
C238 C247 1.390 . S
C239 C238 1.387 . S
C239 C241 1.387 . S
H240 C247 0.950 . S
C241 C239 1.387 . S
C241 C243 1.390 . S
C241 H245 0.950 . S
H242 C238 0.950 . S
C243 C241 1.390 . S
C243 C244 1.387 . S
C243 H246 0.950 . S
C244 C243 1.387 . S
C244 C247 1.387 . S
H245 C241 0.950 . S
H246 C243 0.950 . S
C247 C238 1.390 . S
C247 H240 0.950 . S
C247 C244 1.387 . S
C129 C70 1.580 . S
C134 C4 1.593 . S
C139 C68 1.594 . S
C144 C6 1.581 . S
C149 C61 1.593 . S
C154 C98 1.580 . S
C159 C34 1.583 . S
C164 C125 1.595 . S
C169 C2 1.130 . S
C174 C29 1.138 . S
C179 C38 1.128 . S
C184 C36 1.136 . S
C189 C66 1.131 . S
C194 C93 1.138 . S
C199 C100 1.138 . S
C204 C102 1.131 . S
C209 N45 1.483 . S
C214 N18 1.483 . S
C219 N13 1.460 1_655 S
C224 N50 1.460 1_655 S
C229 N109 1.482 . S
C234 N82 1.482 . S
C239 N114 1.459 . S
C244 N77 1.459 . S
