# Generated by pormake.
# Topology oof, (8)-cn, num edge types: 1
# Building blocks:
#     Node 0, Type 0, BuildingBlock: TAGTUT_clean_sbu_3, # of connection points: 8
#     Node 1, Type 0, BuildingBlock: TAGTUT_clean_sbu_3, # of connection points: 8
#     Node 2, Type 0, BuildingBlock: TAGTUT_clean_sbu_3, # of connection points: 8
#     Node 3, Type 0, BuildingBlock: TAGTUT_clean_sbu_3, # of connection points: 8
#     Edge 4, Type (0, 0), None
#     Edge 5, Type (0, 0), None
#     Edge 6, Type (0, 0), None
#     Edge 7, Type (0, 0), None
#     Edge 8, Type (0, 0), None
#     Edge 9, Type (0, 0), None
#     Edge 10, Type (0, 0), None
#     Edge 11, Type (0, 0), None
#     Edge 12, Type (0, 0), None
#     Edge 13, Type (0, 0), None
#     Edge 14, Type (0, 0), None
#     Edge 15, Type (0, 0), None
#     Edge 16, Type (0, 0), None
#     Edge 17, Type (0, 0), None
#     Edge 18, Type (0, 0), None
#     Edge 19, Type (0, 0), None
# Relax obj value: 0.061
# Max RMSD: 0.153
# Mean RMSD: 0.153
data_MOF--net-oof--node1-TAGTUT_clean_sbu_3--edge1-none
_symmetry_space_group_name_H-M    P1
_symmetry_Int_Tables_number       1
_symmetry_cell_setting            triclinic
loop_
_symmetry_equiv_pos_as_xyz
'x, y, z'
_cell_length_a     7.6656699
_cell_length_b     38.744264
_cell_length_c     7.4561244
_cell_angle_alpha  90.101518
_cell_angle_beta   83.972047
_cell_angle_gamma 89.96566
loop_
_atom_site_label
_atom_site_type_symbol
_atom_site_fract_x
_atom_site_fract_y
_atom_site_fract_z
_atom_type_partial_charge
C0 C 0.38087 0.11006 0.21191 0.0
C1 C 0.12327 0.22809 0.44659 0.0
C2 C 0.73612 0.1975 0.06131 0.0
Mg3 Mg 0.1722 0.04342 0.09784 0.0
Mg4 Mg 0.76264 0.02792 0.26597 0.0
O5 O 0.91912 0.05685 0.13247 0.0
Mg6 Mg 0.9635 0.10458 0.23494 0.0
O7 O 0.01565 0.15187 0.3187 0.0
Mg8 Mg 0.13553 0.17107 0.09605 0.0
Mg9 Mg 0.82934 0.17577 0.44271 0.0
C10 C 0.53194 0.09448 0.23537 0.0
O11 O 0.96135 0.09102 0.52807 0.0
O12 O 0.10537 -0.00828 -0.00512 0.0
O13 O 0.86073 0.14 0.66437 0.0
O14 O 0.14196 0.01388 0.37031 0.0
O15 O 0.84428 -0.02161 0.14625 0.0
O16 O 0.87604 0.02716 0.50492 0.0
O17 O 0.0097 0.12255 0.95849 0.0
O18 O 0.11756 0.0734 0.83247 0.0
C19 C 0.0382 0.10271 0.82228 0.0
C20 C -0.01158 0.96987 0.05267 0.0
O21 O 0.66906 0.11336 0.23786 0.0
O22 O 0.19836 0.21483 0.2988 0.0
O23 O 0.53553 0.06138 0.25137 0.0
O24 O 0.9 0.1982 0.01458 0.0
O25 O -0.03107 0.22003 0.51225 0.0
O26 O 0.67225 0.18713 0.21835 0.0
O27 O 0.24035 0.09285 0.22079 0.0
O28 O 0.37785 0.14205 0.17361 0.0
C29 C 0.01332 0.00871 0.49274 0.0
C30 C 0.94485 0.11121 0.66421 0.0
C31 C 0.02364 0.84035 0.32544 0.0
C32 C -0.01246 -0.02669 0.55483 0.0
C33 C 0.01561 0.93419 -0.00473 0.0
Mg34 Mg 0.12556 0.77195 0.59702 0.0
Mg35 Mg 0.82432 0.76776 0.94963 0.0
O36 O 0.01087 0.79118 0.82325 0.0
Mg37 Mg 0.95893 0.83858 0.74313 0.0
O38 O 0.91486 0.88652 0.64114 0.0
Mg39 Mg 0.16746 0.89922 0.5998 0.0
Mg40 Mg 0.76147 0.91611 0.77311 0.0
C41 C 0.94777 0.83155 0.17641 0.0
O42 O 0.66805 0.83003 0.75199 0.0
O43 O 0.19014 0.72828 0.80022 0.0
O44 O 0.53852 0.8825 0.75037 0.0
O45 O 0.88949 0.74513 0.52058 0.0
O46 O 0.96166 0.72302 0.01473 0.0
O47 O 0.66364 0.7565 0.72633 0.0
O48 O 0.23202 0.84988 0.72496 0.0
O49 O 0.36911 0.80075 0.66793 0.0
C50 C 0.37115 0.83246 0.71162 0.0
C51 C 0.11591 0.71502 0.94824 0.0
O52 O 0.96425 0.85163 0.03956 0.0
O53 O 0.10313 0.95114 0.49685 0.0
O54 O 0.86264 0.80285 0.17484 0.0
O55 O 0.14366 0.92878 0.87234 0.0
O56 O 0.84424 0.9652 0.65056 0.0
O57 O 0.8789 0.91563 0.00934 0.0
O58 O -0.00189 0.82079 0.46328 0.0
O59 O 0.10692 0.86929 0.3341 0.0
C60 C 0.7261 0.74605 0.56857 0.0
C61 C 0.53443 0.84935 0.74112 0.0
C62 C 0.52679 0.60314 0.82234 0.0
C63 C 0.49459 0.4702 0.04984 0.0
C64 C 0.52079 0.50923 0.49059 0.0
Mg65 Mg 0.6272 0.67152 0.09557 0.0
Mg66 Mg 0.32559 0.67553 0.44809 0.0
O67 O 0.513 0.65225 0.32138 0.0
Mg68 Mg 0.46198 0.60486 0.2401 0.0
O69 O 0.41882 0.55694 0.13682 0.0
Mg70 Mg 0.67169 0.54428 0.09521 0.0
Mg71 Mg 0.26616 0.52734 0.26847 0.0
C72 C 0.45052 0.61187 0.67358 0.0
O73 O 0.17111 0.61343 0.24904 0.0
O74 O 0.69035 0.71518 0.30018 0.0
O75 O 0.04233 0.56094 0.24643 0.0
O76 O 0.39031 0.69828 0.01967 0.0
O77 O 0.46139 0.72035 0.51442 0.0
O78 O 0.16469 0.68683 0.22525 0.0
O79 O 0.7352 0.59356 0.22202 0.0
O80 O 0.87155 0.64272 0.16582 0.0
C81 C 0.87412 0.611 0.20883 0.0
C82 C 0.61555 0.72841 0.44832 0.0
O83 O 0.46744 0.5918 0.5363 0.0
O84 O 0.6088 0.49246 0.99046 0.0
O85 O 0.36455 0.6405 0.67268 0.0
O86 O 0.64803 0.51447 0.36671 0.0
O87 O 0.35126 0.47825 0.14606 0.0
O88 O 0.38374 0.52776 0.50485 0.0
O89 O 0.50079 0.62267 0.96061 0.0
O90 O 0.61086 0.57426 0.83031 0.0
C91 C 0.22692 0.69733 0.06775 0.0
C92 C 0.03771 0.5941 0.23782 0.0
C93 C 0.53127 0.34076 0.32103 0.0
C94 C 0.4949 0.47374 0.55103 0.0
C95 C 0.52317 0.43462 0.99121 0.0
Mg96 Mg 0.63345 0.27238 0.59205 0.0
Mg97 Mg 0.33314 0.26807 0.94522 0.0
O98 O 0.51903 0.29159 0.81845 0.0
Mg99 Mg 0.46673 0.33899 0.73863 0.0
O100 O 0.42245 0.38694 0.63677 0.0
Mg101 Mg 0.67494 0.39972 0.59525 0.0
Mg102 Mg 0.26932 0.41647 0.76935 0.0
C103 C 0.45564 0.3319 0.172 0.0
O104 O 0.17582 0.33041 0.74732 0.0
O105 O 0.69993 0.22867 0.79406 0.0
O106 O 0.04641 0.38291 0.7462 0.0
O107 O 0.39676 0.24546 0.51712 0.0
O108 O 0.47158 0.22337 0.00872 0.0
O109 O 0.1711 0.25654 0.72366 0.0
O110 O 0.73984 0.35036 0.72065 0.0
O111 O 0.87697 0.30125 0.66224 0.0
C112 C 0.87899 0.33293 0.70661 0.0
C113 C 0.62574 0.21535 0.94183 0.0
O114 O 0.47201 0.35196 0.0351 0.0
O115 O 0.61024 0.45159 0.49199 0.0
O116 O 0.37089 0.30315 0.17048 0.0
O117 O 0.65097 0.42945 0.86767 0.0
O118 O 0.35203 0.46558 0.64736 0.0
O119 O 0.38716 0.41586 0.00531 0.0
O120 O 0.50573 0.32122 0.45889 0.0
O121 O 0.61438 0.36972 0.32966 0.0
C122 C 0.23344 0.24606 0.56597 0.0
C123 C 0.04227 0.34977 0.73651 0.0
loop_
_geom_bond_atom_site_label_1
_geom_bond_atom_site_label_2
_geom_bond_distance
_geom_bond_site_symmetry_2
_ccdc_geom_bond_type
C0 O27 1.312 . S
C0 O28 1.208 . S
C1 O22 1.331 . S
C1 O25 1.244 . S
C2 O24 1.264 . S
C2 O26 1.273 . S
Mg3 O5 1.936 1_455 S
Mg3 O12 2.081 1_554 S
Mg3 O14 2.023 . S
Mg3 O18 2.031 1_554 S
Mg3 O27 2.291 . S
Mg4 O5 1.963 . S
Mg4 O15 1.942 . S
Mg4 O16 1.955 . S
Mg4 O23 1.986 . S
O5 Mg3 1.936 1_655 S
O5 Mg4 1.963 . S
O5 Mg6 1.915 . S
Mg6 O5 1.915 . S
Mg6 O7 1.915 1_655 S
Mg6 O11 2.013 . S
Mg6 O17 2.114 1_654 S
Mg6 O21 2.013 . S
Mg6 O27 2.114 1_655 S
O7 Mg6 1.915 1_455 S
O7 Mg8 1.936 . S
O7 Mg9 1.963 1_455 S
Mg8 O7 1.936 . S
Mg8 O17 2.291 1_554 S
Mg8 O22 2.081 . S
Mg8 O24 2.023 1_455 S
Mg8 O28 2.031 . S
Mg9 O7 1.963 1_655 S
Mg9 O13 1.986 . S
Mg9 O25 1.942 1_655 S
Mg9 O26 1.955 . S
C10 O21 1.191 . S
C10 O23 1.307 . S
O11 Mg6 2.013 . S
O11 C30 1.191 . S
O12 Mg3 2.081 1_556 S
O12 C20 1.331 1_456 S
O13 Mg9 1.986 . S
O13 C30 1.307 . S
O14 Mg3 2.023 . S
O14 C29 1.264 . S
O15 Mg4 1.942 . S
O15 C20 1.244 . S
O16 Mg4 1.955 . S
O16 C29 1.273 1_655 S
O17 Mg6 2.114 1_456 S
O17 Mg8 2.291 1_556 S
O17 C19 1.312 . S
O18 Mg3 2.031 1_556 S
O18 C19 1.208 . S
C19 O17 1.312 . S
C19 O18 1.208 . S
C20 O12 1.331 1_654 S
C20 O15 1.244 . S
O21 Mg6 2.013 . S
O21 C10 1.191 . S
O22 C1 1.331 . S
O22 Mg8 2.081 . S
O23 Mg4 1.986 . S
O23 C10 1.307 . S
O24 C2 1.264 . S
O24 Mg8 2.023 1_655 S
O25 C1 1.244 . S
O25 Mg9 1.942 1_455 S
O26 C2 1.273 . S
O26 Mg9 1.955 . S
O27 C0 1.312 . S
O27 Mg3 2.291 . S
O27 Mg6 2.114 1_455 S
O28 C0 1.208 . S
O28 Mg8 2.031 . S
C29 O14 1.264 . S
C29 O16 1.273 1_455 S
C30 O11 1.191 . S
C30 O13 1.307 . S
C31 O58 1.312 . S
C31 O59 1.208 . S
C32 O53 1.331 1_655 S
C32 O56 1.244 . S
C33 O55 1.264 . S
C33 O57 1.273 1_456 S
Mg34 O36 1.936 . S
Mg34 O43 2.081 . S
Mg34 O45 2.023 1_455 S
Mg34 O49 2.031 . S
Mg34 O58 2.291 . S
Mg35 O36 1.963 1_655 S
Mg35 O46 1.942 1_655 S
Mg35 O47 1.955 . S
Mg35 O54 1.986 1_556 S
O36 Mg34 1.936 . S
O36 Mg35 1.963 1_455 S
O36 Mg37 1.915 1_455 S
Mg37 O36 1.915 1_655 S
Mg37 O38 1.915 . S
Mg37 O42 2.013 . S
Mg37 O48 2.114 1_655 S
Mg37 O52 2.013 1_556 S
Mg37 O58 2.114 1_655 S
O38 Mg37 1.915 . S
O38 Mg39 1.936 1_655 S
O38 Mg40 1.963 . S
Mg39 O38 1.936 1_455 S
Mg39 O48 2.291 . S
Mg39 O53 2.081 . S
Mg39 O55 2.023 . S
Mg39 O59 2.031 . S
Mg40 O38 1.963 . S
Mg40 O44 1.986 . S
Mg40 O56 1.942 . S
Mg40 O57 1.955 1_556 S
C41 O52 1.191 . S
C41 O54 1.307 . S
O42 Mg37 2.013 . S
O42 C61 1.191 . S
O43 Mg34 2.081 . S
O43 C51 1.331 . S
O44 Mg40 1.986 . S
O44 C61 1.307 . S
O45 Mg34 2.023 1_655 S
O45 C60 1.264 . S
O46 Mg35 1.942 1_455 S
O46 C51 1.244 . S
O47 Mg35 1.955 . S
O47 C60 1.273 . S
O48 Mg37 2.114 1_455 S
O48 Mg39 2.291 . S
O48 C50 1.312 . S
O49 Mg34 2.031 . S
O49 C50 1.208 . S
C50 O48 1.312 . S
C50 O49 1.208 . S
C51 O43 1.331 . S
C51 O46 1.244 . S
O52 Mg37 2.013 1_554 S
O52 C41 1.191 . S
O53 C32 1.331 1_455 S
O53 Mg39 2.081 . S
O54 Mg35 1.986 1_554 S
O54 C41 1.307 . S
O55 C33 1.264 . S
O55 Mg39 2.023 . S
O56 C32 1.244 . S
O56 Mg40 1.942 . S
O57 C33 1.273 1_654 S
O57 Mg40 1.955 1_554 S
O58 C31 1.312 . S
O58 Mg34 2.291 . S
O58 Mg37 2.114 1_455 S
O59 C31 1.208 . S
O59 Mg39 2.031 . S
C60 O45 1.264 . S
C60 O47 1.273 . S
C61 O42 1.191 . S
C61 O44 1.307 . S
C62 O89 1.312 . S
C62 O90 1.208 . S
C63 O84 1.331 1_554 S
C63 O87 1.244 . S
C64 O86 1.264 . S
C64 O88 1.273 . S
Mg65 O67 1.936 . S
Mg65 O74 2.081 . S
Mg65 O76 2.023 . S
Mg65 O80 2.031 . S
Mg65 O89 2.291 1_554 S
Mg66 O67 1.963 . S
Mg66 O77 1.942 . S
Mg66 O78 1.955 . S
Mg66 O85 1.986 . S
O67 Mg65 1.936 . S
O67 Mg66 1.963 . S
O67 Mg68 1.915 . S
Mg68 O67 1.915 . S
Mg68 O69 1.915 . S
Mg68 O73 2.013 . S
Mg68 O79 2.114 . S
Mg68 O83 2.013 . S
Mg68 O89 2.114 1_554 S
O69 Mg68 1.915 . S
O69 Mg70 1.936 . S
O69 Mg71 1.963 . S
Mg70 O69 1.936 . S
Mg70 O79 2.291 . S
Mg70 O84 2.081 1_554 S
Mg70 O86 2.023 . S
Mg70 O90 2.031 1_554 S
Mg71 O69 1.963 . S
Mg71 O75 1.986 . S
Mg71 O87 1.942 . S
Mg71 O88 1.955 . S
C72 O83 1.191 . S
C72 O85 1.307 . S
O73 Mg68 2.013 . S
O73 C92 1.191 . S
O74 Mg65 2.081 . S
O74 C82 1.331 . S
O75 Mg71 1.986 . S
O75 C92 1.307 . S
O76 Mg65 2.023 . S
O76 C91 1.264 . S
O77 Mg66 1.942 . S
O77 C82 1.244 . S
O78 Mg66 1.955 . S
O78 C91 1.273 . S
O79 Mg68 2.114 . S
O79 Mg70 2.291 . S
O79 C81 1.312 . S
O80 Mg65 2.031 . S
O80 C81 1.208 . S
C81 O79 1.312 . S
C81 O80 1.208 . S
C82 O74 1.331 . S
C82 O77 1.244 . S
O83 Mg68 2.013 . S
O83 C72 1.191 . S
O84 C63 1.331 1_556 S
O84 Mg70 2.081 1_556 S
O85 Mg66 1.986 . S
O85 C72 1.307 . S
O86 C64 1.264 . S
O86 Mg70 2.023 . S
O87 C63 1.244 . S
O87 Mg71 1.942 . S
O88 C64 1.273 . S
O88 Mg71 1.955 . S
O89 C62 1.312 . S
O89 Mg65 2.291 1_556 S
O89 Mg68 2.114 1_556 S
O90 C62 1.208 . S
O90 Mg70 2.031 1_556 S
C91 O76 1.264 . S
C91 O78 1.273 . S
C92 O73 1.191 . S
C92 O75 1.307 . S
C93 O120 1.312 . S
C93 O121 1.208 . S
C94 O115 1.331 . S
C94 O118 1.244 . S
C95 O117 1.264 . S
C95 O119 1.273 1_556 S
Mg96 O98 1.936 . S
Mg96 O105 2.081 . S
Mg96 O107 2.023 . S
Mg96 O111 2.031 . S
Mg96 O120 2.291 . S
Mg97 O98 1.963 . S
Mg97 O108 1.942 . S
Mg97 O109 1.955 . S
Mg97 O116 1.986 1_556 S
O98 Mg96 1.936 . S
O98 Mg97 1.963 . S
O98 Mg99 1.915 . S
Mg99 O98 1.915 . S
Mg99 O100 1.915 . S
Mg99 O104 2.013 . S
Mg99 O110 2.114 . S
Mg99 O114 2.013 1_556 S
Mg99 O120 2.114 . S
O100 Mg99 1.915 . S
O100 Mg101 1.936 . S
O100 Mg102 1.963 . S
Mg101 O100 1.936 . S
Mg101 O110 2.291 . S
Mg101 O115 2.081 . S
Mg101 O117 2.023 . S
Mg101 O121 2.031 . S
Mg102 O100 1.963 . S
Mg102 O106 1.986 . S
Mg102 O118 1.942 . S
Mg102 O119 1.955 1_556 S
C103 O114 1.191 . S
C103 O116 1.307 . S
O104 Mg99 2.013 . S
O104 C123 1.191 . S
O105 Mg96 2.081 . S
O105 C113 1.331 . S
O106 Mg102 1.986 . S
O106 C123 1.307 . S
O107 Mg96 2.023 . S
O107 C122 1.264 . S
O108 Mg97 1.942 . S
O108 C113 1.244 . S
O109 Mg97 1.955 . S
O109 C122 1.273 . S
O110 Mg99 2.114 . S
O110 Mg101 2.291 . S
O110 C112 1.312 . S
O111 Mg96 2.031 . S
O111 C112 1.208 . S
C112 O110 1.312 . S
C112 O111 1.208 . S
C113 O105 1.331 . S
C113 O108 1.244 . S
O114 Mg99 2.013 1_554 S
O114 C103 1.191 . S
O115 C94 1.331 . S
O115 Mg101 2.081 . S
O116 Mg97 1.986 1_554 S
O116 C103 1.307 . S
O117 C95 1.264 . S
O117 Mg101 2.023 . S
O118 C94 1.244 . S
O118 Mg102 1.942 . S
O119 C95 1.273 1_554 S
O119 Mg102 1.955 1_554 S
O120 C93 1.312 . S
O120 Mg96 2.291 . S
O120 Mg99 2.114 . S
O121 C93 1.208 . S
O121 Mg101 2.031 . S
C122 O107 1.264 . S
C122 O109 1.273 . S
C123 O104 1.191 . S
C123 O106 1.307 . S
C19 C30 2.099 1_455 S
C31 C41 2.099 1_455 S
C62 C72 2.099 . S
C103 C93 2.099 . S
C10 C0 1.510 . S
C61 C50 1.510 . S
C81 C92 1.510 1_655 S
C112 C123 1.510 1_655 S
C122 C1 1.717 . S
C113 C2 1.717 1_556 S
C82 C60 1.717 . S
C91 C51 1.717 1_554 S
C20 C33 2.271 1_644 S
C29 C32 2.271 1_445 S
C63 C95 2.271 1_554 S
C94 C64 2.271 . S
