# Generated by pormake.
# Topology pcu, (6)-cn, num edge types: 1
# Building blocks:
#     Node 0, Type 0, BuildingBlock: KUMBOL_clean_sbu_1, # of connection points: 6
#     Edge 1, Type (0, 0), BuildingBlock: KIFKEQ_clean_linker_1, # of connection points: 2
#     Edge 2, Type (0, 0), BuildingBlock: KIFKEQ_clean_linker_1, # of connection points: 2
#     Edge 3, Type (0, 0), BuildingBlock: KIFKEQ_clean_linker_1, # of connection points: 2
# Relax obj value: 0.000
# Max RMSD: 0.000
# Mean RMSD: 0.000
data_MOF--net-pcu--node1-KUMBOL_clean_sbu_1--edge1-KIFKEQ_clean_linker_1
_symmetry_space_group_name_H-M    P1
_symmetry_Int_Tables_number       1
_symmetry_cell_setting            triclinic
loop_
_symmetry_equiv_pos_as_xyz
'x, y, z'
_cell_length_a     15.082714
_cell_length_b     24.549781
_cell_length_c     15.110536
_cell_angle_alpha  112.9385
_cell_angle_beta   89.598942
_cell_angle_gamma 115.08742
loop_
_atom_site_label
_atom_site_type_symbol
_atom_site_fract_x
_atom_site_fract_y
_atom_site_fract_z
_atom_type_partial_charge
C0 C 0.29331 0.22542 0.25003 0.0
C1 C 0.4514 0.26471 0.19739 0.0
C2 C 0.34696 0.22595 0.17567 0.0
C3 C 0.50141 0.29992 0.2954 0.0
C4 C 0.34234 0.2635 0.34868 0.0
C5 C 0.44695 0.29928 0.37097 0.0
N6 N 0.19246 0.19187 0.22575 0.0
C7 C 0.13556 0.19852 0.29587 0.0
C8 C 0.28441 0.26653 0.42163 0.0
C9 C 0.18048 0.23477 0.395 0.0
Gd10 Gd 0.98248 0.92183 0.93008 0.0
Gd11 Gd 0.1229 0.12761 0.05878 0.0
N12 N 0.29607 0.19196 0.08212 0.0
C13 C 0.50179 0.26854 0.1201 0.0
C14 C 0.34368 0.19922 0.00714 0.0
C15 C 0.44743 0.23646 0.02469 0.0
H16 H 0.30157 0.17441 0.93338 0.0
H17 H 0.48535 0.2405 0.96477 0.0
H18 H 0.95563 0.90297 0.14209 0.0
H19 H 0.0553 0.17519 0.27501 0.0
H20 H 0.82907 0.88831 0.24568 0.0
H21 H 0.58207 0.29762 0.1336 0.0
H22 H 0.58178 0.32937 0.31363 0.0
H23 H 0.86387 0.87517 0.70943 0.0
H24 H 0.31911 0.29515 0.49837 0.0
H25 H 0.13502 0.23855 0.45067 0.0
H26 H 0.53559 0.84061 0.04749 0.0
H27 H 0.48616 0.32832 0.44634 0.0
H28 H 0.55414 0.81775 0.71883 0.0
H29 H 0.69215 0.8342 0.62642 0.0
N30 N 0.82221 0.88163 0.8463 0.0
C31 C 0.74713 0.87022 0.89724 0.0
C32 C 0.80354 0.86753 0.74964 0.0
C33 C 0.62894 0.83508 0.75509 0.0
C34 C 0.70669 0.84442 0.7027 0.0
C35 C 0.64848 0.84766 0.85346 0.0
H36 H 0.49695 0.82229 0.87725 0.0
N37 N 0.86483 0.90036 0.03178 0.0
C38 C 0.76944 0.88124 0.99345 0.0
C39 C 0.71593 0.87466 0.14162 0.0
C40 C 0.69279 0.86904 0.04799 0.0
C41 C 0.88469 0.89837 0.11821 0.0
C42 C 0.8118 0.88778 0.17585 0.0
O43 O 0.22732 0.08186 0.01202 0.0
O44 O 0.15001 0.96693 0.96706 0.0
O45 O 0.94752 0.82493 0.92745 0.0
O46 O 0.99057 0.84478 0.80062 0.0
O47 O 0.1156 0.07835 0.89613 0.0
O48 O 0.04314 0.96169 0.81984 0.0
O49 O 0.91899 0.98812 0.91729 0.0
O50 O 0.96778 0.06764 0.07272 0.0
O51 O 0.04237 0.14954 0.96927 0.0
O52 O 0.1383 0.22731 0.10699 0.0
O53 O 0.07765 0.97564 0.08204 0.0
O54 O 0.05112 0.06739 0.14349 0.0
C55 C 0.22867 0.02444 0.98714 0.0
C56 C 0.08731 0.02083 0.81905 0.0
C57 C 0.95408 0.73467 0.78576 0.0
C58 C 0.95025 0.63351 0.78408 0.0
C59 C 0.94139 0.64543 0.63238 0.0
C60 C 0.94724 0.70829 0.68379 0.0
C61 C 0.94335 0.60838 0.68198 0.0
C62 C 0.95428 0.69663 0.83566 0.0
C63 C 0.96444 0.80256 0.83918 0.0
C64 C 0.59508 0.84933 0.00618 0.0
C65 C 0.57294 0.83856 0.90907 0.0
H66 H 0.65926 0.86571 0.18591 0.0
C67 C 0.8995 0.02763 0.99346 0.0
C68 C 0.08153 0.02786 0.1568 0.0
C69 C 0.99984 0.23588 0.05554 0.0
C70 C 0.9337 0.30999 0.04899 0.0
C71 C 0.85895 0.23841 0.13192 0.0
C72 C 0.92839 0.21376 0.10963 0.0
C73 C 0.86153 0.28627 0.10219 0.0
C74 C 1.00216 0.28368 0.02522 0.0
C75 C 0.07445 0.21121 0.03266 0.0
H76 H 0.93588 0.62547 0.55375 0.0
H77 H 0.94654 0.73631 0.64361 0.0
H78 H 0.93876 0.5597 0.64027 0.0
H79 H 0.96073 0.71683 0.9145 0.0
H80 H 0.80369 0.22099 0.17349 0.0
H81 H 0.92713 0.17805 0.13528 0.0
H82 H 0.80828 0.30564 0.1227 0.0
H83 H 0.05734 0.30014 0.98285 0.0
H84 H 0.18228 0.97747 0.22428 0.0
H85 H 1.00243 0.08036 0.31128 0.0
H86 H 0.19299 0.97604 0.38527 0.0
H87 H 1.01662 0.08139 0.47222 0.0
H88 H 0.14563 0.12927 0.77908 0.0
H89 H 0.15322 0.13249 0.62038 0.0
H90 H 0.06796 0.9225 0.48141 0.0
H91 H 0.05963 0.91859 0.64076 0.0
C92 C 0.14644 1.00067 0.27819 0.0
C93 C 0.09385 0.0307 0.25596 0.0
C94 C 0.15228 0.99962 0.36998 0.0
C95 C 0.10653 0.02923 0.4415 0.0
C96 C 0.05442 0.05943 0.41927 0.0
C97 C 0.04727 0.05953 0.32731 0.0
C98 C 0.12945 0.08369 0.71522 0.0
C99 C 0.10138 0.02349 0.72309 0.0
C100 C 0.13342 0.08564 0.62412 0.0
C101 C 0.11058 0.02771 0.5386 0.0
C102 C 0.08644 0.968 0.54634 0.0
C103 C 0.08129 0.96578 0.63761 0.0
H104 H 0.27187 0.92489 0.87076 0.0
H105 H 0.4074 0.12435 0.10158 0.0
H106 H 0.43504 0.9258 0.87011 0.0
H107 H 0.57001 0.12575 0.10002 0.0
H108 H 0.81025 0.06405 0.14756 0.0
H109 H 0.648 0.06351 0.14404 0.0
H110 H 0.60434 0.98912 0.82932 0.0
H111 H 0.76838 0.99153 0.83317 0.0
C112 C 0.33651 0.969 0.92101 0.0
C113 C 0.32712 0.02495 0.98551 0.0
C114 C 0.42981 0.96965 0.92015 0.0
C115 C 0.51508 0.02589 0.98486 0.0
C116 C 0.50548 0.08163 0.04959 0.0
C117 C 0.41258 0.08118 0.04965 0.0
C118 C 0.76639 0.04818 0.07772 0.0
C119 C 0.80168 0.0277 0.99056 0.0
C120 C 0.67358 0.04781 0.07572 0.0
C121 C 0.61363 0.02623 0.98641 0.0
C122 C 0.64873 1.00548 0.89911 0.0
C123 C 0.74239 1.00684 0.90129 0.0
H124 H 0.06692 0.57123 0.76162 0.0
H125 H 0.84299 0.60507 0.9214 0.0
H126 H 0.06474 0.49741 0.83339 0.0
H127 H 0.84134 0.53127 0.99444 0.0
H128 H 0.77803 0.32466 0.98567 0.0
H129 H 0.78635 0.40885 0.93359 0.0
H130 H 0.1078 0.49787 0.99157 0.0
H131 H 0.09999 0.41476 0.04562 0.0
C132 C 1.01762 0.56315 0.81268 0.0
C133 C 0.95459 0.59356 0.83534 0.0
C134 C 1.01693 0.52125 0.85441 0.0
C135 C 0.9526 0.50823 0.91938 0.0
C136 C 0.89105 0.53982 0.94389 0.0
C137 C 0.89257 0.58247 0.90282 0.0
C138 C 0.85063 0.36271 0.9888 0.0
C139 C 0.93834 0.36234 0.01921 0.0
C140 C 0.8553 0.41104 0.95893 0.0
C141 C 0.94772 0.45993 0.95807 0.0
C142 C 0.03538 0.4603 0.99 0.0
C143 C 0.03079 0.41234 0.02051 0.0
loop_
_geom_bond_atom_site_label_1
_geom_bond_atom_site_label_2
_geom_bond_distance
_geom_bond_site_symmetry_2
_ccdc_geom_bond_type
C0 C2 1.422 . S
C0 C4 1.415 . S
C0 N6 1.369 . S
C1 C2 1.421 . S
C1 C3 1.417 . S
C1 C13 1.422 . S
C2 C0 1.422 . S
C2 C1 1.421 . S
C2 N12 1.359 . S
C3 C1 1.417 . S
C3 C5 1.329 . S
C3 H22 0.930 . S
C4 C0 1.415 . S
C4 C5 1.437 . S
C4 C8 1.413 . S
C5 C3 1.329 . S
C5 C4 1.437 . S
C5 H27 0.929 . S
N6 C0 1.369 . S
N6 C7 1.338 . S
N6 Gd11 2.622 . S
C7 N6 1.338 . S
C7 C9 1.378 . S
C7 H19 0.929 . S
C8 C4 1.413 . S
C8 C9 1.348 . S
C8 H24 0.931 . S
C9 C7 1.378 . S
C9 C8 1.348 . S
C9 H25 0.930 . S
Gd10 N30 2.622 . S
Gd10 N37 2.570 . S
Gd10 O44 2.353 1_655 S
Gd10 O45 2.468 . S
Gd10 O46 2.427 . S
Gd10 O48 2.388 . S
Gd10 O49 2.386 . S
Gd10 O53 2.307 1_556 S
Gd10 C63 2.805 . S
Gd11 N6 2.622 . S
Gd11 N12 2.570 . S
Gd11 O43 2.386 . S
Gd11 O47 2.307 1_554 S
Gd11 O50 2.353 1_455 S
Gd11 O51 2.468 . S
Gd11 O52 2.427 . S
Gd11 O54 2.388 . S
Gd11 C75 2.805 . S
N12 C2 1.359 . S
N12 Gd11 2.570 . S
N12 C14 1.343 1_554 S
C13 C1 1.422 . S
C13 C15 1.321 1_554 S
C13 H21 0.931 1_554 S
C14 N12 1.343 1_556 S
C14 C15 1.390 . S
C14 H16 0.931 . S
C15 C13 1.321 1_556 S
C15 C14 1.390 . S
C15 H17 0.930 . S
H16 C14 0.931 . S
H17 C15 0.930 . S
H18 C41 0.931 . S
H19 C7 0.929 . S
H20 C42 0.930 . S
H21 C13 0.931 1_556 S
H22 C3 0.930 . S
H23 C32 0.929 . S
H24 C8 0.931 . S
H25 C9 0.930 . S
H26 C64 0.930 . S
H27 C5 0.929 . S
H28 C33 0.931 . S
H29 C34 0.930 . S
N30 Gd10 2.622 . S
N30 C31 1.369 . S
N30 C32 1.338 . S
C31 N30 1.369 . S
C31 C35 1.415 . S
C31 C38 1.422 . S
C32 H23 0.929 . S
C32 N30 1.338 . S
C32 C34 1.378 . S
C33 H28 0.931 . S
C33 C34 1.348 . S
C33 C35 1.413 . S
C34 H29 0.930 . S
C34 C32 1.378 . S
C34 C33 1.348 . S
C35 C31 1.415 . S
C35 C33 1.413 . S
C35 C65 1.437 . S
H36 C65 0.929 . S
N37 Gd10 2.570 . S
N37 C38 1.359 . S
N37 C41 1.343 1_556 S
C38 C31 1.422 . S
C38 N37 1.359 . S
C38 C40 1.421 . S
C39 C40 1.422 . S
C39 C42 1.321 1_556 S
C39 H66 0.931 1_556 S
C40 C38 1.421 . S
C40 C39 1.422 . S
C40 C64 1.417 . S
C41 H18 0.931 . S
C41 N37 1.343 1_554 S
C41 C42 1.390 . S
C42 H20 0.930 . S
C42 C39 1.321 1_554 S
C42 C41 1.390 . S
O43 Gd11 2.386 . S
O43 C55 1.263 1_545 S
O44 Gd10 2.353 1_455 S
O44 C55 1.243 1_556 S
O45 Gd10 2.468 . S
O45 C63 1.263 . S
O46 Gd10 2.427 . S
O46 C63 1.252 . S
O47 Gd11 2.307 1_556 S
O47 C56 1.261 1_545 S
O48 Gd10 2.388 . S
O48 C56 1.252 1_655 S
O49 Gd10 2.386 . S
O49 C67 1.259 1_565 S
O50 Gd11 2.353 1_655 S
O50 C67 1.245 1_554 S
O51 Gd11 2.468 . S
O51 C75 1.263 . S
O52 Gd11 2.427 . S
O52 C75 1.252 . S
O53 Gd10 2.307 1_554 S
O53 C68 1.261 1_565 S
O54 Gd11 2.388 . S
O54 C68 1.252 1_455 S
C55 O43 1.263 1_565 S
C55 O44 1.243 1_554 S
C56 O47 1.261 1_565 S
C56 O48 1.252 1_455 S
C57 C60 1.394 . S
C57 C62 1.370 . S
C57 C63 1.500 . S
C58 C61 1.383 . S
C58 C62 1.395 . S
C59 C60 1.396 . S
C59 C61 1.365 . S
C59 H76 0.929 . S
C60 C57 1.394 . S
C60 C59 1.396 . S
C60 H77 0.930 . S
C61 C58 1.383 . S
C61 C59 1.365 . S
C61 H78 0.931 . S
C62 C57 1.370 . S
C62 C58 1.395 . S
C62 H79 0.930 1_556 S
C63 Gd10 2.805 . S
C63 O45 1.263 . S
C63 O46 1.252 . S
C63 C57 1.500 . S
C64 H26 0.930 . S
C64 C40 1.417 . S
C64 C65 1.329 . S
C65 C35 1.437 . S
C65 H36 0.929 . S
C65 C64 1.329 . S
H66 C39 0.931 1_554 S
C67 O49 1.259 1_545 S
C67 O50 1.245 1_556 S
C68 O53 1.261 1_545 S
C68 O54 1.252 1_655 S
C69 C72 1.394 . S
C69 C74 1.370 . S
C69 C75 1.500 . S
C70 C73 1.383 . S
C70 C74 1.395 . S
C71 C72 1.396 . S
C71 C73 1.365 . S
C71 H80 0.929 . S
C72 C69 1.394 . S
C72 C71 1.396 . S
C72 H81 0.930 . S
C73 C70 1.383 . S
C73 C71 1.365 . S
C73 H82 0.931 . S
C74 C69 1.370 . S
C74 C70 1.395 . S
C74 H83 0.930 1_554 S
C75 Gd11 2.805 . S
C75 O51 1.263 . S
C75 O52 1.252 . S
C75 C69 1.500 . S
H76 C59 0.929 . S
H77 C60 0.930 . S
H78 C61 0.931 . S
H79 C62 0.930 1_554 S
H80 C71 0.929 . S
H81 C72 0.930 . S
H82 C73 0.931 . S
H83 C74 0.930 1_556 S
H84 C92 0.950 . S
H85 C97 0.950 . S
H86 C94 0.950 . S
H87 C96 0.950 . S
H88 C98 0.950 . S
H89 C100 0.950 . S
H90 C102 0.950 . S
H91 C103 0.950 . S
C92 H84 0.950 . S
C92 C93 1.391 1_455 S
C92 C94 1.391 . S
C93 C92 1.391 1_655 S
C93 C97 1.379 1_545 S
C94 H86 0.950 . S
C94 C92 1.391 . S
C94 C95 1.408 1_455 S
C95 C94 1.408 1_655 S
C95 C96 1.396 1_545 S
C95 C101 1.482 1_645 S
C96 H87 0.950 . S
C96 C95 1.396 1_565 S
C96 C97 1.391 . S
C97 H85 0.950 . S
C97 C93 1.379 1_565 S
C97 C96 1.391 . S
C98 H88 0.950 . S
C98 C99 1.389 1_655 S
C98 C100 1.391 . S
C99 C98 1.389 1_455 S
C99 C103 1.382 1_565 S
C100 H89 0.950 . S
C100 C98 1.391 . S
C100 C101 1.405 1_655 S
C101 C95 1.482 1_465 S
C101 C100 1.405 1_455 S
C101 C102 1.397 1_565 S
C102 H90 0.950 . S
C102 C101 1.397 1_545 S
C102 C103 1.391 . S
C103 H91 0.950 . S
C103 C99 1.382 1_545 S
C103 C102 1.391 . S
H104 C112 0.950 . S
H105 C117 0.950 . S
H106 C114 0.950 . S
H107 C116 0.950 . S
H108 C118 0.950 . S
H109 C120 0.950 . S
H110 C122 0.950 . S
H111 C123 0.950 . S
C112 H104 0.950 . S
C112 C113 1.374 1_565 S
C112 C114 1.391 . S
C113 C112 1.374 1_545 S
C113 C117 1.398 1_556 S
C114 H106 0.950 . S
C114 C112 1.391 . S
C114 C115 1.398 1_565 S
C115 C114 1.398 1_545 S
C115 C116 1.404 1_556 S
C115 C121 1.488 1_546 S
C116 H107 0.950 . S
C116 C115 1.404 1_554 S
C116 C117 1.391 . S
C117 H105 0.950 . S
C117 C113 1.398 1_554 S
C117 C116 1.391 . S
C118 H108 0.950 . S
C118 C119 1.379 1_545 S
C118 C120 1.391 . S
C119 C118 1.379 1_565 S
C119 C123 1.396 1_554 S
C120 H109 0.950 . S
C120 C118 1.391 . S
C120 C121 1.400 1_545 S
C121 C115 1.488 1_564 S
C121 C120 1.400 1_565 S
C121 C122 1.399 1_554 S
C122 H110 0.950 . S
C122 C121 1.399 1_556 S
C122 C123 1.391 . S
C123 H111 0.950 . S
C123 C119 1.396 1_556 S
C123 C122 1.391 . S
H124 C132 0.950 . S
H125 C137 0.950 . S
H126 C134 0.950 . S
H127 C136 0.950 . S
H128 C138 0.950 . S
H129 C140 0.950 . S
H130 C142 0.950 . S
H131 C143 0.950 . S
C132 H124 0.950 . S
C132 C133 1.386 1_556 S
C132 C134 1.391 . S
C133 C132 1.386 1_554 S
C133 C137 1.393 1_455 S
C134 H126 0.950 . S
C134 C132 1.391 . S
C134 C135 1.400 1_556 S
C135 C134 1.400 1_554 S
C135 C136 1.398 1_455 S
C135 C141 1.497 1_454 S
C136 H127 0.950 . S
C136 C135 1.398 1_655 S
C136 C137 1.391 . S
C137 H125 0.950 . S
C137 C133 1.393 1_655 S
C137 C136 1.391 . S
C138 H128 0.950 . S
C138 C139 1.386 1_554 S
C138 C140 1.391 . S
C139 C138 1.386 1_556 S
C139 C143 1.393 1_655 S
C140 H129 0.950 . S
C140 C138 1.391 . S
C140 C141 1.406 1_554 S
C141 C135 1.497 1_656 S
C141 C140 1.406 1_556 S
C141 C142 1.386 1_655 S
C142 H130 0.950 . S
C142 C141 1.386 1_455 S
C142 C143 1.391 . S
C143 H131 0.950 . S
C143 C139 1.393 1_455 S
C143 C142 1.391 . S
C93 C68 1.484 . S
C99 C56 1.481 . S
C113 C55 1.505 1_546 S
C119 C67 1.505 1_564 S
C133 C58 1.374 1_454 S
C139 C70 1.374 1_656 S
