# Generated by pormake.
# Topology pcu, (6)-cn, num edge types: 1
# Building blocks:
#     Node 0, Type 0, BuildingBlock: BETDEL_clean_sbu_0, # of connection points: 6
#     Edge 1, Type (0, 0), BuildingBlock: KIFKEQ_clean_linker_1, # of connection points: 2
#     Edge 2, Type (0, 0), BuildingBlock: KIFKEQ_clean_linker_1, # of connection points: 2
#     Edge 3, Type (0, 0), BuildingBlock: KIFKEQ_clean_linker_1, # of connection points: 2
# Relax obj value: 0.000
# Max RMSD: 0.000
# Mean RMSD: 0.000
data_MOF--net-pcu--node1-BETDEL_clean_sbu_0--edge1-KIFKEQ_clean_linker_1
_symmetry_space_group_name_H-M    P1
_symmetry_Int_Tables_number       1
_symmetry_cell_setting            triclinic
loop_
_symmetry_equiv_pos_as_xyz
'x, y, z'
_cell_length_a     15.641785
_cell_length_b     18.154945
_cell_length_c     14.581483
_cell_angle_alpha  99.499379
_cell_angle_beta   88.617342
_cell_angle_gamma 112.42648
loop_
_atom_site_label
_atom_site_type_symbol
_atom_site_fract_x
_atom_site_fract_y
_atom_site_fract_z
_atom_type_partial_charge
Dy0 Dy 0.02652 0.08881 1.02089 0.0
C1 C 0.92274 0.75444 0.06589 0.0
C2 C 0.04578 0.24506 0.02351 0.0
Dy3 Dy 0.94583 0.89924 1.01737 0.0
O4 O 0.03818 0.21009 0.09547 0.0
O5 O 0.04617 0.19513 0.94822 0.0
O6 O 0.09392 0.10184 0.15915 0.0
O7 O 0.96525 0.0066 0.12073 0.0
C8 C 0.02968 0.03847 0.18285 0.0
C9 C 0.96861 0.93167 0.84274 0.0
O10 O 0.81422 0.92001 0.03521 0.0
O11 O 0.87331 0.05081 0.99975 0.0
O12 O 0.87074 0.76452 1.00463 0.0
O13 O 0.98325 0.82416 0.10435 0.0
O14 O 0.93531 0.85884 0.86169 0.0
O15 O 0.98639 0.98053 0.91823 0.0
O16 O 0.15333 0.06562 0.97944 0.0
O17 O 0.10028 0.93987 0.02774 0.0
C18 C 0.80335 0.98503 1.01587 0.0
C19 C 0.16714 0.00241 1.00053 0.0
H20 H 0.88779 0.92291 0.25392 0.0
H21 H 0.15554 0.11431 0.32728 0.0
H22 H 0.87244 0.90033 0.41518 0.0
H23 H 0.14117 0.09096 0.48806 0.0
H24 H 0.03711 0.08037 0.78685 0.0
H25 H 0.05183 0.10647 0.62601 0.0
H26 H 0.94017 0.84915 0.52462 0.0
H27 H 0.92415 0.82367 0.68365 0.0
C28 C 0.94365 0.95956 0.30441 0.0
C29 C 0.02276 0.02028 0.27828 0.0
C30 C 0.93505 0.94668 0.3967 0.0
C31 C 0.00549 -0.00582 0.46462 0.0
C32 C 0.08507 0.05429 0.43788 0.0
C33 C 0.09365 0.06709 0.34563 0.0
C34 C 0.01566 0.02979 0.72988 0.0
C35 C 0.97927 0.95017 0.74746 0.0
C36 C 0.02444 0.04451 0.63797 0.0
C37 C -0.00331 0.97976 0.56247 0.0
C38 C 0.96068 0.90035 0.58088 0.0
C39 C 0.9521 0.8858 0.67216 0.0
H40 H 0.32124 0.09757 0.91871 0.0
H41 H 0.22525 0.9032 0.07922 0.0
H42 H 0.47466 0.09093 0.91635 0.0
H43 H 0.37748 0.89854 0.07958 0.0
H44 H 0.63653 0.85632 0.99575 0.0
H45 H 0.4829 0.86002 0.98402 0.0
H46 H 0.60574 0.12086 1.01726 0.0
H47 H 0.7586 0.1169 0.02552 0.0
C48 C 0.33293 0.05388 0.95377 0.0
C49 C 0.26096 0.00085 0.99872 0.0
C50 C 0.42078 0.05015 0.95276 0.0
C51 C 0.43834 -0.00617 0.99744 0.0
C52 C 0.36617 0.94135 0.04265 0.0
C53 C 0.27871 0.94455 0.04293 0.0
C54 C 0.63051 0.91432 1.00066 0.0
C55 C 0.70962 0.98616 1.01167 0.0
C56 C 0.54254 0.9166 0.9941 0.0
C57 C 0.53189 0.99086 0.99966 0.0
C58 C 0.61127 0.06258 1.01087 0.0
C59 C 0.69902 0.06023 1.0164 0.0
H60 H 0.04269 0.72886 0.17608 0.0
H61 H 0.82584 0.60647 0.96226 0.0
H62 H 0.07804 0.6081 0.16345 0.0
H63 H 0.85987 0.48452 0.95071 0.0
H64 H 0.01685 0.31515 0.88024 0.0
H65 H 0.98328 0.43794 0.89435 0.0
H66 H 0.01727 0.47171 0.19357 0.0
H67 H 0.05245 0.35114 0.17916 0.0
C68 C 0.00112 0.6754 0.12789 0.0
C69 C 0.93127 0.6769 0.07045 0.0
C70 C 0.02153 0.6062 0.1204 0.0
C71 C 0.97247 0.53683 0.05529 0.0
C72 C 0.90015 0.53743 1.00026 0.0
C73 C 0.87968 0.6068 1.00786 0.0
C74 C 0.0187 0.34987 0.94865 0.0
C75 C 0.03761 0.32395 0.0285 0.0
C76 C -0.00169 0.41947 0.95696 0.0
C77 C -0.00315 0.46433 0.04524 0.0
C78 C 0.01854 0.43922 0.12456 0.0
C79 C 0.03864 0.36996 0.11625 0.0
loop_
_geom_bond_atom_site_label_1
_geom_bond_atom_site_label_2
_geom_bond_distance
_geom_bond_site_symmetry_2
_ccdc_geom_bond_type
Dy0 O4 2.398 . S
Dy0 O5 2.491 1_554 S
Dy0 O6 2.403 . S
Dy0 O7 2.663 1_545 S
Dy0 O11 2.326 1_455 S
Dy0 O15 2.309 1_454 S
Dy0 O16 2.351 . S
C1 O12 1.185 . S
C1 O13 1.355 1_556 S
C2 O4 1.185 . S
C2 O5 1.355 1_554 S
Dy3 O7 2.309 1_656 S
Dy3 O10 2.351 . S
Dy3 O12 2.398 . S
Dy3 O13 2.491 1_556 S
Dy3 O14 2.403 . S
Dy3 O15 2.663 1_565 S
Dy3 O17 2.326 1_655 S
O4 Dy0 2.398 . S
O4 C2 1.185 . S
O5 Dy0 2.491 1_556 S
O5 C2 1.355 1_556 S
O6 Dy0 2.403 . S
O6 C8 1.254 . S
O7 Dy0 2.663 1_565 S
O7 Dy3 2.309 1_454 S
O7 C8 1.267 1_565 S
C8 O6 1.254 . S
C8 O7 1.267 1_545 S
C9 O14 1.254 . S
C9 O15 1.267 1_565 S
O10 Dy3 2.351 . S
O10 C18 1.249 1_556 S
O11 Dy0 2.326 1_655 S
O11 C18 1.267 1_545 S
O12 C1 1.185 . S
O12 Dy3 2.398 . S
O13 C1 1.355 1_554 S
O13 Dy3 2.491 1_554 S
O14 Dy3 2.403 . S
O14 C9 1.254 . S
O15 Dy0 2.309 1_656 S
O15 Dy3 2.663 1_545 S
O15 C9 1.267 1_545 S
O16 Dy0 2.351 . S
O16 C19 1.249 1_554 S
O17 Dy3 2.326 1_455 S
O17 C19 1.267 1_565 S
C18 O10 1.249 1_554 S
C18 O11 1.267 1_565 S
C19 O16 1.249 1_556 S
C19 O17 1.267 1_545 S
H20 C28 0.950 . S
H21 C33 0.950 . S
H22 C30 0.950 . S
H23 C32 0.950 . S
H24 C34 0.950 . S
H25 C36 0.950 . S
H26 C38 0.950 . S
H27 C39 0.950 . S
C28 H20 0.950 . S
C28 C29 1.386 1_565 S
C28 C30 1.391 . S
C29 C28 1.386 1_545 S
C29 C33 1.393 1_455 S
C30 H22 0.950 . S
C30 C28 1.391 . S
C30 C31 1.400 1_565 S
C31 C30 1.400 1_545 S
C31 C32 1.398 1_455 S
C31 C37 1.491 1_445 S
C32 H23 0.950 . S
C32 C31 1.398 1_655 S
C32 C33 1.391 . S
C33 H21 0.950 . S
C33 C29 1.393 1_655 S
C33 C32 1.391 . S
C34 H24 0.950 . S
C34 C35 1.386 1_545 S
C34 C36 1.391 . S
C35 C34 1.386 1_565 S
C35 C39 1.393 1_655 S
C36 H25 0.950 . S
C36 C34 1.391 . S
C36 C37 1.400 1_545 S
C37 C31 1.491 1_665 S
C37 C36 1.400 1_565 S
C37 C38 1.398 1_655 S
C38 H26 0.950 . S
C38 C37 1.398 1_455 S
C38 C39 1.391 . S
C39 H27 0.950 . S
C39 C35 1.393 1_455 S
C39 C38 1.391 . S
H40 C48 0.950 . S
H41 C53 0.950 . S
H42 C50 0.950 . S
H43 C52 0.950 . S
H44 C54 0.950 . S
H45 C56 0.950 . S
H46 C58 0.950 . S
H47 C59 0.950 . S
C48 H40 0.950 . S
C48 C49 1.386 1_545 S
C48 C50 1.391 . S
C49 C48 1.386 1_565 S
C49 C53 1.393 1_554 S
C50 H42 0.950 . S
C50 C48 1.391 . S
C50 C51 1.407 1_545 S
C51 C50 1.407 1_565 S
C51 C52 1.391 1_554 S
C51 C57 1.491 1_564 S
C52 H43 0.950 . S
C52 C51 1.391 1_556 S
C52 C53 1.391 . S
C53 H41 0.950 . S
C53 C49 1.393 1_556 S
C53 C52 1.391 . S
C54 H44 0.950 . S
C54 C55 1.386 1_565 S
C54 C56 1.391 . S
C55 C54 1.386 1_545 S
C55 C59 1.393 1_556 S
C56 H45 0.950 . S
C56 C54 1.391 . S
C56 C57 1.405 1_565 S
C57 C51 1.491 1_546 S
C57 C56 1.405 1_545 S
C57 C58 1.393 1_556 S
C58 H46 0.950 . S
C58 C57 1.393 1_554 S
C58 C59 1.391 . S
C59 H47 0.950 . S
C59 C55 1.393 1_554 S
C59 C58 1.391 . S
H60 C68 0.950 . S
H61 C73 0.950 . S
H62 C70 0.950 . S
H63 C72 0.950 . S
H64 C74 0.950 . S
H65 C76 0.950 . S
H66 C78 0.950 . S
H67 C79 0.950 . S
C68 H60 0.950 . S
C68 C69 1.386 1_455 S
C68 C70 1.391 . S
C69 C68 1.386 1_655 S
C69 C73 1.393 1_554 S
C70 H62 0.950 . S
C70 C68 1.391 . S
C70 C71 1.400 1_455 S
C71 C70 1.400 1_655 S
C71 C72 1.398 1_554 S
C71 C77 1.491 1_654 S
C72 H63 0.950 . S
C72 C71 1.398 1_556 S
C72 C73 1.391 . S
C73 H61 0.950 . S
C73 C69 1.393 1_556 S
C73 C72 1.391 . S
C74 H64 0.950 . S
C74 C75 1.386 1_655 S
C74 C76 1.391 . S
C75 C74 1.386 1_455 S
C75 C79 1.393 1_556 S
C76 H65 0.950 . S
C76 C74 1.391 . S
C76 C77 1.400 1_655 S
C77 C71 1.491 1_456 S
C77 C76 1.400 1_455 S
C77 C78 1.398 1_556 S
C78 H66 0.950 . S
C78 C77 1.398 1_554 S
C78 C79 1.391 . S
C79 H67 0.950 . S
C79 C75 1.393 1_554 S
C79 C78 1.391 . S
C29 C8 1.446 . S
C35 C9 1.446 . S
C49 C19 1.494 1_564 S
C55 C18 1.494 1_546 S
C69 C1 1.477 1_554 S
C75 C2 1.477 1_556 S
