# Generated by pormake.
# Topology pcu, (6)-cn, num edge types: 1
# Building blocks:
#     Node 0, Type 0, BuildingBlock: GEDQOX_clean_sbu_0, # of connection points: 6
#     Edge 1, Type (0, 0), BuildingBlock: FUNLAD_clean_linker_1, # of connection points: 2
#     Edge 2, Type (0, 0), BuildingBlock: FUNLAD_clean_linker_1, # of connection points: 2
#     Edge 3, Type (0, 0), BuildingBlock: FUNLAD_clean_linker_1, # of connection points: 2
# Relax obj value: 0.000
# Max RMSD: 0.000
# Mean RMSD: 0.000
data_MOF--net-pcu--node1-GEDQOX_clean_sbu_0--edge1-FUNLAD_clean_linker_1
_symmetry_space_group_name_H-M    P1
_symmetry_Int_Tables_number       1
_symmetry_cell_setting            triclinic
loop_
_symmetry_equiv_pos_as_xyz
'x, y, z'
_cell_length_a     15.952048
_cell_length_b     26.241469
_cell_length_c     15.192366
_cell_angle_alpha  84.930974
_cell_angle_beta   95.647211
_cell_angle_gamma 126.35071
loop_
_atom_site_label
_atom_site_type_symbol
_atom_site_fract_x
_atom_site_fract_y
_atom_site_fract_z
_atom_type_partial_charge
Nd0 Nd 0.08627 0.09819 0.01867 0.0
Nd1 Nd 0.97244 0.95647 1.00374 0.0
C2 C 0.1536 0.21333 0.05952 0.0
C3 C 0.12739 0.25897 0.03976 0.0
C4 C 0.05253 0.25584 0.0867 0.0
C5 C 0.033 0.30144 0.07081 0.0
C6 C 0.0885 0.35143 1.00799 0.0
C7 C 0.16129 0.35356 0.95984 0.0
C8 C 0.18123 0.3083 0.97601 0.0
C9 C 0.04709 0.05894 0.84808 0.0
C10 C 0.8299 1.00407 1.00504 0.0
C11 C 0.90495 0.84118 0.96347 0.0
C12 C 0.93128 0.7956 0.98324 0.0
C13 C 1.00647 0.79892 0.93654 0.0
C14 C 1.02608 0.75335 0.95244 0.0
C15 C 0.97034 0.70322 0.01503 0.0
C16 C 0.89724 0.70092 0.06295 0.0
C17 C 0.87722 0.74614 0.04677 0.0
C18 C 1.0118 0.99612 0.17424 0.0
C19 C 0.22878 0.05057 0.01704 0.0
O20 O 0.09089 0.16242 0.10802 0.0
O21 O 0.18926 0.20227 0.99538 0.0
O22 O 0.13132 0.11208 0.87421 0.0
O23 O 0.98476 0.03073 0.90889 0.0
O24 O 0.91447 0.05637 0.0379 0.0
O25 O 0.83453 0.96137 0.97101 0.0
O26 O 0.96728 0.89195 0.91458 0.0
O27 O 0.86973 0.85244 0.02775 0.0
O28 O 0.92731 0.94305 0.14822 0.0
O29 O 0.07406 1.02389 0.11338 0.0
O30 O 0.14417 0.99826 0.98426 0.0
O31 O 0.22421 0.09328 0.05114 0.0
H32 H 1.00949 0.21846 0.13626 0.0
H33 H 0.97405 0.29705 0.10745 0.0
H34 H 0.20466 0.39123 0.91067 0.0
H35 H 0.23988 0.31243 0.93912 0.0
H36 H 0.04971 0.83641 0.88717 0.0
H37 H 0.08526 0.75786 0.91599 0.0
H38 H 0.85369 0.66314 0.11195 0.0
H39 H 0.81832 0.74188 0.08345 0.0
H40 H 0.11315 0.06249 0.27968 0.0
C41 C 0.0378 1.01814 0.26534 0.0
H42 H 0.89764 0.93978 0.31704 0.0
H43 H 0.09471 0.97404 0.70972 0.0
H44 H 0.07372 0.87934 0.67102 0.0
H45 H 1.01909 0.84176 0.51853 0.0
H46 H 0.98553 0.89892 0.40376 0.0
C47 C 0.9717 0.98515 0.33016 0.0
C48 C 1.00084 1.00699 0.42273 0.0
C49 C 1.01801 0.97229 0.48953 0.0
C50 C 0.04798 0.99342 0.57781 0.0
C51 C 0.06878 0.95922 0.64225 0.0
C52 C 0.05782 0.90496 0.62078 0.0
C53 C 1.02718 0.88385 0.53492 0.0
C54 C 1.00788 0.91706 0.46972 0.0
H55 H 0.94621 0.99268 0.74242 0.0
C56 C 1.02138 0.03712 0.75689 0.0
H57 H 0.1614 0.11577 0.7054 0.0
H58 H 0.9651 0.08165 0.31246 0.0
H59 H 0.98613 0.17636 0.35115 0.0
H60 H 0.0406 0.21388 0.50367 0.0
H61 H 0.074 0.15668 0.61848 0.0
C62 C 0.08752 0.07032 0.69215 0.0
C63 C 0.05866 0.04859 0.59952 0.0
C64 C 0.04155 0.08331 0.53271 0.0
C65 C 1.01161 0.06219 0.44442 0.0
C66 C 0.99094 0.09644 0.37995 0.0
C67 C 1.00193 0.15071 0.40141 0.0
C68 C 0.03249 0.17179 0.48729 0.0
C69 C 0.05169 0.13855 0.55251 0.0
H70 H 0.39131 0.09395 0.06684 0.0
C71 C 0.32872 0.05886 0.02271 0.0
H72 H 0.2801 0.98775 0.93338 0.0
H73 H 0.79974 0.14623 0.99163 0.0
H74 H 0.81217 0.23854 0.92986 0.0
H75 H 0.65395 0.23389 0.89145 0.0
H76 H 0.48254 0.13702 0.91592 0.0
C77 C 0.34287 1.0232 0.97702 0.0
C78 C 0.43851 1.02542 0.99241 0.0
C79 C 0.53811 0.08207 0.97514 0.0
C80 C 0.62911 0.08421 0.99507 0.0
C81 C 0.72775 0.14163 0.97801 0.0
C82 C 0.73616 0.19509 0.9421 0.0
C83 C 0.64712 0.19251 0.92069 0.0
C84 C 0.54911 0.13669 0.93609 0.0
H85 H 0.66742 0.96069 0.9551 0.0
C86 C 0.72996 0.99578 0.99927 0.0
H87 H 0.77846 0.06685 0.08862 0.0
H88 H 0.25885 0.90836 0.03028 0.0
H89 H 0.24642 0.81605 0.09205 0.0
H90 H 0.40464 0.8207 0.13043 0.0
H91 H 0.57605 0.91756 0.10595 0.0
C92 C 0.71573 0.0314 0.04494 0.0
C93 C 0.62009 0.02918 0.02949 0.0
C94 C 0.52048 0.97252 0.04675 0.0
C95 C 0.42948 0.97038 0.02682 0.0
C96 C 0.33084 0.91296 0.04389 0.0
C97 C 0.32243 0.8595 0.0798 0.0
C98 C 0.41147 0.86208 0.1012 0.0
C99 C 0.50948 0.9179 0.08579 0.0
H100 H 0.96241 0.62604 0.09565 0.0
C101 C 0.98622 0.6527 0.03279 0.0
H102 H 0.03833 0.65734 0.90746 0.0
H103 H 0.18498 0.49798 0.15688 0.0
H104 H 0.30824 0.59657 0.23121 0.0
H105 H 0.30581 0.68929 0.19584 0.0
H106 H 0.1797 0.68388 0.08645 0.0
C107 C 1.02149 0.63535 0.97346 0.0
C108 C 1.02652 0.58043 0.99262 0.0
C109 C 0.1014 0.58454 0.05631 0.0
C110 C 0.10377 0.5313 0.07575 0.0
C111 C 0.17947 0.53683 0.13961 0.0
C112 C 0.25091 0.59322 0.18264 0.0
C113 C 0.24946 0.6454 0.16282 0.0
C114 C 0.1761 0.64149 0.10024 0.0
H115 H 0.0964 0.42857 0.92729 0.0
C116 C 0.07271 0.40199 0.99021 0.0
H117 H 1.02089 0.39752 0.11561 0.0
H118 H 0.8742 0.55684 0.86606 0.0
H119 H 0.75092 0.45825 0.79174 0.0
H120 H 0.75331 0.36552 0.82715 0.0
H121 H 0.87939 0.37092 0.93655 0.0
C122 C 0.03761 0.41944 0.04956 0.0
C123 C 0.03261 0.47438 0.03036 0.0
C124 C 0.95773 0.47026 0.96666 0.0
C125 C 0.95537 0.5235 0.94721 0.0
C126 C 0.87969 0.51798 0.88335 0.0
C127 C 0.80824 0.46159 0.84032 0.0
C128 C 0.80967 0.40941 0.86016 0.0
C129 C 0.88302 0.41331 0.92274 0.0
loop_
_geom_bond_atom_site_label_1
_geom_bond_atom_site_label_2
_geom_bond_distance
_geom_bond_site_symmetry_2
_ccdc_geom_bond_type
Nd0 C2 2.836 . S
Nd0 O20 2.500 1_556 S
Nd0 O21 2.492 . S
Nd0 O22 2.487 . S
Nd0 O23 2.682 1_445 S
Nd0 O24 2.410 1_455 S
Nd0 O29 2.414 1_556 S
Nd0 O31 2.424 . S
Nd1 C11 2.836 . S
Nd1 O23 2.414 1_554 S
Nd1 O25 2.424 . S
Nd1 O26 2.500 1_554 S
Nd1 O27 2.492 . S
Nd1 O28 2.487 . S
Nd1 O29 2.682 1_665 S
Nd1 O30 2.410 1_655 S
C2 Nd0 2.836 . S
C2 C3 1.498 . S
C2 O20 1.258 1_556 S
C2 O21 1.239 . S
C3 C2 1.498 . S
C3 C4 1.366 1_456 S
C3 C8 1.407 . S
C4 C3 1.366 1_654 S
C4 C5 1.392 . S
C4 H32 0.930 . S
C5 C4 1.392 . S
C5 C6 1.398 1_654 S
C5 H33 0.929 . S
C6 C5 1.398 1_456 S
C6 C7 1.352 . S
C7 C6 1.352 . S
C7 C8 1.384 . S
C7 H34 0.930 . S
C8 C3 1.407 . S
C8 C7 1.384 . S
C8 H35 0.929 . S
C9 O22 1.241 . S
C9 O23 1.273 1_445 S
C10 O24 1.251 1_565 S
C10 O25 1.268 1_556 S
C11 Nd1 2.836 . S
C11 C12 1.498 . S
C11 O26 1.258 1_554 S
C11 O27 1.239 . S
C12 C11 1.498 . S
C12 C13 1.366 1_654 S
C12 C17 1.407 . S
C13 C12 1.366 1_456 S
C13 C14 1.392 . S
C13 H36 0.930 . S
C14 C13 1.392 . S
C14 C15 1.398 1_456 S
C14 H37 0.929 . S
C15 C14 1.398 1_654 S
C15 C16 1.352 . S
C16 C15 1.352 . S
C16 C17 1.384 . S
C16 H38 0.930 . S
C17 C12 1.407 . S
C17 C16 1.384 . S
C17 H39 0.929 . S
C18 O28 1.241 . S
C18 O29 1.273 1_665 S
C19 O30 1.251 1_545 S
C19 O31 1.268 1_554 S
O20 Nd0 2.500 1_554 S
O20 C2 1.258 1_554 S
O21 Nd0 2.492 . S
O21 C2 1.239 . S
O22 Nd0 2.487 . S
O22 C9 1.241 . S
O23 Nd0 2.682 1_665 S
O23 Nd1 2.414 1_556 S
O23 C9 1.273 1_665 S
O24 Nd0 2.410 1_655 S
O24 C10 1.251 1_545 S
O25 Nd1 2.424 . S
O25 C10 1.268 1_554 S
O26 Nd1 2.500 1_556 S
O26 C11 1.258 1_556 S
O27 Nd1 2.492 . S
O27 C11 1.239 . S
O28 Nd1 2.487 . S
O28 C18 1.241 . S
O29 Nd0 2.414 1_554 S
O29 Nd1 2.682 1_445 S
O29 C18 1.273 1_445 S
O30 Nd1 2.410 1_455 S
O30 C19 1.251 1_565 S
O31 Nd0 2.424 . S
O31 C19 1.268 1_556 S
H32 C4 0.930 . S
H33 C5 0.929 . S
H34 C7 0.930 . S
H35 C8 0.929 . S
H36 C13 0.930 . S
H37 C14 0.929 . S
H38 C16 0.930 . S
H39 C17 0.929 . S
H40 C41 0.951 . S
C41 H40 0.951 . S
C41 C47 1.265 1_445 S
H42 C47 0.950 . S
H43 C51 0.949 . S
H44 C52 0.950 . S
H45 C53 0.951 . S
H46 C54 0.951 . S
C47 C41 1.265 1_665 S
C47 H42 0.950 . S
C47 C48 1.478 . S
C48 C47 1.478 . S
C48 C49 1.397 . S
C48 C65 1.394 1_665 S
C49 C48 1.397 . S
C49 C50 1.438 . S
C49 C54 1.429 . S
C50 C49 1.438 . S
C50 C51 1.428 . S
C50 C63 1.394 1_665 S
C51 H43 0.949 . S
C51 C50 1.428 . S
C51 C52 1.345 . S
C52 H44 0.950 . S
C52 C51 1.345 . S
C52 C53 1.424 . S
C53 H45 0.951 . S
C53 C52 1.424 . S
C53 C54 1.347 . S
C54 H46 0.951 . S
C54 C49 1.429 . S
C54 C53 1.347 . S
H55 C56 0.951 . S
C56 H55 0.951 . S
C56 C62 1.265 1_665 S
H57 C62 0.950 . S
H58 C66 0.949 . S
H59 C67 0.950 . S
H60 C68 0.951 . S
H61 C69 0.951 . S
C62 C56 1.265 1_445 S
C62 H57 0.950 . S
C62 C63 1.478 . S
C63 C50 1.394 1_445 S
C63 C62 1.478 . S
C63 C64 1.397 . S
C64 C63 1.397 . S
C64 C65 1.438 . S
C64 C69 1.429 . S
C65 C48 1.394 1_445 S
C65 C64 1.438 . S
C65 C66 1.428 . S
C66 H58 0.949 . S
C66 C65 1.428 . S
C66 C67 1.345 . S
C67 H59 0.950 . S
C67 C66 1.345 . S
C67 C68 1.424 . S
C68 H60 0.951 . S
C68 C67 1.424 . S
C68 C69 1.347 . S
C69 H61 0.951 . S
C69 C64 1.429 . S
C69 C68 1.347 . S
H70 C71 0.951 . S
C71 H70 0.951 . S
C71 C77 1.265 1_566 S
H72 C77 0.950 . S
H73 C81 0.949 . S
H74 C82 0.950 . S
H75 C83 0.951 . S
H76 C84 0.951 . S
C77 C71 1.265 1_544 S
C77 H72 0.950 . S
C77 C78 1.478 . S
C78 C77 1.478 . S
C78 C79 1.397 . S
C78 C95 1.394 1_544 S
C79 C78 1.397 . S
C79 C80 1.438 . S
C79 C84 1.429 . S
C80 C79 1.438 . S
C80 C81 1.428 . S
C80 C93 1.394 1_544 S
C81 H73 0.949 . S
C81 C80 1.428 . S
C81 C82 1.345 . S
C82 H74 0.950 . S
C82 C81 1.345 . S
C82 C83 1.424 . S
C83 H75 0.951 . S
C83 C82 1.424 . S
C83 C84 1.347 . S
C84 H76 0.951 . S
C84 C79 1.429 . S
C84 C83 1.347 . S
H85 C86 0.951 . S
C86 H85 0.951 . S
C86 C92 1.265 1_544 S
H87 C92 0.950 . S
H88 C96 0.949 . S
H89 C97 0.950 . S
H90 C98 0.951 . S
H91 C99 0.951 . S
C92 C86 1.265 1_566 S
C92 H87 0.950 . S
C92 C93 1.478 . S
C93 C80 1.394 1_566 S
C93 C92 1.478 . S
C93 C94 1.397 . S
C94 C93 1.397 . S
C94 C95 1.438 . S
C94 C99 1.429 . S
C95 C78 1.394 1_566 S
C95 C94 1.438 . S
C95 C96 1.428 . S
C96 H88 0.949 . S
C96 C95 1.428 . S
C96 C97 1.345 . S
C97 H89 0.950 . S
C97 C96 1.345 . S
C97 C98 1.424 . S
C98 H90 0.951 . S
C98 C97 1.424 . S
C98 C99 1.347 . S
C99 H91 0.951 . S
C99 C94 1.429 . S
C99 C98 1.347 . S
H100 C101 0.951 . S
C101 H100 0.951 . S
C101 C107 1.265 1_656 S
H102 C107 0.950 . S
H103 C111 0.949 . S
H104 C112 0.950 . S
H105 C113 0.951 . S
H106 C114 0.951 . S
C107 C101 1.265 1_454 S
C107 H102 0.950 . S
C107 C108 1.478 . S
C108 C107 1.478 . S
C108 C109 1.397 . S
C108 C125 1.394 1_454 S
C109 C108 1.397 . S
C109 C110 1.438 . S
C109 C114 1.429 . S
C110 C109 1.438 . S
C110 C111 1.428 . S
C110 C123 1.394 1_454 S
C111 H103 0.949 . S
C111 C110 1.428 . S
C111 C112 1.345 . S
C112 H104 0.950 . S
C112 C111 1.345 . S
C112 C113 1.424 . S
C113 H105 0.951 . S
C113 C112 1.424 . S
C113 C114 1.347 . S
C114 H106 0.951 . S
C114 C109 1.429 . S
C114 C113 1.347 . S
H115 C116 0.951 . S
C116 H115 0.951 . S
C116 C122 1.265 1_454 S
H117 C122 0.950 . S
H118 C126 0.949 . S
H119 C127 0.950 . S
H120 C128 0.951 . S
H121 C129 0.951 . S
C122 C116 1.265 1_656 S
C122 H117 0.950 . S
C122 C123 1.478 . S
C123 C110 1.394 1_656 S
C123 C122 1.478 . S
C123 C124 1.397 . S
C124 C123 1.397 . S
C124 C125 1.438 . S
C124 C129 1.429 . S
C125 C108 1.394 1_656 S
C125 C124 1.438 . S
C125 C126 1.428 . S
C126 H118 0.949 . S
C126 C125 1.428 . S
C126 C127 1.345 . S
C127 H119 0.950 . S
C127 C126 1.345 . S
C127 C128 1.424 . S
C128 H120 0.951 . S
C128 C127 1.424 . S
C128 C129 1.347 . S
C129 H121 0.951 . S
C129 C124 1.429 . S
C129 C128 1.347 . S
C41 C18 1.458 1_445 S
C56 C9 1.458 1_665 S
C71 C19 1.493 1_566 S
C86 C10 1.493 1_544 S
C101 C15 1.480 1_556 S
C116 C6 1.480 1_554 S
