# Generated by pormake.
# Topology sxc, (6)-cn, num edge types: 1
# Building blocks:
#     Node 0, Type 0, BuildingBlock: PAMTUU_clean_sbu_0, # of connection points: 6
#     Node 1, Type 0, BuildingBlock: PAMTUU_clean_sbu_0, # of connection points: 6
#     Node 2, Type 0, BuildingBlock: PAMTUU_clean_sbu_0, # of connection points: 6
#     Edge 3, Type (0, 0), BuildingBlock: AJUNOK_clean_linker_0, # of connection points: 2
#     Edge 4, Type (0, 0), BuildingBlock: AJUNOK_clean_linker_0, # of connection points: 2
#     Edge 5, Type (0, 0), BuildingBlock: AJUNOK_clean_linker_0, # of connection points: 2
#     Edge 6, Type (0, 0), BuildingBlock: AJUNOK_clean_linker_0, # of connection points: 2
#     Edge 7, Type (0, 0), BuildingBlock: AJUNOK_clean_linker_0, # of connection points: 2
#     Edge 8, Type (0, 0), BuildingBlock: AJUNOK_clean_linker_0, # of connection points: 2
#     Edge 9, Type (0, 0), BuildingBlock: AJUNOK_clean_linker_0, # of connection points: 2
#     Edge 10, Type (0, 0), BuildingBlock: AJUNOK_clean_linker_0, # of connection points: 2
#     Edge 11, Type (0, 0), BuildingBlock: AJUNOK_clean_linker_0, # of connection points: 2
# Relax obj value: 0.543
# Max RMSD: 0.156
# Mean RMSD: 0.116
data_MOF--net-sxc--node1-PAMTUU_clean_sbu_0--edge1-AJUNOK_clean_linker_0
_symmetry_space_group_name_H-M    P1
_symmetry_Int_Tables_number       1
_symmetry_cell_setting            triclinic
loop_
_symmetry_equiv_pos_as_xyz
'x, y, z'
_cell_length_a     19.02879
_cell_length_b     12.281173
_cell_length_c     34.29027
_cell_angle_alpha  87.573608
_cell_angle_beta   98.716863
_cell_angle_gamma 129.55669
loop_
_atom_site_label
_atom_site_type_symbol
_atom_site_fract_x
_atom_site_fract_y
_atom_site_fract_z
_atom_type_partial_charge
Tb0 Tb 1.01536 1.09729 0.95859 0.0
Tb1 Tb 0.22785 0.3115 0.97536 0.0
C2 C 0.12691 0.22013 0.88584 0.0
C3 C 0.8044 0.8485 -0.0075 0.0
C4 C 0.77811 0.77467 0.07114 0.0
C5 C 0.74532 0.84077 0.05119 0.0
C6 C 0.75737 0.87573 0.01226 0.0
C7 C 0.83379 0.77674 0.01162 0.0
C8 C 0.8198 0.73877 0.05044 0.0
C9 C 0.84507 0.93004 0.95829 0.0
O10 O 1.04185 0.94092 0.95732 0.0
O11 O 0.19802 1.09754 0.97482 0.0
O12 O 0.18687 0.29947 0.03228 0.0
O13 O 1.04929 1.08125 0.02141 0.0
O14 O 0.35434 0.51864 -0.0109 0.0
O15 O 0.34964 0.33907 -0.00933 0.0
O16 O 0.20145 0.46792 0.96682 0.0
O17 O 1.0451 0.3112 0.9618 0.0
O18 O 1.04645 0.138 0.89827 0.0
O19 O 0.20556 0.29673 0.91066 0.0
C20 C 0.12083 0.96258 0.96591 0.0
O21 O 0.8964 1.0659 0.96591 0.0
O22 O 0.88531 0.89904 0.9393 0.0
C23 C 0.1176 0.18671 0.04616 0.0
C24 C 0.43603 0.50671 0.04554 0.0
C25 C 0.53032 0.57739 0.12389 0.0
C26 C 0.45292 0.43597 0.1114 0.0
C27 C 0.40745 0.40061 0.0723 0.0
C28 C 0.49983 0.64835 0.06013 0.0
C29 C 0.5445 0.6835 0.09929 0.0
C30 C 0.39634 0.47032 0.00313 0.0
C31 C 0.12286 0.44675 0.96424 0.0
H32 H 0.71079 0.86711 0.06571 0.0
H33 H 0.73556 0.93307 -0.00147 0.0
H34 H 0.87245 0.75725 -0.00245 0.0
H35 H 0.84568 0.68772 0.06478 0.0
H36 H 0.43368 0.35125 0.1304 0.0
H37 H 0.35291 0.2898 0.06268 0.0
H38 H 0.51864 0.7322 0.04076 0.0
H39 H 0.59793 0.79492 0.10825 0.0
Tb40 Tb 0.21395 0.25806 0.30698 0.0
Tb41 Tb 0.99867 1.04682 0.29036 0.0
C42 C 0.10353 0.15997 0.37692 0.0
C43 C 0.44899 0.40467 0.30912 0.0
C44 C 0.53782 0.2948 0.30123 0.0
C45 C 0.57575 0.40381 0.3304 0.0
C46 C 0.53131 0.45848 0.33436 0.0
C47 C 0.41529 0.30398 0.27806 0.0
C48 C 0.45925 0.24923 0.2742 0.0
C49 C 0.388 0.42813 0.31983 0.0
O50 O 0.18873 1.05075 0.29888 0.0
O51 O 1.03236 0.89668 0.29585 0.0
O52 O 1.02848 1.07204 0.23005 0.0
O53 O 0.18647 0.22538 0.24276 0.0
O54 O 0.88097 0.87154 0.31166 0.0
O55 O 0.86909 0.9542 0.25652 0.0
O56 O 1.02501 0.25738 0.28839 0.0
O57 O 0.18109 0.40782 0.30898 0.0
O58 O 0.17259 0.18127 0.36444 0.0
O59 O 1.036 0.13573 0.35119 0.0
C60 C 0.11053 0.91618 0.2973 0.0
O61 O 0.33909 0.43428 0.29038 0.0
O62 O 0.33745 0.34437 0.34566 0.0
C63 C 0.10868 0.15107 0.21781 0.0
C64 C 0.76064 0.88041 0.29679 0.0
C65 C 0.65853 0.96519 0.30679 0.0
C66 C 0.62113 0.8509 0.27971 0.0
C67 C 0.67244 0.80903 0.27459 0.0
C68 C 0.79326 0.98366 0.32681 0.0
C69 C 0.74229 1.02549 0.33188 0.0
C70 C 0.82526 0.86908 0.28367 0.0
C71 C 0.10354 0.3906 0.29842 0.0
H72 H 0.63673 0.44096 0.3514 0.0
H73 H 0.55756 0.53525 0.35867 0.0
H74 H 0.35089 0.25931 0.25863 0.0
H75 H 0.42745 0.16343 0.25197 0.0
H76 H 0.55569 0.80154 0.26056 0.0
H77 H 0.64646 0.72892 0.25135 0.0
H78 H 0.86145 1.0403 0.34415 0.0
H79 H 0.77242 1.11384 0.35291 0.0
Tb80 Tb 0.11086 0.2665 0.6295 0.0
Tb81 Tb 0.12003 1.1185 0.63399 0.0
C82 C 0.11089 0.18149 0.54847 0.0
C83 C 0.97107 0.37428 0.63138 0.0
C84 C 0.78797 0.25991 0.63356 0.0
C85 C 0.83988 0.36346 0.60723 0.0
C86 C 0.93046 0.41941 0.60599 0.0
C87 C 0.92153 0.27767 0.65942 0.0
C88 C 0.83083 0.22117 0.66053 0.0
C89 C 1.0583 0.41132 0.62445 0.0
O90 O 0.95636 1.01947 0.63097 0.0
O91 O 0.9506 0.99672 0.63139 0.0
O92 O 1.08083 1.09348 0.69295 0.0
O93 O 0.16543 0.321 0.69316 0.0
O94 O 0.10605 0.94114 0.61799 0.0
O95 O 0.19518 1.07355 0.67136 0.0
O96 O 0.27376 0.36588 0.63106 0.0
O97 O 0.27987 0.38978 0.63036 0.0
O98 O 0.13682 0.29252 0.5683 0.0
O99 O 1.08824 1.07618 0.56956 0.0
C100 C 0.86721 0.97873 0.62917 0.0
O101 O 0.11188 0.42048 0.65513 0.0
O102 O 1.04941 0.33914 0.59465 0.0
C103 C 0.12533 0.21141 0.71401 0.0
C104 C 0.2444 0.97647 0.63839 0.0
C105 C 0.40828 1.02698 0.63082 0.0
C106 C 0.3525 0.9334 0.65807 0.0
C107 C 0.27113 0.90828 0.66177 0.0
C108 C 0.29769 1.06528 0.60999 0.0
C109 C 0.37888 1.09008 0.60618 0.0
C110 C 0.16863 0.96929 0.64758 0.0
C111 C 0.36324 0.40769 0.63269 0.0
H112 H 0.80978 0.39901 0.58699 0.0
H113 H 0.96753 0.4938 0.58415 0.0
H114 H 0.95129 0.24059 0.6792 0.0
H115 H 0.79285 0.14224 0.68128 0.0
H116 H 0.3733 0.88302 0.67732 0.0
H117 H 0.23111 0.8402 0.68406 0.0
H118 H 0.27872 0.12028 0.59202 0.0
H119 H 0.42118 0.16478 0.58544 0.0
C120 C 1.04118 0.56593 0.95816 0.0
C121 C 0.12286 0.5793 0.96449 0.0
C122 C 1.04103 0.6851 0.95853 0.0
C123 C 0.12246 0.83167 0.96557 0.0
H124 H 0.97496 0.46045 0.95262 0.0
H125 H 0.97462 0.66063 0.95321 0.0
S126 S 0.35773 0.93581 -0.01504 0.0
N127 N 0.28965 0.76153 -0.02139 0.0
N128 N 0.28919 0.97632 -0.02037 0.0
C129 C 0.20453 0.84646 0.97219 0.0
C130 C 0.20474 0.72529 0.97157 0.0
C131 C 0.58327 0.16361 0.33783 0.0
C132 C 0.57176 0.21511 0.30208 0.0
C133 C 0.60752 1.07724 0.33898 0.0
C134 C 0.62055 1.03913 0.3044 0.0
H135 H 0.57164 0.18785 0.36497 0.0
H136 H 0.61677 1.04075 0.36711 0.0
S137 S 0.60432 0.15322 0.20398 0.0
N138 N 0.57876 0.22665 0.2317 0.0
N139 N 0.62439 1.06387 0.23387 0.0
C140 C 0.60966 1.09033 0.26854 0.0
C141 C 0.58538 0.17866 0.26739 0.0
C142 C 0.66145 0.83184 0.62572 0.0
C143 C 0.74008 0.82551 0.6301 0.0
C144 C 0.55383 0.71875 0.62624 0.0
C145 C 0.49044 0.56091 0.63141 0.0
H146 H 0.68465 0.93709 0.62109 0.0
H147 H 0.5186 0.76203 0.62204 0.0
S148 S 0.63655 0.44301 0.64514 0.0
N149 N 0.72102 0.61193 0.64047 0.0
N150 N 0.54058 0.42076 0.64147 0.0
C151 C 0.5679 0.55178 0.63583 0.0
C152 C 0.67821 0.66814 0.63528 0.0
C153 C 0.65429 0.17303 0.66754 0.0
C154 C 0.68883 0.1901 0.63231 0.0
C155 C 0.5622 1.11399 0.66686 0.0
C156 C 0.50123 1.07032 0.6309 0.0
H157 H 0.69956 0.21014 0.6958 0.0
H158 H 0.53993 1.10891 0.69462 0.0
S159 S 0.55291 1.06895 0.53101 0.0
N160 N 0.65146 0.14139 0.56087 0.0
N161 N 0.47888 1.0326 0.55962 0.0
C162 C 0.53349 1.0797 0.59565 0.0
C163 C 0.62708 0.1391 0.59634 0.0
C164 C 0.75824 0.8167 0.13792 0.0
C165 C 0.75774 0.7304 0.11165 0.0
C166 C 0.68744 0.75358 0.16103 0.0
C167 C 0.61083 0.60866 0.15232 0.0
H168 H 0.8029 0.9303 0.13582 0.0
H169 H 0.67948 0.82159 0.17519 0.0
S170 S 0.62746 0.34553 0.11864 0.0
N171 N 0.7111 0.4957 0.10162 0.0
N172 N 0.58093 0.38507 0.1459 0.0
C173 C 0.63488 0.52699 0.14266 0.0
C174 C 0.70539 0.58662 0.11897 0.0
C175 C 1.02526 0.51518 0.29314 0.0
C176 C 0.10579 0.52555 0.29811 0.0
C177 C 1.02717 0.63649 0.29301 0.0
C178 C 0.10974 0.78265 0.2974 0.0
H179 H 0.95833 0.41037 0.28946 0.0
H180 H 0.96145 0.61406 0.28922 0.0
S181 S 0.34272 0.87943 0.31065 0.0
N182 N 0.27283 0.70467 0.30733 0.0
N183 N 0.27613 0.92339 0.30659 0.0
C184 C 0.19065 0.79445 0.30211 0.0
C185 C 0.18876 0.67102 0.30259 0.0
C186 C 1.04006 1.04853 0.14672 0.0
C187 C 0.11232 0.1609 0.17426 0.0
C188 C 1.04285 1.05735 0.10571 0.0
C189 C 0.11679 0.17967 0.0901 0.0
H190 H 0.98123 0.95203 0.15692 0.0
H191 H 0.98649 0.96726 0.08605 0.0
S192 S 0.32036 0.50873 0.14951 0.0
N193 N 0.25884 0.40097 0.18272 0.0
N194 N 0.26264 0.41907 0.10624 0.0
C195 C 0.18875 0.2939 0.11742 0.0
C196 C 0.18677 0.28406 0.15918 0.0
C197 C 0.13554 1.10742 0.44623 0.0
C198 C 0.10271 0.16401 0.42041 0.0
C199 C 0.13614 1.1107 0.48739 0.0
C200 C 0.10717 0.17544 0.50467 0.0
H201 H 0.15999 1.05851 0.43446 0.0
H202 H 0.16136 1.06482 0.50594 0.0
S203 S 1.01587 0.34062 0.45047 0.0
N204 N 1.03898 0.28463 0.41537 0.0
N205 N 1.04451 0.29724 0.49257 0.0
C206 C 1.07509 0.23366 0.47927 0.0
C207 C 1.07163 0.22617 0.43725 0.0
C208 C 1.05773 1.09844 0.7757 0.0
C209 C 0.1276 0.21817 0.7578 0.0
C210 C 1.05743 1.10109 0.81676 0.0
C211 C 0.12828 0.22248 0.8421 0.0
H212 H 1.00198 1.00176 0.75775 0.0
H213 H 1.00179 1.00597 0.82882 0.0
S214 S 0.32802 0.56433 0.81038 0.0
N215 N 0.26929 0.46256 0.76883 0.0
N216 N 0.27048 0.4662 0.84585 0.0
C217 C 0.19904 0.34271 0.82463 0.0
C218 C 0.19818 0.34097 0.78263 0.0
loop_
_geom_bond_atom_site_label_1
_geom_bond_atom_site_label_2
_geom_bond_distance
_geom_bond_site_symmetry_2
_ccdc_geom_bond_type
Tb0 C9 2.764 . S
Tb0 O10 2.325 . S
Tb0 O13 2.303 1_666 S
Tb0 O17 2.322 1_565 S
Tb0 O18 2.350 1_565 S
Tb0 O21 2.415 1_556 S
Tb0 O22 2.399 . S
Tb1 O11 2.322 1_545 S
Tb1 O12 2.349 . S
Tb1 O14 2.415 1_554 S
Tb1 O15 2.399 . S
Tb1 O16 2.325 . S
Tb1 O19 2.303 1_554 S
Tb1 C30 2.764 . S
C2 O18 1.261 1_455 S
C2 O19 1.257 . S
C3 C6 1.358 . S
C3 C7 1.332 1_556 S
C3 C9 1.504 . S
C4 C5 1.373 1_554 S
C4 C8 1.308 . S
C5 C4 1.373 1_556 S
C5 C6 1.429 . S
C5 H32 0.932 . S
C6 C3 1.358 . S
C6 C5 1.429 . S
C6 H33 0.930 . S
C7 C3 1.332 1_554 S
C7 C8 1.394 . S
C7 H34 0.932 . S
C8 C4 1.308 . S
C8 C7 1.394 . S
C8 H35 0.929 . S
C9 Tb0 2.764 . S
C9 C3 1.504 . S
C9 O21 1.239 1_556 S
C9 O22 1.263 . S
O10 Tb0 2.325 . S
O10 C20 1.236 1_656 S
O11 Tb1 2.322 1_565 S
O11 C20 1.257 . S
O12 Tb1 2.349 . S
O12 C23 1.261 . S
O13 Tb0 2.303 1_444 S
O13 C23 1.257 . S
O14 Tb1 2.415 1_556 S
O14 C30 1.239 1_556 S
O15 Tb1 2.399 . S
O15 C30 1.263 . S
O16 Tb1 2.325 . S
O16 C31 1.236 . S
O17 Tb0 2.322 1_545 S
O17 C31 1.257 1_656 S
O18 Tb0 2.350 1_545 S
O18 C2 1.261 1_655 S
O19 Tb1 2.303 1_556 S
O19 C2 1.257 . S
C20 O10 1.236 1_454 S
C20 O11 1.257 . S
O21 Tb0 2.415 1_554 S
O21 C9 1.239 1_554 S
O22 Tb0 2.399 . S
O22 C9 1.263 . S
C23 O12 1.261 . S
C23 O13 1.257 . S
C24 C27 1.358 . S
C24 C28 1.332 1_554 S
C24 C30 1.504 . S
C25 C26 1.373 . S
C25 C29 1.308 1_554 S
C26 C25 1.373 . S
C26 C27 1.429 . S
C26 H36 0.932 . S
C27 C24 1.358 . S
C27 C26 1.429 . S
C27 H37 0.930 . S
C28 C24 1.332 1_556 S
C28 C29 1.394 . S
C28 H38 0.932 . S
C29 C25 1.308 1_556 S
C29 C28 1.394 . S
C29 H39 0.929 . S
C30 Tb1 2.764 . S
C30 O14 1.239 1_554 S
C30 O15 1.263 . S
C30 C24 1.504 . S
C31 O16 1.236 . S
C31 O17 1.257 1_454 S
H32 C5 0.932 . S
H33 C6 0.930 . S
H34 C7 0.932 . S
H35 C8 0.929 . S
H36 C26 0.932 . S
H37 C27 0.930 . S
H38 C28 0.932 . S
H39 C29 0.929 . S
Tb40 C49 2.764 . S
Tb40 O50 2.325 1_545 S
Tb40 O53 2.303 . S
Tb40 O57 2.322 . S
Tb40 O58 2.349 . S
Tb40 O61 2.415 . S
Tb40 O62 2.399 . S
Tb41 O51 2.322 . S
Tb41 O52 2.349 . S
Tb41 O54 2.415 . S
Tb41 O55 2.399 . S
Tb41 O56 2.325 1_565 S
Tb41 O59 2.303 . S
Tb41 C70 2.764 . S
C42 O58 1.261 . S
C42 O59 1.257 1_445 S
C43 C46 1.358 . S
C43 C47 1.332 1_545 S
C43 C49 1.504 . S
C44 C45 1.373 . S
C44 C48 1.308 1_545 S
C45 C44 1.373 . S
C45 C46 1.429 . S
C45 H72 0.932 . S
C46 C43 1.358 . S
C46 C45 1.429 . S
C46 H73 0.930 . S
C47 C43 1.332 1_565 S
C47 C48 1.394 . S
C47 H74 0.932 . S
C48 C44 1.308 1_565 S
C48 C47 1.394 . S
C48 H75 0.929 . S
C49 Tb40 2.764 . S
C49 C43 1.504 . S
C49 O61 1.239 . S
C49 O62 1.263 . S
O50 Tb40 2.325 1_565 S
O50 C60 1.236 1_455 S
O51 Tb41 2.322 . S
O51 C60 1.257 . S
O52 Tb41 2.349 . S
O52 C63 1.261 . S
O53 Tb40 2.303 . S
O53 C63 1.257 1_445 S
O54 Tb41 2.415 . S
O54 C70 1.239 . S
O55 Tb41 2.399 . S
O55 C70 1.263 . S
O56 Tb41 2.325 1_545 S
O56 C71 1.236 1_655 S
O57 Tb40 2.322 . S
O57 C71 1.257 . S
O58 Tb40 2.349 . S
O58 C42 1.261 . S
O59 Tb41 2.303 . S
O59 C42 1.257 1_665 S
C60 O50 1.236 1_655 S
C60 O51 1.257 . S
O61 Tb40 2.415 . S
O61 C49 1.239 . S
O62 Tb40 2.399 . S
O62 C49 1.263 . S
C63 O52 1.261 . S
C63 O53 1.257 1_665 S
C64 C67 1.358 . S
C64 C68 1.332 1_565 S
C64 C70 1.504 . S
C65 C66 1.373 . S
C65 C69 1.308 1_565 S
C66 C65 1.373 . S
C66 C67 1.429 . S
C66 H76 0.932 . S
C67 C64 1.358 . S
C67 C66 1.429 . S
C67 H77 0.930 . S
C68 C64 1.332 1_545 S
C68 C69 1.394 . S
C68 H78 0.932 . S
C69 C65 1.308 1_545 S
C69 C68 1.394 . S
C69 H79 0.929 . S
C70 Tb41 2.764 . S
C70 O54 1.239 . S
C70 O55 1.263 . S
C70 C64 1.504 . S
C71 O56 1.236 1_455 S
C71 O57 1.257 . S
H72 C45 0.932 . S
H73 C46 0.930 . S
H74 C47 0.932 . S
H75 C48 0.929 . S
H76 C66 0.932 . S
H77 C67 0.930 . S
H78 C68 0.932 . S
H79 C69 0.929 . S
Tb80 C89 2.764 . S
Tb80 O90 2.325 . S
Tb80 O93 2.303 1_655 S
Tb80 O97 2.322 1_655 S
Tb80 O98 2.349 . S
Tb80 O101 2.415 . S
Tb80 O102 2.399 . S
Tb81 O91 2.322 1_455 S
Tb81 O92 2.349 1_565 S
Tb81 O94 2.415 1_565 S
Tb81 O95 2.399 . S
Tb81 O96 2.325 1_565 S
Tb81 O99 2.303 1_565 S
Tb81 C110 2.764 . S
C82 O98 1.261 1_455 S
C82 O99 1.257 . S
C83 C86 1.358 . S
C83 C87 1.332 . S
C83 C89 1.504 . S
C84 C85 1.373 . S
C84 C88 1.308 . S
C85 C84 1.373 . S
C85 C86 1.429 . S
C85 H112 0.932 . S
C86 C83 1.358 . S
C86 C85 1.429 . S
C86 H113 0.930 . S
C87 C83 1.332 . S
C87 C88 1.394 . S
C87 H114 0.932 . S
C88 C84 1.308 . S
C88 C87 1.394 . S
C88 H115 0.929 . S
C89 Tb80 2.764 . S
C89 C83 1.504 . S
C89 O101 1.239 . S
C89 O102 1.263 . S
O90 Tb80 2.325 . S
O90 C100 1.236 1_545 S
O91 Tb81 2.322 1_655 S
O91 C100 1.257 . S
O92 Tb81 2.349 1_545 S
O92 C103 1.261 . S
O93 Tb80 2.303 1_455 S
O93 C103 1.257 . S
O94 Tb81 2.415 1_545 S
O94 C110 1.239 1_545 S
O95 Tb81 2.399 . S
O95 C110 1.263 . S
O96 Tb81 2.325 1_545 S
O96 C111 1.236 . S
O97 Tb80 2.322 1_455 S
O97 C111 1.257 . S
O98 Tb80 2.349 . S
O98 C82 1.261 1_655 S
O99 Tb81 2.303 1_545 S
O99 C82 1.257 . S
C100 O90 1.236 1_565 S
C100 O91 1.257 . S
O101 Tb80 2.415 . S
O101 C89 1.239 . S
O102 Tb80 2.399 . S
O102 C89 1.263 . S
C103 O92 1.261 . S
C103 O93 1.257 . S
C104 C107 1.358 . S
C104 C108 1.332 1_565 S
C104 C110 1.504 . S
C105 C106 1.373 . S
C105 C109 1.308 1_565 S
C106 C105 1.373 . S
C106 C107 1.429 . S
C106 H116 0.932 . S
C107 C104 1.358 . S
C107 C106 1.429 . S
C107 H117 0.930 . S
C108 C104 1.332 1_545 S
C108 C109 1.394 . S
C108 H118 0.932 . S
C109 C105 1.308 1_545 S
C109 C108 1.394 . S
C109 H119 0.929 . S
C110 Tb81 2.764 . S
C110 O94 1.239 1_565 S
C110 O95 1.263 . S
C110 C104 1.504 . S
C111 O96 1.236 . S
C111 O97 1.257 . S
H112 C85 0.932 . S
H113 C86 0.930 . S
H114 C87 0.932 . S
H115 C88 0.929 . S
H116 C106 0.932 . S
H117 C107 0.930 . S
H118 C108 0.932 . S
H119 C109 0.929 . S
C120 C121 1.369 1_655 S
C120 C122 1.419 . S
C120 H124 0.930 . S
C121 C120 1.369 1_455 S
C121 C130 1.429 1_554 S
C122 C120 1.419 . S
C122 C123 1.363 1_655 S
C122 H125 0.929 . S
C123 C122 1.363 1_455 S
C123 C129 1.428 1_554 S
H124 C120 0.930 . S
H125 C122 0.929 . S
S126 N127 1.613 . S
S126 N128 1.610 . S
N127 S126 1.613 . S
N127 C130 1.350 . S
N128 S126 1.610 . S
N128 C129 1.351 . S
C129 C123 1.428 1_556 S
C129 N128 1.351 . S
C129 C130 1.434 . S
C130 C121 1.429 1_556 S
C130 N127 1.350 . S
C130 C129 1.434 . S
C131 C132 1.369 . S
C131 C133 1.416 1_545 S
C131 H135 0.930 . S
C132 C131 1.369 . S
C132 C141 1.429 . S
C133 C131 1.416 1_565 S
C133 C134 1.364 . S
C133 H136 0.930 . S
C134 C133 1.364 . S
C134 C140 1.428 . S
H135 C131 0.930 . S
H136 C133 0.930 . S
S137 N138 1.613 . S
S137 N139 1.610 . S
N138 S137 1.613 . S
N138 C141 1.350 1_565 S
N139 S137 1.610 . S
N139 C140 1.351 . S
C140 C134 1.428 . S
C140 N139 1.351 . S
C140 C141 1.434 1_565 S
C141 C132 1.429 . S
C141 N138 1.350 1_545 S
C141 C140 1.434 1_545 S
C142 C143 1.369 . S
C142 C144 1.419 . S
C142 H146 0.930 . S
C143 C142 1.369 . S
C143 C152 1.429 . S
C144 C142 1.419 . S
C144 C145 1.363 . S
C144 H147 0.929 . S
C145 C144 1.363 . S
C145 C151 1.428 . S
H146 C142 0.930 . S
H147 C144 0.929 . S
S148 N149 1.613 . S
S148 N150 1.610 . S
N149 S148 1.613 . S
N149 C152 1.350 . S
N150 S148 1.610 . S
N150 C151 1.351 . S
C151 C145 1.428 . S
C151 N150 1.351 . S
C151 C152 1.434 . S
C152 C143 1.429 . S
C152 N149 1.350 . S
C152 C151 1.434 . S
C153 C154 1.369 . S
C153 C155 1.419 . S
C153 H157 0.930 . S
C154 C153 1.369 . S
C154 C163 1.429 . S
C155 C153 1.419 . S
C155 C156 1.363 . S
C155 H158 0.929 1_545 S
C156 C155 1.363 . S
C156 C162 1.428 . S
H157 C153 0.930 . S
H158 C155 0.929 1_565 S
S159 N160 1.613 . S
S159 N161 1.610 . S
N160 S159 1.613 . S
N160 C163 1.350 . S
N161 S159 1.610 . S
N161 C162 1.351 . S
C162 C156 1.428 . S
C162 N161 1.351 . S
C162 C163 1.434 . S
C163 C154 1.429 . S
C163 N160 1.350 . S
C163 C162 1.434 . S
C164 C165 1.369 1_556 S
C164 C166 1.419 . S
C164 H168 0.930 . S
C165 C164 1.369 1_554 S
C165 C174 1.429 . S
C166 C164 1.419 . S
C166 C167 1.363 1_556 S
C166 H169 0.929 . S
C167 C166 1.363 1_554 S
C167 C173 1.428 . S
H168 C164 0.930 . S
H169 C166 0.929 . S
S170 N171 1.613 . S
S170 N172 1.610 . S
N171 S170 1.613 . S
N171 C174 1.350 . S
N172 S170 1.610 . S
N172 C173 1.351 . S
C173 C167 1.428 . S
C173 N172 1.351 . S
C173 C174 1.434 . S
C174 C165 1.429 . S
C174 N171 1.350 . S
C174 C173 1.434 . S
C175 C176 1.369 1_655 S
C175 C177 1.419 . S
C175 H179 0.930 . S
C176 C175 1.369 1_455 S
C176 C185 1.429 . S
C177 C175 1.419 . S
C177 C178 1.363 . S
C177 H180 0.929 . S
C178 C177 1.363 . S
C178 C184 1.428 1_655 S
H179 C175 0.930 . S
H180 C177 0.929 . S
S181 N182 1.613 . S
S181 N183 1.610 . S
N182 S181 1.613 . S
N182 C185 1.350 . S
N183 S181 1.610 . S
N183 C184 1.351 . S
C184 C178 1.428 1_455 S
C184 N183 1.351 . S
C184 C185 1.434 . S
C185 C176 1.429 . S
C185 N182 1.350 . S
C185 C184 1.434 . S
C186 C187 1.369 1_655 S
C186 C188 1.419 . S
C186 H190 0.930 . S
C187 C186 1.369 1_455 S
C187 C196 1.429 1_565 S
C188 C186 1.419 . S
C188 C189 1.363 1_665 S
C188 H191 0.929 . S
C189 C188 1.363 1_445 S
C189 C195 1.428 . S
H190 C186 0.930 . S
H191 C188 0.929 . S
S192 N193 1.613 . S
S192 N194 1.610 . S
N193 S192 1.613 . S
N193 C196 1.350 . S
N194 S192 1.610 . S
N194 C195 1.351 . S
C195 C189 1.428 . S
C195 N194 1.351 . S
C195 C196 1.434 . S
C196 C187 1.429 1_545 S
C196 N193 1.350 . S
C196 C195 1.434 . S
C197 C198 1.369 1_565 S
C197 C199 1.419 1_565 S
C197 H201 0.930 . S
C198 C197 1.369 1_545 S
C198 C207 1.429 1_455 S
C199 C197 1.419 1_545 S
C199 C200 1.363 . S
C199 H202 0.929 1_545 S
C200 C199 1.363 . S
C200 C206 1.428 1_455 S
H201 C197 0.930 . S
H202 C199 0.929 1_565 S
S203 N204 1.613 . S
S203 N205 1.610 . S
N204 S203 1.613 . S
N204 C207 1.350 . S
N205 S203 1.610 . S
N205 C206 1.351 . S
C206 C200 1.428 1_655 S
C206 N205 1.351 . S
C206 C207 1.434 . S
C207 C198 1.429 1_655 S
C207 N204 1.350 . S
C207 C206 1.434 . S
C208 C209 1.369 . S
C208 C210 1.419 1_545 S
C208 H212 0.930 1_545 S
C209 C208 1.369 . S
C209 C218 1.429 . S
C210 C208 1.419 1_565 S
C210 C211 1.363 1_565 S
C210 H213 0.929 . S
C211 C210 1.363 1_545 S
C211 C217 1.428 . S
H212 C208 0.930 1_565 S
H213 C210 0.929 . S
S214 N215 1.613 . S
S214 N216 1.610 . S
N215 S214 1.613 . S
N215 C218 1.350 . S
N216 S214 1.610 . S
N216 C217 1.351 . S
C217 C211 1.428 . S
C217 N216 1.351 . S
C217 C218 1.434 . S
C218 C209 1.429 . S
C218 N215 1.350 . S
C218 C217 1.434 . S
C121 C31 2.998 . S
C123 C20 2.994 . S
C132 C44 0.513 . S
C134 C65 0.526 . S
C143 C100 4.932 . S
C145 C111 4.931 . S
C154 C84 1.149 . S
C156 C105 1.135 1_545 S
C165 C4 0.719 . S
C167 C25 0.711 . S
C176 C71 2.925 . S
C178 C60 2.925 . S
C187 C63 1.501 1_455 S
C189 C23 1.504 . S
C198 C42 1.483 . S
C200 C82 1.500 . S
C209 C103 1.465 . S
C211 C2 1.484 . S
