# Generated by pormake.
# Topology sxb, (6)-cn, num edge types: 1
# Building blocks:
#     Node 0, Type 0, BuildingBlock: FUNLAD_clean_sbu_0, # of connection points: 6
#     Node 1, Type 0, BuildingBlock: FUNLAD_clean_sbu_0, # of connection points: 6
#     Node 2, Type 0, BuildingBlock: FUNLAD_clean_sbu_0, # of connection points: 6
#     Node 3, Type 0, BuildingBlock: FUNLAD_clean_sbu_0, # of connection points: 6
#     Edge 4, Type (0, 0), BuildingBlock: OJICUG_clean_linker_0, # of connection points: 2
#     Edge 5, Type (0, 0), BuildingBlock: OJICUG_clean_linker_0, # of connection points: 2
#     Edge 6, Type (0, 0), BuildingBlock: OJICUG_clean_linker_0, # of connection points: 2
#     Edge 7, Type (0, 0), BuildingBlock: OJICUG_clean_linker_0, # of connection points: 2
#     Edge 8, Type (0, 0), BuildingBlock: OJICUG_clean_linker_0, # of connection points: 2
#     Edge 9, Type (0, 0), BuildingBlock: OJICUG_clean_linker_0, # of connection points: 2
#     Edge 10, Type (0, 0), BuildingBlock: OJICUG_clean_linker_0, # of connection points: 2
#     Edge 11, Type (0, 0), BuildingBlock: OJICUG_clean_linker_0, # of connection points: 2
#     Edge 12, Type (0, 0), BuildingBlock: OJICUG_clean_linker_0, # of connection points: 2
#     Edge 13, Type (0, 0), BuildingBlock: OJICUG_clean_linker_0, # of connection points: 2
#     Edge 14, Type (0, 0), BuildingBlock: OJICUG_clean_linker_0, # of connection points: 2
#     Edge 15, Type (0, 0), BuildingBlock: OJICUG_clean_linker_0, # of connection points: 2
# Relax obj value: 0.085
# Max RMSD: 0.152
# Mean RMSD: 0.152
data_MOF--net-sxb--node1-FUNLAD_clean_sbu_0--edge1-OJICUG_clean_linker_0
_symmetry_space_group_name_H-M    P1
_symmetry_Int_Tables_number       1
_symmetry_cell_setting            triclinic
loop_
_symmetry_equiv_pos_as_xyz
'x, y, z'
_cell_length_a     10.99696277
_cell_length_b     19.50887
_cell_length_c     35.398162
_cell_angle_alpha  89.954691
_cell_angle_beta   91.300608
_cell_angle_gamma 89.999994
loop_
_atom_site_label
_atom_site_type_symbol
_atom_site_fract_x
_atom_site_fract_y
_atom_site_fract_z
_atom_type_partial_charge
C0 C 0.18794 0.02865 0.01782 0.0
N1 N 0.94012 -0.00014 0.92817 0.0
C2 C 0.00086 0.05016 0.90981 0.0
C3 C 0.00335 0.05098 0.8704 0.0
C4 C 0.9412 9e-05 0.84948 0.0
C5 C 0.87816 0.94921 0.8693 0.0
C6 C 0.87952 0.9498 0.90877 0.0
Zn7 Zn 0.94216 -0.00076 0.98594 0.0
C8 C 0.02959 0.86544 0.01724 0.0
N9 N -0.05111 0.99843 0.10645 0.0
C10 C 0.00947 0.04849 0.12586 0.0
C11 C 0.88815 0.94813 0.12482 0.0
C12 C 0.88567 0.9473 0.16423 0.0
C13 C -0.0522 0.9982 0.18515 0.0
C14 C 0.01083 0.04909 0.16533 0.0
Zn15 Zn -0.05316 0.99904 0.04869 0.0
O16 O 0.12759 0.0255 0.98687 0.0
C17 C 0.85941 0.13285 0.01739 0.0
O18 O 0.13232 0.0253 0.04882 0.0
H19 H 0.84071 0.90873 0.10886 0.0
H20 H 0.04831 0.08955 0.92577 0.0
H21 H 0.05697 0.08809 0.1107 0.0
O22 O 0.88256 0.10307 0.98639 0.0
O23 O 0.88703 0.10294 0.04838 0.0
H24 H 0.83202 0.91021 0.92393 0.0
O25 O 0.76141 0.97278 0.04776 0.0
O26 O 0.75668 0.97299 0.9858 0.0
O27 O 0.00645 0.89522 0.04823 0.0
O28 O 0.00196 0.89535 0.98625 0.0
C29 C 0.70106 0.96963 0.01681 0.0
H30 H 0.05499 0.09063 0.8566 0.0
H31 H 0.82718 0.90956 0.85457 0.0
H32 H 0.83403 0.90765 0.17803 0.0
H33 H 0.0618 0.08874 0.18006 0.0
C34 C 0.70105 0.02865 0.51678 0.0
N35 N -0.05118 -0.00029 0.60645 0.0
C36 C 0.88809 0.05003 0.62477 0.0
C37 C 0.88562 0.05088 0.66417 0.0
C38 C -0.05223 0.0 0.68515 0.0
C39 C 0.01077 0.94909 0.66538 0.0
C40 C 0.0094 0.94966 0.62591 0.0
Zn41 Zn -0.05318 -0.00084 0.54869 0.0
C42 C 0.85941 0.86544 0.51742 0.0
N43 N 0.94017 0.99857 0.42817 0.0
C44 C 0.87958 0.04862 0.40872 0.0
C45 C 0.00091 0.94826 0.40986 0.0
C46 C 0.00339 0.94741 0.37045 0.0
C47 C 0.94123 0.99829 0.34948 0.0
C48 C 0.87821 0.0492 0.36925 0.0
Zn49 Zn 0.94216 -0.00088 0.48594 0.0
O50 O 0.7614 0.02542 0.54773 0.0
C51 C 0.02958 0.13285 0.51721 0.0
O52 O 0.75667 0.02538 0.48578 0.0
H53 H 0.04834 0.90886 0.42586 0.0
H54 H 0.84067 0.08943 0.60877 0.0
H55 H 0.83207 0.08822 0.42384 0.0
O56 O 0.00642 0.10298 0.5482 0.0
O57 O 0.00197 0.10302 0.48622 0.0
H58 H 0.0569 0.91006 0.61079 0.0
O59 O 0.12759 0.97286 0.48689 0.0
O60 O 0.13232 0.9729 0.54885 0.0
O61 O 0.88257 0.8953 0.48643 0.0
O62 O 0.88702 0.89526 0.54841 0.0
C63 C 0.18794 0.96963 0.51784 0.0
H64 H 0.834 0.09055 0.67794 0.0
H65 H 0.06174 0.90945 0.68015 0.0
H66 H 0.05502 0.90774 0.35669 0.0
H67 H 0.82724 0.08883 0.35448 0.0
C68 C 0.68784 0.52862 0.01783 0.0
N69 N 0.44013 0.49985 0.92817 0.0
C70 C 0.50084 0.55016 0.90982 0.0
C71 C 0.50338 0.55098 0.87041 0.0
C72 C 0.44134 0.50009 0.84948 0.0
C73 C 0.37827 0.4492 0.86929 0.0
C74 C 0.37958 0.44979 0.90876 0.0
Zn75 Zn 0.44213 0.49922 0.98593 0.0
C76 C 0.52949 0.36541 0.01723 0.0
N77 N 0.44872 0.49837 0.10645 0.0
C78 C 0.50929 0.54843 0.12586 0.0
C79 C 0.38801 0.44807 0.12481 0.0
C80 C 0.38548 0.44725 0.16422 0.0
C81 C 0.44754 0.49814 0.18515 0.0
C82 C 0.5106 0.54903 0.16533 0.0
Zn83 Zn 0.44672 0.499 0.04869 0.0
O84 O 0.6275 0.52548 0.98688 0.0
C85 C 0.35937 0.63282 0.01739 0.0
O86 O 0.63221 0.52525 0.04883 0.0
H87 H 0.34059 0.40867 0.10885 0.0
H88 H 0.54826 0.58955 0.92578 0.0
H89 H 0.55681 0.58802 0.11071 0.0
O90 O 0.38253 0.60305 0.9864 0.0
O91 O 0.38698 0.6029 0.04838 0.0
H92 H 0.33206 0.4102 0.92391 0.0
O93 O 0.26135 0.47274 0.04774 0.0
O94 O 0.25664 0.47297 0.98579 0.0
O95 O 0.50632 0.39517 0.04823 0.0
O96 O 0.50188 0.39533 0.98625 0.0
C97 C 0.20101 0.4696 0.01679 0.0
H98 H 0.55504 0.59063 0.85661 0.0
H99 H 0.32733 0.40955 0.85455 0.0
H100 H 0.33382 0.4076 0.17802 0.0
H101 H 0.56156 0.58867 0.18006 0.0
C102 C 0.20111 0.52864 0.51679 0.0
N103 N 0.44886 0.4997 0.60645 0.0
C104 C 0.38821 0.55002 0.62477 0.0
C105 C 0.38579 0.55087 0.66418 0.0
C106 C 0.4479 0.5 0.68515 0.0
C107 C 0.51089 0.44909 0.66537 0.0
C108 C 0.50947 0.44965 0.6259 0.0
Zn109 Zn 0.44682 0.49914 0.54869 0.0
C110 C 0.35946 0.36543 0.51742 0.0
N111 N 0.44017 0.49856 0.42817 0.0
C112 C 0.37955 0.5486 0.40872 0.0
C113 C 0.50081 0.44823 0.40985 0.0
C114 C 0.50321 0.44738 0.37045 0.0
C115 C 0.44108 0.49825 0.34947 0.0
C116 C 0.37811 0.54917 0.36925 0.0
Zn117 Zn 0.44222 0.49911 0.48593 0.0
O118 O 0.26146 0.5254 0.54774 0.0
C119 C 0.52958 0.63283 0.5172 0.0
O120 O 0.25673 0.52537 0.48579 0.0
H121 H 0.54826 0.40884 0.42585 0.0
H122 H 0.34077 0.58941 0.60878 0.0
H123 H 0.33207 0.58821 0.42385 0.0
O124 O 0.50642 0.60297 0.54819 0.0
O125 O 0.50196 0.60301 0.48621 0.0
H126 H 0.55696 0.41005 0.61078 0.0
O127 O 0.62758 0.47285 0.48688 0.0
O128 O 0.63231 0.47289 0.54884 0.0
O129 O 0.38262 0.39529 0.48643 0.0
O130 O 0.38708 0.39525 0.54841 0.0
C131 C 0.68793 0.46962 0.51783 0.0
H132 H 0.33417 0.59054 0.67794 0.0
H133 H 0.56188 0.40945 0.68014 0.0
H134 H 0.55481 0.4077 0.35668 0.0
H135 H 0.32711 0.5888 0.35449 0.0
C136 C 0.23933 0.72234 0.05151 0.0
C137 C 0.28126 0.69514 0.01737 0.0
H138 H 0.12511 0.7958 0.07832 0.0
C139 C 0.23516 0.72267 0.98318 0.0
H140 H 0.27128 0.70186 0.0784 0.0
C141 C 0.14963 0.77591 0.98313 0.0
C142 C 0.1077 0.80311 0.01727 0.0
H143 H 0.26385 0.70246 0.95632 0.0
H144 H 0.11768 0.79639 0.95624 0.0
C145 C 0.1538 0.77559 0.05146 0.0
C146 C 0.64959 0.27591 0.98312 0.0
C147 C 0.60763 0.30309 0.01726 0.0
H148 H 0.76386 0.20248 0.95631 0.0
C149 C 0.65374 0.27557 0.05145 0.0
H150 H 0.61764 0.29638 0.95623 0.0
C151 C 0.73931 0.22235 0.0515 0.0
C152 C 0.78126 0.19516 0.01736 0.0
H153 H 0.62503 0.29578 0.07831 0.0
H154 H 0.77126 0.20187 0.07839 0.0
C155 C 0.73516 0.22268 0.98317 0.0
C156 C 0.1537 0.22261 0.55144 0.0
C157 C 0.10772 0.19516 0.51724 0.0
H158 H 0.27111 0.29626 0.57841 0.0
C159 C 0.14979 0.22243 0.48312 0.0
H160 H 0.1249 0.20234 0.5783 0.0
C161 C 0.23534 0.27566 0.48319 0.0
C162 C 0.28132 0.30311 0.51739 0.0
H163 H 0.11793 0.20201 0.45622 0.0
H164 H 0.26415 0.29593 0.45633 0.0
C165 C 0.23926 0.27584 0.55152 0.0
C166 C 0.7353 0.77567 0.48318 0.0
C167 C 0.78128 0.80311 0.51738 0.0
H168 H 0.61791 0.70201 0.45621 0.0
C169 C 0.73922 0.77584 0.55151 0.0
H170 H 0.7641 0.79594 0.45633 0.0
C171 C 0.65368 0.7226 0.55144 0.0
C172 C 0.6077 0.69516 0.51724 0.0
H173 H 0.77107 0.79626 0.57841 0.0
H174 H 0.62488 0.70233 0.57829 0.0
C175 C 0.64976 0.72243 0.48311 0.0
C176 C 0.38628 0.00771 0.05169 0.0
C177 C 0.32123 0.01937 0.01765 0.0
H178 H 0.55597 0.98016 0.07812 0.0
C179 C 0.38094 0.01068 0.98328 0.0
H180 H 0.34256 0.01275 0.07866 0.0
C181 C 0.50272 0.99058 0.98294 0.0
C182 C 0.56778 0.97892 0.01698 0.0
H183 H 0.33304 0.01813 0.95651 0.0
H184 H 0.54644 0.98554 0.95597 0.0
C185 C 0.50807 0.98761 0.05135 0.0
C186 C 0.38627 0.99057 0.55169 0.0
C187 C 0.32122 0.97892 0.51767 0.0
H188 H 0.55596 0.01811 0.57811 0.0
C189 C 0.38093 0.98762 0.48329 0.0
H190 H 0.34256 0.98552 0.57867 0.0
C191 C 0.50271 0.00772 0.48294 0.0
C192 C 0.56777 0.01937 0.51696 0.0
H193 H 0.33303 0.98017 0.45652 0.0
H194 H 0.54643 0.01276 0.45596 0.0
C195 C 0.50806 0.01067 0.55134 0.0
C196 C 0.88614 0.50753 0.05169 0.0
C197 C 0.82112 0.51933 0.01766 0.0
H198 H 0.05586 0.47986 0.0781 0.0
C199 C 0.88086 0.51078 0.98328 0.0
H200 H 0.8424 0.51245 0.07867 0.0
C201 C 0.00271 0.49068 0.98294 0.0
C202 C 0.06773 0.47889 0.01696 0.0
H203 H 0.83299 0.51835 0.95652 0.0
H204 H 0.04645 0.48576 0.95596 0.0
C205 C 0.00799 0.48743 0.05134 0.0
C206 C 0.00277 0.50776 0.48294 0.0
C207 C 0.06783 0.51935 0.51697 0.0
H208 H 0.83301 0.48026 0.45651 0.0
C209 C 0.00812 0.51059 0.55135 0.0
H210 H 0.04648 0.51285 0.45596 0.0
C211 C 0.88627 0.4905 0.55169 0.0
C212 C 0.82121 0.4789 0.51766 0.0
H213 H 0.05602 0.518 0.57811 0.0
H214 H 0.84256 0.48541 0.57867 0.0
C215 C 0.88092 0.48766 0.48328 0.0
C216 C 0.9431 0.93632 0.28707 0.0
C217 C 0.94261 0.99831 0.30736 0.0
H218 H -0.05131 0.88746 0.23318 0.0
C219 C 0.94395 0.06029 0.28701 0.0
H220 H 0.94031 0.8875 0.30158 0.0
C221 C -0.05497 0.06027 0.24754 0.0
C222 C -0.05361 0.99827 0.22727 0.0
H223 H -0.0545 0.10912 0.30153 0.0
H224 H 0.94349 0.10908 0.23297 0.0
C225 C -0.05411 0.9363 0.24763 0.0
C226 C 0.94396 0.93802 0.78709 0.0
C227 C 0.94261 2e-05 0.80736 0.0
H228 H 0.94348 0.88917 0.7331 0.0
C229 C 0.94314 0.06199 0.787 0.0
H230 H -0.05451 0.88921 0.80166 0.0
C231 C -0.05408 0.06197 0.74756 0.0
C232 C -0.0536 -2e-05 0.72727 0.0
H233 H 0.94035 0.11083 0.80145 0.0
H234 H -0.05128 0.11079 0.73304 0.0
C235 C -0.05496 0.938 0.74761 0.0
C236 C 0.44286 0.43627 0.28707 0.0
C237 C 0.44239 0.49827 0.30735 0.0
H238 H 0.44835 0.38741 0.23318 0.0
C239 C 0.44373 0.56024 0.28701 0.0
H240 H 0.44007 0.38745 0.30158 0.0
C241 C 0.44474 0.56022 0.24753 0.0
C242 C 0.44609 0.49821 0.22727 0.0
H243 H 0.44523 0.60907 0.30152 0.0
H244 H 0.44325 0.60902 0.23296 0.0
C245 C 0.44557 0.43625 0.24763 0.0
C246 C 0.44521 0.438 0.74761 0.0
C247 C 0.44656 0.49997 0.72727 0.0
H248 H 0.44566 0.38921 0.80166 0.0
C249 C 0.44607 0.56197 0.74756 0.0
H250 H 0.44373 0.38917 0.7331 0.0
C251 C 0.44334 0.56199 0.787 0.0
C252 C 0.44281 0.50002 0.80736 0.0
H253 H 0.44887 0.61079 0.73305 0.0
H254 H 0.44054 0.61083 0.80145 0.0
C255 C 0.44418 0.43802 0.78709 0.0
loop_
_geom_bond_atom_site_label_1
_geom_bond_atom_site_label_2
_geom_bond_distance
_geom_bond_site_symmetry_2
_ccdc_geom_bond_type
C0 O16 1.251 1_554 S
C0 O18 1.254 . S
N1 C2 1.335 1_655 S
N1 C6 1.304 1_545 S
N1 Zn7 2.020 1_545 S
C2 N1 1.335 1_455 S
C2 C3 1.379 . S
C2 H20 0.952 . S
C3 C2 1.379 . S
C3 C4 1.390 1_455 S
C3 H30 0.949 . S
C4 C3 1.390 1_655 S
C4 C5 1.357 1_545 S
C5 C4 1.357 1_565 S
C5 C6 1.370 . S
C5 H31 0.950 . S
C6 N1 1.304 1_565 S
C6 C5 1.370 . S
C6 H24 0.948 . S
Zn7 N1 2.020 1_565 S
Zn7 O16 2.039 1_665 S
Zn7 O22 2.034 1_565 S
Zn7 O26 2.025 . S
Zn7 O28 2.024 1_655 S
C8 O27 1.246 . S
C8 O28 1.249 1_554 S
N9 C10 1.306 1_565 S
N9 C11 1.333 1_455 S
N9 Zn15 2.020 1_565 S
C10 N9 1.306 1_545 S
C10 C14 1.370 . S
C10 H21 0.948 . S
C11 N9 1.333 1_655 S
C11 C12 1.379 . S
C11 H19 0.952 . S
C12 C11 1.379 . S
C12 C13 1.390 1_655 S
C12 H32 0.949 . S
C13 C12 1.390 1_455 S
C13 C14 1.357 1_565 S
C14 C10 1.370 . S
C14 C13 1.357 1_545 S
C14 H33 0.950 . S
Zn15 N9 2.020 1_545 S
Zn15 O18 2.025 . S
Zn15 O23 2.024 1_455 S
Zn15 O25 2.039 1_445 S
Zn15 O27 2.034 1_545 S
O16 C0 1.251 1_556 S
O16 Zn7 2.039 1_445 S
C17 O22 1.246 1_554 S
C17 O23 1.249 . S
O18 C0 1.254 . S
O18 Zn15 2.025 . S
H19 C11 0.952 . S
H20 C2 0.952 . S
H21 C10 0.948 . S
O22 Zn7 2.034 1_545 S
O22 C17 1.246 1_556 S
O23 Zn15 2.024 1_655 S
O23 C17 1.249 . S
H24 C6 0.948 . S
O25 Zn15 2.039 1_665 S
O25 C29 1.251 . S
O26 Zn7 2.025 . S
O26 C29 1.254 1_556 S
O27 C8 1.246 . S
O27 Zn15 2.034 1_565 S
O28 Zn7 2.024 1_455 S
O28 C8 1.249 1_556 S
C29 O25 1.251 . S
C29 O26 1.254 1_554 S
H30 C3 0.949 . S
H31 C5 0.950 . S
H32 C12 0.949 . S
H33 C14 0.950 . S
C34 O50 1.251 . S
C34 O52 1.254 . S
N35 C36 1.335 1_455 S
N35 C40 1.304 1_545 S
N35 Zn41 2.020 1_545 S
C36 N35 1.335 1_655 S
C36 C37 1.379 . S
C36 H54 0.952 . S
C37 C36 1.379 . S
C37 C38 1.390 1_655 S
C37 H64 0.949 . S
C38 C37 1.390 1_455 S
C38 C39 1.357 1_545 S
C39 C38 1.357 1_565 S
C39 C40 1.370 . S
C39 H65 0.950 . S
C40 N35 1.304 1_565 S
C40 C39 1.370 . S
C40 H58 0.948 . S
Zn41 N35 2.020 1_565 S
Zn41 O50 2.039 1_465 S
Zn41 O56 2.034 1_565 S
Zn41 O60 2.025 . S
Zn41 O62 2.024 1_455 S
C42 O61 1.246 . S
C42 O62 1.249 . S
N43 C44 1.306 1_565 S
N43 C45 1.333 1_655 S
N43 Zn49 2.020 1_565 S
C44 N43 1.306 1_545 S
C44 C48 1.370 . S
C44 H55 0.948 . S
C45 N43 1.333 1_455 S
C45 C46 1.379 . S
C45 H53 0.952 . S
C46 C45 1.379 . S
C46 C47 1.390 1_455 S
C46 H66 0.949 . S
C47 C46 1.390 1_655 S
C47 C48 1.357 1_565 S
C48 C44 1.370 . S
C48 C47 1.357 1_545 S
C48 H67 0.950 . S
Zn49 N43 2.020 1_545 S
Zn49 O52 2.025 . S
Zn49 O57 2.024 1_655 S
Zn49 O59 2.039 1_645 S
Zn49 O61 2.034 1_545 S
O50 C34 1.251 . S
O50 Zn41 2.039 1_645 S
C51 O56 1.246 . S
C51 O57 1.249 . S
O52 C34 1.254 . S
O52 Zn49 2.025 . S
H53 C45 0.952 . S
H54 C36 0.952 . S
H55 C44 0.948 . S
O56 Zn41 2.034 1_545 S
O56 C51 1.246 . S
O57 Zn49 2.024 1_455 S
O57 C51 1.249 . S
H58 C40 0.948 . S
O59 Zn49 2.039 1_465 S
O59 C63 1.251 . S
O60 Zn41 2.025 . S
O60 C63 1.254 . S
O61 C42 1.246 . S
O61 Zn49 2.034 1_565 S
O62 Zn41 2.024 1_655 S
O62 C42 1.249 . S
C63 O59 1.251 . S
C63 O60 1.254 . S
H64 C37 0.949 . S
H65 C39 0.950 . S
H66 C46 0.949 . S
H67 C48 0.950 . S
C68 O84 1.251 1_554 S
C68 O86 1.254 . S
N69 C70 1.333 . S
N69 C74 1.307 . S
N69 Zn75 2.020 . S
C70 N69 1.333 . S
C70 C71 1.379 . S
C70 H88 0.952 . S
C71 C70 1.379 . S
C71 C72 1.390 . S
C71 H98 0.949 . S
C72 C71 1.390 . S
C72 C73 1.357 . S
C73 C72 1.357 . S
C73 C74 1.370 . S
C73 H99 0.950 . S
C74 N69 1.307 . S
C74 C73 1.370 . S
C74 H92 0.948 . S
Zn75 N69 2.020 . S
Zn75 O84 2.039 . S
Zn75 O90 2.034 . S
Zn75 O94 2.025 . S
Zn75 O96 2.024 . S
C76 O95 1.246 . S
C76 O96 1.249 1_554 S
N77 C78 1.307 . S
N77 C79 1.333 . S
N77 Zn83 2.020 . S
C78 N77 1.307 . S
C78 C82 1.370 . S
C78 H89 0.948 . S
C79 N77 1.333 . S
C79 C80 1.379 . S
C79 H87 0.952 . S
C80 C79 1.379 . S
C80 C81 1.390 . S
C80 H100 0.949 . S
C81 C80 1.390 . S
C81 C82 1.357 . S
C82 C78 1.370 . S
C82 C81 1.357 . S
C82 H101 0.950 . S
Zn83 N77 2.020 . S
Zn83 O86 2.025 . S
Zn83 O91 2.024 . S
Zn83 O93 2.039 . S
Zn83 O95 2.034 . S
O84 C68 1.251 1_556 S
O84 Zn75 2.039 . S
C85 O90 1.246 1_554 S
C85 O91 1.249 . S
O86 C68 1.254 . S
O86 Zn83 2.025 . S
H87 C79 0.952 . S
H88 C70 0.952 . S
H89 C78 0.948 . S
O90 Zn75 2.034 . S
O90 C85 1.246 1_556 S
O91 Zn83 2.024 . S
O91 C85 1.249 . S
H92 C74 0.948 . S
O93 Zn83 2.039 . S
O93 C97 1.251 . S
O94 Zn75 2.025 . S
O94 C97 1.254 1_556 S
O95 C76 1.246 . S
O95 Zn83 2.034 . S
O96 Zn75 2.024 . S
O96 C76 1.249 1_556 S
C97 O93 1.251 . S
C97 O94 1.254 1_554 S
H98 C71 0.949 . S
H99 C73 0.950 . S
H100 C80 0.949 . S
H101 C82 0.950 . S
C102 O118 1.251 . S
C102 O120 1.254 . S
N103 C104 1.333 . S
N103 C108 1.307 . S
N103 Zn109 2.020 . S
C104 N103 1.333 . S
C104 C105 1.379 . S
C104 H122 0.952 . S
C105 C104 1.379 . S
C105 C106 1.390 . S
C105 H132 0.949 . S
C106 C105 1.390 . S
C106 C107 1.357 . S
C107 C106 1.357 . S
C107 C108 1.370 . S
C107 H133 0.950 . S
C108 N103 1.307 . S
C108 C107 1.370 . S
C108 H126 0.948 . S
Zn109 N103 2.020 . S
Zn109 O118 2.039 . S
Zn109 O124 2.034 . S
Zn109 O128 2.025 . S
Zn109 O130 2.024 . S
C110 O129 1.246 . S
C110 O130 1.249 . S
N111 C112 1.307 . S
N111 C113 1.333 . S
N111 Zn117 2.020 . S
C112 N111 1.307 . S
C112 C116 1.370 . S
C112 H123 0.948 . S
C113 N111 1.333 . S
C113 C114 1.379 . S
C113 H121 0.952 . S
C114 C113 1.379 . S
C114 C115 1.390 . S
C114 H134 0.949 . S
C115 C114 1.390 . S
C115 C116 1.357 . S
C116 C112 1.370 . S
C116 C115 1.357 . S
C116 H135 0.950 . S
Zn117 N111 2.020 . S
Zn117 O120 2.025 . S
Zn117 O125 2.024 . S
Zn117 O127 2.039 . S
Zn117 O129 2.034 . S
O118 C102 1.251 . S
O118 Zn109 2.039 . S
C119 O124 1.246 . S
C119 O125 1.249 . S
O120 C102 1.254 . S
O120 Zn117 2.025 . S
H121 C113 0.952 . S
H122 C104 0.952 . S
H123 C112 0.948 . S
O124 Zn109 2.034 . S
O124 C119 1.246 . S
O125 Zn117 2.024 . S
O125 C119 1.249 . S
H126 C108 0.948 . S
O127 Zn117 2.039 . S
O127 C131 1.251 . S
O128 Zn109 2.025 . S
O128 C131 1.254 . S
O129 C110 1.246 . S
O129 Zn117 2.034 . S
O130 Zn109 2.024 . S
O130 C110 1.249 . S
C131 O127 1.251 . S
C131 O128 1.254 . S
H132 C105 0.949 . S
H133 C107 0.950 . S
H134 C114 0.949 . S
H135 C116 0.950 . S
C136 C137 1.402 . S
C136 H140 0.950 . S
C136 C145 1.390 . S
C137 C136 1.402 . S
C137 C139 1.374 1_554 S
H138 C145 0.950 . S
C139 C137 1.374 1_556 S
C139 C141 1.390 . S
C139 H143 0.950 . S
H140 C136 0.950 . S
C141 C139 1.390 . S
C141 C142 1.387 1_556 S
C141 H144 0.950 . S
C142 C141 1.387 1_554 S
C142 C145 1.387 . S
H143 C139 0.950 . S
H144 C141 0.950 . S
C145 C136 1.390 . S
C145 H138 0.950 . S
C145 C142 1.387 . S
C146 C147 1.387 1_556 S
C146 H150 0.950 . S
C146 C155 1.390 . S
C147 C146 1.387 1_554 S
C147 C149 1.387 . S
H148 C155 0.950 . S
C149 C147 1.387 . S
C149 C151 1.390 . S
C149 H153 0.950 . S
H150 C146 0.950 . S
C151 C149 1.390 . S
C151 C152 1.403 . S
C151 H154 0.950 . S
C152 C151 1.403 . S
C152 C155 1.373 1_554 S
H153 C149 0.950 . S
H154 C151 0.950 . S
C155 C146 1.390 . S
C155 H148 0.950 . S
C155 C152 1.373 1_556 S
C156 C157 1.387 . S
C156 H160 0.950 . S
C156 C165 1.390 . S
C157 C156 1.387 . S
C157 C159 1.387 . S
H158 C165 0.950 . S
C159 C157 1.387 . S
C159 C161 1.390 . S
C159 H163 0.950 . S
H160 C156 0.950 . S
C161 C159 1.390 . S
C161 C162 1.387 . S
C161 H164 0.950 . S
C162 C161 1.387 . S
C162 C165 1.387 . S
H163 C159 0.950 . S
H164 C161 0.950 . S
C165 C156 1.390 . S
C165 H158 0.950 . S
C165 C162 1.387 . S
C166 C167 1.387 . S
C166 H170 0.950 . S
C166 C175 1.390 . S
C167 C166 1.387 . S
C167 C169 1.387 . S
H168 C175 0.950 . S
C169 C167 1.387 . S
C169 C171 1.390 . S
C169 H173 0.950 . S
H170 C166 0.950 . S
C171 C169 1.390 . S
C171 C172 1.387 . S
C171 H174 0.950 . S
C172 C171 1.387 . S
C172 C175 1.387 . S
H173 C169 0.950 . S
H174 C171 0.950 . S
C175 C166 1.390 . S
C175 H168 0.950 . S
C175 C172 1.387 . S
C176 C177 1.409 . S
C176 H180 0.950 . S
C176 C185 1.390 1_545 S
C177 C176 1.409 . S
C177 C179 1.366 1_554 S
H178 C185 0.950 . S
C179 C177 1.366 1_556 S
C179 C181 1.390 1_545 S
C179 H183 0.950 . S
H180 C176 0.950 . S
C181 C179 1.390 1_565 S
C181 C182 1.387 1_556 S
C181 H184 0.950 . S
C182 C181 1.387 1_554 S
C182 C185 1.387 . S
H183 C179 0.950 . S
H184 C181 0.950 . S
C185 C176 1.390 1_565 S
C185 H178 0.950 . S
C185 C182 1.387 . S
C186 C187 1.387 . S
C186 H190 0.950 . S
C186 C195 1.390 1_565 S
C187 C186 1.387 . S
C187 C189 1.387 . S
H188 C195 0.950 . S
C189 C187 1.387 . S
C189 C191 1.390 1_565 S
C189 H193 0.950 . S
H190 C186 0.950 . S
C191 C189 1.390 1_545 S
C191 C192 1.387 . S
C191 H194 0.950 . S
C192 C191 1.387 . S
C192 C195 1.387 . S
H193 C189 0.950 . S
H194 C191 0.950 . S
C195 C186 1.390 1_545 S
C195 H188 0.950 . S
C195 C192 1.387 . S
C196 C197 1.409 . S
C196 H200 0.950 . S
C196 C205 1.390 1_655 S
C197 C196 1.409 . S
C197 C199 1.365 1_554 S
H198 C205 0.950 . S
C199 C197 1.365 1_556 S
C199 C201 1.390 1_655 S
C199 H203 0.950 . S
H200 C196 0.950 . S
C201 C199 1.390 1_455 S
C201 C202 1.387 1_556 S
C201 H204 0.950 . S
C202 C201 1.387 1_554 S
C202 C205 1.387 . S
H203 C199 0.950 . S
H204 C201 0.950 . S
C205 C196 1.390 1_455 S
C205 H198 0.950 . S
C205 C202 1.387 . S
C206 C207 1.387 . S
C206 H210 0.950 . S
C206 C215 1.390 1_455 S
C207 C206 1.387 . S
C207 C209 1.387 . S
H208 C215 0.950 . S
C209 C207 1.387 . S
C209 C211 1.390 1_455 S
C209 H213 0.950 . S
H210 C206 0.950 . S
C211 C209 1.390 1_655 S
C211 C212 1.387 . S
C211 H214 0.950 . S
C212 C211 1.387 . S
C212 C215 1.387 . S
H213 C209 0.950 . S
H214 C211 0.950 . S
C215 C206 1.390 1_655 S
C215 H208 0.950 . S
C215 C212 1.387 . S
C216 C217 1.387 . S
C216 H220 0.950 . S
C216 C225 1.390 1_455 S
C217 C216 1.387 . S
C217 C219 1.387 1_565 S
H218 C225 0.950 . S
C219 C217 1.387 1_545 S
C219 C221 1.390 1_455 S
C219 H223 0.950 . S
H220 C216 0.950 . S
C221 C219 1.390 1_655 S
C221 C222 1.387 1_545 S
C221 H224 0.950 . S
C222 C221 1.387 1_565 S
C222 C225 1.387 . S
H223 C219 0.950 . S
H224 C221 0.950 . S
C225 C216 1.390 1_655 S
C225 H218 0.950 . S
C225 C222 1.387 . S
C226 C227 1.387 1_665 S
C226 H230 0.950 . S
C226 C235 1.390 . S
C227 C226 1.387 1_445 S
C227 C229 1.387 . S
H228 C235 0.950 . S
C229 C227 1.387 . S
C229 C231 1.390 . S
C229 H233 0.950 . S
H230 C226 0.950 . S
C231 C229 1.390 . S
C231 C232 1.387 1_455 S
C231 H234 0.950 . S
C232 C231 1.387 1_655 S
C232 C235 1.387 1_545 S
H233 C229 0.950 . S
H234 C231 0.950 . S
C235 C226 1.390 . S
C235 H228 0.950 . S
C235 C232 1.387 1_565 S
C236 C237 1.387 . S
C236 H240 0.950 . S
C236 C245 1.390 . S
C237 C236 1.387 . S
C237 C239 1.387 . S
H238 C245 0.950 . S
C239 C237 1.387 . S
C239 C241 1.390 . S
C239 H243 0.950 . S
H240 C236 0.950 . S
C241 C239 1.390 . S
C241 C242 1.387 . S
C241 H244 0.950 . S
C242 C241 1.387 . S
C242 C245 1.387 . S
H243 C239 0.950 . S
H244 C241 0.950 . S
C245 C236 1.390 . S
C245 H238 0.950 . S
C245 C242 1.387 . S
C246 C247 1.387 . S
C246 H250 0.950 . S
C246 C255 1.390 . S
C247 C246 1.387 . S
C247 C249 1.387 . S
H248 C255 0.950 . S
C249 C247 1.387 . S
C249 C251 1.390 . S
C249 H253 0.950 . S
H250 C246 0.950 . S
C251 C249 1.390 . S
C251 C252 1.387 . S
C251 H254 0.950 . S
C252 C251 1.387 . S
C252 C255 1.387 . S
H253 C249 0.950 . S
H254 C251 0.950 . S
C255 C246 1.390 . S
C255 H248 0.950 . S
C255 C252 1.387 . S
C137 C85 1.615 . S
C142 C8 1.617 . S
C147 C76 1.617 . S
C152 C17 1.616 . S
C157 C51 1.617 . S
C162 C110 1.615 . S
C167 C42 1.615 . S
C172 C119 1.617 . S
C177 C0 1.054 . S
C182 C29 1.052 . S
C187 C63 1.048 . S
C192 C34 1.048 . S
C197 C68 1.054 . S
C202 C97 1.052 . S
C207 C102 1.052 . S
C212 C131 1.052 . S
C217 C47 1.499 1_455 S
C222 C13 1.499 1_655 S
C227 C4 1.499 1_455 S
C232 C38 1.499 1_655 S
C237 C115 1.499 . S
C242 C81 1.499 . S
C247 C106 1.499 . S
C252 C72 1.499 . S
