# Generated by pormake.
# Topology snp, (6)-cn, num edge types: 1
# Building blocks:
#     Node 0, Type 0, BuildingBlock: GEDQOX_clean_sbu_0, # of connection points: 6
#     Node 1, Type 0, BuildingBlock: GEDQOX_clean_sbu_0, # of connection points: 6
#     Node 2, Type 0, BuildingBlock: GEDQOX_clean_sbu_0, # of connection points: 6
#     Node 3, Type 0, BuildingBlock: GEDQOX_clean_sbu_0, # of connection points: 6
#     Edge 4, Type (0, 0), None
#     Edge 5, Type (0, 0), None
#     Edge 6, Type (0, 0), None
#     Edge 7, Type (0, 0), None
#     Edge 8, Type (0, 0), None
#     Edge 9, Type (0, 0), None
#     Edge 10, Type (0, 0), None
#     Edge 11, Type (0, 0), None
#     Edge 12, Type (0, 0), None
#     Edge 13, Type (0, 0), None
#     Edge 14, Type (0, 0), None
#     Edge 15, Type (0, 0), None
# Relax obj value: 0.339
# Max RMSD: 0.316
# Mean RMSD: 0.295
data_MOF--net-snp--node1-GEDQOX_clean_sbu_0--edge1-none
_symmetry_space_group_name_H-M    P1
_symmetry_Int_Tables_number       1
_symmetry_cell_setting            triclinic
loop_
_symmetry_equiv_pos_as_xyz
'x, y, z'
_cell_length_a     11.872592
_cell_length_b     12.04878
_cell_length_c     19.636438
_cell_angle_alpha  74.315891
_cell_angle_beta   110.68352
_cell_angle_gamma 98.875771
loop_
_atom_site_label
_atom_site_type_symbol
_atom_site_fract_x
_atom_site_fract_y
_atom_site_fract_z
_atom_type_partial_charge
Nd0 Nd 0.33827 0.90958 0.19231 0.0
Nd1 Nd 0.38591 0.16602 0.20309 0.0
C2 C 0.32974 0.71082 0.15923 0.0
C3 C 0.32665 0.68776 0.08914 0.0
C4 C 0.39425 0.76149 1.04692 0.0
C5 C 0.36356 0.76614 0.97096 0.0
C6 C 0.26379 0.69843 0.93602 0.0
C7 C 0.20315 0.6173 0.97977 0.0
C8 C 0.23483 0.61175 1.05605 0.0
C9 C 0.16969 -0.01719 0.23054 0.0
C10 C 0.29192 0.12384 1.03527 0.0
C11 C 0.39222 0.36813 0.2314 0.0
C12 C 0.43426 0.39314 0.30672 0.0
C13 C 0.36284 0.45364 0.32624 0.0
C14 C 0.38787 0.45623 0.40119 0.0
C15 C 0.4849 0.39801 0.45851 0.0
C16 C 0.55946 0.34203 0.43812 0.0
C17 C 0.53424 0.33926 0.36332 0.0
C18 C 0.58295 0.04567 0.23161 0.0
C19 C 0.43171 -0.03135 0.35569 0.0
O20 O 0.43054 0.7595 0.19735 0.0
O21 O 0.23339 0.75814 0.15308 0.0
O22 O 0.20379 0.87826 0.25549 0.0
O23 O 0.21789 0.04357 0.18295 0.0
O24 O 0.28192 0.01145 1.06648 0.0
O25 O 0.33041 0.20284 1.07524 0.0
O26 O 0.29349 0.30012 0.21773 0.0
O27 O 0.47421 0.34147 0.20883 0.0
O28 O 0.58349 0.11884 0.26945 0.0
O29 O 0.48441 0.0426 0.1802 0.0
O30 O 0.39013 0.07048 0.31953 0.0
O31 O 0.4407 0.8934 0.31959 0.0
H32 H 0.46454 0.8222 1.07095 0.0
H33 H 0.41261 0.82877 0.93881 0.0
H34 H 0.12689 0.56276 0.95443 0.0
H35 H 0.18106 0.55514 0.08768 0.0
H36 H 0.28387 0.49381 0.28404 0.0
H37 H 0.32708 0.49884 0.41449 0.0
H38 H 0.63562 0.29748 0.48025 0.0
H39 H 0.58993 0.29017 0.35038 0.0
Nd40 Nd 0.27523 0.25974 0.78519 0.0
Nd41 Nd 1.0174 0.22229 0.79436 0.0
C42 C 0.47905 0.34045 0.75997 0.0
C43 C 0.50428 0.36124 0.68812 0.0
C44 C 0.48007 0.46763 0.63554 0.0
C45 C 0.4785 0.48104 0.56212 0.0
C46 C 0.5024 0.38878 0.53921 0.0
C47 C 0.53515 0.28477 0.5933 0.0
C48 C 0.53583 0.27108 0.66671 0.0
C49 C 0.15834 0.05811 0.75187 0.0
C50 C 1.0398 0.28635 0.63271 0.0
C51 C 0.81528 0.1779 0.82722 0.0
C52 C 0.78999 0.13125 0.89822 0.0
C53 C 0.82868 0.02326 0.94283 0.0
C54 C 0.83209 -0.00833 1.01699 0.0
C55 C 0.7996 0.0684 1.04899 0.0
C56 C 0.75226 0.17292 1.00293 0.0
C57 C 0.7461 0.20333 0.92767 0.0
C58 C 0.10216 0.44711 0.75737 0.0
C59 C 0.24712 0.16351 0.95239 0.0
O60 O 0.40208 0.40749 0.76022 0.0
O61 O 0.46142 0.23243 0.79382 0.0
O62 O 0.23296 0.11923 0.71973 0.0
O63 O 0.15148 0.09949 0.80305 0.0
O64 O 0.14977 0.32916 0.66481 0.0
O65 O 0.97483 0.22018 0.67256 0.0
O66 O 0.85345 0.10758 0.80038 0.0
O67 O 0.87606 0.27807 0.82375 0.0
O68 O 0.99302 0.40998 0.72582 0.0
O69 O 0.16159 0.36774 0.8074 0.0
O70 O 0.12901 0.16105 0.91901 0.0
O71 O 0.3243 0.20205 0.91465 0.0
H72 H 0.45625 0.53915 0.65009 0.0
H73 H 0.45526 0.56299 0.52266 0.0
H74 H 0.55424 0.21151 0.57812 0.0
H75 H 0.5553 0.18787 0.70552 0.0
H76 H 0.86301 -0.03438 0.92203 0.0
H77 H 0.86705 0.90904 1.05014 0.0
H78 H 0.72429 0.23261 1.02547 0.0
H79 H 0.71373 0.28625 0.89357 0.0
Nd80 Nd 0.87025 0.84126 0.28336 0.0
Nd81 Nd 0.9178 0.09759 0.29427 0.0
C82 C 0.86448 0.63921 0.25513 0.0
C83 C 0.82237 0.61411 0.17983 0.0
C84 C 0.89397 0.55394 0.16024 0.0
C85 C 0.86888 0.55139 0.08527 0.0
C86 C 0.77157 0.60932 1.02801 0.0
C87 C 0.69683 0.66493 1.0485 0.0
C88 C 0.72213 0.66767 0.12331 0.0
C89 C 0.67304 -0.03906 0.25518 0.0
C90 C 0.82371 0.03868 0.13078 0.0
C91 C 0.92632 0.29633 0.32737 0.0
C92 C 0.92925 0.31924 0.39745 0.0
C93 C 0.86187 0.24519 0.4397 0.0
C94 C 0.89253 0.24047 0.51567 0.0
C95 C 0.99205 0.30846 0.55058 0.0
C96 C 1.05242 0.38989 0.5068 0.0
C97 C 1.02078 0.39549 0.43052 0.0
C98 C 0.08598 0.02425 0.25562 0.0
C99 C 0.96439 0.88331 0.45125 0.0
O100 O 0.963 0.70751 0.26864 0.0
O101 O 0.78248 0.66559 0.2778 0.0
O102 O 0.6725 0.88773 0.21736 0.0
O103 O 0.7717 -0.03542 0.30644 0.0
O104 O 0.86532 -0.06316 0.16682 0.0
O105 O 0.81499 0.11388 0.167 0.0
O106 O 0.82554 0.24771 0.28917 0.0
O107 O 1.0227 0.24899 0.33356 0.0
O108 O 1.05187 0.12881 0.23068 0.0
O109 O 1.03816 -0.03611 0.30347 0.0
O110 O 0.97424 -0.00428 0.42008 0.0
O111 O 0.92595 0.80436 0.41124 0.0
H112 H 0.97314 0.51401 0.20237 0.0
H113 H 0.9298 0.50906 1.07191 0.0
H114 H 0.62046 0.70923 1.00642 0.0
H115 H 0.66629 0.71651 0.13631 0.0
H116 H 0.79182 0.18429 0.41569 0.0
H117 H 0.84371 0.1776 0.54786 0.0
H118 H 0.12846 0.44464 0.53212 0.0
H119 H 0.07438 0.45235 0.39887 0.0
Nd120 Nd 0.23869 0.78501 0.69229 0.0
Nd121 Nd 0.98086 0.74772 0.70126 0.0
C122 C 0.44075 0.82992 0.6594 0.0
C123 C 0.46576 0.87654 0.5883 0.0
C124 C 0.42644 -0.01573 0.54354 0.0
C125 C 0.42281 0.0157 0.46934 0.0
C126 C 0.45572 -0.06092 0.43746 0.0
C127 C 0.5036 0.83484 0.48365 0.0
C128 C 0.50995 0.80458 0.55894 0.0
C129 C 0.15421 0.56021 0.72905 0.0
C130 C 1.00912 0.84362 0.53413 0.0
C131 C 0.77692 0.6674 0.7264 0.0
C132 C 0.75184 0.64638 0.79832 0.0
C133 C 0.77656 0.54007 0.85093 0.0
C134 C 0.77825 0.52656 0.92438 0.0
C135 C 0.75395 0.61862 0.94729 0.0
C136 C 0.72069 0.72251 0.89319 0.0
C137 C 0.71989 0.73631 0.81974 0.0
C138 C 0.09833 -0.05083 0.73484 0.0
C139 C 0.21613 0.72057 0.85388 0.0
O140 O 0.40232 0.90016 0.68616 0.0
O141 O 0.38038 0.72955 0.66307 0.0
O142 O 0.26335 0.59735 0.76058 0.0
O143 O 0.09438 0.6395 0.67916 0.0
O144 O 0.12722 0.84583 0.56756 0.0
O145 O 0.93187 0.80545 0.57183 0.0
O146 O 0.85355 0.60022 0.72591 0.0
O147 O 0.79488 0.77547 0.69278 0.0
O148 O 1.02387 0.88797 0.76709 0.0
O149 O 0.10451 0.90791 0.68346 0.0
O150 O 0.10614 0.67788 0.82167 0.0
O151 O 0.28117 0.7868 0.81412 0.0
H152 H 0.39184 0.0418 0.56427 0.0
H153 H 0.38739 0.09812 0.43608 0.0
H154 H 0.5319 0.77525 0.4612 0.0
H155 H 0.54272 0.72185 0.59313 0.0
H156 H 0.8007 0.46872 0.83638 0.0
H157 H 0.8019 0.4447 0.96386 0.0
H158 H 0.70128 0.79561 0.90837 0.0
H159 H 0.70002 0.81944 0.78091 0.0
loop_
_geom_bond_atom_site_label_1
_geom_bond_atom_site_label_2
_geom_bond_distance
_geom_bond_site_symmetry_2
_ccdc_geom_bond_type
Nd0 C2 2.836 1_554 S
Nd0 O20 2.500 1_554 S
Nd0 O21 2.492 1_554 S
Nd0 O22 2.487 1_565 S
Nd0 O23 2.682 1_565 S
Nd0 O24 2.410 1_564 S
Nd0 O29 2.414 1_565 S
Nd0 O31 2.424 . S
Nd1 C11 2.836 . S
Nd1 O23 2.414 . S
Nd1 O25 2.424 . S
Nd1 O26 2.500 . S
Nd1 O27 2.492 . S
Nd1 O28 2.487 . S
Nd1 O29 2.682 . S
Nd1 O30 2.410 . S
C2 Nd0 2.836 1_556 S
C2 C3 1.498 . S
C2 O20 1.258 . S
C2 O21 1.239 . S
C3 C2 1.498 . S
C3 C4 1.366 . S
C3 C8 1.407 . S
C4 C3 1.366 . S
C4 C5 1.392 . S
C4 H32 0.930 . S
C5 C4 1.392 . S
C5 C6 1.398 . S
C5 H33 0.929 . S
C6 C5 1.398 . S
C6 C7 1.352 . S
C7 C6 1.352 . S
C7 C8 1.384 . S
C7 H34 0.930 1_455 S
C8 C3 1.407 . S
C8 C7 1.384 . S
C8 H35 0.929 1_455 S
C9 O22 1.241 . S
C9 O23 1.273 . S
C10 O24 1.251 . S
C10 O25 1.268 1_556 S
C11 Nd1 2.836 . S
C11 C12 1.498 . S
C11 O26 1.258 . S
C11 O27 1.239 . S
C12 C11 1.498 . S
C12 C13 1.366 . S
C12 C17 1.407 . S
C13 C12 1.366 . S
C13 C14 1.392 . S
C13 H36 0.930 . S
C14 C13 1.392 . S
C14 C15 1.398 . S
C14 H37 0.929 . S
C15 C14 1.398 . S
C15 C16 1.352 . S
C16 C15 1.352 . S
C16 C17 1.384 . S
C16 H38 0.930 . S
C17 C12 1.407 . S
C17 C16 1.384 . S
C17 H39 0.929 . S
C18 O28 1.241 . S
C18 O29 1.273 . S
C19 O30 1.251 1_565 S
C19 O31 1.268 . S
O20 Nd0 2.500 1_556 S
O20 C2 1.258 . S
O21 Nd0 2.492 1_556 S
O21 C2 1.239 . S
O22 Nd0 2.487 1_545 S
O22 C9 1.241 . S
O23 Nd0 2.682 1_545 S
O23 Nd1 2.414 . S
O23 C9 1.273 . S
O24 Nd0 2.410 1_546 S
O24 C10 1.251 . S
O25 Nd1 2.424 . S
O25 C10 1.268 1_554 S
O26 Nd1 2.500 . S
O26 C11 1.258 . S
O27 Nd1 2.492 . S
O27 C11 1.239 . S
O28 Nd1 2.487 . S
O28 C18 1.241 . S
O29 Nd0 2.414 1_545 S
O29 Nd1 2.682 . S
O29 C18 1.273 . S
O30 Nd1 2.410 . S
O30 C19 1.251 1_545 S
O31 Nd0 2.424 . S
O31 C19 1.268 . S
H32 C4 0.930 . S
H33 C5 0.929 . S
H34 C7 0.930 1_655 S
H35 C8 0.929 1_655 S
H36 C13 0.930 . S
H37 C14 0.929 . S
H38 C16 0.930 . S
H39 C17 0.929 . S
Nd40 C42 2.836 . S
Nd40 O60 2.500 . S
Nd40 O61 2.492 . S
Nd40 O62 2.487 . S
Nd40 O63 2.682 . S
Nd40 O64 2.410 . S
Nd40 O69 2.414 . S
Nd40 O71 2.424 . S
Nd41 C51 2.836 . S
Nd41 O63 2.414 1_655 S
Nd41 O65 2.424 . S
Nd41 O66 2.500 . S
Nd41 O67 2.492 . S
Nd41 O68 2.487 1_655 S
Nd41 O69 2.682 1_655 S
Nd41 O70 2.410 1_655 S
C42 Nd40 2.836 . S
C42 C43 1.498 . S
C42 O60 1.258 . S
C42 O61 1.239 . S
C43 C42 1.498 . S
C43 C44 1.366 . S
C43 C48 1.407 . S
C44 C43 1.366 . S
C44 C45 1.392 . S
C44 H72 0.930 . S
C45 C44 1.392 . S
C45 C46 1.398 . S
C45 H73 0.929 . S
C46 C45 1.398 . S
C46 C47 1.352 . S
C47 C46 1.352 . S
C47 C48 1.384 . S
C47 H74 0.930 . S
C48 C43 1.407 . S
C48 C47 1.384 . S
C48 H75 0.929 . S
C49 O62 1.241 . S
C49 O63 1.273 . S
C50 O64 1.248 1_655 S
C50 O65 1.271 . S
C51 Nd41 2.836 . S
C51 C52 1.498 . S
C51 O66 1.258 . S
C51 O67 1.239 . S
C52 C51 1.498 . S
C52 C53 1.366 . S
C52 C57 1.407 . S
C53 C52 1.366 . S
C53 C54 1.392 1_556 S
C53 H76 0.930 . S
C54 C53 1.392 1_554 S
C54 C55 1.398 . S
C54 H77 0.929 1_545 S
C55 C54 1.398 . S
C55 C56 1.352 1_554 S
C56 C55 1.352 1_556 S
C56 C57 1.384 . S
C56 H78 0.930 . S
C57 C52 1.407 . S
C57 C56 1.384 . S
C57 H79 0.929 . S
C58 O68 1.241 . S
C58 O69 1.273 . S
C59 O70 1.251 . S
C59 O71 1.268 . S
O60 Nd40 2.500 . S
O60 C42 1.258 . S
O61 Nd40 2.492 . S
O61 C42 1.239 . S
O62 Nd40 2.487 . S
O62 C49 1.241 . S
O63 Nd40 2.682 . S
O63 Nd41 2.414 1_455 S
O63 C49 1.273 . S
O64 Nd40 2.410 . S
O64 C50 1.248 1_455 S
O65 Nd41 2.424 . S
O65 C50 1.271 . S
O66 Nd41 2.500 . S
O66 C51 1.258 . S
O67 Nd41 2.492 . S
O67 C51 1.239 . S
O68 Nd41 2.487 1_455 S
O68 C58 1.241 . S
O69 Nd40 2.414 . S
O69 Nd41 2.682 1_455 S
O69 C58 1.273 . S
O70 Nd41 2.410 1_455 S
O70 C59 1.251 . S
O71 Nd40 2.424 . S
O71 C59 1.268 . S
H72 C44 0.930 . S
H73 C45 0.929 . S
H74 C47 0.930 . S
H75 C48 0.929 . S
H76 C53 0.930 . S
H77 C54 0.929 1_565 S
H78 C56 0.930 . S
H79 C57 0.929 . S
Nd80 C82 2.836 . S
Nd80 O100 2.500 . S
Nd80 O101 2.492 . S
Nd80 O102 2.487 . S
Nd80 O103 2.682 1_565 S
Nd80 O104 2.410 1_565 S
Nd80 O109 2.414 1_565 S
Nd80 O111 2.424 . S
Nd81 C91 2.836 . S
Nd81 O103 2.414 . S
Nd81 O105 2.424 . S
Nd81 O106 2.500 . S
Nd81 O107 2.492 1_655 S
Nd81 O108 2.487 1_655 S
Nd81 O109 2.682 . S
Nd81 O110 2.407 1_545 S
C82 Nd80 2.836 . S
C82 C83 1.498 . S
C82 O100 1.258 . S
C82 O101 1.239 . S
C83 C82 1.498 . S
C83 C84 1.366 1_554 S
C83 C88 1.407 1_554 S
C84 C83 1.366 1_556 S
C84 C85 1.392 . S
C84 H112 0.930 1_556 S
C85 C84 1.392 . S
C85 C86 1.398 . S
C85 H113 0.929 . S
C86 C85 1.398 . S
C86 C87 1.352 . S
C87 C86 1.352 . S
C87 C88 1.384 . S
C87 H114 0.930 . S
C88 C83 1.407 1_556 S
C88 C87 1.384 . S
C88 H115 0.929 . S
C89 O102 1.241 . S
C89 O103 1.273 1_565 S
C90 O104 1.251 . S
C90 O105 1.268 . S
C91 Nd81 2.836 . S
C91 C92 1.498 . S
C91 O106 1.258 . S
C91 O107 1.239 1_655 S
C92 C91 1.498 . S
C92 C93 1.366 . S
C92 C97 1.407 1_655 S
C93 C92 1.366 . S
C93 C94 1.392 . S
C93 H116 0.930 . S
C94 C93 1.392 . S
C94 C95 1.398 1_655 S
C94 H117 0.929 . S
C95 C94 1.398 1_455 S
C95 C96 1.352 . S
C96 C95 1.352 . S
C96 C97 1.384 . S
C96 H118 0.930 . S
C97 C92 1.407 1_455 S
C97 C96 1.384 . S
C97 H119 0.929 . S
C98 O108 1.241 . S
C98 O109 1.273 1_455 S
C99 O110 1.254 . S
C99 O111 1.268 . S
O100 Nd80 2.500 . S
O100 C82 1.258 . S
O101 Nd80 2.492 . S
O101 C82 1.239 . S
O102 Nd80 2.487 . S
O102 C89 1.241 . S
O103 Nd80 2.682 1_545 S
O103 Nd81 2.414 . S
O103 C89 1.273 1_545 S
O104 Nd80 2.410 1_545 S
O104 C90 1.251 . S
O105 Nd81 2.424 . S
O105 C90 1.268 . S
O106 Nd81 2.500 . S
O106 C91 1.258 . S
O107 Nd81 2.492 1_455 S
O107 C91 1.239 1_455 S
O108 Nd81 2.487 1_455 S
O108 C98 1.241 . S
O109 Nd80 2.414 1_545 S
O109 Nd81 2.682 . S
O109 C98 1.273 1_655 S
O110 Nd81 2.407 1_565 S
O110 C99 1.254 . S
O111 Nd80 2.424 . S
O111 C99 1.268 . S
H112 C84 0.930 1_554 S
H113 C85 0.929 . S
H114 C87 0.930 . S
H115 C88 0.929 . S
H116 C93 0.930 . S
H117 C94 0.929 . S
H118 C96 0.930 . S
H119 C97 0.929 . S
Nd120 C122 2.836 . S
Nd120 O140 2.500 . S
Nd120 O141 2.492 . S
Nd120 O142 2.487 . S
Nd120 O143 2.682 1_455 S
Nd120 O144 2.410 1_455 S
Nd120 O149 2.414 . S
Nd120 O151 2.424 . S
Nd121 C131 2.836 . S
Nd121 O143 2.414 . S
Nd121 O145 2.424 . S
Nd121 O146 2.500 . S
Nd121 O147 2.492 . S
Nd121 O148 2.487 1_565 S
Nd121 O149 2.682 1_655 S
Nd121 O150 2.410 1_655 S
C122 Nd120 2.836 . S
C122 C123 1.498 . S
C122 O140 1.258 . S
C122 O141 1.239 . S
C123 C122 1.498 . S
C123 C124 1.366 1_565 S
C123 C128 1.407 . S
C124 C123 1.366 1_545 S
C124 C125 1.392 . S
C124 H152 0.930 . S
C125 C124 1.392 . S
C125 C126 1.403 . S
C125 H153 0.929 . S
C126 C125 1.403 . S
C126 C127 1.348 1_545 S
C127 C126 1.348 1_565 S
C127 C128 1.384 . S
C127 H154 0.930 . S
C128 C123 1.407 . S
C128 C127 1.384 . S
C128 H155 0.929 . S
C129 O142 1.241 . S
C129 O143 1.273 1_455 S
C130 O144 1.251 . S
C130 O145 1.268 . S
C131 Nd121 2.836 . S
C131 C132 1.498 . S
C131 O146 1.258 . S
C131 O147 1.239 . S
C132 C131 1.498 . S
C132 C133 1.366 . S
C132 C137 1.407 . S
C133 C132 1.366 . S
C133 C134 1.392 . S
C133 H156 0.930 . S
C134 C133 1.392 . S
C134 C135 1.398 . S
C134 H157 0.929 . S
C135 C134 1.398 . S
C135 C136 1.352 . S
C136 C135 1.352 . S
C136 C137 1.384 . S
C136 H158 0.930 . S
C137 C132 1.407 . S
C137 C136 1.384 . S
C137 H159 0.929 . S
C138 O148 1.241 . S
C138 O149 1.273 1_645 S
C139 O150 1.251 . S
C139 O151 1.268 . S
O140 Nd120 2.500 . S
O140 C122 1.258 . S
O141 Nd120 2.492 . S
O141 C122 1.239 . S
O142 Nd120 2.487 . S
O142 C129 1.241 . S
O143 Nd120 2.682 1_655 S
O143 Nd121 2.414 . S
O143 C129 1.273 1_655 S
O144 Nd120 2.410 1_655 S
O144 C130 1.251 . S
O145 Nd121 2.424 . S
O145 C130 1.268 . S
O146 Nd121 2.500 . S
O146 C131 1.258 . S
O147 Nd121 2.492 . S
O147 C131 1.239 . S
O148 Nd121 2.487 1_545 S
O148 C138 1.241 . S
O149 Nd120 2.414 . S
O149 Nd121 2.682 1_455 S
O149 C138 1.273 1_465 S
O150 Nd121 2.410 1_455 S
O150 C139 1.251 . S
O151 Nd120 2.424 . S
O151 C139 1.268 . S
H152 C124 0.930 . S
H153 C125 0.929 . S
H154 C127 0.930 . S
H155 C128 0.929 . S
H156 C133 0.930 . S
H157 C134 0.929 . S
H158 C136 0.930 . S
H159 C137 0.929 . S
C98 C9 3.873 . S
C138 C49 4.106 1_655 S
C89 C18 1.832 1_565 S
C58 C129 1.885 . S
C46 C15 1.081 . S
C55 C90 1.900 . S
C130 C99 2.736 . S
C139 C6 1.535 . S
C86 C135 1.080 . S
C19 C126 1.898 1_565 S
C59 C10 2.736 . S
C95 C50 1.533 1_455 S
