# Generated by pormake.
# Topology hex, (8)-cn, num edge types: 1
# Building blocks:
#     Node 0, Type 0, BuildingBlock: VETTIZ_charged_sbu_0, # of connection points: 8
#     Edge 1, Type (0, 0), BuildingBlock: AJUNOK_clean_linker_0, # of connection points: 2
#     Edge 2, Type (0, 0), BuildingBlock: AJUNOK_clean_linker_0, # of connection points: 2
#     Edge 3, Type (0, 0), BuildingBlock: AJUNOK_clean_linker_0, # of connection points: 2
#     Edge 4, Type (0, 0), BuildingBlock: AJUNOK_clean_linker_0, # of connection points: 2
# Relax obj value: 0.198
# Max RMSD: 0.293
# Mean RMSD: 0.293
data_MOF--net-hex--node1-VETTIZ_charged_sbu_0--edge1-AJUNOK_clean_linker_0
_symmetry_space_group_name_H-M    P1
_symmetry_Int_Tables_number       1
_symmetry_cell_setting            triclinic
loop_
_symmetry_equiv_pos_as_xyz
'x, y, z'
_cell_length_a     12.433713
_cell_length_b     13.086328
_cell_length_c     13.826916
_cell_angle_alpha  80.854083
_cell_angle_beta   97.746748
_cell_angle_gamma 128.18392
loop_
_atom_site_label
_atom_site_type_symbol
_atom_site_fract_x
_atom_site_fract_y
_atom_site_fract_z
_atom_type_partial_charge
Fe0 Fe 0.06515 0.85256 0.16566 0.0
O1 O 0.13363 1.01136 0.05957 0.0
Fe2 Fe 1.0321 0.09943 0.0714 0.0
Fe3 Fe 0.19273 0.05415 0.91133 0.0
O4 O 0.07809 0.98064 0.06743 0.0
O5 O 0.06576 0.11774 0.92783 0.0
O6 O 0.06113 0.09733 0.92091 0.0
Fe7 Fe 0.06861 0.2454 0.8378 0.0
C8 C 0.32761 0.98616 0.08333 0.0
O9 O 1.01327 0.73971 0.05985 0.0
O10 O 0.05571 0.84711 0.90599 0.0
O11 O 0.85983 0.1406 0.87037 0.0
O12 O 0.83193 1.00768 0.01074 0.0
O13 O 0.8403 0.91845 0.05584 0.0
O14 O 0.8608 0.77929 0.16072 0.0
O15 O 0.16016 0.07847 0.75859 0.0
O16 O 1.02229 0.14087 0.72327 0.0
C17 C 0.79544 0.80146 0.09181 0.0
O18 O 0.13417 0.35187 0.9525 0.0
O19 O 0.98615 0.23181 0.06462 0.0
O20 O 0.26559 0.9102 0.15946 0.0
O21 O 0.28971 0.05485 0.04754 0.0
C22 C 1.00644 0.74276 0.96693 0.0
C23 C 0.0844 0.0993 0.69874 0.0
C24 C 0.35914 0.35435 0.88214 0.0
O25 O 0.33625 0.2498 0.92397 0.0
O26 O 0.27594 0.35282 0.8161 0.0
C27 C 0.78481 0.05113 0.93981 0.0
O28 O 1.00178 0.05778 0.22077 0.0
O29 O 0.11306 0.97039 0.27244 0.0
C30 C 1.04892 0.33502 0.00491 0.0
C31 C 0.05888 1.02358 0.28869 0.0
C32 C 0.09579 0.5392 0.91461 0.0
C33 C 1.01294 0.42611 0.98007 0.0
C34 C 0.07545 0.63454 0.89309 0.0
C35 C 0.97228 0.62196 0.93695 0.0
H36 H 0.1831 0.55894 0.88352 0.0
H37 H 0.15171 0.72558 0.85195 0.0
S38 S 0.70751 0.33325 0.09466 0.0
N39 N 0.80871 0.29787 0.07447 0.0
N40 N 0.76979 0.47717 0.03349 0.0
C41 C 0.8776 0.50194 0.9918 0.0
C42 C 0.89924 0.40504 0.01485 0.0
C43 C 0.57011 0.91722 0.03405 0.0
C44 C 0.64603 1.01101 0.95506 0.0
C45 C 0.46397 0.90589 0.07255 0.0
C46 C 0.42646 0.9858 0.03275 0.0
H47 H 0.59799 0.85706 0.07151 0.0
H48 H 0.41516 0.83779 0.13664 0.0
S49 S 0.56943 0.22516 0.81132 0.0
N50 N 0.66065 0.1708 0.82934 0.0
N51 N 0.45772 0.14549 0.89817 0.0
C52 C 0.49061 0.06912 0.94685 0.0
C53 C 0.60057 0.08231 0.90859 0.0
C54 C 0.48036 0.46167 0.03583 0.0
C55 C 0.46487 0.47343 0.9323 0.0
C56 C 0.58457 0.56832 0.08753 0.0
C57 C 0.6774 0.69147 0.03792 0.0
H58 H 0.41174 0.36828 0.07761 0.0
H59 H 0.59347 0.55381 0.16669 0.0
S60 S 0.68795 0.77176 0.76674 0.0
N61 N 0.55316 0.61666 0.7823 0.0
N62 N 0.75236 0.8167 0.87795 0.0
C63 C 0.66316 0.70452 0.93414 0.0
C64 C 0.55587 0.59584 0.88174 0.0
C65 C 0.11456 1.00992 0.56634 0.0
C66 C 0.07228 0.0786 0.59386 0.0
C67 C 0.10937 0.99287 0.46801 0.0
C68 C 0.06192 0.04394 0.39225 0.0
H69 H 0.15226 0.96859 0.62114 0.0
H70 H 0.14315 0.93874 0.45172 0.0
S71 S 0.9405 0.23364 0.42434 0.0
N72 N 0.98175 0.19935 0.5366 0.0
N73 N 0.97207 0.16703 0.35197 0.0
C74 C 1.01859 0.11252 0.41855 0.0
C75 C 1.02366 0.1298 0.51905 0.0
loop_
_geom_bond_atom_site_label_1
_geom_bond_atom_site_label_2
_geom_bond_distance
_geom_bond_site_symmetry_2
_ccdc_geom_bond_type
Fe0 O1 1.886 1_554 S
Fe0 O4 1.715 1_455 S
Fe0 O9 2.077 1_455 S
Fe0 O14 1.935 1_455 S
Fe0 O20 2.077 . S
Fe0 O29 1.935 . S
O1 Fe0 1.886 1_556 S
O1 Fe3 1.715 1_565 S
Fe2 O4 1.886 . S
Fe2 O5 1.715 1_565 S
Fe2 O12 1.935 . S
Fe2 O13 2.077 . S
Fe2 O19 1.935 1_565 S
Fe2 O28 2.077 1_565 S
Fe3 O1 1.715 1_545 S
Fe3 O6 1.886 . S
Fe3 O10 1.935 1_545 S
Fe3 O15 2.077 1_545 S
Fe3 O21 1.935 . S
Fe3 O25 2.077 . S
O4 Fe0 1.715 1_655 S
O4 Fe2 1.886 . S
O5 Fe2 1.715 1_545 S
O5 Fe7 1.886 1_554 S
O6 Fe3 1.886 . S
O6 Fe7 1.715 1_455 S
Fe7 O5 1.886 1_556 S
Fe7 O6 1.715 1_655 S
Fe7 O11 2.077 . S
Fe7 O16 1.935 . S
Fe7 O18 2.077 1_655 S
Fe7 O26 1.935 1_655 S
C8 O20 1.381 . S
C8 O21 1.421 1_564 S
O9 Fe0 2.077 1_655 S
O9 C22 1.381 1_654 S
O10 Fe3 1.935 1_565 S
O10 C22 1.421 . S
O11 Fe7 2.077 . S
O11 C27 1.381 . S
O12 Fe2 1.935 . S
O12 C27 1.421 1_564 S
O13 Fe2 2.077 . S
O13 C17 1.381 . S
O14 Fe0 1.935 1_655 S
O14 C17 1.421 . S
O15 Fe3 2.077 1_565 S
O15 C23 1.381 1_565 S
O16 Fe7 1.935 . S
O16 C23 1.421 1_655 S
C17 O13 1.381 . S
C17 O14 1.421 . S
O18 Fe7 2.077 1_455 S
O18 C30 1.381 1_456 S
O19 Fe2 1.935 1_545 S
O19 C30 1.421 . S
O20 Fe0 2.077 . S
O20 C8 1.381 . S
O21 Fe3 1.935 . S
O21 C8 1.421 1_546 S
C22 O9 1.381 1_456 S
C22 O10 1.421 . S
C23 O15 1.381 1_545 S
C23 O16 1.421 1_455 S
C24 O25 1.381 . S
C24 O26 1.421 . S
O25 Fe3 2.077 . S
O25 C24 1.381 . S
O26 Fe7 1.935 1_455 S
O26 C24 1.421 . S
C27 O11 1.381 . S
C27 O12 1.421 1_546 S
O28 Fe2 2.077 1_545 S
O28 C31 1.381 1_545 S
O29 Fe0 1.935 . S
O29 C31 1.421 1_455 S
C30 O18 1.381 1_654 S
C30 O19 1.421 . S
C31 O28 1.381 1_565 S
C31 O29 1.421 1_655 S
C32 C33 1.369 1_455 S
C32 C34 1.419 . S
C32 H36 0.930 . S
C33 C32 1.369 1_655 S
C33 C42 1.429 1_554 S
C34 C32 1.419 . S
C34 C35 1.364 1_554 S
C34 H37 0.929 . S
C35 C34 1.364 1_556 S
C35 C41 1.429 1_455 S
H36 C32 0.930 . S
H37 C34 0.929 . S
S38 N39 1.613 . S
S38 N40 1.610 . S
N39 S38 1.613 . S
N39 C42 1.350 . S
N40 S38 1.610 . S
N40 C41 1.351 . S
C41 C35 1.429 1_655 S
C41 N40 1.351 . S
C41 C42 1.434 . S
C42 C33 1.429 1_556 S
C42 N39 1.350 . S
C42 C41 1.434 . S
C43 C44 1.369 1_564 S
C43 C45 1.419 . S
C43 H47 0.930 . S
C44 C43 1.369 1_546 S
C44 C53 1.429 . S
C45 C43 1.419 . S
C45 C46 1.356 1_565 S
C45 H48 0.929 . S
C46 C45 1.356 1_545 S
C46 C52 1.432 1_554 S
H47 C43 0.930 . S
H48 C45 0.929 . S
S49 N50 1.613 . S
S49 N51 1.610 . S
N50 S49 1.613 . S
N50 C53 1.350 . S
N51 S49 1.610 . S
N51 C52 1.351 . S
C52 C46 1.432 1_556 S
C52 N51 1.351 . S
C52 C53 1.434 . S
C53 C44 1.429 . S
C53 N50 1.350 . S
C53 C52 1.434 . S
C54 C55 1.369 1_554 S
C54 C56 1.419 . S
C54 H58 0.930 . S
C55 C54 1.369 1_556 S
C55 C64 1.429 . S
C56 C54 1.419 . S
C56 C57 1.363 . S
C56 H59 0.929 . S
C57 C56 1.363 . S
C57 C63 1.428 1_554 S
H58 C54 0.930 . S
H59 C56 0.929 . S
S60 N61 1.613 . S
S60 N62 1.610 . S
N61 S60 1.613 . S
N61 C64 1.350 . S
N62 S60 1.610 . S
N62 C63 1.351 . S
C63 C57 1.428 1_556 S
C63 N62 1.351 . S
C63 C64 1.434 . S
C64 C55 1.429 . S
C64 N61 1.350 . S
C64 C63 1.434 . S
C65 C66 1.369 1_665 S
C65 C67 1.419 . S
C65 H69 0.930 . S
C66 C65 1.369 1_445 S
C66 C75 1.429 . S
C67 C65 1.419 . S
C67 C68 1.356 1_665 S
C67 H70 0.929 . S
C68 C67 1.356 1_445 S
C68 C74 1.436 . S
H69 C65 0.930 . S
H70 C67 0.929 . S
S71 N72 1.613 . S
S71 N73 1.610 . S
N72 S71 1.613 . S
N72 C75 1.350 . S
N73 S71 1.610 . S
N73 C74 1.351 . S
C74 C68 1.436 . S
C74 N73 1.351 . S
C74 C75 1.434 . S
C75 C66 1.429 . S
C75 N72 1.350 . S
C75 C74 1.434 . S
C33 C30 1.648 . S
C35 C22 1.660 . S
C44 C27 1.582 . S
C46 C8 1.581 1_545 S
C55 C24 1.869 . S
C57 C17 1.864 . S
C66 C23 1.448 . S
C68 C31 1.452 1_445 S
