# Generated by pormake.
# Topology qtz-x, (6)-cn, num edge types: 1
# Building blocks:
#     Node 0, Type 0, BuildingBlock: BETDIP_clean_sbu_0, # of connection points: 6
#     Node 1, Type 0, BuildingBlock: BETDIP_clean_sbu_0, # of connection points: 6
#     Node 2, Type 0, BuildingBlock: BETDIP_clean_sbu_0, # of connection points: 6
#     Edge 3, Type (0, 0), BuildingBlock: OJICUG_clean_linker_0, # of connection points: 2
#     Edge 4, Type (0, 0), BuildingBlock: OJICUG_clean_linker_0, # of connection points: 2
#     Edge 5, Type (0, 0), BuildingBlock: OJICUG_clean_linker_0, # of connection points: 2
#     Edge 6, Type (0, 0), BuildingBlock: OJICUG_clean_linker_0, # of connection points: 2
#     Edge 7, Type (0, 0), BuildingBlock: OJICUG_clean_linker_0, # of connection points: 2
#     Edge 8, Type (0, 0), BuildingBlock: OJICUG_clean_linker_0, # of connection points: 2
#     Edge 9, Type (0, 0), BuildingBlock: OJICUG_clean_linker_0, # of connection points: 2
#     Edge 10, Type (0, 0), BuildingBlock: OJICUG_clean_linker_0, # of connection points: 2
#     Edge 11, Type (0, 0), BuildingBlock: OJICUG_clean_linker_0, # of connection points: 2
# Relax obj value: 0.353
# Max RMSD: 0.299
# Mean RMSD: 0.271
data_MOF--net-qtz-x--node1-BETDIP_clean_sbu_0--edge1-OJICUG_clean_linker_0
_symmetry_space_group_name_H-M    P1
_symmetry_Int_Tables_number       1
_symmetry_cell_setting            triclinic
loop_
_symmetry_equiv_pos_as_xyz
'x, y, z'
_cell_length_a     10.719813
_cell_length_b     10.742699
_cell_length_c     40.683688
_cell_angle_alpha  62.303733
_cell_angle_beta   119.1809
_cell_angle_gamma 121.42446
loop_
_atom_site_label
_atom_site_type_symbol
_atom_site_fract_x
_atom_site_fract_y
_atom_site_fract_z
_atom_type_partial_charge
Tb0 Tb 1.11016 0.62091 0.22174 0.0
Tb1 Tb 0.42597 0.77395 0.22936 0.0
C2 C 0.86267 0.43141 0.23694 0.0
C3 C 0.82177 0.37793 0.27281 0.0
C4 C 0.81272 0.2325 0.29895 0.0
C5 C 0.79304 0.18747 0.33506 0.0
C6 C 0.77983 0.28592 0.34598 0.0
C7 C 0.78194 0.42899 0.31886 0.0
C8 C 0.80323 0.47446 0.28298 0.0
C9 C 0.21443 0.91672 0.21521 0.0
C10 C 0.36301 0.63506 0.30662 0.0
C11 C 0.68258 -0.03487 0.22168 0.0
C12 C 0.74563 -0.00301 0.19263 0.0
C13 C 0.78488 0.14333 0.1666 0.0
C14 C 0.80328 0.16584 0.13234 0.0
C15 C 0.78325 0.04202 0.12418 0.0
C16 C 0.7544 0.89818 0.15151 0.0
C17 C 0.73528 0.87558 0.18543 0.0
C18 C 0.32591 0.478 0.23635 0.0
C19 C 0.18291 0.75696 0.14338 0.0
O20 O 0.96839 0.39299 0.24136 0.0
O21 O 0.88383 0.57254 0.21572 0.0
O22 O 0.28163 0.82548 0.23937 0.0
O23 O 1.08297 0.84125 0.19362 0.0
O24 O 0.22452 0.55598 0.28642 0.0
O25 O 0.45774 0.75078 0.28794 0.0
O26 O 0.56111 -0.00098 0.20657 0.0
O27 O 0.6641 0.83148 0.24761 0.0
O28 O 0.25552 0.56701 0.21234 0.0
O29 O 0.45877 0.55696 0.25662 0.0
O30 O 0.32336 0.82927 0.16458 0.0
O31 O 1.07738 0.65095 0.16079 0.0
H32 H 0.82614 0.15502 0.29205 0.0
H33 H 0.79412 0.07733 0.35497 0.0
H34 H 0.7677 0.50709 0.32527 0.0
H35 H 0.80864 0.58698 0.26367 0.0
H36 H 0.79172 0.23784 0.17155 0.0
H37 H 0.8269 0.27803 0.11159 0.0
H38 H 0.74155 0.80201 0.14597 0.0
H39 H 0.70264 0.76095 0.2046 0.0
Tb40 Tb 0.93707 0.2079 0.58137 0.0
Tb41 Tb 0.79765 0.89252 0.59217 0.0
C42 C 1.02831 0.46693 0.58636 0.0
C43 C 1.05101 0.50803 0.61898 0.0
C44 C 0.94994 0.41577 0.64115 0.0
C45 C 0.99246 0.43106 0.67778 0.0
C46 C 0.13622 0.53985 0.69269 0.0
C47 C 0.23097 0.63871 0.66883 0.0
C48 C 0.18934 0.62225 0.63248 0.0
C49 C 1.11519 0.109 0.57965 0.0
C50 C 0.9453 -0.01833 0.66826 0.0
C51 C 0.69029 0.63459 0.58336 0.0
C52 C 0.64282 0.5932 0.54773 0.0
C53 C 0.75275 0.63267 0.53166 0.0
C54 C 0.70654 0.61373 0.49517 0.0
C55 C 0.5489 0.56193 0.47269 0.0
C56 C 0.43864 0.51638 0.48956 0.0
C57 C 0.48519 0.53019 0.52683 0.0
C58 C 0.62225 -0.00133 0.59254 0.0
C59 C 0.78876 0.1234 0.50539 0.0
O60 O 0.8856 0.39244 0.56785 0.0
O61 O 1.12225 0.40614 0.59464 0.0
O62 O 1.03886 0.04257 0.60337 0.0
O63 O 1.09423 0.23415 0.55707 0.0
O64 O 0.94485 0.11559 0.64321 0.0
O65 O 0.90957 0.87128 0.65523 0.0
O66 O 0.83782 0.70877 0.5989 0.0
O67 O 0.60594 0.6932 0.58146 0.0
O68 O 0.69803 0.05979 0.56912 0.0
O69 O 0.64164 0.87324 0.61596 0.0
O70 O 0.78269 -0.01377 0.52938 0.0
O71 O 0.82917 0.232 0.51936 0.0
H72 H 0.84212 0.32581 0.63131 0.0
H73 H 0.91574 0.35202 0.69499 0.0
H74 H 0.34012 0.72632 0.6787 0.0
H75 H 0.26903 0.69291 0.61586 0.0
H76 H 0.87514 0.68293 0.54662 0.0
H77 H 0.79569 0.64496 0.48414 0.0
H78 H 0.31628 0.47702 0.47337 0.0
H79 H 0.39752 0.49891 0.53842 0.0
Tb80 Tb 1.01624 0.00161 0.88855 0.0
Tb81 Tb 0.20611 0.81469 0.92417 0.0
C82 C 0.84392 0.11092 0.87924 0.0
C83 C 0.81289 0.09956 0.91198 0.0
C84 C 0.77751 -0.04049 0.94077 0.0
C85 C 0.77327 0.95182 0.97525 0.0
C86 C 0.80967 0.08473 0.98213 0.0
C87 C 0.85331 0.22478 0.95455 0.0
C88 C 0.85213 0.23248 0.91929 0.0
C89 C 0.30514 0.15446 0.89059 0.0
C90 C 0.14299 0.85967 0.98407 0.0
C91 C 0.42256 0.75981 0.93579 0.0
C92 C 0.42395 0.71016 0.90787 0.0
C93 C 0.46633 0.81929 0.87459 0.0
C94 C 0.43528 0.77578 0.84335 0.0
C95 C 0.35257 0.62328 0.84368 0.0
C96 C 0.31048 0.51409 0.87666 0.0
C97 C 0.35031 0.556 0.90913 0.0
C98 C 0.91137 0.63016 0.9106 0.0
C99 C 1.03548 0.90837 0.82982 0.0
O100 O 0.79036 -0.01703 0.87147 0.0
O101 O 0.98765 0.19324 0.88045 0.0
O102 O 0.25652 0.04427 0.91786 0.0
O103 O 0.18884 0.17898 0.86048 0.0
O104 O 1.05817 0.93438 0.95277 0.0
O105 O 0.2215 0.80711 0.98037 0.0
O106 O 0.42787 0.89902 0.92248 0.0
O107 O 0.32002 0.66319 0.95402 0.0
O108 O 0.96856 0.7719 0.90386 0.0
O109 O 1.02427 0.58601 0.92572 0.0
O110 O 0.14546 0.86192 0.85989 0.0
O111 O 0.95473 0.95444 0.83492 0.0
H112 H 0.75669 0.85573 0.93722 0.0
H113 H 0.74538 0.84253 0.99693 0.0
H114 H 0.88938 0.32752 0.96082 0.0
H115 H 0.88913 0.34227 0.89858 0.0
H116 H 0.51463 0.93968 0.87137 0.0
H117 H 0.46498 0.86267 0.81762 0.0
H118 H 0.24293 0.39732 0.8769 0.0
H119 H 0.31246 0.46903 0.93379 0.0
C120 C 0.16908 0.15871 0.1911 0.0
C121 C 0.24814 0.06292 0.22043 0.0
H122 H 1.12786 0.36082 0.17299 0.0
C123 C 0.35432 0.1062 0.25505 0.0
H124 H 1.09085 0.13182 0.16373 0.0
C125 C 0.37763 0.23905 0.26026 0.0
C126 C 0.29596 0.33332 0.23111 0.0
H127 H 0.41804 0.03623 0.27843 0.0
H128 H 0.4587 0.26718 0.28745 0.0
C129 C 0.19126 0.29074 0.19639 0.0
C130 C 0.41598 0.11324 0.55308 0.0
C131 C 0.50032 0.03885 0.58914 0.0
H132 H 0.22706 0.18958 0.52191 0.0
C133 C 0.45958 -0.00814 0.62241 0.0
H134 H 0.44412 0.15221 0.52683 0.0
C135 C 0.33375 0.01143 0.61958 0.0
C136 C 0.24554 0.0803 0.58333 0.0
H137 H 0.52504 0.93819 0.65083 0.0
H138 H 0.30657 -0.02583 0.64586 0.0
C139 C 0.29056 0.13348 0.55027 0.0
C140 C 0.54303 0.32279 0.93055 0.0
C141 C 0.46182 0.27532 0.89629 0.0
H142 H 0.74637 0.48143 0.96076 0.0
C143 C 0.52357 0.35605 0.86538 0.0
H144 H 0.49656 0.26401 0.95455 0.0
C145 C 0.66633 0.47912 0.86907 0.0
C146 C 0.74727 0.52703 0.90316 0.0
H147 H 0.46219 0.32251 0.83853 0.0
H148 H 0.71572 0.5342 0.84572 0.0
C149 C 0.68345 0.44936 0.93367 0.0
C150 C 0.92033 0.18192 1.03949 0.0
C151 C 0.80218 0.07753 1.01804 0.0
H152 H 1.00597 0.25301 0.09029 0.0
C153 C 0.67499 -0.03326 1.03071 0.0
H154 H 1.02002 0.26784 1.03032 0.0
C155 C 0.66788 -0.0423 0.06494 0.0
C156 C 0.78755 0.05971 0.08684 0.0
H157 H 0.58084 0.88752 1.01408 0.0
H158 H 0.56898 0.87079 0.07439 0.0
C159 C 0.91261 0.17353 0.07367 0.0
C160 C 0.83825 0.31577 0.44298 0.0
C161 C 0.77339 0.163 0.4636 0.0
H162 H 0.89679 0.47338 0.39131 0.0
C163 C 0.70449 0.05051 0.44468 0.0
H164 H 0.89428 0.40567 0.45669 0.0
C165 C 0.70175 0.09025 0.4062 0.0
C166 C 0.77143 0.24303 0.38597 0.0
H167 H 0.65301 0.93174 0.45961 0.0
H168 H 0.64494 0.00088 0.39235 0.0
C169 C 0.83877 0.35495 0.40505 0.0
C170 C 0.92599 0.00646 0.75615 0.0
C171 C 1.00775 0.91851 0.78871 0.0
H172 H 0.84131 0.09219 0.69356 0.0
C173 C 1.06499 0.84542 0.78117 0.0
H174 H 0.8795 0.06461 0.76033 0.0
C175 C 1.04277 0.86185 0.74229 0.0
C176 C 0.96467 0.95363 0.70998 0.0
H177 H 1.12695 0.7755 0.80533 0.0
H178 H 1.09004 0.80618 0.73753 0.0
C179 C 0.90545 0.02393 0.71763 0.0
C180 C 0.17586 0.70536 1.05556 0.0
C181 C 0.14782 0.83188 1.02458 0.0
H182 H 0.20465 0.58118 0.11656 0.0
C183 C 1.12427 0.93029 1.03295 0.0
H184 H 0.19449 0.62667 1.05053 0.0
C185 C 1.13042 0.90395 0.07107 0.0
C186 C 0.15746 0.77685 0.10181 0.0
H187 H 1.10517 0.03027 1.01023 0.0
H188 H 1.11631 -0.01565 0.07666 0.0
C189 C 0.1799 0.67804 0.09344 0.0
C190 C 0.31283 0.4883 0.37171 0.0
C191 C 0.40959 0.60641 0.34953 0.0
H192 H 0.28178 0.37773 0.42823 0.0
C193 C 0.55338 0.70366 0.36849 0.0
H194 H 0.20132 0.41119 0.35798 0.0
C195 C 0.59826 0.68655 0.40821 0.0
C196 C 0.5019 0.57029 0.43071 0.0
H197 H 0.63118 0.79638 0.35246 0.0
H198 H 0.70731 0.76899 0.42076 0.0
C199 C 0.3588 0.47001 0.41196 0.0
C200 C 0.4027 0.6246 0.79026 0.0
C201 C 0.2974 0.58302 0.80785 0.0
H202 H 0.43604 0.63105 0.74221 0.0
C203 C 0.13853 0.51881 0.78884 0.0
H204 H 0.52581 0.67606 0.8044 0.0
C205 C 1.08532 0.50391 0.75151 0.0
C206 C 0.19068 0.54784 0.73326 0.0
H207 H 1.05559 0.48878 0.80183 0.0
H208 H 0.96192 0.46353 0.73662 0.0
C209 C 0.35022 0.60251 0.754 0.0
loop_
_geom_bond_atom_site_label_1
_geom_bond_atom_site_label_2
_geom_bond_distance
_geom_bond_site_symmetry_2
_ccdc_geom_bond_type
Tb0 C2 2.809 . S
Tb0 O20 2.484 . S
Tb0 O21 2.440 . S
Tb0 O22 2.658 1_655 S
Tb0 O23 2.409 . S
Tb0 O24 2.378 1_655 S
Tb0 O28 2.325 . S
Tb0 O31 2.341 . S
Tb1 C11 2.809 . S
Tb1 O22 2.325 . S
Tb1 O25 2.341 . S
Tb1 O26 2.484 1_565 S
Tb1 O27 2.440 . S
Tb1 O28 2.658 1_455 S
Tb1 O29 2.409 . S
Tb1 O30 2.378 1_455 S
C2 Tb0 2.809 . S
C2 C3 1.514 . S
C2 O20 1.248 . S
C2 O21 1.266 . S
C3 C2 1.514 . S
C3 C4 1.359 . S
C3 C8 1.348 . S
C4 C3 1.359 . S
C4 C5 1.380 . S
C4 H32 0.929 . S
C5 C4 1.380 . S
C5 C6 1.347 . S
C5 H33 0.931 . S
C6 C5 1.347 . S
C6 C7 1.369 . S
C7 C6 1.369 . S
C7 C8 1.408 . S
C7 H34 0.930 . S
C8 C3 1.348 . S
C8 C7 1.408 . S
C8 H35 0.930 . S
C9 O22 1.281 1_655 S
C9 O23 1.254 . S
C10 O24 1.236 . S
C10 O25 1.266 . S
C11 Tb1 2.809 . S
C11 C12 1.514 1_565 S
C11 O26 1.248 1_565 S
C11 O27 1.266 . S
C12 C11 1.514 1_545 S
C12 C13 1.359 . S
C12 C17 1.348 1_545 S
C13 C12 1.359 . S
C13 C14 1.380 . S
C13 H36 0.929 . S
C14 C13 1.380 . S
C14 C15 1.345 1_554 S
C14 H37 0.931 1_554 S
C15 C14 1.345 1_556 S
C15 C16 1.369 1_556 S
C16 C15 1.369 1_554 S
C16 C17 1.408 1_545 S
C16 H38 0.930 . S
C17 C12 1.348 1_565 S
C17 C16 1.408 1_565 S
C17 H39 0.930 . S
C18 O28 1.281 1_455 S
C18 O29 1.254 . S
C19 O30 1.236 . S
C19 O31 1.266 . S
O20 Tb0 2.484 . S
O20 C2 1.248 . S
O21 Tb0 2.440 . S
O21 C2 1.266 . S
O22 Tb0 2.658 1_455 S
O22 Tb1 2.325 . S
O22 C9 1.281 1_455 S
O23 Tb0 2.409 . S
O23 C9 1.254 . S
O24 Tb0 2.378 1_455 S
O24 C10 1.236 . S
O25 Tb1 2.341 . S
O25 C10 1.266 . S
O26 Tb1 2.484 1_545 S
O26 C11 1.248 1_545 S
O27 Tb1 2.440 . S
O27 C11 1.266 . S
O28 Tb0 2.325 . S
O28 Tb1 2.658 1_655 S
O28 C18 1.281 1_655 S
O29 Tb1 2.409 . S
O29 C18 1.254 . S
O30 Tb1 2.378 1_655 S
O30 C19 1.236 . S
O31 Tb0 2.341 . S
O31 C19 1.266 . S
H32 C4 0.929 . S
H33 C5 0.931 . S
H34 C7 0.930 . S
H35 C8 0.930 . S
H36 C13 0.929 . S
H37 C14 0.931 1_556 S
H38 C16 0.930 . S
H39 C17 0.930 . S
Tb40 C42 2.809 1_655 S
Tb40 O60 2.484 . S
Tb40 O61 2.440 1_655 S
Tb40 O62 2.658 1_545 S
Tb40 O63 2.409 1_655 S
Tb40 O64 2.378 . S
Tb40 O68 2.325 . S
Tb40 O71 2.341 . S
Tb41 C51 2.809 . S
Tb41 O62 2.325 . S
Tb41 O65 2.341 . S
Tb41 O66 2.484 . S
Tb41 O67 2.440 . S
Tb41 O68 2.658 1_565 S
Tb41 O69 2.409 . S
Tb41 O70 2.378 . S
C42 Tb40 2.809 1_455 S
C42 C43 1.514 . S
C42 O60 1.248 1_455 S
C42 O61 1.266 . S
C43 C42 1.514 . S
C43 C44 1.359 1_455 S
C43 C48 1.348 . S
C44 C43 1.359 1_655 S
C44 C45 1.380 1_655 S
C44 H72 0.929 . S
C45 C44 1.380 1_455 S
C45 C46 1.347 . S
C45 H73 0.931 1_455 S
C46 C45 1.347 . S
C46 C47 1.369 . S
C47 C46 1.369 . S
C47 C48 1.408 . S
C47 H74 0.930 . S
C48 C43 1.348 . S
C48 C47 1.408 . S
C48 H75 0.930 . S
C49 O62 1.281 1_445 S
C49 O63 1.254 . S
C50 O64 1.236 1_565 S
C50 O65 1.266 . S
C51 Tb41 2.809 . S
C51 C52 1.514 . S
C51 O66 1.248 . S
C51 O67 1.266 . S
C52 C51 1.514 . S
C52 C53 1.359 . S
C52 C57 1.348 . S
C53 C52 1.359 . S
C53 C54 1.380 . S
C53 H76 0.929 . S
C54 C53 1.380 . S
C54 C55 1.347 . S
C54 H77 0.931 . S
C55 C54 1.347 . S
C55 C56 1.369 . S
C56 C55 1.369 . S
C56 C57 1.408 . S
C56 H78 0.930 . S
C57 C52 1.348 . S
C57 C56 1.408 . S
C57 H79 0.930 . S
C58 O68 1.281 1_565 S
C58 O69 1.254 . S
C59 O70 1.236 1_545 S
C59 O71 1.266 . S
O60 Tb40 2.484 . S
O60 C42 1.248 1_655 S
O61 Tb40 2.440 1_455 S
O61 C42 1.266 . S
O62 Tb40 2.658 1_565 S
O62 Tb41 2.325 . S
O62 C49 1.281 1_665 S
O63 Tb40 2.409 1_455 S
O63 C49 1.254 . S
O64 Tb40 2.378 . S
O64 C50 1.236 1_545 S
O65 Tb41 2.341 . S
O65 C50 1.266 . S
O66 Tb41 2.484 . S
O66 C51 1.248 . S
O67 Tb41 2.440 . S
O67 C51 1.266 . S
O68 Tb40 2.325 . S
O68 Tb41 2.658 1_545 S
O68 C58 1.281 1_545 S
O69 Tb41 2.409 . S
O69 C58 1.254 . S
O70 Tb41 2.378 . S
O70 C59 1.236 1_565 S
O71 Tb40 2.341 . S
O71 C59 1.266 . S
H72 C44 0.929 . S
H73 C45 0.931 1_655 S
H74 C47 0.930 . S
H75 C48 0.930 . S
H76 C53 0.929 . S
H77 C54 0.931 . S
H78 C56 0.930 . S
H79 C57 0.930 . S
Tb80 C82 2.809 . S
Tb80 O100 2.484 . S
Tb80 O101 2.440 . S
Tb80 O102 2.658 1_655 S
Tb80 O103 2.409 1_655 S
Tb80 O104 2.378 1_655 S
Tb80 O108 2.325 1_545 S
Tb80 O111 2.341 . S
Tb81 C91 2.809 . S
Tb81 O102 2.325 1_565 S
Tb81 O105 2.341 . S
Tb81 O106 2.484 . S
Tb81 O107 2.440 . S
Tb81 O108 2.658 1_455 S
Tb81 O109 2.409 1_455 S
Tb81 O110 2.378 1_455 S
C82 Tb80 2.809 . S
C82 C83 1.514 . S
C82 O100 1.248 . S
C82 O101 1.266 . S
C83 C82 1.514 . S
C83 C84 1.359 . S
C83 C88 1.348 . S
C84 C83 1.359 . S
C84 C85 1.380 . S
C84 H112 0.929 1_545 S
C85 C84 1.380 . S
C85 C86 1.347 . S
C85 H113 0.931 . S
C86 C85 1.347 . S
C86 C87 1.369 . S
C87 C86 1.369 . S
C87 C88 1.408 . S
C87 H114 0.930 . S
C88 C83 1.348 . S
C88 C87 1.408 . S
C88 H115 0.930 . S
C89 O102 1.281 . S
C89 O103 1.254 . S
C90 O104 1.236 1_565 S
C90 O105 1.266 . S
C91 Tb81 2.809 . S
C91 C92 1.514 . S
C91 O106 1.248 . S
C91 O107 1.266 . S
C92 C91 1.514 . S
C92 C93 1.359 . S
C92 C97 1.348 . S
C93 C92 1.359 . S
C93 C94 1.380 . S
C93 H116 0.929 1_565 S
C94 C93 1.380 . S
C94 C95 1.347 . S
C94 H117 0.931 . S
C95 C94 1.347 . S
C95 C96 1.369 . S
C96 C95 1.369 . S
C96 C97 1.408 . S
C96 H118 0.930 . S
C97 C92 1.348 . S
C97 C96 1.408 . S
C97 H119 0.930 . S
C98 O108 1.281 . S
C98 O109 1.254 . S
C99 O110 1.236 1_545 S
C99 O111 1.266 . S
O100 Tb80 2.484 . S
O100 C82 1.248 . S
O101 Tb80 2.440 . S
O101 C82 1.266 . S
O102 Tb80 2.658 1_455 S
O102 Tb81 2.325 1_545 S
O102 C89 1.281 . S
O103 Tb80 2.409 1_455 S
O103 C89 1.254 . S
O104 Tb80 2.378 1_455 S
O104 C90 1.236 1_545 S
O105 Tb81 2.341 . S
O105 C90 1.266 . S
O106 Tb81 2.484 . S
O106 C91 1.248 . S
O107 Tb81 2.440 . S
O107 C91 1.266 . S
O108 Tb80 2.325 1_565 S
O108 Tb81 2.658 1_655 S
O108 C98 1.281 . S
O109 Tb81 2.409 1_655 S
O109 C98 1.254 . S
O110 Tb81 2.378 1_655 S
O110 C99 1.236 1_565 S
O111 Tb80 2.341 . S
O111 C99 1.266 . S
H112 C84 0.929 1_565 S
H113 C85 0.931 . S
H114 C87 0.930 . S
H115 C88 0.930 . S
H116 C93 0.929 1_545 S
H117 C94 0.931 . S
H118 C96 0.930 . S
H119 C97 0.930 . S
C120 C121 1.387 . S
C120 H124 0.950 . S
C120 C129 1.390 1_455 S
C121 C120 1.387 . S
C121 C123 1.387 . S
H122 C129 0.950 . S
C123 C121 1.387 . S
C123 C125 1.390 1_455 S
C123 H127 0.950 . S
H124 C120 0.950 . S
C125 C123 1.390 1_655 S
C125 C126 1.387 . S
C125 H128 0.950 . S
C126 C125 1.387 . S
C126 C129 1.387 . S
H127 C123 0.950 . S
H128 C125 0.950 . S
C129 C120 1.390 1_655 S
C129 H122 0.950 . S
C129 C126 1.387 . S
C130 C131 1.387 . S
C130 H134 0.950 . S
C130 C139 1.390 . S
C131 C130 1.387 . S
C131 C133 1.387 1_545 S
H132 C139 0.950 . S
C133 C131 1.387 1_565 S
C133 C135 1.390 . S
C133 H137 0.950 . S
H134 C130 0.950 . S
C135 C133 1.390 . S
C135 C136 1.387 . S
C135 H138 0.950 . S
C136 C135 1.387 . S
C136 C139 1.387 1_565 S
H137 C133 0.950 . S
H138 C135 0.950 . S
C139 C130 1.390 . S
C139 H132 0.950 . S
C139 C136 1.387 1_545 S
C140 C141 1.387 . S
C140 H144 0.950 . S
C140 C149 1.390 . S
C141 C140 1.387 . S
C141 C143 1.387 . S
H142 C149 0.950 . S
C143 C141 1.387 . S
C143 C145 1.390 . S
C143 H147 0.950 . S
H144 C140 0.950 . S
C145 C143 1.390 . S
C145 C146 1.387 . S
C145 H148 0.950 . S
C146 C145 1.387 . S
C146 C149 1.387 . S
H147 C143 0.950 . S
H148 C145 0.950 . S
C149 C140 1.390 . S
C149 H142 0.950 . S
C149 C146 1.387 . S
C150 C151 1.387 . S
C150 H154 0.950 . S
C150 C159 1.390 . S
C151 C150 1.387 . S
C151 C153 1.387 . S
H152 C159 0.950 . S
C153 C151 1.387 . S
C153 C155 1.390 . S
C153 H157 0.950 . S
H154 C150 0.950 . S
C155 C153 1.390 . S
C155 C156 1.387 . S
C155 H158 0.949 . S
C156 C155 1.387 . S
C156 C159 1.387 . S
H157 C153 0.950 . S
H158 C155 0.949 . S
C159 C150 1.390 . S
C159 H152 0.950 . S
C159 C156 1.387 . S
C160 C161 1.387 . S
C160 H164 0.950 . S
C160 C169 1.390 . S
C161 C160 1.387 . S
C161 C163 1.387 . S
H162 C169 0.950 . S
C163 C161 1.387 . S
C163 C165 1.390 . S
C163 H167 0.950 1_545 S
H164 C160 0.950 . S
C165 C163 1.390 . S
C165 C166 1.387 . S
C165 H168 0.950 . S
C166 C165 1.387 . S
C166 C169 1.387 . S
H167 C163 0.950 1_565 S
H168 C165 0.950 . S
C169 C160 1.390 . S
C169 H162 0.950 . S
C169 C166 1.387 . S
C170 C171 1.387 1_545 S
C170 H174 0.950 1_655 S
C170 C179 1.390 . S
C171 C170 1.387 1_565 S
C171 C173 1.387 . S
H172 C179 0.950 1_455 S
C173 C171 1.387 . S
C173 C175 1.390 . S
C173 H177 0.950 . S
H174 C170 0.950 1_455 S
C175 C173 1.390 . S
C175 C176 1.387 . S
C175 H178 0.950 . S
C176 C175 1.387 . S
C176 C179 1.387 1_565 S
H177 C173 0.950 . S
H178 C175 0.950 . S
C179 C170 1.390 . S
C179 H172 0.950 1_655 S
C179 C176 1.387 1_545 S
C180 C181 1.387 1_655 S
C180 H184 0.950 . S
C180 C189 1.390 1_556 S
C181 C180 1.387 1_455 S
C181 C183 1.387 . S
H182 C189 0.950 . S
C183 C181 1.387 . S
C183 C185 1.390 1_456 S
C183 H187 0.950 1_565 S
H184 C180 0.950 . S
C185 C183 1.390 1_654 S
C185 C186 1.387 . S
C185 H188 0.950 1_565 S
C186 C185 1.387 . S
C186 C189 1.387 . S
H187 C183 0.950 1_545 S
H188 C185 0.950 1_545 S
C189 C180 1.390 1_554 S
C189 H182 0.950 . S
C189 C186 1.387 . S
C190 C191 1.387 . S
C190 H194 0.950 . S
C190 C199 1.390 . S
C191 C190 1.387 . S
C191 C193 1.387 . S
H192 C199 0.950 . S
C193 C191 1.387 . S
C193 C195 1.390 . S
C193 H197 0.950 . S
H194 C190 0.950 . S
C195 C193 1.390 . S
C195 C196 1.387 . S
C195 H198 0.950 . S
C196 C195 1.387 . S
C196 C199 1.387 . S
H197 C193 0.950 . S
H198 C195 0.950 . S
C199 C190 1.390 . S
C199 H192 0.950 . S
C199 C196 1.387 . S
C200 C201 1.387 . S
C200 H204 0.950 . S
C200 C209 1.390 . S
C201 C200 1.387 . S
C201 C203 1.387 . S
H202 C209 0.950 . S
C203 C201 1.387 . S
C203 C205 1.390 . S
C203 H207 0.950 . S
H204 C200 0.950 . S
C205 C203 1.390 . S
C205 C206 1.387 . S
C205 H208 0.950 . S
C206 C205 1.387 . S
C206 C209 1.387 . S
H207 C203 0.950 . S
H208 C205 0.950 . S
C209 C200 1.390 . S
C209 H202 0.950 . S
C209 C206 1.387 . S
C121 C9 1.948 1_445 S
C126 C18 1.948 1_655 S
C131 C58 2.010 1_545 S
C136 C49 2.010 1_565 S
C141 C89 1.625 . S
C146 C98 1.625 . S
C151 C86 0.992 . S
C156 C15 0.985 . S
C161 C59 2.141 . S
C166 C6 2.023 . S
C171 C99 2.766 1_565 S
C176 C50 2.759 . S
C181 C90 2.752 . S
C186 C19 2.629 . S
C191 C10 2.218 . S
C196 C55 1.984 . S
C201 C95 1.037 . S
C206 C46 1.097 . S
