# Generated by pormake.
# Topology bsn, (6)-cn, num edge types: 1
# Building blocks:
#     Node 0, Type 0, BuildingBlock: VOLQOD_clean_sbu_1, # of connection points: 6
#     Node 1, Type 0, BuildingBlock: VOLQOD_clean_sbu_1, # of connection points: 6
#     Node 2, Type 0, BuildingBlock: VOLQOD_clean_sbu_1, # of connection points: 6
#     Node 3, Type 0, BuildingBlock: VOLQOD_clean_sbu_1, # of connection points: 6
#     Edge 4, Type (0, 0), BuildingBlock: AJUNOK_clean_linker_0, # of connection points: 2
#     Edge 5, Type (0, 0), BuildingBlock: AJUNOK_clean_linker_0, # of connection points: 2
#     Edge 6, Type (0, 0), BuildingBlock: AJUNOK_clean_linker_0, # of connection points: 2
#     Edge 7, Type (0, 0), BuildingBlock: AJUNOK_clean_linker_0, # of connection points: 2
#     Edge 8, Type (0, 0), BuildingBlock: AJUNOK_clean_linker_0, # of connection points: 2
#     Edge 9, Type (0, 0), BuildingBlock: AJUNOK_clean_linker_0, # of connection points: 2
#     Edge 10, Type (0, 0), BuildingBlock: AJUNOK_clean_linker_0, # of connection points: 2
#     Edge 11, Type (0, 0), BuildingBlock: AJUNOK_clean_linker_0, # of connection points: 2
#     Edge 12, Type (0, 0), BuildingBlock: AJUNOK_clean_linker_0, # of connection points: 2
#     Edge 13, Type (0, 0), BuildingBlock: AJUNOK_clean_linker_0, # of connection points: 2
#     Edge 14, Type (0, 0), BuildingBlock: AJUNOK_clean_linker_0, # of connection points: 2
#     Edge 15, Type (0, 0), BuildingBlock: AJUNOK_clean_linker_0, # of connection points: 2
# Relax obj value: 0.019
# Max RMSD: 0.064
# Mean RMSD: 0.062
data_MOF--net-bsn--node1-VOLQOD_clean_sbu_1--edge1-AJUNOK_clean_linker_0
_symmetry_space_group_name_H-M    P1
_symmetry_Int_Tables_number       1
_symmetry_cell_setting            triclinic
loop_
_symmetry_equiv_pos_as_xyz
'x, y, z'
_cell_length_a     25.263126
_cell_length_b     25.192686
_cell_length_c     13.037973
_cell_angle_alpha  90.399413
_cell_angle_beta   90.155537
_cell_angle_gamma 89.925613
loop_
_atom_site_label
_atom_site_type_symbol
_atom_site_fract_x
_atom_site_fract_y
_atom_site_fract_z
_atom_type_partial_charge
O0 O 0.04781 0.25017 0.59128 0.0
Zn1 Zn 0.05531 0.27888 0.44792 0.0
O2 O 0.00201 0.24793 0.36144 0.0
Zn3 Zn 0.03388 0.19338 0.27902 0.0
Zn4 Zn 0.94908 0.21864 0.44906 0.0
Zn5 Zn 0.97003 0.30065 0.27538 0.0
O6 O 0.01042 0.20169 0.13228 0.0
O7 O 0.99412 0.28887 0.13019 0.0
O8 O 0.12878 0.26857 0.38569 0.0
O9 O 0.11153 0.20586 0.27054 0.0
O10 O 0.0207 0.12062 0.34053 0.0
O11 O 0.95939 0.14021 0.45716 0.0
O12 O 0.87579 0.23144 0.3926 0.0
O13 O 0.0402 0.35672 0.46102 0.0
O14 O 0.89134 0.28869 0.26806 0.0
O15 O 0.98482 0.37469 0.33261 0.0
C16 C 0.00413 0.24717 0.63995 0.0
C17 C 0.00284 0.24493 0.08371 0.0
C18 C 0.98917 0.1068 0.41185 0.0
C19 C 0.14392 0.23752 0.31361 0.0
C20 C 0.85947 0.25963 0.31812 0.0
C21 C 0.01231 0.38947 0.41011 0.0
O22 O 0.95967 0.24547 0.59338 0.0
O23 O 0.04507 0.74208 0.37571 0.0
Zn24 Zn 0.05452 0.71747 0.52066 0.0
O25 O 0.0023 0.74941 0.60756 0.0
Zn26 Zn 0.03529 0.80255 0.69249 0.0
Zn27 Zn 0.94866 0.78168 0.52443 0.0
Zn28 Zn 0.97128 0.69625 0.69459 0.0
O29 O 0.00816 0.79476 0.83667 0.0
O30 O -0.00147 0.70671 0.83879 0.0
O31 O 0.12826 0.72875 0.57923 0.0
O32 O 0.11324 0.78789 0.70265 0.0
O33 O 0.02377 0.87638 0.63388 0.0
O34 O 0.95802 0.86014 0.52448 0.0
O35 O 0.87598 0.76681 0.58071 0.0
O36 O 0.04038 0.63995 0.51057 0.0
O37 O 0.89257 0.70952 0.70521 0.0
O38 O 0.9841 0.62173 0.63634 0.0
C39 C 0.00185 0.75215 0.32881 0.0
C40 C 0.00292 0.75127 0.88532 0.0
C41 C 0.98989 0.89216 0.568 0.0
C42 C 0.14475 0.75748 0.65378 0.0
C43 C 0.86026 0.73855 0.65542 0.0
C44 C 0.01191 0.60721 0.5594 0.0
O45 O 0.95867 0.76088 0.37669 0.0
O46 O 0.49587 0.70553 0.62816 0.0
Zn47 Zn 0.47146 0.69553 0.77386 0.0
O48 O 0.50286 0.74876 0.85974 0.0
Zn49 Zn 0.55674 0.718 0.94462 0.0
Zn50 Zn 0.53337 0.80309 0.77638 0.0
Zn51 Zn 0.44957 0.77825 0.94782 0.0
O52 O 0.54717 0.74497 0.08955 0.0
O53 O 0.45889 0.74897 0.09035 0.0
O54 O 0.48376 0.62215 0.83353 0.0
O55 O 0.5451 0.63943 0.95201 0.0
O56 O 0.62986 0.73049 0.88493 0.0
O57 O 0.61166 0.79104 0.76742 0.0
O58 O 0.51865 0.87651 0.83718 0.0
O59 O 0.39392 0.70853 0.76477 0.0
O60 O 0.46362 0.85616 0.96403 0.0
O61 O 0.37575 0.76778 0.88604 0.0
C62 C 0.50292 0.74945 0.58164 0.0
C63 C 0.5032 0.74718 0.13756 0.0
C64 C 0.64453 0.76053 0.81191 0.0
C65 C 0.51452 0.60707 0.90557 0.0
C66 C 0.4913 0.88985 0.91555 0.0
C67 C 0.36107 0.73854 0.81071 0.0
O68 O 0.50927 0.79315 0.6304 0.0
O69 O 0.50914 0.21006 0.34401 0.0
Zn70 Zn 0.53223 0.19746 0.19843 0.0
O71 O 0.50168 0.25079 0.11178 0.0
Zn72 Zn 0.45012 0.21922 0.02282 0.0
Zn73 Zn 0.46738 0.30439 0.19359 0.0
Zn74 Zn 0.55584 0.28187 0.02785 0.0
O75 O 0.45867 0.24848 0.8809 0.0
O76 O 0.54654 0.25706 0.88099 0.0
O77 O 0.51725 0.12295 0.14286 0.0
O78 O 0.46518 0.14133 0.00988 0.0
O79 O 0.37613 0.22862 0.08104 0.0
O80 O 0.38961 0.29025 0.20025 0.0
O81 O 0.47953 0.37744 0.13249 0.0
O82 O 0.61048 0.20874 0.20636 0.0
O83 O 0.54475 0.36059 0.02238 0.0
O84 O 0.6289 0.26851 0.08778 0.0
C85 C 0.49999 0.25414 0.3896 0.0
C86 C 0.50238 0.254 0.83333 0.0
C87 C 0.35886 0.25836 0.15322 0.0
C88 C 0.49129 0.10825 0.06336 0.0
C89 C 0.51248 0.3927 0.06476 0.0
C90 C 0.64349 0.23857 0.16122 0.0
O91 O 0.49076 0.29686 0.34042 0.0
C92 C 0.0119 0.45663 0.55203 0.0
C93 C 0.0103 0.44526 0.44598 0.0
C94 C 0.01075 0.5091 0.5889 0.0
C95 C 0.00948 0.55199 0.52083 0.0
H96 H 0.01373 0.42465 0.60709 0.0
H97 H 0.01229 0.51615 0.67092 0.0
S98 S 0.00378 0.54376 0.23652 0.0
N99 N 0.00567 0.48127 0.27387 0.0
N100 N 0.00526 0.57989 0.34267 0.0
C101 C 0.00752 0.54119 0.41472 0.0
C102 C 0.00742 0.48782 0.37738 0.0
C103 C 0.73804 0.72692 0.82441 0.0
C104 C 0.69955 0.75659 0.77155 0.0
C105 C 0.78934 0.72037 0.78522 0.0
C106 C 0.80446 0.74307 0.6912 0.0
H107 H 0.72861 0.70852 0.89694 0.0
H108 H 0.8175 0.69775 0.83 0.0
S109 S 0.71809 0.82269 0.51982 0.0
N110 N 0.67998 0.80781 0.618 0.0
N111 N 0.776 0.79534 0.54478 0.0
C112 C 0.76621 0.77239 0.63688 0.0
C113 C 0.714 0.77923 0.67691 0.0
C114 C 0.55957 0.47484 0.01157 0.0
C115 C 0.51165 0.44802 0.02836 0.0
C116 C 0.56014 0.52618 0.97082 0.0
C117 C 0.51291 0.5517 0.94189 0.0
H118 H 0.5969 0.45613 0.03089 0.0
H119 H 0.59786 0.5459 0.96105 0.0
S120 S 0.37711 0.49776 0.96742 0.0
N121 N 0.41583 0.45043 0.01267 0.0
N122 N 0.41695 0.54633 0.93253 0.0
C123 C 0.46476 0.52498 0.95677 0.0
C124 C 0.46411 0.47329 0.00105 0.0
C125 C 0.78788 0.27921 0.19 0.0
C126 C 0.8036 0.25505 0.28247 0.0
C127 C 0.73658 0.27285 0.1505 0.0
C128 C 0.69863 0.24197 0.20151 0.0
H129 H 0.81556 0.30293 0.14667 0.0
H130 H 0.7267 0.29248 0.07931 0.0
S131 S 0.71885 0.17142 0.44849 0.0
N132 N 0.77636 0.19978 0.42526 0.0
N133 N 0.68022 0.18774 0.35148 0.0
C134 C 0.71368 0.21775 0.29454 0.0
C135 C 0.76594 0.22436 0.33488 0.0
C136 C 0.28688 0.28137 0.27827 0.0
C137 C 0.30331 0.25325 0.1899 0.0
C138 C 0.23585 0.27539 0.31864 0.0
C139 C 0.19885 0.24095 0.27267 0.0
H140 H 0.31377 0.3081 0.31768 0.0
H141 H 0.22542 0.29817 0.38641 0.0
S142 S 0.2215 0.15846 0.03868 0.0
N143 N 0.27797 0.18995 0.05702 0.0
N144 N 0.18233 0.17847 0.13233 0.0
C145 C 0.21469 0.21256 0.18395 0.0
C146 C 0.26669 0.2188 0.14275 0.0
C147 C 0.26749 0.7721 0.82215 0.0
C148 C 0.30596 0.74192 0.77009 0.0
C149 C 0.21599 0.77752 0.78303 0.0
C150 C 0.20057 0.75307 0.68993 0.0
H151 H 0.27711 0.7918 0.89392 0.0
H152 H 0.18792 0.80079 0.8271 0.0
S153 S 0.28674 0.6713 0.52086 0.0
N154 N 0.32517 0.6882 0.61817 0.0
N155 N 0.22868 0.69851 0.54536 0.0
C156 C 0.23873 0.72312 0.63649 0.0
C157 C 0.29121 0.7175 0.67633 0.0
C158 C 0.49206 0.98791 0.88615 0.0
C159 C 0.49296 0.94512 0.9545 0.0
C160 C 0.49128 0.04048 0.92248 0.0
C161 C 0.49289 0.05218 0.02838 0.0
H162 H 0.49073 0.98073 0.80416 0.0
H163 H 0.48983 0.07227 0.86699 0.0
S164 S 0.49857 0.95403 0.23871 0.0
N165 N 0.49682 0.91764 0.1329 0.0
N166 N 0.4971 0.01646 0.20084 0.0
C167 C 0.49529 0.0097 0.09739 0.0
C168 C 0.4948 0.95617 0.06052 0.0
C169 C 0.03692 0.97389 0.51071 0.0
C170 C 0.9893 0.9479 0.53433 0.0
C171 C 0.03664 0.02474 0.4672 0.0
C172 C 0.98876 0.05157 0.44839 0.0
H173 H 0.07453 0.95423 0.52331 0.0
H174 H 0.07408 0.0436 0.45015 0.0
S175 S 0.85359 0.00104 0.49861 0.0
N176 N 0.89321 0.95255 0.53552 0.0
N177 N 0.89276 0.04881 0.45764 0.0
C178 C 0.94102 0.02628 0.47316 0.0
C179 C 0.94127 0.97421 0.51509 0.0
C180 C 0.9692 0.27751 0.91577 0.0
C181 C 0.00379 0.24434 0.9707 0.0
C182 C 0.96916 0.27771 0.80838 0.0
C183 C 0.00478 0.24594 0.75262 0.0
H184 H 0.94145 0.30296 0.95604 0.0
H185 H 0.94163 0.30349 0.76872 0.0
S186 S 0.10342 0.15238 0.85964 0.0
N187 N 0.07413 0.17846 0.96134 0.0
N188 N 0.07519 0.18032 0.75911 0.0
C189 C 0.03988 0.21299 0.80635 0.0
C190 C 0.03904 0.21175 0.91562 0.0
C191 C 0.02841 0.71259 0.05362 0.0
C192 C 0.00216 0.75243 -0.00185 0.0
C193 C 0.02884 0.71326 0.16103 0.0
C194 C 0.0017 0.7529 0.21614 0.0
H195 H 0.04943 0.68115 0.01373 0.0
H196 H 0.04977 0.68208 0.20122 0.0
S197 S 0.92595 0.8653 0.10698 0.0
N198 N 0.94842 0.8325 0.00591 0.0
N199 N 0.94767 0.83264 0.20816 0.0
C200 C 0.97471 0.79251 0.1617 0.0
C201 C 0.9754 0.79261 0.05245 0.0
C202 C 0.47001 0.71478 0.30552 0.0
C203 C 0.50361 0.74845 0.25026 0.0
C204 C 0.47052 0.71484 0.41303 0.0
C205 C 0.50353 0.74971 0.4685 0.0
H206 H 0.4438 0.68765 0.26535 0.0
H207 H 0.44434 0.68799 0.45295 0.0
S208 S 0.59706 0.84732 0.35855 0.0
N209 N 0.57009 0.81788 0.25768 0.0
N210 N 0.56984 0.81951 0.45988 0.0
C211 C 0.53657 0.78428 0.41378 0.0
C212 C 0.53696 0.78322 0.3045 0.0
C213 C 0.54005 0.22839 0.55669 0.0
C214 C 0.50041 0.25562 0.50237 0.0
C215 C 0.54117 0.22912 0.66414 0.0
C216 C 0.50179 0.25578 0.72048 0.0
H217 H 0.57069 0.20686 0.51582 0.0
H218 H 0.57237 0.20771 0.70335 0.0
S219 S 0.38933 0.33271 0.61402 0.0
N220 N 0.42137 0.31045 0.51213 0.0
N221 N 0.42235 0.31031 0.71436 0.0
C222 C 0.46182 0.28293 0.66697 0.0
C223 C 0.46146 0.28329 0.55769 0.0
loop_
_geom_bond_atom_site_label_1
_geom_bond_atom_site_label_2
_geom_bond_distance
_geom_bond_site_symmetry_2
_ccdc_geom_bond_type
O0 Zn1 1.953 . S
O0 C16 1.225 . S
Zn1 O0 1.953 . S
Zn1 O2 1.949 . S
Zn1 O8 1.919 . S
Zn1 O13 1.924 . S
O2 Zn1 1.949 . S
O2 Zn3 1.923 . S
O2 Zn4 1.950 1_455 S
O2 Zn5 1.945 1_455 S
Zn3 O2 1.923 . S
Zn3 O6 1.933 . S
Zn3 O9 1.941 . S
Zn3 O10 1.965 . S
Zn4 O2 1.950 1_655 S
Zn4 O11 1.938 . S
Zn4 O12 1.906 . S
Zn4 O22 1.953 . S
Zn5 O2 1.945 1_655 S
Zn5 O7 1.932 . S
Zn5 O14 1.977 . S
Zn5 O15 1.910 . S
O6 Zn3 1.933 . S
O6 C17 1.226 . S
O7 Zn5 1.932 . S
O7 C17 1.307 1_655 S
O8 Zn1 1.919 . S
O8 C19 1.253 . S
O9 Zn3 1.941 . S
O9 C19 1.283 . S
O10 Zn3 1.965 . S
O10 C18 1.310 . S
O11 Zn4 1.938 . S
O11 C18 1.236 1_655 S
O12 Zn4 1.906 . S
O12 C20 1.304 . S
O13 Zn1 1.924 . S
O13 C21 1.311 . S
O14 Zn5 1.977 . S
O14 C20 1.272 . S
O15 Zn5 1.910 . S
O15 C21 1.231 1_655 S
C16 O0 1.225 . S
C16 O22 1.298 1_455 S
C17 O6 1.226 . S
C17 O7 1.307 1_455 S
C18 O10 1.310 . S
C18 O11 1.236 1_455 S
C19 O8 1.253 . S
C19 O9 1.283 . S
C20 O12 1.304 . S
C20 O14 1.272 . S
C21 O13 1.311 . S
C21 O15 1.231 1_455 S
O22 Zn4 1.953 . S
O22 C16 1.298 1_655 S
O23 Zn24 1.953 . S
O23 C39 1.225 . S
Zn24 O23 1.953 . S
Zn24 O25 1.949 . S
Zn24 O31 1.919 . S
Zn24 O36 1.924 . S
O25 Zn24 1.949 . S
O25 Zn26 1.923 . S
O25 Zn27 1.950 1_455 S
O25 Zn28 1.945 1_455 S
Zn26 O25 1.923 . S
Zn26 O29 1.933 . S
Zn26 O32 1.941 . S
Zn26 O33 1.965 . S
Zn27 O25 1.950 1_655 S
Zn27 O34 1.938 . S
Zn27 O35 1.906 . S
Zn27 O45 1.953 . S
Zn28 O25 1.945 1_655 S
Zn28 O30 1.932 . S
Zn28 O37 1.977 . S
Zn28 O38 1.910 . S
O29 Zn26 1.933 . S
O29 C40 1.226 . S
O30 Zn28 1.932 . S
O30 C40 1.307 1_655 S
O31 Zn24 1.919 . S
O31 C42 1.253 . S
O32 Zn26 1.941 . S
O32 C42 1.283 . S
O33 Zn26 1.965 . S
O33 C41 1.303 1_455 S
O34 Zn27 1.938 . S
O34 C41 1.247 . S
O35 Zn27 1.906 . S
O35 C43 1.304 . S
O36 Zn24 1.924 . S
O36 C44 1.311 . S
O37 Zn28 1.977 . S
O37 C43 1.272 . S
O38 Zn28 1.910 . S
O38 C44 1.231 1_655 S
C39 O23 1.225 . S
C39 O45 1.298 1_455 S
C40 O29 1.226 . S
C40 O30 1.307 1_455 S
C41 O33 1.303 1_655 S
C41 O34 1.247 . S
C42 O31 1.253 . S
C42 O32 1.283 . S
C43 O35 1.304 . S
C43 O37 1.272 . S
C44 O36 1.311 . S
C44 O38 1.231 1_455 S
O45 Zn27 1.953 . S
O45 C39 1.298 1_655 S
O46 Zn47 1.953 . S
O46 C62 1.225 . S
Zn47 O46 1.953 . S
Zn47 O48 1.949 . S
Zn47 O54 1.919 . S
Zn47 O59 1.924 . S
O48 Zn47 1.949 . S
O48 Zn49 1.923 . S
O48 Zn50 1.950 . S
O48 Zn51 1.945 . S
Zn49 O48 1.923 . S
Zn49 O52 1.933 1_556 S
Zn49 O55 1.941 . S
Zn49 O56 1.965 . S
Zn50 O48 1.950 . S
Zn50 O57 1.938 . S
Zn50 O58 1.906 . S
Zn50 O68 1.953 . S
Zn51 O48 1.945 . S
Zn51 O53 1.932 1_556 S
Zn51 O60 1.977 . S
Zn51 O61 1.910 . S
O52 Zn49 1.933 1_554 S
O52 C63 1.226 . S
O53 Zn51 1.932 1_554 S
O53 C63 1.307 . S
O54 Zn47 1.919 . S
O54 C65 1.253 . S
O55 Zn49 1.941 . S
O55 C65 1.283 . S
O56 Zn49 1.965 . S
O56 C64 1.303 . S
O57 Zn50 1.938 . S
O57 C64 1.247 . S
O58 Zn50 1.906 . S
O58 C66 1.304 . S
O59 Zn47 1.924 . S
O59 C67 1.311 . S
O60 Zn51 1.977 . S
O60 C66 1.272 . S
O61 Zn51 1.910 . S
O61 C67 1.231 . S
C62 O46 1.225 . S
C62 O68 1.298 . S
C63 O52 1.226 . S
C63 O53 1.307 . S
C64 O56 1.303 . S
C64 O57 1.247 . S
C65 O54 1.253 . S
C65 O55 1.283 . S
C66 O58 1.304 . S
C66 O60 1.272 . S
C67 O59 1.311 . S
C67 O61 1.231 . S
O68 Zn50 1.953 . S
O68 C62 1.298 . S
O69 Zn70 1.953 . S
O69 C85 1.225 . S
Zn70 O69 1.953 . S
Zn70 O71 1.949 . S
Zn70 O77 1.919 . S
Zn70 O82 1.924 . S
O71 Zn70 1.949 . S
O71 Zn72 1.923 . S
O71 Zn73 1.950 . S
O71 Zn74 1.945 . S
Zn72 O71 1.923 . S
Zn72 O75 1.933 1_554 S
Zn72 O78 1.941 . S
Zn72 O79 1.965 . S
Zn73 O71 1.950 . S
Zn73 O80 1.938 . S
Zn73 O81 1.906 . S
Zn73 O91 1.953 . S
Zn74 O71 1.945 . S
Zn74 O76 1.932 1_554 S
Zn74 O83 1.977 . S
Zn74 O84 1.910 . S
O75 Zn72 1.933 1_556 S
O75 C86 1.226 . S
O76 Zn74 1.932 1_556 S
O76 C86 1.307 . S
O77 Zn70 1.919 . S
O77 C88 1.253 . S
O78 Zn72 1.941 . S
O78 C88 1.283 . S
O79 Zn72 1.965 . S
O79 C87 1.303 . S
O80 Zn73 1.938 . S
O80 C87 1.247 . S
O81 Zn73 1.906 . S
O81 C89 1.304 . S
O82 Zn70 1.924 . S
O82 C90 1.311 . S
O83 Zn74 1.977 . S
O83 C89 1.272 . S
O84 Zn74 1.910 . S
O84 C90 1.231 . S
C85 O69 1.225 . S
C85 O91 1.298 . S
C86 O75 1.226 . S
C86 O76 1.307 . S
C87 O79 1.303 . S
C87 O80 1.247 . S
C88 O77 1.253 . S
C88 O78 1.283 . S
C89 O81 1.304 . S
C89 O83 1.272 . S
C90 O82 1.311 . S
C90 O84 1.231 . S
O91 Zn73 1.953 . S
O91 C85 1.298 . S
C92 C93 1.369 . S
C92 C94 1.419 . S
C92 H96 0.930 . S
C93 C92 1.369 . S
C93 C102 1.429 1_455 S
C94 C92 1.419 . S
C94 C95 1.363 . S
C94 H97 0.929 . S
C95 C94 1.363 . S
C95 C101 1.428 1_455 S
H96 C92 0.930 . S
H97 C94 0.929 . S
S98 N99 1.613 . S
S98 N100 1.610 . S
N99 S98 1.613 . S
N99 C102 1.350 . S
N100 S98 1.610 . S
N100 C101 1.351 . S
C101 C95 1.428 1_655 S
C101 N100 1.351 . S
C101 C102 1.434 . S
C102 C93 1.429 1_655 S
C102 N99 1.350 . S
C102 C101 1.434 . S
C103 C104 1.369 . S
C103 C105 1.419 . S
C103 H107 0.930 . S
C104 C103 1.369 . S
C104 C113 1.429 . S
C105 C103 1.419 . S
C105 C106 1.363 . S
C105 H108 0.929 . S
C106 C105 1.363 . S
C106 C112 1.428 . S
H107 C103 0.930 . S
H108 C105 0.929 . S
S109 N110 1.613 . S
S109 N111 1.610 . S
N110 S109 1.613 . S
N110 C113 1.350 . S
N111 S109 1.610 . S
N111 C112 1.351 . S
C112 C106 1.428 . S
C112 N111 1.351 . S
C112 C113 1.434 . S
C113 C104 1.429 . S
C113 N110 1.350 . S
C113 C112 1.434 . S
C114 C115 1.369 . S
C114 C116 1.419 . S
C114 H118 0.930 . S
C115 C114 1.369 . S
C115 C124 1.429 1_554 S
C116 C114 1.419 . S
C116 C117 1.363 1_554 S
C116 H119 0.929 . S
C117 C116 1.363 1_556 S
C117 C123 1.428 . S
H118 C114 0.930 . S
H119 C116 0.929 . S
S120 N121 1.613 . S
S120 N122 1.610 . S
N121 S120 1.613 . S
N121 C124 1.350 . S
N122 S120 1.610 . S
N122 C123 1.351 . S
C123 C117 1.428 . S
C123 N122 1.351 . S
C123 C124 1.434 . S
C124 C115 1.429 1_556 S
C124 N121 1.350 . S
C124 C123 1.434 . S
C125 C126 1.369 . S
C125 C127 1.419 . S
C125 H129 0.930 . S
C126 C125 1.369 . S
C126 C135 1.429 . S
C127 C125 1.419 . S
C127 C128 1.363 . S
C127 H130 0.929 . S
C128 C127 1.363 . S
C128 C134 1.428 . S
H129 C125 0.930 . S
H130 C127 0.929 . S
S131 N132 1.613 . S
S131 N133 1.610 . S
N132 S131 1.613 . S
N132 C135 1.350 . S
N133 S131 1.610 . S
N133 C134 1.351 . S
C134 C128 1.428 . S
C134 N133 1.351 . S
C134 C135 1.434 . S
C135 C126 1.429 . S
C135 N132 1.350 . S
C135 C134 1.434 . S
C136 C137 1.369 . S
C136 C138 1.419 . S
C136 H140 0.930 . S
C137 C136 1.369 . S
C137 C146 1.429 . S
C138 C136 1.419 . S
C138 C139 1.363 . S
C138 H141 0.929 . S
C139 C138 1.363 . S
C139 C145 1.428 . S
H140 C136 0.930 . S
H141 C138 0.929 . S
S142 N143 1.613 1_556 S
S142 N144 1.610 1_556 S
N143 S142 1.613 1_554 S
N143 C146 1.350 . S
N144 S142 1.610 1_554 S
N144 C145 1.351 . S
C145 C139 1.428 . S
C145 N144 1.351 . S
C145 C146 1.434 . S
C146 C137 1.429 . S
C146 N143 1.350 . S
C146 C145 1.434 . S
C147 C148 1.369 . S
C147 C149 1.419 . S
C147 H151 0.930 . S
C148 C147 1.369 . S
C148 C157 1.429 . S
C149 C147 1.419 . S
C149 C150 1.363 . S
C149 H152 0.929 . S
C150 C149 1.363 . S
C150 C156 1.428 . S
H151 C147 0.930 . S
H152 C149 0.929 . S
S153 N154 1.613 . S
S153 N155 1.610 . S
N154 S153 1.613 . S
N154 C157 1.350 . S
N155 S153 1.610 . S
N155 C156 1.351 . S
C156 C150 1.428 . S
C156 N155 1.351 . S
C156 C157 1.434 . S
C157 C148 1.429 . S
C157 N154 1.350 . S
C157 C156 1.434 . S
C158 C159 1.369 . S
C158 C160 1.419 1_565 S
C158 H162 0.930 . S
C159 C158 1.369 . S
C159 C168 1.429 1_556 S
C160 C158 1.419 1_545 S
C160 C161 1.363 1_556 S
C160 H163 0.929 . S
C161 C160 1.363 1_554 S
C161 C167 1.428 . S
H162 C158 0.930 . S
H163 C160 0.929 . S
S164 N165 1.613 . S
S164 N166 1.610 1_565 S
N165 S164 1.613 . S
N165 C168 1.350 . S
N166 S164 1.610 1_545 S
N166 C167 1.351 . S
C167 C161 1.428 . S
C167 N166 1.351 . S
C167 C168 1.434 1_545 S
C168 C159 1.429 1_554 S
C168 N165 1.350 . S
C168 C167 1.434 1_565 S
C169 C170 1.369 . S
C169 C171 1.419 1_565 S
C169 H173 0.930 . S
C170 C169 1.369 . S
C170 C179 1.429 1_455 S
C171 C169 1.419 1_545 S
C171 C172 1.363 . S
C171 H174 0.929 . S
C172 C171 1.363 . S
C172 C178 1.428 1_455 S
H173 C169 0.930 . S
H174 C171 0.929 . S
S175 N176 1.613 . S
S175 N177 1.610 1_565 S
N176 S175 1.613 . S
N176 C179 1.350 . S
N177 S175 1.610 1_545 S
N177 C178 1.351 . S
C178 C172 1.428 1_655 S
C178 N177 1.351 . S
C178 C179 1.434 1_545 S
C179 C170 1.429 1_655 S
C179 N176 1.350 . S
C179 C178 1.434 1_565 S
C180 C181 1.369 1_655 S
C180 C182 1.419 . S
C180 H184 0.930 . S
C181 C180 1.369 1_455 S
C181 C190 1.429 . S
C182 C180 1.419 . S
C182 C183 1.363 1_655 S
C182 H185 0.929 . S
C183 C182 1.363 1_455 S
C183 C189 1.428 . S
H184 C180 0.930 . S
H185 C182 0.929 . S
S186 N187 1.613 . S
S186 N188 1.610 . S
N187 S186 1.613 . S
N187 C190 1.350 . S
N188 S186 1.610 . S
N188 C189 1.351 . S
C189 C183 1.428 . S
C189 N188 1.351 . S
C189 C190 1.434 . S
C190 C181 1.429 . S
C190 N187 1.350 . S
C190 C189 1.434 . S
C191 C192 1.369 . S
C191 C193 1.419 . S
C191 H195 0.930 . S
C192 C191 1.369 . S
C192 C201 1.429 1_455 S
C193 C191 1.419 . S
C193 C194 1.363 . S
C193 H196 0.929 . S
C194 C193 1.363 . S
C194 C200 1.428 1_455 S
H195 C191 0.930 . S
H196 C193 0.929 . S
S197 N198 1.613 . S
S197 N199 1.610 . S
N198 S197 1.613 . S
N198 C201 1.350 . S
N199 S197 1.610 . S
N199 C200 1.351 . S
C200 C194 1.428 1_655 S
C200 N199 1.351 . S
C200 C201 1.434 . S
C201 C192 1.429 1_655 S
C201 N198 1.350 . S
C201 C200 1.434 . S
C202 C203 1.369 . S
C202 C204 1.419 . S
C202 H206 0.930 . S
C203 C202 1.369 . S
C203 C212 1.429 . S
C204 C202 1.419 . S
C204 C205 1.363 . S
C204 H207 0.929 . S
C205 C204 1.363 . S
C205 C211 1.428 . S
H206 C202 0.930 . S
H207 C204 0.929 . S
S208 N209 1.613 . S
S208 N210 1.610 . S
N209 S208 1.613 . S
N209 C212 1.350 . S
N210 S208 1.610 . S
N210 C211 1.351 . S
C211 C205 1.428 . S
C211 N210 1.351 . S
C211 C212 1.434 . S
C212 C203 1.429 . S
C212 N209 1.350 . S
C212 C211 1.434 . S
C213 C214 1.369 . S
C213 C215 1.419 . S
C213 H217 0.930 . S
C214 C213 1.369 . S
C214 C223 1.429 . S
C215 C213 1.419 . S
C215 C216 1.363 . S
C215 H218 0.929 . S
C216 C215 1.363 . S
C216 C222 1.428 . S
H217 C213 0.930 . S
H218 C215 0.929 . S
S219 N220 1.613 . S
S219 N221 1.610 . S
N220 S219 1.613 . S
N220 C223 1.350 . S
N221 S219 1.610 . S
N221 C222 1.351 . S
C222 C216 1.428 . S
C222 N221 1.351 . S
C222 C223 1.434 . S
C223 C214 1.429 . S
C223 N220 1.350 . S
C223 C222 1.434 . S
C93 C21 1.588 . S
C95 C44 1.587 . S
C104 C64 1.601 . S
C106 C43 1.612 . S
C115 C89 1.602 . S
C117 C65 1.605 . S
C126 C20 1.568 . S
C128 C90 1.569 . S
C137 C87 1.604 . S
C139 C19 1.620 . S
C148 C67 1.574 . S
C150 C42 1.573 . S
C159 C66 1.554 . S
C161 C88 1.556 . S
C170 C41 1.615 1_455 S
C172 C18 1.612 . S
C181 C17 1.332 1_556 S
C183 C16 1.333 . S
C192 C40 1.332 1_554 S
C194 C39 1.334 . S
C203 C63 1.332 . S
C205 C62 1.334 . S
C214 C85 1.334 . S
C216 C86 1.332 . S
