# Generated by pormake.
# Topology sxb, (6)-cn, num edge types: 1
# Building blocks:
#     Node 0, Type 0, BuildingBlock: CIFDUS_clean_sbu_1, # of connection points: 6
#     Node 1, Type 0, BuildingBlock: CIFDUS_clean_sbu_1, # of connection points: 6
#     Node 2, Type 0, BuildingBlock: CIFDUS_clean_sbu_1, # of connection points: 6
#     Node 3, Type 0, BuildingBlock: CIFDUS_clean_sbu_1, # of connection points: 6
#     Edge 4, Type (0, 0), BuildingBlock: EYOCIG_clean_linker_4, # of connection points: 2
#     Edge 5, Type (0, 0), BuildingBlock: EYOCIG_clean_linker_4, # of connection points: 2
#     Edge 6, Type (0, 0), BuildingBlock: EYOCIG_clean_linker_4, # of connection points: 2
#     Edge 7, Type (0, 0), BuildingBlock: EYOCIG_clean_linker_4, # of connection points: 2
#     Edge 8, Type (0, 0), BuildingBlock: EYOCIG_clean_linker_4, # of connection points: 2
#     Edge 9, Type (0, 0), BuildingBlock: EYOCIG_clean_linker_4, # of connection points: 2
#     Edge 10, Type (0, 0), BuildingBlock: EYOCIG_clean_linker_4, # of connection points: 2
#     Edge 11, Type (0, 0), BuildingBlock: EYOCIG_clean_linker_4, # of connection points: 2
#     Edge 12, Type (0, 0), BuildingBlock: EYOCIG_clean_linker_4, # of connection points: 2
#     Edge 13, Type (0, 0), BuildingBlock: EYOCIG_clean_linker_4, # of connection points: 2
#     Edge 14, Type (0, 0), BuildingBlock: EYOCIG_clean_linker_4, # of connection points: 2
#     Edge 15, Type (0, 0), BuildingBlock: EYOCIG_clean_linker_4, # of connection points: 2
# Relax obj value: 0.096
# Max RMSD: 0.134
# Mean RMSD: 0.134
data_MOF--net-sxb--node1-CIFDUS_clean_sbu_1--edge1-EYOCIG_clean_linker_4
_symmetry_space_group_name_H-M    P1
_symmetry_Int_Tables_number       1
_symmetry_cell_setting            triclinic
loop_
_symmetry_equiv_pos_as_xyz
'x, y, z'
_cell_length_a     12.374025
_cell_length_b     21.8648
_cell_length_c     24.011719
_cell_angle_alpha  89.760818
_cell_angle_beta   113.01216
_cell_angle_gamma 90.010735
loop_
_atom_site_label
_atom_site_type_symbol
_atom_site_fract_x
_atom_site_fract_y
_atom_site_fract_z
_atom_type_partial_charge
O0 O 0.07202 0.93486 1.04814 0.0
Mn1 Mn 0.03316 0.02604 0.06427 0.0
O2 O 0.19661 0.89562 0.13664 0.0
Mn3 Mn 0.23435 0.97047 0.17372 0.0
O4 O 0.99447 0.11721 0.08059 0.0
O5 O 0.96014 0.03748 0.97205 0.0
Mn6 Mn 0.83355 0.08286 0.9551 0.0
O7 O 0.87098 1.00194 0.06584 0.0
O8 O 0.87407 0.15768 0.99189 0.0
O9 O 0.19522 0.05023 0.06255 0.0
O10 O 0.33443 1.01387 0.14891 0.0
O11 O 0.83733 0.06837 0.88159 0.0
O12 O 0.73262 0.04087 0.98047 0.0
C13 C 0.13471 1.01409 0.21489 0.0
C14 C 0.13656 0.891 0.08029 0.0
C15 C 0.93217 0.16169 1.04845 0.0
C16 C 0.93067 0.03764 0.91352 0.0
C17 C 0.76372 1.01309 1.03088 0.0
C18 C 0.30276 0.04051 0.09792 0.0
O19 O 0.10603 1.01448 0.15643 0.0
O20 O 0.229 0.98419 0.24705 0.0
O21 O 0.18068 1.00119 0.54696 0.0
Mn22 Mn 0.02873 0.02366 0.56315 0.0
O23 O 0.31556 0.9712 0.6351 0.0
Mn24 Mn 0.25965 0.02624 0.67447 0.0
O25 O 0.87665 0.04614 0.57922 0.0
O26 O 0.94766 0.03768 0.4713 0.0
Mn27 Mn 0.79788 1.02071 0.4515 0.0
O28 O 0.96407 0.93327 0.55199 0.0
O29 O 0.74123 0.07541 0.49084 0.0
O30 O 0.09346 0.11404 0.57433 0.0
O31 O 0.26968 0.10714 0.65314 0.0
O32 O 0.80602 0.04104 0.37993 0.0
O33 O 0.7884 0.93974 0.47273 0.0
C34 C 0.14181 0.99964 0.71303 0.0
C35 C 0.28437 0.98137 0.57924 0.0
C36 C 0.77272 0.0656 0.54679 0.0
C37 C 0.91633 0.04787 0.41343 0.0
C38 C 0.86462 0.91038 0.5165 0.0
C39 C 0.19328 0.1367 0.60962 0.0
O40 O 0.10979 1.00968 0.65507 0.0
O41 O 0.25233 1.00623 0.74623 0.0
O42 O 0.59706 0.43508 0.07552 0.0
Mn43 Mn 0.53242 0.52558 0.06439 0.0
O44 O 0.77295 0.441 0.15463 0.0
Mn45 Mn 0.76331 0.52172 0.176 0.0
O46 O 0.46812 0.61616 0.0534 0.0
O47 O 0.45132 0.51231 0.9725 0.0
Mn48 Mn 0.30181 0.53003 0.95289 0.0
O49 O 0.38041 0.50296 0.08051 0.0
O50 O 0.29275 0.61087 0.97396 0.0
O51 O 0.68447 0.5482 1.04833 0.0
O52 O 0.81955 0.577 0.13665 0.0
O53 O 0.3089 0.5101 0.88123 0.0
O54 O 0.2442 0.47526 0.99204 0.0
C55 C 0.64487 0.54842 0.2141 0.0
C56 C 0.69669 0.41198 0.11091 0.0
C57 C 0.369 0.63963 1.01787 0.0
C58 C 0.41915 0.50242 0.91458 0.0
C59 C 0.27624 0.4841 1.04809 0.0
C60 C 0.78828 0.56754 0.08074 0.0
O61 O 0.61352 0.53875 0.15623 0.0
O62 O 0.75518 0.54128 0.24759 0.0
O63 O 0.69131 0.49939 0.56146 0.0
Mn64 Mn 0.52936 0.52352 0.56335 0.0
O65 O 0.8306 0.53549 0.64751 0.0
Mn66 Mn 0.73047 0.57846 0.67239 0.0
O67 O 0.36733 0.54759 0.56516 0.0
O68 O 0.45621 0.51271 0.47123 0.0
Mn69 Mn 0.32826 0.46856 0.45403 0.0
O70 O 0.49074 0.43218 0.57962 0.0
O71 O 0.22818 0.51151 0.479 0.0
O72 O 0.56785 0.61484 0.547 0.0
O73 O 0.69221 0.65361 0.63535 0.0
O74 O 0.3333 0.4831 0.38066 0.0
O75 O 0.36671 0.39343 0.49114 0.0
C76 C 0.63201 0.53444 0.7141 0.0
C77 C 0.79886 0.50906 0.59666 0.0
C78 C 0.25982 0.5379 0.52989 0.0
C79 C 0.42741 0.51289 0.41277 0.0
C80 C 0.42659 0.38847 0.54751 0.0
C81 C 0.63208 0.65857 0.57901 0.0
O82 O 0.60255 0.53432 0.65556 0.0
O83 O 0.72627 0.56428 0.74593 0.0
C84 C 0.27948 0.74408 1.0351 0.0
C85 C 0.33064 0.69786 1.03174 0.0
C86 C 0.2123 0.7948 1.04058 0.0
C87 C 0.16711 0.83985 0.05151 0.0
C88 C 0.78719 0.30782 0.09373 0.0
C89 C 0.73555 0.35387 0.09708 0.0
C90 C 0.85485 0.25733 0.08822 0.0
C91 C 0.90039 0.21246 0.07721 0.0
C92 C 0.28345 0.24124 0.59271 0.0
C93 C 0.23199 0.19506 0.59597 0.0
C94 C 0.35082 0.29197 0.5873 0.0
C95 C 0.39605 0.3371 0.57636 0.0
C96 C 0.77466 0.80583 0.53355 0.0
C97 C 0.82597 0.85205 0.53024 0.0
C98 C 0.70745 0.75508 0.53905 0.0
C99 C 0.66237 0.70994 0.55006 0.0
C100 C 0.48064 0.03539 0.06674 0.0
C101 C 0.39081 0.04294 0.07377 0.0
C102 C 0.58571 1.01784 0.06192 0.0
C103 C 0.67556 1.01024 0.05492 0.0
C104 C 0.47275 1.01314 0.56083 0.0
C105 C 0.37913 0.99938 0.56219 0.0
C106 C 0.58453 0.03416 0.5655 0.0
C107 C 0.67817 0.04783 0.5641 0.0
C108 C 0.97665 0.53603 0.06239 0.0
C109 C 0.88296 0.54977 0.06364 0.0
C110 C 0.08847 0.51498 0.0672 0.0
C111 C 0.18212 0.50141 0.06581 0.0
C112 C 0.08185 0.53234 0.56091 0.0
C113 C 0.17178 0.54014 0.55403 0.0
C114 C 0.97669 0.51452 0.56552 0.0
C115 C 0.88679 0.50675 0.57245 0.0
C116 C 0.02662 0.06362 0.34206 0.0
C117 C 0.99483 0.05793 0.3834 0.0
C118 C 0.04653 0.05889 0.28797 0.0
C119 C 0.07126 0.04364 0.24608 0.0
C120 C 0.01495 0.99062 0.83977 0.0
C121 C 0.99197 1.00674 0.88197 0.0
C122 C 0.03314 0.98506 0.78527 0.0
C123 C 0.06389 0.99019 0.7435 0.0
C124 C 0.51505 0.55864 0.3396 0.0
C125 C 0.49057 0.54293 0.38154 0.0
C126 C 0.53473 0.5638 0.28546 0.0
C127 C 0.56642 0.55836 0.2441 0.0
C128 C 0.54576 0.48949 0.78811 0.0
C129 C 0.56933 0.50471 0.74575 0.0
C130 C 0.52742 0.48511 0.84268 0.0
C131 C 0.49682 0.49135 0.88434 0.0
loop_
_geom_bond_atom_site_label_1
_geom_bond_atom_site_label_2
_geom_bond_distance
_geom_bond_site_symmetry_2
_ccdc_geom_bond_type
O0 Mn1 2.163 1_566 S
O0 C14 1.244 1_556 S
Mn1 O0 2.163 1_544 S
Mn1 O4 2.160 . S
Mn1 O5 2.221 1_454 S
Mn1 O7 2.163 1_445 S
Mn1 O9 2.160 . S
Mn1 O19 2.221 . S
O2 Mn3 2.087 . S
O2 C14 1.256 . S
Mn3 O2 2.087 . S
Mn3 O10 2.089 . S
Mn3 O19 2.290 1_565 S
Mn3 O20 2.251 . S
O4 Mn1 2.160 . S
O4 C15 1.239 1_455 S
O5 Mn1 2.221 1_656 S
O5 Mn6 2.290 . S
O5 C16 1.273 1_545 S
Mn6 O5 2.290 . S
Mn6 O8 2.089 . S
Mn6 O11 2.251 . S
Mn6 O12 2.087 . S
O7 Mn1 2.163 1_665 S
O7 C17 1.244 . S
O8 Mn6 2.089 . S
O8 C15 1.256 1_556 S
O9 Mn1 2.160 . S
O9 C18 1.239 . S
O10 Mn3 2.089 . S
O10 C18 1.256 1_565 S
O11 Mn6 2.251 . S
O11 C16 1.241 1_545 S
O12 Mn6 2.087 . S
O12 C17 1.256 1_546 S
C13 O19 1.278 1_565 S
C13 O20 1.241 . S
C14 O0 1.244 1_554 S
C14 O2 1.256 . S
C15 O4 1.239 1_655 S
C15 O8 1.256 1_554 S
C16 O5 1.273 1_565 S
C16 O11 1.241 1_565 S
C17 O7 1.244 . S
C17 O12 1.256 1_564 S
C18 O9 1.239 . S
C18 O10 1.256 1_545 S
O19 Mn1 2.221 . S
O19 Mn3 2.290 1_545 S
O19 C13 1.278 1_545 S
O20 Mn3 2.251 . S
O20 C13 1.241 . S
O21 Mn22 2.163 1_465 S
O21 C35 1.244 . S
Mn22 O21 2.163 1_645 S
Mn22 O25 2.160 . S
Mn22 O26 2.221 . S
Mn22 O28 2.163 1_545 S
Mn22 O30 2.160 1_655 S
Mn22 O40 2.221 1_655 S
O23 Mn24 2.087 . S
O23 C35 1.256 1_545 S
Mn24 O23 2.087 . S
Mn24 O31 2.089 . S
Mn24 O40 2.290 . S
Mn24 O41 2.251 . S
O25 Mn22 2.160 . S
O25 C36 1.239 . S
O26 Mn22 2.221 . S
O26 Mn27 2.290 1_545 S
O26 C37 1.278 1_545 S
Mn27 O26 2.290 1_565 S
Mn27 O29 2.089 . S
Mn27 O32 2.251 . S
Mn27 O33 2.087 . S
O28 Mn22 2.163 1_565 S
O28 C38 1.244 . S
O29 Mn27 2.089 . S
O29 C36 1.256 1_565 S
O30 Mn22 2.160 1_455 S
O30 C39 1.239 . S
O31 Mn24 2.089 . S
O31 C39 1.256 . S
O32 Mn27 2.251 . S
O32 C37 1.241 . S
O33 Mn27 2.087 . S
O33 C38 1.256 . S
C34 O40 1.273 1_565 S
C34 O41 1.241 1_565 S
C35 O21 1.244 . S
C35 O23 1.256 1_565 S
C36 O25 1.239 . S
C36 O29 1.256 1_545 S
C37 O26 1.278 1_565 S
C37 O32 1.241 . S
C38 O28 1.244 . S
C38 O33 1.256 . S
C39 O30 1.239 . S
C39 O31 1.256 . S
O40 Mn22 2.221 1_455 S
O40 Mn24 2.290 . S
O40 C34 1.273 1_545 S
O41 Mn24 2.251 . S
O41 C34 1.241 1_545 S
O42 Mn43 2.163 1_556 S
O42 C56 1.244 1_556 S
Mn43 O42 2.163 1_554 S
Mn43 O46 2.160 . S
Mn43 O47 2.221 1_554 S
Mn43 O49 2.163 . S
Mn43 O51 2.160 . S
Mn43 O61 2.221 . S
O44 Mn45 2.087 . S
O44 C56 1.256 . S
Mn45 O44 2.087 . S
Mn45 O52 2.089 . S
Mn45 O61 2.290 . S
Mn45 O62 2.251 . S
O46 Mn43 2.160 . S
O46 C57 1.239 . S
O47 Mn43 2.221 1_556 S
O47 Mn48 2.290 . S
O47 C58 1.278 . S
Mn48 O47 2.290 . S
Mn48 O50 2.089 . S
Mn48 O53 2.251 . S
Mn48 O54 2.087 . S
O49 Mn43 2.163 . S
O49 C59 1.244 . S
O50 Mn48 2.089 . S
O50 C57 1.256 1_556 S
O51 Mn43 2.160 . S
O51 C60 1.239 . S
O52 Mn45 2.089 . S
O52 C60 1.256 . S
O53 Mn48 2.251 . S
O53 C58 1.241 . S
O54 Mn48 2.087 . S
O54 C59 1.256 1_556 S
C55 O61 1.278 . S
C55 O62 1.241 . S
C56 O42 1.244 1_554 S
C56 O44 1.256 . S
C57 O46 1.239 . S
C57 O50 1.256 1_554 S
C58 O47 1.278 . S
C58 O53 1.241 . S
C59 O49 1.244 . S
C59 O54 1.256 1_554 S
C60 O51 1.239 . S
C60 O52 1.256 . S
O61 Mn43 2.221 . S
O61 Mn45 2.290 . S
O61 C55 1.278 . S
O62 Mn45 2.251 . S
O62 C55 1.241 . S
O63 Mn64 2.163 . S
O63 C77 1.244 . S
Mn64 O63 2.163 . S
Mn64 O67 2.160 . S
Mn64 O68 2.221 . S
Mn64 O70 2.163 . S
Mn64 O72 2.160 . S
Mn64 O82 2.221 . S
O65 Mn66 2.087 . S
O65 C77 1.256 . S
Mn66 O65 2.087 . S
Mn66 O73 2.089 . S
Mn66 O82 2.290 . S
Mn66 O83 2.251 . S
O67 Mn64 2.160 . S
O67 C78 1.239 . S
O68 Mn64 2.221 . S
O68 Mn69 2.290 . S
O68 C79 1.278 . S
Mn69 O68 2.290 . S
Mn69 O71 2.089 . S
Mn69 O74 2.251 . S
Mn69 O75 2.087 . S
O70 Mn64 2.163 . S
O70 C80 1.244 . S
O71 Mn69 2.089 . S
O71 C78 1.256 . S
O72 Mn64 2.160 . S
O72 C81 1.239 . S
O73 Mn66 2.089 . S
O73 C81 1.256 . S
O74 Mn69 2.251 . S
O74 C79 1.241 . S
O75 Mn69 2.087 . S
O75 C80 1.256 . S
C76 O82 1.278 . S
C76 O83 1.241 . S
C77 O63 1.244 . S
C77 O65 1.256 . S
C78 O67 1.239 . S
C78 O71 1.256 . S
C79 O68 1.278 . S
C79 O74 1.241 . S
C80 O70 1.244 . S
C80 O75 1.256 . S
C81 O72 1.239 . S
C81 O73 1.256 . S
O82 Mn64 2.221 . S
O82 Mn66 2.290 . S
O82 C76 1.278 . S
O83 Mn66 2.251 . S
O83 C76 1.241 . S
C84 C85 1.170 . S
C84 C86 1.380 . S
C85 C84 1.170 . S
C86 C84 1.380 . S
C86 C87 1.170 . S
C87 C86 1.170 . S
C88 C89 1.170 . S
C88 C90 1.380 . S
C89 C88 1.170 . S
C90 C88 1.380 . S
C90 C91 1.170 . S
C91 C90 1.170 . S
C92 C93 1.170 . S
C92 C94 1.380 . S
C93 C92 1.170 . S
C94 C92 1.380 . S
C94 C95 1.170 . S
C95 C94 1.170 . S
C96 C97 1.170 . S
C96 C98 1.380 . S
C97 C96 1.170 . S
C98 C96 1.380 . S
C98 C99 1.170 . S
C99 C98 1.170 . S
C100 C101 1.170 . S
C100 C102 1.380 1_545 S
C101 C100 1.170 . S
C102 C100 1.380 1_565 S
C102 C103 1.170 . S
C103 C102 1.170 . S
C104 C105 1.170 1_545 S
C104 C106 1.380 . S
C105 C104 1.170 1_565 S
C106 C104 1.380 . S
C106 C107 1.170 . S
C107 C106 1.170 . S
C108 C109 1.170 . S
C108 C110 1.380 1_655 S
C109 C108 1.170 . S
C110 C108 1.380 1_455 S
C110 C111 1.170 . S
C111 C110 1.170 . S
C112 C113 1.170 . S
C112 C114 1.380 1_455 S
C113 C112 1.170 . S
C114 C112 1.380 1_655 S
C114 C115 1.170 . S
C115 C114 1.170 . S
C116 C117 1.170 . S
C116 C118 1.380 . S
C117 C116 1.170 . S
C118 C116 1.380 . S
C118 C119 1.170 . S
C119 C118 1.170 . S
C120 C121 1.170 . S
C120 C122 1.380 . S
C121 C120 1.170 . S
C122 C120 1.380 . S
C122 C123 1.170 . S
C123 C122 1.170 . S
C124 C125 1.170 . S
C124 C126 1.380 . S
C125 C124 1.170 . S
C126 C124 1.380 . S
C126 C127 1.170 . S
C127 C126 1.170 . S
C128 C129 1.170 . S
C128 C130 1.380 . S
C129 C128 1.170 . S
C130 C128 1.380 . S
C130 C131 1.170 . S
C131 C130 1.170 . S
C85 C57 1.455 . S
C87 C14 1.511 . S
C89 C56 1.464 . S
C91 C15 1.497 . S
C93 C39 1.493 . S
C95 C80 1.476 . S
C97 C38 1.506 . S
C99 C81 1.463 . S
C101 C18 1.003 . S
C103 C17 1.084 . S
C105 C35 1.020 . S
C107 C36 1.072 . S
C109 C60 1.069 . S
C111 C59 1.019 . S
C113 C78 0.999 . S
C115 C77 1.084 . S
C117 C37 1.292 1_455 S
C119 C13 1.254 . S
C121 C16 1.285 1_455 S
C123 C34 1.356 . S
C125 C79 1.265 . S
C127 C55 1.314 . S
C129 C76 1.355 . S
C131 C58 1.287 . S
