# Generated by pormake.
# Topology umy, (4)-cn, num edge types: 1
# Building blocks:
#     Node 0, Type 0, BuildingBlock: NAHDIM_clean_sbu_0, # of connection points: 4
#     Node 1, Type 0, BuildingBlock: NAHDIM_clean_sbu_0, # of connection points: 4
#     Node 2, Type 0, BuildingBlock: NAHDIM_clean_sbu_0, # of connection points: 4
#     Node 3, Type 0, BuildingBlock: NAHDIM_clean_sbu_0, # of connection points: 4
#     Node 4, Type 0, BuildingBlock: NAHDIM_clean_sbu_0, # of connection points: 4
#     Node 5, Type 0, BuildingBlock: NAHDIM_clean_sbu_0, # of connection points: 4
#     Node 6, Type 0, BuildingBlock: NAHDIM_clean_sbu_0, # of connection points: 4
#     Node 7, Type 0, BuildingBlock: NAHDIM_clean_sbu_0, # of connection points: 4
#     Node 8, Type 0, BuildingBlock: NAHDIM_clean_sbu_0, # of connection points: 4
#     Node 9, Type 0, BuildingBlock: NAHDIM_clean_sbu_0, # of connection points: 4
#     Node 10, Type 0, BuildingBlock: NAHDIM_clean_sbu_0, # of connection points: 4
#     Node 11, Type 0, BuildingBlock: NAHDIM_clean_sbu_0, # of connection points: 4
#     Edge 12, Type (0, 0), None
#     Edge 13, Type (0, 0), None
#     Edge 14, Type (0, 0), None
#     Edge 15, Type (0, 0), None
#     Edge 16, Type (0, 0), None
#     Edge 17, Type (0, 0), None
#     Edge 18, Type (0, 0), None
#     Edge 19, Type (0, 0), None
#     Edge 20, Type (0, 0), None
#     Edge 21, Type (0, 0), None
#     Edge 22, Type (0, 0), None
#     Edge 23, Type (0, 0), None
#     Edge 24, Type (0, 0), None
#     Edge 25, Type (0, 0), None
#     Edge 26, Type (0, 0), None
#     Edge 27, Type (0, 0), None
#     Edge 28, Type (0, 0), None
#     Edge 29, Type (0, 0), None
#     Edge 30, Type (0, 0), None
#     Edge 31, Type (0, 0), None
#     Edge 32, Type (0, 0), None
#     Edge 33, Type (0, 0), None
#     Edge 34, Type (0, 0), None
#     Edge 35, Type (0, 0), None
# Relax obj value: 0.155
# Max RMSD: 0.141
# Mean RMSD: 0.141
data_MOF--net-umy--node1-NAHDIM_clean_sbu_0--edge1-none
_symmetry_space_group_name_H-M    P1
_symmetry_Int_Tables_number       1
_symmetry_cell_setting            triclinic
loop_
_symmetry_equiv_pos_as_xyz
'x, y, z'
_cell_length_a     17.897687
_cell_length_b     17.934115
_cell_length_c     21.388209
_cell_angle_alpha  90.026616
_cell_angle_beta   90.155904
_cell_angle_gamma 120.0429
loop_
_atom_site_label
_atom_site_type_symbol
_atom_site_fract_x
_atom_site_fract_y
_atom_site_fract_z
_atom_type_partial_charge
C0 C 0.95235 0.434 0.09598 0.0
O1 O 0.87962 0.36011 0.09566 0.0
O2 O 0.90889 0.23345 0.15626 0.0
Zn3 Zn 0.02624 0.32837 0.1296 0.0
O4 O 0.06249 0.29922 0.04815 0.0
C5 C 0.09736 0.27707 0.22859 0.0
O6 O 0.03896 0.20251 0.20565 0.0
O7 O 0.02223 0.43669 0.11168 0.0
C8 C 0.12946 0.29229 0.04523 0.0
O9 O 0.17211 0.29754 0.0966 0.0
C10 C 0.87451 0.15407 0.14217 0.0
O11 O 0.91305 0.12823 0.10274 0.0
O12 O 0.10895 0.34589 0.2025 0.0
C13 C 0.50948 0.9626 0.26582 0.0
O14 O 0.51083 0.8903 0.27066 0.0
O15 O 0.69136 0.93827 0.30528 0.0
Zn16 Zn 0.6955 0.05132 0.29375 0.0
O17 O 0.77654 0.11944 0.22488 0.0
C18 C 0.81295 0.11897 0.39086 0.0
O19 O 0.83974 0.07413 0.35924 0.0
O20 O 0.57803 0.03449 0.2746 0.0
C21 C 0.80226 0.09152 0.18013 0.0
O22 O 0.7735 0.0086 0.17436 0.0
C23 C 0.68873 0.86682 0.3124 0.0
O24 O 0.68144 0.82008 0.26304 0.0
O25 O 0.74654 0.12099 0.37212 0.0
C26 C 0.53394 0.51265 0.43208 0.0
O27 O 0.60841 0.51497 0.43024 0.0
O28 O 0.73678 0.67344 0.49171 0.0
Zn29 Zn 0.64021 0.69373 0.46494 0.0
O30 O 0.66658 0.75546 0.38223 0.0
C31 C 0.69246 0.81965 0.5623 0.0
O32 O 0.76726 0.83445 0.54094 0.0
O33 O 0.5312 0.57945 0.44853 0.0
C34 C 0.68708 0.83367 0.37534 0.0
O35 O 0.69916 0.8821 0.42463 0.0
C36 C 0.81639 0.71875 0.47802 0.0
O37 O 0.84251 0.78342 0.43888 0.0
O38 O 0.62363 0.76183 0.53609 0.0
C39 C 0.00287 0.53582 0.59575 0.0
O40 O 0.07505 0.60923 0.60336 0.0
O41 O 0.02088 0.73364 0.65754 0.0
Zn42 Zn 0.91299 0.62974 0.62699 0.0
O43 O 0.85029 0.65241 0.55893 0.0
C44 C 0.83861 0.66658 0.72349 0.0
O45 O 0.88007 0.73904 0.69226 0.0
O46 O 0.9306 0.53167 0.60369 0.0
C47 C 0.87885 0.70773 0.5154 0.0
O48 O 0.96213 0.76114 0.50997 0.0
C49 C 0.09284 0.80276 0.65403 0.0
O50 O 0.12905 0.83342 0.59963 0.0
O51 O 0.83703 0.59949 0.70257 0.0
C52 C 0.45582 0.01607 0.76547 0.0
O53 O 0.45343 0.08801 0.76326 0.0
O54 O 0.29777 0.05866 0.82376 0.0
Zn55 Zn 0.27587 0.94164 0.79738 0.0
O56 O 0.21325 0.90407 0.71428 0.0
C57 C 0.1535 0.87184 0.89747 0.0
O58 O 0.14051 0.93335 0.87696 0.0
O59 O 0.38915 0.94645 0.78182 0.0
C60 C 0.13496 0.84472 0.71289 0.0
O61 O 0.09343 0.81428 0.76561 0.0
C62 C 0.25558 0.09575 0.80884 0.0
O63 O 0.19265 0.06031 0.7677 0.0
O64 O 0.20888 0.85858 0.86991 0.0
C65 C 0.43284 0.45549 0.93246 0.0
O66 O 0.3594 0.45459 0.93838 0.0
O67 O 0.23181 0.28044 0.98431 0.0
Zn68 Zn 0.3365 0.27281 0.96275 0.0
O69 O 0.31615 0.18842 0.89475 0.0
C70 C 0.29435 0.1662 0.06443 0.0
O71 O 0.22007 0.13848 0.03581 0.0
O72 O 0.43632 0.38726 0.94099 0.0
C73 C 0.26745 0.16861 0.84709 0.0
O74 O 0.2211 0.20564 0.83729 0.0
C75 C 0.16272 0.28361 0.98484 0.0
O76 O 0.12287 0.27998 0.93232 0.0
O77 O 0.36245 0.22716 0.04055 0.0
C78 C 0.5348 0.01587 0.74817 0.0
O79 O 0.60918 0.0881 0.74872 0.0
O80 O 0.7335 0.05887 0.68769 0.0
Zn81 Zn 0.63983 0.9416 0.71498 0.0
O82 O 0.66887 0.90493 0.79696 0.0
C83 C 0.69209 0.87154 0.61558 0.0
O84 O 0.7666 0.93087 0.6382 0.0
O85 O 0.53148 0.94584 0.73257 0.0
C86 C 0.67562 0.83789 0.79806 0.0
O87 O 0.67128 0.79819 0.74549 0.0
C88 C 0.81293 0.09581 0.70241 0.0
O89 O 0.84035 0.05998 0.7431 0.0
O90 O 0.62294 0.85935 0.64171 0.0
C91 C 0.5116 0.5342 0.91508 0.0
O92 O 0.51173 0.60685 0.90717 0.0
O93 O 0.68548 0.73137 0.85402 0.0
Zn94 Zn 0.69426 0.63001 0.8834 0.0
O95 O 0.7808 0.65475 0.95105 0.0
C96 C 0.80157 0.66749 0.78383 0.0
O97 O 0.83095 0.74141 0.81303 0.0
O98 O 0.58024 0.53106 0.9073 0.0
C99 C 0.80064 0.7029 0.99889 0.0
O100 O 0.76224 0.74767 0.00972 0.0
C101 C 0.68325 0.80075 0.85707 0.0
O102 O 0.68756 0.8373 0.91119 0.0
O103 O 0.73917 0.59997 0.80719 0.0
C104 C 0.9528 0.51329 0.07889 0.0
O105 O 0.88142 0.51683 0.08251 0.0
O106 O 0.91131 0.6729 0.02167 0.0
Zn107 Zn 0.02812 0.69328 0.04836 0.0
O108 O 0.06505 0.75187 0.13265 0.0
C109 C 0.0995 0.81794 0.94939 0.0
O110 O 0.03609 0.82901 0.96834 0.0
O111 O 0.02256 0.57937 0.06189 0.0
C112 C 0.11266 0.83283 0.13643 0.0
O113 O 0.13144 0.87943 0.08545 0.0
C114 C 0.87408 0.71484 0.03682 0.0
O115 O 0.90922 0.77693 0.07847 0.0
O116 O 0.11316 0.76314 0.97745 0.0
C117 C 0.42969 0.96194 0.24929 0.0
O118 O 0.35653 0.88909 0.24309 0.0
O119 O 0.22727 0.94555 0.19015 0.0
Zn120 Zn 0.33386 0.05198 0.21937 0.0
O121 O 0.31487 0.11625 0.28802 0.0
C122 C 0.29563 0.12804 0.12423 0.0
O123 O 0.22361 0.08738 0.15615 0.0
O124 O 0.43237 0.03334 0.24091 0.0
C125 C 0.25582 0.08872 0.32888 0.0
O126 O 0.19698 0.00667 0.33059 0.0
C127 C 0.1589 0.87313 0.1945 0.0
O128 O 0.13454 0.83342 0.2485 0.0
O129 O 0.3626 0.1278 0.14387 0.0
C130 C 0.45443 0.43334 0.41448 0.0
O131 O 0.45265 0.35925 0.41517 0.0
O132 O 0.29332 0.23144 0.3528 0.0
Zn133 Zn 0.27285 0.32803 0.37935 0.0
O134 O 0.20672 0.29872 0.46014 0.0
C135 C 0.14773 0.27732 0.28307 0.0
O136 O 0.12992 0.20305 0.30717 0.0
O137 O 0.38737 0.43609 0.39822 0.0
C138 C 0.13229 0.28821 0.47128 0.0
O139 O 0.08443 0.29039 0.42551 0.0
C140 C 0.2464 0.152 0.36621 0.0
O141 O 0.18103 0.12694 0.4046 0.0
O142 O 0.20768 0.3463 0.30743 0.0
C143 C 0.00415 0.45746 0.57879 0.0
O144 O 0.07743 0.45781 0.57396 0.0
O145 O 0.03456 0.27624 0.55303 0.0
Zn146 Zn 0.91994 0.2731 0.55063 0.0
O147 O 0.84622 0.19066 0.61742 0.0
C148 C 0.85743 0.16139 0.44875 0.0
O149 O 0.90186 0.13268 0.47893 0.0
O150 O 0.93301 0.38828 0.56997 0.0
C151 C 0.87439 0.16844 0.66429 0.0
O152 O 0.95782 0.20192 0.67281 0.0
C153 C 0.10443 0.27958 0.5367 0.0
O154 O 0.15514 0.27837 0.58065 0.0
O155 O 0.85575 0.22667 0.46964 0.0
loop_
_geom_bond_atom_site_label_1
_geom_bond_atom_site_label_2
_geom_bond_distance
_geom_bond_site_symmetry_2
_ccdc_geom_bond_type
C0 O1 1.160 1_455 S
C0 O7 1.185 . S
O1 C0 1.160 1_655 S
O2 Zn3 1.899 1_655 S
O2 C10 1.284 . S
Zn3 O2 1.899 1_455 S
Zn3 O4 2.032 . S
Zn3 O7 2.086 . S
Zn3 O12 1.977 . S
O4 Zn3 2.032 . S
O4 C8 1.278 . S
C5 O6 1.203 . S
C5 O12 1.267 . S
O6 C5 1.203 . S
O7 C0 1.185 . S
O7 Zn3 2.086 . S
C8 O4 1.278 . S
C8 O9 1.211 . S
O9 C8 1.211 . S
C10 O2 1.284 . S
C10 O11 1.273 . S
O11 C10 1.273 . S
O12 Zn3 1.977 . S
O12 C5 1.267 . S
C13 O14 1.160 1_545 S
C13 O20 1.185 . S
O14 C13 1.160 1_565 S
O15 Zn16 1.899 1_565 S
O15 C23 1.284 . S
Zn16 O15 1.899 1_545 S
Zn16 O17 2.032 . S
Zn16 O20 2.086 . S
Zn16 O25 1.977 . S
O17 Zn16 2.032 . S
O17 C21 1.278 . S
C18 O19 1.203 . S
C18 O25 1.267 . S
O19 C18 1.203 . S
O20 C13 1.185 . S
O20 Zn16 2.086 . S
C21 O17 1.278 . S
C21 O22 1.211 . S
O22 C21 1.211 . S
C23 O15 1.284 . S
C23 O24 1.273 . S
O24 C23 1.273 . S
O25 Zn16 1.977 . S
O25 C18 1.267 . S
C26 O27 1.160 . S
C26 O33 1.185 . S
O27 C26 1.160 . S
O28 Zn29 1.899 . S
O28 C36 1.284 . S
Zn29 O28 1.899 . S
Zn29 O30 2.032 . S
Zn29 O33 2.086 . S
Zn29 O38 1.977 . S
O30 Zn29 2.032 . S
O30 C34 1.278 . S
C31 O32 1.203 . S
C31 O38 1.267 . S
O32 C31 1.203 . S
O33 C26 1.185 . S
O33 Zn29 2.086 . S
C34 O30 1.278 . S
C34 O35 1.211 . S
O35 C34 1.211 . S
C36 O28 1.284 . S
C36 O37 1.273 . S
O37 C36 1.273 . S
O38 Zn29 1.977 . S
O38 C31 1.267 . S
C39 O40 1.160 1_655 S
C39 O46 1.185 . S
O40 C39 1.160 1_455 S
O41 Zn42 1.899 1_455 S
O41 C49 1.284 . S
Zn42 O41 1.899 1_655 S
Zn42 O43 2.032 . S
Zn42 O46 2.086 . S
Zn42 O51 1.977 . S
O43 Zn42 2.032 . S
O43 C47 1.278 . S
C44 O45 1.203 . S
C44 O51 1.267 . S
O45 C44 1.203 . S
O46 C39 1.185 . S
O46 Zn42 2.086 . S
C47 O43 1.278 . S
C47 O48 1.211 . S
O48 C47 1.211 . S
C49 O41 1.284 . S
C49 O50 1.273 . S
O50 C49 1.273 . S
O51 Zn42 1.977 . S
O51 C44 1.267 . S
C52 O53 1.160 1_565 S
C52 O59 1.185 . S
O53 C52 1.160 1_545 S
O54 Zn55 1.899 1_545 S
O54 C62 1.284 . S
Zn55 O54 1.899 1_565 S
Zn55 O56 2.032 . S
Zn55 O59 2.086 . S
Zn55 O64 1.977 . S
O56 Zn55 2.032 . S
O56 C60 1.278 . S
C57 O58 1.203 . S
C57 O64 1.267 . S
O58 C57 1.203 . S
O59 C52 1.185 . S
O59 Zn55 2.086 . S
C60 O56 1.278 . S
C60 O61 1.211 . S
O61 C60 1.211 . S
C62 O54 1.284 . S
C62 O63 1.273 . S
O63 C62 1.273 . S
O64 Zn55 1.977 . S
O64 C57 1.267 . S
C65 O66 1.160 . S
C65 O72 1.185 . S
O66 C65 1.160 . S
O67 Zn68 1.899 . S
O67 C75 1.284 . S
Zn68 O67 1.899 . S
Zn68 O69 2.032 . S
Zn68 O72 2.086 . S
Zn68 O77 1.977 1_556 S
O69 Zn68 2.032 . S
O69 C73 1.278 . S
C70 O71 1.203 . S
C70 O77 1.267 . S
O71 C70 1.203 . S
O72 C65 1.185 . S
O72 Zn68 2.086 . S
C73 O69 1.278 . S
C73 O74 1.211 . S
O74 C73 1.211 . S
C75 O67 1.284 . S
C75 O76 1.273 . S
O76 C75 1.273 . S
O77 Zn68 1.977 1_554 S
O77 C70 1.267 . S
C78 O79 1.160 1_565 S
C78 O85 1.185 . S
O79 C78 1.160 1_545 S
O80 Zn81 1.899 1_545 S
O80 C88 1.284 . S
Zn81 O80 1.899 1_565 S
Zn81 O82 2.032 . S
Zn81 O85 2.086 . S
Zn81 O90 1.977 . S
O82 Zn81 2.032 . S
O82 C86 1.278 . S
C83 O84 1.203 . S
C83 O90 1.267 . S
O84 C83 1.203 . S
O85 C78 1.185 . S
O85 Zn81 2.086 . S
C86 O82 1.278 . S
C86 O87 1.211 . S
O87 C86 1.211 . S
C88 O80 1.284 . S
C88 O89 1.273 . S
O89 C88 1.273 . S
O90 Zn81 1.977 . S
O90 C83 1.267 . S
C91 O92 1.160 . S
C91 O98 1.185 . S
O92 C91 1.160 . S
O93 Zn94 1.899 . S
O93 C101 1.284 . S
Zn94 O93 1.899 . S
Zn94 O95 2.032 . S
Zn94 O98 2.086 . S
Zn94 O103 1.977 . S
O95 Zn94 2.032 . S
O95 C99 1.278 . S
C96 O97 1.203 . S
C96 O103 1.267 . S
O97 C96 1.203 . S
O98 C91 1.185 . S
O98 Zn94 2.086 . S
C99 O95 1.278 . S
C99 O100 1.211 . S
O100 C99 1.211 . S
C101 O93 1.284 . S
C101 O102 1.273 . S
O102 C101 1.273 . S
O103 Zn94 1.977 . S
O103 C96 1.267 . S
C104 O105 1.160 1_455 S
C104 O111 1.185 . S
O105 C104 1.160 1_655 S
O106 Zn107 1.899 1_655 S
O106 C114 1.284 . S
Zn107 O106 1.899 1_455 S
Zn107 O108 2.032 . S
Zn107 O111 2.086 . S
Zn107 O116 1.977 1_554 S
O108 Zn107 2.032 . S
O108 C112 1.278 . S
C109 O110 1.203 . S
C109 O116 1.267 . S
O110 C109 1.203 . S
O111 C104 1.185 . S
O111 Zn107 2.086 . S
C112 O108 1.278 . S
C112 O113 1.211 . S
O113 C112 1.211 . S
C114 O106 1.284 . S
C114 O115 1.273 . S
O115 C114 1.273 . S
O116 Zn107 1.977 1_556 S
O116 C109 1.267 . S
C117 O118 1.160 1_545 S
C117 O124 1.185 . S
O118 C117 1.160 1_565 S
O119 Zn120 1.899 1_565 S
O119 C127 1.284 . S
Zn120 O119 1.899 1_545 S
Zn120 O121 2.032 . S
Zn120 O124 2.086 . S
Zn120 O129 1.977 . S
O121 Zn120 2.032 . S
O121 C125 1.278 . S
C122 O123 1.203 . S
C122 O129 1.267 . S
O123 C122 1.203 . S
O124 C117 1.185 . S
O124 Zn120 2.086 . S
C125 O121 1.278 . S
C125 O126 1.211 . S
O126 C125 1.211 . S
C127 O119 1.284 . S
C127 O128 1.273 . S
O128 C127 1.273 . S
O129 Zn120 1.977 . S
O129 C122 1.267 . S
C130 O131 1.160 . S
C130 O137 1.185 . S
O131 C130 1.160 . S
O132 Zn133 1.899 . S
O132 C140 1.284 . S
Zn133 O132 1.899 . S
Zn133 O134 2.032 . S
Zn133 O137 2.086 . S
Zn133 O142 1.977 . S
O134 Zn133 2.032 . S
O134 C138 1.278 . S
C135 O136 1.203 . S
C135 O142 1.267 . S
O136 C135 1.203 . S
O137 C130 1.185 . S
O137 Zn133 2.086 . S
C138 O134 1.278 . S
C138 O139 1.211 . S
O139 C138 1.211 . S
C140 O132 1.284 . S
C140 O141 1.273 . S
O141 C140 1.273 . S
O142 Zn133 1.977 . S
O142 C135 1.267 . S
C143 O144 1.160 1_655 S
C143 O150 1.185 . S
O144 C143 1.160 1_455 S
O145 Zn146 1.899 1_455 S
O145 C153 1.284 . S
Zn146 O145 1.899 1_655 S
Zn146 O147 2.032 . S
Zn146 O150 2.086 . S
Zn146 O155 1.977 . S
O147 Zn146 2.032 . S
O147 C151 1.278 . S
C148 O149 1.203 . S
C148 O155 1.267 . S
O149 C148 1.203 . S
O150 C143 1.185 . S
O150 Zn146 2.086 . S
C151 O147 1.278 . S
C151 O152 1.211 . S
O152 C151 1.211 . S
C153 O145 1.284 . S
C153 O154 1.273 . S
O154 C153 1.273 . S
O155 Zn146 1.977 . S
O155 C148 1.267 . S
C104 C0 1.499 . S
C13 C117 1.499 . S
C26 C130 1.499 . S
C39 C143 1.499 . S
C78 C52 1.499 . S
C65 C91 1.499 . S
C8 C75 1.606 1_554 S
C21 C10 1.606 . S
C34 C23 1.606 . S
C36 C47 1.606 . S
C49 C60 1.606 . S
C62 C73 1.606 . S
C101 C86 1.606 . S
C99 C114 1.606 1_556 S
C127 C112 1.606 . S
C125 C140 1.606 . S
C138 C153 1.606 . S
C151 C88 1.606 . S
C135 C5 1.109 . S
C148 C18 1.109 . S
C83 C31 1.109 . S
C44 C96 1.109 . S
C57 C109 1.109 . S
C122 C70 1.109 . S
