# Generated by pormake.
# Topology wjh, (4)-cn, num edge types: 1
# Building blocks:
#     Node 0, Type 0, BuildingBlock: NAHDIM_clean_sbu_0, # of connection points: 4
#     Node 1, Type 0, BuildingBlock: NAHDIM_clean_sbu_0, # of connection points: 4
#     Node 2, Type 0, BuildingBlock: NAHDIM_clean_sbu_0, # of connection points: 4
#     Node 3, Type 0, BuildingBlock: NAHDIM_clean_sbu_0, # of connection points: 4
#     Node 4, Type 0, BuildingBlock: NAHDIM_clean_sbu_0, # of connection points: 4
#     Node 5, Type 0, BuildingBlock: NAHDIM_clean_sbu_0, # of connection points: 4
#     Node 6, Type 0, BuildingBlock: NAHDIM_clean_sbu_0, # of connection points: 4
#     Node 7, Type 0, BuildingBlock: NAHDIM_clean_sbu_0, # of connection points: 4
#     Node 8, Type 0, BuildingBlock: NAHDIM_clean_sbu_0, # of connection points: 4
#     Node 9, Type 0, BuildingBlock: NAHDIM_clean_sbu_0, # of connection points: 4
#     Node 10, Type 0, BuildingBlock: NAHDIM_clean_sbu_0, # of connection points: 4
#     Node 11, Type 0, BuildingBlock: NAHDIM_clean_sbu_0, # of connection points: 4
#     Edge 12, Type (0, 0), BuildingBlock: EYOCIG_clean_linker_4, # of connection points: 2
#     Edge 13, Type (0, 0), BuildingBlock: EYOCIG_clean_linker_4, # of connection points: 2
#     Edge 14, Type (0, 0), BuildingBlock: EYOCIG_clean_linker_4, # of connection points: 2
#     Edge 15, Type (0, 0), BuildingBlock: EYOCIG_clean_linker_4, # of connection points: 2
#     Edge 16, Type (0, 0), BuildingBlock: EYOCIG_clean_linker_4, # of connection points: 2
#     Edge 17, Type (0, 0), BuildingBlock: EYOCIG_clean_linker_4, # of connection points: 2
#     Edge 18, Type (0, 0), BuildingBlock: EYOCIG_clean_linker_4, # of connection points: 2
#     Edge 19, Type (0, 0), BuildingBlock: EYOCIG_clean_linker_4, # of connection points: 2
#     Edge 20, Type (0, 0), BuildingBlock: EYOCIG_clean_linker_4, # of connection points: 2
#     Edge 21, Type (0, 0), BuildingBlock: EYOCIG_clean_linker_4, # of connection points: 2
#     Edge 22, Type (0, 0), BuildingBlock: EYOCIG_clean_linker_4, # of connection points: 2
#     Edge 23, Type (0, 0), BuildingBlock: EYOCIG_clean_linker_4, # of connection points: 2
#     Edge 24, Type (0, 0), BuildingBlock: EYOCIG_clean_linker_4, # of connection points: 2
#     Edge 25, Type (0, 0), BuildingBlock: EYOCIG_clean_linker_4, # of connection points: 2
#     Edge 26, Type (0, 0), BuildingBlock: EYOCIG_clean_linker_4, # of connection points: 2
#     Edge 27, Type (0, 0), BuildingBlock: EYOCIG_clean_linker_4, # of connection points: 2
#     Edge 28, Type (0, 0), BuildingBlock: EYOCIG_clean_linker_4, # of connection points: 2
#     Edge 29, Type (0, 0), BuildingBlock: EYOCIG_clean_linker_4, # of connection points: 2
#     Edge 30, Type (0, 0), BuildingBlock: EYOCIG_clean_linker_4, # of connection points: 2
#     Edge 31, Type (0, 0), BuildingBlock: EYOCIG_clean_linker_4, # of connection points: 2
#     Edge 32, Type (0, 0), BuildingBlock: EYOCIG_clean_linker_4, # of connection points: 2
#     Edge 33, Type (0, 0), BuildingBlock: EYOCIG_clean_linker_4, # of connection points: 2
#     Edge 34, Type (0, 0), BuildingBlock: EYOCIG_clean_linker_4, # of connection points: 2
#     Edge 35, Type (0, 0), BuildingBlock: EYOCIG_clean_linker_4, # of connection points: 2
# Relax obj value: 0.144
# Max RMSD: 0.135
# Mean RMSD: 0.135
data_MOF--net-wjh--node1-NAHDIM_clean_sbu_0--edge1-EYOCIG_clean_linker_4
_symmetry_space_group_name_H-M    P1
_symmetry_Int_Tables_number       1
_symmetry_cell_setting            triclinic
loop_
_symmetry_equiv_pos_as_xyz
'x, y, z'
_cell_length_a     52.141618
_cell_length_b     52.135126
_cell_length_c     18.714761
_cell_angle_alpha  89.990267
_cell_angle_beta   90.013386
_cell_angle_gamma 120.00072
loop_
_atom_site_label
_atom_site_type_symbol
_atom_site_fract_x
_atom_site_fract_y
_atom_site_fract_z
_atom_type_partial_charge
C0 C 0.47519 0.17172 0.12195 0.0
O1 O 0.50203 0.17579 0.12848 0.0
O2 O 0.48589 0.11946 0.99473 0.0
Zn3 Zn 0.46396 0.11416 0.08825 0.0
O4 O 0.48921 0.11606 0.17197 0.0
C5 C 0.4244 0.0529 0.0529 0.0
O6 O 0.44484 0.05805 1.00518 0.0
O7 O 0.45412 0.14664 0.10247 0.0
C8 C 0.49193 0.09402 0.18935 0.0
O9 O 0.4791 0.06967 0.15123 0.0
C10 C 0.51321 0.12728 0.99238 0.0
O11 O 0.52859 0.13314 0.0516 0.0
O12 O 0.42694 0.0738 0.09258 0.0
C13 C 0.28495 0.48464 0.28798 0.0
O14 O 0.30771 0.51148 0.29472 0.0
O15 O 0.34795 0.49523 0.16031 0.0
Zn16 Zn 0.33129 0.47344 0.25399 0.0
O17 O 0.35472 0.49882 0.3374 0.0
C18 C 0.35292 0.43379 0.21909 0.0
O19 O 0.36813 0.45411 0.17103 0.0
O20 O 0.28898 0.46362 0.26824 0.0
C21 C 0.37972 0.50194 0.3539 0.0
O22 O 0.39137 0.48942 0.31507 0.0
C23 C 0.36708 0.52265 0.15775 0.0
O24 O 0.37612 0.53824 0.21677 0.0
O25 O 0.33463 0.43643 0.2588 0.0
C26 C 0.78168 0.29415 0.45471 0.0
O27 O 0.77758 0.31691 0.46093 0.0
O28 O 0.83415 0.35724 0.32807 0.0
Zn29 Zn 0.8393 0.34052 0.42165 0.0
O30 O 0.83725 0.36381 0.50525 0.0
C31 C 0.9006 0.36228 0.3869 0.0
O32 O 0.89551 0.37761 0.33913 0.0
O33 O 0.80681 0.29818 0.43565 0.0
C34 C 0.85917 0.38871 0.52232 0.0
O35 O 0.88346 0.40035 0.48399 0.0
C36 C 0.82603 0.37651 0.32565 0.0
O37 O 0.81973 0.3857 0.38477 0.0
O38 O 0.87966 0.34388 0.4264 0.0
C39 C 0.4687 0.79112 0.6206 0.0
O40 O 0.44182 0.78696 0.62683 0.0
O41 O 0.45812 0.84365 0.49374 0.0
Zn42 Zn 0.47987 0.84873 0.58747 0.0
O43 O 0.45441 0.84659 0.67089 0.0
C44 C 0.51944 0.91008 0.55302 0.0
O45 O 0.49911 0.90501 0.50502 0.0
O46 O 0.48976 0.81627 0.6015 0.0
C47 C 0.45143 0.86851 0.6879 0.0
O48 O 0.46415 0.89283 0.64966 0.0
C49 C 0.43079 0.83578 0.49118 0.0
O50 O 0.41529 0.82968 0.55025 0.0
O51 O 0.51684 0.8891 0.59253 0.0
C52 C 0.659 0.47826 0.78808 0.0
O53 O 0.63623 0.45141 0.7944 0.0
O54 O 0.59611 0.4677 0.66061 0.0
Zn55 Zn 0.61268 0.48951 0.75434 0.0
O56 O 0.58928 0.46414 0.83783 0.0
C57 C 0.59099 0.5291 0.71938 0.0
O58 O 0.57573 0.50873 0.67146 0.0
O59 O 0.65499 0.49934 0.7687 0.0
C60 C 0.56448 0.46134 0.85508 0.0
O61 O 0.55296 0.47417 0.81694 0.0
C62 C 0.57656 0.4404 0.65807 0.0
O63 O 0.56693 0.42497 0.71719 0.0
O64 O 0.60933 0.52652 0.75901 0.0
C65 C 0.16192 0.66846 0.95493 0.0
O66 O 0.16609 0.64574 0.96108 0.0
O67 O 0.10969 0.6055 0.82771 0.0
Zn68 Zn 0.10438 0.62203 0.92144 0.0
O69 O 0.10646 0.59867 1.00493 0.0
C70 C 0.04309 0.60026 0.8863 0.0
O71 O 0.04825 0.58504 0.83837 0.0
O72 O 0.13678 0.66438 0.93576 0.0
C73 C 0.08432 0.57411 0.02306 0.0
O74 O 0.05971 0.56283 0.98596 0.0
C75 C 0.11644 0.58522 0.82527 0.0
O76 O 0.12113 0.57475 0.88451 0.0
O77 O 0.06399 0.61859 0.92602 0.0
C78 C 0.78152 0.47796 0.88372 0.0
O79 O 0.77736 0.45108 0.87732 0.0
O80 O 0.83369 0.46724 0.01153 0.0
Zn81 Zn 0.83901 0.48905 0.91774 0.0
O82 O 0.83702 0.46365 0.83426 0.0
C83 C 0.90028 0.52868 0.95303 0.0
O84 O 0.89514 0.50836 1.00114 0.0
O85 O 0.80661 0.49898 0.90325 0.0
C86 C 0.85913 0.46111 0.81653 0.0
O87 O 0.88361 0.47422 0.85414 0.0
C88 C 0.8266 0.44011 0.01409 0.0
O89 O 0.82158 0.42485 0.95494 0.0
O90 O 0.87938 0.52603 0.91317 0.0
C91 C 0.2846 0.79117 0.05025 0.0
O92 O 0.30731 0.78698 0.04426 0.0
O93 O 0.34756 0.84332 0.17722 0.0
Zn94 Zn 0.33105 0.84871 0.08353 0.0
O95 O 0.35433 0.84662 0.99989 0.0
C96 C 0.35293 0.91002 0.11866 0.0
O97 O 0.36829 0.90487 0.16621 0.0
O98 O 0.28869 0.81633 0.06926 0.0
C99 C 0.37878 0.8688 0.9813 0.0
O100 O 0.39004 0.89349 0.01805 0.0
C101 C 0.36799 0.83678 0.17962 0.0
O102 O 0.37866 0.8324 0.12034 0.0
O103 O 0.33448 0.88911 0.07914 0.0
C104 C 0.47532 0.29455 0.21668 0.0
O105 O 0.50216 0.31731 0.20998 0.0
O106 O 0.48598 0.35757 0.34407 0.0
Zn107 Zn 0.46412 0.34092 0.25045 0.0
O108 O 0.48943 0.36428 0.16687 0.0
C109 C 0.4245 0.36256 0.28547 0.0
O110 O 0.44489 0.37786 0.33332 0.0
O111 O 0.45429 0.29859 0.23629 0.0
C112 C 0.49231 0.38913 0.14975 0.0
O113 O 0.47958 0.40071 0.18807 0.0
C114 C 0.51332 0.37697 0.34654 0.0
O115 O 0.52878 0.38635 0.28741 0.0
O116 O 0.4271 0.34423 0.24584 0.0
C117 C 0.16224 0.48451 0.38376 0.0
O118 O 0.16635 0.51138 0.37765 0.0
O119 O 0.11001 0.49514 0.51115 0.0
Zn120 Zn 0.10468 0.47328 0.41745 0.0
O121 O 0.10664 0.49865 0.33391 0.0
C122 C 0.04344 0.43368 0.45285 0.0
O123 O 0.0486 0.4541 0.50066 0.0
O124 O 0.13714 0.46342 0.40301 0.0
C125 C 0.08443 0.50093 0.31568 0.0
O126 O 0.05981 0.48749 0.35269 0.0
C127 C 0.11652 0.5221 0.51356 0.0
O128 O 0.12094 0.53718 0.4543 0.0
O129 O 0.06433 0.43625 0.41307 0.0
C130 C 0.65882 0.1716 0.54993 0.0
O131 O 0.63608 0.17571 0.54299 0.0
O132 O 0.59593 0.11944 0.67826 0.0
Zn133 Zn 0.61243 0.11414 0.58452 0.0
O134 O 0.58897 0.11605 0.50109 0.0
C135 C 0.5908 0.05288 0.61988 0.0
O136 O 0.57566 0.05805 0.66802 0.0
O137 O 0.65475 0.14657 0.56999 0.0
C138 C 0.56406 0.0941 0.4843 0.0
O139 O 0.55247 0.06986 0.52288 0.0
C140 C 0.57658 0.12745 0.68085 0.0
O141 O 0.56716 0.13353 0.62178 0.0
O142 O 0.60903 0.07377 0.57997 0.0
C143 C 0.46876 0.66844 0.71597 0.0
O144 O 0.4419 0.64569 0.70962 0.0
O145 O 0.45799 0.60564 0.84376 0.0
Zn146 Zn 0.47991 0.62209 0.75007 0.0
O147 O 0.4546 0.5987 0.66643 0.0
C148 C 0.51946 0.6004 0.78568 0.0
O149 O 0.499 0.58511 0.83339 0.0
O150 O 0.48981 0.66442 0.7355 0.0
C151 C 0.45238 0.57425 0.64803 0.0
O152 O 0.46579 0.56303 0.68502 0.0
C153 C 0.43101 0.58526 0.84618 0.0
O154 O 0.41595 0.57459 0.7869 0.0
O155 O 0.51692 0.61874 0.74591 0.0
C156 C 0.52137 0.09598 0.30567 0.0
C157 C 0.50796 0.09528 0.25263 0.0
C158 C 0.53644 0.09599 0.36816 0.0
C159 C 0.54919 0.09529 0.42113 0.0
C160 C 0.40747 0.53157 0.46977 0.0
C161 C 0.39466 0.51807 0.41693 0.0
C162 C 0.42267 0.54671 0.53207 0.0
C163 C 0.43618 0.55946 0.58494 0.0
C164 C 0.85707 0.43142 0.70062 0.0
C165 C 0.85779 0.44493 0.75347 0.0
C166 C 0.85709 0.41627 0.63831 0.0
C167 C 0.85784 0.40353 0.58543 0.0
C168 C 0.42157 0.8664 0.8035 0.0
C169 C 0.43516 0.86714 0.7508 0.0
C170 C 0.40633 0.86644 0.86562 0.0
C171 C 0.39356 0.86727 0.91835 0.0
C172 C 0.52183 0.41668 0.03361 0.0
C173 C 0.50838 0.40395 0.08657 0.0
C174 C 0.53693 0.43179 0.97119 0.0
C175 C 0.54967 0.44524 0.91825 0.0
C176 C 0.08662 0.53096 0.20033 0.0
C177 C 0.08587 0.5173 0.25292 0.0
C178 C 0.0866 0.54631 0.13839 0.0
C179 C 0.0858 0.55919 0.08582 0.0
C180 C 0.46752 0.24224 0.18017 0.0
C181 C 0.46977 0.26555 0.19754 0.0
C182 C 0.46748 0.21628 0.15848 0.0
C183 C 0.46968 0.1952 0.1411 0.0
C184 C 0.23268 0.47683 0.32482 0.0
C185 C 0.25597 0.47908 0.30729 0.0
C186 C 0.20675 0.4768 0.34675 0.0
C187 C 0.18568 0.47901 0.36432 0.0
C188 C 0.71114 0.216 0.5131 0.0
C189 C 0.68782 0.19499 0.53064 0.0
C190 C 0.73711 0.24189 0.49129 0.0
C191 C 0.75821 0.26517 0.47391 0.0
C192 C 0.47651 0.74663 0.65723 0.0
C193 C 0.47427 0.76769 0.63983 0.0
C194 C 0.47653 0.72071 0.67905 0.0
C195 C 0.4743 0.69742 0.6966 0.0
C196 C 0.71122 0.48594 0.82492 0.0
C197 C 0.68796 0.48376 0.80741 0.0
C198 C 0.73711 0.48586 0.84681 0.0
C199 C 0.75813 0.48357 0.86435 0.0
C200 C 0.20638 0.72075 0.9917 0.0
C201 C 0.18533 0.69745 0.97423 0.0
C202 C 0.23231 0.74669 0.0135 0.0
C203 C 0.25561 0.76775 0.03095 0.0
C204 C 0.55269 0.12916 0.80409 0.0
C205 C 0.56375 0.1283 0.74814 0.0
C206 C 0.53895 0.12912 0.86926 0.0
C207 C 0.52698 0.12821 0.92517 0.0
C208 C 0.40524 0.56181 0.96958 0.0
C209 C 0.41728 0.57272 0.91364 0.0
C210 C 0.39135 0.54821 0.03472 0.0
C211 C 0.38014 0.53634 0.0906 0.0
C212 C 0.82463 0.41448 0.1375 0.0
C213 C 0.82561 0.42645 0.08154 0.0
C214 C 0.82451 0.40067 0.20264 0.0
C215 C 0.82527 0.3895 0.2585 0.0
C216 C 0.40524 0.83441 0.36807 0.0
C217 C 0.41714 0.83511 0.42395 0.0
C218 C 0.39158 0.83462 0.30297 0.0
C219 C 0.3806 0.83568 0.24706 0.0
C220 C 0.55271 0.41475 0.53482 0.0
C221 C 0.56376 0.4267 0.59075 0.0
C222 C 0.53899 0.40099 0.46966 0.0
C223 C 0.52705 0.38988 0.41376 0.0
C224 C 0.11834 0.54771 0.63687 0.0
C225 C 0.11744 0.53574 0.58097 0.0
C226 C 0.11832 0.56146 0.70197 0.0
C227 C 0.11739 0.57251 0.75787 0.0
C228 C 0.38575 -0.00312 0.07948 0.0
C229 C 0.40281 0.02284 0.06971 0.0
C230 C 0.37033 0.96605 0.09204 0.0
C231 C 0.36141 0.94009 0.10183 0.0
C232 C 0.38578 0.37983 0.2587 0.0
C233 C 0.40288 0.37098 0.26856 0.0
C234 C 0.37033 0.3952 0.24605 0.0
C235 C 0.36142 0.41224 0.23613 0.0
C236 C -0.01258 0.39503 0.42628 0.0
C237 C 0.01338 0.41209 0.43605 0.0
C238 C 0.9566 0.37962 0.41372 0.0
C239 C 0.93064 0.37072 0.40386 0.0
C240 C 0.55801 0.96606 0.58027 0.0
C241 C 0.54099 0.94011 0.57021 0.0
C242 C 0.57339 -0.00313 0.59305 0.0
C243 C 0.58228 0.02282 0.60297 0.0
C244 C 0.57356 0.56768 0.7464 0.0
C245 C 0.58248 0.55065 0.73643 0.0
C246 C 0.55812 0.58305 0.75909 0.0
C247 C 0.54104 0.59192 0.76891 0.0
C248 C -0.01292 0.58276 0.9133 0.0
C249 C 0.01303 0.5917 0.90332 0.0
C250 C 0.95627 0.56731 0.9261 0.0
C251 C 0.93033 0.55023 0.93608 0.0
loop_
_geom_bond_atom_site_label_1
_geom_bond_atom_site_label_2
_geom_bond_distance
_geom_bond_site_symmetry_2
_ccdc_geom_bond_type
C0 O1 1.160 . S
C0 O7 1.185 . S
O1 C0 1.160 . S
O2 Zn3 1.899 1_556 S
O2 C10 1.284 . S
Zn3 O2 1.899 1_554 S
Zn3 O4 2.032 . S
Zn3 O7 2.086 . S
Zn3 O12 1.977 . S
O4 Zn3 2.032 . S
O4 C8 1.278 . S
C5 O6 1.203 . S
C5 O12 1.267 . S
O6 C5 1.203 . S
O7 C0 1.185 . S
O7 Zn3 2.086 . S
C8 O4 1.278 . S
C8 O9 1.211 . S
O9 C8 1.211 . S
C10 O2 1.284 . S
C10 O11 1.273 1_556 S
O11 C10 1.273 1_554 S
O12 Zn3 1.977 . S
O12 C5 1.267 . S
C13 O14 1.160 . S
C13 O20 1.185 . S
O14 C13 1.160 . S
O15 Zn16 1.899 . S
O15 C23 1.284 . S
Zn16 O15 1.899 . S
Zn16 O17 2.032 . S
Zn16 O20 2.086 . S
Zn16 O25 1.977 . S
O17 Zn16 2.032 . S
O17 C21 1.278 . S
C18 O19 1.203 . S
C18 O25 1.267 . S
O19 C18 1.203 . S
O20 C13 1.185 . S
O20 Zn16 2.086 . S
C21 O17 1.278 . S
C21 O22 1.211 . S
O22 C21 1.211 . S
C23 O15 1.284 . S
C23 O24 1.273 . S
O24 C23 1.273 . S
O25 Zn16 1.977 . S
O25 C18 1.267 . S
C26 O27 1.160 . S
C26 O33 1.185 . S
O27 C26 1.160 . S
O28 Zn29 1.899 . S
O28 C36 1.284 . S
Zn29 O28 1.899 . S
Zn29 O30 2.032 . S
Zn29 O33 2.086 . S
Zn29 O38 1.977 . S
O30 Zn29 2.032 . S
O30 C34 1.278 . S
C31 O32 1.203 . S
C31 O38 1.267 . S
O32 C31 1.203 . S
O33 C26 1.185 . S
O33 Zn29 2.086 . S
C34 O30 1.278 . S
C34 O35 1.211 . S
O35 C34 1.211 . S
C36 O28 1.284 . S
C36 O37 1.273 . S
O37 C36 1.273 . S
O38 Zn29 1.977 . S
O38 C31 1.267 . S
C39 O40 1.160 . S
C39 O46 1.185 . S
O40 C39 1.160 . S
O41 Zn42 1.899 . S
O41 C49 1.284 . S
Zn42 O41 1.899 . S
Zn42 O43 2.032 . S
Zn42 O46 2.086 . S
Zn42 O51 1.977 . S
O43 Zn42 2.032 . S
O43 C47 1.278 . S
C44 O45 1.203 . S
C44 O51 1.267 . S
O45 C44 1.203 . S
O46 C39 1.185 . S
O46 Zn42 2.086 . S
C47 O43 1.278 . S
C47 O48 1.211 . S
O48 C47 1.211 . S
C49 O41 1.284 . S
C49 O50 1.273 . S
O50 C49 1.273 . S
O51 Zn42 1.977 . S
O51 C44 1.267 . S
C52 O53 1.160 . S
C52 O59 1.185 . S
O53 C52 1.160 . S
O54 Zn55 1.899 . S
O54 C62 1.284 . S
Zn55 O54 1.899 . S
Zn55 O56 2.032 . S
Zn55 O59 2.086 . S
Zn55 O64 1.977 . S
O56 Zn55 2.032 . S
O56 C60 1.278 . S
C57 O58 1.203 . S
C57 O64 1.267 . S
O58 C57 1.203 . S
O59 C52 1.185 . S
O59 Zn55 2.086 . S
C60 O56 1.278 . S
C60 O61 1.211 . S
O61 C60 1.211 . S
C62 O54 1.284 . S
C62 O63 1.273 . S
O63 C62 1.273 . S
O64 Zn55 1.977 . S
O64 C57 1.267 . S
C65 O66 1.160 . S
C65 O72 1.185 . S
O66 C65 1.160 . S
O67 Zn68 1.899 . S
O67 C75 1.284 . S
Zn68 O67 1.899 . S
Zn68 O69 2.019 1_556 S
Zn68 O72 2.086 . S
Zn68 O77 1.977 . S
O69 Zn68 2.019 1_554 S
O69 C73 1.285 . S
C70 O71 1.203 . S
C70 O77 1.267 . S
O71 C70 1.203 . S
O72 C65 1.185 . S
O72 Zn68 2.086 . S
C73 O69 1.285 . S
C73 O74 1.211 . S
O74 C73 1.211 . S
C75 O67 1.284 . S
C75 O76 1.273 . S
O76 C75 1.273 . S
O77 Zn68 1.977 . S
O77 C70 1.267 . S
C78 O79 1.160 . S
C78 O85 1.185 . S
O79 C78 1.160 . S
O80 Zn81 1.899 1_554 S
O80 C88 1.284 . S
Zn81 O80 1.899 1_556 S
Zn81 O82 2.032 . S
Zn81 O85 2.086 . S
Zn81 O90 1.977 . S
O82 Zn81 2.032 . S
O82 C86 1.278 . S
C83 O84 1.203 . S
C83 O90 1.267 . S
O84 C83 1.203 . S
O85 C78 1.185 . S
O85 Zn81 2.086 . S
C86 O82 1.278 . S
C86 O87 1.211 . S
O87 C86 1.211 . S
C88 O80 1.284 . S
C88 O89 1.273 1_554 S
O89 C88 1.273 1_556 S
O90 Zn81 1.977 . S
O90 C83 1.267 . S
C91 O92 1.160 . S
C91 O98 1.185 . S
O92 C91 1.160 . S
O93 Zn94 1.899 . S
O93 C101 1.284 . S
Zn94 O93 1.899 . S
Zn94 O95 2.032 1_554 S
Zn94 O98 2.086 . S
Zn94 O103 1.977 . S
O95 Zn94 2.032 1_556 S
O95 C99 1.278 . S
C96 O97 1.203 . S
C96 O103 1.267 . S
O97 C96 1.203 . S
O98 C91 1.185 . S
O98 Zn94 2.086 . S
C99 O95 1.278 . S
C99 O100 1.211 . S
O100 C99 1.211 . S
C101 O93 1.284 . S
C101 O102 1.273 . S
O102 C101 1.273 . S
O103 Zn94 1.977 . S
O103 C96 1.267 . S
C104 O105 1.160 . S
C104 O111 1.185 . S
O105 C104 1.160 . S
O106 Zn107 1.899 . S
O106 C114 1.284 . S
Zn107 O106 1.899 . S
Zn107 O108 2.032 . S
Zn107 O111 2.086 . S
Zn107 O116 1.977 . S
O108 Zn107 2.032 . S
O108 C112 1.278 . S
C109 O110 1.203 . S
C109 O116 1.267 . S
O110 C109 1.203 . S
O111 C104 1.185 . S
O111 Zn107 2.086 . S
C112 O108 1.278 . S
C112 O113 1.211 . S
O113 C112 1.211 . S
C114 O106 1.284 . S
C114 O115 1.273 . S
O115 C114 1.273 . S
O116 Zn107 1.977 . S
O116 C109 1.267 . S
C117 O118 1.160 . S
C117 O124 1.185 . S
O118 C117 1.160 . S
O119 Zn120 1.899 . S
O119 C127 1.284 . S
Zn120 O119 1.899 . S
Zn120 O121 2.032 . S
Zn120 O124 2.086 . S
Zn120 O129 1.977 . S
O121 Zn120 2.032 . S
O121 C125 1.278 . S
C122 O123 1.203 . S
C122 O129 1.267 . S
O123 C122 1.203 . S
O124 C117 1.185 . S
O124 Zn120 2.086 . S
C125 O121 1.278 . S
C125 O126 1.211 . S
O126 C125 1.211 . S
C127 O119 1.284 . S
C127 O128 1.273 . S
O128 C127 1.273 . S
O129 Zn120 1.977 . S
O129 C122 1.267 . S
C130 O131 1.160 . S
C130 O137 1.185 . S
O131 C130 1.160 . S
O132 Zn133 1.899 . S
O132 C140 1.284 . S
Zn133 O132 1.899 . S
Zn133 O134 2.032 . S
Zn133 O137 2.086 . S
Zn133 O142 1.977 . S
O134 Zn133 2.032 . S
O134 C138 1.278 . S
C135 O136 1.203 . S
C135 O142 1.267 . S
O136 C135 1.203 . S
O137 C130 1.185 . S
O137 Zn133 2.086 . S
C138 O134 1.278 . S
C138 O139 1.211 . S
O139 C138 1.211 . S
C140 O132 1.284 . S
C140 O141 1.273 . S
O141 C140 1.273 . S
O142 Zn133 1.977 . S
O142 C135 1.267 . S
C143 O144 1.160 . S
C143 O150 1.185 . S
O144 C143 1.160 . S
O145 Zn146 1.899 . S
O145 C153 1.284 . S
Zn146 O145 1.899 . S
Zn146 O147 2.032 . S
Zn146 O150 2.086 . S
Zn146 O155 1.977 . S
O147 Zn146 2.032 . S
O147 C151 1.278 . S
C148 O149 1.203 . S
C148 O155 1.267 . S
O149 C148 1.203 . S
O150 C143 1.185 . S
O150 Zn146 2.086 . S
C151 O147 1.278 . S
C151 O152 1.211 . S
O152 C151 1.211 . S
C153 O145 1.284 . S
C153 O154 1.273 . S
O154 C153 1.273 . S
O155 Zn146 1.977 . S
O155 C148 1.267 . S
C156 C157 1.170 . S
C156 C158 1.380 . S
C157 C156 1.170 . S
C158 C156 1.380 . S
C158 C159 1.170 . S
C159 C158 1.170 . S
C160 C161 1.170 . S
C160 C162 1.380 . S
C161 C160 1.170 . S
C162 C160 1.380 . S
C162 C163 1.170 . S
C163 C162 1.170 . S
C164 C165 1.170 . S
C164 C166 1.380 . S
C165 C164 1.170 . S
C166 C164 1.380 . S
C166 C167 1.170 . S
C167 C166 1.170 . S
C168 C169 1.170 . S
C168 C170 1.380 . S
C169 C168 1.170 . S
C170 C168 1.380 . S
C170 C171 1.170 . S
C171 C170 1.170 . S
C172 C173 1.170 . S
C172 C174 1.380 1_554 S
C173 C172 1.170 . S
C174 C172 1.380 1_556 S
C174 C175 1.170 . S
C175 C174 1.170 . S
C176 C177 1.170 . S
C176 C178 1.380 . S
C177 C176 1.170 . S
C178 C176 1.380 . S
C178 C179 1.170 . S
C179 C178 1.170 . S
C180 C181 1.170 . S
C180 C182 1.380 . S
C181 C180 1.170 . S
C182 C180 1.380 . S
C182 C183 1.170 . S
C183 C182 1.170 . S
C184 C185 1.170 . S
C184 C186 1.380 . S
C185 C184 1.170 . S
C186 C184 1.380 . S
C186 C187 1.170 . S
C187 C186 1.170 . S
C188 C189 1.170 . S
C188 C190 1.380 . S
C189 C188 1.170 . S
C190 C188 1.380 . S
C190 C191 1.170 . S
C191 C190 1.170 . S
C192 C193 1.170 . S
C192 C194 1.380 . S
C193 C192 1.170 . S
C194 C192 1.380 . S
C194 C195 1.170 . S
C195 C194 1.170 . S
C196 C197 1.170 . S
C196 C198 1.380 . S
C197 C196 1.170 . S
C198 C196 1.380 . S
C198 C199 1.170 . S
C199 C198 1.170 . S
C200 C201 1.170 . S
C200 C202 1.380 1_556 S
C201 C200 1.170 . S
C202 C200 1.380 1_554 S
C202 C203 1.170 . S
C203 C202 1.170 . S
C204 C205 1.170 . S
C204 C206 1.380 . S
C205 C204 1.170 . S
C206 C204 1.380 . S
C206 C207 1.170 . S
C207 C206 1.170 . S
C208 C209 1.170 . S
C208 C210 1.380 1_556 S
C209 C208 1.170 . S
C210 C208 1.380 1_554 S
C210 C211 1.170 . S
C211 C210 1.170 . S
C212 C213 1.170 . S
C212 C214 1.380 . S
C213 C212 1.170 . S
C214 C212 1.380 . S
C214 C215 1.170 . S
C215 C214 1.170 . S
C216 C217 1.170 . S
C216 C218 1.380 . S
C217 C216 1.170 . S
C218 C216 1.380 . S
C218 C219 1.170 . S
C219 C218 1.170 . S
C220 C221 1.170 . S
C220 C222 1.380 . S
C221 C220 1.170 . S
C222 C220 1.380 . S
C222 C223 1.170 . S
C223 C222 1.170 . S
C224 C225 1.170 . S
C224 C226 1.380 . S
C225 C224 1.170 . S
C226 C224 1.380 . S
C226 C227 1.170 . S
C227 C226 1.170 . S
C228 C229 1.170 . S
C228 C230 1.380 1_545 S
C229 C228 1.170 . S
C230 C228 1.380 1_565 S
C230 C231 1.170 . S
C231 C230 1.170 . S
C232 C233 1.170 . S
C232 C234 1.380 . S
C233 C232 1.170 . S
C234 C232 1.380 . S
C234 C235 1.170 . S
C235 C234 1.170 . S
C236 C237 1.170 . S
C236 C238 1.380 1_455 S
C237 C236 1.170 . S
C238 C236 1.380 1_655 S
C238 C239 1.170 . S
C239 C238 1.170 . S
C240 C241 1.170 . S
C240 C242 1.380 1_565 S
C241 C240 1.170 . S
C242 C240 1.380 1_545 S
C242 C243 1.170 . S
C243 C242 1.170 . S
C244 C245 1.170 . S
C244 C246 1.380 . S
C245 C244 1.170 . S
C246 C244 1.380 . S
C246 C247 1.170 . S
C247 C246 1.170 . S
C248 C249 1.170 . S
C248 C250 1.380 1_455 S
C249 C248 1.170 . S
C250 C248 1.380 1_655 S
C250 C251 1.170 . S
C251 C250 1.170 . S
C157 C8 1.312 . S
C159 C138 1.319 . S
C161 C21 1.333 . S
C163 C151 1.319 . S
C165 C86 1.322 . S
C167 C34 1.313 . S
C169 C47 1.348 . S
C171 C99 1.341 . S
C173 C112 1.313 . S
C175 C60 1.312 . S
C177 C125 1.349 . S
C179 C73 1.342 . S
C181 C104 1.277 . S
C183 C0 1.280 . S
C185 C13 1.275 . S
C187 C117 1.275 . S
C189 C130 1.292 . S
C191 C26 1.295 . S
C193 C39 1.297 . S
C195 C143 1.294 . S
C197 C52 1.307 . S
C199 C78 1.307 . S
C201 C65 1.277 . S
C203 C91 1.276 . S
C205 C140 1.584 . S
C207 C10 1.561 . S
C209 C153 1.558 . S
C211 C23 1.587 . S
C213 C88 1.570 . S
C215 C36 1.574 . S
C217 C49 1.588 . S
C219 C101 1.558 . S
C221 C62 1.580 . S
C223 C114 1.564 . S
C225 C127 1.565 . S
C227 C75 1.582 . S
C229 C5 1.237 . S
C231 C96 1.258 . S
C233 C109 1.227 . S
C235 C18 1.206 . S
C237 C122 1.245 . S
C239 C31 1.259 . S
C241 C44 1.236 . S
C243 C135 1.210 . S
C245 C57 1.250 . S
C247 C148 1.259 . S
C249 C70 1.257 . S
C251 C83 1.255 . S
