# Generated by pormake.
# Topology unc, (4)-cn, num edge types: 1
# Building blocks:
#     Node 0, Type 0, BuildingBlock: AZAVOO_clean_sbu_0, # of connection points: 4
#     Node 1, Type 0, BuildingBlock: AZAVOO_clean_sbu_0, # of connection points: 4
#     Node 2, Type 0, BuildingBlock: AZAVOO_clean_sbu_0, # of connection points: 4
#     Node 3, Type 0, BuildingBlock: AZAVOO_clean_sbu_0, # of connection points: 4
#     Edge 4, Type (0, 0), None
#     Edge 5, Type (0, 0), None
#     Edge 6, Type (0, 0), None
#     Edge 7, Type (0, 0), None
#     Edge 8, Type (0, 0), None
#     Edge 9, Type (0, 0), None
#     Edge 10, Type (0, 0), None
#     Edge 11, Type (0, 0), None
# Relax obj value: 0.172
# Max RMSD: 0.214
# Mean RMSD: 0.214
data_MOF--net-unc--node1-AZAVOO_clean_sbu_0--edge1-none
_symmetry_space_group_name_H-M    P1
_symmetry_Int_Tables_number       1
_symmetry_cell_setting            triclinic
loop_
_symmetry_equiv_pos_as_xyz
'x, y, z'
_cell_length_a     12.779111
_cell_length_b     12.780321
_cell_length_c     11.424009
_cell_angle_alpha  89.999081
_cell_angle_beta   89.999096
_cell_angle_gamma 110.36328
loop_
_atom_site_label
_atom_site_type_symbol
_atom_site_fract_x
_atom_site_fract_y
_atom_site_fract_z
_atom_type_partial_charge
Mg0 Mg 0.03584 0.70816 -0.04472 0.0
O1 O 0.20791 0.82878 0.01647 0.0
O2 O 0.30151 0.71952 0.0788 0.0
Mg3 Mg 0.19066 0.53633 0.06826 0.0
C4 C 0.29471 0.81545 0.06007 0.0
C5 C 0.95014 0.90327 0.8695 0.0
O6 O 0.92304 0.90713 -0.0201 0.0
O7 O 0.11439 0.65748 0.799 0.0
O8 O 0.19986 0.54374 0.86628 0.0
O9 O 0.97202 0.71769 0.13582 0.0
O10 O 0.04752 0.59452 0.07744 0.0
C11 C 0.17048 0.59369 0.78259 0.0
C12 C 1.01192 0.64012 0.16152 0.0
O13 O 1.00133 0.83862 0.83882 0.0
Mg14 Mg 0.49974 0.17207 0.19312 0.0
O15 O 0.37914 1.00001 0.13191 0.0
O16 O 0.48844 0.90644 0.06959 0.0
Mg17 Mg 0.67163 1.0173 0.08015 0.0
C18 C 0.39249 0.91322 0.08831 0.0
C19 C 0.30468 0.25783 0.27888 0.0
O20 O 0.30094 0.28504 0.1685 0.0
O21 O 0.55044 0.09353 0.3494 0.0
O22 O 0.66422 1.0081 0.28212 0.0
O23 O 0.49021 0.23588 0.01259 0.0
O24 O 0.61342 0.16041 0.07097 0.0
C25 C 0.61425 0.03747 0.36581 0.0
C26 C 0.56781 0.19601 -0.01311 0.0
O27 O 0.36924 0.20653 0.30957 0.0
Mg28 Mg 0.1691 0.50282 0.45529 0.0
O29 O 0.99703 0.38218 0.51647 0.0
O30 O 0.90342 0.49143 0.5788 0.0
Mg31 Mg 1.01424 0.67462 0.56826 0.0
C32 C 0.91022 0.3955 0.56008 0.0
C33 C 0.25476 0.30767 0.36951 0.0
O34 O 0.28176 0.30369 0.47992 0.0
O35 O 0.09053 0.55349 0.299 0.0
O36 O 1.00504 0.66722 0.36629 0.0
O37 O 0.23291 0.49329 0.63581 0.0
O38 O 0.15739 0.61645 0.57744 0.0
C39 C 0.03442 0.61726 0.2826 0.0
C40 C 0.19298 0.57084 0.66151 0.0
O41 O 0.20365 0.3724 0.33881 0.0
Mg42 Mg 0.70515 0.03887 0.69312 0.0
O43 O 0.82578 0.21093 0.63191 0.0
O44 O 0.7165 0.30451 0.56959 0.0
Mg45 Mg 0.5333 0.19368 0.58014 0.0
C46 C 0.81244 0.29772 0.5883 0.0
C47 C 0.90026 0.95316 0.77887 0.0
O48 O 0.90412 0.92604 0.66848 0.0
O49 O 0.65447 0.11742 0.8494 0.0
O50 O 0.54071 0.20288 0.78212 0.0
O51 O 0.71469 0.97507 0.51259 0.0
O52 O 0.59149 0.05056 0.57097 0.0
C53 C 0.59068 0.17351 0.86581 0.0
C54 C 0.63711 1.01497 0.48689 0.0
O55 O 0.83562 1.00437 0.80957 0.0
loop_
_geom_bond_atom_site_label_1
_geom_bond_atom_site_label_2
_geom_bond_distance
_geom_bond_site_symmetry_2
_ccdc_geom_bond_type
Mg0 O1 2.028 . S
Mg0 O7 1.986 1_554 S
Mg0 O9 2.114 1_455 S
Mg0 O10 2.251 . S
Mg0 O13 2.010 1_454 S
O1 Mg0 2.028 . S
O1 C4 1.250 . S
O2 Mg3 2.028 . S
O2 C4 1.248 . S
Mg3 O2 2.028 . S
Mg3 O8 2.032 1_554 S
Mg3 O10 2.079 . S
C4 O1 1.250 . S
C4 O2 1.248 . S
C5 O6 1.264 . S
C5 O13 1.249 . S
O6 C5 1.264 . S
O7 Mg0 1.986 1_556 S
O7 C11 1.246 . S
O8 Mg3 2.032 1_556 S
O8 C11 1.259 . S
O9 Mg0 2.114 1_655 S
O9 C12 1.252 1_655 S
O10 Mg0 2.251 . S
O10 Mg3 2.079 . S
O10 C12 1.273 . S
C11 O7 1.246 . S
C11 O8 1.259 . S
C12 O9 1.252 1_455 S
C12 O10 1.273 . S
O13 Mg0 2.010 1_656 S
O13 C5 1.249 . S
Mg14 O15 2.028 . S
Mg14 O21 1.986 . S
Mg14 O23 2.114 . S
Mg14 O24 2.251 . S
Mg14 O27 2.010 . S
O15 Mg14 2.028 . S
O15 C18 1.250 1_545 S
O16 Mg17 2.028 . S
O16 C18 1.248 . S
Mg17 O16 2.028 . S
Mg17 O22 2.032 . S
Mg17 O24 2.079 1_565 S
C18 O15 1.250 1_565 S
C18 O16 1.248 . S
C19 O20 1.264 . S
C19 O27 1.249 . S
O20 C19 1.264 . S
O21 Mg14 1.986 . S
O21 C25 1.246 . S
O22 Mg17 2.032 . S
O22 C25 1.259 1_565 S
O23 Mg14 2.114 . S
O23 C26 1.252 . S
O24 Mg14 2.251 . S
O24 Mg17 2.079 1_545 S
O24 C26 1.273 . S
C25 O21 1.246 . S
C25 O22 1.259 1_545 S
C26 O23 1.252 . S
C26 O24 1.273 . S
O27 Mg14 2.010 . S
O27 C19 1.249 . S
Mg28 O29 2.028 . S
Mg28 O35 1.986 . S
Mg28 O37 2.114 . S
Mg28 O38 2.251 . S
Mg28 O41 2.010 . S
O29 Mg28 2.028 . S
O29 C32 1.250 1_455 S
O30 Mg31 2.028 . S
O30 C32 1.248 . S
Mg31 O30 2.028 . S
Mg31 O36 2.032 . S
Mg31 O38 2.079 1_655 S
C32 O29 1.250 1_655 S
C32 O30 1.248 . S
C33 O34 1.264 . S
C33 O41 1.249 . S
O34 C33 1.264 . S
O35 Mg28 1.986 . S
O35 C39 1.246 . S
O36 Mg31 2.032 . S
O36 C39 1.259 1_655 S
O37 Mg28 2.114 . S
O37 C40 1.252 . S
O38 Mg28 2.251 . S
O38 Mg31 2.079 1_455 S
O38 C40 1.273 . S
C39 O35 1.246 . S
C39 O36 1.259 1_455 S
C40 O37 1.252 . S
C40 O38 1.273 . S
O41 Mg28 2.010 . S
O41 C33 1.249 . S
Mg42 O43 2.028 . S
Mg42 O49 1.986 . S
Mg42 O51 2.114 1_545 S
Mg42 O52 2.251 . S
Mg42 O55 2.010 1_545 S
O43 Mg42 2.028 . S
O43 C46 1.250 . S
O44 Mg45 2.028 . S
O44 C46 1.248 . S
Mg45 O44 2.028 . S
Mg45 O50 2.032 . S
Mg45 O52 2.079 . S
C46 O43 1.250 . S
C46 O44 1.248 . S
C47 O48 1.264 . S
C47 O55 1.249 . S
O48 C47 1.264 . S
O49 Mg42 1.986 . S
O49 C53 1.246 . S
O50 Mg45 2.032 . S
O50 C53 1.259 . S
O51 Mg42 2.114 1_565 S
O51 C54 1.252 1_565 S
O52 Mg42 2.251 . S
O52 Mg45 2.079 . S
O52 C54 1.273 . S
C53 O49 1.246 . S
C53 O50 1.259 . S
C54 O51 1.252 1_545 S
C54 O52 1.273 . S
O55 Mg42 2.010 1_565 S
O55 C47 1.249 . S
C12 C39 1.178 . S
C25 C54 1.178 . S
C11 C40 1.178 . S
C26 C53 1.178 1_554 S
C18 C4 1.653 . S
C19 C33 1.079 . S
C46 C32 1.653 . S
C47 C5 1.079 . S
