# Generated by pormake.
# Topology smt, (6)-cn, num edge types: 1
# Building blocks:
#     Node 0, Type 0, BuildingBlock: LEVNOQ01_clean_sbu_1, # of connection points: 6
#     Node 1, Type 0, BuildingBlock: LEVNOQ01_clean_sbu_1, # of connection points: 6
#     Node 2, Type 0, BuildingBlock: LEVNOQ01_clean_sbu_1, # of connection points: 6
#     Node 3, Type 0, BuildingBlock: LEVNOQ01_clean_sbu_1, # of connection points: 6
#     Node 4, Type 0, BuildingBlock: LEVNOQ01_clean_sbu_1, # of connection points: 6
#     Node 5, Type 0, BuildingBlock: LEVNOQ01_clean_sbu_1, # of connection points: 6
#     Edge 6, Type (0, 0), BuildingBlock: EYOCIG_clean_linker_4, # of connection points: 2
#     Edge 7, Type (0, 0), BuildingBlock: EYOCIG_clean_linker_4, # of connection points: 2
#     Edge 8, Type (0, 0), BuildingBlock: EYOCIG_clean_linker_4, # of connection points: 2
#     Edge 9, Type (0, 0), BuildingBlock: EYOCIG_clean_linker_4, # of connection points: 2
#     Edge 10, Type (0, 0), BuildingBlock: EYOCIG_clean_linker_4, # of connection points: 2
#     Edge 11, Type (0, 0), BuildingBlock: EYOCIG_clean_linker_4, # of connection points: 2
#     Edge 12, Type (0, 0), BuildingBlock: EYOCIG_clean_linker_4, # of connection points: 2
#     Edge 13, Type (0, 0), BuildingBlock: EYOCIG_clean_linker_4, # of connection points: 2
#     Edge 14, Type (0, 0), BuildingBlock: EYOCIG_clean_linker_4, # of connection points: 2
#     Edge 15, Type (0, 0), BuildingBlock: EYOCIG_clean_linker_4, # of connection points: 2
#     Edge 16, Type (0, 0), BuildingBlock: EYOCIG_clean_linker_4, # of connection points: 2
#     Edge 17, Type (0, 0), BuildingBlock: EYOCIG_clean_linker_4, # of connection points: 2
#     Edge 18, Type (0, 0), BuildingBlock: EYOCIG_clean_linker_4, # of connection points: 2
#     Edge 19, Type (0, 0), BuildingBlock: EYOCIG_clean_linker_4, # of connection points: 2
#     Edge 20, Type (0, 0), BuildingBlock: EYOCIG_clean_linker_4, # of connection points: 2
#     Edge 21, Type (0, 0), BuildingBlock: EYOCIG_clean_linker_4, # of connection points: 2
#     Edge 22, Type (0, 0), BuildingBlock: EYOCIG_clean_linker_4, # of connection points: 2
#     Edge 23, Type (0, 0), BuildingBlock: EYOCIG_clean_linker_4, # of connection points: 2
# Relax obj value: 0.321
# Max RMSD: 0.278
# Mean RMSD: 0.278
data_MOF--net-smt--node1-LEVNOQ01_clean_sbu_1--edge1-EYOCIG_clean_linker_4
_symmetry_space_group_name_H-M    P1
_symmetry_Int_Tables_number       1
_symmetry_cell_setting            triclinic
loop_
_symmetry_equiv_pos_as_xyz
'x, y, z'
_cell_length_a     28.503183
_cell_length_b     28.513071
_cell_length_c     19.109463
_cell_angle_alpha  90.00693
_cell_angle_beta   90.010185
_cell_angle_gamma 120.02007
loop_
_atom_site_label
_atom_site_type_symbol
_atom_site_fract_x
_atom_site_fract_y
_atom_site_fract_z
_atom_type_partial_charge
O0 O 0.31444 0.99503 0.00797 0.0
Mg1 Mg 0.34901 0.04283 0.10042 0.0
O2 O 0.36578 0.04533 0.91781 0.0
Mg3 Mg 0.44385 0.10907 -0.02411 0.0
O4 O 0.39112 0.11509 0.05627 0.0
O5 O 0.32736 0.10231 0.12969 0.0
O6 O 0.51879 0.16193 0.0492 0.0
O7 O 0.44768 0.18548 0.92502 0.0
Mg8 Mg 0.5577 0.17167 0.90341 0.0
O9 O 0.48942 0.10159 0.88105 0.0
O10 O 0.58627 0.15852 -0.00286 0.0
O11 O 0.53579 0.23231 0.89784 0.0
O12 O 0.56352 0.13376 0.81499 0.0
C13 C 0.44638 0.02931 0.09896 0.0
C14 C 0.32452 0.0029 0.94264 0.0
C15 C 0.36236 0.13304 0.08404 0.0
C16 C 0.56327 0.16124 0.05204 0.0
C17 C 0.4899 0.22895 0.90481 0.0
C18 C 0.51432 0.09665 0.82744 0.0
O19 O 0.41465 0.0358 0.13929 0.0
O20 O 0.4496 0.03957 0.03332 0.0
O21 O 0.29918 0.53748 0.06397 0.0
Mg22 Mg 0.38206 0.56026 0.06839 0.0
O23 O 0.25864 0.44944 0.0912 0.0
Mg24 Mg 0.3319 0.44622 0.14101 0.0
O25 O 0.3843 0.49225 0.04601 0.0
O26 O 0.42545 0.5661 -0.02048 0.0
O27 O 0.40785 0.45265 0.19749 0.0
O28 O 0.31788 0.36835 0.08269 0.0
Mg29 Mg 0.30478 0.35187 0.26554 0.0
O30 O 0.27357 0.393 0.22145 0.0
O31 O 0.37742 0.41793 0.30372 0.0
O32 O 0.31762 0.31733 0.17279 0.0
O33 O 0.22385 0.32996 0.29641 0.0
C34 C 0.39885 0.56566 0.21705 0.0
C35 C 0.2569 0.49146 0.07137 0.0
C36 C 0.41378 0.51707 -0.00786 0.0
C37 C 0.41534 0.4497 0.26305 0.0
C38 C 0.31942 0.32727 0.10746 0.0
C39 C 0.22734 0.36452 0.2506 0.0
O40 O 0.4241 0.58887 0.16196 0.0
O41 O 0.35385 0.52096 0.21452 0.0
O42 O -0.00293 0.31838 0.34139 0.0
Mg43 Mg 0.94933 0.30545 0.43377 0.0
O44 O 0.94664 0.31889 0.25103 0.0
Mg45 Mg 0.88262 0.33305 0.30862 0.0
O46 O 0.87701 0.27502 0.38969 0.0
O47 O 0.88987 0.22434 0.46348 0.0
O48 O 0.82951 0.35498 0.38151 0.0
O49 O 0.80633 0.25978 0.25844 0.0
Mg50 Mg 0.81945 0.38308 0.23593 0.0
O51 O 0.88973 0.38543 0.213 0.0
O52 O 0.83287 0.42563 0.32899 0.0
O53 O 0.75891 0.30042 0.23147 0.0
O54 O 0.85633 0.42625 0.14692 0.0
C55 C 0.96249 0.41626 0.43113 0.0
C56 C 0.98916 0.32032 0.27601 0.0
C57 C 0.85908 0.22841 0.41772 0.0
C58 C 0.83027 0.40017 0.38408 0.0
C59 C 0.76258 0.2581 0.23865 0.0
C60 C 0.89393 0.41486 0.15922 0.0
O61 O 0.95627 0.37828 0.47176 0.0
O62 O 0.95196 0.40887 0.36556 0.0
O63 O 0.45507 0.76011 0.39789 0.0
Mg64 Mg 0.43172 0.8197 0.40328 0.0
O65 O 0.5432 0.80799 0.42485 0.0
Mg66 Mg 0.54608 0.88405 0.47547 0.0
O67 O 0.49948 0.89022 0.38103 0.0
O68 O 0.42543 0.85744 0.31487 0.0
O69 O 0.53929 0.95309 0.53264 0.0
O70 O 0.62364 0.9484 0.41702 0.0
Mg71 Mg 0.64074 0.95147 0.59972 0.0
O72 O 0.59976 0.87916 0.55542 0.0
O73 O 0.5746 0.95759 0.63855 0.0
O74 O 0.67493 -0.00091 0.50705 0.0
O75 O 0.66304 0.89269 0.63013 0.0
C76 C 0.42688 0.83068 0.55215 0.0
C77 C 0.50126 0.76417 0.40483 0.0
C78 C 0.47446 0.89491 0.32741 0.0
C79 C 0.54248 0.96348 0.59823 0.0
C80 C 0.66477 0.99105 0.44174 0.0
C81 C 0.6284 0.86155 0.58439 0.0
O82 O 0.40336 0.83265 0.49732 0.0
O83 O 0.4717 0.83066 0.54917 0.0
O84 O 0.67398 0.67699 0.67459 0.0
Mg85 Mg 0.68693 0.64203 0.76681 0.0
O86 O 0.67333 0.62614 0.58404 0.0
Mg87 Mg 0.6591 0.54785 0.64131 0.0
O88 O 0.71714 0.6001 0.72249 0.0
O89 O 0.76817 0.66371 0.79603 0.0
O90 O 0.63719 0.47263 0.71385 0.0
O91 O 0.7323 0.54494 0.5909 0.0
Mg92 Mg 0.60884 0.43471 0.56812 0.0
O93 O 0.60668 0.50277 0.54564 0.0
O94 O 0.56643 0.40539 0.66126 0.0
O95 O 0.69155 0.45694 0.56349 0.0
O96 O 0.5656 0.42876 0.47921 0.0
C97 C 0.57599 0.54441 0.76405 0.0
C98 C 0.67201 0.66723 0.60919 0.0
C99 C 0.76391 0.62888 0.75014 0.0
C100 C 0.59203 0.42812 0.71636 0.0
C101 C 0.73391 0.5029 0.57082 0.0
C102 C 0.57722 0.47778 0.49176 0.0
O103 O 0.61403 0.5761 0.8047 0.0
O104 O 0.58334 0.54128 0.69847 0.0
O105 O 0.23146 0.69216 0.73168 0.0
Mg106 Mg 0.17132 0.60933 0.73659 0.0
O107 O 0.18412 0.73302 0.75824 0.0
Mg108 Mg 0.10741 0.66013 0.80814 0.0
O109 O 0.10128 0.60735 0.71383 0.0
O110 O 0.13354 0.56556 0.64791 0.0
O111 O 0.03764 0.58449 0.86466 0.0
O112 O 0.04381 0.674 0.74892 0.0
Mg113 Mg 0.03985 0.68772 0.93163 0.0
O114 O 0.11235 0.71882 0.88793 0.0
O115 O 0.03322 0.61528 -0.02941 0.0
O116 O 0.99274 0.67452 0.83849 0.0
O117 O 0.09879 0.76872 0.9623 0.0
C118 C 0.15974 0.5935 0.8855 0.0
C119 C 0.22785 0.73453 0.73863 0.0
C120 C 0.09642 0.57763 0.66016 0.0
C121 C 0.02715 0.57724 0.93022 0.0
C122 C 0.00109 0.67252 0.77325 0.0
C123 C 0.13002 0.7651 0.91686 0.0
O124 O 0.1577 0.56795 0.8307 0.0
O125 O 0.15998 0.63843 0.88247 0.0
C126 C 0.25633 0.91296 0.88092 0.0
C127 C 0.29077 0.95788 0.8982 0.0
C128 C 0.2148 0.85804 0.88097 0.0
C129 C 0.17748 0.81319 0.89279 0.0
C130 C 0.34093 0.259 0.04571 0.0
C131 C 0.33048 0.29347 0.06286 0.0
C132 C 0.35433 0.21748 0.04624 0.0
C133 C 0.3619 0.18031 0.05884 0.0
C134 C 0.07922 0.34226 0.21448 0.0
C135 C 0.03423 0.33164 0.23168 0.0
C136 C 0.13422 0.35589 0.21456 0.0
C137 C 0.17915 0.36363 0.2264 0.0
C138 C 0.77446 0.13583 0.38033 0.0
C139 C 0.81173 0.18059 0.39277 0.0
C140 C 0.73287 0.08092 0.37995 0.0
C141 C 0.69843 0.03598 0.39717 0.0
C142 C 0.63691 0.77707 0.54815 0.0
C143 C 0.62926 0.81427 0.56014 0.0
C144 C 0.65037 0.7356 0.5479 0.0
C145 C 0.66083 0.70113 0.56498 0.0
C146 C 0.91138 0.65072 0.71105 0.0
C147 C 0.95633 0.66128 0.72832 0.0
C148 C 0.85642 0.63721 0.71172 0.0
C149 C 0.81166 0.62952 0.72459 0.0
C150 C 0.49852 0.99188 0.17053 0.0
C151 C 0.47843 0.00903 0.12994 0.0
C152 C 0.50766 0.96665 0.22807 0.0
C153 C 0.50042 0.93818 0.27807 0.0
C154 C 0.50508 0.50218 0.33416 0.0
C155 C 0.46783 0.48203 0.29358 0.0
C156 C 0.53928 0.51123 0.39191 0.0
C157 C 0.56022 0.50385 0.44214 0.0
C158 C 0.02511 0.54008 0.56015 0.0
C159 C 0.05344 0.56093 0.61043 0.0
C160 C -8e-05 0.50594 0.50237 0.0
C161 C 0.98274 0.46871 0.46176 0.0
C162 C 0.48973 0.00012 0.66993 0.0
C163 C 0.50999 0.98327 0.62918 0.0
C164 C 0.48062 0.02515 0.72774 0.0
C165 C 0.48802 0.05353 0.77792 0.0
C166 C 0.45186 0.48346 0.89266 0.0
C167 C 0.43084 0.49093 0.94272 0.0
C168 C 0.48617 0.49236 0.83511 0.0
C169 C 0.52349 0.51234 0.79463 0.0
C170 C 0.9902 0.48768 0.00163 0.0
C171 C 0.00717 0.52491 0.96107 0.0
C172 C 0.96522 0.45334 0.05929 0.0
C173 C 0.93699 0.43217 0.10951 0.0
C174 C 0.50661 0.32175 0.86308 0.0
C175 C 0.4881 0.2765 0.88573 0.0
C176 C 0.54017 0.36923 0.8248 0.0
C177 C 0.56897 0.40116 0.78114 0.0
C178 C 0.16611 0.54159 -0.00584 0.0
C179 C 0.16314 0.57055 0.95064 0.0
C180 C 0.18015 0.50783 0.03176 0.0
C181 C 0.20716 0.48935 0.05351 0.0
C182 C 0.62183 0.16776 0.16056 0.0
C183 C 0.5899 0.16483 0.11702 0.0
C184 C 0.66952 0.18161 0.19837 0.0
C185 C 0.71497 0.20847 0.22041 0.0
C186 C 0.48525 0.6716 0.36354 0.0
C187 C 0.50368 0.71689 0.38601 0.0
C188 C 0.45142 0.62406 0.32548 0.0
C189 C 0.42227 0.59221 0.28195 0.0
C190 C 0.82409 0.45256 0.49242 0.0
C191 C 0.82687 0.42347 0.44891 0.0
C192 C 0.81036 0.48642 0.53031 0.0
C193 C 0.78353 0.50497 0.55248 0.0
C194 C 0.36871 0.8246 0.66081 0.0
C195 C 0.40059 0.82743 0.61727 0.0
C196 C 0.32102 0.81086 0.6985 0.0
C197 C 0.27554 0.78408 0.72041 0.0
loop_
_geom_bond_atom_site_label_1
_geom_bond_atom_site_label_2
_geom_bond_distance
_geom_bond_site_symmetry_2
_ccdc_geom_bond_type
O0 Mg1 1.990 . S
O0 C14 1.253 1_554 S
Mg1 O0 1.990 . S
Mg1 O4 2.180 . S
Mg1 O5 2.117 . S
Mg1 O19 2.030 . S
O2 Mg3 2.072 1_556 S
O2 C14 1.260 . S
Mg3 O2 2.072 1_554 S
Mg3 O4 2.099 . S
Mg3 O6 2.079 . S
Mg3 O7 2.072 1_554 S
Mg3 O9 2.099 1_554 S
Mg3 O20 2.079 . S
O4 Mg1 2.180 . S
O4 Mg3 2.099 . S
O4 C15 1.279 . S
O5 Mg1 2.117 . S
O5 C15 1.250 . S
O6 Mg3 2.079 . S
O6 C16 1.264 . S
O7 Mg3 2.072 1_556 S
O7 C17 1.260 . S
Mg8 O9 2.180 . S
Mg8 O10 2.030 . S
Mg8 O11 1.990 . S
Mg8 O12 2.117 . S
O9 Mg3 2.099 1_556 S
O9 Mg8 2.180 . S
O9 C18 1.279 . S
O10 Mg8 2.030 . S
O10 C16 1.248 1_556 S
O11 Mg8 1.990 . S
O11 C17 1.253 . S
O12 Mg8 2.117 . S
O12 C18 1.250 . S
C13 O19 1.248 . S
C13 O20 1.264 . S
C14 O0 1.253 1_556 S
C14 O2 1.260 . S
C15 O4 1.279 . S
C15 O5 1.250 . S
C16 O6 1.264 . S
C16 O10 1.248 1_554 S
C17 O7 1.260 . S
C17 O11 1.253 . S
C18 O9 1.279 . S
C18 O12 1.250 . S
O19 Mg1 2.030 . S
O19 C13 1.248 . S
O20 Mg3 2.079 . S
O20 C13 1.264 . S
O21 Mg22 1.990 . S
O21 C35 1.253 . S
Mg22 O21 1.990 . S
Mg22 O25 2.180 . S
Mg22 O26 2.117 . S
Mg22 O40 2.030 . S
O23 Mg24 2.072 . S
O23 C35 1.260 . S
Mg24 O23 2.072 . S
Mg24 O25 2.099 . S
Mg24 O27 2.079 . S
Mg24 O28 2.072 . S
Mg24 O30 2.099 . S
Mg24 O41 2.079 . S
O25 Mg22 2.180 . S
O25 Mg24 2.099 . S
O25 C36 1.279 . S
O26 Mg22 2.117 . S
O26 C36 1.250 . S
O27 Mg24 2.079 . S
O27 C37 1.264 . S
O28 Mg24 2.072 . S
O28 C38 1.260 . S
Mg29 O30 2.180 . S
Mg29 O31 2.030 . S
Mg29 O32 1.990 . S
Mg29 O33 2.117 . S
O30 Mg24 2.099 . S
O30 Mg29 2.180 . S
O30 C39 1.279 . S
O31 Mg29 2.030 . S
O31 C37 1.248 . S
O32 Mg29 1.990 . S
O32 C38 1.253 . S
O33 Mg29 2.117 . S
O33 C39 1.250 . S
C34 O40 1.248 . S
C34 O41 1.264 . S
C35 O21 1.253 . S
C35 O23 1.260 . S
C36 O25 1.279 . S
C36 O26 1.250 . S
C37 O27 1.264 . S
C37 O31 1.248 . S
C38 O28 1.260 . S
C38 O32 1.253 . S
C39 O30 1.279 . S
C39 O33 1.250 . S
O40 Mg22 2.030 . S
O40 C34 1.248 . S
O41 Mg24 2.079 . S
O41 C34 1.264 . S
O42 Mg43 1.990 . S
O42 C56 1.253 . S
Mg43 O42 1.990 . S
Mg43 O46 2.180 . S
Mg43 O47 2.117 . S
Mg43 O61 2.030 . S
O44 Mg45 2.072 . S
O44 C56 1.260 . S
Mg45 O44 2.072 . S
Mg45 O46 2.099 . S
Mg45 O48 2.079 . S
Mg45 O49 2.072 . S
Mg45 O51 2.099 . S
Mg45 O62 2.079 . S
O46 Mg43 2.180 . S
O46 Mg45 2.099 . S
O46 C57 1.279 . S
O47 Mg43 2.117 . S
O47 C57 1.250 . S
O48 Mg45 2.079 . S
O48 C58 1.264 . S
O49 Mg45 2.072 . S
O49 C59 1.260 . S
Mg50 O51 2.180 . S
Mg50 O52 2.030 . S
Mg50 O53 1.990 . S
Mg50 O54 2.117 . S
O51 Mg45 2.099 . S
O51 Mg50 2.180 . S
O51 C60 1.279 . S
O52 Mg50 2.030 . S
O52 C58 1.248 . S
O53 Mg50 1.990 . S
O53 C59 1.253 . S
O54 Mg50 2.117 . S
O54 C60 1.250 . S
C55 O61 1.248 . S
C55 O62 1.264 . S
C56 O42 1.253 . S
C56 O44 1.260 . S
C57 O46 1.279 . S
C57 O47 1.250 . S
C58 O48 1.264 . S
C58 O52 1.248 . S
C59 O49 1.260 . S
C59 O53 1.253 . S
C60 O51 1.279 . S
C60 O54 1.250 . S
O61 Mg43 2.030 . S
O61 C55 1.248 . S
O62 Mg45 2.079 . S
O62 C55 1.264 . S
O63 Mg64 1.990 . S
O63 C77 1.253 . S
Mg64 O63 1.990 . S
Mg64 O67 2.180 . S
Mg64 O68 2.117 . S
Mg64 O82 2.030 . S
O65 Mg66 2.072 . S
O65 C77 1.260 . S
Mg66 O65 2.072 . S
Mg66 O67 2.099 . S
Mg66 O69 2.079 . S
Mg66 O70 2.072 . S
Mg66 O72 2.099 . S
Mg66 O83 2.079 . S
O67 Mg64 2.180 . S
O67 Mg66 2.099 . S
O67 C78 1.279 . S
O68 Mg64 2.117 . S
O68 C78 1.250 . S
O69 Mg66 2.079 . S
O69 C79 1.264 . S
O70 Mg66 2.072 . S
O70 C80 1.260 . S
Mg71 O72 2.180 . S
Mg71 O73 2.030 . S
Mg71 O74 1.990 . S
Mg71 O75 2.117 . S
O72 Mg66 2.099 . S
O72 Mg71 2.180 . S
O72 C81 1.279 . S
O73 Mg71 2.030 . S
O73 C79 1.248 . S
O74 Mg71 1.990 . S
O74 C80 1.253 . S
O75 Mg71 2.117 . S
O75 C81 1.250 . S
C76 O82 1.248 . S
C76 O83 1.264 . S
C77 O63 1.253 . S
C77 O65 1.260 . S
C78 O67 1.279 . S
C78 O68 1.250 . S
C79 O69 1.264 . S
C79 O73 1.248 . S
C80 O70 1.260 . S
C80 O74 1.253 . S
C81 O72 1.279 . S
C81 O75 1.250 . S
O82 Mg64 2.030 . S
O82 C76 1.248 . S
O83 Mg66 2.079 . S
O83 C76 1.264 . S
O84 Mg85 1.990 . S
O84 C98 1.253 . S
Mg85 O84 1.990 . S
Mg85 O88 2.180 . S
Mg85 O89 2.117 . S
Mg85 O103 2.030 . S
O86 Mg87 2.072 . S
O86 C98 1.260 . S
Mg87 O86 2.072 . S
Mg87 O88 2.099 . S
Mg87 O90 2.079 . S
Mg87 O91 2.072 . S
Mg87 O93 2.099 . S
Mg87 O104 2.079 . S
O88 Mg85 2.180 . S
O88 Mg87 2.099 . S
O88 C99 1.279 . S
O89 Mg85 2.117 . S
O89 C99 1.250 . S
O90 Mg87 2.079 . S
O90 C100 1.264 . S
O91 Mg87 2.072 . S
O91 C101 1.260 . S
Mg92 O93 2.180 . S
Mg92 O94 2.030 . S
Mg92 O95 1.990 . S
Mg92 O96 2.117 . S
O93 Mg87 2.099 . S
O93 Mg92 2.180 . S
O93 C102 1.279 . S
O94 Mg92 2.030 . S
O94 C100 1.248 . S
O95 Mg92 1.990 . S
O95 C101 1.253 . S
O96 Mg92 2.117 . S
O96 C102 1.250 . S
C97 O103 1.248 . S
C97 O104 1.264 . S
C98 O84 1.253 . S
C98 O86 1.260 . S
C99 O88 1.279 . S
C99 O89 1.250 . S
C100 O90 1.264 . S
C100 O94 1.248 . S
C101 O91 1.260 . S
C101 O95 1.253 . S
C102 O93 1.279 . S
C102 O96 1.250 . S
O103 Mg85 2.030 . S
O103 C97 1.248 . S
O104 Mg87 2.079 . S
O104 C97 1.264 . S
O105 Mg106 1.990 . S
O105 C119 1.253 . S
Mg106 O105 1.990 . S
Mg106 O109 2.180 . S
Mg106 O110 2.117 . S
Mg106 O124 2.030 . S
O107 Mg108 2.072 . S
O107 C119 1.260 . S
Mg108 O107 2.072 . S
Mg108 O109 2.099 . S
Mg108 O111 2.079 . S
Mg108 O112 2.072 . S
Mg108 O114 2.099 . S
Mg108 O125 2.079 . S
O109 Mg106 2.180 . S
O109 Mg108 2.099 . S
O109 C120 1.279 . S
O110 Mg106 2.117 . S
O110 C120 1.250 . S
O111 Mg108 2.079 . S
O111 C121 1.264 . S
O112 Mg108 2.072 . S
O112 C122 1.260 . S
Mg113 O114 2.180 . S
Mg113 O115 2.030 . S
Mg113 O116 1.990 . S
Mg113 O117 2.117 . S
O114 Mg108 2.099 . S
O114 Mg113 2.180 . S
O114 C123 1.279 . S
O115 Mg113 2.030 . S
O115 C121 1.248 . S
O116 Mg113 1.990 . S
O116 C122 1.253 . S
O117 Mg113 2.117 . S
O117 C123 1.250 . S
C118 O124 1.248 . S
C118 O125 1.264 . S
C119 O105 1.253 . S
C119 O107 1.260 . S
C120 O109 1.279 . S
C120 O110 1.250 . S
C121 O111 1.264 . S
C121 O115 1.248 . S
C122 O112 1.260 . S
C122 O116 1.253 . S
C123 O114 1.279 . S
C123 O117 1.250 . S
O124 Mg106 2.030 . S
O124 C118 1.248 . S
O125 Mg108 2.079 . S
O125 C118 1.264 . S
C126 C127 1.170 . S
C126 C128 1.380 . S
C127 C126 1.170 . S
C128 C126 1.380 . S
C128 C129 1.170 . S
C129 C128 1.170 . S
C130 C131 1.170 . S
C130 C132 1.380 . S
C131 C130 1.170 . S
C132 C130 1.380 . S
C132 C133 1.170 . S
C133 C132 1.170 . S
C134 C135 1.170 . S
C134 C136 1.380 . S
C135 C134 1.170 . S
C136 C134 1.380 . S
C136 C137 1.170 . S
C137 C136 1.170 . S
C138 C139 1.170 . S
C138 C140 1.380 . S
C139 C138 1.170 . S
C140 C138 1.380 . S
C140 C141 1.170 . S
C141 C140 1.170 . S
C142 C143 1.170 . S
C142 C144 1.380 . S
C143 C142 1.170 . S
C144 C142 1.380 . S
C144 C145 1.170 . S
C145 C144 1.170 . S
C146 C147 1.170 . S
C146 C148 1.380 . S
C147 C146 1.170 . S
C148 C146 1.380 . S
C148 C149 1.170 . S
C149 C148 1.170 . S
C150 C151 1.170 . S
C150 C152 1.380 . S
C151 C150 1.170 . S
C152 C150 1.380 . S
C152 C153 1.170 . S
C153 C152 1.170 . S
C154 C155 1.170 . S
C154 C156 1.380 . S
C155 C154 1.170 . S
C156 C154 1.380 . S
C156 C157 1.170 . S
C157 C156 1.170 . S
C158 C159 1.170 . S
C158 C160 1.380 . S
C159 C158 1.170 . S
C160 C158 1.380 . S
C160 C161 1.170 . S
C161 C160 1.170 . S
C162 C163 1.170 1_545 S
C162 C164 1.380 . S
C163 C162 1.170 1_565 S
C164 C162 1.380 . S
C164 C165 1.170 . S
C165 C164 1.170 . S
C166 C167 1.170 1_556 S
C166 C168 1.380 . S
C167 C166 1.170 1_554 S
C168 C166 1.380 . S
C168 C169 1.170 . S
C169 C168 1.170 . S
C170 C171 1.170 . S
C170 C172 1.380 . S
C171 C170 1.170 . S
C172 C170 1.380 . S
C172 C173 1.170 . S
C173 C172 1.170 . S
C174 C175 1.170 . S
C174 C176 1.380 . S
C175 C174 1.170 . S
C176 C174 1.380 . S
C176 C177 1.170 . S
C177 C176 1.170 . S
C178 C179 1.170 . S
C178 C180 1.380 1_556 S
C179 C178 1.170 . S
C180 C178 1.380 1_554 S
C180 C181 1.170 . S
C181 C180 1.170 . S
C182 C183 1.170 . S
C182 C184 1.380 . S
C183 C182 1.170 . S
C184 C182 1.380 . S
C184 C185 1.170 . S
C185 C184 1.170 . S
C186 C187 1.170 . S
C186 C188 1.380 . S
C187 C186 1.170 . S
C188 C186 1.380 . S
C188 C189 1.170 . S
C189 C188 1.170 . S
C190 C191 1.170 . S
C190 C192 1.380 . S
C191 C190 1.170 . S
C192 C190 1.380 . S
C192 C193 1.170 . S
C193 C192 1.170 . S
C194 C195 1.170 . S
C194 C196 1.380 . S
C195 C194 1.170 . S
C196 C194 1.380 . S
C196 C197 1.170 . S
C197 C196 1.170 . S
C127 C14 1.681 1_565 S
C129 C123 1.583 . S
C131 C38 1.663 . S
C133 C15 1.622 . S
C135 C56 1.669 1_455 S
C137 C39 1.629 . S
C139 C57 1.623 . S
C141 C80 1.684 1_545 S
C143 C81 1.624 . S
C145 C98 1.683 . S
C147 C122 1.700 1_655 S
C149 C99 1.601 . S
C151 C13 1.332 1_565 S
C153 C78 1.027 . S
C155 C37 1.334 . S
C157 C102 1.028 . S
C159 C120 1.057 . S
C161 C55 1.318 1_455 S
C163 C79 1.290 . S
C165 C18 1.121 . S
C167 C36 1.120 . S
C169 C97 1.291 . S
C171 C121 1.336 1_654 S
C173 C60 1.021 . S
C175 C17 1.161 . S
C177 C100 1.258 . S
C179 C118 1.260 . S
C181 C35 1.161 . S
C183 C16 1.250 . S
C185 C59 1.175 . S
C187 C77 1.176 . S
C189 C34 1.247 . S
C191 C58 1.226 . S
C193 C101 1.202 . S
C195 C76 1.233 . S
C197 C119 1.193 . S
