# Generated by pormake.
# Topology unc, (4)-cn, num edge types: 1
# Building blocks:
#     Node 0, Type 0, BuildingBlock: AZAVOO_clean_sbu_0, # of connection points: 4
#     Node 1, Type 0, BuildingBlock: AZAVOO_clean_sbu_0, # of connection points: 4
#     Node 2, Type 0, BuildingBlock: AZAVOO_clean_sbu_0, # of connection points: 4
#     Node 3, Type 0, BuildingBlock: AZAVOO_clean_sbu_0, # of connection points: 4
#     Edge 4, Type (0, 0), BuildingBlock: XIVTED_clean_linker_0, # of connection points: 2
#     Edge 5, Type (0, 0), BuildingBlock: XIVTED_clean_linker_0, # of connection points: 2
#     Edge 6, Type (0, 0), BuildingBlock: XIVTED_clean_linker_0, # of connection points: 2
#     Edge 7, Type (0, 0), BuildingBlock: XIVTED_clean_linker_0, # of connection points: 2
#     Edge 8, Type (0, 0), BuildingBlock: XIVTED_clean_linker_0, # of connection points: 2
#     Edge 9, Type (0, 0), BuildingBlock: XIVTED_clean_linker_0, # of connection points: 2
#     Edge 10, Type (0, 0), BuildingBlock: XIVTED_clean_linker_0, # of connection points: 2
#     Edge 11, Type (0, 0), BuildingBlock: XIVTED_clean_linker_0, # of connection points: 2
# Relax obj value: 0.167
# Max RMSD: 0.208
# Mean RMSD: 0.208
data_MOF--net-unc--node1-AZAVOO_clean_sbu_0--edge1-XIVTED_clean_linker_0
_symmetry_space_group_name_H-M    P1
_symmetry_Int_Tables_number       1
_symmetry_cell_setting            triclinic
loop_
_symmetry_equiv_pos_as_xyz
'x, y, z'
_cell_length_a     27.752215
_cell_length_b     27.35846
_cell_length_c     24.994543
_cell_angle_alpha  90.907949
_cell_angle_beta   89.345898
_cell_angle_gamma 103.26921
loop_
_atom_site_label
_atom_site_type_symbol
_atom_site_fract_x
_atom_site_fract_y
_atom_site_fract_z
_atom_type_partial_charge
Mg0 Mg 1.01385 0.68329 -0.04537 0.0
O1 O 0.07797 0.73929 -0.00441 0.0
O2 O 0.12602 0.69451 0.03396 0.0
Mg3 Mg 0.09565 0.61132 0.01463 0.0
C4 C 0.11554 0.73633 0.02335 0.0
C5 C 0.93998 0.73901 0.91967 0.0
O6 O 0.91606 0.6976 -0.05715 0.0
O7 O 0.06617 0.67373 0.88633 0.0
O8 O 0.11135 0.62635 0.92547 0.0
O9 O 0.96999 0.67031 0.03148 0.0
O10 O 1.02237 0.62568 0.00333 0.0
C11 C 0.09991 0.6487 0.8846 0.0
C12 C 0.99179 0.63402 0.03924 0.0
O13 O 0.98683 0.74687 0.91531 0.0
Mg14 Mg 0.45053 0.11576 0.20002 0.0
O15 O 0.39605 0.05141 0.15761 0.0
O16 O 0.43983 1.00422 0.11348 0.0
Mg17 Mg 0.52206 0.03653 0.12998 0.0
C18 C 0.39865 1.01412 0.12728 0.0
C19 C 0.35332 0.15198 0.22326 0.0
O20 O 0.35443 0.15413 0.17077 0.0
O21 O 0.46302 0.06113 0.26312 0.0
O22 O 0.51025 1.01734 0.21893 0.0
O23 O 0.4609 0.16278 0.12551 0.0
O24 O 0.50664 0.11011 0.14737 0.0
C25 C 0.48853 1.02767 0.26159 0.0
C26 C 0.49699 0.14155 0.114 0.0
O27 O 0.38695 0.13626 0.24709 0.0
Mg28 Mg 0.1134 0.44748 0.44945 0.0
O29 O 0.04945 0.39396 0.49262 0.0
O30 O 1.0033 0.4403 0.53433 0.0
Mg31 Mg 0.03572 0.52294 0.51556 0.0
C32 C 1.01267 0.39794 0.52214 0.0
C33 C 0.1525 0.35022 0.42949 0.0
O34 O 0.1577 0.3547 0.48164 0.0
O35 O 0.05982 0.45812 0.38502 0.0
O36 O 1.01684 0.50761 0.42689 0.0
O37 O 0.15968 0.46058 0.52429 0.0
O38 O 0.10797 0.50626 0.49978 0.0
C39 C 1.02688 0.48404 0.38518 0.0
C40 C 0.13898 0.49771 0.53395 0.0
O41 O 0.13365 0.38154 0.4049 0.0
Mg42 Mg 0.68269 1.0132 0.69369 0.0
O43 O 0.73652 0.07889 0.6533 0.0
O44 O 0.69146 0.12614 0.61398 0.0
Mg45 Mg 0.60953 0.09278 0.63167 0.0
C46 C 0.73304 0.11663 0.62546 0.0
C47 C 0.733 0.96168 0.7756 0.0
O48 O 0.68614 0.95129 0.79017 0.0
O49 O 0.67049 0.06622 0.76102 0.0
O50 O 0.62217 0.10993 0.72123 0.0
O51 O 0.67212 0.96772 0.617 0.0
O52 O 0.62602 1.01945 0.64378 0.0
C53 C 0.64442 0.09922 0.76243 0.0
C54 C 0.63562 0.98866 0.60826 0.0
O55 O 0.74627 0.99035 0.73601 0.0
H56 H 1.01627 0.54495 0.05437 0.0
H57 H 0.96253 0.54443 0.36725 0.0
H58 H 0.94948 0.65392 0.13485 0.0
H59 H 0.04083 0.44507 0.286 0.0
H60 H 0.94131 0.57323 0.28071 0.0
H61 H 1.01029 0.49779 0.13664 0.0
C62 C 1.00027 0.55897 0.08949 0.0
C63 C 0.98438 0.60403 0.08824 0.0
C64 C 0.96247 0.54457 0.28186 0.0
C65 C 0.97727 0.54997 0.18272 0.0
C66 C 0.97452 0.52791 0.33127 0.0
C67 C 1.00461 0.49312 0.33395 0.0
C68 C 0.98064 0.5263 0.23489 0.0
C69 C 1.01837 0.47261 0.28596 0.0
C70 C 0.9966 0.5318 0.13641 0.0
C71 C 0.96275 0.61967 0.13444 0.0
N72 N 1.0069 0.4901 0.2384 0.0
N73 N 0.96043 0.59296 0.18021 0.0
H74 H 0.55214 0.96604 0.27756 0.0
H75 H 0.54537 1.00752 0.59286 0.0
H76 H 0.44935 0.03781 0.36121 0.0
H77 H 0.65947 0.95062 0.51123 0.0
H78 H 0.50023 1.00239 0.50956 0.0
H79 H 0.58116 0.94335 0.36343 0.0
C80 C 0.53496 0.97626 0.31389 0.0
C81 C 0.49892 1.00489 0.31216 0.0
C82 C 0.53493 0.99065 0.50971 0.0
C83 C 0.5323 0.97916 0.41044 0.0
C84 C 0.5609 0.99377 0.55726 0.0
C85 C 0.60677 0.98051 0.55857 0.0
C86 C 0.55511 0.97459 0.46278 0.0
C87 C 0.62447 0.96176 0.51165 0.0
C88 C 0.55175 0.96339 0.3629 0.0
C89 C 0.47777 1.01652 0.36054 0.0
N90 N 0.59887 0.96003 0.46526 0.0
N91 N 0.49526 1.00418 0.4077 0.0
H92 H 0.16658 0.5907 0.86393 0.0
H93 H 0.11883 0.5889 0.55071 0.0
H94 H 0.08335 0.68441 0.78608 0.0
H95 H 0.17857 0.47669 0.62926 0.0
H96 H 0.12336 0.63609 0.63435 0.0
H97 H 0.18907 0.56169 0.77646 0.0
C98 C 0.15369 0.60593 0.8285 0.0
C99 C 0.12201 0.63929 0.83245 0.0
C100 C 0.13587 0.60138 0.63338 0.0
C101 C 0.14767 0.60592 0.7323 0.0
C102 C 0.13312 0.57423 0.58567 0.0
C103 C 0.14728 0.5282 0.58347 0.0
C104 C 0.1526 0.58228 0.67953 0.0
C105 C 0.16672 0.51173 0.62954 0.0
C106 C 0.1665 0.58914 0.77857 0.0
C107 C 0.10715 0.65811 0.78508 0.0
N108 N 0.16817 0.53849 0.67611 0.0
N109 N 0.11958 0.64063 0.73697 0.0
H110 H 0.47258 0.1816 0.02023 0.0
H111 H 0.68569 0.08955 0.85977 0.0
H112 H 0.58588 0.1205 0.09299 0.0
H113 H 0.57936 0.15874 0.78414 0.0
H114 H 0.65703 0.11307 -0.05316 0.0
H115 H 0.5175 0.18515 0.93454 0.0
C116 C 0.5071 0.16951 0.01827 0.0
C117 C 0.52501 0.14968 0.06328 0.0
C118 C 0.64036 0.12371 0.91118 0.0
C119 C 0.5764 0.15368 -0.0338 0.0
C120 C 0.65683 0.11033 0.86139 0.0
C121 C 0.63428 0.12127 0.81456 0.0
C122 C 0.60064 0.14766 0.91423 0.0
C123 C 0.59741 0.14885 0.8192 0.0
C124 C 0.53273 0.17153 -0.0305 0.0
C125 C 0.5701 0.13491 0.05889 0.0
N126 N 0.58113 0.16034 0.8682 0.0
N127 N 0.59392 0.13674 0.01117 0.0
H128 H 0.37914 0.96703 0.03023 0.0
H129 H 0.15857 0.75677 0.12101 0.0
H130 H 0.31384 0.98182 0.18532 0.0
H131 H 0.15252 0.82019 -0.0349 0.0
H132 H 0.22333 0.83073 0.14652 0.0
H133 H 0.30401 0.90437 0.0047 0.0
C134 C 0.34883 0.95727 0.05868 0.0
C135 C 0.35244 0.97949 0.10986 0.0
C136 C 0.20725 0.82861 0.10702 0.0
C137 C 0.26767 0.90745 0.08154 0.0
C138 C 0.17058 0.78658 0.09246 0.0
C139 C 0.15025 0.78278 0.04106 0.0
C140 C 0.22483 0.86596 0.06921 0.0
C141 C 0.1671 0.82214 0.00528 0.0
C142 C 0.3061 0.92186 0.04405 0.0
C143 C 0.31223 0.96568 0.14536 0.0
N144 N 0.20425 0.86179 0.01965 0.0
N145 N 0.27176 0.92972 0.13091 0.0
H146 H 0.34082 0.15396 0.33219 0.0
H147 H 0.14924 0.33148 0.32134 0.0
H148 H 0.28206 0.19689 0.18546 0.0
H149 H 0.20395 0.28422 0.46825 0.0
H150 H 0.19162 0.27618 0.27124 0.0
H151 H 0.28523 0.19514 0.38291 0.0
C152 C 0.31594 0.17167 0.31059 0.0
C153 C 0.31649 0.17238 0.25443 0.0
C154 C 0.19403 0.27756 0.31447 0.0
C155 C 0.25285 0.2199 0.31236 0.0
C156 C 0.16978 0.30914 0.34314 0.0
C157 C 0.17344 0.31292 0.3991 0.0
C158 C 0.22238 0.24968 0.34186 0.0
C159 C 0.20036 0.28281 0.42515 0.0
C160 C 0.28418 0.19521 0.33962 0.0
C161 C 0.28318 0.19567 0.22869 0.0
N162 N 0.22415 0.25283 0.39629 0.0
N163 N 0.25305 0.21886 0.25784 0.0
H164 H 0.75242 0.1621 0.52883 0.0
H165 H 0.96659 0.38044 0.61927 0.0
H166 H 0.81628 0.15294 0.68377 0.0
H167 H 0.97811 0.31194 0.46449 0.0
H168 H 0.90247 0.30624 0.64484 0.0
H169 H 0.82627 0.22651 0.50362 0.0
C170 C 0.78218 0.17348 0.5573 0.0
C171 C 0.77861 0.15228 0.60829 0.0
C172 C 0.91957 0.30741 0.60556 0.0
C173 C 0.86176 0.22634 0.58044 0.0
C174 C 0.95584 0.34957 0.59094 0.0
C175 C 0.97758 0.35198 0.53985 0.0
C176 C 0.90384 0.26847 0.56811 0.0
C177 C 0.96241 0.31118 0.50441 0.0
C178 C 0.82415 0.2099 0.54288 0.0
C179 C 0.818 0.16822 0.64392 0.0
N180 N 0.92567 0.27137 0.51882 0.0
N181 N 0.85769 0.20511 0.62969 0.0
H182 H 0.8313 0.96766 0.75108 0.0
H183 H 0.84309 0.73736 0.93845 0.0
H184 H 0.71383 0.89552 0.8577 0.0
H185 H 0.97288 0.82346 0.85815 0.0
H186 H 0.79584 0.79548 0.90713 0.0
H187 H 0.88474 0.91684 0.78858 0.0
C188 C 0.8169 0.94156 0.78268 0.0
C189 C 0.76784 0.93558 0.801 0.0
C190 C 0.83469 0.802 0.89641 0.0
C191 C 0.82852 0.87722 0.84355 0.0
C192 C 0.86177 0.7686 0.91415 0.0
C193 C 0.91207 0.77539 0.90077 0.0
C194 C 0.85772 0.84259 0.86448 0.0
C195 C 0.93415 0.81681 0.86937 0.0
C196 C 0.8474 0.91256 0.80398 0.0
C197 C 0.7512 0.90127 0.84203 0.0
N198 N 0.90671 0.84878 0.85195 0.0
N199 N 0.7813 0.87322 0.86153 0.0
loop_
_geom_bond_atom_site_label_1
_geom_bond_atom_site_label_2
_geom_bond_distance
_geom_bond_site_symmetry_2
_ccdc_geom_bond_type
Mg0 O1 2.028 1_655 S
Mg0 O7 1.986 1_654 S
Mg0 O9 2.114 . S
Mg0 O10 2.251 1_655 S
Mg0 O13 2.010 1_554 S
O1 Mg0 2.028 1_455 S
O1 C4 1.250 . S
O2 Mg3 2.028 . S
O2 C4 1.248 . S
Mg3 O2 2.028 . S
Mg3 O8 2.032 1_554 S
Mg3 O10 2.079 . S
C4 O1 1.250 . S
C4 O2 1.248 . S
C5 O6 1.264 . S
C5 O13 1.249 . S
O6 C5 1.264 . S
O7 Mg0 1.986 1_456 S
O7 C11 1.246 . S
O8 Mg3 2.032 1_556 S
O8 C11 1.259 . S
O9 Mg0 2.114 . S
O9 C12 1.252 1_655 S
O10 Mg0 2.251 1_455 S
O10 Mg3 2.079 . S
O10 C12 1.273 . S
C11 O7 1.246 . S
C11 O8 1.259 . S
C12 O9 1.252 1_455 S
C12 O10 1.273 . S
O13 Mg0 2.010 1_556 S
O13 C5 1.249 . S
Mg14 O15 2.028 . S
Mg14 O21 1.986 . S
Mg14 O23 2.114 . S
Mg14 O24 2.251 . S
Mg14 O27 2.010 . S
O15 Mg14 2.028 . S
O15 C18 1.250 1_545 S
O16 Mg17 2.028 . S
O16 C18 1.248 . S
Mg17 O16 2.028 . S
Mg17 O22 2.032 . S
Mg17 O24 2.079 1_565 S
C18 O15 1.250 1_565 S
C18 O16 1.248 . S
C19 O20 1.264 . S
C19 O27 1.249 . S
O20 C19 1.264 . S
O21 Mg14 1.986 . S
O21 C25 1.246 . S
O22 Mg17 2.032 . S
O22 C25 1.259 1_565 S
O23 Mg14 2.114 . S
O23 C26 1.252 . S
O24 Mg14 2.251 . S
O24 Mg17 2.079 1_545 S
O24 C26 1.273 . S
C25 O21 1.246 . S
C25 O22 1.259 1_545 S
C26 O23 1.252 . S
C26 O24 1.273 . S
O27 Mg14 2.010 . S
O27 C19 1.249 . S
Mg28 O29 2.028 . S
Mg28 O35 1.986 . S
Mg28 O37 2.114 . S
Mg28 O38 2.251 . S
Mg28 O41 2.010 . S
O29 Mg28 2.028 . S
O29 C32 1.250 1_455 S
O30 Mg31 2.028 . S
O30 C32 1.248 . S
Mg31 O30 2.028 . S
Mg31 O36 2.032 . S
Mg31 O38 2.079 1_655 S
C32 O29 1.250 1_655 S
C32 O30 1.248 . S
C33 O34 1.264 . S
C33 O41 1.249 . S
O34 C33 1.264 . S
O35 Mg28 1.986 . S
O35 C39 1.246 . S
O36 Mg31 2.032 . S
O36 C39 1.259 1_655 S
O37 Mg28 2.114 . S
O37 C40 1.252 . S
O38 Mg28 2.251 . S
O38 Mg31 2.079 1_455 S
O38 C40 1.273 . S
C39 O35 1.246 . S
C39 O36 1.259 1_455 S
C40 O37 1.252 . S
C40 O38 1.273 . S
O41 Mg28 2.010 . S
O41 C33 1.249 . S
Mg42 O43 2.028 1_565 S
Mg42 O49 1.986 1_565 S
Mg42 O51 2.114 . S
Mg42 O52 2.251 1_565 S
Mg42 O55 2.010 . S
O43 Mg42 2.028 1_545 S
O43 C46 1.250 . S
O44 Mg45 2.028 . S
O44 C46 1.248 . S
Mg45 O44 2.028 . S
Mg45 O50 2.032 . S
Mg45 O52 2.079 . S
C46 O43 1.250 . S
C46 O44 1.248 . S
C47 O48 1.264 . S
C47 O55 1.249 . S
O48 C47 1.264 . S
O49 Mg42 1.986 1_545 S
O49 C53 1.246 . S
O50 Mg45 2.032 . S
O50 C53 1.259 . S
O51 Mg42 2.114 . S
O51 C54 1.252 1_565 S
O52 Mg42 2.251 1_545 S
O52 Mg45 2.079 . S
O52 C54 1.273 . S
C53 O49 1.246 . S
C53 O50 1.259 . S
C54 O51 1.252 1_545 S
C54 O52 1.273 . S
O55 Mg42 2.010 . S
O55 C47 1.249 . S
H56 C62 0.930 . S
H57 C66 0.930 . S
H58 C71 0.929 . S
H59 C69 0.929 . S
H60 C64 0.929 . S
H61 C70 0.929 . S
C62 H56 0.930 . S
C62 C63 1.367 1_455 S
C62 C70 1.378 . S
C63 C62 1.367 1_655 S
C63 C71 1.433 . S
C64 H60 0.929 . S
C64 C66 1.378 . S
C64 C68 1.350 1_655 S
C65 C68 1.463 . S
C65 C70 1.350 . S
C65 N73 1.427 1_455 S
C66 H57 0.930 . S
C66 C64 1.378 . S
C66 C67 1.367 1_655 S
C67 C66 1.367 1_455 S
C67 C69 1.433 . S
C68 C64 1.350 1_455 S
C68 C65 1.463 . S
C68 N72 1.427 . S
C69 H59 0.929 . S
C69 C67 1.433 . S
C69 N72 1.384 . S
C70 H61 0.929 . S
C70 C62 1.378 . S
C70 C65 1.350 . S
C71 H58 0.929 . S
C71 C63 1.433 . S
C71 N73 1.384 . S
N72 C68 1.427 . S
N72 C69 1.384 . S
N73 C65 1.427 1_655 S
N73 C71 1.384 . S
H74 C80 0.930 . S
H75 C84 0.930 . S
H76 C89 0.929 . S
H77 C87 0.929 . S
H78 C82 0.929 . S
H79 C88 0.929 . S
C80 H74 0.930 . S
C80 C81 1.367 1_565 S
C80 C88 1.378 . S
C81 C80 1.367 1_545 S
C81 C89 1.433 . S
C82 H78 0.929 . S
C82 C84 1.378 . S
C82 C86 1.350 . S
C83 C86 1.463 . S
C83 C88 1.350 1_545 S
C83 N91 1.427 . S
C84 H75 0.930 . S
C84 C82 1.378 . S
C84 C85 1.367 1_545 S
C85 C84 1.367 1_565 S
C85 C87 1.433 . S
C86 C82 1.350 . S
C86 C83 1.463 . S
C86 N90 1.427 1_545 S
C87 H77 0.929 . S
C87 C85 1.433 . S
C87 N90 1.384 . S
C88 H79 0.929 . S
C88 C80 1.378 . S
C88 C83 1.350 1_565 S
C89 H76 0.929 . S
C89 C81 1.433 . S
C89 N91 1.384 . S
N90 C86 1.427 1_565 S
N90 C87 1.384 . S
N91 C83 1.427 . S
N91 C89 1.384 . S
H92 C98 0.930 . S
H93 C102 0.930 . S
H94 C107 0.929 . S
H95 C105 0.929 . S
H96 C100 0.929 . S
H97 C106 0.929 . S
C98 H92 0.930 . S
C98 C99 1.367 . S
C98 C106 1.378 . S
C99 C98 1.367 . S
C99 C107 1.433 . S
C100 H96 0.929 . S
C100 C102 1.378 . S
C100 C104 1.350 . S
C101 C104 1.463 . S
C101 C106 1.350 . S
C101 N109 1.427 . S
C102 H93 0.930 . S
C102 C100 1.378 . S
C102 C103 1.367 . S
C103 C102 1.367 . S
C103 C105 1.433 . S
C104 C100 1.350 . S
C104 C101 1.463 . S
C104 N108 1.427 . S
C105 H95 0.929 . S
C105 C103 1.433 . S
C105 N108 1.384 . S
C106 H97 0.929 . S
C106 C98 1.378 . S
C106 C101 1.350 . S
C107 H94 0.929 . S
C107 C99 1.433 . S
C107 N109 1.384 . S
N108 C104 1.427 . S
N108 C105 1.384 . S
N109 C101 1.427 . S
N109 C107 1.384 . S
H110 C116 0.930 . S
H111 C120 0.930 1_565 S
H112 C125 0.929 1_565 S
H113 C123 0.929 . S
H114 C118 0.929 1_565 S
H115 C124 0.929 . S
C116 H110 0.930 . S
C116 C117 1.367 . S
C116 C124 1.378 . S
C117 C116 1.367 . S
C117 C125 1.433 . S
C118 H114 0.929 1_545 S
C118 C120 1.378 . S
C118 C122 1.350 . S
C119 C122 1.463 1_554 S
C119 C124 1.350 . S
C119 N127 1.427 . S
C120 H111 0.930 1_545 S
C120 C118 1.378 . S
C120 C121 1.367 . S
C121 C120 1.367 . S
C121 C123 1.433 . S
C122 C118 1.350 . S
C122 C119 1.463 1_556 S
C122 N126 1.427 . S
C123 H113 0.929 . S
C123 C121 1.433 . S
C123 N126 1.384 . S
C124 H115 0.929 . S
C124 C116 1.378 . S
C124 C119 1.350 . S
C125 H112 0.929 1_545 S
C125 C117 1.433 . S
C125 N127 1.384 . S
N126 C122 1.427 . S
N126 C123 1.384 . S
N127 C119 1.427 . S
N127 C125 1.384 . S
H128 C134 0.930 . S
H129 C138 0.930 . S
H130 C143 0.929 . S
H131 C141 0.929 1_556 S
H132 C136 0.929 . S
H133 C142 0.929 . S
C134 H128 0.930 . S
C134 C135 1.367 . S
C134 C142 1.378 . S
C135 C134 1.367 . S
C135 C143 1.433 . S
C136 H132 0.929 . S
C136 C138 1.378 . S
C136 C140 1.350 . S
C137 C140 1.463 . S
C137 C142 1.350 . S
C137 N145 1.427 . S
C138 H129 0.930 . S
C138 C136 1.378 . S
C138 C139 1.367 . S
C139 C138 1.367 . S
C139 C141 1.433 . S
C140 C136 1.350 . S
C140 C137 1.463 . S
C140 N144 1.427 . S
C141 H131 0.929 1_554 S
C141 C139 1.433 . S
C141 N144 1.384 . S
C142 H133 0.929 . S
C142 C134 1.378 . S
C142 C137 1.350 . S
C143 H130 0.929 . S
C143 C135 1.433 . S
C143 N145 1.384 . S
N144 C140 1.427 . S
N144 C141 1.384 . S
N145 C137 1.427 . S
N145 C143 1.384 . S
H146 C152 0.930 . S
H147 C156 0.930 . S
H148 C161 0.929 . S
H149 C159 0.929 . S
H150 C154 0.929 . S
H151 C160 0.929 . S
C152 H146 0.930 . S
C152 C153 1.367 . S
C152 C160 1.378 . S
C153 C152 1.367 . S
C153 C161 1.433 . S
C154 H150 0.929 . S
C154 C156 1.378 . S
C154 C158 1.350 . S
C155 C158 1.463 . S
C155 C160 1.350 . S
C155 N163 1.427 . S
C156 H147 0.930 . S
C156 C154 1.378 . S
C156 C157 1.367 . S
C157 C156 1.367 . S
C157 C159 1.433 . S
C158 C154 1.350 . S
C158 C155 1.463 . S
C158 N162 1.427 . S
C159 H149 0.929 . S
C159 C157 1.433 . S
C159 N162 1.384 . S
C160 H151 0.929 . S
C160 C152 1.378 . S
C160 C155 1.350 . S
C161 H148 0.929 . S
C161 C153 1.433 . S
C161 N163 1.384 . S
N162 C158 1.427 . S
N162 C159 1.384 . S
N163 C155 1.427 . S
N163 C161 1.384 . S
H164 C170 0.930 . S
H165 C174 0.930 . S
H166 C179 0.929 . S
H167 C177 0.929 . S
H168 C172 0.929 . S
H169 C178 0.929 . S
C170 H164 0.930 . S
C170 C171 1.367 . S
C170 C178 1.378 . S
C171 C170 1.367 . S
C171 C179 1.433 . S
C172 H168 0.929 . S
C172 C174 1.378 . S
C172 C176 1.350 . S
C173 C176 1.463 . S
C173 C178 1.350 . S
C173 N181 1.427 . S
C174 H165 0.930 . S
C174 C172 1.378 . S
C174 C175 1.367 . S
C175 C174 1.367 . S
C175 C177 1.433 . S
C176 C172 1.350 . S
C176 C173 1.463 . S
C176 N180 1.427 . S
C177 H167 0.929 . S
C177 C175 1.433 . S
C177 N180 1.384 . S
C178 H169 0.929 . S
C178 C170 1.378 . S
C178 C173 1.350 . S
C179 H166 0.929 . S
C179 C171 1.433 . S
C179 N181 1.384 . S
N180 C176 1.427 . S
N180 C177 1.384 . S
N181 C173 1.427 . S
N181 C179 1.384 . S
H182 C188 0.930 . S
H183 C192 0.931 . S
H184 C197 0.929 . S
H185 C195 0.929 . S
H186 C190 0.929 . S
H187 C196 0.929 . S
C188 H182 0.930 . S
C188 C189 1.367 . S
C188 C196 1.378 . S
C189 C188 1.367 . S
C189 C197 1.433 . S
C190 H186 0.929 . S
C190 C192 1.378 . S
C190 C194 1.350 . S
C191 C194 1.463 . S
C191 C196 1.350 . S
C191 N199 1.427 . S
C192 H183 0.931 . S
C192 C190 1.378 . S
C192 C193 1.367 . S
C193 C192 1.367 . S
C193 C195 1.433 . S
C194 C190 1.350 . S
C194 C191 1.463 . S
C194 N198 1.427 . S
C195 H185 0.929 . S
C195 C193 1.433 . S
C195 N198 1.384 . S
C196 H187 0.929 . S
C196 C188 1.378 . S
C196 C191 1.350 . S
C197 H184 0.929 . S
C197 C189 1.433 . S
C197 N199 1.384 . S
N198 C194 1.427 . S
N198 C195 1.384 . S
N199 C191 1.427 . S
N199 C197 1.384 . S
C63 C12 1.052 1_655 S
C67 C39 1.043 . S
C81 C25 1.041 . S
C85 C54 1.052 1_565 S
C99 C11 1.053 . S
C103 C40 1.058 . S
C117 C26 1.060 . S
C121 C53 1.047 . S
C135 C18 1.480 . S
C139 C4 1.477 . S
C153 C19 1.300 . S
C157 C33 1.312 . S
C171 C46 1.478 . S
C175 C32 1.479 . S
C189 C47 1.324 . S
C193 C5 1.302 . S
