# Generated by pormake.
# Topology pcu, (6)-cn, num edge types: 1
# Building blocks:
#     Node 0, Type 0, BuildingBlock: HISSIN_clean_sbu_0, # of connection points: 6
#     Edge 1, Type (0, 0), BuildingBlock: XIVTED_clean_linker_0, # of connection points: 2
#     Edge 2, Type (0, 0), BuildingBlock: XIVTED_clean_linker_0, # of connection points: 2
#     Edge 3, Type (0, 0), BuildingBlock: XIVTED_clean_linker_0, # of connection points: 2
# Relax obj value: 0.000
# Max RMSD: 0.000
# Mean RMSD: 0.000
data_MOF--net-pcu--node1-HISSIN_clean_sbu_0--edge1-XIVTED_clean_linker_0
_symmetry_space_group_name_H-M    P1
_symmetry_Int_Tables_number       1
_symmetry_cell_setting            triclinic
loop_
_symmetry_equiv_pos_as_xyz
'x, y, z'
_cell_length_a     15.44357
_cell_length_b     25.577458
_cell_length_c     15.584329
_cell_angle_alpha  120.77084
_cell_angle_beta   89.081358
_cell_angle_gamma 95.316338
loop_
_atom_site_label
_atom_site_type_symbol
_atom_site_fract_x
_atom_site_fract_y
_atom_site_fract_z
_atom_type_partial_charge
Eu0 Eu 0.96792 0.94162 0.90674 0.0
Eu1 Eu -0.01 0.09456 0.03467 0.0
C2 C 0.15478 1.01722 -0.02955 0.0
C3 C 0.96419 0.77426 0.83557 0.0
C4 C -0.00803 0.78948 0.93161 0.0
C5 C 0.95694 0.66662 0.78247 0.0
C6 C 0.00147 0.74342 0.95319 0.0
C7 C 0.94745 0.71266 0.76108 0.0
C8 C 0.98321 0.68137 0.87906 0.0
C9 C 0.94904 0.82201 0.81315 0.0
O10 O 0.96185 0.06754 0.87527 0.0
O11 O -0.00287 0.96799 0.79096 0.0
C12 C 0.98017 0.01799 0.79271 0.0
O13 O 0.83986 0.97333 0.89536 0.0
O14 O 0.06913 0.18289 0.11356 0.0
O15 O 0.92946 0.17982 0.10044 0.0
O16 O 0.85223 0.06215 0.04649 0.0
C17 C 0.80427 0.01806 -0.02892 0.0
O18 O 0.94952 0.96944 0.06763 0.0
O19 O 0.01291 0.06898 0.15027 0.0
O20 O 0.12058 0.06322 -0.02658 0.0
O21 O 0.88777 0.85644 0.86251 0.0
O22 O 0.01787 0.85357 0.80731 0.0
O23 O 0.10593 0.97157 0.96773 0.0
C24 C 0.01267 0.26112 0.09927 0.0
C25 C -0.00339 0.2452 7e-05 0.0
C26 C 0.03726 0.36797 0.14689 0.0
C27 C -0.00029 0.2904 -0.02543 0.0
C28 C 0.03391 0.32265 0.17228 0.0
C29 C 0.01906 0.35247 0.04792 0.0
C30 C 0.00304 0.21433 0.12793 0.0
C31 C 0.98204 0.01896 0.14927 0.0
H32 H 0.00495 0.83695 -0.00984 0.0
H33 H 0.94372 0.61939 0.72318 0.0
H34 H 0.02093 0.7565 0.02856 0.0
H35 H 0.9261 0.70014 0.68649 0.0
H36 H 0.98017 0.19789 0.94275 0.0
H37 H 0.0515 0.41529 0.2054 0.0
H38 H 0.98663 0.27672 0.89742 0.0
H39 H 0.04619 0.33578 0.24935 0.0
H40 H 0.95411 0.91977 0.17274 0.0
H41 H 0.97756 0.11675 0.76879 0.0
H42 H 0.01281 0.116 0.34058 0.0
H43 H 0.98594 0.92095 0.60106 0.0
H44 H 0.97963 0.11718 0.61265 0.0
H45 H 0.95494 0.91921 0.32891 0.0
C46 C 0.9671 0.96279 0.24238 0.0
C47 C 0.9833 0.01808 0.24346 0.0
C48 C 0.98122 0.07415 0.61003 0.0
C49 C 0.984 0.01764 0.42264 0.0
C50 C 0.97972 0.07379 0.69923 0.0
C51 C 0.98153 0.01871 0.69829 0.0
C52 C 0.98365 0.01894 0.51885 0.0
C53 C 0.98467 0.96453 0.60556 0.0
C54 C 0.96784 0.96236 0.33151 0.0
C55 C 0.00016 0.0723 0.33606 0.0
N56 N 0.98525 0.96598 0.51955 0.0
N57 N -0.00035 0.07074 0.42196 0.0
H58 H 0.24825 0.91934 0.91264 0.0
H59 H 0.71003 0.11517 0.08265 0.0
H60 H 0.27903 0.11371 0.02713 0.0
H61 H 0.68095 0.92251 0.86119 0.0
H62 H 0.55148 0.11526 0.0823 0.0
H63 H 0.40676 0.91939 0.91229 0.0
C64 C 0.28832 0.96205 0.93793 0.0
C65 C 0.25041 1.01662 -0.03014 0.0
C66 C 0.57995 0.07305 0.03372 0.0
C67 C 0.43152 1.01696 -0.02962 0.0
C68 C 0.6703 0.07287 0.03417 0.0
C69 C 0.70868 0.01874 -0.02824 0.0
C70 C 0.52759 0.01851 -0.02827 0.0
C71 C 0.65408 0.96531 0.91012 0.0
C72 C 0.37868 0.96195 0.93726 0.0
C73 C 0.30553 0.07056 0.00144 0.0
N74 N 0.56621 0.96644 0.91213 0.0
N75 N 0.39337 0.06945 0.00153 0.0
H76 H 0.87314 0.57684 0.81566 0.0
H77 H 0.13107 0.45689 0.11351 0.0
H78 H 0.10665 0.67376 -0.0031 0.0
H79 H 0.90224 0.35888 0.92374 0.0
H80 H 0.12363 0.537 0.07277 0.0
H81 H 0.88378 0.49654 0.85439 0.0
C82 C 0.92713 0.58109 0.86302 0.0
C83 C -0.01068 0.6322 0.90264 0.0
C84 C 0.07519 0.49788 0.03987 0.0
C85 C 0.00124 0.54035 0.94861 0.0
C86 C 0.07915 0.45223 0.06346 0.0
C87 C 0.01724 0.4009 0.02195 0.0
C88 C 0.0086 0.49242 -0.02545 0.0
C89 C 0.95212 0.39707 0.9565 0.0
C90 C 0.93285 0.53528 0.88564 0.0
C91 C 0.05671 0.63559 0.96539 0.0
N92 N 0.94943 0.44219 0.93511 0.0
N93 N 0.06091 0.59031 -0.01367 0.0
loop_
_geom_bond_atom_site_label_1
_geom_bond_atom_site_label_2
_geom_bond_distance
_geom_bond_site_symmetry_2
_ccdc_geom_bond_type
Eu0 C9 2.828 . S
Eu0 O11 2.392 . S
Eu0 O13 2.418 . S
Eu0 O18 2.373 1_556 S
Eu0 O21 2.488 . S
Eu0 O22 2.471 1_655 S
Eu0 O23 2.349 1_655 S
Eu1 O10 2.373 1_554 S
Eu1 O14 2.488 . S
Eu1 O15 2.471 1_455 S
Eu1 O16 2.349 1_455 S
Eu1 O19 2.392 . S
Eu1 O20 2.418 . S
Eu1 C30 2.828 . S
C2 O20 1.244 . S
C2 O23 1.265 1_544 S
C3 C4 1.379 1_656 S
C3 C7 1.373 . S
C3 C9 1.505 . S
C4 C3 1.379 1_454 S
C4 C6 1.369 . S
C4 H32 0.930 . S
C5 C7 1.383 . S
C5 C8 1.382 . S
C5 H33 0.930 . S
C6 C4 1.369 . S
C6 C8 1.392 1_454 S
C6 H34 0.930 . S
C7 C3 1.373 . S
C7 C5 1.383 . S
C7 H35 0.931 . S
C8 C5 1.382 . S
C8 C6 1.392 1_656 S
C9 Eu0 2.828 . S
C9 C3 1.505 . S
C9 O21 1.249 . S
C9 O22 1.244 1_655 S
O10 Eu1 2.373 1_556 S
O10 C12 1.258 1_545 S
O11 Eu0 2.392 . S
O11 C12 1.242 1_655 S
C12 O10 1.258 1_565 S
C12 O11 1.242 1_455 S
O13 Eu0 2.418 . S
O13 C17 1.244 . S
O14 Eu1 2.488 . S
O14 C30 1.249 . S
O15 Eu1 2.471 1_655 S
O15 C30 1.244 1_655 S
O16 Eu1 2.349 1_655 S
O16 C17 1.265 1_544 S
C17 O13 1.244 . S
C17 O16 1.265 1_566 S
O18 Eu0 2.373 1_554 S
O18 C31 1.258 1_665 S
O19 Eu1 2.392 . S
O19 C31 1.242 . S
O20 Eu1 2.418 . S
O20 C2 1.244 . S
O21 Eu0 2.488 . S
O21 C9 1.249 . S
O22 Eu0 2.471 1_455 S
O22 C9 1.244 1_455 S
O23 Eu0 2.349 1_455 S
O23 C2 1.265 1_566 S
C24 C25 1.379 1_454 S
C24 C28 1.373 . S
C24 C30 1.505 . S
C25 C24 1.379 1_656 S
C25 C27 1.369 . S
C25 H36 0.930 . S
C26 C28 1.383 . S
C26 C29 1.382 . S
C26 H37 0.930 . S
C27 C25 1.369 . S
C27 C29 1.392 1_656 S
C27 H38 0.930 . S
C28 C24 1.373 . S
C28 C26 1.383 . S
C28 H39 0.931 . S
C29 C26 1.382 . S
C29 C27 1.392 1_454 S
C30 Eu1 2.828 . S
C30 O14 1.249 . S
C30 O15 1.244 1_455 S
C30 C24 1.505 . S
C31 O18 1.258 1_445 S
C31 O19 1.242 . S
H32 C4 0.930 . S
H33 C5 0.930 . S
H34 C6 0.930 . S
H35 C7 0.931 . S
H36 C25 0.930 . S
H37 C26 0.930 . S
H38 C27 0.930 . S
H39 C28 0.931 . S
H40 C46 0.930 . S
H41 C50 0.930 . S
H42 C55 0.929 . S
H43 C53 0.929 . S
H44 C48 0.929 . S
H45 C54 0.929 . S
C46 H40 0.930 . S
C46 C47 1.386 . S
C46 C54 1.378 . S
C47 C46 1.386 . S
C47 C55 1.426 1_465 S
C48 H44 0.929 . S
C48 C50 1.378 . S
C48 C52 1.350 . S
C49 C52 1.463 1_465 S
C49 C54 1.350 . S
C49 N57 1.427 1_465 S
C50 H41 0.930 . S
C50 C48 1.378 . S
C50 C51 1.373 . S
C51 C50 1.373 . S
C51 C53 1.427 1_645 S
C52 C48 1.350 . S
C52 C49 1.463 1_645 S
C52 N56 1.427 1_645 S
C53 H43 0.929 . S
C53 C51 1.427 1_465 S
C53 N56 1.384 . S
C54 H45 0.929 . S
C54 C46 1.378 . S
C54 C49 1.350 . S
C55 H42 0.929 . S
C55 C47 1.426 1_645 S
C55 N57 1.384 . S
N56 C52 1.427 1_465 S
N56 C53 1.384 . S
N57 C49 1.427 1_645 S
N57 C55 1.384 . S
H58 C64 0.930 . S
H59 C68 0.930 . S
H60 C73 0.929 . S
H61 C71 0.929 . S
H62 C66 0.929 . S
H63 C72 0.929 . S
C64 H58 0.930 . S
C64 C65 1.367 . S
C64 C72 1.378 . S
C65 C64 1.367 . S
C65 C73 1.433 1_566 S
C66 H62 0.929 . S
C66 C68 1.378 . S
C66 C70 1.350 . S
C67 C70 1.463 1_566 S
C67 C72 1.350 . S
C67 N75 1.427 1_566 S
C68 H59 0.930 . S
C68 C66 1.378 . S
C68 C69 1.367 . S
C69 C68 1.367 . S
C69 C71 1.433 1_544 S
C70 C66 1.350 . S
C70 C67 1.463 1_544 S
C70 N74 1.427 1_544 S
C71 H61 0.929 . S
C71 C69 1.433 1_566 S
C71 N74 1.384 . S
C72 H63 0.929 . S
C72 C64 1.378 . S
C72 C67 1.350 . S
C73 H60 0.929 . S
C73 C65 1.433 1_544 S
C73 N75 1.384 . S
N74 C70 1.427 1_566 S
N74 C71 1.384 . S
N75 C67 1.427 1_544 S
N75 C73 1.384 . S
H76 C82 0.930 . S
H77 C86 0.930 . S
H78 C91 0.929 . S
H79 C89 0.929 . S
H80 C84 0.929 . S
H81 C90 0.929 . S
C82 H76 0.930 . S
C82 C83 1.367 . S
C82 C90 1.378 . S
C83 C82 1.367 . S
C83 C91 1.433 1_654 S
C84 H80 0.929 . S
C84 C86 1.378 . S
C84 C88 1.350 . S
C85 C88 1.463 1_654 S
C85 C90 1.350 . S
C85 N93 1.427 1_654 S
C86 H77 0.930 . S
C86 C84 1.378 . S
C86 C87 1.367 . S
C87 C86 1.367 . S
C87 C89 1.433 1_456 S
C88 C84 1.350 . S
C88 C85 1.463 1_456 S
C88 N92 1.427 1_456 S
C89 H79 0.929 . S
C89 C87 1.433 1_654 S
C89 N92 1.384 . S
C90 H81 0.929 . S
C90 C82 1.378 . S
C90 C85 1.350 . S
C91 H78 0.929 . S
C91 C83 1.433 1_456 S
C91 N93 1.384 . S
N92 C88 1.427 1_654 S
N92 C89 1.384 . S
N93 C85 1.427 1_456 S
N93 C91 1.384 . S
C47 C31 1.487 1_565 S
C51 C12 1.500 1_645 S
C65 C2 1.472 1_566 S
C69 C17 1.472 1_544 S
C83 C8 1.494 1_554 S
C87 C29 1.494 1_556 S
