# Generated by pormake.
# Topology sod, (4)-cn, num edge types: 1
# Building blocks:
#     Node 0, Type 0, BuildingBlock: AZAVOO_clean_sbu_0, # of connection points: 4
#     Node 1, Type 0, BuildingBlock: AZAVOO_clean_sbu_0, # of connection points: 4
#     Node 2, Type 0, BuildingBlock: AZAVOO_clean_sbu_0, # of connection points: 4
#     Node 3, Type 0, BuildingBlock: AZAVOO_clean_sbu_0, # of connection points: 4
#     Node 4, Type 0, BuildingBlock: AZAVOO_clean_sbu_0, # of connection points: 4
#     Node 5, Type 0, BuildingBlock: AZAVOO_clean_sbu_0, # of connection points: 4
#     Node 6, Type 0, BuildingBlock: AZAVOO_clean_sbu_0, # of connection points: 4
#     Node 7, Type 0, BuildingBlock: AZAVOO_clean_sbu_0, # of connection points: 4
#     Node 8, Type 0, BuildingBlock: AZAVOO_clean_sbu_0, # of connection points: 4
#     Node 9, Type 0, BuildingBlock: AZAVOO_clean_sbu_0, # of connection points: 4
#     Node 10, Type 0, BuildingBlock: AZAVOO_clean_sbu_0, # of connection points: 4
#     Node 11, Type 0, BuildingBlock: AZAVOO_clean_sbu_0, # of connection points: 4
#     Edge 12, Type (0, 0), None
#     Edge 13, Type (0, 0), None
#     Edge 14, Type (0, 0), None
#     Edge 15, Type (0, 0), None
#     Edge 16, Type (0, 0), None
#     Edge 17, Type (0, 0), None
#     Edge 18, Type (0, 0), None
#     Edge 19, Type (0, 0), None
#     Edge 20, Type (0, 0), None
#     Edge 21, Type (0, 0), None
#     Edge 22, Type (0, 0), None
#     Edge 23, Type (0, 0), None
#     Edge 24, Type (0, 0), None
#     Edge 25, Type (0, 0), None
#     Edge 26, Type (0, 0), None
#     Edge 27, Type (0, 0), None
#     Edge 28, Type (0, 0), None
#     Edge 29, Type (0, 0), None
#     Edge 30, Type (0, 0), None
#     Edge 31, Type (0, 0), None
#     Edge 32, Type (0, 0), None
#     Edge 33, Type (0, 0), None
#     Edge 34, Type (0, 0), None
#     Edge 35, Type (0, 0), None
# Relax obj value: 0.123
# Max RMSD: 0.156
# Mean RMSD: 0.151
data_MOF--net-sod--node1-AZAVOO_clean_sbu_0--edge1-none
_symmetry_space_group_name_H-M    P1
_symmetry_Int_Tables_number       1
_symmetry_cell_setting            triclinic
loop_
_symmetry_equiv_pos_as_xyz
'x, y, z'
_cell_length_a     19.176196
_cell_length_b     18.761634
_cell_length_c     20.284736
_cell_angle_alpha  86.468662
_cell_angle_beta   94.881558
_cell_angle_gamma 100.64057
loop_
_atom_site_label
_atom_site_type_symbol
_atom_site_fract_x
_atom_site_fract_y
_atom_site_fract_z
_atom_type_partial_charge
Mg0 Mg 0.03008 0.32497 0.53686 0.0
O1 O 0.92905 0.24303 0.508 0.0
O2 O 0.84092 0.30728 0.49653 0.0
Mg3 Mg 0.88055 0.42196 0.53413 0.0
C4 C 0.86414 0.24821 0.49236 0.0
C5 C 0.1665 0.2687 0.54224 0.0
O6 O 0.18002 0.32838 0.57524 0.0
O7 O 0.02733 0.38652 0.43369 0.0
O8 O 0.94812 0.45816 0.4464 0.0
O9 O 0.02241 0.30523 0.64802 0.0
O10 O 0.97261 0.38389 0.58539 0.0
C11 C -0.00373 0.44015 0.41454 0.0
C12 C -0.01286 0.35794 0.64376 0.0
O13 O 0.10477 0.2496 0.51357 0.0
Mg14 Mg 0.77789 1.00039 0.4914 0.0
O15 O 0.83206 0.12059 0.48497 0.0
O16 O 0.74628 0.18739 0.46952 0.0
Mg17 Mg 0.63894 0.11062 0.46331 0.0
C18 C 0.81179 0.18193 0.47848 0.0
C19 C 0.87805 0.90997 0.56175 0.0
O20 O 0.81685 0.88179 0.5855 0.0
O21 O 0.7514 0.01658 0.5965 0.0
O22 O 0.66505 0.08228 0.57327 0.0
O23 O 0.77184 0.9893 0.38243 0.0
O24 O 0.68723 0.0204 0.43638 0.0
C25 C 0.70503 0.05076 0.61455 0.0
C26 C 0.70951 1.00665 0.38132 0.0
O27 O 0.88252 0.96675 0.52411 0.0
Mg28 Mg 0.0523 0.79446 0.53718 0.0
O29 O 0.15662 0.87636 0.52888 0.0
O30 O 0.2396 0.81103 0.51124 0.0
Mg31 Mg 0.19179 0.69015 0.51531 0.0
C32 C 0.22003 0.87168 0.51711 0.0
C33 C 0.93573 0.86854 0.56819 0.0
O34 O 0.93056 0.81001 0.60772 0.0
O35 O 0.04628 0.77926 0.42547 0.0
O36 O 0.12847 0.70977 0.41696 0.0
O37 O 0.06812 0.77214 0.64755 0.0
O38 O 0.10716 0.71555 0.57006 0.0
C39 C 0.07922 0.74267 0.39147 0.0
C40 C 0.09934 0.72085 0.63166 0.0
O41 O -0.015 0.88174 0.52864 0.0
Mg42 Mg 0.31072 0.11891 0.50103 0.0
O43 O 0.2535 0.9999 0.50776 0.0
O44 O 0.3374 0.93165 0.50402 0.0
Mg45 Mg 0.44551 1.00419 0.49327 0.0
C46 C 0.27304 0.93823 0.50926 0.0
C47 C 0.2242 0.22867 0.53557 0.0
O48 O 0.29041 0.26313 0.54108 0.0
O49 O 0.35201 0.10478 0.61079 0.0
O50 O 0.4382 0.04206 0.59709 0.0
O51 O 0.30029 0.12173 0.38985 0.0
O52 O 0.39175 0.09092 0.45108 0.0
C53 C 0.40371 0.07378 0.63388 0.0
C54 C 0.36021 0.099 0.3934 0.0
O55 O 0.2117 0.16158 0.52386 0.0
Mg56 Mg 0.50323 0.02671 0.25323 0.0
O57 O 0.59936 0.01332 0.32343 0.0
O58 O 0.69018 1.0018 0.26516 0.0
Mg59 Mg 0.64802 0.99269 0.15686 0.0
C60 C 0.66424 0.00829 0.31977 0.0
C61 C 0.38986 0.07918 0.33432 0.0
O62 O 0.35246 0.07617 0.27693 0.0
O63 O 0.5597 0.14074 0.22021 0.0
O64 O 0.63347 0.10972 0.15122 0.0
O65 O 0.4586 0.90506 0.24524 0.0
O66 O 0.53734 0.97071 0.18298 0.0
C67 C 0.60382 0.15687 0.17519 0.0
C68 C 0.49757 0.90991 0.19558 0.0
O69 O 0.45218 0.06444 0.339 0.0
Mg70 Mg 0.09366 0.59252 0.2899 0.0
O71 O -0.00119 0.58237 0.21423 0.0
O72 O 0.89304 0.58941 0.24891 0.0
Mg73 Mg 0.92757 0.61962 0.35719 0.0
C74 C 0.93235 0.58151 0.20311 0.0
C75 C 0.19257 0.55123 0.18466 0.0
O76 O 0.20097 0.49549 0.22499 0.0
O77 O 0.10422 0.71647 0.28636 0.0
O78 O -0.00544 0.71516 0.30332 0.0
O79 O 0.06695 0.47466 0.32095 0.0
O80 O 0.0223 0.56027 0.36478 0.0
C81 C 0.05969 0.73752 0.32026 0.0
C82 C 0.02635 0.49238 0.36267 0.0
O83 O 0.15927 0.59875 0.20181 0.0
Mg84 Mg 0.59366 0.09254 0.78988 0.0
O85 O 0.49881 0.08238 0.7142 0.0
O86 O 0.39304 0.08943 0.74888 0.0
Mg87 Mg 0.42757 0.11966 0.85714 0.0
C88 C 0.43235 0.08151 0.70308 0.0
C89 C 0.69257 0.05122 0.68466 0.0
O90 O 0.70094 0.99546 0.72498 0.0
O91 O 0.60422 0.2165 0.78631 0.0
O92 O 0.49462 0.21514 0.80325 0.0
O93 O 0.56695 0.97468 0.82095 0.0
O94 O 0.52228 0.06028 0.86476 0.0
C95 C 0.55972 0.23753 0.82026 0.0
C96 C 0.52632 0.99238 0.86265 0.0
O97 O 0.65928 0.09876 0.70181 0.0
Mg98 Mg 0.00324 0.52676 0.75325 0.0
O99 O 0.09937 0.51335 0.82343 0.0
O100 O 0.19017 0.50179 0.76516 0.0
Mg101 Mg 0.148 0.49272 0.65686 0.0
C102 C 0.16424 0.50829 0.81977 0.0
C103 C 0.88988 0.57922 0.83435 0.0
O104 O 0.85248 0.57622 0.77696 0.0
O105 O 0.05972 0.64079 0.72022 0.0
O106 O 0.13355 0.60979 0.65126 0.0
O107 O 0.9586 0.40512 0.74527 0.0
O108 O 0.03732 0.47078 0.68298 0.0
C109 C 0.10392 0.65692 0.67527 0.0
C110 C -0.00245 0.40999 0.69559 0.0
O111 O 0.95221 0.56449 0.83902 0.0
Mg112 Mg 0.2779 0.5004 -0.00861 0.0
O113 O 0.33207 0.6206 -0.01504 0.0
O114 O 0.24628 0.6874 0.96952 0.0
Mg115 Mg 0.13894 0.61062 0.96331 0.0
C116 C 0.31179 0.68194 -0.02152 0.0
C117 C 0.37805 0.40997 0.06174 0.0
O118 O 0.31685 0.38179 0.08549 0.0
O119 O 0.2514 0.5166 0.0965 0.0
O120 O 0.16505 0.58229 0.07326 0.0
O121 O 0.27184 0.4893 0.88243 0.0
O122 O 0.18723 0.5204 0.93638 0.0
C123 C 0.20504 0.55078 0.11454 0.0
C124 C 0.20951 0.50665 0.88132 0.0
O125 O 0.38253 0.46676 0.02411 0.0
Mg126 Mg 0.55231 0.29447 0.03716 0.0
O127 O 0.65664 0.37638 0.02889 0.0
O128 O 0.73962 0.31105 0.01124 0.0
Mg129 Mg 0.69181 0.19017 0.0153 0.0
C130 C 0.72005 0.3717 0.01711 0.0
C131 C 0.43573 0.36854 0.06817 0.0
O132 O 0.43056 0.31001 0.1077 0.0
O133 O 0.54631 0.27928 0.92546 0.0
O134 O 0.6285 0.20979 0.91695 0.0
O135 O 0.56811 0.27213 0.14754 0.0
O136 O 0.60717 0.21556 0.07002 0.0
C137 C 0.57925 0.24269 0.89146 0.0
C138 C 0.59932 0.22083 0.13162 0.0
O139 O 0.48501 0.38175 0.02863 0.0
Mg140 Mg 0.81073 0.61893 0.00106 0.0
O141 O 0.75351 0.49993 0.00778 0.0
O142 O 0.83742 0.43168 0.00403 0.0
Mg143 Mg 0.94552 0.50422 -0.0067 0.0
C144 C 0.77306 0.43826 0.00927 0.0
C145 C 0.7242 0.72871 0.03555 0.0
O146 O 0.79041 0.76318 0.04103 0.0
O147 O 0.85202 0.60479 0.11082 0.0
O148 O 0.9382 0.54206 0.09713 0.0
O149 O 0.80031 0.62177 0.88988 0.0
O150 O 0.89177 0.59095 0.95112 0.0
C151 C 0.9037 0.57377 0.13392 0.0
C152 C 0.86023 0.59904 0.89343 0.0
O153 O 0.71171 0.66161 0.02388 0.0
Mg154 Mg 0.53008 0.825 0.03685 0.0
O155 O 0.42906 0.74305 0.00798 0.0
O156 O 0.34092 0.80729 -0.00347 0.0
Mg157 Mg 0.38053 0.92197 0.03412 0.0
C158 C 0.36415 0.74823 -0.00767 0.0
C159 C 0.6665 0.76873 0.04221 0.0
O160 O 0.68002 0.82842 0.0752 0.0
O161 O 0.52733 0.88655 0.93368 0.0
O162 O 0.44808 0.95817 0.94638 0.0
O163 O 0.5224 0.80518 0.148 0.0
O164 O 0.47262 0.88393 0.08537 0.0
C165 C 0.49623 0.94015 0.91451 0.0
C166 C 0.48714 0.8579 0.14372 0.0
O167 O 0.60476 0.74963 0.01355 0.0
loop_
_geom_bond_atom_site_label_1
_geom_bond_atom_site_label_2
_geom_bond_distance
_geom_bond_site_symmetry_2
_ccdc_geom_bond_type
Mg0 O1 2.028 1_455 S
Mg0 O7 1.986 . S
Mg0 O9 2.114 . S
Mg0 O10 2.251 . S
Mg0 O13 2.010 . S
O1 Mg0 2.028 1_655 S
O1 C4 1.250 . S
O2 Mg3 2.028 . S
O2 C4 1.248 . S
Mg3 O2 2.028 . S
Mg3 O8 2.032 . S
Mg3 O10 2.079 1_655 S
C4 O1 1.250 . S
C4 O2 1.248 . S
C5 O6 1.264 . S
C5 O13 1.249 . S
O6 C5 1.264 . S
O7 Mg0 1.986 . S
O7 C11 1.246 . S
O8 Mg3 2.032 . S
O8 C11 1.259 1_655 S
O9 Mg0 2.114 . S
O9 C12 1.252 . S
O10 Mg0 2.251 . S
O10 Mg3 2.079 1_455 S
O10 C12 1.273 . S
C11 O7 1.246 . S
C11 O8 1.259 1_455 S
C12 O9 1.252 . S
C12 O10 1.273 . S
O13 Mg0 2.010 . S
O13 C5 1.249 . S
Mg14 O15 2.028 . S
Mg14 O21 1.986 . S
Mg14 O23 2.114 . S
Mg14 O24 2.251 . S
Mg14 O27 2.010 1_545 S
O15 Mg14 2.028 . S
O15 C18 1.250 . S
O16 Mg17 2.028 . S
O16 C18 1.248 . S
Mg17 O16 2.028 . S
Mg17 O22 2.032 . S
Mg17 O24 2.079 . S
C18 O15 1.250 . S
C18 O16 1.248 . S
C19 O20 1.264 . S
C19 O27 1.249 . S
O20 C19 1.264 . S
O21 Mg14 1.986 . S
O21 C25 1.246 . S
O22 Mg17 2.032 . S
O22 C25 1.259 . S
O23 Mg14 2.114 . S
O23 C26 1.252 . S
O24 Mg14 2.251 . S
O24 Mg17 2.079 . S
O24 C26 1.273 . S
C25 O21 1.246 . S
C25 O22 1.259 . S
C26 O23 1.252 . S
C26 O24 1.273 . S
O27 Mg14 2.010 1_565 S
O27 C19 1.249 . S
Mg28 O29 2.028 . S
Mg28 O35 1.986 . S
Mg28 O37 2.114 . S
Mg28 O38 2.251 . S
Mg28 O41 2.010 1_455 S
O29 Mg28 2.028 . S
O29 C32 1.250 . S
O30 Mg31 2.028 . S
O30 C32 1.248 . S
Mg31 O30 2.028 . S
Mg31 O36 2.032 . S
Mg31 O38 2.079 . S
C32 O29 1.250 . S
C32 O30 1.248 . S
C33 O34 1.264 . S
C33 O41 1.249 . S
O34 C33 1.264 . S
O35 Mg28 1.986 . S
O35 C39 1.246 . S
O36 Mg31 2.032 . S
O36 C39 1.259 . S
O37 Mg28 2.114 . S
O37 C40 1.252 . S
O38 Mg28 2.251 . S
O38 Mg31 2.079 . S
O38 C40 1.273 . S
C39 O35 1.246 . S
C39 O36 1.259 . S
C40 O37 1.252 . S
C40 O38 1.273 . S
O41 Mg28 2.010 1_655 S
O41 C33 1.249 . S
Mg42 O43 2.028 1_545 S
Mg42 O49 1.986 . S
Mg42 O51 2.114 . S
Mg42 O52 2.251 . S
Mg42 O55 2.010 . S
O43 Mg42 2.028 1_565 S
O43 C46 1.250 . S
O44 Mg45 2.028 . S
O44 C46 1.248 . S
Mg45 O44 2.028 . S
Mg45 O50 2.032 . S
Mg45 O52 2.079 1_565 S
C46 O43 1.250 . S
C46 O44 1.248 . S
C47 O48 1.264 . S
C47 O55 1.249 . S
O48 C47 1.264 . S
O49 Mg42 1.986 . S
O49 C53 1.246 . S
O50 Mg45 2.032 . S
O50 C53 1.259 1_565 S
O51 Mg42 2.114 . S
O51 C54 1.252 . S
O52 Mg42 2.251 . S
O52 Mg45 2.079 1_545 S
O52 C54 1.273 . S
C53 O49 1.246 . S
C53 O50 1.259 1_545 S
C54 O51 1.252 . S
C54 O52 1.273 . S
O55 Mg42 2.010 . S
O55 C47 1.249 . S
Mg56 O57 2.028 . S
Mg56 O63 1.986 . S
Mg56 O65 2.114 1_545 S
Mg56 O66 2.251 1_545 S
Mg56 O69 2.010 . S
O57 Mg56 2.028 . S
O57 C60 1.250 . S
O58 Mg59 2.028 . S
O58 C60 1.248 . S
Mg59 O58 2.028 . S
Mg59 O64 2.032 . S
Mg59 O66 2.079 1_545 S
C60 O57 1.250 . S
C60 O58 1.248 . S
C61 O62 1.264 . S
C61 O69 1.249 . S
O62 C61 1.264 . S
O63 Mg56 1.986 . S
O63 C67 1.246 . S
O64 Mg59 2.032 . S
O64 C67 1.259 . S
O65 Mg56 2.114 1_565 S
O65 C68 1.252 . S
O66 Mg56 2.251 1_565 S
O66 Mg59 2.079 1_565 S
O66 C68 1.273 . S
C67 O63 1.246 . S
C67 O64 1.259 . S
C68 O65 1.252 . S
C68 O66 1.273 . S
O69 Mg56 2.010 . S
O69 C61 1.249 . S
Mg70 O71 2.028 . S
Mg70 O77 1.986 . S
Mg70 O79 2.114 . S
Mg70 O80 2.251 . S
Mg70 O83 2.010 . S
O71 Mg70 2.028 . S
O71 C74 1.250 1_455 S
O72 Mg73 2.028 . S
O72 C74 1.248 . S
Mg73 O72 2.028 . S
Mg73 O78 2.037 . S
Mg73 O80 2.079 1_655 S
C74 O71 1.250 1_655 S
C74 O72 1.248 . S
C75 O76 1.264 . S
C75 O83 1.249 . S
O76 C75 1.264 . S
O77 Mg70 1.986 . S
O77 C81 1.246 . S
O78 Mg73 2.037 . S
O78 C81 1.251 1_655 S
O79 Mg70 2.114 . S
O79 C82 1.252 . S
O80 Mg70 2.251 . S
O80 Mg73 2.079 1_455 S
O80 C82 1.273 . S
C81 O77 1.246 . S
C81 O78 1.251 1_455 S
C82 O79 1.252 . S
C82 O80 1.273 . S
O83 Mg70 2.010 . S
O83 C75 1.249 . S
Mg84 O85 2.028 . S
Mg84 O91 1.986 . S
Mg84 O93 2.114 1_545 S
Mg84 O94 2.251 1_545 S
Mg84 O97 2.010 . S
O85 Mg84 2.028 . S
O85 C88 1.250 . S
O86 Mg87 2.028 . S
O86 C88 1.248 . S
Mg87 O86 2.028 . S
Mg87 O92 2.032 . S
Mg87 O94 2.079 1_545 S
C88 O85 1.250 . S
C88 O86 1.248 . S
C89 O90 1.264 . S
C89 O97 1.249 . S
O90 C89 1.264 . S
O91 Mg84 1.986 . S
O91 C95 1.246 . S
O92 Mg87 2.032 . S
O92 C95 1.259 . S
O93 Mg84 2.114 1_565 S
O93 C96 1.252 . S
O94 Mg84 2.251 1_565 S
O94 Mg87 2.079 1_565 S
O94 C96 1.273 . S
C95 O91 1.246 . S
C95 O92 1.259 . S
C96 O93 1.252 . S
C96 O94 1.273 . S
O97 Mg84 2.010 . S
O97 C89 1.249 . S
Mg98 O99 2.028 . S
Mg98 O105 1.986 . S
Mg98 O107 2.114 . S
Mg98 O108 2.251 . S
Mg98 O111 2.010 1_455 S
O99 Mg98 2.028 . S
O99 C102 1.250 . S
O100 Mg101 2.028 . S
O100 C102 1.248 . S
Mg101 O100 2.028 . S
Mg101 O106 2.032 . S
Mg101 O108 2.079 . S
C102 O99 1.250 . S
C102 O100 1.248 . S
C103 O104 1.264 . S
C103 O111 1.249 . S
O104 C103 1.264 . S
O105 Mg98 1.986 . S
O105 C109 1.246 . S
O106 Mg101 2.032 . S
O106 C109 1.259 . S
O107 Mg98 2.114 . S
O107 C110 1.252 . S
O108 Mg98 2.251 . S
O108 Mg101 2.079 . S
O108 C110 1.273 . S
C109 O105 1.246 . S
C109 O106 1.259 . S
C110 O107 1.252 . S
C110 O108 1.273 . S
O111 Mg98 2.010 1_655 S
O111 C103 1.249 . S
Mg112 O113 2.028 . S
Mg112 O119 1.986 . S
Mg112 O121 2.114 1_554 S
Mg112 O122 2.251 1_554 S
Mg112 O125 2.010 . S
O113 Mg112 2.028 . S
O113 C116 1.250 . S
O114 Mg115 2.028 . S
O114 C116 1.248 . S
Mg115 O114 2.028 . S
Mg115 O120 2.032 . S
Mg115 O122 2.079 1_554 S
C116 O113 1.250 . S
C116 O114 1.248 . S
C117 O118 1.264 . S
C117 O125 1.249 . S
O118 C117 1.264 . S
O119 Mg112 1.986 . S
O119 C123 1.246 . S
O120 Mg115 2.032 . S
O120 C123 1.259 . S
O121 Mg112 2.114 1_556 S
O121 C124 1.252 . S
O122 Mg112 2.251 1_556 S
O122 Mg115 2.079 1_556 S
O122 C124 1.273 . S
C123 O119 1.246 . S
C123 O120 1.259 . S
C124 O121 1.252 . S
C124 O122 1.273 . S
O125 Mg112 2.010 . S
O125 C117 1.249 . S
Mg126 O127 2.028 . S
Mg126 O133 1.986 1_554 S
Mg126 O135 2.114 . S
Mg126 O136 2.251 . S
Mg126 O139 2.010 . S
O127 Mg126 2.028 . S
O127 C130 1.250 . S
O128 Mg129 2.028 . S
O128 C130 1.248 . S
Mg129 O128 2.028 . S
Mg129 O134 2.032 1_554 S
Mg129 O136 2.079 . S
C130 O127 1.250 . S
C130 O128 1.248 . S
C131 O132 1.264 . S
C131 O139 1.249 . S
O132 C131 1.264 . S
O133 Mg126 1.986 1_556 S
O133 C137 1.246 . S
O134 Mg129 2.032 1_556 S
O134 C137 1.259 . S
O135 Mg126 2.114 . S
O135 C138 1.252 . S
O136 Mg126 2.251 . S
O136 Mg129 2.079 . S
O136 C138 1.273 . S
C137 O133 1.246 . S
C137 O134 1.259 . S
C138 O135 1.252 . S
C138 O136 1.273 . S
O139 Mg126 2.010 . S
O139 C131 1.249 . S
Mg140 O141 2.028 . S
Mg140 O147 1.986 . S
Mg140 O149 2.114 1_554 S
Mg140 O150 2.251 . S
Mg140 O153 2.010 . S
O141 Mg140 2.028 . S
O141 C144 1.250 . S
O142 Mg143 2.028 . S
O142 C144 1.248 . S
Mg143 O142 2.028 . S
Mg143 O148 2.032 . S
Mg143 O150 2.079 . S
C144 O141 1.250 . S
C144 O142 1.248 . S
C145 O146 1.264 . S
C145 O153 1.249 . S
O146 C145 1.264 . S
O147 Mg140 1.986 . S
O147 C151 1.246 . S
O148 Mg143 2.032 . S
O148 C151 1.259 . S
O149 Mg140 2.114 1_556 S
O149 C152 1.252 . S
O150 Mg140 2.251 . S
O150 Mg143 2.079 . S
O150 C152 1.273 1_554 S
C151 O147 1.246 . S
C151 O148 1.259 . S
C152 O149 1.252 . S
C152 O150 1.273 1_556 S
O153 Mg140 2.010 . S
O153 C145 1.249 . S
Mg154 O155 2.028 . S
Mg154 O161 1.986 1_554 S
Mg154 O163 2.114 . S
Mg154 O164 2.251 . S
Mg154 O167 2.010 . S
O155 Mg154 2.028 . S
O155 C158 1.250 . S
O156 Mg157 2.028 . S
O156 C158 1.248 . S
Mg157 O156 2.028 . S
Mg157 O162 2.032 1_554 S
Mg157 O164 2.079 . S
C158 O155 1.250 . S
C158 O156 1.248 . S
C159 O160 1.264 . S
C159 O167 1.249 . S
O160 C159 1.264 . S
O161 Mg154 1.986 1_556 S
O161 C165 1.246 . S
O162 Mg157 2.032 1_556 S
O162 C165 1.259 . S
O163 Mg154 2.114 . S
O163 C166 1.252 . S
O164 Mg154 2.251 . S
O164 Mg157 2.079 . S
O164 C166 1.273 . S
C165 O161 1.246 . S
C165 O162 1.259 . S
C166 O163 1.252 . S
C166 O164 1.273 . S
O167 Mg154 2.010 . S
O167 C159 1.249 . S
C11 C82 1.357 . S
C26 C60 1.388 . S
C81 C39 1.246 . S
C54 C61 1.354 . S
C109 C40 1.386 . S
C88 C53 1.236 . S
C12 C110 1.500 . S
C89 C25 1.354 . S
C131 C117 0.662 . S
C116 C158 1.234 . S
C130 C144 1.147 . S
C145 C159 0.710 . S
C165 C96 1.357 . S
C124 C102 1.388 . S
C95 C137 1.246 . S
C103 C152 1.354 . S
C67 C138 1.386 . S
C74 C151 1.236 . S
C166 C68 1.500 . S
C123 C75 1.354 . S
C19 C33 0.662 . S
C4 C18 1.234 . S
C32 C46 1.147 . S
C5 C47 0.710 . S
