# Generated by pormake.
# Topology cag, (4)-cn, num edge types: 1
# Building blocks:
#     Node 0, Type 0, BuildingBlock: TATPOV_clean_sbu_0, # of connection points: 4
#     Node 1, Type 0, BuildingBlock: TATPOV_clean_sbu_0, # of connection points: 4
#     Node 2, Type 0, BuildingBlock: TATPOV_clean_sbu_0, # of connection points: 4
#     Node 3, Type 0, BuildingBlock: TATPOV_clean_sbu_0, # of connection points: 4
#     Node 4, Type 0, BuildingBlock: TATPOV_clean_sbu_0, # of connection points: 4
#     Node 5, Type 0, BuildingBlock: TATPOV_clean_sbu_0, # of connection points: 4
#     Node 6, Type 0, BuildingBlock: TATPOV_clean_sbu_0, # of connection points: 4
#     Node 7, Type 0, BuildingBlock: TATPOV_clean_sbu_0, # of connection points: 4
#     Node 8, Type 0, BuildingBlock: TATPOV_clean_sbu_0, # of connection points: 4
#     Node 9, Type 0, BuildingBlock: TATPOV_clean_sbu_0, # of connection points: 4
#     Node 10, Type 0, BuildingBlock: TATPOV_clean_sbu_0, # of connection points: 4
#     Node 11, Type 0, BuildingBlock: TATPOV_clean_sbu_0, # of connection points: 4
#     Node 12, Type 0, BuildingBlock: TATPOV_clean_sbu_0, # of connection points: 4
#     Node 13, Type 0, BuildingBlock: TATPOV_clean_sbu_0, # of connection points: 4
#     Node 14, Type 0, BuildingBlock: TATPOV_clean_sbu_0, # of connection points: 4
#     Node 15, Type 0, BuildingBlock: TATPOV_clean_sbu_0, # of connection points: 4
#     Edge 16, Type (0, 0), None
#     Edge 17, Type (0, 0), None
#     Edge 18, Type (0, 0), None
#     Edge 19, Type (0, 0), None
#     Edge 20, Type (0, 0), None
#     Edge 21, Type (0, 0), None
#     Edge 22, Type (0, 0), None
#     Edge 23, Type (0, 0), None
#     Edge 24, Type (0, 0), None
#     Edge 25, Type (0, 0), None
#     Edge 26, Type (0, 0), None
#     Edge 27, Type (0, 0), None
#     Edge 28, Type (0, 0), None
#     Edge 29, Type (0, 0), None
#     Edge 30, Type (0, 0), None
#     Edge 31, Type (0, 0), None
#     Edge 32, Type (0, 0), None
#     Edge 33, Type (0, 0), None
#     Edge 34, Type (0, 0), None
#     Edge 35, Type (0, 0), None
#     Edge 36, Type (0, 0), None
#     Edge 37, Type (0, 0), None
#     Edge 38, Type (0, 0), None
#     Edge 39, Type (0, 0), None
#     Edge 40, Type (0, 0), None
#     Edge 41, Type (0, 0), None
#     Edge 42, Type (0, 0), None
#     Edge 43, Type (0, 0), None
#     Edge 44, Type (0, 0), None
#     Edge 45, Type (0, 0), None
#     Edge 46, Type (0, 0), None
#     Edge 47, Type (0, 0), None
# Relax obj value: 0.027
# Max RMSD: 0.076
# Mean RMSD: 0.064
data_MOF--net-cag--node1-TATPOV_clean_sbu_0--edge1-none
_symmetry_space_group_name_H-M    P1
_symmetry_Int_Tables_number       1
_symmetry_cell_setting            triclinic
loop_
_symmetry_equiv_pos_as_xyz
'x, y, z'
_cell_length_a     20.372697
_cell_length_b     23.020253
_cell_length_c     21.145439
_cell_angle_alpha  90.0
_cell_angle_beta   90.0
_cell_angle_gamma 89.999177
loop_
_atom_site_label
_atom_site_type_symbol
_atom_site_fract_x
_atom_site_fract_y
_atom_site_fract_z
_atom_type_partial_charge
Zn0 Zn 0.34671 0.1105 0.95702 0.0
Zn1 Zn 0.29197 0.09347 0.07075 0.0
O2 O 0.38992 0.10119 0.09127 0.0
O3 O 0.43498 0.12359 -0.00015 0.0
O4 O 0.25016 0.08709 0.1572 0.0
O5 O 0.28738 0.17657 0.93699 0.0
O6 O 0.24261 0.16384 0.03087 0.0
C7 C 0.44042 0.11367 0.05854 0.0
C8 C 0.29207 -0.00453 -0.02658 0.0
O9 O 0.27851 0.01405 0.02861 0.0
O10 O 0.31918 0.0285 0.93326 0.0
C11 C 0.23975 0.03931 0.18561 0.0
O12 O 0.25594 -0.00995 0.1585 0.0
C13 C 0.24568 0.19097 -0.02167 0.0
Zn14 Zn 0.10275 0.81803 0.45702 0.0
Zn15 Zn 0.15749 0.83506 0.57075 0.0
O16 O 0.05954 0.82734 0.59127 0.0
O17 O 0.01448 0.80494 0.49985 0.0
O18 O 0.1993 0.84144 0.6572 0.0
O19 O 0.16208 0.75196 0.43699 0.0
O20 O 0.20685 0.76469 0.53087 0.0
C21 C 0.00903 0.81486 0.55854 0.0
C22 C 0.15738 0.93306 0.47342 0.0
O23 O 0.17094 0.91448 0.52861 0.0
O24 O 0.13027 0.90003 0.43326 0.0
C25 C 0.20971 0.88922 0.68561 0.0
O26 O 0.19352 0.93848 0.6585 0.0
C27 C 0.20378 0.73756 0.47833 0.0
Zn28 Zn 0.34671 0.818 -0.02278 0.0
Zn29 Zn 0.29196 0.83505 0.86349 0.0
O30 O 0.38991 0.82733 0.84297 0.0
O31 O 0.43498 0.80492 0.93438 0.0
O32 O 0.25016 0.84143 0.77705 0.0
O33 O 0.28738 0.75193 -0.00276 0.0
O34 O 0.24261 0.76467 0.90337 0.0
C35 C 0.44042 0.81484 0.87569 0.0
C36 C 0.29206 0.93302 0.96084 0.0
O37 O 0.27851 0.91446 0.90564 0.0
O38 O 0.31918 0.9 0.001 0.0
C39 C 0.23974 0.88922 0.74864 0.0
O40 O 0.25594 0.93847 0.77575 0.0
C41 C 0.24568 0.73754 0.9559 0.0
Zn42 Zn 0.10275 0.11053 0.47722 0.0
Zn43 Zn 0.1575 0.09348 0.36349 0.0
O44 O 0.05954 0.1012 0.34297 0.0
O45 O 0.01448 0.12361 0.43438 0.0
O46 O 0.1993 0.0871 0.27705 0.0
O47 O 0.16207 0.1766 0.49724 0.0
O48 O 0.20685 0.16386 0.40337 0.0
C49 C 0.00903 0.11369 0.37569 0.0
C50 C 0.1574 -0.00449 0.46084 0.0
O51 O 0.17095 0.01407 0.40564 0.0
O52 O 0.13028 0.02853 0.501 0.0
C53 C 0.20972 0.03931 0.24864 0.0
O54 O 0.19352 -0.00994 0.27575 0.0
C55 C 0.20378 0.19099 0.4559 0.0
Zn56 Zn 0.59768 0.91847 0.8146 0.0
Zn57 Zn 0.65365 0.82984 0.87433 0.0
O58 O 0.55637 0.80649 0.87571 0.0
O59 O 0.51065 0.8757 0.81876 0.0
O60 O 0.70326 0.76175 0.90927 0.0
O61 O 0.65562 0.91396 0.7388 0.0
O62 O 0.70332 0.84169 0.7892 0.0
C63 C 0.50559 0.82968 0.85124 0.0
C64 C 0.65144 0.94714 0.93809 0.0
O65 O 0.66533 0.89333 0.94029 0.0
O66 O 0.62506 -0.03108 0.88927 0.0
C67 C 0.70107 0.73918 0.96407 0.0
O68 O 0.66045 0.75949 0.00691 0.0
C69 C 0.69915 0.87503 0.74126 0.0
Zn70 Zn 0.85178 0.01006 0.3146 0.0
Zn71 Zn 0.7958 0.09869 0.37433 0.0
O72 O 0.89309 0.12204 0.37571 0.0
O73 O 0.93881 0.05283 0.31876 0.0
O74 O 0.7462 0.16678 0.40927 0.0
O75 O 0.79384 0.01457 0.2388 0.0
O76 O 0.74614 0.08684 0.2892 0.0
C77 C 0.94387 0.09885 0.35124 0.0
C78 C 0.79802 -0.01861 0.43809 0.0
O79 O 0.78413 0.0352 0.44029 0.0
O80 O 0.8244 0.95961 0.38927 0.0
C81 C 0.74839 0.18935 0.46407 0.0
O82 O 0.78901 0.16904 0.50691 0.0
C83 C 0.75031 0.0535 0.24126 0.0
Zn84 Zn 0.59768 0.01004 0.11966 0.0
Zn85 Zn 0.65366 0.09867 0.0599 0.0
O86 O 0.55637 0.12202 0.05852 0.0
O87 O 0.51065 0.05281 0.11548 0.0
O88 O 0.70326 0.16675 0.02496 0.0
O89 O 0.65562 0.01456 0.19546 0.0
O90 O 0.70331 0.08683 0.14504 0.0
C91 C 0.50559 0.09883 0.083 0.0
C92 C 0.65145 -0.01864 -0.00383 0.0
O93 O 0.66533 0.03516 -0.00605 0.0
O94 O 0.62507 0.95958 0.04499 0.0
C95 C 0.70107 0.18933 -0.02983 0.0
O96 O 0.66044 0.16903 0.92733 0.0
C97 C 0.69914 0.0535 0.19299 0.0
Zn98 Zn 0.85178 0.91849 0.61966 0.0
Zn99 Zn 0.7958 0.82986 0.5599 0.0
O100 O 0.89309 0.80651 0.55852 0.0
O101 O 0.9388 0.87572 0.61548 0.0
O102 O 0.7462 0.76178 0.52496 0.0
O103 O 0.79384 0.91397 0.69546 0.0
O104 O 0.74614 0.8417 0.64504 0.0
C105 C 0.94386 0.8297 0.583 0.0
C106 C 0.798 0.94717 0.49617 0.0
O107 O 0.78413 0.89337 0.49395 0.0
O108 O 0.82439 -0.03105 0.54499 0.0
C109 C 0.74839 0.7392 0.47017 0.0
O110 O 0.78902 0.7595 0.42733 0.0
C111 C 0.75032 0.87503 0.69299 0.0
Zn112 Zn 0.84671 0.6105 0.95702 0.0
Zn113 Zn 0.79197 0.59347 0.07075 0.0
O114 O 0.88992 0.60119 0.09127 0.0
O115 O 0.93498 0.62359 -0.00015 0.0
O116 O 0.75016 0.58709 0.1572 0.0
O117 O 0.78738 0.67657 0.93699 0.0
O118 O 0.74261 0.66384 0.03087 0.0
C119 C 0.94042 0.61367 0.05854 0.0
C120 C 0.79207 0.49547 -0.02658 0.0
O121 O 0.77851 0.51405 0.02861 0.0
O122 O 0.81918 0.5285 0.93326 0.0
C123 C 0.73975 0.53931 0.18561 0.0
O124 O 0.75594 0.49005 0.1585 0.0
C125 C 0.74568 0.69097 -0.02167 0.0
Zn126 Zn 0.60275 0.31803 0.45702 0.0
Zn127 Zn 0.65749 0.33506 0.57075 0.0
O128 O 0.55954 0.32734 0.59127 0.0
O129 O 0.51448 0.30494 0.49985 0.0
O130 O 0.6993 0.34144 0.6572 0.0
O131 O 0.66208 0.25196 0.43699 0.0
O132 O 0.70685 0.26469 0.53087 0.0
C133 C 0.50903 0.31486 0.55854 0.0
C134 C 0.65738 0.43306 0.47342 0.0
O135 O 0.67094 0.41448 0.52861 0.0
O136 O 0.63027 0.40003 0.43326 0.0
C137 C 0.70971 0.38922 0.68561 0.0
O138 O 0.69352 0.43848 0.6585 0.0
C139 C 0.70378 0.23756 0.47833 0.0
Zn140 Zn 0.84671 0.318 -0.02278 0.0
Zn141 Zn 0.79196 0.33505 0.86349 0.0
O142 O 0.88991 0.32733 0.84297 0.0
O143 O 0.93498 0.30492 0.93438 0.0
O144 O 0.75016 0.34143 0.77705 0.0
O145 O 0.78739 0.25193 -0.00276 0.0
O146 O 0.74261 0.26467 0.90337 0.0
C147 C 0.94042 0.31484 0.87569 0.0
C148 C 0.79206 0.43302 0.96084 0.0
O149 O 0.77851 0.41446 0.90564 0.0
O150 O 0.81918 0.4 0.001 0.0
C151 C 0.73974 0.38922 0.74864 0.0
O152 O 0.75594 0.43847 0.77575 0.0
C153 C 0.74568 0.23754 0.9559 0.0
Zn154 Zn 0.60275 0.61053 0.47722 0.0
Zn155 Zn 0.6575 0.59348 0.36349 0.0
O156 O 0.55954 0.6012 0.34297 0.0
O157 O 0.51448 0.62361 0.43438 0.0
O158 O 0.6993 0.5871 0.27705 0.0
O159 O 0.66207 0.6766 0.49724 0.0
O160 O 0.70685 0.66386 0.40337 0.0
C161 C 0.50903 0.61369 0.37569 0.0
C162 C 0.6574 0.49551 0.46084 0.0
O163 O 0.67095 0.51407 0.40564 0.0
O164 O 0.63028 0.52853 0.501 0.0
C165 C 0.70972 0.53931 0.24864 0.0
O166 O 0.69352 0.49006 0.27575 0.0
C167 C 0.70378 0.69099 0.4559 0.0
Zn168 Zn 0.09768 0.41847 0.8146 0.0
Zn169 Zn 0.15365 0.32984 0.87433 0.0
O170 O 0.05637 0.30649 0.87571 0.0
O171 O 0.01065 0.3757 0.81876 0.0
O172 O 0.20326 0.26175 0.90927 0.0
O173 O 0.15562 0.41396 0.7388 0.0
O174 O 0.20332 0.34169 0.7892 0.0
C175 C 0.00559 0.32968 0.85124 0.0
C176 C 0.15144 0.44714 0.93809 0.0
O177 O 0.16533 0.39333 0.94029 0.0
O178 O 0.12506 0.46892 0.88927 0.0
C179 C 0.20107 0.23918 0.96407 0.0
O180 O 0.16045 0.25949 0.00691 0.0
C181 C 0.19915 0.37503 0.74126 0.0
Zn182 Zn 0.35178 0.51006 0.3146 0.0
Zn183 Zn 0.2958 0.59869 0.37433 0.0
O184 O 0.39309 0.62204 0.37571 0.0
O185 O 0.43881 0.55283 0.31876 0.0
O186 O 0.2462 0.66678 0.40927 0.0
O187 O 0.29384 0.51457 0.2388 0.0
O188 O 0.24614 0.58684 0.2892 0.0
C189 C 0.44387 0.59885 0.35124 0.0
C190 C 0.29802 0.48139 0.43809 0.0
O191 O 0.28413 0.5352 0.44029 0.0
O192 O 0.3244 0.45961 0.38927 0.0
C193 C 0.24839 0.68935 0.46407 0.0
O194 O 0.28901 0.66904 0.50691 0.0
C195 C 0.25031 0.5535 0.24126 0.0
Zn196 Zn 0.09768 0.51004 0.11966 0.0
Zn197 Zn 0.15366 0.59867 0.0599 0.0
O198 O 0.05637 0.62202 0.05852 0.0
O199 O 0.01065 0.55281 0.11548 0.0
O200 O 0.20326 0.66675 0.02496 0.0
O201 O 0.15562 0.51456 0.19546 0.0
O202 O 0.20331 0.58683 0.14504 0.0
C203 C 0.00559 0.59883 0.083 0.0
C204 C 0.15145 0.48136 -0.00383 0.0
O205 O 0.16533 0.53516 -0.00605 0.0
O206 O 0.12507 0.45958 0.04499 0.0
C207 C 0.20107 0.68933 -0.02983 0.0
O208 O 0.16044 0.66903 0.92733 0.0
C209 C 0.19914 0.5535 0.19299 0.0
Zn210 Zn 0.35178 0.41849 0.61966 0.0
Zn211 Zn 0.2958 0.32986 0.5599 0.0
O212 O 0.39309 0.30651 0.55852 0.0
O213 O 0.4388 0.37572 0.61548 0.0
O214 O 0.2462 0.26178 0.52496 0.0
O215 O 0.29384 0.41397 0.69546 0.0
O216 O 0.24614 0.3417 0.64504 0.0
C217 C 0.44386 0.3297 0.583 0.0
C218 C 0.298 0.44717 0.49617 0.0
O219 O 0.28412 0.39337 0.49395 0.0
O220 O 0.32439 0.46895 0.54499 0.0
C221 C 0.24839 0.2392 0.47017 0.0
O222 O 0.28902 0.2595 0.42733 0.0
C223 C 0.25032 0.37503 0.69299 0.0
loop_
_geom_bond_atom_site_label_1
_geom_bond_atom_site_label_2
_geom_bond_distance
_geom_bond_site_symmetry_2
_ccdc_geom_bond_type
Zn0 O3 2.031 1_556 S
Zn0 O5 2.049 . S
Zn0 O10 2.067 . S
Zn1 O2 1.962 . S
Zn1 O4 1.986 . S
Zn1 O6 1.996 . S
Zn1 O9 1.943 . S
O2 Zn1 1.962 . S
O2 C7 1.254 . S
O3 Zn0 2.031 1_554 S
O3 C7 1.269 . S
O4 Zn1 1.986 . S
O4 C11 1.262 . S
O5 Zn0 2.049 . S
O5 C13 1.260 . S
O6 Zn1 1.996 . S
O6 C13 1.257 1_554 S
C7 O2 1.254 . S
C7 O3 1.269 . S
C8 O9 1.249 . S
C8 O10 1.270 1_554 S
O9 Zn1 1.943 . S
O9 C8 1.249 . S
O10 Zn0 2.067 . S
O10 C8 1.270 1_556 S
C11 O4 1.262 . S
C11 O12 1.232 . S
O12 C11 1.232 . S
C13 O5 1.260 . S
C13 O6 1.257 1_556 S
Zn14 O17 2.031 . S
Zn14 O19 2.049 . S
Zn14 O24 2.067 . S
Zn15 O16 1.962 . S
Zn15 O18 1.986 . S
Zn15 O20 1.996 . S
Zn15 O23 1.943 . S
O16 Zn15 1.962 . S
O16 C21 1.254 . S
O17 Zn14 2.031 . S
O17 C21 1.269 . S
O18 Zn15 1.986 . S
O18 C25 1.262 . S
O19 Zn14 2.049 . S
O19 C27 1.260 . S
O20 Zn15 1.996 . S
O20 C27 1.257 . S
C21 O16 1.254 . S
C21 O17 1.269 . S
C22 O23 1.249 . S
C22 O24 1.270 . S
O23 Zn15 1.943 . S
O23 C22 1.249 . S
O24 Zn14 2.067 . S
O24 C22 1.270 . S
C25 O18 1.262 . S
C25 O26 1.232 . S
O26 C25 1.232 . S
C27 O19 1.260 . S
C27 O20 1.257 . S
Zn28 O31 2.031 1_554 S
Zn28 O33 2.049 . S
Zn28 O38 2.067 . S
Zn29 O30 1.962 . S
Zn29 O32 1.986 . S
Zn29 O34 1.996 . S
Zn29 O37 1.943 . S
O30 Zn29 1.962 . S
O30 C35 1.254 . S
O31 Zn28 2.031 1_556 S
O31 C35 1.269 . S
O32 Zn29 1.986 . S
O32 C39 1.262 . S
O33 Zn28 2.049 . S
O33 C41 1.260 . S
O34 Zn29 1.996 . S
O34 C41 1.257 1_556 S
C35 O30 1.254 . S
C35 O31 1.269 . S
C36 O37 1.249 . S
C36 O38 1.270 1_556 S
O37 Zn29 1.943 . S
O37 C36 1.249 . S
O38 Zn28 2.067 . S
O38 C36 1.270 1_554 S
C39 O32 1.262 . S
C39 O40 1.232 . S
O40 C39 1.232 . S
C41 O33 1.260 . S
C41 O34 1.257 1_554 S
Zn42 O45 2.031 . S
Zn42 O47 2.049 . S
Zn42 O52 2.067 . S
Zn43 O44 1.962 . S
Zn43 O46 1.986 . S
Zn43 O48 1.996 . S
Zn43 O51 1.943 . S
O44 Zn43 1.962 . S
O44 C49 1.254 . S
O45 Zn42 2.031 . S
O45 C49 1.269 . S
O46 Zn43 1.986 . S
O46 C53 1.262 . S
O47 Zn42 2.049 . S
O47 C55 1.260 . S
O48 Zn43 1.996 . S
O48 C55 1.257 . S
C49 O44 1.254 . S
C49 O45 1.269 . S
C50 O51 1.249 . S
C50 O52 1.270 . S
O51 Zn43 1.943 . S
O51 C50 1.249 . S
O52 Zn42 2.067 . S
O52 C50 1.270 . S
C53 O46 1.262 . S
C53 O54 1.232 . S
O54 C53 1.232 . S
C55 O47 1.260 . S
C55 O48 1.257 . S
Zn56 O59 2.031 . S
Zn56 O61 2.049 . S
Zn56 O66 2.067 1_565 S
Zn57 O58 1.962 . S
Zn57 O60 1.986 . S
Zn57 O62 1.996 . S
Zn57 O65 1.943 . S
O58 Zn57 1.962 . S
O58 C63 1.254 . S
O59 Zn56 2.031 . S
O59 C63 1.269 . S
O60 Zn57 1.986 . S
O60 C67 1.262 . S
O61 Zn56 2.049 . S
O61 C69 1.260 . S
O62 Zn57 1.996 . S
O62 C69 1.257 . S
C63 O58 1.254 . S
C63 O59 1.269 . S
C64 O65 1.249 . S
C64 O66 1.270 1_565 S
O65 Zn57 1.943 . S
O65 C64 1.249 . S
O66 Zn56 2.067 1_545 S
O66 C64 1.270 1_545 S
C67 O60 1.262 . S
C67 O68 1.232 1_556 S
O68 C67 1.232 1_554 S
C69 O61 1.260 . S
C69 O62 1.257 . S
Zn70 O73 2.031 . S
Zn70 O75 2.049 . S
Zn70 O80 2.067 1_545 S
Zn71 O72 1.962 . S
Zn71 O74 1.986 . S
Zn71 O76 1.996 . S
Zn71 O79 1.943 . S
O72 Zn71 1.962 . S
O72 C77 1.254 . S
O73 Zn70 2.031 . S
O73 C77 1.269 . S
O74 Zn71 1.986 . S
O74 C81 1.262 . S
O75 Zn70 2.049 . S
O75 C83 1.260 . S
O76 Zn71 1.996 . S
O76 C83 1.257 . S
C77 O72 1.254 . S
C77 O73 1.269 . S
C78 O79 1.249 . S
C78 O80 1.270 1_545 S
O79 Zn71 1.943 . S
O79 C78 1.249 . S
O80 Zn70 2.067 1_565 S
O80 C78 1.270 1_565 S
C81 O74 1.262 . S
C81 O82 1.232 . S
O82 C81 1.232 . S
C83 O75 1.260 . S
C83 O76 1.257 . S
Zn84 O87 2.031 . S
Zn84 O89 2.049 . S
Zn84 O94 2.067 1_545 S
Zn85 O86 1.962 . S
Zn85 O88 1.986 . S
Zn85 O90 1.996 . S
Zn85 O93 1.943 . S
O86 Zn85 1.962 . S
O86 C91 1.254 . S
O87 Zn84 2.031 . S
O87 C91 1.269 . S
O88 Zn85 1.986 . S
O88 C95 1.262 . S
O89 Zn84 2.049 . S
O89 C97 1.260 . S
O90 Zn85 1.996 . S
O90 C97 1.257 . S
C91 O86 1.254 . S
C91 O87 1.269 . S
C92 O93 1.249 . S
C92 O94 1.270 1_545 S
O93 Zn85 1.943 . S
O93 C92 1.249 . S
O94 Zn84 2.067 1_565 S
O94 C92 1.270 1_565 S
C95 O88 1.262 . S
C95 O96 1.232 1_554 S
O96 C95 1.232 1_556 S
C97 O89 1.260 . S
C97 O90 1.257 . S
Zn98 O101 2.031 . S
Zn98 O103 2.049 . S
Zn98 O108 2.067 1_565 S
Zn99 O100 1.962 . S
Zn99 O102 1.986 . S
Zn99 O104 1.996 . S
Zn99 O107 1.943 . S
O100 Zn99 1.962 . S
O100 C105 1.254 . S
O101 Zn98 2.031 . S
O101 C105 1.269 . S
O102 Zn99 1.986 . S
O102 C109 1.262 . S
O103 Zn98 2.049 . S
O103 C111 1.260 . S
O104 Zn99 1.996 . S
O104 C111 1.257 . S
C105 O100 1.254 . S
C105 O101 1.269 . S
C106 O107 1.249 . S
C106 O108 1.270 1_565 S
O107 Zn99 1.943 . S
O107 C106 1.249 . S
O108 Zn98 2.067 1_545 S
O108 C106 1.270 1_545 S
C109 O102 1.262 . S
C109 O110 1.232 . S
O110 C109 1.232 . S
C111 O103 1.260 . S
C111 O104 1.257 . S
Zn112 O115 2.031 1_556 S
Zn112 O117 2.049 . S
Zn112 O122 2.067 . S
Zn113 O114 1.962 . S
Zn113 O116 1.986 . S
Zn113 O118 1.996 . S
Zn113 O121 1.943 . S
O114 Zn113 1.962 . S
O114 C119 1.254 . S
O115 Zn112 2.031 1_554 S
O115 C119 1.269 . S
O116 Zn113 1.986 . S
O116 C123 1.262 . S
O117 Zn112 2.049 . S
O117 C125 1.260 . S
O118 Zn113 1.996 . S
O118 C125 1.257 1_554 S
C119 O114 1.254 . S
C119 O115 1.269 . S
C120 O121 1.249 . S
C120 O122 1.270 1_554 S
O121 Zn113 1.943 . S
O121 C120 1.249 . S
O122 Zn112 2.067 . S
O122 C120 1.270 1_556 S
C123 O116 1.262 . S
C123 O124 1.232 . S
O124 C123 1.232 . S
C125 O117 1.260 . S
C125 O118 1.257 1_556 S
Zn126 O129 2.031 . S
Zn126 O131 2.049 . S
Zn126 O136 2.067 . S
Zn127 O128 1.962 . S
Zn127 O130 1.986 . S
Zn127 O132 1.996 . S
Zn127 O135 1.943 . S
O128 Zn127 1.962 . S
O128 C133 1.254 . S
O129 Zn126 2.031 . S
O129 C133 1.269 . S
O130 Zn127 1.986 . S
O130 C137 1.262 . S
O131 Zn126 2.049 . S
O131 C139 1.260 . S
O132 Zn127 1.996 . S
O132 C139 1.257 . S
C133 O128 1.254 . S
C133 O129 1.269 . S
C134 O135 1.249 . S
C134 O136 1.270 . S
O135 Zn127 1.943 . S
O135 C134 1.249 . S
O136 Zn126 2.067 . S
O136 C134 1.270 . S
C137 O130 1.262 . S
C137 O138 1.232 . S
O138 C137 1.232 . S
C139 O131 1.260 . S
C139 O132 1.257 . S
Zn140 O143 2.031 1_554 S
Zn140 O145 2.049 . S
Zn140 O150 2.067 . S
Zn141 O142 1.962 . S
Zn141 O144 1.986 . S
Zn141 O146 1.996 . S
Zn141 O149 1.943 . S
O142 Zn141 1.962 . S
O142 C147 1.254 . S
O143 Zn140 2.031 1_556 S
O143 C147 1.269 . S
O144 Zn141 1.986 . S
O144 C151 1.262 . S
O145 Zn140 2.049 . S
O145 C153 1.260 . S
O146 Zn141 1.996 . S
O146 C153 1.257 1_556 S
C147 O142 1.254 . S
C147 O143 1.269 . S
C148 O149 1.249 . S
C148 O150 1.270 1_556 S
O149 Zn141 1.943 . S
O149 C148 1.249 . S
O150 Zn140 2.067 . S
O150 C148 1.270 1_554 S
C151 O144 1.262 . S
C151 O152 1.232 . S
O152 C151 1.232 . S
C153 O145 1.260 . S
C153 O146 1.257 1_554 S
Zn154 O157 2.031 . S
Zn154 O159 2.049 . S
Zn154 O164 2.067 . S
Zn155 O156 1.962 . S
Zn155 O158 1.986 . S
Zn155 O160 1.996 . S
Zn155 O163 1.943 . S
O156 Zn155 1.962 . S
O156 C161 1.254 . S
O157 Zn154 2.031 . S
O157 C161 1.269 . S
O158 Zn155 1.986 . S
O158 C165 1.262 . S
O159 Zn154 2.049 . S
O159 C167 1.260 . S
O160 Zn155 1.996 . S
O160 C167 1.257 . S
C161 O156 1.254 . S
C161 O157 1.269 . S
C162 O163 1.249 . S
C162 O164 1.270 . S
O163 Zn155 1.943 . S
O163 C162 1.249 . S
O164 Zn154 2.067 . S
O164 C162 1.270 . S
C165 O158 1.262 . S
C165 O166 1.232 . S
O166 C165 1.232 . S
C167 O159 1.260 . S
C167 O160 1.257 . S
Zn168 O171 2.031 . S
Zn168 O173 2.049 . S
Zn168 O178 2.067 . S
Zn169 O170 1.962 . S
Zn169 O172 1.986 . S
Zn169 O174 1.996 . S
Zn169 O177 1.943 . S
O170 Zn169 1.962 . S
O170 C175 1.254 . S
O171 Zn168 2.031 . S
O171 C175 1.269 . S
O172 Zn169 1.986 . S
O172 C179 1.262 . S
O173 Zn168 2.049 . S
O173 C181 1.260 . S
O174 Zn169 1.996 . S
O174 C181 1.257 . S
C175 O170 1.254 . S
C175 O171 1.269 . S
C176 O177 1.249 . S
C176 O178 1.270 . S
O177 Zn169 1.943 . S
O177 C176 1.249 . S
O178 Zn168 2.067 . S
O178 C176 1.270 . S
C179 O172 1.262 . S
C179 O180 1.232 1_556 S
O180 C179 1.232 1_554 S
C181 O173 1.260 . S
C181 O174 1.257 . S
Zn182 O185 2.031 . S
Zn182 O187 2.049 . S
Zn182 O192 2.067 . S
Zn183 O184 1.962 . S
Zn183 O186 1.986 . S
Zn183 O188 1.996 . S
Zn183 O191 1.943 . S
O184 Zn183 1.962 . S
O184 C189 1.254 . S
O185 Zn182 2.031 . S
O185 C189 1.269 . S
O186 Zn183 1.986 . S
O186 C193 1.262 . S
O187 Zn182 2.049 . S
O187 C195 1.260 . S
O188 Zn183 1.996 . S
O188 C195 1.257 . S
C189 O184 1.254 . S
C189 O185 1.269 . S
C190 O191 1.249 . S
C190 O192 1.270 . S
O191 Zn183 1.943 . S
O191 C190 1.249 . S
O192 Zn182 2.067 . S
O192 C190 1.270 . S
C193 O186 1.262 . S
C193 O194 1.232 . S
O194 C193 1.232 . S
C195 O187 1.260 . S
C195 O188 1.257 . S
Zn196 O199 2.031 . S
Zn196 O201 2.049 . S
Zn196 O206 2.067 . S
Zn197 O198 1.962 . S
Zn197 O200 1.986 . S
Zn197 O202 1.996 . S
Zn197 O205 1.943 . S
O198 Zn197 1.962 . S
O198 C203 1.254 . S
O199 Zn196 2.031 . S
O199 C203 1.269 . S
O200 Zn197 1.986 . S
O200 C207 1.262 . S
O201 Zn196 2.049 . S
O201 C209 1.260 . S
O202 Zn197 1.996 . S
O202 C209 1.257 . S
C203 O198 1.254 . S
C203 O199 1.269 . S
C204 O205 1.249 . S
C204 O206 1.270 . S
O205 Zn197 1.943 . S
O205 C204 1.249 . S
O206 Zn196 2.067 . S
O206 C204 1.270 . S
C207 O200 1.262 . S
C207 O208 1.232 1_554 S
O208 C207 1.232 1_556 S
C209 O201 1.260 . S
C209 O202 1.257 . S
Zn210 O213 2.031 . S
Zn210 O215 2.049 . S
Zn210 O220 2.067 . S
Zn211 O212 1.962 . S
Zn211 O214 1.986 . S
Zn211 O216 1.996 . S
Zn211 O219 1.943 . S
O212 Zn211 1.962 . S
O212 C217 1.254 . S
O213 Zn210 2.031 . S
O213 C217 1.269 . S
O214 Zn211 1.986 . S
O214 C221 1.262 . S
O215 Zn210 2.049 . S
O215 C223 1.260 . S
O216 Zn211 1.996 . S
O216 C223 1.257 . S
C217 O212 1.254 . S
C217 O213 1.269 . S
C218 O219 1.249 . S
C218 O220 1.270 . S
O219 Zn211 1.943 . S
O219 C218 1.249 . S
O220 Zn210 2.067 . S
O220 C218 1.270 . S
C221 O214 1.262 . S
C221 O222 1.232 . S
O222 C221 1.232 . S
C223 O215 1.260 . S
C223 O216 1.257 . S
C13 C179 1.417 . S
C193 C27 1.417 . S
C41 C207 1.417 . S
C221 C55 1.417 . S
C125 C67 1.417 . S
C81 C139 1.417 . S
C153 C95 1.417 . S
C109 C167 1.417 . S
C8 C36 1.454 1_544 S
C22 C50 1.454 1_565 S
C64 C92 1.866 1_566 S
C78 C106 1.866 1_545 S
C148 C120 1.454 1_556 S
C134 C162 1.454 . S
C204 C176 1.866 1_554 S
C190 C218 1.866 . S
C91 C7 1.497 . S
C105 C21 1.497 1_655 S
C35 C63 1.497 . S
C49 C77 1.497 1_455 S
C203 C119 1.497 1_455 S
C133 C217 1.497 . S
C175 C147 1.497 1_455 S
C161 C189 1.497 . S
C11 C53 1.338 . S
C39 C25 1.338 . S
C69 C111 1.313 . S
C83 C97 1.313 . S
C165 C123 1.338 . S
C137 C151 1.338 . S
C223 C181 1.313 . S
C195 C209 1.313 . S
