# Generated by pormake.
# Topology wje, (4)-cn, num edge types: 1
# Building blocks:
#     Node 0, Type 0, BuildingBlock: GALJAG_clean_sbu_0, # of connection points: 4
#     Node 1, Type 0, BuildingBlock: GALJAG_clean_sbu_0, # of connection points: 4
#     Node 2, Type 0, BuildingBlock: GALJAG_clean_sbu_0, # of connection points: 4
#     Node 3, Type 0, BuildingBlock: GALJAG_clean_sbu_0, # of connection points: 4
#     Node 4, Type 0, BuildingBlock: GALJAG_clean_sbu_0, # of connection points: 4
#     Node 5, Type 0, BuildingBlock: GALJAG_clean_sbu_0, # of connection points: 4
#     Node 6, Type 0, BuildingBlock: GALJAG_clean_sbu_0, # of connection points: 4
#     Node 7, Type 0, BuildingBlock: GALJAG_clean_sbu_0, # of connection points: 4
#     Node 8, Type 0, BuildingBlock: GALJAG_clean_sbu_0, # of connection points: 4
#     Node 9, Type 0, BuildingBlock: GALJAG_clean_sbu_0, # of connection points: 4
#     Node 10, Type 0, BuildingBlock: GALJAG_clean_sbu_0, # of connection points: 4
#     Node 11, Type 0, BuildingBlock: GALJAG_clean_sbu_0, # of connection points: 4
#     Edge 12, Type (0, 0), None
#     Edge 13, Type (0, 0), None
#     Edge 14, Type (0, 0), None
#     Edge 15, Type (0, 0), None
#     Edge 16, Type (0, 0), None
#     Edge 17, Type (0, 0), None
#     Edge 18, Type (0, 0), None
#     Edge 19, Type (0, 0), None
#     Edge 20, Type (0, 0), None
#     Edge 21, Type (0, 0), None
#     Edge 22, Type (0, 0), None
#     Edge 23, Type (0, 0), None
#     Edge 24, Type (0, 0), None
#     Edge 25, Type (0, 0), None
#     Edge 26, Type (0, 0), None
#     Edge 27, Type (0, 0), None
#     Edge 28, Type (0, 0), None
#     Edge 29, Type (0, 0), None
#     Edge 30, Type (0, 0), None
#     Edge 31, Type (0, 0), None
#     Edge 32, Type (0, 0), None
#     Edge 33, Type (0, 0), None
#     Edge 34, Type (0, 0), None
#     Edge 35, Type (0, 0), None
# Relax obj value: 0.233
# Max RMSD: 0.133
# Mean RMSD: 0.133
data_MOF--net-wje--node1-GALJAG_clean_sbu_0--edge1-none
_symmetry_space_group_name_H-M    P1
_symmetry_Int_Tables_number       1
_symmetry_cell_setting            triclinic
loop_
_symmetry_equiv_pos_as_xyz
'x, y, z'
_cell_length_a     18.342421
_cell_length_b     18.343831
_cell_length_c     16.556516
_cell_angle_alpha  89.998702
_cell_angle_beta   90.000649
_cell_angle_gamma 120.00826
loop_
_atom_site_label
_atom_site_type_symbol
_atom_site_fract_x
_atom_site_fract_y
_atom_site_fract_z
_atom_type_partial_charge
In0 In 0.32109 0.01345 0.30832 0.0
O1 O 0.38041 0.94011 0.25701 0.0
O2 O 0.46156 0.06831 0.29092 0.0
C3 C 0.15931 0.89912 0.327 0.0
C4 C 0.31784 0.12648 0.20531 0.0
C5 C 0.34246 0.00039 0.46656 0.0
O6 O 0.20636 0.88982 0.27699 0.0
O7 O 0.19176 0.9695 0.362 0.0
O8 O 0.36205 0.07071 0.43417 0.0
O9 O 0.31643 0.939 0.4189 0.0
C10 C 0.45491 0.0005 0.26499 0.0
O11 O 0.32809 0.13942 0.28067 0.0
O12 O 0.30866 0.0568 0.18206 0.0
In13 In 0.30167 0.32405 0.64167 0.0
O14 O 0.18268 0.33103 0.61402 0.0
O15 O 0.24591 0.31165 0.5154 0.0
C16 C 0.3361 0.34541 0.79992 0.0
C17 C 0.44845 0.45788 0.59836 0.0
C18 C 0.25423 0.16229 0.66033 0.0
O19 O 0.28536 0.36498 0.76753 0.0
O20 O 0.37148 0.31941 0.75226 0.0
O21 O 0.3106 0.20935 0.61034 0.0
O22 O 0.21627 0.19471 0.69533 0.0
C23 C 0.1854 0.32082 0.53865 0.0
O24 O 0.43435 0.3834 0.59036 0.0
O25 O 0.38728 0.46452 0.6243 0.0
In26 In 0.97165 0.30467 0.97501 0.0
O27 O 0.84567 0.18568 0.94734 0.0
O28 O 0.92832 0.24891 0.84874 0.0
C29 C 0.98472 0.33911 0.13325 0.0
C30 C 0.9846 0.45143 0.93169 0.0
C31 C 0.08596 0.25723 0.9937 0.0
O32 O 0.91439 0.28836 0.10086 0.0
O33 O 0.04611 0.37448 0.08559 0.0
O34 O 0.09529 0.31359 0.94371 0.0
O35 O 0.01556 0.21927 0.02869 0.0
C36 C 0.85862 0.18839 0.87198 0.0
O37 O 0.045 0.43735 0.9237 0.0
O38 O 0.91678 0.39026 0.95762 0.0
In39 In 0.66104 0.97463 0.30832 0.0
O40 O 0.60176 0.048 0.257 0.0
O41 O 0.52057 0.91979 0.29094 0.0
C42 C 0.82283 0.08894 0.327 0.0
C43 C 0.66427 0.8616 0.20531 0.0
C44 C 0.63968 0.9877 0.46656 0.0
O45 O 0.77579 0.09825 0.27698 0.0
O46 O 0.79037 0.01856 0.36201 0.0
O47 O 0.62008 0.91738 0.43417 0.0
O48 O 0.66571 0.04909 0.4189 0.0
C49 C 0.52726 0.98762 0.26504 0.0
O50 O 0.65403 0.84865 0.28067 0.0
O51 O 0.67346 0.93128 0.18206 0.0
In52 In 0.68047 0.66405 0.64167 0.0
O53 O 0.79946 0.65707 0.61403 0.0
O54 O 0.73622 0.67643 0.5154 0.0
C55 C 0.64604 0.64268 0.79992 0.0
C56 C 0.53369 0.53025 0.59841 0.0
C57 C 0.72794 0.82582 0.66033 0.0
O58 O 0.69678 0.62311 0.76753 0.0
O59 O 0.61067 0.6687 0.75226 0.0
O60 O 0.67158 0.77876 0.61034 0.0
O61 O 0.76588 0.79339 0.69534 0.0
C62 C 0.79674 0.66727 0.53866 0.0
O63 O 0.5478 0.60473 0.59036 0.0
O64 O 0.59485 0.52358 0.62432 0.0
In65 In 0.01047 0.68342 0.97501 0.0
O66 O 0.13646 0.80242 0.94735 0.0
O67 O 0.05381 0.73919 0.84874 0.0
C68 C -0.00261 0.64897 0.13325 0.0
C69 C -0.00252 0.53666 0.93174 0.0
C70 C 0.89618 0.7309 0.9937 0.0
O71 O 0.06772 0.69972 0.10086 0.0
O72 O 0.936 0.61362 0.08559 0.0
O73 O 0.88685 0.67454 0.9437 0.0
O74 O 0.96658 0.76883 0.0287 0.0
C75 C 0.12351 0.7997 0.87198 0.0
O76 O 0.93709 0.55076 0.92369 0.0
O77 O 0.06532 0.59782 0.95764 0.0
In78 In 0.97167 0.664 0.37885 0.0
O79 O 0.045 0.60468 0.43018 0.0
O80 O 0.91679 0.52354 0.39624 0.0
C81 C 0.08597 0.82573 0.36008 0.0
C82 C 0.85865 0.66725 0.48188 0.0
C83 C 0.98474 0.64266 0.22061 0.0
O84 O 0.09533 0.77873 0.4101 0.0
O85 O 0.01554 0.79331 0.32516 0.0
O86 O 0.91441 0.62307 0.25299 0.0
O87 O 0.04612 0.66863 0.26828 0.0
C88 C 0.9846 0.53019 0.42218 0.0
O89 O 0.84568 0.65696 0.40653 0.0
O90 O 0.92837 0.67648 0.50512 0.0
In91 In 0.3017 0.97466 0.71216 0.0
O92 O 0.18272 0.84867 0.73984 0.0
O93 O 0.24593 0.93134 0.83844 0.0
C94 C 0.33611 0.98774 0.55392 0.0
C95 C 0.44845 0.98759 0.75548 0.0
C96 C 0.25428 0.08895 0.69341 0.0
O97 O 0.28536 0.91741 0.58631 0.0
O98 O 0.37153 0.04912 0.60159 0.0
O99 O 0.31065 0.09832 0.74342 0.0
O100 O 0.21625 0.01852 0.6585 0.0
C101 C 0.18543 0.86163 0.8152 0.0
O102 O 0.43437 0.04798 0.76349 0.0
O103 O 0.38728 0.91979 0.72953 0.0
In104 In 0.32106 0.30466 0.04552 0.0
O105 O 0.32808 0.1857 0.07318 0.0
O106 O 0.30862 0.24888 0.17179 0.0
C107 C 0.3424 0.33907 0.88728 0.0
C108 C 0.4549 0.45142 0.08884 0.0
C109 C 0.15933 0.25725 0.02678 0.0
O110 O 0.36199 0.28833 0.91966 0.0
O111 O 0.31644 0.37448 0.93494 0.0
O112 O 0.20635 0.3136 0.0768 0.0
O113 O 0.19173 0.21923 0.99185 0.0
C114 C 0.31783 0.1884 0.14854 0.0
O115 O 0.38041 0.43732 0.09685 0.0
O116 O 0.46154 0.39027 0.06289 0.0
In117 In 0.01045 0.32406 0.37885 0.0
O118 O 0.93709 0.38335 0.43019 0.0
O119 O 0.06531 0.46452 0.39622 0.0
C120 C 0.89617 0.16233 0.36008 0.0
C121 C 0.12348 0.32083 0.48188 0.0
C122 C -0.00263 0.34541 0.22062 0.0
O123 O 0.88681 0.20931 0.41011 0.0
O124 O 0.9666 0.19477 0.32515 0.0
O125 O 0.06771 0.36502 0.253 0.0
O126 O 0.93599 0.31942 0.26828 0.0
C127 C -0.00252 0.45784 0.42214 0.0
O128 O 0.13645 0.33111 0.40652 0.0
O129 O 0.05377 0.3116 0.50512 0.0
In130 In 0.68045 0.01343 0.71216 0.0
O131 O 0.54778 0.94008 0.76349 0.0
O132 O 0.59485 0.06828 0.72951 0.0
C133 C 0.72789 0.89915 0.69341 0.0
C134 C 0.79671 0.12647 0.8152 0.0
C135 C 0.64603 0.00035 0.55392 0.0
O136 O 0.67152 0.88978 0.74342 0.0
O137 O 0.76591 0.96958 0.65849 0.0
O138 O 0.69678 0.07068 0.5863 0.0
O139 O 0.61061 0.93897 0.60159 0.0
C140 C 0.53369 0.00046 0.75543 0.0
O141 O 0.79942 0.13942 0.73984 0.0
O142 O 0.73621 0.05676 0.83844 0.0
In143 In 0.66107 0.68343 0.04552 0.0
O144 O 0.65404 0.80239 0.07318 0.0
O145 O 0.67349 0.7392 0.17179 0.0
C146 C 0.63974 0.64903 0.88728 0.0
C147 C 0.52726 0.53666 0.08879 0.0
C148 C 0.82281 0.73087 0.02678 0.0
O149 O 0.62014 0.69976 0.91966 0.0
O150 O 0.6657 0.61362 0.93494 0.0
O151 O 0.7758 0.67452 0.0768 0.0
O152 O 0.7904 0.76888 0.99184 0.0
C153 C 0.66428 0.79968 0.14854 0.0
O154 O 0.60176 0.55078 0.09685 0.0
O155 O 0.52059 0.59781 0.06287 0.0
loop_
_geom_bond_atom_site_label_1
_geom_bond_atom_site_label_2
_geom_bond_distance
_geom_bond_site_symmetry_2
_ccdc_geom_bond_type
In0 O1 2.294 1_545 S
In0 O2 2.326 . S
In0 O6 2.266 1_545 S
In0 O7 2.326 1_545 S
In0 O8 2.266 . S
In0 O9 2.326 1_545 S
In0 O11 2.294 . S
In0 O12 2.326 . S
O1 In0 2.294 1_565 S
O1 C10 1.240 1_565 S
O2 In0 2.326 . S
O2 C10 1.252 . S
C3 O6 1.252 . S
C3 O7 1.260 . S
C4 O11 1.240 . S
C4 O12 1.252 . S
C5 O8 1.252 . S
C5 O9 1.260 1_545 S
O6 In0 2.266 1_565 S
O6 C3 1.252 . S
O7 In0 2.326 1_565 S
O7 C3 1.260 . S
O8 In0 2.266 . S
O8 C5 1.252 . S
O9 In0 2.326 1_565 S
O9 C5 1.260 1_565 S
C10 O1 1.240 1_545 S
C10 O2 1.252 . S
O11 In0 2.294 . S
O11 C4 1.240 . S
O12 In0 2.326 . S
O12 C4 1.252 . S
In13 O14 2.294 . S
In13 O15 2.326 . S
In13 O19 2.266 . S
In13 O20 2.326 . S
In13 O21 2.266 . S
In13 O22 2.326 . S
In13 O24 2.294 . S
In13 O25 2.326 . S
O14 In13 2.294 . S
O14 C23 1.240 . S
O15 In13 2.326 . S
O15 C23 1.252 . S
C16 O19 1.252 . S
C16 O20 1.260 . S
C17 O24 1.240 . S
C17 O25 1.252 . S
C18 O21 1.252 . S
C18 O22 1.260 . S
O19 In13 2.266 . S
O19 C16 1.252 . S
O20 In13 2.326 . S
O20 C16 1.260 . S
O21 In13 2.266 . S
O21 C18 1.252 . S
O22 In13 2.326 . S
O22 C18 1.260 . S
C23 O14 1.240 . S
C23 O15 1.252 . S
O24 In13 2.294 . S
O24 C17 1.240 . S
O25 In13 2.326 . S
O25 C17 1.252 . S
In26 O27 2.294 . S
In26 O28 2.326 . S
In26 O32 2.266 1_556 S
In26 O33 2.326 1_656 S
In26 O34 2.266 1_655 S
In26 O35 2.326 1_655 S
In26 O37 2.294 1_655 S
In26 O38 2.326 . S
O27 In26 2.294 . S
O27 C36 1.240 . S
O28 In26 2.326 . S
O28 C36 1.252 . S
C29 O32 1.252 . S
C29 O33 1.260 1_655 S
C30 O37 1.240 1_655 S
C30 O38 1.252 . S
C31 O34 1.252 . S
C31 O35 1.260 . S
O32 In26 2.266 1_554 S
O32 C29 1.252 . S
O33 In26 2.326 1_454 S
O33 C29 1.260 1_455 S
O34 In26 2.266 1_455 S
O34 C31 1.252 . S
O35 In26 2.326 1_455 S
O35 C31 1.260 . S
C36 O27 1.240 . S
C36 O28 1.252 . S
O37 In26 2.294 1_455 S
O37 C30 1.240 1_455 S
O38 In26 2.326 . S
O38 C30 1.252 . S
In39 O40 2.294 1_565 S
In39 O41 2.326 . S
In39 O45 2.266 1_565 S
In39 O46 2.326 1_565 S
In39 O47 2.266 . S
In39 O48 2.326 1_565 S
In39 O50 2.294 . S
In39 O51 2.326 . S
O40 In39 2.294 1_545 S
O40 C49 1.240 1_545 S
O41 In39 2.326 . S
O41 C49 1.252 . S
C42 O45 1.252 . S
C42 O46 1.260 . S
C43 O50 1.240 . S
C43 O51 1.252 . S
C44 O47 1.252 . S
C44 O48 1.260 1_565 S
O45 In39 2.266 1_545 S
O45 C42 1.252 . S
O46 In39 2.326 1_545 S
O46 C42 1.260 . S
O47 In39 2.266 . S
O47 C44 1.252 . S
O48 In39 2.326 1_545 S
O48 C44 1.260 1_545 S
C49 O40 1.240 1_565 S
C49 O41 1.252 . S
O50 In39 2.294 . S
O50 C43 1.240 . S
O51 In39 2.326 . S
O51 C43 1.252 . S
In52 O53 2.294 . S
In52 O54 2.326 . S
In52 O58 2.266 . S
In52 O59 2.326 . S
In52 O60 2.266 . S
In52 O61 2.326 . S
In52 O63 2.294 . S
In52 O64 2.326 . S
O53 In52 2.294 . S
O53 C62 1.240 . S
O54 In52 2.326 . S
O54 C62 1.252 . S
C55 O58 1.252 . S
C55 O59 1.260 . S
C56 O63 1.240 . S
C56 O64 1.252 . S
C57 O60 1.252 . S
C57 O61 1.260 . S
O58 In52 2.266 . S
O58 C55 1.252 . S
O59 In52 2.326 . S
O59 C55 1.260 . S
O60 In52 2.266 . S
O60 C57 1.252 . S
O61 In52 2.326 . S
O61 C57 1.260 . S
C62 O53 1.240 . S
C62 O54 1.252 . S
O63 In52 2.294 . S
O63 C56 1.240 . S
O64 In52 2.326 . S
O64 C56 1.252 . S
In65 O66 2.294 . S
In65 O67 2.326 . S
In65 O71 2.266 1_556 S
In65 O72 2.326 1_456 S
In65 O73 2.266 1_455 S
In65 O74 2.326 1_455 S
In65 O76 2.294 1_455 S
In65 O77 2.326 . S
O66 In65 2.294 . S
O66 C75 1.240 . S
O67 In65 2.326 . S
O67 C75 1.252 . S
C68 O71 1.252 . S
C68 O72 1.260 1_455 S
C69 O76 1.240 1_455 S
C69 O77 1.252 . S
C70 O73 1.252 . S
C70 O74 1.260 . S
O71 In65 2.266 1_554 S
O71 C68 1.252 . S
O72 In65 2.326 1_654 S
O72 C68 1.260 1_655 S
O73 In65 2.266 1_655 S
O73 C70 1.252 . S
O74 In65 2.326 1_655 S
O74 C70 1.260 . S
C75 O66 1.240 . S
C75 O67 1.252 . S
O76 In65 2.294 1_655 S
O76 C69 1.240 1_655 S
O77 In65 2.326 . S
O77 C69 1.252 . S
In78 O79 2.294 1_655 S
In78 O80 2.326 . S
In78 O84 2.266 1_655 S
In78 O85 2.326 1_655 S
In78 O86 2.266 . S
In78 O87 2.326 1_655 S
In78 O89 2.294 . S
In78 O90 2.326 . S
O79 In78 2.294 1_455 S
O79 C88 1.240 1_455 S
O80 In78 2.326 . S
O80 C88 1.252 . S
C81 O84 1.252 . S
C81 O85 1.260 . S
C82 O89 1.240 . S
C82 O90 1.252 . S
C83 O86 1.252 . S
C83 O87 1.260 1_655 S
O84 In78 2.266 1_455 S
O84 C81 1.252 . S
O85 In78 2.326 1_455 S
O85 C81 1.260 . S
O86 In78 2.266 . S
O86 C83 1.252 . S
O87 In78 2.326 1_455 S
O87 C83 1.260 1_455 S
C88 O79 1.240 1_655 S
C88 O80 1.252 . S
O89 In78 2.294 . S
O89 C82 1.240 . S
O90 In78 2.326 . S
O90 C82 1.252 . S
In91 O92 2.294 . S
In91 O93 2.326 . S
In91 O97 2.266 . S
In91 O98 2.326 1_565 S
In91 O99 2.266 1_565 S
In91 O100 2.326 1_565 S
In91 O102 2.294 1_565 S
In91 O103 2.326 . S
O92 In91 2.294 . S
O92 C101 1.240 . S
O93 In91 2.326 . S
O93 C101 1.252 . S
C94 O97 1.252 . S
C94 O98 1.260 1_565 S
C95 O102 1.240 1_565 S
C95 O103 1.252 . S
C96 O99 1.252 . S
C96 O100 1.260 . S
O97 In91 2.266 . S
O97 C94 1.252 . S
O98 In91 2.326 1_545 S
O98 C94 1.260 1_545 S
O99 In91 2.266 1_545 S
O99 C96 1.252 . S
O100 In91 2.326 1_545 S
O100 C96 1.260 . S
C101 O92 1.240 . S
C101 O93 1.252 . S
O102 In91 2.294 1_545 S
O102 C95 1.240 1_545 S
O103 In91 2.326 . S
O103 C95 1.252 . S
In104 O105 2.294 . S
In104 O106 2.326 . S
In104 O110 2.266 1_554 S
In104 O111 2.326 1_554 S
In104 O112 2.266 . S
In104 O113 2.326 . S
In104 O115 2.294 . S
In104 O116 2.326 . S
O105 In104 2.294 . S
O105 C114 1.240 . S
O106 In104 2.326 . S
O106 C114 1.252 . S
C107 O110 1.252 . S
C107 O111 1.260 . S
C108 O115 1.240 . S
C108 O116 1.252 . S
C109 O112 1.252 . S
C109 O113 1.260 . S
O110 In104 2.266 1_556 S
O110 C107 1.252 . S
O111 In104 2.326 1_556 S
O111 C107 1.260 . S
O112 In104 2.266 . S
O112 C109 1.252 . S
O113 In104 2.326 . S
O113 C109 1.260 . S
C114 O105 1.240 . S
C114 O106 1.252 . S
O115 In104 2.294 . S
O115 C108 1.240 . S
O116 In104 2.326 . S
O116 C108 1.252 . S
In117 O118 2.294 1_455 S
In117 O119 2.326 . S
In117 O123 2.266 1_455 S
In117 O124 2.326 1_455 S
In117 O125 2.266 . S
In117 O126 2.326 1_455 S
In117 O128 2.294 . S
In117 O129 2.326 . S
O118 In117 2.294 1_655 S
O118 C127 1.240 1_655 S
O119 In117 2.326 . S
O119 C127 1.252 . S
C120 O123 1.252 . S
C120 O124 1.260 . S
C121 O128 1.240 . S
C121 O129 1.252 . S
C122 O125 1.252 . S
C122 O126 1.260 1_455 S
O123 In117 2.266 1_655 S
O123 C120 1.252 . S
O124 In117 2.326 1_655 S
O124 C120 1.260 . S
O125 In117 2.266 . S
O125 C122 1.252 . S
O126 In117 2.326 1_655 S
O126 C122 1.260 1_655 S
C127 O118 1.240 1_455 S
C127 O119 1.252 . S
O128 In117 2.294 . S
O128 C121 1.240 . S
O129 In117 2.326 . S
O129 C121 1.252 . S
In130 O131 2.294 1_545 S
In130 O132 2.326 . S
In130 O136 2.266 1_545 S
In130 O137 2.326 1_545 S
In130 O138 2.266 . S
In130 O139 2.326 1_545 S
In130 O141 2.294 . S
In130 O142 2.326 . S
O131 In130 2.294 1_565 S
O131 C140 1.240 1_565 S
O132 In130 2.326 . S
O132 C140 1.252 . S
C133 O136 1.252 . S
C133 O137 1.260 . S
C134 O141 1.240 . S
C134 O142 1.252 . S
C135 O138 1.252 . S
C135 O139 1.260 1_545 S
O136 In130 2.266 1_565 S
O136 C133 1.252 . S
O137 In130 2.326 1_565 S
O137 C133 1.260 . S
O138 In130 2.266 . S
O138 C135 1.252 . S
O139 In130 2.326 1_565 S
O139 C135 1.260 1_565 S
C140 O131 1.240 1_545 S
C140 O132 1.252 . S
O141 In130 2.294 . S
O141 C134 1.240 . S
O142 In130 2.326 . S
O142 C134 1.252 . S
In143 O144 2.294 . S
In143 O145 2.326 . S
In143 O149 2.266 1_554 S
In143 O150 2.326 1_554 S
In143 O151 2.266 . S
In143 O152 2.326 . S
In143 O154 2.294 . S
In143 O155 2.326 . S
O144 In143 2.294 . S
O144 C153 1.240 . S
O145 In143 2.326 . S
O145 C153 1.252 . S
C146 O149 1.252 . S
C146 O150 1.260 . S
C147 O154 1.240 . S
C147 O155 1.252 . S
C148 O151 1.252 . S
C148 O152 1.260 . S
O149 In143 2.266 1_556 S
O149 C146 1.252 . S
O150 In143 2.326 1_556 S
O150 C146 1.260 . S
O151 In143 2.266 . S
O151 C148 1.252 . S
O152 In143 2.326 . S
O152 C148 1.260 . S
C153 O144 1.240 . S
C153 O145 1.252 . S
O154 In143 2.294 . S
O154 C147 1.240 . S
O155 In143 2.326 . S
O155 C147 1.252 . S
C4 C114 1.876 . S
C23 C121 1.876 . S
C134 C36 1.876 . S
C153 C43 1.876 . S
C82 C62 1.876 . S
C101 C75 1.876 . S
C10 C49 2.130 1_545 S
C56 C17 2.130 . S
C69 C30 2.130 1_455 S
C88 C127 2.130 1_655 S
C140 C95 2.130 1_545 S
C108 C147 2.130 . S
C81 C3 1.263 . S
C18 C96 1.263 . S
C109 C31 1.263 1_554 S
C120 C42 1.263 . S
C57 C133 1.263 . S
C148 C70 1.263 1_554 S
C5 C94 1.371 1_545 S
C107 C16 1.371 . S
C122 C29 1.371 1_455 S
C44 C135 1.371 1_565 S
C146 C55 1.371 . S
C83 C68 1.371 1_655 S
