# Generated by pormake.
# Topology qtz, (4)-cn, num edge types: 1
# Building blocks:
#     Node 0, Type 0, BuildingBlock: GALJAG_clean_sbu_0, # of connection points: 4
#     Node 1, Type 0, BuildingBlock: GALJAG_clean_sbu_0, # of connection points: 4
#     Node 2, Type 0, BuildingBlock: GALJAG_clean_sbu_0, # of connection points: 4
#     Edge 3, Type (0, 0), BuildingBlock: FUNLAD_clean_linker_0, # of connection points: 2
#     Edge 4, Type (0, 0), BuildingBlock: FUNLAD_clean_linker_0, # of connection points: 2
#     Edge 5, Type (0, 0), BuildingBlock: FUNLAD_clean_linker_0, # of connection points: 2
#     Edge 6, Type (0, 0), BuildingBlock: FUNLAD_clean_linker_0, # of connection points: 2
#     Edge 7, Type (0, 0), BuildingBlock: FUNLAD_clean_linker_0, # of connection points: 2
#     Edge 8, Type (0, 0), BuildingBlock: FUNLAD_clean_linker_0, # of connection points: 2
# Relax obj value: 0.004
# Max RMSD: 0.037
# Mean RMSD: 0.037
data_MOF--net-qtz--node1-GALJAG_clean_sbu_0--edge1-FUNLAD_clean_linker_0
_symmetry_space_group_name_H-M    P1
_symmetry_Int_Tables_number       1
_symmetry_cell_setting            triclinic
loop_
_symmetry_equiv_pos_as_xyz
'x, y, z'
_cell_length_a     28.88137
_cell_length_b     28.898368
_cell_length_c     30.975912
_cell_angle_alpha  90.123471
_cell_angle_beta   90.128668
_cell_angle_gamma 119.93561
loop_
_atom_site_label
_atom_site_type_symbol
_atom_site_fract_x
_atom_site_fract_y
_atom_site_fract_z
_atom_type_partial_charge
In0 In 0.00364 0.50312 0.16536 0.0
O1 O 0.95338 0.41767 0.19 0.0
O2 O 0.9432 0.47808 0.22009 0.0
C3 C 0.06817 0.48785 0.11131 0.0
C4 C 0.93828 0.51881 0.11246 0.0
C5 C 0.07835 0.57691 0.21865 0.0
O6 O 0.04006 0.45411 0.13955 0.0
O7 O 0.06343 0.5289 0.11024 0.0
O8 O 0.05341 0.58832 0.1911 0.0
O9 O 0.06521 0.52823 0.21963 0.0
C10 C 0.92931 0.42924 0.21821 0.0
O11 O 0.96833 0.55318 0.13984 0.0
O12 O 0.94152 0.47689 0.11163 0.0
In13 In 0.50491 0.00534 0.49974 0.0
O14 O 0.58545 0.0378 0.46607 0.0
O15 O 0.53795 0.07236 0.44982 0.0
C16 C 0.51699 0.9403 0.55562 0.0
C17 C 0.49366 0.07174 0.5549 0.0
C18 C 0.42782 0.93703 0.4449 0.0
O19 O 0.55492 0.97469 0.53321 0.0
O20 O 0.47307 0.93897 0.55012 0.0
O21 O 0.42367 0.97176 0.46655 0.0
O22 O 0.47105 0.937 0.45059 0.0
C23 C 0.58098 0.072 0.44404 0.0
O24 O 0.45547 0.03697 0.53263 0.0
O25 O 0.53748 0.07284 0.54958 0.0
In26 In 0.50432 0.50613 0.83325 0.0
O27 O 0.54479 0.59139 0.80698 0.0
O28 O 0.47131 0.53347 0.77853 0.0
C29 C 0.57956 0.51156 0.88814 0.0
C30 C 0.42778 0.50071 0.88623 0.0
C31 C 0.50107 0.43102 0.77944 0.0
O32 O 0.58932 0.5478 0.86093 0.0
O33 O 0.532 0.47343 0.88788 0.0
O34 O 0.46431 0.42098 0.80621 0.0
O35 O 0.53866 0.47884 0.77951 0.0
C36 C 0.50876 0.58136 0.77929 0.0
O37 O 0.41895 0.46394 0.85964 0.0
O38 O 0.47506 0.53938 0.88631 0.0
C39 C 0.33333 0.45676 0.91295 0.0
C40 C 0.38593 0.49994 0.91407 0.0
C41 C 0.29353 0.45758 0.93813 0.0
C42 C 0.30577 0.50167 0.96499 0.0
C43 C 0.35843 0.54458 0.96606 0.0
C44 C 0.39811 0.54366 0.94109 0.0
C45 C 0.2647 0.50593 0.99075 0.0
C46 C 0.21815 0.46377 0.00341 0.0
C47 C 0.17865 0.46991 0.02986 0.0
C48 C 0.14548 0.429 0.05834 0.0
C49 C 0.10916 0.43448 0.08464 0.0
C50 C 0.10491 0.48078 0.08252 0.0
H51 H 0.19665 0.5471 0.00424 0.0
C52 C 0.13685 0.52096 0.05305 0.0
C53 C 0.17321 0.51557 0.02691 0.0
H54 H 0.13404 0.55685 0.05033 0.0
H55 H 0.32272 0.4227 0.89216 0.0
H56 H 0.25318 0.42432 0.9355 0.0
H57 H 0.36896 0.57917 0.98622 0.0
H58 H 0.43825 0.57764 0.94256 0.0
H59 H 0.27466 0.54569 0.0014 0.0
H60 H 0.20993 0.4235 0.99662 0.0
H61 H 0.14841 0.39315 0.06087 0.0
H62 H 0.08479 0.40268 0.10686 0.0
C63 C 0.8714 0.33442 0.24161 0.0
C64 C 0.88711 0.3887 0.24601 0.0
C65 C 0.83025 0.29592 0.267 0.0
C66 C 0.8042 0.31106 0.29758 0.0
C67 C 0.82 0.36536 0.30179 0.0
C68 C 0.8611 0.40379 0.27643 0.0
C69 C 0.75921 0.27158 0.32449 0.0
C70 C 0.75057 0.22224 0.33334 0.0
C71 C 0.70596 0.18366 0.36099 0.0
C72 C 0.71129 0.14398 0.38271 0.0
C73 C 0.67057 0.10746 0.40948 0.0
C74 C 0.62335 0.10954 0.41473 0.0
H75 H 0.65156 0.21365 0.34814 0.0
C76 C 0.61732 0.14834 0.3922 0.0
C77 C 0.65809 0.18494 0.3655 0.0
H78 H 0.58113 0.15057 0.39527 0.0
H79 H 0.89041 0.32156 0.21812 0.0
H80 H 0.81837 0.25445 0.26172 0.0
H81 H 0.80045 0.37818 0.32482 0.0
H82 H 0.87217 0.44531 0.28045 0.0
H83 H 0.73379 0.28494 0.33919 0.0
H84 H 0.77874 0.21041 0.32212 0.0
H85 H 0.74744 0.14167 0.37946 0.0
H86 H 0.67625 0.0778 0.42627 0.0
C87 C 0.4791 0.86476 0.60815 0.0
C88 C 0.52311 0.90344 0.58495 0.0
C89 C 0.48427 0.82851 0.63464 0.0
C90 C 0.53361 0.82996 0.63824 0.0
C91 C 0.57792 0.86968 0.616 0.0
C92 C 0.57271 0.9059 0.58944 0.0
C93 C 0.54034 0.79125 0.66529 0.0
C94 C 0.49992 0.74159 0.67344 0.0
C95 C 0.50527 0.70151 0.69979 0.0
C96 C 0.4657 0.64759 0.69576 0.0
C97 C 0.4675 0.60857 0.72101 0.0
C98 C 0.50885 0.6226 0.75112 0.0
H99 H 0.57755 0.75675 0.73486 0.0
C100 C 0.54879 0.67642 0.7551 0.0
C101 C 0.54699 0.71559 0.72982 0.0
H102 H 0.58091 0.68844 0.77833 0.0
H103 H 0.4405 0.86228 0.60571 0.0
H104 H 0.44963 0.79983 0.65249 0.0
H105 H 0.61651 0.87214 0.61859 0.0
H106 H 0.60744 0.93552 0.57214 0.0
H107 H 0.5804 0.80323 0.67652 0.0
H108 H 0.46118 0.72847 0.65863 0.0
H109 H 0.43297 0.63554 0.67312 0.0
H110 H 0.43604 0.56742 0.71725 0.0
C111 C 0.67402 0.55388 0.91513 0.0
C112 C 0.62074 0.51214 0.91687 0.0
C113 C 0.71325 0.55252 0.94085 0.0
C114 C 0.69975 0.50937 0.96894 0.0
C115 C 0.64637 0.46804 0.97079 0.0
C116 C 0.60727 0.46946 0.94523 0.0
C117 C 0.74017 0.50421 0.99505 0.0
C118 C 0.7882 0.54554 0.00634 0.0
C119 C 0.82735 0.53844 0.03258 0.0
C120 C 0.86314 0.58013 0.05963 0.0
C121 C 0.89952 0.57402 0.08547 0.0
C122 C 0.90121 0.52628 0.08428 0.0
H123 H 0.80448 0.45889 0.00902 0.0
C124 C 0.86651 0.48517 0.05628 0.0
C125 C 0.83006 0.49118 0.03062 0.0
H126 H 0.86727 0.44812 0.05431 0.0
H127 H 0.6856 0.5871 0.89332 0.0
H128 H 0.75411 0.58452 0.93761 0.0
H129 H 0.63485 0.43419 0.99192 0.0
H130 H 0.56657 0.43662 0.94724 0.0
H131 H 0.72869 0.46457 0.00689 0.0
H132 H 0.7982 0.58603 -0.00165 0.0
H133 H 0.86233 0.61717 0.06136 0.0
H134 H 0.92605 0.60654 0.10656 0.0
C135 C 0.39078 0.85948 0.39376 0.0
C136 C 0.38493 0.89861 0.41605 0.0
C137 C 0.34963 0.82221 0.36738 0.0
C138 C 0.30155 0.82313 0.36297 0.0
C139 C 0.29632 0.86305 0.38455 0.0
C140 C 0.33743 0.90025 0.41099 0.0
C141 C 0.25665 0.7841 0.33542 0.0
C142 C 0.24843 0.73495 0.3261 0.0
C143 C 0.2034 0.6953 0.29895 0.0
C144 C 0.18838 0.64114 0.30237 0.0
C145 C 0.14733 0.60261 0.27669 0.0
C146 C 0.12058 0.61748 0.24676 0.0
H147 H 0.18789 0.75156 0.2641 0.0
C148 C 0.13552 0.67161 0.24315 0.0
C149 C 0.17662 0.71019 0.26882 0.0
H150 H 0.11593 0.68431 0.22004 0.0
H151 H 0.42716 0.85755 0.39673 0.0
H152 H 0.3561 0.79334 0.35014 0.0
H153 H 0.26001 0.86509 0.38138 0.0
H154 H 0.33187 0.93013 0.42761 0.0
H155 H 0.22804 0.79553 0.32452 0.0
H156 H 0.27433 0.72194 0.34045 0.0
H157 H 0.20851 0.62851 0.32502 0.0
H158 H 0.13685 0.56121 0.2801 0.0
C159 C 0.46141 0.33608 0.7545 0.0
C160 C 0.50149 0.38989 0.75129 0.0
C161 C 0.46355 0.29702 0.72917 0.0
C162 C 0.50576 0.31119 0.69985 0.0
C163 C 0.54553 0.3651 0.69665 0.0
C164 C 0.5434 0.40401 0.72195 0.0
C165 C 0.51132 0.27123 0.67335 0.0
C166 C 0.4709 0.22169 0.66447 0.0
C167 C 0.47765 0.18298 0.63727 0.0
C168 C 0.43321 0.14304 0.61497 0.0
C169 C 0.43826 0.10661 0.58843 0.0
C170 C 0.48785 0.10909 0.58401 0.0
H171 H 0.56181 0.2134 0.65153 0.0
C172 C 0.53204 0.14809 0.60718 0.0
C173 C 0.52702 0.18454 0.63366 0.0
H174 H 0.57065 0.1506 0.60477 0.0
H175 H 0.42887 0.32398 0.77714 0.0
H176 H 0.43281 0.25587 0.73361 0.0
H177 H 0.57864 0.37722 0.67457 0.0
H178 H 0.57499 0.44515 0.71882 0.0
H179 H 0.55021 0.28438 0.65904 0.0
H180 H 0.43077 0.20975 0.67526 0.0
H181 H 0.39459 0.14049 0.61754 0.0
H182 H 0.40339 0.07677 0.57115 0.0
loop_
_geom_bond_atom_site_label_1
_geom_bond_atom_site_label_2
_geom_bond_distance
_geom_bond_site_symmetry_2
_ccdc_geom_bond_type
In0 O1 2.294 1_455 S
In0 O2 2.326 1_455 S
In0 O6 2.266 . S
In0 O7 2.326 . S
In0 O8 2.266 . S
In0 O9 2.326 . S
In0 O11 2.294 1_455 S
In0 O12 2.326 1_455 S
O1 In0 2.294 1_655 S
O1 C10 1.240 . S
O2 In0 2.326 1_655 S
O2 C10 1.252 . S
C3 O6 1.252 . S
C3 O7 1.260 . S
C4 O11 1.240 . S
C4 O12 1.252 . S
C5 O8 1.252 . S
C5 O9 1.260 . S
O6 In0 2.266 . S
O6 C3 1.252 . S
O7 In0 2.326 . S
O7 C3 1.260 . S
O8 In0 2.266 . S
O8 C5 1.252 . S
O9 In0 2.326 . S
O9 C5 1.260 . S
C10 O1 1.240 . S
C10 O2 1.252 . S
O11 In0 2.294 1_655 S
O11 C4 1.240 . S
O12 In0 2.326 1_655 S
O12 C4 1.252 . S
In13 O14 2.294 . S
In13 O15 2.326 . S
In13 O19 2.266 1_545 S
In13 O20 2.326 1_545 S
In13 O21 2.266 1_545 S
In13 O22 2.326 1_545 S
In13 O24 2.294 . S
In13 O25 2.326 . S
O14 In13 2.294 . S
O14 C23 1.240 . S
O15 In13 2.326 . S
O15 C23 1.252 . S
C16 O19 1.252 . S
C16 O20 1.260 . S
C17 O24 1.240 . S
C17 O25 1.252 . S
C18 O21 1.252 . S
C18 O22 1.260 . S
O19 In13 2.266 1_565 S
O19 C16 1.252 . S
O20 In13 2.326 1_565 S
O20 C16 1.260 . S
O21 In13 2.266 1_565 S
O21 C18 1.252 . S
O22 In13 2.326 1_565 S
O22 C18 1.260 . S
C23 O14 1.240 . S
C23 O15 1.252 . S
O24 In13 2.294 . S
O24 C17 1.240 . S
O25 In13 2.326 . S
O25 C17 1.252 . S
In26 O27 2.294 . S
In26 O28 2.326 . S
In26 O32 2.266 . S
In26 O33 2.326 . S
In26 O34 2.266 . S
In26 O35 2.326 . S
In26 O37 2.294 . S
In26 O38 2.326 . S
O27 In26 2.294 . S
O27 C36 1.240 . S
O28 In26 2.326 . S
O28 C36 1.252 . S
C29 O32 1.252 . S
C29 O33 1.260 . S
C30 O37 1.240 . S
C30 O38 1.252 . S
C31 O34 1.252 . S
C31 O35 1.260 . S
O32 In26 2.266 . S
O32 C29 1.252 . S
O33 In26 2.326 . S
O33 C29 1.260 . S
O34 In26 2.266 . S
O34 C31 1.252 . S
O35 In26 2.326 . S
O35 C31 1.260 . S
C36 O27 1.240 . S
C36 O28 1.252 . S
O37 In26 2.294 . S
O37 C30 1.240 . S
O38 In26 2.326 . S
O38 C30 1.252 . S
C39 C40 1.386 . S
C39 C41 1.383 . S
C39 H55 0.951 . S
C40 C39 1.386 . S
C40 C44 1.383 . S
C41 C39 1.383 . S
C41 C42 1.402 . S
C41 H56 0.951 . S
C42 C41 1.402 . S
C42 C43 1.375 . S
C42 C45 1.481 1_556 S
C43 C42 1.375 . S
C43 C44 1.367 . S
C43 H57 0.951 . S
C44 C40 1.383 . S
C44 C43 1.367 . S
C44 H58 0.950 . S
C45 C42 1.481 1_554 S
C45 C46 1.297 . S
C45 H59 0.950 . S
C46 C45 1.297 . S
C46 C47 1.479 . S
C46 H60 0.950 . S
C47 C46 1.479 . S
C47 C48 1.375 . S
C47 C53 1.404 . S
C48 C47 1.375 . S
C48 C49 1.369 . S
C48 H61 0.950 . S
C49 C48 1.369 . S
C49 C50 1.392 . S
C49 H62 0.951 . S
C50 C49 1.392 . S
C50 C52 1.384 . S
H51 C53 0.949 . S
C52 C50 1.384 . S
C52 C53 1.385 . S
C52 H54 0.950 . S
C53 C47 1.404 . S
C53 H51 0.949 . S
C53 C52 1.385 . S
H54 C52 0.950 . S
H55 C39 0.951 . S
H56 C41 0.951 . S
H57 C43 0.951 . S
H58 C44 0.950 . S
H59 C45 0.950 . S
H60 C46 0.950 . S
H61 C48 0.950 . S
H62 C49 0.951 . S
C63 C64 1.386 . S
C63 C65 1.383 . S
C63 H79 0.951 . S
C64 C63 1.386 . S
C64 C68 1.383 . S
C65 C63 1.383 . S
C65 C66 1.402 . S
C65 H80 0.951 . S
C66 C65 1.402 . S
C66 C67 1.375 . S
C66 C69 1.481 . S
C67 C66 1.375 . S
C67 C68 1.367 . S
C67 H81 0.951 . S
C68 C64 1.383 . S
C68 C67 1.367 . S
C68 H82 0.950 . S
C69 C66 1.481 . S
C69 C70 1.297 . S
C69 H83 0.950 . S
C70 C69 1.297 . S
C70 C71 1.479 . S
C70 H84 0.950 . S
C71 C70 1.479 . S
C71 C72 1.375 . S
C71 C77 1.404 . S
C72 C71 1.375 . S
C72 C73 1.369 . S
C72 H85 0.950 . S
C73 C72 1.369 . S
C73 C74 1.392 . S
C73 H86 0.951 . S
C74 C73 1.392 . S
C74 C76 1.384 . S
H75 C77 0.949 . S
C76 C74 1.384 . S
C76 C77 1.385 . S
C76 H78 0.950 . S
C77 C71 1.404 . S
C77 H75 0.949 . S
C77 C76 1.385 . S
H78 C76 0.950 . S
H79 C63 0.951 . S
H80 C65 0.951 . S
H81 C67 0.951 . S
H82 C68 0.950 . S
H83 C69 0.950 . S
H84 C70 0.950 . S
H85 C72 0.950 . S
H86 C73 0.951 . S
C87 C88 1.386 . S
C87 C89 1.383 . S
C87 H103 0.951 . S
C88 C87 1.386 . S
C88 C92 1.383 . S
C89 C87 1.383 . S
C89 C90 1.402 . S
C89 H104 0.951 . S
C90 C89 1.402 . S
C90 C91 1.375 . S
C90 C93 1.481 . S
C91 C90 1.375 . S
C91 C92 1.367 . S
C91 H105 0.951 . S
C92 C88 1.383 . S
C92 C91 1.367 . S
C92 H106 0.950 . S
C93 C90 1.481 . S
C93 C94 1.297 . S
C93 H107 0.950 . S
C94 C93 1.297 . S
C94 C95 1.479 . S
C94 H108 0.950 . S
C95 C94 1.479 . S
C95 C96 1.375 . S
C95 C101 1.404 . S
C96 C95 1.375 . S
C96 C97 1.369 . S
C96 H109 0.950 . S
C97 C96 1.369 . S
C97 C98 1.392 . S
C97 H110 0.951 . S
C98 C97 1.392 . S
C98 C100 1.384 . S
H99 C101 0.949 . S
C100 C98 1.384 . S
C100 C101 1.385 . S
C100 H102 0.950 . S
C101 C95 1.404 . S
C101 H99 0.949 . S
C101 C100 1.385 . S
H102 C100 0.950 . S
H103 C87 0.951 . S
H104 C89 0.951 . S
H105 C91 0.951 . S
H106 C92 0.950 . S
H107 C93 0.950 . S
H108 C94 0.950 . S
H109 C96 0.950 . S
H110 C97 0.951 . S
C111 C112 1.386 . S
C111 C113 1.383 . S
C111 H127 0.951 . S
C112 C111 1.386 . S
C112 C116 1.383 . S
C113 C111 1.383 . S
C113 C114 1.402 . S
C113 H128 0.951 . S
C114 C113 1.402 . S
C114 C115 1.375 . S
C114 C117 1.481 1_556 S
C115 C114 1.375 . S
C115 C116 1.367 . S
C115 H129 0.951 . S
C116 C112 1.383 . S
C116 C115 1.367 . S
C116 H130 0.950 . S
C117 C114 1.481 1_554 S
C117 C118 1.297 . S
C117 H131 0.950 . S
C118 C117 1.297 . S
C118 C119 1.479 . S
C118 H132 0.950 . S
C119 C118 1.479 . S
C119 C120 1.375 . S
C119 C125 1.404 . S
C120 C119 1.375 . S
C120 C121 1.369 . S
C120 H133 0.950 . S
C121 C120 1.369 . S
C121 C122 1.392 . S
C121 H134 0.951 . S
C122 C121 1.392 . S
C122 C124 1.384 . S
H123 C125 0.949 . S
C124 C122 1.384 . S
C124 C125 1.385 . S
C124 H126 0.950 . S
C125 C119 1.404 . S
C125 H123 0.949 . S
C125 C124 1.385 . S
H126 C124 0.950 . S
H127 C111 0.951 . S
H128 C113 0.951 . S
H129 C115 0.951 . S
H130 C116 0.950 . S
H131 C117 0.950 . S
H132 C118 0.950 . S
H133 C120 0.950 . S
H134 C121 0.951 . S
C135 C136 1.386 . S
C135 C137 1.383 . S
C135 H151 0.951 . S
C136 C135 1.386 . S
C136 C140 1.383 . S
C137 C135 1.383 . S
C137 C138 1.402 . S
C137 H152 0.951 . S
C138 C137 1.402 . S
C138 C139 1.375 . S
C138 C141 1.481 . S
C139 C138 1.375 . S
C139 C140 1.367 . S
C139 H153 0.951 . S
C140 C136 1.383 . S
C140 C139 1.367 . S
C140 H154 0.950 . S
C141 C138 1.481 . S
C141 C142 1.297 . S
C141 H155 0.950 . S
C142 C141 1.297 . S
C142 C143 1.479 . S
C142 H156 0.950 . S
C143 C142 1.479 . S
C143 C144 1.375 . S
C143 C149 1.404 . S
C144 C143 1.375 . S
C144 C145 1.369 . S
C144 H157 0.950 . S
C145 C144 1.369 . S
C145 C146 1.392 . S
C145 H158 0.951 . S
C146 C145 1.392 . S
C146 C148 1.384 . S
H147 C149 0.949 . S
C148 C146 1.384 . S
C148 C149 1.385 . S
C148 H150 0.950 . S
C149 C143 1.404 . S
C149 H147 0.949 . S
C149 C148 1.385 . S
H150 C148 0.950 . S
H151 C135 0.951 . S
H152 C137 0.951 . S
H153 C139 0.951 . S
H154 C140 0.950 . S
H155 C141 0.950 . S
H156 C142 0.950 . S
H157 C144 0.950 . S
H158 C145 0.951 . S
C159 C160 1.386 . S
C159 C161 1.383 . S
C159 H175 0.951 . S
C160 C159 1.386 . S
C160 C164 1.383 . S
C161 C159 1.383 . S
C161 C162 1.402 . S
C161 H176 0.951 . S
C162 C161 1.402 . S
C162 C163 1.375 . S
C162 C165 1.481 . S
C163 C162 1.375 . S
C163 C164 1.367 . S
C163 H177 0.951 . S
C164 C160 1.383 . S
C164 C163 1.367 . S
C164 H178 0.950 . S
C165 C162 1.481 . S
C165 C166 1.297 . S
C165 H179 0.950 . S
C166 C165 1.297 . S
C166 C167 1.479 . S
C166 H180 0.950 . S
C167 C166 1.479 . S
C167 C168 1.375 . S
C167 C173 1.404 . S
C168 C167 1.375 . S
C168 C169 1.369 . S
C168 H181 0.950 . S
C169 C168 1.369 . S
C169 C170 1.392 . S
C169 H182 0.951 . S
C170 C169 1.392 . S
C170 C172 1.384 . S
H171 C173 0.949 . S
C172 C170 1.384 . S
C172 C173 1.385 . S
C172 H174 0.950 . S
C173 C167 1.404 . S
C173 H171 0.949 . S
C173 C172 1.385 . S
H174 C172 0.950 . S
H175 C159 0.951 . S
H176 C161 0.951 . S
H177 C163 0.951 . S
H178 C164 0.950 . S
H179 C165 0.950 . S
H180 C166 0.950 . S
H181 C168 0.950 . S
H182 C169 0.951 . S
C40 C30 1.553 . S
C50 C3 1.542 . S
C64 C10 1.547 . S
C74 C23 1.532 . S
C88 C16 1.552 . S
C98 C36 1.548 . S
C112 C29 1.551 . S
C122 C4 1.537 . S
C136 C18 1.558 . S
C146 C5 1.551 . S
C160 C31 1.551 . S
C170 C17 1.538 . S
