# Generated by pormake.
# Topology qdl, (4)-cn, num edge types: 1
# Building blocks:
#     Node 0, Type 0, BuildingBlock: NAWXER_clean_sbu_0, # of connection points: 4
#     Node 1, Type 0, BuildingBlock: NAWXER_clean_sbu_0, # of connection points: 4
#     Node 2, Type 0, BuildingBlock: NAWXER_clean_sbu_0, # of connection points: 4
#     Node 3, Type 0, BuildingBlock: NAWXER_clean_sbu_0, # of connection points: 4
#     Node 4, Type 0, BuildingBlock: NAWXER_clean_sbu_0, # of connection points: 4
#     Node 5, Type 0, BuildingBlock: NAWXER_clean_sbu_0, # of connection points: 4
#     Edge 6, Type (0, 0), BuildingBlock: EYOCIG_clean_linker_4, # of connection points: 2
#     Edge 7, Type (0, 0), BuildingBlock: EYOCIG_clean_linker_4, # of connection points: 2
#     Edge 8, Type (0, 0), BuildingBlock: EYOCIG_clean_linker_4, # of connection points: 2
#     Edge 9, Type (0, 0), BuildingBlock: EYOCIG_clean_linker_4, # of connection points: 2
#     Edge 10, Type (0, 0), BuildingBlock: EYOCIG_clean_linker_4, # of connection points: 2
#     Edge 11, Type (0, 0), BuildingBlock: EYOCIG_clean_linker_4, # of connection points: 2
#     Edge 12, Type (0, 0), BuildingBlock: EYOCIG_clean_linker_4, # of connection points: 2
#     Edge 13, Type (0, 0), BuildingBlock: EYOCIG_clean_linker_4, # of connection points: 2
#     Edge 14, Type (0, 0), BuildingBlock: EYOCIG_clean_linker_4, # of connection points: 2
#     Edge 15, Type (0, 0), BuildingBlock: EYOCIG_clean_linker_4, # of connection points: 2
#     Edge 16, Type (0, 0), BuildingBlock: EYOCIG_clean_linker_4, # of connection points: 2
#     Edge 17, Type (0, 0), BuildingBlock: EYOCIG_clean_linker_4, # of connection points: 2
# Relax obj value: 0.000
# Max RMSD: 0.021
# Mean RMSD: 0.019
data_MOF--net-qdl--node1-NAWXER_clean_sbu_0--edge1-EYOCIG_clean_linker_4
_symmetry_space_group_name_H-M    P1
_symmetry_Int_Tables_number       1
_symmetry_cell_setting            triclinic
loop_
_symmetry_equiv_pos_as_xyz
'x, y, z'
_cell_length_a     11.887525
_cell_length_b     11.887185
_cell_length_c     71.16932
_cell_angle_alpha  95.050856
_cell_angle_beta   94.997451
_cell_angle_gamma 120.11415
loop_
_atom_site_label
_atom_site_type_symbol
_atom_site_fract_x
_atom_site_fract_y
_atom_site_fract_z
_atom_type_partial_charge
C0 C 0.13864 0.91877 0.08065 0.0
C1 C 0.13793 0.35814 0.08415 0.0
O2 O 0.24765 0.02677 0.08284 0.0
Zn3 Zn 0.28113 0.21176 0.08519 0.0
O4 O 0.03004 0.9158 0.0791 0.0
Zn5 Zn -0.00266 0.06618 0.0802 0.0
O6 O 0.0235 0.07963 0.05284 0.0
O7 O 0.2411 0.19161 0.05646 0.0
O8 O 0.02945 0.24992 0.08216 0.0
O9 O 0.24709 0.36202 0.08592 0.0
O10 O 0.25402 0.1991 0.11276 0.0
O11 O 0.03635 0.08757 0.1087 0.0
C12 C 0.12984 0.13632 0.04589 0.0
C13 C 0.14656 0.14293 0.11948 0.0
C14 C 0.26769 0.00128 0.41431 0.0
C15 C 0.82873 0.00259 0.41092 0.0
O16 O 0.15906 0.89276 0.411 0.0
Zn17 Zn 0.97666 0.8636 0.40853 0.0
O18 O 0.27184 0.11032 0.41723 0.0
Zn19 Zn 0.12318 0.14698 0.41683 0.0
O20 O 0.10373 0.10817 0.44357 0.0
O21 O 0.9905 0.89063 0.43731 0.0
O22 O 0.93721 0.11145 0.4143 0.0
O23 O 0.82507 0.89395 0.40791 0.0
O24 O 4e-05 0.90839 0.3818 0.0
O25 O 0.11203 0.12582 0.3884 0.0
C26 C 0.04391 -0.00326 0.44907 0.0
C27 C 0.05994 0.02069 0.3765 0.0
C28 C 0.02078 0.11564 0.78365 0.0
C29 C 0.98636 0.06036 0.70944 0.0
O30 O 0.96335 0.1633 0.77421 0.0
Zn31 Zn 0.93292 0.15736 0.74568 0.0
O32 O 0.07138 0.05662 0.77541 0.0
Zn33 Zn 0.07458 0.01844 0.7474 0.0
O34 O 0.22653 0.20249 0.74883 0.0
O35 O 0.11827 0.30892 0.7475 0.0
O36 O 0.04344 0.01308 0.71901 0.0
O37 O 0.93533 0.11956 0.71753 0.0
O38 O 0.78178 0.97257 0.74474 0.0
O39 O 0.89055 0.86664 0.74607 0.0
C40 C 0.22503 0.30825 0.74852 0.0
C41 C 0.78385 0.86721 0.74531 0.0
C42 C 0.00461 0.00651 0.61558 0.0
C43 C -0.00336 0.99153 0.54199 0.0
O44 O 0.06158 0.11324 0.60874 0.0
Zn45 Zn 0.0742 0.13811 0.58134 0.0
O46 O 0.94939 0.89558 0.60492 0.0
Zn47 Zn 0.92883 0.85453 0.57618 0.0
O48 O 0.11155 0.88477 0.57828 0.0
O49 O 0.22354 0.10243 0.5822 0.0
O50 O 0.94129 0.88405 0.5487 0.0
O51 O 0.05275 0.10175 0.55279 0.0
O52 O 0.88831 0.1027 0.57937 0.0
O53 O 0.77727 0.88497 0.57535 0.0
C54 C 0.21978 0.99333 0.58048 0.0
C55 C 0.78034 0.99363 0.5772 0.0
C56 C 0.07627 0.15439 0.95203 0.0
C57 C 0.02726 0.12284 0.87788 0.0
O58 O 0.01713 0.20507 0.94384 0.0
Zn59 Zn 0.97885 0.20703 0.91567 0.0
O60 O 0.12398 0.09727 0.94256 0.0
Zn61 Zn 0.11885 0.06652 0.91419 0.0
O62 O 0.26987 0.25197 0.91563 0.0
O63 O 0.16239 0.35926 0.91674 0.0
O64 O 0.08444 0.07067 0.88615 0.0
O65 O 0.97777 0.17875 0.88722 0.0
O66 O 0.82665 0.02263 0.91372 0.0
O67 O 0.9337 0.91494 0.91266 0.0
C68 C 0.26828 0.35818 0.91628 0.0
C69 C 0.82764 0.91611 0.91283 0.0
C70 C 0.1321 0.09209 0.28547 0.0
C71 C 0.14685 0.09918 0.21256 0.0
O72 O 0.02534 0.03815 0.27389 0.0
Zn73 Zn -0.00016 0.023 0.24532 0.0
O74 O 0.24295 0.15053 0.27973 0.0
Zn75 Zn 0.28356 0.17061 0.25282 0.0
O76 O 0.25199 0.32137 0.25343 0.0
O77 O 0.0344 0.20854 0.24738 0.0
O78 O 0.25431 0.15406 0.22404 0.0
O79 O 0.03662 0.04068 0.21844 0.0
O80 O 0.03628 0.87413 0.24462 0.0
O81 O 0.2539 0.98799 0.25051 0.0
C82 C 0.14309 0.31722 0.25052 0.0
C83 C 0.14574 0.879 0.2473 0.0
C84 C 0.13586 0.69577 0.08122 0.0
C85 C 0.13794 0.79801 0.08098 0.0
C86 C 0.13517 0.57743 0.08222 0.0
C87 C 0.13656 0.47736 0.0831 0.0
C88 C 0.48785 -0.00074 0.41307 0.0
C89 C 0.38758 0.00069 0.41365 0.0
C90 C 0.60609 -0.00034 0.41213 0.0
C91 C 0.70806 0.00158 0.4116 0.0
C92 C 0.56491 0.64681 0.74726 0.0
C93 C 0.66459 0.74779 0.74637 0.0
C94 C 0.4475 0.52909 0.7482 0.0
C95 C 0.34578 0.42832 0.74835 0.0
C96 C 0.43975 0.99052 0.57956 0.0
C97 C 0.33948 0.99215 0.57999 0.0
C98 C 0.55798 0.99089 0.57864 0.0
C99 C 0.6599 0.9929 0.578 0.0
C100 C 0.48731 0.5783 0.91424 0.0
C101 C 0.38694 0.47809 0.91517 0.0
C102 C 0.60555 0.69503 0.91324 0.0
C103 C 0.70741 0.79558 0.91305 0.0
C104 C 0.14565 0.53937 0.24892 0.0
C105 C 0.14357 0.43747 0.24963 0.0
C106 C 0.14743 0.65833 0.24804 0.0
C107 C 0.14714 0.75935 0.24772 0.0
C108 C 0.14887 0.11682 0.17586 0.0
C109 C 0.14932 0.10948 0.19265 0.0
C110 C 0.14867 0.12737 0.15626 0.0
C111 C 0.14896 0.13512 0.13949 0.0
C112 C 0.00771 0.98902 0.50508 0.0
C113 C 0.002 0.98889 0.52191 0.0
C114 C 0.01895 0.98977 0.48551 0.0
C115 C 0.02948 0.99128 0.46883 0.0
C116 C 0.02619 0.12732 0.82098 0.0
C117 C 0.02305 0.12267 0.80393 0.0
C118 C 0.02614 0.12727 0.84082 0.0
C119 C 0.02607 0.12584 0.85774 0.0
C120 C 0.11255 0.15165 0.00907 0.0
C121 C 0.12321 0.14606 0.02592 0.0
C122 C 0.09799 0.15696 0.98932 0.0
C123 C 0.08626 0.15766 0.97234 0.0
C124 C 0.11509 0.06518 0.32169 0.0
C125 C 0.12662 0.07943 0.30527 0.0
C126 C 0.09496 0.04495 0.34065 0.0
C127 C 0.07703 0.03014 0.35688 0.0
C128 C 0.98888 0.02263 0.65239 0.0
C129 C -0.00548 0.01226 0.63554 0.0
C130 C 0.98386 0.03743 0.67215 0.0
C131 C 0.98326 0.04957 0.68914 0.0
loop_
_geom_bond_atom_site_label_1
_geom_bond_atom_site_label_2
_geom_bond_distance
_geom_bond_site_symmetry_2
_ccdc_geom_bond_type
C0 O2 1.247 1_565 S
C0 O4 1.258 . S
C1 O8 1.247 . S
C1 O9 1.258 . S
O2 C0 1.247 1_545 S
O2 Zn3 2.028 . S
Zn3 O2 2.028 . S
Zn3 O7 2.035 . S
Zn3 O9 2.035 . S
Zn3 O10 2.028 . S
O4 C0 1.258 . S
O4 Zn5 2.038 1_565 S
Zn5 O4 2.038 1_545 S
Zn5 O6 2.029 . S
Zn5 O8 2.026 . S
Zn5 O11 2.036 . S
O6 Zn5 2.029 . S
O6 C12 1.247 . S
O7 Zn3 2.035 . S
O7 C12 1.258 . S
O8 C1 1.247 . S
O8 Zn5 2.026 . S
O9 C1 1.258 . S
O9 Zn3 2.035 . S
O10 Zn3 2.028 . S
O10 C13 1.247 . S
O11 Zn5 2.036 . S
O11 C13 1.258 . S
C12 O6 1.247 . S
C12 O7 1.258 . S
C13 O10 1.247 . S
C13 O11 1.258 . S
C14 O16 1.247 1_545 S
C14 O18 1.258 . S
C15 O22 1.247 . S
C15 O23 1.258 1_545 S
O16 C14 1.247 1_565 S
O16 Zn17 2.028 1_455 S
Zn17 O16 2.028 1_655 S
Zn17 O21 2.035 . S
Zn17 O23 2.035 . S
Zn17 O24 2.027 1_655 S
O18 C14 1.258 . S
O18 Zn19 2.035 . S
Zn19 O18 2.035 . S
Zn19 O20 2.028 . S
Zn19 O22 2.028 1_455 S
Zn19 O25 2.035 . S
O20 Zn19 2.028 . S
O20 C26 1.243 1_545 S
O21 Zn17 2.035 . S
O21 C26 1.262 1_655 S
O22 C15 1.247 . S
O22 Zn19 2.028 1_655 S
O23 C15 1.258 1_565 S
O23 Zn17 2.035 . S
O24 Zn17 2.027 1_455 S
O24 C27 1.248 1_565 S
O25 Zn19 2.035 . S
O25 C27 1.258 . S
C26 O20 1.243 1_565 S
C26 O21 1.262 1_455 S
C27 O24 1.248 1_545 S
C27 O25 1.258 . S
C28 O30 1.247 1_455 S
C28 O32 1.258 . S
C29 O36 1.247 1_655 S
C29 O37 1.258 . S
O30 C28 1.247 1_655 S
O30 Zn31 2.028 . S
Zn31 O30 2.028 . S
Zn31 O35 2.035 1_655 S
Zn31 O37 2.035 . S
Zn31 O38 2.028 1_545 S
O32 C28 1.258 . S
O32 Zn33 2.035 . S
Zn33 O32 2.035 . S
Zn33 O34 2.028 . S
Zn33 O36 2.028 . S
Zn33 O39 2.035 1_445 S
O34 Zn33 2.028 . S
O34 C40 1.247 . S
O35 Zn31 2.035 1_455 S
O35 C40 1.258 . S
O36 C29 1.247 1_455 S
O36 Zn33 2.028 . S
O37 C29 1.258 . S
O37 Zn31 2.035 . S
O38 Zn31 2.028 1_565 S
O38 C41 1.247 . S
O39 Zn33 2.035 1_665 S
O39 C41 1.258 . S
C40 O34 1.247 . S
C40 O35 1.258 . S
C41 O38 1.247 . S
C41 O39 1.258 . S
C42 O44 1.247 . S
C42 O46 1.258 1_445 S
C43 O50 1.247 1_455 S
C43 O51 1.258 1_565 S
O44 C42 1.247 . S
O44 Zn45 2.028 . S
Zn45 O44 2.028 . S
Zn45 O49 2.035 . S
Zn45 O51 2.035 . S
Zn45 O52 2.028 1_455 S
O46 C42 1.258 1_665 S
O46 Zn47 2.035 . S
Zn47 O46 2.035 . S
Zn47 O48 2.028 1_655 S
Zn47 O50 2.028 . S
Zn47 O53 2.035 . S
O48 Zn47 2.028 1_455 S
O48 C54 1.243 1_565 S
O49 Zn45 2.035 . S
O49 C54 1.266 . S
O50 C43 1.247 1_655 S
O50 Zn47 2.028 . S
O51 C43 1.258 1_545 S
O51 Zn45 2.035 . S
O52 Zn45 2.028 1_655 S
O52 C55 1.247 . S
O53 Zn47 2.035 . S
O53 C55 1.258 1_565 S
C54 O48 1.243 1_545 S
C54 O49 1.266 . S
C55 O52 1.247 . S
C55 O53 1.258 1_545 S
C56 O58 1.247 . S
C56 O60 1.258 . S
C57 O64 1.247 . S
C57 O65 1.258 1_455 S
O58 C56 1.247 . S
O58 Zn59 2.028 1_455 S
Zn59 O58 2.028 1_655 S
Zn59 O63 2.035 1_655 S
Zn59 O65 2.035 . S
Zn59 O66 2.028 . S
O60 C56 1.258 . S
O60 Zn61 2.035 . S
Zn61 O60 2.035 . S
Zn61 O62 2.028 . S
Zn61 O64 2.028 . S
Zn61 O67 2.035 1_445 S
O62 Zn61 2.028 . S
O62 C68 1.247 . S
O63 Zn59 2.035 1_455 S
O63 C68 1.258 . S
O64 C57 1.247 . S
O64 Zn61 2.028 . S
O65 C57 1.258 1_655 S
O65 Zn59 2.035 . S
O66 Zn59 2.028 . S
O66 C69 1.247 1_545 S
O67 Zn61 2.035 1_665 S
O67 C69 1.258 . S
C68 O62 1.247 . S
C68 O63 1.258 . S
C69 O66 1.247 1_565 S
C69 O67 1.258 . S
C70 O72 1.247 . S
C70 O74 1.258 . S
C71 O78 1.247 . S
C71 O79 1.258 . S
O72 C70 1.247 . S
O72 Zn73 2.028 . S
Zn73 O72 2.028 . S
Zn73 O77 2.035 . S
Zn73 O79 2.035 . S
Zn73 O80 2.028 1_545 S
O74 C70 1.258 . S
O74 Zn75 2.035 . S
Zn75 O74 2.035 . S
Zn75 O76 2.028 . S
Zn75 O78 2.028 . S
Zn75 O81 2.035 1_545 S
O76 Zn75 2.028 . S
O76 C82 1.247 . S
O77 Zn73 2.035 . S
O77 C82 1.258 . S
O78 C71 1.247 . S
O78 Zn75 2.028 . S
O79 C71 1.258 . S
O79 Zn73 2.035 . S
O80 Zn73 2.028 1_565 S
O80 C83 1.247 . S
O81 Zn75 2.035 1_565 S
O81 C83 1.258 . S
C82 O76 1.247 . S
C82 O77 1.258 . S
C83 O80 1.247 . S
C83 O81 1.258 . S
C84 C85 1.170 . S
C84 C86 1.380 . S
C85 C84 1.170 . S
C86 C84 1.380 . S
C86 C87 1.170 . S
C87 C86 1.170 . S
C88 C89 1.170 1_565 S
C88 C90 1.380 . S
C89 C88 1.170 1_545 S
C90 C88 1.380 . S
C90 C91 1.170 1_565 S
C91 C90 1.170 1_545 S
C92 C93 1.170 . S
C92 C94 1.380 . S
C93 C92 1.170 . S
C94 C92 1.380 . S
C94 C95 1.170 . S
C95 C94 1.170 . S
C96 C97 1.170 . S
C96 C98 1.380 . S
C97 C96 1.170 . S
C98 C96 1.380 . S
C98 C99 1.170 . S
C99 C98 1.170 . S
C100 C101 1.170 . S
C100 C102 1.380 . S
C101 C100 1.170 . S
C102 C100 1.380 . S
C102 C103 1.170 . S
C103 C102 1.170 . S
C104 C105 1.170 . S
C104 C106 1.380 . S
C105 C104 1.170 . S
C106 C104 1.380 . S
C106 C107 1.170 . S
C107 C106 1.170 . S
C108 C109 1.170 . S
C108 C110 1.380 . S
C109 C108 1.170 . S
C110 C108 1.380 . S
C110 C111 1.170 . S
C111 C110 1.170 . S
C112 C113 1.170 . S
C112 C114 1.381 . S
C113 C112 1.170 . S
C114 C112 1.381 . S
C114 C115 1.170 . S
C115 C114 1.170 . S
C116 C117 1.170 . S
C116 C118 1.380 . S
C117 C116 1.170 . S
C118 C116 1.380 . S
C118 C119 1.170 . S
C119 C118 1.170 . S
C120 C121 1.170 . S
C120 C122 1.380 1_554 S
C121 C120 1.170 . S
C122 C120 1.380 1_556 S
C122 C123 1.170 . S
C123 C122 1.170 . S
C124 C125 1.170 . S
C124 C126 1.380 . S
C125 C124 1.170 . S
C126 C124 1.380 . S
C126 C127 1.170 . S
C127 C126 1.170 . S
C128 C129 1.170 . S
C128 C130 1.380 . S
C129 C128 1.170 . S
C130 C128 1.380 . S
C130 C131 1.170 . S
C131 C130 1.170 . S
C85 C0 1.493 . S
C87 C1 1.498 . S
C89 C14 1.497 . S
C91 C15 1.498 . S
C93 C41 1.500 . S
C95 C40 1.494 . S
C97 C54 1.492 1_565 S
C99 C55 1.499 1_565 S
C101 C68 1.499 . S
C103 C69 1.493 . S
C105 C82 1.499 . S
C107 C83 1.496 . S
C109 C71 1.501 . S
C111 C13 1.502 . S
C113 C43 1.498 . S
C115 C26 1.505 . S
C117 C28 1.499 . S
C119 C57 1.504 . S
C121 C12 1.508 . S
C123 C56 1.501 . S
C125 C70 1.504 . S
C127 C27 1.504 . S
C129 C42 1.508 1_655 S
C131 C29 1.501 . S
