# Generated by pormake.
# Topology rob, (6)-cn, num edge types: 1
# Building blocks:
#     Node 0, Type 0, BuildingBlock: VOLQOD_clean_sbu_1, # of connection points: 6
#     Node 1, Type 0, BuildingBlock: VOLQOD_clean_sbu_1, # of connection points: 6
#     Node 2, Type 0, BuildingBlock: VOLQOD_clean_sbu_1, # of connection points: 6
#     Node 3, Type 0, BuildingBlock: VOLQOD_clean_sbu_1, # of connection points: 6
#     Edge 4, Type (0, 0), None
#     Edge 5, Type (0, 0), None
#     Edge 6, Type (0, 0), None
#     Edge 7, Type (0, 0), None
#     Edge 8, Type (0, 0), None
#     Edge 9, Type (0, 0), None
#     Edge 10, Type (0, 0), None
#     Edge 11, Type (0, 0), None
#     Edge 12, Type (0, 0), None
#     Edge 13, Type (0, 0), None
#     Edge 14, Type (0, 0), None
#     Edge 15, Type (0, 0), None
# Relax obj value: 0.385
# Max RMSD: 0.276
# Mean RMSD: 0.276
data_MOF--net-rob--node1-VOLQOD_clean_sbu_1--edge1-none
_symmetry_space_group_name_H-M    P1
_symmetry_Int_Tables_number       1
_symmetry_cell_setting            triclinic
loop_
_symmetry_equiv_pos_as_xyz
'x, y, z'
_cell_length_a     10.453019
_cell_length_b     14.177095
_cell_length_c     12.798606
_cell_angle_alpha  90.872907
_cell_angle_beta   89.882324
_cell_angle_gamma 90.421306
loop_
_atom_site_label
_atom_site_type_symbol
_atom_site_fract_x
_atom_site_fract_y
_atom_site_fract_z
_atom_type_partial_charge
O0 O 0.22937 0.51661 0.01191 0.0
Zn1 Zn 0.0826 0.4167 -0.0035 0.0
O2 O 0.1658 0.28962 0.00077 0.0
Zn3 Zn 0.11716 0.20847 0.88794 0.0
Zn4 Zn 0.34909 0.29327 -0.00019 0.0
Zn5 Zn 0.11155 0.22919 0.12719 0.0
O6 O -1e-05 0.10373 0.9319 0.0
O7 O -0.03769 0.13613 0.09967 0.0
O8 O -0.02303 0.43143 0.85554 0.0
O9 O 0.01507 0.28589 0.79933 0.0
O10 O 0.25949 0.1649 0.79418 0.0
O11 O 0.42365 0.23765 0.86995 0.0
O12 O 0.42203 0.22538 0.11918 0.0
O13 O -0.0445 0.42304 0.12357 0.0
O14 O 0.25486 0.16433 0.20127 0.0
O15 O 0.06572 0.33238 0.22792 0.0
C16 C 0.35136 0.5075 0.0173 0.0
C17 C -0.06305 0.09003 0.01554 0.0
C18 C 0.37754 0.18641 0.79687 0.0
C19 C -0.03536 0.36572 0.78628 0.0
C20 C 0.37509 0.17573 0.19166 0.0
C21 C -0.02435 0.3902 0.21472 0.0
O22 O 0.40516 0.42742 0.01121 0.0
O23 O 0.72938 1.0166 0.01191 0.0
Zn24 Zn 0.58261 0.9167 -0.0035 0.0
O25 O 0.6658 0.78961 0.00077 0.0
Zn26 Zn 0.61717 0.70847 0.88793 0.0
Zn27 Zn 0.84909 0.79326 -0.00019 0.0
Zn28 Zn 0.61154 0.72918 0.12719 0.0
O29 O 0.49998 0.60374 0.93188 0.0
O30 O 0.4623 0.63612 0.09965 0.0
O31 O 0.47699 0.93143 0.85553 0.0
O32 O 0.5151 0.7859 0.79932 0.0
O33 O 0.7595 0.6649 0.79417 0.0
O34 O -0.07634 0.73764 0.86996 0.0
O35 O -0.07797 0.72537 0.11918 0.0
O36 O 0.4555 0.92303 0.12356 0.0
O37 O 0.75485 0.66433 0.20127 0.0
O38 O 0.56571 0.83237 0.22791 0.0
C39 C 0.85137 1.00749 0.01734 0.0
C40 C 0.43693 0.59006 0.0155 0.0
C41 C 0.87756 0.68641 0.79687 0.0
C42 C 0.46467 0.86572 0.78627 0.0
C43 C 0.87508 0.67572 0.19167 0.0
C44 C 0.47565 0.89019 0.21471 0.0
O45 O 0.90517 0.92741 0.01123 0.0
O46 O 0.08068 0.99404 0.4946 0.0
Zn47 Zn 0.23511 0.90417 0.4987 0.0
O48 O 0.16314 0.77146 0.49004 0.0
Zn49 Zn 0.21304 0.69848 0.60798 0.0
Zn50 Zn -0.02268 0.76646 0.48998 0.0
Zn51 Zn 0.22062 0.70443 0.36571 0.0
O52 O 0.32616 0.58861 0.57154 0.0
O53 O 0.33825 0.59517 0.3984 0.0
O54 O 0.34643 0.92695 0.63619 0.0
O55 O 0.31931 0.78095 0.69044 0.0
O56 O 0.07182 0.66711 0.70768 0.0
O57 O 0.90268 0.71561 0.62058 0.0
O58 O 0.90422 0.69583 0.36888 0.0
O59 O 0.35158 0.92711 0.36811 0.0
O60 O 0.07535 0.66752 0.2714 0.0
O61 O 0.32277 0.7917 0.28139 0.0
C62 C -0.04001 0.97987 0.48491 0.0
C63 C 0.37216 0.55978 0.48484 0.0
C64 C -0.04786 0.67995 0.70109 0.0
C65 C 0.36663 0.8626 0.70316 0.0
C66 C -0.04531 0.66719 0.28407 0.0
C67 C 0.36887 0.87459 0.28702 0.0
O68 O 0.91104 0.89762 0.48091 0.0
O69 O 0.58067 0.49404 0.4946 0.0
Zn70 Zn 0.73511 0.40417 0.4987 0.0
O71 O 0.66314 0.27146 0.49004 0.0
Zn72 Zn 0.71303 0.19847 0.60798 0.0
Zn73 Zn 0.47731 0.26646 0.48998 0.0
Zn74 Zn 0.72062 0.20443 0.36571 0.0
O75 O 0.82615 0.08861 0.57155 0.0
O76 O 0.83826 0.09517 0.39841 0.0
O77 O 0.84642 0.42694 0.6362 0.0
O78 O 0.81929 0.28095 0.69045 0.0
O79 O 0.5718 0.16711 0.70768 0.0
O80 O 0.40267 0.21562 0.62058 0.0
O81 O 0.40422 0.19583 0.36888 0.0
O82 O 0.85158 0.42711 0.36812 0.0
O83 O 0.57535 0.16752 0.2714 0.0
O84 O 0.82278 0.2917 0.2814 0.0
C85 C 0.45999 0.47987 0.48489 0.0
C86 C 0.87217 0.05978 0.48485 0.0
C87 C 0.45212 0.17995 0.70109 0.0
C88 C 0.86661 0.36259 0.70317 0.0
C89 C 0.4547 0.16719 0.28406 0.0
C90 C 0.86887 0.3746 0.28703 0.0
O91 O 0.41103 0.39762 0.4809 0.0
loop_
_geom_bond_atom_site_label_1
_geom_bond_atom_site_label_2
_geom_bond_distance
_geom_bond_site_symmetry_2
_ccdc_geom_bond_type
O0 Zn1 1.953 . S
O0 C16 1.225 1_556 S
Zn1 O0 1.953 . S
Zn1 O2 1.949 1_556 S
Zn1 O8 1.919 1_455 S
Zn1 O13 1.924 1_456 S
O2 Zn1 1.949 1_554 S
O2 Zn3 1.923 1_554 S
O2 Zn4 1.950 . S
O2 Zn5 1.945 . S
Zn3 O2 1.923 1_556 S
Zn3 O6 1.933 . S
Zn3 O9 1.941 . S
Zn3 O10 1.965 . S
Zn4 O2 1.950 . S
Zn4 O11 1.938 1_554 S
Zn4 O12 1.906 . S
Zn4 O22 1.953 . S
Zn5 O2 1.945 . S
Zn5 O7 1.932 . S
Zn5 O14 1.977 . S
Zn5 O15 1.910 . S
O6 Zn3 1.933 . S
O6 C17 1.226 1_556 S
O7 Zn5 1.932 . S
O7 C17 1.307 . S
O8 Zn1 1.919 1_655 S
O8 C19 1.253 . S
O9 Zn3 1.941 . S
O9 C19 1.283 1_455 S
O10 Zn3 1.965 . S
O10 C18 1.303 . S
O11 Zn4 1.938 1_556 S
O11 C18 1.247 . S
O12 Zn4 1.906 . S
O12 C20 1.304 . S
O13 Zn1 1.924 1_654 S
O13 C21 1.311 . S
O14 Zn5 1.977 . S
O14 C20 1.272 . S
O15 Zn5 1.910 . S
O15 C21 1.231 1_455 S
C16 O0 1.225 1_554 S
C16 O22 1.298 . S
C17 O6 1.226 1_554 S
C17 O7 1.307 . S
C18 O10 1.303 . S
C18 O11 1.247 . S
C19 O8 1.253 . S
C19 O9 1.283 1_655 S
C20 O12 1.304 . S
C20 O14 1.272 . S
C21 O13 1.311 . S
C21 O15 1.231 1_655 S
O22 Zn4 1.953 . S
O22 C16 1.298 . S
O23 Zn24 1.953 . S
O23 C39 1.225 1_556 S
Zn24 O23 1.953 . S
Zn24 O25 1.949 1_556 S
Zn24 O31 1.919 . S
Zn24 O36 1.924 1_556 S
O25 Zn24 1.949 1_554 S
O25 Zn26 1.923 1_554 S
O25 Zn27 1.950 . S
O25 Zn28 1.945 . S
Zn26 O25 1.923 1_556 S
Zn26 O29 1.933 . S
Zn26 O32 1.941 . S
Zn26 O33 1.965 . S
Zn27 O25 1.950 . S
Zn27 O34 1.938 1_654 S
Zn27 O35 1.906 1_655 S
Zn27 O45 1.953 . S
Zn28 O25 1.945 . S
Zn28 O30 1.932 . S
Zn28 O37 1.977 . S
Zn28 O38 1.910 . S
O29 Zn26 1.933 . S
O29 C40 1.226 1_556 S
O30 Zn28 1.932 . S
O30 C40 1.307 . S
O31 Zn24 1.919 . S
O31 C42 1.253 . S
O32 Zn26 1.941 . S
O32 C42 1.283 . S
O33 Zn26 1.965 . S
O33 C41 1.303 1_655 S
O34 Zn27 1.938 1_456 S
O34 C41 1.247 . S
O35 Zn27 1.906 1_455 S
O35 C43 1.304 1_455 S
O36 Zn24 1.924 1_554 S
O36 C44 1.311 . S
O37 Zn28 1.977 . S
O37 C43 1.272 . S
O38 Zn28 1.910 . S
O38 C44 1.231 . S
C39 O23 1.225 1_554 S
C39 O45 1.298 . S
C40 O29 1.226 1_554 S
C40 O30 1.307 . S
C41 O33 1.303 1_455 S
C41 O34 1.247 . S
C42 O31 1.253 . S
C42 O32 1.283 . S
C43 O35 1.304 1_655 S
C43 O37 1.272 . S
C44 O36 1.311 . S
C44 O38 1.231 . S
O45 Zn27 1.953 . S
O45 C39 1.298 . S
O46 Zn47 1.953 . S
O46 C62 1.225 . S
Zn47 O46 1.953 . S
Zn47 O48 1.949 . S
Zn47 O54 1.919 . S
Zn47 O59 1.924 . S
O48 Zn47 1.949 . S
O48 Zn49 1.923 . S
O48 Zn50 1.950 . S
O48 Zn51 1.945 . S
Zn49 O48 1.923 . S
Zn49 O52 1.933 . S
Zn49 O55 1.941 . S
Zn49 O56 1.965 . S
Zn50 O48 1.950 . S
Zn50 O57 1.938 1_455 S
Zn50 O58 1.906 1_455 S
Zn50 O68 1.953 . S
Zn51 O48 1.945 . S
Zn51 O53 1.932 . S
Zn51 O60 1.977 . S
Zn51 O61 1.910 . S
O52 Zn49 1.933 . S
O52 C63 1.226 . S
O53 Zn51 1.932 . S
O53 C63 1.307 . S
O54 Zn47 1.919 . S
O54 C65 1.253 . S
O55 Zn49 1.941 . S
O55 C65 1.283 . S
O56 Zn49 1.965 . S
O56 C64 1.303 1_455 S
O57 Zn50 1.938 1_655 S
O57 C64 1.247 . S
O58 Zn50 1.906 1_655 S
O58 C66 1.304 1_655 S
O59 Zn47 1.924 . S
O59 C67 1.311 . S
O60 Zn51 1.977 . S
O60 C66 1.272 . S
O61 Zn51 1.910 . S
O61 C67 1.231 . S
C62 O46 1.225 . S
C62 O68 1.298 . S
C63 O52 1.226 . S
C63 O53 1.307 . S
C64 O56 1.303 1_655 S
C64 O57 1.247 . S
C65 O54 1.253 . S
C65 O55 1.283 . S
C66 O58 1.304 1_455 S
C66 O60 1.272 . S
C67 O59 1.311 . S
C67 O61 1.231 . S
O68 Zn50 1.953 . S
O68 C62 1.298 . S
O69 Zn70 1.953 . S
O69 C85 1.225 . S
Zn70 O69 1.953 . S
Zn70 O71 1.949 . S
Zn70 O77 1.919 1_655 S
Zn70 O82 1.924 1_655 S
O71 Zn70 1.949 . S
O71 Zn72 1.923 . S
O71 Zn73 1.950 . S
O71 Zn74 1.945 . S
Zn72 O71 1.923 . S
Zn72 O75 1.933 . S
Zn72 O78 1.941 . S
Zn72 O79 1.965 . S
Zn73 O71 1.950 . S
Zn73 O80 1.938 . S
Zn73 O81 1.906 . S
Zn73 O91 1.953 . S
Zn74 O71 1.945 . S
Zn74 O76 1.932 . S
Zn74 O83 1.977 . S
Zn74 O84 1.910 . S
O75 Zn72 1.933 . S
O75 C86 1.226 . S
O76 Zn74 1.932 . S
O76 C86 1.307 . S
O77 Zn70 1.919 1_455 S
O77 C88 1.253 . S
O78 Zn72 1.941 . S
O78 C88 1.283 1_655 S
O79 Zn72 1.965 . S
O79 C87 1.303 . S
O80 Zn73 1.938 . S
O80 C87 1.247 . S
O81 Zn73 1.906 . S
O81 C89 1.304 . S
O82 Zn70 1.924 1_455 S
O82 C90 1.311 . S
O83 Zn74 1.977 . S
O83 C89 1.272 . S
O84 Zn74 1.910 . S
O84 C90 1.231 1_655 S
C85 O69 1.225 . S
C85 O91 1.298 . S
C86 O75 1.226 . S
C86 O76 1.307 . S
C87 O79 1.303 . S
C87 O80 1.247 . S
C88 O77 1.253 . S
C88 O78 1.283 1_455 S
C89 O81 1.304 . S
C89 O83 1.272 . S
C90 O82 1.311 . S
C90 O84 1.231 1_455 S
O91 Zn73 1.953 . S
O91 C85 1.298 . S
C40 C16 2.372 . S
C63 C85 2.372 . S
C17 C39 2.372 1_445 S
C86 C62 2.372 1_645 S
C89 C20 1.094 . S
C44 C67 1.477 . S
C42 C65 1.052 . S
C87 C18 1.709 . S
C43 C66 1.094 1_655 S
C90 C21 1.477 1_455 S
C88 C19 1.051 1_455 S
C64 C41 1.709 1_655 S
