# Generated by pormake.
# Topology pcu, (6)-cn, num edge types: 1
# Building blocks:
#     Node 0, Type 0, BuildingBlock: BETFAJ_clean_sbu_0, # of connection points: 6
#     Edge 1, Type (0, 0), BuildingBlock: OJICUG_clean_linker_0, # of connection points: 2
#     Edge 2, Type (0, 0), BuildingBlock: OJICUG_clean_linker_0, # of connection points: 2
#     Edge 3, Type (0, 0), BuildingBlock: OJICUG_clean_linker_0, # of connection points: 2
# Relax obj value: 0.000
# Max RMSD: 0.000
# Mean RMSD: 0.000
data_MOF--net-pcu--node1-BETFAJ_clean_sbu_0--edge1-OJICUG_clean_linker_0
_symmetry_space_group_name_H-M    P1
_symmetry_Int_Tables_number       1
_symmetry_cell_setting            triclinic
loop_
_symmetry_equiv_pos_as_xyz
'x, y, z'
_cell_length_a     21.308909
_cell_length_b     11.484027
_cell_length_c     10.590064
_cell_angle_alpha  87.490125
_cell_angle_beta   95.127905
_cell_angle_gamma 123.98233
loop_
_atom_site_label
_atom_site_type_symbol
_atom_site_fract_x
_atom_site_fract_y
_atom_site_fract_z
_atom_type_partial_charge
Sm0 Sm 0.95006 0.88685 0.0119 0.0
Sm1 Sm 0.12068 0.06696 1.00485 0.0
C2 C 0.80658 0.7807 0.05614 0.0
C3 C 0.75226 0.8239 0.0465 0.0
C4 C 0.77042 0.94935 0.10182 0.0
C5 C 0.71789 -0.01288 0.09225 0.0
C6 C 0.64575 0.90032 0.02733 0.0
C7 C 0.62789 0.77478 0.97217 0.0
C8 C 0.68044 0.73718 0.98177 0.0
C9 C 0.99857 0.92766 0.77115 0.0
C10 C 0.04059 0.23178 1.00176 0.0
C11 C 0.26431 0.17341 0.96138 0.0
C12 C 0.31862 0.1302 0.97089 0.0
C13 C 0.30045 0.00478 0.91548 0.0
C14 C 0.35296 0.96697 0.925 0.0
C15 C 0.4251 0.05369 0.98997 0.0
C16 C 0.44297 0.17921 0.0452 0.0
C17 C 0.39043 0.21685 0.03565 0.0
C18 C 0.07173 0.02598 0.24544 0.0
C19 C 1.03015 0.72205 0.01448 0.0
O20 O 0.86324 0.84136 0.14336 0.0
O21 O 0.82642 0.7615 0.94976 0.0
O22 O 1.02665 0.02163 0.8563 0.0
O23 O 0.94182 0.80957 0.8105 0.0
O24 O 0.98155 0.11158 0.03828 0.0
O25 O 0.10047 0.24077 0.96388 0.0
O26 O 0.20784 0.11332 0.87378 0.0
O27 O 0.2442 0.19184 0.06781 0.0
O28 O 0.04417 0.93206 0.16039 0.0
O29 O 0.12835 0.14427 0.20609 0.0
O30 O 0.08917 0.84228 0.97797 0.0
O31 O 0.9703 0.71305 0.05257 0.0
H32 H 0.82521 0.01843 0.15265 0.0
H33 H 0.73424 0.08535 0.13464 0.0
H34 H 0.57271 0.70406 0.92311 0.0
H35 H 0.66472 0.63946 0.93897 0.0
H36 H 0.24566 0.93576 0.86462 0.0
H37 H 0.3366 0.86876 0.88255 0.0
H38 H 0.49815 0.24989 0.09429 0.0
H39 H 0.40616 0.31454 0.07852 0.0
C40 C 0.99528 0.8664 0.41993 0.0
C41 C 0.05229 0.00038 0.37954 0.0
H42 H 0.93404 0.73853 0.57538 0.0
C43 C 0.09189 0.11047 0.4693 0.0
H44 H 0.96383 0.77951 0.35321 0.0
C45 C 0.075 0.08713 0.59664 0.0
C46 C 1.01797 0.95316 0.63703 0.0
H47 H 0.13621 0.21501 0.4412 0.0
H48 H 0.10645 0.17403 0.66334 0.0
C49 C 0.97836 0.84306 0.54727 0.0
C50 C 0.48938 0.95075 0.89667 0.0
C51 C 0.48152 0.01401 0.99964 0.0
H52 H 0.54751 0.86797 0.82344 0.0
C53 C 0.52838 0.03962 0.11177 0.0
H54 H 0.45538 0.93139 0.80802 0.0
C55 C 0.58144 0.0032 0.12063 0.0
C56 C 0.58931 0.93995 0.01766 0.0
H57 H 0.52331 0.08597 0.19386 0.0
H58 H 0.61545 0.02256 0.20927 0.0
C59 C 0.54244 0.91432 0.90553 0.0
C60 C 0.97024 0.46445 0.04439 0.0
C61 C 1.03258 0.59637 0.01194 0.0
H62 H 0.92382 0.24595 0.0659 0.0
C63 C 0.09772 0.60763 0.9756 0.0
H64 H 0.91922 0.45219 0.07249 0.0
C65 C 0.10048 0.48937 0.97168 0.0
C66 C 0.03814 0.35745 1.00416 0.0
H67 H 0.14689 0.70788 0.95018 0.0
H68 H 0.15149 0.50162 0.94359 0.0
C69 C 0.97299 0.3462 0.04047 0.0
loop_
_geom_bond_atom_site_label_1
_geom_bond_atom_site_label_2
_geom_bond_distance
_geom_bond_site_symmetry_2
_ccdc_geom_bond_type
Sm0 C2 2.846 . S
Sm0 O20 2.543 1_556 S
Sm0 O21 2.450 . S
Sm0 O22 2.681 1_665 S
Sm0 O23 2.464 . S
Sm0 O24 2.396 1_565 S
Sm0 O28 2.386 1_566 S
Sm0 O31 2.408 . S
Sm1 C11 2.846 . S
Sm1 O22 2.386 1_554 S
Sm1 O25 2.408 . S
Sm1 O26 2.543 1_554 S
Sm1 O27 2.450 . S
Sm1 O28 2.681 1_455 S
Sm1 O29 2.464 . S
Sm1 O30 2.396 1_545 S
C2 Sm0 2.846 . S
C2 C3 1.506 . S
C2 O20 1.261 1_556 S
C2 O21 1.242 . S
C3 C2 1.506 . S
C3 C4 1.358 1_566 S
C3 C8 1.382 . S
C4 C3 1.358 1_544 S
C4 C5 1.385 . S
C4 H32 0.930 . S
C5 C4 1.385 . S
C5 C6 1.395 1_544 S
C5 H33 0.929 . S
C6 C5 1.395 1_566 S
C6 C7 1.335 . S
C7 C6 1.335 . S
C7 C8 1.398 . S
C7 H34 0.930 . S
C8 C3 1.382 . S
C8 C7 1.398 . S
C8 H35 0.929 . S
C9 O22 1.271 1_665 S
C9 O23 1.251 . S
C10 O24 1.252 1_455 S
C10 O25 1.272 1_556 S
C11 Sm1 2.846 . S
C11 C12 1.506 . S
C11 O26 1.261 1_554 S
C11 O27 1.242 . S
C12 C11 1.506 . S
C12 C13 1.358 1_544 S
C12 C17 1.382 . S
C13 C12 1.358 1_566 S
C13 C14 1.385 . S
C13 H36 0.930 . S
C14 C13 1.385 . S
C14 C15 1.395 1_566 S
C14 H37 0.929 . S
C15 C14 1.395 1_544 S
C15 C16 1.335 . S
C16 C15 1.335 . S
C16 C17 1.398 . S
C16 H38 0.930 . S
C17 C12 1.382 . S
C17 C16 1.398 . S
C17 H39 0.929 . S
C18 O28 1.271 1_455 S
C18 O29 1.251 . S
C19 O30 1.252 1_655 S
C19 O31 1.272 1_554 S
O20 Sm0 2.543 1_554 S
O20 C2 1.261 1_554 S
O21 Sm0 2.450 . S
O21 C2 1.242 . S
O22 Sm0 2.681 1_445 S
O22 Sm1 2.386 1_556 S
O22 C9 1.271 1_445 S
O23 Sm0 2.464 . S
O23 C9 1.251 . S
O24 Sm0 2.396 1_545 S
O24 C10 1.252 1_655 S
O25 Sm1 2.408 . S
O25 C10 1.272 1_554 S
O26 Sm1 2.543 1_556 S
O26 C11 1.261 1_556 S
O27 Sm1 2.450 . S
O27 C11 1.242 . S
O28 Sm0 2.386 1_544 S
O28 Sm1 2.681 1_655 S
O28 C18 1.271 1_655 S
O29 Sm1 2.464 . S
O29 C18 1.251 . S
O30 Sm1 2.396 1_565 S
O30 C19 1.252 1_455 S
O31 Sm0 2.408 . S
O31 C19 1.272 1_556 S
H32 C4 0.930 . S
H33 C5 0.929 . S
H34 C7 0.930 . S
H35 C8 0.929 . S
H36 C13 0.930 . S
H37 C14 0.929 . S
H38 C16 0.930 . S
H39 C17 0.929 . S
C40 C41 1.388 1_565 S
C40 H44 0.950 . S
C40 C49 1.390 . S
C41 C40 1.388 1_545 S
C41 C43 1.387 1_655 S
H42 C49 0.950 . S
C43 C41 1.387 1_455 S
C43 C45 1.390 . S
C43 H47 0.950 . S
H44 C40 0.950 . S
C45 C43 1.390 . S
C45 C46 1.388 . S
C45 H48 0.950 . S
C46 C45 1.388 . S
C46 C49 1.388 1_445 S
H47 C43 0.950 . S
H48 C45 0.950 . S
C49 C40 1.390 . S
C49 H42 0.950 . S
C49 C46 1.388 1_665 S
C50 C51 1.387 1_545 S
C50 H54 0.950 . S
C50 C59 1.390 . S
C51 C50 1.387 1_565 S
C51 C53 1.390 1_556 S
H52 C59 0.950 . S
C53 C51 1.390 1_554 S
C53 C55 1.390 . S
C53 H57 0.950 . S
H54 C50 0.950 . S
C55 C53 1.390 . S
C55 C56 1.390 1_565 S
C55 H58 0.950 . S
C56 C55 1.390 1_545 S
C56 C59 1.390 1_554 S
H57 C53 0.950 . S
H58 C55 0.950 . S
C59 C50 1.390 . S
C59 H52 0.950 . S
C59 C56 1.390 1_556 S
C60 C61 1.390 . S
C60 H64 0.950 . S
C60 C69 1.390 . S
C61 C60 1.390 . S
C61 C63 1.390 1_454 S
H62 C69 0.950 . S
C63 C61 1.390 1_656 S
C63 C65 1.390 . S
C63 H67 0.950 . S
H64 C60 0.950 . S
C65 C63 1.390 . S
C65 C66 1.388 1_556 S
C65 H68 0.950 . S
C66 C65 1.388 1_554 S
C66 C69 1.388 1_655 S
H67 C63 0.950 . S
H68 C65 0.950 . S
C69 C60 1.390 . S
C69 H62 0.950 . S
C69 C66 1.388 1_455 S
C41 C18 1.454 1_655 S
C46 C9 1.453 1_445 S
C51 C15 1.496 1_566 S
C56 C6 1.495 1_544 S
C61 C19 1.485 1_455 S
C66 C10 1.488 1_654 S
