# Generated by pormake.
# Topology qtz, (4)-cn, num edge types: 1
# Building blocks:
#     Node 0, Type 0, BuildingBlock: AZAVOO_clean_sbu_0, # of connection points: 4
#     Node 1, Type 0, BuildingBlock: AZAVOO_clean_sbu_0, # of connection points: 4
#     Node 2, Type 0, BuildingBlock: AZAVOO_clean_sbu_0, # of connection points: 4
#     Edge 3, Type (0, 0), None
#     Edge 4, Type (0, 0), None
#     Edge 5, Type (0, 0), None
#     Edge 6, Type (0, 0), None
#     Edge 7, Type (0, 0), None
#     Edge 8, Type (0, 0), None
# Relax obj value: 0.169
# Max RMSD: 0.242
# Mean RMSD: 0.198
data_MOF--net-qtz--node1-AZAVOO_clean_sbu_0--edge1-none
_symmetry_space_group_name_H-M    P1
_symmetry_Int_Tables_number       1
_symmetry_cell_setting            triclinic
loop_
_symmetry_equiv_pos_as_xyz
'x, y, z'
_cell_length_a     10.257465
_cell_length_b     11.008178
_cell_length_c     13.577616
_cell_angle_alpha  92.515781
_cell_angle_beta   101.21452
_cell_angle_gamma 127.23497
loop_
_atom_site_label
_atom_site_type_symbol
_atom_site_fract_x
_atom_site_fract_y
_atom_site_fract_z
_atom_type_partial_charge
Mg0 Mg 0.93638 0.46608 0.08627 0.0
O1 O 0.16614 0.70771 0.18866 0.0
O2 O 0.07001 0.7686 0.30029 0.0
Mg3 Mg 0.79084 0.56892 0.27672 0.0
C4 C 0.18914 0.80022 0.26274 0.0
C5 C 0.08758 0.40614 0.92579 0.0
O6 O 0.99552 0.26484 0.94433 0.0
O7 O 0.8209 0.57096 0.00076 0.0
O8 O 0.73007 0.62181 0.12163 0.0
O9 O 0.97917 0.33774 0.19868 0.0
O10 O 0.81731 0.40587 0.20245 0.0
C11 C 0.74651 0.61977 0.03093 0.0
C12 C 0.88024 0.3423 0.2423 0.0
O13 O 0.08999 0.51062 -0.02797 0.0
Mg14 Mg 0.72589 0.17293 0.48633 0.0
O15 O 0.46831 0.96964 0.37349 0.0
O16 O 0.36792 0.07056 0.27706 0.0
Mg17 Mg 0.5673 0.33468 0.31736 0.0
C18 C 0.35436 0.95442 0.30291 0.0
C19 C 0.71002 0.02858 0.67938 0.0
O20 O 0.76942 0.16875 0.72099 0.0
O21 O 0.58906 0.22238 0.57576 0.0
O22 O 0.5157 0.33746 0.47313 0.0
O23 O 0.8693 0.19156 0.371 0.0
O24 O 0.76919 0.3191 0.3838 0.0
C25 C 0.52543 0.29175 0.55705 0.0
C26 C 0.84452 0.28617 0.3372 0.0
O27 O 0.69371 0.99722 0.58436 0.0
Mg28 Mg 0.37032 0.52822 0.73044 0.0
O29 O 0.5814 0.57516 0.86512 0.0
O30 O 0.61914 0.73766 -0.00667 0.0
Mg31 Mg 0.45476 0.80955 0.9386 0.0
C32 C 0.65275 0.65349 0.95729 0.0
C33 C 0.47184 0.33201 0.63654 0.0
O34 O 0.48162 0.29221 0.72583 0.0
O35 O 0.55512 0.76329 0.69053 0.0
O36 O 0.59631 0.92923 0.81755 0.0
O37 O 0.17419 0.33662 0.79568 0.0
O38 O 0.27461 0.58157 0.83163 0.0
C39 C 0.62243 0.90107 0.7343 0.0
C40 C 0.18065 0.44221 0.84807 0.0
O41 O 0.43027 0.41871 0.62076 0.0
loop_
_geom_bond_atom_site_label_1
_geom_bond_atom_site_label_2
_geom_bond_distance
_geom_bond_site_symmetry_2
_ccdc_geom_bond_type
Mg0 O1 2.028 1_655 S
Mg0 O7 1.986 . S
Mg0 O9 2.114 . S
Mg0 O10 2.251 . S
Mg0 O13 2.010 1_655 S
O1 Mg0 2.028 1_455 S
O1 C4 1.250 . S
O2 Mg3 2.028 1_455 S
O2 C4 1.248 . S
Mg3 O2 2.028 1_655 S
Mg3 O8 2.032 . S
Mg3 O10 2.079 . S
C4 O1 1.250 . S
C4 O2 1.248 . S
C5 O6 1.268 . S
C5 O13 1.246 1_556 S
O6 C5 1.268 . S
O7 Mg0 1.986 . S
O7 C11 1.246 . S
O8 Mg3 2.032 . S
O8 C11 1.259 . S
O9 Mg0 2.114 . S
O9 C12 1.252 . S
O10 Mg0 2.251 . S
O10 Mg3 2.079 . S
O10 C12 1.273 . S
C11 O7 1.246 . S
C11 O8 1.259 . S
C12 O9 1.252 . S
C12 O10 1.273 . S
O13 Mg0 2.010 1_455 S
O13 C5 1.246 1_554 S
Mg14 O15 2.028 1_545 S
Mg14 O21 1.986 . S
Mg14 O23 2.114 . S
Mg14 O24 2.251 . S
Mg14 O27 2.010 . S
O15 Mg14 2.028 1_565 S
O15 C18 1.250 . S
O16 Mg17 2.028 . S
O16 C18 1.248 1_545 S
Mg17 O16 2.028 . S
Mg17 O22 2.032 . S
Mg17 O24 2.079 . S
C18 O15 1.250 . S
C18 O16 1.248 1_565 S
C19 O20 1.264 . S
C19 O27 1.249 1_565 S
O20 C19 1.264 . S
O21 Mg14 1.986 . S
O21 C25 1.246 . S
O22 Mg17 2.032 . S
O22 C25 1.259 . S
O23 Mg14 2.114 . S
O23 C26 1.252 . S
O24 Mg14 2.251 . S
O24 Mg17 2.079 . S
O24 C26 1.273 . S
C25 O21 1.246 . S
C25 O22 1.259 . S
C26 O23 1.252 . S
C26 O24 1.273 . S
O27 Mg14 2.010 . S
O27 C19 1.249 1_545 S
Mg28 O29 2.028 . S
Mg28 O35 1.986 . S
Mg28 O37 2.114 . S
Mg28 O38 2.251 . S
Mg28 O41 2.010 . S
O29 Mg28 2.028 . S
O29 C32 1.250 . S
O30 Mg31 2.028 1_554 S
O30 C32 1.248 1_554 S
Mg31 O30 2.028 1_556 S
Mg31 O36 2.032 . S
Mg31 O38 2.079 . S
C32 O29 1.250 . S
C32 O30 1.248 1_556 S
C33 O34 1.264 . S
C33 O41 1.249 . S
O34 C33 1.264 . S
O35 Mg28 1.986 . S
O35 C39 1.246 . S
O36 Mg31 2.032 . S
O36 C39 1.259 . S
O37 Mg28 2.114 . S
O37 C40 1.252 . S
O38 Mg28 2.251 . S
O38 Mg31 2.079 . S
O38 C40 1.273 . S
C39 O35 1.246 . S
C39 O36 1.259 . S
C40 O37 1.252 . S
C40 O38 1.273 . S
O41 Mg28 2.010 . S
O41 C33 1.249 . S
C40 C5 1.055 . S
C12 C26 1.442 . S
C19 C39 1.087 . S
C32 C11 1.366 1_556 S
C18 C4 1.428 . S
C33 C25 1.228 . S
