# Generated by pormake.
# Topology pcu, (6)-cn, num edge types: 1
# Building blocks:
#     Node 0, Type 0, BuildingBlock: CIFDUS_clean_sbu_1, # of connection points: 6
#     Edge 1, Type (0, 0), BuildingBlock: FUNLAD_clean_linker_1, # of connection points: 2
#     Edge 2, Type (0, 0), BuildingBlock: FUNLAD_clean_linker_1, # of connection points: 2
#     Edge 3, Type (0, 0), BuildingBlock: FUNLAD_clean_linker_1, # of connection points: 2
# Relax obj value: 0.009
# Max RMSD: 0.057
# Mean RMSD: 0.057
data_MOF--net-pcu--node1-CIFDUS_clean_sbu_1--edge1-FUNLAD_clean_linker_1
_symmetry_space_group_name_H-M    P1
_symmetry_Int_Tables_number       1
_symmetry_cell_setting            triclinic
loop_
_symmetry_equiv_pos_as_xyz
'x, y, z'
_cell_length_a     16.573073
_cell_length_b     16.651718
_cell_length_c     15.474491
_cell_angle_alpha  72.357626
_cell_angle_beta   109.23458
_cell_angle_gamma 88.892938
loop_
_atom_site_label
_atom_site_type_symbol
_atom_site_fract_x
_atom_site_fract_y
_atom_site_fract_z
_atom_type_partial_charge
O0 O 1.01745 0.84984 1.05414 0.0
Mn1 Mn 1.02571 -0.03033 0.07391 0.0
O2 O 0.11212 0.75481 0.18919 0.0
Mn3 Mn 0.16864 0.83297 0.23948 0.0
O4 O 0.03398 0.0895 0.09369 0.0
O5 O 0.96326 0.02494 0.93062 0.0
Mn6 Mn 0.88282 0.10642 0.90833 0.0
O7 O 0.90778 0.96169 0.09756 0.0
O8 O 0.93943 0.18456 0.95857 0.0
O9 O 0.14364 -0.02233 1.05025 0.0
O10 O 0.24356 0.88412 0.18222 0.0
O11 O 0.87659 0.10451 0.78849 0.0
O12 O 0.80791 0.05535 0.96565 0.0
C13 C 0.11146 0.89585 0.30993 0.0
C14 C 0.05235 0.77311 0.10683 0.0
C15 C 0.99914 0.16626 1.04094 0.0
C16 C 0.93991 0.04343 0.8379 0.0
C17 C 0.82968 -0.00239 1.04803 0.0
C18 C 0.22175 0.94183 0.0998 0.0
O19 O 0.08814 0.91438 0.2172 0.0
O20 O 0.17481 0.8348 0.35932 0.0
H21 H 1.01186 -0.01772 0.31691 0.0
C22 C 0.06999 0.93701 0.35876 0.0
H23 H 0.16046 0.86853 0.49721 0.0
H24 H 0.99829 0.16302 0.6177 0.0
H25 H 0.05718 0.26396 0.51248 0.0
H26 H 0.11988 0.21967 0.40731 0.0
H27 H 0.12374 0.0744 0.40653 0.0
C28 C 0.1033 0.91523 0.4558 0.0
C29 C 0.06052 0.94447 0.51279 0.0
C30 C 0.05929 0.02969 0.51211 0.0
C31 C 1.02382 0.05492 0.57316 0.0
C32 C 1.02378 0.14039 0.57207 0.0
C33 C 0.05783 0.19895 0.51242 0.0
C34 C 0.09311 0.17403 0.45321 0.0
C35 C 0.09443 0.09041 0.45309 0.0
H36 H 0.03945 0.95694 0.83091 0.0
C37 C 0.98129 0.00217 0.78907 0.0
H38 H 0.8907 0.0705 0.65065 0.0
H39 H 0.05285 0.77607 0.53011 0.0
H40 H 0.99399 0.67512 0.63536 0.0
H41 H 0.93134 0.7194 0.74057 0.0
H42 H 0.9275 0.86467 0.74137 0.0
C43 C 0.94789 0.02384 0.69204 0.0
C44 C 0.99065 -0.00539 0.63504 0.0
C45 C 0.9919 0.90939 0.63574 0.0
C46 C 0.02735 0.88416 0.57467 0.0
C47 C 0.02738 0.7987 0.57576 0.0
C48 C 0.99335 0.74013 0.63542 0.0
C49 C 0.95809 0.76505 0.69466 0.0
C50 C 0.95679 0.84866 0.69478 0.0
H51 H 0.28319 0.03151 1.00997 0.0
C52 C 0.29169 0.96888 1.06305 0.0
H53 H 0.37509 0.85514 0.15303 0.0
H54 H 0.59968 0.02401 0.87614 0.0
H55 H 0.47897 0.01573 0.74011 0.0
H56 H 0.34282 -0.02658 0.76057 0.0
H57 H 0.32663 0.93971 0.9171 0.0
C58 C 0.36744 0.91785 0.1003 0.0
C59 C 0.44702 0.94697 0.08513 0.0
C60 C 0.45529 0.96558 0.99316 0.0
C61 C 0.53404 -0.011 0.98179 0.0
C62 C 0.54107 0.0068 0.8891 0.0
C63 C 0.47238 0.00182 0.8103 0.0
C64 C 0.39574 -0.02196 0.8218 0.0
C65 C 0.38714 0.95944 0.91209 0.0
H66 H 0.7682 0.90798 0.13784 0.0
C67 C 0.75974 -0.0294 0.08479 0.0
H68 H 0.67641 0.08439 0.99485 0.0
H69 H 0.45174 0.91562 0.27169 0.0
H70 H 0.57246 0.9239 0.40772 0.0
H71 H 0.70862 0.96618 0.38727 0.0
H72 H 0.72482 -0.00014 0.23074 0.0
C73 C 0.68402 0.02168 1.04756 0.0
C74 C 0.60443 -0.0074 1.06271 0.0
C75 C 0.59615 -0.02599 0.15468 0.0
C76 C 0.51739 0.95059 0.16605 0.0
C77 C 0.51036 0.93281 0.25874 0.0
C78 C 0.57905 0.9378 0.33753 0.0
C79 C 0.65569 0.96156 0.32603 0.0
C80 C 0.6643 -0.01985 0.23575 0.0
H81 H 0.97096 0.71335 1.0037 0.0
C82 C 1.0245 0.70155 1.07151 0.0
H83 H 0.11904 0.61006 0.19126 0.0
H84 H 0.94582 0.28371 0.18002 0.0
H85 H 0.92196 0.30618 0.3175 0.0
H86 H 0.95377 0.43806 0.35589 0.0
H87 H 1.00761 0.54921 0.2552 0.0
C88 C 0.06638 0.62228 0.12266 0.0
C89 C 0.04173 0.54645 0.09433 0.0
C90 C 1.01179 0.48143 0.15507 0.0
C91 C 0.99509 0.40473 0.13417 0.0
C92 C 0.9618 0.34236 0.19372 0.0
C93 C 0.94739 0.35458 0.27283 0.0
C94 C 0.96515 0.42887 0.29434 0.0
C95 C 0.99652 0.49195 0.23617 0.0
H96 H 0.08052 0.226 0.14407 0.0
C97 C 0.02704 0.2378 0.07629 0.0
H98 H 0.93258 0.32931 0.9565 0.0
H99 H 0.10574 0.65567 0.96773 0.0
H100 H 0.1296 0.63319 0.83026 0.0
H101 H 0.09783 0.5013 0.79189 0.0
H102 H 0.044 0.39015 0.89258 0.0
C103 C 0.98519 0.31709 1.02509 0.0
C104 C 1.00985 0.39291 1.05343 0.0
C105 C 0.0398 0.45793 0.99269 0.0
C106 C 0.0565 0.53463 1.01359 0.0
C107 C 0.08977 0.59701 0.95403 0.0
C108 C 0.10419 0.5848 0.87493 0.0
C109 C 0.08644 0.5105 0.85343 0.0
C110 C 0.05508 0.44741 0.9116 0.0
loop_
_geom_bond_atom_site_label_1
_geom_bond_atom_site_label_2
_geom_bond_distance
_geom_bond_site_symmetry_2
_ccdc_geom_bond_type
O0 Mn1 2.163 1_666 S
O0 C14 1.244 1_656 S
Mn1 O0 2.163 1_444 S
Mn1 O4 2.160 . S
Mn1 O5 2.221 1_454 S
Mn1 O7 2.163 1_445 S
Mn1 O9 2.160 1_554 S
Mn1 O19 2.221 1_545 S
O2 Mn3 2.087 . S
O2 C14 1.256 . S
Mn3 O2 2.087 . S
Mn3 O10 2.089 . S
Mn3 O19 2.290 . S
Mn3 O20 2.251 . S
O4 Mn1 2.160 . S
O4 C15 1.239 1_454 S
O5 Mn1 2.221 1_656 S
O5 Mn6 2.290 . S
O5 C16 1.278 . S
Mn6 O5 2.290 . S
Mn6 O8 2.089 . S
Mn6 O11 2.251 . S
Mn6 O12 2.087 . S
O7 Mn1 2.163 1_665 S
O7 C17 1.244 1_564 S
O8 Mn6 2.089 . S
O8 C15 1.256 . S
O9 Mn1 2.160 1_556 S
O9 C18 1.239 1_546 S
O10 Mn3 2.089 . S
O10 C18 1.256 . S
O11 Mn6 2.251 . S
O11 C16 1.241 . S
O12 Mn6 2.087 . S
O12 C17 1.256 . S
C13 O19 1.278 . S
C13 O20 1.241 . S
C14 O0 1.244 1_454 S
C14 O2 1.256 . S
C15 O4 1.239 1_656 S
C15 O8 1.256 . S
C16 O5 1.278 . S
C16 O11 1.241 . S
C17 O7 1.244 1_546 S
C17 O12 1.256 . S
C18 O9 1.239 1_564 S
C18 O10 1.256 . S
O19 Mn1 2.221 1_565 S
O19 Mn3 2.290 . S
O19 C13 1.278 . S
O20 Mn3 2.251 . S
O20 C13 1.241 . S
H21 C22 0.951 . S
C22 H21 0.951 . S
C22 C28 1.265 1_655 S
H23 C28 0.950 . S
H24 C32 0.949 . S
H25 C33 0.950 . S
H26 C34 0.951 . S
H27 C35 0.951 . S
C28 C22 1.265 1_455 S
C28 H23 0.950 . S
C28 C29 1.478 . S
C29 C28 1.478 . S
C29 C30 1.397 1_565 S
C29 C46 1.394 1_455 S
C30 C29 1.397 1_545 S
C30 C31 1.438 . S
C30 C35 1.429 . S
C31 C30 1.438 . S
C31 C32 1.428 . S
C31 C44 1.394 1_445 S
C32 H24 0.949 . S
C32 C31 1.428 . S
C32 C33 1.345 . S
C33 H25 0.950 . S
C33 C32 1.345 . S
C33 C34 1.424 . S
C34 H26 0.951 . S
C34 C33 1.424 . S
C34 C35 1.347 . S
C35 H27 0.951 . S
C35 C30 1.429 . S
C35 C34 1.347 . S
H36 C37 0.951 1_455 S
C37 H36 0.951 1_655 S
C37 C43 1.265 . S
H38 C43 0.950 . S
H39 C47 0.949 . S
H40 C48 0.950 . S
H41 C49 0.951 . S
H42 C50 0.951 . S
C43 C37 1.265 . S
C43 H38 0.950 . S
C43 C44 1.478 . S
C44 C31 1.394 1_665 S
C44 C43 1.478 . S
C44 C45 1.397 . S
C45 C44 1.397 . S
C45 C46 1.438 . S
C45 C50 1.429 . S
C46 C29 1.394 1_655 S
C46 C45 1.438 . S
C46 C47 1.428 . S
C47 H39 0.949 . S
C47 C46 1.428 . S
C47 C48 1.345 . S
C48 H40 0.950 . S
C48 C47 1.345 . S
C48 C49 1.424 . S
C49 H41 0.951 . S
C49 C48 1.424 . S
C49 C50 1.347 . S
C50 H42 0.951 . S
C50 C45 1.429 . S
C50 C49 1.347 . S
H51 C52 0.951 . S
C52 H51 0.951 . S
C52 C58 1.265 1_544 S
H53 C58 0.950 . S
H54 C62 0.949 . S
H55 C63 0.950 . S
H56 C64 0.951 . S
H57 C65 0.951 . S
C58 C52 1.265 1_566 S
C58 H53 0.950 . S
C58 C59 1.478 . S
C59 C58 1.478 . S
C59 C60 1.394 1_565 S
C59 C76 1.397 1_556 S
C60 C59 1.394 1_545 S
C60 C61 1.438 . S
C60 C65 1.429 . S
C61 C60 1.438 . S
C61 C62 1.428 . S
C61 C74 1.394 1_556 S
C62 H54 0.949 . S
C62 C61 1.428 . S
C62 C63 1.345 . S
C63 H55 0.950 . S
C63 C62 1.345 . S
C63 C64 1.424 . S
C64 H56 0.951 . S
C64 C63 1.424 . S
C64 C65 1.347 . S
C65 H57 0.951 . S
C65 C60 1.429 . S
C65 C64 1.347 . S
H66 C67 0.951 1_565 S
C67 H66 0.951 1_545 S
C67 C73 1.265 1_556 S
H68 C73 0.950 . S
H69 C77 0.949 . S
H70 C78 0.950 . S
H71 C79 0.951 . S
H72 C80 0.951 . S
C73 C67 1.265 1_554 S
C73 H68 0.950 . S
C73 C74 1.478 . S
C74 C61 1.394 1_554 S
C74 C73 1.478 . S
C74 C75 1.397 1_545 S
C75 C74 1.397 1_565 S
C75 C76 1.438 . S
C75 C80 1.429 . S
C76 C59 1.397 1_554 S
C76 C75 1.438 . S
C76 C77 1.428 . S
C77 H69 0.949 . S
C77 C76 1.428 . S
C77 C78 1.345 . S
C78 H70 0.950 . S
C78 C77 1.345 . S
C78 C79 1.424 . S
C79 H71 0.951 . S
C79 C78 1.424 . S
C79 C80 1.347 . S
C80 H72 0.951 . S
C80 C75 1.429 . S
C80 C79 1.347 . S
H81 C82 0.951 . S
C82 H81 0.951 . S
C82 C88 1.265 1_656 S
H83 C88 0.950 . S
H84 C92 0.949 . S
H85 C93 0.950 . S
H86 C94 0.951 . S
H87 C95 0.951 . S
C88 C82 1.265 1_454 S
C88 H83 0.950 . S
C88 C89 1.478 . S
C89 C88 1.478 . S
C89 C90 1.397 . S
C89 C106 1.394 1_454 S
C90 C89 1.397 . S
C90 C91 1.438 . S
C90 C95 1.429 . S
C91 C90 1.438 . S
C91 C92 1.428 . S
C91 C104 1.394 1_454 S
C92 H84 0.949 . S
C92 C91 1.428 . S
C92 C93 1.345 . S
C93 H85 0.950 . S
C93 C92 1.345 . S
C93 C94 1.424 . S
C94 H86 0.951 . S
C94 C93 1.424 . S
C94 C95 1.347 . S
C95 H87 0.951 . S
C95 C90 1.429 . S
C95 C94 1.347 . S
H96 C97 0.950 1_554 S
C97 H96 0.950 1_556 S
C97 C103 1.264 1_455 S
H98 C103 0.950 . S
H99 C107 0.949 . S
H100 C108 0.950 . S
H101 C109 0.951 . S
H102 C110 0.951 . S
C103 C97 1.264 1_655 S
C103 H98 0.950 . S
C103 C104 1.478 . S
C104 C91 1.394 1_656 S
C104 C103 1.478 . S
C104 C105 1.397 . S
C105 C104 1.397 . S
C105 C106 1.438 . S
C105 C110 1.429 . S
C106 C89 1.394 1_656 S
C106 C105 1.438 . S
C106 C107 1.428 . S
C107 H99 0.949 . S
C107 C106 1.428 . S
C107 C108 1.345 . S
C108 H100 0.950 . S
C108 C107 1.345 . S
C108 C109 1.424 . S
C109 H101 0.951 . S
C109 C108 1.424 . S
C109 C110 1.347 . S
C110 H102 0.951 . S
C110 C105 1.429 . S
C110 C109 1.347 . S
C22 C13 1.361 1_655 S
C37 C16 1.360 1_565 S
C52 C18 1.424 1_545 S
C67 C17 1.409 . S
C82 C14 1.458 1_656 S
C97 C15 1.475 1_455 S
