# Generated by pormake.
# Topology umw, (4)-cn, num edge types: 1
# Building blocks:
#     Node 0, Type 0, BuildingBlock: AZAVOO_clean_sbu_0, # of connection points: 4
#     Node 1, Type 0, BuildingBlock: AZAVOO_clean_sbu_0, # of connection points: 4
#     Node 2, Type 0, BuildingBlock: AZAVOO_clean_sbu_0, # of connection points: 4
#     Node 3, Type 0, BuildingBlock: AZAVOO_clean_sbu_0, # of connection points: 4
#     Node 4, Type 0, BuildingBlock: AZAVOO_clean_sbu_0, # of connection points: 4
#     Node 5, Type 0, BuildingBlock: AZAVOO_clean_sbu_0, # of connection points: 4
#     Node 6, Type 0, BuildingBlock: AZAVOO_clean_sbu_0, # of connection points: 4
#     Node 7, Type 0, BuildingBlock: AZAVOO_clean_sbu_0, # of connection points: 4
#     Edge 8, Type (0, 0), None
#     Edge 9, Type (0, 0), None
#     Edge 10, Type (0, 0), None
#     Edge 11, Type (0, 0), None
#     Edge 12, Type (0, 0), None
#     Edge 13, Type (0, 0), None
#     Edge 14, Type (0, 0), None
#     Edge 15, Type (0, 0), None
#     Edge 16, Type (0, 0), None
#     Edge 17, Type (0, 0), None
#     Edge 18, Type (0, 0), None
#     Edge 19, Type (0, 0), None
#     Edge 20, Type (0, 0), None
#     Edge 21, Type (0, 0), None
#     Edge 22, Type (0, 0), None
#     Edge 23, Type (0, 0), None
# Relax obj value: 0.147
# Max RMSD: 0.129
# Mean RMSD: 0.129
data_MOF--net-umw--node1-AZAVOO_clean_sbu_0--edge1-none
_symmetry_space_group_name_H-M    P1
_symmetry_Int_Tables_number       1
_symmetry_cell_setting            triclinic
loop_
_symmetry_equiv_pos_as_xyz
'x, y, z'
_cell_length_a     19.530855
_cell_length_b     19.529504
_cell_length_c     10.824001
_cell_angle_alpha  89.999651
_cell_angle_beta   90.000298
_cell_angle_gamma 89.999944
loop_
_atom_site_label
_atom_site_type_symbol
_atom_site_fract_x
_atom_site_fract_y
_atom_site_fract_z
_atom_type_partial_charge
Mg0 Mg 0.41553 0.1839 0.22646 0.0
O1 O 0.48545 0.18387 0.39767 0.0
O2 O 0.57423 0.11428 0.36397 0.0
Mg3 Mg 0.55215 0.05589 0.1832 0.0
C4 C 0.54254 0.15775 0.43086 0.0
C5 C 0.32894 0.30706 0.36266 0.0
O6 O 0.31233 0.37165 0.37654 0.0
O7 O 0.49354 0.23596 0.10401 0.0
O8 O 0.5652 0.15039 0.0585 0.0
O9 O 0.34808 0.10177 0.3049 0.0
O10 O 0.44151 0.07956 0.19901 0.0
C11 C 0.5429 0.21114 0.04172 0.0
C12 C 0.39068 0.05724 0.26257 0.0
O13 O 0.37201 0.29052 0.27938 0.0
Mg14 Mg 0.84555 0.41546 0.47644 0.0
O15 O 0.84558 0.48539 0.64764 0.0
O16 O 0.91517 0.57416 0.61394 0.0
Mg17 Mg 0.97356 0.55207 0.43316 0.0
C18 C 0.8717 0.54248 0.68083 0.0
C19 C 0.72238 0.32887 0.61265 0.0
O20 O 0.65779 0.31228 0.62654 0.0
O21 O 0.79349 0.49347 0.35398 0.0
O22 O 0.87906 0.56513 0.30847 0.0
O23 O 0.92767 0.348 0.5549 0.0
O24 O 0.94988 0.44143 0.44899 0.0
C25 C 0.81832 0.54283 0.29168 0.0
C26 C 0.9722 0.3906 0.51255 0.0
O27 O 0.73893 0.37194 0.52937 0.0
Mg28 Mg 0.61396 0.84547 0.72646 0.0
O29 O 0.54404 0.8455 0.89768 0.0
O30 O 0.45527 0.91509 0.86397 0.0
Mg31 Mg 0.47735 0.97348 0.6832 0.0
C32 C 0.48695 0.87161 0.93087 0.0
C33 C 0.70056 0.72231 0.86266 0.0
O34 O 0.71717 0.65771 0.87655 0.0
O35 O 0.53595 0.79341 0.60402 0.0
O36 O 0.4643 0.87898 0.55851 0.0
O37 O 0.68141 0.9276 0.80491 0.0
O38 O 0.58799 0.9498 0.69901 0.0
C39 C 0.48659 0.81823 0.54172 0.0
C40 C 0.63881 0.97213 0.76257 0.0
O41 O 0.65749 0.73885 0.77939 0.0
Mg42 Mg 0.18396 0.61391 0.97644 0.0
O43 O 0.18392 0.54398 0.14765 0.0
O44 O 0.11433 0.4552 0.11394 0.0
Mg45 Mg 0.05595 0.47729 0.93316 0.0
C46 C 0.1578 0.48689 0.18083 0.0
C47 C 0.30712 0.70049 0.11265 0.0
O48 O 0.37171 0.71709 0.12654 0.0
O49 O 0.23601 0.53589 0.85399 0.0
O50 O 0.15044 0.46424 0.80847 0.0
O51 O 0.10183 0.68136 0.05489 0.0
O52 O 0.07963 0.58794 0.94899 0.0
C53 C 0.21118 0.48654 0.79169 0.0
C54 C 0.0573 0.63876 0.01255 0.0
O55 O 0.29057 0.65743 0.02937 0.0
Mg56 Mg 0.35497 0.85706 0.29847 0.0
O57 O 0.41474 0.84827 0.10629 0.0
O58 O 0.51577 0.90304 0.13008 0.0
Mg59 Mg 0.53079 0.92217 0.33225 0.0
C60 C 0.47171 0.87193 0.06347 0.0
C61 C 0.25528 0.72982 0.19444 0.0
O62 O 0.19778 0.69686 0.21169 0.0
O63 O 0.40875 0.77039 0.40454 0.0
O64 O 0.50252 0.80978 0.33266 0.0
O65 O 0.31965 0.95928 0.23814 0.0
O66 O 0.41839 0.94371 0.33477 0.0
C67 C 0.47073 0.78525 0.4241 0.0
C68 C 0.37677 0.98431 0.27824 0.0
O69 O 0.266 0.78381 0.25715 0.0
Mg70 Mg 0.17237 0.3549 0.54845 0.0
O71 O 0.18115 0.41467 0.35626 0.0
O72 O 0.12637 0.5157 0.38004 0.0
Mg73 Mg 0.10725 0.53072 0.58222 0.0
C74 C 0.15748 0.47164 0.31343 0.0
C75 C 0.29961 0.25522 0.44444 0.0
O76 O 0.33258 0.19772 0.4617 0.0
O77 O 0.25902 0.40869 0.6545 0.0
O78 O 0.21963 0.50246 0.58262 0.0
O79 O 0.07015 0.31956 0.48812 0.0
O80 O 0.08572 0.41832 0.58475 0.0
C81 C 0.24416 0.47068 0.67407 0.0
C82 C 0.04512 0.37669 0.52823 0.0
O83 O 0.24562 0.26593 0.50714 0.0
Mg84 Mg 0.67452 0.17231 0.79847 0.0
O85 O 0.61476 0.1811 0.60629 0.0
O86 O 0.51372 0.12632 0.63007 0.0
Mg87 Mg 0.49871 0.1072 0.83225 0.0
C88 C 0.55779 0.15743 0.56346 0.0
C89 C 0.77422 0.29954 0.69444 0.0
O90 O 0.83172 0.3325 0.71169 0.0
O91 O 0.62074 0.25897 0.90453 0.0
O92 O 0.52698 0.21959 0.83265 0.0
O93 O 0.70985 0.07009 0.73814 0.0
O94 O 0.6111 0.08566 0.83477 0.0
C95 C 0.55876 0.24412 0.9241 0.0
C96 C 0.65272 0.04506 0.77825 0.0
O97 O 0.7635 0.24556 0.75715 0.0
Mg98 Mg 0.85713 0.67447 0.04844 0.0
O99 O 0.84835 0.6147 0.85625 0.0
O100 O 0.90313 0.51366 0.88004 0.0
Mg101 Mg 0.92225 0.49864 0.08222 0.0
C102 C 0.87202 0.55773 0.81343 0.0
C103 C 0.72989 0.77415 0.94444 0.0
O104 O 0.69693 0.83165 0.9617 0.0
O105 O 0.77048 0.62067 0.1545 0.0
O106 O 0.80987 0.52691 0.08262 0.0
O107 O 0.95935 0.7098 -0.01188 0.0
O108 O 0.94378 0.61105 0.08475 0.0
C109 C 0.78534 0.55869 0.17406 0.0
C110 C 0.98438 0.65267 0.02822 0.0
O111 O 0.78388 0.76344 0.00713 0.0
loop_
_geom_bond_atom_site_label_1
_geom_bond_atom_site_label_2
_geom_bond_distance
_geom_bond_site_symmetry_2
_ccdc_geom_bond_type
Mg0 O1 2.028 . S
Mg0 O7 1.986 . S
Mg0 O9 2.114 . S
Mg0 O10 2.251 . S
Mg0 O13 2.010 . S
O1 Mg0 2.028 . S
O1 C4 1.250 . S
O2 Mg3 2.028 . S
O2 C4 1.248 . S
Mg3 O2 2.028 . S
Mg3 O8 2.032 . S
Mg3 O10 2.079 . S
C4 O1 1.250 . S
C4 O2 1.248 . S
C5 O6 1.264 . S
C5 O13 1.249 . S
O6 C5 1.264 . S
O7 Mg0 1.986 . S
O7 C11 1.246 . S
O8 Mg3 2.032 . S
O8 C11 1.259 . S
O9 Mg0 2.114 . S
O9 C12 1.252 . S
O10 Mg0 2.251 . S
O10 Mg3 2.079 . S
O10 C12 1.273 . S
C11 O7 1.246 . S
C11 O8 1.259 . S
C12 O9 1.252 . S
C12 O10 1.273 . S
O13 Mg0 2.010 . S
O13 C5 1.249 . S
Mg14 O15 2.028 . S
Mg14 O21 1.986 . S
Mg14 O23 2.114 . S
Mg14 O24 2.251 . S
Mg14 O27 2.010 . S
O15 Mg14 2.028 . S
O15 C18 1.250 . S
O16 Mg17 2.028 . S
O16 C18 1.248 . S
Mg17 O16 2.028 . S
Mg17 O22 2.032 . S
Mg17 O24 2.079 . S
C18 O15 1.250 . S
C18 O16 1.248 . S
C19 O20 1.264 . S
C19 O27 1.249 . S
O20 C19 1.264 . S
O21 Mg14 1.986 . S
O21 C25 1.246 . S
O22 Mg17 2.032 . S
O22 C25 1.259 . S
O23 Mg14 2.114 . S
O23 C26 1.252 . S
O24 Mg14 2.251 . S
O24 Mg17 2.079 . S
O24 C26 1.273 . S
C25 O21 1.246 . S
C25 O22 1.259 . S
C26 O23 1.252 . S
C26 O24 1.273 . S
O27 Mg14 2.010 . S
O27 C19 1.249 . S
Mg28 O29 2.028 . S
Mg28 O35 1.986 . S
Mg28 O37 2.114 . S
Mg28 O38 2.251 . S
Mg28 O41 2.010 . S
O29 Mg28 2.028 . S
O29 C32 1.250 . S
O30 Mg31 2.028 . S
O30 C32 1.248 . S
Mg31 O30 2.028 . S
Mg31 O36 2.032 . S
Mg31 O38 2.079 . S
C32 O29 1.250 . S
C32 O30 1.248 . S
C33 O34 1.264 . S
C33 O41 1.249 . S
O34 C33 1.264 . S
O35 Mg28 1.986 . S
O35 C39 1.246 . S
O36 Mg31 2.032 . S
O36 C39 1.259 . S
O37 Mg28 2.114 . S
O37 C40 1.252 . S
O38 Mg28 2.251 . S
O38 Mg31 2.079 . S
O38 C40 1.273 . S
C39 O35 1.246 . S
C39 O36 1.259 . S
C40 O37 1.252 . S
C40 O38 1.273 . S
O41 Mg28 2.010 . S
O41 C33 1.249 . S
Mg42 O43 2.028 . S
Mg42 O49 1.986 1_554 S
Mg42 O51 2.114 . S
Mg42 O52 2.251 1_554 S
Mg42 O55 2.010 . S
O43 Mg42 2.028 . S
O43 C46 1.250 . S
O44 Mg45 2.028 1_554 S
O44 C46 1.248 . S
Mg45 O44 2.028 1_556 S
Mg45 O50 2.032 . S
Mg45 O52 2.079 . S
C46 O43 1.250 . S
C46 O44 1.248 . S
C47 O48 1.264 . S
C47 O55 1.249 . S
O48 C47 1.264 . S
O49 Mg42 1.986 1_556 S
O49 C53 1.246 . S
O50 Mg45 2.032 . S
O50 C53 1.259 . S
O51 Mg42 2.114 . S
O51 C54 1.252 . S
O52 Mg42 2.251 1_556 S
O52 Mg45 2.079 . S
O52 C54 1.273 1_556 S
C53 O49 1.246 . S
C53 O50 1.259 . S
C54 O51 1.252 . S
C54 O52 1.273 1_554 S
O55 Mg42 2.010 . S
O55 C47 1.249 . S
Mg56 O57 2.028 . S
Mg56 O63 1.986 . S
Mg56 O65 2.114 . S
Mg56 O66 2.251 . S
Mg56 O69 2.010 . S
O57 Mg56 2.028 . S
O57 C60 1.250 . S
O58 Mg59 2.028 . S
O58 C60 1.248 . S
Mg59 O58 2.028 . S
Mg59 O64 2.032 . S
Mg59 O66 2.079 . S
C60 O57 1.250 . S
C60 O58 1.248 . S
C61 O62 1.264 . S
C61 O69 1.249 . S
O62 C61 1.264 . S
O63 Mg56 1.986 . S
O63 C67 1.246 . S
O64 Mg59 2.032 . S
O64 C67 1.259 . S
O65 Mg56 2.114 . S
O65 C68 1.252 . S
O66 Mg56 2.251 . S
O66 Mg59 2.079 . S
O66 C68 1.273 . S
C67 O63 1.246 . S
C67 O64 1.259 . S
C68 O65 1.252 . S
C68 O66 1.273 . S
O69 Mg56 2.010 . S
O69 C61 1.249 . S
Mg70 O71 2.028 . S
Mg70 O77 1.986 . S
Mg70 O79 2.114 . S
Mg70 O80 2.251 . S
Mg70 O83 2.010 . S
O71 Mg70 2.028 . S
O71 C74 1.250 . S
O72 Mg73 2.028 . S
O72 C74 1.248 . S
Mg73 O72 2.028 . S
Mg73 O78 2.032 . S
Mg73 O80 2.079 . S
C74 O71 1.250 . S
C74 O72 1.248 . S
C75 O76 1.264 . S
C75 O83 1.249 . S
O76 C75 1.264 . S
O77 Mg70 1.986 . S
O77 C81 1.246 . S
O78 Mg73 2.032 . S
O78 C81 1.259 . S
O79 Mg70 2.114 . S
O79 C82 1.252 . S
O80 Mg70 2.251 . S
O80 Mg73 2.079 . S
O80 C82 1.273 . S
C81 O77 1.246 . S
C81 O78 1.259 . S
C82 O79 1.252 . S
C82 O80 1.273 . S
O83 Mg70 2.010 . S
O83 C75 1.249 . S
Mg84 O85 2.028 . S
Mg84 O91 1.986 . S
Mg84 O93 2.114 . S
Mg84 O94 2.251 . S
Mg84 O97 2.010 . S
O85 Mg84 2.028 . S
O85 C88 1.250 . S
O86 Mg87 2.028 . S
O86 C88 1.248 . S
Mg87 O86 2.028 . S
Mg87 O92 2.032 . S
Mg87 O94 2.079 . S
C88 O85 1.250 . S
C88 O86 1.248 . S
C89 O90 1.264 . S
C89 O97 1.249 . S
O90 C89 1.264 . S
O91 Mg84 1.986 . S
O91 C95 1.246 . S
O92 Mg87 2.032 . S
O92 C95 1.259 . S
O93 Mg84 2.114 . S
O93 C96 1.252 . S
O94 Mg84 2.251 . S
O94 Mg87 2.079 . S
O94 C96 1.273 . S
C95 O91 1.246 . S
C95 O92 1.259 . S
C96 O93 1.252 . S
C96 O94 1.273 . S
O97 Mg84 2.010 . S
O97 C89 1.249 . S
Mg98 O99 2.028 1_554 S
Mg98 O105 1.986 . S
Mg98 O107 2.114 1_554 S
Mg98 O108 2.251 . S
Mg98 O111 2.010 . S
O99 Mg98 2.028 1_556 S
O99 C102 1.250 . S
O100 Mg101 2.028 1_556 S
O100 C102 1.248 . S
Mg101 O100 2.028 1_554 S
Mg101 O106 2.032 . S
Mg101 O108 2.079 . S
C102 O99 1.250 . S
C102 O100 1.248 . S
C103 O104 1.264 1_556 S
C103 O111 1.249 1_556 S
O104 C103 1.264 1_554 S
O105 Mg98 1.986 . S
O105 C109 1.246 . S
O106 Mg101 2.032 . S
O106 C109 1.259 . S
O107 Mg98 2.114 1_556 S
O107 C110 1.252 1_556 S
O108 Mg98 2.251 . S
O108 Mg101 2.079 . S
O108 C110 1.273 . S
C109 O105 1.246 . S
C109 O106 1.259 . S
C110 O107 1.252 1_554 S
C110 O108 1.273 . S
O111 Mg98 2.010 . S
O111 C103 1.249 1_554 S
C4 C88 1.523 . S
C18 C102 1.523 . S
C60 C32 1.523 1_554 S
C74 C46 1.523 . S
C5 C75 1.843 . S
C19 C89 1.843 . S
C103 C33 1.843 . S
C47 C61 1.844 . S
C68 C12 1.417 1_565 S
C26 C82 1.417 1_655 S
C40 C96 1.417 1_565 S
C110 C54 1.417 1_655 S
C95 C11 1.088 1_556 S
C109 C25 1.088 . S
C39 C67 1.088 . S
C53 C81 1.088 . S
