# Generated by pormake.
# Topology kag, (6)-cn, num edge types: 1
# Building blocks:
#     Node 0, Type 0, BuildingBlock: BETFEN_clean_sbu_0, # of connection points: 6
#     Node 1, Type 0, BuildingBlock: BETFEN_clean_sbu_0, # of connection points: 6
#     Node 2, Type 0, BuildingBlock: BETFEN_clean_sbu_0, # of connection points: 6
#     Edge 3, Type (0, 0), BuildingBlock: AJUNOK_clean_linker_0, # of connection points: 2
#     Edge 4, Type (0, 0), BuildingBlock: AJUNOK_clean_linker_0, # of connection points: 2
#     Edge 5, Type (0, 0), BuildingBlock: AJUNOK_clean_linker_0, # of connection points: 2
#     Edge 6, Type (0, 0), BuildingBlock: AJUNOK_clean_linker_0, # of connection points: 2
#     Edge 7, Type (0, 0), BuildingBlock: AJUNOK_clean_linker_0, # of connection points: 2
#     Edge 8, Type (0, 0), BuildingBlock: AJUNOK_clean_linker_0, # of connection points: 2
#     Edge 9, Type (0, 0), BuildingBlock: AJUNOK_clean_linker_0, # of connection points: 2
#     Edge 10, Type (0, 0), BuildingBlock: AJUNOK_clean_linker_0, # of connection points: 2
#     Edge 11, Type (0, 0), BuildingBlock: AJUNOK_clean_linker_0, # of connection points: 2
# Relax obj value: 0.119
# Max RMSD: 0.236
# Mean RMSD: 0.122
data_MOF--net-kag--node1-BETFEN_clean_sbu_0--edge1-AJUNOK_clean_linker_0
_symmetry_space_group_name_H-M    P1
_symmetry_Int_Tables_number       1
_symmetry_cell_setting            triclinic
loop_
_symmetry_equiv_pos_as_xyz
'x, y, z'
_cell_length_a     23.485629
_cell_length_b     34.479047
_cell_length_c     10.721367
_cell_angle_alpha  95.09984
_cell_angle_beta   91.050352
_cell_angle_gamma 90.44841
loop_
_atom_site_label
_atom_site_type_symbol
_atom_site_fract_x
_atom_site_fract_y
_atom_site_fract_z
_atom_type_partial_charge
Pr0 Pr 0.08215 0.46912 1.00727 0.0
Pr1 Pr 0.079 0.56686 1.00812 0.0
C2 C 0.08173 0.39534 0.07233 0.0
C3 C 1.05324 0.3575 0.04027 0.0
C4 C 1.02718 0.34812 0.92245 0.0
C5 C 0.99763 0.31273 0.89717 0.0
C6 C 0.99332 0.28637 0.9897 0.0
C7 C 1.02021 0.29578 0.10681 0.0
C8 C 1.04975 0.33104 0.13184 0.0
C9 C 1.07442 0.49347 0.76219 0.0
C10 C 0.95638 0.51467 0.99874 0.0
C11 C 0.08307 0.63948 0.9345 0.0
C12 C 0.115 0.6766 0.95894 0.0
C13 C 0.12394 0.69447 0.08087 0.0
C14 C 0.15413 0.72979 0.10035 0.0
C15 C 0.17608 0.74776 0.99843 0.0
C16 C 0.16756 0.72956 0.87691 0.0
C17 C 0.13717 0.69445 0.85742 0.0
C18 C 0.08372 0.5431 0.2541 0.0
C19 C 0.20473 0.52144 0.02325 0.0
O20 O 1.04994 0.42284 0.12512 0.0
O21 O 0.11708 0.40778 0.99104 0.0
O22 O 1.07676 0.51405 0.86522 0.0
O23 O 1.07444 0.45703 0.78485 0.0
O24 O 0.98233 0.5478 0.97665 0.0
O25 O 0.98472 0.48291 0.02238 0.0
O26 O 0.11087 0.61026 0.87875 0.0
O27 O 1.04851 0.62919 0.02088 0.0
O28 O 0.08336 0.52205 0.15147 0.0
O29 O 0.08417 0.5795 0.23053 0.0
O30 O 0.17849 0.48819 0.0422 0.0
O31 O 0.17669 0.55331 0.99993 0.0
H32 H 1.0292 0.36829 0.85068 0.0
H33 H 0.97816 0.306 0.80539 0.0
H34 H 1.0173 0.27622 0.18017 0.0
H35 H 1.06921 0.33795 0.22366 0.0
H36 H 0.10779 0.68116 0.16106 0.0
H37 H 0.16088 0.74284 0.1952 0.0
H38 H 0.18385 0.74279 0.79664 0.0
H39 H 0.13086 0.68121 0.76262 0.0
Pr40 Pr 0.65659 0.02039 0.99474 0.0
Pr41 Pr 0.513 1.01385 0.01421 0.0
C42 C 0.76064 0.03669 0.91057 0.0
C43 C 0.79633 0.07219 0.92206 0.0
C44 C 0.85006 0.07241 0.86727 0.0
C45 C 0.88254 0.10684 0.87337 0.0
C46 C 0.86137 0.14163 0.93307 0.0
C47 C 0.80782 0.14105 0.98938 0.0
C48 C 0.77569 0.10665 0.9841 0.0
C49 C 0.62065 0.02137 0.24577 0.0
C50 C 0.57541 0.10142 0.02708 0.0
C51 C 0.40771 0.99854 0.09291 0.0
C52 C 0.3695 0.96408 0.07807 0.0
C53 C 0.36139 0.94269 0.96119 0.0
C54 C 0.32851 0.90849 0.95056 0.0
C55 C 0.30334 0.89478 0.05655 0.0
C56 C 0.3116 0.91626 0.17341 0.0
C57 C 0.34419 0.95062 0.18387 0.0
C58 C 0.54989 1.01109 0.76361 0.0
C59 C 0.59371 0.93263 0.97518 0.0
O60 O 0.71386 0.03886 0.84343 0.0
O61 O 0.75294 0.01968 0.01363 0.0
O62 O 0.59036 0.01946 0.14672 0.0
O63 O 0.67379 0.02442 0.21556 0.0
O64 O 0.52845 0.0817 0.05045 0.0
O65 O 0.62457 0.08454 0.99884 0.0
O66 O 0.45367 0.99473 0.16108 0.0
O67 O 0.41693 1.01708 0.99342 0.0
O68 O 0.57946 1.0142 0.86339 0.0
O69 O 0.49661 1.00835 0.79292 0.0
O70 O 0.64071 0.95289 0.95596 0.0
O71 O 0.54431 0.94912 1.00535 0.0
H72 H 0.86664 0.04609 0.81887 0.0
H73 H 0.92378 0.10647 0.82965 0.0
H74 H 0.79094 0.16719 0.03832 0.0
H75 H 0.73449 0.10701 0.02784 0.0
H76 H 0.38113 0.95202 0.87823 0.0
H77 H 0.32292 0.89265 0.85922 0.0
H78 H 0.29407 0.90603 0.25739 0.0
H79 H 0.3507 0.96626 0.2753 0.0
Pr80 Pr 0.58615 0.56121 0.01634 0.0
Pr81 Pr 0.57583 0.47391 0.01142 0.0
C82 C 0.58636 0.63817 0.98977 0.0
C83 C 0.58843 0.68083 0.97943 0.0
C84 C 0.62565 0.7046 0.05766 0.0
C85 C 0.62809 0.74485 0.0495 0.0
C86 C 0.59345 0.76242 0.96278 0.0
C87 C 0.55596 0.73873 0.88478 0.0
C88 C 0.55367 0.69831 0.89257 0.0
C89 C 0.58988 0.53357 0.25417 0.0
C90 C 0.45555 0.52088 0.02353 0.0
C91 C 0.57567 0.39657 0.03189 0.0
C92 C 0.57509 0.35359 0.03613 0.0
C93 C 0.56754 0.32925 0.92458 0.0
C94 C 0.56626 0.28878 0.92615 0.0
C95 C 0.57261 0.27144 0.03922 0.0
C96 C 0.57907 0.29564 0.15144 0.0
C97 C 0.58054 0.33638 0.14989 0.0
C98 C 0.56796 0.50199 0.77538 0.0
C99 C 0.70551 0.51398 1.00148 0.0
O100 O 0.55805 0.61334 0.91173 0.0
O101 O 0.6134 0.6227 0.08032 0.0
O102 O 0.5559 0.52173 0.16652 0.0
O103 O 0.62298 0.56089 0.22098 0.0
O104 O 0.48081 0.48875 0.05261 0.0
O105 O 0.48609 0.55107 0.99339 0.0
O106 O 0.58613 0.42163 0.12899 0.0
O107 O 0.56682 0.41206 0.9266 0.0
O108 O 0.60426 0.51354 0.85921 0.0
O109 O 0.53428 0.47566 0.81301 0.0
O110 O 0.67953 0.54477 0.96387 0.0
O111 O 0.67539 0.48492 0.0407 0.0
H112 H 0.65293 0.69214 0.12588 0.0
H113 H 0.65644 0.76234 0.1129 0.0
H114 H 0.52861 0.75146 0.81727 0.0
H115 H 0.52451 0.68081 0.83116 0.0
H116 H 0.56264 0.34144 0.83535 0.0
H117 H 0.56024 0.27094 0.83843 0.0
H118 H 0.58405 0.28304 0.23995 0.0
H119 H 0.58594 0.35435 0.2375 0.0
C120 C 0.10318 0.54118 0.6085 0.0
C121 C 1.07378 0.50716 0.63407 0.0
C122 C 0.10645 0.55236 0.48529 0.0
C123 C 0.08068 0.52988 0.38279 0.0
H124 H 0.12517 0.55868 0.68346 0.0
H125 H 0.13005 0.57859 0.46994 0.0
S126 S 0.991 0.44178 0.40296 0.0
N127 N 1.01427 0.453 0.54806 0.0
N128 N 1.0187 0.47488 0.31899 0.0
C129 C 1.04932 0.49674 0.40824 0.0
C130 C 1.04639 0.48516 0.53311 0.0
C131 C 0.6294 0.04041 0.47754 0.0
C132 C 0.60151 0.01838 0.37678 0.0
C133 C 0.61386 0.03731 0.60295 0.0
C134 C 0.57002 1.01184 0.63259 0.0
H135 H 0.6631 0.06065 0.45916 0.0
H136 H 0.63509 0.05584 0.67661 0.0
S137 S 0.49018 0.9431 0.40615 0.0
N138 N 0.53327 0.96656 0.31802 0.0
N139 N 0.50215 0.96196 0.55143 0.0
C140 C 0.543 0.98889 0.5331 0.0
C141 C 0.55927 0.99176 0.40592 0.0
C142 C 0.61409 0.53575 0.60586 0.0
C143 C 0.57184 0.5102 0.64252 0.0
C144 C 0.61994 0.5428 0.47984 0.0
C145 C 0.58378 0.52456 0.38577 0.0
H146 H 0.64308 0.55033 0.67488 0.0
H147 H 0.65305 0.56278 0.45617 0.0
S148 S 0.46613 0.45514 0.43235 0.0
N149 N 0.49293 0.46671 0.57432 0.0
N150 N 0.50427 0.47978 0.33795 0.0
C151 C 0.54137 0.49893 0.42109 0.0
C152 C 0.53525 0.49185 0.54937 0.0
C153 C 0.3 0.48988 0.05426 0.0
C154 C 0.26872 0.52282 0.02618 0.0
C155 C 0.35989 0.4898 0.05413 0.0
C156 C 0.39176 0.52262 0.02559 0.0
H157 H 0.27817 0.46361 0.07609 0.0
H158 H 0.38126 0.46344 0.07593 0.0
S159 S 0.33128 0.617 0.94773 0.0
N160 N 0.27501 0.58976 0.97076 0.0
N161 N 0.38701 0.58945 0.97034 0.0
C162 C 0.3612 0.55598 0.99847 0.0
C163 C 0.30005 0.55612 0.99883 0.0
C164 C 0.95198 0.17918 0.98423 0.0
C165 C 0.89535 0.17836 0.93896 0.0
C166 C 0.98361 0.21407 0.99835 0.0
C167 C 0.96006 0.2494 0.9664 0.0
H168 H 0.97151 0.15284 0.01206 0.0
H169 H 1.0268 0.21343 0.03533 0.0
S170 S 0.81425 0.26245 0.83835 0.0
N171 N 0.81779 0.21553 0.85734 0.0
N172 N 0.87683 0.28112 0.88523 0.0
C173 C 0.9039 0.24876 0.91819 0.0
C174 C 0.87165 0.21328 0.9044 0.0
C175 C 0.54418 0.8675 0.96729 0.0
C176 C 0.59544 0.8891 0.96469 0.0
C177 C 0.54391 0.8267 0.96344 0.0
C178 C 0.59486 0.80555 0.95777 0.0
H179 H 0.50356 0.88214 0.97351 0.0
H180 H 0.50344 0.81165 0.96825 0.0
S181 S 0.74051 0.84708 0.94107 0.0
N182 N 0.69867 0.88546 0.95062 0.0
N183 N 0.69785 0.80886 0.94307 0.0
C184 C 0.64635 0.82647 0.95227 0.0
C185 C 0.64671 0.86811 0.95556 0.0
C186 C 0.86058 0.5449 0.96212 0.0
C187 C 0.89241 0.51312 0.99808 0.0
C188 C 0.80067 0.54462 0.96263 0.0
C189 C 0.76935 0.51259 0.9995 0.0
H190 H 0.88199 0.57047 0.93327 0.0
H191 H 0.77884 0.57006 0.93438 0.0
S192 S 0.83148 0.42158 0.10213 0.0
N193 N 0.88727 0.44828 0.07153 0.0
N194 N 0.77526 0.44791 0.07238 0.0
C195 C 0.80049 0.48046 0.0352 0.0
C196 C 0.86164 0.48068 0.03448 0.0
C197 C 0.2614 0.78914 0.96179 0.0
C198 C 0.20817 0.78527 0.01777 0.0
C199 C 0.29186 0.82449 0.97546 0.0
C200 C 0.2702 0.8575 0.04515 0.0
H201 H 0.27986 0.76453 0.90753 0.0
H202 H 0.33296 0.82586 0.93176 0.0
S203 S 0.13096 0.86328 0.20384 0.0
N204 N 0.13414 0.81776 0.142 0.0
N205 N 0.19096 0.88432 0.16663 0.0
C206 C 0.21683 0.85405 0.10112 0.0
C207 C 0.18595 0.81796 0.08767 0.0
C208 C 0.53718 0.20807 0.1126 0.0
C209 C 0.57415 0.22817 0.03808 0.0
C210 C 0.53677 0.16704 0.10742 0.0
C211 C 0.57402 0.1447 0.02913 0.0
H212 H 0.50778 0.22415 0.17384 0.0
H213 H 0.50768 0.15279 0.16634 0.0
S214 S 0.67927 0.18356 0.81587 0.0
N215 N 0.64915 0.22267 0.88482 0.0
N216 N 0.6483 0.14618 0.87391 0.0
C217 C 0.61126 0.16467 0.95461 0.0
C218 C 0.61136 0.20618 0.9594 0.0
loop_
_geom_bond_atom_site_label_1
_geom_bond_atom_site_label_2
_geom_bond_distance
_geom_bond_site_symmetry_2
_ccdc_geom_bond_type
Pr0 C2 2.892 . S
Pr0 O20 2.574 1_556 S
Pr0 O21 2.500 . S
Pr0 O22 2.693 1_655 S
Pr0 O23 2.513 . S
Pr0 O25 2.452 . S
Pr0 O28 2.437 1_556 S
Pr0 O30 2.422 1_655 S
Pr1 C11 2.880 . S
Pr1 O22 2.436 1_554 S
Pr1 O24 2.438 1_455 S
Pr1 O26 2.562 1_554 S
Pr1 O27 2.490 . S
Pr1 O28 2.695 1_455 S
Pr1 O29 2.512 . S
Pr1 O31 2.437 . S
C2 Pr0 2.892 . S
C2 C3 1.491 . S
C2 O20 1.254 1_556 S
C2 O21 1.225 . S
C3 C2 1.491 . S
C3 C4 1.392 . S
C3 C8 1.356 1_556 S
C4 C3 1.392 . S
C4 C5 1.368 . S
C4 H32 0.929 . S
C5 C4 1.368 . S
C5 C6 1.386 . S
C5 H33 0.929 . S
C6 C5 1.386 . S
C6 C7 1.373 1_556 S
C7 C6 1.373 1_554 S
C7 C8 1.409 . S
C7 H34 0.931 . S
C8 C3 1.356 1_554 S
C8 C7 1.409 . S
C8 H35 0.930 . S
C9 O22 1.270 . S
C9 O23 1.248 1_455 S
C10 O24 1.267 1_556 S
C10 O25 1.278 . S
C11 Pr1 2.880 . S
C11 C12 1.491 . S
C11 O26 1.254 1_554 S
C11 O27 1.225 . S
C12 C11 1.491 . S
C12 C13 1.392 . S
C12 C17 1.356 1_554 S
C13 C12 1.392 . S
C13 C14 1.368 . S
C13 H36 0.929 . S
C14 C13 1.368 . S
C14 C15 1.386 . S
C14 H37 0.929 . S
C15 C14 1.386 . S
C15 C16 1.373 1_554 S
C16 C15 1.373 1_556 S
C16 C17 1.409 . S
C16 H38 0.931 . S
C17 C12 1.356 1_556 S
C17 C16 1.409 . S
C17 H39 0.930 . S
C18 O28 1.270 1_455 S
C18 O29 1.248 . S
C19 O30 1.267 1_554 S
C19 O31 1.278 . S
O20 Pr0 2.574 1_554 S
O20 C2 1.254 1_554 S
O21 Pr0 2.500 . S
O21 C2 1.225 . S
O22 Pr0 2.693 1_455 S
O22 Pr1 2.436 1_556 S
O22 C9 1.270 . S
O23 Pr0 2.513 . S
O23 C9 1.248 1_655 S
O24 Pr1 2.438 1_655 S
O24 C10 1.267 1_554 S
O25 Pr0 2.452 . S
O25 C10 1.278 . S
O26 Pr1 2.562 1_556 S
O26 C11 1.254 1_556 S
O27 Pr1 2.490 . S
O27 C11 1.225 . S
O28 Pr0 2.437 1_554 S
O28 Pr1 2.695 1_655 S
O28 C18 1.270 1_655 S
O29 Pr1 2.512 . S
O29 C18 1.248 . S
O30 Pr0 2.422 1_455 S
O30 C19 1.267 1_556 S
O31 Pr1 2.437 . S
O31 C19 1.278 . S
H32 C4 0.929 . S
H33 C5 0.929 . S
H34 C7 0.931 . S
H35 C8 0.930 . S
H36 C13 0.929 . S
H37 C14 0.929 . S
H38 C16 0.931 . S
H39 C17 0.930 . S
Pr40 C42 2.880 . S
Pr40 O60 2.562 1_554 S
Pr40 O61 2.490 . S
Pr40 O62 2.695 1_545 S
Pr40 O63 2.512 . S
Pr40 O65 2.437 . S
Pr40 O68 2.436 1_554 S
Pr40 O70 2.438 1_545 S
Pr41 C51 2.880 . S
Pr41 O62 2.436 1_556 S
Pr41 O64 2.438 1_565 S
Pr41 O66 2.562 1_556 S
Pr41 O67 2.490 . S
Pr41 O68 2.695 1_565 S
Pr41 O69 2.512 . S
Pr41 O71 2.437 . S
C42 Pr40 2.880 . S
C42 C43 1.491 1_554 S
C42 O60 1.254 1_554 S
C42 O61 1.225 . S
C43 C42 1.491 1_556 S
C43 C44 1.392 1_556 S
C43 C48 1.356 . S
C44 C43 1.392 1_554 S
C44 C45 1.368 . S
C44 H72 0.929 . S
C45 C44 1.368 . S
C45 C46 1.386 1_554 S
C45 H73 0.929 . S
C46 C45 1.386 1_556 S
C46 C47 1.373 . S
C47 C46 1.373 . S
C47 C48 1.409 . S
C47 H74 0.931 . S
C48 C43 1.356 . S
C48 C47 1.409 . S
C48 H75 0.930 . S
C49 O62 1.270 1_545 S
C49 O63 1.248 . S
C50 O64 1.267 1_554 S
C50 O65 1.278 . S
C51 Pr41 2.880 . S
C51 C52 1.491 1_556 S
C51 O66 1.254 1_556 S
C51 O67 1.225 . S
C52 C51 1.491 1_554 S
C52 C53 1.392 1_554 S
C52 C57 1.356 . S
C53 C52 1.392 1_556 S
C53 C54 1.368 . S
C53 H76 0.929 . S
C54 C53 1.368 . S
C54 C55 1.386 1_556 S
C54 H77 0.929 . S
C55 C54 1.386 1_554 S
C55 C56 1.373 . S
C56 C55 1.373 . S
C56 C57 1.409 . S
C56 H78 0.931 . S
C57 C52 1.356 . S
C57 C56 1.409 . S
C57 H79 0.930 . S
C58 O68 1.270 1_565 S
C58 O69 1.248 . S
C59 O70 1.267 1_556 S
C59 O71 1.278 . S
O60 Pr40 2.562 1_556 S
O60 C42 1.254 1_556 S
O61 Pr40 2.490 . S
O61 C42 1.225 . S
O62 Pr40 2.695 1_565 S
O62 Pr41 2.436 1_554 S
O62 C49 1.270 1_565 S
O63 Pr40 2.512 . S
O63 C49 1.248 . S
O64 Pr41 2.438 1_545 S
O64 C50 1.267 1_556 S
O65 Pr40 2.437 . S
O65 C50 1.278 . S
O66 Pr41 2.562 1_554 S
O66 C51 1.254 1_554 S
O67 Pr41 2.490 . S
O67 C51 1.225 . S
O68 Pr40 2.436 1_556 S
O68 Pr41 2.695 1_545 S
O68 C58 1.270 1_545 S
O69 Pr41 2.512 . S
O69 C58 1.248 . S
O70 Pr40 2.438 1_565 S
O70 C59 1.267 1_554 S
O71 Pr41 2.437 . S
O71 C59 1.278 . S
H72 C44 0.929 . S
H73 C45 0.929 . S
H74 C47 0.931 . S
H75 C48 0.930 . S
H76 C53 0.929 . S
H77 C54 0.929 . S
H78 C56 0.931 . S
H79 C57 0.930 . S
Pr80 C82 2.880 . S
Pr80 O100 2.562 1_554 S
Pr80 O101 2.490 . S
Pr80 O102 2.695 . S
Pr80 O103 2.512 . S
Pr80 O105 2.437 . S
Pr80 O108 2.436 1_554 S
Pr80 O110 2.438 . S
Pr81 C91 2.880 . S
Pr81 O102 2.436 1_556 S
Pr81 O104 2.438 . S
Pr81 O106 2.562 1_556 S
Pr81 O107 2.490 . S
Pr81 O108 2.695 . S
Pr81 O109 2.512 . S
Pr81 O111 2.437 . S
C82 Pr80 2.880 . S
C82 C83 1.491 . S
C82 O100 1.254 1_554 S
C82 O101 1.225 . S
C83 C82 1.491 . S
C83 C84 1.392 . S
C83 C88 1.356 1_554 S
C84 C83 1.392 . S
C84 C85 1.368 . S
C84 H112 0.929 . S
C85 C84 1.368 . S
C85 C86 1.388 . S
C85 H113 0.929 . S
C86 C85 1.388 . S
C86 C87 1.371 1_554 S
C87 C86 1.371 1_556 S
C87 C88 1.409 . S
C87 H114 0.931 . S
C88 C83 1.356 1_556 S
C88 C87 1.409 . S
C88 H115 0.930 . S
C89 O102 1.270 . S
C89 O103 1.248 . S
C90 O104 1.267 1_554 S
C90 O105 1.278 . S
C91 Pr81 2.880 . S
C91 C92 1.491 . S
C91 O106 1.254 1_556 S
C91 O107 1.225 . S
C92 C91 1.491 . S
C92 C93 1.392 . S
C92 C97 1.356 1_556 S
C93 C92 1.392 . S
C93 C94 1.368 . S
C93 H116 0.929 . S
C94 C93 1.368 . S
C94 C95 1.385 1_556 S
C94 H117 0.929 . S
C95 C94 1.385 1_554 S
C95 C96 1.374 . S
C96 C95 1.374 . S
C96 C97 1.409 . S
C96 H118 0.931 . S
C97 C92 1.356 1_554 S
C97 C96 1.409 . S
C97 H119 0.930 . S
C98 O108 1.270 . S
C98 O109 1.248 . S
C99 O110 1.267 1_556 S
C99 O111 1.278 . S
O100 Pr80 2.562 1_556 S
O100 C82 1.254 1_556 S
O101 Pr80 2.490 . S
O101 C82 1.225 . S
O102 Pr80 2.695 . S
O102 Pr81 2.436 1_554 S
O102 C89 1.270 . S
O103 Pr80 2.512 . S
O103 C89 1.248 . S
O104 Pr81 2.438 . S
O104 C90 1.267 1_556 S
O105 Pr80 2.437 . S
O105 C90 1.278 . S
O106 Pr81 2.562 1_554 S
O106 C91 1.254 1_554 S
O107 Pr81 2.490 . S
O107 C91 1.225 . S
O108 Pr80 2.436 1_556 S
O108 Pr81 2.695 . S
O108 C98 1.270 . S
O109 Pr81 2.512 . S
O109 C98 1.248 . S
O110 Pr80 2.438 . S
O110 C99 1.267 1_554 S
O111 Pr81 2.437 . S
O111 C99 1.278 . S
H112 C84 0.929 . S
H113 C85 0.929 . S
H114 C87 0.931 . S
H115 C88 0.930 . S
H116 C93 0.929 . S
H117 C94 0.929 . S
H118 C96 0.931 . S
H119 C97 0.930 . S
C120 C121 1.369 . S
C120 C122 1.419 . S
C120 H124 0.930 . S
C121 C120 1.369 . S
C121 C130 1.429 1_455 S
C122 C120 1.419 . S
C122 C123 1.363 . S
C122 H125 0.929 . S
C123 C122 1.363 . S
C123 C129 1.428 1_455 S
H124 C120 0.930 . S
H125 C122 0.929 . S
S126 N127 1.613 . S
S126 N128 1.610 . S
N127 S126 1.613 . S
N127 C130 1.350 . S
N128 S126 1.610 . S
N128 C129 1.351 . S
C129 C123 1.428 1_655 S
C129 N128 1.351 . S
C129 C130 1.434 . S
C130 C121 1.429 1_655 S
C130 N127 1.350 . S
C130 C129 1.434 . S
C131 C132 1.375 . S
C131 C133 1.419 . S
C131 H135 0.930 . S
C132 C131 1.375 . S
C132 C141 1.421 1_545 S
C133 C131 1.419 . S
C133 C134 1.356 1_545 S
C133 H136 0.929 . S
C134 C133 1.356 1_565 S
C134 C140 1.434 . S
H135 C131 0.930 . S
H136 C133 0.929 . S
S137 N138 1.613 . S
S137 N139 1.610 . S
N138 S137 1.613 . S
N138 C141 1.350 . S
N139 S137 1.610 . S
N139 C140 1.351 . S
C140 C134 1.434 . S
C140 N139 1.351 . S
C140 C141 1.434 . S
C141 C132 1.421 1_565 S
C141 N138 1.350 . S
C141 C140 1.434 . S
C142 C143 1.369 . S
C142 C144 1.419 . S
C142 H146 0.930 . S
C143 C142 1.369 . S
C143 C152 1.429 . S
C144 C142 1.419 . S
C144 C145 1.363 . S
C144 H147 0.929 . S
C145 C144 1.363 . S
C145 C151 1.428 . S
H146 C142 0.930 . S
H147 C144 0.929 . S
S148 N149 1.613 . S
S148 N150 1.610 . S
N149 S148 1.613 . S
N149 C152 1.350 . S
N150 S148 1.610 . S
N150 C151 1.351 . S
C151 C145 1.428 . S
C151 N150 1.351 . S
C151 C152 1.434 . S
C152 C143 1.429 . S
C152 N149 1.350 . S
C152 C151 1.434 . S
C153 C154 1.369 1_554 S
C153 C155 1.419 . S
C153 H157 0.930 . S
C154 C153 1.369 1_556 S
C154 C163 1.429 . S
C155 C153 1.419 . S
C155 C156 1.363 1_554 S
C155 H158 0.929 . S
C156 C155 1.363 1_556 S
C156 C162 1.428 . S
H157 C153 0.930 . S
H158 C155 0.929 . S
S159 N160 1.613 . S
S159 N161 1.610 . S
N160 S159 1.613 . S
N160 C163 1.350 . S
N161 S159 1.610 . S
N161 C162 1.351 . S
C162 C156 1.428 . S
C162 N161 1.351 . S
C162 C163 1.434 . S
C163 C154 1.429 . S
C163 N160 1.350 . S
C163 C162 1.434 . S
C164 C165 1.369 1_554 S
C164 C166 1.419 . S
C164 H168 0.930 . S
C165 C164 1.369 1_556 S
C165 C174 1.429 . S
C166 C164 1.419 . S
C166 C167 1.363 1_554 S
C166 H169 0.929 . S
C167 C166 1.363 1_556 S
C167 C173 1.428 . S
H168 C164 0.930 . S
H169 C166 0.929 . S
S170 N171 1.613 . S
S170 N172 1.610 . S
N171 S170 1.613 . S
N171 C174 1.350 . S
N172 S170 1.610 . S
N172 C173 1.351 . S
C173 C167 1.428 . S
C173 N172 1.351 . S
C173 C174 1.434 . S
C174 C165 1.429 . S
C174 N171 1.350 . S
C174 C173 1.434 . S
C175 C176 1.369 . S
C175 C177 1.419 . S
C175 H179 0.930 . S
C176 C175 1.369 . S
C176 C185 1.429 . S
C177 C175 1.419 . S
C177 C178 1.363 . S
C177 H180 0.929 . S
C178 C177 1.363 . S
C178 C184 1.428 . S
H179 C175 0.930 . S
H180 C177 0.929 . S
S181 N182 1.613 . S
S181 N183 1.610 . S
N182 S181 1.613 . S
N182 C185 1.350 . S
N183 S181 1.610 . S
N183 C184 1.351 . S
C184 C178 1.428 . S
C184 N183 1.351 . S
C184 C185 1.434 . S
C185 C176 1.429 . S
C185 N182 1.350 . S
C185 C184 1.434 . S
C186 C187 1.369 . S
C186 C188 1.419 . S
C186 H190 0.930 . S
C187 C186 1.369 . S
C187 C196 1.429 1_554 S
C188 C186 1.419 . S
C188 C189 1.363 . S
C188 H191 0.929 . S
C189 C188 1.363 . S
C189 C195 1.428 1_554 S
H190 C186 0.930 . S
H191 C188 0.929 . S
S192 N193 1.613 . S
S192 N194 1.610 . S
N193 S192 1.613 . S
N193 C196 1.350 . S
N194 S192 1.610 . S
N194 C195 1.351 . S
C195 C189 1.428 1_556 S
C195 N194 1.351 . S
C195 C196 1.434 . S
C196 C187 1.429 1_556 S
C196 N193 1.350 . S
C196 C195 1.434 . S
C197 C198 1.369 1_556 S
C197 C199 1.419 . S
C197 H201 0.930 . S
C198 C197 1.369 1_554 S
C198 C207 1.429 . S
C199 C197 1.419 . S
C199 C200 1.363 1_556 S
C199 H202 0.929 . S
C200 C199 1.363 1_554 S
C200 C206 1.428 . S
H201 C197 0.930 . S
H202 C199 0.929 . S
S203 N204 1.613 . S
S203 N205 1.610 . S
N204 S203 1.613 . S
N204 C207 1.350 . S
N205 S203 1.610 . S
N205 C206 1.351 . S
C206 C200 1.428 . S
C206 N205 1.351 . S
C206 C207 1.434 . S
C207 C198 1.429 . S
C207 N204 1.350 . S
C207 C206 1.434 . S
C208 C209 1.369 . S
C208 C210 1.419 . S
C208 H212 0.930 . S
C209 C208 1.369 . S
C209 C218 1.429 1_554 S
C210 C208 1.419 . S
C210 C211 1.363 . S
C210 H213 0.929 . S
C211 C210 1.363 . S
C211 C217 1.428 1_554 S
H212 C208 0.930 . S
H213 C210 0.929 . S
S214 N215 1.613 . S
S214 N216 1.610 . S
N215 S214 1.613 . S
N215 C218 1.350 . S
N216 S214 1.610 . S
N216 C217 1.351 . S
C217 C211 1.428 1_556 S
C217 N216 1.351 . S
C217 C218 1.434 . S
C218 C209 1.429 1_556 S
C218 N215 1.350 . S
C218 C217 1.434 . S
C121 C9 1.448 . S
C123 C18 1.456 . S
C132 C49 1.454 . S
C134 C58 1.446 . S
C143 C98 1.451 . S
C145 C89 1.458 . S
C154 C19 2.659 1_556 S
C156 C90 2.578 1_556 S
C165 C46 0.959 . S
C167 C6 0.958 . S
C176 C59 2.302 . S
C178 C86 2.190 1_556 S
C187 C10 2.657 1_554 S
C189 C99 2.576 1_554 S
C198 C15 0.953 . S
C200 C55 0.962 . S
C209 C95 2.191 . S
C211 C50 2.301 . S
