# Generated by pormake.
# Topology pcu, (6)-cn, num edge types: 1
# Building blocks:
#     Node 0, Type 0, BuildingBlock: KUMBUR_clean_sbu_0, # of connection points: 6
#     Edge 1, Type (0, 0), BuildingBlock: MIFKUJ_clean_linker_0, # of connection points: 2
#     Edge 2, Type (0, 0), BuildingBlock: MIFKUJ_clean_linker_0, # of connection points: 2
#     Edge 3, Type (0, 0), BuildingBlock: MIFKUJ_clean_linker_0, # of connection points: 2
# Relax obj value: 0.000
# Max RMSD: 0.000
# Mean RMSD: 0.000
data_MOF--net-pcu--node1-KUMBUR_clean_sbu_0--edge1-MIFKUJ_clean_linker_0
_symmetry_space_group_name_H-M    P1
_symmetry_Int_Tables_number       1
_symmetry_cell_setting            triclinic
loop_
_symmetry_equiv_pos_as_xyz
'x, y, z'
_cell_length_a     18.285187
_cell_length_b     28.765388
_cell_length_c     19.714503
_cell_angle_alpha  115.58868
_cell_angle_beta   73.679369
_cell_angle_gamma 116.72086
loop_
_atom_site_label
_atom_site_type_symbol
_atom_site_fract_x
_atom_site_fract_y
_atom_site_fract_z
_atom_type_partial_charge
Tb0 Tb 0.08942 0.0794 0.02748 0.0
C1 C 0.82154 0.85771 0.87113 0.0
C2 C 0.69798 0.86419 0.9536 0.0
C3 C 0.69017 0.81026 0.81924 0.0
C4 C 0.78387 0.87824 0.94199 0.0
C5 C 0.77491 0.82166 0.8093 0.0
C6 C 0.65173 0.83167 0.89138 0.0
C7 C 0.8967 0.8049 0.73602 0.0
N8 N 0.90303 0.8691 0.86447 0.0
C9 C 0.94012 0.84099 0.79926 0.0
C10 C 0.81413 0.79613 0.74055 0.0
Tb11 Tb 0.97026 0.92945 0.96992 0.0
N12 N 0.8308 0.90872 0.00041 0.0
C13 C 0.79392 0.92244 0.07319 0.0
C14 C 0.66095 0.88153 0.02756 0.0
C15 C 0.70895 0.90983 0.0877 0.0
H16 H 1.00417 0.848 0.7952 0.0
H17 H 0.68068 0.9223 0.14533 0.0
H18 H 0.58587 0.82114 0.8989 0.0
H19 H 0.92704 0.78409 0.6838 0.0
H20 H 0.82964 0.94473 0.12062 0.0
H21 H 0.37891 0.08659 0.85189 0.0
H22 H 0.59521 0.87184 0.03895 0.0
H23 H 0.05561 0.1608 0.20227 0.0
H24 H 0.22995 0.06414 0.87669 0.0
H25 H 0.13282 0.22468 0.31362 0.0
H26 H 0.65336 0.78335 0.77222 0.0
H27 H 0.46447 0.13703 0.95819 0.0
H28 H 0.47391 0.18771 0.09823 0.0
H29 H 0.78053 0.76801 0.69163 0.0
H30 H 0.40649 0.22546 0.22497 0.0
N31 N 0.22887 0.10015 0.99689 0.0
C32 C 0.26571 0.08643 0.9241 0.0
C33 C 0.39873 0.12735 0.96963 0.0
C34 C 0.36175 0.14467 0.04362 0.0
C35 C 0.35067 0.09904 0.90953 0.0
C36 C 0.27585 0.13062 0.05528 0.0
H37 H 0.27935 0.24076 0.30567 0.0
N38 N 0.15672 0.13971 0.1329 0.0
C39 C 0.16313 0.20388 0.26137 0.0
C40 C 0.23822 0.15111 0.12618 0.0
C41 C 0.11966 0.16781 0.19815 0.0
C42 C 0.24571 0.21266 0.25678 0.0
C43 C 0.2849 0.18715 0.18798 0.0
O44 O 0.04896 0.14473 0.05884 0.0
O45 O 0.97211 0.01183 0.00252 0.0
O46 O 0.97762 0.95215 0.87499 0.0
O47 O 0.08499 0.04039 0.90386 0.0
O48 O 0.97137 0.08277 0.09127 0.0
O49 O 0.13445 0.12877 0.96001 0.0
O50 O 1.01067 0.86411 0.93866 0.0
O51 O 0.08748 0.99701 0.99479 0.0
O52 O 0.08213 0.05666 0.12235 0.0
O53 O 0.97464 0.96847 0.09355 0.0
O54 O 0.08838 0.92607 0.90626 0.0
O55 O 0.92517 0.88013 0.03747 0.0
C56 C 0.92477 0.03425 0.05126 0.0
C57 C 0.14409 0.22192 0.02512 0.0
C58 C 0.16056 0.31401 0.03521 0.0
C59 C 0.11522 0.256 0.01467 0.0
C60 C 0.23455 0.33707 0.0674 0.0
C61 C 0.21872 0.24594 0.05591 0.0
C62 C 0.26334 0.30321 0.0773 0.0
C63 C 0.03279 0.99593 0.85744 0.0
C64 C 0.09564 0.16156 0.00409 0.0
C65 C 0.36965 0.19856 0.17797 0.0
C66 C 0.40804 0.17718 0.1058 0.0
C67 C 0.13494 0.97464 0.94619 0.0
C68 C 0.91548 0.78696 0.97243 0.0
C69 C 0.94433 0.75287 0.98289 0.0
C70 C 0.89897 0.69487 0.96236 0.0
C71 C 0.82496 0.67182 0.93019 0.0
C72 C 0.84084 0.76295 0.94165 0.0
C73 C 0.79619 0.70569 0.9203 0.0
C74 C 1.02692 0.0129 0.13992 0.0
C75 C 0.96396 0.84731 0.99342 0.0
H76 H 0.05824 0.23712 0.98955 0.0
H77 H 0.2701 0.3815 0.08569 0.0
H78 H 0.24265 0.22057 0.06336 0.0
H79 H 0.32052 0.32146 0.10173 0.0
H80 H 1.00132 0.77174 0.00798 0.0
H81 H 0.7894 0.62739 0.91192 0.0
H82 H 0.81692 0.78833 0.9342 0.0
H83 H 0.739 0.68744 0.89588 0.0
H84 H 0.99552 0.92238 0.17206 0.0
H85 H 0.99727 0.91941 0.29354 0.0
H86 H 0.05616 0.09663 0.39723 0.0
H87 H 0.05525 0.09958 0.27561 0.0
H88 H 0.14823 0.06924 0.44331 0.0
H89 H 0.85931 0.99928 0.42115 0.0
H90 H 0.73255 0.93743 0.35812 0.0
H91 H 0.75556 0.79503 0.35719 0.0
H92 H 0.88316 0.85597 0.41925 0.0
H93 H 0.06427 0.08643 0.82524 0.0
H94 H 0.06256 0.08938 0.70373 0.0
H95 H 1.00358 0.91215 0.60013 0.0
H96 H 1.00444 0.90922 0.72177 0.0
H97 H 0.91157 0.93952 0.55398 0.0
H98 H 0.20047 0.00946 0.57615 0.0
H99 H 0.32724 0.0713 0.63918 0.0
H100 H 0.3043 0.21372 0.64005 0.0
H101 H 0.17669 0.15278 0.57801 0.0
C102 C 1.00824 0.96065 0.22089 0.0
C103 C 1.02569 0.01142 0.21422 0.0
C104 C 1.0092 0.9589 0.29034 0.0
C105 C 1.02594 0.00771 0.35487 0.0
C106 C 0.04341 0.05844 0.34823 0.0
C107 C 0.04332 0.06023 0.27854 0.0
C108 C 1.02591 0.00602 0.42914 0.0
C109 C 0.09602 0.0414 0.46799 0.0
C110 C 0.95858 0.96879 0.46058 0.0
C111 C 0.88118 0.93217 0.42427 0.0
C112 C 0.8376 0.95475 0.40711 0.0
C113 C 0.76558 0.91986 0.37159 0.0
C114 C 0.73612 0.86233 0.35351 0.0
C115 C 0.77849 0.83959 0.37116 0.0
C116 C 0.85062 0.87429 0.40657 0.0
C117 C 0.05154 0.04815 0.77642 0.0
C118 C 0.03405 0.99739 0.78313 0.0
C119 C 0.0506 0.04989 0.70696 0.0
C120 C 0.03385 1.00107 0.64244 0.0
C121 C 1.01634 0.95034 0.64912 0.0
C122 C 1.01641 0.94857 0.71882 0.0
C123 C 0.03389 1.00274 0.56816 0.0
C124 C 0.96378 0.96736 0.5293 0.0
C125 C 0.10122 0.03997 0.53671 0.0
C126 C 0.17863 0.07659 0.57301 0.0
C127 C 0.2222 0.054 0.59018 0.0
C128 C 0.29422 0.08888 0.6257 0.0
C129 C 0.3237 0.14641 0.64375 0.0
C130 C 0.28135 0.16915 0.6261 0.0
C131 C 0.20922 0.13446 0.5907 0.0
H132 H 0.37944 0.17335 0.6713 0.0
H133 H 0.68039 0.83538 0.32596 0.0
H134 H 0.25172 0.94466 0.83894 0.0
H135 H 0.38577 0.95401 0.85695 0.0
H136 H 0.3358 0.03105 0.09795 0.0
H137 H 0.20148 0.02085 0.08014 0.0
H138 H 0.49377 0.08719 0.04231 0.0
H139 H 0.31657 0.90056 0.02624 0.0
H140 H 0.21733 0.80516 0.97 0.0
H141 H 0.39277 0.77502 0.77575 0.0
H142 H 0.49258 0.87065 0.83016 0.0
H143 H 0.80816 0.06439 0.15863 0.0
H144 H 0.67409 0.0551 0.14074 0.0
H145 H 0.72376 0.97791 0.89973 0.0
H146 H 0.85809 0.98804 0.91742 0.0
H147 H 0.56591 0.92186 0.95545 0.0
H148 H 0.74309 0.10848 0.97147 0.0
H149 H 0.84233 0.20389 0.02768 0.0
H150 H 0.66695 0.23404 0.22198 0.0
H151 H 0.56713 0.13841 0.16761 0.0
C152 C 0.26974 0.96384 0.89565 0.0
C153 C 0.21735 0.98353 0.95791 0.0
C154 C 0.34605 0.969 0.90592 0.0
C155 C 0.37077 0.99321 0.97881 0.0
C156 C 0.3182 0.01256 0.04118 0.0
C157 C 0.24164 0.00703 0.03091 0.0
C158 C 0.45117 0.99789 0.99003 0.0
C159 C 0.50918 0.05101 0.02427 0.0
C160 C 0.47182 0.95067 0.96487 0.0
C161 C 0.41172 0.89313 0.93187 0.0
C162 C 0.33371 0.87385 0.97114 0.0
C163 C 0.27738 0.81966 0.93966 0.0
C164 C 0.29863 0.78411 0.86924 0.0
C165 C 0.37631 0.80265 0.83022 0.0
C166 C 0.43279 0.85686 0.86135 0.0
C167 C 0.79006 0.0452 0.10195 0.0
C168 C 0.84238 0.02545 0.03965 0.0
C169 C 0.71375 0.04008 0.09175 0.0
C170 C 0.68894 0.01584 0.01888 0.0
C171 C 0.74143 0.99643 0.95648 0.0
C172 C 0.81799 1.00192 0.96668 0.0
C173 C 0.60852 0.01116 0.00773 0.0
C174 C 0.55049 0.95804 0.9735 0.0
C175 C 0.58786 0.05837 0.03289 0.0
C176 C 0.64796 0.11592 0.06587 0.0
C177 C 0.72596 0.1352 0.02658 0.0
C178 C 0.78229 0.18939 0.05804 0.0
C179 C 0.76106 0.22494 0.12846 0.0
C180 C 0.68339 0.20641 0.16751 0.0
C181 C 0.62692 0.1522 0.1364 0.0
H182 H 0.80471 0.26691 0.15266 0.0
H183 H 0.25498 0.74215 0.84502 0.0
H184 H 0.05779 0.70098 0.94452 0.0
H185 H 0.1028 0.63789 0.95909 0.0
H186 H 0.85059 0.54085 0.01771 0.0
H187 H 0.80569 0.60531 0.00758 0.0
H188 H 0.94362 0.54945 0.10431 0.0
H189 H 0.95666 0.50052 0.83562 0.0
H190 H 1.0006 0.51897 0.71638 0.0
H191 H 0.2539 0.57285 0.74522 0.0
H192 H 0.21145 0.55527 0.86509 0.0
H193 H 1.00173 0.30787 0.05303 0.0
H194 H 0.9567 0.37095 0.03846 0.0
H195 H 0.2089 0.46802 0.97987 0.0
H196 H 0.25382 0.40357 0.99002 0.0
H197 H 0.11586 0.4594 0.89325 0.0
H198 H 0.10281 0.50834 0.16196 0.0
H199 H 0.05887 0.48989 0.28118 0.0
H200 H 0.80557 0.43598 0.25233 0.0
H201 H 0.84802 0.45356 0.13246 0.0
C202 C 1.01194 0.66673 0.96164 0.0
C203 C 0.92785 0.65806 0.974 0.0
C204 C 0.03772 0.63019 0.96904 0.0
C205 C 0.97996 0.58375 0.98798 0.0
C206 C 0.8964 0.576 0.00247 0.0
C207 C 0.8707 0.6127 0.99579 0.0
C208 C 1.00591 0.54279 0.99209 0.0
C209 C 0.98049 0.52931 0.05774 0.0
C210 C 0.05536 0.51709 0.93208 0.0
C211 C 0.0809 0.52704 0.8596 0.0
C212 C 1.02174 0.51658 0.81671 0.0
C213 C 0.04637 0.52684 0.749 0.0
C214 C 0.12999 0.54719 0.72333 0.0
C215 C 0.18915 0.55713 0.7652 0.0
C216 C 0.16484 0.54697 0.83297 0.0
C217 C 0.04757 0.34212 0.03592 0.0
C218 C 0.13167 0.35081 0.02357 0.0
C219 C 1.02178 0.37866 0.02852 0.0
C220 C 0.07953 0.4251 0.00959 0.0
C221 C 0.1631 0.43287 0.99511 0.0
C222 C 0.18881 0.39618 0.0018 0.0
C223 C 0.05357 0.46606 0.00547 0.0
C224 C 0.07899 0.47954 0.93983 0.0
C225 C 1.00412 0.49175 0.06548 0.0
C226 C 0.97857 0.4818 0.13796 0.0
C227 C 0.03773 0.49227 0.18086 0.0
C228 C 1.0131 0.48201 0.24856 0.0
C229 C 0.92948 0.46165 0.27422 0.0
C230 C 0.87032 0.4517 0.23235 0.0
C231 C 0.89463 0.46187 0.16458 0.0
H232 H 0.91053 0.45369 0.32662 0.0
H233 H 0.14894 0.55514 0.67093 0.0
loop_
_geom_bond_atom_site_label_1
_geom_bond_atom_site_label_2
_geom_bond_distance
_geom_bond_site_symmetry_2
_ccdc_geom_bond_type
Tb0 N31 2.660 1_554 S
Tb0 N38 2.600 . S
Tb0 O44 2.546 . S
Tb0 O45 2.610 1_444 S
Tb0 O47 2.320 1_554 S
Tb0 O48 2.552 1_455 S
Tb0 O49 2.413 . S
Tb0 O51 2.362 . S
Tb0 O52 2.422 1_455 S
Tb0 C64 2.833 . S
C1 C4 1.432 . S
C1 C5 1.414 . S
C1 N8 1.359 . S
C2 C4 1.417 . S
C2 C6 1.432 . S
C2 C14 1.410 1_556 S
C3 C5 1.444 . S
C3 C6 1.317 . S
C3 H26 0.929 . S
C4 C1 1.432 . S
C4 C2 1.417 . S
C4 N12 1.360 1_556 S
C5 C1 1.414 . S
C5 C3 1.444 . S
C5 C10 1.385 . S
C6 C2 1.432 . S
C6 C3 1.317 . S
C6 H18 0.930 . S
C7 C9 1.392 . S
C7 C10 1.370 . S
C7 H19 0.931 . S
N8 C1 1.359 . S
N8 C9 1.327 . S
N8 Tb11 2.600 . S
C9 C7 1.392 . S
C9 N8 1.327 . S
C9 H16 0.930 . S
C10 C5 1.385 . S
C10 C7 1.370 . S
C10 H29 0.930 . S
Tb11 N8 2.600 . S
Tb11 N12 2.660 1_556 S
Tb11 O45 2.362 . S
Tb11 O46 2.422 1_655 S
Tb11 O50 2.546 . S
Tb11 O51 2.610 1_666 S
Tb11 O53 2.320 1_556 S
Tb11 O54 2.552 1_655 S
Tb11 O55 2.413 . S
Tb11 C75 2.833 . S
N12 C4 1.360 1_554 S
N12 Tb11 2.660 1_554 S
N12 C13 1.305 . S
C13 N12 1.305 . S
C13 C15 1.407 . S
C13 H20 0.930 . S
C14 C2 1.410 1_554 S
C14 C15 1.345 . S
C14 H22 0.930 . S
C15 C13 1.407 . S
C15 C14 1.345 . S
C15 H17 0.930 . S
H16 C9 0.930 . S
H17 C15 0.930 . S
H18 C6 0.930 . S
H19 C7 0.931 . S
H20 C13 0.930 . S
H21 C35 0.930 . S
H22 C14 0.930 . S
H23 C41 0.930 . S
H24 C32 0.930 . S
H25 C39 0.931 . S
H26 C3 0.929 . S
H27 C33 0.930 . S
H28 C66 0.930 . S
H29 C10 0.930 . S
H30 C65 0.929 . S
N31 Tb0 2.660 1_556 S
N31 C32 1.305 . S
N31 C36 1.360 1_556 S
C32 H24 0.930 . S
C32 N31 1.305 . S
C32 C35 1.407 . S
C33 H27 0.930 . S
C33 C34 1.410 1_556 S
C33 C35 1.345 . S
C34 C33 1.410 1_554 S
C34 C36 1.417 . S
C34 C66 1.432 . S
C35 H21 0.930 . S
C35 C32 1.407 . S
C35 C33 1.345 . S
C36 N31 1.360 1_554 S
C36 C34 1.417 . S
C36 C40 1.432 . S
H37 C42 0.930 . S
N38 Tb0 2.600 . S
N38 C40 1.359 . S
N38 C41 1.327 . S
C39 H25 0.931 . S
C39 C41 1.392 . S
C39 C42 1.370 . S
C40 C36 1.432 . S
C40 N38 1.359 . S
C40 C43 1.414 . S
C41 H23 0.930 . S
C41 N38 1.327 . S
C41 C39 1.392 . S
C42 H37 0.930 . S
C42 C39 1.370 . S
C42 C43 1.385 . S
C43 C40 1.414 . S
C43 C42 1.385 . S
C43 C65 1.444 . S
O44 Tb0 2.546 . S
O44 C64 1.251 . S
O45 Tb0 2.610 1_666 S
O45 Tb11 2.362 . S
O45 C56 1.283 1_566 S
O46 Tb11 2.422 1_455 S
O46 C63 1.257 . S
O47 Tb0 2.320 1_556 S
O47 C63 1.260 1_545 S
O48 Tb0 2.552 1_655 S
O48 C56 1.243 . S
O49 Tb0 2.413 . S
O49 C64 1.256 . S
O50 Tb11 2.546 . S
O50 C75 1.251 . S
O51 Tb0 2.362 . S
O51 Tb11 2.610 1_444 S
O51 C67 1.283 1_544 S
O52 Tb0 2.422 1_655 S
O52 C74 1.259 . S
O53 Tb11 2.320 1_554 S
O53 C74 1.260 1_565 S
O54 Tb11 2.552 1_455 S
O54 C67 1.243 . S
O55 Tb11 2.413 . S
O55 C75 1.256 . S
C56 O45 1.283 1_544 S
C56 O48 1.243 . S
C57 C59 1.382 . S
C57 C61 1.393 . S
C57 C64 1.500 . S
C58 C59 1.400 . S
C58 C60 1.384 . S
C59 C57 1.382 . S
C59 C58 1.400 . S
C59 H76 0.930 1_554 S
C60 C58 1.384 . S
C60 C62 1.392 . S
C60 H77 0.931 . S
C61 C57 1.393 . S
C61 C62 1.401 . S
C61 H78 0.930 . S
C62 C60 1.392 . S
C62 C61 1.401 . S
C62 H79 0.930 . S
C63 O46 1.257 . S
C63 O47 1.260 1_565 S
C64 Tb0 2.833 . S
C64 O44 1.251 . S
C64 O49 1.256 . S
C64 C57 1.500 . S
C65 H30 0.929 . S
C65 C43 1.444 . S
C65 C66 1.317 . S
C66 H28 0.930 . S
C66 C34 1.432 . S
C66 C65 1.317 . S
C67 O51 1.283 1_566 S
C67 O54 1.243 . S
C68 C69 1.382 . S
C68 C72 1.393 . S
C68 C75 1.500 . S
C69 C68 1.382 . S
C69 C70 1.400 . S
C69 H80 0.930 1_556 S
C70 C69 1.400 . S
C70 C71 1.384 . S
C71 C70 1.384 . S
C71 C73 1.392 . S
C71 H81 0.931 . S
C72 C68 1.393 . S
C72 C73 1.401 . S
C72 H82 0.930 . S
C73 C71 1.392 . S
C73 C72 1.401 . S
C73 H83 0.930 . S
C74 O52 1.259 . S
C74 O53 1.260 1_545 S
C75 Tb11 2.833 . S
C75 O50 1.251 . S
C75 O55 1.256 . S
C75 C68 1.500 . S
H76 C59 0.930 1_556 S
H77 C60 0.931 . S
H78 C61 0.930 . S
H79 C62 0.930 . S
H80 C69 0.930 1_554 S
H81 C71 0.931 . S
H82 C72 0.930 . S
H83 C73 0.930 . S
H84 C102 0.951 . S
H85 C104 0.951 . S
H86 C106 0.950 . S
H87 C107 0.950 . S
H88 C109 0.950 . S
H89 C112 0.950 . S
H90 C113 0.950 . S
H91 C115 0.950 . S
H92 C116 0.950 . S
H93 C117 0.951 . S
H94 C119 0.951 . S
H95 C121 0.950 . S
H96 C122 0.950 . S
H97 C124 0.950 . S
H98 C127 0.950 . S
H99 C128 0.950 . S
H100 C130 0.950 . S
H101 C131 0.950 . S
C102 H84 0.951 . S
C102 C103 1.365 1_665 S
C102 C104 1.388 . S
C103 C102 1.365 1_445 S
C103 C107 1.385 . S
C104 H85 0.951 . S
C104 C102 1.388 . S
C104 C105 1.372 . S
C105 C104 1.372 . S
C105 C106 1.403 1_665 S
C105 C108 1.503 1_565 S
C106 H86 0.950 . S
C106 C105 1.403 1_445 S
C106 C107 1.374 . S
C107 H87 0.950 . S
C107 C103 1.385 . S
C107 C106 1.374 . S
C108 C105 1.503 1_545 S
C108 C109 1.373 1_655 S
C108 C110 1.389 1_545 S
C109 H88 0.950 . S
C109 C108 1.373 1_455 S
C109 C125 1.377 . S
C110 C108 1.389 1_565 S
C110 C111 1.524 . S
C110 C124 1.377 . S
C111 C110 1.524 . S
C111 C112 1.397 . S
C111 C116 1.363 . S
C112 H89 0.950 . S
C112 C111 1.397 . S
C112 C113 1.334 . S
C113 H90 0.950 . S
C113 C112 1.334 . S
C113 C114 1.287 . S
C114 C113 1.287 . S
C114 C115 1.524 . S
C114 H133 0.913 . S
C115 H91 0.950 . S
C115 C114 1.524 . S
C115 C116 1.415 . S
C116 H92 0.950 . S
C116 C111 1.363 . S
C116 C115 1.415 . S
C117 H93 0.951 . S
C117 C118 1.364 1_455 S
C117 C119 1.388 . S
C118 C117 1.364 1_655 S
C118 C122 1.385 1_545 S
C119 H94 0.951 . S
C119 C117 1.388 . S
C119 C120 1.375 . S
C120 C119 1.375 . S
C120 C121 1.397 1_445 S
C120 C123 1.516 1_545 S
C121 H95 0.950 . S
C121 C120 1.397 1_665 S
C121 C122 1.374 . S
C122 H96 0.950 . S
C122 C118 1.385 1_565 S
C122 C121 1.374 . S
C123 C120 1.516 1_565 S
C123 C124 1.377 1_455 S
C123 C125 1.375 1_565 S
C124 H97 0.950 . S
C124 C110 1.377 . S
C124 C123 1.377 1_655 S
C125 C109 1.377 . S
C125 C123 1.375 1_545 S
C125 C126 1.524 . S
C126 C125 1.524 . S
C126 C127 1.397 . S
C126 C131 1.363 . S
C127 H98 0.950 . S
C127 C126 1.397 . S
C127 C128 1.334 . S
C128 H99 0.950 . S
C128 C127 1.334 . S
C128 C129 1.287 . S
C129 C128 1.287 . S
C129 C130 1.524 . S
C129 H132 0.999 . S
C130 H100 0.950 . S
C130 C129 1.524 . S
C130 C131 1.415 . S
C131 H101 0.950 . S
C131 C126 1.363 . S
C131 C130 1.415 . S
H132 C129 0.999 . S
H133 C114 0.913 . S
H134 C152 0.951 . S
H135 C154 0.951 . S
H136 C156 0.950 . S
H137 C157 0.950 . S
H138 C159 0.950 . S
H139 C162 0.950 . S
H140 C163 0.950 1_565 S
H141 C165 0.950 . S
H142 C166 0.950 . S
H143 C167 0.951 . S
H144 C169 0.951 . S
H145 C171 0.950 . S
H146 C172 0.950 . S
H147 C174 0.950 . S
H148 C177 0.950 . S
H149 C178 0.950 1_545 S
H150 C180 0.950 . S
H151 C181 0.950 . S
C152 H134 0.951 . S
C152 C153 1.366 . S
C152 C154 1.388 . S
C153 C152 1.366 . S
C153 C157 1.385 1_544 S
C154 H135 0.951 . S
C154 C152 1.388 . S
C154 C155 1.342 1_544 S
C155 C154 1.342 1_566 S
C155 C156 1.426 . S
C155 C158 1.511 . S
C156 H136 0.950 . S
C156 C155 1.426 . S
C156 C157 1.374 . S
C157 H137 0.950 . S
C157 C153 1.385 1_566 S
C157 C156 1.374 . S
C158 C155 1.511 . S
C158 C159 1.373 1_556 S
C158 C160 1.389 1_565 S
C159 H138 0.950 . S
C159 C158 1.373 1_554 S
C159 C175 1.377 . S
C160 C158 1.389 1_545 S
C160 C161 1.524 . S
C160 C174 1.377 . S
C161 C160 1.524 . S
C161 C162 1.397 1_545 S
C161 C166 1.363 . S
C162 H139 0.950 . S
C162 C161 1.397 1_565 S
C162 C163 1.334 1_565 S
C163 H140 0.950 1_545 S
C163 C162 1.334 1_545 S
C163 C164 1.287 . S
C164 C163 1.287 . S
C164 C165 1.524 . S
C164 H183 0.913 . S
C165 H141 0.950 . S
C165 C164 1.524 . S
C165 C166 1.415 . S
C166 H142 0.950 . S
C166 C161 1.363 . S
C166 C165 1.415 . S
C167 H143 0.951 . S
C167 C168 1.366 1_565 S
C167 C169 1.388 . S
C168 C167 1.366 1_545 S
C168 C172 1.384 1_556 S
C169 H144 0.951 . S
C169 C167 1.388 . S
C169 C170 1.366 1_566 S
C170 C169 1.366 1_544 S
C170 C171 1.414 . S
C170 C173 1.499 . S
C171 H145 0.950 . S
C171 C170 1.414 . S
C171 C172 1.374 . S
C172 H146 0.950 . S
C172 C168 1.384 1_554 S
C172 C171 1.374 . S
C173 C170 1.499 . S
C173 C174 1.373 1_554 S
C173 C175 1.389 1_545 S
C174 H147 0.950 . S
C174 C160 1.377 . S
C174 C173 1.373 1_556 S
C175 C159 1.377 . S
C175 C173 1.389 1_565 S
C175 C176 1.524 . S
C176 C175 1.524 . S
C176 C177 1.397 1_565 S
C176 C181 1.363 . S
C177 H148 0.950 . S
C177 C176 1.397 1_545 S
C177 C178 1.334 1_545 S
C178 H149 0.950 1_565 S
C178 C177 1.334 1_565 S
C178 C179 1.287 . S
C179 C178 1.287 . S
C179 C180 1.524 . S
C179 H182 0.999 . S
C180 H150 0.950 . S
C180 C179 1.524 . S
C180 C181 1.415 . S
C181 H151 0.950 . S
C181 C176 1.363 . S
C181 C180 1.415 . S
H182 C179 0.999 . S
H183 C164 0.913 . S
H184 C202 0.951 . S
H185 C204 0.951 . S
H186 C206 0.947 1_554 S
H187 C207 0.948 . S
H188 C209 0.950 . S
H189 C212 0.950 . S
H190 C213 0.950 . S
H191 C215 0.950 . S
H192 C216 0.950 . S
H193 C217 0.951 . S
H194 C219 0.951 . S
H195 C221 0.947 1_556 S
H196 C222 0.949 . S
H197 C224 0.950 . S
H198 C227 0.950 . S
H199 C228 0.950 . S
H200 C230 0.950 . S
H201 C231 0.950 . S
C202 H184 0.951 . S
C202 C203 1.366 1_556 S
C202 C204 1.388 . S
C203 C202 1.366 1_554 S
C203 C207 1.384 1_455 S
C204 H185 0.951 . S
C204 C202 1.388 . S
C204 C205 1.367 . S
C205 C204 1.367 . S
C205 C206 1.409 1_455 S
C205 C208 1.500 1_455 S
C206 H186 0.947 1_556 S
C206 C205 1.409 1_655 S
C206 C207 1.381 1_556 S
C207 H187 0.948 . S
C207 C203 1.384 1_655 S
C207 C206 1.381 1_554 S
C208 C205 1.500 1_655 S
C208 C209 1.373 1_556 S
C208 C210 1.389 1_655 S
C209 H188 0.950 . S
C209 C208 1.373 1_554 S
C209 C225 1.377 . S
C210 C208 1.389 1_455 S
C210 C211 1.524 . S
C210 C224 1.377 . S
C211 C210 1.524 . S
C211 C212 1.397 . S
C211 C216 1.363 . S
C212 H189 0.950 . S
C212 C211 1.397 . S
C212 C213 1.334 . S
C213 H190 0.950 . S
C213 C212 1.334 . S
C213 C214 1.287 . S
C214 C213 1.287 . S
C214 C215 1.524 . S
C214 H233 0.913 . S
C215 H191 0.950 . S
C215 C214 1.524 . S
C215 C216 1.415 . S
C216 H192 0.950 . S
C216 C211 1.363 . S
C216 C215 1.415 . S
C217 H193 0.951 . S
C217 C218 1.364 1_654 S
C217 C219 1.388 . S
C218 C217 1.364 1_456 S
C218 C222 1.384 . S
C219 H194 0.951 . S
C219 C217 1.388 . S
C219 C220 1.365 . S
C220 C219 1.365 . S
C220 C221 1.412 1_655 S
C220 C223 1.498 1_655 S
C221 H195 0.947 1_554 S
C221 C220 1.412 1_455 S
C221 C222 1.381 1_554 S
C222 H196 0.949 . S
C222 C218 1.384 . S
C222 C221 1.381 1_556 S
C223 C220 1.498 1_455 S
C223 C224 1.373 1_554 S
C223 C225 1.389 1_455 S
C224 H197 0.950 . S
C224 C210 1.377 . S
C224 C223 1.373 1_556 S
C225 C209 1.377 . S
C225 C223 1.389 1_655 S
C225 C226 1.524 . S
C226 C225 1.524 . S
C226 C227 1.397 . S
C226 C231 1.363 . S
C227 H198 0.950 . S
C227 C226 1.397 . S
C227 C228 1.334 . S
C228 H199 0.950 . S
C228 C227 1.334 . S
C228 C229 1.287 . S
C229 C228 1.287 . S
C229 C230 1.524 . S
C229 H232 0.999 . S
C230 H200 0.950 . S
C230 C229 1.524 . S
C230 C231 1.415 . S
C231 H201 0.950 . S
C231 C226 1.363 . S
C231 C230 1.415 . S
H232 C229 0.999 . S
H233 C214 0.913 . S
C103 C74 1.472 1_455 S
C118 C63 1.474 1_645 S
C153 C67 1.435 1_544 S
C168 C56 1.436 1_556 S
C203 C70 1.320 1_454 S
C218 C58 1.323 1_556 S
