# Generated by pormake.
# Topology qzd, (4)-cn, num edge types: 1
# Building blocks:
#     Node 0, Type 0, BuildingBlock: ESEHIV_clean_sbu_0, # of connection points: 4
#     Node 1, Type 0, BuildingBlock: ESEHIV_clean_sbu_0, # of connection points: 4
#     Node 2, Type 0, BuildingBlock: ESEHIV_clean_sbu_0, # of connection points: 4
#     Edge 3, Type (0, 0), BuildingBlock: UVAHIK_clean_linker_0, # of connection points: 2
#     Edge 4, Type (0, 0), BuildingBlock: UVAHIK_clean_linker_0, # of connection points: 2
#     Edge 5, Type (0, 0), BuildingBlock: UVAHIK_clean_linker_0, # of connection points: 2
#     Edge 6, Type (0, 0), BuildingBlock: UVAHIK_clean_linker_0, # of connection points: 2
#     Edge 7, Type (0, 0), BuildingBlock: UVAHIK_clean_linker_0, # of connection points: 2
#     Edge 8, Type (0, 0), BuildingBlock: UVAHIK_clean_linker_0, # of connection points: 2
# Relax obj value: 0.000
# Max RMSD: 0.159
# Mean RMSD: 0.075
data_MOF--net-qzd--node1-ESEHIV_clean_sbu_0--edge1-UVAHIK_clean_linker_0
_symmetry_space_group_name_H-M    P1
_symmetry_Int_Tables_number       1
_symmetry_cell_setting            triclinic
loop_
_symmetry_equiv_pos_as_xyz
'x, y, z'
_cell_length_a     19.122691
_cell_length_b     21.588289
_cell_length_c     59.584747
_cell_angle_alpha  100.04337
_cell_angle_beta   98.891065
_cell_angle_gamma 116.35022
loop_
_atom_site_label
_atom_site_type_symbol
_atom_site_fract_x
_atom_site_fract_y
_atom_site_fract_z
_atom_type_partial_charge
Cu0 Cu 0.19645 0.1355 0.03116 0.0
N1 N 0.17442 0.07739 0.05194 0.0
N2 N 0.15771 0.04785 0.08564 0.0
C3 C 0.17475 0.10011 0.07448 0.0
C4 C 0.14656 0.98985 0.06944 0.0
C5 C 0.15673 1.00819 0.04864 0.0
O6 O 0.13898 0.1902 0.03569 0.0
C7 C 0.35026 0.15609 0.03769 0.0
O8 O 0.30716 0.08576 0.03223 0.0
H9 H 0.18847 0.15453 0.08257 0.0
H10 H 0.1523 0.97364 0.03238 0.0
N11 N 0.15929 0.08168 0.9996 0.0
N12 N 0.14846 0.05608 0.96081 0.0
C13 C 0.18733 0.1064 0.98184 0.0
C14 C 0.10024 1.01345 0.98952 0.0
C15 C 0.0937 0.99736 0.96557 0.0
C16 C 0.06485 0.15203 0.03504 0.0
O17 O 0.0345 0.08199 0.03054 0.0
H18 H 0.23567 0.16028 0.98436 0.0
H19 H 0.06364 0.97825 0.99881 0.0
O20 O 0.3137 0.19313 0.03816 0.0
H21 H 0.13138 0.93774 0.07229 0.0
H22 H 0.05065 0.94702 0.95262 0.0
Cu23 Cu 0.06385 0.15715 0.36714 0.0
N24 N 0.10348 0.25652 0.37515 0.0
N25 N 0.18319 0.37288 0.37849 0.0
C26 C 0.1704 0.30508 0.37077 0.0
C27 C 0.12174 0.36641 0.38818 0.0
C28 C 0.07281 0.29463 0.38613 0.0
O29 O 0.09355 0.13094 0.33856 0.0
C30 C 0.07579 0.13779 0.41156 0.0
O31 O 1.0206 0.15848 0.41004 0.0
H32 H 0.20797 0.29048 0.36168 0.0
H33 H 1.01868 0.27184 0.39219 0.0
N34 N 0.95087 0.10756 0.36045 0.0
N35 N 0.82619 1.02115 0.3576 0.0
C36 C 0.90597 0.04156 0.3629 0.0
C37 C 0.89791 0.12973 0.3532 0.0
C38 C 0.821 0.07661 0.35144 0.0
C39 C 0.07075 0.15139 0.32138 0.0
O40 O 0.03011 0.18644 0.32438 0.0
H41 H 0.93193 1.01028 0.36918 0.0
H42 H 0.91412 0.18115 0.34966 0.0
O43 O 0.10667 0.13346 0.39427 0.0
H44 H 0.11305 0.41034 0.39643 0.0
H45 H 0.76568 0.0788 0.34597 0.0
Cu46 Cu 0.05859 0.04517 0.68113 0.0
N47 N 1.00031 0.09465 0.68495 0.0
N48 N 0.96273 0.17915 0.68535 0.0
C49 C 1.01301 0.15523 0.67883 0.0
C50 C 0.9167 0.13147 0.69593 0.0
C51 C 0.94022 0.07964 0.69571 0.0
O52 O 0.10687 0.06409 0.65493 0.0
C53 C 0.15919 0.12537 0.72775 0.0
O54 O 0.14573 0.17735 0.7235 0.0
H55 H 0.05871 0.18136 0.66996 0.0
H56 H 0.91644 0.03494 0.70332 0.0
N57 N 0.98907 0.94648 0.67377 0.0
N58 N 0.94777 0.82985 0.67002 0.0
C59 C 1.01159 0.89694 0.6767 0.0
C60 C 0.90825 0.9098 0.66496 0.0
C61 C 0.88256 0.83781 0.66262 0.0
C62 C 0.05585 0.04355 0.6351 0.0
O63 O 0.97867 1.0151 0.63446 0.0
H64 H 0.07359 0.91033 0.68399 0.0
H65 H 0.87072 0.93369 0.66048 0.0
O66 O 0.13416 0.06872 0.7111 0.0
H67 H 0.87101 0.13492 0.70394 0.0
H68 H 0.82077 0.79475 0.65575 0.0
C69 C 0.95154 0.14821 0.05119 0.0
C70 C 1.01317 0.18387 0.04063 0.0
C71 C 0.89725 0.17291 0.05508 0.0
C72 C 0.79405 0.26045 0.0308 0.0
H73 H 0.71984 0.2522 0.08778 0.0
C74 C 0.48757 0.25017 0.03684 0.0
C75 C 0.4393 0.18907 0.04362 0.0
C76 C 0.57065 0.27365 0.03985 0.0
C77 C 0.74033 0.2556 0.07185 0.0
H78 H 0.06735 0.27426 0.02618 0.0
H79 H 0.96968 0.31682 0.03242 0.0
H80 H 0.84594 0.25019 0.08687 0.0
H81 H 0.44011 0.10709 0.05991 0.0
H82 H 0.58375 0.14849 0.06561 0.0
H83 H 0.68538 0.26116 0.01533 0.0
C84 C 0.96466 0.27011 0.03793 0.0
C85 C 0.8125 0.25448 0.07133 0.0
C86 C 1.02053 0.24604 0.03445 0.0
C87 C 0.47585 0.15426 0.05448 0.0
C88 C 0.55838 0.17835 0.0579 0.0
C89 C 0.72145 0.26147 0.03131 0.0
C90 C 0.90225 0.23342 0.04821 0.0
C91 C 0.83818 0.25347 0.05048 0.0
C92 C 0.6066 0.23737 0.05023 0.0
C93 C 0.69204 0.25557 0.0515 0.0
H94 H 0.94456 0.10034 0.05623 0.0
H95 H 0.84925 0.14282 0.06271 0.0
H96 H 0.81223 0.25946 0.01446 0.0
H97 H 0.46055 0.27756 0.02826 0.0
H98 H 0.60643 0.31923 0.03375 0.0
C99 C 0.76964 0.89353 0.35806 0.0
C100 C 0.761 0.95533 0.35915 0.0
C101 C 0.70716 0.83026 0.36002 0.0
C102 C 0.52298 0.7631 0.3818 0.0
H103 H 0.47338 0.57812 0.34242 0.0
C104 C 0.23927 0.49954 0.37698 0.0
C105 C 0.24819 0.43809 0.37652 0.0
C106 C 0.30196 0.56246 0.3749 0.0
C107 C 0.48702 0.6293 0.35373 0.0
H108 H 0.67917 0.99845 0.36328 0.0
H109 H 0.56986 0.88795 0.36617 0.0
H110 H 0.58196 0.68781 0.33853 0.0
H111 H 0.33132 0.39566 0.37391 0.0
H112 H 0.44025 0.50511 0.3702 0.0
H113 H 0.42788 0.70458 0.39695 0.0
C114 C 0.62546 0.88868 0.36408 0.0
C115 C 0.54933 0.69223 0.35151 0.0
C116 C 0.68792 0.95194 0.36212 0.0
C117 C 0.32158 0.44135 0.37396 0.0
C118 C 0.38421 0.50423 0.37183 0.0
C119 C 0.46061 0.7002 0.38399 0.0
C120 C 0.63434 0.82708 0.36313 0.0
C121 C 0.56807 0.75997 0.3655 0.0
C122 C 0.37518 0.56557 0.37227 0.0
C123 C 0.4418 0.63251 0.36998 0.0
H124 H 0.82453 0.8937 0.35553 0.0
H125 H 0.71645 0.7841 0.35944 0.0
H126 H 0.53664 0.81422 0.39316 0.0
H127 H 0.18334 0.49883 0.37855 0.0
H128 H 0.2925 0.60837 0.37495 0.0
C129 C 0.8802 0.70403 0.67234 0.0
C130 C 0.94912 0.76393 0.6709 0.0
C131 C 0.88184 0.64053 0.67349 0.0
C132 C 0.99376 0.54156 0.66087 0.0
H133 H 0.88949 0.43812 0.70357 0.0
C134 C 0.03001 0.30266 0.68085 0.0
C135 C 0.96088 0.24367 0.68268 0.0
C136 C 0.02871 0.36587 0.67898 0.0
C137 C 0.9181 0.46588 0.69135 0.0
H138 H 0.07352 0.80313 0.66913 0.0
H139 H 0.07683 0.69304 0.6716 0.0
H140 H 0.88706 0.5487 0.7012 0.0
H141 H 0.8355 0.20456 0.68327 0.0
H142 H 0.83323 0.31456 0.68001 0.0
H143 H 0.02499 0.45872 0.65108 0.0
C144 C 1.02122 0.69498 0.67164 0.0
C145 C 0.91669 0.52931 0.68999 0.0
C146 C 1.0196 0.7585 0.67051 0.0
C147 C 0.89022 0.24925 0.68231 0.0
C148 C 0.88893 0.31241 0.68045 0.0
C149 C 0.99522 0.4781 0.66224 0.0
C150 C 0.95242 0.63526 0.67321 0.0
C151 C 0.95433 0.56788 0.67469 0.0
C152 C 0.95828 0.37165 0.6789 0.0
C153 C 0.95722 0.43939 0.67746 0.0
H154 H 0.82513 0.70636 0.67291 0.0
H155 H 0.82745 0.5953 0.67442 0.0
H156 H 1.02242 0.56939 0.64867 0.0
H157 H 0.08583 0.30077 0.68141 0.0
H158 H 0.08351 0.41081 0.67812 0.0
C159 C 0.11939 0.09018 0.2924 0.0
C160 C 0.08999 0.13836 0.29845 0.0
C161 C 0.13488 0.07784 0.27022 0.0
C162 C 0.17696 0.16106 0.22132 0.0
H163 H 0.08769 0.96711 0.18137 0.0
C164 C 0.13436 0.1047 0.12136 0.0
C165 C 0.15312 0.05374 0.10982 0.0
C166 C 0.1327 0.11264 0.14499 0.0
C167 C 0.11406 1.0216 0.19243 0.0
H168 H 0.05475 0.21182 0.28607 0.0
H169 H 0.08198 0.19073 0.24789 0.0
H170 H 0.07722 0.98605 0.22221 0.0
H171 H 0.18376 0.97034 0.11414 0.0
H172 H 0.18065 0.98416 0.15555 0.0
H173 H 0.21283 0.19694 0.1917 0.0
C174 C 0.09347 0.16263 0.26016 0.0
C175 C 0.10814 0.0324 0.21581 0.0
C176 C 0.07731 0.17431 0.28204 0.0
C177 C 0.16854 1.00976 0.12243 0.0
C178 C 0.16684 1.01771 0.14616 0.0
C179 C 0.18302 0.15034 0.19808 0.0
C180 C 0.12239 0.11434 0.25394 0.0
C181 C 0.13775 0.10226 0.23029 0.0
C182 C 0.1498 0.06988 0.15778 0.0
C183 C 0.14986 0.08051 0.18315 0.0
H184 H 0.12954 0.06154 0.30465 0.0
H185 H 0.1573 0.0404 0.26589 0.0
H186 H 0.20177 0.21558 0.23219 0.0
H187 H 0.12022 0.13826 0.11208 0.0
H188 H 0.11731 0.1521 0.1532 0.0
C189 C 0.16142 0.08889 0.61246 0.0
C190 C 0.08032 0.04853 0.61278 0.0
C191 C 0.18172 0.09357 0.5909 0.0
C192 C 0.10008 1.00223 0.52655 0.0
H193 H 0.22316 0.19087 0.51767 0.0
C194 C 0.03257 0.07448 0.44177 0.0
C195 C 0.09565 0.11556 0.43258 0.0
C196 C 0.04917 0.05971 0.4632 0.0
C197 C 0.19039 0.13768 0.51998 0.0
H198 H 0.95741 0.98065 0.59072 0.0
H199 H 0.99245 0.9888 0.55366 0.0
H200 H 0.21909 0.17837 0.55763 0.0
H201 H 0.2256 0.1728 0.43823 0.0
H202 H 0.2552 0.14884 0.47663 0.0
H203 H 0.06681 0.96221 0.48888 0.0
C204 C 0.04071 1.01636 0.56986 0.0
C205 C 0.18801 0.1305 0.54284 0.0
C206 C 1.02049 1.0123 0.59121 0.0
C207 C 0.17605 0.14035 0.44493 0.0
C208 C 0.19288 0.12705 0.46685 0.0
C209 C 0.10206 1.00947 0.50381 0.0
C210 C 0.12137 0.05701 0.56936 0.0
C211 C 0.13976 0.06307 0.54622 0.0
C212 C 0.12936 0.08703 0.47622 0.0
C213 C 0.14441 0.07759 0.50023 0.0
H214 H 0.20884 0.11749 0.62881 0.0
H215 H 0.24441 0.12547 0.59105 0.0
H216 H 0.06382 0.94933 0.52864 0.0
H217 H 0.97011 0.05493 0.43256 0.0
H218 H 0.99906 0.02949 0.47011 0.0
C219 C 0.18275 0.06287 0.75747 0.0
C220 C 0.18579 0.12524 0.75249 0.0
C221 C 0.19218 0.0573 0.78064 0.0
C222 C 0.25919 0.15898 0.84368 0.0
H223 H 0.08776 0.98423 0.85011 0.0
C224 C 0.18771 0.13154 0.93336 0.0
C225 C 0.16114 0.06425 0.93803 0.0
C226 C 0.1984 0.13927 0.91112 0.0
C227 C 0.13703 0.03283 0.84872 0.0
H228 H 0.20713 0.23265 0.76824 0.0
H229 H 0.22414 0.22299 0.8087 0.0
H230 H 0.09814 0.9983 0.81097 0.0
H231 H 0.12717 0.95276 0.92322 0.0
H232 H 0.14717 0.96623 0.88455 0.0
H233 H 0.29807 0.19362 0.88147 0.0
C234 C 0.21413 0.17832 0.79464 0.0
C235 C 0.1429 0.04091 0.82622 0.0
C236 C 0.20419 0.18377 0.77142 0.0
C237 C 0.14653 1.00504 0.92005 0.0
C238 C 0.15792 1.01285 0.89787 0.0
C239 C 0.25376 0.15067 0.86624 0.0
C240 C 0.20549 0.11412 0.79939 0.0
C241 C 0.20358 0.10428 0.82342 0.0
C242 C 0.18343 0.07999 0.89303 0.0
C243 C 0.19205 0.08774 0.86906 0.0
H244 H 0.16911 1.01682 0.74336 0.0
H245 H 0.18662 1.0076 0.78381 0.0
H246 H 0.307 0.20818 0.84208 0.0
H247 H 0.19836 0.17799 0.94672 0.0
H248 H 0.21658 0.19149 0.90799 0.0
loop_
_geom_bond_atom_site_label_1
_geom_bond_atom_site_label_2
_geom_bond_distance
_geom_bond_site_symmetry_2
_ccdc_geom_bond_type
Cu0 N1 1.999 . S
Cu0 O6 1.974 1_455 S
Cu0 N11 1.985 1_554 S
Cu0 O20 1.959 . S
N1 Cu0 1.999 . S
N1 C3 1.263 1_455 S
N1 C5 1.389 . S
N2 C3 1.358 1_455 S
N2 C4 1.400 . S
C3 N1 1.263 1_655 S
C3 N2 1.358 1_655 S
C3 H9 0.930 1_545 S
C4 N2 1.400 . S
C4 C5 1.351 . S
C4 H21 0.930 . S
C5 N1 1.389 . S
C5 C4 1.351 . S
C5 H10 0.930 . S
O6 Cu0 1.974 1_655 S
O6 C16 1.282 1_545 S
C7 O8 1.261 . S
C7 O20 1.251 1_565 S
O8 C7 1.261 . S
H9 C3 0.930 1_565 S
H10 C5 0.930 . S
N11 Cu0 1.985 1_556 S
N11 C13 1.335 . S
N11 C14 1.390 1_445 S
N12 C13 1.345 . S
N12 C15 1.336 1_445 S
C13 N11 1.335 . S
C13 N12 1.345 . S
C13 H18 0.930 . S
C14 N11 1.390 1_665 S
C14 C15 1.346 . S
C14 H19 0.930 . S
C15 N12 1.336 1_665 S
C15 C14 1.346 . S
C15 H22 0.929 . S
C16 O6 1.282 1_565 S
C16 O17 1.216 . S
O17 C16 1.216 . S
H18 C13 0.930 . S
H19 C14 0.930 . S
O20 Cu0 1.959 . S
O20 C7 1.251 1_545 S
H21 C4 0.930 . S
H22 C15 0.929 . S
Cu23 N24 1.999 . S
Cu23 O29 1.974 . S
Cu23 N34 1.985 1_455 S
Cu23 O43 1.959 . S
N24 Cu23 1.999 . S
N24 C26 1.263 . S
N24 C28 1.389 . S
N25 C26 1.358 . S
N25 C27 1.400 . S
C26 N24 1.263 . S
C26 N25 1.358 . S
C26 H32 0.930 . S
C27 N25 1.400 . S
C27 C28 1.351 . S
C27 H44 0.930 . S
C28 N24 1.389 . S
C28 C27 1.351 . S
C28 H33 0.930 . S
O29 Cu23 1.974 . S
O29 C39 1.282 1_455 S
C30 O31 1.261 1_455 S
C30 O43 1.251 . S
O31 C30 1.261 1_655 S
H32 C26 0.930 . S
H33 C28 0.930 . S
N34 Cu23 1.985 1_655 S
N34 C36 1.335 1_545 S
N34 C37 1.390 1_545 S
N35 C36 1.345 . S
N35 C38 1.336 . S
C36 N34 1.335 1_565 S
C36 N35 1.345 . S
C36 H41 0.930 . S
C37 N34 1.390 1_565 S
C37 C38 1.346 . S
C37 H42 0.930 1_565 S
C38 N35 1.336 . S
C38 C37 1.346 . S
C38 H45 0.929 . S
C39 O29 1.282 1_655 S
C39 O40 1.216 . S
O40 C39 1.216 . S
H41 C36 0.930 . S
H42 C37 0.930 1_545 S
O43 Cu23 1.959 . S
O43 C30 1.251 . S
H44 C27 0.930 . S
H45 C38 0.929 . S
Cu46 N47 1.999 . S
Cu46 O52 1.974 . S
Cu46 N57 1.985 . S
Cu46 O66 1.959 . S
N47 Cu46 1.999 . S
N47 C49 1.263 . S
N47 C51 1.389 . S
N48 C49 1.358 . S
N48 C50 1.400 . S
C49 N47 1.263 . S
C49 N48 1.358 . S
C49 H55 0.930 . S
C50 N48 1.400 . S
C50 C51 1.351 . S
C50 H67 0.930 . S
C51 N47 1.389 . S
C51 C50 1.351 . S
C51 H56 0.930 . S
O52 Cu46 1.974 . S
O52 C62 1.282 . S
C53 O54 1.261 . S
C53 O66 1.251 . S
O54 C53 1.261 . S
H55 C49 0.930 . S
H56 C51 0.930 . S
N57 Cu46 1.985 . S
N57 C59 1.335 . S
N57 C60 1.390 . S
N58 C59 1.345 1_565 S
N58 C61 1.336 . S
C59 N57 1.335 . S
C59 N58 1.345 1_545 S
C59 H64 0.930 . S
C60 N57 1.390 . S
C60 C61 1.345 1_545 S
C60 H65 0.931 . S
C61 N58 1.336 . S
C61 C60 1.345 1_565 S
C61 H68 0.929 . S
C62 O52 1.282 . S
C62 O63 1.216 . S
O63 C62 1.216 . S
H64 C59 0.930 . S
H65 C60 0.931 . S
O66 Cu46 1.959 . S
O66 C53 1.251 . S
H67 C50 0.930 . S
H68 C61 0.929 . S
C69 C70 1.349 . S
C69 C71 1.327 . S
C69 H94 0.950 . S
C70 C69 1.349 . S
C70 C86 1.349 1_565 S
C71 C69 1.327 . S
C71 C90 1.429 . S
C71 H95 0.950 . S
C72 C89 1.574 . S
C72 C91 1.368 1_545 S
C72 H96 0.949 1_554 S
H73 C77 0.949 . S
C74 C75 1.349 1_545 S
C74 C76 1.327 . S
C74 H97 0.950 1_554 S
C75 C74 1.349 1_565 S
C75 C87 1.349 . S
C76 C74 1.327 . S
C76 C92 1.429 1_545 S
C76 H98 0.950 1_554 S
C77 H73 0.949 . S
C77 C85 1.574 . S
C77 C93 1.368 . S
H78 C86 0.922 1_556 S
H79 C84 0.950 1_556 S
H80 C85 0.949 . S
H81 C87 0.950 . S
H82 C88 0.950 . S
H83 C89 0.949 1_556 S
C84 H79 0.950 1_554 S
C84 C86 1.327 . S
C84 C90 1.429 1_545 S
C85 C77 1.574 . S
C85 H80 0.949 . S
C85 C91 1.368 . S
C86 C70 1.349 1_545 S
C86 H78 0.922 1_554 S
C86 C84 1.327 . S
C87 C75 1.349 . S
C87 H81 0.950 . S
C87 C88 1.327 . S
C88 H82 0.950 . S
C88 C87 1.327 . S
C88 C92 1.429 . S
C89 C72 1.574 . S
C89 H83 0.949 1_554 S
C89 C93 1.368 1_545 S
C90 C71 1.429 . S
C90 C84 1.429 1_565 S
C90 C91 1.523 . S
C91 C72 1.368 1_565 S
C91 C85 1.368 . S
C91 C90 1.523 . S
C92 C76 1.429 1_565 S
C92 C88 1.429 . S
C92 C93 1.523 . S
C93 C77 1.368 . S
C93 C89 1.368 1_565 S
C93 C92 1.523 . S
H94 C69 0.950 . S
H95 C71 0.950 . S
H96 C72 0.949 1_556 S
H97 C74 0.950 1_556 S
H98 C76 0.950 1_556 S
C99 C100 1.349 . S
C99 C101 1.327 . S
C99 H124 0.950 . S
C100 C99 1.349 . S
C100 C116 1.349 . S
C101 C99 1.327 . S
C101 C120 1.429 . S
C101 H125 0.950 . S
C102 C119 1.574 . S
C102 C121 1.368 . S
C102 H126 0.949 . S
H103 C107 0.949 . S
C104 C105 1.349 . S
C104 C106 1.327 . S
C104 H127 0.950 . S
C105 C104 1.349 . S
C105 C117 1.349 . S
C106 C104 1.327 . S
C106 C122 1.429 . S
C106 H128 0.950 . S
C107 H103 0.949 . S
C107 C115 1.574 . S
C107 C123 1.368 . S
H108 C116 0.950 . S
H109 C114 0.950 . S
H110 C115 0.949 . S
H111 C117 0.950 . S
H112 C118 0.950 . S
H113 C119 0.949 . S
C114 H109 0.950 . S
C114 C116 1.327 . S
C114 C120 1.429 . S
C115 C107 1.574 . S
C115 H110 0.949 . S
C115 C121 1.368 . S
C116 C100 1.349 . S
C116 H108 0.950 . S
C116 C114 1.327 . S
C117 C105 1.349 . S
C117 H111 0.950 . S
C117 C118 1.327 . S
C118 H112 0.950 . S
C118 C117 1.327 . S
C118 C122 1.429 . S
C119 C102 1.574 . S
C119 H113 0.949 . S
C119 C123 1.368 . S
C120 C101 1.429 . S
C120 C114 1.429 . S
C120 C121 1.523 . S
C121 C102 1.368 . S
C121 C115 1.368 . S
C121 C120 1.523 . S
C122 C106 1.429 . S
C122 C118 1.429 . S
C122 C123 1.523 . S
C123 C107 1.368 . S
C123 C119 1.368 . S
C123 C122 1.523 . S
H124 C99 0.950 . S
H125 C101 0.950 . S
H126 C102 0.949 . S
H127 C104 0.950 . S
H128 C106 0.950 . S
C129 C130 1.349 . S
C129 C131 1.327 . S
C129 H154 0.950 . S
C130 C129 1.349 . S
C130 C146 1.349 . S
C131 C129 1.327 . S
C131 C150 1.429 . S
C131 H155 0.950 . S
C132 C149 1.574 . S
C132 C151 1.368 . S
C132 H156 0.949 . S
H133 C137 0.949 . S
C134 C135 1.349 . S
C134 C136 1.327 . S
C134 H157 0.950 . S
C135 C134 1.349 . S
C135 C147 1.349 . S
C136 C134 1.327 . S
C136 C152 1.429 . S
C136 H158 0.950 . S
C137 H133 0.949 . S
C137 C145 1.574 . S
C137 C153 1.368 . S
H138 C146 0.950 . S
H139 C144 0.950 . S
H140 C145 0.949 . S
H141 C147 0.950 . S
H142 C148 0.950 . S
H143 C149 0.949 . S
C144 H139 0.950 . S
C144 C146 1.327 . S
C144 C150 1.429 . S
C145 C137 1.574 . S
C145 H140 0.949 . S
C145 C151 1.368 . S
C146 C130 1.349 . S
C146 H138 0.950 . S
C146 C144 1.327 . S
C147 C135 1.349 . S
C147 H141 0.950 . S
C147 C148 1.327 . S
C148 H142 0.950 . S
C148 C147 1.327 . S
C148 C152 1.429 . S
C149 C132 1.574 . S
C149 H143 0.949 . S
C149 C153 1.368 . S
C150 C131 1.429 . S
C150 C144 1.429 . S
C150 C151 1.523 . S
C151 C132 1.368 . S
C151 C145 1.368 . S
C151 C150 1.523 . S
C152 C136 1.429 . S
C152 C148 1.429 . S
C152 C153 1.523 . S
C153 C137 1.368 . S
C153 C149 1.368 . S
C153 C152 1.523 . S
H154 C129 0.950 . S
H155 C131 0.950 . S
H156 C132 0.949 . S
H157 C134 0.950 . S
H158 C136 0.950 . S
C159 C160 1.349 . S
C159 C161 1.327 . S
C159 H184 0.950 . S
C160 C159 1.349 . S
C160 C176 1.349 1_655 S
C161 C159 1.327 . S
C161 C180 1.429 . S
C161 H185 0.950 . S
C162 C179 1.574 . S
C162 C181 1.368 1_455 S
C162 H186 0.949 . S
H163 C167 0.949 1_565 S
C164 C165 1.349 . S
C164 C166 1.327 . S
C164 H187 0.950 . S
C165 C164 1.349 . S
C165 C177 1.349 1_445 S
C166 C164 1.327 . S
C166 C182 1.429 1_455 S
C166 H188 0.950 . S
C167 H163 0.949 1_545 S
C167 C175 1.574 . S
C167 C183 1.368 . S
H168 C176 0.950 . S
H169 C174 0.950 . S
H170 C175 0.949 1_565 S
H171 C177 0.950 . S
H172 C178 0.950 . S
H173 C179 0.949 . S
C174 H169 0.950 . S
C174 C176 1.327 . S
C174 C180 1.429 1_455 S
C175 C167 1.574 . S
C175 H170 0.949 1_545 S
C175 C181 1.368 . S
C176 C160 1.349 1_455 S
C176 H168 0.950 . S
C176 C174 1.327 . S
C177 C165 1.349 1_665 S
C177 H171 0.950 . S
C177 C178 1.327 . S
C178 H172 0.950 . S
C178 C177 1.327 . S
C178 C182 1.429 1_565 S
C179 C162 1.574 . S
C179 H173 0.949 . S
C179 C183 1.368 1_455 S
C180 C161 1.429 . S
C180 C174 1.429 1_655 S
C180 C181 1.523 . S
C181 C162 1.368 1_655 S
C181 C175 1.368 . S
C181 C180 1.523 . S
C182 C166 1.429 1_655 S
C182 C178 1.429 1_545 S
C182 C183 1.523 . S
C183 C167 1.368 . S
C183 C179 1.368 1_655 S
C183 C182 1.523 . S
H184 C159 0.950 . S
H185 C161 0.950 . S
H186 C162 0.949 . S
H187 C164 0.950 . S
H188 C166 0.950 . S
C189 C190 1.349 . S
C189 C191 1.327 . S
C189 H214 0.950 . S
C190 C189 1.349 . S
C190 C206 1.349 . S
C191 C189 1.327 . S
C191 C210 1.429 . S
C191 H215 0.950 . S
C192 C209 1.575 . S
C192 C211 1.368 . S
C192 H216 0.949 1_455 S
H193 C197 0.949 . S
C194 C195 1.349 1_655 S
C194 C196 1.327 . S
C194 H217 0.950 . S
C195 C194 1.349 1_455 S
C195 C207 1.349 . S
C196 C194 1.327 . S
C196 C212 1.429 1_655 S
C196 H218 0.950 . S
C197 H193 0.949 . S
C197 C205 1.574 . S
C197 C213 1.368 . S
H198 C206 0.950 . S
H199 C204 0.950 . S
H200 C205 0.949 . S
H201 C207 0.950 . S
H202 C208 0.950 . S
H203 C209 0.939 1_655 S
C204 H199 0.950 . S
C204 C206 1.327 . S
C204 C210 1.429 . S
C205 C197 1.574 . S
C205 H200 0.949 . S
C205 C211 1.368 . S
C206 C190 1.349 . S
C206 H198 0.950 . S
C206 C204 1.327 . S
C207 C195 1.349 . S
C207 H201 0.950 . S
C207 C208 1.327 . S
C208 H202 0.950 . S
C208 C207 1.327 . S
C208 C212 1.429 . S
C209 C192 1.575 . S
C209 H203 0.939 1_455 S
C209 C213 1.378 . S
C210 C191 1.429 . S
C210 C204 1.429 . S
C210 C211 1.523 . S
C211 C192 1.368 . S
C211 C205 1.368 . S
C211 C210 1.523 . S
C212 C196 1.429 1_455 S
C212 C208 1.429 . S
C212 C213 1.523 . S
C213 C197 1.368 . S
C213 C209 1.378 . S
C213 C212 1.523 . S
H214 C189 0.950 . S
H215 C191 0.950 . S
H216 C192 0.949 1_655 S
H217 C194 0.950 . S
H218 C196 0.950 . S
C219 C220 1.349 . S
C219 C221 1.327 . S
C219 H244 0.950 . S
C220 C219 1.349 . S
C220 C236 1.349 . S
C221 C219 1.327 . S
C221 C240 1.429 . S
C221 H245 0.950 . S
C222 C239 1.574 . S
C222 C241 1.368 . S
C222 H246 0.949 . S
H223 C227 0.949 1_565 S
C224 C225 1.349 . S
C224 C226 1.327 . S
C224 H247 0.950 . S
C225 C224 1.349 . S
C225 C237 1.349 1_545 S
C226 C224 1.327 . S
C226 C242 1.429 . S
C226 H248 0.950 . S
C227 H223 0.949 1_545 S
C227 C235 1.574 . S
C227 C243 1.368 . S
H228 C236 0.950 . S
H229 C234 0.950 . S
H230 C235 0.949 1_565 S
H231 C237 0.950 . S
H232 C238 0.950 . S
H233 C239 0.949 . S
C234 H229 0.950 . S
C234 C236 1.327 . S
C234 C240 1.429 . S
C235 C227 1.574 . S
C235 H230 0.949 1_545 S
C235 C241 1.368 . S
C236 C220 1.349 . S
C236 H228 0.950 . S
C236 C234 1.327 . S
C237 C225 1.349 1_565 S
C237 H231 0.950 . S
C237 C238 1.327 . S
C238 H232 0.950 . S
C238 C237 1.327 . S
C238 C242 1.429 1_565 S
C239 C222 1.574 . S
C239 H233 0.949 . S
C239 C243 1.368 . S
C240 C221 1.429 . S
C240 C234 1.429 . S
C240 C241 1.523 . S
C241 C222 1.368 . S
C241 C235 1.368 . S
C241 C240 1.523 . S
C242 C226 1.429 . S
C242 C238 1.429 1_545 S
C242 C243 1.523 . S
C243 C227 1.368 . S
C243 C239 1.368 . S
C243 C242 1.523 . S
H244 C219 0.950 . S
H245 C221 0.950 . S
H246 C222 0.949 . S
H247 C224 0.950 . S
H248 C226 0.950 . S
C70 C16 1.475 . S
C75 C7 1.482 . S
C100 N35 1.458 . S
C105 N25 1.456 . S
C130 N58 1.457 . S
C135 N48 1.455 . S
C160 C39 1.587 . S
C165 N2 1.531 . S
C190 C62 1.573 . S
C195 C30 1.591 . S
C220 C53 1.531 . S
C225 N12 1.507 . S
