# Generated by pormake.
# Topology pcu, (6)-cn, num edge types: 1
# Building blocks:
#     Node 0, Type 0, BuildingBlock: KUMJIN_clean_sbu_1, # of connection points: 6
#     Edge 1, Type (0, 0), BuildingBlock: CIFDUS_clean_linker_0, # of connection points: 2
#     Edge 2, Type (0, 0), BuildingBlock: CIFDUS_clean_linker_0, # of connection points: 2
#     Edge 3, Type (0, 0), BuildingBlock: CIFDUS_clean_linker_0, # of connection points: 2
# Relax obj value: 0.000
# Max RMSD: 0.000
# Mean RMSD: 0.000
data_MOF--net-pcu--node1-KUMJIN_clean_sbu_1--edge1-CIFDUS_clean_linker_0
_symmetry_space_group_name_H-M    P1
_symmetry_Int_Tables_number       1
_symmetry_cell_setting            triclinic
loop_
_symmetry_equiv_pos_as_xyz
'x, y, z'
_cell_length_a     13.167249
_cell_length_b     23.103775
_cell_length_c     13.026757
_cell_angle_alpha  114.01029
_cell_angle_beta   89.482464
_cell_angle_gamma 115.87007
loop_
_atom_site_label
_atom_site_type_symbol
_atom_site_fract_x
_atom_site_fract_y
_atom_site_fract_z
_atom_type_partial_charge
Eu0 Eu 0.93752 0.90255 0.92989 0.0
C1 C 0.35272 0.20835 0.20188 0.0
N2 N 0.24577 0.18146 0.2257 0.0
C3 C 0.32782 0.2344 0.42536 0.0
C4 C 0.45208 0.24897 0.29001 0.0
C5 C 0.23178 0.19457 0.33539 0.0
C6 C 0.43848 0.26162 0.40261 0.0
C7 C 0.47303 0.22056 0.06175 0.0
C8 C 0.36293 0.19356 0.08835 0.0
C9 C 0.57173 0.26117 0.14941 0.0
C10 C 0.56151 0.27532 0.26313 0.0
Eu11 Eu 0.08997 0.11752 0.06895 0.0
N12 N 0.26569 0.15359 0.0044 0.0
C13 C 0.48092 0.20733 0.948 0.0
C14 C 0.27318 0.14572 0.89541 0.0
C15 C 0.38045 0.17064 0.86482 0.0
H16 H 0.14653 0.17572 0.35392 0.0
H17 H 0.38553 0.16313 0.77768 0.0
H18 H 0.88103 0.84434 0.64491 0.0
H19 H 0.64186 0.85699 0.22109 0.0
H20 H 0.19763 0.12332 0.83256 0.0
H21 H 0.56403 0.22728 0.92433 0.0
H22 H 0.82978 0.89678 0.16626 0.0
H23 H 0.31643 0.24461 0.51232 0.0
H24 H 0.65623 0.28245 0.12972 0.0
H25 H 0.63871 0.307 0.32985 0.0
H26 H 0.71117 0.77545 0.48647 0.0
H27 H 0.51276 0.29257 0.47259 0.0
H28 H 0.46339 0.7928 0.07439 0.0
N29 N 0.78175 0.8386 0.7731 0.0
C30 C 0.67479 0.81171 0.79689 0.0
C31 C 0.69975 0.78566 0.57342 0.0
C32 C 0.57545 0.77108 0.70874 0.0
C33 C 0.79578 0.82549 0.66342 0.0
C34 C 0.58908 0.75844 0.59614 0.0
N35 N 0.76177 0.86645 0.99437 0.0
C36 C 0.75425 0.87436 0.10338 0.0
C37 C 0.55443 0.7995 0.93698 0.0
C38 C 0.66455 0.82649 0.91041 0.0
C39 C 0.54651 0.81275 0.05073 0.0
C40 C 0.64697 0.84945 0.13394 0.0
H41 H 0.51482 0.72749 0.52614 0.0
H42 H 0.38882 0.71306 0.66885 0.0
H43 H 0.37124 0.73762 0.86897 0.0
O44 O 0.95093 0.83059 0.99215 0.0
O45 O 0.83375 0.95585 0.908 0.0
O46 O 0.89916 0.06275 0.07167 0.0
O47 O 0.91556 0.79731 0.8099 0.0
O48 O 1.01174 0.96716 0.12218 0.0
O49 O 0.99074 0.06944 0.18117 0.0
O50 O 0.07658 0.18949 0.00671 0.0
O51 O 0.19373 0.06421 0.09086 0.0
O52 O 0.12833 0.95732 0.92717 0.0
O53 O 0.11194 0.22276 0.18896 0.0
O54 O 0.01573 0.0529 0.87666 0.0
O55 O 0.03676 0.95064 0.81768 0.0
C56 C 0.81642 1.00709 0.98523 0.0
C57 C 1.00594 0.7448 0.87117 0.0
C58 C 0.04066 0.65226 0.8851 0.0
C59 C 0.12757 0.66609 0.82144 0.0
C60 C 0.09453 0.7588 0.80993 0.0
C61 C 0.15434 0.71919 0.78467 0.0
C62 C 0.98005 0.69211 0.90939 0.0
C63 C 1.00112 0.02088 0.20191 0.0
C64 C 0.934 0.78066 0.88942 0.0
C65 C 0.46601 0.74474 0.73558 0.0
C66 C 0.45575 0.75889 0.8493 0.0
C67 C 0.21106 0.01298 0.01362 0.0
C68 C 0.02157 0.27528 0.12771 0.0
C69 C 0.98684 0.36782 0.11379 0.0
C70 C 0.89991 0.35397 0.17742 0.0
C71 C 0.93296 0.26126 0.18892 0.0
C72 C 0.04746 0.32797 0.0895 0.0
C73 C 0.87313 0.30086 0.21416 0.0
C74 C 0.02637 0.99919 0.79694 0.0
C75 C 0.09351 0.23941 0.10945 0.0
H76 H 0.17365 0.63508 0.7985 0.0
H77 H 0.11584 0.79921 0.7797 0.0
H78 H 0.22071 0.72915 0.7351 0.0
H79 H 0.91215 0.68203 0.95762 0.0
H80 H 0.85382 0.38497 0.20036 0.0
H81 H 0.91163 0.22084 0.21913 0.0
H82 H 0.11537 0.33807 0.04129 0.0
H83 H 0.80674 0.29088 0.26371 0.0
H84 H 0.06674 0.95077 0.28857 0.0
H85 H 0.93309 0.10181 0.37792 0.0
H86 H 0.92851 0.10775 0.56939 0.0
H87 H 0.96073 0.0693 0.71028 0.0
H88 H 0.0944 0.91827 0.62093 0.0
H89 H 0.09898 0.91232 0.42946 0.0
C90 C 0.0365 0.98502 0.3498 0.0
C91 C 1.0007 0.02601 0.319 0.0
C92 C 0.03332 0.98778 0.45929 0.0
C93 C 0.962 0.07014 0.39961 0.0
C94 C 0.95892 0.07335 0.50895 0.0
C95 C 0.99097 0.03505 0.64905 0.0
C96 C 0.02678 0.99406 0.67985 0.0
C97 C 0.99416 0.03229 0.53955 0.0
C98 C 0.06548 0.94993 0.59924 0.0
C99 C 0.06856 0.94673 0.48989 0.0
H100 H 0.30385 0.94313 0.85062 0.0
H101 H 0.37998 0.09381 0.20752 0.0
H102 H 0.57454 0.10839 0.22932 0.0
H103 H 0.72363 0.07695 0.14824 0.0
H104 H 0.6475 0.92626 0.79134 0.0
H105 H 0.45294 0.91168 0.76954 0.0
C106 C 0.36277 0.97883 0.93332 0.0
C107 C 0.32743 0.01821 0.02671 0.0
C108 C 0.47481 0.9864 0.94581 0.0
C109 C 0.40531 0.06415 0.13325 0.0
C110 C 0.51668 0.07215 0.14618 0.0
C111 C 0.66472 0.04124 0.06554 0.0
C112 C 0.70005 1.00186 0.97215 0.0
C113 C 0.55267 0.03367 0.05305 0.0
C114 C 0.62217 0.95592 0.8656 0.0
C115 C 0.5108 0.94792 0.85268 0.0
H116 H 0.18907 0.62333 0.97478 0.0
H117 H 0.82651 0.55287 0.88173 0.0
H118 H 0.77818 0.45966 0.94498 0.0
H119 H 0.83843 0.39675 0.02412 0.0
H120 H 0.201 0.46722 0.11717 0.0
H121 H 0.24933 0.56043 0.05393 0.0
C122 C 0.09942 0.58722 0.96744 0.0
C123 C 1.01168 0.5954 0.92376 0.0
C124 C 0.07206 0.53331 0.0033 0.0
C125 C 0.89598 0.54865 0.91651 0.0
C126 C 0.86815 0.49495 0.952 0.0
C127 C 0.92808 0.43287 0.03147 0.0
C128 C 0.01582 0.42469 0.07514 0.0
C129 C 0.95544 0.48678 0.99561 0.0
C130 C 0.13152 0.47144 0.08239 0.0
C131 C 0.15936 0.52514 0.04691 0.0
loop_
_geom_bond_atom_site_label_1
_geom_bond_atom_site_label_2
_geom_bond_distance
_geom_bond_site_symmetry_2
_ccdc_geom_bond_type
Eu0 N29 2.600 . S
Eu0 N35 2.562 . S
Eu0 O44 2.462 . S
Eu0 O45 2.373 . S
Eu0 O47 2.432 . S
Eu0 O48 2.291 1_556 S
Eu0 O52 2.335 1_655 S
Eu0 O55 2.372 . S
Eu0 C64 2.787 . S
C1 N2 1.365 . S
C1 C4 1.405 . S
C1 C8 1.448 . S
N2 C1 1.365 . S
N2 C5 1.319 . S
N2 Eu11 2.600 . S
C3 C5 1.397 . S
C3 C6 1.367 . S
C3 H23 0.931 . S
C4 C1 1.405 . S
C4 C6 1.403 . S
C4 C10 1.439 . S
C5 N2 1.319 . S
C5 C3 1.397 . S
C5 H16 0.930 . S
C6 C3 1.367 . S
C6 C4 1.403 . S
C6 H27 0.929 . S
C7 C8 1.430 . S
C7 C9 1.387 . S
C7 C13 1.404 . S
C8 C1 1.448 . S
C8 C7 1.430 . S
C8 N12 1.351 . S
C9 C7 1.387 . S
C9 C10 1.374 . S
C9 H24 0.931 . S
C10 C4 1.439 . S
C10 C9 1.374 . S
C10 H25 0.931 . S
Eu11 N2 2.600 . S
Eu11 N12 2.562 . S
Eu11 O46 2.335 1_455 S
Eu11 O49 2.372 . S
Eu11 O50 2.462 . S
Eu11 O51 2.373 . S
Eu11 O53 2.432 . S
Eu11 O54 2.291 1_554 S
Eu11 C75 2.787 . S
N12 C8 1.351 . S
N12 Eu11 2.562 . S
N12 C14 1.325 1_554 S
C13 C7 1.404 . S
C13 C15 1.366 1_554 S
C13 H21 0.930 1_554 S
C14 N12 1.325 1_556 S
C14 C15 1.416 . S
C14 H20 0.929 . S
C15 C13 1.366 1_556 S
C15 C14 1.416 . S
C15 H17 0.930 . S
H16 C5 0.930 . S
H17 C15 0.930 . S
H18 C33 0.930 . S
H19 C40 0.930 . S
H20 C14 0.929 . S
H21 C13 0.930 1_556 S
H22 C36 0.929 . S
H23 C3 0.931 . S
H24 C9 0.931 . S
H25 C10 0.931 . S
H26 C31 0.931 . S
H27 C6 0.929 . S
H28 C39 0.930 1_554 S
N29 Eu0 2.600 . S
N29 C30 1.365 . S
N29 C33 1.319 . S
C30 N29 1.365 . S
C30 C32 1.405 . S
C30 C38 1.448 . S
C31 H26 0.931 . S
C31 C33 1.397 . S
C31 C34 1.367 . S
C32 C30 1.405 . S
C32 C34 1.403 . S
C32 C65 1.439 . S
C33 H18 0.930 . S
C33 N29 1.319 . S
C33 C31 1.397 . S
C34 C31 1.367 . S
C34 C32 1.403 . S
C34 H41 0.929 . S
N35 Eu0 2.562 . S
N35 C36 1.325 1_556 S
N35 C38 1.351 . S
C36 H22 0.929 . S
C36 N35 1.325 1_554 S
C36 C40 1.416 . S
C37 C38 1.430 . S
C37 C39 1.404 . S
C37 C66 1.387 . S
C38 C30 1.448 . S
C38 N35 1.351 . S
C38 C37 1.430 . S
C39 H28 0.930 1_556 S
C39 C37 1.404 . S
C39 C40 1.366 1_556 S
C40 H19 0.930 . S
C40 C36 1.416 . S
C40 C39 1.366 1_554 S
H41 C34 0.929 . S
H42 C65 0.931 . S
H43 C66 0.931 . S
O44 Eu0 2.462 . S
O44 C64 1.252 . S
O45 Eu0 2.373 . S
O45 C56 1.248 . S
O46 Eu11 2.335 1_655 S
O46 C56 1.264 1_544 S
O47 Eu0 2.432 . S
O47 C64 1.268 . S
O48 Eu0 2.291 1_554 S
O48 C63 1.255 1_565 S
O49 Eu11 2.372 . S
O49 C63 1.257 1_455 S
O50 Eu11 2.462 . S
O50 C75 1.252 . S
O51 Eu11 2.373 . S
O51 C67 1.252 . S
O52 Eu0 2.335 1_455 S
O52 C67 1.262 1_566 S
O53 Eu11 2.432 . S
O53 C75 1.268 . S
O54 Eu11 2.291 1_556 S
O54 C74 1.255 1_545 S
O55 Eu0 2.372 . S
O55 C74 1.257 1_655 S
C56 O45 1.248 . S
C56 O46 1.264 1_566 S
C57 C60 1.382 . S
C57 C62 1.390 . S
C57 C64 1.506 . S
C58 C59 1.398 . S
C58 C62 1.392 . S
C59 C58 1.398 . S
C59 C61 1.372 . S
C59 H76 0.931 . S
C60 C57 1.382 . S
C60 C61 1.390 . S
C60 H77 0.931 . S
C61 C59 1.372 . S
C61 C60 1.390 . S
C61 H78 0.929 . S
C62 C57 1.390 . S
C62 C58 1.392 . S
C62 H79 0.930 1_556 S
C63 O48 1.255 1_545 S
C63 O49 1.257 1_655 S
C64 Eu0 2.787 . S
C64 O44 1.252 . S
C64 O47 1.268 . S
C64 C57 1.506 . S
C65 C32 1.439 . S
C65 H42 0.931 . S
C65 C66 1.374 . S
C66 C37 1.387 . S
C66 H43 0.931 . S
C66 C65 1.374 . S
C67 O51 1.252 . S
C67 O52 1.262 1_544 S
C68 C71 1.382 . S
C68 C72 1.390 . S
C68 C75 1.506 . S
C69 C70 1.398 . S
C69 C72 1.392 . S
C70 C69 1.398 . S
C70 C73 1.372 . S
C70 H80 0.931 . S
C71 C68 1.382 . S
C71 C73 1.390 . S
C71 H81 0.931 . S
C72 C68 1.390 . S
C72 C69 1.392 . S
C72 H82 0.930 1_554 S
C73 C70 1.372 . S
C73 C71 1.390 . S
C73 H83 0.929 . S
C74 O54 1.255 1_565 S
C74 O55 1.257 1_455 S
C75 Eu11 2.787 . S
C75 O50 1.252 . S
C75 O53 1.268 . S
C75 C68 1.506 . S
H76 C59 0.931 . S
H77 C60 0.931 . S
H78 C61 0.929 . S
H79 C62 0.930 1_554 S
H80 C70 0.931 . S
H81 C71 0.931 . S
H82 C72 0.930 1_556 S
H83 C73 0.929 . S
H84 C90 0.930 . S
H85 C93 0.930 . S
H86 C94 0.930 . S
H87 C95 0.930 . S
H88 C98 0.930 . S
H89 C99 0.930 . S
C90 H84 0.930 . S
C90 C91 1.355 1_445 S
C90 C92 1.415 . S
C91 C90 1.355 1_665 S
C91 C93 1.419 . S
C92 C90 1.415 . S
C92 C97 1.425 1_445 S
C92 C99 1.409 . S
C93 H85 0.930 . S
C93 C91 1.419 . S
C93 C94 1.362 . S
C94 H86 0.930 . S
C94 C93 1.362 . S
C94 C97 1.409 . S
C95 H87 0.930 . S
C95 C96 1.355 1_665 S
C95 C97 1.415 . S
C96 C95 1.355 1_445 S
C96 C98 1.419 . S
C97 C92 1.425 1_665 S
C97 C94 1.409 . S
C97 C95 1.415 . S
C98 H88 0.930 . S
C98 C96 1.419 . S
C98 C99 1.362 . S
C99 H89 0.930 . S
C99 C92 1.409 . S
C99 C98 1.362 . S
H100 C106 0.930 . S
H101 C109 0.930 . S
H102 C110 0.930 . S
H103 C111 0.930 . S
H104 C114 0.930 . S
H105 C115 0.930 . S
C106 H100 0.930 . S
C106 C107 1.355 1_566 S
C106 C108 1.415 . S
C107 C106 1.355 1_544 S
C107 C109 1.419 . S
C108 C106 1.415 . S
C108 C113 1.425 1_566 S
C108 C115 1.409 . S
C109 H101 0.930 . S
C109 C107 1.419 . S
C109 C110 1.362 . S
C110 H102 0.930 . S
C110 C109 1.362 . S
C110 C113 1.409 . S
C111 H103 0.930 . S
C111 C112 1.355 1_544 S
C111 C113 1.415 . S
C112 C111 1.355 1_566 S
C112 C114 1.419 . S
C113 C108 1.425 1_544 S
C113 C110 1.409 . S
C113 C111 1.415 . S
C114 H104 0.930 . S
C114 C112 1.419 . S
C114 C115 1.362 . S
C115 H105 0.930 . S
C115 C108 1.409 . S
C115 C114 1.362 . S
H116 C122 0.930 . S
H117 C125 0.930 . S
H118 C126 0.930 . S
H119 C127 0.930 . S
H120 C130 0.930 . S
H121 C131 0.930 . S
C122 H116 0.930 . S
C122 C123 1.355 1_455 S
C122 C124 1.415 . S
C123 C122 1.355 1_655 S
C123 C125 1.419 1_556 S
C124 C122 1.415 . S
C124 C129 1.425 1_456 S
C124 C131 1.409 . S
C125 H117 0.930 . S
C125 C123 1.419 1_554 S
C125 C126 1.362 . S
C126 H118 0.930 . S
C126 C125 1.362 . S
C126 C129 1.409 . S
C127 H119 0.930 . S
C127 C128 1.355 1_655 S
C127 C129 1.415 . S
C128 C127 1.355 1_455 S
C128 C130 1.419 1_554 S
C129 C124 1.425 1_654 S
C129 C126 1.409 . S
C129 C127 1.415 . S
C130 H120 0.930 . S
C130 C128 1.419 1_556 S
C130 C131 1.362 . S
C131 H121 0.930 . S
C131 C124 1.409 . S
C131 C130 1.362 . S
C91 C63 1.467 1_565 S
C96 C74 1.467 1_545 S
C107 C67 1.486 . S
C112 C56 1.488 . S
C123 C58 1.351 . S
C128 C69 1.351 . S
