# Generated by pormake.
# Topology bsn, (6)-cn, num edge types: 1
# Building blocks:
#     Node 0, Type 0, BuildingBlock: FUNLAD_clean_sbu_0, # of connection points: 6
#     Node 1, Type 0, BuildingBlock: FUNLAD_clean_sbu_0, # of connection points: 6
#     Node 2, Type 0, BuildingBlock: FUNLAD_clean_sbu_0, # of connection points: 6
#     Node 3, Type 0, BuildingBlock: FUNLAD_clean_sbu_0, # of connection points: 6
#     Edge 4, Type (0, 0), None
#     Edge 5, Type (0, 0), None
#     Edge 6, Type (0, 0), None
#     Edge 7, Type (0, 0), None
#     Edge 8, Type (0, 0), None
#     Edge 9, Type (0, 0), None
#     Edge 10, Type (0, 0), None
#     Edge 11, Type (0, 0), None
#     Edge 12, Type (0, 0), None
#     Edge 13, Type (0, 0), None
#     Edge 14, Type (0, 0), None
#     Edge 15, Type (0, 0), None
# Relax obj value: 0.829
# Max RMSD: 0.379
# Mean RMSD: 0.379
data_MOF--net-bsn--node1-FUNLAD_clean_sbu_0--edge1-none
_symmetry_space_group_name_H-M    P1
_symmetry_Int_Tables_number       1
_symmetry_cell_setting            triclinic
loop_
_symmetry_equiv_pos_as_xyz
'x, y, z'
_cell_length_a     12.659815
_cell_length_b     11.877054
_cell_length_c     12.268254
_cell_angle_alpha  97.546848
_cell_angle_beta   100.17043
_cell_angle_gamma 98.807384
loop_
_atom_site_label
_atom_site_type_symbol
_atom_site_fract_x
_atom_site_fract_y
_atom_site_fract_z
_atom_type_partial_charge
C0 C 0.29681 0.34838 0.41418 0.0
N1 N 0.04208 0.3084 0.20301 0.0
C2 C 0.08671 0.41359 0.18341 0.0
C3 C 0.10585 0.42652 0.07916 0.0
C4 C 0.07956 0.32978 0.99608 0.0
C5 C 0.03308 0.2218 1.01708 0.0
C6 C 1.01454 0.21297 0.12323 0.0
Zn7 Zn 0.04191 0.29858 0.35714 0.0
C8 C 0.04473 0.0997 0.45599 0.0
N9 N 0.11723 0.36309 0.67369 0.0
C10 C 0.20316 0.41005 0.75819 0.0
C11 C 0.02007 0.31002 0.69113 0.0
C12 C 1.00662 0.29902 0.79714 0.0
C13 C 0.09407 0.34343 0.88531 0.0
C14 C 0.19253 0.40239 0.86724 0.0
Zn15 Zn 0.11786 0.36303 0.51779 0.0
O16 O 0.20464 0.31771 0.35307 0.0
C17 C 0.07905 0.55735 0.5105 0.0
O18 O 0.30032 0.36816 0.52042 0.0
H19 H 0.95414 0.27014 0.62243 0.0
H20 H 0.1145 0.48621 0.24978 0.0
H21 H 0.27877 0.45239 0.74054 0.0
O22 O 0.04203 0.5008 0.40985 0.0
O23 O 0.15971 0.53141 0.5664 0.0
H24 H 0.98133 0.13045 0.14297 0.0
O25 O 0.91605 0.36997 0.47384 0.0
O26 O 0.88759 0.27282 0.30543 0.0
O27 O 0.09017 0.18999 0.52103 0.0
O28 O 0.02106 0.10593 0.35098 0.0
C29 C 0.8559 0.33894 0.37344 0.0
H30 H 0.14109 0.5107 0.06383 0.0
H31 H 1.01238 0.1459 0.95259 0.0
H32 H 0.92903 0.25557 0.80993 0.0
H33 H 0.25996 0.43982 0.93591 0.0
C34 C 0.2205 0.88568 0.74738 0.0
N35 N 0.95042 0.76121 0.41541 0.0
C36 C 0.05268 0.76221 0.39134 0.0
C37 C 0.06572 0.72192 0.28538 0.0
C38 C 0.97589 0.69825 0.19793 0.0
C39 C 0.87132 0.6899 0.22136 0.0
C40 C 0.85925 0.72044 0.33135 0.0
Zn41 Zn 0.95207 0.8152 0.59493 0.0
C42 C 1.01496 0.62956 0.57217 0.0
N43 N 0.01981 0.8064 0.8955 0.0
C44 C 0.05879 0.87954 0.99347 0.0
C45 C 0.96902 0.6955 0.89085 0.0
C46 C 0.95508 0.65451 0.98965 0.0
C47 C 0.99467 0.72933 0.09137 0.0
C48 C 0.04731 0.84256 0.093 0.0
Zn49 Zn 0.02325 0.88457 0.76391 0.0
O50 O 0.16172 0.85114 0.6464 0.0
C51 C 1.00779 1.00059 0.51323 0.0
O52 O 0.18016 0.93862 0.81871 0.0
H53 H 0.93448 0.64106 0.81084 0.0
H54 H 0.1248 0.7919 0.45512 0.0
H55 H 0.09473 0.96821 0.99359 0.0
O56 O 0.93691 0.91645 0.46223 0.0
O57 O 0.04049 1.00276 0.6194 0.0
H58 H 0.77856 0.71668 0.35019 0.0
O59 O 0.8557 0.84696 0.75271 0.0
O60 O 0.77044 0.7716 0.5849 0.0
O61 O 0.05251 0.69051 0.67045 0.0
O62 O 0.93107 0.65071 0.51611 0.0
C63 C 0.7679 0.79872 0.68891 0.0
H64 H 0.14665 0.72217 0.26944 0.0
H65 H 0.80099 0.66884 0.15476 0.0
H66 H 0.91224 0.56758 0.9868 0.0
H67 H 0.07556 0.90347 0.17055 0.0
C68 C 0.67373 0.76611 0.74624 0.0
N69 N 0.45033 0.79102 0.64761 0.0
C70 C 0.49957 0.89032 0.6215 0.0
C71 C 0.48227 0.90562 0.50991 0.0
C72 C 0.40604 0.82538 0.42816 0.0
C73 C 0.35023 0.7286 0.45971 0.0
C74 C 0.3782 0.7105 0.56945 0.0
Zn75 Zn 0.47605 0.72495 0.79015 0.0
C76 C 0.55461 0.59139 1.01018 0.0
N77 N 0.46673 0.77786 0.10061 0.0
C78 C 0.54409 0.77541 0.19302 0.0
C79 C 0.36708 0.80208 0.11245 0.0
C80 C 0.34395 0.82374 0.22023 0.0
C81 C 0.42258 0.81467 0.31325 0.0
C82 C 0.52224 0.78833 0.29822 0.0
Zn83 Zn 0.54054 0.78678 0.96256 0.0
O84 O 0.61294 0.66979 0.72297 0.0
C85 C 0.59933 0.99231 1.01658 0.0
O86 O 0.66111 0.82818 0.8338 0.0
H87 H 0.30822 0.81117 0.04041 0.0
H88 H 0.56037 0.95044 0.68391 0.0
H89 H 0.6272 0.77032 0.18851 0.0
O90 O 0.55792 0.95374 0.91057 0.0
O91 O 0.6413 0.92434 0.07202 0.0
H92 H 0.34768 0.62879 0.59195 0.0
O93 O 0.38445 0.88094 0.88113 0.0
O94 O 0.3071 0.7238 0.77511 0.0
O95 O 0.64162 0.66591 1.02608 0.0
O96 O 0.47793 0.60153 0.93004 0.0
C97 C 0.31057 0.82983 0.79819 0.0
H98 H 0.53799 0.97004 0.48471 0.0
H99 H 0.29802 0.65999 0.39762 0.0
H100 H 0.26881 0.85171 0.23095 0.0
H101 H 0.58526 0.78197 0.36851 0.0
C102 C 0.7486 0.36907 0.33113 0.0
N103 N 0.53507 0.28494 0.96229 0.0
C104 C 0.63129 0.26849 0.93404 0.0
C105 C 0.6351 0.2346 0.8211 0.0
C106 C 0.53989 0.22157 0.73655 0.0
C107 C 0.44455 0.24714 0.77028 0.0
C108 C 0.44343 0.27499 0.88301 0.0
Zn109 Zn 0.48322 0.29233 0.11107 0.0
C110 C 0.56668 0.0929 0.0847 0.0
N111 N 0.5363 0.18229 0.38763 0.0
C112 C 0.63151 0.17922 0.45797 0.0
C113 C 0.44083 0.14723 0.41992 0.0
C114 C 0.43969 0.15289 0.5342 0.0
C115 C 0.53885 0.18685 0.6142 0.0
C116 C 0.6361 0.18969 0.57324 0.0
Zn117 Zn 0.55624 0.30989 0.28144 0.0
O118 O 0.70293 0.3461 0.22465 0.0
C119 C 0.53116 0.50729 0.09168 0.0
O120 O 0.69081 0.38758 0.4007 0.0
H121 H 0.36427 0.12902 0.36005 0.0
H122 H 0.70275 0.27363 0.9988 0.0
H123 H 0.70661 0.18525 0.42779 0.0
O124 O 0.43734 0.45244 0.07934 0.0
O125 O 0.59962 0.4764 0.1664 0.0
H126 H 0.36743 0.28434 0.90841 0.0
O127 O 0.48151 0.41985 0.3894 0.0
O128 O 0.37775 0.29376 0.25385 0.0
O129 O 0.62985 0.15871 0.1687 0.0
O130 O 0.46969 0.10817 0.07053 0.0
C131 C 0.39015 0.35548 0.35156 0.0
H132 H 0.71137 0.21586 0.80255 0.0
H133 H 0.36958 0.24481 0.71166 0.0
H134 H 0.36152 0.133 0.55778 0.0
H135 H 0.71563 0.20568 0.62747 0.0
loop_
_geom_bond_atom_site_label_1
_geom_bond_atom_site_label_2
_geom_bond_distance
_geom_bond_site_symmetry_2
_ccdc_geom_bond_type
C0 O16 1.251 . S
C0 O18 1.254 . S
N1 C2 1.333 1_655 S
N1 C6 1.307 . S
N1 Zn7 2.020 . S
C2 N1 1.333 1_455 S
C2 C3 1.379 1_554 S
C2 H20 0.952 . S
C3 C2 1.379 1_556 S
C3 C4 1.390 . S
C3 H30 0.949 . S
C4 C3 1.390 . S
C4 C5 1.357 1_455 S
C5 C4 1.357 1_655 S
C5 C6 1.370 1_556 S
C5 H31 0.950 . S
C6 N1 1.307 . S
C6 C5 1.370 1_554 S
C6 H24 0.948 . S
Zn7 N1 2.020 . S
Zn7 O16 2.039 1_655 S
Zn7 O22 2.034 1_655 S
Zn7 O26 2.025 . S
Zn7 O28 2.024 . S
C8 O27 1.245 . S
C8 O28 1.249 . S
N9 C10 1.307 . S
N9 C11 1.333 1_455 S
N9 Zn15 2.020 . S
C10 N9 1.307 . S
C10 C14 1.370 . S
C10 H21 0.948 . S
C11 N9 1.333 1_655 S
C11 C12 1.379 . S
C11 H19 0.952 . S
C12 C11 1.379 . S
C12 C13 1.390 1_655 S
C12 H32 0.949 . S
C13 C12 1.390 1_455 S
C13 C14 1.357 . S
C14 C10 1.370 . S
C14 C13 1.357 . S
C14 H33 0.950 . S
Zn15 N9 2.020 . S
Zn15 O18 2.025 . S
Zn15 O23 2.024 . S
Zn15 O25 2.039 1_455 S
Zn15 O27 2.034 1_455 S
O16 C0 1.251 . S
O16 Zn7 2.039 1_455 S
C17 O22 1.246 . S
C17 O23 1.249 . S
O18 C0 1.254 . S
O18 Zn15 2.025 . S
H19 C11 0.952 . S
H20 C2 0.952 . S
H21 C10 0.948 . S
O22 Zn7 2.034 1_455 S
O22 C17 1.246 . S
O23 Zn15 2.024 . S
O23 C17 1.249 . S
H24 C6 0.948 . S
O25 Zn15 2.039 1_655 S
O25 C29 1.251 . S
O26 Zn7 2.025 . S
O26 C29 1.254 . S
O27 C8 1.245 . S
O27 Zn15 2.034 1_655 S
O28 Zn7 2.024 . S
O28 C8 1.249 . S
C29 O25 1.251 . S
C29 O26 1.254 . S
H30 C3 0.949 . S
H31 C5 0.950 . S
H32 C12 0.949 . S
H33 C14 0.950 . S
C34 O50 1.251 . S
C34 O52 1.254 . S
N35 C36 1.333 1_655 S
N35 C40 1.307 . S
N35 Zn41 2.020 . S
C36 N35 1.333 1_455 S
C36 C37 1.379 . S
C36 H54 0.952 . S
C37 C36 1.379 . S
C37 C38 1.386 1_455 S
C37 H64 0.949 . S
C38 C37 1.386 1_655 S
C38 C39 1.361 . S
C39 C38 1.361 . S
C39 C40 1.370 . S
C39 H65 0.950 . S
C40 N35 1.307 . S
C40 C39 1.370 . S
C40 H58 0.948 . S
Zn41 N35 2.020 . S
Zn41 O50 2.039 1_655 S
Zn41 O56 2.034 1_655 S
Zn41 O60 2.025 . S
Zn41 O62 2.024 . S
C42 O61 1.246 . S
C42 O62 1.249 . S
N43 C44 1.307 . S
N43 C45 1.333 1_455 S
N43 Zn49 2.020 . S
C44 N43 1.307 . S
C44 C48 1.370 1_556 S
C44 H55 0.948 . S
C45 N43 1.333 1_655 S
C45 C46 1.379 1_556 S
C45 H53 0.952 . S
C46 C45 1.379 1_554 S
C46 C47 1.390 1_655 S
C46 H66 0.949 . S
C47 C46 1.390 1_455 S
C47 C48 1.357 . S
C48 C44 1.370 1_554 S
C48 C47 1.357 . S
C48 H67 0.950 . S
Zn49 N43 2.020 . S
Zn49 O52 2.025 . S
Zn49 O57 2.024 . S
Zn49 O59 2.039 1_455 S
Zn49 O61 2.034 1_455 S
O50 C34 1.251 . S
O50 Zn41 2.039 1_455 S
C51 O56 1.246 . S
C51 O57 1.249 . S
O52 C34 1.254 . S
O52 Zn49 2.025 . S
H53 C45 0.952 . S
H54 C36 0.952 . S
H55 C44 0.948 . S
O56 Zn41 2.034 1_455 S
O56 C51 1.246 . S
O57 Zn49 2.024 . S
O57 C51 1.249 . S
H58 C40 0.948 . S
O59 Zn49 2.039 1_655 S
O59 C63 1.251 . S
O60 Zn41 2.025 . S
O60 C63 1.254 . S
O61 C42 1.246 . S
O61 Zn49 2.034 1_655 S
O62 Zn41 2.024 . S
O62 C42 1.249 . S
C63 O59 1.251 . S
C63 O60 1.254 . S
H64 C37 0.949 . S
H65 C39 0.950 . S
H66 C46 0.949 . S
H67 C48 0.950 . S
C68 O84 1.251 . S
C68 O86 1.254 . S
N69 C70 1.333 . S
N69 C74 1.307 . S
N69 Zn75 2.020 . S
C70 N69 1.333 . S
C70 C71 1.379 . S
C70 H88 0.952 . S
C71 C70 1.379 . S
C71 C72 1.390 . S
C71 H98 0.949 . S
C72 C71 1.390 . S
C72 C73 1.357 . S
C73 C72 1.357 . S
C73 C74 1.370 . S
C73 H99 0.950 . S
C74 N69 1.307 . S
C74 C73 1.370 . S
C74 H92 0.948 . S
Zn75 N69 2.020 . S
Zn75 O84 2.039 . S
Zn75 O90 2.034 . S
Zn75 O94 2.025 . S
Zn75 O96 2.024 . S
C76 O95 1.246 . S
C76 O96 1.249 . S
N77 C78 1.307 . S
N77 C79 1.333 . S
N77 Zn83 2.020 1_554 S
C78 N77 1.307 . S
C78 C82 1.370 . S
C78 H89 0.948 . S
C79 N77 1.333 . S
C79 C80 1.379 . S
C79 H87 0.952 . S
C80 C79 1.379 . S
C80 C81 1.390 . S
C80 H100 0.949 . S
C81 C80 1.390 . S
C81 C82 1.357 . S
C82 C78 1.370 . S
C82 C81 1.357 . S
C82 H101 0.950 . S
Zn83 N77 2.020 1_556 S
Zn83 O86 2.025 . S
Zn83 O91 2.024 . S
Zn83 O93 2.039 . S
Zn83 O95 2.034 . S
O84 C68 1.251 . S
O84 Zn75 2.039 . S
C85 O90 1.246 . S
C85 O91 1.249 . S
O86 C68 1.254 . S
O86 Zn83 2.025 . S
H87 C79 0.952 . S
H88 C70 0.952 . S
H89 C78 0.948 . S
O90 Zn75 2.034 . S
O90 C85 1.246 . S
O91 Zn83 2.024 . S
O91 C85 1.249 . S
H92 C74 0.948 . S
O93 Zn83 2.039 . S
O93 C97 1.251 . S
O94 Zn75 2.025 . S
O94 C97 1.254 . S
O95 C76 1.246 . S
O95 Zn83 2.034 . S
O96 Zn75 2.024 . S
O96 C76 1.249 . S
C97 O93 1.251 . S
C97 O94 1.254 . S
H98 C71 0.949 . S
H99 C73 0.950 . S
H100 C80 0.949 . S
H101 C82 0.950 . S
C102 O118 1.251 . S
C102 O120 1.254 . S
N103 C104 1.333 . S
N103 C108 1.307 . S
N103 Zn109 2.020 1_556 S
C104 N103 1.333 . S
C104 C105 1.379 . S
C104 H122 0.952 . S
C105 C104 1.379 . S
C105 C106 1.390 . S
C105 H132 0.949 . S
C106 C105 1.390 . S
C106 C107 1.357 . S
C107 C106 1.357 . S
C107 C108 1.370 . S
C107 H133 0.950 . S
C108 N103 1.307 . S
C108 C107 1.370 . S
C108 H126 0.948 . S
Zn109 N103 2.020 1_554 S
Zn109 O118 2.039 . S
Zn109 O124 2.034 . S
Zn109 O128 2.025 . S
Zn109 O130 2.024 . S
C110 O129 1.246 . S
C110 O130 1.249 . S
N111 C112 1.307 . S
N111 C113 1.333 . S
N111 Zn117 2.020 . S
C112 N111 1.307 . S
C112 C116 1.370 . S
C112 H123 0.948 . S
C113 N111 1.333 . S
C113 C114 1.379 . S
C113 H121 0.952 . S
C114 C113 1.379 . S
C114 C115 1.390 . S
C114 H134 0.949 . S
C115 C114 1.390 . S
C115 C116 1.357 . S
C116 C112 1.370 . S
C116 C115 1.357 . S
C116 H135 0.950 . S
Zn117 N111 2.020 . S
Zn117 O120 2.025 . S
Zn117 O125 2.024 . S
Zn117 O127 2.039 . S
Zn117 O129 2.034 . S
O118 C102 1.251 . S
O118 Zn109 2.039 . S
C119 O124 1.246 . S
C119 O125 1.249 . S
O120 C102 1.254 . S
O120 Zn117 2.025 . S
H121 C113 0.952 . S
H122 C104 0.952 . S
H123 C112 0.948 . S
O124 Zn109 2.034 . S
O124 C119 1.246 . S
O125 Zn117 2.024 . S
O125 C119 1.249 . S
H126 C108 0.948 . S
O127 Zn117 2.039 . S
O127 C131 1.251 . S
O128 Zn109 2.025 . S
O128 C131 1.254 . S
O129 C110 1.246 . S
O129 Zn117 2.034 . S
O130 Zn109 2.024 . S
O130 C110 1.249 . S
C131 O127 1.251 . S
C131 O128 1.254 . S
H132 C105 0.949 . S
H133 C107 0.950 . S
H134 C114 0.949 . S
H135 C116 0.950 . S
C17 C42 3.380 1_455 S
C68 C63 3.538 . S
C119 C76 3.526 1_554 S
C29 C102 3.365 . S
C131 C0 3.538 . S
C97 C34 3.365 . S
C85 C110 3.380 1_566 S
C51 C8 3.526 1_465 S
C4 C13 0.395 . S
C47 C38 0.394 1_455 S
C81 C72 0.395 . S
C115 C106 0.395 . S
