# Generated by pormake.
# Topology utk, (3)-cn, num edge types: 1
# Building blocks:
#     Node 0, Type 0, BuildingBlock: OLANEW_clean_sbu_2, # of connection points: 3
#     Node 1, Type 0, BuildingBlock: OLANEW_clean_sbu_2, # of connection points: 3
#     Node 2, Type 0, BuildingBlock: OLANEW_clean_sbu_2, # of connection points: 3
#     Node 3, Type 0, BuildingBlock: OLANEW_clean_sbu_2, # of connection points: 3
#     Node 4, Type 0, BuildingBlock: OLANEW_clean_sbu_2, # of connection points: 3
#     Node 5, Type 0, BuildingBlock: OLANEW_clean_sbu_2, # of connection points: 3
#     Node 6, Type 0, BuildingBlock: OLANEW_clean_sbu_2, # of connection points: 3
#     Node 7, Type 0, BuildingBlock: OLANEW_clean_sbu_2, # of connection points: 3
#     Edge 8, Type (0, 0), BuildingBlock: AJUNOK_clean_linker_0, # of connection points: 2
#     Edge 9, Type (0, 0), BuildingBlock: AJUNOK_clean_linker_0, # of connection points: 2
#     Edge 10, Type (0, 0), BuildingBlock: AJUNOK_clean_linker_0, # of connection points: 2
#     Edge 11, Type (0, 0), BuildingBlock: AJUNOK_clean_linker_0, # of connection points: 2
#     Edge 12, Type (0, 0), BuildingBlock: AJUNOK_clean_linker_0, # of connection points: 2
#     Edge 13, Type (0, 0), BuildingBlock: AJUNOK_clean_linker_0, # of connection points: 2
#     Edge 14, Type (0, 0), BuildingBlock: AJUNOK_clean_linker_0, # of connection points: 2
#     Edge 15, Type (0, 0), BuildingBlock: AJUNOK_clean_linker_0, # of connection points: 2
#     Edge 16, Type (0, 0), BuildingBlock: AJUNOK_clean_linker_0, # of connection points: 2
#     Edge 17, Type (0, 0), BuildingBlock: AJUNOK_clean_linker_0, # of connection points: 2
#     Edge 18, Type (0, 0), BuildingBlock: AJUNOK_clean_linker_0, # of connection points: 2
#     Edge 19, Type (0, 0), BuildingBlock: AJUNOK_clean_linker_0, # of connection points: 2
# Relax obj value: 0.000
# Max RMSD: 0.030
# Mean RMSD: 0.030
data_MOF--net-utk--node1-OLANEW_clean_sbu_2--edge1-AJUNOK_clean_linker_0
_symmetry_space_group_name_H-M    P1
_symmetry_Int_Tables_number       1
_symmetry_cell_setting            triclinic
loop_
_symmetry_equiv_pos_as_xyz
'x, y, z'
_cell_length_a     33.541701
_cell_length_b     33.543996
_cell_length_c     23.056163
_cell_angle_alpha  90.031056
_cell_angle_beta   90.007777
_cell_angle_gamma 89.989439
loop_
_atom_site_label
_atom_site_type_symbol
_atom_site_fract_x
_atom_site_fract_y
_atom_site_fract_z
_atom_type_partial_charge
O0 O 0.1493 0.39696 0.22471 0.0
Cd1 Cd 0.13884 0.32563 0.20934 0.0
O2 O 0.08603 0.40983 0.20848 0.0
Cd3 Cd 0.06893 0.35001 0.1807 0.0
O4 O 0.03435 0.31584 0.11784 0.0
C5 C 0.05027 0.30619 0.06987 0.0
O6 O 0.08836 0.3137 0.06219 0.0
C7 C 0.12073 0.42182 0.22223 0.0
C8 C 0.18507 0.27991 0.28482 0.0
O9 O 0.19713 0.28759 0.23326 0.0
O10 O 0.15111 0.29368 0.30047 0.0
O11 O 0.60373 0.16598 0.44672 0.0
Cd12 Cd 0.67386 0.17872 0.42447 0.0
O13 O 0.61741 0.11388 0.5008 0.0
Cd14 Cd 0.67733 0.10659 0.46551 0.0
O15 O 0.70684 0.06701 0.40387 0.0
C16 C 0.70583 0.0757 0.35029 0.0
O17 O 0.69116 0.11046 0.33492 0.0
C18 C 0.59227 0.13899 0.48162 0.0
C19 C 0.71083 0.21446 0.5198 0.0
O20 O 0.69076 0.2351 0.48329 0.0
O21 O 0.71386 0.17686 0.511 0.0
O22 O 0.83716 0.60463 0.71535 0.0
Cd23 Cd 0.83559 0.67626 0.69623 0.0
O24 O 0.90096 0.5971 0.69664 0.0
Cd25 Cd 0.91367 0.65845 0.67101 0.0
O26 O 0.95597 0.69237 0.61871 0.0
C27 C 0.94738 0.70165 0.56679 0.0
O28 O 0.91119 0.69423 0.54776 0.0
C29 C 0.86768 0.5823 0.71168 0.0
C30 C 0.79743 0.71585 0.78702 0.0
O31 O 0.77747 0.69836 0.74706 0.0
O32 O 0.83557 0.71528 0.78379 0.0
O33 O 0.40103 0.81922 0.95073 0.0
Cd34 Cd 0.33088 0.80868 0.92667 0.0
O35 O 0.39106 0.87843 0.98872 0.0
Cd36 Cd 0.33153 0.88372 0.95122 0.0
O37 O 0.30193 0.91392 0.87937 0.0
C38 C 0.29368 0.95069 0.88496 0.0
O39 O 0.29916 0.96751 0.93583 0.0
C40 C 0.41429 0.84941 0.9779 0.0
C41 C 0.29228 0.77602 0.02265 0.0
O42 O 0.31174 0.75407 0.98707 0.0
O43 O 0.29019 0.81349 0.01224 0.0
O44 O 0.167 0.60484 0.30287 0.0
Cd45 Cd 0.1773 0.67568 0.32239 0.0
O46 O 0.11253 0.61522 0.25219 0.0
Cd47 Cd 0.10442 0.67601 0.28385 0.0
O48 O 0.06426 0.7064 0.34375 0.0
C49 C 0.07359 0.70883 0.39705 0.0
O50 O 0.10926 0.697 0.41312 0.0
C51 C 0.13932 0.59156 0.27057 0.0
C52 C 0.21544 0.7099 0.22713 0.0
O53 O 0.23519 0.69167 0.26659 0.0
O54 O 0.17758 0.71292 0.23329 0.0
O55 O 0.39701 0.14064 0.50009 0.0
Cd56 Cd 0.32535 0.1279 0.50606 0.0
O57 O 0.40989 0.08828 0.55411 0.0
Cd58 Cd 0.34865 0.07136 0.57459 0.0
O59 O 0.31346 0.03611 0.63535 0.0
C60 C 0.30287 0.05171 0.68313 0.0
O61 O 0.30979 0.08986 0.6914 0.0
C62 C 0.42216 0.11773 0.52445 0.0
C63 C 0.28059 0.17903 0.43623 0.0
O64 O 0.28642 0.18683 0.48999 0.0
O65 O 0.29626 0.14724 0.41544 0.0
O66 O 0.82071 0.40182 0.79456 0.0
Cd67 Cd 0.80689 0.33253 0.82038 0.0
O68 O 0.88 0.38861 0.75911 0.0
Cd69 Cd 0.88261 0.32958 0.79866 0.0
O70 O 0.91304 0.30145 0.87158 0.0
C71 C 0.95024 0.29514 0.86669 0.0
O72 O 0.96717 0.30161 0.81616 0.0
C73 C 0.85196 0.41332 0.76826 0.0
C74 C 0.77709 0.2916 0.72425 0.0
O75 O 0.75426 0.31278 0.75645 0.0
O76 O 0.8141 0.28942 0.73771 0.0
O77 O 0.60565 0.83553 0.04266 0.0
Cd78 Cd 0.67687 0.83709 0.0646 0.0
O79 O 0.59628 0.90037 0.04524 0.0
Cd80 Cd 0.65612 0.91635 0.07439 0.0
O81 O 0.68817 0.95939 0.12797 0.0
C82 C 0.69982 0.95024 0.17868 0.0
O83 O 0.69576 0.91318 0.19613 0.0
C84 C 0.58272 0.86543 0.03706 0.0
C85 C 0.71795 0.7972 0.97691 0.0
O86 O 0.70096 0.77806 0.01811 0.0
O87 O 0.71642 0.83537 0.97766 0.0
C88 C 0.09686 0.49237 0.22111 0.0
C89 C 0.12731 0.46488 0.23411 0.0
C90 C 0.10148 0.53313 0.23199 0.0
C91 C 0.13666 0.54835 0.2568 0.0
H92 H 0.06899 0.48243 0.2023 0.0
H93 H 0.07684 0.55275 0.22158 0.0
S94 S 0.22606 0.48931 0.29778 0.0
N95 N 0.19442 0.45598 0.27212 0.0
N96 N 0.20305 0.53269 0.29293 0.0
C97 C 0.16764 0.52134 0.26953 0.0
C98 C 0.163 0.47966 0.25808 0.0
C99 C 0.52063 0.15829 0.46746 0.0
C100 C 0.54934 0.13521 0.49683 0.0
C101 C 0.47971 0.15304 0.47745 0.0
C102 C 0.46573 0.12448 0.51725 0.0
H103 H 0.5297 0.18005 0.43536 0.0
H104 H 0.45892 0.17101 0.45279 0.0
S105 S 0.52863 0.05874 0.60941 0.0
N106 N 0.56082 0.08438 0.57027 0.0
N107 N 0.48419 0.07452 0.58908 0.0
C108 C 0.49417 0.10211 0.54841 0.0
C109 C 0.53583 0.10748 0.53823 0.0
C110 C 0.82888 0.52351 0.74812 0.0
C111 C 0.86435 0.53896 0.72446 0.0
C112 C 0.825 0.48289 0.76119 0.0
C113 C 0.85635 0.45584 0.75098 0.0
H114 H 0.80389 0.54298 0.75725 0.0
H115 H 0.79719 0.47277 0.77997 0.0
S116 S 0.95511 0.48063 0.68741 0.0
N117 N 0.93121 0.52359 0.6898 0.0
N118 N 0.9239 0.44741 0.71423 0.0
C119 C 0.89182 0.47073 0.72643 0.0
C120 C 0.89582 0.51218 0.71329 0.0
C121 C 0.5136 0.8925 0.02622 0.0
C122 C 0.53993 0.85992 0.02225 0.0
C123 C 0.47308 0.88853 0.01283 0.0
C124 C 0.45705 0.85187 0.99443 0.0
H125 H 0.52425 0.92149 0.03992 0.0
H126 H 0.45432 0.91472 0.01626 0.0
S127 S 0.51298 0.75694 0.97756 0.0
N128 N 0.54683 0.7894 0.99924 0.0
N129 N 0.4707 0.78199 0.97384 0.0
C130 C 0.48293 0.81888 0.99058 0.0
C131 C 0.52428 0.82288 0.00455 0.0
C132 C 0.23806 0.22881 0.3019 0.0
C133 C 0.20945 0.25522 0.32461 0.0
C134 C 0.26079 0.20427 0.33834 0.0
C135 C 0.25638 0.20572 0.399 0.0
H136 H 0.24252 0.22655 0.25548 0.0
H137 H 0.28218 0.18416 0.31871 0.0
S138 S 0.18639 0.27068 0.48048 0.0
N139 N 0.17831 0.28179 0.41173 0.0
N140 N 0.22155 0.23623 0.48025 0.0
C141 C 0.22833 0.23247 0.42238 0.0
C142 C 0.20471 0.25702 0.3852 0.0
C143 C 0.71174 0.26846 0.59431 0.0
C144 C 0.72881 0.2335 0.57151 0.0
C145 C 0.72731 0.28667 0.64411 0.0
C146 C 0.76112 0.27116 0.67228 0.0
H147 H 0.6857 0.28157 0.57407 0.0
H148 H 0.71299 0.31343 0.6602 0.0
S149 S 0.81743 0.18059 0.62944 0.0
N150 N 0.7814 0.184 0.58087 0.0
N151 N 0.81136 0.21889 0.67361 0.0
C152 C 0.77881 0.23648 0.64959 0.0
C153 C 0.76244 0.21745 0.59949 0.0
C154 C 0.79249 0.77149 0.85885 0.0
C155 C 0.77699 0.73593 0.83567 0.0
C156 C 0.77298 0.79145 0.90423 0.0
C157 C 0.73807 0.7758 0.92916 0.0
H158 H 0.81948 0.78436 0.84108 0.0
H159 H 0.78559 0.81904 0.92041 0.0
S160 S 0.68603 0.68307 0.88507 0.0
N161 N 0.72472 0.68589 0.84096 0.0
N162 N 0.68894 0.72256 0.92767 0.0
C163 C 0.72266 0.73994 0.907 0.0
C164 C 0.74189 0.72023 0.85983 0.0
C165 C 0.23862 0.77624 0.09805 0.0
C166 C 0.27317 0.75869 0.07467 0.0
C167 C 0.21987 0.76007 0.1471 0.0
C168 C 0.23565 0.72645 0.17545 0.0
H169 H 0.22563 0.80234 0.07781 0.0
H170 H 0.19311 0.77431 0.16335 0.0
S171 S 0.32597 0.66989 0.13219 0.0
N172 N 0.32244 0.70586 0.0836 0.0
N173 N 0.2879 0.6762 0.17664 0.0
C174 C 0.27044 0.70893 0.15292 0.0
C175 C 0.289 0.72484 0.10228 0.0
C176 C 0.04139 0.29446 0.96357 0.0
C177 C 0.02493 0.29465 0.01972 0.0
C178 C 0.01711 0.29175 0.9143 0.0
C179 C 0.97535 0.28912 0.91908 0.0
H180 H 0.07311 0.29866 0.95724 0.0
H181 H 0.0312 0.29397 0.87216 0.0
S182 S 0.91809 0.28002 0.05631 0.0
N183 N 0.96478 0.28577 0.07736 0.0
N184 N 0.91914 0.2807 0.98474 0.0
C185 C 0.95881 0.28557 0.97499 0.0
C186 C 0.98359 0.28834 0.02528 0.0
C187 C 0.70483 0.05284 0.24708 0.0
C188 C 0.71298 0.04446 0.3057 0.0
C189 C 0.70335 0.02244 0.20548 0.0
C190 C 0.70987 0.98232 0.22072 0.0
H191 H 0.69744 0.08285 0.23348 0.0
H192 H 0.69486 0.03038 0.16165 0.0
S193 S 0.74022 0.94542 0.36599 0.0
N194 N 0.73354 0.99377 0.37515 0.0
N195 N 0.73062 0.93665 0.29693 0.0
C196 C 0.72152 0.97395 0.2781 0.0
C197 C 0.72313 0.00499 0.32056 0.0
C198 C 0.97107 0.71387 0.4655 0.0
C199 C 0.97951 0.71247 0.52526 0.0
C200 C 0.00169 0.71569 0.42426 0.0
C201 C 0.04205 0.71608 0.44107 0.0
H202 H 0.94068 0.71131 0.45004 0.0
H203 H 0.99354 0.71438 0.37884 0.0
S204 S 0.07987 0.72153 0.59222 0.0
N205 N 0.03102 0.71803 0.59929 0.0
N206 N 0.08853 0.72129 0.52174 0.0
C207 C 0.05078 0.71846 0.50069 0.0
C208 C 0.01954 0.71671 0.54277 0.0
C209 C 0.2882 0.01766 0.83813 0.0
C210 C 0.28676 0.97587 0.8329 0.0
C211 C 0.29044 0.0422 0.78912 0.0
C212 C 0.29133 0.02599 0.73282 0.0
H213 H 0.28996 0.03162 0.88043 0.0
H214 H 0.29383 0.07399 0.7958 0.0
S215 S 0.2794 0.91899 0.69506 0.0
N216 N 0.27986 0.91976 0.76665 0.0
N217 N 0.28406 0.96589 0.67451 0.0
C218 C 0.286 0.98454 0.7268 0.0
C219 C 0.28372 0.95949 0.77682 0.0
loop_
_geom_bond_atom_site_label_1
_geom_bond_atom_site_label_2
_geom_bond_distance
_geom_bond_site_symmetry_2
_ccdc_geom_bond_type
O0 Cd1 2.300 . S
O0 C7 1.275 . S
Cd1 O0 2.300 . S
Cd1 O9 2.381 . S
Cd1 O10 2.378 . S
O2 Cd3 2.385 . S
O2 C7 1.255 . S
Cd3 O2 2.385 . S
Cd3 O4 2.317 . S
O4 Cd3 2.317 . S
O4 C5 1.232 . S
C5 O4 1.232 . S
C5 O6 1.218 . S
O6 C5 1.218 . S
C7 O0 1.275 . S
C7 O2 1.255 . S
C8 O9 1.258 . S
C8 O10 1.256 . S
O9 Cd1 2.381 . S
O9 C8 1.258 . S
O10 Cd1 2.378 . S
O10 C8 1.256 . S
O11 Cd12 2.300 . S
O11 C18 1.275 . S
Cd12 O11 2.300 . S
Cd12 O20 2.381 . S
Cd12 O21 2.378 . S
O13 Cd14 2.385 . S
O13 C18 1.255 . S
Cd14 O13 2.385 . S
Cd14 O15 2.317 . S
O15 Cd14 2.317 . S
O15 C16 1.232 . S
C16 O15 1.232 . S
C16 O17 1.218 . S
O17 C16 1.218 . S
C18 O11 1.275 . S
C18 O13 1.255 . S
C19 O20 1.258 . S
C19 O21 1.256 . S
O20 Cd12 2.381 . S
O20 C19 1.258 . S
O21 Cd12 2.378 . S
O21 C19 1.256 . S
O22 Cd23 2.300 . S
O22 C29 1.275 . S
Cd23 O22 2.300 . S
Cd23 O31 2.381 . S
Cd23 O32 2.378 . S
O24 Cd25 2.385 . S
O24 C29 1.255 . S
Cd25 O24 2.385 . S
Cd25 O26 2.317 . S
O26 Cd25 2.317 . S
O26 C27 1.232 . S
C27 O26 1.232 . S
C27 O28 1.218 . S
O28 C27 1.218 . S
C29 O22 1.275 . S
C29 O24 1.255 . S
C30 O31 1.258 . S
C30 O32 1.256 . S
O31 Cd23 2.381 . S
O31 C30 1.258 . S
O32 Cd23 2.378 . S
O32 C30 1.256 . S
O33 Cd34 2.300 . S
O33 C40 1.274 1_554 S
Cd34 O33 2.300 . S
Cd34 O42 2.381 . S
Cd34 O43 2.378 . S
O35 Cd36 2.385 . S
O35 C40 1.256 . S
Cd36 O35 2.385 . S
Cd36 O37 2.317 . S
O37 Cd36 2.317 . S
O37 C38 1.232 . S
C38 O37 1.232 . S
C38 O39 1.218 . S
O39 C38 1.218 . S
C40 O33 1.274 1_556 S
C40 O35 1.256 . S
C41 O42 1.258 . S
C41 O43 1.256 . S
O42 Cd34 2.381 . S
O42 C41 1.258 . S
O43 Cd34 2.378 . S
O43 C41 1.256 . S
O44 Cd45 2.300 . S
O44 C51 1.275 . S
Cd45 O44 2.300 . S
Cd45 O53 2.381 . S
Cd45 O54 2.378 . S
O46 Cd47 2.385 . S
O46 C51 1.255 . S
Cd47 O46 2.385 . S
Cd47 O48 2.317 . S
O48 Cd47 2.317 . S
O48 C49 1.232 . S
C49 O48 1.232 . S
C49 O50 1.218 . S
O50 C49 1.218 . S
C51 O44 1.275 . S
C51 O46 1.255 . S
C52 O53 1.258 . S
C52 O54 1.256 . S
O53 Cd45 2.381 . S
O53 C52 1.258 . S
O54 Cd45 2.378 . S
O54 C52 1.256 . S
O55 Cd56 2.300 . S
O55 C62 1.275 . S
Cd56 O55 2.300 . S
Cd56 O64 2.381 . S
Cd56 O65 2.378 . S
O57 Cd58 2.385 . S
O57 C62 1.255 . S
Cd58 O57 2.385 . S
Cd58 O59 2.317 . S
O59 Cd58 2.317 . S
O59 C60 1.232 . S
C60 O59 1.232 . S
C60 O61 1.218 . S
O61 C60 1.218 . S
C62 O55 1.275 . S
C62 O57 1.255 . S
C63 O64 1.258 . S
C63 O65 1.256 . S
O64 Cd56 2.381 . S
O64 C63 1.258 . S
O65 Cd56 2.378 . S
O65 C63 1.256 . S
O66 Cd67 2.300 . S
O66 C73 1.275 . S
Cd67 O66 2.300 . S
Cd67 O75 2.381 . S
Cd67 O76 2.378 . S
O68 Cd69 2.385 . S
O68 C73 1.255 . S
Cd69 O68 2.385 . S
Cd69 O70 2.317 . S
O70 Cd69 2.317 . S
O70 C71 1.232 . S
C71 O70 1.232 . S
C71 O72 1.218 . S
O72 C71 1.218 . S
C73 O66 1.275 . S
C73 O68 1.255 . S
C74 O75 1.258 . S
C74 O76 1.256 . S
O75 Cd67 2.381 . S
O75 C74 1.258 . S
O76 Cd67 2.378 . S
O76 C74 1.256 . S
O77 Cd78 2.300 . S
O77 C84 1.274 1_556 S
Cd78 O77 2.300 . S
Cd78 O86 2.381 . S
Cd78 O87 2.378 . S
O79 Cd80 2.385 . S
O79 C84 1.256 . S
Cd80 O79 2.385 . S
Cd80 O81 2.317 . S
O81 Cd80 2.317 . S
O81 C82 1.232 . S
C82 O81 1.232 . S
C82 O83 1.218 . S
O83 C82 1.218 . S
C84 O77 1.274 1_554 S
C84 O79 1.256 . S
C85 O86 1.258 . S
C85 O87 1.256 . S
O86 Cd78 2.381 . S
O86 C85 1.258 . S
O87 Cd78 2.378 . S
O87 C85 1.256 . S
C88 C89 1.369 . S
C88 C90 1.419 . S
C88 H92 0.930 . S
C89 C88 1.369 . S
C89 C98 1.429 . S
C90 C88 1.419 . S
C90 C91 1.363 . S
C90 H93 0.929 . S
C91 C90 1.363 . S
C91 C97 1.428 . S
H92 C88 0.930 . S
H93 C90 0.929 . S
S94 N95 1.613 . S
S94 N96 1.610 . S
N95 S94 1.613 . S
N95 C98 1.350 . S
N96 S94 1.610 . S
N96 C97 1.351 . S
C97 C91 1.428 . S
C97 N96 1.351 . S
C97 C98 1.434 . S
C98 C89 1.429 . S
C98 N95 1.350 . S
C98 C97 1.434 . S
C99 C100 1.369 . S
C99 C101 1.419 . S
C99 H103 0.930 . S
C100 C99 1.369 . S
C100 C109 1.429 . S
C101 C99 1.419 . S
C101 C102 1.363 . S
C101 H104 0.929 . S
C102 C101 1.363 . S
C102 C108 1.428 . S
H103 C99 0.930 . S
H104 C101 0.929 . S
S105 N106 1.613 . S
S105 N107 1.610 . S
N106 S105 1.613 . S
N106 C109 1.350 . S
N107 S105 1.610 . S
N107 C108 1.351 . S
C108 C102 1.428 . S
C108 N107 1.351 . S
C108 C109 1.434 . S
C109 C100 1.429 . S
C109 N106 1.350 . S
C109 C108 1.434 . S
C110 C111 1.369 . S
C110 C112 1.419 . S
C110 H114 0.930 . S
C111 C110 1.369 . S
C111 C120 1.429 . S
C112 C110 1.419 . S
C112 C113 1.363 . S
C112 H115 0.929 . S
C113 C112 1.363 . S
C113 C119 1.428 . S
H114 C110 0.930 . S
H115 C112 0.929 . S
S116 N117 1.613 . S
S116 N118 1.610 . S
N117 S116 1.613 . S
N117 C120 1.350 . S
N118 S116 1.610 . S
N118 C119 1.351 . S
C119 C113 1.428 . S
C119 N118 1.351 . S
C119 C120 1.434 . S
C120 C111 1.429 . S
C120 N117 1.350 . S
C120 C119 1.434 . S
C121 C122 1.369 . S
C121 C123 1.419 . S
C121 H125 0.930 . S
C122 C121 1.369 . S
C122 C131 1.429 1_554 S
C123 C121 1.419 . S
C123 C124 1.363 1_554 S
C123 H126 0.929 . S
C124 C123 1.363 1_556 S
C124 C130 1.428 . S
H125 C121 0.930 . S
H126 C123 0.929 . S
S127 N128 1.613 . S
S127 N129 1.610 . S
N128 S127 1.613 . S
N128 C131 1.350 . S
N129 S127 1.610 . S
N129 C130 1.351 . S
C130 C124 1.428 . S
C130 N129 1.351 . S
C130 C131 1.434 . S
C131 C122 1.429 1_556 S
C131 N128 1.350 . S
C131 C130 1.434 . S
C132 C133 1.369 . S
C132 C134 1.419 . S
C132 H136 0.930 . S
C133 C132 1.369 . S
C133 C142 1.429 . S
C134 C132 1.419 . S
C134 C135 1.363 . S
C134 H137 0.929 . S
C135 C134 1.363 . S
C135 C141 1.428 . S
H136 C132 0.930 . S
H137 C134 0.929 . S
S138 N139 1.613 . S
S138 N140 1.610 . S
N139 S138 1.613 . S
N139 C142 1.350 . S
N140 S138 1.610 . S
N140 C141 1.351 . S
C141 C135 1.428 . S
C141 N140 1.351 . S
C141 C142 1.434 . S
C142 C133 1.429 . S
C142 N139 1.350 . S
C142 C141 1.434 . S
C143 C144 1.369 . S
C143 C145 1.419 . S
C143 H147 0.930 . S
C144 C143 1.369 . S
C144 C153 1.429 . S
C145 C143 1.419 . S
C145 C146 1.363 . S
C145 H148 0.929 . S
C146 C145 1.363 . S
C146 C152 1.428 . S
H147 C143 0.930 . S
H148 C145 0.929 . S
S149 N150 1.613 . S
S149 N151 1.610 . S
N150 S149 1.613 . S
N150 C153 1.350 . S
N151 S149 1.610 . S
N151 C152 1.351 . S
C152 C146 1.428 . S
C152 N151 1.351 . S
C152 C153 1.434 . S
C153 C144 1.429 . S
C153 N150 1.350 . S
C153 C152 1.434 . S
C154 C155 1.369 . S
C154 C156 1.419 . S
C154 H158 0.930 . S
C155 C154 1.369 . S
C155 C164 1.429 . S
C156 C154 1.419 . S
C156 C157 1.363 . S
C156 H159 0.929 . S
C157 C156 1.363 . S
C157 C163 1.428 . S
H158 C154 0.930 . S
H159 C156 0.929 . S
S160 N161 1.613 . S
S160 N162 1.610 . S
N161 S160 1.613 . S
N161 C164 1.350 . S
N162 S160 1.610 . S
N162 C163 1.351 . S
C163 C157 1.428 . S
C163 N162 1.351 . S
C163 C164 1.434 . S
C164 C155 1.429 . S
C164 N161 1.350 . S
C164 C163 1.434 . S
C165 C166 1.369 . S
C165 C167 1.419 . S
C165 H169 0.930 . S
C166 C165 1.369 . S
C166 C175 1.429 . S
C167 C165 1.419 . S
C167 C168 1.363 . S
C167 H170 0.929 . S
C168 C167 1.363 . S
C168 C174 1.428 . S
H169 C165 0.930 . S
H170 C167 0.929 . S
S171 N172 1.613 . S
S171 N173 1.610 . S
N172 S171 1.613 . S
N172 C175 1.350 . S
N173 S171 1.610 . S
N173 C174 1.351 . S
C174 C168 1.428 . S
C174 N173 1.351 . S
C174 C175 1.434 . S
C175 C166 1.429 . S
C175 N172 1.350 . S
C175 C174 1.434 . S
C176 C177 1.369 . S
C176 C178 1.419 1_554 S
C176 H180 0.930 . S
C177 C176 1.369 . S
C177 C186 1.429 1_455 S
C178 C176 1.419 1_556 S
C178 C179 1.363 1_455 S
C178 H181 0.929 . S
C179 C178 1.363 1_655 S
C179 C185 1.428 . S
H180 C176 0.930 . S
H181 C178 0.929 . S
S182 N183 1.613 . S
S182 N184 1.610 1_554 S
N183 S182 1.613 . S
N183 C186 1.350 . S
N184 S182 1.610 1_556 S
N184 C185 1.351 . S
C185 C179 1.428 . S
C185 N184 1.351 . S
C185 C186 1.434 1_556 S
C186 C177 1.429 1_655 S
C186 N183 1.350 . S
C186 C185 1.434 1_554 S
C187 C188 1.369 . S
C187 C189 1.419 . S
C187 H191 0.930 . S
C188 C187 1.369 . S
C188 C197 1.429 1_545 S
C189 C187 1.419 . S
C189 C190 1.363 1_545 S
C189 H192 0.929 . S
C190 C189 1.363 1_565 S
C190 C196 1.428 . S
H191 C187 0.930 . S
H192 C189 0.929 . S
S193 N194 1.613 . S
S193 N195 1.610 . S
N194 S193 1.613 . S
N194 C197 1.350 . S
N195 S193 1.610 . S
N195 C196 1.351 . S
C196 C190 1.428 . S
C196 N195 1.351 . S
C196 C197 1.434 . S
C197 C188 1.429 1_565 S
C197 N194 1.350 . S
C197 C196 1.434 . S
C198 C199 1.369 . S
C198 C200 1.419 . S
C198 H202 0.930 . S
C199 C198 1.369 . S
C199 C208 1.429 1_655 S
C200 C198 1.419 . S
C200 C201 1.363 1_655 S
C200 H203 0.929 . S
C201 C200 1.363 1_455 S
C201 C207 1.428 . S
H202 C198 0.930 . S
H203 C200 0.929 . S
S204 N205 1.613 . S
S204 N206 1.610 . S
N205 S204 1.613 . S
N205 C208 1.350 . S
N206 S204 1.610 . S
N206 C207 1.351 . S
C207 C201 1.428 . S
C207 N206 1.351 . S
C207 C208 1.434 . S
C208 C199 1.429 1_455 S
C208 N205 1.350 . S
C208 C207 1.434 . S
C209 C210 1.369 1_545 S
C209 C211 1.419 . S
C209 H213 0.930 . S
C210 C209 1.369 1_565 S
C210 C219 1.429 . S
C211 C209 1.419 . S
C211 C212 1.363 . S
C211 H214 0.929 . S
C212 C211 1.363 . S
C212 C218 1.428 1_545 S
H213 C209 0.930 . S
H214 C211 0.929 . S
S215 N216 1.613 . S
S215 N217 1.610 . S
N216 S215 1.613 . S
N216 C219 1.350 . S
N217 S215 1.610 . S
N217 C218 1.351 . S
C218 C212 1.428 1_565 S
C218 N217 1.351 . S
C218 C219 1.434 . S
C219 C210 1.429 . S
C219 N216 1.350 . S
C219 C218 1.434 . S
C89 C7 1.485 . S
C91 C51 1.489 . S
C100 C18 1.485 . S
C102 C62 1.489 . S
C111 C29 1.490 . S
C113 C73 1.485 . S
C122 C84 1.486 . S
C124 C40 1.489 . S
C133 C8 1.508 . S
C135 C63 1.510 . S
C144 C19 1.509 . S
C146 C74 1.509 . S
C155 C30 1.510 . S
C157 C85 1.509 . S
C166 C41 1.510 . S
C168 C52 1.510 . S
C177 C5 1.351 . S
C179 C71 1.359 . S
C188 C16 1.347 . S
C190 C82 1.360 . S
C199 C27 1.347 . S
C201 C49 1.360 . S
C210 C38 1.361 . S
C212 C60 1.348 . S
