# Generated by pormake.
# Topology bcu, (8)-cn, num edge types: 1
# Building blocks:
#     Node 0, Type 0, BuildingBlock: VETTIZ_charged_sbu_0, # of connection points: 8
#     Node 1, Type 0, BuildingBlock: VETTIZ_charged_sbu_0, # of connection points: 8
#     Edge 2, Type (0, 0), BuildingBlock: FUNLAD_clean_linker_0, # of connection points: 2
#     Edge 3, Type (0, 0), BuildingBlock: FUNLAD_clean_linker_0, # of connection points: 2
#     Edge 4, Type (0, 0), BuildingBlock: FUNLAD_clean_linker_0, # of connection points: 2
#     Edge 5, Type (0, 0), BuildingBlock: FUNLAD_clean_linker_0, # of connection points: 2
#     Edge 6, Type (0, 0), BuildingBlock: FUNLAD_clean_linker_0, # of connection points: 2
#     Edge 7, Type (0, 0), BuildingBlock: FUNLAD_clean_linker_0, # of connection points: 2
#     Edge 8, Type (0, 0), BuildingBlock: FUNLAD_clean_linker_0, # of connection points: 2
#     Edge 9, Type (0, 0), BuildingBlock: FUNLAD_clean_linker_0, # of connection points: 2
# Relax obj value: 0.000
# Max RMSD: 0.009
# Mean RMSD: 0.009
data_MOF--net-bcu--node1-VETTIZ_charged_sbu_0--edge1-FUNLAD_clean_linker_0
_symmetry_space_group_name_H-M    P1
_symmetry_Int_Tables_number       1
_symmetry_cell_setting            triclinic
loop_
_symmetry_equiv_pos_as_xyz
'x, y, z'
_cell_length_a     22.835974
_cell_length_b     22.519581
_cell_length_c     21.976504
_cell_angle_alpha  91.662826
_cell_angle_beta   89.512002
_cell_angle_gamma 89.213905
loop_
_atom_site_label
_atom_site_type_symbol
_atom_site_fract_x
_atom_site_fract_y
_atom_site_fract_z
_atom_type_partial_charge
Fe0 Fe 0.99602 0.94789 1.01595 0.0
O1 O 0.03746 1.01106 0.06392 0.0
Fe2 Fe 0.96198 0.01979 0.88209 0.0
Fe3 Fe 0.03933 0.01519 0.15303 0.0
O4 O 0.96273 0.01661 0.97144 0.0
O5 O 0.96379 0.02274 0.97126 0.0
O6 O 0.03864 0.01706 0.06363 0.0
Fe7 Fe 0.00599 0.08581 1.01864 0.0
C8 C 0.92804 0.94071 0.13182 0.0
O9 O 0.03789 0.88424 0.0697 0.0
O10 O 0.09077 0.93995 0.13964 0.0
O11 O 0.07631 0.08217 0.95937 0.0
O12 O 0.02766 0.08042 0.87228 0.0
O13 O 0.02251 0.95111 0.86843 0.0
O14 O 0.06688 0.94143 0.95759 0.0
O15 O 0.10217 0.07846 0.14079 0.0
O16 O 0.05685 0.14267 0.0751 0.0
C17 C 0.06539 0.93319 0.90016 0.0
O18 O 0.96361 0.14955 0.96503 0.0
O19 O 0.90828 0.09313 0.89774 0.0
O20 O 0.92532 0.95 0.075 0.0
O21 O 0.97176 0.95664 0.16358 0.0
C22 C 0.07693 0.89008 0.11244 0.0
C23 C 0.09753 0.12896 0.11402 0.0
C24 C 0.93784 0.10375 0.13412 0.0
O25 O 0.98075 0.08558 0.16563 0.0
O26 O 0.9356 0.09399 0.07703 0.0
C27 C 0.07263 0.0938 0.90323 0.0
O28 O 0.90147 0.95435 0.89245 0.0
O29 O 0.94665 0.89062 0.95864 0.0
C30 C 0.92117 0.1427 0.92608 0.0
C31 C 0.90817 0.90302 0.91704 0.0
Fe32 Fe 0.48927 0.64555 0.47361 0.0
O33 O 0.49425 0.55894 0.47849 0.0
Fe34 Fe 0.56821 0.52145 0.51918 0.0
Fe35 Fe 0.43275 0.51054 0.51805 0.0
O36 O 0.50025 0.55878 0.47738 0.0
O37 O 0.50662 0.4735 0.55906 0.0
O38 O 0.50069 0.47358 0.56002 0.0
Fe39 Fe 0.51203 0.3873 0.56547 0.0
C40 C 0.40976 0.62619 0.58509 0.0
O41 O 0.42351 0.6238 0.41338 0.0
O42 O 0.36984 0.55563 0.46644 0.0
O43 O 0.57953 0.37792 0.5033 0.0
O44 O 0.57897 0.45956 0.44847 0.0
O45 O 0.62373 0.57817 0.4701 0.0
O46 O 0.55951 0.6353 0.41492 0.0
O47 O 0.43934 0.44984 0.44708 0.0
O48 O 0.45242 0.36628 0.49727 0.0
C49 C 0.6113 0.61389 0.42596 0.0
O50 O 0.57638 0.41072 0.62671 0.0
O51 O 0.63108 0.47667 0.57158 0.0
O52 O 0.42384 0.65557 0.53868 0.0
O53 O 0.42209 0.57121 0.58915 0.0
C54 C 0.37703 0.5923 0.42214 0.0
C55 C 0.43498 0.3939 0.45066 0.0
C56 C 0.38909 0.41897 0.61114 0.0
O57 O 0.377 0.45417 0.56661 0.0
O58 O 0.44068 0.39746 0.62266 0.0
C59 C 0.59461 0.40587 0.45633 0.0
O60 O 0.56148 0.58184 0.59032 0.0
O61 O 0.55037 0.66553 0.54034 0.0
C62 C 0.62315 0.4416 0.61715 0.0
C63 C 0.5665 0.63765 0.58717 0.0
C64 C 0.19903 0.15479 0.14296 0.0
C65 C 0.14122 0.17365 0.13242 0.0
C66 C 0.2386 0.19251 0.17199 0.0
C67 C 0.2209 0.24977 0.19256 0.0
C68 C 0.1644 0.27027 0.17773 0.0
C69 C 0.12477 0.2325 0.14781 0.0
C70 C 0.25944 0.2877 0.23157 0.0
C71 C 0.30017 0.26437 0.26868 0.0
C72 C 0.33634 0.29919 0.31284 0.0
C73 C 0.36445 0.26866 0.35954 0.0
C74 C 0.39754 0.29904 0.40335 0.0
C75 C 0.40381 0.36092 0.4014 0.0
H76 H 0.32448 0.38614 0.27379 0.0
C77 C 0.37717 0.3914 0.35359 0.0
C78 C 0.3439 0.36096 0.30977 0.0
H79 H 0.38118 0.4391 0.35041 0.0
H80 H 0.21313 0.10989 0.13052 0.0
H81 H 0.28255 0.17592 0.17951 0.0
H82 H 0.14987 0.31455 0.19201 0.0
H83 H 0.08041 0.24807 0.14026 0.0
H84 H 0.25037 0.33512 0.23335 0.0
H85 H 0.30495 0.21641 0.27011 0.0
H86 H 0.35998 0.22102 0.36288 0.0
H87 H 0.41747 0.27401 0.43927 0.0
C88 C 0.88948 0.14739 0.22818 0.0
C89 C 0.89125 0.14082 0.16443 0.0
C90 C 0.84774 0.18456 0.25705 0.0
C91 C 0.80701 0.21695 0.22288 0.0
C92 C 0.80754 0.20898 0.15926 0.0
C93 C 0.84929 0.17149 0.13026 0.0
C94 C 0.76241 0.25744 0.25267 0.0
C95 C 0.77084 0.2835 0.3078 0.0
C96 C 0.72491 0.31698 0.34311 0.0
C97 C 0.7262 0.31385 0.40665 0.0
C98 C 0.68371 0.34295 0.44262 0.0
C99 C 0.63951 0.3773 0.4161 0.0
H100 H 0.6797 0.35615 0.26718 0.0
C101 C 0.63897 0.3825 0.35254 0.0
C102 C 0.68108 0.35189 0.31608 0.0
H103 H 0.60544 0.40901 0.33116 0.0
H104 H 0.92042 0.12376 0.25604 0.0
H105 H 0.84728 0.18695 0.30627 0.0
H106 H 0.77614 0.2325 0.13182 0.0
H107 H 0.84921 0.16734 0.08102 0.0
H108 H 0.72148 0.26491 0.22906 0.0
H109 H 0.81219 0.2767 0.33075 0.0
H110 H 0.7597 0.28775 0.42866 0.0
H111 H 0.68575 0.33886 0.49158 0.0
C112 C 0.88851 0.8898 0.223 0.0
C113 C 0.8832 0.90349 0.16113 0.0
C114 C 0.85108 0.84935 0.24973 0.0
C115 C 0.80721 0.8214 0.21532 0.0
C116 C 0.80015 0.83687 0.15425 0.0
C117 C 0.83797 0.87715 0.12723 0.0
C118 C 0.76676 0.77799 0.24255 0.0
C119 C 0.78183 0.74288 0.28901 0.0
C120 C 0.74051 0.7025 0.32005 0.0
C121 C 0.75454 0.68219 0.37826 0.0
C122 C 0.71423 0.6495 0.41171 0.0
C123 C 0.65903 0.63666 0.38748 0.0
H124 H 0.67505 0.69728 0.24864 0.0
C125 C 0.64666 0.6533 0.32772 0.0
C126 C 0.68694 0.68536 0.29421 0.0
H127 H 0.60478 0.64305 0.30739 0.0
H128 H 0.92242 0.90952 0.25085 0.0
H129 H 0.85647 0.84054 0.29752 0.0
H130 H 0.76605 0.81672 0.12695 0.0
H131 H 0.83253 0.88655 0.07954 0.0
H132 H 0.72335 0.77563 0.22319 0.0
H133 H 0.82587 0.74539 0.30707 0.0
H134 H 0.79583 0.69382 0.39906 0.0
H135 H 0.72494 0.63739 0.45769 0.0
C136 C 0.11783 0.83545 0.19916 0.0
C137 C 0.10395 0.83597 0.13704 0.0
C138 C 0.14423 0.78582 0.22403 0.0
C139 C 0.15787 0.7353 0.18735 0.0
C140 C 0.14378 0.73544 0.12518 0.0
C141 C 0.11609 0.78511 0.10032 0.0
C142 C 0.19301 0.68582 0.21225 0.0
C143 C 0.18955 0.67156 0.27135 0.0
C144 C 0.2365 0.63919 0.30371 0.0
C145 C 0.22428 0.61656 0.36136 0.0
C146 C 0.26969 0.59746 0.39883 0.0
C147 C 0.32822 0.60182 0.37962 0.0
H148 H 0.30663 0.65752 0.23956 0.0
C149 C 0.34019 0.62106 0.32061 0.0
C150 C 0.29494 0.63942 0.28299 0.0
H151 H 0.38491 0.62431 0.3043 0.0
H152 H 0.10847 0.87373 0.22883 0.0
H153 H 0.15605 0.78826 0.27164 0.0
H154 H 0.15475 0.69739 0.09578 0.0
H155 H 0.1058 0.78442 0.05228 0.0
H156 H 0.22532 0.66416 0.1823 0.0
H157 H 0.1533 0.68929 0.29899 0.0
H158 H 0.17971 0.61633 0.37865 0.0
H159 H 0.25918 0.58282 0.44411 0.0
C160 C 0.10333 0.86703 0.81471 0.0
C161 C 0.11354 0.89884 0.8695 0.0
C162 C 0.14823 0.83344 0.78621 0.0
C163 C 0.2046 0.83168 0.81141 0.0
C164 C 0.21513 0.86428 0.86554 0.0
C165 C 0.16983 0.89681 0.89486 0.0
C166 C 0.25359 0.79893 0.77997 0.0
C167 C 0.24611 0.74656 0.75 0.0
C168 C 0.29315 0.71581 0.71346 0.0
C169 C 0.29253 0.65364 0.70615 0.0
C170 C 0.33255 0.624 0.66689 0.0
C171 C 0.37299 0.65622 0.63289 0.0
H172 H 0.33626 0.79583 0.68487 0.0
C173 C 0.37448 0.71832 0.64124 0.0
C174 C 0.33526 0.74781 0.68134 0.0
H175 H 0.40516 0.74433 0.61566 0.0
H176 H 0.06041 0.86757 0.7941 0.0
H177 H 0.13905 0.80995 0.74374 0.0
H178 H 0.25836 0.86414 0.88547 0.0
H179 H 0.17909 0.92109 0.93689 0.0
H180 H 0.29702 0.81788 0.78278 0.0
H181 H 0.2039 0.72499 0.75256 0.0
H182 H 0.26027 0.62801 0.73002 0.0
H183 H 0.33001 0.57616 0.66109 0.0
C184 C 0.35317 0.38183 0.70997 0.0
C185 C 0.34114 0.39733 0.64981 0.0
C186 C 0.31251 0.35075 0.74389 0.0
C187 C 0.25903 0.33353 0.718 0.0
C188 C 0.24522 0.353 0.65946 0.0
C189 C 0.28591 0.38471 0.62559 0.0
C190 C 0.21776 0.29358 0.74934 0.0
C191 C 0.23366 0.25718 0.79437 0.0
C192 C 0.19342 0.21353 0.82119 0.0
C193 C 0.20113 0.19677 0.88175 0.0
C194 C 0.16326 0.1563 0.90833 0.0
C195 C 0.11742 0.13118 0.87439 0.0
H196 H 0.14326 0.19642 0.73915 0.0
C197 C 0.11158 0.14605 0.81293 0.0
C198 C 0.14904 0.18665 0.78667 0.0
H199 H 0.07726 0.12713 0.78506 0.0
H200 H 0.39504 0.39212 0.73028 0.0
H201 H 0.324 0.3395 0.78979 0.0
H202 H 0.20393 0.34127 0.63872 0.0
H203 H 0.27548 0.39612 0.57934 0.0
H204 H 0.17327 0.29207 0.73235 0.0
H205 H 0.27765 0.25844 0.81248 0.0
H206 H 0.2357 0.21609 0.90902 0.0
H207 H 0.16909 0.14586 0.95572 0.0
C208 C 0.91164 0.24818 0.89372 0.0
C209 C 0.88548 0.19484 0.91027 0.0
C210 C 0.87764 0.2936 0.86871 0.0
C211 C 0.81695 0.28638 0.86099 0.0
C212 C 0.79076 0.23449 0.88136 0.0
C213 C 0.82471 0.18889 0.90495 0.0
C214 C 0.77923 0.33014 0.82998 0.0
C215 C 0.79781 0.36383 0.78402 0.0
C216 C 0.75592 0.39515 0.74389 0.0
C217 C 0.77079 0.40267 0.68235 0.0
C218 C 0.72859 0.42198 0.64108 0.0
C219 C 0.67091 0.43368 0.66091 0.0
H220 H 0.68712 0.41062 0.81186 0.0
C221 C 0.65735 0.43094 0.72313 0.0
C222 C 0.69958 0.41278 0.76438 0.0
H223 H 0.61336 0.44103 0.73961 0.0
H224 H 0.95857 0.2535 0.89726 0.0
H225 H 0.89895 0.33368 0.85471 0.0
H226 H 0.74408 0.22797 0.87648 0.0
H227 H 0.8036 0.1482 0.91766 0.0
H228 H 0.73268 0.32791 0.83988 0.0
H229 H 0.8436 0.36173 0.7702 0.0
H230 H 0.81408 0.39025 0.66543 0.0
H231 H 0.74002 0.42391 0.59323 0.0
C232 C 0.62814 0.6386 0.68142 0.0
C233 C 0.59752 0.66992 0.63681 0.0
C234 C 0.66296 0.66867 0.72409 0.0
C235 C 0.66748 0.73091 0.72338 0.0
C236 C 0.63469 0.76216 0.68055 0.0
C237 C 0.60024 0.73215 0.63777 0.0
C238 C 0.70955 0.76496 0.76173 0.0
C239 C 0.74222 0.74302 0.80713 0.0
C240 C 0.78921 0.77916 0.83574 0.0
C241 C 0.80101 0.77625 0.89839 0.0
C242 C 0.8422 0.81436 0.92563 0.0
C243 C 0.87196 0.85542 0.89018 0.0
H244 H 0.8168 0.81856 0.75133 0.0
C245 C 0.86296 0.85501 0.82706 0.0
C246 C 0.82253 0.8172 0.80015 0.0
H247 H 0.88644 0.88518 0.79839 0.0
H248 H 0.62714 0.59053 0.682 0.0
H249 H 0.68774 0.64259 0.75567 0.0
H250 H 0.63716 0.81011 0.67881 0.0
H251 H 0.57697 0.75773 0.60444 0.0
H252 H 0.71532 0.81118 0.75027 0.0
H253 H 0.73472 0.69896 0.82394 0.0
H254 H 0.77674 0.74632 0.92655 0.0
H255 H 0.84865 0.81371 0.97438 0.0
loop_
_geom_bond_atom_site_label_1
_geom_bond_atom_site_label_2
_geom_bond_distance
_geom_bond_site_symmetry_2
_ccdc_geom_bond_type
Fe0 O1 1.886 . S
Fe0 O4 1.715 1_554 S
Fe0 O9 2.077 . S
Fe0 O14 1.935 1_554 S
Fe0 O20 2.077 1_455 S
Fe0 O29 1.935 1_454 S
O1 Fe0 1.886 . S
O1 Fe3 1.715 1_565 S
Fe2 O4 1.886 . S
Fe2 O5 1.715 1_565 S
Fe2 O12 1.935 1_565 S
Fe2 O13 2.077 . S
Fe2 O19 1.935 1_465 S
Fe2 O28 2.077 1_455 S
Fe3 O1 1.715 1_545 S
Fe3 O6 1.886 . S
Fe3 O10 1.935 1_545 S
Fe3 O15 2.077 . S
Fe3 O21 1.935 1_445 S
Fe3 O25 2.077 1_455 S
O4 Fe0 1.715 1_556 S
O4 Fe2 1.886 . S
O5 Fe2 1.715 1_545 S
O5 Fe7 1.886 . S
O6 Fe3 1.886 . S
O6 Fe7 1.715 1_554 S
Fe7 O5 1.886 . S
Fe7 O6 1.715 1_556 S
Fe7 O11 2.077 . S
Fe7 O16 1.935 1_556 S
Fe7 O18 2.077 1_455 S
Fe7 O26 1.935 1_456 S
C8 O20 1.381 . S
C8 O21 1.421 . S
O9 Fe0 2.077 . S
O9 C22 1.381 . S
O10 Fe3 1.935 1_565 S
O10 C22 1.421 . S
O11 Fe7 2.077 . S
O11 C27 1.381 . S
O12 Fe2 1.935 1_545 S
O12 C27 1.421 . S
O13 Fe2 2.077 . S
O13 C17 1.381 . S
O14 Fe0 1.935 1_556 S
O14 C17 1.421 . S
O15 Fe3 2.077 . S
O15 C23 1.381 . S
O16 Fe7 1.935 1_554 S
O16 C23 1.421 . S
C17 O13 1.381 . S
C17 O14 1.421 . S
O18 Fe7 2.077 1_655 S
O18 C30 1.381 . S
O19 Fe2 1.935 1_645 S
O19 C30 1.421 . S
O20 Fe0 2.077 1_655 S
O20 C8 1.381 . S
O21 Fe3 1.935 1_665 S
O21 C8 1.421 . S
C22 O9 1.381 . S
C22 O10 1.421 . S
C23 O15 1.381 . S
C23 O16 1.421 . S
C24 O25 1.381 . S
C24 O26 1.421 . S
O25 Fe3 2.077 1_655 S
O25 C24 1.381 . S
O26 Fe7 1.935 1_654 S
O26 C24 1.421 . S
C27 O11 1.381 . S
C27 O12 1.421 . S
O28 Fe2 2.077 1_655 S
O28 C31 1.381 . S
O29 Fe0 1.935 1_656 S
O29 C31 1.421 . S
C30 O18 1.381 . S
C30 O19 1.421 . S
C31 O28 1.381 . S
C31 O29 1.421 . S
Fe32 O33 1.886 . S
Fe32 O36 1.715 . S
Fe32 O41 2.077 . S
Fe32 O46 1.935 . S
Fe32 O52 2.077 . S
Fe32 O61 1.935 . S
O33 Fe32 1.886 . S
O33 Fe35 1.715 . S
Fe34 O36 1.886 . S
Fe34 O37 1.715 . S
Fe34 O44 1.935 . S
Fe34 O45 2.077 . S
Fe34 O51 1.935 . S
Fe34 O60 2.077 . S
Fe35 O33 1.715 . S
Fe35 O38 1.886 . S
Fe35 O42 1.935 . S
Fe35 O47 2.077 . S
Fe35 O53 1.935 . S
Fe35 O57 2.077 . S
O36 Fe32 1.715 . S
O36 Fe34 1.886 . S
O37 Fe34 1.715 . S
O37 Fe39 1.886 . S
O38 Fe35 1.886 . S
O38 Fe39 1.715 . S
Fe39 O37 1.886 . S
Fe39 O38 1.715 . S
Fe39 O43 2.077 . S
Fe39 O48 1.935 . S
Fe39 O50 2.077 . S
Fe39 O58 1.935 . S
C40 O52 1.381 . S
C40 O53 1.421 . S
O41 Fe32 2.077 . S
O41 C54 1.381 . S
O42 Fe35 1.935 . S
O42 C54 1.421 . S
O43 Fe39 2.077 . S
O43 C59 1.381 . S
O44 Fe34 1.935 . S
O44 C59 1.421 . S
O45 Fe34 2.077 . S
O45 C49 1.381 . S
O46 Fe32 1.935 . S
O46 C49 1.421 . S
O47 Fe35 2.077 . S
O47 C55 1.381 . S
O48 Fe39 1.935 . S
O48 C55 1.421 . S
C49 O45 1.381 . S
C49 O46 1.421 . S
O50 Fe39 2.077 . S
O50 C62 1.381 . S
O51 Fe34 1.935 . S
O51 C62 1.421 . S
O52 Fe32 2.077 . S
O52 C40 1.381 . S
O53 Fe35 1.935 . S
O53 C40 1.421 . S
C54 O41 1.381 . S
C54 O42 1.421 . S
C55 O47 1.381 . S
C55 O48 1.421 . S
C56 O57 1.381 . S
C56 O58 1.421 . S
O57 Fe35 2.077 . S
O57 C56 1.381 . S
O58 Fe39 1.935 . S
O58 C56 1.421 . S
C59 O43 1.381 . S
C59 O44 1.421 . S
O60 Fe34 2.077 . S
O60 C63 1.381 . S
O61 Fe32 1.935 . S
O61 C63 1.421 . S
C62 O50 1.381 . S
C62 O51 1.421 . S
C63 O60 1.381 . S
C63 O61 1.421 . S
C64 C65 1.386 . S
C64 C66 1.383 . S
C64 H80 0.951 . S
C65 C64 1.386 . S
C65 C69 1.383 . S
C66 C64 1.383 . S
C66 C67 1.402 . S
C66 H81 0.951 . S
C67 C66 1.402 . S
C67 C68 1.375 . S
C67 C70 1.481 . S
C68 C67 1.375 . S
C68 C69 1.367 . S
C68 H82 0.951 . S
C69 C65 1.383 . S
C69 C68 1.367 . S
C69 H83 0.950 . S
C70 C67 1.481 . S
C70 C71 1.297 . S
C70 H84 0.950 . S
C71 C70 1.297 . S
C71 C72 1.479 . S
C71 H85 0.950 . S
C72 C71 1.479 . S
C72 C73 1.375 . S
C72 C78 1.404 . S
C73 C72 1.375 . S
C73 C74 1.369 . S
C73 H86 0.950 . S
C74 C73 1.369 . S
C74 C75 1.392 . S
C74 H87 0.951 . S
C75 C74 1.392 . S
C75 C77 1.384 . S
H76 C78 0.949 . S
C77 C75 1.384 . S
C77 C78 1.385 . S
C77 H79 0.950 . S
C78 C72 1.404 . S
C78 H76 0.949 . S
C78 C77 1.385 . S
H79 C77 0.950 . S
H80 C64 0.951 . S
H81 C66 0.951 . S
H82 C68 0.951 . S
H83 C69 0.950 . S
H84 C70 0.950 . S
H85 C71 0.950 . S
H86 C73 0.950 . S
H87 C74 0.951 . S
C88 C89 1.386 . S
C88 C90 1.383 . S
C88 H104 0.951 . S
C89 C88 1.386 . S
C89 C93 1.383 . S
C90 C88 1.383 . S
C90 C91 1.402 . S
C90 H105 0.951 . S
C91 C90 1.402 . S
C91 C92 1.375 . S
C91 C94 1.481 . S
C92 C91 1.375 . S
C92 C93 1.367 . S
C92 H106 0.951 . S
C93 C89 1.383 . S
C93 C92 1.367 . S
C93 H107 0.950 . S
C94 C91 1.481 . S
C94 C95 1.297 . S
C94 H108 0.950 . S
C95 C94 1.297 . S
C95 C96 1.479 . S
C95 H109 0.950 . S
C96 C95 1.479 . S
C96 C97 1.375 . S
C96 C102 1.404 . S
C97 C96 1.375 . S
C97 C98 1.369 . S
C97 H110 0.950 . S
C98 C97 1.369 . S
C98 C99 1.392 . S
C98 H111 0.951 . S
C99 C98 1.392 . S
C99 C101 1.384 . S
H100 C102 0.949 . S
C101 C99 1.384 . S
C101 C102 1.385 . S
C101 H103 0.950 . S
C102 C96 1.404 . S
C102 H100 0.949 . S
C102 C101 1.385 . S
H103 C101 0.950 . S
H104 C88 0.951 . S
H105 C90 0.951 . S
H106 C92 0.951 . S
H107 C93 0.950 . S
H108 C94 0.950 . S
H109 C95 0.950 . S
H110 C97 0.950 . S
H111 C98 0.951 . S
C112 C113 1.386 . S
C112 C114 1.383 . S
C112 H128 0.951 . S
C113 C112 1.386 . S
C113 C117 1.383 . S
C114 C112 1.383 . S
C114 C115 1.402 . S
C114 H129 0.951 . S
C115 C114 1.402 . S
C115 C116 1.375 . S
C115 C118 1.481 . S
C116 C115 1.375 . S
C116 C117 1.367 . S
C116 H130 0.951 . S
C117 C113 1.383 . S
C117 C116 1.367 . S
C117 H131 0.950 . S
C118 C115 1.481 . S
C118 C119 1.297 . S
C118 H132 0.950 . S
C119 C118 1.297 . S
C119 C120 1.479 . S
C119 H133 0.950 . S
C120 C119 1.479 . S
C120 C121 1.375 . S
C120 C126 1.404 . S
C121 C120 1.375 . S
C121 C122 1.369 . S
C121 H134 0.950 . S
C122 C121 1.369 . S
C122 C123 1.392 . S
C122 H135 0.951 . S
C123 C122 1.392 . S
C123 C125 1.384 . S
H124 C126 0.949 . S
C125 C123 1.384 . S
C125 C126 1.385 . S
C125 H127 0.950 . S
C126 C120 1.404 . S
C126 H124 0.949 . S
C126 C125 1.385 . S
H127 C125 0.950 . S
H128 C112 0.951 . S
H129 C114 0.951 . S
H130 C116 0.951 . S
H131 C117 0.950 . S
H132 C118 0.950 . S
H133 C119 0.950 . S
H134 C121 0.950 . S
H135 C122 0.951 . S
C136 C137 1.386 . S
C136 C138 1.383 . S
C136 H152 0.951 . S
C137 C136 1.386 . S
C137 C141 1.383 . S
C138 C136 1.383 . S
C138 C139 1.402 . S
C138 H153 0.951 . S
C139 C138 1.402 . S
C139 C140 1.375 . S
C139 C142 1.481 . S
C140 C139 1.375 . S
C140 C141 1.367 . S
C140 H154 0.951 . S
C141 C137 1.383 . S
C141 C140 1.367 . S
C141 H155 0.950 . S
C142 C139 1.481 . S
C142 C143 1.297 . S
C142 H156 0.950 . S
C143 C142 1.297 . S
C143 C144 1.479 . S
C143 H157 0.950 . S
C144 C143 1.479 . S
C144 C145 1.375 . S
C144 C150 1.404 . S
C145 C144 1.375 . S
C145 C146 1.369 . S
C145 H158 0.950 . S
C146 C145 1.369 . S
C146 C147 1.392 . S
C146 H159 0.951 . S
C147 C146 1.392 . S
C147 C149 1.384 . S
H148 C150 0.949 . S
C149 C147 1.384 . S
C149 C150 1.385 . S
C149 H151 0.950 . S
C150 C144 1.404 . S
C150 H148 0.949 . S
C150 C149 1.385 . S
H151 C149 0.950 . S
H152 C136 0.951 . S
H153 C138 0.951 . S
H154 C140 0.951 . S
H155 C141 0.950 . S
H156 C142 0.950 . S
H157 C143 0.950 . S
H158 C145 0.950 . S
H159 C146 0.951 . S
C160 C161 1.386 . S
C160 C162 1.383 . S
C160 H176 0.951 . S
C161 C160 1.386 . S
C161 C165 1.383 . S
C162 C160 1.383 . S
C162 C163 1.402 . S
C162 H177 0.951 . S
C163 C162 1.402 . S
C163 C164 1.375 . S
C163 C166 1.481 . S
C164 C163 1.375 . S
C164 C165 1.367 . S
C164 H178 0.951 . S
C165 C161 1.383 . S
C165 C164 1.367 . S
C165 H179 0.950 . S
C166 C163 1.481 . S
C166 C167 1.297 . S
C166 H180 0.950 . S
C167 C166 1.297 . S
C167 C168 1.479 . S
C167 H181 0.950 . S
C168 C167 1.479 . S
C168 C169 1.375 . S
C168 C174 1.404 . S
C169 C168 1.375 . S
C169 C170 1.369 . S
C169 H182 0.950 . S
C170 C169 1.369 . S
C170 C171 1.392 . S
C170 H183 0.951 . S
C171 C170 1.392 . S
C171 C173 1.384 . S
H172 C174 0.949 . S
C173 C171 1.384 . S
C173 C174 1.385 . S
C173 H175 0.950 . S
C174 C168 1.404 . S
C174 H172 0.949 . S
C174 C173 1.385 . S
H175 C173 0.950 . S
H176 C160 0.951 . S
H177 C162 0.951 . S
H178 C164 0.951 . S
H179 C165 0.950 . S
H180 C166 0.950 . S
H181 C167 0.950 . S
H182 C169 0.950 . S
H183 C170 0.951 . S
C184 C185 1.386 . S
C184 C186 1.383 . S
C184 H200 0.951 . S
C185 C184 1.386 . S
C185 C189 1.383 . S
C186 C184 1.383 . S
C186 C187 1.402 . S
C186 H201 0.951 . S
C187 C186 1.402 . S
C187 C188 1.375 . S
C187 C190 1.481 . S
C188 C187 1.375 . S
C188 C189 1.367 . S
C188 H202 0.951 . S
C189 C185 1.383 . S
C189 C188 1.367 . S
C189 H203 0.950 . S
C190 C187 1.481 . S
C190 C191 1.297 . S
C190 H204 0.950 . S
C191 C190 1.297 . S
C191 C192 1.479 . S
C191 H205 0.950 . S
C192 C191 1.479 . S
C192 C193 1.375 . S
C192 C198 1.404 . S
C193 C192 1.375 . S
C193 C194 1.369 . S
C193 H206 0.950 . S
C194 C193 1.369 . S
C194 C195 1.392 . S
C194 H207 0.951 . S
C195 C194 1.392 . S
C195 C197 1.384 . S
H196 C198 0.949 . S
C197 C195 1.384 . S
C197 C198 1.385 . S
C197 H199 0.950 . S
C198 C192 1.404 . S
C198 H196 0.949 . S
C198 C197 1.385 . S
H199 C197 0.950 . S
H200 C184 0.951 . S
H201 C186 0.951 . S
H202 C188 0.951 . S
H203 C189 0.950 . S
H204 C190 0.950 . S
H205 C191 0.950 . S
H206 C193 0.950 . S
H207 C194 0.951 . S
C208 C209 1.386 . S
C208 C210 1.383 . S
C208 H224 0.951 . S
C209 C208 1.386 . S
C209 C213 1.383 . S
C210 C208 1.383 . S
C210 C211 1.402 . S
C210 H225 0.951 . S
C211 C210 1.402 . S
C211 C212 1.375 . S
C211 C214 1.481 . S
C212 C211 1.375 . S
C212 C213 1.367 . S
C212 H226 0.951 . S
C213 C209 1.383 . S
C213 C212 1.367 . S
C213 H227 0.950 . S
C214 C211 1.481 . S
C214 C215 1.297 . S
C214 H228 0.950 . S
C215 C214 1.297 . S
C215 C216 1.479 . S
C215 H229 0.950 . S
C216 C215 1.479 . S
C216 C217 1.375 . S
C216 C222 1.404 . S
C217 C216 1.375 . S
C217 C218 1.369 . S
C217 H230 0.950 . S
C218 C217 1.369 . S
C218 C219 1.392 . S
C218 H231 0.951 . S
C219 C218 1.392 . S
C219 C221 1.384 . S
H220 C222 0.949 . S
C221 C219 1.384 . S
C221 C222 1.385 . S
C221 H223 0.950 . S
C222 C216 1.404 . S
C222 H220 0.949 . S
C222 C221 1.385 . S
H223 C221 0.950 . S
H224 C208 0.951 . S
H225 C210 0.951 . S
H226 C212 0.951 . S
H227 C213 0.950 . S
H228 C214 0.950 . S
H229 C215 0.950 . S
H230 C217 0.950 . S
H231 C218 0.951 . S
C232 C233 1.386 . S
C232 C234 1.383 . S
C232 H248 0.951 . S
C233 C232 1.386 . S
C233 C237 1.383 . S
C234 C232 1.383 . S
C234 C235 1.402 . S
C234 H249 0.951 . S
C235 C234 1.402 . S
C235 C236 1.375 . S
C235 C238 1.481 . S
C236 C235 1.375 . S
C236 C237 1.367 . S
C236 H250 0.951 . S
C237 C233 1.383 . S
C237 C236 1.367 . S
C237 H251 0.950 . S
C238 C235 1.481 . S
C238 C239 1.297 . S
C238 H252 0.950 . S
C239 C238 1.297 . S
C239 C240 1.479 . S
C239 H253 0.950 . S
C240 C239 1.479 . S
C240 C241 1.375 . S
C240 C246 1.404 . S
C241 C240 1.375 . S
C241 C242 1.369 . S
C241 H254 0.950 . S
C242 C241 1.369 . S
C242 C243 1.392 . S
C242 H255 0.951 . S
C243 C242 1.392 . S
C243 C245 1.384 . S
H244 C246 0.949 . S
C245 C243 1.384 . S
C245 C246 1.385 . S
C245 H247 0.950 . S
C246 C240 1.404 . S
C246 H244 0.949 . S
C246 C245 1.385 . S
H247 C245 0.950 . S
H248 C232 0.951 . S
H249 C234 0.951 . S
H250 C236 0.951 . S
H251 C237 0.950 . S
H252 C238 0.950 . S
H253 C239 0.950 . S
H254 C241 0.950 . S
H255 C242 0.951 . S
C65 C23 1.435 . S
C75 C55 1.481 . S
C89 C24 1.450 . S
C99 C59 1.447 . S
C113 C8 1.470 . S
C123 C49 1.398 . S
C137 C22 1.442 . S
C147 C54 1.415 . S
C161 C17 1.475 . S
C171 C40 1.431 . S
C185 C56 1.446 . S
C195 C27 1.432 . S
C209 C30 1.472 . S
C219 C62 1.414 . S
C233 C63 1.431 . S
C243 C31 1.402 . S
