# Generated by pormake.
# Topology unc, (4)-cn, num edge types: 1
# Building blocks:
#     Node 0, Type 0, BuildingBlock: QUQFOY_clean_sbu_3, # of connection points: 4
#     Node 1, Type 0, BuildingBlock: QUQFOY_clean_sbu_3, # of connection points: 4
#     Node 2, Type 0, BuildingBlock: QUQFOY_clean_sbu_3, # of connection points: 4
#     Node 3, Type 0, BuildingBlock: QUQFOY_clean_sbu_3, # of connection points: 4
#     Edge 4, Type (0, 0), BuildingBlock: EYOCIG_clean_linker_4, # of connection points: 2
#     Edge 5, Type (0, 0), BuildingBlock: EYOCIG_clean_linker_4, # of connection points: 2
#     Edge 6, Type (0, 0), BuildingBlock: EYOCIG_clean_linker_4, # of connection points: 2
#     Edge 7, Type (0, 0), BuildingBlock: EYOCIG_clean_linker_4, # of connection points: 2
#     Edge 8, Type (0, 0), BuildingBlock: EYOCIG_clean_linker_4, # of connection points: 2
#     Edge 9, Type (0, 0), BuildingBlock: EYOCIG_clean_linker_4, # of connection points: 2
#     Edge 10, Type (0, 0), BuildingBlock: EYOCIG_clean_linker_4, # of connection points: 2
#     Edge 11, Type (0, 0), BuildingBlock: EYOCIG_clean_linker_4, # of connection points: 2
# Relax obj value: 0.006
# Max RMSD: 0.045
# Mean RMSD: 0.045
data_MOF--net-unc--node1-QUQFOY_clean_sbu_3--edge1-EYOCIG_clean_linker_4
_symmetry_space_group_name_H-M    P1
_symmetry_Int_Tables_number       1
_symmetry_cell_setting            triclinic
loop_
_symmetry_equiv_pos_as_xyz
'x, y, z'
_cell_length_a     24.972454
_cell_length_b     24.970456
_cell_length_c     19.258383
_cell_angle_alpha  90.030103
_cell_angle_beta   90.039272
_cell_angle_gamma 94.360212
loop_
_atom_site_label
_atom_site_type_symbol
_atom_site_fract_x
_atom_site_fract_y
_atom_site_fract_z
_atom_type_partial_charge
C0 C 0.04851 0.5899 0.84847 0.0
O1 O 0.09351 0.59335 0.87928 0.0
Cd2 Cd 0.11066 0.64446 -0.01646 0.0
O3 O 0.00977 0.61595 0.86962 0.0
Cd4 Cd -0.0077 0.68159 0.9627 0.0
C5 C 0.00879 0.58709 0.08505 0.0
O6 O 0.08028 0.73215 -0.03313 0.0
O7 O 0.0261 0.7453 0.05182 0.0
O8 O 0.94893 0.73543 0.87688 0.0
C9 C 0.07033 0.75769 0.02167 0.0
O10 O 0.05887 0.59474 0.07317 0.0
C11 C 0.90501 0.73652 0.90959 0.0
O12 O 0.9744 0.61098 0.05018 0.0
O13 O 0.90064 0.71133 -0.03321 0.0
C14 C 0.41726 0.95842 0.34039 0.0
O15 O 0.41374 0.91346 0.30951 0.0
Cd16 Cd 0.36247 0.89639 0.20536 0.0
O17 O 0.39119 -0.0028 0.31939 0.0
Cd18 Cd 0.32538 0.0148 0.22652 0.0
C19 C 0.41966 -0.00159 0.10389 0.0
O20 O 0.27485 0.92681 0.2223 0.0
O21 O 0.26155 0.98108 0.13748 0.0
O22 O 0.27164 0.05803 0.31257 0.0
C23 C 0.24924 0.93681 0.16757 0.0
O24 O 0.41202 0.94831 0.11572 0.0
C25 C 0.27047 0.10199 0.27996 0.0
O26 O 0.39584 0.03278 0.13888 0.0
O27 O 0.2956 0.10646 0.22272 0.0
C28 C 0.95841 0.41689 0.34824 0.0
O29 O 0.9134 0.41347 0.37894 0.0
Cd30 Cd 0.89619 0.36246 0.48316 0.0
O31 O -0.00288 0.39083 0.36947 0.0
Cd32 Cd 0.01447 0.32519 0.46258 0.0
C33 C -0.00191 0.41981 0.58487 0.0
O34 O 0.92645 0.27469 0.46668 0.0
O35 O 0.98063 0.2617 0.55177 0.0
O36 O 0.05787 0.27118 0.37699 0.0
C37 C 0.93638 0.24927 0.52157 0.0
O38 O 0.94801 0.4122 0.57291 0.0
C39 C 0.10179 0.27017 0.4098 0.0
O40 O 0.03245 0.39586 0.55006 0.0
O41 O 0.10613 0.29547 0.46697 0.0
C42 C 0.58982 0.04853 0.84065 0.0
O43 O 0.59328 0.09351 0.80986 0.0
Cd44 Cd 0.64447 0.11067 0.70578 0.0
O45 O 0.61593 0.00979 0.81961 0.0
Cd46 Cd 0.6817 -0.00765 0.72671 0.0
C47 C 0.58733 0.00865 0.60405 0.0
O48 O 0.73217 0.08039 0.72264 0.0
O49 O 0.74536 0.02615 0.63771 0.0
O50 O 0.73559 0.94901 0.81255 0.0
C51 C 0.7577 0.07043 0.66787 0.0
O52 O 0.59491 0.05875 0.61597 0.0
C53 C 0.73666 0.90508 0.77979 0.0
O54 O 0.6112 0.97431 0.639 0.0
O55 O 0.71145 0.90069 0.72257 0.0
C56 C 0.98104 0.51889 0.18557 0.0
C57 C -0.00864 0.55037 0.13918 0.0
C58 C 0.97238 0.48244 0.24116 0.0
C59 C 0.96628 0.45244 0.29001 0.0
C60 C 0.48288 0.97219 0.44754 0.0
C61 C 0.45285 0.96616 0.39865 0.0
C62 C 0.51929 0.98082 0.50324 0.0
C63 C 0.5507 -0.00884 0.54977 0.0
C64 C 0.0346 0.52439 0.74123 0.0
C65 C 0.04069 0.55437 0.79015 0.0
C66 C 0.02592 0.48798 0.68554 0.0
C67 C 0.01556 0.45651 0.63909 0.0
C68 C 0.48775 0.02613 0.00326 0.0
C69 C 0.45632 0.01585 0.04971 0.0
C70 C 0.52419 0.03472 0.94766 0.0
C71 C 0.55423 0.04074 0.89884 0.0
C72 C 0.17913 0.86538 0.11056 0.0
C73 C 0.21122 0.89759 0.1372 0.0
C74 C 0.1417 0.8279 0.07862 0.0
C75 C 0.10953 0.79575 0.05199 0.0
C76 C 0.21254 0.17712 0.3304 0.0
C77 C 0.23945 0.14387 0.30561 0.0
C78 C 0.17716 0.21238 0.35975 0.0
C79 C 0.1438 0.23924 0.38438 0.0
C80 C 0.82765 0.14187 0.61078 0.0
C81 C 0.79562 0.10969 0.6375 0.0
C82 C 0.86501 0.17928 0.57869 0.0
C83 C 0.89716 0.21133 0.55195 0.0
C84 C 0.79448 0.82978 0.83002 0.0
C85 C 0.76762 0.86311 0.80532 0.0
C86 C 0.82977 0.79442 0.85936 0.0
C87 C 0.86307 0.76752 0.88407 0.0
loop_
_geom_bond_atom_site_label_1
_geom_bond_atom_site_label_2
_geom_bond_distance
_geom_bond_site_symmetry_2
_ccdc_geom_bond_type
C0 O1 1.306 . S
C0 O3 1.160 1_455 S
O1 C0 1.306 . S
O1 Cd2 2.228 1_556 S
Cd2 O1 2.228 1_554 S
Cd2 O6 2.273 . S
Cd2 O10 2.277 . S
O3 C0 1.160 1_655 S
O3 Cd4 2.203 1_656 S
Cd4 O3 2.203 1_454 S
Cd4 O6 2.411 . S
Cd4 O7 2.333 . S
Cd4 O8 2.352 1_454 S
Cd4 O12 2.277 1_455 S
Cd4 O13 2.356 1_455 S
C5 O10 1.209 . S
C5 O12 1.226 1_455 S
O6 Cd2 2.273 . S
O6 Cd4 2.411 . S
O6 C9 1.320 . S
O7 Cd4 2.333 . S
O7 C9 1.214 . S
O8 Cd4 2.352 1_656 S
O8 C11 1.258 . S
C9 O6 1.320 . S
C9 O7 1.214 . S
O10 Cd2 2.277 . S
O10 C5 1.209 . S
C11 O8 1.258 . S
C11 O13 1.282 1_556 S
O12 Cd4 2.277 1_655 S
O12 C5 1.226 1_655 S
O13 Cd4 2.356 1_655 S
O13 C11 1.282 1_554 S
C14 O15 1.306 1_545 S
C14 O17 1.160 . S
O15 C14 1.306 1_565 S
O15 Cd16 2.228 . S
Cd16 O15 2.228 . S
Cd16 O20 2.273 . S
Cd16 O24 2.277 . S
O17 C14 1.160 . S
O17 Cd18 2.203 . S
Cd18 O17 2.203 . S
Cd18 O20 2.411 1_545 S
Cd18 O21 2.333 1_545 S
Cd18 O22 2.352 . S
Cd18 O26 2.277 . S
Cd18 O27 2.356 . S
C19 O24 1.209 1_545 S
C19 O26 1.226 . S
O20 Cd16 2.273 . S
O20 Cd18 2.411 1_565 S
O20 C23 1.320 . S
O21 Cd18 2.333 1_565 S
O21 C23 1.214 . S
O22 Cd18 2.352 . S
O22 C25 1.258 . S
C23 O20 1.320 . S
C23 O21 1.214 . S
O24 Cd16 2.277 . S
O24 C19 1.209 1_565 S
C25 O22 1.258 . S
C25 O27 1.282 . S
O26 Cd18 2.277 . S
O26 C19 1.226 . S
O27 Cd18 2.356 . S
O27 C25 1.282 . S
C28 O29 1.306 1_455 S
C28 O31 1.160 . S
O29 C28 1.306 1_655 S
O29 Cd30 2.228 . S
Cd30 O29 2.228 . S
Cd30 O34 2.273 . S
Cd30 O38 2.277 . S
O31 C28 1.160 . S
O31 Cd32 2.203 . S
Cd32 O31 2.203 . S
Cd32 O34 2.411 1_455 S
Cd32 O35 2.333 1_455 S
Cd32 O36 2.352 . S
Cd32 O40 2.277 . S
Cd32 O41 2.356 . S
C33 O38 1.209 1_455 S
C33 O40 1.226 . S
O34 Cd30 2.273 . S
O34 Cd32 2.411 1_655 S
O34 C37 1.320 . S
O35 Cd32 2.333 1_655 S
O35 C37 1.214 . S
O36 Cd32 2.352 . S
O36 C39 1.258 . S
C37 O34 1.320 . S
C37 O35 1.214 . S
O38 Cd30 2.277 . S
O38 C33 1.209 1_655 S
C39 O36 1.258 . S
C39 O41 1.282 . S
O40 Cd32 2.277 . S
O40 C33 1.226 . S
O41 Cd32 2.356 . S
O41 C39 1.282 . S
C42 O43 1.306 . S
C42 O45 1.160 1_545 S
O43 C42 1.306 . S
O43 Cd44 2.228 . S
Cd44 O43 2.228 . S
Cd44 O48 2.273 . S
Cd44 O52 2.277 . S
O45 C42 1.160 1_565 S
O45 Cd46 2.203 1_565 S
Cd46 O45 2.203 1_545 S
Cd46 O48 2.411 . S
Cd46 O49 2.333 . S
Cd46 O50 2.352 1_545 S
Cd46 O54 2.277 1_545 S
Cd46 O55 2.356 1_545 S
C47 O52 1.209 . S
C47 O54 1.226 1_545 S
O48 Cd44 2.273 . S
O48 Cd46 2.411 . S
O48 C51 1.320 . S
O49 Cd46 2.333 . S
O49 C51 1.214 . S
O50 Cd46 2.352 1_565 S
O50 C53 1.258 . S
C51 O48 1.320 . S
C51 O49 1.214 . S
O52 Cd44 2.277 . S
O52 C47 1.209 . S
C53 O50 1.258 . S
C53 O55 1.282 . S
O54 Cd46 2.277 1_565 S
O54 C47 1.226 1_565 S
O55 Cd46 2.356 1_565 S
O55 C53 1.282 . S
C56 C57 1.170 . S
C56 C58 1.380 . S
C57 C56 1.170 . S
C58 C56 1.380 . S
C58 C59 1.170 . S
C59 C58 1.170 . S
C60 C61 1.170 . S
C60 C62 1.380 . S
C61 C60 1.170 . S
C62 C60 1.380 . S
C62 C63 1.170 . S
C63 C62 1.170 . S
C64 C65 1.170 . S
C64 C66 1.380 . S
C65 C64 1.170 . S
C66 C64 1.380 . S
C66 C67 1.170 . S
C67 C66 1.170 . S
C68 C69 1.170 . S
C68 C70 1.380 1_554 S
C69 C68 1.170 . S
C70 C68 1.380 1_556 S
C70 C71 1.170 . S
C71 C70 1.170 . S
C72 C73 1.170 . S
C72 C74 1.380 . S
C73 C72 1.170 . S
C74 C72 1.380 . S
C74 C75 1.170 . S
C75 C74 1.170 . S
C76 C77 1.170 . S
C76 C78 1.380 . S
C77 C76 1.170 . S
C78 C76 1.380 . S
C78 C79 1.170 . S
C79 C78 1.170 . S
C80 C81 1.170 . S
C80 C82 1.380 . S
C81 C80 1.170 . S
C82 C80 1.380 . S
C82 C83 1.170 . S
C83 C82 1.170 . S
C84 C85 1.170 . S
C84 C86 1.380 . S
C85 C84 1.170 . S
C86 C84 1.380 . S
C86 C87 1.170 . S
C87 C86 1.170 . S
C57 C5 1.427 . S
C59 C28 1.425 . S
C61 C14 1.419 . S
C63 C47 1.430 . S
C65 C0 1.425 . S
C67 C33 1.427 . S
C69 C19 1.429 . S
C71 C42 1.423 . S
C73 C23 1.482 . S
C75 C9 1.485 . S
C77 C25 1.488 . S
C79 C39 1.486 . S
C81 C51 1.471 . S
C83 C37 1.473 . S
C85 C53 1.486 . S
C87 C11 1.488 . S
