# Generated by pormake.
# Topology dia, (4)-cn, num edge types: 1
# Building blocks:
#     Node 0, Type 0, BuildingBlock: AZAVOO_clean_sbu_0, # of connection points: 4
#     Node 1, Type 0, BuildingBlock: AZAVOO_clean_sbu_0, # of connection points: 4
#     Node 2, Type 0, BuildingBlock: AZAVOO_clean_sbu_0, # of connection points: 4
#     Node 3, Type 0, BuildingBlock: AZAVOO_clean_sbu_0, # of connection points: 4
#     Node 4, Type 0, BuildingBlock: AZAVOO_clean_sbu_0, # of connection points: 4
#     Node 5, Type 0, BuildingBlock: AZAVOO_clean_sbu_0, # of connection points: 4
#     Node 6, Type 0, BuildingBlock: AZAVOO_clean_sbu_0, # of connection points: 4
#     Node 7, Type 0, BuildingBlock: AZAVOO_clean_sbu_0, # of connection points: 4
#     Edge 8, Type (0, 0), BuildingBlock: EYOCIG_clean_linker_4, # of connection points: 2
#     Edge 9, Type (0, 0), BuildingBlock: EYOCIG_clean_linker_4, # of connection points: 2
#     Edge 10, Type (0, 0), BuildingBlock: EYOCIG_clean_linker_4, # of connection points: 2
#     Edge 11, Type (0, 0), BuildingBlock: EYOCIG_clean_linker_4, # of connection points: 2
#     Edge 12, Type (0, 0), BuildingBlock: EYOCIG_clean_linker_4, # of connection points: 2
#     Edge 13, Type (0, 0), BuildingBlock: EYOCIG_clean_linker_4, # of connection points: 2
#     Edge 14, Type (0, 0), BuildingBlock: EYOCIG_clean_linker_4, # of connection points: 2
#     Edge 15, Type (0, 0), BuildingBlock: EYOCIG_clean_linker_4, # of connection points: 2
#     Edge 16, Type (0, 0), BuildingBlock: EYOCIG_clean_linker_4, # of connection points: 2
#     Edge 17, Type (0, 0), BuildingBlock: EYOCIG_clean_linker_4, # of connection points: 2
#     Edge 18, Type (0, 0), BuildingBlock: EYOCIG_clean_linker_4, # of connection points: 2
#     Edge 19, Type (0, 0), BuildingBlock: EYOCIG_clean_linker_4, # of connection points: 2
#     Edge 20, Type (0, 0), BuildingBlock: EYOCIG_clean_linker_4, # of connection points: 2
#     Edge 21, Type (0, 0), BuildingBlock: EYOCIG_clean_linker_4, # of connection points: 2
#     Edge 22, Type (0, 0), BuildingBlock: EYOCIG_clean_linker_4, # of connection points: 2
#     Edge 23, Type (0, 0), BuildingBlock: EYOCIG_clean_linker_4, # of connection points: 2
# Relax obj value: 0.001
# Max RMSD: 0.022
# Mean RMSD: 0.022
data_MOF--net-dia--node1-AZAVOO_clean_sbu_0--edge1-EYOCIG_clean_linker_4
_symmetry_space_group_name_H-M    P1
_symmetry_Int_Tables_number       1
_symmetry_cell_setting            triclinic
loop_
_symmetry_equiv_pos_as_xyz
'x, y, z'
_cell_length_a     28.383553
_cell_length_b     29.167493
_cell_length_c     28.384715
_cell_angle_alpha  97.171749
_cell_angle_beta   93.091263
_cell_angle_gamma 97.125909
loop_
_atom_site_label
_atom_site_type_symbol
_atom_site_fract_x
_atom_site_fract_y
_atom_site_fract_z
_atom_type_partial_charge
Mg0 Mg 0.12481 0.13647 0.6366 0.0
O1 O 0.07255 0.08541 0.58349 0.0
O2 O 0.02953 0.1277 0.54172 0.0
Mg3 Mg 0.05054 0.20528 0.57085 0.0
C4 C 0.04068 0.0886 0.55102 0.0
C5 C 0.18925 0.08008 0.69183 0.0
O6 O 0.18971 0.11775 0.72252 0.0
O7 O 0.171 0.15798 0.57723 0.0
O8 O 0.12558 0.20539 0.5449 0.0
O9 O 0.07154 0.13919 0.69229 0.0
O10 O 0.07941 0.18756 0.63843 0.0
C11 C 0.1642 0.1875 0.54867 0.0
C12 C 0.05835 0.17454 0.67421 0.0
O13 O 0.16653 0.07677 0.65146 0.0
Mg14 Mg 0.8321 0.34731 0.84385 0.0
O15 O 0.88554 0.39811 0.89591 0.0
O16 O 0.92691 0.35567 0.93914 0.0
Mg17 Mg 0.89718 0.27821 0.91836 0.0
C18 C 0.91795 0.3948 0.92779 0.0
C19 C 0.77766 0.4041 0.77912 0.0
O20 O 0.74655 0.3668 0.77886 0.0
O21 O 0.89132 0.32514 0.79782 0.0
O22 O 0.92343 0.27772 0.84338 0.0
O23 O 0.77641 0.34534 0.89723 0.0
O24 O 0.8298 0.29641 0.88945 0.0
C25 C 0.91979 0.29555 0.80473 0.0
C26 C 0.79418 0.30987 0.91053 0.0
O27 O 0.81796 0.40703 0.80188 0.0
Mg28 Mg 0.62509 0.13648 0.13665 0.0
O29 O 0.57293 0.0855 0.08337 0.0
O30 O 0.52936 0.12789 0.04227 0.0
Mg31 Mg 0.55015 0.20539 0.07182 0.0
C32 C 0.54081 0.08878 0.05117 0.0
C33 C 0.68967 0.08011 0.19149 0.0
O34 O 0.68946 0.11744 0.22247 0.0
O35 O 0.67098 0.1588 0.07736 0.0
O36 O 0.62511 0.20611 0.04548 0.0
O37 O 0.57185 0.13825 0.19241 0.0
O38 O 0.57931 0.18719 0.13903 0.0
C39 C 0.66388 0.18844 0.04901 0.0
C40 C 0.55833 0.17363 0.17463 0.0
O41 O 0.6673 0.07699 0.15096 0.0
Mg42 Mg 0.83223 0.84699 0.34373 0.0
O43 O 0.88553 0.89769 0.39613 0.0
O44 O 0.92626 0.85506 0.43975 0.0
Mg45 Mg 0.89637 0.77766 0.41881 0.0
C46 C 0.9176 0.89425 0.42831 0.0
C47 C 0.77771 0.90404 0.27969 0.0
O48 O 0.74637 0.86708 0.28026 0.0
O49 O 0.89159 0.82441 0.29807 0.0
O50 O 0.923 0.77686 0.34398 0.0
O51 O 0.77621 0.84534 0.39673 0.0
O52 O 0.82942 0.79619 0.38935 0.0
C53 C 0.91974 0.79459 0.30524 0.0
C54 C 0.79376 0.80982 0.41019 0.0
O55 O 0.81839 0.90669 0.30164 0.0
Mg56 Mg 0.12497 0.63593 0.13654 0.0
O57 O 0.07284 0.58551 0.08281 0.0
O58 O 0.02946 0.62832 0.04205 0.0
Mg59 Mg 0.0503 0.70562 0.0724 0.0
C60 C 0.04086 0.58908 0.0506 0.0
C61 C 0.18932 0.57866 0.19057 0.0
O62 O 0.18913 0.61567 0.22198 0.0
O63 O 0.17093 0.65866 0.0775 0.0
O64 O 0.12522 0.70635 0.04601 0.0
O65 O 0.07164 0.63741 0.19228 0.0
O66 O 0.07935 0.68682 0.13941 0.0
C67 C 0.16392 0.68852 0.04938 0.0
C68 C 0.05831 0.67305 0.17488 0.0
O69 O 0.16698 0.57605 0.1501 0.0
Mg70 Mg 0.33213 0.34665 0.34402 0.0
O71 O 0.38571 0.39757 0.39596 0.0
O72 O 0.42709 0.35512 0.43918 0.0
Mg73 Mg 0.3973 0.27766 0.41861 0.0
C74 C 0.41815 0.39426 0.42781 0.0
C75 C 0.27752 0.40273 0.27876 0.0
O76 O 0.24675 0.36517 0.2784 0.0
O77 O 0.39116 0.32425 0.29787 0.0
O78 O 0.42322 0.27687 0.34352 0.0
O79 O 0.27654 0.34474 0.39751 0.0
O80 O 0.32999 0.29589 0.3897 0.0
C81 C 0.41951 0.29456 0.3048 0.0
C82 C 0.29438 0.30929 0.41079 0.0
O83 O 0.31772 0.40613 0.30182 0.0
Mg84 Mg 0.3321 0.84706 0.84409 0.0
O85 O 0.3853 0.89789 0.89647 0.0
O86 O 0.42649 0.85537 0.93979 0.0
Mg87 Mg 0.39699 0.7779 0.91872 0.0
C88 C 0.41754 0.89453 0.9285 0.0
C89 C 0.27724 0.90373 0.77979 0.0
O90 O 0.24632 0.86634 0.77969 0.0
O91 O 0.39157 0.82508 0.79822 0.0
O92 O 0.42348 0.77759 0.84386 0.0
O93 O 0.27623 0.84492 0.89721 0.0
O94 O 0.32975 0.79611 0.88959 0.0
C95 C 0.42 0.79547 0.80521 0.0
C96 C 0.29405 0.8095 0.91056 0.0
O97 O 0.31773 0.90678 0.80223 0.0
Mg98 Mg 0.62491 0.63664 0.63634 0.0
O99 O 0.57285 0.58553 0.58306 0.0
O100 O 0.52939 0.62777 0.54169 0.0
Mg101 Mg 0.54982 0.7053 0.57132 0.0
C102 C 0.54089 0.5887 0.55067 0.0
C103 C 0.68986 0.5803 0.69101 0.0
O104 O 0.68985 0.61763 0.72203 0.0
O105 O 0.67069 0.65885 0.57699 0.0
O106 O 0.62479 0.70612 0.54508 0.0
O107 O 0.57177 0.63873 0.69225 0.0
O108 O 0.57913 0.68739 0.63864 0.0
C109 C 0.66356 0.68846 0.54863 0.0
C110 C 0.55832 0.67412 0.67445 0.0
O111 O 0.66721 0.57717 0.65063 0.0
C112 C 0.25446 0.2575 0.47136 0.0
C113 C 0.27198 0.28179 0.44385 0.0
C114 C 0.22932 0.22797 0.49987 0.0
C115 C 0.20288 0.2065 0.52357 0.0
C116 C 0.73092 0.51051 0.71859 0.0
C117 C 0.71181 0.54159 0.70471 0.0
C118 C 0.75043 0.47408 0.73818 0.0
C119 C 0.76418 0.44292 0.75725 0.0
C120 C 0.49397 0.0119 0.00148 0.0
C121 C 0.51562 0.04667 0.02441 0.0
C122 C 0.46751 0.97133 0.9752 0.0
C123 C 0.44446 0.93658 0.95363 0.0
C124 C 0.96886 0.75371 0.24055 0.0
C125 C 0.94509 0.77526 0.26688 0.0
C126 C -0.0025 0.72434 0.2153 0.0
C127 C 0.02511 0.70027 0.19756 0.0
C128 C 0.24939 0.97371 0.73926 0.0
C129 C 0.26338 0.94253 0.75812 0.0
C130 C 0.22986 0.01019 0.71979 0.0
C131 C 0.21097 0.04136 0.70582 0.0
C132 C 0.96802 0.47172 0.97408 0.0
C133 C 0.94495 0.43689 0.95272 0.0
C134 C -0.00567 0.51238 0.00033 0.0
C135 C 0.01577 0.54714 0.02346 0.0
C136 C 0.46839 0.25396 0.23977 0.0
C137 C 0.44467 0.27541 0.26623 0.0
C138 C 0.49716 0.22473 0.21456 0.0
C139 C 0.52496 0.20079 0.197 0.0
C140 C 0.75349 0.75854 0.47097 0.0
C141 C 0.77115 0.78262 0.44337 0.0
C142 C 0.72833 0.72918 0.49961 0.0
C143 C 0.702 0.70768 0.52337 0.0
C144 C 0.23024 0.50862 0.21773 0.0
C145 C 0.21117 0.53976 0.20391 0.0
C146 C 0.24982 0.47229 0.23741 0.0
C147 C 0.26373 0.44131 0.25666 0.0
C148 C 0.75403 0.25839 0.97129 0.0
C149 C 0.77173 0.28247 0.94368 0.0
C150 C 0.72874 0.2291 -5e-05 0.0
C151 C 0.70234 0.20766 0.02372 0.0
C152 C 0.75023 0.97399 0.23888 0.0
C153 C 0.76413 0.94285 0.25787 0.0
C154 C 0.73065 0.01039 0.21932 0.0
C155 C 0.71159 0.04145 0.20534 0.0
C156 C 0.96757 0.97101 0.4751 0.0
C157 C 0.94454 0.93626 0.45351 0.0
C158 C -0.00605 0.01162 0.50141 0.0
C159 C 0.01554 0.04644 0.52431 0.0
C160 C 0.96904 0.2555 0.73963 0.0
C161 C 0.94517 0.27667 0.76618 0.0
C162 C -0.00224 0.22638 0.71419 0.0
C163 C 0.02532 0.20224 0.69647 0.0
C164 C 0.4979 0.72587 0.71491 0.0
C165 C 0.52536 0.70167 0.69708 0.0
C166 C 0.46929 0.75517 0.7403 0.0
C167 C 0.44542 0.77649 0.76673 0.0
C168 C 0.22876 0.72901 0.00024 0.0
C169 C 0.20235 0.70763 0.02403 0.0
C170 C 0.25402 0.75818 0.97148 0.0
C171 C 0.27167 0.78217 0.94379 0.0
C172 C 0.46827 0.47111 0.47426 0.0
C173 C 0.44515 0.43634 0.4528 0.0
C174 C 0.49459 0.51172 0.50063 0.0
C175 C 0.516 0.54653 0.52373 0.0
loop_
_geom_bond_atom_site_label_1
_geom_bond_atom_site_label_2
_geom_bond_distance
_geom_bond_site_symmetry_2
_ccdc_geom_bond_type
Mg0 O1 2.028 . S
Mg0 O7 1.986 . S
Mg0 O9 2.114 . S
Mg0 O10 2.251 . S
Mg0 O13 2.010 . S
O1 Mg0 2.028 . S
O1 C4 1.250 . S
O2 Mg3 2.028 . S
O2 C4 1.248 . S
Mg3 O2 2.028 . S
Mg3 O8 2.032 . S
Mg3 O10 2.079 . S
C4 O1 1.250 . S
C4 O2 1.248 . S
C5 O6 1.264 . S
C5 O13 1.249 . S
O6 C5 1.264 . S
O7 Mg0 1.986 . S
O7 C11 1.246 . S
O8 Mg3 2.032 . S
O8 C11 1.259 . S
O9 Mg0 2.114 . S
O9 C12 1.252 . S
O10 Mg0 2.251 . S
O10 Mg3 2.079 . S
O10 C12 1.273 . S
C11 O7 1.246 . S
C11 O8 1.259 . S
C12 O9 1.252 . S
C12 O10 1.273 . S
O13 Mg0 2.010 . S
O13 C5 1.249 . S
Mg14 O15 2.028 . S
Mg14 O21 1.986 . S
Mg14 O23 2.114 . S
Mg14 O24 2.251 . S
Mg14 O27 2.010 . S
O15 Mg14 2.028 . S
O15 C18 1.250 . S
O16 Mg17 2.028 . S
O16 C18 1.248 . S
Mg17 O16 2.028 . S
Mg17 O22 2.032 . S
Mg17 O24 2.079 . S
C18 O15 1.250 . S
C18 O16 1.248 . S
C19 O20 1.264 . S
C19 O27 1.249 . S
O20 C19 1.264 . S
O21 Mg14 1.986 . S
O21 C25 1.246 . S
O22 Mg17 2.032 . S
O22 C25 1.259 . S
O23 Mg14 2.114 . S
O23 C26 1.252 . S
O24 Mg14 2.251 . S
O24 Mg17 2.079 . S
O24 C26 1.273 . S
C25 O21 1.246 . S
C25 O22 1.259 . S
C26 O23 1.252 . S
C26 O24 1.273 . S
O27 Mg14 2.010 . S
O27 C19 1.249 . S
Mg28 O29 2.028 . S
Mg28 O35 1.986 . S
Mg28 O37 2.114 . S
Mg28 O38 2.251 . S
Mg28 O41 2.010 . S
O29 Mg28 2.028 . S
O29 C32 1.250 . S
O30 Mg31 2.028 . S
O30 C32 1.248 . S
Mg31 O30 2.028 . S
Mg31 O36 2.032 . S
Mg31 O38 2.079 . S
C32 O29 1.250 . S
C32 O30 1.248 . S
C33 O34 1.264 . S
C33 O41 1.249 . S
O34 C33 1.264 . S
O35 Mg28 1.986 . S
O35 C39 1.246 . S
O36 Mg31 2.032 . S
O36 C39 1.259 . S
O37 Mg28 2.114 . S
O37 C40 1.252 . S
O38 Mg28 2.251 . S
O38 Mg31 2.079 . S
O38 C40 1.273 . S
C39 O35 1.246 . S
C39 O36 1.259 . S
C40 O37 1.252 . S
C40 O38 1.273 . S
O41 Mg28 2.010 . S
O41 C33 1.249 . S
Mg42 O43 2.028 . S
Mg42 O49 1.986 . S
Mg42 O51 2.114 . S
Mg42 O52 2.251 . S
Mg42 O55 2.010 . S
O43 Mg42 2.028 . S
O43 C46 1.250 . S
O44 Mg45 2.028 . S
O44 C46 1.248 . S
Mg45 O44 2.028 . S
Mg45 O50 2.032 . S
Mg45 O52 2.079 . S
C46 O43 1.250 . S
C46 O44 1.248 . S
C47 O48 1.264 . S
C47 O55 1.249 . S
O48 C47 1.264 . S
O49 Mg42 1.986 . S
O49 C53 1.246 . S
O50 Mg45 2.032 . S
O50 C53 1.259 . S
O51 Mg42 2.114 . S
O51 C54 1.252 . S
O52 Mg42 2.251 . S
O52 Mg45 2.079 . S
O52 C54 1.273 . S
C53 O49 1.246 . S
C53 O50 1.259 . S
C54 O51 1.252 . S
C54 O52 1.273 . S
O55 Mg42 2.010 . S
O55 C47 1.249 . S
Mg56 O57 2.028 . S
Mg56 O63 1.986 . S
Mg56 O65 2.114 . S
Mg56 O66 2.251 . S
Mg56 O69 2.010 . S
O57 Mg56 2.028 . S
O57 C60 1.250 . S
O58 Mg59 2.028 . S
O58 C60 1.248 . S
Mg59 O58 2.028 . S
Mg59 O64 2.032 . S
Mg59 O66 2.079 . S
C60 O57 1.250 . S
C60 O58 1.248 . S
C61 O62 1.264 . S
C61 O69 1.249 . S
O62 C61 1.264 . S
O63 Mg56 1.986 . S
O63 C67 1.246 . S
O64 Mg59 2.032 . S
O64 C67 1.259 . S
O65 Mg56 2.114 . S
O65 C68 1.252 . S
O66 Mg56 2.251 . S
O66 Mg59 2.079 . S
O66 C68 1.273 . S
C67 O63 1.246 . S
C67 O64 1.259 . S
C68 O65 1.252 . S
C68 O66 1.273 . S
O69 Mg56 2.010 . S
O69 C61 1.249 . S
Mg70 O71 2.028 . S
Mg70 O77 1.986 . S
Mg70 O79 2.114 . S
Mg70 O80 2.251 . S
Mg70 O83 2.010 . S
O71 Mg70 2.028 . S
O71 C74 1.250 . S
O72 Mg73 2.028 . S
O72 C74 1.248 . S
Mg73 O72 2.028 . S
Mg73 O78 2.032 . S
Mg73 O80 2.079 . S
C74 O71 1.250 . S
C74 O72 1.248 . S
C75 O76 1.264 . S
C75 O83 1.249 . S
O76 C75 1.264 . S
O77 Mg70 1.986 . S
O77 C81 1.246 . S
O78 Mg73 2.032 . S
O78 C81 1.259 . S
O79 Mg70 2.114 . S
O79 C82 1.252 . S
O80 Mg70 2.251 . S
O80 Mg73 2.079 . S
O80 C82 1.273 . S
C81 O77 1.246 . S
C81 O78 1.259 . S
C82 O79 1.252 . S
C82 O80 1.273 . S
O83 Mg70 2.010 . S
O83 C75 1.249 . S
Mg84 O85 2.028 . S
Mg84 O91 1.986 . S
Mg84 O93 2.114 . S
Mg84 O94 2.251 . S
Mg84 O97 2.010 . S
O85 Mg84 2.028 . S
O85 C88 1.250 . S
O86 Mg87 2.028 . S
O86 C88 1.248 . S
Mg87 O86 2.028 . S
Mg87 O92 2.032 . S
Mg87 O94 2.079 . S
C88 O85 1.250 . S
C88 O86 1.248 . S
C89 O90 1.264 . S
C89 O97 1.249 . S
O90 C89 1.264 . S
O91 Mg84 1.986 . S
O91 C95 1.246 . S
O92 Mg87 2.032 . S
O92 C95 1.259 . S
O93 Mg84 2.114 . S
O93 C96 1.252 . S
O94 Mg84 2.251 . S
O94 Mg87 2.079 . S
O94 C96 1.273 . S
C95 O91 1.246 . S
C95 O92 1.259 . S
C96 O93 1.252 . S
C96 O94 1.273 . S
O97 Mg84 2.010 . S
O97 C89 1.249 . S
Mg98 O99 2.028 . S
Mg98 O105 1.986 . S
Mg98 O107 2.114 . S
Mg98 O108 2.251 . S
Mg98 O111 2.010 . S
O99 Mg98 2.028 . S
O99 C102 1.250 . S
O100 Mg101 2.028 . S
O100 C102 1.248 . S
Mg101 O100 2.028 . S
Mg101 O106 2.032 . S
Mg101 O108 2.079 . S
C102 O99 1.250 . S
C102 O100 1.248 . S
C103 O104 1.264 . S
C103 O111 1.249 . S
O104 C103 1.264 . S
O105 Mg98 1.986 . S
O105 C109 1.246 . S
O106 Mg101 2.032 . S
O106 C109 1.259 . S
O107 Mg98 2.114 . S
O107 C110 1.252 . S
O108 Mg98 2.251 . S
O108 Mg101 2.079 . S
O108 C110 1.273 . S
C109 O105 1.246 . S
C109 O106 1.259 . S
C110 O107 1.252 . S
C110 O108 1.273 . S
O111 Mg98 2.010 . S
O111 C103 1.249 . S
C112 C113 1.170 . S
C112 C114 1.380 . S
C113 C112 1.170 . S
C114 C112 1.380 . S
C114 C115 1.170 . S
C115 C114 1.170 . S
C116 C117 1.170 . S
C116 C118 1.380 . S
C117 C116 1.170 . S
C118 C116 1.380 . S
C118 C119 1.170 . S
C119 C118 1.170 . S
C120 C121 1.170 . S
C120 C122 1.380 1_544 S
C121 C120 1.170 . S
C122 C120 1.380 1_566 S
C122 C123 1.170 . S
C123 C122 1.170 . S
C124 C125 1.170 . S
C124 C126 1.380 1_655 S
C125 C124 1.170 . S
C126 C124 1.380 1_455 S
C126 C127 1.170 . S
C127 C126 1.170 . S
C128 C129 1.170 . S
C128 C130 1.380 1_565 S
C129 C128 1.170 . S
C130 C128 1.380 1_545 S
C130 C131 1.170 . S
C131 C130 1.170 . S
C132 C133 1.170 . S
C132 C134 1.380 1_656 S
C133 C132 1.170 . S
C134 C132 1.380 1_454 S
C134 C135 1.170 . S
C135 C134 1.170 . S
C136 C137 1.170 . S
C136 C138 1.380 . S
C137 C136 1.170 . S
C138 C136 1.380 . S
C138 C139 1.170 . S
C139 C138 1.170 . S
C140 C141 1.170 . S
C140 C142 1.380 . S
C141 C140 1.170 . S
C142 C140 1.380 . S
C142 C143 1.170 . S
C143 C142 1.170 . S
C144 C145 1.170 . S
C144 C146 1.380 . S
C145 C144 1.170 . S
C146 C144 1.380 . S
C146 C147 1.170 . S
C147 C146 1.170 . S
C148 C149 1.170 . S
C148 C150 1.380 1_556 S
C149 C148 1.170 . S
C150 C148 1.380 1_554 S
C150 C151 1.170 . S
C151 C150 1.170 . S
C152 C153 1.170 . S
C152 C154 1.380 1_565 S
C153 C152 1.170 . S
C154 C152 1.380 1_545 S
C154 C155 1.170 . S
C155 C154 1.170 . S
C156 C157 1.170 . S
C156 C158 1.380 1_665 S
C157 C156 1.170 . S
C158 C156 1.380 1_445 S
C158 C159 1.170 . S
C159 C158 1.170 . S
C160 C161 1.170 . S
C160 C162 1.380 1_655 S
C161 C160 1.170 . S
C162 C160 1.380 1_455 S
C162 C163 1.170 . S
C163 C162 1.170 . S
C164 C165 1.170 . S
C164 C166 1.380 . S
C165 C164 1.170 . S
C166 C164 1.380 . S
C166 C167 1.170 . S
C167 C166 1.170 . S
C168 C169 1.170 . S
C168 C170 1.380 1_554 S
C169 C168 1.170 . S
C170 C168 1.380 1_556 S
C170 C171 1.170 . S
C171 C170 1.170 . S
C172 C173 1.170 . S
C172 C174 1.380 . S
C173 C172 1.170 . S
C174 C172 1.380 . S
C174 C175 1.170 . S
C175 C174 1.170 . S
C113 C82 1.499 . S
C115 C11 1.486 . S
C117 C103 1.233 . S
C119 C19 1.274 . S
C121 C32 1.462 . S
C123 C88 1.447 . S
C125 C53 1.464 . S
C127 C68 1.498 . S
C129 C89 1.280 . S
C131 C5 1.267 . S
C133 C18 1.467 . S
C135 C60 1.461 . S
C137 C81 1.468 . S
C139 C40 1.498 . S
C141 C54 1.498 . S
C143 C109 1.473 . S
C145 C61 1.285 . S
C147 C75 1.226 . S
C149 C26 1.499 . S
C151 C39 1.485 . S
C153 C47 1.292 . S
C155 C33 1.251 . S
C157 C46 1.445 . S
C159 C4 1.465 . S
C161 C25 1.473 . S
C163 C12 1.498 . S
C165 C110 1.497 . S
C167 C95 1.465 . S
C169 C67 1.485 . S
C171 C96 1.499 . S
C173 C74 1.455 . S
C175 C102 1.472 . S
