# Generated by pormake.
# Topology uov, (4)-cn, num edge types: 1
# Building blocks:
#     Node 0, Type 0, BuildingBlock: NAHDIM_clean_sbu_0, # of connection points: 4
#     Node 1, Type 0, BuildingBlock: NAHDIM_clean_sbu_0, # of connection points: 4
#     Node 2, Type 0, BuildingBlock: NAHDIM_clean_sbu_0, # of connection points: 4
#     Node 3, Type 0, BuildingBlock: NAHDIM_clean_sbu_0, # of connection points: 4
#     Node 4, Type 0, BuildingBlock: NAHDIM_clean_sbu_0, # of connection points: 4
#     Node 5, Type 0, BuildingBlock: NAHDIM_clean_sbu_0, # of connection points: 4
#     Node 6, Type 0, BuildingBlock: NAHDIM_clean_sbu_0, # of connection points: 4
#     Node 7, Type 0, BuildingBlock: NAHDIM_clean_sbu_0, # of connection points: 4
#     Edge 8, Type (0, 0), BuildingBlock: EYOCIG_clean_linker_4, # of connection points: 2
#     Edge 9, Type (0, 0), BuildingBlock: EYOCIG_clean_linker_4, # of connection points: 2
#     Edge 10, Type (0, 0), BuildingBlock: EYOCIG_clean_linker_4, # of connection points: 2
#     Edge 11, Type (0, 0), BuildingBlock: EYOCIG_clean_linker_4, # of connection points: 2
#     Edge 12, Type (0, 0), BuildingBlock: EYOCIG_clean_linker_4, # of connection points: 2
#     Edge 13, Type (0, 0), BuildingBlock: EYOCIG_clean_linker_4, # of connection points: 2
#     Edge 14, Type (0, 0), BuildingBlock: EYOCIG_clean_linker_4, # of connection points: 2
#     Edge 15, Type (0, 0), BuildingBlock: EYOCIG_clean_linker_4, # of connection points: 2
#     Edge 16, Type (0, 0), BuildingBlock: EYOCIG_clean_linker_4, # of connection points: 2
#     Edge 17, Type (0, 0), BuildingBlock: EYOCIG_clean_linker_4, # of connection points: 2
#     Edge 18, Type (0, 0), BuildingBlock: EYOCIG_clean_linker_4, # of connection points: 2
#     Edge 19, Type (0, 0), BuildingBlock: EYOCIG_clean_linker_4, # of connection points: 2
#     Edge 20, Type (0, 0), BuildingBlock: EYOCIG_clean_linker_4, # of connection points: 2
#     Edge 21, Type (0, 0), BuildingBlock: EYOCIG_clean_linker_4, # of connection points: 2
#     Edge 22, Type (0, 0), BuildingBlock: EYOCIG_clean_linker_4, # of connection points: 2
#     Edge 23, Type (0, 0), BuildingBlock: EYOCIG_clean_linker_4, # of connection points: 2
# Relax obj value: 0.256
# Max RMSD: 0.234
# Mean RMSD: 0.234
data_MOF--net-uov--node1-NAHDIM_clean_sbu_0--edge1-EYOCIG_clean_linker_4
_symmetry_space_group_name_H-M    P1
_symmetry_Int_Tables_number       1
_symmetry_cell_setting            triclinic
loop_
_symmetry_equiv_pos_as_xyz
'x, y, z'
_cell_length_a     24.698325
_cell_length_b     24.704929
_cell_length_c     33.188144
_cell_angle_alpha  89.988753
_cell_angle_beta   89.990618
_cell_angle_gamma 90.021345
loop_
_atom_site_label
_atom_site_type_symbol
_atom_site_fract_x
_atom_site_fract_y
_atom_site_fract_z
_atom_type_partial_charge
C0 C 0.0069 0.34998 0.60608 0.0
O1 O 0.97 0.31871 0.62237 0.0
O2 O 0.97952 0.22174 0.56862 0.0
Zn3 Zn 0.05259 0.24778 0.58734 0.0
O4 O 0.07363 0.21779 0.64212 0.0
C5 C 0.09495 0.18146 0.52501 0.0
O6 O 0.05152 0.15355 0.53422 0.0
O7 O 0.04834 0.32916 0.58957 0.0
C8 C 0.08181 0.16771 0.64834 0.0
O9 O 0.07556 0.13279 0.61896 0.0
C10 C 0.94059 0.2019 0.58865 0.0
O11 O 0.94436 0.19573 0.62781 0.0
O12 O 0.10626 0.2243 0.54449 0.0
C13 C 0.35021 0.95914 0.37071 0.0
O14 O 0.31876 -0.00411 0.35444 0.0
O15 O 0.22227 -0.01353 0.40882 0.0
Zn16 Zn 0.24817 0.91346 0.38996 0.0
O17 O 0.21781 0.89256 0.33526 0.0
C18 C 0.18213 0.87106 0.45245 0.0
O19 O 0.15422 0.9145 0.44335 0.0
O20 O 0.32955 0.91776 0.38742 0.0
C21 C 0.16766 0.88432 0.32924 0.0
O22 O 0.13296 0.89037 0.3588 0.0
C23 C 0.20205 0.02524 0.38886 0.0
O24 O 0.19542 0.02131 0.34975 0.0
O25 O 0.22488 0.85974 0.43285 0.0
C26 C 0.96003 0.61636 0.60622 0.0
O27 O -0.00298 0.64768 0.62232 0.0
O28 O -0.01325 0.74481 0.56873 0.0
Zn29 Zn 0.91385 0.71848 0.58764 0.0
O30 O 0.89288 0.74847 0.64244 0.0
C31 C 0.87085 0.78465 0.52548 0.0
O32 O 0.9141 0.81284 0.53465 0.0
O33 O 0.9184 0.63711 0.58992 0.0
C34 C 0.8858 0.79868 0.64883 0.0
O35 O 0.8932 0.83368 0.61964 0.0
C36 C 0.02589 0.76423 0.58874 0.0
O37 O 0.02249 0.76977 0.62797 0.0
O38 O 0.85989 0.74168 0.54492 0.0
C39 C 0.61651 0.00708 0.37026 0.0
O40 O 0.64798 0.97093 0.35329 0.0
O41 O 0.74448 0.97955 0.40891 0.0
Zn42 Zn 0.71848 0.05251 0.38998 0.0
O43 O 0.74872 0.07354 0.33525 0.0
C44 C 0.78461 0.09517 0.45228 0.0
O45 O 0.81273 0.05194 0.44301 0.0
O46 O 0.63712 0.04804 0.38755 0.0
C47 C 0.79898 0.08049 0.32888 0.0
O48 O 0.83394 0.07289 0.35807 0.0
C49 C 0.76371 0.94025 0.389 0.0
O50 O 0.76929 0.94347 0.34976 0.0
O51 O 0.74168 0.10628 0.43284 0.0
C52 C 0.9607 0.3497 0.10684 0.0
O53 O -0.00265 0.31833 0.12331 0.0
O54 O -0.01209 0.22157 0.0691 0.0
Zn55 Zn 0.91485 0.24764 0.08774 0.0
O56 O 0.89357 0.21742 0.14242 0.0
C57 C 0.8726 0.18166 0.02516 0.0
O58 O 0.91594 0.15365 0.03437 0.0
O59 O 0.91934 0.329 0.09013 0.0
C60 C 0.88549 0.16728 0.1485 0.0
O61 O 0.89197 0.13251 0.11904 0.0
C62 C 0.02683 0.2018 0.08915 0.0
O63 O 0.02305 0.19568 0.12832 0.0
O64 O 0.86129 0.22442 0.04473 0.0
C65 C 0.35064 0.00729 0.87124 0.0
O66 O 0.31929 0.97019 0.85529 0.0
O67 O 0.22236 0.98025 0.9089 0.0
Zn68 Zn 0.2485 0.05321 0.88999 0.0
O69 O 0.21828 0.07419 0.83525 0.0
C70 C 0.18246 0.09571 0.9524 0.0
O71 O 0.1543 0.05248 0.94312 0.0
O72 O 0.32988 0.04889 0.88755 0.0
C73 C 0.16814 0.08216 0.82907 0.0
O74 O 0.13327 0.07576 0.85848 0.0
C75 C 0.20198 0.9415 0.88901 0.0
O76 O 0.19533 0.94536 0.8499 0.0
O77 O 0.22532 0.10691 0.93289 0.0
C78 C 0.00724 0.61618 0.1065 0.0
O79 O 0.97034 0.64726 0.12296 0.0
O80 O 0.97909 0.74434 0.06889 0.0
Zn81 Zn 0.05228 0.71863 0.08756 0.0
O82 O 0.07321 0.74866 0.14235 0.0
C83 C 0.09434 0.78529 0.02524 0.0
O84 O 0.05078 0.81295 0.03442 0.0
O85 O 0.04844 0.63723 0.08978 0.0
C86 C 0.08106 0.7988 0.14861 0.0
O87 O 0.07451 0.83373 0.11925 0.0
C88 C 0.94006 0.76386 0.08896 0.0
O89 O 0.94378 0.76984 0.12814 0.0
O90 O 0.10584 0.74248 0.04472 0.0
C91 C 0.61709 0.96041 0.87104 0.0
O92 O 0.64862 -0.00287 0.85479 0.0
O93 O 0.74545 -0.01303 0.9089 0.0
Zn94 Zn 0.71899 0.9141 0.89011 0.0
O95 O 0.7492 0.89292 0.83543 0.0
C96 C 0.78462 0.87123 0.95267 0.0
O97 O 0.81289 0.91446 0.9436 0.0
O98 O 0.63764 0.9189 0.88763 0.0
C99 C 0.79934 0.88477 0.82936 0.0
O100 O 0.83411 0.89109 0.85884 0.0
C101 C 0.76546 0.02579 0.88885 0.0
O102 O 0.77154 0.02201 0.84969 0.0
O103 O 0.74182 0.86024 0.93302 0.0
C104 C 0.97761 0.51109 0.60529 0.0
C105 C 0.96847 0.55898 0.60526 0.0
C106 C -0.01052 0.45527 0.60526 0.0
C107 C -0.00144 0.40737 0.60516 0.0
C108 C 0.51129 -0.01105 0.37112 0.0
C109 C 0.55916 -0.00173 0.37118 0.0
C110 C 0.45549 0.97689 0.37122 0.0
C111 C 0.4076 0.96767 0.37146 0.0
C112 C 0.97844 0.45496 0.1059 0.0
C113 C 0.96929 0.40707 0.10589 0.0
C114 C -0.00978 0.51081 0.1058 0.0
C115 C -0.00086 0.55875 0.10563 0.0
C116 C 0.45598 -0.00999 0.87185 0.0
C117 C 0.40806 -0.00099 0.87202 0.0
C118 C 0.51183 0.97821 0.87179 0.0
C119 C 0.55973 0.96905 0.87188 0.0
C120 C 0.16943 0.10685 0.43351 0.0
C121 C 0.18308 0.07169 0.4105 0.0
C122 C 0.14984 0.1408 0.4644 0.0
C123 C 0.12816 0.16317 0.49232 0.0
C124 C 0.14156 0.81621 0.51313 0.0
C125 C 0.16391 0.83784 0.48517 0.0
C126 C 0.1076 0.79669 0.54407 0.0
C127 C 0.07246 0.78305 0.56711 0.0
C128 C 0.7961 0.85876 0.43388 0.0
C129 C 0.78248 0.89379 0.41075 0.0
C130 C 0.81573 0.82496 0.46485 0.0
C131 C 0.83752 0.80271 0.49279 0.0
C132 C 0.82499 0.14992 0.51306 0.0
C133 C 0.80271 0.12831 0.48506 0.0
C134 C 0.85888 0.16942 0.54402 0.0
C135 C 0.89403 0.18302 0.56706 0.0
C136 C 0.79827 0.1074 0.93343 0.0
C137 C 0.78452 0.07228 0.91042 0.0
C138 C 0.81786 0.14127 0.96437 0.0
C139 C 0.83946 0.16353 -0.00762 0.0
C140 C 0.14233 0.15017 0.0134 0.0
C141 C 0.1645 0.1287 0.9853 0.0
C142 C 0.10854 0.16951 0.04447 0.0
C143 C 0.07342 0.18301 0.06757 0.0
C144 C 0.14924 0.82622 0.96469 0.0
C145 C 0.12753 0.80379 -0.00741 0.0
C146 C 0.16896 0.86013 0.93379 0.0
C147 C 0.18278 0.89519 0.91074 0.0
C148 C 0.82458 0.81607 0.01339 0.0
C149 C 0.80247 0.83786 0.9854 0.0
C150 C 0.85837 0.7964 0.04436 0.0
C151 C 0.8935 0.78274 0.06739 0.0
C152 C 0.11502 0.13346 0.71973 0.0
C153 C 0.09986 0.14936 0.68723 0.0
C154 C 0.13363 0.11504 0.75766 0.0
C155 C 0.14966 0.10003 0.79017 0.0
C156 C 0.11425 0.8331 0.21998 0.0
C157 C 0.0991 0.81719 0.18748 0.0
C158 C 0.1329 0.85151 0.25789 0.0
C159 C 0.14903 0.86649 0.29038 0.0
C160 C 0.8526 0.83309 0.72017 0.0
C161 C 0.86775 0.81712 0.68769 0.0
C162 C 0.83398 0.85163 0.75806 0.0
C163 C 0.81791 0.86676 0.79053 0.0
C164 C 0.83356 0.11386 0.25761 0.0
C165 C 0.81751 0.09864 0.29007 0.0
C166 C 0.85218 0.13257 0.21975 0.0
C167 C 0.86739 0.14868 0.18731 0.0
loop_
_geom_bond_atom_site_label_1
_geom_bond_atom_site_label_2
_geom_bond_distance
_geom_bond_site_symmetry_2
_ccdc_geom_bond_type
C0 O1 1.160 1_455 S
C0 O7 1.185 . S
O1 C0 1.160 1_655 S
O2 Zn3 1.899 1_655 S
O2 C10 1.284 . S
Zn3 O2 1.899 1_455 S
Zn3 O4 2.032 . S
Zn3 O7 2.086 . S
Zn3 O12 1.977 . S
O4 Zn3 2.032 . S
O4 C8 1.278 . S
C5 O6 1.203 . S
C5 O12 1.267 . S
O6 C5 1.203 . S
O7 C0 1.185 . S
O7 Zn3 2.086 . S
C8 O4 1.278 . S
C8 O9 1.211 . S
O9 C8 1.211 . S
C10 O2 1.284 . S
C10 O11 1.273 . S
O11 C10 1.273 . S
O12 Zn3 1.977 . S
O12 C5 1.267 . S
C13 O14 1.160 1_565 S
C13 O20 1.185 . S
O14 C13 1.160 1_545 S
O15 Zn16 1.899 1_545 S
O15 C23 1.284 . S
Zn16 O15 1.899 1_565 S
Zn16 O17 2.032 . S
Zn16 O20 2.086 . S
Zn16 O25 1.977 . S
O17 Zn16 2.032 . S
O17 C21 1.278 . S
C18 O19 1.203 . S
C18 O25 1.267 . S
O19 C18 1.203 . S
O20 C13 1.185 . S
O20 Zn16 2.086 . S
C21 O17 1.278 . S
C21 O22 1.211 . S
O22 C21 1.211 . S
C23 O15 1.284 . S
C23 O24 1.273 . S
O24 C23 1.273 . S
O25 Zn16 1.977 . S
O25 C18 1.267 . S
C26 O27 1.160 1_655 S
C26 O33 1.185 . S
O27 C26 1.160 1_455 S
O28 Zn29 1.899 1_455 S
O28 C36 1.284 . S
Zn29 O28 1.899 1_655 S
Zn29 O30 2.032 . S
Zn29 O33 2.086 . S
Zn29 O38 1.977 . S
O30 Zn29 2.032 . S
O30 C34 1.278 . S
C31 O32 1.203 . S
C31 O38 1.267 . S
O32 C31 1.203 . S
O33 C26 1.185 . S
O33 Zn29 2.086 . S
C34 O30 1.278 . S
C34 O35 1.211 . S
O35 C34 1.211 . S
C36 O28 1.284 . S
C36 O37 1.273 . S
O37 C36 1.273 . S
O38 Zn29 1.977 . S
O38 C31 1.267 . S
C39 O40 1.160 1_545 S
C39 O46 1.185 . S
O40 C39 1.160 1_565 S
O41 Zn42 1.899 1_565 S
O41 C49 1.284 . S
Zn42 O41 1.899 1_545 S
Zn42 O43 2.032 . S
Zn42 O46 2.086 . S
Zn42 O51 1.977 . S
O43 Zn42 2.032 . S
O43 C47 1.278 . S
C44 O45 1.203 . S
C44 O51 1.267 . S
O45 C44 1.203 . S
O46 C39 1.185 . S
O46 Zn42 2.086 . S
C47 O43 1.278 . S
C47 O48 1.211 . S
O48 C47 1.211 . S
C49 O41 1.284 . S
C49 O50 1.273 . S
O50 C49 1.273 . S
O51 Zn42 1.977 . S
O51 C44 1.267 . S
C52 O53 1.160 1_655 S
C52 O59 1.185 . S
O53 C52 1.160 1_455 S
O54 Zn55 1.899 1_455 S
O54 C62 1.284 . S
Zn55 O54 1.899 1_655 S
Zn55 O56 2.032 . S
Zn55 O59 2.086 . S
Zn55 O64 1.977 . S
O56 Zn55 2.032 . S
O56 C60 1.278 . S
C57 O58 1.203 . S
C57 O64 1.267 . S
O58 C57 1.203 . S
O59 C52 1.185 . S
O59 Zn55 2.086 . S
C60 O56 1.278 . S
C60 O61 1.211 . S
O61 C60 1.211 . S
C62 O54 1.284 . S
C62 O63 1.273 . S
O63 C62 1.273 . S
O64 Zn55 1.977 . S
O64 C57 1.267 . S
C65 O66 1.160 1_545 S
C65 O72 1.185 . S
O66 C65 1.160 1_565 S
O67 Zn68 1.899 1_565 S
O67 C75 1.284 . S
Zn68 O67 1.899 1_545 S
Zn68 O69 2.032 . S
Zn68 O72 2.086 . S
Zn68 O77 1.977 . S
O69 Zn68 2.032 . S
O69 C73 1.278 . S
C70 O71 1.203 . S
C70 O77 1.267 . S
O71 C70 1.203 . S
O72 C65 1.185 . S
O72 Zn68 2.086 . S
C73 O69 1.278 . S
C73 O74 1.211 . S
O74 C73 1.211 . S
C75 O67 1.284 . S
C75 O76 1.273 . S
O76 C75 1.273 . S
O77 Zn68 1.977 . S
O77 C70 1.267 . S
C78 O79 1.160 1_455 S
C78 O85 1.185 . S
O79 C78 1.160 1_655 S
O80 Zn81 1.899 1_655 S
O80 C88 1.284 . S
Zn81 O80 1.899 1_455 S
Zn81 O82 2.032 . S
Zn81 O85 2.086 . S
Zn81 O90 1.977 . S
O82 Zn81 2.032 . S
O82 C86 1.278 . S
C83 O84 1.203 . S
C83 O90 1.267 . S
O84 C83 1.203 . S
O85 C78 1.185 . S
O85 Zn81 2.086 . S
C86 O82 1.278 . S
C86 O87 1.211 . S
O87 C86 1.211 . S
C88 O80 1.284 . S
C88 O89 1.273 . S
O89 C88 1.273 . S
O90 Zn81 1.977 . S
O90 C83 1.267 . S
C91 O92 1.160 1_565 S
C91 O98 1.185 . S
O92 C91 1.160 1_545 S
O93 Zn94 1.899 1_545 S
O93 C101 1.284 . S
Zn94 O93 1.899 1_565 S
Zn94 O95 2.032 . S
Zn94 O98 2.086 . S
Zn94 O103 1.977 . S
O95 Zn94 2.032 . S
O95 C99 1.278 . S
C96 O97 1.203 . S
C96 O103 1.267 . S
O97 C96 1.203 . S
O98 C91 1.185 . S
O98 Zn94 2.086 . S
C99 O95 1.278 . S
C99 O100 1.211 . S
O100 C99 1.211 . S
C101 O93 1.284 . S
C101 O102 1.273 . S
O102 C101 1.273 . S
O103 Zn94 1.977 . S
O103 C96 1.267 . S
C104 C105 1.170 . S
C104 C106 1.380 1_655 S
C105 C104 1.170 . S
C106 C104 1.380 1_455 S
C106 C107 1.170 . S
C107 C106 1.170 . S
C108 C109 1.170 . S
C108 C110 1.380 1_545 S
C109 C108 1.170 . S
C110 C108 1.380 1_565 S
C110 C111 1.170 . S
C111 C110 1.170 . S
C112 C113 1.170 . S
C112 C114 1.380 1_655 S
C113 C112 1.170 . S
C114 C112 1.380 1_455 S
C114 C115 1.170 . S
C115 C114 1.170 . S
C116 C117 1.170 . S
C116 C118 1.380 1_545 S
C117 C116 1.170 . S
C118 C116 1.380 1_565 S
C118 C119 1.170 . S
C119 C118 1.170 . S
C120 C121 1.170 . S
C120 C122 1.380 . S
C121 C120 1.170 . S
C122 C120 1.380 . S
C122 C123 1.170 . S
C123 C122 1.170 . S
C124 C125 1.170 . S
C124 C126 1.380 . S
C125 C124 1.170 . S
C126 C124 1.380 . S
C126 C127 1.170 . S
C127 C126 1.170 . S
C128 C129 1.170 . S
C128 C130 1.380 . S
C129 C128 1.170 . S
C130 C128 1.380 . S
C130 C131 1.170 . S
C131 C130 1.170 . S
C132 C133 1.170 . S
C132 C134 1.380 . S
C133 C132 1.170 . S
C134 C132 1.380 . S
C134 C135 1.170 . S
C135 C134 1.170 . S
C136 C137 1.170 . S
C136 C138 1.380 . S
C137 C136 1.170 . S
C138 C136 1.380 . S
C138 C139 1.170 1_556 S
C139 C138 1.170 1_554 S
C140 C141 1.170 1_554 S
C140 C142 1.380 . S
C141 C140 1.170 1_556 S
C142 C140 1.380 . S
C142 C143 1.170 . S
C143 C142 1.170 . S
C144 C145 1.170 1_556 S
C144 C146 1.380 . S
C145 C144 1.170 1_554 S
C146 C144 1.380 . S
C146 C147 1.170 . S
C147 C146 1.170 . S
C148 C149 1.170 1_554 S
C148 C150 1.380 . S
C149 C148 1.170 1_556 S
C150 C148 1.380 . S
C150 C151 1.170 . S
C151 C150 1.170 . S
C152 C153 1.170 . S
C152 C154 1.380 . S
C153 C152 1.170 . S
C154 C152 1.380 . S
C154 C155 1.170 . S
C155 C154 1.170 . S
C156 C157 1.170 . S
C156 C158 1.380 . S
C157 C156 1.170 . S
C158 C156 1.380 . S
C158 C159 1.170 . S
C159 C158 1.170 . S
C160 C161 1.170 . S
C160 C162 1.380 . S
C161 C160 1.170 . S
C162 C160 1.380 . S
C162 C163 1.170 . S
C163 C162 1.170 . S
C164 C165 1.170 . S
C164 C166 1.380 . S
C165 C164 1.170 . S
C166 C164 1.380 . S
C166 C167 1.170 . S
C167 C166 1.170 . S
C105 C26 1.296 . S
C107 C0 1.298 . S
C109 C39 1.286 . S
C111 C13 1.339 . S
C113 C52 1.289 . S
C115 C78 1.337 . S
C117 C65 1.318 . S
C119 C91 1.284 . S
C121 C23 1.051 . S
C123 C5 0.949 . S
C125 C18 0.980 . S
C127 C36 1.069 . S
C129 C49 1.057 . S
C131 C31 1.015 . S
C133 C44 0.941 . S
C135 C10 1.062 . S
C137 C101 1.063 . S
C139 C57 0.943 . S
C141 C70 0.998 . S
C143 C62 1.067 . S
C145 C83 0.940 . S
C147 C75 1.057 . S
C149 C96 0.992 . S
C151 C88 1.065 . S
C153 C8 1.588 . S
C155 C73 1.620 . S
C157 C86 1.620 . S
C159 C21 1.618 . S
C161 C34 1.603 . S
C163 C99 1.603 . S
C165 C47 1.627 . S
C167 C60 1.610 . S
