# Generated by pormake.
# Topology uni, (4)-cn, num edge types: 1
# Building blocks:
#     Node 0, Type 0, BuildingBlock: CEKHIL_clean_sbu_0, # of connection points: 4
#     Node 1, Type 0, BuildingBlock: CEKHIL_clean_sbu_0, # of connection points: 4
#     Node 2, Type 0, BuildingBlock: CEKHIL_clean_sbu_0, # of connection points: 4
#     Node 3, Type 0, BuildingBlock: CEKHIL_clean_sbu_0, # of connection points: 4
#     Node 4, Type 0, BuildingBlock: CEKHIL_clean_sbu_0, # of connection points: 4
#     Node 5, Type 0, BuildingBlock: CEKHIL_clean_sbu_0, # of connection points: 4
#     Edge 6, Type (0, 0), BuildingBlock: AJUNOK_clean_linker_0, # of connection points: 2
#     Edge 7, Type (0, 0), BuildingBlock: AJUNOK_clean_linker_0, # of connection points: 2
#     Edge 8, Type (0, 0), BuildingBlock: AJUNOK_clean_linker_0, # of connection points: 2
#     Edge 9, Type (0, 0), BuildingBlock: AJUNOK_clean_linker_0, # of connection points: 2
#     Edge 10, Type (0, 0), BuildingBlock: AJUNOK_clean_linker_0, # of connection points: 2
#     Edge 11, Type (0, 0), BuildingBlock: AJUNOK_clean_linker_0, # of connection points: 2
#     Edge 12, Type (0, 0), BuildingBlock: AJUNOK_clean_linker_0, # of connection points: 2
#     Edge 13, Type (0, 0), BuildingBlock: AJUNOK_clean_linker_0, # of connection points: 2
#     Edge 14, Type (0, 0), BuildingBlock: AJUNOK_clean_linker_0, # of connection points: 2
#     Edge 15, Type (0, 0), BuildingBlock: AJUNOK_clean_linker_0, # of connection points: 2
#     Edge 16, Type (0, 0), BuildingBlock: AJUNOK_clean_linker_0, # of connection points: 2
#     Edge 17, Type (0, 0), BuildingBlock: AJUNOK_clean_linker_0, # of connection points: 2
# Relax obj value: 0.073
# Max RMSD: 0.104
# Mean RMSD: 0.096
data_MOF--net-uni--node1-CEKHIL_clean_sbu_0--edge1-AJUNOK_clean_linker_0
_symmetry_space_group_name_H-M    P1
_symmetry_Int_Tables_number       1
_symmetry_cell_setting            triclinic
loop_
_symmetry_equiv_pos_as_xyz
'x, y, z'
_cell_length_a     27.890024
_cell_length_b     27.572195
_cell_length_c     16.893835
_cell_angle_alpha  90.043581
_cell_angle_beta   89.874079
_cell_angle_gamma 121.19715
loop_
_atom_site_label
_atom_site_type_symbol
_atom_site_fract_x
_atom_site_fract_y
_atom_site_fract_z
_atom_type_partial_charge
Co0 Co 0.68913 0.03812 0.06834 0.0
O1 O 0.71908 1.00971 0.14675 0.0
O2 O 0.65585 0.95735 0.05607 0.0
C3 C 0.77275 0.11293 0.03112 0.0
O4 O 0.64898 0.0497 0.97606 0.0
Co5 Co 0.70104 0.15608 0.07309 0.0
O6 O 0.66493 0.13796 0.96766 0.0
C7 C 0.62245 0.06503 0.18297 0.0
C8 C 0.68763 0.96032 0.11415 0.0
C9 C 0.64316 0.08776 0.94089 0.0
O10 O 0.62869 0.02792 0.14528 0.0
O11 O 0.65107 0.118 0.16661 0.0
O12 O 0.75563 0.06282 1.00252 0.0
O13 O 0.74077 0.11593 0.08373 0.0
Co14 Co 0.68905 0.67942 0.24253 0.0
O15 O 0.75528 0.71401 0.3091 0.0
O16 O 0.73351 0.64594 0.22127 0.0
C17 C 0.69505 0.76153 0.20733 0.0
O18 O 0.62948 0.63473 0.15961 0.0
Co19 Co 0.58319 0.6862 0.26596 0.0
O20 O 0.55711 0.64822 0.1616 0.0
C21 C 0.60229 0.61018 0.36812 0.0
C22 C 0.76805 0.68 0.27443 0.0
C23 C 0.58334 0.62657 0.13049 0.0
O24 O 0.64495 0.61995 0.32597 0.0
O25 O 0.57541 0.6357 0.35672 0.0
O26 O 0.72484 0.74455 0.17068 0.0
O27 O 0.66468 0.73014 0.26528 0.0
Co28 Co 0.04763 0.67874 0.39118 0.0
O29 O 1.01855 0.71262 0.31995 0.0
O30 O 0.96773 0.6425 0.40371 0.0
C31 C 0.12123 0.7612 0.43429 0.0
O32 O 0.05907 0.63417 0.477 0.0
Co33 Co 0.16374 0.69071 0.38199 0.0
O34 O 0.1453 0.6481 0.48326 0.0
C35 C 0.07348 0.61257 0.27238 0.0
C36 C 0.96967 0.6773 0.35041 0.0
C37 C 0.09553 0.62559 0.50985 0.0
O38 O 0.03771 0.62113 0.30838 0.0
O39 O 0.1258 0.63992 0.28899 0.0
O40 O 0.07169 0.74219 0.46435 0.0
O41 O 0.12464 0.73204 0.37718 0.0
Co42 Co 0.41115 0.03817 0.57075 0.0
O43 O 0.37985 0.06583 0.6485 0.0
O44 O 0.44274 0.11861 0.55746 0.0
C45 C 0.32813 0.96159 0.53453 0.0
O46 O 0.45266 0.0278 0.47941 0.0
Co47 Co 0.40274 0.92216 0.57504 0.0
O48 O 0.43939 0.94083 0.46949 0.0
C49 C 0.48258 1.015 0.68126 0.0
C50 C 0.41062 0.11525 0.61551 0.0
C51 C 0.46077 0.99133 0.44405 0.0
O52 O 0.47232 0.05052 0.64716 0.0
O53 O 0.4558 0.96198 0.665 0.0
O54 O 0.34466 1.01129 0.50471 0.0
O55 O 0.3608 0.96009 0.58721 0.0
Co56 Co 0.40886 0.39601 0.74338 0.0
O57 O 0.3424 0.3615 0.80989 0.0
O58 O 0.36484 0.42992 0.72235 0.0
C59 C 0.40254 0.31389 0.70779 0.0
O60 O 0.46868 0.44076 0.66056 0.0
Co61 Co 0.51447 0.38906 0.76586 0.0
O62 O 0.54068 0.42676 0.66119 0.0
C63 C 0.49588 0.46544 0.86822 0.0
C64 C 0.33003 0.39579 0.77535 0.0
C65 C 0.51464 0.44873 0.63071 0.0
O66 O 0.45283 0.45519 0.82697 0.0
O67 O 0.52314 0.44036 0.85614 0.0
O68 O 0.37309 0.33121 0.67124 0.0
O69 O 0.4329 0.34497 0.76586 0.0
Co70 Co 0.05137 0.39936 0.8916 0.0
O71 O 0.08087 0.36658 0.81885 0.0
O72 O 0.1312 0.43557 0.9041 0.0
C73 C 0.97766 0.31616 0.93319 0.0
O74 O 0.03932 0.44268 0.97917 0.0
Co75 Co 0.93444 0.38639 0.88362 0.0
O76 O 0.95185 0.42571 0.98734 0.0
C77 C 1.02444 0.46405 0.77248 0.0
C78 C 0.12958 0.40138 0.84998 0.0
C79 C 1.00173 0.44904 0.01346 0.0
O80 O 0.06098 0.4576 0.81004 0.0
O81 O 0.97205 0.43541 0.78888 0.0
O82 O 1.02722 0.33459 0.96257 0.0
O83 O 0.97462 0.34638 0.87746 0.0
C84 C 0.54465 0.98872 0.2665 0.0
C85 C 0.58044 0.04662 0.24848 0.0
C86 C 0.50539 0.97102 0.32861 0.0
C87 C 0.50005 1.01043 0.37523 0.0
H88 H 0.54705 0.95664 0.23269 0.0
H89 H 0.47925 0.92602 0.34037 0.0
S90 S 0.58444 0.16736 0.35407 0.0
N91 N 0.60806 0.1435 0.28392 0.0
N92 N 0.53474 0.11036 0.39926 0.0
C93 C 0.53538 0.06846 0.35756 0.0
C94 C 0.57538 0.08648 0.29476 0.0
C95 C 0.52793 0.54749 0.46462 0.0
C96 C 0.58143 0.56683 0.43228 0.0
C97 C 0.50683 0.50862 0.52691 0.0
C98 C 0.53809 0.48697 0.56062 0.0
H99 H 0.5017 0.56263 0.442 0.0
H100 H 0.46556 0.49609 0.54927 0.0
S101 S 0.68005 0.52197 0.49606 0.0
N102 N 0.66491 0.55992 0.43708 0.0
N103 N 0.62521 0.48662 0.55494 0.0
C104 C 0.59131 0.50478 0.52787 0.0
C105 C 0.61292 0.54463 0.46367 0.0
C106 C 0.09748 0.53246 0.67589 0.0
C107 C 0.04289 0.50678 0.70755 0.0
C108 C 0.11458 0.57145 0.61301 0.0
C109 C 0.07786 0.58652 0.57925 0.0
H110 H 0.1271 0.52182 0.69898 0.0
H111 H 0.15673 0.5893 0.59013 0.0
S112 S 0.93145 0.5345 0.64413 0.0
N113 N 0.95307 0.50181 0.70251 0.0
N114 N 0.98493 0.57433 0.58534 0.0
C115 C 1.02359 0.56216 0.61177 0.0
C116 C 1.00621 0.52257 0.67548 0.0
C117 C 0.58376 0.10422 0.8455 0.0
C118 C 0.60642 0.07127 0.86986 0.0
C119 C 0.54486 0.08667 0.78328 0.0
C120 C 0.527 0.03542 0.7429 0.0
H121 H 0.59478 0.14313 0.87624 0.0
H122 H 0.5275 0.1127 0.76836 0.0
S123 S 0.57886 0.93709 0.77688 0.0
N124 N 0.61158 0.98731 0.84377 0.0
N125 N 0.5391 0.95452 0.72723 0.0
C126 C 0.55122 1.00334 0.76444 0.0
C127 C 0.59069 0.02117 0.8277 0.0
C128 C 0.59311 0.57112 0.02142 0.0
C129 C 0.55989 0.58864 0.06025 0.0
C130 C 0.57206 0.53226 0.95909 0.0
C131 C 0.5167 0.50893 0.93199 0.0
H132 H 0.63592 0.58697 0.03975 0.0
H133 H 0.59972 0.52026 0.93222 0.0
S134 S 0.41222 0.5416 0.01101 0.0
N135 N 0.46869 0.58048 0.06536 0.0
N136 N 0.42914 0.50731 0.94746 0.0
C137 C 0.48317 0.52702 0.9685 0.0
C138 C 0.5047 0.5668 0.03267 0.0
C139 C 0.98514 0.50936 0.10866 0.0
C140 C 1.0184 0.48741 0.08331 0.0
C141 C 1.00255 0.54907 0.17059 0.0
C142 C 0.05397 0.5685 0.20947 0.0
H143 H 0.94594 0.49689 0.07926 0.0
H144 H 0.97607 0.56555 0.18681 0.0
S145 S 0.15356 0.51934 0.17203 0.0
N146 N 0.10316 0.48486 0.1067 0.0
N147 N 0.13568 0.55889 0.22231 0.0
C148 C 0.08657 0.54523 0.18659 0.0
C149 C 0.06887 0.50491 0.12383 0.0
C150 C 0.69856 0.82881 0.10446 0.0
C151 C 0.69458 0.81307 0.18442 0.0
C152 C 0.69529 0.87612 0.08208 0.0
C153 C 0.68985 0.91023 0.13911 0.0
H154 H 0.70294 0.80372 0.05885 0.0
H155 H 0.69785 0.88658 0.0198 0.0
S156 S 0.67909 0.88806 0.35606 0.0
N157 N 0.68473 0.83536 0.32063 0.0
N158 N 0.68129 0.9256 0.27848 0.0
C159 C 0.68699 0.89564 0.21914 0.0
C160 C 0.6886 0.84664 0.2418 0.0
C161 C 0.92043 0.72898 0.31609 0.0
C162 C 0.91852 0.67749 0.32817 0.0
C163 C 0.87128 0.7298 0.30077 0.0
C164 C 0.81906 0.67908 0.29457 0.0
H165 H 0.95992 0.76889 0.32042 0.0
H166 H 0.87427 0.77023 0.29233 0.0
S167 S 0.79179 0.53339 0.32001 0.0
N168 N 0.86003 0.57479 0.33356 0.0
N169 N 0.76837 0.57628 0.30123 0.0
C170 C 0.81683 0.62746 0.30532 0.0
C171 C 0.8664 0.62668 0.32309 0.0
C172 C 0.19011 0.86495 0.42904 0.0
C173 C 0.17155 0.81206 0.46443 0.0
C174 C 0.24079 0.91319 0.45211 0.0
C175 C 0.27484 0.90995 0.51082 0.0
H176 H 0.16562 0.86887 0.38255 0.0
H177 H 0.25351 0.95315 0.42321 0.0
S178 S 0.24368 0.78005 0.62102 0.0
N179 N 0.18987 0.75868 0.56077 0.0
N180 N 0.28539 0.84855 0.60391 0.0
C181 C 0.25622 0.85688 0.54667 0.0
C182 C 0.20447 0.80809 0.52345 0.0
C183 C 0.40463 0.24964 0.6048 0.0
C184 C 0.40244 0.26212 0.68488 0.0
C185 C 0.40813 0.20236 0.5829 0.0
C186 C 0.40762 0.16505 0.64028 0.0
H187 H 0.40511 0.27735 0.55896 0.0
H188 H 0.41054 0.19455 0.52058 0.0
S189 S 0.40055 0.17815 0.85763 0.0
N190 N 0.39984 0.23347 0.82162 0.0
N191 N 0.40369 0.14329 0.78017 0.0
C192 C 0.40414 0.17641 0.72033 0.0
C193 C 0.40231 0.22537 0.7427 0.0
C194 C 0.17743 0.34933 0.80931 0.0
C195 C 0.18069 0.4007 0.82835 0.0
C196 C 0.22614 0.34752 0.7944 0.0
C197 C 0.27937 0.39727 0.79576 0.0
H198 H 0.13713 0.31014 0.80771 0.0
H199 H 0.22208 0.30722 0.78028 0.0
S200 S 0.31064 0.54225 0.84138 0.0
N201 N 0.24173 0.5022 0.84849 0.0
N202 N 0.33265 0.49898 0.81695 0.0
C203 C 0.28309 0.4488 0.81359 0.0
C204 C 0.23388 0.45047 0.83085 0.0
C205 C 0.87718 0.26471 0.973 0.0
C206 C 0.92701 0.26446 0.96175 0.0
C207 C 0.82751 0.21547 0.99605 0.0
C208 C 0.82547 0.16382 1.00574 0.0
H209 H 0.87665 0.30335 0.96452 0.0
H210 H 0.7902 0.21766 1.00495 0.0
S211 S 0.94428 0.14059 0.98221 0.0
N212 N 0.97162 0.20868 0.96277 0.0
N213 N 0.87744 0.11527 1.00267 0.0
C214 C 0.87484 0.16283 0.99391 0.0
C215 C 0.9259 0.21345 0.97289 0.0
loop_
_geom_bond_atom_site_label_1
_geom_bond_atom_site_label_2
_geom_bond_distance
_geom_bond_site_symmetry_2
_ccdc_geom_bond_type
Co0 O1 2.216 1_545 S
Co0 O2 2.091 1_545 S
Co0 O4 2.004 1_554 S
Co0 O10 2.021 1_545 S
Co0 O12 2.137 1_554 S
Co0 O13 2.244 . S
O1 Co0 2.216 1_565 S
O1 C8 1.247 . S
O2 Co0 2.091 1_565 S
O2 C8 1.261 . S
C3 O12 1.247 1_554 S
C3 O13 1.272 . S
O4 Co0 2.004 1_556 S
O4 C9 1.259 . S
Co5 O6 2.061 1_554 S
Co5 O11 2.052 . S
Co5 O13 2.135 . S
O6 Co5 2.061 1_556 S
O6 C9 1.235 . S
C7 O10 1.238 1_545 S
C7 O11 1.241 . S
C8 O1 1.247 . S
C8 O2 1.261 . S
C9 O4 1.259 . S
C9 O6 1.235 . S
O10 Co0 2.021 1_565 S
O10 C7 1.238 1_565 S
O11 Co5 2.052 . S
O11 C7 1.241 . S
O12 Co0 2.137 1_556 S
O12 C3 1.247 1_556 S
O13 Co0 2.244 . S
O13 C3 1.272 . S
O13 Co5 2.135 . S
Co14 O15 2.216 . S
Co14 O16 2.091 . S
Co14 O18 2.004 . S
Co14 O24 2.021 . S
Co14 O26 2.137 . S
Co14 O27 2.244 . S
O15 Co14 2.216 . S
O15 C22 1.247 . S
O16 Co14 2.091 . S
O16 C22 1.261 . S
C17 O26 1.247 . S
C17 O27 1.272 . S
O18 Co14 2.004 . S
O18 C23 1.259 . S
Co19 O20 2.061 . S
Co19 O25 2.052 . S
Co19 O27 2.135 . S
O20 Co19 2.061 . S
O20 C23 1.235 . S
C21 O24 1.238 . S
C21 O25 1.241 . S
C22 O15 1.247 . S
C22 O16 1.261 . S
C23 O18 1.259 . S
C23 O20 1.235 . S
O24 Co14 2.021 . S
O24 C21 1.238 . S
O25 Co19 2.052 . S
O25 C21 1.241 . S
O26 Co14 2.137 . S
O26 C17 1.247 . S
O27 Co14 2.244 . S
O27 C17 1.272 . S
O27 Co19 2.135 . S
Co28 O29 2.216 1_455 S
Co28 O30 2.091 1_455 S
Co28 O32 2.004 . S
Co28 O38 2.021 1_455 S
Co28 O40 2.137 . S
Co28 O41 2.244 . S
O29 Co28 2.216 1_655 S
O29 C36 1.247 . S
O30 Co28 2.091 1_655 S
O30 C36 1.261 . S
C31 O40 1.247 . S
C31 O41 1.272 . S
O32 Co28 2.004 . S
O32 C37 1.259 . S
Co33 O34 2.061 . S
Co33 O39 2.052 . S
Co33 O41 2.135 . S
O34 Co33 2.061 . S
O34 C37 1.235 . S
C35 O38 1.238 1_455 S
C35 O39 1.241 . S
C36 O29 1.247 . S
C36 O30 1.261 . S
C37 O32 1.259 . S
C37 O34 1.235 . S
O38 Co28 2.021 1_655 S
O38 C35 1.238 1_655 S
O39 Co33 2.052 . S
O39 C35 1.241 . S
O40 Co28 2.137 . S
O40 C31 1.247 . S
O41 Co28 2.244 . S
O41 C31 1.272 . S
O41 Co33 2.135 . S
Co42 O43 2.216 . S
Co42 O44 2.091 . S
Co42 O46 2.004 . S
Co42 O52 2.021 . S
Co42 O54 2.137 1_545 S
Co42 O55 2.244 1_545 S
O43 Co42 2.216 . S
O43 C50 1.247 . S
O44 Co42 2.091 . S
O44 C50 1.261 . S
C45 O54 1.247 . S
C45 O55 1.272 . S
O46 Co42 2.004 . S
O46 C51 1.259 . S
Co47 O48 2.061 . S
Co47 O53 2.052 . S
Co47 O55 2.135 . S
O48 Co47 2.061 . S
O48 C51 1.235 1_565 S
C49 O52 1.238 . S
C49 O53 1.241 1_545 S
C50 O43 1.247 . S
C50 O44 1.261 . S
C51 O46 1.259 . S
C51 O48 1.235 1_545 S
O52 Co42 2.021 . S
O52 C49 1.238 . S
O53 Co47 2.052 . S
O53 C49 1.241 1_565 S
O54 Co42 2.137 1_565 S
O54 C45 1.247 . S
O55 Co42 2.244 1_565 S
O55 C45 1.272 . S
O55 Co47 2.135 . S
Co56 O57 2.216 . S
Co56 O58 2.091 . S
Co56 O60 2.004 . S
Co56 O66 2.021 . S
Co56 O68 2.137 . S
Co56 O69 2.244 . S
O57 Co56 2.216 . S
O57 C64 1.247 . S
O58 Co56 2.091 . S
O58 C64 1.261 . S
C59 O68 1.247 . S
C59 O69 1.272 . S
O60 Co56 2.004 . S
O60 C65 1.259 . S
Co61 O62 2.061 . S
Co61 O67 2.052 . S
Co61 O69 2.135 . S
O62 Co61 2.061 . S
O62 C65 1.235 . S
C63 O66 1.238 . S
C63 O67 1.241 . S
C64 O57 1.247 . S
C64 O58 1.261 . S
C65 O60 1.259 . S
C65 O62 1.235 . S
O66 Co56 2.021 . S
O66 C63 1.238 . S
O67 Co61 2.052 . S
O67 C63 1.241 . S
O68 Co56 2.137 . S
O68 C59 1.247 . S
O69 Co56 2.244 . S
O69 C59 1.272 . S
O69 Co61 2.135 . S
Co70 O71 2.216 . S
Co70 O72 2.091 . S
Co70 O74 2.004 1_556 S
Co70 O80 2.021 . S
Co70 O82 2.137 1_455 S
Co70 O83 2.244 1_455 S
O71 Co70 2.216 . S
O71 C78 1.247 . S
O72 Co70 2.091 . S
O72 C78 1.261 . S
C73 O82 1.247 . S
C73 O83 1.272 . S
O74 Co70 2.004 1_554 S
O74 C79 1.259 . S
Co75 O76 2.061 . S
Co75 O81 2.052 . S
Co75 O83 2.135 . S
O76 Co75 2.061 . S
O76 C79 1.235 1_656 S
C77 O80 1.238 . S
C77 O81 1.241 1_455 S
C78 O71 1.247 . S
C78 O72 1.261 . S
C79 O74 1.259 . S
C79 O76 1.235 1_454 S
O80 Co70 2.021 . S
O80 C77 1.238 . S
O81 Co75 2.052 . S
O81 C77 1.241 1_655 S
O82 Co70 2.137 1_655 S
O82 C73 1.247 . S
O83 Co70 2.244 1_655 S
O83 C73 1.272 . S
O83 Co75 2.135 . S
C84 C85 1.369 1_565 S
C84 C86 1.419 . S
C84 H88 0.930 . S
C85 C84 1.369 1_545 S
C85 C94 1.429 . S
C86 C84 1.419 . S
C86 C87 1.363 1_565 S
C86 H89 0.929 . S
C87 C86 1.363 1_545 S
C87 C93 1.428 . S
H88 C84 0.930 . S
H89 C86 0.929 . S
S90 N91 1.613 . S
S90 N92 1.610 . S
N91 S90 1.613 . S
N91 C94 1.350 . S
N92 S90 1.610 . S
N92 C93 1.351 . S
C93 C87 1.428 . S
C93 N92 1.351 . S
C93 C94 1.434 . S
C94 C85 1.429 . S
C94 N91 1.350 . S
C94 C93 1.434 . S
C95 C96 1.369 . S
C95 C97 1.419 . S
C95 H99 0.930 . S
C96 C95 1.369 . S
C96 C105 1.429 . S
C97 C95 1.419 . S
C97 C98 1.363 . S
C97 H100 0.929 . S
C98 C97 1.363 . S
C98 C104 1.428 . S
H99 C95 0.930 . S
H100 C97 0.929 . S
S101 N102 1.613 . S
S101 N103 1.610 . S
N102 S101 1.613 . S
N102 C105 1.350 . S
N103 S101 1.610 . S
N103 C104 1.351 . S
C104 C98 1.428 . S
C104 N103 1.351 . S
C104 C105 1.434 . S
C105 C96 1.429 . S
C105 N102 1.350 . S
C105 C104 1.434 . S
C106 C107 1.369 . S
C106 C108 1.419 . S
C106 H110 0.930 . S
C107 C106 1.369 . S
C107 C116 1.429 1_455 S
C108 C106 1.419 . S
C108 C109 1.363 . S
C108 H111 0.929 . S
C109 C108 1.363 . S
C109 C115 1.428 1_455 S
H110 C106 0.930 . S
H111 C108 0.929 . S
S112 N113 1.613 . S
S112 N114 1.610 . S
N113 S112 1.613 . S
N113 C116 1.350 . S
N114 S112 1.610 . S
N114 C115 1.351 . S
C115 C109 1.428 1_655 S
C115 N114 1.351 . S
C115 C116 1.434 . S
C116 C107 1.429 1_655 S
C116 N113 1.350 . S
C116 C115 1.434 . S
C117 C118 1.369 . S
C117 C119 1.419 . S
C117 H121 0.930 . S
C118 C117 1.369 . S
C118 C127 1.429 1_545 S
C119 C117 1.419 . S
C119 C120 1.363 . S
C119 H122 0.929 . S
C120 C119 1.363 . S
C120 C126 1.428 1_545 S
H121 C117 0.930 . S
H122 C119 0.929 . S
S123 N124 1.613 . S
S123 N125 1.610 . S
N124 S123 1.613 . S
N124 C127 1.350 . S
N125 S123 1.610 . S
N125 C126 1.351 . S
C126 C120 1.428 1_565 S
C126 N125 1.351 . S
C126 C127 1.434 . S
C127 C118 1.429 1_565 S
C127 N124 1.350 . S
C127 C126 1.434 . S
C128 C129 1.369 1_556 S
C128 C130 1.419 . S
C128 H132 0.930 . S
C129 C128 1.369 1_554 S
C129 C138 1.429 . S
C130 C128 1.419 . S
C130 C131 1.363 . S
C130 H133 0.929 . S
C131 C130 1.363 . S
C131 C137 1.428 . S
H132 C128 0.930 . S
H133 C130 0.929 . S
S134 N135 1.613 . S
S134 N136 1.616 . S
N135 S134 1.613 . S
N135 C138 1.350 . S
N136 S134 1.616 . S
N136 C137 1.349 1_554 S
C137 C131 1.428 . S
C137 N136 1.349 1_556 S
C137 C138 1.434 1_556 S
C138 C129 1.429 . S
C138 N135 1.350 . S
C138 C137 1.434 1_554 S
C139 C140 1.369 1_655 S
C139 C141 1.419 . S
C139 H143 0.930 . S
C140 C139 1.369 1_455 S
C140 C149 1.429 . S
C141 C139 1.419 . S
C141 C142 1.363 1_655 S
C141 H144 0.929 . S
C142 C141 1.363 1_455 S
C142 C148 1.428 . S
H143 C139 0.930 . S
H144 C141 0.929 . S
S145 N146 1.613 . S
S145 N147 1.610 . S
N146 S145 1.613 . S
N146 C149 1.350 . S
N147 S145 1.610 . S
N147 C148 1.351 . S
C148 C142 1.428 . S
C148 N147 1.351 . S
C148 C149 1.434 . S
C149 C140 1.429 . S
C149 N146 1.350 . S
C149 C148 1.434 . S
C150 C151 1.369 . S
C150 C152 1.419 . S
C150 H154 0.930 . S
C151 C150 1.369 . S
C151 C160 1.429 . S
C152 C150 1.419 . S
C152 C153 1.363 . S
C152 H155 0.929 . S
C153 C152 1.363 . S
C153 C159 1.428 . S
H154 C150 0.930 . S
H155 C152 0.929 . S
S156 N157 1.613 . S
S156 N158 1.610 . S
N157 S156 1.613 . S
N157 C160 1.350 . S
N158 S156 1.610 . S
N158 C159 1.351 . S
C159 C153 1.428 . S
C159 N158 1.351 . S
C159 C160 1.434 . S
C160 C151 1.429 . S
C160 N157 1.350 . S
C160 C159 1.434 . S
C161 C162 1.369 . S
C161 C163 1.419 . S
C161 H165 0.930 . S
C162 C161 1.369 . S
C162 C171 1.429 . S
C163 C161 1.419 . S
C163 C164 1.363 . S
C163 H166 0.929 . S
C164 C163 1.363 . S
C164 C170 1.428 . S
H165 C161 0.930 . S
H166 C163 0.929 . S
S167 N168 1.613 . S
S167 N169 1.610 . S
N168 S167 1.613 . S
N168 C171 1.350 . S
N169 S167 1.610 . S
N169 C170 1.351 . S
C170 C164 1.428 . S
C170 N169 1.351 . S
C170 C171 1.434 . S
C171 C162 1.429 . S
C171 N168 1.350 . S
C171 C170 1.434 . S
C172 C173 1.369 . S
C172 C174 1.419 . S
C172 H176 0.930 . S
C173 C172 1.369 . S
C173 C182 1.429 . S
C174 C172 1.419 . S
C174 C175 1.363 . S
C174 H177 0.929 . S
C175 C174 1.363 . S
C175 C181 1.428 . S
H176 C172 0.930 . S
H177 C174 0.929 . S
S178 N179 1.613 . S
S178 N180 1.610 . S
N179 S178 1.613 . S
N179 C182 1.350 . S
N180 S178 1.610 . S
N180 C181 1.351 . S
C181 C175 1.428 . S
C181 N180 1.351 . S
C181 C182 1.434 . S
C182 C173 1.429 . S
C182 N179 1.350 . S
C182 C181 1.434 . S
C183 C184 1.369 . S
C183 C185 1.419 . S
C183 H187 0.930 . S
C184 C183 1.369 . S
C184 C193 1.429 . S
C185 C183 1.419 . S
C185 C186 1.363 . S
C185 H188 0.929 . S
C186 C185 1.363 . S
C186 C192 1.428 . S
H187 C183 0.930 . S
H188 C185 0.929 . S
S189 N190 1.613 . S
S189 N191 1.610 . S
N190 S189 1.613 . S
N190 C193 1.350 . S
N191 S189 1.610 . S
N191 C192 1.351 . S
C192 C186 1.428 . S
C192 N191 1.351 . S
C192 C193 1.434 . S
C193 C184 1.429 . S
C193 N190 1.350 . S
C193 C192 1.434 . S
C194 C195 1.369 . S
C194 C196 1.419 . S
C194 H198 0.930 . S
C195 C194 1.369 . S
C195 C204 1.429 . S
C196 C194 1.419 . S
C196 C197 1.363 . S
C196 H199 0.929 . S
C197 C196 1.363 . S
C197 C203 1.428 . S
H198 C194 0.930 . S
H199 C196 0.929 . S
S200 N201 1.613 . S
S200 N202 1.610 . S
N201 S200 1.613 . S
N201 C204 1.350 . S
N202 S200 1.610 . S
N202 C203 1.351 . S
C203 C197 1.428 . S
C203 N202 1.351 . S
C203 C204 1.434 . S
C204 C195 1.429 . S
C204 N201 1.350 . S
C204 C203 1.434 . S
C205 C206 1.369 . S
C205 C207 1.419 . S
C205 H209 0.930 . S
C206 C205 1.369 . S
C206 C215 1.429 . S
C207 C205 1.419 . S
C207 C208 1.363 . S
C207 H210 0.929 . S
C208 C207 1.363 . S
C208 C214 1.428 . S
H209 C205 0.930 . S
H210 C207 0.929 . S
S211 N212 1.613 . S
S211 N213 1.610 . S
N212 S211 1.613 . S
N212 C215 1.350 . S
N213 S211 1.610 . S
N213 C214 1.351 . S
C214 C208 1.428 . S
C214 N213 1.351 . S
C214 C215 1.434 . S
C215 C206 1.429 . S
C215 N212 1.350 . S
C215 C214 1.434 . S
C85 C7 1.615 . S
C87 C51 1.643 . S
C96 C21 1.575 . S
C98 C65 1.594 . S
C107 C77 1.594 . S
C109 C37 1.622 . S
C118 C9 1.645 . S
C120 C49 1.613 . S
C129 C23 1.595 . S
C131 C63 1.573 . S
C140 C79 1.622 . S
C142 C35 1.594 . S
C151 C17 1.429 . S
C153 C8 1.424 . S
C162 C36 1.405 . S
C164 C22 1.402 . S
C173 C31 1.451 . S
C175 C45 1.453 . S
C184 C59 1.430 . S
C186 C50 1.425 . S
C195 C78 1.404 . S
C197 C64 1.403 . S
C206 C73 1.453 . S
C208 C3 1.454 1_556 S
