# Generated by pormake.
# Topology sqp, (5)-cn, num edge types: 1
# Building blocks:
#     Node 0, Type 0, BuildingBlock: XOMCOT_clean_sbu_0, # of connection points: 5
#     Node 1, Type 0, BuildingBlock: XOMCOT_clean_sbu_0, # of connection points: 5
#     Node 2, Type 0, BuildingBlock: XOMCOT_clean_sbu_0, # of connection points: 5
#     Node 3, Type 0, BuildingBlock: XOMCOT_clean_sbu_0, # of connection points: 5
#     Edge 4, Type (0, 0), None
#     Edge 5, Type (0, 0), None
#     Edge 6, Type (0, 0), None
#     Edge 7, Type (0, 0), None
#     Edge 8, Type (0, 0), None
#     Edge 9, Type (0, 0), None
#     Edge 10, Type (0, 0), None
#     Edge 11, Type (0, 0), None
#     Edge 12, Type (0, 0), None
#     Edge 13, Type (0, 0), None
# Relax obj value: 0.123
# Max RMSD: 0.199
# Mean RMSD: 0.199
data_MOF--net-sqp--node1-XOMCOT_clean_sbu_0--edge1-none
_symmetry_space_group_name_H-M    P1
_symmetry_Int_Tables_number       1
_symmetry_cell_setting            triclinic
loop_
_symmetry_equiv_pos_as_xyz
'x, y, z'
_cell_length_a     10.942185
_cell_length_b     10.699728
_cell_length_c     25.560278
_cell_angle_alpha  90.00002
_cell_angle_beta   78.826792
_cell_angle_gamma 90.000006
loop_
_atom_site_label
_atom_site_type_symbol
_atom_site_fract_x
_atom_site_fract_y
_atom_site_fract_z
_atom_type_partial_charge
Co0 Co 1.05185 0.9647 0.30398 0.0
C1 C 0.90577 0.17929 0.27445 0.0
C2 C 0.8997 0.17697 0.35871 0.0
C3 C 0.83055 0.27681 0.34719 0.0
N4 N 0.94518 0.11325 0.31331 0.0
N5 N 0.83471 0.27833 0.29433 0.0
H6 H 0.92636 0.15415 0.23265 0.0
H7 H 0.91654 0.15678 0.39791 0.0
C8 C 0.24372 0.17389 0.28856 0.0
O9 O 0.18155 0.24073 0.32804 0.0
N10 N 0.16078 0.82205 0.29378 0.0
C11 C 0.15541 0.72097 0.32544 0.0
C12 C 0.26207 0.65188 0.30913 0.0
C13 C 0.26918 0.81275 0.25832 0.0
N14 N 0.33374 0.71062 0.26731 0.0
C15 C 0.97293 0.9345 0.41628 0.0
C16 C 0.19464 -0.00362 0.44591 0.0
C17 C 0.0915 0.96559 0.48591 0.0
C18 C 0.98028 0.93217 0.4701 0.0
C19 C 0.18375 -0.00451 0.39226 0.0
N20 N 1.07199 0.97114 0.37816 0.0
H21 H 0.88541 0.91023 0.40546 0.0
H22 H 0.26618 0.01177 0.36236 0.0
H23 H 0.08188 0.7018 0.35932 0.0
H24 H 0.3012 0.8802 0.22726 0.0
O25 O 0.90896 0.85359 0.31304 0.0
O26 O 1.00724 0.9307 0.2358 0.0
O27 O 0.20155 0.06964 0.27627 0.0
C28 C 0.92161 0.85683 0.26147 0.0
H29 H 0.78132 0.3435 0.37555 0.0
H30 H 0.28655 0.56733 0.32784 0.0
H31 H 0.28346 0.02111 0.45569 0.0
H32 H 0.89929 0.90294 0.49887 0.0
Co33 Co 0.13988 0.9647 0.72541 0.0
C34 C 0.28596 0.17929 0.75493 0.0
C35 C 0.29204 0.17697 0.67068 0.0
C36 C 0.36118 0.27681 0.6822 0.0
N37 N 0.24655 0.11326 0.71608 0.0
N38 N 0.35702 0.27833 0.73506 0.0
H39 H 0.26538 0.15415 0.79673 0.0
H40 H 0.27519 0.15678 0.63147 0.0
C41 C 0.94802 0.17389 0.74083 0.0
O42 O 1.01018 0.24074 0.70134 0.0
N43 N 1.03095 0.82205 0.7356 0.0
C44 C 1.03632 0.72097 0.70395 0.0
C45 C 0.92967 0.65189 0.72026 0.0
C46 C 0.92256 0.81275 0.77107 0.0
N47 N 0.85799 0.71062 0.76208 0.0
C48 C 0.2188 0.93451 0.6131 0.0
C49 C 0.99709 -0.00362 0.58348 0.0
C50 C 0.10023 0.96559 0.54348 0.0
C51 C 0.21145 0.93218 0.55929 0.0
C52 C 1.00799 -0.00451 0.63712 0.0
N53 N 0.11974 0.97114 0.65123 0.0
H54 H 0.30632 0.91024 0.62392 0.0
H55 H 0.92556 0.01177 0.66703 0.0
H56 H 0.10985 0.7018 0.67006 0.0
H57 H 0.89053 0.8802 0.80213 0.0
O58 O 0.28277 0.85359 0.71634 0.0
O59 O 0.1845 0.9307 0.79359 0.0
O60 O 0.99018 0.06964 0.75311 0.0
C61 C 0.27013 0.85683 0.76791 0.0
H62 H 0.41041 0.3435 0.65383 0.0
H63 H 0.90518 0.56733 0.70155 0.0
H64 H 0.90827 0.02111 0.5737 0.0
H65 H 0.29244 0.90294 0.53052 0.0
Co66 Co 0.55189 0.46469 0.80397 0.0
C67 C 0.40576 0.67925 0.77445 0.0
C68 C 0.39978 0.677 0.8587 0.0
C69 C 0.3306 0.77682 0.84718 0.0
N70 N 0.44522 0.61325 0.8133 0.0
N71 N 0.33467 0.77827 0.79433 0.0
H72 H 0.42632 0.6541 0.73265 0.0
H73 H 0.4167 0.65686 0.8979 0.0
C74 C 0.74375 0.67389 0.78856 0.0
O75 O 0.68159 0.74073 0.82804 0.0
N76 N 0.66081 0.32205 0.79378 0.0
C77 C 0.65545 0.22097 0.82544 0.0
C78 C 0.76211 0.15189 0.80913 0.0
C79 C 0.76921 0.31275 0.75832 0.0
N80 N 0.83379 0.21063 0.76731 0.0
C81 C 0.47295 0.43453 0.91628 0.0
C82 C 0.69466 0.49638 0.94591 0.0
C83 C 0.59151 0.4656 0.98591 0.0
C84 C 0.48029 0.4322 0.9701 0.0
C85 C 0.68377 0.49548 0.89226 0.0
N86 N 0.57201 0.47114 0.87815 0.0
H87 H 0.38542 0.41027 0.90546 0.0
H88 H 0.7662 0.51175 0.86236 0.0
H89 H 0.58191 0.20179 0.85932 0.0
H90 H 0.80124 0.3802 0.72726 0.0
O91 O 0.40899 0.35359 0.81304 0.0
O92 O 0.50727 0.4307 0.73579 0.0
O93 O 0.70159 0.56964 0.77627 0.0
C94 C 0.42164 0.35683 0.76147 0.0
H95 H 0.28143 0.84355 0.87554 0.0
H96 H 0.78659 0.06733 0.82784 0.0
H97 H 0.78348 0.5211 0.95569 0.0
H98 H 0.39928 0.40297 0.99886 0.0
Co99 Co 0.63984 0.46469 0.22541 0.0
C100 C 0.78598 0.67925 0.25493 0.0
C101 C 0.79195 0.677 0.17069 0.0
C102 C 0.86113 0.77682 0.1822 0.0
N103 N 0.74652 0.61325 0.21608 0.0
N104 N 0.85706 0.77827 0.23506 0.0
H105 H 0.76541 0.6541 0.29673 0.0
H106 H 0.77503 0.65686 0.13149 0.0
C107 C 0.44798 0.67389 0.24083 0.0
O108 O 0.51014 0.74073 0.20134 0.0
N109 N 0.53092 0.32205 0.23561 0.0
C110 C 0.53628 0.22097 0.20395 0.0
C111 C 0.42963 0.15189 0.22026 0.0
C112 C 0.42252 0.31275 0.27107 0.0
N113 N 0.35794 0.21063 0.26207 0.0
C114 C 0.71879 0.43453 0.11311 0.0
C115 C 0.49707 0.49638 0.08348 0.0
C116 C 0.60022 0.4656 0.04348 0.0
C117 C 0.71144 0.4322 0.05929 0.0
C118 C 0.50796 0.49548 0.13713 0.0
N119 N 0.61972 0.47114 0.15123 0.0
H120 H 0.80631 0.41027 0.12393 0.0
H121 H 0.42553 0.51175 0.16702 0.0
H122 H 0.60982 0.20179 0.17007 0.0
H123 H 0.3905 0.3802 0.30213 0.0
O124 O 0.78274 0.35359 0.21634 0.0
O125 O 0.68446 0.4307 0.29359 0.0
O126 O 0.49014 0.56964 0.25312 0.0
C127 C 0.77009 0.35682 0.26792 0.0
H128 H 0.9103 0.84354 0.15384 0.0
H129 H 0.40514 0.06733 0.20155 0.0
H130 H 0.40826 0.5211 0.07369 0.0
H131 H 0.79245 0.40297 0.03052 0.0
loop_
_geom_bond_atom_site_label_1
_geom_bond_atom_site_label_2
_geom_bond_distance
_geom_bond_site_symmetry_2
_ccdc_geom_bond_type
Co0 N4 2.148 1_465 S
Co0 N10 2.128 . S
Co0 N20 2.194 1_565 S
Co0 O25 2.351 1_455 S
Co0 O26 2.155 1_455 S
Co0 O27 2.096 1_565 S
C1 N4 1.301 . S
C1 N5 1.328 . S
C1 H6 0.930 . S
C2 C3 1.333 . S
C2 N4 1.317 . S
C2 H7 0.930 . S
C3 C2 1.333 . S
C3 N5 1.350 . S
C3 H29 0.931 . S
N4 Co0 2.148 1_645 S
N4 C1 1.301 . S
N4 C2 1.317 . S
N5 C1 1.328 . S
N5 C3 1.350 . S
H6 C1 0.930 . S
H7 C2 0.930 . S
C8 O9 1.224 . S
C8 O27 1.247 . S
O9 C8 1.224 . S
N10 Co0 2.128 . S
N10 C11 1.355 . S
N10 C13 1.311 . S
C11 N10 1.355 . S
C11 C12 1.363 . S
C11 H23 0.929 . S
C12 C11 1.363 . S
C12 N14 1.375 . S
C12 H30 0.931 . S
C13 N10 1.311 . S
C13 N14 1.347 . S
C13 H24 0.929 . S
N14 C12 1.375 . S
N14 C13 1.347 . S
C15 C18 1.365 . S
C15 N20 1.328 1_665 S
C15 H21 0.929 . S
C16 C17 1.362 . S
C16 C19 1.378 . S
C16 H31 0.929 . S
C17 C16 1.362 . S
C17 C18 1.366 1_445 S
C18 C15 1.365 . S
C18 C17 1.366 1_665 S
C18 H32 0.930 . S
C19 C16 1.378 . S
C19 N20 1.315 . S
C19 H22 0.930 . S
N20 Co0 2.194 1_545 S
N20 C15 1.328 1_445 S
N20 C19 1.315 . S
H21 C15 0.929 . S
H22 C19 0.930 . S
H23 C11 0.929 . S
H24 C13 0.929 . S
O25 Co0 2.351 1_655 S
O25 C28 1.244 . S
O26 Co0 2.155 1_655 S
O26 C28 1.240 . S
O27 Co0 2.096 1_545 S
O27 C8 1.247 . S
C28 O25 1.244 . S
C28 O26 1.240 . S
H29 C3 0.931 . S
H30 C12 0.931 . S
H31 C16 0.929 . S
H32 C18 0.930 . S
Co33 N37 2.148 1_565 S
Co33 N43 2.128 1_455 S
Co33 N53 2.194 1_565 S
Co33 O58 2.351 . S
Co33 O59 2.155 . S
Co33 O60 2.096 1_465 S
C34 N37 1.301 . S
C34 N38 1.328 . S
C34 H39 0.930 . S
C35 C36 1.333 . S
C35 N37 1.317 . S
C35 H40 0.930 . S
C36 C35 1.333 . S
C36 N38 1.350 . S
C36 H62 0.931 . S
N37 Co33 2.148 1_545 S
N37 C34 1.301 . S
N37 C35 1.317 . S
N38 C34 1.328 . S
N38 C36 1.350 . S
H39 C34 0.930 . S
H40 C35 0.930 . S
C41 O42 1.224 . S
C41 O60 1.247 . S
O42 C41 1.224 . S
N43 Co33 2.128 1_655 S
N43 C44 1.355 . S
N43 C46 1.311 . S
C44 N43 1.355 . S
C44 C45 1.363 . S
C44 H56 0.929 . S
C45 C44 1.363 . S
C45 N47 1.375 . S
C45 H63 0.931 . S
C46 N43 1.311 . S
C46 N47 1.347 . S
C46 H57 0.929 . S
N47 C45 1.375 . S
N47 C46 1.347 . S
C48 C51 1.365 . S
C48 N53 1.328 1_565 S
C48 H54 0.929 . S
C49 C50 1.362 1_655 S
C49 C52 1.378 . S
C49 H64 0.929 . S
C50 C49 1.362 1_455 S
C50 C51 1.366 1_545 S
C51 C48 1.365 . S
C51 C50 1.366 1_565 S
C51 H65 0.930 . S
C52 C49 1.378 . S
C52 N53 1.315 1_655 S
C52 H55 0.930 . S
N53 Co33 2.194 1_545 S
N53 C48 1.328 1_545 S
N53 C52 1.315 1_455 S
H54 C48 0.929 . S
H55 C52 0.930 . S
H56 C44 0.929 . S
H57 C46 0.929 . S
O58 Co33 2.351 . S
O58 C61 1.244 . S
O59 Co33 2.155 . S
O59 C61 1.240 . S
O60 Co33 2.096 1_645 S
O60 C41 1.247 . S
C61 O58 1.244 . S
C61 O59 1.240 . S
H62 C36 0.931 . S
H63 C45 0.931 . S
H64 C49 0.929 . S
H65 C51 0.930 . S
Co66 N70 2.148 . S
Co66 N76 2.128 . S
Co66 N86 2.194 . S
Co66 O91 2.351 . S
Co66 O92 2.155 . S
Co66 O93 2.096 . S
C67 N70 1.301 . S
C67 N71 1.328 . S
C67 H72 0.930 . S
C68 C69 1.333 . S
C68 N70 1.317 . S
C68 H73 0.930 . S
C69 C68 1.333 . S
C69 N71 1.350 . S
C69 H95 0.931 . S
N70 Co66 2.148 . S
N70 C67 1.301 . S
N70 C68 1.317 . S
N71 C67 1.328 . S
N71 C69 1.350 . S
H72 C67 0.930 . S
H73 C68 0.930 . S
C74 O75 1.224 . S
C74 O93 1.247 . S
O75 C74 1.224 . S
N76 Co66 2.128 . S
N76 C77 1.355 . S
N76 C79 1.311 . S
C77 N76 1.355 . S
C77 C78 1.363 . S
C77 H89 0.929 . S
C78 C77 1.363 . S
C78 N80 1.375 . S
C78 H96 0.931 . S
C79 N76 1.311 . S
C79 N80 1.347 . S
C79 H90 0.929 . S
N80 C78 1.375 . S
N80 C79 1.347 . S
C81 C84 1.365 . S
C81 N86 1.328 . S
C81 H87 0.929 . S
C82 C83 1.362 . S
C82 C85 1.378 . S
C82 H97 0.929 . S
C83 C82 1.362 . S
C83 C84 1.366 . S
C84 C81 1.365 . S
C84 C83 1.366 . S
C84 H98 0.930 . S
C85 C82 1.378 . S
C85 N86 1.315 . S
C85 H88 0.930 . S
N86 Co66 2.194 . S
N86 C81 1.328 . S
N86 C85 1.315 . S
H87 C81 0.929 . S
H88 C85 0.930 . S
H89 C77 0.929 . S
H90 C79 0.929 . S
O91 Co66 2.351 . S
O91 C94 1.244 . S
O92 Co66 2.155 . S
O92 C94 1.240 . S
O93 Co66 2.096 . S
O93 C74 1.247 . S
C94 O91 1.244 . S
C94 O92 1.240 . S
H95 C69 0.931 . S
H96 C78 0.931 . S
H97 C82 0.929 . S
H98 C84 0.930 . S
Co99 N103 2.148 . S
Co99 N109 2.128 . S
Co99 N119 2.194 . S
Co99 O124 2.351 . S
Co99 O125 2.155 . S
Co99 O126 2.096 . S
C100 N103 1.301 . S
C100 N104 1.328 . S
C100 H105 0.930 . S
C101 C102 1.333 . S
C101 N103 1.317 . S
C101 H106 0.930 . S
C102 C101 1.333 . S
C102 N104 1.350 . S
C102 H128 0.931 . S
N103 Co99 2.148 . S
N103 C100 1.301 . S
N103 C101 1.317 . S
N104 C100 1.328 . S
N104 C102 1.350 . S
H105 C100 0.930 . S
H106 C101 0.930 . S
C107 O108 1.224 . S
C107 O126 1.247 . S
O108 C107 1.224 . S
N109 Co99 2.128 . S
N109 C110 1.355 . S
N109 C112 1.311 . S
C110 N109 1.355 . S
C110 C111 1.363 . S
C110 H122 0.929 . S
C111 C110 1.363 . S
C111 N113 1.375 . S
C111 H129 0.931 . S
C112 N109 1.311 . S
C112 N113 1.347 . S
C112 H123 0.929 . S
N113 C111 1.375 . S
N113 C112 1.347 . S
C114 C117 1.365 . S
C114 N119 1.328 . S
C114 H120 0.929 . S
C115 C116 1.362 . S
C115 C118 1.378 . S
C115 H130 0.929 . S
C116 C115 1.362 . S
C116 C117 1.366 . S
C117 C114 1.365 . S
C117 C116 1.366 . S
C117 H131 0.930 . S
C118 C115 1.378 . S
C118 N119 1.315 . S
C118 H121 0.930 . S
N119 Co99 2.194 . S
N119 C114 1.328 . S
N119 C118 1.315 . S
H120 C114 0.929 . S
H121 C118 0.930 . S
H122 C110 0.929 . S
H123 C112 0.929 . S
O124 Co99 2.351 . S
O124 C127 1.244 . S
O125 Co99 2.155 . S
O125 C127 1.240 . S
O126 Co99 2.096 . S
O126 C107 1.247 . S
C127 O124 1.244 . S
C127 O125 1.240 . S
H128 C102 0.931 . S
H129 C111 0.931 . S
H130 C115 0.929 . S
H131 C117 0.930 . S
C17 C50 1.489 . S
C116 C83 1.489 1_554 S
C8 N113 1.604 . S
N5 C127 1.461 . S
N104 C28 1.462 . S
N14 C107 1.605 . S
N71 C61 1.462 . S
N38 C94 1.461 . S
C41 N80 1.604 . S
C74 N47 1.605 . S
