# Generated by pormake.
# Topology unc, (4)-cn, num edge types: 1
# Building blocks:
#     Node 0, Type 0, BuildingBlock: QUQFOY_clean_sbu_3, # of connection points: 4
#     Node 1, Type 0, BuildingBlock: QUQFOY_clean_sbu_3, # of connection points: 4
#     Node 2, Type 0, BuildingBlock: QUQFOY_clean_sbu_3, # of connection points: 4
#     Node 3, Type 0, BuildingBlock: QUQFOY_clean_sbu_3, # of connection points: 4
#     Edge 4, Type (0, 0), None
#     Edge 5, Type (0, 0), None
#     Edge 6, Type (0, 0), None
#     Edge 7, Type (0, 0), None
#     Edge 8, Type (0, 0), None
#     Edge 9, Type (0, 0), None
#     Edge 10, Type (0, 0), None
#     Edge 11, Type (0, 0), None
# Relax obj value: 0.006
# Max RMSD: 0.043
# Mean RMSD: 0.043
data_MOF--net-unc--node1-QUQFOY_clean_sbu_3--edge1-none
_symmetry_space_group_name_H-M    P1
_symmetry_Int_Tables_number       1
_symmetry_cell_setting            triclinic
loop_
_symmetry_equiv_pos_as_xyz
'x, y, z'
_cell_length_a     15.20113
_cell_length_b     15.200824
_cell_length_c     11.075191
_cell_angle_alpha  89.999841
_cell_angle_beta   89.999447
_cell_angle_gamma 97.917309
loop_
_atom_site_label
_atom_site_type_symbol
_atom_site_fract_x
_atom_site_fract_y
_atom_site_fract_z
_atom_type_partial_charge
C0 C 0.03593 0.53096 0.77282 0.0
O1 O 0.11594 0.53949 0.80811 0.0
Cd2 Cd 0.15064 0.62312 -0.01041 0.0
O3 O -0.01962 0.57446 0.82334 0.0
Cd4 Cd -0.02791 0.69043 -0.0223 0.0
C5 C -0.02039 0.52927 0.17554 0.0
O6 O 0.12165 0.77482 -0.02556 0.0
O7 O 0.04893 0.77694 0.14227 0.0
O8 O 0.903 0.76315 0.81302 0.0
C9 C 0.11511 0.80819 0.07861 0.0
O10 O 0.0616 0.53943 0.14696 0.0
C11 C 0.84478 0.79235 0.87788 0.0
O12 O 0.92537 0.57343 0.12311 0.0
O13 O 0.84408 0.77331 -0.01034 0.0
C14 C 0.46057 0.9556 0.43212 0.0
O15 O 0.45205 0.87559 0.39684 0.0
Cd16 Cd 0.36842 0.84089 0.21535 0.0
O17 O 0.41708 0.01116 0.38161 0.0
Cd18 Cd 0.30112 0.01945 0.22724 0.0
C19 C 0.46228 0.01193 0.02941 0.0
O20 O 0.21672 0.86988 0.23048 0.0
O21 O 0.21461 0.94261 0.06265 0.0
O22 O 0.22838 0.08853 0.39192 0.0
C23 C 0.18337 0.87643 0.1263 0.0
O24 O 0.45212 0.92994 0.05798 0.0
C25 C 0.19919 0.14675 0.32706 0.0
O26 O 0.41811 0.06617 0.08184 0.0
O27 O 0.21824 0.14746 0.21528 0.0
C28 C 0.94904 0.46715 0.27282 0.0
O29 O 0.86903 0.45863 0.30811 0.0
Cd30 Cd 0.83432 0.37499 0.4896 0.0
O31 O 0.00459 0.42365 0.32333 0.0
Cd32 Cd 0.01288 0.30769 0.4777 0.0
C33 C 0.00536 0.46885 0.67554 0.0
O34 O 0.86332 0.22329 0.47444 0.0
O35 O 0.93603 0.22118 0.64228 0.0
O36 O 0.08197 0.23496 0.31302 0.0
C37 C 0.86986 0.18992 0.57861 0.0
O38 O 0.92337 0.45869 0.64697 0.0
C39 C 0.14018 0.20575 0.3779 0.0
O40 O 0.0596 0.42468 0.62311 0.0
O41 O 0.14088 0.2248 0.48967 0.0
C42 C 0.52439 0.0425 0.93212 0.0
O43 O 0.53292 0.12251 0.89683 0.0
Cd44 Cd 0.61655 0.15722 0.71534 0.0
O45 O 0.56789 -0.01305 0.88161 0.0
Cd46 Cd 0.68385 -0.02134 0.72724 0.0
C47 C 0.52269 -0.01382 0.52941 0.0
O48 O 0.76824 0.12823 0.73048 0.0
O49 O 0.77035 0.0555 0.56265 0.0
O50 O 0.75659 0.90958 0.89191 0.0
C51 C 0.8016 0.12168 0.6263 0.0
O52 O 0.53285 0.06817 0.55798 0.0
C53 C 0.78578 0.85136 0.82704 0.0
O54 O 0.56685 0.93194 0.58183 0.0
O55 O 0.76673 0.85065 0.71527 0.0
loop_
_geom_bond_atom_site_label_1
_geom_bond_atom_site_label_2
_geom_bond_distance
_geom_bond_site_symmetry_2
_ccdc_geom_bond_type
C0 O1 1.306 . S
C0 O3 1.160 1_455 S
O1 C0 1.306 . S
O1 Cd2 2.228 1_556 S
Cd2 O1 2.228 1_554 S
Cd2 O6 2.273 . S
Cd2 O10 2.277 . S
O3 C0 1.160 1_655 S
O3 Cd4 2.203 1_656 S
Cd4 O3 2.203 1_454 S
Cd4 O6 2.411 . S
Cd4 O7 2.333 . S
Cd4 O8 2.352 1_454 S
Cd4 O12 2.277 1_455 S
Cd4 O13 2.356 1_455 S
C5 O10 1.209 . S
C5 O12 1.226 1_455 S
O6 Cd2 2.273 . S
O6 Cd4 2.411 . S
O6 C9 1.320 . S
O7 Cd4 2.333 . S
O7 C9 1.214 . S
O8 Cd4 2.352 1_656 S
O8 C11 1.258 . S
C9 O6 1.320 . S
C9 O7 1.214 . S
O10 Cd2 2.277 . S
O10 C5 1.209 . S
C11 O8 1.258 . S
C11 O13 1.282 1_556 S
O12 Cd4 2.277 1_655 S
O12 C5 1.226 1_655 S
O13 Cd4 2.356 1_655 S
O13 C11 1.282 1_554 S
C14 O15 1.306 1_545 S
C14 O17 1.160 . S
O15 C14 1.306 1_565 S
O15 Cd16 2.228 . S
Cd16 O15 2.228 . S
Cd16 O20 2.273 . S
Cd16 O24 2.277 . S
O17 C14 1.160 . S
O17 Cd18 2.203 . S
Cd18 O17 2.203 . S
Cd18 O20 2.411 1_545 S
Cd18 O21 2.333 1_545 S
Cd18 O22 2.352 . S
Cd18 O26 2.277 . S
Cd18 O27 2.356 . S
C19 O24 1.209 1_545 S
C19 O26 1.226 . S
O20 Cd16 2.273 . S
O20 Cd18 2.411 1_565 S
O20 C23 1.320 . S
O21 Cd18 2.333 1_565 S
O21 C23 1.214 . S
O22 Cd18 2.352 . S
O22 C25 1.258 . S
C23 O20 1.320 . S
C23 O21 1.214 . S
O24 Cd16 2.277 . S
O24 C19 1.209 1_565 S
C25 O22 1.258 . S
C25 O27 1.282 . S
O26 Cd18 2.277 . S
O26 C19 1.226 . S
O27 Cd18 2.356 . S
O27 C25 1.282 . S
C28 O29 1.306 1_455 S
C28 O31 1.160 . S
O29 C28 1.306 1_655 S
O29 Cd30 2.228 . S
Cd30 O29 2.228 . S
Cd30 O34 2.273 . S
Cd30 O38 2.277 . S
O31 C28 1.160 . S
O31 Cd32 2.203 . S
Cd32 O31 2.203 . S
Cd32 O34 2.411 1_455 S
Cd32 O35 2.333 1_455 S
Cd32 O36 2.352 . S
Cd32 O40 2.277 . S
Cd32 O41 2.356 . S
C33 O38 1.209 1_455 S
C33 O40 1.226 . S
O34 Cd30 2.273 . S
O34 Cd32 2.411 1_655 S
O34 C37 1.320 . S
O35 Cd32 2.333 1_655 S
O35 C37 1.214 . S
O36 Cd32 2.352 . S
O36 C39 1.258 . S
C37 O34 1.320 . S
C37 O35 1.214 . S
O38 Cd30 2.277 . S
O38 C33 1.209 1_655 S
C39 O36 1.258 . S
C39 O41 1.282 . S
O40 Cd32 2.277 . S
O40 C33 1.226 . S
O41 Cd32 2.356 . S
O41 C39 1.282 . S
C42 O43 1.306 . S
C42 O45 1.160 1_545 S
O43 C42 1.306 . S
O43 Cd44 2.228 . S
Cd44 O43 2.228 . S
Cd44 O48 2.273 . S
Cd44 O52 2.277 . S
O45 C42 1.160 1_565 S
O45 Cd46 2.203 1_565 S
Cd46 O45 2.203 1_545 S
Cd46 O48 2.411 . S
Cd46 O49 2.333 . S
Cd46 O50 2.352 1_545 S
Cd46 O54 2.277 1_545 S
Cd46 O55 2.356 1_545 S
C47 O52 1.209 . S
C47 O54 1.226 1_545 S
O48 Cd44 2.273 . S
O48 Cd46 2.411 . S
O48 C51 1.320 . S
O49 Cd46 2.333 . S
O49 C51 1.214 . S
O50 Cd46 2.352 1_565 S
O50 C53 1.258 . S
C51 O48 1.320 . S
C51 O49 1.214 . S
O52 Cd44 2.277 . S
O52 C47 1.209 . S
C53 O50 1.258 . S
C53 O55 1.282 . S
O54 Cd46 2.277 1_565 S
O54 C47 1.226 1_565 S
O55 Cd46 2.356 1_565 S
O55 C53 1.282 . S
C5 C28 1.420 . S
C14 C47 1.420 . S
C0 C33 1.420 . S
C19 C42 1.420 1_554 S
C23 C9 1.461 . S
C25 C39 1.516 . S
C51 C37 1.461 . S
C53 C11 1.516 . S
