# Generated by pormake.
# Topology pcu, (6)-cn, num edge types: 1
# Building blocks:
#     Node 0, Type 0, BuildingBlock: BETDEL_clean_sbu_0, # of connection points: 6
#     Edge 1, Type (0, 0), BuildingBlock: EZIPEK_clean_linker_0, # of connection points: 2
#     Edge 2, Type (0, 0), BuildingBlock: EZIPEK_clean_linker_0, # of connection points: 2
#     Edge 3, Type (0, 0), BuildingBlock: EZIPEK_clean_linker_0, # of connection points: 2
# Relax obj value: 0.000
# Max RMSD: 0.000
# Mean RMSD: 0.000
data_MOF--net-pcu--node1-BETDEL_clean_sbu_0--edge1-EZIPEK_clean_linker_0
_symmetry_space_group_name_H-M    P1
_symmetry_Int_Tables_number       1
_symmetry_cell_setting            triclinic
loop_
_symmetry_equiv_pos_as_xyz
'x, y, z'
_cell_length_a     11.30322
_cell_length_b     13.947085
_cell_length_c     10.449459
_cell_angle_alpha  99.02559
_cell_angle_beta   87.680748
_cell_angle_gamma 108.22474
loop_
_atom_site_label
_atom_site_type_symbol
_atom_site_fract_x
_atom_site_fract_y
_atom_site_fract_z
_atom_type_partial_charge
Dy0 Dy 0.01533 0.09731 0.03395 0.0
C1 C 0.92324 0.66833 1.01649 0.0
C2 C 0.04517 0.2962 0.01763 0.0
Dy3 Dy 0.95374 0.86718 0.9997 0.0
O4 O 0.04769 0.26033 0.12431 0.0
O5 O 0.03566 0.22489 0.91903 0.0
O6 O 0.93414 0.09555 0.23281 0.0
O7 O 0.02434 -0.01116 0.16106 0.0
C8 C 0.96188 0.01609 0.25429 0.0
C9 C 0.0079 0.94908 0.7796 0.0
O10 O 0.76017 0.88013 0.02944 0.0
O11 O 0.81238 0.0488 0.99488 0.0
O12 O 0.92095 0.70407 0.90964 0.0
O13 O 0.93277 0.73976 0.11498 0.0
O14 O 0.03651 0.87006 0.80133 0.0
O15 O 0.94462 0.97546 0.8726 0.0
O16 O 0.20924 0.08448 1.00601 0.0
O17 O 0.15648 0.91528 0.03874 0.0
C18 C 0.72954 0.96219 1.01447 0.0
C19 C 0.23966 0.00219 0.02074 0.0
C20 C 0.06955 0.06864 0.47037 0.0
C21 C 0.97482 -0.00256 0.38782 0.0
C22 C 0.90054 0.8954 0.56301 0.0
C23 C -0.00541 0.9673 0.64589 0.0
N24 N 0.15617 0.12904 0.6875 0.0
N25 N 0.81007 0.83759 0.34679 0.0
C26 C 0.07573 0.05577 0.60199 0.0
C27 C 0.89287 0.90928 0.43183 0.0
N28 N 0.15738 0.1458 0.42093 0.0
N29 N 0.81506 0.81651 0.61183 0.0
H30 H 0.80018 0.84688 0.25139 0.0
H31 H 0.75642 0.76616 0.36671 0.0
H32 H 0.81706 0.80386 0.70732 0.0
H33 H 0.73628 0.76721 0.56186 0.0
H34 H 0.23719 0.19328 0.47099 0.0
H35 H 0.1567 0.15778 0.32499 0.0
H36 H 0.20779 0.20088 0.66695 0.0
H37 H 0.16473 0.121 0.78367 0.0
C38 C 0.43198 -0.00826 0.90179 0.0
C39 C 0.37063 0.00367 0.02159 0.0
C40 C 0.54086 0.97839 0.13679 0.0
C41 C 0.59862 0.96077 1.01623 0.0
N42 N 0.59606 0.93858 0.78331 0.0
N43 N 0.35724 -0.00161 0.25149 0.0
C44 C 0.54322 0.96426 0.89842 0.0
C45 C 0.42254 -0.00587 0.1387 0.0
N46 N 0.38333 0.00637 0.79143 0.0
N47 N 0.60169 -0.01565 0.24967 0.0
H48 H 0.27457 0.01709 0.25854 0.0
H49 H 0.38138 0.9788 0.33664 0.0
H50 H 0.68615 0.96931 0.25192 0.0
H51 H 0.57253 0.00962 0.34089 0.0
H52 H 0.42877 0.00899 0.70288 0.0
H53 H 0.29965 0.02265 0.78998 0.0
H54 H 0.5559 0.93041 0.69284 0.0
H55 H 0.67701 0.9174 0.77843 0.0
C56 C 0.86692 0.47833 0.96694 0.0
C57 C 0.95238 0.57278 0.02106 0.0
C58 C 0.10138 0.48619 0.06751 0.0
C59 C 0.01592 0.39174 1.01334 0.0
N60 N 0.8075 0.29389 0.93597 0.0
N61 N 0.16074 0.67062 0.09871 0.0
C62 C 0.89644 0.38663 0.96816 0.0
C63 C 0.07184 0.57789 0.06635 0.0
N64 N 0.7582 0.47659 0.91205 0.0
N65 N 0.21012 0.4879 0.12235 0.0
H66 H 0.14537 0.74011 0.0972 0.0
H67 H 0.25377 0.67977 0.11678 0.0
H68 H 0.23923 0.42342 0.11697 0.0
H69 H 0.26841 0.55157 0.17992 0.0
H70 H 0.69992 0.41291 0.8545 0.0
H71 H 0.72909 0.54108 0.91738 0.0
H72 H 0.71446 0.28477 0.91794 0.0
H73 H 0.82285 0.22442 0.93767 0.0
loop_
_geom_bond_atom_site_label_1
_geom_bond_atom_site_label_2
_geom_bond_distance
_geom_bond_site_symmetry_2
_ccdc_geom_bond_type
Dy0 O4 2.398 . S
Dy0 O5 2.491 1_554 S
Dy0 O6 2.403 . S
Dy0 O7 2.664 1_545 S
Dy0 O11 2.326 1_455 S
Dy0 O15 2.309 1_454 S
Dy0 O16 2.351 . S
C1 O12 1.185 . S
C1 O13 1.355 1_556 S
C2 O4 1.185 . S
C2 O5 1.355 1_554 S
Dy3 O7 2.310 1_656 S
Dy3 O10 2.351 . S
Dy3 O12 2.398 . S
Dy3 O13 2.491 1_556 S
Dy3 O14 2.403 . S
Dy3 O15 2.663 1_565 S
Dy3 O17 2.326 1_655 S
O4 Dy0 2.398 . S
O4 C2 1.185 . S
O5 Dy0 2.491 1_556 S
O5 C2 1.355 1_556 S
O6 Dy0 2.403 . S
O6 C8 1.254 . S
O7 Dy0 2.664 1_565 S
O7 Dy3 2.310 1_454 S
O7 C8 1.268 1_565 S
C8 O6 1.254 . S
C8 O7 1.268 1_545 S
C9 O14 1.254 . S
C9 O15 1.267 1_565 S
O10 Dy3 2.351 . S
O10 C18 1.249 1_556 S
O11 Dy0 2.326 1_655 S
O11 C18 1.267 1_545 S
O12 C1 1.185 . S
O12 Dy3 2.398 . S
O13 C1 1.355 1_554 S
O13 Dy3 2.491 1_554 S
O14 Dy3 2.403 . S
O14 C9 1.254 . S
O15 Dy0 2.309 1_656 S
O15 Dy3 2.663 1_545 S
O15 C9 1.267 1_545 S
O16 Dy0 2.351 . S
O16 C19 1.249 1_554 S
O17 Dy3 2.326 1_455 S
O17 C19 1.267 1_565 S
C18 O10 1.249 1_554 S
C18 O11 1.267 1_565 S
C19 O16 1.249 1_556 S
C19 O17 1.267 1_545 S
C20 C21 1.363 . S
C20 C26 1.379 . S
C20 N28 1.356 . S
C21 C20 1.363 . S
C21 C27 1.363 1_445 S
C22 C23 1.363 1_665 S
C22 C27 1.379 . S
C22 N29 1.356 . S
C23 C22 1.363 1_445 S
C23 C26 1.363 . S
N24 C26 1.356 . S
N24 H36 0.984 . S
N24 H37 0.985 . S
N25 C27 1.356 . S
N25 H30 0.984 . S
N25 H31 0.985 . S
C26 C20 1.379 . S
C26 C23 1.363 . S
C26 N24 1.356 . S
C27 C21 1.363 1_665 S
C27 C22 1.379 . S
C27 N25 1.356 . S
N28 C20 1.356 . S
N28 H34 0.984 . S
N28 H35 0.984 . S
N29 C22 1.356 . S
N29 H32 0.984 . S
N29 H33 0.985 . S
H30 N25 0.984 . S
H31 N25 0.985 . S
H32 N29 0.984 . S
H33 N29 0.985 . S
H34 N28 0.984 . S
H35 N28 0.984 . S
H36 N24 0.984 . S
H37 N24 0.985 . S
C38 C39 1.363 1_566 S
C38 C44 1.379 . S
C38 N46 1.356 . S
C39 C38 1.363 1_544 S
C39 C45 1.363 . S
C40 C41 1.363 . S
C40 C45 1.379 . S
C40 N47 1.356 . S
C41 C40 1.363 . S
C41 C44 1.363 1_544 S
N42 C44 1.356 . S
N42 H54 0.984 . S
N42 H55 0.985 . S
N43 C45 1.356 . S
N43 H48 0.984 . S
N43 H49 0.985 . S
C44 C38 1.379 . S
C44 C41 1.363 1_566 S
C44 N42 1.356 . S
C45 C39 1.363 . S
C45 C40 1.379 . S
C45 N43 1.356 . S
N46 C38 1.356 . S
N46 H52 0.984 . S
N46 H53 0.984 . S
N47 C40 1.356 . S
N47 H50 0.984 . S
N47 H51 0.985 . S
H48 N43 0.984 . S
H49 N43 0.985 . S
H50 N47 0.984 . S
H51 N47 0.985 . S
H52 N46 0.984 . S
H53 N46 0.984 . S
H54 N42 0.984 . S
H55 N42 0.985 . S
C56 C57 1.363 1_656 S
C56 C62 1.379 . S
C56 N64 1.356 . S
C57 C56 1.363 1_454 S
C57 C63 1.363 . S
C58 C59 1.363 . S
C58 C63 1.379 . S
C58 N65 1.356 . S
C59 C58 1.363 . S
C59 C62 1.363 1_454 S
N60 C62 1.356 . S
N60 H72 0.984 . S
N60 H73 0.985 . S
N61 C63 1.356 . S
N61 H66 0.984 . S
N61 H67 0.985 . S
C62 C56 1.379 . S
C62 C59 1.363 1_656 S
C62 N60 1.356 . S
C63 C57 1.363 . S
C63 C58 1.379 . S
C63 N61 1.356 . S
N64 C56 1.356 . S
N64 H70 0.984 . S
N64 H71 0.984 . S
N65 C58 1.356 . S
N65 H68 0.984 . S
N65 H69 0.985 . S
H66 N61 0.984 . S
H67 N61 0.985 . S
H68 N65 0.984 . S
H69 N65 0.985 . S
H70 N64 0.984 . S
H71 N64 0.984 . S
H72 N60 0.984 . S
H73 N60 0.985 . S
C21 C8 1.457 . S
C23 C9 1.457 1_445 S
C39 C19 1.491 1_554 S
C41 C18 1.491 1_545 S
C57 C1 1.482 1_454 S
C59 C2 1.482 . S
