# Generated by pormake.
# Topology hcp, (12)-cn, num edge types: 1
# Building blocks:
#     Node 0, Type 0, BuildingBlock: QEWDON_clean_sbu_0, # of connection points: 12
#     Node 1, Type 0, BuildingBlock: QEWDON_clean_sbu_0, # of connection points: 12
#     Edge 2, Type (0, 0), BuildingBlock: AJUNOK_clean_linker_0, # of connection points: 2
#     Edge 3, Type (0, 0), BuildingBlock: AJUNOK_clean_linker_0, # of connection points: 2
#     Edge 4, Type (0, 0), BuildingBlock: AJUNOK_clean_linker_0, # of connection points: 2
#     Edge 5, Type (0, 0), BuildingBlock: AJUNOK_clean_linker_0, # of connection points: 2
#     Edge 6, Type (0, 0), BuildingBlock: AJUNOK_clean_linker_0, # of connection points: 2
#     Edge 7, Type (0, 0), BuildingBlock: AJUNOK_clean_linker_0, # of connection points: 2
#     Edge 8, Type (0, 0), BuildingBlock: AJUNOK_clean_linker_0, # of connection points: 2
#     Edge 9, Type (0, 0), BuildingBlock: AJUNOK_clean_linker_0, # of connection points: 2
#     Edge 10, Type (0, 0), BuildingBlock: AJUNOK_clean_linker_0, # of connection points: 2
#     Edge 11, Type (0, 0), BuildingBlock: AJUNOK_clean_linker_0, # of connection points: 2
#     Edge 12, Type (0, 0), BuildingBlock: AJUNOK_clean_linker_0, # of connection points: 2
#     Edge 13, Type (0, 0), BuildingBlock: AJUNOK_clean_linker_0, # of connection points: 2
# Relax obj value: 0.198
# Max RMSD: 0.274
# Mean RMSD: 0.274
data_MOF--net-hcp--node1-QEWDON_clean_sbu_0--edge1-AJUNOK_clean_linker_0
_symmetry_space_group_name_H-M    P1
_symmetry_Int_Tables_number       1
_symmetry_cell_setting            triclinic
loop_
_symmetry_equiv_pos_as_xyz
'x, y, z'
_cell_length_a     15.622575
_cell_length_b     14.319974
_cell_length_c     25.509276
_cell_angle_alpha  90.758682
_cell_angle_beta   89.192638
_cell_angle_gamma 122.89692
loop_
_atom_site_label
_atom_site_type_symbol
_atom_site_fract_x
_atom_site_fract_y
_atom_site_fract_z
_atom_type_partial_charge
Zn0 Zn 0.74991 0.21106 0.31128 0.0
Zn1 Zn 0.86034 0.38999 0.21089 0.0
O2 O 0.75108 0.3349 0.26962 0.0
H3 H 0.73303 0.3801 0.28902 0.0
C4 C 0.58705 0.03973 0.2381 0.0
O5 O 0.4897 1.00122 0.24422 0.0
Zn6 Zn 0.53706 0.55653 0.19643 0.0
Zn7 Zn 0.42421 0.3274 0.25916 0.0
O8 O 0.48872 0.39308 0.18776 0.0
H9 H 0.46721 0.35103 0.15535 0.0
Zn10 Zn 0.57891 0.22023 0.19672 0.0
O11 O 0.65779 0.39115 0.19232 0.0
Zn12 Zn 0.66621 0.4256 0.11782 0.0
H13 H 0.71079 0.44734 0.21431 0.0
Zn14 Zn 0.59754 0.4255 0.37396 0.0
O15 O 0.64712 0.48739 0.30503 0.0
H16 H 0.60671 0.45424 0.27405 0.0
Zn17 Zn 0.78724 0.61392 0.31575 0.0
C18 C 0.37396 0.30636 0.39141 0.0
O19 O 0.27915 0.22959 0.37967 0.0
O20 O 0.88734 0.22518 0.299 0.0
O21 O 0.94192 0.32266 0.22461 0.0
O22 O 0.42633 0.45468 0.2974 0.0
O23 O 0.42136 0.551 0.23318 0.0
O24 O 0.52783 0.14139 0.12631 0.0
O25 O 0.60324 0.28824 0.07427 0.0
C26 C 0.95441 0.62353 0.24262 0.0
O27 O 0.7105 0.44146 0.42282 0.0
O28 O 0.83591 0.60187 0.38902 0.0
O29 O 0.29669 0.16508 0.26597 0.0
C30 C 0.95097 0.2684 0.26102 0.0
O31 O 0.66103 0.13148 0.38105 0.0
C32 C 0.5695 0.5727 0.08728 0.0
O33 O 0.64652 0.13835 0.22176 0.0
C34 C 0.37998 0.49139 0.27355 0.0
O35 O 0.44488 0.3035 0.36824 0.0
C36 C 0.85743 0.4531 0.10374 0.0
O37 O 0.96645 0.55572 0.21626 0.0
O38 O 0.87025 0.58434 0.26668 0.0
C39 C 0.5526 0.18367 0.08089 0.0
O40 O 0.54405 0.61357 0.12409 0.0
O41 O 0.60683 0.51589 0.09896 0.0
C42 C 0.71461 0.73152 0.26406 0.0
O43 O 0.81046 0.50174 0.09683 0.0
O44 O 0.81729 0.36664 0.13279 0.0
C45 C 0.80281 0.5247 0.42343 0.0
O46 O 0.78188 0.74947 0.29764 0.0
O47 O 0.66598 0.63788 0.24059 0.0
C48 C 0.29121 0.08969 0.23665 0.0
O49 O 0.36505 0.11751 0.20261 0.0
C50 C 0.59201 0.14531 0.39906 0.0
O51 O 0.57444 0.21241 0.37376 0.0
Zn52 Zn 0.44177 0.52321 0.76495 0.0
Zn53 Zn 0.54834 0.70704 0.6705 0.0
O54 O 0.44148 0.64789 0.72754 0.0
H55 H 0.42191 0.6913 0.74732 0.0
C56 C 0.25732 0.31893 0.69589 0.0
O57 O 0.23221 0.36121 0.73459 0.0
Zn58 Zn 0.23966 0.87443 0.67663 0.0
Zn59 Zn 0.10291 0.6357 0.7238 0.0
O60 O 0.17465 0.7132 0.65615 0.0
H61 H 0.13522 0.69076 0.62446 0.0
Zn62 Zn 0.20613 0.45855 0.635 0.0
O63 O 0.30603 0.61651 0.65863 0.0
Zn64 Zn 0.33246 0.6998 0.59318 0.0
H65 H 0.29059 0.64197 0.69043 0.0
Zn66 Zn 0.32216 0.69914 0.8659 0.0
O67 O 0.33528 0.77548 0.79717 0.0
H68 H 0.28708 0.7392 0.76903 0.0
Zn69 Zn 0.47693 0.91626 0.7916 0.0
C70 C 0.13831 0.54247 0.93081 0.0
O71 O 0.15612 0.46649 0.91565 0.0
O72 O 0.57955 0.54015 0.75527 0.0
O73 O 0.64894 0.67305 0.6948 0.0
O74 O 0.11782 0.76471 0.76829 0.0
O75 O 0.12404 0.87684 0.70827 0.0
O76 O 0.09562 0.4505 0.58395 0.0
O77 O 0.1975 0.62364 0.55454 0.0
C78 C 0.62666 0.93718 0.70214 0.0
O79 O 0.43348 0.81558 0.91291 0.0
O80 O 0.54947 0.94819 0.86029 0.0
O81 O 0.96626 0.47704 0.71929 0.0
C82 C 0.65397 0.60814 0.72628 0.0
O83 O 0.41232 0.50577 0.84486 0.0
C84 C 0.36326 0.92842 0.59199 0.0
O85 O 0.2489 0.3422 0.6488 0.0
C86 C 0.07961 0.81435 0.74785 0.0
O87 O 0.1911 0.63918 0.91122 0.0
C88 C 0.46666 0.6332 0.55563 0.0
O89 O 0.63738 0.87754 0.66856 0.0
O90 O 0.54707 0.89032 0.7309 0.0
C91 C 0.11088 0.5312 0.55523 0.0
O92 O 0.31477 0.96664 0.61414 0.0
O93 O 0.35813 0.84704 0.61454 0.0
C94 C 0.39323 1.02324 0.74783 0.0
O95 O 0.43992 0.7016 0.54894 0.0
O96 O 0.4997 0.62468 0.59964 0.0
C97 C 0.51634 0.90874 0.90596 0.0
O98 O 0.46462 0.04882 0.77927 0.0
O99 O 0.3458 0.92579 0.72869 0.0
C100 C 0.97262 0.39485 0.73081 0.0
O101 O 0.0611 0.41564 0.74653 0.0
C102 C 0.46651 0.59365 0.87192 0.0
O103 O 0.52659 0.6882 0.84763 0.0
C104 C 0.5381 0.95076 0.00145 0.0
C105 C 0.5464 0.98765 0.94975 0.0
C106 C 0.5366 1.01289 0.04388 0.0
C107 C 0.54144 0.11284 0.03586 0.0
H108 H 0.52924 0.87161 0.00894 0.0
H109 H 0.53212 0.98255 0.08317 0.0
S110 S 0.55261 0.23849 0.90777 0.0
N111 N 0.55473 0.12752 0.89286 0.0
N112 N 0.54868 0.24204 0.97239 0.0
C113 C 0.54883 0.14987 0.98438 0.0
C114 C 0.55261 0.08814 0.94141 0.0
C115 C 0.51264 0.51956 0.50094 0.0
C116 C 0.44383 0.55063 0.51383 0.0
C117 C 0.48961 0.44014 0.46149 0.0
C118 C 0.39695 0.38861 0.43383 0.0
H119 H 0.58448 0.55676 0.52135 0.0
H120 H 0.54285 0.41556 0.45467 0.0
S121 S 0.181 0.41954 0.46353 0.0
N122 N 0.27411 0.51238 0.5014 0.0
N123 N 0.228 0.3568 0.43111 0.0
C124 C 0.32444 0.41193 0.45001 0.0
C125 C 0.349 0.49517 0.48869 0.0
C126 C 0.93078 0.3886 0.0348 0.0
C127 C 0.93612 0.47569 0.06396 0.0
C128 C -0.00448 0.41077 -0.00865 0.0
C129 C 0.0677 0.52069 0.9755 0.0
H130 H 0.87387 0.30288 0.04441 0.0
H131 H -0.01203 0.34119 0.96963 0.0
S132 S 0.11506 0.77766 0.04152 0.0
N133 N 0.02078 0.67509 0.07543 0.0
N134 N 0.14303 0.71758 -0.00533 0.0
C135 C 0.07451 0.60831 0.00516 0.0
C136 C 0.00869 0.58552 0.04914 0.0
C137 C 0.4927 0.9593 0.52149 0.0
C138 C 0.41521 0.97328 0.54058 0.0
C139 C 0.54888 1.01373 0.47554 0.0
C140 C 0.53107 0.08598 0.4475 0.0
H141 H 0.51261 0.9094 0.54308 0.0
H142 H 0.60788 1.00061 0.46256 0.0
S143 S 0.33606 0.14943 0.48331 0.0
N144 N 0.32212 0.06107 0.5278 0.0
N145 N 0.42938 0.16737 0.44462 0.0
C146 C 0.45361 0.09979 0.46701 0.0
C147 C 0.39549 0.04266 0.5126 0.0
C148 C 0.472 0.60548 0.02041 0.0
C149 C 0.54606 0.58117 0.03199 0.0
C150 C 0.44402 0.60695 0.96843 0.0
C151 C 0.48907 0.584 0.92654 0.0
H152 H 0.43432 0.62205 0.05169 0.0
H153 H 0.38702 0.62601 0.96103 0.0
S154 S 0.68966 0.52188 0.93477 0.0
N155 N 0.66576 0.53763 -0.00365 0.0
N156 N 0.61173 0.53887 0.89915 0.0
C157 C 0.5627 0.55976 0.93734 0.0
C158 C 0.59159 0.55871 -0.01003 0.0
C159 C 0.98248 0.60227 0.45171 0.0
C160 C 0.87741 0.52609 0.46019 0.0
C161 C 0.05582 0.60055 0.48188 0.0
C162 C 0.02843 0.52285 0.52235 0.0
H163 H 0.00917 0.6632 0.42073 0.0
H164 H 0.13533 0.66121 0.47302 0.0
S165 S 0.76348 0.30901 0.56341 0.0
N166 N 0.74933 0.37246 0.51384 0.0
N167 N 0.88775 0.37016 0.57089 0.0
C168 C 0.92362 0.44675 0.53201 0.0
C169 C 0.84825 0.44836 0.50103 0.0
C170 C 0.57151 0.87453 0.27998 0.0
C171 C 0.62432 0.96549 0.24576 0.0
C172 C 0.60164 0.79918 0.28596 0.0
C173 C 0.68502 0.81198 0.25764 0.0
H174 H 0.50637 0.8614 0.3023 0.0
H175 H 0.55929 0.73027 0.31274 0.0
S176 S 0.84268 0.02825 0.15964 0.0
N177 N 0.76092 0.05968 0.18099 0.0
N178 N 0.81678 0.91725 0.19264 0.0
C179 C 0.73779 0.90115 0.22302 0.0
C180 C 0.70769 0.97832 0.21699 0.0
C181 C 0.91906 0.68229 0.70288 0.0
C182 C 0.969 0.75084 0.74657 0.0
C183 C 0.81334 0.62551 0.6985 0.0
C184 C 0.75544 0.63471 0.73815 0.0
H185 H 0.96246 0.67579 0.67113 0.0
H186 H 0.77738 0.5793 0.66285 0.0
S187 S 0.85041 0.79756 0.86158 0.0
N188 N 0.95385 0.8189 0.83145 0.0
N189 N 0.75399 0.71306 0.82303 0.0
C190 C 0.80406 0.69742 0.78341 0.0
C191 C 0.91166 0.75544 0.78775 0.0
C192 C 0.19556 0.89422 0.20312 0.0
C193 C 0.20371 0.97208 0.24022 0.0
C194 C 0.11498 0.78269 0.20489 0.0
C195 C 0.03818 0.74325 0.24369 0.0
H196 H 0.2518 0.9193 0.17207 0.0
H197 H 0.11297 0.72695 0.1751 0.0
S198 S 0.02868 0.91064 0.3533 0.0
N199 N 0.1305 1.00074 0.31891 0.0
N200 N 0.98004 0.79002 0.32268 0.0
C201 C 0.0463 0.81943 0.28188 0.0
C202 C 0.12865 0.93392 0.28001 0.0
C203 C 0.25672 0.17664 0.75272 0.0
C204 C 0.29441 0.24504 0.70802 0.0
C205 C 0.29009 0.10622 0.76564 0.0
C206 C 0.36378 0.10283 0.73494 0.0
H207 H 0.19956 0.17605 0.77752 0.0
H208 H 0.25723 0.05318 0.79965 0.0
S209 S 0.49719 0.2754 0.61832 0.0
N210 N 0.41577 0.31048 0.63545 0.0
N211 N 0.48023 0.1806 0.66087 0.0
C212 C 0.40532 0.1738 0.69156 0.0
C213 C 0.37011 0.24414 0.67775 0.0
C214 C 0.21115 0.41077 0.31558 0.0
C215 C 0.269 0.41816 0.27186 0.0
C216 C 0.10471 0.3458 0.31412 0.0
C217 C 0.05349 0.29115 0.26766 0.0
H218 H 0.24885 0.46208 0.34955 0.0
H219 H 0.06284 0.3486 0.34769 0.0
S220 S 0.17205 0.278 0.14325 0.0
N221 N 0.26914 0.35635 0.18253 0.0
N222 N 0.06862 0.24269 0.17786 0.0
C223 C 0.11086 0.2938 0.22423 0.0
C224 C 0.21906 0.3562 0.22658 0.0
C225 C 0.7853 0.25399 0.71401 0.0
C226 C 0.8836 0.27762 0.72511 0.0
C227 C 0.70115 0.14364 0.70789 0.0
C228 C 0.71275 0.05325 0.7116 0.0
H229 H 0.77313 0.32114 0.7099 0.0
H230 H 0.62728 0.12911 0.69893 0.0
S231 S 0.95158 0.06766 0.74116 0.0
N232 N -0.01471 0.19867 0.74083 0.0
N233 N 0.82854 0.99352 0.72809 0.0
C234 C 0.80994 0.07536 0.7228 0.0
C235 C 0.89493 0.18685 0.72988 0.0
loop_
_geom_bond_atom_site_label_1
_geom_bond_atom_site_label_2
_geom_bond_distance
_geom_bond_site_symmetry_2
_ccdc_geom_bond_type
Zn0 O2 1.933 . S
Zn0 O20 1.985 . S
Zn0 O31 1.955 . S
Zn1 O2 1.911 . S
Zn1 O21 1.970 1_655 S
Zn1 O37 1.945 1_655 S
Zn1 O44 1.981 . S
O2 Zn0 1.933 . S
O2 Zn1 1.911 . S
O2 H3 0.841 . S
H3 O2 0.841 . S
C4 O5 1.246 . S
C4 O33 1.276 1_545 S
O5 C4 1.246 . S
Zn6 O8 1.911 . S
Zn6 O23 1.970 . S
Zn6 O40 1.945 . S
Zn6 O47 1.981 . S
Zn7 O8 1.933 . S
Zn7 O22 1.985 . S
Zn7 O29 1.955 . S
O8 Zn6 1.911 . S
O8 Zn7 1.933 . S
O8 H9 0.841 . S
H9 O8 0.841 . S
Zn10 O11 1.933 . S
Zn10 O24 1.985 . S
Zn10 O33 1.955 1_545 S
O11 Zn10 1.933 . S
O11 Zn12 1.911 . S
O11 H13 0.841 . S
Zn12 O11 1.911 . S
Zn12 O25 1.970 . S
Zn12 O41 1.981 . S
Zn12 O43 1.945 . S
H13 O11 0.841 . S
Zn14 O15 1.933 . S
Zn14 O27 1.985 . S
Zn14 O35 1.955 . S
O15 Zn14 1.933 . S
O15 H16 0.841 . S
O15 Zn17 1.911 . S
H16 O15 0.841 . S
Zn17 O15 1.911 . S
Zn17 O28 1.970 . S
Zn17 O38 1.981 . S
Zn17 O46 1.945 . S
C18 O19 1.246 . S
C18 O35 1.276 . S
O19 C18 1.246 . S
O20 Zn0 1.985 . S
O20 C30 1.245 . S
O21 Zn1 1.970 1_455 S
O21 C30 1.263 1_455 S
O22 Zn7 1.985 . S
O22 C34 1.245 . S
O23 Zn6 1.970 . S
O23 C34 1.263 . S
O24 Zn10 1.985 . S
O24 C39 1.245 . S
O25 Zn12 1.970 . S
O25 C39 1.263 . S
C26 O37 1.262 1_655 S
C26 O38 1.245 . S
O27 Zn14 1.985 . S
O27 C45 1.245 . S
O28 Zn17 1.970 . S
O28 C45 1.263 . S
O29 Zn7 1.955 . S
O29 C48 1.276 . S
C30 O20 1.245 . S
C30 O21 1.263 1_655 S
O31 Zn0 1.955 . S
O31 C50 1.276 . S
C32 O40 1.262 . S
C32 O41 1.245 . S
O33 C4 1.276 1_565 S
O33 Zn10 1.955 1_565 S
C34 O22 1.245 . S
C34 O23 1.263 . S
O35 Zn14 1.955 . S
O35 C18 1.276 . S
C36 O43 1.262 . S
C36 O44 1.245 . S
O37 Zn1 1.945 1_455 S
O37 C26 1.262 1_455 S
O38 Zn17 1.981 . S
O38 C26 1.245 . S
C39 O24 1.245 . S
C39 O25 1.263 . S
O40 Zn6 1.945 . S
O40 C32 1.262 . S
O41 Zn12 1.981 . S
O41 C32 1.245 . S
C42 O46 1.262 . S
C42 O47 1.245 . S
O43 Zn12 1.945 . S
O43 C36 1.262 . S
O44 Zn1 1.981 . S
O44 C36 1.245 . S
C45 O27 1.245 . S
C45 O28 1.263 . S
O46 Zn17 1.945 . S
O46 C42 1.262 . S
O47 Zn6 1.981 . S
O47 C42 1.245 . S
C48 O29 1.276 . S
C48 O49 1.246 . S
O49 C48 1.246 . S
C50 O31 1.276 . S
C50 O51 1.246 . S
O51 C50 1.246 . S
Zn52 O54 1.933 . S
Zn52 O72 1.985 . S
Zn52 O83 1.955 . S
Zn53 O54 1.911 . S
Zn53 O73 1.970 . S
Zn53 O89 1.945 . S
Zn53 O96 1.981 . S
O54 Zn52 1.933 . S
O54 Zn53 1.911 . S
O54 H55 0.841 . S
H55 O54 0.841 . S
C56 O57 1.246 . S
C56 O85 1.276 . S
O57 C56 1.246 . S
Zn58 O60 1.911 . S
Zn58 O75 1.970 . S
Zn58 O92 1.945 . S
Zn58 O99 1.981 . S
Zn59 O60 1.933 . S
Zn59 O74 1.985 1_455 S
Zn59 O81 1.955 1_455 S
O60 Zn58 1.911 . S
O60 Zn59 1.933 . S
O60 H61 0.841 . S
H61 O60 0.841 . S
Zn62 O63 1.933 . S
Zn62 O76 1.985 . S
Zn62 O85 1.955 . S
O63 Zn62 1.933 . S
O63 Zn64 1.911 . S
O63 H65 0.841 . S
Zn64 O63 1.911 . S
Zn64 O77 1.970 . S
Zn64 O93 1.981 . S
Zn64 O95 1.945 . S
H65 O63 0.841 . S
Zn66 O67 1.933 . S
Zn66 O79 1.985 . S
Zn66 O87 1.955 . S
O67 Zn66 1.933 . S
O67 H68 0.841 . S
O67 Zn69 1.911 . S
H68 O67 0.841 . S
Zn69 O67 1.911 . S
Zn69 O80 1.970 . S
Zn69 O90 1.981 . S
Zn69 O98 1.945 1_565 S
C70 O71 1.246 . S
C70 O87 1.276 . S
O71 C70 1.246 . S
O72 Zn52 1.985 . S
O72 C82 1.245 . S
O73 Zn53 1.970 . S
O73 C82 1.263 . S
O74 Zn59 1.985 1_655 S
O74 C86 1.245 1_655 S
O75 Zn58 1.970 . S
O75 C86 1.263 . S
O76 Zn62 1.985 . S
O76 C91 1.245 . S
O77 Zn64 1.970 . S
O77 C91 1.263 . S
C78 O89 1.262 . S
C78 O90 1.245 . S
O79 Zn66 1.985 . S
O79 C97 1.245 . S
O80 Zn69 1.970 . S
O80 C97 1.263 . S
O81 Zn59 1.955 1_655 S
O81 C100 1.276 1_655 S
C82 O72 1.245 . S
C82 O73 1.263 . S
O83 Zn52 1.955 . S
O83 C102 1.276 . S
C84 O92 1.262 . S
C84 O93 1.245 . S
O85 C56 1.276 . S
O85 Zn62 1.955 . S
C86 O74 1.245 1_455 S
C86 O75 1.263 . S
O87 Zn66 1.955 . S
O87 C70 1.276 . S
C88 O95 1.262 . S
C88 O96 1.245 . S
O89 Zn53 1.945 . S
O89 C78 1.262 . S
O90 Zn69 1.981 . S
O90 C78 1.245 . S
C91 O76 1.245 . S
C91 O77 1.263 . S
O92 Zn58 1.945 . S
O92 C84 1.262 . S
O93 Zn64 1.981 . S
O93 C84 1.245 . S
C94 O98 1.262 . S
C94 O99 1.245 1_545 S
O95 Zn64 1.945 . S
O95 C88 1.262 . S
O96 Zn53 1.981 . S
O96 C88 1.245 . S
C97 O79 1.245 . S
C97 O80 1.263 . S
O98 Zn69 1.945 1_545 S
O98 C94 1.262 . S
O99 Zn58 1.981 . S
O99 C94 1.245 1_565 S
C100 O81 1.276 1_455 S
C100 O101 1.246 . S
O101 C100 1.246 . S
C102 O83 1.276 . S
C102 O103 1.246 . S
O103 C102 1.246 . S
C104 C105 1.369 1_554 S
C104 C106 1.419 . S
C104 H108 0.930 . S
C105 C104 1.369 1_556 S
C105 C114 1.429 1_565 S
C106 C104 1.419 . S
C106 C107 1.363 1_565 S
C106 H109 0.929 . S
C107 C106 1.363 1_545 S
C107 C113 1.428 1_554 S
H108 C104 0.930 . S
H109 C106 0.929 . S
S110 N111 1.613 . S
S110 N112 1.610 . S
N111 S110 1.613 . S
N111 C114 1.350 . S
N112 S110 1.610 . S
N112 C113 1.351 . S
C113 C107 1.428 1_556 S
C113 N112 1.351 . S
C113 C114 1.434 . S
C114 C105 1.429 1_545 S
C114 N111 1.350 . S
C114 C113 1.434 . S
C115 C116 1.369 . S
C115 C117 1.419 . S
C115 H119 0.930 . S
C116 C115 1.369 . S
C116 C125 1.429 . S
C117 C115 1.419 . S
C117 C118 1.363 . S
C117 H120 0.929 . S
C118 C117 1.363 . S
C118 C124 1.428 . S
H119 C115 0.930 . S
H120 C117 0.929 . S
S121 N122 1.613 . S
S121 N123 1.610 . S
N122 S121 1.613 . S
N122 C125 1.350 . S
N123 S121 1.610 . S
N123 C124 1.351 . S
C124 C118 1.428 . S
C124 N123 1.351 . S
C124 C125 1.434 . S
C125 C116 1.429 . S
C125 N122 1.350 . S
C125 C124 1.434 . S
C126 C127 1.369 . S
C126 C128 1.419 1_554 S
C126 H130 0.930 . S
C127 C126 1.369 . S
C127 C136 1.429 1_655 S
C128 C126 1.419 1_556 S
C128 C129 1.363 1_655 S
C128 H131 0.929 . S
C129 C128 1.363 1_455 S
C129 C135 1.428 . S
H130 C126 0.930 . S
H131 C128 0.929 . S
S132 N133 1.613 . S
S132 N134 1.610 1_554 S
N133 S132 1.613 . S
N133 C136 1.350 . S
N134 S132 1.610 1_556 S
N134 C135 1.351 . S
C135 C129 1.428 . S
C135 N134 1.351 . S
C135 C136 1.434 1_556 S
C136 C127 1.429 1_455 S
C136 N133 1.350 . S
C136 C135 1.434 1_554 S
C137 C138 1.369 . S
C137 C139 1.419 . S
C137 H141 0.930 . S
C138 C137 1.369 . S
C138 C147 1.429 1_565 S
C139 C137 1.419 . S
C139 C140 1.363 1_565 S
C139 H142 0.929 . S
C140 C139 1.363 1_545 S
C140 C146 1.428 . S
H141 C137 0.930 . S
H142 C139 0.929 . S
S143 N144 1.613 . S
S143 N145 1.610 . S
N144 S143 1.613 . S
N144 C147 1.350 . S
N145 S143 1.610 . S
N145 C146 1.351 . S
C146 C140 1.428 . S
C146 N145 1.351 . S
C146 C147 1.434 . S
C147 C138 1.429 1_545 S
C147 N144 1.350 . S
C147 C146 1.434 . S
C148 C149 1.369 . S
C148 C150 1.419 . S
C148 H152 0.930 . S
C149 C148 1.369 . S
C149 C158 1.429 1_554 S
C150 C148 1.419 . S
C150 C151 1.363 1_554 S
C150 H153 0.929 . S
C151 C150 1.363 1_556 S
C151 C157 1.428 . S
H152 C148 0.930 . S
H153 C150 0.929 . S
S154 N155 1.613 . S
S154 N156 1.610 . S
N155 S154 1.613 . S
N155 C158 1.350 . S
N156 S154 1.610 . S
N156 C157 1.351 . S
C157 C151 1.428 . S
C157 N156 1.351 . S
C157 C158 1.434 . S
C158 C149 1.429 1_556 S
C158 N155 1.350 . S
C158 C157 1.434 . S
C159 C160 1.369 1_455 S
C159 C161 1.419 . S
C159 H163 0.930 . S
C160 C159 1.369 1_655 S
C160 C169 1.429 . S
C161 C159 1.419 . S
C161 C162 1.363 . S
C161 H164 0.929 . S
C162 C161 1.363 . S
C162 C168 1.428 1_455 S
H163 C159 0.930 . S
H164 C161 0.929 . S
S165 N166 1.613 . S
S165 N167 1.610 . S
N166 S165 1.613 . S
N166 C169 1.350 . S
N167 S165 1.610 . S
N167 C168 1.351 . S
C168 C162 1.428 1_655 S
C168 N167 1.351 . S
C168 C169 1.434 . S
C169 C160 1.429 . S
C169 N166 1.350 . S
C169 C168 1.434 . S
C170 C171 1.369 . S
C170 C172 1.419 . S
C170 H174 0.930 . S
C171 C170 1.369 . S
C171 C180 1.429 . S
C172 C170 1.419 . S
C172 C173 1.363 . S
C172 H175 0.929 . S
C173 C172 1.363 . S
C173 C179 1.428 . S
H174 C170 0.930 . S
H175 C172 0.929 . S
S176 N177 1.613 . S
S176 N178 1.610 1_545 S
N177 S176 1.613 . S
N177 C180 1.350 1_545 S
N178 S176 1.610 1_565 S
N178 C179 1.351 . S
C179 C173 1.428 . S
C179 N178 1.351 . S
C179 C180 1.434 . S
C180 C171 1.429 . S
C180 N177 1.350 1_565 S
C180 C179 1.434 . S
C181 C182 1.369 . S
C181 C183 1.419 . S
C181 H185 0.930 . S
C182 C181 1.369 . S
C182 C191 1.429 . S
C183 C181 1.419 . S
C183 C184 1.363 . S
C183 H186 0.929 . S
C184 C183 1.363 . S
C184 C190 1.428 . S
H185 C181 0.930 . S
H186 C183 0.929 . S
S187 N188 1.613 . S
S187 N189 1.610 . S
N188 S187 1.613 . S
N188 C191 1.350 . S
N189 S187 1.610 . S
N189 C190 1.351 . S
C190 C184 1.428 . S
C190 N189 1.351 . S
C190 C191 1.434 . S
C191 C182 1.429 . S
C191 N188 1.350 . S
C191 C190 1.434 . S
C192 C193 1.369 . S
C192 C194 1.419 . S
C192 H196 0.930 . S
C193 C192 1.369 . S
C193 C202 1.429 . S
C194 C192 1.419 . S
C194 C195 1.363 . S
C194 H197 0.929 . S
C195 C194 1.363 . S
C195 C201 1.428 . S
H196 C192 0.930 . S
H197 C194 0.929 . S
S198 N199 1.613 . S
S198 N200 1.610 . S
N199 S198 1.613 . S
N199 C202 1.350 . S
N200 S198 1.610 . S
N200 C201 1.351 . S
C201 C195 1.428 . S
C201 N200 1.351 . S
C201 C202 1.434 . S
C202 C193 1.429 . S
C202 N199 1.350 . S
C202 C201 1.434 . S
C203 C204 1.369 . S
C203 C205 1.419 . S
C203 H207 0.930 . S
C204 C203 1.369 . S
C204 C213 1.429 . S
C205 C203 1.419 . S
C205 C206 1.363 . S
C205 H208 0.929 . S
C206 C205 1.363 . S
C206 C212 1.428 . S
H207 C203 0.930 . S
H208 C205 0.929 . S
S209 N210 1.613 . S
S209 N211 1.610 . S
N210 S209 1.613 . S
N210 C213 1.350 . S
N211 S209 1.610 . S
N211 C212 1.351 . S
C212 C206 1.428 . S
C212 N211 1.351 . S
C212 C213 1.434 . S
C213 C204 1.429 . S
C213 N210 1.350 . S
C213 C212 1.434 . S
C214 C215 1.369 . S
C214 C216 1.419 . S
C214 H218 0.930 . S
C215 C214 1.369 . S
C215 C224 1.429 . S
C216 C214 1.419 . S
C216 C217 1.363 . S
C216 H219 0.929 . S
C217 C216 1.363 . S
C217 C223 1.428 . S
H218 C214 0.930 . S
H219 C216 0.929 . S
S220 N221 1.613 . S
S220 N222 1.610 . S
N221 S220 1.613 . S
N221 C224 1.350 . S
N222 S220 1.610 . S
N222 C223 1.351 . S
C223 C217 1.428 . S
C223 N222 1.351 . S
C223 C224 1.434 . S
C224 C215 1.429 . S
C224 N221 1.350 . S
C224 C223 1.434 . S
C225 C226 1.369 . S
C225 C227 1.419 . S
C225 H229 0.930 . S
C226 C225 1.369 . S
C226 C235 1.429 . S
C227 C225 1.419 . S
C227 C228 1.363 . S
C227 H230 0.929 . S
C228 C227 1.363 . S
C228 C234 1.428 . S
H229 C225 0.930 . S
H230 C227 0.929 . S
S231 N232 1.613 1_655 S
S231 N233 1.610 1_545 S
N232 S231 1.613 1_455 S
N232 C235 1.350 1_455 S
N233 S231 1.610 1_565 S
N233 C234 1.351 1_565 S
C234 C228 1.428 . S
C234 N233 1.351 1_545 S
C234 C235 1.434 . S
C235 C226 1.429 . S
C235 N232 1.350 1_655 S
C235 C234 1.434 . S
C105 C97 0.855 . S
C107 C39 0.854 . S
C116 C88 2.722 . S
C118 C18 2.700 . S
C127 C36 1.762 . S
C129 C70 1.741 . S
C138 C84 2.877 . S
C140 C50 2.882 . S
C149 C32 1.794 . S
C151 C102 1.767 . S
C160 C45 2.301 . S
C162 C91 2.306 . S
C171 C4 1.428 1_565 S
C173 C42 1.449 . S
C182 C86 0.992 1_655 S
C184 C82 0.972 . S
C193 C48 1.442 1_565 S
C195 C26 1.452 1_455 S
C204 C56 1.428 . S
C206 C94 1.450 . S
C215 C34 0.971 . S
C217 C30 0.987 1_455 S
C226 C100 1.447 1_655 S
C228 C78 1.448 1_545 S
