# Generated by pormake.
# Topology hex, (8)-cn, num edge types: 1
# Building blocks:
#     Node 0, Type 0, BuildingBlock: XADDAJ01_clean_sbu_3, # of connection points: 8
#     Edge 1, Type (0, 0), BuildingBlock: XUDNAN_clean_linker_2, # of connection points: 2
#     Edge 2, Type (0, 0), BuildingBlock: XUDNAN_clean_linker_2, # of connection points: 2
#     Edge 3, Type (0, 0), BuildingBlock: XUDNAN_clean_linker_2, # of connection points: 2
#     Edge 4, Type (0, 0), BuildingBlock: XUDNAN_clean_linker_2, # of connection points: 2
# Relax obj value: 0.035
# Max RMSD: 0.097
# Mean RMSD: 0.097
data_MOF--net-hex--node1-XADDAJ01_clean_sbu_3--edge1-XUDNAN_clean_linker_2
_symmetry_space_group_name_H-M    P1
_symmetry_Int_Tables_number       1
_symmetry_cell_setting            triclinic
loop_
_symmetry_equiv_pos_as_xyz
'x, y, z'
_cell_length_a     21.209637
_cell_length_b     18.22764
_cell_length_c     14.759711
_cell_angle_alpha  110.67057
_cell_angle_beta   103.50507
_cell_angle_gamma 112.7469
loop_
_atom_site_label
_atom_site_type_symbol
_atom_site_fract_x
_atom_site_fract_y
_atom_site_fract_z
_atom_type_partial_charge
C0 C 0.80069 0.851 0.91744 0.0
C1 C 0.78577 0.79696 0.96717 0.0
C2 C 0.72491 0.77926 0.9954 0.0
C3 C 0.67907 0.81443 0.97308 0.0
C4 C 0.69219 0.86606 0.92159 0.0
C5 C 0.75376 0.88574 0.895 0.0
O6 O 1.04543 0.92767 0.10172 0.0
Tb7 Tb 0.98372 0.86768 0.92976 0.0
Tb8 Tb 0.09276 0.10275 0.05108 0.0
O9 O 0.96197 0.73509 0.91095 0.0
O10 O 0.05021 0.06562 0.15762 0.0
O11 O 0.86778 0.79729 0.83242 0.0
C12 C 0.22651 0.13944 0.09842 0.0
O13 O 0.92879 0.94187 0.95587 0.0
O14 O 1.02929 0.02817 0.87914 0.0
O15 O 1.04226 0.90392 0.83546 0.0
C16 C 0.86275 0.86868 0.88425 0.0
C17 C 1.01208 0.20629 0.02839 0.0
O18 O 0.95431 0.12796 0.00226 0.0
C19 C 0.05216 0.00058 0.1757 0.0
C20 C 1.04433 0.97094 0.81895 0.0
O21 O 0.08005 0.21721 0.05768 0.0
C22 C 0.28419 0.15973 0.05598 0.0
C23 C 0.36672 0.11765 0.98848 0.0
C24 C 0.30701 0.09597 0.01899 0.0
C25 C 0.32207 0.24541 0.06164 0.0
C26 C 0.38059 0.26596 0.02858 0.0
C27 C 0.40145 0.20126 0.99109 0.0
C28 C 1.01774 0.72294 0.94806 0.0
O29 O 0.0879 0.79029 0.9897 0.0
O30 O 0.20807 0.20163 0.13457 0.0
O31 O 0.16803 0.05514 0.04488 0.0
H32 H 0.8202 0.76766 0.98193 0.0
H33 H 0.63065 0.7983 0.99213 0.0
H34 H 0.76397 0.92589 0.8549 0.0
H35 H 0.28096 0.03166 0.0188 0.0
H36 H 0.30719 0.29655 0.09303 0.0
H37 H 0.44827 0.21799 0.9687 0.0
H38 H 0.11611 0.36971 0.05403 0.0
H39 H 0.8786 0.20382 0.97482 0.0
H40 H 0.85441 0.31696 0.94459 0.0
H41 H 0.1339 0.59054 0.19372 0.0
H42 H 0.19653 0.64393 0.14306 0.0
H43 H 0.19554 0.55076 0.16087 0.0
H44 H 0.16826 0.46222 0.96173 0.0
H45 H 0.16859 0.55482 0.94309 0.0
H46 H 0.08746 0.44052 0.85835 0.0
H47 H 0.85469 0.44532 0.91691 0.0
H48 H 0.88089 0.5841 0.90279 0.0
H49 H 0.11834 0.66825 0.00175 0.0
C50 C 0.05914 0.35754 0.03122 0.0
C51 C 0.99928 0.27769 0.01686 0.0
C52 C 0.92546 0.26427 0.98632 0.0
C53 C 0.91105 0.32815 0.96878 0.0
C54 C 0.97101 0.40538 0.98215 0.0
C55 C 1.04369 0.42073 0.01334 0.0
C56 C 0.09784 0.50914 0.02129 0.0
C57 C 0.15958 0.57764 0.1366 0.0
C58 C 0.13257 0.49052 0.94135 0.0
C59 C 1.04422 0.54099 0.98974 0.0
C60 C 0.97127 0.47987 0.967 0.0
C61 C 0.91165 0.49382 0.9348 0.0
C62 C 0.92708 0.57277 0.92659 0.0
C63 C 1.00163 0.6372 0.95103 0.0
C64 C 0.06074 0.6205 0.98261 0.0
H65 H 0.70925 0.03234 0.03025 0.0
H66 H 0.55125 0.75999 0.75946 0.0
H67 H 0.44775 0.79338 0.74456 0.0
H68 H 0.59061 0.03963 0.15194 0.0
H69 H 0.62075 0.15862 0.19952 0.0
H70 H 0.68485 0.11966 0.17858 0.0
H71 H 0.70361 0.18383 0.0495 0.0
H72 H 0.64146 0.22579 0.07277 0.0
H73 H 0.62197 0.15145 0.9379 0.0
H74 H 0.359 0.8517 0.77372 0.0
H75 H 0.29598 0.93785 0.83156 0.0
H76 H 0.51281 0.16843 0.08652 0.0
C77 C 0.65356 0.98163 0.96494 0.0
C78 C 0.63802 0.89479 0.89393 0.0
C79 C 0.564 0.82787 0.81232 0.0
C80 C 0.50497 0.84593 0.8041 0.0
C81 C 0.52123 0.93113 0.87847 0.0
C82 C 0.59407 -0.00153 0.95609 0.0
C83 C 0.59591 0.082 0.03064 0.0
C84 C 0.62473 0.10102 0.14701 0.0
C85 C 0.64354 0.1657 0.02214 0.0
C86 C 0.5128 0.05058 0.98423 0.0
C87 C 0.47034 0.96354 0.89645 0.0
C88 C 0.3918 0.92028 0.84184 0.0
C89 C 0.35633 0.96891 0.87575 0.0
C90 C 0.39974 0.05928 0.96312 0.0
C91 C 0.47848 0.09931 0.01913 0.0
H92 H 0.42072 0.30295 0.88106 0.0
H93 H 0.44926 0.4332 0.20858 0.0
H94 H 0.55202 0.57949 0.24298 0.0
H95 H 0.61425 0.40799 0.94092 0.0
H96 H 0.60353 0.41956 0.82276 0.0
H97 H 0.52726 0.32809 0.82038 0.0
H98 H 0.43527 0.38095 0.76182 0.0
H99 H 0.51039 0.47005 0.75962 0.0
H100 H 0.46177 0.49851 0.83885 0.0
H101 H 0.65527 0.70965 0.24152 0.0
H102 H 0.73733 0.81752 0.19657 0.0
H103 H 0.64652 0.59611 0.87505 0.0
C104 C 0.44753 0.36288 0.95939 0.0
C105 C 0.42712 0.35728 0.04216 0.0
C106 C 0.4634 0.43671 0.14371 0.0
C107 C 0.52251 0.51948 0.16431 0.0
C108 C 0.54439 0.52093 0.08251 0.0
C109 C 0.507 0.44497 0.98157 0.0
C110 C 0.54162 0.46311 0.9076 0.0
C111 C 0.57354 0.40098 0.87079 0.0
C112 C 0.48385 0.45259 0.81134 0.0
C113 C 0.60435 0.56162 0.98231 0.0
C114 C 0.60545 0.59387 0.08312 0.0
C115 C 0.65553 0.68483 0.16339 0.0
C116 C 0.70266 0.74526 0.13792 0.0
C117 C 0.6996 0.71382 0.03371 0.0
C118 C 0.65193 0.62049 0.95648 0.0
H119 H 1.00481 0.84684 0.61177 0.0
H120 H 0.13459 0.13618 0.84661 0.0
H121 H 0.15928 0.17387 0.70929 0.0
H122 H 0.12065 0.85856 0.45338 0.0
H123 H 1.03825 0.77553 0.32751 0.0
H124 H 1.03985 0.76967 0.44737 0.0
H125 H 0.9164 0.77446 0.4159 0.0
H126 H 0.91495 0.7815 0.29692 0.0
H127 H 0.9134 0.86787 0.40277 0.0
H128 H 0.15423 0.18266 0.54566 0.0
H129 H 0.12968 0.16119 0.36376 0.0
H130 H 1.00603 0.86652 0.23113 0.0
C131 C 1.04041 0.91767 0.6344 0.0
C132 C 0.06806 0.98874 0.73931 0.0
C133 C 0.11281 0.08096 0.76624 0.0
C134 C 0.12731 0.10305 0.68901 0.0
C135 C 0.09676 0.03205 0.58513 0.0
C136 C 0.05509 0.94111 0.55748 0.0
C137 C 1.02418 0.87903 0.43781 0.0
C138 C 0.05776 0.81704 0.41521 0.0
C139 C 0.93709 0.82241 0.38532 0.0
C140 C 0.05325 0.94957 0.40288 0.0
C141 C 0.09507 0.03729 0.48944 0.0
C142 C 0.12291 0.11433 0.47726 0.0
C143 C 0.10815 0.10149 0.37369 0.0
C144 C 0.06649 0.01234 0.28388 0.0
C145 C 1.03915 0.93544 0.29882 0.0
loop_
_geom_bond_atom_site_label_1
_geom_bond_atom_site_label_2
_geom_bond_distance
_geom_bond_site_symmetry_2
_ccdc_geom_bond_type
C0 C1 1.386 . S
C0 C5 1.384 . S
C0 C16 1.497 . S
C1 C0 1.386 . S
C1 C2 1.393 1_556 S
C1 H32 0.932 . S
C2 C1 1.393 1_554 S
C2 C3 1.387 . S
C3 C2 1.387 . S
C3 C4 1.392 1_554 S
C3 H33 0.930 . S
C4 C3 1.392 1_556 S
C4 C5 1.402 . S
C5 C0 1.384 . S
C5 C4 1.402 . S
C5 H34 0.930 . S
O6 Tb7 2.288 1_554 S
O6 C19 1.257 1_665 S
Tb7 O6 2.288 1_556 S
Tb7 O9 2.303 . S
Tb7 O11 2.430 . S
Tb7 O13 2.459 . S
Tb7 O15 2.301 . S
Tb7 C16 2.808 . S
Tb8 O10 2.301 . S
Tb8 C12 2.808 . S
Tb8 O14 2.288 1_554 S
Tb8 O21 2.303 . S
Tb8 O30 2.430 . S
Tb8 O31 2.459 . S
O9 Tb7 2.303 . S
O9 C28 1.255 1_655 S
O10 Tb8 2.301 . S
O10 C19 1.237 . S
O11 Tb7 2.430 . S
O11 C16 1.248 . S
C12 Tb8 2.808 . S
C12 C22 1.497 . S
C12 O30 1.248 . S
C12 O31 1.260 . S
O13 Tb7 2.459 . S
O13 C16 1.260 . S
O14 Tb8 2.288 1_556 S
O14 C20 1.257 1_445 S
O15 Tb7 2.301 . S
O15 C20 1.237 . S
C16 C0 1.497 . S
C16 Tb7 2.808 . S
C16 O11 1.248 . S
C16 O13 1.260 . S
C17 O18 1.255 . S
C17 O21 1.255 1_655 S
O18 C17 1.255 . S
C19 O6 1.257 1_445 S
C19 O10 1.237 . S
C20 O14 1.257 1_665 S
C20 O15 1.237 . S
O21 Tb8 2.303 . S
O21 C17 1.255 1_455 S
C22 C12 1.497 . S
C22 C24 1.384 . S
C22 C25 1.386 . S
C23 C24 1.402 . S
C23 C27 1.392 1_554 S
C24 C22 1.384 . S
C24 C23 1.402 . S
C24 H35 0.930 . S
C25 C22 1.386 . S
C25 C26 1.393 1_554 S
C25 H36 0.932 . S
C26 C25 1.393 1_556 S
C26 C27 1.387 . S
C27 C23 1.392 1_556 S
C27 C26 1.387 . S
C27 H37 0.930 . S
C28 O9 1.255 1_455 S
C28 O29 1.255 . S
O29 C28 1.255 . S
O30 Tb8 2.430 . S
O30 C12 1.248 . S
O31 Tb8 2.459 . S
O31 C12 1.260 . S
H32 C1 0.932 . S
H33 C3 0.930 . S
H34 C5 0.930 . S
H35 C24 0.930 . S
H36 C25 0.932 . S
H37 C27 0.930 . S
H38 C50 0.930 . S
H39 C52 0.930 . S
H40 C53 0.930 . S
H41 C57 0.959 . S
H42 C57 0.959 1_556 S
H43 C57 0.961 . S
H44 C58 0.960 . S
H45 C58 0.961 . S
H46 C58 0.959 . S
H47 C61 0.929 . S
H48 C62 0.931 . S
H49 C64 0.930 . S
C50 H38 0.930 . S
C50 C51 1.399 1_456 S
C50 C55 1.399 . S
C51 C50 1.399 1_654 S
C51 C52 1.376 . S
C52 H39 0.930 . S
C52 C51 1.376 . S
C52 C53 1.388 . S
C53 H40 0.930 . S
C53 C52 1.388 . S
C53 C54 1.390 . S
C54 C53 1.390 . S
C54 C55 1.394 1_654 S
C54 C60 1.470 . S
C55 C50 1.399 . S
C55 C54 1.394 1_456 S
C55 C56 1.516 . S
C56 C55 1.516 . S
C56 C57 1.502 1_556 S
C56 C58 1.561 . S
C56 C59 1.526 . S
C57 H41 0.959 . S
C57 H42 0.959 1_554 S
C57 H43 0.961 . S
C57 C56 1.502 1_554 S
C58 H44 0.960 . S
C58 H45 0.961 . S
C58 H46 0.959 . S
C58 C56 1.561 . S
C59 C56 1.526 . S
C59 C60 1.390 1_456 S
C59 C64 1.390 . S
C60 C54 1.470 . S
C60 C59 1.390 1_654 S
C60 C61 1.399 . S
C61 H47 0.929 . S
C61 C60 1.399 . S
C61 C62 1.385 . S
C62 H48 0.931 . S
C62 C61 1.385 . S
C62 C63 1.390 1_554 S
C63 C62 1.390 1_556 S
C63 C64 1.386 1_655 S
C64 H49 0.930 . S
C64 C59 1.390 . S
C64 C63 1.386 1_455 S
H65 C77 0.930 . S
H66 C79 0.930 . S
H67 C80 0.930 . S
H68 C84 0.959 . S
H69 C84 0.959 . S
H70 C84 0.961 . S
H71 C85 0.960 . S
H72 C85 0.961 . S
H73 C85 0.959 . S
H74 C88 0.929 . S
H75 C89 0.931 . S
H76 C91 0.930 . S
C77 H65 0.930 . S
C77 C78 1.399 1_544 S
C77 C82 1.399 . S
C78 C77 1.399 1_566 S
C78 C79 1.376 . S
C79 H66 0.930 . S
C79 C78 1.376 . S
C79 C80 1.388 . S
C80 H67 0.930 . S
C80 C79 1.388 . S
C80 C81 1.390 . S
C81 C80 1.390 . S
C81 C82 1.394 1_566 S
C81 C87 1.465 . S
C82 C77 1.399 . S
C82 C81 1.394 1_544 S
C82 C83 1.516 . S
C83 C82 1.516 . S
C83 C84 1.502 . S
C83 C85 1.561 1_554 S
C83 C86 1.526 . S
C84 H68 0.959 . S
C84 H69 0.959 . S
C84 H70 0.961 . S
C84 C83 1.502 . S
C85 H71 0.960 . S
C85 H72 0.961 . S
C85 H73 0.959 . S
C85 C83 1.561 1_556 S
C86 C83 1.526 . S
C86 C87 1.396 1_544 S
C86 C91 1.390 . S
C87 C81 1.465 . S
C87 C86 1.396 1_566 S
C87 C88 1.399 . S
C88 H74 0.929 . S
C88 C87 1.399 . S
C88 C89 1.385 . S
C89 H75 0.931 . S
C89 C88 1.385 . S
C89 C90 1.389 1_566 S
C90 C89 1.389 1_544 S
C90 C91 1.387 . S
C91 H76 0.930 . S
C91 C86 1.390 . S
C91 C90 1.387 . S
H92 C104 0.930 . S
H93 C106 0.930 . S
H94 C107 0.930 . S
H95 C111 0.959 . S
H96 C111 0.959 . S
H97 C111 0.961 . S
H98 C112 0.960 . S
H99 C112 0.961 . S
H100 C112 0.959 . S
H101 C115 0.929 . S
H102 C116 0.931 . S
H103 C118 0.930 . S
C104 H92 0.930 . S
C104 C105 1.399 . S
C104 C109 1.399 . S
C105 C104 1.399 . S
C105 C106 1.376 1_556 S
C106 H93 0.930 . S
C106 C105 1.376 1_554 S
C106 C107 1.388 . S
C107 H94 0.930 . S
C107 C106 1.388 . S
C107 C108 1.390 . S
C108 C107 1.390 . S
C108 C109 1.394 1_554 S
C108 C114 1.465 . S
C109 C104 1.399 . S
C109 C108 1.394 1_556 S
C109 C110 1.516 . S
C110 C109 1.516 . S
C110 C111 1.502 . S
C110 C112 1.561 . S
C110 C113 1.526 . S
C111 H95 0.959 . S
C111 H96 0.959 . S
C111 H97 0.961 . S
C111 C110 1.502 . S
C112 H98 0.960 . S
C112 H99 0.961 . S
C112 H100 0.959 . S
C112 C110 1.561 . S
C113 C110 1.526 . S
C113 C114 1.396 1_556 S
C113 C118 1.390 . S
C114 C108 1.465 . S
C114 C113 1.396 1_554 S
C114 C115 1.399 . S
C115 H101 0.929 . S
C115 C114 1.399 . S
C115 C116 1.385 . S
C116 H102 0.931 . S
C116 C115 1.385 . S
C116 C117 1.389 . S
C117 C116 1.389 . S
C117 C118 1.387 1_554 S
C118 H103 0.930 . S
C118 C113 1.390 . S
C118 C117 1.387 1_556 S
H119 C131 0.930 . S
H120 C133 0.930 . S
H121 C134 0.930 . S
H122 C138 0.959 . S
H123 C138 0.959 . S
H124 C138 0.961 . S
H125 C139 0.960 . S
H126 C139 0.961 . S
H127 C139 0.959 1_545 S
H128 C142 0.929 . S
H129 C143 0.931 . S
H130 C145 0.930 . S
C131 H119 0.930 . S
C131 C132 1.399 1_665 S
C131 C136 1.399 . S
C132 C131 1.399 1_445 S
C132 C133 1.376 . S
C133 H120 0.930 . S
C133 C132 1.376 . S
C133 C134 1.388 . S
C134 H121 0.930 . S
C134 C133 1.388 . S
C134 C135 1.390 . S
C135 C134 1.390 . S
C135 C136 1.394 1_445 S
C135 C141 1.465 . S
C136 C131 1.399 . S
C136 C135 1.394 1_665 S
C136 C137 1.516 . S
C137 C136 1.516 . S
C137 C138 1.502 . S
C137 C139 1.561 . S
C137 C140 1.526 . S
C138 H122 0.959 . S
C138 H123 0.959 . S
C138 H124 0.961 . S
C138 C137 1.502 . S
C139 H125 0.960 . S
C139 H126 0.961 . S
C139 H127 0.959 1_565 S
C139 C137 1.561 . S
C140 C137 1.526 . S
C140 C141 1.396 1_665 S
C140 C145 1.390 . S
C141 C135 1.465 . S
C141 C140 1.396 1_445 S
C141 C142 1.399 . S
C142 H128 0.929 . S
C142 C141 1.399 . S
C142 C143 1.385 . S
C143 H129 0.931 . S
C143 C142 1.385 . S
C143 C144 1.389 . S
C144 C143 1.389 . S
C144 C145 1.387 1_445 S
C145 H130 0.930 . S
C145 C140 1.390 . S
C145 C144 1.387 1_665 S
C51 C17 0.435 . S
C63 C28 0.509 1_655 S
C78 C4 2.048 . S
C90 C23 2.098 . S
C105 C26 1.827 . S
C117 C2 1.843 . S
C132 C20 1.500 1_445 S
C144 C19 1.468 . S
