# Generated by pormake.
# Topology kag, (6)-cn, num edge types: 1
# Building blocks:
#     Node 0, Type 0, BuildingBlock: BETDEL_clean_sbu_0, # of connection points: 6
#     Node 1, Type 0, BuildingBlock: BETDEL_clean_sbu_0, # of connection points: 6
#     Node 2, Type 0, BuildingBlock: BETDEL_clean_sbu_0, # of connection points: 6
#     Edge 3, Type (0, 0), BuildingBlock: EYOCIG_clean_linker_4, # of connection points: 2
#     Edge 4, Type (0, 0), BuildingBlock: EYOCIG_clean_linker_4, # of connection points: 2
#     Edge 5, Type (0, 0), BuildingBlock: EYOCIG_clean_linker_4, # of connection points: 2
#     Edge 6, Type (0, 0), BuildingBlock: EYOCIG_clean_linker_4, # of connection points: 2
#     Edge 7, Type (0, 0), BuildingBlock: EYOCIG_clean_linker_4, # of connection points: 2
#     Edge 8, Type (0, 0), BuildingBlock: EYOCIG_clean_linker_4, # of connection points: 2
#     Edge 9, Type (0, 0), BuildingBlock: EYOCIG_clean_linker_4, # of connection points: 2
#     Edge 10, Type (0, 0), BuildingBlock: EYOCIG_clean_linker_4, # of connection points: 2
#     Edge 11, Type (0, 0), BuildingBlock: EYOCIG_clean_linker_4, # of connection points: 2
# Relax obj value: 0.019
# Max RMSD: 0.071
# Mean RMSD: 0.051
data_MOF--net-kag--node1-BETDEL_clean_sbu_0--edge1-EYOCIG_clean_linker_4
_symmetry_space_group_name_H-M    P1
_symmetry_Int_Tables_number       1
_symmetry_cell_setting            triclinic
loop_
_symmetry_equiv_pos_as_xyz
'x, y, z'
_cell_length_a     24.273084
_cell_length_b     27.216496
_cell_length_c     11.290951
_cell_angle_alpha  96.941517
_cell_angle_beta   91.727264
_cell_angle_gamma 110.08838
loop_
_atom_site_label
_atom_site_type_symbol
_atom_site_fract_x
_atom_site_fract_y
_atom_site_fract_z
_atom_type_partial_charge
Dy0 Dy 0.98401 0.44499 1.00339 0.0
C1 C 0.12824 0.67065 0.99888 0.0
C2 C 0.91385 0.34661 0.03617 0.0
Dy3 Dy 0.05834 0.57212 0.03116 0.0
O4 O 0.95747 0.3567 0.96821 0.0
O5 O 0.90977 0.39006 0.09004 0.0
O6 O 0.9741 0.4316 0.79983 0.0
O7 O 1.01667 0.50627 0.89156 0.0
C8 C 1.0016 0.48065 0.78827 0.0
C9 C 0.04086 0.53641 0.24627 0.0
O10 O 0.96585 0.56873 0.98944 0.0
O11 O 0.91431 0.48149 0.02182 0.0
O12 O 0.08451 0.66036 0.06659 0.0
O13 O 0.13257 0.6273 0.94498 0.0
O14 O 0.06843 0.58545 0.23473 0.0
O15 O 0.02559 0.51084 0.14298 0.0
O16 O 0.07657 0.44844 0.04494 0.0
O17 O 0.12802 0.53566 1.01222 0.0
C18 C 0.91665 0.52943 1.00359 0.0
C19 C 0.12574 0.48776 0.03058 0.0
Dy20 Dy 0.58466 0.04166 0.02268 0.0
C21 C 0.35047 0.90031 0.03123 0.0
C22 C 0.69046 0.11774 1.0044 0.0
Dy23 Dy 0.45611 0.97646 1.01213 0.0
O24 O 0.67607 0.09301 0.09596 0.0
O25 O 0.64802 0.09994 0.92035 0.0
O26 O 0.59848 0.01758 0.19951 0.0
O27 O 0.51865 0.02815 0.15489 0.0
C28 C 0.5466 0.01382 0.23133 0.0
C29 C 0.4944 1.00435 0.80345 0.0
O30 O 0.44718 0.05494 0.06731 0.0
O31 O 0.54063 0.10206 1.01591 0.0
O32 O 0.36412 0.92588 0.94071 0.0
O33 O 0.39357 0.91733 0.11387 0.0
O34 O 0.44244 1.0005 0.83495 0.0
O35 O 0.52205 0.98986 0.88008 0.0
O36 O 0.59381 0.96326 0.96796 0.0
O37 O 0.50013 0.91597 0.018 0.0
C38 C 0.48751 0.09945 0.04598 0.0
C39 C 0.55338 0.91867 0.98858 0.0
Dy40 Dy 0.53579 0.57409 0.02405 0.0
C41 C 0.48744 0.34397 0.05307 0.0
C42 C 0.555 0.67456 0.98092 0.0
Dy43 Dy 0.50715 0.44456 1.0103 0.0
O44 O 0.58638 0.66136 0.05778 0.0
O45 O 0.51369 0.63289 0.9251 0.0
O46 O 0.53807 0.58927 0.22716 0.0
O47 O 0.52141 0.51411 0.13862 0.0
C48 C 0.52707 0.54018 0.24026 0.0
C49 C 0.5161 0.47854 0.79413 0.0
O50 O 0.42007 0.45346 0.04563 0.0
O51 O 0.43711 0.54011 1.00353 0.0
O52 O 0.45632 0.35736 0.97605 0.0
O53 O 0.5288 0.38552 0.10921 0.0
O54 O 0.5052 0.42947 0.80721 0.0
O55 O 0.52148 0.50455 0.89576 0.0
O56 O 0.62285 0.56513 0.98861 0.0
O57 O 0.60579 0.47852 0.03113 0.0
C58 C 0.40208 0.49303 0.026 0.0
C59 C 0.64083 0.52556 1.00843 0.0
C60 C 1.01924 0.50617 0.56991 0.0
C61 C 1.01392 0.4993 0.67382 0.0
C62 C 0.02335 0.51083 0.46462 0.0
C63 C 0.02861 0.51773 0.36071 0.0
C64 C 0.52412 0.00952 0.45616 0.0
C65 C 0.53239 0.01171 0.35247 0.0
C66 C 0.51702 0.00841 0.57865 0.0
C67 C 0.50872 1.00632 0.68236 0.0
C68 C 0.52145 0.50617 0.57833 0.0
C69 C 0.51992 0.49764 0.68069 0.0
C70 C 0.52214 0.51267 0.45615 0.0
C71 C 0.52347 0.52114 0.35376 0.0
C72 C 0.22982 0.47702 0.03515 0.0
C73 C 0.18076 0.47878 0.03428 0.0
C74 C 0.28906 0.47967 0.03347 0.0
C75 C 0.34039 0.48466 0.0306 0.0
C76 C 0.78384 0.20423 1.01384 0.0
C77 C 0.74082 0.16486 1.00677 0.0
C78 C 0.83119 0.25276 0.02576 0.0
C79 C 0.86886 0.29566 0.03069 0.0
C80 C 0.56873 0.82674 0.96957 0.0
C81 C 0.56577 0.87037 0.97605 0.0
C82 C 0.56602 0.77383 0.96717 0.0
C83 C 0.56027 0.72827 0.97211 0.0
C84 C 0.81279 0.54063 0.99902 0.0
C85 C 0.8617 0.53854 0.99994 0.0
C86 C 0.75372 0.53847 1.00072 0.0
C87 C 0.70248 0.53381 1.00363 0.0
C88 C 0.21043 0.76475 1.00956 0.0
C89 C 0.17298 0.72172 1.00447 0.0
C90 C 0.25749 0.81347 0.02149 0.0
C91 C 0.30032 0.85299 0.02839 0.0
C92 C 0.47564 0.24453 0.06696 0.0
C93 C 0.48176 0.29018 0.062 0.0
C94 C 0.4725 0.19151 0.06473 0.0
C95 C 0.47521 0.1478 0.05848 0.0
loop_
_geom_bond_atom_site_label_1
_geom_bond_atom_site_label_2
_geom_bond_distance
_geom_bond_site_symmetry_2
_ccdc_geom_bond_type
Dy0 O4 2.398 . S
Dy0 O5 2.491 1_556 S
Dy0 O6 2.403 . S
Dy0 O7 2.664 1_655 S
Dy0 O11 2.326 . S
Dy0 O15 2.310 1_556 S
Dy0 O16 2.351 1_655 S
C1 O12 1.185 . S
C1 O13 1.355 1_554 S
C2 O4 1.185 . S
C2 O5 1.355 1_556 S
Dy3 O7 2.310 1_554 S
Dy3 O10 2.351 1_455 S
Dy3 O12 2.398 . S
Dy3 O13 2.491 1_554 S
Dy3 O14 2.403 . S
Dy3 O15 2.664 1_455 S
Dy3 O17 2.326 . S
O4 Dy0 2.398 . S
O4 C2 1.185 . S
O5 Dy0 2.491 1_554 S
O5 C2 1.355 1_554 S
O6 Dy0 2.403 . S
O6 C8 1.254 . S
O7 Dy0 2.664 1_455 S
O7 Dy3 2.310 1_556 S
O7 C8 1.268 1_455 S
C8 O6 1.254 . S
C8 O7 1.268 1_655 S
C9 O14 1.254 . S
C9 O15 1.268 1_455 S
O10 Dy3 2.351 1_655 S
O10 C18 1.249 1_554 S
O11 Dy0 2.326 . S
O11 C18 1.267 . S
O12 C1 1.185 . S
O12 Dy3 2.398 . S
O13 C1 1.355 1_556 S
O13 Dy3 2.491 1_556 S
O14 Dy3 2.403 . S
O14 C9 1.254 . S
O15 Dy0 2.310 1_554 S
O15 Dy3 2.664 1_655 S
O15 C9 1.268 1_655 S
O16 Dy0 2.351 1_455 S
O16 C19 1.249 1_556 S
O17 Dy3 2.326 . S
O17 C19 1.267 . S
C18 O10 1.249 1_556 S
C18 O11 1.267 . S
C19 O16 1.249 1_554 S
C19 O17 1.267 . S
Dy20 O24 2.398 . S
Dy20 O25 2.491 1_554 S
Dy20 O26 2.403 . S
Dy20 O27 2.664 1_545 S
Dy20 O31 2.326 . S
Dy20 O35 2.310 1_554 S
Dy20 O36 2.351 1_545 S
C21 O32 1.185 . S
C21 O33 1.355 1_556 S
C22 O24 1.185 . S
C22 O25 1.355 1_554 S
Dy23 O27 2.310 1_556 S
Dy23 O30 2.351 1_565 S
Dy23 O32 2.398 . S
Dy23 O33 2.491 1_556 S
Dy23 O34 2.403 . S
Dy23 O35 2.664 1_565 S
Dy23 O37 2.326 . S
O24 Dy20 2.398 . S
O24 C22 1.185 . S
O25 Dy20 2.491 1_556 S
O25 C22 1.355 1_556 S
O26 Dy20 2.403 . S
O26 C28 1.254 . S
O27 Dy20 2.664 1_565 S
O27 Dy23 2.310 1_554 S
O27 C28 1.268 1_565 S
C28 O26 1.254 . S
C28 O27 1.268 1_545 S
C29 O34 1.254 . S
C29 O35 1.268 1_565 S
O30 Dy23 2.351 1_545 S
O30 C38 1.249 1_556 S
O31 Dy20 2.326 . S
O31 C38 1.267 . S
O32 C21 1.185 . S
O32 Dy23 2.398 . S
O33 C21 1.355 1_554 S
O33 Dy23 2.491 1_554 S
O34 Dy23 2.403 . S
O34 C29 1.254 . S
O35 Dy20 2.310 1_556 S
O35 Dy23 2.664 1_545 S
O35 C29 1.268 1_545 S
O36 Dy20 2.351 1_565 S
O36 C39 1.249 1_554 S
O37 Dy23 2.326 . S
O37 C39 1.267 . S
C38 O30 1.249 1_554 S
C38 O31 1.267 . S
C39 O36 1.249 1_556 S
C39 O37 1.267 . S
Dy40 O44 2.398 . S
Dy40 O45 2.491 1_554 S
Dy40 O46 2.403 . S
Dy40 O47 2.664 . S
Dy40 O51 2.326 . S
Dy40 O55 2.310 1_554 S
Dy40 O56 2.351 . S
C41 O52 1.185 . S
C41 O53 1.355 1_556 S
C42 O44 1.185 . S
C42 O45 1.355 1_554 S
Dy43 O47 2.310 1_556 S
Dy43 O50 2.351 . S
Dy43 O52 2.398 . S
Dy43 O53 2.491 1_556 S
Dy43 O54 2.403 . S
Dy43 O55 2.664 . S
Dy43 O57 2.326 . S
O44 Dy40 2.398 . S
O44 C42 1.185 . S
O45 Dy40 2.491 1_556 S
O45 C42 1.355 1_556 S
O46 Dy40 2.403 . S
O46 C48 1.254 . S
O47 Dy40 2.664 . S
O47 Dy43 2.310 1_554 S
O47 C48 1.268 . S
C48 O46 1.254 . S
C48 O47 1.268 . S
C49 O54 1.254 . S
C49 O55 1.268 . S
O50 Dy43 2.351 . S
O50 C58 1.249 1_556 S
O51 Dy40 2.326 . S
O51 C58 1.267 . S
O52 C41 1.185 . S
O52 Dy43 2.398 . S
O53 C41 1.355 1_554 S
O53 Dy43 2.491 1_554 S
O54 Dy43 2.403 . S
O54 C49 1.254 . S
O55 Dy40 2.310 1_556 S
O55 Dy43 2.664 . S
O55 C49 1.268 . S
O56 Dy40 2.351 . S
O56 C59 1.249 1_554 S
O57 Dy43 2.326 . S
O57 C59 1.267 . S
C58 O50 1.249 1_554 S
C58 O51 1.267 . S
C59 O56 1.249 1_556 S
C59 O57 1.267 . S
C60 C61 1.170 . S
C60 C62 1.380 1_455 S
C61 C60 1.170 . S
C62 C60 1.380 1_655 S
C62 C63 1.170 . S
C63 C62 1.170 . S
C64 C65 1.170 . S
C64 C66 1.380 . S
C65 C64 1.170 . S
C66 C64 1.380 . S
C66 C67 1.170 . S
C67 C66 1.170 . S
C68 C69 1.170 . S
C68 C70 1.380 . S
C69 C68 1.170 . S
C70 C68 1.380 . S
C70 C71 1.170 . S
C71 C70 1.170 . S
C72 C73 1.170 . S
C72 C74 1.380 . S
C73 C72 1.170 . S
C74 C72 1.380 . S
C74 C75 1.170 . S
C75 C74 1.170 . S
C76 C77 1.170 . S
C76 C78 1.380 . S
C77 C76 1.170 . S
C78 C76 1.380 . S
C78 C79 1.170 . S
C79 C78 1.170 . S
C80 C81 1.170 . S
C80 C82 1.380 . S
C81 C80 1.170 . S
C82 C80 1.380 . S
C82 C83 1.170 . S
C83 C82 1.170 . S
C84 C85 1.170 . S
C84 C86 1.380 . S
C85 C84 1.170 . S
C86 C84 1.380 . S
C86 C87 1.170 . S
C87 C86 1.170 . S
C88 C89 1.170 . S
C88 C90 1.380 . S
C89 C88 1.170 . S
C90 C88 1.380 . S
C90 C91 1.170 . S
C91 C90 1.170 . S
C92 C93 1.170 . S
C92 C94 1.380 1_556 S
C93 C92 1.170 . S
C94 C92 1.380 1_554 S
C94 C95 1.170 . S
C95 C94 1.170 . S
C61 C8 1.441 1_455 S
C63 C9 1.473 1_655 S
C65 C28 1.465 1_565 S
C67 C29 1.438 . S
C69 C49 1.473 . S
C71 C48 1.442 . S
C73 C19 1.781 1_556 S
C75 C58 1.759 1_556 S
C77 C22 1.244 . S
C79 C2 1.243 1_554 S
C81 C39 1.531 . S
C83 C42 1.516 1_556 S
C85 C18 1.772 1_554 S
C87 C59 1.760 1_554 S
C89 C1 1.232 1_556 S
C91 C21 1.247 . S
C93 C41 1.480 . S
C95 C38 1.542 . S
