# Generated by pormake.
# Topology vmd, (6)-cn, num edge types: 1
# Building blocks:
#     Node 0, Type 0, BuildingBlock: IZENUY_clean_sbu_0, # of connection points: 6
#     Node 1, Type 0, BuildingBlock: IZENUY_clean_sbu_0, # of connection points: 6
#     Node 2, Type 0, BuildingBlock: IZENUY_clean_sbu_0, # of connection points: 6
#     Node 3, Type 0, BuildingBlock: IZENUY_clean_sbu_0, # of connection points: 6
#     Node 4, Type 0, BuildingBlock: IZENUY_clean_sbu_0, # of connection points: 6
#     Node 5, Type 0, BuildingBlock: IZENUY_clean_sbu_0, # of connection points: 6
#     Node 6, Type 0, BuildingBlock: IZENUY_clean_sbu_0, # of connection points: 6
#     Node 7, Type 0, BuildingBlock: IZENUY_clean_sbu_0, # of connection points: 6
#     Edge 8, Type (0, 0), None
#     Edge 9, Type (0, 0), None
#     Edge 10, Type (0, 0), None
#     Edge 11, Type (0, 0), None
#     Edge 12, Type (0, 0), None
#     Edge 13, Type (0, 0), None
#     Edge 14, Type (0, 0), None
#     Edge 15, Type (0, 0), None
#     Edge 16, Type (0, 0), None
#     Edge 17, Type (0, 0), None
#     Edge 18, Type (0, 0), None
#     Edge 19, Type (0, 0), None
#     Edge 20, Type (0, 0), None
#     Edge 21, Type (0, 0), None
#     Edge 22, Type (0, 0), None
#     Edge 23, Type (0, 0), None
#     Edge 24, Type (0, 0), None
#     Edge 25, Type (0, 0), None
#     Edge 26, Type (0, 0), None
#     Edge 27, Type (0, 0), None
#     Edge 28, Type (0, 0), None
#     Edge 29, Type (0, 0), None
#     Edge 30, Type (0, 0), None
#     Edge 31, Type (0, 0), None
# Relax obj value: 0.251
# Max RMSD: 0.250
# Mean RMSD: 0.249
data_MOF--net-vmd--node1-IZENUY_clean_sbu_0--edge1-none
_symmetry_space_group_name_H-M    P1
_symmetry_Int_Tables_number       1
_symmetry_cell_setting            triclinic
loop_
_symmetry_equiv_pos_as_xyz
'x, y, z'
_cell_length_a     21.865953
_cell_length_b     11.792244
_cell_length_c     13.098477
_cell_angle_alpha  90.000484
_cell_angle_beta   93.337335
_cell_angle_gamma 89.99578
loop_
_atom_site_label
_atom_site_type_symbol
_atom_site_fract_x
_atom_site_fract_y
_atom_site_fract_z
_atom_type_partial_charge
Fe0 Fe 0.1858 0.60777 0.30232 0.0
Fe1 Fe 0.16583 0.37442 0.39804 0.0
O2 O 0.21051 0.46627 0.32311 0.0
Fe3 Fe 0.27397 0.4135 0.26494 0.0
O4 O 0.32711 0.52674 0.30486 0.0
O5 O 0.26209 0.66585 0.27814 0.0
O6 O 0.20308 0.63564 0.4365 0.0
C7 C 0.17965 0.57507 0.50269 0.0
C8 C 0.20065 0.52917 0.11026 0.0
O9 O 0.14218 0.49642 0.47435 0.0
C10 C 0.21878 0.21558 0.2625 0.0
O11 O 0.10329 0.57479 0.3156 0.0
O12 O 0.10266 0.38814 0.30375 0.0
O13 O 0.25177 0.48224 0.13976 0.0
O14 O 0.16891 0.58294 0.17039 0.0
C15 C 0.27657 0.33154 0.47978 0.0
O16 O 0.19053 0.23349 0.34297 0.0
O17 O 0.22775 0.30085 0.2115 0.0
C18 C 0.07581 0.48247 0.29039 0.0
O19 O 0.22325 0.35844 0.49484 0.0
O20 O 0.29921 0.33894 0.39013 0.0
C21 C 0.31689 0.62983 0.28648 0.0
Fe22 Fe 0.90043 0.60774 0.246 0.0
Fe23 Fe 0.92042 0.37438 0.15028 0.0
O24 O 0.87573 0.46624 0.22521 0.0
Fe25 Fe 0.81227 0.41348 0.28339 0.0
O26 O 0.75913 0.52673 0.24346 0.0
O27 O 0.82414 0.66582 0.27018 0.0
O28 O 0.88314 0.6356 0.11182 0.0
C29 C 0.90659 0.57502 0.04563 0.0
C30 C 0.8856 0.52914 0.43805 0.0
O31 O 0.94406 0.49637 0.07397 0.0
C32 C 0.86747 0.21554 0.28583 0.0
O33 O 0.98294 0.57477 0.23271 0.0
O34 O 0.9836 0.38811 0.24457 0.0
O35 O 0.83448 0.48222 0.40856 0.0
O36 O 0.91733 0.58292 0.37793 0.0
C37 C 0.80968 0.3315 0.06854 0.0
O38 O 0.89573 0.23345 0.20536 0.0
O39 O 0.85849 0.30081 0.33682 0.0
C40 C 1.01043 0.48246 0.25793 0.0
O41 O 0.86299 0.35839 0.05348 0.0
O42 O 0.78703 0.33892 0.15819 0.0
C43 C 0.76935 0.62982 0.26184 0.0
Fe44 Fe 0.81227 0.6992 0.78335 0.0
Fe45 Fe 0.92042 0.73824 0.65027 0.0
O46 O 0.87574 0.64642 0.7252 0.0
Fe47 Fe 0.90044 0.5049 0.746 0.0
O48 O 0.82414 0.44683 0.77018 0.0
O49 O 0.75913 0.58595 0.74342 0.0
O50 O 0.78704 0.77376 0.65815 0.0
C51 C 0.8097 0.78118 0.56852 0.0
C52 C 0.8856 0.58356 0.93804 0.0
O53 O 0.86301 0.75424 0.55346 0.0
C54 C 1.01043 0.63018 0.75794 0.0
O55 O 0.85847 0.81188 0.8368 0.0
O56 O 0.89574 0.87917 0.70534 0.0
O57 O 0.91733 0.52973 0.87793 0.0
O58 O 0.83447 0.63045 0.90854 0.0
C59 C 0.90661 0.5376 0.54564 0.0
O60 O 0.98359 0.72452 0.74457 0.0
O61 O 0.98295 0.53786 0.73273 0.0
C62 C 0.86749 0.89714 0.7858 0.0
O63 O 0.94408 0.61624 0.57397 0.0
O64 O 0.88316 0.47704 0.61182 0.0
C65 C 0.76935 0.48286 0.76181 0.0
Fe66 Fe 0.18582 0.50493 0.80232 0.0
Fe67 Fe 0.27397 0.69922 0.76496 0.0
O68 O 0.2105 0.64645 0.82311 0.0
Fe69 Fe 0.16581 0.73828 0.89804 0.0
O70 O 0.14217 0.61629 0.97434 0.0
O71 O 0.2031 0.47708 0.9365 0.0
O72 O 0.26211 0.44686 0.77814 0.0
C73 C 0.3169 0.48287 0.7865 0.0
C74 C 0.07582 0.63019 0.79037 0.0
O75 O 0.32711 0.58596 0.8049 0.0
C76 C 0.21876 0.89717 0.76251 0.0
O77 O 0.16892 0.52976 0.67039 0.0
O78 O 0.25177 0.63048 0.63978 0.0
O79 O 0.10264 0.72454 0.80374 0.0
O80 O 0.1033 0.53788 0.8156 0.0
C81 C 0.27654 0.78121 0.97979 0.0
O82 O 0.22777 0.81191 0.71151 0.0
O83 O 0.19049 0.87921 0.84296 0.0
C84 C 0.20064 0.58359 0.61028 0.0
O85 O 0.2992 0.77377 0.89016 0.0
O86 O 0.22323 0.75429 0.99485 0.0
C87 C 0.17964 0.53765 1.00268 0.0
Fe88 Fe 0.6858 0.10773 0.3023 0.0
Fe89 Fe 0.66584 0.87437 0.39803 0.0
O90 O 0.71051 0.96622 0.32308 0.0
Fe91 Fe 0.77398 0.91348 0.26491 0.0
O92 O 0.82711 1.02673 0.30487 0.0
O93 O 0.76209 0.16583 0.27811 0.0
O94 O 0.70309 0.13559 0.43648 0.0
C95 C 0.67966 0.07501 0.50267 0.0
C96 C 0.70065 1.02916 0.11025 0.0
O97 O 0.64219 0.99636 0.47434 0.0
C98 C 0.71878 0.71559 0.26246 0.0
O99 O 0.60329 0.07475 0.31559 0.0
O100 O 0.60265 0.88809 0.30375 0.0
O101 O 0.75178 0.98225 0.13974 0.0
O102 O 0.6689 0.08291 0.17038 0.0
C103 C 0.77658 0.83151 0.47974 0.0
O104 O 0.69053 0.73344 0.34295 0.0
O105 O 0.7278 0.80079 0.21142 0.0
C106 C 0.57581 0.98243 0.29038 0.0
O107 O 0.72327 0.85839 0.49481 0.0
O108 O 0.79923 0.8389 0.3901 0.0
C109 C 0.81688 0.12981 0.28648 0.0
Fe110 Fe 0.40044 0.10773 0.24601 0.0
Fe111 Fe 0.42041 0.87436 0.1503 0.0
O112 O 0.37573 0.96622 0.22524 0.0
Fe113 Fe 0.31226 0.9135 0.28341 0.0
O114 O 0.25914 1.02676 0.24344 0.0
O115 O 0.32415 0.16584 0.27021 0.0
O116 O 0.38314 0.13559 0.11184 0.0
C117 C 0.40658 0.07501 0.04565 0.0
C118 C 0.38559 1.02916 0.43807 0.0
O119 O 0.44405 0.99635 0.07398 0.0
C120 C 0.36746 0.71559 0.28586 0.0
O121 O 0.48295 0.07474 0.23272 0.0
O122 O 0.48359 0.88808 0.24457 0.0
O123 O 0.33447 0.98227 0.40858 0.0
O124 O 0.41734 0.08291 0.37794 0.0
C125 C 0.30966 0.83152 0.06857 0.0
O126 O 0.39572 0.73344 0.20538 0.0
O127 O 0.35844 0.8008 0.3369 0.0
C128 C 0.51043 0.98243 0.25793 0.0
O129 O 0.36298 0.85838 0.05351 0.0
O130 O 0.28701 0.83893 0.15822 0.0
C131 C 0.26936 0.12984 0.26184 0.0
Fe132 Fe 0.31226 0.19922 0.78338 0.0
Fe133 Fe 0.42042 0.23829 0.65029 0.0
O134 O 0.37574 0.14647 0.72523 0.0
Fe135 Fe 0.40044 1.00494 0.74601 0.0
O136 O 0.32415 0.94685 0.77021 0.0
O137 O 0.25914 0.08596 0.7434 0.0
O138 O 0.28703 0.27379 0.65819 0.0
C139 C 0.30968 0.28121 0.56855 0.0
C140 C 0.3856 0.08357 0.93806 0.0
O141 O 0.36299 0.25429 0.55349 0.0
C142 C 0.51043 0.13022 0.75795 0.0
O143 O 0.35842 0.31193 0.83688 0.0
O144 O 0.39574 0.37922 0.70536 0.0
O145 O 0.41733 1.02977 0.87794 0.0
O146 O 0.33446 0.13045 0.90856 0.0
C147 C 0.4066 1.03765 0.54565 0.0
O148 O 0.48359 0.22457 0.74458 0.0
O149 O 0.48295 1.03791 0.73273 0.0
C150 C 0.36749 0.39713 0.78584 0.0
O151 O 0.44407 0.1163 0.57398 0.0
O152 O 0.38315 0.97709 0.61184 0.0
C153 C 0.26936 0.98288 0.76181 0.0
Fe154 Fe 0.66582 0.2383 0.89802 0.0
Fe155 Fe 0.68581 1.00494 0.8023 0.0
O156 O 0.7105 0.14646 0.82308 0.0
Fe157 Fe 0.77398 0.1992 0.76493 0.0
O158 O 0.79922 0.27377 0.89013 0.0
O159 O 0.72325 0.2543 0.99482 0.0
O160 O 0.64218 0.11631 0.97433 0.0
C161 C 0.67965 1.03766 1.00266 0.0
C162 C 0.71876 0.39712 0.76248 0.0
O163 O 0.7031 0.97709 0.93648 0.0
C164 C 0.70065 0.08357 0.61026 0.0
O165 O 0.60265 0.22458 0.80374 0.0
O166 O 0.6033 1.03792 0.81559 0.0
O167 O 0.72783 0.31192 0.71144 0.0
O168 O 0.6905 0.37922 0.84295 0.0
C169 C 0.81689 0.98285 0.7865 0.0
O170 O 0.66891 1.02977 0.67037 0.0
O171 O 0.75178 0.13043 0.63976 0.0
C172 C 0.57582 0.13023 0.79037 0.0
O173 O 0.7621 0.94684 0.77811 0.0
O174 O 0.8271 0.08593 0.80492 0.0
C175 C 0.77656 0.28119 0.97977 0.0
loop_
_geom_bond_atom_site_label_1
_geom_bond_atom_site_label_2
_geom_bond_distance
_geom_bond_site_symmetry_2
_ccdc_geom_bond_type
Fe0 O2 1.918 . S
Fe0 O5 1.997 . S
Fe0 O6 2.002 . S
Fe0 O11 1.976 . S
Fe0 O14 1.996 . S
Fe1 O2 1.918 . S
Fe1 O9 1.997 . S
Fe1 O12 1.996 . S
Fe1 O16 1.976 . S
Fe1 O19 2.002 . S
O2 Fe0 1.918 . S
O2 Fe1 1.918 . S
O2 Fe3 1.918 . S
Fe3 O2 1.918 . S
Fe3 O4 2.002 . S
Fe3 O13 1.976 . S
Fe3 O17 1.996 . S
Fe3 O20 1.997 . S
O4 Fe3 2.002 . S
O4 C21 1.295 . S
O5 Fe0 1.997 . S
O5 C21 1.235 . S
O6 Fe0 2.002 . S
O6 C7 1.295 . S
C7 O6 1.295 . S
C7 O9 1.235 . S
C8 O13 1.287 . S
C8 O14 1.255 . S
O9 Fe1 1.997 . S
O9 C7 1.235 . S
C10 O16 1.287 . S
C10 O17 1.255 . S
O11 Fe0 1.976 . S
O11 C18 1.287 . S
O12 Fe1 1.996 . S
O12 C18 1.255 . S
O13 Fe3 1.976 . S
O13 C8 1.287 . S
O14 Fe0 1.996 . S
O14 C8 1.255 . S
C15 O19 1.295 . S
C15 O20 1.235 . S
O16 Fe1 1.976 . S
O16 C10 1.287 . S
O17 Fe3 1.996 . S
O17 C10 1.255 . S
C18 O11 1.287 . S
C18 O12 1.255 . S
O19 Fe1 2.002 . S
O19 C15 1.295 . S
O20 Fe3 1.997 . S
O20 C15 1.235 . S
C21 O4 1.295 . S
C21 O5 1.235 . S
Fe22 O24 1.918 . S
Fe22 O27 1.997 . S
Fe22 O28 2.002 . S
Fe22 O33 1.976 . S
Fe22 O36 1.996 . S
Fe23 O24 1.918 . S
Fe23 O31 1.997 . S
Fe23 O34 1.996 . S
Fe23 O38 1.976 . S
Fe23 O41 2.002 . S
O24 Fe22 1.918 . S
O24 Fe23 1.918 . S
O24 Fe25 1.918 . S
Fe25 O24 1.918 . S
Fe25 O26 2.002 . S
Fe25 O35 1.976 . S
Fe25 O39 1.996 . S
Fe25 O42 1.997 . S
O26 Fe25 2.002 . S
O26 C43 1.295 . S
O27 Fe22 1.997 . S
O27 C43 1.235 . S
O28 Fe22 2.002 . S
O28 C29 1.295 . S
C29 O28 1.295 . S
C29 O31 1.235 . S
C30 O35 1.287 . S
C30 O36 1.255 . S
O31 Fe23 1.997 . S
O31 C29 1.235 . S
C32 O38 1.287 . S
C32 O39 1.255 . S
O33 Fe22 1.976 . S
O33 C40 1.287 . S
O34 Fe23 1.996 . S
O34 C40 1.255 . S
O35 Fe25 1.976 . S
O35 C30 1.287 . S
O36 Fe22 1.996 . S
O36 C30 1.255 . S
C37 O41 1.295 . S
C37 O42 1.235 . S
O38 Fe23 1.976 . S
O38 C32 1.287 . S
O39 Fe25 1.996 . S
O39 C32 1.255 . S
C40 O33 1.287 . S
C40 O34 1.255 . S
O41 Fe23 2.002 . S
O41 C37 1.295 . S
O42 Fe25 1.997 . S
O42 C37 1.235 . S
C43 O26 1.295 . S
C43 O27 1.235 . S
Fe44 O46 1.918 . S
Fe44 O49 1.997 . S
Fe44 O50 2.002 . S
Fe44 O55 1.976 . S
Fe44 O58 1.996 . S
Fe45 O46 1.918 . S
Fe45 O53 1.997 . S
Fe45 O56 1.996 . S
Fe45 O60 1.976 . S
Fe45 O63 2.002 . S
O46 Fe44 1.918 . S
O46 Fe45 1.918 . S
O46 Fe47 1.918 . S
Fe47 O46 1.918 . S
Fe47 O48 2.002 . S
Fe47 O57 1.976 . S
Fe47 O61 1.996 . S
Fe47 O64 1.997 . S
O48 Fe47 2.002 . S
O48 C65 1.295 . S
O49 Fe44 1.997 . S
O49 C65 1.235 . S
O50 Fe44 2.002 . S
O50 C51 1.295 . S
C51 O50 1.295 . S
C51 O53 1.235 . S
C52 O57 1.287 . S
C52 O58 1.255 . S
O53 Fe45 1.997 . S
O53 C51 1.235 . S
C54 O60 1.287 . S
C54 O61 1.255 . S
O55 Fe44 1.976 . S
O55 C62 1.287 . S
O56 Fe45 1.996 . S
O56 C62 1.255 . S
O57 Fe47 1.976 . S
O57 C52 1.287 . S
O58 Fe44 1.996 . S
O58 C52 1.255 . S
C59 O63 1.295 . S
C59 O64 1.235 . S
O60 Fe45 1.976 . S
O60 C54 1.287 . S
O61 Fe47 1.996 . S
O61 C54 1.255 . S
C62 O55 1.287 . S
C62 O56 1.255 . S
O63 Fe45 2.002 . S
O63 C59 1.295 . S
O64 Fe47 1.997 . S
O64 C59 1.235 . S
C65 O48 1.295 . S
C65 O49 1.235 . S
Fe66 O68 1.918 . S
Fe66 O71 1.997 . S
Fe66 O72 2.002 . S
Fe66 O77 1.976 . S
Fe66 O80 1.996 . S
Fe67 O68 1.918 . S
Fe67 O75 1.997 . S
Fe67 O78 1.996 . S
Fe67 O82 1.976 . S
Fe67 O85 2.002 . S
O68 Fe66 1.918 . S
O68 Fe67 1.918 . S
O68 Fe69 1.918 . S
Fe69 O68 1.918 . S
Fe69 O70 2.002 . S
Fe69 O79 1.976 . S
Fe69 O83 1.996 . S
Fe69 O86 1.997 . S
O70 Fe69 2.002 . S
O70 C87 1.295 . S
O71 Fe66 1.997 . S
O71 C87 1.235 . S
O72 Fe66 2.002 . S
O72 C73 1.295 . S
C73 O72 1.295 . S
C73 O75 1.235 . S
C74 O79 1.287 . S
C74 O80 1.255 . S
O75 Fe67 1.997 . S
O75 C73 1.235 . S
C76 O82 1.287 . S
C76 O83 1.255 . S
O77 Fe66 1.976 . S
O77 C84 1.287 . S
O78 Fe67 1.996 . S
O78 C84 1.255 . S
O79 Fe69 1.976 . S
O79 C74 1.287 . S
O80 Fe66 1.996 . S
O80 C74 1.255 . S
C81 O85 1.295 . S
C81 O86 1.235 . S
O82 Fe67 1.976 . S
O82 C76 1.287 . S
O83 Fe69 1.996 . S
O83 C76 1.255 . S
C84 O77 1.287 . S
C84 O78 1.255 . S
O85 Fe67 2.002 . S
O85 C81 1.295 . S
O86 Fe69 1.997 . S
O86 C81 1.235 . S
C87 O70 1.295 . S
C87 O71 1.235 . S
Fe88 O90 1.918 . S
Fe88 O93 1.997 1_565 S
Fe88 O94 2.002 1_565 S
Fe88 O99 1.976 . S
Fe88 O102 1.996 . S
Fe89 O90 1.918 . S
Fe89 O97 1.997 . S
Fe89 O100 1.996 . S
Fe89 O104 1.976 . S
Fe89 O107 2.002 . S
O90 Fe88 1.918 . S
O90 Fe89 1.918 . S
O90 Fe91 1.918 . S
Fe91 O90 1.918 . S
Fe91 O92 2.002 . S
Fe91 O101 1.976 . S
Fe91 O105 1.996 . S
Fe91 O108 1.997 . S
O92 Fe91 2.002 . S
O92 C109 1.295 1_565 S
O93 Fe88 1.997 1_545 S
O93 C109 1.235 . S
O94 Fe88 2.002 1_545 S
O94 C95 1.295 1_545 S
C95 O94 1.295 1_565 S
C95 O97 1.235 . S
C96 O101 1.287 . S
C96 O102 1.255 . S
O97 Fe89 1.997 . S
O97 C95 1.235 . S
C98 O104 1.287 . S
C98 O105 1.255 . S
O99 Fe88 1.976 . S
O99 C106 1.287 . S
O100 Fe89 1.996 . S
O100 C106 1.255 . S
O101 Fe91 1.976 . S
O101 C96 1.287 . S
O102 Fe88 1.996 . S
O102 C96 1.255 . S
C103 O107 1.295 . S
C103 O108 1.235 . S
O104 Fe89 1.976 . S
O104 C98 1.287 . S
O105 Fe91 1.996 . S
O105 C98 1.255 . S
C106 O99 1.287 . S
C106 O100 1.255 . S
O107 Fe89 2.002 . S
O107 C103 1.295 . S
O108 Fe91 1.997 . S
O108 C103 1.235 . S
C109 O92 1.295 1_545 S
C109 O93 1.235 . S
Fe110 O112 1.918 . S
Fe110 O115 1.997 1_565 S
Fe110 O116 2.002 1_565 S
Fe110 O121 1.976 . S
Fe110 O124 1.996 . S
Fe111 O112 1.918 . S
Fe111 O119 1.997 . S
Fe111 O122 1.996 . S
Fe111 O126 1.976 . S
Fe111 O129 2.002 . S
O112 Fe110 1.918 . S
O112 Fe111 1.918 . S
O112 Fe113 1.918 . S
Fe113 O112 1.918 . S
Fe113 O114 2.002 . S
Fe113 O123 1.976 . S
Fe113 O127 1.996 . S
Fe113 O130 1.997 . S
O114 Fe113 2.002 . S
O114 C131 1.295 1_565 S
O115 Fe110 1.997 1_545 S
O115 C131 1.235 . S
O116 Fe110 2.002 1_545 S
O116 C117 1.295 1_545 S
C117 O116 1.295 1_565 S
C117 O119 1.235 . S
C118 O123 1.287 . S
C118 O124 1.255 . S
O119 Fe111 1.997 . S
O119 C117 1.235 . S
C120 O126 1.287 . S
C120 O127 1.255 . S
O121 Fe110 1.976 . S
O121 C128 1.287 . S
O122 Fe111 1.996 . S
O122 C128 1.255 . S
O123 Fe113 1.976 . S
O123 C118 1.287 . S
O124 Fe110 1.996 . S
O124 C118 1.255 . S
C125 O129 1.295 . S
C125 O130 1.235 . S
O126 Fe111 1.976 . S
O126 C120 1.287 . S
O127 Fe113 1.996 . S
O127 C120 1.255 . S
C128 O121 1.287 . S
C128 O122 1.255 . S
O129 Fe111 2.002 . S
O129 C125 1.295 . S
O130 Fe113 1.997 . S
O130 C125 1.235 . S
C131 O114 1.295 1_545 S
C131 O115 1.235 . S
Fe132 O134 1.918 . S
Fe132 O137 1.997 . S
Fe132 O138 2.002 . S
Fe132 O143 1.976 . S
Fe132 O146 1.996 . S
Fe133 O134 1.918 . S
Fe133 O141 1.997 . S
Fe133 O144 1.996 . S
Fe133 O148 1.976 . S
Fe133 O151 2.002 . S
O134 Fe132 1.918 . S
O134 Fe133 1.918 . S
O134 Fe135 1.918 . S
Fe135 O134 1.918 . S
Fe135 O136 2.002 1_545 S
Fe135 O145 1.976 . S
Fe135 O149 1.996 . S
Fe135 O152 1.997 1_545 S
O136 Fe135 2.002 1_565 S
O136 C153 1.295 . S
O137 Fe132 1.997 . S
O137 C153 1.235 1_545 S
O138 Fe132 2.002 . S
O138 C139 1.295 . S
C139 O138 1.295 . S
C139 O141 1.235 . S
C140 O145 1.287 . S
C140 O146 1.255 . S
O141 Fe133 1.997 . S
O141 C139 1.235 . S
C142 O148 1.287 . S
C142 O149 1.255 . S
O143 Fe132 1.976 . S
O143 C150 1.287 . S
O144 Fe133 1.996 . S
O144 C150 1.255 . S
O145 Fe135 1.976 . S
O145 C140 1.287 . S
O146 Fe132 1.996 . S
O146 C140 1.255 . S
C147 O151 1.295 . S
C147 O152 1.235 1_545 S
O148 Fe133 1.976 . S
O148 C142 1.287 . S
O149 Fe135 1.996 . S
O149 C142 1.255 . S
C150 O143 1.287 . S
C150 O144 1.255 . S
O151 Fe133 2.002 . S
O151 C147 1.295 . S
O152 Fe135 1.997 1_565 S
O152 C147 1.235 1_565 S
C153 O136 1.295 . S
C153 O137 1.235 1_565 S
Fe154 O156 1.918 . S
Fe154 O159 1.997 . S
Fe154 O160 2.002 . S
Fe154 O165 1.976 . S
Fe154 O168 1.996 . S
Fe155 O156 1.918 . S
Fe155 O163 1.997 1_545 S
Fe155 O166 1.996 . S
Fe155 O170 1.976 . S
Fe155 O173 2.002 1_545 S
O156 Fe154 1.918 . S
O156 Fe155 1.918 . S
O156 Fe157 1.918 . S
Fe157 O156 1.918 . S
Fe157 O158 2.002 . S
Fe157 O167 1.976 . S
Fe157 O171 1.996 . S
Fe157 O174 1.997 . S
O158 Fe157 2.002 . S
O158 C175 1.295 . S
O159 Fe154 1.997 . S
O159 C175 1.235 . S
O160 Fe154 2.002 . S
O160 C161 1.295 . S
C161 O160 1.295 . S
C161 O163 1.235 1_545 S
C162 O167 1.287 . S
C162 O168 1.255 . S
O163 Fe155 1.997 1_565 S
O163 C161 1.235 1_565 S
C164 O170 1.287 . S
C164 O171 1.255 . S
O165 Fe154 1.976 . S
O165 C172 1.287 . S
O166 Fe155 1.996 . S
O166 C172 1.255 . S
O167 Fe157 1.976 . S
O167 C162 1.287 . S
O168 Fe154 1.996 . S
O168 C162 1.255 . S
C169 O173 1.295 . S
C169 O174 1.235 1_565 S
O170 Fe155 1.976 . S
O170 C164 1.287 . S
O171 Fe157 1.996 . S
O171 C164 1.255 . S
C172 O165 1.287 . S
C172 O166 1.255 . S
O173 Fe155 2.002 1_565 S
O173 C169 1.295 . S
O174 Fe157 1.997 . S
O174 C169 1.235 1_545 S
C175 O158 1.295 . S
C175 O159 1.235 . S
C139 C15 1.997 . S
C175 C37 1.997 1_556 S
C103 C51 1.997 . S
C125 C81 1.997 1_554 S
C131 C10 1.863 . S
C109 C32 1.863 . S
C62 C169 1.934 . S
C153 C76 1.934 . S
C43 C98 1.863 . S
C120 C21 1.863 . S
C150 C73 1.934 . S
C65 C162 1.934 . S
C18 C40 1.466 1_455 S
C74 C54 1.449 1_455 S
C128 C106 1.466 . S
C172 C142 1.449 . S
C87 C8 1.859 1_556 S
C30 C59 1.859 . S
C52 C29 1.898 1_556 S
C7 C84 1.898 . S
C161 C96 1.859 1_546 S
C147 C118 1.859 1_545 S
C117 C140 1.898 1_564 S
C164 C95 1.898 1_545 S
