# Generated by pormake.
# Topology uni, (4)-cn, num edge types: 1
# Building blocks:
#     Node 0, Type 0, BuildingBlock: GALJAG_clean_sbu_0, # of connection points: 4
#     Node 1, Type 0, BuildingBlock: GALJAG_clean_sbu_0, # of connection points: 4
#     Node 2, Type 0, BuildingBlock: GALJAG_clean_sbu_0, # of connection points: 4
#     Node 3, Type 0, BuildingBlock: GALJAG_clean_sbu_0, # of connection points: 4
#     Node 4, Type 0, BuildingBlock: GALJAG_clean_sbu_0, # of connection points: 4
#     Node 5, Type 0, BuildingBlock: GALJAG_clean_sbu_0, # of connection points: 4
#     Edge 6, Type (0, 0), None
#     Edge 7, Type (0, 0), None
#     Edge 8, Type (0, 0), None
#     Edge 9, Type (0, 0), None
#     Edge 10, Type (0, 0), None
#     Edge 11, Type (0, 0), None
#     Edge 12, Type (0, 0), None
#     Edge 13, Type (0, 0), None
#     Edge 14, Type (0, 0), None
#     Edge 15, Type (0, 0), None
#     Edge 16, Type (0, 0), None
#     Edge 17, Type (0, 0), None
# Relax obj value: 0.070
# Max RMSD: 0.134
# Mean RMSD: 0.134
data_MOF--net-uni--node1-GALJAG_clean_sbu_0--edge1-none
_symmetry_space_group_name_H-M    P1
_symmetry_Int_Tables_number       1
_symmetry_cell_setting            triclinic
loop_
_symmetry_equiv_pos_as_xyz
'x, y, z'
_cell_length_a     17.686408
_cell_length_b     17.686869
_cell_length_c     10.216866
_cell_angle_alpha  89.999458
_cell_angle_beta   90.001055
_cell_angle_gamma 120.00024
loop_
_atom_site_label
_atom_site_type_symbol
_atom_site_fract_x
_atom_site_fract_y
_atom_site_fract_z
_atom_type_partial_charge
In0 In 0.61379 -0.00867 0.11023 0.0
O1 O 0.50729 0.91601 0.95583 0.0
O2 O 0.56172 0.05369 0.97077 0.0
C3 C 0.6426 0.85988 0.17406 0.0
C4 C 0.77405 0.12278 1.04644 0.0
C5 C 0.51599 -0.00116 0.30627 0.0
O6 O 0.62734 0.8729 1.05796 0.0
O7 O 0.64654 0.91458 0.2566 0.0
O8 O 0.58262 0.06665 0.26464 0.0
O9 O 0.49932 0.92899 0.2496 0.0
C10 C 0.50851 -0.01616 0.91414 0.0
O11 O 0.74576 0.10979 0.16252 0.0
O12 O 0.72332 0.06806 0.9639 0.0
In13 In 0.61379 0.62001 0.27688 0.0
O14 O 0.5826 0.51351 0.12249 0.0
O15 O 0.49936 0.56795 0.1374 0.0
C16 C 0.77404 0.64882 0.34072 0.0
C17 C 0.64256 0.78025 0.21308 0.0
C18 C 0.50847 0.5222 0.47291 0.0
O19 O 0.74577 0.63356 0.22462 0.0
O20 O 0.72328 0.65277 0.42326 0.0
O21 O 0.50729 0.58883 0.43128 0.0
O22 O 0.56166 0.50554 0.41625 0.0
C23 C 0.516 0.51473 0.08078 0.0
O24 O 0.62727 0.75196 0.32916 0.0
O25 O 0.64661 0.72954 0.13055 0.0
In26 In -0.01489 0.62002 0.44356 0.0
O27 O 0.06043 0.58884 0.28917 0.0
O28 O 0.92275 0.50559 0.3041 0.0
C29 C 0.11655 0.78028 0.50739 0.0
C30 C 0.85364 0.64879 0.37975 0.0
C31 C -0.02239 0.51471 0.63961 0.0
O32 O 0.10355 0.75201 0.3913 0.0
O33 O 0.06185 0.72952 0.58993 0.0
O34 O 0.90979 0.51353 0.59797 0.0
O35 O 0.04746 0.56789 0.58294 0.0
C36 C -0.00739 0.52223 0.24748 0.0
O37 O 0.86663 0.6335 0.49584 0.0
O38 O 0.9084 0.65283 0.29722 0.0
In39 In 0.35642 -0.00866 0.61022 0.0
O40 O 0.22447 0.87286 0.66251 0.0
O41 O 0.24689 0.91463 0.46389 0.0
C42 C 0.45423 -0.01616 0.80628 0.0
C43 C 0.4617 -0.00117 0.41413 0.0
C44 C 0.32761 0.12278 0.67405 0.0
O45 O 0.3876 0.91602 0.76463 0.0
O46 O 0.4709 0.05369 0.74961 0.0
O47 O 0.34287 0.10977 0.55796 0.0
O48 O 0.32366 0.06807 0.75659 0.0
C49 C 0.19618 0.85987 0.54642 0.0
O50 O 0.46294 0.06666 0.45584 0.0
O51 O 0.40849 0.92898 0.47075 0.0
In52 In 0.35641 0.36264 0.77687 0.0
O53 O 0.34294 0.23069 0.82916 0.0
O54 O 0.32359 0.25312 0.63054 0.0
C55 C 0.46172 0.46045 0.97292 0.0
C56 C 0.45419 0.46792 0.58078 0.0
C57 C 0.19616 0.33383 0.84072 0.0
O58 O 0.46291 0.39382 0.93128 0.0
O59 O 0.40854 0.47712 0.91625 0.0
O60 O 0.22442 0.34909 0.72462 0.0
O61 O 0.24692 0.32989 0.92325 0.0
C62 C 0.32764 0.20241 0.71308 0.0
O63 O 0.38759 0.46914 0.62248 0.0
O64 O 0.47084 0.41471 0.6374 0.0
In65 In -0.0149 0.36265 0.94357 0.0
O66 O 0.10358 0.34917 0.99584 0.0
O67 O 0.0618 0.32982 0.79723 0.0
C68 C -0.00739 0.46795 0.13962 0.0
C69 C -0.02239 0.46043 0.74747 0.0
C70 C 0.85365 0.20242 1.00741 0.0
O71 O 0.06042 0.46914 0.09797 0.0
O72 O 0.92275 0.41477 0.08295 0.0
O73 O 0.86665 0.23067 0.89131 0.0
O74 O 0.90838 0.25315 0.08994 0.0
C75 C 0.11656 0.33387 0.87975 0.0
O76 O 0.90978 0.39384 0.78918 0.0
O77 O 0.04747 0.47707 0.80409 0.0
loop_
_geom_bond_atom_site_label_1
_geom_bond_atom_site_label_2
_geom_bond_distance
_geom_bond_site_symmetry_2
_ccdc_geom_bond_type
In0 O1 2.294 1_544 S
In0 O2 2.326 1_554 S
In0 O6 2.266 1_545 S
In0 O7 2.326 1_545 S
In0 O8 2.266 . S
In0 O9 2.326 1_545 S
In0 O11 2.294 . S
In0 O12 2.326 1_554 S
O1 In0 2.294 1_566 S
O1 C10 1.240 1_565 S
O2 In0 2.326 1_556 S
O2 C10 1.252 . S
C3 O6 1.252 . S
C3 O7 1.260 . S
C4 O11 1.240 1_556 S
C4 O12 1.252 . S
C5 O8 1.252 1_565 S
C5 O9 1.260 . S
O6 In0 2.266 1_565 S
O6 C3 1.252 . S
O7 In0 2.326 1_565 S
O7 C3 1.260 . S
O8 In0 2.266 . S
O8 C5 1.252 1_545 S
O9 In0 2.326 1_565 S
O9 C5 1.260 . S
C10 O1 1.240 1_545 S
C10 O2 1.252 . S
O11 In0 2.294 . S
O11 C4 1.240 1_554 S
O12 In0 2.326 1_556 S
O12 C4 1.252 . S
In13 O14 2.294 . S
In13 O15 2.326 . S
In13 O19 2.266 . S
In13 O20 2.326 . S
In13 O21 2.266 . S
In13 O22 2.326 . S
In13 O24 2.294 . S
In13 O25 2.326 . S
O14 In13 2.294 . S
O14 C23 1.240 . S
O15 In13 2.326 . S
O15 C23 1.252 . S
C16 O19 1.252 . S
C16 O20 1.260 . S
C17 O24 1.240 . S
C17 O25 1.252 . S
C18 O21 1.252 . S
C18 O22 1.260 . S
O19 In13 2.266 . S
O19 C16 1.252 . S
O20 In13 2.326 . S
O20 C16 1.260 . S
O21 In13 2.266 . S
O21 C18 1.252 . S
O22 In13 2.326 . S
O22 C18 1.260 . S
C23 O14 1.240 . S
C23 O15 1.252 . S
O24 In13 2.294 . S
O24 C17 1.240 . S
O25 In13 2.326 . S
O25 C17 1.252 . S
In26 O27 2.294 . S
In26 O28 2.326 1_455 S
In26 O32 2.266 . S
In26 O33 2.326 . S
In26 O34 2.266 1_455 S
In26 O35 2.326 . S
In26 O37 2.294 1_455 S
In26 O38 2.326 1_455 S
O27 In26 2.294 . S
O27 C36 1.240 1_455 S
O28 In26 2.326 1_655 S
O28 C36 1.252 . S
C29 O32 1.252 . S
C29 O33 1.260 . S
C30 O37 1.240 . S
C30 O38 1.252 . S
C31 O34 1.252 1_455 S
C31 O35 1.260 . S
O32 In26 2.266 . S
O32 C29 1.252 . S
O33 In26 2.326 . S
O33 C29 1.260 . S
O34 In26 2.266 1_655 S
O34 C31 1.252 1_655 S
O35 In26 2.326 . S
O35 C31 1.260 . S
C36 O27 1.240 1_655 S
C36 O28 1.252 . S
O37 In26 2.294 1_655 S
O37 C30 1.240 . S
O38 In26 2.326 1_655 S
O38 C30 1.252 . S
In39 O40 2.294 1_545 S
In39 O41 2.326 1_545 S
In39 O45 2.266 1_545 S
In39 O46 2.326 . S
In39 O47 2.266 . S
In39 O48 2.326 . S
In39 O50 2.294 . S
In39 O51 2.326 1_545 S
O40 In39 2.294 1_565 S
O40 C49 1.240 . S
O41 In39 2.326 1_565 S
O41 C49 1.252 . S
C42 O45 1.252 1_545 S
C42 O46 1.260 . S
C43 O50 1.240 1_565 S
C43 O51 1.252 . S
C44 O47 1.252 . S
C44 O48 1.260 . S
O45 In39 2.266 1_565 S
O45 C42 1.252 1_565 S
O46 In39 2.326 . S
O46 C42 1.260 . S
O47 In39 2.266 . S
O47 C44 1.252 . S
O48 In39 2.326 . S
O48 C44 1.260 . S
C49 O40 1.240 . S
C49 O41 1.252 . S
O50 In39 2.294 . S
O50 C43 1.240 1_545 S
O51 In39 2.326 1_565 S
O51 C43 1.252 . S
In52 O53 2.294 . S
In52 O54 2.326 . S
In52 O58 2.266 . S
In52 O59 2.326 . S
In52 O60 2.266 . S
In52 O61 2.326 . S
In52 O63 2.294 . S
In52 O64 2.326 . S
O53 In52 2.294 . S
O53 C62 1.240 . S
O54 In52 2.326 . S
O54 C62 1.252 . S
C55 O58 1.252 . S
C55 O59 1.260 . S
C56 O63 1.240 . S
C56 O64 1.252 . S
C57 O60 1.252 . S
C57 O61 1.260 . S
O58 In52 2.266 . S
O58 C55 1.252 . S
O59 In52 2.326 . S
O59 C55 1.260 . S
O60 In52 2.266 . S
O60 C57 1.252 . S
O61 In52 2.326 . S
O61 C57 1.260 . S
C62 O53 1.240 . S
C62 O54 1.252 . S
O63 In52 2.294 . S
O63 C56 1.240 . S
O64 In52 2.326 . S
O64 C56 1.252 . S
In65 O66 2.294 . S
In65 O67 2.326 . S
In65 O71 2.266 1_556 S
In65 O72 2.326 1_455 S
In65 O73 2.266 1_455 S
In65 O74 2.326 1_456 S
In65 O76 2.294 1_455 S
In65 O77 2.326 . S
O66 In65 2.294 . S
O66 C75 1.240 . S
O67 In65 2.326 . S
O67 C75 1.252 . S
C68 O71 1.252 1_655 S
C68 O72 1.260 1_554 S
C69 O76 1.240 1_455 S
C69 O77 1.252 . S
C70 O73 1.252 . S
C70 O74 1.260 1_556 S
O71 In65 2.266 1_554 S
O71 C68 1.252 1_455 S
O72 In65 2.326 1_655 S
O72 C68 1.260 1_556 S
O73 In65 2.266 1_655 S
O73 C70 1.252 . S
O74 In65 2.326 1_654 S
O74 C70 1.260 1_554 S
C75 O66 1.240 . S
C75 O67 1.252 . S
O76 In65 2.294 1_655 S
O76 C69 1.240 1_655 S
O77 In65 2.326 . S
O77 C69 1.252 . S
C5 C43 1.766 . S
C18 C56 1.766 . S
C69 C31 1.766 . S
C10 C42 1.766 . S
C23 C55 1.766 1_554 S
C68 C36 1.766 . S
C17 C3 1.568 . S
C30 C16 1.568 . S
C29 C49 1.568 . S
C62 C44 1.568 . S
C75 C57 1.567 . S
C70 C4 1.568 . S
