# Generated by pormake.
# Topology sqp, (5)-cn, num edge types: 1
# Building blocks:
#     Node 0, Type 0, BuildingBlock: BEQFEK_clean_sbu_0, # of connection points: 5
#     Node 1, Type 0, BuildingBlock: BEQFEK_clean_sbu_0, # of connection points: 5
#     Node 2, Type 0, BuildingBlock: BEQFEK_clean_sbu_0, # of connection points: 5
#     Node 3, Type 0, BuildingBlock: BEQFEK_clean_sbu_0, # of connection points: 5
#     Edge 4, Type (0, 0), None
#     Edge 5, Type (0, 0), None
#     Edge 6, Type (0, 0), None
#     Edge 7, Type (0, 0), None
#     Edge 8, Type (0, 0), None
#     Edge 9, Type (0, 0), None
#     Edge 10, Type (0, 0), None
#     Edge 11, Type (0, 0), None
#     Edge 12, Type (0, 0), None
#     Edge 13, Type (0, 0), None
# Relax obj value: 0.030
# Max RMSD: 0.075
# Mean RMSD: 0.075
data_MOF--net-sqp--node1-BEQFEK_clean_sbu_0--edge1-none
_symmetry_space_group_name_H-M    P1
_symmetry_Int_Tables_number       1
_symmetry_cell_setting            triclinic
loop_
_symmetry_equiv_pos_as_xyz
'x, y, z'
_cell_length_a     12.780177
_cell_length_b     12.780853
_cell_length_c     18.877619
_cell_angle_alpha  96.060699
_cell_angle_beta   96.059439
_cell_angle_gamma 111.08241
loop_
_atom_site_label
_atom_site_type_symbol
_atom_site_fract_x
_atom_site_fract_y
_atom_site_fract_z
_atom_type_partial_charge
Co0 Co 0.09612 0.90419 0.30029 0.0
Co1 Co 0.95013 0.05693 0.29902 0.0
C2 C 0.84175 0.81546 0.24097 0.0
O3 O 0.93667 0.8046 0.25577 0.0
O4 O 0.83218 0.91124 0.25278 0.0
C5 C 0.1853 0.79666 0.20371 0.0
O6 O 0.10923 0.81872 0.16209 0.0
C7 C 0.82869 0.20426 0.25262 0.0
C8 C 0.88088 0.33556 0.34927 0.0
C9 C 0.81955 0.30507 0.28044 0.0
N10 N 0.89432 0.17753 0.30261 0.0
N11 N 0.92471 0.25639 0.36021 0.0
C12 C 0.77351 0.13324 0.18081 0.0
H13 H 0.80167 0.06099 0.1717 0.0
H14 H 0.79446 0.18593 0.13736 0.0
H15 H 0.67996 0.10037 0.17849 0.0
C16 C 0.25528 0.10973 0.25995 0.0
N17 N 0.14947 0.04465 0.26782 0.0
N18 N 0.08072 0.09705 0.25275 0.0
C19 C 0.1383 0.19276 0.22751 0.0
C20 C 0.25251 0.20623 0.23293 0.0
C21 C 0.35707 0.08772 0.29042 0.0
H22 H 0.33868 0.04293 0.33763 0.0
H23 H 0.37628 0.03125 0.24946 0.0
H24 H 0.43196 0.168 0.30734 0.0
O25 O 0.09929 0.93394 0.40363 0.0
O26 O 0.99499 0.04173 0.40228 0.0
H27 H 0.06301 0.31808 0.23044 0.0
H28 H 0.13386 0.30867 0.15282 0.0
C29 C 0.08117 0.25986 0.19013 0.0
H30 H 0.99934 0.20124 0.15826 0.0
H31 H 0.97666 0.25686 0.40686 0.0
O32 O 0.19676 0.82411 0.27166 0.0
C33 C 0.05183 0.99292 0.43613 0.0
Co34 Co 0.15214 0.9602 0.65066 0.0
Co35 Co 0.99937 0.10617 0.65193 0.0
C36 C 0.24085 0.21457 0.70999 0.0
O37 O 0.25173 0.11965 0.69518 0.0
O38 O 0.14507 0.22412 0.69817 0.0
C39 C 0.25966 0.87101 0.74724 0.0
O40 O 0.2376 0.94708 0.78886 0.0
C41 C 0.85204 0.22761 0.69833 0.0
C42 C 0.72074 0.17543 0.60168 0.0
C43 C 0.75124 0.23675 0.67051 0.0
N44 N 0.87877 0.16198 0.64834 0.0
N45 N 0.79991 0.13159 0.59074 0.0
C46 C 0.92307 0.28279 0.77014 0.0
H47 H 0.99532 0.25463 0.77925 0.0
H48 H 0.87037 0.26184 0.81359 0.0
H49 H 0.95595 0.37633 0.77246 0.0
C50 C 0.9466 0.80104 0.691 0.0
N51 N 1.01167 0.90685 0.68313 0.0
N52 N 0.95926 0.97559 0.6982 0.0
C53 C 0.86355 0.91801 0.72344 0.0
C54 C 0.85009 0.80381 0.71802 0.0
C55 C 0.96861 0.69926 0.66053 0.0
H56 H 1.0134 0.71766 0.61331 0.0
H57 H 0.02508 0.68006 0.70149 0.0
H58 H 0.88833 0.62437 0.64361 0.0
O59 O 0.12239 0.95704 0.54732 0.0
O60 O 1.01458 0.06132 0.54867 0.0
H61 H 0.73822 0.99328 0.72051 0.0
H62 H 0.74762 0.92244 0.79813 0.0
C63 C 0.79643 0.97513 0.76081 0.0
H64 H 0.85506 0.05696 0.79268 0.0
H65 H 0.79944 0.07964 0.54409 0.0
O66 O 0.23222 0.85957 0.67929 0.0
C67 C 0.0634 1.00449 0.51482 0.0
Co68 Co 0.59616 0.40422 0.80029 0.0
Co69 Co 0.45017 0.55697 0.79902 0.0
C70 C 0.34179 0.31551 0.74095 0.0
O71 O 0.43671 0.30464 0.75576 0.0
O72 O 0.33223 0.41128 0.75276 0.0
C73 C 0.68535 0.29671 0.70371 0.0
O74 O 0.60928 0.31878 0.6621 0.0
C75 C 0.32875 0.70431 0.75261 0.0
C76 C 0.38092 0.83559 0.84927 0.0
C77 C 0.31961 0.80512 0.78044 0.0
N78 N 0.39436 0.67757 0.80261 0.0
N79 N 0.42474 0.75642 0.86021 0.0
C80 C 0.27359 0.6333 0.68081 0.0
H81 H 0.30174 0.56105 0.67169 0.0
H82 H 0.29455 0.686 0.63736 0.0
H83 H 0.18004 0.60044 0.67847 0.0
C84 C 0.75535 0.6098 0.76002 0.0
N85 N 0.64952 0.5447 0.76784 0.0
N86 N 0.58078 0.5971 0.75276 0.0
C87 C 0.63839 0.69284 0.72758 0.0
C88 C 0.75261 0.70634 0.73305 0.0
C89 C 0.85712 0.58778 0.79051 0.0
H90 H 0.8387 0.54299 0.83772 0.0
H91 H 0.87634 0.5313 0.74956 0.0
H92 H 0.93202 0.66805 0.80744 0.0
O93 O 0.5993 0.43394 0.90363 0.0
O94 O 0.49501 0.54175 0.90228 0.0
H95 H 0.56312 0.81818 0.7305 0.0
H96 H 0.63399 0.80877 0.65288 0.0
C97 C 0.58128 0.75996 0.69019 0.0
H98 H 0.49945 0.70135 0.65831 0.0
H99 H 0.47668 0.75688 0.90687 0.0
O100 O 0.6968 0.32415 0.77166 0.0
C101 C 0.55184 0.49293 0.93613 0.0
Co102 Co 0.65211 0.46017 0.15066 0.0
Co103 Co 0.49933 0.60613 0.15193 0.0
C104 C 0.74081 0.71452 0.21 0.0
O105 O 0.75169 0.61961 0.19519 0.0
O106 O 0.64503 0.72407 0.19818 0.0
C107 C 0.75961 0.37097 0.24724 0.0
O108 O 0.73754 0.44703 0.28886 0.0
C109 C 0.35199 0.72756 0.19833 0.0
C110 C 0.22071 0.67539 0.10168 0.0
C111 C 0.25119 0.7367 0.17051 0.0
N112 N 0.37873 0.66194 0.14834 0.0
N113 N 0.29988 0.63156 0.09074 0.0
C114 C 0.42301 0.78271 0.27014 0.0
H115 H 0.49526 0.75456 0.27926 0.0
H116 H 0.3703 0.76175 0.31359 0.0
H117 H 0.45588 0.87626 0.27248 0.0
C118 C 0.44652 0.30097 0.19093 0.0
N119 N 0.51162 0.40679 0.1831 0.0
N120 N 0.45921 0.47553 0.19819 0.0
C121 C 0.36347 0.41792 0.22337 0.0
C122 C 0.34997 0.30371 0.2179 0.0
C123 C 0.46855 0.19921 0.16044 0.0
H124 H 0.51335 0.21763 0.11322 0.0
H125 H 0.52503 0.18 0.20139 0.0
H126 H 0.38828 0.12431 0.1435 0.0
O127 O 0.62238 0.45703 0.04732 0.0
O128 O 0.51456 0.5613 0.04867 0.0
H129 H 0.23811 0.49317 0.22045 0.0
H130 H 0.24753 0.42232 0.29807 0.0
C131 C 0.29633 0.47502 0.26076 0.0
H132 H 0.35495 0.55685 0.29263 0.0
H133 H 0.29942 0.57962 0.04408 0.0
O134 O 0.73218 0.35953 0.17929 0.0
C135 C 0.56339 0.50448 0.01482 0.0
loop_
_geom_bond_atom_site_label_1
_geom_bond_atom_site_label_2
_geom_bond_distance
_geom_bond_site_symmetry_2
_ccdc_geom_bond_type
Co0 O3 1.970 1_455 S
Co0 N17 1.989 1_565 S
Co0 O25 1.967 . S
Co0 O32 1.920 . S
Co1 O4 1.966 1_545 S
Co1 N10 2.022 . S
Co1 N18 1.993 1_655 S
Co1 O26 1.941 . S
C2 O3 1.258 . S
C2 O4 1.263 . S
O3 Co0 1.970 1_655 S
O3 C2 1.258 . S
O4 Co1 1.966 1_565 S
O4 C2 1.263 . S
C5 O6 1.235 . S
C5 O32 1.289 . S
O6 C5 1.235 . S
C7 C9 1.400 . S
C7 N10 1.351 . S
C7 C12 1.501 . S
C8 C9 1.387 . S
C8 N11 1.341 . S
C9 C7 1.400 . S
C9 C8 1.387 . S
N10 Co1 2.022 . S
N10 C7 1.351 . S
N10 N11 1.365 . S
N11 C8 1.341 . S
N11 N10 1.365 . S
N11 H31 0.862 . S
C12 C7 1.501 . S
C12 H13 0.961 1_545 S
C12 H14 0.961 . S
C12 H15 0.960 . S
H13 C12 0.961 1_565 S
H14 C12 0.961 . S
H15 C12 0.960 . S
C16 N17 1.342 . S
C16 C20 1.401 . S
C16 C21 1.499 . S
N17 Co0 1.989 1_545 S
N17 C16 1.342 . S
N17 N18 1.388 . S
N18 Co1 1.993 1_455 S
N18 N17 1.388 . S
N18 C19 1.346 . S
C19 N18 1.346 . S
C19 C20 1.396 . S
C19 C29 1.510 . S
C20 C16 1.401 . S
C20 C19 1.396 . S
C21 C16 1.499 . S
C21 H22 0.959 . S
C21 H23 0.960 . S
C21 H24 0.961 . S
H22 C21 0.959 . S
H23 C21 0.960 . S
H24 C21 0.961 . S
O25 Co0 1.967 . S
O25 C33 1.258 . S
O26 Co1 1.941 . S
O26 C33 1.266 1_645 S
H27 C29 0.959 . S
H28 C29 0.961 . S
C29 C19 1.510 . S
C29 H27 0.959 . S
C29 H28 0.961 . S
C29 H30 0.960 . S
H30 C29 0.960 . S
H31 N11 0.862 . S
O32 Co0 1.920 . S
O32 C5 1.289 . S
C33 O25 1.258 . S
C33 O26 1.266 1_465 S
Co34 O37 1.970 1_565 S
Co34 N51 1.989 1_455 S
Co34 O59 1.967 . S
Co34 O66 1.920 . S
Co35 O38 1.966 1_655 S
Co35 N44 2.022 . S
Co35 N52 1.993 1_545 S
Co35 O60 1.941 . S
C36 O37 1.258 . S
C36 O38 1.263 . S
O37 Co34 1.970 1_545 S
O37 C36 1.258 . S
O38 Co35 1.966 1_455 S
O38 C36 1.263 . S
C39 O40 1.235 . S
C39 O66 1.289 . S
O40 C39 1.235 . S
C41 C43 1.400 . S
C41 N44 1.351 . S
C41 C46 1.501 . S
C42 C43 1.387 . S
C42 N45 1.341 . S
C43 C41 1.400 . S
C43 C42 1.387 . S
N44 Co35 2.022 . S
N44 C41 1.351 . S
N44 N45 1.365 . S
N45 C42 1.341 . S
N45 N44 1.365 . S
N45 H65 0.862 . S
C46 C41 1.501 . S
C46 H47 0.961 1_655 S
C46 H48 0.961 . S
C46 H49 0.960 1_655 S
H47 C46 0.961 1_455 S
H48 C46 0.961 . S
H49 C46 0.960 1_455 S
C50 N51 1.342 . S
C50 C54 1.401 . S
C50 C55 1.499 . S
N51 Co34 1.989 1_655 S
N51 C50 1.342 . S
N51 N52 1.388 . S
N52 Co35 1.993 1_565 S
N52 N51 1.388 . S
N52 C53 1.346 . S
C53 N52 1.346 . S
C53 C54 1.396 . S
C53 C63 1.510 . S
C54 C50 1.401 . S
C54 C53 1.396 . S
C55 C50 1.499 . S
C55 H56 0.959 1_655 S
C55 H57 0.960 . S
C55 H58 0.961 . S
H56 C55 0.959 1_455 S
H57 C55 0.960 . S
H58 C55 0.961 . S
O59 Co34 1.967 . S
O59 C67 1.258 1_565 S
O60 Co35 1.941 . S
O60 C67 1.266 1_655 S
H61 C63 0.959 . S
H62 C63 0.961 . S
C63 C53 1.510 . S
C63 H61 0.959 . S
C63 H62 0.961 . S
C63 H64 0.960 1_565 S
H64 C63 0.960 1_545 S
H65 N45 0.862 . S
O66 Co34 1.920 . S
O66 C39 1.289 . S
C67 O59 1.258 1_545 S
C67 O60 1.266 1_455 S
Co68 O71 1.970 . S
Co68 N85 1.989 . S
Co68 O93 1.967 . S
Co68 O100 1.920 . S
Co69 O72 1.966 . S
Co69 N78 2.022 . S
Co69 N86 1.993 . S
Co69 O94 1.941 . S
C70 O71 1.258 . S
C70 O72 1.263 . S
O71 Co68 1.970 . S
O71 C70 1.258 . S
O72 Co69 1.966 . S
O72 C70 1.263 . S
C73 O74 1.235 . S
C73 O100 1.289 . S
O74 C73 1.235 . S
C75 C77 1.400 . S
C75 N78 1.351 . S
C75 C80 1.501 . S
C76 C77 1.387 . S
C76 N79 1.341 . S
C77 C75 1.400 . S
C77 C76 1.387 . S
N78 Co69 2.022 . S
N78 C75 1.351 . S
N78 N79 1.365 . S
N79 C76 1.341 . S
N79 N78 1.365 . S
N79 H99 0.862 . S
C80 C75 1.501 . S
C80 H81 0.961 . S
C80 H82 0.961 . S
C80 H83 0.960 . S
H81 C80 0.961 . S
H82 C80 0.961 . S
H83 C80 0.960 . S
C84 N85 1.342 . S
C84 C88 1.401 . S
C84 C89 1.499 . S
N85 Co68 1.989 . S
N85 C84 1.342 . S
N85 N86 1.388 . S
N86 Co69 1.993 . S
N86 N85 1.388 . S
N86 C87 1.346 . S
C87 N86 1.346 . S
C87 C88 1.396 . S
C87 C97 1.510 . S
C88 C84 1.401 . S
C88 C87 1.396 . S
C89 C84 1.499 . S
C89 H90 0.959 . S
C89 H91 0.960 . S
C89 H92 0.961 . S
H90 C89 0.959 . S
H91 C89 0.960 . S
H92 C89 0.961 . S
O93 Co68 1.967 . S
O93 C101 1.258 . S
O94 Co69 1.941 . S
O94 C101 1.266 . S
H95 C97 0.959 . S
H96 C97 0.961 . S
C97 C87 1.510 . S
C97 H95 0.959 . S
C97 H96 0.961 . S
C97 H98 0.960 . S
H98 C97 0.960 . S
H99 N79 0.862 . S
O100 Co68 1.920 . S
O100 C73 1.289 . S
C101 O93 1.258 . S
C101 O94 1.266 . S
Co102 O105 1.970 . S
Co102 N119 1.989 . S
Co102 O127 1.967 . S
Co102 O134 1.920 . S
Co103 O106 1.966 . S
Co103 N112 2.022 . S
Co103 N120 1.993 . S
Co103 O128 1.941 . S
C104 O105 1.258 . S
C104 O106 1.263 . S
O105 Co102 1.970 . S
O105 C104 1.258 . S
O106 Co103 1.966 . S
O106 C104 1.263 . S
C107 O108 1.235 . S
C107 O134 1.289 . S
O108 C107 1.235 . S
C109 C111 1.400 . S
C109 N112 1.351 . S
C109 C114 1.501 . S
C110 C111 1.387 . S
C110 N113 1.341 . S
C111 C109 1.400 . S
C111 C110 1.387 . S
N112 Co103 2.022 . S
N112 C109 1.351 . S
N112 N113 1.365 . S
N113 C110 1.341 . S
N113 N112 1.365 . S
N113 H133 0.862 . S
C114 C109 1.501 . S
C114 H115 0.961 . S
C114 H116 0.961 . S
C114 H117 0.960 . S
H115 C114 0.961 . S
H116 C114 0.961 . S
H117 C114 0.960 . S
C118 N119 1.342 . S
C118 C122 1.401 . S
C118 C123 1.499 . S
N119 Co102 1.989 . S
N119 C118 1.342 . S
N119 N120 1.388 . S
N120 Co103 1.993 . S
N120 N119 1.388 . S
N120 C121 1.346 . S
C121 N120 1.346 . S
C121 C122 1.396 . S
C121 C131 1.510 . S
C122 C118 1.401 . S
C122 C121 1.396 . S
C123 C118 1.499 . S
C123 H124 0.959 . S
C123 H125 0.960 . S
C123 H126 0.961 . S
H124 C123 0.959 . S
H125 C123 0.960 . S
H126 C123 0.961 . S
O127 Co102 1.967 . S
O127 C135 1.258 . S
O128 Co103 1.941 . S
O128 C135 1.266 . S
H129 C131 0.959 . S
H130 C131 0.961 . S
C131 C121 1.510 . S
C131 H129 0.959 . S
C131 H130 0.961 . S
C131 H132 0.960 . S
H132 C131 0.960 . S
H133 N113 0.862 . S
O134 Co102 1.920 . S
O134 C107 1.289 . S
C135 O127 1.258 . S
C135 O128 1.266 . S
C33 C67 1.521 1_565 S
C135 C101 1.521 1_554 S
C20 C122 1.215 . S
C9 C107 1.521 . S
C104 C2 1.757 . S
C5 C111 1.521 . S
C77 C39 1.521 . S
C36 C70 1.757 . S
C43 C73 1.521 . S
C88 C54 1.215 . S
