# Generated by pormake.
# Topology uoc, (4)-cn, num edge types: 1
# Building blocks:
#     Node 0, Type 0, BuildingBlock: CEKHIL_clean_sbu_0, # of connection points: 4
#     Node 1, Type 0, BuildingBlock: CEKHIL_clean_sbu_0, # of connection points: 4
#     Node 2, Type 0, BuildingBlock: CEKHIL_clean_sbu_0, # of connection points: 4
#     Node 3, Type 0, BuildingBlock: CEKHIL_clean_sbu_0, # of connection points: 4
#     Node 4, Type 0, BuildingBlock: CEKHIL_clean_sbu_0, # of connection points: 4
#     Node 5, Type 0, BuildingBlock: CEKHIL_clean_sbu_0, # of connection points: 4
#     Node 6, Type 0, BuildingBlock: CEKHIL_clean_sbu_0, # of connection points: 4
#     Node 7, Type 0, BuildingBlock: CEKHIL_clean_sbu_0, # of connection points: 4
#     Edge 8, Type (0, 0), BuildingBlock: EYOCIG_clean_linker_4, # of connection points: 2
#     Edge 9, Type (0, 0), BuildingBlock: EYOCIG_clean_linker_4, # of connection points: 2
#     Edge 10, Type (0, 0), BuildingBlock: EYOCIG_clean_linker_4, # of connection points: 2
#     Edge 11, Type (0, 0), BuildingBlock: EYOCIG_clean_linker_4, # of connection points: 2
#     Edge 12, Type (0, 0), BuildingBlock: EYOCIG_clean_linker_4, # of connection points: 2
#     Edge 13, Type (0, 0), BuildingBlock: EYOCIG_clean_linker_4, # of connection points: 2
#     Edge 14, Type (0, 0), BuildingBlock: EYOCIG_clean_linker_4, # of connection points: 2
#     Edge 15, Type (0, 0), BuildingBlock: EYOCIG_clean_linker_4, # of connection points: 2
#     Edge 16, Type (0, 0), BuildingBlock: EYOCIG_clean_linker_4, # of connection points: 2
#     Edge 17, Type (0, 0), BuildingBlock: EYOCIG_clean_linker_4, # of connection points: 2
#     Edge 18, Type (0, 0), BuildingBlock: EYOCIG_clean_linker_4, # of connection points: 2
#     Edge 19, Type (0, 0), BuildingBlock: EYOCIG_clean_linker_4, # of connection points: 2
#     Edge 20, Type (0, 0), BuildingBlock: EYOCIG_clean_linker_4, # of connection points: 2
#     Edge 21, Type (0, 0), BuildingBlock: EYOCIG_clean_linker_4, # of connection points: 2
#     Edge 22, Type (0, 0), BuildingBlock: EYOCIG_clean_linker_4, # of connection points: 2
#     Edge 23, Type (0, 0), BuildingBlock: EYOCIG_clean_linker_4, # of connection points: 2
# Relax obj value: 0.097
# Max RMSD: 0.107
# Mean RMSD: 0.107
data_MOF--net-uoc--node1-CEKHIL_clean_sbu_0--edge1-EYOCIG_clean_linker_4
_symmetry_space_group_name_H-M    P1
_symmetry_Int_Tables_number       1
_symmetry_cell_setting            triclinic
loop_
_symmetry_equiv_pos_as_xyz
'x, y, z'
_cell_length_a     21.284556
_cell_length_b     21.282403
_cell_length_c     43.139635
_cell_angle_alpha  89.961734
_cell_angle_beta   90.074482
_cell_angle_gamma 92.298853
loop_
_atom_site_label
_atom_site_type_symbol
_atom_site_fract_x
_atom_site_fract_y
_atom_site_fract_z
_atom_type_partial_charge
Co0 Co 0.12162 0.27401 0.10661 0.0
O1 O 0.13433 0.36393 0.10275 0.0
O2 O 0.04513 0.31452 0.11711 0.0
C3 C 0.16617 0.25102 0.06115 0.0
O4 O 0.08862 0.18325 0.11184 0.0
Co5 Co 0.23192 0.1848 0.11062 0.0
O6 O 0.16685 0.11564 0.10835 0.0
C7 C 0.19875 0.25879 0.16527 0.0
C8 C 0.07583 0.3669 0.1108 0.0
C9 C 0.10897 0.12722 0.111 0.0
O10 O 0.14999 0.27787 0.15113 0.0
O11 O 0.23994 0.22504 0.15264 0.0
O12 O 0.10816 0.26715 0.06231 0.0
O13 O 0.19745 0.25334 0.08691 0.0
Co14 Co 0.77496 0.62098 0.37461 0.0
O15 O 0.86482 0.63405 0.37861 0.0
O16 O 0.8158 0.54456 0.36434 0.0
C17 C 0.75138 0.66596 0.41993 0.0
O18 O 0.68435 0.58763 0.36922 0.0
Co19 Co 0.68554 0.73095 0.37001 0.0
O20 O 0.61647 0.66575 0.37189 0.0
C21 C 0.76024 0.69742 0.31571 0.0
C22 C 0.86805 0.57555 0.37058 0.0
C23 C 0.62826 0.60786 0.36957 0.0
O24 O 0.77916 0.64883 0.33004 0.0
O25 O 0.72631 0.73872 0.32811 0.0
O26 O 0.76776 0.608 0.41893 0.0
O27 O 0.75386 0.69698 0.3941 0.0
Co28 Co 0.38904 0.23541 0.60662 0.0
O29 O 0.37632 0.14554 0.60259 0.0
O30 O 0.46561 0.19485 0.61699 0.0
C31 C 0.34415 0.25875 0.56119 0.0
O32 O 0.42201 0.32611 0.61204 0.0
Co33 Co 0.27873 0.32438 0.61089 0.0
O34 O 0.34366 0.39369 0.60908 0.0
C35 C 0.31263 0.25023 0.66545 0.0
C36 C 0.43486 0.14253 0.61064 0.0
C37 C 0.40157 0.38212 0.61158 0.0
O38 O 0.3611 0.23106 0.65116 0.0
O39 O 0.27133 0.28412 0.65295 0.0
O40 O 0.40221 0.24273 0.56233 0.0
O41 O 0.31302 0.25616 0.58696 0.0
Co42 Co 0.73559 0.889 0.87414 0.0
O43 O 0.64574 0.87584 0.87785 0.0
O44 O 0.69477 0.9651 0.86321 0.0
C45 C 0.75833 0.84523 0.91992 0.0
O46 O 0.82619 0.92241 0.86897 0.0
Co47 Co 0.82531 0.77923 0.87087 0.0
O48 O 0.89421 0.8446 0.87279 0.0
C49 C 0.75176 0.81129 0.81581 0.0
C50 C 0.64254 0.93421 0.86954 0.0
C51 C 0.88232 0.90237 0.86988 0.0
O52 O 0.73214 0.86 0.82974 0.0
O53 O 0.78571 0.77049 0.82869 0.0
O54 O 0.74209 0.90318 0.9184 0.0
O55 O 0.75642 0.81355 0.89429 0.0
Co56 Co 0.6215 0.77464 0.60677 0.0
O57 O 0.63484 0.86444 0.60276 0.0
O58 O 0.54551 0.81577 0.6175 0.0
C59 C 0.66518 0.75122 0.56112 0.0
O60 O 0.58783 0.68418 0.61223 0.0
Co61 Co 0.73097 0.68461 0.61049 0.0
O62 O 0.66542 0.61588 0.60874 0.0
C63 C 0.69915 0.75883 0.66526 0.0
C64 C 0.57651 0.86788 0.61101 0.0
C65 C 0.6077 0.62796 0.61154 0.0
O66 O 0.65053 0.7785 0.6512 0.0
O67 O 0.73981 0.72459 0.65255 0.0
O68 O 0.6073 0.76767 0.56252 0.0
O69 O 0.69688 0.75335 0.58676 0.0
Co70 Co 0.27495 0.12111 0.87445 0.0
O71 O 0.36479 0.13398 0.87844 0.0
O72 O 0.3156 0.04481 0.86378 0.0
C73 C 0.25169 0.16521 0.92 0.0
O74 O 0.18429 0.08805 0.86902 0.0
Co75 Co 0.18585 0.23138 0.87046 0.0
O76 O 0.11667 0.16629 0.87232 0.0
C77 C 0.26019 0.19868 0.81591 0.0
C78 C 0.36789 0.07563 0.87014 0.0
C79 C 0.12827 0.10842 0.86965 0.0
O80 O 0.27905 0.1498 0.83001 0.0
O81 O 0.22641 0.23984 0.82853 0.0
O82 O 0.26789 0.10722 0.91871 0.0
O83 O 0.25413 0.19675 0.89433 0.0
Co84 Co 0.88864 0.73472 0.10634 0.0
O85 O 0.87513 0.64488 0.10241 0.0
O86 O 0.96502 0.69353 0.1164 0.0
C87 C 0.8431 0.75851 0.06114 0.0
O88 O 0.92247 0.8252 0.11157 0.0
Co89 Co 0.77919 0.82474 0.11111 0.0
O90 O 0.8447 0.89347 0.10878 0.0
C91 C 0.81311 0.74978 0.1654 0.0
C92 C 0.93375 0.64141 0.11024 0.0
C93 C 0.90253 0.88141 0.11106 0.0
O94 O 0.86143 0.73061 0.15099 0.0
O95 O 0.77184 0.78393 0.15305 0.0
O96 O 0.90099 0.74189 0.06199 0.0
O97 O 0.81247 0.75618 0.08706 0.0
Co98 Co 0.23572 0.38828 0.37425 0.0
O99 O 0.14585 0.37522 0.37806 0.0
O100 O 0.19489 0.46457 0.36361 0.0
C101 C 0.2588 0.3439 0.41983 0.0
O102 O 0.32635 0.42163 0.36901 0.0
Co103 Co 0.32535 0.27839 0.37049 0.0
O104 O 0.39433 0.34369 0.37237 0.0
C105 C 0.25122 0.3111 0.31573 0.0
C106 C 0.14263 0.43368 0.36991 0.0
C107 C 0.38247 0.40151 0.36969 0.0
O108 O 0.23193 0.3598 0.32979 0.0
O109 O 0.28515 0.27008 0.32844 0.0
O110 O 0.24255 0.40188 0.41854 0.0
O111 O 0.25665 0.31255 0.39412 0.0
C112 C 0.21171 0.22524 0.00612 0.0
C113 C 0.1945 0.23639 0.03205 0.0
C114 C 0.22633 0.21051 0.97515 0.0
C115 C 0.2373 0.19336 0.94918 0.0
C116 C 0.78775 0.71194 0.25649 0.0
C117 C 0.77573 0.70441 0.28354 0.0
C118 C 0.7987 0.72256 0.22466 0.0
C119 C 0.80634 0.73434 0.19759 0.0
C120 C 0.29826 0.28387 0.50608 0.0
C121 C 0.31552 0.27302 0.53208 0.0
C122 C 0.28376 0.29839 0.47504 0.0
C123 C 0.27299 0.31557 0.44903 0.0
C124 C 0.72564 0.79575 0.75645 0.0
C125 C 0.73711 0.80359 0.78355 0.0
C126 C 0.71488 0.78515 0.72458 0.0
C127 C 0.70686 0.77365 0.69749 0.0
C128 C 0.22462 0.29594 0.25642 0.0
C129 C 0.23627 0.30369 0.28351 0.0
C130 C 0.21387 0.28532 0.22457 0.0
C131 C 0.20608 0.27374 0.19749 0.0
C132 C 0.71027 0.7263 0.50585 0.0
C133 C 0.69315 0.73706 0.53185 0.0
C134 C 0.72512 0.7118 0.47487 0.0
C135 C 0.73646 0.69455 0.44895 0.0
C136 C 0.29823 0.22388 0.72481 0.0
C137 C 0.30584 0.23528 0.69769 0.0
C138 C 0.28737 0.21358 0.75667 0.0
C139 C 0.2754 0.20603 0.78373 0.0
C140 C 0.79679 0.78505 0.0063 0.0
C141 C 0.81418 0.77362 0.03221 0.0
C142 C 0.78244 0.79999 0.9753 0.0
C143 C 0.77204 0.8172 0.94925 0.0
C144 C 0.02747 0.03035 0.11437 0.0
C145 C 0.0642 0.07496 0.11285 0.0
C146 C 0.98464 0.9778 0.11437 0.0
C147 C 0.94771 0.93335 0.11288 0.0
C148 C 0.03421 0.4895 0.36862 0.0
C149 C 0.08364 0.46386 0.36924 0.0
C150 C 0.97659 0.52 0.36881 0.0
C151 C 0.92714 0.54557 0.36965 0.0
C152 C 0.48295 0.47901 0.61535 0.0
C153 C 0.44629 0.43439 0.61365 0.0
C154 C 0.5257 0.53161 0.61535 0.0
C155 C 0.56255 0.57607 0.61364 0.0
C156 C 0.53411 0.98989 0.86812 0.0
C157 C 0.58356 0.96434 0.86879 0.0
C158 C 0.47642 0.0202 0.86827 0.0
C159 C 0.42691 0.0456 0.86914 0.0
C160 C 0.98913 0.53275 0.11173 0.0
C161 C 0.96356 0.58222 0.11101 0.0
C162 C 0.01968 0.47515 0.11192 0.0
C163 C 0.04542 0.42578 0.11139 0.0
C164 C 0.47906 0.4833 0.366 0.0
C165 C 0.43454 0.44649 0.36766 0.0
C166 C 0.53162 0.52612 0.36597 0.0
C167 C 0.57615 0.56292 0.3676 0.0
C168 C 0.49083 0.03423 0.61205 0.0
C169 C 0.46514 0.08361 0.61138 0.0
C170 C 0.52119 0.97655 0.61217 0.0
C171 C 0.54657 0.92699 0.61162 0.0
C172 C 0.97886 0.98416 0.86611 0.0
C173 C 0.93436 0.94736 0.8678 0.0
C174 C 0.03144 0.02693 0.86604 0.0
C175 C 0.07604 0.06364 0.86767 0.0
loop_
_geom_bond_atom_site_label_1
_geom_bond_atom_site_label_2
_geom_bond_distance
_geom_bond_site_symmetry_2
_ccdc_geom_bond_type
Co0 O1 2.216 . S
Co0 O2 2.091 . S
Co0 O4 2.004 . S
Co0 O10 2.021 . S
Co0 O12 2.137 . S
Co0 O13 2.244 . S
O1 Co0 2.216 . S
O1 C8 1.247 . S
O2 Co0 2.091 . S
O2 C8 1.261 . S
C3 O12 1.247 . S
C3 O13 1.272 . S
O4 Co0 2.004 . S
O4 C9 1.259 . S
Co5 O6 2.061 . S
Co5 O11 2.052 . S
Co5 O13 2.135 . S
O6 Co5 2.061 . S
O6 C9 1.235 . S
C7 O10 1.238 . S
C7 O11 1.241 . S
C8 O1 1.247 . S
C8 O2 1.261 . S
C9 O4 1.259 . S
C9 O6 1.235 . S
O10 Co0 2.021 . S
O10 C7 1.238 . S
O11 Co5 2.052 . S
O11 C7 1.241 . S
O12 Co0 2.137 . S
O12 C3 1.247 . S
O13 Co0 2.244 . S
O13 C3 1.272 . S
O13 Co5 2.135 . S
Co14 O15 2.216 . S
Co14 O16 2.091 . S
Co14 O18 2.004 . S
Co14 O24 2.021 . S
Co14 O26 2.137 . S
Co14 O27 2.244 . S
O15 Co14 2.216 . S
O15 C22 1.247 . S
O16 Co14 2.091 . S
O16 C22 1.261 . S
C17 O26 1.247 . S
C17 O27 1.272 . S
O18 Co14 2.004 . S
O18 C23 1.259 . S
Co19 O20 2.061 . S
Co19 O25 2.052 . S
Co19 O27 2.135 . S
O20 Co19 2.061 . S
O20 C23 1.235 . S
C21 O24 1.238 . S
C21 O25 1.241 . S
C22 O15 1.247 . S
C22 O16 1.261 . S
C23 O18 1.259 . S
C23 O20 1.235 . S
O24 Co14 2.021 . S
O24 C21 1.238 . S
O25 Co19 2.052 . S
O25 C21 1.241 . S
O26 Co14 2.137 . S
O26 C17 1.247 . S
O27 Co14 2.244 . S
O27 C17 1.272 . S
O27 Co19 2.135 . S
Co28 O29 2.216 . S
Co28 O30 2.091 . S
Co28 O32 2.004 . S
Co28 O38 2.021 . S
Co28 O40 2.137 . S
Co28 O41 2.244 . S
O29 Co28 2.216 . S
O29 C36 1.247 . S
O30 Co28 2.091 . S
O30 C36 1.261 . S
C31 O40 1.247 . S
C31 O41 1.272 . S
O32 Co28 2.004 . S
O32 C37 1.259 . S
Co33 O34 2.061 . S
Co33 O39 2.052 . S
Co33 O41 2.135 . S
O34 Co33 2.061 . S
O34 C37 1.235 . S
C35 O38 1.238 . S
C35 O39 1.241 . S
C36 O29 1.247 . S
C36 O30 1.261 . S
C37 O32 1.259 . S
C37 O34 1.235 . S
O38 Co28 2.021 . S
O38 C35 1.238 . S
O39 Co33 2.052 . S
O39 C35 1.241 . S
O40 Co28 2.137 . S
O40 C31 1.247 . S
O41 Co28 2.244 . S
O41 C31 1.272 . S
O41 Co33 2.135 . S
Co42 O43 2.216 . S
Co42 O44 2.091 . S
Co42 O46 2.004 . S
Co42 O52 2.021 . S
Co42 O54 2.137 . S
Co42 O55 2.244 . S
O43 Co42 2.216 . S
O43 C50 1.247 . S
O44 Co42 2.091 . S
O44 C50 1.261 . S
C45 O54 1.247 . S
C45 O55 1.272 . S
O46 Co42 2.004 . S
O46 C51 1.259 . S
Co47 O48 2.061 . S
Co47 O53 2.052 . S
Co47 O55 2.135 . S
O48 Co47 2.061 . S
O48 C51 1.235 . S
C49 O52 1.238 . S
C49 O53 1.241 . S
C50 O43 1.247 . S
C50 O44 1.261 . S
C51 O46 1.259 . S
C51 O48 1.235 . S
O52 Co42 2.021 . S
O52 C49 1.238 . S
O53 Co47 2.052 . S
O53 C49 1.241 . S
O54 Co42 2.137 . S
O54 C45 1.247 . S
O55 Co42 2.244 . S
O55 C45 1.272 . S
O55 Co47 2.135 . S
Co56 O57 2.216 . S
Co56 O58 2.091 . S
Co56 O60 2.004 . S
Co56 O66 2.021 . S
Co56 O68 2.137 . S
Co56 O69 2.244 . S
O57 Co56 2.216 . S
O57 C64 1.247 . S
O58 Co56 2.091 . S
O58 C64 1.261 . S
C59 O68 1.247 . S
C59 O69 1.272 . S
O60 Co56 2.004 . S
O60 C65 1.259 . S
Co61 O62 2.061 . S
Co61 O67 2.052 . S
Co61 O69 2.135 . S
O62 Co61 2.061 . S
O62 C65 1.235 . S
C63 O66 1.238 . S
C63 O67 1.241 . S
C64 O57 1.247 . S
C64 O58 1.261 . S
C65 O60 1.259 . S
C65 O62 1.235 . S
O66 Co56 2.021 . S
O66 C63 1.238 . S
O67 Co61 2.052 . S
O67 C63 1.241 . S
O68 Co56 2.137 . S
O68 C59 1.247 . S
O69 Co56 2.244 . S
O69 C59 1.272 . S
O69 Co61 2.135 . S
Co70 O71 2.216 . S
Co70 O72 2.091 . S
Co70 O74 2.004 . S
Co70 O80 2.021 . S
Co70 O82 2.137 . S
Co70 O83 2.244 . S
O71 Co70 2.216 . S
O71 C78 1.247 . S
O72 Co70 2.091 . S
O72 C78 1.261 . S
C73 O82 1.247 . S
C73 O83 1.272 . S
O74 Co70 2.004 . S
O74 C79 1.259 . S
Co75 O76 2.061 . S
Co75 O81 2.052 . S
Co75 O83 2.135 . S
O76 Co75 2.061 . S
O76 C79 1.235 . S
C77 O80 1.238 . S
C77 O81 1.241 . S
C78 O71 1.247 . S
C78 O72 1.261 . S
C79 O74 1.259 . S
C79 O76 1.235 . S
O80 Co70 2.021 . S
O80 C77 1.238 . S
O81 Co75 2.052 . S
O81 C77 1.241 . S
O82 Co70 2.137 . S
O82 C73 1.247 . S
O83 Co70 2.244 . S
O83 C73 1.272 . S
O83 Co75 2.135 . S
Co84 O85 2.216 . S
Co84 O86 2.091 . S
Co84 O88 2.004 . S
Co84 O94 2.021 . S
Co84 O96 2.137 . S
Co84 O97 2.244 . S
O85 Co84 2.216 . S
O85 C92 1.247 . S
O86 Co84 2.091 . S
O86 C92 1.261 . S
C87 O96 1.247 . S
C87 O97 1.272 . S
O88 Co84 2.004 . S
O88 C93 1.259 . S
Co89 O90 2.061 . S
Co89 O95 2.052 . S
Co89 O97 2.135 . S
O90 Co89 2.061 . S
O90 C93 1.235 . S
C91 O94 1.238 . S
C91 O95 1.241 . S
C92 O85 1.247 . S
C92 O86 1.261 . S
C93 O88 1.259 . S
C93 O90 1.235 . S
O94 Co84 2.021 . S
O94 C91 1.238 . S
O95 Co89 2.052 . S
O95 C91 1.241 . S
O96 Co84 2.137 . S
O96 C87 1.247 . S
O97 Co84 2.244 . S
O97 C87 1.272 . S
O97 Co89 2.135 . S
Co98 O99 2.216 . S
Co98 O100 2.091 . S
Co98 O102 2.004 . S
Co98 O108 2.021 . S
Co98 O110 2.137 . S
Co98 O111 2.244 . S
O99 Co98 2.216 . S
O99 C106 1.247 . S
O100 Co98 2.091 . S
O100 C106 1.261 . S
C101 O110 1.247 . S
C101 O111 1.272 . S
O102 Co98 2.004 . S
O102 C107 1.259 . S
Co103 O104 2.061 . S
Co103 O109 2.052 . S
Co103 O111 2.135 . S
O104 Co103 2.061 . S
O104 C107 1.235 . S
C105 O108 1.238 . S
C105 O109 1.241 . S
C106 O99 1.247 . S
C106 O100 1.261 . S
C107 O102 1.259 . S
C107 O104 1.235 . S
O108 Co98 2.021 . S
O108 C105 1.238 . S
O109 Co103 2.052 . S
O109 C105 1.241 . S
O110 Co98 2.137 . S
O110 C101 1.247 . S
O111 Co98 2.244 . S
O111 C101 1.272 . S
O111 Co103 2.135 . S
C112 C113 1.170 . S
C112 C114 1.380 1_554 S
C113 C112 1.170 . S
C114 C112 1.380 1_556 S
C114 C115 1.170 . S
C115 C114 1.170 . S
C116 C117 1.170 . S
C116 C118 1.380 . S
C117 C116 1.170 . S
C118 C116 1.380 . S
C118 C119 1.170 . S
C119 C118 1.170 . S
C120 C121 1.170 . S
C120 C122 1.380 . S
C121 C120 1.170 . S
C122 C120 1.380 . S
C122 C123 1.170 . S
C123 C122 1.170 . S
C124 C125 1.170 . S
C124 C126 1.380 . S
C125 C124 1.170 . S
C126 C124 1.380 . S
C126 C127 1.170 . S
C127 C126 1.170 . S
C128 C129 1.170 . S
C128 C130 1.380 . S
C129 C128 1.170 . S
C130 C128 1.380 . S
C130 C131 1.170 . S
C131 C130 1.170 . S
C132 C133 1.170 . S
C132 C134 1.380 . S
C133 C132 1.170 . S
C134 C132 1.380 . S
C134 C135 1.170 . S
C135 C134 1.170 . S
C136 C137 1.170 . S
C136 C138 1.380 . S
C137 C136 1.170 . S
C138 C136 1.380 . S
C138 C139 1.170 . S
C139 C138 1.170 . S
C140 C141 1.170 . S
C140 C142 1.380 1_554 S
C141 C140 1.170 . S
C142 C140 1.380 1_556 S
C142 C143 1.170 . S
C143 C142 1.170 . S
C144 C145 1.170 . S
C144 C146 1.380 1_445 S
C145 C144 1.170 . S
C146 C144 1.380 1_665 S
C146 C147 1.170 . S
C147 C146 1.170 . S
C148 C149 1.170 . S
C148 C150 1.380 1_455 S
C149 C148 1.170 . S
C150 C148 1.380 1_655 S
C150 C151 1.170 . S
C151 C150 1.170 . S
C152 C153 1.170 . S
C152 C154 1.380 . S
C153 C152 1.170 . S
C154 C152 1.380 . S
C154 C155 1.170 . S
C155 C154 1.170 . S
C156 C157 1.170 . S
C156 C158 1.380 1_565 S
C157 C156 1.170 . S
C158 C156 1.380 1_545 S
C158 C159 1.170 . S
C159 C158 1.170 . S
C160 C161 1.170 . S
C160 C162 1.380 1_655 S
C161 C160 1.170 . S
C162 C160 1.380 1_455 S
C162 C163 1.170 . S
C163 C162 1.170 . S
C164 C165 1.170 . S
C164 C166 1.380 . S
C165 C164 1.170 . S
C166 C164 1.380 . S
C166 C167 1.170 . S
C167 C166 1.170 . S
C168 C169 1.170 . S
C168 C170 1.380 1_545 S
C169 C168 1.170 . S
C170 C168 1.380 1_565 S
C170 C171 1.170 . S
C171 C170 1.170 . S
C172 C173 1.170 . S
C172 C174 1.380 1_665 S
C173 C172 1.170 . S
C174 C172 1.380 1_445 S
C174 C175 1.170 . S
C175 C174 1.170 . S
C113 C3 1.296 . S
C115 C73 1.280 . S
C117 C21 1.317 . S
C119 C91 1.319 . S
C121 C31 1.292 . S
C123 C101 1.309 . S
C125 C49 1.311 . S
C127 C63 1.314 . S
C129 C105 1.312 . S
C131 C7 1.313 . S
C133 C59 1.288 . S
C135 C17 1.306 . S
C137 C35 1.313 . S
C139 C77 1.323 . S
C141 C87 1.307 . S
C143 C45 1.289 . S
C145 C9 1.576 . S
C147 C93 1.577 . S
C149 C106 1.573 . S
C151 C22 1.574 . S
C153 C37 1.582 . S
C155 C65 1.583 . S
C157 C50 1.565 . S
C159 C78 1.580 . S
C161 C92 1.578 . S
C163 C8 1.562 . S
C165 C107 1.585 . S
C167 C23 1.585 . S
C169 C36 1.572 . S
C171 C64 1.567 . S
C173 C51 1.583 . S
C175 C79 1.582 . S
