# Generated by pormake.
# Topology qzd, (4)-cn, num edge types: 1
# Building blocks:
#     Node 0, Type 0, BuildingBlock: ESEHIV_clean_sbu_0, # of connection points: 4
#     Node 1, Type 0, BuildingBlock: ESEHIV_clean_sbu_0, # of connection points: 4
#     Node 2, Type 0, BuildingBlock: ESEHIV_clean_sbu_0, # of connection points: 4
#     Edge 3, Type (0, 0), BuildingBlock: XUDNAN_clean_linker_2, # of connection points: 2
#     Edge 4, Type (0, 0), BuildingBlock: XUDNAN_clean_linker_2, # of connection points: 2
#     Edge 5, Type (0, 0), BuildingBlock: XUDNAN_clean_linker_2, # of connection points: 2
#     Edge 6, Type (0, 0), BuildingBlock: XUDNAN_clean_linker_2, # of connection points: 2
#     Edge 7, Type (0, 0), BuildingBlock: XUDNAN_clean_linker_2, # of connection points: 2
#     Edge 8, Type (0, 0), BuildingBlock: XUDNAN_clean_linker_2, # of connection points: 2
# Relax obj value: 0.000
# Max RMSD: 0.158
# Mean RMSD: 0.076
data_MOF--net-qzd--node1-ESEHIV_clean_sbu_0--edge1-XUDNAN_clean_linker_2
_symmetry_space_group_name_H-M    P1
_symmetry_Int_Tables_number       1
_symmetry_cell_setting            triclinic
loop_
_symmetry_equiv_pos_as_xyz
'x, y, z'
_cell_length_a     14.988258
_cell_length_b     17.264954
_cell_length_c     46.297347
_cell_angle_alpha  99.250746
_cell_angle_beta   99.642327
_cell_angle_gamma 115.63742
loop_
_atom_site_label
_atom_site_type_symbol
_atom_site_fract_x
_atom_site_fract_y
_atom_site_fract_z
_atom_type_partial_charge
Cu0 Cu 0.06081 0.10413 0.01809 0.0
N1 N 0.0387 0.03407 0.04595 0.0
N2 N 0.03283 1.00017 0.09051 0.0
C3 C 0.06152 0.066 0.07627 0.0
C4 C 0.99071 0.92379 0.06835 0.0
C5 C 0.99525 0.94489 0.04091 0.0
O6 O 0.9888 0.17402 0.0239 0.0
C7 C 0.24792 0.12203 0.01671 0.0
O8 O 0.18747 0.03559 1.00705 0.0
H9 H 0.09633 0.13617 0.08759 0.0
H10 H 0.96869 0.89825 0.01894 0.0
N11 N 1.0067 0.03656 0.9772 0.0
N12 N 0.98499 1.00493 0.9268 0.0
C13 C 0.04178 0.06486 0.95386 0.0
C14 C 0.92468 0.95577 0.96441 0.0
C15 C 0.91116 0.93616 0.93341 0.0
C16 C 0.89253 0.12494 0.01909 0.0
O17 O 0.85631 0.03825 0.01281 0.0
H18 H 0.10628 0.12938 0.9567 0.0
H19 H 0.87633 0.91448 0.97654 0.0
O20 O 0.20879 0.17192 0.02447 0.0
H21 H 0.95979 0.85758 0.0718 0.0
H22 H 0.85153 0.87584 0.91706 0.0
Cu23 Cu 0.94825 0.09757 0.35439 0.0
N24 N 0.99252 0.2188 0.35788 0.0
N25 N 0.10152 0.35758 0.35783 0.0
C26 C 0.07942 0.27108 0.35129 0.0
C27 C 1.02381 0.35944 0.36859 0.0
C28 C 0.9567 0.27359 0.36868 0.0
O29 O 0.99622 0.05982 0.32067 0.0
C30 C 0.06742 0.14159 0.416 0.0
O31 O 0.10918 0.22438 0.41419 0.0
H32 H 0.12644 0.2456 0.34233 0.0
H33 H 0.88863 0.25314 0.37687 0.0
N34 N 0.80588 1.02984 0.34664 0.0
N35 N 0.65769 0.91102 0.34365 0.0
C36 C 0.76126 0.94881 0.3517 0.0
C37 C 0.72817 0.04509 0.33519 0.0
C38 C 0.63644 0.97177 0.33334 0.0
C39 C 0.93715 1.01357 0.29427 0.0
O40 O 0.83729 0.97777 0.29008 0.0
H41 H 0.80494 0.91857 0.36125 0.0
H42 H 0.73744 0.10447 0.32828 0.0
O43 O 1.00425 0.07954 0.39258 0.0
H44 H 1.0178 0.41879 0.37692 0.0
H45 H 0.56031 0.96321 0.32443 0.0
Cu46 Cu 0.27056 0.14598 0.69201 0.0
N47 N 0.34991 0.27044 0.7049 0.0
N48 N 0.38565 0.41346 0.71329 0.0
C49 C 0.3112 0.32782 0.70487 0.0
C50 C 0.47489 0.4099 0.71894 0.0
C51 C 0.45262 0.32158 0.71391 0.0
O52 O 0.199 0.11364 0.64904 0.0
C53 C 0.22337 0.13324 0.74663 0.0
O54 O 0.32403 0.17952 0.75558 0.0
H55 H 0.2298 0.30684 0.69793 0.0
H56 H 0.50759 0.2967 0.71633 0.0
N57 N 0.34812 0.08556 0.696 0.0
N58 N 0.38294 0.97451 0.70271 0.0
C59 C 0.3149 1.00653 0.70283 0.0
C60 C 0.44028 0.1046 0.69105 0.0
C61 C 0.46222 0.03667 0.69531 0.0
C62 C 0.24938 0.15421 0.63172 0.0
O63 O 0.34571 0.2151 0.64345 0.0
H64 H 0.2404 0.97253 0.70694 0.0
H65 H 0.48721 0.16258 0.68413 0.0
O66 O 0.17921 0.11068 0.71834 0.0
H67 H 0.5507 0.46698 0.72631 0.0
H68 H 0.53106 0.03352 0.69277 0.0
H69 H 0.70248 0.04748 0.98194 0.0
H70 H 0.91441 0.27915 0.05576 0.0
H71 H 0.77441 0.31845 0.05936 0.0
H72 H 0.54648 0.14661 0.94773 0.0
H73 H 0.43061 0.042 0.93837 0.0
H74 H 0.55169 0.04339 0.93862 0.0
H75 H 0.52268 0.94498 0.97652 0.0
H76 H 0.40238 0.94375 0.97658 0.0
H77 H 0.49953 0.98198 1.01186 0.0
H78 H 0.59993 0.317 0.05898 0.0
H79 H 0.41613 0.27566 0.05444 0.0
H80 H 0.32668 0.045 0.98079 0.0
C81 C 0.72027 0.10791 0.99836 0.0
C82 C 0.81879 0.16043 0.01856 0.0
C83 C 0.83938 0.2387 0.03985 0.0
C84 C 0.76025 0.26122 0.04204 0.0
C85 C 0.66223 0.20559 0.02236 0.0
C86 C 0.64315 0.13125 1.00059 0.0
C87 C 0.53088 0.0771 0.98381 0.0
C88 C 0.51396 0.07734 0.95014 0.0
C89 C 0.48634 0.98139 0.98744 0.0
C90 C 0.48806 0.12968 1.00041 0.0
C91 C 0.56429 0.20461 0.02222 0.0
C92 C 0.54016 0.2593 0.0416 0.0
C93 C 0.43578 0.23555 0.03888 0.0
C94 C 0.35756 0.15706 0.01734 0.0
C95 C 0.38484 0.10535 0.99752 0.0
H96 H 0.45635 0.84891 0.3451 0.0
H97 H 0.69596 0.77115 0.34466 0.0
H98 H 0.57957 0.62354 0.34889 0.0
H99 H 0.34789 0.73168 0.39819 0.0
H100 H 0.21657 0.69684 0.37885 0.0
H101 H 0.31835 0.79805 0.37579 0.0
H102 H 0.25856 0.74017 0.31717 0.0
H103 H 0.15628 0.63892 0.32004 0.0
H104 H 0.24648 0.6339 0.29946 0.0
H105 H 0.44133 0.48593 0.35425 0.0
H106 H 0.28581 0.36289 0.35866 0.0
H107 H 0.12832 0.52253 0.3533 0.0
C108 C 0.48419 0.80075 0.34565 0.0
C109 C 0.58659 0.82303 0.34497 0.0
C110 C 0.61937 0.75748 0.34589 0.0
C111 C 0.55336 0.67274 0.34806 0.0
C112 C 0.45393 0.65352 0.34906 0.0
C113 C 0.4188 0.71509 0.34769 0.0
C114 C 0.30752 0.67603 0.34899 0.0
C115 C 0.29701 0.72881 0.37713 0.0
C116 C 0.23811 0.67202 0.31967 0.0
C117 C 0.28636 0.58329 0.35152 0.0
C118 C 0.37225 0.57223 0.35151 0.0
C119 C 0.37311 0.49333 0.35395 0.0
C120 C 0.28359 0.4233 0.35622 0.0
C121 C 0.19339 0.43177 0.35589 0.0
C122 C 0.19556 0.51355 0.35369 0.0
H123 H 0.50447 0.89537 0.6936 0.0
H124 H 0.23353 0.85923 0.72434 0.0
H125 H 0.20743 0.71368 0.73086 0.0
H126 H 0.40962 0.67148 0.65234 0.0
H127 H 0.52984 0.66992 0.6635 0.0
H128 H 0.52917 0.77298 0.66151 0.0
H129 H 0.63804 0.84509 0.71746 0.0
H130 H 0.63927 0.74227 0.71962 0.0
H131 H 0.59322 0.79273 0.74654 0.0
H132 H 0.2045 0.56779 0.73185 0.0
H133 H 0.23159 0.43582 0.72969 0.0
H134 H 0.50782 0.56801 0.7008 0.0
C135 C 0.44001 0.85792 0.70196 0.0
C136 C 0.37063 0.89013 0.70799 0.0
C137 C 0.28734 0.83705 0.71887 0.0
C138 C 0.27187 0.75379 0.72289 0.0
C139 C 0.34082 0.7241 0.71635 0.0
C140 C 0.42386 0.77483 0.70642 0.0
C141 C 0.48659 0.72715 0.70105 0.0
C142 C 0.48889 0.70933 0.66761 0.0
C143 C 0.59574 0.77997 0.72245 0.0
C144 C 0.42492 0.64126 0.70915 0.0
C145 C 0.34095 0.64087 0.71784 0.0
C146 C 0.27043 0.56762 0.7253 0.0
C147 C 0.28608 0.49277 0.72385 0.0
C148 C 0.37191 0.4917 0.71521 0.0
C149 C 0.44242 0.56741 0.70795 0.0
H150 H 0.83834 0.90395 0.2366 0.0
H151 H 0.13011 0.12551 0.29096 0.0
H152 H 0.19054 0.14081 0.24469 0.0
H153 H 0.94541 0.81124 0.1819 0.0
H154 H 0.83655 0.77937 0.1505 0.0
H155 H 0.82052 0.78073 0.18828 0.0
H156 H 0.74104 0.88638 0.18371 0.0
H157 H 0.75779 0.8862 0.14612 0.0
H158 H 0.81255 0.9901 0.17479 0.0
H159 H 0.21008 0.14452 0.19162 0.0
H160 H 0.19387 0.12566 0.13647 0.0
H161 H 0.89357 0.89732 0.11698 0.0
C162 C 0.91582 0.95443 0.23889 0.0
C163 C 0.97953 1.01339 0.26747 0.0
C164 C 0.08017 0.07895 0.26941 0.0
C165 C 0.11505 0.08843 0.2432 0.0
C166 C 0.0491 1.0309 0.21526 0.0
C167 C 0.95231 0.96401 0.21302 0.0
C168 C 0.89521 0.91278 0.1802 0.0
C169 C 0.87315 0.81525 0.17491 0.0
C170 C 0.7958 0.91931 0.17066 0.0
C171 C 0.97368 0.96295 0.16423 0.0
C172 C 0.06191 1.031 0.18484 0.0
C173 C 0.14215 0.0904 0.17534 0.0
C174 C 0.1321 0.07966 0.14403 0.0
C175 C 0.04305 1.00959 0.12257 0.0
C176 C 0.96335 0.95026 0.13292 0.0
H177 H 0.31199 0.26226 0.59434 0.0
H178 H 0.08251 1.00067 0.59454 0.0
H179 H 1.01422 0.96585 0.53876 0.0
H180 H 0.14596 0.29896 0.53835 0.0
H181 H 0.24715 0.35849 0.5217 0.0
H182 H 0.27709 0.36092 0.56126 0.0
H183 H 0.40629 0.30293 0.55268 0.0
H184 H 0.37597 0.29944 0.51302 0.0
H185 H 0.36313 0.20064 0.52422 0.0
H186 H 0.97599 0.9591 0.48217 0.0
H187 H 0.95944 0.98574 0.43108 0.0
H188 H 0.21073 0.25441 0.46915 0.0
C189 C 0.24728 0.19754 0.58269 0.0
C190 C 0.2029 0.13383 0.59874 0.0
C191 C 0.11749 0.05048 0.5827 0.0
C192 C 0.07865 1.03005 0.55102 0.0
C193 C 0.1253 0.09417 0.53585 0.0
C194 C 0.20684 0.17672 0.55131 0.0
C195 C 0.2415 0.2353 0.53008 0.0
C196 C 0.22702 0.3183 0.53834 0.0
C197 C 0.35335 0.26105 0.53 0.0
C198 C 0.16759 0.17264 0.50009 0.0
C199 C 0.10157 0.09129 0.50377 0.0
C200 C 0.02708 1.02273 0.47912 0.0
C201 C 1.01865 0.03836 0.45013 0.0
C202 C 0.08377 0.1222 0.44602 0.0
C203 C 0.15972 0.18959 0.47143 0.0
H204 H 0.30032 0.17712 0.80816 0.0
H205 H 1.0152 1.02609 0.73677 0.0
H206 H 0.92195 0.97709 0.77528 0.0
H207 H 0.24924 1.02042 0.85289 0.0
H208 H 0.30957 0.10433 0.88863 0.0
H209 H 0.35247 0.12833 0.8555 0.0
H210 H 0.32063 0.26544 0.86244 0.0
H211 H 0.27774 0.2419 0.89562 0.0
H212 H 0.19574 0.2513 0.86465 0.0
H213 H 0.86132 0.94222 0.82217 0.0
H214 H 0.83766 0.92765 0.87293 0.0
H215 H 0.16369 0.10178 0.91303 0.0
C216 C 0.21815 0.13399 0.8005 0.0
C217 C 0.16506 0.1055 0.76935 0.0
C218 C 0.05752 0.049 0.76046 0.0
C219 C 1.004 1.02074 0.78219 0.0
C220 C 0.05912 0.04976 0.81269 0.0
C221 C 0.16384 0.10541 0.8218 0.0
C222 C 0.2057 0.12696 0.85586 0.0
C223 C 0.28384 0.09296 0.86367 0.0
C224 C 0.2527 0.22736 0.87049 0.0
C225 C 0.10824 0.0746 0.86462 0.0
C226 C 1.02447 1.03032 0.83945 0.0
C227 C 0.92649 0.97674 0.84198 0.0
C228 C 0.91391 0.96842 0.87094 0.0
C229 C 0.99873 1.0136 0.89709 0.0
C230 C 0.09701 0.06734 0.89366 0.0
loop_
_geom_bond_atom_site_label_1
_geom_bond_atom_site_label_2
_geom_bond_distance
_geom_bond_site_symmetry_2
_ccdc_geom_bond_type
Cu0 N1 1.999 . S
Cu0 O6 1.974 1_455 S
Cu0 N11 1.985 1_554 S
Cu0 O20 1.959 . S
N1 Cu0 1.999 . S
N1 C3 1.263 1_455 S
N1 C5 1.389 . S
N2 C3 1.358 1_455 S
N2 C4 1.400 . S
C3 N1 1.263 1_655 S
C3 N2 1.358 1_655 S
C3 H9 0.930 1_545 S
C4 N2 1.400 . S
C4 C5 1.351 . S
C4 H21 0.930 . S
C5 N1 1.389 . S
C5 C4 1.351 . S
C5 H10 0.930 . S
O6 Cu0 1.974 1_655 S
O6 C16 1.282 1_544 S
C7 O8 1.258 . S
C7 O20 1.251 1_566 S
O8 C7 1.258 . S
H9 C3 0.930 1_565 S
H10 C5 0.930 . S
N11 Cu0 1.985 1_556 S
N11 C13 1.335 . S
N11 C14 1.390 1_445 S
N12 C13 1.345 . S
N12 C15 1.336 1_445 S
C13 N11 1.335 . S
C13 N12 1.345 . S
C13 H18 0.930 . S
C14 N11 1.390 1_665 S
C14 C15 1.346 . S
C14 H19 0.930 . S
C15 N12 1.336 1_665 S
C15 C14 1.346 . S
C15 H22 0.929 . S
C16 O6 1.282 1_566 S
C16 O17 1.216 . S
O17 C16 1.216 . S
H18 C13 0.930 . S
H19 C14 0.930 . S
O20 Cu0 1.959 . S
O20 C7 1.251 1_544 S
H21 C4 0.930 . S
H22 C15 0.929 . S
Cu23 N24 1.999 . S
Cu23 O29 1.974 . S
Cu23 N34 1.985 1_445 S
Cu23 O43 1.959 . S
N24 Cu23 1.999 . S
N24 C26 1.263 . S
N24 C28 1.389 . S
N25 C26 1.358 . S
N25 C27 1.400 . S
C26 N24 1.263 . S
C26 N25 1.358 . S
C26 H32 0.930 . S
C27 N25 1.400 . S
C27 C28 1.351 . S
C27 H44 0.930 . S
C28 N24 1.389 . S
C28 C27 1.351 . S
C28 H33 0.930 . S
O29 Cu23 1.974 . S
O29 C39 1.282 1_455 S
C30 O31 1.261 1_455 S
C30 O43 1.251 . S
O31 C30 1.261 1_655 S
H32 C26 0.930 . S
H33 C28 0.930 . S
N34 Cu23 1.985 1_665 S
N34 C36 1.335 . S
N34 C37 1.390 . S
N35 C36 1.345 . S
N35 C38 1.336 . S
C36 N34 1.335 . S
C36 N35 1.345 . S
C36 H41 0.930 . S
C37 N34 1.390 . S
C37 C38 1.346 . S
C37 H42 0.930 . S
C38 N35 1.336 . S
C38 C37 1.346 . S
C38 H45 0.929 . S
C39 O29 1.282 1_655 S
C39 O40 1.216 . S
O40 C39 1.216 . S
H41 C36 0.930 . S
H42 C37 0.930 . S
O43 Cu23 1.959 . S
O43 C30 1.251 . S
H44 C27 0.930 . S
H45 C38 0.929 . S
Cu46 N47 1.999 . S
Cu46 O52 1.974 . S
Cu46 N57 1.985 . S
Cu46 O66 1.959 . S
N47 Cu46 1.999 . S
N47 C49 1.263 . S
N47 C51 1.389 . S
N48 C49 1.358 . S
N48 C50 1.400 . S
C49 N47 1.263 . S
C49 N48 1.358 . S
C49 H55 0.930 . S
C50 N48 1.400 . S
C50 C51 1.351 . S
C50 H67 0.930 . S
C51 N47 1.389 . S
C51 C50 1.351 . S
C51 H56 0.930 . S
O52 Cu46 1.974 . S
O52 C62 1.282 . S
C53 O54 1.261 . S
C53 O66 1.251 . S
O54 C53 1.261 . S
H55 C49 0.930 . S
H56 C51 0.930 . S
N57 Cu46 1.985 . S
N57 C59 1.335 1_545 S
N57 C60 1.390 1_545 S
N58 C59 1.345 . S
N58 C61 1.336 . S
C59 N57 1.335 1_565 S
C59 N58 1.345 . S
C59 H64 0.930 1_565 S
C60 N57 1.390 1_565 S
C60 C61 1.346 . S
C60 H65 0.930 . S
C61 N58 1.336 . S
C61 C60 1.346 . S
C61 H68 0.929 . S
C62 O52 1.282 . S
C62 O63 1.216 . S
O63 C62 1.216 . S
H64 C59 0.930 1_545 S
H65 C60 0.930 . S
O66 Cu46 1.959 . S
O66 C53 1.251 . S
H67 C50 0.930 . S
H68 C61 0.929 . S
H69 C81 0.930 . S
H70 C83 0.930 . S
H71 C84 0.930 . S
H72 C88 0.959 . S
H73 C88 0.959 . S
H74 C88 0.961 . S
H75 C89 0.960 . S
H76 C89 0.961 . S
H77 C89 0.959 1_554 S
H78 C92 0.929 . S
H79 C93 0.931 . S
H80 C95 0.930 . S
C81 H69 0.930 . S
C81 C82 1.399 1_556 S
C81 C86 1.399 . S
C82 C81 1.399 1_554 S
C82 C83 1.376 1_565 S
C83 H70 0.930 . S
C83 C82 1.376 1_545 S
C83 C84 1.388 . S
C84 H71 0.930 . S
C84 C83 1.388 . S
C84 C85 1.390 . S
C85 C84 1.390 . S
C85 C86 1.394 1_544 S
C85 C91 1.465 . S
C86 C81 1.399 . S
C86 C85 1.394 1_566 S
C86 C87 1.516 . S
C87 C86 1.516 . S
C87 C88 1.502 . S
C87 C89 1.561 . S
C87 C90 1.526 . S
C88 H72 0.959 . S
C88 H73 0.959 . S
C88 H74 0.961 . S
C88 C87 1.502 . S
C89 H75 0.960 . S
C89 H76 0.961 . S
C89 H77 0.959 1_556 S
C89 C87 1.561 . S
C90 C87 1.526 . S
C90 C91 1.396 1_566 S
C90 C95 1.390 . S
C91 C85 1.465 . S
C91 C90 1.396 1_544 S
C91 C92 1.399 . S
C92 H78 0.929 . S
C92 C91 1.399 . S
C92 C93 1.385 . S
C93 H79 0.931 . S
C93 C92 1.385 . S
C93 C94 1.397 1_545 S
C94 C93 1.397 1_565 S
C94 C95 1.378 1_554 S
C95 H80 0.930 . S
C95 C90 1.390 . S
C95 C94 1.378 1_556 S
H96 C108 0.930 . S
H97 C110 0.930 . S
H98 C111 0.930 . S
H99 C115 0.959 . S
H100 C115 0.959 . S
H101 C115 0.961 . S
H102 C116 0.960 . S
H103 C116 0.961 . S
H104 C116 0.959 . S
H105 C119 0.929 . S
H106 C120 0.931 . S
H107 C122 0.930 . S
C108 H96 0.930 . S
C108 C109 1.399 . S
C108 C113 1.399 . S
C109 C108 1.399 . S
C109 C110 1.376 . S
C110 H97 0.930 . S
C110 C109 1.376 . S
C110 C111 1.388 . S
C111 H98 0.930 . S
C111 C110 1.388 . S
C111 C112 1.390 . S
C112 C111 1.390 . S
C112 C113 1.394 . S
C112 C118 1.465 . S
C113 C108 1.399 . S
C113 C112 1.394 . S
C113 C114 1.516 . S
C114 C113 1.516 . S
C114 C115 1.502 . S
C114 C116 1.561 . S
C114 C117 1.526 . S
C115 H99 0.959 . S
C115 H100 0.959 . S
C115 H101 0.961 . S
C115 C114 1.502 . S
C116 H102 0.960 . S
C116 H103 0.961 . S
C116 H104 0.959 . S
C116 C114 1.561 . S
C117 C114 1.526 . S
C117 C118 1.396 . S
C117 C122 1.390 . S
C118 C112 1.465 . S
C118 C117 1.396 . S
C118 C119 1.399 . S
C119 H105 0.929 . S
C119 C118 1.399 . S
C119 C120 1.385 . S
C120 H106 0.931 . S
C120 C119 1.385 . S
C120 C121 1.389 . S
C121 C120 1.389 . S
C121 C122 1.387 . S
C122 H107 0.930 . S
C122 C117 1.390 . S
C122 C121 1.387 . S
H123 C135 0.930 . S
H124 C137 0.930 . S
H125 C138 0.930 . S
H126 C142 0.959 . S
H127 C142 0.959 . S
H128 C142 0.961 . S
H129 C143 0.960 . S
H130 C143 0.961 . S
H131 C143 0.959 . S
H132 C146 0.929 . S
H133 C147 0.931 . S
H134 C149 0.930 . S
C135 H123 0.930 . S
C135 C136 1.399 . S
C135 C140 1.399 . S
C136 C135 1.399 . S
C136 C137 1.376 . S
C137 H124 0.930 . S
C137 C136 1.376 . S
C137 C138 1.388 . S
C138 H125 0.930 . S
C138 C137 1.388 . S
C138 C139 1.390 . S
C139 C138 1.390 . S
C139 C140 1.394 . S
C139 C145 1.465 . S
C140 C135 1.399 . S
C140 C139 1.394 . S
C140 C141 1.516 . S
C141 C140 1.516 . S
C141 C142 1.502 . S
C141 C143 1.561 . S
C141 C144 1.526 . S
C142 H126 0.959 . S
C142 H127 0.959 . S
C142 H128 0.961 . S
C142 C141 1.502 . S
C143 H129 0.960 . S
C143 H130 0.961 . S
C143 H131 0.959 . S
C143 C141 1.561 . S
C144 C141 1.526 . S
C144 C145 1.396 . S
C144 C149 1.390 . S
C145 C139 1.465 . S
C145 C144 1.396 . S
C145 C146 1.399 . S
C146 H132 0.929 . S
C146 C145 1.399 . S
C146 C147 1.385 . S
C147 H133 0.931 . S
C147 C146 1.385 . S
C147 C148 1.389 . S
C148 C147 1.389 . S
C148 C149 1.387 . S
C149 H134 0.930 . S
C149 C144 1.390 . S
C149 C148 1.387 . S
H150 C162 0.930 1_565 S
H151 C164 0.930 . S
H152 C165 0.930 . S
H153 C169 0.959 1_545 S
H154 C169 0.959 . S
H155 C169 0.961 . S
H156 C170 0.960 . S
H157 C170 0.961 . S
H158 C170 0.959 . S
H159 C173 0.929 . S
H160 C174 0.931 1_455 S
H161 C176 0.930 . S
C162 H150 0.930 1_545 S
C162 C163 1.399 . S
C162 C167 1.399 . S
C163 C162 1.399 . S
C163 C164 1.376 . S
C164 H151 0.930 . S
C164 C163 1.376 . S
C164 C165 1.388 . S
C165 H152 0.930 . S
C165 C164 1.388 . S
C165 C166 1.390 . S
C166 C165 1.390 . S
C166 C167 1.394 . S
C166 C172 1.465 . S
C167 C162 1.399 . S
C167 C166 1.394 . S
C167 C168 1.516 1_545 S
C168 C167 1.516 1_565 S
C168 C169 1.502 1_655 S
C168 C170 1.561 . S
C168 C171 1.526 1_565 S
C169 H153 0.959 1_565 S
C169 H154 0.959 . S
C169 H155 0.961 . S
C169 C168 1.502 1_455 S
C170 H156 0.960 . S
C170 H157 0.961 . S
C170 H158 0.959 . S
C170 C168 1.561 . S
C171 C168 1.526 1_545 S
C171 C172 1.396 . S
C171 C176 1.390 1_545 S
C172 C166 1.465 . S
C172 C171 1.396 . S
C172 C173 1.399 . S
C173 H159 0.929 . S
C173 C172 1.399 . S
C173 C174 1.385 . S
C174 H160 0.931 1_655 S
C174 C173 1.385 . S
C174 C175 1.389 1_655 S
C175 C174 1.389 1_455 S
C175 C176 1.387 1_445 S
C176 H161 0.930 . S
C176 C171 1.390 1_565 S
C176 C175 1.387 1_665 S
H177 C189 0.930 . S
H178 C191 0.920 1_565 S
H179 C192 0.930 1_565 S
H180 C196 0.959 1_655 S
H181 C196 0.959 . S
H182 C196 0.961 . S
H183 C197 0.960 . S
H184 C197 0.961 . S
H185 C197 0.959 . S
H186 C200 0.929 1_565 S
H187 C201 0.931 1_655 S
H188 C203 0.930 . S
C189 H177 0.930 . S
C189 C190 1.399 . S
C189 C194 1.399 . S
C190 C189 1.399 . S
C190 C191 1.376 . S
C191 H178 0.920 1_545 S
C191 C190 1.376 . S
C191 C192 1.388 . S
C192 H179 0.930 1_545 S
C192 C191 1.388 . S
C192 C193 1.390 . S
C193 C192 1.390 . S
C193 C194 1.394 . S
C193 C199 1.465 . S
C194 C189 1.399 . S
C194 C193 1.394 . S
C194 C195 1.516 . S
C195 C194 1.516 . S
C195 C196 1.502 . S
C195 C197 1.561 . S
C195 C198 1.526 . S
C196 H180 0.959 1_455 S
C196 H181 0.959 . S
C196 H182 0.961 . S
C196 C195 1.502 . S
C197 H183 0.960 . S
C197 H184 0.961 . S
C197 H185 0.959 . S
C197 C195 1.561 . S
C198 C195 1.526 . S
C198 C199 1.396 . S
C198 C203 1.390 . S
C199 C193 1.465 . S
C199 C198 1.396 . S
C199 C200 1.399 . S
C200 H186 0.929 1_545 S
C200 C199 1.399 . S
C200 C201 1.385 . S
C201 H187 0.931 1_455 S
C201 C200 1.385 . S
C201 C202 1.389 . S
C202 C201 1.389 . S
C202 C203 1.387 . S
C203 H188 0.930 . S
C203 C198 1.390 . S
C203 C202 1.387 . S
H204 C216 0.930 . S
H205 C218 0.930 1_565 S
H206 C219 0.930 1_655 S
H207 C223 0.959 . S
H208 C223 0.959 . S
H209 C223 0.961 . S
H210 C224 0.960 . S
H211 C224 0.961 . S
H212 C224 0.959 . S
H213 C227 0.929 . S
H214 C228 0.931 . S
H215 C230 0.930 . S
C216 H204 0.930 . S
C216 C217 1.399 . S
C216 C221 1.399 . S
C217 C216 1.399 . S
C217 C218 1.376 . S
C218 H205 0.930 1_545 S
C218 C217 1.376 . S
C218 C219 1.388 1_545 S
C219 H206 0.930 1_455 S
C219 C218 1.388 1_565 S
C219 C220 1.390 1_565 S
C220 C219 1.390 1_545 S
C220 C221 1.394 . S
C220 C226 1.465 . S
C221 C216 1.399 . S
C221 C220 1.394 . S
C221 C222 1.516 . S
C222 C221 1.516 . S
C222 C223 1.502 . S
C222 C224 1.561 . S
C222 C225 1.526 . S
C223 H207 0.959 . S
C223 H208 0.959 . S
C223 H209 0.961 . S
C223 C222 1.502 . S
C224 H210 0.960 . S
C224 H211 0.961 . S
C224 H212 0.959 . S
C224 C222 1.561 . S
C225 C222 1.526 . S
C225 C226 1.396 . S
C225 C230 1.390 . S
C226 C220 1.465 . S
C226 C225 1.396 . S
C226 C227 1.399 1_445 S
C227 H213 0.929 . S
C227 C226 1.399 1_665 S
C227 C228 1.385 . S
C228 H214 0.931 . S
C228 C227 1.385 . S
C228 C229 1.389 1_665 S
C229 C228 1.389 1_445 S
C229 C230 1.387 . S
C230 H215 0.930 . S
C230 C225 1.390 . S
C230 C229 1.387 . S
C82 C16 1.491 1_554 S
C94 C7 1.487 1_554 S
C109 N35 1.453 . S
C121 N25 1.433 . S
C136 N58 1.481 . S
C148 N48 1.421 . S
C163 C39 1.583 . S
C175 N2 1.507 . S
C190 C62 1.567 . S
C202 C30 1.574 . S
C217 C53 1.504 . S
C229 N12 1.475 . S
