# Generated by pormake.
# Topology pcu, (6)-cn, num edge types: 1
# Building blocks:
#     Node 0, Type 0, BuildingBlock: KUMBUR_clean_sbu_1, # of connection points: 6
#     Edge 1, Type (0, 0), BuildingBlock: TEMPAE_clean_linker_10, # of connection points: 2
#     Edge 2, Type (0, 0), BuildingBlock: TEMPAE_clean_linker_10, # of connection points: 2
#     Edge 3, Type (0, 0), BuildingBlock: TEMPAE_clean_linker_10, # of connection points: 2
# Relax obj value: 0.000
# Max RMSD: 0.000
# Mean RMSD: 0.000
data_MOF--net-pcu--node1-KUMBUR_clean_sbu_1--edge1-TEMPAE_clean_linker_10
_symmetry_space_group_name_H-M    P1
_symmetry_Int_Tables_number       1
_symmetry_cell_setting            triclinic
loop_
_symmetry_equiv_pos_as_xyz
'x, y, z'
_cell_length_a     14.989358
_cell_length_b     24.743131
_cell_length_c     14.929645
_cell_angle_alpha  113.85825
_cell_angle_beta   89.137362
_cell_angle_gamma 115.17631
loop_
_atom_site_label
_atom_site_type_symbol
_atom_site_fract_x
_atom_site_fract_y
_atom_site_fract_z
_atom_type_partial_charge
Tb0 Tb 0.93156 0.9026 0.93042 0.0
C1 C 0.24223 0.19673 0.26092 0.0
N2 N 0.14081 0.16221 0.23746 0.0
C3 C 0.13287 0.19473 0.41102 0.0
C4 C 0.29376 0.23059 0.3605 0.0
C5 C 0.08544 0.16357 0.31112 0.0
C6 C 0.23767 0.22761 0.43575 0.0
C7 C 0.39797 0.24314 0.20638 0.0
C8 C 0.29351 0.2022 0.18528 0.0
C9 C 0.45084 0.27487 0.30479 0.0
C10 C 0.39882 0.26827 0.38173 0.0
Tb11 Tb 0.07023 0.10882 0.07179 0.0
N12 N 0.23961 0.1705 0.09147 0.0
C13 C 0.44531 0.25227 0.1284 0.0
C14 C 0.28453 0.18159 0.01586 0.0
C15 C 0.38812 0.22181 0.03287 0.0
H16 H 1.0044 0.13998 0.29263 0.0
H17 H 0.42366 0.22952 0.97248 0.0
H18 H 0.80803 0.85716 0.7116 0.0
H19 H 0.79547 0.85772 0.24585 0.0
H20 H 0.24029 0.15871 0.94239 0.0
H21 H 0.52545 0.28354 0.14148 0.0
H22 H 0.91787 0.87698 0.13739 0.0
H23 H 0.08859 0.19397 0.46884 0.0
H24 H 0.53141 0.30582 0.32249 0.0
H25 H 0.44006 0.29431 0.45767 0.0
H26 H 0.63252 0.81524 0.63377 0.0
H27 H 0.27427 0.25252 0.51325 0.0
H28 H 0.6224 0.83573 0.19595 0.0
N29 N 0.77211 0.86336 0.85254 0.0
C30 C 0.69864 0.85057 0.90627 0.0
C31 C 0.65019 0.82525 0.71062 0.0
C32 C 0.59767 0.82626 0.86505 0.0
C33 C 0.74919 0.8488 0.75461 0.0
C34 C 0.57416 0.81444 0.76633 0.0
N35 N 0.82247 0.87943 0.03559 0.0
C36 C 0.84566 0.87317 0.11813 0.0
C37 C 0.65019 0.84442 0.0585 0.0
C38 C 0.72503 0.86015 1.0018 0.0
C39 C 0.67746 0.84725 0.15 0.0
C40 C 0.77509 0.85989 0.17858 0.0
H41 H 0.49745 0.7958 0.73188 0.0
H42 H 0.44538 0.79377 0.89236 0.0
H43 H 0.49154 0.8108 0.06232 0.0
O44 O 0.89961 0.80816 0.92024 0.0
O45 O 0.86668 0.96435 0.91509 0.0
O46 O 0.91553 0.04655 0.07262 0.0
O47 O 0.93697 0.83026 0.79677 0.0
O48 O 0.02423 0.95389 0.08017 0.0
O49 O 0.99098 0.04178 0.13799 0.0
O50 O 1.01508 0.14435 0.98948 0.0
O51 O 0.17432 0.06555 0.02353 0.0
O52 O 0.09572 0.9492 0.96745 0.0
O53 O 0.06457 0.19934 0.14772 0.0
O54 O 0.05619 0.06334 0.90869 0.0
O55 O 0.99556 0.94677 0.82959 0.0
C56 C 0.85006 1.0082 0.98925 0.0
C57 C 0.98772 0.75576 0.81508 0.0
C58 C 0.0382 0.67849 0.835 0.0
C59 C 0.11446 0.69501 0.78074 0.0
C60 C 0.06371 0.77032 0.75948 0.0
C61 C 0.12618 0.73995 0.74241 0.0
C62 C 0.97421 0.70864 0.8513 0.0
C63 C 0.02844 1.00702 0.1549 0.0
C64 C 0.9202 0.78737 0.8318 0.0
C65 C 0.52357 0.81314 0.92279 0.0
C66 C 0.54988 0.82273 0.01962 0.0
C67 C 0.17527 1.00747 0.99207 0.0
C68 C 0.09352 0.2623 0.05714 0.0
C69 C 0.1025 0.34815 0.00998 0.0
C70 C 0.20731 0.38059 0.0397 0.0
C71 C 0.19816 0.29756 0.09021 0.0
C72 C 0.04538 0.28851 0.01818 0.0
C73 C 0.25462 0.35559 0.0801 0.0
C74 C 0.03334 1.00602 0.82993 0.0
C75 C 0.03502 0.19998 0.06701 0.0
H76 H 0.16395 0.67204 0.76632 0.0
H77 H 0.07512 0.80518 0.72886 0.0
H78 H 0.18382 0.7511 0.69888 0.0
H79 H 0.91488 0.69592 0.89272 0.0
H80 H 0.25239 0.42647 0.03407 0.0
H81 H 0.23658 0.28116 0.12575 0.0
H82 H 0.96442 0.26309 0.99511 0.0
H83 H 0.33526 0.38188 0.10517 0.0
C84 C 0.96791 0.01941 0.31481 0.0
C85 C 0.03952 1.01174 0.25629 0.0
C86 C 0.97273 0.01961 0.40864 0.0
C87 C 0.05247 1.01344 0.44594 0.0
C88 C 0.1265 1.00732 0.38798 0.0
C89 C 0.11822 1.00549 0.29292 0.0
C90 C 0.8909 0.02465 0.46663 0.0
C91 C 0.21391 1.00225 0.42613 0.0
C92 C 0.09457 0.06879 0.72608 0.0
C93 C 0.0459 1.00789 0.73178 0.0
C94 C 0.10131 0.0712 0.63362 0.0
C95 C 0.05602 1.01143 0.54431 0.0
C96 C 1.0082 0.94979 0.54925 0.0
C97 C 1.00472 0.94872 0.64265 0.0
C98 C 0.15436 0.13794 0.63162 0.0
C99 C 0.95699 0.88497 0.45584 0.0
H100 H 0.90598 0.02307 0.28557 0.0
H101 H 0.1735 0.99958 0.24738 0.0
H102 H 0.85245 0.98006 0.48045 0.0
H103 H 0.92382 0.06863 0.54036 0.0
H104 H 0.83395 0.02886 0.42677 0.0
H105 H 0.26787 1.00139 0.37437 0.0
H106 H 0.2543 0.04495 0.49997 0.0
H107 H 0.18618 0.95632 0.43668 0.0
H108 H 0.12635 0.11495 0.79381 0.0
H109 H 0.96675 0.90128 0.64542 0.0
H110 H 0.09854 0.14912 0.60501 0.0
H111 H 0.20728 0.13713 0.57886 0.0
H112 H 0.19661 0.17882 0.70645 0.0
H113 H 0.89356 0.88399 0.41672 0.0
H114 H 0.92745 0.84109 0.47208 0.0
H115 H 1.00991 0.88046 0.4039 0.0
C116 C 0.27916 0.94751 0.92954 0.0
C117 C 0.27427 1.00695 0.98653 0.0
C118 C 0.37134 0.94544 0.92429 0.0
C119 C 0.46168 1.00429 0.97802 0.0
C120 C 0.45756 0.0647 0.0343 0.0
C121 C 0.36411 0.06511 0.03839 0.0
C122 C 0.36933 0.87949 0.86061 0.0
C123 C 0.55216 0.12918 0.08941 0.0
C124 C 0.69758 1.00176 0.06181 0.0
C125 C 0.75051 1.0061 0.98493 0.0
C126 C 0.60145 0.99791 0.05789 0.0
C127 C 0.56032 1.00299 0.97855 0.0
C128 C 0.61402 1.00753 0.90076 0.0
C129 C 0.70769 1.00745 0.90375 0.0
C130 C 0.54308 0.98707 0.13753 0.0
C131 C 0.57232 1.01225 0.81441 0.0
H132 H 0.21073 0.90214 0.8883 0.0
H133 H 0.36168 0.11089 0.08381 0.0
H134 H 0.4447 0.88221 0.85618 0.0
H135 H 0.32624 0.84339 0.89033 0.0
H136 H 0.32952 0.85975 0.78373 0.0
H137 H 0.53631 0.1717 0.13134 0.0
H138 H 0.59619 0.12481 0.14282 0.0
H139 H 0.59996 0.14025 0.03541 0.0
H140 H 0.73018 0.99923 0.12347 0.0
H141 H 0.7487 1.01018 0.84397 0.0
H142 H 0.46847 0.94297 0.10219 0.0
H143 H 0.52995 0.03058 0.18097 0.0
H144 H 0.58264 0.97916 0.18978 0.0
H145 H 0.50284 0.96561 0.77063 0.0
H146 H 0.62649 0.02042 0.76389 0.0
H147 H 0.5519 0.05362 0.84249 0.0
C148 C 0.93637 0.56993 0.84271 0.0
C149 C 0.02638 0.6289 0.87219 0.0
C150 C 0.93022 0.51827 0.86469 0.0
C151 C 1.01575 0.52633 0.91843 0.0
C152 C 0.1049 0.58748 0.95314 0.0
C153 C 0.10932 0.63766 0.92888 0.0
C154 C 0.83407 0.45388 0.82579 0.0
C155 C 0.19738 0.59896 0.0123 0.0
C156 C 1.01222 0.41662 0.03978 0.0
C157 C 0.05595 0.38001 0.97505 0.0
C158 C 0.99221 0.46161 0.01933 0.0
C159 C 1.0162 0.46972 0.93187 0.0
C160 C 0.05329 0.4289 0.86278 0.0
C161 C 0.0737 0.38507 0.88576 0.0
C162 C 0.95311 0.50416 0.09525 0.0
C163 C 0.07849 0.43497 0.76791 0.0
H164 H 0.87241 0.56289 0.79816 0.0
H165 H 0.17878 0.68342 0.95216 0.0
H166 H 0.84575 0.41439 0.76508 0.0
H167 H 0.8123 0.43766 0.88546 0.0
H168 H 0.77117 0.45819 0.79603 0.0
H169 H 0.25756 0.65105 0.04091 0.0
H170 H 0.17816 0.58719 0.07646 0.0
H171 H 0.22736 0.56533 0.96453 0.0
H172 H 1.00017 0.41347 0.10968 0.0
H173 H 0.10861 0.35723 0.83637 0.0
H174 H 0.89308 0.50731 0.05825 0.0
H175 H 1.015 0.55543 0.13603 0.0
H176 H 0.9232 0.48475 0.15037 0.0
H177 H 1.01596 0.43467 0.72856 0.0
H178 H 0.09411 0.39412 0.71645 0.0
H179 H 0.1459 0.48302 0.78639 0.0
loop_
_geom_bond_atom_site_label_1
_geom_bond_atom_site_label_2
_geom_bond_distance
_geom_bond_site_symmetry_2
_ccdc_geom_bond_type
Tb0 N29 2.617 . S
Tb0 N35 2.572 . S
Tb0 O44 2.465 . S
Tb0 O45 2.387 . S
Tb0 O47 2.428 . S
Tb0 O48 2.308 1_556 S
Tb0 O52 2.349 1_655 S
Tb0 O55 2.393 . S
Tb0 C64 2.802 . S
C1 N2 1.379 . S
C1 C4 1.416 . S
C1 C8 1.424 . S
N2 C1 1.379 . S
N2 C5 1.334 . S
N2 Tb11 2.617 . S
C3 C5 1.390 . S
C3 C6 1.339 . S
C3 H23 0.930 . S
C4 C1 1.416 . S
C4 C6 1.416 . S
C4 C10 1.448 . S
C5 N2 1.334 . S
C5 C3 1.390 . S
C5 H16 0.930 . S
C6 C3 1.339 . S
C6 C4 1.416 . S
C6 H27 0.930 . S
C7 C8 1.413 . S
C7 C9 1.427 . S
C7 C13 1.416 . S
C8 C1 1.424 . S
C8 C7 1.413 . S
C8 N12 1.361 . S
C9 C7 1.427 . S
C9 C10 1.328 . S
C9 H24 0.929 . S
C10 C4 1.448 . S
C10 C9 1.328 . S
C10 H25 0.930 . S
Tb11 N2 2.617 . S
Tb11 N12 2.572 . S
Tb11 O46 2.349 1_455 S
Tb11 O49 2.393 . S
Tb11 O50 2.465 . S
Tb11 O51 2.387 . S
Tb11 O53 2.428 . S
Tb11 O54 2.308 1_554 S
Tb11 C75 2.802 . S
N12 C8 1.361 . S
N12 Tb11 2.572 . S
N12 C14 1.340 1_554 S
C13 C7 1.416 . S
C13 C15 1.332 1_554 S
C13 H21 0.931 1_554 S
C14 N12 1.340 1_556 S
C14 C15 1.407 . S
C14 H20 0.930 . S
C15 C13 1.332 1_556 S
C15 C14 1.407 . S
C15 H17 0.929 . S
H16 C5 0.930 . S
H17 C15 0.929 . S
H18 C33 0.930 . S
H19 C40 0.929 . S
H20 C14 0.930 . S
H21 C13 0.931 1_556 S
H22 C36 0.930 . S
H23 C3 0.930 . S
H24 C9 0.929 . S
H25 C10 0.930 . S
H26 C31 0.930 . S
H27 C6 0.930 . S
H28 C39 0.931 1_554 S
N29 Tb0 2.617 . S
N29 C30 1.379 . S
N29 C33 1.334 . S
C30 N29 1.379 . S
C30 C32 1.416 . S
C30 C38 1.424 . S
C31 H26 0.930 . S
C31 C33 1.390 . S
C31 C34 1.339 . S
C32 C30 1.416 . S
C32 C34 1.416 . S
C32 C65 1.448 . S
C33 H18 0.930 . S
C33 N29 1.334 . S
C33 C31 1.390 . S
C34 C31 1.339 . S
C34 C32 1.416 . S
C34 H41 0.930 . S
N35 Tb0 2.572 . S
N35 C36 1.340 1_556 S
N35 C38 1.361 . S
C36 H22 0.930 . S
C36 N35 1.340 1_554 S
C36 C40 1.407 . S
C37 C38 1.413 . S
C37 C39 1.416 . S
C37 C66 1.427 . S
C38 C30 1.424 . S
C38 N35 1.361 . S
C38 C37 1.413 . S
C39 H28 0.931 1_556 S
C39 C37 1.416 . S
C39 C40 1.332 1_556 S
C40 H19 0.929 . S
C40 C36 1.407 . S
C40 C39 1.332 1_554 S
H41 C34 0.930 . S
H42 C65 0.930 . S
H43 C66 0.929 . S
O44 Tb0 2.465 . S
O44 C64 1.264 . S
O45 Tb0 2.387 . S
O45 C56 1.257 1_565 S
O46 Tb11 2.349 1_655 S
O46 C56 1.247 1_554 S
O47 Tb0 2.428 . S
O47 C64 1.256 . S
O48 Tb0 2.308 1_554 S
O48 C63 1.266 1_565 S
O49 Tb11 2.393 . S
O49 C63 1.248 1_455 S
O50 Tb11 2.465 . S
O50 C75 1.264 . S
O51 Tb11 2.387 . S
O51 C67 1.261 1_545 S
O52 Tb0 2.349 1_455 S
O52 C67 1.245 1_556 S
O53 Tb11 2.428 . S
O53 C75 1.256 . S
O54 Tb11 2.308 1_556 S
O54 C74 1.266 1_545 S
O55 Tb0 2.393 . S
O55 C74 1.248 1_655 S
C56 O45 1.257 1_545 S
C56 O46 1.247 1_556 S
C57 C60 1.399 . S
C57 C62 1.383 . S
C57 C64 1.496 . S
C58 C59 1.399 . S
C58 C62 1.389 . S
C59 C58 1.399 . S
C59 C61 1.380 . S
C59 H76 0.929 . S
C60 C57 1.399 . S
C60 C61 1.392 . S
C60 H77 0.929 . S
C61 C59 1.380 . S
C61 C60 1.392 . S
C61 H78 0.929 . S
C62 C57 1.383 . S
C62 C58 1.389 . S
C62 H79 0.931 1_556 S
C63 O48 1.266 1_545 S
C63 O49 1.248 1_655 S
C64 Tb0 2.802 . S
C64 O44 1.264 . S
C64 O47 1.256 . S
C64 C57 1.496 . S
C65 C32 1.448 . S
C65 H42 0.930 . S
C65 C66 1.328 . S
C66 C37 1.427 . S
C66 H43 0.929 . S
C66 C65 1.328 . S
C67 O51 1.261 1_565 S
C67 O52 1.245 1_554 S
C68 C71 1.399 . S
C68 C72 1.383 . S
C68 C75 1.496 . S
C69 C70 1.399 . S
C69 C72 1.389 . S
C70 C69 1.399 . S
C70 C73 1.380 . S
C70 H80 0.929 . S
C71 C68 1.399 . S
C71 C73 1.392 . S
C71 H81 0.929 . S
C72 C68 1.383 . S
C72 C69 1.389 . S
C72 H82 0.931 1_554 S
C73 C70 1.380 . S
C73 C71 1.392 . S
C73 H83 0.929 . S
C74 O54 1.266 1_565 S
C74 O55 1.248 1_455 S
C75 Tb11 2.802 . S
C75 O50 1.264 . S
C75 O53 1.256 . S
C75 C68 1.496 . S
H76 C59 0.929 . S
H77 C60 0.929 . S
H78 C61 0.929 . S
H79 C62 0.931 1_554 S
H80 C70 0.929 . S
H81 C71 0.929 . S
H82 C72 0.931 1_556 S
H83 C73 0.929 . S
C84 C85 1.391 1_655 S
C84 C86 1.394 . S
C84 H100 0.931 . S
C85 C84 1.391 1_455 S
C85 C89 1.376 1_565 S
C86 C84 1.394 . S
C86 C87 1.369 1_655 S
C86 C90 1.531 . S
C87 C86 1.369 1_455 S
C87 C88 1.410 1_565 S
C87 C95 1.503 . S
C88 C87 1.410 1_545 S
C88 C89 1.392 . S
C88 C91 1.511 . S
C89 C85 1.376 1_545 S
C89 C88 1.392 . S
C89 H101 0.929 . S
C90 C86 1.531 . S
C90 H102 0.960 . S
C90 H103 0.962 . S
C90 H104 0.960 . S
C91 C88 1.511 . S
C91 H105 0.961 . S
C91 H106 0.961 . S
C91 H107 0.961 . S
C92 C93 1.370 1_645 S
C92 C94 1.363 . S
C92 H108 0.931 . S
C93 C92 1.370 1_465 S
C93 C97 1.408 . S
C94 C92 1.363 . S
C94 C95 1.370 1_645 S
C94 C98 1.524 . S
C95 C87 1.503 . S
C95 C94 1.370 1_465 S
C95 C96 1.403 . S
C96 C95 1.403 . S
C96 C97 1.404 . S
C96 C99 1.539 . S
C97 C93 1.408 . S
C97 C96 1.404 . S
C97 H109 0.930 . S
C98 C94 1.524 . S
C98 H110 0.956 . S
C98 H111 0.962 . S
C98 H112 0.961 . S
C99 C96 1.539 . S
C99 H113 0.958 . S
C99 H114 0.961 . S
C99 H115 0.960 . S
H100 C84 0.931 . S
H101 C89 0.929 . S
H102 C90 0.960 . S
H103 C90 0.962 . S
H104 C90 0.960 . S
H105 C91 0.961 . S
H106 C91 0.961 . S
H107 C91 0.961 . S
H108 C92 0.931 . S
H109 C97 0.930 . S
H110 C98 0.956 . S
H111 C98 0.962 . S
H112 C98 0.961 . S
H113 C99 0.958 . S
H114 C99 0.961 . S
H115 C99 0.960 . S
C116 C117 1.391 1_565 S
C116 C118 1.394 . S
C116 H132 0.931 . S
C117 C116 1.391 1_545 S
C117 C121 1.376 1_556 S
C118 C116 1.394 . S
C118 C119 1.369 1_565 S
C118 C122 1.531 . S
C119 C118 1.369 1_545 S
C119 C120 1.410 1_556 S
C119 C127 1.503 . S
C120 C119 1.410 1_554 S
C120 C121 1.392 . S
C120 C123 1.511 . S
C121 C117 1.376 1_554 S
C121 C120 1.392 . S
C121 H133 0.929 . S
C122 C118 1.531 . S
C122 H134 0.960 . S
C122 H135 0.962 . S
C122 H136 0.960 . S
C123 C120 1.511 . S
C123 H137 0.961 . S
C123 H138 0.961 . S
C123 H139 0.961 . S
C124 C125 1.370 1_564 S
C124 C126 1.363 . S
C124 H140 0.931 . S
C125 C124 1.370 1_546 S
C125 C129 1.408 . S
C126 C124 1.363 . S
C126 C127 1.370 1_564 S
C126 C130 1.524 . S
C127 C119 1.503 . S
C127 C126 1.370 1_546 S
C127 C128 1.403 . S
C128 C127 1.403 . S
C128 C129 1.404 . S
C128 C131 1.539 . S
C129 C125 1.408 . S
C129 C128 1.404 . S
C129 H141 0.930 . S
C130 C126 1.524 . S
C130 H142 0.956 . S
C130 H143 0.961 . S
C130 H144 0.961 . S
C131 C128 1.539 . S
C131 H145 0.958 . S
C131 H146 0.961 . S
C131 H147 0.960 . S
H132 C116 0.931 . S
H133 C121 0.929 . S
H134 C122 0.960 . S
H135 C122 0.962 . S
H136 C122 0.960 . S
H137 C123 0.961 . S
H138 C123 0.961 . S
H139 C123 0.961 . S
H140 C124 0.931 . S
H141 C129 0.930 . S
H142 C130 0.956 . S
H143 C130 0.961 . S
H144 C130 0.961 . S
H145 C131 0.958 . S
H146 C131 0.961 . S
H147 C131 0.960 . S
C148 C149 1.391 1_655 S
C148 C150 1.394 . S
C148 H164 0.931 . S
C149 C148 1.391 1_455 S
C149 C153 1.376 1_556 S
C150 C148 1.394 . S
C150 C151 1.369 1_655 S
C150 C154 1.531 . S
C151 C150 1.369 1_455 S
C151 C152 1.410 1_556 S
C151 C159 1.503 . S
C152 C151 1.410 1_554 S
C152 C153 1.392 . S
C152 C155 1.511 . S
C153 C149 1.376 1_554 S
C153 C152 1.392 . S
C153 H165 0.929 . S
C154 C150 1.531 . S
C154 H166 0.960 . S
C154 H167 0.962 . S
C154 H168 0.960 . S
C155 C152 1.511 . S
C155 H169 0.961 . S
C155 H170 0.961 . S
C155 H171 0.961 . S
C156 C157 1.370 1_654 S
C156 C158 1.363 . S
C156 H172 0.931 . S
C157 C156 1.370 1_456 S
C157 C161 1.408 . S
C158 C156 1.363 . S
C158 C159 1.370 1_654 S
C158 C162 1.524 . S
C159 C151 1.503 . S
C159 C158 1.370 1_456 S
C159 C160 1.403 . S
C160 C159 1.403 . S
C160 C161 1.404 . S
C160 C163 1.539 . S
C161 C157 1.408 . S
C161 C160 1.404 . S
C161 H173 0.930 . S
C162 C158 1.524 . S
C162 H174 0.956 . S
C162 H175 0.961 . S
C162 H176 0.961 . S
C163 C160 1.539 . S
C163 H177 0.958 . S
C163 H178 0.961 . S
C163 H179 0.960 . S
H164 C148 0.931 . S
H165 C153 0.929 . S
H166 C154 0.960 . S
H167 C154 0.962 . S
H168 C154 0.960 . S
H169 C155 0.961 . S
H170 C155 0.961 . S
H171 C155 0.961 . S
H172 C156 0.931 . S
H173 C161 0.930 . S
H174 C162 0.956 . S
H175 C162 0.961 . S
H176 C162 0.961 . S
H177 C163 0.958 . S
H178 C163 0.961 . S
H179 C163 0.960 . S
C85 C63 1.495 1_465 S
C93 C74 1.471 . S
C117 C67 1.501 1_546 S
C125 C56 1.495 . S
C149 C58 1.312 1_455 S
C157 C69 1.373 1_556 S
