# Generated by pormake.
# Topology sve, (7)-cn, num edge types: 1
# Building blocks:
#     Node 0, Type 0, BuildingBlock: HICVOG_clean_sbu_0, # of connection points: 7
#     Node 1, Type 0, BuildingBlock: HICVOG_clean_sbu_0, # of connection points: 7
#     Node 2, Type 0, BuildingBlock: HICVOG_clean_sbu_0, # of connection points: 7
#     Node 3, Type 0, BuildingBlock: HICVOG_clean_sbu_0, # of connection points: 7
#     Edge 4, Type (0, 0), None
#     Edge 5, Type (0, 0), None
#     Edge 6, Type (0, 0), None
#     Edge 7, Type (0, 0), None
#     Edge 8, Type (0, 0), None
#     Edge 9, Type (0, 0), None
#     Edge 10, Type (0, 0), None
#     Edge 11, Type (0, 0), None
#     Edge 12, Type (0, 0), None
#     Edge 13, Type (0, 0), None
#     Edge 14, Type (0, 0), None
#     Edge 15, Type (0, 0), None
#     Edge 16, Type (0, 0), None
#     Edge 17, Type (0, 0), None
# Relax obj value: 0.319
# Max RMSD: 0.307
# Mean RMSD: 0.272
data_MOF--net-sve--node1-HICVOG_clean_sbu_0--edge1-none
_symmetry_space_group_name_H-M    P1
_symmetry_Int_Tables_number       1
_symmetry_cell_setting            triclinic
loop_
_symmetry_equiv_pos_as_xyz
'x, y, z'
_cell_length_a     14.863385
_cell_length_b     12.254151
_cell_length_c     12.356591
_cell_angle_alpha  94.877567
_cell_angle_beta   84.088571
_cell_angle_gamma 89.715776
loop_
_atom_site_label
_atom_site_type_symbol
_atom_site_fract_x
_atom_site_fract_y
_atom_site_fract_z
_atom_type_partial_charge
Zn0 Zn 0.25038 0.37905 0.16904 0.0
C1 C 1.04075 0.46158 0.05142 0.0
N2 N 0.99184 0.40196 0.12257 0.0
C3 C 1.05326 0.33186 0.15118 0.0
N4 N 0.13699 0.3506 0.10163 0.0
N5 N 0.12603 0.42225 0.03082 0.0
C6 C 0.2538 0.64069 0.98832 0.0
O7 O 0.21222 0.60394 0.0763 0.0
O8 O 0.31566 0.2497 0.20557 0.0
Zn9 Zn 0.21627 0.43187 0.90755 0.0
N10 N 0.22724 0.46973 0.30234 0.0
C11 C 0.25328 0.62801 0.419 0.0
C12 C 0.26053 0.57256 0.31524 0.0
C13 C 0.18741 0.41963 0.38817 0.0
N14 N 0.21667 0.57622 0.50562 0.0
C15 C 0.18347 0.47295 0.49318 0.0
O16 O 0.33604 0.34852 0.91569 0.0
C17 C 0.38782 0.38669 0.9854 0.0
O18 O 0.35371 0.44303 0.07141 0.0
H19 H 0.29565 0.60926 0.24684 0.0
H20 H 0.1653 0.33596 0.37496 0.0
C21 C 0.18595 0.44562 0.6902 0.0
C22 C 0.15404 0.41431 0.58982 0.0
C23 C 0.07947 0.26422 0.66778 0.0
C24 C 0.11301 0.29489 0.76722 0.0
N25 N 0.1657 0.3848 0.77578 0.0
N26 N 0.10149 0.3238 0.58114 0.0
H27 H 0.22937 0.51557 0.69975 0.0
C28 C 0.31927 0.17369 0.13024 0.0
O29 O 0.26208 0.17426 0.05619 0.0
O30 O 0.25602 0.58424 0.89786 0.0
H31 H 0.09741 0.24783 0.83682 0.0
H32 H 0.27976 0.70972 0.43135 0.0
H33 H 1.03738 0.1929 0.65904 0.0
Zn34 Zn 0.82257 0.21411 0.10623 0.0
C35 C 0.62459 1.04605 0.00749 0.0
N36 N 0.66557 0.9589 0.04183 0.0
C37 C 0.75162 0.99166 0.0474 0.0
N38 N 0.76207 0.09661 0.01885 0.0
N39 N 0.68282 0.12798 0.98879 0.0
C40 C 0.48715 0.36447 0.97036 0.0
O41 O 0.53897 0.41747 0.03628 0.0
O42 O 0.94953 0.17786 0.16086 0.0
Zn43 Zn 0.65911 0.24041 0.88323 0.0
N44 N 0.74132 0.24844 0.24234 0.0
C45 C 0.61051 0.34128 0.33513 0.0
C46 C 0.66941 0.31673 0.2403 0.0
C47 C 0.75534 0.2016 0.336 0.0
N48 N 0.62554 0.2965 0.42881 0.0
C49 C 0.69634 0.22655 0.43267 0.0
O50 O 0.74239 0.37516 0.88712 0.0
C51 C 0.8091 0.40301 0.94004 0.0
O52 O 0.83459 0.3452 0.01346 0.0
H53 H 0.65847 0.35246 0.16567 0.0
H54 H 0.81205 0.14571 0.33524 0.0
C55 C 0.67614 0.22341 0.64073 0.0
C56 C 0.70723 0.17372 0.53541 0.0
C57 C 0.75758 1.01969 0.61819 0.0
C58 C 0.72767 0.06936 0.72148 0.0
N59 N 0.68806 0.17055 0.73184 0.0
N60 N 0.74725 0.0729 0.52821 0.0
H61 H 0.64528 0.3043 0.65026 0.0
C62 C 1.02582 0.22126 0.18106 0.0
O63 O 0.08585 0.16071 0.21989 0.0
O64 O 0.5224 0.28913 0.90076 0.0
H65 H 0.7378 1.02788 0.79303 0.0
H66 H 0.55345 0.39626 0.33437 0.0
H67 H 0.78969 0.93953 0.60962 0.0
Zn68 Zn 0.93102 0.72616 0.12265 0.0
C69 C 0.8731 0.48862 0.90218 0.0
N70 N 0.95855 0.45189 0.89966 0.0
C71 C 0.99439 0.51902 0.97464 0.0
N72 N 0.93791 0.60533 0.00758 0.0
N73 N 0.86623 0.5904 0.95481 0.0
C74 C 0.66339 0.66784 0.89734 0.0
O75 O 0.68463 0.61836 0.98145 0.0
O76 O 1.04873 0.80519 0.11291 0.0
Zn77 Zn 0.8492 0.71547 0.87329 0.0
N78 N 0.90373 0.66022 0.25748 0.0
C79 C 0.80108 0.54652 0.35475 0.0
C80 C 0.8316 0.59249 0.25891 0.0
C81 C 0.94785 0.68268 0.34773 0.0
N82 N 0.84294 0.57145 0.44575 0.0
C83 C 0.91559 0.63862 0.44543 0.0
O84 O 0.86011 0.87333 0.94442 0.0
C85 C 0.82518 0.90679 0.03968 0.0
O86 O 0.82954 0.84412 0.11641 0.0
H87 H 0.7971 0.57618 0.18643 0.0
H88 H 1.0046 0.7375 0.34459 0.0
C89 C 0.89872 0.66711 0.64842 0.0
C90 C 0.953 0.67079 0.54917 0.0
C91 C 0.07218 0.74382 0.64559 0.0
C92 C 1.01735 0.7411 0.74406 0.0
N93 N 0.93145 0.70406 0.74286 0.0
N94 N 1.0385 0.7099 0.55032 0.0
H95 H 0.82948 0.63984 0.65084 0.0
C96 C 0.07127 0.88737 0.17365 0.0
O97 O 1.01722 0.92582 0.25925 0.0
O98 O 0.72451 0.70931 0.83484 0.0
H99 H 1.04197 0.77075 0.82044 0.0
H100 H 0.74304 0.49423 0.35809 0.0
H101 H 0.14041 0.77433 0.64467 0.0
Zn102 Zn 0.45103 0.87893 0.8877 0.0
C103 C 0.4002 0.10632 0.10575 0.0
N104 N 0.48275 0.14632 0.07554 0.0
C105 C 0.52528 0.05838 0.01839 0.0
N106 N 0.46998 0.97177 0.01407 0.0
N107 N 0.39354 1.00182 0.07093 0.0
C108 C 0.16166 0.93115 0.15092 0.0
O109 O 0.19751 0.92606 0.04902 0.0
O110 O 0.55982 0.7897 0.84488 0.0
Zn111 Zn 0.34206 0.90685 0.16935 0.0
N112 N 0.42749 0.96569 0.77064 0.0
C113 C 0.35818 0.11811 0.70331 0.0
C114 C 0.38049 0.06195 0.79071 0.0
C115 C 0.45444 0.92408 0.66704 0.0
N116 N 0.38316 0.07507 0.59951 0.0
C117 C 0.43115 0.97931 0.57895 0.0
O118 O 0.33275 0.76092 0.09544 0.0
C119 C 0.31195 0.73366 9e-05 0.0
O120 O 0.34541 0.77845 0.91593 0.0
H121 H 0.35921 0.09373 0.87354 0.0
H122 H 0.49056 0.84639 0.65381 0.0
C123 C 0.39799 0.94609 0.38438 0.0
C124 C 0.45514 0.93243 0.46592 0.0
C125 C 0.55511 0.82368 0.33766 0.0
C126 C 0.49765 0.83648 0.25724 0.0
N127 N 0.42001 0.89637 0.28259 0.0
N128 N 0.53221 0.87101 0.44023 0.0
H129 H 0.33547 0.99293 0.40194 0.0
C130 C 0.57173 0.70675 0.8964 0.0
O131 O 0.50865 0.67802 0.97034 0.0
O132 O 0.21315 0.94326 0.2268 0.0
H133 H 0.51425 0.79848 0.17532 0.0
H134 H 0.32016 0.19439 0.71776 0.0
H135 H 0.61695 0.77575 0.31908 0.0
loop_
_geom_bond_atom_site_label_1
_geom_bond_atom_site_label_2
_geom_bond_distance
_geom_bond_site_symmetry_2
_ccdc_geom_bond_type
Zn0 N4 2.020 . S
Zn0 O8 2.019 . S
Zn0 N10 2.119 . S
Zn0 O18 1.975 . S
C1 N2 1.334 1_455 S
C1 N5 1.336 . S
N2 C1 1.334 1_655 S
N2 C3 1.334 1_655 S
C3 N2 1.334 1_455 S
C3 N4 1.336 . S
N4 Zn0 2.020 . S
N4 C3 1.336 . S
N4 N5 1.354 . S
N5 C1 1.336 . S
N5 N4 1.354 . S
N5 Zn9 2.020 1_554 S
C6 O7 1.244 . S
C6 O30 1.257 1_554 S
O7 C6 1.244 . S
O8 Zn0 2.019 . S
O8 C28 1.257 . S
Zn9 N5 2.020 1_556 S
Zn9 O16 1.975 1_556 S
Zn9 N25 2.119 . S
Zn9 O30 2.019 . S
N10 Zn0 2.119 . S
N10 C12 1.334 . S
N10 C13 1.328 . S
C11 C12 1.391 . S
C11 N14 1.329 . S
C11 H32 0.930 . S
C12 N10 1.334 . S
C12 C11 1.391 . S
C12 H19 0.930 . S
C13 N10 1.328 . S
C13 C15 1.392 . S
C13 H20 0.930 . S
N14 C11 1.329 . S
N14 C15 1.331 . S
C15 C13 1.392 . S
C15 N14 1.331 . S
O16 Zn9 1.975 1_554 S
O16 C17 1.252 . S
C17 O16 1.252 . S
C17 O18 1.252 . S
O18 Zn0 1.975 . S
O18 C17 1.252 . S
H19 C12 0.930 . S
H20 C13 0.930 . S
C21 C22 1.392 . S
C21 N25 1.328 . S
C21 H27 0.930 . S
C22 C21 1.392 . S
C22 N26 1.331 . S
C23 C24 1.391 . S
C23 N26 1.329 . S
C23 H33 0.930 . S
C24 C23 1.391 . S
C24 N25 1.334 . S
C24 H31 0.930 . S
N25 Zn9 2.119 . S
N25 C21 1.328 . S
N25 C24 1.334 . S
N26 C22 1.331 . S
N26 C23 1.329 . S
H27 C21 0.930 . S
C28 O8 1.257 . S
C28 O29 1.244 . S
O29 C28 1.244 . S
O30 C6 1.257 1_556 S
O30 Zn9 2.019 . S
H31 C24 0.930 . S
H32 C11 0.930 . S
H33 C23 0.930 . S
Zn34 N38 2.020 . S
Zn34 O42 2.019 . S
Zn34 N44 2.119 . S
Zn34 O52 1.975 . S
C35 N36 1.334 1_556 S
C35 N39 1.336 1_565 S
N36 C35 1.334 1_554 S
N36 C37 1.334 . S
C37 N36 1.334 . S
C37 N38 1.336 1_565 S
N38 Zn34 2.020 . S
N38 C37 1.336 1_545 S
N38 N39 1.354 1_554 S
N39 C35 1.336 1_545 S
N39 N38 1.354 1_556 S
N39 Zn43 2.020 . S
C40 O41 1.244 1_556 S
C40 O64 1.257 . S
O41 C40 1.244 1_554 S
O42 Zn34 2.019 . S
O42 C62 1.257 . S
Zn43 N39 2.020 . S
Zn43 O50 1.975 1_556 S
Zn43 N59 2.119 . S
Zn43 O64 2.019 . S
N44 Zn34 2.119 . S
N44 C46 1.334 . S
N44 C47 1.328 . S
C45 C46 1.391 . S
C45 N48 1.329 . S
C45 H66 0.930 . S
C46 N44 1.334 . S
C46 C45 1.391 . S
C46 H53 0.930 . S
C47 N44 1.328 . S
C47 C49 1.392 . S
C47 H54 0.930 . S
N48 C45 1.329 . S
N48 C49 1.331 . S
C49 C47 1.392 . S
C49 N48 1.331 . S
O50 Zn43 1.975 1_554 S
O50 C51 1.252 . S
C51 O50 1.252 . S
C51 O52 1.252 . S
O52 Zn34 1.975 . S
O52 C51 1.252 . S
H53 C46 0.930 . S
H54 C47 0.930 . S
C55 C56 1.392 . S
C55 N59 1.328 . S
C55 H61 0.930 . S
C56 C55 1.392 . S
C56 N60 1.331 . S
C57 C58 1.391 . S
C57 N60 1.329 . S
C57 H67 0.930 . S
C58 C57 1.391 . S
C58 N59 1.334 . S
C58 H65 0.930 . S
N59 Zn43 2.119 . S
N59 C55 1.328 . S
N59 C58 1.334 . S
N60 C56 1.331 . S
N60 C57 1.329 . S
H61 C55 0.930 . S
C62 O42 1.257 . S
C62 O63 1.244 1_554 S
O63 C62 1.244 1_556 S
O64 C40 1.257 . S
O64 Zn43 2.019 . S
H65 C58 0.930 . S
H66 C45 0.930 . S
H67 C57 0.930 . S
Zn68 N72 2.020 . S
Zn68 O76 2.019 1_655 S
Zn68 N78 2.119 . S
Zn68 O86 1.975 . S
C69 N70 1.334 1_556 S
C69 N73 1.336 . S
N70 C69 1.334 1_554 S
N70 C71 1.334 . S
C71 N70 1.334 . S
C71 N72 1.336 . S
N72 Zn68 2.020 . S
N72 C71 1.336 . S
N72 N73 1.354 1_554 S
N73 C69 1.336 . S
N73 N72 1.354 1_556 S
N73 Zn77 2.020 . S
C74 O75 1.244 1_556 S
C74 O98 1.257 . S
O75 C74 1.244 1_554 S
O76 Zn68 2.019 1_455 S
O76 C96 1.257 . S
Zn77 N73 2.020 . S
Zn77 O84 1.975 1_556 S
Zn77 N93 2.119 . S
Zn77 O98 2.019 . S
N78 Zn68 2.119 . S
N78 C80 1.334 . S
N78 C81 1.328 . S
C79 C80 1.391 . S
C79 N82 1.329 . S
C79 H100 0.930 . S
C80 N78 1.334 . S
C80 C79 1.391 . S
C80 H87 0.930 . S
C81 N78 1.328 . S
C81 C83 1.392 . S
C81 H88 0.930 . S
N82 C79 1.329 . S
N82 C83 1.331 . S
C83 C81 1.392 . S
C83 N82 1.331 . S
O84 Zn77 1.975 1_554 S
O84 C85 1.252 . S
C85 O84 1.252 . S
C85 O86 1.252 . S
O86 Zn68 1.975 . S
O86 C85 1.252 . S
H87 C80 0.930 . S
H88 C81 0.930 . S
C89 C90 1.392 . S
C89 N93 1.328 . S
C89 H95 0.930 . S
C90 C89 1.392 . S
C90 N94 1.331 . S
C91 C92 1.391 . S
C91 N94 1.329 . S
C91 H101 0.930 . S
C92 C91 1.391 . S
C92 N93 1.334 . S
C92 H99 0.930 . S
N93 Zn77 2.119 . S
N93 C89 1.328 . S
N93 C92 1.334 . S
N94 C90 1.331 . S
N94 C91 1.329 . S
H95 C89 0.930 . S
C96 O76 1.257 . S
C96 O97 1.244 1_554 S
O97 C96 1.244 1_556 S
O98 C74 1.257 . S
O98 Zn77 2.019 . S
H99 C92 0.930 . S
H100 C79 0.930 . S
H101 C91 0.930 . S
Zn102 N106 2.020 . S
Zn102 O110 2.019 . S
Zn102 N112 2.119 . S
Zn102 O120 1.975 . S
C103 N104 1.334 . S
C103 N107 1.336 1_545 S
N104 C103 1.334 . S
N104 C105 1.336 1_554 S
C105 N104 1.336 1_556 S
C105 N106 1.333 1_545 S
N106 Zn102 2.020 . S
N106 C105 1.333 1_565 S
N106 N107 1.354 1_556 S
N107 C103 1.336 1_565 S
N107 N106 1.354 1_554 S
N107 Zn111 2.020 . S
C108 O109 1.244 1_554 S
C108 O132 1.257 . S
O109 C108 1.244 1_556 S
O110 Zn102 2.019 . S
O110 C130 1.257 . S
Zn111 N107 2.020 . S
Zn111 O118 1.975 . S
Zn111 N127 2.119 . S
Zn111 O132 2.019 . S
N112 Zn102 2.119 . S
N112 C114 1.334 . S
N112 C115 1.328 . S
C113 C114 1.391 . S
C113 N116 1.329 . S
C113 H134 0.930 . S
C114 N112 1.334 . S
C114 C113 1.391 . S
C114 H121 0.930 . S
C115 N112 1.328 . S
C115 C117 1.392 . S
C115 H122 0.930 . S
N116 C113 1.329 . S
N116 C117 1.331 . S
C117 C115 1.392 . S
C117 N116 1.331 . S
O118 Zn111 1.975 . S
O118 C119 1.252 1_554 S
C119 O118 1.252 1_556 S
C119 O120 1.252 . S
O120 Zn102 1.975 . S
O120 C119 1.252 . S
H121 C114 0.930 . S
H122 C115 0.930 . S
C123 C124 1.392 . S
C123 N127 1.328 . S
C123 H129 0.930 . S
C124 C123 1.392 . S
C124 N128 1.331 . S
C125 C126 1.391 . S
C125 N128 1.329 . S
C125 H135 0.930 . S
C126 C125 1.391 . S
C126 N127 1.334 . S
C126 H133 0.930 . S
N127 Zn111 2.119 . S
N127 C123 1.328 . S
N127 C126 1.334 . S
N128 C124 1.331 . S
N128 C125 1.329 . S
H129 C123 0.930 . S
C130 O110 1.257 . S
C130 O131 1.244 1_556 S
O131 C130 1.244 1_554 S
O132 C108 1.257 . S
O132 Zn111 2.019 . S
H133 C126 0.930 . S
H134 C113 0.930 . S
H135 C125 0.930 . S
C1 C71 2.086 1_455 S
C35 C105 2.885 1_565 S
C15 C22 2.386 . S
C49 C56 2.507 . S
C83 C90 2.726 . S
C117 C124 3.569 . S
C28 C103 2.399 . S
C3 C62 2.354 1_455 S
C85 C37 2.513 . S
C96 C108 1.111 . S
C69 C51 2.493 1_556 S
C130 C74 1.241 . S
C6 C119 1.308 1_554 S
C40 C17 2.063 1_556 S
