# Generated by pormake.
# Topology uni, (4)-cn, num edge types: 1
# Building blocks:
#     Node 0, Type 0, BuildingBlock: QUQFOY_clean_sbu_1, # of connection points: 4
#     Node 1, Type 0, BuildingBlock: QUQFOY_clean_sbu_1, # of connection points: 4
#     Node 2, Type 0, BuildingBlock: QUQFOY_clean_sbu_1, # of connection points: 4
#     Node 3, Type 0, BuildingBlock: QUQFOY_clean_sbu_1, # of connection points: 4
#     Node 4, Type 0, BuildingBlock: QUQFOY_clean_sbu_1, # of connection points: 4
#     Node 5, Type 0, BuildingBlock: QUQFOY_clean_sbu_1, # of connection points: 4
#     Edge 6, Type (0, 0), BuildingBlock: EYOCIG_clean_linker_4, # of connection points: 2
#     Edge 7, Type (0, 0), BuildingBlock: EYOCIG_clean_linker_4, # of connection points: 2
#     Edge 8, Type (0, 0), BuildingBlock: EYOCIG_clean_linker_4, # of connection points: 2
#     Edge 9, Type (0, 0), BuildingBlock: EYOCIG_clean_linker_4, # of connection points: 2
#     Edge 10, Type (0, 0), BuildingBlock: EYOCIG_clean_linker_4, # of connection points: 2
#     Edge 11, Type (0, 0), BuildingBlock: EYOCIG_clean_linker_4, # of connection points: 2
#     Edge 12, Type (0, 0), BuildingBlock: EYOCIG_clean_linker_4, # of connection points: 2
#     Edge 13, Type (0, 0), BuildingBlock: EYOCIG_clean_linker_4, # of connection points: 2
#     Edge 14, Type (0, 0), BuildingBlock: EYOCIG_clean_linker_4, # of connection points: 2
#     Edge 15, Type (0, 0), BuildingBlock: EYOCIG_clean_linker_4, # of connection points: 2
#     Edge 16, Type (0, 0), BuildingBlock: EYOCIG_clean_linker_4, # of connection points: 2
#     Edge 17, Type (0, 0), BuildingBlock: EYOCIG_clean_linker_4, # of connection points: 2
# Relax obj value: 0.077
# Max RMSD: 0.156
# Mean RMSD: 0.156
data_MOF--net-uni--node1-QUQFOY_clean_sbu_1--edge1-EYOCIG_clean_linker_4
_symmetry_space_group_name_H-M    P1
_symmetry_Int_Tables_number       1
_symmetry_cell_setting            triclinic
loop_
_symmetry_equiv_pos_as_xyz
'x, y, z'
_cell_length_a     32.245488
_cell_length_b     32.240141
_cell_length_c     19.261798
_cell_angle_alpha  90.017017
_cell_angle_beta   89.945672
_cell_angle_gamma 120.01203
loop_
_atom_site_label
_atom_site_type_symbol
_atom_site_fract_x
_atom_site_fract_y
_atom_site_fract_z
_atom_type_partial_charge
O0 O 0.65682 0.07643 0.92036 0.0
Cd1 Cd 0.7034 0.10125 0.00312 0.0
Cd2 Cd 0.65678 1.00783 0.03759 0.0
O3 O 0.62105 0.99922 0.94536 0.0
O4 O 0.75451 0.16633 -0.02453 0.0
O5 O 0.76832 0.10666 -0.00307 0.0
C6 C 0.78413 0.15063 -0.02101 0.0
C7 C 0.68832 0.95863 0.06163 0.0
C8 C 0.62621 1.03325 0.90655 0.0
C9 C 0.64736 0.07569 0.13428 0.0
O10 O 0.63489 1.03254 0.12044 0.0
O11 O 0.67619 0.10976 0.09543 0.0
O12 O 0.64297 0.94282 0.06522 0.0
O13 O 0.7164 1.00262 0.04365 0.0
O14 O 0.63499 0.63702 0.08706 0.0
Cd15 Cd 0.65682 0.68369 0.16978 0.0
Cd16 Cd 0.70352 0.63704 0.20426 0.0
O17 O 0.67641 0.60125 0.11203 0.0
O18 O 0.64298 0.73484 0.14207 0.0
O19 O 0.71642 0.74855 0.16352 0.0
C20 C 0.68833 0.76441 0.14555 0.0
C21 C 0.78425 0.66864 0.22834 0.0
C22 C 0.64754 0.60639 0.07323 0.0
C23 C 0.62626 0.62774 0.30095 0.0
O24 O 0.6569 0.61521 0.28709 0.0
O25 O 0.62108 0.65658 0.26212 0.0
O26 O 0.75472 0.62329 0.23193 0.0
O27 O 0.76834 0.69669 0.21033 0.0
O28 O 1.05247 0.61546 0.2536 0.0
Cd29 Cd 1.0276 0.63721 0.33641 0.0
Cd30 Cd 0.12094 0.68387 0.37102 0.0
O31 O 0.12964 0.65684 0.27868 0.0
O32 O 0.96263 0.6234 0.30867 0.0
O33 O 1.02237 0.69682 0.33036 0.0
C34 C 0.97843 0.66875 0.31229 0.0
C35 C 0.17017 0.76457 0.39538 0.0
C36 C 0.09565 0.62802 0.23979 0.0
C37 C 1.05285 0.60649 0.46747 0.0
O38 O 0.09604 0.63714 0.45369 0.0
O39 O 1.01886 0.60136 0.42863 0.0
O40 O 0.18592 0.73498 0.39884 0.0
O41 O 0.12623 0.74873 0.37735 0.0
O42 O 0.49181 1.0325 0.42068 0.0
Cd43 Cd 0.44521 1.00778 0.50355 0.0
Cd44 Cd 0.49199 0.10118 0.53797 0.0
O45 O 0.5277 0.10973 0.44562 0.0
O46 O 0.39397 0.94279 0.47595 0.0
O47 O 0.38041 1.00261 0.49753 0.0
C48 C 0.36447 0.95863 0.47954 0.0
C49 C 0.46057 0.15048 0.56216 0.0
C50 C 0.52247 0.07567 0.4068 0.0
C51 C 0.50125 1.0332 0.63454 0.0
O52 O 0.51381 0.07638 0.6207 0.0
O53 O 0.47236 0.99916 0.59576 0.0
O54 O 0.50591 0.16623 0.56563 0.0
O55 O 0.43244 0.1065 0.54423 0.0
O56 O 0.51385 0.47216 0.58715 0.0
Cd57 Cd 0.49202 0.42555 0.66996 0.0
Cd58 Cd 0.44539 0.47233 0.70463 0.0
O59 O 0.47262 0.50811 0.61237 0.0
O60 O 0.5059 0.3744 0.64225 0.0
O61 O 0.43246 0.36065 0.66391 0.0
C62 C 0.46057 0.34481 0.64588 0.0
C63 C 0.36467 0.441 0.72873 0.0
C64 C 0.50141 0.50287 0.57343 0.0
C65 C 0.52261 0.48152 0.8011 0.0
O66 O 0.49196 0.49405 0.78739 0.0
O67 O 0.52779 0.4527 0.76218 0.0
O68 O 0.39433 0.48633 0.73234 0.0
O69 O 0.38045 0.41283 0.71073 0.0
O70 O 0.09612 0.49426 0.75338 0.0
Cd71 Cd 0.12103 0.47261 0.83616 0.0
Cd72 Cd 1.02764 0.42585 0.871 0.0
O73 O 1.01896 0.45294 0.77876 0.0
O74 O 0.18605 0.48651 0.80837 0.0
O75 O 0.12638 0.41306 0.8302 0.0
C76 C 0.17034 0.44118 0.81209 0.0
C77 C 0.97839 0.34511 0.89522 0.0
C78 C 1.05294 0.48173 0.73974 0.0
C79 C 0.09566 0.50323 -0.03265 0.0
O80 O 1.05249 0.47251 -0.04628 0.0
O81 O 0.12966 0.50846 0.92835 0.0
O82 O 0.96264 0.37469 0.89885 0.0
O83 O 1.02235 0.36098 0.87712 0.0
C84 C 0.60547 0.08969 0.24185 0.0
C85 C 0.6257 0.0854 0.19221 0.0
C86 C 0.57835 0.08969 0.29919 0.0
C87 C 0.55384 0.08539 0.34884 0.0
C88 C 0.57036 0.58591 0.40855 0.0
C89 C 0.59488 0.60612 0.3589 0.0
C90 C 0.54326 0.55879 0.46589 0.0
C91 C 0.52305 0.53426 0.51552 0.0
C92 C 1.03873 0.52343 0.63223 0.0
C93 C 1.0431 0.50328 0.68185 0.0
C94 C 1.0387 0.55052 0.57492 0.0
C95 C 1.04302 0.57506 0.52533 0.0
C96 C 0.57027 1.01914 0.79914 0.0
C97 C 0.59481 1.02347 0.8487 0.0
C98 C 0.54313 1.01913 0.74191 0.0
C99 C 0.52289 1.02344 0.69237 0.0
C100 C 0.60568 0.55043 -0.03419 0.0
C101 C 0.62591 0.57498 0.01538 0.0
C102 C 0.57854 0.52332 0.90854 0.0
C103 C 0.554 0.50313 0.85896 0.0
C104 C 0.10979 0.55919 0.07483 0.0
C105 C 0.10545 0.53465 0.02522 0.0
C106 C 0.1098 0.58629 0.13218 0.0
C107 C 0.10547 0.60646 0.18184 0.0
C108 C 0.71408 0.8533 0.11317 0.0
C109 C 0.70638 0.8139 0.12895 0.0
C110 C 0.71409 0.89552 0.09387 0.0
C111 C 0.70639 0.92722 0.07815 0.0
C112 C 0.91535 0.69452 0.27997 0.0
C113 C 0.94704 0.68683 0.29574 0.0
C114 C 0.87313 0.6945 0.26065 0.0
C115 C 0.83373 0.68676 0.24489 0.0
C116 C 0.23333 0.85341 0.42791 0.0
C117 C 0.20161 0.81403 0.41206 0.0
C118 C 0.27556 0.89559 0.44726 0.0
C119 C 0.31498 0.92726 0.46301 0.0
C120 C 0.43488 0.25591 0.61369 0.0
C121 C 0.44255 0.29531 0.62939 0.0
C122 C 0.43489 0.21368 0.59444 0.0
C123 C 0.44257 0.18195 0.57871 0.0
C124 C 0.23356 0.41549 0.78001 0.0
C125 C 0.20183 0.42318 0.79567 0.0
C126 C 0.27578 0.41544 0.76085 0.0
C127 C 0.31518 0.42306 0.74518 0.0
C128 C 0.91523 0.2562 0.9275 0.0
C129 C 0.94694 0.29561 0.91175 0.0
C130 C 0.87301 0.21393 0.94675 0.0
C131 C 0.83361 0.18216 -0.03754 0.0
loop_
_geom_bond_atom_site_label_1
_geom_bond_atom_site_label_2
_geom_bond_distance
_geom_bond_site_symmetry_2
_ccdc_geom_bond_type
O0 Cd1 2.223 . S
O0 C8 1.315 1_554 S
Cd1 O0 2.223 . S
Cd1 O4 2.297 . S
Cd1 O5 2.439 . S
Cd1 O11 2.240 . S
Cd2 O3 2.240 1_564 S
Cd2 O10 2.223 . S
Cd2 O12 2.297 . S
Cd2 O13 2.439 . S
O3 Cd2 2.240 1_546 S
O3 C8 1.279 . S
O4 Cd1 2.297 . S
O4 C6 1.247 . S
O5 Cd1 2.439 . S
O5 C6 1.208 . S
C6 O4 1.247 . S
C6 O5 1.208 . S
C7 O12 1.247 . S
C7 O13 1.208 . S
C8 O0 1.315 1_556 S
C8 O3 1.279 . S
C9 O10 1.315 . S
C9 O11 1.279 1_565 S
O10 Cd2 2.223 . S
O10 C9 1.315 . S
O11 Cd1 2.240 . S
O11 C9 1.279 1_545 S
O12 Cd2 2.297 . S
O12 C7 1.247 . S
O13 Cd2 2.439 . S
O13 C7 1.208 . S
O14 Cd15 2.223 . S
O14 C22 1.315 . S
Cd15 O14 2.223 . S
Cd15 O18 2.297 . S
Cd15 O19 2.439 . S
Cd15 O25 2.240 . S
Cd16 O17 2.240 . S
Cd16 O24 2.223 . S
Cd16 O26 2.297 . S
Cd16 O27 2.439 . S
O17 Cd16 2.240 . S
O17 C22 1.279 . S
O18 Cd15 2.297 . S
O18 C20 1.247 . S
O19 Cd15 2.439 . S
O19 C20 1.208 . S
C20 O18 1.247 . S
C20 O19 1.208 . S
C21 O26 1.247 . S
C21 O27 1.208 . S
C22 O14 1.315 . S
C22 O17 1.279 . S
C23 O24 1.315 . S
C23 O25 1.279 . S
O24 Cd16 2.223 . S
O24 C23 1.315 . S
O25 Cd15 2.240 . S
O25 C23 1.279 . S
O26 Cd16 2.297 . S
O26 C21 1.247 . S
O27 Cd16 2.439 . S
O27 C21 1.208 . S
O28 Cd29 2.223 . S
O28 C36 1.315 . S
Cd29 O28 2.223 . S
Cd29 O32 2.297 . S
Cd29 O33 2.439 . S
Cd29 O39 2.240 1_655 S
Cd30 O31 2.240 . S
Cd30 O38 2.223 . S
Cd30 O40 2.297 . S
Cd30 O41 2.439 . S
O31 Cd30 2.240 . S
O31 C36 1.279 1_455 S
O32 Cd29 2.297 . S
O32 C34 1.247 . S
O33 Cd29 2.439 . S
O33 C34 1.208 . S
C34 O32 1.247 . S
C34 O33 1.208 . S
C35 O40 1.247 . S
C35 O41 1.208 . S
C36 O28 1.315 . S
C36 O31 1.279 1_655 S
C37 O38 1.315 . S
C37 O39 1.279 . S
O38 Cd30 2.223 . S
O38 C37 1.315 . S
O39 Cd29 2.240 1_455 S
O39 C37 1.279 . S
O40 Cd30 2.297 . S
O40 C35 1.247 . S
O41 Cd30 2.439 . S
O41 C35 1.208 . S
O42 Cd43 2.223 . S
O42 C50 1.315 . S
Cd43 O42 2.223 . S
Cd43 O46 2.297 . S
Cd43 O47 2.439 . S
Cd43 O53 2.240 1_565 S
Cd44 O45 2.240 . S
Cd44 O52 2.223 . S
Cd44 O54 2.297 . S
Cd44 O55 2.439 . S
O45 Cd44 2.240 . S
O45 C50 1.279 1_545 S
O46 Cd43 2.297 . S
O46 C48 1.247 . S
O47 Cd43 2.439 . S
O47 C48 1.208 . S
C48 O46 1.247 . S
C48 O47 1.208 . S
C49 O54 1.247 . S
C49 O55 1.208 . S
C50 O42 1.315 . S
C50 O45 1.279 1_565 S
C51 O52 1.315 . S
C51 O53 1.279 . S
O52 Cd44 2.223 . S
O52 C51 1.315 . S
O53 Cd43 2.240 1_545 S
O53 C51 1.279 . S
O54 Cd44 2.297 . S
O54 C49 1.247 . S
O55 Cd44 2.439 . S
O55 C49 1.208 . S
O56 Cd57 2.223 . S
O56 C64 1.315 . S
Cd57 O56 2.223 . S
Cd57 O60 2.297 . S
Cd57 O61 2.439 . S
Cd57 O67 2.240 . S
Cd58 O59 2.240 . S
Cd58 O66 2.223 . S
Cd58 O68 2.297 . S
Cd58 O69 2.439 . S
O59 Cd58 2.240 . S
O59 C64 1.279 . S
O60 Cd57 2.297 . S
O60 C62 1.247 . S
O61 Cd57 2.439 . S
O61 C62 1.208 . S
C62 O60 1.247 . S
C62 O61 1.208 . S
C63 O68 1.247 . S
C63 O69 1.208 . S
C64 O56 1.315 . S
C64 O59 1.279 . S
C65 O66 1.315 . S
C65 O67 1.279 . S
O66 Cd58 2.223 . S
O66 C65 1.315 . S
O67 Cd57 2.240 . S
O67 C65 1.279 . S
O68 Cd58 2.297 . S
O68 C63 1.247 . S
O69 Cd58 2.439 . S
O69 C63 1.208 . S
O70 Cd71 2.223 . S
O70 C78 1.315 . S
Cd71 O70 2.223 . S
Cd71 O74 2.297 . S
Cd71 O75 2.439 . S
Cd71 O81 2.240 . S
Cd72 O73 2.240 1_655 S
Cd72 O80 2.223 . S
Cd72 O82 2.297 . S
Cd72 O83 2.439 . S
O73 Cd72 2.240 1_455 S
O73 C78 1.279 . S
O74 Cd71 2.297 . S
O74 C76 1.247 . S
O75 Cd71 2.439 . S
O75 C76 1.208 . S
C76 O74 1.247 . S
C76 O75 1.208 . S
C77 O82 1.247 . S
C77 O83 1.208 . S
C78 O70 1.315 . S
C78 O73 1.279 . S
C79 O80 1.307 1_554 S
C79 O81 1.279 1_654 S
O80 Cd72 2.223 . S
O80 C79 1.307 1_556 S
O81 Cd71 2.240 . S
O81 C79 1.279 1_456 S
O82 Cd72 2.297 . S
O82 C77 1.247 . S
O83 Cd72 2.439 . S
O83 C77 1.208 . S
C84 C85 1.170 . S
C84 C86 1.380 . S
C85 C84 1.170 . S
C86 C84 1.380 . S
C86 C87 1.170 . S
C87 C86 1.170 . S
C88 C89 1.170 . S
C88 C90 1.380 . S
C89 C88 1.170 . S
C90 C88 1.380 . S
C90 C91 1.170 . S
C91 C90 1.170 . S
C92 C93 1.170 . S
C92 C94 1.380 . S
C93 C92 1.170 . S
C94 C92 1.380 . S
C94 C95 1.170 . S
C95 C94 1.170 . S
C96 C97 1.170 . S
C96 C98 1.380 . S
C97 C96 1.170 . S
C98 C96 1.380 . S
C98 C99 1.170 . S
C99 C98 1.170 . S
C100 C101 1.170 . S
C100 C102 1.380 1_554 S
C101 C100 1.170 . S
C102 C100 1.380 1_556 S
C102 C103 1.170 . S
C103 C102 1.170 . S
C104 C105 1.170 . S
C104 C106 1.380 . S
C105 C104 1.170 . S
C106 C104 1.380 . S
C106 C107 1.169 . S
C107 C106 1.169 . S
C108 C109 1.170 . S
C108 C110 1.380 . S
C109 C108 1.170 . S
C110 C108 1.380 . S
C110 C111 1.170 . S
C111 C110 1.170 . S
C112 C113 1.170 . S
C112 C114 1.380 . S
C113 C112 1.170 . S
C114 C112 1.380 . S
C114 C115 1.170 . S
C115 C114 1.170 . S
C116 C117 1.170 . S
C116 C118 1.380 . S
C117 C116 1.170 . S
C118 C116 1.380 . S
C118 C119 1.170 . S
C119 C118 1.170 . S
C120 C121 1.170 . S
C120 C122 1.380 . S
C121 C120 1.170 . S
C122 C120 1.380 . S
C122 C123 1.170 . S
C123 C122 1.170 . S
C124 C125 1.170 . S
C124 C126 1.380 . S
C125 C124 1.170 . S
C126 C124 1.380 . S
C126 C127 1.170 . S
C127 C126 1.170 . S
C128 C129 1.170 . S
C128 C130 1.380 . S
C129 C128 1.170 . S
C130 C128 1.380 . S
C130 C131 1.170 . S
C131 C130 1.170 . S
C85 C9 1.764 . S
C87 C50 1.764 . S
C89 C23 1.763 . S
C91 C64 1.763 . S
C93 C78 1.778 . S
C95 C37 1.778 . S
C97 C8 1.771 . S
C99 C51 1.771 . S
C101 C22 1.777 . S
C103 C65 1.777 . S
C105 C79 1.778 . S
C107 C36 1.770 . S
C109 C20 1.472 . S
C111 C7 1.457 . S
C113 C34 1.472 . S
C115 C21 1.468 . S
C117 C35 1.470 . S
C119 C48 1.471 . S
C121 C62 1.427 . S
C123 C49 1.437 . S
C125 C76 1.432 . S
C127 C63 1.427 . S
C129 C77 1.430 . S
C131 C6 1.429 1_556 S
