# Generated by pormake.
# Topology nbo, (4)-cn, num edge types: 1
# Building blocks:
#     Node 0, Type 0, BuildingBlock: MUDLON_clean_sbu_0, # of connection points: 4
#     Node 1, Type 0, BuildingBlock: MUDLON_clean_sbu_0, # of connection points: 4
#     Node 2, Type 0, BuildingBlock: MUDLON_clean_sbu_0, # of connection points: 4
#     Node 3, Type 0, BuildingBlock: MUDLON_clean_sbu_0, # of connection points: 4
#     Node 4, Type 0, BuildingBlock: MUDLON_clean_sbu_0, # of connection points: 4
#     Node 5, Type 0, BuildingBlock: MUDLON_clean_sbu_0, # of connection points: 4
#     Edge 6, Type (0, 0), None
#     Edge 7, Type (0, 0), None
#     Edge 8, Type (0, 0), None
#     Edge 9, Type (0, 0), None
#     Edge 10, Type (0, 0), None
#     Edge 11, Type (0, 0), None
#     Edge 12, Type (0, 0), None
#     Edge 13, Type (0, 0), None
#     Edge 14, Type (0, 0), None
#     Edge 15, Type (0, 0), None
#     Edge 16, Type (0, 0), None
#     Edge 17, Type (0, 0), None
# Relax obj value: 0.000
# Max RMSD: 0.009
# Mean RMSD: 0.009
data_MOF--net-nbo--node1-MUDLON_clean_sbu_0--edge1-none
_symmetry_space_group_name_H-M    P1
_symmetry_Int_Tables_number       1
_symmetry_cell_setting            triclinic
loop_
_symmetry_equiv_pos_as_xyz
'x, y, z'
_cell_length_a     14.461599
_cell_length_b     14.469354
_cell_length_c     14.422631
_cell_angle_alpha  92.866308
_cell_angle_beta   88.934343
_cell_angle_gamma 92.753512
loop_
_atom_site_label
_atom_site_type_symbol
_atom_site_fract_x
_atom_site_fract_y
_atom_site_fract_z
_atom_type_partial_charge
Mg0 Mg 0.09679 0.08964 0.50687 0.0
C1 C 0.13222 0.30211 0.55049 0.0
O2 O 0.13731 0.27298 0.63495 0.0
C3 C 0.11668 0.87107 0.54949 0.0
O4 O 0.2063 0.88716 0.5581 0.0
C5 C 0.8883 0.11899 0.48426 0.0
O6 O 0.91785 0.12036 0.39765 0.0
O7 O 0.94664 0.11394 0.54842 0.0
O8 O 0.12125 0.24341 0.48261 0.0
O9 O 0.24388 0.0589 0.46009 0.0
C10 C 0.3191 0.10468 0.47808 0.0
O11 O 0.31832 0.18255 0.5288 0.0
O12 O 0.06494 0.9359 0.53025 0.0
Mg13 Mg 0.50722 0.94556 0.94669 0.0
C14 C 0.48251 0.15314 0.91708 0.0
O15 O 0.39608 0.12084 0.91569 0.0
C16 C 0.47891 0.722 0.93102 0.0
O17 O 0.52587 0.72398 0.85233 0.0
C18 C 0.55275 0.91172 0.73603 0.0
O19 O 0.63657 0.91157 0.76953 0.0
O20 O 0.48395 0.91878 0.7916 0.0
O21 O 0.5469 0.09699 0.92249 0.0
O22 O 0.5305 0.97976 0.1016 0.0
C23 C 0.54933 0.92901 0.16761 0.0
O24 O 0.55717 0.83951 0.15229 0.0
O25 O 0.46281 0.79682 0.97709 0.0
Mg26 Mg 0.95518 0.53165 0.08624 0.0
C27 C 0.17465 0.48877 0.10612 0.0
O28 O 0.16173 0.48264 0.19598 0.0
C29 C 0.74386 0.48915 0.12015 0.0
O30 O 0.77357 0.40516 0.12458 0.0
C31 C 0.92592 0.55725 0.87818 0.0
O32 O 0.92866 0.64342 0.91164 0.0
O33 O 0.92804 0.4921 0.9339 0.0
O34 O 0.10804 0.50688 0.05467 0.0
O35 O 0.98878 0.57643 0.23592 0.0
C36 C 0.94313 0.55987 0.30982 0.0
O37 O 0.8638 0.51192 0.3059 0.0
O38 O 0.80198 0.55674 0.11011 0.0
Mg39 Mg 0.45991 0.43976 0.02369 0.0
C40 C 0.45429 0.63403 0.97334 0.0
O41 O 0.41836 0.63559 0.05766 0.0
C42 C 0.50292 0.25282 0.93421 0.0
O43 O 0.58799 0.28319 0.95243 0.0
C44 C 0.26537 0.47295 0.06235 0.0
O45 O 0.27368 0.47275 0.97148 0.0
O46 O 0.33643 0.46007 0.10985 0.0
O47 O 0.4774 0.55719 0.93531 0.0
O48 O 0.58949 0.43198 0.09679 0.0
C49 C 0.64527 0.50232 0.10617 0.0
O50 O 0.61893 0.58369 0.08381 0.0
O51 O 0.43654 0.30624 0.95 0.0
Mg52 Mg 0.03609 0.58318 0.59577 0.0
C53 C 0.07361 0.7788 0.56372 0.0
O54 O 0.98302 0.76717 0.56114 0.0
C55 C 0.11836 0.40019 0.53662 0.0
O56 O 0.09605 0.42543 0.45415 0.0
C57 C 0.98595 0.58581 0.39918 0.0
O58 O 0.07024 0.62384 0.4 0.0
O59 O 0.94799 0.56235 0.47521 0.0
O60 O 0.12144 0.70953 0.57801 0.0
O61 O 0.96206 0.60484 0.7268 0.0
C62 C 0.94297 0.53779 0.77866 0.0
O63 O 0.95814 0.45287 0.74775 0.0
O64 O 0.109 0.456 0.60672 0.0
Mg65 Mg 0.60114 0.01198 0.45727 0.0
C66 C 0.78932 0.10136 0.50433 0.0
O67 O 0.76175 0.08249 0.58885 0.0
C68 C 0.40652 0.06278 0.45145 0.0
O69 O 0.40416 0.97932 0.41114 0.0
C70 C 0.56481 0.97316 0.26026 0.0
O71 O 0.5641 0.0638 0.2712 0.0
O72 O 0.5791 0.92613 0.33037 0.0
O73 O 0.73388 0.08583 0.43735 0.0
O74 O 0.61098 0.93899 0.58489 0.0
C75 C 0.5403 0.92505 0.63697 0.0
O76 O 0.45802 0.94252 0.60732 0.0
O77 O 0.48385 0.10007 0.4771 0.0
loop_
_geom_bond_atom_site_label_1
_geom_bond_atom_site_label_2
_geom_bond_distance
_geom_bond_site_symmetry_2
_ccdc_geom_bond_type
Mg0 O7 2.141 1_455 S
Mg0 O8 2.048 . S
Mg0 O9 2.048 . S
Mg0 O12 2.141 1_545 S
C1 O2 1.313 . S
C1 O8 1.195 . S
O2 C1 1.313 . S
C3 O4 1.245 . S
C3 O12 1.289 . S
O4 C3 1.245 . S
C5 O6 1.245 . S
C5 O7 1.289 . S
O6 C5 1.245 . S
O7 Mg0 2.141 1_655 S
O7 C5 1.289 . S
O8 Mg0 2.048 . S
O8 C1 1.195 . S
O9 Mg0 2.048 . S
O9 C10 1.195 . S
C10 O9 1.195 . S
C10 O11 1.313 . S
O11 C10 1.313 . S
O12 Mg0 2.141 1_565 S
O12 C3 1.289 . S
Mg13 O20 2.141 1_554 S
Mg13 O21 2.048 . S
Mg13 O22 2.048 . S
Mg13 O25 2.141 1_545 S
C14 O15 1.313 . S
C14 O21 1.195 . S
O15 C14 1.313 . S
C16 O17 1.245 . S
C16 O25 1.289 . S
O17 C16 1.245 . S
C18 O19 1.245 . S
C18 O20 1.289 . S
O19 C18 1.245 . S
O20 Mg13 2.141 1_556 S
O20 C18 1.289 . S
O21 Mg13 2.048 . S
O21 C14 1.195 . S
O22 Mg13 2.048 . S
O22 C23 1.195 . S
C23 O22 1.195 . S
C23 O24 1.313 . S
O24 C23 1.313 . S
O25 Mg13 2.141 1_565 S
O25 C16 1.289 . S
Mg26 O33 2.141 1_554 S
Mg26 O34 2.048 . S
Mg26 O35 2.048 . S
Mg26 O38 2.141 1_455 S
C27 O28 1.313 . S
C27 O34 1.195 . S
O28 C27 1.313 . S
C29 O30 1.245 . S
C29 O38 1.289 . S
O30 C29 1.245 . S
C31 O32 1.245 . S
C31 O33 1.289 . S
O32 C31 1.245 . S
O33 Mg26 2.141 1_556 S
O33 C31 1.289 . S
O34 Mg26 2.048 . S
O34 C27 1.195 . S
O35 Mg26 2.048 . S
O35 C36 1.195 . S
C36 O35 1.195 . S
C36 O37 1.313 . S
O37 C36 1.313 . S
O38 Mg26 2.141 1_655 S
O38 C29 1.289 . S
Mg39 O46 2.141 . S
Mg39 O47 2.048 . S
Mg39 O48 2.048 . S
Mg39 O51 2.141 . S
C40 O41 1.313 1_554 S
C40 O47 1.195 . S
O41 C40 1.313 1_556 S
C42 O43 1.245 1_554 S
C42 O51 1.289 . S
O43 C42 1.245 1_556 S
C44 O45 1.245 1_554 S
C44 O46 1.289 . S
O45 C44 1.245 1_556 S
O46 Mg39 2.141 . S
O46 C44 1.289 . S
O47 Mg39 2.048 . S
O47 C40 1.195 . S
O48 Mg39 2.048 . S
O48 C49 1.195 . S
C49 O48 1.195 . S
C49 O50 1.313 1_554 S
O50 C49 1.313 1_556 S
O51 Mg39 2.141 . S
O51 C42 1.289 . S
Mg52 O59 2.141 . S
Mg52 O60 2.048 . S
Mg52 O61 2.048 . S
Mg52 O64 2.141 . S
C53 O54 1.313 . S
C53 O60 1.195 1_455 S
O54 C53 1.313 . S
C55 O56 1.245 . S
C55 O64 1.289 1_455 S
O56 C55 1.245 . S
C57 O58 1.245 . S
C57 O59 1.289 1_455 S
O58 C57 1.245 . S
O59 Mg52 2.141 . S
O59 C57 1.289 1_655 S
O60 Mg52 2.048 . S
O60 C53 1.195 1_655 S
O61 Mg52 2.048 . S
O61 C62 1.195 1_655 S
C62 O61 1.195 1_455 S
C62 O63 1.313 . S
O63 C62 1.313 . S
O64 Mg52 2.141 . S
O64 C55 1.289 1_655 S
Mg65 O72 2.141 . S
Mg65 O73 2.048 . S
Mg65 O74 2.048 . S
Mg65 O77 2.141 . S
C66 O67 1.313 1_545 S
C66 O73 1.195 . S
O67 C66 1.313 1_565 S
C68 O69 1.245 1_545 S
C68 O77 1.289 . S
O69 C68 1.245 1_565 S
C70 O71 1.245 1_545 S
C70 O72 1.289 . S
O71 C70 1.245 1_565 S
O72 Mg65 2.141 . S
O72 C70 1.289 . S
O73 Mg65 2.048 . S
O73 C66 1.195 . S
O74 Mg65 2.048 . S
O74 C75 1.195 . S
C75 O74 1.195 . S
C75 O76 1.313 1_545 S
O76 C75 1.313 1_565 S
O77 Mg65 2.141 . S
O77 C68 1.289 . S
C1 C55 1.478 . S
C5 C66 1.473 . S
C53 C3 1.491 . S
C68 C10 1.473 . S
C70 C23 1.491 . S
C36 C57 1.478 . S
C75 C18 1.478 . S
C62 C31 1.491 . S
C27 C44 1.473 . S
C42 C14 1.491 . S
C29 C49 1.473 . S
C40 C16 1.478 . S
