# Generated by pormake.
# Topology sxa, (6)-cn, num edge types: 1
# Building blocks:
#     Node 0, Type 0, BuildingBlock: BETDEL_clean_sbu_0, # of connection points: 6
#     Node 1, Type 0, BuildingBlock: BETDEL_clean_sbu_0, # of connection points: 6
#     Node 2, Type 0, BuildingBlock: BETDEL_clean_sbu_0, # of connection points: 6
#     Node 3, Type 0, BuildingBlock: BETDEL_clean_sbu_0, # of connection points: 6
#     Edge 4, Type (0, 0), BuildingBlock: OJICUG_clean_linker_0, # of connection points: 2
#     Edge 5, Type (0, 0), BuildingBlock: OJICUG_clean_linker_0, # of connection points: 2
#     Edge 6, Type (0, 0), BuildingBlock: OJICUG_clean_linker_0, # of connection points: 2
#     Edge 7, Type (0, 0), BuildingBlock: OJICUG_clean_linker_0, # of connection points: 2
#     Edge 8, Type (0, 0), BuildingBlock: OJICUG_clean_linker_0, # of connection points: 2
#     Edge 9, Type (0, 0), BuildingBlock: OJICUG_clean_linker_0, # of connection points: 2
#     Edge 10, Type (0, 0), BuildingBlock: OJICUG_clean_linker_0, # of connection points: 2
#     Edge 11, Type (0, 0), BuildingBlock: OJICUG_clean_linker_0, # of connection points: 2
#     Edge 12, Type (0, 0), BuildingBlock: OJICUG_clean_linker_0, # of connection points: 2
#     Edge 13, Type (0, 0), BuildingBlock: OJICUG_clean_linker_0, # of connection points: 2
#     Edge 14, Type (0, 0), BuildingBlock: OJICUG_clean_linker_0, # of connection points: 2
#     Edge 15, Type (0, 0), BuildingBlock: OJICUG_clean_linker_0, # of connection points: 2
# Relax obj value: 0.081
# Max RMSD: 0.225
# Mean RMSD: 0.225
data_MOF--net-sxa--node1-BETDEL_clean_sbu_0--edge1-OJICUG_clean_linker_0
_symmetry_space_group_name_H-M    P1
_symmetry_Int_Tables_number       1
_symmetry_cell_setting            triclinic
loop_
_symmetry_equiv_pos_as_xyz
'x, y, z'
_cell_length_a     20.637312
_cell_length_b     18.808537
_cell_length_c     11.057826
_cell_angle_alpha  92.276151
_cell_angle_beta   89.999015
_cell_angle_gamma 90.000804
loop_
_atom_site_label
_atom_site_type_symbol
_atom_site_fract_x
_atom_site_fract_y
_atom_site_fract_z
_atom_type_partial_charge
Dy0 Dy 0.09195 0.82413 0.00521 0.0
C1 C 0.89829 0.7942 0.34965 0.0
C2 C 0.18408 0.84786 0.83811 0.0
Dy3 Dy 1.00614 0.81111 0.20739 0.0
O4 O 0.15109 0.78948 0.84486 0.0
O5 O 0.15282 0.89701 0.8994 0.0
O6 O 0.14606 0.72876 0.06137 0.0
O7 O 1.04586 0.72844 0.07763 0.0
C8 C 0.09604 0.68967 0.08091 0.0
C9 C 1.00902 0.9429 0.11111 0.0
O10 O 0.09988 0.81267 0.3135 0.0
O11 O 0.15923 0.85616 0.15558 0.0
O12 O 0.90083 0.82474 0.24752 0.0
O13 O 0.95654 0.77303 0.37864 0.0
O14 O 0.95736 0.91198 0.14744 0.0
O15 O 0.0562 0.90352 0.13258 0.0
O16 O 0.99204 0.82628 0.91948 0.0
O17 O 0.96761 0.74443 0.05443 0.0
C18 C 0.15516 0.83721 0.26905 0.0
C19 C 0.95159 0.77735 -0.0435 0.0
Dy20 Dy 0.59194 0.32407 0.00518 0.0
C21 C 0.3983 0.29416 0.34965 0.0
C22 C 0.68406 0.34783 0.83806 0.0
Dy23 Dy 0.50615 0.31105 0.20738 0.0
O24 O 0.65109 0.28943 0.84484 0.0
O25 O 0.65278 0.39697 0.89933 0.0
O26 O 0.64607 0.22871 0.06133 0.0
O27 O 0.54586 0.22838 0.07762 0.0
C28 C 0.59605 0.18962 0.08089 0.0
C29 C 0.50902 0.44284 0.11109 0.0
O30 O 0.5999 0.31262 0.31347 0.0
O31 O 0.65923 0.35612 0.15554 0.0
O32 O 0.40083 0.32466 0.24749 0.0
O33 O 0.45655 0.273 0.37865 0.0
O34 O 0.45737 0.41193 0.14742 0.0
O35 O 0.5562 0.40347 0.13256 0.0
O36 O 0.49203 0.32622 0.91948 0.0
O37 O 0.46762 0.24436 0.05443 0.0
C38 C 0.65517 0.33717 0.26901 0.0
C39 C 0.45158 0.27728 -0.04349 0.0
Dy40 Dy 0.09194 0.28851 0.87534 0.0
C41 C 0.89831 0.31833 0.53085 0.0
C42 C 0.18405 0.26481 0.04248 0.0
Dy43 Dy 1.00615 0.30148 0.67314 0.0
O44 O 0.15108 0.3232 0.03565 0.0
O45 O 0.15277 0.21565 -0.01876 0.0
O46 O 0.14606 0.38386 0.81911 0.0
O47 O 1.04586 0.38418 0.80285 0.0
C48 C 0.09604 0.42295 0.79956 0.0
C49 C 1.00902 0.16971 0.76951 0.0
O50 O 0.09989 0.29988 0.56704 0.0
O51 O 0.15923 0.25643 0.725 0.0
O52 O 0.90084 0.28782 0.633 0.0
O53 O 0.95655 0.33952 0.50186 0.0
O54 O 0.95736 0.20062 0.73317 0.0
O55 O 0.0562 0.20909 0.74801 0.0
O56 O 0.99202 0.28638 -0.03894 0.0
O57 O 0.96761 0.3682 0.82604 0.0
C58 C 0.15517 0.27536 0.61151 0.0
C59 C 0.95157 0.33531 0.92399 0.0
Dy60 Dy 0.59195 0.78843 0.87533 0.0
C61 C 0.39829 0.81832 0.53088 0.0
C62 C 0.68408 0.76472 0.04242 0.0
Dy63 Dy 0.50614 0.80143 0.67315 0.0
O64 O 0.6511 0.8231 0.03565 0.0
O65 O 0.65281 0.71556 -0.01883 0.0
O66 O 0.64607 0.88379 0.81912 0.0
O67 O 0.54586 0.88411 0.80288 0.0
C68 C 0.59604 0.92288 0.79958 0.0
C69 C 0.50902 0.66965 0.76948 0.0
O70 O 0.59988 0.79985 0.56704 0.0
O71 O 0.65922 0.75637 0.72496 0.0
O72 O 0.40082 0.7878 0.63303 0.0
O73 O 0.45654 0.83949 0.50189 0.0
O74 O 0.45736 0.70057 0.73315 0.0
O75 O 0.55619 0.70903 0.74798 0.0
O76 O 0.49204 0.78629 -0.03893 0.0
O77 O 0.46762 0.86813 0.8261 0.0
C78 C 0.65515 0.77531 0.61148 0.0
C79 C 0.45159 0.83522 0.92404 0.0
C80 C 1.03682 0.52608 0.90107 0.0
C81 C 0.09542 0.49467 0.86152 0.0
H82 H 0.99073 0.60938 0.00674 0.0
C83 C 0.15396 0.52607 0.90129 0.0
H84 H 0.99073 0.50325 0.87369 0.0
C85 C 0.15396 0.58655 -0.02083 0.0
C86 C 0.09541 0.61795 0.01893 0.0
H87 H 0.20009 0.50294 0.87434 0.0
H88 H 0.20009 0.60969 0.00612 0.0
C89 C 1.03681 0.58654 -0.02063 0.0
C90 C 0.45108 0.52975 -0.01694 0.0
C91 C 0.50962 0.50223 0.0263 0.0
H92 H 0.40506 0.60241 0.86584 0.0
C93 C 0.56822 0.52982 -0.01664 0.0
H94 H 0.40506 0.51009 0.01478 0.0
C95 C 0.56821 0.58269 0.89721 0.0
C96 C 0.50961 0.61027 0.85428 0.0
H97 H 0.61409 0.51057 0.01638 0.0
H98 H 0.61409 0.60194 0.86419 0.0
C99 C 0.45108 0.58275 0.89755 0.0
C100 C 0.65397 1.02601 0.90128 0.0
C101 C 0.59541 0.99461 0.86154 0.0
H102 H 0.7001 0.10963 0.00608 0.0
C103 C 0.53682 1.02602 0.9011 0.0
H104 H 0.70009 1.00287 0.87432 0.0
C105 C 0.53682 0.08648 -0.02061 0.0
C106 C 0.59542 0.11789 0.01892 0.0
H107 H 0.49073 1.00318 0.87374 0.0
H108 H 0.49074 0.10931 0.00677 0.0
C109 C 0.65397 0.08649 -0.02085 0.0
C110 C 0.06822 1.02987 -0.01661 0.0
C111 C 1.00962 1.00228 0.02632 0.0
H112 H 0.11409 0.102 0.86423 0.0
C113 C 0.95108 1.02981 -0.01693 0.0
H114 H 0.11409 1.01062 0.01641 0.0
C115 C 0.95108 0.08281 0.89757 0.0
C116 C 1.00962 0.11033 0.85431 0.0
H117 H 0.90506 1.01014 0.01478 0.0
H118 H 0.90506 0.10247 0.86586 0.0
C119 C 0.06822 0.08275 0.89725 0.0
C120 C 0.27823 0.80338 0.51603 0.0
C121 C 0.33642 0.82739 0.46447 0.0
H122 H 0.17564 0.78843 0.49689 0.0
C123 C 0.33378 0.85879 0.35185 0.0
H124 H 0.27849 0.77896 0.60306 0.0
C125 C 0.2744 0.86431 0.29087 0.0
C126 C 0.21624 0.83874 0.34131 0.0
H127 H 0.37755 0.878 0.31008 0.0
H128 H 0.27448 0.88739 0.20267 0.0
C129 C 0.21895 0.80907 0.45551 0.0
C130 C 0.2744 0.24824 0.58971 0.0
C131 C 0.21625 0.27381 0.53925 0.0
H132 H 0.37756 0.23454 0.57051 0.0
C133 C 0.21896 0.30344 0.42503 0.0
H134 H 0.27449 0.22519 0.67793 0.0
C135 C 0.27824 0.30911 0.3645 0.0
C136 C 0.33643 0.28511 0.41607 0.0
H137 H 0.17565 0.32407 0.38363 0.0
H138 H 0.2785 0.3335 0.27745 0.0
C139 C 0.33379 0.25374 0.52872 0.0
C140 C 0.83379 0.35877 0.35179 0.0
C141 C 0.83643 0.32738 0.46443 0.0
H142 H 0.77449 0.38735 0.20261 0.0
C143 C 0.77825 0.30336 0.51599 0.0
H144 H 0.87756 0.37799 0.31002 0.0
C145 C 0.71897 0.30904 0.45546 0.0
C146 C 0.71625 0.3387 0.34126 0.0
H147 H 0.77851 0.27896 0.60303 0.0
H148 H 0.67565 0.2884 0.49685 0.0
C149 C 0.77441 0.36428 0.29081 0.0
C150 C 0.77823 0.80915 0.36451 0.0
C151 C 0.83642 0.78513 0.41606 0.0
H152 H 0.67564 0.82411 0.38366 0.0
C153 C 0.83377 0.75372 0.52868 0.0
H154 H 0.7785 0.83358 0.27749 0.0
C155 C 0.77439 0.7482 0.58965 0.0
C156 C 0.71623 0.77378 0.53922 0.0
H157 H 0.87755 0.7345 0.57044 0.0
H158 H 0.77447 0.72511 0.67784 0.0
C159 C 0.71895 0.80346 0.42503 0.0
C160 C 0.35098 0.90189 -0.05886 0.0
C161 C 0.3822 0.83578 -0.05234 0.0
H162 H 0.26547 0.95785 0.89151 0.0
C163 C 0.34736 0.77346 0.91971 0.0
H164 H 0.37756 0.95086 -0.04046 0.0
C165 C 0.28417 0.77743 0.87533 0.0
C166 C 0.25427 0.84395 0.86092 0.0
H167 H 0.37081 0.72209 0.92154 0.0
H168 H 0.2588 0.72828 0.85257 0.0
C169 C 0.28792 0.90601 0.89716 0.0
C170 C 0.28418 0.33518 0.00519 0.0
C171 C 0.25424 0.26868 0.01969 0.0
H172 H 0.37083 0.39046 -0.04106 0.0
C173 C 0.28788 0.20659 -0.01646 0.0
H174 H 0.25882 0.38434 0.02789 0.0
C175 C 0.35094 0.21066 0.93956 0.0
C176 C 0.38218 0.27674 0.93295 0.0
H177 H 0.2654 0.15475 -0.01073 0.0
H178 H 0.37749 0.16166 0.92124 0.0
C179 C 0.34736 0.3391 -0.03918 0.0
C180 C 0.78787 0.40604 0.89708 0.0
C181 C 0.75425 0.34395 0.86087 0.0
H182 H 0.87748 0.45096 -0.04059 0.0
C183 C 0.78419 0.27745 0.87532 0.0
H184 H 0.76539 0.45787 0.89139 0.0
C185 C 0.84738 0.27353 0.9197 0.0
C186 C 0.88218 0.33589 -0.05238 0.0
H187 H 0.75884 0.22829 0.85258 0.0
H188 H 0.87085 0.22217 0.92155 0.0
C189 C 0.85093 0.40197 -0.05892 0.0
C190 C 0.84738 0.83909 -0.03914 0.0
C191 C 0.8822 0.77675 0.93285 0.0
H192 H 0.75884 0.88429 0.02804 0.0
C193 C 0.85096 0.71067 0.93931 0.0
H194 H 0.87085 0.89046 -0.04094 0.0
C195 C 0.7879 0.70656 -0.01669 0.0
C196 C 0.75427 0.76863 0.0196 0.0
H197 H 0.87752 0.66169 0.92089 0.0
H198 H 0.76543 0.65472 -0.01107 0.0
C199 C 0.7842 0.83514 0.00524 0.0
loop_
_geom_bond_atom_site_label_1
_geom_bond_atom_site_label_2
_geom_bond_distance
_geom_bond_site_symmetry_2
_ccdc_geom_bond_type
Dy0 O4 2.398 1_554 S
Dy0 O5 2.491 1_554 S
Dy0 O6 2.403 . S
Dy0 O7 2.664 1_455 S
Dy0 O11 2.326 . S
Dy0 O15 2.310 . S
Dy0 O16 2.351 1_454 S
C1 O12 1.185 . S
C1 O13 1.355 . S
C2 O4 1.185 . S
C2 O5 1.355 . S
Dy3 O7 2.310 . S
Dy3 O10 2.351 1_655 S
Dy3 O12 2.398 . S
Dy3 O13 2.491 . S
Dy3 O14 2.403 . S
Dy3 O15 2.664 1_655 S
Dy3 O17 2.326 . S
O4 Dy0 2.398 1_556 S
O4 C2 1.185 . S
O5 Dy0 2.491 1_556 S
O5 C2 1.355 . S
O6 Dy0 2.403 . S
O6 C8 1.254 . S
O7 Dy0 2.664 1_655 S
O7 Dy3 2.310 . S
O7 C8 1.268 1_655 S
C8 O6 1.254 . S
C8 O7 1.268 1_455 S
C9 O14 1.250 1_455 S
C9 O15 1.270 . S
O10 Dy3 2.351 1_455 S
O10 C18 1.249 . S
O11 Dy0 2.326 . S
O11 C18 1.267 . S
O12 C1 1.185 . S
O12 Dy3 2.398 . S
O13 C1 1.355 . S
O13 Dy3 2.491 . S
O14 Dy3 2.403 . S
O14 C9 1.250 1_655 S
O15 Dy0 2.310 . S
O15 Dy3 2.664 1_455 S
O15 C9 1.270 . S
O16 Dy0 2.351 1_656 S
O16 C19 1.249 1_556 S
O17 Dy3 2.326 . S
O17 C19 1.267 . S
C18 O10 1.249 . S
C18 O11 1.267 . S
C19 O16 1.249 1_554 S
C19 O17 1.267 . S
Dy20 O24 2.398 1_554 S
Dy20 O25 2.491 1_554 S
Dy20 O26 2.403 . S
Dy20 O27 2.664 . S
Dy20 O31 2.326 . S
Dy20 O35 2.310 . S
Dy20 O36 2.351 1_554 S
C21 O32 1.185 . S
C21 O33 1.355 . S
C22 O24 1.185 . S
C22 O25 1.355 . S
Dy23 O27 2.310 . S
Dy23 O30 2.351 . S
Dy23 O32 2.398 . S
Dy23 O33 2.491 . S
Dy23 O34 2.403 . S
Dy23 O35 2.664 . S
Dy23 O37 2.326 . S
O24 Dy20 2.398 1_556 S
O24 C22 1.185 . S
O25 Dy20 2.491 1_556 S
O25 C22 1.355 . S
O26 Dy20 2.403 . S
O26 C28 1.254 . S
O27 Dy20 2.664 . S
O27 Dy23 2.310 . S
O27 C28 1.268 . S
C28 O26 1.254 . S
C28 O27 1.268 . S
C29 O34 1.254 . S
C29 O35 1.268 . S
O30 Dy23 2.351 . S
O30 C38 1.249 . S
O31 Dy20 2.326 . S
O31 C38 1.267 . S
O32 C21 1.185 . S
O32 Dy23 2.398 . S
O33 C21 1.355 . S
O33 Dy23 2.491 . S
O34 Dy23 2.403 . S
O34 C29 1.254 . S
O35 Dy20 2.310 . S
O35 Dy23 2.664 . S
O35 C29 1.268 . S
O36 Dy20 2.351 1_556 S
O36 C39 1.249 1_556 S
O37 Dy23 2.326 . S
O37 C39 1.267 . S
C38 O30 1.249 . S
C38 O31 1.267 . S
C39 O36 1.249 1_554 S
C39 O37 1.267 . S
Dy40 O44 2.398 1_556 S
Dy40 O45 2.491 1_556 S
Dy40 O46 2.403 . S
Dy40 O47 2.664 1_455 S
Dy40 O51 2.326 . S
Dy40 O55 2.310 . S
Dy40 O56 2.351 1_456 S
C41 O52 1.185 . S
C41 O53 1.355 . S
C42 O44 1.185 . S
C42 O45 1.355 . S
Dy43 O47 2.310 . S
Dy43 O50 2.351 1_655 S
Dy43 O52 2.398 . S
Dy43 O53 2.491 . S
Dy43 O54 2.403 . S
Dy43 O55 2.664 1_655 S
Dy43 O57 2.326 . S
O44 Dy40 2.398 1_554 S
O44 C42 1.185 . S
O45 Dy40 2.491 1_554 S
O45 C42 1.355 . S
O46 Dy40 2.403 . S
O46 C48 1.254 . S
O47 Dy40 2.664 1_655 S
O47 Dy43 2.310 . S
O47 C48 1.268 1_655 S
C48 O46 1.254 . S
C48 O47 1.268 1_455 S
C49 O54 1.250 1_455 S
C49 O55 1.270 . S
O50 Dy43 2.351 1_455 S
O50 C58 1.249 . S
O51 Dy40 2.326 . S
O51 C58 1.267 . S
O52 C41 1.185 . S
O52 Dy43 2.398 . S
O53 C41 1.355 . S
O53 Dy43 2.491 . S
O54 Dy43 2.403 . S
O54 C49 1.250 1_655 S
O55 Dy40 2.310 . S
O55 Dy43 2.664 1_455 S
O55 C49 1.270 . S
O56 Dy40 2.351 1_654 S
O56 C59 1.249 1_554 S
O57 Dy43 2.326 . S
O57 C59 1.267 . S
C58 O50 1.249 . S
C58 O51 1.267 . S
C59 O56 1.249 1_556 S
C59 O57 1.267 . S
Dy60 O64 2.398 1_556 S
Dy60 O65 2.491 1_556 S
Dy60 O66 2.403 . S
Dy60 O67 2.664 . S
Dy60 O71 2.326 . S
Dy60 O75 2.310 . S
Dy60 O76 2.351 1_556 S
C61 O72 1.185 . S
C61 O73 1.355 . S
C62 O64 1.185 . S
C62 O65 1.355 . S
Dy63 O67 2.310 . S
Dy63 O70 2.351 . S
Dy63 O72 2.398 . S
Dy63 O73 2.491 . S
Dy63 O74 2.403 . S
Dy63 O75 2.664 . S
Dy63 O77 2.326 . S
O64 Dy60 2.398 1_554 S
O64 C62 1.185 . S
O65 Dy60 2.491 1_554 S
O65 C62 1.355 . S
O66 Dy60 2.403 . S
O66 C68 1.254 . S
O67 Dy60 2.664 . S
O67 Dy63 2.310 . S
O67 C68 1.268 . S
C68 O66 1.254 . S
C68 O67 1.268 . S
C69 O74 1.254 . S
C69 O75 1.268 . S
O70 Dy63 2.351 . S
O70 C78 1.249 . S
O71 Dy60 2.326 . S
O71 C78 1.267 . S
O72 C61 1.185 . S
O72 Dy63 2.398 . S
O73 C61 1.355 . S
O73 Dy63 2.491 . S
O74 Dy63 2.403 . S
O74 C69 1.254 . S
O75 Dy60 2.310 . S
O75 Dy63 2.664 . S
O75 C69 1.268 . S
O76 Dy60 2.351 1_554 S
O76 C79 1.249 1_554 S
O77 Dy63 2.326 . S
O77 C79 1.267 . S
C78 O70 1.249 . S
C78 O71 1.267 . S
C79 O76 1.249 1_556 S
C79 O77 1.267 . S
C80 C81 1.387 . S
C80 H84 0.950 . S
C80 C89 1.390 1_556 S
C81 C80 1.387 . S
C81 C83 1.387 1_655 S
H82 C89 0.950 . S
C83 C81 1.387 1_455 S
C83 C85 1.390 1_556 S
C83 H87 0.950 . S
H84 C80 0.950 . S
C85 C83 1.390 1_554 S
C85 C86 1.387 1_455 S
C85 H88 0.950 . S
C86 C85 1.387 1_655 S
C86 C89 1.387 . S
H87 C83 0.950 . S
H88 C85 0.950 . S
C89 C80 1.390 1_554 S
C89 H82 0.950 . S
C89 C86 1.387 . S
C90 C91 1.387 . S
C90 H94 0.950 . S
C90 C99 1.390 1_554 S
C91 C90 1.387 . S
C91 C93 1.387 . S
H92 C99 0.950 . S
C93 C91 1.387 . S
C93 C95 1.390 1_554 S
C93 H97 0.950 . S
H94 C90 0.950 . S
C95 C93 1.390 1_556 S
C95 C96 1.387 . S
C95 H98 0.950 . S
C96 C95 1.387 . S
C96 C99 1.387 . S
H97 C93 0.950 . S
H98 C95 0.950 . S
C99 C90 1.390 1_556 S
C99 H92 0.950 . S
C99 C96 1.387 . S
C100 C101 1.387 . S
C100 H104 0.950 . S
C100 C109 1.390 1_566 S
C101 C100 1.387 . S
C101 C103 1.387 . S
H102 C109 0.950 . S
C103 C101 1.387 . S
C103 C105 1.390 1_566 S
C103 H107 0.950 . S
H104 C100 0.950 . S
C105 C103 1.390 1_544 S
C105 C106 1.387 . S
C105 H108 0.950 . S
C106 C105 1.387 . S
C106 C109 1.387 . S
H107 C103 0.950 . S
H108 C105 0.950 . S
C109 C100 1.390 1_544 S
C109 H102 0.950 . S
C109 C106 1.387 . S
C110 C111 1.387 . S
C110 H114 0.950 . S
C110 C119 1.390 1_564 S
C111 C110 1.387 . S
C111 C113 1.387 1_455 S
H112 C119 0.950 . S
C113 C111 1.387 1_655 S
C113 C115 1.390 1_564 S
C113 H117 0.950 . S
H114 C110 0.950 . S
C115 C113 1.390 1_546 S
C115 C116 1.387 1_655 S
C115 H118 0.950 . S
C116 C115 1.387 1_455 S
C116 C119 1.387 . S
H117 C113 0.950 . S
H118 C115 0.950 . S
C119 C110 1.390 1_546 S
C119 H112 0.950 . S
C119 C116 1.387 . S
C120 C121 1.387 . S
C120 H124 0.950 . S
C120 C129 1.390 . S
C121 C120 1.387 . S
C121 C123 1.387 . S
H122 C129 0.950 . S
C123 C121 1.387 . S
C123 C125 1.390 . S
C123 H127 0.950 . S
H124 C120 0.950 . S
C125 C123 1.390 . S
C125 C126 1.387 . S
C125 H128 0.950 . S
C126 C125 1.387 . S
C126 C129 1.387 . S
H127 C123 0.950 . S
H128 C125 0.950 . S
C129 C120 1.390 . S
C129 H122 0.950 . S
C129 C126 1.387 . S
C130 C131 1.387 . S
C130 H134 0.950 . S
C130 C139 1.390 . S
C131 C130 1.387 . S
C131 C133 1.387 . S
H132 C139 0.950 . S
C133 C131 1.387 . S
C133 C135 1.390 . S
C133 H137 0.950 . S
H134 C130 0.950 . S
C135 C133 1.390 . S
C135 C136 1.387 . S
C135 H138 0.950 . S
C136 C135 1.387 . S
C136 C139 1.387 . S
H137 C133 0.950 . S
H138 C135 0.950 . S
C139 C130 1.390 . S
C139 H132 0.950 . S
C139 C136 1.387 . S
C140 C141 1.387 . S
C140 H144 0.950 . S
C140 C149 1.390 . S
C141 C140 1.387 . S
C141 C143 1.387 . S
H142 C149 0.950 . S
C143 C141 1.387 . S
C143 C145 1.390 . S
C143 H147 0.950 . S
H144 C140 0.950 . S
C145 C143 1.390 . S
C145 C146 1.387 . S
C145 H148 0.950 . S
C146 C145 1.387 . S
C146 C149 1.387 . S
H147 C143 0.950 . S
H148 C145 0.950 . S
C149 C140 1.390 . S
C149 H142 0.950 . S
C149 C146 1.387 . S
C150 C151 1.387 . S
C150 H154 0.950 . S
C150 C159 1.390 . S
C151 C150 1.387 . S
C151 C153 1.387 . S
H152 C159 0.950 . S
C153 C151 1.387 . S
C153 C155 1.390 . S
C153 H157 0.950 . S
H154 C150 0.950 . S
C155 C153 1.390 . S
C155 C156 1.387 . S
C155 H158 0.950 . S
C156 C155 1.387 . S
C156 C159 1.387 . S
H157 C153 0.950 . S
H158 C155 0.950 . S
C159 C150 1.390 . S
C159 H152 0.950 . S
C159 C156 1.387 . S
C160 C161 1.387 . S
C160 H164 0.950 . S
C160 C169 1.390 . S
C161 C160 1.387 . S
C161 C163 1.387 . S
H162 C169 0.950 . S
C163 C161 1.387 . S
C163 C165 1.390 . S
C163 H167 0.950 . S
H164 C160 0.950 . S
C165 C163 1.390 . S
C165 C166 1.387 . S
C165 H168 0.950 . S
C166 C165 1.387 . S
C166 C169 1.387 . S
H167 C163 0.950 . S
H168 C165 0.950 . S
C169 C160 1.390 . S
C169 H162 0.950 . S
C169 C166 1.387 . S
C170 C171 1.387 . S
C170 H174 0.950 . S
C170 C179 1.390 . S
C171 C170 1.387 . S
C171 C173 1.387 . S
H172 C179 0.950 . S
C173 C171 1.387 . S
C173 C175 1.390 1_554 S
C173 H177 0.950 1_554 S
H174 C170 0.950 . S
C175 C173 1.390 1_556 S
C175 C176 1.387 1_556 S
C175 H178 0.950 . S
C176 C175 1.387 1_554 S
C176 C179 1.387 . S
H177 C173 0.950 1_556 S
H178 C175 0.950 . S
C179 C170 1.390 . S
C179 H172 0.950 . S
C179 C176 1.387 . S
C180 C181 1.387 . S
C180 H184 0.950 . S
C180 C189 1.390 . S
C181 C180 1.387 . S
C181 C183 1.387 . S
H182 C189 0.950 1_554 S
C183 C181 1.387 . S
C183 C185 1.390 . S
C183 H187 0.950 . S
H184 C180 0.950 . S
C185 C183 1.390 . S
C185 C186 1.387 . S
C185 H188 0.950 . S
C186 C185 1.387 . S
C186 C189 1.387 . S
H187 C183 0.950 . S
H188 C185 0.950 . S
C189 C180 1.390 . S
C189 H182 0.950 1_556 S
C189 C186 1.387 . S
C190 C191 1.387 . S
C190 H194 0.950 . S
C190 C199 1.390 . S
C191 C190 1.387 . S
C191 C193 1.387 . S
H192 C199 0.950 . S
C193 C191 1.387 . S
C193 C195 1.390 . S
C193 H197 0.950 . S
H194 C190 0.950 . S
C195 C193 1.390 . S
C195 C196 1.387 . S
C195 H198 0.950 . S
C196 C195 1.387 . S
C196 C199 1.387 . S
H197 C193 0.950 . S
H198 C195 0.950 . S
C199 C190 1.390 . S
C199 H192 0.950 . S
C199 C196 1.387 . S
C81 C48 1.714 1_655 S
C86 C8 1.714 1_655 S
C91 C29 2.025 . S
C96 C69 2.025 . S
C101 C68 1.709 . S
C106 C28 1.709 . S
C111 C9 2.027 . S
C116 C49 2.027 . S
C121 C61 1.514 . S
C126 C18 1.520 . S
C131 C58 1.521 . S
C136 C21 1.516 . S
C141 C41 1.516 . S
C146 C38 1.521 . S
C151 C1 1.514 . S
C156 C78 1.520 . S
C161 C79 1.258 . S
C166 C2 1.300 . S
C171 C42 1.297 . S
C176 C39 1.255 . S
C181 C22 1.300 . S
C186 C59 1.258 . S
C191 C19 1.254 . S
C196 C62 1.297 . S
