# Generated by pormake.
# Topology tfs, (6)-cn, num edge types: 1
# Building blocks:
#     Node 0, Type 0, BuildingBlock: FUNLAD_clean_sbu_0, # of connection points: 6
#     Node 1, Type 0, BuildingBlock: FUNLAD_clean_sbu_0, # of connection points: 6
#     Node 2, Type 0, BuildingBlock: FUNLAD_clean_sbu_0, # of connection points: 6
#     Node 3, Type 0, BuildingBlock: FUNLAD_clean_sbu_0, # of connection points: 6
#     Node 4, Type 0, BuildingBlock: FUNLAD_clean_sbu_0, # of connection points: 6
#     Node 5, Type 0, BuildingBlock: FUNLAD_clean_sbu_0, # of connection points: 6
#     Edge 6, Type (0, 0), None
#     Edge 7, Type (0, 0), None
#     Edge 8, Type (0, 0), None
#     Edge 9, Type (0, 0), None
#     Edge 10, Type (0, 0), None
#     Edge 11, Type (0, 0), None
#     Edge 12, Type (0, 0), None
#     Edge 13, Type (0, 0), None
#     Edge 14, Type (0, 0), None
#     Edge 15, Type (0, 0), None
#     Edge 16, Type (0, 0), None
#     Edge 17, Type (0, 0), None
#     Edge 18, Type (0, 0), None
#     Edge 19, Type (0, 0), None
#     Edge 20, Type (0, 0), None
#     Edge 21, Type (0, 0), None
#     Edge 22, Type (0, 0), None
#     Edge 23, Type (0, 0), None
# Relax obj value: 0.057
# Max RMSD: 0.151
# Mean RMSD: 0.150
data_MOF--net-tfs--node1-FUNLAD_clean_sbu_0--edge1-none
_symmetry_space_group_name_H-M    P1
_symmetry_Int_Tables_number       1
_symmetry_cell_setting            triclinic
loop_
_symmetry_equiv_pos_as_xyz
'x, y, z'
_cell_length_a     18.61785
_cell_length_b     18.607025
_cell_length_c     13.428685
_cell_angle_alpha  90.379407
_cell_angle_beta   90.499348
_cell_angle_gamma 120.0076
loop_
_atom_site_label
_atom_site_type_symbol
_atom_site_fract_x
_atom_site_fract_y
_atom_site_fract_z
_atom_type_partial_charge
C0 C 0.0074 0.27817 0.03389 0.0
N1 N 0.175 0.39797 0.26979 0.0
C2 C 0.12056 0.41364 0.31888 0.0
C3 C 0.11958 0.41459 0.42281 0.0
C4 C 0.17337 0.39665 0.47775 0.0
C5 C 0.22814 0.37959 0.42453 0.0
C6 C 0.2288 0.38187 0.32064 0.0
Zn7 Zn 0.17445 0.39706 0.11682 0.0
C8 C 0.22075 0.27819 0.03258 0.0
N9 N 0.17117 0.39481 0.79723 0.0
C10 C 0.10126 0.37852 0.74574 0.0
C11 C 0.24155 0.41126 0.74874 0.0
C12 C 0.24398 0.41344 0.64493 0.0
C13 C 0.17245 0.3958 0.58923 0.0
C14 C 0.10011 0.37739 0.6417 0.0
Zn15 Zn 0.17175 0.39566 0.95026 0.0
O16 O 0.04709 0.30679 0.11541 0.0
C17 C 0.13314 0.52036 0.03314 0.0
O18 O 0.04514 0.30212 0.95182 0.0
H19 H 0.29644 0.4233 0.79048 0.0
H20 H 0.07763 0.4256 0.27753 0.0
H21 H 0.0459 0.36606 0.78518 0.0
O22 O 0.14451 0.49283 0.11453 0.0
O23 O 0.13745 0.48848 0.95101 0.0
H24 H 0.27209 0.37004 0.28075 0.0
O25 O 0.2976 0.4915 0.95338 0.0
O26 O 0.30146 0.48994 0.11687 0.0
O27 O 0.20916 0.30539 0.95104 0.0
O28 O 0.20736 0.30352 0.11459 0.0
C29 C 0.33708 0.52037 0.03496 0.0
H30 H 0.0773 0.43004 0.45904 0.0
H31 H 0.26973 0.3635 0.46201 0.0
H32 H 0.30205 0.42985 0.60944 0.0
H33 H 0.04253 0.36137 0.60349 0.0
C34 C 0.91666 0.23283 0.03416 0.0
N35 N 0.74937 0.18386 0.79822 0.0
C36 C 0.80387 0.25409 0.7501 0.0
C37 C 0.8048 0.25632 0.64624 0.0
C38 C 0.75095 0.18472 0.59024 0.0
C39 C 0.69632 0.1126 0.64242 0.0
C40 C 0.69569 0.11395 0.7464 0.0
Zn41 Zn 0.7496 0.18411 0.9512 0.0
C42 C 0.70335 0.01957 0.03488 0.0
N43 N 0.75268 0.18676 0.27078 0.0
C44 C 0.82259 0.24034 0.32266 0.0
C45 C 0.68238 0.13245 0.31884 0.0
C46 C 0.68008 0.13163 0.42268 0.0
C47 C 0.75168 0.18536 0.47876 0.0
C48 C 0.82388 0.23979 0.42666 0.0
Zn49 Zn 0.75239 0.18662 0.11778 0.0
O50 O 0.87695 0.22097 0.95266 0.0
C51 C 0.79107 0.34941 0.03611 0.0
O52 O 0.87898 0.21991 0.11626 0.0
H53 H 0.62751 0.08959 0.27674 0.0
H54 H 0.84682 0.30893 0.79217 0.0
H55 H 0.8779 0.28347 0.28357 0.0
O56 O 0.78003 0.31025 0.95439 0.0
O57 O 0.78636 0.31347 0.11794 0.0
H58 H 0.65245 0.05868 0.78555 0.0
O59 O 0.62657 0.15648 0.11457 0.0
O60 O 0.62262 0.15007 0.95104 0.0
O61 O 0.71543 0.05925 0.11639 0.0
O62 O 0.71616 0.05737 0.9528 0.0
C63 C 0.58707 0.14542 0.03306 0.0
H64 H 0.84702 0.31422 0.61092 0.0
H65 H 0.65476 0.05495 0.60405 0.0
H66 H 0.62212 0.08959 0.45793 0.0
H67 H 0.88151 0.28127 0.4651 0.0
C68 C 0.65806 0.7156 0.03648 0.0
N69 N 0.54225 0.76504 0.27229 0.0
C70 C 0.52634 0.69478 0.32091 0.0
C71 C 0.52391 0.69224 0.42472 0.0
C72 C 0.54073 0.76359 0.48027 0.0
C73 C 0.55881 0.83587 0.42764 0.0
C74 C 0.55795 0.83481 0.32361 0.0
Zn75 Zn 0.54091 0.76437 0.11931 0.0
C76 C 0.65794 0.9288 0.03521 0.0
N77 N 0.53736 0.76086 0.79971 0.0
C78 C 0.55378 0.70716 0.74928 0.0
C79 C 0.52145 0.81506 0.75019 0.0
C80 C 0.5208 0.81603 0.64623 0.0
C81 C 0.53933 0.7625 0.59174 0.0
C82 C 0.55645 0.70787 0.64542 0.0
Zn83 Zn 0.5387 0.76173 0.95273 0.0
O84 O 0.6314 0.72737 0.11821 0.0
C85 C 0.41581 0.59902 0.03506 0.0
O86 O 0.63204 0.72859 0.95465 0.0
H87 H 0.50916 0.85785 0.7912 0.0
H88 H 0.51476 0.64001 0.27927 0.0
H89 H 0.56568 0.66396 0.78945 0.0
O90 O 0.44515 0.6383 0.11664 0.0
O91 O 0.44582 0.63483 0.9531 0.0
H92 H 0.57002 0.89008 0.28403 0.0
O93 O 0.44305 0.79193 0.95543 0.0
O94 O 0.44805 0.79847 0.11899 0.0
O95 O 0.62908 0.88912 0.95374 0.0
O96 O 0.63419 0.89105 0.11736 0.0
C97 C 0.41588 0.80306 0.03714 0.0
H98 H 0.50785 0.63421 0.46029 0.0
H99 H 0.57427 0.89334 0.46573 0.0
H100 H 0.50521 0.85814 0.60963 0.0
H101 H 0.57298 0.66647 0.60838 0.0
C102 C 0.70352 0.67031 0.03608 0.0
N103 N 0.74986 0.55032 0.80075 0.0
C104 C 0.67996 0.53465 0.7497 0.0
C105 C 0.67842 0.53339 0.64568 0.0
C106 C 0.75032 0.55097 0.59276 0.0
C107 C 0.82183 0.56788 0.64803 0.0
C108 C 0.8198 0.56587 0.75186 0.0
Zn109 Zn 0.75057 0.55139 0.9537 0.0
C110 C 0.91684 0.6703 0.03844 0.0
N111 N 0.75198 0.55349 0.27328 0.0
C112 C 0.69803 0.56961 0.32282 0.0
C113 C 0.80547 0.53669 0.32371 0.0
C114 C 0.80503 0.5342 0.42759 0.0
C115 C 0.75086 0.55184 0.48128 0.0
C116 C 0.69737 0.57047 0.42678 0.0
Zn117 Zn 0.75151 0.5528 0.12024 0.0
O118 O 0.71328 0.64164 0.95437 0.0
C119 C 0.58711 0.42815 0.03643 0.0
O120 O 0.71864 0.64641 0.11796 0.0
H121 H 0.84835 0.52449 0.28346 0.0
H122 H 0.62497 0.52281 0.78954 0.0
H123 H 0.65525 0.58204 0.2819 0.0
O124 O 0.62493 0.4556 0.95498 0.0
O125 O 0.62436 0.46007 0.11851 0.0
H126 H 0.87466 0.57739 0.79327 0.0
O127 O 0.78144 0.45691 0.11813 0.0
O128 O 0.78484 0.4586 0.95463 0.0
O129 O 0.87934 0.64305 0.12017 0.0
O130 O 0.87686 0.64502 0.95663 0.0
C131 C 0.79104 0.42811 0.03649 0.0
H132 H 0.62087 0.518 0.60782 0.0
H133 H 0.87959 0.58362 0.61221 0.0
H134 H 0.84636 0.51756 0.46469 0.0
H135 H 0.65559 0.58644 0.46335 0.0
C136 C 0.33723 0.80309 0.0374 0.0
N137 N 0.17127 0.76196 0.79989 0.0
C138 C 0.24165 0.81641 0.75205 0.0
C139 C 0.24423 0.81724 0.64821 0.0
C140 C 0.17288 0.76326 0.59194 0.0
C141 C 0.10058 0.70876 0.6438 0.0
C142 C 0.10152 0.70832 0.74781 0.0
Zn143 Zn 0.17151 0.76175 0.95286 0.0
C144 C 0.13321 0.5991 0.03369 0.0
N145 N 0.17562 0.76456 0.27251 0.0
C146 C 0.22868 0.83474 0.32433 0.0
C147 C 0.12186 0.69401 0.32066 0.0
C148 C 0.12089 0.69184 0.42453 0.0
C149 C 0.17393 0.76376 0.48049 0.0
C150 C 0.228 0.8361 0.42832 0.0
Zn151 Zn 0.1751 0.76453 0.11943 0.0
O152 O 0.29741 0.79149 0.95598 0.0
C153 C 0.2209 0.92891 0.03577 0.0
O154 O 0.30201 0.799 0.11947 0.0
H155 H 0.07946 0.63891 0.27863 0.0
H156 H 0.29639 0.85931 0.79433 0.0
H157 H 0.27143 0.89023 0.2852 0.0
O158 O 0.20885 0.88911 0.9544 0.0
O159 O 0.20809 0.89124 0.11798 0.0
H160 H 0.04615 0.66517 0.78679 0.0
O161 O 0.04767 0.7271 0.11864 0.0
O162 O 0.04493 0.72891 0.95505 0.0
O163 O 0.14523 0.63857 0.11542 0.0
O164 O 0.13697 0.63473 0.95196 0.0
C165 C 0.0076 0.7156 0.03753 0.0
H166 H 0.30223 0.8594 0.61309 0.0
H167 H 0.04318 0.6671 0.60507 0.0
H168 H 0.07921 0.63378 0.45995 0.0
H169 H 0.269 0.89392 0.46672 0.0
C170 C 0.26625 0.23291 0.03282 0.0
N171 N 0.38634 0.18735 0.27058 0.0
C172 C 0.37008 0.24108 0.3212 0.0
C173 C 0.36787 0.2405 0.42509 0.0
C174 C 0.38508 0.18583 0.47853 0.0
C175 C 0.40318 0.1321 0.42385 0.0
C176 C 0.40224 0.13306 0.31989 0.0
Zn177 Zn 0.38531 0.18686 0.11759 0.0
C178 C 0.26632 0.01968 0.03509 0.0
N179 N 0.38282 0.18353 0.79797 0.0
C180 C 0.39978 0.25411 0.74934 0.0
C181 C 0.36623 0.11348 0.74662 0.0
C182 C 0.3653 0.11241 0.64258 0.0
C183 C 0.38416 0.1849 0.58998 0.0
C184 C 0.4021 0.25658 0.64552 0.0
Zn185 Zn 0.38364 0.18395 0.95103 0.0
O186 O 0.29151 0.21954 0.11503 0.0
C187 C 0.50844 0.34943 0.03614 0.0
O188 O 0.29364 0.22151 0.95147 0.0
H189 H 0.35343 0.05798 0.78616 0.0
H190 H 0.35809 0.28427 0.28113 0.0
H191 H 0.41215 0.30913 0.79098 0.0
O192 O 0.47777 0.31392 0.118 0.0
O193 O 0.47978 0.30985 0.95455 0.0
H194 H 0.41439 0.09024 0.2787 0.0
O195 O 0.47601 0.14942 0.95146 0.0
O196 O 0.48142 0.15705 0.11497 0.0
O197 O 0.28993 0.05729 0.95281 0.0
O198 O 0.29532 0.05948 0.11641 0.0
C199 C 0.50839 0.1454 0.03336 0.0
H200 H 0.35171 0.28204 0.46242 0.0
H201 H 0.41871 0.08989 0.46033 0.0
H202 H 0.34911 0.05476 0.60443 0.0
H203 H 0.41885 0.31476 0.60987 0.0
loop_
_geom_bond_atom_site_label_1
_geom_bond_atom_site_label_2
_geom_bond_distance
_geom_bond_site_symmetry_2
_ccdc_geom_bond_type
C0 O16 1.251 . S
C0 O18 1.254 1_554 S
N1 C2 1.333 . S
N1 C6 1.307 . S
N1 Zn7 2.020 . S
C2 N1 1.333 . S
C2 C3 1.379 . S
C2 H20 0.952 . S
C3 C2 1.379 . S
C3 C4 1.390 . S
C3 H30 0.949 . S
C4 C3 1.390 . S
C4 C5 1.357 . S
C5 C4 1.357 . S
C5 C6 1.370 . S
C5 H31 0.950 . S
C6 N1 1.307 . S
C6 C5 1.370 . S
C6 H24 0.948 . S
Zn7 N1 2.020 . S
Zn7 O16 2.039 . S
Zn7 O22 2.034 . S
Zn7 O26 2.025 . S
Zn7 O28 2.024 . S
C8 O27 1.246 1_554 S
C8 O28 1.249 . S
N9 C10 1.307 . S
N9 C11 1.333 . S
N9 Zn15 2.020 . S
C10 N9 1.307 . S
C10 C14 1.370 . S
C10 H21 0.948 . S
C11 N9 1.333 . S
C11 C12 1.379 . S
C11 H19 0.952 . S
C12 C11 1.379 . S
C12 C13 1.390 . S
C12 H32 0.949 . S
C13 C12 1.390 . S
C13 C14 1.357 . S
C14 C10 1.370 . S
C14 C13 1.357 . S
C14 H33 0.950 . S
Zn15 N9 2.020 . S
Zn15 O18 2.025 . S
Zn15 O23 2.024 . S
Zn15 O25 2.039 . S
Zn15 O27 2.034 . S
O16 C0 1.251 . S
O16 Zn7 2.039 . S
C17 O22 1.246 . S
C17 O23 1.249 1_554 S
O18 C0 1.254 1_556 S
O18 Zn15 2.025 . S
H19 C11 0.952 . S
H20 C2 0.952 . S
H21 C10 0.948 . S
O22 Zn7 2.034 . S
O22 C17 1.246 . S
O23 Zn15 2.024 . S
O23 C17 1.249 1_556 S
H24 C6 0.948 . S
O25 Zn15 2.039 . S
O25 C29 1.251 1_556 S
O26 Zn7 2.025 . S
O26 C29 1.254 . S
O27 C8 1.246 1_556 S
O27 Zn15 2.034 . S
O28 Zn7 2.024 . S
O28 C8 1.249 . S
C29 O25 1.251 1_554 S
C29 O26 1.254 . S
H30 C3 0.949 . S
H31 C5 0.950 . S
H32 C12 0.949 . S
H33 C14 0.950 . S
C34 O50 1.251 1_554 S
C34 O52 1.254 . S
N35 C36 1.333 . S
N35 C40 1.307 . S
N35 Zn41 2.020 . S
C36 N35 1.333 . S
C36 C37 1.379 . S
C36 H54 0.952 . S
C37 C36 1.379 . S
C37 C38 1.390 . S
C37 H64 0.949 . S
C38 C37 1.390 . S
C38 C39 1.357 . S
C39 C38 1.357 . S
C39 C40 1.370 . S
C39 H65 0.950 . S
C40 N35 1.307 . S
C40 C39 1.370 . S
C40 H58 0.948 . S
Zn41 N35 2.020 . S
Zn41 O50 2.039 . S
Zn41 O56 2.034 . S
Zn41 O60 2.025 . S
Zn41 O62 2.024 . S
C42 O61 1.246 . S
C42 O62 1.249 1_554 S
N43 C44 1.307 . S
N43 C45 1.333 . S
N43 Zn49 2.020 . S
C44 N43 1.307 . S
C44 C48 1.370 . S
C44 H55 0.948 . S
C45 N43 1.333 . S
C45 C46 1.379 . S
C45 H53 0.952 . S
C46 C45 1.379 . S
C46 C47 1.390 . S
C46 H66 0.949 . S
C47 C46 1.390 . S
C47 C48 1.357 . S
C48 C44 1.370 . S
C48 C47 1.357 . S
C48 H67 0.950 . S
Zn49 N43 2.020 . S
Zn49 O52 2.025 . S
Zn49 O57 2.024 . S
Zn49 O59 2.039 . S
Zn49 O61 2.034 . S
O50 C34 1.251 1_556 S
O50 Zn41 2.039 . S
C51 O56 1.246 1_554 S
C51 O57 1.249 . S
O52 C34 1.254 . S
O52 Zn49 2.025 . S
H53 C45 0.952 . S
H54 C36 0.952 . S
H55 C44 0.948 . S
O56 Zn41 2.034 . S
O56 C51 1.246 1_556 S
O57 Zn49 2.024 . S
O57 C51 1.249 . S
H58 C40 0.948 . S
O59 Zn49 2.039 . S
O59 C63 1.251 . S
O60 Zn41 2.025 . S
O60 C63 1.254 1_556 S
O61 C42 1.246 . S
O61 Zn49 2.034 . S
O62 Zn41 2.024 . S
O62 C42 1.249 1_556 S
C63 O59 1.251 . S
C63 O60 1.254 1_554 S
H64 C37 0.949 . S
H65 C39 0.950 . S
H66 C46 0.949 . S
H67 C48 0.950 . S
C68 O84 1.251 . S
C68 O86 1.254 1_554 S
N69 C70 1.333 . S
N69 C74 1.307 . S
N69 Zn75 2.020 . S
C70 N69 1.333 . S
C70 C71 1.379 . S
C70 H88 0.952 . S
C71 C70 1.379 . S
C71 C72 1.390 . S
C71 H98 0.949 . S
C72 C71 1.390 . S
C72 C73 1.357 . S
C73 C72 1.357 . S
C73 C74 1.370 . S
C73 H99 0.950 . S
C74 N69 1.307 . S
C74 C73 1.370 . S
C74 H92 0.948 . S
Zn75 N69 2.020 . S
Zn75 O84 2.039 . S
Zn75 O90 2.034 . S
Zn75 O94 2.025 . S
Zn75 O96 2.024 . S
C76 O95 1.246 1_554 S
C76 O96 1.249 . S
N77 C78 1.307 . S
N77 C79 1.333 . S
N77 Zn83 2.020 . S
C78 N77 1.307 . S
C78 C82 1.370 . S
C78 H89 0.948 . S
C79 N77 1.333 . S
C79 C80 1.379 . S
C79 H87 0.952 . S
C80 C79 1.379 . S
C80 C81 1.390 . S
C80 H100 0.949 . S
C81 C80 1.390 . S
C81 C82 1.357 . S
C82 C78 1.370 . S
C82 C81 1.357 . S
C82 H101 0.950 . S
Zn83 N77 2.020 . S
Zn83 O86 2.025 . S
Zn83 O91 2.024 . S
Zn83 O93 2.039 . S
Zn83 O95 2.034 . S
O84 C68 1.251 . S
O84 Zn75 2.039 . S
C85 O90 1.246 . S
C85 O91 1.249 1_554 S
O86 C68 1.254 1_556 S
O86 Zn83 2.025 . S
H87 C79 0.952 . S
H88 C70 0.952 . S
H89 C78 0.948 . S
O90 Zn75 2.034 . S
O90 C85 1.246 . S
O91 Zn83 2.024 . S
O91 C85 1.249 1_556 S
H92 C74 0.948 . S
O93 Zn83 2.039 . S
O93 C97 1.251 1_556 S
O94 Zn75 2.025 . S
O94 C97 1.254 . S
O95 C76 1.246 1_556 S
O95 Zn83 2.034 . S
O96 Zn75 2.024 . S
O96 C76 1.249 . S
C97 O93 1.251 1_554 S
C97 O94 1.254 . S
H98 C71 0.949 . S
H99 C73 0.950 . S
H100 C80 0.949 . S
H101 C82 0.950 . S
C102 O118 1.251 1_554 S
C102 O120 1.254 . S
N103 C104 1.333 . S
N103 C108 1.307 . S
N103 Zn109 2.020 . S
C104 N103 1.333 . S
C104 C105 1.379 . S
C104 H122 0.952 . S
C105 C104 1.379 . S
C105 C106 1.390 . S
C105 H132 0.949 . S
C106 C105 1.390 . S
C106 C107 1.357 . S
C107 C106 1.357 . S
C107 C108 1.370 . S
C107 H133 0.950 . S
C108 N103 1.307 . S
C108 C107 1.370 . S
C108 H126 0.948 . S
Zn109 N103 2.020 . S
Zn109 O118 2.039 . S
Zn109 O124 2.034 . S
Zn109 O128 2.025 . S
Zn109 O130 2.024 . S
C110 O129 1.246 . S
C110 O130 1.249 1_554 S
N111 C112 1.307 . S
N111 C113 1.333 . S
N111 Zn117 2.020 . S
C112 N111 1.307 . S
C112 C116 1.370 . S
C112 H123 0.948 . S
C113 N111 1.333 . S
C113 C114 1.379 . S
C113 H121 0.952 . S
C114 C113 1.379 . S
C114 C115 1.390 . S
C114 H134 0.949 . S
C115 C114 1.390 . S
C115 C116 1.357 . S
C116 C112 1.370 . S
C116 C115 1.357 . S
C116 H135 0.950 . S
Zn117 N111 2.020 . S
Zn117 O120 2.025 . S
Zn117 O125 2.024 . S
Zn117 O127 2.039 . S
Zn117 O129 2.034 . S
O118 C102 1.251 1_556 S
O118 Zn109 2.039 . S
C119 O124 1.246 1_554 S
C119 O125 1.249 . S
O120 C102 1.254 . S
O120 Zn117 2.025 . S
H121 C113 0.952 . S
H122 C104 0.952 . S
H123 C112 0.948 . S
O124 Zn109 2.034 . S
O124 C119 1.246 1_556 S
O125 Zn117 2.024 . S
O125 C119 1.249 . S
H126 C108 0.948 . S
O127 Zn117 2.039 . S
O127 C131 1.251 . S
O128 Zn109 2.025 . S
O128 C131 1.254 1_556 S
O129 C110 1.246 . S
O129 Zn117 2.034 . S
O130 Zn109 2.024 . S
O130 C110 1.249 1_556 S
C131 O127 1.251 . S
C131 O128 1.254 1_554 S
H132 C105 0.949 . S
H133 C107 0.950 . S
H134 C114 0.949 . S
H135 C116 0.950 . S
C136 O152 1.251 1_554 S
C136 O154 1.254 . S
N137 C138 1.333 . S
N137 C142 1.307 . S
N137 Zn143 2.020 . S
C138 N137 1.333 . S
C138 C139 1.379 . S
C138 H156 0.952 . S
C139 C138 1.379 . S
C139 C140 1.390 . S
C139 H166 0.949 . S
C140 C139 1.390 . S
C140 C141 1.357 . S
C141 C140 1.357 . S
C141 C142 1.370 . S
C141 H167 0.950 . S
C142 N137 1.307 . S
C142 C141 1.370 . S
C142 H160 0.948 . S
Zn143 N137 2.020 . S
Zn143 O152 2.039 . S
Zn143 O158 2.034 . S
Zn143 O162 2.025 . S
Zn143 O164 2.024 . S
C144 O163 1.246 . S
C144 O164 1.249 1_554 S
N145 C146 1.307 . S
N145 C147 1.333 . S
N145 Zn151 2.020 . S
C146 N145 1.307 . S
C146 C150 1.370 . S
C146 H157 0.948 . S
C147 N145 1.333 . S
C147 C148 1.379 . S
C147 H155 0.952 . S
C148 C147 1.379 . S
C148 C149 1.390 . S
C148 H168 0.949 . S
C149 C148 1.390 . S
C149 C150 1.357 . S
C150 C146 1.370 . S
C150 C149 1.357 . S
C150 H169 0.950 . S
Zn151 N145 2.020 . S
Zn151 O154 2.025 . S
Zn151 O159 2.024 . S
Zn151 O161 2.039 . S
Zn151 O163 2.034 . S
O152 C136 1.251 1_556 S
O152 Zn143 2.039 . S
C153 O158 1.246 1_554 S
C153 O159 1.249 . S
O154 C136 1.254 . S
O154 Zn151 2.025 . S
H155 C147 0.952 . S
H156 C138 0.952 . S
H157 C146 0.948 . S
O158 Zn143 2.034 . S
O158 C153 1.246 1_556 S
O159 Zn151 2.024 . S
O159 C153 1.249 . S
H160 C142 0.948 . S
O161 Zn151 2.039 . S
O161 C165 1.251 . S
O162 Zn143 2.025 . S
O162 C165 1.254 1_556 S
O163 C144 1.246 . S
O163 Zn151 2.034 . S
O164 Zn143 2.024 . S
O164 C144 1.249 1_556 S
C165 O161 1.251 . S
C165 O162 1.254 1_554 S
H166 C139 0.949 . S
H167 C141 0.950 . S
H168 C148 0.949 . S
H169 C150 0.950 . S
C170 O186 1.251 . S
C170 O188 1.254 1_554 S
N171 C172 1.333 . S
N171 C176 1.307 . S
N171 Zn177 2.020 . S
C172 N171 1.333 . S
C172 C173 1.379 . S
C172 H190 0.952 . S
C173 C172 1.379 . S
C173 C174 1.390 . S
C173 H200 0.949 . S
C174 C173 1.390 . S
C174 C175 1.357 . S
C175 C174 1.357 . S
C175 C176 1.370 . S
C175 H201 0.950 . S
C176 N171 1.307 . S
C176 C175 1.370 . S
C176 H194 0.948 . S
Zn177 N171 2.020 . S
Zn177 O186 2.039 . S
Zn177 O192 2.034 . S
Zn177 O196 2.025 . S
Zn177 O198 2.024 . S
C178 O197 1.246 1_554 S
C178 O198 1.249 . S
N179 C180 1.307 . S
N179 C181 1.333 . S
N179 Zn185 2.020 . S
C180 N179 1.307 . S
C180 C184 1.370 . S
C180 H191 0.948 . S
C181 N179 1.333 . S
C181 C182 1.379 . S
C181 H189 0.952 . S
C182 C181 1.379 . S
C182 C183 1.390 . S
C182 H202 0.949 . S
C183 C182 1.390 . S
C183 C184 1.357 . S
C184 C180 1.370 . S
C184 C183 1.357 . S
C184 H203 0.950 . S
Zn185 N179 2.020 . S
Zn185 O188 2.025 . S
Zn185 O193 2.024 . S
Zn185 O195 2.039 . S
Zn185 O197 2.034 . S
O186 C170 1.251 . S
O186 Zn177 2.039 . S
C187 O192 1.246 . S
C187 O193 1.249 1_554 S
O188 C170 1.254 1_556 S
O188 Zn185 2.025 . S
H189 C181 0.952 . S
H190 C172 0.952 . S
H191 C180 0.948 . S
O192 Zn177 2.034 . S
O192 C187 1.246 . S
O193 Zn185 2.024 . S
O193 C187 1.249 1_556 S
H194 C176 0.948 . S
O195 Zn185 2.039 . S
O195 C199 1.251 1_556 S
O196 Zn177 2.025 . S
O196 C199 1.254 . S
O197 C178 1.246 1_556 S
O197 Zn185 2.034 . S
O198 Zn177 2.024 . S
O198 C178 1.249 . S
C199 O195 1.251 1_554 S
C199 O196 1.254 . S
H200 C173 0.949 . S
H201 C175 0.950 . S
H202 C182 0.949 . S
H203 C184 0.950 . S
C170 C8 1.500 . S
C0 C34 1.513 1_455 S
C42 C76 1.455 1_545 S
C102 C68 1.515 . S
C165 C110 1.503 1_455 S
C153 C178 1.470 1_565 S
C144 C17 1.570 . S
C199 C63 1.545 . S
C85 C29 1.547 . S
C131 C51 1.551 . S
C136 C97 1.544 . S
C119 C187 1.569 . S
C13 C4 1.507 . S
C38 C47 1.504 . S
C81 C72 1.517 . S
C106 C115 1.549 . S
C149 C140 1.493 . S
C183 C174 1.530 . S
