# Generated by pormake.
# Topology tzs, (4)-cn, num edge types: 1
# Building blocks:
#     Node 0, Type 0, BuildingBlock: NAHDIM_clean_sbu_0, # of connection points: 4
#     Node 1, Type 0, BuildingBlock: NAHDIM_clean_sbu_0, # of connection points: 4
#     Node 2, Type 0, BuildingBlock: NAHDIM_clean_sbu_0, # of connection points: 4
#     Node 3, Type 0, BuildingBlock: NAHDIM_clean_sbu_0, # of connection points: 4
#     Node 4, Type 0, BuildingBlock: NAHDIM_clean_sbu_0, # of connection points: 4
#     Node 5, Type 0, BuildingBlock: NAHDIM_clean_sbu_0, # of connection points: 4
#     Node 6, Type 0, BuildingBlock: NAHDIM_clean_sbu_0, # of connection points: 4
#     Node 7, Type 0, BuildingBlock: NAHDIM_clean_sbu_0, # of connection points: 4
#     Node 8, Type 0, BuildingBlock: NAHDIM_clean_sbu_0, # of connection points: 4
#     Node 9, Type 0, BuildingBlock: NAHDIM_clean_sbu_0, # of connection points: 4
#     Node 10, Type 0, BuildingBlock: NAHDIM_clean_sbu_0, # of connection points: 4
#     Node 11, Type 0, BuildingBlock: NAHDIM_clean_sbu_0, # of connection points: 4
#     Node 12, Type 0, BuildingBlock: NAHDIM_clean_sbu_0, # of connection points: 4
#     Node 13, Type 0, BuildingBlock: NAHDIM_clean_sbu_0, # of connection points: 4
#     Node 14, Type 0, BuildingBlock: NAHDIM_clean_sbu_0, # of connection points: 4
#     Node 15, Type 0, BuildingBlock: NAHDIM_clean_sbu_0, # of connection points: 4
#     Edge 16, Type (0, 0), None
#     Edge 17, Type (0, 0), None
#     Edge 18, Type (0, 0), None
#     Edge 19, Type (0, 0), None
#     Edge 20, Type (0, 0), None
#     Edge 21, Type (0, 0), None
#     Edge 22, Type (0, 0), None
#     Edge 23, Type (0, 0), None
#     Edge 24, Type (0, 0), None
#     Edge 25, Type (0, 0), None
#     Edge 26, Type (0, 0), None
#     Edge 27, Type (0, 0), None
#     Edge 28, Type (0, 0), None
#     Edge 29, Type (0, 0), None
#     Edge 30, Type (0, 0), None
#     Edge 31, Type (0, 0), None
#     Edge 32, Type (0, 0), None
#     Edge 33, Type (0, 0), None
#     Edge 34, Type (0, 0), None
#     Edge 35, Type (0, 0), None
#     Edge 36, Type (0, 0), None
#     Edge 37, Type (0, 0), None
#     Edge 38, Type (0, 0), None
#     Edge 39, Type (0, 0), None
#     Edge 40, Type (0, 0), None
#     Edge 41, Type (0, 0), None
#     Edge 42, Type (0, 0), None
#     Edge 43, Type (0, 0), None
#     Edge 44, Type (0, 0), None
#     Edge 45, Type (0, 0), None
#     Edge 46, Type (0, 0), None
#     Edge 47, Type (0, 0), None
# Relax obj value: 0.068
# Max RMSD: 0.087
# Mean RMSD: 0.087
data_MOF--net-tzs--node1-NAHDIM_clean_sbu_0--edge1-none
_symmetry_space_group_name_H-M    P1
_symmetry_Int_Tables_number       1
_symmetry_cell_setting            triclinic
loop_
_symmetry_equiv_pos_as_xyz
'x, y, z'
_cell_length_a     22.767851
_cell_length_b     22.767851
_cell_length_c     17.247079
_cell_angle_alpha  90.000019
_cell_angle_beta   90.000019
_cell_angle_gamma 90.000004
loop_
_atom_site_label
_atom_site_type_symbol
_atom_site_fract_x
_atom_site_fract_y
_atom_site_fract_z
_atom_type_partial_charge
C0 C 0.24671 0.2902 0.23999 0.0
O1 O 0.26397 0.34389 0.2241 0.0
O2 O 0.16737 0.41816 0.25767 0.0
Zn3 Zn 0.14003 0.34403 0.20089 0.0
O4 O 0.14365 0.35025 0.08316 0.0
C5 C 0.0256 0.37721 0.24375 0.0
O6 O 0.05218 0.42808 0.23819 0.0
O7 O 0.19259 0.27726 0.23434 0.0
C8 C 0.10654 0.38032 0.04489 0.0
O9 O 0.06676 0.41123 0.08169 0.0
C10 C 0.17797 0.46799 0.22748 0.0
O11 O 0.17606 0.47396 0.15181 0.0
O12 O 0.05457 0.33032 0.23166 0.0
C13 C 0.69816 0.24671 0.23999 0.0
O14 O 0.64448 0.26397 0.2241 0.0
O15 O 0.57021 0.16737 0.25767 0.0
Zn16 Zn 0.64434 0.14003 0.20089 0.0
O17 O 0.63812 0.14365 0.08316 0.0
C18 C 0.61116 0.0256 0.24375 0.0
O19 O 0.56029 0.05219 0.23819 0.0
O20 O 0.71111 0.19259 0.23434 0.0
C21 C 0.60805 0.10654 0.04489 0.0
O22 O 0.57714 0.06676 0.08169 0.0
C23 C 0.52038 0.17797 0.22748 0.0
O24 O 0.51441 0.17606 0.15181 0.0
O25 O 0.65805 0.05457 0.23166 0.0
C26 C 0.74165 0.69816 0.23999 0.0
O27 O 0.7244 0.64448 0.2241 0.0
O28 O 0.821 0.57021 0.25767 0.0
Zn29 Zn 0.84834 0.64434 0.20089 0.0
O30 O 0.84472 0.63812 0.08316 0.0
C31 C 0.96277 0.61116 0.24375 0.0
O32 O 0.93618 0.56029 0.23819 0.0
O33 O 0.79578 0.71111 0.23434 0.0
C34 C 0.88183 0.60805 0.04489 0.0
O35 O 0.92161 0.57714 0.08169 0.0
C36 C 0.8104 0.52038 0.22748 0.0
O37 O 0.81231 0.51441 0.15181 0.0
O38 O 0.9338 0.65805 0.23166 0.0
C39 C 0.2902 0.74165 0.23999 0.0
O40 O 0.34389 0.7244 0.2241 0.0
O41 O 0.41815 0.821 0.25767 0.0
Zn42 Zn 0.34403 0.84834 0.20089 0.0
O43 O 0.35025 0.84472 0.08316 0.0
C44 C 0.37721 0.96277 0.24375 0.0
O45 O 0.42808 0.93618 0.23819 0.0
O46 O 0.27726 0.79578 0.23434 0.0
C47 C 0.38032 0.88183 0.04489 0.0
O48 O 0.41123 0.92161 0.08169 0.0
C49 C 0.46799 0.8104 0.22748 0.0
O50 O 0.47396 0.81231 0.15181 0.0
O51 O 0.33032 0.9338 0.23166 0.0
C52 C 0.24671 0.69816 0.26487 0.0
O53 O 0.26397 0.64448 0.28076 0.0
O54 O 0.16737 0.57021 0.24721 0.0
Zn55 Zn 0.14003 0.64434 0.30398 0.0
O56 O 0.14365 0.63812 0.42171 0.0
C57 C 0.0256 0.61116 0.26112 0.0
O58 O 0.05219 0.56029 0.26668 0.0
O59 O 0.19259 0.71111 0.27052 0.0
C60 C 0.10654 0.60805 0.45997 0.0
O61 O 0.06677 0.57713 0.42318 0.0
C62 C 0.17798 0.52039 0.2774 0.0
O63 O 0.17607 0.5144 0.35306 0.0
O64 O 0.05457 0.65805 0.27321 0.0
C65 C 0.2902 0.24671 0.26487 0.0
O66 O 0.34389 0.26397 0.28076 0.0
O67 O 0.41816 0.16737 0.24721 0.0
Zn68 Zn 0.34402 0.14003 0.30398 0.0
O69 O 0.35024 0.14365 0.42171 0.0
C70 C 0.37721 0.0256 0.26112 0.0
O71 O 0.42808 0.05219 0.26668 0.0
O72 O 0.27725 0.19259 0.27052 0.0
C73 C 0.38032 0.10654 0.45997 0.0
O74 O 0.41123 0.06677 0.42318 0.0
C75 C 0.46798 0.17798 0.2774 0.0
O76 O 0.47397 0.17607 0.35306 0.0
O77 O 0.33032 0.05457 0.27321 0.0
C78 C 0.74165 0.2902 0.26487 0.0
O79 O 0.7244 0.34389 0.28076 0.0
O80 O 0.821 0.41816 0.24721 0.0
Zn81 Zn 0.84834 0.34402 0.30398 0.0
O82 O 0.84472 0.35024 0.42171 0.0
C83 C 0.96277 0.37721 0.26112 0.0
O84 O 0.93618 0.42808 0.26668 0.0
O85 O 0.79578 0.27726 0.27052 0.0
C86 C 0.88183 0.38032 0.45997 0.0
O87 O 0.9216 0.41123 0.42318 0.0
C88 C 0.81039 0.46798 0.2774 0.0
O89 O 0.8123 0.47397 0.35306 0.0
O90 O 0.9338 0.33032 0.27321 0.0
C91 C 0.69816 0.74165 0.26487 0.0
O92 O 0.64448 0.7244 0.28076 0.0
O93 O 0.57021 0.821 0.24721 0.0
Zn94 Zn 0.64434 0.84834 0.30398 0.0
O95 O 0.63812 0.84472 0.42171 0.0
C96 C 0.61116 0.96277 0.26112 0.0
O97 O 0.56029 0.93618 0.26668 0.0
O98 O 0.71111 0.79578 0.27052 0.0
C99 C 0.60805 0.88183 0.45997 0.0
O100 O 0.57713 0.9216 0.42318 0.0
C101 C 0.52038 0.81039 0.2774 0.0
O102 O 0.5144 0.8123 0.35306 0.0
O103 O 0.65805 0.9338 0.27321 0.0
C104 C 0.7902 0.74671 0.76488 0.0
O105 O 0.84389 0.76397 0.78077 0.0
O106 O 0.91816 0.66737 0.7472 0.0
Zn107 Zn 0.84403 0.64003 0.80398 0.0
O108 O 0.85025 0.64365 0.92171 0.0
C109 C 0.87721 0.5256 0.76111 0.0
O110 O 0.92808 0.55219 0.76668 0.0
O111 O 0.77726 0.69259 0.77052 0.0
C112 C 0.88032 0.60654 0.95997 0.0
O113 O 0.91123 0.56676 0.92318 0.0
C114 C 0.96799 0.67797 0.77738 0.0
O115 O 0.97396 0.67606 0.85305 0.0
O116 O 0.83032 0.55457 0.77321 0.0
C117 C 0.24165 0.7902 0.76488 0.0
O118 O 0.2244 0.84389 0.78077 0.0
O119 O 0.321 0.91816 0.7472 0.0
Zn120 Zn 0.34834 0.84403 0.80398 0.0
O121 O 0.34472 0.85025 0.92171 0.0
C122 C 0.46277 0.87721 0.76111 0.0
O123 O 0.43618 0.92808 0.76668 0.0
O124 O 0.29578 0.77726 0.77052 0.0
C125 C 0.38183 0.88032 0.95997 0.0
O126 O 0.42161 0.91123 0.92318 0.0
C127 C 0.3104 0.96799 0.77738 0.0
O128 O 0.31231 0.97396 0.85305 0.0
O129 O 0.4338 0.83032 0.77321 0.0
C130 C 0.19816 0.24165 0.76488 0.0
O131 O 0.14448 0.2244 0.78077 0.0
O132 O 0.07021 0.321 0.7472 0.0
Zn133 Zn 0.14434 0.34834 0.80398 0.0
O134 O 0.13812 0.34472 0.92171 0.0
C135 C 0.11116 0.46277 0.76111 0.0
O136 O 0.06029 0.43618 0.76668 0.0
O137 O 0.21111 0.29578 0.77052 0.0
C138 C 0.10805 0.38183 0.95997 0.0
O139 O 0.07714 0.42161 0.92318 0.0
C140 C 0.02038 0.3104 0.77738 0.0
O141 O 0.01441 0.31231 0.85305 0.0
O142 O 0.15805 0.4338 0.77321 0.0
C143 C 0.74671 0.19816 0.76488 0.0
O144 O 0.76397 0.14448 0.78077 0.0
O145 O 0.66737 0.07021 0.7472 0.0
Zn146 Zn 0.64003 0.14434 0.80398 0.0
O147 O 0.64365 0.13812 0.92171 0.0
C148 C 0.5256 0.11116 0.76111 0.0
O149 O 0.55218 0.06029 0.76668 0.0
O150 O 0.69259 0.21111 0.77052 0.0
C151 C 0.60654 0.10805 0.95997 0.0
O152 O 0.56676 0.07714 0.92318 0.0
C153 C 0.67797 0.02038 0.77738 0.0
O154 O 0.67606 0.01441 0.85305 0.0
O155 O 0.55457 0.15805 0.77321 0.0
C156 C 0.7902 0.24165 0.74 0.0
O157 O 0.84389 0.2244 0.72411 0.0
O158 O 0.91816 0.321 0.75766 0.0
Zn159 Zn 0.84402 0.34834 0.70089 0.0
O160 O 0.85024 0.34472 0.58316 0.0
C161 C 0.87721 0.46277 0.74375 0.0
O162 O 0.92808 0.43618 0.73819 0.0
O163 O 0.77725 0.29578 0.73435 0.0
C164 C 0.88032 0.38183 0.54489 0.0
O165 O 0.91123 0.4216 0.58169 0.0
C166 C 0.96798 0.31039 0.72747 0.0
O167 O 0.97397 0.3123 0.6518 0.0
O168 O 0.83032 0.4338 0.73166 0.0
C169 C 0.74671 0.7902 0.74 0.0
O170 O 0.76397 0.84389 0.72411 0.0
O171 O 0.66737 0.91816 0.75766 0.0
Zn172 Zn 0.64003 0.84402 0.70089 0.0
O173 O 0.64365 0.85024 0.58316 0.0
C174 C 0.5256 0.87721 0.74375 0.0
O175 O 0.55219 0.92808 0.73819 0.0
O176 O 0.69259 0.77726 0.73435 0.0
C177 C 0.60654 0.88032 0.54489 0.0
O178 O 0.56677 0.91123 0.58169 0.0
C179 C 0.67798 0.96798 0.72747 0.0
O180 O 0.67607 0.97397 0.6518 0.0
O181 O 0.55457 0.83032 0.73166 0.0
C182 C 0.19816 0.74671 0.74 0.0
O183 O 0.14448 0.76397 0.72411 0.0
O184 O 0.07021 0.66737 0.75766 0.0
Zn185 Zn 0.14434 0.64003 0.70089 0.0
O186 O 0.13812 0.64365 0.58316 0.0
C187 C 0.11116 0.5256 0.74375 0.0
O188 O 0.06029 0.55219 0.73819 0.0
O189 O 0.21111 0.69259 0.73435 0.0
C190 C 0.10805 0.60654 0.54489 0.0
O191 O 0.07714 0.56677 0.58169 0.0
C192 C 0.02038 0.67798 0.72747 0.0
O193 O 0.0144 0.67607 0.6518 0.0
O194 O 0.15805 0.55457 0.73166 0.0
C195 C 0.24165 0.19816 0.74 0.0
O196 O 0.2244 0.14448 0.72411 0.0
O197 O 0.321 0.07021 0.75766 0.0
Zn198 Zn 0.34834 0.14434 0.70089 0.0
O199 O 0.34472 0.13812 0.58316 0.0
C200 C 0.46277 0.11116 0.74375 0.0
O201 O 0.43618 0.06029 0.73819 0.0
O202 O 0.29578 0.21111 0.73435 0.0
C203 C 0.38183 0.10805 0.54489 0.0
O204 O 0.4216 0.07714 0.58169 0.0
C205 C 0.31039 0.02039 0.72747 0.0
O206 O 0.3123 0.0144 0.6518 0.0
O207 O 0.4338 0.15805 0.73166 0.0
loop_
_geom_bond_atom_site_label_1
_geom_bond_atom_site_label_2
_geom_bond_distance
_geom_bond_site_symmetry_2
_ccdc_geom_bond_type
C0 O1 1.160 . S
C0 O7 1.185 . S
O1 C0 1.160 . S
O2 Zn3 1.899 . S
O2 C10 1.284 . S
Zn3 O2 1.899 . S
Zn3 O4 2.032 . S
Zn3 O7 2.086 . S
Zn3 O12 1.977 . S
O4 Zn3 2.032 . S
O4 C8 1.278 . S
C5 O6 1.203 . S
C5 O12 1.267 . S
O6 C5 1.203 . S
O7 C0 1.185 . S
O7 Zn3 2.086 . S
C8 O4 1.278 . S
C8 O9 1.211 . S
O9 C8 1.211 . S
C10 O2 1.284 . S
C10 O11 1.273 . S
O11 C10 1.273 . S
O12 Zn3 1.977 . S
O12 C5 1.267 . S
C13 O14 1.160 . S
C13 O20 1.185 . S
O14 C13 1.160 . S
O15 Zn16 1.899 . S
O15 C23 1.284 . S
Zn16 O15 1.899 . S
Zn16 O17 2.032 . S
Zn16 O20 2.086 . S
Zn16 O25 1.977 . S
O17 Zn16 2.032 . S
O17 C21 1.278 . S
C18 O19 1.203 . S
C18 O25 1.267 . S
O19 C18 1.203 . S
O20 C13 1.185 . S
O20 Zn16 2.086 . S
C21 O17 1.278 . S
C21 O22 1.211 . S
O22 C21 1.211 . S
C23 O15 1.284 . S
C23 O24 1.273 . S
O24 C23 1.273 . S
O25 Zn16 1.977 . S
O25 C18 1.267 . S
C26 O27 1.160 . S
C26 O33 1.185 . S
O27 C26 1.160 . S
O28 Zn29 1.899 . S
O28 C36 1.284 . S
Zn29 O28 1.899 . S
Zn29 O30 2.032 . S
Zn29 O33 2.086 . S
Zn29 O38 1.977 . S
O30 Zn29 2.032 . S
O30 C34 1.278 . S
C31 O32 1.203 . S
C31 O38 1.267 . S
O32 C31 1.203 . S
O33 C26 1.185 . S
O33 Zn29 2.086 . S
C34 O30 1.278 . S
C34 O35 1.211 . S
O35 C34 1.211 . S
C36 O28 1.284 . S
C36 O37 1.273 . S
O37 C36 1.273 . S
O38 Zn29 1.977 . S
O38 C31 1.267 . S
C39 O40 1.160 . S
C39 O46 1.185 . S
O40 C39 1.160 . S
O41 Zn42 1.899 . S
O41 C49 1.284 . S
Zn42 O41 1.899 . S
Zn42 O43 2.032 . S
Zn42 O46 2.086 . S
Zn42 O51 1.977 . S
O43 Zn42 2.032 . S
O43 C47 1.278 . S
C44 O45 1.203 . S
C44 O51 1.267 . S
O45 C44 1.203 . S
O46 C39 1.185 . S
O46 Zn42 2.086 . S
C47 O43 1.278 . S
C47 O48 1.211 . S
O48 C47 1.211 . S
C49 O41 1.284 . S
C49 O50 1.273 . S
O50 C49 1.273 . S
O51 Zn42 1.977 . S
O51 C44 1.267 . S
C52 O53 1.160 . S
C52 O59 1.185 . S
O53 C52 1.160 . S
O54 Zn55 1.899 . S
O54 C62 1.284 . S
Zn55 O54 1.899 . S
Zn55 O56 2.032 . S
Zn55 O59 2.086 . S
Zn55 O64 1.977 . S
O56 Zn55 2.032 . S
O56 C60 1.278 . S
C57 O58 1.203 . S
C57 O64 1.267 . S
O58 C57 1.203 . S
O59 C52 1.185 . S
O59 Zn55 2.086 . S
C60 O56 1.278 . S
C60 O61 1.211 . S
O61 C60 1.211 . S
C62 O54 1.284 . S
C62 O63 1.273 . S
O63 C62 1.273 . S
O64 Zn55 1.977 . S
O64 C57 1.267 . S
C65 O66 1.160 . S
C65 O72 1.185 . S
O66 C65 1.160 . S
O67 Zn68 1.899 . S
O67 C75 1.284 . S
Zn68 O67 1.899 . S
Zn68 O69 2.032 . S
Zn68 O72 2.086 . S
Zn68 O77 1.977 . S
O69 Zn68 2.032 . S
O69 C73 1.278 . S
C70 O71 1.203 . S
C70 O77 1.267 . S
O71 C70 1.203 . S
O72 C65 1.185 . S
O72 Zn68 2.086 . S
C73 O69 1.278 . S
C73 O74 1.211 . S
O74 C73 1.211 . S
C75 O67 1.284 . S
C75 O76 1.273 . S
O76 C75 1.273 . S
O77 Zn68 1.977 . S
O77 C70 1.267 . S
C78 O79 1.160 . S
C78 O85 1.185 . S
O79 C78 1.160 . S
O80 Zn81 1.899 . S
O80 C88 1.284 . S
Zn81 O80 1.899 . S
Zn81 O82 2.032 . S
Zn81 O85 2.086 . S
Zn81 O90 1.977 . S
O82 Zn81 2.032 . S
O82 C86 1.278 . S
C83 O84 1.203 . S
C83 O90 1.267 . S
O84 C83 1.203 . S
O85 C78 1.185 . S
O85 Zn81 2.086 . S
C86 O82 1.278 . S
C86 O87 1.211 . S
O87 C86 1.211 . S
C88 O80 1.284 . S
C88 O89 1.273 . S
O89 C88 1.273 . S
O90 Zn81 1.977 . S
O90 C83 1.267 . S
C91 O92 1.160 . S
C91 O98 1.185 . S
O92 C91 1.160 . S
O93 Zn94 1.899 . S
O93 C101 1.284 . S
Zn94 O93 1.899 . S
Zn94 O95 2.032 . S
Zn94 O98 2.086 . S
Zn94 O103 1.977 . S
O95 Zn94 2.032 . S
O95 C99 1.278 . S
C96 O97 1.203 . S
C96 O103 1.267 . S
O97 C96 1.203 . S
O98 C91 1.185 . S
O98 Zn94 2.086 . S
C99 O95 1.278 . S
C99 O100 1.211 . S
O100 C99 1.211 . S
C101 O93 1.284 . S
C101 O102 1.273 . S
O102 C101 1.273 . S
O103 Zn94 1.977 . S
O103 C96 1.267 . S
C104 O105 1.160 . S
C104 O111 1.185 . S
O105 C104 1.160 . S
O106 Zn107 1.899 . S
O106 C114 1.284 . S
Zn107 O106 1.899 . S
Zn107 O108 2.032 . S
Zn107 O111 2.086 . S
Zn107 O116 1.977 . S
O108 Zn107 2.032 . S
O108 C112 1.278 . S
C109 O110 1.203 . S
C109 O116 1.267 . S
O110 C109 1.203 . S
O111 C104 1.185 . S
O111 Zn107 2.086 . S
C112 O108 1.278 . S
C112 O113 1.211 . S
O113 C112 1.211 . S
C114 O106 1.284 . S
C114 O115 1.273 . S
O115 C114 1.273 . S
O116 Zn107 1.977 . S
O116 C109 1.267 . S
C117 O118 1.160 . S
C117 O124 1.185 . S
O118 C117 1.160 . S
O119 Zn120 1.899 . S
O119 C127 1.284 . S
Zn120 O119 1.899 . S
Zn120 O121 2.032 . S
Zn120 O124 2.086 . S
Zn120 O129 1.977 . S
O121 Zn120 2.032 . S
O121 C125 1.278 . S
C122 O123 1.203 . S
C122 O129 1.267 . S
O123 C122 1.203 . S
O124 C117 1.185 . S
O124 Zn120 2.086 . S
C125 O121 1.278 . S
C125 O126 1.211 . S
O126 C125 1.211 . S
C127 O119 1.284 . S
C127 O128 1.273 . S
O128 C127 1.273 . S
O129 Zn120 1.977 . S
O129 C122 1.267 . S
C130 O131 1.160 . S
C130 O137 1.185 . S
O131 C130 1.160 . S
O132 Zn133 1.899 . S
O132 C140 1.284 . S
Zn133 O132 1.899 . S
Zn133 O134 2.032 . S
Zn133 O137 2.086 . S
Zn133 O142 1.977 . S
O134 Zn133 2.032 . S
O134 C138 1.278 . S
C135 O136 1.203 . S
C135 O142 1.267 . S
O136 C135 1.203 . S
O137 C130 1.185 . S
O137 Zn133 2.086 . S
C138 O134 1.278 . S
C138 O139 1.211 . S
O139 C138 1.211 . S
C140 O132 1.284 . S
C140 O141 1.273 . S
O141 C140 1.273 . S
O142 Zn133 1.977 . S
O142 C135 1.267 . S
C143 O144 1.160 . S
C143 O150 1.185 . S
O144 C143 1.160 . S
O145 Zn146 1.899 . S
O145 C153 1.284 . S
Zn146 O145 1.899 . S
Zn146 O147 2.032 . S
Zn146 O150 2.086 . S
Zn146 O155 1.977 . S
O147 Zn146 2.032 . S
O147 C151 1.278 . S
C148 O149 1.203 . S
C148 O155 1.267 . S
O149 C148 1.203 . S
O150 C143 1.185 . S
O150 Zn146 2.086 . S
C151 O147 1.278 . S
C151 O152 1.211 . S
O152 C151 1.211 . S
C153 O145 1.284 . S
C153 O154 1.273 . S
O154 C153 1.273 . S
O155 Zn146 1.977 . S
O155 C148 1.267 . S
C156 O157 1.160 . S
C156 O163 1.185 . S
O157 C156 1.160 . S
O158 Zn159 1.899 . S
O158 C166 1.284 . S
Zn159 O158 1.899 . S
Zn159 O160 2.032 . S
Zn159 O163 2.086 . S
Zn159 O168 1.977 . S
O160 Zn159 2.032 . S
O160 C164 1.278 . S
C161 O162 1.203 . S
C161 O168 1.267 . S
O162 C161 1.203 . S
O163 C156 1.185 . S
O163 Zn159 2.086 . S
C164 O160 1.278 . S
C164 O165 1.211 . S
O165 C164 1.211 . S
C166 O158 1.284 . S
C166 O167 1.273 . S
O167 C166 1.273 . S
O168 Zn159 1.977 . S
O168 C161 1.267 . S
C169 O170 1.160 . S
C169 O176 1.185 . S
O170 C169 1.160 . S
O171 Zn172 1.899 . S
O171 C179 1.284 . S
Zn172 O171 1.899 . S
Zn172 O173 2.032 . S
Zn172 O176 2.086 . S
Zn172 O181 1.977 . S
O173 Zn172 2.032 . S
O173 C177 1.278 . S
C174 O175 1.203 . S
C174 O181 1.267 . S
O175 C174 1.203 . S
O176 C169 1.185 . S
O176 Zn172 2.086 . S
C177 O173 1.278 . S
C177 O178 1.211 . S
O178 C177 1.211 . S
C179 O171 1.284 . S
C179 O180 1.273 . S
O180 C179 1.273 . S
O181 Zn172 1.977 . S
O181 C174 1.267 . S
C182 O183 1.160 . S
C182 O189 1.185 . S
O183 C182 1.160 . S
O184 Zn185 1.899 . S
O184 C192 1.284 . S
Zn185 O184 1.899 . S
Zn185 O186 2.032 . S
Zn185 O189 2.086 . S
Zn185 O194 1.977 . S
O186 Zn185 2.032 . S
O186 C190 1.278 . S
C187 O188 1.203 . S
C187 O194 1.267 . S
O188 C187 1.203 . S
O189 C182 1.185 . S
O189 Zn185 2.086 . S
C190 O186 1.278 . S
C190 O191 1.211 . S
O191 C190 1.211 . S
C192 O184 1.284 . S
C192 O193 1.273 . S
O193 C192 1.273 . S
O194 Zn185 1.977 . S
O194 C187 1.267 . S
C195 O196 1.160 . S
C195 O202 1.185 . S
O196 C195 1.160 . S
O197 Zn198 1.899 . S
O197 C205 1.284 . S
Zn198 O197 1.899 . S
Zn198 O199 2.032 . S
Zn198 O202 2.086 . S
Zn198 O207 1.977 . S
O199 Zn198 2.032 . S
O199 C203 1.278 . S
C200 O201 1.203 . S
C200 O207 1.267 . S
O201 C200 1.203 . S
O202 C195 1.185 . S
O202 Zn198 2.086 . S
C203 O199 1.278 . S
C203 O204 1.211 . S
O204 C203 1.211 . S
C205 O197 1.284 . S
C205 O206 1.273 . S
O206 C205 1.273 . S
O207 Zn198 1.977 . S
O207 C200 1.267 . S
C65 C0 1.267 . S
C78 C13 1.267 . S
C26 C91 1.267 . S
C39 C52 1.267 . S
C169 C104 1.267 . S
C182 C117 1.267 . S
C130 C195 1.267 . S
C143 C156 1.267 . S
C138 C8 1.377 1_556 S
C151 C21 1.377 1_556 S
C112 C34 1.377 1_556 S
C47 C125 1.377 1_554 S
C190 C60 1.377 . S
C203 C73 1.377 . S
C86 C164 1.377 . S
C177 C99 1.377 . S
C62 C10 1.483 . S
C23 C75 1.483 . S
C36 C88 1.483 . S
C101 C49 1.483 . S
C109 C161 1.290 . S
C174 C122 1.290 . S
C135 C187 1.290 . S
C200 C148 1.290 . S
C153 C179 1.483 1_545 S
C114 C192 1.483 1_655 S
C205 C127 1.483 1_545 S
C140 C166 1.483 1_455 S
C70 C44 1.290 1_545 S
C83 C5 1.290 1_655 S
C96 C18 1.290 1_565 S
C57 C31 1.290 1_455 S
