# Generated by pormake.
# Topology hex, (8)-cn, num edge types: 1
# Building blocks:
#     Node 0, Type 0, BuildingBlock: LIZSOE_clean_sbu_0, # of connection points: 8
#     Edge 1, Type (0, 0), BuildingBlock: MIFKUJ_clean_linker_0, # of connection points: 2
#     Edge 2, Type (0, 0), BuildingBlock: MIFKUJ_clean_linker_0, # of connection points: 2
#     Edge 3, Type (0, 0), BuildingBlock: MIFKUJ_clean_linker_0, # of connection points: 2
#     Edge 4, Type (0, 0), BuildingBlock: MIFKUJ_clean_linker_0, # of connection points: 2
# Relax obj value: 0.108
# Max RMSD: 0.228
# Mean RMSD: 0.228
data_MOF--net-hex--node1-LIZSOE_clean_sbu_0--edge1-MIFKUJ_clean_linker_0
_symmetry_space_group_name_H-M    P1
_symmetry_Int_Tables_number       1
_symmetry_cell_setting            triclinic
loop_
_symmetry_equiv_pos_as_xyz
'x, y, z'
_cell_length_a     19.685858
_cell_length_b     27.568415
_cell_length_c     19.928351
_cell_angle_alpha  106.77463
_cell_angle_beta   78.989476
_cell_angle_gamma 133.6676
loop_
_atom_site_label
_atom_site_type_symbol
_atom_site_fract_x
_atom_site_fract_y
_atom_site_fract_z
_atom_type_partial_charge
Co0 Co 0.04897 0.91047 0.05221 0.0
N1 N 1.00359 0.83787 0.08774 0.0
C2 C 0.91892 0.79414 0.11682 0.0
N3 N 0.98235 0.75005 0.10027 0.0
C4 C 0.04155 0.81066 0.0803 0.0
C5 C 0.90547 0.73983 0.12408 0.0
Co6 Co 0.99555 0.0921 0.95722 0.0
N7 N 0.02916 0.15916 0.91737 0.0
N8 N 0.05343 0.24766 0.90187 0.0
C9 C 1.01767 0.19915 0.84203 0.0
C10 C 1.00263 0.14498 0.85172 0.0
C11 C 0.06175 0.22296 0.94637 0.0
Co12 Co 0.02614 0.00395 0.00578 0.0
C13 C 0.92497 0.05745 0.04136 0.0
H14 H 0.96701 0.09591 0.8151 0.0
O15 O 0.09794 0.97782 0.01432 0.0
O16 O 0.15162 0.10207 0.02583 0.0
O17 O 1.00132 0.01108 0.11014 0.0
O18 O 0.89955 0.9066 0.98497 0.0
O19 O 0.93168 0.8533 0.01426 0.0
O20 O 0.11837 0.15073 0.98593 0.0
O21 O 0.95456 0.02954 0.99788 0.0
O22 O 1.02271 0.05574 0.87473 0.0
O23 O 1.01443 0.94251 0.13354 0.0
O24 O 0.0839 0.88673 0.97005 0.0
O25 O 0.05055 0.99645 0.9012 0.0
O26 O 0.96852 0.12038 0.04142 0.0
C27 C 0.99798 0.98177 0.15219 0.0
C28 C 0.09953 0.26124 0.02012 0.0
H29 H 0.14111 0.25263 0.03503 0.0
H30 H 0.14492 0.31733 0.02575 0.0
H31 H 0.04062 0.24323 0.05724 0.0
C32 C 0.17561 0.15446 0.01194 0.0
C33 C 0.87578 0.85179 0.99036 0.0
H34 H 0.86766 0.79902 0.12761 0.0
H35 H 0.13788 0.83088 0.9964 0.0
H36 H 0.16773 0.8289 0.07514 0.0
H37 H 0.18516 0.90166 0.07099 0.0
C38 C 0.13905 0.8451 0.05444 0.0
C39 C 0.12727 0.94977 0.97041 0.0
C40 C 0.04446 0.01972 0.8574 0.0
H41 H 0.84151 0.6939 0.14032 0.0
H42 H 0.99501 0.19979 0.79712 0.0
H43 H 0.96342 0.26424 0.0106 0.0
H44 H 0.95589 0.35237 0.04495 0.0
H45 H 0.11425 0.43116 0.86153 0.0
H46 H 0.12923 0.34569 0.83153 0.0
H47 H 0.17071 0.53303 0.96329 0.0
H48 H 0.86763 0.32899 0.87362 0.0
H49 H 0.71774 0.20814 0.85682 0.0
H50 H 0.64928 0.24368 0.0725 0.0
H51 H 0.79927 0.36475 0.09082 0.0
H52 H 1.01937 0.7058 0.97336 0.0
H53 H 0.03549 0.62154 0.94134 0.0
H54 H 0.9627 0.58804 0.15179 0.0
H55 H 0.95056 0.67528 0.1846 0.0
H56 H 0.86451 0.46575 0.03512 0.0
H57 H 0.17482 0.67407 0.11911 0.0
H58 H 0.32119 0.79539 0.12703 0.0
H59 H 0.36999 0.74998 0.90814 0.0
H60 H 0.22305 0.62831 0.89865 0.0
C61 C 0.99964 0.3021 0.97949 0.0
C62 C 0.0502 0.30035 0.92053 0.0
C63 C 0.99315 0.35129 0.99778 0.0
C64 C 0.03291 0.39772 0.95511 0.0
C65 C 0.08291 0.39578 0.89527 0.0
C66 C 0.09132 0.34716 0.878 0.0
C67 C 1.02265 0.44842 0.97417 0.0
C68 C 0.10349 0.51809 0.97791 0.0
C69 C 0.93486 0.429 0.99389 0.0
C70 C 0.84517 0.35587 0.98371 0.0
C71 C 0.82106 0.31092 0.91766 0.0
C72 C 0.73596 0.24243 0.90781 0.0
C73 C 0.67406 0.21829 0.96353 0.0
C74 C 0.69729 0.26251 0.02936 0.0
C75 C 0.78229 0.33112 0.03948 0.0
C76 C 1.00963 0.68182 0.01308 0.0
C77 C 0.98794 0.69871 0.08199 0.0
C78 C 1.0177 0.63336 0.99469 0.0
C79 C 1.00222 0.60002 0.04469 0.0
C80 C 0.97606 0.61423 0.11292 0.0
C81 C 0.96917 0.66365 0.13157 0.0
C82 C 1.01229 0.54955 0.02452 0.0
C83 C 0.93138 0.48014 0.02033 0.0
C84 C 0.09942 0.56901 0.0029 0.0
C85 C 0.18742 0.64218 0.00806 0.0
C86 C 0.2162 0.69004 0.07248 0.0
C87 C 0.29941 0.7588 0.07731 0.0
C88 C 0.35485 0.78028 0.01818 0.0
C89 C 0.32705 0.73312 0.95395 0.0
C90 C 0.24381 0.66424 0.94882 0.0
H91 H 0.41944 0.83344 0.02231 0.0
H92 H 0.60792 0.16542 0.95547 0.0
H93 H 0.80989 0.97915 0.92848 0.0
H94 H 0.67974 0.96783 0.91466 0.0
H95 H 0.67515 0.03429 0.13869 0.0
H96 H 0.8143 0.0537 0.15128 0.0
H97 H 0.5198 0.91032 0.93833 0.0
H98 H 0.5823 0.11134 0.18075 0.0
H99 H 0.70491 0.20952 0.2685 0.0
H100 H 0.91858 0.24645 0.12214 0.0
H101 H 0.79725 0.15019 0.03151 0.0
H102 H 0.2545 0.03752 0.07644 0.0
H103 H 0.3897 0.05303 0.08517 0.0
H104 H 0.37218 0.971 0.8624 0.0
H105 H 0.22817 0.94683 0.85605 0.0
H106 H 0.54491 0.10646 0.05822 0.0
H107 H 0.46542 0.91825 0.8085 0.0
H108 H 0.33776 0.81138 0.72898 0.0
H109 H 0.15504 0.74077 0.90439 0.0
H110 H 0.28207 0.84747 0.9847 0.0
C111 C 0.77899 0.98875 0.97535 0.0
C112 C 0.82274 0.01718 0.04112 0.0
C113 C 0.70467 0.98322 0.96728 0.0
C114 C 0.6692 0.00338 0.02512 0.0
C115 C 0.70381 0.02198 0.09235 0.0
C116 C 0.78154 0.03076 0.10006 0.0
C117 C 0.59969 0.00725 0.0134 0.0
C118 C 0.52646 0.95386 0.96445 0.0
C119 C 0.60571 0.06318 0.0475 0.0
C120 C 0.68047 0.12288 0.09962 0.0
C121 C 0.65548 0.14081 0.1668 0.0
C122 C 0.72473 0.19628 0.21685 0.0
C123 C 0.81944 0.23424 0.20051 0.0
C124 C 0.84508 0.21717 0.13392 0.0
C125 C 0.77614 0.16235 0.08312 0.0
C126 C 0.28135 0.02506 0.02863 0.0
C127 C 0.22995 0.99077 0.96551 0.0
C128 C 0.35885 0.03308 0.03377 0.0
C129 C 0.38991 0.00963 0.97524 0.0
C130 C 0.34684 0.98494 0.90987 0.0
C131 C 0.2663 0.97377 0.90542 0.0
C132 C 0.46358 0.00866 0.98442 0.0
C133 C 0.53825 0.06293 0.03235 0.0
C134 C 0.45877 0.95339 0.95008 0.0
C135 C 0.38135 0.89143 0.90205 0.0
C136 C 0.39742 0.88016 0.8298 0.0
C137 C 0.32543 0.81969 0.7847 0.0
C138 C 0.2378 0.7697 0.81161 0.0
C139 C 0.22221 0.78006 0.88363 0.0
C140 C 0.29379 0.84068 0.92884 0.0
H141 H 0.18227 0.72267 0.77675 0.0
H142 H 0.87302 0.27682 0.23952 0.0
H143 H 0.31287 0.20584 0.91619 0.0
H144 H 0.43493 0.3276 0.91283 0.0
H145 H 0.3683 0.3808 0.12425 0.0
H146 H 0.2453 0.25851 0.12699 0.0
H147 H 0.35898 0.43458 0.03813 0.0
H148 H 0.58517 0.42756 0.07966 0.0
H149 H 0.65991 0.3805 0.05667 0.0
H150 H 0.73116 0.41918 0.84944 0.0
H151 H 0.6557 0.46548 0.87068 0.0
H152 H 0.73155 0.80053 0.08066 0.0
H153 H 0.60852 0.67881 0.08393 0.0
H154 H 0.68735 0.62603 0.87796 0.0
H155 H 0.81238 0.74821 0.87606 0.0
H156 H 0.69009 0.57179 0.96231 0.0
H157 H 0.46429 0.57617 0.9166 0.0
H158 H 0.38597 0.62009 0.93442 0.0
H159 H 0.31056 0.58379 0.14268 0.0
H160 H 0.38941 0.54048 0.12654 0.0
C161 C 0.32829 0.2438 0.96341 0.0
C162 C 0.27167 0.22276 0.0227 0.0
C163 C 0.3973 0.31357 0.96116 0.0
C164 C 0.41117 0.3639 0.01826 0.0
C165 C 0.35926 0.34321 0.07949 0.0
C166 C 0.29032 0.27335 0.0817 0.0
C167 C 0.47203 0.43646 0.0113 0.0
C168 C 0.43194 0.46504 0.0227 0.0
C169 C 0.56623 0.47554 0.98857 0.0
C170 C 0.61375 0.44928 0.97652 0.0
C171 C 0.61623 0.42563 0.02902 0.0
C172 C 0.65874 0.3991 0.0163 0.0
C173 C 0.69955 0.3964 0.95145 0.0
C174 C 0.69909 0.42102 0.89951 0.0
C175 C 0.65657 0.44748 0.91189 0.0
C176 C 0.71869 0.76264 0.03434 0.0
C177 C 0.77962 0.78381 0.97711 0.0
C178 C 0.64896 0.69281 0.03657 0.0
C179 C 0.63813 0.64254 0.98123 0.0
C180 C 0.69403 0.66344 0.92149 0.0
C181 C 0.76427 0.7333 0.91964 0.0
C182 C 0.57711 0.57011 0.98896 0.0
C183 C 0.61718 0.54151 0.97778 0.0
C184 C 0.48262 0.53079 0.01123 0.0
C185 C 0.43389 0.55588 0.02065 0.0
C186 C 0.43164 0.57803 0.9664 0.0
C187 C 0.38705 0.60274 0.97617 0.0
C188 C 0.34399 0.6052 0.03983 0.0
C189 C 0.34437 0.58216 0.09353 0.0
C190 C 0.38888 0.55744 0.08407 0.0
H191 H 0.31022 0.62488 0.04756 0.0
H192 H 0.73167 0.37533 0.94139 0.0
H193 H 0.92077 0.90139 0.76405 0.0
H194 H 0.91389 0.89401 0.63982 0.0
H195 H 0.18848 0.09861 0.65809 0.0
H196 H 0.19372 0.10635 0.78275 0.0
H197 H 0.06649 0.09201 0.61038 0.0
H198 H 0.14258 0.95276 0.55112 0.0
H199 H 0.12644 0.85632 0.55375 0.0
H200 H 0.84552 0.71212 0.47115 0.0
H201 H 0.85947 0.8077 0.46894 0.0
H202 H 0.11839 0.10026 0.24689 0.0
H203 H 0.12471 0.10721 0.37105 0.0
H204 H 0.8537 0.90023 0.35051 0.0
H205 H 0.84958 0.89273 0.22581 0.0
H206 H 0.97396 0.90801 0.39966 0.0
H207 H 0.89665 0.04624 0.45893 0.0
H208 H 0.91111 0.14209 0.45705 0.0
H209 H 0.19185 0.28746 0.54031 0.0
H210 H 0.1796 0.19248 0.54178 0.0
C211 C 0.98171 0.94306 0.7404 0.0
C212 C 0.0587 0.00377 0.78222 0.0
C213 C 0.97745 0.93922 0.66953 0.0
C214 C 0.05055 0.99595 0.63946 0.0
C215 C 0.13111 0.0543 0.68005 0.0
C216 C 0.13492 0.05829 0.75093 0.0
C217 C 0.03802 0.99798 0.56927 0.0
C218 C 0.04784 0.05235 0.56397 0.0
C219 C 1.01026 0.94503 0.50928 0.0
C220 C 1.00182 0.88746 0.51047 0.0
C221 C 0.07709 0.9005 0.53405 0.0
C222 C 0.06838 0.84597 0.53536 0.0
C223 C 0.98494 0.77814 0.51279 0.0
C224 C 0.91009 0.76469 0.48868 0.0
C225 C 0.9184 0.81902 0.48732 0.0
C226 C 0.05806 0.05781 0.26998 0.0
C227 C 0.98266 0.99649 0.22746 0.0
C228 C 0.06197 0.06145 0.34088 0.0
C229 C 0.98983 0.00405 0.37036 0.0
C230 C 0.91044 0.94505 0.32905 0.0
C231 C 0.90723 0.94114 0.25811 0.0
C232 C 1.0024 0.00209 0.44065 0.0
C233 C 0.9926 0.94771 0.446 0.0
C234 C 0.02993 0.05495 0.50073 0.0
C235 C 0.03747 0.11218 0.49983 0.0
C236 C 0.96176 0.09864 0.47629 0.0
C237 C 0.96951 0.15283 0.47541 0.0
C238 C 0.05243 0.22082 0.49838 0.0
C239 C 0.1277 0.23477 0.52245 0.0
C240 C 0.12035 0.18077 0.52338 0.0
H241 H 0.05828 0.26269 0.49766 0.0
H242 H 0.97834 0.736 0.51384 0.0
loop_
_geom_bond_atom_site_label_1
_geom_bond_atom_site_label_2
_geom_bond_distance
_geom_bond_site_symmetry_2
_ccdc_geom_bond_type
Co0 N1 2.034 . S
Co0 O15 2.262 1_654 S
Co0 O19 1.958 1_554 S
Co0 O23 1.950 1_655 S
Co0 O24 2.057 1_654 S
N1 Co0 2.034 . S
N1 C2 1.366 . S
N1 C4 1.332 1_655 S
C2 N1 1.366 . S
C2 C5 1.377 . S
C2 H34 0.931 . S
N3 C4 1.344 . S
N3 C5 1.335 1_455 S
C4 N1 1.332 1_455 S
C4 N3 1.344 . S
C4 C38 1.361 . S
C5 C2 1.377 . S
C5 N3 1.335 1_655 S
C5 H41 0.930 . S
Co6 N7 2.034 1_655 S
Co6 O20 1.950 1_655 S
Co6 O21 2.256 1_556 S
Co6 O22 1.958 . S
Co6 O26 2.058 . S
N7 Co6 2.034 1_455 S
N7 C10 1.366 . S
N7 C11 1.332 . S
N8 C9 1.337 . S
N8 C11 1.346 . S
C9 N8 1.337 . S
C9 C10 1.377 . S
C9 H42 0.930 . S
C10 N7 1.366 . S
C10 C9 1.377 . S
C10 H14 0.931 . S
C11 N7 1.332 . S
C11 N8 1.346 . S
C11 C28 1.361 1_556 S
Co12 O15 2.097 1_655 S
Co12 O16 2.065 1_666 S
Co12 O17 2.070 1_566 S
Co12 O18 2.042 . S
Co12 O21 2.099 1_566 S
Co12 O25 2.042 1_655 S
C13 O21 1.253 . S
C13 O26 1.262 1_554 S
H14 C10 0.931 . S
O15 Co0 2.262 1_456 S
O15 Co12 2.097 1_455 S
O15 C39 1.253 . S
O16 Co12 2.065 1_444 S
O16 C32 1.221 . S
O17 Co12 2.070 1_544 S
O17 C27 1.203 1_545 S
O18 Co12 2.042 . S
O18 C33 1.237 . S
O19 Co0 1.958 1_556 S
O19 C33 1.278 . S
O20 Co6 1.950 1_455 S
O20 C32 1.277 1_556 S
O21 Co6 2.256 1_554 S
O21 Co12 2.099 1_544 S
O21 C13 1.253 . S
O22 Co6 1.958 . S
O22 C40 1.278 . S
O23 Co0 1.950 1_455 S
O23 C27 1.277 1_455 S
O24 Co0 2.057 1_456 S
O24 C39 1.263 . S
O25 Co12 2.042 1_455 S
O25 C40 1.237 1_465 S
O26 Co6 2.058 . S
O26 C13 1.262 1_556 S
C27 O17 1.203 1_565 S
C27 O23 1.277 1_655 S
C28 C11 1.361 1_554 S
C28 H29 0.960 . S
C28 H30 0.961 . S
C28 H31 0.961 1_455 S
H29 C28 0.960 . S
H30 C28 0.961 . S
H31 C28 0.961 1_655 S
C32 O16 1.221 . S
C32 O20 1.277 1_554 S
C33 O18 1.237 . S
C33 O19 1.278 . S
H34 C2 0.931 . S
H35 C38 0.961 . S
H36 C38 0.961 . S
H37 C38 0.960 . S
C38 C4 1.361 . S
C38 H35 0.961 . S
C38 H36 0.961 . S
C38 H37 0.960 . S
C39 O15 1.253 . S
C39 O24 1.263 . S
C40 O22 1.278 . S
C40 O25 1.237 1_645 S
H41 C5 0.930 . S
H42 C9 0.930 . S
H43 C61 0.951 . S
H44 C63 0.951 1_554 S
H45 C65 0.950 . S
H46 C66 0.950 . S
H47 C68 0.950 1_556 S
H48 C71 0.950 . S
H49 C72 0.950 . S
H50 C74 0.950 . S
H51 C75 0.950 . S
H52 C76 0.951 . S
H53 C78 0.951 . S
H54 C80 0.950 . S
H55 C81 0.950 . S
H56 C83 0.950 . S
H57 C86 0.950 . S
H58 C87 0.950 . S
H59 C89 0.950 1_556 S
H60 C90 0.950 1_556 S
C61 H43 0.951 . S
C61 C62 1.366 1_655 S
C61 C63 1.388 . S
C62 C61 1.366 1_455 S
C62 C66 1.385 . S
C63 H44 0.951 1_556 S
C63 C61 1.388 . S
C63 C64 1.366 1_655 S
C64 C63 1.366 1_455 S
C64 C65 1.414 . S
C64 C67 1.499 . S
C65 H45 0.950 . S
C65 C64 1.414 . S
C65 C66 1.374 . S
C66 H46 0.950 . S
C66 C62 1.385 . S
C66 C65 1.374 . S
C67 C64 1.499 . S
C67 C68 1.372 1_556 S
C67 C69 1.389 1_456 S
C68 H47 0.950 1_554 S
C68 C67 1.372 1_554 S
C68 C84 1.378 . S
C69 C67 1.389 1_654 S
C69 C70 1.524 1_554 S
C69 C83 1.377 . S
C70 C69 1.524 1_556 S
C70 C71 1.397 . S
C70 C75 1.363 1_556 S
C71 H48 0.950 . S
C71 C70 1.397 . S
C71 C72 1.334 . S
C72 H49 0.950 . S
C72 C71 1.334 . S
C72 C73 1.287 . S
C73 C72 1.287 . S
C73 C74 1.524 1_556 S
C73 H92 0.913 . S
C74 H50 0.950 . S
C74 C73 1.524 1_554 S
C74 C75 1.415 . S
C75 H51 0.950 . S
C75 C70 1.363 1_554 S
C75 C74 1.415 . S
C76 H52 0.951 . S
C76 C77 1.366 . S
C76 C78 1.388 . S
C77 C76 1.366 . S
C77 C81 1.385 1_455 S
C78 H53 0.951 . S
C78 C76 1.388 . S
C78 C79 1.366 . S
C79 C78 1.366 . S
C79 C80 1.414 1_455 S
C79 C82 1.499 . S
C80 H54 0.950 . S
C80 C79 1.414 1_655 S
C80 C81 1.374 . S
C81 H55 0.950 . S
C81 C77 1.385 1_655 S
C81 C80 1.374 . S
C82 C79 1.499 . S
C82 C83 1.373 1_455 S
C82 C84 1.389 . S
C83 H56 0.950 . S
C83 C69 1.377 . S
C83 C82 1.373 1_655 S
C84 C68 1.378 . S
C84 C82 1.389 . S
C84 C85 1.524 . S
C85 C84 1.524 . S
C85 C86 1.397 . S
C85 C90 1.363 . S
C86 H57 0.950 . S
C86 C85 1.397 . S
C86 C87 1.334 . S
C87 H58 0.950 . S
C87 C86 1.334 . S
C87 C88 1.287 . S
C88 C87 1.287 . S
C88 C89 1.524 . S
C88 H91 0.999 . S
C89 H59 0.950 1_554 S
C89 C88 1.524 . S
C89 C90 1.415 . S
C90 H60 0.950 1_554 S
C90 C85 1.363 . S
C90 C89 1.415 . S
H91 C88 0.999 . S
H92 C73 0.913 . S
H93 C111 0.951 . S
H94 C113 0.951 . S
H95 C115 0.950 . S
H96 C116 0.950 . S
H97 C118 0.950 . S
H98 C121 0.950 . S
H99 C122 0.950 . S
H100 C124 0.950 1_556 S
H101 C125 0.965 . S
H102 C126 0.951 . S
H103 C128 0.951 . S
H104 C130 0.950 . S
H105 C131 0.950 . S
H106 C133 0.956 1_554 S
H107 C136 0.950 . S
H108 C137 0.950 . S
H109 C139 0.950 . S
H110 C140 0.950 1_554 S
C111 H93 0.951 . S
C111 C112 1.366 1_556 S
C111 C113 1.388 . S
C112 C111 1.366 1_554 S
C112 C116 1.385 1_545 S
C113 H94 0.951 . S
C113 C111 1.388 . S
C113 C114 1.366 1_556 S
C114 C113 1.366 1_554 S
C114 C115 1.414 1_545 S
C114 C117 1.499 . S
C115 H95 0.950 . S
C115 C114 1.414 1_565 S
C115 C116 1.374 . S
C116 H96 0.950 . S
C116 C112 1.385 1_565 S
C116 C115 1.374 . S
C117 C114 1.499 . S
C117 C118 1.373 1_544 S
C117 C119 1.389 . S
C118 H97 0.950 . S
C118 C117 1.373 1_566 S
C118 C134 1.377 . S
C119 C117 1.389 . S
C119 C120 1.524 . S
C119 C133 1.375 1_554 S
C120 C119 1.524 . S
C120 C121 1.397 . S
C120 C125 1.351 1_554 S
C121 H98 0.950 . S
C121 C120 1.397 . S
C121 C122 1.334 . S
C122 H99 0.950 . S
C122 C121 1.334 . S
C122 C123 1.287 . S
C123 C122 1.287 . S
C123 C124 1.524 . S
C123 H142 0.913 . S
C124 H100 0.950 1_554 S
C124 C123 1.524 . S
C124 C125 1.412 1_554 S
C125 H101 0.965 . S
C125 C120 1.351 1_556 S
C125 C124 1.412 1_556 S
C126 H102 0.951 . S
C126 C127 1.366 1_554 S
C126 C128 1.388 . S
C127 C126 1.366 1_556 S
C127 C131 1.385 1_565 S
C128 H103 0.951 . S
C128 C126 1.388 . S
C128 C129 1.366 1_554 S
C129 C128 1.366 1_556 S
C129 C130 1.414 1_565 S
C129 C132 1.499 . S
C130 H104 0.950 . S
C130 C129 1.414 1_545 S
C130 C131 1.374 . S
C131 H105 0.950 . S
C131 C127 1.385 1_545 S
C131 C130 1.374 . S
C132 C129 1.499 . S
C132 C133 1.374 1_565 S
C132 C134 1.389 . S
C133 H106 0.956 1_556 S
C133 C119 1.375 1_556 S
C133 C132 1.374 1_545 S
C134 C118 1.377 . S
C134 C132 1.389 . S
C134 C135 1.524 . S
C135 C134 1.524 . S
C135 C136 1.397 . S
C135 C140 1.363 . S
C136 H107 0.950 . S
C136 C135 1.397 . S
C136 C137 1.334 . S
C137 H108 0.950 . S
C137 C136 1.334 . S
C137 C138 1.287 . S
C138 C137 1.287 . S
C138 C139 1.524 . S
C138 H141 0.999 . S
C139 H109 0.950 . S
C139 C138 1.524 . S
C139 C140 1.415 . S
C140 H110 0.950 1_556 S
C140 C135 1.363 . S
C140 C139 1.415 . S
H141 C138 0.999 . S
H142 C123 0.913 . S
H143 C161 0.951 . S
H144 C163 0.951 . S
H145 C165 0.950 . S
H146 C166 0.950 . S
H147 C168 0.950 . S
H148 C171 0.950 . S
H149 C172 0.950 . S
H150 C174 0.950 1_556 S
H151 C175 0.950 . S
H152 C176 0.951 1_554 S
H153 C178 0.951 . S
H154 C180 0.950 . S
H155 C181 0.950 . S
H156 C183 0.950 . S
H157 C186 0.950 . S
H158 C187 0.950 . S
H159 C189 0.950 . S
H160 C190 0.950 1_554 S
C161 H143 0.951 . S
C161 C162 1.366 1_556 S
C161 C163 1.388 . S
C162 C161 1.366 1_554 S
C162 C166 1.385 . S
C163 H144 0.951 . S
C163 C161 1.388 . S
C163 C164 1.366 1_556 S
C164 C163 1.366 1_554 S
C164 C165 1.414 . S
C164 C167 1.499 . S
C165 H145 0.950 . S
C165 C164 1.414 . S
C165 C166 1.374 . S
C166 H146 0.950 . S
C166 C162 1.385 . S
C166 C165 1.374 . S
C167 C164 1.499 . S
C167 C168 1.373 1_554 S
C167 C169 1.389 . S
C168 H147 0.950 . S
C168 C167 1.373 1_556 S
C168 C184 1.377 . S
C169 C167 1.389 . S
C169 C170 1.524 . S
C169 C183 1.377 1_554 S
C170 C169 1.524 . S
C170 C171 1.397 . S
C170 C175 1.363 1_554 S
C171 H148 0.950 . S
C171 C170 1.397 . S
C171 C172 1.334 . S
C172 H149 0.950 . S
C172 C171 1.334 . S
C172 C173 1.287 . S
C173 C172 1.287 . S
C173 C174 1.524 . S
C173 H192 0.913 . S
C174 H150 0.950 1_554 S
C174 C173 1.524 . S
C174 C175 1.415 1_554 S
C175 H151 0.950 . S
C175 C170 1.363 1_556 S
C175 C174 1.415 1_556 S
C176 H152 0.951 1_556 S
C176 C177 1.366 . S
C176 C178 1.388 1_556 S
C177 C176 1.366 . S
C177 C181 1.385 . S
C178 H153 0.951 . S
C178 C176 1.388 1_554 S
C178 C179 1.366 1_554 S
C179 C178 1.366 1_556 S
C179 C180 1.414 . S
C179 C182 1.499 . S
C180 H154 0.950 . S
C180 C179 1.414 . S
C180 C181 1.374 . S
C181 H155 0.950 . S
C181 C177 1.385 . S
C181 C180 1.374 . S
C182 C179 1.499 . S
C182 C183 1.373 . S
C182 C184 1.389 . S
C183 H156 0.950 . S
C183 C169 1.377 1_556 S
C183 C182 1.373 . S
C184 C168 1.377 . S
C184 C182 1.389 . S
C184 C185 1.524 . S
C185 C184 1.524 . S
C185 C186 1.397 . S
C185 C190 1.363 . S
C186 H157 0.950 . S
C186 C185 1.397 . S
C186 C187 1.334 . S
C187 H158 0.950 . S
C187 C186 1.334 . S
C187 C188 1.287 . S
C188 C187 1.287 . S
C188 C189 1.524 . S
C188 H191 0.999 . S
C189 H159 0.950 . S
C189 C188 1.524 . S
C189 C190 1.415 . S
C190 H160 0.950 1_556 S
C190 C185 1.363 . S
C190 C189 1.415 . S
H191 C188 0.999 . S
H192 C173 0.913 . S
H193 C211 0.951 . S
H194 C213 0.951 . S
H195 C215 0.950 . S
H196 C216 0.950 . S
H197 C218 0.950 . S
H198 C221 0.950 . S
H199 C222 0.950 . S
H200 C224 0.950 . S
H201 C225 0.950 . S
H202 C226 0.951 . S
H203 C228 0.951 . S
H204 C230 0.950 . S
H205 C231 0.950 . S
H206 C233 0.950 . S
H207 C236 0.950 . S
H208 C237 0.950 . S
H209 C239 0.950 . S
H210 C240 0.950 . S
C211 H193 0.951 . S
C211 C212 1.368 . S
C211 C213 1.388 . S
C212 C211 1.368 . S
C212 C216 1.383 1_665 S
C213 H194 0.951 . S
C213 C211 1.388 . S
C213 C214 1.367 . S
C214 C213 1.367 . S
C214 C215 1.412 1_665 S
C214 C217 1.499 1_655 S
C215 H195 0.950 . S
C215 C214 1.412 1_445 S
C215 C216 1.374 . S
C216 H196 0.950 . S
C216 C212 1.383 1_445 S
C216 C215 1.374 . S
C217 C214 1.499 1_455 S
C217 C218 1.373 1_565 S
C217 C219 1.389 1_455 S
C218 H197 0.950 . S
C218 C217 1.373 1_545 S
C218 C234 1.377 . S
C219 C217 1.389 1_655 S
C219 C220 1.524 . S
C219 C233 1.377 . S
C220 C219 1.524 . S
C220 C221 1.397 . S
C220 C225 1.363 . S
C221 H198 0.950 . S
C221 C220 1.397 . S
C221 C222 1.334 . S
C222 H199 0.950 . S
C222 C221 1.334 . S
C222 C223 1.287 . S
C223 C222 1.287 . S
C223 C224 1.524 . S
C223 H242 0.913 . S
C224 H200 0.950 . S
C224 C223 1.524 . S
C224 C225 1.415 . S
C225 H201 0.950 . S
C225 C220 1.363 . S
C225 C224 1.415 . S
C226 H202 0.951 . S
C226 C227 1.379 . S
C226 C228 1.388 . S
C227 C226 1.379 . S
C227 C231 1.376 1_445 S
C228 H203 0.951 . S
C228 C226 1.388 . S
C228 C229 1.374 . S
C229 C228 1.374 . S
C229 C230 1.401 1_445 S
C229 C232 1.503 1_455 S
C230 H204 0.950 . S
C230 C229 1.401 1_665 S
C230 C231 1.374 . S
C231 H205 0.950 . S
C231 C227 1.376 1_665 S
C231 C230 1.374 . S
C232 C229 1.503 1_655 S
C232 C233 1.373 1_545 S
C232 C234 1.390 1_655 S
C233 H206 0.950 . S
C233 C219 1.377 . S
C233 C232 1.373 1_565 S
C234 C218 1.377 . S
C234 C232 1.390 1_455 S
C234 C235 1.524 . S
C235 C234 1.524 . S
C235 C236 1.397 . S
C235 C240 1.363 . S
C236 H207 0.950 . S
C236 C235 1.397 . S
C236 C237 1.334 . S
C237 H208 0.950 . S
C237 C236 1.334 . S
C237 C238 1.287 . S
C238 C237 1.287 . S
C238 C239 1.524 . S
C238 H241 0.999 . S
C239 H209 0.950 . S
C239 C238 1.524 . S
C239 C240 1.415 . S
C240 H210 0.950 . S
C240 C235 1.363 . S
C240 C239 1.415 . S
H241 C238 0.999 . S
H242 C223 0.913 . S
C62 N8 1.448 . S
C77 N3 1.355 . S
C112 C13 1.510 . S
C127 C39 1.528 . S
C162 C32 1.396 . S
C177 C33 1.411 . S
C212 C40 1.426 1_565 S
C227 C27 1.426 1_445 S
