# Generated by pormake.
# Topology wnr, (7)-cn, num edge types: 1
# Building blocks:
#     Node 0, Type 0, BuildingBlock: HICVOG_clean_sbu_0, # of connection points: 7
#     Node 1, Type 0, BuildingBlock: HICVOG_clean_sbu_0, # of connection points: 7
#     Node 2, Type 0, BuildingBlock: HICVOG_clean_sbu_0, # of connection points: 7
#     Node 3, Type 0, BuildingBlock: HICVOG_clean_sbu_0, # of connection points: 7
#     Node 4, Type 0, BuildingBlock: HICVOG_clean_sbu_0, # of connection points: 7
#     Node 5, Type 0, BuildingBlock: HICVOG_clean_sbu_0, # of connection points: 7
#     Edge 6, Type (0, 0), None
#     Edge 7, Type (0, 0), None
#     Edge 8, Type (0, 0), None
#     Edge 9, Type (0, 0), None
#     Edge 10, Type (0, 0), None
#     Edge 11, Type (0, 0), None
#     Edge 12, Type (0, 0), None
#     Edge 13, Type (0, 0), None
#     Edge 14, Type (0, 0), None
#     Edge 15, Type (0, 0), None
#     Edge 16, Type (0, 0), None
#     Edge 17, Type (0, 0), None
#     Edge 18, Type (0, 0), None
#     Edge 19, Type (0, 0), None
#     Edge 20, Type (0, 0), None
#     Edge 21, Type (0, 0), None
#     Edge 22, Type (0, 0), None
#     Edge 23, Type (0, 0), None
#     Edge 24, Type (0, 0), None
#     Edge 25, Type (0, 0), None
#     Edge 26, Type (0, 0), None
# Relax obj value: 0.215
# Max RMSD: 0.242
# Mean RMSD: 0.242
data_MOF--net-wnr--node1-HICVOG_clean_sbu_0--edge1-none
_symmetry_space_group_name_H-M    P1
_symmetry_Int_Tables_number       1
_symmetry_cell_setting            triclinic
loop_
_symmetry_equiv_pos_as_xyz
'x, y, z'
_cell_length_a     23.086083
_cell_length_b     23.088286
_cell_length_c     7.2613966
_cell_angle_alpha  89.998909
_cell_angle_beta   90.016725
_cell_angle_gamma 120.00125
loop_
_atom_site_label
_atom_site_type_symbol
_atom_site_fract_x
_atom_site_fract_y
_atom_site_fract_z
_atom_type_partial_charge
Zn0 Zn 0.15582 0.35726 1.10474 0.0
C1 C 0.02873 0.3778 0.37875 0.0
N2 N 0.98647 0.34787 0.2287 0.0
C3 C 0.02802 0.35751 1.07904 0.0
N4 N 0.09151 0.38777 1.14298 0.0
N5 N 0.09304 0.40743 0.31451 0.0
C6 C 0.20347 0.44015 0.6236 0.0
O7 O 0.19222 0.39719 0.49204 0.0
O8 O 0.16912 0.35735 0.84509 0.0
Zn9 Zn 0.17582 0.49599 0.35476 0.0
N10 N 0.12903 0.26963 0.20296 0.0
C11 C 0.09975 0.19467 0.45616 0.0
C12 C 0.10212 0.25055 0.37392 0.0
C13 C 0.15067 0.23339 1.10758 0.0
N14 N 0.12391 0.16004 0.36358 0.0
C15 C 0.14856 0.17754 0.18975 0.0
O16 O 0.26379 0.52034 0.21307 0.0
C17 C 0.28899 0.48291 0.18185 0.0
O18 O 0.25253 0.41949 0.18299 0.0
H19 H 0.08565 0.28012 0.44912 0.0
H20 H 0.17436 0.25114 0.97488 0.0
C21 C 0.19616 0.62849 0.43014 0.0
C22 C 0.17529 0.67627 0.43858 0.0
C23 C 0.07475 0.60025 0.28313 0.0
C24 C 0.09567 0.55337 0.27443 0.0
N25 N 0.15541 0.56792 0.34907 0.0
N26 N 0.11477 0.66012 0.36468 0.0
H27 H 0.2434 0.63871 0.48919 0.0
C28 C 0.19344 0.41864 0.80762 0.0
O29 O 0.19195 0.45964 0.92919 0.0
O30 O 0.20239 0.49326 0.59287 0.0
H31 H 0.06398 0.50527 0.21116 0.0
H32 H 0.08067 0.1801 0.59466 0.0
H33 H 0.02699 0.58918 0.2261 0.0
Zn34 Zn 0.67632 0.80945 0.77215 0.0
C35 C 0.65574 0.6618 1.04639 0.0
N36 N 0.68563 0.64941 0.8964 0.0
C37 C 0.67604 0.68136 0.74671 0.0
N38 N 0.64586 0.71466 0.81058 0.0
N39 N 0.62619 0.69654 0.98209 0.0
C40 C 0.59335 0.77415 0.29098 0.0
O41 O 0.63629 0.80592 0.15944 0.0
O42 O 0.67619 0.82263 0.51248 0.0
Zn43 Zn 0.53759 0.6907 1.02204 0.0
N44 N 0.76394 0.87033 0.87049 0.0
C45 C 0.83882 0.91606 1.12396 0.0
C46 C 0.78297 0.86254 1.0416 0.0
C47 C 0.8002 0.92819 0.77508 0.0
N48 N 0.87347 0.97483 1.03134 0.0
C49 C 0.85603 0.98195 0.85737 0.0
O50 O 0.5132 0.75429 0.88025 0.0
C51 C 0.55063 0.81691 0.849 0.0
O52 O 0.61406 0.84389 0.85023 0.0
H53 H 0.75337 0.81651 1.11681 0.0
H54 H 0.78249 0.93411 0.64226 0.0
C55 C 0.40507 0.57852 1.09701 0.0
C56 C 0.35727 0.50988 1.10526 0.0
C57 C 0.43331 0.48538 0.95002 0.0
C58 C 0.48021 0.55317 0.9415 0.0
N59 N 0.46567 0.59836 1.01613 0.0
N60 N 0.37342 0.46552 1.03138 0.0
H61 H 0.39485 0.61553 0.15605 0.0
C62 C 0.6149 0.78564 0.475 0.0
O63 O 0.57392 0.74311 0.59655 0.0
O64 O 0.54026 0.71996 0.26019 0.0
H65 H 0.52833 0.5696 0.87837 0.0
H66 H 0.85335 0.91158 0.26256 0.0
H67 H 0.44438 0.44871 0.89298 0.0
Zn68 Zn 0.34284 0.85776 0.68818 0.0
C69 C 0.35207 1.0055 0.41203 0.0
N70 N 0.3839 0.04706 0.56179 0.0
C71 C 0.37166 1.00481 0.71174 0.0
N72 N 0.33718 0.94055 0.64714 0.0
N73 N 0.31892 0.94197 0.47566 0.0
C74 C 0.24759 0.83998 1.14071 0.0
O75 O 0.29004 0.84135 0.26229 0.0
O76 O 0.31342 0.83129 0.92617 0.0
Zn77 Zn 0.22403 0.87766 0.43809 0.0
N78 N 0.43517 0.87811 0.68281 0.0
C79 C 0.54818 0.95875 0.61701 0.0
C80 C 0.48039 0.93785 0.60827 0.0
C81 C 0.455 0.83736 0.76384 0.0
N82 N 0.56803 0.91873 0.6985 0.0
C83 C 0.52365 0.85822 0.7723 0.0
O84 O 0.18961 0.78097 0.51641 0.0
C85 C 0.2166 0.74454 0.51536 0.0
O86 O 0.27925 0.76977 0.54644 0.0
H87 H 0.46397 0.96954 0.545 0.0
H88 H 0.41798 0.79013 0.8228 0.0
C89 C 0.10529 0.88277 0.44137 0.0
C90 C 0.05158 0.8849 0.52367 0.0
C91 C 0.11769 0.93389 0.7898 0.0
C92 C 0.17118 0.93153 0.70739 0.0
N93 N 0.16325 0.90451 0.53651 0.0
N94 N 0.05884 0.90965 0.69743 0.0
H95 H 0.09926 0.85899 0.30873 0.0
C96 C 0.25919 0.83014 0.95663 0.0
O97 O 0.2276 0.84158 0.82505 0.0
O98 O 0.21064 0.86431 0.17841 0.0
H99 H 0.21728 0.94809 0.78241 0.0
H100 H 0.58487 1.00651 0.56005 0.0
H101 H 0.12228 0.95304 0.92825 0.0
Zn102 Zn 0.49987 0.17175 0.9355 0.0
C103 C 0.36137 0.024 0.21152 0.0
N104 N 0.35156 0.98243 1.06176 0.0
C105 C 0.38155 0.02468 0.91182 0.0
N106 N 0.41142 0.08895 0.97644 0.0
N107 N 0.39175 0.08753 0.14789 0.0
C108 C 0.42244 0.18953 0.48278 0.0
O109 O 0.46352 0.18814 0.36129 0.0
O110 O 0.49696 0.19822 0.69747 0.0
Zn111 Zn 0.36117 0.15183 0.18535 0.0
N112 N 0.57186 0.15142 0.9411 0.0
C113 C 0.60424 0.0708 1.00697 0.0
C114 C 0.55733 0.09166 1.01558 0.0
C115 C 0.63245 0.1922 0.86025 0.0
N116 N 0.66414 0.11085 0.92567 0.0
C117 C 0.68027 0.17138 0.85192 0.0
O118 O 0.42342 0.2485 1.10695 0.0
C119 C 0.48685 0.28496 1.1082 0.0
O120 O 0.52428 0.25974 1.07721 0.0
H121 H 0.50921 0.05994 1.07867 0.0
H122 H 0.64267 0.23945 0.80133 0.0
C123 C 0.23732 0.14667 0.18223 0.0
C124 C 0.18148 0.14459 1.09999 0.0
C125 C 0.19855 0.09572 0.83362 0.0
C126 C 0.25441 0.09804 0.91596 0.0
N127 N 0.27352 0.12497 1.08692 0.0
N128 N 0.16396 0.11993 0.92615 0.0
H129 H 0.25508 0.17038 0.31493 0.0
C130 C 0.44388 0.19937 0.66689 0.0
O131 O 0.40085 0.18792 0.79837 0.0
O132 O 0.36117 0.16521 0.44499 0.0
H133 H 0.28394 0.08151 0.8408 0.0
H134 H 0.59318 0.02303 1.0639 0.0
H135 H 0.18396 0.07663 0.69512 0.0
Zn136 Zn 0.88175 0.22027 0.8527 0.0
C137 C 1.00882 0.36779 0.57875 0.0
N138 N 0.05109 0.38014 0.72881 0.0
C139 C 1.00953 0.34832 0.8785 0.0
N140 N 0.94604 0.3151 0.81457 0.0
N141 N 0.94452 0.33322 0.64302 0.0
C142 C 0.83411 0.25549 0.33385 0.0
O143 O 0.84537 0.22378 0.46541 0.0
O144 O 0.86844 0.20704 1.11235 0.0
Zn145 Zn 0.86173 0.33897 0.60267 0.0
N146 N 0.90856 0.15946 0.75444 0.0
C147 C 0.93783 0.11376 0.50123 0.0
C148 C 0.93548 0.16728 0.5835 0.0
C149 C 0.8869 0.10158 0.8498 0.0
N150 N 0.91363 0.05497 0.59378 0.0
C151 C 0.88898 0.04782 0.76761 0.0
O152 O 0.77375 0.27535 0.74427 0.0
C153 C 0.74857 0.21272 0.77542 0.0
O154 O 0.78504 0.18578 0.77441 0.0
H155 H 0.95197 0.21333 0.50831 0.0
H156 H 0.8632 0.09563 0.98249 0.0
C157 C 0.84131 0.45108 0.52747 0.0
C158 C 0.86214 0.51972 0.51902 0.0
C159 C 0.96276 0.5443 0.67409 0.0
C160 C 0.94188 0.47652 0.68281 0.0
N161 N 0.88211 0.43129 0.60836 0.0
N162 N 0.92269 0.56412 0.59273 0.0
H163 H 0.79405 0.41404 0.46857 0.0
C164 C 0.8441 0.24398 0.14983 0.0
O165 O 0.84554 0.28645 1.02825 0.0
O166 O 0.83518 0.30967 0.36456 0.0
H167 H 0.97362 0.46012 0.74593 0.0
H168 H 0.9569 0.11827 0.36274 0.0
H169 H 1.01055 0.58101 0.73098 0.0
Zn170 Zn 0.6945 0.53358 0.26978 0.0
C171 C 0.68525 0.67207 0.54619 0.0
N172 N 0.65354 0.68195 0.39639 0.0
C173 C 0.66575 0.65191 0.24645 0.0
N174 N 0.70006 0.62195 0.3111 0.0
N175 N 0.71832 0.64161 0.48259 0.0
C176 C 0.78982 0.61112 0.81732 0.0
O177 O 0.74742 0.56998 0.69576 0.0
O178 O 0.72397 0.53663 1.03186 0.0
Zn179 Zn 0.81325 0.67228 0.51987 0.0
N180 N 0.60219 0.46156 0.27489 0.0
C181 C 0.48915 0.42915 0.34028 0.0
C182 C 0.55693 0.47605 0.34928 0.0
C183 C 0.58241 0.40101 0.19375 0.0
N184 N 0.46935 0.36931 0.25869 0.0
C185 C 0.51377 0.35321 0.18502 0.0
O186 O 0.84772 0.61006 0.44148 0.0
C187 C 0.82077 0.54664 0.44243 0.0
O188 O 0.75812 0.50919 0.41143 0.0
H189 H 0.5733 0.52414 0.4126 0.0
H190 H 0.61947 0.39083 1.13489 0.0
C191 C 0.93195 0.7961 0.51644 0.0
C192 C 0.98565 0.85194 0.43413 0.0
C193 C 0.9195 0.8349 0.16813 0.0
C194 C 0.86602 0.77905 0.25056 0.0
N195 N 0.87397 0.75992 0.42136 0.0
N196 N 0.97838 0.86948 0.26043 0.0
H197 H 0.938 0.77834 0.64902 0.0
C198 C 0.77819 0.58973 1.00143 0.0
O199 O 0.80971 0.63277 1.13298 0.0
O200 O 0.82671 0.67239 0.77953 0.0
H201 H 0.8199 0.74953 0.17558 0.0
H202 H 0.45242 0.4402 0.39712 0.0
H203 H 0.9149 0.84948 1.02972 0.0
loop_
_geom_bond_atom_site_label_1
_geom_bond_atom_site_label_2
_geom_bond_distance
_geom_bond_site_symmetry_2
_ccdc_geom_bond_type
Zn0 N4 2.020 1_556 S
Zn0 O8 2.019 . S
Zn0 N10 2.119 1_556 S
Zn0 O18 1.975 1_556 S
C1 N2 1.334 1_455 S
C1 N5 1.336 . S
N2 C1 1.334 1_655 S
N2 C3 1.334 1_655 S
C3 N2 1.334 1_455 S
C3 N4 1.336 . S
N4 Zn0 2.020 1_554 S
N4 C3 1.336 . S
N4 N5 1.354 . S
N5 C1 1.336 . S
N5 N4 1.354 . S
N5 Zn9 2.020 . S
C6 O7 1.244 . S
C6 O30 1.257 . S
O7 C6 1.244 . S
O8 Zn0 2.019 . S
O8 C28 1.257 . S
Zn9 N5 2.020 . S
Zn9 O16 1.975 . S
Zn9 N25 2.119 . S
Zn9 O30 2.019 . S
N10 Zn0 2.119 1_554 S
N10 C12 1.334 . S
N10 C13 1.328 1_554 S
C11 C12 1.391 . S
C11 N14 1.329 . S
C11 H32 0.930 . S
C12 N10 1.334 . S
C12 C11 1.391 . S
C12 H19 0.930 . S
C13 N10 1.328 1_556 S
C13 C15 1.392 . S
C13 H20 0.930 . S
N14 C11 1.329 . S
N14 C15 1.331 1_554 S
C15 C13 1.392 . S
C15 N14 1.331 1_556 S
O16 Zn9 1.975 . S
O16 C17 1.252 . S
C17 O16 1.252 . S
C17 O18 1.252 . S
O18 Zn0 1.975 1_554 S
O18 C17 1.252 . S
H19 C12 0.930 . S
H20 C13 0.930 . S
C21 C22 1.392 . S
C21 N25 1.328 . S
C21 H27 0.930 . S
C22 C21 1.392 . S
C22 N26 1.331 . S
C23 C24 1.391 . S
C23 N26 1.329 . S
C23 H33 0.930 . S
C24 C23 1.391 . S
C24 N25 1.334 . S
C24 H31 0.930 . S
N25 Zn9 2.119 . S
N25 C21 1.328 . S
N25 C24 1.334 . S
N26 C22 1.331 . S
N26 C23 1.329 . S
H27 C21 0.930 . S
C28 O8 1.257 . S
C28 O29 1.244 . S
O29 C28 1.244 . S
O30 C6 1.257 . S
O30 Zn9 2.019 . S
H31 C24 0.930 . S
H32 C11 0.930 . S
H33 C23 0.930 . S
Zn34 N38 2.020 . S
Zn34 O42 2.019 . S
Zn34 N44 2.119 . S
Zn34 O52 1.975 . S
C35 N36 1.334 . S
C35 N39 1.336 . S
N36 C35 1.334 . S
N36 C37 1.334 . S
C37 N36 1.334 . S
C37 N38 1.336 . S
N38 Zn34 2.020 . S
N38 C37 1.336 . S
N38 N39 1.354 . S
N39 C35 1.336 . S
N39 N38 1.354 . S
N39 Zn43 2.020 1_556 S
C40 O41 1.244 . S
C40 O64 1.257 . S
O41 C40 1.244 . S
O42 Zn34 2.019 . S
O42 C62 1.257 . S
Zn43 N39 2.020 1_554 S
Zn43 O50 1.975 1_554 S
Zn43 N59 2.119 1_554 S
Zn43 O64 2.019 . S
N44 Zn34 2.119 . S
N44 C46 1.334 . S
N44 C47 1.328 . S
C45 C46 1.391 . S
C45 N48 1.329 . S
C45 H66 0.930 . S
C46 N44 1.334 . S
C46 C45 1.391 . S
C46 H53 0.930 . S
C47 N44 1.328 . S
C47 C49 1.392 . S
C47 H54 0.930 . S
N48 C45 1.329 . S
N48 C49 1.331 . S
C49 C47 1.392 . S
C49 N48 1.331 . S
O50 Zn43 1.975 1_556 S
O50 C51 1.252 . S
C51 O50 1.252 . S
C51 O52 1.252 . S
O52 Zn34 1.975 . S
O52 C51 1.252 . S
H53 C46 0.930 . S
H54 C47 0.930 . S
C55 C56 1.392 . S
C55 N59 1.328 1_554 S
C55 H61 0.930 . S
C56 C55 1.392 . S
C56 N60 1.331 1_554 S
C57 C58 1.391 . S
C57 N60 1.329 . S
C57 H67 0.930 . S
C58 C57 1.391 . S
C58 N59 1.334 . S
C58 H65 0.930 . S
N59 Zn43 2.119 1_556 S
N59 C55 1.328 1_556 S
N59 C58 1.334 . S
N60 C56 1.331 1_556 S
N60 C57 1.329 . S
H61 C55 0.930 . S
C62 O42 1.257 . S
C62 O63 1.244 . S
O63 C62 1.244 . S
O64 C40 1.257 . S
O64 Zn43 2.019 . S
H65 C58 0.930 . S
H66 C45 0.930 . S
H67 C57 0.930 . S
Zn68 N72 2.020 . S
Zn68 O76 2.019 . S
Zn68 N78 2.119 . S
Zn68 O86 1.975 . S
C69 N70 1.334 1_565 S
C69 N73 1.336 . S
N70 C69 1.334 1_545 S
N70 C71 1.334 1_545 S
C71 N70 1.334 1_565 S
C71 N72 1.336 . S
N72 Zn68 2.020 . S
N72 C71 1.336 . S
N72 N73 1.354 . S
N73 C69 1.336 . S
N73 N72 1.354 . S
N73 Zn77 2.020 . S
C74 O75 1.244 . S
C74 O98 1.257 . S
O75 C74 1.244 . S
O76 Zn68 2.019 . S
O76 C96 1.257 . S
Zn77 N73 2.020 . S
Zn77 O84 1.975 . S
Zn77 N93 2.119 . S
Zn77 O98 2.019 . S
N78 Zn68 2.119 . S
N78 C80 1.334 . S
N78 C81 1.328 . S
C79 C80 1.391 . S
C79 N82 1.329 . S
C79 H100 0.930 . S
C80 N78 1.334 . S
C80 C79 1.391 . S
C80 H87 0.930 . S
C81 N78 1.328 . S
C81 C83 1.392 . S
C81 H88 0.930 . S
N82 C79 1.329 . S
N82 C83 1.331 . S
C83 C81 1.392 . S
C83 N82 1.331 . S
O84 Zn77 1.975 . S
O84 C85 1.252 . S
C85 O84 1.252 . S
C85 O86 1.252 . S
O86 Zn68 1.975 . S
O86 C85 1.252 . S
H87 C80 0.930 . S
H88 C81 0.930 . S
C89 C90 1.392 . S
C89 N93 1.328 . S
C89 H95 0.930 . S
C90 C89 1.392 . S
C90 N94 1.331 . S
C91 C92 1.391 . S
C91 N94 1.329 . S
C91 H101 0.930 . S
C92 C91 1.391 . S
C92 N93 1.334 . S
C92 H99 0.930 . S
N93 Zn77 2.119 . S
N93 C89 1.328 . S
N93 C92 1.334 . S
N94 C90 1.331 . S
N94 C91 1.329 . S
H95 C89 0.930 . S
C96 O76 1.257 . S
C96 O97 1.244 . S
O97 C96 1.244 . S
O98 C74 1.257 . S
O98 Zn77 2.019 . S
H99 C92 0.930 . S
H100 C79 0.930 . S
H101 C91 0.930 . S
Zn102 N106 2.020 . S
Zn102 O110 2.019 . S
Zn102 N112 2.119 . S
Zn102 O120 1.975 . S
C103 N104 1.334 1_545 S
C103 N107 1.336 . S
N104 C103 1.334 1_565 S
N104 C105 1.334 1_565 S
C105 N104 1.334 1_545 S
C105 N106 1.336 . S
N106 Zn102 2.020 . S
N106 C105 1.336 . S
N106 N107 1.354 . S
N107 C103 1.336 . S
N107 N106 1.354 . S
N107 Zn111 2.020 1_556 S
C108 O109 1.244 . S
C108 O132 1.257 . S
O109 C108 1.244 . S
O110 Zn102 2.019 . S
O110 C130 1.257 . S
Zn111 N107 2.020 1_554 S
Zn111 O118 1.975 1_554 S
Zn111 N127 2.119 1_554 S
Zn111 O132 2.019 . S
N112 Zn102 2.119 . S
N112 C114 1.334 . S
N112 C115 1.328 . S
C113 C114 1.391 . S
C113 N116 1.329 . S
C113 H134 0.930 . S
C114 N112 1.334 . S
C114 C113 1.391 . S
C114 H121 0.930 . S
C115 N112 1.328 . S
C115 C117 1.392 . S
C115 H122 0.930 . S
N116 C113 1.329 . S
N116 C117 1.331 . S
C117 C115 1.392 . S
C117 N116 1.331 . S
O118 Zn111 1.975 1_556 S
O118 C119 1.252 . S
C119 O118 1.252 . S
C119 O120 1.252 . S
O120 Zn102 1.975 . S
O120 C119 1.252 . S
H121 C114 0.930 . S
H122 C115 0.930 . S
C123 C124 1.392 . S
C123 N127 1.328 1_554 S
C123 H129 0.930 . S
C124 C123 1.392 . S
C124 N128 1.331 1_554 S
C125 C126 1.391 . S
C125 N128 1.329 . S
C125 H135 0.930 . S
C126 C125 1.391 . S
C126 N127 1.334 . S
C126 H133 0.930 . S
N127 Zn111 2.119 1_556 S
N127 C123 1.328 1_556 S
N127 C126 1.334 . S
N128 C124 1.331 1_556 S
N128 C125 1.329 . S
H129 C123 0.930 . S
C130 O110 1.257 . S
C130 O131 1.244 . S
O131 C130 1.244 . S
O132 C108 1.257 . S
O132 Zn111 2.019 . S
H133 C126 0.930 . S
H134 C113 0.930 . S
H135 C125 0.930 . S
Zn136 N140 2.020 . S
Zn136 O144 2.019 . S
Zn136 N146 2.119 . S
Zn136 O154 1.975 . S
C137 N138 1.334 1_655 S
C137 N141 1.336 . S
N138 C137 1.334 1_455 S
N138 C139 1.334 1_455 S
C139 N138 1.334 1_655 S
C139 N140 1.336 . S
N140 Zn136 2.020 . S
N140 C139 1.336 . S
N140 N141 1.354 . S
N141 C137 1.336 . S
N141 N140 1.354 . S
N141 Zn145 2.020 . S
C142 O143 1.244 . S
C142 O166 1.257 . S
O143 C142 1.244 . S
O144 Zn136 2.019 . S
O144 C164 1.257 . S
Zn145 N141 2.020 . S
Zn145 O152 1.975 . S
Zn145 N161 2.119 . S
Zn145 O166 2.019 . S
N146 Zn136 2.119 . S
N146 C148 1.334 . S
N146 C149 1.328 . S
C147 C148 1.391 . S
C147 N150 1.329 . S
C147 H168 0.930 . S
C148 N146 1.334 . S
C148 C147 1.391 . S
C148 H155 0.930 . S
C149 N146 1.328 . S
C149 C151 1.392 . S
C149 H156 0.930 . S
N150 C147 1.329 . S
N150 C151 1.331 . S
C151 C149 1.392 . S
C151 N150 1.331 . S
O152 Zn145 1.975 . S
O152 C153 1.252 . S
C153 O152 1.252 . S
C153 O154 1.252 . S
O154 Zn136 1.975 . S
O154 C153 1.252 . S
H155 C148 0.930 . S
H156 C149 0.930 . S
C157 C158 1.392 . S
C157 N161 1.328 . S
C157 H163 0.930 . S
C158 C157 1.392 . S
C158 N162 1.331 . S
C159 C160 1.391 . S
C159 N162 1.329 . S
C159 H169 0.930 . S
C160 C159 1.391 . S
C160 N161 1.334 . S
C160 H167 0.930 . S
N161 Zn145 2.119 . S
N161 C157 1.328 . S
N161 C160 1.334 . S
N162 C158 1.331 . S
N162 C159 1.329 . S
H163 C157 0.930 . S
C164 O144 1.257 . S
C164 O165 1.244 . S
O165 C164 1.244 . S
O166 C142 1.257 . S
O166 Zn145 2.019 . S
H167 C160 0.930 . S
H168 C147 0.930 . S
H169 C159 0.930 . S
Zn170 N174 2.020 1_556 S
Zn170 O178 2.019 . S
Zn170 N180 2.119 1_556 S
Zn170 O188 1.975 1_556 S
C171 N172 1.334 . S
C171 N175 1.336 . S
N172 C171 1.334 . S
N172 C173 1.334 . S
C173 N172 1.334 . S
C173 N174 1.336 . S
N174 Zn170 2.020 1_554 S
N174 C173 1.336 . S
N174 N175 1.354 . S
N175 C171 1.336 . S
N175 N174 1.354 . S
N175 Zn179 2.020 . S
C176 O177 1.244 . S
C176 O200 1.257 . S
O177 C176 1.244 . S
O178 Zn170 2.019 . S
O178 C198 1.257 . S
Zn179 N175 2.020 . S
Zn179 O186 1.975 . S
Zn179 N195 2.119 . S
Zn179 O200 2.019 . S
N180 Zn170 2.119 1_554 S
N180 C182 1.334 . S
N180 C183 1.328 1_554 S
C181 C182 1.391 . S
C181 N184 1.329 . S
C181 H202 0.930 . S
C182 N180 1.334 . S
C182 C181 1.391 . S
C182 H189 0.930 . S
C183 N180 1.328 1_556 S
C183 C185 1.392 . S
C183 H190 0.930 . S
N184 C181 1.329 . S
N184 C185 1.331 1_554 S
C185 C183 1.392 . S
C185 N184 1.331 1_556 S
O186 Zn179 1.975 . S
O186 C187 1.252 . S
C187 O186 1.252 . S
C187 O188 1.252 . S
O188 Zn170 1.975 1_554 S
O188 C187 1.252 . S
H189 C182 0.930 . S
H190 C183 0.930 . S
C191 C192 1.392 . S
C191 N195 1.328 . S
C191 H197 0.930 . S
C192 C191 1.392 . S
C192 N196 1.331 . S
C193 C194 1.391 . S
C193 N196 1.329 . S
C193 H203 0.930 . S
C194 C193 1.391 . S
C194 N195 1.334 . S
C194 H201 0.930 . S
N195 Zn179 2.119 . S
N195 C191 1.328 . S
N195 C194 1.334 . S
N196 C192 1.331 . S
N196 C193 1.329 . S
H197 C191 0.930 . S
C198 O178 1.257 . S
C198 O199 1.244 . S
O199 C198 1.244 . S
O200 C176 1.257 . S
O200 Zn179 2.019 . S
H201 C194 0.930 . S
H202 C181 0.930 . S
H203 C193 0.930 . S
C3 C139 4.301 1_454 S
C171 C37 4.301 . S
C69 C103 4.301 1_564 S
C22 C85 2.409 . S
C17 C56 2.409 . S
C51 C83 2.408 . S
C117 C153 2.409 . S
C158 C187 2.408 . S
C119 C185 2.409 . S
C137 C1 1.348 1_655 S
C173 C35 1.348 1_554 S
C105 C71 1.348 1_545 S
C15 C124 1.872 1_556 S
C49 C151 1.872 1_565 S
C192 C90 1.872 1_655 S
C6 C28 0.934 . S
C62 C40 0.934 . S
C96 C74 0.934 1_556 S
C130 C108 0.934 . S
C142 C164 0.934 1_554 S
C176 C198 0.934 . S
