# Generated by pormake.
# Topology hcp, (12)-cn, num edge types: 1
# Building blocks:
#     Node 0, Type 0, BuildingBlock: EZIPEK_clean_sbu_0, # of connection points: 12
#     Node 1, Type 0, BuildingBlock: EZIPEK_clean_sbu_0, # of connection points: 12
#     Edge 2, Type (0, 0), BuildingBlock: OJICUG_clean_linker_0, # of connection points: 2
#     Edge 3, Type (0, 0), BuildingBlock: OJICUG_clean_linker_0, # of connection points: 2
#     Edge 4, Type (0, 0), BuildingBlock: OJICUG_clean_linker_0, # of connection points: 2
#     Edge 5, Type (0, 0), BuildingBlock: OJICUG_clean_linker_0, # of connection points: 2
#     Edge 6, Type (0, 0), BuildingBlock: OJICUG_clean_linker_0, # of connection points: 2
#     Edge 7, Type (0, 0), BuildingBlock: OJICUG_clean_linker_0, # of connection points: 2
#     Edge 8, Type (0, 0), BuildingBlock: OJICUG_clean_linker_0, # of connection points: 2
#     Edge 9, Type (0, 0), BuildingBlock: OJICUG_clean_linker_0, # of connection points: 2
#     Edge 10, Type (0, 0), BuildingBlock: OJICUG_clean_linker_0, # of connection points: 2
#     Edge 11, Type (0, 0), BuildingBlock: OJICUG_clean_linker_0, # of connection points: 2
#     Edge 12, Type (0, 0), BuildingBlock: OJICUG_clean_linker_0, # of connection points: 2
#     Edge 13, Type (0, 0), BuildingBlock: OJICUG_clean_linker_0, # of connection points: 2
# Relax obj value: 0.186
# Max RMSD: 0.270
# Mean RMSD: 0.270
data_MOF--net-hcp--node1-EZIPEK_clean_sbu_0--edge1-OJICUG_clean_linker_0
_symmetry_space_group_name_H-M    P1
_symmetry_Int_Tables_number       1
_symmetry_cell_setting            triclinic
loop_
_symmetry_equiv_pos_as_xyz
'x, y, z'
_cell_length_a     14.822324
_cell_length_b     14.85338
_cell_length_c     21.877825
_cell_angle_alpha  90.055494
_cell_angle_beta   89.931112
_cell_angle_gamma 119.97815
loop_
_atom_site_label
_atom_site_type_symbol
_atom_site_fract_x
_atom_site_fract_y
_atom_site_fract_z
_atom_type_partial_charge
C0 C 0.66265 0.0192 0.32128 0.0
C1 C 0.88347 0.40625 0.15692 0.0
C2 C 0.46583 0.20589 0.49125 0.0
C3 C 0.65825 0.62875 0.3162 0.0
C4 C 0.3404 0.31944 0.31988 0.0
C5 C 0.50282 0.08969 0.16092 0.0
C6 C 0.72283 0.51549 0.49006 0.0
C7 C 0.95456 0.32518 0.31347 0.0
C8 C 0.96247 0.6372 0.3181 0.0
C9 C 0.55979 0.46896 0.16057 0.0
C10 C 0.77619 0.25953 0.49071 0.0
C11 C 0.35315 0.02297 0.31511 0.0
Eu12 Eu 0.72077 0.23397 0.24768 0.0
O13 O 0.65307 0.32478 0.21381 0.0
O14 O 0.73006 0.25233 0.34592 0.0
Eu15 Eu 0.49505 0.25538 0.24867 0.0
Eu16 Eu 0.81211 0.40954 0.38307 0.0
O17 O 0.57338 0.17896 0.28703 0.0
O18 O 0.79635 0.38939 0.28575 0.0
Eu19 Eu 0.5798 0.16707 0.38455 0.0
Eu20 Eu 0.7434 0.48379 0.24672 0.0
O21 O 0.50436 0.24884 0.34693 0.0
O22 O 0.58874 0.40384 0.28628 0.0
O23 O 0.72696 0.47522 0.34523 0.0
O24 O 0.65403 0.32583 0.41276 0.0
Eu25 Eu 0.57006 0.4002 0.38377 0.0
O26 O 0.70403 0.07996 0.27267 0.0
O27 O 0.81542 0.30645 0.16487 0.0
O28 O 0.50821 0.30817 0.47745 0.0
O29 O 0.59455 0.55706 0.35621 0.0
O30 O 0.35945 0.27602 0.27218 0.0
O31 O 0.47243 0.15897 0.16696 0.0
O32 O 0.78284 0.47301 0.47641 0.0
O33 O 0.94495 0.38601 0.35488 0.0
O34 O 0.90127 0.61765 0.26967 0.0
O35 O 0.66133 0.5147 0.1713 0.0
O36 O 0.67355 0.19882 0.47762 0.0
O37 O 0.42336 0.03328 0.35696 0.0
O38 O 0.65833 0.52059 0.45133 0.0
O39 O 0.40482 0.365 0.36686 0.0
O40 O 0.88296 0.26437 0.27221 0.0
O41 O 0.59089 0.10088 0.18669 0.0
O42 O 0.87223 0.48374 0.18202 0.0
O43 O 0.71991 0.61818 0.27535 0.0
O44 O 0.6171 0.03848 0.36821 0.0
O45 O 0.45964 0.13599 0.45235 0.0
O46 O 0.36384 0.09401 0.27363 0.0
O47 O 0.48781 0.37503 0.18234 0.0
O48 O 0.84524 0.3228 0.45127 0.0
O49 O 0.94195 0.574 0.36582 0.0
C50 C 0.3193 0.34882 0.81909 0.0
C51 C 0.09171 0.51053 0.65838 0.0
C52 C 0.52198 0.7333 0.97835 0.0
C53 C 0.31897 0.96013 0.81486 0.0
C54 C 0.25454 0.77602 0.99259 0.0
C55 C 0.02313 0.35826 0.81365 0.0
C56 C 0.63563 0.96856 0.81941 0.0
C57 C 0.47368 0.58197 0.65775 0.0
C58 C 0.40127 0.89174 0.65901 0.0
C59 C 0.01279 0.66285 0.8189 0.0
C60 C 0.62054 0.65495 0.81118 0.0
C61 C 0.20393 0.47282 0.98953 0.0
Eu62 Eu 0.256 0.50281 0.7462 0.0
O63 O 0.17834 0.57979 0.78575 0.0
O64 O 0.40213 0.5975 0.78506 0.0
Eu65 Eu 0.16433 0.58488 0.88321 0.0
Eu66 Eu 0.4801 0.7525 0.74663 0.0
O67 O 0.24933 0.51409 0.84395 0.0
O68 O 0.32194 0.66112 0.71314 0.0
Eu69 Eu 0.39934 0.57872 0.88234 0.0
Eu70 Eu 0.2303 0.72707 0.74768 0.0
O71 O 0.32272 0.66031 0.91284 0.0
O72 O 0.24805 0.73634 0.84612 0.0
O73 O 0.38534 0.80463 0.78656 0.0
O74 O 0.46968 0.73474 0.84434 0.0
Eu75 Eu 0.4054 0.81961 0.88423 0.0
O76 O 0.27666 0.36776 0.7709 0.0
O77 O 0.16357 0.48323 0.66325 0.0
O78 O 0.4684 0.78441 0.97617 0.0
O79 O 0.37925 0.95072 0.85677 0.0
O80 O 0.19491 0.67409 0.97794 0.0
O81 O 0.03259 0.42801 0.85553 0.0
O82 O 0.61639 0.90713 0.77115 0.0
O83 O 0.50143 0.68103 0.66338 0.0
O84 O 0.30197 0.82071 0.66483 0.0
O85 O 0.0744 0.7058 0.7709 0.0
O86 O 0.54984 0.59234 0.85197 0.0
O87 O 0.30744 0.52066 0.9773 0.0
O88 O 0.57115 0.94933 0.86665 0.0
O89 O 0.31643 0.84744 0.95377 0.0
O90 O 0.38765 0.50401 0.68459 0.0
O91 O 0.09434 0.37009 0.7716 0.0
O92 O 0.09946 0.59594 0.68589 0.0
O93 O 0.25944 0.88882 0.77298 0.0
O94 O 0.36471 0.41348 0.86615 0.0
O95 O 0.54034 0.70335 0.92671 0.0
O96 O 0.13486 0.46226 0.94871 0.0
O97 O 0.03297 0.6188 0.86623 0.0
O98 O 0.61089 0.71918 0.77176 0.0
O99 O 0.47937 0.8833 0.68542 0.0
C100 C 0.26195 0.90031 1.069 0.0
C101 C 0.27946 0.8179 1.05598 0.0
H102 H 0.31809 0.04945 0.10887 0.0
C103 C 0.36481 0.81879 0.08563 0.0
H104 H 0.19924 0.9046 1.04631 0.0
C105 C 0.43755 0.90518 0.12022 0.0
C106 C 0.42599 -0.00714 0.12698 0.0
H107 H 0.38181 0.75734 0.07694 0.0
H108 H 0.50469 0.9049 0.13943 0.0
C109 C 0.33364 0.986 0.10345 0.0
C110 C 0.54347 0.46578 0.6191 0.0
C111 C 0.55149 0.5637 0.62361 0.0
H112 H 0.60149 0.37516 0.57743 0.0
C113 C 0.64109 0.64924 0.59778 0.0
H114 H 0.47838 0.39838 0.63982 0.0
C115 C 0.71354 0.63579 0.56345 0.0
C116 C 0.69942 0.5364 0.55298 0.0
H117 H 0.65359 0.72737 0.60134 0.0
H118 H 0.77378 0.70203 0.53894 0.0
C119 C 0.61687 0.45294 0.58474 0.0
C120 C 0.98033 0.34029 0.09265 0.0
C121 C 0.97935 0.42545 0.1213 0.0
H122 H 0.05827 0.28673 1.03299 0.0
C123 C 0.07281 0.52159 0.11967 0.0
H124 H 0.91219 0.2634 0.09353 0.0
C125 C 0.15985 0.53308 0.08596 0.0
C126 C 0.1558 0.45037 1.05176 0.0
H127 H 0.07806 0.58839 0.14299 0.0
H128 H 0.22697 0.60917 0.08194 0.0
C129 C 0.06655 0.35239 1.05924 0.0
C130 C 0.51757 0.07739 0.61989 0.0
C131 C 0.41946 0.98762 0.62489 0.0
H132 H 0.60782 0.22573 0.57794 0.0
C133 C 0.33344 -0.00846 0.59956 0.0
H134 H 0.58537 0.07989 0.64022 0.0
C135 C 0.34649 0.07701 0.56524 0.0
C136 C 0.44595 0.16211 0.55425 0.0
H137 H 0.25514 0.92608 0.60349 0.0
H138 H 0.27976 0.0708 0.54114 0.0
C139 C 0.53001 0.1633 0.58554 0.0
C140 C 0.54293 0.62669 0.13594 0.0
C141 C 0.52872 0.52816 0.11915 0.0
H142 H 0.55009 0.76924 0.10612 0.0
C143 C 0.50672 0.49749 1.05846 0.0
H144 H 0.56347 0.6537 0.18257 0.0
C145 C 0.5035 0.56442 1.01504 0.0
C146 C 0.51683 0.66358 1.0304 0.0
H147 H 0.49878 0.42422 1.04362 0.0
H148 H 0.49095 0.53702 0.96833 0.0
C149 C 0.53545 0.6932 0.09221 0.0
C150 C 0.81971 0.36702 0.58483 0.0
C151 C 0.82118 0.28446 0.55344 0.0
H152 H 0.90274 0.5055 0.63981 0.0
C153 C 0.90682 0.2708 0.56414 0.0
H154 H 0.75698 0.38196 0.57728 0.0
C155 C -0.00772 0.34331 0.59855 0.0
C156 C -0.00427 0.43275 0.6242 0.0
H157 H 0.91331 0.21063 0.53987 0.0
H158 H 0.05807 0.33089 0.60232 0.0
C159 C 0.90556 0.44054 0.61932 0.0
C160 C 0.61036 0.84517 0.36635 0.0
C161 C 0.66514 0.92113 0.32175 0.0
H162 H 0.56487 0.6935 0.39958 0.0
C163 C 0.71926 0.90087 0.27586 0.0
H164 H 0.56767 0.85804 0.40225 0.0
C165 C 0.71753 0.80626 0.27416 0.0
C166 C 0.66134 0.7296 0.31817 0.0
H167 H 0.7626 0.95771 0.24076 0.0
H168 H 0.75941 0.7931 0.23788 0.0
C169 C 0.60834 0.75039 0.36454 0.0
C170 C 0.8391 0.61284 0.86413 0.0
C171 C 0.91308 0.66225 0.81779 0.0
H172 H 0.6888 0.57151 0.89835 0.0
C173 C 0.88963 0.70852 0.76872 0.0
H174 H 0.85439 0.57617 0.90238 0.0
C175 C 0.7943 0.70546 0.76609 0.0
C176 C 0.72037 0.656 0.81241 0.0
H177 H 0.94461 0.74703 0.73192 0.0
H178 H 0.77867 0.7416 0.72767 0.0
C179 C 0.7437 0.60965 0.86146 0.0
C180 C 0.22688 0.856 0.36566 0.0
C181 C 0.25357 0.92408 0.31564 0.0
H182 H 0.11394 0.71258 0.40602 0.0
C183 C 0.18359 0.8974 0.26674 0.0
H184 H 0.27875 0.87452 0.40436 0.0
C185 C 0.08886 0.80456 0.26781 0.0
C186 C 0.06196 0.73645 0.31788 0.0
H187 H 0.20195 0.94782 0.22737 0.0
H188 H 0.03709 0.78635 0.22909 0.0
C189 C 0.13201 0.7632 0.3668 0.0
C190 C 0.27312 0.1794 0.76931 0.0
C191 C 0.31721 0.24836 0.81895 0.0
H192 H 0.23957 0.03497 0.72878 0.0
C193 C 0.36107 0.22119 0.86725 0.0
H194 H 0.2388 0.19772 0.73106 0.0
C195 C 0.36141 0.12754 0.86579 0.0
C196 C 0.31784 0.05891 0.81601 0.0
H197 H 0.39564 0.27226 0.90615 0.0
H198 H 0.3957 0.10909 0.90401 0.0
C199 C 0.27338 0.08572 0.76789 0.0
C200 C 0.17112 0.27348 0.26994 0.0
C201 C 0.24064 0.31893 0.31917 0.0
H202 H 0.027 0.24063 0.22912 0.0
C203 C 0.21518 0.36639 0.36632 0.0
H204 H 0.18823 0.23644 0.2326 0.0
C205 C 0.1225 0.36881 0.36419 0.0
C206 C 0.0532 0.32368 0.31486 0.0
H207 H 0.26688 0.40225 0.40483 0.0
H208 H 0.1052 0.40567 0.40156 0.0
C209 C 0.07841 0.27583 0.26783 0.0
C210 C 0.89767 0.18677 0.76706 0.0
C211 C 0.92464 0.25808 0.81518 0.0
H212 H 0.78587 0.03974 0.73064 0.0
C213 C 0.85671 0.23259 0.86545 0.0
H214 H 0.94794 0.20402 0.72762 0.0
C215 C 0.76347 0.13814 0.86733 0.0
C216 C 0.73605 0.0671 0.819 0.0
H217 H 0.87544 0.28534 0.9037 0.0
H218 H 0.71287 0.12133 0.90656 0.0
C219 C 0.80441 0.09236 0.76893 0.0
loop_
_geom_bond_atom_site_label_1
_geom_bond_atom_site_label_2
_geom_bond_distance
_geom_bond_site_symmetry_2
_ccdc_geom_bond_type
C0 O26 1.283 . S
C0 O44 1.283 . S
C1 O27 1.283 . S
C1 O42 1.283 . S
C2 O28 1.283 . S
C2 O45 1.283 . S
C3 O29 1.283 . S
C3 O43 1.283 . S
C4 O30 1.283 . S
C4 O39 1.283 . S
C5 O31 1.283 . S
C5 O41 1.283 . S
C6 O32 1.283 . S
C6 O38 1.283 . S
C7 O33 1.283 1_455 S
C7 O40 1.283 1_455 S
C8 O34 1.283 . S
C8 O49 1.283 . S
C9 O35 1.283 . S
C9 O47 1.283 . S
C10 O36 1.283 . S
C10 O48 1.283 . S
C11 O37 1.283 1_565 S
C11 O46 1.283 1_565 S
Eu12 O13 2.370 . S
Eu12 O14 2.370 . S
Eu12 O17 2.370 . S
Eu12 O18 2.370 . S
Eu12 O26 2.363 . S
Eu12 O27 2.363 . S
Eu12 O40 2.363 . S
Eu12 O41 2.363 . S
O13 Eu12 2.370 . S
O13 Eu15 2.370 . S
O13 Eu20 2.370 . S
O14 Eu12 2.370 . S
O14 Eu16 2.370 . S
O14 Eu19 2.370 . S
Eu15 O13 2.370 . S
Eu15 O17 2.370 . S
Eu15 O21 2.370 . S
Eu15 O22 2.370 . S
Eu15 O30 2.363 . S
Eu15 O31 2.363 . S
Eu15 O46 2.363 . S
Eu15 O47 2.363 . S
Eu16 O14 2.370 . S
Eu16 O18 2.370 . S
Eu16 O23 2.370 . S
Eu16 O24 2.370 . S
Eu16 O32 2.363 . S
Eu16 O33 2.363 . S
Eu16 O48 2.363 . S
Eu16 O49 2.363 . S
O17 Eu12 2.370 . S
O17 Eu15 2.370 . S
O17 Eu19 2.370 . S
O18 Eu12 2.370 . S
O18 Eu16 2.370 . S
O18 Eu20 2.370 . S
Eu19 O14 2.370 . S
Eu19 O17 2.370 . S
Eu19 O21 2.370 . S
Eu19 O24 2.370 . S
Eu19 O36 2.363 . S
Eu19 O37 2.363 . S
Eu19 O44 2.363 . S
Eu19 O45 2.363 . S
Eu20 O13 2.370 . S
Eu20 O18 2.370 . S
Eu20 O22 2.370 . S
Eu20 O23 2.370 . S
Eu20 O34 2.363 . S
Eu20 O35 2.363 . S
Eu20 O42 2.363 . S
Eu20 O43 2.363 . S
O21 Eu15 2.370 . S
O21 Eu19 2.370 . S
O21 Eu25 2.370 . S
O22 Eu15 2.370 . S
O22 Eu20 2.370 . S
O22 Eu25 2.370 . S
O23 Eu16 2.370 . S
O23 Eu20 2.370 . S
O23 Eu25 2.370 . S
O24 Eu16 2.370 . S
O24 Eu19 2.370 . S
O24 Eu25 2.370 . S
Eu25 O21 2.370 . S
Eu25 O22 2.370 . S
Eu25 O23 2.370 . S
Eu25 O24 2.370 . S
Eu25 O28 2.363 . S
Eu25 O29 2.363 . S
Eu25 O38 2.363 . S
Eu25 O39 2.363 . S
O26 C0 1.283 . S
O26 Eu12 2.363 . S
O27 C1 1.283 . S
O27 Eu12 2.363 . S
O28 C2 1.283 . S
O28 Eu25 2.363 . S
O29 C3 1.283 . S
O29 Eu25 2.363 . S
O30 C4 1.283 . S
O30 Eu15 2.363 . S
O31 C5 1.283 . S
O31 Eu15 2.363 . S
O32 C6 1.283 . S
O32 Eu16 2.363 . S
O33 C7 1.283 1_655 S
O33 Eu16 2.363 . S
O34 C8 1.283 . S
O34 Eu20 2.363 . S
O35 C9 1.283 . S
O35 Eu20 2.363 . S
O36 C10 1.283 . S
O36 Eu19 2.363 . S
O37 C11 1.283 1_545 S
O37 Eu19 2.363 . S
O38 C6 1.283 . S
O38 Eu25 2.363 . S
O39 C4 1.283 . S
O39 Eu25 2.363 . S
O40 C7 1.283 1_655 S
O40 Eu12 2.363 . S
O41 C5 1.283 . S
O41 Eu12 2.363 . S
O42 C1 1.283 . S
O42 Eu20 2.363 . S
O43 C3 1.283 . S
O43 Eu20 2.363 . S
O44 C0 1.283 . S
O44 Eu19 2.363 . S
O45 C2 1.283 . S
O45 Eu19 2.363 . S
O46 C11 1.283 1_545 S
O46 Eu15 2.363 . S
O47 C9 1.283 . S
O47 Eu15 2.363 . S
O48 C10 1.283 . S
O48 Eu16 2.363 . S
O49 C8 1.283 . S
O49 Eu16 2.363 . S
C50 O76 1.283 . S
C50 O94 1.283 . S
C51 O77 1.283 . S
C51 O92 1.283 . S
C52 O78 1.283 . S
C52 O95 1.283 . S
C53 O79 1.283 1_545 S
C53 O93 1.283 1_545 S
C54 O80 1.283 . S
C54 O89 1.283 . S
C55 O81 1.283 1_655 S
C55 O91 1.283 1_655 S
C56 O82 1.283 . S
C56 O88 1.283 . S
C57 O83 1.283 . S
C57 O90 1.283 . S
C58 O84 1.283 . S
C58 O99 1.283 . S
C59 O85 1.283 . S
C59 O97 1.283 . S
C60 O86 1.283 . S
C60 O98 1.283 . S
C61 O87 1.283 . S
C61 O96 1.283 . S
Eu62 O63 2.370 . S
Eu62 O64 2.370 . S
Eu62 O67 2.370 . S
Eu62 O68 2.370 . S
Eu62 O76 2.363 . S
Eu62 O77 2.363 . S
Eu62 O90 2.363 . S
Eu62 O91 2.363 . S
O63 Eu62 2.370 . S
O63 Eu65 2.370 . S
O63 Eu70 2.370 . S
O64 Eu62 2.370 . S
O64 Eu66 2.370 . S
O64 Eu69 2.370 . S
Eu65 O63 2.370 . S
Eu65 O67 2.370 . S
Eu65 O71 2.370 . S
Eu65 O72 2.370 . S
Eu65 O80 2.363 . S
Eu65 O81 2.363 . S
Eu65 O96 2.363 . S
Eu65 O97 2.363 . S
Eu66 O64 2.370 . S
Eu66 O68 2.370 . S
Eu66 O73 2.370 . S
Eu66 O74 2.370 . S
Eu66 O82 2.363 . S
Eu66 O83 2.363 . S
Eu66 O98 2.363 . S
Eu66 O99 2.363 . S
O67 Eu62 2.370 . S
O67 Eu65 2.370 . S
O67 Eu69 2.370 . S
O68 Eu62 2.370 . S
O68 Eu66 2.370 . S
O68 Eu70 2.370 . S
Eu69 O64 2.370 . S
Eu69 O67 2.370 . S
Eu69 O71 2.370 . S
Eu69 O74 2.370 . S
Eu69 O86 2.363 . S
Eu69 O87 2.363 . S
Eu69 O94 2.363 . S
Eu69 O95 2.363 . S
Eu70 O63 2.370 . S
Eu70 O68 2.370 . S
Eu70 O72 2.370 . S
Eu70 O73 2.370 . S
Eu70 O84 2.363 . S
Eu70 O85 2.363 . S
Eu70 O92 2.363 . S
Eu70 O93 2.363 . S
O71 Eu65 2.370 . S
O71 Eu69 2.370 . S
O71 Eu75 2.370 . S
O72 Eu65 2.370 . S
O72 Eu70 2.370 . S
O72 Eu75 2.370 . S
O73 Eu66 2.370 . S
O73 Eu70 2.370 . S
O73 Eu75 2.370 . S
O74 Eu66 2.370 . S
O74 Eu69 2.370 . S
O74 Eu75 2.370 . S
Eu75 O71 2.370 . S
Eu75 O72 2.370 . S
Eu75 O73 2.370 . S
Eu75 O74 2.370 . S
Eu75 O78 2.363 . S
Eu75 O79 2.363 . S
Eu75 O88 2.363 . S
Eu75 O89 2.363 . S
O76 C50 1.283 . S
O76 Eu62 2.363 . S
O77 C51 1.283 . S
O77 Eu62 2.363 . S
O78 C52 1.283 . S
O78 Eu75 2.363 . S
O79 C53 1.283 1_565 S
O79 Eu75 2.363 . S
O80 C54 1.283 . S
O80 Eu65 2.363 . S
O81 C55 1.283 1_455 S
O81 Eu65 2.363 . S
O82 C56 1.283 . S
O82 Eu66 2.363 . S
O83 C57 1.283 . S
O83 Eu66 2.363 . S
O84 C58 1.283 . S
O84 Eu70 2.363 . S
O85 C59 1.283 . S
O85 Eu70 2.363 . S
O86 C60 1.283 . S
O86 Eu69 2.363 . S
O87 C61 1.283 . S
O87 Eu69 2.363 . S
O88 C56 1.283 . S
O88 Eu75 2.363 . S
O89 C54 1.283 . S
O89 Eu75 2.363 . S
O90 C57 1.283 . S
O90 Eu62 2.363 . S
O91 C55 1.283 1_455 S
O91 Eu62 2.363 . S
O92 C51 1.283 . S
O92 Eu70 2.363 . S
O93 C53 1.283 1_565 S
O93 Eu70 2.363 . S
O94 C50 1.283 . S
O94 Eu69 2.363 . S
O95 C52 1.283 . S
O95 Eu69 2.363 . S
O96 C61 1.283 . S
O96 Eu65 2.363 . S
O97 C59 1.283 . S
O97 Eu65 2.363 . S
O98 C60 1.283 . S
O98 Eu66 2.363 . S
O99 C58 1.283 . S
O99 Eu66 2.363 . S
C100 C101 1.387 . S
C100 H104 0.950 1_565 S
C100 C109 1.390 1_566 S
C101 C100 1.387 . S
C101 C103 1.387 . S
H102 C109 0.950 . S
C103 C101 1.387 . S
C103 C105 1.390 1_556 S
C103 H107 0.950 . S
H104 C100 0.950 1_545 S
C105 C103 1.390 1_554 S
C105 C106 1.387 1_565 S
C105 H108 0.950 . S
C106 C105 1.387 1_545 S
C106 C109 1.387 . S
H107 C103 0.950 . S
H108 C105 0.950 . S
C109 C100 1.390 1_544 S
C109 H102 0.950 . S
C109 C106 1.387 . S
C110 C111 1.387 . S
C110 H114 0.950 . S
C110 C119 1.390 . S
C111 C110 1.387 . S
C111 C113 1.387 . S
H112 C119 0.950 . S
C113 C111 1.387 . S
C113 C115 1.390 . S
C113 H117 0.950 . S
H114 C110 0.950 . S
C115 C113 1.390 . S
C115 C116 1.387 . S
C115 H118 0.950 . S
C116 C115 1.387 . S
C116 C119 1.387 . S
H117 C113 0.950 . S
H118 C115 0.950 . S
C119 C110 1.390 . S
C119 H112 0.950 . S
C119 C116 1.387 . S
C120 C121 1.387 . S
C120 H124 0.950 . S
C120 C129 1.390 1_654 S
C121 C120 1.387 . S
C121 C123 1.387 1_655 S
H122 C129 0.950 . S
C123 C121 1.387 1_455 S
C123 C125 1.390 1_554 S
C123 H127 0.950 . S
H124 C120 0.950 . S
C125 C123 1.390 1_556 S
C125 C126 1.387 . S
C125 H128 0.950 . S
C126 C125 1.387 . S
C126 C129 1.387 . S
H127 C123 0.950 . S
H128 C125 0.950 . S
C129 C120 1.390 1_456 S
C129 H122 0.950 . S
C129 C126 1.387 . S
C130 C131 1.387 1_545 S
C130 H134 0.950 . S
C130 C139 1.390 . S
C131 C130 1.387 1_565 S
C131 C133 1.387 . S
H132 C139 0.950 . S
C133 C131 1.387 . S
C133 C135 1.390 1_565 S
C133 H137 0.950 . S
H134 C130 0.950 . S
C135 C133 1.390 1_545 S
C135 C136 1.387 . S
C135 H138 0.950 1_545 S
C136 C135 1.387 . S
C136 C139 1.387 . S
H137 C133 0.950 . S
H138 C135 0.950 1_565 S
C139 C130 1.390 . S
C139 H132 0.950 . S
C139 C136 1.387 . S
C140 C141 1.387 . S
C140 H144 0.950 . S
C140 C149 1.390 . S
C141 C140 1.387 . S
C141 C143 1.387 1_554 S
H142 C149 0.950 . S
C143 C141 1.387 1_556 S
C143 C145 1.390 . S
C143 H147 0.950 . S
H144 C140 0.950 . S
C145 C143 1.390 . S
C145 C146 1.387 . S
C145 H148 0.950 . S
C146 C145 1.387 . S
C146 C149 1.387 1_556 S
H147 C143 0.950 . S
H148 C145 0.950 . S
C149 C140 1.390 . S
C149 H142 0.950 . S
C149 C146 1.387 1_554 S
C150 C151 1.387 . S
C150 H154 0.950 . S
C150 C159 1.390 . S
C151 C150 1.387 . S
C151 C153 1.387 . S
H152 C159 0.950 . S
C153 C151 1.387 . S
C153 C155 1.390 1_655 S
C153 H157 0.950 1_655 S
H154 C150 0.950 . S
C155 C153 1.390 1_455 S
C155 C156 1.387 . S
C155 H158 0.950 . S
C156 C155 1.387 . S
C156 C159 1.387 1_455 S
H157 C153 0.950 1_455 S
H158 C155 0.950 . S
C159 C150 1.390 . S
C159 H152 0.950 . S
C159 C156 1.387 1_655 S
C160 C161 1.387 . S
C160 H164 0.950 . S
C160 C169 1.390 . S
C161 C160 1.387 . S
C161 C163 1.387 . S
H162 C169 0.950 . S
C163 C161 1.387 . S
C163 C165 1.390 . S
C163 H167 0.950 . S
H164 C160 0.950 . S
C165 C163 1.390 . S
C165 C166 1.387 . S
C165 H168 0.950 . S
C166 C165 1.387 . S
C166 C169 1.387 . S
H167 C163 0.950 . S
H168 C165 0.950 . S
C169 C160 1.390 . S
C169 H162 0.950 . S
C169 C166 1.387 . S
C170 C171 1.387 . S
C170 H174 0.950 . S
C170 C179 1.390 . S
C171 C170 1.387 . S
C171 C173 1.387 . S
H172 C179 0.950 . S
C173 C171 1.387 . S
C173 C175 1.390 . S
C173 H177 0.950 . S
H174 C170 0.950 . S
C175 C173 1.390 . S
C175 C176 1.387 . S
C175 H178 0.950 . S
C176 C175 1.387 . S
C176 C179 1.387 . S
H177 C173 0.950 . S
H178 C175 0.950 . S
C179 C170 1.390 . S
C179 H172 0.950 . S
C179 C176 1.387 . S
C180 C181 1.387 . S
C180 H184 0.950 . S
C180 C189 1.390 . S
C181 C180 1.387 . S
C181 C183 1.387 . S
H182 C189 0.950 . S
C183 C181 1.387 . S
C183 C185 1.390 . S
C183 H187 0.950 . S
H184 C180 0.950 . S
C185 C183 1.390 . S
C185 C186 1.387 . S
C185 H188 0.950 . S
C186 C185 1.387 . S
C186 C189 1.387 . S
H187 C183 0.950 . S
H188 C185 0.950 . S
C189 C180 1.390 . S
C189 H182 0.950 . S
C189 C186 1.387 . S
C190 C191 1.387 . S
C190 H194 0.950 . S
C190 C199 1.390 . S
C191 C190 1.387 . S
C191 C193 1.387 . S
H192 C199 0.950 . S
C193 C191 1.387 . S
C193 C195 1.390 . S
C193 H197 0.950 . S
H194 C190 0.950 . S
C195 C193 1.390 . S
C195 C196 1.387 . S
C195 H198 0.950 . S
C196 C195 1.387 . S
C196 C199 1.387 . S
H197 C193 0.950 . S
H198 C195 0.950 . S
C199 C190 1.390 . S
C199 H192 0.950 . S
C199 C196 1.387 . S
C200 C201 1.387 . S
C200 H204 0.950 . S
C200 C209 1.390 . S
C201 C200 1.387 . S
C201 C203 1.387 . S
H202 C209 0.950 . S
C203 C201 1.387 . S
C203 C205 1.390 . S
C203 H207 0.950 . S
H204 C200 0.950 . S
C205 C203 1.390 . S
C205 C206 1.387 . S
C205 H208 0.950 . S
C206 C205 1.387 . S
C206 C209 1.387 . S
H207 C203 0.950 . S
H208 C205 0.950 . S
C209 C200 1.390 . S
C209 H202 0.950 . S
C209 C206 1.387 . S
C210 C211 1.387 . S
C210 H214 0.950 . S
C210 C219 1.390 . S
C211 C210 1.387 . S
C211 C213 1.387 . S
H212 C219 0.950 . S
C213 C211 1.387 . S
C213 C215 1.390 . S
C213 H217 0.950 . S
H214 C210 0.950 . S
C215 C213 1.390 . S
C215 C216 1.387 . S
C215 H218 0.950 . S
C216 C215 1.387 . S
C216 C219 1.387 . S
H217 C213 0.950 . S
H218 C215 0.950 . S
C219 C210 1.390 . S
C219 H212 0.950 . S
C219 C216 1.387 . S
C101 C54 1.925 . S
C106 C5 2.111 . S
C111 C57 2.111 . S
C116 C6 1.926 . S
C121 C1 2.111 . S
C126 C61 1.925 . S
C131 C58 2.111 . S
C136 C2 1.925 . S
C141 C9 2.113 . S
C146 C52 1.928 . S
C151 C10 1.925 . S
C156 C51 2.111 . S
C161 C0 1.252 1_565 S
C166 C3 1.252 . S
C171 C59 1.249 1_655 S
C176 C60 1.249 . S
C181 C11 1.252 . S
C186 C8 1.252 1_455 S
C191 C50 1.252 . S
C196 C53 1.252 . S
C201 C4 1.249 . S
C206 C7 1.249 . S
C211 C55 1.252 . S
C216 C56 1.252 1_545 S
