# Generated by pormake.
# Topology qtz, (4)-cn, num edge types: 1
# Building blocks:
#     Node 0, Type 0, BuildingBlock: QUQFOY_clean_sbu_3, # of connection points: 4
#     Node 1, Type 0, BuildingBlock: QUQFOY_clean_sbu_3, # of connection points: 4
#     Node 2, Type 0, BuildingBlock: QUQFOY_clean_sbu_3, # of connection points: 4
#     Edge 3, Type (0, 0), BuildingBlock: XUDNAN_clean_linker_2, # of connection points: 2
#     Edge 4, Type (0, 0), BuildingBlock: XUDNAN_clean_linker_2, # of connection points: 2
#     Edge 5, Type (0, 0), BuildingBlock: XUDNAN_clean_linker_2, # of connection points: 2
#     Edge 6, Type (0, 0), BuildingBlock: XUDNAN_clean_linker_2, # of connection points: 2
#     Edge 7, Type (0, 0), BuildingBlock: XUDNAN_clean_linker_2, # of connection points: 2
#     Edge 8, Type (0, 0), BuildingBlock: XUDNAN_clean_linker_2, # of connection points: 2
# Relax obj value: 0.008
# Max RMSD: 0.055
# Mean RMSD: 0.047
data_MOF--net-qtz--node1-QUQFOY_clean_sbu_3--edge1-XUDNAN_clean_linker_2
_symmetry_space_group_name_H-M    P1
_symmetry_Int_Tables_number       1
_symmetry_cell_setting            triclinic
loop_
_symmetry_equiv_pos_as_xyz
'x, y, z'
_cell_length_a     23.953931
_cell_length_b     23.647547
_cell_length_c     29.7381
_cell_angle_alpha  90.128927
_cell_angle_beta   91.367217
_cell_angle_gamma 121.3318
loop_
_atom_site_label
_atom_site_type_symbol
_atom_site_fract_x
_atom_site_fract_y
_atom_site_fract_z
_atom_type_partial_charge
C0 C 0.93463 0.50242 0.08978 0.0
O1 O 0.91576 0.51869 0.12439 0.0
Cd2 Cd 0.94695 0.52029 0.20064 0.0
O3 O 0.97497 0.48259 0.09317 0.0
Cd4 Cd 0.03391 0.46207 0.15583 0.0
C5 C 0.89817 0.35545 0.21271 0.0
O6 O 0.05929 0.55988 0.19739 0.0
O7 O 0.0862 0.49646 0.23127 0.0
O8 O 0.1404 0.51472 0.12357 0.0
C9 C 0.08536 0.54966 0.23138 0.0
O10 O 0.89221 0.40507 0.21999 0.0
C11 C 0.14027 0.46233 0.1145 0.0
O12 O 0.94479 0.3604 0.18974 0.0
O13 O 0.08896 0.40758 0.12314 0.0
C14 C 0.43739 0.11737 0.52374 0.0
O15 O 0.41319 0.11587 0.485 0.0
Cd16 Cd 0.39642 0.03234 0.43056 0.0
O17 O 0.45716 0.07822 0.53352 0.0
Cd18 Cd 0.4696 0.98933 0.50288 0.0
C19 C 0.55309 0.07077 0.41057 0.0
O20 O 0.35879 0.93279 0.47255 0.0
O21 O 0.41256 0.88419 0.46107 0.0
O22 O 0.45342 0.95726 0.58054 0.0
C23 C 0.35962 0.88375 0.45624 0.0
O24 O 0.50063 0.06737 0.39693 0.0
C25 C 0.49973 0.94624 0.58413 0.0
O26 O 0.55703 0.04978 0.44922 0.0
O27 O 0.53334 0.95571 0.54944 0.0
C28 C 0.70882 0.58126 0.84252 0.0
O29 O 0.72723 0.60957 0.8049 0.0
Cd30 Cd 0.65544 0.62952 0.75754 0.0
O31 O 0.65176 0.56203 0.85609 0.0
Cd32 Cd 0.55046 0.55692 0.83416 0.0
C33 C 0.53283 0.47003 0.73814 0.0
O34 O 0.6029 0.66973 0.80514 0.0
O35 O 0.49726 0.60879 0.79895 0.0
O36 O 0.53727 0.56946 0.91373 0.0
C37 C 0.54895 0.66438 0.79379 0.0
O38 O 0.57833 0.52331 0.72152 0.0
C39 C 0.47846 0.52144 0.91475 0.0
O40 O 0.51657 0.46843 0.77876 0.0
O41 O 0.4536 0.48855 0.87838 0.0
H42 H 0.34789 0.43037 0.92405 0.0
H43 H 0.52013 0.58453 -0.00353 0.0
H44 H 0.45223 0.5743 0.06048 0.0
H45 H 0.24418 0.48198 0.95369 0.0
H46 H 0.17239 0.40105 0.96 0.0
H47 H 0.23528 0.41182 0.92293 0.0
H48 H 0.24622 0.32256 0.96566 0.0
H49 H 0.18283 0.31108 0.00279 0.0
H50 H 0.26148 0.33095 0.02567 0.0
H51 H 0.36541 0.56234 0.10978 0.0
H52 H 0.26459 0.54393 0.14413 0.0
H53 H 0.14751 0.39337 0.04284 0.0
C54 C 0.37158 0.46056 0.95392 0.0
C55 C 0.43934 0.50817 0.95534 0.0
C56 C 0.46838 0.5476 -0.00532 0.0
C57 C 0.43023 0.54201 0.03128 0.0
C58 C 0.36328 0.49618 0.02825 0.0
C59 C 0.33417 0.4554 0.99089 0.0
C60 C 0.26042 0.41446 -0.00533 0.0
C61 C 0.22609 0.4282 0.95551 0.0
C62 C 0.23633 0.34036 -0.00263 0.0
C63 C 0.25248 0.4409 0.03899 0.0
C64 C 0.31262 0.48763 0.0579 0.0
C65 C 0.31813 0.52456 0.09607 0.0
C66 C 0.26075 0.51404 0.11519 0.0
C67 C 0.19882 0.46652 0.09644 0.0
C68 C 0.19448 0.42852 0.05844 0.0
H69 H 0.76831 0.30335 0.21634 0.0
H70 H 0.92317 0.27079 0.25943 0.0
H71 H 0.84725 0.1838 0.31118 0.0
H72 H 0.70739 0.29664 0.31798 0.0
H73 H 0.62225 0.25436 0.30073 0.0
H74 H 0.68393 0.30353 0.26113 0.0
H75 H 0.63906 0.20279 0.20637 0.0
H76 H 0.57598 0.15339 0.2454 0.0
H77 H 0.62918 0.12619 0.22619 0.0
H78 H 0.75979 0.11665 0.36821 0.0
H79 H 0.66547 0.06592 0.41861 0.0
H80 H 0.56889 0.1421 0.33519 0.0
C81 C 0.78538 0.27595 0.2354 0.0
C82 C 0.85102 0.29293 0.23388 0.0
C83 C 0.8725 0.2573 0.2597 0.0
C84 C 0.82984 0.20826 0.28932 0.0
C85 C 0.76593 0.19496 0.29171 0.0
C86 C 0.74345 0.22674 0.26447 0.0
C87 C 0.6748 0.20806 0.27563 0.0
C88 C 0.67201 0.26928 0.28971 0.0
C89 C 0.62692 0.17034 0.23605 0.0
C90 C 0.66301 0.1632 0.31486 0.0
C91 C 0.7157 0.15569 0.32365 0.0
C92 C 0.71766 0.12092 0.36092 0.0
C93 C 0.66415 0.09277 0.38955 0.0
C94 C 0.60962 0.09967 0.38067 0.0
C95 C 0.6093 0.135 0.3426 0.0
H96 H 0.59009 0.91 0.60088 0.0
H97 H 0.4326 0.92071 0.66145 0.0
H98 H 0.44012 0.86301 0.72788 0.0
H99 H 0.54031 0.75222 0.6316 0.0
H100 H 0.62024 0.76512 0.64379 0.0
H101 H 0.61095 0.81735 0.60437 0.0
H102 H 0.69517 0.92135 0.65077 0.0
H103 H 0.70506 0.86931 0.69034 0.0
H104 H 0.68278 0.92702 0.70977 0.0
H105 H 0.44917 0.78704 0.7797 0.0
H106 H 0.46537 0.70318 0.817 0.0
H107 H 0.62172 0.74623 0.72689 0.0
C108 C 0.55852 0.90184 0.62871 0.0
C109 C 0.51076 0.91975 0.62602 0.0
C110 C 0.46961 0.90745 0.66278 0.0
C111 C 0.47367 0.87495 0.70079 0.0
C112 C 0.51981 0.85603 0.70183 0.0
C113 C 0.56227 0.8698 0.66715 0.0
C114 C 0.60327 0.83879 0.67504 0.0
C115 C 0.59302 0.79051 0.63642 0.0
C116 C 0.67589 0.89232 0.6819 0.0
C117 C 0.57467 0.80256 0.71829 0.0
C118 C 0.52698 0.81377 0.73333 0.0
C119 C 0.48777 0.77943 0.76923 0.0
C120 C 0.49701 0.73179 0.79001 0.0
C121 C 0.54554 0.71978 0.77516 0.0
C122 C 0.58581 0.75648 0.73959 0.0
H123 H 0.69393 0.54971 0.93079 0.0
H124 H 0.82329 0.58767 0.82018 0.0
H125 H 0.89388 0.56535 0.87024 0.0
H126 H 0.81808 0.62851 0.0156 0.0
H127 H 0.77037 0.56987 0.05802 0.0
H128 H 0.73008 0.58625 0.01259 0.0
H129 H 0.6627 0.46095 0.99202 0.0
H130 H 0.70314 0.4442 0.03723 0.0
H131 H 0.70466 0.41775 0.98061 0.0
H132 H 0.94983 0.53785 0.93436 0.0
H133 H 0.98964 0.5174 0.00682 0.0
H134 H 0.82244 0.50108 0.07287 0.0
C135 C 0.73685 0.55303 0.91679 0.0
C136 C 0.75293 0.56999 0.87153 0.0
C137 C 0.81012 0.57472 0.85485 0.0
C138 C 0.85023 0.56182 0.88294 0.0
C139 C 0.83244 0.54472 0.92747 0.0
C140 C 0.77727 0.54095 0.94419 0.0
C141 C 0.76955 0.52446 0.99345 0.0
C142 C 0.77222 0.58063 0.02155 0.0
C143 C 0.70627 0.45788 0.00126 0.0
C144 C 0.82922 0.51975 0.0022 0.0
C145 C 0.8648 0.53078 0.96387 0.0
C146 C 0.92228 0.52918 0.96453 0.0
C147 C 0.94436 0.51727 0.00568 0.0
C148 C 0.90927 0.50806 0.04539 0.0
C149 C 0.85062 0.50842 0.04316 0.0
H150 H 0.34444 0.76863 0.42293 0.0
H151 H 0.24998 0.88307 0.4281 0.0
H152 H 0.16202 0.80202 0.37668 0.0
H153 H 0.31705 0.72952 0.30967 0.0
H154 H 0.30145 0.64656 0.31437 0.0
H155 H 0.35238 0.7085 0.35606 0.0
H156 H 0.27763 0.63364 0.41897 0.0
H157 H 0.22649 0.57111 0.37741 0.0
H158 H 0.19117 0.60276 0.41535 0.0
H159 H 0.09422 0.71895 0.31709 0.0
H160 H 0.04663 0.63453 0.25606 0.0
H161 H 0.1817 0.57068 0.29208 0.0
C162 C 0.30455 0.77589 0.41394 0.0
C163 C 0.3039 0.832 0.42937 0.0
C164 C 0.2512 0.84019 0.41673 0.0
C165 C 0.201 0.79441 0.38763 0.0
C166 C 0.20387 0.74038 0.37218 0.0
C167 C 0.25377 0.73037 0.38531 0.0
C168 C 0.24755 0.67058 0.36161 0.0
C169 C 0.3082 0.68999 0.33378 0.0
C170 C 0.23494 0.6163 0.39535 0.0
C171 C 0.18787 0.65017 0.33174 0.0
C172 C 0.16321 0.69087 0.33858 0.0
C173 C 0.11204 0.68577 0.31207 0.0
C174 C 0.08565 0.63806 0.27741 0.0
C175 C 0.11028 0.596 0.26991 0.0
C176 C 0.16119 0.60139 0.29788 0.0
H177 H 0.53745 0.45698 0.6468 0.0
H178 H 0.45926 0.34355 0.76816 0.0
H179 H 0.41807 0.24011 0.72435 0.0
H180 H 0.40275 0.33603 0.56952 0.0
H181 H 0.45792 0.35172 0.52454 0.0
H182 H 0.47536 0.41672 0.56451 0.0
H183 H 0.58888 0.43211 0.5825 0.0
H184 H 0.57167 0.36694 0.54296 0.0
H185 H 0.59381 0.36205 0.60056 0.0
H186 H 0.4006 0.15165 0.67089 0.0
H187 H 0.39733 0.08101 0.60838 0.0
H188 H 0.47912 0.2494 0.5199 0.0
C189 C 0.51059 0.41032 0.66399 0.0
C190 C 0.50169 0.40829 0.71091 0.0
C191 C 0.46642 0.34631 0.73223 0.0
C192 C 0.44285 0.28728 0.70765 0.0
C193 C 0.45391 0.2911 0.66171 0.0
C194 C 0.48586 0.35084 0.63984 0.0
C195 C 0.49368 0.3411 0.5905 0.0
C196 C 0.45511 0.36266 0.5605 0.0
C197 C 0.56632 0.37771 0.57846 0.0
C198 C 0.46335 0.26675 0.58851 0.0
C199 C 0.44078 0.23904 0.63004 0.0
C200 C 0.41653 0.17234 0.63794 0.0
C201 C 0.41526 0.13283 0.60243 0.0
C202 C 0.43724 0.15998 0.55955 0.0
C203 C 0.46074 0.2275 0.55226 0.0
loop_
_geom_bond_atom_site_label_1
_geom_bond_atom_site_label_2
_geom_bond_distance
_geom_bond_site_symmetry_2
_ccdc_geom_bond_type
C0 O1 1.306 . S
C0 O3 1.160 . S
O1 C0 1.306 . S
O1 Cd2 2.228 . S
Cd2 O1 2.228 . S
Cd2 O6 2.273 1_655 S
Cd2 O10 2.277 . S
O3 C0 1.160 . S
O3 Cd4 2.203 1_655 S
Cd4 O3 2.203 1_455 S
Cd4 O6 2.411 . S
Cd4 O7 2.333 . S
Cd4 O8 2.352 . S
Cd4 O12 2.277 1_455 S
Cd4 O13 2.356 . S
C5 O10 1.209 . S
C5 O12 1.226 . S
O6 Cd2 2.273 1_455 S
O6 Cd4 2.411 . S
O6 C9 1.320 . S
O7 Cd4 2.333 . S
O7 C9 1.214 . S
O8 Cd4 2.352 . S
O8 C11 1.258 . S
C9 O6 1.320 . S
C9 O7 1.214 . S
O10 Cd2 2.277 . S
O10 C5 1.209 . S
C11 O8 1.258 . S
C11 O13 1.282 . S
O12 Cd4 2.277 1_655 S
O12 C5 1.226 . S
O13 Cd4 2.356 . S
O13 C11 1.282 . S
C14 O15 1.306 . S
C14 O17 1.160 . S
O15 C14 1.306 . S
O15 Cd16 2.228 . S
Cd16 O15 2.228 . S
Cd16 O20 2.273 1_545 S
Cd16 O24 2.277 . S
O17 C14 1.160 . S
O17 Cd18 2.203 . S
Cd18 O17 2.203 . S
Cd18 O20 2.411 1_545 S
Cd18 O21 2.333 1_545 S
Cd18 O22 2.352 1_545 S
Cd18 O26 2.277 . S
Cd18 O27 2.356 1_545 S
C19 O24 1.209 . S
C19 O26 1.226 . S
O20 Cd16 2.273 1_565 S
O20 Cd18 2.411 1_565 S
O20 C23 1.320 . S
O21 Cd18 2.333 1_565 S
O21 C23 1.214 . S
O22 Cd18 2.352 1_565 S
O22 C25 1.258 . S
C23 O20 1.320 . S
C23 O21 1.214 . S
O24 Cd16 2.277 . S
O24 C19 1.209 . S
C25 O22 1.258 . S
C25 O27 1.282 . S
O26 Cd18 2.277 . S
O26 C19 1.226 . S
O27 Cd18 2.356 1_565 S
O27 C25 1.282 . S
C28 O29 1.306 . S
C28 O31 1.160 . S
O29 C28 1.306 . S
O29 Cd30 2.228 . S
Cd30 O29 2.228 . S
Cd30 O34 2.273 . S
Cd30 O38 2.277 . S
O31 C28 1.160 . S
O31 Cd32 2.203 . S
Cd32 O31 2.203 . S
Cd32 O34 2.411 . S
Cd32 O35 2.333 . S
Cd32 O36 2.352 . S
Cd32 O40 2.277 . S
Cd32 O41 2.356 . S
C33 O38 1.209 . S
C33 O40 1.226 . S
O34 Cd30 2.273 . S
O34 Cd32 2.411 . S
O34 C37 1.320 . S
O35 Cd32 2.333 . S
O35 C37 1.214 . S
O36 Cd32 2.352 . S
O36 C39 1.258 . S
C37 O34 1.320 . S
C37 O35 1.214 . S
O38 Cd30 2.277 . S
O38 C33 1.209 . S
C39 O36 1.258 . S
C39 O41 1.282 . S
O40 Cd32 2.277 . S
O40 C33 1.226 . S
O41 Cd32 2.356 . S
O41 C39 1.282 . S
H42 C54 0.930 . S
H43 C56 0.930 . S
H44 C57 0.930 . S
H45 C61 0.959 . S
H46 C61 0.959 . S
H47 C61 0.961 . S
H48 C62 0.960 . S
H49 C62 0.961 . S
H50 C62 0.959 . S
H51 C65 0.929 . S
H52 C66 0.931 . S
H53 C68 0.930 . S
C54 H42 0.930 . S
C54 C55 1.399 . S
C54 C59 1.399 . S
C55 C54 1.399 . S
C55 C56 1.376 . S
C56 H43 0.930 . S
C56 C55 1.376 . S
C56 C57 1.388 . S
C57 H44 0.930 . S
C57 C56 1.388 . S
C57 C58 1.390 . S
C58 C57 1.390 . S
C58 C59 1.394 . S
C58 C64 1.465 1_556 S
C59 C54 1.399 . S
C59 C58 1.394 . S
C59 C60 1.516 . S
C60 C59 1.516 . S
C60 C61 1.502 . S
C60 C62 1.561 1_556 S
C60 C63 1.526 1_556 S
C61 H45 0.959 . S
C61 H46 0.959 . S
C61 H47 0.961 . S
C61 C60 1.502 . S
C62 H48 0.960 . S
C62 H49 0.961 . S
C62 H50 0.959 . S
C62 C60 1.561 1_554 S
C63 C60 1.526 1_554 S
C63 C64 1.396 . S
C63 C68 1.390 . S
C64 C58 1.465 1_554 S
C64 C63 1.396 . S
C64 C65 1.399 . S
C65 H51 0.929 . S
C65 C64 1.399 . S
C65 C66 1.385 . S
C66 H52 0.931 . S
C66 C65 1.385 . S
C66 C67 1.389 . S
C67 C66 1.389 . S
C67 C68 1.387 . S
C68 H53 0.930 . S
C68 C63 1.390 . S
C68 C67 1.387 . S
H69 C81 0.930 . S
H70 C83 0.930 . S
H71 C84 0.930 . S
H72 C88 0.959 . S
H73 C88 0.959 . S
H74 C88 0.961 . S
H75 C89 0.960 . S
H76 C89 0.961 . S
H77 C89 0.959 . S
H78 C92 0.929 . S
H79 C93 0.931 . S
H80 C95 0.930 . S
C81 H69 0.930 . S
C81 C82 1.399 . S
C81 C86 1.399 . S
C82 C81 1.399 . S
C82 C83 1.376 . S
C83 H70 0.930 . S
C83 C82 1.376 . S
C83 C84 1.388 . S
C84 H71 0.930 . S
C84 C83 1.388 . S
C84 C85 1.390 . S
C85 C84 1.390 . S
C85 C86 1.394 . S
C85 C91 1.465 . S
C86 C81 1.399 . S
C86 C85 1.394 . S
C86 C87 1.516 . S
C87 C86 1.516 . S
C87 C88 1.502 . S
C87 C89 1.561 . S
C87 C90 1.526 . S
C88 H72 0.959 . S
C88 H73 0.959 . S
C88 H74 0.961 . S
C88 C87 1.502 . S
C89 H75 0.960 . S
C89 H76 0.961 . S
C89 H77 0.959 . S
C89 C87 1.561 . S
C90 C87 1.526 . S
C90 C91 1.396 . S
C90 C95 1.390 . S
C91 C85 1.465 . S
C91 C90 1.396 . S
C91 C92 1.399 . S
C92 H78 0.929 . S
C92 C91 1.399 . S
C92 C93 1.385 . S
C93 H79 0.931 . S
C93 C92 1.385 . S
C93 C94 1.389 . S
C94 C93 1.389 . S
C94 C95 1.387 . S
C95 H80 0.930 . S
C95 C90 1.390 . S
C95 C94 1.387 . S
H96 C108 0.930 . S
H97 C110 0.930 . S
H98 C111 0.930 . S
H99 C115 0.959 . S
H100 C115 0.959 . S
H101 C115 0.961 . S
H102 C116 0.960 . S
H103 C116 0.961 . S
H104 C116 0.959 . S
H105 C119 0.929 . S
H106 C120 0.931 . S
H107 C122 0.930 . S
C108 H96 0.930 . S
C108 C109 1.399 . S
C108 C113 1.399 . S
C109 C108 1.399 . S
C109 C110 1.376 . S
C110 H97 0.930 . S
C110 C109 1.376 . S
C110 C111 1.388 . S
C111 H98 0.930 . S
C111 C110 1.388 . S
C111 C112 1.390 . S
C112 C111 1.390 . S
C112 C113 1.394 . S
C112 C118 1.465 . S
C113 C108 1.399 . S
C113 C112 1.394 . S
C113 C114 1.516 . S
C114 C113 1.516 . S
C114 C115 1.502 . S
C114 C116 1.561 . S
C114 C117 1.526 . S
C115 H99 0.959 . S
C115 H100 0.959 . S
C115 H101 0.961 . S
C115 C114 1.502 . S
C116 H102 0.960 . S
C116 H103 0.961 . S
C116 H104 0.959 . S
C116 C114 1.561 . S
C117 C114 1.526 . S
C117 C118 1.396 . S
C117 C122 1.390 . S
C118 C112 1.465 . S
C118 C117 1.396 . S
C118 C119 1.399 . S
C119 H105 0.929 . S
C119 C118 1.399 . S
C119 C120 1.385 . S
C120 H106 0.931 . S
C120 C119 1.385 . S
C120 C121 1.389 . S
C121 C120 1.389 . S
C121 C122 1.387 . S
C122 H107 0.930 . S
C122 C117 1.390 . S
C122 C121 1.387 . S
H123 C135 0.930 . S
H124 C137 0.930 . S
H125 C138 0.930 . S
H126 C142 0.959 . S
H127 C142 0.959 1_554 S
H128 C142 0.961 . S
H129 C143 0.960 . S
H130 C143 0.961 . S
H131 C143 0.959 . S
H132 C146 0.929 . S
H133 C147 0.931 . S
H134 C149 0.930 . S
C135 H123 0.930 . S
C135 C136 1.399 . S
C135 C140 1.399 . S
C136 C135 1.399 . S
C136 C137 1.376 . S
C137 H124 0.930 . S
C137 C136 1.376 . S
C137 C138 1.388 . S
C138 H125 0.930 . S
C138 C137 1.388 . S
C138 C139 1.390 . S
C139 C138 1.390 . S
C139 C140 1.394 . S
C139 C145 1.465 1_556 S
C140 C135 1.399 . S
C140 C139 1.394 . S
C140 C141 1.516 1_556 S
C141 C140 1.516 1_554 S
C141 C142 1.502 1_554 S
C141 C143 1.561 . S
C141 C144 1.526 . S
C142 H126 0.959 . S
C142 H127 0.959 1_556 S
C142 H128 0.961 . S
C142 C141 1.502 1_556 S
C143 H129 0.960 . S
C143 H130 0.961 . S
C143 H131 0.959 . S
C143 C141 1.561 . S
C144 C141 1.526 . S
C144 C145 1.396 . S
C144 C149 1.390 . S
C145 C139 1.465 1_554 S
C145 C144 1.396 . S
C145 C146 1.399 . S
C146 H132 0.929 . S
C146 C145 1.399 . S
C146 C147 1.385 . S
C147 H133 0.931 . S
C147 C146 1.385 . S
C147 C148 1.389 . S
C148 C147 1.389 . S
C148 C149 1.387 . S
C149 H134 0.930 . S
C149 C144 1.390 . S
C149 C148 1.387 . S
H150 C162 0.930 . S
H151 C164 0.930 . S
H152 C165 0.930 . S
H153 C169 0.959 . S
H154 C169 0.959 . S
H155 C169 0.961 . S
H156 C170 0.960 . S
H157 C170 0.961 . S
H158 C170 0.959 . S
H159 C173 0.929 . S
H160 C174 0.931 . S
H161 C176 0.930 . S
C162 H150 0.930 . S
C162 C163 1.399 . S
C162 C167 1.399 . S
C163 C162 1.399 . S
C163 C164 1.376 . S
C164 H151 0.930 . S
C164 C163 1.376 . S
C164 C165 1.388 . S
C165 H152 0.930 . S
C165 C164 1.388 . S
C165 C166 1.390 . S
C166 C165 1.390 . S
C166 C167 1.394 . S
C166 C172 1.465 . S
C167 C162 1.399 . S
C167 C166 1.394 . S
C167 C168 1.516 . S
C168 C167 1.516 . S
C168 C169 1.502 . S
C168 C170 1.561 . S
C168 C171 1.526 . S
C169 H153 0.959 . S
C169 H154 0.959 . S
C169 H155 0.961 . S
C169 C168 1.502 . S
C170 H156 0.960 . S
C170 H157 0.961 . S
C170 H158 0.959 . S
C170 C168 1.561 . S
C171 C168 1.526 . S
C171 C172 1.396 . S
C171 C176 1.390 . S
C172 C166 1.465 . S
C172 C171 1.396 . S
C172 C173 1.399 . S
C173 H159 0.929 . S
C173 C172 1.399 . S
C173 C174 1.385 . S
C174 H160 0.931 . S
C174 C173 1.385 . S
C174 C175 1.389 . S
C175 C174 1.389 . S
C175 C176 1.387 . S
C176 H161 0.930 . S
C176 C171 1.390 . S
C176 C175 1.387 . S
H177 C189 0.930 . S
H178 C191 0.930 . S
H179 C192 0.930 . S
H180 C196 0.959 . S
H181 C196 0.959 . S
H182 C196 0.961 . S
H183 C197 0.960 . S
H184 C197 0.961 . S
H185 C197 0.959 . S
H186 C200 0.929 . S
H187 C201 0.931 . S
H188 C203 0.930 . S
C189 H177 0.930 . S
C189 C190 1.399 . S
C189 C194 1.399 . S
C190 C189 1.399 . S
C190 C191 1.376 . S
C191 H178 0.930 . S
C191 C190 1.376 . S
C191 C192 1.388 . S
C192 H179 0.930 . S
C192 C191 1.388 . S
C192 C193 1.390 . S
C193 C192 1.390 . S
C193 C194 1.394 . S
C193 C199 1.465 . S
C194 C189 1.399 . S
C194 C193 1.394 . S
C194 C195 1.516 . S
C195 C194 1.516 . S
C195 C196 1.502 . S
C195 C197 1.561 . S
C195 C198 1.526 . S
C196 H180 0.959 . S
C196 H181 0.959 . S
C196 H182 0.961 . S
C196 C195 1.502 . S
C197 H183 0.960 . S
C197 H184 0.961 . S
C197 H185 0.959 . S
C197 C195 1.561 . S
C198 C195 1.526 . S
C198 C199 1.396 . S
C198 C203 1.390 . S
C199 C193 1.465 . S
C199 C198 1.396 . S
C199 C200 1.399 . S
C200 H186 0.929 . S
C200 C199 1.399 . S
C200 C201 1.385 . S
C201 H187 0.931 . S
C201 C200 1.385 . S
C201 C202 1.389 . S
C202 C201 1.389 . S
C202 C203 1.387 . S
C203 H188 0.930 . S
C203 C198 1.390 . S
C203 C202 1.387 . S
C55 C39 1.417 . S
C67 C11 1.413 . S
C82 C5 1.515 . S
C94 C19 1.511 . S
C109 C25 1.421 . S
C121 C37 1.413 . S
C136 C28 1.426 . S
C148 C0 1.423 . S
C163 C23 1.422 . S
C175 C9 1.431 . S
C190 C33 1.465 . S
C202 C14 1.476 . S
