# Generated by pormake.
# Topology sma, (6)-cn, num edge types: 1
# Building blocks:
#     Node 0, Type 0, BuildingBlock: UKALOJ_clean_sbu_0, # of connection points: 6
#     Node 1, Type 0, BuildingBlock: UKALOJ_clean_sbu_0, # of connection points: 6
#     Node 2, Type 0, BuildingBlock: UKALOJ_clean_sbu_0, # of connection points: 6
#     Edge 3, Type (0, 0), BuildingBlock: XIVTED_clean_linker_0, # of connection points: 2
#     Edge 4, Type (0, 0), BuildingBlock: XIVTED_clean_linker_0, # of connection points: 2
#     Edge 5, Type (0, 0), BuildingBlock: XIVTED_clean_linker_0, # of connection points: 2
#     Edge 6, Type (0, 0), BuildingBlock: XIVTED_clean_linker_0, # of connection points: 2
#     Edge 7, Type (0, 0), BuildingBlock: XIVTED_clean_linker_0, # of connection points: 2
#     Edge 8, Type (0, 0), BuildingBlock: XIVTED_clean_linker_0, # of connection points: 2
#     Edge 9, Type (0, 0), BuildingBlock: XIVTED_clean_linker_0, # of connection points: 2
#     Edge 10, Type (0, 0), BuildingBlock: XIVTED_clean_linker_0, # of connection points: 2
#     Edge 11, Type (0, 0), BuildingBlock: XIVTED_clean_linker_0, # of connection points: 2
# Relax obj value: 0.568
# Max RMSD: 0.350
# Mean RMSD: 0.350
data_MOF--net-sma--node1-UKALOJ_clean_sbu_0--edge1-XIVTED_clean_linker_0
_symmetry_space_group_name_H-M    P1
_symmetry_Int_Tables_number       1
_symmetry_cell_setting            triclinic
loop_
_symmetry_equiv_pos_as_xyz
'x, y, z'
_cell_length_a     26.122633
_cell_length_b     26.311326
_cell_length_c     18.86021
_cell_angle_alpha  88.740977
_cell_angle_beta   92.008004
_cell_angle_gamma 120.2335
loop_
_atom_site_label
_atom_site_type_symbol
_atom_site_fract_x
_atom_site_fract_y
_atom_site_fract_z
_atom_type_partial_charge
Zn0 Zn 0.04862 0.55908 0.10087 0.0
O1 O 0.13223 0.64228 0.11281 0.0
C2 C 0.12738 0.50921 0.09553 0.0
Zn3 Zn 0.05336 0.52289 0.1949 0.0
C4 C 0.14121 0.65155 0.17952 0.0
O5 O 0.11008 0.61046 0.22199 0.0
C6 C 0.95558 0.42736 0.13716 0.0
O7 O 0.97112 0.53079 0.21363 0.0
O8 O 1.01001 0.60318 0.1393 0.0
N9 N 0.06102 0.49916 0.29459 0.0
C10 C 0.06541 0.52564 0.35624 0.0
C11 C 0.07211 0.44944 0.37999 0.0
N12 N 0.06535 0.45192 0.30909 0.0
N13 N 0.07331 0.49586 0.41022 0.0
C14 C 0.05944 0.59657 0.94424 0.0
C15 C 0.97226 0.58043 0.92027 0.0
N16 N 1.02942 0.5797 0.00459 0.0
N17 N 0.97561 0.57086 -0.00992 0.0
N18 N 1.02447 0.59699 0.89026 0.0
H19 H 0.14306 0.61012 -0.01127 0.0
H20 H 0.14817 0.64957 0.90798 0.0
H21 H 0.11962 0.57194 0.90453 0.0
C22 C 0.12114 0.60751 0.93663 0.0
C23 C 0.05854 0.57855 0.36414 0.0
H24 H 0.10311 0.61848 0.36867 0.0
H25 H 1.0343 0.57485 0.41291 0.0
H26 H 1.03451 0.58404 0.31802 0.0
O27 O 1.00026 0.43564 0.17337 0.0
O28 O 0.9598 0.47101 0.1005 0.0
C29 C 0.96752 0.57108 0.17807 0.0
O30 O 0.0912 0.51777 0.05785 0.0
O31 O 0.12817 0.51477 0.16282 0.0
Zn32 Zn 0.57096 0.03609 0.53804 0.0
O33 O 0.65772 0.11523 0.52309 0.0
C34 C 0.53035 0.12184 0.54962 0.0
Zn35 Zn 0.53213 0.04337 0.44599 0.0
C36 C 0.66399 0.12242 0.45601 0.0
O37 O 0.61961 0.09286 0.41527 0.0
C38 C 0.43521 0.95162 0.50642 0.0
O39 O 0.53231 0.95814 0.42316 0.0
O40 O 0.6068 0.98959 0.49782 0.0
N41 N 0.50879 0.0551 0.34728 0.0
C42 C 0.4881 1.01902 0.2913 0.0
C43 C 0.51438 0.10519 0.25326 0.0
N44 N 0.52403 0.10857 0.32398 0.0
N45 N 0.49196 0.04937 0.23151 0.0
C46 C 0.60565 0.04691 0.69511 0.0
C47 C 0.58567 0.95969 0.72031 0.0
N48 N 0.59238 1.0173 0.63402 0.0
N49 N 0.5812 0.9634 0.64938 0.0
N50 N 0.60072 1.01153 0.7502 0.0
H51 H 0.653 0.13056 0.74759 0.0
H52 H 0.58162 0.11267 0.71145 0.0
H53 H 0.64224 0.13494 0.65263 0.0
C54 C 0.62179 0.11003 0.70172 0.0
C55 C 0.46411 0.95403 0.29451 0.0
H56 H 0.43968 0.93605 0.34395 0.0
H57 H 0.501 0.94471 0.29367 0.0
H58 H 0.43389 0.93199 0.2483 0.0
O59 O 0.44452 0.99579 0.4697 0.0
O60 O 0.47942 0.95395 0.5413 0.0
C61 C 0.57184 0.95031 0.45562 0.0
O62 O 0.53715 0.08383 0.58401 0.0
O63 O 0.53337 0.12296 0.48209 0.0
Zn64 Zn 0.58743 0.56339 0.86382 0.0
O65 O 0.58917 0.47866 0.88855 0.0
C66 C 0.69001 0.57442 0.81456 0.0
Zn67 Zn 0.55734 0.52347 0.76752 0.0
C68 C 0.55232 0.43318 0.8526 0.0
O69 O 0.52084 0.43969 0.80575 0.0
C70 C 0.59355 0.64849 0.758 0.0
O71 O 0.46858 0.51312 0.77672 0.0
O72 O 0.49891 0.52297 0.8874 0.0
N73 N 0.53938 0.48729 0.66852 0.0
C74 C 0.50096 0.48753 0.62227 0.0
C75 C 0.52671 0.47385 0.63297 0.0
N76 N 0.56772 0.45864 0.65239 0.0
N77 N 0.49338 0.45369 0.56811 0.0
C78 C 0.58996 0.56418 0.02618 0.0
C79 C 0.63845 0.65571 0.05078 0.0
N80 N 0.60709 0.59375 0.96453 0.0
N81 N 0.63739 0.65061 0.97967 0.0
N82 N 0.60887 0.60203 0.08085 0.0
H83 H 0.52273 0.47725 -0.00737 0.0
H84 H 0.54132 0.48238 0.08621 0.0
H85 H 0.59167 0.48406 0.02353 0.0
C86 C 0.55913 0.49836 0.03285 0.0
C87 C 0.46779 0.52493 0.62479 0.0
H88 H 0.42395 0.49762 0.6491 0.0
H89 H 0.45954 0.53618 0.57012 0.0
H90 H 0.49397 0.56577 0.65583 0.0
O91 O 0.59171 0.60692 0.72341 0.0
O92 O 0.58568 0.64208 0.825 0.0
C93 C 0.45721 0.50991 0.84251 0.0
O94 O 0.67592 0.60677 0.84645 0.0
O95 O 0.65004 0.53389 0.77464 0.0
H96 H 0.22144 0.50004 0.15248 0.0
H97 H 0.36431 0.5188 0.77828 0.0
H98 H 0.13043 0.49191 0.95387 0.0
H99 H 0.41796 0.46778 0.97343 0.0
H100 H 0.27816 0.5102 0.83935 0.0
H101 H 0.29552 0.49039 0.08676 0.0
C102 C 0.21672 0.49579 0.09529 0.0
C103 C 0.16992 0.49751 0.05884 0.0
C104 C 0.30857 0.50018 0.86827 0.0
C105 C 0.25495 0.48728 0.98295 0.0
C106 C 0.3574 0.50469 0.83323 0.0
C107 C 0.39876 0.49462 0.87084 0.0
C108 C 0.3017 0.48603 0.94125 0.0
C109 C 0.3878 0.47687 0.94237 0.0
C110 C 0.25904 0.49036 0.05765 0.0
C111 C 0.16622 0.49183 0.98437 0.0
N112 N 0.34105 0.47392 0.97526 0.0
N113 N 0.20839 0.48766 0.94894 0.0
H114 H 0.72058 0.10178 0.35332 0.0
H115 H 0.88282 0.43677 0.22868 0.0
H116 H 0.72597 0.2421 0.47258 0.0
H117 H 0.9084 0.3082 0.12304 0.0
H118 H 0.81665 0.36264 0.3089 0.0
H119 H 0.78669 0.17373 0.2667 0.0
C120 C 0.73772 0.14816 0.36272 0.0
C121 C 0.71895 0.16618 0.42125 0.0
C122 C 0.83513 0.34982 0.26702 0.0
C123 C 0.79206 0.24858 0.32 0.0
C124 C 0.87163 0.39227 0.21843 0.0
C125 C 0.89886 0.37886 0.16458 0.0
C126 C 0.8263 0.29288 0.26395 0.0
C127 C 0.88645 0.32033 0.1612 0.0
C128 C 0.77462 0.18907 0.31256 0.0
C129 C 0.74066 0.22648 0.42949 0.0
N130 N 0.85135 0.27959 0.21026 0.0
N131 N 0.77544 0.26539 0.37898 0.0
H132 H 0.6426 0.90455 0.4245 0.0
H133 H 0.54398 0.7169 0.7842 0.0
H134 H 0.49073 0.86975 0.54375 0.0
H135 H 0.65024 0.69222 0.63405 0.0
H136 H 0.53482 0.78454 0.69981 0.0
H137 H 0.65297 0.83225 0.4999 0.0
C138 C 0.60924 0.87938 0.46322 0.0
C139 C 0.56332 0.89136 0.47395 0.0
C140 C 0.5606 0.76466 0.6856 0.0
C141 C 0.57768 0.8122 0.56428 0.0
C142 C 0.56658 0.72684 0.73435 0.0
C143 C 0.598 0.69904 0.71632 0.0
C144 C 0.58667 0.77516 0.61861 0.0
C145 C 0.62554 0.71277 0.6501 0.0
C146 C 0.61599 0.83912 0.50737 0.0
C147 C 0.52397 0.8599 0.52862 0.0
N148 N 0.61919 0.74969 0.60365 0.0
N149 N 0.53245 0.82278 0.5718 0.0
H150 H 0.79927 0.66515 0.85217 0.0
H151 H 0.86423 0.4724 0.13323 0.0
H152 H 0.69049 0.47712 0.87004 0.0
H153 H 0.94595 0.66048 0.14927 0.0
H154 H 0.80012 0.47242 0.03824 0.0
H155 H 0.86004 0.66398 0.9536 0.0
C156 C 0.78978 0.62317 0.87478 0.0
C157 C 0.7401 0.57082 0.84995 0.0
C158 C 0.83091 0.51368 0.0637 0.0
C159 C 0.80797 0.56945 0.96924 0.0
C160 C 0.86669 0.51347 0.12062 0.0
C161 C 0.91069 0.56632 0.15178 0.0
C162 C 0.83935 0.5673 0.03629 0.0
C163 C 0.91242 0.61839 0.12797 0.0
C164 C 0.82363 0.62273 0.93402 0.0
C165 C 0.7291 0.5182 0.88376 0.0
N166 N 0.87861 0.61779 0.07079 0.0
N167 N 0.76215 0.51893 0.94167 0.0
H168 H 0.32041 0.92647 0.49239 0.0
H169 H 0.26064 0.69626 0.18514 0.0
H170 H 0.43274 0.85491 0.45282 0.0
H171 H 0.12338 0.72611 0.2568 0.0
H172 H 0.32849 0.7642 0.27641 0.0
H173 H 0.24762 0.85709 0.40584 0.0
C174 C 0.32851 0.89408 0.4688 0.0
C175 C 0.38248 0.89549 0.48292 0.0
C176 C 0.28385 0.75687 0.27129 0.0
C177 C 0.30101 0.81842 0.38015 0.0
C178 C 0.2457 0.71929 0.21795 0.0
C179 C 0.18702 0.70712 0.212 0.0
C180 C 0.26301 0.7822 0.31927 0.0
C181 C 0.16893 0.73583 0.25838 0.0
C182 C 0.28749 0.85533 0.41817 0.0
C183 C 0.3912 0.8538 0.44822 0.0
N184 N 0.20659 0.77181 0.31019 0.0
N185 N 0.3517 0.81799 0.39781 0.0
H186 H 0.47832 0.31629 0.88199 0.0
H187 H 0.58316 0.24108 0.52665 0.0
H188 H 0.63819 0.43575 0.77459 0.0
H189 H 0.4705 0.10357 0.67106 0.0
H190 H 0.59327 0.31437 0.61312 0.0
H191 H 0.46818 0.23651 0.80609 0.0
C192 C 0.51333 0.32523 0.84596 0.0
C193 C 0.56109 0.38295 0.83821 0.0
C194 C 0.56579 0.26808 0.62555 0.0
C195 C 0.54722 0.29306 0.74704 0.0
C196 C 0.55919 0.22636 0.57557 0.0
C197 C 0.52559 0.16627 0.59143 0.0
C198 C 0.53808 0.24954 0.69151 0.0
C199 C 0.49658 0.14961 0.65664 0.0
C200 C 0.50674 0.27999 0.80137 0.0
C201 C 0.60294 0.39221 0.78695 0.0
N202 N 0.50348 0.19088 0.70428 0.0
N203 N 0.59453 0.34838 0.74294 0.0
H204 H 0.10952 0.6711 0.80142 0.0
H205 H 1.00264 0.42012 0.5082 0.0
H206 H 0.95438 0.49907 0.81706 0.0
H207 H 0.1469 0.59683 0.47811 0.0
H208 H 0.9919 0.4457 0.62858 0.0
H209 H 0.12876 0.64437 0.68542 0.0
C210 C 0.07928 0.62807 0.77962 0.0
C211 C 1.03049 0.58708 0.81785 0.0
C212 C 1.02629 0.47887 0.59596 0.0
C213 C 0.05208 0.55587 0.68751 0.0
C214 C 1.03273 0.46396 0.52799 0.0
C215 C 0.0749 0.5069 0.48402 0.0
C216 C 0.06246 0.53707 0.61938 0.0
C217 C 0.11313 0.5632 0.51088 0.0
C218 C 0.09026 0.61266 0.71407 0.0
C219 C 0.99206 0.53191 0.78822 0.0
N220 N 0.10559 0.57707 0.57693 0.0
N221 N 1.00388 0.5177 0.72485 0.0
H222 H 0.55885 1.00316 0.19741 0.0
H223 H 0.51414 0.03263 0.78258 0.0
H224 H 0.44711 0.06667 0.1087 0.0
H225 H 0.64536 0.99558 0.87392 0.0
H226 H 0.48187 0.03638 0.90096 0.0
H227 H 0.58181 0.98842 0.07861 0.0
C228 C 0.53765 1.01218 0.15253 0.0
C229 C 0.49958 0.03435 0.1621 0.0
C230 C 0.51811 1.02802 0.89542 0.0
C231 C 0.52797 1.02056 0.02638 0.0
C232 C 0.53702 1.02673 0.82815 0.0
C233 C 0.58396 1.01622 0.81966 0.0
C234 C 0.54584 1.01778 0.95434 0.0
C235 C 0.60998 1.00518 0.87932 0.0
C236 C 0.55158 1.00476 0.08482 0.0
C237 C 0.47586 0.04859 0.10268 0.0
N238 N 0.5907 1.00654 0.9447 0.0
N239 N 0.49056 0.04153 0.03685 0.0
H240 H 0.43059 0.41344 0.44875 0.0
H241 H 0.68499 0.63285 0.19331 0.0
H242 H 0.59952 0.55001 0.53089 0.0
H243 H 0.49971 0.54336 0.13295 0.0
H244 H 0.65815 0.6004 0.31689 0.0
H245 H 0.45872 0.45525 0.32951 0.0
C246 C 0.47362 0.45215 0.4412 0.0
C247 C 0.51242 0.47839 0.49899 0.0
C248 C 0.62343 0.5883 0.27661 0.0
C249 C 0.54531 0.5265 0.36401 0.0
C250 C 0.63875 0.60684 0.20668 0.0
C251 C 0.5943 0.58922 0.15379 0.0
C252 C 0.5634 0.55194 0.29266 0.0
C253 C 0.53493 0.55627 0.1727 0.0
C254 C 0.48955 0.47623 0.37368 0.0
C255 C 0.56808 0.5286 0.48744 0.0
N256 N 0.52111 0.53789 0.24057 0.0
N257 N 0.58299 0.55097 0.42091 0.0
loop_
_geom_bond_atom_site_label_1
_geom_bond_atom_site_label_2
_geom_bond_distance
_geom_bond_site_symmetry_2
_ccdc_geom_bond_type
Zn0 O1 2.055 . S
Zn0 O8 2.046 1_455 S
Zn0 N16 2.036 1_454 S
Zn0 O28 2.053 1_455 S
Zn0 O30 2.066 . S
O1 Zn0 2.055 . S
O1 C4 1.259 . S
C2 O30 1.256 . S
C2 O31 1.244 . S
Zn3 O5 2.046 . S
Zn3 O7 2.055 1_455 S
Zn3 N9 2.036 . S
Zn3 O27 2.066 1_455 S
Zn3 O31 2.053 . S
C4 O1 1.259 . S
C4 O5 1.254 . S
O5 Zn3 2.046 . S
O5 C4 1.254 . S
C6 O27 1.256 . S
C6 O28 1.244 . S
O7 Zn3 2.055 1_655 S
O7 C29 1.259 . S
O8 Zn0 2.046 1_655 S
O8 C29 1.254 . S
N9 Zn3 2.036 . S
N9 C10 1.298 1_455 S
N9 N12 1.398 . S
C10 N9 1.298 1_655 S
C10 N13 1.367 1_655 S
C10 C23 1.481 . S
C11 N12 1.299 . S
C11 N13 1.379 . S
N12 N9 1.398 . S
N12 C11 1.299 . S
N13 C10 1.367 1_455 S
N13 C11 1.379 . S
C14 N16 1.298 1_455 S
C14 N18 1.367 . S
C14 C22 1.481 . S
C15 N17 1.299 . S
C15 N18 1.379 1_655 S
N16 Zn0 2.036 1_656 S
N16 C14 1.298 1_655 S
N16 N17 1.398 . S
N17 C15 1.299 . S
N17 N16 1.398 . S
N18 C14 1.367 . S
N18 C15 1.379 1_455 S
H19 C22 0.980 . S
H20 C22 0.981 . S
H21 C22 0.981 . S
C22 C14 1.481 . S
C22 H19 0.980 . S
C22 H20 0.981 . S
C22 H21 0.981 . S
C23 C10 1.481 . S
C23 H24 0.980 . S
C23 H25 0.981 . S
C23 H26 0.981 . S
H24 C23 0.980 . S
H25 C23 0.981 . S
H26 C23 0.981 . S
O27 Zn3 2.066 1_655 S
O27 C6 1.256 . S
O28 Zn0 2.053 1_655 S
O28 C6 1.244 . S
C29 O7 1.259 . S
C29 O8 1.254 . S
O30 Zn0 2.066 . S
O30 C2 1.256 . S
O31 C2 1.244 . S
O31 Zn3 2.053 . S
Zn32 O33 2.055 . S
Zn32 O40 2.046 1_545 S
Zn32 N48 2.036 1_545 S
Zn32 O60 2.053 1_545 S
Zn32 O62 2.066 . S
O33 Zn32 2.055 . S
O33 C36 1.259 . S
C34 O62 1.256 . S
C34 O63 1.244 . S
Zn35 O37 2.046 . S
Zn35 O39 2.055 1_545 S
Zn35 N41 2.036 . S
Zn35 O59 2.066 1_545 S
Zn35 O63 2.053 . S
C36 O33 1.259 . S
C36 O37 1.254 . S
O37 Zn35 2.046 . S
O37 C36 1.254 . S
C38 O59 1.256 . S
C38 O60 1.244 . S
O39 Zn35 2.055 1_565 S
O39 C61 1.259 . S
O40 Zn32 2.046 1_565 S
O40 C61 1.254 . S
N41 Zn35 2.036 . S
N41 C42 1.298 1_545 S
N41 N44 1.398 . S
C42 N41 1.298 1_565 S
C42 N45 1.367 1_565 S
C42 C55 1.481 . S
C43 N44 1.299 . S
C43 N45 1.379 . S
N44 N41 1.398 . S
N44 C43 1.299 . S
N45 C42 1.367 1_545 S
N45 C43 1.379 . S
C46 N48 1.298 1_545 S
C46 N50 1.367 . S
C46 C54 1.481 . S
C47 N49 1.299 . S
C47 N50 1.379 1_565 S
N48 Zn32 2.036 1_565 S
N48 C46 1.298 1_565 S
N48 N49 1.398 . S
N49 C47 1.299 . S
N49 N48 1.398 . S
N50 C46 1.367 . S
N50 C47 1.379 1_545 S
H51 C54 0.980 . S
H52 C54 0.981 . S
H53 C54 0.981 . S
C54 C46 1.481 . S
C54 H51 0.980 . S
C54 H52 0.981 . S
C54 H53 0.981 . S
C55 C42 1.481 . S
C55 H56 0.980 . S
C55 H57 0.981 . S
C55 H58 0.981 . S
H56 C55 0.980 . S
H57 C55 0.981 . S
H58 C55 0.981 . S
O59 Zn35 2.066 1_565 S
O59 C38 1.256 . S
O60 Zn32 2.053 1_565 S
O60 C38 1.244 . S
C61 O39 1.259 . S
C61 O40 1.254 . S
O62 Zn32 2.066 . S
O62 C34 1.256 . S
O63 C34 1.244 . S
O63 Zn35 2.053 . S
Zn64 O65 2.055 . S
Zn64 O72 2.046 . S
Zn64 N80 2.036 1_556 S
Zn64 O92 2.053 . S
Zn64 O94 2.066 . S
O65 Zn64 2.055 . S
O65 C68 1.259 . S
C66 O94 1.256 . S
C66 O95 1.244 . S
Zn67 O69 2.046 . S
Zn67 O71 2.055 . S
Zn67 N73 2.036 . S
Zn67 O91 2.066 . S
Zn67 O95 2.053 . S
C68 O65 1.259 . S
C68 O69 1.254 . S
O69 Zn67 2.046 . S
O69 C68 1.254 . S
C70 O91 1.256 . S
C70 O92 1.244 . S
O71 Zn67 2.055 . S
O71 C93 1.259 . S
O72 Zn64 2.046 . S
O72 C93 1.254 . S
N73 Zn67 2.036 . S
N73 C74 1.298 . S
N73 N76 1.398 . S
C74 N73 1.298 . S
C74 N77 1.367 . S
C74 C87 1.481 . S
C75 N76 1.299 . S
C75 N77 1.379 . S
N76 N73 1.398 . S
N76 C75 1.299 . S
N77 C74 1.367 . S
N77 C75 1.379 . S
C78 N80 1.298 . S
C78 N82 1.367 . S
C78 C86 1.481 . S
C79 N81 1.299 . S
C79 N82 1.379 . S
N80 Zn64 2.036 1_554 S
N80 C78 1.298 . S
N80 N81 1.398 . S
N81 C79 1.299 . S
N81 N80 1.398 . S
N82 C78 1.367 . S
N82 C79 1.379 . S
H83 C86 0.980 . S
H84 C86 0.981 . S
H85 C86 0.981 . S
C86 C78 1.481 . S
C86 H83 0.980 . S
C86 H84 0.981 . S
C86 H85 0.981 . S
C87 C74 1.481 . S
C87 H88 0.980 . S
C87 H89 0.981 . S
C87 H90 0.981 . S
H88 C87 0.980 . S
H89 C87 0.981 . S
H90 C87 0.981 . S
O91 Zn67 2.066 . S
O91 C70 1.256 . S
O92 Zn64 2.053 . S
O92 C70 1.244 . S
C93 O71 1.259 . S
C93 O72 1.254 . S
O94 Zn64 2.066 . S
O94 C66 1.256 . S
O95 C66 1.244 . S
O95 Zn67 2.053 . S
H96 C102 0.930 . S
H97 C106 0.930 . S
H98 C111 0.929 . S
H99 C109 0.929 . S
H100 C104 0.929 . S
H101 C110 0.929 . S
C102 H96 0.930 . S
C102 C103 1.367 . S
C102 C110 1.378 . S
C103 C102 1.367 . S
C103 C111 1.433 . S
C104 H100 0.929 . S
C104 C106 1.378 . S
C104 C108 1.350 . S
C105 C108 1.463 1_554 S
C105 C110 1.350 . S
C105 N113 1.427 . S
C106 H97 0.930 . S
C106 C104 1.378 . S
C106 C107 1.367 . S
C107 C106 1.367 . S
C107 C109 1.433 . S
C108 C104 1.350 . S
C108 C105 1.463 1_556 S
C108 N112 1.427 . S
C109 H99 0.929 . S
C109 C107 1.433 . S
C109 N112 1.384 . S
C110 H101 0.929 . S
C110 C102 1.378 . S
C110 C105 1.350 . S
C111 H98 0.929 . S
C111 C103 1.433 . S
C111 N113 1.384 . S
N112 C108 1.427 . S
N112 C109 1.384 . S
N113 C105 1.427 . S
N113 C111 1.384 . S
H114 C120 0.930 . S
H115 C124 0.930 . S
H116 C129 0.929 . S
H117 C127 0.929 . S
H118 C122 0.929 . S
H119 C128 0.929 . S
C120 H114 0.930 . S
C120 C121 1.367 . S
C120 C128 1.378 . S
C121 C120 1.367 . S
C121 C129 1.433 . S
C122 H118 0.929 . S
C122 C124 1.378 . S
C122 C126 1.350 . S
C123 C126 1.463 . S
C123 C128 1.350 . S
C123 N131 1.427 . S
C124 H115 0.930 . S
C124 C122 1.378 . S
C124 C125 1.367 . S
C125 C124 1.367 . S
C125 C127 1.433 . S
C126 C122 1.350 . S
C126 C123 1.463 . S
C126 N130 1.427 . S
C127 H117 0.929 . S
C127 C125 1.433 . S
C127 N130 1.384 . S
C128 H119 0.929 . S
C128 C120 1.378 . S
C128 C123 1.350 . S
C129 H116 0.929 . S
C129 C121 1.433 . S
C129 N131 1.384 . S
N130 C126 1.427 . S
N130 C127 1.384 . S
N131 C123 1.427 . S
N131 C129 1.384 . S
H132 C138 0.930 . S
H133 C142 0.930 . S
H134 C147 0.929 . S
H135 C145 0.929 . S
H136 C140 0.929 . S
H137 C146 0.929 . S
C138 H132 0.930 . S
C138 C139 1.367 . S
C138 C146 1.378 . S
C139 C138 1.367 . S
C139 C147 1.433 . S
C140 H136 0.929 . S
C140 C142 1.378 . S
C140 C144 1.350 . S
C141 C144 1.463 . S
C141 C146 1.350 . S
C141 N149 1.427 . S
C142 H133 0.930 . S
C142 C140 1.378 . S
C142 C143 1.367 . S
C143 C142 1.367 . S
C143 C145 1.433 . S
C144 C140 1.350 . S
C144 C141 1.463 . S
C144 N148 1.427 . S
C145 H135 0.929 . S
C145 C143 1.433 . S
C145 N148 1.384 . S
C146 H137 0.929 . S
C146 C138 1.378 . S
C146 C141 1.350 . S
C147 H134 0.929 . S
C147 C139 1.433 . S
C147 N149 1.384 . S
N148 C144 1.427 . S
N148 C145 1.384 . S
N149 C141 1.427 . S
N149 C147 1.384 . S
H150 C156 0.930 . S
H151 C160 0.930 . S
H152 C165 0.929 . S
H153 C163 0.929 . S
H154 C158 0.929 . S
H155 C164 0.929 1_554 S
C156 H150 0.930 . S
C156 C157 1.367 . S
C156 C164 1.378 . S
C157 C156 1.367 . S
C157 C165 1.433 . S
C158 H154 0.929 . S
C158 C160 1.378 . S
C158 C162 1.350 . S
C159 C162 1.463 1_556 S
C159 C164 1.350 . S
C159 N167 1.427 . S
C160 H151 0.930 . S
C160 C158 1.378 . S
C160 C161 1.367 . S
C161 C160 1.367 . S
C161 C163 1.433 . S
C162 C158 1.350 . S
C162 C159 1.463 1_554 S
C162 N166 1.427 . S
C163 H153 0.929 . S
C163 C161 1.433 . S
C163 N166 1.384 . S
C164 H155 0.929 1_556 S
C164 C156 1.378 . S
C164 C159 1.350 . S
C165 H152 0.929 . S
C165 C157 1.433 . S
C165 N167 1.384 . S
N166 C162 1.427 . S
N166 C163 1.384 . S
N167 C159 1.427 . S
N167 C165 1.384 . S
H168 C174 0.930 . S
H169 C178 0.930 . S
H170 C183 0.929 . S
H171 C181 0.929 . S
H172 C176 0.929 . S
H173 C182 0.929 . S
C174 H168 0.930 . S
C174 C175 1.367 . S
C174 C182 1.378 . S
C175 C174 1.367 . S
C175 C183 1.433 . S
C176 H172 0.929 . S
C176 C178 1.378 . S
C176 C180 1.350 . S
C177 C180 1.463 . S
C177 C182 1.350 . S
C177 N185 1.427 . S
C178 H169 0.930 . S
C178 C176 1.378 . S
C178 C179 1.367 . S
C179 C178 1.367 . S
C179 C181 1.433 . S
C180 C176 1.350 . S
C180 C177 1.463 . S
C180 N184 1.427 . S
C181 H171 0.929 . S
C181 C179 1.433 . S
C181 N184 1.384 . S
C182 H173 0.929 . S
C182 C174 1.378 . S
C182 C177 1.350 . S
C183 H170 0.929 . S
C183 C175 1.433 . S
C183 N185 1.384 . S
N184 C180 1.427 . S
N184 C181 1.384 . S
N185 C177 1.427 . S
N185 C183 1.384 . S
H186 C192 0.930 . S
H187 C196 0.930 . S
H188 C201 0.929 . S
H189 C199 0.929 . S
H190 C194 0.929 . S
H191 C200 0.929 . S
C192 H186 0.930 . S
C192 C193 1.367 . S
C192 C200 1.378 . S
C193 C192 1.367 . S
C193 C201 1.433 . S
C194 H190 0.929 . S
C194 C196 1.378 . S
C194 C198 1.350 . S
C195 C198 1.463 . S
C195 C200 1.350 . S
C195 N203 1.427 . S
C196 H187 0.930 . S
C196 C194 1.378 . S
C196 C197 1.367 . S
C197 C196 1.367 . S
C197 C199 1.433 . S
C198 C194 1.350 . S
C198 C195 1.463 . S
C198 N202 1.427 . S
C199 H189 0.929 . S
C199 C197 1.433 . S
C199 N202 1.384 . S
C200 H191 0.929 . S
C200 C192 1.378 . S
C200 C195 1.350 . S
C201 H188 0.929 . S
C201 C193 1.433 . S
C201 N203 1.384 . S
N202 C198 1.427 . S
N202 C199 1.384 . S
N203 C195 1.427 . S
N203 C201 1.384 . S
H204 C210 0.930 . S
H205 C214 0.930 . S
H206 C219 0.929 . S
H207 C217 0.929 . S
H208 C212 0.929 . S
H209 C218 0.929 . S
C210 H204 0.930 . S
C210 C211 1.367 . S
C210 C218 1.378 . S
C211 C210 1.367 . S
C211 C219 1.433 1_455 S
C212 H208 0.929 . S
C212 C214 1.378 . S
C212 C216 1.350 1_655 S
C213 C216 1.463 . S
C213 C218 1.350 . S
C213 N221 1.427 1_455 S
C214 H205 0.930 . S
C214 C212 1.378 . S
C214 C215 1.367 . S
C215 C214 1.367 . S
C215 C217 1.433 1_655 S
C216 C212 1.350 1_455 S
C216 C213 1.463 . S
C216 N220 1.427 . S
C217 H207 0.929 . S
C217 C215 1.433 1_455 S
C217 N220 1.384 . S
C218 H209 0.929 . S
C218 C210 1.378 . S
C218 C213 1.350 . S
C219 H206 0.929 . S
C219 C211 1.433 1_655 S
C219 N221 1.384 . S
N220 C216 1.427 . S
N220 C217 1.384 . S
N221 C213 1.427 1_655 S
N221 C219 1.384 . S
H222 C228 0.930 . S
H223 C232 0.930 . S
H224 C237 0.929 . S
H225 C235 0.929 . S
H226 C230 0.929 . S
H227 C236 0.929 . S
C228 H222 0.930 . S
C228 C229 1.367 . S
C228 C236 1.378 . S
C229 C228 1.367 . S
C229 C237 1.433 1_565 S
C230 H226 0.929 . S
C230 C232 1.378 . S
C230 C234 1.350 . S
C231 C234 1.463 1_554 S
C231 C236 1.350 1_545 S
C231 N239 1.427 . S
C232 H223 0.930 . S
C232 C230 1.378 . S
C232 C233 1.367 . S
C233 C232 1.367 . S
C233 C235 1.433 1_545 S
C234 C230 1.350 . S
C234 C231 1.463 1_556 S
C234 N238 1.427 1_545 S
C235 H225 0.929 . S
C235 C233 1.433 1_565 S
C235 N238 1.384 . S
C236 H227 0.929 . S
C236 C228 1.378 . S
C236 C231 1.350 1_565 S
C237 H224 0.929 . S
C237 C229 1.433 1_545 S
C237 N239 1.384 . S
N238 C234 1.427 1_565 S
N238 C235 1.384 . S
N239 C231 1.427 . S
N239 C237 1.384 . S
H240 C246 0.930 . S
H241 C250 0.930 . S
H242 C255 0.929 . S
H243 C253 0.929 . S
H244 C248 0.929 . S
H245 C254 0.929 . S
C246 H240 0.930 . S
C246 C247 1.367 . S
C246 C254 1.378 . S
C247 C246 1.367 . S
C247 C255 1.433 . S
C248 H244 0.929 . S
C248 C250 1.378 . S
C248 C252 1.350 . S
C249 C252 1.463 . S
C249 C254 1.350 . S
C249 N257 1.427 . S
C250 H241 0.930 . S
C250 C248 1.378 . S
C250 C251 1.367 . S
C251 C250 1.367 . S
C251 C253 1.433 . S
C252 C248 1.350 . S
C252 C249 1.463 . S
C252 N256 1.427 . S
C253 H243 0.929 . S
C253 C251 1.433 . S
C253 N256 1.384 . S
C254 H245 0.929 . S
C254 C246 1.378 . S
C254 C249 1.350 . S
C255 H242 0.929 . S
C255 C247 1.433 . S
C255 N257 1.384 . S
N256 C252 1.427 . S
N256 C253 1.384 . S
N257 C249 1.427 . S
N257 C255 1.384 . S
C103 C2 1.937 . S
C107 C93 1.917 . S
C121 C36 1.921 . S
C125 C6 1.941 . S
C139 C61 1.916 . S
C143 C70 1.936 . S
C157 C66 1.936 . S
C161 C29 1.912 . S
C175 C38 1.931 . S
C179 C4 1.908 . S
C193 C68 1.922 . S
C197 C34 1.942 . S
C211 N18 0.527 . S
C215 N13 0.530 1_655 S
C229 N45 0.526 1_565 S
C233 N50 0.530 . S
C247 N77 0.530 . S
C251 N82 0.532 . S
