# Generated by pormake.
# Topology acs, (6)-cn, num edge types: 1
# Building blocks:
#     Node 0, Type 0, BuildingBlock: OJICUG_clean_sbu_0, # of connection points: 6
#     Node 1, Type 0, BuildingBlock: OJICUG_clean_sbu_0, # of connection points: 6
#     Edge 2, Type (0, 0), BuildingBlock: KIFKEQ_clean_linker_1, # of connection points: 2
#     Edge 3, Type (0, 0), BuildingBlock: KIFKEQ_clean_linker_1, # of connection points: 2
#     Edge 4, Type (0, 0), BuildingBlock: KIFKEQ_clean_linker_1, # of connection points: 2
#     Edge 5, Type (0, 0), BuildingBlock: KIFKEQ_clean_linker_1, # of connection points: 2
#     Edge 6, Type (0, 0), BuildingBlock: KIFKEQ_clean_linker_1, # of connection points: 2
#     Edge 7, Type (0, 0), BuildingBlock: KIFKEQ_clean_linker_1, # of connection points: 2
# Relax obj value: 0.000
# Max RMSD: 0.000
# Mean RMSD: 0.000
data_MOF--net-acs--node1-OJICUG_clean_sbu_0--edge1-KIFKEQ_clean_linker_1
_symmetry_space_group_name_H-M    P1
_symmetry_Int_Tables_number       1
_symmetry_cell_setting            triclinic
loop_
_symmetry_equiv_pos_as_xyz
'x, y, z'
_cell_length_a     21.73499
_cell_length_b     21.729948
_cell_length_c     22.631798
_cell_angle_alpha  90.002736
_cell_angle_beta   89.994813
_cell_angle_gamma 120.00768
loop_
_atom_site_label
_atom_site_type_symbol
_atom_site_fract_x
_atom_site_fract_y
_atom_site_fract_z
_atom_type_partial_charge
Sc0 Sc 0.71665 0.43948 0.23771 0.0
Sc1 Sc 0.55508 0.27646 0.23639 0.0
Sc2 Sc 0.71796 0.2777 0.23942 0.0
O3 O 0.66324 0.33123 0.23784 0.0
C4 C 0.8116 0.40483 0.15071 0.0
C5 C 0.59007 0.40497 0.14815 0.0
C6 C 0.59126 0.1832 0.14978 0.0
C7 C 0.58692 0.40373 0.32461 0.0
C8 C 0.81049 0.40701 0.32713 0.0
C9 C 0.58917 0.18373 0.32645 0.0
O10 O 0.79032 0.44572 0.17075 0.0
O11 O 0.54918 0.34302 0.16849 0.0
O12 O 0.65196 0.20308 0.17236 0.0
O13 O 0.64862 0.44527 0.30408 0.0
O14 O 0.7907 0.34553 0.30638 0.0
O15 O 0.54775 0.20278 0.30376 0.0
O16 O 0.78732 0.44653 0.3077 0.0
O17 O 0.54744 0.34084 0.30545 0.0
O18 O 0.65269 0.20758 0.30888 0.0
O19 O 0.6522 0.4455 0.16822 0.0
O20 O 0.78958 0.34247 0.17055 0.0
O21 O 0.55105 0.20642 0.1673 0.0
Sc22 Sc 0.27497 0.55613 0.73769 0.0
Sc23 Sc 0.43808 0.71791 0.73649 0.0
Sc24 Sc 0.27644 0.71916 0.73951 0.0
O25 O 0.32982 0.66438 0.7379 0.0
C26 C 0.18124 0.59228 0.65085 0.0
C27 C 0.4015 0.58916 0.64825 0.0
C28 C 0.40352 0.81248 0.64988 0.0
C29 C 0.40434 0.5902 0.82469 0.0
C30 C 0.18267 0.59026 0.82732 0.0
C31 C 0.40564 0.81183 0.82657 0.0
O32 O 0.20147 0.55071 0.67118 0.0
O33 O 0.44309 0.65065 0.66904 0.0
O34 O 0.34285 0.79308 0.67231 0.0
O35 O 0.34209 0.54952 0.80475 0.0
O36 O 0.20391 0.65236 0.80727 0.0
O37 O 0.44646 0.79189 0.80406 0.0
O38 O 0.20417 0.54975 0.80705 0.0
O39 O 0.4448 0.65255 0.80489 0.0
O40 O 0.34238 0.78896 0.80876 0.0
O41 O 0.33891 0.54943 0.66779 0.0
O42 O 0.20448 0.65502 0.67031 0.0
O43 O 0.44322 0.78869 0.66752 0.0
H44 H 0.32987 0.84689 0.90227 0.0
H45 H 0.5441 0.89736 0.86029 0.0
H46 H 0.37523 0.93552 0.98047 0.0
H47 H 0.58975 0.98792 0.93708 0.0
H48 H 0.643 0.09626 0.11735 0.0
H49 H 0.59796 0.00541 0.04078 0.0
H50 H 0.43792 0.05999 -0.00464 0.0
H51 H 0.48128 0.14889 0.07334 0.0
C52 C 0.38672 0.87721 0.90946 0.0
C53 C 0.43331 0.865 0.8749 0.0
C54 C 0.41284 0.92846 0.95413 0.0
C55 C 0.48628 0.96937 0.96502 0.0
C56 C 0.53283 0.95683 0.93061 0.0
C57 C 0.50665 0.90505 0.88631 0.0
C58 C 0.59829 0.08898 0.09093 0.0
C59 C 0.56562 0.12974 0.10168 0.0
C60 C 0.57262 0.03703 0.04677 0.0
C61 C 0.51409 0.02505 0.01183 0.0
C62 C 0.48214 0.06662 0.0221 0.0
C63 C 0.50732 0.11802 0.06665 0.0
H64 H 0.53901 0.64046 0.61346 0.0
H65 H 0.32393 0.47654 0.57421 0.0
H66 H 0.58321 0.59458 0.53662 0.0
H67 H 0.36794 0.43223 0.4955 0.0
H68 H 0.4751 0.3264 0.39938 0.0
H69 H 0.43048 0.3708 0.47753 0.0
H70 H 0.59009 0.58621 0.43352 0.0
H71 H 0.63634 0.54165 0.35723 0.0
C72 C 0.50101 0.59506 0.58796 0.0
C73 C 0.42788 0.56219 0.60006 0.0
C74 C 0.52638 0.56889 0.54357 0.0
C75 C 0.47924 0.50969 0.50955 0.0
C76 C 0.40598 0.47715 0.52138 0.0
C77 C 0.38064 0.50285 0.5663 0.0
C78 C 0.50071 0.38323 0.4065 0.0
C79 C 0.55948 0.43042 0.37218 0.0
C80 C 0.47482 0.40879 0.4511 0.0
C81 C 0.50657 0.48221 0.46202 0.0
C82 C 0.56506 0.5293 0.42729 0.0
C83 C 0.59144 0.50373 0.38323 0.0
H84 H 0.89771 0.35293 0.11691 0.0
H85 H 0.84761 0.51731 0.07654 0.0
H86 H 0.9886 0.39866 0.04058 0.0
H87 H 0.93646 0.56133 -0.00162 0.0
H88 H 0.09614 0.45231 0.86108 0.0
H89 H 0.00572 0.40747 0.93778 0.0
H90 H 0.05995 0.62266 0.98101 0.0
H91 H 0.14834 0.6672 0.90246 0.0
C92 C 0.90554 0.39839 0.09127 0.0
C93 C 0.8654 0.43149 0.10291 0.0
C94 C 0.95752 0.42448 0.04719 0.0
C95 C 0.97009 0.48378 0.01306 0.0
C96 C 0.92935 0.51643 0.02441 0.0
C97 C 0.87797 0.49088 0.06902 0.0
C98 C 0.08889 0.49009 0.88704 0.0
C99 C 0.12941 0.56335 0.87554 0.0
C100 C 0.03718 0.46437 0.93134 0.0
C101 C 0.02529 0.51132 0.96583 0.0
C102 C 0.06653 0.58473 0.9547 0.0
C103 C 0.11763 0.61038 0.90986 0.0
H104 H 0.35145 0.89874 0.61638 0.0
H105 H 0.51502 0.84788 0.57471 0.0
H106 H 0.39677 0.98946 0.53981 0.0
H107 H 0.55873 0.93675 0.49663 0.0
H108 H 0.6655 0.14978 0.40262 0.0
H109 H 0.62046 0.06118 0.48092 0.0
H110 H 0.40554 0.00619 0.4362 0.0
H111 H 0.45079 0.09665 0.35942 0.0
C112 C 0.39665 0.90638 0.59048 0.0
C113 C 0.42967 0.86607 0.60185 0.0
C114 C 0.42249 0.95827 0.54629 0.0
C115 C 0.48156 0.97069 0.51191 0.0
C116 C 0.51402 0.92972 0.52289 0.0
C117 C 0.48863 0.87833 0.56748 0.0
C118 C 0.60863 0.11889 0.40957 0.0
C119 C 0.5618 0.13041 0.37469 0.0
C120 C 0.5827 0.06766 0.45429 0.0
C121 C 0.50924 0.02611 0.46488 0.0
C122 C 0.46247 0.03784 0.43003 0.0
C123 C 0.48844 0.08957 0.38571 0.0
H124 H 0.32774 0.47828 0.89936 0.0
H125 H 0.54243 0.64108 0.85761 0.0
H126 H 0.37258 0.43416 0.97746 0.0
H127 H 0.58756 0.59523 0.93384 0.0
H128 H 0.64218 0.54269 0.11342 0.0
H129 H 0.59657 0.58732 0.0366 0.0
H130 H 0.43405 0.37218 -0.0049 0.0
H131 H 0.47797 0.32787 0.07377 0.0
C132 C 0.38458 0.50432 0.90656 0.0
C133 C 0.43146 0.56334 0.87234 0.0
C134 C 0.4104 0.47871 0.95113 0.0
C135 C 0.48384 0.51092 0.96209 0.0
C136 C 0.53064 0.56978 0.92756 0.0
C137 C 0.50476 0.59594 0.88354 0.0
C138 C 0.5968 0.50487 0.08781 0.0
C139 C 0.56366 0.4317 0.09984 0.0
C140 C 0.57078 0.53046 0.04344 0.0
C141 C 0.51152 0.48348 0.00939 0.0
C142 C 0.47892 0.41015 0.02105 0.0
C143 C 0.5044 0.38462 0.06596 0.0
H144 H 0.09393 0.45458 0.617 0.0
H145 H 0.14581 0.66974 0.57706 0.0
H146 H 0.00334 0.41024 0.54058 0.0
H147 H 0.05697 0.62558 0.49876 0.0
H148 H 0.84458 0.51883 0.40189 0.0
H149 H 0.93303 0.56325 0.48052 0.0
H150 H 0.98833 0.40305 0.43751 0.0
H151 H 0.89813 0.35703 0.36078 0.0
C152 C 0.08654 0.49256 0.59146 0.0
C153 C 0.12724 0.56576 0.60318 0.0
C154 C 0.03471 0.46711 0.54731 0.0
C155 C 0.02277 0.51423 0.51315 0.0
C156 C 0.06376 0.58755 0.52473 0.0
C157 C 0.1151 0.61298 0.56942 0.0
C158 C 0.87555 0.49303 0.40936 0.0
C159 C 0.86404 0.43419 0.37516 0.0
C160 C 0.92666 0.5188 0.45424 0.0
C161 C 0.96805 0.48685 0.46555 0.0
C162 C 0.95665 0.42823 0.43099 0.0
C163 C 0.90504 0.40198 0.38667 0.0
loop_
_geom_bond_atom_site_label_1
_geom_bond_atom_site_label_2
_geom_bond_distance
_geom_bond_site_symmetry_2
_ccdc_geom_bond_type
Sc0 O3 2.025 . S
Sc0 O10 2.105 . S
Sc0 O13 2.105 . S
Sc0 O16 2.105 . S
Sc0 O19 2.105 . S
Sc1 O3 2.025 . S
Sc1 O11 2.105 . S
Sc1 O15 2.105 . S
Sc1 O17 2.105 . S
Sc1 O21 2.105 . S
Sc2 O3 2.025 . S
Sc2 O12 2.105 . S
Sc2 O14 2.105 . S
Sc2 O18 2.105 . S
Sc2 O20 2.105 . S
O3 Sc0 2.025 . S
O3 Sc1 2.025 . S
O3 Sc2 2.025 . S
C4 O10 1.268 . S
C4 O20 1.268 . S
C5 O11 1.268 . S
C5 O19 1.268 . S
C6 O12 1.268 . S
C6 O21 1.268 . S
C7 O13 1.268 . S
C7 O17 1.268 . S
C8 O14 1.268 . S
C8 O16 1.268 . S
C9 O15 1.268 . S
C9 O18 1.268 . S
O10 Sc0 2.105 . S
O10 C4 1.268 . S
O11 Sc1 2.105 . S
O11 C5 1.268 . S
O12 Sc2 2.105 . S
O12 C6 1.268 . S
O13 Sc0 2.105 . S
O13 C7 1.268 . S
O14 Sc2 2.105 . S
O14 C8 1.268 . S
O15 Sc1 2.105 . S
O15 C9 1.268 . S
O16 Sc0 2.105 . S
O16 C8 1.268 . S
O17 Sc1 2.105 . S
O17 C7 1.268 . S
O18 Sc2 2.105 . S
O18 C9 1.268 . S
O19 Sc0 2.105 . S
O19 C5 1.268 . S
O20 Sc2 2.105 . S
O20 C4 1.268 . S
O21 Sc1 2.105 . S
O21 C6 1.268 . S
Sc22 O25 2.025 . S
Sc22 O32 2.105 . S
Sc22 O35 2.105 . S
Sc22 O38 2.105 . S
Sc22 O41 2.105 . S
Sc23 O25 2.025 . S
Sc23 O33 2.105 . S
Sc23 O37 2.105 . S
Sc23 O39 2.105 . S
Sc23 O43 2.105 . S
Sc24 O25 2.025 . S
Sc24 O34 2.105 . S
Sc24 O36 2.105 . S
Sc24 O40 2.105 . S
Sc24 O42 2.105 . S
O25 Sc22 2.025 . S
O25 Sc23 2.025 . S
O25 Sc24 2.025 . S
C26 O32 1.268 . S
C26 O42 1.268 . S
C27 O33 1.268 . S
C27 O41 1.268 . S
C28 O34 1.268 . S
C28 O43 1.268 . S
C29 O35 1.268 . S
C29 O39 1.268 . S
C30 O36 1.268 . S
C30 O38 1.268 . S
C31 O37 1.268 . S
C31 O40 1.268 . S
O32 Sc22 2.105 . S
O32 C26 1.268 . S
O33 Sc23 2.105 . S
O33 C27 1.268 . S
O34 Sc24 2.105 . S
O34 C28 1.268 . S
O35 Sc22 2.105 . S
O35 C29 1.268 . S
O36 Sc24 2.105 . S
O36 C30 1.268 . S
O37 Sc23 2.105 . S
O37 C31 1.268 . S
O38 Sc22 2.105 . S
O38 C30 1.268 . S
O39 Sc23 2.105 . S
O39 C29 1.268 . S
O40 Sc24 2.105 . S
O40 C31 1.268 . S
O41 Sc22 2.105 . S
O41 C27 1.268 . S
O42 Sc24 2.105 . S
O42 C26 1.268 . S
O43 Sc23 2.105 . S
O43 C28 1.268 . S
H44 C52 0.950 . S
H45 C57 0.950 . S
H46 C54 0.950 1_545 S
H47 C56 0.950 1_554 S
H48 C58 0.950 . S
H49 C60 0.950 1_565 S
H50 C62 0.950 1_556 S
H51 C63 0.950 . S
C52 H44 0.950 . S
C52 C53 1.386 . S
C52 C54 1.391 . S
C53 C52 1.386 . S
C53 C57 1.393 . S
C54 H46 0.950 1_565 S
C54 C52 1.391 . S
C54 C55 1.400 . S
C55 C54 1.400 . S
C55 C56 1.398 . S
C55 C61 1.491 1_566 S
C56 H47 0.950 1_556 S
C56 C55 1.398 . S
C56 C57 1.391 . S
C57 H45 0.950 . S
C57 C53 1.393 . S
C57 C56 1.391 . S
C58 H48 0.950 . S
C58 C59 1.386 . S
C58 C60 1.391 . S
C59 C58 1.386 . S
C59 C63 1.393 . S
C60 H49 0.950 1_545 S
C60 C58 1.391 . S
C60 C61 1.400 . S
C61 C55 1.491 1_544 S
C61 C60 1.400 . S
C61 C62 1.398 . S
C62 H50 0.950 1_554 S
C62 C61 1.398 . S
C62 C63 1.391 . S
C63 H51 0.950 . S
C63 C59 1.393 . S
C63 C62 1.391 . S
H64 C72 0.950 . S
H65 C77 0.950 . S
H66 C74 0.950 . S
H67 C76 0.950 . S
H68 C78 0.950 . S
H69 C80 0.950 . S
H70 C82 0.950 . S
H71 C83 0.950 . S
C72 H64 0.950 . S
C72 C73 1.386 . S
C72 C74 1.391 . S
C73 C72 1.386 . S
C73 C77 1.393 . S
C74 H66 0.950 . S
C74 C72 1.391 . S
C74 C75 1.400 . S
C75 C74 1.400 . S
C75 C76 1.398 . S
C75 C81 1.491 . S
C76 H67 0.950 . S
C76 C75 1.398 . S
C76 C77 1.391 . S
C77 H65 0.950 . S
C77 C73 1.393 . S
C77 C76 1.391 . S
C78 H68 0.950 . S
C78 C79 1.386 . S
C78 C80 1.391 . S
C79 C78 1.386 . S
C79 C83 1.393 . S
C80 H69 0.950 . S
C80 C78 1.391 . S
C80 C81 1.400 . S
C81 C75 1.491 . S
C81 C80 1.400 . S
C81 C82 1.398 . S
C82 H70 0.950 . S
C82 C81 1.398 . S
C82 C83 1.391 . S
C83 H71 0.950 . S
C83 C79 1.393 . S
C83 C82 1.391 . S
H84 C92 0.950 . S
H85 C97 0.950 . S
H86 C94 0.950 1_455 S
H87 C96 0.950 1_556 S
H88 C98 0.950 . S
H89 C100 0.950 1_655 S
H90 C102 0.950 1_554 S
H91 C103 0.950 . S
C92 H84 0.950 . S
C92 C93 1.386 . S
C92 C94 1.391 . S
C93 C92 1.386 . S
C93 C97 1.393 . S
C94 H86 0.950 1_655 S
C94 C92 1.391 . S
C94 C95 1.400 . S
C95 C94 1.400 . S
C95 C96 1.398 . S
C95 C101 1.491 1_654 S
C96 H87 0.950 1_554 S
C96 C95 1.398 . S
C96 C97 1.391 . S
C97 H85 0.950 . S
C97 C93 1.393 . S
C97 C96 1.391 . S
C98 H88 0.950 . S
C98 C99 1.386 . S
C98 C100 1.391 . S
C99 C98 1.386 . S
C99 C103 1.393 . S
C100 H89 0.950 1_455 S
C100 C98 1.391 . S
C100 C101 1.400 . S
C101 C95 1.491 1_456 S
C101 C100 1.400 . S
C101 C102 1.398 . S
C102 H90 0.950 1_556 S
C102 C101 1.398 . S
C102 C103 1.391 . S
C103 H91 0.950 . S
C103 C99 1.393 . S
C103 C102 1.391 . S
H104 C112 0.950 . S
H105 C117 0.950 . S
H106 C114 0.950 . S
H107 C116 0.950 . S
H108 C118 0.950 . S
H109 C120 0.950 . S
H110 C122 0.950 . S
H111 C123 0.950 . S
C112 H104 0.950 . S
C112 C113 1.386 . S
C112 C114 1.391 . S
C113 C112 1.386 . S
C113 C117 1.393 . S
C114 H106 0.950 . S
C114 C112 1.391 . S
C114 C115 1.400 . S
C115 C114 1.400 . S
C115 C116 1.398 . S
C115 C121 1.491 1_565 S
C116 H107 0.950 . S
C116 C115 1.398 . S
C116 C117 1.391 . S
C117 H105 0.950 . S
C117 C113 1.393 . S
C117 C116 1.391 . S
C118 H108 0.950 . S
C118 C119 1.386 . S
C118 C120 1.391 . S
C119 C118 1.386 . S
C119 C123 1.393 . S
C120 H109 0.950 . S
C120 C118 1.391 . S
C120 C121 1.400 . S
C121 C115 1.491 1_545 S
C121 C120 1.400 . S
C121 C122 1.398 . S
C122 H110 0.950 . S
C122 C121 1.398 . S
C122 C123 1.391 . S
C123 H111 0.950 . S
C123 C119 1.393 . S
C123 C122 1.391 . S
H124 C132 0.950 . S
H125 C137 0.950 . S
H126 C134 0.950 . S
H127 C136 0.950 . S
H128 C138 0.950 . S
H129 C140 0.950 . S
H130 C142 0.950 . S
H131 C143 0.950 . S
C132 H124 0.950 . S
C132 C133 1.386 . S
C132 C134 1.391 . S
C133 C132 1.386 . S
C133 C137 1.393 . S
C134 H126 0.950 . S
C134 C132 1.391 . S
C134 C135 1.400 . S
C135 C134 1.400 . S
C135 C136 1.398 . S
C135 C141 1.491 1_556 S
C136 H127 0.950 . S
C136 C135 1.398 . S
C136 C137 1.391 . S
C137 H125 0.950 . S
C137 C133 1.393 . S
C137 C136 1.391 . S
C138 H128 0.950 . S
C138 C139 1.386 . S
C138 C140 1.391 . S
C139 C138 1.386 . S
C139 C143 1.393 . S
C140 H129 0.950 . S
C140 C138 1.391 . S
C140 C141 1.400 . S
C141 C135 1.491 1_554 S
C141 C140 1.400 . S
C141 C142 1.398 . S
C142 H130 0.950 . S
C142 C141 1.398 . S
C142 C143 1.391 . S
C143 H131 0.950 . S
C143 C139 1.393 . S
C143 C142 1.391 . S
H144 C152 0.950 . S
H145 C157 0.950 . S
H146 C154 0.950 . S
H147 C156 0.950 . S
H148 C158 0.950 . S
H149 C160 0.950 . S
H150 C162 0.950 . S
H151 C163 0.950 . S
C152 H144 0.950 . S
C152 C153 1.386 . S
C152 C154 1.391 . S
C153 C152 1.386 . S
C153 C157 1.393 . S
C154 H146 0.950 . S
C154 C152 1.391 . S
C154 C155 1.400 . S
C155 C154 1.400 . S
C155 C156 1.398 . S
C155 C161 1.491 1_455 S
C156 H147 0.950 . S
C156 C155 1.398 . S
C156 C157 1.391 . S
C157 H145 0.950 . S
C157 C153 1.393 . S
C157 C156 1.391 . S
C158 H148 0.950 . S
C158 C159 1.386 . S
C158 C160 1.391 . S
C159 C158 1.386 . S
C159 C163 1.393 . S
C160 H149 0.950 . S
C160 C158 1.391 . S
C160 C161 1.400 . S
C161 C155 1.491 1_655 S
C161 C160 1.400 . S
C161 C162 1.398 . S
C162 H150 0.950 . S
C162 C161 1.398 . S
C162 C163 1.391 . S
C163 H151 0.950 . S
C163 C159 1.393 . S
C163 C162 1.391 . S
C53 C31 1.484 . S
C59 C6 1.484 . S
C73 C27 1.475 . S
C79 C7 1.475 . S
C93 C4 1.482 . S
C99 C30 1.482 . S
C113 C28 1.471 . S
C119 C9 1.471 . S
C133 C29 1.471 . S
C139 C5 1.471 . S
C153 C26 1.471 . S
C159 C8 1.471 . S
