# Generated by pormake.
# Topology bnn, (5)-cn, num edge types: 1
# Building blocks:
#     Node 0, Type 0, BuildingBlock: XOMCOT_clean_sbu_1, # of connection points: 5
#     Node 1, Type 0, BuildingBlock: XOMCOT_clean_sbu_1, # of connection points: 5
#     Edge 2, Type (0, 0), None
#     Edge 3, Type (0, 0), None
#     Edge 4, Type (0, 0), None
#     Edge 5, Type (0, 0), None
#     Edge 6, Type (0, 0), None
# Relax obj value: 0.041
# Max RMSD: 0.097
# Mean RMSD: 0.097
data_MOF--net-bnn--node1-XOMCOT_clean_sbu_1--edge1-none
_symmetry_space_group_name_H-M    P1
_symmetry_Int_Tables_number       1
_symmetry_cell_setting            triclinic
loop_
_symmetry_equiv_pos_as_xyz
'x, y, z'
_cell_length_a     16.738094
_cell_length_b     12.624632
_cell_length_c     9.393037
_cell_angle_alpha  93.117321
_cell_angle_beta   90.012732
_cell_angle_gamma 131.50632
loop_
_atom_site_label
_atom_site_type_symbol
_atom_site_fract_x
_atom_site_fract_y
_atom_site_fract_z
_atom_type_partial_charge
C0 C 0.27231 0.57937 0.7731 0.0
C1 C 0.27223 0.58739 0.62751 0.0
N2 N 0.2872 0.70323 0.60264 0.0
N3 N 0.28909 0.69102 0.83875 0.0
C4 C 0.29646 0.7638 0.73141 0.0
H5 H 0.25896 0.49575 0.82704 0.0
Co6 Co 0.29389 0.72988 0.03409 0.0
C7 C 0.46077 1.0524 0.07679 0.0
O8 O 0.48147 1.05545 0.21245 0.0
N9 N 0.29453 0.76551 0.23169 0.0
C10 C 0.26885 0.8325 0.43904 0.0
C11 C 0.27075 0.84074 0.29327 0.0
C12 C 0.30316 0.70866 0.34214 0.0
N13 N 0.28885 0.74886 0.46818 0.0
O14 O 0.17479 0.71572 1.00698 0.0
H15 H 0.25433 0.89675 0.23541 0.0
H16 H 0.31677 0.63639 0.33166 0.0
O17 O 0.39254 0.93409 1.00325 0.0
C18 C 0.08569 0.59047 1.01645 0.0
O19 O 0.08583 0.48876 0.03898 0.0
N20 N 0.40504 0.72996 0.05906 0.0
C21 C 0.54261 0.67753 0.06896 0.0
C22 C 0.58096 0.81219 0.04096 0.0
C23 C 0.51053 0.83594 0.03461 0.0
C24 C 0.36683 0.59883 0.0865 0.0
C25 C 0.43414 0.5704 0.09304 0.0
H26 H 0.54098 0.93746 1.00428 0.0
H27 H 0.28226 0.51435 0.09995 0.0
H28 H 0.30762 0.85848 0.74719 0.0
H29 H 0.25932 0.51228 0.54682 0.0
H30 H 0.25042 0.87957 0.51629 0.0
H31 H 0.66401 0.89746 1.01931 0.0
H32 H 0.40085 0.46457 0.11346 0.0
C33 C 0.81197 0.65857 0.30862 0.0
C34 C 0.80386 0.65055 0.4542 0.0
N35 N 0.70302 0.53476 0.47903 0.0
N36 N 0.71713 0.54697 0.24293 0.0
C37 C 0.65172 0.47422 0.35024 0.0
H38 H 0.88223 0.74218 0.25472 0.0
Co39 Co 0.68306 0.50815 0.04757 0.0
C40 C 0.52735 0.18561 1.00483 0.0
O41 O 0.54482 0.1825 0.86911 0.0
N42 N 0.64805 0.47255 0.84997 0.0
C43 C 0.55543 0.40571 0.64257 0.0
C44 C 0.54909 0.39749 0.78835 0.0
C45 C 0.71351 0.52929 0.73954 0.0
N46 N 0.65903 0.48917 0.61347 0.0
O47 O 0.57811 0.5223 0.07469 0.0
H48 H 0.47668 0.34159 0.84617 0.0
H49 H 0.79937 0.60141 0.75005 0.0
O50 O 0.57755 0.30393 0.0784 0.0
C51 C 0.61423 0.64754 0.06519 0.0
O52 O 0.71605 0.74926 0.04265 0.0
N53 N 0.79411 0.50806 1.02261 0.0
C54 C 0.9841 0.56049 1.01269 0.0
C55 C 0.88781 0.42578 0.04054 0.0
C56 C 0.79364 0.40203 0.04689 0.0
C57 C 0.887 0.63922 0.99529 0.0
C58 C 0.98274 0.66766 0.98875 0.0
H59 H 0.72257 0.30045 0.07704 0.0
H60 H 0.88689 0.72372 0.98191 0.0
H61 H 0.56822 0.3796 0.33443 0.0
H62 H 0.86605 0.72564 0.53492 0.0
H63 H 0.48997 0.35876 0.56529 0.0
H64 H 0.88561 0.34047 0.06205 0.0
H65 H 0.05524 0.77351 0.96843 0.0
loop_
_geom_bond_atom_site_label_1
_geom_bond_atom_site_label_2
_geom_bond_distance
_geom_bond_site_symmetry_2
_ccdc_geom_bond_type
C0 C1 1.351 . S
C0 N3 1.368 . S
C0 H5 0.931 . S
C1 C0 1.351 . S
C1 N2 1.373 . S
C1 H29 0.930 . S
N2 C1 1.373 . S
N2 C4 1.340 . S
N3 C0 1.368 . S
N3 C4 1.321 . S
N3 Co6 2.135 1_556 S
C4 N2 1.340 . S
C4 N3 1.321 . S
C4 H28 0.930 . S
H5 C0 0.931 . S
Co6 N3 2.135 1_554 S
Co6 N9 2.121 . S
Co6 O14 2.055 . S
Co6 O17 2.039 . S
Co6 N20 2.140 . S
C7 O8 1.227 1_554 S
C7 O17 1.265 . S
O8 C7 1.227 1_556 S
N9 Co6 2.121 . S
N9 C11 1.375 . S
N9 C12 1.313 . S
C10 C11 1.338 . S
C10 N13 1.377 . S
C10 H30 0.930 . S
C11 N9 1.375 . S
C11 C10 1.338 . S
C11 H15 0.931 . S
C12 N9 1.313 . S
C12 N13 1.344 . S
C12 H16 0.930 . S
N13 C10 1.377 . S
N13 C12 1.344 . S
O14 Co6 2.055 . S
O14 C18 1.253 . S
H15 C11 0.931 . S
H16 C12 0.930 . S
O17 Co6 2.039 . S
O17 C7 1.265 . S
C18 O14 1.253 . S
C18 O19 1.227 . S
O19 C18 1.227 . S
N20 Co6 2.140 . S
N20 C23 1.346 1_554 S
N20 C24 1.345 . S
C21 C22 1.387 . S
C21 C25 1.391 1_556 S
C22 C21 1.387 . S
C22 C23 1.369 . S
C22 H31 0.929 . S
C23 N20 1.346 1_556 S
C23 C22 1.369 . S
C23 H26 0.928 . S
C24 N20 1.345 . S
C24 C25 1.371 . S
C24 H27 0.931 . S
C25 C21 1.391 1_554 S
C25 C24 1.371 . S
C25 H32 0.930 . S
H26 C23 0.928 . S
H27 C24 0.931 . S
H28 C4 0.930 . S
H29 C1 0.930 . S
H30 C10 0.930 . S
H31 C22 0.929 . S
H32 C25 0.930 . S
C33 C34 1.351 . S
C33 N36 1.368 . S
C33 H38 0.931 . S
C34 C33 1.351 . S
C34 N35 1.373 . S
C34 H62 0.930 . S
N35 C34 1.373 . S
N35 C37 1.340 . S
N36 C33 1.368 . S
N36 C37 1.321 . S
N36 Co39 2.135 . S
C37 N35 1.340 . S
C37 N36 1.321 . S
C37 H61 0.930 . S
H38 C33 0.931 . S
Co39 N36 2.135 . S
Co39 N42 2.121 1_554 S
Co39 O47 2.055 . S
Co39 O50 2.039 . S
Co39 N53 2.140 . S
C40 O41 1.227 . S
C40 O50 1.265 . S
O41 C40 1.227 . S
N42 Co39 2.121 1_556 S
N42 C44 1.375 . S
N42 C45 1.313 . S
C43 C44 1.338 . S
C43 N46 1.377 . S
C43 H63 0.930 . S
C44 N42 1.375 . S
C44 C43 1.338 . S
C44 H48 0.931 . S
C45 N42 1.313 . S
C45 N46 1.344 . S
C45 H49 0.930 . S
N46 C43 1.377 . S
N46 C45 1.344 . S
O47 Co39 2.055 . S
O47 C51 1.253 1_554 S
H48 C44 0.931 . S
H49 C45 0.930 . S
O50 Co39 2.039 . S
O50 C40 1.265 . S
C51 O47 1.253 1_556 S
C51 O52 1.227 . S
O52 C51 1.227 . S
N53 Co39 2.140 . S
N53 C56 1.346 . S
N53 C57 1.345 1_554 S
C54 C55 1.387 . S
C54 C58 1.391 1_554 S
C55 C54 1.387 . S
C55 C56 1.369 . S
C55 H64 0.929 . S
C56 N53 1.346 . S
C56 C55 1.369 . S
C56 H59 0.928 . S
C57 N53 1.345 1_556 S
C57 C58 1.371 . S
C57 H60 0.931 . S
C58 C54 1.391 1_556 S
C58 C57 1.371 . S
C58 H65 0.930 . S
H59 C56 0.928 . S
H60 C57 0.931 . S
H61 C37 0.930 . S
H62 C34 0.930 . S
H63 C43 0.930 . S
H64 C55 0.929 . S
H65 C58 0.930 . S
C21 C51 1.514 . S
C54 C18 1.514 1_655 S
C7 C40 1.501 1_565 S
N2 N13 1.471 . S
N35 N46 1.471 . S
