# Generated by pormake.
# Topology kag, (6)-cn, num edge types: 1
# Building blocks:
#     Node 0, Type 0, BuildingBlock: BETFAJ_clean_sbu_0, # of connection points: 6
#     Node 1, Type 0, BuildingBlock: BETFAJ_clean_sbu_0, # of connection points: 6
#     Node 2, Type 0, BuildingBlock: BETFAJ_clean_sbu_0, # of connection points: 6
#     Edge 3, Type (0, 0), BuildingBlock: AJUNOK_clean_linker_0, # of connection points: 2
#     Edge 4, Type (0, 0), BuildingBlock: AJUNOK_clean_linker_0, # of connection points: 2
#     Edge 5, Type (0, 0), BuildingBlock: AJUNOK_clean_linker_0, # of connection points: 2
#     Edge 6, Type (0, 0), BuildingBlock: AJUNOK_clean_linker_0, # of connection points: 2
#     Edge 7, Type (0, 0), BuildingBlock: AJUNOK_clean_linker_0, # of connection points: 2
#     Edge 8, Type (0, 0), BuildingBlock: AJUNOK_clean_linker_0, # of connection points: 2
#     Edge 9, Type (0, 0), BuildingBlock: AJUNOK_clean_linker_0, # of connection points: 2
#     Edge 10, Type (0, 0), BuildingBlock: AJUNOK_clean_linker_0, # of connection points: 2
#     Edge 11, Type (0, 0), BuildingBlock: AJUNOK_clean_linker_0, # of connection points: 2
# Relax obj value: 0.118
# Max RMSD: 0.239
# Mean RMSD: 0.123
data_MOF--net-kag--node1-BETFAJ_clean_sbu_0--edge1-AJUNOK_clean_linker_0
_symmetry_space_group_name_H-M    P1
_symmetry_Int_Tables_number       1
_symmetry_cell_setting            triclinic
loop_
_symmetry_equiv_pos_as_xyz
'x, y, z'
_cell_length_a     23.186481
_cell_length_b     34.413344
_cell_length_c     10.579666
_cell_angle_alpha  95.033436
_cell_angle_beta   91.300465
_cell_angle_gamma 91.123107
loop_
_atom_site_label
_atom_site_type_symbol
_atom_site_fract_x
_atom_site_fract_y
_atom_site_fract_z
_atom_type_partial_charge
Sm0 Sm 0.08716 0.47038 1.01489 0.0
Sm1 Sm 0.08735 0.5672 1.00514 0.0
C2 C 1.07761 0.4 0.09427 0.0
C3 C 1.04135 0.36417 0.06916 0.0
C4 C 0.98413 0.36265 0.11048 0.0
C5 C 0.9514 0.32801 0.0919 0.0
C6 C 0.97522 0.29422 0.03199 0.0
C7 C 1.03188 0.29587 0.98841 0.0
C8 C 1.06477 0.33045 1.00756 0.0
C9 C 1.08121 0.49308 0.76693 0.0
C10 C 0.96346 0.51648 0.99193 0.0
C11 C 0.09476 0.63781 0.92651 0.0
C12 C 0.12522 0.67517 0.96078 0.0
C13 C 0.10233 0.70945 0.9202 0.0
C14 C 0.1319 0.74509 0.9468 0.0
C15 C 0.18491 0.74701 1.01455 0.0
C16 C 0.20745 0.71257 0.0563 0.0
C17 C 0.1777 0.67691 0.03002 0.0
C18 C 0.09147 0.54495 0.25319 0.0
C19 C 0.21105 0.52027 0.02739 0.0
O20 O 1.0531 0.43077 0.15017 0.0
O21 O 0.11338 0.40845 1.00563 0.0
O22 O 1.08048 0.51354 0.8714 0.0
O23 O 0.08471 0.45684 0.79237 0.0
O24 O 0.9908 0.48487 0.02129 0.0
O25 O 0.99095 0.54931 0.96844 0.0
O26 O 0.12667 0.6088 0.88274 0.0
O27 O 1.05507 0.62755 1.00429 0.0
O28 O 0.09262 0.52413 0.14939 0.0
O29 O 0.08928 0.58113 0.22656 0.0
O30 O 0.18446 0.55232 0.99829 0.0
O31 O 0.18279 0.48791 0.05138 0.0
H32 H 0.96468 0.38806 0.1584 0.0
H33 H 0.90749 0.32759 0.12474 0.0
H34 H 1.0512 0.27011 0.94232 0.0
H35 H 0.10883 0.33068 0.97561 0.0
H36 H 1.06186 0.70857 0.86663 0.0
H37 H 0.11341 0.77118 0.91398 0.0
H38 H 0.24872 0.71302 0.10651 0.0
H39 H 0.19609 0.65065 0.06185 0.0
Sm40 Sm 0.64837 0.01922 1.00246 0.0
Sm41 Sm 0.52117 1.01681 0.03099 0.0
C42 C 0.75511 0.03659 0.9406 0.0
C43 C 0.78929 0.07344 0.94478 0.0
C44 C 0.77266 0.10395 0.87229 0.0
C45 C 0.80303 0.13962 0.88449 0.0
C46 C 0.8501 0.14556 0.97015 0.0
C47 C 0.86751 0.1149 0.0405 0.0
C48 C 0.8375 0.07911 0.02754 0.0
C49 C 0.61425 1.0168 0.24966 0.0
C50 C 0.5774 0.10244 0.03017 0.0
C51 C 0.41417 1.00086 0.09552 0.0
C52 C 0.37904 0.96482 0.09859 0.0
C53 C 0.40221 0.93131 0.14537 0.0
C54 C 0.3698 0.89649 0.13888 0.0
C55 C 0.31368 0.89458 0.08545 0.0
C56 C 0.29034 0.92825 0.04013 0.0
C57 C 0.32272 0.9631 0.04697 0.0
C58 C 0.5547 0.02097 0.78435 0.0
C59 C 0.59219 0.93371 0.9987 0.0
O60 O 0.71215 0.03217 0.85787 0.0
O61 O 0.74221 0.02449 0.05044 0.0
O62 O 0.59236 0.03753 0.16923 0.0
O63 O 0.65659 0.99679 0.20147 0.0
O64 O 0.62339 0.08376 0.98795 0.0
O65 O 0.53273 0.08306 0.07027 0.0
O66 O 0.45727 1.00605 0.17767 0.0
O67 O 0.42744 1.01038 0.98274 0.0
O68 O 0.577 0.9994 0.86217 0.0
O69 O 0.51216 0.04021 0.83478 0.0
O70 O 0.54675 0.9522 0.04502 0.0
O71 O 0.63638 0.9533 0.9576 0.0
H72 H 0.73555 0.10064 0.80792 0.0
H73 H 0.78886 0.16292 0.8294 0.0
H74 H 0.90424 0.1187 0.10586 0.0
H75 H 0.85132 0.05605 0.08406 0.0
H76 H 0.44575 0.93178 0.18479 0.0
H77 H 0.3892 0.87079 0.17237 0.0
H78 H 0.24715 0.92752 0.99863 0.0
H79 H 0.30417 0.98855 1.00983 0.0
Sm80 Sm 0.59023 0.56706 1.00102 0.0
Sm81 Sm 0.58476 0.46971 1.00943 0.0
C82 C 0.59613 0.63793 0.92155 0.0
C83 C 0.5878 0.68047 0.94151 0.0
C84 C 0.57957 0.7013 0.83463 0.0
C85 C 0.57885 0.74208 0.84684 0.0
C86 C 0.58624 0.76297 0.96648 0.0
C87 C 0.59202 0.74206 0.0745 0.0
C88 C 0.59324 0.70108 0.06206 0.0
C89 C 0.59002 0.5443 0.24833 0.0
C90 C 0.46488 0.52141 0.02221 0.0
C91 C 0.57901 0.39877 0.0894 0.0
C92 C 0.58284 0.35587 0.05937 0.0
C93 C 0.62772 0.33548 0.11369 0.0
C94 C 0.62747 0.29458 0.1024 0.0
C95 C 0.58195 0.27307 0.03775 0.0
C96 C 0.53818 0.29343 0.97931 0.0
C97 C 0.53849 0.33433 0.99028 0.0
C98 C 0.58681 0.49244 0.76171 0.0
C99 C 0.70991 0.51554 0.99509 0.0
O100 O 0.55099 0.61456 0.8986 0.0
O101 O 0.63776 0.62283 0.98606 0.0
O102 O 0.58782 0.52341 0.1447 0.0
O103 O 0.59201 0.5806 0.22238 0.0
O104 O 0.49216 0.55286 0.98672 0.0
O105 O 0.49247 0.48995 0.0521 0.0
O106 O 0.6266 0.42024 0.09641 0.0
O107 O 0.53445 0.41653 0.0445 0.0
O108 O 0.58791 0.51318 0.86568 0.0
O109 O 0.58357 0.45609 0.78709 0.0
O110 O 0.68161 0.48517 0.03463 0.0
O111 O 0.68336 0.54694 0.9604 0.0
H112 H 0.57539 0.68603 0.74074 0.0
H113 H 0.57334 0.75737 0.76227 0.0
H114 H 0.59762 0.75746 0.16787 0.0
H115 H 0.59985 0.6856 0.14587 0.0
H116 H 0.66209 0.35117 0.16885 0.0
H117 H 0.6618 0.27976 0.14848 0.0
H118 H 0.50316 0.27771 0.92655 0.0
H119 H 0.50304 0.34897 0.94759 0.0
C120 C 0.10138 0.4818 0.53349 0.0
C121 C 0.08283 0.50689 0.63679 0.0
C122 C 0.1037 0.49393 0.40956 0.0
C123 C 0.08747 0.53167 0.38372 0.0
H124 H 0.11485 0.45257 0.54863 0.0
H125 H 0.11918 0.47382 0.33402 0.0
S126 S 1.03 0.60723 0.61755 0.0
N127 N 1.04365 0.57013 0.70177 0.0
N128 N 1.04903 0.59329 0.47135 0.0
C129 C 1.06782 0.55674 0.48577 0.0
C130 C 1.06519 0.54429 0.61145 0.0
C131 C 0.62567 0.99415 0.46791 0.0
C132 C 0.5984 0.01845 0.38545 0.0
C133 C 0.61165 0.99523 0.59684 0.0
C134 C 0.5697 0.02065 0.64831 0.0
H135 H 0.65813 0.97399 0.43266 0.0
H136 H 0.63369 0.97589 0.65634 0.0
S137 S 0.48659 0.09102 0.47352 0.0
N138 N 0.52809 0.06918 0.36553 0.0
N139 N 0.50172 0.07125 0.60666 0.0
C140 C 0.54237 0.04528 0.567 0.0
C141 C 0.55665 0.04417 0.43593 0.0
C142 C 0.57314 0.48042 0.52431 0.0
C143 C 0.5887 0.50612 0.63161 0.0
C144 C 0.57425 0.49256 0.40031 0.0
C145 C 0.59089 0.53093 0.37879 0.0
H146 H 0.55946 0.45072 0.5362 0.0
H147 H 0.56125 0.47191 0.3211 0.0
S148 S 0.64228 0.60814 0.6248 0.0
N149 N 0.62595 0.57068 0.70569 0.0
N150 N 0.62724 0.59364 0.47468 0.0
C151 C 0.60786 0.55654 0.48488 0.0
C152 C 0.60697 0.54414 0.61063 0.0
C153 C 0.30791 0.55401 1.00705 0.0
C154 C 0.27578 0.5203 0.03112 0.0
C155 C 0.36866 0.55429 1.00549 0.0
C156 C 0.40028 0.5209 0.02809 0.0
H157 H 0.28608 0.58051 0.98819 0.0
H158 H 0.39089 0.58097 0.98566 0.0
S159 S 0.33735 0.42486 0.09704 0.0
N160 N 0.28099 0.4525 0.07921 0.0
N161 N 0.3941 0.45299 0.07626 0.0
C162 C 0.36868 0.48705 0.05349 0.0
C163 C 0.30691 0.48677 0.05501 0.0
C164 C 0.90453 0.20024 0.8825 0.0
C165 C 0.88061 0.18391 0.98727 0.0
C166 C 0.93502 0.23602 0.89758 0.0
C167 C 0.94168 0.25695 0.01754 0.0
H168 H 0.90045 0.18492 0.78869 0.0
H169 H 0.95333 0.24749 0.81482 0.0
S170 S 0.88549 0.22721 0.32086 0.0
N171 N 0.86436 0.19159 0.21405 0.0
N172 N 0.92145 0.25892 0.24246 0.0
C173 C 0.91713 0.24118 0.12258 0.0
C174 C 0.8867 0.20461 0.10743 0.0
C175 C 0.55374 0.86958 0.06323 0.0
C176 C 0.59266 0.89019 0.99156 0.0
C177 C 0.55258 0.82855 0.05682 0.0
C178 C 0.58968 0.80644 0.97703 0.0
H179 H 0.52394 0.8852 0.12533 0.0
H180 H 0.52165 0.81401 0.11288 0.0
S181 S 0.70079 0.84557 0.77242 0.0
N182 N 0.67025 0.88477 0.84018 0.0
N183 N 0.66762 0.80798 0.82799 0.0
C184 C 0.62912 0.82654 0.9059 0.0
C185 C 0.63077 0.86826 0.91328 0.0
C186 C 0.86737 0.54897 0.97093 0.0
C187 C 0.89877 0.51506 0.98775 0.0
C188 C 0.80668 0.54873 0.97203 0.0
C189 C 0.77438 0.5146 0.99033 0.0
H190 H 0.88975 0.57622 0.95827 0.0
H191 H 0.78504 0.57583 0.96011 0.0
S192 S 0.83503 0.41709 0.03105 0.0
N193 N 0.89208 0.44568 0.01771 0.0
N194 N 0.77884 0.44536 0.02009 0.0
C195 C 0.80514 0.48026 1.00485 0.0
C196 C 0.86692 0.48045 1.00344 0.0
C197 C 0.22525 0.80802 0.93509 0.0
C198 C 0.2175 0.78468 0.03644 0.0
C199 C 0.25606 0.84358 0.9522 0.0
C200 C 0.28045 0.85713 0.0712 0.0
H201 H 0.20804 0.79846 0.84119 0.0
H202 H 0.26158 0.86032 0.87107 0.0
S203 S 0.26939 0.80845 0.36911 0.0
N204 N 0.23447 0.7786 0.26147 0.0
N205 N 0.29286 0.8454 0.29326 0.0
C206 C 0.27268 0.83433 0.17366 0.0
C207 C 0.24112 0.79812 0.15637 0.0
C208 C 0.62799 0.20752 1.00104 0.0
C209 C 0.57939 0.22958 0.03491 0.0
C210 C 0.62674 0.16662 0.99939 0.0
C211 C 0.57697 0.14595 0.03277 0.0
H212 H 0.66728 0.22196 0.9745 0.0
H213 H 0.66541 0.1512 0.97206 0.0
S214 S 0.43888 0.19042 0.1347 0.0
N215 N 0.48065 0.22794 0.10665 0.0
N216 N 0.478 0.15133 0.10346 0.0
C217 C 0.52816 0.1678 0.06796 0.0
C218 C 0.52943 0.20946 0.06892 0.0
loop_
_geom_bond_atom_site_label_1
_geom_bond_atom_site_label_2
_geom_bond_distance
_geom_bond_site_symmetry_2
_ccdc_geom_bond_type
Sm0 C2 2.846 . S
Sm0 O20 2.543 1_556 S
Sm0 O21 2.450 . S
Sm0 O22 2.681 1_655 S
Sm0 O23 2.464 . S
Sm0 O24 2.396 . S
Sm0 O28 2.386 1_556 S
Sm0 O31 2.408 1_655 S
Sm1 C11 2.846 . S
Sm1 O22 2.386 1_554 S
Sm1 O25 2.408 1_455 S
Sm1 O26 2.543 1_554 S
Sm1 O27 2.450 . S
Sm1 O28 2.681 1_455 S
Sm1 O29 2.464 . S
Sm1 O30 2.396 . S
C2 Sm0 2.846 . S
C2 C3 1.506 . S
C2 O20 1.261 1_556 S
C2 O21 1.242 . S
C3 C2 1.506 . S
C3 C4 1.358 1_556 S
C3 C8 1.382 . S
C4 C3 1.358 1_554 S
C4 C5 1.385 . S
C4 H32 0.930 . S
C5 C4 1.385 . S
C5 C6 1.395 1_554 S
C5 H33 0.929 . S
C6 C5 1.395 1_556 S
C6 C7 1.335 . S
C7 C6 1.335 . S
C7 C8 1.398 . S
C7 H34 0.930 . S
C8 C3 1.382 . S
C8 C7 1.398 . S
C8 H35 0.929 . S
C9 O22 1.271 . S
C9 O23 1.251 1_455 S
C10 O24 1.252 . S
C10 O25 1.272 1_556 S
C11 Sm1 2.846 . S
C11 C12 1.506 . S
C11 O26 1.261 1_554 S
C11 O27 1.242 . S
C12 C11 1.506 . S
C12 C13 1.358 1_554 S
C12 C17 1.382 . S
C13 C12 1.358 1_556 S
C13 C14 1.385 . S
C13 H36 0.930 . S
C14 C13 1.385 . S
C14 C15 1.395 1_556 S
C14 H37 0.929 . S
C15 C14 1.395 1_554 S
C15 C16 1.335 . S
C16 C15 1.335 . S
C16 C17 1.398 . S
C16 H38 0.930 . S
C17 C12 1.382 . S
C17 C16 1.398 . S
C17 H39 0.929 . S
C18 O28 1.272 . S
C18 O29 1.250 1_655 S
C19 O30 1.252 . S
C19 O31 1.272 1_554 S
O20 Sm0 2.543 1_554 S
O20 C2 1.261 1_554 S
O21 Sm0 2.450 . S
O21 C2 1.242 . S
O22 Sm0 2.681 1_455 S
O22 Sm1 2.386 1_556 S
O22 C9 1.271 . S
O23 Sm0 2.464 . S
O23 C9 1.251 1_655 S
O24 Sm0 2.396 . S
O24 C10 1.252 . S
O25 Sm1 2.408 1_655 S
O25 C10 1.272 1_554 S
O26 Sm1 2.543 1_556 S
O26 C11 1.261 1_556 S
O27 Sm1 2.450 . S
O27 C11 1.242 . S
O28 Sm0 2.386 1_554 S
O28 Sm1 2.681 1_655 S
O28 C18 1.272 . S
O29 Sm1 2.464 . S
O29 C18 1.250 1_455 S
O30 Sm1 2.396 . S
O30 C19 1.252 . S
O31 Sm0 2.408 1_455 S
O31 C19 1.272 1_556 S
H32 C4 0.930 . S
H33 C5 0.929 . S
H34 C7 0.930 . S
H35 C8 0.929 . S
H36 C13 0.930 . S
H37 C14 0.929 . S
H38 C16 0.930 . S
H39 C17 0.929 . S
Sm40 C42 2.846 . S
Sm40 O60 2.543 1_554 S
Sm40 O61 2.450 . S
Sm40 O62 2.681 1_545 S
Sm40 O63 2.464 . S
Sm40 O64 2.396 . S
Sm40 O68 2.386 1_554 S
Sm40 O71 2.408 1_545 S
Sm41 C51 2.846 . S
Sm41 O62 2.386 1_556 S
Sm41 O65 2.408 1_565 S
Sm41 O66 2.543 1_556 S
Sm41 O67 2.450 . S
Sm41 O68 2.681 1_565 S
Sm41 O69 2.464 . S
Sm41 O70 2.396 . S
C42 Sm40 2.846 . S
C42 C43 1.506 1_554 S
C42 O60 1.261 1_554 S
C42 O61 1.242 . S
C43 C42 1.506 1_556 S
C43 C44 1.358 . S
C43 C48 1.382 1_556 S
C44 C43 1.358 . S
C44 C45 1.385 . S
C44 H72 0.930 . S
C45 C44 1.385 . S
C45 C46 1.395 . S
C45 H73 0.929 . S
C46 C45 1.395 . S
C46 C47 1.335 1_556 S
C47 C46 1.335 1_554 S
C47 C48 1.398 . S
C47 H74 0.930 . S
C48 C43 1.382 1_554 S
C48 C47 1.398 . S
C48 H75 0.929 . S
C49 O62 1.271 1_545 S
C49 O63 1.251 . S
C50 O64 1.252 . S
C50 O65 1.272 1_554 S
C51 Sm41 2.846 . S
C51 C52 1.506 1_556 S
C51 O66 1.261 1_556 S
C51 O67 1.242 . S
C52 C51 1.506 1_554 S
C52 C53 1.358 . S
C52 C57 1.382 1_554 S
C53 C52 1.358 . S
C53 C54 1.385 . S
C53 H76 0.930 . S
C54 C53 1.385 . S
C54 C55 1.395 . S
C54 H77 0.929 . S
C55 C54 1.395 . S
C55 C56 1.335 1_554 S
C56 C55 1.335 1_556 S
C56 C57 1.398 . S
C56 H78 0.930 . S
C57 C52 1.382 1_556 S
C57 C56 1.398 . S
C57 H79 0.929 . S
C58 O68 1.271 1_565 S
C58 O69 1.251 . S
C59 O70 1.252 . S
C59 O71 1.272 1_556 S
O60 Sm40 2.543 1_556 S
O60 C42 1.261 1_556 S
O61 Sm40 2.450 . S
O61 C42 1.242 . S
O62 Sm40 2.681 1_565 S
O62 Sm41 2.386 1_554 S
O62 C49 1.271 1_565 S
O63 Sm40 2.464 . S
O63 C49 1.251 . S
O64 Sm40 2.396 . S
O64 C50 1.252 . S
O65 Sm41 2.408 1_545 S
O65 C50 1.272 1_556 S
O66 Sm41 2.543 1_554 S
O66 C51 1.261 1_554 S
O67 Sm41 2.450 . S
O67 C51 1.242 . S
O68 Sm40 2.386 1_556 S
O68 Sm41 2.681 1_545 S
O68 C58 1.271 1_545 S
O69 Sm41 2.464 . S
O69 C58 1.251 . S
O70 Sm41 2.396 . S
O70 C59 1.252 . S
O71 Sm40 2.408 1_565 S
O71 C59 1.272 1_554 S
H72 C44 0.930 . S
H73 C45 0.929 . S
H74 C47 0.930 . S
H75 C48 0.929 . S
H76 C53 0.930 . S
H77 C54 0.929 . S
H78 C56 0.930 . S
H79 C57 0.929 . S
Sm80 C82 2.846 . S
Sm80 O100 2.543 1_554 S
Sm80 O101 2.450 . S
Sm80 O102 2.681 . S
Sm80 O103 2.464 . S
Sm80 O104 2.396 . S
Sm80 O108 2.386 1_554 S
Sm80 O111 2.408 . S
Sm81 C91 2.846 . S
Sm81 O102 2.386 1_556 S
Sm81 O105 2.408 . S
Sm81 O106 2.543 1_556 S
Sm81 O107 2.450 . S
Sm81 O108 2.681 . S
Sm81 O109 2.464 . S
Sm81 O110 2.396 . S
C82 Sm80 2.846 . S
C82 C83 1.506 . S
C82 O100 1.261 1_554 S
C82 O101 1.242 . S
C83 C82 1.506 . S
C83 C84 1.358 1_554 S
C83 C88 1.382 . S
C84 C83 1.358 1_556 S
C84 C85 1.385 . S
C84 H112 0.930 . S
C85 C84 1.385 . S
C85 C86 1.395 1_556 S
C85 H113 0.929 . S
C86 C85 1.395 1_554 S
C86 C87 1.335 . S
C87 C86 1.335 . S
C87 C88 1.398 . S
C87 H114 0.930 . S
C88 C83 1.382 . S
C88 C87 1.398 . S
C88 H115 0.929 . S
C89 O102 1.271 . S
C89 O103 1.251 . S
C90 O104 1.252 . S
C90 O105 1.272 1_554 S
C91 Sm81 2.846 . S
C91 C92 1.506 . S
C91 O106 1.261 1_556 S
C91 O107 1.242 . S
C92 C91 1.506 . S
C92 C93 1.358 1_556 S
C92 C97 1.382 . S
C93 C92 1.358 1_554 S
C93 C94 1.385 . S
C93 H116 0.930 . S
C94 C93 1.385 . S
C94 C95 1.389 1_554 S
C94 H117 0.929 . S
C95 C94 1.389 1_556 S
C95 C96 1.342 . S
C96 C95 1.342 . S
C96 C97 1.398 . S
C96 H118 0.930 . S
C97 C92 1.382 . S
C97 C96 1.398 . S
C97 H119 0.929 . S
C98 O108 1.271 . S
C98 O109 1.251 . S
C99 O110 1.252 . S
C99 O111 1.272 1_556 S
O100 Sm80 2.543 1_556 S
O100 C82 1.261 1_556 S
O101 Sm80 2.450 . S
O101 C82 1.242 . S
O102 Sm80 2.681 . S
O102 Sm81 2.386 1_554 S
O102 C89 1.271 . S
O103 Sm80 2.464 . S
O103 C89 1.251 . S
O104 Sm80 2.396 . S
O104 C90 1.252 . S
O105 Sm81 2.408 . S
O105 C90 1.272 1_556 S
O106 Sm81 2.543 1_554 S
O106 C91 1.261 1_554 S
O107 Sm81 2.450 . S
O107 C91 1.242 . S
O108 Sm80 2.386 1_556 S
O108 Sm81 2.681 . S
O108 C98 1.271 . S
O109 Sm81 2.464 . S
O109 C98 1.251 . S
O110 Sm81 2.396 . S
O110 C99 1.252 . S
O111 Sm80 2.408 . S
O111 C99 1.272 1_554 S
H112 C84 0.930 . S
H113 C85 0.929 . S
H114 C87 0.930 . S
H115 C88 0.929 . S
H116 C93 0.930 . S
H117 C94 0.929 . S
H118 C96 0.930 . S
H119 C97 0.929 . S
C120 C121 1.369 1_655 S
C120 C122 1.419 . S
C120 H124 0.930 . S
C121 C120 1.369 1_455 S
C121 C130 1.429 . S
C122 C120 1.419 . S
C122 C123 1.371 . S
C122 H125 0.929 . S
C123 C122 1.371 . S
C123 C129 1.420 1_655 S
H124 C120 0.930 . S
H125 C122 0.929 . S
S126 N127 1.613 . S
S126 N128 1.610 . S
N127 S126 1.613 . S
N127 C130 1.350 . S
N128 S126 1.610 . S
N128 C129 1.351 . S
C129 C123 1.420 1_455 S
C129 N128 1.351 . S
C129 C130 1.434 . S
C130 C121 1.429 . S
C130 N127 1.350 . S
C130 C129 1.434 . S
C131 C132 1.369 1_565 S
C131 C133 1.419 . S
C131 H135 0.930 . S
C132 C131 1.369 1_545 S
C132 C141 1.429 . S
C133 C131 1.419 . S
C133 C134 1.363 1_565 S
C133 H136 0.929 . S
C134 C133 1.363 1_545 S
C134 C140 1.428 . S
H135 C131 0.930 . S
H136 C133 0.929 . S
S137 N138 1.613 . S
S137 N139 1.610 . S
N138 S137 1.613 . S
N138 C141 1.350 . S
N139 S137 1.610 . S
N139 C140 1.351 . S
C140 C134 1.428 . S
C140 N139 1.351 . S
C140 C141 1.434 . S
C141 C132 1.429 . S
C141 N138 1.350 . S
C141 C140 1.434 . S
C142 C143 1.369 . S
C142 C144 1.419 . S
C142 H146 0.930 . S
C143 C142 1.369 . S
C143 C152 1.429 . S
C144 C142 1.419 . S
C144 C145 1.363 . S
C144 H147 0.929 . S
C145 C144 1.363 . S
C145 C151 1.428 . S
H146 C142 0.930 . S
H147 C144 0.929 . S
S148 N149 1.613 . S
S148 N150 1.610 . S
N149 S148 1.613 . S
N149 C152 1.350 . S
N150 S148 1.610 . S
N150 C151 1.351 . S
C151 C145 1.428 . S
C151 N150 1.351 . S
C151 C152 1.434 . S
C152 C143 1.429 . S
C152 N149 1.350 . S
C152 C151 1.434 . S
C153 C154 1.369 1_554 S
C153 C155 1.419 . S
C153 H157 0.930 . S
C154 C153 1.369 1_556 S
C154 C163 1.429 . S
C155 C153 1.419 . S
C155 C156 1.363 1_554 S
C155 H158 0.929 . S
C156 C155 1.363 1_556 S
C156 C162 1.428 . S
H157 C153 0.930 . S
H158 C155 0.929 . S
S159 N160 1.613 . S
S159 N161 1.610 . S
N160 S159 1.613 . S
N160 C163 1.350 . S
N161 S159 1.610 . S
N161 C162 1.351 . S
C162 C156 1.428 . S
C162 N161 1.351 . S
C162 C163 1.434 . S
C163 C154 1.429 . S
C163 N160 1.350 . S
C163 C162 1.434 . S
C164 C165 1.369 . S
C164 C166 1.419 . S
C164 H168 0.930 . S
C165 C164 1.369 . S
C165 C174 1.429 1_556 S
C166 C164 1.419 . S
C166 C167 1.363 . S
C166 H169 0.929 . S
C167 C166 1.363 . S
C167 C173 1.428 1_556 S
H168 C164 0.930 . S
H169 C166 0.929 . S
S170 N171 1.613 . S
S170 N172 1.610 . S
N171 S170 1.613 . S
N171 C174 1.350 . S
N172 S170 1.610 . S
N172 C173 1.351 . S
C173 C167 1.428 1_554 S
C173 N172 1.351 . S
C173 C174 1.434 . S
C174 C165 1.429 1_554 S
C174 N171 1.350 . S
C174 C173 1.434 . S
C175 C176 1.369 1_554 S
C175 C177 1.419 . S
C175 H179 0.930 . S
C176 C175 1.369 1_556 S
C176 C185 1.429 . S
C177 C175 1.419 . S
C177 C178 1.363 1_554 S
C177 H180 0.929 . S
C178 C177 1.363 1_556 S
C178 C184 1.428 . S
H179 C175 0.930 . S
H180 C177 0.929 . S
S181 N182 1.613 . S
S181 N183 1.610 . S
N182 S181 1.613 . S
N182 C185 1.350 . S
N183 S181 1.610 . S
N183 C184 1.351 . S
C184 C178 1.428 . S
C184 N183 1.351 . S
C184 C185 1.434 . S
C185 C176 1.429 . S
C185 N182 1.350 . S
C185 C184 1.434 . S
C186 C187 1.369 1_556 S
C186 C188 1.419 . S
C186 H190 0.930 . S
C187 C186 1.369 1_554 S
C187 C196 1.429 . S
C188 C186 1.419 . S
C188 C189 1.363 1_556 S
C188 H191 0.929 . S
C189 C188 1.363 1_554 S
C189 C195 1.428 . S
H190 C186 0.930 . S
H191 C188 0.929 . S
S192 N193 1.613 . S
S192 N194 1.610 . S
N193 S192 1.613 . S
N193 C196 1.350 . S
N194 S192 1.610 . S
N194 C195 1.351 . S
C195 C189 1.428 . S
C195 N194 1.351 . S
C195 C196 1.434 . S
C196 C187 1.429 . S
C196 N193 1.350 . S
C196 C195 1.434 . S
C197 C198 1.369 1_556 S
C197 C199 1.419 . S
C197 H201 0.930 . S
C198 C197 1.369 1_554 S
C198 C207 1.429 . S
C199 C197 1.419 . S
C199 C200 1.363 1_556 S
C199 H202 0.929 . S
C200 C199 1.363 1_554 S
C200 C206 1.428 . S
H201 C197 0.930 . S
H202 C199 0.929 . S
S203 N204 1.613 . S
S203 N205 1.610 . S
N204 S203 1.613 . S
N204 C207 1.350 . S
N205 S203 1.610 . S
N205 C206 1.351 . S
C206 C200 1.428 . S
C206 N205 1.351 . S
C206 C207 1.434 . S
C207 C198 1.429 . S
C207 N204 1.350 . S
C207 C206 1.434 . S
C208 C209 1.369 . S
C208 C210 1.419 . S
C208 H212 0.930 . S
C209 C208 1.369 . S
C209 C218 1.429 1_554 S
C210 C208 1.419 . S
C210 C211 1.363 . S
C210 H213 0.929 . S
C211 C210 1.363 . S
C211 C217 1.428 1_554 S
H212 C208 0.930 . S
H213 C210 0.929 . S
S214 N215 1.613 . S
S214 N216 1.610 . S
N215 S214 1.613 . S
N215 C218 1.350 . S
N216 S214 1.610 . S
N216 C217 1.351 . S
C217 C211 1.428 1_556 S
C217 N216 1.351 . S
C217 C218 1.434 . S
C218 C209 1.429 1_556 S
C218 N215 1.350 . S
C218 C217 1.434 . S
C121 C9 1.460 . S
C123 C18 1.452 . S
C132 C49 1.449 . S
C134 C58 1.451 1_545 S
C143 C98 1.462 . S
C145 C89 1.455 . S
C154 C19 2.658 1_556 S
C156 C90 2.577 1_556 S
C165 C46 0.959 . S
C167 C6 0.963 . S
C176 C59 2.303 . S
C178 C86 2.197 1_556 S
C187 C10 2.659 1_554 S
C189 C99 2.580 1_554 S
C198 C15 0.957 . S
C200 C55 0.966 . S
C209 C95 2.193 1_554 S
C211 C50 2.305 . S
