# Generated by pormake.
# Topology qtz-x, (6)-cn, num edge types: 1
# Building blocks:
#     Node 0, Type 0, BuildingBlock: VOLQOD_clean_sbu_1, # of connection points: 6
#     Node 1, Type 0, BuildingBlock: VOLQOD_clean_sbu_1, # of connection points: 6
#     Node 2, Type 0, BuildingBlock: VOLQOD_clean_sbu_1, # of connection points: 6
#     Edge 3, Type (0, 0), BuildingBlock: OJICUG_clean_linker_0, # of connection points: 2
#     Edge 4, Type (0, 0), BuildingBlock: OJICUG_clean_linker_0, # of connection points: 2
#     Edge 5, Type (0, 0), BuildingBlock: OJICUG_clean_linker_0, # of connection points: 2
#     Edge 6, Type (0, 0), BuildingBlock: OJICUG_clean_linker_0, # of connection points: 2
#     Edge 7, Type (0, 0), BuildingBlock: OJICUG_clean_linker_0, # of connection points: 2
#     Edge 8, Type (0, 0), BuildingBlock: OJICUG_clean_linker_0, # of connection points: 2
#     Edge 9, Type (0, 0), BuildingBlock: OJICUG_clean_linker_0, # of connection points: 2
#     Edge 10, Type (0, 0), BuildingBlock: OJICUG_clean_linker_0, # of connection points: 2
#     Edge 11, Type (0, 0), BuildingBlock: OJICUG_clean_linker_0, # of connection points: 2
# Relax obj value: 0.235
# Max RMSD: 0.197
# Mean RMSD: 0.197
data_MOF--net-qtz-x--node1-VOLQOD_clean_sbu_1--edge1-OJICUG_clean_linker_0
_symmetry_space_group_name_H-M    P1
_symmetry_Int_Tables_number       1
_symmetry_cell_setting            triclinic
loop_
_symmetry_equiv_pos_as_xyz
'x, y, z'
_cell_length_a     13.272718
_cell_length_b     13.2832
_cell_length_c     28.677926
_cell_angle_alpha  89.317735
_cell_angle_beta   90.92801
_cell_angle_gamma 119.92963
loop_
_atom_site_label
_atom_site_type_symbol
_atom_site_fract_x
_atom_site_fract_y
_atom_site_fract_z
_atom_type_partial_charge
O0 O 0.11431 0.86785 0.14093 0.0
Zn1 Zn 0.15575 0.74082 0.13509 0.0
O2 O 0.0261 0.591 0.15652 0.0
Zn3 Zn 0.97773 0.47826 0.10757 0.0
Zn4 Zn 0.89547 0.61014 0.17693 0.0
Zn5 Zn 0.07536 0.52471 0.20599 0.0
O6 O 0.01056 0.34659 0.11864 0.0
O7 O 0.0445 0.36141 0.19471 0.0
O8 O 0.18967 0.73635 0.06632 0.0
O9 O 0.05086 0.55733 0.0487 0.0
O10 O 0.80989 0.40936 0.09586 0.0
O11 O 0.75066 0.51107 0.13652 0.0
O12 O 0.86391 0.57011 0.24581 0.0
O13 O 0.29851 0.78481 0.17597 0.0
O14 O 1.00007 0.52577 0.26496 0.0
O15 O 0.24335 0.6247 0.21819 0.0
C16 C 0.02556 0.87023 0.15584 0.0
C17 C 0.02774 0.30687 0.15664 0.0
C18 C 0.73108 0.43201 0.10691 0.0
C19 C 0.13263 0.65665 0.03651 0.0
C20 C 0.91844 0.5441 0.27628 0.0
C21 C 0.32005 0.72686 0.20643 0.0
O22 O 0.93667 0.77875 0.17078 0.0
O23 O 0.78285 0.93555 0.47969 0.0
Zn24 Zn 0.61418 0.89428 0.47324 0.0
O25 O 0.59549 0.0253 0.49352 0.0
Zn26 Zn 0.52853 0.07373 0.444 0.0
Zn27 Zn 0.74555 0.15534 0.51512 0.0
Zn28 Zn 0.48331 0.97754 0.5423 0.0
O29 O 0.36528 0.04308 0.45518 0.0
O30 O 0.35214 0.01109 0.53129 0.0
O31 O 0.57406 0.86215 0.40429 0.0
O32 O 0.52909 0.99765 0.38509 0.0
O33 O 0.62841 0.24138 0.43177 0.0
O34 O 0.7892 0.29726 0.47412 0.0
O35 O 0.74168 0.19029 0.58392 0.0
O36 O 0.51481 0.74977 0.5133 0.0
O37 O 0.56311 0.05085 0.60125 0.0
O38 O 0.41355 0.80985 0.5537 0.0
C39 C 0.87463 0.02477 0.49458 0.0
C40 C 0.31165 0.02745 0.4933 0.0
C41 C 0.73086 0.3182 0.44356 0.0
C42 C 0.5477 0.91618 0.37379 0.0
C43 C 0.66237 0.13306 0.61361 0.0
C44 C 0.43571 0.7307 0.54266 0.0
O45 O 0.87253 0.1138 0.50938 0.0
O46 O 0.69414 0.60755 0.84196 0.0
Zn47 Zn 0.56673 0.43941 0.84707 0.0
O48 O 0.41605 0.41564 0.82438 0.0
Zn49 Zn 0.35684 0.29909 0.77517 0.0
Zn50 Zn 0.43833 0.56567 0.80201 0.0
Zn51 Zn 0.29983 0.35599 0.87335 0.0
O52 O 0.2023 0.15629 0.79012 0.0
O53 O 0.15711 0.20187 0.85782 0.0
O54 O 0.62454 0.35267 0.8086 0.0
O55 O 0.47067 0.24755 0.76307 0.0
O56 O 0.34255 0.36958 0.71455 0.0
O57 O 0.38791 0.54933 0.7346 0.0
O58 O 0.35148 0.62303 0.84076 0.0
O59 O 0.5513 0.38994 0.91444 0.0
O60 O 0.2478 0.46903 0.88585 0.0
O61 O 0.37049 0.34146 0.93395 0.0
C62 C 0.6973 0.69752 0.82438 0.0
C63 C 0.13267 0.13218 0.82389 0.0
C64 C 0.35557 0.46888 0.70441 0.0
C65 C 0.57294 0.27684 0.77708 0.0
C66 C 0.27615 0.571 0.8722 0.0
C67 C 0.47048 0.35612 0.94435 0.0
O68 O 0.6066 0.69361 0.80693 0.0
C69 C 0.9748 0.00898 0.19271 0.0
C70 C 0.02604 0.98188 0.15602 0.0
H71 H 0.93816 0.1349 0.22225 0.0
C72 C 0.07814 0.0626 0.11961 0.0
H73 H 0.93451 0.94848 0.2213 0.0
C74 C 0.07709 0.16752 0.11945 0.0
C75 C 0.02759 0.19543 0.15653 0.0
H76 H 0.11794 0.0437 0.09085 0.0
H77 H 0.11671 0.22773 0.09072 0.0
C78 C 0.97735 0.11565 0.19336 0.0
C79 C 0.17336 0.07792 0.53052 0.0
C80 C 0.20024 0.02743 0.49347 0.0
H81 H 0.0501 0.11928 0.55925 0.0
C82 C 0.11936 0.97604 0.4568 0.0
H83 H 0.23445 0.1184 0.55914 0.0
C84 C 0.01255 0.9733 0.4576 0.0
C85 C 0.98642 0.02544 0.49428 0.0
H86 H 0.13784 0.93607 0.42794 0.0
H87 H 0.95117 0.93212 0.42913 0.0
C88 C 0.06826 0.07873 0.53052 0.0
C89 C 0.91276 0.81139 0.81325 0.0
C90 C 0.80861 0.80874 0.82414 0.0
H91 H 0.0969 0.91703 0.80325 0.0
C92 C 0.81174 0.91324 0.83479 0.0
H93 H 0.9125 0.732 0.80474 0.0
C94 C 0.91752 0.01823 0.83549 0.0
C95 C 0.02132 0.02112 0.82379 0.0
H96 H 0.73264 0.91338 0.84344 0.0
H97 H 0.918 0.0975 0.84439 0.0
C98 C 0.01789 0.91699 0.81222 0.0
C99 C 0.31764 0.72127 0.93073 0.0
C100 C 0.23653 0.63429 0.90096 0.0
H101 H 0.34765 0.79733 -0.00125 0.0
C102 C 0.11805 0.58031 0.91111 0.0
H103 H 0.40981 0.76298 0.92359 0.0
C104 C 0.08265 0.59968 0.95382 0.0
C105 C 0.16562 0.67215 0.98706 0.0
H106 H 0.05436 0.5128 0.8886 0.0
H107 H 0.99154 0.54845 0.9627 0.0
C108 C 0.28225 0.74008 0.97391 0.0
C109 C 0.72295 0.44376 0.38026 0.0
C110 C 0.79012 0.41839 0.41165 0.0
H111 H 0.71117 0.50381 0.31188 0.0
C112 C 0.90868 0.46381 0.4028 0.0
H113 H 0.63162 0.41165 0.38665 0.0
C114 C 0.95377 0.51553 0.35978 0.0
C115 C 0.88125 0.52367 0.32537 0.0
H116 H 0.96317 0.44712 0.42647 0.0
H117 H 0.04278 0.53995 0.35208 0.0
C118 C 0.76821 0.49594 0.33727 0.0
C119 C 0.27614 0.54534 0.64412 0.0
C120 C 0.34666 0.49802 0.65565 0.0
H121 H 0.24372 0.65026 0.59636 0.0
C122 C 0.42607 0.5017 0.62293 0.0
H123 H 0.21382 0.54245 0.66884 0.0
C124 C 0.44584 0.56623 0.5817 0.0
C125 C 0.38535 0.6264 0.57296 0.0
H126 H 0.48138 0.46546 0.63144 0.0
H127 H 0.51665 0.57903 0.55954 0.0
C128 C 0.29361 0.60698 0.60259 0.0
C129 C 0.54583 0.27508 0.00438 0.0
C130 C 0.49946 0.34649 -0.00692 0.0
H131 H 0.64959 0.24077 0.05223 0.0
C132 C 0.50358 0.42565 0.02615 0.0
H133 H 0.54256 0.21294 0.97938 0.0
C134 C 0.56759 0.44417 0.06762 0.0
C135 C 0.62687 0.38273 0.07623 0.0
H136 H 0.46803 0.4816 0.01781 0.0
H137 H 0.58079 0.51476 0.09013 0.0
C138 C 0.60698 0.29133 0.04614 0.0
C139 C 0.44683 0.71976 0.26962 0.0
C140 C 0.42105 0.78649 0.23825 0.0
H141 H 0.5075 0.70881 0.33808 0.0
C142 C 0.46677 0.9051 0.24716 0.0
H143 H 0.41456 0.6284 0.26317 0.0
C144 C 0.51894 0.95068 0.29025 0.0
C145 C 0.52723 0.87857 0.32466 0.0
H146 H 0.44984 0.95927 0.22349 0.0
H147 H 0.54348 0.03972 0.29801 0.0
C148 C 0.49946 0.76551 0.31269 0.0
C149 C 0.72418 0.31906 0.71922 0.0
C150 C 0.6372 0.23784 0.74864 0.0
H151 H 0.80131 0.34883 0.65162 0.0
C152 C 0.58466 0.11937 0.73852 0.0
H153 H 0.76482 0.4112 0.72636 0.0
C154 C 0.6055 0.08383 0.69611 0.0
C155 C 0.67774 0.16664 0.66308 0.0
H156 H 0.51721 0.0556 0.76077 0.0
H157 H 0.5553 0.99257 0.68718 0.0
C158 C 0.74432 0.28352 0.6763 0.0
loop_
_geom_bond_atom_site_label_1
_geom_bond_atom_site_label_2
_geom_bond_distance
_geom_bond_site_symmetry_2
_ccdc_geom_bond_type
O0 Zn1 1.953 . S
O0 C16 1.225 . S
Zn1 O0 1.953 . S
Zn1 O2 1.949 . S
Zn1 O8 1.919 . S
Zn1 O13 1.924 . S
O2 Zn1 1.949 . S
O2 Zn3 1.923 1_455 S
O2 Zn4 1.950 1_455 S
O2 Zn5 1.945 . S
Zn3 O2 1.923 1_655 S
Zn3 O6 1.933 . S
Zn3 O9 1.941 1_655 S
Zn3 O10 1.965 . S
Zn4 O2 1.950 1_655 S
Zn4 O11 1.938 . S
Zn4 O12 1.906 . S
Zn4 O22 1.953 . S
Zn5 O2 1.945 . S
Zn5 O7 1.932 . S
Zn5 O14 1.977 1_455 S
Zn5 O15 1.910 . S
O6 Zn3 1.933 . S
O6 C17 1.226 1_655 S
O7 Zn5 1.932 . S
O7 C17 1.307 . S
O8 Zn1 1.919 . S
O8 C19 1.253 . S
O9 Zn3 1.941 1_455 S
O9 C19 1.283 . S
O10 Zn3 1.965 . S
O10 C18 1.303 . S
O11 Zn4 1.938 . S
O11 C18 1.247 . S
O12 Zn4 1.906 . S
O12 C20 1.304 . S
O13 Zn1 1.924 . S
O13 C21 1.311 . S
O14 Zn5 1.977 1_655 S
O14 C20 1.272 . S
O15 Zn5 1.910 . S
O15 C21 1.231 . S
C16 O0 1.225 . S
C16 O22 1.298 1_455 S
C17 O6 1.226 1_455 S
C17 O7 1.307 . S
C18 O10 1.303 . S
C18 O11 1.247 . S
C19 O8 1.253 . S
C19 O9 1.283 . S
C20 O12 1.304 . S
C20 O14 1.272 . S
C21 O13 1.311 . S
C21 O15 1.231 . S
O22 Zn4 1.953 . S
O22 C16 1.298 1_655 S
O23 Zn24 1.953 . S
O23 C39 1.227 . S
Zn24 O23 1.953 . S
Zn24 O25 1.949 1_565 S
Zn24 O31 1.919 . S
Zn24 O36 1.924 . S
O25 Zn24 1.949 1_545 S
O25 Zn26 1.923 . S
O25 Zn27 1.950 . S
O25 Zn28 1.945 1_545 S
Zn26 O25 1.923 . S
Zn26 O29 1.933 . S
Zn26 O32 1.941 1_545 S
Zn26 O33 1.965 . S
Zn27 O25 1.950 . S
Zn27 O34 1.938 . S
Zn27 O35 1.906 . S
Zn27 O45 1.953 . S
Zn28 O25 1.945 1_565 S
Zn28 O30 1.932 . S
Zn28 O37 1.977 1_565 S
Zn28 O38 1.910 . S
O29 Zn26 1.933 . S
O29 C40 1.226 . S
O30 Zn28 1.932 . S
O30 C40 1.307 1_565 S
O31 Zn24 1.919 . S
O31 C42 1.253 . S
O32 Zn26 1.941 1_565 S
O32 C42 1.283 . S
O33 Zn26 1.965 . S
O33 C41 1.303 . S
O34 Zn27 1.938 . S
O34 C41 1.247 . S
O35 Zn27 1.906 . S
O35 C43 1.304 . S
O36 Zn24 1.924 . S
O36 C44 1.311 . S
O37 Zn28 1.977 1_545 S
O37 C43 1.272 . S
O38 Zn28 1.910 . S
O38 C44 1.231 . S
C39 O23 1.227 . S
C39 O45 1.295 1_565 S
C40 O29 1.226 . S
C40 O30 1.307 1_545 S
C41 O33 1.303 . S
C41 O34 1.247 . S
C42 O31 1.253 . S
C42 O32 1.283 . S
C43 O35 1.304 . S
C43 O37 1.272 . S
C44 O36 1.311 . S
C44 O38 1.231 . S
O45 Zn27 1.953 . S
O45 C39 1.295 1_545 S
O46 Zn47 1.953 . S
O46 C62 1.225 . S
Zn47 O46 1.953 . S
Zn47 O48 1.949 . S
Zn47 O54 1.919 . S
Zn47 O59 1.924 . S
O48 Zn47 1.949 . S
O48 Zn49 1.923 . S
O48 Zn50 1.950 . S
O48 Zn51 1.945 . S
Zn49 O48 1.923 . S
Zn49 O52 1.933 . S
Zn49 O55 1.941 . S
Zn49 O56 1.965 . S
Zn50 O48 1.950 . S
Zn50 O57 1.938 . S
Zn50 O58 1.906 . S
Zn50 O68 1.953 . S
Zn51 O48 1.945 . S
Zn51 O53 1.932 . S
Zn51 O60 1.977 . S
Zn51 O61 1.910 . S
O52 Zn49 1.933 . S
O52 C63 1.226 . S
O53 Zn51 1.932 . S
O53 C63 1.307 . S
O54 Zn47 1.919 . S
O54 C65 1.253 . S
O55 Zn49 1.941 . S
O55 C65 1.283 . S
O56 Zn49 1.965 . S
O56 C64 1.303 . S
O57 Zn50 1.938 . S
O57 C64 1.247 . S
O58 Zn50 1.906 . S
O58 C66 1.304 . S
O59 Zn47 1.924 . S
O59 C67 1.311 . S
O60 Zn51 1.977 . S
O60 C66 1.272 . S
O61 Zn51 1.910 . S
O61 C67 1.231 . S
C62 O46 1.225 . S
C62 O68 1.298 . S
C63 O52 1.226 . S
C63 O53 1.307 . S
C64 O56 1.303 . S
C64 O57 1.247 . S
C65 O54 1.253 . S
C65 O55 1.283 . S
C66 O58 1.304 . S
C66 O60 1.272 . S
C67 O59 1.311 . S
C67 O61 1.231 . S
O68 Zn50 1.953 . S
O68 C62 1.298 . S
C69 C70 1.387 . S
C69 H73 0.950 . S
C69 C78 1.390 1_565 S
C70 C69 1.387 . S
C70 C72 1.387 . S
H71 C78 0.950 . S
C72 C70 1.387 . S
C72 C74 1.390 1_565 S
C72 H76 0.950 . S
H73 C69 0.950 . S
C74 C72 1.390 1_545 S
C74 C75 1.387 . S
C74 H77 0.950 . S
C75 C74 1.387 . S
C75 C78 1.387 . S
H76 C72 0.950 . S
H77 C74 0.950 . S
C78 C69 1.390 1_545 S
C78 H71 0.950 . S
C78 C75 1.387 . S
C79 C80 1.387 . S
C79 H83 0.950 . S
C79 C88 1.390 1_455 S
C80 C79 1.387 . S
C80 C82 1.387 1_565 S
H81 C88 0.950 . S
C82 C80 1.387 1_545 S
C82 C84 1.390 1_455 S
C82 H86 0.950 . S
H83 C79 0.950 . S
C84 C82 1.390 1_655 S
C84 C85 1.387 . S
C84 H87 0.950 . S
C85 C84 1.387 . S
C85 C88 1.387 1_545 S
H86 C82 0.950 . S
H87 C84 0.950 . S
C88 C79 1.390 1_655 S
C88 H81 0.950 . S
C88 C85 1.387 1_565 S
C89 C90 1.387 . S
C89 H93 0.950 . S
C89 C98 1.390 1_665 S
C90 C89 1.387 . S
C90 C92 1.387 . S
H91 C98 0.950 . S
C92 C90 1.387 . S
C92 C94 1.390 1_665 S
C92 H96 0.950 . S
H93 C89 0.950 . S
C94 C92 1.390 1_445 S
C94 C95 1.387 . S
C94 H97 0.950 . S
C95 C94 1.387 . S
C95 C98 1.387 . S
H96 C92 0.950 . S
H97 C94 0.950 . S
C98 C89 1.390 1_445 S
C98 H91 0.950 . S
C98 C95 1.387 . S
C99 C100 1.387 . S
C99 H103 0.950 . S
C99 C108 1.390 1_556 S
C100 C99 1.387 . S
C100 C102 1.387 . S
H101 C108 0.950 . S
C102 C100 1.387 . S
C102 C104 1.390 1_556 S
C102 H106 0.950 . S
H103 C99 0.950 . S
C104 C102 1.390 1_554 S
C104 C105 1.387 . S
C104 H107 0.950 . S
C105 C104 1.387 . S
C105 C108 1.387 . S
H106 C102 0.950 . S
H107 C104 0.950 . S
C108 C99 1.390 1_554 S
C108 H101 0.950 . S
C108 C105 1.387 . S
C109 C110 1.387 . S
C109 H113 0.950 . S
C109 C118 1.390 . S
C110 C109 1.387 . S
C110 C112 1.387 . S
H111 C118 0.950 . S
C112 C110 1.387 . S
C112 C114 1.390 . S
C112 H116 0.950 . S
H113 C109 0.950 . S
C114 C112 1.390 . S
C114 C115 1.387 . S
C114 H117 0.950 . S
C115 C114 1.387 . S
C115 C118 1.387 . S
H116 C112 0.950 . S
H117 C114 0.950 . S
C118 C109 1.390 . S
C118 H111 0.950 . S
C118 C115 1.387 . S
C119 C120 1.387 . S
C119 H123 0.950 . S
C119 C128 1.390 . S
C120 C119 1.387 . S
C120 C122 1.387 . S
H121 C128 0.950 . S
C122 C120 1.387 . S
C122 C124 1.390 . S
C122 H126 0.950 . S
H123 C119 0.950 . S
C124 C122 1.390 . S
C124 C125 1.387 . S
C124 H127 0.950 . S
C125 C124 1.387 . S
C125 C128 1.387 . S
H126 C122 0.950 . S
H127 C124 0.950 . S
C128 C119 1.390 . S
C128 H121 0.950 . S
C128 C125 1.387 . S
C129 C130 1.387 . S
C129 H133 0.950 . S
C129 C138 1.390 1_556 S
C130 C129 1.387 . S
C130 C132 1.387 . S
H131 C138 0.950 . S
C132 C130 1.387 . S
C132 C134 1.390 1_556 S
C132 H136 0.950 . S
H133 C129 0.950 . S
C134 C132 1.390 1_554 S
C134 C135 1.387 . S
C134 H137 0.950 . S
C135 C134 1.387 . S
C135 C138 1.387 . S
H136 C132 0.950 . S
H137 C134 0.950 . S
C138 C129 1.390 1_554 S
C138 H131 0.950 . S
C138 C135 1.387 . S
C139 C140 1.387 . S
C139 H143 0.950 . S
C139 C148 1.390 . S
C140 C139 1.387 . S
C140 C142 1.387 . S
H141 C148 0.950 . S
C142 C140 1.387 . S
C142 C144 1.390 . S
C142 H146 0.950 . S
H143 C139 0.950 . S
C144 C142 1.390 . S
C144 C145 1.387 . S
C144 H147 0.950 . S
C145 C144 1.387 . S
C145 C148 1.387 . S
H146 C142 0.950 . S
H147 C144 0.950 . S
C148 C139 1.390 . S
C148 H141 0.950 . S
C148 C145 1.387 . S
C149 C150 1.387 . S
C149 H153 0.950 . S
C149 C158 1.390 . S
C150 C149 1.387 . S
C150 C152 1.387 . S
H151 C158 0.950 . S
C152 C150 1.387 . S
C152 C154 1.390 . S
C152 H156 0.950 . S
H153 C149 0.950 . S
C154 C152 1.390 . S
C154 C155 1.387 . S
C154 H157 0.950 . S
C155 C154 1.387 . S
C155 C158 1.387 . S
H156 C152 0.950 . S
H157 C154 0.950 . S
C158 C149 1.390 . S
C158 H151 0.950 . S
C158 C155 1.387 . S
C70 C16 1.758 . S
C75 C17 1.757 . S
C80 C40 1.757 1_565 S
C85 C39 1.759 1_545 S
C90 C62 1.758 . S
C95 C63 1.756 . S
C100 C66 1.062 . S
C105 C19 1.065 . S
C110 C41 1.147 . S
C115 C20 1.085 . S
C120 C64 1.137 . S
C125 C44 1.120 . S
C130 C67 1.111 . S
C135 C18 1.127 . S
C140 C21 1.087 . S
C145 C42 1.048 . S
C150 C65 1.060 . S
C155 C43 1.057 . S
