# Generated by pormake.
# Topology sxb, (6)-cn, num edge types: 1
# Building blocks:
#     Node 0, Type 0, BuildingBlock: MIFKUJ_clean_sbu_0, # of connection points: 6
#     Node 1, Type 0, BuildingBlock: MIFKUJ_clean_sbu_0, # of connection points: 6
#     Node 2, Type 0, BuildingBlock: MIFKUJ_clean_sbu_0, # of connection points: 6
#     Node 3, Type 0, BuildingBlock: MIFKUJ_clean_sbu_0, # of connection points: 6
#     Edge 4, Type (0, 0), BuildingBlock: AJUNOK_clean_linker_0, # of connection points: 2
#     Edge 5, Type (0, 0), BuildingBlock: AJUNOK_clean_linker_0, # of connection points: 2
#     Edge 6, Type (0, 0), BuildingBlock: AJUNOK_clean_linker_0, # of connection points: 2
#     Edge 7, Type (0, 0), BuildingBlock: AJUNOK_clean_linker_0, # of connection points: 2
#     Edge 8, Type (0, 0), BuildingBlock: AJUNOK_clean_linker_0, # of connection points: 2
#     Edge 9, Type (0, 0), BuildingBlock: AJUNOK_clean_linker_0, # of connection points: 2
#     Edge 10, Type (0, 0), BuildingBlock: AJUNOK_clean_linker_0, # of connection points: 2
#     Edge 11, Type (0, 0), BuildingBlock: AJUNOK_clean_linker_0, # of connection points: 2
#     Edge 12, Type (0, 0), BuildingBlock: AJUNOK_clean_linker_0, # of connection points: 2
#     Edge 13, Type (0, 0), BuildingBlock: AJUNOK_clean_linker_0, # of connection points: 2
#     Edge 14, Type (0, 0), BuildingBlock: AJUNOK_clean_linker_0, # of connection points: 2
#     Edge 15, Type (0, 0), BuildingBlock: AJUNOK_clean_linker_0, # of connection points: 2
# Relax obj value: 0.023
# Max RMSD: 0.065
# Mean RMSD: 0.050
data_MOF--net-sxb--node1-MIFKUJ_clean_sbu_0--edge1-AJUNOK_clean_linker_0
_symmetry_space_group_name_H-M    P1
_symmetry_Int_Tables_number       1
_symmetry_cell_setting            triclinic
loop_
_symmetry_equiv_pos_as_xyz
'x, y, z'
_cell_length_a     13.871377
_cell_length_b     24.920882
_cell_length_c     20.411142
_cell_angle_alpha  96.736299
_cell_angle_beta   98.677701
_cell_angle_gamma 83.13265
loop_
_atom_site_label
_atom_site_type_symbol
_atom_site_fract_x
_atom_site_fract_y
_atom_site_fract_z
_atom_type_partial_charge
Zn0 Zn 0.15444 0.00502 -0.00147 0.0
Zn1 Zn 0.95384 0.99236 0.97681 0.0
C2 C 0.22551 0.8983 0.03515 0.0
O3 O 0.26944 0.92806 0.08573 0.0
C4 C 0.87827 0.10053 0.94752 0.0
O5 O 0.83245 0.07242 0.89619 0.0
O6 O 0.29243 0.02164 0.01171 0.0
O7 O 0.09606 0.0315 0.90957 0.0
O8 O 0.00525 0.96417 0.89175 0.0
C9 C 0.34089 -0.00132 0.9663 0.0
O10 O 0.29535 0.97012 0.91526 0.0
O11 O 0.16809 0.92221 -0.00973 0.0
C12 C 0.76359 -0.00177 0.00684 0.0
O13 O 0.80493 0.02669 0.05973 0.0
O14 O 0.81619 0.97555 0.96368 0.0
O15 O 0.01581 0.96274 0.06209 0.0
O16 O 0.09772 0.03391 0.08316 0.0
O17 O 0.94025 0.07511 0.98866 0.0
C18 C 0.04963 -0.00212 0.86891 0.0
C19 C 0.05713 -0.00254 0.10402 0.0
Zn20 Zn 0.05279 0.05877 0.46491 0.0
Zn21 Zn 0.85648 0.95154 0.45916 0.0
C22 C 0.25361 0.03518 0.47208 0.0
O23 O 0.24272 0.06807 0.52631 0.0
C24 C 0.65157 0.97125 0.41358 0.0
O25 O 0.67198 0.92806 0.3726 0.0
O26 O 0.069 0.13855 0.47277 0.0
O27 O 0.93474 0.03907 0.40363 0.0
O28 O 0.91711 0.95332 0.37691 0.0
C29 C 0.1146 0.15551 0.43098 0.0
O30 O 0.13607 0.12227 0.37916 0.0
O31 O 0.17721 0.02087 0.43467 0.0
C32 C 0.7797 0.86372 0.50393 0.0
O33 O 0.74622 0.90344 0.54545 0.0
O34 O 0.83428 0.87415 0.46333 0.0
O35 O 0.93691 0.97803 0.54629 0.0
O36 O 0.04611 0.03824 0.55616 0.0
O37 O 0.72142 0.99164 0.45255 0.0
C38 C 0.94703 0.99645 0.36418 0.0
C39 C 9e-05 0.00648 0.58164 0.0
Zn40 Zn 0.64913 0.43719 0.00554 0.0
Zn41 Zn 0.41777 0.55636 0.01784 0.0
C42 C 0.75172 0.33002 0.0155 0.0
O43 O 0.79002 0.35408 0.07264 0.0
C44 C 0.32535 0.6633 -0.00294 0.0
O45 O 0.28186 0.63571 0.94427 0.0
O46 O 0.77647 0.47217 0.03212 0.0
O47 O 0.56962 0.47212 0.92449 0.0
O48 O 0.44515 0.53829 0.92377 0.0
C49 C 0.84622 0.45805 -0.00234 0.0
O50 O 0.83174 0.42296 0.94475 0.0
O51 O 0.68721 0.35735 0.97797 0.0
C52 C 0.2289 0.54219 0.05814 0.0
O53 O 0.24141 0.5882 0.09535 0.0
O54 O 0.29649 0.52046 0.02478 0.0
O55 O 0.53756 0.52698 0.07344 0.0
O56 O 0.57873 0.44177 0.08638 0.0
O57 O 0.38951 0.63796 0.03691 0.0
C58 C 0.50439 0.5045 0.89359 0.0
C59 C 0.53341 0.48684 0.10512 0.0
Zn60 Zn 0.57154 0.55528 0.50507 0.0
Zn61 Zn 0.38334 0.45055 0.4875 0.0
C62 C 0.78359 0.53704 0.54109 0.0
O63 O 0.76934 0.5809 0.58237 0.0
C64 C 0.17745 0.47469 0.47056 0.0
O65 O 0.19068 0.44243 0.41625 0.0
O66 O 0.59174 0.63423 0.51345 0.0
O67 O 0.50497 0.53737 0.41245 0.0
O68 O 0.40999 0.47013 0.39904 0.0
C69 C 0.64034 0.64961 0.47234 0.0
O70 O 0.66802 0.61424 0.42399 0.0
O71 O 0.70931 0.51645 0.50764 0.0
C72 C 0.30566 0.35375 0.50804 0.0
O73 O 0.28701 0.3834 0.56319 0.0
O74 O 0.35468 0.37255 0.46974 0.0
O75 O 0.48692 0.45663 0.56912 0.0
O76 O 0.50905 0.54385 0.58446 0.0
O77 O 0.25267 0.48943 0.5093 0.0
C78 C 0.45104 0.50506 0.3754 0.0
C79 C 0.49219 0.5009 0.60674 0.0
C80 C 0.24197 0.75127 0.95864 0.0
C81 C 0.29919 0.72296 0.00927 0.0
C82 C 0.21698 0.80761 0.9679 0.0
C83 C 0.248 0.83817 0.02825 0.0
H84 H 0.21709 0.72993 0.91088 0.0
H85 H 0.17426 0.8274 0.92686 0.0
S86 S 0.39303 0.78318 0.17869 0.0
N87 N 0.38204 0.72959 0.12336 0.0
N88 N 0.3349 0.83523 0.14093 0.0
C89 C 0.30334 0.81023 0.07996 0.0
C90 C 0.32901 0.75279 0.07043 0.0
C91 C 0.85274 0.24232 0.03966 0.0
C92 C 0.78488 0.27211 -0.00458 0.0
C93 C 0.88442 0.18747 0.02306 0.0
C94 C 0.84966 0.15986 0.96143 0.0
H95 H 0.88115 0.26124 0.08811 0.0
H96 H 0.93525 0.16636 0.05956 0.0
S97 S 0.67552 0.21991 0.82587 0.0
N98 N 0.68705 0.2702 0.88582 0.0
N99 N 0.74645 0.16737 0.85459 0.0
C100 C 0.78344 0.18944 0.91599 0.0
C101 C 0.7511 0.24538 0.93296 0.0
C102 C 0.15423 0.23691 0.51021 0.0
C103 C 0.15869 0.20771 0.44719 0.0
C104 C 0.20313 0.28345 0.52957 0.0
C105 C 0.25863 0.30288 0.48679 0.0
H106 H 0.11404 0.22329 0.54564 0.0
H107 H 0.19734 0.30421 0.57871 0.0
S108 S 0.29003 0.24289 0.31487 0.0
N109 N 0.22043 0.20281 0.34092 0.0
N110 N 0.3124 0.29016 0.37729 0.0
C111 C 0.26256 0.27459 0.42313 0.0
C112 C 0.2125 0.22717 0.40334 0.0
C113 C 0.76314 0.77128 0.44396 0.0
C114 C 0.74553 0.80905 0.49883 0.0
C115 C 0.72766 0.72033 0.43559 0.0
C116 C 0.67329 0.7048 0.48182 0.0
H117 H 0.80376 0.78123 0.40645 0.0
H118 H 0.74329 0.69293 0.39234 0.0
S119 S 0.60937 0.7881 0.63554 0.0
N120 N 0.67159 0.82702 0.60107 0.0
N121 N 0.60505 0.73113 0.5855 0.0
C122 C 0.6556 0.742 0.53731 0.0
C123 C 0.69172 0.79407 0.54579 0.0
C124 C 0.49841 0.01862 0.03605 0.0
C125 C 0.44817 -0.00055 0.97425 0.0
C126 C 0.60048 0.01741 0.04624 0.0
C127 C 0.65627 0.99698 -0.00496 0.0
H128 H 0.45888 0.03415 0.07736 0.0
H129 H 0.63574 0.03251 0.0948 0.0
S130 S 0.55964 0.94427 0.82269 0.0
N131 N 0.46144 0.96103 0.86028 0.0
N132 N 0.65353 0.95863 0.87938 0.0
C133 C 0.60696 0.9781 0.93268 0.0
C134 C 0.50285 0.97943 0.92228 0.0
C135 C 0.43432 0.0391 0.49498 0.0
C136 C 0.35317 0.01889 0.45371 0.0
C137 C 0.52969 0.02506 0.48001 0.0
C138 C 0.54852 0.98984 0.42327 0.0
H139 H 0.42465 0.06588 0.53981 0.0
H140 H 0.5893 0.04104 0.51442 0.0
S141 S 0.36118 0.92828 0.29619 0.0
N142 N 0.29731 0.96384 0.35154 0.0
N143 N 0.47713 0.93694 0.32353 0.0
C144 C 0.46791 0.97021 0.38047 0.0
C145 C 0.37023 0.9848 0.39565 0.0
C146 C 0.02214 0.45709 0.98244 0.0
C147 C 0.94357 0.4793 0.01686 0.0
C148 C 0.11444 0.47652 -0.0023 0.0
C149 C 0.13257 0.51938 0.04787 0.0
H150 H 0.01248 0.42445 0.9428 0.0
H151 H 0.17144 0.45836 0.96869 0.0
S152 S 0.9532 0.59026 0.15537 0.0
N153 N 0.89123 0.54539 0.10546 0.0
N154 N 0.06455 0.58215 0.13397 0.0
C155 C 0.05534 0.54129 0.08384 0.0
C156 C 0.96107 0.52125 0.06842 0.0
C157 C 0.05875 0.53179 0.53838 0.0
C158 C 0.07718 0.48887 0.48919 0.0
C159 C 0.96437 0.54592 0.55621 0.0
C160 C 0.88448 0.51746 0.526 0.0
H161 H 0.11732 0.55532 0.56263 0.0
H162 H 0.95389 0.58018 0.59322 0.0
S163 S 0.89583 0.39812 0.39883 0.0
N164 N 0.00875 0.41553 0.41364 0.0
N165 N 0.83222 0.44188 0.4472 0.0
C166 C 0.90274 0.47322 0.47829 0.0
C167 C -0.00132 0.45904 0.45986 0.0
C168 C 0.99299 0.04616 0.27575 0.0
C169 C 0.99259 0.99695 0.30327 0.0
C170 C 0.02074 0.04659 0.21252 0.0
C171 C 0.04804 -0.00221 0.17485 0.0
H172 H 0.96666 0.08435 0.30152 0.0
H173 H 0.01486 0.08496 0.1914 0.0
S174 S 0.07798 0.85938 0.22918 0.0
N175 N 0.03633 0.89899 0.29171 0.0
N176 N 0.08631 0.90006 0.17246 0.0
C177 C 0.05502 0.94886 0.20365 0.0
C178 C 0.02782 0.94837 0.26806 0.0
C179 C 0.96859 0.97307 0.75346 0.0
C180 C 0.04148 -0.00028 0.79601 0.0
C181 C 0.95672 0.97508 0.68449 0.0
C182 C 0.01745 0.00377 0.65491 0.0
H183 H 0.9189 0.95098 0.77354 0.0
H184 H 0.89847 0.9544 0.65435 0.0
S185 S 0.22436 0.07748 0.74416 0.0
N186 N 0.17842 0.05369 0.80365 0.0
N187 N 0.15673 0.05747 0.67388 0.0
C188 C 0.09215 0.02978 0.69686 0.0
C189 C 0.104 0.02781 0.76734 0.0
C190 C 0.45372 0.45255 0.26358 0.0
C191 C 0.44953 0.503 0.30251 0.0
C192 C 0.4751 0.44808 0.19802 0.0
C193 C 0.49135 0.494 0.16865 0.0
H194 H 0.4472 0.41572 0.28529 0.0
H195 H 0.48337 0.40797 0.17127 0.0
S196 S 0.4717 0.63666 0.24634 0.0
N197 N 0.45172 0.60052 0.30484 0.0
N198 N 0.48937 0.59256 0.18122 0.0
C199 C 0.47853 0.54532 0.2052 0.0
C200 C 0.45845 0.54968 0.27229 0.0
C201 C 0.52544 0.45509 0.71217 0.0
C202 C 0.4912 0.50171 0.67931 0.0
C203 C 0.53017 0.45635 0.78155 0.0
C204 C 0.49876 0.50393 0.82036 0.0
H205 H 0.55087 0.41768 0.68435 0.0
H206 H 0.55805 0.41966 0.80485 0.0
S207 S 0.39927 0.63637 0.75773 0.0
N208 N 0.42336 0.5964 0.69052 0.0
N209 N 0.43067 0.59862 0.82033 0.0
C210 C 0.46251 0.5505 0.78779 0.0
C211 C 0.45917 0.54943 0.71746 0.0
loop_
_geom_bond_atom_site_label_1
_geom_bond_atom_site_label_2
_geom_bond_distance
_geom_bond_site_symmetry_2
_ccdc_geom_bond_type
Zn0 O6 1.969 1_565 S
Zn0 O7 1.965 1_564 S
Zn0 O11 2.024 1_554 S
Zn0 O16 1.969 . S
Zn1 O8 1.969 . S
Zn1 O14 1.969 1_545 S
Zn1 O15 1.965 1_546 S
Zn1 O17 2.024 1_556 S
C2 O3 1.229 . S
C2 O11 1.058 1_554 S
O3 C2 1.229 . S
C4 O5 1.229 . S
C4 O17 1.058 1_556 S
O5 C4 1.229 . S
O6 Zn0 1.969 1_545 S
O6 C9 1.267 1_544 S
O7 Zn0 1.965 1_546 S
O7 C18 1.260 1_455 S
O8 Zn1 1.969 . S
O8 C18 1.258 . S
C9 O6 1.267 1_566 S
C9 O10 1.228 . S
O10 C9 1.228 . S
O11 Zn0 2.024 1_556 S
O11 C2 1.058 1_556 S
C12 O13 1.228 . S
C12 O14 1.267 1_544 S
O13 C12 1.228 . S
O14 Zn1 1.969 1_565 S
O14 C12 1.267 1_566 S
O15 Zn1 1.965 1_564 S
O15 C19 1.260 1_655 S
O16 Zn0 1.969 . S
O16 C19 1.258 . S
O17 Zn1 2.024 1_554 S
O17 C4 1.058 1_554 S
C18 O7 1.260 1_655 S
C18 O8 1.258 . S
C19 O15 1.260 1_455 S
C19 O16 1.258 . S
Zn20 O26 1.969 . S
Zn20 O27 1.965 . S
Zn20 O31 2.024 1_545 S
Zn20 O36 1.969 . S
Zn21 O28 1.969 . S
Zn21 O34 1.969 . S
Zn21 O35 1.965 . S
Zn21 O37 2.024 1_565 S
C22 O23 1.229 . S
C22 O31 1.058 1_545 S
O23 C22 1.229 . S
C24 O25 1.229 . S
C24 O37 1.058 1_565 S
O25 C24 1.229 . S
O26 Zn20 1.969 . S
O26 C29 1.267 . S
O27 Zn20 1.965 . S
O27 C38 1.260 1_455 S
O28 Zn21 1.969 . S
O28 C38 1.258 1_565 S
C29 O26 1.267 . S
C29 O30 1.228 . S
O30 C29 1.228 . S
O31 Zn20 2.024 1_565 S
O31 C22 1.058 1_565 S
C32 O33 1.228 . S
C32 O34 1.267 . S
O33 C32 1.228 . S
O34 Zn21 1.969 . S
O34 C32 1.267 . S
O35 Zn21 1.965 . S
O35 C39 1.260 1_655 S
O36 Zn20 1.969 . S
O36 C39 1.258 1_545 S
O37 Zn21 2.024 1_545 S
O37 C24 1.058 1_545 S
C38 O27 1.260 1_655 S
C38 O28 1.258 1_545 S
C39 O35 1.260 1_455 S
C39 O36 1.258 1_565 S
Zn40 O46 1.969 . S
Zn40 O47 1.965 1_554 S
Zn40 O51 2.024 1_554 S
Zn40 O56 1.969 . S
Zn41 O48 1.969 . S
Zn41 O54 1.969 . S
Zn41 O55 1.965 1_556 S
Zn41 O57 2.024 1_556 S
C42 O43 1.229 . S
C42 O51 1.058 1_554 S
O43 C42 1.229 . S
C44 O45 1.229 . S
C44 O57 1.058 1_556 S
O45 C44 1.229 . S
O46 Zn40 1.969 . S
O46 C49 1.267 1_554 S
O47 Zn40 1.965 1_556 S
O47 C58 1.260 . S
O48 Zn41 1.969 . S
O48 C58 1.258 . S
C49 O46 1.267 1_556 S
C49 O50 1.228 . S
O50 C49 1.228 . S
O51 Zn40 2.024 1_556 S
O51 C42 1.058 1_556 S
C52 O53 1.228 . S
C52 O54 1.267 1_554 S
O53 C52 1.228 . S
O54 Zn41 1.969 . S
O54 C52 1.267 1_556 S
O55 Zn41 1.965 1_554 S
O55 C59 1.260 . S
O56 Zn40 1.969 . S
O56 C59 1.258 . S
O57 Zn41 2.024 1_554 S
O57 C44 1.058 1_554 S
C58 O47 1.260 . S
C58 O48 1.258 . S
C59 O55 1.260 . S
C59 O56 1.258 . S
Zn60 O66 1.969 . S
Zn60 O67 1.965 . S
Zn60 O71 2.024 . S
Zn60 O76 1.969 . S
Zn61 O68 1.969 . S
Zn61 O74 1.969 . S
Zn61 O75 1.965 . S
Zn61 O77 2.024 . S
C62 O63 1.229 . S
C62 O71 1.058 . S
O63 C62 1.229 . S
C64 O65 1.229 . S
C64 O77 1.058 . S
O65 C64 1.229 . S
O66 Zn60 1.969 . S
O66 C69 1.267 . S
O67 Zn60 1.965 . S
O67 C78 1.260 . S
O68 Zn61 1.969 . S
O68 C78 1.258 . S
C69 O66 1.267 . S
C69 O70 1.228 . S
O70 C69 1.228 . S
O71 Zn60 2.024 . S
O71 C62 1.058 . S
C72 O73 1.228 . S
C72 O74 1.267 . S
O73 C72 1.228 . S
O74 Zn61 1.969 . S
O74 C72 1.267 . S
O75 Zn61 1.965 . S
O75 C79 1.260 . S
O76 Zn60 1.969 . S
O76 C79 1.258 . S
O77 Zn61 2.024 . S
O77 C64 1.058 . S
C78 O67 1.260 . S
C78 O68 1.258 . S
C79 O75 1.260 . S
C79 O76 1.258 . S
C80 C81 1.369 1_556 S
C80 C82 1.419 . S
C80 H84 0.930 . S
C81 C80 1.369 1_554 S
C81 C90 1.429 . S
C82 C80 1.419 . S
C82 C83 1.363 . S
C82 H85 0.929 . S
C83 C82 1.363 . S
C83 C89 1.428 1_556 S
H84 C80 0.930 . S
H85 C82 0.929 . S
S86 N87 1.613 . S
S86 N88 1.610 . S
N87 S86 1.613 . S
N87 C90 1.350 . S
N88 S86 1.610 . S
N88 C89 1.351 . S
C89 C83 1.428 1_554 S
C89 N88 1.351 . S
C89 C90 1.434 . S
C90 C81 1.429 . S
C90 N87 1.350 . S
C90 C89 1.434 . S
C91 C92 1.369 1_554 S
C91 C93 1.419 . S
C91 H95 0.930 . S
C92 C91 1.369 1_556 S
C92 C101 1.429 . S
C93 C91 1.419 . S
C93 C94 1.363 . S
C93 H96 0.929 . S
C94 C93 1.363 . S
C94 C100 1.428 1_554 S
H95 C91 0.930 . S
H96 C93 0.929 . S
S97 N98 1.613 . S
S97 N99 1.610 . S
N98 S97 1.613 . S
N98 C101 1.350 . S
N99 S97 1.610 . S
N99 C100 1.351 . S
C100 C94 1.428 1_556 S
C100 N99 1.351 . S
C100 C101 1.434 . S
C101 C92 1.429 . S
C101 N98 1.350 . S
C101 C100 1.434 . S
C102 C103 1.369 . S
C102 C104 1.419 . S
C102 H106 0.930 . S
C103 C102 1.369 . S
C103 C112 1.429 . S
C104 C102 1.419 . S
C104 C105 1.363 . S
C104 H107 0.929 . S
C105 C104 1.363 . S
C105 C111 1.428 . S
H106 C102 0.930 . S
H107 C104 0.929 . S
S108 N109 1.613 . S
S108 N110 1.610 . S
N109 S108 1.613 . S
N109 C112 1.350 . S
N110 S108 1.610 . S
N110 C111 1.351 . S
C111 C105 1.428 . S
C111 N110 1.351 . S
C111 C112 1.434 . S
C112 C103 1.429 . S
C112 N109 1.350 . S
C112 C111 1.434 . S
C113 C114 1.369 . S
C113 C115 1.419 . S
C113 H117 0.930 . S
C114 C113 1.369 . S
C114 C123 1.429 . S
C115 C113 1.419 . S
C115 C116 1.363 . S
C115 H118 0.929 . S
C116 C115 1.363 . S
C116 C122 1.428 . S
H117 C113 0.930 . S
H118 C115 0.929 . S
S119 N120 1.613 . S
S119 N121 1.610 . S
N120 S119 1.613 . S
N120 C123 1.350 . S
N121 S119 1.610 . S
N121 C122 1.351 . S
C122 C116 1.428 . S
C122 N121 1.351 . S
C122 C123 1.434 . S
C123 C114 1.429 . S
C123 N120 1.350 . S
C123 C122 1.434 . S
C124 C125 1.369 1_564 S
C124 C126 1.419 . S
C124 H128 0.930 . S
C125 C124 1.369 1_546 S
C125 C134 1.429 . S
C126 C124 1.419 . S
C126 C127 1.363 . S
C126 H129 0.929 . S
C127 C126 1.363 . S
C127 C133 1.428 1_564 S
H128 C124 0.930 . S
H129 C126 0.929 . S
S130 N131 1.613 . S
S130 N132 1.610 . S
N131 S130 1.613 . S
N131 C134 1.350 . S
N132 S130 1.610 . S
N132 C133 1.351 . S
C133 C127 1.428 1_546 S
C133 N132 1.351 . S
C133 C134 1.434 . S
C134 C125 1.429 . S
C134 N131 1.350 . S
C134 C133 1.434 . S
C135 C136 1.369 . S
C135 C137 1.419 . S
C135 H139 0.930 . S
C136 C135 1.369 . S
C136 C145 1.429 1_565 S
C137 C135 1.419 . S
C137 C138 1.363 1_565 S
C137 H140 0.929 . S
C138 C137 1.363 1_545 S
C138 C144 1.428 . S
H139 C135 0.930 . S
H140 C137 0.929 . S
S141 N142 1.613 . S
S141 N143 1.610 . S
N142 S141 1.613 . S
N142 C145 1.350 . S
N143 S141 1.610 . S
N143 C144 1.351 . S
C144 C138 1.428 . S
C144 N143 1.351 . S
C144 C145 1.434 . S
C145 C136 1.429 1_545 S
C145 N142 1.350 . S
C145 C144 1.434 . S
C146 C147 1.369 . S
C146 C148 1.419 1_655 S
C146 H150 0.930 . S
C147 C146 1.369 . S
C147 C156 1.429 1_556 S
C148 C146 1.419 1_455 S
C148 C149 1.363 1_556 S
C148 H151 0.929 . S
C149 C148 1.363 1_554 S
C149 C155 1.428 . S
H150 C146 0.930 . S
H151 C148 0.929 . S
S152 N153 1.613 1_455 S
S152 N154 1.610 . S
N153 S152 1.613 1_655 S
N153 C156 1.350 . S
N154 S152 1.610 . S
N154 C155 1.351 . S
C155 C149 1.428 . S
C155 N154 1.351 . S
C155 C156 1.434 1_455 S
C156 C147 1.429 1_554 S
C156 N153 1.350 . S
C156 C155 1.434 1_655 S
C157 C158 1.369 . S
C157 C159 1.419 1_455 S
C157 H161 0.930 . S
C158 C157 1.369 . S
C158 C167 1.429 . S
C159 C157 1.419 1_655 S
C159 C160 1.363 . S
C159 H162 0.929 . S
C160 C159 1.363 . S
C160 C166 1.428 . S
H161 C157 0.930 . S
H162 C159 0.929 . S
S163 N164 1.613 . S
S163 N165 1.610 1_455 S
N164 S163 1.613 . S
N164 C167 1.350 . S
N165 S163 1.610 1_655 S
N165 C166 1.351 . S
C166 C160 1.428 . S
C166 N165 1.351 . S
C166 C167 1.434 1_655 S
C167 C158 1.429 . S
C167 N164 1.350 . S
C167 C166 1.434 1_455 S
C168 C169 1.369 . S
C168 C170 1.419 . S
C168 H172 0.930 . S
C169 C168 1.369 . S
C169 C178 1.429 1_545 S
C170 C168 1.419 . S
C170 C171 1.363 . S
C170 H173 0.929 . S
C171 C170 1.363 . S
C171 C177 1.428 1_545 S
H172 C168 0.930 . S
H173 C170 0.929 . S
S174 N175 1.613 1_455 S
S174 N176 1.611 1_455 S
N175 S174 1.613 1_655 S
N175 C178 1.350 . S
N176 S174 1.611 1_655 S
N176 C177 1.352 . S
C177 C171 1.428 1_565 S
C177 N176 1.352 . S
C177 C178 1.434 . S
C178 C169 1.429 1_565 S
C178 N175 1.350 . S
C178 C177 1.434 . S
C179 C180 1.380 1_655 S
C179 C181 1.419 . S
C179 H183 0.930 . S
C180 C179 1.380 1_455 S
C180 C189 1.416 1_565 S
C181 C179 1.419 . S
C181 C182 1.363 1_655 S
C181 H184 0.929 . S
C182 C181 1.363 1_455 S
C182 C188 1.428 1_565 S
H183 C179 0.930 . S
H184 C181 0.929 . S
S185 N186 1.613 . S
S185 N187 1.610 . S
N186 S185 1.613 . S
N186 C189 1.350 . S
N187 S185 1.610 . S
N187 C188 1.351 . S
C188 C182 1.428 1_545 S
C188 N187 1.351 . S
C188 C189 1.434 . S
C189 C180 1.416 1_545 S
C189 N186 1.350 . S
C189 C188 1.434 . S
C190 C191 1.369 . S
C190 C192 1.419 . S
C190 H194 0.930 . S
C191 C190 1.369 . S
C191 C200 1.429 . S
C192 C190 1.419 . S
C192 C193 1.363 . S
C192 H195 0.929 . S
C193 C192 1.363 . S
C193 C199 1.428 . S
H194 C190 0.930 . S
H195 C192 0.929 . S
S196 N197 1.613 . S
S196 N198 1.610 . S
N197 S196 1.613 . S
N197 C200 1.350 . S
N198 S196 1.610 . S
N198 C199 1.351 . S
C199 C193 1.428 . S
C199 N198 1.351 . S
C199 C200 1.434 . S
C200 C191 1.429 . S
C200 N197 1.350 . S
C200 C199 1.434 . S
C201 C202 1.369 . S
C201 C203 1.419 . S
C201 H205 0.930 . S
C202 C201 1.369 . S
C202 C211 1.429 . S
C203 C201 1.419 . S
C203 C204 1.363 . S
C203 H206 0.929 . S
C204 C203 1.363 . S
C204 C210 1.428 . S
H205 C201 0.930 . S
H206 C203 0.929 . S
S207 N208 1.613 . S
S207 N209 1.610 . S
N208 S207 1.613 . S
N208 C211 1.350 . S
N209 S207 1.610 . S
N209 C210 1.351 . S
C210 C204 1.428 . S
C210 N209 1.351 . S
C210 C211 1.434 . S
C211 C202 1.429 . S
C211 N208 1.350 . S
C211 C210 1.434 . S
C81 C44 1.549 1_554 S
C83 C2 1.545 1_556 S
C92 C42 1.545 1_556 S
C94 C4 1.546 1_554 S
C103 C29 1.317 . S
C105 C72 1.315 . S
C114 C32 1.322 . S
C116 C69 1.315 . S
C125 C9 1.078 1_545 S
C127 C12 1.077 1_565 S
C136 C22 1.535 1_565 S
C138 C24 1.543 1_545 S
C147 C49 1.083 . S
C149 C52 1.073 . S
C158 C64 1.533 . S
C160 C62 1.544 . S
C169 C38 1.489 . S
C171 C19 1.476 1_645 S
C180 C18 1.478 1_465 S
C182 C39 1.489 . S
C191 C78 1.488 . S
C193 C59 1.481 . S
C202 C79 1.488 . S
C204 C58 1.480 . S
