# Generated by pormake.
# Topology dia, (4)-cn, num edge types: 1
# Building blocks:
#     Node 0, Type 0, BuildingBlock: QUQFOY_clean_sbu_3, # of connection points: 4
#     Node 1, Type 0, BuildingBlock: QUQFOY_clean_sbu_3, # of connection points: 4
#     Node 2, Type 0, BuildingBlock: QUQFOY_clean_sbu_3, # of connection points: 4
#     Node 3, Type 0, BuildingBlock: QUQFOY_clean_sbu_3, # of connection points: 4
#     Node 4, Type 0, BuildingBlock: QUQFOY_clean_sbu_3, # of connection points: 4
#     Node 5, Type 0, BuildingBlock: QUQFOY_clean_sbu_3, # of connection points: 4
#     Node 6, Type 0, BuildingBlock: QUQFOY_clean_sbu_3, # of connection points: 4
#     Node 7, Type 0, BuildingBlock: QUQFOY_clean_sbu_3, # of connection points: 4
#     Edge 8, Type (0, 0), None
#     Edge 9, Type (0, 0), None
#     Edge 10, Type (0, 0), None
#     Edge 11, Type (0, 0), None
#     Edge 12, Type (0, 0), None
#     Edge 13, Type (0, 0), None
#     Edge 14, Type (0, 0), None
#     Edge 15, Type (0, 0), None
#     Edge 16, Type (0, 0), None
#     Edge 17, Type (0, 0), None
#     Edge 18, Type (0, 0), None
#     Edge 19, Type (0, 0), None
#     Edge 20, Type (0, 0), None
#     Edge 21, Type (0, 0), None
#     Edge 22, Type (0, 0), None
#     Edge 23, Type (0, 0), None
# Relax obj value: 0.120
# Max RMSD: 0.163
# Mean RMSD: 0.163
data_MOF--net-dia--node1-QUQFOY_clean_sbu_3--edge1-none
_symmetry_space_group_name_H-M    P1
_symmetry_Int_Tables_number       1
_symmetry_cell_setting            triclinic
loop_
_symmetry_equiv_pos_as_xyz
'x, y, z'
_cell_length_a     17.035673
_cell_length_b     17.03577
_cell_length_c     18.214243
_cell_angle_alpha  92.321975
_cell_angle_beta   92.321696
_cell_angle_gamma 94.086991
loop_
_atom_site_label
_atom_site_type_symbol
_atom_site_fract_x
_atom_site_fract_y
_atom_site_fract_z
_atom_type_partial_charge
C0 C -0.05242 0.18435 0.67422 0.0
O1 O 0.92133 0.19471 0.60921 0.0
Cd2 Cd -0.04636 0.12053 0.50042 0.0
O3 O -7e-05 0.13608 0.68699 0.0
Cd4 Cd 0.08547 0.04664 0.62076 0.0
C5 C 0.14947 0.18554 0.50035 0.0
O6 O -0.02972 -0.00335 0.55116 0.0
O7 O 0.0692 0.92731 0.53531 0.0
O8 O 0.10093 0.00823 0.74815 0.0
C9 C -0.00131 0.93973 0.51766 0.0
O10 O 0.08066 0.18225 0.47001 0.0
C11 C 0.16622 -0.02178 0.73973 0.0
O12 O 0.1651 0.14695 0.55696 0.0
O13 O 0.19389 -0.02068 0.67609 0.0
C14 C 0.7091 0.44589 0.80145 0.0
O15 O 0.69873 0.47214 0.86645 0.0
Cd16 Cd 0.77291 0.43984 0.97525 0.0
O17 O 0.75738 0.39355 0.78869 0.0
Cd18 Cd 0.84682 0.30803 0.85493 0.0
C19 C 0.70792 0.24401 0.97533 0.0
O20 O 0.89681 0.42323 0.92453 0.0
O21 O -0.03386 0.32431 0.94039 0.0
O22 O 0.88525 0.29257 0.72755 0.0
C23 C -0.04627 0.39482 0.95803 0.0
O24 O 0.7112 0.31282 0.00568 0.0
C25 C 0.91526 0.22728 0.73597 0.0
O26 O 0.74652 0.22838 0.91873 0.0
O27 O 0.91416 0.19961 0.79961 0.0
C28 C 0.44758 0.18435 0.17421 0.0
O29 O 0.42132 0.1947 0.10921 0.0
Cd30 Cd 0.45362 0.12052 0.00042 0.0
O31 O 0.49993 0.13608 0.18698 0.0
Cd32 Cd 0.58547 0.04665 0.12076 0.0
C33 C 0.64946 0.18552 0.00032 0.0
O34 O 0.47028 -0.00336 0.05116 0.0
O35 O 0.56921 0.92732 0.0353 0.0
O36 O 0.60093 0.00823 0.24814 0.0
C37 C 0.4987 0.93972 0.01766 0.0
O38 O 0.58064 0.18223 0.96999 0.0
C39 C 0.66622 -0.02177 0.23973 0.0
O40 O 0.6651 0.14695 0.05694 0.0
O41 O 0.6939 -0.02067 0.17609 0.0
C42 C 0.70915 0.94591 0.30149 0.0
O43 O 0.69879 -0.02784 0.36649 0.0
Cd44 Cd 0.77295 0.93986 0.47529 0.0
O45 O 0.75742 0.89357 0.28872 0.0
Cd46 Cd 0.84686 0.80803 0.35495 0.0
C47 C 0.70795 0.74401 0.47534 0.0
O48 O 0.89684 0.92321 0.42458 0.0
O49 O -0.0338 0.8243 0.4404 0.0
O50 O 0.8853 0.7926 0.22757 0.0
C51 C -0.04624 0.89479 0.45808 0.0
O52 O 0.71122 0.81282 0.50568 0.0
C53 C 0.9153 0.72731 0.23597 0.0
O54 O 0.74656 0.72839 0.41874 0.0
O55 O 0.91418 0.69961 0.2996 0.0
C56 C -0.0524 0.68438 0.17421 0.0
O57 O 0.92136 0.69475 0.10921 0.0
Cd58 Cd -0.04635 0.62059 0.0004 0.0
O59 O -6e-05 0.63609 0.18697 0.0
Cd60 Cd 0.08545 0.54665 0.12073 0.0
C61 C 0.14949 0.68556 0.00034 0.0
O62 O -0.02974 0.49668 0.05111 0.0
O63 O 0.06917 0.42732 0.03527 0.0
O64 O 0.10088 0.5082 0.24811 0.0
C65 C -0.00133 0.43976 0.0176 0.0
O66 O 0.08068 0.68229 0.97 0.0
C67 C 0.16617 0.47819 0.2397 0.0
O68 O 0.16511 0.64694 0.05694 0.0
O69 O 0.19386 0.4793 0.17606 0.0
C70 C 0.20909 0.44588 0.30146 0.0
O71 O 0.19874 0.47213 0.36646 0.0
Cd72 Cd 0.27292 0.43985 0.47525 0.0
O73 O 0.25737 0.39354 0.28869 0.0
Cd74 Cd 0.34682 0.30802 0.35493 0.0
C75 C 0.20795 0.24401 0.47537 0.0
O76 O 0.39681 0.42322 0.42452 0.0
O77 O 0.46614 0.3243 0.44039 0.0
O78 O 0.38524 0.29256 0.22755 0.0
C79 C 0.45374 0.39481 0.45803 0.0
O80 O 0.21123 0.31283 0.5057 0.0
C81 C 0.41526 0.22727 0.23597 0.0
O82 O 0.24653 0.22838 0.41875 0.0
O83 O 0.41416 0.1996 0.29961 0.0
C84 C 0.20914 0.94591 0.80149 0.0
O85 O 0.19879 -0.02784 0.86649 0.0
Cd86 Cd 0.27296 0.93987 0.97529 0.0
O87 O 0.25742 0.89356 0.78872 0.0
Cd88 Cd 0.34687 0.80803 0.85495 0.0
C89 C 0.20798 0.74402 0.97537 0.0
O90 O 0.39685 0.92321 0.92457 0.0
O91 O 0.4662 0.8243 0.9404 0.0
O92 O 0.38529 0.79259 0.72756 0.0
C93 C 0.45376 0.89479 0.95807 0.0
O94 O 0.21125 0.81284 0.0057 0.0
C95 C 0.41529 0.7273 0.73597 0.0
O96 O 0.24657 0.72839 0.91876 0.0
O97 O 0.41418 0.69961 0.7996 0.0
C98 C 0.4476 0.68438 0.6742 0.0
O99 O 0.42134 0.69474 0.60921 0.0
Cd100 Cd 0.45362 0.62057 0.5004 0.0
O101 O 0.49993 0.63609 0.68696 0.0
Cd102 Cd 0.58545 0.54665 0.62072 0.0
C103 C 0.64947 0.68553 0.50031 0.0
O104 O 0.47026 0.49667 0.55111 0.0
O105 O 0.56917 0.42732 0.53527 0.0
O106 O 0.60089 0.50821 0.7481 0.0
C107 C 0.49868 0.43976 0.5176 0.0
O108 O 0.58066 0.68227 0.46998 0.0
C109 C 0.66618 0.47821 0.73969 0.0
O110 O 0.6651 0.64694 0.55692 0.0
O111 O 0.69387 0.47932 0.67606 0.0
loop_
_geom_bond_atom_site_label_1
_geom_bond_atom_site_label_2
_geom_bond_distance
_geom_bond_site_symmetry_2
_ccdc_geom_bond_type
C0 O1 1.306 1_455 S
C0 O3 1.160 . S
O1 C0 1.306 1_655 S
O1 Cd2 2.228 . S
Cd2 O1 2.228 . S
Cd2 O6 2.273 1_655 S
Cd2 O10 2.277 1_655 S
O3 C0 1.160 . S
O3 Cd4 2.203 . S
Cd4 O3 2.203 . S
Cd4 O6 2.411 . S
Cd4 O7 2.333 . S
Cd4 O8 2.352 . S
Cd4 O12 2.277 . S
Cd4 O13 2.356 . S
C5 O10 1.209 . S
C5 O12 1.226 . S
O6 Cd2 2.273 1_455 S
O6 Cd4 2.411 . S
O6 C9 1.320 . S
O7 Cd4 2.333 . S
O7 C9 1.214 . S
O8 Cd4 2.352 . S
O8 C11 1.258 1_545 S
C9 O6 1.320 . S
C9 O7 1.214 . S
O10 Cd2 2.277 1_455 S
O10 C5 1.209 . S
C11 O8 1.258 1_565 S
C11 O13 1.282 1_565 S
O12 Cd4 2.277 . S
O12 C5 1.226 . S
O13 Cd4 2.356 . S
O13 C11 1.282 1_545 S
C14 O15 1.306 . S
C14 O17 1.160 . S
O15 C14 1.306 . S
O15 Cd16 2.228 . S
Cd16 O15 2.228 . S
Cd16 O20 2.273 . S
Cd16 O24 2.277 . S
O17 C14 1.160 . S
O17 Cd18 2.203 . S
Cd18 O17 2.203 . S
Cd18 O20 2.411 . S
Cd18 O21 2.333 . S
Cd18 O22 2.352 . S
Cd18 O26 2.277 . S
Cd18 O27 2.356 . S
C19 O24 1.209 . S
C19 O26 1.226 . S
O20 Cd16 2.273 . S
O20 Cd18 2.411 . S
O20 C23 1.320 . S
O21 Cd18 2.333 . S
O21 C23 1.214 . S
O22 Cd18 2.352 . S
O22 C25 1.258 1_655 S
C23 O20 1.320 . S
C23 O21 1.214 . S
O24 Cd16 2.277 . S
O24 C19 1.209 . S
C25 O22 1.258 1_455 S
C25 O27 1.282 1_455 S
O26 Cd18 2.277 . S
O26 C19 1.226 . S
O27 Cd18 2.356 . S
O27 C25 1.282 1_655 S
C28 O29 1.306 . S
C28 O31 1.160 . S
O29 C28 1.306 . S
O29 Cd30 2.228 . S
Cd30 O29 2.228 . S
Cd30 O34 2.273 . S
Cd30 O38 2.277 . S
O31 C28 1.160 . S
O31 Cd32 2.203 . S
Cd32 O31 2.203 . S
Cd32 O34 2.411 . S
Cd32 O35 2.333 . S
Cd32 O36 2.352 . S
Cd32 O40 2.277 . S
Cd32 O41 2.356 . S
C33 O38 1.209 . S
C33 O40 1.226 . S
O34 Cd30 2.273 . S
O34 Cd32 2.411 . S
O34 C37 1.320 . S
O35 Cd32 2.333 . S
O35 C37 1.214 . S
O36 Cd32 2.352 . S
O36 C39 1.258 1_545 S
C37 O34 1.320 . S
C37 O35 1.214 . S
O38 Cd30 2.277 . S
O38 C33 1.209 . S
C39 O36 1.258 1_565 S
C39 O41 1.282 1_565 S
O40 Cd32 2.277 . S
O40 C33 1.226 . S
O41 Cd32 2.356 . S
O41 C39 1.282 1_545 S
C42 O43 1.306 1_565 S
C42 O45 1.160 . S
O43 C42 1.306 1_545 S
O43 Cd44 2.228 . S
Cd44 O43 2.228 . S
Cd44 O48 2.273 1_545 S
Cd44 O52 2.277 1_545 S
O45 C42 1.160 . S
O45 Cd46 2.203 . S
Cd46 O45 2.203 . S
Cd46 O48 2.411 . S
Cd46 O49 2.333 . S
Cd46 O50 2.352 . S
Cd46 O54 2.277 . S
Cd46 O55 2.356 . S
C47 O52 1.209 . S
C47 O54 1.226 . S
O48 Cd44 2.273 1_565 S
O48 Cd46 2.411 . S
O48 C51 1.320 . S
O49 Cd46 2.333 . S
O49 C51 1.214 . S
O50 Cd46 2.352 . S
O50 C53 1.258 1_655 S
C51 O48 1.320 . S
C51 O49 1.214 . S
O52 Cd44 2.277 1_565 S
O52 C47 1.209 . S
C53 O50 1.258 1_455 S
C53 O55 1.282 1_455 S
O54 Cd46 2.277 . S
O54 C47 1.226 . S
O55 Cd46 2.356 . S
O55 C53 1.282 1_655 S
C56 O57 1.306 1_455 S
C56 O59 1.160 . S
O57 C56 1.306 1_655 S
O57 Cd58 2.228 . S
Cd58 O57 2.228 . S
Cd58 O62 2.273 1_655 S
Cd58 O66 2.277 1_655 S
O59 C56 1.160 . S
O59 Cd60 2.203 . S
Cd60 O59 2.203 . S
Cd60 O62 2.411 . S
Cd60 O63 2.333 . S
Cd60 O64 2.352 . S
Cd60 O68 2.277 . S
Cd60 O69 2.356 . S
C61 O66 1.209 . S
C61 O68 1.226 . S
O62 Cd58 2.273 1_455 S
O62 Cd60 2.411 . S
O62 C65 1.320 . S
O63 Cd60 2.333 . S
O63 C65 1.214 . S
O64 Cd60 2.352 . S
O64 C67 1.258 . S
C65 O62 1.320 . S
C65 O63 1.214 . S
O66 Cd58 2.277 1_455 S
O66 C61 1.209 . S
C67 O64 1.258 . S
C67 O69 1.282 . S
O68 Cd60 2.277 . S
O68 C61 1.226 . S
O69 Cd60 2.356 . S
O69 C67 1.282 . S
C70 O71 1.306 . S
C70 O73 1.160 . S
O71 C70 1.306 . S
O71 Cd72 2.228 . S
Cd72 O71 2.228 . S
Cd72 O76 2.273 . S
Cd72 O80 2.277 . S
O73 C70 1.160 . S
O73 Cd74 2.203 . S
Cd74 O73 2.203 . S
Cd74 O76 2.411 . S
Cd74 O77 2.333 . S
Cd74 O78 2.352 . S
Cd74 O82 2.277 . S
Cd74 O83 2.356 . S
C75 O80 1.209 . S
C75 O82 1.226 . S
O76 Cd72 2.273 . S
O76 Cd74 2.411 . S
O76 C79 1.320 . S
O77 Cd74 2.333 . S
O77 C79 1.214 . S
O78 Cd74 2.352 . S
O78 C81 1.258 . S
C79 O76 1.320 . S
C79 O77 1.214 . S
O80 Cd72 2.277 . S
O80 C75 1.209 . S
C81 O78 1.258 . S
C81 O83 1.282 . S
O82 Cd74 2.277 . S
O82 C75 1.226 . S
O83 Cd74 2.356 . S
O83 C81 1.282 . S
C84 O85 1.306 1_565 S
C84 O87 1.160 . S
O85 C84 1.306 1_545 S
O85 Cd86 2.228 . S
Cd86 O85 2.228 . S
Cd86 O90 2.273 1_545 S
Cd86 O94 2.277 1_545 S
O87 C84 1.160 . S
O87 Cd88 2.203 . S
Cd88 O87 2.203 . S
Cd88 O90 2.411 . S
Cd88 O91 2.333 . S
Cd88 O92 2.352 . S
Cd88 O96 2.277 . S
Cd88 O97 2.356 . S
C89 O94 1.209 . S
C89 O96 1.226 . S
O90 Cd86 2.273 1_565 S
O90 Cd88 2.411 . S
O90 C93 1.320 . S
O91 Cd88 2.333 . S
O91 C93 1.214 . S
O92 Cd88 2.352 . S
O92 C95 1.258 . S
C93 O90 1.320 . S
C93 O91 1.214 . S
O94 Cd86 2.277 1_565 S
O94 C89 1.209 . S
C95 O92 1.258 . S
C95 O97 1.282 . S
O96 Cd88 2.277 . S
O96 C89 1.226 . S
O97 Cd88 2.356 . S
O97 C95 1.282 . S
C98 O99 1.306 . S
C98 O101 1.160 . S
O99 C98 1.306 . S
O99 Cd100 2.228 . S
Cd100 O99 2.228 . S
Cd100 O104 2.273 . S
Cd100 O108 2.277 . S
O101 C98 1.160 . S
O101 Cd102 2.203 . S
Cd102 O101 2.203 . S
Cd102 O104 2.411 . S
Cd102 O105 2.333 . S
Cd102 O106 2.352 . S
Cd102 O110 2.277 . S
Cd102 O111 2.356 . S
C103 O108 1.209 . S
C103 O110 1.226 . S
O104 Cd100 2.273 . S
O104 Cd102 2.411 . S
O104 C107 1.320 . S
O105 Cd102 2.333 . S
O105 C107 1.214 . S
O106 Cd102 2.352 . S
O106 C109 1.258 . S
C107 O104 1.320 . S
C107 O105 1.214 . S
O108 Cd100 2.277 . S
O108 C103 1.209 . S
C109 O106 1.258 . S
C109 O111 1.282 . S
O110 Cd102 2.277 . S
O110 C103 1.226 . S
O111 Cd102 2.356 . S
O111 C109 1.282 . S
C75 C5 1.609 . S
C109 C14 1.555 . S
C37 C93 1.567 1_544 S
C53 C56 1.556 . S
C84 C11 1.556 . S
C23 C65 1.567 1_656 S
C81 C28 1.555 . S
C47 C103 1.609 . S
C67 C70 1.555 . S
C19 C33 1.609 1_556 S
C42 C39 1.556 . S
C51 C9 1.567 1_665 S
C25 C0 1.556 . S
C98 C95 1.555 . S
C61 C89 1.609 1_554 S
C79 C107 1.567 . S
