# Generated by pormake.
# Topology hcp, (12)-cn, num edge types: 1
# Building blocks:
#     Node 0, Type 0, BuildingBlock: UKIBUN_clean_sbu_0, # of connection points: 12
#     Node 1, Type 0, BuildingBlock: UKIBUN_clean_sbu_0, # of connection points: 12
#     Edge 2, Type (0, 0), BuildingBlock: OJICUG_clean_linker_0, # of connection points: 2
#     Edge 3, Type (0, 0), BuildingBlock: OJICUG_clean_linker_0, # of connection points: 2
#     Edge 4, Type (0, 0), BuildingBlock: OJICUG_clean_linker_0, # of connection points: 2
#     Edge 5, Type (0, 0), BuildingBlock: OJICUG_clean_linker_0, # of connection points: 2
#     Edge 6, Type (0, 0), BuildingBlock: OJICUG_clean_linker_0, # of connection points: 2
#     Edge 7, Type (0, 0), BuildingBlock: OJICUG_clean_linker_0, # of connection points: 2
#     Edge 8, Type (0, 0), BuildingBlock: OJICUG_clean_linker_0, # of connection points: 2
#     Edge 9, Type (0, 0), BuildingBlock: OJICUG_clean_linker_0, # of connection points: 2
#     Edge 10, Type (0, 0), BuildingBlock: OJICUG_clean_linker_0, # of connection points: 2
#     Edge 11, Type (0, 0), BuildingBlock: OJICUG_clean_linker_0, # of connection points: 2
#     Edge 12, Type (0, 0), BuildingBlock: OJICUG_clean_linker_0, # of connection points: 2
#     Edge 13, Type (0, 0), BuildingBlock: OJICUG_clean_linker_0, # of connection points: 2
# Relax obj value: 0.181
# Max RMSD: 0.266
# Mean RMSD: 0.266
data_MOF--net-hcp--node1-UKIBUN_clean_sbu_0--edge1-OJICUG_clean_linker_0
_symmetry_space_group_name_H-M    P1
_symmetry_Int_Tables_number       1
_symmetry_cell_setting            triclinic
loop_
_symmetry_equiv_pos_as_xyz
'x, y, z'
_cell_length_a     14.234317
_cell_length_b     14.231672
_cell_length_c     22.485357
_cell_angle_alpha  90.001331
_cell_angle_beta   89.997862
_cell_angle_gamma 119.99714
loop_
_atom_site_label
_atom_site_type_symbol
_atom_site_fract_x
_atom_site_fract_y
_atom_site_fract_z
_atom_type_partial_charge
C0 C 0.98019 0.60398 0.27549 0.0
C1 C 0.92857 0.26977 0.27524 0.0
O2 O 0.74789 0.46849 0.30264 0.0
O3 O 0.6502 0.32229 0.18254 0.0
O4 O 0.60273 0.41873 0.246 0.0
O5 O 0.79401 0.36979 0.24604 0.0
Hf6 Hf 0.75415 0.47737 0.21126 0.0
O7 O 0.65016 0.32239 0.36282 0.0
Hf8 Hf 0.80495 0.37338 0.33695 0.0
O9 O 0.50406 0.27395 0.30265 0.0
Hf10 Hf 0.59916 0.42618 0.33691 0.0
O11 O 0.69858 0.22461 0.30269 0.0
Hf12 Hf 0.49517 0.27123 0.21127 0.0
Hf13 Hf 0.70128 0.21833 0.21131 0.0
O14 O 0.55383 0.17848 0.24605 0.0
Hf15 Hf 0.54639 0.16756 0.33696 0.0
C16 C 0.4917 0.10041 0.12111 0.0
C17 C 0.79014 0.50985 0.43977 0.0
C18 C 0.36854 0.37072 0.27545 0.0
C19 C 0.70289 0.65339 0.27515 0.0
O20 O 0.73761 0.62416 0.22914 0.0
O21 O 0.86775 0.46732 0.14436 0.0
C22 C 0.87197 0.38555 0.12107 0.0
O23 O 0.55302 0.01591 0.31696 0.0
O24 O 0.34844 0.1079 0.22918 0.0
O25 O 0.50515 0.39483 0.14435 0.0
O26 O 0.4816 0.19772 0.42364 0.0
O27 O 0.7748 0.2786 0.4237 0.0
O28 O 0.95659 0.5316 0.31689 0.0
O29 O 0.86463 0.235 0.22923 0.0
O30 O 0.57765 0.10463 0.14443 0.0
C31 C 0.46274 0.27503 0.43977 0.0
O32 O 0.44094 0.41958 0.31683 0.0
O33 O 0.69398 0.49094 0.42362 0.0
C34 C 0.60183 -0.0077 0.27558 0.0
O35 O 0.61383 0.12177 0.40904 0.0
O36 O 0.68667 0.51364 0.13323 0.0
O37 O 0.91763 0.59898 0.23339 0.0
O38 O 0.37573 0.05948 0.3221 0.0
O39 O 0.65943 0.05486 0.23349 0.0
O40 O 0.48582 0.35874 0.40894 0.0
C41 C 0.31924 0.04395 0.27519 0.0
O42 O 0.66186 0.59689 0.32205 0.0
O43 O 0.8508 0.48681 0.40896 0.0
O44 O 0.80502 0.28576 0.13328 0.0
O45 O 0.37354 0.31309 0.23339 0.0
O46 O 0.45892 0.16744 0.13327 0.0
O47 O 0.91299 0.31071 0.32215 0.0
C48 C 0.6975 0.18245 0.43987 0.0
C49 C 0.58689 0.4808 0.12104 0.0
C50 C 0.50414 0.70298 0.93975 0.0
C51 C 0.26935 0.79556 0.93986 0.0
O52 O 0.46281 0.70406 0.80264 0.0
O53 O 0.21898 0.50952 0.80263 0.0
O54 O 0.36414 0.55929 0.74599 0.0
O55 O 0.3167 0.65562 0.86283 0.0
Hf56 Hf 0.36771 0.55184 0.8369 0.0
O57 O 0.41304 0.79953 0.74605 0.0
Hf58 Hf 0.42047 0.81045 0.83696 0.0
O59 O 0.31667 0.65572 0.68254 0.0
Hf60 Hf 0.4717 0.70678 0.71126 0.0
O61 O 0.26828 0.7534 0.80269 0.0
Hf62 Hf 0.21272 0.50064 0.71125 0.0
Hf63 Hf 0.16191 0.60462 0.83696 0.0
O64 O 0.17286 0.60822 0.74605 0.0
Hf65 Hf 0.26559 0.75968 0.71132 0.0
C66 C -0.01333 0.37404 0.77549 0.0
C67 C 0.64762 0.93407 0.77519 0.0
C68 C 0.37998 0.49721 0.62103 0.0
C69 C 0.59833 0.60729 0.77544 0.0
O70 O 0.52592 0.55842 0.81681 0.0
O71 O 0.2729 0.48711 0.92362 0.0
C72 C 0.17671 0.46813 0.93976 0.0
O73 O 0.10224 0.74301 0.72924 0.0
O74 O 0.09911 0.51069 0.64436 0.0
O75 O 0.22926 0.35386 0.72913 0.0
O76 O 0.38923 0.87338 0.64443 0.0
O77 O 0.41386 0.96211 0.81696 0.0
O78 O 0.48522 0.78026 0.92364 0.0
O79 O 0.19209 0.69939 0.92371 0.0
O80 O 0.01027 0.44642 0.81688 0.0
C81 C 0.47518 0.87759 0.62111 0.0
O82 O 0.46172 0.58318 0.64435 0.0
O83 O 0.61841 0.87013 0.72917 0.0
C84 C 0.0383 0.70824 0.77526 0.0
O85 O 0.30744 0.92316 0.7335 0.0
O86 O 0.30499 0.38112 0.82205 0.0
O87 O 0.4811 0.61929 0.90891 0.0
O88 O 0.16185 0.69225 0.63329 0.0
O89 O 0.05389 0.66731 0.82216 0.0
O90 O 0.50794 0.81056 0.63326 0.0
C91 C 0.09489 0.59246 0.62108 0.0
O92 O 0.59334 0.66494 0.73338 0.0
O93 O 0.59113 0.91852 0.8221 0.0
O94 O 0.11604 0.49114 0.90894 0.0
O95 O 0.2802 0.46439 0.63322 0.0
O96 O 0.04924 0.37904 0.73339 0.0
O97 O 0.35299 0.85627 0.90902 0.0
C98 C 0.36504 0.98572 0.77559 0.0
C99 C 0.26398 0.32462 0.77514 0.0
C100 C 0.26923 0.93026 1.00846 0.0
C101 C 0.28164 0.83924 1.00075 0.0
H102 H 0.32681 0.08436 0.05033 0.0
C103 C 0.35742 0.83051 0.03742 0.0
H104 H 0.21554 0.94253 0.97942 0.0
C105 C 0.42556 0.9142 0.07641 0.0
C106 C 0.41911 0.00917 0.08046 0.0
H107 H 0.37362 0.76494 0.03067 0.0
H108 H 0.48593 0.90606 0.10158 0.0
C109 C 0.33641 0.01362 0.04786 0.0
C110 C 0.31154 0.34199 0.54771 0.0
C111 C 0.39865 0.42466 0.58036 0.0
H112 H 0.26182 0.2212 0.47924 0.0
C113 C 0.50006 0.43112 0.57632 0.0
H114 H 0.23121 0.33239 0.55017 0.0
C115 C 0.51564 0.36301 0.53731 0.0
C116 C 0.43117 0.28724 0.50062 0.0
H117 H 0.56853 0.49146 0.60153 0.0
H118 H 0.59741 0.37925 0.53059 0.0
C119 C 0.32774 0.27483 0.50831 0.0
C120 C 0.05817 0.50556 0.07639 0.0
C121 C 0.96315 0.40419 0.08038 0.0
H122 H 0.2074 0.60286 0.03068 0.0
C123 C 0.9586 0.31705 0.04769 0.0
H124 H 0.06637 0.57404 0.10163 0.0
C125 C 0.04192 0.33322 1.00828 0.0
C126 C 0.133 0.43664 1.00063 0.0
H127 H 0.88782 0.23674 0.05013 0.0
H128 H 0.02957 0.2673 0.97917 0.0
C129 C 0.14182 0.52109 0.03738 0.0
C130 C 0.6305 0.96439 0.54787 0.0
C131 C 0.54777 0.96884 0.58046 0.0
H132 H 0.75139 0.03546 0.47946 0.0
C133 C 0.5413 0.0638 0.57638 0.0
H134 H 0.64013 0.89367 0.55037 0.0
C135 C 0.60946 0.14748 0.53739 0.0
C136 C 0.68527 0.13876 0.50075 0.0
H137 H 0.48091 0.07192 0.60154 0.0
H138 H 0.59323 0.21303 0.53064 0.0
C139 C 0.69771 0.04775 0.50849 0.0
C140 C 0.4668 0.5469 0.07634 0.0
C141 C 0.5682 0.55333 0.08035 0.0
H142 H 0.36944 0.59874 0.03063 0.0
C143 C 0.65529 0.63595 0.04767 0.0
H144 H 0.39835 0.48658 0.10157 0.0
C145 C 0.63907 0.70309 1.00826 0.0
C146 C 0.53565 0.6907 1.00061 0.0
H147 H 0.73562 0.64553 0.05011 0.0
H148 H 0.70497 0.7567 0.97917 0.0
C149 C 0.45122 0.61499 0.03734 0.0
C150 C 0.82508 0.45692 0.53735 0.0
C151 C 0.83387 0.54141 0.50064 0.0
H152 H 0.90053 0.40394 0.60157 0.0
C153 C 0.92491 0.64483 0.50832 0.0
H154 H 0.75949 0.37516 0.53062 0.0
C155 C 0.00823 0.66099 0.54774 0.0
C156 C 0.0037 0.57383 0.5804 0.0
H157 H 0.93724 0.71077 0.47925 0.0
H158 H 0.07898 0.74131 0.5502 0.0
C159 C 0.90872 0.47244 0.57636 0.0
C160 C 0.65301 0.87372 0.32932 0.0
C161 C 0.60881 0.8934 0.27858 0.0
H162 H 0.72556 0.78702 0.36656 0.0
C163 C 0.60445 0.83977 0.22505 0.0
H164 H 0.66154 0.91752 0.37027 0.0
C165 C 0.6444 0.76815 0.22215 0.0
C166 C 0.68929 0.7489 0.27283 0.0
H167 H 0.57343 0.85644 0.18483 0.0
H168 H 0.63662 0.72515 0.18103 0.0
C169 C 0.69323 0.80238 0.32642 0.0
C170 C 0.86532 0.65044 0.72209 0.0
C171 C 0.92915 0.69453 0.77294 0.0
H172 H 0.70635 0.5802 0.68449 0.0
C173 C 0.8793 0.69775 0.82657 0.0
H174 H 0.90076 0.64324 0.68091 0.0
C175 C 0.76776 0.65763 0.82933 0.0
C176 C 0.7042 0.61427 0.77841 0.0
H177 H 0.92672 0.72949 0.86684 0.0
H178 H 0.73229 0.66562 0.87033 0.0
C179 C 0.75377 0.61059 0.72485 0.0
C180 C 0.17056 0.88512 0.32649 0.0
C181 C 0.22377 0.93482 0.27287 0.0
H182 H 0.05557 0.7382 0.37031 0.0
C183 C 0.20415 0.87083 0.22209 0.0
H184 H 0.18615 0.93267 0.36671 0.0
C185 C 0.13245 0.75928 0.22491 0.0
C186 C 0.07908 0.70986 0.27847 0.0
H187 H 0.24692 0.90617 0.18093 0.0
H188 H 0.11553 0.71173 0.18461 0.0
C189 C 0.09914 0.77357 0.32932 0.0
C190 C 0.32249 0.20987 0.72215 0.0
C191 C 0.27758 0.22912 0.77283 0.0
H192 H 0.39347 0.12159 0.68483 0.0
C193 C 0.27364 0.17564 0.82641 0.0
H194 H 0.33027 0.25287 0.68103 0.0
C195 C 0.31385 0.1043 0.82932 0.0
C196 C 0.35807 0.08462 0.77859 0.0
H197 H 0.24128 0.19098 0.86655 0.0
H198 H 0.3053 0.0605 0.87027 0.0
C199 C 0.36245 0.13826 0.72506 0.0
C200 C 0.19906 0.3203 0.32933 0.0
C201 C 0.26266 0.36374 0.27843 0.0
H202 H 0.04007 0.24839 0.36681 0.0
C203 C 0.21313 0.36747 0.22486 0.0
H204 H 0.23451 0.31227 0.37033 0.0
C205 C 0.10158 0.32762 0.22209 0.0
C206 C 0.03771 0.28347 0.27293 0.0
H207 H 0.26058 0.39793 0.18453 0.0
H208 H 0.06617 0.33488 0.18092 0.0
C209 C 0.08752 0.28018 0.32655 0.0
C210 C 0.86774 0.20446 0.82931 0.0
C211 C 0.88777 0.26817 0.77846 0.0
H212 H 0.78074 0.04537 0.86671 0.0
C213 C 0.83438 0.21873 0.7249 0.0
H214 H 0.91131 0.23984 0.87029 0.0
C215 C 0.76268 0.10718 0.72209 0.0
C216 C 0.74309 0.0432 0.77288 0.0
H217 H 0.85129 0.26627 0.68461 0.0
H218 H 0.7199 0.07183 0.68094 0.0
C219 C 0.79632 0.09291 0.82649 0.0
loop_
_geom_bond_atom_site_label_1
_geom_bond_atom_site_label_2
_geom_bond_distance
_geom_bond_site_symmetry_2
_ccdc_geom_bond_type
C0 O28 1.281 1_455 S
C0 O37 1.281 1_455 S
C1 O29 1.281 . S
C1 O47 1.281 . S
O2 Hf6 2.202 . S
O2 Hf8 2.202 . S
O2 Hf10 2.202 . S
O3 Hf6 2.202 . S
O3 Hf12 2.202 . S
O3 Hf13 2.202 . S
O4 Hf6 2.072 . S
O4 Hf10 2.072 . S
O4 Hf12 2.072 . S
O5 Hf6 2.072 . S
O5 Hf8 2.072 . S
O5 Hf13 2.072 . S
Hf6 O2 2.202 . S
Hf6 O3 2.202 . S
Hf6 O4 2.072 . S
Hf6 O5 2.072 . S
Hf6 O20 2.209 . S
Hf6 O21 2.209 . S
Hf6 O36 2.209 . S
Hf6 O37 2.209 . S
O7 Hf8 2.072 . S
O7 Hf10 2.072 . S
O7 Hf15 2.072 . S
Hf8 O2 2.202 . S
Hf8 O5 2.072 . S
Hf8 O7 2.072 . S
Hf8 O11 2.202 . S
Hf8 O27 2.209 . S
Hf8 O28 2.209 . S
Hf8 O43 2.209 . S
Hf8 O47 2.209 . S
O9 Hf10 2.202 . S
O9 Hf12 2.202 . S
O9 Hf15 2.202 . S
Hf10 O2 2.202 . S
Hf10 O4 2.072 . S
Hf10 O7 2.072 . S
Hf10 O9 2.202 . S
Hf10 O32 2.209 . S
Hf10 O33 2.209 . S
Hf10 O40 2.209 . S
Hf10 O42 2.209 . S
O11 Hf8 2.202 . S
O11 Hf13 2.202 . S
O11 Hf15 2.202 . S
Hf12 O3 2.202 . S
Hf12 O4 2.072 . S
Hf12 O9 2.202 . S
Hf12 O14 2.072 . S
Hf12 O24 2.209 . S
Hf12 O25 2.209 . S
Hf12 O45 2.209 . S
Hf12 O46 2.209 . S
Hf13 O3 2.202 . S
Hf13 O5 2.072 . S
Hf13 O11 2.202 . S
Hf13 O14 2.072 . S
Hf13 O29 2.209 . S
Hf13 O30 2.209 . S
Hf13 O39 2.209 . S
Hf13 O44 2.209 . S
O14 Hf12 2.072 . S
O14 Hf13 2.072 . S
O14 Hf15 2.072 . S
Hf15 O7 2.072 . S
Hf15 O9 2.202 . S
Hf15 O11 2.202 . S
Hf15 O14 2.072 . S
Hf15 O23 2.209 . S
Hf15 O26 2.209 . S
Hf15 O35 2.209 . S
Hf15 O38 2.209 . S
C16 O30 1.281 . S
C16 O46 1.281 . S
C17 O33 1.281 . S
C17 O43 1.281 . S
C18 O32 1.281 . S
C18 O45 1.281 . S
C19 O20 1.281 . S
C19 O42 1.281 . S
O20 Hf6 2.209 . S
O20 C19 1.281 . S
O21 Hf6 2.209 . S
O21 C22 1.281 . S
C22 O21 1.281 . S
C22 O44 1.281 . S
O23 Hf15 2.209 . S
O23 C34 1.281 1_545 S
O24 Hf12 2.209 . S
O24 C41 1.281 . S
O25 Hf12 2.209 . S
O25 C49 1.281 . S
O26 Hf15 2.209 . S
O26 C31 1.281 . S
O27 Hf8 2.209 . S
O27 C48 1.281 . S
O28 C0 1.281 1_655 S
O28 Hf8 2.209 . S
O29 C1 1.281 . S
O29 Hf13 2.209 . S
O30 Hf13 2.209 . S
O30 C16 1.281 . S
C31 O26 1.281 . S
C31 O40 1.281 . S
O32 Hf10 2.209 . S
O32 C18 1.281 . S
O33 Hf10 2.209 . S
O33 C17 1.281 . S
C34 O23 1.281 1_565 S
C34 O39 1.281 1_565 S
O35 Hf15 2.209 . S
O35 C48 1.281 . S
O36 Hf6 2.209 . S
O36 C49 1.281 . S
O37 C0 1.281 1_655 S
O37 Hf6 2.209 . S
O38 Hf15 2.209 . S
O38 C41 1.281 . S
O39 Hf13 2.209 . S
O39 C34 1.281 1_545 S
O40 Hf10 2.209 . S
O40 C31 1.281 . S
C41 O24 1.281 . S
C41 O38 1.281 . S
O42 Hf10 2.209 . S
O42 C19 1.281 . S
O43 Hf8 2.209 . S
O43 C17 1.281 . S
O44 Hf13 2.209 . S
O44 C22 1.281 . S
O45 Hf12 2.209 . S
O45 C18 1.281 . S
O46 Hf12 2.209 . S
O46 C16 1.281 . S
O47 C1 1.281 . S
O47 Hf8 2.209 . S
C48 O27 1.281 . S
C48 O35 1.281 . S
C49 O25 1.281 . S
C49 O36 1.281 . S
C50 O78 1.281 . S
C50 O87 1.281 . S
C51 O79 1.281 . S
C51 O97 1.281 . S
O52 Hf56 2.202 . S
O52 Hf58 2.202 . S
O52 Hf60 2.202 . S
O53 Hf56 2.202 . S
O53 Hf62 2.202 . S
O53 Hf63 2.202 . S
O54 Hf56 2.072 . S
O54 Hf60 2.072 . S
O54 Hf62 2.072 . S
O55 Hf56 2.072 . S
O55 Hf58 2.072 . S
O55 Hf63 2.072 . S
Hf56 O52 2.202 . S
Hf56 O53 2.202 . S
Hf56 O54 2.072 . S
Hf56 O55 2.072 . S
Hf56 O70 2.209 . S
Hf56 O71 2.209 . S
Hf56 O86 2.209 . S
Hf56 O87 2.209 . S
O57 Hf58 2.072 . S
O57 Hf60 2.072 . S
O57 Hf65 2.072 . S
Hf58 O52 2.202 . S
Hf58 O55 2.072 . S
Hf58 O57 2.072 . S
Hf58 O61 2.202 . S
Hf58 O77 2.209 . S
Hf58 O78 2.209 . S
Hf58 O93 2.209 . S
Hf58 O97 2.209 . S
O59 Hf60 2.202 . S
O59 Hf62 2.202 . S
O59 Hf65 2.202 . S
Hf60 O52 2.202 . S
Hf60 O54 2.072 . S
Hf60 O57 2.072 . S
Hf60 O59 2.202 . S
Hf60 O82 2.209 . S
Hf60 O83 2.209 . S
Hf60 O90 2.209 . S
Hf60 O92 2.209 . S
O61 Hf58 2.202 . S
O61 Hf63 2.202 . S
O61 Hf65 2.202 . S
Hf62 O53 2.202 . S
Hf62 O54 2.072 . S
Hf62 O59 2.202 . S
Hf62 O64 2.072 . S
Hf62 O74 2.209 . S
Hf62 O75 2.209 . S
Hf62 O95 2.209 . S
Hf62 O96 2.209 . S
Hf63 O53 2.202 . S
Hf63 O55 2.072 . S
Hf63 O61 2.202 . S
Hf63 O64 2.072 . S
Hf63 O79 2.209 . S
Hf63 O80 2.209 . S
Hf63 O89 2.209 . S
Hf63 O94 2.209 . S
O64 Hf62 2.072 . S
O64 Hf63 2.072 . S
O64 Hf65 2.072 . S
Hf65 O57 2.072 . S
Hf65 O59 2.202 . S
Hf65 O61 2.202 . S
Hf65 O64 2.072 . S
Hf65 O73 2.209 . S
Hf65 O76 2.209 . S
Hf65 O85 2.209 . S
Hf65 O88 2.209 . S
C66 O80 1.281 1_655 S
C66 O96 1.281 1_655 S
C67 O83 1.281 . S
C67 O93 1.281 . S
C68 O82 1.281 . S
C68 O95 1.281 . S
C69 O70 1.281 . S
C69 O92 1.281 . S
O70 Hf56 2.209 . S
O70 C69 1.281 . S
O71 Hf56 2.209 . S
O71 C72 1.281 . S
C72 O71 1.281 . S
C72 O94 1.281 . S
O73 Hf65 2.209 . S
O73 C84 1.281 . S
O74 Hf62 2.209 . S
O74 C91 1.281 . S
O75 Hf62 2.209 . S
O75 C99 1.281 . S
O76 Hf65 2.209 . S
O76 C81 1.281 . S
O77 Hf58 2.209 . S
O77 C98 1.281 1_565 S
O78 C50 1.281 . S
O78 Hf58 2.209 . S
O79 C51 1.281 . S
O79 Hf63 2.209 . S
O80 Hf63 2.209 . S
O80 C66 1.281 1_455 S
C81 O76 1.281 . S
C81 O90 1.281 . S
O82 Hf60 2.209 . S
O82 C68 1.281 . S
O83 Hf60 2.209 . S
O83 C67 1.281 . S
C84 O73 1.281 . S
C84 O89 1.281 . S
O85 Hf65 2.209 . S
O85 C98 1.281 1_565 S
O86 Hf56 2.209 . S
O86 C99 1.281 . S
O87 C50 1.281 . S
O87 Hf56 2.209 . S
O88 Hf65 2.209 . S
O88 C91 1.281 . S
O89 Hf63 2.209 . S
O89 C84 1.281 . S
O90 Hf60 2.209 . S
O90 C81 1.281 . S
C91 O74 1.281 . S
C91 O88 1.281 . S
O92 Hf60 2.209 . S
O92 C69 1.281 . S
O93 Hf58 2.209 . S
O93 C67 1.281 . S
O94 Hf63 2.209 . S
O94 C72 1.281 . S
O95 Hf62 2.209 . S
O95 C68 1.281 . S
O96 Hf62 2.209 . S
O96 C66 1.281 1_455 S
O97 C51 1.281 . S
O97 Hf58 2.209 . S
C98 O77 1.281 1_545 S
C98 O85 1.281 1_545 S
C99 O75 1.281 . S
C99 O86 1.281 . S
C100 C101 1.387 1_554 S
C100 H104 0.950 . S
C100 C109 1.390 . S
C101 C100 1.387 1_556 S
C101 C103 1.387 . S
H102 C109 0.950 . S
C103 C101 1.387 . S
C103 C105 1.390 . S
C103 H107 0.950 . S
H104 C100 0.950 . S
C105 C103 1.390 . S
C105 C106 1.387 1_566 S
C105 H108 0.950 1_565 S
C106 C105 1.387 1_544 S
C106 C109 1.387 1_545 S
H107 C103 0.950 . S
H108 C105 0.950 1_545 S
C109 C100 1.390 . S
C109 H102 0.950 . S
C109 C106 1.387 1_565 S
C110 C111 1.387 . S
C110 H114 0.950 . S
C110 C119 1.390 . S
C111 C110 1.387 . S
C111 C113 1.387 . S
H112 C119 0.950 . S
C113 C111 1.387 . S
C113 C115 1.390 . S
C113 H117 0.950 . S
H114 C110 0.950 . S
C115 C113 1.390 . S
C115 C116 1.387 . S
C115 H118 0.950 . S
C116 C115 1.387 . S
C116 C119 1.387 . S
H117 C113 0.950 . S
H118 C115 0.950 . S
C119 C110 1.390 . S
C119 H112 0.950 . S
C119 C116 1.387 . S
C120 C121 1.387 1_455 S
C120 H124 0.950 . S
C120 C129 1.390 1_554 S
C121 C120 1.387 1_655 S
C121 C123 1.387 . S
H122 C129 0.950 . S
C123 C121 1.387 . S
C123 C125 1.390 1_654 S
C123 H127 0.950 . S
H124 C120 0.950 . S
C125 C123 1.390 1_456 S
C125 C126 1.387 . S
C125 H128 0.950 . S
C126 C125 1.387 . S
C126 C129 1.387 . S
H127 C123 0.950 . S
H128 C125 0.950 . S
C129 C120 1.390 1_556 S
C129 H122 0.950 . S
C129 C126 1.387 . S
C130 C131 1.387 . S
C130 H134 0.950 . S
C130 C139 1.390 1_565 S
C131 C130 1.387 . S
C131 C133 1.387 1_565 S
H132 C139 0.950 . S
C133 C131 1.387 1_545 S
C133 C135 1.390 . S
C133 H137 0.950 . S
H134 C130 0.950 . S
C135 C133 1.390 . S
C135 C136 1.387 . S
C135 H138 0.950 . S
C136 C135 1.387 . S
C136 C139 1.387 . S
H137 C133 0.950 . S
H138 C135 0.950 . S
C139 C130 1.390 1_545 S
C139 H132 0.950 . S
C139 C136 1.387 . S
C140 C141 1.387 1_556 S
C140 H144 0.950 . S
C140 C149 1.390 . S
C141 C140 1.387 1_554 S
C141 C143 1.387 . S
H142 C149 0.950 . S
C143 C141 1.387 . S
C143 C145 1.390 . S
C143 H147 0.950 . S
H144 C140 0.950 . S
C145 C143 1.390 . S
C145 C146 1.387 1_554 S
C145 H148 0.950 . S
C146 C145 1.387 1_556 S
C146 C149 1.387 . S
H147 C143 0.950 . S
H148 C145 0.950 . S
C149 C140 1.390 . S
C149 H142 0.950 . S
C149 C146 1.387 . S
C150 C151 1.387 . S
C150 H154 0.950 . S
C150 C159 1.390 . S
C151 C150 1.387 . S
C151 C153 1.387 . S
H152 C159 0.950 . S
C153 C151 1.387 . S
C153 C155 1.390 1_655 S
C153 H157 0.950 . S
H154 C150 0.950 . S
C155 C153 1.390 1_455 S
C155 C156 1.387 . S
C155 H158 0.950 . S
C156 C155 1.387 . S
C156 C159 1.387 1_455 S
H157 C153 0.950 . S
H158 C155 0.950 . S
C159 C150 1.390 . S
C159 H152 0.950 . S
C159 C156 1.387 1_655 S
C160 C161 1.387 . S
C160 H164 0.950 . S
C160 C169 1.390 . S
C161 C160 1.387 . S
C161 C163 1.387 . S
H162 C169 0.950 . S
C163 C161 1.387 . S
C163 C165 1.390 . S
C163 H167 0.950 . S
H164 C160 0.950 . S
C165 C163 1.390 . S
C165 C166 1.387 . S
C165 H168 0.950 . S
C166 C165 1.387 . S
C166 C169 1.387 . S
H167 C163 0.950 . S
H168 C165 0.950 . S
C169 C160 1.390 . S
C169 H162 0.950 . S
C169 C166 1.387 . S
C170 C171 1.387 . S
C170 H174 0.950 . S
C170 C179 1.390 . S
C171 C170 1.387 . S
C171 C173 1.387 . S
H172 C179 0.950 . S
C173 C171 1.387 . S
C173 C175 1.390 . S
C173 H177 0.950 . S
H174 C170 0.950 . S
C175 C173 1.390 . S
C175 C176 1.387 . S
C175 H178 0.950 . S
C176 C175 1.387 . S
C176 C179 1.387 . S
H177 C173 0.950 . S
H178 C175 0.950 . S
C179 C170 1.390 . S
C179 H172 0.950 . S
C179 C176 1.387 . S
C180 C181 1.387 . S
C180 H184 0.950 . S
C180 C189 1.390 . S
C181 C180 1.387 . S
C181 C183 1.387 . S
H182 C189 0.950 . S
C183 C181 1.387 . S
C183 C185 1.390 . S
C183 H187 0.950 . S
H184 C180 0.950 . S
C185 C183 1.390 . S
C185 C186 1.387 . S
C185 H188 0.950 . S
C186 C185 1.387 . S
C186 C189 1.387 . S
H187 C183 0.950 . S
H188 C185 0.950 . S
C189 C180 1.390 . S
C189 H182 0.950 . S
C189 C186 1.387 . S
C190 C191 1.387 . S
C190 H194 0.950 . S
C190 C199 1.390 . S
C191 C190 1.387 . S
C191 C193 1.387 . S
H192 C199 0.950 . S
C193 C191 1.387 . S
C193 C195 1.390 . S
C193 H197 0.950 . S
H194 C190 0.950 . S
C195 C193 1.390 . S
C195 C196 1.387 . S
C195 H198 0.950 . S
C196 C195 1.387 . S
C196 C199 1.387 . S
H197 C193 0.950 . S
H198 C195 0.950 . S
C199 C190 1.390 . S
C199 H192 0.950 . S
C199 C196 1.387 . S
C200 C201 1.387 . S
C200 H204 0.950 . S
C200 C209 1.390 . S
C201 C200 1.387 . S
C201 C203 1.387 . S
H202 C209 0.950 . S
C203 C201 1.387 . S
C203 C205 1.390 . S
C203 H207 0.950 . S
H204 C200 0.950 . S
C205 C203 1.390 . S
C205 C206 1.387 . S
C205 H208 0.950 . S
C206 C205 1.387 . S
C206 C209 1.387 . S
H207 C203 0.950 . S
H208 C205 0.950 . S
C209 C200 1.390 . S
C209 H202 0.950 . S
C209 C206 1.387 . S
C210 C211 1.387 . S
C210 H214 0.950 . S
C210 C219 1.390 . S
C211 C210 1.387 . S
C211 C213 1.387 . S
H212 C219 0.950 . S
C213 C211 1.387 . S
C213 C215 1.390 . S
C213 H217 0.950 . S
H214 C210 0.950 . S
C215 C213 1.390 . S
C215 C216 1.387 . S
C215 H218 0.950 . S
C216 C215 1.387 . S
C216 C219 1.387 . S
H217 C213 0.950 . S
H218 C215 0.950 . S
C219 C210 1.390 . S
C219 H212 0.950 . S
C219 C216 1.387 . S
C101 C51 1.762 . S
C106 C16 1.922 . S
C111 C68 1.922 . S
C116 C31 1.761 . S
C121 C22 1.922 . S
C126 C72 1.763 . S
C131 C81 1.922 . S
C136 C48 1.761 . S
C141 C49 1.922 . S
C146 C50 1.762 . S
C151 C17 1.763 . S
C156 C91 1.922 . S
C161 C34 1.253 . S
C166 C19 1.267 . S
C171 C84 1.269 1_655 S
C176 C69 1.256 . S
C181 C41 1.267 1_565 S
C186 C0 1.253 . S
C191 C99 1.269 . S
C196 C98 1.256 . S
C201 C18 1.253 . S
C206 C1 1.267 1_455 S
C211 C66 1.253 . S
C216 C67 1.267 1_545 S
