# Generated by pormake.
# Topology yfh, (5)-cn, num edge types: 1
# Building blocks:
#     Node 0, Type 0, BuildingBlock: XOMCOT_clean_sbu_1, # of connection points: 5
#     Node 1, Type 0, BuildingBlock: XOMCOT_clean_sbu_1, # of connection points: 5
#     Node 2, Type 0, BuildingBlock: XOMCOT_clean_sbu_1, # of connection points: 5
#     Node 3, Type 0, BuildingBlock: XOMCOT_clean_sbu_1, # of connection points: 5
#     Node 4, Type 0, BuildingBlock: XOMCOT_clean_sbu_1, # of connection points: 5
#     Node 5, Type 0, BuildingBlock: XOMCOT_clean_sbu_1, # of connection points: 5
#     Node 6, Type 0, BuildingBlock: XOMCOT_clean_sbu_1, # of connection points: 5
#     Node 7, Type 0, BuildingBlock: XOMCOT_clean_sbu_1, # of connection points: 5
#     Edge 8, Type (0, 0), None
#     Edge 9, Type (0, 0), None
#     Edge 10, Type (0, 0), None
#     Edge 11, Type (0, 0), None
#     Edge 12, Type (0, 0), None
#     Edge 13, Type (0, 0), None
#     Edge 14, Type (0, 0), None
#     Edge 15, Type (0, 0), None
#     Edge 16, Type (0, 0), None
#     Edge 17, Type (0, 0), None
#     Edge 18, Type (0, 0), None
#     Edge 19, Type (0, 0), None
#     Edge 20, Type (0, 0), None
#     Edge 21, Type (0, 0), None
#     Edge 22, Type (0, 0), None
#     Edge 23, Type (0, 0), None
#     Edge 24, Type (0, 0), None
#     Edge 25, Type (0, 0), None
#     Edge 26, Type (0, 0), None
#     Edge 27, Type (0, 0), None
# Relax obj value: 0.491
# Max RMSD: 0.284
# Mean RMSD: 0.284
data_MOF--net-yfh--node1-XOMCOT_clean_sbu_1--edge1-none
_symmetry_space_group_name_H-M    P1
_symmetry_Int_Tables_number       1
_symmetry_cell_setting            triclinic
loop_
_symmetry_equiv_pos_as_xyz
'x, y, z'
_cell_length_a     12.002436
_cell_length_b     12.003737
_cell_length_c     34.434735
_cell_angle_alpha  89.998096
_cell_angle_beta   90.003711
_cell_angle_gamma 89.991146
loop_
_atom_site_label
_atom_site_type_symbol
_atom_site_fract_x
_atom_site_fract_y
_atom_site_fract_z
_atom_type_partial_charge
C0 C 0.2275 0.89272 -0.02681 0.0
C1 C 0.1381 0.92911 0.95138 0.0
N2 N 0.09347 1.01748 -0.03044 0.0
N3 N 0.24074 0.96019 0.00425 0.0
C4 C 0.15671 1.03523 0.00135 0.0
H5 H 0.28512 0.82741 -0.03487 0.0
Co6 Co 0.3707 0.96532 0.03455 0.0
C7 C 0.37827 0.19383 0.06799 0.0
O8 O 0.48033 0.20613 0.05492 0.0
N9 N 0.49902 0.97202 0.06584 0.0
C10 C 0.66377 0.97258 0.0956 0.0
C11 C 0.61026 0.96623 0.06006 0.0
C12 C 0.48794 0.9828 0.10468 0.0
N13 N 0.58562 0.98234 0.12348 0.0
O14 O 0.29993 0.87335 0.07356 0.0
H15 H 0.65056 0.95596 0.03226 0.0
H16 H 0.40836 0.99035 0.11921 0.0
O17 O 0.32265 0.10479 0.0604 0.0
C18 C 0.34372 0.77659 0.07751 0.0
O19 O 0.4291 0.74885 0.0557 0.0
N20 N 0.43992 1.03897 -0.00641 0.0
C21 C 0.47662 1.07747 0.91491 0.0
C22 C 0.42001 0.15616 0.9378 0.0
C23 C 0.40087 0.13461 -0.023 0.0
C24 C 0.50054 0.96481 -0.02776 0.0
C25 C 0.52009 0.98248 0.93279 0.0
H26 H 0.34413 0.18854 -0.00763 0.0
H27 H 0.52319 0.88544 -0.01516 0.0
H28 H 0.14832 0.10785 0.01972 0.0
H29 H 0.11208 0.8977 0.92334 0.0
H30 H 0.75253 0.96566 0.10063 0.0
H31 H 0.3822 0.22913 0.92486 0.0
H32 H 0.56356 0.9198 0.91601 0.0
C33 C 0.78406 0.7274 0.2232 0.0
C34 C 0.74768 0.63802 0.20138 0.0
N35 N 0.65929 0.59343 0.21955 0.0
N36 N 0.71656 0.74065 0.25425 0.0
C37 C 0.64151 0.65665 0.25134 0.0
H38 H 0.84938 0.785 0.21514 0.0
Co39 Co 0.7114 0.8706 0.28455 0.0
C40 C 0.48286 0.87817 0.31798 0.0
O41 O 0.47053 0.98022 0.30491 0.0
N42 N 0.70466 0.9989 0.31584 0.0
C43 C 0.70403 0.16363 0.3456 0.0
C44 C 0.71041 0.11013 0.31006 0.0
C45 C 0.69387 0.98782 0.35468 0.0
N46 N 0.69428 1.08548 0.37348 0.0
O47 O 0.80337 0.79981 0.32357 0.0
H48 H 0.72068 0.15043 0.28226 0.0
H49 H 0.68633 0.90824 0.36921 0.0
O50 O 0.57192 0.82256 0.31039 0.0
C51 C 0.90012 0.8436 0.32752 0.0
O52 O 0.92785 0.92896 0.30571 0.0
N53 N 0.63776 0.93983 0.24359 0.0
C54 C 0.5993 0.97666 0.16491 0.0
C55 C 0.52059 0.92003 0.18778 0.0
C56 C 0.54213 0.90083 0.22698 0.0
C57 C 0.71195 1.00043 0.22226 0.0
C58 C 0.6943 1.02006 0.1828 0.0
H59 H 0.48819 0.8441 0.24234 0.0
H60 H 0.79132 1.02304 0.23486 0.0
H61 H 0.56888 0.64828 0.26971 0.0
H62 H 0.77911 0.61201 0.17335 0.0
H63 H 0.71091 0.25238 0.35062 0.0
H64 H 0.44761 0.88228 0.17483 0.0
H65 H 0.75698 1.06355 0.16604 0.0
C66 C 0.94917 0.28386 0.4732 0.0
C67 C 1.03857 0.24749 0.45138 0.0
N68 N 1.0832 0.15912 0.46956 0.0
N69 N 0.93594 0.21638 0.50426 0.0
C70 C 1.01997 0.14134 0.50135 0.0
H71 H 0.89154 0.34918 0.46514 0.0
Co72 Co 0.80598 0.21123 0.53455 0.0
C73 C 0.79842 0.98269 0.56797 0.0
O74 O 0.69636 0.97041 0.55489 0.0
N75 N 0.67766 0.2045 0.56584 0.0
C76 C 0.51292 0.20394 0.5956 0.0
C77 C 0.56642 0.21029 0.56006 0.0
C78 C 0.68875 0.19371 0.60468 0.0
N79 N 0.59107 0.19417 0.62348 0.0
O80 O 0.87676 0.30316 0.57357 0.0
H81 H 0.52612 0.22058 0.53226 0.0
H82 H 0.76833 0.18615 0.61922 0.0
O83 O 0.85404 1.07174 0.56039 0.0
C84 C 0.83297 0.39991 0.57751 0.0
O85 O 0.7476 0.42766 0.55569 0.0
N86 N 0.73676 0.13762 0.49358 0.0
C87 C 0.69994 0.09916 0.41491 0.0
C88 C 0.7566 1.02046 0.43778 0.0
C89 C 0.77579 1.04199 0.47698 0.0
C90 C 0.67612 0.21179 0.47225 0.0
C91 C 0.6565 0.19415 0.4328 0.0
H92 H 0.83255 0.98806 0.49234 0.0
H93 H 0.65348 0.29116 0.48485 0.0
H94 H 1.02836 1.06872 0.51972 0.0
H95 H 1.06458 0.27892 0.42335 0.0
H96 H 0.42416 0.21086 0.60062 0.0
H97 H 0.79438 0.94749 0.42483 0.0
H98 H 0.61299 0.25682 0.41603 0.0
C99 C 0.39259 0.44916 0.72316 0.0
C100 C 0.42897 0.53853 0.70133 0.0
N101 N 0.51736 0.58313 0.71951 0.0
N102 N 0.46007 0.43593 0.75422 0.0
C103 C 0.53512 0.51992 0.75131 0.0
H104 H 0.32726 0.39156 0.7151 0.0
Co105 Co 0.4652 0.30599 0.78453 0.0
C106 C 0.69372 0.29842 0.81799 0.0
O107 O 0.70605 0.19637 0.80492 0.0
N108 N 0.47192 0.1777 0.81583 0.0
C109 C 0.47262 1.01298 0.8456 0.0
C110 C 0.4663 1.06646 0.81005 0.0
C111 C 0.48258 0.1888 0.85467 0.0
N112 N 0.48212 0.09114 0.87348 0.0
O113 O 0.37321 0.37681 0.82353 0.0
H114 H 0.45622 1.02615 0.78225 0.0
H115 H 0.49009 0.26838 0.8692 0.0
O116 O 0.60467 0.35404 0.81039 0.0
C117 C 0.27646 0.33302 0.82749 0.0
O118 O 0.24872 0.24764 0.80569 0.0
N119 N 0.53887 0.23674 0.74358 0.0
C120 C 0.57737 0.19986 0.66491 0.0
C121 C 0.65607 0.2565 0.68778 0.0
C122 C 0.63452 0.27573 0.72698 0.0
C123 C 0.4647 0.17612 0.72224 0.0
C124 C 0.48237 0.15647 0.68279 0.0
H125 H 0.68845 0.33246 0.74234 0.0
H126 H 0.38532 0.15351 0.73484 0.0
H127 H 0.60775 0.52829 0.76968 0.0
H128 H 0.39755 0.56453 0.6733 0.0
H129 H 0.46588 0.92421 0.85062 0.0
H130 H 0.72906 0.29424 0.67484 0.0
H131 H 0.4197 0.11297 0.66603 0.0
C132 C 0.72729 0.78418 0.6994 0.0
C133 C 0.63799 0.74785 0.72127 0.0
N134 N 0.59371 0.65909 0.70323 0.0
N135 N 0.74068 0.71638 0.66843 0.0
C136 C 0.65685 0.64118 0.67143 0.0
H137 H 0.78472 0.84976 0.70735 0.0
Co138 Co 0.87064 0.71121 0.63813 0.0
C139 C 0.87822 0.48268 0.60471 0.0
O140 O 0.98029 0.47037 0.61778 0.0
N141 N 0.99896 0.70446 0.60686 0.0
C142 C 0.16373 0.7039 0.57711 0.0
C143 C 0.1102 0.71027 0.61264 0.0
C144 C 0.98791 0.69365 0.56802 0.0
N145 N 1.0856 0.6941 0.54922 0.0
O146 O 0.79986 0.80316 0.59911 0.0
H147 H 0.15047 0.72059 0.64045 0.0
H148 H 0.90834 0.68608 0.55348 0.0
O149 O 0.82259 0.57173 0.61229 0.0
C150 C 0.84365 0.8999 0.59517 0.0
O151 O 0.92901 0.92762 0.617 0.0
N152 N 0.93986 0.6376 0.6791 0.0
C153 C 0.97654 0.59919 0.75779 0.0
C154 C 0.92003 0.52044 0.7349 0.0
C155 C 0.90091 0.54194 0.6957 0.0
C156 C 1.00038 0.71182 0.70045 0.0
C157 C 1.01992 0.6942 0.73991 0.0
H158 H 0.84425 0.48796 0.68032 0.0
H159 H 1.02297 0.7912 0.68785 0.0
H160 H 0.64854 0.56842 0.65313 0.0
H161 H 0.61179 0.77962 0.74923 0.0
H162 H 0.25249 0.71084 0.5721 0.0
H163 H 0.88229 0.44745 0.74784 0.0
H164 H 1.06332 0.75692 0.75669 0.0
C165 C 0.89236 0.22742 0.94945 0.0
C166 C 0.92872 0.13813 -0.02867 0.0
N167 N 1.01748 0.09383 0.95328 0.0
N168 N 0.96012 0.24078 0.91847 0.0
C169 C 1.03534 0.15695 0.92147 0.0
H170 H 0.82677 0.28485 0.95741 0.0
Co171 Co 0.96521 0.3707 0.88817 0.0
C172 C 0.19371 0.37827 0.8547 0.0
O173 O 0.206 0.48034 0.86775 0.0
N174 N 0.97188 0.49898 0.85687 0.0
C175 C 0.97245 0.66371 0.8271 0.0
C176 C 0.96616 0.61022 0.86264 0.0
C177 C 0.98257 0.48788 0.81803 0.0
N178 N 0.98203 0.58554 0.79922 0.0
O179 O 0.87323 0.29988 0.84916 0.0
H180 H 0.95602 0.65052 0.89045 0.0
H181 H 0.99013 0.40831 0.8035 0.0
O182 O 0.10469 0.32265 0.86231 0.0
C183 C 0.77646 0.34366 0.8452 0.0
O184 O 0.7487 0.42904 0.86701 0.0
N185 N 1.03886 0.43995 0.92912 0.0
C186 C 1.0774 0.47671 0.00779 0.0
C187 C 0.15613 0.42017 -0.0151 0.0
C188 C 0.13457 0.40101 0.9457 0.0
C189 C 0.96466 0.5005 0.95047 0.0
C190 C 0.98234 0.52008 -0.01008 0.0
H191 H 0.18855 0.34434 0.93033 0.0
H192 H 0.88525 0.52309 0.93788 0.0
H193 H 0.10809 0.14861 0.90317 0.0
H194 H 0.89699 0.11195 -0.0007 0.0
H195 H 0.96564 0.75247 0.82208 0.0
H196 H 0.22916 0.38245 -0.00217 0.0
H197 H 0.91963 0.5635 0.0067 0.0
C198 C 0.44936 0.39238 0.19943 0.0
C199 C 0.53866 0.42871 0.22131 0.0
N200 N 0.58294 0.51746 0.20327 0.0
N201 N 0.43597 0.46017 0.16846 0.0
C202 C 0.51981 0.53537 0.17146 0.0
H203 H 0.39193 0.3268 0.20738 0.0
Co204 Co 0.30602 0.46532 0.13816 0.0
C205 C 0.29845 0.69383 0.10471 0.0
O206 O 0.19638 0.70614 0.11776 0.0
N207 N 0.17771 0.47205 0.10687 0.0
C208 C 1.01295 0.47267 0.07711 0.0
C209 C 1.06647 0.46637 0.11265 0.0
C210 C 0.18878 0.48273 0.06802 0.0
N211 N 0.0911 0.48222 0.04922 0.0
O212 O 0.37682 0.37334 0.09915 0.0
H213 H 1.02618 0.45623 0.14046 0.0
H214 H 0.26836 0.49027 0.05349 0.0
O215 O 0.35408 0.60478 0.1123 0.0
C216 C 0.33303 0.2766 0.0952 0.0
O217 O 0.24766 0.24887 0.11701 0.0
N218 N 0.23678 0.53896 0.17911 0.0
C219 C 0.20007 0.57741 0.25779 0.0
C220 C 0.25659 0.65615 0.2349 0.0
C221 C 0.27573 0.63463 0.1957 0.0
C222 C 0.17625 0.46475 0.20046 0.0
C223 C 0.15669 0.48239 0.23992 0.0
H224 H 0.33239 0.68861 0.18033 0.0
H225 H 0.15366 0.38537 0.18786 0.0
H226 H 0.52812 0.60813 0.15316 0.0
H227 H 0.56485 0.39694 0.24928 0.0
H228 H 0.92417 0.46588 0.0721 0.0
H229 H 0.29431 0.72915 0.24784 0.0
H230 H 0.11328 0.41968 0.25669 0.0
C231 C 0.28431 0.94918 0.44946 0.0
C232 C 0.24796 1.03847 0.47133 0.0
N233 N 0.1592 1.08278 0.45329 0.0
N234 N 0.21654 0.93583 0.41848 0.0
C235 C 0.14132 1.01967 0.42148 0.0
H236 H 0.3499 0.89174 0.45741 0.0
Co237 Co 0.21142 0.80591 0.38817 0.0
C238 C 0.98289 0.79835 0.35472 0.0
O239 O 0.97062 0.69628 0.36778 0.0
N240 N 0.20473 0.67763 0.35687 0.0
C241 C 0.20416 0.51291 0.32711 0.0
C242 C 0.21045 0.5664 0.36265 0.0
C243 C 0.19402 0.68873 0.31803 0.0
N244 N 0.19456 0.59107 0.29923 0.0
O245 O 0.30336 0.87673 0.34916 0.0
H246 H 0.22062 0.52609 0.39046 0.0
H247 H 0.18645 0.76831 0.3035 0.0
O248 O 1.07193 0.85397 0.36232 0.0
C249 C 0.40013 0.83294 0.3452 0.0
O250 O 0.4279 0.74758 0.36701 0.0
N251 N 0.13781 0.73666 0.42913 0.0
C252 C 0.09931 0.69978 0.50779 0.0
C253 C 1.02057 0.75637 0.48491 0.0
C254 C 1.04212 0.77559 0.44572 0.0
C255 C 0.21203 0.67609 0.45047 0.0
C256 C 0.19436 0.65645 0.48992 0.0
H257 H 0.98813 0.83229 0.43035 0.0
H258 H 0.29142 0.65351 0.43787 0.0
H259 H 1.06856 1.028 0.40317 0.0
H260 H 0.2797 1.06464 0.4993 0.0
H261 H 0.21098 0.42415 0.32209 0.0
H262 H 0.94754 0.79407 0.49785 0.0
H263 H 0.25707 0.61299 0.50669 0.0
loop_
_geom_bond_atom_site_label_1
_geom_bond_atom_site_label_2
_geom_bond_distance
_geom_bond_site_symmetry_2
_ccdc_geom_bond_type
C0 C1 1.330 1_554 S
C0 N3 1.368 . S
C0 H5 0.931 . S
C1 C0 1.330 1_556 S
C1 N2 1.370 1_556 S
C1 H29 0.950 . S
N2 C1 1.370 1_554 S
N2 C4 1.340 . S
N3 C0 1.368 . S
N3 C4 1.321 . S
N3 Co6 2.135 . S
C4 N2 1.340 . S
C4 N3 1.321 . S
C4 H28 0.930 . S
H5 C0 0.931 . S
Co6 N3 2.135 . S
Co6 N9 2.121 . S
Co6 O14 2.055 . S
Co6 O17 2.039 . S
Co6 N20 2.140 . S
C7 O8 1.227 . S
C7 O17 1.265 . S
O8 C7 1.227 . S
N9 Co6 2.121 . S
N9 C11 1.375 . S
N9 C12 1.313 . S
C10 C11 1.338 . S
C10 N13 1.377 . S
C10 H30 0.930 . S
C11 N9 1.375 . S
C11 C10 1.338 . S
C11 H15 0.931 . S
C12 N9 1.313 . S
C12 N13 1.344 . S
C12 H16 0.930 . S
N13 C10 1.377 . S
N13 C12 1.344 . S
O14 Co6 2.055 . S
O14 C18 1.253 1_545 S
H15 C11 0.931 . S
H16 C12 0.930 . S
O17 Co6 2.039 . S
O17 C7 1.265 . S
C18 O14 1.253 1_565 S
C18 O19 1.227 . S
O19 C18 1.227 . S
N20 Co6 2.140 . S
N20 C23 1.346 . S
N20 C24 1.345 . S
C21 C22 1.387 . S
C21 C25 1.391 . S
C22 C21 1.387 . S
C22 C23 1.369 . S
C22 H31 0.929 . S
C23 N20 1.346 . S
C23 C22 1.369 . S
C23 H26 0.928 . S
C24 N20 1.345 . S
C24 C25 1.371 . S
C24 H27 0.931 . S
C25 C21 1.391 . S
C25 C24 1.371 . S
C25 H32 0.930 . S
H26 C23 0.928 . S
H27 C24 0.931 . S
H28 C4 0.930 . S
H29 C1 0.950 . S
H30 C10 0.930 . S
H31 C22 0.929 . S
H32 C25 0.930 . S
C33 C34 1.351 . S
C33 N36 1.368 . S
C33 H38 0.931 . S
C34 C33 1.351 . S
C34 N35 1.373 . S
C34 H62 0.930 . S
N35 C34 1.373 . S
N35 C37 1.340 . S
N36 C33 1.368 . S
N36 C37 1.321 . S
N36 Co39 2.135 . S
C37 N35 1.340 . S
C37 N36 1.321 . S
C37 H61 0.930 . S
H38 C33 0.931 . S
Co39 N36 2.135 . S
Co39 N42 2.121 . S
Co39 O47 2.055 . S
Co39 O50 2.039 . S
Co39 N53 2.140 . S
C40 O41 1.227 . S
C40 O50 1.265 . S
O41 C40 1.227 . S
N42 Co39 2.121 . S
N42 C44 1.375 . S
N42 C45 1.313 . S
C43 C44 1.338 1_545 S
C43 N46 1.377 1_545 S
C43 H63 0.930 . S
C44 N42 1.375 . S
C44 C43 1.338 1_565 S
C44 H48 0.931 . S
C45 N42 1.313 . S
C45 N46 1.344 . S
C45 H49 0.930 . S
N46 C43 1.377 1_565 S
N46 C45 1.344 . S
O47 Co39 2.055 . S
O47 C51 1.253 . S
H48 C44 0.931 . S
H49 C45 0.930 . S
O50 Co39 2.039 . S
O50 C40 1.265 . S
C51 O47 1.253 . S
C51 O52 1.227 . S
O52 C51 1.227 . S
N53 Co39 2.140 . S
N53 C56 1.346 . S
N53 C57 1.345 1_565 S
C54 C55 1.387 . S
C54 C58 1.391 . S
C55 C54 1.387 . S
C55 C56 1.369 1_545 S
C55 H64 0.929 . S
C56 N53 1.346 . S
C56 C55 1.369 1_565 S
C56 H59 0.928 . S
C57 N53 1.345 1_545 S
C57 C58 1.371 . S
C57 H60 0.931 . S
C58 C54 1.391 . S
C58 C57 1.371 . S
C58 H65 0.930 . S
H59 C56 0.928 . S
H60 C57 0.931 . S
H61 C37 0.930 . S
H62 C34 0.930 . S
H63 C43 0.930 . S
H64 C55 0.929 . S
H65 C58 0.930 . S
C66 C67 1.351 . S
C66 N69 1.368 . S
C66 H71 0.931 . S
C67 C66 1.351 . S
C67 N68 1.373 . S
C67 H95 0.930 . S
N68 C67 1.373 . S
N68 C70 1.340 . S
N69 C66 1.368 . S
N69 C70 1.321 . S
N69 Co72 2.135 . S
C70 N68 1.340 . S
C70 N69 1.321 . S
C70 H94 0.930 . S
H71 C66 0.931 . S
Co72 N69 2.135 . S
Co72 N75 2.121 . S
Co72 O80 2.055 . S
Co72 O83 2.039 . S
Co72 N86 2.140 . S
C73 O74 1.227 . S
C73 O83 1.265 . S
O74 C73 1.227 . S
N75 Co72 2.121 . S
N75 C77 1.375 . S
N75 C78 1.313 . S
C76 C77 1.338 . S
C76 N79 1.377 . S
C76 H96 0.930 . S
C77 N75 1.375 . S
C77 C76 1.338 . S
C77 H81 0.931 . S
C78 N75 1.313 . S
C78 N79 1.344 . S
C78 H82 0.930 . S
N79 C76 1.377 . S
N79 C78 1.344 . S
O80 Co72 2.055 . S
O80 C84 1.253 1_565 S
H81 C77 0.931 . S
H82 C78 0.930 . S
O83 Co72 2.039 . S
O83 C73 1.265 . S
C84 O80 1.253 1_545 S
C84 O85 1.227 . S
O85 C84 1.227 . S
N86 Co72 2.140 . S
N86 C89 1.346 . S
N86 C90 1.345 . S
C87 C88 1.387 . S
C87 C91 1.391 . S
C88 C87 1.387 . S
C88 C89 1.369 . S
C88 H97 0.929 . S
C89 N86 1.346 . S
C89 C88 1.369 . S
C89 H92 0.928 . S
C90 N86 1.345 . S
C90 C91 1.371 . S
C90 H93 0.931 . S
C91 C87 1.391 . S
C91 C90 1.371 . S
C91 H98 0.930 . S
H92 C89 0.928 . S
H93 C90 0.931 . S
H94 C70 0.930 . S
H95 C67 0.930 . S
H96 C76 0.930 . S
H97 C88 0.929 . S
H98 C91 0.930 . S
C99 C100 1.351 . S
C99 N102 1.368 . S
C99 H104 0.931 . S
C100 C99 1.351 . S
C100 N101 1.373 . S
C100 H128 0.930 . S
N101 C100 1.373 . S
N101 C103 1.340 . S
N102 C99 1.368 . S
N102 C103 1.321 . S
N102 Co105 2.135 . S
C103 N101 1.340 . S
C103 N102 1.321 . S
C103 H127 0.930 . S
H104 C99 0.931 . S
Co105 N102 2.135 . S
Co105 N108 2.121 . S
Co105 O113 2.055 . S
Co105 O116 2.039 . S
Co105 N119 2.140 . S
C106 O107 1.227 . S
C106 O116 1.265 . S
O107 C106 1.227 . S
N108 Co105 2.121 . S
N108 C110 1.375 . S
N108 C111 1.313 . S
C109 C110 1.338 1_565 S
C109 N112 1.377 1_565 S
C109 H129 0.930 . S
C110 N108 1.375 . S
C110 C109 1.338 1_545 S
C110 H114 0.931 . S
C111 N108 1.313 . S
C111 N112 1.344 . S
C111 H115 0.930 . S
N112 C109 1.377 1_545 S
N112 C111 1.344 . S
O113 Co105 2.055 . S
O113 C117 1.253 . S
H114 C110 0.931 . S
H115 C111 0.930 . S
O116 Co105 2.039 . S
O116 C106 1.265 . S
C117 O113 1.253 . S
C117 O118 1.227 . S
O118 C117 1.227 . S
N119 Co105 2.140 . S
N119 C122 1.346 . S
N119 C123 1.345 1_545 S
C120 C121 1.387 . S
C120 C124 1.391 . S
C121 C120 1.387 . S
C121 C122 1.369 1_565 S
C121 H130 0.929 . S
C122 N119 1.346 . S
C122 C121 1.369 1_545 S
C122 H125 0.928 . S
C123 N119 1.345 1_565 S
C123 C124 1.371 . S
C123 H126 0.931 . S
C124 C120 1.391 . S
C124 C123 1.371 . S
C124 H131 0.930 . S
H125 C122 0.928 . S
H126 C123 0.931 . S
H127 C103 0.930 . S
H128 C100 0.930 . S
H129 C109 0.930 . S
H130 C121 0.929 . S
H131 C124 0.930 . S
C132 C133 1.351 . S
C132 N135 1.368 . S
C132 H137 0.931 . S
C133 C132 1.351 . S
C133 N134 1.373 . S
C133 H161 0.930 . S
N134 C133 1.373 . S
N134 C136 1.340 . S
N135 C132 1.368 . S
N135 C136 1.321 . S
N135 Co138 2.135 . S
C136 N134 1.340 . S
C136 N135 1.321 . S
C136 H160 0.930 . S
H137 C132 0.931 . S
Co138 N135 2.135 . S
Co138 N141 2.121 . S
Co138 O146 2.055 . S
Co138 O149 2.039 . S
Co138 N152 2.140 . S
C139 O140 1.227 . S
C139 O149 1.265 . S
O140 C139 1.227 . S
N141 Co138 2.121 . S
N141 C143 1.375 . S
N141 C144 1.313 . S
C142 C143 1.338 1_455 S
C142 N145 1.377 1_455 S
C142 H162 0.930 . S
C143 N141 1.375 . S
C143 C142 1.338 1_655 S
C143 H147 0.931 . S
C144 N141 1.313 . S
C144 N145 1.344 . S
C144 H148 0.930 . S
N145 C142 1.377 1_655 S
N145 C144 1.344 . S
O146 Co138 2.055 . S
O146 C150 1.253 . S
H147 C143 0.931 . S
H148 C144 0.930 . S
O149 Co138 2.039 . S
O149 C139 1.265 . S
C150 O146 1.253 . S
C150 O151 1.227 . S
O151 C150 1.227 . S
N152 Co138 2.140 . S
N152 C155 1.346 . S
N152 C156 1.345 1_655 S
C153 C154 1.387 . S
C153 C157 1.391 . S
C154 C153 1.387 . S
C154 C155 1.369 1_455 S
C154 H163 0.929 . S
C155 N152 1.346 . S
C155 C154 1.369 1_655 S
C155 H158 0.928 . S
C156 N152 1.345 1_455 S
C156 C157 1.371 . S
C156 H159 0.931 . S
C157 C153 1.391 . S
C157 C156 1.371 . S
C157 H164 0.930 . S
H158 C155 0.928 . S
H159 C156 0.931 . S
H160 C136 0.930 . S
H161 C133 0.930 . S
H162 C142 0.930 . S
H163 C154 0.929 . S
H164 C157 0.930 . S
C165 C166 1.330 1_556 S
C165 N168 1.368 . S
C165 H170 0.931 . S
C166 C165 1.330 1_554 S
C166 N167 1.370 1_554 S
C166 H194 0.950 . S
N167 C166 1.370 1_556 S
N167 C169 1.340 . S
N168 C165 1.368 . S
N168 C169 1.321 . S
N168 Co171 2.135 . S
C169 N167 1.340 . S
C169 N168 1.321 . S
C169 H193 0.930 . S
H170 C165 0.931 . S
Co171 N168 2.135 . S
Co171 N174 2.121 . S
Co171 O179 2.055 . S
Co171 O182 2.039 . S
Co171 N185 2.140 . S
C172 O173 1.227 . S
C172 O182 1.265 . S
O173 C172 1.227 . S
N174 Co171 2.121 . S
N174 C176 1.375 . S
N174 C177 1.313 . S
C175 C176 1.338 . S
C175 N178 1.377 . S
C175 H195 0.930 . S
C176 N174 1.375 . S
C176 C175 1.338 . S
C176 H180 0.931 . S
C177 N174 1.313 . S
C177 N178 1.344 . S
C177 H181 0.930 . S
N178 C175 1.377 . S
N178 C177 1.344 . S
O179 Co171 2.055 . S
O179 C183 1.253 1_455 S
H180 C176 0.931 . S
H181 C177 0.930 . S
O182 Co171 2.039 . S
O182 C172 1.265 . S
C183 O179 1.253 1_655 S
C183 O184 1.227 . S
O184 C183 1.227 . S
N185 Co171 2.140 . S
N185 C188 1.346 . S
N185 C189 1.345 . S
C186 C187 1.387 . S
C186 C190 1.391 . S
C187 C186 1.387 . S
C187 C188 1.369 . S
C187 H196 0.929 . S
C188 N185 1.346 . S
C188 C187 1.369 . S
C188 H191 0.928 . S
C189 N185 1.345 . S
C189 C190 1.371 . S
C189 H192 0.931 . S
C190 C186 1.391 . S
C190 C189 1.371 . S
C190 H197 0.930 . S
H191 C188 0.928 . S
H192 C189 0.931 . S
H193 C169 0.930 . S
H194 C166 0.950 . S
H195 C175 0.930 . S
H196 C187 0.929 . S
H197 C190 0.930 . S
C198 C199 1.351 . S
C198 N201 1.368 . S
C198 H203 0.931 . S
C199 C198 1.351 . S
C199 N200 1.373 . S
C199 H227 0.930 . S
N200 C199 1.373 . S
N200 C202 1.340 . S
N201 C198 1.368 . S
N201 C202 1.321 . S
N201 Co204 2.135 . S
C202 N200 1.340 . S
C202 N201 1.321 . S
C202 H226 0.930 . S
H203 C198 0.931 . S
Co204 N201 2.135 . S
Co204 N207 2.121 . S
Co204 O212 2.055 . S
Co204 O215 2.039 . S
Co204 N218 2.140 . S
C205 O206 1.227 . S
C205 O215 1.265 . S
O206 C205 1.227 . S
N207 Co204 2.121 . S
N207 C209 1.375 . S
N207 C210 1.313 . S
C208 C209 1.338 1_655 S
C208 N211 1.377 1_655 S
C208 H228 0.930 . S
C209 N207 1.375 . S
C209 C208 1.338 1_455 S
C209 H213 0.931 . S
C210 N207 1.313 . S
C210 N211 1.344 . S
C210 H214 0.930 . S
N211 C208 1.377 1_455 S
N211 C210 1.344 . S
O212 Co204 2.055 . S
O212 C216 1.253 . S
H213 C209 0.931 . S
H214 C210 0.930 . S
O215 Co204 2.039 . S
O215 C205 1.265 . S
C216 O212 1.253 . S
C216 O217 1.227 . S
O217 C216 1.227 . S
N218 Co204 2.140 . S
N218 C221 1.346 . S
N218 C222 1.345 1_455 S
C219 C220 1.387 . S
C219 C223 1.391 . S
C220 C219 1.387 . S
C220 C221 1.369 1_655 S
C220 H229 0.929 . S
C221 N218 1.346 . S
C221 C220 1.369 1_455 S
C221 H224 0.928 . S
C222 N218 1.345 1_655 S
C222 C223 1.371 . S
C222 H225 0.931 . S
C223 C219 1.391 . S
C223 C222 1.371 . S
C223 H230 0.930 . S
H224 C221 0.928 . S
H225 C222 0.931 . S
H226 C202 0.930 . S
H227 C199 0.930 . S
H228 C208 0.930 . S
H229 C220 0.929 . S
H230 C223 0.930 . S
C231 C232 1.351 . S
C231 N234 1.368 . S
C231 H236 0.931 . S
C232 C231 1.351 . S
C232 N233 1.373 . S
C232 H260 0.930 . S
N233 C232 1.373 . S
N233 C235 1.340 . S
N234 C231 1.368 . S
N234 C235 1.321 . S
N234 Co237 2.135 . S
C235 N233 1.340 . S
C235 N234 1.321 . S
C235 H259 0.930 . S
H236 C231 0.931 . S
Co237 N234 2.135 . S
Co237 N240 2.121 . S
Co237 O245 2.055 . S
Co237 O248 2.039 . S
Co237 N251 2.140 . S
C238 O239 1.227 . S
C238 O248 1.265 . S
O239 C238 1.227 . S
N240 Co237 2.121 . S
N240 C242 1.375 . S
N240 C243 1.313 . S
C241 C242 1.338 . S
C241 N244 1.377 . S
C241 H261 0.930 . S
C242 N240 1.375 . S
C242 C241 1.338 . S
C242 H246 0.931 . S
C243 N240 1.313 . S
C243 N244 1.344 . S
C243 H247 0.930 . S
N244 C241 1.377 . S
N244 C243 1.344 . S
O245 Co237 2.055 . S
O245 C249 1.253 1_655 S
H246 C242 0.931 . S
H247 C243 0.930 . S
O248 Co237 2.039 . S
O248 C238 1.265 . S
C249 O245 1.253 1_455 S
C249 O250 1.227 . S
O250 C249 1.227 . S
N251 Co237 2.140 . S
N251 C254 1.346 . S
N251 C255 1.345 . S
C252 C253 1.387 . S
C252 C256 1.391 . S
C253 C252 1.387 . S
C253 C254 1.369 . S
C253 H262 0.929 . S
C254 N251 1.346 . S
C254 C253 1.369 . S
C254 H257 0.928 . S
C255 N251 1.345 . S
C255 C256 1.371 . S
C255 H258 0.931 . S
C256 C252 1.391 . S
C256 C255 1.371 . S
C256 H263 0.930 . S
H257 C254 0.928 . S
H258 C255 0.931 . S
H259 C235 0.930 . S
H260 C232 0.930 . S
H261 C241 0.930 . S
H262 C253 0.929 . S
H263 C256 0.930 . S
N2 N167 0.649 1_554 S
N200 N35 0.649 . S
N233 N68 0.649 . S
N134 N101 0.649 . S
N112 C21 2.745 1_556 S
C54 N13 2.745 . S
N46 C87 2.745 . S
C120 N79 2.745 . S
N178 C153 2.745 . S
C186 N211 2.745 1_556 S
C219 N244 2.745 . S
C252 N145 2.745 . S
C205 C18 2.297 . S
C238 C51 2.297 . S
C84 C139 2.297 . S
C117 C172 2.297 . S
C150 C73 2.297 . S
C106 C183 2.297 . S
C216 C7 2.297 . S
C40 C249 2.297 . S
