# Generated by pormake.
# Topology unh, (4)-cn, num edge types: 1
# Building blocks:
#     Node 0, Type 0, BuildingBlock: QUQFOY_clean_sbu_3, # of connection points: 4
#     Node 1, Type 0, BuildingBlock: QUQFOY_clean_sbu_3, # of connection points: 4
#     Node 2, Type 0, BuildingBlock: QUQFOY_clean_sbu_3, # of connection points: 4
#     Node 3, Type 0, BuildingBlock: QUQFOY_clean_sbu_3, # of connection points: 4
#     Node 4, Type 0, BuildingBlock: QUQFOY_clean_sbu_3, # of connection points: 4
#     Node 5, Type 0, BuildingBlock: QUQFOY_clean_sbu_3, # of connection points: 4
#     Edge 6, Type (0, 0), None
#     Edge 7, Type (0, 0), None
#     Edge 8, Type (0, 0), None
#     Edge 9, Type (0, 0), None
#     Edge 10, Type (0, 0), None
#     Edge 11, Type (0, 0), None
#     Edge 12, Type (0, 0), None
#     Edge 13, Type (0, 0), None
#     Edge 14, Type (0, 0), None
#     Edge 15, Type (0, 0), None
#     Edge 16, Type (0, 0), None
#     Edge 17, Type (0, 0), None
# Relax obj value: 0.078
# Max RMSD: 0.194
# Mean RMSD: 0.194
data_MOF--net-unh--node1-QUQFOY_clean_sbu_3--edge1-none
_symmetry_space_group_name_H-M    P1
_symmetry_Int_Tables_number       1
_symmetry_cell_setting            triclinic
loop_
_symmetry_equiv_pos_as_xyz
'x, y, z'
_cell_length_a     21.448219
_cell_length_b     21.445384
_cell_length_c     10.817546
_cell_angle_alpha  89.975346
_cell_angle_beta   90.050669
_cell_angle_gamma 119.97553
loop_
_atom_site_label
_atom_site_type_symbol
_atom_site_fract_x
_atom_site_fract_y
_atom_site_fract_z
_atom_type_partial_charge
C0 C 0.17942 0.4745 0.12652 0.0
O1 O 0.16974 0.45051 0.01663 0.0
Cd2 Cd 0.0772 0.44061 0.87234 0.0
O3 O 0.13987 0.49738 0.17061 0.0
Cd4 Cd 0.03848 0.50794 0.09152 0.0
C5 C 0.13955 0.61939 0.85701 0.0
O6 O -0.03882 0.40448 0.95566 0.0
O7 O -0.05108 0.49925 0.95654 0.0
O8 O -0.01744 0.44135 0.27 0.0
C9 C -0.07246 0.43594 0.91788 0.0
O10 O 0.12127 0.56159 0.79767 0.0
C11 C -0.03741 0.48321 0.31457 0.0
O12 O 0.12539 0.61827 0.97235 0.0
O13 O -0.01753 0.54273 0.25901 0.0
C14 C 0.65134 0.20595 0.2933 0.0
O15 O 0.66565 0.19624 0.18344 0.0
Cd16 Cd 0.58299 0.10367 0.03931 0.0
O17 O 0.58895 0.16643 0.33741 0.0
Cd18 Cd 0.47704 0.06506 0.25844 0.0
C19 C 0.46668 0.16619 0.02379 0.0
O20 O 0.50313 -0.01235 0.12278 0.0
O21 O 0.39616 -0.02455 0.12368 0.0
O22 O 0.48773 0.00924 0.43714 0.0
C23 C 0.43805 -0.04598 0.08506 0.0
O24 O 0.50613 0.14783 0.96448 0.0
C25 C 0.42594 -0.01066 0.48169 0.0
O26 O 0.45366 0.15204 0.13915 0.0
O27 O 0.3863 0.0092 0.42597 0.0
C28 C 0.39177 0.67814 0.45998 0.0
O29 O 0.41573 0.69251 0.3501 0.0
Cd30 Cd 0.42564 0.60988 0.20594 0.0
O31 O 0.36895 0.61571 0.50403 0.0
Cd32 Cd 0.35852 0.50388 0.42483 0.0
C33 C 0.24695 0.49349 0.19036 0.0
O34 O 0.462 0.53001 0.28911 0.0
O35 O 0.36727 0.42304 0.29004 0.0
O36 O 0.42507 0.51453 0.60345 0.0
C37 C 0.43057 0.46492 0.25144 0.0
O38 O 0.30471 0.53301 0.13104 0.0
C39 C 0.38322 0.45274 0.64808 0.0
O40 O 0.24811 0.48044 0.30573 0.0
O41 O 0.32374 0.4131 0.59241 0.0
C42 C 0.66006 0.41841 0.62651 0.0
O43 O 0.66961 0.44237 0.51659 0.0
Cd44 Cd 0.76206 0.4522 0.37239 0.0
O45 O 0.69968 0.39557 0.67057 0.0
Cd46 Cd 0.80103 0.38512 0.59129 0.0
C47 C 0.69986 0.27349 0.35703 0.0
O48 O 0.8783 0.48858 0.45538 0.0
O49 O 0.89053 0.39379 0.45643 0.0
O50 O 0.85701 0.45175 0.76973 0.0
C51 C 0.91192 0.4571 0.41775 0.0
O52 O 0.71804 0.33126 0.29763 0.0
C53 C 0.87696 0.40988 0.81446 0.0
O54 O 0.7141 0.27466 0.4724 0.0
O55 O 0.85709 0.35036 0.75895 0.0
C56 C 0.18808 0.68689 0.79322 0.0
O57 O 0.17372 0.69656 0.68331 0.0
Cd58 Cd 0.25638 0.78907 0.53918 0.0
O59 O 0.25051 0.72637 0.83737 0.0
Cd60 Cd 0.36241 0.82768 0.75843 0.0
C61 C 0.37276 0.72664 0.52383 0.0
O62 O 0.33631 0.90511 0.62258 0.0
O63 O 0.44329 0.9173 0.62382 0.0
O64 O 0.35174 0.88355 0.93694 0.0
C65 C 0.40139 0.93872 0.58501 0.0
O66 O 0.33322 0.74493 0.46449 0.0
C67 C 0.41352 0.90343 -0.01831 0.0
O68 O 0.38583 0.74076 0.63922 0.0
O69 O 0.45315 0.88354 0.92619 0.0
C70 C 0.44773 0.21477 0.95994 0.0
O71 O 0.42369 0.20043 0.85004 0.0
Cd72 Cd 0.41384 0.28311 0.70577 0.0
O73 O 0.47071 0.27722 0.00402 0.0
Cd74 Cd 0.48132 0.3892 0.92505 0.0
C75 C 0.5926 0.39943 0.69041 0.0
O76 O 0.37784 0.36312 0.78919 0.0
O77 O 0.47258 0.4701 0.79027 0.0
O78 O 0.41479 0.37857 0.10352 0.0
C79 C 0.40929 0.4282 0.75149 0.0
O80 O 0.53478 0.3599 0.63113 0.0
C81 C 0.45665 0.44036 0.14819 0.0
O82 O 0.59158 0.41253 0.80577 0.0
O83 O 0.51616 0.47997 0.0927 0.0
loop_
_geom_bond_atom_site_label_1
_geom_bond_atom_site_label_2
_geom_bond_distance
_geom_bond_site_symmetry_2
_ccdc_geom_bond_type
C0 O1 1.306 . S
C0 O3 1.160 . S
O1 C0 1.306 . S
O1 Cd2 2.228 1_554 S
Cd2 O1 2.228 1_556 S
Cd2 O6 2.273 . S
Cd2 O10 2.277 . S
O3 C0 1.160 . S
O3 Cd4 2.203 . S
Cd4 O3 2.203 . S
Cd4 O6 2.411 1_554 S
Cd4 O7 2.333 1_554 S
Cd4 O8 2.352 . S
Cd4 O12 2.277 . S
Cd4 O13 2.356 . S
C5 O10 1.209 . S
C5 O12 1.226 1_556 S
O6 Cd2 2.273 . S
O6 Cd4 2.411 1_556 S
O6 C9 1.320 . S
O7 Cd4 2.333 1_556 S
O7 C9 1.214 . S
O8 Cd4 2.352 . S
O8 C11 1.258 . S
C9 O6 1.320 . S
C9 O7 1.214 . S
O10 Cd2 2.277 . S
O10 C5 1.209 . S
C11 O8 1.258 . S
C11 O13 1.282 . S
O12 Cd4 2.277 . S
O12 C5 1.226 1_554 S
O13 Cd4 2.356 . S
O13 C11 1.282 . S
C14 O15 1.306 . S
C14 O17 1.160 . S
O15 C14 1.306 . S
O15 Cd16 2.228 . S
Cd16 O15 2.228 . S
Cd16 O20 2.273 . S
Cd16 O24 2.277 . S
O17 C14 1.160 . S
O17 Cd18 2.203 . S
Cd18 O17 2.203 . S
Cd18 O20 2.411 . S
Cd18 O21 2.333 . S
Cd18 O22 2.352 . S
Cd18 O26 2.277 . S
Cd18 O27 2.356 . S
C19 O24 1.209 . S
C19 O26 1.226 . S
O20 Cd16 2.273 . S
O20 Cd18 2.411 . S
O20 C23 1.320 . S
O21 Cd18 2.333 . S
O21 C23 1.214 . S
O22 Cd18 2.352 . S
O22 C25 1.258 . S
C23 O20 1.320 . S
C23 O21 1.214 . S
O24 Cd16 2.277 . S
O24 C19 1.209 . S
C25 O22 1.258 . S
C25 O27 1.282 . S
O26 Cd18 2.277 . S
O26 C19 1.226 . S
O27 Cd18 2.356 . S
O27 C25 1.282 . S
C28 O29 1.306 . S
C28 O31 1.160 . S
O29 C28 1.306 . S
O29 Cd30 2.228 . S
Cd30 O29 2.228 . S
Cd30 O34 2.273 . S
Cd30 O38 2.277 . S
O31 C28 1.160 . S
O31 Cd32 2.203 . S
Cd32 O31 2.203 . S
Cd32 O34 2.411 . S
Cd32 O35 2.333 . S
Cd32 O36 2.352 . S
Cd32 O40 2.277 . S
Cd32 O41 2.356 . S
C33 O38 1.209 . S
C33 O40 1.226 . S
O34 Cd30 2.273 . S
O34 Cd32 2.411 . S
O34 C37 1.320 . S
O35 Cd32 2.333 . S
O35 C37 1.214 . S
O36 Cd32 2.352 . S
O36 C39 1.258 . S
C37 O34 1.320 . S
C37 O35 1.214 . S
O38 Cd30 2.277 . S
O38 C33 1.209 . S
C39 O36 1.258 . S
C39 O41 1.282 . S
O40 Cd32 2.277 . S
O40 C33 1.226 . S
O41 Cd32 2.356 . S
O41 C39 1.282 . S
C42 O43 1.306 . S
C42 O45 1.160 . S
O43 C42 1.306 . S
O43 Cd44 2.228 . S
Cd44 O43 2.228 . S
Cd44 O48 2.273 . S
Cd44 O52 2.277 . S
O45 C42 1.160 . S
O45 Cd46 2.203 . S
Cd46 O45 2.203 . S
Cd46 O48 2.411 . S
Cd46 O49 2.333 . S
Cd46 O50 2.352 . S
Cd46 O54 2.277 . S
Cd46 O55 2.356 . S
C47 O52 1.209 . S
C47 O54 1.226 . S
O48 Cd44 2.273 . S
O48 Cd46 2.411 . S
O48 C51 1.320 . S
O49 Cd46 2.333 . S
O49 C51 1.214 . S
O50 Cd46 2.352 . S
O50 C53 1.258 . S
C51 O48 1.320 . S
C51 O49 1.214 . S
O52 Cd44 2.277 . S
O52 C47 1.209 . S
C53 O50 1.258 . S
C53 O55 1.282 . S
O54 Cd46 2.277 . S
O54 C47 1.226 . S
O55 Cd46 2.356 . S
O55 C53 1.282 . S
C56 O57 1.306 . S
C56 O59 1.160 . S
O57 C56 1.306 . S
O57 Cd58 2.228 . S
Cd58 O57 2.228 . S
Cd58 O62 2.273 . S
Cd58 O66 2.277 . S
O59 C56 1.160 . S
O59 Cd60 2.203 . S
Cd60 O59 2.203 . S
Cd60 O62 2.411 . S
Cd60 O63 2.333 . S
Cd60 O64 2.352 . S
Cd60 O68 2.277 . S
Cd60 O69 2.356 . S
C61 O66 1.209 . S
C61 O68 1.226 . S
O62 Cd58 2.273 . S
O62 Cd60 2.411 . S
O62 C65 1.320 . S
O63 Cd60 2.333 . S
O63 C65 1.214 . S
O64 Cd60 2.352 . S
O64 C67 1.258 . S
C65 O62 1.320 . S
C65 O63 1.214 . S
O66 Cd58 2.277 . S
O66 C61 1.209 . S
C67 O64 1.258 . S
C67 O69 1.282 . S
O68 Cd60 2.277 . S
O68 C61 1.226 . S
O69 Cd60 2.356 . S
O69 C67 1.282 . S
C70 O71 1.306 1_554 S
C70 O73 1.160 . S
O71 C70 1.306 1_556 S
O71 Cd72 2.228 . S
Cd72 O71 2.228 . S
Cd72 O76 2.273 . S
Cd72 O80 2.277 . S
O73 C70 1.160 . S
O73 Cd74 2.203 1_554 S
Cd74 O73 2.203 1_556 S
Cd74 O76 2.411 . S
Cd74 O77 2.333 . S
Cd74 O78 2.352 1_556 S
Cd74 O82 2.277 . S
Cd74 O83 2.356 1_556 S
C75 O80 1.209 . S
C75 O82 1.226 . S
O76 Cd72 2.273 . S
O76 Cd74 2.411 . S
O76 C79 1.320 . S
O77 Cd74 2.333 . S
O77 C79 1.214 . S
O78 Cd74 2.352 1_554 S
O78 C81 1.258 . S
C79 O76 1.320 . S
C79 O77 1.214 . S
O80 Cd72 2.277 . S
O80 C75 1.209 . S
C81 O78 1.258 . S
C81 O83 1.282 . S
O82 Cd74 2.277 . S
O82 C75 1.226 . S
O83 Cd74 2.356 1_554 S
O83 C81 1.282 . S
C9 C53 1.339 1_455 S
C67 C23 1.339 1_566 S
C37 C81 1.339 . S
C51 C11 1.339 1_655 S
C25 C65 1.339 1_545 S
C79 C39 1.339 . S
C0 C33 1.433 . S
C14 C47 1.433 . S
C61 C28 1.433 . S
C75 C42 1.433 . S
C56 C5 1.433 . S
C70 C19 1.433 . S
