# Generated by pormake.
# Topology umm, (4)-cn, num edge types: 1
# Building blocks:
#     Node 0, Type 0, BuildingBlock: MUDLON_clean_sbu_0, # of connection points: 4
#     Node 1, Type 0, BuildingBlock: MUDLON_clean_sbu_0, # of connection points: 4
#     Node 2, Type 0, BuildingBlock: MUDLON_clean_sbu_0, # of connection points: 4
#     Node 3, Type 0, BuildingBlock: MUDLON_clean_sbu_0, # of connection points: 4
#     Node 4, Type 0, BuildingBlock: MUDLON_clean_sbu_0, # of connection points: 4
#     Node 5, Type 0, BuildingBlock: MUDLON_clean_sbu_0, # of connection points: 4
#     Node 6, Type 0, BuildingBlock: MUDLON_clean_sbu_0, # of connection points: 4
#     Node 7, Type 0, BuildingBlock: MUDLON_clean_sbu_0, # of connection points: 4
#     Node 8, Type 0, BuildingBlock: MUDLON_clean_sbu_0, # of connection points: 4
#     Node 9, Type 0, BuildingBlock: MUDLON_clean_sbu_0, # of connection points: 4
#     Node 10, Type 0, BuildingBlock: MUDLON_clean_sbu_0, # of connection points: 4
#     Node 11, Type 0, BuildingBlock: MUDLON_clean_sbu_0, # of connection points: 4
#     Edge 12, Type (0, 0), BuildingBlock: EYOCIG_clean_linker_4, # of connection points: 2
#     Edge 13, Type (0, 0), BuildingBlock: EYOCIG_clean_linker_4, # of connection points: 2
#     Edge 14, Type (0, 0), BuildingBlock: EYOCIG_clean_linker_4, # of connection points: 2
#     Edge 15, Type (0, 0), BuildingBlock: EYOCIG_clean_linker_4, # of connection points: 2
#     Edge 16, Type (0, 0), BuildingBlock: EYOCIG_clean_linker_4, # of connection points: 2
#     Edge 17, Type (0, 0), BuildingBlock: EYOCIG_clean_linker_4, # of connection points: 2
#     Edge 18, Type (0, 0), BuildingBlock: EYOCIG_clean_linker_4, # of connection points: 2
#     Edge 19, Type (0, 0), BuildingBlock: EYOCIG_clean_linker_4, # of connection points: 2
#     Edge 20, Type (0, 0), BuildingBlock: EYOCIG_clean_linker_4, # of connection points: 2
#     Edge 21, Type (0, 0), BuildingBlock: EYOCIG_clean_linker_4, # of connection points: 2
#     Edge 22, Type (0, 0), BuildingBlock: EYOCIG_clean_linker_4, # of connection points: 2
#     Edge 23, Type (0, 0), BuildingBlock: EYOCIG_clean_linker_4, # of connection points: 2
#     Edge 24, Type (0, 0), BuildingBlock: EYOCIG_clean_linker_4, # of connection points: 2
#     Edge 25, Type (0, 0), BuildingBlock: EYOCIG_clean_linker_4, # of connection points: 2
#     Edge 26, Type (0, 0), BuildingBlock: EYOCIG_clean_linker_4, # of connection points: 2
#     Edge 27, Type (0, 0), BuildingBlock: EYOCIG_clean_linker_4, # of connection points: 2
#     Edge 28, Type (0, 0), BuildingBlock: EYOCIG_clean_linker_4, # of connection points: 2
#     Edge 29, Type (0, 0), BuildingBlock: EYOCIG_clean_linker_4, # of connection points: 2
#     Edge 30, Type (0, 0), BuildingBlock: EYOCIG_clean_linker_4, # of connection points: 2
#     Edge 31, Type (0, 0), BuildingBlock: EYOCIG_clean_linker_4, # of connection points: 2
#     Edge 32, Type (0, 0), BuildingBlock: EYOCIG_clean_linker_4, # of connection points: 2
#     Edge 33, Type (0, 0), BuildingBlock: EYOCIG_clean_linker_4, # of connection points: 2
#     Edge 34, Type (0, 0), BuildingBlock: EYOCIG_clean_linker_4, # of connection points: 2
#     Edge 35, Type (0, 0), BuildingBlock: EYOCIG_clean_linker_4, # of connection points: 2
# Relax obj value: 0.064
# Max RMSD: 0.171
# Mean RMSD: 0.171
data_MOF--net-umm--node1-MUDLON_clean_sbu_0--edge1-EYOCIG_clean_linker_4
_symmetry_space_group_name_H-M    P1
_symmetry_Int_Tables_number       1
_symmetry_cell_setting            triclinic
loop_
_symmetry_equiv_pos_as_xyz
'x, y, z'
_cell_length_a     46.555127
_cell_length_b     46.553765
_cell_length_c     24.624625
_cell_angle_alpha  89.969958
_cell_angle_beta   90.009652
_cell_angle_gamma 120.01609
loop_
_atom_site_label
_atom_site_type_symbol
_atom_site_fract_x
_atom_site_fract_y
_atom_site_fract_z
_atom_type_partial_charge
Mg0 Mg 0.42694 0.57315 0.07739 0.0
C1 C 0.48372 0.55953 0.06992 0.0
O2 O 0.50038 0.59165 0.06121 0.0
C3 C 0.37893 0.59529 0.04728 0.0
O4 O 0.40684 0.62379 0.04705 0.0
C5 C 0.43974 0.59023 0.19283 0.0
O6 O 0.46204 0.61723 0.16823 0.0
O7 O 0.41927 0.56567 0.16459 0.0
O8 O 0.45259 0.54485 0.07857 0.0
O9 O 0.42487 0.56251 0.99178 0.0
C10 C 0.44627 0.58636 0.96361 0.0
O11 O 0.46708 0.61431 0.98744 0.0
O12 O 0.37897 0.56897 0.0613 0.0
Mg13 Mg 0.86843 0.41985 0.41104 0.0
C14 C 0.93907 0.47656 0.40377 0.0
O15 O 0.92383 0.49345 0.39518 0.0
C16 C 0.79861 0.37234 0.37859 0.0
O17 O 0.79843 0.40044 0.37741 0.0
C18 C 0.86413 0.43167 0.52672 0.0
O19 O 0.85987 0.4544 0.50269 0.0
O20 O 0.8679 0.41118 0.49796 0.0
O21 O 0.9224 0.44541 0.41204 0.0
O22 O 0.87606 0.41656 0.32548 0.0
C23 C 0.87385 0.43793 0.29683 0.0
O24 O 0.8682 0.45985 0.32034 0.0
O25 O 0.82451 0.37203 0.39433 0.0
Mg26 Mg 0.46381 0.8612 0.74421 0.0
C27 C 0.4787 0.93199 0.73662 0.0
O28 O 0.44655 0.91697 0.72829 0.0
C29 C 0.44225 0.79153 0.7128 0.0
O30 O 0.41385 0.79111 0.71141 0.0
C31 C 0.44591 0.85686 0.85964 0.0
O32 O 0.41905 0.85236 0.8349 0.0
O33 O 0.47043 0.8607 0.83158 0.0
O34 O 0.49297 0.91512 0.74494 0.0
O35 O 0.47295 0.86856 0.65816 0.0
C36 C 0.44916 0.8665 0.63042 0.0
O37 O 0.42177 0.86071 0.65481 0.0
O38 O 0.46839 0.81763 0.72827 0.0
Mg39 Mg 0.61714 0.45634 0.07736 0.0
C40 C 0.56127 0.47123 0.0698 0.0
O41 O 0.54422 0.43917 0.06053 0.0
C42 C 0.66505 0.4346 0.04521 0.0
O43 O 0.63705 0.40619 0.04426 0.0
C44 C 0.60401 0.43885 0.19304 0.0
O45 O 0.58153 0.41194 0.16854 0.0
O46 O 0.62463 0.46331 0.16472 0.0
O47 O 0.59233 0.4854 0.07886 0.0
O48 O 0.61888 0.46701 0.99179 0.0
C49 C 0.59756 0.44338 0.96325 0.0
O50 O 0.57673 0.41522 0.98657 0.0
O51 O 0.66517 0.46078 0.0606 0.0
Mg52 Mg 0.17577 0.60968 0.41077 0.0
C53 C 0.10495 0.55374 0.40357 0.0
O54 O 0.1199 0.53661 0.39467 0.0
C55 C 0.24612 0.65723 0.38051 0.0
O56 O 0.24635 0.62914 0.37959 0.0
C57 C 0.17858 0.59657 0.52654 0.0
O58 O 0.18359 0.57436 0.50243 0.0
O59 O 0.17505 0.61725 0.49787 0.0
O60 O 0.12189 0.58485 0.41205 0.0
O61 O 0.16669 0.61233 0.32546 0.0
C62 C 0.16881 0.59103 0.29651 0.0
O63 O 0.17598 0.56999 0.31942 0.0
O64 O 0.21998 0.65744 0.39507 0.0
Mg65 Mg 0.58104 0.16839 0.74412 0.0
C66 C 0.56739 0.09788 0.73663 0.0
O67 O 0.59946 0.11323 0.72744 0.0
C68 C 0.60343 0.2383 0.71175 0.0
O69 O 0.63176 0.23856 0.71073 0.0
C70 C 0.59707 0.17253 0.8599 0.0
O71 O 0.62409 0.1769 0.83587 0.0
O72 O 0.57277 0.1687 0.83112 0.0
O73 O 0.55289 0.11444 0.74556 0.0
O74 O 0.56864 0.15947 0.65901 0.0
C75 C 0.59194 0.16175 0.62951 0.0
O76 O 0.62021 0.16865 0.65191 0.0
O77 O 0.57721 0.21232 0.72727 0.0
Mg78 Mg 0.46305 0.6092 0.57993 0.0
C79 C 0.47697 0.55252 0.58895 0.0
O80 O 0.44489 0.5357 0.59798 0.0
C81 C 0.44147 0.65755 0.61108 0.0
O82 O 0.41293 0.62971 0.61238 0.0
C83 C 0.44722 0.59751 0.46395 0.0
O84 O 0.41993 0.57513 0.48773 0.0
O85 O 0.47158 0.61764 0.49296 0.0
O86 O 0.49135 0.58354 0.57945 0.0
O87 O 0.47506 0.61272 0.66521 0.0
C88 C 0.45176 0.59165 0.69466 0.0
O89 O 0.42353 0.57021 0.67223 0.0
O90 O 0.4675 0.65731 0.59592 0.0
Mg91 Mg 0.86844 0.45631 0.91322 0.0
C92 C 0.93913 0.47106 0.92216 0.0
O93 O 0.92404 0.43887 0.93011 0.0
C94 C 0.79842 0.43424 0.94321 0.0
O95 O 0.79801 0.40583 0.94422 0.0
C96 C 0.86414 0.43908 0.79777 0.0
O97 O 0.85951 0.4121 0.82234 0.0
O98 O 0.86819 0.46361 0.82601 0.0
O99 O 0.92235 0.48537 0.91342 0.0
O100 O 0.8752 0.46602 -0.00083 0.0
C101 C 0.8733 0.44242 0.02734 0.0
O102 O 0.86813 0.41515 0.00332 0.0
O103 O 0.82463 0.46051 0.92854 0.0
Mg104 Mg 0.42723 0.86104 0.24653 0.0
C105 C 0.48401 0.9317 0.25388 0.0
O106 O 0.50088 0.91648 0.26279 0.0
C107 C 0.37979 0.79106 0.27888 0.0
O108 O 0.40789 0.79088 0.28006 0.0
C109 C 0.43871 0.85707 0.13071 0.0
O110 O 0.46143 0.85269 0.15443 0.0
O111 O 0.41829 0.8608 0.15975 0.0
O112 O 0.45289 0.91502 0.24537 0.0
O113 O 0.42349 0.86916 0.33181 0.0
C114 C 0.44465 0.86695 0.36101 0.0
O115 O 0.4665 0.86092 0.33817 0.0
O116 O 0.37949 0.81699 0.26323 0.0
Mg117 Mg 0.58088 0.41982 0.58016 0.0
C118 C 0.5662 0.47594 0.58895 0.0
O119 O 0.59828 0.493 0.59795 0.0
C120 C 0.60372 0.37224 0.61047 0.0
O121 O 0.63212 0.40024 0.61089 0.0
C122 C 0.59661 0.43171 0.46422 0.0
O123 O 0.6238 0.45424 0.48802 0.0
O124 O 0.57234 0.41139 0.4932 0.0
O125 O 0.55206 0.44493 0.5795 0.0
O126 O 0.56899 0.41672 0.66542 0.0
C127 C 0.59236 0.43802 0.69448 0.0
O128 O 0.62056 0.4592 0.67169 0.0
O129 O 0.57735 0.37212 0.59631 0.0
Mg130 Mg 0.17537 0.57338 0.9136 0.0
C131 C 0.10495 0.55979 0.92231 0.0
O132 O 0.12034 0.59194 0.93076 0.0
C133 C 0.24512 0.59513 0.94578 0.0
O134 O 0.24559 0.62355 0.94696 0.0
C135 C 0.17829 0.58886 0.79751 0.0
O136 O 0.1837 0.61632 0.82124 0.0
O137 O 0.1744 0.56462 0.82654 0.0
O138 O 0.12144 0.54522 0.91332 0.0
O139 O 0.16621 0.56183 -0.00106 0.0
C140 C 0.16875 0.58548 0.02775 0.0
O141 O 0.17636 0.61378 0.0047 0.0
O142 O 0.21905 0.56902 0.9302 0.0
Mg143 Mg 0.61729 0.1684 0.2467 0.0
C144 C 0.56131 0.09763 0.25367 0.0
O145 O 0.54427 0.11267 0.26256 0.0
C146 C 0.66486 0.23869 0.27691 0.0
O147 O 0.63683 0.23903 0.27713 0.0
C148 C 0.60457 0.17264 0.13105 0.0
O149 O 0.58193 0.17689 0.1554 0.0
O150 O 0.62519 0.16891 0.15952 0.0
O151 O 0.59244 0.11449 0.24519 0.0
O152 O 0.61911 0.16 0.33248 0.0
C153 C 0.59751 0.16217 0.36046 0.0
O154 O 0.57648 0.16893 0.3364 0.0
O155 O 0.66506 0.21246 0.2629 0.0
C156 C 0.44255 0.59109 0.29995 0.0
C157 C 0.43971 0.58882 0.25116 0.0
C158 C 0.44699 0.59545 0.35682 0.0
C159 C 0.44911 0.59806 0.40564 0.0
C160 C 0.86592 0.43386 0.63382 0.0
C161 C 0.86541 0.43121 0.58502 0.0
C162 C 0.86594 0.43825 0.69067 0.0
C163 C 0.86543 0.4405 0.73945 0.0
C164 C 0.44508 0.85893 0.96674 0.0
C165 C 0.44728 0.85828 0.91796 0.0
C166 C 0.44075 0.85899 0.0236 0.0
C167 C 0.43813 0.85844 0.07242 0.0
C168 C 0.60128 0.43813 0.30018 0.0
C169 C 0.6041 0.44033 0.25138 0.0
C170 C 0.59686 0.43381 0.35707 0.0
C171 C 0.59475 0.43119 0.4059 0.0
C172 C 0.17529 0.59324 0.63359 0.0
C173 C 0.17645 0.59639 0.58482 0.0
C174 C 0.17519 0.5887 0.69044 0.0
C175 C 0.17623 0.58673 0.73924 0.0
C176 C 0.60208 0.17084 0.02392 0.0
C177 C 0.60483 0.17137 0.07272 0.0
C178 C 0.59762 0.1708 0.96705 0.0
C179 C 0.59539 0.17127 0.91824 0.0
C180 C 0.32492 0.59323 0.00832 0.0
C181 C 0.34928 0.59362 0.02624 0.0
C182 C 0.29686 0.59305 0.98573 0.0
C183 C 0.27292 0.59328 0.96728 0.0
C184 C 0.74675 0.31875 0.33841 0.0
C185 C 0.77071 0.34285 0.35695 0.0
C186 C 0.7187 0.29085 0.31581 0.0
C187 C 0.6944 0.26681 0.29793 0.0
C188 C 0.44433 0.73978 0.67309 0.0
C189 C 0.44408 0.76372 0.69142 0.0
C190 C 0.44415 0.71174 0.6504 0.0
C191 C 0.44359 0.68736 0.63226 0.0
C192 C 0.71874 0.43652 0.00517 0.0
C193 C 0.69461 0.43635 0.02365 0.0
C194 C 0.74658 0.43633 0.98246 0.0
C195 C 0.7705 0.43594 0.96439 0.0
C196 C 0.29823 0.71113 0.34158 0.0
C197 C 0.2742 0.68682 0.3595 0.0
C198 C 0.32614 0.73918 0.31896 0.0
C199 C 0.35027 0.76315 0.30047 0.0
C200 C 0.60164 0.29019 0.67181 0.0
C201 C 0.60181 0.26621 0.69023 0.0
C202 C 0.60181 0.31827 0.64929 0.0
C203 C 0.60216 0.34262 0.63144 0.0
C204 C 0.51483 0.52518 0.06891 0.0
C205 C 0.50073 0.54097 0.06933 0.0
C206 C 0.53097 0.50635 0.06888 0.0
C207 C 0.54476 0.49028 0.06929 0.0
C208 C 1.00454 0.50736 0.40339 0.0
C209 C 0.97465 0.49337 0.40354 0.0
C210 C 0.03952 0.52347 0.40335 0.0
C211 C 0.06939 0.53726 0.40344 0.0
C212 C 0.53265 0.03242 0.73584 0.0
C213 C 0.54865 0.0623 0.73615 0.0
C214 C 0.51372 0.99744 0.73585 0.0
C215 C 0.4977 0.96756 0.73619 0.0
C216 C 0.51189 0.52201 0.59087 0.0
C217 C 0.49583 0.53582 0.59004 0.0
C218 C 0.53093 0.50608 0.59086 0.0
C219 C 0.54709 0.49238 0.59001 0.0
C220 C 0.03952 0.52505 0.9242 0.0
C221 C 0.06938 0.54107 0.92339 0.0
C222 C 1.00455 0.50609 0.92414 0.0
C223 C 0.97469 0.49004 0.92326 0.0
C224 C 0.51474 0.99718 0.2541 0.0
C225 C 0.50079 0.96729 0.25402 0.0
C226 C 0.53085 0.03217 0.25405 0.0
C227 C 0.54471 0.06205 0.25389 0.0
C228 C 0.45441 0.58886 0.80085 0.0
C229 C 0.45519 0.59173 0.7523 0.0
C230 C 0.4505 0.585 0.85745 0.0
C231 C 0.44715 0.58382 0.90592 0.0
C232 C 0.87668 0.43974 0.19039 0.0
C233 C 0.87568 0.43745 0.23902 0.0
C234 C 0.87651 0.44325 0.13376 0.0
C235 C 0.87529 0.44453 0.08516 0.0
C236 C 0.44992 0.87041 0.52404 0.0
C237 C 0.45117 0.86889 0.57261 0.0
C238 C 0.44641 0.87056 0.46739 0.0
C239 C 0.44407 0.86924 0.41877 0.0
C240 C 0.58978 0.44166 0.80055 0.0
C241 C 0.58902 0.43846 0.75207 0.0
C242 C 0.5936 0.44552 0.85715 0.0
C243 C 0.59685 0.44638 0.90562 0.0
C244 C 0.16254 0.58326 0.13383 0.0
C245 C 0.16495 0.58234 0.08537 0.0
C246 C 0.16257 0.58722 0.19042 0.0
C247 C 0.16502 0.5905 0.2389 0.0
C248 C 0.58939 0.1566 0.52329 0.0
C249 C 0.58855 0.15855 0.57186 0.0
C250 C 0.59331 0.15673 0.46667 0.0
C251 C 0.59663 0.15888 0.41819 0.0
loop_
_geom_bond_atom_site_label_1
_geom_bond_atom_site_label_2
_geom_bond_distance
_geom_bond_site_symmetry_2
_ccdc_geom_bond_type
Mg0 O7 2.141 . S
Mg0 O8 2.048 . S
Mg0 O9 2.048 1_554 S
Mg0 O12 2.141 . S
C1 O2 1.313 . S
C1 O8 1.195 . S
O2 C1 1.313 . S
C3 O4 1.245 . S
C3 O12 1.289 . S
O4 C3 1.245 . S
C5 O6 1.245 . S
C5 O7 1.289 . S
O6 C5 1.245 . S
O7 Mg0 2.141 . S
O7 C5 1.289 . S
O8 Mg0 2.048 . S
O8 C1 1.195 . S
O9 Mg0 2.048 1_556 S
O9 C10 1.195 . S
C10 O9 1.195 . S
C10 O11 1.313 . S
O11 C10 1.313 . S
O12 Mg0 2.141 . S
O12 C3 1.289 . S
Mg13 O20 2.141 . S
Mg13 O21 2.048 . S
Mg13 O22 2.048 . S
Mg13 O25 2.141 . S
C14 O15 1.313 . S
C14 O21 1.195 . S
O15 C14 1.313 . S
C16 O17 1.245 . S
C16 O25 1.289 . S
O17 C16 1.245 . S
C18 O19 1.245 . S
C18 O20 1.289 . S
O19 C18 1.245 . S
O20 Mg13 2.141 . S
O20 C18 1.289 . S
O21 Mg13 2.048 . S
O21 C14 1.195 . S
O22 Mg13 2.048 . S
O22 C23 1.195 . S
C23 O22 1.195 . S
C23 O24 1.313 . S
O24 C23 1.313 . S
O25 Mg13 2.141 . S
O25 C16 1.289 . S
Mg26 O33 2.141 . S
Mg26 O34 2.048 . S
Mg26 O35 2.048 . S
Mg26 O38 2.141 . S
C27 O28 1.313 . S
C27 O34 1.195 . S
O28 C27 1.313 . S
C29 O30 1.245 . S
C29 O38 1.289 . S
O30 C29 1.245 . S
C31 O32 1.245 . S
C31 O33 1.289 . S
O32 C31 1.245 . S
O33 Mg26 2.141 . S
O33 C31 1.289 . S
O34 Mg26 2.048 . S
O34 C27 1.195 . S
O35 Mg26 2.048 . S
O35 C36 1.195 . S
C36 O35 1.195 . S
C36 O37 1.313 . S
O37 C36 1.313 . S
O38 Mg26 2.141 . S
O38 C29 1.289 . S
Mg39 O46 2.141 . S
Mg39 O47 2.048 . S
Mg39 O48 2.048 1_554 S
Mg39 O51 2.141 . S
C40 O41 1.313 . S
C40 O47 1.195 . S
O41 C40 1.313 . S
C42 O43 1.245 . S
C42 O51 1.289 . S
O43 C42 1.245 . S
C44 O45 1.245 . S
C44 O46 1.289 . S
O45 C44 1.245 . S
O46 Mg39 2.141 . S
O46 C44 1.289 . S
O47 Mg39 2.048 . S
O47 C40 1.195 . S
O48 Mg39 2.048 1_556 S
O48 C49 1.195 . S
C49 O48 1.195 . S
C49 O50 1.313 . S
O50 C49 1.313 . S
O51 Mg39 2.141 . S
O51 C42 1.289 . S
Mg52 O59 2.141 . S
Mg52 O60 2.048 . S
Mg52 O61 2.048 . S
Mg52 O64 2.141 . S
C53 O54 1.313 . S
C53 O60 1.195 . S
O54 C53 1.313 . S
C55 O56 1.245 . S
C55 O64 1.289 . S
O56 C55 1.245 . S
C57 O58 1.245 . S
C57 O59 1.289 . S
O58 C57 1.245 . S
O59 Mg52 2.141 . S
O59 C57 1.289 . S
O60 Mg52 2.048 . S
O60 C53 1.195 . S
O61 Mg52 2.048 . S
O61 C62 1.195 . S
C62 O61 1.195 . S
C62 O63 1.313 . S
O63 C62 1.313 . S
O64 Mg52 2.141 . S
O64 C55 1.289 . S
Mg65 O72 2.141 . S
Mg65 O73 2.048 . S
Mg65 O74 2.048 . S
Mg65 O77 2.141 . S
C66 O67 1.313 . S
C66 O73 1.195 . S
O67 C66 1.313 . S
C68 O69 1.245 . S
C68 O77 1.289 . S
O69 C68 1.245 . S
C70 O71 1.245 . S
C70 O72 1.289 . S
O71 C70 1.245 . S
O72 Mg65 2.141 . S
O72 C70 1.289 . S
O73 Mg65 2.048 . S
O73 C66 1.195 . S
O74 Mg65 2.048 . S
O74 C75 1.195 . S
C75 O74 1.195 . S
C75 O76 1.313 . S
O76 C75 1.313 . S
O77 Mg65 2.141 . S
O77 C68 1.289 . S
Mg78 O85 2.141 . S
Mg78 O86 2.048 . S
Mg78 O87 2.048 . S
Mg78 O90 2.141 . S
C79 O80 1.313 . S
C79 O86 1.195 . S
O80 C79 1.313 . S
C81 O82 1.245 . S
C81 O90 1.289 . S
O82 C81 1.245 . S
C83 O84 1.245 . S
C83 O85 1.289 . S
O84 C83 1.245 . S
O85 Mg78 2.141 . S
O85 C83 1.289 . S
O86 Mg78 2.048 . S
O86 C79 1.195 . S
O87 Mg78 2.048 . S
O87 C88 1.195 . S
C88 O87 1.195 . S
C88 O89 1.313 . S
O89 C88 1.313 . S
O90 Mg78 2.141 . S
O90 C81 1.289 . S
Mg91 O98 2.141 . S
Mg91 O99 2.048 . S
Mg91 O100 2.048 1_556 S
Mg91 O103 2.141 . S
C92 O93 1.313 . S
C92 O99 1.195 . S
O93 C92 1.313 . S
C94 O95 1.245 . S
C94 O103 1.289 . S
O95 C94 1.245 . S
C96 O97 1.245 . S
C96 O98 1.289 . S
O97 C96 1.245 . S
O98 Mg91 2.141 . S
O98 C96 1.289 . S
O99 Mg91 2.048 . S
O99 C92 1.195 . S
O100 Mg91 2.048 1_554 S
O100 C101 1.195 . S
C101 O100 1.195 . S
C101 O102 1.313 . S
O102 C101 1.313 . S
O103 Mg91 2.141 . S
O103 C94 1.289 . S
Mg104 O111 2.141 . S
Mg104 O112 2.048 . S
Mg104 O113 2.048 . S
Mg104 O116 2.141 . S
C105 O106 1.313 . S
C105 O112 1.195 . S
O106 C105 1.313 . S
C107 O108 1.245 . S
C107 O116 1.289 . S
O108 C107 1.245 . S
C109 O110 1.245 . S
C109 O111 1.289 . S
O110 C109 1.245 . S
O111 Mg104 2.141 . S
O111 C109 1.289 . S
O112 Mg104 2.048 . S
O112 C105 1.195 . S
O113 Mg104 2.048 . S
O113 C114 1.195 . S
C114 O113 1.195 . S
C114 O115 1.313 . S
O115 C114 1.313 . S
O116 Mg104 2.141 . S
O116 C107 1.289 . S
Mg117 O124 2.141 . S
Mg117 O125 2.048 . S
Mg117 O126 2.048 . S
Mg117 O129 2.141 . S
C118 O119 1.313 . S
C118 O125 1.195 . S
O119 C118 1.313 . S
C120 O121 1.245 . S
C120 O129 1.289 . S
O121 C120 1.245 . S
C122 O123 1.245 . S
C122 O124 1.289 . S
O123 C122 1.245 . S
O124 Mg117 2.141 . S
O124 C122 1.289 . S
O125 Mg117 2.048 . S
O125 C118 1.195 . S
O126 Mg117 2.048 . S
O126 C127 1.195 . S
C127 O126 1.195 . S
C127 O128 1.313 . S
O128 C127 1.313 . S
O129 Mg117 2.141 . S
O129 C120 1.289 . S
Mg130 O137 2.141 . S
Mg130 O138 2.048 . S
Mg130 O139 2.048 1_556 S
Mg130 O142 2.141 . S
C131 O132 1.313 . S
C131 O138 1.195 . S
O132 C131 1.313 . S
C133 O134 1.245 . S
C133 O142 1.289 . S
O134 C133 1.245 . S
C135 O136 1.245 . S
C135 O137 1.289 . S
O136 C135 1.245 . S
O137 Mg130 2.141 . S
O137 C135 1.289 . S
O138 Mg130 2.048 . S
O138 C131 1.195 . S
O139 Mg130 2.048 1_554 S
O139 C140 1.195 . S
C140 O139 1.195 . S
C140 O141 1.313 . S
O141 C140 1.313 . S
O142 Mg130 2.141 . S
O142 C133 1.289 . S
Mg143 O150 2.141 . S
Mg143 O151 2.048 . S
Mg143 O152 2.048 . S
Mg143 O155 2.141 . S
C144 O145 1.313 . S
C144 O151 1.195 . S
O145 C144 1.313 . S
C146 O147 1.245 . S
C146 O155 1.289 . S
O147 C146 1.245 . S
C148 O149 1.245 . S
C148 O150 1.289 . S
O149 C148 1.245 . S
O150 Mg143 2.141 . S
O150 C148 1.289 . S
O151 Mg143 2.048 . S
O151 C144 1.195 . S
O152 Mg143 2.048 . S
O152 C153 1.195 . S
C153 O152 1.195 . S
C153 O154 1.313 . S
O154 C153 1.313 . S
O155 Mg143 2.141 . S
O155 C146 1.289 . S
C156 C157 1.170 . S
C156 C158 1.380 . S
C157 C156 1.170 . S
C158 C156 1.380 . S
C158 C159 1.170 . S
C159 C158 1.170 . S
C160 C161 1.170 . S
C160 C162 1.380 . S
C161 C160 1.170 . S
C162 C160 1.380 . S
C162 C163 1.170 . S
C163 C162 1.170 . S
C164 C165 1.170 . S
C164 C166 1.380 1_556 S
C165 C164 1.170 . S
C166 C164 1.380 1_554 S
C166 C167 1.170 . S
C167 C166 1.170 . S
C168 C169 1.170 . S
C168 C170 1.380 . S
C169 C168 1.170 . S
C170 C168 1.380 . S
C170 C171 1.170 . S
C171 C170 1.170 . S
C172 C173 1.170 . S
C172 C174 1.380 . S
C173 C172 1.170 . S
C174 C172 1.380 . S
C174 C175 1.170 . S
C175 C174 1.170 . S
C176 C177 1.170 . S
C176 C178 1.380 1_554 S
C177 C176 1.170 . S
C178 C176 1.380 1_556 S
C178 C179 1.170 . S
C179 C178 1.170 . S
C180 C181 1.170 . S
C180 C182 1.380 1_554 S
C181 C180 1.170 . S
C182 C180 1.380 1_556 S
C182 C183 1.170 . S
C183 C182 1.170 . S
C184 C185 1.170 . S
C184 C186 1.380 . S
C185 C184 1.170 . S
C186 C184 1.380 . S
C186 C187 1.170 . S
C187 C186 1.170 . S
C188 C189 1.170 . S
C188 C190 1.380 . S
C189 C188 1.170 . S
C190 C188 1.380 . S
C190 C191 1.170 . S
C191 C190 1.170 . S
C192 C193 1.170 . S
C192 C194 1.380 1_554 S
C193 C192 1.170 . S
C194 C192 1.380 1_556 S
C194 C195 1.170 . S
C195 C194 1.170 . S
C196 C197 1.170 . S
C196 C198 1.380 . S
C197 C196 1.170 . S
C198 C196 1.380 . S
C198 C199 1.170 . S
C199 C198 1.170 . S
C200 C201 1.170 . S
C200 C202 1.380 . S
C201 C200 1.170 . S
C202 C200 1.380 . S
C202 C203 1.170 . S
C203 C202 1.170 . S
C204 C205 1.170 . S
C204 C206 1.380 . S
C205 C204 1.170 . S
C206 C204 1.380 . S
C206 C207 1.170 . S
C207 C206 1.170 . S
C208 C209 1.170 . S
C208 C210 1.380 1_655 S
C209 C208 1.170 . S
C210 C208 1.380 1_455 S
C210 C211 1.170 . S
C211 C210 1.170 . S
C212 C213 1.170 . S
C212 C214 1.380 1_545 S
C213 C212 1.170 . S
C214 C212 1.380 1_565 S
C214 C215 1.170 . S
C215 C214 1.170 . S
C216 C217 1.170 . S
C216 C218 1.380 . S
C217 C216 1.170 . S
C218 C216 1.380 . S
C218 C219 1.170 . S
C219 C218 1.170 . S
C220 C221 1.170 . S
C220 C222 1.380 1_455 S
C221 C220 1.170 . S
C222 C220 1.380 1_655 S
C222 C223 1.170 . S
C223 C222 1.170 . S
C224 C225 1.170 . S
C224 C226 1.380 1_565 S
C225 C224 1.170 . S
C226 C224 1.380 1_545 S
C226 C227 1.170 . S
C227 C226 1.170 . S
C228 C229 1.170 . S
C228 C230 1.380 . S
C229 C228 1.170 . S
C230 C228 1.380 . S
C230 C231 1.170 . S
C231 C230 1.170 . S
C232 C233 1.170 . S
C232 C234 1.380 . S
C233 C232 1.170 . S
C234 C232 1.380 . S
C234 C235 1.170 . S
C235 C234 1.170 . S
C236 C237 1.170 . S
C236 C238 1.380 . S
C237 C236 1.170 . S
C238 C236 1.380 . S
C238 C239 1.170 . S
C239 C238 1.170 . S
C240 C241 1.170 . S
C240 C242 1.380 . S
C241 C240 1.170 . S
C242 C240 1.380 . S
C242 C243 1.170 . S
C243 C242 1.170 . S
C244 C245 1.170 . S
C244 C246 1.380 . S
C245 C244 1.170 . S
C246 C244 1.380 . S
C246 C247 1.170 . S
C247 C246 1.170 . S
C248 C249 1.170 . S
C248 C250 1.380 . S
C249 C248 1.170 . S
C250 C248 1.380 . S
C250 C251 1.170 . S
C251 C250 1.170 . S
C157 C5 1.701 . S
C159 C83 1.717 . S
C161 C18 1.715 . S
C163 C96 1.703 . S
C165 C31 1.698 . S
C167 C109 1.720 . S
C169 C44 1.700 . S
C171 C122 1.717 . S
C173 C57 1.701 . S
C175 C135 1.709 . S
C177 C148 1.709 . S
C179 C70 1.710 . S
C181 C3 1.794 . S
C183 C133 1.776 . S
C185 C16 1.773 . S
C187 C146 1.792 . S
C189 C29 1.785 . S
C191 C81 1.789 . S
C193 C42 1.778 . S
C195 C94 1.793 . S
C197 C55 1.789 . S
C199 C107 1.774 . S
C201 C68 1.773 . S
C203 C120 1.790 . S
C205 C1 1.796 . S
C207 C40 1.776 . S
C209 C14 1.793 . S
C211 C53 1.781 . S
C213 C66 1.796 . S
C215 C27 1.777 . S
C217 C79 1.790 . S
C219 C118 1.780 . S
C221 C131 1.792 . S
C223 C92 1.778 . S
C225 C105 1.794 . S
C227 C144 1.780 . S
C229 C88 1.042 . S
C231 C10 1.013 . S
C233 C23 1.019 . S
C235 C101 1.010 . S
C237 C36 1.003 . S
C239 C114 1.034 . S
C241 C127 1.036 . S
C243 C49 1.025 . S
C245 C140 1.028 . S
C247 C62 1.034 . S
C249 C75 1.042 . S
C251 C153 1.009 . S
