# Generated by pormake.
# Topology pcu, (6)-cn, num edge types: 1
# Building blocks:
#     Node 0, Type 0, BuildingBlock: KUMBOL_clean_sbu_1, # of connection points: 6
#     Edge 1, Type (0, 0), BuildingBlock: CIFDUS_clean_linker_0, # of connection points: 2
#     Edge 2, Type (0, 0), BuildingBlock: CIFDUS_clean_linker_0, # of connection points: 2
#     Edge 3, Type (0, 0), BuildingBlock: CIFDUS_clean_linker_0, # of connection points: 2
# Relax obj value: 0.000
# Max RMSD: 0.000
# Mean RMSD: 0.000
data_MOF--net-pcu--node1-KUMBOL_clean_sbu_1--edge1-CIFDUS_clean_linker_0
_symmetry_space_group_name_H-M    P1
_symmetry_Int_Tables_number       1
_symmetry_cell_setting            triclinic
loop_
_symmetry_equiv_pos_as_xyz
'x, y, z'
_cell_length_a     13.076281
_cell_length_b     22.966995
_cell_length_c     13.021233
_cell_angle_alpha  113.73581
_cell_angle_beta   89.418453
_cell_angle_gamma 115.10467
loop_
_atom_site_label
_atom_site_type_symbol
_atom_site_fract_x
_atom_site_fract_y
_atom_site_fract_z
_atom_type_partial_charge
C0 C 0.37311 0.19414 0.18795 0.0
C1 C 0.48977 0.19129 0.04133 0.0
C2 C 0.38125 0.17484 0.07329 0.0
C3 C 0.58924 0.22648 0.12543 0.0
C4 C 0.47305 0.22977 0.27258 0.0
C5 C 0.58096 0.24581 0.24069 0.0
N6 N 0.26733 0.17668 0.21637 0.0
C7 C 0.25557 0.19515 0.32771 0.0
C8 C 0.46149 0.24778 0.38684 0.0
C9 C 0.35229 0.23065 0.41451 0.0
Gd10 Gd 0.92423 0.90322 0.93732 0.0
Gd11 Gd 0.11143 0.11667 0.06431 0.0
N12 N 0.28302 0.13885 0.99301 0.0
C13 C 0.49517 0.17194 0.92564 0.0
C14 C 0.28872 0.12414 0.88133 0.0
C15 C 0.3943 0.13909 0.84554 0.0
H16 H 0.21315 0.10284 0.81984 0.0
H17 H 0.39795 0.1262 0.7564 0.0
H18 H 0.82251 0.91705 0.18178 0.0
H19 H 0.17191 0.18393 0.35003 0.0
H20 H 0.63771 0.8937 0.24523 0.0
H21 H 0.5769 0.18353 0.89769 0.0
H22 H 0.67286 0.23886 0.10186 0.0
H23 H 0.86376 0.83595 0.65159 0.0
H24 H 0.53627 0.27519 0.4543 0.0
H25 H 0.34262 0.24511 0.50274 0.0
H26 H 0.36281 0.78103 0.89976 0.0
H27 H 0.65836 0.27298 0.30473 0.0
H28 H 0.49939 0.7447 0.54732 0.0
H29 H 0.69305 0.77478 0.49889 0.0
N30 N 0.76833 0.84321 0.78525 0.0
C31 C 0.66255 0.82575 0.81367 0.0
C32 C 0.78009 0.82473 0.67391 0.0
C33 C 0.57418 0.7721 0.61478 0.0
C34 C 0.68337 0.78924 0.58711 0.0
C35 C 0.56262 0.79012 0.72904 0.0
H36 H 0.3773 0.7469 0.69689 0.0
N37 N 0.75263 0.88103 0.00861 0.0
C38 C 0.65441 0.84505 0.92833 0.0
C39 C 0.54049 0.84796 0.07598 0.0
C40 C 0.54589 0.8286 0.96029 0.0
C41 C 0.74694 0.89575 0.1203 0.0
C42 C 0.64136 0.88081 0.15608 0.0
O43 O 0.20039 0.0507 0.06778 0.0
O44 O 0.10713 0.94284 0.90838 0.0
O45 O 0.94028 0.83618 0.0097 0.0
O46 O 0.88013 0.7924 0.82814 0.0
O47 O 0.02114 0.05295 0.87797 0.0
O48 O 1.01709 0.94229 0.81403 0.0
O49 O 0.83527 0.96918 0.93385 0.0
O50 O 0.92853 0.07705 0.09326 0.0
O51 O 0.09538 0.18371 0.99193 0.0
O52 O 0.15553 0.22749 0.17349 0.0
O53 O 1.01452 0.96694 0.12366 0.0
O54 O 0.01858 0.0776 0.1876 0.0
C55 C 0.20042 0.99401 0.98492 0.0
C56 C 1.01717 0.99457 0.79553 0.0
C57 C 0.98556 0.74558 0.88633 0.0
C58 C 0.04179 0.66187 0.90929 0.0
C59 C 0.12851 0.71832 0.78608 0.0
C60 C 0.06337 0.7554 0.81257 0.0
C61 C 0.11829 0.67201 0.83404 0.0
C62 C 0.97542 0.6991 0.93484 0.0
C63 C 0.91168 0.78142 0.91024 0.0
C64 C 0.44643 0.79341 0.87619 0.0
C65 C 0.45471 0.77408 0.76093 0.0
H66 H 0.45876 0.83636 0.10393 0.0
C67 C 0.83525 0.02587 0.01671 0.0
C68 C 0.01849 0.02532 0.20611 0.0
C69 C 0.05011 0.27431 0.1153 0.0
C70 C 0.99387 0.35802 0.09234 0.0
C71 C 0.90716 0.30157 0.21554 0.0
C72 C 0.9723 0.26449 0.18906 0.0
C73 C 0.91737 0.34788 0.16758 0.0
C74 C 0.06025 0.32078 0.06679 0.0
C75 C 0.12398 0.23847 0.09139 0.0
H76 H 0.18715 0.72556 0.72804 0.0
H77 H 0.0728 0.79105 0.77438 0.0
H78 H 0.1715 0.64491 0.81335 0.0
H79 H 0.91412 0.69095 0.99061 0.0
H80 H 0.84852 0.29432 0.27358 0.0
H81 H 0.96286 0.22884 0.22724 0.0
H82 H 0.86416 0.37498 0.18828 0.0
H83 H 0.12155 0.32894 0.01102 0.0
H84 H 0.05686 0.94232 0.28585 0.0
H85 H 0.97415 0.11844 0.38842 0.0
H86 H 0.96532 0.12373 0.5791 0.0
H87 H 0.97881 0.07757 0.71578 0.0
H88 H 0.06151 0.90144 0.61321 0.0
H89 H 0.07035 0.89616 0.42253 0.0
C90 C 0.03706 0.98198 0.34988 0.0
C91 C 1.01717 0.0303 0.32303 0.0
C92 C 0.03084 0.98424 0.45893 0.0
C93 C 0.99141 0.08122 0.40711 0.0
C94 C 0.98559 0.08401 0.51602 0.0
C95 C 0.9986 0.0379 0.65175 0.0
C96 C 0.01849 0.98959 0.6786 0.0
C97 C 1.00482 0.03565 0.54271 0.0
C98 C 0.04425 0.93866 0.59452 0.0
C99 C 0.05007 0.93588 0.48562 0.0
H100 H 0.39558 0.06746 0.14812 0.0
H101 H 0.25339 0.9108 0.7963 0.0
H102 H 0.43725 0.90804 0.7744 0.0
H103 H 0.64008 0.95243 0.85351 0.0
H104 H 0.78227 0.10908 0.20533 0.0
H105 H 0.59841 0.11185 0.22723 0.0
C106 C 0.40499 0.0332 0.0663 0.0
C107 C 0.31082 0.99003 0.97372 0.0
C108 C 0.51158 0.03256 0.05381 0.0
C109 C 0.32407 0.94458 0.86916 0.0
C110 C 0.42955 0.94328 0.8563 0.0
C111 C 0.63067 0.98669 0.93534 0.0
C112 C 0.72484 0.02985 0.02792 0.0
C113 C 0.52409 0.98733 0.94783 0.0
C114 C 0.71159 0.0753 0.13247 0.0
C115 C 0.60612 0.07661 0.14533 0.0
H116 H 0.03696 0.53084 0.8049 0.0
H117 H 0.02292 0.68184 0.1292 0.0
H118 H 1.00619 0.60139 0.21377 0.0
H119 H 0.99871 0.48905 0.19673 0.0
H120 H 1.01275 0.33805 0.87243 0.0
H121 H 0.02948 0.4185 0.78786 0.0
C122 C 0.03129 0.54651 0.89437 0.0
C123 C 0.03114 0.61244 0.9604 0.0
C124 C 0.02249 0.50018 0.94279 0.0
C125 C 0.02173 0.63113 0.07581 0.0
C126 C 1.0129 0.58532 0.12451 0.0
C127 C 1.00438 0.47337 0.10725 0.0
C128 C 1.00453 0.40745 0.04122 0.0
C129 C 1.01317 0.51971 0.05884 0.0
C130 C 1.01393 0.38876 0.92582 0.0
C131 C 0.02277 0.43457 0.87712 0.0
loop_
_geom_bond_atom_site_label_1
_geom_bond_atom_site_label_2
_geom_bond_distance
_geom_bond_site_symmetry_2
_ccdc_geom_bond_type
C0 C2 1.422 . S
C0 C4 1.415 . S
C0 N6 1.369 . S
C1 C2 1.421 . S
C1 C3 1.417 . S
C1 C13 1.422 . S
C2 C0 1.422 . S
C2 C1 1.421 . S
C2 N12 1.359 . S
C3 C1 1.417 . S
C3 C5 1.329 . S
C3 H22 0.930 . S
C4 C0 1.415 . S
C4 C5 1.437 . S
C4 C8 1.413 . S
C5 C3 1.329 . S
C5 C4 1.437 . S
C5 H27 0.929 . S
N6 C0 1.369 . S
N6 C7 1.338 . S
N6 Gd11 2.622 . S
C7 N6 1.338 . S
C7 C9 1.378 . S
C7 H19 0.929 . S
C8 C4 1.413 . S
C8 C9 1.348 . S
C8 H24 0.931 . S
C9 C7 1.378 . S
C9 C8 1.348 . S
C9 H25 0.930 . S
Gd10 N30 2.622 . S
Gd10 N37 2.570 . S
Gd10 O44 2.353 1_655 S
Gd10 O45 2.468 . S
Gd10 O46 2.427 . S
Gd10 O48 2.388 . S
Gd10 O49 2.386 . S
Gd10 O53 2.307 1_556 S
Gd10 C63 2.805 . S
Gd11 N6 2.622 . S
Gd11 N12 2.570 . S
Gd11 O43 2.386 . S
Gd11 O47 2.307 1_554 S
Gd11 O50 2.353 1_455 S
Gd11 O51 2.468 . S
Gd11 O52 2.427 . S
Gd11 O54 2.388 . S
Gd11 C75 2.805 . S
N12 C2 1.359 . S
N12 Gd11 2.570 . S
N12 C14 1.343 1_554 S
C13 C1 1.422 . S
C13 C15 1.321 1_554 S
C13 H21 0.931 1_554 S
C14 N12 1.343 1_556 S
C14 C15 1.390 . S
C14 H16 0.931 . S
C15 C13 1.321 1_556 S
C15 C14 1.390 . S
C15 H17 0.930 . S
H16 C14 0.931 . S
H17 C15 0.930 . S
H18 C41 0.931 . S
H19 C7 0.929 . S
H20 C42 0.930 . S
H21 C13 0.931 1_556 S
H22 C3 0.930 . S
H23 C32 0.929 . S
H24 C8 0.931 . S
H25 C9 0.930 . S
H26 C64 0.930 . S
H27 C5 0.929 . S
H28 C33 0.931 . S
H29 C34 0.930 . S
N30 Gd10 2.622 . S
N30 C31 1.369 . S
N30 C32 1.338 . S
C31 N30 1.369 . S
C31 C35 1.415 . S
C31 C38 1.422 . S
C32 H23 0.929 . S
C32 N30 1.338 . S
C32 C34 1.378 . S
C33 H28 0.931 . S
C33 C34 1.348 . S
C33 C35 1.413 . S
C34 H29 0.930 . S
C34 C32 1.378 . S
C34 C33 1.348 . S
C35 C31 1.415 . S
C35 C33 1.413 . S
C35 C65 1.437 . S
H36 C65 0.929 . S
N37 Gd10 2.570 . S
N37 C38 1.359 . S
N37 C41 1.343 1_556 S
C38 C31 1.422 . S
C38 N37 1.359 . S
C38 C40 1.421 . S
C39 C40 1.422 . S
C39 C42 1.321 1_556 S
C39 H66 0.931 1_556 S
C40 C38 1.421 . S
C40 C39 1.422 . S
C40 C64 1.417 . S
C41 H18 0.931 . S
C41 N37 1.343 1_554 S
C41 C42 1.390 . S
C42 H20 0.930 . S
C42 C39 1.321 1_554 S
C42 C41 1.390 . S
O43 Gd11 2.386 . S
O43 C55 1.263 1_545 S
O44 Gd10 2.353 1_455 S
O44 C55 1.243 1_556 S
O45 Gd10 2.468 . S
O45 C63 1.263 . S
O46 Gd10 2.427 . S
O46 C63 1.252 . S
O47 Gd11 2.307 1_556 S
O47 C56 1.261 1_545 S
O48 Gd10 2.388 . S
O48 C56 1.252 1_655 S
O49 Gd10 2.386 . S
O49 C67 1.259 1_565 S
O50 Gd11 2.353 1_655 S
O50 C67 1.245 1_554 S
O51 Gd11 2.468 . S
O51 C75 1.263 . S
O52 Gd11 2.427 . S
O52 C75 1.252 . S
O53 Gd10 2.307 1_554 S
O53 C68 1.261 1_565 S
O54 Gd11 2.388 . S
O54 C68 1.252 1_455 S
C55 O43 1.263 1_565 S
C55 O44 1.243 1_554 S
C56 O47 1.261 1_565 S
C56 O48 1.252 1_455 S
C57 C60 1.394 . S
C57 C62 1.370 . S
C57 C63 1.500 . S
C58 C61 1.383 . S
C58 C62 1.395 . S
C59 C60 1.396 . S
C59 C61 1.365 . S
C59 H76 0.929 . S
C60 C57 1.394 . S
C60 C59 1.396 . S
C60 H77 0.930 . S
C61 C58 1.383 . S
C61 C59 1.365 . S
C61 H78 0.931 . S
C62 C57 1.370 . S
C62 C58 1.395 . S
C62 H79 0.930 1_556 S
C63 Gd10 2.805 . S
C63 O45 1.263 . S
C63 O46 1.252 . S
C63 C57 1.500 . S
C64 H26 0.930 . S
C64 C40 1.417 . S
C64 C65 1.329 . S
C65 C35 1.437 . S
C65 H36 0.929 . S
C65 C64 1.329 . S
H66 C39 0.931 1_554 S
C67 O49 1.259 1_545 S
C67 O50 1.245 1_556 S
C68 O53 1.261 1_545 S
C68 O54 1.252 1_655 S
C69 C72 1.394 . S
C69 C74 1.370 . S
C69 C75 1.500 . S
C70 C73 1.383 . S
C70 C74 1.395 . S
C71 C72 1.396 . S
C71 C73 1.365 . S
C71 H80 0.929 . S
C72 C69 1.394 . S
C72 C71 1.396 . S
C72 H81 0.930 . S
C73 C70 1.383 . S
C73 C71 1.365 . S
C73 H82 0.931 . S
C74 C69 1.370 . S
C74 C70 1.395 . S
C74 H83 0.930 1_554 S
C75 Gd11 2.805 . S
C75 O51 1.263 . S
C75 O52 1.252 . S
C75 C69 1.500 . S
H76 C59 0.929 . S
H77 C60 0.930 . S
H78 C61 0.931 . S
H79 C62 0.930 1_554 S
H80 C71 0.929 . S
H81 C72 0.930 . S
H82 C73 0.931 . S
H83 C74 0.930 1_556 S
H84 C90 0.930 . S
H85 C93 0.930 . S
H86 C94 0.930 . S
H87 C95 0.930 . S
H88 C98 0.930 . S
H89 C99 0.930 . S
C90 H84 0.930 . S
C90 C91 1.355 1_465 S
C90 C92 1.415 . S
C91 C90 1.355 1_645 S
C91 C93 1.419 . S
C92 C90 1.415 . S
C92 C97 1.425 1_465 S
C92 C99 1.409 . S
C93 H85 0.930 . S
C93 C91 1.419 . S
C93 C94 1.362 . S
C94 H86 0.930 . S
C94 C93 1.362 . S
C94 C97 1.409 . S
C95 H87 0.930 . S
C95 C96 1.355 1_645 S
C95 C97 1.415 . S
C96 C95 1.355 1_465 S
C96 C98 1.419 . S
C97 C92 1.425 1_645 S
C97 C94 1.409 . S
C97 C95 1.415 . S
C98 H88 0.930 . S
C98 C96 1.419 . S
C98 C99 1.362 . S
C99 H89 0.930 . S
C99 C92 1.409 . S
C99 C98 1.362 . S
H100 C106 0.930 . S
H101 C109 0.930 . S
H102 C110 0.930 . S
H103 C111 0.925 . S
H104 C114 0.930 . S
H105 C115 0.930 . S
C106 H100 0.930 . S
C106 C107 1.355 1_544 S
C106 C108 1.415 . S
C107 C106 1.355 1_566 S
C107 C109 1.419 . S
C108 C106 1.415 . S
C108 C113 1.425 1_544 S
C108 C115 1.409 . S
C109 H101 0.930 . S
C109 C107 1.419 . S
C109 C110 1.362 . S
C110 H102 0.930 . S
C110 C109 1.362 . S
C110 C113 1.409 . S
C111 H103 0.925 . S
C111 C112 1.358 1_566 S
C111 C113 1.416 . S
C112 C111 1.358 1_544 S
C112 C114 1.419 . S
C113 C108 1.425 1_566 S
C113 C110 1.409 . S
C113 C111 1.416 . S
C114 H104 0.930 . S
C114 C112 1.419 . S
C114 C115 1.362 . S
C115 H105 0.930 . S
C115 C108 1.409 . S
C115 C114 1.362 . S
H116 C122 0.930 . S
H117 C125 0.930 . S
H118 C126 0.930 . S
H119 C127 0.930 . S
H120 C130 0.930 . S
H121 C131 0.930 . S
C122 H116 0.930 . S
C122 C123 1.355 1_656 S
C122 C124 1.415 . S
C123 C122 1.355 1_454 S
C123 C125 1.419 . S
C124 C122 1.415 . S
C124 C129 1.425 1_656 S
C124 C131 1.409 . S
C125 H117 0.930 . S
C125 C123 1.419 . S
C125 C126 1.362 . S
C126 H118 0.930 . S
C126 C125 1.362 . S
C126 C129 1.409 . S
C127 H119 0.930 . S
C127 C128 1.355 1_454 S
C127 C129 1.415 . S
C128 C127 1.355 1_656 S
C128 C130 1.419 . S
C129 C124 1.425 1_454 S
C129 C126 1.409 . S
C129 C127 1.415 . S
C130 H120 0.930 . S
C130 C128 1.419 . S
C130 C131 1.362 . S
C131 H121 0.930 . S
C131 C124 1.409 . S
C131 C130 1.362 . S
C91 C68 1.455 . S
C96 C56 1.455 . S
C107 C55 1.489 1_556 S
C112 C67 1.492 1_554 S
C123 C58 1.408 1_454 S
C128 C70 1.408 1_656 S
