# Generated by pormake.
# Topology bto, (3)-cn, num edge types: 1
# Building blocks:
#     Node 0, Type 0, BuildingBlock: WUSLED_clean_sbu_0, # of connection points: 3
#     Node 1, Type 0, BuildingBlock: WUSLED_clean_sbu_0, # of connection points: 3
#     Node 2, Type 0, BuildingBlock: WUSLED_clean_sbu_0, # of connection points: 3
#     Node 3, Type 0, BuildingBlock: WUSLED_clean_sbu_0, # of connection points: 3
#     Node 4, Type 0, BuildingBlock: WUSLED_clean_sbu_0, # of connection points: 3
#     Node 5, Type 0, BuildingBlock: WUSLED_clean_sbu_0, # of connection points: 3
#     Edge 6, Type (0, 0), None
#     Edge 7, Type (0, 0), None
#     Edge 8, Type (0, 0), None
#     Edge 9, Type (0, 0), None
#     Edge 10, Type (0, 0), None
#     Edge 11, Type (0, 0), None
#     Edge 12, Type (0, 0), None
#     Edge 13, Type (0, 0), None
#     Edge 14, Type (0, 0), None
# Relax obj value: 0.000
# Max RMSD: 0.000
# Mean RMSD: 0.000
data_MOF--net-bto--node1-WUSLED_clean_sbu_0--edge1-none
_symmetry_space_group_name_H-M    P1
_symmetry_Int_Tables_number       1
_symmetry_cell_setting            triclinic
loop_
_symmetry_equiv_pos_as_xyz
'x, y, z'
_cell_length_a     25.297908
_cell_length_b     25.335841
_cell_length_c     63.976854
_cell_angle_alpha  88.667082
_cell_angle_beta   90.732047
_cell_angle_gamma 120.05501
loop_
_atom_site_label
_atom_site_type_symbol
_atom_site_fract_x
_atom_site_fract_y
_atom_site_fract_z
_atom_type_partial_charge
C0 C 0.9738 0.55395 0.04731 0.0
C1 C 0.92788 0.53706 0.06234 0.0
C2 C 0.86408 0.55236 0.03678 0.0
C3 C 0.87349 0.53608 0.05712 0.0
C4 C 0.91063 0.56968 1.02183 0.0
C5 C 0.96488 0.57038 1.02706 0.0
U6 U 0.08667 0.55573 0.08764 0.0
O7 O 0.13713 0.50588 0.08896 0.0
O8 O 0.18724 0.60592 0.08785 0.0
C9 C 0.19067 0.55588 0.08739 0.0
C10 C 1.03108 0.55475 0.05257 0.0
C11 C 0.23249 0.55539 0.07171 0.0
C12 C 0.25631 0.54415 0.03596 0.0
C13 C 0.21584 0.54478 0.05057 0.0
C14 C 0.33057 0.56514 0.06347 0.0
C15 C 0.31427 0.5543 0.04223 0.0
C16 C 0.29004 0.56562 0.07803 0.0
C17 C 1.04855 0.55711 0.14603 0.0
C18 C 1.06089 0.50943 0.1778 0.0
C19 C 1.05122 0.59947 0.18003 0.0
C20 C 1.04687 0.6015 0.15825 0.0
C21 C 1.05698 0.55267 0.19013 0.0
C22 C 1.05672 0.5116 0.15598 0.0
C23 C 1.03688 0.55676 0.1233 0.0
O24 O 0.07379 0.60511 0.06106 0.0
O25 O 1.02466 0.5051 0.0619 0.0
O26 O 1.02283 0.50651 0.11336 0.0
O27 O 0.07383 0.60667 0.11266 0.0
H28 H 0.93398 0.52434 0.07809 0.0
H29 H 0.83851 0.52176 0.06897 0.0
H30 H 0.90555 0.58348 1.00614 0.0
H31 H 1.0 0.58391 1.01529 0.0
H32 H 0.24183 0.5349 1.01981 0.0
H33 H 0.1715 0.53675 0.0454 0.0
H34 H 0.37502 0.57408 0.06884 0.0
H35 H 0.30375 0.57413 0.09429 0.0
H36 H 0.06474 0.47243 0.18503 0.0
H37 H 1.04912 0.63412 0.189 0.0
H38 H 1.04065 0.63706 0.15097 0.0
H39 H 1.05818 0.47667 0.14698 0.0
C40 C 0.69894 0.17342 0.38306 0.0
C41 C 0.72898 0.21935 0.3978 0.0
C42 C 0.80873 0.28121 0.37242 0.0
C43 C 0.78324 0.2728 0.39252 0.0
C44 C 0.77837 0.23471 0.35776 0.0
C45 C 0.72402 0.18141 0.36304 0.0
U46 U 0.58637 0.06158 0.42337 0.0
O47 O 0.48599 1.00961 0.42343 0.0
O48 O 0.5375 0.96105 0.42437 0.0
C49 C 0.4836 0.95662 0.4227 0.0
C50 C 0.64216 0.11665 0.38842 0.0
C51 C 0.44233 0.91411 0.40685 0.0
C52 C 0.39763 0.8933 0.37202 0.0
C53 C 0.43833 0.9344 0.38661 0.0
C54 C 0.36517 0.81103 0.39764 0.0
C55 C 0.36037 0.83103 0.37736 0.0
C56 C 0.40569 0.85219 0.41221 0.0
C57 C 0.62087 0.09682 0.48156 0.0
C58 C 0.56143 1.02552 0.50945 0.0
C59 C 0.64676 0.12478 0.51787 0.0
C60 C 0.6576 0.13921 0.49655 0.0
C61 C 0.59893 0.06751 0.52461 0.0
C62 C 0.5723 0.04008 0.4881 0.0
C63 C 0.63518 0.11189 0.45925 0.0
O64 O 0.64961 0.07425 0.39789 0.0
O65 O 0.59879 0.12345 0.3968 0.0
O66 O 0.59779 0.12422 0.44859 0.0
O67 O 0.64999 0.07641 0.44926 0.0
H68 H 0.7104 0.21389 0.41338 0.0
H69 H 0.8048 0.30782 0.40414 0.0
H70 H 0.79702 0.23901 0.34227 0.0
H71 H 0.70169 0.14622 0.35151 0.0
H72 H 0.39471 0.91056 0.35667 0.0
H73 H 0.46629 0.98206 0.38213 0.0
H74 H 0.33807 0.76339 0.40222 0.0
H75 H 0.40833 0.83562 0.42774 0.0
H76 H 0.52376 0.98133 0.51409 0.0
H77 H 0.67701 0.15788 0.52906 0.0
H78 H 0.6954 0.18318 0.49175 0.0
H79 H 0.54332 1.00686 0.4767 0.0
C80 C 0.57664 0.66369 0.71503 0.0
C81 C 0.55898 0.69182 0.72986 0.0
C82 C 0.57667 0.77285 0.70464 0.0
C83 C 0.5588 0.74574 0.7247 0.0
C84 C 0.59465 0.74444 0.6899 0.0
C85 C 0.59455 0.6904 0.69506 0.0
U86 U 0.57824 0.55121 0.75526 0.0
O87 O 0.53035 0.45095 0.75587 0.0
O88 O 0.63052 0.50301 0.75589 0.0
C89 C 0.5812 0.44896 0.75482 0.0
C90 C 0.57749 0.60717 0.72027 0.0
C91 C 0.58232 0.40792 0.73912 0.0
C92 C 0.56697 0.37046 0.70364 0.0
C93 C 0.56663 0.4108 0.71818 0.0
C94 C 0.59932 0.32446 0.73077 0.0
C95 C 0.5832 0.32661 0.70975 0.0
C96 C 0.59881 0.36467 0.74528 0.0
C97 C 0.57861 0.58559 0.81342 0.0
C98 C 0.59336 0.52815 0.84157 0.0
C99 C 0.57575 0.61108 0.84959 0.0
C100 C 0.57147 0.62138 0.82824 0.0
C101 C 0.58738 0.56475 0.85655 0.0
C102 C 0.58896 0.53847 0.82018 0.0
C103 C 0.57717 0.59954 0.79105 0.0
O104 O 0.62784 0.61491 0.72923 0.0
O105 O 0.52769 0.56325 0.7291 0.0
O106 O 0.52725 0.56187 0.78091 0.0
O107 O 0.62736 0.61468 0.78061 0.0
H108 H 0.54522 0.672 0.74541 0.0
H109 H 0.54396 0.76576 0.73638 0.0
H110 H 0.60968 0.76441 0.67444 0.0
H111 H 0.6088 0.66959 0.68346 0.0
H112 H 0.55358 0.37305 0.68767 0.0
H113 H 0.55375 0.44393 0.71313 0.0
H114 H 0.61302 0.29211 0.736 0.0
H115 H 0.61129 0.36196 0.76137 0.0
H116 H 0.6016 0.49163 0.84638 0.0
H117 H 0.57173 0.64064 0.86063 0.0
H118 H 0.56361 0.65807 0.82327 0.0
H119 H 0.59437 0.51023 0.80892 0.0
C120 C 0.57693 0.93975 0.68878 0.0
C121 C 0.55902 0.89388 0.67394 0.0
C122 C 0.57674 0.8305 0.69915 0.0
C123 C 0.55873 0.83972 0.67909 0.0
C124 C 0.59499 0.87697 0.71389 0.0
C125 C 0.59501 0.93098 0.70874 0.0
U126 U 0.57931 0.0544 0.64861 0.0
O127 O 0.53151 0.10684 0.6479 0.0
O128 O 0.63168 0.1549 0.64821 0.0
C129 C 0.58236 0.15962 0.64918 0.0
C130 C 0.5779 0.99718 0.68356 0.0
C131 C 0.5832 0.20156 0.66493 0.0
C132 C 0.56322 0.22213 0.70002 0.0
C133 C 0.56324 0.18164 0.68548 0.0
C134 C 0.60385 0.30304 0.67371 0.0
C135 C 0.5834 0.2834 0.69432 0.0
C136 C 0.60367 0.26249 0.65919 0.0
C137 C 0.58065 1.02106 0.59041 0.0
C138 C 0.59708 0.09382 0.56229 0.0
C139 C 0.57712 0.99247 0.55423 0.0
C140 C 0.5725 0.97779 0.57558 0.0
C141 C 0.5901 0.05087 0.5473 0.0
C142 C 0.59233 0.079 0.58367 0.0
C143 C 0.57883 1.00546 0.61278 0.0
O144 O 0.62842 1.03988 0.67475 0.0
O145 O 0.52828 0.99146 0.67458 0.0
O146 O 0.52874 0.99311 0.62278 0.0
O147 O 0.62885 0.04037 0.62337 0.0
H148 H 0.54514 0.89992 0.65839 0.0
H149 H 0.54369 0.80479 0.66741 0.0
H150 H 0.61015 0.87206 0.72934 0.0
H151 H 0.60946 0.9661 0.72034 0.0
H152 H 0.54647 0.20513 0.71565 0.0
H153 H 0.54727 0.13471 0.69022 0.0
H154 H 0.62065 0.34998 0.66883 0.0
H155 H 0.61949 0.27876 0.64342 0.0
H156 H 0.60636 0.13894 0.55749 0.0
H157 H 0.57228 0.95857 0.54318 0.0
H158 H 0.56359 0.93288 0.58053 0.0
H159 H 0.59852 0.11292 0.59494 0.0
C160 C 0.69622 0.54956 1.02071 0.0
C161 C 0.7246 0.53109 1.00621 0.0
C162 C 0.8061 0.5514 1.0312 0.0
C163 C 0.77889 0.53181 1.01142 0.0
C164 C 0.77743 0.57018 0.0456 0.0
C165 C 0.72304 0.56919 0.0404 0.0
U166 U 0.58321 0.54913 0.98056 0.0
O167 O 0.48283 0.50078 0.98053 0.0
O168 O 0.53441 0.60086 0.97968 0.0
C169 C 0.4805 0.5514 0.98134 0.0
C170 C 0.63938 0.54963 1.01543 0.0
C171 C 0.43934 0.55261 0.9972 0.0
C172 C 0.39433 0.5281 1.03195 0.0
C173 C 0.43492 0.52766 1.01736 0.0
C174 C 0.36281 0.57923 1.00652 0.0
C175 C 0.3576 0.5538 1.02671 0.0
C176 C 0.4032 0.57854 0.99194 0.0
C177 C 0.61747 0.54875 0.92232 0.0
C178 C 0.55903 0.56217 0.89437 0.0
C179 C 0.64287 0.54586 0.88603 0.0
C180 C 0.65352 0.54202 0.90736 0.0
C181 C 0.5959 0.55664 0.87925 0.0
C182 C 0.56971 0.55822 0.91573 0.0
C183 C 0.63173 0.5478 0.94463 0.0
O184 O 0.64676 0.59955 1.00605 0.0
O185 O 0.59582 0.49952 1.00704 0.0
O186 O 0.59433 0.49803 0.95524 0.0
O187 O 0.64663 0.59804 0.95469 0.0
H188 H 0.70471 0.51602 0.99087 0.0
H189 H 0.79911 0.5163 1.00001 0.0
H190 H 0.79744 0.58652 0.06082 0.0
H191 H 0.70204 0.58409 0.05173 0.0
H192 H 0.39111 0.50746 0.04724 0.0
H193 H 0.46248 0.50744 1.02176 0.0
H194 H 0.33614 0.60033 1.00202 0.0
H195 H 0.40617 0.59827 0.97648 0.0
H196 H 0.52202 0.56974 0.88969 0.0
H197 H 0.67263 0.54218 0.87487 0.0
H198 H 0.69069 0.53484 0.9122 0.0
H199 H 0.54125 0.5633 0.9271 0.0
C200 C 0.97634 0.4461 0.35617 0.0
C201 C 0.92912 0.4185 0.34144 0.0
C202 C 0.8667 0.33808 0.36677 0.0
C203 C 0.87478 0.36513 0.3467 0.0
C204 C 0.91457 0.36586 0.38139 0.0
C205 C 0.96878 0.41935 0.37613 0.0
U206 U 0.08696 0.56028 0.316 0.0
O207 O 0.13751 0.66054 0.31577 0.0
O208 O 0.18758 0.61063 0.31521 0.0
C209 C 0.19109 0.66398 0.31658 0.0
C210 C 1.0335 0.50266 0.35092 0.0
C211 C 0.23389 0.70512 0.33236 0.0
C212 C 0.25845 0.7401 0.36812 0.0
C213 C 0.21744 0.69939 0.3535 0.0
C214 C 0.33294 0.79216 0.34065 0.0
C215 C 0.31674 0.7872 0.36187 0.0
C216 C 0.29188 0.75156 0.32607 0.0
C217 C 1.04503 0.52872 0.25737 0.0
C218 C 0.092 0.52855 0.22432 0.0
C219 C 1.01381 0.55689 0.22479 0.0
C220 C 1.00875 0.54775 0.24646 0.0
C221 C 1.05504 0.54682 0.21339 0.0
C222 C 0.08703 0.51952 0.24606 0.0
C223 C 1.03467 0.51392 0.28006 0.0
O224 O 0.07519 0.49533 0.34151 0.0
O225 O 1.02689 0.54689 0.34255 0.0
O226 O 1.02145 0.54892 0.29111 0.0
O227 O 0.07165 0.4992 0.28986 0.0
H228 H 0.93416 0.43844 0.3259 0.0
H229 H 0.83877 0.34559 0.33511 0.0
H230 H 0.91052 0.3459 0.39686 0.0
H231 H 1.00489 0.43983 0.38766 0.0
H232 H 0.24406 0.73527 0.38425 0.0
H233 H 0.17276 0.66379 0.35865 0.0
H234 H 0.37763 0.8271 0.33529 0.0
H235 H 0.30541 0.75654 0.30981 0.0
H236 H 0.12456 0.52084 0.21606 0.0
H237 H 0.9838 0.56988 0.21689 0.0
H238 H 0.97525 0.55422 0.25464 0.0
H239 H 0.11537 0.50433 0.25391 0.0
loop_
_geom_bond_atom_site_label_1
_geom_bond_atom_site_label_2
_geom_bond_distance
_geom_bond_site_symmetry_2
_ccdc_geom_bond_type
C0 C1 1.264 . S
C0 C5 1.479 . S
C0 C10 1.465 . S
C1 C0 1.264 . S
C1 C3 1.339 . S
C1 H28 0.931 . S
C2 C3 1.395 . S
C2 C4 1.320 1_554 S
C3 C1 1.339 . S
C3 C2 1.395 . S
C3 H29 0.929 . S
C4 C2 1.320 1_556 S
C4 C5 1.405 1_556 S
C4 H30 0.930 . S
C5 C0 1.479 . S
C5 C4 1.405 1_554 S
C5 H31 0.931 1_554 S
U6 O7 2.454 . S
U6 O8 2.458 . S
U6 C9 2.984 . S
U6 C10 2.847 1_455 S
U6 C23 2.882 . S
U6 O24 2.441 1_455 S
U6 O25 2.420 1_455 S
U6 O26 2.455 . S
U6 O27 2.449 1_455 S
O7 U6 2.454 . S
O7 C9 1.353 . S
O8 U6 2.458 . S
O8 C9 1.286 . S
C9 U6 2.984 . S
C9 O7 1.353 . S
C9 O8 1.286 . S
C9 C11 1.363 . S
C10 C0 1.465 . S
C10 U6 2.847 1_655 S
C10 O24 1.249 . S
C10 O25 1.202 . S
C11 C9 1.363 . S
C11 C13 1.408 . S
C11 C16 1.342 . S
C12 C13 1.310 1_556 S
C12 C15 1.461 1_556 S
C12 H32 0.932 . S
C13 C11 1.408 . S
C13 C12 1.310 1_554 S
C13 H33 0.930 1_554 S
C14 C15 1.474 . S
C14 C16 1.285 . S
C14 H34 0.929 . S
C15 C12 1.461 1_554 S
C15 C14 1.474 . S
C16 C11 1.342 . S
C16 C14 1.285 . S
C16 H35 0.930 . S
C17 C20 1.424 1_455 S
C17 C22 1.245 . S
C17 C23 1.428 . S
C18 C21 1.260 . S
C18 C22 1.477 . S
C18 H36 0.932 . S
C19 C20 1.384 . S
C19 C21 1.479 1_655 S
C19 H37 0.929 . S
C20 C17 1.424 1_655 S
C20 C19 1.384 . S
C20 H38 0.928 . S
C21 C18 1.260 . S
C21 C19 1.479 1_455 S
C22 C17 1.245 . S
C22 C18 1.477 . S
C22 H39 0.932 . S
C23 U6 2.882 . S
C23 C17 1.428 . S
C23 O26 1.301 . S
C23 O27 1.282 1_455 S
O24 U6 2.441 1_655 S
O24 C10 1.249 . S
O25 U6 2.420 1_655 S
O25 C10 1.202 . S
O26 U6 2.455 . S
O26 C23 1.301 . S
O27 U6 2.449 1_655 S
O27 C23 1.282 1_655 S
H28 C1 0.931 . S
H29 C3 0.929 . S
H30 C4 0.930 . S
H31 C5 0.931 1_556 S
H32 C12 0.932 . S
H33 C13 0.930 1_556 S
H34 C14 0.929 . S
H35 C16 0.930 . S
H36 C18 0.932 . S
H37 C19 0.929 . S
H38 C20 0.928 . S
H39 C22 0.932 . S
C40 C41 1.264 . S
C40 C45 1.479 . S
C40 C50 1.465 . S
C41 C40 1.264 . S
C41 C43 1.339 . S
C41 H68 0.931 . S
C42 C43 1.395 . S
C42 C44 1.320 . S
C43 C41 1.339 . S
C43 C42 1.395 . S
C43 H69 0.929 . S
C44 C42 1.320 . S
C44 C45 1.405 . S
C44 H70 0.930 . S
C45 C40 1.479 . S
C45 C44 1.405 . S
C45 H71 0.931 . S
U46 O47 2.454 1_545 S
U46 O48 2.458 1_545 S
U46 C49 2.984 1_545 S
U46 C50 2.847 . S
U46 C63 2.882 . S
U46 O64 2.441 . S
U46 O65 2.420 . S
U46 O66 2.455 . S
U46 O67 2.449 . S
O47 U46 2.454 1_565 S
O47 C49 1.353 . S
O48 U46 2.458 1_565 S
O48 C49 1.286 . S
C49 U46 2.984 1_565 S
C49 O47 1.353 . S
C49 O48 1.286 . S
C49 C51 1.363 . S
C50 C40 1.465 . S
C50 U46 2.847 . S
C50 O64 1.249 . S
C50 O65 1.202 . S
C51 C49 1.363 . S
C51 C53 1.408 . S
C51 C56 1.342 . S
C52 C53 1.310 . S
C52 C55 1.461 . S
C52 H72 0.932 . S
C53 C51 1.408 . S
C53 C52 1.310 . S
C53 H73 0.930 . S
C54 C55 1.474 . S
C54 C56 1.285 . S
C54 H74 0.929 . S
C55 C52 1.461 . S
C55 C54 1.474 . S
C56 C51 1.342 . S
C56 C54 1.285 . S
C56 H75 0.930 . S
C57 C60 1.424 . S
C57 C62 1.245 1_545 S
C57 C63 1.428 . S
C58 C61 1.260 1_565 S
C58 C62 1.477 . S
C58 H76 0.932 . S
C59 C60 1.384 . S
C59 C61 1.479 . S
C59 H77 0.929 . S
C60 C57 1.424 . S
C60 C59 1.384 . S
C60 H78 0.928 . S
C61 C58 1.260 1_545 S
C61 C59 1.479 . S
C62 C57 1.245 1_565 S
C62 C58 1.477 . S
C62 H79 0.932 . S
C63 U46 2.882 . S
C63 C57 1.428 . S
C63 O66 1.301 . S
C63 O67 1.282 . S
O64 U46 2.441 . S
O64 C50 1.249 . S
O65 U46 2.420 . S
O65 C50 1.202 . S
O66 U46 2.455 . S
O66 C63 1.301 . S
O67 U46 2.449 . S
O67 C63 1.282 . S
H68 C41 0.931 . S
H69 C43 0.929 . S
H70 C44 0.930 . S
H71 C45 0.931 . S
H72 C52 0.932 . S
H73 C53 0.930 . S
H74 C54 0.929 . S
H75 C56 0.930 . S
H76 C58 0.932 . S
H77 C59 0.929 . S
H78 C60 0.928 . S
H79 C62 0.932 . S
C80 C81 1.264 . S
C80 C85 1.479 . S
C80 C90 1.465 . S
C81 C80 1.264 . S
C81 C83 1.339 . S
C81 H108 0.931 . S
C82 C83 1.395 . S
C82 C84 1.320 . S
C83 C81 1.339 . S
C83 C82 1.395 . S
C83 H109 0.929 . S
C84 C82 1.320 . S
C84 C85 1.405 . S
C84 H110 0.930 . S
C85 C80 1.479 . S
C85 C84 1.405 . S
C85 H111 0.931 . S
U86 O87 2.454 . S
U86 O88 2.458 . S
U86 C89 2.984 . S
U86 C90 2.847 . S
U86 C103 2.882 . S
U86 O104 2.441 . S
U86 O105 2.420 . S
U86 O106 2.455 . S
U86 O107 2.449 . S
O87 U86 2.454 . S
O87 C89 1.353 . S
O88 U86 2.458 . S
O88 C89 1.286 . S
C89 U86 2.984 . S
C89 O87 1.353 . S
C89 O88 1.286 . S
C89 C91 1.363 . S
C90 C80 1.465 . S
C90 U86 2.847 . S
C90 O104 1.249 . S
C90 O105 1.202 . S
C91 C89 1.363 . S
C91 C93 1.408 . S
C91 C96 1.342 . S
C92 C93 1.310 . S
C92 C95 1.461 . S
C92 H112 0.932 . S
C93 C91 1.408 . S
C93 C92 1.310 . S
C93 H113 0.930 . S
C94 C95 1.474 . S
C94 C96 1.285 . S
C94 H114 0.929 . S
C95 C92 1.461 . S
C95 C94 1.474 . S
C96 C91 1.342 . S
C96 C94 1.285 . S
C96 H115 0.930 . S
C97 C100 1.424 . S
C97 C102 1.245 . S
C97 C103 1.428 . S
C98 C101 1.260 . S
C98 C102 1.477 . S
C98 H116 0.932 . S
C99 C100 1.384 . S
C99 C101 1.479 . S
C99 H117 0.929 . S
C100 C97 1.424 . S
C100 C99 1.384 . S
C100 H118 0.928 . S
C101 C98 1.260 . S
C101 C99 1.479 . S
C102 C97 1.245 . S
C102 C98 1.477 . S
C102 H119 0.932 . S
C103 U86 2.882 . S
C103 C97 1.428 . S
C103 O106 1.301 . S
C103 O107 1.282 . S
O104 U86 2.441 . S
O104 C90 1.249 . S
O105 U86 2.420 . S
O105 C90 1.202 . S
O106 U86 2.455 . S
O106 C103 1.301 . S
O107 U86 2.449 . S
O107 C103 1.282 . S
H108 C81 0.931 . S
H109 C83 0.929 . S
H110 C84 0.930 . S
H111 C85 0.931 . S
H112 C92 0.932 . S
H113 C93 0.930 . S
H114 C94 0.929 . S
H115 C96 0.930 . S
H116 C98 0.932 . S
H117 C99 0.929 . S
H118 C100 0.928 . S
H119 C102 0.932 . S
C120 C121 1.264 . S
C120 C125 1.479 . S
C120 C130 1.465 . S
C121 C120 1.264 . S
C121 C123 1.339 . S
C121 H148 0.931 . S
C122 C123 1.395 . S
C122 C124 1.320 . S
C123 C121 1.339 . S
C123 C122 1.395 . S
C123 H149 0.929 . S
C124 C122 1.320 . S
C124 C125 1.405 . S
C124 H150 0.930 . S
C125 C120 1.479 . S
C125 C124 1.405 . S
C125 H151 0.931 . S
U126 O127 2.454 . S
U126 O128 2.458 . S
U126 C129 2.984 . S
U126 C130 2.847 1_545 S
U126 C143 2.882 . S
U126 O144 2.441 1_545 S
U126 O145 2.420 1_545 S
U126 O146 2.455 . S
U126 O147 2.449 1_545 S
O127 U126 2.454 . S
O127 C129 1.353 . S
O128 U126 2.458 . S
O128 C129 1.286 . S
C129 U126 2.984 . S
C129 O127 1.353 . S
C129 O128 1.286 . S
C129 C131 1.363 . S
C130 C120 1.465 . S
C130 U126 2.847 1_565 S
C130 O144 1.249 . S
C130 O145 1.202 . S
C131 C129 1.363 . S
C131 C133 1.408 . S
C131 C136 1.342 . S
C132 C133 1.310 . S
C132 C135 1.461 . S
C132 H152 0.932 . S
C133 C131 1.408 . S
C133 C132 1.310 . S
C133 H153 0.930 . S
C134 C135 1.474 . S
C134 C136 1.285 . S
C134 H154 0.929 . S
C135 C132 1.461 . S
C135 C134 1.474 . S
C136 C131 1.342 . S
C136 C134 1.285 . S
C136 H155 0.930 . S
C137 C140 1.424 1_545 S
C137 C142 1.245 . S
C137 C143 1.428 . S
C138 C141 1.260 . S
C138 C142 1.477 . S
C138 H156 0.932 . S
C139 C140 1.384 . S
C139 C141 1.479 1_565 S
C139 H157 0.929 . S
C140 C137 1.424 1_565 S
C140 C139 1.384 . S
C140 H158 0.928 . S
C141 C138 1.260 . S
C141 C139 1.479 1_545 S
C142 C137 1.245 . S
C142 C138 1.477 . S
C142 H159 0.932 . S
C143 U126 2.882 . S
C143 C137 1.428 . S
C143 O146 1.301 . S
C143 O147 1.282 1_545 S
O144 U126 2.441 1_565 S
O144 C130 1.249 . S
O145 U126 2.420 1_565 S
O145 C130 1.202 . S
O146 U126 2.455 . S
O146 C143 1.301 . S
O147 U126 2.449 1_565 S
O147 C143 1.282 1_565 S
H148 C121 0.931 . S
H149 C123 0.929 . S
H150 C124 0.930 . S
H151 C125 0.931 . S
H152 C132 0.932 . S
H153 C133 0.930 . S
H154 C134 0.929 . S
H155 C136 0.930 . S
H156 C138 0.932 . S
H157 C139 0.929 . S
H158 C140 0.928 . S
H159 C142 0.932 . S
C160 C161 1.264 . S
C160 C165 1.479 . S
C160 C170 1.465 . S
C161 C160 1.264 . S
C161 C163 1.339 . S
C161 H188 0.931 . S
C162 C163 1.395 . S
C162 C164 1.320 1_556 S
C163 C161 1.339 . S
C163 C162 1.395 . S
C163 H189 0.929 . S
C164 C162 1.320 1_554 S
C164 C165 1.405 1_554 S
C164 H190 0.930 . S
C165 C160 1.479 . S
C165 C164 1.405 1_556 S
C165 H191 0.931 1_556 S
U166 O167 2.454 . S
U166 O168 2.458 . S
U166 C169 2.984 . S
U166 C170 2.847 . S
U166 C183 2.882 . S
U166 O184 2.441 . S
U166 O185 2.420 . S
U166 O186 2.455 . S
U166 O187 2.449 . S
O167 U166 2.454 . S
O167 C169 1.353 . S
O168 U166 2.458 . S
O168 C169 1.286 . S
C169 U166 2.984 . S
C169 O167 1.353 . S
C169 O168 1.286 . S
C169 C171 1.363 . S
C170 C160 1.465 . S
C170 U166 2.847 . S
C170 O184 1.249 . S
C170 O185 1.202 . S
C171 C169 1.363 . S
C171 C173 1.408 . S
C171 C176 1.342 . S
C172 C173 1.310 1_554 S
C172 C175 1.461 1_554 S
C172 H192 0.932 . S
C173 C171 1.408 . S
C173 C172 1.310 1_556 S
C173 H193 0.930 1_556 S
C174 C175 1.474 . S
C174 C176 1.285 . S
C174 H194 0.929 . S
C175 C172 1.461 1_556 S
C175 C174 1.474 . S
C176 C171 1.342 . S
C176 C174 1.285 . S
C176 H195 0.930 . S
C177 C180 1.424 . S
C177 C182 1.245 . S
C177 C183 1.428 . S
C178 C181 1.260 . S
C178 C182 1.477 . S
C178 H196 0.932 . S
C179 C180 1.384 . S
C179 C181 1.479 . S
C179 H197 0.929 . S
C180 C177 1.424 . S
C180 C179 1.384 . S
C180 H198 0.928 . S
C181 C178 1.260 . S
C181 C179 1.479 . S
C182 C177 1.245 . S
C182 C178 1.477 . S
C182 H199 0.932 . S
C183 U166 2.882 . S
C183 C177 1.428 . S
C183 O186 1.301 . S
C183 O187 1.282 . S
O184 U166 2.441 . S
O184 C170 1.249 . S
O185 U166 2.420 . S
O185 C170 1.202 . S
O186 U166 2.455 . S
O186 C183 1.301 . S
O187 U166 2.449 . S
O187 C183 1.282 . S
H188 C161 0.931 . S
H189 C163 0.929 . S
H190 C164 0.930 . S
H191 C165 0.931 1_554 S
H192 C172 0.932 . S
H193 C173 0.930 1_554 S
H194 C174 0.929 . S
H195 C176 0.930 . S
H196 C178 0.932 . S
H197 C179 0.929 . S
H198 C180 0.928 . S
H199 C182 0.932 . S
C200 C201 1.264 . S
C200 C205 1.479 . S
C200 C210 1.465 . S
C201 C200 1.264 . S
C201 C203 1.339 . S
C201 H228 0.931 . S
C202 C203 1.395 . S
C202 C204 1.320 . S
C203 C201 1.339 . S
C203 C202 1.395 . S
C203 H229 0.929 . S
C204 C202 1.320 . S
C204 C205 1.405 . S
C204 H230 0.930 . S
C205 C200 1.479 . S
C205 C204 1.405 . S
C205 H231 0.931 . S
U206 O207 2.454 . S
U206 O208 2.458 . S
U206 C209 2.984 . S
U206 C210 2.847 1_455 S
U206 C223 2.882 . S
U206 O224 2.441 1_455 S
U206 O225 2.420 1_455 S
U206 O226 2.455 . S
U206 O227 2.449 1_455 S
O207 U206 2.454 . S
O207 C209 1.353 . S
O208 U206 2.458 . S
O208 C209 1.286 . S
C209 U206 2.984 . S
C209 O207 1.353 . S
C209 O208 1.286 . S
C209 C211 1.363 . S
C210 C200 1.465 . S
C210 U206 2.847 1_655 S
C210 O224 1.249 . S
C210 O225 1.202 . S
C211 C209 1.363 . S
C211 C213 1.408 . S
C211 C216 1.342 . S
C212 C213 1.310 . S
C212 C215 1.461 . S
C212 H232 0.932 . S
C213 C211 1.408 . S
C213 C212 1.310 . S
C213 H233 0.930 . S
C214 C215 1.474 . S
C214 C216 1.285 . S
C214 H234 0.929 . S
C215 C212 1.461 . S
C215 C214 1.474 . S
C216 C211 1.342 . S
C216 C214 1.285 . S
C216 H235 0.930 . S
C217 C220 1.424 1_455 S
C217 C222 1.245 . S
C217 C223 1.428 . S
C218 C221 1.260 . S
C218 C222 1.477 . S
C218 H236 0.932 . S
C219 C220 1.384 . S
C219 C221 1.479 1_655 S
C219 H237 0.929 . S
C220 C217 1.424 1_655 S
C220 C219 1.384 . S
C220 H238 0.928 . S
C221 C218 1.260 . S
C221 C219 1.479 1_455 S
C222 C217 1.245 . S
C222 C218 1.477 . S
C222 H239 0.932 . S
C223 U206 2.882 . S
C223 C217 1.428 . S
C223 O226 1.301 . S
C223 O227 1.282 1_455 S
O224 U206 2.441 1_655 S
O224 C210 1.249 . S
O225 U206 2.420 1_655 S
O225 C210 1.202 . S
O226 U206 2.455 . S
O226 C223 1.301 . S
O227 U206 2.449 1_655 S
O227 C223 1.282 1_655 S
H228 C201 0.931 . S
H229 C203 0.929 . S
H230 C204 0.930 . S
H231 C205 0.931 . S
H232 C212 0.932 . S
H233 C213 0.930 . S
H234 C214 0.929 . S
H235 C216 0.930 . S
H236 C218 0.932 . S
H237 C219 0.929 . S
H238 C220 0.928 . S
H239 C222 0.932 . S
C21 C221 1.500 . S
C141 C61 1.463 . S
C181 C101 1.483 . S
C15 C175 1.501 1_554 S
C42 C202 1.465 . S
C122 C82 1.470 . S
C2 C162 1.464 1_554 S
C55 C215 1.503 . S
C135 C95 1.509 . S
