# Generated by pormake.
# Topology kag, (6)-cn, num edge types: 1
# Building blocks:
#     Node 0, Type 0, BuildingBlock: JUFBIX_clean_sbu_0, # of connection points: 6
#     Node 1, Type 0, BuildingBlock: JUFBIX_clean_sbu_0, # of connection points: 6
#     Node 2, Type 0, BuildingBlock: JUFBIX_clean_sbu_0, # of connection points: 6
#     Edge 3, Type (0, 0), None
#     Edge 4, Type (0, 0), None
#     Edge 5, Type (0, 0), None
#     Edge 6, Type (0, 0), None
#     Edge 7, Type (0, 0), None
#     Edge 8, Type (0, 0), None
#     Edge 9, Type (0, 0), None
#     Edge 10, Type (0, 0), None
#     Edge 11, Type (0, 0), None
# Relax obj value: 0.502
# Max RMSD: 0.288
# Mean RMSD: 0.166
data_MOF--net-kag--node1-JUFBIX_clean_sbu_0--edge1-none
_symmetry_space_group_name_H-M    P1
_symmetry_Int_Tables_number       1
_symmetry_cell_setting            triclinic
loop_
_symmetry_equiv_pos_as_xyz
'x, y, z'
_cell_length_a     13.10933
_cell_length_b     20.576667
_cell_length_c     6.3797004
_cell_angle_alpha  90.573991
_cell_angle_beta   90.443282
_cell_angle_gamma 120.72458
loop_
_atom_site_label
_atom_site_type_symbol
_atom_site_fract_x
_atom_site_fract_y
_atom_site_fract_z
_atom_type_partial_charge
Co0 Co 1.0279 0.45565 1.02103 0.0
C1 C 0.0757 0.51913 0.62714 0.0
Co2 Co 0.12343 0.58221 0.02623 0.0
C3 C 0.85545 0.29159 0.03803 0.0
C4 C 1.03235 0.31728 0.97817 0.0
N5 N 0.96748 0.35049 1.01334 0.0
N6 N 0.84984 0.22414 1.02288 0.0
C7 C 0.9612 0.24035 0.98725 0.0
H8 H 0.77954 0.2978 0.06651 0.0
H9 H 0.12559 0.34623 0.94271 0.0
C10 C 0.07563 0.51874 0.42013 0.0
N11 N 0.18385 0.68738 0.03393 0.0
C12 C 0.29588 0.74628 1.00929 0.0
C13 C 0.11897 0.72058 0.06907 0.0
N14 N 0.30149 0.81373 0.02444 0.0
C15 C 0.19013 0.79752 0.06003 0.0
C16 C 0.86869 0.50214 1.02185 0.0
O17 O 1.0286 0.45624 0.31881 0.0
O18 O 0.12263 0.58092 0.32333 0.0
O19 O 0.96585 0.5649 1.02315 0.0
O20 O 0.87097 0.44111 1.01889 0.0
O21 O 0.12273 0.58163 0.72845 0.0
H22 H 1.02573 0.69163 0.10449 0.0
H23 H 0.3718 0.74007 0.98084 0.0
O24 O 1.0287 0.45694 0.72393 0.0
O25 O 0.18548 0.47296 0.02412 0.0
O26 O 0.28036 0.59675 0.02838 0.0
C27 C 0.28264 0.53573 0.02541 0.0
H28 H 0.98868 0.19939 0.96224 0.0
H29 H 0.16264 0.83847 0.08502 0.0
Co30 Co 0.63473 0.99498 1.02178 0.0
C31 C 0.57585 0.01896 0.62715 0.0
Co32 Co 0.5166 0.04288 0.02558 0.0
C33 C 0.71588 0.88904 0.07453 0.0
C34 C 0.85101 0.99406 0.94989 0.0
N35 N 0.73881 0.95864 1.02181 0.0
N36 N 0.8085 0.87967 0.03545 0.0
C37 C 0.89414 0.94564 0.9581 0.0
H38 H 0.63116 0.84495 0.13068 0.0
H39 H 0.89703 0.05029 0.88598 0.0
C40 C 0.57549 0.01891 0.42022 0.0
N41 N 0.41253 0.07922 0.02556 0.0
C42 C 0.43545 0.14882 0.97277 0.0
C43 C 0.30035 0.04382 0.09757 0.0
N44 N 0.34283 0.1582 1.0119 0.0
C45 C 0.25722 0.09224 0.08935 0.0
C46 C 0.39851 0.88435 1.01715 0.0
O47 O 0.6339 0.99514 0.32022 0.0
O48 O 0.51672 0.04266 0.32191 0.0
O49 O 0.38613 0.94173 1.02061 0.0
O50 O 0.50221 0.8942 1.01427 0.0
O51 O 0.51744 0.04272 0.72714 0.0
H52 H 0.25435 0.9876 0.16156 0.0
H53 H 0.52015 0.1929 0.91655 0.0
O54 O 0.63461 0.99521 0.72546 0.0
O55 O 0.7652 0.09614 0.02675 0.0
O56 O 0.64912 0.14367 0.03309 0.0
C57 C 0.75283 0.15352 0.03021 0.0
H58 H 0.97926 0.95697 0.90187 0.0
H59 H 0.17211 0.08091 0.14564 0.0
Co60 Co 0.52102 0.45624 1.01917 0.0
C61 C 0.57634 0.51955 0.42021 0.0
Co62 Co 0.6303 0.58162 0.02808 0.0
C63 C 0.43602 0.29581 0.96286 0.0
C64 C 0.31004 0.31675 0.11353 0.0
N65 N 0.41762 0.35212 1.02264 0.0
N66 N 0.34432 0.22724 1.01409 0.0
C67 C 0.26443 0.24003 0.10741 0.0
H68 H 0.51734 0.30519 0.89338 0.0
H69 H 0.27004 0.345 0.19126 0.0
C70 C 0.57499 0.51831 0.62705 0.0
N71 N 0.73371 0.68574 0.02462 0.0
C72 C 0.71531 0.74206 0.08444 0.0
C73 C 0.84128 0.72112 0.93371 0.0
N74 N 0.80701 0.81062 0.03321 0.0
C75 C 0.88689 0.79784 0.93985 0.0
C76 C 0.75719 0.50334 0.02448 0.0
O77 O 0.52027 0.45564 0.7214 0.0
O78 O 0.62858 0.57997 0.73093 0.0
O79 O 0.76308 0.56694 0.03006 0.0
O80 O 0.65608 0.44318 1.02058 0.0
O81 O 0.63106 0.58223 0.32586 0.0
H82 H 0.88128 0.69287 0.85595 0.0
H83 H 0.634 0.73267 0.15396 0.0
O84 O 0.52275 0.45789 0.31633 0.0
O85 O 0.38825 0.47092 1.01719 0.0
O86 O 0.49525 0.59469 0.02668 0.0
C87 C 0.39414 0.53452 1.02278 0.0
H88 H 0.18277 0.19777 0.17817 0.0
H89 H 0.96855 0.8401 0.86908 0.0
loop_
_geom_bond_atom_site_label_1
_geom_bond_atom_site_label_2
_geom_bond_distance
_geom_bond_site_symmetry_2
_ccdc_geom_bond_type
Co0 N5 2.057 1_554 S
Co0 O17 2.021 . S
Co0 O20 2.062 . S
Co0 O24 2.117 1_554 S
Co0 O25 2.020 1_655 S
C1 O21 1.259 . S
C1 O24 1.258 1_455 S
Co2 N11 2.057 1_556 S
Co2 O18 2.117 1_556 S
Co2 O19 2.020 1_455 S
Co2 O21 2.021 . S
Co2 O26 2.062 . S
C3 N5 1.316 1_554 S
C3 N6 1.347 1_554 S
C3 H8 0.931 . S
C4 N5 1.375 . S
C4 C7 1.350 . S
C4 H9 0.930 . S
N5 Co0 2.057 1_556 S
N5 C3 1.316 1_556 S
N5 C4 1.375 . S
N6 C3 1.347 1_556 S
N6 C7 1.373 . S
C7 C4 1.350 . S
C7 N6 1.373 . S
C7 H28 0.931 . S
H8 C3 0.931 . S
H9 C4 0.930 . S
C10 O17 1.259 . S
C10 O18 1.258 1_655 S
N11 Co2 2.057 1_554 S
N11 C12 1.316 1_554 S
N11 C13 1.375 . S
C12 N11 1.316 1_556 S
C12 N14 1.347 1_556 S
C12 H23 0.931 . S
C13 N11 1.375 . S
C13 C15 1.350 . S
C13 H22 0.930 . S
N14 C12 1.347 1_554 S
N14 C15 1.373 . S
C15 C13 1.350 . S
C15 N14 1.373 . S
C15 H29 0.931 . S
C16 O19 1.256 1_554 S
C16 O20 1.255 . S
O17 Co0 2.021 . S
O17 C10 1.259 . S
O18 Co2 2.117 1_554 S
O18 C10 1.258 1_455 S
O19 Co2 2.020 1_655 S
O19 C16 1.256 1_556 S
O20 Co0 2.062 . S
O20 C16 1.255 . S
O21 C1 1.259 . S
O21 Co2 2.021 . S
H22 C13 0.930 . S
H23 C12 0.931 . S
O24 Co0 2.117 1_556 S
O24 C1 1.258 1_655 S
O25 Co0 2.020 1_455 S
O25 C27 1.256 1_554 S
O26 Co2 2.062 . S
O26 C27 1.255 . S
C27 O25 1.256 1_556 S
C27 O26 1.255 . S
H28 C7 0.931 . S
H29 C15 0.931 . S
Co30 N35 2.057 1_554 S
Co30 O47 2.021 . S
Co30 O50 2.062 . S
Co30 O54 2.117 1_554 S
Co30 O55 2.020 1_565 S
C31 O51 1.259 . S
C31 O54 1.258 1_545 S
Co32 N41 2.057 1_556 S
Co32 O48 2.117 1_556 S
Co32 O49 2.020 1_545 S
Co32 O51 2.021 . S
Co32 O56 2.062 . S
C33 N35 1.316 1_554 S
C33 N36 1.347 1_554 S
C33 H38 0.931 . S
C34 N35 1.375 . S
C34 C37 1.350 . S
C34 H39 0.930 . S
N35 Co30 2.057 1_556 S
N35 C33 1.316 1_556 S
N35 C34 1.375 . S
N36 C33 1.347 1_556 S
N36 C37 1.373 . S
C37 C34 1.350 . S
C37 N36 1.373 . S
C37 H58 0.931 . S
H38 C33 0.931 . S
H39 C34 0.930 . S
C40 O47 1.259 . S
C40 O48 1.258 1_565 S
N41 Co32 2.057 1_554 S
N41 C42 1.316 1_554 S
N41 C43 1.375 . S
C42 N41 1.316 1_556 S
C42 N44 1.347 1_556 S
C42 H53 0.931 . S
C43 N41 1.375 . S
C43 C45 1.350 . S
C43 H52 0.930 . S
N44 C42 1.347 1_554 S
N44 C45 1.373 . S
C45 C43 1.350 . S
C45 N44 1.373 . S
C45 H59 0.931 . S
C46 O49 1.256 . S
C46 O50 1.255 1_556 S
O47 Co30 2.021 . S
O47 C40 1.259 . S
O48 Co32 2.117 1_554 S
O48 C40 1.258 1_545 S
O49 Co32 2.020 1_565 S
O49 C46 1.256 . S
O50 Co30 2.062 . S
O50 C46 1.255 1_554 S
O51 C31 1.259 . S
O51 Co32 2.021 . S
H52 C43 0.930 . S
H53 C42 0.931 . S
O54 Co30 2.117 1_556 S
O54 C31 1.258 1_565 S
O55 Co30 2.020 1_545 S
O55 C57 1.256 . S
O56 Co32 2.062 . S
O56 C57 1.255 1_556 S
C57 O55 1.256 . S
C57 O56 1.255 1_554 S
H58 C37 0.931 . S
H59 C45 0.931 . S
Co60 N65 2.057 1_556 S
Co60 O77 2.021 . S
Co60 O80 2.062 . S
Co60 O84 2.117 1_556 S
Co60 O85 2.020 . S
C61 O81 1.259 . S
C61 O84 1.258 . S
Co62 N71 2.057 1_554 S
Co62 O78 2.117 1_554 S
Co62 O79 2.020 . S
Co62 O81 2.021 . S
Co62 O86 2.062 . S
C63 N65 1.316 1_556 S
C63 N66 1.347 1_556 S
C63 H68 0.931 . S
C64 N65 1.375 . S
C64 C67 1.350 . S
C64 H69 0.930 . S
N65 Co60 2.057 1_554 S
N65 C63 1.316 1_554 S
N65 C64 1.375 . S
N66 C63 1.347 1_554 S
N66 C67 1.373 . S
C67 C64 1.350 . S
C67 N66 1.373 . S
C67 H88 0.931 . S
H68 C63 0.931 . S
H69 C64 0.930 . S
C70 O77 1.259 . S
C70 O78 1.258 . S
N71 Co62 2.057 1_556 S
N71 C72 1.316 1_556 S
N71 C73 1.375 . S
C72 N71 1.316 1_554 S
C72 N74 1.347 1_554 S
C72 H83 0.931 . S
C73 N71 1.375 . S
C73 C75 1.350 . S
C73 H82 0.930 . S
N74 C72 1.347 1_556 S
N74 C75 1.373 . S
C75 C73 1.350 . S
C75 N74 1.373 . S
C75 H89 0.931 . S
C76 O79 1.256 . S
C76 O80 1.255 1_554 S
O77 Co60 2.021 . S
O77 C70 1.259 . S
O78 Co62 2.117 1_556 S
O78 C70 1.258 . S
O79 Co62 2.020 . S
O79 C76 1.256 . S
O80 Co60 2.062 . S
O80 C76 1.255 1_556 S
O81 C61 1.259 . S
O81 Co62 2.021 . S
H82 C73 0.930 . S
H83 C72 0.931 . S
O84 Co60 2.117 1_554 S
O84 C61 1.258 . S
O85 Co60 2.020 . S
O85 C87 1.256 . S
O86 Co62 2.062 . S
O86 C87 1.255 1_554 S
C87 O85 1.256 . S
C87 O86 1.255 1_556 S
H88 C67 0.931 . S
H89 C75 0.931 . S
C1 C10 1.501 1_455 S
C40 C31 1.535 1_565 S
C70 C61 1.540 . S
C27 C87 2.338 . S
C57 N6 1.509 1_554 S
N36 N74 0.877 . S
C16 C76 2.340 . S
N14 C46 1.513 1_554 S
N66 N44 0.875 . S
