# Generated by pormake.
# Topology pcu, (6)-cn, num edge types: 1
# Building blocks:
#     Node 0, Type 0, BuildingBlock: HISSIN_clean_sbu_0, # of connection points: 6
#     Edge 1, Type (0, 0), BuildingBlock: UVAHIK_clean_linker_0, # of connection points: 2
#     Edge 2, Type (0, 0), BuildingBlock: UVAHIK_clean_linker_0, # of connection points: 2
#     Edge 3, Type (0, 0), BuildingBlock: UVAHIK_clean_linker_0, # of connection points: 2
# Relax obj value: 0.000
# Max RMSD: 0.000
# Mean RMSD: 0.000
data_MOF--net-pcu--node1-HISSIN_clean_sbu_0--edge1-UVAHIK_clean_linker_0
_symmetry_space_group_name_H-M    P1
_symmetry_Int_Tables_number       1
_symmetry_cell_setting            triclinic
loop_
_symmetry_equiv_pos_as_xyz
'x, y, z'
_cell_length_a     19.803537
_cell_length_b     30.004642
_cell_length_c     19.919491
_cell_angle_alpha  123.06513
_cell_angle_beta   90.351862
_cell_angle_gamma 97.009543
loop_
_atom_site_label
_atom_site_type_symbol
_atom_site_fract_x
_atom_site_fract_y
_atom_site_fract_z
_atom_type_partial_charge
Eu0 Eu 0.98502 0.94995 0.92869 0.0
Eu1 Eu 0.00893 0.08484 0.0354 0.0
C2 C 0.13319 0.01885 -0.01657 0.0
C3 C 0.96587 0.80489 0.87421 0.0
C4 C -0.007 0.8189 0.94969 0.0
C5 C 0.93544 0.71246 0.83577 0.0
C6 C -0.00789 0.77981 0.96773 0.0
C7 C 0.93653 0.75157 0.81776 0.0
C8 C 0.96392 0.72594 0.91067 0.0
C9 C 0.97049 0.84486 0.85247 0.0
O10 O 0.01864 0.05779 0.90653 0.0
O11 O 0.96487 0.96978 0.83724 0.0
C12 C -0.01 1.01348 0.84001 0.0
O13 O 0.88483 0.9771 0.97629 0.0
O14 O 0.07515 0.15958 0.07272 0.0
O15 O 0.97491 0.16248 0.11645 0.0
O16 O 0.89928 0.05705 -0.0152 0.0
C17 C 0.85971 0.01694 0.98029 0.0
O18 O 0.01152 0.97668 0.05635 0.0
O19 O 0.98596 0.06316 0.12575 0.0
O20 O 0.10808 0.05844 0.0447 0.0
O21 O 0.91937 0.87159 0.86736 0.0
O22 O 0.02911 0.87569 0.87163 0.0
O23 O 0.09317 0.97921 0.92167 0.0
C24 C 0.01871 0.23073 0.09585 0.0
C25 C 0.98661 0.21602 0.02208 0.0
C26 C 0.03644 0.32413 0.13695 0.0
C27 C 0.97966 0.25521 0.00576 0.0
C28 C 0.04322 0.28497 0.15319 0.0
C29 C 0.005 0.30977 0.06282 0.0
C30 C 0.02947 0.18993 0.11264 0.0
C31 C -0.00178 0.02006 0.12291 0.0
H32 H 0.01581 0.8599 -0.00579 0.0
H33 H 0.914 0.67133 0.79012 0.0
H34 H 0.0136 0.79178 0.02636 0.0
H35 H 0.91552 0.73996 0.75911 0.0
H36 H 0.96773 0.17418 0.97685 0.0
H37 H 0.05562 0.36576 0.1827 0.0
H38 H 0.95584 0.24265 0.94779 0.0
H39 H 0.06818 0.29703 0.21042 0.0
C40 C -0.00428 0.06742 0.27252 0.0
C41 C -0.00382 0.01965 0.1968 0.0
C42 C -0.00659 0.06649 0.34191 0.0
C43 C 0.02409 0.9814 0.41821 0.0
H44 H 0.91854 0.07512 0.59037 0.0
C45 C 0.97401 0.96457 0.68977 0.0
C46 C 0.98663 1.0132 0.76561 0.0
C47 C 0.97291 0.96472 0.6197 0.0
C48 C 0.94848 0.04893 0.54287 0.0
H49 H -0.00677 0.93327 0.1345 0.0
H50 H 0.9876 0.9315 0.25468 0.0
H51 H 0.92129 0.07681 0.46931 0.0
H52 H 0.00627 0.10017 0.82746 0.0
H53 H 0.00367 0.10026 0.70524 0.0
H54 H 0.05036 0.95307 0.49162 0.0
C55 C -0.00916 0.96994 0.26105 0.0
C56 C 0.95036 0.05004 0.47368 0.0
C57 C -0.00622 0.97094 0.19193 0.0
C58 C -0.00319 0.06196 0.76996 0.0
C59 C -0.00514 0.0621 0.70003 0.0
C60 C 0.02163 0.97993 0.48703 0.0
C61 C -0.00912 0.01769 0.337 0.0
C62 C 0.98843 1.01643 0.41058 0.0
C63 C 0.98345 1.0135 0.62422 0.0
C64 C 0.98407 1.01385 0.55016 0.0
H65 H -0.00222 0.10564 0.27837 0.0
H66 H -0.00548 0.10415 0.39949 0.0
H67 H 0.05494 0.95564 0.37156 0.0
H68 H 0.96599 0.92635 0.68442 0.0
H69 H 0.96347 0.92669 0.56194 0.0
C70 C 0.25297 0.06695 0.03262 0.0
C71 C 0.20774 0.01884 -0.01627 0.0
C72 C 0.32353 0.06688 0.03203 0.0
C73 C 0.45395 0.98295 -0.00398 0.0
H74 H 0.5681 0.07946 0.95647 0.0
C75 C 0.74001 0.96915 0.95169 0.0
C76 C 0.78514 0.01701 0.98059 0.0
C77 C 0.66946 0.96926 0.95157 0.0
C78 C 0.53732 0.05286 0.96902 0.0
H79 H 0.2007 0.93286 0.89692 0.0
H80 H 0.32417 0.9327 0.89756 0.0
H81 H 0.44529 0.08079 0.95968 0.0
H82 H 0.79196 0.10273 0.03345 0.0
H83 H 0.66935 0.10346 0.0364 0.0
H84 H 0.54552 0.95606 0.00813 0.0
C85 C 0.30486 0.9704 0.93558 0.0
C86 C 0.46692 0.0535 0.97037 0.0
C87 C 0.23435 0.97059 0.93496 0.0
C88 C 0.75839 0.06508 0.01004 0.0
C89 C 0.68794 0.06538 0.01121 0.0
C90 C 0.5245 0.98292 -0.00391 0.0
C91 C 0.35002 0.01857 -0.01622 0.0
C92 C 0.42464 0.01839 -0.01649 0.0
C93 C 0.64241 0.01743 0.98165 0.0
C94 C 0.56719 0.01772 0.98223 0.0
H95 H 0.23389 0.10476 0.0706 0.0
H96 H 0.35745 0.10449 0.06999 0.0
H97 H 0.42234 0.95585 0.00707 0.0
H98 H 0.75912 0.93138 0.92799 0.0
H99 H 0.6362 0.93135 0.92684 0.0
C100 C 0.02483 0.6832 0.96762 0.0
C101 C 0.96607 0.68368 0.92813 0.0
C102 C 0.02794 0.64257 0.98165 0.0
C103 C 0.92002 0.53798 -0.00532 0.0
H104 H 0.0879 0.47703 0.96212 0.0
C105 C 0.93999 0.35063 0.00545 0.0
C106 C -0.00026 0.35155 0.04502 0.0
C107 C 0.93506 0.39044 -0.01008 0.0
C108 C 0.04085 0.49396 0.97234 0.0
H109 H 0.86387 0.64218 0.87398 0.0
H110 H 0.8696 0.57092 0.89755 0.0
H111 H 0.08063 0.5481 0.93885 0.0
H112 H 0.1017 0.3946 0.09766 0.0
H113 H 0.09273 0.46428 0.07184 0.0
H114 H 0.88033 0.48383 0.02834 0.0
C115 C 0.9132 0.6022 0.91811 0.0
C116 C 0.03669 0.53479 0.95903 0.0
C117 C 0.91018 0.64277 0.90385 0.0
C118 C 0.05459 0.39299 0.06799 0.0
C119 C 0.04974 0.43264 0.05229 0.0
C120 C 0.9242 0.49711 0.00804 0.0
C121 C 0.97231 0.60137 0.95673 0.0
C122 C 0.97632 0.5575 0.97031 0.0
C123 C 0.98988 0.432 0.01322 0.0
C124 C 0.98477 0.47471 -0.00266 0.0
H125 H 0.0691 0.71371 -0.01357 0.0
H126 H 0.07396 0.64361 0.01243 0.0
H127 H 0.87303 0.55499 0.00496 0.0
H128 H 0.89658 0.31955 -0.01256 0.0
H129 H 0.88845 0.38836 0.95898 0.0
loop_
_geom_bond_atom_site_label_1
_geom_bond_atom_site_label_2
_geom_bond_distance
_geom_bond_site_symmetry_2
_ccdc_geom_bond_type
Eu0 C9 2.828 . S
Eu0 O11 2.392 . S
Eu0 O13 2.418 . S
Eu0 O18 2.373 1_556 S
Eu0 O21 2.488 . S
Eu0 O22 2.471 1_655 S
Eu0 O23 2.349 1_655 S
Eu1 O10 2.373 1_554 S
Eu1 O14 2.488 . S
Eu1 O15 2.471 1_455 S
Eu1 O16 2.349 1_455 S
Eu1 O19 2.392 . S
Eu1 O20 2.418 . S
Eu1 C30 2.828 . S
C2 O20 1.244 . S
C2 O23 1.265 1_544 S
C3 C4 1.379 1_656 S
C3 C7 1.373 . S
C3 C9 1.505 . S
C4 C3 1.379 1_454 S
C4 C6 1.369 . S
C4 H32 0.930 . S
C5 C7 1.383 . S
C5 C8 1.382 . S
C5 H33 0.930 . S
C6 C4 1.369 . S
C6 C8 1.392 1_454 S
C6 H34 0.930 . S
C7 C3 1.373 . S
C7 C5 1.383 . S
C7 H35 0.931 . S
C8 C5 1.382 . S
C8 C6 1.392 1_656 S
C9 Eu0 2.828 . S
C9 C3 1.505 . S
C9 O21 1.249 . S
C9 O22 1.244 1_655 S
O10 Eu1 2.373 1_556 S
O10 C12 1.258 1_545 S
O11 Eu0 2.392 . S
O11 C12 1.242 1_655 S
C12 O10 1.258 1_565 S
C12 O11 1.242 1_455 S
O13 Eu0 2.418 . S
O13 C17 1.244 . S
O14 Eu1 2.488 . S
O14 C30 1.249 . S
O15 Eu1 2.471 1_655 S
O15 C30 1.244 1_655 S
O16 Eu1 2.349 1_655 S
O16 C17 1.265 1_544 S
C17 O13 1.244 . S
C17 O16 1.265 1_566 S
O18 Eu0 2.373 1_554 S
O18 C31 1.258 1_665 S
O19 Eu1 2.392 . S
O19 C31 1.242 . S
O20 Eu1 2.418 . S
O20 C2 1.244 . S
O21 Eu0 2.488 . S
O21 C9 1.249 . S
O22 Eu0 2.471 1_455 S
O22 C9 1.244 1_455 S
O23 Eu0 2.349 1_455 S
O23 C2 1.265 1_566 S
C24 C25 1.379 1_454 S
C24 C28 1.373 . S
C24 C30 1.505 . S
C25 C24 1.379 1_656 S
C25 C27 1.369 . S
C25 H36 0.930 . S
C26 C28 1.383 . S
C26 C29 1.382 . S
C26 H37 0.930 . S
C27 C25 1.369 . S
C27 C29 1.392 1_656 S
C27 H38 0.930 . S
C28 C24 1.373 . S
C28 C26 1.383 . S
C28 H39 0.931 . S
C29 C26 1.382 . S
C29 C27 1.392 1_454 S
C30 Eu1 2.828 . S
C30 O14 1.249 . S
C30 O15 1.244 1_455 S
C30 C24 1.505 . S
C31 O18 1.258 1_445 S
C31 O19 1.242 . S
H32 C4 0.930 . S
H33 C5 0.930 . S
H34 C6 0.930 . S
H35 C7 0.931 . S
H36 C25 0.930 . S
H37 C26 0.930 . S
H38 C27 0.930 . S
H39 C28 0.931 . S
C40 C41 1.349 1_655 S
C40 C42 1.327 . S
C40 H65 0.950 . S
C41 C40 1.349 1_455 S
C41 C57 1.349 1_545 S
C42 C40 1.327 . S
C42 C61 1.429 1_655 S
C42 H66 0.950 . S
C43 C60 1.574 . S
C43 C62 1.368 1_565 S
C43 H67 0.949 . S
H44 C48 0.949 . S
C45 C46 1.349 1_565 S
C45 C47 1.327 . S
C45 H68 0.950 . S
C46 C45 1.349 1_545 S
C46 C58 1.349 1_455 S
C47 C45 1.327 . S
C47 C63 1.429 1_565 S
C47 H69 0.950 . S
C48 H44 0.949 . S
C48 C56 1.574 . S
C48 C64 1.368 1_655 S
H49 C57 0.950 . S
H50 C55 0.950 . S
H51 C56 0.949 . S
H52 C58 0.950 . S
H53 C59 0.950 . S
H54 C60 0.949 . S
C55 H50 0.950 . S
C55 C57 1.327 . S
C55 C61 1.429 1_565 S
C56 C48 1.574 . S
C56 H51 0.949 . S
C56 C62 1.368 1_655 S
C57 C41 1.349 1_565 S
C57 H49 0.950 . S
C57 C55 1.327 . S
C58 C46 1.349 1_655 S
C58 H52 0.950 . S
C58 C59 1.327 . S
C59 H53 0.950 . S
C59 C58 1.327 . S
C59 C63 1.429 1_655 S
C60 C43 1.574 . S
C60 H54 0.949 . S
C60 C64 1.368 1_565 S
C61 C42 1.429 1_455 S
C61 C55 1.429 1_545 S
C61 C62 1.523 . S
C62 C43 1.368 1_545 S
C62 C56 1.368 1_455 S
C62 C61 1.523 . S
C63 C47 1.429 1_545 S
C63 C59 1.429 1_455 S
C63 C64 1.523 . S
C64 C48 1.368 1_455 S
C64 C60 1.368 1_545 S
C64 C63 1.523 . S
H65 C40 0.950 . S
H66 C42 0.950 . S
H67 C43 0.949 . S
H68 C45 0.950 . S
H69 C47 0.950 . S
C70 C71 1.349 . S
C70 C72 1.327 . S
C70 H95 0.950 . S
C71 C70 1.349 . S
C71 C87 1.349 1_544 S
C72 C70 1.327 . S
C72 C91 1.429 . S
C72 H96 0.950 . S
C73 C90 1.574 . S
C73 C92 1.368 1_566 S
C73 H97 0.949 . S
H74 C78 0.949 . S
C75 C76 1.349 1_566 S
C75 C77 1.327 . S
C75 H98 0.950 . S
C76 C75 1.349 1_544 S
C76 C88 1.349 . S
C77 C75 1.327 . S
C77 C93 1.429 1_566 S
C77 H99 0.950 . S
C78 H74 0.949 . S
C78 C86 1.574 . S
C78 C94 1.368 . S
H79 C87 0.950 . S
H80 C85 0.950 . S
H81 C86 0.949 . S
H82 C88 0.950 . S
H83 C89 0.950 . S
H84 C90 0.949 . S
C85 H80 0.950 . S
C85 C87 1.327 . S
C85 C91 1.429 1_566 S
C86 C78 1.574 . S
C86 H81 0.949 . S
C86 C92 1.368 . S
C87 C71 1.349 1_566 S
C87 H79 0.950 . S
C87 C85 1.327 . S
C88 C76 1.349 . S
C88 H82 0.950 . S
C88 C89 1.327 . S
C89 H83 0.950 . S
C89 C88 1.327 . S
C89 C93 1.429 . S
C90 C73 1.574 . S
C90 H84 0.949 . S
C90 C94 1.368 1_566 S
C91 C72 1.429 . S
C91 C85 1.429 1_544 S
C91 C92 1.523 . S
C92 C73 1.368 1_544 S
C92 C86 1.368 . S
C92 C91 1.523 . S
C93 C77 1.429 1_544 S
C93 C89 1.429 . S
C93 C94 1.523 . S
C94 C78 1.368 . S
C94 C90 1.368 1_544 S
C94 C93 1.523 . S
H95 C70 0.950 . S
H96 C72 0.950 . S
H97 C73 0.949 . S
H98 C75 0.950 . S
H99 C77 0.950 . S
C100 C101 1.349 1_556 S
C100 C102 1.327 . S
C100 H125 0.950 . S
C101 C100 1.349 1_554 S
C101 C117 1.349 1_455 S
C102 C100 1.327 . S
C102 C121 1.429 1_556 S
C102 H126 0.950 . S
C103 C120 1.574 . S
C103 C122 1.368 1_655 S
C103 H127 0.949 . S
H104 C108 0.949 . S
C105 C106 1.349 1_655 S
C105 C107 1.327 . S
C105 H128 0.950 . S
C106 C105 1.349 1_455 S
C106 C118 1.349 1_554 S
C107 C105 1.327 . S
C107 C123 1.429 1_655 S
C107 H129 0.950 . S
C108 H104 0.949 . S
C108 C116 1.574 . S
C108 C124 1.368 1_556 S
H109 C117 0.950 . S
H110 C115 0.950 . S
H111 C116 0.949 . S
H112 C118 0.950 . S
H113 C119 0.950 . S
H114 C120 0.949 . S
C115 H110 0.950 . S
C115 C117 1.327 . S
C115 C121 1.429 1_655 S
C116 C108 1.574 . S
C116 H111 0.949 . S
C116 C122 1.368 1_556 S
C117 C101 1.349 1_655 S
C117 H109 0.950 . S
C117 C115 1.327 . S
C118 C106 1.349 1_556 S
C118 H112 0.950 . S
C118 C119 1.327 . S
C119 H113 0.950 . S
C119 C118 1.327 . S
C119 C123 1.429 1_556 S
C120 C103 1.574 . S
C120 H114 0.949 . S
C120 C124 1.368 1_655 S
C121 C102 1.429 1_554 S
C121 C115 1.429 1_455 S
C121 C122 1.523 . S
C122 C103 1.368 1_455 S
C122 C116 1.368 1_554 S
C122 C121 1.523 . S
C123 C107 1.429 1_455 S
C123 C119 1.429 1_554 S
C123 C124 1.523 . S
C124 C108 1.368 1_554 S
C124 C120 1.368 1_455 S
C124 C123 1.523 . S
H125 C100 0.950 . S
H126 C102 0.950 . S
H127 C103 0.949 . S
H128 C105 0.950 . S
H129 C107 0.950 . S
C41 C31 1.500 . S
C46 C12 1.500 1_545 S
C71 C2 1.466 . S
C76 C17 1.466 1_544 S
C101 C8 1.493 1_454 S
C106 C29 1.493 . S
