# Generated by pormake.
# Topology pcu, (6)-cn, num edge types: 1
# Building blocks:
#     Node 0, Type 0, BuildingBlock: MIFKUJ_clean_sbu_0, # of connection points: 6
#     Edge 1, Type (0, 0), BuildingBlock: MIFKUJ_clean_linker_0, # of connection points: 2
#     Edge 2, Type (0, 0), BuildingBlock: MIFKUJ_clean_linker_0, # of connection points: 2
#     Edge 3, Type (0, 0), BuildingBlock: MIFKUJ_clean_linker_0, # of connection points: 2
# Relax obj value: 0.000
# Max RMSD: 0.000
# Mean RMSD: 0.000
data_MOF--net-pcu--node1-MIFKUJ_clean_sbu_0--edge1-MIFKUJ_clean_linker_0
_symmetry_space_group_name_H-M    P1
_symmetry_Int_Tables_number       1
_symmetry_cell_setting            triclinic
loop_
_symmetry_equiv_pos_as_xyz
'x, y, z'
_cell_length_a     21.52372
_cell_length_b     23.187956
_cell_length_c     19.031462
_cell_angle_alpha  100.20062
_cell_angle_beta   90.454847
_cell_angle_gamma 114.2639
loop_
_atom_site_label
_atom_site_type_symbol
_atom_site_fract_x
_atom_site_fract_y
_atom_site_fract_z
_atom_type_partial_charge
Zn0 Zn 0.02463 0.92266 0.96355 0.0
Zn1 Zn 0.98576 0.05999 -0.01418 0.0
C2 C 0.16031 0.9497 0.93683 0.0
O3 O 0.12539 0.90705 0.8795 0.0
C4 C 0.8593 0.04382 0.0434 0.0
O5 O 0.90218 0.09027 0.09353 0.0
O6 O 1.00508 0.82918 0.95738 0.0
O7 O 0.97685 0.94421 0.0474 0.0
O8 O 0.03325 0.04975 0.07107 0.0
C9 C 0.03751 0.81612 0.00379 0.0
O10 O 0.07982 0.8632 0.05373 0.0
O11 O 0.12781 0.96947 -0.01641 0.0
C12 C 0.97123 0.16778 0.95434 0.0
O13 O 0.92356 0.12065 0.90881 0.0
O14 O 1.00832 0.15429 -0.00492 0.0
O15 O 1.00507 0.03221 0.88548 0.0
O16 O 0.9997 0.93299 0.86638 0.0
O17 O 0.88333 0.01876 -0.00809 0.0
C18 C 1.00875 -0.00354 0.09217 0.0
C19 C 1.00305 0.98228 0.84336 0.0
H20 H 0.03382 0.09602 0.20554 0.0
H21 H 0.03594 0.09201 0.33294 0.0
H22 H 0.99734 0.89064 0.28003 0.0
H23 H 0.99225 0.89372 0.15264 0.0
H24 H 0.92063 0.90586 0.37785 0.0
H25 H 0.15908 0.01407 0.34886 0.0
H26 H 0.26249 0.09664 0.31272 0.0
H27 H 0.23128 0.24568 0.45611 0.0
H28 H 0.12712 0.16405 0.49241 0.0
H29 H 0.99903 0.88506 0.73514 0.0
H30 H 1.00317 0.88614 0.60696 0.0
H31 H 0.0151 0.07957 0.64744 0.0
H32 H 0.0114 0.07929 0.77542 0.0
H33 H 0.10832 0.06571 0.55631 0.0
H34 H 0.86678 0.954 0.5816 0.0
H35 H 0.76521 0.86917 0.61753 0.0
H36 H 0.80647 0.72324 0.48024 0.0
H37 H 0.90885 0.80724 0.44421 0.0
C38 C 0.02621 0.05103 0.22116 0.0
C39 C 0.01303 -0.00477 0.16923 0.0
C40 C 0.02775 0.04884 0.29398 0.0
C41 C 0.01782 0.99123 0.31618 0.0
C42 C 1.00514 0.93561 0.26425 0.0
C43 C 1.00242 0.93749 0.19148 0.0
C44 C 0.01837 0.98831 0.3934 0.0
C45 C 0.96228 0.94023 0.41662 0.0
C46 C 0.07209 0.03376 0.44431 0.0
C47 C 0.13496 0.08295 0.42289 0.0
C48 C 0.17401 0.06448 0.37233 0.0
C49 C 0.2328 0.11112 0.35187 0.0
C50 C 0.25336 0.17637 0.38198 0.0
C51 C 0.21526 0.19512 0.43278 0.0
C52 C 0.15638 0.14868 0.45338 0.0
C53 C 1.00237 0.92779 0.71681 0.0
C54 C 1.00464 0.982 0.76559 0.0
C55 C 1.00463 0.92826 0.64356 0.0
C56 C 0.009 0.98279 0.61785 0.0
C57 C 0.01181 0.03706 0.66633 0.0
C58 C 0.00942 0.03665 0.73945 0.0
C59 C 0.01062 0.98355 0.54033 0.0
C60 C 0.06704 0.03122 0.51721 0.0
C61 C 0.95762 0.93734 0.48943 0.0
C62 C 0.89585 0.88687 0.51079 0.0
C63 C 0.85449 0.90381 0.55951 0.0
C64 C 0.79672 0.85588 0.57981 0.0
C65 C 0.7795 0.79085 0.55134 0.0
C66 C 0.81992 0.77363 0.50233 0.0
C67 C 0.87778 0.82137 0.48191 0.0
H68 H 0.73476 0.75382 0.56713 0.0
H69 H 0.29888 0.2124 0.36606 0.0
H70 H 0.23869 0.9047 0.85243 0.0
H71 H 0.35704 0.92314 0.87894 0.0
H72 H 0.36895 0.05124 0.07776 0.0
H73 H 0.24945 0.03267 0.05187 0.0
H74 H 0.48744 0.09591 -0.00171 0.0
H75 H 0.34692 0.90842 0.08874 0.0
H76 H 0.25092 0.8019 0.08221 0.0
H77 H 0.33639 0.71934 0.91112 0.0
H78 H 0.43242 0.82568 0.91581 0.0
H79 H 0.79428 0.09804 0.13803 0.0
H80 H 0.67506 0.08251 0.12699 0.0
H81 H 0.6372 0.94062 0.93275 0.0
H82 H 0.75657 0.95563 0.94346 0.0
H83 H 0.5308 0.90478 0.01849 0.0
H84 H 0.66707 0.09114 0.92284 0.0
H85 H 0.76218 0.19742 0.92515 0.0
H86 H 0.68436 0.28186 0.10213 0.0
H87 H 0.58933 0.17575 0.10169 0.0
C88 C 0.2664 0.93734 0.90157 0.0
C89 C 0.23435 0.96692 0.95027 0.0
C90 C 0.33411 0.94765 0.91668 0.0
C91 C 0.37144 0.98788 0.98068 0.0
C92 C 0.34084 0.01983 0.02815 0.0
C93 C 0.27261 0.00913 0.0133 0.0
C94 C 0.44144 -0.00586 -0.00148 0.0
C95 C 0.49696 0.05445 0.00406 0.0
C96 C 0.4537 0.93959 0.00441 0.0
C97 C 0.39662 0.87523 0.00222 0.0
C98 C 0.34502 0.86768 0.04934 0.0
C99 C 0.29059 0.80731 0.04601 0.0
C100 C 0.28742 0.75392 -0.00387 0.0
C101 C 0.33885 0.76077 0.94967 0.0
C102 C 0.39335 0.82108 0.9527 0.0
C103 C 0.76051 0.06289 0.09338 0.0
C104 C 0.78518 0.0284 0.04131 0.0
C105 C 0.69237 0.05429 0.08704 0.0
C106 C 0.64751 0.01114 0.02848 0.0
C107 C 0.67103 0.97434 0.97825 0.0
C108 C 0.73931 0.98304 -0.01557 0.0
C109 C 0.57704 0.00654 0.01788 0.0
C110 C 0.52137 0.94643 0.0135 0.0
C111 C 0.5647 0.06126 0.01277 0.0
C112 C 0.62147 0.1253 0.01276 0.0
C113 C 0.67054 0.13224 0.96267 0.0
C114 C 0.72441 0.19247 0.96359 0.0
C115 C 0.72945 0.24633 0.0139 0.0
C116 C 0.68048 0.24007 0.06328 0.0
C117 C 0.62658 0.17989 0.06271 0.0
H118 H 0.7712 0.29292 0.0145 0.0
H119 H 0.24519 0.70723 -0.00641 0.0
H120 H 0.93953 0.70459 0.92485 0.0
H121 H 0.92866 0.59446 0.91906 0.0
H122 H 0.10833 0.66717 0.06804 0.0
H123 H 0.1193 0.7772 0.07453 0.0
H124 H 0.11033 0.57898 0.95103 0.0
H125 H 0.95671 0.5968 0.12533 0.0
H126 H 0.86086 0.61871 0.17331 0.0
H127 H 0.72117 0.4689 0.00761 0.0
H128 H 0.81642 0.44679 0.95784 0.0
H129 H 0.0724 0.27828 0.0316 0.0
H130 H 0.08431 0.38902 0.0406 0.0
H131 H 0.90038 0.31949 0.89862 0.0
H132 H 0.88799 0.20887 0.88947 0.0
H133 H 0.9014 0.40677 0.01401 0.0
H134 H 0.05435 0.38984 0.83829 0.0
H135 H 0.1498 0.36785 0.7892 0.0
H136 H 0.29016 0.51569 0.95601 0.0
H137 H 0.19531 0.53789 0.00682 0.0
C138 C 0.97658 0.69707 0.9565 0.0
C139 C 0.03007 0.74946 0.00039 0.0
C140 C 0.97018 0.63419 0.95332 0.0
C141 C 0.01737 0.62276 -0.00638 0.0
C142 C 0.07127 0.67503 0.03677 0.0
C143 C 0.07727 0.73779 0.04058 0.0
C144 C 0.01102 0.55629 -0.00994 0.0
C145 C 0.06508 0.54146 0.96572 0.0
C146 C 0.95126 0.50724 0.00775 0.0
C147 C 0.89391 0.52071 0.0373 0.0
C148 C 0.90569 0.56901 0.09861 0.0
C149 C 0.85143 0.58136 0.12624 0.0
C150 C 0.785 0.54538 0.09338 0.0
C151 C 0.77268 0.49685 0.0329 0.0
C152 C 0.82679 0.48438 0.00497 0.0
C153 C 0.03462 0.28662 0.00217 0.0
C154 C 0.97947 0.23489 0.95954 0.0
C155 C 0.04161 0.34989 0.00718 0.0
C156 C 0.99358 0.36244 0.96969 0.0
C157 C 0.93811 0.31083 0.92777 0.0
C158 C 0.9313 0.24768 0.92241 0.0
C159 C 1.00062 0.42933 0.9747 0.0
C160 C 0.9467 0.44427 -0.00064 0.0
C161 C 0.06043 0.47844 0.95712 0.0
C162 C 0.11754 0.46494 0.92691 0.0
C163 C 0.10544 0.4172 0.86497 0.0
C164 C 0.15947 0.40479 0.83674 0.0
C165 C 0.22597 0.44019 0.86962 0.0
C166 C 0.23859 0.48819 0.93071 0.0
C167 C 0.18471 0.50072 0.95924 0.0
H168 H 0.26774 0.43055 0.84763 0.0
H169 H 0.74305 0.55497 0.1149 0.0
loop_
_geom_bond_atom_site_label_1
_geom_bond_atom_site_label_2
_geom_bond_distance
_geom_bond_site_symmetry_2
_ccdc_geom_bond_type
Zn0 O6 1.969 . S
Zn0 O7 1.965 1_456 S
Zn0 O11 2.024 1_556 S
Zn0 O16 1.969 . S
Zn1 O8 1.969 . S
Zn1 O14 1.969 . S
Zn1 O15 1.965 1_654 S
Zn1 O17 2.024 1_554 S
C2 O3 1.229 . S
C2 O11 1.058 1_556 S
O3 C2 1.229 . S
C4 O5 1.229 . S
C4 O17 1.058 1_554 S
O5 C4 1.229 . S
O6 Zn0 1.969 . S
O6 C9 1.267 1_556 S
O7 Zn0 1.965 1_654 S
O7 C18 1.266 . S
O8 Zn1 1.969 . S
O8 C18 1.250 1_545 S
C9 O6 1.267 1_554 S
C9 O10 1.228 . S
O10 C9 1.228 . S
O11 Zn0 2.024 1_554 S
O11 C2 1.058 1_554 S
C12 O13 1.228 . S
C12 O14 1.267 1_556 S
O13 C12 1.228 . S
O14 Zn1 1.969 . S
O14 C12 1.267 1_554 S
O15 Zn1 1.965 1_456 S
O15 C19 1.269 . S
O16 Zn0 1.969 . S
O16 C19 1.245 1_565 S
O17 Zn1 2.024 1_556 S
O17 C4 1.058 1_556 S
C18 O7 1.266 . S
C18 O8 1.250 1_565 S
C19 O15 1.269 . S
C19 O16 1.245 1_545 S
H20 C38 0.951 . S
H21 C40 0.951 . S
H22 C42 0.950 . S
H23 C43 0.950 . S
H24 C45 0.950 . S
H25 C48 0.950 . S
H26 C49 0.950 . S
H27 C51 0.950 . S
H28 C52 0.950 . S
H29 C53 0.951 . S
H30 C55 0.951 . S
H31 C57 0.950 . S
H32 C58 0.950 . S
H33 C60 0.950 . S
H34 C63 0.950 . S
H35 C64 0.950 . S
H36 C66 0.950 . S
H37 C67 0.950 . S
C38 H20 0.951 . S
C38 C39 1.369 1_645 S
C38 C40 1.388 . S
C39 C38 1.369 1_465 S
C39 C43 1.381 . S
C40 H21 0.951 . S
C40 C38 1.388 . S
C40 C41 1.366 1_655 S
C41 C40 1.366 1_455 S
C41 C42 1.414 1_545 S
C41 C44 1.499 . S
C42 H22 0.950 . S
C42 C41 1.414 1_565 S
C42 C43 1.374 . S
C43 H23 0.950 . S
C43 C39 1.381 . S
C43 C42 1.374 . S
C44 C41 1.499 . S
C44 C45 1.373 1_445 S
C44 C46 1.389 . S
C45 H24 0.950 . S
C45 C44 1.373 1_665 S
C45 C61 1.377 . S
C46 C44 1.389 . S
C46 C47 1.524 . S
C46 C60 1.377 . S
C47 C46 1.524 . S
C47 C48 1.397 . S
C47 C52 1.363 . S
C48 H25 0.950 . S
C48 C47 1.397 . S
C48 C49 1.334 . S
C49 H26 0.950 . S
C49 C48 1.334 . S
C49 C50 1.287 . S
C50 C49 1.287 . S
C50 C51 1.524 . S
C50 H69 0.913 . S
C51 H27 0.950 . S
C51 C50 1.524 . S
C51 C52 1.415 . S
C52 H28 0.950 . S
C52 C47 1.363 . S
C52 C51 1.415 . S
C53 H29 0.951 . S
C53 C54 1.365 1_565 S
C53 C55 1.388 . S
C54 C53 1.365 1_545 S
C54 C58 1.385 1_455 S
C55 H30 0.951 . S
C55 C53 1.388 . S
C55 C56 1.366 1_455 S
C56 C55 1.366 1_655 S
C56 C57 1.414 1_565 S
C56 C59 1.499 . S
C57 H31 0.950 . S
C57 C56 1.414 1_545 S
C57 C58 1.374 . S
C58 H32 0.950 . S
C58 C54 1.385 1_655 S
C58 C57 1.374 . S
C59 C56 1.499 . S
C59 C60 1.373 1_665 S
C59 C61 1.389 . S
C60 H33 0.950 . S
C60 C46 1.377 . S
C60 C59 1.373 1_445 S
C61 C45 1.377 . S
C61 C59 1.389 . S
C61 C62 1.524 . S
C62 C61 1.524 . S
C62 C63 1.397 . S
C62 C67 1.363 . S
C63 H34 0.950 . S
C63 C62 1.397 . S
C63 C64 1.334 . S
C64 H35 0.950 . S
C64 C63 1.334 . S
C64 C65 1.287 . S
C65 C64 1.287 . S
C65 C66 1.524 . S
C65 H68 0.999 . S
C66 H36 0.950 . S
C66 C65 1.524 . S
C66 C67 1.415 . S
C67 H37 0.950 . S
C67 C62 1.363 . S
C67 C66 1.415 . S
H68 C65 0.999 . S
H69 C50 0.913 . S
H70 C88 0.951 . S
H71 C90 0.951 . S
H72 C92 0.950 . S
H73 C93 0.950 . S
H74 C95 0.950 . S
H75 C98 0.950 . S
H76 C99 0.950 . S
H77 C101 0.950 . S
H78 C102 0.950 . S
H79 C103 0.951 . S
H80 C105 0.951 . S
H81 C107 0.950 . S
H82 C108 0.950 . S
H83 C110 0.950 . S
H84 C113 0.950 . S
H85 C114 0.950 . S
H86 C116 0.950 . S
H87 C117 0.950 . S
C88 H70 0.951 . S
C88 C89 1.365 1_566 S
C88 C90 1.388 . S
C89 C88 1.365 1_544 S
C89 C93 1.385 . S
C90 H71 0.951 . S
C90 C88 1.388 . S
C90 C91 1.366 1_556 S
C91 C90 1.366 1_554 S
C91 C92 1.414 1_565 S
C91 C94 1.493 . S
C92 H72 0.950 . S
C92 C91 1.414 1_545 S
C92 C93 1.374 . S
C93 H73 0.950 . S
C93 C89 1.385 . S
C93 C92 1.374 . S
C94 C91 1.493 . S
C94 C95 1.365 1_565 S
C94 C96 1.404 1_554 S
C95 H74 0.950 . S
C95 C94 1.365 1_545 S
C95 C111 1.377 . S
C96 C94 1.404 1_556 S
C96 C97 1.523 1_556 S
C96 C110 1.377 . S
C97 C96 1.523 1_554 S
C97 C98 1.397 . S
C97 C102 1.363 1_554 S
C98 H75 0.950 . S
C98 C97 1.397 . S
C98 C99 1.334 . S
C99 H76 0.950 . S
C99 C98 1.334 . S
C99 C100 1.287 . S
C100 C99 1.287 . S
C100 C101 1.524 1_554 S
C100 H119 0.913 . S
C101 H77 0.950 . S
C101 C100 1.524 1_556 S
C101 C102 1.415 . S
C102 H78 0.950 . S
C102 C97 1.363 1_556 S
C102 C101 1.415 . S
C103 H79 0.951 . S
C103 C104 1.365 . S
C103 C105 1.388 . S
C104 C103 1.365 . S
C104 C108 1.385 1_544 S
C105 H80 0.951 . S
C105 C103 1.388 . S
C105 C106 1.366 1_554 S
C106 C105 1.366 1_556 S
C106 C107 1.414 1_545 S
C106 C109 1.491 . S
C107 H81 0.950 . S
C107 C106 1.414 1_565 S
C107 C108 1.374 . S
C108 H82 0.950 . S
C108 C104 1.385 1_566 S
C108 C107 1.374 . S
C109 C106 1.491 . S
C109 C110 1.362 1_545 S
C109 C111 1.409 1_556 S
C110 H83 0.950 . S
C110 C96 1.377 . S
C110 C109 1.362 1_565 S
C111 C95 1.377 . S
C111 C109 1.409 1_554 S
C111 C112 1.522 1_554 S
C112 C111 1.522 1_556 S
C112 C113 1.397 . S
C112 C117 1.363 1_556 S
C113 H84 0.950 . S
C113 C112 1.397 . S
C113 C114 1.334 . S
C114 H85 0.950 . S
C114 C113 1.334 . S
C114 C115 1.287 . S
C115 C114 1.287 . S
C115 C116 1.524 1_556 S
C115 H118 0.999 . S
C116 H86 0.950 . S
C116 C115 1.524 1_554 S
C116 C117 1.415 . S
C117 H87 0.950 . S
C117 C112 1.363 1_554 S
C117 C116 1.415 . S
H118 C115 0.999 . S
H119 C100 0.913 . S
H120 C138 0.951 . S
H121 C140 0.951 . S
H122 C142 0.950 . S
H123 C143 0.950 . S
H124 C145 0.950 . S
H125 C148 0.950 1_455 S
H126 C149 0.950 . S
H127 C151 0.950 . S
H128 C152 0.950 . S
H129 C153 0.951 . S
H130 C155 0.951 . S
H131 C157 0.950 . S
H132 C158 0.950 . S
H133 C160 0.950 . S
H134 C163 0.950 1_655 S
H135 C164 0.950 . S
H136 C166 0.950 . S
H137 C167 0.950 . S
C138 H120 0.951 . S
C138 C139 1.366 1_654 S
C138 C140 1.388 . S
C139 C138 1.366 1_456 S
C139 C143 1.385 . S
C140 H121 0.951 . S
C140 C138 1.388 . S
C140 C141 1.351 1_655 S
C141 C140 1.351 1_455 S
C141 C142 1.422 1_554 S
C141 C144 1.505 . S
C142 H122 0.950 . S
C142 C141 1.422 1_556 S
C142 C143 1.374 . S
C143 H123 0.950 . S
C143 C139 1.385 . S
C143 C142 1.374 . S
C144 C141 1.505 . S
C144 C145 1.373 1_554 S
C144 C146 1.389 1_455 S
C145 H124 0.950 . S
C145 C144 1.373 1_556 S
C145 C161 1.377 . S
C146 C144 1.389 1_655 S
C146 C147 1.524 . S
C146 C160 1.377 . S
C147 C146 1.524 . S
C147 C148 1.397 . S
C147 C152 1.363 . S
C148 H125 0.950 1_655 S
C148 C147 1.397 . S
C148 C149 1.334 . S
C149 H126 0.950 . S
C149 C148 1.334 . S
C149 C150 1.287 . S
C150 C149 1.287 . S
C150 C151 1.524 . S
C150 H169 0.913 . S
C151 H127 0.950 . S
C151 C150 1.524 . S
C151 C152 1.415 . S
C152 H128 0.950 . S
C152 C147 1.363 . S
C152 C151 1.415 . S
C153 H129 0.951 . S
C153 C154 1.365 1_556 S
C153 C155 1.388 . S
C154 C153 1.365 1_554 S
C154 C158 1.385 1_455 S
C155 H130 0.951 . S
C155 C153 1.388 . S
C155 C156 1.355 1_455 S
C156 C155 1.355 1_655 S
C156 C157 1.420 1_556 S
C156 C159 1.503 . S
C157 H131 0.950 . S
C157 C156 1.420 1_554 S
C157 C158 1.374 . S
C158 H132 0.950 . S
C158 C154 1.385 1_655 S
C158 C157 1.374 . S
C159 C156 1.503 . S
C159 C160 1.373 1_556 S
C159 C161 1.389 1_655 S
C160 H133 0.950 . S
C160 C146 1.377 . S
C160 C159 1.373 1_554 S
C161 C145 1.377 . S
C161 C159 1.389 1_455 S
C161 C162 1.524 . S
C162 C161 1.524 . S
C162 C163 1.397 . S
C162 C167 1.363 . S
C163 H134 0.950 1_455 S
C163 C162 1.397 . S
C163 C164 1.334 . S
C164 H135 0.950 . S
C164 C163 1.334 . S
C164 C165 1.287 . S
C165 C164 1.287 . S
C165 C166 1.524 . S
C165 H168 0.999 . S
C166 H136 0.950 . S
C166 C165 1.524 . S
C166 C167 1.415 . S
C167 H137 0.950 . S
C167 C162 1.363 . S
C167 C166 1.415 . S
H168 C165 0.999 . S
H169 C150 0.913 . S
C39 C18 1.482 1_455 S
C54 C19 1.482 . S
C89 C2 1.415 1_544 S
C104 C4 1.415 . S
C139 C9 1.458 1_556 S
C154 C12 1.458 1_454 S
