# Generated by pormake.
# Topology kag, (6)-cn, num edge types: 1
# Building blocks:
#     Node 0, Type 0, BuildingBlock: JUFBIX_clean_sbu_0, # of connection points: 6
#     Node 1, Type 0, BuildingBlock: JUFBIX_clean_sbu_0, # of connection points: 6
#     Node 2, Type 0, BuildingBlock: JUFBIX_clean_sbu_0, # of connection points: 6
#     Edge 3, Type (0, 0), BuildingBlock: AJUNOK_clean_linker_0, # of connection points: 2
#     Edge 4, Type (0, 0), BuildingBlock: AJUNOK_clean_linker_0, # of connection points: 2
#     Edge 5, Type (0, 0), BuildingBlock: AJUNOK_clean_linker_0, # of connection points: 2
#     Edge 6, Type (0, 0), BuildingBlock: AJUNOK_clean_linker_0, # of connection points: 2
#     Edge 7, Type (0, 0), BuildingBlock: AJUNOK_clean_linker_0, # of connection points: 2
#     Edge 8, Type (0, 0), BuildingBlock: AJUNOK_clean_linker_0, # of connection points: 2
#     Edge 9, Type (0, 0), BuildingBlock: AJUNOK_clean_linker_0, # of connection points: 2
#     Edge 10, Type (0, 0), BuildingBlock: AJUNOK_clean_linker_0, # of connection points: 2
#     Edge 11, Type (0, 0), BuildingBlock: AJUNOK_clean_linker_0, # of connection points: 2
# Relax obj value: 0.322
# Max RMSD: 0.249
# Mean RMSD: 0.152
data_MOF--net-kag--node1-JUFBIX_clean_sbu_0--edge1-AJUNOK_clean_linker_0
_symmetry_space_group_name_H-M    P1
_symmetry_Int_Tables_number       1
_symmetry_cell_setting            triclinic
loop_
_symmetry_equiv_pos_as_xyz
'x, y, z'
_cell_length_a     22.003975
_cell_length_b     29.921133
_cell_length_c     10.924935
_cell_angle_alpha  90.233088
_cell_angle_beta   93.219363
_cell_angle_gamma 120.9946
loop_
_atom_site_label
_atom_site_type_symbol
_atom_site_fract_x
_atom_site_fract_y
_atom_site_fract_z
_atom_type_partial_charge
Co0 Co 0.99366 0.46475 0.99287 0.0
C1 C 1.02124 0.5097 0.76314 0.0
Co2 Co 0.05206 0.5509 0.99955 0.0
C3 C 0.89493 0.35444 0.03339 0.0
C4 C 0.96982 0.3676 0.90061 0.0
N5 N 0.95087 0.39274 0.97829 0.0
N6 N 0.87796 0.30635 0.99196 0.0
C7 C 0.92539 0.31483 0.90876 0.0
H8 H 0.86756 0.36195 0.10231 0.0
H9 H 1.0124 0.38653 0.83956 0.0
C10 C 1.0236 0.50537 0.229 0.0
N11 N 0.09458 0.62324 0.01307 0.0
C12 C 0.15911 0.6616 0.98184 0.0
C13 C 0.0652 0.64864 0.06239 0.0
N14 N 0.17016 0.70948 0.00864 0.0
C15 C 0.11116 0.70147 0.05871 0.0
C16 C 0.90133 0.50056 0.98949 0.0
O17 O 0.99508 0.46277 0.16572 0.0
O18 O 0.05197 0.54826 0.17411 0.0
O19 O 0.95978 0.544 0.99232 0.0
O20 O 0.90315 0.45881 0.9884 0.0
O21 O 0.05173 0.55293 0.82452 0.0
H22 H 1.01422 0.63012 0.10189 0.0
H23 H 0.19751 0.6547 0.94149 0.0
O24 O 0.9925 0.46756 0.82026 0.0
O25 O 0.08415 0.47087 0.99751 0.0
O26 O 0.1437 0.55616 1.00609 0.0
C27 C 0.14355 0.51351 1.00211 0.0
H28 H 0.92644 0.28496 0.85427 0.0
H29 H 0.10322 0.73174 0.09463 0.0
Co30 Co 0.56412 0.99084 0.02872 0.0
C31 C 0.52863 0.00888 0.79136 0.0
Co32 Co 0.49349 0.02343 0.01962 0.0
C33 C 0.60414 0.91302 0.06174 0.0
C34 C 0.68494 0.9813 0.98077 0.0
N35 N 0.62134 0.96152 0.02927 0.0
N36 N 0.65339 0.90137 0.03305 0.0
C37 C 0.70489 0.94453 0.98357 0.0
H38 H 0.55553 0.88608 0.10269 0.0
H39 H 0.71333 0.01898 0.94 0.0
C40 C 0.52879 0.00619 0.25695 0.0
N41 N 0.43638 0.05288 0.01815 0.0
C42 C 0.45267 0.10135 0.98617 0.0
C43 C 0.37184 0.03177 0.06337 0.0
N44 N 0.40134 0.11148 0.01126 0.0
C45 C 0.35028 0.0675 0.05922 0.0
C46 C 0.41922 0.91549 0.00923 0.0
O47 O 0.56474 0.9904 0.20352 0.0
O48 O 0.49345 0.02142 0.19239 0.0
O49 O 0.41146 0.95474 1.00536 0.0
O50 O 0.48152 0.9229 0.01858 0.0
O51 O 0.49434 0.02532 0.84726 0.0
H52 H 0.34346 0.99364 0.10201 0.0
H53 H 0.50285 0.12963 0.95131 0.0
O54 O 0.56254 0.99172 0.85351 0.0
O55 O 0.6461 0.05952 0.03947 0.0
O56 O 0.57573 0.09105 0.03397 0.0
C57 C 0.63816 0.09871 0.04138 0.0
H58 H 0.75156 0.94811 0.94568 0.0
H59 H 0.30158 0.06203 0.09258 0.0
Co60 Co 0.49033 0.46197 0.99501 0.0
C61 C 0.52512 0.50764 0.23278 0.0
Co62 Co 0.55321 0.54853 1.00423 0.0
C63 C 0.45147 0.3524 0.96853 0.0
C64 C 0.37111 0.36173 0.04465 0.0
N65 N 0.43488 0.3889 0.99638 0.0
N66 N 0.40092 0.30388 0.99865 0.0
C67 C 0.35011 0.30988 0.0455 0.0
H68 H 0.50142 0.36164 0.93377 0.0
H69 H 0.34323 0.37872 0.08377 0.0
C70 C 0.51879 0.50376 0.76656 0.0
N71 N 0.60858 0.62128 1.00433 0.0
C72 C 0.5924 0.65712 0.03978 0.0
C73 C 0.673 0.64951 0.9585 0.0
N74 N 0.64397 0.7063 0.01721 0.0
C75 C 0.69496 0.70161 0.96703 0.0
C76 C 0.63538 0.50081 1.00579 0.0
O77 O 0.48767 0.4604 0.81983 0.0
O78 O 0.54978 0.546 0.83136 0.0
O79 O 0.63783 0.54423 0.01041 0.0
O80 O 0.57497 0.45898 1.00075 0.0
O81 O 0.55594 0.55024 0.17715 0.0
H82 H 0.70135 0.63327 0.91737 0.0
H83 H 0.54334 0.64735 0.07979 0.0
O84 O 0.49387 0.4647 0.17022 0.0
O85 O 0.4063 0.46641 0.98845 0.0
O86 O 0.46788 0.55165 0.99801 0.0
C87 C 0.40776 0.50947 0.9918 0.0
H88 H 0.30217 0.2792 0.08244 0.0
H89 H 0.74329 0.73345 0.93387 0.0
C90 C 0.05665 0.554 0.56269 0.0
C91 C 1.02024 0.50774 0.62694 0.0
C92 C 0.05768 0.55282 0.4344 0.0
C93 C 1.02246 0.50532 0.36493 0.0
H94 H 0.08495 0.59154 0.61172 0.0
H95 H 0.08654 0.58959 0.38955 0.0
S96 S 0.91786 0.37292 0.48821 0.0
N97 N 0.94687 0.41281 0.61038 0.0
N98 N 0.94915 0.41075 0.37041 0.0
C99 C 0.98556 0.45874 0.42794 0.0
C100 C 0.98435 0.45991 0.55844 0.0
C101 C 0.56013 0.98506 0.46456 0.0
C102 C 0.52836 0.00755 0.39292 0.0
C103 C 0.56021 0.98586 0.59303 0.0
C104 C 0.52858 0.00921 0.65528 0.0
H105 H 0.5849 0.9664 0.42124 0.0
H106 H 0.58504 0.96772 0.64373 0.0
S107 S 0.44052 0.0755 0.51092 0.0
N108 N 0.46585 0.05514 0.39454 0.0
N109 N 0.46611 0.05664 0.635 0.0
C110 C 0.49714 0.03228 0.5848 0.0
C111 C 0.49699 0.03144 0.45407 0.0
C112 C 0.49057 0.45928 0.55801 0.0
C113 C 0.52036 0.50564 0.63067 0.0
C114 C 0.49255 0.46032 0.42982 0.0
C115 C 0.52445 0.50778 0.36881 0.0
H116 H 0.46568 0.42175 0.6003 0.0
H117 H 0.46885 0.42348 0.37831 0.0
S118 S 0.60923 0.64043 0.51619 0.0
N119 N 0.58218 0.60063 0.63128 0.0
N120 N 0.58587 0.60245 0.39143 0.0
C121 C 0.55425 0.55447 0.44032 0.0
C122 C 0.5522 0.55344 0.57075 0.0
C123 C 0.27795 0.55863 0.00835 0.0
C124 C 0.21076 0.51231 0.99946 0.0
C125 C 0.34124 0.55757 1.00483 0.0
C126 C 0.34013 0.51016 0.99177 0.0
H127 H 0.28187 0.59607 0.01848 0.0
H128 H 0.39144 0.59429 0.01301 0.0
S129 S 0.17804 0.37778 0.96074 0.0
N130 N 0.14762 0.41751 0.97519 0.0
N131 N 0.26523 0.41576 0.96669 0.0
C132 C 0.27321 0.46369 0.98137 0.0
C133 C 0.20906 0.4647 0.98573 0.0
C134 C 0.7682 0.16119 0.02457 0.0
C135 C 0.70054 0.15271 0.04449 0.0
C136 C 0.82633 0.21166 0.01312 0.0
C137 C 0.81942 0.25584 0.02094 0.0
H138 H 0.77606 0.12854 0.01371 0.0
H139 H 0.87698 0.21602 0.99533 0.0
S140 S 0.65506 0.2552 0.08536 0.0
N141 N 0.63136 0.19317 0.08332 0.0
N142 N 0.74002 0.28775 0.05774 0.0
C143 C 0.75285 0.24815 0.04696 0.0
C144 C 0.69361 0.19668 0.05944 0.0
C145 C 0.70829 0.84838 0.07394 0.0
C146 C 0.64818 0.85135 0.03786 0.0
C147 C 0.70583 0.80057 0.07069 0.0
C148 C 0.64317 0.75394 0.03116 0.0
H149 H 0.75774 0.88345 0.10373 0.0
H150 H 0.75354 0.80005 0.0979 0.0
S151 S 0.47313 0.74136 0.916 0.0
N152 N 0.52534 0.80396 0.95463 0.0
N153 N 0.5207 0.71418 0.94932 0.0
C154 C 0.5826 0.75631 0.99519 0.0
C155 C 0.58512 0.80501 0.99825 0.0
C156 C 0.83252 0.54562 0.01456 0.0
C157 C 0.83259 0.49924 0.99161 0.0
C158 C 0.76885 0.54564 0.01985 0.0
C159 C 0.70214 0.49927 1.00238 0.0
H160 H 0.88214 0.58245 0.0294 0.0
H161 H 0.77217 0.58248 0.03796 0.0
S162 S 0.67239 0.36752 0.93217 0.0
N163 N 0.75966 0.40576 0.94685 0.0
N164 N 0.6405 0.40578 0.95659 0.0
C165 C 0.70141 0.45264 0.97815 0.0
C166 C 0.76632 0.45262 0.97278 0.0
C167 C 0.2304 0.80106 0.94923 0.0
C168 C 0.23389 0.75929 0.99998 0.0
C169 C 0.29075 0.8514 0.95121 0.0
C170 C 0.35657 0.86172 1.00507 0.0
H171 H 0.18034 0.79468 0.90883 0.0
H172 H 0.28569 0.88244 0.91089 0.0
S173 S 0.39042 0.76631 0.16406 0.0
N174 N 0.30625 0.73171 0.11226 0.0
N175 N 0.41957 0.82619 0.11876 0.0
C176 C 0.3602 0.82011 0.0575 0.0
C177 C 0.29888 0.76889 0.05425 0.0
C178 C 0.37334 0.22142 0.09435 0.0
C179 C 0.40415 0.25675 1.00025 0.0
C180 C 0.37324 0.17463 0.09725 0.0
C181 C 0.40405 0.1608 1.00633 0.0
H182 H 0.34952 0.23015 0.16765 0.0
H183 H 0.34935 0.14927 0.17253 0.0
S184 S 0.49173 0.23921 0.73911 0.0
N185 N 0.46658 0.27457 0.81331 0.0
N186 N 0.46649 0.18638 0.81891 0.0
C187 C 0.43617 0.196 0.91242 0.0
C188 C 0.43621 0.24395 0.90937 0.0
loop_
_geom_bond_atom_site_label_1
_geom_bond_atom_site_label_2
_geom_bond_distance
_geom_bond_site_symmetry_2
_ccdc_geom_bond_type
Co0 N5 2.057 1_554 S
Co0 O17 2.021 . S
Co0 O20 2.062 . S
Co0 O24 2.117 1_554 S
Co0 O25 2.020 1_655 S
C1 O21 1.259 . S
C1 O24 1.258 1_455 S
Co2 N11 2.057 1_556 S
Co2 O18 2.117 1_556 S
Co2 O19 2.020 1_455 S
Co2 O21 2.021 . S
Co2 O26 2.062 . S
C3 N5 1.316 1_554 S
C3 N6 1.347 1_554 S
C3 H8 0.931 . S
C4 N5 1.375 . S
C4 C7 1.350 . S
C4 H9 0.930 . S
N5 Co0 2.057 1_556 S
N5 C3 1.316 1_556 S
N5 C4 1.375 . S
N6 C3 1.347 1_556 S
N6 C7 1.373 . S
C7 C4 1.350 . S
C7 N6 1.373 . S
C7 H28 0.931 . S
H8 C3 0.931 . S
H9 C4 0.930 . S
C10 O17 1.259 . S
C10 O18 1.258 1_655 S
N11 Co2 2.057 1_554 S
N11 C12 1.316 1_554 S
N11 C13 1.375 . S
C12 N11 1.316 1_556 S
C12 N14 1.347 1_556 S
C12 H23 0.931 . S
C13 N11 1.375 . S
C13 C15 1.350 . S
C13 H22 0.930 . S
N14 C12 1.347 1_554 S
N14 C15 1.373 . S
C15 C13 1.350 . S
C15 N14 1.373 . S
C15 H29 0.931 . S
C16 O19 1.256 1_554 S
C16 O20 1.255 . S
O17 Co0 2.021 . S
O17 C10 1.259 . S
O18 Co2 2.117 1_554 S
O18 C10 1.258 1_455 S
O19 Co2 2.020 1_655 S
O19 C16 1.256 1_556 S
O20 Co0 2.062 . S
O20 C16 1.255 . S
O21 C1 1.259 . S
O21 Co2 2.021 . S
H22 C13 0.930 . S
H23 C12 0.931 . S
O24 Co0 2.117 1_556 S
O24 C1 1.258 1_655 S
O25 Co0 2.020 1_455 S
O25 C27 1.256 1_554 S
O26 Co2 2.062 . S
O26 C27 1.255 . S
C27 O25 1.256 1_556 S
C27 O26 1.255 . S
H28 C7 0.931 . S
H29 C15 0.931 . S
Co30 N35 2.057 1_554 S
Co30 O47 2.021 . S
Co30 O50 2.062 . S
Co30 O54 2.117 1_554 S
Co30 O55 2.020 1_565 S
C31 O51 1.259 . S
C31 O54 1.258 1_545 S
Co32 N41 2.057 1_556 S
Co32 O48 2.117 1_556 S
Co32 O49 2.020 1_545 S
Co32 O51 2.021 . S
Co32 O56 2.062 . S
C33 N35 1.316 1_554 S
C33 N36 1.347 1_554 S
C33 H38 0.931 . S
C34 N35 1.375 . S
C34 C37 1.350 . S
C34 H39 0.930 . S
N35 Co30 2.057 1_556 S
N35 C33 1.316 1_556 S
N35 C34 1.375 . S
N36 C33 1.347 1_556 S
N36 C37 1.373 . S
C37 C34 1.350 . S
C37 N36 1.373 . S
C37 H58 0.931 . S
H38 C33 0.931 . S
H39 C34 0.930 . S
C40 O47 1.259 . S
C40 O48 1.258 1_565 S
N41 Co32 2.057 1_554 S
N41 C42 1.316 1_554 S
N41 C43 1.375 . S
C42 N41 1.316 1_556 S
C42 N44 1.347 1_556 S
C42 H53 0.931 . S
C43 N41 1.375 . S
C43 C45 1.350 . S
C43 H52 0.930 . S
N44 C42 1.347 1_554 S
N44 C45 1.373 . S
C45 C43 1.350 . S
C45 N44 1.373 . S
C45 H59 0.931 . S
C46 O49 1.256 . S
C46 O50 1.255 1_556 S
O47 Co30 2.021 . S
O47 C40 1.259 . S
O48 Co32 2.117 1_554 S
O48 C40 1.258 1_545 S
O49 Co32 2.020 1_565 S
O49 C46 1.256 . S
O50 Co30 2.062 . S
O50 C46 1.255 1_554 S
O51 C31 1.259 . S
O51 Co32 2.021 . S
H52 C43 0.930 . S
H53 C42 0.931 . S
O54 Co30 2.117 1_556 S
O54 C31 1.258 1_565 S
O55 Co30 2.020 1_545 S
O55 C57 1.256 . S
O56 Co32 2.062 . S
O56 C57 1.255 1_556 S
C57 O55 1.256 . S
C57 O56 1.255 1_554 S
H58 C37 0.931 . S
H59 C45 0.931 . S
Co60 N65 2.057 1_556 S
Co60 O77 2.021 . S
Co60 O80 2.062 . S
Co60 O84 2.117 1_556 S
Co60 O85 2.020 . S
C61 O81 1.259 . S
C61 O84 1.258 . S
Co62 N71 2.057 1_554 S
Co62 O78 2.117 1_554 S
Co62 O79 2.020 . S
Co62 O81 2.021 . S
Co62 O86 2.062 . S
C63 N65 1.316 1_556 S
C63 N66 1.347 1_556 S
C63 H68 0.931 . S
C64 N65 1.375 . S
C64 C67 1.350 . S
C64 H69 0.930 . S
N65 Co60 2.057 1_554 S
N65 C63 1.316 1_554 S
N65 C64 1.375 . S
N66 C63 1.347 1_554 S
N66 C67 1.373 . S
C67 C64 1.350 . S
C67 N66 1.373 . S
C67 H88 0.931 . S
H68 C63 0.931 . S
H69 C64 0.930 . S
C70 O77 1.259 . S
C70 O78 1.258 . S
N71 Co62 2.057 1_556 S
N71 C72 1.316 1_556 S
N71 C73 1.375 . S
C72 N71 1.316 1_554 S
C72 N74 1.347 1_554 S
C72 H83 0.931 . S
C73 N71 1.375 . S
C73 C75 1.350 . S
C73 H82 0.930 . S
N74 C72 1.347 1_556 S
N74 C75 1.373 . S
C75 C73 1.350 . S
C75 N74 1.373 . S
C75 H89 0.931 . S
C76 O79 1.256 . S
C76 O80 1.254 1_554 S
O77 Co60 2.021 . S
O77 C70 1.259 . S
O78 Co62 2.117 1_556 S
O78 C70 1.258 . S
O79 Co62 2.020 . S
O79 C76 1.256 . S
O80 Co60 2.062 . S
O80 C76 1.254 1_556 S
O81 C61 1.259 . S
O81 Co62 2.021 . S
H82 C73 0.930 . S
H83 C72 0.931 . S
O84 Co60 2.117 1_554 S
O84 C61 1.258 . S
O85 Co60 2.020 . S
O85 C87 1.256 . S
O86 Co62 2.062 . S
O86 C87 1.254 1_554 S
C87 O85 1.256 . S
C87 O86 1.254 1_556 S
H88 C67 0.931 . S
H89 C75 0.931 . S
C90 C91 1.368 1_455 S
C90 C92 1.419 . S
C90 H94 0.930 . S
C91 C90 1.368 1_655 S
C91 C100 1.429 . S
C92 C90 1.419 . S
C92 C93 1.362 1_455 S
C92 H95 0.929 . S
C93 C92 1.362 1_655 S
C93 C99 1.430 . S
H94 C90 0.930 . S
H95 C92 0.929 . S
S96 N97 1.613 . S
S96 N98 1.610 . S
N97 S96 1.613 . S
N97 C100 1.350 . S
N98 S96 1.610 . S
N98 C99 1.351 . S
C99 C93 1.430 . S
C99 N98 1.351 . S
C99 C100 1.434 . S
C100 C91 1.429 . S
C100 N97 1.350 . S
C100 C99 1.434 . S
C101 C102 1.387 . S
C101 C103 1.419 . S
C101 H105 0.930 . S
C102 C101 1.387 . S
C102 C111 1.410 1_565 S
C103 C101 1.419 . S
C103 C104 1.363 1_565 S
C103 H106 0.929 . S
C104 C103 1.363 1_545 S
C104 C110 1.428 . S
H105 C101 0.930 . S
H106 C103 0.929 . S
S107 N108 1.613 . S
S107 N109 1.610 . S
N108 S107 1.613 . S
N108 C111 1.350 . S
N109 S107 1.610 . S
N109 C110 1.351 . S
C110 C104 1.428 . S
C110 N109 1.351 . S
C110 C111 1.434 . S
C111 C102 1.410 1_545 S
C111 N108 1.350 . S
C111 C110 1.434 . S
C112 C113 1.369 . S
C112 C114 1.419 . S
C112 H116 0.930 . S
C113 C112 1.369 . S
C113 C122 1.429 . S
C114 C112 1.419 . S
C114 C115 1.363 . S
C114 H117 0.929 . S
C115 C114 1.363 . S
C115 C121 1.428 . S
H116 C112 0.930 . S
H117 C114 0.929 . S
S118 N119 1.613 . S
S118 N120 1.610 . S
N119 S118 1.613 . S
N119 C122 1.350 . S
N120 S118 1.610 . S
N120 C121 1.351 . S
C121 C115 1.428 . S
C121 N120 1.351 . S
C121 C122 1.434 . S
C122 C113 1.429 . S
C122 N119 1.350 . S
C122 C121 1.434 . S
C123 C124 1.364 1_554 S
C123 C125 1.419 . S
C123 H127 0.930 . S
C124 C123 1.364 1_556 S
C124 C133 1.434 . S
C125 C123 1.419 . S
C125 C126 1.363 1_554 S
C125 H128 0.929 . S
C126 C125 1.363 1_556 S
C126 C132 1.428 . S
H127 C123 0.930 . S
H128 C125 0.929 . S
S129 N130 1.613 . S
S129 N131 1.610 . S
N130 S129 1.613 . S
N130 C133 1.350 . S
N131 S129 1.610 . S
N131 C132 1.351 . S
C132 C126 1.428 . S
C132 N131 1.351 . S
C132 C133 1.434 . S
C133 C124 1.434 . S
C133 N130 1.350 . S
C133 C132 1.434 . S
C134 C135 1.369 . S
C134 C136 1.419 . S
C134 H138 0.930 . S
C135 C134 1.369 . S
C135 C144 1.429 1_554 S
C136 C134 1.419 . S
C136 C137 1.363 . S
C136 H139 0.929 . S
C137 C136 1.363 . S
C137 C143 1.428 1_554 S
H138 C134 0.930 . S
H139 C136 0.929 . S
S140 N141 1.613 . S
S140 N142 1.610 . S
N141 S140 1.613 . S
N141 C144 1.350 . S
N142 S140 1.610 . S
N142 C143 1.351 . S
C143 C137 1.428 1_556 S
C143 N142 1.351 . S
C143 C144 1.434 . S
C144 C135 1.429 1_556 S
C144 N141 1.350 . S
C144 C143 1.434 . S
C145 C146 1.369 . S
C145 C147 1.419 . S
C145 H149 0.930 . S
C146 C145 1.369 . S
C146 C155 1.429 1_554 S
C147 C145 1.419 . S
C147 C148 1.363 . S
C147 H150 0.929 . S
C148 C147 1.363 . S
C148 C154 1.428 1_554 S
H149 C145 0.930 . S
H150 C147 0.929 . S
S151 N152 1.613 . S
S151 N153 1.610 . S
N152 S151 1.613 . S
N152 C155 1.350 . S
N153 S151 1.610 . S
N153 C154 1.351 . S
C154 C148 1.428 1_556 S
C154 N153 1.351 . S
C154 C155 1.434 . S
C155 C146 1.429 1_556 S
C155 N152 1.350 . S
C155 C154 1.434 . S
C156 C157 1.369 1_556 S
C156 C158 1.419 . S
C156 H160 0.930 . S
C157 C156 1.369 1_554 S
C157 C166 1.429 . S
C158 C156 1.419 . S
C158 C159 1.363 1_556 S
C158 H161 0.929 . S
C159 C158 1.363 1_554 S
C159 C165 1.428 . S
H160 C156 0.930 . S
H161 C158 0.929 . S
S162 N163 1.613 . S
S162 N164 1.610 . S
N163 S162 1.613 . S
N163 C166 1.350 . S
N164 S162 1.610 . S
N164 C165 1.351 . S
C165 C159 1.428 . S
C165 N164 1.351 . S
C165 C166 1.434 . S
C166 C157 1.429 . S
C166 N163 1.350 . S
C166 C165 1.434 . S
C167 C168 1.369 . S
C167 C169 1.419 . S
C167 H171 0.930 . S
C168 C167 1.369 . S
C168 C177 1.429 1_556 S
C169 C167 1.419 . S
C169 C170 1.363 . S
C169 H172 0.929 . S
C170 C169 1.363 . S
C170 C176 1.428 1_556 S
H171 C167 0.930 . S
H172 C169 0.929 . S
S173 N174 1.613 . S
S173 N175 1.610 . S
N174 S173 1.613 . S
N174 C177 1.350 . S
N175 S173 1.610 . S
N175 C176 1.351 . S
C176 C170 1.428 1_554 S
C176 N175 1.351 . S
C176 C177 1.434 . S
C177 C168 1.429 1_554 S
C177 N174 1.350 . S
C177 C176 1.434 . S
C178 C179 1.369 1_554 S
C178 C180 1.419 . S
C178 H182 0.930 . S
C179 C178 1.369 1_556 S
C179 C188 1.429 . S
C180 C178 1.419 . S
C180 C181 1.363 1_554 S
C180 H183 0.929 . S
C181 C180 1.363 1_556 S
C181 C187 1.428 . S
H182 C178 0.930 . S
H183 C180 0.929 . S
S184 N185 1.613 . S
S184 N186 1.610 . S
N185 S184 1.613 . S
N185 C188 1.350 . S
N186 S184 1.610 . S
N186 C187 1.351 . S
C187 C181 1.428 . S
C187 N186 1.351 . S
C187 C188 1.434 . S
C188 C179 1.429 . S
C188 N185 1.350 . S
C188 C187 1.434 . S
C91 C1 1.497 1_655 S
C93 C10 1.495 . S
C102 C40 1.504 . S
C104 C31 1.502 . S
C113 C70 1.503 . S
C115 C61 1.502 . S
C124 C27 1.742 . S
C126 C87 1.724 . S
C135 C57 1.247 . S
C137 N6 1.245 1_554 S
C146 N36 0.910 1_554 S
C148 N74 0.917 1_554 S
C157 C16 1.743 . S
C159 C76 1.726 . S
C168 N14 1.247 1_556 S
C170 C46 1.248 . S
C179 N66 0.916 1_556 S
C181 N44 0.917 1_556 S
