# Generated by pormake.
# Topology smk, (6)-cn, num edge types: 1
# Building blocks:
#     Node 0, Type 0, BuildingBlock: IZENUY_clean_sbu_0, # of connection points: 6
#     Node 1, Type 0, BuildingBlock: IZENUY_clean_sbu_0, # of connection points: 6
#     Node 2, Type 0, BuildingBlock: IZENUY_clean_sbu_0, # of connection points: 6
#     Node 3, Type 0, BuildingBlock: IZENUY_clean_sbu_0, # of connection points: 6
#     Node 4, Type 0, BuildingBlock: IZENUY_clean_sbu_0, # of connection points: 6
#     Node 5, Type 0, BuildingBlock: IZENUY_clean_sbu_0, # of connection points: 6
#     Edge 6, Type (0, 0), None
#     Edge 7, Type (0, 0), None
#     Edge 8, Type (0, 0), None
#     Edge 9, Type (0, 0), None
#     Edge 10, Type (0, 0), None
#     Edge 11, Type (0, 0), None
#     Edge 12, Type (0, 0), None
#     Edge 13, Type (0, 0), None
#     Edge 14, Type (0, 0), None
#     Edge 15, Type (0, 0), None
#     Edge 16, Type (0, 0), None
#     Edge 17, Type (0, 0), None
#     Edge 18, Type (0, 0), None
#     Edge 19, Type (0, 0), None
#     Edge 20, Type (0, 0), None
#     Edge 21, Type (0, 0), None
#     Edge 22, Type (0, 0), None
#     Edge 23, Type (0, 0), None
# Relax obj value: 0.171
# Max RMSD: 0.207
# Mean RMSD: 0.207
data_MOF--net-smk--node1-IZENUY_clean_sbu_0--edge1-none
_symmetry_space_group_name_H-M    P1
_symmetry_Int_Tables_number       1
_symmetry_cell_setting            triclinic
loop_
_symmetry_equiv_pos_as_xyz
'x, y, z'
_cell_length_a     19.687024
_cell_length_b     19.688055
_cell_length_c     6.9630379
_cell_angle_alpha  90.00146
_cell_angle_beta   89.996038
_cell_angle_gamma 120.44629
loop_
_atom_site_label
_atom_site_type_symbol
_atom_site_fract_x
_atom_site_fract_y
_atom_site_fract_z
_atom_type_partial_charge
Fe0 Fe 0.52362 0.31815 0.78098 0.0
Fe1 Fe 0.36912 0.19176 0.60247 0.0
O2 O 0.47435 0.24927 0.60236 0.0
Fe3 Fe 0.52759 0.23762 0.42169 0.0
O4 O 0.5845 0.21234 0.581 0.0
O5 O 0.61327 0.31035 0.77952 0.0
O6 O 0.48119 0.23484 0.93938 0.0
C7 C 0.41159 0.2055 0.99779 0.0
C8 C 0.60982 0.40326 0.47779 0.0
O9 O 0.35949 0.19617 0.87438 0.0
C10 C 0.40958 0.22146 0.20628 0.0
O11 O 0.4433 0.34062 0.81118 0.0
O12 O 0.36297 0.27957 0.56937 0.0
O13 O 0.60608 0.34088 0.41685 0.0
O14 O 0.56901 0.40162 0.619 0.0
C15 C 0.40691 0.08124 0.5207 0.0
O16 O 0.3594 0.17565 0.33011 0.0
O17 O 0.47674 0.26872 0.26615 0.0
C18 C 0.39279 0.33546 0.68899 0.0
O19 O 0.37275 0.1032 0.63674 0.0
O20 O 0.45635 0.12941 0.39866 0.0
C21 C 0.62816 0.26 0.70888 0.0
Fe22 Fe 0.25293 0.51228 0.99091 0.0
Fe23 Fe 0.20701 0.35387 0.80992 0.0
O24 O 0.26454 0.45909 0.81006 0.0
Fe25 Fe 0.33346 0.50839 0.63148 0.0
O26 O 0.41692 0.55375 0.7935 0.0
O27 O 0.35619 0.59076 0.9958 0.0
O28 O 0.28406 0.46136 0.14619 0.0
C29 C 0.23682 0.3942 0.20617 0.0
C30 C 0.2753 0.61292 0.70389 0.0
O31 O 0.19089 0.34415 0.08229 0.0
C32 C 0.22089 0.39639 0.41462 0.0
O33 O 0.14471 0.44105 1.01396 0.0
O34 O 0.11847 0.35755 0.77566 0.0
O35 O 0.32563 0.59802 0.63306 0.0
O36 O 0.22766 0.56926 0.83182 0.0
C37 C 0.35074 0.37756 0.72349 0.0
O38 O 0.21142 0.34423 0.53803 0.0
O39 O 0.25019 0.46599 0.47292 0.0
C40 C 0.09652 0.39166 0.89187 0.0
O41 O 0.2948 0.34768 0.84299 0.0
O42 O 0.35593 0.42808 0.60127 0.0
C43 C 0.41857 0.59455 0.93474 0.0
Fe44 Fe 0.8849 0.2005 0.95639 0.0
Fe45 Fe 0.86634 0.34027 0.82048 0.0
O46 O 0.83282 0.25251 0.95636 0.0
Fe47 Fe 0.74505 0.21895 0.0922 0.0
O48 O 0.79657 0.23094 0.30596 0.0
O49 O 0.87954 0.18974 0.22975 0.0
O50 O 0.97956 0.28713 1.00166 0.0
C51 C 1.01139 0.35297 0.92166 0.0
C52 C 0.73247 0.07393 0.99113 0.0
O53 O 0.97145 0.37303 0.82163 0.0
C54 C 0.69863 0.25973 0.77532 0.0
O55 O 0.89567 0.20587 0.683 0.0
O56 O 0.85428 0.2887 0.60676 0.0
O57 O 0.71228 0.11385 0.09083 0.0
O58 O 0.79834 0.1058 0.91118 0.0
C59 C 0.82563 0.38668 0.13752 0.0
O60 O 0.76501 0.32378 0.77997 0.0
O61 O 0.68749 0.20291 0.87823 0.0
C62 C 0.87201 0.23793 0.55843 0.0
O63 O 0.88243 0.39781 1.03447 0.0
O64 O 0.76157 0.32029 0.13285 0.0
C65 C 0.84736 0.21324 0.35434 0.0
Fe66 Fe 0.73154 0.87829 0.10251 0.0
Fe67 Fe 0.5731 0.83244 0.92171 0.0
O68 O 0.62632 0.82079 0.10241 0.0
Fe69 Fe 0.57703 0.7519 0.28104 0.0
O70 O 0.61948 0.83521 0.43947 0.0
O71 O 0.74118 0.87387 0.37438 0.0
O72 O 0.72792 0.96685 0.13681 0.0
C73 C 0.69373 0.9888 1.02083 0.0
C74 C 0.70788 0.73459 0.18902 0.0
O75 O 0.64434 0.94065 0.89869 0.0
C76 C 0.49089 0.66682 0.97775 0.0
O77 O 0.74126 0.89441 0.83016 0.0
O78 O 0.62397 0.80133 0.76623 0.0
O79 O 0.65735 0.72942 0.31122 0.0
O80 O 0.73769 0.79047 0.06939 0.0
C81 C 0.47251 0.81006 0.20888 0.0
O82 O 0.49461 0.72919 0.91683 0.0
O83 O 0.53163 0.66842 0.11908 0.0
C84 C 0.69113 0.84859 0.70628 0.0
O85 O 0.51616 0.8577 0.08098 0.0
O86 O 0.4874 0.75971 0.27958 0.0
C87 C 0.68908 0.86455 0.49782 0.0
Fe88 Fe 0.89366 0.71618 0.30995 0.0
Fe89 Fe 0.76723 0.56168 0.13148 0.0
O90 O 0.83612 0.61097 0.3101 0.0
Fe91 Fe 0.84774 0.55778 0.49094 0.0
O92 O 0.81661 0.60869 0.64627 0.0
O93 O 0.90977 0.72591 0.5823 0.0
O94 O 0.80586 0.72238 0.34304 0.0
C95 C 0.74992 0.6925 0.22353 0.0
C96 C 1.00415 0.67839 0.39188 0.0
O97 O 0.74475 0.64199 0.1013 0.0
C98 C 0.82537 0.45716 0.20387 0.0
O99 O 0.88925 0.72583 1.03808 0.0
O100 O 0.85053 0.60412 0.973 0.0
O101 O 0.95596 0.629 0.51397 0.0
O102 O 0.9822 0.71251 0.27567 0.0
C103 C 0.68213 0.47555 0.43479 0.0
O104 O 0.77506 0.47207 0.13303 0.0
O105 O 0.873 0.5008 0.33181 0.0
C106 C 0.87982 0.6737 0.91462 0.0
O107 O 0.68374 0.51629 0.29344 0.0
O108 O 0.74449 0.47931 0.49583 0.0
C109 C 0.86385 0.67586 0.7062 0.0
Fe110 Fe 0.21574 0.86953 0.45646 0.0
Fe111 Fe 0.23433 0.72979 0.3205 0.0
O112 O 0.26784 0.81755 0.4564 0.0
Fe113 Fe 0.35562 0.85112 0.59221 0.0
O114 O 0.30411 0.83914 0.80599 0.0
O115 O 0.2211 0.8803 0.72982 0.0
O116 O 0.12109 0.7829 0.50176 0.0
C117 C 0.08928 0.71708 0.42167 0.0
C118 C 0.36818 0.99611 0.49101 0.0
O119 O 0.12922 0.69703 0.32162 0.0
C120 C 0.40204 0.81033 0.27531 0.0
O121 O 0.20498 0.86416 0.18307 0.0
O122 O 0.24641 0.78138 0.1068 0.0
O123 O 0.38839 0.95622 0.59078 0.0
O124 O 0.30229 0.96425 0.41123 0.0
C125 C 0.27503 0.68339 0.63755 0.0
O126 O 0.33566 0.74627 0.28 0.0
O127 O 0.41317 0.86715 0.37821 0.0
C128 C 0.22866 0.83213 0.05849 0.0
O129 O 0.21824 0.67222 0.53447 0.0
O130 O 0.33909 0.74978 0.6329 0.0
C131 C 0.25331 0.85683 0.85439 0.0
loop_
_geom_bond_atom_site_label_1
_geom_bond_atom_site_label_2
_geom_bond_distance
_geom_bond_site_symmetry_2
_ccdc_geom_bond_type
Fe0 O2 1.918 . S
Fe0 O5 1.997 . S
Fe0 O6 2.002 . S
Fe0 O11 1.976 . S
Fe0 O14 1.996 . S
Fe1 O2 1.918 . S
Fe1 O9 1.997 . S
Fe1 O12 1.996 . S
Fe1 O16 1.976 . S
Fe1 O19 2.002 . S
O2 Fe0 1.918 . S
O2 Fe1 1.918 . S
O2 Fe3 1.918 . S
Fe3 O2 1.918 . S
Fe3 O4 2.002 . S
Fe3 O13 1.976 . S
Fe3 O17 1.996 . S
Fe3 O20 1.997 . S
O4 Fe3 2.002 . S
O4 C21 1.295 . S
O5 Fe0 1.997 . S
O5 C21 1.235 . S
O6 Fe0 2.002 . S
O6 C7 1.295 . S
C7 O6 1.295 . S
C7 O9 1.235 . S
C8 O13 1.287 . S
C8 O14 1.255 . S
O9 Fe1 1.997 . S
O9 C7 1.235 . S
C10 O16 1.287 . S
C10 O17 1.255 . S
O11 Fe0 1.976 . S
O11 C18 1.287 . S
O12 Fe1 1.996 . S
O12 C18 1.255 . S
O13 Fe3 1.976 . S
O13 C8 1.287 . S
O14 Fe0 1.996 . S
O14 C8 1.255 . S
C15 O19 1.295 . S
C15 O20 1.235 . S
O16 Fe1 1.976 . S
O16 C10 1.287 . S
O17 Fe3 1.996 . S
O17 C10 1.255 . S
C18 O11 1.287 . S
C18 O12 1.255 . S
O19 Fe1 2.002 . S
O19 C15 1.295 . S
O20 Fe3 1.997 . S
O20 C15 1.235 . S
C21 O4 1.295 . S
C21 O5 1.235 . S
Fe22 O24 1.918 . S
Fe22 O27 1.997 . S
Fe22 O28 2.002 1_556 S
Fe22 O33 1.976 . S
Fe22 O36 1.996 . S
Fe23 O24 1.918 . S
Fe23 O31 1.997 1_556 S
Fe23 O34 1.996 . S
Fe23 O38 1.976 . S
Fe23 O41 2.002 . S
O24 Fe22 1.918 . S
O24 Fe23 1.918 . S
O24 Fe25 1.918 . S
Fe25 O24 1.918 . S
Fe25 O26 2.002 . S
Fe25 O35 1.976 . S
Fe25 O39 1.996 . S
Fe25 O42 1.997 . S
O26 Fe25 2.002 . S
O26 C43 1.295 . S
O27 Fe22 1.997 . S
O27 C43 1.235 . S
O28 Fe22 2.002 1_554 S
O28 C29 1.295 . S
C29 O28 1.295 . S
C29 O31 1.235 . S
C30 O35 1.287 . S
C30 O36 1.255 . S
O31 Fe23 1.997 1_554 S
O31 C29 1.235 . S
C32 O38 1.287 . S
C32 O39 1.255 . S
O33 Fe22 1.976 . S
O33 C40 1.287 . S
O34 Fe23 1.996 . S
O34 C40 1.255 . S
O35 Fe25 1.976 . S
O35 C30 1.287 . S
O36 Fe22 1.996 . S
O36 C30 1.255 . S
C37 O41 1.295 . S
C37 O42 1.235 . S
O38 Fe23 1.976 . S
O38 C32 1.287 . S
O39 Fe25 1.996 . S
O39 C32 1.255 . S
C40 O33 1.287 . S
C40 O34 1.255 . S
O41 Fe23 2.002 . S
O41 C37 1.295 . S
O42 Fe25 1.997 . S
O42 C37 1.235 . S
C43 O26 1.295 . S
C43 O27 1.235 . S
Fe44 O46 1.918 . S
Fe44 O49 1.997 1_556 S
Fe44 O50 2.002 . S
Fe44 O55 1.976 . S
Fe44 O58 1.996 . S
Fe45 O46 1.918 . S
Fe45 O53 1.997 . S
Fe45 O56 1.996 . S
Fe45 O60 1.976 . S
Fe45 O63 2.002 . S
O46 Fe44 1.918 . S
O46 Fe45 1.918 . S
O46 Fe47 1.918 1_556 S
Fe47 O46 1.918 1_554 S
Fe47 O48 2.002 . S
Fe47 O57 1.976 . S
Fe47 O61 1.996 1_554 S
Fe47 O64 1.997 . S
O48 Fe47 2.002 . S
O48 C65 1.295 . S
O49 Fe44 1.997 1_554 S
O49 C65 1.235 . S
O50 Fe44 2.002 . S
O50 C51 1.295 . S
C51 O50 1.295 . S
C51 O53 1.235 . S
C52 O57 1.287 1_556 S
C52 O58 1.255 . S
O53 Fe45 1.997 . S
O53 C51 1.235 . S
C54 O60 1.287 . S
C54 O61 1.255 . S
O55 Fe44 1.976 . S
O55 C62 1.287 . S
O56 Fe45 1.996 . S
O56 C62 1.255 . S
O57 Fe47 1.976 . S
O57 C52 1.287 1_554 S
O58 Fe44 1.996 . S
O58 C52 1.255 . S
C59 O63 1.295 1_554 S
C59 O64 1.235 . S
O60 Fe45 1.976 . S
O60 C54 1.287 . S
O61 Fe47 1.996 1_556 S
O61 C54 1.255 . S
C62 O55 1.287 . S
C62 O56 1.255 . S
O63 Fe45 2.002 . S
O63 C59 1.295 1_556 S
O64 Fe47 1.997 . S
O64 C59 1.235 . S
C65 O48 1.295 . S
C65 O49 1.235 . S
Fe66 O68 1.918 . S
Fe66 O71 1.997 . S
Fe66 O72 2.002 . S
Fe66 O77 1.976 1_554 S
Fe66 O80 1.996 . S
Fe67 O68 1.918 1_556 S
Fe67 O75 1.997 . S
Fe67 O78 1.996 . S
Fe67 O82 1.976 . S
Fe67 O85 2.002 1_556 S
O68 Fe66 1.918 . S
O68 Fe67 1.918 1_554 S
O68 Fe69 1.918 . S
Fe69 O68 1.918 . S
Fe69 O70 2.002 . S
Fe69 O79 1.976 . S
Fe69 O83 1.996 . S
Fe69 O86 1.997 . S
O70 Fe69 2.002 . S
O70 C87 1.295 . S
O71 Fe66 1.997 . S
O71 C87 1.235 . S
O72 Fe66 2.002 . S
O72 C73 1.295 . S
C73 O72 1.295 . S
C73 O75 1.235 1_554 S
C74 O79 1.287 . S
C74 O80 1.255 . S
O75 Fe67 1.997 . S
O75 C73 1.235 1_556 S
C76 O82 1.287 . S
C76 O83 1.255 1_556 S
O77 Fe66 1.976 1_556 S
O77 C84 1.287 . S
O78 Fe67 1.996 . S
O78 C84 1.255 . S
O79 Fe69 1.976 . S
O79 C74 1.287 . S
O80 Fe66 1.996 . S
O80 C74 1.255 . S
C81 O85 1.295 . S
C81 O86 1.235 . S
O82 Fe67 1.976 . S
O82 C76 1.287 . S
O83 Fe69 1.996 . S
O83 C76 1.255 1_554 S
C84 O77 1.287 . S
C84 O78 1.255 . S
O85 Fe67 2.002 1_554 S
O85 C81 1.295 . S
O86 Fe69 1.997 . S
O86 C81 1.235 . S
C87 O70 1.295 . S
C87 O71 1.235 . S
Fe88 O90 1.918 . S
Fe88 O93 1.997 . S
Fe88 O94 2.002 . S
Fe88 O99 1.976 1_554 S
Fe88 O102 1.996 . S
Fe89 O90 1.918 . S
Fe89 O97 1.997 . S
Fe89 O100 1.996 1_554 S
Fe89 O104 1.976 . S
Fe89 O107 2.002 . S
O90 Fe88 1.918 . S
O90 Fe89 1.918 . S
O90 Fe91 1.918 . S
Fe91 O90 1.918 . S
Fe91 O92 2.002 . S
Fe91 O101 1.976 . S
Fe91 O105 1.996 . S
Fe91 O108 1.997 . S
O92 Fe91 2.002 . S
O92 C109 1.295 . S
O93 Fe88 1.997 . S
O93 C109 1.235 . S
O94 Fe88 2.002 . S
O94 C95 1.295 . S
C95 O94 1.295 . S
C95 O97 1.235 . S
C96 O101 1.287 . S
C96 O102 1.255 . S
O97 Fe89 1.997 . S
O97 C95 1.235 . S
C98 O104 1.287 . S
C98 O105 1.255 . S
O99 Fe88 1.976 1_556 S
O99 C106 1.287 . S
O100 Fe89 1.996 1_556 S
O100 C106 1.255 . S
O101 Fe91 1.976 . S
O101 C96 1.287 . S
O102 Fe88 1.996 . S
O102 C96 1.255 . S
C103 O107 1.295 . S
C103 O108 1.235 . S
O104 Fe89 1.976 . S
O104 C98 1.287 . S
O105 Fe91 1.996 . S
O105 C98 1.255 . S
C106 O99 1.287 . S
C106 O100 1.255 . S
O107 Fe89 2.002 . S
O107 C103 1.295 . S
O108 Fe91 1.997 . S
O108 C103 1.235 . S
C109 O92 1.295 . S
C109 O93 1.235 . S
Fe110 O112 1.918 . S
Fe110 O115 1.997 . S
Fe110 O116 2.002 . S
Fe110 O121 1.976 . S
Fe110 O124 1.996 . S
Fe111 O112 1.918 . S
Fe111 O119 1.997 . S
Fe111 O122 1.996 . S
Fe111 O126 1.976 . S
Fe111 O129 2.002 . S
O112 Fe110 1.918 . S
O112 Fe111 1.918 . S
O112 Fe113 1.918 . S
Fe113 O112 1.918 . S
Fe113 O114 2.002 . S
Fe113 O123 1.976 . S
Fe113 O127 1.996 . S
Fe113 O130 1.997 . S
O114 Fe113 2.002 . S
O114 C131 1.295 . S
O115 Fe110 1.997 . S
O115 C131 1.235 . S
O116 Fe110 2.002 . S
O116 C117 1.295 . S
C117 O116 1.295 . S
C117 O119 1.235 . S
C118 O123 1.287 . S
C118 O124 1.255 . S
O119 Fe111 1.997 . S
O119 C117 1.235 . S
C120 O126 1.287 . S
C120 O127 1.255 . S
O121 Fe110 1.976 . S
O121 C128 1.287 . S
O122 Fe111 1.996 . S
O122 C128 1.255 . S
O123 Fe113 1.976 . S
O123 C118 1.287 . S
O124 Fe110 1.996 . S
O124 C118 1.255 . S
C125 O129 1.295 . S
C125 O130 1.235 . S
O126 Fe111 1.976 . S
O126 C120 1.287 . S
O127 Fe113 1.996 . S
O127 C120 1.255 . S
C128 O121 1.287 . S
C128 O122 1.255 . S
O129 Fe111 2.002 . S
O129 C125 1.295 . S
O130 Fe113 1.997 . S
O130 C125 1.235 . S
C131 O114 1.295 . S
C131 O115 1.235 . S
C10 C7 1.669 1_554 S
C32 C29 1.669 . S
C65 C62 1.669 . S
C87 C84 1.669 . S
C109 C106 1.669 . S
C128 C131 1.669 1_554 S
C15 C118 1.570 1_545 S
C18 C37 1.570 . S
C51 C40 1.570 1_655 S
C73 C52 1.570 1_564 S
C95 C74 1.570 . S
C96 C117 1.570 1_655 S
C8 C103 1.313 . S
C30 C125 1.313 . S
C54 C21 1.313 . S
C76 C43 1.313 . S
C98 C59 1.313 . S
C81 C120 1.313 . S
