# Generated by pormake.
# Topology wgu, (5)-cn, num edge types: 1
# Building blocks:
#     Node 0, Type 0, BuildingBlock: XOMCOT_clean_sbu_1, # of connection points: 5
#     Node 1, Type 0, BuildingBlock: XOMCOT_clean_sbu_1, # of connection points: 5
#     Node 2, Type 0, BuildingBlock: XOMCOT_clean_sbu_1, # of connection points: 5
#     Node 3, Type 0, BuildingBlock: XOMCOT_clean_sbu_1, # of connection points: 5
#     Node 4, Type 0, BuildingBlock: XOMCOT_clean_sbu_1, # of connection points: 5
#     Node 5, Type 0, BuildingBlock: XOMCOT_clean_sbu_1, # of connection points: 5
#     Node 6, Type 0, BuildingBlock: XOMCOT_clean_sbu_1, # of connection points: 5
#     Node 7, Type 0, BuildingBlock: XOMCOT_clean_sbu_1, # of connection points: 5
#     Edge 8, Type (0, 0), None
#     Edge 9, Type (0, 0), None
#     Edge 10, Type (0, 0), None
#     Edge 11, Type (0, 0), None
#     Edge 12, Type (0, 0), None
#     Edge 13, Type (0, 0), None
#     Edge 14, Type (0, 0), None
#     Edge 15, Type (0, 0), None
#     Edge 16, Type (0, 0), None
#     Edge 17, Type (0, 0), None
#     Edge 18, Type (0, 0), None
#     Edge 19, Type (0, 0), None
#     Edge 20, Type (0, 0), None
#     Edge 21, Type (0, 0), None
#     Edge 22, Type (0, 0), None
#     Edge 23, Type (0, 0), None
#     Edge 24, Type (0, 0), None
#     Edge 25, Type (0, 0), None
#     Edge 26, Type (0, 0), None
#     Edge 27, Type (0, 0), None
# Relax obj value: 0.286
# Max RMSD: 0.191
# Mean RMSD: 0.182
data_MOF--net-wgu--node1-XOMCOT_clean_sbu_1--edge1-none
_symmetry_space_group_name_H-M    P1
_symmetry_Int_Tables_number       1
_symmetry_cell_setting            triclinic
loop_
_symmetry_equiv_pos_as_xyz
'x, y, z'
_cell_length_a     17.336976
_cell_length_b     17.300367
_cell_length_c     13.658318
_cell_angle_alpha  95.721945
_cell_angle_beta   91.864971
_cell_angle_gamma 90.147986
loop_
_atom_site_label
_atom_site_type_symbol
_atom_site_fract_x
_atom_site_fract_y
_atom_site_fract_z
_atom_type_partial_charge
C0 C 0.23461 0.49074 0.2802 0.0
C1 C 0.19979 0.55973 0.26177 0.0
N2 N 0.2345 0.58565 0.18537 0.0
N3 N 0.28853 0.4716 0.21227 0.0
C4 C 0.29012 0.53425 0.16007 0.0
H5 H 0.21884 0.45565 0.33758 0.0
Co6 Co 0.3401 0.37425 0.18691 0.0
C7 C 0.46816 0.43554 0.0567 0.0
O8 O 0.44461 0.39816 0.97272 0.0
N9 N 0.39248 0.27699 0.1624 0.0
C10 C 0.41036 0.16291 0.07412 0.0
C11 C 0.41794 0.2424 0.07609 0.0
C12 C 0.37785 0.21665 0.21413 0.0
N13 N 0.38114 0.14707 0.15977 0.0
O14 O 0.25536 0.32034 0.25503 0.0
H15 H 0.4261 0.27101 1.01107 0.0
H16 H 0.35202 0.22444 0.2842 0.0
O17 O 0.42997 0.42929 0.13448 0.0
C18 C 0.18128 0.31627 0.25136 0.0
O19 O 0.14215 0.35414 0.18761 0.0
N20 N 0.285 0.35276 0.06011 0.0
C21 C 0.20869 0.30887 0.87772 0.0
C22 C 0.24352 0.38205 0.89758 0.0
C23 C 0.28218 0.40203 0.98769 0.0
C24 C 0.24854 0.28202 0.04211 0.0
C25 C 0.2108 0.25897 0.95224 0.0
H26 H 0.31332 0.45552 0.99447 0.0
H27 H 0.25055 0.24057 0.09591 0.0
H28 H 0.33165 0.54376 0.10545 0.0
H29 H 0.15035 0.58632 0.29697 0.0
H30 H 0.41209 0.12222 1.00866 0.0
H31 H 0.24337 0.42319 0.84279 0.0
H32 H 0.18655 0.20092 0.9404 0.0
C33 C 0.46884 0.32171 0.5138 0.0
C34 C 0.39937 0.28413 0.4991 0.0
N35 N 0.40819 0.21108 0.52357 0.0
N36 N 0.52182 0.27322 0.5483 0.0
C37 C 0.48289 0.20554 0.55374 0.0
H38 H 0.48102 0.37947 0.49439 0.0
Co39 Co 0.62869 0.29599 0.55769 0.0
C40 C 0.67542 0.21552 0.74992 0.0
O41 O 0.73774 0.17896 0.71926 0.0
N42 N 0.73484 0.31697 0.56649 0.0
C43 C 0.85791 0.32389 0.6176 0.0
C44 C 0.78259 0.3348 0.64566 0.0
C45 C 0.78214 0.30142 0.49092 0.0
N46 N 0.85666 0.30162 0.52015 0.0
O47 O 0.65073 0.1977 0.47452 0.0
H48 H 0.76393 0.34814 0.72019 0.0
H49 H 0.76269 0.28457 0.41648 0.0
O50 O 0.63524 0.25521 0.69136 0.0
C51 C 0.63187 0.21462 0.38666 0.0
O52 O 0.58953 0.27679 0.37994 0.0
N53 N 0.60778 0.39846 0.61474 0.0
C54 C 0.54742 0.54922 0.61602 0.0
C55 C 0.52354 0.49923 0.68501 0.0
C56 C 0.55496 0.42333 0.68335 0.0
C57 C 0.63512 0.44898 0.55348 0.0
C58 C 0.60724 0.52406 0.55437 0.0
H59 H 0.53094 0.38248 0.72928 0.0
H60 H 0.67342 0.42898 0.49561 0.0
H61 H 0.50967 0.15245 0.57304 0.0
H62 H 0.34726 0.30821 0.46916 0.0
H63 H 0.90833 0.32459 0.66652 0.0
H64 H 0.47739 0.51611 0.7341 0.0
H65 H 0.62888 0.56019 0.50081 0.0
C66 C 0.84358 0.52606 0.90446 0.0
C67 C 0.87039 0.45117 0.89772 0.0
N68 N 0.86489 0.42511 0.98641 0.0
N69 N 0.82045 0.54738 0.99677 0.0
C70 C 0.83389 0.48383 0.04556 0.0
H71 H 0.83434 0.56008 0.84307 0.0
Co72 Co 0.75895 0.63663 1.01952 0.0
C73 C 0.84375 0.71035 0.20372 0.0
O74 O 0.87847 0.75941 0.15229 0.0
N75 N 0.69557 0.72551 0.03534 0.0
C76 C 0.59771 0.80115 0.99596 0.0
C77 C 0.61947 0.72668 1.00985 0.0
C78 C 0.71812 0.80083 0.03882 0.0
N79 N 0.66033 0.84708 1.01235 0.0
O80 O 0.8414 0.69823 0.97021 0.0
H81 H 0.58338 0.67605 0.9914 0.0
H82 H 0.77729 0.82014 0.04898 0.0
O83 O 0.79814 0.65764 0.16017 0.0
C84 C 0.82478 0.72383 0.88739 0.0
O85 O 0.75635 0.70804 0.84595 0.0
N86 N 0.67609 0.57317 0.05337 0.0
C87 C 0.54086 0.48318 0.05904 0.0
C88 C 0.57113 0.52694 0.14459 0.0
C89 C 0.63912 0.57195 0.14019 0.0
C90 C 0.64806 0.53009 0.97082 0.0
C91 C 0.5815 0.48492 0.9721 0.0
H92 H 0.66033 0.60747 0.20516 0.0
H93 H 0.67632 0.53303 0.90184 0.0
H94 H 0.81436 0.47793 0.11893 0.0
H95 H 0.88766 0.41672 0.83164 0.0
H96 H 0.54235 0.8184 0.96662 0.0
H97 H 0.54199 0.52751 0.21358 0.0
H98 H 0.56148 0.4525 0.90415 0.0
C99 C 0.53611 0.88715 0.73086 0.0
C100 C 0.60896 0.91138 0.7077 0.0
N101 N 0.63846 0.85639 0.64316 0.0
N102 N 0.5191 0.81811 0.6792 0.0
C103 C 0.58354 0.80106 0.62699 0.0
H104 H 0.49574 0.92077 0.77616 0.0
Co105 Co 0.41887 0.77085 0.66128 0.0
C106 C 0.50741 0.62275 0.59542 0.0
O107 O 0.51523 0.64579 0.50771 0.0
N108 N 0.3207 0.72374 0.64294 0.0
C109 C 0.22853 0.633 0.62336 0.0
C110 C 0.30161 0.65093 0.66162 0.0
C111 C 0.25721 0.75015 0.59641 0.0
N112 N 0.20121 0.69545 0.58266 0.0
O113 O 0.40692 0.77451 0.80449 0.0
H114 H 0.33943 0.61187 0.69711 0.0
H115 H 0.25432 0.80596 0.56704 0.0
O116 O 0.46977 0.66512 0.65991 0.0
C117 C 0.35702 0.82271 0.8427 0.0
O118 O 0.32107 0.86902 0.78602 0.0
N119 N 0.42157 0.7784 0.52261 0.0
C120 C 0.37355 0.82568 0.3401 0.0
C121 C 0.36795 0.74748 0.35807 0.0
C122 C 0.39055 0.7253 0.45079 0.0
C123 C 0.43202 0.85355 0.50254 0.0
C124 C 0.40902 0.87809 0.41202 0.0
H125 H 0.37592 0.6674 0.46773 0.0
H126 H 0.44961 0.89767 0.56042 0.0
H127 H 0.58813 0.754 0.57033 0.0
H128 H 0.63633 0.96652 0.73228 0.0
H129 H 0.19854 0.57807 0.62348 0.0
H130 H 0.33804 0.70577 0.30576 0.0
H131 H 0.41097 0.93956 0.40265 0.0
C132 C 0.63966 0.04005 0.9475 0.0
C133 C 0.60898 0.96944 0.96291 0.0
N134 N 0.66754 0.92289 0.98398 0.0
N135 N 0.71776 0.03859 0.95831 0.0
C136 C 0.73285 0.96506 0.97942 0.0
H137 H 0.60503 0.09038 0.9372 0.0
Co138 Co 0.7821 0.12811 0.97607 0.0
C139 C 0.91672 0.03862 0.08161 0.0
O140 O 0.8976 0.05869 0.17265 0.0
N141 N 0.84452 0.21917 0.99714 0.0
C142 C 0.90359 0.31966 0.08539 0.0
C143 C 0.88807 0.24099 0.07963 0.0
C144 C 0.83758 0.28508 0.95164 0.0
N145 N 0.87161 0.3466 1.00491 0.0
O146 O 0.69509 0.19103 0.92511 0.0
H147 H 0.90065 0.20433 0.13756 0.0
H148 H 0.80235 0.28984 0.88585 0.0
O149 O 0.87556 0.06267 1.01068 0.0
C150 C 0.65567 0.22097 0.85638 0.0
O151 O 0.59451 0.26166 0.88249 0.0
N152 N 0.74461 0.14728 0.1113 0.0
C153 C 0.67388 0.18728 0.29462 0.0
C154 C 0.70255 0.11221 0.27051 0.0
C155 C 0.73657 0.09313 0.17785 0.0
C156 C 0.71715 0.22036 0.13552 0.0
C157 C 0.68278 0.2411 0.22493 0.0
H158 H 0.75515 0.03416 0.15993 0.0
H159 H 0.72067 0.26425 0.08501 0.0
H160 H 0.78964 0.94458 0.99831 0.0
H161 H 0.54826 0.95506 0.96399 0.0
H162 H 0.93243 0.35483 0.14575 0.0
H163 H 0.6968 0.06819 0.32089 0.0
H164 H 0.66291 0.30039 0.23863 0.0
C165 C 0.02254 0.66344 0.44754 0.0
C166 C 0.09495 0.63892 0.47514 0.0
N167 N 0.13168 0.6991 0.52672 0.0
N168 N 1.01294 0.73789 0.48505 0.0
C169 C 0.08135 0.75837 0.53175 0.0
H170 H 0.97705 0.62679 0.41222 0.0
Co171 Co 0.91688 0.78706 0.5014 0.0
C172 C 1.01165 0.94331 0.53492 0.0
O173 O 0.02701 0.94331 0.62964 0.0
N174 N 0.81947 0.83585 0.51885 0.0
C175 C 0.73051 0.9274 0.55071 0.0
C176 C 0.80038 0.91035 0.50773 0.0
C177 C 0.75885 0.80791 0.56563 0.0
N178 N 0.70497 0.86292 0.58696 0.0
O179 O 0.89742 0.77443 0.35716 0.0
H180 H 0.83689 0.95139 0.47605 0.0
H181 H 0.75736 0.75053 0.59071 0.0
O182 O 0.97041 0.88861 0.4884 0.0
C183 C 0.85621 0.71867 0.31291 0.0
O184 O 0.82368 0.66867 0.36524 0.0
N185 N 0.93085 0.79051 0.64185 0.0
C186 C 0.88324 0.75519 0.82597 0.0
C187 C 0.87568 0.83085 0.79806 0.0
C188 C 0.90227 0.84815 0.70645 0.0
C189 C 0.94547 0.71915 0.67353 0.0
C190 C 0.92489 0.70146 0.76644 0.0
H191 H 0.88897 0.90433 0.68229 0.0
H192 H 0.96361 0.67131 0.62329 0.0
H193 H 0.09104 0.81173 0.57854 0.0
H194 H 0.11688 0.5803 0.46408 0.0
H195 H 0.70179 0.98307 0.55706 0.0
H196 H 0.84209 0.87361 0.84126 0.0
H197 H 0.93057 0.64208 0.78424 0.0
C198 C 0.21732 0.02867 0.19247 0.0
C199 C 0.25826 0.09639 0.21 0.0
N200 N 0.32679 0.08706 0.16722 0.0
N201 N 0.25881 0.97669 0.13643 0.0
C202 C 0.32565 0.01408 0.12129 0.0
H203 H 0.16123 0.01749 0.22056 0.0
Co204 Co 0.22857 0.87323 0.11243 0.0
C205 C 0.33469 0.82392 0.94724 0.0
O206 O 0.37034 0.77754 1.00402 0.0
N207 N 0.19969 0.76856 0.09302 0.0
C208 C 0.20358 0.64443 0.03262 0.0
C209 C 0.19596 0.71989 1.00916 0.0
C210 C 0.20421 0.72146 0.16625 0.0
N211 N 0.20893 0.64638 0.13128 0.0
O212 O 0.32345 0.84274 0.17627 0.0
H213 H 0.19573 0.73801 0.93565 0.0
H214 H 0.21204 0.74197 0.24323 0.0
O215 O 0.27723 0.86524 0.97998 0.0
C216 C 0.31917 0.85705 0.26943 0.0
O217 O 0.2574 0.89185 0.30507 0.0
N218 N 0.12863 0.90545 0.06388 0.0
C219 C 0.98616 0.98662 0.06466 0.0
C220 C 0.04209 0.99752 0.99419 0.0
C221 C 0.1135 0.95701 0.99577 0.0
C222 C 0.07257 0.89032 0.12752 0.0
C223 C 1.00205 0.93017 0.12953 0.0
H224 H 0.15859 0.97187 0.94791 0.0
H225 H 0.08522 0.85218 0.18399 0.0
H226 H 0.37275 0.98804 0.07985 0.0
H227 H 0.23809 0.14917 0.2482 0.0
H228 H 0.20989 0.59296 0.98161 0.0
H229 H 0.03335 0.04112 0.94333 0.0
H230 H 0.96153 0.9194 0.18545 0.0
C231 C 0.96947 0.16187 0.38106 0.0
C232 C 0.90221 0.20286 0.3937 0.0
N233 N 0.91426 0.2587 0.46876 0.0
N234 N 0.02324 0.19133 0.44806 0.0
C235 C 0.98801 0.25147 0.49933 0.0
H236 H 0.9786 0.1135 0.32667 0.0
Co237 Co 0.12311 0.15445 0.46258 0.0
C238 C 0.04696 1.00397 0.47976 0.0
O239 O 0.04229 0.99588 0.38319 0.0
N240 N 0.22617 0.11879 0.48053 0.0
C241 C 0.33167 0.10369 0.57587 0.0
C242 C 0.25479 0.08286 0.55753 0.0
C243 C 0.2879 0.15675 0.45094 0.0
N244 N 0.35134 0.15183 0.50932 0.0
O245 O 0.16007 0.24265 0.3908 0.0
H246 H 0.21967 0.05429 0.6073 0.0
H247 H 0.28319 0.19933 0.40012 0.0
O248 O 0.08203 0.06354 0.52438 0.0
C249 C 0.13969 0.25807 0.30372 0.0
O250 O 0.08492 0.21661 0.25491 0.0
N251 N 0.13633 0.21356 0.58825 0.0
C252 C 0.17797 0.28153 0.77724 0.0
C253 C 0.11658 0.22819 0.76273 0.0
C254 C 0.09695 0.1946 0.66789 0.0
C255 C 0.19184 0.27027 0.60088 0.0
C256 C 0.21416 0.30393 0.69422 0.0
H257 H 0.05019 0.15293 0.65921 0.0
H258 H 0.22322 0.28722 0.53982 0.0
H259 H 0.0147 0.28869 0.55917 0.0
H260 H 0.84803 0.18992 0.35399 0.0
H261 H 0.36604 0.09371 0.64095 0.0
H262 H 0.08502 0.21096 0.82423 0.0
H263 H 0.26245 0.3441 0.70083 0.0
loop_
_geom_bond_atom_site_label_1
_geom_bond_atom_site_label_2
_geom_bond_distance
_geom_bond_site_symmetry_2
_ccdc_geom_bond_type
C0 C1 1.351 . S
C0 N3 1.368 . S
C0 H5 0.931 . S
C1 C0 1.351 . S
C1 N2 1.373 . S
C1 H29 0.930 . S
N2 C1 1.373 . S
N2 C4 1.340 . S
N3 C0 1.368 . S
N3 C4 1.321 . S
N3 Co6 2.135 . S
C4 N2 1.340 . S
C4 N3 1.321 . S
C4 H28 0.930 . S
H5 C0 0.931 . S
Co6 N3 2.135 . S
Co6 N9 2.121 . S
Co6 O14 2.055 . S
Co6 O17 2.039 . S
Co6 N20 2.140 1_554 S
C7 O8 1.227 . S
C7 O17 1.265 . S
O8 C7 1.227 . S
N9 Co6 2.121 . S
N9 C11 1.375 . S
N9 C12 1.313 . S
C10 C11 1.338 . S
C10 N13 1.377 . S
C10 H30 0.930 . S
C11 N9 1.375 . S
C11 C10 1.338 . S
C11 H15 0.931 . S
C12 N9 1.313 . S
C12 N13 1.344 . S
C12 H16 0.930 . S
N13 C10 1.377 . S
N13 C12 1.344 . S
O14 Co6 2.055 . S
O14 C18 1.253 . S
H15 C11 0.931 . S
H16 C12 0.930 . S
O17 Co6 2.039 . S
O17 C7 1.265 . S
C18 O14 1.253 . S
C18 O19 1.227 . S
O19 C18 1.227 . S
N20 Co6 2.140 1_556 S
N20 C23 1.346 . S
N20 C24 1.345 . S
C21 C22 1.387 . S
C21 C25 1.391 . S
C22 C21 1.387 . S
C22 C23 1.369 . S
C22 H31 0.929 . S
C23 N20 1.346 . S
C23 C22 1.369 . S
C23 H26 0.928 . S
C24 N20 1.345 . S
C24 C25 1.371 . S
C24 H27 0.931 1_556 S
C25 C21 1.391 . S
C25 C24 1.371 . S
C25 H32 0.930 . S
H26 C23 0.928 . S
H27 C24 0.931 1_554 S
H28 C4 0.930 . S
H29 C1 0.930 . S
H30 C10 0.930 . S
H31 C22 0.929 . S
H32 C25 0.930 . S
C33 C34 1.351 . S
C33 N36 1.368 . S
C33 H38 0.931 . S
C34 C33 1.351 . S
C34 N35 1.373 . S
C34 H62 0.930 . S
N35 C34 1.373 . S
N35 C37 1.340 . S
N36 C33 1.368 . S
N36 C37 1.321 . S
N36 Co39 2.135 . S
C37 N35 1.340 . S
C37 N36 1.321 . S
C37 H61 0.930 . S
H38 C33 0.931 . S
Co39 N36 2.135 . S
Co39 N42 2.121 . S
Co39 O47 2.055 . S
Co39 O50 2.039 . S
Co39 N53 2.140 . S
C40 O41 1.227 . S
C40 O50 1.265 . S
O41 C40 1.227 . S
N42 Co39 2.121 . S
N42 C44 1.375 . S
N42 C45 1.313 . S
C43 C44 1.338 . S
C43 N46 1.377 . S
C43 H63 0.930 . S
C44 N42 1.375 . S
C44 C43 1.338 . S
C44 H48 0.931 . S
C45 N42 1.313 . S
C45 N46 1.344 . S
C45 H49 0.930 . S
N46 C43 1.377 . S
N46 C45 1.344 . S
O47 Co39 2.055 . S
O47 C51 1.253 . S
H48 C44 0.931 . S
H49 C45 0.930 . S
O50 Co39 2.039 . S
O50 C40 1.265 . S
C51 O47 1.253 . S
C51 O52 1.227 . S
O52 C51 1.227 . S
N53 Co39 2.140 . S
N53 C56 1.346 . S
N53 C57 1.345 . S
C54 C55 1.387 . S
C54 C58 1.391 . S
C55 C54 1.387 . S
C55 C56 1.369 . S
C55 H64 0.929 . S
C56 N53 1.346 . S
C56 C55 1.369 . S
C56 H59 0.928 . S
C57 N53 1.345 . S
C57 C58 1.371 . S
C57 H60 0.931 . S
C58 C54 1.391 . S
C58 C57 1.371 . S
C58 H65 0.930 . S
H59 C56 0.928 . S
H60 C57 0.931 . S
H61 C37 0.930 . S
H62 C34 0.930 . S
H63 C43 0.930 . S
H64 C55 0.929 . S
H65 C58 0.930 . S
C66 C67 1.351 . S
C66 N69 1.368 1_556 S
C66 H71 0.931 . S
C67 C66 1.351 . S
C67 N68 1.373 1_556 S
C67 H95 0.930 . S
N68 C67 1.373 1_554 S
N68 C70 1.340 . S
N69 C66 1.368 1_554 S
N69 C70 1.321 . S
N69 Co72 2.135 . S
C70 N68 1.340 . S
C70 N69 1.321 . S
C70 H94 0.930 . S
H71 C66 0.931 . S
Co72 N69 2.135 . S
Co72 N75 2.121 . S
Co72 O80 2.055 1_554 S
Co72 O83 2.039 . S
Co72 N86 2.140 . S
C73 O74 1.227 . S
C73 O83 1.265 . S
O74 C73 1.227 . S
N75 Co72 2.121 . S
N75 C77 1.375 . S
N75 C78 1.313 . S
C76 C77 1.338 . S
C76 N79 1.377 . S
C76 H96 0.930 . S
C77 N75 1.375 . S
C77 C76 1.338 . S
C77 H81 0.931 . S
C78 N75 1.313 . S
C78 N79 1.344 . S
C78 H82 0.930 1_554 S
N79 C76 1.377 . S
N79 C78 1.344 . S
O80 Co72 2.055 1_556 S
O80 C84 1.253 . S
H81 C77 0.931 . S
H82 C78 0.930 1_556 S
O83 Co72 2.039 . S
O83 C73 1.265 . S
C84 O80 1.253 . S
C84 O85 1.227 . S
O85 C84 1.227 . S
N86 Co72 2.140 . S
N86 C89 1.346 . S
N86 C90 1.345 . S
C87 C88 1.387 . S
C87 C91 1.391 . S
C88 C87 1.387 . S
C88 C89 1.369 . S
C88 H97 0.929 . S
C89 N86 1.346 . S
C89 C88 1.369 . S
C89 H92 0.928 . S
C90 N86 1.345 . S
C90 C91 1.371 . S
C90 H93 0.931 1_554 S
C91 C87 1.391 . S
C91 C90 1.371 . S
C91 H98 0.930 1_554 S
H92 C89 0.928 . S
H93 C90 0.931 1_556 S
H94 C70 0.930 . S
H95 C67 0.930 . S
H96 C76 0.930 . S
H97 C88 0.929 . S
H98 C91 0.930 1_556 S
C99 C100 1.351 . S
C99 N102 1.368 . S
C99 H104 0.931 . S
C100 C99 1.351 . S
C100 N101 1.373 . S
C100 H128 0.930 . S
N101 C100 1.373 . S
N101 C103 1.340 . S
N102 C99 1.368 . S
N102 C103 1.321 . S
N102 Co105 2.135 . S
C103 N101 1.340 . S
C103 N102 1.321 . S
C103 H127 0.930 . S
H104 C99 0.931 . S
Co105 N102 2.135 . S
Co105 N108 2.121 . S
Co105 O113 2.055 . S
Co105 O116 2.039 . S
Co105 N119 2.140 . S
C106 O107 1.227 . S
C106 O116 1.265 . S
O107 C106 1.227 . S
N108 Co105 2.121 . S
N108 C110 1.375 . S
N108 C111 1.313 . S
C109 C110 1.338 . S
C109 N112 1.377 . S
C109 H129 0.930 . S
C110 N108 1.375 . S
C110 C109 1.338 . S
C110 H114 0.931 . S
C111 N108 1.313 . S
C111 N112 1.344 . S
C111 H115 0.930 . S
N112 C109 1.377 . S
N112 C111 1.344 . S
O113 Co105 2.055 . S
O113 C117 1.253 . S
H114 C110 0.931 . S
H115 C111 0.930 . S
O116 Co105 2.039 . S
O116 C106 1.265 . S
C117 O113 1.253 . S
C117 O118 1.227 . S
O118 C117 1.227 . S
N119 Co105 2.140 . S
N119 C122 1.346 . S
N119 C123 1.345 . S
C120 C121 1.387 . S
C120 C124 1.391 . S
C121 C120 1.387 . S
C121 C122 1.369 . S
C121 H130 0.929 . S
C122 N119 1.346 . S
C122 C121 1.369 . S
C122 H125 0.928 . S
C123 N119 1.345 . S
C123 C124 1.371 . S
C123 H126 0.931 . S
C124 C120 1.391 . S
C124 C123 1.371 . S
C124 H131 0.930 . S
H125 C122 0.928 . S
H126 C123 0.931 . S
H127 C103 0.930 . S
H128 C100 0.930 . S
H129 C109 0.930 . S
H130 C121 0.929 . S
H131 C124 0.930 . S
C132 C133 1.351 . S
C132 N135 1.368 . S
C132 H137 0.931 . S
C133 C132 1.351 . S
C133 N134 1.373 . S
C133 H161 0.930 . S
N134 C133 1.373 . S
N134 C136 1.340 . S
N135 C132 1.368 . S
N135 C136 1.321 . S
N135 Co138 2.135 1_565 S
C136 N134 1.340 . S
C136 N135 1.321 . S
C136 H160 0.930 . S
H137 C132 0.931 . S
Co138 N135 2.135 1_545 S
Co138 N141 2.121 . S
Co138 O146 2.055 . S
Co138 O149 2.039 . S
Co138 N152 2.140 1_556 S
C139 O140 1.227 . S
C139 O149 1.265 1_554 S
O140 C139 1.227 . S
N141 Co138 2.121 . S
N141 C143 1.375 1_556 S
N141 C144 1.313 . S
C142 C143 1.338 . S
C142 N145 1.377 1_554 S
C142 H162 0.930 . S
C143 N141 1.375 1_554 S
C143 C142 1.338 . S
C143 H147 0.931 . S
C144 N141 1.313 . S
C144 N145 1.344 . S
C144 H148 0.930 . S
N145 C142 1.377 1_556 S
N145 C144 1.344 . S
O146 Co138 2.055 . S
O146 C150 1.253 . S
H147 C143 0.931 . S
H148 C144 0.930 . S
O149 Co138 2.039 . S
O149 C139 1.265 1_556 S
C150 O146 1.253 . S
C150 O151 1.227 . S
O151 C150 1.227 . S
N152 Co138 2.140 1_554 S
N152 C155 1.346 . S
N152 C156 1.345 . S
C153 C154 1.387 . S
C153 C157 1.391 . S
C154 C153 1.387 . S
C154 C155 1.369 . S
C154 H163 0.929 . S
C155 N152 1.346 . S
C155 C154 1.369 . S
C155 H158 0.928 1_545 S
C156 N152 1.345 . S
C156 C157 1.371 . S
C156 H159 0.931 . S
C157 C153 1.391 . S
C157 C156 1.371 . S
C157 H164 0.930 . S
H158 C155 0.928 1_565 S
H159 C156 0.931 . S
H160 C136 0.930 . S
H161 C133 0.930 . S
H162 C142 0.930 . S
H163 C154 0.929 . S
H164 C157 0.930 . S
C165 C166 1.351 . S
C165 N168 1.368 . S
C165 H170 0.931 . S
C166 C165 1.351 . S
C166 N167 1.373 . S
C166 H194 0.930 . S
N167 C166 1.373 . S
N167 C169 1.340 . S
N168 C165 1.368 . S
N168 C169 1.321 . S
N168 Co171 2.135 1_455 S
C169 N167 1.340 . S
C169 N168 1.321 . S
C169 H193 0.930 . S
H170 C165 0.931 . S
Co171 N168 2.135 1_655 S
Co171 N174 2.121 . S
Co171 O179 2.055 . S
Co171 O182 2.039 . S
Co171 N185 2.140 . S
C172 O173 1.227 . S
C172 O182 1.265 . S
O173 C172 1.227 . S
N174 Co171 2.121 . S
N174 C176 1.375 . S
N174 C177 1.313 . S
C175 C176 1.338 . S
C175 N178 1.377 . S
C175 H195 0.930 . S
C176 N174 1.375 . S
C176 C175 1.338 . S
C176 H180 0.931 . S
C177 N174 1.313 . S
C177 N178 1.344 . S
C177 H181 0.930 . S
N178 C175 1.377 . S
N178 C177 1.344 . S
O179 Co171 2.055 . S
O179 C183 1.253 . S
H180 C176 0.931 . S
H181 C177 0.930 . S
O182 Co171 2.039 . S
O182 C172 1.265 . S
C183 O179 1.253 . S
C183 O184 1.227 . S
O184 C183 1.227 . S
N185 Co171 2.140 . S
N185 C188 1.346 . S
N185 C189 1.345 . S
C186 C187 1.387 . S
C186 C190 1.391 . S
C187 C186 1.387 . S
C187 C188 1.369 . S
C187 H196 0.929 1_655 S
C188 N185 1.346 . S
C188 C187 1.369 . S
C188 H191 0.928 1_655 S
C189 N185 1.345 . S
C189 C190 1.371 . S
C189 H192 0.931 . S
C190 C186 1.391 . S
C190 C189 1.371 . S
C190 H197 0.930 . S
H191 C188 0.928 1_455 S
H192 C189 0.931 . S
H193 C169 0.930 . S
H194 C166 0.930 . S
H195 C175 0.930 . S
H196 C187 0.929 1_455 S
H197 C190 0.930 . S
C198 C199 1.351 . S
C198 N201 1.368 . S
C198 H203 0.931 . S
C199 C198 1.351 . S
C199 N200 1.373 . S
C199 H227 0.930 . S
N200 C199 1.373 . S
N200 C202 1.340 . S
N201 C198 1.368 . S
N201 C202 1.321 . S
N201 Co204 2.135 1_545 S
C202 N200 1.340 . S
C202 N201 1.321 . S
C202 H226 0.930 1_554 S
H203 C198 0.931 . S
Co204 N201 2.135 1_565 S
Co204 N207 2.121 . S
Co204 O212 2.055 . S
Co204 O215 2.039 1_554 S
Co204 N218 2.140 . S
C205 O206 1.227 . S
C205 O215 1.265 . S
O206 C205 1.227 . S
N207 Co204 2.121 . S
N207 C209 1.375 1_554 S
N207 C210 1.313 . S
C208 C209 1.338 . S
C208 N211 1.377 1_556 S
C208 H228 0.930 . S
C209 N207 1.375 1_556 S
C209 C208 1.338 . S
C209 H213 0.931 . S
C210 N207 1.313 . S
C210 N211 1.344 . S
C210 H214 0.930 . S
N211 C208 1.377 1_554 S
N211 C210 1.344 . S
O212 Co204 2.055 . S
O212 C216 1.253 . S
H213 C209 0.931 . S
H214 C210 0.930 . S
O215 Co204 2.039 1_556 S
O215 C205 1.265 . S
C216 O212 1.253 . S
C216 O217 1.227 . S
O217 C216 1.227 . S
N218 Co204 2.140 . S
N218 C221 1.346 1_554 S
N218 C222 1.345 . S
C219 C220 1.387 1_564 S
C219 C223 1.391 . S
C220 C219 1.387 1_546 S
C220 C221 1.369 1_545 S
C220 H229 0.929 . S
C221 N218 1.346 1_556 S
C221 C220 1.369 1_565 S
C221 H224 0.928 1_565 S
C222 N218 1.345 . S
C222 C223 1.371 . S
C222 H225 0.931 . S
C223 C219 1.391 . S
C223 C222 1.371 . S
C223 H230 0.930 . S
H224 C221 0.928 1_545 S
H225 C222 0.931 . S
H226 C202 0.930 1_556 S
H227 C199 0.930 . S
H228 C208 0.930 . S
H229 C220 0.929 . S
H230 C223 0.930 . S
C231 C232 1.351 . S
C231 N234 1.368 . S
C231 H236 0.931 . S
C232 C231 1.351 . S
C232 N233 1.373 . S
C232 H260 0.930 . S
N233 C232 1.373 . S
N233 C235 1.340 . S
N234 C231 1.368 . S
N234 C235 1.321 . S
N234 Co237 2.135 1_655 S
C235 N233 1.340 . S
C235 N234 1.321 . S
C235 H259 0.930 . S
H236 C231 0.931 . S
Co237 N234 2.135 1_455 S
Co237 N240 2.121 . S
Co237 O245 2.055 . S
Co237 O248 2.039 . S
Co237 N251 2.140 . S
C238 O239 1.227 . S
C238 O248 1.265 . S
O239 C238 1.227 . S
N240 Co237 2.121 . S
N240 C242 1.375 . S
N240 C243 1.313 . S
C241 C242 1.338 . S
C241 N244 1.377 . S
C241 H261 0.930 . S
C242 N240 1.375 . S
C242 C241 1.338 . S
C242 H246 0.931 . S
C243 N240 1.313 . S
C243 N244 1.344 . S
C243 H247 0.930 . S
N244 C241 1.377 . S
N244 C243 1.344 . S
O245 Co237 2.055 . S
O245 C249 1.253 . S
H246 C242 0.931 . S
H247 C243 0.930 . S
O248 Co237 2.039 . S
O248 C238 1.265 . S
C249 O245 1.253 . S
C249 O250 1.227 . S
O250 C249 1.227 . S
N251 Co237 2.140 . S
N251 C254 1.346 . S
N251 C255 1.345 . S
C252 C253 1.387 . S
C252 C256 1.391 . S
C253 C252 1.387 . S
C253 C254 1.369 . S
C253 H262 0.929 . S
C254 N251 1.346 . S
C254 C253 1.369 . S
C254 H257 0.928 1_455 S
C255 N251 1.345 . S
C255 C256 1.371 . S
C255 H258 0.931 . S
C256 C252 1.391 . S
C256 C255 1.371 . S
C256 H263 0.930 . S
H257 C254 0.928 1_655 S
H258 C255 0.931 . S
H259 C235 0.930 . S
H260 C232 0.930 . S
H261 C241 0.930 . S
H262 C253 0.929 . S
H263 C256 0.930 . S
N200 N13 1.025 . S
N233 N46 0.860 . S
N134 N79 1.612 1_556 S
N167 N112 1.324 . S
N68 N145 1.233 1_554 S
N101 N178 1.568 . S
N2 N211 1.542 . S
N244 N35 0.830 . S
C87 C7 2.424 . S
C54 C106 2.625 . S
C219 C139 2.492 1_465 S
C172 C238 3.039 1_665 S
C18 C249 2.151 . S
C150 C40 2.512 . S
C183 C73 2.184 . S
C205 C117 2.346 . S
C84 C186 1.903 . S
C120 C216 1.648 . S
C252 C21 1.272 . S
C153 C51 1.515 . S
