# Generated by pormake.
# Topology pcu, (6)-cn, num edge types: 1
# Building blocks:
#     Node 0, Type 0, BuildingBlock: BETFEN_clean_sbu_0, # of connection points: 6
#     Edge 1, Type (0, 0), BuildingBlock: TEMPAE_clean_linker_10, # of connection points: 2
#     Edge 2, Type (0, 0), BuildingBlock: TEMPAE_clean_linker_10, # of connection points: 2
#     Edge 3, Type (0, 0), BuildingBlock: TEMPAE_clean_linker_10, # of connection points: 2
# Relax obj value: 0.000
# Max RMSD: 0.000
# Mean RMSD: 0.000
data_MOF--net-pcu--node1-BETFEN_clean_sbu_0--edge1-TEMPAE_clean_linker_10
_symmetry_space_group_name_H-M    P1
_symmetry_Int_Tables_number       1
_symmetry_cell_setting            triclinic
loop_
_symmetry_equiv_pos_as_xyz
'x, y, z'
_cell_length_a     25.919504
_cell_length_b     15.764246
_cell_length_c     14.845897
_cell_angle_alpha  87.526295
_cell_angle_beta   95.070324
_cell_angle_gamma 124.38395
loop_
_atom_site_label
_atom_site_type_symbol
_atom_site_fract_x
_atom_site_fract_y
_atom_site_fract_z
_atom_type_partial_charge
Pr0 Pr 0.95544 0.91661 0.00868 0.0
Pr1 Pr 0.09723 0.04377 0.99048 0.0
C2 C 0.8387 0.84672 0.05326 0.0
C3 C 0.79181 0.87341 0.042 0.0
C4 C 0.7599 0.86512 0.95755 0.0
C5 C 0.7138 0.88604 0.94919 0.0
C6 C 0.69837 0.91585 0.02494 0.0
C7 C 0.73078 0.92503 0.10915 0.0
C8 C 0.77669 0.90374 0.11757 0.0
C9 C 0.98753 0.93912 0.83039 0.0
C10 C 0.03592 0.17139 0.99326 0.0
C11 C 0.21518 0.11782 0.94916 0.0
C12 C 0.26197 0.09102 0.95876 0.0
C13 C 0.28729 0.08309 0.044 0.0
C14 C 0.3332 0.06171 0.05104 0.0
C15 C 0.35499 0.04763 0.9731 0.0
C16 C 0.32888 0.05434 0.88798 0.0
C17 C 0.28317 0.07601 0.88099 0.0
C18 C 0.06345 0.02232 0.16766 0.0
C19 C 1.01798 0.78847 0.0101 0.0
O20 O 0.88925 0.90545 0.10662 0.0
O21 O 0.84973 0.81507 0.98198 0.0
O22 O 1.01544 0.00986 0.88936 0.0
O23 O 0.93839 0.85712 0.86017 0.0
O24 O 0.08052 0.17215 0.95623 0.0
O25 O 0.98915 0.08752 0.02856 0.0
O26 O 0.16564 0.06164 0.89338 0.0
O27 O 0.20262 0.14487 0.02191 0.0
O28 O 0.03759 0.95053 0.10966 0.0
O29 O 0.10946 0.10757 0.1358 0.0
O30 O 0.96961 0.78463 0.03718 0.0
O31 O 0.06725 0.87393 0.98099 0.0
H32 H 0.77017 0.84184 0.89779 0.0
H33 H 0.69043 0.87936 0.88308 0.0
H34 H 0.71968 0.94648 0.1692 0.0
H35 H 0.79994 0.90986 0.18369 0.0
H36 H 0.27217 0.09438 0.10542 0.0
H37 H 0.35257 0.05839 0.11773 0.0
H38 H 0.34355 0.04235 0.82643 0.0
H39 H 0.26454 0.08161 0.8144 0.0
C40 C 1.01373 0.91137 0.30159 0.0
C41 C 0.04886 0.00935 0.26341 0.0
C42 C 1.00289 0.8994 0.39393 0.0
C43 C 0.02662 -0.01256 0.44873 0.0
C44 C 0.06062 0.08635 0.40961 0.0
C45 C 0.07183 0.09611 0.31767 0.0
C46 C 0.9672 0.79272 0.43328 0.0
C47 C 0.08554 0.182 0.46501 0.0
C48 C 0.95321 0.9498 0.67086 0.0
C49 C 0.99866 0.95557 0.73372 0.0
C50 C 0.96208 0.96162 0.57792 0.0
C51 C 1.01688 0.97643 0.54727 0.0
C52 C 0.06258 0.98119 0.61097 0.0
C53 C 0.05313 0.9717 0.70365 0.0
C54 C 0.91298 0.95858 0.51262 0.0
C55 C 0.12096 -0.00541 0.58116 0.0
H56 H 0.99602 0.84417 0.25978 0.0
H57 H 0.09859 0.17198 0.2881 0.0
H58 H 0.99712 0.7868 0.4879 0.0
H59 H 0.92527 0.77737 0.46407 0.0
H60 H 0.9518 0.73227 0.38166 0.0
H61 H 0.10842 0.25275 0.42346 0.0
H62 H 0.04682 0.17593 0.49807 0.0
H63 H 0.12021 0.18994 0.51948 0.0
H64 H 0.91095 0.93687 0.69462 0.0
H65 H 0.08743 0.97372 0.7524 0.0
H66 H 0.89319 0.89385 0.46411 0.0
H67 H 0.93463 0.03038 0.47266 0.0
H68 H 0.87401 0.94958 0.5476 0.0
H69 H 0.1078 0.93122 0.53428 0.0
H70 H 0.15147 -0.00462 0.63908 0.0
H71 H 0.14842 0.06758 0.54367 0.0
C72 C 0.40651 0.96372 0.04834 0.0
C73 C 0.40526 0.02757 0.98039 0.0
C74 C 0.45384 0.94509 0.05625 0.0
C75 C 0.50125 -0.00905 0.99458 0.0
C76 C 0.5002 0.05511 0.92568 0.0
C77 C 0.4525 0.0728 0.91958 0.0
C78 C 0.45307 0.87612 0.13067 0.0
C79 C 0.5497 0.10555 0.85846 0.0
C80 C 0.65571 0.01857 0.06261 0.0
C81 C 0.64809 0.93577 0.0165 0.0
C82 C 0.60849 0.03743 0.05604 0.0
C83 C 0.55195 0.97191 1.00214 0.0
C84 C 0.54398 0.88833 0.95531 0.0
C85 C 0.59201 0.87136 0.96298 0.0
C86 C 0.61918 0.1277 0.10675 0.0
C87 C 0.4845 0.8164 0.8973 0.0
H88 H 0.36993 0.92708 0.09494 0.0
H89 H 0.45281 0.12355 0.8677 0.0
H90 H 0.44981 0.80965 0.1011 0.0
H91 H 0.49749 0.91867 0.17445 0.0
H92 H 0.41325 0.84671 0.17347 0.0
H93 H 0.54198 0.15242 0.80829 0.0
H94 H 0.59673 0.15589 0.89449 0.0
H95 H 0.55008 0.04615 0.82168 0.0
H96 H 0.69908 0.06963 0.10319 0.0
H97 H 0.58515 0.80636 0.92806 0.0
H98 H 0.58206 0.10059 0.15407 0.0
H99 H 0.61611 0.1808 0.05863 0.0
H100 H 0.66558 0.17127 0.1459 0.0
H101 H 0.44366 0.77943 0.93898 0.0
H102 H 0.48562 0.75531 0.86487 0.0
H103 H 0.47691 0.86028 0.84361 0.0
C104 C 0.96549 0.60016 0.98973 0.0
C105 C 1.01935 0.69672 0.01402 0.0
C106 C 0.96858 0.51443 0.98521 0.0
C107 C 0.02646 0.52591 0.00836 0.0
C108 C 0.08042 0.62289 0.03591 0.0
C109 C 0.07638 0.70758 0.03705 0.0
C110 C 0.91047 0.41236 0.95367 0.0
C111 C 0.14239 0.6373 0.06403 0.0
C112 C 1.01889 0.28541 0.07541 0.0
C113 C 0.0375 0.26543 0.99782 0.0
C114 C 1.01623 0.3712 0.08036 0.0
C115 C 0.03062 0.43633 1.00465 0.0
C116 C 0.04953 0.41646 0.92597 0.0
C117 C 0.05376 0.33168 0.92406 0.0
C118 C 0.99801 0.39202 0.16647 0.0
C119 C 0.06387 0.48329 0.84334 0.0
H120 H 0.92165 0.59256 0.97105 0.0
H121 H 0.11791 0.78258 0.05645 0.0
H122 H 0.91958 0.38503 0.89324 0.0
H123 H 0.89815 0.35384 0.00705 0.0
H124 H 0.86956 0.41701 0.93631 0.0
H125 H 0.17919 0.71716 0.08703 0.0
H126 H 0.13648 0.58389 0.11969 0.0
H127 H 0.15902 0.61858 0.00662 0.0
H128 H 1.00678 0.23404 0.13264 0.0
H129 H 0.0675 0.31503 0.86389 0.0
H130 H 0.9539 0.38797 0.15296 0.0
H131 H 0.03479 0.47078 0.19175 0.0
H132 H 0.99113 0.33633 0.22053 0.0
H133 H 1.02254 0.48474 0.8197 0.0
H134 H 0.07646 0.45581 0.78694 0.0
H135 H 0.10325 0.56352 0.86043 0.0
loop_
_geom_bond_atom_site_label_1
_geom_bond_atom_site_label_2
_geom_bond_distance
_geom_bond_site_symmetry_2
_ccdc_geom_bond_type
Pr0 C2 2.880 . S
Pr0 O20 2.562 1_556 S
Pr0 O21 2.490 . S
Pr0 O22 2.695 1_655 S
Pr0 O23 2.512 . S
Pr0 O25 2.437 1_565 S
Pr0 O28 2.436 1_566 S
Pr0 O30 2.438 . S
Pr1 C11 2.880 . S
Pr1 O22 2.436 1_544 S
Pr1 O24 2.438 . S
Pr1 O26 2.562 1_554 S
Pr1 O27 2.490 . S
Pr1 O28 2.695 1_455 S
Pr1 O29 2.512 . S
Pr1 O31 2.437 1_545 S
C2 Pr0 2.880 . S
C2 C3 1.491 . S
C2 O20 1.254 1_556 S
C2 O21 1.225 . S
C3 C2 1.491 . S
C3 C4 1.392 . S
C3 C8 1.356 1_566 S
C4 C3 1.392 . S
C4 C5 1.368 . S
C4 H32 0.929 . S
C5 C4 1.368 . S
C5 C6 1.386 . S
C5 H33 0.929 . S
C6 C5 1.386 . S
C6 C7 1.373 1_566 S
C7 C6 1.373 1_544 S
C7 C8 1.409 . S
C7 H34 0.931 . S
C8 C3 1.356 1_544 S
C8 C7 1.409 . S
C8 H35 0.930 . S
C9 O22 1.270 1_655 S
C9 O23 1.248 . S
C10 O24 1.267 1_556 S
C10 O25 1.278 1_455 S
C11 Pr1 2.880 . S
C11 C12 1.491 . S
C11 O26 1.254 1_554 S
C11 O27 1.225 . S
C12 C11 1.491 . S
C12 C13 1.392 . S
C12 C17 1.356 1_544 S
C13 C12 1.392 . S
C13 C14 1.368 . S
C13 H36 0.929 . S
C14 C13 1.368 . S
C14 C15 1.386 . S
C14 H37 0.929 . S
C15 C14 1.386 . S
C15 C16 1.373 1_544 S
C16 C15 1.373 1_566 S
C16 C17 1.409 . S
C16 H38 0.931 . S
C17 C12 1.356 1_566 S
C17 C16 1.409 . S
C17 H39 0.930 . S
C18 O28 1.270 1_455 S
C18 O29 1.248 . S
C19 O30 1.267 1_554 S
C19 O31 1.278 1_655 S
O20 Pr0 2.562 1_554 S
O20 C2 1.254 1_554 S
O21 Pr0 2.490 . S
O21 C2 1.225 . S
O22 Pr0 2.695 1_455 S
O22 Pr1 2.436 1_566 S
O22 C9 1.270 1_455 S
O23 Pr0 2.512 . S
O23 C9 1.248 . S
O24 Pr1 2.438 . S
O24 C10 1.267 1_554 S
O25 Pr0 2.437 1_545 S
O25 C10 1.278 1_655 S
O26 Pr1 2.562 1_556 S
O26 C11 1.254 1_556 S
O27 Pr1 2.490 . S
O27 C11 1.225 . S
O28 Pr0 2.436 1_544 S
O28 Pr1 2.695 1_655 S
O28 C18 1.270 1_655 S
O29 Pr1 2.512 . S
O29 C18 1.248 . S
O30 Pr0 2.438 . S
O30 C19 1.267 1_556 S
O31 Pr1 2.437 1_565 S
O31 C19 1.278 1_455 S
H32 C4 0.929 . S
H33 C5 0.929 . S
H34 C7 0.931 . S
H35 C8 0.930 . S
H36 C13 0.929 . S
H37 C14 0.929 . S
H38 C16 0.931 . S
H39 C17 0.930 . S
C40 C41 1.391 1_655 S
C40 C42 1.394 . S
C40 H56 0.931 . S
C41 C40 1.391 1_455 S
C41 C45 1.376 1_565 S
C42 C40 1.394 . S
C42 C43 1.369 1_655 S
C42 C46 1.531 . S
C43 C42 1.369 1_455 S
C43 C44 1.410 1_565 S
C43 C51 1.503 . S
C44 C43 1.410 1_545 S
C44 C45 1.392 . S
C44 C47 1.511 . S
C45 C41 1.376 1_545 S
C45 C44 1.392 . S
C45 H57 0.929 . S
C46 C42 1.531 . S
C46 H58 0.960 . S
C46 H59 0.962 . S
C46 H60 0.960 . S
C47 C44 1.511 . S
C47 H61 0.961 . S
C47 H62 0.961 . S
C47 H63 0.961 . S
C48 C49 1.368 1_645 S
C48 C50 1.363 . S
C48 H64 0.931 . S
C49 C48 1.368 1_465 S
C49 C53 1.412 . S
C50 C48 1.363 . S
C50 C51 1.370 1_645 S
C50 C54 1.524 . S
C51 C43 1.503 . S
C51 C50 1.370 1_465 S
C51 C52 1.403 . S
C52 C51 1.403 . S
C52 C53 1.404 . S
C52 C55 1.539 . S
C53 C49 1.412 . S
C53 C52 1.404 . S
C53 H65 0.930 . S
C54 C50 1.524 . S
C54 H66 0.956 1_545 S
C54 H67 0.961 . S
C54 H68 0.961 . S
C55 C52 1.539 . S
C55 H69 0.958 . S
C55 H70 0.961 . S
C55 H71 0.960 . S
H56 C40 0.931 . S
H57 C45 0.929 . S
H58 C46 0.960 . S
H59 C46 0.962 . S
H60 C46 0.960 . S
H61 C47 0.961 . S
H62 C47 0.961 . S
H63 C47 0.961 . S
H64 C48 0.931 . S
H65 C53 0.930 . S
H66 C54 0.956 1_565 S
H67 C54 0.961 . S
H68 C54 0.961 . S
H69 C55 0.958 . S
H70 C55 0.961 . S
H71 C55 0.960 . S
C72 C73 1.391 1_554 S
C72 C74 1.394 . S
C72 H88 0.931 . S
C73 C72 1.391 1_556 S
C73 C77 1.376 1_565 S
C74 C72 1.394 . S
C74 C75 1.369 1_554 S
C74 C78 1.531 . S
C75 C74 1.369 1_556 S
C75 C76 1.410 1_565 S
C75 C83 1.503 . S
C76 C75 1.410 1_545 S
C76 C77 1.392 . S
C76 C79 1.511 . S
C77 C73 1.376 1_545 S
C77 C76 1.392 . S
C77 H89 0.929 . S
C78 C74 1.531 . S
C78 H90 0.960 . S
C78 H91 0.962 . S
C78 H92 0.960 . S
C79 C76 1.511 . S
C79 H93 0.961 . S
C79 H94 0.961 . S
C79 H95 0.961 . S
C80 C81 1.370 1_544 S
C80 C82 1.363 . S
C80 H96 0.931 . S
C81 C80 1.370 1_566 S
C81 C85 1.408 . S
C82 C80 1.363 . S
C82 C83 1.370 1_544 S
C82 C86 1.524 . S
C83 C75 1.503 . S
C83 C82 1.370 1_566 S
C83 C84 1.403 . S
C84 C83 1.403 . S
C84 C85 1.404 . S
C84 C87 1.539 . S
C85 C81 1.408 . S
C85 C84 1.404 . S
C85 H97 0.930 . S
C86 C82 1.524 . S
C86 H98 0.956 . S
C86 H99 0.961 . S
C86 H100 0.961 . S
C87 C84 1.539 . S
C87 H101 0.958 . S
C87 H102 0.961 . S
C87 H103 0.960 . S
H88 C72 0.931 . S
H89 C77 0.929 . S
H90 C78 0.960 . S
H91 C78 0.962 . S
H92 C78 0.960 . S
H93 C79 0.961 . S
H94 C79 0.961 . S
H95 C79 0.961 . S
H96 C80 0.931 . S
H97 C85 0.930 . S
H98 C86 0.956 . S
H99 C86 0.961 . S
H100 C86 0.961 . S
H101 C87 0.958 . S
H102 C87 0.961 . S
H103 C87 0.960 . S
C104 C105 1.391 1_655 S
C104 C106 1.394 . S
C104 H120 0.931 . S
C105 C104 1.391 1_455 S
C105 C109 1.376 1_556 S
C106 C104 1.394 . S
C106 C107 1.369 1_655 S
C106 C110 1.531 . S
C107 C106 1.369 1_455 S
C107 C108 1.410 1_556 S
C107 C115 1.503 . S
C108 C107 1.410 1_554 S
C108 C109 1.392 . S
C108 C111 1.511 . S
C109 C105 1.376 1_554 S
C109 C108 1.392 . S
C109 H121 0.929 . S
C110 C106 1.531 . S
C110 H122 0.960 . S
C110 H123 0.962 . S
C110 H124 0.960 . S
C111 C108 1.511 . S
C111 H125 0.961 . S
C111 H126 0.961 . S
C111 H127 0.961 1_554 S
C112 C113 1.370 1_654 S
C112 C114 1.363 . S
C112 H128 0.931 . S
C113 C112 1.370 1_456 S
C113 C117 1.408 . S
C114 C112 1.363 . S
C114 C115 1.370 1_654 S
C114 C118 1.524 . S
C115 C107 1.503 . S
C115 C114 1.370 1_456 S
C115 C116 1.403 . S
C116 C115 1.403 . S
C116 C117 1.404 . S
C116 C119 1.539 . S
C117 C113 1.408 . S
C117 C116 1.404 . S
C117 H129 0.930 . S
C118 C114 1.524 . S
C118 H130 0.956 . S
C118 H131 0.961 . S
C118 H132 0.961 . S
C119 C116 1.539 . S
C119 H133 0.958 . S
C119 H134 0.961 . S
C119 H135 0.960 . S
H120 C104 0.931 . S
H121 C109 0.929 . S
H122 C110 0.960 . S
H123 C110 0.962 . S
H124 C110 0.960 . S
H125 C111 0.961 . S
H126 C111 0.961 . S
H127 C111 0.961 1_556 S
H128 C112 0.931 . S
H129 C117 0.930 . S
H130 C118 0.956 . S
H131 C118 0.961 . S
H132 C118 0.961 . S
H133 C119 0.958 . S
H134 C119 0.961 . S
H135 C119 0.960 . S
C41 C18 1.428 1_565 S
C49 C9 1.459 1_455 S
C73 C15 1.498 1_566 S
C81 C6 1.497 . S
C105 C19 1.499 1_456 S
C113 C10 1.484 . S
