# Generated by pormake.
# Topology unh, (4)-cn, num edge types: 1
# Building blocks:
#     Node 0, Type 0, BuildingBlock: NAWXER_clean_sbu_0, # of connection points: 4
#     Node 1, Type 0, BuildingBlock: NAWXER_clean_sbu_0, # of connection points: 4
#     Node 2, Type 0, BuildingBlock: NAWXER_clean_sbu_0, # of connection points: 4
#     Node 3, Type 0, BuildingBlock: NAWXER_clean_sbu_0, # of connection points: 4
#     Node 4, Type 0, BuildingBlock: NAWXER_clean_sbu_0, # of connection points: 4
#     Node 5, Type 0, BuildingBlock: NAWXER_clean_sbu_0, # of connection points: 4
#     Edge 6, Type (0, 0), BuildingBlock: OJICUG_clean_linker_0, # of connection points: 2
#     Edge 7, Type (0, 0), BuildingBlock: OJICUG_clean_linker_0, # of connection points: 2
#     Edge 8, Type (0, 0), BuildingBlock: OJICUG_clean_linker_0, # of connection points: 2
#     Edge 9, Type (0, 0), BuildingBlock: OJICUG_clean_linker_0, # of connection points: 2
#     Edge 10, Type (0, 0), BuildingBlock: OJICUG_clean_linker_0, # of connection points: 2
#     Edge 11, Type (0, 0), BuildingBlock: OJICUG_clean_linker_0, # of connection points: 2
#     Edge 12, Type (0, 0), BuildingBlock: OJICUG_clean_linker_0, # of connection points: 2
#     Edge 13, Type (0, 0), BuildingBlock: OJICUG_clean_linker_0, # of connection points: 2
#     Edge 14, Type (0, 0), BuildingBlock: OJICUG_clean_linker_0, # of connection points: 2
#     Edge 15, Type (0, 0), BuildingBlock: OJICUG_clean_linker_0, # of connection points: 2
#     Edge 16, Type (0, 0), BuildingBlock: OJICUG_clean_linker_0, # of connection points: 2
#     Edge 17, Type (0, 0), BuildingBlock: OJICUG_clean_linker_0, # of connection points: 2
# Relax obj value: 0.020
# Max RMSD: 0.247
# Mean RMSD: 0.247
data_MOF--net-unh--node1-NAWXER_clean_sbu_0--edge1-OJICUG_clean_linker_0
_symmetry_space_group_name_H-M    P1
_symmetry_Int_Tables_number       1
_symmetry_cell_setting            triclinic
loop_
_symmetry_equiv_pos_as_xyz
'x, y, z'
_cell_length_a     32.135022
_cell_length_b     32.090266
_cell_length_c     16.151279
_cell_angle_alpha  89.987201
_cell_angle_beta   89.988882
_cell_angle_gamma 120.01869
loop_
_atom_site_label
_atom_site_type_symbol
_atom_site_fract_x
_atom_site_fract_y
_atom_site_fract_z
_atom_type_partial_charge
C0 C 0.09468 0.56639 0.19375 0.0
C1 C 0.21876 0.663 -0.00406 0.0
O2 O 0.11577 0.61099 0.17791 0.0
Zn3 Zn 0.15582 0.61228 0.09026 0.0
O4 O 0.10571 0.53927 0.15187 0.0
Zn5 Zn 0.15569 0.55136 0.05104 0.0
O6 O 0.19486 0.5286 0.09629 0.0
O7 O 0.2086 0.59755 0.15033 0.0
O8 O 0.20862 0.61888 -0.00914 0.0
O9 O 0.19515 0.67424 0.04492 0.0
O10 O 0.10573 0.5744 -0.01042 0.0
O11 O 0.1155 0.51259 0.9635 0.0
C12 C 0.21857 0.56347 0.14523 0.0
C13 C 0.09453 0.53617 0.94774 0.0
C14 C 0.57058 0.21235 0.16253 0.0
C15 C 0.54323 0.08811 0.36009 0.0
O16 O 0.5358 0.18866 0.21162 0.0
Zn17 Zn 0.55847 0.14936 0.25675 0.0
O18 O 0.60455 0.20229 0.1573 0.0
Zn19 Zn 0.61921 0.14938 0.21735 0.0
O20 O 0.6178 0.10922 0.12971 0.0
O21 O 0.54624 0.09928 0.15596 0.0
O22 O 0.58137 0.09924 0.31816 0.0
O23 O 0.51975 0.10918 0.34437 0.0
O24 O 0.62595 0.20227 0.31678 0.0
O25 O 0.68114 0.18871 0.26251 0.0
C26 C 0.57326 0.08816 0.11401 0.0
C27 C 0.66998 0.21236 0.31157 0.0
C28 C 0.49911 0.56621 0.28001 0.0
C29 C 0.47177 0.66275 0.47814 0.0
O30 O 0.52258 0.6108 0.29583 0.0
Zn31 Zn 0.48388 0.61207 0.38359 0.0
O32 O 0.461 0.53907 0.32196 0.0
Zn33 Zn 0.42315 0.55114 0.42288 0.0
O34 O 0.36122 0.52847 0.37779 0.0
O35 O 0.41637 0.59743 0.32374 0.0
O36 O 0.4378 0.61864 0.48324 0.0
O37 O 0.50654 0.67401 0.42899 0.0
O38 O 0.49613 0.57413 0.48419 0.0
O39 O 0.4246 0.51229 0.51034 0.0
C40 C 0.37235 0.56338 0.3289 0.0
C41 C 0.46914 0.53588 0.52604 0.0
C42 C 0.82359 0.46558 0.64525 0.0
C43 C 0.94775 0.49301 0.44786 0.0
O44 O 0.84733 0.50048 0.59633 0.0
Zn45 Zn 0.88657 0.47778 0.55115 0.0
O46 O 0.83358 0.43152 0.65039 0.0
Zn47 Zn 0.88643 0.41686 0.59043 0.0
O48 O 0.92646 0.41816 0.67811 0.0
O49 O 0.93652 0.48988 0.65197 0.0
O50 O 0.93655 0.45477 0.48972 0.0
O51 O 0.92678 0.51659 0.46362 0.0
O52 O 0.83373 0.41026 0.49091 0.0
O53 O 0.84717 0.3549 0.54508 0.0
C54 C 0.94755 0.46276 0.69388 0.0
C55 C 0.82362 0.36615 0.49601 0.0
C56 C 0.37275 0.81682 0.81187 0.0
C57 C 0.4696 0.94093 0.61414 0.0
O58 O 0.36166 0.84053 0.76282 0.0
Zn59 Zn 0.42359 0.87976 0.71759 0.0
O60 O 0.41675 0.82682 0.81705 0.0
Zn61 Zn 0.48429 0.87966 0.75692 0.0
O62 O 0.52305 0.91982 0.8445 0.0
O63 O 0.46149 0.92987 0.8183 0.0
O64 O 0.49659 0.92977 0.65606 0.0
O65 O 0.42507 0.91993 0.62993 0.0
O66 O 0.43811 0.82676 0.65757 0.0
O67 O 0.50683 0.84025 0.71178 0.0
C68 C 0.49961 0.94095 0.8602 0.0
C69 C 0.47202 0.81661 0.66276 0.0
C70 C 0.54281 0.46254 0.78004 0.0
C71 C 0.57036 0.36607 0.97811 0.0
O72 O 0.51936 0.41795 0.79591 0.0
Zn73 Zn 0.55811 0.41671 0.88363 0.0
O74 O 0.58092 0.48969 0.82192 0.0
Zn75 Zn 0.61881 0.47767 0.9228 0.0
O76 O 0.68074 0.50043 0.8776 0.0
O77 O 0.62564 0.43144 0.82365 0.0
O78 O 0.60428 0.4102 0.98313 0.0
O79 O 0.53554 0.35478 0.92909 0.0
O80 O 0.54582 0.45461 0.98423 0.0
O81 O 0.61732 0.51648 0.01025 0.0
C82 C 0.66965 0.46553 0.82874 0.0
C83 C 0.57279 0.49287 0.02603 0.0
C84 C 0.03867 0.47177 0.8513 0.0
C85 C 0.05691 0.51851 0.88286 0.0
H86 H 0.99008 0.41778 0.76804 0.0
C87 C 0.03883 0.54729 0.85176 0.0
H88 H 0.05158 0.4485 0.87394 0.0
C89 C 1.00344 0.52961 0.78978 0.0
C90 C 0.98514 0.48266 0.75883 0.0
H91 H 0.05224 0.58349 0.87479 0.0
H92 H 0.9902 0.5525 0.76663 0.0
C93 C 1.00316 0.45403 0.79056 0.0
C94 C 0.564 0.9968 0.95662 0.0
C95 C 0.51734 0.97863 0.92507 0.0
H96 H 0.61799 0.04538 0.03987 0.0
C97 C 0.48869 0.99685 0.95617 0.0
H98 H 0.58717 0.98379 0.93398 0.0
C99 C 0.50642 0.03229 0.01814 0.0
C100 C 0.5533 0.05051 0.04909 0.0
H101 H 0.45255 0.9835 0.93314 0.0
H102 H 0.48363 0.04563 0.0413 0.0
C103 C 0.58179 0.03236 0.01736 0.0
C104 C 0.5634 0.57501 0.18314 0.0
C105 C 0.51682 0.54634 0.21499 0.0
H106 H 0.61734 0.5806 0.09963 0.0
C107 C 0.48824 0.49936 0.18411 0.0
H108 H 0.58652 0.61128 0.20559 0.0
C109 C 0.50598 0.4817 0.1221 0.0
C110 C 0.55279 0.51053 0.09089 0.0
H111 H 0.45216 0.47643 0.20737 0.0
H112 H 0.48325 0.44548 0.09914 0.0
C113 C 0.5812 0.55729 0.12236 0.0
C114 C 1.00344 0.48188 0.35182 0.0
C115 C 0.98536 0.51067 0.38292 0.0
H116 H 0.05203 0.47665 0.26661 0.0
C117 C 1.0036 0.5574 0.3513 0.0
H118 H 0.99003 0.44568 0.37489 0.0
C119 C 0.03909 0.57513 0.29048 0.0
C120 C 0.0571 0.5465 0.25875 0.0
H121 H 0.9907 0.58068 0.37394 0.0
H122 H 0.05217 0.61139 0.26792 0.0
C123 C 0.03881 0.49955 0.28977 0.0
C124 C 0.55418 0.03222 0.45611 0.0
C125 C 0.52553 0.05043 0.42502 0.0
H126 H 0.55924 0.98345 0.5413 0.0
C127 C 0.47887 0.03227 0.45663 0.0
H128 H 0.59031 0.04556 0.43304 0.0
C129 C 0.46109 0.99673 0.51744 0.0
C130 C 0.48958 0.97858 0.54916 0.0
H131 H 0.4557 0.04528 0.434 0.0
H132 H 0.4249 0.98372 0.53999 0.0
C133 C 0.53645 0.99679 0.51815 0.0
C134 C 0.47851 0.45373 0.68324 0.0
C135 C 0.52509 0.4824 0.71502 0.0
H136 H 0.42457 0.44814 0.59977 0.0
C137 C 0.55368 0.52937 0.68406 0.0
H138 H 0.45539 0.41746 0.70575 0.0
C139 C 0.53594 0.54703 0.62204 0.0
C140 C 0.48913 0.51821 0.59091 0.0
H141 H 0.58976 0.5523 0.70726 0.0
H142 H 0.55867 0.58325 0.59903 0.0
C143 C 0.46071 0.47145 0.62245 0.0
C144 C 0.25548 0.52098 0.21548 0.0
C145 C 0.25782 0.5645 0.19412 0.0
H146 H 0.2898 0.48674 0.27512 0.0
C147 C 0.29871 0.60818 0.21615 0.0
H148 H 0.22441 0.48679 0.19921 0.0
C149 C 0.33693 0.60816 0.25802 0.0
C150 C 0.33412 0.56445 0.2801 0.0
H151 H 0.30152 0.64222 0.19961 0.0
H152 H 0.36815 0.64218 0.27451 0.0
C153 C 0.29294 0.52096 0.25882 0.0
C154 C 0.70533 0.29247 0.38296 0.0
C155 C 0.70819 0.25165 0.36053 0.0
H156 H 0.74066 0.36185 0.44185 0.0
C157 C 0.74939 0.24941 0.38166 0.0
H158 H 0.67408 0.2952 0.36662 0.0
C159 C 0.78681 0.28688 0.42519 0.0
C160 C 0.78441 0.32797 0.44691 0.0
H161 H 0.75256 0.2184 0.36508 0.0
H162 H 0.8179 0.28381 0.44134 0.0
C163 C 0.74351 0.3307 0.42503 0.0
C164 C 0.51431 0.77947 0.59262 0.0
C165 C 0.4709 0.77729 0.6138 0.0
H166 H 0.54838 0.74501 0.53285 0.0
C167 C 0.42723 0.73651 0.5914 0.0
H168 H 0.5485 0.81046 0.60919 0.0
C169 C 0.42716 0.69825 0.54929 0.0
C170 C 0.47077 0.70094 0.52734 0.0
H171 H 0.39328 0.73381 0.60778 0.0
H172 H 0.39316 0.66713 0.53248 0.0
C173 C 0.51425 0.74199 0.54905 0.0
C174 C 0.70515 0.4208 0.75796 0.0
C175 C 0.7079 0.46449 0.77994 0.0
H176 H 0.74064 0.38679 0.69968 0.0
C177 C 0.74906 0.508 0.7586 0.0
H178 H 0.67394 0.38677 0.77448 0.0
C179 C 0.78656 0.50801 0.71532 0.0
C180 C 0.78428 0.46451 0.69407 0.0
H181 H 0.75215 0.5422 0.77484 0.0
H182 H 0.81762 0.54222 0.69901 0.0
C183 C 0.74341 0.42081 0.71614 0.0
C184 C 0.33718 0.7366 0.88304 0.0
C185 C 0.33448 0.77754 0.86083 0.0
H186 H 0.30162 0.66711 0.94164 0.0
C187 C 0.29336 0.77991 0.88208 0.0
H188 H 0.36835 0.73377 0.8666 0.0
C189 C 0.25585 0.74243 0.92549 0.0
C190 C 0.25807 0.70121 0.94697 0.0
H191 H 0.29031 0.81101 0.86566 0.0
H192 H 0.22482 0.74559 0.94173 0.0
C193 C 0.2989 0.69837 0.925 0.0
C194 C 0.52806 0.28678 0.04897 0.0
C195 C 0.57148 0.32791 0.02722 0.0
H196 H 0.49397 0.21828 0.1091 0.0
C197 C 0.61514 0.33069 0.04903 0.0
H198 H 0.49388 0.28367 0.03286 0.0
C199 C 0.61519 0.29248 0.09108 0.0
C200 C 0.57158 0.25162 0.11355 0.0
H201 H 0.6491 0.36188 0.03218 0.0
H202 H 0.64919 0.29525 0.10738 0.0
C203 C 0.52811 0.24933 0.09248 0.0
loop_
_geom_bond_atom_site_label_1
_geom_bond_atom_site_label_2
_geom_bond_distance
_geom_bond_site_symmetry_2
_ccdc_geom_bond_type
C0 O2 1.247 . S
C0 O4 1.258 . S
C1 O8 1.247 . S
C1 O9 1.258 1_556 S
O2 C0 1.247 . S
O2 Zn3 2.028 . S
Zn3 O2 2.028 . S
Zn3 O7 2.035 . S
Zn3 O9 2.035 . S
Zn3 O10 2.028 . S
O4 C0 1.258 . S
O4 Zn5 2.035 . S
Zn5 O4 2.035 . S
Zn5 O6 2.028 . S
Zn5 O8 2.028 1_554 S
Zn5 O11 2.035 1_554 S
O6 Zn5 2.028 . S
O6 C12 1.247 . S
O7 Zn3 2.035 . S
O7 C12 1.258 . S
O8 C1 1.247 . S
O8 Zn5 2.028 1_556 S
O9 C1 1.258 1_554 S
O9 Zn3 2.035 . S
O10 Zn3 2.028 . S
O10 C13 1.247 1_554 S
O11 Zn5 2.035 1_556 S
O11 C13 1.258 . S
C12 O6 1.247 . S
C12 O7 1.258 . S
C13 O10 1.247 1_556 S
C13 O11 1.258 . S
C14 O16 1.247 . S
C14 O18 1.258 . S
C15 O22 1.247 . S
C15 O23 1.258 . S
O16 C14 1.247 . S
O16 Zn17 2.028 . S
Zn17 O16 2.028 . S
Zn17 O21 2.035 . S
Zn17 O23 2.035 . S
Zn17 O24 2.028 . S
O18 C14 1.258 . S
O18 Zn19 2.035 . S
Zn19 O18 2.035 . S
Zn19 O20 2.028 . S
Zn19 O22 2.028 . S
Zn19 O25 2.035 . S
O20 Zn19 2.028 . S
O20 C26 1.247 . S
O21 Zn17 2.035 . S
O21 C26 1.258 . S
O22 C15 1.247 . S
O22 Zn19 2.028 . S
O23 C15 1.258 . S
O23 Zn17 2.035 . S
O24 Zn17 2.028 . S
O24 C27 1.247 . S
O25 Zn19 2.035 . S
O25 C27 1.258 . S
C26 O20 1.247 . S
C26 O21 1.258 . S
C27 O24 1.247 . S
C27 O25 1.258 . S
C28 O30 1.247 . S
C28 O32 1.258 . S
C29 O36 1.247 . S
C29 O37 1.258 . S
O30 C28 1.247 . S
O30 Zn31 2.028 . S
Zn31 O30 2.028 . S
Zn31 O35 2.035 . S
Zn31 O37 2.035 . S
Zn31 O38 2.028 . S
O32 C28 1.258 . S
O32 Zn33 2.035 . S
Zn33 O32 2.035 . S
Zn33 O34 2.028 . S
Zn33 O36 2.028 . S
Zn33 O39 2.035 . S
O34 Zn33 2.028 . S
O34 C40 1.247 . S
O35 Zn31 2.035 . S
O35 C40 1.258 . S
O36 C29 1.247 . S
O36 Zn33 2.028 . S
O37 C29 1.258 . S
O37 Zn31 2.035 . S
O38 Zn31 2.028 . S
O38 C41 1.247 . S
O39 Zn33 2.035 . S
O39 C41 1.258 . S
C40 O34 1.247 . S
C40 O35 1.258 . S
C41 O38 1.247 . S
C41 O39 1.258 . S
C42 O44 1.247 . S
C42 O46 1.258 . S
C43 O50 1.247 . S
C43 O51 1.258 . S
O44 C42 1.247 . S
O44 Zn45 2.028 . S
Zn45 O44 2.028 . S
Zn45 O49 2.035 . S
Zn45 O51 2.035 . S
Zn45 O52 2.028 . S
O46 C42 1.258 . S
O46 Zn47 2.035 . S
Zn47 O46 2.035 . S
Zn47 O48 2.028 . S
Zn47 O50 2.028 . S
Zn47 O53 2.035 . S
O48 Zn47 2.028 . S
O48 C54 1.247 . S
O49 Zn45 2.035 . S
O49 C54 1.258 . S
O50 C43 1.247 . S
O50 Zn47 2.028 . S
O51 C43 1.258 . S
O51 Zn45 2.035 . S
O52 Zn45 2.028 . S
O52 C55 1.247 . S
O53 Zn47 2.035 . S
O53 C55 1.258 . S
C54 O48 1.247 . S
C54 O49 1.258 . S
C55 O52 1.247 . S
C55 O53 1.258 . S
C56 O58 1.247 . S
C56 O60 1.258 . S
C57 O64 1.247 . S
C57 O65 1.258 . S
O58 C56 1.247 . S
O58 Zn59 2.028 . S
Zn59 O58 2.028 . S
Zn59 O63 2.035 . S
Zn59 O65 2.035 . S
Zn59 O66 2.028 . S
O60 C56 1.258 . S
O60 Zn61 2.035 . S
Zn61 O60 2.035 . S
Zn61 O62 2.028 . S
Zn61 O64 2.028 . S
Zn61 O67 2.035 . S
O62 Zn61 2.028 . S
O62 C68 1.247 . S
O63 Zn59 2.035 . S
O63 C68 1.258 . S
O64 C57 1.247 . S
O64 Zn61 2.028 . S
O65 C57 1.258 . S
O65 Zn59 2.035 . S
O66 Zn59 2.028 . S
O66 C69 1.247 . S
O67 Zn61 2.035 . S
O67 C69 1.258 . S
C68 O62 1.247 . S
C68 O63 1.258 . S
C69 O66 1.247 . S
C69 O67 1.258 . S
C70 O72 1.247 . S
C70 O74 1.258 . S
C71 O78 1.247 . S
C71 O79 1.258 1_554 S
O72 C70 1.247 . S
O72 Zn73 2.028 . S
Zn73 O72 2.028 . S
Zn73 O77 2.035 . S
Zn73 O79 2.035 . S
Zn73 O80 2.028 . S
O74 C70 1.258 . S
O74 Zn75 2.035 . S
Zn75 O74 2.035 . S
Zn75 O76 2.028 . S
Zn75 O78 2.028 1_556 S
Zn75 O81 2.035 1_556 S
O76 Zn75 2.028 . S
O76 C82 1.247 . S
O77 Zn73 2.035 . S
O77 C82 1.258 . S
O78 C71 1.247 . S
O78 Zn75 2.028 1_554 S
O79 C71 1.258 1_556 S
O79 Zn73 2.035 . S
O80 Zn73 2.028 . S
O80 C83 1.247 1_556 S
O81 Zn75 2.035 1_554 S
O81 C83 1.258 . S
C82 O76 1.247 . S
C82 O77 1.258 . S
C83 O80 1.247 1_554 S
C83 O81 1.258 . S
C84 C85 1.387 . S
C84 H88 0.950 . S
C84 C93 1.390 . S
C85 C84 1.387 . S
C85 C87 1.387 1_455 S
H86 C93 0.950 . S
C87 C85 1.387 1_655 S
C87 C89 1.390 . S
C87 H91 0.950 . S
H88 C84 0.950 . S
C89 C87 1.390 . S
C89 C90 1.387 . S
C89 H92 0.950 . S
C90 C89 1.387 . S
C90 C93 1.387 1_655 S
H91 C87 0.950 . S
H92 C89 0.950 . S
C93 C84 1.390 . S
C93 H86 0.950 . S
C93 C90 1.387 1_455 S
C94 C95 1.387 . S
C94 H98 0.950 . S
C94 C103 1.390 1_566 S
C95 C94 1.387 . S
C95 C97 1.387 . S
H96 C103 0.950 . S
C97 C95 1.387 . S
C97 C99 1.390 1_566 S
C97 H101 0.950 . S
H98 C94 0.950 . S
C99 C97 1.390 1_544 S
C99 C100 1.387 . S
C99 H102 0.950 . S
C100 C99 1.387 . S
C100 C103 1.387 . S
H101 C97 0.950 . S
H102 C99 0.950 . S
C103 C94 1.390 1_544 S
C103 H96 0.950 . S
C103 C100 1.387 . S
C104 C105 1.387 . S
C104 H108 0.950 . S
C104 C113 1.390 . S
C105 C104 1.387 . S
C105 C107 1.387 . S
H106 C113 0.950 . S
C107 C105 1.387 . S
C107 C109 1.390 . S
C107 H111 0.950 . S
H108 C104 0.950 . S
C109 C107 1.390 . S
C109 C110 1.387 . S
C109 H112 0.950 . S
C110 C109 1.387 . S
C110 C113 1.387 . S
H111 C107 0.950 . S
H112 C109 0.950 . S
C113 C104 1.390 . S
C113 H106 0.950 . S
C113 C110 1.387 . S
C114 C115 1.387 . S
C114 H118 0.950 . S
C114 C123 1.390 . S
C115 C114 1.387 . S
C115 C117 1.387 1_655 S
H116 C123 0.950 . S
C117 C115 1.387 1_455 S
C117 C119 1.390 . S
C117 H121 0.950 . S
H118 C114 0.950 . S
C119 C117 1.390 . S
C119 C120 1.387 . S
C119 H122 0.950 . S
C120 C119 1.387 . S
C120 C123 1.387 1_455 S
H121 C117 0.950 . S
H122 C119 0.950 . S
C123 C114 1.390 . S
C123 H116 0.950 . S
C123 C120 1.387 1_655 S
C124 C125 1.387 . S
C124 H128 0.950 . S
C124 C133 1.390 1_545 S
C125 C124 1.387 . S
C125 C127 1.387 . S
H126 C133 0.950 . S
C127 C125 1.387 . S
C127 C129 1.390 1_545 S
C127 H131 0.950 . S
H128 C124 0.950 . S
C129 C127 1.390 1_565 S
C129 C130 1.387 . S
C129 H132 0.950 . S
C130 C129 1.387 . S
C130 C133 1.387 . S
H131 C127 0.950 . S
H132 C129 0.950 . S
C133 C124 1.390 1_565 S
C133 H126 0.950 . S
C133 C130 1.387 . S
C134 C135 1.387 . S
C134 H138 0.950 . S
C134 C143 1.390 . S
C135 C134 1.387 . S
C135 C137 1.387 . S
H136 C143 0.950 . S
C137 C135 1.387 . S
C137 C139 1.390 . S
C137 H141 0.950 . S
H138 C134 0.950 . S
C139 C137 1.390 . S
C139 C140 1.387 . S
C139 H142 0.950 . S
C140 C139 1.387 . S
C140 C143 1.387 . S
H141 C137 0.950 . S
H142 C139 0.950 . S
C143 C134 1.390 . S
C143 H136 0.950 . S
C143 C140 1.387 . S
C144 C145 1.387 . S
C144 H148 0.950 . S
C144 C153 1.390 . S
C145 C144 1.387 . S
C145 C147 1.387 . S
H146 C153 0.950 . S
C147 C145 1.387 . S
C147 C149 1.390 . S
C147 H151 0.950 . S
H148 C144 0.950 . S
C149 C147 1.390 . S
C149 C150 1.387 . S
C149 H152 0.950 . S
C150 C149 1.387 . S
C150 C153 1.387 . S
H151 C147 0.950 . S
H152 C149 0.950 . S
C153 C144 1.390 . S
C153 H146 0.950 . S
C153 C150 1.387 . S
C154 C155 1.387 . S
C154 H158 0.950 . S
C154 C163 1.390 . S
C155 C154 1.387 . S
C155 C157 1.387 . S
H156 C163 0.950 . S
C157 C155 1.387 . S
C157 C159 1.390 . S
C157 H161 0.950 . S
H158 C154 0.950 . S
C159 C157 1.390 . S
C159 C160 1.387 . S
C159 H162 0.950 . S
C160 C159 1.387 . S
C160 C163 1.387 . S
H161 C157 0.950 . S
H162 C159 0.950 . S
C163 C154 1.390 . S
C163 H156 0.950 . S
C163 C160 1.387 . S
C164 C165 1.387 . S
C164 H168 0.950 . S
C164 C173 1.390 . S
C165 C164 1.387 . S
C165 C167 1.387 . S
H166 C173 0.950 . S
C167 C165 1.387 . S
C167 C169 1.390 . S
C167 H171 0.950 . S
H168 C164 0.950 . S
C169 C167 1.390 . S
C169 C170 1.387 . S
C169 H172 0.950 . S
C170 C169 1.387 . S
C170 C173 1.387 . S
H171 C167 0.950 . S
H172 C169 0.950 . S
C173 C164 1.390 . S
C173 H166 0.950 . S
C173 C170 1.387 . S
C174 C175 1.387 . S
C174 H178 0.950 . S
C174 C183 1.390 . S
C175 C174 1.387 . S
C175 C177 1.387 . S
H176 C183 0.950 . S
C177 C175 1.387 . S
C177 C179 1.390 . S
C177 H181 0.950 . S
H178 C174 0.950 . S
C179 C177 1.390 . S
C179 C180 1.387 . S
C179 H182 0.950 . S
C180 C179 1.387 . S
C180 C183 1.387 . S
H181 C177 0.950 . S
H182 C179 0.950 . S
C183 C174 1.390 . S
C183 H176 0.950 . S
C183 C180 1.387 . S
C184 C185 1.387 . S
C184 H188 0.950 . S
C184 C193 1.390 . S
C185 C184 1.387 . S
C185 C187 1.387 . S
H186 C193 0.950 1_554 S
C187 C185 1.387 . S
C187 C189 1.390 . S
C187 H191 0.950 . S
H188 C184 0.950 . S
C189 C187 1.390 . S
C189 C190 1.387 . S
C189 H192 0.950 . S
C190 C189 1.387 . S
C190 C193 1.387 . S
H191 C187 0.950 . S
H192 C189 0.950 . S
C193 C184 1.390 . S
C193 H186 0.950 1_556 S
C193 C190 1.387 . S
C194 C195 1.387 . S
C194 H198 0.950 . S
C194 C203 1.390 . S
C195 C194 1.387 . S
C195 C197 1.387 1_554 S
H196 C203 0.950 . S
C197 C195 1.387 1_556 S
C197 C199 1.390 1_556 S
C197 H201 0.950 . S
H198 C194 0.950 . S
C199 C197 1.390 1_554 S
C199 C200 1.387 . S
C199 H202 0.950 1_554 S
C200 C199 1.387 . S
C200 C203 1.387 . S
H201 C197 0.950 . S
H202 C199 0.950 1_556 S
C203 C194 1.390 . S
C203 H196 0.950 . S
C203 C200 1.387 . S
C85 C13 1.762 . S
C90 C54 1.759 . S
C95 C68 1.760 . S
C100 C26 1.760 . S
C105 C28 1.759 . S
C110 C83 1.761 . S
C115 C43 1.762 . S
C120 C0 1.760 . S
C125 C15 1.763 . S
C130 C57 1.763 . S
C135 C70 1.759 . S
C140 C41 1.761 . S
C145 C12 1.638 . S
C150 C40 1.638 . S
C155 C27 1.640 . S
C160 C55 1.639 . S
C165 C69 1.639 . S
C170 C29 1.640 . S
C175 C82 1.636 . S
C180 C42 1.636 . S
C185 C56 1.637 . S
C190 C1 1.638 . S
C195 C71 1.640 . S
C200 C14 1.636 . S
