# Generated by pormake.
# Topology cds, (4)-cn, num edge types: 1
# Building blocks:
#     Node 0, Type 0, BuildingBlock: ESEHIV_clean_sbu_0, # of connection points: 4
#     Node 1, Type 0, BuildingBlock: ESEHIV_clean_sbu_0, # of connection points: 4
#     Edge 2, Type (0, 0), BuildingBlock: EYOCIG_clean_linker_4, # of connection points: 2
#     Edge 3, Type (0, 0), BuildingBlock: EYOCIG_clean_linker_4, # of connection points: 2
#     Edge 4, Type (0, 0), BuildingBlock: EYOCIG_clean_linker_4, # of connection points: 2
#     Edge 5, Type (0, 0), BuildingBlock: EYOCIG_clean_linker_4, # of connection points: 2
# Relax obj value: 0.000
# Max RMSD: 0.099
# Mean RMSD: 0.094
data_MOF--net-cds--node1-ESEHIV_clean_sbu_0--edge1-EYOCIG_clean_linker_4
_symmetry_space_group_name_H-M    P1
_symmetry_Int_Tables_number       1
_symmetry_cell_setting            triclinic
loop_
_symmetry_equiv_pos_as_xyz
'x, y, z'
_cell_length_a     11.940843
_cell_length_b     14.614758
_cell_length_c     26.511118
_cell_angle_alpha  104.61863
_cell_angle_beta   104.95633
_cell_angle_gamma 86.648155
loop_
_atom_site_label
_atom_site_type_symbol
_atom_site_fract_x
_atom_site_fract_y
_atom_site_fract_z
_atom_type_partial_charge
Cu0 Cu 0.09611 0.08898 0.05966 0.0
N1 N 0.0742 0.02215 0.98574 0.0
N2 N 0.06811 0.99382 0.89728 0.0
C3 C 0.09426 0.0571 0.94588 0.0
C4 C 0.02989 0.91623 0.90661 0.0
C5 C 0.03364 0.93374 0.96094 0.0
O6 O 0.23959 0.16254 0.07616 0.0
C7 C 0.86433 0.11342 0.0599 0.0
O8 O 0.87098 0.02085 0.04762 0.0
H9 H 0.12655 0.12791 0.95237 0.0
H10 H 0.00736 0.88556 0.9808 0.0
N11 N 0.11655 0.01464 0.11129 0.0
N12 N 0.1244 0.97681 0.18962 0.0
C13 C 0.10544 0.04589 0.16262 0.0
C14 C 0.14349 0.92244 0.1061 0.0
C15 C 0.14824 0.89907 0.15419 0.0
C16 C 0.32865 0.11361 0.06842 0.0
O17 O 0.3191 0.02115 0.05282 0.0
H18 H 0.08318 0.11789 0.17973 0.0
H19 H 0.1585 0.87529 0.06988 0.0
O20 O 0.95463 0.16231 0.0664 0.0
H21 H 1.00026 0.85169 0.87621 0.0
H22 H 0.16724 0.83011 0.16236 0.0
Cu23 Cu 0.9993 1.00107 0.53334 0.0
N24 N 0.91621 0.88227 0.51551 0.0
N25 N 0.88143 0.72798 0.51007 0.0
C26 C 0.95982 0.8005 0.52898 0.0
C27 C 0.78493 0.76538 0.48369 0.0
C28 C 0.80629 0.85952 0.48701 0.0
O29 O 0.08135 0.0149 0.61092 0.0
C30 C 0.03032 0.9881 0.43014 0.0
O31 O 0.91693 0.99149 0.42061 0.0
H32 H 0.04773 0.7943 0.55216 0.0
H33 H 0.74566 0.90781 0.4695 0.0
N34 N 0.91533 0.11788 0.5293 0.0
N35 N 0.88029 0.2712 0.52538 0.0
C36 C 0.96043 0.20116 0.52825 0.0
C37 C 0.8026 0.13705 0.52702 0.0
C38 C 0.78109 0.2306 0.52461 0.0
C39 C 0.01648 0.01503 0.64287 0.0
O40 O 0.9037 0.01025 0.62312 0.0
H41 H 0.05054 0.21013 0.52951 0.0
H42 H 0.73999 0.0866 0.52715 0.0
O43 O 0.08995 0.98897 0.47821 0.0
H44 H 0.7043 0.72728 0.46319 0.0
H45 H 0.69842 0.26605 0.52246 0.0
C46 C 0.11377 0.9851 0.28929 0.0
C47 C 0.11827 0.9827 0.24331 0.0
C48 C 0.10248 0.98581 0.34232 0.0
C49 C 0.08158 0.98656 0.3853 0.0
C50 C 0.07916 0.01179 0.80169 0.0
C51 C 0.0751 1.00573 0.84646 0.0
C52 C 0.07592 0.0154 0.74739 0.0
C53 C 0.06114 0.01579 0.69995 0.0
C54 C 0.6565 0.17168 0.07185 0.0
C55 C 0.75522 0.1557 0.06775 0.0
C56 C 0.53849 0.17173 0.07435 0.0
C57 C 0.43916 0.15585 0.07349 0.0
C58 C 0.89946 0.54923 0.51894 0.0
C59 C 0.89455 0.6324 0.51573 0.0
C60 C 0.89929 0.45054 0.52162 0.0
C61 C 0.89403 0.36722 0.52343 0.0
loop_
_geom_bond_atom_site_label_1
_geom_bond_atom_site_label_2
_geom_bond_distance
_geom_bond_site_symmetry_2
_ccdc_geom_bond_type
Cu0 N1 1.999 1_454 S
Cu0 O6 1.974 . S
Cu0 N11 1.985 . S
Cu0 O20 1.959 1_455 S
N1 Cu0 1.999 1_656 S
N1 C3 1.263 1_655 S
N1 C5 1.389 . S
N2 C3 1.358 1_655 S
N2 C4 1.400 . S
C3 N1 1.263 1_455 S
C3 N2 1.358 1_455 S
C3 H9 0.930 1_545 S
C4 N2 1.400 . S
C4 C5 1.351 . S
C4 H21 0.930 . S
C5 N1 1.389 . S
C5 C4 1.351 . S
C5 H10 0.930 . S
O6 Cu0 1.974 . S
O6 C16 1.282 1_545 S
C7 O8 1.261 . S
C7 O20 1.251 1_565 S
O8 C7 1.261 . S
H9 C3 0.930 1_565 S
H10 C5 0.930 . S
N11 Cu0 1.985 . S
N11 C13 1.335 1_455 S
N11 C14 1.390 1_545 S
N12 C13 1.345 1_455 S
N12 C15 1.336 1_545 S
C13 N11 1.335 1_655 S
C13 N12 1.345 1_655 S
C13 H18 0.930 . S
C14 N11 1.390 1_565 S
C14 C15 1.346 . S
C14 H19 0.930 . S
C15 N12 1.336 1_565 S
C15 C14 1.346 . S
C15 H22 0.929 . S
C16 O6 1.282 1_565 S
C16 O17 1.216 . S
O17 C16 1.216 . S
H18 C13 0.930 . S
H19 C14 0.930 . S
O20 Cu0 1.959 1_655 S
O20 C7 1.251 1_545 S
H21 C4 0.930 . S
H22 C15 0.929 . S
Cu23 N24 1.999 1_545 S
Cu23 O29 1.974 . S
Cu23 N34 1.985 . S
Cu23 O43 1.959 . S
N24 Cu23 1.999 1_565 S
N24 C26 1.263 . S
N24 C28 1.389 . S
N25 C26 1.358 . S
N25 C27 1.400 . S
C26 N24 1.263 . S
C26 N25 1.358 . S
C26 H32 0.930 1_455 S
C27 N25 1.400 . S
C27 C28 1.351 . S
C27 H44 0.930 . S
C28 N24 1.389 . S
C28 C27 1.351 . S
C28 H33 0.930 . S
O29 Cu23 1.974 . S
O29 C39 1.282 1_455 S
C30 O31 1.261 1_545 S
C30 O43 1.251 1_655 S
O31 C30 1.261 1_565 S
H32 C26 0.930 1_655 S
H33 C28 0.930 . S
N34 Cu23 1.985 . S
N34 C36 1.335 . S
N34 C37 1.390 1_455 S
N35 C36 1.345 . S
N35 C38 1.336 1_455 S
C36 N34 1.335 . S
C36 N35 1.345 . S
C36 H41 0.930 . S
C37 N34 1.390 1_655 S
C37 C38 1.346 . S
C37 H42 0.930 . S
C38 N35 1.336 1_655 S
C38 C37 1.346 . S
C38 H45 0.929 . S
C39 O29 1.282 1_655 S
C39 O40 1.216 . S
O40 C39 1.216 . S
H41 C36 0.930 . S
H42 C37 0.930 . S
O43 Cu23 1.959 . S
O43 C30 1.251 1_455 S
H44 C27 0.930 . S
H45 C38 0.929 . S
C46 C47 1.170 1_655 S
C46 C48 1.380 . S
C47 C46 1.170 1_455 S
C48 C46 1.380 . S
C48 C49 1.170 . S
C49 C48 1.170 . S
C50 C51 1.170 1_655 S
C50 C52 1.380 . S
C51 C50 1.170 1_455 S
C52 C50 1.380 . S
C52 C53 1.170 . S
C53 C52 1.170 . S
C54 C55 1.170 . S
C54 C56 1.380 . S
C55 C54 1.170 . S
C56 C54 1.380 . S
C56 C57 1.170 . S
C57 C56 1.170 . S
C58 C59 1.170 . S
C58 C60 1.380 . S
C59 C58 1.170 . S
C60 C58 1.380 . S
C60 C61 1.170 . S
C61 C60 1.170 . S
C47 N12 1.472 . S
C49 C30 1.508 . S
C51 N2 1.477 1_455 S
C53 C39 1.510 . S
C55 C7 1.492 . S
C57 C16 1.488 . S
C59 N25 1.472 . S
C61 N35 1.450 . S
