# Generated by pormake.
# Topology acs, (6)-cn, num edge types: 1
# Building blocks:
#     Node 0, Type 0, BuildingBlock: IZENUY_clean_sbu_0, # of connection points: 6
#     Node 1, Type 0, BuildingBlock: IZENUY_clean_sbu_0, # of connection points: 6
#     Edge 2, Type (0, 0), BuildingBlock: FUNLAD_clean_linker_1, # of connection points: 2
#     Edge 3, Type (0, 0), BuildingBlock: FUNLAD_clean_linker_1, # of connection points: 2
#     Edge 4, Type (0, 0), BuildingBlock: FUNLAD_clean_linker_1, # of connection points: 2
#     Edge 5, Type (0, 0), BuildingBlock: FUNLAD_clean_linker_1, # of connection points: 2
#     Edge 6, Type (0, 0), BuildingBlock: FUNLAD_clean_linker_1, # of connection points: 2
#     Edge 7, Type (0, 0), BuildingBlock: FUNLAD_clean_linker_1, # of connection points: 2
# Relax obj value: 0.000
# Max RMSD: 0.012
# Mean RMSD: 0.012
data_MOF--net-acs--node1-IZENUY_clean_sbu_0--edge1-FUNLAD_clean_linker_1
_symmetry_space_group_name_H-M    P1
_symmetry_Int_Tables_number       1
_symmetry_cell_setting            triclinic
loop_
_symmetry_equiv_pos_as_xyz
'x, y, z'
_cell_length_a     20.98306
_cell_length_b     22.057356
_cell_length_c     20.442177
_cell_angle_alpha  89.935529
_cell_angle_beta   90.040007
_cell_angle_gamma 117.26699
loop_
_atom_site_label
_atom_site_type_symbol
_atom_site_fract_x
_atom_site_fract_y
_atom_site_fract_z
_atom_type_partial_charge
Fe0 Fe 0.63072 0.28271 0.25248 0.0
Fe1 Fe 0.78004 0.2907 0.25754 0.0
O2 O 0.72518 0.33247 0.25569 0.0
Fe3 Fe 0.76541 0.423 0.25694 0.0
O4 O 0.7162 0.42396 0.32988 0.0
O5 O 0.61082 0.34135 0.30151 0.0
O6 O 0.62928 0.23856 0.32838 0.0
C7 C 0.6637 0.20484 0.33589 0.0
C8 C 0.65014 0.38573 0.1665 0.0
O9 O 0.71487 0.21389 0.29849 0.0
C10 C 0.86131 0.4049 0.17896 0.0
O11 O 0.63407 0.21546 0.20205 0.0
O12 O 0.74832 0.25362 0.17763 0.0
O13 O 0.69837 0.42912 0.20296 0.0
O14 O 0.62476 0.3226 0.17684 0.0
C15 C 0.84511 0.38867 0.34955 0.0
O16 O 0.85705 0.35869 0.2174 0.0
O17 O 0.81832 0.43013 0.18356 0.0
C18 C 0.68295 0.21622 0.16507 0.0
O19 O 0.81403 0.32568 0.33728 0.0
O20 O 0.83888 0.43159 0.31189 0.0
C21 C 0.64914 0.3914 0.33757 0.0
Fe22 Fe 0.48831 0.74297 0.75817 0.0
Fe23 Fe 0.339 0.73498 0.7531 0.0
O24 O 0.39386 0.69321 0.75495 0.0
Fe25 Fe 0.35363 0.60268 0.7537 0.0
O26 O 0.42067 0.59657 0.80769 0.0
O27 O 0.49427 0.70309 0.8338 0.0
O28 O 0.48496 0.81022 0.8086 0.0
C29 C 0.43608 0.80946 0.84558 0.0
C30 C 0.4699 0.63428 0.67308 0.0
O31 O 0.37071 0.77205 0.83301 0.0
C32 C 0.27393 0.63701 0.66109 0.0
O33 O 0.48975 0.78712 0.68226 0.0
O34 O 0.40416 0.81179 0.71215 0.0
O35 O 0.40284 0.60172 0.68076 0.0
O36 O 0.50822 0.68433 0.70914 0.0
C37 C 0.25772 0.62078 0.83168 0.0
O38 O 0.30501 0.7 0.67336 0.0
O39 O 0.28016 0.59409 0.69875 0.0
C40 C 0.45534 0.82084 0.67476 0.0
O41 O 0.26199 0.66699 0.79324 0.0
O42 O 0.30072 0.59555 0.82708 0.0
C43 C 0.46889 0.63996 0.84415 0.0
H44 H 0.41284 0.85936 0.92936 0.0
C45 C 0.45529 0.8596 0.89872 0.0
H46 H 0.56618 0.90935 0.87664 0.0
H47 H 0.60721 0.18873 0.99778 0.0
H48 H 0.60834 0.21346 0.88202 0.0
H49 H 0.57904 0.12292 0.79966 0.0
H50 H 0.54892 1.00713 0.83251 0.0
C51 C 0.52344 0.90668 0.90839 0.0
C52 C 0.54181 0.96074 0.95815 0.0
C53 C 0.56088 0.02833 0.93778 0.0
C54 C 0.57818 0.08054 0.98514 0.0
C55 C 0.59492 0.14731 0.96378 0.0
C56 C 0.59544 0.16216 0.89747 0.0
C57 C 0.579 0.11118 0.85108 0.0
C58 C 0.56183 0.04494 0.87066 0.0
H59 H 0.70619 0.16631 0.08128 0.0
C60 C 0.66373 0.16608 0.11193 0.0
H61 H 0.55285 0.11634 0.13401 0.0
H62 H 0.51181 0.83695 0.01286 0.0
H63 H 0.51068 0.81222 0.12862 0.0
H64 H 0.53998 0.90276 0.21099 0.0
H65 H 0.5701 0.01855 0.17814 0.0
C66 C 0.59558 0.119 0.10226 0.0
C67 C 0.57721 0.06494 0.0525 0.0
C68 C 0.55814 0.99735 0.07287 0.0
C69 C 0.54085 0.94514 0.02551 0.0
C70 C 0.5241 0.87837 0.04687 0.0
C71 C 0.52358 0.86352 0.11318 0.0
C72 C 0.54002 0.9145 0.15957 0.0
C73 C 0.55719 0.98074 0.13999 0.0
H74 H 0.56355 0.64573 0.61563 0.0
C75 C 0.5068 0.61256 0.62385 0.0
H76 H 0.41924 0.5173 0.60108 0.0
H77 H 0.62893 0.55872 0.34521 0.0
H78 H 0.58764 0.63947 0.30865 0.0
H79 H 0.51327 0.67136 0.38034 0.0
H80 H 0.47982 0.62281 0.48914 0.0
C81 C 0.47494 0.553 0.59161 0.0
C82 C 0.51734 0.53184 0.54697 0.0
C83 C 0.53638 0.56064 0.48352 0.0
C84 C 0.5789 0.54188 0.44199 0.0
C85 C 0.59684 0.57123 0.37877 0.0
C86 C 0.57342 0.61757 0.35714 0.0
C87 C 0.5316 0.63557 0.39753 0.0
C88 C 0.51302 0.60753 0.45997 0.0
H89 H 0.55549 0.37996 0.39502 0.0
C90 C 0.61224 0.41313 0.3868 0.0
H91 H 0.69981 0.50838 0.40957 0.0
H92 H 0.49011 0.46696 0.66543 0.0
H93 H 0.53141 0.38621 0.70199 0.0
H94 H 0.60578 0.35432 0.63031 0.0
H95 H 0.63923 0.40288 0.52151 0.0
C96 C 0.6441 0.47268 0.41903 0.0
C97 C 0.60171 0.49385 0.46367 0.0
C98 C 0.58266 0.46505 0.52713 0.0
C99 C 0.54015 0.48381 0.56866 0.0
C100 C 0.5222 0.45446 0.63187 0.0
C101 C 0.54563 0.40811 0.65351 0.0
C102 C 0.58745 0.39011 0.61312 0.0
C103 C 0.60602 0.41815 0.55068 0.0
H104 H 0.96052 0.41111 0.13845 0.0
C105 C 0.92282 0.43212 0.13385 0.0
H106 H 0.89735 0.49985 0.07955 0.0
H107 H 0.24702 0.60111 0.03014 0.0
H108 H 0.26117 0.64721 0.14007 0.0
H109 H 0.15551 0.6276 0.20683 0.0
H110 H 1.03508 0.56123 0.16443 0.0
C111 C 0.93496 0.47942 0.08784 0.0
C112 C 0.99857 0.5 0.04439 0.0
C113 C 0.06868 0.53926 0.06975 0.0
C114 C 0.12963 0.5515 0.03087 0.0
C115 C 0.19892 0.59064 0.05749 0.0
C116 C 0.2078 0.61733 0.12051 0.0
C117 C 0.14831 0.60612 0.15818 0.0
C118 C 0.07947 0.56764 0.13337 0.0
H119 H 0.15851 0.61456 0.87218 0.0
C120 C 0.19621 0.59355 0.87679 0.0
H121 H 0.22168 0.52583 0.93109 0.0
H122 H 0.87201 0.42457 0.9805 0.0
H123 H 0.85786 0.37847 0.87057 0.0
H124 H 0.96352 0.39808 0.80381 0.0
H125 H 0.08395 0.46445 0.84621 0.0
C126 C 0.18407 0.54626 0.9228 0.0
C127 C 0.12046 0.52568 0.96625 0.0
C128 C 1.05035 0.48642 0.94089 0.0
C129 C 0.9894 0.47418 0.97977 0.0
C130 C 0.92011 0.43504 0.95315 0.0
C131 C 0.91123 0.40835 0.89013 0.0
C132 C 0.97072 0.41956 0.85246 0.0
C133 C 1.03956 0.45804 0.87727 0.0
H134 H 0.44716 0.90606 0.62785 0.0
C135 C 0.47797 0.87754 0.62811 0.0
H136 H 0.56541 0.86925 0.58498 0.0
H137 H 0.51383 0.03111 0.34264 0.0
H138 H 0.46058 0.91647 0.29789 0.0
H139 H 0.44943 0.81907 0.36512 0.0
H140 H 0.49079 0.83571 0.47787 0.0
C141 C 0.53399 0.89695 0.58767 0.0
C142 C 0.55144 0.95662 0.54441 0.0
C143 C 0.52854 0.94614 0.47839 0.0
C144 C 0.53598 1.00237 0.43939 0.0
C145 C 0.51077 0.99032 0.37404 0.0
C146 C 0.47985 0.92475 0.34784 0.0
C147 C 0.47336 0.86989 0.38576 0.0
C148 C 0.49717 0.88012 0.45038 0.0
H149 H 0.67187 0.11963 0.3828 0.0
C150 C 0.64107 0.14814 0.38254 0.0
H151 H 0.55364 0.15644 0.42567 0.0
H152 H 0.60521 0.99458 0.66802 0.0
H153 H 0.65846 0.10922 0.71277 0.0
H154 H 0.66961 0.20662 0.64554 0.0
H155 H 0.62826 0.18998 0.53279 0.0
C156 C 0.58505 0.12874 0.42298 0.0
C157 C 0.56761 0.06907 0.46625 0.0
C158 C 0.59051 0.07955 0.53226 0.0
C159 C 0.58306 0.02332 0.57126 0.0
C160 C 0.60827 0.03537 0.63662 0.0
C161 C 0.63919 0.10094 0.66282 0.0
C162 C 0.64568 0.1558 0.62489 0.0
C163 C 0.62187 0.14557 0.56027 0.0
H164 H 0.54334 0.65629 0.9262 0.0
C165 C 0.50123 0.61731 0.89691 0.0
H166 H 0.44252 0.51169 0.87819 0.0
H167 H 0.68291 0.4451 0.99546 0.0
H168 H 0.69169 0.42627 0.87977 0.0
H169 H 0.6226 0.45492 0.79865 0.0
H170 H 0.54446 0.50277 0.83275 0.0
C171 C 0.48248 0.55129 0.90856 0.0
C172 C 0.52107 0.53097 0.95838 0.0
C173 C 0.56528 0.50154 0.93774 0.0
C174 C 0.60434 0.48404 0.98463 0.0
C175 C 0.65037 0.45742 0.96228 0.0
C176 C 0.65637 0.44683 0.89588 0.0
C177 C 0.61752 0.46302 0.85021 0.0
C178 C 0.5727 0.49034 0.87054 0.0
H179 H 0.57569 0.3694 0.08444 0.0
C180 C 0.61781 0.40837 0.11374 0.0
H181 H 0.67652 0.51399 0.13246 0.0
H182 H 0.43613 0.58059 0.01518 0.0
H183 H 0.42734 0.59941 0.13088 0.0
H184 H 0.49644 0.57077 0.21199 0.0
H185 H 0.57457 0.52291 0.17789 0.0
C186 C 0.63655 0.4744 0.10209 0.0
C187 C 0.59797 0.49472 0.05227 0.0
C188 C 0.55375 0.52414 0.0729 0.0
C189 C 0.51469 0.54164 0.02602 0.0
C190 C 0.46866 0.56826 0.04837 0.0
C191 C 0.46267 0.57886 0.11477 0.0
C192 C 0.50152 0.56267 0.16044 0.0
C193 C 0.54633 0.53535 0.14011 0.0
H194 H 0.21754 0.652 0.57672 0.0
C195 C 0.22135 0.61357 0.60757 0.0
H196 H 0.17545 0.50864 0.63101 0.0
H197 H 0.87365 0.46077 0.51967 0.0
H198 H 0.85009 0.44891 0.63635 0.0
H199 H 0.94778 0.47316 0.71525 0.0
H200 H 0.06954 0.50899 0.67802 0.0
C201 C 0.17504 0.54763 0.59872 0.0
C202 C 0.11588 0.52794 0.55068 0.0
C203 C 1.04479 0.50546 0.57343 0.0
C204 C 0.98839 0.4909 0.52799 0.0
C205 C 0.91824 0.47088 0.552 0.0
C206 C 0.90404 0.46431 0.61889 0.0
C207 C 0.95905 0.47796 0.66332 0.0
C208 C 1.02873 0.49848 0.64121 0.0
H209 H 0.9015 0.37367 0.43392 0.0
C210 C 0.89769 0.41211 0.40306 0.0
H211 H 0.94359 0.51704 0.37963 0.0
H212 H 0.24539 0.56491 0.49097 0.0
H213 H 0.26896 0.57677 0.37429 0.0
H214 H 0.17127 0.55252 0.29538 0.0
H215 H 1.0495 0.51669 0.33262 0.0
C216 C 0.944 0.47804 0.41192 0.0
C217 C 1.00317 0.49774 0.45996 0.0
C218 C 0.07425 0.52021 0.4372 0.0
C219 C 0.13066 0.53478 0.48265 0.0
C220 C 0.2008 0.5548 0.45864 0.0
C221 C 0.21501 0.56137 0.39174 0.0
C222 C 0.16 0.54772 0.34731 0.0
C223 C 0.09032 0.5272 0.36943 0.0
loop_
_geom_bond_atom_site_label_1
_geom_bond_atom_site_label_2
_geom_bond_distance
_geom_bond_site_symmetry_2
_ccdc_geom_bond_type
Fe0 O2 1.918 . S
Fe0 O5 1.997 . S
Fe0 O6 2.002 . S
Fe0 O11 1.976 . S
Fe0 O14 1.996 . S
Fe1 O2 1.918 . S
Fe1 O9 1.997 . S
Fe1 O12 1.996 . S
Fe1 O16 1.976 . S
Fe1 O19 2.002 . S
O2 Fe0 1.918 . S
O2 Fe1 1.918 . S
O2 Fe3 1.918 . S
Fe3 O2 1.918 . S
Fe3 O4 2.002 . S
Fe3 O13 1.976 . S
Fe3 O17 1.996 . S
Fe3 O20 1.997 . S
O4 Fe3 2.002 . S
O4 C21 1.295 . S
O5 Fe0 1.997 . S
O5 C21 1.235 . S
O6 Fe0 2.002 . S
O6 C7 1.295 . S
C7 O6 1.295 . S
C7 O9 1.235 . S
C8 O13 1.287 . S
C8 O14 1.255 . S
O9 Fe1 1.997 . S
O9 C7 1.235 . S
C10 O16 1.287 . S
C10 O17 1.255 . S
O11 Fe0 1.976 . S
O11 C18 1.287 . S
O12 Fe1 1.996 . S
O12 C18 1.255 . S
O13 Fe3 1.976 . S
O13 C8 1.287 . S
O14 Fe0 1.996 . S
O14 C8 1.255 . S
C15 O19 1.295 . S
C15 O20 1.235 . S
O16 Fe1 1.976 . S
O16 C10 1.287 . S
O17 Fe3 1.996 . S
O17 C10 1.255 . S
C18 O11 1.287 . S
C18 O12 1.255 . S
O19 Fe1 2.002 . S
O19 C15 1.295 . S
O20 Fe3 1.997 . S
O20 C15 1.235 . S
C21 O4 1.295 . S
C21 O5 1.235 . S
Fe22 O24 1.918 . S
Fe22 O27 1.997 . S
Fe22 O28 2.002 . S
Fe22 O33 1.976 . S
Fe22 O36 1.996 . S
Fe23 O24 1.918 . S
Fe23 O31 1.997 . S
Fe23 O34 1.996 . S
Fe23 O38 1.976 . S
Fe23 O41 2.002 . S
O24 Fe22 1.918 . S
O24 Fe23 1.918 . S
O24 Fe25 1.918 . S
Fe25 O24 1.918 . S
Fe25 O26 2.002 . S
Fe25 O35 1.976 . S
Fe25 O39 1.996 . S
Fe25 O42 1.997 . S
O26 Fe25 2.002 . S
O26 C43 1.295 . S
O27 Fe22 1.997 . S
O27 C43 1.235 . S
O28 Fe22 2.002 . S
O28 C29 1.295 . S
C29 O28 1.295 . S
C29 O31 1.235 . S
C30 O35 1.287 . S
C30 O36 1.255 . S
O31 Fe23 1.997 . S
O31 C29 1.235 . S
C32 O38 1.287 . S
C32 O39 1.255 . S
O33 Fe22 1.976 . S
O33 C40 1.287 . S
O34 Fe23 1.996 . S
O34 C40 1.255 . S
O35 Fe25 1.976 . S
O35 C30 1.287 . S
O36 Fe22 1.996 . S
O36 C30 1.255 . S
C37 O41 1.295 . S
C37 O42 1.235 . S
O38 Fe23 1.976 . S
O38 C32 1.287 . S
O39 Fe25 1.996 . S
O39 C32 1.255 . S
C40 O33 1.287 . S
C40 O34 1.255 . S
O41 Fe23 2.002 . S
O41 C37 1.295 . S
O42 Fe25 1.997 . S
O42 C37 1.235 . S
C43 O26 1.295 . S
C43 O27 1.235 . S
H44 C45 0.951 . S
C45 H44 0.951 . S
C45 C51 1.265 . S
H46 C51 0.950 . S
H47 C55 0.949 . S
H48 C56 0.950 . S
H49 C57 0.951 . S
H50 C58 0.951 1_565 S
C51 C45 1.265 . S
C51 H46 0.950 . S
C51 C52 1.478 . S
C52 C51 1.478 . S
C52 C53 1.397 1_565 S
C52 C69 1.394 1_556 S
C53 C52 1.397 1_545 S
C53 C54 1.438 . S
C53 C58 1.429 . S
C54 C53 1.438 . S
C54 C55 1.428 . S
C54 C67 1.394 1_556 S
C55 H47 0.949 . S
C55 C54 1.428 . S
C55 C56 1.345 . S
C56 H48 0.950 . S
C56 C55 1.345 . S
C56 C57 1.424 . S
C57 H49 0.951 . S
C57 C56 1.424 . S
C57 C58 1.347 . S
C58 H50 0.951 1_545 S
C58 C53 1.429 . S
C58 C57 1.347 . S
H59 C60 0.951 . S
C60 H59 0.951 . S
C60 C66 1.265 . S
H61 C66 0.950 . S
H62 C70 0.949 . S
H63 C71 0.950 . S
H64 C72 0.951 . S
H65 C73 0.951 . S
C66 C60 1.265 . S
C66 H61 0.950 . S
C66 C67 1.478 . S
C67 C54 1.394 1_554 S
C67 C66 1.478 . S
C67 C68 1.397 1_545 S
C68 C67 1.397 1_565 S
C68 C69 1.438 . S
C68 C73 1.429 . S
C69 C52 1.394 1_554 S
C69 C68 1.438 . S
C69 C70 1.428 . S
C70 H62 0.949 . S
C70 C69 1.428 . S
C70 C71 1.345 . S
C71 H63 0.950 . S
C71 C70 1.345 . S
C71 C72 1.424 . S
C72 H64 0.951 . S
C72 C71 1.424 . S
C72 C73 1.347 . S
C73 H65 0.951 . S
C73 C68 1.429 . S
C73 C72 1.347 . S
H74 C75 0.951 . S
C75 H74 0.951 . S
C75 C81 1.265 . S
H76 C81 0.950 . S
H77 C85 0.949 . S
H78 C86 0.950 . S
H79 C87 0.951 . S
H80 C88 0.951 . S
C81 C75 1.265 . S
C81 H76 0.950 . S
C81 C82 1.478 . S
C82 C81 1.478 . S
C82 C83 1.397 . S
C82 C99 1.394 . S
C83 C82 1.397 . S
C83 C84 1.438 . S
C83 C88 1.429 . S
C84 C83 1.438 . S
C84 C85 1.428 . S
C84 C97 1.394 . S
C85 H77 0.949 . S
C85 C84 1.428 . S
C85 C86 1.345 . S
C86 H78 0.950 . S
C86 C85 1.345 . S
C86 C87 1.424 . S
C87 H79 0.951 . S
C87 C86 1.424 . S
C87 C88 1.347 . S
C88 H80 0.951 . S
C88 C83 1.429 . S
C88 C87 1.347 . S
H89 C90 0.951 . S
C90 H89 0.951 . S
C90 C96 1.265 . S
H91 C96 0.950 . S
H92 C100 0.949 . S
H93 C101 0.950 . S
H94 C102 0.951 . S
H95 C103 0.951 . S
C96 C90 1.265 . S
C96 H91 0.950 . S
C96 C97 1.478 . S
C97 C84 1.394 . S
C97 C96 1.478 . S
C97 C98 1.397 . S
C98 C97 1.397 . S
C98 C99 1.438 . S
C98 C103 1.429 . S
C99 C82 1.394 . S
C99 C98 1.438 . S
C99 C100 1.428 . S
C100 H92 0.949 . S
C100 C99 1.428 . S
C100 C101 1.345 . S
C101 H93 0.950 . S
C101 C100 1.345 . S
C101 C102 1.424 . S
C102 H94 0.951 . S
C102 C101 1.424 . S
C102 C103 1.347 . S
C103 H95 0.951 . S
C103 C98 1.429 . S
C103 C102 1.347 . S
H104 C105 0.951 . S
C105 H104 0.951 . S
C105 C111 1.265 . S
H106 C111 0.950 . S
H107 C115 0.949 . S
H108 C116 0.950 . S
H109 C117 0.951 . S
H110 C118 0.951 . S
C111 C105 1.265 . S
C111 H106 0.950 . S
C111 C112 1.478 . S
C112 C111 1.478 . S
C112 C113 1.404 . S
C112 C129 1.394 . S
C113 C112 1.404 . S
C113 C114 1.430 1_654 S
C113 C118 1.429 . S
C114 C113 1.430 1_456 S
C114 C115 1.428 . S
C114 C127 1.394 . S
C115 H107 0.949 . S
C115 C114 1.428 . S
C115 C116 1.345 . S
C116 H108 0.950 . S
C116 C115 1.345 . S
C116 C117 1.424 1_455 S
C117 H109 0.951 . S
C117 C116 1.424 1_655 S
C117 C118 1.347 1_556 S
C118 H110 0.951 . S
C118 C113 1.429 . S
C118 C117 1.347 1_554 S
H119 C120 0.951 . S
C120 H119 0.951 . S
C120 C126 1.265 . S
H121 C126 0.950 . S
H122 C130 0.949 . S
H123 C131 0.950 . S
H124 C132 0.951 . S
H125 C133 0.951 . S
C126 C120 1.265 . S
C126 H121 0.950 . S
C126 C127 1.478 . S
C127 C114 1.394 . S
C127 C126 1.478 . S
C127 C128 1.404 . S
C128 C127 1.404 . S
C128 C129 1.430 1_456 S
C128 C133 1.429 . S
C129 C112 1.394 . S
C129 C128 1.430 1_654 S
C129 C130 1.428 . S
C130 H122 0.949 . S
C130 C129 1.428 . S
C130 C131 1.345 . S
C131 H123 0.950 . S
C131 C130 1.345 . S
C131 C132 1.424 1_655 S
C132 H124 0.951 . S
C132 C131 1.424 1_455 S
C132 C133 1.347 1_554 S
C133 H125 0.951 . S
C133 C128 1.429 . S
C133 C132 1.347 1_556 S
H134 C135 0.951 . S
C135 H134 0.951 . S
C135 C141 1.265 . S
H136 C141 0.950 . S
H137 C145 0.934 1_545 S
H138 C146 0.950 . S
H139 C147 0.951 . S
H140 C148 0.951 . S
C141 C135 1.265 . S
C141 H136 0.950 . S
C141 C142 1.478 . S
C142 C141 1.478 . S
C142 C143 1.397 . S
C142 C159 1.394 1_565 S
C143 C142 1.397 . S
C143 C144 1.438 1_565 S
C143 C148 1.429 . S
C144 C143 1.438 1_545 S
C144 C145 1.429 1_545 S
C144 C157 1.394 . S
C145 H137 0.934 1_565 S
C145 C144 1.429 1_565 S
C145 C146 1.358 . S
C146 H138 0.950 . S
C146 C145 1.358 . S
C146 C147 1.424 . S
C147 H139 0.951 . S
C147 C146 1.424 . S
C147 C148 1.347 . S
C148 H140 0.951 . S
C148 C143 1.429 . S
C148 C147 1.347 . S
H149 C150 0.951 . S
C150 H149 0.951 . S
C150 C156 1.265 . S
H151 C156 0.950 . S
H152 C160 0.949 1_565 S
H153 C161 0.950 . S
H154 C162 0.951 . S
H155 C163 0.951 . S
C156 C150 1.265 . S
C156 H151 0.950 . S
C156 C157 1.478 . S
C157 C144 1.394 . S
C157 C156 1.478 . S
C157 C158 1.397 . S
C158 C157 1.397 . S
C158 C159 1.438 . S
C158 C163 1.429 . S
C159 C142 1.394 1_545 S
C159 C158 1.438 . S
C159 C160 1.428 . S
C160 H152 0.949 1_545 S
C160 C159 1.428 . S
C160 C161 1.345 . S
C161 H153 0.950 . S
C161 C160 1.345 . S
C161 C162 1.424 . S
C162 H154 0.951 . S
C162 C161 1.424 . S
C162 C163 1.347 . S
C163 H155 0.951 . S
C163 C158 1.429 . S
C163 C162 1.347 . S
H164 C165 0.951 . S
C165 H164 0.951 . S
C165 C171 1.265 . S
H166 C171 0.950 . S
H167 C175 0.949 . S
H168 C176 0.950 . S
H169 C177 0.951 . S
H170 C178 0.951 . S
C171 C165 1.265 . S
C171 H166 0.950 . S
C171 C172 1.478 . S
C172 C171 1.478 . S
C172 C173 1.397 . S
C172 C189 1.394 1_556 S
C173 C172 1.397 . S
C173 C174 1.438 . S
C173 C178 1.429 . S
C174 C173 1.438 . S
C174 C175 1.428 . S
C174 C187 1.394 1_556 S
C175 H167 0.949 . S
C175 C174 1.428 . S
C175 C176 1.345 . S
C176 H168 0.950 . S
C176 C175 1.345 . S
C176 C177 1.424 . S
C177 H169 0.951 . S
C177 C176 1.424 . S
C177 C178 1.347 . S
C178 H170 0.951 . S
C178 C173 1.429 . S
C178 C177 1.347 . S
H179 C180 0.951 . S
C180 H179 0.951 . S
C180 C186 1.265 . S
H181 C186 0.950 . S
H182 C190 0.949 . S
H183 C191 0.950 . S
H184 C192 0.951 . S
H185 C193 0.951 . S
C186 C180 1.265 . S
C186 H181 0.950 . S
C186 C187 1.478 . S
C187 C174 1.394 1_554 S
C187 C186 1.478 . S
C187 C188 1.397 . S
C188 C187 1.397 . S
C188 C189 1.438 . S
C188 C193 1.429 . S
C189 C172 1.394 1_554 S
C189 C188 1.438 . S
C189 C190 1.428 . S
C190 H182 0.949 . S
C190 C189 1.428 . S
C190 C191 1.345 . S
C191 H183 0.950 . S
C191 C190 1.345 . S
C191 C192 1.424 . S
C192 H184 0.951 . S
C192 C191 1.424 . S
C192 C193 1.347 . S
C193 H185 0.951 . S
C193 C188 1.429 . S
C193 C192 1.347 . S
H194 C195 0.951 . S
C195 H194 0.951 . S
C195 C201 1.265 . S
H196 C201 0.950 . S
H197 C205 0.949 . S
H198 C206 0.950 . S
H199 C207 0.951 . S
H200 C208 0.951 1_455 S
C201 C195 1.265 . S
C201 H196 0.950 . S
C201 C202 1.478 . S
C202 C201 1.478 . S
C202 C203 1.397 1_455 S
C202 C219 1.394 . S
C203 C202 1.397 1_655 S
C203 C204 1.438 . S
C203 C208 1.429 . S
C204 C203 1.438 . S
C204 C205 1.428 . S
C204 C217 1.394 . S
C205 H197 0.949 . S
C205 C204 1.428 . S
C205 C206 1.345 . S
C206 H198 0.950 . S
C206 C205 1.345 . S
C206 C207 1.424 . S
C207 H199 0.951 . S
C207 C206 1.424 . S
C207 C208 1.347 . S
C208 H200 0.951 1_655 S
C208 C203 1.429 . S
C208 C207 1.347 . S
H209 C210 0.951 . S
C210 H209 0.951 . S
C210 C216 1.265 . S
H211 C216 0.950 . S
H212 C220 0.949 . S
H213 C221 0.950 . S
H214 C222 0.951 . S
H215 C223 0.951 . S
C216 C210 1.265 . S
C216 H211 0.950 . S
C216 C217 1.478 . S
C217 C204 1.394 . S
C217 C216 1.478 . S
C217 C218 1.397 . S
C218 C217 1.397 . S
C218 C219 1.438 1_655 S
C218 C223 1.429 . S
C219 C202 1.394 . S
C219 C218 1.438 1_455 S
C219 C220 1.428 . S
C220 H212 0.949 . S
C220 C219 1.428 . S
C220 C221 1.345 . S
C221 H213 0.950 . S
C221 C220 1.345 . S
C221 C222 1.424 . S
C222 H214 0.951 . S
C222 C221 1.424 . S
C222 C223 1.347 1_455 S
C223 H215 0.951 . S
C223 C218 1.429 . S
C223 C222 1.347 1_655 S
C45 C29 1.490 . S
C60 C18 1.489 . S
C75 C30 1.480 . S
C90 C21 1.466 . S
C105 C10 1.479 . S
C120 C37 1.455 . S
C135 C40 1.480 . S
C150 C7 1.467 . S
C165 C43 1.472 . S
C180 C8 1.482 . S
C195 C32 1.496 . S
C210 C15 1.499 . S
