# Generated by pormake.
# Topology sma, (6)-cn, num edge types: 1
# Building blocks:
#     Node 0, Type 0, BuildingBlock: BETDIP_clean_sbu_0, # of connection points: 6
#     Node 1, Type 0, BuildingBlock: BETDIP_clean_sbu_0, # of connection points: 6
#     Node 2, Type 0, BuildingBlock: BETDIP_clean_sbu_0, # of connection points: 6
#     Edge 3, Type (0, 0), BuildingBlock: AJUNOK_clean_linker_0, # of connection points: 2
#     Edge 4, Type (0, 0), BuildingBlock: AJUNOK_clean_linker_0, # of connection points: 2
#     Edge 5, Type (0, 0), BuildingBlock: AJUNOK_clean_linker_0, # of connection points: 2
#     Edge 6, Type (0, 0), BuildingBlock: AJUNOK_clean_linker_0, # of connection points: 2
#     Edge 7, Type (0, 0), BuildingBlock: AJUNOK_clean_linker_0, # of connection points: 2
#     Edge 8, Type (0, 0), BuildingBlock: AJUNOK_clean_linker_0, # of connection points: 2
#     Edge 9, Type (0, 0), BuildingBlock: AJUNOK_clean_linker_0, # of connection points: 2
#     Edge 10, Type (0, 0), BuildingBlock: AJUNOK_clean_linker_0, # of connection points: 2
#     Edge 11, Type (0, 0), BuildingBlock: AJUNOK_clean_linker_0, # of connection points: 2
# Relax obj value: 0.055
# Max RMSD: 0.159
# Mean RMSD: 0.159
data_MOF--net-sma--node1-BETDIP_clean_sbu_0--edge1-AJUNOK_clean_linker_0
_symmetry_space_group_name_H-M    P1
_symmetry_Int_Tables_number       1
_symmetry_cell_setting            triclinic
loop_
_symmetry_equiv_pos_as_xyz
'x, y, z'
_cell_length_a     31.831833
_cell_length_b     31.669991
_cell_length_c     10.284998
_cell_angle_alpha  89.689104
_cell_angle_beta   89.994685
_cell_angle_gamma 120.40582
loop_
_atom_site_label
_atom_site_type_symbol
_atom_site_fract_x
_atom_site_fract_y
_atom_site_fract_z
_atom_type_partial_charge
Tb0 Tb 0.09504 0.60258 0.04982 0.0
Tb1 Tb 1.03609 0.4933 0.03276 0.0
C2 C 0.15225 0.69001 0.1168 0.0
C3 C 0.20281 0.72458 0.15994 0.0
C4 C 0.21569 0.7295 0.29228 0.0
C5 C 0.26149 0.76706 0.3333 0.0
C6 C 0.2952 0.80065 0.24302 0.0
C7 C 0.28271 0.79496 0.11068 0.0
C8 C 0.23713 0.75748 0.0697 0.0
C9 C 1.06457 0.56941 0.81406 0.0
C10 C 0.14748 0.54142 0.00435 0.0
C11 C 0.97594 0.4037 -0.00359 0.0
C12 C 0.93316 0.3662 0.06891 0.0
C13 C 0.91126 0.37951 0.16654 0.0
C14 C 0.87014 0.34358 0.23331 0.0
C15 C 0.85049 0.29368 0.2045 0.0
C16 C 0.87286 0.2806 0.10733 0.0
C17 C 0.91384 0.31655 0.04031 0.0
C18 C 1.06347 0.52851 0.26965 0.0
C19 C 0.98262 0.55587 0.025 0.0
O20 O 0.12262 0.65552 0.19732 0.0
O21 O 0.14637 0.67465 -0.00327 0.0
O22 O 0.07888 0.55025 0.89751 0.0
O23 O 0.07234 0.61113 0.85672 0.0
O24 O 0.14996 0.57953 0.06474 0.0
O25 O 0.10548 0.50626 -0.04174 0.0
O26 O 1.01801 0.41988 0.05316 0.0
O27 O 0.97176 0.43927 0.94556 0.0
O28 O 1.04934 0.54573 0.1814 0.0
O29 O 1.05736 0.4873 0.23051 0.0
O30 O 0.9809 0.51395 0.00251 0.0
O31 O 1.02333 0.59528 0.0625 0.0
H32 H 0.18986 0.70543 0.3648 0.0
H33 H 0.26975 0.77099 0.4362 0.0
H34 H 0.30799 0.82016 0.03883 0.0
H35 H 0.22821 0.75531 -0.0326 0.0
H36 H 0.92578 0.41771 0.19042 0.0
H37 H 0.85367 0.35476 0.30751 0.0
H38 H 0.85798 0.2426 0.08093 0.0
H39 H 0.93018 0.30558 -0.03483 0.0
Tb40 Tb 0.59167 1.02064 0.43526 0.0
Tb41 Tb 0.55075 0.08715 0.40516 0.0
C42 C 0.63216 0.97596 0.52458 0.0
C43 C 0.61856 0.92644 0.56957 0.0
C44 C 0.5758 0.8848 0.52689 0.0
C45 C 0.56615 0.83787 0.56201 0.0
C46 C 0.59905 0.83198 0.64064 0.0
C47 C 0.64088 0.87394 0.68655 0.0
C48 C 0.6505 0.92067 0.65133 0.0
C49 C 0.57374 1.03342 0.19339 0.0
C50 C 0.48117 0.97137 0.38893 0.0
C51 C 0.50926 0.13569 0.36409 0.0
C52 C 0.51852 0.18299 0.41578 0.0
C53 C 0.48828 0.20155 0.38169 0.0
C54 C 0.49595 0.24547 0.43559 0.0
C55 C 0.53393 0.27151 0.52488 0.0
C56 C 0.56382 0.25239 0.55943 0.0
C57 C 0.55645 0.20886 0.5046 0.0
C58 C 0.5719 0.07432 0.64424 0.0
C59 C 0.66411 0.13729 0.40211 0.0
O60 O 0.61811 1.00044 0.59708 0.0
O61 O 0.62668 0.98091 0.40042 0.0
O62 O 0.58979 0.06511 0.28164 0.0
O63 O 0.57023 0.99323 0.2373 0.0
O64 O 0.51498 0.96606 0.44869 0.0
O65 O 0.49038 1.01495 0.34656 0.0
O66 O 0.54296 0.13729 0.28765 0.0
O67 O 0.49424 0.10038 0.45015 0.0
O68 O 0.55238 1.04214 0.55833 0.0
O69 O 0.5784 0.1152 0.59868 0.0
O70 O 0.62641 0.14262 0.37581 0.0
O71 O 0.65813 0.09409 0.43717 0.0
H72 H 0.55068 0.88855 0.46352 0.0
H73 H 0.534 0.80629 0.52349 0.0
H74 H 0.66672 0.87056 0.74785 0.0
H75 H 0.6836 0.95238 0.68543 0.0
H76 H 0.45866 0.18199 0.31382 0.0
H77 H 0.47242 0.25932 0.40656 0.0
H78 H 0.59264 0.27078 0.6301 0.0
H79 H 0.58016 0.19519 0.53261 0.0
Tb80 Tb 0.51802 0.52359 0.76495 0.0
Tb81 Tb 0.6257 0.57397 0.72331 0.0
C82 C 0.43516 0.49382 0.86408 0.0
C83 C 0.39617 0.50588 0.87651 0.0
C84 C 0.40531 0.55215 0.91678 0.0
C85 C 0.3667 0.5611 0.93269 0.0
C86 C 0.31839 0.52392 0.90892 0.0
C87 C 0.30957 0.4776 0.87043 0.0
C88 C 0.34801 0.46882 0.85385 0.0
C89 C 0.54469 0.53256 0.51831 0.0
C90 C 0.5791 0.64005 0.72415 0.0
C91 C 0.71243 0.60166 0.66149 0.0
C92 C 0.75097 0.59488 0.72152 0.0
C93 C 0.77115 0.57143 0.65162 0.0
C94 C 0.80693 0.56392 0.70773 0.0
C95 C 0.82336 0.57984 0.83491 0.0
C96 C 0.80358 0.60378 0.9044 0.0
C97 C 0.76756 0.61099 0.8487 0.0
C98 C 0.59826 0.5619 -0.02993 0.0
C99 C 0.56226 0.45754 0.71577 0.0
O100 O 0.47619 0.52142 0.92524 0.0
O101 O 0.44193 0.48111 0.74866 0.0
O102 O 0.56613 0.56333 0.60684 0.0
O103 O 0.50363 0.49757 0.56337 0.0
O104 O 0.53924 0.60184 0.7729 0.0
O105 O 0.61489 0.63482 0.67701 0.0
O106 O 0.69932 0.62883 0.72479 0.0
O107 O 0.67495 0.5625 0.61394 0.0
O108 O 0.57745 0.5318 0.87988 0.0
O109 O 0.6381 0.59788 0.92503 0.0
O110 O 0.60194 0.49785 0.67725 0.0
O111 O 0.52646 0.4595 0.77547 0.0
H112 H 0.44208 0.58116 0.93707 0.0
H113 H 0.3746 0.59708 -0.03691 0.0
H114 H 0.27274 0.44772 0.8552 0.0
H115 H 0.33999 0.43262 0.82505 0.0
H116 H 0.75914 0.55878 0.55352 0.0
H117 H 0.82214 0.54607 0.65111 0.0
H118 H 0.81554 0.61633 0.00258 0.0
H119 H 0.75263 0.629 0.90574 0.0
C120 C 0.23117 0.55854 0.06452 0.0
C121 C 0.19248 0.54028 -0.02472 0.0
C122 C 0.27253 0.55446 0.04107 0.0
C123 C 0.2768 0.53244 0.92691 0.0
H124 H 0.22876 0.57461 0.15492 0.0
H125 H 0.30061 0.56721 0.11468 0.0
S126 S 0.18916 0.48661 0.65287 0.0
N127 N 0.16337 0.5042 0.76247 0.0
N128 N 0.24128 0.4977 0.71711 0.0
C129 C 0.23947 0.5166 0.83396 0.0
C130 C 0.19729 0.52021 0.85845 0.0
C131 C 0.71923 0.22336 0.32339 0.0
C132 C 0.71381 0.17893 0.37063 0.0
C133 C 0.76389 0.26082 0.27438 0.0
C134 C 0.80513 0.25553 0.26994 0.0
H135 H 0.68831 0.22885 0.3198 0.0
H136 H 0.76557 0.29341 0.2348 0.0
S137 S 0.81279 0.1496 0.39541 0.0
N138 N 0.75543 0.13401 0.41981 0.0
N139 N 0.83921 0.20459 0.32791 0.0
C140 C 0.8011 0.21252 0.32248 0.0
C141 C 0.7556 0.1743 0.37301 0.0
C142 C 0.63148 0.77481 0.64458 0.0
C143 C 0.59236 0.78265 0.66642 0.0
C144 C 0.62667 0.72884 0.66495 0.0
C145 C 0.58251 0.68847 0.70848 0.0
H146 H 0.66608 0.80436 0.60922 0.0
H147 H 0.65807 0.72509 0.6455 0.0
S148 S 0.46914 0.69005 0.78387 0.0
N149 N 0.50821 0.74669 0.73707 0.0
N150 N 0.49881 0.65988 0.77451 0.0
C151 C 0.54307 0.69587 0.73197 0.0
C152 C 0.54802 0.74293 0.71079 0.0
C153 C 0.90372 0.61157 0.94763 0.0
C154 C 0.86153 0.57202 0.89416 0.0
C155 C 0.94182 0.60565 -0.0048 0.0
C156 C 0.93908 0.55982 -0.00787 0.0
H157 H 0.90806 0.64778 0.94856 0.0
H158 H 0.97427 0.63767 0.03074 0.0
S159 S 0.83309 0.44329 0.8765 0.0
N160 N 0.81713 0.48478 0.85119 0.0
N161 N 0.88801 0.4731 0.94096 0.0
C162 C 0.89575 0.51942 0.94475 0.0
C163 C 0.85725 0.52567 0.89552 0.0
C164 C 0.39998 0.93169 0.27776 0.0
C165 C 0.43309 0.92724 0.3594 0.0
C166 C 0.35562 0.89069 0.24167 0.0
C167 C 0.34216 0.84338 0.28615 0.0
H168 H 0.40851 0.96709 0.23944 0.0
H169 H 0.33154 0.89613 0.17836 0.0
S170 S 0.41499 0.81106 0.50267 0.0
N171 N 0.44859 0.87106 0.48511 0.0
N172 N 0.36527 0.79422 0.41642 0.0
C173 C 0.37438 0.83825 0.36926 0.0
C174 C 0.41979 0.88004 0.40584 0.0
C175 C 0.51012 0.36698 0.6782 0.0
C176 C 0.55662 0.4094 0.68023 0.0
C177 C 0.50317 0.32254 0.62919 0.0
C178 C 0.54245 0.31857 0.58102 0.0
H179 H 0.4785 0.36836 0.71092 0.0
H180 H 0.46662 0.29106 0.62835 0.0
S181 S 0.67198 0.41813 0.56929 0.0
N182 N 0.64305 0.44378 0.63463 0.0
N183 N 0.62973 0.36085 0.54049 0.0
C184 C 0.58931 0.36035 0.58555 0.0
C185 C 0.59644 0.40553 0.63553 0.0
C186 C 0.09828 0.59376 0.59131 0.0
C187 C 1.06259 0.55896 0.67527 0.0
C188 C 0.09836 0.58377 0.45892 0.0
C189 C 1.06246 0.53901 0.40735 0.0
H190 H 0.1269 0.62839 0.62877 0.0
H191 H 0.12729 0.6106 0.39768 0.0
S192 S 0.95913 0.43765 0.58524 0.0
N193 N 0.98939 0.47941 0.69715 0.0
N194 N 0.98929 0.46053 0.44781 0.0
C195 C 1.0262 0.50432 0.4899 0.0
C196 C 1.02629 0.5144 0.62444 0.0
C197 C 0.55306 1.00645 -0.03676 0.0
C198 C 0.5736 1.04466 0.05412 0.0
C199 C 0.55334 1.01626 0.83003 0.0
C200 C 0.57434 0.06462 0.78351 0.0
H201 H 0.53635 0.96868 -0.0047 0.0
H202 H 0.53648 0.98574 0.76341 0.0
S203 S 0.63562 0.17781 -0.01926 0.0
N204 N 0.6172 0.13278 0.0876 0.0
N205 N 0.61795 0.15116 0.83776 0.0
C206 C 0.59573 0.10316 0.87313 0.0
C207 C 0.59524 0.09319 0.00848 0.0
C208 C 0.52986 0.50517 0.28604 0.0
C209 C 0.55955 0.53977 0.37967 0.0
C210 C 0.54263 0.51207 0.15349 0.0
C211 C 0.58534 0.55401 0.11001 0.0
H212 H 0.49637 0.47261 0.31516 0.0
H213 H 0.5188 0.48452 0.08481 0.0
S214 S 0.67686 0.65426 0.31693 0.0
N215 N 0.6347 0.61625 0.41979 0.0
N216 N 0.65819 0.62976 0.17203 0.0
C217 C 0.61567 0.58842 0.20307 0.0
C218 C 0.60291 0.58118 0.33757 0.0
loop_
_geom_bond_atom_site_label_1
_geom_bond_atom_site_label_2
_geom_bond_distance
_geom_bond_site_symmetry_2
_ccdc_geom_bond_type
Tb0 C2 2.809 . S
Tb0 O20 2.484 . S
Tb0 O21 2.440 . S
Tb0 O22 2.658 1_455 S
Tb0 O23 2.409 1_554 S
Tb0 O24 2.378 . S
Tb0 O28 2.325 . S
Tb0 O31 2.341 1_455 S
Tb1 C11 2.809 . S
Tb1 O22 2.325 . S
Tb1 O25 2.341 1_655 S
Tb1 O26 2.484 . S
Tb1 O27 2.440 . S
Tb1 O28 2.658 1_655 S
Tb1 O29 2.409 . S
Tb1 O30 2.378 . S
C2 Tb0 2.809 . S
C2 C3 1.514 . S
C2 O20 1.248 . S
C2 O21 1.266 . S
C3 C2 1.514 . S
C3 C4 1.359 . S
C3 C8 1.348 . S
C4 C3 1.359 . S
C4 C5 1.380 . S
C4 H32 0.929 . S
C5 C4 1.380 . S
C5 C6 1.347 . S
C5 H33 0.931 . S
C6 C5 1.347 . S
C6 C7 1.369 . S
C7 C6 1.369 . S
C7 C8 1.408 . S
C7 H34 0.930 . S
C8 C3 1.348 . S
C8 C7 1.408 . S
C8 H35 0.930 1_554 S
C9 O22 1.281 1_456 S
C9 O23 1.254 . S
C10 O24 1.236 . S
C10 O25 1.266 . S
C11 Tb1 2.809 . S
C11 C12 1.514 . S
C11 O26 1.248 . S
C11 O27 1.266 . S
C12 C11 1.514 . S
C12 C13 1.359 . S
C12 C17 1.348 . S
C13 C12 1.359 . S
C13 C14 1.380 . S
C13 H36 0.929 1_554 S
C14 C13 1.380 . S
C14 C15 1.347 . S
C14 H37 0.931 1_554 S
C15 C14 1.347 . S
C15 C16 1.369 . S
C16 C15 1.369 . S
C16 C17 1.408 . S
C16 H38 0.930 . S
C17 C12 1.348 . S
C17 C16 1.408 . S
C17 H39 0.930 . S
C18 O28 1.277 1_655 S
C18 O29 1.256 . S
C19 O30 1.236 . S
C19 O31 1.266 . S
O20 Tb0 2.484 . S
O20 C2 1.248 . S
O21 Tb0 2.440 . S
O21 C2 1.266 . S
O22 Tb0 2.658 1_655 S
O22 Tb1 2.325 . S
O22 C9 1.281 1_654 S
O23 Tb0 2.409 1_556 S
O23 C9 1.254 . S
O24 Tb0 2.378 . S
O24 C10 1.236 . S
O25 Tb1 2.341 1_455 S
O25 C10 1.266 . S
O26 Tb1 2.484 . S
O26 C11 1.248 . S
O27 Tb1 2.440 . S
O27 C11 1.266 . S
O28 Tb0 2.325 . S
O28 Tb1 2.658 1_455 S
O28 C18 1.277 1_455 S
O29 Tb1 2.409 . S
O29 C18 1.256 . S
O30 Tb1 2.378 . S
O30 C19 1.236 . S
O31 Tb0 2.341 1_655 S
O31 C19 1.266 . S
H32 C4 0.929 . S
H33 C5 0.931 . S
H34 C7 0.930 . S
H35 C8 0.930 1_556 S
H36 C13 0.929 1_556 S
H37 C14 0.931 1_556 S
H38 C16 0.930 . S
H39 C17 0.930 . S
Tb40 C42 2.809 . S
Tb40 O60 2.484 . S
Tb40 O61 2.440 . S
Tb40 O62 2.658 1_565 S
Tb40 O63 2.409 . S
Tb40 O64 2.378 . S
Tb40 O68 2.325 . S
Tb40 O71 2.341 1_565 S
Tb41 C51 2.809 . S
Tb41 O62 2.325 . S
Tb41 O65 2.341 1_545 S
Tb41 O66 2.484 . S
Tb41 O67 2.440 . S
Tb41 O68 2.658 1_545 S
Tb41 O69 2.409 . S
Tb41 O70 2.378 . S
C42 Tb40 2.809 . S
C42 C43 1.514 . S
C42 O60 1.248 . S
C42 O61 1.266 . S
C43 C42 1.514 . S
C43 C44 1.359 . S
C43 C48 1.348 . S
C44 C43 1.359 . S
C44 C45 1.380 . S
C44 H72 0.929 . S
C45 C44 1.380 . S
C45 C46 1.347 . S
C45 H73 0.931 . S
C46 C45 1.347 . S
C46 C47 1.369 . S
C47 C46 1.369 . S
C47 C48 1.408 . S
C47 H74 0.930 . S
C48 C43 1.348 . S
C48 C47 1.408 . S
C48 H75 0.930 . S
C49 O62 1.275 1_565 S
C49 O63 1.265 . S
C50 O64 1.236 . S
C50 O65 1.266 . S
C51 Tb41 2.809 . S
C51 C52 1.514 . S
C51 O66 1.248 . S
C51 O67 1.266 . S
C52 C51 1.514 . S
C52 C53 1.359 . S
C52 C57 1.348 . S
C53 C52 1.359 . S
C53 C54 1.380 . S
C53 H76 0.929 . S
C54 C53 1.380 . S
C54 C55 1.347 . S
C54 H77 0.931 . S
C55 C54 1.347 . S
C55 C56 1.369 . S
C56 C55 1.369 . S
C56 C57 1.408 . S
C56 H78 0.930 . S
C57 C52 1.348 . S
C57 C56 1.408 . S
C57 H79 0.930 . S
C58 O68 1.281 1_545 S
C58 O69 1.254 . S
C59 O70 1.236 . S
C59 O71 1.266 . S
O60 Tb40 2.484 . S
O60 C42 1.248 . S
O61 Tb40 2.440 . S
O61 C42 1.266 . S
O62 Tb40 2.658 1_545 S
O62 Tb41 2.325 . S
O62 C49 1.275 1_545 S
O63 Tb40 2.409 . S
O63 C49 1.265 . S
O64 Tb40 2.378 . S
O64 C50 1.236 . S
O65 Tb41 2.341 1_565 S
O65 C50 1.266 . S
O66 Tb41 2.484 . S
O66 C51 1.248 . S
O67 Tb41 2.440 . S
O67 C51 1.266 . S
O68 Tb40 2.325 . S
O68 Tb41 2.658 1_565 S
O68 C58 1.281 1_565 S
O69 Tb41 2.409 . S
O69 C58 1.254 . S
O70 Tb41 2.378 . S
O70 C59 1.236 . S
O71 Tb40 2.341 1_545 S
O71 C59 1.266 . S
H72 C44 0.929 . S
H73 C45 0.931 . S
H74 C47 0.930 . S
H75 C48 0.930 . S
H76 C53 0.929 . S
H77 C54 0.931 . S
H78 C56 0.930 . S
H79 C57 0.930 . S
Tb80 C82 2.809 . S
Tb80 O100 2.484 . S
Tb80 O101 2.440 . S
Tb80 O102 2.658 . S
Tb80 O103 2.409 . S
Tb80 O104 2.378 . S
Tb80 O108 2.325 . S
Tb80 O111 2.341 . S
Tb81 C91 2.809 . S
Tb81 O102 2.325 . S
Tb81 O105 2.341 . S
Tb81 O106 2.484 . S
Tb81 O107 2.440 . S
Tb81 O108 2.658 . S
Tb81 O109 2.409 1_556 S
Tb81 O110 2.378 . S
C82 Tb80 2.809 . S
C82 C83 1.514 . S
C82 O100 1.248 . S
C82 O101 1.266 . S
C83 C82 1.514 . S
C83 C84 1.359 . S
C83 C88 1.348 . S
C84 C83 1.359 . S
C84 C85 1.380 . S
C84 H112 0.929 1_556 S
C85 C84 1.380 . S
C85 C86 1.347 . S
C85 H113 0.931 1_556 S
C86 C85 1.347 . S
C86 C87 1.369 . S
C87 C86 1.369 . S
C87 C88 1.408 . S
C87 H114 0.930 . S
C88 C83 1.348 . S
C88 C87 1.408 . S
C88 H115 0.930 . S
C89 O102 1.281 . S
C89 O103 1.254 . S
C90 O104 1.236 . S
C90 O105 1.266 . S
C91 Tb81 2.809 . S
C91 C92 1.514 . S
C91 O106 1.248 . S
C91 O107 1.266 . S
C92 C91 1.514 . S
C92 C93 1.359 . S
C92 C97 1.348 . S
C93 C92 1.359 . S
C93 C94 1.380 . S
C93 H116 0.929 . S
C94 C93 1.380 . S
C94 C95 1.347 . S
C94 H117 0.931 . S
C95 C94 1.347 . S
C95 C96 1.369 . S
C96 C95 1.369 . S
C96 C97 1.408 . S
C96 H118 0.930 . S
C97 C92 1.348 . S
C97 C96 1.408 . S
C97 H119 0.930 1_556 S
C98 O108 1.281 1_554 S
C98 O109 1.254 . S
C99 O110 1.236 . S
C99 O111 1.266 . S
O100 Tb80 2.484 . S
O100 C82 1.248 . S
O101 Tb80 2.440 . S
O101 C82 1.266 . S
O102 Tb80 2.658 . S
O102 Tb81 2.325 . S
O102 C89 1.281 . S
O103 Tb80 2.409 . S
O103 C89 1.254 . S
O104 Tb80 2.378 . S
O104 C90 1.236 . S
O105 Tb81 2.341 . S
O105 C90 1.266 . S
O106 Tb81 2.484 . S
O106 C91 1.248 . S
O107 Tb81 2.440 . S
O107 C91 1.266 . S
O108 Tb80 2.325 . S
O108 Tb81 2.658 . S
O108 C98 1.281 1_556 S
O109 Tb81 2.409 1_554 S
O109 C98 1.254 . S
O110 Tb81 2.378 . S
O110 C99 1.236 . S
O111 Tb80 2.341 . S
O111 C99 1.266 . S
H112 C84 0.929 1_554 S
H113 C85 0.931 1_554 S
H114 C87 0.930 . S
H115 C88 0.930 . S
H116 C93 0.929 . S
H117 C94 0.931 . S
H118 C96 0.930 . S
H119 C97 0.930 1_554 S
C120 C121 1.369 . S
C120 C122 1.419 . S
C120 H124 0.930 . S
C121 C120 1.369 . S
C121 C130 1.429 1_554 S
C122 C120 1.419 . S
C122 C123 1.363 1_554 S
C122 H125 0.929 . S
C123 C122 1.363 1_556 S
C123 C129 1.428 . S
H124 C120 0.930 . S
H125 C122 0.929 . S
S126 N127 1.613 . S
S126 N128 1.610 . S
N127 S126 1.613 . S
N127 C130 1.350 . S
N128 S126 1.610 . S
N128 C129 1.351 . S
C129 C123 1.428 . S
C129 N128 1.351 . S
C129 C130 1.434 . S
C130 C121 1.429 1_556 S
C130 N127 1.350 . S
C130 C129 1.434 . S
C131 C132 1.369 . S
C131 C133 1.419 . S
C131 H135 0.930 . S
C132 C131 1.369 . S
C132 C141 1.429 . S
C133 C131 1.419 . S
C133 C134 1.363 . S
C133 H136 0.929 . S
C134 C133 1.363 . S
C134 C140 1.428 . S
H135 C131 0.930 . S
H136 C133 0.929 . S
S137 N138 1.613 . S
S137 N139 1.610 . S
N138 S137 1.613 . S
N138 C141 1.350 . S
N139 S137 1.610 . S
N139 C140 1.351 . S
C140 C134 1.428 . S
C140 N139 1.351 . S
C140 C141 1.434 . S
C141 C132 1.429 . S
C141 N138 1.350 . S
C141 C140 1.434 . S
C142 C143 1.369 . S
C142 C144 1.419 . S
C142 H146 0.930 . S
C143 C142 1.369 . S
C143 C152 1.429 . S
C144 C142 1.419 . S
C144 C145 1.363 . S
C144 H147 0.929 . S
C145 C144 1.363 . S
C145 C151 1.428 . S
H146 C142 0.930 . S
H147 C144 0.929 . S
S148 N149 1.613 . S
S148 N150 1.610 . S
N149 S148 1.613 . S
N149 C152 1.350 . S
N150 S148 1.610 . S
N150 C151 1.351 . S
C151 C145 1.428 . S
C151 N150 1.351 . S
C151 C152 1.434 . S
C152 C143 1.429 . S
C152 N149 1.350 . S
C152 C151 1.434 . S
C153 C154 1.369 . S
C153 C155 1.419 1_556 S
C153 H157 0.930 1_556 S
C154 C153 1.369 . S
C154 C163 1.429 . S
C155 C153 1.419 1_554 S
C155 C156 1.363 . S
C155 H158 0.929 . S
C156 C155 1.363 . S
C156 C162 1.428 1_554 S
H157 C153 0.930 1_554 S
H158 C155 0.929 . S
S159 N160 1.613 . S
S159 N161 1.610 . S
N160 S159 1.613 . S
N160 C163 1.350 . S
N161 S159 1.610 . S
N161 C162 1.351 . S
C162 C156 1.428 1_556 S
C162 N161 1.351 . S
C162 C163 1.434 . S
C163 C154 1.429 . S
C163 N160 1.350 . S
C163 C162 1.434 . S
C164 C165 1.369 . S
C164 C166 1.419 . S
C164 H168 0.930 . S
C165 C164 1.369 . S
C165 C174 1.429 . S
C166 C164 1.419 . S
C166 C167 1.363 . S
C166 H169 0.929 . S
C167 C166 1.363 . S
C167 C173 1.428 . S
H168 C164 0.930 . S
H169 C166 0.929 . S
S170 N171 1.613 . S
S170 N172 1.610 . S
N171 S170 1.613 . S
N171 C174 1.350 . S
N172 S170 1.610 . S
N172 C173 1.351 . S
C173 C167 1.428 . S
C173 N172 1.351 . S
C173 C174 1.434 . S
C174 C165 1.429 . S
C174 N171 1.350 . S
C174 C173 1.434 . S
C175 C176 1.369 . S
C175 C177 1.419 . S
C175 H179 0.930 . S
C176 C175 1.369 . S
C176 C185 1.429 . S
C177 C175 1.419 . S
C177 C178 1.363 . S
C177 H180 0.929 . S
C178 C177 1.363 . S
C178 C184 1.428 . S
H179 C175 0.930 . S
H180 C177 0.929 . S
S181 N182 1.613 . S
S181 N183 1.610 . S
N182 S181 1.613 . S
N182 C185 1.350 . S
N183 S181 1.610 . S
N183 C184 1.351 . S
C184 C178 1.428 . S
C184 N183 1.351 . S
C184 C185 1.434 . S
C185 C176 1.429 . S
C185 N182 1.350 . S
C185 C184 1.434 . S
C186 C187 1.369 1_455 S
C186 C188 1.419 . S
C186 H190 0.930 . S
C187 C186 1.369 1_655 S
C187 C196 1.429 . S
C188 C186 1.419 . S
C188 C189 1.363 . S
C188 H191 0.929 . S
C189 C188 1.363 . S
C189 C195 1.428 1_455 S
H190 C186 0.930 . S
H191 C188 0.929 . S
S192 N193 1.613 . S
S192 N194 1.610 . S
N193 S192 1.613 . S
N193 C196 1.350 . S
N194 S192 1.610 . S
N194 C195 1.351 . S
C195 C189 1.428 1_655 S
C195 N194 1.351 . S
C195 C196 1.434 . S
C196 C187 1.429 . S
C196 N193 1.350 . S
C196 C195 1.434 . S
C197 C198 1.369 1_565 S
C197 C199 1.419 1_554 S
C197 H201 0.930 . S
C198 C197 1.369 1_545 S
C198 C207 1.429 . S
C199 C197 1.419 1_556 S
C199 C200 1.363 . S
C199 H202 0.929 . S
C200 C199 1.363 . S
C200 C206 1.428 1_565 S
H201 C197 0.930 . S
H202 C199 0.929 . S
S203 N204 1.613 . S
S203 N205 1.610 1_554 S
N204 S203 1.613 . S
N204 C207 1.350 . S
N205 S203 1.610 1_556 S
N205 C206 1.351 . S
C206 C200 1.428 1_545 S
C206 N205 1.351 . S
C206 C207 1.434 1_556 S
C207 C198 1.429 . S
C207 N204 1.350 . S
C207 C206 1.434 1_554 S
C208 C209 1.369 . S
C208 C210 1.419 . S
C208 H212 0.930 . S
C209 C208 1.369 . S
C209 C218 1.429 . S
C210 C208 1.419 . S
C210 C211 1.363 . S
C210 H213 0.929 . S
C211 C210 1.363 . S
C211 C217 1.428 . S
H212 C208 0.930 . S
H213 C210 0.929 . S
S214 N215 1.613 . S
S214 N216 1.610 . S
N215 S214 1.613 . S
N215 C218 1.350 . S
N216 S214 1.610 . S
N216 C217 1.351 . S
C217 C211 1.428 . S
C217 N216 1.351 . S
C217 C218 1.434 . S
C218 C209 1.429 . S
C218 N215 1.350 . S
C218 C217 1.434 . S
C121 C10 1.801 . S
C123 C86 1.870 . S
C132 C59 2.201 . S
C134 C15 2.105 . S
C143 C46 1.865 . S
C145 C90 1.808 . S
C154 C95 2.111 . S
C156 C19 2.198 . S
C165 C50 1.804 . S
C167 C6 1.870 . S
C176 C99 2.200 . S
C178 C55 2.108 . S
C187 C9 0.782 1_655 S
C189 C18 0.766 1_455 S
C198 C49 0.762 1_545 S
C200 C58 0.776 1_565 S
C209 C89 0.761 . S
C211 C98 0.779 . S
