# Generated by pormake.
# Topology pcu, (6)-cn, num edge types: 1
# Building blocks:
#     Node 0, Type 0, BuildingBlock: BETGAK_clean_sbu_0, # of connection points: 6
#     Edge 1, Type (0, 0), BuildingBlock: OJICUG_clean_linker_0, # of connection points: 2
#     Edge 2, Type (0, 0), BuildingBlock: OJICUG_clean_linker_0, # of connection points: 2
#     Edge 3, Type (0, 0), BuildingBlock: OJICUG_clean_linker_0, # of connection points: 2
# Relax obj value: 0.000
# Max RMSD: 0.000
# Mean RMSD: 0.000
data_MOF--net-pcu--node1-BETGAK_clean_sbu_0--edge1-OJICUG_clean_linker_0
_symmetry_space_group_name_H-M    P1
_symmetry_Int_Tables_number       1
_symmetry_cell_setting            triclinic
loop_
_symmetry_equiv_pos_as_xyz
'x, y, z'
_cell_length_a     11.339105
_cell_length_b     20.959254
_cell_length_c     10.138173
_cell_angle_alpha  99.671711
_cell_angle_beta   88.140075
_cell_angle_gamma 121.25376
loop_
_atom_site_label
_atom_site_type_symbol
_atom_site_fract_x
_atom_site_fract_y
_atom_site_fract_z
_atom_type_partial_charge
La0 La 0.11814 0.12146 0.04574 0.0
La1 La 0.95029 0.95282 1.04269 0.0
C2 C 0.21719 0.25279 0.99256 0.0
C3 C 0.17608 0.30927 1.00187 0.0
C4 C 0.06091 0.30063 0.07107 0.0
C5 C 1.02504 0.3558 0.08066 0.0
C6 C 0.10376 0.42052 1.02111 0.0
C7 C 0.21858 0.42839 0.95122 0.0
C8 C 0.25426 0.37324 0.94177 0.0
C9 C 0.08263 0.08082 0.28301 0.0
C10 C 0.78708 1.0347 0.04587 0.0
C11 C 0.85105 0.82134 0.09521 0.0
C12 C 0.89241 0.76497 0.08621 0.0
C13 C 1.00771 0.77369 1.0172 0.0
C14 C 0.04372 0.71857 1.00776 0.0
C15 C 0.96501 0.65385 0.06729 0.0
C16 C 0.85009 0.64592 0.13705 0.0
C17 C 0.81427 0.701 0.14634 0.0
C18 C 0.98589 0.99383 0.80558 0.0
C19 C 0.28132 0.03959 1.04283 0.0
O20 O 0.2425 0.23931 0.10645 0.0
O21 O 0.14435 0.19037 0.90538 0.0
O22 O 0.19233 0.14016 0.25378 0.0
O23 O 0.99473 0.05047 0.18498 0.0
O24 O 0.90402 0.09462 1.02049 0.0
O25 O 0.78436 0.97527 0.07758 0.0
O26 O 0.82651 0.835 0.98119 0.0
O27 O 0.92318 0.88364 0.18285 0.0
O28 O 0.87602 0.93453 0.83469 0.0
O29 O 0.07364 1.02375 0.90365 0.0
O30 O 0.1644 0.9797 0.06832 0.0
O31 O 0.28403 0.09896 1.01092 0.0
H32 H 0.99922 0.25144 0.11801 0.0
H33 H 0.93502 0.34747 0.13374 0.0
H34 H 0.28248 0.47788 0.90571 0.0
H35 H 0.34372 0.38085 0.88826 0.0
H36 H 0.06938 0.82287 0.97025 0.0
H37 H 0.13382 0.72695 0.95478 0.0
H38 H 0.78621 0.59643 0.18255 0.0
H39 H 0.7247 0.69334 0.19972 0.0
C40 C 0.16465 0.09572 0.51846 0.0
C41 C 0.05793 0.05834 0.41643 0.0
H42 H 0.22571 0.10432 0.7218 0.0
C43 C 0.92736 0.99988 0.44348 0.0
H44 H 0.26635 0.14097 0.50025 0.0
C45 C 0.90406 0.97905 0.57023 0.0
C46 C 1.01077 1.01642 0.67226 0.0
H47 H 0.84299 0.97041 0.3669 0.0
H48 H 0.80236 0.9338 0.58841 0.0
C49 C 0.14135 0.07488 0.64522 0.0
C50 C 0.41057 0.97526 0.07399 0.0
C51 C 0.41068 0.03832 1.04361 0.0
H52 H 0.52871 0.92455 0.09843 0.0
C53 C 0.53575 0.10021 1.01412 0.0
H54 H 0.31621 0.92664 0.09739 0.0
C55 C 0.65784 0.09904 1.01481 0.0
C56 C 0.65773 1.03598 0.04518 0.0
H57 H 0.5397 0.14975 0.99036 0.0
H58 H 0.7522 0.14766 0.99141 0.0
C59 C 0.53267 0.97409 0.07469 0.0
C60 C 0.0435 0.57143 0.93421 0.0
C61 C 1.00143 0.5944 0.0557 0.0
H62 H 0.10607 0.49783 0.82723 0.0
C63 C 0.99281 0.55948 0.16558 0.0
H64 H 0.04905 0.5962 0.84696 0.0
C65 C 1.02535 0.50297 0.15423 0.0
C66 C 0.06741 0.47999 1.03274 0.0
H67 H 0.96275 0.57657 0.2612 0.0
H68 H 1.01979 0.47819 0.24148 0.0
C69 C 0.07603 0.51492 0.92286 0.0
loop_
_geom_bond_atom_site_label_1
_geom_bond_atom_site_label_2
_geom_bond_distance
_geom_bond_site_symmetry_2
_ccdc_geom_bond_type
La0 C2 2.928 . S
La0 O20 2.521 . S
La0 O21 2.628 1_554 S
La0 O22 2.554 . S
La0 O23 2.757 1_545 S
La0 O24 2.470 1_455 S
La0 O29 2.482 1_454 S
La0 O31 2.503 . S
La1 C11 2.928 . S
La1 O23 2.482 1_656 S
La1 O25 2.503 . S
La1 O26 2.521 . S
La1 O27 2.628 1_556 S
La1 O28 2.554 . S
La1 O29 2.757 1_565 S
La1 O30 2.470 1_655 S
C2 La0 2.928 . S
C2 C3 1.503 . S
C2 O20 1.261 . S
C2 O21 1.243 1_554 S
C3 C2 1.503 . S
C3 C4 1.394 . S
C3 C8 1.373 1_454 S
C4 C3 1.394 . S
C4 C5 1.380 . S
C4 H32 0.930 . S
C5 C4 1.380 . S
C5 C6 1.376 . S
C5 H33 0.930 . S
C6 C5 1.376 . S
C6 C7 1.370 1_454 S
C7 C6 1.370 1_656 S
C7 C8 1.396 . S
C7 H34 0.929 . S
C8 C3 1.373 1_656 S
C8 C7 1.396 . S
C8 H35 0.929 . S
C9 O22 1.240 . S
C9 O23 1.289 1_545 S
C10 O24 1.258 1_565 S
C10 O25 1.255 1_554 S
C11 La1 2.928 . S
C11 C12 1.503 . S
C11 O26 1.261 . S
C11 O27 1.243 1_556 S
C12 C11 1.503 . S
C12 C13 1.394 . S
C12 C17 1.373 1_656 S
C13 C12 1.394 . S
C13 C14 1.380 . S
C13 H36 0.930 . S
C14 C13 1.380 . S
C14 C15 1.376 . S
C14 H37 0.930 . S
C15 C14 1.376 . S
C15 C16 1.370 1_656 S
C16 C15 1.370 1_454 S
C16 C17 1.396 . S
C16 H38 0.929 . S
C17 C12 1.373 1_454 S
C17 C16 1.396 . S
C17 H39 0.929 . S
C18 O28 1.240 . S
C18 O29 1.289 1_565 S
C19 O30 1.258 1_545 S
C19 O31 1.256 1_556 S
O20 La0 2.521 . S
O20 C2 1.261 . S
O21 La0 2.628 1_556 S
O21 C2 1.243 1_556 S
O22 La0 2.554 . S
O22 C9 1.240 . S
O23 La0 2.757 1_565 S
O23 La1 2.482 1_454 S
O23 C9 1.289 1_565 S
O24 La0 2.470 1_655 S
O24 C10 1.258 1_545 S
O25 La1 2.503 . S
O25 C10 1.255 1_556 S
O26 La1 2.521 . S
O26 C11 1.261 . S
O27 La1 2.628 1_554 S
O27 C11 1.243 1_554 S
O28 La1 2.554 . S
O28 C18 1.240 . S
O29 La0 2.482 1_656 S
O29 La1 2.757 1_545 S
O29 C18 1.289 1_545 S
O30 La1 2.470 1_455 S
O30 C19 1.258 1_565 S
O31 La0 2.503 . S
O31 C19 1.256 1_554 S
H32 C4 0.930 . S
H33 C5 0.930 . S
H34 C7 0.929 . S
H35 C8 0.929 . S
H36 C13 0.930 . S
H37 C14 0.930 . S
H38 C16 0.929 . S
H39 C17 0.929 . S
C40 C41 1.387 1_545 S
C40 H44 0.950 . S
C40 C49 1.390 . S
C41 C40 1.387 1_565 S
C41 C43 1.388 1_455 S
H42 C49 0.950 . S
C43 C41 1.388 1_655 S
C43 C45 1.390 . S
C43 H47 0.950 . S
H44 C40 0.950 . S
C45 C43 1.390 . S
C45 C46 1.388 1_665 S
C45 H48 0.950 . S
C46 C45 1.388 1_445 S
C46 C49 1.388 . S
H47 C43 0.950 . S
H48 C45 0.950 . S
C49 C40 1.390 . S
C49 H42 0.950 . S
C49 C46 1.388 . S
C50 C51 1.385 . S
C50 H54 0.950 . S
C50 C59 1.390 . S
C51 C50 1.385 . S
C51 C53 1.385 1_544 S
H52 C59 0.950 . S
C53 C51 1.385 1_566 S
C53 C55 1.390 . S
C53 H57 0.950 . S
H54 C50 0.950 . S
C55 C53 1.390 . S
C55 C56 1.387 1_556 S
C55 H58 0.950 . S
C56 C55 1.387 1_554 S
C56 C59 1.387 1_565 S
H57 C53 0.950 . S
H58 C55 0.950 . S
C59 C50 1.390 . S
C59 H52 0.950 . S
C59 C56 1.387 1_545 S
C60 C61 1.386 1_556 S
C60 H64 0.950 . S
C60 C69 1.390 . S
C61 C60 1.386 1_554 S
C61 C63 1.386 1_655 S
H62 C69 0.950 . S
C63 C61 1.386 1_455 S
C63 C65 1.390 . S
C63 H67 0.950 . S
H64 C60 0.950 . S
C65 C63 1.390 . S
C65 C66 1.385 . S
C65 H68 0.950 . S
C66 C65 1.385 . S
C66 C69 1.385 1_454 S
H67 C63 0.950 . S
H68 C65 0.950 . S
C69 C60 1.390 . S
C69 H62 0.950 . S
C69 C66 1.385 1_656 S
C41 C9 1.451 1_565 S
C46 C18 1.449 1_445 S
C51 C19 1.488 1_554 S
C56 C10 1.485 . S
C61 C15 1.502 1_554 S
C66 C6 1.504 . S
