# Generated by pormake.
# Topology zfa, (5)-cn, num edge types: 1
# Building blocks:
#     Node 0, Type 0, BuildingBlock: XOMCOT_clean_sbu_1, # of connection points: 5
#     Node 1, Type 0, BuildingBlock: XOMCOT_clean_sbu_1, # of connection points: 5
#     Node 2, Type 0, BuildingBlock: XOMCOT_clean_sbu_1, # of connection points: 5
#     Node 3, Type 0, BuildingBlock: XOMCOT_clean_sbu_1, # of connection points: 5
#     Node 4, Type 0, BuildingBlock: XOMCOT_clean_sbu_1, # of connection points: 5
#     Node 5, Type 0, BuildingBlock: XOMCOT_clean_sbu_1, # of connection points: 5
#     Node 6, Type 0, BuildingBlock: XOMCOT_clean_sbu_1, # of connection points: 5
#     Node 7, Type 0, BuildingBlock: XOMCOT_clean_sbu_1, # of connection points: 5
#     Edge 8, Type (0, 0), None
#     Edge 9, Type (0, 0), None
#     Edge 10, Type (0, 0), None
#     Edge 11, Type (0, 0), None
#     Edge 12, Type (0, 0), None
#     Edge 13, Type (0, 0), None
#     Edge 14, Type (0, 0), None
#     Edge 15, Type (0, 0), None
#     Edge 16, Type (0, 0), None
#     Edge 17, Type (0, 0), None
#     Edge 18, Type (0, 0), None
#     Edge 19, Type (0, 0), None
#     Edge 20, Type (0, 0), None
#     Edge 21, Type (0, 0), None
#     Edge 22, Type (0, 0), None
#     Edge 23, Type (0, 0), None
#     Edge 24, Type (0, 0), None
#     Edge 25, Type (0, 0), None
#     Edge 26, Type (0, 0), None
#     Edge 27, Type (0, 0), None
# Relax obj value: 0.271
# Max RMSD: 0.195
# Mean RMSD: 0.195
data_MOF--net-zfa--node1-XOMCOT_clean_sbu_1--edge1-none
_symmetry_space_group_name_H-M    P1
_symmetry_Int_Tables_number       1
_symmetry_cell_setting            triclinic
loop_
_symmetry_equiv_pos_as_xyz
'x, y, z'
_cell_length_a     16.731875
_cell_length_b     16.731883
_cell_length_c     16.803319
_cell_angle_alpha  90.003668
_cell_angle_beta   89.996335
_cell_angle_gamma 89.999114
loop_
_atom_site_label
_atom_site_type_symbol
_atom_site_fract_x
_atom_site_fract_y
_atom_site_fract_z
_atom_type_partial_charge
C0 C 0.12224 0.12517 0.3197 0.0
C1 C 0.08323 0.05549 0.30032 0.0
N2 N 0.03805 0.03472 0.36289 0.0
N3 N 0.10107 0.14823 0.3941 0.0
C4 C 0.04998 0.09061 0.41886 0.0
H5 H 0.1554 0.1606 0.27761 0.0
Co6 Co 0.10023 0.25244 0.43603 0.0
C7 C 0.14206 0.1495 0.57661 0.0
O8 O 0.18569 0.10293 0.53107 0.0
N9 N 0.09461 0.35914 0.47587 0.0
C10 C 0.11488 0.49052 0.48938 0.0
C11 C 0.1498 0.41819 0.47126 0.0
C12 C 0.0269 0.39777 0.49854 0.0
N13 N 0.03722 0.4775 0.50556 0.0
O14 O 0.98699 0.24643 0.43529 0.0
H15 H 0.21018 0.41131 0.44964 0.0
H16 H 0.96933 0.3693 0.50435 0.0
O17 O 0.10534 0.20992 0.54647 0.0
C18 C 0.9601 0.2602 0.3657 0.0
O19 O 0.01081 0.27961 0.30916 0.0
N20 N 0.21194 0.25961 0.42798 0.0
C21 C 0.37434 0.25992 0.39315 0.0
C22 C 0.34781 0.25496 0.47222 0.0
C23 C 0.26615 0.25687 0.48856 0.0
C24 C 0.23708 0.27367 0.35209 0.0
C25 C 0.31811 0.27248 0.33287 0.0
H26 H 0.24725 0.25724 0.54972 0.0
H27 H 0.1936 0.28504 0.3059 0.0
H28 H 0.01411 0.09507 0.47229 0.0
H29 H 0.08289 0.02617 0.2429 0.0
H30 H 0.14303 0.54847 0.4839 0.0
H31 H 0.38959 0.24982 0.5212 0.0
H32 H 0.33625 0.28031 0.27148 0.0
C33 C 0.38824 0.62225 0.81969 0.0
C34 C 0.45793 0.58324 0.80032 0.0
N35 N 0.4787 0.53807 0.86289 0.0
N36 N 0.36519 0.60109 0.8941 0.0
C37 C 0.42281 0.55001 0.91887 0.0
H38 H 0.35281 0.6554 0.77761 0.0
Co39 Co 0.26098 0.60025 0.93603 0.0
C40 C 0.36392 0.6421 1.07662 0.0
O41 O 0.41048 0.68574 1.03107 0.0
N42 N 0.15428 0.59464 0.97587 0.0
C43 C 0.0229 0.61491 0.98939 0.0
C44 C 0.09523 0.64983 0.97127 0.0
C45 C 0.11565 0.52693 0.99854 0.0
N46 N 0.03593 0.53725 1.00556 0.0
O47 O 0.26699 0.48702 0.9353 0.0
H48 H 0.1021 0.7102 0.94964 0.0
H49 H 0.14413 0.46936 1.00436 0.0
O50 O 0.30351 0.60538 1.04647 0.0
C51 C 0.25322 0.46011 0.86571 0.0
O52 O 0.23381 0.51081 0.80917 0.0
N53 N 0.2538 0.71197 0.92798 0.0
C54 C 0.2535 0.87436 0.89315 0.0
C55 C 0.25845 0.84784 0.97223 0.0
C56 C 0.25655 0.76618 0.98857 0.0
C57 C 0.23975 0.7371 0.8521 0.0
C58 C 0.24094 0.81812 0.83288 0.0
H59 H 0.25618 0.74728 1.04973 0.0
H60 H 0.22837 0.69361 0.80591 0.0
H61 H 0.41836 0.51414 0.97229 0.0
H62 H 0.48725 0.58289 0.7429 0.0
H63 H 0.96495 0.64305 0.9839 0.0
H64 H 0.26359 0.88962 1.0212 0.0
H65 H 0.23311 0.83625 0.77149 0.0
C66 C 0.89123 0.88837 0.31973 0.0
C67 C 0.93046 0.95792 0.30033 0.0
N68 N 0.97579 0.97849 0.36285 0.0
N69 N 0.91237 0.86524 0.39413 0.0
C70 C 0.96363 0.92271 0.41888 0.0
H71 H 0.85792 0.85305 0.27767 0.0
Co72 Co 0.91307 0.761 0.436 0.0
C73 C 0.87133 0.86393 0.57661 0.0
O74 O 0.82776 0.91054 0.53108 0.0
N75 N 0.91855 0.65428 0.47576 0.0
C76 C 0.89825 0.52286 0.48899 0.0
C77 C 0.86337 0.59523 0.47091 0.0
C78 C 0.9862 0.61563 0.49855 0.0
N79 N 0.97587 0.53589 0.50529 0.0
O80 O 0.0263 0.76685 0.43526 0.0
H81 H 0.80304 0.60215 0.44917 0.0
H82 H 0.04374 0.64411 0.50465 0.0
O83 O 0.908 0.80348 0.54646 0.0
C84 C 0.05321 0.75306 0.36568 0.0
O85 O 1.0025 0.73372 0.30911 0.0
N86 N 0.80136 0.75396 0.42795 0.0
C87 C 0.63896 0.75372 0.39315 0.0
C88 C 0.6655 0.75862 0.47223 0.0
C89 C 0.74715 0.75668 0.48855 0.0
C90 C 0.77621 0.73998 0.35206 0.0
C91 C 0.69519 0.74121 0.33286 0.0
H92 H 0.76607 0.75625 0.54971 0.0
H93 H 0.81969 0.72861 0.30586 0.0
H94 H 0.99947 0.91818 0.47231 0.0
H95 H 0.93082 0.98728 0.24293 0.0
H96 H 0.87011 0.46491 0.48343 0.0
H97 H 0.62372 0.76373 0.52122 0.0
H98 H 0.67704 0.73342 0.27147 0.0
C99 C 0.62506 0.39124 0.81973 0.0
C100 C 0.5555 0.43046 0.80033 0.0
N101 N 0.53494 0.47581 0.86285 0.0
N102 N 0.64819 0.41239 0.89413 0.0
C103 C 0.59072 0.46366 0.91888 0.0
H104 H 0.66037 0.35792 0.77768 0.0
Co105 Co 0.75243 0.41309 0.93599 0.0
C106 C 0.6495 0.37137 1.07661 0.0
O107 O 0.60288 0.32781 1.03107 0.0
N108 N 0.85915 0.41858 0.97575 0.0
C109 C 0.99057 0.39827 0.98898 0.0
C110 C 0.9182 0.3634 0.9709 0.0
C111 C 0.8978 0.48623 0.99855 0.0
N112 N 0.97754 0.4759 1.00529 0.0
O113 O 0.74658 0.52633 0.93527 0.0
H114 H 0.91129 0.30307 0.94915 0.0
H115 H 0.86931 0.54377 1.00466 0.0
O116 O 0.70995 0.40803 1.04646 0.0
C117 C 0.76037 0.55322 0.86568 0.0
O118 O 0.77971 0.50251 0.80912 0.0
N119 N 0.75947 0.30138 0.92795 0.0
C120 C 0.75971 0.13898 0.89315 0.0
C121 C 0.75481 0.16553 0.97223 0.0
C122 C 0.75676 0.24719 0.98855 0.0
C123 C 0.77345 0.27622 0.85205 0.0
C124 C 0.77222 0.1952 0.83285 0.0
H125 H 0.75718 0.26611 1.0497 0.0
H126 H 0.78482 0.31969 0.80585 0.0
H127 H 0.59525 0.49951 0.97231 0.0
H128 H 0.52614 0.43081 0.74293 0.0
H129 H 0.04852 0.37014 0.98341 0.0
H130 H 0.74971 0.12376 1.02122 0.0
H131 H 0.78001 0.17704 0.77146 0.0
C132 C 0.62224 0.38826 0.42072 0.0
C133 C 0.58322 0.45794 0.44009 0.0
N134 N 0.53806 0.47872 0.37752 0.0
N135 N 0.60108 0.36521 0.34631 0.0
C136 C 0.54999 0.42283 0.32155 0.0
H137 H 0.65538 0.35282 0.4628 0.0
Co138 Co 0.60024 0.261 0.30437 0.0
C139 C 0.64208 0.36395 0.1638 0.0
O140 O 0.68573 0.41051 0.20933 0.0
N141 N 0.59462 0.1543 0.26453 0.0
C142 C 0.6149 0.02292 0.25101 0.0
C143 C 0.64982 0.09525 0.26913 0.0
C144 C 0.52691 0.11567 0.24187 0.0
N145 N 0.53724 0.03594 0.23485 0.0
O146 O 0.487 0.26701 0.30511 0.0
H147 H 0.71019 0.10212 0.29075 0.0
H148 H 0.46934 0.14414 0.23606 0.0
O149 O 0.60536 0.30353 0.19394 0.0
C150 C 0.4601 0.25324 0.3747 0.0
O151 O 0.5108 0.23383 0.43124 0.0
N152 N 0.71195 0.25382 0.31243 0.0
C153 C 0.87434 0.25351 0.34726 0.0
C154 C 0.84782 0.25848 0.26818 0.0
C155 C 0.76617 0.25657 0.25184 0.0
C156 C 0.73708 0.23976 0.38831 0.0
C157 C 0.8181 0.24095 0.40753 0.0
H158 H 0.74727 0.25621 0.19068 0.0
H159 H 0.69359 0.22838 0.4345 0.0
H160 H 0.51412 0.41838 0.26812 0.0
H161 H 0.58287 0.48726 0.49752 0.0
H162 H 0.64304 0.96497 0.25649 0.0
H163 H 0.88961 0.26362 0.21921 0.0
H164 H 0.83624 0.23312 0.46892 0.0
C165 C 0.12516 0.12226 0.92072 0.0
C166 C 0.05548 0.08325 0.94009 0.0
N167 N 0.0347 0.03807 0.87752 0.0
N168 N 0.14821 0.10109 0.84631 0.0
C169 C 0.09059 0.05 0.82155 0.0
H170 H 0.16059 0.15542 0.9628 0.0
Co171 Co 0.25243 0.10024 0.80438 0.0
C172 C 0.14947 0.14207 0.6638 0.0
O173 O 0.1029 0.18571 0.70934 0.0
N174 N 0.35913 0.09462 0.76454 0.0
C175 C 0.49051 0.1149 0.75102 0.0
C176 C 0.41817 0.14982 0.76914 0.0
C177 C 0.39776 0.02692 0.74187 0.0
N178 N 0.47748 0.03724 0.73485 0.0
O179 O 0.24641 0.98701 0.80511 0.0
H180 H 0.4113 0.2102 0.79076 0.0
H181 H 0.36928 0.96934 0.73607 0.0
O182 O 0.2099 0.10536 0.69394 0.0
C183 C 0.26019 0.96011 0.87471 0.0
O184 O 0.27959 0.01082 0.93125 0.0
N185 N 0.2596 0.21196 0.81243 0.0
C186 C 0.25991 0.37435 0.84726 0.0
C187 C 0.25494 0.34782 0.76819 0.0
C188 C 0.25685 0.26617 0.75185 0.0
C189 C 0.27366 0.2371 0.88832 0.0
C190 C 0.27246 0.31812 0.90754 0.0
H191 H 0.25721 0.24726 0.69069 0.0
H192 H 0.28503 0.19362 0.9345 0.0
H193 H 0.09505 0.01412 0.76812 0.0
H194 H 0.02616 0.08291 0.99752 0.0
H195 H 0.54845 0.14304 0.7565 0.0
H196 H 0.2498 0.3896 0.71921 0.0
H197 H 0.2803 0.33626 0.96892 0.0
C198 C 0.39122 0.62508 0.42068 0.0
C199 C 0.43045 0.55552 0.44008 0.0
N200 N 0.47579 0.53496 0.37756 0.0
N201 N 0.41238 0.64821 0.34628 0.0
C202 C 0.46364 0.59073 0.32154 0.0
H203 H 0.3579 0.66039 0.46273 0.0
Co204 Co 0.41308 0.75245 0.30441 0.0
C205 C 0.37137 0.64951 0.16381 0.0
O206 O 0.32779 0.60288 0.20934 0.0
N207 N 0.41857 0.85917 0.26465 0.0
C208 C 0.39826 0.99058 0.25142 0.0
C209 C 0.36338 0.91821 0.2695 0.0
C210 C 0.48622 0.89781 0.24186 0.0
N211 N 0.47589 0.97755 0.23511 0.0
O212 O 0.52631 0.74659 0.30514 0.0
H213 H 0.30305 0.9113 0.29125 0.0
H214 H 0.54376 0.86933 0.23576 0.0
O215 O 0.40802 0.70997 0.19395 0.0
C216 C 0.55321 0.76038 0.37473 0.0
O217 O 0.50249 0.77972 0.43129 0.0
N218 N 0.30137 0.75948 0.31246 0.0
C219 C 0.13897 0.75972 0.34725 0.0
C220 C 0.16552 0.75482 0.26818 0.0
C221 C 0.24717 0.75676 0.25186 0.0
C222 C 0.27621 0.77347 0.38835 0.0
C223 C 0.19518 0.77224 0.40755 0.0
H224 H 0.26609 0.75719 0.19071 0.0
H225 H 0.31968 0.78483 0.43456 0.0
H226 H 0.49949 0.59526 0.2681 0.0
H227 H 0.4308 0.52616 0.49748 0.0
H228 H 0.37012 0.04853 0.25698 0.0
H229 H 0.12375 0.74971 0.21919 0.0
H230 H 0.17703 0.78003 0.46894 0.0
C231 C 0.88835 0.89124 0.92068 0.0
C232 C 0.9579 0.93047 0.94008 0.0
N233 N 0.97847 0.9758 0.87757 0.0
N234 N 0.86522 0.91239 0.84628 0.0
C235 C 0.9227 0.96365 0.82154 0.0
H236 H 0.85303 0.85793 0.96274 0.0
Co237 Co 0.76098 0.91309 0.80441 0.0
C238 C 0.86392 0.87136 0.6638 0.0
O239 O 0.91054 0.82777 0.70933 0.0
N240 N 0.65426 0.91857 0.76465 0.0
C241 C 0.52285 0.89826 0.75141 0.0
C242 C 0.59522 0.86339 0.76949 0.0
C243 C 0.61561 0.98622 0.74187 0.0
N244 N 0.53587 0.97589 0.73512 0.0
O245 O 0.76684 0.02632 0.80515 0.0
H246 H 0.60213 0.80306 0.79123 0.0
H247 H 0.6441 0.04376 0.73577 0.0
O248 O 0.80346 0.90802 0.69395 0.0
C249 C 0.75304 0.05322 0.87473 0.0
O250 O 0.73371 1.00252 0.93129 0.0
N251 N 0.75395 0.80137 0.81246 0.0
C252 C 0.75371 0.63898 0.84725 0.0
C253 C 0.75861 0.66552 0.76818 0.0
C254 C 0.75667 0.74717 0.75186 0.0
C255 C 0.73996 0.77622 0.88835 0.0
C256 C 0.74119 0.6952 0.90755 0.0
H257 H 0.75625 0.76608 0.6907 0.0
H258 H 0.72859 0.8197 0.93455 0.0
H259 H 0.91817 0.99949 0.7681 0.0
H260 H 0.98726 0.93083 0.99749 0.0
H261 H 0.4649 0.87012 0.75697 0.0
H262 H 0.76372 0.62374 0.71919 0.0
H263 H 0.7334 0.67706 0.96894 0.0
loop_
_geom_bond_atom_site_label_1
_geom_bond_atom_site_label_2
_geom_bond_distance
_geom_bond_site_symmetry_2
_ccdc_geom_bond_type
C0 C1 1.350 1_655 S
C0 N3 1.368 1_655 S
C0 H5 0.931 . S
C1 C0 1.350 1_455 S
C1 N2 1.375 1_545 S
C1 H29 0.929 1_445 S
N2 C1 1.375 1_565 S
N2 C4 1.340 1_565 S
N3 C0 1.368 1_455 S
N3 C4 1.321 . S
N3 Co6 2.135 . S
C4 N2 1.340 1_545 S
C4 N3 1.321 . S
C4 H28 0.930 . S
H5 C0 0.931 . S
Co6 N3 2.135 . S
Co6 N9 2.121 . S
Co6 O14 2.055 1_455 S
Co6 O17 2.039 . S
Co6 N20 2.140 . S
C7 O8 1.227 . S
C7 O17 1.265 . S
O8 C7 1.227 . S
N9 Co6 2.121 . S
N9 C11 1.375 . S
N9 C12 1.313 . S
C10 C11 1.338 . S
C10 N13 1.377 . S
C10 H30 0.930 . S
C11 N9 1.375 . S
C11 C10 1.338 . S
C11 H15 0.931 . S
C12 N9 1.313 . S
C12 N13 1.344 . S
C12 H16 0.930 1_455 S
N13 C10 1.377 . S
N13 C12 1.344 . S
O14 Co6 2.055 1_655 S
O14 C18 1.253 . S
H15 C11 0.931 . S
H16 C12 0.930 1_655 S
O17 Co6 2.039 . S
O17 C7 1.265 . S
C18 O14 1.253 . S
C18 O19 1.227 . S
O19 C18 1.227 . S
N20 Co6 2.140 . S
N20 C23 1.346 . S
N20 C24 1.345 . S
C21 C22 1.387 . S
C21 C25 1.391 . S
C22 C21 1.387 . S
C22 C23 1.369 . S
C22 H31 0.929 . S
C23 N20 1.346 . S
C23 C22 1.369 . S
C23 H26 0.928 . S
C24 N20 1.345 . S
C24 C25 1.371 . S
C24 H27 0.931 . S
C25 C21 1.391 . S
C25 C24 1.371 . S
C25 H32 0.930 . S
H26 C23 0.928 . S
H27 C24 0.931 . S
H28 C4 0.930 . S
H29 C1 0.929 1_665 S
H30 C10 0.930 . S
H31 C22 0.929 . S
H32 C25 0.930 . S
C33 C34 1.351 . S
C33 N36 1.368 . S
C33 H38 0.931 . S
C34 C33 1.351 . S
C34 N35 1.373 . S
C34 H62 0.930 . S
N35 C34 1.373 . S
N35 C37 1.340 . S
N36 C33 1.368 . S
N36 C37 1.321 . S
N36 Co39 2.135 . S
C37 N35 1.340 . S
C37 N36 1.321 . S
C37 H61 0.930 . S
H38 C33 0.931 . S
Co39 N36 2.135 . S
Co39 N42 2.121 . S
Co39 O47 2.055 . S
Co39 O50 2.039 . S
Co39 N53 2.140 . S
C40 O41 1.227 . S
C40 O50 1.265 . S
O41 C40 1.227 . S
N42 Co39 2.121 . S
N42 C44 1.375 . S
N42 C45 1.313 . S
C43 C44 1.338 . S
C43 N46 1.377 . S
C43 H63 0.930 . S
C44 N42 1.375 . S
C44 C43 1.338 . S
C44 H48 0.931 . S
C45 N42 1.313 . S
C45 N46 1.344 . S
C45 H49 0.930 . S
N46 C43 1.377 . S
N46 C45 1.344 . S
O47 Co39 2.055 . S
O47 C51 1.253 . S
H48 C44 0.931 . S
H49 C45 0.930 . S
O50 Co39 2.039 . S
O50 C40 1.265 . S
C51 O47 1.253 . S
C51 O52 1.227 . S
O52 C51 1.227 . S
N53 Co39 2.140 . S
N53 C56 1.346 . S
N53 C57 1.345 . S
C54 C55 1.387 . S
C54 C58 1.391 . S
C55 C54 1.387 . S
C55 C56 1.369 . S
C55 H64 0.929 . S
C56 N53 1.346 . S
C56 C55 1.369 . S
C56 H59 0.928 . S
C57 N53 1.345 . S
C57 C58 1.371 . S
C57 H60 0.931 . S
C58 C54 1.391 . S
C58 C57 1.371 . S
C58 H65 0.930 . S
H59 C56 0.928 . S
H60 C57 0.931 . S
H61 C37 0.930 . S
H62 C34 0.930 . S
H63 C43 0.930 . S
H64 C55 0.929 . S
H65 C58 0.930 . S
C66 C67 1.350 1_455 S
C66 N69 1.368 1_455 S
C66 H71 0.931 . S
C67 C66 1.350 1_655 S
C67 N68 1.375 1_565 S
C67 H95 0.929 1_665 S
N68 C67 1.375 1_545 S
N68 C70 1.340 1_545 S
N69 C66 1.368 1_655 S
N69 C70 1.321 . S
N69 Co72 2.135 . S
C70 N68 1.340 1_565 S
C70 N69 1.321 . S
C70 H94 0.930 . S
H71 C66 0.931 . S
Co72 N69 2.135 . S
Co72 N75 2.121 . S
Co72 O80 2.055 1_655 S
Co72 O83 2.039 . S
Co72 N86 2.140 . S
C73 O74 1.227 . S
C73 O83 1.265 . S
O74 C73 1.227 . S
N75 Co72 2.121 . S
N75 C77 1.375 . S
N75 C78 1.313 . S
C76 C77 1.338 . S
C76 N79 1.377 . S
C76 H96 0.930 . S
C77 N75 1.375 . S
C77 C76 1.338 . S
C77 H81 0.931 . S
C78 N75 1.313 . S
C78 N79 1.344 . S
C78 H82 0.930 1_655 S
N79 C76 1.377 . S
N79 C78 1.344 . S
O80 Co72 2.055 1_455 S
O80 C84 1.253 . S
H81 C77 0.931 . S
H82 C78 0.930 1_455 S
O83 Co72 2.039 . S
O83 C73 1.265 . S
C84 O80 1.253 . S
C84 O85 1.227 . S
O85 C84 1.227 . S
N86 Co72 2.140 . S
N86 C89 1.346 . S
N86 C90 1.345 . S
C87 C88 1.387 . S
C87 C91 1.391 . S
C88 C87 1.387 . S
C88 C89 1.369 . S
C88 H97 0.929 . S
C89 N86 1.346 . S
C89 C88 1.369 . S
C89 H92 0.928 . S
C90 N86 1.345 . S
C90 C91 1.371 . S
C90 H93 0.931 . S
C91 C87 1.391 . S
C91 C90 1.371 . S
C91 H98 0.930 . S
H92 C89 0.928 . S
H93 C90 0.931 . S
H94 C70 0.930 . S
H95 C67 0.929 1_445 S
H96 C76 0.930 . S
H97 C88 0.929 . S
H98 C91 0.930 . S
C99 C100 1.351 . S
C99 N102 1.368 . S
C99 H104 0.931 . S
C100 C99 1.351 . S
C100 N101 1.373 . S
C100 H128 0.930 . S
N101 C100 1.373 . S
N101 C103 1.340 . S
N102 C99 1.368 . S
N102 C103 1.321 . S
N102 Co105 2.135 . S
C103 N101 1.340 . S
C103 N102 1.321 . S
C103 H127 0.930 . S
H104 C99 0.931 . S
Co105 N102 2.135 . S
Co105 N108 2.121 . S
Co105 O113 2.055 . S
Co105 O116 2.039 . S
Co105 N119 2.140 . S
C106 O107 1.227 . S
C106 O116 1.265 . S
O107 C106 1.227 . S
N108 Co105 2.121 . S
N108 C110 1.375 . S
N108 C111 1.313 . S
C109 C110 1.338 . S
C109 N112 1.377 . S
C109 H129 0.930 . S
C110 N108 1.375 . S
C110 C109 1.338 . S
C110 H114 0.931 . S
C111 N108 1.313 . S
C111 N112 1.344 . S
C111 H115 0.930 . S
N112 C109 1.377 . S
N112 C111 1.344 . S
O113 Co105 2.055 . S
O113 C117 1.253 . S
H114 C110 0.931 . S
H115 C111 0.930 . S
O116 Co105 2.039 . S
O116 C106 1.265 . S
C117 O113 1.253 . S
C117 O118 1.227 . S
O118 C117 1.227 . S
N119 Co105 2.140 . S
N119 C122 1.346 . S
N119 C123 1.345 . S
C120 C121 1.387 . S
C120 C124 1.391 . S
C121 C120 1.387 . S
C121 C122 1.369 . S
C121 H130 0.929 . S
C122 N119 1.346 . S
C122 C121 1.369 . S
C122 H125 0.928 . S
C123 N119 1.345 . S
C123 C124 1.371 . S
C123 H126 0.931 . S
C124 C120 1.391 . S
C124 C123 1.371 . S
C124 H131 0.930 . S
H125 C122 0.928 . S
H126 C123 0.931 . S
H127 C103 0.930 . S
H128 C100 0.930 . S
H129 C109 0.930 . S
H130 C121 0.929 . S
H131 C124 0.930 . S
C132 C133 1.351 . S
C132 N135 1.368 . S
C132 H137 0.931 . S
C133 C132 1.351 . S
C133 N134 1.373 . S
C133 H161 0.930 . S
N134 C133 1.373 . S
N134 C136 1.340 . S
N135 C132 1.368 . S
N135 C136 1.321 . S
N135 Co138 2.135 . S
C136 N134 1.340 . S
C136 N135 1.321 . S
C136 H160 0.930 . S
H137 C132 0.931 . S
Co138 N135 2.135 . S
Co138 N141 2.121 . S
Co138 O146 2.055 . S
Co138 O149 2.039 . S
Co138 N152 2.140 . S
C139 O140 1.227 . S
C139 O149 1.265 . S
O140 C139 1.227 . S
N141 Co138 2.121 . S
N141 C143 1.375 . S
N141 C144 1.313 . S
C142 C143 1.338 . S
C142 N145 1.377 . S
C142 H162 0.930 . S
C143 N141 1.375 . S
C143 C142 1.338 . S
C143 H147 0.931 . S
C144 N141 1.313 . S
C144 N145 1.344 . S
C144 H148 0.930 . S
N145 C142 1.377 . S
N145 C144 1.344 . S
O146 Co138 2.055 . S
O146 C150 1.253 . S
H147 C143 0.931 . S
H148 C144 0.930 . S
O149 Co138 2.039 . S
O149 C139 1.265 . S
C150 O146 1.253 . S
C150 O151 1.227 . S
O151 C150 1.227 . S
N152 Co138 2.140 . S
N152 C155 1.346 . S
N152 C156 1.345 . S
C153 C154 1.387 . S
C153 C157 1.391 . S
C154 C153 1.387 . S
C154 C155 1.369 . S
C154 H163 0.929 . S
C155 N152 1.346 . S
C155 C154 1.369 . S
C155 H158 0.928 . S
C156 N152 1.345 . S
C156 C157 1.371 . S
C156 H159 0.931 . S
C157 C153 1.391 . S
C157 C156 1.371 . S
C157 H164 0.930 . S
H158 C155 0.928 . S
H159 C156 0.931 . S
H160 C136 0.930 . S
H161 C133 0.930 . S
H162 C142 0.930 . S
H163 C154 0.929 . S
H164 C157 0.930 . S
C165 C166 1.350 1_565 S
C165 N168 1.368 1_565 S
C165 H170 0.931 . S
C166 C165 1.350 1_545 S
C166 N167 1.375 1_455 S
C166 H194 0.929 1_445 S
N167 C166 1.375 1_655 S
N167 C169 1.340 1_655 S
N168 C165 1.368 1_545 S
N168 C169 1.321 . S
N168 Co171 2.135 . S
C169 N167 1.340 1_455 S
C169 N168 1.321 . S
C169 H193 0.930 . S
H170 C165 0.931 . S
Co171 N168 2.135 . S
Co171 N174 2.121 . S
Co171 O179 2.055 1_545 S
Co171 O182 2.039 . S
Co171 N185 2.140 . S
C172 O173 1.227 . S
C172 O182 1.265 . S
O173 C172 1.227 . S
N174 Co171 2.121 . S
N174 C176 1.375 . S
N174 C177 1.313 . S
C175 C176 1.338 . S
C175 N178 1.377 . S
C175 H195 0.930 . S
C176 N174 1.375 . S
C176 C175 1.338 . S
C176 H180 0.931 . S
C177 N174 1.313 . S
C177 N178 1.344 . S
C177 H181 0.930 1_545 S
N178 C175 1.377 . S
N178 C177 1.344 . S
O179 Co171 2.055 1_565 S
O179 C183 1.253 . S
H180 C176 0.931 . S
H181 C177 0.930 1_565 S
O182 Co171 2.039 . S
O182 C172 1.265 . S
C183 O179 1.253 . S
C183 O184 1.227 . S
O184 C183 1.227 . S
N185 Co171 2.140 . S
N185 C188 1.346 . S
N185 C189 1.345 . S
C186 C187 1.387 . S
C186 C190 1.391 . S
C187 C186 1.387 . S
C187 C188 1.369 . S
C187 H196 0.929 . S
C188 N185 1.346 . S
C188 C187 1.369 . S
C188 H191 0.928 . S
C189 N185 1.345 . S
C189 C190 1.371 . S
C189 H192 0.931 . S
C190 C186 1.391 . S
C190 C189 1.371 . S
C190 H197 0.930 . S
H191 C188 0.928 . S
H192 C189 0.931 . S
H193 C169 0.930 . S
H194 C166 0.929 1_665 S
H195 C175 0.930 . S
H196 C187 0.929 . S
H197 C190 0.930 . S
C198 C199 1.351 . S
C198 N201 1.368 . S
C198 H203 0.931 . S
C199 C198 1.351 . S
C199 N200 1.373 . S
C199 H227 0.930 . S
N200 C199 1.373 . S
N200 C202 1.340 . S
N201 C198 1.368 . S
N201 C202 1.321 . S
N201 Co204 2.135 . S
C202 N200 1.340 . S
C202 N201 1.321 . S
C202 H226 0.930 . S
H203 C198 0.931 . S
Co204 N201 2.135 . S
Co204 N207 2.121 . S
Co204 O212 2.055 . S
Co204 O215 2.039 . S
Co204 N218 2.140 . S
C205 O206 1.227 . S
C205 O215 1.265 . S
O206 C205 1.227 . S
N207 Co204 2.121 . S
N207 C209 1.375 . S
N207 C210 1.313 . S
C208 C209 1.338 . S
C208 N211 1.377 . S
C208 H228 0.930 . S
C209 N207 1.375 . S
C209 C208 1.338 . S
C209 H213 0.931 . S
C210 N207 1.313 . S
C210 N211 1.344 . S
C210 H214 0.930 . S
N211 C208 1.377 . S
N211 C210 1.344 . S
O212 Co204 2.055 . S
O212 C216 1.253 . S
H213 C209 0.931 . S
H214 C210 0.930 . S
O215 Co204 2.039 . S
O215 C205 1.265 . S
C216 O212 1.253 . S
C216 O217 1.227 . S
O217 C216 1.227 . S
N218 Co204 2.140 . S
N218 C221 1.346 . S
N218 C222 1.345 . S
C219 C220 1.387 . S
C219 C223 1.391 . S
C220 C219 1.387 . S
C220 C221 1.369 . S
C220 H229 0.929 . S
C221 N218 1.346 . S
C221 C220 1.369 . S
C221 H224 0.928 . S
C222 N218 1.345 . S
C222 C223 1.371 . S
C222 H225 0.931 . S
C223 C219 1.391 . S
C223 C222 1.371 . S
C223 H230 0.930 . S
H224 C221 0.928 . S
H225 C222 0.931 . S
H226 C202 0.930 . S
H227 C199 0.930 . S
H228 C208 0.930 . S
H229 C220 0.929 . S
H230 C223 0.930 . S
C231 C232 1.350 1_545 S
C231 N234 1.368 1_545 S
C231 H236 0.931 . S
C232 C231 1.350 1_565 S
C232 N233 1.375 1_655 S
C232 H260 0.929 1_665 S
N233 C232 1.375 1_455 S
N233 C235 1.340 1_455 S
N234 C231 1.368 1_565 S
N234 C235 1.321 . S
N234 Co237 2.135 . S
C235 N233 1.340 1_655 S
C235 N234 1.321 . S
C235 H259 0.930 . S
H236 C231 0.931 . S
Co237 N234 2.135 . S
Co237 N240 2.121 . S
Co237 O245 2.055 1_565 S
Co237 O248 2.039 . S
Co237 N251 2.140 . S
C238 O239 1.227 . S
C238 O248 1.265 . S
O239 C238 1.227 . S
N240 Co237 2.121 . S
N240 C242 1.375 . S
N240 C243 1.313 . S
C241 C242 1.338 . S
C241 N244 1.377 . S
C241 H261 0.930 . S
C242 N240 1.375 . S
C242 C241 1.338 . S
C242 H246 0.931 . S
C243 N240 1.313 . S
C243 N244 1.344 . S
C243 H247 0.930 1_565 S
N244 C241 1.377 . S
N244 C243 1.344 . S
O245 Co237 2.055 1_545 S
O245 C249 1.253 . S
H246 C242 0.931 . S
H247 C243 0.930 1_545 S
O248 Co237 2.039 . S
O248 C238 1.265 . S
C249 O245 1.253 . S
C249 O250 1.227 . S
O250 C249 1.227 . S
N251 Co237 2.140 . S
N251 C254 1.346 . S
N251 C255 1.345 . S
C252 C253 1.387 . S
C252 C256 1.391 . S
C253 C252 1.387 . S
C253 C254 1.369 . S
C253 H262 0.929 . S
C254 N251 1.346 . S
C254 C253 1.369 . S
C254 H257 0.928 . S
C255 N251 1.345 . S
C255 C256 1.371 . S
C255 H258 0.931 . S
C256 C252 1.391 . S
C256 C255 1.371 . S
C256 H263 0.930 . S
H257 C254 0.928 . S
H258 C255 0.931 . S
H259 C235 0.930 . S
H260 C232 0.929 1_445 S
H261 C241 0.930 . S
H262 C253 0.929 . S
H263 C256 0.930 . S
N79 N13 1.335 1_655 S
N112 N46 1.335 1_655 S
N211 N145 1.335 1_565 S
N244 N178 1.335 1_565 S
C150 C21 2.293 . S
C183 C54 2.293 . S
C216 C87 2.293 . S
C120 C249 2.293 . S
C18 C153 2.293 . S
C51 C186 2.293 . S
C84 C219 2.293 . S
C252 C117 2.293 . S
C7 C172 2.383 . S
C205 C40 2.383 1_554 S
C238 C73 2.383 . S
C139 C106 2.383 1_554 S
N68 N2 1.260 1_645 S
N35 N101 1.260 . S
N200 N134 1.260 . S
N167 N233 1.260 1_645 S
