# Generated by pormake.
# Topology pcu, (6)-cn, num edge types: 1
# Building blocks:
#     Node 0, Type 0, BuildingBlock: BETFAJ_clean_sbu_0, # of connection points: 6
#     Edge 1, Type (0, 0), BuildingBlock: XIVTED_clean_linker_0, # of connection points: 2
#     Edge 2, Type (0, 0), BuildingBlock: XIVTED_clean_linker_0, # of connection points: 2
#     Edge 3, Type (0, 0), BuildingBlock: XIVTED_clean_linker_0, # of connection points: 2
# Relax obj value: 0.000
# Max RMSD: 0.000
# Mean RMSD: 0.000
data_MOF--net-pcu--node1-BETFAJ_clean_sbu_0--edge1-XIVTED_clean_linker_0
_symmetry_space_group_name_H-M    P1
_symmetry_Int_Tables_number       1
_symmetry_cell_setting            triclinic
loop_
_symmetry_equiv_pos_as_xyz
'x, y, z'
_cell_length_a     25.683735
_cell_length_b     15.652206
_cell_length_c     14.735303
_cell_angle_alpha  87.164213
_cell_angle_beta   95.184497
_cell_angle_gamma 125.11135
loop_
_atom_site_label
_atom_site_type_symbol
_atom_site_fract_x
_atom_site_fract_y
_atom_site_fract_z
_atom_type_partial_charge
Sm0 Sm 0.95299 0.9177 0.01521 0.0
Sm1 Sm 0.09596 0.05112 0.99459 0.0
C2 C 0.83597 0.844 0.06005 0.0
C3 C 0.78952 0.87236 0.05082 0.0
C4 C 0.75635 0.86169 0.12604 0.0
C5 C 0.71066 0.88438 0.11854 0.0
C6 C 0.6967 0.91812 0.03531 0.0
C7 C 0.73056 0.92977 0.96015 0.0
C8 C 0.77652 0.90747 0.96785 0.0
C9 C 0.98494 0.93779 0.83802 0.0
C10 C 0.03159 0.17332 0.99343 0.0
C11 C 0.21315 0.12504 0.95036 0.0
C12 C 0.25954 0.09657 0.95952 0.0
C13 C 0.29269 0.10724 0.88427 0.0
C14 C 0.33838 0.08451 0.89173 0.0
C15 C 0.35234 0.05075 0.97495 0.0
C16 C 0.31849 0.0391 0.05013 0.0
C17 C 0.27255 0.06143 0.04247 0.0
C18 C 0.06361 0.03087 0.1717 0.0
C19 C 1.01733 0.79549 0.01594 0.0
O20 O 0.88721 0.90124 0.1149 0.0
O21 O 0.84761 0.81673 0.9861 0.0
O22 O 1.01228 0.01095 0.89603 0.0
O23 O 0.93754 0.85243 0.87147 0.0
O24 O 0.98339 0.08627 0.02687 0.0
O25 O 0.07943 0.178 0.96123 0.0
O26 O 0.16207 0.06829 0.89512 0.0
O27 O 0.20128 0.15176 0.02442 0.0
O28 O 0.03672 0.95778 0.1137 0.0
O29 O 0.11089 0.11641 0.13827 0.0
O30 O 0.06552 0.88257 0.98252 0.0
O31 O 0.96953 0.79081 0.04831 0.0
H32 H 0.76532 0.83456 0.19071 0.0
H33 H 0.68525 0.87324 0.17768 0.0
H34 H 0.72195 0.95696 0.89533 0.0
H35 H 0.80161 0.91724 0.90871 0.0
H36 H 0.28373 0.1344 0.81962 0.0
H37 H 0.36377 0.09566 0.83258 0.0
H38 H 0.32711 0.01188 0.11493 0.0
H39 H 0.24748 0.05166 0.10164 0.0
H40 H 0.12457 0.1795 0.30493 0.0
H41 H 0.92361 0.78917 0.70474 0.0
H42 H 0.97463 0.85307 0.26106 0.0
H43 H 0.07412 0.1153 0.74864 0.0
H44 H 0.94172 0.81086 0.54262 0.0
H45 H 0.10641 0.15771 0.46701 0.0
C46 C 0.08769 0.10312 0.32946 0.0
C47 C 0.05116 0.01784 0.26943 0.0
C48 C 0.97088 0.87779 0.58751 0.0
C49 C 0.0301 -0.00779 0.45547 0.0
C50 C 0.9606 0.86545 0.68021 0.0
C51 C 0.99731 0.95068 0.74026 0.0
C52 C 1.01832 0.97621 0.55419 0.0
C53 C 0.04466 0.04758 0.7047 0.0
C54 C 0.07739 0.09073 0.42214 0.0
C55 C 1.00396 0.92083 0.305 0.0
N56 N 0.05373 0.05774 0.61402 0.0
N57 N 0.99485 0.91063 0.39567 0.0
H58 H 0.37844 0.95675 0.8503 0.0
H59 H 0.67061 0.01217 0.15991 0.0
H60 H 0.44123 0.09556 0.11861 0.0
H61 H 0.60783 0.87332 0.89162 0.0
H62 H 0.587 0.04287 0.14616 0.0
H63 H 0.46205 0.92605 0.86404 0.0
C64 C 0.40991 0.98132 0.91202 0.0
C65 C 0.40245 0.02916 0.9833 0.0
C66 C 0.59147 0.00569 0.09022 0.0
C67 C 0.49866 -0.00678 0.99979 0.0
C68 C 0.63914 -0.01242 0.09819 0.0
C69 C 0.6466 0.93973 0.02693 0.0
C70 C 0.5504 0.97569 0.01041 0.0
C71 C 0.60473 0.91155 0.94803 0.0
C72 C 0.45759 0.96322 0.91998 0.0
C73 C 0.44433 0.05734 0.0622 0.0
N74 N 0.55856 0.92967 0.94206 0.0
N75 N 0.49049 0.03922 0.06816 0.0
H76 H 0.92519 0.59538 0.06684 0.0
H77 H 0.12375 0.37343 0.94249 0.0
H78 H 0.11244 0.78489 0.96395 0.0
H79 H 0.93639 0.18388 0.04504 0.0
H80 H 0.12034 0.52595 0.94896 0.0
H81 H 0.92856 0.44284 0.06021 0.0
C82 C 0.96696 0.60493 0.04316 0.0
C83 C 1.01841 0.70268 0.0157 0.0
C84 C 0.08001 0.45079 0.96995 0.0
C85 C 1.02262 0.52942 0.00758 0.0
C86 C 0.08194 0.36387 0.96606 0.0
C87 C 0.03048 0.26611 0.99348 0.0
C88 C 0.02624 0.43936 1.00142 0.0
C89 C 0.97739 0.25791 0.02354 0.0
C90 C 0.96887 0.51799 0.03917 0.0
C91 C 0.07145 0.71087 0.98548 0.0
N92 N 0.97672 0.34348 0.02681 0.0
N93 N 0.07211 0.62528 0.98214 0.0
loop_
_geom_bond_atom_site_label_1
_geom_bond_atom_site_label_2
_geom_bond_distance
_geom_bond_site_symmetry_2
_ccdc_geom_bond_type
Sm0 C2 2.846 . S
Sm0 O20 2.543 1_556 S
Sm0 O21 2.450 . S
Sm0 O22 2.681 1_665 S
Sm0 O23 2.464 . S
Sm0 O24 2.396 1_565 S
Sm0 O28 2.386 1_566 S
Sm0 O31 2.408 . S
Sm1 C11 2.846 . S
Sm1 O22 2.386 1_554 S
Sm1 O25 2.408 . S
Sm1 O26 2.543 1_554 S
Sm1 O27 2.450 . S
Sm1 O28 2.681 1_455 S
Sm1 O29 2.464 . S
Sm1 O30 2.396 1_545 S
C2 Sm0 2.846 . S
C2 C3 1.506 . S
C2 O20 1.261 1_556 S
C2 O21 1.242 . S
C3 C2 1.506 . S
C3 C4 1.358 1_566 S
C3 C8 1.382 . S
C4 C3 1.358 1_544 S
C4 C5 1.385 . S
C4 H32 0.930 . S
C5 C4 1.385 . S
C5 C6 1.395 1_544 S
C5 H33 0.929 . S
C6 C5 1.395 1_566 S
C6 C7 1.335 . S
C7 C6 1.335 . S
C7 C8 1.398 . S
C7 H34 0.930 . S
C8 C3 1.382 . S
C8 C7 1.398 . S
C8 H35 0.929 . S
C9 O22 1.271 1_665 S
C9 O23 1.251 . S
C10 O24 1.252 1_455 S
C10 O25 1.272 1_556 S
C11 Sm1 2.846 . S
C11 C12 1.506 . S
C11 O26 1.261 1_554 S
C11 O27 1.242 . S
C12 C11 1.506 . S
C12 C13 1.358 1_544 S
C12 C17 1.382 . S
C13 C12 1.358 1_566 S
C13 C14 1.385 . S
C13 H36 0.930 . S
C14 C13 1.385 . S
C14 C15 1.395 1_566 S
C14 H37 0.929 . S
C15 C14 1.395 1_544 S
C15 C16 1.335 . S
C16 C15 1.335 . S
C16 C17 1.398 . S
C16 H38 0.930 . S
C17 C12 1.382 . S
C17 C16 1.398 . S
C17 H39 0.929 . S
C18 O28 1.271 1_455 S
C18 O29 1.251 . S
C19 O30 1.252 1_655 S
C19 O31 1.272 1_554 S
O20 Sm0 2.543 1_554 S
O20 C2 1.261 1_554 S
O21 Sm0 2.450 . S
O21 C2 1.242 . S
O22 Sm0 2.681 1_445 S
O22 Sm1 2.386 1_556 S
O22 C9 1.271 1_445 S
O23 Sm0 2.464 . S
O23 C9 1.251 . S
O24 Sm0 2.396 1_545 S
O24 C10 1.252 1_655 S
O25 Sm1 2.408 . S
O25 C10 1.272 1_554 S
O26 Sm1 2.543 1_556 S
O26 C11 1.261 1_556 S
O27 Sm1 2.450 . S
O27 C11 1.242 . S
O28 Sm0 2.386 1_544 S
O28 Sm1 2.681 1_655 S
O28 C18 1.271 1_655 S
O29 Sm1 2.464 . S
O29 C18 1.251 . S
O30 Sm1 2.396 1_565 S
O30 C19 1.252 1_455 S
O31 Sm0 2.408 . S
O31 C19 1.272 1_556 S
H32 C4 0.930 . S
H33 C5 0.929 . S
H34 C7 0.930 . S
H35 C8 0.929 . S
H36 C13 0.930 . S
H37 C14 0.929 . S
H38 C16 0.930 . S
H39 C17 0.929 . S
H40 C46 0.930 . S
H41 C50 0.930 . S
H42 C55 0.929 . S
H43 C53 0.929 . S
H44 C48 0.929 . S
H45 C54 0.929 . S
C46 H40 0.930 . S
C46 C47 1.368 1_655 S
C46 C54 1.378 . S
C47 C46 1.368 1_455 S
C47 C55 1.432 1_545 S
C48 H44 0.929 . S
C48 C50 1.378 . S
C48 C52 1.351 . S
C49 C52 1.463 1_645 S
C49 C54 1.349 . S
C49 N57 1.429 1_645 S
C50 H41 0.930 . S
C50 C48 1.378 . S
C50 C51 1.368 . S
C51 C50 1.368 . S
C51 C53 1.432 1_465 S
C52 C48 1.351 . S
C52 C49 1.463 1_465 S
C52 N56 1.426 1_465 S
C53 H43 0.929 . S
C53 C51 1.432 1_645 S
C53 N56 1.384 . S
C54 H45 0.929 . S
C54 C46 1.378 . S
C54 C49 1.349 . S
C55 H42 0.929 . S
C55 C47 1.432 1_565 S
C55 N57 1.384 . S
N56 C52 1.426 1_645 S
N56 C53 1.384 . S
N57 C49 1.429 1_465 S
N57 C55 1.384 . S
H58 C64 0.930 . S
H59 C68 0.930 . S
H60 C73 0.929 . S
H61 C71 0.929 . S
H62 C66 0.929 . S
H63 C72 0.929 . S
C64 H58 0.930 . S
C64 C65 1.375 . S
C64 C72 1.378 . S
C65 C64 1.375 . S
C65 C73 1.433 1_566 S
C66 H62 0.929 . S
C66 C68 1.378 . S
C66 C70 1.350 . S
C67 C70 1.463 1_566 S
C67 C72 1.350 . S
C67 N75 1.427 1_566 S
C68 H59 0.930 . S
C68 C66 1.378 . S
C68 C69 1.367 . S
C69 C68 1.367 . S
C69 C71 1.433 1_544 S
C70 C66 1.350 . S
C70 C67 1.463 1_544 S
C70 N74 1.427 1_544 S
C71 H61 0.929 . S
C71 C69 1.433 1_566 S
C71 N74 1.384 . S
C72 H63 0.929 . S
C72 C64 1.378 . S
C72 C67 1.350 . S
C73 H60 0.929 . S
C73 C65 1.433 1_544 S
C73 N75 1.384 . S
N74 C70 1.427 1_566 S
N74 C71 1.384 . S
N75 C67 1.427 1_544 S
N75 C73 1.384 . S
H76 C82 0.930 . S
H77 C86 0.930 . S
H78 C91 0.929 . S
H79 C89 0.929 . S
H80 C84 0.929 . S
H81 C90 0.929 . S
C82 H76 0.930 . S
C82 C83 1.370 . S
C82 C90 1.378 . S
C83 C82 1.370 . S
C83 C91 1.435 1_454 S
C84 H80 0.929 . S
C84 C86 1.378 . S
C84 C88 1.349 . S
C85 C88 1.472 1_454 S
C85 C90 1.348 . S
C85 N93 1.423 1_454 S
C86 H77 0.930 . S
C86 C84 1.378 . S
C86 C87 1.368 . S
C87 C86 1.368 . S
C87 C89 1.434 1_656 S
C88 C84 1.349 . S
C88 C85 1.472 1_656 S
C88 N92 1.425 1_656 S
C89 H79 0.929 . S
C89 C87 1.434 1_454 S
C89 N92 1.384 . S
C90 H81 0.929 . S
C90 C82 1.378 . S
C90 C85 1.348 . S
C91 H78 0.929 . S
C91 C83 1.435 1_656 S
C91 N93 1.384 . S
N92 C88 1.425 1_454 S
N92 C89 1.384 . S
N93 C85 1.423 1_656 S
N93 C91 1.384 . S
C47 C18 1.453 . S
C51 C9 1.453 1_455 S
C65 C15 1.492 1_566 S
C69 C6 1.500 1_544 S
C83 C19 1.482 1_455 S
C87 C10 1.486 1_655 S
