# Generated by pormake.
# Topology lon, (4)-cn, num edge types: 1
# Building blocks:
#     Node 0, Type 0, BuildingBlock: AZAVOO_clean_sbu_0, # of connection points: 4
#     Node 1, Type 0, BuildingBlock: AZAVOO_clean_sbu_0, # of connection points: 4
#     Node 2, Type 0, BuildingBlock: AZAVOO_clean_sbu_0, # of connection points: 4
#     Node 3, Type 0, BuildingBlock: AZAVOO_clean_sbu_0, # of connection points: 4
#     Edge 4, Type (0, 0), BuildingBlock: OJICUG_clean_linker_0, # of connection points: 2
#     Edge 5, Type (0, 0), BuildingBlock: OJICUG_clean_linker_0, # of connection points: 2
#     Edge 6, Type (0, 0), BuildingBlock: OJICUG_clean_linker_0, # of connection points: 2
#     Edge 7, Type (0, 0), BuildingBlock: OJICUG_clean_linker_0, # of connection points: 2
#     Edge 8, Type (0, 0), BuildingBlock: OJICUG_clean_linker_0, # of connection points: 2
#     Edge 9, Type (0, 0), BuildingBlock: OJICUG_clean_linker_0, # of connection points: 2
#     Edge 10, Type (0, 0), BuildingBlock: OJICUG_clean_linker_0, # of connection points: 2
#     Edge 11, Type (0, 0), BuildingBlock: OJICUG_clean_linker_0, # of connection points: 2
# Relax obj value: 0.024
# Max RMSD: 0.075
# Mean RMSD: 0.064
data_MOF--net-lon--node1-AZAVOO_clean_sbu_0--edge1-OJICUG_clean_linker_0
_symmetry_space_group_name_H-M    P1
_symmetry_Int_Tables_number       1
_symmetry_cell_setting            triclinic
loop_
_symmetry_equiv_pos_as_xyz
'x, y, z'
_cell_length_a     18.320676
_cell_length_b     17.352025
_cell_length_c     31.506332
_cell_angle_alpha  100.47633
_cell_angle_beta   90.044245
_cell_angle_gamma 121.72113
loop_
_atom_site_label
_atom_site_type_symbol
_atom_site_fract_x
_atom_site_fract_y
_atom_site_fract_z
_atom_type_partial_charge
Mg0 Mg 0.46316 0.72186 0.07388 0.0
O1 O 0.31877 0.63458 0.04727 0.0
O2 O 0.25546 0.70498 0.08124 0.0
Mg3 Mg 0.3577 0.83584 0.12893 0.0
C4 C 0.25199 0.63899 0.05369 0.0
C5 C 0.56582 0.64826 0.02338 0.0
O6 O 0.62069 0.70451 0.0579 0.0
O7 O 0.48518 0.82792 0.03535 0.0
O8 O 0.42285 0.89865 0.07053 0.0
O9 O 0.43892 0.6454 0.12602 0.0
O10 O 0.43353 0.77155 0.13212 0.0
C11 C 0.46527 0.88893 0.04004 0.0
C12 C 0.42362 0.70447 0.14877 0.0
O13 O 0.4934 0.64123 0.01906 0.0
Mg14 Mg 0.67218 0.40695 0.57218 0.0
O15 O 0.58221 0.25257 0.54052 0.0
O16 O 0.46279 0.20329 0.57436 0.0
Mg17 Mg 0.48484 0.31813 0.63214 0.0
C18 C 0.50528 0.18981 0.54493 0.0
C19 C 0.83162 0.48516 0.52881 0.0
O20 O 0.85563 0.51271 0.57087 0.0
O21 O 0.58207 0.4361 0.54106 0.0
O22 O 0.47355 0.39586 0.58229 0.0
O23 O 0.74087 0.37689 0.61693 0.0
O24 O 0.62556 0.38306 0.63139 0.0
C25 C 0.51213 0.43052 0.55051 0.0
C26 C 0.68435 0.36903 0.6433 0.0
O27 O 0.75155 0.43434 0.51541 0.0
Mg28 Mg 0.2802 0.62452 0.39217 0.0
O29 O 0.34483 0.77902 0.42369 0.0
O30 O 0.27483 0.82887 0.38995 0.0
Mg31 Mg 0.1818 0.71404 0.3323 0.0
C32 C 0.33085 0.84209 0.4193 0.0
C33 C 0.36214 0.54663 0.4356 0.0
O34 O 0.35871 0.51906 0.39354 0.0
O35 O 0.16145 0.59609 0.42343 0.0
O36 O 0.09315 0.63665 0.38224 0.0
O37 O 0.37844 0.65393 0.34733 0.0
O38 O 0.2572 0.64831 0.33291 0.0
C39 C 0.09721 0.60197 0.41403 0.0
C40 C 0.3298 0.66195 0.32095 0.0
O41 O 0.33246 0.59721 0.44895 0.0
Mg42 Mg 0.75689 0.3082 0.89042 0.0
O43 O 0.69978 0.39588 0.91685 0.0
O44 O 0.56645 0.32583 0.88272 0.0
Mg45 Mg 0.53809 0.19488 0.83506 0.0
C46 C 0.62873 0.39169 0.91033 0.0
C47 C 0.93304 0.38207 0.94083 0.0
O48 O 0.93194 0.32622 0.90617 0.0
O49 O 0.6728 0.20232 0.92894 0.0
O50 O 0.54018 0.13203 0.89354 0.0
O51 O 0.80922 0.38453 0.83827 0.0
O52 O 0.67793 0.2587 0.83209 0.0
C53 C 0.59205 0.14156 0.92415 0.0
C54 C 0.73506 0.32564 0.81546 0.0
O55 O 0.86744 0.38869 0.94531 0.0
C56 C 0.34471 0.7249 0.21073 0.0
C57 C 0.39882 0.69593 0.19281 0.0
H58 H 0.27856 0.73543 0.26574 0.0
C59 C 0.43095 0.65852 0.21757 0.0
H60 H 0.31889 0.75363 0.1921 0.0
C61 C 0.40995 0.65043 0.25957 0.0
C62 C 0.35455 0.67742 0.27743 0.0
H63 H 0.4733 0.63632 0.20462 0.0
H64 H 0.43572 0.62085 0.27771 0.0
C65 C 0.32159 0.71439 0.25268 0.0
C66 C 0.62369 0.3166 0.7115 0.0
C67 C 0.69349 0.35318 0.68678 0.0
H68 H 0.58171 0.27752 0.77206 0.0
C69 C 0.77559 0.3795 0.70464 0.0
H70 H 0.55984 0.29606 0.69844 0.0
C71 C 0.78837 0.37122 0.74664 0.0
C72 C 0.71897 0.33426 0.77138 0.0
H73 H 0.83084 0.40876 0.68652 0.0
H74 H 0.85271 0.39294 0.75961 0.0
C75 C 0.63615 0.30589 0.75344 0.0
C76 C 0.52348 0.52199 0.95735 0.0
C77 C 0.58508 0.58811 -0.00782 0.0
H78 H 0.48897 0.40869 0.90417 0.0
C79 C 0.66355 0.59292 -0.00174 0.0
H80 H 0.46248 0.51659 0.95164 0.0
C81 C 0.67889 0.53095 0.97099 0.0
C82 C 0.61602 0.46263 0.93704 0.0
H83 H 0.71256 0.6433 0.02471 0.0
H84 H 0.73925 0.5353 0.97721 0.0
C85 C 0.53873 0.45997 0.93012 0.0
C86 C 0.04597 0.56865 0.48533 0.0
C87 C 0.02757 0.5709 0.44245 0.0
H88 H 0.99857 0.54042 0.54603 0.0
C89 C 0.94324 0.54347 0.42766 0.0
H90 H 0.11044 0.58988 0.49779 0.0
C91 C 0.87833 0.51351 0.45536 0.0
C92 C 0.89757 0.51267 0.49841 0.0
H93 H 0.92734 0.5443 0.3947 0.0
H94 H 0.81371 0.49259 0.44339 0.0
C95 C 0.98193 0.54063 0.51306 0.0
C96 C 0.4765 0.04569 0.96768 0.0
C97 C 0.5586 0.07725 0.95389 0.0
H98 H 0.38302 0.96225 0.007 0.0
C99 C 0.60918 0.04637 0.96848 0.0
H100 H 0.43654 0.06889 0.95685 0.0
C101 C 0.57784 0.98391 -0.00406 0.0
C102 C 0.4964 0.95333 0.01033 0.0
H103 H 0.6725 0.06935 0.95807 0.0
H104 H 0.61797 0.96068 0.00652 0.0
C105 C 0.44614 0.98522 -0.00366 0.0
C106 C 0.41625 0.4888 0.53682 0.0
C107 C 0.47346 0.46168 0.52209 0.0
H108 H 0.33695 0.53915 0.521 0.0
C109 C 0.49415 0.46411 0.47924 0.0
H110 H 0.39947 0.48782 0.56976 0.0
C111 C 0.45778 0.4919 0.45147 0.0
C112 C 0.401 0.51945 0.46605 0.0
H113 H 0.53763 0.44312 0.46682 0.0
H114 H 0.47464 0.49221 0.41851 0.0
C115 C 0.38094 0.51853 0.50908 0.0
C116 C 0.09389 0.57062 0.03397 0.0
C117 C 0.16854 0.56805 0.02699 0.0
H118 H 0.9611 0.51379 0.01257 0.0
C119 C 0.16327 0.49973 -0.00696 0.0
H120 H 0.09528 0.62188 0.05994 0.0
C121 C 0.08607 0.43765 0.96582 0.0
C122 C 1.01235 0.44234 0.97197 0.0
H123 H 0.2193 0.49546 -0.01323 0.0
H124 H 0.08482 0.38728 0.93937 0.0
C125 C 0.01674 0.50847 0.00681 0.0
C126 C 0.37411 0.05777 0.49774 0.0
C127 C 0.46154 0.1004 0.51317 0.0
H128 H 0.26515 0.94378 0.45499 0.0
C129 C 0.50649 0.05804 0.49718 0.0
H130 H 0.33824 0.08945 0.50928 0.0
C131 C 0.46397 0.97329 0.46689 0.0
C132 C 0.37685 0.9316 0.45099 0.0
H133 H 0.574 0.08973 0.50861 0.0
H134 H 0.49941 0.94105 0.45542 0.0
C135 C 0.33255 0.97494 0.46647 0.0
loop_
_geom_bond_atom_site_label_1
_geom_bond_atom_site_label_2
_geom_bond_distance
_geom_bond_site_symmetry_2
_ccdc_geom_bond_type
Mg0 O1 2.028 . S
Mg0 O7 1.986 . S
Mg0 O9 2.114 . S
Mg0 O10 2.251 . S
Mg0 O13 2.010 . S
O1 Mg0 2.028 . S
O1 C4 1.250 . S
O2 Mg3 2.028 . S
O2 C4 1.248 . S
Mg3 O2 2.028 . S
Mg3 O8 2.032 . S
Mg3 O10 2.079 . S
C4 O1 1.250 . S
C4 O2 1.248 . S
C5 O6 1.264 . S
C5 O13 1.249 . S
O6 C5 1.264 . S
O7 Mg0 1.986 . S
O7 C11 1.246 . S
O8 Mg3 2.032 . S
O8 C11 1.259 . S
O9 Mg0 2.114 . S
O9 C12 1.252 . S
O10 Mg0 2.251 . S
O10 Mg3 2.079 . S
O10 C12 1.273 . S
C11 O7 1.246 . S
C11 O8 1.259 . S
C12 O9 1.252 . S
C12 O10 1.273 . S
O13 Mg0 2.010 . S
O13 C5 1.249 . S
Mg14 O15 2.028 . S
Mg14 O21 1.986 . S
Mg14 O23 2.114 . S
Mg14 O24 2.251 . S
Mg14 O27 2.010 . S
O15 Mg14 2.028 . S
O15 C18 1.250 . S
O16 Mg17 2.028 . S
O16 C18 1.248 . S
Mg17 O16 2.028 . S
Mg17 O22 2.032 . S
Mg17 O24 2.079 . S
C18 O15 1.250 . S
C18 O16 1.248 . S
C19 O20 1.264 . S
C19 O27 1.249 . S
O20 C19 1.264 . S
O21 Mg14 1.986 . S
O21 C25 1.246 . S
O22 Mg17 2.032 . S
O22 C25 1.259 . S
O23 Mg14 2.114 . S
O23 C26 1.252 . S
O24 Mg14 2.251 . S
O24 Mg17 2.079 . S
O24 C26 1.273 . S
C25 O21 1.246 . S
C25 O22 1.259 . S
C26 O23 1.252 . S
C26 O24 1.273 . S
O27 Mg14 2.010 . S
O27 C19 1.249 . S
Mg28 O29 2.028 . S
Mg28 O35 1.986 . S
Mg28 O37 2.114 . S
Mg28 O38 2.251 . S
Mg28 O41 2.010 . S
O29 Mg28 2.028 . S
O29 C32 1.250 . S
O30 Mg31 2.028 . S
O30 C32 1.248 . S
Mg31 O30 2.028 . S
Mg31 O36 2.032 . S
Mg31 O38 2.079 . S
C32 O29 1.250 . S
C32 O30 1.248 . S
C33 O34 1.264 . S
C33 O41 1.249 . S
O34 C33 1.264 . S
O35 Mg28 1.986 . S
O35 C39 1.246 . S
O36 Mg31 2.032 . S
O36 C39 1.259 . S
O37 Mg28 2.114 . S
O37 C40 1.252 . S
O38 Mg28 2.251 . S
O38 Mg31 2.079 . S
O38 C40 1.273 . S
C39 O35 1.246 . S
C39 O36 1.259 . S
C40 O37 1.252 . S
C40 O38 1.273 . S
O41 Mg28 2.010 . S
O41 C33 1.249 . S
Mg42 O43 2.028 . S
Mg42 O49 1.986 . S
Mg42 O51 2.114 . S
Mg42 O52 2.251 . S
Mg42 O55 2.010 . S
O43 Mg42 2.028 . S
O43 C46 1.250 . S
O44 Mg45 2.028 . S
O44 C46 1.248 . S
Mg45 O44 2.028 . S
Mg45 O50 2.032 . S
Mg45 O52 2.079 . S
C46 O43 1.250 . S
C46 O44 1.248 . S
C47 O48 1.264 . S
C47 O55 1.249 . S
O48 C47 1.264 . S
O49 Mg42 1.986 . S
O49 C53 1.246 . S
O50 Mg45 2.032 . S
O50 C53 1.259 . S
O51 Mg42 2.114 . S
O51 C54 1.252 . S
O52 Mg42 2.251 . S
O52 Mg45 2.079 . S
O52 C54 1.273 . S
C53 O49 1.246 . S
C53 O50 1.259 . S
C54 O51 1.252 . S
C54 O52 1.273 . S
O55 Mg42 2.010 . S
O55 C47 1.249 . S
C56 C57 1.387 . S
C56 H60 0.950 . S
C56 C65 1.390 . S
C57 C56 1.387 . S
C57 C59 1.387 . S
H58 C65 0.950 . S
C59 C57 1.387 . S
C59 C61 1.390 . S
C59 H63 0.950 . S
H60 C56 0.950 . S
C61 C59 1.390 . S
C61 C62 1.387 . S
C61 H64 0.950 . S
C62 C61 1.387 . S
C62 C65 1.387 . S
H63 C59 0.950 . S
H64 C61 0.950 . S
C65 C56 1.390 . S
C65 H58 0.950 . S
C65 C62 1.387 . S
C66 C67 1.387 . S
C66 H70 0.950 . S
C66 C75 1.390 . S
C67 C66 1.387 . S
C67 C69 1.387 . S
H68 C75 0.950 . S
C69 C67 1.387 . S
C69 C71 1.390 . S
C69 H73 0.950 . S
H70 C66 0.950 . S
C71 C69 1.390 . S
C71 C72 1.387 . S
C71 H74 0.950 . S
C72 C71 1.387 . S
C72 C75 1.387 . S
H73 C69 0.950 . S
H74 C71 0.950 . S
C75 C66 1.390 . S
C75 H68 0.950 . S
C75 C72 1.387 . S
C76 C77 1.387 1_556 S
C76 H80 0.950 . S
C76 C85 1.390 . S
C77 C76 1.387 1_554 S
C77 C79 1.387 . S
H78 C85 0.950 . S
C79 C77 1.387 . S
C79 C81 1.390 . S
C79 H83 0.950 . S
H80 C76 0.950 . S
C81 C79 1.390 . S
C81 C82 1.387 1_554 S
C81 H84 0.950 . S
C82 C81 1.387 1_556 S
C82 C85 1.387 . S
H83 C79 0.950 . S
H84 C81 0.950 . S
C85 C76 1.390 . S
C85 H78 0.950 . S
C85 C82 1.387 . S
C86 C87 1.387 . S
C86 H90 0.950 . S
C86 C95 1.390 1_455 S
C87 C86 1.387 . S
C87 C89 1.387 . S
H88 C95 0.950 . S
C89 C87 1.387 . S
C89 C91 1.390 1_455 S
C89 H93 0.950 . S
H90 C86 0.950 . S
C91 C89 1.390 1_655 S
C91 C92 1.387 . S
C91 H94 0.950 . S
C92 C91 1.387 . S
C92 C95 1.387 . S
H93 C89 0.950 . S
H94 C91 0.950 . S
C95 C86 1.390 1_655 S
C95 H88 0.950 . S
C95 C92 1.387 . S
C96 C97 1.387 . S
C96 H100 0.950 . S
C96 C105 1.390 1_546 S
C97 C96 1.387 . S
C97 C99 1.387 . S
H98 C105 0.950 . S
C99 C97 1.387 . S
C99 C101 1.390 1_546 S
C99 H103 0.950 . S
H100 C96 0.950 . S
C101 C99 1.390 1_564 S
C101 C102 1.387 . S
C101 H104 0.950 . S
C102 C101 1.387 . S
C102 C105 1.387 . S
H103 C99 0.950 . S
H104 C101 0.950 . S
C105 C96 1.390 1_564 S
C105 H98 0.950 . S
C105 C102 1.387 . S
C106 C107 1.387 . S
C106 H110 0.950 . S
C106 C115 1.390 . S
C107 C106 1.387 . S
C107 C109 1.387 . S
H108 C115 0.950 . S
C109 C107 1.387 . S
C109 C111 1.390 . S
C109 H113 0.950 . S
H110 C106 0.950 . S
C111 C109 1.390 . S
C111 C112 1.387 . S
C111 H114 0.950 . S
C112 C111 1.387 . S
C112 C115 1.387 . S
H113 C109 0.950 . S
H114 C111 0.950 . S
C115 C106 1.390 . S
C115 H108 0.950 . S
C115 C112 1.387 . S
C116 C117 1.387 . S
C116 H120 0.950 . S
C116 C125 1.390 1_455 S
C117 C116 1.387 . S
C117 C119 1.387 1_554 S
H118 C125 0.950 . S
C119 C117 1.387 1_556 S
C119 C121 1.390 . S
C119 H123 0.950 . S
H120 C116 0.950 . S
C121 C119 1.390 . S
C121 C122 1.387 1_455 S
C121 H124 0.950 1_455 S
C122 C121 1.387 1_655 S
C122 C125 1.387 1_556 S
H123 C119 0.950 . S
H124 C121 0.950 1_655 S
C125 C116 1.390 1_655 S
C125 H118 0.950 . S
C125 C122 1.387 1_554 S
C126 C127 1.387 . S
C126 H130 0.950 . S
C126 C135 1.390 1_545 S
C127 C126 1.387 . S
C127 C129 1.387 . S
H128 C135 0.950 . S
C129 C127 1.387 . S
C129 C131 1.390 1_545 S
C129 H133 0.950 . S
H130 C126 0.950 . S
C131 C129 1.390 1_565 S
C131 C132 1.387 . S
C131 H134 0.950 . S
C132 C131 1.387 . S
C132 C135 1.387 . S
H133 C129 0.950 . S
H134 C131 0.950 . S
C135 C126 1.390 1_565 S
C135 H128 0.950 . S
C135 C132 1.387 . S
C57 C12 1.505 . S
C62 C40 1.505 . S
C67 C26 1.505 . S
C72 C54 1.505 . S
C77 C5 1.269 . S
C82 C46 1.543 . S
C87 C39 1.430 . S
C92 C19 1.131 . S
C97 C53 1.328 . S
C102 C11 1.328 . S
C107 C25 1.429 . S
C112 C33 1.137 . S
C117 C4 1.542 . S
C122 C47 1.268 . S
C127 C18 1.640 . S
C132 C32 1.640 . S
