# Generated by pormake.
# Topology ukb, (4)-cn, num edge types: 1
# Building blocks:
#     Node 0, Type 0, BuildingBlock: GALJAG_clean_sbu_0, # of connection points: 4
#     Node 1, Type 0, BuildingBlock: GALJAG_clean_sbu_0, # of connection points: 4
#     Node 2, Type 0, BuildingBlock: GALJAG_clean_sbu_0, # of connection points: 4
#     Node 3, Type 0, BuildingBlock: GALJAG_clean_sbu_0, # of connection points: 4
#     Node 4, Type 0, BuildingBlock: GALJAG_clean_sbu_0, # of connection points: 4
#     Node 5, Type 0, BuildingBlock: GALJAG_clean_sbu_0, # of connection points: 4
#     Node 6, Type 0, BuildingBlock: GALJAG_clean_sbu_0, # of connection points: 4
#     Node 7, Type 0, BuildingBlock: GALJAG_clean_sbu_0, # of connection points: 4
#     Node 8, Type 0, BuildingBlock: GALJAG_clean_sbu_0, # of connection points: 4
#     Node 9, Type 0, BuildingBlock: GALJAG_clean_sbu_0, # of connection points: 4
#     Node 10, Type 0, BuildingBlock: GALJAG_clean_sbu_0, # of connection points: 4
#     Node 11, Type 0, BuildingBlock: GALJAG_clean_sbu_0, # of connection points: 4
#     Node 12, Type 0, BuildingBlock: GALJAG_clean_sbu_0, # of connection points: 4
#     Node 13, Type 0, BuildingBlock: GALJAG_clean_sbu_0, # of connection points: 4
#     Node 14, Type 0, BuildingBlock: GALJAG_clean_sbu_0, # of connection points: 4
#     Node 15, Type 0, BuildingBlock: GALJAG_clean_sbu_0, # of connection points: 4
#     Edge 16, Type (0, 0), None
#     Edge 17, Type (0, 0), None
#     Edge 18, Type (0, 0), None
#     Edge 19, Type (0, 0), None
#     Edge 20, Type (0, 0), None
#     Edge 21, Type (0, 0), None
#     Edge 22, Type (0, 0), None
#     Edge 23, Type (0, 0), None
#     Edge 24, Type (0, 0), None
#     Edge 25, Type (0, 0), None
#     Edge 26, Type (0, 0), None
#     Edge 27, Type (0, 0), None
#     Edge 28, Type (0, 0), None
#     Edge 29, Type (0, 0), None
#     Edge 30, Type (0, 0), None
#     Edge 31, Type (0, 0), None
#     Edge 32, Type (0, 0), None
#     Edge 33, Type (0, 0), None
#     Edge 34, Type (0, 0), None
#     Edge 35, Type (0, 0), None
#     Edge 36, Type (0, 0), None
#     Edge 37, Type (0, 0), None
#     Edge 38, Type (0, 0), None
#     Edge 39, Type (0, 0), None
#     Edge 40, Type (0, 0), None
#     Edge 41, Type (0, 0), None
#     Edge 42, Type (0, 0), None
#     Edge 43, Type (0, 0), None
#     Edge 44, Type (0, 0), None
#     Edge 45, Type (0, 0), None
#     Edge 46, Type (0, 0), None
#     Edge 47, Type (0, 0), None
# Relax obj value: 0.140
# Max RMSD: 0.093
# Mean RMSD: 0.093
data_MOF--net-ukb--node1-GALJAG_clean_sbu_0--edge1-none
_symmetry_space_group_name_H-M    P1
_symmetry_Int_Tables_number       1
_symmetry_cell_setting            triclinic
loop_
_symmetry_equiv_pos_as_xyz
'x, y, z'
_cell_length_a     19.930791
_cell_length_b     19.930794
_cell_length_c     17.028708
_cell_angle_alpha  90.000831
_cell_angle_beta   89.999169
_cell_angle_gamma 89.999293
loop_
_atom_site_label
_atom_site_type_symbol
_atom_site_fract_x
_atom_site_fract_y
_atom_site_fract_z
_atom_type_partial_charge
In0 In 0.52602 0.19928 0.18671 0.0
O1 O 0.60201 0.11284 0.16552 0.0
O2 O 0.59759 0.15833 0.27787 0.0
C3 C 0.5073 0.23804 0.03774 0.0
C4 C 0.41084 0.13908 0.2332 0.0
C5 C 0.58011 0.31571 0.23435 0.0
O6 O 0.53208 0.18157 0.05521 0.0
O7 O 0.49031 0.27443 0.09516 0.0
O8 O 0.52655 0.29373 0.26515 0.0
O9 O 0.60414 0.28022 0.1799 0.0
C10 C 0.62504 0.11554 0.23442 0.0
O11 O 0.44585 0.1743 0.27898 0.0
O12 O 0.43173 0.13725 0.16367 0.0
In13 In 0.30173 0.52602 0.6867 0.0
O14 O 0.32672 0.44586 0.77897 0.0
O15 O 0.36376 0.43173 0.66367 0.0
C16 C 0.1853 0.58011 0.73434 0.0
C17 C 0.38547 0.62504 0.73441 0.0
C18 C 0.26298 0.5073 0.53773 0.0
O19 O 0.20729 0.52655 0.76514 0.0
O20 O 0.22079 0.60414 0.67989 0.0
O21 O 0.31945 0.53208 0.5552 0.0
O22 O 0.2266 0.49031 0.59515 0.0
C23 C 0.36194 0.41084 0.7332 0.0
O24 O 0.38818 0.602 0.66551 0.0
O25 O 0.34268 0.5976 0.77786 0.0
In26 In 0.97499 0.30173 0.18671 0.0
O27 O 0.05516 0.32672 0.27898 0.0
O28 O 0.06928 0.36376 0.16367 0.0
C29 C 0.92091 0.1853 0.23434 0.0
C30 C 0.87597 0.38548 0.23442 0.0
C31 C 0.99371 0.26298 0.03774 0.0
O32 O 0.97446 0.20729 0.26515 0.0
O33 O 0.89687 0.22079 0.1799 0.0
O34 O 0.96893 0.31945 0.05521 0.0
O35 O 0.0107 0.22659 0.09515 0.0
C36 C 0.09018 0.36194 0.2332 0.0
O37 O 0.89901 0.38818 0.16552 0.0
O38 O 0.90342 0.34268 0.27787 0.0
In39 In 0.19928 0.97499 0.6867 0.0
O40 O 0.17429 0.05516 0.77898 0.0
O41 O 0.13725 0.06928 0.66367 0.0
C42 C 0.31571 0.9209 0.73434 0.0
C43 C 0.11554 0.87597 0.73441 0.0
C44 C 0.23804 0.99371 0.53774 0.0
O45 O 0.29372 0.97446 0.76515 0.0
O46 O 0.28023 0.89687 0.67989 0.0
O47 O 0.18157 0.96893 0.5552 0.0
O48 O 0.27442 0.0107 0.59515 0.0
C49 C 0.13907 0.09018 0.7332 0.0
O50 O 0.11284 0.89901 0.66552 0.0
O51 O 0.15833 0.90341 0.77786 0.0
In52 In 0.52604 0.30172 0.80825 0.0
O53 O 0.60205 0.38813 0.82942 0.0
O54 O 0.59757 0.34268 0.71705 0.0
C55 C 0.50733 0.26292 0.9572 0.0
C56 C 0.41089 0.36197 0.76181 0.0
C57 C 0.58013 0.1853 0.76059 0.0
O58 O 0.53213 0.31938 0.93976 0.0
O59 O 0.49029 0.22657 0.89978 0.0
O60 O 0.52658 0.2073 0.72978 0.0
O61 O 0.60416 0.22077 0.81506 0.0
C62 C 0.62505 0.38545 0.7605 0.0
O63 O 0.44579 0.32663 0.71605 0.0
O64 O 0.43184 0.36387 0.83131 0.0
In65 In 0.1993 0.52603 0.30824 0.0
O66 O 0.17439 0.44578 0.21604 0.0
O67 O 0.13714 0.43184 0.33131 0.0
C68 C 0.31572 0.58013 0.26058 0.0
C69 C 0.11556 0.62505 0.26049 0.0
C70 C 0.2381 0.50733 0.45719 0.0
O71 O 0.29372 0.52658 0.22977 0.0
O72 O 0.28024 0.60416 0.31505 0.0
O73 O 0.18164 0.53213 0.43975 0.0
O74 O 0.27445 0.49029 0.39977 0.0
C75 C 0.13904 0.41088 0.26181 0.0
O76 O 0.11289 0.60205 0.32941 0.0
O77 O 0.15833 0.59756 0.21704 0.0
In78 In 0.97498 0.1993 0.80825 0.0
O79 O 0.89896 0.11288 0.82942 0.0
O80 O 0.90344 0.15833 0.71705 0.0
C81 C 0.99368 0.2381 0.9572 0.0
C82 C 0.09013 0.13904 0.76181 0.0
C83 C 0.92088 0.31572 0.76059 0.0
O84 O 0.96888 0.18163 0.93975 0.0
O85 O 0.01072 0.27445 0.89978 0.0
O86 O 0.97443 0.29371 0.72977 0.0
O87 O 0.89686 0.28025 0.81506 0.0
C88 C 0.87596 0.11556 0.7605 0.0
O89 O 0.05523 0.17439 0.71604 0.0
O90 O 0.06917 0.13714 0.83131 0.0
In91 In 0.30171 0.97498 0.30824 0.0
O92 O 0.38813 0.89897 0.32941 0.0
O93 O 0.34269 0.90345 0.21704 0.0
C94 C 0.26291 0.99368 0.4572 0.0
C95 C 0.36197 0.09013 0.26181 0.0
C96 C 0.1853 0.92088 0.26058 0.0
O97 O 0.31938 0.96889 0.43975 0.0
O98 O 0.22656 0.01072 0.39977 0.0
O99 O 0.2073 0.97443 0.22977 0.0
O100 O 0.22077 0.89686 0.31505 0.0
C101 C 0.38545 0.87597 0.26049 0.0
O102 O 0.32663 0.05523 0.21604 0.0
O103 O 0.36387 0.06918 0.33131 0.0
In104 In 0.47499 0.80172 0.80819 0.0
O105 O 0.55514 0.82675 0.71592 0.0
O106 O 0.56927 0.86376 0.83124 0.0
C107 C 0.42095 0.68526 0.76056 0.0
C108 C 0.37591 0.88539 0.7605 0.0
C109 C 0.4937 0.76297 0.95717 0.0
O110 O 0.47449 0.70728 0.72974 0.0
O111 O 0.39692 0.72072 0.81503 0.0
O112 O 0.46888 0.81942 0.93969 0.0
O113 O 0.51073 0.7266 0.89976 0.0
C114 C 0.59016 0.86196 0.7617 0.0
O115 O 0.39901 0.88818 0.82936 0.0
O116 O 0.40334 0.84258 0.71706 0.0
In117 In 0.6993 0.47498 0.3082 0.0
O118 O 0.61283 0.39902 0.32937 0.0
O119 O 0.65844 0.40333 0.21707 0.0
C120 C 0.73803 0.4937 0.45718 0.0
C121 C 0.63905 0.59015 0.2617 0.0
C122 C 0.81575 0.42095 0.26057 0.0
O123 O 0.68158 0.46888 0.4397 0.0
O124 O 0.77441 0.51073 0.39977 0.0
O125 O 0.79373 0.47449 0.22975 0.0
O126 O 0.78029 0.39692 0.31504 0.0
C127 C 0.61562 0.3759 0.26051 0.0
O128 O 0.67426 0.55513 0.21592 0.0
O129 O 0.63726 0.56927 0.33124 0.0
In130 In 0.02603 0.6993 0.80819 0.0
O131 O 0.102 0.61283 0.82936 0.0
O132 O 0.09768 0.65843 0.71706 0.0
C133 C 0.00732 0.73804 0.95717 0.0
C134 C 0.91086 0.63906 0.7617 0.0
C135 C 0.08006 0.81575 0.76056 0.0
O136 O 0.03214 0.68159 0.93969 0.0
O137 O 0.99029 0.77441 0.89976 0.0
O138 O 0.02652 0.79373 0.72974 0.0
O139 O 0.10409 0.78029 0.81503 0.0
C140 C 0.12511 0.61562 0.7605 0.0
O141 O 0.94588 0.67426 0.71592 0.0
O142 O 0.93174 0.63726 0.83124 0.0
In143 In 0.80172 0.02603 0.3082 0.0
O144 O 0.82675 0.94588 0.21592 0.0
O145 O 0.86375 0.93175 0.33124 0.0
C146 C 0.68526 0.08006 0.26057 0.0
C147 C 0.88539 0.12511 0.2605 0.0
C148 C 0.76298 0.00732 0.45717 0.0
O149 O 0.70728 0.02652 0.22974 0.0
O150 O 0.72072 0.10409 0.31504 0.0
O151 O 0.81943 0.03214 0.4397 0.0
O152 O 0.7266 0.99029 0.39976 0.0
C153 C 0.86196 0.91086 0.2617 0.0
O154 O 0.88818 0.102 0.32936 0.0
O155 O 0.84258 0.09769 0.21707 0.0
In156 In 0.47497 0.69931 0.18666 0.0
O157 O 0.39897 0.61287 0.16552 0.0
O158 O 0.40336 0.65844 0.27783 0.0
C159 C 0.49367 0.7381 0.03771 0.0
C160 C 0.5901 0.63902 0.2331 0.0
C161 C 0.42093 0.81576 0.23432 0.0
O162 O 0.46883 0.68165 0.05516 0.0
O163 O 0.51075 0.77444 0.09512 0.0
O164 O 0.47446 0.79372 0.26515 0.0
O165 O 0.39691 0.78031 0.17983 0.0
C166 C 0.3759 0.61565 0.23439 0.0
O167 O 0.5552 0.67436 0.27888 0.0
O168 O 0.56916 0.63715 0.1636 0.0
In169 In 0.8017 0.47497 0.68667 0.0
O170 O 0.82665 0.55521 0.77888 0.0
O171 O 0.86387 0.56916 0.6636 0.0
C172 C 0.68526 0.42093 0.73433 0.0
C173 C 0.88537 0.3759 0.7344 0.0
C174 C 0.76291 0.49367 0.53772 0.0
O175 O 0.70729 0.47446 0.76516 0.0
O176 O 0.7207 0.3969 0.67984 0.0
O177 O 0.81936 0.46883 0.55517 0.0
O178 O 0.72657 0.51075 0.59513 0.0
C179 C 0.86199 0.59011 0.73311 0.0
O180 O 0.88813 0.39897 0.66552 0.0
O181 O 0.84258 0.40337 0.77785 0.0
In182 In 0.02605 0.8017 0.18667 0.0
O183 O 0.10204 0.88814 0.16552 0.0
O184 O 0.09766 0.84258 0.27784 0.0
C185 C 0.00735 0.76291 0.03771 0.0
C186 C 0.91091 0.86199 0.23311 0.0
C187 C 0.08008 0.68526 0.23433 0.0
O188 O 0.03219 0.81936 0.05516 0.0
O189 O 0.99027 0.72657 0.09513 0.0
O190 O 0.02655 0.70729 0.26516 0.0
O191 O 0.10411 0.7207 0.17983 0.0
C192 C 0.12512 0.88537 0.2344 0.0
O193 O 0.94581 0.82666 0.27888 0.0
O194 O 0.93186 0.86386 0.1636 0.0
In195 In 0.69931 0.02604 0.68667 0.0
O196 O 0.67436 0.94581 0.77888 0.0
O197 O 0.63715 0.93185 0.6636 0.0
C198 C 0.81576 0.08008 0.73433 0.0
C199 C 0.61564 0.12511 0.73441 0.0
C200 C 0.7381 0.00735 0.53771 0.0
O201 O 0.79372 0.02655 0.76516 0.0
O202 O 0.78031 0.10411 0.67984 0.0
O203 O 0.68165 0.03218 0.55517 0.0
O204 O 0.77444 0.99027 0.59513 0.0
C205 C 0.63902 0.91091 0.73311 0.0
O206 O 0.61288 0.10204 0.66553 0.0
O207 O 0.65843 0.09765 0.77785 0.0
loop_
_geom_bond_atom_site_label_1
_geom_bond_atom_site_label_2
_geom_bond_distance
_geom_bond_site_symmetry_2
_ccdc_geom_bond_type
In0 O1 2.294 . S
In0 O2 2.326 . S
In0 O6 2.266 . S
In0 O7 2.326 . S
In0 O8 2.266 . S
In0 O9 2.326 . S
In0 O11 2.294 . S
In0 O12 2.326 . S
O1 In0 2.294 . S
O1 C10 1.240 . S
O2 In0 2.326 . S
O2 C10 1.252 . S
C3 O6 1.252 . S
C3 O7 1.260 . S
C4 O11 1.240 . S
C4 O12 1.252 . S
C5 O8 1.252 . S
C5 O9 1.260 . S
O6 In0 2.266 . S
O6 C3 1.252 . S
O7 In0 2.326 . S
O7 C3 1.260 . S
O8 In0 2.266 . S
O8 C5 1.252 . S
O9 In0 2.326 . S
O9 C5 1.260 . S
C10 O1 1.240 . S
C10 O2 1.252 . S
O11 In0 2.294 . S
O11 C4 1.240 . S
O12 In0 2.326 . S
O12 C4 1.252 . S
In13 O14 2.294 . S
In13 O15 2.326 . S
In13 O19 2.266 . S
In13 O20 2.326 . S
In13 O21 2.266 . S
In13 O22 2.326 . S
In13 O24 2.294 . S
In13 O25 2.326 . S
O14 In13 2.294 . S
O14 C23 1.240 . S
O15 In13 2.326 . S
O15 C23 1.252 . S
C16 O19 1.252 . S
C16 O20 1.260 . S
C17 O24 1.240 . S
C17 O25 1.252 . S
C18 O21 1.252 . S
C18 O22 1.260 . S
O19 In13 2.266 . S
O19 C16 1.252 . S
O20 In13 2.326 . S
O20 C16 1.260 . S
O21 In13 2.266 . S
O21 C18 1.252 . S
O22 In13 2.326 . S
O22 C18 1.260 . S
C23 O14 1.240 . S
C23 O15 1.252 . S
O24 In13 2.294 . S
O24 C17 1.240 . S
O25 In13 2.326 . S
O25 C17 1.252 . S
In26 O27 2.294 1_655 S
In26 O28 2.326 1_655 S
In26 O32 2.266 . S
In26 O33 2.326 . S
In26 O34 2.266 . S
In26 O35 2.326 1_655 S
In26 O37 2.294 . S
In26 O38 2.326 . S
O27 In26 2.294 1_455 S
O27 C36 1.240 . S
O28 In26 2.326 1_455 S
O28 C36 1.252 . S
C29 O32 1.252 . S
C29 O33 1.260 . S
C30 O37 1.240 . S
C30 O38 1.252 . S
C31 O34 1.252 1_455 S
C31 O35 1.260 . S
O32 In26 2.266 . S
O32 C29 1.252 . S
O33 In26 2.326 . S
O33 C29 1.260 . S
O34 In26 2.266 . S
O34 C31 1.252 1_655 S
O35 In26 2.326 1_455 S
O35 C31 1.260 . S
C36 O27 1.240 . S
C36 O28 1.252 . S
O37 In26 2.294 . S
O37 C30 1.240 . S
O38 In26 2.326 . S
O38 C30 1.252 . S
In39 O40 2.294 1_565 S
In39 O41 2.326 1_565 S
In39 O45 2.266 . S
In39 O46 2.326 . S
In39 O47 2.266 . S
In39 O48 2.326 1_565 S
In39 O50 2.294 . S
In39 O51 2.326 . S
O40 In39 2.294 1_545 S
O40 C49 1.240 . S
O41 In39 2.326 1_545 S
O41 C49 1.252 . S
C42 O45 1.252 . S
C42 O46 1.260 . S
C43 O50 1.240 . S
C43 O51 1.252 . S
C44 O47 1.252 1_545 S
C44 O48 1.260 . S
O45 In39 2.266 . S
O45 C42 1.252 . S
O46 In39 2.326 . S
O46 C42 1.260 . S
O47 In39 2.266 . S
O47 C44 1.252 1_565 S
O48 In39 2.326 1_545 S
O48 C44 1.260 . S
C49 O40 1.240 . S
C49 O41 1.252 . S
O50 In39 2.294 . S
O50 C43 1.240 . S
O51 In39 2.326 . S
O51 C43 1.252 . S
In52 O53 2.294 . S
In52 O54 2.326 . S
In52 O58 2.266 . S
In52 O59 2.326 . S
In52 O60 2.266 . S
In52 O61 2.326 . S
In52 O63 2.294 . S
In52 O64 2.326 . S
O53 In52 2.294 . S
O53 C62 1.240 . S
O54 In52 2.326 . S
O54 C62 1.252 . S
C55 O58 1.252 . S
C55 O59 1.260 . S
C56 O63 1.240 . S
C56 O64 1.252 . S
C57 O60 1.252 . S
C57 O61 1.260 . S
O58 In52 2.266 . S
O58 C55 1.252 . S
O59 In52 2.326 . S
O59 C55 1.260 . S
O60 In52 2.266 . S
O60 C57 1.252 . S
O61 In52 2.326 . S
O61 C57 1.260 . S
C62 O53 1.240 . S
C62 O54 1.252 . S
O63 In52 2.294 . S
O63 C56 1.240 . S
O64 In52 2.326 . S
O64 C56 1.252 . S
In65 O66 2.294 . S
In65 O67 2.326 . S
In65 O71 2.266 . S
In65 O72 2.326 . S
In65 O73 2.266 . S
In65 O74 2.326 . S
In65 O76 2.294 . S
In65 O77 2.326 . S
O66 In65 2.294 . S
O66 C75 1.240 . S
O67 In65 2.326 . S
O67 C75 1.252 . S
C68 O71 1.252 . S
C68 O72 1.260 . S
C69 O76 1.240 . S
C69 O77 1.252 . S
C70 O73 1.252 . S
C70 O74 1.260 . S
O71 In65 2.266 . S
O71 C68 1.252 . S
O72 In65 2.326 . S
O72 C68 1.260 . S
O73 In65 2.266 . S
O73 C70 1.252 . S
O74 In65 2.326 . S
O74 C70 1.260 . S
C75 O66 1.240 . S
C75 O67 1.252 . S
O76 In65 2.294 . S
O76 C69 1.240 . S
O77 In65 2.326 . S
O77 C69 1.252 . S
In78 O79 2.294 . S
In78 O80 2.326 . S
In78 O84 2.266 . S
In78 O85 2.326 1_655 S
In78 O86 2.266 . S
In78 O87 2.326 . S
In78 O89 2.294 1_655 S
In78 O90 2.326 1_655 S
O79 In78 2.294 . S
O79 C88 1.240 . S
O80 In78 2.326 . S
O80 C88 1.252 . S
C81 O84 1.252 1_455 S
C81 O85 1.260 . S
C82 O89 1.240 . S
C82 O90 1.252 . S
C83 O86 1.252 . S
C83 O87 1.260 . S
O84 In78 2.266 . S
O84 C81 1.252 1_655 S
O85 In78 2.326 1_455 S
O85 C81 1.260 . S
O86 In78 2.266 . S
O86 C83 1.252 . S
O87 In78 2.326 . S
O87 C83 1.260 . S
C88 O79 1.240 . S
C88 O80 1.252 . S
O89 In78 2.294 1_455 S
O89 C82 1.240 . S
O90 In78 2.326 1_455 S
O90 C82 1.252 . S
In91 O92 2.294 . S
In91 O93 2.326 . S
In91 O97 2.266 . S
In91 O98 2.326 1_565 S
In91 O99 2.266 . S
In91 O100 2.326 . S
In91 O102 2.294 1_565 S
In91 O103 2.326 1_565 S
O92 In91 2.294 . S
O92 C101 1.240 . S
O93 In91 2.326 . S
O93 C101 1.252 . S
C94 O97 1.252 1_545 S
C94 O98 1.260 . S
C95 O102 1.240 . S
C95 O103 1.252 . S
C96 O99 1.252 . S
C96 O100 1.260 . S
O97 In91 2.266 . S
O97 C94 1.252 1_565 S
O98 In91 2.326 1_545 S
O98 C94 1.260 . S
O99 In91 2.266 . S
O99 C96 1.252 . S
O100 In91 2.326 . S
O100 C96 1.260 . S
C101 O92 1.240 . S
C101 O93 1.252 . S
O102 In91 2.294 1_545 S
O102 C95 1.240 . S
O103 In91 2.326 1_545 S
O103 C95 1.252 . S
In104 O105 2.294 . S
In104 O106 2.326 . S
In104 O110 2.266 . S
In104 O111 2.326 . S
In104 O112 2.266 . S
In104 O113 2.326 . S
In104 O115 2.294 . S
In104 O116 2.326 . S
O105 In104 2.294 . S
O105 C114 1.240 . S
O106 In104 2.326 . S
O106 C114 1.252 . S
C107 O110 1.252 . S
C107 O111 1.260 . S
C108 O115 1.240 . S
C108 O116 1.252 . S
C109 O112 1.252 . S
C109 O113 1.260 . S
O110 In104 2.266 . S
O110 C107 1.252 . S
O111 In104 2.326 . S
O111 C107 1.260 . S
O112 In104 2.266 . S
O112 C109 1.252 . S
O113 In104 2.326 . S
O113 C109 1.260 . S
C114 O105 1.240 . S
C114 O106 1.252 . S
O115 In104 2.294 . S
O115 C108 1.240 . S
O116 In104 2.326 . S
O116 C108 1.252 . S
In117 O118 2.294 . S
In117 O119 2.326 . S
In117 O123 2.266 . S
In117 O124 2.326 . S
In117 O125 2.266 . S
In117 O126 2.326 . S
In117 O128 2.294 . S
In117 O129 2.326 . S
O118 In117 2.294 . S
O118 C127 1.240 . S
O119 In117 2.326 . S
O119 C127 1.252 . S
C120 O123 1.252 . S
C120 O124 1.260 . S
C121 O128 1.240 . S
C121 O129 1.252 . S
C122 O125 1.252 . S
C122 O126 1.260 . S
O123 In117 2.266 . S
O123 C120 1.252 . S
O124 In117 2.326 . S
O124 C120 1.260 . S
O125 In117 2.266 . S
O125 C122 1.252 . S
O126 In117 2.326 . S
O126 C122 1.260 . S
C127 O118 1.240 . S
C127 O119 1.252 . S
O128 In117 2.294 . S
O128 C121 1.240 . S
O129 In117 2.326 . S
O129 C121 1.252 . S
In130 O131 2.294 . S
In130 O132 2.326 . S
In130 O136 2.266 . S
In130 O137 2.326 1_455 S
In130 O138 2.266 . S
In130 O139 2.326 . S
In130 O141 2.294 1_455 S
In130 O142 2.326 1_455 S
O131 In130 2.294 . S
O131 C140 1.240 . S
O132 In130 2.326 . S
O132 C140 1.252 . S
C133 O136 1.252 1_655 S
C133 O137 1.260 . S
C134 O141 1.240 . S
C134 O142 1.252 . S
C135 O138 1.252 . S
C135 O139 1.260 . S
O136 In130 2.266 . S
O136 C133 1.252 1_455 S
O137 In130 2.326 1_655 S
O137 C133 1.260 . S
O138 In130 2.266 . S
O138 C135 1.252 . S
O139 In130 2.326 . S
O139 C135 1.260 . S
C140 O131 1.240 . S
C140 O132 1.252 . S
O141 In130 2.294 1_655 S
O141 C134 1.240 . S
O142 In130 2.326 1_655 S
O142 C134 1.252 . S
In143 O144 2.294 1_545 S
In143 O145 2.326 1_545 S
In143 O149 2.266 . S
In143 O150 2.326 . S
In143 O151 2.266 . S
In143 O152 2.326 1_545 S
In143 O154 2.294 . S
In143 O155 2.326 . S
O144 In143 2.294 1_565 S
O144 C153 1.240 . S
O145 In143 2.326 1_565 S
O145 C153 1.252 . S
C146 O149 1.252 . S
C146 O150 1.260 . S
C147 O154 1.240 . S
C147 O155 1.252 . S
C148 O151 1.252 1_565 S
C148 O152 1.260 . S
O149 In143 2.266 . S
O149 C146 1.252 . S
O150 In143 2.326 . S
O150 C146 1.260 . S
O151 In143 2.266 . S
O151 C148 1.252 1_545 S
O152 In143 2.326 1_565 S
O152 C148 1.260 . S
C153 O144 1.240 . S
C153 O145 1.252 . S
O154 In143 2.294 . S
O154 C147 1.240 . S
O155 In143 2.326 . S
O155 C147 1.252 . S
In156 O157 2.294 . S
In156 O158 2.326 . S
In156 O162 2.266 . S
In156 O163 2.326 . S
In156 O164 2.266 . S
In156 O165 2.326 . S
In156 O167 2.294 . S
In156 O168 2.326 . S
O157 In156 2.294 . S
O157 C166 1.240 . S
O158 In156 2.326 . S
O158 C166 1.252 . S
C159 O162 1.252 . S
C159 O163 1.260 . S
C160 O167 1.240 . S
C160 O168 1.252 . S
C161 O164 1.252 . S
C161 O165 1.260 . S
O162 In156 2.266 . S
O162 C159 1.252 . S
O163 In156 2.326 . S
O163 C159 1.260 . S
O164 In156 2.266 . S
O164 C161 1.252 . S
O165 In156 2.326 . S
O165 C161 1.260 . S
C166 O157 1.240 . S
C166 O158 1.252 . S
O167 In156 2.294 . S
O167 C160 1.240 . S
O168 In156 2.326 . S
O168 C160 1.252 . S
In169 O170 2.294 . S
In169 O171 2.326 . S
In169 O175 2.266 . S
In169 O176 2.326 . S
In169 O177 2.266 . S
In169 O178 2.326 . S
In169 O180 2.294 . S
In169 O181 2.326 . S
O170 In169 2.294 . S
O170 C179 1.240 . S
O171 In169 2.326 . S
O171 C179 1.252 . S
C172 O175 1.252 . S
C172 O176 1.260 . S
C173 O180 1.240 . S
C173 O181 1.252 . S
C174 O177 1.252 . S
C174 O178 1.260 . S
O175 In169 2.266 . S
O175 C172 1.252 . S
O176 In169 2.326 . S
O176 C172 1.260 . S
O177 In169 2.266 . S
O177 C174 1.252 . S
O178 In169 2.326 . S
O178 C174 1.260 . S
C179 O170 1.240 . S
C179 O171 1.252 . S
O180 In169 2.294 . S
O180 C173 1.240 . S
O181 In169 2.326 . S
O181 C173 1.252 . S
In182 O183 2.294 . S
In182 O184 2.326 . S
In182 O188 2.266 . S
In182 O189 2.326 1_455 S
In182 O190 2.266 . S
In182 O191 2.326 . S
In182 O193 2.294 1_455 S
In182 O194 2.326 1_455 S
O183 In182 2.294 . S
O183 C192 1.240 . S
O184 In182 2.326 . S
O184 C192 1.252 . S
C185 O188 1.252 1_655 S
C185 O189 1.260 . S
C186 O193 1.240 . S
C186 O194 1.252 . S
C187 O190 1.252 . S
C187 O191 1.260 . S
O188 In182 2.266 . S
O188 C185 1.252 1_455 S
O189 In182 2.326 1_655 S
O189 C185 1.260 . S
O190 In182 2.266 . S
O190 C187 1.252 . S
O191 In182 2.326 . S
O191 C187 1.260 . S
C192 O183 1.240 . S
C192 O184 1.252 . S
O193 In182 2.294 1_655 S
O193 C186 1.240 . S
O194 In182 2.326 1_655 S
O194 C186 1.252 . S
In195 O196 2.294 1_545 S
In195 O197 2.326 1_545 S
In195 O201 2.266 . S
In195 O202 2.326 . S
In195 O203 2.266 . S
In195 O204 2.326 1_545 S
In195 O206 2.294 . S
In195 O207 2.326 . S
O196 In195 2.294 1_565 S
O196 C205 1.240 . S
O197 In195 2.326 1_565 S
O197 C205 1.252 . S
C198 O201 1.252 . S
C198 O202 1.260 . S
C199 O206 1.240 . S
C199 O207 1.252 . S
C200 O203 1.252 1_565 S
C200 O204 1.260 . S
O201 In195 2.266 . S
O201 C198 1.252 . S
O202 In195 2.326 . S
O202 C198 1.260 . S
O203 In195 2.266 . S
O203 C200 1.252 1_545 S
O204 In195 2.326 1_565 S
O204 C200 1.260 . S
C205 O196 1.240 . S
C205 O197 1.252 . S
O206 In195 2.294 . S
O206 C199 1.240 . S
O207 In195 2.326 . S
O207 C199 1.252 . S
C4 C95 1.285 . S
C23 C56 1.285 . S
C36 C75 1.285 . S
C49 C82 1.285 . S
C114 C205 1.285 . S
C160 C121 1.285 . S
C134 C179 1.285 . S
C153 C186 1.285 . S
C5 C127 1.685 . S
C16 C140 1.685 . S
C147 C29 1.685 . S
C42 C108 1.685 . S
C57 C199 1.685 . S
C166 C68 1.685 . S
C173 C83 1.685 . S
C192 C96 1.685 . S
C17 C107 1.685 . S
C30 C122 1.685 . S
C135 C43 1.685 . S
C10 C146 1.685 . S
C161 C101 1.685 . S
C172 C62 1.685 . S
C69 C187 1.685 . S
C88 C198 1.685 . S
C3 C55 1.762 1_554 S
C70 C18 1.762 . S
C31 C81 1.762 1_554 S
C94 C44 1.762 . S
C109 C159 1.762 1_556 S
C174 C120 1.762 . S
C185 C133 1.762 1_554 S
C200 C148 1.762 . S
