# Generated by pormake.
# Topology unf, (4)-cn, num edge types: 1
# Building blocks:
#     Node 0, Type 0, BuildingBlock: GALJAG_clean_sbu_0, # of connection points: 4
#     Node 1, Type 0, BuildingBlock: GALJAG_clean_sbu_0, # of connection points: 4
#     Node 2, Type 0, BuildingBlock: GALJAG_clean_sbu_0, # of connection points: 4
#     Node 3, Type 0, BuildingBlock: GALJAG_clean_sbu_0, # of connection points: 4
#     Node 4, Type 0, BuildingBlock: GALJAG_clean_sbu_0, # of connection points: 4
#     Node 5, Type 0, BuildingBlock: GALJAG_clean_sbu_0, # of connection points: 4
#     Node 6, Type 0, BuildingBlock: GALJAG_clean_sbu_0, # of connection points: 4
#     Node 7, Type 0, BuildingBlock: GALJAG_clean_sbu_0, # of connection points: 4
#     Node 8, Type 0, BuildingBlock: GALJAG_clean_sbu_0, # of connection points: 4
#     Node 9, Type 0, BuildingBlock: GALJAG_clean_sbu_0, # of connection points: 4
#     Node 10, Type 0, BuildingBlock: GALJAG_clean_sbu_0, # of connection points: 4
#     Node 11, Type 0, BuildingBlock: GALJAG_clean_sbu_0, # of connection points: 4
#     Edge 12, Type (0, 0), None
#     Edge 13, Type (0, 0), None
#     Edge 14, Type (0, 0), None
#     Edge 15, Type (0, 0), None
#     Edge 16, Type (0, 0), None
#     Edge 17, Type (0, 0), None
#     Edge 18, Type (0, 0), None
#     Edge 19, Type (0, 0), None
#     Edge 20, Type (0, 0), None
#     Edge 21, Type (0, 0), None
#     Edge 22, Type (0, 0), None
#     Edge 23, Type (0, 0), None
#     Edge 24, Type (0, 0), None
#     Edge 25, Type (0, 0), None
#     Edge 26, Type (0, 0), None
#     Edge 27, Type (0, 0), None
#     Edge 28, Type (0, 0), None
#     Edge 29, Type (0, 0), None
#     Edge 30, Type (0, 0), None
#     Edge 31, Type (0, 0), None
#     Edge 32, Type (0, 0), None
#     Edge 33, Type (0, 0), None
#     Edge 34, Type (0, 0), None
#     Edge 35, Type (0, 0), None
# Relax obj value: 0.104
# Max RMSD: 0.121
# Mean RMSD: 0.121
data_MOF--net-unf--node1-GALJAG_clean_sbu_0--edge1-none
_symmetry_space_group_name_H-M    P1
_symmetry_Int_Tables_number       1
_symmetry_cell_setting            triclinic
loop_
_symmetry_equiv_pos_as_xyz
'x, y, z'
_cell_length_a     17.949836
_cell_length_b     17.949321
_cell_length_c     15.511098
_cell_angle_alpha  90.000148
_cell_angle_beta   89.999906
_cell_angle_gamma 119.9977
loop_
_atom_site_label
_atom_site_type_symbol
_atom_site_fract_x
_atom_site_fract_y
_atom_site_fract_z
_atom_type_partial_charge
In0 In 0.05626 0.35578 0.07831 0.0
O1 O 0.0867 0.30052 0.19604 0.0
O2 O 0.1641 0.43509 0.17873 0.0
C3 C 0.89547 0.22064 0.08413 0.0
C4 C 0.15341 0.33626 0.95892 0.0
C5 C 0.00823 0.46706 0.02126 0.0
O6 O 0.91195 0.29492 0.1061 0.0
O7 O 0.96031 0.21398 0.06618 0.0
O8 O 0.02801 0.42453 0.97073 0.0
O9 O 0.0182 0.45816 0.10068 0.0
C10 C 0.15094 0.36938 0.22069 0.0
O11 O 0.17517 0.40861 0.992 0.0
O12 O 0.0804 0.27647 0.98118 0.0
In13 In 0.62939 0.6975 0.07831 0.0
O14 O 0.68465 0.78319 0.19604 0.0
O15 O 0.55009 0.72605 0.17874 0.0
C16 C 0.76453 0.67186 0.08413 0.0
C17 C 0.64891 0.81418 0.95893 0.0
C18 C 0.51811 0.5382 0.02126 0.0
O19 O 0.69025 0.61406 0.10609 0.0
O20 O 0.77118 0.74335 0.0662 0.0
O21 O 0.56065 0.60051 0.97074 0.0
O22 O 0.52702 0.55707 0.10068 0.0
C23 C 0.61579 0.77858 0.2207 0.0
O24 O 0.57657 0.76361 0.99201 0.0
O25 O 0.7087 0.80095 0.98118 0.0
In26 In 0.28767 0.92891 0.07831 0.0
O27 O 0.22157 0.80999 0.992 0.0
O28 O 0.18422 0.90478 0.98118 0.0
C29 C 0.44698 0.97694 0.02126 0.0
C30 C 0.20659 0.83424 0.22069 0.0
C31 C 0.31331 0.0897 0.08413 0.0
O32 O 0.38466 0.95716 0.97073 0.0
O33 O 0.4281 0.96697 0.10068 0.0
O34 O 0.37111 0.07322 0.1061 0.0
O35 O 0.24182 0.02487 0.06618 0.0
C36 C 0.17099 0.83176 0.95892 0.0
O37 O 0.20198 0.89848 0.19604 0.0
O38 O 0.25912 0.82106 0.17873 0.0
In39 In 0.6294 0.92892 0.43287 0.0
O40 O 0.57657 0.80999 0.51917 0.0
O41 O 0.70868 0.9048 0.53007 0.0
C42 C 0.51812 0.97695 0.48989 0.0
C43 C 0.61581 0.83418 0.29054 0.0
C44 C 0.76454 0.08971 0.42698 0.0
O45 O 0.56067 0.95719 0.54043 0.0
O46 O 0.52702 0.96696 0.41048 0.0
O47 O 0.69025 0.07322 0.40503 0.0
O48 O 0.7712 0.02488 0.44494 0.0
C49 C 0.6489 0.83177 0.55229 0.0
O50 O 0.68468 0.89837 0.31523 0.0
O51 O 0.55009 0.82111 0.33241 0.0
In52 In 0.05626 0.69752 0.43287 0.0
O53 O 0.0868 0.78334 0.31523 0.0
O54 O 0.16407 0.72601 0.33241 0.0
C55 C 0.89547 0.67186 0.42698 0.0
C56 C 0.15341 0.81417 0.55228 0.0
C57 C 0.00823 0.5382 0.48989 0.0
O58 O 0.91196 0.61407 0.40502 0.0
O59 O 0.96029 0.74335 0.44495 0.0
O60 O 0.02798 0.60051 0.54043 0.0
O61 O 0.01822 0.55709 0.41048 0.0
C62 C 0.15099 0.77865 0.29053 0.0
O63 O 0.17518 0.76361 0.51917 0.0
O64 O 0.08038 0.80092 0.53006 0.0
In65 In 0.28766 0.35578 0.43287 0.0
O66 O 0.20185 0.3005 0.31523 0.0
O67 O 0.25916 0.43509 0.33241 0.0
C68 C 0.31332 0.22064 0.42697 0.0
C69 C 0.17101 0.33628 0.55229 0.0
C70 C 0.44697 0.46706 0.48989 0.0
O71 O 0.37111 0.29493 0.40502 0.0
O72 O 0.24183 0.21398 0.44493 0.0
O73 O 0.38467 0.42451 0.54043 0.0
O74 O 0.42808 0.45817 0.41048 0.0
C75 C 0.20652 0.36937 0.29053 0.0
O76 O 0.22156 0.40861 0.51917 0.0
O77 O 0.18427 0.2765 0.53006 0.0
In78 In 0.92596 0.63239 0.93284 0.0
O79 O 0.80702 0.57953 0.01913 0.0
O80 O 0.90182 0.71171 0.02995 0.0
C81 C 0.974 0.52112 0.9899 0.0
C82 C 0.83129 0.6188 0.79046 0.0
C83 C 0.08672 0.76747 0.92708 0.0
O84 O 0.95421 0.56365 0.04043 0.0
O85 O 0.96403 0.53001 0.91048 0.0
O86 O 0.07026 0.69323 0.90497 0.0
O87 O 0.02192 0.77417 0.94507 0.0
C88 C 0.8288 0.6519 0.05215 0.0
O89 O 0.89553 0.68765 0.81511 0.0
O90 O 0.81812 0.55309 0.83241 0.0
In91 In 0.35279 0.29061 0.93284 0.0
O92 O 0.29753 0.20493 0.81511 0.0
O93 O 0.43209 0.26206 0.83241 0.0
C94 C 0.2177 0.31628 0.92707 0.0
C95 C 0.33327 0.17392 0.05215 0.0
C96 C 0.46406 0.44992 0.9899 0.0
O97 O 0.29194 0.37406 0.90498 0.0
O98 O 0.21102 0.24479 0.94506 0.0
O99 O 0.42153 0.3876 0.04043 0.0
O100 O 0.45516 0.43105 0.91048 0.0
C101 C 0.36638 0.20953 0.79045 0.0
O102 O 0.40564 0.22451 0.01912 0.0
O103 O 0.27347 0.18715 0.02995 0.0
In104 In 0.69456 0.05922 0.93284 0.0
O105 O 0.78025 0.08964 0.81511 0.0
O106 O 0.72312 0.16707 0.83242 0.0
C107 C 0.6689 0.89845 0.92708 0.0
C108 C 0.81125 0.15638 0.05215 0.0
C109 C 0.53526 0.01118 0.98991 0.0
O110 O 0.61113 0.91492 0.90497 0.0
O111 O 0.74039 0.96326 0.94508 0.0
O112 O 0.59758 0.03097 0.04043 0.0
O113 O 0.55413 0.02115 0.91049 0.0
C114 C 0.77565 0.15388 0.79046 0.0
O115 O 0.76066 0.17816 0.01913 0.0
O116 O 0.79803 0.08336 0.02995 0.0
In117 In 0.35278 0.05921 0.57827 0.0
O118 O 0.40564 0.17816 0.49199 0.0
O119 O 0.27349 0.08334 0.4811 0.0
C120 C 0.46405 0.01117 0.52123 0.0
C121 C 0.36637 0.15394 0.72061 0.0
C122 C 0.2177 0.89845 0.58411 0.0
O123 O 0.42151 0.03094 0.4707 0.0
O124 O 0.45516 0.02117 0.60065 0.0
O125 O 0.29194 0.91493 0.60619 0.0
O126 O 0.211 0.96325 0.5661 0.0
C127 C 0.33329 0.15638 0.45893 0.0
O128 O 0.29749 0.08975 0.69591 0.0
O129 O 0.43209 0.16702 0.67873 0.0
In130 In 0.92596 0.2906 0.57827 0.0
O131 O 0.80701 0.22451 0.492 0.0
O132 O 0.90184 0.18718 0.48111 0.0
C133 C 0.974 0.44992 0.52123 0.0
C134 C 0.83124 0.20946 0.72061 0.0
C135 C 0.08673 0.31628 0.58411 0.0
O136 O 0.95424 0.38761 0.4707 0.0
O137 O 0.964 0.43103 0.60065 0.0
O138 O 0.07024 0.37404 0.6062 0.0
O139 O 0.02193 0.24479 0.56609 0.0
C140 C 0.8288 0.17394 0.45894 0.0
O141 O 0.89543 0.20478 0.69592 0.0
O142 O 0.81816 0.2621 0.67874 0.0
In143 In 0.69457 0.63239 0.57827 0.0
O144 O 0.78038 0.68768 0.69592 0.0
O145 O 0.72308 0.55308 0.67874 0.0
C146 C 0.66889 0.76748 0.58412 0.0
C147 C 0.81123 0.65189 0.45894 0.0
C148 C 0.53526 0.52112 0.52123 0.0
O149 O 0.61113 0.69323 0.6062 0.0
O150 O 0.74039 0.77417 0.5661 0.0
O151 O 0.59757 0.56366 0.4707 0.0
O152 O 0.55415 0.53 0.60065 0.0
C153 C 0.77571 0.6188 0.72061 0.0
O154 O 0.76067 0.57953 0.492 0.0
O155 O 0.79798 0.71168 0.48111 0.0
loop_
_geom_bond_atom_site_label_1
_geom_bond_atom_site_label_2
_geom_bond_distance
_geom_bond_site_symmetry_2
_ccdc_geom_bond_type
In0 O1 2.294 . S
In0 O2 2.326 . S
In0 O6 2.266 1_455 S
In0 O7 2.326 1_454 S
In0 O8 2.266 1_554 S
In0 O9 2.326 . S
In0 O11 2.294 1_554 S
In0 O12 2.326 . S
O1 In0 2.294 . S
O1 C10 1.240 . S
O2 In0 2.326 . S
O2 C10 1.252 . S
C3 O6 1.252 . S
C3 O7 1.260 1_554 S
C4 O11 1.240 1_554 S
C4 O12 1.252 . S
C5 O8 1.252 1_554 S
C5 O9 1.260 . S
O6 In0 2.266 1_655 S
O6 C3 1.252 . S
O7 In0 2.326 1_656 S
O7 C3 1.260 1_556 S
O8 In0 2.266 1_556 S
O8 C5 1.252 1_556 S
O9 In0 2.326 . S
O9 C5 1.260 . S
C10 O1 1.240 . S
C10 O2 1.252 . S
O11 In0 2.294 1_556 S
O11 C4 1.240 1_556 S
O12 In0 2.326 . S
O12 C4 1.252 . S
In13 O14 2.294 . S
In13 O15 2.326 . S
In13 O19 2.266 . S
In13 O20 2.326 1_554 S
In13 O21 2.266 1_554 S
In13 O22 2.326 . S
In13 O24 2.294 1_554 S
In13 O25 2.326 . S
O14 In13 2.294 . S
O14 C23 1.240 . S
O15 In13 2.326 . S
O15 C23 1.252 . S
C16 O19 1.252 . S
C16 O20 1.260 1_554 S
C17 O24 1.240 1_554 S
C17 O25 1.252 . S
C18 O21 1.252 1_554 S
C18 O22 1.260 . S
O19 In13 2.266 . S
O19 C16 1.252 . S
O20 In13 2.326 1_556 S
O20 C16 1.260 1_556 S
O21 In13 2.266 1_556 S
O21 C18 1.252 1_556 S
O22 In13 2.326 . S
O22 C18 1.260 . S
C23 O14 1.240 . S
C23 O15 1.252 . S
O24 In13 2.294 1_556 S
O24 C17 1.240 1_556 S
O25 In13 2.326 . S
O25 C17 1.252 . S
In26 O27 2.294 1_554 S
In26 O28 2.326 . S
In26 O32 2.266 1_554 S
In26 O33 2.326 . S
In26 O34 2.266 1_565 S
In26 O35 2.326 1_564 S
In26 O37 2.294 . S
In26 O38 2.326 . S
O27 In26 2.294 1_556 S
O27 C36 1.240 1_556 S
O28 In26 2.326 . S
O28 C36 1.252 . S
C29 O32 1.252 1_554 S
C29 O33 1.260 . S
C30 O37 1.240 . S
C30 O38 1.252 . S
C31 O34 1.252 . S
C31 O35 1.260 1_554 S
O32 In26 2.266 1_556 S
O32 C29 1.252 1_556 S
O33 In26 2.326 . S
O33 C29 1.260 . S
O34 In26 2.266 1_545 S
O34 C31 1.252 . S
O35 In26 2.326 1_546 S
O35 C31 1.260 1_556 S
C36 O27 1.240 1_554 S
C36 O28 1.252 . S
O37 In26 2.294 . S
O37 C30 1.240 . S
O38 In26 2.326 . S
O38 C30 1.252 . S
In39 O40 2.294 . S
In39 O41 2.326 . S
In39 O45 2.266 . S
In39 O46 2.326 . S
In39 O47 2.266 1_565 S
In39 O48 2.326 1_565 S
In39 O50 2.294 . S
In39 O51 2.326 . S
O40 In39 2.294 . S
O40 C49 1.240 . S
O41 In39 2.326 . S
O41 C49 1.252 . S
C42 O45 1.252 . S
C42 O46 1.260 . S
C43 O50 1.240 . S
C43 O51 1.252 . S
C44 O47 1.252 . S
C44 O48 1.260 . S
O45 In39 2.266 . S
O45 C42 1.252 . S
O46 In39 2.326 . S
O46 C42 1.260 . S
O47 In39 2.266 1_545 S
O47 C44 1.252 . S
O48 In39 2.326 1_545 S
O48 C44 1.260 . S
C49 O40 1.240 . S
C49 O41 1.252 . S
O50 In39 2.294 . S
O50 C43 1.240 . S
O51 In39 2.326 . S
O51 C43 1.252 . S
In52 O53 2.294 . S
In52 O54 2.326 . S
In52 O58 2.266 1_455 S
In52 O59 2.326 1_455 S
In52 O60 2.266 . S
In52 O61 2.326 . S
In52 O63 2.294 . S
In52 O64 2.326 . S
O53 In52 2.294 . S
O53 C62 1.240 . S
O54 In52 2.326 . S
O54 C62 1.252 . S
C55 O58 1.252 . S
C55 O59 1.260 . S
C56 O63 1.240 . S
C56 O64 1.252 . S
C57 O60 1.252 . S
C57 O61 1.260 . S
O58 In52 2.266 1_655 S
O58 C55 1.252 . S
O59 In52 2.326 1_655 S
O59 C55 1.260 . S
O60 In52 2.266 . S
O60 C57 1.252 . S
O61 In52 2.326 . S
O61 C57 1.260 . S
C62 O53 1.240 . S
C62 O54 1.252 . S
O63 In52 2.294 . S
O63 C56 1.240 . S
O64 In52 2.326 . S
O64 C56 1.252 . S
In65 O66 2.294 . S
In65 O67 2.326 . S
In65 O71 2.266 . S
In65 O72 2.326 . S
In65 O73 2.266 . S
In65 O74 2.326 . S
In65 O76 2.294 . S
In65 O77 2.326 . S
O66 In65 2.294 . S
O66 C75 1.240 . S
O67 In65 2.326 . S
O67 C75 1.252 . S
C68 O71 1.252 . S
C68 O72 1.260 . S
C69 O76 1.240 . S
C69 O77 1.252 . S
C70 O73 1.252 . S
C70 O74 1.260 . S
O71 In65 2.266 . S
O71 C68 1.252 . S
O72 In65 2.326 . S
O72 C68 1.260 . S
O73 In65 2.266 . S
O73 C70 1.252 . S
O74 In65 2.326 . S
O74 C70 1.260 . S
C75 O66 1.240 . S
C75 O67 1.252 . S
O76 In65 2.294 . S
O76 C69 1.240 . S
O77 In65 2.326 . S
O77 C69 1.252 . S
In78 O79 2.294 1_556 S
In78 O80 2.326 . S
In78 O84 2.266 1_556 S
In78 O85 2.326 . S
In78 O86 2.266 1_655 S
In78 O87 2.326 1_656 S
In78 O89 2.294 . S
In78 O90 2.326 . S
O79 In78 2.294 1_554 S
O79 C88 1.240 1_554 S
O80 In78 2.326 . S
O80 C88 1.252 . S
C81 O84 1.252 1_556 S
C81 O85 1.260 . S
C82 O89 1.240 . S
C82 O90 1.252 . S
C83 O86 1.252 . S
C83 O87 1.260 1_556 S
O84 In78 2.266 1_554 S
O84 C81 1.252 1_554 S
O85 In78 2.326 . S
O85 C81 1.260 . S
O86 In78 2.266 1_455 S
O86 C83 1.252 . S
O87 In78 2.326 1_454 S
O87 C83 1.260 1_554 S
C88 O79 1.240 1_556 S
C88 O80 1.252 . S
O89 In78 2.294 . S
O89 C82 1.240 . S
O90 In78 2.326 . S
O90 C82 1.252 . S
In91 O92 2.294 . S
In91 O93 2.326 . S
In91 O97 2.266 . S
In91 O98 2.326 1_556 S
In91 O99 2.266 1_556 S
In91 O100 2.326 . S
In91 O102 2.294 1_556 S
In91 O103 2.326 . S
O92 In91 2.294 . S
O92 C101 1.240 . S
O93 In91 2.326 . S
O93 C101 1.252 . S
C94 O97 1.252 . S
C94 O98 1.260 1_556 S
C95 O102 1.240 1_556 S
C95 O103 1.252 . S
C96 O99 1.252 1_556 S
C96 O100 1.260 . S
O97 In91 2.266 . S
O97 C94 1.252 . S
O98 In91 2.326 1_554 S
O98 C94 1.260 1_554 S
O99 In91 2.266 1_554 S
O99 C96 1.252 1_554 S
O100 In91 2.326 . S
O100 C96 1.260 . S
C101 O92 1.240 . S
C101 O93 1.252 . S
O102 In91 2.294 1_554 S
O102 C95 1.240 1_554 S
O103 In91 2.326 . S
O103 C95 1.252 . S
In104 O105 2.294 . S
In104 O106 2.326 . S
In104 O110 2.266 1_545 S
In104 O111 2.326 1_546 S
In104 O112 2.266 1_556 S
In104 O113 2.326 . S
In104 O115 2.294 1_556 S
In104 O116 2.326 . S
O105 In104 2.294 . S
O105 C114 1.240 . S
O106 In104 2.326 . S
O106 C114 1.252 . S
C107 O110 1.252 . S
C107 O111 1.260 1_556 S
C108 O115 1.240 1_556 S
C108 O116 1.252 . S
C109 O112 1.252 1_556 S
C109 O113 1.260 . S
O110 In104 2.266 1_565 S
O110 C107 1.252 . S
O111 In104 2.326 1_564 S
O111 C107 1.260 1_554 S
O112 In104 2.266 1_554 S
O112 C109 1.252 1_554 S
O113 In104 2.326 . S
O113 C109 1.260 . S
C114 O105 1.240 . S
C114 O106 1.252 . S
O115 In104 2.294 1_554 S
O115 C108 1.240 1_554 S
O116 In104 2.326 . S
O116 C108 1.252 . S
In117 O118 2.294 . S
In117 O119 2.326 . S
In117 O123 2.266 . S
In117 O124 2.326 . S
In117 O125 2.266 1_545 S
In117 O126 2.326 1_545 S
In117 O128 2.294 . S
In117 O129 2.326 . S
O118 In117 2.294 . S
O118 C127 1.240 . S
O119 In117 2.326 . S
O119 C127 1.252 . S
C120 O123 1.252 . S
C120 O124 1.260 . S
C121 O128 1.240 . S
C121 O129 1.252 . S
C122 O125 1.252 . S
C122 O126 1.260 . S
O123 In117 2.266 . S
O123 C120 1.252 . S
O124 In117 2.326 . S
O124 C120 1.260 . S
O125 In117 2.266 1_565 S
O125 C122 1.252 . S
O126 In117 2.326 1_565 S
O126 C122 1.260 . S
C127 O118 1.240 . S
C127 O119 1.252 . S
O128 In117 2.294 . S
O128 C121 1.240 . S
O129 In117 2.326 . S
O129 C121 1.252 . S
In130 O131 2.294 . S
In130 O132 2.326 . S
In130 O136 2.266 . S
In130 O137 2.326 . S
In130 O138 2.266 1_655 S
In130 O139 2.326 1_655 S
In130 O141 2.294 . S
In130 O142 2.326 . S
O131 In130 2.294 . S
O131 C140 1.240 . S
O132 In130 2.326 . S
O132 C140 1.252 . S
C133 O136 1.252 . S
C133 O137 1.260 . S
C134 O141 1.240 . S
C134 O142 1.252 . S
C135 O138 1.252 . S
C135 O139 1.260 . S
O136 In130 2.266 . S
O136 C133 1.252 . S
O137 In130 2.326 . S
O137 C133 1.260 . S
O138 In130 2.266 1_455 S
O138 C135 1.252 . S
O139 In130 2.326 1_455 S
O139 C135 1.260 . S
C140 O131 1.240 . S
C140 O132 1.252 . S
O141 In130 2.294 . S
O141 C134 1.240 . S
O142 In130 2.326 . S
O142 C134 1.252 . S
In143 O144 2.294 . S
In143 O145 2.326 . S
In143 O149 2.266 . S
In143 O150 2.326 . S
In143 O151 2.266 . S
In143 O152 2.326 . S
In143 O154 2.294 . S
In143 O155 2.326 . S
O144 In143 2.294 . S
O144 C153 1.240 . S
O145 In143 2.326 . S
O145 C153 1.252 . S
C146 O149 1.252 . S
C146 O150 1.260 . S
C147 O154 1.240 . S
C147 O155 1.252 . S
C148 O151 1.252 . S
C148 O152 1.260 . S
O149 In143 2.266 . S
O149 C146 1.252 . S
O150 In143 2.326 . S
O150 C146 1.260 . S
O151 In143 2.266 . S
O151 C148 1.252 . S
O152 In143 2.326 . S
O152 C148 1.260 . S
C153 O144 1.240 . S
C153 O145 1.252 . S
O154 In143 2.294 . S
O154 C147 1.240 . S
O155 In143 2.326 . S
O155 C147 1.252 . S
C4 C94 1.186 1_554 S
C17 C107 1.186 1_554 S
C36 C83 1.186 1_554 S
C146 C49 1.186 . S
C56 C122 1.186 . S
C135 C69 1.186 . S
C16 C88 1.186 1_554 S
C95 C31 1.186 1_556 S
C3 C108 1.186 1_554 S
C127 C68 1.186 . S
C140 C44 1.186 . S
C55 C147 1.186 . S
C75 C10 1.662 . S
C23 C43 1.662 . S
C30 C62 1.662 . S
C82 C153 1.662 . S
C101 C121 1.662 . S
C114 C134 1.662 . S
C5 C81 1.882 1_454 S
C18 C96 1.882 1_554 S
C29 C109 1.882 1_564 S
C42 C120 1.882 1_565 S
C133 C57 1.882 1_655 S
C70 C148 1.882 . S
