# Generated by pormake.
# Topology pcu, (6)-cn, num edge types: 1
# Building blocks:
#     Node 0, Type 0, BuildingBlock: KUMBUR_clean_sbu_1, # of connection points: 6
#     Edge 1, Type (0, 0), BuildingBlock: FUNLAD_clean_linker_1, # of connection points: 2
#     Edge 2, Type (0, 0), BuildingBlock: FUNLAD_clean_linker_1, # of connection points: 2
#     Edge 3, Type (0, 0), BuildingBlock: FUNLAD_clean_linker_1, # of connection points: 2
# Relax obj value: 0.000
# Max RMSD: 0.000
# Mean RMSD: 0.000
data_MOF--net-pcu--node1-KUMBUR_clean_sbu_1--edge1-FUNLAD_clean_linker_1
_symmetry_space_group_name_H-M    P1
_symmetry_Int_Tables_number       1
_symmetry_cell_setting            triclinic
loop_
_symmetry_equiv_pos_as_xyz
'x, y, z'
_cell_length_a     15.383528
_cell_length_b     25.485182
_cell_length_c     15.297763
_cell_angle_alpha  114.26201
_cell_angle_beta   88.836886
_cell_angle_gamma 114.89455
loop_
_atom_site_label
_atom_site_type_symbol
_atom_site_fract_x
_atom_site_fract_y
_atom_site_fract_z
_atom_type_partial_charge
Tb0 Tb 0.94295 0.91321 0.957 0.0
C1 C 0.31777 0.18276 0.16519 0.0
N2 N 0.22725 0.16398 0.1881 0.0
C3 C 0.29755 0.21684 0.35812 0.0
C4 C 0.40211 0.21871 0.23818 0.0
C5 C 0.21602 0.18127 0.2832 0.0
C6 C 0.391 0.23537 0.33556 0.0
C7 C 0.41823 0.1833 0.04087 0.0
C8 C 0.32568 0.16465 0.06767 0.0
C9 C 0.50253 0.21918 0.11334 0.0
C10 C 0.49448 0.23664 0.21168 0.0
Tb11 Tb 0.10067 0.1065 0.0591 0.0
N12 N 0.24244 0.12718 0.9991 0.0
C13 C 0.42319 0.16532 0.94205 0.0
C14 C 0.24707 0.11126 0.90304 0.0
C15 C 0.33716 0.12978 0.87299 0.0
H16 H 0.14444 0.16928 0.30194 0.0
H17 H 0.34017 0.11658 0.79651 0.0
H18 H 0.89921 0.85042 0.71416 0.0
H19 H 0.7034 0.90314 0.21955 0.0
H20 H 0.18208 0.08573 0.84934 0.0
H21 H 0.49285 0.1789 0.9184 0.0
H22 H 0.8615 0.93398 0.16673 0.0
H23 H 0.28826 0.23048 0.43331 0.0
H24 H 0.57427 0.23359 0.09408 0.0
H25 H 0.56015 0.26417 0.26672 0.0
H26 H 0.75541 0.78923 0.58276 0.0
H27 H 0.45397 0.26295 0.39383 0.0
H28 H 0.55073 0.84081 0.09764 0.0
N29 N 0.81639 0.85573 0.82798 0.0
C30 C 0.72585 0.83694 0.85087 0.0
C31 C 0.74611 0.80287 0.65795 0.0
C32 C 0.64153 0.801 0.77787 0.0
C33 C 0.82763 0.83844 0.73289 0.0
C34 C 0.65265 0.78434 0.6805 0.0
N35 N 0.80116 0.8925 0.01696 0.0
C36 C 0.79652 0.90844 0.11303 0.0
C37 C 0.62536 0.83639 0.97517 0.0
C38 C 0.71792 0.85505 0.94838 0.0
C39 C 0.6204 0.85438 0.07399 0.0
C40 C 0.70642 0.88992 0.14306 0.0
H41 H 0.58969 0.75676 0.62222 0.0
H42 H 0.48348 0.75554 0.7493 0.0
H43 H 0.46933 0.78612 0.92194 0.0
O44 O 0.95791 0.85885 0.02341 0.0
O45 O 0.86431 0.96867 0.95844 0.0
O46 O 0.95177 0.07002 0.08608 0.0
O47 O 0.91641 0.81755 0.86804 0.0
O48 O 1.02093 0.97082 0.10978 0.0
O49 O 0.02735 0.07179 0.16201 0.0
O50 O 0.08574 0.16087 0.9927 0.0
O51 O 0.17929 0.05104 0.05768 0.0
O52 O 0.09184 0.9497 0.93002 0.0
O53 O 0.12721 0.20216 0.14807 0.0
O54 O 0.02266 0.0489 0.90633 0.0
O55 O 1.01626 0.94793 0.85409 0.0
C56 C 0.87166 0.02464 0.02281 0.0
C57 C 1.0082 0.78091 0.92729 0.0
C58 C 0.05133 0.70136 0.93793 0.0
C59 C 0.13633 0.72561 0.9009 0.0
C60 C 0.09283 0.804 0.89015 0.0
C61 C 0.15676 0.77672 0.87769 0.0
C62 C 0.98776 0.72966 0.95088 0.0
C63 C 0.03056 0.02611 0.1794 0.0
C64 C 0.93982 0.80899 0.94044 0.0
C65 C 0.54915 0.78307 0.80435 0.0
C66 C 0.54108 0.80052 0.90269 0.0
C67 C 0.17195 0.99507 0.9933 0.0
C68 C 0.03544 0.23882 0.08882 0.0
C69 C 0.99232 0.31836 0.07818 0.0
C70 C 0.90732 0.29411 0.1152 0.0
C71 C 0.95081 0.21572 0.12595 0.0
C72 C 0.05589 0.29007 0.06524 0.0
C73 C 0.88688 0.243 0.13841 0.0
C74 C 1.01303 0.9936 0.8367 0.0
C75 C 0.10382 0.21073 0.07567 0.0
H76 H 0.18631 0.70466 0.88732 0.0
H77 H 0.10864 0.84238 0.86948 0.0
H78 H 0.2218 0.79466 0.8486 0.0
H79 H 0.92174 0.71148 0.97876 0.0
H80 H 0.85734 0.31506 0.12878 0.0
H81 H 0.93499 0.17734 0.14662 0.0
H82 H 0.12191 0.30825 0.03736 0.0
H83 H 0.82184 0.22506 0.1675 0.0
H84 H 0.03145 0.0782 0.33581 0.0
C85 C 0.03421 0.03526 0.28137 0.0
H86 H 0.0372 0.94793 0.25479 0.0
H87 H 0.16597 0.12823 0.74022 0.0
H88 H 0.31071 0.20004 0.70679 0.0
H89 H 0.33085 0.18058 0.53756 0.0
H90 H 0.20583 0.08949 0.40098 0.0
C91 C 0.03749 0.99213 0.30863 0.0
C92 C 0.03117 1.00042 0.41059 0.0
C93 C 0.10582 0.05341 0.4897 0.0
C94 C 0.09555 0.06349 0.58724 0.0
C95 C 0.17054 0.11744 0.66472 0.0
C96 C 0.25403 0.15926 0.64656 0.0
C97 C 0.26522 0.14842 0.55132 0.0
C98 C 0.1924 0.09617 0.47356 0.0
H99 H 1.01214 0.94151 0.6803 0.0
C100 C 1.00937 0.98445 0.73473 0.0
H101 H 1.00637 0.07178 0.76132 0.0
H102 H 0.87759 0.89148 0.27589 0.0
H103 H 0.73285 0.81967 0.30931 0.0
H104 H 0.71272 0.83913 0.47855 0.0
H105 H 0.83774 0.93022 0.61513 0.0
C106 C 1.00608 0.02758 0.70748 0.0
C107 C 1.01239 0.01929 0.60552 0.0
C108 C 0.93775 0.9663 0.52641 0.0
C109 C 0.94801 0.95622 0.42887 0.0
C110 C 0.87303 0.90227 0.35139 0.0
C111 C 0.78953 0.86045 0.36955 0.0
C112 C 0.77834 0.87129 0.46478 0.0
C113 C 0.85117 0.92354 0.54255 0.0
H114 H 0.25416 0.94108 0.92154 0.0
C115 C 0.26032 0.98532 0.98112 0.0
H116 H 0.35491 0.07251 0.10044 0.0
H117 H 0.67889 0.99371 0.15025 0.0
H118 H 0.61487 1.00412 0.29865 0.0
H119 H 0.46882 0.02203 0.32312 0.0
H120 H 0.38571 0.0288 0.19842 0.0
C121 C 0.34795 0.0295 0.03768 0.0
C122 C 0.43649 0.01903 0.02165 0.0
C123 C 0.48564 0.01652 0.09615 0.0
C124 C 0.57053 1.00688 0.08242 0.0
C125 C 0.61557 1.00221 0.15694 0.0
C126 C 0.57921 1.00785 0.2427 0.0
C127 C 0.49702 0.01787 0.25643 0.0
C128 C 0.45026 0.02195 0.18422 0.0
H129 H 0.78946 0.07864 0.09457 0.0
C130 C 0.78329 0.03439 0.035 0.0
H131 H 0.68869 0.9472 0.91568 0.0
H132 H 0.36473 0.02602 0.86588 0.0
H133 H 0.42875 0.0156 0.71747 0.0
H134 H 0.57479 0.99769 0.69301 0.0
H135 H 0.6579 0.99091 0.8177 0.0
C136 C 0.69566 0.99021 0.97844 0.0
C137 C 0.60712 1.00069 0.99448 0.0
C138 C 0.55797 1.0032 0.91998 0.0
C139 C 0.47309 0.01284 0.9337 0.0
C140 C 0.42805 0.01751 0.85919 0.0
C141 C 0.46441 0.01188 0.77342 0.0
C142 C 0.5466 1.00185 0.7597 0.0
C143 C 0.59335 0.99777 0.8319 0.0
H144 H 0.9493 0.62155 0.96923 0.0
C145 C 0.02386 0.64501 0.95954 0.0
H146 H 0.16186 0.64541 0.96535 0.0
H147 H 0.06804 0.48871 0.21393 0.0
H148 H 0.18169 0.5955 0.33464 0.0
H149 H 0.23786 0.68918 0.29844 0.0
H150 H 0.18006 0.67663 0.14137 0.0
C151 C 0.08525 0.62142 0.96783 0.0
C152 C 0.05234 0.56422 0.98818 0.0
C153 C 0.08837 0.57209 0.0796 0.0
C154 C 0.05714 0.51784 0.09991 0.0
C155 C 0.09133 0.52773 0.19338 0.0
C156 C 0.15615 0.58894 0.26373 0.0
C157 C 0.18768 0.64169 0.24339 0.0
C158 C 0.15412 0.63374 0.15276 0.0
H159 H 0.09436 0.39818 0.04688 0.0
C160 C 1.01979 0.37472 0.05657 0.0
H161 H 0.8818 0.37432 0.05075 0.0
H162 H 0.97561 0.53102 0.80217 0.0
H163 H 0.86197 0.42423 0.68147 0.0
H164 H 0.8058 0.33054 0.71766 0.0
H165 H 0.8636 0.3431 0.87473 0.0
C166 C 0.9584 0.39831 0.04827 0.0
C167 C 0.99132 0.4555 0.02792 0.0
C168 C 0.95529 0.44763 0.93651 0.0
C169 C 0.98653 0.50188 0.91619 0.0
C170 C 0.95233 0.49199 0.82273 0.0
C171 C 0.88751 0.43079 0.75238 0.0
C172 C 0.85598 0.37803 0.77271 0.0
C173 C 0.88954 0.38598 0.86334 0.0
loop_
_geom_bond_atom_site_label_1
_geom_bond_atom_site_label_2
_geom_bond_distance
_geom_bond_site_symmetry_2
_ccdc_geom_bond_type
Tb0 N29 2.617 . S
Tb0 N35 2.572 . S
Tb0 O44 2.465 . S
Tb0 O45 2.387 . S
Tb0 O47 2.428 . S
Tb0 O48 2.308 1_556 S
Tb0 O52 2.349 1_655 S
Tb0 O55 2.393 . S
Tb0 C64 2.802 . S
C1 N2 1.379 . S
C1 C4 1.416 . S
C1 C8 1.424 . S
N2 C1 1.379 . S
N2 C5 1.334 . S
N2 Tb11 2.617 . S
C3 C5 1.390 . S
C3 C6 1.339 . S
C3 H23 0.930 . S
C4 C1 1.416 . S
C4 C6 1.416 . S
C4 C10 1.448 . S
C5 N2 1.334 . S
C5 C3 1.390 . S
C5 H16 0.930 . S
C6 C3 1.339 . S
C6 C4 1.416 . S
C6 H27 0.930 . S
C7 C8 1.413 . S
C7 C9 1.427 . S
C7 C13 1.416 . S
C8 C1 1.424 . S
C8 C7 1.413 . S
C8 N12 1.361 . S
C9 C7 1.427 . S
C9 C10 1.328 . S
C9 H24 0.929 . S
C10 C4 1.448 . S
C10 C9 1.328 . S
C10 H25 0.930 . S
Tb11 N2 2.617 . S
Tb11 N12 2.572 . S
Tb11 O46 2.349 1_455 S
Tb11 O49 2.393 . S
Tb11 O50 2.465 . S
Tb11 O51 2.387 . S
Tb11 O53 2.428 . S
Tb11 O54 2.308 1_554 S
Tb11 C75 2.802 . S
N12 C8 1.361 . S
N12 Tb11 2.572 . S
N12 C14 1.340 1_554 S
C13 C7 1.416 . S
C13 C15 1.332 1_554 S
C13 H21 0.931 1_554 S
C14 N12 1.340 1_556 S
C14 C15 1.407 . S
C14 H20 0.930 . S
C15 C13 1.332 1_556 S
C15 C14 1.407 . S
C15 H17 0.929 . S
H16 C5 0.930 . S
H17 C15 0.929 . S
H18 C33 0.930 . S
H19 C40 0.929 . S
H20 C14 0.930 . S
H21 C13 0.931 1_556 S
H22 C36 0.930 . S
H23 C3 0.930 . S
H24 C9 0.929 . S
H25 C10 0.930 . S
H26 C31 0.930 . S
H27 C6 0.930 . S
H28 C39 0.931 1_554 S
N29 Tb0 2.617 . S
N29 C30 1.379 . S
N29 C33 1.334 . S
C30 N29 1.379 . S
C30 C32 1.416 . S
C30 C38 1.424 . S
C31 H26 0.930 . S
C31 C33 1.390 . S
C31 C34 1.339 . S
C32 C30 1.416 . S
C32 C34 1.416 . S
C32 C65 1.448 . S
C33 H18 0.930 . S
C33 N29 1.334 . S
C33 C31 1.390 . S
C34 C31 1.339 . S
C34 C32 1.416 . S
C34 H41 0.930 . S
N35 Tb0 2.572 . S
N35 C36 1.340 1_556 S
N35 C38 1.361 . S
C36 H22 0.930 . S
C36 N35 1.340 1_554 S
C36 C40 1.407 . S
C37 C38 1.413 . S
C37 C39 1.416 . S
C37 C66 1.427 . S
C38 C30 1.424 . S
C38 N35 1.361 . S
C38 C37 1.413 . S
C39 H28 0.931 1_556 S
C39 C37 1.416 . S
C39 C40 1.332 1_556 S
C40 H19 0.929 . S
C40 C36 1.407 . S
C40 C39 1.332 1_554 S
H41 C34 0.930 . S
H42 C65 0.930 . S
H43 C66 0.929 . S
O44 Tb0 2.465 . S
O44 C64 1.264 . S
O45 Tb0 2.387 . S
O45 C56 1.257 1_565 S
O46 Tb11 2.349 1_655 S
O46 C56 1.247 1_554 S
O47 Tb0 2.428 . S
O47 C64 1.256 . S
O48 Tb0 2.308 1_554 S
O48 C63 1.266 1_565 S
O49 Tb11 2.393 . S
O49 C63 1.248 1_455 S
O50 Tb11 2.465 . S
O50 C75 1.264 . S
O51 Tb11 2.387 . S
O51 C67 1.261 1_545 S
O52 Tb0 2.349 1_455 S
O52 C67 1.245 1_556 S
O53 Tb11 2.428 . S
O53 C75 1.256 . S
O54 Tb11 2.308 1_556 S
O54 C74 1.266 1_545 S
O55 Tb0 2.393 . S
O55 C74 1.248 1_655 S
C56 O45 1.257 1_545 S
C56 O46 1.247 1_556 S
C57 C60 1.399 . S
C57 C62 1.383 . S
C57 C64 1.496 . S
C58 C59 1.399 . S
C58 C62 1.389 . S
C59 C58 1.399 . S
C59 C61 1.380 . S
C59 H76 0.929 . S
C60 C57 1.399 . S
C60 C61 1.392 . S
C60 H77 0.929 . S
C61 C59 1.380 . S
C61 C60 1.392 . S
C61 H78 0.929 . S
C62 C57 1.383 . S
C62 C58 1.389 . S
C62 H79 0.931 1_556 S
C63 O48 1.266 1_545 S
C63 O49 1.248 1_655 S
C64 Tb0 2.802 . S
C64 O44 1.264 . S
C64 O47 1.256 . S
C64 C57 1.496 . S
C65 C32 1.448 . S
C65 H42 0.930 . S
C65 C66 1.328 . S
C66 C37 1.427 . S
C66 H43 0.929 . S
C66 C65 1.328 . S
C67 O51 1.261 1_565 S
C67 O52 1.245 1_554 S
C68 C71 1.399 . S
C68 C72 1.383 . S
C68 C75 1.496 . S
C69 C70 1.399 . S
C69 C72 1.389 . S
C70 C69 1.399 . S
C70 C73 1.380 . S
C70 H80 0.929 . S
C71 C68 1.399 . S
C71 C73 1.392 . S
C71 H81 0.929 . S
C72 C68 1.383 . S
C72 C69 1.389 . S
C72 H82 0.931 1_554 S
C73 C70 1.380 . S
C73 C71 1.392 . S
C73 H83 0.929 . S
C74 O54 1.266 1_565 S
C74 O55 1.248 1_455 S
C75 Tb11 2.802 . S
C75 O50 1.264 . S
C75 O53 1.256 . S
C75 C68 1.496 . S
H76 C59 0.929 . S
H77 C60 0.929 . S
H78 C61 0.929 . S
H79 C62 0.931 1_554 S
H80 C70 0.929 . S
H81 C71 0.929 . S
H82 C72 0.931 1_556 S
H83 C73 0.929 . S
H84 C85 0.951 . S
C85 H84 0.951 . S
C85 C91 1.265 1_665 S
H86 C91 0.950 . S
H87 C95 0.949 . S
H88 C96 0.950 . S
H89 C97 0.951 . S
H90 C98 0.951 . S
C91 C85 1.265 1_445 S
C91 H86 0.950 . S
C91 C92 1.478 . S
C92 C91 1.478 . S
C92 C93 1.397 . S
C92 C109 1.394 1_445 S
C93 C92 1.397 . S
C93 C94 1.438 . S
C93 C98 1.429 . S
C94 C93 1.438 . S
C94 C95 1.428 . S
C94 C107 1.394 1_445 S
C95 H87 0.949 . S
C95 C94 1.428 . S
C95 C96 1.345 . S
C96 H88 0.950 . S
C96 C95 1.345 . S
C96 C97 1.424 . S
C97 H89 0.951 . S
C97 C96 1.424 . S
C97 C98 1.347 . S
C98 H90 0.951 . S
C98 C93 1.429 . S
C98 C97 1.347 . S
H99 C100 0.951 . S
C100 H99 0.951 . S
C100 C106 1.265 1_445 S
H101 C106 0.950 . S
H102 C110 0.949 . S
H103 C111 0.950 . S
H104 C112 0.951 . S
H105 C113 0.951 . S
C106 C100 1.265 1_665 S
C106 H101 0.950 . S
C106 C107 1.478 . S
C107 C94 1.394 1_665 S
C107 C106 1.478 . S
C107 C108 1.397 . S
C108 C107 1.397 . S
C108 C109 1.438 . S
C108 C113 1.429 . S
C109 C92 1.394 1_665 S
C109 C108 1.438 . S
C109 C110 1.428 . S
C110 H102 0.949 . S
C110 C109 1.428 . S
C110 C111 1.345 . S
C111 H103 0.950 . S
C111 C110 1.345 . S
C111 C112 1.424 . S
C112 H104 0.951 . S
C112 C111 1.424 . S
C112 C113 1.347 . S
C113 H105 0.951 . S
C113 C108 1.429 . S
C113 C112 1.347 . S
H114 C115 0.951 . S
C115 H114 0.951 . S
C115 C121 1.265 1_566 S
H116 C121 0.950 . S
H117 C125 0.949 . S
H118 C126 0.950 . S
H119 C127 0.951 . S
H120 C128 0.951 . S
C121 C115 1.265 1_544 S
C121 H116 0.950 . S
C121 C122 1.478 . S
C122 C121 1.478 . S
C122 C123 1.397 . S
C122 C139 1.394 1_544 S
C123 C122 1.397 . S
C123 C124 1.438 . S
C123 C128 1.429 . S
C124 C123 1.438 . S
C124 C125 1.428 . S
C124 C137 1.394 1_544 S
C125 H117 0.949 . S
C125 C124 1.428 . S
C125 C126 1.345 . S
C126 H118 0.950 . S
C126 C125 1.345 . S
C126 C127 1.424 . S
C127 H119 0.951 . S
C127 C126 1.424 . S
C127 C128 1.347 . S
C128 H120 0.951 . S
C128 C123 1.429 . S
C128 C127 1.347 . S
H129 C130 0.951 . S
C130 H129 0.951 . S
C130 C136 1.265 1_544 S
H131 C136 0.950 . S
H132 C140 0.949 . S
H133 C141 0.950 . S
H134 C142 0.951 . S
H135 C143 0.951 . S
C136 C130 1.265 1_566 S
C136 H131 0.950 . S
C136 C137 1.478 . S
C137 C124 1.394 1_566 S
C137 C136 1.478 . S
C137 C138 1.397 . S
C138 C137 1.397 . S
C138 C139 1.438 . S
C138 C143 1.429 . S
C139 C122 1.394 1_566 S
C139 C138 1.438 . S
C139 C140 1.428 . S
C140 H132 0.949 . S
C140 C139 1.428 . S
C140 C141 1.345 . S
C141 H133 0.950 . S
C141 C140 1.345 . S
C141 C142 1.424 . S
C142 H134 0.951 . S
C142 C141 1.424 . S
C142 C143 1.347 . S
C143 H135 0.951 . S
C143 C138 1.429 . S
C143 C142 1.347 . S
H144 C145 0.951 . S
C145 H144 0.951 . S
C145 C151 1.265 1_656 S
H146 C151 0.950 . S
H147 C155 0.949 . S
H148 C156 0.950 . S
H149 C157 0.951 . S
H150 C158 0.951 . S
C151 C145 1.265 1_454 S
C151 H146 0.950 . S
C151 C152 1.478 . S
C152 C151 1.478 . S
C152 C153 1.397 . S
C152 C169 1.394 1_454 S
C153 C152 1.397 . S
C153 C154 1.438 . S
C153 C158 1.429 . S
C154 C153 1.438 . S
C154 C155 1.428 . S
C154 C167 1.394 1_454 S
C155 H147 0.949 . S
C155 C154 1.428 . S
C155 C156 1.345 . S
C156 H148 0.950 . S
C156 C155 1.345 . S
C156 C157 1.424 . S
C157 H149 0.951 . S
C157 C156 1.424 . S
C157 C158 1.347 . S
C158 H150 0.951 . S
C158 C153 1.429 . S
C158 C157 1.347 . S
H159 C160 0.951 . S
C160 H159 0.951 . S
C160 C166 1.265 1_454 S
H161 C166 0.950 . S
H162 C170 0.949 . S
H163 C171 0.950 . S
H164 C172 0.951 . S
H165 C173 0.951 . S
C166 C160 1.265 1_656 S
C166 H161 0.950 . S
C166 C167 1.478 . S
C167 C154 1.394 1_656 S
C167 C166 1.478 . S
C167 C168 1.397 . S
C168 C167 1.397 . S
C168 C169 1.438 . S
C168 C173 1.429 . S
C169 C152 1.394 1_656 S
C169 C168 1.438 . S
C169 C170 1.428 . S
C170 H162 0.949 . S
C170 C169 1.428 . S
C170 C171 1.345 . S
C171 H163 0.950 . S
C171 C170 1.345 . S
C171 C172 1.424 . S
C172 H164 0.951 . S
C172 C171 1.424 . S
C172 C173 1.347 . S
C173 H165 0.951 . S
C173 C168 1.429 . S
C173 C172 1.347 . S
C85 C63 1.466 1_565 S
C100 C74 1.466 1_545 S
C115 C67 1.481 1_556 S
C130 C56 1.484 1_554 S
C145 C58 1.343 . S
C160 C69 1.343 . S
