# Generated by pormake.
# Topology fns, (5)-cn, num edge types: 1
# Building blocks:
#     Node 0, Type 0, BuildingBlock: XOMCOT_clean_sbu_0, # of connection points: 5
#     Node 1, Type 0, BuildingBlock: XOMCOT_clean_sbu_0, # of connection points: 5
#     Node 2, Type 0, BuildingBlock: XOMCOT_clean_sbu_0, # of connection points: 5
#     Node 3, Type 0, BuildingBlock: XOMCOT_clean_sbu_0, # of connection points: 5
#     Node 4, Type 0, BuildingBlock: XOMCOT_clean_sbu_0, # of connection points: 5
#     Node 5, Type 0, BuildingBlock: XOMCOT_clean_sbu_0, # of connection points: 5
#     Edge 6, Type (0, 0), None
#     Edge 7, Type (0, 0), None
#     Edge 8, Type (0, 0), None
#     Edge 9, Type (0, 0), None
#     Edge 10, Type (0, 0), None
#     Edge 11, Type (0, 0), None
#     Edge 12, Type (0, 0), None
#     Edge 13, Type (0, 0), None
#     Edge 14, Type (0, 0), None
#     Edge 15, Type (0, 0), None
#     Edge 16, Type (0, 0), None
#     Edge 17, Type (0, 0), None
#     Edge 18, Type (0, 0), None
#     Edge 19, Type (0, 0), None
#     Edge 20, Type (0, 0), None
# Relax obj value: 0.160
# Max RMSD: 0.310
# Mean RMSD: 0.310
data_MOF--net-fns--node1-XOMCOT_clean_sbu_0--edge1-none
_symmetry_space_group_name_H-M    P1
_symmetry_Int_Tables_number       1
_symmetry_cell_setting            triclinic
loop_
_symmetry_equiv_pos_as_xyz
'x, y, z'
_cell_length_a     28.602494
_cell_length_b     28.696594
_cell_length_c     9.2701859
_cell_angle_alpha  90.005179
_cell_angle_beta   89.989875
_cell_angle_gamma 120.48414
loop_
_atom_site_label
_atom_site_type_symbol
_atom_site_fract_x
_atom_site_fract_y
_atom_site_fract_z
_atom_type_partial_charge
Co0 Co 0.21409 0.64009 0.16898 0.0
C1 C 0.19558 0.63689 0.47441 0.0
C2 C 0.24052 0.59711 0.42909 0.0
C3 C 0.23815 0.60273 0.57676 0.0
N4 N 0.21435 0.61943 0.36577 0.0
N5 N 0.21184 0.62962 0.60289 0.0
H6 H 0.17355 0.65797 0.46 0.0
H7 H 0.26137 0.58001 0.37255 0.0
C8 C 0.23154 0.55987 0.97594 0.0
O9 O 0.18963 0.54642 0.89189 0.0
N10 N 0.2097 0.6623 0.97344 0.0
C11 C 0.16698 0.66467 0.91964 0.0
C12 C 0.16434 0.65675 0.77276 0.0
C13 C 0.23497 0.65799 0.85629 0.0
N14 N 0.20627 0.65071 0.73497 0.0
C15 C 0.1016 0.60601 0.20881 0.0
C16 C 0.06022 0.49767 0.15052 0.0
C17 C 0.02366 0.51526 0.18299 0.0
C18 C 0.04551 0.57036 0.21554 0.0
C19 C 0.11603 0.5345 0.14853 0.0
N20 N 0.13607 0.58846 0.16948 0.0
H21 H 0.11748 0.6481 0.23493 0.0
H22 H 0.14265 0.51874 0.13371 0.0
H23 H 0.1368 0.66733 0.98276 0.0
H24 H 0.27195 0.6576 0.86075 0.0
O25 O 0.2203 0.70767 0.24964 0.0
O26 O 0.28789 0.69668 0.18945 0.0
O27 O 0.23733 0.58654 0.09352 0.0
C28 C 0.27253 0.7263 0.25385 0.0
H29 H 0.25385 0.58786 0.65745 0.0
H30 H 0.13184 0.65126 0.70196 0.0
H31 H 0.04624 0.45574 0.12628 0.0
H32 H 0.01985 0.58613 0.2479 0.0
Co33 Co 0.58405 0.21583 0.54637 0.0
C34 C 0.58259 0.2311 0.85982 0.0
C35 C 0.64572 0.21535 0.80104 0.0
C36 C 0.64016 0.21284 0.94921 0.0
N37 N 0.60925 0.22666 0.74452 0.0
N38 N 0.60157 0.22462 0.98508 0.0
H39 H 0.54558 0.23228 0.85546 0.0
H40 H 0.67074 0.20441 0.7391 0.0
C41 C 0.67483 0.22091 0.34974 0.0
O42 O 0.64093 0.17502 0.28678 0.0
N43 N 0.55678 0.20323 0.34972 0.0
C44 C 0.52261 0.15462 0.28884 0.0
C45 C 0.53167 0.15779 0.1426 0.0
C46 C 0.58319 0.23604 0.23778 0.0
N47 N 0.57054 0.20863 0.11231 0.0
C48 C 0.50348 0.1081 0.62204 0.0
C49 C 0.56245 0.05845 0.56443 0.0
C50 C 0.50732 0.02604 0.6015 0.0
C51 C 0.47854 0.0521 0.63558 0.0
C52 C 0.58617 0.11466 0.55518 0.0
N53 N 0.55574 0.13852 0.57414 0.0
H54 H 0.47962 0.12654 0.64551 0.0
H55 H 0.62893 0.13843 0.53344 0.0
H56 H 0.49676 0.11755 0.3458 0.0
H57 H 0.61396 0.27784 0.25058 0.0
O58 O 0.52103 0.22067 0.61058 0.0
O59 O 0.5991 0.28941 0.54373 0.0
O60 O 0.6599 0.23445 0.46709 0.0
C61 C 0.55191 0.27289 0.60039 0.0
H62 H 0.65913 0.19814 0.02214 0.0
H63 H 0.51492 0.12451 0.06675 0.0
H64 H 0.58714 0.0408 0.53977 0.0
H65 H 0.43678 0.0296 0.67142 0.0
Co66 Co 0.37097 0.59064 0.86797 0.0
C67 C 0.35447 0.58374 0.17917 0.0
C68 C 0.42767 0.65716 0.12493 0.0
C69 C 0.4251 0.65039 0.27309 0.0
N70 N 0.383 0.61521 0.06618 0.0
N71 N 0.37822 0.6049 0.30531 0.0
H72 H 0.31997 0.5433 0.17118 0.0
H73 H 0.46193 0.68768 0.06467 0.0
C74 C 0.45063 0.68098 0.66645 0.0
O75 O 0.49819 0.68908 0.62633 0.0
N76 N 0.3594 0.56283 0.67151 0.0
C77 C 0.37939 0.53313 0.61295 0.0
C78 C 0.38458 0.54125 0.46619 0.0
C79 C 0.34973 0.58555 0.55751 0.0
N80 N 0.36662 0.57491 0.43336 0.0
C81 C 0.39251 0.50848 0.96266 0.0
C82 C 0.50231 0.56378 0.90163 0.0
C83 C 0.47793 0.51008 0.94874 0.0
C84 C 0.42251 0.4829 0.98364 0.0
C85 C 0.47104 0.58796 0.88339 0.0
N86 N 0.41635 0.55959 0.90751 0.0
H87 H 0.34966 0.48647 0.98643 0.0
H88 H 0.49144 0.62911 0.84689 0.0
H89 H 0.3945 0.51108 0.67171 0.0
H90 H 0.33517 0.6128 0.56716 0.0
O91 O 0.2982 0.53112 0.92635 0.0
O92 O 0.31737 0.61152 0.85253 0.0
O93 O 0.43514 0.66315 0.79629 0.0
C94 C 0.28189 0.56569 0.90887 0.0
H95 H 0.45713 0.67425 0.34895 0.0
H96 H 0.40429 0.52759 0.39171 0.0
H97 H 0.54489 0.58655 0.87313 0.0
H98 H 0.40214 0.44181 0.02398 0.0
Co99 Co 0.77313 0.35171 0.1689 0.0
C100 C 0.79162 0.35489 0.47432 0.0
C101 C 0.74671 0.39471 0.42908 0.0
C102 C 0.74909 0.3891 0.57674 0.0
N103 N 0.77286 0.37237 0.36571 0.0
N104 N 0.77537 0.36219 0.60283 0.0
H105 H 0.81363 0.3338 0.45988 0.0
H106 H 0.72589 0.41184 0.37257 0.0
C107 C 0.75569 0.43194 0.97594 0.0
O108 O 0.79759 0.44538 0.89184 0.0
N109 N 0.77752 0.32951 0.97335 0.0
C110 C 0.82025 0.32716 0.91951 0.0
C111 C 0.82289 0.33508 0.77263 0.0
C112 C 0.75224 0.33382 0.85624 0.0
N113 N 0.78095 0.3411 0.73489 0.0
C114 C 0.88561 0.38577 0.20873 0.0
C115 C 0.92701 0.49412 0.15046 0.0
C116 C 0.96356 0.47653 0.18297 0.0
C117 C 0.9417 0.42142 0.21549 0.0
C118 C 0.8712 0.45729 0.14844 0.0
N119 N 0.85115 0.40333 0.1694 0.0
H120 H 0.86972 0.34369 0.23484 0.0
H121 H 0.84458 0.47306 0.13362 0.0
H122 H 0.85044 0.32451 0.98259 0.0
H123 H 0.71526 0.33418 0.86073 0.0
O124 O 0.76689 0.28413 0.24951 0.0
O125 O 0.69931 0.29513 0.18938 0.0
O126 O 0.74991 0.40528 0.09352 0.0
C127 C 0.71467 0.26552 0.25379 0.0
H128 H 0.73341 0.404 0.65745 0.0
H129 H 0.85539 0.34058 0.7018 0.0
H130 H 0.94099 0.53605 0.12623 0.0
H131 H 0.96735 0.40565 0.24786 0.0
Co132 Co 0.40312 0.77593 0.54638 0.0
C133 C 0.40455 0.76064 0.85983 0.0
C134 C 0.34147 0.77644 0.80111 0.0
C135 C 0.34703 0.77896 0.94927 0.0
N136 N 0.37791 0.7651 0.74455 0.0
N137 N 0.38559 0.76715 0.98511 0.0
H138 H 0.44155 0.75942 0.85544 0.0
H139 H 0.31647 0.78741 0.73919 0.0
C140 C 0.31235 0.77089 0.34986 0.0
O141 O 0.34625 0.81677 0.28684 0.0
N142 N 0.4304 0.78853 0.3497 0.0
C143 C 0.46456 0.83714 0.28883 0.0
C144 C 0.4555 0.83398 0.1426 0.0
C145 C 0.40399 0.75572 0.23777 0.0
N146 N 0.41663 0.78314 0.11231 0.0
C147 C 0.48368 0.88366 0.62201 0.0
C148 C 0.42471 0.9333 0.56448 0.0
C149 C 0.47983 0.96572 0.6015 0.0
C150 C 0.50862 0.93966 0.63555 0.0
C151 C 0.40099 0.8771 0.55524 0.0
N152 N 0.43142 0.85324 0.57415 0.0
H153 H 0.50755 0.86523 0.64545 0.0
H154 H 0.35823 0.85332 0.53355 0.0
H155 H 0.49041 0.87421 0.34578 0.0
H156 H 0.37322 0.71392 0.25058 0.0
O157 O 0.46614 0.7711 0.61055 0.0
O158 O 0.38808 0.70235 0.54373 0.0
O159 O 0.32727 0.7573 0.46712 0.0
C160 C 0.43527 0.71888 0.60039 0.0
H161 H 0.32808 0.7937 0.02221 0.0
H162 H 0.47224 0.86726 0.06676 0.0
H163 H 0.40002 0.95096 0.53986 0.0
H164 H 0.55038 0.96217 0.67135 0.0
Co165 Co 0.61624 0.40111 0.86809 0.0
C166 C 0.63276 0.40799 0.1793 0.0
C167 C 0.55951 0.33462 0.12506 0.0
C168 C 0.56208 0.34138 0.27322 0.0
N169 N 0.60422 0.37653 0.0663 0.0
N170 N 0.60898 0.38684 0.30544 0.0
H171 H 0.66729 0.44842 0.17131 0.0
H172 H 0.52524 0.30413 0.06481 0.0
C173 C 0.53659 0.31081 0.66656 0.0
O174 O 0.48907 0.30278 0.62636 0.0
N175 N 0.62781 0.42892 0.67163 0.0
C176 C 0.60781 0.45861 0.61311 0.0
C177 C 0.60262 0.4505 0.46635 0.0
C178 C 0.63749 0.40621 0.55761 0.0
N179 N 0.62059 0.41684 0.43348 0.0
C180 C 0.59465 0.48324 0.9628 0.0
C181 C 0.48486 0.42791 0.90177 0.0
C182 C 0.50922 0.48162 0.9488 0.0
C183 C 0.56464 0.50882 0.98373 0.0
C184 C 0.51614 0.40374 0.8836 0.0
N185 N 0.57083 0.43212 0.90768 0.0
H186 H 0.6375 0.50526 0.98656 0.0
H187 H 0.49576 0.36258 0.84716 0.0
H188 H 0.59268 0.48065 0.67189 0.0
H189 H 0.65205 0.37896 0.56724 0.0
O190 O 0.689 0.46066 0.92644 0.0
O191 O 0.66986 0.38027 0.85258 0.0
O192 O 0.55211 0.32858 0.79642 0.0
C193 C 0.70533 0.42611 0.90891 0.0
H194 H 0.53003 0.31755 0.34908 0.0
H195 H 0.5829 0.46414 0.3919 0.0
H196 H 0.44228 0.40513 0.87328 0.0
H197 H 0.585 0.5499 0.02403 0.0
loop_
_geom_bond_atom_site_label_1
_geom_bond_atom_site_label_2
_geom_bond_distance
_geom_bond_site_symmetry_2
_ccdc_geom_bond_type
Co0 N4 2.148 . S
Co0 N10 2.128 1_554 S
Co0 N20 2.194 . S
Co0 O25 2.351 . S
Co0 O26 2.155 . S
Co0 O27 2.096 . S
C1 N4 1.301 . S
C1 N5 1.328 . S
C1 H6 0.930 . S
C2 C3 1.333 . S
C2 N4 1.317 . S
C2 H7 0.930 . S
C3 C2 1.333 . S
C3 N5 1.350 . S
C3 H29 0.931 . S
N4 Co0 2.148 . S
N4 C1 1.301 . S
N4 C2 1.317 . S
N5 C1 1.328 . S
N5 C3 1.350 . S
H6 C1 0.930 . S
H7 C2 0.930 . S
C8 O9 1.224 . S
C8 O27 1.247 . S
O9 C8 1.224 . S
N10 Co0 2.128 1_556 S
N10 C11 1.355 . S
N10 C13 1.311 . S
C11 N10 1.355 . S
C11 C12 1.363 . S
C11 H23 0.929 . S
C12 C11 1.363 . S
C12 N14 1.375 . S
C12 H30 0.931 . S
C13 N10 1.311 . S
C13 N14 1.347 . S
C13 H24 0.929 . S
N14 C12 1.375 . S
N14 C13 1.347 . S
C15 C18 1.365 . S
C15 N20 1.328 . S
C15 H21 0.929 . S
C16 C17 1.362 . S
C16 C19 1.378 . S
C16 H31 0.929 . S
C17 C16 1.362 . S
C17 C18 1.366 . S
C18 C15 1.365 . S
C18 C17 1.366 . S
C18 H32 0.930 . S
C19 C16 1.378 . S
C19 N20 1.315 . S
C19 H22 0.930 . S
N20 Co0 2.194 . S
N20 C15 1.328 . S
N20 C19 1.315 . S
H21 C15 0.929 . S
H22 C19 0.930 . S
H23 C11 0.929 . S
H24 C13 0.929 . S
O25 Co0 2.351 . S
O25 C28 1.244 . S
O26 Co0 2.155 . S
O26 C28 1.240 . S
O27 Co0 2.096 . S
O27 C8 1.247 . S
C28 O25 1.244 . S
C28 O26 1.240 . S
H29 C3 0.931 . S
H30 C12 0.931 . S
H31 C16 0.929 . S
H32 C18 0.930 . S
Co33 N37 2.148 . S
Co33 N43 2.128 . S
Co33 N53 2.194 . S
Co33 O58 2.351 . S
Co33 O59 2.155 . S
Co33 O60 2.096 . S
C34 N37 1.301 . S
C34 N38 1.328 . S
C34 H39 0.930 . S
C35 C36 1.333 . S
C35 N37 1.317 . S
C35 H40 0.930 . S
C36 C35 1.333 . S
C36 N38 1.350 . S
C36 H62 0.931 . S
N37 Co33 2.148 . S
N37 C34 1.301 . S
N37 C35 1.317 . S
N38 C34 1.328 . S
N38 C36 1.350 . S
H39 C34 0.930 . S
H40 C35 0.930 . S
C41 O42 1.224 . S
C41 O60 1.247 . S
O42 C41 1.224 . S
N43 Co33 2.128 . S
N43 C44 1.355 . S
N43 C46 1.311 . S
C44 N43 1.355 . S
C44 C45 1.363 . S
C44 H56 0.929 . S
C45 C44 1.363 . S
C45 N47 1.375 . S
C45 H63 0.931 . S
C46 N43 1.311 . S
C46 N47 1.347 . S
C46 H57 0.929 . S
N47 C45 1.375 . S
N47 C46 1.347 . S
C48 C51 1.365 . S
C48 N53 1.328 . S
C48 H54 0.929 . S
C49 C50 1.362 . S
C49 C52 1.378 . S
C49 H64 0.929 . S
C50 C49 1.362 . S
C50 C51 1.366 . S
C51 C48 1.365 . S
C51 C50 1.366 . S
C51 H65 0.930 . S
C52 C49 1.378 . S
C52 N53 1.315 . S
C52 H55 0.930 . S
N53 Co33 2.194 . S
N53 C48 1.328 . S
N53 C52 1.315 . S
H54 C48 0.929 . S
H55 C52 0.930 . S
H56 C44 0.929 . S
H57 C46 0.929 . S
O58 Co33 2.351 . S
O58 C61 1.244 . S
O59 Co33 2.155 . S
O59 C61 1.240 . S
O60 Co33 2.096 . S
O60 C41 1.247 . S
C61 O58 1.244 . S
C61 O59 1.240 . S
H62 C36 0.931 . S
H63 C45 0.931 . S
H64 C49 0.929 . S
H65 C51 0.930 . S
Co66 N70 2.148 1_556 S
Co66 N76 2.128 . S
Co66 N86 2.194 . S
Co66 O91 2.351 . S
Co66 O92 2.155 . S
Co66 O93 2.096 . S
C67 N70 1.301 . S
C67 N71 1.328 . S
C67 H72 0.930 . S
C68 C69 1.333 . S
C68 N70 1.317 . S
C68 H73 0.930 . S
C69 C68 1.333 . S
C69 N71 1.350 . S
C69 H95 0.931 . S
N70 Co66 2.148 1_554 S
N70 C67 1.301 . S
N70 C68 1.317 . S
N71 C67 1.328 . S
N71 C69 1.350 . S
H72 C67 0.930 . S
H73 C68 0.930 . S
C74 O75 1.224 . S
C74 O93 1.247 . S
O75 C74 1.224 . S
N76 Co66 2.128 . S
N76 C77 1.355 . S
N76 C79 1.311 . S
C77 N76 1.355 . S
C77 C78 1.363 . S
C77 H89 0.929 . S
C78 C77 1.363 . S
C78 N80 1.375 . S
C78 H96 0.931 . S
C79 N76 1.311 . S
C79 N80 1.347 . S
C79 H90 0.929 . S
N80 C78 1.375 . S
N80 C79 1.347 . S
C81 C84 1.365 . S
C81 N86 1.328 . S
C81 H87 0.929 . S
C82 C83 1.362 . S
C82 C85 1.378 . S
C82 H97 0.929 . S
C83 C82 1.362 . S
C83 C84 1.366 . S
C84 C81 1.365 . S
C84 C83 1.366 . S
C84 H98 0.930 . S
C85 C82 1.378 . S
C85 N86 1.315 . S
C85 H88 0.930 . S
N86 Co66 2.194 . S
N86 C81 1.328 . S
N86 C85 1.315 . S
H87 C81 0.929 . S
H88 C85 0.930 . S
H89 C77 0.929 . S
H90 C79 0.929 . S
O91 Co66 2.351 . S
O91 C94 1.244 . S
O92 Co66 2.155 . S
O92 C94 1.240 . S
O93 Co66 2.096 . S
O93 C74 1.247 . S
C94 O91 1.244 . S
C94 O92 1.240 . S
H95 C69 0.931 . S
H96 C78 0.931 . S
H97 C82 0.929 . S
H98 C84 0.930 . S
Co99 N103 2.148 . S
Co99 N109 2.128 1_554 S
Co99 N119 2.194 . S
Co99 O124 2.351 . S
Co99 O125 2.155 . S
Co99 O126 2.096 . S
C100 N103 1.301 . S
C100 N104 1.328 . S
C100 H105 0.930 . S
C101 C102 1.333 . S
C101 N103 1.317 . S
C101 H106 0.930 . S
C102 C101 1.333 . S
C102 N104 1.350 . S
C102 H128 0.931 . S
N103 Co99 2.148 . S
N103 C100 1.301 . S
N103 C101 1.317 . S
N104 C100 1.328 . S
N104 C102 1.350 . S
H105 C100 0.930 . S
H106 C101 0.930 . S
C107 O108 1.224 . S
C107 O126 1.247 . S
O108 C107 1.224 . S
N109 Co99 2.128 1_556 S
N109 C110 1.355 . S
N109 C112 1.311 . S
C110 N109 1.355 . S
C110 C111 1.363 . S
C110 H122 0.929 . S
C111 C110 1.363 . S
C111 N113 1.375 . S
C111 H129 0.931 . S
C112 N109 1.311 . S
C112 N113 1.347 . S
C112 H123 0.929 . S
N113 C111 1.375 . S
N113 C112 1.347 . S
C114 C117 1.365 . S
C114 N119 1.328 . S
C114 H120 0.929 . S
C115 C116 1.362 . S
C115 C118 1.378 . S
C115 H130 0.929 . S
C116 C115 1.362 . S
C116 C117 1.366 . S
C117 C114 1.365 . S
C117 C116 1.366 . S
C117 H131 0.930 . S
C118 C115 1.378 . S
C118 N119 1.315 . S
C118 H121 0.930 . S
N119 Co99 2.194 . S
N119 C114 1.328 . S
N119 C118 1.315 . S
H120 C114 0.929 . S
H121 C118 0.930 . S
H122 C110 0.929 . S
H123 C112 0.929 . S
O124 Co99 2.351 . S
O124 C127 1.244 . S
O125 Co99 2.155 . S
O125 C127 1.240 . S
O126 Co99 2.096 . S
O126 C107 1.247 . S
C127 O124 1.244 . S
C127 O125 1.240 . S
H128 C102 0.931 . S
H129 C111 0.931 . S
H130 C115 0.929 . S
H131 C117 0.930 . S
Co132 N136 2.148 . S
Co132 N142 2.128 . S
Co132 N152 2.194 . S
Co132 O157 2.351 . S
Co132 O158 2.155 . S
Co132 O159 2.096 . S
C133 N136 1.301 . S
C133 N137 1.328 . S
C133 H138 0.930 . S
C134 C135 1.333 . S
C134 N136 1.317 . S
C134 H139 0.930 . S
C135 C134 1.333 . S
C135 N137 1.350 . S
C135 H161 0.931 . S
N136 Co132 2.148 . S
N136 C133 1.301 . S
N136 C134 1.317 . S
N137 C133 1.328 . S
N137 C135 1.350 . S
H138 C133 0.930 . S
H139 C134 0.930 . S
C140 O141 1.224 . S
C140 O159 1.247 . S
O141 C140 1.224 . S
N142 Co132 2.128 . S
N142 C143 1.355 . S
N142 C145 1.311 . S
C143 N142 1.355 . S
C143 C144 1.363 . S
C143 H155 0.929 . S
C144 C143 1.363 . S
C144 N146 1.375 . S
C144 H162 0.931 . S
C145 N142 1.311 . S
C145 N146 1.347 . S
C145 H156 0.929 . S
N146 C144 1.375 . S
N146 C145 1.347 . S
C147 C150 1.365 . S
C147 N152 1.328 . S
C147 H153 0.929 . S
C148 C149 1.362 . S
C148 C151 1.378 . S
C148 H163 0.929 . S
C149 C148 1.362 . S
C149 C150 1.366 . S
C150 C147 1.365 . S
C150 C149 1.366 . S
C150 H164 0.930 . S
C151 C148 1.378 . S
C151 N152 1.315 . S
C151 H154 0.930 . S
N152 Co132 2.194 . S
N152 C147 1.328 . S
N152 C151 1.315 . S
H153 C147 0.929 . S
H154 C151 0.930 . S
H155 C143 0.929 . S
H156 C145 0.929 . S
O157 Co132 2.351 . S
O157 C160 1.244 . S
O158 Co132 2.155 . S
O158 C160 1.240 . S
O159 Co132 2.096 . S
O159 C140 1.247 . S
C160 O157 1.244 . S
C160 O158 1.240 . S
H161 C135 0.931 . S
H162 C144 0.931 . S
H163 C148 0.929 . S
H164 C150 0.930 . S
Co165 N169 2.148 1_556 S
Co165 N175 2.128 . S
Co165 N185 2.194 . S
Co165 O190 2.351 . S
Co165 O191 2.155 . S
Co165 O192 2.096 . S
C166 N169 1.301 . S
C166 N170 1.328 . S
C166 H171 0.930 . S
C167 C168 1.333 . S
C167 N169 1.317 . S
C167 H172 0.930 . S
C168 C167 1.333 . S
C168 N170 1.350 . S
C168 H194 0.931 . S
N169 Co165 2.148 1_554 S
N169 C166 1.301 . S
N169 C167 1.317 . S
N170 C166 1.328 . S
N170 C168 1.350 . S
H171 C166 0.930 . S
H172 C167 0.930 . S
C173 O174 1.224 . S
C173 O192 1.247 . S
O174 C173 1.224 . S
N175 Co165 2.128 . S
N175 C176 1.355 . S
N175 C178 1.311 . S
C176 N175 1.355 . S
C176 C177 1.363 . S
C176 H188 0.929 . S
C177 C176 1.363 . S
C177 N179 1.375 . S
C177 H195 0.931 . S
C178 N175 1.311 . S
C178 N179 1.347 . S
C178 H189 0.929 . S
N179 C177 1.375 . S
N179 C178 1.347 . S
C180 C183 1.365 . S
C180 N185 1.328 . S
C180 H186 0.929 . S
C181 C182 1.362 . S
C181 C184 1.378 . S
C181 H196 0.929 . S
C182 C181 1.362 . S
C182 C183 1.366 . S
C183 C180 1.365 . S
C183 C182 1.366 . S
C183 H197 0.930 . S
C184 C181 1.378 . S
C184 N185 1.315 . S
C184 H187 0.930 . S
N185 Co165 2.194 . S
N185 C180 1.328 . S
N185 C184 1.315 . S
H186 C180 0.929 . S
H187 C184 0.930 . S
H188 C176 0.929 . S
H189 C178 0.929 . S
O190 Co165 2.351 . S
O190 C193 1.244 . S
O191 Co165 2.155 . S
O191 C193 1.240 . S
O192 Co165 2.096 . S
O192 C173 1.247 . S
C193 O190 1.244 . S
C193 O191 1.240 . S
H194 C168 0.931 . S
H195 C177 0.931 . S
H196 C181 0.929 . S
H197 C183 0.930 . S
C8 C94 1.194 1_554 S
C41 C127 1.192 . S
C160 C74 1.192 . S
C193 C107 1.194 1_556 S
C140 C28 1.192 . S
C61 C173 1.192 . S
N14 N5 2.799 . S
N38 N47 2.800 1_556 S
N80 N71 2.800 . S
N113 N104 2.799 . S
N146 N137 2.800 1_554 S
N170 N179 2.800 . S
C116 C17 1.306 1_655 S
C50 C149 1.305 1_545 S
C83 C182 1.309 . S
