# Generated by pormake.
# Topology ths, (3)-cn, num edge types: 1
# Building blocks:
#     Node 0, Type 0, BuildingBlock: OLANEW_clean_sbu_2, # of connection points: 3
#     Node 1, Type 0, BuildingBlock: OLANEW_clean_sbu_2, # of connection points: 3
#     Node 2, Type 0, BuildingBlock: OLANEW_clean_sbu_2, # of connection points: 3
#     Node 3, Type 0, BuildingBlock: OLANEW_clean_sbu_2, # of connection points: 3
#     Node 4, Type 0, BuildingBlock: OLANEW_clean_sbu_2, # of connection points: 3
#     Node 5, Type 0, BuildingBlock: OLANEW_clean_sbu_2, # of connection points: 3
#     Node 6, Type 0, BuildingBlock: OLANEW_clean_sbu_2, # of connection points: 3
#     Node 7, Type 0, BuildingBlock: OLANEW_clean_sbu_2, # of connection points: 3
#     Edge 8, Type (0, 0), BuildingBlock: AJUNOK_clean_linker_0, # of connection points: 2
#     Edge 9, Type (0, 0), BuildingBlock: AJUNOK_clean_linker_0, # of connection points: 2
#     Edge 10, Type (0, 0), BuildingBlock: AJUNOK_clean_linker_0, # of connection points: 2
#     Edge 11, Type (0, 0), BuildingBlock: AJUNOK_clean_linker_0, # of connection points: 2
#     Edge 12, Type (0, 0), BuildingBlock: AJUNOK_clean_linker_0, # of connection points: 2
#     Edge 13, Type (0, 0), BuildingBlock: AJUNOK_clean_linker_0, # of connection points: 2
#     Edge 14, Type (0, 0), BuildingBlock: AJUNOK_clean_linker_0, # of connection points: 2
#     Edge 15, Type (0, 0), BuildingBlock: AJUNOK_clean_linker_0, # of connection points: 2
#     Edge 16, Type (0, 0), BuildingBlock: AJUNOK_clean_linker_0, # of connection points: 2
#     Edge 17, Type (0, 0), BuildingBlock: AJUNOK_clean_linker_0, # of connection points: 2
#     Edge 18, Type (0, 0), BuildingBlock: AJUNOK_clean_linker_0, # of connection points: 2
#     Edge 19, Type (0, 0), BuildingBlock: AJUNOK_clean_linker_0, # of connection points: 2
# Relax obj value: 0.000
# Max RMSD: 0.048
# Mean RMSD: 0.039
data_MOF--net-ths--node1-OLANEW_clean_sbu_2--edge1-AJUNOK_clean_linker_0
_symmetry_space_group_name_H-M    P1
_symmetry_Int_Tables_number       1
_symmetry_cell_setting            triclinic
loop_
_symmetry_equiv_pos_as_xyz
'x, y, z'
_cell_length_a     24.633579
_cell_length_b     24.682604
_cell_length_c     58.32021
_cell_angle_alpha  102.02577
_cell_angle_beta   90.073591
_cell_angle_gamma 90.140742
loop_
_atom_site_label
_atom_site_type_symbol
_atom_site_fract_x
_atom_site_fract_y
_atom_site_fract_z
_atom_type_partial_charge
O0 O 0.12247 0.76456 0.05015 0.0
Cd1 Cd 0.12444 0.73477 0.00762 0.0
O2 O 0.21091 0.77285 0.05495 0.0
Cd3 Cd 0.22267 0.73067 0.0186 0.0
O4 O 0.20449 0.65754 -0.0084 0.0
C5 C 0.2233 0.61138 -0.00576 0.0
O6 O 0.25681 0.61084 0.01174 0.0
C7 C 0.16324 0.77875 0.06347 0.0
C8 C 0.09333 0.82455 0.98874 0.0
O9 O 0.05844 0.78852 -0.00776 0.0
O10 O 0.14316 0.81692 -0.00649 0.0
O11 O 0.64352 0.67094 0.30219 0.0
Cd12 Cd 0.6428 0.67751 0.26111 0.0
O13 O 0.58012 0.60716 0.29945 0.0
Cd14 Cd 0.55482 0.61641 0.26471 0.0
O15 O 0.48665 0.64823 0.24766 0.0
C16 C 0.47198 0.69749 0.25649 0.0
O17 O 0.50059 0.72638 0.27387 0.0
C18 C 0.61567 0.63791 0.31154 0.0
C19 C 0.74807 0.70092 0.24817 0.0
O20 O 0.71485 0.7399 0.25655 0.0
O21 O 0.73106 0.65091 0.2456 0.0
O22 O 0.57117 0.28087 0.56277 0.0
Cd23 Cd 0.56038 0.26103 0.52029 0.0
O24 O 0.65999 0.27465 0.56085 0.0
Cd25 Cd 0.65609 0.2286 0.52478 0.0
O26 O 0.6501 0.14416 0.50435 0.0
C27 C 0.63877 0.10794 0.51626 0.0
O28 O 0.63068 0.12452 0.5389 0.0
C29 C 0.61718 0.28685 0.57293 0.0
C30 C 0.5664 0.36172 0.5058 0.0
O31 O 0.52065 0.34198 0.51066 0.0
O32 O 0.60902 0.33293 0.50719 0.0
O33 O 0.1092 0.27052 0.82035 0.0
Cd34 Cd 0.12616 0.29402 0.78235 0.0
O35 O 0.10539 0.18069 0.80662 0.0
Cd36 Cd 0.09558 0.19532 0.77134 0.0
O37 O 0.02756 0.22632 0.75391 0.0
C38 C 0.98179 0.20522 0.75712 0.0
O39 O 0.98031 0.1648 0.76864 0.0
C40 C 0.10517 0.2216 0.82397 0.0
C41 C 0.23662 0.29007 0.7713 0.0
O42 O 0.21465 0.33482 0.78251 0.0
O43 O 0.20621 0.2472 0.76542 0.0
O44 O 0.00966 0.13604 0.91296 0.0
Cd45 Cd 0.97291 0.1192 0.94961 0.0
O46 O 0.05394 0.20644 0.93385 0.0
Cd47 Cd 0.10952 0.27722 0.93918 0.0
O48 O 0.15384 0.35525 0.94931 0.0
C49 C 0.12883 0.40013 0.94913 0.0
O50 O 0.07758 0.39767 0.94277 0.0
C51 C 0.04141 0.17706 0.91394 0.0
C52 C 0.0155 0.02329 0.96045 0.0
O53 O 0.97077 0.02207 0.94909 0.0
O54 O 0.03981 0.07 0.9667 0.0
O55 O 0.16596 0.81472 0.17702 0.0
Cd56 Cd 0.16073 0.81111 0.21833 0.0
O57 O 0.08006 0.83372 0.17223 0.0
Cd58 Cd 0.05194 0.82945 0.20723 0.0
O59 O 0.98189 0.80699 0.22622 0.0
C60 C 0.96395 0.75785 0.21965 0.0
O61 O 0.99044 0.72349 0.20325 0.0
C62 C 0.12766 0.82491 0.16396 0.0
C63 C 0.26198 0.77713 0.23155 0.0
O64 O 0.22501 0.74179 0.22327 0.0
O65 O 0.25051 0.82864 0.23406 0.0
O66 O 0.5811 0.65982 0.4242 0.0
Cd67 Cd 0.57321 0.67992 0.46677 0.0
O68 O 0.65599 0.70819 0.42399 0.0
Cd69 Cd 0.6479 0.75213 0.46024 0.0
O70 O 0.64055 0.83522 0.48187 0.0
C71 C 0.64165 0.87407 0.47058 0.0
O72 O 0.64684 0.86101 0.44766 0.0
C73 C 0.62064 0.67501 0.41304 0.0
C74 C 0.57306 0.57901 0.48121 0.0
O75 O 0.52857 0.60166 0.47678 0.0
O76 O 0.61742 0.60498 0.47938 0.0
O77 O 0.66383 0.33401 0.68648 0.0
Cd78 Cd 0.67321 0.34114 0.72852 0.0
O79 O 0.57502 0.34251 0.68543 0.0
Cd80 Cd 0.55729 0.34763 0.72243 0.0
O81 O 0.4873 0.34023 0.74452 0.0
C82 C 0.4594 0.29609 0.73868 0.0
O83 O 0.47672 0.25733 0.72127 0.0
C84 C 0.62048 0.33639 0.67494 0.0
C85 C 0.77444 0.29807 0.73671 0.0
O86 O 0.73171 0.26763 0.73424 0.0
O87 O 0.76897 0.3492 0.73584 0.0
C88 C 0.20295 0.45708 0.97174 0.0
C89 C 0.15544 0.45437 0.95812 0.0
C90 C 0.22575 0.50806 0.98256 0.0
C91 C 0.20232 0.55846 0.98004 0.0
H92 H 0.22171 0.41958 0.97481 0.0
H93 H 0.26129 0.50781 -0.00651 0.0
S94 S 0.08117 0.57401 0.94395 0.0
N95 N 0.08821 0.50645 0.94109 0.0
N96 N 0.13118 0.60226 0.96128 0.0
C97 C 0.15644 0.55633 0.96543 0.0
C98 C 0.13296 0.50432 0.95454 0.0
C99 C 0.87507 0.78254 0.2399 0.0
C100 C 0.91089 0.74159 0.22827 0.0
C101 C 0.82282 0.76888 0.24637 0.0
C102 C 0.80429 0.71365 0.24167 0.0
H103 H 0.88685 0.8258 0.24354 0.0
H104 H 0.79663 0.80214 0.25497 0.0
S105 S 0.88374 0.59023 0.21312 0.0
N106 N 0.92513 0.64303 0.21337 0.0
N107 N 0.82718 0.61731 0.22562 0.0
C108 C 0.8403 0.67204 0.23067 0.0
C109 C 0.89347 0.68601 0.22396 0.0
C110 C 0.52172 0.44552 0.49643 0.0
C111 C 0.56967 0.41671 0.49928 0.0
C112 C 0.52333 0.49792 0.49073 0.0
C113 C 0.57296 0.52393 0.48772 0.0
H114 H 0.48239 0.42754 0.49861 0.0
H115 H 0.48517 0.51812 0.48869 0.0
S116 S 0.71043 0.46636 0.49331 0.0
N117 N 0.66848 0.4183 0.49868 0.0
N118 N 0.6715 0.51671 0.48804 0.0
C119 C 0.62132 0.49568 0.49056 0.0
C120 C 0.61968 0.44214 0.49629 0.0
C121 C 0.88126 0.19993 0.75137 0.0
C122 C 0.93035 0.22846 0.75008 0.0
C123 C 0.83134 0.22242 0.74667 0.0
C124 C 0.82826 0.27467 0.7407 0.0
H125 H 0.88115 0.16 0.75632 0.0
H126 H 0.79478 0.19894 0.74819 0.0
S127 S 0.94504 0.36532 0.73371 0.0
N128 N 0.97289 0.31099 0.7414 0.0
N129 N 0.87902 0.35344 0.73273 0.0
C130 C 0.87709 0.30324 0.73883 0.0
C131 C 0.9281 0.28007 0.74343 0.0
C132 C 0.38003 0.33904 0.76247 0.0
C133 C 0.40484 0.29167 0.74898 0.0
C134 C 0.32618 0.33767 0.77009 0.0
C135 C 0.29489 0.28884 0.76461 0.0
H136 H 0.40167 0.37812 0.76659 0.0
H137 H 0.30865 0.37571 0.77988 0.0
S138 S 0.34268 0.15174 0.73194 0.0
N139 N 0.39532 0.19329 0.73205 0.0
N140 N 0.29429 0.19068 0.74637 0.0
C141 C 0.31999 0.24049 0.75204 0.0
C142 C 0.37485 0.24192 0.74424 0.0
C143 C 0.33063 0.7023 0.23097 0.0
C144 C 0.31647 0.75861 0.23763 0.0
C145 C 0.38154 0.68327 0.23652 0.0
C146 C 0.42028 0.71965 0.24918 0.0
H147 H 0.30214 0.67242 0.22139 0.0
H148 H 0.39003 0.63939 0.23126 0.0
S149 S 0.40446 0.87154 0.27001 0.0
N150 N 0.34625 0.85098 0.25697 0.0
N151 N 0.44171 0.81514 0.26754 0.0
C152 C 0.40707 0.77624 0.25565 0.0
C153 C 0.35529 0.79572 0.24985 0.0
C154 C 0.64787 0.97489 0.46997 0.0
C155 C 0.63886 0.93317 0.48274 0.0
C156 C 0.64711 0.03108 0.48089 0.0
C157 C 0.63713 0.04808 0.50506 0.0
H158 H 0.65626 0.96423 0.45135 0.0
H159 H 0.65491 0.06135 0.47025 0.0
S160 S 0.60843 0.9554 0.54636 0.0
N161 N 0.61783 0.91287 0.52083 0.0
N162 N 0.61621 0.01837 0.54138 0.0
C163 C 0.62703 0.00684 0.51802 0.0
C164 C 0.62797 0.94949 0.50687 0.0
C165 C 0.02271 0.87767 0.97191 0.0
C166 C 0.07592 0.8745 0.98033 0.0
C167 C 0.00398 0.9255 0.9651 0.0
C168 C 0.03751 0.97237 0.96667 0.0
H169 H 0.99495 0.84309 0.97074 0.0
H170 H 0.96247 0.92602 0.959 0.0
S171 S 0.18101 0.98487 0.9867 0.0
N172 N 0.16258 0.92198 0.98914 0.0
N173 N 0.12723 0.01196 0.97651 0.0
C174 C 0.09114 0.96951 0.97467 0.0
C175 C 0.1104 0.92057 0.98142 0.0
C176 C 0.1889 0.80496 0.12896 0.0
C177 C 0.13752 0.82124 0.13855 0.0
C178 C 0.19754 0.7938 0.1047 0.0
C179 C 0.15513 0.79814 0.08903 0.0
H180 H 0.22236 0.79881 0.14018 0.0
H181 H 0.23725 0.77934 0.09817 0.0
S182 S 0.01511 0.84701 0.1051 0.0
N183 N 0.04514 0.84697 0.1304 0.0
N184 N 0.06146 0.82563 0.08485 0.0
C185 C 0.10444 0.81751 0.09838 0.0
C186 C 0.09567 0.82918 0.1231 0.0
C187 C 0.66038 0.68491 0.37475 0.0
C188 C 0.62326 0.65835 0.38711 0.0
C189 C 0.65929 0.67585 0.35027 0.0
C190 C 0.62115 0.6397 0.33705 0.0
H191 H 0.68929 0.71475 0.38403 0.0
H192 H 0.68746 0.69905 0.34175 0.0
S193 S 0.52006 0.55377 0.36074 0.0
N194 N 0.55092 0.58987 0.38416 0.0
N195 N 0.54888 0.57269 0.3381 0.0
C196 C 0.58605 0.61008 0.34908 0.0
C197 C 0.58707 0.61947 0.37409 0.0
C198 C 0.57216 0.31566 0.61192 0.0
C199 C 0.62029 0.30459 0.59883 0.0
C200 C 0.57298 0.32752 0.63643 0.0
C201 C 0.62196 0.32882 0.649 0.0
H202 H 0.53314 0.31394 0.60321 0.0
H203 H 0.53451 0.33442 0.64554 0.0
S204 S 0.76004 0.30748 0.62317 0.0
N205 N 0.71892 0.2992 0.60034 0.0
N206 N 0.72043 0.32147 0.64644 0.0
C207 C 0.67072 0.32001 0.63618 0.0
C208 C 0.66989 0.30793 0.61113 0.0
C209 C 0.08064 0.14765 0.87396 0.0
C210 C 0.0623 0.19038 0.89208 0.0
C211 C 0.09674 0.15849 0.85231 0.0
C212 C 0.09464 0.21245 0.84792 0.0
H213 H 0.08192 0.10537 0.87644 0.0
H214 H 0.10972 0.12403 0.83874 0.0
S215 S 0.04612 0.33815 0.88939 0.0
N216 N 0.0406 0.28803 0.90409 0.0
N217 N 0.07163 0.30898 0.86365 0.0
C218 C 0.07696 0.2557 0.86613 0.0
C219 C 0.06049 0.24451 0.88814 0.0
loop_
_geom_bond_atom_site_label_1
_geom_bond_atom_site_label_2
_geom_bond_distance
_geom_bond_site_symmetry_2
_ccdc_geom_bond_type
O0 Cd1 2.300 . S
O0 C7 1.275 . S
Cd1 O0 2.300 . S
Cd1 O9 2.381 . S
Cd1 O10 2.378 . S
O2 Cd3 2.385 . S
O2 C7 1.255 . S
Cd3 O2 2.385 . S
Cd3 O4 2.317 . S
O4 Cd3 2.317 . S
O4 C5 1.232 . S
C5 O4 1.232 . S
C5 O6 1.218 . S
O6 C5 1.218 . S
C7 O0 1.275 . S
C7 O2 1.255 . S
C8 O9 1.258 . S
C8 O10 1.256 . S
O9 Cd1 2.381 . S
O9 C8 1.258 . S
O10 Cd1 2.378 . S
O10 C8 1.256 . S
O11 Cd12 2.300 . S
O11 C18 1.275 . S
Cd12 O11 2.300 . S
Cd12 O20 2.381 . S
Cd12 O21 2.378 . S
O13 Cd14 2.385 . S
O13 C18 1.255 . S
Cd14 O13 2.385 . S
Cd14 O15 2.317 . S
O15 Cd14 2.317 . S
O15 C16 1.232 . S
C16 O15 1.232 . S
C16 O17 1.218 . S
O17 C16 1.218 . S
C18 O11 1.275 . S
C18 O13 1.255 . S
C19 O20 1.258 . S
C19 O21 1.256 . S
O20 Cd12 2.381 . S
O20 C19 1.258 . S
O21 Cd12 2.378 . S
O21 C19 1.256 . S
O22 Cd23 2.300 . S
O22 C29 1.275 . S
Cd23 O22 2.300 . S
Cd23 O31 2.381 . S
Cd23 O32 2.378 . S
O24 Cd25 2.385 . S
O24 C29 1.255 . S
Cd25 O24 2.385 . S
Cd25 O26 2.317 . S
O26 Cd25 2.317 . S
O26 C27 1.232 . S
C27 O26 1.232 . S
C27 O28 1.218 . S
O28 C27 1.218 . S
C29 O22 1.275 . S
C29 O24 1.255 . S
C30 O31 1.258 . S
C30 O32 1.256 . S
O31 Cd23 2.381 . S
O31 C30 1.258 . S
O32 Cd23 2.378 . S
O32 C30 1.256 . S
O33 Cd34 2.300 . S
O33 C40 1.275 . S
Cd34 O33 2.300 . S
Cd34 O42 2.381 . S
Cd34 O43 2.378 . S
O35 Cd36 2.385 . S
O35 C40 1.255 . S
Cd36 O35 2.385 . S
Cd36 O37 2.317 . S
O37 Cd36 2.317 . S
O37 C38 1.232 . S
C38 O37 1.232 . S
C38 O39 1.218 1_455 S
O39 C38 1.218 1_655 S
C40 O33 1.275 . S
C40 O35 1.255 . S
C41 O42 1.258 . S
C41 O43 1.256 . S
O42 Cd34 2.381 . S
O42 C41 1.258 . S
O43 Cd34 2.378 . S
O43 C41 1.256 . S
O44 Cd45 2.300 . S
O44 C51 1.275 . S
Cd45 O44 2.300 . S
Cd45 O53 2.381 . S
Cd45 O54 2.378 . S
O46 Cd47 2.385 . S
O46 C51 1.255 . S
Cd47 O46 2.385 . S
Cd47 O48 2.317 . S
O48 Cd47 2.317 . S
O48 C49 1.232 . S
C49 O48 1.232 . S
C49 O50 1.218 . S
O50 C49 1.218 . S
C51 O44 1.275 . S
C51 O46 1.255 . S
C52 O53 1.258 . S
C52 O54 1.256 . S
O53 Cd45 2.381 . S
O53 C52 1.258 . S
O54 Cd45 2.378 . S
O54 C52 1.256 . S
O55 Cd56 2.300 . S
O55 C62 1.275 . S
Cd56 O55 2.300 . S
Cd56 O64 2.381 . S
Cd56 O65 2.378 . S
O57 Cd58 2.385 . S
O57 C62 1.255 . S
Cd58 O57 2.385 . S
Cd58 O59 2.317 . S
O59 Cd58 2.317 . S
O59 C60 1.232 . S
C60 O59 1.232 . S
C60 O61 1.218 1_455 S
O61 C60 1.218 1_655 S
C62 O55 1.275 . S
C62 O57 1.255 . S
C63 O64 1.258 . S
C63 O65 1.256 . S
O64 Cd56 2.381 . S
O64 C63 1.258 . S
O65 Cd56 2.378 . S
O65 C63 1.256 . S
O66 Cd67 2.300 . S
O66 C73 1.275 . S
Cd67 O66 2.300 . S
Cd67 O75 2.381 . S
Cd67 O76 2.378 . S
O68 Cd69 2.385 . S
O68 C73 1.255 . S
Cd69 O68 2.385 . S
Cd69 O70 2.317 . S
O70 Cd69 2.317 . S
O70 C71 1.232 . S
C71 O70 1.232 . S
C71 O72 1.218 . S
O72 C71 1.218 . S
C73 O66 1.275 . S
C73 O68 1.255 . S
C74 O75 1.258 . S
C74 O76 1.256 . S
O75 Cd67 2.381 . S
O75 C74 1.258 . S
O76 Cd67 2.378 . S
O76 C74 1.256 . S
O77 Cd78 2.300 . S
O77 C84 1.275 . S
Cd78 O77 2.300 . S
Cd78 O86 2.381 . S
Cd78 O87 2.378 . S
O79 Cd80 2.385 . S
O79 C84 1.255 . S
Cd80 O79 2.385 . S
Cd80 O81 2.317 . S
O81 Cd80 2.317 . S
O81 C82 1.232 . S
C82 O81 1.232 . S
C82 O83 1.218 . S
O83 C82 1.218 . S
C84 O77 1.275 . S
C84 O79 1.255 . S
C85 O86 1.258 . S
C85 O87 1.256 . S
O86 Cd78 2.381 . S
O86 C85 1.258 . S
O87 Cd78 2.378 . S
O87 C85 1.256 . S
C88 C89 1.369 1_554 S
C88 C90 1.419 . S
C88 H92 0.930 . S
C89 C88 1.369 1_556 S
C89 C98 1.429 . S
C90 C88 1.419 . S
C90 C91 1.363 . S
C90 H93 0.929 . S
C91 C90 1.363 . S
C91 C97 1.428 1_554 S
H92 C88 0.930 . S
H93 C90 0.929 . S
S94 N95 1.613 . S
S94 N96 1.610 . S
N95 S94 1.613 . S
N95 C98 1.350 1_655 S
N96 S94 1.610 . S
N96 C97 1.351 1_655 S
C97 C91 1.428 1_556 S
C97 N96 1.351 1_455 S
C97 C98 1.434 . S
C98 C89 1.429 . S
C98 N95 1.350 1_455 S
C98 C97 1.434 . S
C99 C100 1.369 . S
C99 C101 1.419 . S
C99 H103 0.930 . S
C100 C99 1.369 . S
C100 C109 1.429 . S
C101 C99 1.419 . S
C101 C102 1.363 . S
C101 H104 0.929 . S
C102 C101 1.363 . S
C102 C108 1.428 . S
H103 C99 0.930 . S
H104 C101 0.929 . S
S105 N106 1.613 . S
S105 N107 1.610 . S
N106 S105 1.613 . S
N106 C109 1.350 . S
N107 S105 1.610 . S
N107 C108 1.351 . S
C108 C102 1.428 . S
C108 N107 1.351 . S
C108 C109 1.434 . S
C109 C100 1.429 . S
C109 N106 1.350 . S
C109 C108 1.434 . S
C110 C111 1.369 . S
C110 C112 1.419 . S
C110 H114 0.930 . S
C111 C110 1.369 . S
C111 C120 1.429 . S
C112 C110 1.419 . S
C112 C113 1.363 . S
C112 H115 0.929 . S
C113 C112 1.363 . S
C113 C119 1.428 . S
H114 C110 0.930 . S
H115 C112 0.929 . S
S116 N117 1.613 . S
S116 N118 1.610 . S
N117 S116 1.613 . S
N117 C120 1.350 . S
N118 S116 1.610 . S
N118 C119 1.351 . S
C119 C113 1.428 . S
C119 N118 1.351 . S
C119 C120 1.434 . S
C120 C111 1.429 . S
C120 N117 1.350 . S
C120 C119 1.434 . S
C121 C122 1.369 . S
C121 C123 1.419 . S
C121 H125 0.930 . S
C122 C121 1.369 . S
C122 C131 1.429 . S
C123 C121 1.419 . S
C123 C124 1.363 . S
C123 H126 0.929 . S
C124 C123 1.363 . S
C124 C130 1.428 . S
H125 C121 0.930 . S
H126 C123 0.929 . S
S127 N128 1.613 . S
S127 N129 1.610 . S
N128 S127 1.613 . S
N128 C131 1.350 . S
N129 S127 1.610 . S
N129 C130 1.351 . S
C130 C124 1.428 . S
C130 N129 1.351 . S
C130 C131 1.434 . S
C131 C122 1.429 . S
C131 N128 1.350 . S
C131 C130 1.434 . S
C132 C133 1.369 . S
C132 C134 1.419 . S
C132 H136 0.930 . S
C133 C132 1.369 . S
C133 C142 1.429 . S
C134 C132 1.419 . S
C134 C135 1.363 . S
C134 H137 0.929 . S
C135 C134 1.363 . S
C135 C141 1.428 . S
H136 C132 0.930 . S
H137 C134 0.929 . S
S138 N139 1.613 . S
S138 N140 1.610 . S
N139 S138 1.613 . S
N139 C142 1.350 . S
N140 S138 1.610 . S
N140 C141 1.351 . S
C141 C135 1.428 . S
C141 N140 1.351 . S
C141 C142 1.434 . S
C142 C133 1.429 . S
C142 N139 1.350 . S
C142 C141 1.434 . S
C143 C144 1.369 . S
C143 C145 1.419 . S
C143 H147 0.930 . S
C144 C143 1.369 . S
C144 C153 1.429 . S
C145 C143 1.419 . S
C145 C146 1.363 . S
C145 H148 0.929 . S
C146 C145 1.363 . S
C146 C152 1.428 . S
H147 C143 0.930 . S
H148 C145 0.929 . S
S149 N150 1.613 . S
S149 N151 1.610 . S
N150 S149 1.613 . S
N150 C153 1.350 . S
N151 S149 1.610 . S
N151 C152 1.351 . S
C152 C146 1.428 . S
C152 N151 1.351 . S
C152 C153 1.434 . S
C153 C144 1.429 . S
C153 N150 1.350 . S
C153 C152 1.434 . S
C154 C155 1.369 . S
C154 C156 1.419 1_565 S
C154 H158 0.930 . S
C155 C154 1.369 . S
C155 C164 1.429 . S
C156 C154 1.419 1_545 S
C156 C157 1.363 . S
C156 H159 0.929 . S
C157 C156 1.363 . S
C157 C163 1.428 . S
H158 C154 0.930 . S
H159 C156 0.929 . S
S160 N161 1.613 . S
S160 N162 1.610 1_565 S
N161 S160 1.613 . S
N161 C164 1.350 . S
N162 S160 1.610 1_545 S
N162 C163 1.351 . S
C163 C157 1.428 . S
C163 N162 1.351 . S
C163 C164 1.434 1_545 S
C164 C155 1.429 . S
C164 N161 1.350 . S
C164 C163 1.434 1_565 S
C165 C166 1.369 1_556 S
C165 C167 1.419 1_565 S
C165 H169 0.930 . S
C166 C165 1.369 1_554 S
C166 C175 1.429 . S
C167 C165 1.419 1_545 S
C167 C168 1.363 . S
C167 H170 0.929 . S
C168 C167 1.363 . S
C168 C174 1.428 1_556 S
H169 C165 0.930 . S
H170 C167 0.929 . S
S171 N172 1.613 1_545 S
S171 N173 1.610 . S
N172 S171 1.613 1_565 S
N172 C175 1.350 . S
N173 S171 1.610 . S
N173 C174 1.351 . S
C174 C168 1.428 1_554 S
C174 N173 1.351 . S
C174 C175 1.434 1_545 S
C175 C166 1.429 . S
C175 N172 1.350 . S
C175 C174 1.434 1_565 S
C176 C177 1.369 . S
C176 C178 1.419 . S
C176 H180 0.930 . S
C177 C176 1.369 . S
C177 C186 1.429 . S
C178 C176 1.419 . S
C178 C179 1.363 . S
C178 H181 0.929 . S
C179 C178 1.363 . S
C179 C185 1.428 . S
H180 C176 0.930 . S
H181 C178 0.929 . S
S182 N183 1.613 1_655 S
S182 N184 1.610 . S
N183 S182 1.613 1_455 S
N183 C186 1.350 . S
N184 S182 1.610 . S
N184 C185 1.351 1_655 S
C185 C179 1.428 . S
C185 N184 1.351 1_455 S
C185 C186 1.434 . S
C186 C177 1.429 . S
C186 N183 1.350 . S
C186 C185 1.434 . S
C187 C188 1.369 . S
C187 C189 1.419 . S
C187 H191 0.930 . S
C188 C187 1.369 . S
C188 C197 1.429 . S
C189 C187 1.419 . S
C189 C190 1.363 . S
C189 H192 0.929 . S
C190 C189 1.363 . S
C190 C196 1.428 . S
H191 C187 0.930 . S
H192 C189 0.929 . S
S193 N194 1.613 . S
S193 N195 1.610 . S
N194 S193 1.613 . S
N194 C197 1.350 . S
N195 S193 1.610 . S
N195 C196 1.351 . S
C196 C190 1.428 . S
C196 N195 1.351 . S
C196 C197 1.434 . S
C197 C188 1.429 . S
C197 N194 1.350 . S
C197 C196 1.434 . S
C198 C199 1.369 . S
C198 C200 1.419 . S
C198 H202 0.930 . S
C199 C198 1.369 . S
C199 C208 1.429 . S
C200 C198 1.419 . S
C200 C201 1.363 . S
C200 H203 0.929 . S
C201 C200 1.363 . S
C201 C207 1.428 . S
H202 C198 0.930 . S
H203 C200 0.929 . S
S204 N205 1.613 . S
S204 N206 1.610 . S
N205 S204 1.613 . S
N205 C208 1.350 . S
N206 S204 1.610 . S
N206 C207 1.351 . S
C207 C201 1.428 . S
C207 N206 1.351 . S
C207 C208 1.434 . S
C208 C199 1.429 . S
C208 N205 1.350 . S
C208 C207 1.434 . S
C209 C210 1.369 . S
C209 C211 1.419 . S
C209 H213 0.930 . S
C210 C209 1.369 . S
C210 C219 1.429 . S
C211 C209 1.419 . S
C211 C212 1.363 . S
C211 H214 0.929 . S
C212 C211 1.363 . S
C212 C218 1.428 . S
H213 C209 0.930 . S
H214 C211 0.929 . S
S215 N216 1.613 . S
S215 N217 1.610 . S
N216 S215 1.613 . S
N216 C219 1.350 . S
N217 S215 1.610 . S
N217 C218 1.351 . S
C218 C212 1.428 . S
C218 N217 1.351 . S
C218 C219 1.434 . S
C219 C210 1.429 . S
C219 N216 1.350 . S
C219 C218 1.434 . S
C89 C49 1.291 . S
C91 C5 1.294 . S
C100 C60 1.296 1_655 S
C102 C19 1.487 . S
C111 C30 1.495 . S
C113 C74 1.495 . S
C122 C38 1.299 1_655 S
C124 C85 1.487 . S
C133 C82 1.289 . S
C135 C41 1.489 . S
C144 C63 1.488 . S
C146 C16 1.293 . S
C155 C71 1.292 . S
C157 C27 1.288 . S
C166 C8 1.496 . S
C168 C52 1.496 . S
C177 C62 1.473 . S
C179 C7 1.455 . S
C188 C73 1.450 . S
C190 C18 1.469 . S
C199 C29 1.449 . S
C201 C84 1.469 . S
C210 C51 1.453 . S
C212 C40 1.472 . S
