# Generated by pormake.
# Topology pcu, (6)-cn, num edge types: 1
# Building blocks:
#     Node 0, Type 0, BuildingBlock: VOLQOD_clean_sbu_1, # of connection points: 6
#     Edge 1, Type (0, 0), BuildingBlock: FUNLAD_clean_linker_1, # of connection points: 2
#     Edge 2, Type (0, 0), BuildingBlock: FUNLAD_clean_linker_1, # of connection points: 2
#     Edge 3, Type (0, 0), BuildingBlock: FUNLAD_clean_linker_1, # of connection points: 2
# Relax obj value: 0.082
# Max RMSD: 0.143
# Mean RMSD: 0.143
data_MOF--net-pcu--node1-VOLQOD_clean_sbu_1--edge1-FUNLAD_clean_linker_1
_symmetry_space_group_name_H-M    P1
_symmetry_Int_Tables_number       1
_symmetry_cell_setting            triclinic
loop_
_symmetry_equiv_pos_as_xyz
'x, y, z'
_cell_length_a     17.703206
_cell_length_b     17.680795
_cell_length_c     17.731568
_cell_angle_alpha  91.549301
_cell_angle_beta   90.558071
_cell_angle_gamma 91.595721
loop_
_atom_site_label
_atom_site_type_symbol
_atom_site_fract_x
_atom_site_fract_y
_atom_site_fract_z
_atom_type_partial_charge
O0 O 0.05845 0.02989 0.15966 0.0
Zn1 Zn 0.07152 0.05399 0.05058 0.0
O2 O -0.00357 -0.00233 0.98789 0.0
Zn3 Zn 0.04824 0.93397 0.91416 0.0
Zn4 Zn 0.93154 0.93426 0.05162 0.0
Zn5 Zn 0.93486 0.06909 0.93419 0.0
O6 O 0.02317 0.96116 0.80738 0.0
O7 O 0.94255 0.05445 0.82145 0.0
O8 O 0.17765 0.02717 0.02243 0.0
O9 O 0.16116 0.94178 0.92902 0.0
O10 O 0.01899 0.82475 0.92622 0.0
O11 O 0.94684 0.82293 0.02824 0.0
O12 O 0.82074 0.95597 0.0347 0.0
O13 O 0.06015 0.16689 0.04313 0.0
O14 O 0.82568 0.05471 0.95961 0.0
O15 O 0.96467 0.17673 0.96206 0.0
C16 C 0.00968 -0.00835 0.19586 0.0
C17 C 0.97981 0.00973 0.7796 0.0
C18 C 0.98136 0.78885 0.9751 0.0
C19 C 0.20412 0.98099 0.97376 0.0
C20 C 0.78835 0.00714 0.99793 0.0
C21 C 0.01491 0.20684 0.00605 0.0
O22 O 0.95629 0.95388 0.16232 0.0
H23 H 0.06905 0.01449 0.30395 0.0
C24 C 0.01647 -0.00773 0.27871 0.0
H25 H 0.90714 0.94723 0.29937 0.0
H26 H 0.97853 0.83412 0.62611 0.0
H27 H 0.94604 0.71686 0.55814 0.0
H28 H 0.92526 0.71464 0.42035 0.0
H29 H 0.93589 0.82986 0.34986 0.0
C30 C 0.95986 0.97006 0.32365 0.0
C31 C 0.96934 0.97247 0.40736 0.0
C32 C 0.96399 0.90434 0.44757 0.0
C33 C 0.97774 0.90536 0.5268 0.0
C34 C 0.9702 0.83663 0.56573 0.0
C35 C 0.95136 0.7688 0.52744 0.0
C36 C 0.93955 0.76757 0.44989 0.0
C37 C 0.94576 0.83428 0.41012 0.0
H38 H 0.92584 0.04879 0.67558 0.0
C39 C 0.96994 0.01335 0.69712 0.0
H40 H 0.05594 0.93743 0.66943 0.0
H41 H 0.96858 0.11556 0.35105 0.0
H42 H 0.0076 0.23203 0.41733 0.0
H43 H 0.04801 0.23133 0.55085 0.0
H44 H 0.04709 0.11465 0.61935 0.0
C45 C 0.01278 0.97425 0.64847 0.0
C46 C -0.00175 0.9743 0.56552 0.0
C47 C 0.00418 0.04243 0.52513 0.0
C48 C 0.9865 0.04198 0.4467 0.0
C49 C 0.98607 0.11184 0.40939 0.0
C50 C 0.00764 0.1793 0.44697 0.0
C51 C 0.02996 0.17897 0.52222 0.0
C52 C 0.02846 0.11155 0.56109 0.0
H53 H 0.30604 0.92322 0.93499 0.0
C54 C 0.2862 0.96947 0.97058 0.0
H55 H 0.317 0.05815 0.04778 0.0
H56 H 0.62652 0.93726 0.15844 0.0
H57 H 0.55182 0.93348 0.27215 0.0
H58 H 0.41507 0.9564 0.26796 0.0
H59 H 0.35239 0.98424 0.15029 0.0
C60 C 0.33641 0.01292 0.0107 0.0
C61 C 0.4185 -0.0037 0.0117 0.0
C62 C 0.45399 0.97842 0.08085 0.0
C63 C 0.53254 0.96345 0.08302 0.0
C64 C 0.56688 0.94802 0.15325 0.0
C65 C 0.52467 0.9457 0.21906 0.0
C66 C 0.44771 0.9587 0.21671 0.0
C67 C 0.41248 0.97486 0.14868 0.0
H68 H 0.68188 0.06398 0.97631 0.0
C69 C 0.70556 0.01271 0.99809 0.0
H70 H 0.68115 0.90495 0.04193 0.0
H71 H 0.37164 0.03857 0.87103 0.0
H72 H 0.44374 0.03158 0.75582 0.0
H73 H 0.57512 -0.01141 0.75711 0.0
H74 H 0.63579 0.95495 0.87422 0.0
C75 C 0.65871 0.95645 0.01955 0.0
C76 C 0.57519 0.96495 0.01584 0.0
C77 C 0.53876 0.97867 0.946 0.0
C78 C 0.46126 -0.00229 0.94439 0.0
C79 C 0.42876 0.01891 0.875 0.0
C80 C 0.46979 0.0159 0.80841 0.0
C81 C 0.54386 -0.00787 0.8092 0.0
C82 C 0.57822 0.97368 0.87697 0.0
H83 H -0.00279 0.67941 0.91652 0.0
C84 C 0.9804 0.70565 0.96972 0.0
H85 H 0.94926 0.68711 0.08255 0.0
H86 H 0.84073 0.3463 0.02587 0.0
H87 H 0.72574 0.40478 0.06782 0.0
H88 H 0.72087 0.54313 0.08797 0.0
H89 H 0.83125 0.62374 0.06715 0.0
C90 C 0.96592 0.66188 0.02889 0.0
C91 C 0.97064 0.57793 0.02173 0.0
C92 C 0.9053 0.53177 0.03331 0.0
C93 C 0.90768 0.45215 0.0201 0.0
C94 C 0.84188 0.40723 0.03357 0.0
C95 C 0.77545 0.44003 0.05791 0.0
C96 C 0.77274 0.5179 0.06935 0.0
C97 C 0.83663 0.56352 0.05721 0.0
H98 H 0.05826 0.31374 0.05977 0.0
C99 C 0.01928 0.28983 0.01714 0.0
H100 H 0.93486 0.3124 0.93657 0.0
H101 H 0.11083 0.64704 0.01183 0.0
H102 H 0.22482 0.58973 0.96549 0.0
H103 H 0.22474 0.45461 0.92693 0.0
H104 H 0.11148 0.37568 0.93689 0.0
C105 C 0.97554 0.33593 0.97774 0.0
C106 C 0.97505 0.41898 0.99409 0.0
C107 C 0.04075 0.46511 0.98332 0.0
C108 C 0.03934 0.54413 0.00021 0.0
C109 C 0.10742 0.58772 0.99528 0.0
C110 C 0.17352 0.55537 0.96949 0.0
C111 C 0.17357 0.47924 0.94818 0.0
C112 C 0.10817 0.43439 0.95482 0.0
loop_
_geom_bond_atom_site_label_1
_geom_bond_atom_site_label_2
_geom_bond_distance
_geom_bond_site_symmetry_2
_ccdc_geom_bond_type
O0 Zn1 1.953 . S
O0 C16 1.225 . S
Zn1 O0 1.953 . S
Zn1 O2 1.940 1_454 S
Zn1 O8 1.919 . S
Zn1 O13 1.924 . S
O2 Zn1 1.940 1_656 S
O2 Zn3 1.932 1_645 S
O2 Zn4 1.941 1_546 S
O2 Zn5 1.953 . S
Zn3 O2 1.932 1_465 S
Zn3 O6 1.933 . S
Zn3 O9 1.941 . S
Zn3 O10 1.965 . S
Zn4 O2 1.941 1_564 S
Zn4 O11 1.938 . S
Zn4 O12 1.906 . S
Zn4 O22 1.953 . S
Zn5 O2 1.953 . S
Zn5 O7 1.932 . S
Zn5 O14 1.977 . S
Zn5 O15 1.910 . S
O6 Zn3 1.933 . S
O6 C17 1.231 . S
O7 Zn5 1.932 . S
O7 C17 1.303 1_645 S
O8 Zn1 1.919 . S
O8 C19 1.253 1_544 S
O9 Zn3 1.941 . S
O9 C19 1.283 . S
O10 Zn3 1.965 . S
O10 C18 1.303 1_456 S
O11 Zn4 1.938 . S
O11 C18 1.247 . S
O12 Zn4 1.906 . S
O12 C20 1.304 1_564 S
O13 Zn1 1.924 . S
O13 C21 1.311 . S
O14 Zn5 1.977 . S
O14 C20 1.272 . S
O15 Zn5 1.910 . S
O15 C21 1.231 1_656 S
C16 O0 1.225 . S
C16 O22 1.298 1_445 S
C17 O6 1.231 . S
C17 O7 1.303 1_465 S
C18 O10 1.303 1_654 S
C18 O11 1.247 . S
C19 O8 1.253 1_566 S
C19 O9 1.283 . S
C20 O12 1.304 1_546 S
C20 O14 1.272 . S
C21 O13 1.311 . S
C21 O15 1.231 1_454 S
O22 Zn4 1.953 . S
O22 C16 1.298 1_665 S
H23 C24 0.951 . S
C24 H23 0.951 . S
C24 C30 1.265 1_445 S
H25 C30 0.950 . S
H26 C34 0.949 . S
H27 C35 0.950 . S
H28 C36 0.951 . S
H29 C37 0.951 . S
C30 C24 1.265 1_665 S
C30 H25 0.950 . S
C30 C31 1.478 . S
C31 C30 1.478 . S
C31 C32 1.403 . S
C31 C48 1.387 1_665 S
C32 C31 1.403 . S
C32 C33 1.438 . S
C32 C37 1.429 . S
C33 C32 1.438 . S
C33 C34 1.428 . S
C33 C46 1.394 1_665 S
C34 H26 0.949 . S
C34 C33 1.428 . S
C34 C35 1.345 . S
C35 H27 0.950 . S
C35 C34 1.345 . S
C35 C36 1.424 . S
C36 H28 0.951 . S
C36 C35 1.424 . S
C36 C37 1.347 . S
C37 H29 0.951 . S
C37 C32 1.429 . S
C37 C36 1.347 . S
H38 C39 0.951 1_565 S
C39 H38 0.951 1_545 S
C39 C45 1.265 1_655 S
H40 C45 0.950 . S
H41 C49 0.949 . S
H42 C50 0.950 . S
H43 C51 0.951 . S
H44 C52 0.951 . S
C45 C39 1.265 1_455 S
C45 H40 0.950 . S
C45 C46 1.478 . S
C46 C33 1.394 1_445 S
C46 C45 1.478 . S
C46 C47 1.397 . S
C47 C46 1.397 . S
C47 C48 1.438 . S
C47 C52 1.429 . S
C48 C31 1.387 1_445 S
C48 C47 1.438 . S
C48 C49 1.428 . S
C49 H41 0.949 . S
C49 C48 1.428 . S
C49 C50 1.345 . S
C50 H42 0.950 . S
C50 C49 1.345 . S
C50 C51 1.424 . S
C51 H43 0.951 . S
C51 C50 1.424 . S
C51 C52 1.347 . S
C52 H44 0.951 . S
C52 C47 1.429 . S
C52 C51 1.347 . S
H53 C54 0.951 . S
C54 H53 0.951 . S
C54 C60 1.265 1_565 S
H55 C60 0.950 . S
H56 C64 0.948 1_565 S
H57 C65 0.950 . S
H58 C66 0.951 . S
H59 C67 0.951 . S
C60 C54 1.265 1_545 S
C60 H55 0.950 . S
C60 C61 1.478 . S
C61 C60 1.478 . S
C61 C62 1.397 1_556 S
C61 C78 1.394 1_545 S
C62 C61 1.397 1_554 S
C62 C63 1.438 . S
C62 C67 1.429 . S
C63 C62 1.438 . S
C63 C64 1.428 . S
C63 C76 1.394 1_544 S
C64 H56 0.948 1_545 S
C64 C63 1.428 . S
C64 C65 1.345 . S
C65 H57 0.950 . S
C65 C64 1.345 . S
C65 C66 1.424 . S
C66 H58 0.951 . S
C66 C65 1.424 . S
C66 C67 1.347 . S
C67 H59 0.951 . S
C67 C62 1.429 . S
C67 C66 1.347 . S
H68 C69 0.951 . S
C69 H68 0.951 . S
C69 C75 1.265 1_545 S
H70 C75 0.950 . S
H71 C79 0.949 . S
H72 C80 0.950 . S
H73 C81 0.951 . S
H74 C82 0.951 . S
C75 C69 1.265 1_565 S
C75 H70 0.950 . S
C75 C76 1.478 . S
C76 C63 1.394 1_566 S
C76 C75 1.478 . S
C76 C77 1.397 . S
C77 C76 1.397 . S
C77 C78 1.438 . S
C77 C82 1.429 . S
C78 C61 1.394 1_565 S
C78 C77 1.438 . S
C78 C79 1.428 . S
C79 H71 0.949 . S
C79 C78 1.428 . S
C79 C80 1.345 . S
C80 H72 0.950 . S
C80 C79 1.345 . S
C80 C81 1.424 . S
C81 H73 0.951 . S
C81 C80 1.424 . S
C81 C82 1.347 . S
C82 H74 0.951 . S
C82 C77 1.429 . S
C82 C81 1.347 . S
H83 C84 0.951 . S
C84 H83 0.951 . S
C84 C90 1.265 1_655 S
H85 C90 0.950 . S
H86 C94 0.949 . S
H87 C95 0.950 . S
H88 C96 0.951 . S
H89 C97 0.951 . S
C90 C84 1.265 1_455 S
C90 H85 0.950 . S
C90 C91 1.478 . S
C91 C90 1.478 . S
C91 C92 1.397 1_455 S
C91 C108 1.394 1_554 S
C92 C91 1.397 1_655 S
C92 C93 1.438 . S
C92 C97 1.429 . S
C93 C92 1.438 . S
C93 C94 1.428 . S
C93 C106 1.394 . S
C94 H86 0.949 . S
C94 C93 1.428 . S
C94 C95 1.345 . S
C95 H87 0.950 . S
C95 C94 1.345 . S
C95 C96 1.424 . S
C96 H88 0.951 . S
C96 C95 1.424 . S
C96 C97 1.347 . S
C97 H89 0.951 . S
C97 C92 1.429 . S
C97 C96 1.347 . S
H98 C99 0.951 . S
C99 H98 0.951 . S
C99 C105 1.265 1_455 S
H100 C105 0.950 1_556 S
H101 C109 0.949 . S
H102 C110 0.950 . S
H103 C111 0.951 . S
H104 C112 0.951 . S
C105 C99 1.265 1_655 S
C105 H100 0.950 1_554 S
C105 C106 1.478 . S
C106 C93 1.394 . S
C106 C105 1.478 . S
C106 C107 1.397 1_654 S
C107 C106 1.397 1_456 S
C107 C108 1.438 . S
C107 C112 1.429 . S
C108 C91 1.394 1_556 S
C108 C107 1.438 . S
C108 C109 1.428 . S
C109 H101 0.949 . S
C109 C108 1.428 . S
C109 C110 1.345 . S
C110 H102 0.950 . S
C110 C109 1.345 . S
C110 C111 1.424 . S
C111 H103 0.951 . S
C111 C110 1.424 . S
C111 C112 1.347 . S
C112 H104 0.951 . S
C112 C107 1.429 . S
C112 C111 1.347 . S
C24 C16 1.485 . S
C39 C17 1.484 1_645 S
C54 C19 1.419 . S
C69 C20 1.411 . S
C84 C18 1.379 . S
C99 C21 1.441 . S
