# Generated by pormake.
# Topology pcu, (6)-cn, num edge types: 1
# Building blocks:
#     Node 0, Type 0, BuildingBlock: PAMTUU_clean_sbu_0, # of connection points: 6
#     Edge 1, Type (0, 0), BuildingBlock: OJICUG_clean_linker_0, # of connection points: 2
#     Edge 2, Type (0, 0), BuildingBlock: OJICUG_clean_linker_0, # of connection points: 2
#     Edge 3, Type (0, 0), BuildingBlock: OJICUG_clean_linker_0, # of connection points: 2
# Relax obj value: 0.000
# Max RMSD: 0.000
# Mean RMSD: 0.000
data_MOF--net-pcu--node1-PAMTUU_clean_sbu_0--edge1-OJICUG_clean_linker_0
_symmetry_space_group_name_H-M    P1
_symmetry_Int_Tables_number       1
_symmetry_cell_setting            triclinic
loop_
_symmetry_equiv_pos_as_xyz
'x, y, z'
_cell_length_a     21.412411
_cell_length_b     11.149204
_cell_length_c     11.048848
_cell_angle_alpha  85.045455
_cell_angle_beta   98.057385
_cell_angle_gamma 116.16251
loop_
_atom_site_label
_atom_site_type_symbol
_atom_site_fract_x
_atom_site_fract_y
_atom_site_fract_z
_atom_type_partial_charge
Tb0 Tb 0.12421 0.05404 0.00895 0.0
Tb1 Tb 0.94907 0.90885 0.97231 0.0
C2 C 0.03689 0.9804 0.22925 0.0
C3 C 0.31341 0.1267 0.01978 0.0
C4 C 0.42389 0.06067 -0.00502 0.0
C5 C 0.4376 0.183 0.04476 0.0
C6 C 0.38284 0.21552 0.05704 0.0
C7 C 0.29918 0.00522 0.96851 0.0
C8 C 0.35401 0.97254 0.95598 0.0
C9 C 0.25667 0.16029 0.04003 0.0
O10 O 0.09247 0.84058 0.03912 0.0
O11 O 0.97878 0.75181 0.94446 0.0
O12 O 0.98546 -0.01324 0.79521 0.0
O13 O 0.0926 0.98209 0.82405 0.0
O14 O 0.8538 0.79961 0.04638 0.0
O15 O 0.85495 0.85671 0.85577 0.0
O16 O 0.97846 0.11502 0.01205 0.0
O17 O 0.09218 0.21423 0.96284 0.0
O18 O 0.08991 0.07305 0.17847 0.0
O19 O 0.98376 0.88889 0.16445 0.0
C20 C 1.0356 0.73972 -0.00792 0.0
O21 O 0.22002 0.18081 0.94283 0.0
O22 O 0.217 0.08712 0.12265 0.0
C23 C 0.03879 0.98367 0.75202 0.0
C24 C 0.76034 0.84378 0.95063 0.0
C25 C 0.6513 0.91825 0.96223 0.0
C26 C 0.63706 0.79479 0.91415 0.0
C27 C 0.69112 0.75806 0.90848 0.0
C28 C 0.77516 0.96735 -0.00179 0.0
C29 C 0.72108 0.00424 0.0041 0.0
C30 C 0.81615 0.8025 0.94404 0.0
C31 C 1.0353 0.22116 -0.01335 0.0
H32 H 0.49076 0.25397 0.07401 0.0
H33 H 0.39469 0.30972 0.09685 0.0
H34 H 0.24569 0.93513 0.93987 0.0
H35 H 0.34155 0.877 0.91841 0.0
H36 H 0.58393 0.72545 0.88265 0.0
H37 H 0.67879 0.66219 0.8716 0.0
H38 H 0.82845 0.03504 0.03078 0.0
H39 H 0.734 0.10065 0.0403 0.0
C40 C 0.97397 0.92708 0.41547 0.0
C41 C 0.03715 0.97986 0.36296 0.0
H42 H 0.92503 0.88928 0.58002 0.0
C43 C 0.10085 0.03357 0.43928 0.0
H44 H 0.92414 0.88564 0.35866 0.0
C45 C 0.10139 0.03333 0.56593 0.0
C46 C 0.03824 0.98244 0.61834 0.0
H47 H 0.15035 0.07442 0.40121 0.0
H48 H 0.15127 0.07478 0.62263 0.0
C49 C 0.97451 0.92986 0.54193 0.0
C50 C 0.53708 0.05272 0.08161 0.0
C51 C 0.48226 0.02467 0.9859 0.0
H52 H 0.6326 0.03983 0.14998 0.0
C53 C 0.48372 0.96202 0.88193 0.0
H54 H 0.53702 0.09882 0.16392 0.0
C55 C 0.53865 0.92827 0.87391 0.0
C56 C 0.59342 0.95617 0.96974 0.0
H57 H 0.44288 0.9407 0.80586 0.0
H58 H 0.53863 0.88174 0.79181 0.0
C59 C 0.59196 0.01896 0.07361 0.0
C60 C 0.9723 0.49076 0.97738 0.0
C61 C 1.03574 0.60724 -0.00889 0.0
H62 H 0.92241 0.27764 0.96612 0.0
C63 C 0.09914 0.59588 0.00256 0.0
H64 H 0.92255 0.49611 0.96864 0.0
C65 C 0.09905 0.47066 -0.00052 0.0
C66 C 1.03557 0.35408 -0.01305 0.0
H67 H 0.14891 0.68384 0.01256 0.0
H68 H 0.14876 0.46516 0.00846 0.0
C69 C 0.97221 0.36547 0.97633 0.0
loop_
_geom_bond_atom_site_label_1
_geom_bond_atom_site_label_2
_geom_bond_distance
_geom_bond_site_symmetry_2
_ccdc_geom_bond_type
Tb0 C9 2.764 . S
Tb0 O10 2.325 1_545 S
Tb0 O13 2.303 1_554 S
Tb0 O17 2.322 . S
Tb0 O18 2.349 . S
Tb0 O21 2.415 1_554 S
Tb0 O22 2.399 . S
Tb1 O11 2.322 . S
Tb1 O12 2.349 . S
Tb1 O14 2.415 1_556 S
Tb1 O15 2.399 . S
Tb1 O16 2.325 1_565 S
Tb1 O19 2.303 1_556 S
Tb1 C30 2.764 . S
C2 O18 1.261 . S
C2 O19 1.257 1_445 S
C3 C6 1.358 . S
C3 C7 1.332 1_544 S
C3 C9 1.504 . S
C4 C5 1.373 1_566 S
C4 C8 1.308 . S
C5 C4 1.373 1_544 S
C5 C6 1.429 . S
C5 H32 0.932 . S
C6 C3 1.358 . S
C6 C5 1.429 . S
C6 H33 0.930 . S
C7 C3 1.332 1_566 S
C7 C8 1.394 . S
C7 H34 0.932 . S
C8 C4 1.308 . S
C8 C7 1.394 . S
C8 H35 0.929 . S
C9 Tb0 2.764 . S
C9 C3 1.504 . S
C9 O21 1.239 1_554 S
C9 O22 1.263 . S
O10 Tb0 2.325 1_565 S
O10 C20 1.231 1_455 S
O11 Tb1 2.322 . S
O11 C20 1.267 1_556 S
O12 Tb1 2.349 . S
O12 C23 1.261 . S
O13 Tb0 2.303 1_556 S
O13 C23 1.257 1_445 S
O14 Tb1 2.415 1_554 S
O14 C30 1.239 1_554 S
O15 Tb1 2.399 . S
O15 C30 1.263 . S
O16 Tb1 2.325 1_545 S
O16 C31 1.229 1_655 S
O17 Tb0 2.322 . S
O17 C31 1.271 1_554 S
O18 Tb0 2.349 . S
O18 C2 1.261 . S
O19 Tb1 2.303 1_554 S
O19 C2 1.257 1_665 S
C20 O10 1.231 1_655 S
C20 O11 1.267 1_554 S
O21 Tb0 2.415 1_556 S
O21 C9 1.239 1_556 S
O22 Tb0 2.399 . S
O22 C9 1.263 . S
C23 O12 1.261 . S
C23 O13 1.257 1_665 S
C24 C27 1.358 . S
C24 C28 1.332 1_566 S
C24 C30 1.504 . S
C25 C26 1.373 1_544 S
C25 C29 1.308 . S
C26 C25 1.373 1_566 S
C26 C27 1.429 . S
C26 H36 0.932 . S
C27 C24 1.358 . S
C27 C26 1.429 . S
C27 H37 0.930 . S
C28 C24 1.332 1_544 S
C28 C29 1.394 . S
C28 H38 0.932 . S
C29 C25 1.308 . S
C29 C28 1.394 . S
C29 H39 0.929 . S
C30 Tb1 2.764 . S
C30 O14 1.239 1_556 S
C30 O15 1.263 . S
C30 C24 1.504 . S
C31 O16 1.229 1_455 S
C31 O17 1.271 1_556 S
H32 C5 0.932 . S
H33 C6 0.930 . S
H34 C7 0.932 . S
H35 C8 0.929 . S
H36 C26 0.932 . S
H37 C27 0.930 . S
H38 C28 0.932 . S
H39 C29 0.929 . S
C40 C41 1.386 1_565 S
C40 H44 0.950 . S
C40 C49 1.390 . S
C41 C40 1.386 1_545 S
C41 C43 1.390 1_655 S
H42 C49 0.950 . S
C43 C41 1.390 1_455 S
C43 C45 1.390 . S
C43 H47 0.950 . S
H44 C40 0.950 . S
C45 C43 1.390 . S
C45 C46 1.389 1_545 S
C45 H48 0.950 . S
C46 C45 1.389 1_565 S
C46 C49 1.387 1_455 S
H47 C43 0.950 . S
H48 C45 0.950 . S
C49 C40 1.390 . S
C49 H42 0.950 . S
C49 C46 1.387 1_655 S
C50 C51 1.386 1_565 S
C50 H54 0.950 . S
C50 C59 1.390 . S
C51 C50 1.386 1_545 S
C51 C53 1.386 1_554 S
H52 C59 0.950 . S
C53 C51 1.386 1_556 S
C53 C55 1.390 . S
C53 H57 0.950 . S
H54 C50 0.950 . S
C55 C53 1.390 . S
C55 C56 1.387 1_546 S
C55 H58 0.950 . S
C56 C55 1.387 1_564 S
C56 C59 1.386 . S
H57 C53 0.950 . S
H58 C55 0.950 . S
C59 C50 1.390 . S
C59 H52 0.950 . S
C59 C56 1.386 . S
C60 C61 1.388 1_456 S
C60 H64 0.950 . S
C60 C69 1.390 . S
C61 C60 1.388 1_654 S
C61 C63 1.386 . S
H62 C69 0.950 . S
C63 C61 1.386 . S
C63 C65 1.390 . S
C63 H67 0.950 . S
H64 C60 0.950 . S
C65 C63 1.390 . S
C65 C66 1.386 1_655 S
C65 H68 0.950 . S
C66 C65 1.386 1_455 S
C66 C69 1.386 1_554 S
H67 C63 0.950 . S
H68 C65 0.950 . S
C69 C60 1.390 . S
C69 H62 0.950 . S
C69 C66 1.386 1_556 S
C41 C2 1.467 1_655 S
C46 C23 1.465 1_455 S
C51 C4 1.503 1_544 S
C56 C25 1.502 1_565 S
C61 C20 1.493 . S
C66 C31 1.493 1_554 S
