# Generated by pormake.
# Topology wji, (4)-cn, num edge types: 1
# Building blocks:
#     Node 0, Type 0, BuildingBlock: CEKHIL_clean_sbu_0, # of connection points: 4
#     Node 1, Type 0, BuildingBlock: CEKHIL_clean_sbu_0, # of connection points: 4
#     Node 2, Type 0, BuildingBlock: CEKHIL_clean_sbu_0, # of connection points: 4
#     Node 3, Type 0, BuildingBlock: CEKHIL_clean_sbu_0, # of connection points: 4
#     Node 4, Type 0, BuildingBlock: CEKHIL_clean_sbu_0, # of connection points: 4
#     Node 5, Type 0, BuildingBlock: CEKHIL_clean_sbu_0, # of connection points: 4
#     Node 6, Type 0, BuildingBlock: CEKHIL_clean_sbu_0, # of connection points: 4
#     Node 7, Type 0, BuildingBlock: CEKHIL_clean_sbu_0, # of connection points: 4
#     Node 8, Type 0, BuildingBlock: CEKHIL_clean_sbu_0, # of connection points: 4
#     Node 9, Type 0, BuildingBlock: CEKHIL_clean_sbu_0, # of connection points: 4
#     Node 10, Type 0, BuildingBlock: CEKHIL_clean_sbu_0, # of connection points: 4
#     Node 11, Type 0, BuildingBlock: CEKHIL_clean_sbu_0, # of connection points: 4
#     Edge 12, Type (0, 0), None
#     Edge 13, Type (0, 0), None
#     Edge 14, Type (0, 0), None
#     Edge 15, Type (0, 0), None
#     Edge 16, Type (0, 0), None
#     Edge 17, Type (0, 0), None
#     Edge 18, Type (0, 0), None
#     Edge 19, Type (0, 0), None
#     Edge 20, Type (0, 0), None
#     Edge 21, Type (0, 0), None
#     Edge 22, Type (0, 0), None
#     Edge 23, Type (0, 0), None
#     Edge 24, Type (0, 0), None
#     Edge 25, Type (0, 0), None
#     Edge 26, Type (0, 0), None
#     Edge 27, Type (0, 0), None
#     Edge 28, Type (0, 0), None
#     Edge 29, Type (0, 0), None
#     Edge 30, Type (0, 0), None
#     Edge 31, Type (0, 0), None
#     Edge 32, Type (0, 0), None
#     Edge 33, Type (0, 0), None
#     Edge 34, Type (0, 0), None
#     Edge 35, Type (0, 0), None
# Relax obj value: 0.199
# Max RMSD: 0.144
# Mean RMSD: 0.144
data_MOF--net-wji--node1-CEKHIL_clean_sbu_0--edge1-none
_symmetry_space_group_name_H-M    P1
_symmetry_Int_Tables_number       1
_symmetry_cell_setting            triclinic
loop_
_symmetry_equiv_pos_as_xyz
'x, y, z'
_cell_length_a     22.790007
_cell_length_b     22.790413
_cell_length_c     11.322298
_cell_angle_alpha  90.00117
_cell_angle_beta   89.99788
_cell_angle_gamma 120.00102
loop_
_atom_site_label
_atom_site_type_symbol
_atom_site_fract_x
_atom_site_fract_y
_atom_site_fract_z
_atom_type_partial_charge
Co0 Co 0.5163 0.3923 0.40394 0.0
O1 O 0.54742 0.36869 0.54521 0.0
O2 O 0.49494 0.29877 0.39624 0.0
C3 C 0.61003 0.49141 0.36755 0.0
O4 O 0.48075 0.39999 0.24213 0.0
Co5 Co 0.49037 0.51153 0.40051 0.0
O6 O 0.46198 0.48798 0.23492 0.0
C7 C 0.42268 0.40038 0.56624 0.0
C8 C 0.52242 0.3086 0.50032 0.0
C9 C 0.46281 0.43805 0.18684 0.0
O10 O 0.42796 0.36452 0.48468 0.0
O11 O 0.45032 0.46429 0.55349 0.0
O12 O 0.60596 0.43451 0.33717 0.0
O13 O 0.56057 0.48697 0.43128 0.0
Co14 Co 0.18868 0.48393 0.57061 0.0
O15 O 0.2434 0.51504 0.71188 0.0
O16 O 0.26084 0.46256 0.56291 0.0
C17 C 0.18329 0.57765 0.53421 0.0
O18 O 0.14544 0.44837 0.40879 0.0
Co19 Co 1.04351 0.458 0.56718 0.0
O20 O 1.03867 0.42961 0.40159 0.0
C21 C 1.08697 0.3903 0.7329 0.0
C22 C 0.27849 0.49004 0.66699 0.0
C23 C 1.08944 0.43044 0.3535 0.0
O24 O 0.12811 0.39558 0.65134 0.0
O25 O 1.0507 0.41795 0.72016 0.0
O26 O 0.23612 0.57358 0.50385 0.0
O27 O 0.13828 0.52819 0.59795 0.0
Co28 Co 0.76942 0.1563 0.73727 0.0
O29 O 0.79302 0.21102 0.87855 0.0
O30 O 0.86294 0.22846 0.72957 0.0
C31 C 0.6703 0.15091 0.70088 0.0
O32 O 0.76172 0.11306 0.57546 0.0
Co33 Co 0.65018 1.01113 0.73385 0.0
O34 O 0.67372 1.00629 0.56825 0.0
C35 C 0.76133 1.05459 0.89957 0.0
C36 C 0.85311 0.2461 0.83366 0.0
C37 C 0.72366 1.05706 0.52016 0.0
O38 O 0.79719 0.09573 0.818 0.0
O39 O 0.69741 1.01832 0.88682 0.0
O40 O 0.7272 0.20374 0.67052 0.0
O41 O 0.67474 0.1059 0.76461 0.0
Co42 Co 0.67779 0.73703 0.90395 0.0
O43 O 0.64667 0.76064 0.04523 0.0
O44 O 0.69916 0.83056 0.89625 0.0
C45 C 0.58406 0.63792 0.86757 0.0
O46 O 0.71334 0.72934 0.74214 0.0
Co47 Co 0.70371 0.6178 0.90052 0.0
O48 O 0.7321 0.64134 0.73492 0.0
C49 C 0.77141 0.72895 0.06624 0.0
C50 C 0.67168 0.82073 0.00033 0.0
C51 C 0.73127 0.69127 0.68684 0.0
O52 O 0.76614 0.76481 -0.01532 0.0
O53 O 0.74377 0.66503 0.05349 0.0
O54 O 0.58813 0.69482 0.8372 0.0
O55 O 0.63352 0.64236 0.93129 0.0
Co56 Co 1.00543 0.64541 0.07062 0.0
O57 O 0.9507 0.61429 0.21189 0.0
O58 O 0.93327 0.66677 0.06291 0.0
C59 C 1.01081 0.55168 0.03423 0.0
O60 O 1.04867 0.68095 0.9088 0.0
Co61 Co 0.15059 0.67133 0.06718 0.0
O62 O 0.15544 0.69972 0.90158 0.0
C63 C 0.10713 0.73903 0.23291 0.0
C64 C 0.91561 0.63929 0.16699 0.0
C65 C 0.10467 0.69889 0.8535 0.0
O66 O 1.06599 0.73375 0.15135 0.0
O67 O 0.1434 0.71138 0.22015 0.0
O68 O 0.95798 0.55575 0.00386 0.0
O69 O 1.05583 0.60114 0.09795 0.0
Co70 Co 0.42468 0.97304 0.23727 0.0
O71 O 0.40108 0.91832 0.37854 0.0
O72 O 0.33116 0.90088 0.22957 0.0
C73 C 0.5238 0.97844 0.20087 0.0
O74 O 0.43237 1.01629 0.07545 0.0
Co75 Co 0.54392 0.11821 0.23384 0.0
O76 O 0.52037 0.12305 0.06824 0.0
C77 C 0.43276 0.07475 0.39956 0.0
C78 C 0.34099 0.88323 0.33365 0.0
C79 C 0.47044 0.07228 0.02016 0.0
O80 O 0.3969 1.03361 0.31801 0.0
O81 O 0.49668 0.11102 0.38681 0.0
O82 O 0.4669 0.92561 0.1705 0.0
O83 O 0.51935 1.02345 0.2646 0.0
Co84 Co 0.77692 0.64541 0.33165 0.0
O85 O 0.80165 0.61845 0.18635 0.0
O86 O 0.86924 0.66278 0.3406 0.0
C87 C 0.67524 0.55397 0.35853 0.0
O88 O 0.76886 0.67491 0.49978 0.0
Co89 Co 0.66384 0.68037 0.34269 0.0
O90 O 0.68382 0.69794 0.51092 0.0
C91 C 0.77542 0.75215 0.18794 0.0
C92 C 0.86053 0.63939 0.23355 0.0
C93 C 0.73146 0.69267 0.5579 0.0
O94 O 0.80832 0.73782 0.26357 0.0
O95 O 0.71972 0.74772 0.2189 0.0
O96 O 0.73026 0.55323 0.38625 0.0
O97 O 0.6829 0.60689 0.30153 0.0
Co98 Co 0.19618 0.74454 0.49831 0.0
O99 O 0.24787 0.76927 0.35301 0.0
O100 O 0.27113 0.83686 0.50727 0.0
C101 C 0.18594 0.64286 0.5252 0.0
O102 O 0.15862 0.73647 0.66645 0.0
Co103 Co 1.04814 0.63145 0.50935 0.0
O104 O 1.05054 0.65143 0.67759 0.0
C105 C 1.08795 0.74303 0.35461 0.0
C106 C 0.28581 0.82815 0.40021 0.0
C107 C 0.10346 0.69907 0.72456 0.0
O108 O 0.13516 0.77593 0.43024 0.0
O109 O 1.03666 0.68733 0.38557 0.0
O110 O 0.2417 0.69788 0.55291 0.0
O111 O 0.14068 0.65051 0.4682 0.0
Co112 Co 0.5163 0.16379 0.66497 0.0
O113 O 0.54327 0.21549 0.51967 0.0
O114 O 0.49893 0.23875 0.67393 0.0
C115 C 0.60775 0.15356 0.69186 0.0
O116 O 0.4868 0.12624 0.83311 0.0
Co117 Co 0.48134 1.01575 0.676 0.0
O118 O 0.46377 1.01816 0.84424 0.0
C119 C 0.40957 1.05556 0.52126 0.0
C120 C 0.52232 0.25342 0.56687 0.0
C121 C 0.46904 0.07108 0.89122 0.0
O122 O 0.42389 0.10278 0.5969 0.0
O123 O 0.41399 1.00428 0.55222 0.0
O124 O 0.60848 0.20932 0.71958 0.0
O125 O 0.55482 0.1083 0.63486 0.0
Co126 Co 0.41717 0.48392 0.83165 0.0
O127 O 0.39245 0.51088 0.68636 0.0
O128 O 0.32485 0.46655 0.84061 0.0
C129 C 0.51886 0.57536 0.85855 0.0
O130 O 0.42523 0.45442 -0.00021 0.0
Co131 Co 0.53025 0.44896 0.84268 0.0
O132 O 0.51027 0.43138 0.01092 0.0
C133 C 0.41867 0.37719 0.68794 0.0
C134 C 0.33356 0.48994 0.73355 0.0
C135 C 0.46263 0.43665 0.0579 0.0
O136 O 0.38578 0.39151 0.76358 0.0
O137 O 0.47438 0.38162 0.71889 0.0
O138 O 0.46383 0.5761 0.88626 0.0
O139 O 0.5112 0.52244 0.80154 0.0
Co140 Co 0.99792 0.38479 -0.00168 0.0
O141 O 0.94623 0.36006 0.85302 0.0
O142 O 0.92296 0.29247 0.00727 0.0
C143 C 1.00816 0.48647 0.02521 0.0
O144 O 1.03548 0.39285 0.16645 0.0
Co145 Co 0.14597 0.49787 0.00935 0.0
O146 O 0.14356 0.47789 0.17758 0.0
C147 C 0.10615 0.38629 0.8546 0.0
C148 C 0.90829 0.30118 0.90022 0.0
C149 C 1.09065 0.43025 0.22456 0.0
O150 O 1.05893 0.3534 0.93024 0.0
O151 O 0.15744 0.442 0.88556 0.0
O152 O 0.9524 0.43145 0.05293 0.0
O153 O 1.05342 0.47881 -0.0318 0.0
Co154 Co 0.6778 0.96555 0.16497 0.0
O155 O 0.65084 0.91385 0.01968 0.0
O156 O 0.69516 0.89059 0.17394 0.0
C157 C 0.58635 0.97578 0.19186 0.0
O158 O 0.70729 1.0031 0.33311 0.0
Co159 Co 0.71277 0.11359 0.176 0.0
O160 O 0.73033 0.11118 0.34424 0.0
C161 C 0.78453 0.07378 0.02126 0.0
C162 C 0.67178 0.87591 0.06688 0.0
C163 C 0.72505 1.05827 0.39122 0.0
O164 O 0.77021 1.02656 0.0969 0.0
O165 O 0.78012 0.12506 0.05223 0.0
O166 O 0.58561 0.92002 0.21958 0.0
O167 O 0.63928 1.02105 0.13486 0.0
loop_
_geom_bond_atom_site_label_1
_geom_bond_atom_site_label_2
_geom_bond_distance
_geom_bond_site_symmetry_2
_ccdc_geom_bond_type
Co0 O1 2.216 . S
Co0 O2 2.091 . S
Co0 O4 2.004 . S
Co0 O10 2.021 . S
Co0 O12 2.137 . S
Co0 O13 2.244 . S
O1 Co0 2.216 . S
O1 C8 1.247 . S
O2 Co0 2.091 . S
O2 C8 1.261 . S
C3 O12 1.247 . S
C3 O13 1.272 . S
O4 Co0 2.004 . S
O4 C9 1.259 . S
Co5 O6 2.061 . S
Co5 O11 2.052 . S
Co5 O13 2.135 . S
O6 Co5 2.061 . S
O6 C9 1.235 . S
C7 O10 1.238 . S
C7 O11 1.241 . S
C8 O1 1.247 . S
C8 O2 1.261 . S
C9 O4 1.259 . S
C9 O6 1.235 . S
O10 Co0 2.021 . S
O10 C7 1.238 . S
O11 Co5 2.052 . S
O11 C7 1.241 . S
O12 Co0 2.137 . S
O12 C3 1.247 . S
O13 Co0 2.244 . S
O13 C3 1.272 . S
O13 Co5 2.135 . S
Co14 O15 2.216 . S
Co14 O16 2.091 . S
Co14 O18 2.004 . S
Co14 O24 2.021 . S
Co14 O26 2.137 . S
Co14 O27 2.244 . S
O15 Co14 2.216 . S
O15 C22 1.247 . S
O16 Co14 2.091 . S
O16 C22 1.261 . S
C17 O26 1.247 . S
C17 O27 1.272 . S
O18 Co14 2.004 . S
O18 C23 1.259 . S
Co19 O20 2.061 . S
Co19 O25 2.052 . S
Co19 O27 2.135 1_655 S
O20 Co19 2.061 . S
O20 C23 1.235 1_655 S
C21 O24 1.238 . S
C21 O25 1.241 1_455 S
C22 O15 1.247 . S
C22 O16 1.261 . S
C23 O18 1.259 . S
C23 O20 1.235 1_455 S
O24 Co14 2.021 . S
O24 C21 1.238 . S
O25 Co19 2.052 . S
O25 C21 1.241 1_655 S
O26 Co14 2.137 . S
O26 C17 1.247 . S
O27 Co14 2.244 . S
O27 C17 1.272 . S
O27 Co19 2.135 1_455 S
Co28 O29 2.216 . S
Co28 O30 2.091 . S
Co28 O32 2.004 . S
Co28 O38 2.021 . S
Co28 O40 2.137 . S
Co28 O41 2.244 . S
O29 Co28 2.216 . S
O29 C36 1.247 . S
O30 Co28 2.091 . S
O30 C36 1.261 . S
C31 O40 1.247 . S
C31 O41 1.272 . S
O32 Co28 2.004 . S
O32 C37 1.259 . S
Co33 O34 2.061 . S
Co33 O39 2.052 . S
Co33 O41 2.135 1_565 S
O34 Co33 2.061 . S
O34 C37 1.235 1_565 S
C35 O38 1.238 . S
C35 O39 1.241 1_545 S
C36 O29 1.247 . S
C36 O30 1.261 . S
C37 O32 1.259 . S
C37 O34 1.235 1_545 S
O38 Co28 2.021 . S
O38 C35 1.238 . S
O39 Co33 2.052 . S
O39 C35 1.241 1_565 S
O40 Co28 2.137 . S
O40 C31 1.247 . S
O41 Co28 2.244 . S
O41 C31 1.272 . S
O41 Co33 2.135 1_545 S
Co42 O43 2.216 1_556 S
Co42 O44 2.091 . S
Co42 O46 2.004 . S
Co42 O52 2.021 1_556 S
Co42 O54 2.137 . S
Co42 O55 2.244 . S
O43 Co42 2.216 1_554 S
O43 C50 1.247 . S
O44 Co42 2.091 . S
O44 C50 1.261 1_556 S
C45 O54 1.247 . S
C45 O55 1.272 . S
O46 Co42 2.004 . S
O46 C51 1.259 . S
Co47 O48 2.061 . S
Co47 O53 2.052 1_556 S
Co47 O55 2.135 . S
O48 Co47 2.061 . S
O48 C51 1.235 . S
C49 O52 1.238 . S
C49 O53 1.241 . S
C50 O43 1.247 . S
C50 O44 1.261 1_554 S
C51 O46 1.259 . S
C51 O48 1.235 . S
O52 Co42 2.021 1_554 S
O52 C49 1.238 . S
O53 Co47 2.052 1_554 S
O53 C49 1.241 . S
O54 Co42 2.137 . S
O54 C45 1.247 . S
O55 Co42 2.244 . S
O55 C45 1.272 . S
O55 Co47 2.135 . S
Co56 O57 2.216 . S
Co56 O58 2.091 . S
Co56 O60 2.004 1_554 S
Co56 O66 2.021 . S
Co56 O68 2.137 . S
Co56 O69 2.244 . S
O57 Co56 2.216 . S
O57 C64 1.247 . S
O58 Co56 2.091 . S
O58 C64 1.261 . S
C59 O68 1.247 . S
C59 O69 1.272 . S
O60 Co56 2.004 1_556 S
O60 C65 1.259 . S
Co61 O62 2.061 1_554 S
Co61 O67 2.052 . S
Co61 O69 2.135 1_455 S
O62 Co61 2.061 1_556 S
O62 C65 1.235 1_455 S
C63 O66 1.238 . S
C63 O67 1.241 1_655 S
C64 O57 1.247 . S
C64 O58 1.261 . S
C65 O60 1.259 . S
C65 O62 1.235 1_655 S
O66 Co56 2.021 . S
O66 C63 1.238 . S
O67 Co61 2.052 . S
O67 C63 1.241 1_455 S
O68 Co56 2.137 . S
O68 C59 1.247 . S
O69 Co56 2.244 . S
O69 C59 1.272 . S
O69 Co61 2.135 1_655 S
Co70 O71 2.216 . S
Co70 O72 2.091 . S
Co70 O74 2.004 . S
Co70 O80 2.021 . S
Co70 O82 2.137 . S
Co70 O83 2.244 . S
O71 Co70 2.216 . S
O71 C78 1.247 . S
O72 Co70 2.091 . S
O72 C78 1.261 . S
C73 O82 1.247 . S
C73 O83 1.272 . S
O74 Co70 2.004 . S
O74 C79 1.259 . S
Co75 O76 2.061 . S
Co75 O81 2.052 . S
Co75 O83 2.135 1_545 S
O76 Co75 2.061 . S
O76 C79 1.235 1_545 S
C77 O80 1.238 . S
C77 O81 1.241 1_565 S
C78 O71 1.247 . S
C78 O72 1.261 . S
C79 O74 1.259 . S
C79 O76 1.235 1_565 S
O80 Co70 2.021 . S
O80 C77 1.238 . S
O81 Co75 2.052 . S
O81 C77 1.241 1_545 S
O82 Co70 2.137 . S
O82 C73 1.247 . S
O83 Co70 2.244 . S
O83 C73 1.272 . S
O83 Co75 2.135 1_565 S
Co84 O85 2.216 . S
Co84 O86 2.091 . S
Co84 O88 2.004 . S
Co84 O94 2.021 . S
Co84 O96 2.137 . S
Co84 O97 2.244 . S
O85 Co84 2.216 . S
O85 C92 1.247 . S
O86 Co84 2.091 . S
O86 C92 1.261 . S
C87 O96 1.247 . S
C87 O97 1.272 . S
O88 Co84 2.004 . S
O88 C93 1.259 . S
Co89 O90 2.061 . S
Co89 O95 2.052 . S
Co89 O97 2.135 . S
O90 Co89 2.061 . S
O90 C93 1.235 . S
C91 O94 1.238 . S
C91 O95 1.241 . S
C92 O85 1.247 . S
C92 O86 1.261 . S
C93 O88 1.259 . S
C93 O90 1.235 . S
O94 Co84 2.021 . S
O94 C91 1.238 . S
O95 Co89 2.052 . S
O95 C91 1.241 . S
O96 Co84 2.137 . S
O96 C87 1.247 . S
O97 Co84 2.244 . S
O97 C87 1.272 . S
O97 Co89 2.135 . S
Co98 O99 2.216 . S
Co98 O100 2.091 . S
Co98 O102 2.004 . S
Co98 O108 2.021 . S
Co98 O110 2.137 . S
Co98 O111 2.244 . S
O99 Co98 2.216 . S
O99 C106 1.247 . S
O100 Co98 2.091 . S
O100 C106 1.261 . S
C101 O110 1.247 . S
C101 O111 1.272 . S
O102 Co98 2.004 . S
O102 C107 1.259 . S
Co103 O104 2.061 . S
Co103 O109 2.052 . S
Co103 O111 2.135 1_655 S
O104 Co103 2.061 . S
O104 C107 1.235 1_655 S
C105 O108 1.238 . S
C105 O109 1.241 1_455 S
C106 O99 1.247 . S
C106 O100 1.261 . S
C107 O102 1.259 . S
C107 O104 1.235 1_455 S
O108 Co98 2.021 . S
O108 C105 1.238 . S
O109 Co103 2.052 . S
O109 C105 1.241 1_655 S
O110 Co98 2.137 . S
O110 C101 1.247 . S
O111 Co98 2.244 . S
O111 C101 1.272 . S
O111 Co103 2.135 1_455 S
Co112 O113 2.216 . S
Co112 O114 2.091 . S
Co112 O116 2.004 . S
Co112 O122 2.021 . S
Co112 O124 2.137 . S
Co112 O125 2.244 . S
O113 Co112 2.216 . S
O113 C120 1.247 . S
O114 Co112 2.091 . S
O114 C120 1.261 . S
C115 O124 1.247 . S
C115 O125 1.272 . S
O116 Co112 2.004 . S
O116 C121 1.259 . S
Co117 O118 2.061 . S
Co117 O123 2.052 . S
Co117 O125 2.135 1_565 S
O118 Co117 2.061 . S
O118 C121 1.235 1_565 S
C119 O122 1.238 . S
C119 O123 1.241 1_545 S
C120 O113 1.247 . S
C120 O114 1.261 . S
C121 O116 1.259 . S
C121 O118 1.235 1_545 S
O122 Co112 2.021 . S
O122 C119 1.238 . S
O123 Co117 2.052 . S
O123 C119 1.241 1_565 S
O124 Co112 2.137 . S
O124 C115 1.247 . S
O125 Co112 2.244 . S
O125 C115 1.272 . S
O125 Co117 2.135 1_545 S
Co126 O127 2.216 . S
Co126 O128 2.091 . S
Co126 O130 2.004 1_556 S
Co126 O136 2.021 . S
Co126 O138 2.137 . S
Co126 O139 2.244 . S
O127 Co126 2.216 . S
O127 C134 1.247 . S
O128 Co126 2.091 . S
O128 C134 1.261 . S
C129 O138 1.247 . S
C129 O139 1.272 . S
O130 Co126 2.004 1_554 S
O130 C135 1.259 . S
Co131 O132 2.061 1_556 S
Co131 O137 2.052 . S
Co131 O139 2.135 . S
O132 Co131 2.061 1_554 S
O132 C135 1.235 . S
C133 O136 1.238 . S
C133 O137 1.241 . S
C134 O127 1.247 . S
C134 O128 1.261 . S
C135 O130 1.259 . S
C135 O132 1.235 . S
O136 Co126 2.021 . S
O136 C133 1.238 . S
O137 Co131 2.052 . S
O137 C133 1.241 . S
O138 Co126 2.137 . S
O138 C129 1.247 . S
O139 Co126 2.244 . S
O139 C129 1.272 . S
O139 Co131 2.135 . S
Co140 O141 2.216 1_554 S
Co140 O142 2.091 . S
Co140 O144 2.004 . S
Co140 O150 2.021 1_554 S
Co140 O152 2.137 . S
Co140 O153 2.244 . S
O141 Co140 2.216 1_556 S
O141 C148 1.247 . S
O142 Co140 2.091 . S
O142 C148 1.261 1_554 S
C143 O152 1.247 . S
C143 O153 1.272 . S
O144 Co140 2.004 . S
O144 C149 1.259 . S
Co145 O146 2.061 . S
Co145 O151 2.052 1_554 S
Co145 O153 2.135 1_455 S
O146 Co145 2.061 . S
O146 C149 1.235 1_455 S
C147 O150 1.238 . S
C147 O151 1.241 1_655 S
C148 O141 1.247 . S
C148 O142 1.261 1_556 S
C149 O144 1.259 . S
C149 O146 1.235 1_655 S
O150 Co140 2.021 1_556 S
O150 C147 1.238 . S
O151 Co145 2.052 1_556 S
O151 C147 1.241 1_455 S
O152 Co140 2.137 . S
O152 C143 1.247 . S
O153 Co140 2.244 . S
O153 C143 1.272 . S
O153 Co145 2.135 1_655 S
Co154 O155 2.216 . S
Co154 O156 2.091 . S
Co154 O158 2.004 . S
Co154 O164 2.021 . S
Co154 O166 2.137 . S
Co154 O167 2.244 . S
O155 Co154 2.216 . S
O155 C162 1.247 . S
O156 Co154 2.091 . S
O156 C162 1.261 . S
C157 O166 1.247 . S
C157 O167 1.272 . S
O158 Co154 2.004 . S
O158 C163 1.259 . S
Co159 O160 2.061 . S
Co159 O165 2.052 . S
Co159 O167 2.135 1_545 S
O160 Co159 2.061 . S
O160 C163 1.235 1_545 S
C161 O164 1.238 . S
C161 O165 1.241 1_565 S
C162 O155 1.247 . S
C162 O156 1.261 . S
C163 O158 1.259 . S
C163 O160 1.235 1_565 S
O164 Co154 2.021 . S
O164 C161 1.238 . S
O165 Co159 2.052 . S
O165 C161 1.241 1_545 S
O166 Co154 2.137 . S
O166 C157 1.247 . S
O167 Co154 2.244 . S
O167 C157 1.272 . S
O167 Co159 2.135 1_565 S
C135 C9 1.424 . S
C23 C149 1.424 1_455 S
C163 C37 1.424 1_565 S
C93 C51 1.424 . S
C107 C65 1.424 1_455 S
C121 C79 1.424 1_546 S
C87 C3 1.866 . S
C17 C101 1.867 . S
C115 C31 1.866 . S
C45 C129 1.866 . S
C143 C59 1.866 . S
C73 C157 1.866 . S
C133 C7 1.444 . S
C147 C21 1.444 1_655 S
C161 C35 1.444 1_564 S
C49 C91 1.444 . S
C105 C63 1.444 1_455 S
C77 C119 1.444 1_565 S
C8 C120 1.420 . S
C134 C22 1.420 . S
C148 C36 1.419 . S
C162 C50 1.420 . S
C92 C64 1.420 . S
C106 C78 1.419 . S
