# Generated by pormake.
# Topology pcu, (6)-cn, num edge types: 1
# Building blocks:
#     Node 0, Type 0, BuildingBlock: HISSIN_clean_sbu_0, # of connection points: 6
#     Edge 1, Type (0, 0), BuildingBlock: MIFKUJ_clean_linker_0, # of connection points: 2
#     Edge 2, Type (0, 0), BuildingBlock: MIFKUJ_clean_linker_0, # of connection points: 2
#     Edge 3, Type (0, 0), BuildingBlock: MIFKUJ_clean_linker_0, # of connection points: 2
# Relax obj value: 0.000
# Max RMSD: 0.000
# Mean RMSD: 0.000
data_MOF--net-pcu--node1-HISSIN_clean_sbu_0--edge1-MIFKUJ_clean_linker_0
_symmetry_space_group_name_H-M    P1
_symmetry_Int_Tables_number       1
_symmetry_cell_setting            triclinic
loop_
_symmetry_equiv_pos_as_xyz
'x, y, z'
_cell_length_a     19.713707
_cell_length_b     30.4267
_cell_length_c     19.714379
_cell_angle_alpha  123.57555
_cell_angle_beta   90.932232
_cell_angle_gamma 97.274143
loop_
_atom_site_label
_atom_site_type_symbol
_atom_site_fract_x
_atom_site_fract_y
_atom_site_fract_z
_atom_type_partial_charge
Eu0 Eu -0.0037 0.95121 0.94623 0.0
Eu1 Eu 0.01811 0.08644 0.04853 0.0
C2 C 0.14217 0.02159 0.98948 0.0
C3 C 0.98554 0.80926 0.90316 0.0
C4 C 0.04702 0.79939 0.92585 0.0
C5 C 0.92224 0.73971 0.91481 0.0
C6 C 0.04614 0.76003 0.94224 0.0
C7 C 0.92313 0.77902 0.89813 0.0
C8 C 0.98383 0.72924 0.93618 0.0
C9 C 0.98685 0.84794 0.87908 0.0
O10 O 0.01397 0.05457 0.91502 0.0
O11 O 0.97003 0.96429 0.84804 0.0
C12 C 0.98705 1.00794 0.84917 0.0
O13 O 0.895 0.97658 0.99226 0.0
O14 O 0.08506 0.15924 0.07892 0.0
O15 O 0.98683 0.16475 0.12848 0.0
O16 O 0.90628 0.05685 0.00369 0.0
C17 C 0.86861 1.01609 -0.00157 0.0
O18 O 0.03213 0.98565 0.07719 0.0
O19 O -0.00205 0.06822 0.1432 0.0
O20 O 0.119 0.06071 0.0537 0.0
O21 O 0.93366 0.87192 0.89026 0.0
O22 O 0.04444 0.88001 0.89607 0.0
O23 O 0.09966 0.98171 0.92856 0.0
C24 C 0.02943 0.23016 0.10073 0.0
C25 C 0.96377 0.23386 0.07709 0.0
C26 C 0.07804 0.30421 0.09145 0.0
C27 C 0.95543 0.27263 0.06119 0.0
C28 C 0.08628 0.26581 0.10781 0.0
C29 C 0.01254 0.30826 0.06802 0.0
C30 C 0.04043 0.19029 0.11928 0.0
C31 C 0.01564 0.02797 0.14317 0.0
H32 H 0.0962 0.82153 0.92986 0.0
H33 H 0.87335 0.71643 0.90859 0.0
H34 H 0.09451 0.75366 0.95957 0.0
H35 H 0.87493 0.78503 0.87976 0.0
H36 H 0.91888 0.20686 0.07078 0.0
H37 H 0.12304 0.33138 0.09849 0.0
H38 H 0.90434 0.27426 0.04255 0.0
H39 H 0.13737 0.26407 0.12638 0.0
H40 H 0.97454 0.10319 0.29046 0.0
H41 H 0.965 0.09951 0.41091 0.0
H42 H 0.04442 0.95065 0.28636 0.0
H43 H 0.05365 0.95358 0.16595 0.0
H44 H 0.92927 0.94539 0.35655 0.0
H45 H 0.14358 0.06486 0.43251 0.0
H46 H 0.21966 0.14473 0.45894 0.0
H47 H 0.09758 0.24605 0.64521 0.0
H48 H 0.01972 0.16678 0.61863 0.0
H49 H 0.00293 0.92612 0.69406 0.0
H50 H 0.00117 0.92832 0.57163 0.0
H51 H 0.94492 0.08599 0.71149 0.0
H52 H 0.95002 0.08484 0.83416 0.0
H53 H 0.04524 0.08725 0.63253 0.0
H54 H 0.83167 0.96908 0.56024 0.0
H55 H 0.75424 0.88981 0.53405 0.0
H56 H 0.87116 0.78709 0.34209 0.0
H57 H 0.95029 0.86568 0.36827 0.0
C58 C 0.99058 0.06995 0.289 0.0
C59 C 0.01476 0.02868 0.21859 0.0
C60 C 0.9851 0.06792 0.3578 0.0
C61 C 0.00409 0.02481 0.35727 0.0
C62 C 0.02922 0.98409 0.28766 0.0
C63 C 0.0347 0.98604 0.21904 0.0
C64 C -0.00346 0.02125 0.42851 0.0
C65 C 0.95507 0.9761 0.4169 0.0
C66 C 0.02889 0.06206 0.50727 0.0
C67 C 0.07532 0.10982 0.52284 0.0
C68 C 0.13245 0.10415 0.47843 0.0
C69 C 0.17592 0.14934 0.49351 0.0
C70 C 0.16322 0.20044 0.55342 0.0
C71 C 0.10708 0.20646 0.59851 0.0
C72 C 0.06326 0.16141 0.58345 0.0
C73 C 0.9892 0.96077 0.69796 0.0
C74 C 0.97711 1.00545 0.77315 0.0
C75 C 0.98793 0.96198 0.62811 0.0
C76 C 0.9726 1.00729 0.63232 0.0
C77 C 0.95736 0.05081 0.7069 0.0
C78 C 0.96016 0.05008 0.77682 0.0
C79 C 0.9775 1.01138 0.5611 0.0
C80 C 0.01878 0.05661 0.57252 0.0
C81 C 0.94457 0.97076 0.48232 0.0
C82 C 0.89733 0.92335 0.46682 0.0
C83 C 0.84132 0.92959 0.51301 0.0
C84 C 0.79711 0.88476 0.49812 0.0
C85 C 0.80798 0.83344 0.43669 0.0
C86 C 0.86303 0.82684 0.3899 0.0
C87 C 0.90756 0.87153 0.40473 0.0
H88 H 0.77363 0.79878 0.42516 0.0
H89 H 0.19702 0.23537 0.56513 0.0
H90 H 0.20708 0.9391 0.88163 0.0
H91 H 0.33069 0.93729 0.88147 0.0
H92 H 0.36972 0.10069 0.09124 0.0
H93 H 0.24609 0.10297 0.09218 0.0
H94 H 0.45566 0.07783 0.96473 0.0
H95 H 0.37593 1.00657 0.12184 0.0
H96 H 0.30061 0.94449 0.14222 0.0
H97 H 0.37206 0.81091 0.93533 0.0
H98 H 0.44709 0.87221 0.913 0.0
H99 H 0.80197 0.10099 0.08267 0.0
H100 H 0.67804 0.10035 0.08142 0.0
H101 H 0.64311 0.92857 0.91176 0.0
H102 H 0.76749 0.92894 0.91724 0.0
H103 H 0.55294 0.95338 0.01256 0.0
H104 H 0.63199 0.01921 0.85183 0.0
H105 H 0.70509 0.07734 0.82201 0.0
H106 H 0.63293 0.21511 0.02021 0.0
H107 H 0.56007 0.15788 0.05195 0.0
C108 C 0.24192 0.97478 0.9275 0.0
C109 C 0.21687 0.02115 0.98716 0.0
C110 C 0.31243 0.97357 0.92742 0.0
C111 C 0.35898 0.01871 0.98673 0.0
C112 C 0.33437 0.06547 0.04509 0.0
C113 C 0.2638 0.0666 0.04567 0.0
C114 C 0.43343 0.01691 0.98881 0.0
C115 C 0.47726 0.05111 0.97606 0.0
C116 C 0.46079 0.98071 0.00093 0.0
C117 C 0.41665 0.94395 0.01532 0.0
C118 C 0.37524 0.96394 0.08037 0.0
C119 C 0.33265 0.9289 0.09232 0.0
C120 C 0.33142 0.87378 0.03998 0.0
C121 C 0.373 0.85361 0.97577 0.0
C122 C 0.41562 0.88848 0.96349 0.0
C123 C 0.76771 0.06312 0.04543 0.0
C124 C 0.79393 1.01505 -0.0005 0.0
C125 C 0.69694 0.06278 0.04427 0.0
C126 C 0.65112 1.01456 0.99463 0.0
C127 C 0.67739 0.9663 0.95017 0.0
C128 C 0.74831 0.96651 0.95318 0.0
C129 C 0.57599 1.01465 0.98889 0.0
C130 C 0.53176 0.98006 0.00086 0.0
C131 C 0.54806 0.04984 0.97445 0.0
C132 C 0.59097 0.08428 0.95465 0.0
C133 C 0.63195 0.06193 0.8893 0.0
C134 C 0.67334 0.09472 0.87204 0.0
C135 C 0.67376 0.14989 0.91929 0.0
C136 C 0.63259 0.17237 0.9837 0.0
C137 C 0.59117 0.13977 0.00129 0.0
H138 H 0.70591 0.17522 0.90592 0.0
H139 H 0.29834 0.84671 0.04925 0.0
H140 H 0.89368 0.7019 0.01708 0.0
H141 H 0.89317 0.62962 0.03789 0.0
H142 H 0.073 0.58571 0.90836 0.0
H143 H 0.07277 0.65687 0.8855 0.0
H144 H 0.98091 0.49841 0.86036 0.0
H145 H 0.08351 0.65575 0.11747 0.0
H146 H 0.0899 0.74688 0.24135 0.0
H147 H 0.90793 0.69604 0.31302 0.0
H148 H 0.89978 0.60474 0.18878 0.0
H149 H 0.09375 0.33836 0.9842 0.0
H150 H 0.08312 0.40847 0.96132 0.0
H151 H 0.90192 0.44213 0.09001 0.0
H152 H 0.91304 0.37254 0.11456 0.0
H153 H 0.98818 0.53373 0.13823 0.0
H154 H 0.88844 0.37528 0.88384 0.0
H155 H 0.88227 0.28421 0.75998 0.0
H156 H 0.05864 0.337 0.6829 0.0
H157 H 0.06666 0.42824 0.80711 0.0
C158 C 0.93287 0.67666 0.99252 0.0
C159 C 0.98347 0.68553 0.94991 0.0
C160 C 0.93286 0.63555 0.00507 0.0
C161 C 0.98348 0.60238 0.97544 0.0
C162 C 0.03351 0.61075 0.93208 0.0
C163 C 0.03368 0.65188 0.91972 0.0
C164 C 0.98446 0.55886 0.98924 0.0
C165 C 0.98331 0.50628 0.92122 0.0
C166 C 0.98573 0.56869 0.06846 0.0
C167 C 0.9906 0.62354 0.14331 0.0
C168 C 0.04449 0.6641 0.15926 0.0
C169 C 0.04849 0.71578 0.2296 0.0
C170 C -0.00077 0.72729 0.2849 0.0
C171 C 0.94596 0.6871 0.27004 0.0
C172 C 0.94164 0.63537 0.19968 0.0
C173 C 0.05173 0.36076 0.00797 0.0
C174 C 0.00428 0.34973 0.05134 0.0
C175 C 0.04539 0.40063 0.99423 0.0
C176 C 0.99137 0.43045 0.02332 0.0
C177 C 0.94395 0.41965 0.06677 0.0
C178 C 0.95005 0.37952 0.08018 0.0
C179 C 0.98527 0.47337 0.00938 0.0
C180 C 0.98545 0.52582 0.07734 0.0
C181 C 0.98314 0.46343 0.93009 0.0
C182 C 0.97855 0.40854 0.85529 0.0
C183 C 0.92632 0.36739 0.8409 0.0
C184 C 0.92244 0.31573 0.77055 0.0
C185 C 0.97014 0.30478 0.71372 0.0
C186 C 0.02179 0.34551 0.72706 0.0
C187 C 0.02602 0.39722 0.79742 0.0
H188 H 0.96697 0.26477 0.65924 0.0
H189 H 0.00245 0.76732 0.33935 0.0
loop_
_geom_bond_atom_site_label_1
_geom_bond_atom_site_label_2
_geom_bond_distance
_geom_bond_site_symmetry_2
_ccdc_geom_bond_type
Eu0 C9 2.828 . S
Eu0 O11 2.392 . S
Eu0 O13 2.418 . S
Eu0 O18 2.373 1_556 S
Eu0 O21 2.488 . S
Eu0 O22 2.471 1_655 S
Eu0 O23 2.349 1_655 S
Eu1 O10 2.373 1_554 S
Eu1 O14 2.488 . S
Eu1 O15 2.471 1_455 S
Eu1 O16 2.349 1_455 S
Eu1 O19 2.392 . S
Eu1 O20 2.418 . S
Eu1 C30 2.828 . S
C2 O20 1.244 . S
C2 O23 1.265 1_544 S
C3 C4 1.379 1_656 S
C3 C7 1.373 . S
C3 C9 1.505 . S
C4 C3 1.379 1_454 S
C4 C6 1.369 . S
C4 H32 0.930 . S
C5 C7 1.383 . S
C5 C8 1.382 . S
C5 H33 0.930 . S
C6 C4 1.369 . S
C6 C8 1.392 1_454 S
C6 H34 0.930 . S
C7 C3 1.373 . S
C7 C5 1.383 . S
C7 H35 0.931 . S
C8 C5 1.382 . S
C8 C6 1.392 1_656 S
C9 Eu0 2.828 . S
C9 C3 1.505 . S
C9 O21 1.249 . S
C9 O22 1.244 1_655 S
O10 Eu1 2.373 1_556 S
O10 C12 1.258 1_545 S
O11 Eu0 2.392 . S
O11 C12 1.242 1_655 S
C12 O10 1.258 1_565 S
C12 O11 1.242 1_455 S
O13 Eu0 2.418 . S
O13 C17 1.244 . S
O14 Eu1 2.488 . S
O14 C30 1.249 . S
O15 Eu1 2.471 1_655 S
O15 C30 1.244 1_655 S
O16 Eu1 2.349 1_655 S
O16 C17 1.265 1_544 S
C17 O13 1.244 . S
C17 O16 1.265 1_566 S
O18 Eu0 2.373 1_554 S
O18 C31 1.258 1_665 S
O19 Eu1 2.392 . S
O19 C31 1.242 . S
O20 Eu1 2.418 . S
O20 C2 1.244 . S
O21 Eu0 2.488 . S
O21 C9 1.249 . S
O22 Eu0 2.471 1_455 S
O22 C9 1.244 1_455 S
O23 Eu0 2.349 1_455 S
O23 C2 1.265 1_566 S
C24 C25 1.379 1_454 S
C24 C28 1.373 . S
C24 C30 1.505 . S
C25 C24 1.379 1_656 S
C25 C27 1.369 . S
C25 H36 0.930 . S
C26 C28 1.383 . S
C26 C29 1.382 . S
C26 H37 0.930 . S
C27 C25 1.369 . S
C27 C29 1.392 1_656 S
C27 H38 0.930 . S
C28 C24 1.373 . S
C28 C26 1.383 . S
C28 H39 0.931 . S
C29 C26 1.382 . S
C29 C27 1.392 1_454 S
C30 Eu1 2.828 . S
C30 O14 1.249 . S
C30 O15 1.244 1_455 S
C30 C24 1.505 . S
C31 O18 1.258 1_445 S
C31 O19 1.242 . S
H32 C4 0.930 . S
H33 C5 0.930 . S
H34 C6 0.930 . S
H35 C7 0.931 . S
H36 C25 0.930 . S
H37 C26 0.930 . S
H38 C27 0.930 . S
H39 C28 0.931 . S
H40 C58 0.951 . S
H41 C60 0.951 . S
H42 C62 0.950 . S
H43 C63 0.950 . S
H44 C65 0.950 . S
H45 C68 0.950 . S
H46 C69 0.950 . S
H47 C71 0.950 . S
H48 C72 0.950 . S
H49 C73 0.951 . S
H50 C75 0.951 . S
H51 C77 0.950 . S
H52 C78 0.950 . S
H53 C80 0.950 . S
H54 C83 0.950 . S
H55 C84 0.950 . S
H56 C86 0.950 . S
H57 C87 0.950 . S
C58 H40 0.951 . S
C58 C59 1.364 . S
C58 C60 1.388 . S
C59 C58 1.364 . S
C59 C63 1.387 1_645 S
C60 H41 0.951 . S
C60 C58 1.388 . S
C60 C61 1.366 1_655 S
C61 C60 1.366 1_455 S
C61 C62 1.414 1_545 S
C61 C64 1.495 1_545 S
C62 H42 0.950 . S
C62 C61 1.414 1_565 S
C62 C63 1.374 . S
C63 H43 0.950 . S
C63 C59 1.387 1_465 S
C63 C62 1.374 . S
C64 C61 1.495 1_565 S
C64 C65 1.378 1_455 S
C64 C66 1.388 1_565 S
C65 H44 0.950 . S
C65 C64 1.378 1_655 S
C65 C81 1.377 . S
C66 C64 1.388 1_545 S
C66 C67 1.524 . S
C66 C80 1.377 . S
C67 C66 1.524 . S
C67 C68 1.397 . S
C67 C72 1.363 . S
C68 H45 0.950 . S
C68 C67 1.397 . S
C68 C69 1.334 . S
C69 H46 0.950 . S
C69 C68 1.334 . S
C69 C70 1.287 . S
C70 C69 1.287 . S
C70 C71 1.524 . S
C70 H89 0.913 . S
C71 H47 0.950 . S
C71 C70 1.524 . S
C71 C72 1.415 . S
C72 H48 0.950 . S
C72 C67 1.363 . S
C72 C71 1.415 . S
C73 H49 0.951 . S
C73 C74 1.366 1_565 S
C73 C75 1.388 . S
C74 C73 1.366 1_545 S
C74 C78 1.386 1_455 S
C75 H50 0.951 . S
C75 C73 1.388 . S
C75 C76 1.390 1_455 S
C76 C75 1.390 1_655 S
C76 C77 1.404 1_565 S
C76 C79 1.477 1_565 S
C77 H51 0.950 . S
C77 C76 1.404 1_545 S
C77 C78 1.374 . S
C78 H52 0.950 . S
C78 C74 1.386 1_655 S
C78 C77 1.374 . S
C79 C76 1.477 1_545 S
C79 C80 1.383 1_655 S
C79 C81 1.386 1_545 S
C80 H53 0.950 . S
C80 C66 1.377 . S
C80 C79 1.383 1_455 S
C81 C65 1.377 . S
C81 C79 1.386 1_565 S
C81 C82 1.524 . S
C82 C81 1.524 . S
C82 C83 1.397 . S
C82 C87 1.363 . S
C83 H54 0.950 . S
C83 C82 1.397 . S
C83 C84 1.334 . S
C84 H55 0.950 . S
C84 C83 1.334 . S
C84 C85 1.287 . S
C85 C84 1.287 . S
C85 C86 1.524 . S
C85 H88 0.999 . S
C86 H56 0.950 . S
C86 C85 1.524 . S
C86 C87 1.415 . S
C87 H57 0.950 . S
C87 C82 1.363 . S
C87 C86 1.415 . S
H88 C85 0.999 . S
H89 C70 0.913 . S
H90 C108 0.951 . S
H91 C110 0.951 . S
H92 C112 0.950 . S
H93 C113 0.950 . S
H94 C115 0.950 . S
H95 C118 0.950 . S
H96 C119 0.950 . S
H97 C121 0.950 . S
H98 C122 0.950 . S
H99 C123 0.951 . S
H100 C125 0.951 . S
H101 C127 0.950 . S
H102 C128 0.950 . S
H103 C130 0.950 . S
H104 C133 0.950 . S
H105 C134 0.950 . S
H106 C136 0.950 . S
H107 C137 0.950 . S
C108 H90 0.951 . S
C108 C109 1.365 1_566 S
C108 C110 1.388 . S
C109 C108 1.365 1_544 S
C109 C113 1.385 . S
C110 H91 0.951 . S
C110 C108 1.388 . S
C110 C111 1.373 1_556 S
C111 C110 1.373 1_554 S
C111 C112 1.403 1_565 S
C111 C114 1.504 1_565 S
C112 H92 0.950 . S
C112 C111 1.403 1_545 S
C112 C113 1.374 . S
C113 H93 0.950 . S
C113 C109 1.385 . S
C113 C112 1.374 . S
C114 C111 1.504 1_545 S
C114 C115 1.390 . S
C114 C116 1.371 1_544 S
C115 H94 0.950 . S
C115 C114 1.390 . S
C115 C131 1.377 . S
C116 C114 1.371 1_566 S
C116 C117 1.524 . S
C116 C130 1.377 . S
C117 C116 1.524 . S
C117 C118 1.397 1_556 S
C117 C122 1.363 . S
C118 H95 0.950 . S
C118 C117 1.397 1_554 S
C118 C119 1.334 . S
C119 H96 0.950 . S
C119 C118 1.334 . S
C119 C120 1.287 . S
C120 C119 1.287 . S
C120 C121 1.524 1_554 S
C120 H139 0.913 . S
C121 H97 0.950 . S
C121 C120 1.524 1_556 S
C121 C122 1.415 . S
C122 H98 0.950 . S
C122 C117 1.363 . S
C122 C121 1.415 . S
C123 H99 0.951 . S
C123 C124 1.365 . S
C123 C125 1.388 . S
C124 C123 1.365 . S
C124 C128 1.385 1_544 S
C125 H100 0.951 . S
C125 C123 1.388 . S
C125 C126 1.376 1_554 S
C126 C125 1.376 1_556 S
C126 C127 1.400 1_545 S
C126 C129 1.504 1_545 S
C127 H101 0.950 . S
C127 C126 1.400 1_565 S
C127 C128 1.374 . S
C128 H102 0.950 . S
C128 C124 1.385 1_566 S
C128 C127 1.374 . S
C129 C126 1.504 1_565 S
C129 C130 1.385 . S
C129 C131 1.377 1_566 S
C130 H103 0.950 . S
C130 C116 1.377 . S
C130 C129 1.385 . S
C131 C115 1.377 . S
C131 C129 1.377 1_544 S
C131 C132 1.524 . S
C132 C131 1.524 . S
C132 C133 1.397 1_554 S
C132 C137 1.363 . S
C133 H104 0.950 . S
C133 C132 1.397 1_556 S
C133 C134 1.334 . S
C134 H105 0.950 . S
C134 C133 1.334 . S
C134 C135 1.287 . S
C135 C134 1.287 . S
C135 C136 1.524 1_556 S
C135 H138 0.999 . S
C136 H106 0.950 . S
C136 C135 1.524 1_554 S
C136 C137 1.415 . S
C137 H107 0.950 . S
C137 C132 1.363 . S
C137 C136 1.415 . S
H138 C135 0.999 . S
H139 C120 0.913 . S
H140 C158 0.951 . S
H141 C160 0.951 . S
H142 C162 0.950 . S
H143 C163 0.950 . S
H144 C165 0.950 . S
H145 C168 0.950 . S
H146 C169 0.950 . S
H147 C171 0.950 1_655 S
H148 C172 0.950 . S
H149 C173 0.951 . S
H150 C175 0.951 . S
H151 C177 0.950 . S
H152 C178 0.950 . S
H153 C180 0.950 . S
H154 C183 0.950 . S
H155 C184 0.950 . S
H156 C186 0.950 1_455 S
H157 C187 0.950 . S
C158 H140 0.951 . S
C158 C159 1.368 1_654 S
C158 C160 1.388 . S
C159 C158 1.368 1_456 S
C159 C163 1.383 . S
C160 H141 0.951 . S
C160 C158 1.388 . S
C160 C161 1.366 1_655 S
C161 C160 1.366 1_455 S
C161 C162 1.414 1_554 S
C161 C164 1.499 . S
C162 H142 0.950 . S
C162 C161 1.414 1_556 S
C162 C163 1.374 . S
C163 H143 0.950 . S
C163 C159 1.383 . S
C163 C162 1.374 . S
C164 C161 1.499 . S
C164 C165 1.373 1_454 S
C164 C166 1.389 . S
C165 H144 0.950 . S
C165 C164 1.373 1_656 S
C165 C181 1.377 . S
C166 C164 1.389 . S
C166 C167 1.524 . S
C166 C180 1.377 . S
C167 C166 1.524 . S
C167 C168 1.397 . S
C167 C172 1.363 1_455 S
C168 H145 0.950 . S
C168 C167 1.397 . S
C168 C169 1.334 . S
C169 H146 0.950 . S
C169 C168 1.334 . S
C169 C170 1.287 . S
C170 C169 1.287 . S
C170 C171 1.524 . S
C170 H189 0.913 . S
C171 H147 0.950 1_455 S
C171 C170 1.524 . S
C171 C172 1.415 1_455 S
C172 H148 0.950 . S
C172 C167 1.363 1_655 S
C172 C171 1.415 1_655 S
C173 H149 0.951 . S
C173 C174 1.364 1_556 S
C173 C175 1.388 . S
C174 C173 1.364 1_554 S
C174 C178 1.384 1_455 S
C175 H150 0.951 . S
C175 C173 1.388 . S
C175 C176 1.366 1_455 S
C176 C175 1.366 1_655 S
C176 C177 1.414 1_556 S
C176 C179 1.499 . S
C177 H151 0.950 . S
C177 C176 1.414 1_554 S
C177 C178 1.374 . S
C178 H152 0.950 . S
C178 C174 1.384 1_655 S
C178 C177 1.374 . S
C179 C176 1.499 . S
C179 C180 1.373 1_656 S
C179 C181 1.389 . S
C180 H153 0.950 . S
C180 C166 1.377 . S
C180 C179 1.373 1_454 S
C181 C165 1.377 . S
C181 C179 1.389 . S
C181 C182 1.524 . S
C182 C181 1.524 . S
C182 C183 1.397 . S
C182 C187 1.363 1_655 S
C183 H154 0.950 . S
C183 C182 1.397 . S
C183 C184 1.334 . S
C184 H155 0.950 . S
C184 C183 1.334 . S
C184 C185 1.287 . S
C185 C184 1.287 . S
C185 C186 1.524 . S
C185 H188 0.999 . S
C186 H156 0.950 1_655 S
C186 C185 1.524 . S
C186 C187 1.415 1_655 S
C187 H157 0.950 . S
C187 C182 1.363 1_455 S
C187 C186 1.415 1_455 S
H188 C185 0.999 . S
H189 C170 0.913 . S
C59 C31 1.499 1_655 S
C74 C12 1.499 1_545 S
C109 C2 1.466 . S
C124 C17 1.466 1_544 S
C159 C8 1.492 1_455 S
C174 C29 1.495 . S
