# Generated by pormake.
# Topology pcu, (6)-cn, num edge types: 1
# Building blocks:
#     Node 0, Type 0, BuildingBlock: CUKXOW_clean_sbu_0, # of connection points: 6
#     Edge 1, Type (0, 0), BuildingBlock: KIFKEQ_clean_linker_1, # of connection points: 2
#     Edge 2, Type (0, 0), BuildingBlock: KIFKEQ_clean_linker_1, # of connection points: 2
#     Edge 3, Type (0, 0), BuildingBlock: KIFKEQ_clean_linker_1, # of connection points: 2
# Relax obj value: 0.000
# Max RMSD: 0.000
# Mean RMSD: 0.000
data_MOF--net-pcu--node1-CUKXOW_clean_sbu_0--edge1-KIFKEQ_clean_linker_1
_symmetry_space_group_name_H-M    P1
_symmetry_Int_Tables_number       1
_symmetry_cell_setting            triclinic
loop_
_symmetry_equiv_pos_as_xyz
'x, y, z'
_cell_length_a     13.98614
_cell_length_b     18.375025
_cell_length_c     15.616936
_cell_angle_alpha  84.134054
_cell_angle_beta   105.04758
_cell_angle_gamma 123.26344
loop_
_atom_site_label
_atom_site_type_symbol
_atom_site_fract_x
_atom_site_fract_y
_atom_site_fract_z
_atom_type_partial_charge
Tb0 Tb 0.05581 0.08272 0.98782 0.0
C1 C 1.02627 -0.00944 0.81792 0.0
Tb2 Tb 0.99678 0.89451 0.00014 0.0
O3 O 0.22891 0.13063 0.9653 0.0
O4 O 0.14805 0.02093 0.03923 0.0
O5 O 1.01534 0.05 0.848 0.0
C6 C 0.99387 0.74807 -0.00084 0.0
O7 O 0.03577 0.93131 0.86929 0.0
C8 C 0.82049 0.91323 0.98377 0.0
C9 C 0.03666 -0.01028 0.17336 0.0
O10 O 0.91556 0.76115 0.94829 0.0
O11 O 0.07266 0.81696 0.05045 0.0
O12 O 0.82589 0.85015 0.02527 0.0
O13 O 0.90581 0.95657 0.94816 0.0
O14 O 0.03269 0.9241 0.14022 0.0
O15 O 0.03874 0.05434 0.12495 0.0
C16 C 0.04166 0.222 0.98554 0.0
O17 O 0.13888 0.22353 0.00594 0.0
O18 O 0.95285 0.14228 0.9663 0.0
C19 C 0.23461 0.06677 0.00479 0.0
H20 H 0.09098 0.12562 0.27593 0.0
H21 H 0.98558 0.85611 0.28579 0.0
H22 H 0.09229 0.12689 0.43193 0.0
H23 H 0.98248 0.8563 0.44075 0.0
H24 H 0.098 0.90807 0.73986 0.0
H25 H 0.10506 0.91002 0.58548 0.0
H26 H 0.96402 0.07312 0.52818 0.0
H27 H 0.96118 0.07374 0.6832 0.0
C28 C 0.06744 0.06646 0.31124 0.0
C29 C 0.03849 -0.00916 0.26841 0.0
C30 C 0.06744 0.067 0.40067 0.0
C31 C 0.03721 -0.00837 0.44919 0.0
C32 C 1.00821 0.916 0.40611 0.0
C33 C 1.0094 0.91575 0.31696 0.0
C34 C 0.06839 0.94427 0.69426 0.0
C35 C 0.02896 -0.00929 0.72383 0.0
C36 C 0.07191 0.94508 0.60552 0.0
C37 C 0.03495 -0.00837 0.54402 0.0
C38 C 0.99513 0.0378 0.5738 0.0
C39 C 0.99277 0.03772 0.6627 0.0
H40 H 0.4092 0.14933 0.91634 0.0
H41 H 0.27156 0.94851 0.10094 0.0
H42 H 0.55716 0.11802 0.91586 0.0
H43 H 0.40834 0.90889 0.09265 0.0
H44 H 0.72604 0.89528 0.12175 0.0
H45 H 0.59435 0.9397 0.13231 0.0
H46 H 0.59147 0.02561 0.86329 0.0
H47 H 0.73079 0.98713 0.8568 0.0
C48 C 0.40939 0.0973 0.95569 0.0
C49 C 0.32639 0.04932 0.00653 0.0
C50 C 0.49332 0.07834 0.95459 0.0
C51 C 0.49464 0.00956 0.00291 0.0
C52 C 0.41212 0.96281 0.05498 0.0
C53 C 0.33089 0.98375 0.05806 0.0
C54 C 0.69684 0.92376 0.06516 0.0
C55 C 0.73776 0.93766 0.98843 0.0
C56 C 0.62051 0.94884 0.0707 0.0
C57 C 0.58033 0.98604 -0.00157 0.0
C58 C 0.62147 -0.00094 0.92125 0.0
C59 C 0.70042 0.97614 0.91684 0.0
H60 H 0.14786 0.71396 0.10991 0.0
H61 H 0.84677 0.60527 0.88446 0.0
H62 H 0.15672 0.58553 0.10675 0.0
H63 H 0.8575 0.47739 0.87913 0.0
H64 H 0.84193 0.22334 0.95428 0.0
H65 H 0.82742 0.34947 0.95815 0.0
H66 H 0.20772 0.51861 0.01884 0.0
H67 H 0.22168 0.39213 0.01741 0.0
C68 C 0.0837 0.66248 0.0595 0.0
C69 C 0.99656 0.66925 -0.00253 0.0
C70 C 0.08928 0.58918 0.05719 0.0
C71 C 1.00829 0.52127 0.99233 0.0
C72 C 0.9204 0.52799 0.9306 0.0
C73 C 0.9145 0.60129 0.93328 0.0
C74 C 0.92223 0.28762 0.96838 0.0
C75 C 0.03297 0.29828 0.98576 0.0
C76 C 0.91398 0.3599 0.9701 0.0
C77 C 1.01641 0.44425 0.98902 0.0
C78 C 0.12711 0.45453 0.00554 0.0
C79 C 0.13526 0.38224 0.00417 0.0
loop_
_geom_bond_atom_site_label_1
_geom_bond_atom_site_label_2
_geom_bond_distance
_geom_bond_site_symmetry_2
_ccdc_geom_bond_type
Tb0 O3 2.453 . S
Tb0 O4 2.596 1_545 S
Tb0 O5 2.374 1_554 S
Tb0 O13 2.343 1_454 S
Tb0 O15 2.353 . S
Tb0 O17 2.427 . S
Tb0 O18 2.513 1_554 S
C1 O5 1.251 1_655 S
C1 O7 1.263 1_545 S
Tb2 O4 2.343 1_656 S
Tb2 O7 2.353 . S
Tb2 O10 2.427 . S
Tb2 O11 2.513 1_556 S
Tb2 O12 2.453 . S
Tb2 O13 2.596 1_565 S
Tb2 O14 2.374 1_556 S
O3 Tb0 2.453 . S
O3 C19 1.245 . S
O4 Tb0 2.596 1_565 S
O4 Tb2 2.343 1_454 S
O4 C19 1.259 1_565 S
O5 Tb0 2.374 1_556 S
O5 C1 1.251 1_455 S
C6 O10 1.273 1_554 S
C6 O11 1.247 . S
O7 C1 1.263 1_565 S
O7 Tb2 2.353 . S
C8 O12 1.245 . S
C8 O13 1.259 1_565 S
C9 O14 1.250 1_455 S
C9 O15 1.263 1_565 S
O10 Tb2 2.427 . S
O10 C6 1.273 1_556 S
O11 Tb2 2.513 1_554 S
O11 C6 1.247 . S
O12 Tb2 2.453 . S
O12 C8 1.245 . S
O13 Tb0 2.343 1_656 S
O13 Tb2 2.596 1_545 S
O13 C8 1.259 1_545 S
O14 Tb2 2.374 1_554 S
O14 C9 1.250 1_655 S
O15 Tb0 2.353 . S
O15 C9 1.263 1_545 S
C16 O17 1.276 1_556 S
C16 O18 1.245 . S
O17 Tb0 2.427 . S
O17 C16 1.276 1_554 S
O18 Tb0 2.513 1_556 S
O18 C16 1.245 . S
C19 O3 1.245 . S
C19 O4 1.259 1_545 S
H20 C28 0.950 . S
H21 C33 0.950 . S
H22 C30 0.950 . S
H23 C32 0.950 . S
H24 C34 0.950 . S
H25 C36 0.950 . S
H26 C38 0.950 . S
H27 C39 0.950 . S
C28 H20 0.950 . S
C28 C29 1.386 1_545 S
C28 C30 1.391 . S
C29 C28 1.386 1_565 S
C29 C33 1.393 1_655 S
C30 H22 0.950 . S
C30 C28 1.391 . S
C30 C31 1.400 1_545 S
C31 C30 1.400 1_565 S
C31 C32 1.398 1_655 S
C31 C37 1.491 1_665 S
C32 H23 0.950 . S
C32 C31 1.398 1_455 S
C32 C33 1.391 . S
C33 H21 0.950 . S
C33 C29 1.393 1_455 S
C33 C32 1.391 . S
C34 H24 0.950 . S
C34 C35 1.386 1_565 S
C34 C36 1.391 . S
C35 C34 1.386 1_545 S
C35 C39 1.393 1_455 S
C36 H25 0.950 . S
C36 C34 1.391 . S
C36 C37 1.400 1_565 S
C37 C31 1.491 1_445 S
C37 C36 1.400 1_545 S
C37 C38 1.398 1_455 S
C38 H26 0.950 . S
C38 C37 1.398 1_655 S
C38 C39 1.391 . S
C39 H27 0.950 . S
C39 C35 1.393 1_655 S
C39 C38 1.391 . S
H40 C48 0.950 . S
H41 C53 0.950 . S
H42 C50 0.950 . S
H43 C52 0.950 . S
H44 C54 0.950 . S
H45 C56 0.950 . S
H46 C58 0.950 . S
H47 C59 0.950 . S
C48 H40 0.950 . S
C48 C49 1.386 1_556 S
C48 C50 1.391 . S
C49 C48 1.386 1_554 S
C49 C53 1.393 1_545 S
C50 H42 0.950 . S
C50 C48 1.391 . S
C50 C51 1.392 1_556 S
C51 C50 1.392 1_554 S
C51 C52 1.410 1_545 S
C51 C57 1.484 1_544 S
C52 H43 0.950 . S
C52 C51 1.410 1_565 S
C52 C53 1.391 . S
C53 H41 0.950 . S
C53 C49 1.393 1_565 S
C53 C52 1.391 . S
C54 H44 0.950 . S
C54 C55 1.386 1_554 S
C54 C56 1.391 . S
C55 C54 1.386 1_556 S
C55 C59 1.393 1_565 S
C56 H45 0.950 . S
C56 C54 1.391 . S
C56 C57 1.394 1_554 S
C57 C51 1.484 1_566 S
C57 C56 1.394 1_556 S
C57 C58 1.407 1_565 S
C58 H46 0.950 . S
C58 C57 1.407 1_545 S
C58 C59 1.391 . S
C59 H47 0.950 . S
C59 C55 1.393 1_545 S
C59 C58 1.391 . S
H60 C68 0.950 . S
H61 C73 0.950 . S
H62 C70 0.950 . S
H63 C72 0.950 . S
H64 C74 0.950 . S
H65 C76 0.950 . S
H66 C78 0.950 . S
H67 C79 0.950 . S
C68 H60 0.950 . S
C68 C69 1.388 1_455 S
C68 C70 1.391 . S
C69 C68 1.388 1_655 S
C69 C73 1.390 1_554 S
C70 H62 0.950 . S
C70 C68 1.391 . S
C70 C71 1.402 1_455 S
C71 C70 1.402 1_655 S
C71 C72 1.397 1_554 S
C71 C77 1.490 1_654 S
C72 H63 0.950 . S
C72 C71 1.397 1_556 S
C72 C73 1.391 . S
C73 H61 0.950 . S
C73 C69 1.390 1_556 S
C73 C72 1.391 . S
C74 H64 0.950 . S
C74 C75 1.386 1_655 S
C74 C76 1.391 . S
C75 C74 1.386 1_455 S
C75 C79 1.393 1_556 S
C76 H65 0.950 . S
C76 C74 1.391 . S
C76 C77 1.400 1_655 S
C77 C71 1.490 1_456 S
C77 C76 1.400 1_455 S
C77 C78 1.399 1_556 S
C78 H66 0.950 . S
C78 C77 1.399 1_554 S
C78 C79 1.391 . S
C79 H67 0.950 . S
C79 C75 1.393 1_554 S
C79 C78 1.391 . S
C29 C9 1.488 1_655 S
C35 C1 1.488 1_455 S
C49 C19 1.431 . S
C55 C8 1.431 . S
C69 C6 1.468 . S
C75 C16 1.468 . S
