# Generated by pormake.
# Topology hex, (8)-cn, num edge types: 1
# Building blocks:
#     Node 0, Type 0, BuildingBlock: TAGTUT_clean_sbu_3, # of connection points: 8
#     Edge 1, Type (0, 0), None
#     Edge 2, Type (0, 0), None
#     Edge 3, Type (0, 0), None
#     Edge 4, Type (0, 0), None
# Relax obj value: 0.118
# Max RMSD: 0.234
# Mean RMSD: 0.234
data_MOF--net-hex--node1-TAGTUT_clean_sbu_3--edge1-none
_symmetry_space_group_name_H-M    P1
_symmetry_Int_Tables_number       1
_symmetry_cell_setting            triclinic
loop_
_symmetry_equiv_pos_as_xyz
'x, y, z'
_cell_length_a     11.681938
_cell_length_b     10.831979
_cell_length_c     7.7652574
_cell_angle_alpha  91.280023
_cell_angle_beta   96.519458
_cell_angle_gamma 144.11533
loop_
_atom_site_label
_atom_site_type_symbol
_atom_site_fract_x
_atom_site_fract_y
_atom_site_fract_z
_atom_type_partial_charge
C0 C 0.93146 0.99878 0.56652 0.0
C1 C 0.37445 0.03123 0.79308 0.0
C2 C 0.06864 0.66159 0.0242 0.0
Mg3 Mg 0.68613 0.9758 0.7524 0.0
Mg4 Mg 0.81381 0.18038 0.16211 0.0
O5 O 0.75255 0.99225 0.00577 0.0
Mg6 Mg 0.94806 1.02253 -0.01178 0.0
O7 O 0.10811 1.00807 -0.04029 0.0
Mg8 Mg 0.91786 0.73967 0.77809 0.0
Mg9 Mg 0.34764 0.14695 0.08287 0.0
C10 C 0.91864 0.04393 0.41334 0.0
O11 O 0.24782 0.3947 0.02623 0.0
O12 O 0.4353 0.8817 0.77683 0.0
O13 O 0.45428 0.42868 0.15004 0.0
O14 O 0.91391 0.35344 0.84784 0.0
O15 O 0.60771 0.14151 0.00717 0.0
O16 O 0.08762 0.4779 0.12409 0.0
O17 O 0.68318 0.66077 0.90644 0.0
O18 O 0.47204 0.61704 0.76549 0.0
C19 C 0.51256 0.56524 0.87923 0.0
C20 C 0.47537 1.01865 0.8595 0.0
O21 O 0.95723 1.01173 0.28429 0.0
O22 O 0.1888 0.85817 0.71207 0.0
O23 O 0.86392 0.11023 0.39847 0.0
O24 O 0.9145 0.59332 -0.02806 0.0
O25 O 0.44323 0.19481 0.85677 0.0
O26 O 0.23625 0.85592 0.10916 0.0
O27 O 0.92107 0.04852 0.7073 0.0
O28 O 0.94493 0.89427 0.56737 0.0
C29 C 0.04439 0.50574 -0.01133 0.0
C30 C 0.40892 0.47301 0.03268 0.0
loop_
_geom_bond_atom_site_label_1
_geom_bond_atom_site_label_2
_geom_bond_distance
_geom_bond_site_symmetry_2
_ccdc_geom_bond_type
C0 O27 1.309 1_565 S
C0 O28 1.208 . S
C1 O22 1.331 . S
C1 O25 1.244 1_565 S
C2 O24 1.264 1_454 S
C2 O26 1.273 . S
Mg3 O5 1.936 1_566 S
Mg3 O12 2.081 . S
Mg3 O14 2.023 1_565 S
Mg3 O18 2.031 . S
Mg3 O27 2.294 1_565 S
Mg4 O5 1.963 . S
Mg4 O15 1.942 . S
Mg4 O16 1.955 1_655 S
Mg4 O23 1.986 1_655 S
O5 Mg3 1.936 1_544 S
O5 Mg4 1.963 . S
O5 Mg6 1.915 1_655 S
Mg6 O5 1.915 1_455 S
Mg6 O7 1.915 1_544 S
Mg6 O11 2.013 . S
Mg6 O17 2.114 1_444 S
Mg6 O21 2.013 1_545 S
Mg6 O27 2.112 1_454 S
O7 Mg6 1.915 1_566 S
O7 Mg8 1.936 1_455 S
O7 Mg9 1.963 1_566 S
Mg8 O7 1.936 1_655 S
Mg8 O17 2.291 . S
Mg8 O22 2.081 1_655 S
Mg8 O24 2.023 . S
Mg8 O28 2.031 . S
Mg9 O7 1.963 1_544 S
Mg9 O13 1.986 . S
Mg9 O25 1.942 1_554 S
Mg9 O26 1.955 1_545 S
C10 O21 1.191 1_545 S
C10 O23 1.307 . S
O11 Mg6 2.013 . S
O11 C30 1.191 . S
O12 Mg3 2.081 . S
O12 C20 1.331 1_566 S
O13 Mg9 1.986 . S
O13 C30 1.307 . S
O14 Mg3 2.023 1_545 S
O14 C29 1.264 . S
O15 Mg4 1.942 . S
O15 C20 1.244 . S
O16 Mg4 1.955 1_455 S
O16 C29 1.273 1_454 S
O17 Mg6 2.114 1_666 S
O17 Mg8 2.291 . S
O17 C19 1.312 . S
O18 Mg3 2.031 . S
O18 C19 1.208 . S
C19 O17 1.312 . S
C19 O18 1.208 . S
C20 O12 1.331 1_544 S
C20 O15 1.244 . S
O21 Mg6 2.013 1_565 S
O21 C10 1.191 1_565 S
O22 C1 1.331 . S
O22 Mg8 2.081 1_455 S
O23 Mg4 1.986 1_455 S
O23 C10 1.307 . S
O24 C2 1.264 1_656 S
O24 Mg8 2.023 . S
O25 C1 1.244 1_545 S
O25 Mg9 1.942 1_556 S
O26 C2 1.273 . S
O26 Mg9 1.955 1_565 S
O27 C0 1.309 1_545 S
O27 Mg3 2.294 1_545 S
O27 Mg6 2.112 1_656 S
O28 C0 1.208 . S
O28 Mg8 2.031 . S
C29 O14 1.264 . S
C29 O16 1.273 1_656 S
C30 O11 1.191 . S
C30 O13 1.307 . S
C29 C2 2.203 1_656 S
C20 C1 2.295 1_544 S
C30 C19 2.858 1_554 S
C0 C10 1.661 1_665 S
