# Generated by pormake.
# Topology unc, (4)-cn, num edge types: 1
# Building blocks:
#     Node 0, Type 0, BuildingBlock: AZAVOO_clean_sbu_0, # of connection points: 4
#     Node 1, Type 0, BuildingBlock: AZAVOO_clean_sbu_0, # of connection points: 4
#     Node 2, Type 0, BuildingBlock: AZAVOO_clean_sbu_0, # of connection points: 4
#     Node 3, Type 0, BuildingBlock: AZAVOO_clean_sbu_0, # of connection points: 4
#     Edge 4, Type (0, 0), BuildingBlock: EYOCIG_clean_linker_4, # of connection points: 2
#     Edge 5, Type (0, 0), BuildingBlock: EYOCIG_clean_linker_4, # of connection points: 2
#     Edge 6, Type (0, 0), BuildingBlock: EYOCIG_clean_linker_4, # of connection points: 2
#     Edge 7, Type (0, 0), BuildingBlock: EYOCIG_clean_linker_4, # of connection points: 2
#     Edge 8, Type (0, 0), BuildingBlock: EYOCIG_clean_linker_4, # of connection points: 2
#     Edge 9, Type (0, 0), BuildingBlock: EYOCIG_clean_linker_4, # of connection points: 2
#     Edge 10, Type (0, 0), BuildingBlock: EYOCIG_clean_linker_4, # of connection points: 2
#     Edge 11, Type (0, 0), BuildingBlock: EYOCIG_clean_linker_4, # of connection points: 2
# Relax obj value: 0.168
# Max RMSD: 0.209
# Mean RMSD: 0.209
data_MOF--net-unc--node1-AZAVOO_clean_sbu_0--edge1-EYOCIG_clean_linker_4
_symmetry_space_group_name_H-M    P1
_symmetry_Int_Tables_number       1
_symmetry_cell_setting            triclinic
loop_
_symmetry_equiv_pos_as_xyz
'x, y, z'
_cell_length_a     21.495577
_cell_length_b     21.499833
_cell_length_c     20.784673
_cell_angle_alpha  90.057415
_cell_angle_beta   89.959133
_cell_angle_gamma 103.93267
loop_
_atom_site_label
_atom_site_type_symbol
_atom_site_fract_x
_atom_site_fract_y
_atom_site_fract_z
_atom_type_partial_charge
Mg0 Mg 1.02661 0.68601 -0.05499 0.0
O1 O 0.12019 0.75394 -0.01906 0.0
O2 O 0.18279 0.69264 0.01879 0.0
Mg3 Mg 0.13003 0.58705 0.00798 0.0
C4 C 0.172 0.74728 0.00694 0.0
C5 C 0.93939 0.76718 0.89016 0.0
O6 O 0.89829 0.72144 -0.07973 0.0
O7 O 0.07691 0.65918 0.85645 0.0
O8 O 0.13397 0.59384 0.89723 0.0
O9 O 0.98452 0.68518 0.04356 0.0
O10 O 1.03871 0.61596 0.00952 0.0
C11 C 0.11405 0.62142 0.84983 0.0
C12 C 1.01018 0.6378 0.05555 0.0
O13 O 0.99866 0.76808 0.89137 0.0
Mg14 Mg 0.47415 0.133 0.16676 0.0
O15 O 0.4061 0.03949 0.1308 0.0
O16 O 0.46731 0.9768 0.09272 0.0
Mg17 Mg 0.57295 1.02944 0.10342 0.0
C18 C 0.41269 0.98766 0.10469 0.0
C19 C 0.39251 0.22019 0.2211 0.0
O20 O 0.43771 0.26114 0.19016 0.0
O21 O 0.50093 0.08266 0.25519 0.0
O22 O 0.56619 1.02552 0.21418 0.0
O23 O 0.47501 0.17508 0.06829 0.0
O24 O 0.54416 0.12081 0.1021 0.0
C25 C 0.53864 0.04547 0.26167 0.0
C26 C 0.52235 0.14937 0.05616 0.0
O27 O 0.39213 0.16104 0.22061 0.0
Mg28 Mg 0.13949 0.46759 0.44468 0.0
O29 O 0.04597 0.39955 0.48061 0.0
O30 O 0.98327 0.46075 0.5187 0.0
Mg31 Mg 1.0359 0.56637 0.50803 0.0
C32 C 0.99414 0.40614 0.50672 0.0
C33 C 0.2267 0.38601 0.39026 0.0
O34 O 0.26768 0.43126 0.42115 0.0
O35 O 0.08912 0.49437 0.35625 0.0
O36 O 1.03198 0.55961 0.39727 0.0
O37 O 0.18158 0.46846 0.54316 0.0
O38 O 0.12729 0.5376 0.50936 0.0
C39 C 0.05193 0.53207 0.34977 0.0
C40 C 0.15586 0.51579 0.5553 0.0
O41 O 0.16753 0.38559 0.39081 0.0
Mg42 Mg 0.69259 1.02014 0.66646 0.0
O43 O 0.76051 0.1137 0.63053 0.0
O44 O 0.69916 0.17626 0.59269 0.0
Mg45 Mg 0.59356 0.1235 0.6035 0.0
C46 C 0.75382 0.16549 0.60453 0.0
C47 C 0.77361 0.93293 0.72154 0.0
O48 O 0.72767 0.8918 0.69169 0.0
O49 O 0.66578 0.07045 0.75503 0.0
O50 O 0.60039 0.12747 0.71425 0.0
O51 O 0.69173 0.97804 0.5679 0.0
O52 O 0.6225 1.03221 0.60195 0.0
C53 C 0.628 0.10757 0.76165 0.0
C54 C 0.64435 1.00369 0.55591 0.0
O55 O 0.77469 0.99222 0.72009 0.0
C56 C 1.01523 0.59073 0.17202 0.0
C57 C 1.0119 0.61347 0.11955 0.0
C58 C 1.02446 0.56632 0.23333 0.0
C59 C 1.03749 0.55011 0.28612 0.0
C60 C 0.57287 1.01799 0.37812 0.0
C61 C 0.55667 1.03102 0.32533 0.0
C62 C 0.59728 1.00875 0.43943 0.0
C63 C 0.62002 1.00541 0.49191 0.0
C64 C 0.14152 0.58721 0.73326 0.0
C65 C 0.12849 0.60341 0.78611 0.0
C66 C 0.15077 0.56281 0.67188 0.0
C67 C 0.15412 0.5401 0.61935 0.0
C68 C 0.56939 0.14429 -0.06041 0.0
C69 C 0.54667 0.14763 -0.00788 0.0
C70 C 0.59379 0.13504 0.87822 0.0
C71 C 0.60999 0.12201 0.82537 0.0
C72 C 0.31152 0.89876 0.06702 0.0
C73 C 0.35648 0.94044 0.08492 0.0
C74 C 0.26103 0.84834 0.04464 0.0
C75 C 0.21929 0.80344 0.02673 0.0
C76 C 0.31097 0.26863 0.28819 0.0
C77 C 0.3466 0.24346 0.25857 0.0
C78 C 0.27513 0.30447 0.32318 0.0
C79 C 0.24996 0.3401 0.3528 0.0
C80 C 0.85486 0.2545 0.5668 0.0
C81 C 0.80997 0.21277 0.58472 0.0
C82 C 0.90526 0.30498 0.5444 0.0
C83 C 0.94694 0.34993 0.5265 0.0
C84 C 0.85526 0.88461 0.78838 0.0
C85 C 0.81964 0.90977 0.75883 0.0
C86 C 0.89107 0.84879 0.8233 0.0
C87 C 0.91622 0.81317 0.85286 0.0
loop_
_geom_bond_atom_site_label_1
_geom_bond_atom_site_label_2
_geom_bond_distance
_geom_bond_site_symmetry_2
_ccdc_geom_bond_type
Mg0 O1 2.028 . S
Mg0 O7 1.986 1_554 S
Mg0 O9 2.114 1_455 S
Mg0 O10 2.251 . S
Mg0 O13 2.010 1_454 S
O1 Mg0 2.028 . S
O1 C4 1.250 . S
O2 Mg3 2.028 . S
O2 C4 1.248 . S
Mg3 O2 2.028 . S
Mg3 O8 2.032 1_554 S
Mg3 O10 2.079 . S
C4 O1 1.250 . S
C4 O2 1.248 . S
C5 O6 1.264 . S
C5 O13 1.249 . S
O6 C5 1.264 . S
O7 Mg0 1.986 1_556 S
O7 C11 1.246 . S
O8 Mg3 2.032 1_556 S
O8 C11 1.259 . S
O9 Mg0 2.114 1_655 S
O9 C12 1.252 1_655 S
O10 Mg0 2.251 . S
O10 Mg3 2.079 . S
O10 C12 1.273 . S
C11 O7 1.246 . S
C11 O8 1.259 . S
C12 O9 1.252 1_455 S
C12 O10 1.273 . S
O13 Mg0 2.010 1_656 S
O13 C5 1.249 . S
Mg14 O15 2.028 . S
Mg14 O21 1.986 . S
Mg14 O23 2.114 . S
Mg14 O24 2.251 . S
Mg14 O27 2.010 . S
O15 Mg14 2.028 . S
O15 C18 1.250 1_545 S
O16 Mg17 2.028 . S
O16 C18 1.248 . S
Mg17 O16 2.028 . S
Mg17 O22 2.032 . S
Mg17 O24 2.079 1_565 S
C18 O15 1.250 1_565 S
C18 O16 1.248 . S
C19 O20 1.264 . S
C19 O27 1.249 . S
O20 C19 1.264 . S
O21 Mg14 1.986 . S
O21 C25 1.246 . S
O22 Mg17 2.032 . S
O22 C25 1.259 1_565 S
O23 Mg14 2.114 . S
O23 C26 1.252 . S
O24 Mg14 2.251 . S
O24 Mg17 2.079 1_545 S
O24 C26 1.273 . S
C25 O21 1.246 . S
C25 O22 1.259 1_545 S
C26 O23 1.252 . S
C26 O24 1.273 . S
O27 Mg14 2.010 . S
O27 C19 1.249 . S
Mg28 O29 2.028 . S
Mg28 O35 1.986 . S
Mg28 O37 2.114 . S
Mg28 O38 2.251 . S
Mg28 O41 2.010 . S
O29 Mg28 2.028 . S
O29 C32 1.250 1_455 S
O30 Mg31 2.028 . S
O30 C32 1.248 . S
Mg31 O30 2.028 . S
Mg31 O36 2.032 . S
Mg31 O38 2.079 1_655 S
C32 O29 1.250 1_655 S
C32 O30 1.248 . S
C33 O34 1.264 . S
C33 O41 1.249 . S
O34 C33 1.264 . S
O35 Mg28 1.986 . S
O35 C39 1.246 . S
O36 Mg31 2.032 . S
O36 C39 1.259 1_655 S
O37 Mg28 2.114 . S
O37 C40 1.252 . S
O38 Mg28 2.251 . S
O38 Mg31 2.079 1_455 S
O38 C40 1.273 . S
C39 O35 1.246 . S
C39 O36 1.259 1_455 S
C40 O37 1.252 . S
C40 O38 1.273 . S
O41 Mg28 2.010 . S
O41 C33 1.249 . S
Mg42 O43 2.028 . S
Mg42 O49 1.986 . S
Mg42 O51 2.114 1_545 S
Mg42 O52 2.251 . S
Mg42 O55 2.010 1_545 S
O43 Mg42 2.028 . S
O43 C46 1.250 . S
O44 Mg45 2.028 . S
O44 C46 1.248 . S
Mg45 O44 2.028 . S
Mg45 O50 2.032 . S
Mg45 O52 2.079 . S
C46 O43 1.250 . S
C46 O44 1.248 . S
C47 O48 1.264 . S
C47 O55 1.249 . S
O48 C47 1.264 . S
O49 Mg42 1.986 . S
O49 C53 1.246 . S
O50 Mg45 2.032 . S
O50 C53 1.259 . S
O51 Mg42 2.114 1_565 S
O51 C54 1.252 1_565 S
O52 Mg42 2.251 . S
O52 Mg45 2.079 . S
O52 C54 1.273 . S
C53 O49 1.246 . S
C53 O50 1.259 . S
C54 O51 1.252 1_545 S
C54 O52 1.273 . S
O55 Mg42 2.010 1_565 S
O55 C47 1.249 . S
C56 C57 1.170 . S
C56 C58 1.380 . S
C57 C56 1.170 . S
C58 C56 1.380 . S
C58 C59 1.170 . S
C59 C58 1.170 . S
C60 C61 1.170 . S
C60 C62 1.380 . S
C61 C60 1.170 . S
C62 C60 1.380 . S
C62 C63 1.170 . S
C63 C62 1.170 . S
C64 C65 1.170 . S
C64 C66 1.380 . S
C65 C64 1.170 . S
C66 C64 1.380 . S
C66 C67 1.170 . S
C67 C66 1.170 . S
C68 C69 1.170 . S
C68 C70 1.380 1_554 S
C69 C68 1.170 . S
C70 C68 1.380 1_556 S
C70 C71 1.170 . S
C71 C70 1.170 . S
C72 C73 1.170 . S
C72 C74 1.380 . S
C73 C72 1.170 . S
C74 C72 1.380 . S
C74 C75 1.170 . S
C75 C74 1.170 . S
C76 C77 1.170 . S
C76 C78 1.380 . S
C77 C76 1.170 . S
C78 C76 1.380 . S
C78 C79 1.170 . S
C79 C78 1.170 . S
C80 C81 1.170 . S
C80 C82 1.380 . S
C81 C80 1.170 . S
C82 C80 1.380 . S
C82 C83 1.170 . S
C83 C82 1.170 . S
C84 C85 1.170 . S
C84 C86 1.380 . S
C85 C84 1.170 . S
C86 C84 1.380 . S
C86 C87 1.170 . S
C87 C86 1.170 . S
C57 C12 1.161 . S
C59 C39 1.159 . S
C61 C25 1.132 . S
C63 C54 1.178 . S
C65 C11 1.171 . S
C67 C40 1.153 . S
C69 C26 1.160 . S
C71 C53 1.160 . S
C73 C18 1.493 . S
C75 C4 1.497 . S
C77 C19 1.343 . S
C79 C33 1.298 . S
C81 C46 1.499 . S
C83 C32 1.491 . S
C85 C47 1.365 . S
C87 C5 1.355 . S
