# Generated by pormake.
# Topology qtz, (4)-cn, num edge types: 1
# Building blocks:
#     Node 0, Type 0, BuildingBlock: TATPOV_clean_sbu_0, # of connection points: 4
#     Node 1, Type 0, BuildingBlock: TATPOV_clean_sbu_0, # of connection points: 4
#     Node 2, Type 0, BuildingBlock: TATPOV_clean_sbu_0, # of connection points: 4
#     Edge 3, Type (0, 0), BuildingBlock: EYOCIG_clean_linker_4, # of connection points: 2
#     Edge 4, Type (0, 0), BuildingBlock: EYOCIG_clean_linker_4, # of connection points: 2
#     Edge 5, Type (0, 0), BuildingBlock: EYOCIG_clean_linker_4, # of connection points: 2
#     Edge 6, Type (0, 0), BuildingBlock: EYOCIG_clean_linker_4, # of connection points: 2
#     Edge 7, Type (0, 0), BuildingBlock: EYOCIG_clean_linker_4, # of connection points: 2
#     Edge 8, Type (0, 0), BuildingBlock: EYOCIG_clean_linker_4, # of connection points: 2
# Relax obj value: 0.095
# Max RMSD: 0.171
# Mean RMSD: 0.154
data_MOF--net-qtz--node1-TATPOV_clean_sbu_0--edge1-EYOCIG_clean_linker_4
_symmetry_space_group_name_H-M    P1
_symmetry_Int_Tables_number       1
_symmetry_cell_setting            triclinic
loop_
_symmetry_equiv_pos_as_xyz
'x, y, z'
_cell_length_a     19.449739
_cell_length_b     19.464919
_cell_length_c     22.090554
_cell_angle_alpha  94.393454
_cell_angle_beta   91.952718
_cell_angle_gamma 119.86824
loop_
_atom_site_label
_atom_site_type_symbol
_atom_site_fract_x
_atom_site_fract_y
_atom_site_fract_z
_atom_type_partial_charge
Zn0 Zn 0.08175 0.41937 0.21139 0.0
Zn1 Zn -0.02334 0.44212 0.14516 0.0
O2 O 0.04133 0.42272 0.08012 0.0
O3 O 0.12521 0.40133 0.1341 0.0
O4 O 0.89296 0.4522 0.09638 0.0
O5 O -0.00664 0.32968 0.2496 0.0
O6 O 0.90871 0.35086 0.19661 0.0
C7 C 0.0982 0.40795 0.08338 0.0
C8 C 0.09995 0.57606 0.23664 0.0
O9 O 0.04174 0.55089 0.19653 0.0
O10 O 0.12727 0.53199 0.25076 0.0
C11 C 0.90964 0.51525 0.07225 0.0
O12 O -0.01686 0.5749 0.07702 0.0
C13 C 0.92303 0.31361 0.23551 0.0
Zn14 Zn 0.54255 0.88547 0.41927 0.0
Zn15 Zn 0.51607 -0.00738 0.48451 0.0
O16 O 0.53626 0.93302 0.54998 0.0
O17 O 0.55974 0.84676 0.49757 0.0
O18 O 0.50019 0.07383 0.53431 0.0
O19 O 0.63244 -0.02531 0.38134 0.0
O20 O 0.60885 0.06096 0.43373 0.0
C21 C 0.55217 0.87692 0.54788 0.0
C22 C 0.38594 0.86472 0.39323 0.0
O23 O 0.40953 0.92456 0.43288 0.0
O24 O 0.43075 0.837 0.37975 0.0
C25 C 0.44174 0.05204 0.56687 0.0
O26 O 0.39125 -0.02401 0.56864 0.0
C27 C 0.64756 0.04537 0.39501 0.0
Zn28 Zn 0.6203 0.5333 0.75616 0.0
Zn29 Zn 0.49184 0.49884 0.81782 0.0
O30 O 0.57735 0.51584 0.88515 0.0
O31 O 0.68333 0.54708 0.83459 0.0
O32 O 0.39703 0.48136 0.86375 0.0
O33 O 0.61901 0.62576 0.72277 0.0
O34 O 0.51275 0.59599 0.77235 0.0
C35 C 0.64998 0.53418 0.88387 0.0
C36 C 0.48805 0.37413 0.72281 0.0
O37 O 0.45299 0.39369 0.76243 0.0
O38 O 0.55818 0.42298 0.71126 0.0
C39 C 0.35654 0.42 0.89091 0.0
O40 O 0.37573 0.36421 0.89047 0.0
C41 C 0.56422 0.63919 0.73728 0.0
C42 C 0.23798 0.40807 0.95317 0.0
C43 C 0.29211 0.41364 0.92472 0.0
C44 C 0.18013 0.40492 -0.00829 0.0
C45 C 0.13878 0.40695 0.03049 0.0
C46 C 0.81008 0.21004 0.29716 0.0
C47 C 0.85998 0.25762 0.26804 0.0
C48 C 0.75384 0.15568 0.33334 0.0
C49 C 0.70494 0.10725 0.36257 0.0
C50 C 0.55782 0.80514 0.64272 0.0
C51 C 0.5545 0.84166 0.60211 0.0
C52 C 0.55776 0.75184 0.68265 0.0
C53 C 0.55703 0.69976 0.70936 0.0
C54 C 0.73908 0.53173 0.97493 0.0
C55 C 0.69328 0.53164 0.93671 0.0
C56 C 0.79689 0.52708 0.01205 0.0
C57 C 0.84807 0.52128 0.0396 0.0
C58 C 0.24541 0.78186 0.33338 0.0
C59 C 0.30696 0.8254 0.36379 0.0
C60 C 0.18197 0.71833 0.29605 0.0
C61 C 0.13848 0.65616 0.26558 0.0
C62 C 0.43425 0.23171 0.66491 0.0
C63 C 0.45184 0.29411 0.6938 0.0
C64 C 0.4283 0.16411 0.63117 0.0
C65 C 0.43205 0.11094 0.6026 0.0
loop_
_geom_bond_atom_site_label_1
_geom_bond_atom_site_label_2
_geom_bond_distance
_geom_bond_site_symmetry_2
_ccdc_geom_bond_type
Zn0 O3 2.031 . S
Zn0 O5 2.056 . S
Zn0 O10 2.067 . S
Zn1 O2 1.962 1_655 S
Zn1 O4 1.986 . S
Zn1 O6 1.996 . S
Zn1 O9 1.943 1_655 S
O2 Zn1 1.962 1_455 S
O2 C7 1.254 . S
O3 Zn0 2.031 . S
O3 C7 1.269 . S
O4 Zn1 1.986 . S
O4 C11 1.262 . S
O5 Zn0 2.056 . S
O5 C13 1.252 1_455 S
O6 Zn1 1.996 . S
O6 C13 1.257 . S
C7 O2 1.254 . S
C7 O3 1.269 . S
C8 O9 1.249 . S
C8 O10 1.270 . S
O9 Zn1 1.943 1_455 S
O9 C8 1.249 . S
O10 Zn0 2.067 . S
O10 C8 1.270 . S
C11 O4 1.262 . S
C11 O12 1.232 . S
O12 C11 1.232 . S
C13 O5 1.252 1_655 S
C13 O6 1.257 . S
Zn14 O17 2.031 . S
Zn14 O19 2.049 1_565 S
Zn14 O24 2.067 . S
Zn15 O16 1.962 1_545 S
Zn15 O18 1.986 . S
Zn15 O20 1.996 . S
Zn15 O23 1.943 1_545 S
O16 Zn15 1.962 1_565 S
O16 C21 1.254 . S
O17 Zn14 2.031 . S
O17 C21 1.269 . S
O18 Zn15 1.986 . S
O18 C25 1.262 . S
O19 Zn14 2.049 1_545 S
O19 C27 1.260 . S
O20 Zn15 1.996 . S
O20 C27 1.257 . S
C21 O16 1.254 . S
C21 O17 1.269 . S
C22 O23 1.249 . S
C22 O24 1.270 . S
O23 Zn15 1.943 1_565 S
O23 C22 1.249 . S
O24 Zn14 2.067 . S
O24 C22 1.270 . S
C25 O18 1.262 . S
C25 O26 1.232 . S
O26 C25 1.232 . S
C27 O19 1.260 . S
C27 O20 1.257 . S
Zn28 O31 2.031 . S
Zn28 O33 2.049 . S
Zn28 O38 2.067 . S
Zn29 O30 1.962 . S
Zn29 O32 1.986 . S
Zn29 O34 1.996 . S
Zn29 O37 1.943 . S
O30 Zn29 1.962 . S
O30 C35 1.254 . S
O31 Zn28 2.031 . S
O31 C35 1.269 . S
O32 Zn29 1.986 . S
O32 C39 1.262 . S
O33 Zn28 2.049 . S
O33 C41 1.260 . S
O34 Zn29 1.996 . S
O34 C41 1.257 . S
C35 O30 1.254 . S
C35 O31 1.269 . S
C36 O37 1.249 . S
C36 O38 1.270 . S
O37 Zn29 1.943 . S
O37 C36 1.249 . S
O38 Zn28 2.067 . S
O38 C36 1.270 . S
C39 O32 1.262 . S
C39 O40 1.232 . S
O40 C39 1.232 . S
C41 O33 1.260 . S
C41 O34 1.257 . S
C42 C43 1.170 . S
C42 C44 1.380 1_556 S
C43 C42 1.170 . S
C44 C42 1.380 1_554 S
C44 C45 1.170 . S
C45 C44 1.170 . S
C46 C47 1.170 . S
C46 C48 1.380 . S
C47 C46 1.170 . S
C48 C46 1.380 . S
C48 C49 1.170 . S
C49 C48 1.170 . S
C50 C51 1.170 . S
C50 C52 1.380 . S
C51 C50 1.170 . S
C52 C50 1.380 . S
C52 C53 1.170 . S
C53 C52 1.170 . S
C54 C55 1.170 . S
C54 C56 1.380 1_556 S
C55 C54 1.170 . S
C56 C54 1.380 1_554 S
C56 C57 1.170 . S
C57 C56 1.170 . S
C58 C59 1.170 . S
C58 C60 1.380 . S
C59 C58 1.170 . S
C60 C58 1.380 . S
C60 C61 1.170 . S
C61 C60 1.170 . S
C62 C63 1.170 . S
C62 C64 1.380 . S
C63 C62 1.170 . S
C64 C62 1.380 . S
C64 C65 1.170 . S
C65 C64 1.170 . S
C43 C39 1.343 . S
C45 C7 1.360 . S
C47 C13 1.312 . S
C49 C27 1.291 . S
C51 C21 1.387 . S
C53 C41 1.305 . S
C55 C35 1.325 . S
C57 C11 1.321 . S
C59 C22 1.415 . S
C61 C8 1.387 . S
C63 C36 1.317 . S
C65 C25 1.345 . S
