# Generated by pormake.
# Topology sxc, (6)-cn, num edge types: 1
# Building blocks:
#     Node 0, Type 0, BuildingBlock: BETDEL_clean_sbu_0, # of connection points: 6
#     Node 1, Type 0, BuildingBlock: BETDEL_clean_sbu_0, # of connection points: 6
#     Node 2, Type 0, BuildingBlock: BETDEL_clean_sbu_0, # of connection points: 6
#     Edge 3, Type (0, 0), BuildingBlock: XIVTED_clean_linker_0, # of connection points: 2
#     Edge 4, Type (0, 0), BuildingBlock: XIVTED_clean_linker_0, # of connection points: 2
#     Edge 5, Type (0, 0), BuildingBlock: XIVTED_clean_linker_0, # of connection points: 2
#     Edge 6, Type (0, 0), BuildingBlock: XIVTED_clean_linker_0, # of connection points: 2
#     Edge 7, Type (0, 0), BuildingBlock: XIVTED_clean_linker_0, # of connection points: 2
#     Edge 8, Type (0, 0), BuildingBlock: XIVTED_clean_linker_0, # of connection points: 2
#     Edge 9, Type (0, 0), BuildingBlock: XIVTED_clean_linker_0, # of connection points: 2
#     Edge 10, Type (0, 0), BuildingBlock: XIVTED_clean_linker_0, # of connection points: 2
#     Edge 11, Type (0, 0), BuildingBlock: XIVTED_clean_linker_0, # of connection points: 2
# Relax obj value: 0.046
# Max RMSD: 0.049
# Mean RMSD: 0.037
data_MOF--net-sxc--node1-BETDEL_clean_sbu_0--edge1-XIVTED_clean_linker_0
_symmetry_space_group_name_H-M    P1
_symmetry_Int_Tables_number       1
_symmetry_cell_setting            triclinic
loop_
_symmetry_equiv_pos_as_xyz
'x, y, z'
_cell_length_a     15.993919
_cell_length_b     15.700639
_cell_length_c     43.690467
_cell_angle_alpha  92.408837
_cell_angle_beta   94.936534
_cell_angle_gamma 114.07127
loop_
_atom_site_label
_atom_site_type_symbol
_atom_site_fract_x
_atom_site_fract_y
_atom_site_fract_z
_atom_type_partial_charge
Dy0 Dy 0.1555 0.03673 0.0201 0.0
C1 C 0.76535 0.81657 0.02566 0.0
C2 C 0.31867 0.15163 1.00136 0.0
Dy3 Dy 0.93999 0.94326 0.02028 0.0
O4 O 0.31008 0.09758 0.02379 0.0
O5 O 0.23767 0.13677 0.98794 0.0
O6 O 0.19543 0.06551 0.07186 0.0
O7 O 0.05883 1.00377 0.05358 0.0
C8 C 0.11092 0.03198 0.07847 0.0
C9 C 1.00177 0.99307 0.96597 0.0
O10 O 0.96389 0.09108 0.03437 0.0
O11 O 0.11007 0.15474 0.01781 0.0
O12 O 0.79322 0.85788 1.00106 0.0
O13 O 0.83189 0.84967 0.04808 0.0
O14 O 0.92756 0.99686 0.97457 0.0
O15 O 1.037 0.95774 0.98602 0.0
O16 O 0.13678 0.88711 0.01502 0.0
O17 O 0.98095 0.82211 0.02259 0.0
C18 C 1.03715 0.1638 0.0273 0.0
C19 C 0.05937 0.81432 0.01912 0.0
Dy20 Dy 0.93974 0.01291 0.35769 0.0
C21 C 0.30187 0.15757 0.32746 0.0
C22 C 0.77509 0.95842 0.3805 0.0
Dy23 Dy 0.13435 0.10304 0.34828 0.0
O24 O 0.78979 0.92184 0.35547 0.0
O25 O 0.85167 0.02464 0.39315 0.0
O26 O 0.90158 0.94537 0.30894 0.0
O27 O 1.01006 0.07801 0.31857 0.0
C28 C 0.96849 1.01191 0.29805 0.0
C29 C 0.10403 0.10248 0.40797 0.0
O30 O 0.09872 0.22225 0.33849 0.0
O31 O 0.9656 0.16642 0.3622 0.0
O32 O 0.28445 0.19482 0.3518 0.0
O33 O 0.22623 0.09132 0.31424 0.0
O34 O 0.16885 0.17091 0.397 0.0
O35 O 0.06429 0.03652 0.38729 0.0
O36 O 0.97481 0.89283 0.36655 0.0
O37 O 0.10857 0.94962 0.34322 0.0
C38 C 1.03182 0.2357 0.35055 0.0
C39 C 0.04196 0.87983 0.35451 0.0
Dy40 Dy 0.05319 0.96152 0.6903 0.0
C41 C 0.26333 0.34115 0.67991 0.0
C42 C 0.92711 0.7866 0.70006 0.0
Dy43 Dy 0.13768 0.16557 0.68915 0.0
O44 O 0.96822 0.809 0.6754 0.0
O45 O 0.96119 0.85834 0.72038 0.0
O46 O 0.09176 0.94263 0.6436 0.0
O47 O 0.0553 0.05459 0.65366 0.0
C48 C 0.08474 0.01638 0.63365 0.0
C49 C 0.10227 0.1109 0.74536 0.0
O50 O 0.99058 0.15147 0.67929 0.0
O51 O 0.93141 0.99977 0.69321 0.0
O52 O 0.22341 0.31738 0.70473 0.0
O53 O 0.22839 0.27042 0.65921 0.0
O54 O 0.0942 0.18347 0.7348 0.0
O55 O 0.13446 0.07286 0.72613 0.0
O56 O 0.20004 0.97513 0.69982 0.0
O57 O 0.2592 0.127 0.68612 0.0
C58 C 0.91955 0.07573 0.68605 0.0
C59 C 0.271 0.05093 0.69314 0.0
H60 H 0.89707 0.21887 0.03726 0.0
H61 H 0.20163 0.75982 0.01344 0.0
H62 H 0.18191 0.32817 0.01944 0.0
H63 H 0.91404 0.6506 0.02791 0.0
H64 H 0.19642 0.60238 0.0168 0.0
H65 H 0.90278 0.37732 0.03572 0.0
C66 C 0.96083 0.27593 0.03322 0.0
C67 C 1.03885 0.25952 0.02838 0.0
C68 C 0.13445 0.61296 0.01922 0.0
C69 C 0.0459 0.44123 0.02644 0.0
C70 C 0.13741 0.70301 0.01725 0.0
C71 C 0.05828 0.7191 0.02032 0.0
C72 C 0.0518 0.53815 0.02436 0.0
C73 C 0.97701 0.64217 0.02532 0.0
C74 C 0.96403 0.36644 0.03223 0.0
C75 C 0.1196 0.33667 0.02316 0.0
N76 N 0.97596 0.55548 0.02719 0.0
N77 N 0.12087 0.42361 0.02228 0.0
H78 H 0.34149 0.03962 0.29013 0.0
H79 H 0.73893 0.07653 0.41901 0.0
H80 H 0.46274 0.26374 0.36263 0.0
H81 H 0.61034 0.84803 0.34826 0.0
H82 H 0.62849 0.13929 0.40167 0.0
H83 H 0.44917 0.97496 0.30882 0.0
C84 C 0.39344 0.0774 0.30922 0.0
C85 C 0.39097 0.15425 0.3259 0.0
C86 C 0.62334 0.07446 0.39027 0.0
C87 C 0.51088 0.07957 0.34792 0.0
C88 C 0.68479 0.0373 0.40068 0.0
C89 C 0.68606 0.96007 0.38384 0.0
C90 C 0.56295 0.03244 0.36337 0.0
C91 C 0.61329 0.91008 0.36099 0.0
C92 C 0.45317 0.03911 0.32039 0.0
C93 C 0.46087 0.20223 0.34986 0.0
N94 N 0.55606 0.94906 0.35058 0.0
N95 N 0.51663 0.1623 0.3609 0.0
H96 H 0.81029 0.75482 0.74457 0.0
H97 H 0.37967 0.37396 0.6352 0.0
H98 H 0.83105 0.64864 0.65422 0.0
H99 H 0.35948 0.47854 0.72586 0.0
H100 H 0.54415 0.47765 0.64102 0.0
H101 H 0.6458 0.65133 0.7387 0.0
C102 C 0.78065 0.70809 0.72379 0.0
C103 C 0.83445 0.71005 0.69989 0.0
C104 C 0.50361 0.47875 0.65952 0.0
C105 C 0.64563 0.59331 0.6926 0.0
C106 C 0.40942 0.4204 0.65603 0.0
C107 C 0.35582 0.41791 0.68004 0.0
C108 C 0.54457 0.53486 0.68727 0.0
C109 C 0.39823 0.47859 0.70672 0.0
C110 C 0.68645 0.64983 0.72028 0.0
C111 C 0.79217 0.64899 0.67328 0.0
N112 N 0.49016 0.53404 0.70971 0.0
N113 N 0.70019 0.59365 0.67025 0.0
H114 H 0.76133 0.92779 0.69754 0.0
H115 H 0.42919 0.19878 0.68157 0.0
H116 H 0.85593 0.21519 0.67571 0.0
H117 H 0.33447 0.91131 0.70333 0.0
H118 H 0.58378 0.20558 0.67948 0.0
H119 H 0.60666 0.92086 0.69955 0.0
C120 C 0.75011 0.98987 0.69307 0.0
C121 C 0.82356 0.07251 0.68638 0.0
C122 C 0.52955 0.14089 0.68475 0.0
C123 C 0.64296 0.06442 0.68882 0.0
C124 C 0.44037 0.13666 0.686 0.0
C125 C 0.36692 0.05405 0.6927 0.0
C126 C 0.54743 0.06199 0.69018 0.0
C127 C 0.38783 0.97665 0.69814 0.0
C128 C 0.66088 0.98556 0.69428 0.0
C129 C 0.80258 0.14983 0.68089 0.0
N130 N 0.47548 0.98255 0.69674 0.0
N131 N 0.7149 0.14387 0.68226 0.0
H132 H 0.62519 0.73487 0.97957 0.0
H133 H 0.47554 0.2273 0.0418 0.0
H134 H 0.73525 0.68542 0.06733 0.0
H135 H 0.34 0.28197 0.96014 0.0
H136 H 0.58228 0.39278 0.04873 0.0
H137 H 0.523 0.56839 0.97108 0.0
C138 C 0.62614 0.68918 0.99738 0.0
C139 C 0.68834 0.72371 0.02421 0.0
C140 C 0.52992 0.36833 0.02907 0.0
C141 C 0.57422 0.53293 0.01424 0.0
C142 C 0.46997 0.27362 0.02483 0.0
C143 C 0.39871 0.24123 1.00044 0.0
C144 C 0.51835 0.43067 1.00873 0.0
C145 C 0.39399 0.30429 0.97929 0.0
C146 C 0.56869 0.59402 0.99237 0.0
C147 C 0.68768 0.6616 0.04642 0.0
N148 N 0.45234 0.39629 0.9841 0.0
N149 N 0.63218 0.56886 0.04079 0.0
H150 H 0.15422 0.38919 0.32658 0.0
H151 H 0.91948 0.726 0.37824 0.0
H152 H 0.91053 0.29789 0.37417 0.0
H153 H 0.16334 0.8179 0.33073 0.0
H154 H 0.91574 0.56953 0.37702 0.0
H155 H 0.158 0.54576 0.32766 0.0
C156 C 0.10116 0.40184 0.33722 0.0
C157 C 1.03181 0.32994 0.35034 0.0
C158 C 0.97017 0.62377 0.36688 0.0
C159 C 1.03626 0.51017 0.3517 0.0
C160 C 0.97257 0.7135 0.36757 0.0
C161 C 0.04195 0.78555 0.35452 0.0
C162 C 1.03758 0.60535 0.35302 0.0
C163 C 0.10865 0.76465 0.34109 0.0
C164 C 0.10359 0.4916 0.33784 0.0
C165 C 0.96518 0.35099 0.36376 0.0
N166 N 0.10473 0.67635 0.34065 0.0
N167 N 0.96916 0.43928 0.36412 0.0
H168 H 0.11154 0.14375 0.27357 0.0
H169 H 0.94016 0.93655 0.09799 0.0
H170 H 0.86668 0.88978 0.24834 0.0
H171 H 0.2215 0.11973 0.1309 0.0
H172 H 0.90186 0.931 0.15148 0.0
H173 H 0.1432 0.14917 0.21978 0.0
C174 C 0.06438 0.0891 0.25666 0.0
C175 C 0.98668 0.01591 0.26541 0.0
C176 C 0.9719 0.97234 0.14689 0.0
C177 C 1.02187 0.02222 0.20368 0.0
C178 C 0.99357 0.97572 0.11642 0.0
C179 C 0.08402 0.02839 0.11008 0.0
C180 C 0.04104 0.02333 0.17098 0.0
C181 C 0.1509 0.07795 0.13479 0.0
C182 C 0.08252 0.09217 0.22597 0.0
C183 C 0.92757 0.94722 0.24252 0.0
N184 N 0.12804 0.07454 0.16407 0.0
N185 N 0.94618 0.95216 0.21262 0.0
H186 H 1.01315 0.9427 0.43531 0.0
H187 H 0.0932 0.17528 0.60695 0.0
H188 H 0.17327 0.23953 0.45598 0.0
H189 H 0.07726 0.89804 0.5854 0.0
H190 H 0.09488 0.20051 0.55156 0.0
H191 H 1.00529 0.92489 0.49047 0.0
C192 C 0.04616 1.00426 0.45147 0.0
C193 C 0.09471 0.09262 0.44115 0.0
C194 C 0.09101 0.13435 0.55914 0.0
C195 C 0.08497 0.07281 0.50424 0.0
C196 C 0.08986 0.11989 0.5906 0.0
C197 C 0.08537 0.03461 0.60072 0.0
C198 C 0.08523 0.06206 0.5378 0.0
C199 C 0.08112 0.96498 0.57864 0.0
C200 C 0.04189 0.99398 0.48292 0.0
C201 C 0.13586 0.17009 0.4631 0.0
N202 N 0.0804 0.97994 0.54827 0.0
N203 N 0.12992 0.15851 0.49371 0.0
H204 H 1.02399 0.18351 0.78494 0.0
H205 H 0.11717 0.93947 0.9338 0.0
H206 H 0.154 0.99144 0.77973 0.0
H207 H 0.9467 0.09281 0.92693 0.0
H208 H 0.14585 0.96566 0.87951 0.0
H209 H 1.00814 0.15807 0.83878 0.0
C210 C 0.04923 0.13559 0.79519 0.0
C211 C 0.09051 0.08966 0.7778 0.0
C212 C 0.1025 0.99364 0.89005 0.0
C213 C 0.07253 0.05978 0.84014 0.0
C214 C 0.08668 0.97929 0.92098 0.0
C215 C 1.02913 0.01372 0.93473 0.0
C216 C 0.06111 0.04348 0.87316 0.0
C217 C 0.99099 0.06448 0.91721 0.0
C218 C 1.04009 0.12097 0.82608 0.0
C219 C 0.12155 0.02807 0.79238 0.0
N220 N 1.00755 0.0776 0.88751 0.0
N221 N 0.11216 0.01498 0.82286 0.0
loop_
_geom_bond_atom_site_label_1
_geom_bond_atom_site_label_2
_geom_bond_distance
_geom_bond_site_symmetry_2
_ccdc_geom_bond_type
Dy0 O4 2.398 . S
Dy0 O5 2.491 1_554 S
Dy0 O6 2.403 . S
Dy0 O7 2.664 1_545 S
Dy0 O11 2.326 . S
Dy0 O15 2.310 1_554 S
Dy0 O16 2.351 1_545 S
C1 O12 1.185 1_554 S
C1 O13 1.355 . S
C2 O4 1.185 . S
C2 O5 1.355 1_554 S
Dy3 O7 2.310 1_655 S
Dy3 O10 2.351 1_565 S
Dy3 O12 2.398 1_554 S
Dy3 O13 2.491 . S
Dy3 O14 2.403 1_554 S
Dy3 O15 2.664 1_664 S
Dy3 O17 2.326 1_554 S
O4 Dy0 2.398 . S
O4 C2 1.185 . S
O5 Dy0 2.491 1_556 S
O5 C2 1.355 1_556 S
O6 Dy0 2.403 . S
O6 C8 1.254 . S
O7 Dy0 2.664 1_565 S
O7 Dy3 2.310 1_455 S
O7 C8 1.268 1_565 S
C8 O6 1.254 . S
C8 O7 1.268 1_545 S
C9 O14 1.254 1_445 S
C9 O15 1.268 . S
O10 Dy3 2.351 1_545 S
O10 C18 1.249 1_655 S
O11 Dy0 2.326 . S
O11 C18 1.267 . S
O12 C1 1.185 1_556 S
O12 Dy3 2.398 1_556 S
O13 C1 1.355 . S
O13 Dy3 2.491 . S
O14 Dy3 2.403 1_556 S
O14 C9 1.254 1_665 S
O15 Dy0 2.310 1_556 S
O15 Dy3 2.664 1_446 S
O15 C9 1.268 . S
O16 Dy0 2.351 1_565 S
O16 C19 1.249 . S
O17 Dy3 2.326 1_556 S
O17 C19 1.267 1_656 S
C18 O10 1.249 1_455 S
C18 O11 1.267 . S
C19 O16 1.249 . S
C19 O17 1.267 1_454 S
Dy20 O24 2.398 . S
Dy20 O25 2.491 1_565 S
Dy20 O26 2.403 . S
Dy20 O27 2.664 1_665 S
Dy20 O31 2.326 1_565 S
Dy20 O35 2.310 1_565 S
Dy20 O36 2.351 . S
C21 O32 1.185 . S
C21 O33 1.355 . S
C22 O24 1.185 1_545 S
C22 O25 1.355 . S
Dy23 O27 2.310 . S
Dy23 O30 2.351 . S
Dy23 O32 2.398 . S
Dy23 O33 2.491 . S
Dy23 O34 2.403 . S
Dy23 O35 2.664 1_455 S
Dy23 O37 2.326 1_545 S
O24 Dy20 2.398 . S
O24 C22 1.185 1_565 S
O25 Dy20 2.491 1_545 S
O25 C22 1.355 . S
O26 Dy20 2.403 . S
O26 C28 1.255 . S
O27 Dy20 2.664 1_445 S
O27 Dy23 2.310 . S
O27 C28 1.268 1_445 S
C28 O26 1.255 . S
C28 O27 1.268 1_665 S
C29 O34 1.254 . S
C29 O35 1.268 1_455 S
O30 Dy23 2.351 . S
O30 C38 1.249 . S
O31 Dy20 2.326 1_545 S
O31 C38 1.267 1_655 S
O32 C21 1.185 . S
O32 Dy23 2.398 . S
O33 C21 1.355 . S
O33 Dy23 2.491 . S
O34 Dy23 2.403 . S
O34 C29 1.254 . S
O35 Dy20 2.310 1_545 S
O35 Dy23 2.664 1_655 S
O35 C29 1.268 1_655 S
O36 Dy20 2.351 . S
O36 C39 1.249 1_655 S
O37 Dy23 2.326 1_565 S
O37 C39 1.267 . S
C38 O30 1.249 . S
C38 O31 1.267 1_455 S
C39 O36 1.249 1_455 S
C39 O37 1.267 . S
Dy40 O44 2.398 . S
Dy40 O45 2.491 . S
Dy40 O46 2.403 . S
Dy40 O47 2.664 1_665 S
Dy40 O51 2.326 . S
Dy40 O55 2.310 1_565 S
Dy40 O56 2.351 1_655 S
C41 O52 1.185 . S
C41 O53 1.355 . S
C42 O44 1.185 . S
C42 O45 1.355 . S
Dy43 O47 2.310 . S
Dy43 O50 2.351 1_455 S
Dy43 O52 2.398 . S
Dy43 O53 2.491 . S
Dy43 O54 2.403 . S
Dy43 O55 2.664 1_455 S
Dy43 O57 2.326 . S
O44 Dy40 2.398 . S
O44 C42 1.185 . S
O45 Dy40 2.491 . S
O45 C42 1.355 . S
O46 Dy40 2.403 . S
O46 C48 1.254 1_665 S
O47 Dy40 2.664 1_445 S
O47 Dy43 2.310 . S
O47 C48 1.268 . S
C48 O46 1.254 1_445 S
C48 O47 1.268 . S
C49 O54 1.254 . S
C49 O55 1.268 1_455 S
O50 Dy43 2.351 1_655 S
O50 C58 1.249 . S
O51 Dy40 2.326 . S
O51 C58 1.267 1_565 S
O52 C41 1.185 . S
O52 Dy43 2.398 . S
O53 C41 1.355 . S
O53 Dy43 2.491 . S
O54 Dy43 2.403 . S
O54 C49 1.254 . S
O55 Dy40 2.310 1_545 S
O55 Dy43 2.664 1_655 S
O55 C49 1.268 1_655 S
O56 Dy40 2.351 1_455 S
O56 C59 1.249 1_565 S
O57 Dy43 2.326 . S
O57 C59 1.267 . S
C58 O50 1.249 . S
C58 O51 1.267 1_545 S
C59 O56 1.249 1_545 S
C59 O57 1.267 . S
H60 C66 0.930 . S
H61 C70 0.930 . S
H62 C75 0.929 . S
H63 C73 0.929 . S
H64 C68 0.929 . S
H65 C74 0.929 . S
C66 H60 0.930 . S
C66 C67 1.367 1_656 S
C66 C74 1.378 . S
C67 C66 1.367 1_454 S
C67 C75 1.433 . S
C68 H64 0.929 . S
C68 C70 1.378 . S
C68 C72 1.350 . S
C69 C72 1.463 . S
C69 C74 1.350 1_454 S
C69 N77 1.427 . S
C70 H61 0.930 . S
C70 C68 1.378 . S
C70 C71 1.367 . S
C71 C70 1.367 . S
C71 C73 1.433 1_454 S
C72 C68 1.350 . S
C72 C69 1.463 . S
C72 N76 1.427 1_454 S
C73 H63 0.929 . S
C73 C71 1.433 1_656 S
C73 N76 1.384 . S
C74 H65 0.929 . S
C74 C66 1.378 . S
C74 C69 1.350 1_656 S
C75 H62 0.929 . S
C75 C67 1.433 . S
C75 N77 1.384 . S
N76 C72 1.427 1_656 S
N76 C73 1.384 . S
N77 C69 1.427 . S
N77 C75 1.384 . S
H78 C84 0.930 1_565 S
H79 C88 0.930 . S
H80 C93 0.929 1_565 S
H81 C91 0.929 . S
H82 C86 0.929 . S
H83 C92 0.929 . S
C84 H78 0.930 1_545 S
C84 C85 1.367 1_545 S
C84 C92 1.378 . S
C85 C84 1.367 1_565 S
C85 C93 1.433 1_565 S
C86 H82 0.929 . S
C86 C88 1.378 . S
C86 C90 1.350 . S
C87 C90 1.463 . S
C87 C92 1.350 . S
C87 N95 1.427 . S
C88 H79 0.930 . S
C88 C86 1.378 . S
C88 C89 1.367 . S
C89 C88 1.367 . S
C89 C91 1.433 . S
C90 C86 1.350 . S
C90 C87 1.463 . S
C90 N94 1.427 . S
C91 H81 0.929 . S
C91 C89 1.433 . S
C91 N94 1.384 . S
C92 H83 0.929 . S
C92 C84 1.378 . S
C92 C87 1.350 . S
C93 H80 0.929 1_545 S
C93 C85 1.433 1_545 S
C93 N95 1.384 . S
N94 C90 1.427 . S
N94 C91 1.384 . S
N95 C87 1.427 . S
N95 C93 1.384 . S
H96 C102 0.930 . S
H97 C106 0.930 . S
H98 C111 0.929 . S
H99 C109 0.929 . S
H100 C104 0.929 . S
H101 C110 0.929 . S
C102 H96 0.930 . S
C102 C103 1.367 . S
C102 C110 1.378 . S
C103 C102 1.367 . S
C103 C111 1.433 . S
C104 H100 0.929 . S
C104 C106 1.378 . S
C104 C108 1.350 . S
C105 C108 1.463 . S
C105 C110 1.350 . S
C105 N113 1.427 . S
C106 H97 0.930 . S
C106 C104 1.378 . S
C106 C107 1.367 . S
C107 C106 1.367 . S
C107 C109 1.433 . S
C108 C104 1.350 . S
C108 C105 1.463 . S
C108 N112 1.427 . S
C109 H99 0.929 . S
C109 C107 1.433 . S
C109 N112 1.384 . S
C110 H101 0.929 . S
C110 C102 1.378 . S
C110 C105 1.350 . S
C111 H98 0.929 . S
C111 C103 1.433 . S
C111 N113 1.384 . S
N112 C108 1.427 . S
N112 C109 1.384 . S
N113 C105 1.427 . S
N113 C111 1.384 . S
H114 C120 0.930 . S
H115 C124 0.930 . S
H116 C129 0.929 . S
H117 C127 0.929 . S
H118 C122 0.929 . S
H119 C128 0.929 . S
C120 H114 0.930 . S
C120 C121 1.367 1_565 S
C120 C128 1.378 . S
C121 C120 1.367 1_545 S
C121 C129 1.433 . S
C122 H118 0.929 . S
C122 C124 1.378 . S
C122 C126 1.350 . S
C123 C126 1.463 . S
C123 C128 1.350 1_545 S
C123 N131 1.427 . S
C124 H115 0.930 . S
C124 C122 1.378 . S
C124 C125 1.367 . S
C125 C124 1.367 . S
C125 C127 1.433 1_545 S
C126 C122 1.350 . S
C126 C123 1.463 . S
C126 N130 1.427 1_545 S
C127 H117 0.929 . S
C127 C125 1.433 1_565 S
C127 N130 1.384 . S
C128 H119 0.929 . S
C128 C120 1.378 . S
C128 C123 1.350 1_565 S
C129 H116 0.929 . S
C129 C121 1.433 . S
C129 N131 1.384 . S
N130 C126 1.427 1_565 S
N130 C127 1.384 . S
N131 C123 1.427 . S
N131 C129 1.384 . S
H132 C138 0.930 . S
H133 C142 0.930 . S
H134 C147 0.929 . S
H135 C145 0.929 . S
H136 C140 0.929 . S
H137 C146 0.929 . S
C138 H132 0.930 . S
C138 C139 1.367 1_556 S
C138 C146 1.378 . S
C139 C138 1.367 1_554 S
C139 C147 1.433 . S
C140 H136 0.929 . S
C140 C142 1.378 . S
C140 C144 1.350 . S
C141 C144 1.463 . S
C141 C146 1.350 1_554 S
C141 N149 1.427 . S
C142 H133 0.930 . S
C142 C140 1.378 . S
C142 C143 1.367 . S
C143 C142 1.367 . S
C143 C145 1.433 1_554 S
C144 C140 1.350 . S
C144 C141 1.463 . S
C144 N148 1.427 1_554 S
C145 H135 0.929 . S
C145 C143 1.433 1_556 S
C145 N148 1.384 . S
C146 H137 0.929 . S
C146 C138 1.378 . S
C146 C141 1.350 1_556 S
C147 H134 0.929 . S
C147 C139 1.433 . S
C147 N149 1.384 . S
N148 C144 1.427 1_556 S
N148 C145 1.384 . S
N149 C141 1.427 . S
N149 C147 1.384 . S
H150 C156 0.930 . S
H151 C160 0.930 . S
H152 C165 0.929 . S
H153 C163 0.929 . S
H154 C158 0.929 . S
H155 C164 0.929 . S
C156 H150 0.930 . S
C156 C157 1.367 . S
C156 C164 1.378 . S
C157 C156 1.367 . S
C157 C165 1.433 . S
C158 H154 0.929 . S
C158 C160 1.378 . S
C158 C162 1.350 . S
C159 C162 1.463 . S
C159 C164 1.350 . S
C159 N167 1.427 . S
C160 H151 0.930 . S
C160 C158 1.378 . S
C160 C161 1.367 . S
C161 C160 1.367 . S
C161 C163 1.433 . S
C162 C158 1.350 . S
C162 C159 1.463 . S
C162 N166 1.427 . S
C163 H153 0.929 . S
C163 C161 1.433 . S
C163 N166 1.384 . S
C164 H155 0.929 . S
C164 C156 1.378 . S
C164 C159 1.350 . S
C165 H152 0.929 . S
C165 C157 1.433 . S
C165 N167 1.384 . S
N166 C162 1.427 . S
N166 C163 1.384 . S
N167 C159 1.427 . S
N167 C165 1.384 . S
H168 C174 0.930 . S
H169 C178 0.930 . S
H170 C183 0.929 . S
H171 C181 0.929 . S
H172 C176 0.929 . S
H173 C182 0.929 . S
C174 H168 0.930 . S
C174 C175 1.367 . S
C174 C182 1.378 . S
C175 C174 1.367 . S
C175 C183 1.433 1_445 S
C176 H172 0.929 . S
C176 C178 1.378 . S
C176 C180 1.350 1_665 S
C177 C180 1.463 . S
C177 C182 1.350 . S
C177 N185 1.427 1_445 S
C178 H169 0.930 . S
C178 C176 1.378 . S
C178 C179 1.367 1_665 S
C179 C178 1.367 1_445 S
C179 C181 1.433 . S
C180 C176 1.350 1_445 S
C180 C177 1.463 . S
C180 N184 1.427 . S
C181 H171 0.929 . S
C181 C179 1.433 . S
C181 N184 1.384 . S
C182 H173 0.929 . S
C182 C174 1.378 . S
C182 C177 1.350 . S
C183 H170 0.929 . S
C183 C175 1.433 1_665 S
C183 N185 1.384 . S
N184 C180 1.427 . S
N184 C181 1.384 . S
N185 C177 1.427 1_665 S
N185 C183 1.384 . S
H186 C192 0.930 . S
H187 C196 0.932 . S
H188 C201 0.929 . S
H189 C199 0.929 . S
H190 C194 0.931 . S
H191 C200 0.929 . S
C192 H186 0.930 . S
C192 C193 1.367 1_565 S
C192 C200 1.378 . S
C193 C192 1.367 1_545 S
C193 C201 1.433 1_455 S
C194 H190 0.931 . S
C194 C196 1.378 . S
C194 C198 1.347 1_655 S
C195 C198 1.463 . S
C195 C200 1.350 1_545 S
C195 N203 1.422 1_455 S
C196 H187 0.932 . S
C196 C194 1.378 . S
C196 C197 1.365 1_655 S
C197 C196 1.365 1_455 S
C197 C199 1.433 1_545 S
C198 C194 1.347 1_455 S
C198 C195 1.463 . S
C198 N202 1.427 1_545 S
C199 H189 0.929 . S
C199 C197 1.433 1_565 S
C199 N202 1.384 . S
C200 H191 0.929 . S
C200 C192 1.378 . S
C200 C195 1.350 1_565 S
C201 H188 0.929 . S
C201 C193 1.433 1_655 S
C201 N203 1.383 . S
N202 C198 1.427 1_565 S
N202 C199 1.384 . S
N203 C195 1.422 1_655 S
N203 C201 1.383 . S
H204 C210 0.930 1_655 S
H205 C214 0.930 . S
H206 C219 0.929 . S
H207 C217 0.929 1_655 S
H208 C212 0.929 . S
H209 C218 0.929 1_655 S
C210 H204 0.930 1_455 S
C210 C211 1.367 . S
C210 C218 1.378 . S
C211 C210 1.367 . S
C211 C219 1.433 1_545 S
C212 H208 0.929 . S
C212 C214 1.378 . S
C212 C216 1.350 1_565 S
C213 C216 1.463 . S
C213 C218 1.350 . S
C213 N221 1.427 1_545 S
C214 H205 0.930 . S
C214 C212 1.378 . S
C214 C215 1.367 1_565 S
C215 C214 1.367 1_545 S
C215 C217 1.433 . S
C216 C212 1.350 1_545 S
C216 C213 1.463 . S
C216 N220 1.427 . S
C217 H207 0.929 1_455 S
C217 C215 1.433 . S
C217 N220 1.384 . S
C218 H209 0.929 1_455 S
C218 C210 1.378 . S
C218 C213 1.350 . S
C219 H206 0.929 . S
C219 C211 1.433 1_565 S
C219 N221 1.384 . S
N220 C216 1.427 . S
N220 C217 1.384 . S
N221 C213 1.427 1_565 S
N221 C219 1.384 . S
C67 C18 1.864 . S
C71 C19 1.864 . S
C85 C21 0.673 1_565 S
C89 C22 0.673 . S
C103 C42 1.172 . S
C107 C41 1.172 . S
C121 C58 2.423 . S
C125 C59 2.423 . S
C139 C1 1.150 . S
C143 C2 1.150 . S
C157 C38 1.863 . S
C161 C39 1.863 . S
C175 C28 1.470 1_445 S
C179 C8 1.470 . S
C193 C29 1.459 . S
C197 C48 1.457 . S
C211 C49 1.462 . S
C215 C9 1.461 . S
