# Generated by pormake.
# Topology tfs, (6)-cn, num edge types: 1
# Building blocks:
#     Node 0, Type 0, BuildingBlock: LEVNOQ01_clean_sbu_1, # of connection points: 6
#     Node 1, Type 0, BuildingBlock: LEVNOQ01_clean_sbu_1, # of connection points: 6
#     Node 2, Type 0, BuildingBlock: LEVNOQ01_clean_sbu_1, # of connection points: 6
#     Node 3, Type 0, BuildingBlock: LEVNOQ01_clean_sbu_1, # of connection points: 6
#     Node 4, Type 0, BuildingBlock: LEVNOQ01_clean_sbu_1, # of connection points: 6
#     Node 5, Type 0, BuildingBlock: LEVNOQ01_clean_sbu_1, # of connection points: 6
#     Edge 6, Type (0, 0), None
#     Edge 7, Type (0, 0), None
#     Edge 8, Type (0, 0), None
#     Edge 9, Type (0, 0), None
#     Edge 10, Type (0, 0), None
#     Edge 11, Type (0, 0), None
#     Edge 12, Type (0, 0), None
#     Edge 13, Type (0, 0), None
#     Edge 14, Type (0, 0), None
#     Edge 15, Type (0, 0), None
#     Edge 16, Type (0, 0), None
#     Edge 17, Type (0, 0), None
#     Edge 18, Type (0, 0), None
#     Edge 19, Type (0, 0), None
#     Edge 20, Type (0, 0), None
#     Edge 21, Type (0, 0), None
#     Edge 22, Type (0, 0), None
#     Edge 23, Type (0, 0), None
# Relax obj value: 0.218
# Max RMSD: 0.176
# Mean RMSD: 0.176
data_MOF--net-tfs--node1-LEVNOQ01_clean_sbu_1--edge1-none
_symmetry_space_group_name_H-M    P1
_symmetry_Int_Tables_number       1
_symmetry_cell_setting            triclinic
loop_
_symmetry_equiv_pos_as_xyz
'x, y, z'
_cell_length_a     19.639709
_cell_length_b     19.642204
_cell_length_c     8.2531793
_cell_angle_alpha  90.003758
_cell_angle_beta   89.974784
_cell_angle_gamma 120.00046
loop_
_atom_site_label
_atom_site_type_symbol
_atom_site_fract_x
_atom_site_fract_y
_atom_site_fract_z
_atom_type_partial_charge
O0 O 0.44273 0.51763 0.07348 0.0
Mg1 Mg 0.38148 0.40731 0.1901 0.0
O2 O 0.35055 0.52831 0.93688 0.0
Mg3 Mg 0.2322 0.40759 -0.0456 0.0
O4 O 0.30044 0.34609 0.01843 0.0
O5 O 0.36745 0.29619 0.12869 0.0
O6 O 0.11764 0.28502 -0.04061 0.0
O7 O 0.24479 0.40127 0.66535 0.0
Mg8 Mg 0.08575 0.39017 0.71825 0.0
O9 O 0.15826 0.46821 0.90214 0.0
O10 O 0.02896 0.26855 0.78675 0.0
O11 O 0.15534 0.41433 0.52043 0.0
O12 O 0.06073 0.47535 0.78014 0.0
C13 C 0.255 0.41216 0.37709 0.0
C14 C 0.42193 0.55611 -0.01701 0.0
C15 C 0.31349 0.28832 0.02971 0.0
C16 C 0.04813 0.27191 0.93308 0.0
C17 C 0.21697 0.40978 0.52942 0.0
C18 C 0.11921 0.50475 0.87954 0.0
O19 O 0.31647 0.40698 0.38534 0.0
O20 O 0.22371 0.41574 0.24174 0.0
O21 O 0.92083 0.44478 0.07347 0.0
Mg22 Mg 0.9699 0.38355 0.19005 0.0
O23 O 0.81798 0.35259 0.93687 0.0
Mg24 Mg 0.82038 0.23426 -0.0457 0.0
O25 O 0.95012 0.30254 0.01831 0.0
O26 O 0.06703 0.36956 0.12858 0.0
O27 O 0.82845 0.11974 -0.04082 0.0
O28 O 0.83928 0.24685 0.66525 0.0
Mg29 Mg 0.69139 0.08779 0.71814 0.0
O30 O 0.68581 0.16027 0.90207 0.0
O31 O 0.75624 0.03101 0.78658 0.0
O32 O 0.73681 0.15736 0.52032 0.0
O33 O 0.58117 0.06272 0.78006 0.0
C34 C 0.83859 0.25706 0.377 0.0
C35 C 0.86156 0.42397 -0.01702 0.0
C36 C 0.02096 0.31562 0.02957 0.0
C37 C 0.77206 0.05022 0.93289 0.0
C38 C 0.80297 0.21902 0.52932 0.0
C39 C 0.61022 0.1212 0.87946 0.0
O40 O 0.90522 0.31854 0.38526 0.0
O41 O 0.80374 0.22576 0.24164 0.0
O42 O 0.47186 0.92285 0.07363 0.0
Mg43 Mg 0.58219 0.97192 0.19007 0.0
O44 O 0.46124 0.82002 0.93695 0.0
Mg45 Mg 0.58198 0.82242 -0.04577 0.0
O46 O 0.64347 0.95216 0.01827 0.0
O47 O 0.69327 0.06908 0.12849 0.0
O48 O 0.70455 0.83045 -0.04106 0.0
O49 O 0.58828 0.84133 0.66521 0.0
Mg50 Mg 0.59958 0.69355 0.7181 0.0
O51 O 0.52136 0.68786 0.90193 0.0
O52 O 0.72119 0.75816 0.78669 0.0
O53 O 0.57555 0.73898 0.52018 0.0
O54 O 0.51442 0.58331 0.77962 0.0
C55 C 0.57745 0.84067 0.37695 0.0
C56 C 0.43341 0.86358 -0.01687 0.0
C57 C 0.70118 0.02302 0.02946 0.0
C58 C 0.7177 0.77404 0.93293 0.0
C59 C 0.57991 0.80507 0.52924 0.0
C60 C 0.4849 0.61229 0.87907 0.0
O61 O 0.58259 0.90729 0.38526 0.0
O62 O 0.57388 0.8058 0.24157 0.0
O63 O 0.54482 0.47389 0.07402 0.0
Mg64 Mg 0.60605 0.58428 0.19032 0.0
O65 O 0.63703 0.4633 0.93713 0.0
Mg66 Mg 0.75535 0.58402 -0.04563 0.0
O67 O 0.68707 0.64547 0.01845 0.0
O68 O 0.61999 0.69536 0.12857 0.0
O69 O 0.8699 0.70657 -0.04093 0.0
O70 O 0.74273 0.59033 0.66536 0.0
Mg71 Mg 0.90185 0.6016 0.7181 0.0
O72 O 0.82928 0.52341 0.90189 0.0
O73 O 0.95888 0.72319 0.78688 0.0
O74 O 0.83238 0.57763 0.52023 0.0
O75 O 0.92686 0.51638 0.77956 0.0
C76 C 0.73259 0.57955 0.37709 0.0
C77 C 0.56565 0.43545 -0.01656 0.0
C78 C 0.67396 0.70321 0.02956 0.0
C79 C 0.93945 0.71968 0.93311 0.0
C80 C 0.77065 0.58199 0.52935 0.0
C81 C 0.86836 0.48692 0.87903 0.0
O82 O 0.67112 0.58474 0.38545 0.0
O83 O 0.76386 0.57593 0.24169 0.0
O84 O 0.06672 0.54678 0.07418 0.0
Mg85 Mg 0.01749 0.60799 0.19048 0.0
O86 O 0.16952 0.639 0.9372 0.0
Mg87 Mg 0.16709 0.75729 -0.04546 0.0
O88 O 0.03735 0.68899 0.01861 0.0
O89 O 0.92036 0.62197 0.1287 0.0
O90 O 0.15905 0.87182 -0.04059 0.0
O91 O 0.14816 0.74468 0.66554 0.0
Mg92 Mg 0.29599 0.90372 0.7183 0.0
O93 O 0.30166 0.83123 0.90212 0.0
O94 O 0.23134 0.96068 0.787 0.0
O95 O 0.25056 0.83424 0.52042 0.0
O96 O 0.40624 0.92881 0.77975 0.0
C97 C 0.14878 0.73452 0.37726 0.0
C98 C 0.12603 0.56765 -0.01635 0.0
C99 C 0.96651 0.67592 0.02972 0.0
C100 C 0.21545 0.94136 0.93328 0.0
C101 C 0.18443 0.77255 0.52953 0.0
C102 C 0.37724 0.87034 0.87923 0.0
O103 O 0.08211 0.67308 0.38561 0.0
O104 O 0.18368 0.76578 0.24186 0.0
O105 O 0.51567 0.06872 0.0741 0.0
Mg106 Mg 0.40522 0.01954 0.19044 0.0
O107 O 0.52622 0.17148 0.93716 0.0
Mg108 Mg 0.40552 0.16911 -0.0453 0.0
O109 O 0.34402 0.03936 0.01871 0.0
O110 O 0.29416 0.9224 0.12876 0.0
O111 O 0.28294 0.16111 -0.04012 0.0
O112 O 0.39917 0.15017 0.66567 0.0
Mg113 Mg 0.38817 0.29805 0.71854 0.0
O114 O 0.46624 0.3037 0.90245 0.0
O115 O 0.26652 0.23338 0.78696 0.0
O116 O 0.4123 0.25268 0.52064 0.0
O117 O 0.47327 0.40827 0.78007 0.0
C118 C 0.41003 0.15081 0.37739 0.0
C119 C 0.5541 0.12801 -0.01643 0.0
C120 C 0.28629 0.9685 0.02983 0.0
C121 C 0.26976 0.21745 0.93326 0.0
C122 C 0.40769 0.18648 0.52969 0.0
C123 C 0.50271 0.37927 0.87956 0.0
O124 O 0.40476 0.08413 0.38568 0.0
O125 O 0.41367 0.18571 0.24202 0.0
loop_
_geom_bond_atom_site_label_1
_geom_bond_atom_site_label_2
_geom_bond_distance
_geom_bond_site_symmetry_2
_ccdc_geom_bond_type
O0 Mg1 1.990 . S
O0 C14 1.253 . S
Mg1 O0 1.990 . S
Mg1 O4 2.180 . S
Mg1 O5 2.117 . S
Mg1 O19 2.030 . S
O2 Mg3 2.072 . S
O2 C14 1.260 . S
Mg3 O2 2.072 . S
Mg3 O4 2.099 . S
Mg3 O6 2.079 . S
Mg3 O7 2.072 1_554 S
Mg3 O9 2.099 1_554 S
Mg3 O20 2.079 . S
O4 Mg1 2.180 . S
O4 Mg3 2.099 . S
O4 C15 1.279 . S
O5 Mg1 2.117 . S
O5 C15 1.250 . S
O6 Mg3 2.079 . S
O6 C16 1.264 1_554 S
O7 Mg3 2.072 1_556 S
O7 C17 1.260 . S
Mg8 O9 2.180 . S
Mg8 O10 2.030 . S
Mg8 O11 1.990 . S
Mg8 O12 2.117 . S
O9 Mg3 2.099 1_556 S
O9 Mg8 2.180 . S
O9 C18 1.279 . S
O10 Mg8 2.030 . S
O10 C16 1.248 . S
O11 Mg8 1.990 . S
O11 C17 1.253 . S
O12 Mg8 2.117 . S
O12 C18 1.250 . S
C13 O19 1.248 . S
C13 O20 1.264 . S
C14 O0 1.253 . S
C14 O2 1.260 . S
C15 O4 1.279 . S
C15 O5 1.250 . S
C16 O6 1.264 1_556 S
C16 O10 1.248 . S
C17 O7 1.260 . S
C17 O11 1.253 . S
C18 O9 1.279 . S
C18 O12 1.250 . S
O19 Mg1 2.030 . S
O19 C13 1.248 . S
O20 Mg3 2.079 . S
O20 C13 1.264 . S
O21 Mg22 1.990 . S
O21 C35 1.253 . S
Mg22 O21 1.990 . S
Mg22 O25 2.180 . S
Mg22 O26 2.117 1_655 S
Mg22 O40 2.030 . S
O23 Mg24 2.072 . S
O23 C35 1.260 . S
Mg24 O23 2.072 . S
Mg24 O25 2.099 . S
Mg24 O27 2.079 . S
Mg24 O28 2.072 1_554 S
Mg24 O30 2.099 1_554 S
Mg24 O41 2.079 . S
O25 Mg22 2.180 . S
O25 Mg24 2.099 . S
O25 C36 1.279 . S
O26 Mg22 2.117 1_455 S
O26 C36 1.250 1_455 S
O27 Mg24 2.079 . S
O27 C37 1.264 1_554 S
O28 Mg24 2.072 1_556 S
O28 C38 1.260 . S
Mg29 O30 2.180 . S
Mg29 O31 2.030 . S
Mg29 O32 1.990 . S
Mg29 O33 2.117 . S
O30 Mg24 2.099 1_556 S
O30 Mg29 2.180 . S
O30 C39 1.279 . S
O31 Mg29 2.030 . S
O31 C37 1.248 . S
O32 Mg29 1.990 . S
O32 C38 1.253 . S
O33 Mg29 2.117 . S
O33 C39 1.250 . S
C34 O40 1.248 . S
C34 O41 1.264 . S
C35 O21 1.253 . S
C35 O23 1.260 . S
C36 O25 1.279 . S
C36 O26 1.250 1_655 S
C37 O27 1.264 1_556 S
C37 O31 1.248 . S
C38 O28 1.260 . S
C38 O32 1.253 . S
C39 O30 1.279 . S
C39 O33 1.250 . S
O40 Mg22 2.030 . S
O40 C34 1.248 . S
O41 Mg24 2.079 . S
O41 C34 1.264 . S
O42 Mg43 1.990 . S
O42 C56 1.253 . S
Mg43 O42 1.990 . S
Mg43 O46 2.180 . S
Mg43 O47 2.117 1_565 S
Mg43 O61 2.030 . S
O44 Mg45 2.072 . S
O44 C56 1.260 . S
Mg45 O44 2.072 . S
Mg45 O46 2.099 . S
Mg45 O48 2.079 . S
Mg45 O49 2.072 1_554 S
Mg45 O51 2.099 1_554 S
Mg45 O62 2.079 . S
O46 Mg43 2.180 . S
O46 Mg45 2.099 . S
O46 C57 1.279 . S
O47 Mg43 2.117 1_545 S
O47 C57 1.250 1_545 S
O48 Mg45 2.079 . S
O48 C58 1.264 1_554 S
O49 Mg45 2.072 1_556 S
O49 C59 1.260 . S
Mg50 O51 2.180 . S
Mg50 O52 2.030 . S
Mg50 O53 1.990 . S
Mg50 O54 2.117 . S
O51 Mg45 2.099 1_556 S
O51 Mg50 2.180 . S
O51 C60 1.279 . S
O52 Mg50 2.030 . S
O52 C58 1.248 . S
O53 Mg50 1.990 . S
O53 C59 1.253 . S
O54 Mg50 2.117 . S
O54 C60 1.250 . S
C55 O61 1.248 . S
C55 O62 1.264 . S
C56 O42 1.253 . S
C56 O44 1.260 . S
C57 O46 1.279 . S
C57 O47 1.250 1_565 S
C58 O48 1.264 1_556 S
C58 O52 1.248 . S
C59 O49 1.260 . S
C59 O53 1.253 . S
C60 O51 1.279 . S
C60 O54 1.250 . S
O61 Mg43 2.030 . S
O61 C55 1.248 . S
O62 Mg45 2.079 . S
O62 C55 1.264 . S
O63 Mg64 1.990 . S
O63 C77 1.253 . S
Mg64 O63 1.990 . S
Mg64 O67 2.180 . S
Mg64 O68 2.117 . S
Mg64 O82 2.030 . S
O65 Mg66 2.072 . S
O65 C77 1.260 . S
Mg66 O65 2.072 . S
Mg66 O67 2.099 . S
Mg66 O69 2.079 . S
Mg66 O70 2.072 1_554 S
Mg66 O72 2.099 1_554 S
Mg66 O83 2.079 . S
O67 Mg64 2.180 . S
O67 Mg66 2.099 . S
O67 C78 1.279 . S
O68 Mg64 2.117 . S
O68 C78 1.250 . S
O69 Mg66 2.079 . S
O69 C79 1.264 1_554 S
O70 Mg66 2.072 1_556 S
O70 C80 1.260 . S
Mg71 O72 2.180 . S
Mg71 O73 2.030 . S
Mg71 O74 1.990 . S
Mg71 O75 2.117 . S
O72 Mg66 2.099 1_556 S
O72 Mg71 2.180 . S
O72 C81 1.279 . S
O73 Mg71 2.030 . S
O73 C79 1.248 . S
O74 Mg71 1.990 . S
O74 C80 1.253 . S
O75 Mg71 2.117 . S
O75 C81 1.250 . S
C76 O82 1.248 . S
C76 O83 1.264 . S
C77 O63 1.253 . S
C77 O65 1.260 . S
C78 O67 1.279 . S
C78 O68 1.250 . S
C79 O69 1.264 1_556 S
C79 O73 1.248 . S
C80 O70 1.260 . S
C80 O74 1.253 . S
C81 O72 1.279 . S
C81 O75 1.250 . S
O82 Mg64 2.030 . S
O82 C76 1.248 . S
O83 Mg66 2.079 . S
O83 C76 1.264 . S
O84 Mg85 1.990 . S
O84 C98 1.253 . S
Mg85 O84 1.990 . S
Mg85 O88 2.180 . S
Mg85 O89 2.117 1_455 S
Mg85 O103 2.030 . S
O86 Mg87 2.072 . S
O86 C98 1.260 . S
Mg87 O86 2.072 . S
Mg87 O88 2.099 . S
Mg87 O90 2.079 . S
Mg87 O91 2.072 1_554 S
Mg87 O93 2.099 1_554 S
Mg87 O104 2.079 . S
O88 Mg85 2.180 . S
O88 Mg87 2.099 . S
O88 C99 1.279 . S
O89 Mg85 2.117 1_655 S
O89 C99 1.250 1_655 S
O90 Mg87 2.079 . S
O90 C100 1.264 1_554 S
O91 Mg87 2.072 1_556 S
O91 C101 1.260 . S
Mg92 O93 2.180 . S
Mg92 O94 2.030 . S
Mg92 O95 1.990 . S
Mg92 O96 2.117 . S
O93 Mg87 2.099 1_556 S
O93 Mg92 2.180 . S
O93 C102 1.279 . S
O94 Mg92 2.030 . S
O94 C100 1.248 . S
O95 Mg92 1.990 . S
O95 C101 1.253 . S
O96 Mg92 2.117 . S
O96 C102 1.250 . S
C97 O103 1.248 . S
C97 O104 1.264 . S
C98 O84 1.253 . S
C98 O86 1.260 . S
C99 O88 1.279 . S
C99 O89 1.250 1_455 S
C100 O90 1.264 1_556 S
C100 O94 1.248 . S
C101 O91 1.260 . S
C101 O95 1.253 . S
C102 O93 1.279 . S
C102 O96 1.250 . S
O103 Mg85 2.030 . S
O103 C97 1.248 . S
O104 Mg87 2.079 . S
O104 C97 1.264 . S
O105 Mg106 1.990 . S
O105 C119 1.253 . S
Mg106 O105 1.990 . S
Mg106 O109 2.180 . S
Mg106 O110 2.117 1_545 S
Mg106 O124 2.030 . S
O107 Mg108 2.072 . S
O107 C119 1.260 . S
Mg108 O107 2.072 . S
Mg108 O109 2.099 . S
Mg108 O111 2.079 . S
Mg108 O112 2.072 1_554 S
Mg108 O114 2.099 1_554 S
Mg108 O125 2.079 . S
O109 Mg106 2.180 . S
O109 Mg108 2.099 . S
O109 C120 1.279 . S
O110 Mg106 2.117 1_565 S
O110 C120 1.250 1_565 S
O111 Mg108 2.079 . S
O111 C121 1.264 1_554 S
O112 Mg108 2.072 1_556 S
O112 C122 1.260 . S
Mg113 O114 2.180 . S
Mg113 O115 2.030 . S
Mg113 O116 1.990 . S
Mg113 O117 2.117 . S
O114 Mg108 2.099 1_556 S
O114 Mg113 2.180 . S
O114 C123 1.279 . S
O115 Mg113 2.030 . S
O115 C121 1.248 . S
O116 Mg113 1.990 . S
O116 C122 1.253 . S
O117 Mg113 2.117 . S
O117 C123 1.250 . S
C118 O124 1.248 . S
C118 O125 1.264 . S
C119 O105 1.253 . S
C119 O107 1.260 . S
C120 O109 1.279 . S
C120 O110 1.250 1_545 S
C121 O111 1.264 1_556 S
C121 O115 1.248 . S
C122 O112 1.260 . S
C122 O116 1.253 . S
C123 O114 1.279 . S
C123 O117 1.250 . S
O124 Mg106 2.030 . S
O124 C118 1.248 . S
O125 Mg108 2.079 . S
O125 C118 1.264 . S
C121 C15 1.005 1_556 S
C16 C36 1.005 1_456 S
C37 C57 1.005 1_546 S
C78 C58 1.005 1_554 S
C99 C79 1.005 1_454 S
C100 C120 1.005 1_566 S
C98 C18 1.539 1_554 S
C119 C39 1.539 1_554 S
C60 C14 1.539 1_556 S
C81 C35 1.539 1_556 S
C102 C56 1.539 1_556 S
C77 C123 1.539 1_554 S
C17 C13 1.620 . S
C38 C34 1.620 . S
C59 C55 1.620 . S
C80 C76 1.620 . S
C97 C101 1.620 . S
C122 C118 1.620 . S
