# Generated by pormake.
# Topology bcg, (8)-cn, num edge types: 1
# Building blocks:
#     Node 0, Type 0, BuildingBlock: NUHRAL_clean_sbu_3, # of connection points: 8
#     Node 1, Type 0, BuildingBlock: NUHRAL_clean_sbu_3, # of connection points: 8
#     Node 2, Type 0, BuildingBlock: NUHRAL_clean_sbu_3, # of connection points: 8
#     Node 3, Type 0, BuildingBlock: NUHRAL_clean_sbu_3, # of connection points: 8
#     Edge 4, Type (0, 0), BuildingBlock: EYOCIG_clean_linker_4, # of connection points: 2
#     Edge 5, Type (0, 0), BuildingBlock: EYOCIG_clean_linker_4, # of connection points: 2
#     Edge 6, Type (0, 0), BuildingBlock: EYOCIG_clean_linker_4, # of connection points: 2
#     Edge 7, Type (0, 0), BuildingBlock: EYOCIG_clean_linker_4, # of connection points: 2
#     Edge 8, Type (0, 0), BuildingBlock: EYOCIG_clean_linker_4, # of connection points: 2
#     Edge 9, Type (0, 0), BuildingBlock: EYOCIG_clean_linker_4, # of connection points: 2
#     Edge 10, Type (0, 0), BuildingBlock: EYOCIG_clean_linker_4, # of connection points: 2
#     Edge 11, Type (0, 0), BuildingBlock: EYOCIG_clean_linker_4, # of connection points: 2
#     Edge 12, Type (0, 0), BuildingBlock: EYOCIG_clean_linker_4, # of connection points: 2
#     Edge 13, Type (0, 0), BuildingBlock: EYOCIG_clean_linker_4, # of connection points: 2
#     Edge 14, Type (0, 0), BuildingBlock: EYOCIG_clean_linker_4, # of connection points: 2
#     Edge 15, Type (0, 0), BuildingBlock: EYOCIG_clean_linker_4, # of connection points: 2
#     Edge 16, Type (0, 0), BuildingBlock: EYOCIG_clean_linker_4, # of connection points: 2
#     Edge 17, Type (0, 0), BuildingBlock: EYOCIG_clean_linker_4, # of connection points: 2
#     Edge 18, Type (0, 0), BuildingBlock: EYOCIG_clean_linker_4, # of connection points: 2
#     Edge 19, Type (0, 0), BuildingBlock: EYOCIG_clean_linker_4, # of connection points: 2
# Relax obj value: 0.188
# Max RMSD: 0.271
# Mean RMSD: 0.271
data_MOF--net-bcg--node1-NUHRAL_clean_sbu_3--edge1-EYOCIG_clean_linker_4
_symmetry_space_group_name_H-M    P1
_symmetry_Int_Tables_number       1
_symmetry_cell_setting            triclinic
loop_
_symmetry_equiv_pos_as_xyz
'x, y, z'
_cell_length_a     18.326214
_cell_length_b     11.778668
_cell_length_c     28.044374
_cell_angle_alpha  79.065917
_cell_angle_beta   90.028393
_cell_angle_gamma 89.705794
loop_
_atom_site_label
_atom_site_type_symbol
_atom_site_fract_x
_atom_site_fract_y
_atom_site_fract_z
_atom_type_partial_charge
C0 C 0.0673 0.34136 0.05503 0.0
C1 C 1.00592 0.30711 0.03113 0.0
C2 C 0.94 0.28295 0.05643 0.0
C3 C 0.93622 0.28752 0.10586 0.0
C4 C 0.99758 0.31822 0.13012 0.0
C5 C 0.06288 0.34554 0.1047 0.0
O6 O 0.22595 0.13947 0.97312 0.0
Tb7 Tb 0.21621 0.32569 0.96487 0.0
O8 O 0.15528 0.33331 0.89763 0.0
O9 O 0.24631 0.05763 0.05206 0.0
Eu10 Eu 0.35541 0.14959 0.0465 0.0
O11 O 0.12995 0.42638 0.98251 0.0
C12 C 0.44124 0.10031 0.97962 0.0
O13 O 0.19164 0.31023 0.03883 0.0
O14 O 0.34357 0.34199 0.03765 0.0
O15 O 0.32168 0.414 0.95785 0.0
C16 C 0.13525 0.37988 0.02893 0.0
C17 C 0.38634 0.11706 0.15924 0.0
O18 O 0.31591 0.09806 0.16259 0.0
C19 C 0.20444 0.07149 0.01312 0.0
C20 C 0.36332 0.40772 0.99671 0.0
O21 O 0.41818 0.13606 0.11665 0.0
C22 C 0.50814 0.14172 0.95268 0.0
C23 C 0.57643 0.16589 0.87698 0.0
C24 C 0.51144 0.13901 0.90284 0.0
C25 C 0.57027 0.17489 0.97619 0.0
C26 C 0.63576 0.19913 0.95039 0.0
C27 C 0.63849 0.19541 0.90087 0.0
C28 C 0.18559 0.36166 0.85469 0.0
O29 O 0.25419 0.39318 0.85084 0.0
O30 O 0.44807 0.05487 0.02597 0.0
O31 O 0.38256 0.16477 0.96976 0.0
H32 H 1.00823 0.30535 0.99264 0.0
H33 H 0.8849 0.27038 0.12514 0.0
H34 H 0.10977 0.37273 0.12324 0.0
H35 H 0.46409 0.11242 0.88458 0.0
H36 H 0.5689 0.17562 0.0148 0.0
H37 H 0.68954 0.21219 0.88123 0.0
C38 C 0.56475 0.85587 0.05565 0.0
C39 C 0.50292 0.81834 0.03372 0.0
C40 C 0.43968 0.78973 0.06105 0.0
C41 C 0.43879 0.79211 0.11062 0.0
C42 C 0.50104 0.82564 0.13304 0.0
C43 C 0.56389 0.85824 0.10557 0.0
O44 O 0.73551 0.65574 0.97944 0.0
Tb45 Tb 0.71083 0.83913 0.9643 0.0
O46 O 0.65308 0.83254 0.89739 0.0
O47 O 0.75163 0.5428 0.05267 0.0
Eu48 Eu 0.85996 0.63545 0.04725 0.0
O49 O 0.62099 0.93482 0.98016 0.0
C50 C 0.94532 0.58179 0.9812 0.0
O51 O 0.68846 0.83488 0.03782 0.0
O52 O 0.83481 0.82547 0.03228 0.0
O53 O 0.8152 0.9288 0.95719 0.0
C54 C 0.62955 0.89786 0.02716 0.0
C55 C 0.8895 0.61344 0.15906 0.0
O56 O 0.82202 0.57624 0.16259 0.0
C57 C 0.70782 0.58335 0.01617 0.0
C58 C 0.85997 0.89556 0.99399 0.0
O59 O 0.92066 0.64107 0.11646 0.0
C60 C 1.00965 0.62628 0.95263 0.0
C61 C 0.07424 0.65684 0.87554 0.0
C62 C 1.0112 0.62361 0.90275 0.0
C63 C 0.07091 0.66517 0.97474 0.0
C64 C 0.13422 0.69504 0.94764 0.0
C65 C 0.13584 0.69201 0.89813 0.0
C66 C 0.68419 0.86457 0.85496 0.0
O67 O 0.75097 0.9048 0.85208 0.0
O68 O 0.95463 0.54364 0.02799 0.0
O69 O 0.88498 0.64139 0.97087 0.0
H70 H 0.50255 0.81748 0.9951 0.0
H71 H 0.38906 0.77133 0.1314 0.0
H72 H 0.61141 0.88783 0.12268 0.0
H73 H 0.96421 0.59275 0.88553 0.0
H74 H 0.07081 0.66624 0.01334 0.0
H75 H 0.18572 0.71334 0.87758 0.0
C76 C 0.06778 0.63088 0.45417 0.0
C77 C 1.0059 0.66774 0.47662 0.0
C78 C 0.94178 0.69573 0.44979 0.0
C79 C 0.94018 0.69353 0.4002 0.0
C80 C 1.00236 0.66067 0.37731 0.0
C81 C 0.06604 0.62882 0.40425 0.0
O82 O 0.23272 0.82706 0.53391 0.0
Tb83 Tb 0.2132 0.64258 0.54652 0.0
O84 O 0.1538 0.64331 0.61345 0.0
O85 O 0.24941 0.93093 0.45854 0.0
Eu86 Eu 0.35869 0.83929 0.4642 0.0
O87 O 0.12511 0.54701 0.5289 0.0
C88 C 0.44344 0.89457 0.53008 0.0
O89 O 0.19153 0.65215 0.47249 0.0
O90 O 0.33972 0.6477 0.47779 0.0
O91 O 0.31809 0.55256 0.55427 0.0
C92 C 0.13329 0.58795 0.4822 0.0
C93 C 0.38886 0.86638 0.35199 0.0
O94 O 0.32056 0.9008 0.34838 0.0
C95 C 0.20617 0.89754 0.49598 0.0
C96 C 0.36315 0.57955 0.51732 0.0
O97 O 0.42008 0.83902 0.39468 0.0
C98 C 0.50838 0.85049 0.55853 0.0
C99 C 0.57362 0.82153 0.63543 0.0
C100 C 0.51023 0.85422 0.60829 0.0
C101 C 0.56988 0.81118 0.53646 0.0
C102 C 0.63375 0.78242 0.56345 0.0
C103 C 0.63545 0.78624 0.61289 0.0
C104 C 0.1853 0.61438 0.65602 0.0
O105 O 0.2535 0.57941 0.65916 0.0
O106 O 0.45217 0.93296 0.48328 0.0
O107 O 0.38367 0.83452 0.54051 0.0
H108 H 1.00616 0.66807 0.51528 0.0
H109 H 0.88986 0.71347 0.3798 0.0
H110 H 0.11347 0.59952 0.38676 0.0
H111 H 0.46313 0.88541 0.62548 0.0
H112 H 0.5696 0.80963 0.4979 0.0
H113 H 0.68559 0.76569 0.63342 0.0
C114 C 0.56785 0.12998 0.45464 0.0
C115 C 0.5062 0.16854 0.47673 0.0
C116 C 0.44212 0.19602 0.44981 0.0
C117 C 0.44041 0.19174 0.40037 0.0
C118 C 0.50243 0.15717 0.37775 0.0
C119 C 0.56603 0.12578 0.40489 0.0
O120 O 0.73368 0.32793 0.53329 0.0
Tb121 Tb 0.7129 0.14377 0.54716 0.0
O122 O 0.65354 0.14785 0.61399 0.0
O123 O 0.74981 0.43068 0.45767 0.0
Eu124 Eu 0.85905 0.33855 0.46303 0.0
O125 O 0.62497 0.04753 0.52968 0.0
C126 C 0.94408 0.39418 0.52883 0.0
O127 O 0.6913 0.15242 0.47319 0.0
O128 O 0.83897 0.14715 0.478 0.0
O129 O 0.81783 0.05373 0.55487 0.0
C130 C 0.63328 0.08782 0.48293 0.0
C131 C 0.88771 0.36718 0.35027 0.0
O132 O 0.82015 0.40514 0.34721 0.0
C133 C 0.70683 0.39788 0.49531 0.0
C134 C 0.86265 0.0799 0.51772 0.0
O135 O 0.91909 0.33682 0.39286 0.0
C136 C 1.00846 0.34969 0.55793 0.0
C137 C 0.07241 0.32027 0.63548 0.0
C138 C 1.00934 0.35277 0.60783 0.0
C139 C 0.07051 0.31099 0.53628 0.0
C140 C 0.134 0.28241 0.5637 0.0
C141 C 0.13477 0.28564 0.61323 0.0
C142 C 0.68435 0.1167 0.65673 0.0
O143 O 0.75167 0.07762 0.66005 0.0
O144 O 0.9534 0.43084 0.48195 0.0
O145 O 0.88377 0.33568 0.53927 0.0
H146 H 0.50657 0.17044 0.51526 0.0
H147 H 0.39011 0.21134 0.37993 0.0
H148 H 0.61336 0.09531 0.3877 0.0
H149 H 0.96182 0.38355 0.62471 0.0
H150 H 0.07101 0.30993 0.49768 0.0
H151 H 0.18466 0.26527 0.63406 0.0
C152 C 0.75941 0.23329 0.99389 0.0
C153 C 0.70215 0.21748 0.97517 0.0
C154 C 0.81713 0.24781 0.01229 0.0
C155 C 0.87416 0.26408 0.03119 0.0
C156 C 0.25441 0.73518 0.99229 0.0
C157 C 0.19976 0.71695 0.97171 0.0
C158 C 0.31864 0.75225 0.01675 0.0
C159 C 0.37364 0.76925 0.03723 0.0
C160 C 0.75512 0.74502 0.51892 0.0
C161 C 0.69984 0.76205 0.53932 0.0
C162 C 0.82009 0.72981 0.49463 0.0
C163 C 0.87555 0.71428 0.47412 0.0
C164 C 0.25596 0.24672 0.51937 0.0
C165 C 0.20056 0.26291 0.53984 0.0
C166 C 0.32078 0.23174 0.49481 0.0
C167 C 0.37597 0.2155 0.47412 0.0
C168 C 0.57133 0.51662 0.00711 0.0
C169 C 0.6338 0.54361 0.01341 0.0
C170 C 0.49826 0.48577 0.99853 0.0
C171 C 0.43627 0.45427 0.99388 0.0
C172 C 0.5709 0.46956 0.50341 0.0
C173 C 0.6331 0.44051 0.49716 0.0
C174 C 0.49818 0.50198 0.51243 0.0
C175 C 0.43617 0.53302 0.51789 0.0
C176 C 0.06972 -0.00646 0.00911 0.0
C177 C 0.13155 0.02491 0.01442 0.0
C178 C 0.99661 0.96332 1.00034 0.0
C179 C 0.93397 0.93657 0.99455 0.0
C180 C 0.99771 0.00246 0.5129 0.0
C181 C 0.93571 0.03355 0.51832 0.0
C182 C 0.0704 0.96986 0.50395 0.0
C183 C 0.13256 0.94056 0.49776 0.0
C184 C 0.48461 0.14217 0.28582 0.0
C185 C 0.49781 0.14654 0.32754 0.0
C186 C 0.45785 0.13456 0.23932 0.0
C187 C 0.42752 0.12736 0.20183 0.0
C188 C 0.48461 0.83564 0.22543 0.0
C189 C 0.49736 0.8336 0.18349 0.0
C190 C 0.45815 0.84272 0.27198 0.0
C191 C 0.42847 0.85235 0.30934 0.0
C192 C 0.59139 0.83508 0.72736 0.0
C193 C 0.5783 0.83143 0.68562 0.0
C194 C 0.61734 0.84247 0.77397 0.0
C195 C 0.64607 0.85127 0.81172 0.0
C196 C 0.59425 0.1511 0.78485 0.0
C197 C 0.58191 0.15609 0.82665 0.0
C198 C 0.61843 0.14189 0.73789 0.0
C199 C 0.64609 0.13205 0.69983 0.0
C200 C 0.98443 0.64858 0.28526 0.0
C201 C 0.99772 0.65172 0.32701 0.0
C202 C 0.95783 0.64 0.23894 0.0
C203 C 0.92841 0.62902 0.20169 0.0
C204 C 0.95365 0.34193 0.26907 0.0
C205 C 0.9258 0.35197 0.30706 0.0
C206 C 0.97833 0.33277 0.22219 0.0
C207 C 0.99123 0.32793 0.18044 0.0
C208 C 0.11537 0.34152 0.77437 0.0
C209 C 0.14516 0.34942 0.81198 0.0
C210 C 0.08915 0.33398 0.72768 0.0
C211 C 0.07635 0.33027 0.68582 0.0
C212 C 0.1175 0.63647 0.73678 0.0
C213 C 0.14641 0.62764 0.69906 0.0
C214 C 0.09169 0.6441 0.78344 0.0
C215 C 0.07884 0.64744 0.82526 0.0
loop_
_geom_bond_atom_site_label_1
_geom_bond_atom_site_label_2
_geom_bond_distance
_geom_bond_site_symmetry_2
_ccdc_geom_bond_type
C0 C1 1.387 1_455 S
C0 C5 1.380 . S
C0 C16 1.494 . S
C1 C0 1.387 1_655 S
C1 C2 1.386 . S
C1 H32 0.930 . S
C2 C1 1.386 . S
C2 C3 1.397 . S
C3 C2 1.397 . S
C3 C4 1.393 1_655 S
C3 H33 0.930 . S
C4 C3 1.393 1_455 S
C4 C5 1.395 . S
C5 C0 1.380 . S
C5 C4 1.395 . S
C5 H34 0.930 . S
O6 Tb7 2.295 . S
O6 C19 1.242 1_556 S
Tb7 O6 2.295 . S
Tb7 O8 2.312 . S
Tb7 O11 2.438 . S
Tb7 O13 2.472 1_556 S
Tb7 O15 2.308 . S
Tb7 C16 2.821 1_556 S
O8 Tb7 2.312 . S
O8 C28 1.264 . S
O9 Eu10 2.308 . S
O9 C19 1.243 . S
Eu10 O9 2.308 . S
Eu10 C12 2.821 1_554 S
Eu10 O14 2.295 . S
Eu10 O21 2.312 . S
Eu10 O30 2.438 . S
Eu10 O31 2.472 1_554 S
O11 Tb7 2.438 . S
O11 C16 1.263 1_556 S
C12 Eu10 2.821 1_556 S
C12 C22 1.494 . S
C12 O30 1.263 1_556 S
C12 O31 1.264 . S
O13 Tb7 2.472 1_554 S
O13 C16 1.264 . S
O14 Eu10 2.295 . S
O14 C20 1.242 . S
O15 Tb7 2.308 . S
O15 C20 1.243 1_556 S
C16 C0 1.494 . S
C16 Tb7 2.821 1_554 S
C16 O11 1.263 1_554 S
C16 O13 1.264 . S
C17 O18 1.260 . S
C17 O21 1.264 . S
O18 C17 1.260 . S
C19 O6 1.242 1_554 S
C19 O9 1.243 . S
C20 O14 1.242 . S
C20 O15 1.243 1_554 S
O21 Eu10 2.312 . S
O21 C17 1.264 . S
C22 C12 1.494 . S
C22 C24 1.380 . S
C22 C25 1.387 . S
C23 C24 1.395 . S
C23 C27 1.393 . S
C24 C22 1.380 . S
C24 C23 1.395 . S
C24 H35 0.930 . S
C25 C22 1.387 . S
C25 C26 1.386 . S
C25 H36 0.930 . S
C26 C25 1.386 . S
C26 C27 1.397 . S
C27 C23 1.393 . S
C27 C26 1.397 . S
C27 H37 0.930 . S
C28 O8 1.264 . S
C28 O29 1.260 . S
O29 C28 1.260 . S
O30 Eu10 2.438 . S
O30 C12 1.263 1_554 S
O31 Eu10 2.472 1_556 S
O31 C12 1.264 . S
H32 C1 0.930 . S
H33 C3 0.930 . S
H34 C5 0.930 . S
H35 C24 0.930 . S
H36 C25 0.930 . S
H37 C27 0.930 . S
C38 C39 1.387 . S
C38 C43 1.380 . S
C38 C54 1.494 . S
C39 C38 1.387 . S
C39 C40 1.386 . S
C39 H70 0.930 . S
C40 C39 1.386 . S
C40 C41 1.397 . S
C41 C40 1.397 . S
C41 C42 1.393 . S
C41 H71 0.930 . S
C42 C41 1.393 . S
C42 C43 1.395 . S
C43 C38 1.380 . S
C43 C42 1.395 . S
C43 H72 0.930 . S
O44 Tb45 2.295 . S
O44 C57 1.242 1_556 S
Tb45 O44 2.295 . S
Tb45 O46 2.312 . S
Tb45 O49 2.438 . S
Tb45 O51 2.472 1_556 S
Tb45 O53 2.308 . S
Tb45 C54 2.821 1_556 S
O46 Tb45 2.312 . S
O46 C66 1.264 . S
O47 Eu48 2.308 . S
O47 C57 1.243 . S
Eu48 O47 2.308 . S
Eu48 C50 2.821 1_554 S
Eu48 O52 2.295 . S
Eu48 O59 2.312 . S
Eu48 O68 2.438 . S
Eu48 O69 2.472 1_554 S
O49 Tb45 2.438 . S
O49 C54 1.263 1_556 S
C50 Eu48 2.821 1_556 S
C50 C60 1.494 . S
C50 O68 1.263 1_556 S
C50 O69 1.264 . S
O51 Tb45 2.472 1_554 S
O51 C54 1.264 . S
O52 Eu48 2.295 . S
O52 C58 1.242 . S
O53 Tb45 2.308 . S
O53 C58 1.243 1_556 S
C54 C38 1.494 . S
C54 Tb45 2.821 1_554 S
C54 O49 1.263 1_554 S
C54 O51 1.264 . S
C55 O56 1.260 . S
C55 O59 1.264 . S
O56 C55 1.260 . S
C57 O44 1.242 1_554 S
C57 O47 1.243 . S
C58 O52 1.242 . S
C58 O53 1.243 1_554 S
O59 Eu48 2.312 . S
O59 C55 1.264 . S
C60 C50 1.494 . S
C60 C62 1.380 . S
C60 C63 1.387 1_655 S
C61 C62 1.395 . S
C61 C65 1.393 1_655 S
C62 C60 1.380 . S
C62 C61 1.395 . S
C62 H73 0.930 . S
C63 C60 1.387 1_455 S
C63 C64 1.386 . S
C63 H74 0.930 . S
C64 C63 1.386 . S
C64 C65 1.397 . S
C65 C61 1.393 1_455 S
C65 C64 1.397 . S
C65 H75 0.930 . S
C66 O46 1.264 . S
C66 O67 1.260 . S
O67 C66 1.260 . S
O68 Eu48 2.438 . S
O68 C50 1.263 1_554 S
O69 Eu48 2.472 1_556 S
O69 C50 1.264 . S
H70 C39 0.930 . S
H71 C41 0.930 . S
H72 C43 0.930 . S
H73 C62 0.930 . S
H74 C63 0.930 . S
H75 C65 0.930 . S
C76 C77 1.387 1_455 S
C76 C81 1.380 . S
C76 C92 1.494 . S
C77 C76 1.387 1_655 S
C77 C78 1.386 . S
C77 H108 0.930 . S
C78 C77 1.386 . S
C78 C79 1.397 . S
C79 C78 1.397 . S
C79 C80 1.393 1_655 S
C79 H109 0.930 . S
C80 C79 1.393 1_455 S
C80 C81 1.395 . S
C81 C76 1.380 . S
C81 C80 1.395 . S
C81 H110 0.930 . S
O82 Tb83 2.295 . S
O82 C95 1.242 . S
Tb83 O82 2.295 . S
Tb83 O84 2.312 . S
Tb83 O87 2.438 . S
Tb83 O89 2.472 . S
Tb83 O91 2.308 . S
Tb83 C92 2.821 . S
O84 Tb83 2.312 . S
O84 C104 1.264 . S
O85 Eu86 2.308 . S
O85 C95 1.243 . S
Eu86 O85 2.308 . S
Eu86 C88 2.821 . S
Eu86 O90 2.295 . S
Eu86 O97 2.312 . S
Eu86 O106 2.438 . S
Eu86 O107 2.472 . S
O87 Tb83 2.438 . S
O87 C92 1.263 . S
C88 Eu86 2.821 . S
C88 C98 1.494 . S
C88 O106 1.263 . S
C88 O107 1.264 . S
O89 Tb83 2.472 . S
O89 C92 1.264 . S
O90 Eu86 2.295 . S
O90 C96 1.242 . S
O91 Tb83 2.308 . S
O91 C96 1.243 . S
C92 C76 1.494 . S
C92 Tb83 2.821 . S
C92 O87 1.263 . S
C92 O89 1.264 . S
C93 O94 1.260 . S
C93 O97 1.264 . S
O94 C93 1.260 . S
C95 O82 1.242 . S
C95 O85 1.243 . S
C96 O90 1.242 . S
C96 O91 1.243 . S
O97 Eu86 2.312 . S
O97 C93 1.264 . S
C98 C88 1.494 . S
C98 C100 1.380 . S
C98 C101 1.387 . S
C99 C100 1.395 . S
C99 C103 1.393 . S
C100 C98 1.380 . S
C100 C99 1.395 . S
C100 H111 0.930 . S
C101 C98 1.387 . S
C101 C102 1.386 . S
C101 H112 0.930 . S
C102 C101 1.386 . S
C102 C103 1.397 . S
C103 C99 1.393 . S
C103 C102 1.397 . S
C103 H113 0.930 . S
C104 O84 1.264 . S
C104 O105 1.260 . S
O105 C104 1.260 . S
O106 Eu86 2.438 . S
O106 C88 1.263 . S
O107 Eu86 2.472 . S
O107 C88 1.264 . S
H108 C77 0.930 . S
H109 C79 0.930 . S
H110 C81 0.930 . S
H111 C100 0.930 . S
H112 C101 0.930 . S
H113 C103 0.930 . S
C114 C115 1.387 . S
C114 C119 1.380 . S
C114 C130 1.494 . S
C115 C114 1.387 . S
C115 C116 1.386 . S
C115 H146 0.930 . S
C116 C115 1.386 . S
C116 C117 1.397 . S
C117 C116 1.397 . S
C117 C118 1.393 . S
C117 H147 0.930 . S
C118 C117 1.393 . S
C118 C119 1.395 . S
C119 C114 1.380 . S
C119 C118 1.395 . S
C119 H148 0.930 . S
O120 Tb121 2.295 . S
O120 C133 1.242 . S
Tb121 O120 2.295 . S
Tb121 O122 2.312 . S
Tb121 O125 2.438 . S
Tb121 O127 2.472 . S
Tb121 O129 2.308 . S
Tb121 C130 2.821 . S
O122 Tb121 2.312 . S
O122 C142 1.264 . S
O123 Eu124 2.308 . S
O123 C133 1.243 . S
Eu124 O123 2.308 . S
Eu124 C126 2.821 . S
Eu124 O128 2.295 . S
Eu124 O135 2.312 . S
Eu124 O144 2.438 . S
Eu124 O145 2.472 . S
O125 Tb121 2.438 . S
O125 C130 1.263 . S
C126 Eu124 2.821 . S
C126 C136 1.494 . S
C126 O144 1.263 . S
C126 O145 1.264 . S
O127 Tb121 2.472 . S
O127 C130 1.264 . S
O128 Eu124 2.295 . S
O128 C134 1.242 . S
O129 Tb121 2.308 . S
O129 C134 1.243 . S
C130 C114 1.494 . S
C130 Tb121 2.821 . S
C130 O125 1.263 . S
C130 O127 1.264 . S
C131 O132 1.260 . S
C131 O135 1.264 . S
O132 C131 1.260 . S
C133 O120 1.242 . S
C133 O123 1.243 . S
C134 O128 1.242 . S
C134 O129 1.243 . S
O135 Eu124 2.312 . S
O135 C131 1.264 . S
C136 C126 1.494 . S
C136 C138 1.380 . S
C136 C139 1.387 1_655 S
C137 C138 1.395 . S
C137 C141 1.393 1_655 S
C138 C136 1.380 . S
C138 C137 1.395 . S
C138 H149 0.930 . S
C139 C136 1.387 1_455 S
C139 C140 1.386 . S
C139 H150 0.930 . S
C140 C139 1.386 . S
C140 C141 1.397 . S
C141 C137 1.393 1_455 S
C141 C140 1.397 . S
C141 H151 0.930 . S
C142 O122 1.264 . S
C142 O143 1.260 . S
O143 C142 1.260 . S
O144 Eu124 2.438 . S
O144 C126 1.263 . S
O145 Eu124 2.472 . S
O145 C126 1.264 . S
H146 C115 0.930 . S
H147 C117 0.930 . S
H148 C119 0.930 . S
H149 C138 0.930 . S
H150 C139 0.930 . S
H151 C141 0.930 . S
C152 C153 1.170 . S
C152 C154 1.380 1_556 S
C153 C152 1.170 . S
C154 C152 1.380 1_554 S
C154 C155 1.170 . S
C155 C154 1.170 . S
C156 C157 1.170 . S
C156 C158 1.380 1_556 S
C157 C156 1.170 . S
C158 C156 1.380 1_554 S
C158 C159 1.170 . S
C159 C158 1.170 . S
C160 C161 1.170 . S
C160 C162 1.380 . S
C161 C160 1.170 . S
C162 C160 1.380 . S
C162 C163 1.170 . S
C163 C162 1.170 . S
C164 C165 1.170 . S
C164 C166 1.380 . S
C165 C164 1.170 . S
C166 C164 1.380 . S
C166 C167 1.170 . S
C167 C166 1.170 . S
C168 C169 1.170 . S
C168 C170 1.380 . S
C169 C168 1.170 . S
C170 C168 1.380 . S
C170 C171 1.170 . S
C171 C170 1.170 . S
C172 C173 1.170 . S
C172 C174 1.380 . S
C173 C172 1.170 . S
C174 C172 1.380 . S
C174 C175 1.170 . S
C175 C174 1.170 . S
C176 C177 1.170 . S
C176 C178 1.381 1_445 S
C177 C176 1.170 . S
C178 C176 1.381 1_665 S
C178 C179 1.170 1_556 S
C179 C178 1.170 1_554 S
C180 C181 1.170 . S
C180 C182 1.380 1_645 S
C181 C180 1.170 . S
C182 C180 1.380 1_465 S
C182 C183 1.170 . S
C183 C182 1.170 . S
C184 C185 1.170 . S
C184 C186 1.380 . S
C185 C184 1.170 . S
C186 C184 1.380 . S
C186 C187 1.170 . S
C187 C186 1.170 . S
C188 C189 1.170 . S
C188 C190 1.380 . S
C189 C188 1.170 . S
C190 C188 1.380 . S
C190 C191 1.170 . S
C191 C190 1.170 . S
C192 C193 1.170 . S
C192 C194 1.380 . S
C193 C192 1.170 . S
C194 C192 1.380 . S
C194 C195 1.170 . S
C195 C194 1.170 . S
C196 C197 1.170 . S
C196 C198 1.380 . S
C197 C196 1.170 . S
C198 C196 1.380 . S
C198 C199 1.170 . S
C199 C198 1.170 . S
C200 C201 1.170 . S
C200 C202 1.380 . S
C201 C200 1.170 . S
C202 C200 1.380 . S
C202 C203 1.170 . S
C203 C202 1.170 . S
C204 C205 1.170 . S
C204 C206 1.380 . S
C205 C204 1.170 . S
C206 C204 1.380 . S
C206 C207 1.170 . S
C207 C206 1.170 . S
C208 C209 1.170 . S
C208 C210 1.380 . S
C209 C208 1.170 . S
C210 C208 1.380 . S
C210 C211 1.170 1_455 S
C211 C210 1.170 1_655 S
C212 C213 1.170 . S
C212 C214 1.380 . S
C213 C212 1.170 . S
C214 C212 1.380 . S
C214 C215 1.170 . S
C215 C214 1.170 . S
C153 C26 2.418 . S
C155 C2 2.399 . S
C157 C64 2.399 . S
C159 C40 2.422 . S
C161 C102 2.410 . S
C163 C78 2.405 . S
C165 C140 2.418 . S
C167 C116 2.399 . S
C169 C57 1.791 . S
C171 C20 1.788 . S
C173 C133 1.801 . S
C175 C96 1.794 . S
C177 C19 1.785 1_556 S
C179 C58 1.807 . S
C181 C134 1.795 . S
C183 C95 1.801 . S
C185 C118 1.256 . S
C187 C17 1.288 . S
C189 C42 1.266 . S
C191 C93 1.296 . S
C193 C99 1.260 . S
C195 C66 1.283 . S
C197 C23 1.297 . S
C199 C142 1.327 . S
C201 C80 1.262 1_655 S
C203 C55 1.298 . S
C205 C131 1.283 . S
C207 C4 1.247 1_655 S
C209 C28 1.325 . S
C211 C137 1.299 . S
C213 C104 1.282 . S
C215 C61 1.269 1_455 S
