# Generated by pormake.
# Topology pcu, (6)-cn, num edge types: 1
# Building blocks:
#     Node 0, Type 0, BuildingBlock: MIDCAF_clean_sbu_0, # of connection points: 6
#     Edge 1, Type (0, 0), BuildingBlock: FUNLAD_clean_linker_0, # of connection points: 2
#     Edge 2, Type (0, 0), BuildingBlock: FUNLAD_clean_linker_0, # of connection points: 2
#     Edge 3, Type (0, 0), BuildingBlock: FUNLAD_clean_linker_0, # of connection points: 2
# Relax obj value: 0.148
# Max RMSD: 0.201
# Mean RMSD: 0.201
data_MOF--net-pcu--node1-MIDCAF_clean_sbu_0--edge1-FUNLAD_clean_linker_0
_symmetry_space_group_name_H-M    P1
_symmetry_Int_Tables_number       1
_symmetry_cell_setting            triclinic
loop_
_symmetry_equiv_pos_as_xyz
'x, y, z'
_cell_length_a     17.442142
_cell_length_b     17.402021
_cell_length_c     17.417673
_cell_angle_alpha  102.52705
_cell_angle_beta   104.39209
_cell_angle_gamma 105.97547
loop_
_atom_site_label
_atom_site_type_symbol
_atom_site_fract_x
_atom_site_fract_y
_atom_site_fract_z
_atom_type_partial_charge
Zn0 Zn 0.90624 0.91518 0.93084 0.0
Zn1 Zn 0.16231 0.16557 0.17505 0.0
Zn2 Zn 1.03424 1.04036 1.05303 0.0
C3 C 0.21986 0.12703 1.04154 0.0
C4 C 0.12063 1.03072 0.23693 0.0
O5 O 0.92414 0.0814 1.02306 0.0
O6 O 0.82602 0.97626 0.91749 0.0
C7 C 0.04049 0.95648 0.8702 0.0
O8 O 0.14493 0.07138 1.01031 0.0
O9 O 0.24309 0.17952 0.11278 0.0
O10 O 0.17467 0.10324 0.25705 0.0
O11 O 0.06415 0.99812 0.16402 0.0
O12 O 0.96716 0.90359 0.84967 0.0
O13 O 0.07465 1.01167 0.94289 0.0
O14 O 1.00343 0.92907 0.09643 0.0
O15 O 0.89303 0.83334 0.99385 0.0
C16 C 0.94681 0.85493 0.06532 0.0
O17 O 0.9942 0.15008 0.08183 0.0
O18 O 0.10183 0.24591 0.18722 0.0
C19 C 0.84943 0.04851 0.9687 0.0
C20 C 1.0285 0.22372 0.13596 0.0
C21 C 0.04233 0.94021 0.30569 0.0
C22 C 0.1193 0.98794 0.30107 0.0
C23 C 0.04053 0.91105 0.37408 0.0
C24 C 0.11534 0.93105 0.43989 0.0
C25 C 0.19286 0.97455 0.43287 0.0
C26 C 0.19469 1.00304 0.36417 0.0
C27 C 0.10941 0.91229 0.51761 0.0
C28 C 0.16095 0.96473 0.59334 0.0
C29 C 0.14106 0.95974 0.67037 0.0
C30 C 0.16067 1.0346 0.73358 0.0
C31 C 0.13094 1.03354 0.8009 0.0
C32 C 0.08299 0.9573 0.80707 0.0
H33 H 0.0832 0.82397 0.63268 0.0
C34 C 0.06798 0.88194 0.74663 0.0
C35 C 0.09711 0.883 0.67904 0.0
H36 H 1.03152 0.82225 0.75039 0.0
H37 H 0.98321 0.92904 0.25867 0.0
H38 H 0.98004 0.87723 0.3779 0.0
H39 H 0.25188 0.98876 0.48142 0.0
H40 H 0.25495 1.03935 0.36172 0.0
H41 H 0.0536 0.86177 0.5125 0.0
H42 H 0.21158 1.02029 0.59809 0.0
H43 H 0.19482 0.0945 0.72848 0.0
H44 H 0.14212 0.09259 0.84592 0.0
C45 C 0.2849 0.05 0.95384 0.0
C46 C 0.28282 0.12628 0.99888 0.0
C47 C 0.35245 0.04858 0.92486 0.0
C48 C 0.42006 0.12306 0.94249 0.0
C49 C 0.41561 0.19993 0.98344 0.0
C50 C 0.34768 0.20139 1.01167 0.0
C51 C 0.49708 0.11744 0.92396 0.0
C52 C 0.57509 0.16794 0.97517 0.0
C53 C 0.65152 0.14829 0.97053 0.0
C54 C 0.71678 0.16565 1.04486 0.0
C55 C 0.7835 0.13617 1.04421 0.0
C56 C 0.78716 0.0909 0.96889 0.0
H57 H 0.60955 0.09462 0.83607 0.0
C58 C 0.72467 0.07805 0.894 0.0
C59 C 0.65759 0.10683 0.89468 0.0
H60 H 0.72639 1.04353 0.83504 0.0
H61 H 0.2366 0.99108 0.94462 0.0
H62 H 0.35431 0.98859 0.89307 0.0
H63 H 0.4656 0.25868 0.99585 0.0
H64 H 0.34725 0.2611 1.04599 0.0
H65 H 0.4896 0.06267 0.87481 0.0
H66 H 0.58224 0.21735 1.02954 0.0
H67 H 0.71366 0.19782 0.10407 0.0
H68 H 0.82998 0.14544 0.1029 0.0
C69 C 1.02485 0.78819 0.15467 0.0
C70 C 0.94794 0.79101 0.10837 0.0
C71 C 1.0266 0.71979 0.18379 0.0
C72 C 0.9518 0.65216 0.16512 0.0
C73 C 0.87431 0.65739 0.12315 0.0
C74 C 0.87253 0.72613 0.09474 0.0
C75 C 0.95777 0.57437 0.18335 0.0
C76 C 0.90689 0.49758 0.13127 0.0
C77 C 0.92722 0.42106 0.13535 0.0
C78 C 0.90886 0.35825 0.06068 0.0
C79 C 0.93897 0.29176 0.06087 0.0
C80 C 0.98599 0.28593 0.13603 0.0
H81 H 0.98342 0.45872 0.26984 0.0
C82 C 0.99992 0.34588 0.21119 0.0
C83 C 0.97042 0.41269 0.21099 0.0
H84 H 0.03571 0.34236 0.27003 0.0
H85 H 0.084 0.83657 0.16466 0.0
H86 H 0.08706 0.71733 0.2164 0.0
H87 H 0.81533 0.60735 0.10997 0.0
H88 H 0.81232 0.72716 0.05953 0.0
H89 H 1.01327 0.58063 0.23294 0.0
H90 H 0.85669 0.49195 0.07661 0.0
H91 H 0.87533 0.36315 1.00161 0.0
H92 H 0.9287 0.24712 1.00202 0.0
loop_
_geom_bond_atom_site_label_1
_geom_bond_atom_site_label_2
_geom_bond_distance
_geom_bond_site_symmetry_2
_ccdc_geom_bond_type
Zn0 O6 1.920 . S
Zn0 O12 1.898 . S
Zn0 O15 1.905 . S
Zn1 O9 1.905 . S
Zn1 O10 1.898 . S
Zn1 O18 1.920 . S
Zn2 O5 2.075 1_455 S
Zn2 O8 2.120 . S
Zn2 O11 2.119 1_465 S
Zn2 O13 2.120 1_464 S
Zn2 O14 2.116 1_554 S
Zn2 O17 2.078 1_564 S
C3 O8 1.166 1_545 S
C3 O9 1.182 . S
C4 O10 1.175 . S
C4 O11 1.300 1_455 S
O5 Zn2 2.075 1_655 S
O5 C19 1.305 1_554 S
O6 Zn0 1.920 . S
O6 C19 1.234 . S
C7 O12 1.173 . S
C7 O13 1.300 1_565 S
O8 Zn2 2.120 . S
O8 C3 1.166 1_565 S
O9 Zn1 1.905 . S
O9 C3 1.182 . S
O10 Zn1 1.898 . S
O10 C4 1.175 . S
O11 Zn2 2.119 1_645 S
O11 C4 1.300 1_655 S
O12 Zn0 1.898 . S
O12 C7 1.173 . S
O13 Zn2 2.120 1_646 S
O13 C7 1.300 1_545 S
O14 Zn2 2.116 1_556 S
O14 C16 1.166 1_455 S
O15 Zn0 1.905 . S
O15 C16 1.182 . S
C16 O14 1.166 1_655 S
C16 O15 1.182 . S
O17 Zn2 2.078 1_546 S
O17 C20 1.305 1_556 S
O18 Zn1 1.920 . S
O18 C20 1.234 . S
C19 O5 1.305 1_556 S
C19 O6 1.234 . S
C20 O17 1.305 1_554 S
C20 O18 1.234 . S
C21 C22 1.386 1_645 S
C21 C23 1.383 1_545 S
C21 H37 0.951 . S
C22 C21 1.386 1_465 S
C22 C26 1.383 . S
C23 C21 1.383 1_565 S
C23 C24 1.402 1_655 S
C23 H38 0.951 1_565 S
C24 C23 1.402 1_455 S
C24 C25 1.375 . S
C24 C27 1.481 . S
C25 C24 1.375 . S
C25 C26 1.367 . S
C25 H39 0.951 . S
C26 C22 1.383 . S
C26 C25 1.367 . S
C26 H40 0.950 . S
C27 C24 1.481 . S
C27 C28 1.297 1_455 S
C27 H41 0.950 . S
C28 C27 1.297 1_655 S
C28 C29 1.479 1_655 S
C28 H42 0.950 . S
C29 C28 1.479 1_455 S
C29 C30 1.374 1_465 S
C29 C35 1.405 . S
C30 C29 1.374 1_645 S
C30 C31 1.369 . S
C30 H43 0.950 . S
C31 C30 1.369 . S
C31 C32 1.392 1_645 S
C31 H44 0.951 . S
C32 C31 1.392 1_465 S
C32 C34 1.384 . S
H33 C35 0.949 . S
C34 C32 1.384 . S
C34 C35 1.385 . S
C34 H36 0.950 . S
C35 C29 1.405 . S
C35 H33 0.949 . S
C35 C34 1.385 . S
H36 C34 0.950 . S
H37 C21 0.951 . S
H38 C23 0.951 1_545 S
H39 C25 0.951 . S
H40 C26 0.950 . S
H41 C27 0.950 . S
H42 C28 0.950 . S
H43 C30 0.950 . S
H44 C31 0.951 . S
C45 C46 1.386 1_564 S
C45 C47 1.383 1_554 S
C45 H61 0.951 . S
C46 C45 1.386 1_546 S
C46 C50 1.383 . S
C47 C45 1.383 1_556 S
C47 C48 1.402 1_565 S
C47 H62 0.951 1_556 S
C48 C47 1.402 1_545 S
C48 C49 1.375 . S
C48 C51 1.481 . S
C49 C48 1.375 . S
C49 C50 1.367 . S
C49 H63 0.951 . S
C50 C46 1.383 . S
C50 C49 1.367 . S
C50 H64 0.950 . S
C51 C48 1.481 . S
C51 C52 1.297 1_545 S
C51 H65 0.950 . S
C52 C51 1.297 1_565 S
C52 C53 1.479 . S
C52 H66 0.950 . S
C53 C52 1.479 . S
C53 C54 1.375 1_556 S
C53 C59 1.404 1_565 S
C54 C53 1.375 1_554 S
C54 C55 1.369 . S
C54 H67 0.950 . S
C55 C54 1.369 . S
C55 C56 1.392 1_564 S
C55 H68 0.951 . S
C56 C55 1.392 1_546 S
C56 C58 1.384 . S
H57 C59 0.949 . S
C58 C56 1.384 . S
C58 C59 1.385 . S
C58 H60 0.950 . S
C59 C53 1.404 1_545 S
C59 H57 0.949 . S
C59 C58 1.385 . S
H60 C58 0.950 . S
H61 C45 0.951 . S
H62 C47 0.951 1_554 S
H63 C49 0.951 . S
H64 C50 0.950 . S
H65 C51 0.950 . S
H66 C52 0.950 . S
H67 C54 0.950 . S
H68 C55 0.951 . S
C69 C70 1.386 1_456 S
C69 C71 1.383 1_556 S
C69 H85 0.951 . S
C70 C69 1.386 1_654 S
C70 C74 1.383 . S
C71 C69 1.383 1_554 S
C71 C72 1.402 1_455 S
C71 H86 0.951 1_554 S
C72 C71 1.402 1_655 S
C72 C73 1.375 . S
C72 C75 1.481 . S
C73 C72 1.375 . S
C73 C74 1.367 . S
C73 H87 0.951 . S
C74 C70 1.383 . S
C74 C73 1.367 . S
C74 H88 0.950 . S
C75 C72 1.481 . S
C75 C76 1.297 1_655 S
C75 H89 0.950 . S
C76 C75 1.297 1_455 S
C76 C77 1.479 1_455 S
C76 H90 0.950 . S
C77 C76 1.479 1_655 S
C77 C78 1.367 1_655 S
C77 C83 1.413 . S
C78 C77 1.367 1_455 S
C78 C79 1.369 1_554 S
C78 H91 0.950 1_554 S
C79 C78 1.369 1_556 S
C79 C80 1.392 1_456 S
C79 H92 0.951 . S
C80 C79 1.392 1_654 S
C80 C82 1.384 . S
H81 C83 0.949 . S
C82 C80 1.384 . S
C82 C83 1.385 . S
C82 H84 0.950 . S
C83 C77 1.413 . S
C83 H81 0.949 . S
C83 C82 1.385 . S
H84 C82 0.950 . S
H85 C69 0.951 . S
H86 C71 0.951 1_556 S
H87 C73 0.951 . S
H88 C74 0.950 . S
H89 C75 0.950 . S
H90 C76 0.950 . S
H91 C78 0.950 1_556 S
H92 C79 0.951 . S
C22 C4 1.333 1_565 S
C32 C7 1.202 1_455 S
C46 C3 1.356 1_556 S
C56 C19 1.224 1_545 S
C70 C16 1.353 1_554 S
C80 C20 1.228 1_655 S
