# Generated by pormake.
# Topology eci, (8)-cn, num edge types: 1
# Building blocks:
#     Node 0, Type 0, BuildingBlock: AJUNOK_clean_sbu_0, # of connection points: 8
#     Node 1, Type 0, BuildingBlock: AJUNOK_clean_sbu_0, # of connection points: 8
#     Node 2, Type 0, BuildingBlock: AJUNOK_clean_sbu_0, # of connection points: 8
#     Node 3, Type 0, BuildingBlock: AJUNOK_clean_sbu_0, # of connection points: 8
#     Edge 4, Type (0, 0), None
#     Edge 5, Type (0, 0), None
#     Edge 6, Type (0, 0), None
#     Edge 7, Type (0, 0), None
#     Edge 8, Type (0, 0), None
#     Edge 9, Type (0, 0), None
#     Edge 10, Type (0, 0), None
#     Edge 11, Type (0, 0), None
#     Edge 12, Type (0, 0), None
#     Edge 13, Type (0, 0), None
#     Edge 14, Type (0, 0), None
#     Edge 15, Type (0, 0), None
#     Edge 16, Type (0, 0), None
#     Edge 17, Type (0, 0), None
#     Edge 18, Type (0, 0), None
#     Edge 19, Type (0, 0), None
# Relax obj value: 0.413
# Max RMSD: 0.303
# Mean RMSD: 0.303
data_MOF--net-eci--node1-AJUNOK_clean_sbu_0--edge1-none
_symmetry_space_group_name_H-M    P1
_symmetry_Int_Tables_number       1
_symmetry_cell_setting            triclinic
loop_
_symmetry_equiv_pos_as_xyz
'x, y, z'
_cell_length_a     18.719506
_cell_length_b     18.707067
_cell_length_c     10.817689
_cell_angle_alpha  89.996922
_cell_angle_beta   89.727293
_cell_angle_gamma 90.282724
loop_
_atom_site_label
_atom_site_type_symbol
_atom_site_fract_x
_atom_site_fract_y
_atom_site_fract_z
_atom_type_partial_charge
Cd0 Cd 0.81191 0.75851 0.18931 0.0
Cd1 Cd 0.75347 0.81114 0.76108 0.0
C2 C 0.84098 0.59199 0.19361 0.0
N3 N 0.78904 0.63551 0.14849 0.0
C4 C 0.72258 0.53303 0.08006 0.0
C5 C 0.77426 0.48703 0.13051 0.0
C6 C 0.83408 0.51747 0.18755 0.0
C7 C 0.73059 0.60757 0.09146 0.0
H8 H 0.88729 0.61538 0.23765 0.0
H9 H 0.68955 0.64284 0.05757 0.0
C10 C 0.72954 0.91127 0.04994 0.0
C11 C 0.787 0.97826 0.68308 0.0
C12 C 0.83027 0.03934 0.6753 0.0
C13 C 0.89588 0.0399 0.73715 0.0
C14 C 0.91561 0.98141 0.80928 0.0
C15 C 0.87153 0.92198 0.8134 0.0
N16 N 0.8095 0.92073 0.7491 0.0
H17 H 0.73707 0.9758 0.63337 0.0
H18 H 0.88752 0.87589 0.86571 0.0
C19 C 0.58982 0.84261 0.77834 0.0
N20 N 0.63243 0.78611 0.80638 0.0
C21 C 0.52938 0.71439 0.85269 0.0
C22 C 0.48439 0.77126 0.81921 0.0
C23 C 0.51543 0.83604 0.78245 0.0
C24 C 0.6039 0.7227 0.84418 0.0
H25 H 0.61392 0.89217 0.74723 0.0
H26 H 0.63854 0.67792 0.86256 0.0
C27 C 0.90563 0.72977 0.8954 0.0
C28 C 0.79408 0.74715 0.47288 0.0
N29 N 0.92195 0.81421 0.19962 0.0
C30 C 0.97949 0.79107 0.2646 0.0
C31 C 0.04097 0.8338 0.27119 0.0
C32 C 0.04201 0.89958 0.2092 0.0
C33 C 0.98344 0.92006 0.13827 0.0
C34 C 0.92362 0.87642 0.13514 0.0
C35 C 0.74179 0.79522 0.47698 0.0
O36 O 0.74835 0.87413 0.14296 0.0
O37 O 0.73455 0.88644 0.94124 0.0
O38 O 0.86824 0.74618 0.80172 0.0
O39 O 0.88091 0.73748 0.00368 0.0
O40 O 0.75199 0.78043 0.38446 0.0
O41 O 0.84134 0.71967 0.39737 0.0
O42 O 0.77781 0.75514 0.56475 0.0
O43 O 0.71104 0.83972 0.55347 0.0
H44 H 0.97681 0.74098 0.31432 0.0
H45 H 0.87755 0.89307 0.08369 0.0
H46 H 0.67491 0.51154 0.03725 0.0
H47 H 0.87473 0.48396 0.22824 0.0
H48 H 0.81465 0.08376 0.61731 0.0
H49 H 0.96658 0.98024 0.85637 0.0
H50 H 0.50715 0.6628 0.87783 0.0
H51 H 0.48248 0.88037 0.75333 0.0
H52 H 0.08544 0.81754 0.32822 0.0
H53 H 0.98262 0.97119 0.09112 0.0
Cd54 Cd 0.73926 0.31833 0.43781 0.0
Cd55 Cd 0.67884 0.25899 0.00245 0.0
C56 C 0.90422 0.34853 0.42817 0.0
N57 N 0.86051 0.29391 0.39298 0.0
C58 C 0.96221 0.22354 0.33608 0.0
C59 C 0.00835 0.27827 0.37692 0.0
C60 C 0.97847 0.34143 0.42268 0.0
C61 C 0.88782 0.23222 0.34613 0.0
H62 H 0.88112 0.39684 0.46564 0.0
H63 H 0.85227 0.18891 0.32123 0.0
C64 C 0.5889 0.23762 0.30584 0.0
C65 C 0.51057 0.28691 0.93108 0.0
C66 C 0.44896 0.32882 0.92469 0.0
C67 C 0.44867 0.39566 -0.0168 0.0
C68 C 0.50813 0.41812 0.05057 0.0
C69 C 0.56798 0.37521 0.05368 0.0
N70 N 0.56878 0.31189 -0.00739 0.0
H71 H 0.51283 0.23602 0.88386 0.0
H72 H 0.61475 0.39323 0.10226 0.0
C73 C 0.64835 0.09339 0.00457 0.0
N74 N 0.70167 0.13697 0.04558 0.0
C75 C 0.769 0.03488 0.11015 0.0
C76 C 0.71575 0.98884 0.0636 0.0
C77 C 0.6548 0.01903 0.01085 0.0
C78 C 0.7612 0.10937 0.09896 0.0
H79 H 0.60153 0.11664 0.9627 0.0
H80 H 0.80344 0.1448 0.12911 0.0
C81 C 0.76142 0.40857 0.13521 0.0
C82 C 0.75041 0.298 0.71929 0.0
N83 N 0.68595 0.42826 0.44715 0.0
C84 C 0.70635 0.48504 0.51737 0.0
C85 C 0.66273 0.54548 0.52369 0.0
C86 C 0.59904 0.54614 0.45609 0.0
C87 C 0.58173 0.48856 0.3796 0.0
C88 C 0.62601 0.4297 0.37719 0.0
C89 C 0.69953 0.24789 0.72079 0.0
O90 O 0.62315 0.25318 0.40352 0.0
O91 O 0.61923 0.24481 0.20154 0.0
O92 O 0.74521 0.3748 0.03716 0.0
O93 O 0.75387 0.37783 0.23892 0.0
O94 O 0.71656 0.257 0.62941 0.0
O95 O 0.7793 0.34587 0.64594 0.0
O96 O 0.74084 0.28124 0.81078 0.0
O97 O 0.6512 0.21962 0.79412 0.0
H98 H 0.75447 0.48226 0.57199 0.0
H99 H 0.61149 0.38389 0.32241 0.0
H100 H 0.98341 0.17301 0.30406 0.0
H101 H 0.01225 0.38393 0.45784 0.0
H102 H 0.40373 0.31104 0.87047 0.0
H103 H 0.50949 0.47007 0.09497 0.0
H104 H 0.81786 0.0135 0.14825 0.0
H105 H 0.61336 0.98539 -0.0281 0.0
H106 H 0.6763 0.5891 0.58525 0.0
H107 H 0.53215 0.48737 0.32824 0.0
Cd108 Cd 0.24036 0.18244 0.25707 0.0
Cd109 Cd 0.18031 0.23441 0.68406 0.0
C110 C 0.40629 0.15372 0.26314 0.0
N111 N 0.36247 0.20824 0.29787 0.0
C112 C 0.4644 0.27985 0.35111 0.0
C113 C 0.51062 0.22499 0.31207 0.0
C114 C 0.48071 0.16135 0.26771 0.0
C115 C 0.38999 0.2707 0.3417 0.0
H116 H 0.38318 0.10471 0.22793 0.0
H117 H 0.35456 0.314 0.36578 0.0
C118 C 0.08518 0.26382 0.39553 0.0
C119 C 0.0133 0.20218 0.76347 0.0
C120 C 0.95172 0.15967 0.77171 0.0
C121 C 0.95056 0.09364 0.71063 0.0
C122 C 0.00903 0.07267 0.63892 0.0
C123 C 0.06894 0.11607 0.63424 0.0
N124 N 0.07075 0.17852 0.69787 0.0
H125 H 0.0161 0.25254 0.81228 0.0
H126 H 0.11492 0.09909 0.58216 0.0
C127 C 0.14758 0.39784 0.68205 0.0
N128 N 0.20211 0.35607 0.64079 0.0
C129 C 0.26835 0.46019 0.57992 0.0
C130 C 0.21404 0.50437 0.62758 0.0
C131 C 0.15293 0.47231 0.67819 0.0
C132 C 0.26165 0.38552 0.58888 0.0
H133 H 0.10077 0.37301 0.7228 0.0
H134 H 0.30482 0.35142 0.55892 0.0
C135 C 0.26498 0.08177 0.54207 0.0
C136 C 0.25027 0.19777 -0.02828 0.0
N137 N 0.18335 0.07275 0.24528 0.0
C138 C 0.20513 0.01572 0.17682 0.0
C139 C 0.16174 0.9547 0.16937 0.0
C140 C 0.09671 0.95355 0.23405 0.0
C141 C 0.07756 0.01156 0.30814 0.0
C142 C 0.12175 0.07099 0.31187 0.0
C143 C 0.19835 0.24624 0.96834 0.0
O144 O 0.12476 0.24591 0.30456 0.0
O145 O 0.10647 0.25733 0.50588 0.0
O146 O 0.24356 0.12046 0.63166 0.0
O147 O 0.26157 0.10341 0.43118 0.0
O148 O 0.21447 0.23791 0.06019 0.0
O149 O 0.28155 0.1538 0.0479 0.0
O150 O 0.23984 0.21232 0.87929 0.0
O151 O 0.15169 0.27424 0.89322 0.0
H152 H 0.25463 0.01849 0.12508 0.0
H153 H 0.10614 0.11668 0.36583 0.0
H154 H 0.48566 0.33045 0.3833 0.0
H155 H 0.51453 0.11834 0.23536 0.0
H156 H 0.90729 0.17629 0.82927 0.0
H157 H 0.00969 0.02135 0.59239 0.0
H158 H 0.3173 0.48311 0.54332 0.0
H159 H 0.11072 0.50455 0.71792 0.0
H160 H 0.17689 0.91072 0.10976 0.0
H161 H 0.027 0.01233 0.35738 0.0
Cd162 Cd 0.31235 0.73475 0.5086 0.0
Cd163 Cd 0.25231 0.67689 0.93835 0.0
C164 C 0.34471 0.89876 0.50717 0.0
N165 N 0.29059 0.85654 0.55021 0.0
C166 C 0.22452 0.96023 0.61098 0.0
C167 C 0.27844 0.00479 0.56167 0.0
C168 C 0.33922 0.97318 0.51008 0.0
C169 C 0.23132 0.88557 0.60287 0.0
H170 H 0.39128 0.87431 0.46576 0.0
H171 H 0.18839 0.85115 0.63406 0.0
C172 C 0.22731 0.58159 0.64606 0.0
C173 C 0.28674 0.51078 0.02126 0.0
C174 C 0.32995 0.45007 0.02787 0.0
C175 C 0.39335 0.44837 0.95859 0.0
C176 C 0.41094 0.50538 0.88071 0.0
C177 C 0.36711 0.56464 0.87818 0.0
N178 N 0.30726 0.56701 0.94931 0.0
H179 H 0.23866 0.51409 0.07667 0.0
H180 H 0.38172 0.60989 0.82182 0.0
C181 C 0.08723 0.64719 0.93584 0.0
N182 N 0.13089 0.70111 0.89644 0.0
C183 C 0.02909 0.76997 0.83668 0.0
C184 C 0.98303 0.71599 0.88135 0.0
C185 C 0.01293 0.65399 0.93102 0.0
C186 C 0.10346 0.76177 0.84653 0.0
H187 H 0.11038 0.59957 -0.02456 0.0
H188 H 0.13893 0.80457 0.81849 0.0
C189 C 0.40713 0.75857 0.80129 0.0
C190 C 0.29391 0.74431 0.22463 0.0
N191 N 0.42221 0.68075 0.49423 0.0
C192 C 0.48019 0.70639 0.43171 0.0
C193 C 0.54217 0.66507 0.42366 0.0
C194 C 0.54313 0.59814 0.48171 0.0
C195 C 0.48391 0.5749 0.54993 0.0
C196 C 0.42363 0.6172 0.55451 0.0
C197 C 0.2427 0.69453 0.22272 0.0
O198 O 0.24779 0.6202 0.55554 0.0
O199 O 0.23213 0.60385 0.75636 0.0
O200 O 0.36808 0.73984 0.8925 0.0
O201 O 0.38464 0.75354 0.69134 0.0
O202 O 0.25298 0.71007 0.31459 0.0
O203 O 0.34041 0.77394 0.2988 0.0
O204 O 0.27764 0.735 0.13308 0.0
O205 O 0.21203 0.6489 0.14804 0.0
H206 H 0.47758 0.75753 0.38539 0.0
H207 H 0.37717 0.59868 0.60415 0.0
H208 H 0.17575 0.98276 0.64812 0.0
H209 H 0.38105 0.00572 0.46888 0.0
H210 H 0.31616 0.40692 0.09052 0.0
H211 H 0.46033 0.50575 0.82795 0.0
H212 H 0.00783 0.81956 0.80104 0.0
H213 H 0.97918 0.61201 0.96859 0.0
H214 H 0.58722 0.68342 0.36881 0.0
H215 H 0.48313 0.52288 0.59412 0.0
loop_
_geom_bond_atom_site_label_1
_geom_bond_atom_site_label_2
_geom_bond_distance
_geom_bond_site_symmetry_2
_ccdc_geom_bond_type
Cd0 N3 2.334 . S
Cd0 N29 2.304 . S
Cd0 O36 2.268 . S
Cd0 O39 2.273 . S
Cd0 O40 2.417 . S
Cd0 O41 2.330 . S
Cd1 N16 2.304 . S
Cd1 N20 2.334 . S
Cd1 O37 2.273 . S
Cd1 O38 2.268 . S
Cd1 O42 2.417 . S
Cd1 O43 2.330 . S
C2 N3 1.332 . S
C2 C6 1.381 . S
C2 H8 0.931 . S
N3 Cd0 2.334 . S
N3 C2 1.332 . S
N3 C7 1.328 . S
C4 C5 1.396 . S
C4 C7 1.378 . S
C4 H46 0.931 . S
C5 C4 1.396 . S
C5 C6 1.382 . S
C6 C2 1.381 . S
C6 C5 1.382 . S
C6 H47 0.930 . S
C7 N3 1.328 . S
C7 C4 1.378 . S
C7 H9 0.930 . S
H8 C2 0.931 . S
H9 C7 0.930 . S
C10 O36 1.238 . S
C10 O37 1.253 1_554 S
C11 C12 1.379 1_565 S
C11 N16 1.337 . S
C11 H17 0.929 1_565 S
C12 C11 1.379 1_545 S
C12 C13 1.380 . S
C12 H48 0.929 . S
C13 C12 1.380 . S
C13 C14 1.399 1_645 S
C14 C13 1.399 1_465 S
C14 C15 1.376 1_455 S
C14 H49 0.931 . S
C15 C14 1.376 1_655 S
C15 N16 1.338 . S
C15 H18 0.930 . S
N16 Cd1 2.304 . S
N16 C11 1.337 . S
N16 C15 1.338 . S
H17 C11 0.929 1_545 S
H18 C15 0.930 . S
C19 N20 1.332 . S
C19 C23 1.381 . S
C19 H25 0.931 . S
N20 Cd1 2.334 . S
N20 C19 1.332 . S
N20 C24 1.328 . S
C21 C22 1.396 . S
C21 C24 1.378 . S
C21 H50 0.931 . S
C22 C21 1.396 . S
C22 C23 1.382 . S
C23 C19 1.381 . S
C23 C22 1.382 . S
C23 H51 0.930 . S
C24 N20 1.328 . S
C24 C21 1.378 . S
C24 H26 0.930 . S
H25 C19 0.931 . S
H26 C24 0.930 . S
C27 O38 1.238 . S
C27 O39 1.253 1_556 S
C28 O40 1.239 . S
C28 O41 1.230 . S
N29 Cd0 2.304 . S
N29 C30 1.337 . S
N29 C34 1.338 . S
C30 N29 1.337 . S
C30 C31 1.379 1_655 S
C30 H44 0.929 1_655 S
C31 C30 1.379 1_455 S
C31 C32 1.380 . S
C31 H52 0.929 . S
C32 C31 1.380 . S
C32 C33 1.399 1_465 S
C33 C32 1.399 1_645 S
C33 C34 1.376 1_545 S
C33 H53 0.931 . S
C34 N29 1.338 . S
C34 C33 1.376 1_565 S
C34 H45 0.930 . S
C35 O42 1.239 . S
C35 O43 1.230 . S
O36 Cd0 2.268 . S
O36 C10 1.238 . S
O37 Cd1 2.273 . S
O37 C10 1.253 1_556 S
O38 Cd1 2.268 . S
O38 C27 1.238 . S
O39 Cd0 2.273 . S
O39 C27 1.253 1_554 S
O40 Cd0 2.417 . S
O40 C28 1.239 . S
O41 Cd0 2.330 . S
O41 C28 1.230 . S
O42 Cd1 2.417 . S
O42 C35 1.239 . S
O43 Cd1 2.330 . S
O43 C35 1.230 . S
H44 C30 0.929 1_455 S
H45 C34 0.930 . S
H46 C4 0.931 . S
H47 C6 0.930 . S
H48 C12 0.929 . S
H49 C14 0.931 . S
H50 C21 0.931 . S
H51 C23 0.930 . S
H52 C31 0.929 . S
H53 C33 0.931 . S
Cd54 N57 2.334 . S
Cd54 N83 2.304 . S
Cd54 O90 2.268 . S
Cd54 O93 2.273 . S
Cd54 O94 2.417 . S
Cd54 O95 2.330 . S
Cd55 N70 2.304 . S
Cd55 N74 2.334 . S
Cd55 O91 2.273 . S
Cd55 O92 2.268 . S
Cd55 O96 2.417 1_554 S
Cd55 O97 2.330 1_554 S
C56 N57 1.332 . S
C56 C60 1.381 . S
C56 H62 0.931 . S
N57 Cd54 2.334 . S
N57 C56 1.332 . S
N57 C61 1.328 . S
C58 C59 1.396 . S
C58 C61 1.378 . S
C58 H100 0.931 . S
C59 C58 1.396 . S
C59 C60 1.382 . S
C60 C56 1.381 . S
C60 C59 1.382 . S
C60 H101 0.930 . S
C61 N57 1.328 . S
C61 C58 1.378 . S
C61 H63 0.930 . S
H62 C56 0.931 . S
H63 C61 0.930 . S
C64 O90 1.238 . S
C64 O91 1.253 . S
C65 C66 1.379 . S
C65 N70 1.337 . S
C65 H71 0.929 . S
C66 C65 1.379 . S
C66 C67 1.380 . S
C66 H102 0.929 . S
C67 C66 1.380 . S
C67 C68 1.399 . S
C68 C67 1.399 . S
C68 C69 1.376 . S
C68 H103 0.931 . S
C69 C68 1.376 . S
C69 N70 1.338 . S
C69 H72 0.930 . S
N70 Cd55 2.304 . S
N70 C65 1.337 . S
N70 C69 1.338 . S
H71 C65 0.929 . S
H72 C69 0.930 . S
C73 N74 1.332 . S
C73 C77 1.381 . S
C73 H79 0.931 . S
N74 Cd55 2.334 . S
N74 C73 1.332 . S
N74 C78 1.328 . S
C75 C76 1.396 . S
C75 C78 1.378 . S
C75 H104 0.931 . S
C76 C75 1.396 . S
C76 C77 1.382 . S
C77 C73 1.381 . S
C77 C76 1.382 . S
C77 H105 0.930 . S
C78 N74 1.328 . S
C78 C75 1.378 . S
C78 H80 0.930 . S
H79 C73 0.931 . S
H80 C78 0.930 . S
C81 O92 1.238 . S
C81 O93 1.253 . S
C82 O94 1.239 . S
C82 O95 1.230 . S
N83 Cd54 2.304 . S
N83 C84 1.337 . S
N83 C88 1.338 . S
C84 N83 1.337 . S
C84 C85 1.379 . S
C84 H98 0.929 . S
C85 C84 1.379 . S
C85 C86 1.380 . S
C85 H106 0.929 . S
C86 C85 1.380 . S
C86 C87 1.399 . S
C87 C86 1.399 . S
C87 C88 1.376 . S
C87 H107 0.931 . S
C88 N83 1.338 . S
C88 C87 1.376 . S
C88 H99 0.930 . S
C89 O96 1.239 . S
C89 O97 1.230 . S
O90 Cd54 2.268 . S
O90 C64 1.238 . S
O91 Cd55 2.273 . S
O91 C64 1.253 . S
O92 Cd55 2.268 . S
O92 C81 1.238 . S
O93 Cd54 2.273 . S
O93 C81 1.253 . S
O94 Cd54 2.417 . S
O94 C82 1.239 . S
O95 Cd54 2.330 . S
O95 C82 1.230 . S
O96 Cd55 2.417 1_556 S
O96 C89 1.239 . S
O97 Cd55 2.330 1_556 S
O97 C89 1.230 . S
H98 C84 0.929 . S
H99 C88 0.930 . S
H100 C58 0.931 . S
H101 C60 0.930 . S
H102 C66 0.929 . S
H103 C68 0.931 . S
H104 C75 0.931 . S
H105 C77 0.930 . S
H106 C85 0.929 . S
H107 C87 0.931 . S
Cd108 N111 2.334 . S
Cd108 N137 2.304 . S
Cd108 O144 2.268 . S
Cd108 O147 2.273 . S
Cd108 O148 2.417 . S
Cd108 O149 2.330 . S
Cd109 N124 2.304 . S
Cd109 N128 2.334 . S
Cd109 O145 2.273 . S
Cd109 O146 2.268 . S
Cd109 O150 2.417 . S
Cd109 O151 2.330 . S
C110 N111 1.332 . S
C110 C114 1.381 . S
C110 H116 0.931 . S
N111 Cd108 2.334 . S
N111 C110 1.332 . S
N111 C115 1.328 . S
C112 C113 1.396 . S
C112 C115 1.378 . S
C112 H154 0.931 . S
C113 C112 1.396 . S
C113 C114 1.382 . S
C114 C110 1.381 . S
C114 C113 1.382 . S
C114 H155 0.930 . S
C115 N111 1.328 . S
C115 C112 1.378 . S
C115 H117 0.930 . S
H116 C110 0.931 . S
H117 C115 0.930 . S
C118 O144 1.238 . S
C118 O145 1.253 . S
C119 C120 1.379 1_455 S
C119 N124 1.337 . S
C119 H125 0.929 1_455 S
C120 C119 1.379 1_655 S
C120 C121 1.380 . S
C120 H156 0.929 . S
C121 C120 1.380 . S
C121 C122 1.399 1_645 S
C122 C121 1.399 1_465 S
C122 C123 1.376 1_565 S
C122 H157 0.931 . S
C123 C122 1.376 1_545 S
C123 N124 1.338 . S
C123 H126 0.930 . S
N124 Cd109 2.304 . S
N124 C119 1.337 . S
N124 C123 1.338 . S
H125 C119 0.929 1_655 S
H126 C123 0.930 . S
C127 N128 1.332 . S
C127 C131 1.381 . S
C127 H133 0.931 . S
N128 Cd109 2.334 . S
N128 C127 1.332 . S
N128 C132 1.328 . S
C129 C130 1.396 . S
C129 C132 1.378 . S
C129 H158 0.931 . S
C130 C129 1.396 . S
C130 C131 1.382 . S
C131 C127 1.381 . S
C131 C130 1.382 . S
C131 H159 0.930 . S
C132 N128 1.328 . S
C132 C129 1.378 . S
C132 H134 0.930 . S
H133 C127 0.931 . S
H134 C132 0.930 . S
C135 O146 1.238 . S
C135 O147 1.253 . S
C136 O148 1.239 . S
C136 O149 1.230 . S
N137 Cd108 2.304 . S
N137 C138 1.337 . S
N137 C142 1.338 . S
C138 N137 1.337 . S
C138 C139 1.379 1_545 S
C138 H152 0.929 1_545 S
C139 C138 1.379 1_565 S
C139 C140 1.380 . S
C139 H160 0.929 . S
C140 C139 1.380 . S
C140 C141 1.399 1_465 S
C141 C140 1.399 1_645 S
C141 C142 1.376 1_655 S
C141 H161 0.931 . S
C142 N137 1.338 . S
C142 C141 1.376 1_455 S
C142 H153 0.930 . S
C143 O150 1.239 . S
C143 O151 1.230 . S
O144 Cd108 2.268 . S
O144 C118 1.238 . S
O145 Cd109 2.273 . S
O145 C118 1.253 . S
O146 Cd109 2.268 . S
O146 C135 1.238 . S
O147 Cd108 2.273 . S
O147 C135 1.253 . S
O148 Cd108 2.417 . S
O148 C136 1.239 . S
O149 Cd108 2.330 . S
O149 C136 1.230 . S
O150 Cd109 2.417 . S
O150 C143 1.239 . S
O151 Cd109 2.330 . S
O151 C143 1.230 . S
H152 C138 0.929 1_565 S
H153 C142 0.930 . S
H154 C112 0.931 . S
H155 C114 0.930 . S
H156 C120 0.929 . S
H157 C122 0.931 . S
H158 C129 0.931 . S
H159 C131 0.930 . S
H160 C139 0.929 . S
H161 C141 0.931 . S
Cd162 N165 2.334 . S
Cd162 N191 2.304 . S
Cd162 O198 2.268 . S
Cd162 O201 2.273 . S
Cd162 O202 2.417 . S
Cd162 O203 2.330 . S
Cd163 N178 2.304 . S
Cd163 N182 2.334 . S
Cd163 O199 2.273 . S
Cd163 O200 2.268 . S
Cd163 O204 2.417 1_556 S
Cd163 O205 2.330 1_556 S
C164 N165 1.332 . S
C164 C168 1.381 . S
C164 H170 0.931 . S
N165 Cd162 2.334 . S
N165 C164 1.332 . S
N165 C169 1.328 . S
C166 C167 1.396 . S
C166 C169 1.378 . S
C166 H208 0.931 . S
C167 C166 1.396 . S
C167 C168 1.382 . S
C168 C164 1.381 . S
C168 C167 1.382 . S
C168 H209 0.930 . S
C169 N165 1.328 . S
C169 C166 1.378 . S
C169 H171 0.930 . S
H170 C164 0.931 . S
H171 C169 0.930 . S
C172 O198 1.238 . S
C172 O199 1.253 . S
C173 C174 1.379 . S
C173 N178 1.337 . S
C173 H179 0.929 . S
C174 C173 1.379 . S
C174 C175 1.380 . S
C174 H210 0.929 . S
C175 C174 1.380 . S
C175 C176 1.399 . S
C176 C175 1.399 . S
C176 C177 1.376 . S
C176 H211 0.931 . S
C177 C176 1.376 . S
C177 N178 1.338 . S
C177 H180 0.930 . S
N178 Cd163 2.304 . S
N178 C173 1.337 . S
N178 C177 1.338 . S
H179 C173 0.929 . S
H180 C177 0.930 . S
C181 N182 1.332 . S
C181 C185 1.381 . S
C181 H187 0.931 . S
N182 Cd163 2.334 . S
N182 C181 1.332 . S
N182 C186 1.328 . S
C183 C184 1.396 . S
C183 C186 1.378 . S
C183 H212 0.931 . S
C184 C183 1.396 . S
C184 C185 1.382 . S
C185 C181 1.381 . S
C185 C184 1.382 . S
C185 H213 0.930 . S
C186 N182 1.328 . S
C186 C183 1.378 . S
C186 H188 0.930 . S
H187 C181 0.931 . S
H188 C186 0.930 . S
C189 O200 1.238 . S
C189 O201 1.253 . S
C190 O202 1.239 . S
C190 O203 1.230 . S
N191 Cd162 2.304 . S
N191 C192 1.337 . S
N191 C196 1.338 . S
C192 N191 1.337 . S
C192 C193 1.379 . S
C192 H206 0.929 . S
C193 C192 1.379 . S
C193 C194 1.380 . S
C193 H214 0.929 . S
C194 C193 1.380 . S
C194 C195 1.399 . S
C195 C194 1.399 . S
C195 C196 1.376 . S
C195 H215 0.931 . S
C196 N191 1.338 . S
C196 C195 1.376 . S
C196 H207 0.930 . S
C197 O204 1.239 . S
C197 O205 1.230 . S
O198 Cd162 2.268 . S
O198 C172 1.238 . S
O199 Cd163 2.273 . S
O199 C172 1.253 . S
O200 Cd163 2.268 . S
O200 C189 1.238 . S
O201 Cd162 2.273 . S
O201 C189 1.253 . S
O202 Cd162 2.417 . S
O202 C190 1.239 . S
O203 Cd162 2.330 . S
O203 C190 1.230 . S
O204 Cd163 2.417 1_554 S
O204 C197 1.239 . S
O205 Cd163 2.330 1_554 S
O205 C197 1.230 . S
H206 C192 0.929 . S
H207 C196 0.930 . S
H208 C166 0.931 . S
H209 C168 0.930 . S
H210 C174 0.929 . S
H211 C176 0.931 . S
H212 C183 0.931 . S
H213 C185 0.930 . S
H214 C193 0.929 . S
H215 C195 0.931 . S
C28 C35 1.611 . S
C82 C89 1.611 . S
C143 C136 1.611 1_556 S
C197 C190 1.611 . S
C189 C22 4.233 . S
C76 C10 4.233 1_545 S
C113 C64 4.233 . S
C167 C135 4.233 1_565 S
C27 C184 4.233 1_655 S
C81 C5 4.233 . S
C59 C118 4.233 1_655 S
C130 C172 4.233 . S
C140 C32 1.775 . S
C86 C194 1.776 . S
C121 C13 1.777 . S
C67 C175 1.776 1_554 S
