# Generated by pormake.
# Topology mok, (4)-cn, num edge types: 1
# Building blocks:
#     Node 0, Type 0, BuildingBlock: QUQFOY_clean_sbu_3, # of connection points: 4
#     Node 1, Type 0, BuildingBlock: QUQFOY_clean_sbu_3, # of connection points: 4
#     Node 2, Type 0, BuildingBlock: QUQFOY_clean_sbu_3, # of connection points: 4
#     Node 3, Type 0, BuildingBlock: QUQFOY_clean_sbu_3, # of connection points: 4
#     Node 4, Type 0, BuildingBlock: QUQFOY_clean_sbu_3, # of connection points: 4
#     Node 5, Type 0, BuildingBlock: QUQFOY_clean_sbu_3, # of connection points: 4
#     Node 6, Type 0, BuildingBlock: QUQFOY_clean_sbu_3, # of connection points: 4
#     Node 7, Type 0, BuildingBlock: QUQFOY_clean_sbu_3, # of connection points: 4
#     Edge 8, Type (0, 0), None
#     Edge 9, Type (0, 0), None
#     Edge 10, Type (0, 0), None
#     Edge 11, Type (0, 0), None
#     Edge 12, Type (0, 0), None
#     Edge 13, Type (0, 0), None
#     Edge 14, Type (0, 0), None
#     Edge 15, Type (0, 0), None
#     Edge 16, Type (0, 0), None
#     Edge 17, Type (0, 0), None
#     Edge 18, Type (0, 0), None
#     Edge 19, Type (0, 0), None
#     Edge 20, Type (0, 0), None
#     Edge 21, Type (0, 0), None
#     Edge 22, Type (0, 0), None
#     Edge 23, Type (0, 0), None
# Relax obj value: 0.011
# Max RMSD: 0.033
# Mean RMSD: 0.033
data_MOF--net-mok--node1-QUQFOY_clean_sbu_3--edge1-none
_symmetry_space_group_name_H-M    P1
_symmetry_Int_Tables_number       1
_symmetry_cell_setting            triclinic
loop_
_symmetry_equiv_pos_as_xyz
'x, y, z'
_cell_length_a     25.990594
_cell_length_b     9.2520575
_cell_length_c     13.052714
_cell_angle_alpha  89.999886
_cell_angle_beta   90.000009
_cell_angle_gamma 89.992257
loop_
_atom_site_label
_atom_site_type_symbol
_atom_site_fract_x
_atom_site_fract_y
_atom_site_fract_z
_atom_type_partial_charge
C0 C 0.60176 0.39682 0.18963 0.0
O1 O 0.6178 0.5053 0.1393 0.0
Cd2 Cd 0.63906 0.49662 0.9604 0.0
O3 O 0.59025 0.27859 0.14518 0.0
Cd4 Cd 0.58212 0.18112 0.9688 0.0
C5 C 0.71291 0.18579 0.95337 0.0
O6 O 0.56374 0.40488 0.88008 0.0
O7 O 0.57827 0.22032 0.78302 0.0
O8 O 0.49508 0.08923 -0.00654 0.0
C9 C 0.56718 0.35332 0.79053 0.0
O10 O 0.71056 0.32325 0.94936 0.0
C11 C 0.50757 -0.0426 -0.01682 0.0
O12 O 0.67243 0.10912 0.96184 0.0
O13 O 0.55477 -0.07097 0.96812 0.0
C14 C 0.37456 0.40365 0.18963 0.0
O15 O 0.35853 0.29518 0.13931 0.0
Cd16 Cd 0.33726 0.30385 0.9604 0.0
O17 O 0.38607 0.52188 0.14518 0.0
Cd18 Cd 0.3942 0.61935 0.9688 0.0
C19 C 0.26341 0.61468 0.95337 0.0
O20 O 0.41258 0.39559 0.88008 0.0
O21 O 0.39805 0.58015 0.78302 0.0
O22 O 0.48125 0.71124 -0.00654 0.0
C23 C 0.40914 0.44716 0.79053 0.0
O24 O 0.26576 0.47722 0.94936 0.0
C25 C 0.46876 0.84307 -0.01683 0.0
O26 O 0.3039 0.69136 0.96184 0.0
O27 O 0.42155 0.87144 0.96812 0.0
C28 C 0.60176 0.40363 0.30148 0.0
O29 O 0.61783 0.29517 0.35179 0.0
Cd30 Cd 0.6391 0.30384 0.53068 0.0
O31 O 0.59025 0.52186 0.34593 0.0
Cd32 Cd 0.58213 0.6193 0.52232 0.0
C33 C 0.71291 0.61469 0.53774 0.0
O34 O 0.56377 0.39552 0.61102 0.0
O35 O 0.57827 0.58007 0.7081 0.0
O36 O 0.49508 0.71124 0.49768 0.0
C37 C 0.56721 0.44707 0.70057 0.0
O38 O 0.71058 0.4772 0.54174 0.0
C39 C 0.50757 0.84306 0.50797 0.0
O40 O 0.67242 0.69132 0.52928 0.0
O41 O 0.55477 0.8714 0.52302 0.0
C42 C 0.37456 0.39684 0.30148 0.0
O43 O 0.3585 0.5053 0.35179 0.0
Cd44 Cd 0.33722 0.49664 0.53068 0.0
O45 O 0.38608 0.27861 0.34593 0.0
Cd46 Cd 0.3942 0.18117 0.52232 0.0
C47 C 0.26341 0.18578 0.53774 0.0
O48 O 0.41256 0.40495 0.61102 0.0
O49 O 0.39806 0.2204 0.70811 0.0
O50 O 0.48125 0.08924 0.49768 0.0
C51 C 0.40912 0.3534 0.70057 0.0
O52 O 0.26574 0.32327 0.54174 0.0
C53 C 0.46876 -0.04259 0.50797 0.0
O54 O 0.3039 0.10915 0.52928 0.0
O55 O 0.42155 -0.07093 0.52302 0.0
C56 C 0.10176 0.89682 0.18963 0.0
O57 O 0.1178 0.00529 0.13931 0.0
Cd58 Cd 0.13906 -0.00337 0.96041 0.0
O59 O 0.09025 0.77859 0.14518 0.0
Cd60 Cd 0.08212 0.68112 0.96881 0.0
C61 C 0.21291 0.68579 0.95337 0.0
O62 O 0.06374 -0.09512 0.88009 0.0
O63 O 0.07827 0.72032 0.78302 0.0
O64 O -0.00492 0.58923 -0.00654 0.0
C65 C 0.06718 0.85332 0.79054 0.0
O66 O 0.21056 0.82325 0.94936 0.0
C67 C 0.00757 0.4574 -0.01681 0.0
O68 O 0.17243 0.60912 0.96184 0.0
O69 O 0.05477 0.42903 0.96813 0.0
C70 C 0.87456 -0.09635 0.18963 0.0
O71 O 0.85852 0.79518 0.13931 0.0
Cd72 Cd 0.83726 0.80385 0.96041 0.0
O73 O 0.88607 0.02188 0.14518 0.0
Cd74 Cd 0.8942 0.11935 0.9688 0.0
C75 C 0.76341 0.11468 0.95337 0.0
O76 O 0.91258 0.89559 0.88009 0.0
O77 O 0.89805 0.08015 0.78302 0.0
O78 O 0.98125 0.21124 -0.00654 0.0
C79 C 0.90914 -0.05285 0.79054 0.0
O80 O 0.76576 -0.02278 0.94936 0.0
C81 C 0.96876 0.34307 -0.01682 0.0
O82 O 0.8039 0.19136 0.96184 0.0
O83 O 0.92155 0.37144 0.96813 0.0
C84 C 0.10176 -0.09637 0.30148 0.0
O85 O 0.11783 0.79517 0.35179 0.0
Cd86 Cd 0.1391 0.80384 0.53069 0.0
O87 O 0.09025 0.02186 0.34594 0.0
Cd88 Cd 0.08213 0.1193 0.52233 0.0
C89 C 0.21291 0.1147 0.53775 0.0
O90 O 0.06377 0.89552 0.61102 0.0
O91 O 0.07827 0.08008 0.70811 0.0
O92 O -0.00492 0.21124 0.49769 0.0
C93 C 0.06721 -0.05292 0.70058 0.0
O94 O 0.21058 -0.0228 0.54174 0.0
C95 C 0.00757 0.34307 0.50797 0.0
O96 O 0.17242 0.19133 0.52929 0.0
O97 O 0.05477 0.37141 0.52303 0.0
C98 C 0.87456 0.89684 0.30148 0.0
O99 O 0.85849 0.0053 0.35179 0.0
Cd100 Cd 0.83722 -0.00337 0.53069 0.0
O101 O 0.88608 0.77861 0.34594 0.0
Cd102 Cd 0.8942 0.68117 0.52233 0.0
C103 C 0.76341 0.68577 0.53774 0.0
O104 O 0.91256 -0.09505 0.61102 0.0
O105 O 0.89805 0.7204 0.70811 0.0
O106 O 0.98124 0.58924 0.49769 0.0
C107 C 0.90911 0.8534 0.70058 0.0
O108 O 0.76574 0.82327 0.54174 0.0
C109 C 0.96876 0.45741 0.50798 0.0
O110 O 0.8039 0.60914 0.52929 0.0
O111 O 0.92155 0.42907 0.52303 0.0
loop_
_geom_bond_atom_site_label_1
_geom_bond_atom_site_label_2
_geom_bond_distance
_geom_bond_site_symmetry_2
_ccdc_geom_bond_type
C0 O1 1.306 . S
C0 O3 1.160 . S
O1 C0 1.306 . S
O1 Cd2 2.228 . S
Cd2 O1 2.228 . S
Cd2 O6 2.273 1_554 S
Cd2 O10 2.277 . S
O3 C0 1.160 . S
O3 Cd4 2.203 . S
Cd4 O3 2.203 . S
Cd4 O6 2.411 1_554 S
Cd4 O7 2.333 1_554 S
Cd4 O8 2.352 . S
Cd4 O12 2.277 . S
Cd4 O13 2.356 1_544 S
C5 O10 1.209 . S
C5 O12 1.226 . S
O6 Cd2 2.273 1_556 S
O6 Cd4 2.411 1_556 S
O6 C9 1.320 . S
O7 Cd4 2.333 1_556 S
O7 C9 1.214 . S
O8 Cd4 2.352 . S
O8 C11 1.258 . S
C9 O6 1.320 . S
C9 O7 1.214 . S
O10 Cd2 2.277 . S
O10 C5 1.209 . S
C11 O8 1.258 . S
C11 O13 1.282 1_544 S
O12 Cd4 2.277 . S
O12 C5 1.226 . S
O13 Cd4 2.356 1_566 S
O13 C11 1.282 1_566 S
C14 O15 1.306 . S
C14 O17 1.160 . S
O15 C14 1.306 . S
O15 Cd16 2.228 . S
Cd16 O15 2.228 . S
Cd16 O20 2.273 1_554 S
Cd16 O24 2.277 . S
O17 C14 1.160 . S
O17 Cd18 2.203 . S
Cd18 O17 2.203 . S
Cd18 O20 2.411 1_554 S
Cd18 O21 2.333 1_554 S
Cd18 O22 2.352 . S
Cd18 O26 2.277 . S
Cd18 O27 2.356 1_564 S
C19 O24 1.209 . S
C19 O26 1.226 . S
O20 Cd16 2.273 1_556 S
O20 Cd18 2.411 1_556 S
O20 C23 1.320 . S
O21 Cd18 2.333 1_556 S
O21 C23 1.214 . S
O22 Cd18 2.352 . S
O22 C25 1.258 . S
C23 O20 1.320 . S
C23 O21 1.214 . S
O24 Cd16 2.277 . S
O24 C19 1.209 . S
C25 O22 1.258 . S
C25 O27 1.282 1_564 S
O26 Cd18 2.277 . S
O26 C19 1.226 . S
O27 Cd18 2.356 1_546 S
O27 C25 1.282 1_546 S
C28 O29 1.306 . S
C28 O31 1.160 . S
O29 C28 1.306 . S
O29 Cd30 2.228 . S
Cd30 O29 2.228 . S
Cd30 O34 2.273 . S
Cd30 O38 2.277 . S
O31 C28 1.160 . S
O31 Cd32 2.203 . S
Cd32 O31 2.203 . S
Cd32 O34 2.411 . S
Cd32 O35 2.333 . S
Cd32 O36 2.352 . S
Cd32 O40 2.277 . S
Cd32 O41 2.356 1_565 S
C33 O38 1.209 . S
C33 O40 1.226 . S
O34 Cd30 2.273 . S
O34 Cd32 2.411 . S
O34 C37 1.320 . S
O35 Cd32 2.333 . S
O35 C37 1.214 . S
O36 Cd32 2.352 . S
O36 C39 1.258 . S
C37 O34 1.320 . S
C37 O35 1.214 . S
O38 Cd30 2.277 . S
O38 C33 1.209 . S
C39 O36 1.258 . S
C39 O41 1.282 1_565 S
O40 Cd32 2.277 . S
O40 C33 1.226 . S
O41 Cd32 2.356 1_545 S
O41 C39 1.282 1_545 S
C42 O43 1.306 . S
C42 O45 1.160 . S
O43 C42 1.306 . S
O43 Cd44 2.228 . S
Cd44 O43 2.228 . S
Cd44 O48 2.273 . S
Cd44 O52 2.277 . S
O45 C42 1.160 . S
O45 Cd46 2.203 . S
Cd46 O45 2.203 . S
Cd46 O48 2.411 . S
Cd46 O49 2.333 . S
Cd46 O50 2.352 . S
Cd46 O54 2.277 . S
Cd46 O55 2.356 1_545 S
C47 O52 1.209 . S
C47 O54 1.226 . S
O48 Cd44 2.273 . S
O48 Cd46 2.411 . S
O48 C51 1.320 . S
O49 Cd46 2.333 . S
O49 C51 1.214 . S
O50 Cd46 2.352 . S
O50 C53 1.258 . S
C51 O48 1.320 . S
C51 O49 1.214 . S
O52 Cd44 2.277 . S
O52 C47 1.209 . S
C53 O50 1.258 . S
C53 O55 1.282 1_545 S
O54 Cd46 2.277 . S
O54 C47 1.226 . S
O55 Cd46 2.356 1_565 S
O55 C53 1.282 1_565 S
C56 O57 1.306 1_565 S
C56 O59 1.160 . S
O57 C56 1.306 1_545 S
O57 Cd58 2.228 . S
Cd58 O57 2.228 . S
Cd58 O62 2.273 1_554 S
Cd58 O66 2.277 1_545 S
O59 C56 1.160 . S
O59 Cd60 2.203 . S
Cd60 O59 2.203 . S
Cd60 O62 2.411 1_564 S
Cd60 O63 2.333 1_554 S
Cd60 O64 2.352 . S
Cd60 O68 2.277 . S
Cd60 O69 2.356 1_554 S
C61 O66 1.209 . S
C61 O68 1.226 . S
O62 Cd58 2.273 1_556 S
O62 Cd60 2.411 1_546 S
O62 C65 1.320 1_545 S
O63 Cd60 2.333 1_556 S
O63 C65 1.214 . S
O64 Cd60 2.352 . S
O64 C67 1.258 . S
C65 O62 1.320 1_565 S
C65 O63 1.214 . S
O66 Cd58 2.277 1_565 S
O66 C61 1.209 . S
C67 O64 1.258 . S
C67 O69 1.282 1_554 S
O68 Cd60 2.277 . S
O68 C61 1.226 . S
O69 Cd60 2.356 1_556 S
O69 C67 1.282 1_556 S
C70 O71 1.306 1_545 S
C70 O73 1.160 . S
O71 C70 1.306 1_565 S
O71 Cd72 2.228 . S
Cd72 O71 2.228 . S
Cd72 O76 2.273 1_554 S
Cd72 O80 2.277 1_565 S
O73 C70 1.160 . S
O73 Cd74 2.203 . S
Cd74 O73 2.203 . S
Cd74 O76 2.411 1_544 S
Cd74 O77 2.333 1_554 S
Cd74 O78 2.352 . S
Cd74 O82 2.277 . S
Cd74 O83 2.356 1_554 S
C75 O80 1.209 . S
C75 O82 1.226 . S
O76 Cd72 2.273 1_556 S
O76 Cd74 2.411 1_566 S
O76 C79 1.320 1_565 S
O77 Cd74 2.333 1_556 S
O77 C79 1.214 . S
O78 Cd74 2.352 . S
O78 C81 1.258 . S
C79 O76 1.320 1_545 S
C79 O77 1.214 . S
O80 Cd72 2.277 1_545 S
O80 C75 1.209 . S
C81 O78 1.258 . S
C81 O83 1.282 1_554 S
O82 Cd74 2.277 . S
O82 C75 1.226 . S
O83 Cd74 2.356 1_556 S
O83 C81 1.282 1_556 S
C84 O85 1.306 1_545 S
C84 O87 1.160 . S
O85 C84 1.306 1_565 S
O85 Cd86 2.228 . S
Cd86 O85 2.228 . S
Cd86 O90 2.273 . S
Cd86 O94 2.277 1_565 S
O87 C84 1.160 . S
O87 Cd88 2.203 . S
Cd88 O87 2.203 . S
Cd88 O90 2.411 1_545 S
Cd88 O91 2.333 . S
Cd88 O92 2.352 . S
Cd88 O96 2.277 . S
Cd88 O97 2.356 . S
C89 O94 1.209 . S
C89 O96 1.226 . S
O90 Cd86 2.273 . S
O90 Cd88 2.411 1_565 S
O90 C93 1.320 1_565 S
O91 Cd88 2.333 . S
O91 C93 1.214 . S
O92 Cd88 2.352 . S
O92 C95 1.258 . S
C93 O90 1.320 1_545 S
C93 O91 1.214 . S
O94 Cd86 2.277 1_545 S
O94 C89 1.209 . S
C95 O92 1.258 . S
C95 O97 1.282 . S
O96 Cd88 2.277 . S
O96 C89 1.226 . S
O97 Cd88 2.356 . S
O97 C95 1.282 . S
C98 O99 1.306 1_565 S
C98 O101 1.160 . S
O99 C98 1.306 1_545 S
O99 Cd100 2.228 . S
Cd100 O99 2.228 . S
Cd100 O104 2.273 . S
Cd100 O108 2.277 1_545 S
O101 C98 1.160 . S
O101 Cd102 2.203 . S
Cd102 O101 2.203 . S
Cd102 O104 2.411 1_565 S
Cd102 O105 2.333 . S
Cd102 O106 2.352 . S
Cd102 O110 2.277 . S
Cd102 O111 2.356 . S
C103 O108 1.209 . S
C103 O110 1.226 . S
O104 Cd100 2.273 . S
O104 Cd102 2.411 1_545 S
O104 C107 1.320 1_545 S
O105 Cd102 2.333 . S
O105 C107 1.214 . S
O106 Cd102 2.352 . S
O106 C109 1.258 . S
C107 O104 1.320 1_565 S
C107 O105 1.214 . S
O108 Cd100 2.277 1_565 S
O108 C103 1.209 . S
C109 O106 1.258 . S
C109 O111 1.282 . S
O110 Cd102 2.277 . S
O110 C103 1.226 . S
O111 Cd102 2.356 . S
O111 C109 1.282 . S
C75 C5 1.499 . S
C61 C19 1.499 . S
C103 C33 1.499 . S
C89 C47 1.499 . S
C0 C28 1.467 . S
C14 C42 1.467 . S
C23 C51 1.422 . S
C9 C37 1.422 . S
C56 C84 1.467 1_565 S
C98 C70 1.467 1_565 S
C107 C79 1.422 1_565 S
C65 C93 1.422 1_565 S
C25 C11 1.491 1_565 S
C39 C53 1.491 1_565 S
C67 C81 1.491 1_455 S
C95 C109 1.491 1_455 S
