# Generated by pormake.
# Topology pcu, (6)-cn, num edge types: 1
# Building blocks:
#     Node 0, Type 0, BuildingBlock: INOVEN_clean_sbu_0, # of connection points: 6
#     Edge 1, Type (0, 0), BuildingBlock: MIFKUJ_clean_linker_0, # of connection points: 2
#     Edge 2, Type (0, 0), BuildingBlock: MIFKUJ_clean_linker_0, # of connection points: 2
#     Edge 3, Type (0, 0), BuildingBlock: MIFKUJ_clean_linker_0, # of connection points: 2
# Relax obj value: 0.000
# Max RMSD: 0.000
# Mean RMSD: 0.000
data_MOF--net-pcu--node1-INOVEN_clean_sbu_0--edge1-MIFKUJ_clean_linker_0
_symmetry_space_group_name_H-M    P1
_symmetry_Int_Tables_number       1
_symmetry_cell_setting            triclinic
loop_
_symmetry_equiv_pos_as_xyz
'x, y, z'
_cell_length_a     29.891419
_cell_length_b     19.86221
_cell_length_c     18.820746
_cell_angle_alpha  85.160779
_cell_angle_beta   97.585422
_cell_angle_gamma 124.59329
loop_
_atom_site_label
_atom_site_type_symbol
_atom_site_fract_x
_atom_site_fract_y
_atom_site_fract_z
_atom_type_partial_charge
Gd0 Gd 0.96404 0.93729 0.0232 0.0
Gd1 Gd 0.08539 0.03924 1.00248 0.0
C2 C 0.02871 0.13428 0.99137 0.0
C3 C 0.87034 0.88447 0.0657 0.0
C4 C 0.82948 0.90541 0.05538 0.0
C5 C 0.79525 0.88793 0.99095 0.0
C6 C 0.82274 0.93998 0.11175 0.0
C7 C 0.74701 0.93626 0.04057 0.0
C8 C 0.78209 0.9554 0.10447 0.0
C9 C 0.75464 0.90334 0.98362 0.0
C10 C 0.98604 0.94499 0.88719 0.0
C11 C 1.0207 0.84222 0.0341 0.0
C12 C 0.17924 0.09226 0.96037 0.0
C13 C 0.22004 0.0712 0.97063 0.0
C14 C 0.25428 0.08863 0.03505 0.0
C15 C 0.22674 0.03662 0.91423 0.0
C16 C 0.30244 0.04021 0.98537 0.0
C17 C 0.26736 0.02113 0.92148 0.0
C18 C 0.29484 0.07314 0.04234 0.0
C19 C 0.06305 0.03139 0.13843 0.0
O20 O 0.98614 0.06674 0.01613 0.0
O21 O 0.07074 0.13694 0.97277 0.0
O22 O 0.87594 0.85438 1.01083 0.0
O23 O 0.917 0.93578 0.10262 0.0
O24 O 0.94448 0.88145 0.91464 0.0
O25 O 1.01119 0.0032 0.93083 0.0
O26 O 0.06325 0.90978 1.00933 0.0
O27 O 0.97869 0.83957 0.05277 0.0
O28 O 0.17349 0.12197 0.01538 0.0
O29 O 0.13266 0.04125 0.92313 0.0
O30 O 0.10457 0.09509 0.11105 0.0
O31 O 0.03826 0.97331 0.09472 0.0
H32 H 0.7993 0.86146 0.94625 0.0
H33 H 0.84842 0.9539 0.16201 0.0
H34 H 0.77722 0.98016 0.1497 0.0
H35 H 0.72911 0.88926 0.93319 0.0
H36 H 0.25026 0.11511 0.07977 0.0
H37 H 0.20107 0.02275 0.86397 0.0
H38 H 0.2722 -0.00364 0.87622 0.0
H39 H 0.32038 0.08718 0.09277 0.0
H40 H 0.98238 0.89807 0.20656 0.0
H41 H 0.96882 0.88404 0.33401 0.0
H42 H 0.10846 0.13219 0.36914 0.0
H43 H 0.12215 0.14649 0.24192 0.0
H44 H 0.11115 0.02712 0.46946 0.0
H45 H 0.98207 0.08697 0.36548 0.0
H46 H 0.90486 0.06945 0.28333 0.0
H47 H 0.79809 0.82784 0.36816 0.0
H48 H 0.87491 0.84324 0.45002 0.0
H49 H 0.06673 0.07799 0.81884 0.0
H50 H 0.08014 0.09173 0.69138 0.0
H51 H 0.94021 0.84372 0.65658 0.0
H52 H 0.92664 0.82974 0.78383 0.0
H53 H 0.93762 0.94851 0.55607 0.0
H54 H 0.06673 0.8888 0.66022 0.0
H55 H 0.14396 0.90646 0.74243 0.0
H56 H 0.2507 0.14792 0.65731 0.0
H57 H 0.17387 0.13237 0.57538 0.0
C58 C 1.00993 0.94971 0.24146 0.0
C59 C 0.05331 0.02336 0.2145 0.0
C60 C 1.00211 0.94171 0.31416 0.0
C61 C 0.03752 0.00722 0.36103 0.0
C62 C 0.08074 0.08085 0.33398 0.0
C63 C 0.0884 0.089 0.2613 0.0
C64 C 0.03022 -0.00141 0.43854 0.0
C65 C 0.07347 0.01102 0.48849 0.0
C66 C 0.98059 0.9757 0.46318 0.0
C67 C 0.93441 0.96599 0.41346 0.0
C68 C 0.94227 0.02976 0.36616 0.0
C69 C 0.89853 0.0203 0.31975 0.0
C70 C 0.8466 0.94762 0.32056 0.0
C71 C 0.83834 0.88412 0.36762 0.0
C72 C 0.88196 0.89318 0.41404 0.0
C73 C 0.03908 0.02631 0.78401 0.0
C74 C 0.99565 0.9528 0.81109 0.0
C75 C 0.04682 0.03414 0.7113 0.0
C76 C 1.0113 0.96858 0.66452 0.0
C77 C 0.96802 0.89509 0.69167 0.0
C78 C 0.96043 0.88712 0.76437 0.0
C79 C 1.01856 0.97705 0.587 0.0
C80 C 0.97529 0.96459 0.53705 0.0
C81 C 0.06818 -8e-05 0.56235 0.0
C82 C 0.11437 0.00969 0.61207 0.0
C83 C 0.10653 0.94599 0.65948 0.0
C84 C 0.15028 0.95554 0.70594 0.0
C85 C 0.2022 0.02822 0.70506 0.0
C86 C 0.21045 0.09163 0.65789 0.0
C87 C 0.16682 0.08249 0.61143 0.0
H88 H 0.23606 0.03535 0.74084 0.0
H89 H 0.81274 0.94055 0.28482 0.0
H90 H 0.30132 0.91311 0.93538 0.0
H91 H 0.37661 0.89581 0.9442 0.0
H92 H 0.48117 0.12167 0.06041 0.0
H93 H 0.40679 0.14089 0.04944 0.0
H94 H 0.53412 0.11443 0.96199 0.0
H95 H 0.42525 0.93349 0.14584 0.0
H96 H 0.3409 0.82123 0.19533 0.0
H97 H 0.32827 0.652 0.05291 0.0
H98 H 0.41221 0.76351 1.00191 0.0
H99 H 0.74806 0.0633 0.09052 0.0
H100 H 0.67274 0.08053 0.08164 0.0
H101 H 0.56827 0.85468 0.96542 0.0
H102 H 0.64268 0.83552 0.97645 0.0
H103 H 0.51526 0.86188 0.0638 0.0
H104 H 0.62415 0.04283 0.87998 0.0
H105 H 0.7085 0.15509 0.83051 0.0
H106 H 0.7211 0.32432 0.9729 0.0
H107 H 0.63715 0.2128 0.02388 0.0
C108 C 0.3404 0.95936 0.96242 0.0
C109 C 0.34777 0.02818 0.99198 0.0
C110 C 0.38334 0.94901 0.96804 0.0
C111 C 0.4345 0.00697 1.00376 0.0
C112 C 0.44207 0.07595 0.03285 0.0
C113 C 0.39924 0.0864 0.02715 0.0
C114 C 0.48041 -0.00353 1.01007 0.0
C115 C 0.53019 0.05963 0.98514 0.0
C116 C 0.47506 0.92425 0.03877 0.0
C117 C 0.42471 0.85703 0.06957 0.0
C118 C 0.40426 0.87246 0.1247 0.0
C119 C 0.35656 0.80894 0.15308 0.0
C120 C 0.32915 0.72958 0.12713 0.0
C121 C 0.34949 0.71353 0.07288 0.0
C122 C 0.39716 0.77685 0.04427 0.0
C123 C 0.70899 0.01704 0.06346 0.0
C124 C 0.70166 0.94824 0.03391 0.0
C125 C 0.66604 0.02735 0.05782 0.0
C126 C 0.61489 0.96938 0.02208 0.0
C127 C 0.60735 0.90041 0.993 0.0
C128 C 0.6502 0.88999 0.99873 0.0
C129 C 0.56896 0.97985 0.01572 0.0
C130 C 0.51918 0.91668 0.04065 0.0
C131 C 0.57432 0.05206 0.98703 0.0
C132 C 0.62467 0.11929 0.95623 0.0
C133 C 0.64513 0.10386 0.90112 0.0
C134 C 0.69283 0.16738 0.87274 0.0
C135 C 0.72023 0.24674 0.8987 0.0
C136 C 0.69989 0.26279 0.95293 0.0
C137 C 0.65222 0.19947 0.98153 0.0
H138 H 0.75716 0.29584 0.87666 0.0
H139 H 0.29223 0.68049 0.14917 0.0
H140 H 0.10885 0.83373 0.06075 0.0
H141 H 0.11019 0.71221 0.05778 0.0
H142 H 0.93448 0.56305 0.01363 0.0
H143 H 0.93283 0.68419 0.02053 0.0
H144 H 0.96587 0.48284 0.09771 0.0
H145 H 1.02449 0.64063 0.87878 0.0
H146 H 0.08266 0.7668 0.8099 0.0
H147 H 0.22466 0.77141 0.89657 0.0
H148 H 0.16751 0.64632 0.96717 0.0
H149 H 0.94055 0.14276 0.96466 0.0
H150 H 0.93921 0.26428 0.96764 0.0
H151 H 0.11491 0.41345 1.01183 0.0
H152 H 0.11657 0.29231 1.00492 0.0
H153 H 0.08351 0.49365 0.92774 0.0
H154 H 0.02485 0.33576 0.14663 0.0
H155 H 0.96664 0.20956 0.21547 0.0
H156 H 0.8247 0.20512 0.12884 0.0
H157 H 0.88188 0.33022 0.05828 0.0
C158 C 0.07049 0.77477 0.05139 0.0
C159 C 1.02075 0.76808 0.04014 0.0
C160 C 0.0713 0.70552 0.04931 0.0
C161 C 1.02258 0.62897 0.03331 0.0
C162 C 0.9726 0.62164 0.02552 0.0
C163 C 0.97166 0.69073 0.02943 0.0
C164 C 1.02388 0.55736 0.02146 0.0
C165 C 0.99111 0.48489 0.05997 0.0
C166 C 0.05761 0.56059 0.97306 0.0
C167 C 0.09174 0.63442 0.92872 0.0
C168 C 0.06816 0.66876 0.88337 0.0
C169 C 0.10098 0.74022 0.84413 0.0
C170 C 0.15739 0.7774 0.84913 0.0
C171 C 0.18102 0.74286 0.89301 0.0
C172 C 0.14843 0.67163 0.93261 0.0
C173 C 0.97891 0.20173 0.97402 0.0
C174 C 0.02865 0.20843 0.98529 0.0
C175 C 0.97809 0.27097 0.97611 0.0
C176 C 0.02681 0.34752 0.99213 0.0
C177 C 0.07679 0.35485 0.99993 0.0
C178 C 0.07774 0.28578 0.99601 0.0
C179 C 0.0255 0.41912 1.00399 0.0
C180 C 0.05827 0.4916 0.96549 0.0
C181 C 0.99177 0.41589 0.05239 0.0
C182 C 0.95763 0.34204 0.09671 0.0
C183 C 0.98119 0.30766 0.14204 0.0
C184 C 0.94834 0.23618 0.18126 0.0
C185 C 0.89193 0.19905 0.17626 0.0
C186 C 0.86833 0.23364 0.1324 0.0
C187 C 0.90094 0.30487 0.09282 0.0
H188 H 0.86651 0.14361 0.20647 0.0
H189 H 0.1828 0.83282 0.8189 0.0
loop_
_geom_bond_atom_site_label_1
_geom_bond_atom_site_label_2
_geom_bond_distance
_geom_bond_site_symmetry_2
_ccdc_geom_bond_type
Gd0 C3 2.818 . S
Gd0 O20 2.377 1_565 S
Gd0 O22 2.448 . S
Gd0 O23 2.506 1_556 S
Gd0 O24 2.435 . S
Gd0 O25 2.717 1_665 S
Gd0 O27 2.395 . S
Gd0 O31 2.327 1_556 S
Gd1 C12 2.818 . S
Gd1 O21 2.395 . S
Gd1 O25 2.327 1_554 S
Gd1 O26 2.377 1_545 S
Gd1 O28 2.448 . S
Gd1 O29 2.506 1_554 S
Gd1 O30 2.435 . S
Gd1 O31 2.717 1_445 S
C2 O20 1.240 1_455 S
C2 O21 1.240 1_556 S
C3 Gd0 2.818 . S
C3 C4 1.510 . S
C3 O22 1.249 . S
C3 O23 1.252 1_556 S
C4 C3 1.510 . S
C4 C5 1.404 . S
C4 C6 1.352 1_566 S
C5 C4 1.404 . S
C5 C9 1.389 . S
C5 H32 0.930 . S
C6 C4 1.352 1_544 S
C6 C8 1.374 . S
C6 H33 0.931 . S
C7 C8 1.359 1_565 S
C7 C9 1.364 1_554 S
C8 C6 1.374 . S
C8 C7 1.359 1_545 S
C8 H34 0.931 . S
C9 C5 1.389 . S
C9 C7 1.364 1_556 S
C9 H35 0.931 . S
C10 O24 1.256 . S
C10 O25 1.257 1_665 S
C11 O26 1.240 1_655 S
C11 O27 1.240 1_554 S
C12 Gd1 2.818 . S
C12 C13 1.510 . S
C12 O28 1.249 . S
C12 O29 1.252 1_554 S
C13 C12 1.510 . S
C13 C14 1.404 . S
C13 C15 1.352 1_544 S
C14 C13 1.404 . S
C14 C18 1.389 . S
C14 H36 0.930 . S
C15 C13 1.352 1_566 S
C15 C17 1.374 . S
C15 H37 0.931 . S
C16 C17 1.359 1_545 S
C16 C18 1.364 1_556 S
C17 C15 1.374 . S
C17 C16 1.359 1_565 S
C17 H38 0.931 . S
C18 C14 1.389 . S
C18 C16 1.364 1_554 S
C18 H39 0.931 . S
C19 O30 1.256 . S
C19 O31 1.257 1_445 S
O20 Gd0 2.377 1_545 S
O20 C2 1.240 1_655 S
O21 Gd1 2.395 . S
O21 C2 1.240 1_554 S
O22 Gd0 2.448 . S
O22 C3 1.249 . S
O23 Gd0 2.506 1_554 S
O23 C3 1.252 1_554 S
O24 Gd0 2.435 . S
O24 C10 1.256 . S
O25 Gd0 2.717 1_445 S
O25 Gd1 2.327 1_556 S
O25 C10 1.257 1_445 S
O26 Gd1 2.377 1_565 S
O26 C11 1.240 1_455 S
O27 Gd0 2.395 . S
O27 C11 1.240 1_556 S
O28 Gd1 2.448 . S
O28 C12 1.249 . S
O29 Gd1 2.506 1_556 S
O29 C12 1.252 1_556 S
O30 Gd1 2.435 . S
O30 C19 1.256 . S
O31 Gd0 2.327 1_554 S
O31 Gd1 2.717 1_665 S
O31 C19 1.257 1_665 S
H32 C5 0.930 . S
H33 C6 0.931 . S
H34 C8 0.931 . S
H35 C9 0.931 . S
H36 C14 0.930 . S
H37 C15 0.931 . S
H38 C17 0.931 . S
H39 C18 0.931 . S
H40 C58 0.951 . S
H41 C60 0.951 . S
H42 C62 0.950 . S
H43 C63 0.950 . S
H44 C65 0.950 . S
H45 C68 0.950 . S
H46 C69 0.950 . S
H47 C71 0.950 . S
H48 C72 0.950 . S
H49 C73 0.951 . S
H50 C75 0.951 . S
H51 C77 0.950 . S
H52 C78 0.950 . S
H53 C80 0.950 . S
H54 C83 0.950 . S
H55 C84 0.950 . S
H56 C86 0.950 . S
H57 C87 0.950 . S
C58 H40 0.951 . S
C58 C59 1.365 1_665 S
C58 C60 1.388 . S
C59 C58 1.365 1_445 S
C59 C63 1.385 . S
C60 H41 0.951 . S
C60 C58 1.388 . S
C60 C61 1.368 1_565 S
C61 C60 1.368 1_545 S
C61 C62 1.411 1_655 S
C61 C64 1.499 1_655 S
C62 H42 0.950 . S
C62 C61 1.411 1_455 S
C62 C63 1.374 . S
C63 H43 0.950 . S
C63 C59 1.385 . S
C63 C62 1.374 . S
C64 C61 1.499 1_455 S
C64 C65 1.373 1_545 S
C64 C66 1.389 1_455 S
C65 H44 0.950 . S
C65 C64 1.373 1_565 S
C65 C81 1.377 . S
C66 C64 1.389 1_655 S
C66 C67 1.524 . S
C66 C80 1.377 . S
C67 C66 1.524 . S
C67 C68 1.397 . S
C67 C72 1.363 1_545 S
C68 H45 0.950 . S
C68 C67 1.397 . S
C68 C69 1.334 . S
C69 H46 0.950 . S
C69 C68 1.334 . S
C69 C70 1.287 . S
C70 C69 1.287 . S
C70 C71 1.524 1_545 S
C70 H89 0.913 . S
C71 H47 0.950 . S
C71 C70 1.524 1_565 S
C71 C72 1.415 . S
C72 H48 0.950 . S
C72 C67 1.363 1_565 S
C72 C71 1.415 . S
C73 H49 0.951 . S
C73 C74 1.365 . S
C73 C75 1.388 . S
C74 C73 1.365 . S
C74 C78 1.385 1_445 S
C75 H50 0.951 . S
C75 C73 1.388 . S
C75 C76 1.371 1_545 S
C76 C75 1.371 1_565 S
C76 C77 1.407 1_455 S
C76 C79 1.500 1_455 S
C77 H51 0.950 . S
C77 C76 1.407 1_655 S
C77 C78 1.374 . S
C78 H52 0.950 . S
C78 C74 1.385 1_665 S
C78 C77 1.374 . S
C79 C76 1.500 1_655 S
C79 C80 1.373 1_565 S
C79 C81 1.389 1_655 S
C80 H53 0.950 . S
C80 C66 1.377 . S
C80 C79 1.373 1_545 S
C81 C65 1.377 . S
C81 C79 1.389 1_455 S
C81 C82 1.524 . S
C82 C81 1.524 . S
C82 C83 1.397 . S
C82 C87 1.363 1_565 S
C83 H54 0.950 . S
C83 C82 1.397 . S
C83 C84 1.334 . S
C84 H55 0.950 . S
C84 C83 1.334 . S
C84 C85 1.287 . S
C85 C84 1.287 . S
C85 C86 1.524 1_565 S
C85 H88 0.999 . S
C86 H56 0.950 . S
C86 C85 1.524 1_545 S
C86 C87 1.415 . S
C87 H57 0.950 . S
C87 C82 1.363 1_545 S
C87 C86 1.415 . S
H88 C85 0.999 . S
H89 C70 0.913 . S
H90 C108 0.951 . S
H91 C110 0.951 . S
H92 C112 0.950 . S
H93 C113 0.950 . S
H94 C115 0.950 . S
H95 C118 0.950 . S
H96 C119 0.950 . S
H97 C121 0.950 . S
H98 C122 0.950 . S
H99 C123 0.951 . S
H100 C125 0.951 . S
H101 C127 0.950 . S
H102 C128 0.950 . S
H103 C130 0.950 . S
H104 C133 0.950 . S
H105 C134 0.950 . S
H106 C136 0.950 . S
H107 C137 0.950 . S
C108 H90 0.951 . S
C108 C109 1.365 1_566 S
C108 C110 1.388 . S
C109 C108 1.365 1_544 S
C109 C113 1.385 . S
C110 H91 0.951 . S
C110 C108 1.388 . S
C110 C111 1.366 1_556 S
C111 C110 1.366 1_554 S
C111 C112 1.414 1_565 S
C111 C114 1.506 1_565 S
C112 H92 0.950 . S
C112 C111 1.414 1_545 S
C112 C113 1.374 . S
C113 H93 0.950 . S
C113 C109 1.385 . S
C113 C112 1.374 . S
C114 C111 1.506 1_545 S
C114 C115 1.377 1_554 S
C114 C116 1.378 1_545 S
C115 H94 0.950 . S
C115 C114 1.377 1_556 S
C115 C131 1.377 . S
C116 C114 1.378 1_565 S
C116 C117 1.524 . S
C116 C130 1.377 . S
C117 C116 1.524 . S
C117 C118 1.397 . S
C117 C122 1.363 . S
C118 H95 0.950 . S
C118 C117 1.397 . S
C118 C119 1.334 . S
C119 H96 0.950 . S
C119 C118 1.334 . S
C119 C120 1.287 . S
C120 C119 1.287 . S
C120 C121 1.524 . S
C120 H139 0.913 . S
C121 H97 0.950 . S
C121 C120 1.524 . S
C121 C122 1.415 . S
C122 H98 0.950 . S
C122 C117 1.363 . S
C122 C121 1.415 . S
C123 H99 0.951 . S
C123 C124 1.365 . S
C123 C125 1.388 . S
C124 C123 1.365 . S
C124 C128 1.385 1_544 S
C125 H100 0.951 . S
C125 C123 1.388 . S
C125 C126 1.366 1_554 S
C126 C125 1.366 1_556 S
C126 C127 1.414 1_545 S
C126 C129 1.503 1_545 S
C127 H101 0.950 . S
C127 C126 1.414 1_565 S
C127 C128 1.374 . S
C128 H102 0.950 . S
C128 C124 1.385 1_566 S
C128 C127 1.374 . S
C129 C126 1.503 1_565 S
C129 C130 1.376 1_556 S
C129 C131 1.382 1_565 S
C130 H103 0.950 . S
C130 C116 1.377 . S
C130 C129 1.376 1_554 S
C131 C115 1.377 . S
C131 C129 1.382 1_545 S
C131 C132 1.524 . S
C132 C131 1.524 . S
C132 C133 1.397 . S
C132 C137 1.363 . S
C133 H104 0.950 . S
C133 C132 1.397 . S
C133 C134 1.334 . S
C134 H105 0.950 . S
C134 C133 1.334 . S
C134 C135 1.287 . S
C135 C134 1.287 . S
C135 C136 1.524 . S
C135 H138 0.999 . S
C136 H106 0.950 . S
C136 C135 1.524 . S
C136 C137 1.415 . S
C137 H107 0.950 . S
C137 C132 1.363 . S
C137 C136 1.415 . S
H138 C135 0.999 . S
H139 C120 0.913 . S
H140 C158 0.951 . S
H141 C160 0.949 . S
H142 C162 0.950 . S
H143 C163 0.950 . S
H144 C165 0.950 . S
H145 C168 0.950 1_655 S
H146 C169 0.950 . S
H147 C171 0.950 . S
H148 C172 0.950 . S
H149 C173 0.951 . S
H150 C175 0.949 . S
H151 C177 0.950 . S
H152 C178 0.950 . S
H153 C180 0.950 . S
H154 C183 0.950 1_455 S
H155 C184 0.950 . S
H156 C186 0.950 . S
H157 C187 0.950 . S
C158 H140 0.951 . S
C158 C159 1.366 . S
C158 C160 1.387 1_554 S
C159 C158 1.366 . S
C159 C163 1.385 1_454 S
C160 H141 0.949 . S
C160 C158 1.387 1_556 S
C160 C161 1.363 1_455 S
C161 C160 1.363 1_655 S
C161 C162 1.419 . S
C161 C164 1.495 . S
C162 H142 0.950 . S
C162 C161 1.419 . S
C162 C163 1.374 . S
C163 H143 0.950 . S
C163 C159 1.385 1_656 S
C163 C162 1.374 . S
C164 C161 1.495 . S
C164 C165 1.373 1_556 S
C164 C166 1.389 1_655 S
C165 H144 0.950 . S
C165 C164 1.373 1_554 S
C165 C181 1.377 . S
C166 C164 1.389 1_455 S
C166 C167 1.524 . S
C166 C180 1.377 . S
C167 C166 1.524 . S
C167 C168 1.397 . S
C167 C172 1.363 . S
C168 H145 0.950 1_455 S
C168 C167 1.397 . S
C168 C169 1.334 . S
C169 H146 0.950 . S
C169 C168 1.334 . S
C169 C170 1.287 . S
C170 C169 1.287 . S
C170 C171 1.524 . S
C170 H189 0.913 . S
C171 H147 0.950 . S
C171 C170 1.524 . S
C171 C172 1.415 . S
C172 H148 0.950 . S
C172 C167 1.363 . S
C172 C171 1.415 . S
C173 H149 0.951 . S
C173 C174 1.366 1_655 S
C173 C175 1.387 1_556 S
C174 C173 1.366 1_455 S
C174 C178 1.385 1_556 S
C175 H150 0.949 . S
C175 C173 1.387 1_554 S
C175 C176 1.361 1_655 S
C176 C175 1.361 1_455 S
C176 C177 1.426 . S
C176 C179 1.492 . S
C177 H151 0.950 . S
C177 C176 1.426 . S
C177 C178 1.374 . S
C178 H152 0.950 . S
C178 C174 1.385 1_554 S
C178 C177 1.374 . S
C179 C176 1.492 . S
C179 C180 1.373 1_554 S
C179 C181 1.389 1_455 S
C180 H153 0.950 . S
C180 C166 1.377 . S
C180 C179 1.373 1_556 S
C181 C165 1.377 . S
C181 C179 1.389 1_655 S
C181 C182 1.524 . S
C182 C181 1.524 . S
C182 C183 1.397 . S
C182 C187 1.363 . S
C183 H154 0.950 1_655 S
C183 C182 1.397 . S
C183 C184 1.334 . S
C184 H155 0.950 . S
C184 C183 1.334 . S
C184 C185 1.287 . S
C185 C184 1.287 . S
C185 C186 1.524 . S
C185 H188 0.999 . S
C186 H156 0.950 . S
C186 C185 1.524 . S
C186 C187 1.415 . S
C187 H157 0.950 . S
C187 C182 1.363 . S
C187 C186 1.415 . S
H188 C185 0.999 . S
H189 C170 0.913 . S
C59 C19 1.459 . S
C74 C10 1.459 1_445 S
C109 C16 1.500 1_554 S
C124 C7 1.500 1_545 S
C159 C11 1.496 1_455 S
C174 C2 1.495 . S
