# Generated by pormake.
# Topology pcb, (4)-cn, num edge types: 1
# Building blocks:
#     Node 0, Type 0, BuildingBlock: NAHDIM_clean_sbu_0, # of connection points: 4
#     Node 1, Type 0, BuildingBlock: NAHDIM_clean_sbu_0, # of connection points: 4
#     Node 2, Type 0, BuildingBlock: NAHDIM_clean_sbu_0, # of connection points: 4
#     Node 3, Type 0, BuildingBlock: NAHDIM_clean_sbu_0, # of connection points: 4
#     Node 4, Type 0, BuildingBlock: NAHDIM_clean_sbu_0, # of connection points: 4
#     Node 5, Type 0, BuildingBlock: NAHDIM_clean_sbu_0, # of connection points: 4
#     Node 6, Type 0, BuildingBlock: NAHDIM_clean_sbu_0, # of connection points: 4
#     Node 7, Type 0, BuildingBlock: NAHDIM_clean_sbu_0, # of connection points: 4
#     Node 8, Type 0, BuildingBlock: NAHDIM_clean_sbu_0, # of connection points: 4
#     Node 9, Type 0, BuildingBlock: NAHDIM_clean_sbu_0, # of connection points: 4
#     Node 10, Type 0, BuildingBlock: NAHDIM_clean_sbu_0, # of connection points: 4
#     Node 11, Type 0, BuildingBlock: NAHDIM_clean_sbu_0, # of connection points: 4
#     Node 12, Type 0, BuildingBlock: NAHDIM_clean_sbu_0, # of connection points: 4
#     Node 13, Type 0, BuildingBlock: NAHDIM_clean_sbu_0, # of connection points: 4
#     Node 14, Type 0, BuildingBlock: NAHDIM_clean_sbu_0, # of connection points: 4
#     Node 15, Type 0, BuildingBlock: NAHDIM_clean_sbu_0, # of connection points: 4
#     Edge 16, Type (0, 0), None
#     Edge 17, Type (0, 0), None
#     Edge 18, Type (0, 0), None
#     Edge 19, Type (0, 0), None
#     Edge 20, Type (0, 0), None
#     Edge 21, Type (0, 0), None
#     Edge 22, Type (0, 0), None
#     Edge 23, Type (0, 0), None
#     Edge 24, Type (0, 0), None
#     Edge 25, Type (0, 0), None
#     Edge 26, Type (0, 0), None
#     Edge 27, Type (0, 0), None
#     Edge 28, Type (0, 0), None
#     Edge 29, Type (0, 0), None
#     Edge 30, Type (0, 0), None
#     Edge 31, Type (0, 0), None
#     Edge 32, Type (0, 0), None
#     Edge 33, Type (0, 0), None
#     Edge 34, Type (0, 0), None
#     Edge 35, Type (0, 0), None
#     Edge 36, Type (0, 0), None
#     Edge 37, Type (0, 0), None
#     Edge 38, Type (0, 0), None
#     Edge 39, Type (0, 0), None
#     Edge 40, Type (0, 0), None
#     Edge 41, Type (0, 0), None
#     Edge 42, Type (0, 0), None
#     Edge 43, Type (0, 0), None
#     Edge 44, Type (0, 0), None
#     Edge 45, Type (0, 0), None
#     Edge 46, Type (0, 0), None
#     Edge 47, Type (0, 0), None
# Relax obj value: 0.186
# Max RMSD: 0.107
# Mean RMSD: 0.088
data_MOF--net-pcb--node1-NAHDIM_clean_sbu_0--edge1-none
_symmetry_space_group_name_H-M    P1
_symmetry_Int_Tables_number       1
_symmetry_cell_setting            triclinic
loop_
_symmetry_equiv_pos_as_xyz
'x, y, z'
_cell_length_a     20.615096
_cell_length_b     22.244678
_cell_length_c     22.946095
_cell_angle_alpha  90.463021
_cell_angle_beta   90.621575
_cell_angle_gamma 90.11968
loop_
_atom_site_label
_atom_site_type_symbol
_atom_site_fract_x
_atom_site_fract_y
_atom_site_fract_z
_atom_type_partial_charge
C0 C 0.22441 0.19663 0.22072 0.0
O1 O 0.19615 0.15362 0.25005 0.0
O2 O 0.18819 0.05636 0.14421 0.0
Zn3 Zn 0.15614 0.13995 0.1272 0.0
O4 O 0.06377 0.14768 0.15491 0.0
C5 C 0.12384 0.10872 0.01203 0.0
O6 O 0.08889 0.06993 0.04106 0.0
O7 O 0.21424 0.20077 0.16624 0.0
C8 C 0.01971 0.17622 0.12774 0.0
O9 O 0.03424 0.20647 0.08073 0.0
C10 C 0.15344 0.01829 0.17061 0.0
O11 O 0.09714 0.03459 0.19164 0.0
O12 O 0.15814 0.14712 0.03983 0.0
C13 C 0.76964 0.21809 0.21782 0.0
O14 O 0.81625 0.18848 0.24434 0.0
O15 O 0.90669 0.1835 0.10885 0.0
Zn16 Zn 0.81498 0.15255 0.11756 0.0
O17 O 0.82053 0.07144 0.1562 0.0
C18 C 0.80055 0.16194 -0.00815 0.0
O19 O 0.84738 0.20175 -0.00271 0.0
O20 O 0.75989 0.21017 0.16353 0.0
C21 C 0.78062 0.02948 0.144 0.0
O22 O 0.73097 0.04023 0.10933 0.0
C23 C 0.95169 0.16644 0.14316 0.0
O24 O 0.9376 0.13197 0.18746 0.0
O25 O 0.77728 0.13775 0.03704 0.0
C26 C 0.75057 0.75384 0.21969 0.0
O27 O 0.8085 0.75986 0.24336 0.0
O28 O 0.76547 0.92421 0.13578 0.0
Zn29 Zn 0.79895 0.83876 0.13487 0.0
O30 O 0.88846 0.83694 0.17217 0.0
C31 C 0.84525 0.84924 0.02074 0.0
O32 O 0.87748 0.89277 0.04712 0.0
O33 O 0.73599 0.78292 0.17399 0.0
C34 C 0.93412 0.80339 0.15435 0.0
O35 O 0.92297 0.76443 0.11212 0.0
C36 C 0.79709 0.96739 0.15912 0.0
O37 O 0.85091 0.95634 0.18815 0.0
O38 O 0.80692 0.81671 0.04994 0.0
C39 C 0.20322 0.73037 0.21359 0.0
O40 O 0.18104 0.69937 0.16866 0.0
O41 O 0.18423 0.82948 0.07954 0.0
Zn42 Zn 0.13833 0.82897 0.15692 0.0
O43 O 0.04824 0.79408 0.14566 0.0
C44 C 0.17018 0.9545 0.16754 0.0
O45 O 0.22426 0.9375 0.14266 0.0
O46 O 0.19056 0.786 0.21793 0.0
C47 C 0.00085 0.81601 0.17369 0.0
O48 O 0.0117 0.85752 0.21363 0.0
C49 C 0.16684 0.79695 0.03639 0.0
O50 O 0.12002 0.75745 0.04249 0.0
O51 O 0.12763 0.91553 0.18013 0.0
C52 C 0.22787 0.7589 0.75093 0.0
O53 O 0.18089 0.78799 0.72438 0.0
O54 O 0.08623 0.81886 0.81572 0.0
Zn55 Zn 0.17565 0.81798 0.8519 0.0
O56 O 0.16414 0.7867 0.93364 0.0
C57 C 0.18524 0.94344 0.8213 0.0
O58 O 0.14685 0.92657 0.77814 0.0
O59 O 0.23589 0.76517 0.80562 0.0
C60 C 0.19071 0.81114 0.97808 0.0
O61 O 0.2317 0.85572 0.97128 0.0
C62 C 0.04369 0.78009 0.829 0.0
O63 O 0.05942 0.73551 0.86351 0.0
O64 O 0.20667 0.90439 0.85676 0.0
C65 C 0.20252 0.21419 0.74626 0.0
O66 O 0.14463 0.20802 0.7225 0.0
O67 O 0.05911 0.16066 0.81581 0.0
Zn68 Zn 0.15102 0.13303 0.83176 0.0
O69 O 0.16036 0.04603 0.8064 0.0
C70 C 0.12217 0.10748 0.94825 0.0
O71 O 0.07973 0.07308 0.92083 0.0
O72 O 0.2165 0.18618 0.79272 0.0
C73 C 0.194 0.0077 0.83421 0.0
O74 O 0.22852 0.02489 0.87981 0.0
C75 C 0.01698 0.1265 0.79182 0.0
O76 O 0.03435 0.07359 0.77171 0.0
O77 O 0.16174 0.13861 0.91896 0.0
C78 C 0.74372 0.20146 0.75805 0.0
O79 O 0.76791 0.23335 0.80154 0.0
O80 O 0.90601 0.10018 0.78624 0.0
Zn81 Zn 0.81381 0.10621 0.81415 0.0
O82 O 0.8171 0.15233 0.89038 0.0
C83 C 0.80744 -0.02249 0.80357 0.0
O84 O 0.84911 -0.01295 0.76176 0.0
O85 O 0.75653 0.14579 0.7542 0.0
C86 C 0.78356 0.13754 0.93412 0.0
O87 O 0.74127 0.09352 0.92918 0.0
C88 C 0.94792 0.14071 0.79743 0.0
O89 O 0.93012 0.19058 0.82368 0.0
O90 O 0.78314 0.02192 0.8307 0.0
C91 C 0.76823 0.73896 0.75048 0.0
O92 O 0.79787 0.7809 0.72082 0.0
O93 O 0.93153 0.76316 0.84189 0.0
Zn94 Zn 0.83921 0.79288 0.84488 0.0
O95 O 0.83426 0.87452 0.80736 0.0
C96 C 0.8545 0.83856 0.95836 0.0
O97 O 0.89991 0.86816 0.93086 0.0
O98 O 0.77834 0.73482 0.80498 0.0
C99 C 0.79737 0.91639 0.82495 0.0
O100 O 0.75724 0.90656 0.86791 0.0
C101 C 0.97539 0.79214 0.81555 0.0
O102 O 0.95978 0.83971 0.78501 0.0
O103 O 0.81864 0.80176 0.93013 0.0
C104 C 0.72441 0.69663 0.72072 0.0
O105 O 0.69615 0.65362 0.75005 0.0
O106 O 0.68819 0.55636 0.64421 0.0
Zn107 Zn 0.65614 0.63995 0.6272 0.0
O108 O 0.56377 0.64768 0.65491 0.0
C109 C 0.62384 0.60872 0.51203 0.0
O110 O 0.58889 0.56993 0.54106 0.0
O111 O 0.71424 0.70077 0.66624 0.0
C112 C 0.51971 0.67622 0.62774 0.0
O113 O 0.53424 0.70647 0.58073 0.0
C114 C 0.65344 0.51829 0.67061 0.0
O115 O 0.59714 0.53459 0.69164 0.0
O116 O 0.65814 0.64712 0.53983 0.0
C117 C 0.26964 0.71809 0.71782 0.0
O118 O 0.31625 0.68848 0.74434 0.0
O119 O 0.40669 0.6835 0.60885 0.0
Zn120 Zn 0.31498 0.65255 0.61756 0.0
O121 O 0.32053 0.57144 0.6562 0.0
C122 C 0.30055 0.66194 0.49185 0.0
O123 O 0.34738 0.70175 0.49729 0.0
O124 O 0.25989 0.71017 0.66353 0.0
C125 C 0.28062 0.52948 0.644 0.0
O126 O 0.23097 0.54023 0.60933 0.0
C127 C 0.45169 0.66644 0.64316 0.0
O128 O 0.4376 0.63197 0.68746 0.0
O129 O 0.27728 0.63775 0.53704 0.0
C130 C 0.25057 0.25384 0.71969 0.0
O131 O 0.3085 0.25986 0.74336 0.0
O132 O 0.26547 0.42421 0.63578 0.0
Zn133 Zn 0.29895 0.33876 0.63487 0.0
O134 O 0.38846 0.33694 0.67217 0.0
C135 C 0.34525 0.34924 0.52074 0.0
O136 O 0.37748 0.39277 0.54712 0.0
O137 O 0.23599 0.28292 0.67399 0.0
C138 C 0.43412 0.30339 0.65435 0.0
O139 O 0.42297 0.26443 0.61212 0.0
C140 C 0.29709 0.46739 0.65912 0.0
O141 O 0.35091 0.45634 0.68815 0.0
O142 O 0.30692 0.31671 0.54994 0.0
C143 C 0.70322 0.23037 0.71359 0.0
O144 O 0.68104 0.19937 0.66866 0.0
O145 O 0.68423 0.32948 0.57954 0.0
Zn146 Zn 0.63832 0.32897 0.65692 0.0
O147 O 0.54824 0.29408 0.64566 0.0
C148 C 0.67018 0.4545 0.66754 0.0
O149 O 0.72426 0.4375 0.64266 0.0
O150 O 0.69056 0.286 0.71793 0.0
C151 C 0.50085 0.31601 0.67369 0.0
O152 O 0.5117 0.35752 0.71363 0.0
C153 C 0.66684 0.29694 0.53639 0.0
O154 O 0.62002 0.25745 0.54249 0.0
O155 O 0.62763 0.41553 0.68013 0.0
C156 C 0.72787 0.2589 0.25093 0.0
O157 O 0.68089 0.28799 0.22437 0.0
O158 O 0.58623 0.31886 0.31572 0.0
Zn159 Zn 0.67565 0.31798 0.3519 0.0
O160 O 0.66414 0.2867 0.43364 0.0
C161 C 0.68524 0.44344 0.3213 0.0
O162 O 0.64685 0.42657 0.27814 0.0
O163 O 0.73589 0.26517 0.30562 0.0
C164 C 0.69071 0.31113 0.47808 0.0
O165 O 0.7317 0.35572 0.47128 0.0
C166 C 0.54369 0.28009 0.329 0.0
O167 O 0.55942 0.23551 0.36351 0.0
O168 O 0.70667 0.40439 0.35676 0.0
C169 C 0.70252 0.71419 0.24626 0.0
O170 O 0.64463 0.70802 0.2225 0.0
O171 O 0.55911 0.66066 0.31581 0.0
Zn172 Zn 0.65103 0.63303 0.33176 0.0
O173 O 0.66036 0.54603 0.3064 0.0
C174 C 0.62217 0.60748 0.44825 0.0
O175 O 0.57973 0.57308 0.42083 0.0
O176 O 0.7165 0.68618 0.29272 0.0
C177 C 0.694 0.5077 0.33421 0.0
O178 O 0.72852 0.52489 0.37981 0.0
C179 C 0.51698 0.6265 0.29182 0.0
O180 O 0.53435 0.57359 0.27171 0.0
O181 O 0.66174 0.63861 0.41896 0.0
C182 C 0.24372 0.70146 0.25805 0.0
O183 O 0.26791 0.73335 0.30154 0.0
O184 O 0.40601 0.60018 0.28624 0.0
Zn185 Zn 0.31381 0.60621 0.31415 0.0
O186 O 0.3171 0.65233 0.39038 0.0
C187 C 0.30744 0.47751 0.30357 0.0
O188 O 0.34911 0.48705 0.26176 0.0
O189 O 0.25653 0.64579 0.2542 0.0
C190 C 0.28356 0.63754 0.43412 0.0
O191 O 0.24127 0.59352 0.42918 0.0
C192 C 0.44792 0.64071 0.29743 0.0
O193 O 0.43012 0.69058 0.32368 0.0
O194 O 0.28314 0.52192 0.3307 0.0
C195 C 0.26823 0.23896 0.25048 0.0
O196 O 0.29787 0.2809 0.22082 0.0
O197 O 0.43153 0.26316 0.34189 0.0
Zn198 Zn 0.33921 0.29288 0.34488 0.0
O199 O 0.33426 0.37452 0.30736 0.0
C200 C 0.3545 0.33856 0.45836 0.0
O201 O 0.39991 0.36816 0.43086 0.0
O202 O 0.27834 0.23482 0.30498 0.0
C203 C 0.29737 0.41639 0.32495 0.0
O204 O 0.25724 0.40656 0.36791 0.0
C205 C 0.47539 0.29214 0.31555 0.0
O206 O 0.45978 0.33971 0.28501 0.0
O207 O 0.31864 0.30176 0.43013 0.0
loop_
_geom_bond_atom_site_label_1
_geom_bond_atom_site_label_2
_geom_bond_distance
_geom_bond_site_symmetry_2
_ccdc_geom_bond_type
C0 O1 1.160 . S
C0 O7 1.185 . S
O1 C0 1.160 . S
O2 Zn3 1.899 . S
O2 C10 1.284 . S
Zn3 O2 1.899 . S
Zn3 O4 2.032 . S
Zn3 O7 2.086 . S
Zn3 O12 1.977 . S
O4 Zn3 2.032 . S
O4 C8 1.278 . S
C5 O6 1.203 . S
C5 O12 1.267 . S
O6 C5 1.203 . S
O7 C0 1.185 . S
O7 Zn3 2.086 . S
C8 O4 1.278 . S
C8 O9 1.211 . S
O9 C8 1.211 . S
C10 O2 1.284 . S
C10 O11 1.273 . S
O11 C10 1.273 . S
O12 Zn3 1.977 . S
O12 C5 1.267 . S
C13 O14 1.160 . S
C13 O20 1.185 . S
O14 C13 1.160 . S
O15 Zn16 1.899 . S
O15 C23 1.284 . S
Zn16 O15 1.899 . S
Zn16 O17 2.032 . S
Zn16 O20 2.086 . S
Zn16 O25 1.977 . S
O17 Zn16 2.032 . S
O17 C21 1.278 . S
C18 O19 1.203 . S
C18 O25 1.267 . S
O19 C18 1.203 . S
O20 C13 1.185 . S
O20 Zn16 2.086 . S
C21 O17 1.278 . S
C21 O22 1.211 . S
O22 C21 1.211 . S
C23 O15 1.284 . S
C23 O24 1.273 . S
O24 C23 1.273 . S
O25 Zn16 1.977 . S
O25 C18 1.267 . S
C26 O27 1.160 . S
C26 O33 1.185 . S
O27 C26 1.160 . S
O28 Zn29 1.899 . S
O28 C36 1.284 . S
Zn29 O28 1.899 . S
Zn29 O30 2.032 . S
Zn29 O33 2.086 . S
Zn29 O38 1.977 . S
O30 Zn29 2.032 . S
O30 C34 1.278 . S
C31 O32 1.203 . S
C31 O38 1.267 . S
O32 C31 1.203 . S
O33 C26 1.185 . S
O33 Zn29 2.086 . S
C34 O30 1.278 . S
C34 O35 1.211 . S
O35 C34 1.211 . S
C36 O28 1.284 . S
C36 O37 1.273 . S
O37 C36 1.273 . S
O38 Zn29 1.977 . S
O38 C31 1.267 . S
C39 O40 1.160 . S
C39 O46 1.185 . S
O40 C39 1.160 . S
O41 Zn42 1.899 . S
O41 C49 1.284 . S
Zn42 O41 1.899 . S
Zn42 O43 2.032 . S
Zn42 O46 2.086 . S
Zn42 O51 1.977 . S
O43 Zn42 2.032 . S
O43 C47 1.278 . S
C44 O45 1.203 . S
C44 O51 1.267 . S
O45 C44 1.203 . S
O46 C39 1.185 . S
O46 Zn42 2.086 . S
C47 O43 1.278 . S
C47 O48 1.211 . S
O48 C47 1.211 . S
C49 O41 1.284 . S
C49 O50 1.273 . S
O50 C49 1.273 . S
O51 Zn42 1.977 . S
O51 C44 1.267 . S
C52 O53 1.160 . S
C52 O59 1.185 . S
O53 C52 1.160 . S
O54 Zn55 1.899 . S
O54 C62 1.284 . S
Zn55 O54 1.899 . S
Zn55 O56 2.032 . S
Zn55 O59 2.086 . S
Zn55 O64 1.977 . S
O56 Zn55 2.032 . S
O56 C60 1.278 . S
C57 O58 1.203 . S
C57 O64 1.267 . S
O58 C57 1.203 . S
O59 C52 1.185 . S
O59 Zn55 2.086 . S
C60 O56 1.278 . S
C60 O61 1.211 . S
O61 C60 1.211 . S
C62 O54 1.284 . S
C62 O63 1.273 . S
O63 C62 1.273 . S
O64 Zn55 1.977 . S
O64 C57 1.267 . S
C65 O66 1.160 . S
C65 O72 1.185 . S
O66 C65 1.160 . S
O67 Zn68 1.899 . S
O67 C75 1.284 . S
Zn68 O67 1.899 . S
Zn68 O69 2.032 . S
Zn68 O72 2.086 . S
Zn68 O77 1.977 . S
O69 Zn68 2.032 . S
O69 C73 1.278 . S
C70 O71 1.203 . S
C70 O77 1.267 . S
O71 C70 1.203 . S
O72 C65 1.185 . S
O72 Zn68 2.086 . S
C73 O69 1.278 . S
C73 O74 1.211 . S
O74 C73 1.211 . S
C75 O67 1.284 . S
C75 O76 1.273 . S
O76 C75 1.273 . S
O77 Zn68 1.977 . S
O77 C70 1.267 . S
C78 O79 1.160 . S
C78 O85 1.185 . S
O79 C78 1.160 . S
O80 Zn81 1.899 . S
O80 C88 1.284 . S
Zn81 O80 1.899 . S
Zn81 O82 2.032 . S
Zn81 O85 2.086 . S
Zn81 O90 1.977 . S
O82 Zn81 2.032 . S
O82 C86 1.278 . S
C83 O84 1.203 . S
C83 O90 1.267 . S
O84 C83 1.203 . S
O85 C78 1.185 . S
O85 Zn81 2.086 . S
C86 O82 1.278 . S
C86 O87 1.211 . S
O87 C86 1.211 . S
C88 O80 1.284 . S
C88 O89 1.273 . S
O89 C88 1.273 . S
O90 Zn81 1.977 . S
O90 C83 1.267 . S
C91 O92 1.160 . S
C91 O98 1.185 . S
O92 C91 1.160 . S
O93 Zn94 1.899 . S
O93 C101 1.284 . S
Zn94 O93 1.899 . S
Zn94 O95 2.032 . S
Zn94 O98 2.086 . S
Zn94 O103 1.977 . S
O95 Zn94 2.032 . S
O95 C99 1.278 . S
C96 O97 1.203 . S
C96 O103 1.267 . S
O97 C96 1.203 . S
O98 C91 1.185 . S
O98 Zn94 2.086 . S
C99 O95 1.278 . S
C99 O100 1.211 . S
O100 C99 1.211 . S
C101 O93 1.284 . S
C101 O102 1.273 . S
O102 C101 1.273 . S
O103 Zn94 1.977 . S
O103 C96 1.267 . S
C104 O105 1.160 . S
C104 O111 1.185 . S
O105 C104 1.160 . S
O106 Zn107 1.899 . S
O106 C114 1.284 . S
Zn107 O106 1.899 . S
Zn107 O108 2.032 . S
Zn107 O111 2.086 . S
Zn107 O116 1.977 . S
O108 Zn107 2.032 . S
O108 C112 1.278 . S
C109 O110 1.203 . S
C109 O116 1.267 . S
O110 C109 1.203 . S
O111 C104 1.185 . S
O111 Zn107 2.086 . S
C112 O108 1.278 . S
C112 O113 1.211 . S
O113 C112 1.211 . S
C114 O106 1.284 . S
C114 O115 1.273 . S
O115 C114 1.273 . S
O116 Zn107 1.977 . S
O116 C109 1.267 . S
C117 O118 1.160 . S
C117 O124 1.185 . S
O118 C117 1.160 . S
O119 Zn120 1.899 . S
O119 C127 1.284 . S
Zn120 O119 1.899 . S
Zn120 O121 2.032 . S
Zn120 O124 2.086 . S
Zn120 O129 1.977 . S
O121 Zn120 2.032 . S
O121 C125 1.278 . S
C122 O123 1.203 . S
C122 O129 1.267 . S
O123 C122 1.203 . S
O124 C117 1.185 . S
O124 Zn120 2.086 . S
C125 O121 1.278 . S
C125 O126 1.211 . S
O126 C125 1.211 . S
C127 O119 1.284 . S
C127 O128 1.273 . S
O128 C127 1.273 . S
O129 Zn120 1.977 . S
O129 C122 1.267 . S
C130 O131 1.160 . S
C130 O137 1.185 . S
O131 C130 1.160 . S
O132 Zn133 1.899 . S
O132 C140 1.284 . S
Zn133 O132 1.899 . S
Zn133 O134 2.032 . S
Zn133 O137 2.086 . S
Zn133 O142 1.977 . S
O134 Zn133 2.032 . S
O134 C138 1.278 . S
C135 O136 1.203 . S
C135 O142 1.267 . S
O136 C135 1.203 . S
O137 C130 1.185 . S
O137 Zn133 2.086 . S
C138 O134 1.278 . S
C138 O139 1.211 . S
O139 C138 1.211 . S
C140 O132 1.284 . S
C140 O141 1.273 . S
O141 C140 1.273 . S
O142 Zn133 1.977 . S
O142 C135 1.267 . S
C143 O144 1.160 . S
C143 O150 1.185 . S
O144 C143 1.160 . S
O145 Zn146 1.899 . S
O145 C153 1.284 . S
Zn146 O145 1.899 . S
Zn146 O147 2.032 . S
Zn146 O150 2.086 . S
Zn146 O155 1.977 . S
O147 Zn146 2.032 . S
O147 C151 1.278 . S
C148 O149 1.203 . S
C148 O155 1.267 . S
O149 C148 1.203 . S
O150 C143 1.185 . S
O150 Zn146 2.086 . S
C151 O147 1.278 . S
C151 O152 1.211 . S
O152 C151 1.211 . S
C153 O145 1.284 . S
C153 O154 1.273 . S
O154 C153 1.273 . S
O155 Zn146 1.977 . S
O155 C148 1.267 . S
C156 O157 1.160 . S
C156 O163 1.185 . S
O157 C156 1.160 . S
O158 Zn159 1.899 . S
O158 C166 1.284 . S
Zn159 O158 1.899 . S
Zn159 O160 2.032 . S
Zn159 O163 2.086 . S
Zn159 O168 1.977 . S
O160 Zn159 2.032 . S
O160 C164 1.278 . S
C161 O162 1.203 . S
C161 O168 1.267 . S
O162 C161 1.203 . S
O163 C156 1.185 . S
O163 Zn159 2.086 . S
C164 O160 1.278 . S
C164 O165 1.211 . S
O165 C164 1.211 . S
C166 O158 1.284 . S
C166 O167 1.273 . S
O167 C166 1.273 . S
O168 Zn159 1.977 . S
O168 C161 1.267 . S
C169 O170 1.160 . S
C169 O176 1.185 . S
O170 C169 1.160 . S
O171 Zn172 1.899 . S
O171 C179 1.284 . S
Zn172 O171 1.899 . S
Zn172 O173 2.032 . S
Zn172 O176 2.086 . S
Zn172 O181 1.977 . S
O173 Zn172 2.032 . S
O173 C177 1.278 . S
C174 O175 1.203 . S
C174 O181 1.267 . S
O175 C174 1.203 . S
O176 C169 1.185 . S
O176 Zn172 2.086 . S
C177 O173 1.278 . S
C177 O178 1.211 . S
O178 C177 1.211 . S
C179 O171 1.284 . S
C179 O180 1.273 . S
O180 C179 1.273 . S
O181 Zn172 1.977 . S
O181 C174 1.267 . S
C182 O183 1.160 . S
C182 O189 1.185 . S
O183 C182 1.160 . S
O184 Zn185 1.899 . S
O184 C192 1.284 . S
Zn185 O184 1.899 . S
Zn185 O186 2.032 . S
Zn185 O189 2.086 . S
Zn185 O194 1.977 . S
O186 Zn185 2.032 . S
O186 C190 1.278 . S
C187 O188 1.203 . S
C187 O194 1.267 . S
O188 C187 1.203 . S
O189 C182 1.185 . S
O189 Zn185 2.086 . S
C190 O186 1.278 . S
C190 O191 1.211 . S
O191 C190 1.211 . S
C192 O184 1.284 . S
C192 O193 1.273 . S
O193 C192 1.273 . S
O194 Zn185 1.977 . S
O194 C187 1.267 . S
C195 O196 1.160 . S
C195 O202 1.185 . S
O196 C195 1.160 . S
O197 Zn198 1.899 . S
O197 C205 1.284 . S
Zn198 O197 1.899 . S
Zn198 O199 2.032 . S
Zn198 O202 2.086 . S
Zn198 O207 1.977 . S
O199 Zn198 2.032 . S
O199 C203 1.278 . S
C200 O201 1.203 . S
C200 O207 1.267 . S
O201 C200 1.203 . S
O202 C195 1.185 . S
O202 Zn198 2.086 . S
C203 O199 1.278 . S
C203 O204 1.211 . S
O204 C203 1.211 . S
C205 O197 1.284 . S
C205 O206 1.273 . S
O206 C205 1.273 . S
O207 Zn198 1.977 . S
O207 C200 1.267 . S
C195 C0 0.902 . S
C156 C13 1.066 . S
C26 C169 1.074 . S
C182 C39 1.126 . S
C117 C52 1.066 . S
C65 C130 1.074 . S
C78 C143 1.126 . S
C91 C104 0.902 . S
C70 C5 1.035 1_556 S
C86 C18 1.446 1_556 S
C96 C31 1.205 1_556 S
C49 C60 1.570 1_554 S
C8 C23 1.341 1_455 S
C36 C21 1.591 1_565 S
C34 C47 1.351 1_655 S
C10 C44 1.397 1_545 S
C101 C62 1.396 1_655 S
C57 C73 1.253 1_565 S
C75 C88 1.367 1_455 S
C99 C83 1.162 1_565 S
C174 C109 1.035 . S
C122 C190 1.446 . S
C200 C135 1.205 . S
C164 C153 1.570 . S
C112 C127 1.341 . S
C125 C140 1.591 . S
C151 C138 1.351 . S
C114 C148 1.397 . S
C205 C166 1.396 . S
C161 C177 1.253 . S
C179 C192 1.367 . S
C203 C187 1.162 . S
