# Generated by pormake.
# Topology qtz, (4)-cn, num edge types: 1
# Building blocks:
#     Node 0, Type 0, BuildingBlock: AZAVOO_clean_sbu_0, # of connection points: 4
#     Node 1, Type 0, BuildingBlock: AZAVOO_clean_sbu_0, # of connection points: 4
#     Node 2, Type 0, BuildingBlock: AZAVOO_clean_sbu_0, # of connection points: 4
#     Edge 3, Type (0, 0), BuildingBlock: ZUJKAS_clean_linker_0, # of connection points: 2
#     Edge 4, Type (0, 0), BuildingBlock: ZUJKAS_clean_linker_0, # of connection points: 2
#     Edge 5, Type (0, 0), BuildingBlock: ZUJKAS_clean_linker_0, # of connection points: 2
#     Edge 6, Type (0, 0), BuildingBlock: ZUJKAS_clean_linker_0, # of connection points: 2
#     Edge 7, Type (0, 0), BuildingBlock: ZUJKAS_clean_linker_0, # of connection points: 2
#     Edge 8, Type (0, 0), BuildingBlock: ZUJKAS_clean_linker_0, # of connection points: 2
# Relax obj value: 0.161
# Max RMSD: 0.223
# Mean RMSD: 0.200
data_MOF--net-qtz--node1-AZAVOO_clean_sbu_0--edge1-ZUJKAS_clean_linker_0
_symmetry_space_group_name_H-M    P1
_symmetry_Int_Tables_number       1
_symmetry_cell_setting            triclinic
loop_
_symmetry_equiv_pos_as_xyz
'x, y, z'
_cell_length_a     30.30815
_cell_length_b     31.191453
_cell_length_c     35.731299
_cell_angle_alpha  90.968198
_cell_angle_beta   94.504458
_cell_angle_gamma 123.46915
loop_
_atom_site_label
_atom_site_type_symbol
_atom_site_fract_x
_atom_site_fract_y
_atom_site_fract_z
_atom_type_partial_charge
Mg0 Mg 0.98203 0.51637 0.15233 0.0
O1 O 0.04141 0.59115 0.18853 0.0
O2 O -0.00454 0.60524 0.22709 0.0
Mg3 Mg 0.90763 0.53952 0.21604 0.0
C4 C 0.03929 0.61811 0.21474 0.0
C5 C 0.0472 0.49345 0.10858 0.0
O6 O 0.01404 0.45099 0.12433 0.0
O7 O 0.95121 0.55619 0.11669 0.0
O8 O 0.90246 0.5644 0.15641 0.0
O9 O -0.00785 0.4715 0.19563 0.0
O10 O 0.9307 0.48908 0.19417 0.0
C11 C 0.91946 0.56927 0.12409 0.0
C12 C 0.95319 0.46848 0.21072 0.0
O13 O 0.04462 0.53239 0.11369 0.0
Mg14 Mg 0.58961 0.04566 0.51625 0.0
O15 O 0.52668 0.009 0.46528 0.0
O16 O 0.52153 0.06993 0.43763 0.0
Mg17 Mg 0.58233 0.1465 0.4711 0.0
C18 C 0.50644 0.02298 0.4396 0.0
C19 C 0.56173 0.93396 0.51351 0.0
O20 O 0.57874 0.94748 0.48028 0.0
O21 O 0.53289 0.05331 0.54998 0.0
O22 O 0.53384 0.11722 0.52166 0.0
O23 O 0.6534 0.06287 0.47975 0.0
O24 O 0.62885 0.11588 0.49249 0.0
C25 C 0.5185 0.0848 0.54695 0.0
C26 C 0.65808 0.10618 0.47485 0.0
O27 O 0.56021 0.96584 0.53512 0.0
Mg28 Mg 0.42113 0.46474 0.80181 0.0
O29 O 0.50081 0.50312 0.83895 0.0
O30 O 0.52092 0.57903 0.86331 0.0
Mg31 Mg 0.45495 0.58968 0.84175 0.0
C32 C 0.53165 0.54507 0.85943 0.0
C33 C 0.40682 0.35909 0.7864 0.0
O34 O 0.37162 0.34656 0.81045 0.0
O35 O 0.46167 0.5189 0.75563 0.0
O36 O 0.47837 0.59268 0.78196 0.0
O37 O 0.37712 0.4298 0.85168 0.0
O38 O 0.39917 0.5057 0.83306 0.0
C39 C 0.47968 0.56671 0.75453 0.0
C40 C 0.37813 0.47147 0.85715 0.0
O41 O 0.43429 0.40535 0.77718 0.0
H42 H 0.37155 0.5534 0.87372 0.0
H43 H 0.32396 0.56162 0.92223 0.0
H44 H 0.28252 0.41489 0.96101 0.0
H45 H 0.33039 0.40627 0.91245 0.0
H46 H 0.19564 0.42468 0.9414 0.0
H47 H 0.35393 0.58879 0.03812 0.0
H48 H 0.35704 0.60008 0.98894 0.0
H49 H 0.36741 0.55238 0.00659 0.0
C50 C 0.35351 0.52339 0.89309 0.0
C51 C 0.35484 0.47918 0.88927 0.0
C52 C 0.32645 0.5283 0.9209 0.0
C53 C 0.30034 0.48916 0.94539 0.0
C54 C 0.30288 0.44568 0.94246 0.0
H55 H 0.06885 0.42026 0.10054 0.0
H56 H 0.13208 0.42103 0.06201 0.0
C57 C 0.33017 0.44081 0.91472 0.0
C58 C 0.26554 0.49104 0.97109 0.0
H59 H 0.26458 0.56048 0.0455 0.0
C60 C 0.21069 0.45406 0.96439 0.0
C61 C 0.28544 0.52994 0.00059 0.0
C62 C 0.34422 0.56989 0.00931 0.0
C63 C 0.1749 0.45527 0.98615 0.0
C64 C 0.19473 0.49386 0.01593 0.0
C65 C 0.24963 0.53099 0.02262 0.0
C66 C 0.15889 0.49531 0.04086 0.0
C67 C 0.11607 0.41593 0.97648 0.0
C68 C 0.15445 0.53775 0.0427 0.0
C69 C 0.11849 0.53767 0.06502 0.0
C70 C 0.08659 0.49511 0.08576 0.0
C71 C 0.09231 0.45336 0.08452 0.0
C72 C 0.12834 0.45362 0.06246 0.0
H73 H 0.1069 0.3987 0.94716 0.0
H74 H 0.10252 0.38433 -0.00432 0.0
H75 H 0.09295 0.43337 0.9799 0.0
H76 H 0.17803 0.57042 0.02634 0.0
H77 H 0.11514 0.5705 0.0656 0.0
H78 H 0.86496 0.44559 0.24341 0.0
H79 H 0.82367 0.38586 0.2923 0.0
H80 H 0.95231 0.36356 0.30144 0.0
H81 H -0.00583 0.42344 0.25257 0.0
H82 H 0.79576 0.27925 0.28191 0.0
H83 H 0.9288 0.38772 0.41285 0.0
H84 H 0.92522 0.41967 0.37212 0.0
H85 H 0.95951 0.38775 0.37168 0.0
C86 C 0.88512 0.4289 0.25635 0.0
C87 C 0.93271 0.43906 0.24407 0.0
C88 C 0.86138 0.39468 0.28415 0.0
C89 C 0.8851 0.37054 0.30033 0.0
C90 C 0.93378 0.38229 0.28942 0.0
H91 H 0.7124 0.09154 0.42372 0.0
H92 H 0.77187 0.15405 0.38097 0.0
C93 C 0.9575 0.41639 0.26148 0.0
C94 C 0.85643 0.32985 0.3262 0.0
H95 H 0.85658 0.30235 0.41813 0.0
C96 C 0.80913 0.28401 0.31166 0.0
C97 C 0.87435 0.33655 0.36483 0.0
C98 C 0.92459 0.38562 0.38158 0.0
C99 C 0.77846 0.24479 0.33505 0.0
C100 C 0.79596 0.25172 0.3738 0.0
C101 C 0.84377 0.29721 0.38826 0.0
C102 C 0.7624 0.21436 0.4003 0.0
C103 C 0.72662 0.19708 0.31853 0.0
C104 C 0.73822 0.22811 0.42534 0.0
C105 C 0.70433 0.19273 0.44946 0.0
C106 C 0.69422 0.14299 0.4491 0.0
C107 C 0.71928 0.12952 0.42443 0.0
C108 C 0.75313 0.16504 0.40007 0.0
H109 H 0.7155 0.20075 0.28895 0.0
H110 H 0.73018 0.16354 0.3191 0.0
H111 H 0.69402 0.18891 0.33557 0.0
H112 H 0.74502 0.26608 0.42583 0.0
H113 H 0.68621 0.20455 0.46848 0.0
H114 H 0.52247 0.89342 0.57938 0.0
H115 H 0.50807 0.81462 0.60393 0.0
H116 H 0.55642 0.78219 0.50272 0.0
H117 H 0.57136 0.86147 0.47782 0.0
H118 H 0.44223 0.70854 0.57182 0.0
H119 H 0.65913 0.78768 0.59102 0.0
H120 H 0.63513 0.8289 0.58401 0.0
H121 H 0.62973 0.78824 0.5454 0.0
C122 C 0.5297 0.86943 0.56215 0.0
C123 C 0.54855 0.88396 0.52681 0.0
C124 C 0.52128 0.82433 0.57617 0.0
C125 C 0.53171 0.793 0.55525 0.0
C126 C 0.54873 0.80626 0.5194 0.0
H127 H 0.4535 0.52298 0.68214 0.0
H128 H 0.46969 0.56865 0.62423 0.0
C129 C 0.55706 0.85145 0.50524 0.0
C130 C 0.52704 0.74811 0.57245 0.0
H131 H 0.60237 0.71239 0.62035 0.0
C132 C 0.47694 0.70839 0.58162 0.0
C133 C 0.57259 0.74836 0.58505 0.0
C134 C 0.62736 0.79055 0.57612 0.0
C135 C 0.47159 0.67093 0.60551 0.0
C136 C 0.51764 0.67324 0.62023 0.0
C137 C 0.56723 0.71067 0.60874 0.0
C138 C 0.51643 0.64469 0.65316 0.0
C139 C 0.41742 0.63191 0.61737 0.0
C140 C 0.53972 0.67243 0.68818 0.0
C141 C 0.5306 0.64669 0.72103 0.0
C142 C 0.4982 0.59263 0.71949 0.0
C143 C 0.47853 0.56469 0.68416 0.0
C144 C 0.48747 0.59065 0.65112 0.0
H145 H 0.38657 0.63835 0.6058 0.0
H146 H 0.40513 0.59261 0.60732 0.0
H147 H 0.41886 0.63342 0.64855 0.0
H148 H 0.56232 0.71417 0.69032 0.0
H149 H 0.54683 0.66927 0.7478 0.0
H150 H 0.56424 0.47874 0.86434 0.0
H151 H 0.6407 0.49111 0.90377 0.0
H152 H 0.68568 0.64319 0.94195 0.0
H153 H 0.60968 0.63155 0.90258 0.0
H154 H 0.77364 0.63314 0.92465 0.0
H155 H 0.63754 0.49151 0.02087 0.0
H156 H 0.62366 0.46973 0.97186 0.0
H157 H 0.61634 0.52049 0.98691 0.0
C158 C 0.59065 0.51506 0.88079 0.0
C159 C 0.58037 0.5539 0.88062 0.0
C160 C 0.6343 0.52202 0.90329 0.0
C161 C 0.66838 0.56785 0.92595 0.0
C162 C 0.65973 0.60755 0.92462 0.0
H163 H 0.86032 0.61008 0.13035 0.0
H164 H 0.80588 0.61696 0.07999 0.0
C165 C 0.61607 0.60064 0.90223 0.0
C166 C 0.71056 0.57298 0.95327 0.0
H167 H 0.72899 0.52697 0.03478 0.0
C168 C 0.76409 0.60991 0.94871 0.0
C169 C 0.69768 0.54301 0.98479 0.0
C170 C 0.64074 0.50418 -0.00824 0.0
C171 C 0.80527 0.61734 0.97491 0.0
C172 C 0.79228 0.58698 0.00621 0.0
C173 C 0.73874 0.55019 0.01069 0.0
C174 C 0.83305 0.59251 0.03523 0.0
C175 C 0.86217 0.65815 0.96943 0.0
C176 C 0.86777 0.57818 0.02656 0.0
C177 C 0.89917 0.57425 0.05537 0.0
C178 C 0.89581 0.58408 0.09329 0.0
C179 C 0.86358 0.60176 0.10152 0.0
C180 C 0.83242 0.60578 0.07277 0.0
H181 H 0.86492 0.68519 0.94844 0.0
H182 H 0.88457 0.6805 -0.00352 0.0
H183 H 0.88164 0.63936 0.95926 0.0
H184 H 0.86831 0.56712 -0.00222 0.0
H185 H 0.92346 0.56042 0.04803 0.0
H186 H 0.47008 0.92093 0.43013 0.0
H187 H 0.39506 0.85444 0.38724 0.0
H188 H 0.3677 0.96745 0.34499 0.0
H189 H 0.44334 0.03449 0.38718 0.0
H190 H 0.29236 0.823 0.38681 0.0
H191 H 0.36172 0.89402 0.24822 0.0
H192 H 0.40578 0.91874 0.29141 0.0
H193 H 0.36357 0.94121 0.27895 0.0
C194 C 0.44853 0.93186 0.41144 0.0
C195 C 0.46283 0.98315 0.41212 0.0
C196 C 0.40564 0.89375 0.38692 0.0
C197 C 0.37619 0.90607 0.36256 0.0
C198 C 0.39061 0.95726 0.36288 0.0
H199 H 0.05076 0.68971 0.26699 0.0
H200 H 0.13311 0.7607 0.3012 0.0
C201 C 0.43371 0.99551 0.38724 0.0
C202 C 0.32829 0.86473 0.33872 0.0
H203 H 0.26982 0.82693 0.24813 0.0
C204 C 0.28759 0.82373 0.35646 0.0
C205 C 0.32236 0.86544 0.29909 0.0
C206 C 0.36589 0.90694 0.27821 0.0
C207 C 0.24072 0.78387 0.33578 0.0
C208 C 0.23383 0.78565 0.29634 0.0
C209 C 0.27493 0.82606 0.27844 0.0
C210 C 0.18439 0.74542 0.27329 0.0
C211 C 0.19936 0.73979 0.35635 0.0
C212 C 0.18612 0.71474 0.24505 0.0
C213 C 0.13909 0.67433 0.22511 0.0
C214 C 0.08945 0.66393 0.2331 0.0
C215 C 0.08817 0.69619 0.26038 0.0
C216 C 0.1352 0.73668 0.28012 0.0
H217 H 0.21657 0.73709 0.38414 0.0
H218 H 0.16754 0.746 0.36134 0.0
H219 H 0.18095 0.7025 0.33954 0.0
H220 H 0.22376 0.72111 0.23918 0.0
H221 H 0.14162 0.65041 0.20423 0.0
H222 H 0.47301 0.37144 0.7339 0.0
H223 H 0.47981 0.30513 0.70314 0.0
H224 H 0.36197 0.19078 0.76916 0.0
H225 H 0.35425 0.25686 0.79983 0.0
H226 H 0.50622 0.23876 0.73465 0.0
H227 H 0.30155 0.13095 0.65967 0.0
H228 H 0.33272 0.19526 0.68132 0.0
H229 H 0.30775 0.14142 0.70999 0.0
C230 C 0.44858 0.33225 0.742 0.0
C231 C 0.4128 0.31937 0.76911 0.0
C232 C 0.45261 0.29442 0.72445 0.0
C233 C 0.42095 0.24301 0.73359 0.0
C234 C 0.38611 0.23011 0.7613 0.0
H235 H 0.50577 0.04958 0.61795 0.0
H236 H 0.47179 0.0734 0.66896 0.0
C237 C 0.38196 0.26798 0.77887 0.0
C238 C 0.42427 0.20334 0.71322 0.0
H239 H 0.35756 0.10476 0.64468 0.0
C240 C 0.47351 0.20874 0.71547 0.0
C241 C 0.38134 0.16432 0.68832 0.0
C242 C 0.32785 0.15753 0.68431 0.0
C243 C 0.48208 0.17827 0.69179 0.0
C244 C 0.43984 0.14078 0.66562 0.0
C245 C 0.38964 0.13324 0.66501 0.0
C246 C 0.44975 0.11638 0.63437 0.0
C247 C 0.53731 0.18913 0.69304 0.0
C248 C 0.44542 0.12989 0.59771 0.0
C249 C 0.46433 0.11616 0.56866 0.0
C250 C 0.48799 0.08859 0.57567 0.0
C251 C 0.48806 0.07112 0.61172 0.0
C252 C 0.46903 0.08498 0.64093 0.0
H253 H 0.56703 0.22418 0.71142 0.0
H254 H 0.53704 0.15598 0.70411 0.0
H255 H 0.55033 0.19426 0.66433 0.0
H256 H 0.43039 0.15386 0.59197 0.0
H257 H 0.46293 0.12958 0.5411 0.0
loop_
_geom_bond_atom_site_label_1
_geom_bond_atom_site_label_2
_geom_bond_distance
_geom_bond_site_symmetry_2
_ccdc_geom_bond_type
Mg0 O1 2.028 1_655 S
Mg0 O7 1.986 . S
Mg0 O9 2.114 . S
Mg0 O10 2.251 . S
Mg0 O13 2.010 1_655 S
O1 Mg0 2.028 1_455 S
O1 C4 1.250 . S
O2 Mg3 2.028 1_455 S
O2 C4 1.248 . S
Mg3 O2 2.028 1_655 S
Mg3 O8 2.032 . S
Mg3 O10 2.079 . S
C4 O1 1.250 . S
C4 O2 1.248 . S
C5 O6 1.264 . S
C5 O13 1.249 . S
O6 C5 1.264 . S
O7 Mg0 1.986 . S
O7 C11 1.246 . S
O8 Mg3 2.032 . S
O8 C11 1.259 . S
O9 Mg0 2.114 . S
O9 C12 1.252 . S
O10 Mg0 2.251 . S
O10 Mg3 2.079 . S
O10 C12 1.273 . S
C11 O7 1.246 . S
C11 O8 1.259 . S
C12 O9 1.252 . S
C12 O10 1.273 . S
O13 Mg0 2.010 1_455 S
O13 C5 1.249 . S
Mg14 O15 2.028 1_545 S
Mg14 O21 1.986 . S
Mg14 O23 2.114 . S
Mg14 O24 2.251 . S
Mg14 O27 2.010 1_545 S
O15 Mg14 2.028 1_565 S
O15 C18 1.250 . S
O16 Mg17 2.028 . S
O16 C18 1.248 1_545 S
Mg17 O16 2.028 . S
Mg17 O22 2.032 . S
Mg17 O24 2.079 . S
C18 O15 1.250 . S
C18 O16 1.248 1_565 S
C19 O20 1.264 . S
C19 O27 1.249 . S
O20 C19 1.264 . S
O21 Mg14 1.986 . S
O21 C25 1.246 . S
O22 Mg17 2.032 . S
O22 C25 1.259 . S
O23 Mg14 2.114 . S
O23 C26 1.252 . S
O24 Mg14 2.251 . S
O24 Mg17 2.079 . S
O24 C26 1.273 . S
C25 O21 1.246 . S
C25 O22 1.259 . S
C26 O23 1.252 . S
C26 O24 1.273 . S
O27 Mg14 2.010 1_565 S
O27 C19 1.249 . S
Mg28 O29 2.028 . S
Mg28 O35 1.986 . S
Mg28 O37 2.114 . S
Mg28 O38 2.251 . S
Mg28 O41 2.010 . S
O29 Mg28 2.028 . S
O29 C32 1.250 . S
O30 Mg31 2.028 . S
O30 C32 1.248 . S
Mg31 O30 2.028 . S
Mg31 O36 2.032 . S
Mg31 O38 2.079 . S
C32 O29 1.250 . S
C32 O30 1.248 . S
C33 O34 1.264 . S
C33 O41 1.249 . S
O34 C33 1.264 . S
O35 Mg28 1.986 . S
O35 C39 1.246 . S
O36 Mg31 2.032 . S
O36 C39 1.259 . S
O37 Mg28 2.114 . S
O37 C40 1.252 . S
O38 Mg28 2.251 . S
O38 Mg31 2.079 . S
O38 C40 1.273 . S
C39 O35 1.246 . S
C39 O36 1.259 . S
C40 O37 1.252 . S
C40 O38 1.273 . S
O41 Mg28 2.010 . S
O41 C33 1.249 . S
H42 C50 0.929 . S
H43 C52 0.930 . S
H44 C54 0.930 . S
H45 C57 0.929 . S
H46 C60 0.930 . S
H47 C62 0.960 . S
H48 C62 0.960 . S
H49 C62 0.960 . S
C50 H42 0.929 . S
C50 C51 1.377 . S
C50 C52 1.384 . S
C51 C50 1.377 . S
C51 C57 1.390 . S
C52 H43 0.930 . S
C52 C50 1.384 . S
C52 C53 1.372 . S
C53 C52 1.372 . S
C53 C54 1.400 . S
C53 C58 1.490 . S
C54 H44 0.930 . S
C54 C53 1.400 . S
C54 C57 1.386 . S
H55 C71 0.930 . S
H56 C72 0.931 . S
C57 H45 0.929 . S
C57 C51 1.390 . S
C57 C54 1.386 . S
C58 C53 1.490 . S
C58 C60 1.395 . S
C58 C61 1.403 1_556 S
H59 C65 0.930 . S
C60 H46 0.930 . S
C60 C58 1.395 . S
C60 C63 1.403 . S
C61 C58 1.403 1_554 S
C61 C62 1.524 . S
C61 C65 1.400 . S
C62 H47 0.960 . S
C62 H48 0.960 . S
C62 H49 0.960 . S
C62 C61 1.524 . S
C63 C60 1.403 . S
C63 C64 1.392 1_556 S
C63 C67 1.495 . S
C64 C63 1.392 1_554 S
C64 C65 1.385 . S
C64 C66 1.478 . S
C65 H59 0.930 . S
C65 C61 1.400 . S
C65 C64 1.385 . S
C66 C64 1.478 . S
C66 C68 1.381 . S
C66 C72 1.383 . S
C67 C63 1.495 . S
C67 H73 0.959 . S
C67 H74 0.961 . S
C67 H75 0.960 . S
C68 C66 1.381 . S
C68 C69 1.394 . S
C68 H76 0.930 . S
C69 C68 1.394 . S
C69 C70 1.383 . S
C69 H77 0.929 . S
C70 C69 1.383 . S
C70 C71 1.377 . S
C71 H55 0.930 . S
C71 C70 1.377 . S
C71 C72 1.379 . S
C72 H56 0.931 . S
C72 C66 1.383 . S
C72 C71 1.379 . S
H73 C67 0.959 . S
H74 C67 0.961 . S
H75 C67 0.960 . S
H76 C68 0.930 . S
H77 C69 0.929 . S
H78 C86 0.929 . S
H79 C88 0.930 . S
H80 C90 0.930 . S
H81 C93 0.929 . S
H82 C96 0.930 . S
H83 C98 0.960 . S
H84 C98 0.960 . S
H85 C98 0.960 . S
C86 H78 0.929 . S
C86 C87 1.377 . S
C86 C88 1.384 . S
C87 C86 1.377 . S
C87 C93 1.390 . S
C88 H79 0.930 . S
C88 C86 1.384 . S
C88 C89 1.372 . S
C89 C88 1.372 . S
C89 C90 1.400 . S
C89 C94 1.490 . S
C90 H80 0.930 . S
C90 C89 1.400 . S
C90 C93 1.386 . S
H91 C107 0.930 . S
H92 C108 0.931 . S
C93 H81 0.929 . S
C93 C87 1.390 . S
C93 C90 1.386 . S
C94 C89 1.490 . S
C94 C96 1.395 . S
C94 C97 1.403 . S
H95 C101 0.930 . S
C96 H82 0.930 . S
C96 C94 1.395 . S
C96 C99 1.403 . S
C97 C94 1.403 . S
C97 C98 1.524 . S
C97 C101 1.400 . S
C98 H83 0.960 . S
C98 H84 0.960 . S
C98 H85 0.960 . S
C98 C97 1.524 . S
C99 C96 1.403 . S
C99 C100 1.392 . S
C99 C103 1.495 . S
C100 C99 1.392 . S
C100 C101 1.385 . S
C100 C102 1.478 . S
C101 H95 0.930 . S
C101 C97 1.400 . S
C101 C100 1.385 . S
C102 C100 1.478 . S
C102 C104 1.381 . S
C102 C108 1.383 . S
C103 C99 1.495 . S
C103 H109 0.959 . S
C103 H110 0.961 . S
C103 H111 0.960 . S
C104 C102 1.381 . S
C104 C105 1.394 . S
C104 H112 0.930 . S
C105 C104 1.394 . S
C105 C106 1.383 . S
C105 H113 0.929 . S
C106 C105 1.383 . S
C106 C107 1.377 . S
C107 H91 0.930 . S
C107 C106 1.377 . S
C107 C108 1.379 . S
C108 H92 0.931 . S
C108 C102 1.383 . S
C108 C107 1.379 . S
H109 C103 0.959 . S
H110 C103 0.961 . S
H111 C103 0.960 . S
H112 C104 0.930 . S
H113 C105 0.929 . S
H114 C122 0.929 . S
H115 C124 0.930 . S
H116 C126 0.930 . S
H117 C129 0.929 . S
H118 C132 0.930 . S
H119 C134 0.960 . S
H120 C134 0.960 . S
H121 C134 0.960 . S
C122 H114 0.929 . S
C122 C123 1.377 . S
C122 C124 1.384 . S
C123 C122 1.377 . S
C123 C129 1.390 . S
C124 H115 0.930 . S
C124 C122 1.384 . S
C124 C125 1.372 . S
C125 C124 1.372 . S
C125 C126 1.400 . S
C125 C130 1.490 . S
C126 H116 0.930 . S
C126 C125 1.400 . S
C126 C129 1.386 . S
H127 C143 0.930 . S
H128 C144 0.931 . S
C129 H117 0.929 . S
C129 C123 1.390 . S
C129 C126 1.386 . S
C130 C125 1.490 . S
C130 C132 1.395 . S
C130 C133 1.403 . S
H131 C137 0.930 . S
C132 H118 0.930 . S
C132 C130 1.395 . S
C132 C135 1.403 . S
C133 C130 1.403 . S
C133 C134 1.524 . S
C133 C137 1.400 . S
C134 H119 0.960 . S
C134 H120 0.960 . S
C134 H121 0.960 . S
C134 C133 1.524 . S
C135 C132 1.403 . S
C135 C136 1.392 . S
C135 C139 1.495 . S
C136 C135 1.392 . S
C136 C137 1.385 . S
C136 C138 1.478 . S
C137 H131 0.930 . S
C137 C133 1.400 . S
C137 C136 1.385 . S
C138 C136 1.478 . S
C138 C140 1.381 . S
C138 C144 1.383 . S
C139 C135 1.495 . S
C139 H145 0.959 . S
C139 H146 0.961 . S
C139 H147 0.960 . S
C140 C138 1.381 . S
C140 C141 1.394 . S
C140 H148 0.930 . S
C141 C140 1.394 . S
C141 C142 1.383 . S
C141 H149 0.929 . S
C142 C141 1.383 . S
C142 C143 1.377 . S
C143 H127 0.930 . S
C143 C142 1.377 . S
C143 C144 1.379 . S
C144 H128 0.931 . S
C144 C138 1.383 . S
C144 C143 1.379 . S
H145 C139 0.959 . S
H146 C139 0.961 . S
H147 C139 0.960 . S
H148 C140 0.930 . S
H149 C141 0.929 . S
H150 C158 0.929 . S
H151 C160 0.930 . S
H152 C162 0.930 . S
H153 C165 0.929 . S
H154 C168 0.930 . S
H155 C170 0.960 . S
H156 C170 0.960 . S
H157 C170 0.960 . S
C158 H150 0.929 . S
C158 C159 1.377 . S
C158 C160 1.384 . S
C159 C158 1.377 . S
C159 C165 1.390 . S
C160 H151 0.930 . S
C160 C158 1.384 . S
C160 C161 1.372 . S
C161 C160 1.372 . S
C161 C162 1.400 . S
C161 C166 1.490 . S
C162 H152 0.930 . S
C162 C161 1.400 . S
C162 C165 1.386 . S
H163 C179 0.930 . S
H164 C180 0.931 . S
C165 H153 0.929 . S
C165 C159 1.390 . S
C165 C162 1.386 . S
C166 C161 1.490 . S
C166 C168 1.395 . S
C166 C169 1.403 1_556 S
H167 C173 0.930 . S
C168 H154 0.930 . S
C168 C166 1.395 . S
C168 C171 1.403 . S
C169 C166 1.403 1_554 S
C169 C170 1.524 . S
C169 C173 1.400 . S
C170 H155 0.960 . S
C170 H156 0.960 . S
C170 H157 0.960 . S
C170 C169 1.524 . S
C171 C168 1.403 . S
C171 C172 1.392 1_556 S
C171 C175 1.495 . S
C172 C171 1.392 1_554 S
C172 C173 1.385 . S
C172 C174 1.478 . S
C173 H167 0.930 . S
C173 C169 1.400 . S
C173 C172 1.385 . S
C174 C172 1.478 . S
C174 C176 1.381 . S
C174 C180 1.383 . S
C175 C171 1.495 . S
C175 H181 0.959 . S
C175 H182 0.961 . S
C175 H183 0.960 . S
C176 C174 1.381 . S
C176 C177 1.394 . S
C176 H184 0.930 . S
C177 C176 1.394 . S
C177 C178 1.383 . S
C177 H185 0.929 . S
C178 C177 1.383 . S
C178 C179 1.377 . S
C179 H163 0.930 . S
C179 C178 1.377 . S
C179 C180 1.379 . S
C180 H164 0.931 . S
C180 C174 1.383 . S
C180 C179 1.379 . S
H181 C175 0.959 . S
H182 C175 0.961 . S
H183 C175 0.960 . S
H184 C176 0.930 . S
H185 C177 0.929 . S
H186 C194 0.929 . S
H187 C196 0.930 . S
H188 C198 0.930 . S
H189 C201 0.929 . S
H190 C204 0.930 . S
H191 C206 0.960 . S
H192 C206 0.960 . S
H193 C206 0.960 . S
C194 H186 0.929 . S
C194 C195 1.377 . S
C194 C196 1.384 . S
C195 C194 1.377 . S
C195 C201 1.390 . S
C196 H187 0.930 . S
C196 C194 1.384 . S
C196 C197 1.372 . S
C197 C196 1.372 . S
C197 C198 1.400 . S
C197 C202 1.490 . S
C198 H188 0.930 . S
C198 C197 1.400 . S
C198 C201 1.386 . S
H199 C215 0.930 . S
H200 C216 0.931 . S
C201 H189 0.929 . S
C201 C195 1.390 . S
C201 C198 1.386 . S
C202 C197 1.490 . S
C202 C204 1.395 . S
C202 C205 1.403 . S
H203 C209 0.930 . S
C204 H190 0.930 . S
C204 C202 1.395 . S
C204 C207 1.403 . S
C205 C202 1.403 . S
C205 C206 1.524 . S
C205 C209 1.400 . S
C206 H191 0.960 . S
C206 H192 0.960 . S
C206 H193 0.960 . S
C206 C205 1.524 . S
C207 C204 1.403 . S
C207 C208 1.392 . S
C207 C211 1.495 . S
C208 C207 1.392 . S
C208 C209 1.385 . S
C208 C210 1.478 . S
C209 H203 0.930 . S
C209 C205 1.400 . S
C209 C208 1.385 . S
C210 C208 1.478 . S
C210 C212 1.381 . S
C210 C216 1.383 . S
C211 C207 1.495 . S
C211 H217 0.959 . S
C211 H218 0.961 . S
C211 H219 0.960 . S
C212 C210 1.381 . S
C212 C213 1.394 . S
C212 H220 0.930 . S
C213 C212 1.394 . S
C213 C214 1.383 . S
C213 H221 0.929 . S
C214 C213 1.383 . S
C214 C215 1.377 . S
C215 H199 0.930 . S
C215 C214 1.377 . S
C215 C216 1.379 . S
C216 H200 0.931 . S
C216 C210 1.383 . S
C216 C215 1.379 . S
H217 C211 0.959 . S
H218 C211 0.961 . S
H219 C211 0.960 . S
H220 C212 0.930 . S
H221 C213 0.929 . S
H222 C230 0.929 . S
H223 C232 0.930 . S
H224 C234 0.930 . S
H225 C237 0.929 . S
H226 C240 0.930 . S
H227 C242 0.960 . S
H228 C242 0.960 . S
H229 C242 0.960 . S
C230 H222 0.929 . S
C230 C231 1.377 . S
C230 C232 1.384 . S
C231 C230 1.377 . S
C231 C237 1.390 . S
C232 H223 0.930 . S
C232 C230 1.384 . S
C232 C233 1.372 . S
C233 C232 1.372 . S
C233 C234 1.400 . S
C233 C238 1.490 . S
C234 H224 0.930 . S
C234 C233 1.400 . S
C234 C237 1.386 . S
H235 C251 0.930 . S
H236 C252 0.931 . S
C237 H225 0.929 . S
C237 C231 1.390 . S
C237 C234 1.386 . S
C238 C233 1.490 . S
C238 C240 1.395 . S
C238 C241 1.403 . S
H239 C245 0.930 . S
C240 H226 0.930 . S
C240 C238 1.395 . S
C240 C243 1.403 . S
C241 C238 1.403 . S
C241 C242 1.524 . S
C241 C245 1.400 . S
C242 H227 0.960 . S
C242 H228 0.960 . S
C242 H229 0.960 . S
C242 C241 1.524 . S
C243 C240 1.403 . S
C243 C244 1.392 . S
C243 C247 1.495 . S
C244 C243 1.392 . S
C244 C245 1.385 . S
C244 C246 1.478 . S
C245 H239 0.930 . S
C245 C241 1.400 . S
C245 C244 1.385 . S
C246 C244 1.478 . S
C246 C248 1.381 . S
C246 C252 1.383 . S
C247 C243 1.495 . S
C247 H253 0.959 . S
C247 H254 0.961 . S
C247 H255 0.960 . S
C248 C246 1.381 . S
C248 C249 1.394 . S
C248 H256 0.930 . S
C249 C248 1.394 . S
C249 C250 1.383 . S
C249 H257 0.929 . S
C250 C249 1.383 . S
C250 C251 1.377 . S
C251 H235 0.930 . S
C251 C250 1.377 . S
C251 C252 1.379 . S
C252 H236 0.931 . S
C252 C246 1.383 . S
C252 C251 1.379 . S
H253 C247 0.959 . S
H254 C247 0.961 . S
H255 C247 0.960 . S
H256 C248 0.930 . S
H257 C249 0.929 . S
C51 C40 1.246 . S
C70 C5 1.012 . S
C87 C12 1.284 . S
C106 C26 1.273 . S
C123 C19 0.992 . S
C142 C39 1.107 . S
C159 C32 1.137 . S
C178 C11 1.152 . S
C195 C18 1.231 . S
C214 C4 1.215 . S
C231 C33 1.004 . S
C250 C25 1.129 . S
