# Generated by pormake.
# Topology vmh, (6)-cn, num edge types: 1
# Building blocks:
#     Node 0, Type 0, BuildingBlock: OJICUG_clean_sbu_0, # of connection points: 6
#     Node 1, Type 0, BuildingBlock: OJICUG_clean_sbu_0, # of connection points: 6
#     Node 2, Type 0, BuildingBlock: OJICUG_clean_sbu_0, # of connection points: 6
#     Node 3, Type 0, BuildingBlock: OJICUG_clean_sbu_0, # of connection points: 6
#     Node 4, Type 0, BuildingBlock: OJICUG_clean_sbu_0, # of connection points: 6
#     Node 5, Type 0, BuildingBlock: OJICUG_clean_sbu_0, # of connection points: 6
#     Node 6, Type 0, BuildingBlock: OJICUG_clean_sbu_0, # of connection points: 6
#     Node 7, Type 0, BuildingBlock: OJICUG_clean_sbu_0, # of connection points: 6
#     Edge 8, Type (0, 0), None
#     Edge 9, Type (0, 0), None
#     Edge 10, Type (0, 0), None
#     Edge 11, Type (0, 0), None
#     Edge 12, Type (0, 0), None
#     Edge 13, Type (0, 0), None
#     Edge 14, Type (0, 0), None
#     Edge 15, Type (0, 0), None
#     Edge 16, Type (0, 0), None
#     Edge 17, Type (0, 0), None
#     Edge 18, Type (0, 0), None
#     Edge 19, Type (0, 0), None
#     Edge 20, Type (0, 0), None
#     Edge 21, Type (0, 0), None
#     Edge 22, Type (0, 0), None
#     Edge 23, Type (0, 0), None
#     Edge 24, Type (0, 0), None
#     Edge 25, Type (0, 0), None
#     Edge 26, Type (0, 0), None
#     Edge 27, Type (0, 0), None
#     Edge 28, Type (0, 0), None
#     Edge 29, Type (0, 0), None
#     Edge 30, Type (0, 0), None
#     Edge 31, Type (0, 0), None
# Relax obj value: 0.243
# Max RMSD: 0.270
# Mean RMSD: 0.270
data_MOF--net-vmh--node1-OJICUG_clean_sbu_0--edge1-none
_symmetry_space_group_name_H-M    P1
_symmetry_Int_Tables_number       1
_symmetry_cell_setting            triclinic
loop_
_symmetry_equiv_pos_as_xyz
'x, y, z'
_cell_length_a     13.699476
_cell_length_b     22.475909
_cell_length_c     15.230119
_cell_angle_alpha  89.999569
_cell_angle_beta   107.65142
_cell_angle_gamma 90.000383
loop_
_atom_site_label
_atom_site_type_symbol
_atom_site_fract_x
_atom_site_fract_y
_atom_site_fract_z
_atom_type_partial_charge
Sc0 Sc 0.23103 0.07933 0.12683 0.0
Sc1 Sc 0.30114 0.94735 0.04578 0.0
Sc2 Sc 0.40727 0.08664 0.00412 0.0
O3 O 0.3085 0.03822 0.05364 0.0
C4 C 0.26506 0.18775 -0.00141 0.0
C5 C 0.06675 -0.01779 0.01227 0.0
C6 C 0.30009 -0.00582 0.84348 0.0
C7 C 0.28217 0.9633 0.24618 0.0
C8 C 0.46448 0.12761 0.20536 0.0
C9 C 0.51243 -0.02731 0.04013 0.0
O10 O 0.22707 0.16412 0.05697 0.0
O11 O 0.13806 0.94479 0.01985 0.0
O12 O 0.34968 0.04189 0.87224 0.0
O13 O 0.229 0.0094 0.22032 0.0
O14 O 0.47189 0.13628 0.12589 0.0
O15 O 0.46208 0.93465 0.06893 0.0
O16 O 0.38258 0.10703 0.2196 0.0
O17 O 0.32649 0.93664 0.19455 0.0
O18 O 0.51706 0.02375 0.07246 0.0
O19 O 0.08504 0.03808 0.03532 0.0
O20 O 0.30676 0.15752 0.94975 0.0
O21 O 0.27635 0.9563 0.89709 0.0
Sc22 Sc 0.79498 0.07933 0.35969 0.0
Sc23 Sc 0.72487 0.94735 0.44073 0.0
Sc24 Sc 0.61872 0.08663 0.48238 0.0
O25 O 0.7175 0.03822 0.43287 0.0
C26 C 0.76094 0.18775 0.48792 0.0
C27 C 0.95926 -0.01779 0.47424 0.0
C28 C 0.72592 -0.00582 0.64304 0.0
C29 C 0.74383 0.96331 0.24033 0.0
C30 C 0.56155 0.12765 0.28115 0.0
C31 C 0.51358 -0.02732 0.44638 0.0
O32 O 0.79894 0.16411 0.42956 0.0
O33 O 0.88795 0.94479 0.46666 0.0
O34 O 0.67632 0.04189 0.61427 0.0
O35 O 0.797 0.00941 0.2662 0.0
O36 O 0.55408 0.13627 0.36061 0.0
O37 O 0.56393 0.93463 0.4176 0.0
O38 O 0.64344 0.10704 0.26692 0.0
O39 O 0.69951 0.93664 0.29196 0.0
O40 O 0.50895 0.02374 0.41404 0.0
O41 O 0.94097 0.03808 0.4512 0.0
O42 O 0.7192 0.15753 0.53675 0.0
O43 O 0.74966 0.9563 0.58942 0.0
Sc44 Sc 0.79498 0.86097 0.85969 0.0
Sc45 Sc 0.72486 -0.00706 0.94073 0.0
Sc46 Sc 0.61875 0.85365 0.9824 0.0
O47 O 0.7175 0.90207 0.93287 0.0
C48 C 0.56152 0.81271 0.78115 0.0
C49 C 0.74388 -0.023 0.74035 0.0
C50 C 0.51354 0.9676 0.9463 0.0
C51 C 0.95926 0.95809 0.97427 0.0
C52 C 0.76097 0.75255 0.98792 0.0
C53 C 0.7259 0.94611 0.14303 0.0
O54 O 0.64342 0.83328 0.7669 0.0
O55 O 0.69954 0.00366 0.79196 0.0
O56 O 0.50887 0.9165 0.91408 0.0
O57 O 0.94097 0.90222 0.95121 0.0
O58 O 0.7193 0.78279 0.03679 0.0
O59 O 0.74961 -0.016 0.08941 0.0
O60 O 0.79893 0.77618 0.92952 0.0
O61 O 0.88795 -0.00449 0.9667 0.0
O62 O 0.6763 0.89841 0.11428 0.0
O63 O 0.79704 0.9309 0.76621 0.0
O64 O 0.55416 0.804 0.86063 0.0
O65 O 0.56391 0.00563 0.91753 0.0
Sc66 Sc 0.23102 0.86097 0.62683 0.0
Sc67 Sc 0.30114 -0.00706 0.54579 0.0
Sc68 Sc 0.40727 0.85365 0.50412 0.0
O69 O 0.30851 0.90207 0.55365 0.0
C70 C 0.46445 0.81267 0.70537 0.0
C71 C 0.28213 -0.023 0.74617 0.0
C72 C 0.51247 0.96761 0.54022 0.0
C73 C 0.06675 0.95809 0.51225 0.0
C74 C 0.26504 0.75255 0.4986 0.0
C75 C 0.3001 0.94611 0.34348 0.0
O76 O 0.38257 0.83327 0.71961 0.0
O77 O 0.32647 0.00366 0.69455 0.0
O78 O 0.51713 0.91651 0.57245 0.0
O79 O 0.08503 0.90222 0.5353 0.0
O80 O 0.30674 0.78278 0.44975 0.0
O81 O 0.27638 -0.016 0.3971 0.0
O82 O 0.22707 0.77619 0.55698 0.0
O83 O 0.13806 -0.00449 0.51982 0.0
O84 O 0.34971 0.89841 0.37224 0.0
O85 O 0.22897 0.9309 0.72031 0.0
O86 O 0.47188 0.80401 0.6259 0.0
O87 O 0.46208 0.00565 0.56897 0.0
Sc88 Sc 0.73103 0.57933 0.12683 0.0
Sc89 Sc 0.80114 0.44735 0.04578 0.0
Sc90 Sc 0.90727 0.58664 0.00412 0.0
O91 O 0.8085 0.53822 0.05364 0.0
C92 C 0.76506 0.68775 -0.00141 0.0
C93 C 0.56675 0.48221 0.01227 0.0
C94 C 0.80009 0.49418 0.84348 0.0
C95 C 0.78217 0.4633 0.24618 0.0
C96 C 0.96448 0.62761 0.20536 0.0
C97 C 1.01243 0.47269 0.04013 0.0
O98 O 0.72707 0.66412 0.05697 0.0
O99 O 0.63806 0.44479 0.01985 0.0
O100 O 0.84968 0.54189 0.87224 0.0
O101 O 0.729 0.5094 0.22032 0.0
O102 O 0.97189 0.63628 0.12589 0.0
O103 O 0.96208 0.43465 0.06893 0.0
O104 O 0.88258 0.60704 0.2196 0.0
O105 O 0.82649 0.43664 0.19455 0.0
O106 O 0.01706 0.52375 0.07246 0.0
O107 O 0.58504 0.53808 0.03532 0.0
O108 O 0.80676 0.65752 0.94975 0.0
O109 O 0.77635 0.4563 0.89709 0.0
Sc110 Sc 0.29498 0.57933 0.35969 0.0
Sc111 Sc 0.22487 0.44735 0.44073 0.0
Sc112 Sc 0.11872 0.58663 0.48238 0.0
O113 O 0.2175 0.53822 0.43287 0.0
C114 C 0.26094 0.68775 0.48792 0.0
C115 C 0.45926 0.48221 0.47424 0.0
C116 C 0.22592 0.49418 0.64304 0.0
C117 C 0.24383 0.46331 0.24033 0.0
C118 C 0.06155 0.62765 0.28115 0.0
C119 C 0.01358 0.47268 0.44638 0.0
O120 O 0.29894 0.66411 0.42956 0.0
O121 O 0.38795 0.44479 0.46666 0.0
O122 O 0.17632 0.54189 0.61427 0.0
O123 O 0.297 0.50941 0.2662 0.0
O124 O 0.05408 0.63627 0.36061 0.0
O125 O 0.06393 0.43463 0.4176 0.0
O126 O 0.14344 0.60705 0.26692 0.0
O127 O 0.19951 0.43664 0.29196 0.0
O128 O 1.00895 0.52374 0.41404 0.0
O129 O 0.44097 0.53808 0.4512 0.0
O130 O 0.2192 0.65753 0.53675 0.0
O131 O 0.24966 0.4563 0.58942 0.0
Sc132 Sc 0.29498 0.36097 0.85969 0.0
Sc133 Sc 0.22486 0.49294 0.94073 0.0
Sc134 Sc 0.11875 0.35365 0.9824 0.0
O135 O 0.2175 0.40207 0.93287 0.0
C136 C 0.06152 0.31271 0.78115 0.0
C137 C 0.24388 0.477 0.74035 0.0
C138 C 0.01354 0.4676 0.9463 0.0
C139 C 0.45926 0.45809 0.97427 0.0
C140 C 0.26097 0.25255 0.98792 0.0
C141 C 0.2259 0.44611 0.14303 0.0
O142 O 0.14342 0.33328 0.7669 0.0
O143 O 0.19954 0.50366 0.79196 0.0
O144 O 1.00887 0.4165 0.91408 0.0
O145 O 0.44097 0.40222 0.95121 0.0
O146 O 0.2193 0.28279 0.03679 0.0
O147 O 0.24961 0.484 0.08941 0.0
O148 O 0.29893 0.27618 0.92952 0.0
O149 O 0.38795 0.49551 0.9667 0.0
O150 O 0.1763 0.39841 0.11428 0.0
O151 O 0.29704 0.4309 0.76621 0.0
O152 O 0.05416 0.304 0.86063 0.0
O153 O 0.06391 0.50563 0.91753 0.0
Sc154 Sc 0.73102 0.36097 0.62683 0.0
Sc155 Sc 0.80114 0.49294 0.54579 0.0
Sc156 Sc 0.90727 0.35365 0.50412 0.0
O157 O 0.80851 0.40207 0.55365 0.0
C158 C 0.96445 0.31267 0.70537 0.0
C159 C 0.78213 0.477 0.74617 0.0
C160 C 1.01247 0.46761 0.54022 0.0
C161 C 0.56675 0.45809 0.51225 0.0
C162 C 0.76504 0.25255 0.4986 0.0
C163 C 0.8001 0.44611 0.34348 0.0
O164 O 0.88257 0.33327 0.71961 0.0
O165 O 0.82647 0.50366 0.69455 0.0
O166 O 0.01712 0.41651 0.57245 0.0
O167 O 0.58503 0.40222 0.5353 0.0
O168 O 0.80674 0.28278 0.44975 0.0
O169 O 0.77638 0.484 0.3971 0.0
O170 O 0.72707 0.27619 0.55698 0.0
O171 O 0.63806 0.49551 0.51982 0.0
O172 O 0.84971 0.39841 0.37224 0.0
O173 O 0.72897 0.4309 0.72031 0.0
O174 O 0.97188 0.30401 0.6259 0.0
O175 O 0.96208 0.50565 0.56897 0.0
loop_
_geom_bond_atom_site_label_1
_geom_bond_atom_site_label_2
_geom_bond_distance
_geom_bond_site_symmetry_2
_ccdc_geom_bond_type
Sc0 O3 2.025 . S
Sc0 O10 2.105 . S
Sc0 O13 2.105 . S
Sc0 O16 2.105 . S
Sc0 O19 2.105 . S
Sc1 O3 2.025 1_565 S
Sc1 O11 2.105 . S
Sc1 O15 2.105 . S
Sc1 O17 2.105 . S
Sc1 O21 2.105 1_554 S
Sc2 O3 2.025 1_556 S
Sc2 O12 2.105 . S
Sc2 O14 2.105 1_556 S
Sc2 O18 2.105 1_556 S
Sc2 O20 2.105 . S
O3 Sc0 2.025 . S
O3 Sc1 2.025 1_545 S
O3 Sc2 2.025 1_554 S
C4 O10 1.268 . S
C4 O20 1.268 1_554 S
C5 O11 1.268 1_545 S
C5 O19 1.268 . S
C6 O12 1.268 . S
C6 O21 1.268 1_545 S
C7 O13 1.268 1_565 S
C7 O17 1.268 . S
C8 O14 1.268 . S
C8 O16 1.268 . S
C9 O15 1.268 . S
C9 O18 1.270 1_565 S
O10 Sc0 2.105 . S
O10 C4 1.268 . S
O11 Sc1 2.105 . S
O11 C5 1.268 1_565 S
O12 Sc2 2.105 . S
O12 C6 1.268 . S
O13 Sc0 2.105 . S
O13 C7 1.268 1_545 S
O14 Sc2 2.105 1_554 S
O14 C8 1.268 . S
O15 Sc1 2.105 . S
O15 C9 1.268 . S
O16 Sc0 2.105 . S
O16 C8 1.268 . S
O17 Sc1 2.105 . S
O17 C7 1.268 . S
O18 Sc2 2.105 1_554 S
O18 C9 1.270 1_545 S
O19 Sc0 2.105 . S
O19 C5 1.268 . S
O20 Sc2 2.105 . S
O20 C4 1.268 1_556 S
O21 Sc1 2.105 1_556 S
O21 C6 1.268 1_565 S
Sc22 O25 2.025 . S
Sc22 O32 2.105 . S
Sc22 O35 2.105 . S
Sc22 O38 2.105 . S
Sc22 O41 2.105 . S
Sc23 O25 2.025 1_565 S
Sc23 O33 2.105 . S
Sc23 O37 2.105 . S
Sc23 O39 2.105 . S
Sc23 O43 2.105 . S
Sc24 O25 2.025 . S
Sc24 O34 2.105 . S
Sc24 O36 2.105 . S
Sc24 O40 2.105 . S
Sc24 O42 2.105 . S
O25 Sc22 2.025 . S
O25 Sc23 2.025 1_545 S
O25 Sc24 2.025 . S
C26 O32 1.268 . S
C26 O42 1.268 . S
C27 O33 1.268 1_545 S
C27 O41 1.268 . S
C28 O34 1.268 . S
C28 O43 1.268 1_545 S
C29 O35 1.268 1_565 S
C29 O39 1.268 . S
C30 O36 1.268 . S
C30 O38 1.268 . S
C31 O37 1.268 . S
C31 O40 1.268 1_565 S
O32 Sc22 2.105 . S
O32 C26 1.268 . S
O33 Sc23 2.105 . S
O33 C27 1.268 1_565 S
O34 Sc24 2.105 . S
O34 C28 1.268 . S
O35 Sc22 2.105 . S
O35 C29 1.268 1_545 S
O36 Sc24 2.105 . S
O36 C30 1.268 . S
O37 Sc23 2.105 . S
O37 C31 1.268 . S
O38 Sc22 2.105 . S
O38 C30 1.268 . S
O39 Sc23 2.105 . S
O39 C29 1.268 . S
O40 Sc24 2.105 . S
O40 C31 1.268 1_545 S
O41 Sc22 2.105 . S
O41 C27 1.268 . S
O42 Sc24 2.105 . S
O42 C26 1.268 . S
O43 Sc23 2.105 . S
O43 C28 1.268 1_565 S
Sc44 O47 2.025 . S
Sc44 O54 2.105 . S
Sc44 O57 2.105 . S
Sc44 O60 2.105 . S
Sc44 O63 2.105 . S
Sc45 O47 2.025 1_545 S
Sc45 O55 2.105 . S
Sc45 O59 2.105 1_556 S
Sc45 O61 2.105 . S
Sc45 O65 2.105 . S
Sc46 O47 2.025 1_554 S
Sc46 O56 2.105 1_554 S
Sc46 O58 2.105 . S
Sc46 O62 2.105 . S
Sc46 O64 2.105 1_554 S
O47 Sc44 2.025 . S
O47 Sc45 2.025 1_565 S
O47 Sc46 2.025 1_556 S
C48 O54 1.268 . S
C48 O64 1.268 . S
C49 O55 1.268 . S
C49 O63 1.268 1_545 S
C50 O56 1.270 1_545 S
C50 O65 1.268 . S
C51 O57 1.268 . S
C51 O61 1.268 1_565 S
C52 O58 1.268 1_556 S
C52 O60 1.268 . S
C53 O59 1.268 1_565 S
C53 O62 1.268 . S
O54 Sc44 2.105 . S
O54 C48 1.268 . S
O55 Sc45 2.105 . S
O55 C49 1.268 . S
O56 Sc46 2.105 1_556 S
O56 C50 1.270 1_565 S
O57 Sc44 2.105 . S
O57 C51 1.268 . S
O58 Sc46 2.105 . S
O58 C52 1.268 1_554 S
O59 Sc45 2.105 1_554 S
O59 C53 1.268 1_545 S
O60 Sc44 2.105 . S
O60 C52 1.268 . S
O61 Sc45 2.105 . S
O61 C51 1.268 1_545 S
O62 Sc46 2.105 . S
O62 C53 1.268 . S
O63 Sc44 2.105 . S
O63 C49 1.268 1_565 S
O64 Sc46 2.105 1_556 S
O64 C48 1.268 . S
O65 Sc45 2.105 . S
O65 C50 1.268 . S
Sc66 O69 2.025 . S
Sc66 O76 2.105 . S
Sc66 O79 2.105 . S
Sc66 O82 2.105 . S
Sc66 O85 2.105 . S
Sc67 O69 2.025 1_545 S
Sc67 O77 2.105 . S
Sc67 O81 2.105 . S
Sc67 O83 2.105 . S
Sc67 O87 2.105 . S
Sc68 O69 2.025 . S
Sc68 O78 2.105 . S
Sc68 O80 2.105 . S
Sc68 O84 2.105 . S
Sc68 O86 2.105 . S
O69 Sc66 2.025 . S
O69 Sc67 2.025 1_565 S
O69 Sc68 2.025 . S
C70 O76 1.268 . S
C70 O86 1.268 . S
C71 O77 1.268 . S
C71 O85 1.268 1_545 S
C72 O78 1.268 1_545 S
C72 O87 1.268 . S
C73 O79 1.268 . S
C73 O83 1.268 1_565 S
C74 O80 1.268 . S
C74 O82 1.268 . S
C75 O81 1.268 1_565 S
C75 O84 1.268 . S
O76 Sc66 2.105 . S
O76 C70 1.268 . S
O77 Sc67 2.105 . S
O77 C71 1.268 . S
O78 Sc68 2.105 . S
O78 C72 1.268 1_565 S
O79 Sc66 2.105 . S
O79 C73 1.268 . S
O80 Sc68 2.105 . S
O80 C74 1.268 . S
O81 Sc67 2.105 . S
O81 C75 1.268 1_545 S
O82 Sc66 2.105 . S
O82 C74 1.268 . S
O83 Sc67 2.105 . S
O83 C73 1.268 1_545 S
O84 Sc68 2.105 . S
O84 C75 1.268 . S
O85 Sc66 2.105 . S
O85 C71 1.268 1_565 S
O86 Sc68 2.105 . S
O86 C70 1.268 . S
O87 Sc67 2.105 . S
O87 C72 1.268 . S
Sc88 O91 2.025 . S
Sc88 O98 2.105 . S
Sc88 O101 2.105 . S
Sc88 O104 2.105 . S
Sc88 O107 2.105 . S
Sc89 O91 2.025 . S
Sc89 O99 2.105 . S
Sc89 O103 2.105 . S
Sc89 O105 2.105 . S
Sc89 O109 2.105 1_554 S
Sc90 O91 2.025 1_556 S
Sc90 O100 2.105 . S
Sc90 O102 2.105 1_556 S
Sc90 O106 2.105 1_556 S
Sc90 O108 2.105 . S
O91 Sc88 2.025 . S
O91 Sc89 2.025 . S
O91 Sc90 2.025 1_554 S
C92 O98 1.268 . S
C92 O108 1.268 1_554 S
C93 O99 1.268 . S
C93 O107 1.268 . S
C94 O100 1.268 . S
C94 O109 1.268 . S
C95 O101 1.268 . S
C95 O105 1.268 . S
C96 O102 1.268 . S
C96 O104 1.268 . S
C97 O103 1.268 . S
C97 O106 1.270 . S
O98 Sc88 2.105 . S
O98 C92 1.268 . S
O99 Sc89 2.105 . S
O99 C93 1.268 . S
O100 Sc90 2.105 . S
O100 C94 1.268 . S
O101 Sc88 2.105 . S
O101 C95 1.268 . S
O102 Sc90 2.105 1_554 S
O102 C96 1.268 . S
O103 Sc89 2.105 . S
O103 C97 1.268 . S
O104 Sc88 2.105 . S
O104 C96 1.268 . S
O105 Sc89 2.105 . S
O105 C95 1.268 . S
O106 Sc90 2.105 1_554 S
O106 C97 1.270 . S
O107 Sc88 2.105 . S
O107 C93 1.268 . S
O108 Sc90 2.105 . S
O108 C92 1.268 1_556 S
O109 Sc89 2.105 1_556 S
O109 C94 1.268 . S
Sc110 O113 2.025 . S
Sc110 O120 2.105 . S
Sc110 O123 2.105 . S
Sc110 O126 2.105 . S
Sc110 O129 2.105 . S
Sc111 O113 2.025 . S
Sc111 O121 2.105 . S
Sc111 O125 2.105 . S
Sc111 O127 2.105 . S
Sc111 O131 2.105 . S
Sc112 O113 2.025 . S
Sc112 O122 2.105 . S
Sc112 O124 2.105 . S
Sc112 O128 2.105 . S
Sc112 O130 2.105 . S
O113 Sc110 2.025 . S
O113 Sc111 2.025 . S
O113 Sc112 2.025 . S
C114 O120 1.268 . S
C114 O130 1.268 . S
C115 O121 1.268 . S
C115 O129 1.268 . S
C116 O122 1.268 . S
C116 O131 1.268 . S
C117 O123 1.268 . S
C117 O127 1.268 . S
C118 O124 1.268 . S
C118 O126 1.268 . S
C119 O125 1.268 . S
C119 O128 1.268 . S
O120 Sc110 2.105 . S
O120 C114 1.268 . S
O121 Sc111 2.105 . S
O121 C115 1.268 . S
O122 Sc112 2.105 . S
O122 C116 1.268 . S
O123 Sc110 2.105 . S
O123 C117 1.268 . S
O124 Sc112 2.105 . S
O124 C118 1.268 . S
O125 Sc111 2.105 . S
O125 C119 1.268 . S
O126 Sc110 2.105 . S
O126 C118 1.268 . S
O127 Sc111 2.105 . S
O127 C117 1.268 . S
O128 Sc112 2.105 . S
O128 C119 1.268 . S
O129 Sc110 2.105 . S
O129 C115 1.268 . S
O130 Sc112 2.105 . S
O130 C114 1.268 . S
O131 Sc111 2.105 . S
O131 C116 1.268 . S
Sc132 O135 2.025 . S
Sc132 O142 2.105 . S
Sc132 O145 2.105 . S
Sc132 O148 2.105 . S
Sc132 O151 2.105 . S
Sc133 O135 2.025 . S
Sc133 O143 2.105 . S
Sc133 O147 2.105 1_556 S
Sc133 O149 2.105 . S
Sc133 O153 2.105 . S
Sc134 O135 2.025 1_554 S
Sc134 O144 2.105 1_554 S
Sc134 O146 2.105 . S
Sc134 O150 2.105 . S
Sc134 O152 2.105 1_554 S
O135 Sc132 2.025 . S
O135 Sc133 2.025 . S
O135 Sc134 2.025 1_556 S
C136 O142 1.268 . S
C136 O152 1.268 . S
C137 O143 1.268 . S
C137 O151 1.268 . S
C138 O144 1.270 . S
C138 O153 1.268 . S
C139 O145 1.268 . S
C139 O149 1.268 . S
C140 O146 1.268 1_556 S
C140 O148 1.268 . S
C141 O147 1.268 . S
C141 O150 1.268 . S
O142 Sc132 2.105 . S
O142 C136 1.268 . S
O143 Sc133 2.105 . S
O143 C137 1.268 . S
O144 Sc134 2.105 1_556 S
O144 C138 1.270 . S
O145 Sc132 2.105 . S
O145 C139 1.268 . S
O146 Sc134 2.105 . S
O146 C140 1.268 1_554 S
O147 Sc133 2.105 1_554 S
O147 C141 1.268 . S
O148 Sc132 2.105 . S
O148 C140 1.268 . S
O149 Sc133 2.105 . S
O149 C139 1.268 . S
O150 Sc134 2.105 . S
O150 C141 1.268 . S
O151 Sc132 2.105 . S
O151 C137 1.268 . S
O152 Sc134 2.105 1_556 S
O152 C136 1.268 . S
O153 Sc133 2.105 . S
O153 C138 1.268 . S
Sc154 O157 2.025 . S
Sc154 O164 2.105 . S
Sc154 O167 2.105 . S
Sc154 O170 2.105 . S
Sc154 O173 2.105 . S
Sc155 O157 2.025 . S
Sc155 O165 2.105 . S
Sc155 O169 2.105 . S
Sc155 O171 2.105 . S
Sc155 O175 2.105 . S
Sc156 O157 2.025 . S
Sc156 O166 2.105 . S
Sc156 O168 2.105 . S
Sc156 O172 2.105 . S
Sc156 O174 2.105 . S
O157 Sc154 2.025 . S
O157 Sc155 2.025 . S
O157 Sc156 2.025 . S
C158 O164 1.268 . S
C158 O174 1.268 . S
C159 O165 1.268 . S
C159 O173 1.268 . S
C160 O166 1.268 . S
C160 O175 1.268 . S
C161 O167 1.268 . S
C161 O171 1.268 . S
C162 O168 1.268 . S
C162 O170 1.268 . S
C163 O169 1.268 . S
C163 O172 1.268 . S
O164 Sc154 2.105 . S
O164 C158 1.268 . S
O165 Sc155 2.105 . S
O165 C159 1.268 . S
O166 Sc156 2.105 . S
O166 C160 1.268 . S
O167 Sc154 2.105 . S
O167 C161 1.268 . S
O168 Sc156 2.105 . S
O168 C162 1.268 . S
O169 Sc155 2.105 . S
O169 C163 1.268 . S
O170 Sc154 2.105 . S
O170 C162 1.268 . S
O171 Sc155 2.105 . S
O171 C161 1.268 . S
O172 Sc156 2.105 . S
O172 C163 1.268 . S
O173 Sc154 2.105 . S
O173 C159 1.268 . S
O174 Sc156 2.105 . S
O174 C158 1.268 . S
O175 Sc155 2.105 . S
O175 C160 1.268 . S
C6 C71 1.343 . S
C49 C28 1.343 . S
C29 C53 1.343 . S
C7 C75 1.343 . S
C159 C94 1.343 . S
C116 C137 1.343 . S
C117 C141 1.343 . S
C95 C163 1.343 . S
C9 C50 1.517 1_564 S
C72 C31 1.517 1_545 S
C97 C138 1.517 1_654 S
C119 C160 1.517 1_455 S
C5 C51 2.519 1_444 S
C27 C73 2.519 1_645 S
C139 C93 2.519 1_556 S
C161 C115 2.519 . S
C8 C30 2.159 . S
C48 C70 2.159 . S
C96 C118 2.159 1_655 S
C158 C136 2.159 1_655 S
C4 C140 1.439 1_554 S
C26 C162 1.439 . S
C52 C92 1.439 1_556 S
C114 C74 1.439 . S
