# Generated by pormake.
# Topology qtz, (4)-cn, num edge types: 1
# Building blocks:
#     Node 0, Type 0, BuildingBlock: CEKHIL_clean_sbu_0, # of connection points: 4
#     Node 1, Type 0, BuildingBlock: CEKHIL_clean_sbu_0, # of connection points: 4
#     Node 2, Type 0, BuildingBlock: CEKHIL_clean_sbu_0, # of connection points: 4
#     Edge 3, Type (0, 0), BuildingBlock: XIVTED_clean_linker_0, # of connection points: 2
#     Edge 4, Type (0, 0), BuildingBlock: XIVTED_clean_linker_0, # of connection points: 2
#     Edge 5, Type (0, 0), BuildingBlock: XIVTED_clean_linker_0, # of connection points: 2
#     Edge 6, Type (0, 0), BuildingBlock: XIVTED_clean_linker_0, # of connection points: 2
#     Edge 7, Type (0, 0), BuildingBlock: XIVTED_clean_linker_0, # of connection points: 2
#     Edge 8, Type (0, 0), BuildingBlock: XIVTED_clean_linker_0, # of connection points: 2
# Relax obj value: 0.004
# Max RMSD: 0.040
# Mean RMSD: 0.037
data_MOF--net-qtz--node1-CEKHIL_clean_sbu_0--edge1-XIVTED_clean_linker_0
_symmetry_space_group_name_H-M    P1
_symmetry_Int_Tables_number       1
_symmetry_cell_setting            triclinic
loop_
_symmetry_equiv_pos_as_xyz
'x, y, z'
_cell_length_a     23.186783
_cell_length_b     23.343283
_cell_length_c     28.605003
_cell_angle_alpha  91.878391
_cell_angle_beta   90.064967
_cell_angle_gamma 120.54346
loop_
_atom_site_label
_atom_site_type_symbol
_atom_site_fract_x
_atom_site_fract_y
_atom_site_fract_z
_atom_type_partial_charge
Co0 Co 0.00803 0.51666 0.15299 0.0
O1 O 0.07759 0.55915 0.10819 0.0
O2 O 0.06418 0.47713 0.15211 0.0
C3 C 0.92532 0.50405 0.10392 0.0
O4 O 0.94072 0.45944 0.20219 0.0
Co5 Co 0.92733 0.58347 0.18507 0.0
O6 O 0.87337 0.50047 0.21866 0.0
C7 C 0.06309 0.63176 0.22511 0.0
C8 C 0.09705 0.5182 0.11934 0.0
C9 C 0.89107 0.45751 0.22393 0.0
O10 O 0.0666 0.58455 0.20326 0.0
O11 O 0.01435 0.64211 0.2195 0.0
O12 O 0.94498 0.46095 0.10297 0.0
O13 O 0.95883 0.5551 0.13199 0.0
Co14 Co 0.52858 0.01715 0.52202 0.0
O15 O 0.48143 0.95155 0.56755 0.0
O16 O 0.56846 0.96162 0.5289 0.0
C17 C 0.53603 0.10165 0.56743 0.0
O18 O 0.59062 0.08196 0.4734 0.0
Co19 Co 0.46368 0.09529 0.48319 0.0
O20 O 0.55608 0.15517 0.46239 0.0
C21 C 0.411 0.95401 0.45415 0.0
C22 C 0.52367 0.93163 0.56067 0.0
C23 C 0.59882 0.13658 0.45726 0.0
O24 O 0.4629 0.95517 0.47162 0.0
O25 O 0.40004 0.00237 0.45914 0.0
O26 O 0.58019 0.0836 0.57206 0.0
O27 O 0.48782 0.06611 0.538 0.0
Co28 Co 0.50525 0.51808 0.81971 0.0
O29 O 0.46154 0.54546 0.77645 0.0
O30 O 0.55032 0.61486 0.82014 0.0
C31 C 0.51038 0.44466 0.76945 0.0
O32 O 0.56446 0.50606 0.86682 0.0
Co33 Co 0.43304 0.37052 0.8486 0.0
O34 O 0.52428 0.39595 0.87048 0.0
C35 C 0.39576 0.46331 0.89286 0.0
C36 C 0.50698 0.60625 0.78758 0.0
C37 C 0.56945 0.45625 0.87972 0.0
O38 O 0.4424 0.51242 0.87094 0.0
O39 O 0.38192 0.40304 0.88638 0.0
O40 O 0.55554 0.50733 0.76902 0.0
O41 O 0.46094 0.42937 0.797 0.0
H42 H 0.3912 0.57791 0.91044 0.0
H43 H 0.13315 0.42298 0.12036 0.0
H44 H 0.31235 0.37817 0.95766 0.0
H45 H 0.18095 0.60663 0.05658 0.0
H46 H 0.21153 0.41318 0.06803 0.0
H47 H 0.32556 0.59593 0.9701 0.0
C48 C 0.3603 0.53794 0.9333 0.0
C49 C 0.35699 0.47626 0.92864 0.0
C50 C 0.20521 0.45589 0.06575 0.0
C51 C 0.28234 0.49675 0.99722 0.0
C52 C 0.16079 0.46167 0.09582 0.0
C53 C 0.15019 0.51542 0.09261 0.0
C54 C 0.23942 0.50436 0.0324 0.0
C55 C 0.18724 0.56407 0.06004 0.0
C56 C 0.32286 0.54825 0.96736 0.0
C57 C 0.31613 0.42636 0.95945 0.0
N58 N 0.22992 0.55723 0.03105 0.0
N59 N 0.28054 0.43771 0.9923 0.0
H60 H 0.83353 0.47416 0.3011 0.0
H61 H 0.65775 0.10299 0.38581 0.0
H62 H 0.87109 0.33 0.2312 0.0
H63 H 0.673 0.27014 0.46562 0.0
H64 H 0.73912 0.18106 0.33024 0.0
H65 H 0.77564 0.39652 0.36171 0.0
C66 C 0.82924 0.42573 0.29832 0.0
C67 C 0.85653 0.40837 0.26055 0.0
C68 C 0.72563 0.20048 0.36052 0.0
C69 C 0.78952 0.31798 0.33083 0.0
C70 C 0.67972 0.15608 0.39234 0.0
C71 C 0.65842 0.18039 0.43002 0.0
C72 C 0.74977 0.26912 0.36677 0.0
C73 C 0.68758 0.24936 0.43672 0.0
C74 C 0.79649 0.38135 0.33337 0.0
C75 C 0.85045 0.34522 0.25963 0.0
N76 N 0.73101 0.29101 0.40526 0.0
N77 N 0.81671 0.30174 0.29404 0.0
H78 H 0.41567 0.83514 0.60352 0.0
H79 H 0.61915 0.72561 0.76775 0.0
H80 H 0.62755 0.91372 0.58797 0.0
H81 H 0.4056 0.60922 0.74293 0.0
H82 H 0.62562 0.80529 0.71048 0.0
H83 H 0.41324 0.76011 0.66163 0.0
C84 C 0.46168 0.83601 0.61201 0.0
C85 C 0.52183 0.88038 0.59068 0.0
C86 C 0.57741 0.7625 0.71796 0.0
C87 C 0.51974 0.79532 0.65826 0.0
C88 C 0.57358 0.71763 0.75102 0.0
C89 C 0.51169 0.66096 0.76013 0.0
C90 C 0.51878 0.75081 0.6946 0.0
C91 C 0.45431 0.65226 0.73694 0.0
C92 C 0.4603 0.79327 0.64535 0.0
C93 C 0.58 0.87961 0.60322 0.0
N94 N 0.45926 0.69658 0.70537 0.0
N95 N 0.57769 0.83807 0.63662 0.0
H96 H 0.61421 0.37024 0.89223 0.0
H97 H 0.88208 0.59261 0.09382 0.0
H98 H 0.65591 0.5672 0.9343 0.0
H99 H 0.84912 0.40296 0.04056 0.0
H100 H 0.79898 0.58473 0.03696 0.0
H101 H 0.70116 0.38294 0.94632 0.0
C102 C 0.64196 0.41646 0.91273 0.0
C103 C 0.62733 0.46759 0.90893 0.0
C104 C 0.80995 0.54488 0.03775 0.0
C105 C 0.72719 0.48226 0.97158 0.0
C106 C 0.8571 0.54916 0.07033 0.0
C107 C 0.87245 0.49828 0.0719 0.0
C108 C 0.77785 0.48924 0.00666 0.0
C109 C 0.83879 0.44327 0.04061 0.0
C110 C 0.69172 0.42364 0.9437 0.0
C111 C 0.66557 0.52656 0.93607 0.0
N112 N 0.79315 0.44025 0.00932 0.0
N113 N 0.71345 0.5321 0.9666 0.0
H114 H 0.42819 0.86716 0.39555 0.0
H115 H 0.05669 0.71412 0.2915 0.0
H116 H 0.27837 0.90794 0.44928 0.0
H117 H 0.18783 0.64594 0.24077 0.0
H118 H 0.13956 0.783 0.3507 0.0
H119 H 0.34283 0.78165 0.34113 0.0
C120 C 0.37724 0.85731 0.39645 0.0
C121 C 0.3604 0.89525 0.42637 0.0
C122 C 0.15068 0.75311 0.32681 0.0
C123 C 0.26354 0.79881 0.36459 0.0
C124 C 0.10324 0.71384 0.29256 0.0
C125 C 0.11534 0.67445 0.26064 0.0
C126 C 0.21162 0.75403 0.32939 0.0
C127 C 0.17652 0.67577 0.26456 0.0
C128 C 0.32878 0.80893 0.3653 0.0
C129 C 0.29388 0.88075 0.4262 0.0
N130 N 0.22278 0.7154 0.2982 0.0
N131 N 0.24831 0.83425 0.39567 0.0
H132 H 0.41082 0.31898 0.74532 0.0
H133 H 0.64005 0.20073 0.62041 0.0
H134 H 0.62226 0.45545 0.72928 0.0
H135 H 0.43362 0.12468 0.57974 0.0
H136 H 0.6362 0.28634 0.67073 0.0
H137 H 0.41958 0.23656 0.69558 0.0
C138 C 0.45913 0.33138 0.7315 0.0
C139 C 0.51582 0.39403 0.74104 0.0
C140 C 0.59205 0.25092 0.65052 0.0
C141 C 0.52628 0.30016 0.68474 0.0
C142 C 0.59416 0.20222 0.62199 0.0
C143 C 0.53708 0.15576 0.59601 0.0
C144 C 0.53203 0.25174 0.65364 0.0
C145 C 0.47882 0.1597 0.59912 0.0
C146 C 0.46403 0.28458 0.70302 0.0
C147 C 0.57729 0.40773 0.72232 0.0
N148 N 0.47759 0.20643 0.62779 0.0
N149 N 0.58107 0.36091 0.69513 0.0
loop_
_geom_bond_atom_site_label_1
_geom_bond_atom_site_label_2
_geom_bond_distance
_geom_bond_site_symmetry_2
_ccdc_geom_bond_type
Co0 O1 2.216 . S
Co0 O2 2.091 . S
Co0 O4 2.004 1_455 S
Co0 O10 2.021 . S
Co0 O12 2.137 1_455 S
Co0 O13 2.244 1_455 S
O1 Co0 2.216 . S
O1 C8 1.247 . S
O2 Co0 2.091 . S
O2 C8 1.261 . S
C3 O12 1.247 . S
C3 O13 1.272 . S
O4 Co0 2.004 1_655 S
O4 C9 1.259 . S
Co5 O6 2.061 . S
Co5 O11 2.052 1_655 S
Co5 O13 2.135 . S
O6 Co5 2.061 . S
O6 C9 1.235 . S
C7 O10 1.238 . S
C7 O11 1.241 . S
C8 O1 1.247 . S
C8 O2 1.261 . S
C9 O4 1.259 . S
C9 O6 1.235 . S
O10 Co0 2.021 . S
O10 C7 1.238 . S
O11 Co5 2.052 1_455 S
O11 C7 1.241 . S
O12 Co0 2.137 1_655 S
O12 C3 1.247 . S
O13 Co0 2.244 1_655 S
O13 C3 1.272 . S
O13 Co5 2.135 . S
Co14 O15 2.216 1_545 S
Co14 O16 2.091 1_545 S
Co14 O18 2.004 . S
Co14 O24 2.021 1_545 S
Co14 O26 2.137 . S
Co14 O27 2.244 . S
O15 Co14 2.216 1_565 S
O15 C22 1.247 . S
O16 Co14 2.091 1_565 S
O16 C22 1.261 . S
C17 O26 1.247 . S
C17 O27 1.272 . S
O18 Co14 2.004 . S
O18 C23 1.259 . S
Co19 O20 2.061 . S
Co19 O25 2.052 1_545 S
Co19 O27 2.135 . S
O20 Co19 2.061 . S
O20 C23 1.235 . S
C21 O24 1.238 . S
C21 O25 1.241 . S
C22 O15 1.247 . S
C22 O16 1.261 . S
C23 O18 1.259 . S
C23 O20 1.235 . S
O24 Co14 2.021 1_565 S
O24 C21 1.238 . S
O25 Co19 2.052 1_565 S
O25 C21 1.241 . S
O26 Co14 2.137 . S
O26 C17 1.247 . S
O27 Co14 2.244 . S
O27 C17 1.272 . S
O27 Co19 2.135 . S
Co28 O29 2.216 . S
Co28 O30 2.091 . S
Co28 O32 2.004 . S
Co28 O38 2.021 . S
Co28 O40 2.137 . S
Co28 O41 2.244 . S
O29 Co28 2.216 . S
O29 C36 1.247 . S
O30 Co28 2.091 . S
O30 C36 1.261 . S
C31 O40 1.247 . S
C31 O41 1.272 . S
O32 Co28 2.004 . S
O32 C37 1.259 . S
Co33 O34 2.061 . S
Co33 O39 2.052 . S
Co33 O41 2.135 . S
O34 Co33 2.061 . S
O34 C37 1.235 . S
C35 O38 1.238 . S
C35 O39 1.241 . S
C36 O29 1.247 . S
C36 O30 1.261 . S
C37 O32 1.259 . S
C37 O34 1.235 . S
O38 Co28 2.021 . S
O38 C35 1.238 . S
O39 Co33 2.052 . S
O39 C35 1.241 . S
O40 Co28 2.137 . S
O40 C31 1.247 . S
O41 Co28 2.244 . S
O41 C31 1.272 . S
O41 Co33 2.135 . S
H42 C48 0.930 . S
H43 C52 0.930 . S
H44 C57 0.929 . S
H45 C55 0.929 . S
H46 C50 0.929 . S
H47 C56 0.929 . S
C48 H42 0.930 . S
C48 C49 1.367 . S
C48 C56 1.378 . S
C49 C48 1.367 . S
C49 C57 1.433 . S
C50 H46 0.929 . S
C50 C52 1.378 . S
C50 C54 1.350 . S
C51 C54 1.463 1_556 S
C51 C56 1.350 . S
C51 N59 1.427 . S
C52 H43 0.930 . S
C52 C50 1.378 . S
C52 C53 1.367 . S
C53 C52 1.367 . S
C53 C55 1.433 . S
C54 C50 1.350 . S
C54 C51 1.463 1_554 S
C54 N58 1.427 . S
C55 H45 0.929 . S
C55 C53 1.433 . S
C55 N58 1.384 . S
C56 H47 0.929 . S
C56 C48 1.378 . S
C56 C51 1.350 . S
C57 H44 0.929 . S
C57 C49 1.433 . S
C57 N59 1.384 . S
N58 C54 1.427 . S
N58 C55 1.384 . S
N59 C51 1.427 . S
N59 C57 1.384 . S
H60 C66 0.930 . S
H61 C70 0.930 . S
H62 C75 0.929 . S
H63 C73 0.929 . S
H64 C68 0.929 . S
H65 C74 0.929 . S
C66 H60 0.930 . S
C66 C67 1.367 . S
C66 C74 1.378 . S
C67 C66 1.367 . S
C67 C75 1.433 . S
C68 H64 0.929 . S
C68 C70 1.378 . S
C68 C72 1.350 . S
C69 C72 1.463 . S
C69 C74 1.350 . S
C69 N77 1.427 . S
C70 H61 0.930 . S
C70 C68 1.378 . S
C70 C71 1.367 . S
C71 C70 1.367 . S
C71 C73 1.433 . S
C72 C68 1.350 . S
C72 C69 1.463 . S
C72 N76 1.427 . S
C73 H63 0.929 . S
C73 C71 1.433 . S
C73 N76 1.384 . S
C74 H65 0.929 . S
C74 C66 1.378 . S
C74 C69 1.350 . S
C75 H62 0.929 . S
C75 C67 1.433 . S
C75 N77 1.384 . S
N76 C72 1.427 . S
N76 C73 1.384 . S
N77 C69 1.427 . S
N77 C75 1.384 . S
H78 C84 0.930 . S
H79 C88 0.930 . S
H80 C93 0.929 . S
H81 C91 0.929 . S
H82 C86 0.929 . S
H83 C92 0.929 . S
C84 H78 0.930 . S
C84 C85 1.367 . S
C84 C92 1.378 . S
C85 C84 1.367 . S
C85 C93 1.433 . S
C86 H82 0.929 . S
C86 C88 1.378 . S
C86 C90 1.350 . S
C87 C90 1.463 . S
C87 C92 1.350 . S
C87 N95 1.427 . S
C88 H79 0.930 . S
C88 C86 1.378 . S
C88 C89 1.367 . S
C89 C88 1.367 . S
C89 C91 1.433 . S
C90 C86 1.350 . S
C90 C87 1.463 . S
C90 N94 1.427 . S
C91 H81 0.929 . S
C91 C89 1.433 . S
C91 N94 1.384 . S
C92 H83 0.929 . S
C92 C84 1.378 . S
C92 C87 1.350 . S
C93 H80 0.929 . S
C93 C85 1.433 . S
C93 N95 1.384 . S
N94 C90 1.427 . S
N94 C91 1.384 . S
N95 C87 1.427 . S
N95 C93 1.384 . S
H96 C102 0.930 . S
H97 C106 0.930 . S
H98 C111 0.929 . S
H99 C109 0.929 . S
H100 C104 0.929 . S
H101 C110 0.929 . S
C102 H96 0.930 . S
C102 C103 1.367 . S
C102 C110 1.378 . S
C103 C102 1.367 . S
C103 C111 1.433 . S
C104 H100 0.929 . S
C104 C106 1.378 . S
C104 C108 1.350 . S
C105 C108 1.463 1_556 S
C105 C110 1.350 . S
C105 N113 1.427 . S
C106 H97 0.930 . S
C106 C104 1.378 . S
C106 C107 1.367 . S
C107 C106 1.367 . S
C107 C109 1.433 . S
C108 C104 1.350 . S
C108 C105 1.463 1_554 S
C108 N112 1.427 . S
C109 H99 0.929 . S
C109 C107 1.433 . S
C109 N112 1.384 . S
C110 H101 0.929 . S
C110 C102 1.378 . S
C110 C105 1.350 . S
C111 H98 0.929 . S
C111 C103 1.433 . S
C111 N113 1.384 . S
N112 C108 1.427 . S
N112 C109 1.384 . S
N113 C105 1.427 . S
N113 C111 1.384 . S
H114 C120 0.930 . S
H115 C124 0.930 . S
H116 C129 0.929 . S
H117 C127 0.929 . S
H118 C122 0.929 . S
H119 C128 0.929 . S
C120 H114 0.930 . S
C120 C121 1.367 . S
C120 C128 1.378 . S
C121 C120 1.367 . S
C121 C129 1.433 . S
C122 H118 0.929 . S
C122 C124 1.378 . S
C122 C126 1.350 . S
C123 C126 1.463 . S
C123 C128 1.350 . S
C123 N131 1.427 . S
C124 H115 0.930 . S
C124 C122 1.378 . S
C124 C125 1.367 . S
C125 C124 1.367 . S
C125 C127 1.433 . S
C126 C122 1.350 . S
C126 C123 1.463 . S
C126 N130 1.427 . S
C127 H117 0.929 . S
C127 C125 1.433 . S
C127 N130 1.384 . S
C128 H119 0.929 . S
C128 C120 1.378 . S
C128 C123 1.350 . S
C129 H116 0.929 . S
C129 C121 1.433 . S
C129 N131 1.384 . S
N130 C126 1.427 . S
N130 C127 1.384 . S
N131 C123 1.427 . S
N131 C129 1.384 . S
H132 C138 0.930 . S
H133 C142 0.930 . S
H134 C147 0.929 . S
H135 C145 0.929 . S
H136 C140 0.929 . S
H137 C146 0.929 . S
C138 H132 0.930 . S
C138 C139 1.367 . S
C138 C146 1.378 . S
C139 C138 1.367 . S
C139 C147 1.433 . S
C140 H136 0.929 . S
C140 C142 1.378 . S
C140 C144 1.350 . S
C141 C144 1.463 . S
C141 C146 1.350 . S
C141 N149 1.427 . S
C142 H133 0.930 . S
C142 C140 1.378 . S
C142 C143 1.367 . S
C143 C142 1.367 . S
C143 C145 1.433 . S
C144 C140 1.350 . S
C144 C141 1.463 . S
C144 N148 1.427 . S
C145 H135 0.929 . S
C145 C143 1.433 . S
C145 N148 1.384 . S
C146 H137 0.929 . S
C146 C138 1.378 . S
C146 C141 1.350 . S
C147 H134 0.929 . S
C147 C139 1.433 . S
C147 N149 1.384 . S
N148 C144 1.427 . S
N148 C145 1.384 . S
N149 C141 1.427 . S
N149 C147 1.384 . S
C49 C35 1.432 . S
C53 C8 1.446 . S
C67 C9 1.486 . S
C71 C23 1.491 . S
C85 C22 1.460 . S
C89 C36 1.459 . S
C103 C37 1.453 . S
C107 C3 1.472 . S
C121 C21 1.416 . S
C125 C7 1.409 . S
C139 C31 1.437 . S
C143 C17 1.434 . S
