# Generated by pormake.
# Topology lon, (4)-cn, num edge types: 1
# Building blocks:
#     Node 0, Type 0, BuildingBlock: AZAVOO_clean_sbu_0, # of connection points: 4
#     Node 1, Type 0, BuildingBlock: AZAVOO_clean_sbu_0, # of connection points: 4
#     Node 2, Type 0, BuildingBlock: AZAVOO_clean_sbu_0, # of connection points: 4
#     Node 3, Type 0, BuildingBlock: AZAVOO_clean_sbu_0, # of connection points: 4
#     Edge 4, Type (0, 0), BuildingBlock: CIFDUS_clean_linker_0, # of connection points: 2
#     Edge 5, Type (0, 0), BuildingBlock: CIFDUS_clean_linker_0, # of connection points: 2
#     Edge 6, Type (0, 0), BuildingBlock: CIFDUS_clean_linker_0, # of connection points: 2
#     Edge 7, Type (0, 0), BuildingBlock: CIFDUS_clean_linker_0, # of connection points: 2
#     Edge 8, Type (0, 0), BuildingBlock: CIFDUS_clean_linker_0, # of connection points: 2
#     Edge 9, Type (0, 0), BuildingBlock: CIFDUS_clean_linker_0, # of connection points: 2
#     Edge 10, Type (0, 0), BuildingBlock: CIFDUS_clean_linker_0, # of connection points: 2
#     Edge 11, Type (0, 0), BuildingBlock: CIFDUS_clean_linker_0, # of connection points: 2
# Relax obj value: 0.021
# Max RMSD: 0.073
# Mean RMSD: 0.063
data_MOF--net-lon--node1-AZAVOO_clean_sbu_0--edge1-CIFDUS_clean_linker_0
_symmetry_space_group_name_H-M    P1
_symmetry_Int_Tables_number       1
_symmetry_cell_setting            triclinic
loop_
_symmetry_equiv_pos_as_xyz
'x, y, z'
_cell_length_a     21.615138
_cell_length_b     20.55146
_cell_length_c     38.110212
_cell_angle_alpha  98.436574
_cell_angle_beta   87.613767
_cell_angle_gamma 121.82962
loop_
_atom_site_label
_atom_site_type_symbol
_atom_site_fract_x
_atom_site_fract_y
_atom_site_fract_z
_atom_type_partial_charge
Mg0 Mg 0.46456 0.75022 0.06337 0.0
O1 O 0.34331 0.67272 0.04831 0.0
O2 O 0.28673 0.73103 0.07402 0.0
Mg3 Mg 0.37139 0.84163 0.10977 0.0
C4 C 0.28584 0.6751 0.05378 0.0
C5 C 0.55227 0.69684 0.01287 0.0
O6 O 0.60609 0.75451 0.03354 0.0
O7 O 0.47265 0.8328 0.02751 0.0
O8 O 0.42678 0.89666 0.05994 0.0
O9 O 0.45179 0.6915 0.11003 0.0
O10 O 0.43997 0.79243 0.11142 0.0
C11 C 0.45799 0.88593 0.03241 0.0
C12 C 0.43577 0.73936 0.12746 0.0
O13 O 0.48779 0.68159 0.01803 0.0
Mg14 Mg 0.66554 0.3811 0.55822 0.0
O15 O 0.59679 0.24933 0.53813 0.0
O16 O 0.50107 0.19936 0.57289 0.0
Mg17 Mg 0.50758 0.29598 0.61436 0.0
C18 C 0.53761 0.19178 0.54712 0.0
C19 C 0.77636 0.37442 0.50726 0.0
O20 O 0.76307 0.32284 0.52785 0.0
O21 O 0.58167 0.39645 0.53225 0.0
O22 O 0.4918 0.35334 0.57055 0.0
O23 O 0.72925 0.36797 0.59816 0.0
O24 O 0.62551 0.3622 0.60885 0.0
C25 C 0.52028 0.38511 0.54292 0.0
C26 C 0.67851 0.35798 0.61995 0.0
O27 O 0.73861 0.4058 0.51038 0.0
Mg28 Mg 0.29567 0.61879 0.38565 0.0
O29 O 0.35063 0.74662 0.41308 0.0
O30 O 0.31439 0.80348 0.38024 0.0
Mg31 Mg 0.23262 0.71415 0.3363 0.0
C32 C 0.35173 0.80634 0.40617 0.0
C33 C 0.35857 0.54078 0.41524 0.0
O34 O 0.35363 0.52422 0.38046 0.0
O35 O 0.18739 0.58907 0.41 0.0
O36 O 0.15046 0.64592 0.37768 0.0
O37 O 0.38653 0.65104 0.34931 0.0
O38 O 0.28693 0.64924 0.33663 0.0
C39 C 0.14025 0.60465 0.40195 0.0
C40 C 0.35025 0.66249 0.32748 0.0
O41 O 0.33388 0.58192 0.4299 0.0
Mg42 Mg 0.78417 0.36276 0.88547 0.0
O43 O 0.73827 0.44024 0.90002 0.0
O44 O 0.62736 0.38181 0.87403 0.0
Mg45 Mg 0.60799 0.2719 0.83805 0.0
C46 C 0.67921 0.43771 0.89443 0.0
C47 C 0.91563 0.41493 0.93655 0.0
O48 O 0.91455 0.35738 0.91572 0.0
O49 O 0.70314 0.27968 0.92083 0.0
O50 O 0.59892 0.21547 0.88767 0.0
O51 O 0.8388 0.42193 0.83922 0.0
O52 O 0.72653 0.32 0.83676 0.0
C53 C 0.63614 0.22622 0.91548 0.0
C54 C 0.77873 0.37288 0.8209 0.0
O55 O 0.86774 0.43085 0.93132 0.0
H56 H 0.49156 0.70569 0.17846 0.0
H57 H 0.32853 0.75756 0.15854 0.0
H58 H 0.28866 0.7415 0.21952 0.0
H59 H 0.29772 0.7074 0.2779 0.0
H60 H 0.4667 0.66335 0.2978 0.0
H61 H 0.50721 0.68256 0.23767 0.0
C62 C 0.44734 0.7135 0.18758 0.0
C63 C 0.41257 0.73214 0.16424 0.0
C64 C 0.42602 0.70588 0.2227 0.0
C65 C 0.35621 0.7435 0.17627 0.0
C66 C 0.33332 0.73408 0.21105 0.0
C67 C 0.34384 0.70286 0.26918 0.0
C68 C 0.37873 0.68348 0.29229 0.0
C69 C 0.36757 0.71474 0.23446 0.0
C70 C 0.43877 0.67824 0.28063 0.0
C71 C 0.46188 0.68882 0.24614 0.0
H72 H 0.80143 0.42063 0.66014 0.0
H73 H 0.56784 0.27374 0.66246 0.0
H74 H 0.57815 0.26426 0.72501 0.0
H75 H 0.65393 0.30023 0.77915 0.0
H76 H 0.88699 0.45509 0.77756 0.0
H77 H 0.87661 0.45938 0.71457 0.0
C78 C 0.75289 0.3859 0.67431 0.0
C79 C 0.68404 0.34748 0.65683 0.0
C80 C 0.75918 0.38283 0.7104 0.0
C81 C 0.62138 0.30392 0.67549 0.0
C82 C 0.6273 0.29854 0.7112 0.0
C83 C 0.7024 0.3351 0.76512 0.0
C84 C 0.77109 0.37734 0.78311 0.0
C85 C 0.69593 0.33834 0.729 0.0
C86 C 0.83338 0.42238 0.76442 0.0
C87 C 0.82757 0.42463 0.72835 0.0
H88 H 0.68125 0.70714 -0.00132 0.0
H89 H 0.45306 0.57321 0.96602 0.0
H90 H 0.47325 0.48449 0.92446 0.0
H91 H 0.55405 0.44009 0.9002 0.0
H92 H 0.78165 0.57271 0.9342 0.0
H93 H 0.76318 0.66682 0.97211 0.0
C94 C 0.63597 0.65893 -0.01771 0.0
C95 C 0.56568 0.64665 -0.01429 0.0
C96 C 0.64775 0.60759 0.9587 0.0
C97 C 0.50773 0.58391 0.96412 0.0
C98 C 0.51918 0.53303 0.94032 0.0
C99 C 0.59985 0.49002 0.91556 0.0
C100 C 0.66902 0.49879 0.91443 0.0
C101 C 0.58874 0.5436 0.93779 0.0
C102 C 0.72765 0.56398 0.93463 0.0
C103 C 0.71719 0.61795 0.95641 0.0
H104 H 0.07704 0.47807 0.43584 0.0
H105 H 0.04417 0.65376 0.40755 0.0
H106 H 0.9267 0.59581 0.43574 0.0
H107 H 0.83428 0.49658 0.46971 0.0
H108 H 0.86704 0.31953 0.49647 0.0
H109 H 0.98268 0.376 0.46718 0.0
C110 C 0.04442 0.50401 0.43601 0.0
C111 C 0.06984 0.57066 0.4199 0.0
C112 C 0.97639 0.46968 0.45173 0.0
C113 C 1.02612 0.60261 0.41985 0.0
C114 C 0.95881 0.56941 0.43591 0.0
C115 C 0.86628 0.46981 0.46878 0.0
C116 C 0.84185 0.40398 0.48546 0.0
C117 C 0.93336 0.50293 0.45199 0.0
C118 C 0.8843 0.37025 0.48398 0.0
C119 C 0.95078 0.40272 0.46734 0.0
H120 H 0.55242 0.07057 0.90233 0.0
H121 H 0.64444 0.26332 -0.01283 0.0
H122 H 0.59126 0.1742 0.03116 0.0
H123 H 0.52353 0.04118 0.04529 0.0
H124 H 0.44485 0.84868 0.9606 0.0
H125 H 0.48751 0.93754 0.9165 0.0
C126 C 0.56 0.09274 0.93047 0.0
C127 C 0.60139 0.17291 0.94173 0.0
C128 C 0.53197 0.0412 0.95546 0.0
C129 C 0.61249 0.20155 -0.02187 0.0
C130 C 0.58218 0.15074 0.00318 0.0
C131 C 0.51522 1.01895 0.01714 0.0
C132 C 0.48074 0.93893 0.00598 0.0
C133 C 0.54251 0.07046 -0.00786 0.0
C134 C 0.47133 0.91033 0.96959 0.0
C135 C 0.49563 0.96099 0.94447 0.0
H136 H 0.54314 0.42363 0.47628 0.0
H137 H 0.41172 0.40915 0.56669 0.0
H138 H 0.35218 0.45956 0.53622 0.0
H139 H 0.33705 0.50793 0.48341 0.0
H140 H 0.46465 0.51504 0.39229 0.0
H141 H 0.52618 0.46828 0.42354 0.0
C142 C 0.50147 0.43145 0.48935 0.0
C143 C 0.48215 0.41268 0.52373 0.0
C144 C 0.46682 0.45964 0.47156 0.0
C145 C 0.42752 0.42269 0.54012 0.0
C146 C 0.39357 0.45189 0.52278 0.0
C147 C 0.37863 0.49961 0.47061 0.0
C148 C 0.39639 0.51509 0.43568 0.0
C149 C 0.41284 0.47075 0.48848 0.0
C150 C 0.44975 0.50321 0.41915 0.0
C151 C 0.48507 0.47648 0.43699 0.0
H152 H 0.15818 0.67092 0.04913 0.0
H153 H 0.25974 0.54104 0.01337 0.0
H154 H 0.15208 0.4464 -0.02419 0.0
H155 H 0.03284 0.40526 0.94991 0.0
H156 H 0.93245 0.53677 -0.0157 0.0
H157 H 0.03573 0.6255 0.02572 0.0
C158 C 0.15656 0.62149 0.03346 0.0
C159 C 0.21737 0.61365 0.03396 0.0
C160 C 0.09481 0.56767 0.01144 0.0
C161 C 0.21405 0.54904 0.0134 0.0
C162 C 0.15247 0.49478 -0.00817 0.0
C163 C 0.03317 0.4529 0.96667 0.0
C164 C 0.97523 0.46462 0.96376 0.0
C165 C 0.09313 0.50431 -0.00987 0.0
C166 C 0.97654 0.5266 -0.0142 0.0
C167 C 0.03563 0.57747 0.00951 0.0
H168 H 0.54283 0.15611 0.476 0.0
H169 H 0.46377 0.05272 0.57141 0.0
H170 H 0.40525 0.92328 0.53661 0.0
H171 H 0.36912 0.83924 0.47835 0.0
H172 H 0.43745 0.94418 0.38286 0.0
H173 H 0.50771 0.07259 0.41808 0.0
C174 C 0.51365 0.10515 0.48916 0.0
C175 C 0.50791 0.11388 0.5262 0.0
C176 C 0.47774 0.03098 0.46884 0.0
C177 C 0.46882 0.0474 0.54288 0.0
C178 C 0.43532 0.97339 0.523 0.0
C179 C 0.40027 0.89029 0.4654 0.0
C180 C 0.3985 0.88245 0.42813 0.0
C181 C 0.43831 0.96438 0.48587 0.0
C182 C 0.43799 0.94899 0.41156 0.0
C183 C 0.47813 1.02239 0.43166 0.0
loop_
_geom_bond_atom_site_label_1
_geom_bond_atom_site_label_2
_geom_bond_distance
_geom_bond_site_symmetry_2
_ccdc_geom_bond_type
Mg0 O1 2.028 . S
Mg0 O7 1.986 . S
Mg0 O9 2.114 . S
Mg0 O10 2.251 . S
Mg0 O13 2.010 . S
O1 Mg0 2.028 . S
O1 C4 1.250 . S
O2 Mg3 2.028 . S
O2 C4 1.248 . S
Mg3 O2 2.028 . S
Mg3 O8 2.032 . S
Mg3 O10 2.079 . S
C4 O1 1.250 . S
C4 O2 1.248 . S
C5 O6 1.264 . S
C5 O13 1.249 . S
O6 C5 1.264 . S
O7 Mg0 1.986 . S
O7 C11 1.246 . S
O8 Mg3 2.032 . S
O8 C11 1.259 . S
O9 Mg0 2.114 . S
O9 C12 1.252 . S
O10 Mg0 2.251 . S
O10 Mg3 2.079 . S
O10 C12 1.273 . S
C11 O7 1.246 . S
C11 O8 1.259 . S
C12 O9 1.252 . S
C12 O10 1.273 . S
O13 Mg0 2.010 . S
O13 C5 1.249 . S
Mg14 O15 2.028 . S
Mg14 O21 1.986 . S
Mg14 O23 2.114 . S
Mg14 O24 2.251 . S
Mg14 O27 2.010 . S
O15 Mg14 2.028 . S
O15 C18 1.250 . S
O16 Mg17 2.028 . S
O16 C18 1.248 . S
Mg17 O16 2.028 . S
Mg17 O22 2.032 . S
Mg17 O24 2.079 . S
C18 O15 1.250 . S
C18 O16 1.248 . S
C19 O20 1.264 . S
C19 O27 1.249 . S
O20 C19 1.264 . S
O21 Mg14 1.986 . S
O21 C25 1.246 . S
O22 Mg17 2.032 . S
O22 C25 1.259 . S
O23 Mg14 2.114 . S
O23 C26 1.252 . S
O24 Mg14 2.251 . S
O24 Mg17 2.079 . S
O24 C26 1.273 . S
C25 O21 1.246 . S
C25 O22 1.259 . S
C26 O23 1.252 . S
C26 O24 1.273 . S
O27 Mg14 2.010 . S
O27 C19 1.249 . S
Mg28 O29 2.028 . S
Mg28 O35 1.986 . S
Mg28 O37 2.114 . S
Mg28 O38 2.251 . S
Mg28 O41 2.010 . S
O29 Mg28 2.028 . S
O29 C32 1.250 . S
O30 Mg31 2.028 . S
O30 C32 1.248 . S
Mg31 O30 2.028 . S
Mg31 O36 2.032 . S
Mg31 O38 2.079 . S
C32 O29 1.250 . S
C32 O30 1.248 . S
C33 O34 1.264 . S
C33 O41 1.249 . S
O34 C33 1.264 . S
O35 Mg28 1.986 . S
O35 C39 1.246 . S
O36 Mg31 2.032 . S
O36 C39 1.259 . S
O37 Mg28 2.114 . S
O37 C40 1.252 . S
O38 Mg28 2.251 . S
O38 Mg31 2.079 . S
O38 C40 1.273 . S
C39 O35 1.246 . S
C39 O36 1.259 . S
C40 O37 1.252 . S
C40 O38 1.273 . S
O41 Mg28 2.010 . S
O41 C33 1.249 . S
Mg42 O43 2.028 . S
Mg42 O49 1.986 . S
Mg42 O51 2.114 . S
Mg42 O52 2.251 . S
Mg42 O55 2.010 . S
O43 Mg42 2.028 . S
O43 C46 1.250 . S
O44 Mg45 2.028 . S
O44 C46 1.248 . S
Mg45 O44 2.028 . S
Mg45 O50 2.032 . S
Mg45 O52 2.079 . S
C46 O43 1.250 . S
C46 O44 1.248 . S
C47 O48 1.264 . S
C47 O55 1.249 . S
O48 C47 1.264 . S
O49 Mg42 1.986 . S
O49 C53 1.246 . S
O50 Mg45 2.032 . S
O50 C53 1.259 . S
O51 Mg42 2.114 . S
O51 C54 1.252 . S
O52 Mg42 2.251 . S
O52 Mg45 2.079 . S
O52 C54 1.273 . S
C53 O49 1.246 . S
C53 O50 1.259 . S
C54 O51 1.252 . S
C54 O52 1.273 . S
O55 Mg42 2.010 . S
O55 C47 1.249 . S
H56 C62 0.930 . S
H57 C65 0.930 . S
H58 C66 0.930 . S
H59 C67 0.930 . S
H60 C70 0.930 . S
H61 C71 0.930 . S
C62 H56 0.930 . S
C62 C63 1.355 . S
C62 C64 1.415 . S
C63 C62 1.355 . S
C63 C65 1.419 . S
C64 C62 1.415 . S
C64 C69 1.425 . S
C64 C71 1.409 . S
C65 H57 0.930 . S
C65 C63 1.419 . S
C65 C66 1.362 . S
C66 H58 0.930 . S
C66 C65 1.362 . S
C66 C69 1.409 . S
C67 H59 0.930 . S
C67 C68 1.355 . S
C67 C69 1.415 . S
C68 C67 1.355 . S
C68 C70 1.419 . S
C69 C64 1.425 . S
C69 C66 1.409 . S
C69 C67 1.415 . S
C70 H60 0.930 . S
C70 C68 1.419 . S
C70 C71 1.362 . S
C71 H61 0.930 . S
C71 C64 1.409 . S
C71 C70 1.362 . S
H72 C78 0.930 . S
H73 C81 0.930 . S
H74 C82 0.930 . S
H75 C83 0.930 . S
H76 C86 0.930 . S
H77 C87 0.930 . S
C78 H72 0.930 . S
C78 C79 1.355 . S
C78 C80 1.415 . S
C79 C78 1.355 . S
C79 C81 1.419 . S
C80 C78 1.415 . S
C80 C85 1.425 . S
C80 C87 1.409 . S
C81 H73 0.930 . S
C81 C79 1.419 . S
C81 C82 1.362 . S
C82 H74 0.930 . S
C82 C81 1.362 . S
C82 C85 1.409 . S
C83 H75 0.930 . S
C83 C84 1.355 . S
C83 C85 1.415 . S
C84 C83 1.355 . S
C84 C86 1.419 . S
C85 C80 1.425 . S
C85 C82 1.409 . S
C85 C83 1.415 . S
C86 H76 0.930 . S
C86 C84 1.419 . S
C86 C87 1.362 . S
C87 H77 0.930 . S
C87 C80 1.409 . S
C87 C86 1.362 . S
H88 C94 0.930 . S
H89 C97 0.930 . S
H90 C98 0.930 . S
H91 C99 0.930 . S
H92 C102 0.930 . S
H93 C103 0.930 . S
C94 H88 0.930 . S
C94 C95 1.355 . S
C94 C96 1.415 . S
C95 C94 1.355 . S
C95 C97 1.419 1_554 S
C96 C94 1.415 . S
C96 C101 1.425 1_554 S
C96 C103 1.409 . S
C97 H89 0.930 . S
C97 C95 1.419 1_556 S
C97 C98 1.362 . S
C98 H90 0.930 . S
C98 C97 1.362 . S
C98 C101 1.409 . S
C99 H91 0.930 . S
C99 C100 1.355 . S
C99 C101 1.415 . S
C100 C99 1.355 . S
C100 C102 1.419 1_556 S
C101 C96 1.425 1_556 S
C101 C98 1.409 . S
C101 C99 1.415 . S
C102 H92 0.930 . S
C102 C100 1.419 1_554 S
C102 C103 1.362 . S
C103 H93 0.930 . S
C103 C96 1.409 . S
C103 C102 1.362 . S
H104 C110 0.930 . S
H105 C113 0.930 . S
H106 C114 0.930 . S
H107 C115 0.930 . S
H108 C118 0.930 . S
H109 C119 0.930 . S
C110 H104 0.930 . S
C110 C111 1.355 . S
C110 C112 1.415 . S
C111 C110 1.355 . S
C111 C113 1.419 . S
C112 C110 1.415 . S
C112 C117 1.425 1_455 S
C112 C119 1.409 1_455 S
C113 H105 0.930 . S
C113 C111 1.419 . S
C113 C114 1.362 . S
C114 H106 0.930 . S
C114 C113 1.362 . S
C114 C117 1.409 1_455 S
C115 H107 0.930 . S
C115 C116 1.355 . S
C115 C117 1.415 . S
C116 C115 1.355 . S
C116 C118 1.419 . S
C117 C112 1.425 1_655 S
C117 C114 1.409 1_655 S
C117 C115 1.415 . S
C118 H108 0.930 . S
C118 C116 1.419 . S
C118 C119 1.362 . S
C119 H109 0.930 . S
C119 C112 1.409 1_655 S
C119 C118 1.362 . S
H120 C126 0.930 . S
H121 C129 0.929 1_554 S
H122 C130 0.930 . S
H123 C131 0.930 . S
H124 C134 0.929 1_556 S
H125 C135 0.930 . S
C126 H120 0.930 . S
C126 C127 1.355 . S
C126 C128 1.415 . S
C127 C126 1.355 . S
C127 C129 1.428 . S
C128 C126 1.415 . S
C128 C133 1.425 1_546 S
C128 C135 1.409 1_545 S
C129 H121 0.929 1_556 S
C129 C127 1.428 . S
C129 C130 1.354 1_556 S
C130 H122 0.930 . S
C130 C129 1.354 1_554 S
C130 C133 1.409 1_545 S
C131 H123 0.930 . S
C131 C132 1.355 . S
C131 C133 1.415 . S
C132 C131 1.355 . S
C132 C134 1.428 . S
C133 C128 1.425 1_564 S
C133 C130 1.409 1_565 S
C133 C131 1.415 . S
C134 H124 0.929 1_554 S
C134 C132 1.428 . S
C134 C135 1.354 1_554 S
C135 H125 0.930 . S
C135 C128 1.409 1_565 S
C135 C134 1.354 1_556 S
H136 C142 0.930 . S
H137 C145 0.930 . S
H138 C146 0.930 . S
H139 C147 0.930 . S
H140 C150 0.930 . S
H141 C151 0.930 . S
C142 H136 0.930 . S
C142 C143 1.355 . S
C142 C144 1.415 . S
C143 C142 1.355 . S
C143 C145 1.419 . S
C144 C142 1.415 . S
C144 C149 1.425 . S
C144 C151 1.409 . S
C145 H137 0.930 . S
C145 C143 1.419 . S
C145 C146 1.362 . S
C146 H138 0.930 . S
C146 C145 1.362 . S
C146 C149 1.409 . S
C147 H139 0.930 . S
C147 C148 1.355 . S
C147 C149 1.415 . S
C148 C147 1.355 . S
C148 C150 1.419 . S
C149 C144 1.425 . S
C149 C146 1.409 . S
C149 C147 1.415 . S
C150 H140 0.930 . S
C150 C148 1.419 . S
C150 C151 1.362 . S
C151 H141 0.930 . S
C151 C144 1.409 . S
C151 C150 1.362 . S
H152 C158 0.930 . S
H153 C161 0.930 . S
H154 C162 0.930 . S
H155 C163 0.930 . S
H156 C166 0.930 . S
H157 C167 0.930 1_455 S
C158 H152 0.930 . S
C158 C159 1.355 . S
C158 C160 1.415 . S
C159 C158 1.355 . S
C159 C161 1.419 . S
C160 C158 1.415 . S
C160 C165 1.425 1_554 S
C160 C167 1.409 1_455 S
C161 H153 0.930 . S
C161 C159 1.419 . S
C161 C162 1.362 1_554 S
C162 H154 0.930 . S
C162 C161 1.362 1_556 S
C162 C165 1.409 . S
C163 H155 0.930 . S
C163 C164 1.355 . S
C163 C165 1.415 1_655 S
C164 C163 1.355 . S
C164 C166 1.419 1_556 S
C165 C160 1.425 1_556 S
C165 C162 1.409 . S
C165 C163 1.415 1_455 S
C166 H156 0.930 . S
C166 C164 1.419 1_554 S
C166 C167 1.362 . S
C167 H157 0.930 1_655 S
C167 C160 1.409 1_655 S
C167 C166 1.362 . S
H168 C174 0.930 . S
H169 C177 0.930 . S
H170 C178 0.930 1_565 S
H171 C179 0.930 . S
H172 C182 0.930 . S
H173 C183 0.930 1_545 S
C174 H168 0.930 . S
C174 C175 1.355 . S
C174 C176 1.415 . S
C175 C174 1.355 . S
C175 C177 1.419 . S
C176 C174 1.415 . S
C176 C181 1.425 1_545 S
C176 C183 1.409 1_545 S
C177 H169 0.930 . S
C177 C175 1.419 . S
C177 C178 1.362 . S
C178 H170 0.930 1_545 S
C178 C177 1.362 . S
C178 C181 1.409 1_545 S
C179 H171 0.930 . S
C179 C180 1.355 . S
C179 C181 1.415 . S
C180 C179 1.355 . S
C180 C182 1.419 . S
C181 C176 1.425 1_565 S
C181 C178 1.409 1_565 S
C181 C179 1.415 . S
C182 H172 0.930 . S
C182 C180 1.419 . S
C182 C183 1.362 . S
C183 H173 0.930 1_565 S
C183 C176 1.409 1_565 S
C183 C182 1.362 . S
C63 C12 1.504 . S
C68 C40 1.495 . S
C79 C26 1.500 . S
C84 C54 1.492 . S
C95 C5 1.337 . S
C100 C46 1.569 . S
C111 C39 1.387 . S
C116 C19 1.188 . S
C127 C53 1.320 . S
C132 C11 1.294 . S
C143 C25 1.390 . S
C148 C33 1.102 . S
C159 C4 1.576 . S
C164 C47 1.349 . S
C175 C18 1.637 . S
C180 C32 1.633 . S
