# Generated by pormake.
# Topology pcu, (6)-cn, num edge types: 1
# Building blocks:
#     Node 0, Type 0, BuildingBlock: UKALOJ_clean_sbu_0, # of connection points: 6
#     Edge 1, Type (0, 0), BuildingBlock: TEMPAE_clean_linker_10, # of connection points: 2
#     Edge 2, Type (0, 0), BuildingBlock: TEMPAE_clean_linker_10, # of connection points: 2
#     Edge 3, Type (0, 0), BuildingBlock: TEMPAE_clean_linker_10, # of connection points: 2
# Relax obj value: 0.010
# Max RMSD: 0.054
# Mean RMSD: 0.054
data_MOF--net-pcu--node1-UKALOJ_clean_sbu_0--edge1-TEMPAE_clean_linker_10
_symmetry_space_group_name_H-M    P1
_symmetry_Int_Tables_number       1
_symmetry_cell_setting            triclinic
loop_
_symmetry_equiv_pos_as_xyz
'x, y, z'
_cell_length_a     15.548805
_cell_length_b     15.551628
_cell_length_c     20.422772
_cell_angle_alpha  97.932037
_cell_angle_beta   82.359845
_cell_angle_gamma 98.316789
loop_
_atom_site_label
_atom_site_type_symbol
_atom_site_fract_x
_atom_site_fract_y
_atom_site_fract_z
_atom_type_partial_charge
Zn0 Zn 0.96887 -0.00439 0.07798 0.0
O1 O 0.95651 0.85817 0.08071 0.0
C2 C 0.15541 -0.00209 0.02633 0.0
Zn3 Zn -0.0134 0.97709 0.96688 0.0
C4 C 0.96595 0.80856 0.02602 0.0
O5 O 0.97856 0.84138 0.97141 0.0
C6 C -0.01007 0.164 0.01836 0.0
O7 O 0.85 0.96642 0.96387 0.0
O8 O 0.83228 0.98529 0.07324 0.0
N9 N 0.00953 0.95406 0.86544 0.0
C10 C -0.01473 -0.01038 0.81519 0.0
C11 C 0.0625 0.88922 0.77169 0.0
N12 N 0.05763 0.89193 0.83818 0.0
N13 N 0.01805 0.95009 0.75571 0.0
C14 C -0.01837 -0.00523 0.2296 0.0
C15 C 0.88162 0.07242 0.27307 0.0
N16 N 0.94616 0.01917 0.17935 0.0
N17 N 0.88428 0.06754 0.20656 0.0
N18 N 0.94229 0.0277 0.28908 0.0
H19 H 0.05223 0.89485 0.17123 0.0
H20 H 0.04208 0.89272 0.26018 0.0
H21 H 0.1163 0.97629 0.22162 0.0
C22 C 0.05159 0.93571 0.22005 0.0
C23 C 0.92653 0.05989 0.82469 0.0
H24 H 0.88538 0.06055 0.87319 0.0
H25 H 0.88382 0.0507 0.7842 0.0
H26 H 0.96731 0.12454 0.82374 0.0
O27 O -0.00503 0.11334 0.96396 0.0
O28 O 0.9808 0.13231 0.07336 0.0
C29 C 0.79994 0.97372 0.01827 0.0
O30 O 0.10596 0.00582 0.08104 0.0
O31 O 0.12251 0.98686 0.9716 0.0
C32 C 0.03974 0.02003 0.37402 0.0
C33 C 0.95545 0.01667 0.35576 0.0
C34 C 0.05223 0.01035 0.43935 0.0
C35 C 0.9787 -0.00095 0.48781 0.0
C36 C 0.89359 -0.00238 0.46996 0.0
C37 C 0.88308 0.00634 0.40417 0.0
C38 C 0.14402 0.01205 0.45649 0.0
C39 C 0.81358 0.98657 0.52031 0.0
C40 C -0.00314 0.89117 0.64021 0.0
C41 C 0.00733 0.96347 0.68902 0.0
C42 C -0.01155 0.9019 0.57441 0.0
C43 C -0.00965 0.98716 0.55697 0.0
C44 C 0.00181 0.06062 0.60583 0.0
C45 C 0.01119 0.0479 0.67116 0.0
C46 C 0.97723 0.82196 0.52363 0.0
C47 C 0.00398 0.15256 0.58913 0.0
H48 H 0.096 0.03168 0.33759 0.0
H49 H 0.81793 0.00451 0.39022 0.0
H50 H 0.15837 0.06635 0.49637 0.0
H51 H 0.15005 0.95024 0.47591 0.0
H52 H 0.19408 0.0204 0.41288 0.0
H53 H 0.75219 -0.01085 0.49876 0.0
H54 H 0.80885 0.92287 0.54005 0.0
H55 H 0.81912 0.03867 0.56307 0.0
H56 H -0.00532 0.82592 0.65386 0.0
H57 H 0.02297 0.1041 0.70791 0.0
H58 H 0.0294 0.82739 0.48115 0.0
H59 H 0.91364 0.81754 0.50355 0.0
H60 H 0.97949 0.76042 0.5449 0.0
H61 H 0.05839 0.16677 0.54959 0.0
H62 H 0.01242 0.20254 0.63302 0.0
H63 H 0.94234 0.15893 0.56943 0.0
C64 C 0.29847 0.05323 0.0697 0.0
C65 C 0.24966 -0.00486 0.02574 0.0
C66 C 0.38877 0.05116 0.0682 0.0
C67 C 0.42983 0.98699 0.02365 0.0
C68 C 0.3799 0.92675 0.9804 0.0
C69 C 0.2907 0.93275 0.98106 0.0
C70 C 0.44043 0.11835 0.11345 0.0
C71 C 0.42039 0.85529 0.93403 0.0
C72 C 0.67525 0.01943 0.97287 0.0
C73 C 0.7054 0.97397 1.018 0.0
C74 C 0.58578 0.02585 0.97513 0.0
C75 C 0.52506 0.98282 0.02195 0.0
C76 C 0.55529 0.93488 0.06651 0.0
C77 C 0.64546 0.9326 0.0649 0.0
C78 C 0.55644 0.07999 0.92832 0.0
C79 C 0.4924 0.8854 0.1154 0.0
H80 H 0.26639 0.10158 0.10404 0.0
H81 H 0.25234 0.88708 0.9477 0.0
H82 H 0.46996 0.08543 0.14813 0.0
H83 H 0.49495 0.15477 0.08352 0.0
H84 H 0.39935 0.16598 0.14313 0.0
H85 H 0.37142 0.81096 0.90615 0.0
H86 H 0.47195 0.88448 0.89768 0.0
H87 H 0.4522 0.81574 0.96276 0.0
H88 H 0.72203 0.05249 0.93727 0.0
H89 H 0.66915 0.89734 0.09967 0.0
H90 H 0.51872 0.13091 0.95717 0.0
H91 H 0.51233 0.03801 0.89508 0.0
H92 H 0.61236 0.11256 0.89706 0.0
H93 H 0.45535 0.93151 0.15057 0.0
H94 H 0.52631 0.84813 0.14451 0.0
H95 H 0.44401 0.83895 0.08854 0.0
C96 C 0.02937 0.67231 0.97989 0.0
C97 C 0.96846 0.71419 0.02539 0.0
C98 C 0.03517 0.58308 0.97918 0.0
C99 C 0.97631 0.53395 0.02335 0.0
C100 C 0.91361 0.5758 0.06874 0.0
C101 C 0.91165 0.66611 0.07015 0.0
C102 C 0.10502 0.5417 0.93176 0.0
C103 C 0.84792 0.525 0.11508 0.0
C104 C 0.94207 0.28797 0.97377 0.0
C105 C -0.01061 0.25846 1.01807 0.0
C106 C 0.93561 0.37742 0.97597 0.0
C107 C 0.98046 0.43874 0.02181 0.0
C108 C 0.03026 0.40915 0.06549 0.0
C109 C 0.03258 0.319 0.06403 0.0
C110 C 0.87953 0.4061 0.93013 0.0
C111 C 0.08169 0.47267 0.11326 0.0
H112 H 0.07408 0.71004 0.94586 0.0
H113 H 0.8644 0.69875 0.10513 0.0
H114 H 0.14586 0.51037 0.9598 0.0
H115 H 0.07435 0.48958 0.89621 0.0
H116 H 0.14832 0.59006 0.90299 0.0
H117 H 0.80124 0.5666 0.14538 0.0
H118 H 0.81032 0.47013 0.08594 0.0
H119 H 0.88221 0.49595 0.1492 0.0
H120 H 0.90767 0.24073 0.9389 0.0
H121 H 0.06933 0.29581 0.09812 0.0
H122 H 0.92032 0.44965 0.8962 0.0
H123 H 0.82949 0.44426 0.95969 0.0
H124 H 0.84579 0.34979 0.89959 0.0
H125 H 0.12726 0.52046 0.08555 0.0
H126 H 0.12012 0.43916 0.14178 0.0
H127 H 0.03676 0.51038 0.149 0.0
loop_
_geom_bond_atom_site_label_1
_geom_bond_atom_site_label_2
_geom_bond_distance
_geom_bond_site_symmetry_2
_ccdc_geom_bond_type
Zn0 O1 2.055 . S
Zn0 O8 2.046 . S
Zn0 N16 2.036 1_565 S
Zn0 O28 2.053 1_565 S
Zn0 O30 2.066 1_665 S
O1 Zn0 2.055 . S
O1 C4 1.259 1_554 S
C2 O30 1.256 1_565 S
C2 O31 1.244 1_554 S
Zn3 O5 2.046 . S
Zn3 O7 2.055 . S
Zn3 N9 2.036 1_655 S
Zn3 O27 2.066 1_665 S
Zn3 O31 2.053 1_655 S
C4 O1 1.259 1_556 S
C4 O5 1.254 . S
O5 Zn3 2.046 . S
O5 C4 1.254 . S
C6 O27 1.256 1_655 S
C6 O28 1.244 1_556 S
O7 Zn3 2.055 . S
O7 C29 1.259 1_556 S
O8 Zn0 2.046 . S
O8 C29 1.254 . S
N9 Zn3 2.036 1_455 S
N9 C10 1.298 1_465 S
N9 N12 1.398 . S
C10 N9 1.298 1_645 S
C10 N13 1.367 1_655 S
C10 C23 1.481 . S
C11 N12 1.299 . S
C11 N13 1.379 1_565 S
N12 N9 1.398 . S
N12 C11 1.299 . S
N13 C10 1.367 1_455 S
N13 C11 1.379 1_545 S
C14 N16 1.298 1_465 S
C14 N18 1.367 1_565 S
C14 C22 1.481 . S
C15 N17 1.299 . S
C15 N18 1.379 1_655 S
N16 Zn0 2.036 1_545 S
N16 C14 1.298 1_645 S
N16 N17 1.398 . S
N17 C15 1.299 . S
N17 N16 1.398 . S
N18 C14 1.367 1_545 S
N18 C15 1.379 1_455 S
H19 C22 0.980 . S
H20 C22 0.981 . S
H21 C22 0.981 . S
C22 C14 1.481 . S
C22 H19 0.980 . S
C22 H20 0.981 . S
C22 H21 0.981 . S
C23 C10 1.481 . S
C23 H24 0.980 . S
C23 H25 0.981 . S
C23 H26 0.981 . S
H24 C23 0.980 . S
H25 C23 0.981 . S
H26 C23 0.981 . S
O27 Zn3 2.066 1_445 S
O27 C6 1.256 1_455 S
O28 Zn0 2.053 1_545 S
O28 C6 1.244 1_554 S
C29 O7 1.259 1_554 S
C29 O8 1.254 . S
O30 Zn0 2.066 1_445 S
O30 C2 1.256 1_545 S
O31 C2 1.244 1_556 S
O31 Zn3 2.053 1_455 S
C32 C33 1.391 . S
C32 C34 1.394 . S
C32 H48 0.931 . S
C33 C32 1.391 . S
C33 C37 1.376 1_455 S
C34 C32 1.394 . S
C34 C35 1.369 . S
C34 C38 1.531 . S
C35 C34 1.369 . S
C35 C36 1.410 1_455 S
C35 C43 1.503 . S
C36 C35 1.410 1_655 S
C36 C37 1.392 . S
C36 C39 1.511 . S
C37 C33 1.376 1_655 S
C37 C36 1.392 . S
C37 H49 0.929 1_545 S
C38 C34 1.531 . S
C38 H50 0.960 . S
C38 H51 0.962 . S
C38 H52 0.960 . S
C39 C36 1.511 . S
C39 H53 0.961 1_545 S
C39 H54 0.961 1_545 S
C39 H55 0.961 . S
C40 C41 1.370 1_565 S
C40 C42 1.363 . S
C40 H56 0.931 . S
C41 C40 1.370 1_545 S
C41 C45 1.408 . S
C42 C40 1.363 . S
C42 C43 1.370 1_565 S
C42 C46 1.524 . S
C43 C35 1.503 . S
C43 C42 1.370 1_545 S
C43 C44 1.403 . S
C44 C43 1.403 . S
C44 C45 1.404 . S
C44 C47 1.536 1_455 S
C45 C41 1.408 . S
C45 C44 1.404 . S
C45 H57 0.930 . S
C46 C42 1.524 . S
C46 H58 0.956 . S
C46 H59 0.961 1_455 S
C46 H60 0.961 . S
C47 C44 1.536 1_655 S
C47 H61 0.951 1_655 S
C47 H62 0.966 . S
C47 H63 0.964 . S
H48 C32 0.931 . S
H49 C37 0.929 1_565 S
H50 C38 0.960 . S
H51 C38 0.962 . S
H52 C38 0.960 . S
H53 C39 0.961 1_565 S
H54 C39 0.961 1_565 S
H55 C39 0.961 . S
H56 C40 0.931 . S
H57 C45 0.930 . S
H58 C46 0.956 . S
H59 C46 0.961 1_655 S
H60 C46 0.961 . S
H61 C47 0.951 1_455 S
H62 C47 0.966 . S
H63 C47 0.964 . S
C64 C65 1.391 1_545 S
C64 C66 1.394 . S
C64 H80 0.931 . S
C65 C64 1.391 1_565 S
C65 C69 1.376 1_554 S
C66 C64 1.394 . S
C66 C67 1.369 1_545 S
C66 C70 1.531 . S
C67 C66 1.369 1_565 S
C67 C68 1.410 1_554 S
C67 C75 1.503 . S
C68 C67 1.410 1_556 S
C68 C69 1.392 . S
C68 C71 1.511 . S
C69 C65 1.376 1_556 S
C69 C68 1.392 . S
C69 H81 0.929 . S
C70 C66 1.531 . S
C70 H82 0.960 . S
C70 H83 0.962 . S
C70 H84 0.960 . S
C71 C68 1.511 . S
C71 H85 0.961 . S
C71 H86 0.961 . S
C71 H87 0.961 . S
C72 C73 1.370 1_546 S
C72 C74 1.363 . S
C72 H88 0.931 . S
C73 C72 1.370 1_564 S
C73 C77 1.408 . S
C74 C72 1.363 . S
C74 C75 1.370 1_546 S
C74 C78 1.524 . S
C75 C67 1.503 . S
C75 C74 1.370 1_564 S
C75 C76 1.403 . S
C76 C75 1.403 . S
C76 C77 1.404 . S
C76 C79 1.539 . S
C77 C73 1.408 . S
C77 C76 1.404 . S
C77 H89 0.930 . S
C78 C74 1.524 . S
C78 H90 0.956 . S
C78 H91 0.961 . S
C78 H92 0.961 . S
C79 C76 1.539 . S
C79 H93 0.958 . S
C79 H94 0.961 . S
C79 H95 0.960 . S
H80 C64 0.931 . S
H81 C69 0.929 . S
H82 C70 0.960 . S
H83 C70 0.962 . S
H84 C70 0.960 . S
H85 C71 0.961 . S
H86 C71 0.961 . S
H87 C71 0.961 . S
H88 C72 0.931 . S
H89 C77 0.930 . S
H90 C78 0.956 . S
H91 C78 0.961 . S
H92 C78 0.961 . S
H93 C79 0.958 . S
H94 C79 0.961 . S
H95 C79 0.960 . S
C96 C97 1.387 1_455 S
C96 C98 1.394 . S
C96 H112 0.931 . S
C97 C96 1.387 1_655 S
C97 C101 1.378 1_556 S
C98 C96 1.394 . S
C98 C99 1.362 1_556 S
C98 C102 1.531 . S
C99 C98 1.362 1_554 S
C99 C100 1.415 1_455 S
C99 C107 1.506 1_554 S
C100 C99 1.415 1_655 S
C100 C101 1.392 . S
C100 C103 1.511 . S
C101 C97 1.378 1_554 S
C101 C100 1.392 . S
C101 H113 0.929 . S
C102 C98 1.531 . S
C102 H114 0.960 . S
C102 H115 0.962 . S
C102 H116 0.960 . S
C103 C100 1.511 . S
C103 H117 0.961 . S
C103 H118 0.961 . S
C103 H119 0.961 . S
C104 C105 1.370 . S
C104 C106 1.363 . S
C104 H120 0.931 . S
C105 C104 1.370 . S
C105 C109 1.408 1_656 S
C106 C104 1.363 . S
C106 C107 1.375 1_655 S
C106 C110 1.524 . S
C107 C99 1.506 1_556 S
C107 C106 1.375 1_455 S
C107 C108 1.396 1_556 S
C108 C107 1.396 1_554 S
C108 C109 1.404 . S
C108 C111 1.539 . S
C109 C105 1.408 1_454 S
C109 C108 1.404 . S
C109 H121 0.930 . S
C110 C106 1.524 . S
C110 H122 0.956 . S
C110 H123 0.961 . S
C110 H124 0.961 . S
C111 C108 1.539 . S
C111 H125 0.958 . S
C111 H126 0.961 . S
C111 H127 0.960 . S
H112 C96 0.931 . S
H113 C101 0.929 . S
H114 C102 0.960 . S
H115 C102 0.962 . S
H116 C102 0.960 . S
H117 C103 0.961 . S
H118 C103 0.961 . S
H119 C103 0.961 . S
H120 C104 0.931 . S
H121 C109 0.930 . S
H122 C110 0.956 . S
H123 C110 0.961 . S
H124 C110 0.961 . S
H125 C111 0.958 . S
H126 C111 0.961 . S
H127 C111 0.960 . S
C33 N18 1.436 . S
C41 N13 1.469 . S
C65 C2 1.492 . S
C73 C29 1.491 . S
C97 C4 1.499 . S
C105 C6 1.496 . S
