# Generated by pormake.
# Topology pcu, (6)-cn, num edge types: 1
# Building blocks:
#     Node 0, Type 0, BuildingBlock: PAMTOO_clean_sbu_0, # of connection points: 6
#     Edge 1, Type (0, 0), BuildingBlock: FUNLAD_clean_linker_0, # of connection points: 2
#     Edge 2, Type (0, 0), BuildingBlock: FUNLAD_clean_linker_0, # of connection points: 2
#     Edge 3, Type (0, 0), BuildingBlock: FUNLAD_clean_linker_0, # of connection points: 2
# Relax obj value: 0.000
# Max RMSD: 0.000
# Mean RMSD: 0.000
data_MOF--net-pcu--node1-PAMTOO_clean_sbu_0--edge1-FUNLAD_clean_linker_0
_symmetry_space_group_name_H-M    P1
_symmetry_Int_Tables_number       1
_symmetry_cell_setting            triclinic
loop_
_symmetry_equiv_pos_as_xyz
'x, y, z'
_cell_length_a     28.271003
_cell_length_b     17.841478
_cell_length_c     17.819207
_cell_angle_alpha  81.669887
_cell_angle_beta   99.866799
_cell_angle_gamma 117.95746
loop_
_atom_site_label
_atom_site_type_symbol
_atom_site_fract_x
_atom_site_fract_y
_atom_site_fract_z
_atom_type_partial_charge
Dy0 Dy 0.08323 0.02512 0.00646 0.0
Dy1 Dy 0.94966 0.94286 0.96866 0.0
C2 C 0.02399 -0.00967 0.83616 0.0
O3 O 0.06284 0.12748 0.02342 0.0
O4 O 0.9819 0.08377 0.94663 0.0
O5 O 0.16406 0.11994 -0.01365 0.0
O6 O 0.15181 0.02065 0.07764 0.0
O7 O 0.96958 0.98451 0.08687 0.0
O8 O 0.04783 0.97242 0.11664 0.0
O9 O 0.96925 0.83402 0.00531 0.0
O10 O 0.0553 0.89448 0.97244 0.0
O11 O 0.87006 0.85877 0.00066 0.0
O12 O 0.87938 0.93154 0.89094 0.0
C13 C 0.02399 0.1426 0.98434 0.0
O14 O 0.06556 0.04292 0.87971 0.0
O15 O 0.97946 0.93412 0.86398 0.0
C16 C 0.23181 0.07442 0.02104 0.0
C17 C 0.31821 0.04733 -0.00475 0.0
C18 C 0.2668 0.00508 0.95411 0.0
C19 C 0.22385 0.01833 0.96711 0.0
C20 C 0.28308 0.11775 0.06099 0.0
C21 C 0.32588 0.10444 0.04827 0.0
C22 C 0.18688 0.08524 0.03987 0.0
C23 C 1.00718 0.97765 0.13746 0.0
C24 C 1.01074 0.82727 -0.01083 0.0
C25 C 0.80265 0.90089 0.9486 0.0
C26 C 0.71856 0.9386 0.96454 0.0
C27 C 0.76974 0.98007 0.00648 0.0
C28 C 0.81151 0.96152 -0.00159 0.0
C29 C 0.75187 0.85956 0.90672 0.0
C30 C 0.71021 0.87818 0.91453 0.0
C31 C 0.84578 0.88038 0.93873 0.0
H32 H 0.25942 0.96015 0.91338 0.0
H33 H 0.18431 0.98383 0.93616 0.0
H34 H 0.28986 0.16115 0.10294 0.0
H35 H 0.36505 0.13893 0.08006 0.0
H36 H 0.77772 0.02762 0.04481 0.0
H37 H 0.85067 -0.00548 0.03084 0.0
H38 H 0.74438 0.81262 0.86796 0.0
H39 H 0.67119 0.84428 0.88215 0.0
C40 C 0.0451 0.97212 0.27482 0.0
C41 C 1.00424 0.97659 0.21982 0.0
C42 C 0.04284 0.97214 0.35254 0.0
C43 C 0.99972 0.97713 0.37705 0.0
C44 C 0.95854 0.98039 0.32216 0.0
C45 C 0.96085 0.98056 0.24438 0.0
C46 C 0.99522 0.97561 0.45924 0.0
C47 C 0.03795 0.00063 0.51372 0.0
C48 C 0.03311 -0.00233 0.59602 0.0
C49 C 0.07777 0.05167 0.64369 0.0
C50 C 0.07494 0.04975 0.72161 0.0
C51 C 0.02742 -0.00697 0.75368 0.0
H52 H 0.95109 0.89541 0.5943 0.0
C53 C 0.98297 0.93816 0.70613 0.0
C54 C 0.98579 0.94019 0.62834 0.0
H55 H 0.94586 0.89306 0.72894 0.0
H56 H 0.07892 0.96834 0.25801 0.0
H57 H 0.07447 0.96663 0.393 0.0
H58 H 0.92457 0.98335 0.33946 0.0
H59 H 0.92857 0.98377 0.20363 0.0
H60 H 0.95533 0.95644 0.47448 0.0
H61 H 0.07839 0.02769 0.49752 0.0
H62 H 0.11493 0.0959 0.6205 0.0
H63 H 0.11005 0.09259 0.75661 0.0
C64 C 0.39835 0.02228 0.04781 0.0
C65 C 0.36356 0.03098 0.98445 0.0
C66 C 0.44149 0.00808 0.0382 0.0
C67 C 0.45123 0.00286 0.96469 0.0
C68 C 0.41582 0.00994 0.90153 0.0
C69 C 0.37257 0.02403 0.91118 0.0
C70 C 0.49659 0.98743 0.95166 0.0
C71 C 0.54151 0.005 0.00167 0.0
C72 C 0.58671 0.9886 -0.01028 0.0
C73 C 0.62229 0.98354 0.0535 0.0
C74 C 0.6652 0.96797 0.04541 0.0
C75 C 0.67381 0.95752 0.97307 0.0
H76 H 0.57093 0.98621 0.86591 0.0
C77 C 0.63886 0.96417 0.90897 0.0
C78 C 0.59595 0.97979 0.91703 0.0
H79 H 0.64507 0.95833 0.8522 0.0
H80 H 0.39175 0.02512 0.10521 0.0
H81 H 0.46623 -0.00037 0.08882 0.0
H82 H 0.42194 0.00545 0.84429 0.0
H83 H 0.34671 0.0308 0.86113 0.0
H84 H 0.49248 0.96123 0.89829 0.0
H85 H 0.54558 0.0316 0.0548 0.0
H86 H 0.61649 -0.00941 0.11014 0.0
H87 H 0.69103 0.96256 0.09608 0.0
C88 C 0.05025 0.73335 0.9684 0.0
C89 C 1.00699 0.74179 -0.0119 0.0
C90 C 0.04677 0.65299 0.9662 0.0
C91 C 1.00004 0.57898 0.98437 0.0
C92 C 0.95661 0.58741 0.00323 0.0
C93 C 0.96006 0.66789 0.00539 0.0
C94 C 0.99454 0.49228 0.98179 0.0
C95 C 0.03712 0.4757 -0.00961 0.0
C96 C 0.03216 0.38933 -0.01188 0.0
C97 C 0.07492 0.3727 0.02364 0.0
C98 C 0.07232 0.29278 0.02231 0.0
C99 C 0.027 0.2277 0.98467 0.0
H100 H 0.95395 0.33553 0.91936 0.0
C101 C 0.98446 0.24461 0.94807 0.0
C102 C 0.98702 0.32459 0.94957 0.0
H103 H 0.94906 0.19613 0.91814 0.0
H104 H 0.08682 0.78885 0.9539 0.0
H105 H 0.08045 0.6495 0.94874 0.0
H106 H 0.91993 0.53151 0.01674 0.0
H107 H 0.92586 0.67201 0.02042 0.0
H108 H 0.95394 0.44022 0.97618 0.0
H109 H 0.07748 0.52657 0.00335 0.0
H110 H 0.1104 0.42159 0.05309 0.0
H111 H 0.10595 0.28219 0.05086 0.0
loop_
_geom_bond_atom_site_label_1
_geom_bond_atom_site_label_2
_geom_bond_distance
_geom_bond_site_symmetry_2
_ccdc_geom_bond_type
Dy0 O3 2.307 . S
Dy0 O5 2.395 1_554 S
Dy0 O6 2.379 . S
Dy0 O8 2.339 . S
Dy0 O10 2.298 1_545 S
Dy0 O14 2.275 1_554 S
Dy0 C22 2.738 . S
Dy1 O4 2.298 1_565 S
Dy1 O7 2.275 1_556 S
Dy1 O9 2.307 . S
Dy1 O11 2.395 1_556 S
Dy1 O12 2.379 . S
Dy1 O15 2.339 . S
Dy1 C31 2.738 . S
C2 O14 1.254 1_665 S
C2 O15 1.257 . S
O3 Dy0 2.307 . S
O3 C13 1.275 1_554 S
O4 Dy1 2.298 1_545 S
O4 C13 1.232 1_655 S
O5 Dy0 2.395 1_556 S
O5 C22 1.255 1_556 S
O6 Dy0 2.379 . S
O6 C22 1.249 . S
O7 Dy1 2.275 1_554 S
O7 C23 1.254 1_665 S
O8 Dy0 2.339 . S
O8 C23 1.257 . S
O9 Dy1 2.307 . S
O9 C24 1.269 1_556 S
O10 Dy0 2.298 1_565 S
O10 C24 1.234 1_455 S
O11 Dy1 2.395 1_554 S
O11 C31 1.255 1_554 S
O12 Dy1 2.379 . S
O12 C31 1.249 . S
C13 O3 1.275 1_556 S
C13 O4 1.232 1_455 S
O14 Dy0 2.275 1_556 S
O14 C2 1.254 1_445 S
O15 Dy1 2.339 . S
O15 C2 1.257 . S
C16 C19 1.344 1_544 S
C16 C20 1.328 . S
C16 C22 1.516 . S
C17 C18 1.304 . S
C17 C21 1.323 1_566 S
C18 C17 1.304 . S
C18 C19 1.371 . S
C18 H32 0.930 . S
C19 C16 1.344 1_566 S
C19 C18 1.371 . S
C19 H33 0.931 . S
C20 C16 1.328 . S
C20 C21 1.433 . S
C20 H34 0.931 . S
C21 C17 1.323 1_544 S
C21 C20 1.433 . S
C21 H35 0.933 . S
C22 Dy0 2.738 . S
C22 O5 1.255 1_554 S
C22 O6 1.249 . S
C22 C16 1.516 . S
C23 O7 1.254 1_445 S
C23 O8 1.257 . S
C24 O9 1.269 1_554 S
C24 O10 1.234 1_655 S
C25 C28 1.344 1_566 S
C25 C29 1.328 . S
C25 C31 1.516 . S
C26 C27 1.304 . S
C26 C30 1.323 1_544 S
C27 C26 1.304 . S
C27 C28 1.371 . S
C27 H36 0.930 . S
C28 C25 1.344 1_544 S
C28 C27 1.371 . S
C28 H37 0.931 . S
C29 C25 1.328 . S
C29 C30 1.433 . S
C29 H38 0.931 . S
C30 C26 1.323 1_566 S
C30 C29 1.433 . S
C30 H39 0.933 . S
C31 Dy1 2.738 . S
C31 O11 1.255 1_556 S
C31 O12 1.249 . S
C31 C25 1.516 . S
H32 C18 0.930 . S
H33 C19 0.931 . S
H34 C20 0.931 . S
H35 C21 0.933 . S
H36 C27 0.930 . S
H37 C28 0.931 . S
H38 C29 0.931 . S
H39 C30 0.933 . S
C40 C41 1.386 1_465 S
C40 C42 1.383 . S
C40 H56 0.951 . S
C41 C40 1.386 1_645 S
C41 C45 1.382 . S
C42 C40 1.383 . S
C42 C43 1.380 1_465 S
C42 H57 0.951 . S
C43 C42 1.380 1_645 S
C43 C44 1.391 . S
C43 C46 1.487 . S
C44 C43 1.391 . S
C44 C45 1.367 . S
C44 H58 0.951 . S
C45 C41 1.382 . S
C45 C44 1.367 . S
C45 H59 0.950 . S
C46 C43 1.487 . S
C46 C47 1.297 1_655 S
C46 H60 0.950 . S
C47 C46 1.297 1_455 S
C47 C48 1.479 . S
C47 H61 0.950 . S
C48 C47 1.479 . S
C48 C49 1.375 1_545 S
C48 C54 1.404 1_455 S
C49 C48 1.375 1_565 S
C49 C50 1.369 . S
C49 H62 0.950 . S
C50 C49 1.369 . S
C50 C51 1.392 1_565 S
C50 H63 0.951 . S
C51 C50 1.392 1_545 S
C51 C53 1.384 1_455 S
H52 C54 0.949 . S
C53 C51 1.384 1_655 S
C53 C54 1.385 . S
C53 H55 0.950 . S
C54 C48 1.404 1_655 S
C54 H52 0.949 . S
C54 C53 1.385 . S
H55 C53 0.950 . S
H56 C40 0.951 . S
H57 C42 0.951 . S
H58 C44 0.951 . S
H59 C45 0.950 . S
H60 C46 0.950 . S
H61 C47 0.950 . S
H62 C49 0.950 . S
H63 C50 0.951 . S
C64 C65 1.396 1_554 S
C64 C66 1.383 . S
C64 H80 0.951 . S
C65 C64 1.396 1_556 S
C65 C69 1.381 1_565 S
C66 C64 1.383 . S
C66 C67 1.402 1_554 S
C66 H81 0.951 . S
C67 C66 1.402 1_556 S
C67 C68 1.375 1_565 S
C67 C70 1.481 . S
C68 C67 1.375 1_545 S
C68 C69 1.367 . S
C68 H82 0.951 . S
C69 C65 1.381 1_545 S
C69 C68 1.367 . S
C69 H83 0.950 . S
C70 C67 1.481 . S
C70 C71 1.296 1_556 S
C70 H84 0.950 1_565 S
C71 C70 1.296 1_554 S
C71 C72 1.479 1_554 S
C71 H85 0.953 . S
C72 C71 1.479 1_556 S
C72 C73 1.375 1_556 S
C72 C78 1.404 1_565 S
C73 C72 1.375 1_554 S
C73 C74 1.369 . S
C73 H86 0.950 . S
C74 C73 1.369 . S
C74 C75 1.392 1_554 S
C74 H87 0.951 . S
C75 C74 1.392 1_556 S
C75 C77 1.384 1_565 S
H76 C78 0.949 . S
C77 C75 1.384 1_545 S
C77 C78 1.385 . S
C77 H79 0.950 . S
C78 C72 1.404 1_545 S
C78 H76 0.949 . S
C78 C77 1.385 . S
H79 C77 0.950 . S
H80 C64 0.951 . S
H81 C66 0.951 . S
H82 C68 0.951 . S
H83 C69 0.950 . S
H84 C70 0.950 1_545 S
H85 C71 0.953 . S
H86 C73 0.950 . S
H87 C74 0.951 . S
C88 C89 1.386 1_454 S
C88 C90 1.383 . S
C88 H104 0.951 . S
C89 C88 1.386 1_656 S
C89 C93 1.383 . S
C90 C88 1.383 . S
C90 C91 1.402 1_454 S
C90 H105 0.951 . S
C91 C90 1.402 1_656 S
C91 C92 1.375 . S
C91 C94 1.481 . S
C92 C91 1.375 . S
C92 C93 1.367 . S
C92 H106 0.951 . S
C93 C89 1.383 . S
C93 C92 1.367 . S
C93 H107 0.950 . S
C94 C91 1.481 . S
C94 C95 1.297 1_556 S
C94 H108 0.950 . S
C95 C94 1.297 1_554 S
C95 C96 1.479 . S
C95 H109 0.950 1_655 S
C96 C95 1.479 . S
C96 C97 1.375 1_655 S
C96 C102 1.404 1_554 S
C97 C96 1.375 1_455 S
C97 C98 1.369 . S
C97 H110 0.950 . S
C98 C97 1.369 . S
C98 C99 1.392 1_455 S
C98 H111 0.951 . S
C99 C98 1.392 1_655 S
C99 C101 1.384 1_554 S
H100 C102 0.949 . S
C101 C99 1.384 1_556 S
C101 C102 1.385 . S
C101 H103 0.950 . S
C102 C96 1.404 1_556 S
C102 H100 0.949 . S
C102 C101 1.385 . S
H103 C101 0.950 . S
H104 C88 0.951 . S
H105 C90 0.951 . S
H106 C92 0.951 . S
H107 C93 0.950 . S
H108 C94 0.950 . S
H109 C95 0.950 1_455 S
H110 C97 0.950 . S
H111 C98 0.951 . S
C41 C23 1.471 1_655 S
C51 C2 1.481 1_445 S
C65 C17 1.482 . S
C75 C26 1.494 1_566 S
C89 C24 1.493 1_556 S
C99 C13 1.488 1_654 S
