# Generated by pormake.
# Topology pcu, (6)-cn, num edge types: 1
# Building blocks:
#     Node 0, Type 0, BuildingBlock: KUMJIN_clean_sbu_1, # of connection points: 6
#     Edge 1, Type (0, 0), BuildingBlock: OJICUG_clean_linker_0, # of connection points: 2
#     Edge 2, Type (0, 0), BuildingBlock: OJICUG_clean_linker_0, # of connection points: 2
#     Edge 3, Type (0, 0), BuildingBlock: OJICUG_clean_linker_0, # of connection points: 2
# Relax obj value: 0.000
# Max RMSD: 0.000
# Mean RMSD: 0.000
data_MOF--net-pcu--node1-KUMJIN_clean_sbu_1--edge1-OJICUG_clean_linker_0
_symmetry_space_group_name_H-M    P1
_symmetry_Int_Tables_number       1
_symmetry_cell_setting            triclinic
loop_
_symmetry_equiv_pos_as_xyz
'x, y, z'
_cell_length_a     10.842462
_cell_length_b     20.274731
_cell_length_c     10.882781
_cell_angle_alpha  114.09582
_cell_angle_beta   90.02267
_cell_angle_gamma 114.88952
loop_
_atom_site_label
_atom_site_type_symbol
_atom_site_fract_x
_atom_site_fract_y
_atom_site_fract_z
_atom_type_partial_charge
Eu0 Eu 0.93145 0.89797 0.8962 0.0
C1 C 0.44621 0.23881 0.24879 0.0
N2 N 0.31842 0.20933 0.27906 0.0
C3 C 0.42221 0.25886 0.51354 0.0
C4 C 0.56789 0.27845 0.35051 0.0
C5 C 0.30458 0.21919 0.40907 0.0
C6 C 0.55448 0.28842 0.48413 0.0
C7 C 0.58659 0.25468 0.07942 0.0
C8 C 0.45516 0.22685 0.11432 0.0
C9 C 0.7078 0.29384 0.18036 0.0
C10 C 0.69857 0.30594 0.31554 0.0
Eu11 Eu 0.126 0.14504 0.09762 0.0
N12 N 0.33586 0.18774 0.01778 0.0
C13 C 0.59245 0.24286 0.94409 0.0
C14 C 0.34214 0.18234 0.889 0.0
C15 C 0.46985 0.2078 0.84918 0.0
H16 H 0.20267 0.19785 0.43275 0.0
H17 H 0.47376 0.20142 0.74576 0.0
H18 H 0.85481 0.84516 0.56108 0.0
H19 H 0.58365 0.84163 0.24806 0.0
H20 H 0.25024 0.16093 0.81727 0.0
H21 H 0.69098 0.26216 0.91256 0.0
H22 H 0.80719 0.8821 0.17656 0.0
H23 H 0.41075 0.26695 0.61676 0.0
H24 H 0.80924 0.31537 0.15498 0.0
H25 H 0.79318 0.33632 0.3921 0.0
H26 H 0.64674 0.77608 0.37706 0.0
H27 H 0.64543 0.31879 0.56516 0.0
H28 H 0.36644 0.78088 0.08123 0.0
N29 N 0.73904 0.83369 0.71475 0.0
C30 C 0.61124 0.8042 0.74502 0.0
C31 C 0.63527 0.78416 0.48027 0.0
C32 C 0.48957 0.76457 0.64329 0.0
C33 C 0.75289 0.82382 0.58474 0.0
C34 C 0.50299 0.75461 0.50967 0.0
N35 N 0.72158 0.85525 0.97601 0.0
C36 C 0.71528 0.86068 0.10481 0.0
C37 C 0.47084 0.78834 0.91437 0.0
C38 C 0.60228 0.81616 0.87947 0.0
C39 C 0.46498 0.80017 0.04971 0.0
C40 C 0.58757 0.83524 0.14463 0.0
H41 H 0.41205 0.72424 0.42863 0.0
H42 H 0.26428 0.70671 0.60169 0.0
H43 H 0.2482 0.72766 0.8388 0.0
O44 O 0.95037 0.80638 0.94381 0.0
O45 O 0.80986 0.96561 0.89197 0.0
O46 O 0.89917 0.0786 0.10205 0.0
O47 O 0.91694 0.78622 0.73069 0.0
O48 O 1.02612 0.95946 0.12547 0.0
O49 O 1.00893 0.07955 0.21827 0.0
O50 O 0.10708 0.23663 0.05002 0.0
O51 O 0.24759 0.0774 0.10186 0.0
O52 O 0.15828 0.96441 0.89178 0.0
O53 O 0.14052 0.25679 0.26314 0.0
O54 O 0.03132 0.08355 0.86836 0.0
O55 O 0.04852 0.96347 0.77556 0.0
C56 C 0.79689 0.02339 0.99551 0.0
C57 C 0.93287 0.67831 0.7642 0.0
C58 C 0.96127 0.57571 0.8085 0.0
C59 C 0.93122 0.52635 0.66561 0.0
C60 C 0.90358 0.62772 0.62211 0.0
C61 C 0.9021 0.55216 0.57353 0.0
C62 C 0.96093 0.65174 0.85697 0.0
C63 C 1.02251 1.02094 0.23082 0.0
C64 C 0.93291 0.75807 0.81418 0.0
C65 C 0.35888 0.73709 0.67825 0.0
C66 C 0.34964 0.74919 0.81343 0.0
C67 C 0.26056 1.01962 -0.00167 0.0
C68 C 0.12459 0.36471 0.22964 0.0
C69 C 0.09619 0.46731 0.18534 0.0
C70 C 0.12624 0.51667 0.32822 0.0
C71 C 0.15388 0.41529 0.37172 0.0
C72 C 0.09653 0.39128 0.13687 0.0
C73 C 0.15536 0.49086 0.42031 0.0
C74 C 0.03494 0.02208 0.76301 0.0
C75 C 0.12455 0.28495 0.17965 0.0
H76 H 0.93251 0.46823 0.62459 0.0
H77 H 0.88121 0.64634 0.54819 0.0
H78 H 0.87901 0.51355 0.46385 0.0
H79 H 0.98194 0.69006 0.96664 0.0
H80 H 0.12495 0.57479 0.36925 0.0
H81 H 0.17625 0.39667 0.44564 0.0
H82 H 0.07552 0.35296 0.0272 0.0
H83 H 0.17845 0.52946 0.52998 0.0
C84 C 0.07002 0.97144 0.39308 0.0
C85 C 1.0263 0.02154 0.36724 0.0
H86 H 0.10815 0.93274 0.53845 0.0
C87 C 0.98475 0.07148 0.47237 0.0
H88 H 0.10304 0.93241 0.31437 0.0
C89 C 0.98743 0.07157 0.60075 0.0
C90 C 0.03115 0.02147 0.62659 0.0
H91 H 0.94931 0.11027 0.45538 0.0
H92 H 0.95441 0.11061 0.67946 0.0
C93 C 0.0727 0.97153 0.52146 0.0
C94 C 0.42827 0.97613 0.87487 0.0
C95 C 0.39731 1.02 -0.00216 0.0
H96 H 0.57996 0.94471 0.77702 0.0
C97 C 0.49892 0.06504 0.11995 0.0
H98 H 0.35256 0.94111 0.77882 0.0
C99 C 0.62918 0.06689 0.11896 0.0
C100 C 0.66014 0.02301 0.99599 0.0
H101 H 0.47749 0.0983 0.21681 0.0
H102 H 0.70488 0.1019 0.21502 0.0
C103 C 0.55853 0.97797 0.87388 0.0
C104 C 0.92417 0.46577 0.87873 0.0
C105 C 0.99468 0.5481 0.90593 0.0
H106 H 0.90055 0.37604 0.94494 0.0
C107 C 0.09943 0.60346 0.02548 0.0
H108 H 0.84132 0.42151 0.7889 0.0
C109 C 0.13329 0.57725 0.11511 0.0
C110 C 0.06278 0.49491 0.0879 0.0
H111 H 0.15692 0.66697 0.0489 0.0
H112 H 0.21614 0.62151 0.20494 0.0
C113 C 0.95804 0.43956 0.96836 0.0
loop_
_geom_bond_atom_site_label_1
_geom_bond_atom_site_label_2
_geom_bond_distance
_geom_bond_site_symmetry_2
_ccdc_geom_bond_type
Eu0 N29 2.600 . S
Eu0 N35 2.562 . S
Eu0 O44 2.462 . S
Eu0 O45 2.373 . S
Eu0 O47 2.432 . S
Eu0 O48 2.291 1_556 S
Eu0 O52 2.335 1_655 S
Eu0 O55 2.372 . S
Eu0 C64 2.787 . S
C1 N2 1.365 . S
C1 C4 1.405 . S
C1 C8 1.448 . S
N2 C1 1.365 . S
N2 C5 1.319 . S
N2 Eu11 2.600 . S
C3 C5 1.397 . S
C3 C6 1.367 . S
C3 H23 0.931 . S
C4 C1 1.405 . S
C4 C6 1.403 . S
C4 C10 1.439 . S
C5 N2 1.319 . S
C5 C3 1.397 . S
C5 H16 0.930 . S
C6 C3 1.367 . S
C6 C4 1.403 . S
C6 H27 0.929 . S
C7 C8 1.430 . S
C7 C9 1.387 . S
C7 C13 1.404 . S
C8 C1 1.448 . S
C8 C7 1.430 . S
C8 N12 1.351 . S
C9 C7 1.387 . S
C9 C10 1.374 . S
C9 H24 0.931 . S
C10 C4 1.439 . S
C10 C9 1.374 . S
C10 H25 0.931 . S
Eu11 N2 2.600 . S
Eu11 N12 2.562 . S
Eu11 O46 2.335 1_455 S
Eu11 O49 2.372 . S
Eu11 O50 2.462 . S
Eu11 O51 2.373 . S
Eu11 O53 2.432 . S
Eu11 O54 2.291 1_554 S
Eu11 C75 2.787 . S
N12 C8 1.351 . S
N12 Eu11 2.562 . S
N12 C14 1.325 1_554 S
C13 C7 1.404 . S
C13 C15 1.366 1_554 S
C13 H21 0.930 1_554 S
C14 N12 1.325 1_556 S
C14 C15 1.416 . S
C14 H20 0.929 . S
C15 C13 1.366 1_556 S
C15 C14 1.416 . S
C15 H17 0.930 . S
H16 C5 0.930 . S
H17 C15 0.930 . S
H18 C33 0.930 . S
H19 C40 0.930 . S
H20 C14 0.929 . S
H21 C13 0.930 1_556 S
H22 C36 0.929 . S
H23 C3 0.931 . S
H24 C9 0.931 . S
H25 C10 0.931 . S
H26 C31 0.931 . S
H27 C6 0.929 . S
H28 C39 0.930 1_554 S
N29 Eu0 2.600 . S
N29 C30 1.365 . S
N29 C33 1.319 . S
C30 N29 1.365 . S
C30 C32 1.405 . S
C30 C38 1.448 . S
C31 H26 0.931 . S
C31 C33 1.397 . S
C31 C34 1.367 . S
C32 C30 1.405 . S
C32 C34 1.403 . S
C32 C65 1.439 . S
C33 H18 0.930 . S
C33 N29 1.319 . S
C33 C31 1.397 . S
C34 C31 1.367 . S
C34 C32 1.403 . S
C34 H41 0.929 . S
N35 Eu0 2.562 . S
N35 C36 1.325 1_556 S
N35 C38 1.351 . S
C36 H22 0.929 . S
C36 N35 1.325 1_554 S
C36 C40 1.416 . S
C37 C38 1.430 . S
C37 C39 1.404 . S
C37 C66 1.387 . S
C38 C30 1.448 . S
C38 N35 1.351 . S
C38 C37 1.430 . S
C39 H28 0.930 1_556 S
C39 C37 1.404 . S
C39 C40 1.366 1_556 S
C40 H19 0.930 . S
C40 C36 1.416 . S
C40 C39 1.366 1_554 S
H41 C34 0.929 . S
H42 C65 0.931 . S
H43 C66 0.931 . S
O44 Eu0 2.462 . S
O44 C64 1.252 . S
O45 Eu0 2.373 . S
O45 C56 1.249 . S
O46 Eu11 2.335 1_655 S
O46 C56 1.264 1_544 S
O47 Eu0 2.432 . S
O47 C64 1.268 . S
O48 Eu0 2.291 1_554 S
O48 C63 1.255 1_565 S
O49 Eu11 2.372 . S
O49 C63 1.257 1_455 S
O50 Eu11 2.462 . S
O50 C75 1.252 . S
O51 Eu11 2.373 . S
O51 C67 1.252 . S
O52 Eu0 2.335 1_455 S
O52 C67 1.262 1_566 S
O53 Eu11 2.432 . S
O53 C75 1.268 . S
O54 Eu11 2.291 1_556 S
O54 C74 1.255 1_545 S
O55 Eu0 2.372 . S
O55 C74 1.257 1_655 S
C56 O45 1.249 . S
C56 O46 1.264 1_566 S
C57 C60 1.382 . S
C57 C62 1.390 . S
C57 C64 1.506 . S
C58 C59 1.398 . S
C58 C62 1.392 . S
C59 C58 1.398 . S
C59 C61 1.372 . S
C59 H76 0.931 . S
C60 C57 1.382 . S
C60 C61 1.390 . S
C60 H77 0.931 . S
C61 C59 1.372 . S
C61 C60 1.390 . S
C61 H78 0.929 . S
C62 C57 1.390 . S
C62 C58 1.392 . S
C62 H79 0.930 1_556 S
C63 O48 1.255 1_545 S
C63 O49 1.257 1_655 S
C64 Eu0 2.787 . S
C64 O44 1.252 . S
C64 O47 1.268 . S
C64 C57 1.506 . S
C65 C32 1.439 . S
C65 H42 0.931 . S
C65 C66 1.374 . S
C66 C37 1.387 . S
C66 H43 0.931 . S
C66 C65 1.374 . S
C67 O51 1.252 . S
C67 O52 1.262 1_544 S
C68 C71 1.382 . S
C68 C72 1.390 . S
C68 C75 1.506 . S
C69 C70 1.398 . S
C69 C72 1.392 . S
C70 C69 1.398 . S
C70 C73 1.372 . S
C70 H80 0.931 . S
C71 C68 1.382 . S
C71 C73 1.390 . S
C71 H81 0.931 . S
C72 C68 1.390 . S
C72 C69 1.392 . S
C72 H82 0.930 1_554 S
C73 C70 1.372 . S
C73 C71 1.390 . S
C73 H83 0.929 . S
C74 O54 1.255 1_565 S
C74 O55 1.257 1_455 S
C75 Eu11 2.787 . S
C75 O50 1.252 . S
C75 O53 1.268 . S
C75 C68 1.506 . S
H76 C59 0.931 . S
H77 C60 0.931 . S
H78 C61 0.929 . S
H79 C62 0.930 1_554 S
H80 C70 0.931 . S
H81 C71 0.931 . S
H82 C72 0.930 1_556 S
H83 C73 0.929 . S
C84 C85 1.384 . S
C84 H88 0.950 . S
C84 C93 1.390 . S
C85 C84 1.384 . S
C85 C87 1.390 1_665 S
H86 C93 0.950 . S
C87 C85 1.390 1_445 S
C87 C89 1.390 . S
C87 H91 0.950 . S
H88 C84 0.950 . S
C89 C87 1.390 . S
C89 C90 1.388 . S
C89 H92 0.950 . S
C90 C89 1.388 . S
C90 C93 1.388 1_445 S
H91 C87 0.950 . S
H92 C89 0.950 . S
C93 C84 1.390 . S
C93 H86 0.950 . S
C93 C90 1.388 1_665 S
C94 C95 1.387 . S
C94 H98 0.950 . S
C94 C103 1.390 . S
C95 C94 1.387 . S
C95 C97 1.389 1_566 S
H96 C103 0.950 . S
C97 C95 1.389 1_544 S
C97 C99 1.390 . S
C97 H101 0.950 . S
H98 C94 0.950 . S
C99 C97 1.390 . S
C99 C100 1.389 . S
C99 H102 0.950 . S
C100 C99 1.389 . S
C100 C103 1.389 1_544 S
H101 C97 0.950 . S
H102 C99 0.950 . S
C103 C94 1.390 . S
C103 H96 0.950 . S
C103 C100 1.389 1_566 S
C104 C105 1.389 1_656 S
C104 H108 0.950 . S
C104 C113 1.390 . S
C105 C104 1.389 1_454 S
C105 C107 1.389 . S
H106 C113 0.950 . S
C107 C105 1.389 . S
C107 C109 1.390 . S
C107 H111 0.950 . S
H108 C104 0.950 . S
C109 C107 1.390 . S
C109 C110 1.388 1_554 S
C109 H112 0.950 . S
C110 C109 1.388 1_556 S
C110 C113 1.388 1_455 S
H111 C107 0.950 . S
H112 C109 0.950 . S
C113 C104 1.390 . S
C113 H106 0.950 . S
C113 C110 1.388 1_655 S
C85 C63 1.482 1_565 S
C90 C74 1.480 1_545 S
C95 C67 1.492 1_566 S
C100 C56 1.492 1_544 S
C105 C58 1.357 1_454 S
C110 C69 1.359 1_556 S
