# Generated by pormake.
# Topology hex, (8)-cn, num edge types: 1
# Building blocks:
#     Node 0, Type 0, BuildingBlock: AJUNOK_clean_sbu_0, # of connection points: 8
#     Edge 1, Type (0, 0), BuildingBlock: UKIBUN_clean_linker_0, # of connection points: 2
#     Edge 2, Type (0, 0), BuildingBlock: UKIBUN_clean_linker_0, # of connection points: 2
#     Edge 3, Type (0, 0), BuildingBlock: UKIBUN_clean_linker_0, # of connection points: 2
#     Edge 4, Type (0, 0), BuildingBlock: UKIBUN_clean_linker_0, # of connection points: 2
# Relax obj value: 0.049
# Max RMSD: 0.096
# Mean RMSD: 0.096
data_MOF--net-hex--node1-AJUNOK_clean_sbu_0--edge1-UKIBUN_clean_linker_0
_symmetry_space_group_name_H-M    P1
_symmetry_Int_Tables_number       1
_symmetry_cell_setting            triclinic
loop_
_symmetry_equiv_pos_as_xyz
'x, y, z'
_cell_length_a     30.396528
_cell_length_b     30.521253
_cell_length_c     25.188062
_cell_angle_alpha  91.699045
_cell_angle_beta   91.321178
_cell_angle_gamma 126.34089
loop_
_atom_site_label
_atom_site_type_symbol
_atom_site_fract_x
_atom_site_fract_y
_atom_site_fract_z
_atom_type_partial_charge
Cd0 Cd 0.06417 0.04675 -0.01196 0.0
Cd1 Cd 0.92494 0.90781 0.98315 0.0
C2 C 0.00837 0.09921 0.03818 0.0
N3 N 0.00978 0.07711 -0.00883 0.0
C4 C 0.98319 0.125 0.94312 0.0
C5 C 0.98571 0.15185 -0.00932 0.0
C6 C 0.99567 0.13632 0.03888 0.0
C7 C 0.99588 0.08791 0.94425 0.0
H8 H 0.02157 0.09176 0.07479 0.0
H9 H -0.00053 0.0717 0.90725 0.0
C10 C 0.99283 0.96967 0.86977 0.0
C11 C 0.97213 0.84705 0.92885 0.0
C12 C 0.99047 0.81469 0.92488 0.0
C13 C 0.00893 0.80391 0.97081 0.0
C14 C 0.01244 0.83006 0.01937 0.0
C15 C 0.99446 0.863 0.02142 0.0
N16 N 0.97382 0.8701 0.97666 0.0
H17 H 0.95385 0.85111 0.89393 0.0
H18 H 0.99407 0.88017 0.05937 0.0
C19 C 0.87303 0.95983 0.92672 0.0
N20 N 0.89538 0.96239 0.97517 0.0
C21 C 0.85121 -0.00262 0.01646 0.0
C22 C 0.82486 -0.00855 0.96745 0.0
C23 C 0.83765 -0.02555 0.92194 0.0
C24 C 0.88607 -0.01832 0.01961 0.0
H25 H 0.87837 0.94168 0.89243 0.0
H26 H 0.90226 -0.01904 0.05798 0.0
C27 C 0.00314 -0.01942 0.10122 0.0
C28 C 0.16363 0.15003 0.97933 0.0
N29 N 0.09898 -0.00462 -0.01055 0.0
C30 C 0.13018 0.00461 0.03393 0.0
C31 C 0.1659 -0.0099 0.03401 0.0
C32 C 0.1698 0.96605 -0.01222 0.0
C33 C 0.13416 0.95304 0.94378 0.0
C34 C 0.09933 0.96879 0.94521 0.0
C35 C 0.82076 0.81038 -0.00567 0.0
O36 O 0.03216 0.01045 0.89718 0.0
O37 O 0.95217 0.9302 0.8921 0.0
O38 O 0.96284 0.94178 0.07293 0.0
O39 O 0.04308 0.02171 0.07983 0.0
O40 O 0.13162 0.12241 0.93956 0.0
O41 O 0.14901 0.12954 0.02423 0.0
O42 O 0.85176 0.83922 0.03428 0.0
O43 O 0.83838 0.82744 0.94884 0.0
H44 H 0.13064 0.0272 0.06807 0.0
H45 H 0.07555 0.96283 0.90969 0.0
H46 H 0.97642 0.13607 0.90497 0.0
H47 H 0.99731 0.1554 0.07655 0.0
H48 H 0.98785 0.79633 0.88638 0.0
H49 H 0.02567 0.82253 0.05603 0.0
H50 H 0.84134 0.00947 0.05248 0.0
H51 H 0.81735 0.96876 0.8837 0.0
H52 H 0.19263 0.00058 0.06882 0.0
H53 H 0.1363 0.93492 0.90722 0.0
C54 C 0.0238 0.24744 0.0222 0.0
C55 C 0.98591 0.20072 -0.01071 0.0
C56 C 0.02829 0.29544 0.0177 0.0
C57 C 0.0522 0.4852 0.00771 0.0
C58 C 0.98469 0.71381 0.93554 0.0
C59 C 0.01874 0.76141 0.96875 0.0
C60 C 0.99094 0.67203 0.93556 0.0
C61 C 0.99595 0.5005 0.92987 0.0
H62 H 0.05147 0.24765 0.05025 0.0
H63 H 0.05836 0.33104 0.04292 0.0
H64 H 0.07396 0.47963 0.03822 0.0
H65 H 0.95187 0.70785 0.9106 0.0
H66 H 0.96359 0.63553 0.91023 0.0
H67 H 0.9736 0.50577 0.89979 0.0
C68 C 0.95203 0.20314 0.95231 0.0
C69 C 0.95668 0.25137 0.94782 0.0
C70 C 0.98927 0.45101 0.93046 0.0
C71 C 0.05973 0.76621 0.00156 0.0
C72 C 0.06578 0.72408 0.00165 0.0
C73 C 0.05888 0.53468 0.00713 0.0
C74 C 0.99518 0.2978 0.98019 0.0
C75 C 0.00159 0.34821 0.97472 0.0
C76 C 0.00848 0.39128 0.97164 0.0
C77 C 0.01702 0.44303 0.96965 0.0
H78 H 0.92231 0.16793 0.92655 0.0
H79 H 0.93067 0.25256 0.91868 0.0
H80 H 0.96199 0.41883 0.90076 0.0
H81 H 0.08697 0.80236 0.02728 0.0
H82 H 0.09704 0.72822 0.02774 0.0
H83 H 0.08557 0.56659 0.03727 0.0
C84 C 0.03106 0.67668 0.96892 0.0
C85 C 0.03461 0.63161 0.97063 0.0
C86 C 0.0347 0.59207 0.96959 0.0
C87 C 0.03047 0.54237 0.96843 0.0
C88 C 0.78329 0.04169 0.9779 0.0
C89 C 0.77757 -0.00654 0.96493 0.0
C90 C 0.73746 0.04219 0.97505 0.0
C91 C 0.5443 0.02873 0.95648 0.0
C92 C 0.20778 0.91461 0.96156 0.0
C93 C 0.21591 0.96213 0.98297 0.0
C94 C 0.25253 0.91306 0.95484 0.0
C95 C 0.44561 0.92376 0.94953 0.0
H96 H 0.82309 0.07882 -0.01035 0.0
H97 H 0.7424 0.07973 -0.01519 0.0
H98 H 0.58223 0.06952 0.95951 0.0
H99 H 0.16695 0.87883 0.95017 0.0
H100 H 0.24561 0.87612 0.93842 0.0
H101 H 0.4077 0.88295 0.94719 0.0
C102 C 0.72562 0.94578 0.94972 0.0
C103 C 0.67997 0.94618 0.94742 0.0
C104 C 0.49544 0.93071 0.94913 0.0
C105 C 0.26944 0.00794 -0.00271 0.0
C106 C 0.31395 0.00646 -0.00982 0.0
C107 C 0.49447 0.02178 0.95687 0.0
C108 C 0.68567 -0.00566 0.95989 0.0
C109 C 0.63793 -0.0062 0.95771 0.0
C110 C 0.59617 -0.00986 0.95499 0.0
C111 C 0.54493 -0.01679 0.95302 0.0
H112 H 0.72031 0.908 0.94017 0.0
H113 H 0.64019 0.90883 0.93602 0.0
H114 H 0.49533 0.89514 0.94644 0.0
H115 H 0.27704 0.04546 0.01283 0.0
H116 H 0.35485 0.04249 0.00095 0.0
H117 H 0.49462 0.05735 0.96025 0.0
C118 C 0.30577 0.95916 0.96887 0.0
C119 C 0.35244 0.95875 0.96152 0.0
C120 C 0.39385 0.96227 0.95686 0.0
C121 C 0.44498 0.96927 0.95379 0.0
C122 C 0.2581 0.22268 0.01398 0.0
C123 C 0.21806 0.19997 0.9722 0.0
C124 C 0.31253 0.26257 0.00396 0.0
C125 C 0.5122 0.39484 3e-05 0.0
C126 C 0.73666 0.72519 0.95525 0.0
C127 C 0.77081 0.75578 0.00021 0.0
C128 C 0.69797 0.66926 0.95742 0.0
C129 C 0.56919 0.47213 0.92395 0.0
H130 H 0.24797 0.2075 0.05352 0.0
H131 H 0.34356 0.27805 0.03593 0.0
H132 H 0.48924 0.36617 0.03032 0.0
H133 H 0.7422 0.74379 0.91764 0.0
H134 H 0.67393 0.64548 0.92163 0.0
H135 H 0.58992 0.50291 0.8949 0.0
C136 C 0.23238 0.22093 0.92144 0.0
C137 C 0.28687 0.26081 0.91151 0.0
C138 C 0.51848 0.42351 0.90982 0.0
C139 C 0.76186 0.73085 0.04881 0.0
C140 C 0.72334 0.67473 0.05078 0.0
C141 C 0.56274 0.44358 0.01424 0.0
C142 C 0.32697 0.27992 0.95233 0.0
C143 C 0.38331 0.3155 0.94146 0.0
C144 C 0.43196 0.34522 0.93962 0.0
C145 C 0.48909 0.38607 0.94855 0.0
H146 H 0.20197 0.20456 0.88879 0.0
H147 H 0.29784 0.27498 0.87169 0.0
H148 H 0.50049 0.4172 0.87012 0.0
H149 H 0.78732 0.75384 0.08421 0.0
H150 H 0.71915 0.65524 0.08751 0.0
H151 H 0.57832 0.45212 0.05526 0.0
C152 C 0.69343 0.6439 0.00441 0.0
C153 C 0.66091 0.58609 0.00308 0.0
C154 C 0.63187 0.53788 -0.00594 0.0
C155 C 0.58991 0.48306 0.97673 0.0
C156 C 0.04354 0.00796 0.78667 0.0
C157 C 0.99618 0.96678 0.81141 0.0
C158 C 0.04773 0.00409 0.73187 0.0
C159 C 0.06104 -0.00888 0.51576 0.0
C160 C 0.96014 0.93035 0.18341 0.0
C161 C 0.00469 -0.02415 0.15945 0.0
C162 C 0.96246 0.92442 0.23797 0.0
C163 C 0.96916 0.90748 0.45415 0.0
H164 H 0.07763 0.04295 0.80965 0.0
H165 H 0.08459 0.03611 0.7136 0.0
H166 H 0.09653 0.02407 0.53925 0.0
H167 H 0.92357 0.89906 0.16001 0.0
H168 H 0.92778 0.88908 0.25562 0.0
H169 H 0.93311 0.87532 0.43067 0.0
C170 C 0.953 0.92196 0.78 0.0
C171 C 0.95728 0.91824 0.72519 0.0
C172 C 0.96885 0.90722 0.50962 0.0
C173 C 0.05139 0.01541 0.19142 0.0
C174 C 0.05362 0.00933 0.246 0.0
C175 C 0.06135 -0.00863 0.46029 0.0
C176 C 0.00472 0.95914 0.70108 0.0
C177 C 0.00893 0.95532 0.64466 0.0
C178 C 0.01223 0.9519 0.59737 0.0
C179 C 0.01449 0.94947 0.54052 0.0
H180 H 0.91602 0.88956 0.79776 0.0
H181 H 0.92361 0.88337 0.70167 0.0
H182 H 0.93257 0.87486 0.52835 0.0
H183 H 0.08646 0.05075 0.17425 0.0
H184 H 0.09001 0.04014 0.26995 0.0
H185 H 0.09708 0.02452 0.44159 0.0
C186 C 0.00927 0.96376 0.26932 0.0
C187 C 0.01145 0.95782 0.32553 0.0
C188 C 0.01357 0.95311 0.37264 0.0
C189 C 0.01512 0.94998 0.4294 0.0
loop_
_geom_bond_atom_site_label_1
_geom_bond_atom_site_label_2
_geom_bond_distance
_geom_bond_site_symmetry_2
_ccdc_geom_bond_type
Cd0 N3 2.334 . S
Cd0 N29 2.304 . S
Cd0 O36 2.268 1_554 S
Cd0 O39 2.273 . S
Cd0 O40 2.417 1_554 S
Cd0 O41 2.330 . S
Cd1 N16 2.304 . S
Cd1 N20 2.334 . S
Cd1 O37 2.273 . S
Cd1 O38 2.268 1_556 S
Cd1 O42 2.417 1_556 S
Cd1 O43 2.330 . S
C2 N3 1.332 . S
C2 C6 1.381 . S
C2 H8 0.931 . S
N3 Cd0 2.334 . S
N3 C2 1.332 . S
N3 C7 1.328 1_554 S
C4 C5 1.396 1_556 S
C4 C7 1.378 1_655 S
C4 H46 0.931 . S
C5 C4 1.396 1_554 S
C5 C6 1.382 1_655 S
C6 C2 1.381 . S
C6 C5 1.382 1_455 S
C6 H47 0.930 . S
C7 N3 1.328 1_556 S
C7 C4 1.378 1_455 S
C7 H9 0.930 . S
H8 C2 0.931 . S
H9 C7 0.930 . S
C10 O36 1.238 1_665 S
C10 O37 1.253 . S
C11 C12 1.379 . S
C11 N16 1.337 . S
C11 H17 0.929 . S
C12 C11 1.379 . S
C12 C13 1.380 1_655 S
C12 H48 0.929 . S
C13 C12 1.380 1_455 S
C13 C14 1.399 1_556 S
C14 C13 1.399 1_554 S
C14 C15 1.376 1_455 S
C14 H49 0.931 . S
C15 C14 1.376 1_655 S
C15 N16 1.338 1_554 S
C15 H18 0.930 . S
N16 Cd1 2.304 . S
N16 C11 1.337 . S
N16 C15 1.338 1_556 S
H17 C11 0.929 . S
H18 C15 0.930 . S
C19 N20 1.332 . S
C19 C23 1.381 . S
C19 H25 0.931 . S
N20 Cd1 2.334 . S
N20 C19 1.332 . S
N20 C24 1.328 1_556 S
C21 C22 1.396 1_554 S
C21 C24 1.378 1_545 S
C21 H50 0.931 . S
C22 C21 1.396 1_556 S
C22 C23 1.382 1_545 S
C23 C19 1.381 . S
C23 C22 1.382 1_565 S
C23 H51 0.930 . S
C24 N20 1.328 1_554 S
C24 C21 1.378 1_565 S
C24 H26 0.930 . S
H25 C19 0.931 . S
H26 C24 0.930 . S
C27 O38 1.238 1_445 S
C27 O39 1.253 . S
C28 O40 1.239 . S
C28 O41 1.230 1_556 S
N29 Cd0 2.304 . S
N29 C30 1.337 . S
N29 C34 1.338 1_554 S
C30 N29 1.337 . S
C30 C31 1.379 . S
C30 H44 0.929 . S
C31 C30 1.379 . S
C31 C32 1.380 1_545 S
C31 H52 0.929 . S
C32 C31 1.380 1_565 S
C32 C33 1.399 1_554 S
C33 C32 1.399 1_556 S
C33 C34 1.376 1_565 S
C33 H53 0.931 . S
C34 N29 1.338 1_556 S
C34 C33 1.376 1_545 S
C34 H45 0.930 . S
C35 O42 1.239 . S
C35 O43 1.230 1_554 S
O36 Cd0 2.268 1_556 S
O36 C10 1.238 1_445 S
O37 Cd1 2.273 . S
O37 C10 1.253 . S
O38 Cd1 2.268 1_554 S
O38 C27 1.238 1_665 S
O39 Cd0 2.273 . S
O39 C27 1.253 . S
O40 Cd0 2.417 1_556 S
O40 C28 1.239 . S
O41 Cd0 2.330 . S
O41 C28 1.230 1_554 S
O42 Cd1 2.417 1_554 S
O42 C35 1.239 . S
O43 Cd1 2.330 . S
O43 C35 1.230 1_556 S
H44 C30 0.929 . S
H45 C34 0.930 . S
H46 C4 0.931 . S
H47 C6 0.930 . S
H48 C12 0.929 . S
H49 C14 0.931 . S
H50 C21 0.931 . S
H51 C23 0.930 . S
H52 C31 0.929 . S
H53 C33 0.931 . S
C54 C55 1.420 1_455 S
C54 C56 1.385 . S
C54 H62 0.928 . S
C55 C54 1.420 1_655 S
C55 C68 1.420 1_554 S
C56 C54 1.385 . S
C56 H63 0.929 . S
C56 C74 1.407 1_454 S
C57 H64 0.928 . S
C57 C73 1.374 . S
C57 C77 1.388 1_554 S
C58 C59 1.420 1_655 S
C58 C60 1.387 1_655 S
C58 H65 0.928 . S
C59 C58 1.420 1_455 S
C59 C71 1.420 1_556 S
C60 C58 1.387 1_455 S
C60 H66 0.930 1_455 S
C60 C84 1.405 . S
C61 H67 0.928 1_455 S
C61 C70 1.374 . S
C61 C87 1.388 . S
H62 C54 0.928 . S
H63 C56 0.929 . S
H64 C57 0.928 . S
H65 C58 0.928 . S
H66 C60 0.930 1_655 S
H67 C61 0.928 1_655 S
C68 C55 1.420 1_556 S
C68 C69 1.385 . S
C68 H78 0.928 . S
C69 C68 1.385 . S
C69 C74 1.407 . S
C69 H79 0.929 . S
C70 C61 1.374 . S
C70 C77 1.388 . S
C70 H80 0.928 1_455 S
C71 C59 1.420 1_554 S
C71 C72 1.385 . S
C71 H81 0.928 . S
C72 C71 1.385 . S
C72 H82 0.929 . S
C72 C84 1.407 1_554 S
C73 C57 1.374 . S
C73 H83 0.928 . S
C73 C87 1.388 1_554 S
C74 C56 1.407 1_656 S
C74 C69 1.407 . S
C74 C75 1.428 1_655 S
C75 C74 1.428 1_455 S
C75 C76 1.230 . S
C76 C75 1.230 . S
C76 C77 1.405 . S
C77 C57 1.388 1_556 S
C77 C70 1.388 . S
C77 C76 1.405 . S
H78 C68 0.928 . S
H79 C69 0.929 . S
H80 C70 0.928 1_655 S
H81 C71 0.928 . S
H82 C72 0.929 . S
H83 C73 0.928 . S
C84 C60 1.405 . S
C84 C72 1.407 1_556 S
C84 C85 1.428 . S
C85 C84 1.428 . S
C85 C86 1.230 . S
C86 C85 1.230 . S
C86 C87 1.405 . S
C87 C61 1.388 . S
C87 C73 1.388 1_556 S
C87 C86 1.405 . S
C88 C89 1.420 . S
C88 C90 1.385 . S
C88 H96 0.928 . S
C89 C88 1.420 . S
C89 C102 1.420 1_545 S
C90 C88 1.385 . S
C90 H97 0.929 . S
C90 C108 1.407 . S
C91 H98 0.928 . S
C91 C107 1.374 . S
C91 C111 1.388 . S
C92 C93 1.420 1_556 S
C92 C94 1.385 . S
C92 H99 0.928 . S
C93 C92 1.420 1_554 S
C93 C105 1.420 1_565 S
C94 C92 1.385 . S
C94 H100 0.929 . S
C94 C118 1.407 . S
C95 H101 0.928 . S
C95 C104 1.374 . S
C95 C121 1.388 . S
H96 C88 0.928 . S
H97 C90 0.929 . S
H98 C91 0.928 . S
H99 C92 0.928 . S
H100 C94 0.929 . S
H101 C95 0.928 . S
C102 C89 1.420 1_565 S
C102 C103 1.385 . S
C102 H112 0.928 . S
C103 C102 1.385 . S
C103 C108 1.407 1_565 S
C103 H113 0.929 . S
C104 C95 1.374 . S
C104 C111 1.388 1_565 S
C104 H114 0.928 . S
C105 C93 1.420 1_545 S
C105 C106 1.385 1_554 S
C105 H115 0.928 . S
C106 C105 1.385 1_556 S
C106 H116 0.929 . S
C106 C118 1.407 1_545 S
C107 C91 1.374 . S
C107 H117 0.928 . S
C107 C121 1.388 1_545 S
C108 C90 1.407 . S
C108 C103 1.407 1_545 S
C108 C109 1.428 . S
C109 C108 1.428 . S
C109 C110 1.230 . S
C110 C109 1.230 . S
C110 C111 1.405 . S
C111 C91 1.388 . S
C111 C104 1.388 1_545 S
C111 C110 1.405 . S
H112 C102 0.928 . S
H113 C103 0.929 . S
H114 C104 0.928 . S
H115 C105 0.928 . S
H116 C106 0.929 . S
H117 C107 0.928 . S
C118 C94 1.407 . S
C118 C106 1.407 1_565 S
C118 C119 1.428 . S
C119 C118 1.428 . S
C119 C120 1.230 . S
C120 C119 1.230 . S
C120 C121 1.405 . S
C121 C95 1.388 . S
C121 C107 1.388 1_565 S
C121 C120 1.405 . S
C122 C123 1.420 1_554 S
C122 C124 1.385 . S
C122 H130 0.928 . S
C123 C122 1.420 1_556 S
C123 C136 1.420 . S
C124 C122 1.385 . S
C124 H131 0.929 . S
C124 C142 1.407 1_554 S
C125 H132 0.928 . S
C125 C141 1.374 . S
C125 C145 1.388 1_554 S
C126 C127 1.420 1_556 S
C126 C128 1.385 . S
C126 H133 0.928 . S
C127 C126 1.420 1_554 S
C127 C139 1.420 . S
C128 C126 1.385 . S
C128 H134 0.929 . S
C128 C152 1.407 1_556 S
C129 H135 0.928 . S
C129 C138 1.374 . S
C129 C155 1.388 . S
H130 C122 0.928 . S
H131 C124 0.929 . S
H132 C125 0.928 . S
H133 C126 0.928 . S
H134 C128 0.929 . S
H135 C129 0.928 . S
C136 C123 1.420 . S
C136 C137 1.385 . S
C136 H146 0.928 . S
C137 C136 1.385 . S
C137 C142 1.407 . S
C137 H147 0.929 . S
C138 C129 1.374 . S
C138 C145 1.388 . S
C138 H148 0.928 . S
C139 C127 1.420 . S
C139 C140 1.385 . S
C139 H149 0.928 . S
C140 C139 1.385 . S
C140 H150 0.929 . S
C140 C152 1.407 . S
C141 C125 1.374 . S
C141 H151 0.928 . S
C141 C155 1.388 1_554 S
C142 C124 1.407 1_556 S
C142 C137 1.407 . S
C142 C143 1.428 . S
C143 C142 1.428 . S
C143 C144 1.230 . S
C144 C143 1.230 . S
C144 C145 1.405 . S
C145 C125 1.388 1_556 S
C145 C138 1.388 . S
C145 C144 1.405 . S
H146 C136 0.928 . S
H147 C137 0.929 . S
H148 C138 0.928 . S
H149 C139 0.928 . S
H150 C140 0.929 . S
H151 C141 0.928 . S
C152 C128 1.407 1_554 S
C152 C140 1.407 . S
C152 C153 1.428 1_554 S
C153 C152 1.428 1_556 S
C153 C154 1.230 . S
C154 C153 1.230 . S
C154 C155 1.405 . S
C155 C129 1.388 . S
C155 C141 1.388 1_556 S
C155 C154 1.405 . S
C156 C157 1.417 1_545 S
C156 C158 1.385 . S
C156 H164 0.928 . S
C157 C156 1.417 1_565 S
C157 C170 1.426 1_455 S
C158 C156 1.385 . S
C158 H165 0.929 . S
C158 C176 1.407 1_545 S
C159 H166 0.928 . S
C159 C175 1.374 . S
C159 C179 1.388 1_545 S
C160 C161 1.416 1_655 S
C160 C162 1.385 . S
C160 H167 0.928 . S
C161 C160 1.416 1_455 S
C161 C173 1.426 1_565 S
C162 C160 1.385 . S
C162 H168 0.929 . S
C162 C186 1.407 1_655 S
C163 H169 0.928 . S
C163 C172 1.374 . S
C163 C189 1.388 1_655 S
H164 C156 0.928 . S
H165 C158 0.929 . S
H166 C159 0.928 . S
H167 C160 0.928 . S
H168 C162 0.929 . S
H169 C163 0.928 . S
C170 C157 1.426 1_655 S
C170 C171 1.385 . S
C170 H180 0.928 . S
C171 C170 1.385 . S
C171 C176 1.407 1_655 S
C171 H181 0.929 . S
C172 C163 1.374 . S
C172 C179 1.388 1_655 S
C172 H182 0.928 . S
C173 C161 1.426 1_545 S
C173 C174 1.385 . S
C173 H183 0.928 . S
C174 C173 1.385 . S
C174 H184 0.929 . S
C174 C186 1.407 1_545 S
C175 C159 1.374 . S
C175 H185 0.928 . S
C175 C189 1.388 1_545 S
C176 C158 1.407 1_565 S
C176 C171 1.407 1_455 S
C176 C177 1.428 . S
C177 C176 1.428 . S
C177 C178 1.230 . S
C178 C177 1.230 . S
C178 C179 1.405 . S
C179 C159 1.388 1_565 S
C179 C172 1.388 1_455 S
C179 C178 1.405 . S
H180 C170 0.928 . S
H181 C171 0.929 . S
H182 C172 0.928 . S
H183 C173 0.928 . S
H184 C174 0.929 . S
H185 C175 0.928 . S
C186 C162 1.407 1_455 S
C186 C174 1.407 1_565 S
C186 C187 1.428 . S
C187 C186 1.428 . S
C187 C188 1.230 . S
C188 C187 1.230 . S
C188 C189 1.405 . S
C189 C163 1.388 1_455 S
C189 C175 1.388 1_565 S
C189 C188 1.405 . S
C55 C5 2.068 . S
C59 C13 2.082 . S
C89 C22 2.076 . S
C93 C32 2.073 . S
C123 C28 0.133 . S
C127 C35 0.114 . S
C157 C10 1.480 1_455 S
C161 C27 1.482 1_565 S
