# Generated by pormake.
# Topology mok, (4)-cn, num edge types: 1
# Building blocks:
#     Node 0, Type 0, BuildingBlock: GALJAG_clean_sbu_0, # of connection points: 4
#     Node 1, Type 0, BuildingBlock: GALJAG_clean_sbu_0, # of connection points: 4
#     Node 2, Type 0, BuildingBlock: GALJAG_clean_sbu_0, # of connection points: 4
#     Node 3, Type 0, BuildingBlock: GALJAG_clean_sbu_0, # of connection points: 4
#     Node 4, Type 0, BuildingBlock: GALJAG_clean_sbu_0, # of connection points: 4
#     Node 5, Type 0, BuildingBlock: GALJAG_clean_sbu_0, # of connection points: 4
#     Node 6, Type 0, BuildingBlock: GALJAG_clean_sbu_0, # of connection points: 4
#     Node 7, Type 0, BuildingBlock: GALJAG_clean_sbu_0, # of connection points: 4
#     Edge 8, Type (0, 0), BuildingBlock: EYOCIG_clean_linker_4, # of connection points: 2
#     Edge 9, Type (0, 0), BuildingBlock: EYOCIG_clean_linker_4, # of connection points: 2
#     Edge 10, Type (0, 0), BuildingBlock: EYOCIG_clean_linker_4, # of connection points: 2
#     Edge 11, Type (0, 0), BuildingBlock: EYOCIG_clean_linker_4, # of connection points: 2
#     Edge 12, Type (0, 0), BuildingBlock: EYOCIG_clean_linker_4, # of connection points: 2
#     Edge 13, Type (0, 0), BuildingBlock: EYOCIG_clean_linker_4, # of connection points: 2
#     Edge 14, Type (0, 0), BuildingBlock: EYOCIG_clean_linker_4, # of connection points: 2
#     Edge 15, Type (0, 0), BuildingBlock: EYOCIG_clean_linker_4, # of connection points: 2
#     Edge 16, Type (0, 0), BuildingBlock: EYOCIG_clean_linker_4, # of connection points: 2
#     Edge 17, Type (0, 0), BuildingBlock: EYOCIG_clean_linker_4, # of connection points: 2
#     Edge 18, Type (0, 0), BuildingBlock: EYOCIG_clean_linker_4, # of connection points: 2
#     Edge 19, Type (0, 0), BuildingBlock: EYOCIG_clean_linker_4, # of connection points: 2
#     Edge 20, Type (0, 0), BuildingBlock: EYOCIG_clean_linker_4, # of connection points: 2
#     Edge 21, Type (0, 0), BuildingBlock: EYOCIG_clean_linker_4, # of connection points: 2
#     Edge 22, Type (0, 0), BuildingBlock: EYOCIG_clean_linker_4, # of connection points: 2
#     Edge 23, Type (0, 0), BuildingBlock: EYOCIG_clean_linker_4, # of connection points: 2
# Relax obj value: 0.070
# Max RMSD: 0.103
# Mean RMSD: 0.103
data_MOF--net-mok--node1-GALJAG_clean_sbu_0--edge1-EYOCIG_clean_linker_4
_symmetry_space_group_name_H-M    P1
_symmetry_Int_Tables_number       1
_symmetry_cell_setting            triclinic
loop_
_symmetry_equiv_pos_as_xyz
'x, y, z'
_cell_length_a     43.115369
_cell_length_b     11.149201
_cell_length_c     22.618572
_cell_angle_alpha  90.051247
_cell_angle_beta   89.999357
_cell_angle_gamma 89.990795
loop_
_atom_site_label
_atom_site_type_symbol
_atom_site_fract_x
_atom_site_fract_y
_atom_site_fract_z
_atom_type_partial_charge
In0 In 0.61368 0.31366 0.01478 0.0
O1 O 0.60109 0.46424 0.95033 0.0
O2 O 0.61632 0.29582 0.91538 0.0
C3 C 0.61132 0.40118 0.12492 0.0
C4 C 0.56416 0.16884 0.00957 0.0
C5 C 0.67483 0.27445 0.01916 0.0
O6 O 0.60859 0.46913 0.08043 0.0
O7 O 0.61374 0.29085 0.11392 0.0
O8 O 0.6555 0.18946 0.02191 0.0
O9 O 0.66354 0.37775 0.01221 0.0
C10 C 0.60662 0.40041 0.90524 0.0
O11 O 0.59157 0.12882 0.00762 0.0
O12 O 0.56161 0.28086 0.01611 0.0
In13 In 0.38974 0.66956 0.01472 0.0
O14 O 0.41269 0.85323 0.00705 0.0
O15 O 0.44187 0.69916 0.01615 0.0
C16 C 0.32847 0.70765 0.01898 0.0
C17 C 0.39726 0.57873 0.90605 0.0
C18 C 0.39205 0.5837 0.12505 0.0
O19 O 0.34765 0.7933 0.02136 0.0
O20 O 0.33997 0.60464 0.01222 0.0
O21 O 0.39469 0.51525 0.08068 0.0
O22 O 0.38966 0.69395 0.11387 0.0
C23 C 0.4399 0.8112 0.00928 0.0
O24 O 0.40242 0.51669 0.95182 0.0
O25 O 0.38752 0.68382 0.91501 0.0
In26 In 0.6138 0.66997 0.51578 0.0
O27 O 0.60138 0.51733 0.57897 0.0
O28 O 0.61638 0.68444 0.61557 0.0
C29 C 0.61124 0.57749 0.40671 0.0
C30 C 0.56418 0.81504 0.52 0.0
C31 C 0.67491 0.7118 0.50918 0.0
O32 O 0.60872 0.51177 0.45199 0.0
O33 O 0.61353 0.68837 0.41636 0.0
O34 O 0.65533 0.79606 0.50718 0.0
O35 O 0.66392 0.60838 0.51714 0.0
C36 C 0.60681 0.57924 0.62467 0.0
O37 O 0.59157 0.85493 0.52257 0.0
O38 O 0.56169 0.70299 0.51374 0.0
In39 In 0.38968 0.31482 0.51594 0.0
O40 O 0.41286 0.13166 0.52183 0.0
O41 O 0.4419 0.2863 0.5138 0.0
C42 C 0.32861 0.27159 0.51034 0.0
C43 C 0.39707 0.40089 0.62565 0.0
C44 C 0.39202 0.40695 0.40681 0.0
O45 O 0.34832 0.1878 0.50781 0.0
O46 O 0.33947 0.37537 0.51806 0.0
O47 O 0.39434 0.473 0.45211 0.0
O48 O 0.3899 0.29603 0.41649 0.0
C49 C 0.44003 0.17402 0.51968 0.0
O50 O 0.4021 0.46515 0.5806 0.0
O51 O 0.38742 0.29619 0.6155 0.0
In52 In 0.11367 0.8143 0.01489 0.0
O53 O 0.09136 0.62969 0.00911 0.0
O54 O 0.06155 0.78227 0.01673 0.0
C55 C 0.1748 0.77347 0.0196 0.0
C56 C 0.10686 0.9004 0.90519 0.0
C57 C 0.11101 0.90593 0.12414 0.0
O58 O 0.15532 0.68898 0.02243 0.0
O59 O 0.16366 0.87696 0.01252 0.0
O60 O 0.10842 0.97205 0.07898 0.0
O61 O 0.11361 0.79523 0.11425 0.0
C62 C 0.064 0.67003 0.01119 0.0
O63 O 0.10142 0.96456 0.95017 0.0
O64 O 0.11625 0.79546 0.91546 0.0
In65 In 0.88975 0.16912 0.01473 0.0
O66 O 0.90251 0.0187 0.95044 0.0
O67 O 0.88771 0.18725 0.91513 0.0
C68 C 0.89228 0.07886 0.12419 0.0
C69 C 0.93989 0.31092 0.01117 0.0
C70 C 0.8285 0.20806 0.01911 0.0
O71 O 0.89479 0.01224 0.07913 0.0
O72 O 0.88978 0.18954 0.11412 0.0
O73 O 0.84777 0.29334 0.02192 0.0
O74 O 0.83991 0.10498 0.01204 0.0
C75 C 0.89747 0.08255 0.90524 0.0
O76 O 0.91268 0.35285 0.00888 0.0
O77 O 0.9419 0.19865 0.01698 0.0
In78 In 0.1137 0.17041 0.51588 0.0
O79 O 0.10131 0.0178 0.579 0.0
O80 O 0.11655 0.18489 0.61548 0.0
C81 C 0.11077 0.08292 0.40589 0.0
C82 C 0.06398 0.31458 0.52226 0.0
C83 C 0.17501 0.20665 0.51017 0.0
O84 O 0.10807 0.01528 0.45047 0.0
O85 O 0.11347 0.19325 0.41671 0.0
O86 O 0.15597 0.29279 0.50795 0.0
O87 O 0.16336 0.10415 0.51761 0.0
C88 C 0.10694 0.07976 0.62464 0.0
O89 O 0.09134 0.3552 0.52412 0.0
O90 O 0.06163 0.20267 0.51522 0.0
In91 In 0.88961 0.81438 0.51602 0.0
O92 O 0.912 0.6297 0.52436 0.0
O93 O 0.94165 0.78215 0.51454 0.0
C94 C 0.82834 0.7764 0.50952 0.0
C95 C 0.89731 0.90488 0.62487 0.0
C96 C 0.89253 0.90187 0.406 0.0
O97 O 0.84756 0.69084 0.50761 0.0
O98 O 0.83976 0.87919 0.51749 0.0
O99 O 0.89497 0.96967 0.45065 0.0
O100 O 0.89008 0.79148 0.41679 0.0
C101 C 0.93934 0.67037 0.52199 0.0
O102 O 0.90254 0.96688 0.57913 0.0
O103 O 0.88728 0.80025 0.61581 0.0
C104 C 0.76792 0.23553 0.02704 0.0
C105 C 0.79568 0.22595 0.02359 0.0
C106 C 0.73534 0.24536 0.02703 0.0
C107 C 0.70761 0.2558 0.02359 0.0
C108 C 0.23529 0.74372 0.02746 0.0
C109 C 0.20756 0.75417 0.02405 0.0
C110 C 0.26788 0.73422 0.02733 0.0
C111 C 0.29564 0.72503 0.02367 0.0
C112 C 0.76788 0.75013 0.4977 0.0
C113 C 0.79558 0.75911 0.50292 0.0
C114 C 0.73527 0.74107 0.49763 0.0
C115 C 0.70759 0.73111 0.5027 0.0
C116 C 0.2356 0.23152 0.50031 0.0
C117 C 0.20785 0.22301 0.50465 0.0
C118 C 0.26821 0.24071 0.50035 0.0
C119 C 0.29591 0.25135 0.50471 0.0
C120 C 0.61349 0.47225 0.23593 0.0
C121 C 0.61236 0.44478 0.18448 0.0
C122 C 0.61347 0.50129 0.29659 0.0
C123 C 0.61232 0.53074 0.34776 0.0
C124 C 0.39008 0.51255 0.23604 0.0
C125 C 0.3911 0.54047 0.18466 0.0
C126 C 0.39008 0.48291 0.29663 0.0
C127 C 0.39109 0.45338 0.34779 0.0
C128 C 0.40461 0.50359 0.79638 0.0
C129 C 0.40167 0.5335 0.84728 0.0
C130 C 0.40457 0.47163 0.73602 0.0
C131 C 0.40151 0.44334 0.68492 0.0
C132 C 0.60034 0.47129 0.79469 0.0
C133 C 0.60281 0.44316 0.8459 0.0
C134 C 0.60042 0.50324 0.73435 0.0
C135 C 0.60294 0.53365 0.68347 0.0
C136 C 0.11251 0.98113 0.23448 0.0
C137 C 0.11168 0.95201 0.18324 0.0
C138 C 0.11246 0.01053 0.29508 0.0
C139 C 0.11155 0.03875 0.34644 0.0
C140 C 0.89086 0.9742 0.29517 0.0
C141 C 0.89175 0.94591 0.34652 0.0
C142 C 0.89081 0.00394 0.23459 0.0
C143 C 0.89161 0.03324 0.18338 0.0
C144 C 0.90508 0.97911 0.73463 0.0
C145 C 0.90196 0.94963 0.68369 0.0
C146 C 0.90509 0.01101 0.79502 0.0
C147 C 0.90199 0.03959 0.84607 0.0
C148 C 0.10092 0.97195 0.79471 0.0
C149 C 0.10327 0.94329 0.84586 0.0
C150 C 0.10093 0.00409 0.73442 0.0
C151 C 0.10327 0.03431 0.68349 0.0
C152 C 0.48936 0.94987 0.00069 0.0
C153 C 0.4669 0.88594 0.00465 0.0
C154 C 0.51545 0.02641 0.00077 0.0
C155 C 0.53761 0.09183 0.00481 0.0
C156 C 0.51546 0.95798 0.52672 0.0
C157 C 0.5376 0.89223 0.52363 0.0
C158 C 0.48948 0.03509 0.52666 0.0
C159 C 0.46705 0.09928 0.52344 0.0
C160 C 0.01524 0.52742 0.00472 0.0
C161 C 0.03739 0.59307 0.0077 0.0
C162 C 0.98927 0.45036 0.0047 0.0
C163 C 0.96685 0.38606 0.00769 0.0
C164 C 0.01481 0.4547 0.53183 0.0
C165 C 0.03724 0.39065 0.52746 0.0
C166 C 0.98853 0.53041 0.53173 0.0
C167 C 0.96612 0.59453 0.52727 0.0
loop_
_geom_bond_atom_site_label_1
_geom_bond_atom_site_label_2
_geom_bond_distance
_geom_bond_site_symmetry_2
_ccdc_geom_bond_type
In0 O1 2.294 1_554 S
In0 O2 2.326 1_554 S
In0 O6 2.266 . S
In0 O7 2.326 . S
In0 O8 2.266 . S
In0 O9 2.326 . S
In0 O11 2.294 . S
In0 O12 2.326 . S
O1 In0 2.294 1_556 S
O1 C10 1.240 . S
O2 In0 2.326 1_556 S
O2 C10 1.252 . S
C3 O6 1.252 . S
C3 O7 1.260 . S
C4 O11 1.240 . S
C4 O12 1.252 . S
C5 O8 1.252 . S
C5 O9 1.260 . S
O6 In0 2.266 . S
O6 C3 1.252 . S
O7 In0 2.326 . S
O7 C3 1.260 . S
O8 In0 2.266 . S
O8 C5 1.252 . S
O9 In0 2.326 . S
O9 C5 1.260 . S
C10 O1 1.240 . S
C10 O2 1.252 . S
O11 In0 2.294 . S
O11 C4 1.240 . S
O12 In0 2.326 . S
O12 C4 1.252 . S
In13 O14 2.294 . S
In13 O15 2.326 . S
In13 O19 2.266 . S
In13 O20 2.326 . S
In13 O21 2.266 . S
In13 O22 2.326 . S
In13 O24 2.294 1_554 S
In13 O25 2.326 1_554 S
O14 In13 2.294 . S
O14 C23 1.240 . S
O15 In13 2.326 . S
O15 C23 1.252 . S
C16 O19 1.252 . S
C16 O20 1.260 . S
C17 O24 1.240 . S
C17 O25 1.252 . S
C18 O21 1.252 . S
C18 O22 1.260 . S
O19 In13 2.266 . S
O19 C16 1.252 . S
O20 In13 2.326 . S
O20 C16 1.260 . S
O21 In13 2.266 . S
O21 C18 1.252 . S
O22 In13 2.326 . S
O22 C18 1.260 . S
C23 O14 1.240 . S
C23 O15 1.252 . S
O24 In13 2.294 1_556 S
O24 C17 1.240 . S
O25 In13 2.326 1_556 S
O25 C17 1.252 . S
In26 O27 2.294 . S
In26 O28 2.326 . S
In26 O32 2.266 . S
In26 O33 2.326 . S
In26 O34 2.266 . S
In26 O35 2.326 . S
In26 O37 2.294 . S
In26 O38 2.326 . S
O27 In26 2.294 . S
O27 C36 1.240 . S
O28 In26 2.326 . S
O28 C36 1.252 . S
C29 O32 1.252 . S
C29 O33 1.260 . S
C30 O37 1.240 . S
C30 O38 1.252 . S
C31 O34 1.252 . S
C31 O35 1.260 . S
O32 In26 2.266 . S
O32 C29 1.252 . S
O33 In26 2.326 . S
O33 C29 1.260 . S
O34 In26 2.266 . S
O34 C31 1.252 . S
O35 In26 2.326 . S
O35 C31 1.260 . S
C36 O27 1.240 . S
C36 O28 1.252 . S
O37 In26 2.294 . S
O37 C30 1.240 . S
O38 In26 2.326 . S
O38 C30 1.252 . S
In39 O40 2.294 . S
In39 O41 2.326 . S
In39 O45 2.266 . S
In39 O46 2.326 . S
In39 O47 2.266 . S
In39 O48 2.326 . S
In39 O50 2.294 . S
In39 O51 2.326 . S
O40 In39 2.294 . S
O40 C49 1.240 . S
O41 In39 2.326 . S
O41 C49 1.252 . S
C42 O45 1.252 . S
C42 O46 1.260 . S
C43 O50 1.240 . S
C43 O51 1.252 . S
C44 O47 1.252 . S
C44 O48 1.260 . S
O45 In39 2.266 . S
O45 C42 1.252 . S
O46 In39 2.326 . S
O46 C42 1.260 . S
O47 In39 2.266 . S
O47 C44 1.252 . S
O48 In39 2.326 . S
O48 C44 1.260 . S
C49 O40 1.240 . S
C49 O41 1.252 . S
O50 In39 2.294 . S
O50 C43 1.240 . S
O51 In39 2.326 . S
O51 C43 1.252 . S
In52 O53 2.294 . S
In52 O54 2.326 . S
In52 O58 2.266 . S
In52 O59 2.326 . S
In52 O60 2.266 . S
In52 O61 2.326 . S
In52 O63 2.294 1_554 S
In52 O64 2.326 1_554 S
O53 In52 2.294 . S
O53 C62 1.240 . S
O54 In52 2.326 . S
O54 C62 1.252 . S
C55 O58 1.252 . S
C55 O59 1.260 . S
C56 O63 1.240 . S
C56 O64 1.252 . S
C57 O60 1.252 . S
C57 O61 1.260 . S
O58 In52 2.266 . S
O58 C55 1.252 . S
O59 In52 2.326 . S
O59 C55 1.260 . S
O60 In52 2.266 . S
O60 C57 1.252 . S
O61 In52 2.326 . S
O61 C57 1.260 . S
C62 O53 1.240 . S
C62 O54 1.252 . S
O63 In52 2.294 1_556 S
O63 C56 1.240 . S
O64 In52 2.326 1_556 S
O64 C56 1.252 . S
In65 O66 2.294 1_554 S
In65 O67 2.326 1_554 S
In65 O71 2.266 . S
In65 O72 2.326 . S
In65 O73 2.266 . S
In65 O74 2.326 . S
In65 O76 2.294 . S
In65 O77 2.326 . S
O66 In65 2.294 1_556 S
O66 C75 1.240 . S
O67 In65 2.326 1_556 S
O67 C75 1.252 . S
C68 O71 1.252 . S
C68 O72 1.260 . S
C69 O76 1.240 . S
C69 O77 1.252 . S
C70 O73 1.252 . S
C70 O74 1.260 . S
O71 In65 2.266 . S
O71 C68 1.252 . S
O72 In65 2.326 . S
O72 C68 1.260 . S
O73 In65 2.266 . S
O73 C70 1.252 . S
O74 In65 2.326 . S
O74 C70 1.260 . S
C75 O66 1.240 . S
C75 O67 1.252 . S
O76 In65 2.294 . S
O76 C69 1.240 . S
O77 In65 2.326 . S
O77 C69 1.252 . S
In78 O79 2.294 . S
In78 O80 2.326 . S
In78 O84 2.266 . S
In78 O85 2.326 . S
In78 O86 2.266 . S
In78 O87 2.326 . S
In78 O89 2.294 . S
In78 O90 2.326 . S
O79 In78 2.294 . S
O79 C88 1.240 . S
O80 In78 2.326 . S
O80 C88 1.252 . S
C81 O84 1.252 . S
C81 O85 1.260 . S
C82 O89 1.240 . S
C82 O90 1.252 . S
C83 O86 1.252 . S
C83 O87 1.260 . S
O84 In78 2.266 . S
O84 C81 1.252 . S
O85 In78 2.326 . S
O85 C81 1.260 . S
O86 In78 2.266 . S
O86 C83 1.252 . S
O87 In78 2.326 . S
O87 C83 1.260 . S
C88 O79 1.240 . S
C88 O80 1.252 . S
O89 In78 2.294 . S
O89 C82 1.240 . S
O90 In78 2.326 . S
O90 C82 1.252 . S
In91 O92 2.294 . S
In91 O93 2.326 . S
In91 O97 2.266 . S
In91 O98 2.326 . S
In91 O99 2.266 . S
In91 O100 2.326 . S
In91 O102 2.294 . S
In91 O103 2.326 . S
O92 In91 2.294 . S
O92 C101 1.240 . S
O93 In91 2.326 . S
O93 C101 1.252 . S
C94 O97 1.252 . S
C94 O98 1.260 . S
C95 O102 1.240 . S
C95 O103 1.252 . S
C96 O99 1.252 . S
C96 O100 1.260 . S
O97 In91 2.266 . S
O97 C94 1.252 . S
O98 In91 2.326 . S
O98 C94 1.260 . S
O99 In91 2.266 . S
O99 C96 1.252 . S
O100 In91 2.326 . S
O100 C96 1.260 . S
C101 O92 1.240 . S
C101 O93 1.252 . S
O102 In91 2.294 . S
O102 C95 1.240 . S
O103 In91 2.326 . S
O103 C95 1.252 . S
C104 C105 1.170 . S
C104 C106 1.380 . S
C105 C104 1.170 . S
C106 C104 1.380 . S
C106 C107 1.170 . S
C107 C106 1.170 . S
C108 C109 1.170 . S
C108 C110 1.380 . S
C109 C108 1.170 . S
C110 C108 1.380 . S
C110 C111 1.170 . S
C111 C110 1.170 . S
C112 C113 1.170 . S
C112 C114 1.380 . S
C113 C112 1.170 . S
C114 C112 1.380 . S
C114 C115 1.170 . S
C115 C114 1.170 . S
C116 C117 1.170 . S
C116 C118 1.380 . S
C117 C116 1.170 . S
C118 C116 1.380 . S
C118 C119 1.170 . S
C119 C118 1.170 . S
C120 C121 1.170 . S
C120 C122 1.380 . S
C121 C120 1.170 . S
C122 C120 1.380 . S
C122 C123 1.170 . S
C123 C122 1.170 . S
C124 C125 1.170 . S
C124 C126 1.380 . S
C125 C124 1.170 . S
C126 C124 1.380 . S
C126 C127 1.170 . S
C127 C126 1.170 . S
C128 C129 1.170 . S
C128 C130 1.380 . S
C129 C128 1.170 . S
C130 C128 1.380 . S
C130 C131 1.170 . S
C131 C130 1.170 . S
C132 C133 1.170 . S
C132 C134 1.380 . S
C133 C132 1.170 . S
C134 C132 1.380 . S
C134 C135 1.170 . S
C135 C134 1.170 . S
C136 C137 1.170 . S
C136 C138 1.380 1_565 S
C137 C136 1.170 . S
C138 C136 1.380 1_545 S
C138 C139 1.170 . S
C139 C138 1.170 . S
C140 C141 1.170 . S
C140 C142 1.380 1_565 S
C141 C140 1.170 . S
C142 C140 1.380 1_545 S
C142 C143 1.170 . S
C143 C142 1.170 . S
C144 C145 1.170 . S
C144 C146 1.380 1_565 S
C145 C144 1.170 . S
C146 C144 1.380 1_545 S
C146 C147 1.170 . S
C147 C146 1.170 . S
C148 C149 1.170 . S
C148 C150 1.380 1_565 S
C149 C148 1.170 . S
C150 C148 1.380 1_545 S
C150 C151 1.170 . S
C151 C150 1.170 . S
C152 C153 1.170 . S
C152 C154 1.380 1_565 S
C153 C152 1.170 . S
C154 C152 1.380 1_545 S
C154 C155 1.170 . S
C155 C154 1.170 . S
C156 C157 1.170 . S
C156 C158 1.380 1_565 S
C157 C156 1.170 . S
C158 C156 1.380 1_545 S
C158 C159 1.170 . S
C159 C158 1.170 . S
C160 C161 1.170 . S
C160 C162 1.380 1_455 S
C161 C160 1.170 . S
C162 C160 1.380 1_655 S
C162 C163 1.170 . S
C163 C162 1.170 . S
C164 C165 1.170 . S
C164 C166 1.380 1_455 S
C165 C164 1.170 . S
C166 C164 1.380 1_655 S
C166 C167 1.170 . S
C167 C166 1.170 . S
C105 C70 1.509 . S
C107 C5 1.511 . S
C109 C55 1.512 . S
C111 C16 1.509 . S
C113 C94 1.516 . S
C115 C31 1.518 . S
C117 C83 1.511 . S
C119 C42 1.517 . S
C121 C3 1.429 . S
C123 C29 1.442 . S
C125 C18 1.429 . S
C127 C44 1.442 . S
C129 C17 1.481 . S
C131 C43 1.478 . S
C133 C10 1.472 . S
C135 C36 1.475 . S
C137 C57 1.439 . S
C139 C81 1.431 . S
C141 C96 1.431 . S
C143 C68 1.439 . S
C145 C95 1.481 . S
C147 C75 1.480 . S
C149 C56 1.471 . S
C151 C88 1.473 . S
C153 C23 1.515 . S
C155 C4 1.512 . S
C157 C30 1.511 . S
C159 C49 1.514 . S
C161 C62 1.511 . S
C163 C69 1.514 . S
C165 C82 1.514 . S
C167 C101 1.514 . S
