# Generated by pormake.
# Topology qzd, (4)-cn, num edge types: 1
# Building blocks:
#     Node 0, Type 0, BuildingBlock: NAWXER_clean_sbu_0, # of connection points: 4
#     Node 1, Type 0, BuildingBlock: NAWXER_clean_sbu_0, # of connection points: 4
#     Node 2, Type 0, BuildingBlock: NAWXER_clean_sbu_0, # of connection points: 4
#     Edge 3, Type (0, 0), BuildingBlock: XIVTED_clean_linker_0, # of connection points: 2
#     Edge 4, Type (0, 0), BuildingBlock: XIVTED_clean_linker_0, # of connection points: 2
#     Edge 5, Type (0, 0), BuildingBlock: XIVTED_clean_linker_0, # of connection points: 2
#     Edge 6, Type (0, 0), BuildingBlock: XIVTED_clean_linker_0, # of connection points: 2
#     Edge 7, Type (0, 0), BuildingBlock: XIVTED_clean_linker_0, # of connection points: 2
#     Edge 8, Type (0, 0), BuildingBlock: XIVTED_clean_linker_0, # of connection points: 2
# Relax obj value: 0.000
# Max RMSD: 0.038
# Mean RMSD: 0.038
data_MOF--net-qzd--node1-NAWXER_clean_sbu_0--edge1-XIVTED_clean_linker_0
_symmetry_space_group_name_H-M    P1
_symmetry_Int_Tables_number       1
_symmetry_cell_setting            triclinic
loop_
_symmetry_equiv_pos_as_xyz
'x, y, z'
_cell_length_a     14.936858
_cell_length_b     14.932228
_cell_length_c     44.32284
_cell_angle_alpha  94.876651
_cell_angle_beta   94.111089
_cell_angle_gamma 120.05758
loop_
_atom_site_label
_atom_site_type_symbol
_atom_site_fract_x
_atom_site_fract_y
_atom_site_fract_z
_atom_type_partial_charge
C0 C 0.17705 0.87832 0.02673 0.0
C1 C 0.84554 0.87282 0.02266 0.0
O2 O 0.08624 0.79737 0.02302 0.0
Zn3 Zn 0.00975 0.8714 0.02471 0.0
O4 O 0.18708 0.96923 0.03018 0.0
Zn5 Zn 0.09128 0.03799 0.03178 0.0
O6 O 0.13135 0.114 0.07224 0.0
O7 O 0.05005 0.94308 0.07192 0.0
O8 O 0.92657 0.96447 0.02705 0.0
O9 O 0.85656 0.79352 0.0198 0.0
O10 O 0.04531 0.94579 0.98383 0.0
O11 O 0.12392 0.11645 0.99795 0.0
C12 C 0.09556 0.03582 0.08674 0.0
C13 C 0.08825 0.03909 0.97697 0.0
C14 C 0.1392 0.16008 0.42475 0.0
C15 C 0.10592 0.13333 0.31389 0.0
O16 O 0.09275 0.20626 0.41457 0.0
Zn17 Zn 0.04178 0.23003 0.37067 0.0
O18 O 0.16931 0.11418 0.40622 0.0
Zn19 Zn 0.12221 0.14571 0.36928 0.0
O20 O 0.21824 0.31183 0.37201 0.0
O21 O 0.11835 0.38162 0.37328 0.0
O22 O 0.14676 0.09605 0.33117 0.0
O23 O 0.06505 0.18379 0.32562 0.0
O24 O 0.88949 0.15318 0.36919 0.0
O25 O 0.95785 0.05225 0.36708 0.0
C26 C 0.2085 0.39264 0.37321 0.0
C27 C 0.8777 0.06233 0.36731 0.0
C28 C 0.07882 0.09643 0.7544 0.0
C29 C 0.09469 0.08938 0.64509 0.0
O30 O 0.98757 0.04951 0.7389 0.0
Zn31 Zn 0.92122 0.0072 0.69135 0.0
O32 O 0.15925 0.13354 0.74072 0.0
Zn33 Zn 0.08766 0.09386 0.69977 0.0
O34 O 0.01522 0.18531 0.69777 0.0
O35 O 0.84446 0.08106 0.68825 0.0
O36 O 0.17009 0.13406 0.66667 0.0
O37 O 1.00039 0.03982 0.65118 0.0
O38 O 0.84651 0.8546 0.6867 0.0
O39 O 0.01785 0.92831 0.69429 0.0
C40 C 0.92381 0.17297 0.69313 0.0
C41 C 0.92704 0.84585 0.68967 0.0
H42 H 0.6494 0.69475 0.01897 0.0
H43 H 0.37755 0.03889 0.03508 0.0
H44 H 0.805 0.03062 0.02419 0.0
H45 H 0.19469 0.70179 0.01789 0.0
H46 H 0.53474 0.03127 0.03341 0.0
H47 H 0.48166 0.68929 0.01985 0.0
C48 C 0.6484 0.76698 0.02017 0.0
C49 C 0.74167 0.8633 0.02167 0.0
C50 C 0.4606 0.95849 0.02993 0.0
C51 C 0.55144 0.85761 0.02284 0.0
C52 C 0.37021 0.9628 0.03096 0.0
C53 C 0.27226 0.87081 0.02652 0.0
C54 C 0.45434 0.8614 0.02444 0.0
C55 C 0.26865 0.77469 0.02139 0.0
C56 C 0.55287 0.76379 0.02071 0.0
C57 C 0.73578 0.95443 0.02318 0.0
N58 N 0.35864 0.77235 0.02046 0.0
N59 N 0.64289 0.94915 0.02381 0.0
H60 H 0.83226 0.86187 0.35608 0.0
H61 H 0.22548 0.58656 0.37398 0.0
H62 H 0.68709 0.04406 0.37593 0.0
H63 H 0.40735 0.43509 0.37227 0.0
H64 H 0.38553 0.75423 0.37156 0.0
H65 H 0.66824 0.70389 0.3574 0.0
C66 C 0.76562 0.86888 0.36071 0.0
C67 C 0.77409 0.96691 0.36618 0.0
C68 C 0.38976 0.684 0.37182 0.0
C69 C 0.5838 0.78395 0.3679 0.0
C70 C 0.29872 0.58847 0.37323 0.0
C71 C 0.30276 0.49637 0.37325 0.0
C72 C 0.48469 0.68663 0.37021 0.0
C73 C 0.39972 0.50345 0.37223 0.0
C74 C 0.67149 0.77805 0.36153 0.0
C75 C 0.68407 0.97008 0.37168 0.0
N76 N 0.4861 0.59638 0.37065 0.0
N77 N 0.59233 0.87964 0.37253 0.0
H78 H 0.08715 0.80871 0.69175 0.0
H79 H 0.74594 0.18672 0.68215 0.0
H80 H 0.75097 0.64815 0.68507 0.0
H81 H 0.08138 0.37496 0.70341 0.0
H82 H 0.73973 0.34826 0.68035 0.0
H83 H 0.08017 0.64392 0.69224 0.0
C84 C 0.01137 0.73855 0.69036 0.0
C85 C 0.91947 0.74278 0.68856 0.0
C86 C 0.81431 0.35347 0.68547 0.0
C87 C 0.9109 0.55134 0.68924 0.0
C88 C 0.81795 0.26157 0.68652 0.0
C89 C 0.91434 0.26707 0.69284 0.0
C90 C 0.90776 0.45078 0.69063 0.0
C91 C 1.00515 0.3661 0.69833 0.0
C92 C 0.00747 0.64388 0.6907 0.0
C93 C 0.82377 0.64846 0.68657 0.0
N94 N 0.99945 0.45329 0.697 0.0
N95 N 0.82185 0.55618 0.68703 0.0
H96 H 0.07501 0.24374 0.27243 0.0
H97 H 0.07174 0.89526 0.1258 0.0
H98 H 0.13844 0.99362 0.27927 0.0
H99 H 0.13506 0.2103 0.12434 0.0
H100 H 0.07735 0.91967 0.18139 0.0
H101 H 0.07699 0.22195 0.21722 0.0
C102 C 0.08908 0.18403 0.26231 0.0
C103 C 0.10655 0.12032 0.28047 0.0
C104 C 0.09052 0.98352 0.16888 0.0
C105 C 0.10828 0.09473 0.21731 0.0
C106 C 0.08703 0.96961 0.13717 0.0
C107 C 0.10297 0.05091 0.12042 0.0
C108 C 0.10821 0.07872 0.18387 0.0
C109 C 0.12276 0.1457 0.13636 0.0
C110 C 0.09074 0.17207 0.23083 0.0
C111 C 0.12493 0.04462 0.26613 0.0
N112 N 0.12394 0.15671 0.16717 0.0
N113 N 0.12461 0.0334 0.23534 0.0
H114 H 0.98774 0.94054 0.59563 0.0
H115 H 0.17679 0.3095 0.47183 0.0
H116 H 0.24447 0.25624 0.62186 0.0
H117 H 0.12556 0.99815 0.45241 0.0
H118 H 0.18027 0.29306 0.52655 0.0
H119 H 0.01358 0.95886 0.54189 0.0
C120 C 0.04983 0.01341 0.59003 0.0
C121 C 0.11426 0.09703 0.61304 0.0
C122 C 0.16954 0.22905 0.51026 0.0
C123 C 0.14222 0.11906 0.552 0.0
C124 C 0.16716 0.23814 0.47916 0.0
C125 C 0.15111 0.15508 0.45775 0.0
C126 C 0.15215 0.13503 0.51975 0.0
C127 C 0.13888 0.06414 0.46831 0.0
C128 C 0.06474 0.02355 0.55951 0.0
C129 C 0.19371 0.18985 0.6047 0.0
N130 N 0.13767 0.05566 0.4986 0.0
N131 N 0.20436 0.19919 0.57472 0.0
H132 H 0.95701 0.12226 0.79304 0.0
H133 H 0.125 0.93013 0.93214 0.0
H134 H 0.22262 0.08101 0.79159 0.0
H135 H 0.06802 0.18494 0.94876 0.0
H136 H 0.13301 0.95561 0.87814 0.0
H137 H 0.96817 0.11881 0.84853 0.0
C138 C 0.0179 0.11306 0.80448 0.0
C139 C 0.08923 0.10217 0.78791 0.0
C140 C 0.11934 0.0061 0.89373 0.0
C141 C 0.10034 0.09531 0.85068 0.0
C142 C 0.11417 0.99133 0.92436 0.0
C143 C 0.09591 0.05568 0.94476 0.0
C144 C 0.10269 0.08337 0.88335 0.0
C145 C 0.08279 0.13419 0.93368 0.0
C146 C 0.02437 0.11151 0.83599 0.0
C147 C 0.16673 0.09042 0.80368 0.0
N148 N 0.08475 0.14489 0.90351 0.0
N149 N 0.16919 0.08542 0.83419 0.0
loop_
_geom_bond_atom_site_label_1
_geom_bond_atom_site_label_2
_geom_bond_distance
_geom_bond_site_symmetry_2
_ccdc_geom_bond_type
C0 O2 1.248 . S
C0 O4 1.255 1_565 S
C1 O8 1.250 . S
C1 O9 1.253 1_545 S
O2 C0 1.248 . S
O2 Zn3 2.028 1_455 S
Zn3 O2 2.028 1_655 S
Zn3 O7 2.035 . S
Zn3 O9 2.035 . S
Zn3 O10 2.028 1_554 S
O4 C0 1.255 1_545 S
O4 Zn5 2.035 . S
Zn5 O4 2.035 . S
Zn5 O6 2.028 . S
Zn5 O8 2.028 1_455 S
Zn5 O11 2.035 1_554 S
O6 Zn5 2.028 . S
O6 C12 1.250 . S
O7 Zn3 2.035 . S
O7 C12 1.255 1_665 S
O8 C1 1.250 . S
O8 Zn5 2.028 1_655 S
O9 C1 1.253 1_565 S
O9 Zn3 2.035 . S
O10 Zn3 2.028 1_556 S
O10 C13 1.247 1_655 S
O11 Zn5 2.035 1_556 S
O11 C13 1.258 1_545 S
C12 O6 1.250 . S
C12 O7 1.255 1_445 S
C13 O10 1.247 1_455 S
C13 O11 1.258 1_565 S
C14 O16 1.247 1_455 S
C14 O18 1.258 . S
C15 O22 1.243 1_655 S
C15 O23 1.263 . S
O16 C14 1.247 1_655 S
O16 Zn17 2.028 . S
Zn17 O16 2.028 . S
Zn17 O21 2.035 1_655 S
Zn17 O23 2.035 . S
Zn17 O24 2.028 1_545 S
O18 C14 1.258 . S
O18 Zn19 2.035 . S
Zn19 O18 2.035 . S
Zn19 O20 2.028 . S
Zn19 O22 2.028 . S
Zn19 O25 2.035 1_445 S
O20 Zn19 2.028 . S
O20 C26 1.247 . S
O21 Zn17 2.035 1_455 S
O21 C26 1.258 . S
O22 C15 1.243 1_455 S
O22 Zn19 2.028 . S
O23 C15 1.263 . S
O23 Zn17 2.035 . S
O24 Zn17 2.028 1_565 S
O24 C27 1.247 . S
O25 Zn19 2.035 1_665 S
O25 C27 1.258 . S
C26 O20 1.247 . S
C26 O21 1.258 . S
C27 O24 1.247 . S
C27 O25 1.258 . S
C28 O30 1.247 . S
C28 O32 1.258 . S
C29 O36 1.247 . S
C29 O37 1.258 . S
O30 C28 1.247 . S
O30 Zn31 2.028 1_455 S
Zn31 O30 2.028 1_655 S
Zn31 O35 2.035 1_655 S
Zn31 O37 2.035 1_655 S
Zn31 O38 2.028 1_645 S
O32 C28 1.258 . S
O32 Zn33 2.035 . S
Zn33 O32 2.035 . S
Zn33 O34 2.028 . S
Zn33 O36 2.028 . S
Zn33 O39 2.043 . S
O34 Zn33 2.028 . S
O34 C40 1.247 . S
O35 Zn31 2.035 1_455 S
O35 C40 1.258 . S
O36 C29 1.247 . S
O36 Zn33 2.028 . S
O37 C29 1.258 . S
O37 Zn31 2.035 1_455 S
O38 Zn31 2.028 1_465 S
O38 C41 1.247 . S
O39 Zn33 2.043 . S
O39 C41 1.255 1_545 S
C40 O34 1.247 . S
C40 O35 1.258 . S
C41 O38 1.247 . S
C41 O39 1.255 1_565 S
H42 C48 0.930 . S
H43 C52 0.930 . S
H44 C57 0.929 . S
H45 C55 0.929 . S
H46 C50 0.929 . S
H47 C56 0.929 . S
C48 H42 0.930 . S
C48 C49 1.367 . S
C48 C56 1.378 . S
C49 C48 1.367 . S
C49 C57 1.433 1_565 S
C50 H46 0.929 . S
C50 C52 1.378 . S
C50 C54 1.350 . S
C51 C54 1.463 1_565 S
C51 C56 1.350 . S
C51 N59 1.427 1_565 S
C52 H43 0.930 . S
C52 C50 1.378 . S
C52 C53 1.367 . S
C53 C52 1.367 . S
C53 C55 1.433 1_545 S
C54 C50 1.350 . S
C54 C51 1.463 1_545 S
C54 N58 1.427 1_545 S
C55 H45 0.929 . S
C55 C53 1.433 1_565 S
C55 N58 1.384 . S
C56 H47 0.929 . S
C56 C48 1.378 . S
C56 C51 1.350 . S
C57 H44 0.929 . S
C57 C49 1.433 1_545 S
C57 N59 1.384 . S
N58 C54 1.427 1_565 S
N58 C55 1.384 . S
N59 C51 1.427 1_545 S
N59 C57 1.384 . S
H60 C66 0.930 . S
H61 C70 0.930 . S
H62 C75 0.929 . S
H63 C73 0.929 . S
H64 C68 0.929 . S
H65 C74 0.929 . S
C66 H60 0.930 . S
C66 C67 1.367 . S
C66 C74 1.378 . S
C67 C66 1.367 . S
C67 C75 1.433 . S
C68 H64 0.929 . S
C68 C70 1.378 . S
C68 C72 1.350 . S
C69 C72 1.463 . S
C69 C74 1.350 . S
C69 N77 1.427 . S
C70 H61 0.930 . S
C70 C68 1.378 . S
C70 C71 1.367 . S
C71 C70 1.367 . S
C71 C73 1.433 . S
C72 C68 1.350 . S
C72 C69 1.463 . S
C72 N76 1.427 . S
C73 H63 0.929 . S
C73 C71 1.433 . S
C73 N76 1.384 . S
C74 H65 0.929 . S
C74 C66 1.378 . S
C74 C69 1.350 . S
C75 H62 0.929 . S
C75 C67 1.433 . S
C75 N77 1.384 . S
N76 C72 1.427 . S
N76 C73 1.384 . S
N77 C69 1.427 . S
N77 C75 1.384 . S
H78 C84 0.930 . S
H79 C88 0.930 1_655 S
H80 C93 0.929 1_655 S
H81 C91 0.929 . S
H82 C86 0.929 1_655 S
H83 C92 0.929 . S
C84 H78 0.930 . S
C84 C85 1.367 . S
C84 C92 1.378 . S
C85 C84 1.367 . S
C85 C93 1.433 . S
C86 H82 0.929 1_455 S
C86 C88 1.378 . S
C86 C90 1.350 . S
C87 C90 1.463 . S
C87 C92 1.350 . S
C87 N95 1.427 . S
C88 H79 0.930 1_455 S
C88 C86 1.378 . S
C88 C89 1.367 . S
C89 C88 1.367 . S
C89 C91 1.433 . S
C90 C86 1.350 . S
C90 C87 1.463 . S
C90 N94 1.427 . S
C91 H81 0.929 . S
C91 C89 1.433 . S
C91 N94 1.384 . S
C92 H83 0.929 . S
C92 C84 1.378 . S
C92 C87 1.350 . S
C93 H80 0.929 1_455 S
C93 C85 1.433 . S
C93 N95 1.384 . S
N94 C90 1.427 . S
N94 C91 1.384 . S
N95 C87 1.427 . S
N95 C93 1.384 . S
H96 C102 0.930 . S
H97 C106 0.930 . S
H98 C111 0.929 . S
H99 C109 0.929 . S
H100 C104 0.929 . S
H101 C110 0.929 . S
C102 H96 0.930 . S
C102 C103 1.367 . S
C102 C110 1.378 . S
C103 C102 1.367 . S
C103 C111 1.433 1_445 S
C104 H100 0.929 . S
C104 C106 1.378 . S
C104 C108 1.350 1_565 S
C105 C108 1.463 1_455 S
C105 C110 1.350 . S
C105 N113 1.427 1_445 S
C106 H97 0.930 . S
C106 C104 1.378 . S
C106 C107 1.370 1_565 S
C107 C106 1.370 1_545 S
C107 C109 1.432 1_655 S
C108 C104 1.350 1_545 S
C108 C105 1.463 1_655 S
C108 N112 1.427 1_655 S
C109 H99 0.929 . S
C109 C107 1.432 1_455 S
C109 N112 1.384 . S
C110 H101 0.929 . S
C110 C102 1.378 . S
C110 C105 1.350 . S
C111 H98 0.929 . S
C111 C103 1.433 1_665 S
C111 N113 1.384 . S
N112 C108 1.427 1_455 S
N112 C109 1.384 . S
N113 C105 1.427 1_665 S
N113 C111 1.384 . S
H114 C120 0.930 1_665 S
H115 C124 0.930 . S
H116 C129 0.929 . S
H117 C127 0.929 1_565 S
H118 C122 0.929 . S
H119 C128 0.929 1_565 S
C120 H114 0.930 1_445 S
C120 C121 1.367 . S
C120 C128 1.378 1_455 S
C121 C120 1.367 . S
C121 C129 1.433 . S
C122 H118 0.929 . S
C122 C124 1.378 . S
C122 C126 1.350 . S
C123 C126 1.463 . S
C123 C128 1.350 1_455 S
C123 N131 1.427 . S
C124 H115 0.930 . S
C124 C122 1.378 . S
C124 C125 1.367 . S
C125 C124 1.367 . S
C125 C127 1.433 1_455 S
C126 C122 1.350 . S
C126 C123 1.463 . S
C126 N130 1.427 1_455 S
C127 H117 0.929 1_545 S
C127 C125 1.433 1_655 S
C127 N130 1.384 . S
C128 H119 0.929 1_545 S
C128 C120 1.378 1_655 S
C128 C123 1.350 1_655 S
C129 H116 0.929 . S
C129 C121 1.433 . S
C129 N131 1.384 . S
N130 C126 1.427 1_655 S
N130 C127 1.384 . S
N131 C123 1.427 . S
N131 C129 1.384 . S
H132 C138 0.930 . S
H133 C142 0.930 . S
H134 C147 0.929 1_565 S
H135 C145 0.929 . S
H136 C140 0.929 . S
H137 C146 0.929 . S
C138 H132 0.930 . S
C138 C139 1.367 . S
C138 C146 1.378 . S
C139 C138 1.367 . S
C139 C147 1.433 . S
C140 H136 0.929 . S
C140 C142 1.378 . S
C140 C144 1.350 1_565 S
C141 C144 1.463 . S
C141 C146 1.350 . S
C141 N149 1.427 1_545 S
C142 H133 0.930 . S
C142 C140 1.378 . S
C142 C143 1.367 1_565 S
C143 C142 1.367 1_545 S
C143 C145 1.433 1_455 S
C144 C140 1.350 1_545 S
C144 C141 1.463 . S
C144 N148 1.427 . S
C145 H135 0.929 . S
C145 C143 1.433 1_655 S
C145 N148 1.384 1_655 S
C146 H137 0.929 . S
C146 C138 1.378 . S
C146 C141 1.350 . S
C147 H134 0.929 1_545 S
C147 C139 1.433 . S
C147 N149 1.384 1_545 S
N148 C144 1.427 . S
N148 C145 1.384 1_455 S
N149 C141 1.427 1_565 S
N149 C147 1.384 1_565 S
C49 C1 1.501 1_565 S
C53 C0 1.500 1_545 S
C67 C27 1.498 . S
C71 C26 1.498 . S
C85 C41 1.498 . S
C89 C40 1.498 . S
C103 C15 1.525 1_455 S
C107 C12 1.525 1_655 S
C121 C29 1.524 . S
C125 C14 1.522 . S
C139 C28 1.524 . S
C143 C13 1.528 1_545 S
