# Generated by pormake.
# Topology zft, (5)-cn, num edge types: 1
# Building blocks:
#     Node 0, Type 0, BuildingBlock: XOMCOT_clean_sbu_1, # of connection points: 5
#     Node 1, Type 0, BuildingBlock: XOMCOT_clean_sbu_1, # of connection points: 5
#     Node 2, Type 0, BuildingBlock: XOMCOT_clean_sbu_1, # of connection points: 5
#     Node 3, Type 0, BuildingBlock: XOMCOT_clean_sbu_1, # of connection points: 5
#     Node 4, Type 0, BuildingBlock: XOMCOT_clean_sbu_1, # of connection points: 5
#     Node 5, Type 0, BuildingBlock: XOMCOT_clean_sbu_1, # of connection points: 5
#     Node 6, Type 0, BuildingBlock: XOMCOT_clean_sbu_1, # of connection points: 5
#     Node 7, Type 0, BuildingBlock: XOMCOT_clean_sbu_1, # of connection points: 5
#     Edge 8, Type (0, 0), None
#     Edge 9, Type (0, 0), None
#     Edge 10, Type (0, 0), None
#     Edge 11, Type (0, 0), None
#     Edge 12, Type (0, 0), None
#     Edge 13, Type (0, 0), None
#     Edge 14, Type (0, 0), None
#     Edge 15, Type (0, 0), None
#     Edge 16, Type (0, 0), None
#     Edge 17, Type (0, 0), None
#     Edge 18, Type (0, 0), None
#     Edge 19, Type (0, 0), None
#     Edge 20, Type (0, 0), None
#     Edge 21, Type (0, 0), None
#     Edge 22, Type (0, 0), None
#     Edge 23, Type (0, 0), None
#     Edge 24, Type (0, 0), None
#     Edge 25, Type (0, 0), None
#     Edge 26, Type (0, 0), None
#     Edge 27, Type (0, 0), None
# Relax obj value: 0.067
# Max RMSD: 0.097
# Mean RMSD: 0.097
data_MOF--net-zft--node1-XOMCOT_clean_sbu_1--edge1-none
_symmetry_space_group_name_H-M    P1
_symmetry_Int_Tables_number       1
_symmetry_cell_setting            triclinic
loop_
_symmetry_equiv_pos_as_xyz
'x, y, z'
_cell_length_a     15.48316
_cell_length_b     15.484889
_cell_length_c     21.333288
_cell_angle_alpha  90.000159
_cell_angle_beta   89.999927
_cell_angle_gamma 89.998205
loop_
_atom_site_label
_atom_site_type_symbol
_atom_site_fract_x
_atom_site_fract_y
_atom_site_fract_z
_atom_type_partial_charge
C0 C 1.00494 0.25441 0.36361 0.0
C1 C 0.93429 0.20157 0.37294 0.0
N2 N 0.89543 0.18977 0.31715 0.0
N3 N 1.01019 0.27565 0.30233 0.0
C4 C 0.94214 0.23537 0.27534 0.0
H5 H 0.05197 0.27208 0.39876 0.0
Co6 Co 0.10177 0.33113 0.2617 0.0
C7 C 0.0179 0.41508 0.14791 0.0
O8 O 0.08112 0.46789 0.13365 0.0
N9 N 0.19634 0.38652 0.22032 0.0
C10 C 0.30767 0.4126 0.15659 0.0
C11 C 0.25239 0.35083 0.1789 0.0
C12 C 0.22093 0.47073 0.22269 0.0
N13 N 0.28764 0.48805 0.18388 0.0
O14 O 0.07663 0.43485 0.30699 0.0
H15 H 0.25262 0.28463 0.16327 0.0
H16 H 0.18709 0.52011 0.24875 0.0
O17 O 0.02303 0.36461 0.19508 0.0
C18 C 0.1208 0.4418 0.35716 0.0
O19 O 0.17744 0.38147 0.37078 0.0
N20 N 0.12805 0.2267 0.22273 0.0
C21 C 0.18579 0.06837 0.17872 0.0
C22 C 0.12175 0.11365 0.14607 0.0
C23 C 0.09403 0.19377 0.1686 0.0
C24 C 0.18786 0.18156 0.25613 0.0
C25 C 0.21891 0.10278 0.2343 0.0
H26 H 0.04594 0.22875 0.14226 0.0
H27 H 0.21307 0.20843 0.29922 0.0
H28 H 0.93026 0.23494 0.22545 0.0
H29 H 0.91577 0.17116 0.41656 0.0
H30 H 0.35705 0.40333 0.12127 0.0
H31 H 0.09537 0.0883 0.1028 0.0
H32 H 0.26803 0.06863 0.26059 0.0
C33 C 0.27492 0.50487 0.61361 0.0
C34 C 0.32776 0.43423 0.62294 0.0
N35 N 0.33957 0.39537 0.56715 0.0
N36 N 0.2537 0.51014 0.55233 0.0
C37 C 0.29398 0.44209 0.52533 0.0
H38 H 0.25725 0.55189 0.64876 0.0
Co39 Co 0.19822 0.60172 0.51169 0.0
C40 C 0.11423 0.51785 0.39791 0.0
O41 O 0.0614 0.58105 0.38367 0.0
N42 N 0.14284 0.69628 0.47031 0.0
C43 C 0.11678 0.80762 0.40659 0.0
C44 C 0.17854 0.75232 0.4289 0.0
C45 C 0.05863 0.72089 0.47268 0.0
N46 N 0.04131 0.78759 0.43387 0.0
O47 O 0.09448 0.57659 0.55698 0.0
H48 H 0.24475 0.75254 0.41327 0.0
H49 H 1.00923 0.68706 0.49874 0.0
O50 O 0.16473 0.52299 0.44508 0.0
C51 C 0.08754 0.62074 0.60716 0.0
O52 O 0.14788 0.67736 0.62079 0.0
N53 N 0.30267 0.62798 0.47273 0.0
C54 C 0.461 0.68574 0.42871 0.0
C55 C 0.41571 0.62171 0.39606 0.0
C56 C 0.33559 0.59398 0.4186 0.0
C57 C 0.34781 0.68777 0.50614 0.0
C58 C 0.42659 0.71883 0.4843 0.0
H59 H 0.30061 0.5459 0.39225 0.0
H60 H 0.32094 0.71297 0.54924 0.0
H61 H 0.29442 0.43022 0.47545 0.0
H62 H 0.35816 0.41569 0.66657 0.0
H63 H 0.12606 0.85699 0.37128 0.0
H64 H 0.44106 0.59534 0.35279 0.0
H65 H 0.46074 0.76794 0.5106 0.0
C66 C 0.02444 0.77485 0.86361 0.0
C67 C 0.09508 0.82769 0.87294 0.0
N68 N 0.13395 0.83949 0.81715 0.0
N69 N 0.01918 0.75362 0.80233 0.0
C70 C 0.08723 0.7939 0.77534 0.0
H71 H 0.97741 0.75718 0.89876 0.0
Co72 Co 0.9276 0.69813 0.7617 0.0
C73 C 1.01147 0.61418 0.64791 0.0
O74 O 0.94824 0.5614 0.63364 0.0
N75 N 0.83304 0.64274 0.72032 0.0
C76 C 0.72169 0.61666 0.6566 0.0
C77 C 0.77698 0.67843 0.67891 0.0
C78 C 0.80845 0.55853 0.72268 0.0
N79 N 0.74174 0.54121 0.68388 0.0
O80 O 0.95275 0.59441 0.80699 0.0
H81 H 0.77674 0.74464 0.66328 0.0
H82 H 0.8423 0.50914 0.74874 0.0
O83 O 1.00635 0.66464 0.69508 0.0
C84 C 0.90858 0.58747 0.85717 0.0
O85 O 0.85194 0.64779 0.87078 0.0
N86 N 0.90133 0.80256 0.72273 0.0
C87 C 0.84358 0.96089 0.67871 0.0
C88 C 0.90762 0.9156 0.64606 0.0
C89 C 0.93534 0.83548 0.66859 0.0
C90 C 0.84152 0.8477 0.75613 0.0
C91 C 0.81047 0.92648 0.7343 0.0
H92 H 0.98342 0.8005 0.64225 0.0
H93 H 0.81631 0.82084 0.79923 0.0
H94 H 0.09911 0.79433 0.72545 0.0
H95 H 0.11361 0.8581 0.91656 0.0
H96 H 0.67231 0.62593 0.62128 0.0
H97 H 0.934 0.94095 0.6028 0.0
H98 H 0.76135 0.96063 0.76059 0.0
C99 C 0.75445 0.52439 0.11361 0.0
C100 C 0.70162 0.59504 0.12294 0.0
N101 N 0.68981 0.63389 0.06715 0.0
N102 N 0.77568 0.51912 0.05233 0.0
C103 C 0.73539 0.58717 1.02534 0.0
H104 H 0.77213 0.47737 0.14876 0.0
Co105 Co 0.83116 0.42755 1.01169 0.0
C106 C 0.91514 0.51141 0.89792 0.0
O107 O 0.96797 0.44821 0.88367 0.0
N108 N 0.88654 0.33298 0.97031 0.0
C109 C 0.9126 0.22165 0.90659 0.0
C110 C 0.85083 0.27694 0.9289 0.0
C111 C 0.97075 0.30837 0.97268 0.0
N112 N 0.98807 0.24167 0.93387 0.0
O113 O 0.93489 0.45267 0.05698 0.0
H114 H 0.78462 0.27672 0.91327 0.0
H115 H 0.02015 0.34221 0.99874 0.0
O116 O 0.86464 0.50627 0.94508 0.0
C117 C 0.94184 0.40852 0.10716 0.0
O118 O 0.8815 0.3519 0.12079 0.0
N119 N 0.72671 0.40129 0.97273 0.0
C120 C 0.56838 0.34353 0.92871 0.0
C121 C 0.61366 0.40755 0.89606 0.0
C122 C 0.69378 0.43528 0.9186 0.0
C123 C 0.68156 0.34149 1.00614 0.0
C124 C 0.60278 0.31043 0.9843 0.0
H125 H 0.72876 0.48336 0.89225 0.0
H126 H 0.70843 0.31629 1.04924 0.0
H127 H 0.73496 0.59904 0.97545 0.0
H128 H 0.67121 0.61358 0.16657 0.0
H129 H 0.90332 0.17227 0.87127 0.0
H130 H 0.58831 0.43392 0.85279 0.0
H131 H 0.56863 0.26132 1.0106 0.0
C132 C 0.48642 0.24165 0.50168 0.0
C133 C 0.41537 0.29483 0.49634 0.0
N134 N 0.39915 0.32892 0.5532 0.0
N135 N 0.51452 0.24237 0.56157 0.0
C136 C 0.45958 0.29595 0.59195 0.0
H137 H 0.51753 0.20759 0.46367 0.0
Co138 Co 0.61479 0.19126 0.59361 0.0
C139 C 0.5413 0.12263 0.72014 0.0
O140 O 0.60873 0.08697 0.74689 0.0
N141 N 0.71527 0.14051 0.62396 0.0
C142 C 0.85478 0.11057 0.63696 0.0
C143 C 0.79619 0.17208 0.61768 0.0
C144 C 0.72625 0.05957 0.64581 0.0
N145 N 0.81006 0.04049 0.65495 0.0
O146 O 0.58572 0.0841 0.55403 0.0
H147 H 0.81173 0.23468 0.59825 0.0
H148 H 0.67422 1.01364 0.65188 0.0
O149 O 0.54717 0.15938 0.66677 0.0
C150 C 0.62746 0.07071 0.50351 0.0
O151 O 0.67904 0.13137 0.48221 0.0
N152 N 0.64723 0.29692 0.62897 0.0
C153 C 0.70893 0.45787 0.66605 0.0
C154 C 0.69565 0.39237 0.71048 0.0
C155 C 0.66409 0.31185 0.6909 0.0
C156 C 0.66196 0.35929 0.58529 0.0
C157 C 0.69143 0.44053 0.60289 0.0
H158 H 0.65576 0.26111 0.72505 0.0
H159 H 0.65156 0.34535 0.53618 0.0
H160 H 0.46683 0.31384 0.64068 0.0
H161 H 0.3808 0.3096 0.4536 0.0
H162 H 0.92445 0.11639 0.63733 0.0
H163 H 0.70943 0.40346 0.75958 0.0
H164 H 0.7029 0.4887 0.56706 0.0
C165 C 0.28768 0.98633 0.75168 0.0
C166 C 0.2345 0.91528 0.74634 0.0
N167 N 0.2004 0.89907 0.8032 0.0
N168 N 0.28694 1.01444 0.81157 0.0
C169 C 0.23336 0.95951 0.84195 0.0
H170 H 0.32174 0.01743 0.71367 0.0
Co171 Co 0.33804 0.1147 0.8436 0.0
C172 C 0.40669 0.04123 0.97014 0.0
O173 O 0.44237 0.10864 0.99688 0.0
N174 N 0.38878 0.21519 0.87395 0.0
C175 C 0.41868 0.35468 0.88694 0.0
C176 C 0.35719 0.29609 0.86766 0.0
C177 C 0.46972 0.22618 0.89581 0.0
N178 N 0.48878 0.30998 0.90494 0.0
O179 O 0.44522 0.08565 0.80403 0.0
H180 H 0.29458 0.31161 0.84822 0.0
H181 H 0.51567 0.17417 0.90189 0.0
O182 O 0.36993 0.0471 0.91677 0.0
C183 C 0.45861 0.12739 0.75351 0.0
O184 O 0.39793 0.17895 0.73221 0.0
N185 N 0.23237 0.14713 0.87896 0.0
C186 C 0.0714 0.20885 0.91604 0.0
C187 C 0.13692 0.19557 0.96047 0.0
C188 C 0.21744 0.164 0.94089 0.0
C189 C 0.16998 0.16185 0.83528 0.0
C190 C 0.08874 0.19133 0.85288 0.0
H191 H 0.26819 0.15569 0.97504 0.0
H192 H 0.18392 0.15144 0.78617 0.0
H193 H 0.21546 0.96676 0.89068 0.0
H194 H 0.21973 0.88071 0.70361 0.0
H195 H 0.41284 0.42435 0.8873 0.0
H196 H 0.12582 0.20936 1.00957 0.0
H197 H 0.04056 0.2028 0.81706 0.0
C198 C 0.54295 0.78761 1.00168 0.0
C199 C 0.61401 0.73444 0.99634 0.0
N200 N 0.63023 0.70035 0.0532 0.0
N201 N 0.51485 0.78689 0.06157 0.0
C202 C 0.56979 0.73331 0.09195 0.0
H203 H 0.51185 0.82168 0.96367 0.0
Co204 Co 0.41459 0.838 0.09361 0.0
C205 C 0.48808 0.90663 0.22014 0.0
O206 O 0.42065 0.94229 0.24689 0.0
N207 N 0.3141 0.88875 0.12396 0.0
C208 C 0.1746 0.91868 0.13696 0.0
C209 C 0.23319 0.85718 0.11769 0.0
C210 C 0.30312 0.96969 0.14582 0.0
N211 N 0.21932 0.98877 0.15495 0.0
O212 O 0.44365 0.94516 0.05403 0.0
H213 H 0.21765 0.79458 0.09825 0.0
H214 H 0.35516 0.01562 0.15188 0.0
O215 O 0.48221 0.86988 0.16677 0.0
C216 C 0.40191 0.95855 1.00351 0.0
O217 O 0.35033 0.89789 0.98221 0.0
N218 N 0.38215 0.73234 0.12896 0.0
C219 C 0.32044 0.57139 0.16605 0.0
C220 C 0.33373 0.63689 0.21047 0.0
C221 C 0.36529 0.71741 0.1909 0.0
C222 C 0.36742 0.66997 0.08529 0.0
C223 C 0.33794 0.58873 0.10289 0.0
H224 H 0.37362 0.76815 0.22505 0.0
H225 H 0.37781 0.68391 1.03618 0.0
H226 H 0.56254 0.71542 0.14068 0.0
H227 H 0.64858 0.71966 0.9536 0.0
H228 H 0.10492 0.91286 0.13733 0.0
H229 H 0.31995 0.62579 0.25958 0.0
H230 H 0.32647 0.54056 0.06706 0.0
C231 C 0.7417 0.04293 0.25168 0.0
C232 C 0.79487 0.11398 0.24634 0.0
N233 N 0.82897 0.1302 0.3032 0.0
N234 N 0.74244 0.01483 0.31157 0.0
C235 C 0.79602 0.06976 0.34195 0.0
H236 H 0.70763 1.01183 0.21367 0.0
Co237 Co 0.69133 0.91456 0.3436 0.0
C238 C 0.62268 0.98804 0.47014 0.0
O239 O 0.58703 0.92061 0.49689 0.0
N240 N 0.6406 0.81407 0.37395 0.0
C241 C 0.61069 0.67458 0.38694 0.0
C242 C 0.67218 0.73318 0.36766 0.0
C243 C 0.55965 0.80308 0.39581 0.0
N244 N 0.54059 0.71928 0.40494 0.0
O245 O 0.58416 0.94361 0.30403 0.0
H246 H 0.73479 0.71765 0.34821 0.0
H247 H 0.51371 0.8551 0.40189 0.0
O248 O 0.65944 0.98216 0.41677 0.0
C249 C 0.57077 0.90187 0.25351 0.0
O250 O 0.63145 0.85031 0.23221 0.0
N251 N 0.79701 0.88213 0.37896 0.0
C252 C 0.95797 0.82041 0.41605 0.0
C253 C 0.89246 0.83369 0.46047 0.0
C254 C 0.81194 0.86526 0.44089 0.0
C255 C 0.85939 0.86741 0.33529 0.0
C256 C 0.94064 0.83793 0.35288 0.0
H257 H 0.76118 0.87358 0.47504 0.0
H258 H 0.84545 0.87782 0.28618 0.0
H259 H 0.81391 0.0625 0.39068 0.0
H260 H 0.80964 0.14855 0.20361 0.0
H261 H 0.61653 0.60491 0.38729 0.0
H262 H 0.90355 0.8199 0.50957 0.0
H263 H 0.98881 0.82646 0.31706 0.0
loop_
_geom_bond_atom_site_label_1
_geom_bond_atom_site_label_2
_geom_bond_distance
_geom_bond_site_symmetry_2
_ccdc_geom_bond_type
C0 C1 1.351 . S
C0 N3 1.368 . S
C0 H5 0.931 1_655 S
C1 C0 1.351 . S
C1 N2 1.373 . S
C1 H29 0.930 . S
N2 C1 1.373 . S
N2 C4 1.340 . S
N3 C0 1.368 . S
N3 C4 1.321 . S
N3 Co6 2.135 1_655 S
C4 N2 1.340 . S
C4 N3 1.321 . S
C4 H28 0.930 . S
H5 C0 0.931 1_455 S
Co6 N3 2.135 1_455 S
Co6 N9 2.121 . S
Co6 O14 2.055 . S
Co6 O17 2.039 1_455 S
Co6 N20 2.140 . S
C7 O8 1.227 . S
C7 O17 1.265 . S
O8 C7 1.227 . S
N9 Co6 2.121 . S
N9 C11 1.375 . S
N9 C12 1.313 . S
C10 C11 1.338 . S
C10 N13 1.377 . S
C10 H30 0.930 . S
C11 N9 1.375 . S
C11 C10 1.338 . S
C11 H15 0.931 . S
C12 N9 1.313 . S
C12 N13 1.344 . S
C12 H16 0.930 . S
N13 C10 1.377 . S
N13 C12 1.344 . S
O14 Co6 2.055 . S
O14 C18 1.253 . S
H15 C11 0.931 . S
H16 C12 0.930 . S
O17 Co6 2.039 1_655 S
O17 C7 1.265 . S
C18 O14 1.253 . S
C18 O19 1.227 . S
O19 C18 1.227 . S
N20 Co6 2.140 . S
N20 C23 1.346 . S
N20 C24 1.345 . S
C21 C22 1.387 . S
C21 C25 1.391 . S
C22 C21 1.387 . S
C22 C23 1.369 . S
C22 H31 0.929 . S
C23 N20 1.346 . S
C23 C22 1.369 . S
C23 H26 0.928 . S
C24 N20 1.345 . S
C24 C25 1.371 . S
C24 H27 0.931 . S
C25 C21 1.391 . S
C25 C24 1.371 . S
C25 H32 0.930 . S
H26 C23 0.928 . S
H27 C24 0.931 . S
H28 C4 0.930 . S
H29 C1 0.930 . S
H30 C10 0.930 . S
H31 C22 0.929 . S
H32 C25 0.930 . S
C33 C34 1.351 . S
C33 N36 1.368 . S
C33 H38 0.931 . S
C34 C33 1.351 . S
C34 N35 1.373 . S
C34 H62 0.930 . S
N35 C34 1.373 . S
N35 C37 1.340 . S
N36 C33 1.368 . S
N36 C37 1.321 . S
N36 Co39 2.135 . S
C37 N35 1.340 . S
C37 N36 1.321 . S
C37 H61 0.930 . S
H38 C33 0.931 . S
Co39 N36 2.135 . S
Co39 N42 2.121 . S
Co39 O47 2.055 . S
Co39 O50 2.039 . S
Co39 N53 2.140 . S
C40 O41 1.227 . S
C40 O50 1.265 . S
O41 C40 1.227 . S
N42 Co39 2.121 . S
N42 C44 1.375 . S
N42 C45 1.313 1_455 S
C43 C44 1.338 1_655 S
C43 N46 1.377 . S
C43 H63 0.930 . S
C44 N42 1.375 . S
C44 C43 1.338 1_455 S
C44 H48 0.931 . S
C45 N42 1.313 1_655 S
C45 N46 1.344 . S
C45 H49 0.930 . S
N46 C43 1.377 . S
N46 C45 1.344 . S
O47 Co39 2.055 . S
O47 C51 1.253 . S
H48 C44 0.931 . S
H49 C45 0.930 . S
O50 Co39 2.039 . S
O50 C40 1.265 . S
C51 O47 1.253 . S
C51 O52 1.227 . S
O52 C51 1.227 . S
N53 Co39 2.140 . S
N53 C56 1.346 . S
N53 C57 1.345 . S
C54 C55 1.387 . S
C54 C58 1.391 . S
C55 C54 1.387 . S
C55 C56 1.369 . S
C55 H64 0.929 . S
C56 N53 1.346 . S
C56 C55 1.369 . S
C56 H59 0.928 . S
C57 N53 1.345 . S
C57 C58 1.371 . S
C57 H60 0.931 . S
C58 C54 1.391 . S
C58 C57 1.371 . S
C58 H65 0.930 . S
H59 C56 0.928 . S
H60 C57 0.931 . S
H61 C37 0.930 . S
H62 C34 0.930 . S
H63 C43 0.930 . S
H64 C55 0.929 . S
H65 C58 0.930 . S
C66 C67 1.351 . S
C66 N69 1.368 . S
C66 H71 0.931 1_455 S
C67 C66 1.351 . S
C67 N68 1.373 . S
C67 H95 0.930 . S
N68 C67 1.373 . S
N68 C70 1.340 . S
N69 C66 1.368 . S
N69 C70 1.321 . S
N69 Co72 2.135 1_455 S
C70 N68 1.340 . S
C70 N69 1.321 . S
C70 H94 0.930 . S
H71 C66 0.931 1_655 S
Co72 N69 2.135 1_655 S
Co72 N75 2.121 . S
Co72 O80 2.055 . S
Co72 O83 2.039 1_655 S
Co72 N86 2.140 . S
C73 O74 1.227 . S
C73 O83 1.265 . S
O74 C73 1.227 . S
N75 Co72 2.121 . S
N75 C77 1.375 . S
N75 C78 1.313 . S
C76 C77 1.338 . S
C76 N79 1.377 . S
C76 H96 0.930 . S
C77 N75 1.375 . S
C77 C76 1.338 . S
C77 H81 0.931 . S
C78 N75 1.313 . S
C78 N79 1.344 . S
C78 H82 0.930 . S
N79 C76 1.377 . S
N79 C78 1.344 . S
O80 Co72 2.055 . S
O80 C84 1.253 . S
H81 C77 0.931 . S
H82 C78 0.930 . S
O83 Co72 2.039 1_455 S
O83 C73 1.265 . S
C84 O80 1.253 . S
C84 O85 1.227 . S
O85 C84 1.227 . S
N86 Co72 2.140 . S
N86 C89 1.346 . S
N86 C90 1.345 . S
C87 C88 1.387 . S
C87 C91 1.391 . S
C88 C87 1.387 . S
C88 C89 1.369 . S
C88 H97 0.929 . S
C89 N86 1.346 . S
C89 C88 1.369 . S
C89 H92 0.928 . S
C90 N86 1.345 . S
C90 C91 1.371 . S
C90 H93 0.931 . S
C91 C87 1.391 . S
C91 C90 1.371 . S
C91 H98 0.930 . S
H92 C89 0.928 . S
H93 C90 0.931 . S
H94 C70 0.930 . S
H95 C67 0.930 . S
H96 C76 0.930 . S
H97 C88 0.929 . S
H98 C91 0.930 . S
C99 C100 1.351 . S
C99 N102 1.368 1_554 S
C99 H104 0.931 . S
C100 C99 1.351 . S
C100 N101 1.374 . S
C100 H128 0.930 . S
N101 C100 1.374 . S
N101 C103 1.339 1_554 S
N102 C99 1.368 1_556 S
N102 C103 1.321 . S
N102 Co105 2.135 . S
C103 N101 1.339 1_556 S
C103 N102 1.321 . S
C103 H127 0.930 . S
H104 C99 0.931 . S
Co105 N102 2.135 . S
Co105 N108 2.121 . S
Co105 O113 2.055 1_556 S
Co105 O116 2.039 . S
Co105 N119 2.140 . S
C106 O107 1.227 . S
C106 O116 1.265 . S
O107 C106 1.227 . S
N108 Co105 2.121 . S
N108 C110 1.375 . S
N108 C111 1.313 1_655 S
C109 C110 1.338 1_455 S
C109 N112 1.377 . S
C109 H129 0.930 . S
C110 N108 1.375 . S
C110 C109 1.338 1_655 S
C110 H114 0.931 . S
C111 N108 1.313 1_455 S
C111 N112 1.344 . S
C111 H115 0.930 . S
N112 C109 1.377 . S
N112 C111 1.344 . S
O113 Co105 2.055 1_554 S
O113 C117 1.253 . S
H114 C110 0.931 . S
H115 C111 0.930 . S
O116 Co105 2.039 . S
O116 C106 1.265 . S
C117 O113 1.253 . S
C117 O118 1.227 . S
O118 C117 1.227 . S
N119 Co105 2.140 . S
N119 C122 1.346 . S
N119 C123 1.345 . S
C120 C121 1.387 . S
C120 C124 1.391 . S
C121 C120 1.387 . S
C121 C122 1.369 . S
C121 H130 0.929 . S
C122 N119 1.346 . S
C122 C121 1.369 . S
C122 H125 0.928 . S
C123 N119 1.345 . S
C123 C124 1.371 . S
C123 H126 0.931 . S
C124 C120 1.391 . S
C124 C123 1.371 . S
C124 H131 0.930 . S
H125 C122 0.928 . S
H126 C123 0.931 . S
H127 C103 0.930 . S
H128 C100 0.930 . S
H129 C109 0.930 . S
H130 C121 0.929 . S
H131 C124 0.930 . S
C132 C133 1.351 . S
C132 N135 1.368 . S
C132 H137 0.931 . S
C133 C132 1.351 . S
C133 N134 1.373 . S
C133 H161 0.930 . S
N134 C133 1.373 . S
N134 C136 1.340 . S
N135 C132 1.368 . S
N135 C136 1.321 . S
N135 Co138 2.135 . S
C136 N134 1.340 . S
C136 N135 1.321 . S
C136 H160 0.930 . S
H137 C132 0.931 . S
Co138 N135 2.135 . S
Co138 N141 2.121 . S
Co138 O146 2.055 . S
Co138 O149 2.039 . S
Co138 N152 2.140 . S
C139 O140 1.227 . S
C139 O149 1.265 . S
O140 C139 1.227 . S
N141 Co138 2.121 . S
N141 C143 1.375 . S
N141 C144 1.313 1_545 S
C142 C143 1.338 1_565 S
C142 N145 1.377 . S
C142 H162 0.930 . S
C143 N141 1.375 . S
C143 C142 1.338 1_545 S
C143 H147 0.931 . S
C144 N141 1.313 1_565 S
C144 N145 1.344 . S
C144 H148 0.930 . S
N145 C142 1.377 . S
N145 C144 1.344 . S
O146 Co138 2.055 . S
O146 C150 1.253 . S
H147 C143 0.931 . S
H148 C144 0.930 . S
O149 Co138 2.039 . S
O149 C139 1.265 . S
C150 O146 1.253 . S
C150 O151 1.227 . S
O151 C150 1.227 . S
N152 Co138 2.140 . S
N152 C155 1.346 . S
N152 C156 1.345 . S
C153 C154 1.387 . S
C153 C157 1.391 . S
C154 C153 1.387 . S
C154 C155 1.369 . S
C154 H163 0.929 . S
C155 N152 1.346 . S
C155 C154 1.369 . S
C155 H158 0.928 . S
C156 N152 1.345 . S
C156 C157 1.371 . S
C156 H159 0.931 . S
C157 C153 1.391 . S
C157 C156 1.371 . S
C157 H164 0.930 . S
H158 C155 0.928 . S
H159 C156 0.931 . S
H160 C136 0.930 . S
H161 C133 0.930 . S
H162 C142 0.930 . S
H163 C154 0.929 . S
H164 C157 0.930 . S
C165 C166 1.351 . S
C165 N168 1.368 . S
C165 H170 0.931 1_565 S
C166 C165 1.351 . S
C166 N167 1.373 . S
C166 H194 0.930 . S
N167 C166 1.373 . S
N167 C169 1.340 . S
N168 C165 1.368 . S
N168 C169 1.321 . S
N168 Co171 2.135 1_565 S
C169 N167 1.340 . S
C169 N168 1.321 . S
C169 H193 0.930 . S
H170 C165 0.931 1_545 S
Co171 N168 2.135 1_545 S
Co171 N174 2.121 . S
Co171 O179 2.055 . S
Co171 O182 2.039 1_545 S
Co171 N185 2.140 . S
C172 O173 1.227 . S
C172 O182 1.265 . S
O173 C172 1.227 . S
N174 Co171 2.121 . S
N174 C176 1.375 . S
N174 C177 1.313 . S
C175 C176 1.338 . S
C175 N178 1.377 . S
C175 H195 0.930 . S
C176 N174 1.375 . S
C176 C175 1.338 . S
C176 H180 0.931 . S
C177 N174 1.313 . S
C177 N178 1.344 . S
C177 H181 0.930 . S
N178 C175 1.377 . S
N178 C177 1.344 . S
O179 Co171 2.055 . S
O179 C183 1.253 . S
H180 C176 0.931 . S
H181 C177 0.930 . S
O182 Co171 2.039 1_565 S
O182 C172 1.265 . S
C183 O179 1.253 . S
C183 O184 1.227 . S
O184 C183 1.227 . S
N185 Co171 2.140 . S
N185 C188 1.346 . S
N185 C189 1.345 . S
C186 C187 1.387 . S
C186 C190 1.391 . S
C187 C186 1.387 . S
C187 C188 1.369 . S
C187 H196 0.929 . S
C188 N185 1.346 . S
C188 C187 1.369 . S
C188 H191 0.928 . S
C189 N185 1.345 . S
C189 C190 1.371 . S
C189 H192 0.931 . S
C190 C186 1.391 . S
C190 C189 1.371 . S
C190 H197 0.930 . S
H191 C188 0.928 . S
H192 C189 0.931 . S
H193 C169 0.930 . S
H194 C166 0.930 . S
H195 C175 0.930 . S
H196 C187 0.929 . S
H197 C190 0.930 . S
C198 C199 1.351 . S
C198 N201 1.368 1_556 S
C198 H203 0.931 . S
C199 C198 1.351 . S
C199 N200 1.374 . S
C199 H227 0.930 . S
N200 C199 1.374 . S
N200 C202 1.339 1_556 S
N201 C198 1.368 1_554 S
N201 C202 1.321 . S
N201 Co204 2.135 . S
C202 N200 1.339 1_554 S
C202 N201 1.321 . S
C202 H226 0.930 . S
H203 C198 0.931 . S
Co204 N201 2.135 . S
Co204 N207 2.121 . S
Co204 O212 2.055 1_554 S
Co204 O215 2.039 . S
Co204 N218 2.140 . S
C205 O206 1.227 . S
C205 O215 1.265 . S
O206 C205 1.227 . S
N207 Co204 2.121 . S
N207 C209 1.375 . S
N207 C210 1.313 1_565 S
C208 C209 1.338 1_545 S
C208 N211 1.377 . S
C208 H228 0.930 . S
C209 N207 1.375 . S
C209 C208 1.338 1_565 S
C209 H213 0.931 . S
C210 N207 1.313 1_545 S
C210 N211 1.344 . S
C210 H214 0.930 . S
N211 C208 1.377 . S
N211 C210 1.344 . S
O212 Co204 2.055 1_556 S
O212 C216 1.253 . S
H213 C209 0.931 . S
H214 C210 0.930 . S
O215 Co204 2.039 . S
O215 C205 1.265 . S
C216 O212 1.253 . S
C216 O217 1.227 . S
O217 C216 1.227 . S
N218 Co204 2.140 . S
N218 C221 1.346 . S
N218 C222 1.345 . S
C219 C220 1.387 . S
C219 C223 1.391 . S
C220 C219 1.387 . S
C220 C221 1.369 . S
C220 H229 0.929 . S
C221 N218 1.346 . S
C221 C220 1.369 . S
C221 H224 0.928 . S
C222 N218 1.345 . S
C222 C223 1.371 . S
C222 H225 0.931 . S
C223 C219 1.391 . S
C223 C222 1.371 . S
C223 H230 0.930 . S
H224 C221 0.928 . S
H225 C222 0.931 . S
H226 C202 0.930 . S
H227 C199 0.930 . S
H228 C208 0.930 . S
H229 C220 0.929 . S
H230 C223 0.930 . S
C231 C232 1.351 . S
C231 N234 1.368 . S
C231 H236 0.931 1_545 S
C232 C231 1.351 . S
C232 N233 1.373 . S
C232 H260 0.930 . S
N233 C232 1.373 . S
N233 C235 1.340 . S
N234 C231 1.368 . S
N234 C235 1.321 . S
N234 Co237 2.135 1_545 S
C235 N233 1.340 . S
C235 N234 1.321 . S
C235 H259 0.930 . S
H236 C231 0.931 1_565 S
Co237 N234 2.135 1_565 S
Co237 N240 2.121 . S
Co237 O245 2.055 . S
Co237 O248 2.039 1_565 S
Co237 N251 2.140 . S
C238 O239 1.227 . S
C238 O248 1.265 . S
O239 C238 1.227 . S
N240 Co237 2.121 . S
N240 C242 1.375 . S
N240 C243 1.313 . S
C241 C242 1.338 . S
C241 N244 1.377 . S
C241 H261 0.930 . S
C242 N240 1.375 . S
C242 C241 1.338 . S
C242 H246 0.931 . S
C243 N240 1.313 . S
C243 N244 1.344 . S
C243 H247 0.930 . S
N244 C241 1.377 . S
N244 C243 1.344 . S
O245 Co237 2.055 . S
O245 C249 1.253 . S
H246 C242 0.931 . S
H247 C243 0.930 . S
O248 Co237 2.039 1_545 S
O248 C238 1.265 . S
C249 O245 1.253 . S
C249 O250 1.227 . S
O250 C249 1.227 . S
N251 Co237 2.140 . S
N251 C254 1.346 . S
N251 C255 1.345 . S
C252 C253 1.387 . S
C252 C256 1.391 . S
C253 C252 1.387 . S
C253 C254 1.369 . S
C253 H262 0.929 . S
C254 N251 1.346 . S
C254 C253 1.369 . S
C254 H257 0.928 . S
C255 N251 1.345 . S
C255 C256 1.371 . S
C255 H258 0.931 . S
C256 C252 1.391 . S
C256 C255 1.371 . S
C256 H263 0.930 . S
H257 C254 0.928 . S
H258 C255 0.931 . S
H259 C235 0.930 . S
H260 C232 0.930 . S
H261 C241 0.930 . S
H262 C253 0.929 . S
H263 C256 0.930 . S
C18 C40 1.463 . S
C73 C51 1.463 . S
C106 C84 1.463 . S
C117 C7 1.463 . S
C150 C238 1.463 . S
C183 C139 1.463 . S
C216 C172 1.463 . S
C249 C205 1.463 . S
N211 C21 1.583 . S
N244 C54 1.583 . S
N145 C87 1.583 . S
N178 C120 1.583 . S
C153 N79 1.583 . S
C186 N112 1.583 . S
C219 N13 1.583 . S
C252 N46 1.583 . S
N233 N2 1.263 . S
N134 N35 1.263 . S
N68 N167 1.263 . S
N101 N200 1.263 1_554 S
