# Generated by pormake.
# Topology umh, (4)-cn, num edge types: 1
# Building blocks:
#     Node 0, Type 0, BuildingBlock: MUDLON_clean_sbu_0, # of connection points: 4
#     Node 1, Type 0, BuildingBlock: MUDLON_clean_sbu_0, # of connection points: 4
#     Node 2, Type 0, BuildingBlock: MUDLON_clean_sbu_0, # of connection points: 4
#     Node 3, Type 0, BuildingBlock: MUDLON_clean_sbu_0, # of connection points: 4
#     Node 4, Type 0, BuildingBlock: MUDLON_clean_sbu_0, # of connection points: 4
#     Node 5, Type 0, BuildingBlock: MUDLON_clean_sbu_0, # of connection points: 4
#     Node 6, Type 0, BuildingBlock: MUDLON_clean_sbu_0, # of connection points: 4
#     Node 7, Type 0, BuildingBlock: MUDLON_clean_sbu_0, # of connection points: 4
#     Node 8, Type 0, BuildingBlock: MUDLON_clean_sbu_0, # of connection points: 4
#     Node 9, Type 0, BuildingBlock: MUDLON_clean_sbu_0, # of connection points: 4
#     Node 10, Type 0, BuildingBlock: MUDLON_clean_sbu_0, # of connection points: 4
#     Node 11, Type 0, BuildingBlock: MUDLON_clean_sbu_0, # of connection points: 4
#     Node 12, Type 0, BuildingBlock: MUDLON_clean_sbu_0, # of connection points: 4
#     Node 13, Type 0, BuildingBlock: MUDLON_clean_sbu_0, # of connection points: 4
#     Node 14, Type 0, BuildingBlock: MUDLON_clean_sbu_0, # of connection points: 4
#     Node 15, Type 0, BuildingBlock: MUDLON_clean_sbu_0, # of connection points: 4
#     Edge 16, Type (0, 0), None
#     Edge 17, Type (0, 0), None
#     Edge 18, Type (0, 0), None
#     Edge 19, Type (0, 0), None
#     Edge 20, Type (0, 0), None
#     Edge 21, Type (0, 0), None
#     Edge 22, Type (0, 0), None
#     Edge 23, Type (0, 0), None
#     Edge 24, Type (0, 0), None
#     Edge 25, Type (0, 0), None
#     Edge 26, Type (0, 0), None
#     Edge 27, Type (0, 0), None
#     Edge 28, Type (0, 0), None
#     Edge 29, Type (0, 0), None
#     Edge 30, Type (0, 0), None
#     Edge 31, Type (0, 0), None
#     Edge 32, Type (0, 0), None
#     Edge 33, Type (0, 0), None
#     Edge 34, Type (0, 0), None
#     Edge 35, Type (0, 0), None
#     Edge 36, Type (0, 0), None
#     Edge 37, Type (0, 0), None
#     Edge 38, Type (0, 0), None
#     Edge 39, Type (0, 0), None
#     Edge 40, Type (0, 0), None
#     Edge 41, Type (0, 0), None
#     Edge 42, Type (0, 0), None
#     Edge 43, Type (0, 0), None
#     Edge 44, Type (0, 0), None
#     Edge 45, Type (0, 0), None
#     Edge 46, Type (0, 0), None
#     Edge 47, Type (0, 0), None
# Relax obj value: 0.037
# Max RMSD: 0.082
# Mean RMSD: 0.082
data_MOF--net-umh--node1-MUDLON_clean_sbu_0--edge1-none
_symmetry_space_group_name_H-M    P1
_symmetry_Int_Tables_number       1
_symmetry_cell_setting            triclinic
loop_
_symmetry_equiv_pos_as_xyz
'x, y, z'
_cell_length_a     19.451839
_cell_length_b     19.324638
_cell_length_c     25.364951
_cell_angle_alpha  90.22731
_cell_angle_beta   90.111099
_cell_angle_gamma 90.158174
loop_
_atom_site_label
_atom_site_type_symbol
_atom_site_fract_x
_atom_site_fract_y
_atom_site_fract_z
_atom_type_partial_charge
Mg0 Mg 0.37337 0.11407 0.19026 0.0
C1 C 0.39501 0.16633 0.08031 0.0
O2 O 0.4179 0.21946 0.10766 0.0
C3 C 0.31474 0.03785 0.27964 0.0
O4 O 0.37741 0.05133 0.29614 0.0
C5 C 0.52868 0.08643 0.18596 0.0
O6 O 0.5275 0.13324 0.14865 0.0
O7 O 0.47479 0.07576 0.21308 0.0
O8 O 0.37095 0.11365 0.10432 0.0
O9 O 0.33738 0.21718 0.21055 0.0
C10 C 0.27232 0.22461 0.21431 0.0
O11 O 0.23208 0.17018 0.21085 0.0
O12 O 0.29959 0.0497 0.2317 0.0
Mg13 Mg 0.35885 0.39714 0.67388 0.0
C14 C 0.37281 0.42365 0.56091 0.0
O15 O 0.33619 0.47655 0.57719 0.0
C16 C 0.42048 0.33791 0.77604 0.0
O17 O 0.41885 0.40265 0.79187 0.0
C18 C 0.46678 0.4905 0.69116 0.0
O19 O 0.49183 0.42802 0.6844 0.0
O20 O 0.4019 0.49818 0.69169 0.0
O21 O 0.39345 0.37922 0.59415 0.0
O22 O 0.2482 0.37793 0.6722 0.0
C23 C 0.22497 0.34006 0.63484 0.0
O24 O 0.26535 0.32432 0.59526 0.0
O25 O 0.40079 0.32222 0.72954 0.0
Mg26 Mg 0.13979 0.4022 0.18544 0.0
C27 C 0.10485 0.34027 0.07922 0.0
O28 O 0.08161 0.29023 0.10925 0.0
C29 C 0.21654 0.47808 0.26491 0.0
O30 O 0.15887 0.46185 0.28877 0.0
C31 C 0.98712 0.43995 0.18877 0.0
O32 O 0.98226 0.39185 0.15228 0.0
O33 O 0.0438 0.44813 0.21312 0.0
O34 O 0.13288 0.39343 0.10018 0.0
O35 O 0.17651 0.30135 0.21122 0.0
C36 C 0.24177 0.29369 0.21152 0.0
O37 O 0.28158 0.34637 0.19999 0.0
O38 O 0.22061 0.46898 0.21536 0.0
Mg39 Mg 0.12188 0.14685 0.65513 0.0
C40 C 0.22081 0.04322 0.59695 0.0
O41 O 0.26661 0.99342 0.59757 0.0
C42 C 0.07257 0.17224 0.77233 0.0
O43 O 0.01655 0.13624 0.76298 0.0
C44 C 1.00594 0.05267 0.65663 0.0
O45 O 0.05094 0.02289 0.68778 0.0
O46 O 0.02157 0.10906 0.63399 0.0
O47 O 0.19704 0.06522 0.64078 0.0
O48 O 0.15983 0.24006 0.61753 0.0
C49 C 0.16482 0.296 0.64408 0.0
O50 O 0.13136 0.30214 0.68871 0.0
O51 O 0.11937 0.17743 0.73756 0.0
Mg52 Mg 0.36217 0.42604 0.38871 0.0
C53 C 0.38203 0.41166 0.50448 0.0
O54 O 0.41615 0.35725 0.48795 0.0
C55 C 0.27974 0.48127 0.2964 0.0
O56 O 0.3398 0.47935 0.27287 0.0
C57 C 0.51557 0.46205 0.38415 0.0
O58 O 0.5209 0.40853 0.41558 0.0
O59 O 0.45764 0.47577 0.36336 0.0
O60 O 0.35279 0.451 0.47131 0.0
O61 O 0.34854 0.31368 0.38534 0.0
C62 C 0.28938 0.29084 0.39868 0.0
O63 O 0.24102 0.33492 0.41179 0.0
O64 O 0.27577 0.46695 0.34515 0.0
Mg65 Mg 0.07111 0.29418 0.91421 0.0
C66 C 0.09815 0.33553 1.02174 0.0
O67 O 0.12408 0.38504 0.9925 0.0
C68 C 0.07628 0.21995 0.81718 0.0
O69 O 0.11259 0.27684 0.81174 0.0
C70 C 0.01253 0.44398 0.89123 0.0
O71 O 0.07439 0.47034 0.89693 0.0
O72 O 1.00285 0.37911 0.8949 0.0
O73 O 0.06792 0.28458 0.99939 0.0
O74 O 0.18021 0.30513 0.90288 0.0
C75 C 0.21227 0.24776 0.9033 0.0
O76 O 0.17801 0.18963 0.90885 0.0
O77 O 0.04518 0.20939 0.86056 0.0
Mg78 Mg 0.20069 0.08114 0.42271 0.0
C79 C 0.19873 0.07165 0.54575 0.0
O80 O 0.15147 0.11988 0.54344 0.0
C81 C 0.2596 0.0327 0.31884 0.0
O82 O 0.19546 0.04076 0.30389 0.0
C83 C 0.04359 0.05343 0.42107 0.0
O84 O 0.04191 0.10276 0.45678 0.0
O85 O 0.10059 0.03769 0.39977 0.0
O86 O 0.2256 0.04845 0.50337 0.0
O87 O 0.21636 0.19331 0.41526 0.0
C88 C 0.27561 0.216 0.40189 0.0
O89 O 0.32561 0.1721 0.39281 0.0
O90 O 0.27507 0.03967 0.36733 0.0
Mg91 Mg 0.42703 0.20691 0.91275 0.0
C92 C 0.39909 0.16715 1.02252 0.0
O93 O 0.37352 0.11513 0.99532 0.0
C94 C 0.43367 0.28243 0.81411 0.0
O95 O 0.42157 0.21803 0.80009 0.0
C96 C 0.49729 0.06329 0.8912 0.0
O97 O 0.43804 0.03256 0.8995 0.0
O98 O 0.50199 0.12881 0.8927 0.0
O99 O 0.42788 0.21712 0.99821 0.0
O100 O 0.31968 0.18998 0.89846 0.0
C101 C 0.28698 0.24669 0.90296 0.0
O102 O 0.32079 0.30421 0.91277 0.0
O103 O 0.4454 0.29604 0.86249 0.0
Mg104 Mg 0.66627 0.92045 0.89999 0.0
C105 C 0.64241 0.9001 1.01268 0.0
O106 O 0.5907 0.86711 0.99054 0.0
C107 C 0.71379 0.98699 0.80083 0.0
O108 O 0.64937 0.97387 0.78874 0.0
C109 C 0.56136 0.02374 0.88861 0.0
O110 O 0.62004 0.05731 0.89197 0.0
O111 O 0.56206 0.958 0.88873 0.0
O112 O 0.68586 0.93124 0.98369 0.0
O113 O 0.68865 0.81256 0.88484 0.0
C114 C 0.75223 0.79715 0.8818 0.0
O115 O 0.79864 0.8465 0.88446 0.0
O116 O 0.7347 0.97573 0.84756 0.0
Mg117 Mg 0.60603 0.67088 0.39178 0.0
C118 C 0.73113 0.75801 0.36649 0.0
O119 O 0.68392 0.80636 0.36558 0.0
C120 C 0.56954 0.5157 0.38514 0.0
O121 O 0.62187 0.50885 0.41741 0.0
C122 C 0.53777 0.74702 0.3061 0.0
O123 O 0.54483 0.68543 0.28473 0.0
O124 O 0.55092 0.75474 0.35486 0.0
O125 O 0.71345 0.69493 0.37363 0.0
O126 O 0.59976 0.67058 0.47741 0.0
C127 C 0.64577 0.63881 0.5036 0.0
O128 O 0.69719 0.60941 0.47874 0.0
O129 O 0.55706 0.57463 0.36517 0.0
Mg130 Mg 0.85548 0.60058 0.90282 0.0
C131 C 0.88331 0.62703 1.01544 0.0
O132 O 0.93561 0.65762 0.9925 0.0
C133 C 0.79452 0.54343 0.80496 0.0
O134 O 0.85671 0.55978 0.78914 0.0
C135 C 0.95158 0.48847 0.88865 0.0
O136 O 0.89056 0.45958 0.89197 0.0
O137 O 0.95591 0.55414 0.8895 0.0
O138 O 0.83873 0.59567 0.98724 0.0
O139 O 0.83744 0.70866 0.88498 0.0
C140 C 0.77389 0.72464 0.8831 0.0
O141 O 0.72727 0.67608 0.8891 0.0
O142 O 0.78002 0.5484 0.8537 0.0
Mg143 Mg 0.92703 0.86018 0.39628 0.0
C144 C 0.80396 0.77811 0.36949 0.0
O145 O 0.84937 0.73108 0.38259 0.0
C146 C 0.98411 1.00657 0.41488 0.0
O147 O 0.93402 1.00969 0.44937 0.0
C148 C 0.9922 0.78322 0.31026 0.0
O149 O 0.98432 0.84492 0.28959 0.0
O150 O 0.98146 0.77554 0.35931 0.0
O151 O 0.82221 0.84173 0.36817 0.0
O152 O 0.91442 0.85259 0.48068 0.0
C153 C 0.86247 0.88296 0.50057 0.0
O154 O 0.81856 0.91467 0.46966 0.0
O155 O 0.98788 0.95466 0.38388 0.0
Mg156 Mg 0.6686 0.59575 0.67204 0.0
C157 C 0.64077 0.63362 0.56116 0.0
O158 O 0.59136 0.66615 0.58619 0.0
C159 C 0.73863 0.54013 0.76623 0.0
O160 O 0.67473 0.54368 0.78265 0.0
C161 C 0.51483 0.54886 0.69135 0.0
O162 O 0.49342 0.61303 0.68767 0.0
O163 O 0.57828 0.53454 0.68763 0.0
O164 O 0.68326 0.59713 0.58723 0.0
O165 O 0.67045 0.70381 0.69313 0.0
C166 C 0.73163 0.72735 0.69388 0.0
O167 O 0.78315 0.68477 0.68624 0.0
O168 O 0.75174 0.55226 0.71804 0.0
Mg169 Mg 0.9146 0.65394 0.18657 0.0
C170 C 0.79871 0.75226 0.20385 0.0
O171 O 0.85076 0.79515 0.19921 0.0
C172 C 0.93672 0.49664 0.18921 0.0
O173 O 0.88657 0.49606 0.15454 0.0
C174 C 0.98768 0.72246 0.27564 0.0
O175 O 0.97448 0.66176 0.29647 0.0
O176 O 0.9756 0.73174 0.2269 0.0
O177 O 0.80942 0.68708 0.20232 0.0
O178 O 0.9246 0.65577 0.10119 0.0
C179 C 0.87689 0.62941 0.07303 0.0
O180 O 0.82187 0.60391 0.0958 0.0
O181 O 0.95241 0.55308 0.2123 0.0
Mg182 Mg 0.81884 0.92958 0.66307 0.0
C183 C 0.85498 0.88786 0.55778 0.0
O184 O 0.89921 0.85606 0.58839 0.0
C185 C 0.76447 0.99244 0.75846 0.0
O186 O 0.82971 0.98379 0.77005 0.0
C187 C 0.93767 0.02237 0.6502 0.0
O188 O 0.89335 0.05014 0.61746 0.0
O189 O 0.92048 0.96966 0.67693 0.0
O190 O 0.80908 0.92615 0.57845 0.0
O191 O 0.80588 0.82333 0.68576 0.0
C192 C 0.7448 0.80168 0.6929 0.0
O193 O 0.69318 0.84513 0.69 0.0
O194 O 0.74482 0.9835 0.71108 0.0
Mg195 Mg 0.61235 0.87707 0.18397 0.0
C196 C 0.72836 0.77967 0.20322 0.0
O197 O 0.67649 0.73657 0.1982 0.0
C198 C 0.58225 0.03281 0.18473 0.0
O199 O 0.62815 0.03399 0.1469 0.0
C200 C 0.54033 0.8079 0.27195 0.0
O201 O 0.55345 0.86866 0.29313 0.0
O202 O 0.55161 0.79887 0.22308 0.0
O203 O 0.71755 0.8448 0.20102 0.0
O204 O 0.60251 0.87369 0.09875 0.0
C205 C 0.6494 0.90021 0.07022 0.0
O206 O 0.70403 0.92773 0.09252 0.0
O207 O 0.57247 0.97707 0.21016 0.0
loop_
_geom_bond_atom_site_label_1
_geom_bond_atom_site_label_2
_geom_bond_distance
_geom_bond_site_symmetry_2
_ccdc_geom_bond_type
Mg0 O7 2.141 1_545 S
Mg0 O8 2.048 . S
Mg0 O9 2.048 . S
Mg0 O12 2.141 . S
C1 O2 1.313 . S
C1 O8 1.195 . S
O2 C1 1.313 . S
C3 O4 1.245 . S
C3 O12 1.289 . S
O4 C3 1.245 . S
C5 O6 1.245 1_565 S
C5 O7 1.289 . S
O6 C5 1.245 1_545 S
O7 Mg0 2.141 1_565 S
O7 C5 1.289 . S
O8 Mg0 2.048 . S
O8 C1 1.195 . S
O9 Mg0 2.048 . S
O9 C10 1.195 . S
C10 O9 1.195 . S
C10 O11 1.313 . S
O11 C10 1.313 . S
O12 Mg0 2.141 . S
O12 C3 1.289 . S
Mg13 O20 2.141 . S
Mg13 O21 2.048 . S
Mg13 O22 2.048 . S
Mg13 O25 2.141 . S
C14 O15 1.313 . S
C14 O21 1.195 . S
O15 C14 1.313 . S
C16 O17 1.245 . S
C16 O25 1.289 . S
O17 C16 1.245 . S
C18 O19 1.245 . S
C18 O20 1.289 . S
O19 C18 1.245 . S
O20 Mg13 2.141 . S
O20 C18 1.289 . S
O21 Mg13 2.048 . S
O21 C14 1.195 . S
O22 Mg13 2.048 . S
O22 C23 1.195 . S
C23 O22 1.195 . S
C23 O24 1.313 . S
O24 C23 1.313 . S
O25 Mg13 2.141 . S
O25 C16 1.289 . S
Mg26 O33 2.141 . S
Mg26 O34 2.048 . S
Mg26 O35 2.048 . S
Mg26 O38 2.141 . S
C27 O28 1.313 . S
C27 O34 1.195 . S
O28 C27 1.313 . S
C29 O30 1.245 . S
C29 O38 1.289 . S
O30 C29 1.245 . S
C31 O32 1.245 . S
C31 O33 1.289 . S
O32 C31 1.245 . S
O33 Mg26 2.141 . S
O33 C31 1.289 . S
O34 Mg26 2.048 . S
O34 C27 1.195 . S
O35 Mg26 2.048 . S
O35 C36 1.195 . S
C36 O35 1.195 . S
C36 O37 1.313 . S
O37 C36 1.313 . S
O38 Mg26 2.141 . S
O38 C29 1.289 . S
Mg39 O46 2.141 1_455 S
Mg39 O47 2.048 . S
Mg39 O48 2.048 . S
Mg39 O51 2.141 . S
C40 O41 1.313 . S
C40 O47 1.195 . S
O41 C40 1.313 . S
C42 O43 1.245 . S
C42 O51 1.289 . S
O43 C42 1.245 . S
C44 O45 1.245 1_655 S
C44 O46 1.289 . S
O45 C44 1.245 1_455 S
O46 Mg39 2.141 1_655 S
O46 C44 1.289 . S
O47 Mg39 2.048 . S
O47 C40 1.195 . S
O48 Mg39 2.048 . S
O48 C49 1.195 . S
C49 O48 1.195 . S
C49 O50 1.313 . S
O50 C49 1.313 . S
O51 Mg39 2.141 . S
O51 C42 1.289 . S
Mg52 O59 2.141 . S
Mg52 O60 2.048 . S
Mg52 O61 2.048 . S
Mg52 O64 2.141 . S
C53 O54 1.313 . S
C53 O60 1.195 . S
O54 C53 1.313 . S
C55 O56 1.245 . S
C55 O64 1.289 . S
O56 C55 1.245 . S
C57 O58 1.245 . S
C57 O59 1.289 . S
O58 C57 1.245 . S
O59 Mg52 2.141 . S
O59 C57 1.289 . S
O60 Mg52 2.048 . S
O60 C53 1.195 . S
O61 Mg52 2.048 . S
O61 C62 1.195 . S
C62 O61 1.195 . S
C62 O63 1.313 . S
O63 C62 1.313 . S
O64 Mg52 2.141 . S
O64 C55 1.289 . S
Mg65 O72 2.141 1_455 S
Mg65 O73 2.048 . S
Mg65 O74 2.048 . S
Mg65 O77 2.141 . S
C66 O67 1.313 . S
C66 O73 1.195 . S
O67 C66 1.313 . S
C68 O69 1.245 . S
C68 O77 1.289 . S
O69 C68 1.245 . S
C70 O71 1.245 1_655 S
C70 O72 1.289 . S
O71 C70 1.245 1_455 S
O72 Mg65 2.141 1_655 S
O72 C70 1.289 . S
O73 Mg65 2.048 . S
O73 C66 1.195 . S
O74 Mg65 2.048 . S
O74 C75 1.195 . S
C75 O74 1.195 . S
C75 O76 1.313 . S
O76 C75 1.313 . S
O77 Mg65 2.141 . S
O77 C68 1.289 . S
Mg78 O85 2.141 1_545 S
Mg78 O86 2.048 . S
Mg78 O87 2.048 . S
Mg78 O90 2.141 . S
C79 O80 1.313 . S
C79 O86 1.195 . S
O80 C79 1.313 . S
C81 O82 1.245 . S
C81 O90 1.289 . S
O82 C81 1.245 . S
C83 O84 1.245 1_565 S
C83 O85 1.289 . S
O84 C83 1.245 1_545 S
O85 Mg78 2.141 1_565 S
O85 C83 1.289 . S
O86 Mg78 2.048 . S
O86 C79 1.195 . S
O87 Mg78 2.048 . S
O87 C88 1.195 . S
C88 O87 1.195 . S
C88 O89 1.313 . S
O89 C88 1.313 . S
O90 Mg78 2.141 . S
O90 C81 1.289 . S
Mg91 O98 2.141 . S
Mg91 O99 2.048 . S
Mg91 O100 2.048 . S
Mg91 O103 2.141 . S
C92 O93 1.313 . S
C92 O99 1.195 . S
O93 C92 1.313 . S
C94 O95 1.245 . S
C94 O103 1.289 . S
O95 C94 1.245 . S
C96 O97 1.245 . S
C96 O98 1.289 . S
O97 C96 1.245 . S
O98 Mg91 2.141 . S
O98 C96 1.289 . S
O99 Mg91 2.048 . S
O99 C92 1.195 . S
O100 Mg91 2.048 . S
O100 C101 1.195 . S
C101 O100 1.195 . S
C101 O102 1.313 . S
O102 C101 1.313 . S
O103 Mg91 2.141 . S
O103 C94 1.289 . S
Mg104 O111 2.141 . S
Mg104 O112 2.048 . S
Mg104 O113 2.048 . S
Mg104 O116 2.141 . S
C105 O106 1.313 . S
C105 O112 1.195 . S
O106 C105 1.313 . S
C107 O108 1.245 . S
C107 O116 1.289 . S
O108 C107 1.245 . S
C109 O110 1.245 . S
C109 O111 1.289 1_545 S
O110 C109 1.245 . S
O111 Mg104 2.141 . S
O111 C109 1.289 1_565 S
O112 Mg104 2.048 . S
O112 C105 1.195 . S
O113 Mg104 2.048 . S
O113 C114 1.195 . S
C114 O113 1.195 . S
C114 O115 1.313 . S
O115 C114 1.313 . S
O116 Mg104 2.141 . S
O116 C107 1.289 . S
Mg117 O124 2.141 . S
Mg117 O125 2.048 . S
Mg117 O126 2.048 . S
Mg117 O129 2.141 . S
C118 O119 1.313 . S
C118 O125 1.195 . S
O119 C118 1.313 . S
C120 O121 1.245 . S
C120 O129 1.289 . S
O121 C120 1.245 . S
C122 O123 1.245 . S
C122 O124 1.289 . S
O123 C122 1.245 . S
O124 Mg117 2.141 . S
O124 C122 1.289 . S
O125 Mg117 2.048 . S
O125 C118 1.195 . S
O126 Mg117 2.048 . S
O126 C127 1.195 . S
C127 O126 1.195 . S
C127 O128 1.313 . S
O128 C127 1.313 . S
O129 Mg117 2.141 . S
O129 C120 1.289 . S
Mg130 O137 2.141 . S
Mg130 O138 2.048 . S
Mg130 O139 2.048 . S
Mg130 O142 2.141 . S
C131 O132 1.313 . S
C131 O138 1.195 . S
O132 C131 1.313 . S
C133 O134 1.245 . S
C133 O142 1.289 . S
O134 C133 1.245 . S
C135 O136 1.245 . S
C135 O137 1.289 . S
O136 C135 1.245 . S
O137 Mg130 2.141 . S
O137 C135 1.289 . S
O138 Mg130 2.048 . S
O138 C131 1.195 . S
O139 Mg130 2.048 . S
O139 C140 1.195 . S
C140 O139 1.195 . S
C140 O141 1.313 . S
O141 C140 1.313 . S
O142 Mg130 2.141 . S
O142 C133 1.289 . S
Mg143 O150 2.141 . S
Mg143 O151 2.048 . S
Mg143 O152 2.048 . S
Mg143 O155 2.141 1_655 S
C144 O145 1.313 . S
C144 O151 1.195 . S
O145 C144 1.313 . S
C146 O147 1.245 1_455 S
C146 O155 1.289 . S
O147 C146 1.245 1_655 S
C148 O149 1.245 . S
C148 O150 1.289 . S
O149 C148 1.245 . S
O150 Mg143 2.141 . S
O150 C148 1.289 . S
O151 Mg143 2.048 . S
O151 C144 1.195 . S
O152 Mg143 2.048 . S
O152 C153 1.195 . S
C153 O152 1.195 . S
C153 O154 1.313 . S
O154 C153 1.313 . S
O155 Mg143 2.141 1_455 S
O155 C146 1.289 . S
Mg156 O163 2.141 . S
Mg156 O164 2.048 . S
Mg156 O165 2.048 . S
Mg156 O168 2.141 . S
C157 O158 1.313 . S
C157 O164 1.195 . S
O158 C157 1.313 . S
C159 O160 1.245 . S
C159 O168 1.289 . S
O160 C159 1.245 . S
C161 O162 1.245 . S
C161 O163 1.289 . S
O162 C161 1.245 . S
O163 Mg156 2.141 . S
O163 C161 1.289 . S
O164 Mg156 2.048 . S
O164 C157 1.195 . S
O165 Mg156 2.048 . S
O165 C166 1.195 . S
C166 O165 1.195 . S
C166 O167 1.313 . S
O167 C166 1.313 . S
O168 Mg156 2.141 . S
O168 C159 1.289 . S
Mg169 O176 2.141 . S
Mg169 O177 2.048 . S
Mg169 O178 2.048 . S
Mg169 O181 2.141 1_655 S
C170 O171 1.313 . S
C170 O177 1.195 . S
O171 C170 1.313 . S
C172 O173 1.245 1_455 S
C172 O181 1.289 . S
O173 C172 1.245 1_655 S
C174 O175 1.245 . S
C174 O176 1.289 . S
O175 C174 1.245 . S
O176 Mg169 2.141 . S
O176 C174 1.289 . S
O177 Mg169 2.048 . S
O177 C170 1.195 . S
O178 Mg169 2.048 . S
O178 C179 1.195 . S
C179 O178 1.195 . S
C179 O180 1.313 . S
O180 C179 1.313 . S
O181 Mg169 2.141 1_455 S
O181 C172 1.289 . S
Mg182 O189 2.141 . S
Mg182 O190 2.048 . S
Mg182 O191 2.048 . S
Mg182 O194 2.141 . S
C183 O184 1.313 . S
C183 O190 1.195 . S
O184 C183 1.313 . S
C185 O186 1.245 . S
C185 O194 1.289 . S
O186 C185 1.245 . S
C187 O188 1.245 . S
C187 O189 1.289 1_545 S
O188 C187 1.245 . S
O189 Mg182 2.141 . S
O189 C187 1.289 1_565 S
O190 Mg182 2.048 . S
O190 C183 1.195 . S
O191 Mg182 2.048 . S
O191 C192 1.195 . S
C192 O191 1.195 . S
C192 O193 1.313 . S
O193 C192 1.313 . S
O194 Mg182 2.141 . S
O194 C185 1.289 . S
Mg195 O202 2.141 . S
Mg195 O203 2.048 . S
Mg195 O204 2.048 . S
Mg195 O207 2.141 . S
C196 O197 1.313 . S
C196 O203 1.195 . S
O197 C196 1.313 . S
C198 O199 1.245 . S
C198 O207 1.289 . S
O199 C198 1.245 . S
C200 O201 1.245 . S
C200 O202 1.289 . S
O201 C200 1.245 . S
O202 Mg195 2.141 . S
O202 C200 1.289 . S
O203 Mg195 2.048 . S
O203 C196 1.195 . S
O204 Mg195 2.048 . S
O204 C205 1.195 . S
C205 O204 1.195 . S
C205 O206 1.313 . S
O206 C205 1.313 . S
O207 Mg195 2.141 . S
O207 C198 1.289 . S
C92 C1 1.578 1_556 S
C53 C14 1.579 . S
C66 C27 1.578 1_556 S
C40 C79 1.577 . S
C205 C105 1.666 1_554 S
C157 C127 1.667 . S
C131 C179 1.666 1_556 S
C153 C183 1.665 . S
C36 C10 1.756 . S
C23 C49 1.756 . S
C62 C88 1.756 . S
C101 C75 1.756 . S
C114 C140 2.141 . S
C118 C144 1.756 . S
C192 C166 2.141 . S
C170 C196 1.756 . S
C81 C3 1.581 . S
C16 C94 1.582 . S
C29 C55 1.582 . S
C42 C68 1.581 . S
C107 C185 1.626 . S
C122 C200 1.582 . S
C133 C159 1.627 . S
C148 C174 1.581 . S
C5 C198 1.607 . S
C161 C18 1.716 . S
C31 C172 1.607 . S
C187 C44 1.715 . S
C120 C57 1.607 . S
C70 C135 1.715 . S
C146 C83 1.607 . S
C109 C96 1.715 . S
