# Generated by pormake.
# Topology hex, (8)-cn, num edge types: 1
# Building blocks:
#     Node 0, Type 0, BuildingBlock: EYACOX_clean_sbu_0, # of connection points: 8
#     Edge 1, Type (0, 0), BuildingBlock: AJUNOK_clean_linker_0, # of connection points: 2
#     Edge 2, Type (0, 0), BuildingBlock: AJUNOK_clean_linker_0, # of connection points: 2
#     Edge 3, Type (0, 0), BuildingBlock: AJUNOK_clean_linker_0, # of connection points: 2
#     Edge 4, Type (0, 0), BuildingBlock: AJUNOK_clean_linker_0, # of connection points: 2
# Relax obj value: 0.020
# Max RMSD: 0.057
# Mean RMSD: 0.057
data_MOF--net-hex--node1-EYACOX_clean_sbu_0--edge1-AJUNOK_clean_linker_0
_symmetry_space_group_name_H-M    P1
_symmetry_Int_Tables_number       1
_symmetry_cell_setting            triclinic
loop_
_symmetry_equiv_pos_as_xyz
'x, y, z'
_cell_length_a     20.007591
_cell_length_b     19.647314
_cell_length_c     11.366582
_cell_angle_alpha  111.76024
_cell_angle_beta   71.856394
_cell_angle_gamma 146.70512
loop_
_atom_site_label
_atom_site_type_symbol
_atom_site_fract_x
_atom_site_fract_y
_atom_site_fract_z
_atom_type_partial_charge
Eu0 Eu 0.03495 0.86719 0.92432 0.0
Eu1 Eu 0.95476 -0.02648 0.03319 0.0
O2 O 0.17733 0.90552 0.85025 0.0
O3 O 0.99539 0.71786 0.879 0.0
O4 O 0.93375 0.91802 0.82135 0.0
O5 O 0.0488 0.9106 0.75476 0.0
O6 O 0.8315 0.6952 0.89014 0.0
O7 O 0.79061 0.76913 0.05172 0.0
C8 C 0.15849 0.79192 0.92524 0.0
C9 C 0.24459 0.78616 0.06788 0.0
C10 C 0.12591 0.67494 0.02385 0.0
C11 C 0.08032 0.67852 0.95833 0.0
C12 C 0.32764 0.89055 0.01446 0.0
C13 C 0.28477 0.8963 0.94663 0.0
C14 C 0.10901 0.79457 0.85648 0.0
C15 C 0.99133 0.91402 0.7321 0.0
O16 O 0.80757 0.92729 0.06437 0.0
O17 O 0.9903 0.12138 0.12317 0.0
C18 C 0.75405 0.67468 0.96958 0.0
O19 O 1.00894 -0.00188 0.20803 0.0
O20 O 0.98943 0.85614 0.12842 0.0
O21 O 0.15312 0.1383 0.9735 0.0
O22 O 0.2023 0.07667 0.00882 0.0
C23 C 0.86348 0.08542 0.04356 0.0
C24 C 0.72942 0.03987 0.95676 0.0
C25 C 0.74508 0.00523 0.02138 0.0
C26 C 0.83028 0.14989 0.91002 0.0
C27 C 0.94612 0.23967 0.95158 0.0
C28 C 0.96415 0.20662 0.01469 0.0
C29 C 0.87942 0.0451 0.10492 0.0
C30 C 1.00185 0.92915 0.2239 0.0
C31 C 0.23571 0.16411 -0.01103 0.0
H32 H 0.27863 0.7802 0.11566 0.0
H33 H 0.98708 0.59122 0.92491 0.0
H34 H 0.34937 -0.02262 0.9046 0.0
H35 H 0.66616 0.91923 0.05812 0.0
H36 H 0.81654 0.17806 0.86568 0.0
H37 H 0.05463 0.27719 0.04697 0.0
C38 C 0.02936 0.42761 0.09184 0.0
C39 C 0.02747 0.37092 0.96986 0.0
C40 C 0.05326 0.52084 0.10879 0.0
C41 C 0.07534 0.55953 0.0042 0.0
H42 H 1.00283 0.39266 0.17366 0.0
H43 H 0.05448 0.563 0.20391 0.0
S44 S 0.09826 0.45363 0.66791 0.0
N45 N 0.06117 0.36837 0.74497 0.0
N46 N 0.10894 0.54618 0.77658 0.0
C47 C 0.08115 0.50924 0.88273 0.0
C48 C 0.0578 0.41529 0.86577 0.0
C49 C 0.60015 0.03283 0.08668 0.0
C50 C 0.61944 -0.00891 0.97038 0.0
C51 C 0.51614 0.01687 0.0974 0.0
C52 C 0.44838 -0.04164 -0.00792 0.0
H53 H 0.65224 0.0804 0.16942 0.0
H54 H 0.49808 0.04279 0.19019 0.0
S55 S 0.47035 0.83837 0.66538 0.0
N56 N 0.57055 0.89636 0.74681 0.0
N57 N 0.40866 0.86153 0.76722 0.0
C58 C 0.47046 0.92062 0.87428 0.0
C59 C 0.55622 0.93726 0.86354 0.0
C60 C 0.40806 0.39863 0.00343 0.0
C61 C 0.36853 0.29326 0.98285 0.0
C62 C 0.53245 0.52097 -0.00129 0.0
C63 C 0.62277 0.54299 0.96978 0.0
H64 H 0.34255 0.38712 0.02528 0.0
H65 H 0.55795 0.59884 0.01692 0.0
S66 S 0.56896 0.30035 0.90649 0.0
N67 N 0.43163 0.2204 0.93253 0.0
N68 N 0.66382 0.44886 0.92041 0.0
C69 C 0.58473 0.43853 0.94719 0.0
C70 C 0.45831 0.31433 0.95468 0.0
C71 C 0.96749 -0.04128 0.58077 0.0
C72 C 0.99446 0.91698 0.60181 0.0
C73 C 0.97266 -0.03474 0.45882 0.0
C74 C 1.00368 0.92898 0.35311 0.0
H75 H 0.94301 -0.01241 0.65917 0.0
H76 H 0.95017 -0.00305 0.44725 0.0
S77 S 0.08481 0.81501 0.35667 0.0
N78 N 0.05479 0.84009 0.50593 0.0
N79 N 0.06504 0.85288 0.27784 0.0
C80 C 0.03184 0.88801 0.37291 0.0
C81 C 1.02711 0.88189 0.49687 0.0
loop_
_geom_bond_atom_site_label_1
_geom_bond_atom_site_label_2
_geom_bond_distance
_geom_bond_site_symmetry_2
_ccdc_geom_bond_type
Eu0 O2 2.472 1_655 S
Eu0 O3 2.507 . S
Eu0 O5 2.336 . S
Eu0 O6 2.389 . S
Eu0 C14 2.835 1_655 S
Eu0 O20 2.396 1_556 S
Eu0 O22 2.323 1_665 S
Eu1 O4 2.396 1_554 S
Eu1 O7 2.323 1_445 S
Eu1 O16 2.472 1_455 S
Eu1 O17 2.507 . S
Eu1 O19 2.336 . S
Eu1 O21 2.389 . S
Eu1 C29 2.835 1_455 S
O2 Eu0 2.472 1_455 S
O2 C14 1.258 . S
O3 Eu0 2.507 . S
O3 C14 1.246 1_655 S
O4 Eu1 2.396 1_556 S
O4 C15 1.216 1_445 S
O5 Eu0 2.336 . S
O5 C15 1.279 . S
O6 Eu0 2.389 . S
O6 C18 1.239 . S
O7 Eu1 2.323 1_665 S
O7 C18 1.249 1_554 S
C8 C11 1.390 . S
C8 C13 1.370 . S
C8 C14 1.489 . S
C9 C10 1.344 . S
C9 C12 1.416 . S
C9 H32 0.931 . S
C10 C9 1.344 . S
C10 C11 1.423 1_554 S
C11 C8 1.390 . S
C11 C10 1.423 1_556 S
C11 H33 0.930 1_455 S
C12 C9 1.416 . S
C12 C13 1.392 1_554 S
C13 C8 1.370 . S
C13 C12 1.392 1_556 S
C13 H34 0.932 1_565 S
C14 Eu0 2.835 1_455 S
C14 O2 1.258 . S
C14 O3 1.246 1_455 S
C14 C8 1.489 . S
C15 O4 1.216 1_665 S
C15 O5 1.279 . S
O16 Eu1 2.472 1_655 S
O16 C29 1.258 . S
O17 Eu1 2.507 . S
O17 C29 1.246 1_455 S
C18 O6 1.239 . S
C18 O7 1.249 1_556 S
O19 Eu1 2.336 . S
O19 C30 1.279 . S
O20 Eu0 2.396 1_554 S
O20 C30 1.216 1_665 S
O21 Eu1 2.389 . S
O21 C31 1.239 . S
O22 Eu0 2.323 1_445 S
O22 C31 1.249 1_556 S
C23 C25 1.370 . S
C23 C28 1.390 . S
C23 C29 1.489 . S
C24 C25 1.393 1_556 S
C24 C26 1.415 . S
C25 C23 1.370 . S
C25 C24 1.393 1_554 S
C25 H35 0.932 1_545 S
C26 C24 1.415 . S
C26 C27 1.344 . S
C26 H36 0.931 . S
C27 C26 1.344 . S
C27 C28 1.423 1_556 S
C28 C23 1.390 . S
C28 C27 1.423 1_554 S
C28 H37 0.930 1_655 S
C29 Eu1 2.835 1_655 S
C29 O16 1.258 . S
C29 O17 1.246 1_655 S
C29 C23 1.489 . S
C30 O19 1.279 . S
C30 O20 1.216 1_445 S
C31 O21 1.239 . S
C31 O22 1.249 1_554 S
H32 C9 0.931 . S
H33 C11 0.930 1_655 S
H34 C13 0.932 1_545 S
H35 C25 0.932 1_565 S
H36 C26 0.931 . S
H37 C28 0.930 1_455 S
C38 C39 1.369 1_554 S
C38 C40 1.419 . S
C38 H42 0.930 . S
C39 C38 1.369 1_556 S
C39 C48 1.429 1_655 S
C40 C38 1.419 . S
C40 C41 1.363 1_655 S
C40 H43 0.929 . S
C41 C40 1.363 1_455 S
C41 C47 1.428 1_554 S
H42 C38 0.930 . S
H43 C40 0.929 . S
S44 N45 1.613 . S
S44 N46 1.610 . S
N45 S44 1.613 . S
N45 C48 1.350 . S
N46 S44 1.610 . S
N46 C47 1.351 . S
C47 C41 1.428 1_556 S
C47 N46 1.351 . S
C47 C48 1.434 . S
C48 C39 1.429 1_455 S
C48 N45 1.350 . S
C48 C47 1.434 . S
C49 C50 1.369 1_544 S
C49 C51 1.419 . S
C49 H53 0.930 . S
C50 C49 1.369 1_566 S
C50 C59 1.429 . S
C51 C49 1.419 . S
C51 C52 1.361 1_554 S
C51 H54 0.929 . S
C52 C51 1.361 1_556 S
C52 C58 1.428 1_545 S
H53 C49 0.930 . S
H54 C51 0.929 . S
S55 N56 1.613 . S
S55 N57 1.610 . S
N56 S55 1.613 . S
N56 C59 1.350 . S
N57 S55 1.610 . S
N57 C58 1.351 . S
C58 C52 1.428 1_565 S
C58 N57 1.351 . S
C58 C59 1.434 . S
C59 C50 1.429 . S
C59 N56 1.350 . S
C59 C58 1.434 . S
C60 C61 1.369 1_554 S
C60 C62 1.419 . S
C60 H64 0.930 . S
C61 C60 1.369 1_556 S
C61 C70 1.428 . S
C62 C60 1.419 . S
C62 C63 1.361 1_554 S
C62 H65 0.929 . S
C63 C62 1.361 1_556 S
C63 C69 1.429 . S
H64 C60 0.930 . S
H65 C62 0.929 . S
S66 N67 1.613 . S
S66 N68 1.610 . S
N67 S66 1.613 . S
N67 C70 1.350 . S
N68 S66 1.610 . S
N68 C69 1.351 . S
C69 C63 1.429 . S
C69 N68 1.351 . S
C69 C70 1.434 . S
C70 C61 1.428 . S
C70 N67 1.350 . S
C70 C69 1.434 . S
C71 C72 1.369 1_445 S
C71 C73 1.419 . S
C71 H75 0.930 . S
C72 C71 1.369 1_665 S
C72 C81 1.429 . S
C73 C71 1.419 . S
C73 C74 1.362 1_445 S
C73 H76 0.929 . S
C74 C73 1.362 1_665 S
C74 C80 1.427 . S
H75 C71 0.930 . S
H76 C73 0.929 . S
S77 N78 1.613 . S
S77 N79 1.610 . S
N78 S77 1.613 . S
N78 C81 1.350 . S
N79 S77 1.610 . S
N79 C80 1.351 . S
C80 C74 1.427 . S
C80 N79 1.351 . S
C80 C81 1.434 . S
C81 C72 1.429 . S
C81 N78 1.350 . S
C81 C80 1.434 . S
C39 C27 1.210 . S
C41 C10 1.205 . S
C50 C24 1.781 1_565 S
C52 C12 1.776 1_546 S
C61 C31 1.206 1_556 S
C63 C18 1.197 . S
C72 C15 1.493 . S
C74 C30 1.495 1_665 S
