# Generated by pormake.
# Topology bnn, (5)-cn, num edge types: 1
# Building blocks:
#     Node 0, Type 0, BuildingBlock: XOMCOT_clean_sbu_0, # of connection points: 5
#     Node 1, Type 0, BuildingBlock: XOMCOT_clean_sbu_0, # of connection points: 5
#     Edge 2, Type (0, 0), BuildingBlock: KIFKEQ_clean_linker_1, # of connection points: 2
#     Edge 3, Type (0, 0), BuildingBlock: KIFKEQ_clean_linker_1, # of connection points: 2
#     Edge 4, Type (0, 0), BuildingBlock: KIFKEQ_clean_linker_1, # of connection points: 2
#     Edge 5, Type (0, 0), BuildingBlock: KIFKEQ_clean_linker_1, # of connection points: 2
#     Edge 6, Type (0, 0), BuildingBlock: KIFKEQ_clean_linker_1, # of connection points: 2
# Relax obj value: 0.023
# Max RMSD: 0.078
# Mean RMSD: 0.078
data_MOF--net-bnn--node1-XOMCOT_clean_sbu_0--edge1-KIFKEQ_clean_linker_1
_symmetry_space_group_name_H-M    P1
_symmetry_Int_Tables_number       1
_symmetry_cell_setting            triclinic
loop_
_symmetry_equiv_pos_as_xyz
'x, y, z'
_cell_length_a     30.190796
_cell_length_b     27.621347
_cell_length_c     17.788426
_cell_angle_alpha  100.55828
_cell_angle_beta   89.760744
_cell_angle_gamma 122.98125
loop_
_atom_site_label
_atom_site_type_symbol
_atom_site_fract_x
_atom_site_fract_y
_atom_site_fract_z
_atom_type_partial_charge
Co0 Co 0.33554 0.69809 0.04872 0.0
C1 C 0.32522 0.69943 0.21634 0.0
C2 C 0.3441 0.7801 0.18687 0.0
C3 C 0.34298 0.7862 0.26524 0.0
N4 N 0.33387 0.72612 0.15626 0.0
N5 N 0.3311 0.73552 0.28359 0.0
H6 H 0.31618 0.65536 0.21181 0.0
H7 H 0.35247 0.81316 0.15455 0.0
C8 C 0.42874 0.8057 0.99872 0.0
O9 O 0.4314 0.77273 0.93799 0.0
N10 N 0.33638 0.67 0.94029 0.0
C11 C 0.35064 0.63255 0.9099 0.0
C12 C 0.34891 0.62732 0.83144 0.0
C13 C 0.32422 0.6852 0.87909 0.0
N14 N 0.33244 0.66044 0.81227 0.0
C15 C 0.35861 0.6202 0.09605 0.0
C16 C 0.46628 0.683 0.08434 0.0
C17 C 0.44089 0.62509 0.09578 0.0
C18 C 0.38682 0.59484 0.10491 0.0
C19 C 0.43648 0.70727 0.07663 0.0
N20 N 0.38263 0.67479 0.07879 0.0
H21 H 0.31659 0.59409 0.10018 0.0
H22 H 0.4571 0.75122 0.06656 0.0
H23 H 0.36273 0.61119 0.94183 0.0
H24 H 0.31283 0.71654 0.88377 0.0
O25 O 0.26839 0.62475 0.04633 0.0
O26 O 0.27697 0.70477 0.02151 0.0
O27 O 0.39617 0.78208 0.04727 0.0
C28 C 0.24564 0.65005 0.02783 0.0
H29 H 0.3505 0.82499 0.30575 0.0
H30 H 0.35981 0.6019 0.79151 0.0
H31 H 0.50829 0.70842 0.07798 0.0
H32 H 0.36581 0.55084 0.11653 0.0
Co33 Co 0.66685 0.35964 0.03486 0.0
C34 C 0.65712 0.35847 0.86813 0.0
C35 C 0.5929 0.27933 0.89733 0.0
C36 C 0.58504 0.27498 0.81959 0.0
N37 N 0.6383 0.33144 0.92756 0.0
N38 N 0.62554 0.32472 0.8013 0.0
H39 H 0.69242 0.40228 0.87355 0.0
H40 H 0.56715 0.24676 0.92967 0.0
C41 C 0.6526 0.25215 0.08524 0.0
O42 O 0.68834 0.28516 0.14544 0.0
N43 N 0.69446 0.38807 0.14297 0.0
C44 C 0.74415 0.43231 0.17454 0.0
C45 C 0.74615 0.44024 0.25334 0.0
C46 C 0.66661 0.37081 0.20318 0.0
N47 N 0.69747 0.40137 0.27127 0.0
C48 C 0.76825 0.43782 0.98894 0.0
C49 C 0.81325 0.37508 1.00137 0.0
C50 C 0.84564 0.4329 0.98966 0.0
C51 C 0.82179 0.46316 0.98032 0.0
C52 C 0.75921 0.35083 1.00886 0.0
N53 N 0.73769 0.38322 1.00617 0.0
H54 H 0.75233 0.46398 0.98466 0.0
H55 H 0.73593 0.30684 1.01873 0.0
H56 H 0.77697 0.45755 0.14325 0.0
H57 H 0.62476 0.33613 0.19705 0.0
O58 O 0.67258 0.43284 0.03644 0.0
O59 O 0.60128 0.35281 0.06107 0.0
O60 O 0.6437 0.27575 0.03679 0.0
C61 C 0.62444 0.40747 0.05458 0.0
H62 H 0.55245 0.23764 0.77953 0.0
H63 H 0.78112 0.47142 0.29418 0.0
H64 H 0.82985 0.34963 1.00788 0.0
H65 H 0.84469 0.50711 0.96856 0.0
H66 H 0.54222 0.66949 0.15956 0.0
H67 H 0.40335 0.51122 0.02577 0.0
H68 H 0.58696 0.61726 0.15527 0.0
H69 H 0.44768 0.45939 0.02182 0.0
H70 H 0.52288 0.36652 0.08891 0.0
H71 H 0.47946 0.42042 0.10454 0.0
H72 H 0.62312 0.57519 0.06134 0.0
H73 H 0.66658 0.52187 0.04706 0.0
C74 C 0.52133 0.62373 0.12913 0.0
C75 C 0.46904 0.59443 0.09373 0.0
C76 C 0.54688 0.59377 0.12673 0.0
C77 C 0.52067 0.53396 0.08878 0.0
C78 C 0.46856 0.50496 0.05307 0.0
C79 C 0.44316 0.5348 0.05535 0.0
C80 C 0.54517 0.41211 0.08317 0.0
C81 C 0.59801 0.43983 0.06646 0.0
C82 C 0.5203 0.44294 0.09179 0.0
C83 C 0.54784 0.50212 0.08403 0.0
C84 C 0.60099 0.52998 0.06865 0.0
C85 C 0.62575 0.49919 0.0599 0.0
H86 H 0.92148 0.54688 0.05885 0.0
H87 H 0.90268 0.38807 0.92568 0.0
H88 H 1.01736 0.59855 0.06171 0.0
H89 H 0.99935 0.44012 0.92888 0.0
H90 H 0.17385 0.53571 0.03557 0.0
H91 H 0.07738 0.48247 0.02194 0.0
H92 H 0.0879 0.63701 0.97818 0.0
H93 H 0.18495 0.69085 0.99317 0.0
C94 C 0.93779 0.52314 0.0292 0.0
C95 C 0.90429 0.46341 0.99131 0.0
C96 C 0.99287 0.55289 0.03084 0.0
C97 C 1.01605 0.52369 0.99496 0.0
C98 C 0.9827 0.46377 0.95753 0.0
C99 C 0.92736 0.43391 0.95577 0.0
C100 C 0.15565 0.55835 0.02269 0.0
C101 C 0.18704 0.61765 1.01585 0.0
C102 C 0.10027 0.5276 1.01433 0.0
C103 C 0.07489 0.55544 0.99906 0.0
C104 C 0.10629 0.61452 0.99088 0.0
C105 C 0.16183 0.64531 0.99911 0.0
H106 H 0.49205 0.8723 0.89935 0.0
H107 H 0.44753 0.88747 0.12941 0.0
H108 H 0.54881 0.97986 0.92016 0.0
H109 H 0.50383 0.99493 0.14976 0.0
H110 H 0.64946 0.1854 0.18425 0.0
H111 H 0.59827 0.07776 0.16375 0.0
H112 H 0.5374 0.06306 0.93571 0.0
H113 H 0.58883 0.17048 0.95574 0.0
C114 C 0.49451 0.89849 0.95449 0.0
C115 C 0.46504 0.87111 1.0126 0.0
C116 C 0.5268 0.9602 0.96621 0.0
C117 C 0.53078 0.99606 0.03655 0.0
C118 C 0.50208 0.96866 0.09516 0.0
C119 C 0.46947 0.90697 0.08325 0.0
C120 C 0.62546 0.15925 0.12951 0.0
C121 C 0.62328 0.18672 0.0717 0.0
C122 C 0.59583 0.09752 0.11798 0.0
C123 C 0.56365 0.06174 0.04814 0.0
C124 C 0.56218 0.08924 0.98989 0.0
C125 C 0.59145 0.15092 1.00161 0.0
H126 H 0.2544 0.66146 0.73988 0.0
H127 H 0.40711 0.68612 0.71556 0.0
H128 H 0.25117 0.67835 0.60907 0.0
H129 H 0.40476 0.70476 0.58657 0.0
H130 H 0.39714 0.81223 0.41067 0.0
H131 H 0.39556 0.79393 0.54066 0.0
H132 H 0.25884 0.61623 0.46017 0.0
H133 H 0.26128 0.6341 0.32905 0.0
C134 C 0.28727 0.6709 0.70665 0.0
C135 C 0.33087 0.67229 0.73721 0.0
C136 C 0.28534 0.68019 0.6321 0.0
C137 C 0.32769 0.69262 0.58815 0.0
C138 C 0.37165 0.69513 0.61942 0.0
C139 C 0.37292 0.68437 0.69285 0.0
C140 C 0.36661 0.7694 0.42087 0.0
C141 C 0.32931 0.72454 0.36 0.0
C142 C 0.3658 0.75895 0.49499 0.0
C143 C 0.3269 0.70388 0.51011 0.0
C144 C 0.28897 0.65918 0.44975 0.0
C145 C 0.29057 0.66921 0.37499 0.0
H146 H 0.74079 0.48288 0.40536 0.0
H147 H 0.62171 0.29891 0.30955 0.0
H148 H 0.7213 0.46606 0.53467 0.0
H149 H 0.60231 0.28186 0.43894 0.0
H150 H 0.55061 0.2835 0.68063 0.0
H151 H 0.56533 0.30368 0.55184 0.0
H152 H 0.73462 0.41605 0.62164 0.0
H153 H 0.71986 0.39601 0.75018 0.0
C154 C 0.71049 0.43881 0.41193 0.0
C155 C 0.68302 0.39219 0.34717 0.0
C156 C 0.69936 0.42913 0.48605 0.0
C157 C 0.66054 0.37252 0.49726 0.0
C158 C 0.63203 0.32617 0.43236 0.0
C159 C 0.64311 0.33592 0.35813 0.0
C160 C 0.59096 0.31232 0.66841 0.0
C161 C 0.63405 0.33811 0.72583 0.0
C162 C 0.59941 0.32389 0.59455 0.0
C163 C 0.65114 0.3615 0.57636 0.0
C164 C 0.69417 0.38768 0.63401 0.0
C165 C 0.68572 0.37619 0.70782 0.0
loop_
_geom_bond_atom_site_label_1
_geom_bond_atom_site_label_2
_geom_bond_distance
_geom_bond_site_symmetry_2
_ccdc_geom_bond_type
Co0 N4 2.148 . S
Co0 N10 2.128 1_554 S
Co0 N20 2.194 . S
Co0 O25 2.351 . S
Co0 O26 2.155 . S
Co0 O27 2.096 . S
C1 N4 1.301 . S
C1 N5 1.328 . S
C1 H6 0.930 . S
C2 C3 1.333 . S
C2 N4 1.317 . S
C2 H7 0.930 . S
C3 C2 1.333 . S
C3 N5 1.350 . S
C3 H29 0.931 . S
N4 Co0 2.148 . S
N4 C1 1.301 . S
N4 C2 1.317 . S
N5 C1 1.328 . S
N5 C3 1.350 . S
H6 C1 0.930 . S
H7 C2 0.930 . S
C8 O9 1.224 . S
C8 O27 1.247 . S
O9 C8 1.224 . S
N10 Co0 2.128 1_556 S
N10 C11 1.355 . S
N10 C13 1.311 . S
C11 N10 1.355 . S
C11 C12 1.363 . S
C11 H23 0.929 . S
C12 C11 1.363 . S
C12 N14 1.375 . S
C12 H30 0.931 . S
C13 N10 1.311 . S
C13 N14 1.347 . S
C13 H24 0.929 . S
N14 C12 1.375 . S
N14 C13 1.347 . S
C15 C18 1.365 . S
C15 N20 1.328 . S
C15 H21 0.929 . S
C16 C17 1.362 . S
C16 C19 1.378 . S
C16 H31 0.929 . S
C17 C16 1.362 . S
C17 C18 1.366 . S
C18 C15 1.365 . S
C18 C17 1.366 . S
C18 H32 0.930 . S
C19 C16 1.378 . S
C19 N20 1.315 . S
C19 H22 0.930 . S
N20 Co0 2.194 . S
N20 C15 1.328 . S
N20 C19 1.315 . S
H21 C15 0.929 . S
H22 C19 0.930 . S
H23 C11 0.929 . S
H24 C13 0.929 . S
O25 Co0 2.351 . S
O25 C28 1.244 . S
O26 Co0 2.155 . S
O26 C28 1.240 . S
O27 Co0 2.096 . S
O27 C8 1.247 . S
C28 O25 1.244 . S
C28 O26 1.240 . S
H29 C3 0.931 . S
H30 C12 0.931 . S
H31 C16 0.929 . S
H32 C18 0.930 . S
Co33 N37 2.148 1_554 S
Co33 N43 2.128 . S
Co33 N53 2.194 . S
Co33 O58 2.351 . S
Co33 O59 2.155 . S
Co33 O60 2.096 . S
C34 N37 1.301 . S
C34 N38 1.328 . S
C34 H39 0.930 . S
C35 C36 1.333 . S
C35 N37 1.317 . S
C35 H40 0.930 . S
C36 C35 1.333 . S
C36 N38 1.350 . S
C36 H62 0.931 . S
N37 Co33 2.148 1_556 S
N37 C34 1.301 . S
N37 C35 1.317 . S
N38 C34 1.328 . S
N38 C36 1.350 . S
H39 C34 0.930 . S
H40 C35 0.930 . S
C41 O42 1.224 . S
C41 O60 1.247 . S
O42 C41 1.224 . S
N43 Co33 2.128 . S
N43 C44 1.355 . S
N43 C46 1.311 . S
C44 N43 1.355 . S
C44 C45 1.363 . S
C44 H56 0.929 . S
C45 C44 1.363 . S
C45 N47 1.375 . S
C45 H63 0.931 . S
C46 N43 1.311 . S
C46 N47 1.347 . S
C46 H57 0.929 . S
N47 C45 1.375 . S
N47 C46 1.347 . S
C48 C51 1.365 . S
C48 N53 1.328 . S
C48 H54 0.929 1_554 S
C49 C50 1.362 . S
C49 C52 1.378 . S
C49 H64 0.929 . S
C50 C49 1.362 . S
C50 C51 1.366 . S
C51 C48 1.365 . S
C51 C50 1.366 . S
C51 H65 0.930 . S
C52 C49 1.378 . S
C52 N53 1.315 . S
C52 H55 0.930 . S
N53 Co33 2.194 . S
N53 C48 1.328 . S
N53 C52 1.315 . S
H54 C48 0.929 1_556 S
H55 C52 0.930 . S
H56 C44 0.929 . S
H57 C46 0.929 . S
O58 Co33 2.351 . S
O58 C61 1.244 . S
O59 Co33 2.155 . S
O59 C61 1.240 . S
O60 Co33 2.096 . S
O60 C41 1.247 . S
C61 O58 1.244 . S
C61 O59 1.240 . S
H62 C36 0.931 . S
H63 C45 0.931 . S
H64 C49 0.929 . S
H65 C51 0.930 . S
H66 C74 0.950 . S
H67 C79 0.950 . S
H68 C76 0.950 . S
H69 C78 0.950 . S
H70 C80 0.950 . S
H71 C82 0.950 . S
H72 C84 0.950 . S
H73 C85 0.950 . S
C74 H66 0.950 . S
C74 C75 1.386 . S
C74 C76 1.391 . S
C75 C74 1.386 . S
C75 C79 1.393 1_554 S
C76 H68 0.950 . S
C76 C74 1.391 . S
C76 C77 1.400 . S
C77 C76 1.400 . S
C77 C78 1.398 1_554 S
C77 C83 1.491 . S
C78 H69 0.950 . S
C78 C77 1.398 1_556 S
C78 C79 1.391 . S
C79 H67 0.950 . S
C79 C75 1.393 1_556 S
C79 C78 1.391 . S
C80 H70 0.950 . S
C80 C81 1.386 1_556 S
C80 C82 1.391 . S
C81 C80 1.386 1_554 S
C81 C85 1.393 . S
C82 H71 0.950 . S
C82 C80 1.391 . S
C82 C83 1.400 1_556 S
C83 C77 1.491 . S
C83 C82 1.400 1_554 S
C83 C84 1.398 . S
C84 H72 0.950 . S
C84 C83 1.398 . S
C84 C85 1.391 . S
C85 H73 0.950 . S
C85 C81 1.393 . S
C85 C84 1.391 . S
H86 C94 0.950 . S
H87 C99 0.950 . S
H88 C96 0.950 . S
H89 C98 0.950 . S
H90 C100 0.950 . S
H91 C102 0.950 . S
H92 C104 0.950 . S
H93 C105 0.950 . S
C94 H86 0.950 . S
C94 C95 1.386 . S
C94 C96 1.391 . S
C95 C94 1.386 . S
C95 C99 1.393 1_554 S
C96 H88 0.950 . S
C96 C94 1.391 . S
C96 C97 1.400 . S
C97 C96 1.400 . S
C97 C98 1.398 1_554 S
C97 C103 1.491 1_655 S
C98 H89 0.950 . S
C98 C97 1.398 1_556 S
C98 C99 1.391 . S
C99 H87 0.950 . S
C99 C95 1.393 1_556 S
C99 C98 1.391 . S
C100 H90 0.950 . S
C100 C101 1.386 1_556 S
C100 C102 1.391 . S
C101 C100 1.386 1_554 S
C101 C105 1.393 . S
C102 H91 0.950 . S
C102 C100 1.391 . S
C102 C103 1.400 1_556 S
C103 C97 1.491 1_455 S
C103 C102 1.400 1_554 S
C103 C104 1.398 . S
C104 H92 0.950 . S
C104 C103 1.398 . S
C104 C105 1.391 . S
C105 H93 0.950 . S
C105 C101 1.393 . S
C105 C104 1.391 . S
H106 C114 0.950 . S
H107 C119 0.950 . S
H108 C116 0.950 . S
H109 C118 0.950 . S
H110 C120 0.950 . S
H111 C122 0.950 . S
H112 C124 0.950 . S
H113 C125 0.950 . S
C114 H106 0.950 . S
C114 C115 1.386 1_556 S
C114 C116 1.391 . S
C115 C114 1.386 1_554 S
C115 C119 1.393 . S
C116 H108 0.950 . S
C116 C114 1.391 . S
C116 C117 1.400 1_556 S
C117 C116 1.400 1_554 S
C117 C118 1.398 . S
C117 C123 1.491 1_565 S
C118 H109 0.950 . S
C118 C117 1.398 . S
C118 C119 1.391 . S
C119 H107 0.950 . S
C119 C115 1.393 . S
C119 C118 1.391 . S
C120 H110 0.950 . S
C120 C121 1.386 . S
C120 C122 1.391 . S
C121 C120 1.386 . S
C121 C125 1.393 1_554 S
C122 H111 0.950 . S
C122 C120 1.391 . S
C122 C123 1.400 . S
C123 C117 1.491 1_545 S
C123 C122 1.400 . S
C123 C124 1.398 1_554 S
C124 H112 0.950 . S
C124 C123 1.398 1_556 S
C124 C125 1.391 . S
C125 H113 0.950 . S
C125 C121 1.393 1_556 S
C125 C124 1.391 . S
H126 C134 0.950 . S
H127 C139 0.950 . S
H128 C136 0.950 . S
H129 C138 0.950 . S
H130 C140 0.950 . S
H131 C142 0.950 . S
H132 C144 0.950 . S
H133 C145 0.950 . S
C134 H126 0.950 . S
C134 C135 1.386 . S
C134 C136 1.391 . S
C135 C134 1.386 . S
C135 C139 1.393 . S
C136 H128 0.950 . S
C136 C134 1.391 . S
C136 C137 1.400 . S
C137 C136 1.400 . S
C137 C138 1.398 . S
C137 C143 1.491 . S
C138 H129 0.950 . S
C138 C137 1.398 . S
C138 C139 1.391 . S
C139 H127 0.950 . S
C139 C135 1.393 . S
C139 C138 1.391 . S
C140 H130 0.950 . S
C140 C141 1.386 . S
C140 C142 1.391 . S
C141 C140 1.386 . S
C141 C145 1.393 . S
C142 H131 0.950 . S
C142 C140 1.391 . S
C142 C143 1.400 . S
C143 C137 1.491 . S
C143 C142 1.400 . S
C143 C144 1.398 . S
C144 H132 0.950 . S
C144 C143 1.398 . S
C144 C145 1.391 . S
C145 H133 0.950 . S
C145 C141 1.393 . S
C145 C144 1.391 . S
H146 C154 0.950 . S
H147 C159 0.950 . S
H148 C156 0.950 . S
H149 C158 0.950 . S
H150 C160 0.950 . S
H151 C162 0.950 . S
H152 C164 0.950 . S
H153 C165 0.950 . S
C154 H146 0.950 . S
C154 C155 1.386 . S
C154 C156 1.391 . S
C155 C154 1.386 . S
C155 C159 1.393 . S
C156 H148 0.950 . S
C156 C154 1.391 . S
C156 C157 1.400 . S
C157 C156 1.400 . S
C157 C158 1.398 . S
C157 C163 1.491 . S
C158 H149 0.950 . S
C158 C157 1.398 . S
C158 C159 1.391 . S
C159 H147 0.950 . S
C159 C155 1.393 . S
C159 C158 1.391 . S
C160 H150 0.950 . S
C160 C161 1.386 . S
C160 C162 1.391 . S
C161 C160 1.386 . S
C161 C165 1.393 . S
C162 H151 0.950 . S
C162 C160 1.391 . S
C162 C163 1.400 . S
C163 C157 1.491 . S
C163 C162 1.400 . S
C163 C164 1.398 . S
C164 H152 0.950 . S
C164 C163 1.398 . S
C164 C165 1.391 . S
C165 H153 0.950 . S
C165 C161 1.393 . S
C165 C164 1.391 . S
C75 C17 1.495 . S
C81 C61 1.503 . S
C95 C50 1.500 . S
C101 C28 1.497 . S
C115 C8 1.501 . S
C121 C41 1.499 . S
C135 N14 1.475 . S
C141 N5 1.478 . S
C155 N47 1.455 . S
C161 N38 1.460 . S
