# Generated by pormake.
# Topology unf, (4)-cn, num edge types: 1
# Building blocks:
#     Node 0, Type 0, BuildingBlock: NAHDIM_clean_sbu_0, # of connection points: 4
#     Node 1, Type 0, BuildingBlock: NAHDIM_clean_sbu_0, # of connection points: 4
#     Node 2, Type 0, BuildingBlock: NAHDIM_clean_sbu_0, # of connection points: 4
#     Node 3, Type 0, BuildingBlock: NAHDIM_clean_sbu_0, # of connection points: 4
#     Node 4, Type 0, BuildingBlock: NAHDIM_clean_sbu_0, # of connection points: 4
#     Node 5, Type 0, BuildingBlock: NAHDIM_clean_sbu_0, # of connection points: 4
#     Node 6, Type 0, BuildingBlock: NAHDIM_clean_sbu_0, # of connection points: 4
#     Node 7, Type 0, BuildingBlock: NAHDIM_clean_sbu_0, # of connection points: 4
#     Node 8, Type 0, BuildingBlock: NAHDIM_clean_sbu_0, # of connection points: 4
#     Node 9, Type 0, BuildingBlock: NAHDIM_clean_sbu_0, # of connection points: 4
#     Node 10, Type 0, BuildingBlock: NAHDIM_clean_sbu_0, # of connection points: 4
#     Node 11, Type 0, BuildingBlock: NAHDIM_clean_sbu_0, # of connection points: 4
#     Edge 12, Type (0, 0), None
#     Edge 13, Type (0, 0), None
#     Edge 14, Type (0, 0), None
#     Edge 15, Type (0, 0), None
#     Edge 16, Type (0, 0), None
#     Edge 17, Type (0, 0), None
#     Edge 18, Type (0, 0), None
#     Edge 19, Type (0, 0), None
#     Edge 20, Type (0, 0), None
#     Edge 21, Type (0, 0), None
#     Edge 22, Type (0, 0), None
#     Edge 23, Type (0, 0), None
#     Edge 24, Type (0, 0), None
#     Edge 25, Type (0, 0), None
#     Edge 26, Type (0, 0), None
#     Edge 27, Type (0, 0), None
#     Edge 28, Type (0, 0), None
#     Edge 29, Type (0, 0), None
#     Edge 30, Type (0, 0), None
#     Edge 31, Type (0, 0), None
#     Edge 32, Type (0, 0), None
#     Edge 33, Type (0, 0), None
#     Edge 34, Type (0, 0), None
#     Edge 35, Type (0, 0), None
# Relax obj value: 0.223
# Max RMSD: 0.172
# Mean RMSD: 0.172
data_MOF--net-unf--node1-NAHDIM_clean_sbu_0--edge1-none
_symmetry_space_group_name_H-M    P1
_symmetry_Int_Tables_number       1
_symmetry_cell_setting            triclinic
loop_
_symmetry_equiv_pos_as_xyz
'x, y, z'
_cell_length_a     18.264343
_cell_length_b     18.264467
_cell_length_c     16.624852
_cell_angle_alpha  89.999287
_cell_angle_beta   90.000058
_cell_angle_gamma 120.00113
loop_
_atom_site_label
_atom_site_type_symbol
_atom_site_fract_x
_atom_site_fract_y
_atom_site_fract_z
_atom_type_partial_charge
C0 C 0.12972 0.40329 0.24713 0.0
O1 O 0.15401 0.47422 0.20797 0.0
O2 O -0.02012 0.42174 0.10301 0.0
Zn3 Zn 0.01421 0.33323 0.11367 0.0
O4 O 0.10018 0.35033 1.02961 0.0
C5 C 0.83587 0.20369 0.09761 0.0
O6 O 0.81879 0.25945 0.12893 0.0
O7 O 0.06787 0.33493 0.22073 0.0
C8 C 0.106 0.28531 1.01429 0.0
O9 O 0.05502 0.21374 0.05066 0.0
C10 C -0.05812 0.42132 0.03871 0.0
O11 O -0.06952 0.36713 0.9814 0.0
O12 O 0.91196 0.22037 0.09147 0.0
C13 C 0.47232 0.70153 0.24714 0.0
O14 O 0.40139 0.6549 0.20797 0.0
O15 O 0.45387 0.53325 0.10301 0.0
Zn16 Zn 0.54238 0.65609 0.11368 0.0
O17 O 0.52528 0.72496 1.02962 0.0
C18 C 0.67192 0.60729 0.09761 0.0
O19 O 0.61615 0.53445 0.12893 0.0
O20 O 0.54068 0.70806 0.22074 0.0
C21 C 0.5903 0.7958 1.0143 0.0
O22 O 0.66188 0.81639 0.05066 0.0
C23 C 0.45429 0.49568 0.03871 0.0
O24 O 0.50848 0.53848 0.9814 0.0
O25 O 0.65525 0.66671 0.09148 0.0
C26 C 0.17407 0.7459 0.24714 0.0
O27 O 0.2207 0.72161 0.20797 0.0
O28 O 0.34236 0.89574 0.10301 0.0
Zn29 Zn 0.21952 0.8614 0.11367 0.0
O30 O 0.15064 0.77543 1.02961 0.0
C31 C 0.26832 0.03974 0.09761 0.0
O32 O 0.34116 0.05683 0.12892 0.0
O33 O 0.16755 0.80774 0.22073 0.0
C34 C 0.0798 0.76961 1.0143 0.0
O35 O 0.05921 0.8206 0.05066 0.0
C36 C 0.37993 0.93373 0.03871 0.0
O37 O 0.33714 0.94512 0.9814 0.0
O38 O 0.2089 -0.03635 0.09147 0.0
C39 C 0.47232 0.74589 0.32085 0.0
O40 O 0.40139 0.72159 0.36002 0.0
O41 O 0.45387 0.89573 0.46497 0.0
Zn42 Zn 0.54237 0.8614 0.45431 0.0
O43 O 0.52528 0.77543 0.53837 0.0
C44 C 0.67192 0.03974 0.47037 0.0
O45 O 0.61616 0.05682 0.43905 0.0
O46 O 0.54068 0.80774 0.34725 0.0
C47 C 0.5903 0.76961 0.55368 0.0
O48 O 0.66187 0.82059 0.51732 0.0
C49 C 0.45429 0.93373 0.52927 0.0
O50 O 0.50848 0.94513 0.58658 0.0
O51 O 0.65524 -0.03635 0.47651 0.0
C52 C 0.12972 0.70154 0.32084 0.0
O53 O 0.15401 0.65491 0.36001 0.0
O54 O -0.02012 0.53325 0.46497 0.0
Zn55 Zn 0.01421 0.65609 0.45431 0.0
O56 O 0.10018 0.72497 0.53837 0.0
C57 C 0.83587 0.60729 0.47037 0.0
O58 O 0.81878 0.53445 0.43906 0.0
O59 O 0.06787 0.70806 0.34725 0.0
C60 C 0.106 0.79581 0.55369 0.0
O61 O 0.05502 0.8164 0.51732 0.0
C62 C -0.05812 0.49568 0.52927 0.0
O63 O -0.06952 0.53847 0.58658 0.0
O64 O 0.91196 0.66671 0.47651 0.0
C65 C 0.17407 0.40329 0.32084 0.0
O66 O 0.22071 0.47422 0.36001 0.0
O67 O 0.34236 0.42174 0.46497 0.0
Zn68 Zn 0.21952 0.33323 0.4543 0.0
O69 O 0.15065 0.35033 0.53836 0.0
C70 C 0.26832 0.20369 0.47037 0.0
O71 O 0.34116 0.25945 0.43905 0.0
O72 O 0.16755 0.33492 0.34724 0.0
C73 C 0.0798 0.28531 0.55368 0.0
O74 O 0.05921 0.21373 0.51732 0.0
C75 C 0.37993 0.42132 0.52927 0.0
O76 O 0.33713 0.36713 0.58658 0.0
O77 O 0.2089 0.22036 0.4765 0.0
C78 C 0.72101 0.49718 0.82085 0.0
O79 O 0.69672 0.42626 0.86001 0.0
O80 O 0.87085 0.47873 0.96497 0.0
Zn81 Zn 0.83653 0.56724 0.9543 0.0
O82 O 0.75056 0.55016 0.03837 0.0
C83 C 0.01487 0.69678 0.97035 0.0
O84 O 0.03196 0.64102 0.93905 0.0
O85 O 0.78286 0.56555 0.84725 0.0
C86 C 0.74475 0.61519 0.05368 0.0
O87 O 0.79574 0.68676 1.01732 0.0
C88 C 0.90885 0.47916 1.02927 0.0
O89 O 0.92026 0.53335 0.08658 0.0
O90 O -0.06122 0.68011 0.9765 0.0
C91 C 0.37843 0.19895 0.82084 0.0
O92 O 0.44935 0.24559 0.86001 0.0
O93 O 0.39688 0.36724 0.96497 0.0
Zn94 Zn 0.30836 0.2444 0.9543 0.0
O95 O 0.32545 0.17552 0.03836 0.0
C96 C 0.17883 0.2932 0.97035 0.0
O97 O 0.23459 0.36606 0.93904 0.0
O98 O 0.31006 0.19243 0.84724 0.0
C99 C 0.26042 0.10468 0.05367 0.0
O100 O 0.18884 0.08409 1.01732 0.0
C101 C 0.39645 0.40481 1.02927 0.0
O102 O 0.34225 0.36201 0.08658 0.0
O103 O 0.1955 0.23378 0.97649 0.0
C104 C 0.67666 0.15459 0.82084 0.0
O105 O 0.63003 0.17888 0.86001 0.0
O106 O 0.50837 0.00475 0.96497 0.0
Zn107 Zn 0.63121 0.03908 0.9543 0.0
O108 O 0.7001 0.12504 0.03837 0.0
C109 C 0.58241 0.86074 0.97035 0.0
O110 O 0.50955 0.84364 0.93906 0.0
O111 O 0.68318 0.09274 0.84724 0.0
C112 C 0.77093 0.13086 0.05367 0.0
O113 O 0.79152 0.07987 1.01732 0.0
C114 C 0.4708 -0.03324 1.02927 0.0
O115 O 0.51359 -0.04464 0.08658 0.0
O116 O 0.64183 0.93683 0.9765 0.0
C117 C 0.37843 0.1546 0.74713 0.0
O118 O 0.44936 0.17889 0.70796 0.0
O119 O 0.39688 0.00475 0.60301 0.0
Zn120 Zn 0.30837 0.03908 0.61368 0.0
O121 O 0.32545 0.12505 0.52961 0.0
C122 C 0.17883 0.86074 0.59763 0.0
O123 O 0.23459 0.84365 0.62893 0.0
O124 O 0.31006 0.09275 0.72074 0.0
C125 C 0.26042 0.13086 0.51431 0.0
O126 O 0.18885 0.07987 0.55066 0.0
C127 C 0.39645 -0.03324 0.53871 0.0
O128 O 0.34225 -0.04465 0.4814 0.0
O129 O 0.1955 0.93683 0.59149 0.0
C130 C 0.72102 0.19894 0.74714 0.0
O131 O 0.69673 0.24558 0.70797 0.0
O132 O 0.87086 0.36723 0.60301 0.0
Zn133 Zn 0.83653 0.24439 0.61368 0.0
O134 O 0.75056 0.17551 0.52961 0.0
C135 C 0.01487 0.2932 0.59763 0.0
O136 O 0.03197 0.36606 0.62892 0.0
O137 O 0.78287 0.19243 0.72074 0.0
C138 C 0.74475 0.10468 0.5143 0.0
O139 O 0.79574 0.08409 0.55066 0.0
C140 C 0.90885 0.40481 0.53871 0.0
O141 O 0.92026 0.36202 0.4814 0.0
O142 O -0.06122 0.23378 0.59148 0.0
C143 C 0.67666 0.49718 0.74714 0.0
O144 O 0.63003 0.42626 0.70797 0.0
O145 O 0.50837 0.47874 0.60301 0.0
Zn146 Zn 0.63121 0.56725 0.61368 0.0
O147 O 0.70009 0.55016 0.52962 0.0
C148 C 0.58241 0.69678 0.59763 0.0
O149 O 0.50955 0.64102 0.62893 0.0
O150 O 0.68318 0.56555 0.72074 0.0
C151 C 0.77093 0.61519 0.51431 0.0
O152 O 0.79152 0.68677 0.55066 0.0
C153 C 0.4708 0.47916 0.53871 0.0
O154 O 0.5136 0.53335 0.4814 0.0
O155 O 0.64183 0.68011 0.59149 0.0
loop_
_geom_bond_atom_site_label_1
_geom_bond_atom_site_label_2
_geom_bond_distance
_geom_bond_site_symmetry_2
_ccdc_geom_bond_type
C0 O1 1.160 . S
C0 O7 1.185 . S
O1 C0 1.160 . S
O2 Zn3 1.899 . S
O2 C10 1.284 . S
Zn3 O2 1.899 . S
Zn3 O4 2.032 . S
Zn3 O7 2.086 . S
Zn3 O12 1.977 1_455 S
O4 Zn3 2.032 . S
O4 C8 1.278 1_554 S
C5 O6 1.203 1_554 S
C5 O12 1.267 . S
O6 C5 1.203 1_556 S
O7 C0 1.185 . S
O7 Zn3 2.086 . S
C8 O4 1.278 1_556 S
C8 O9 1.211 . S
O9 C8 1.211 . S
C10 O2 1.284 . S
C10 O11 1.273 1_554 S
O11 C10 1.273 1_556 S
O12 Zn3 1.977 1_655 S
O12 C5 1.267 . S
C13 O14 1.160 . S
C13 O20 1.185 . S
O14 C13 1.160 . S
O15 Zn16 1.899 . S
O15 C23 1.284 . S
Zn16 O15 1.899 . S
Zn16 O17 2.032 . S
Zn16 O20 2.086 . S
Zn16 O25 1.977 . S
O17 Zn16 2.032 . S
O17 C21 1.278 1_554 S
C18 O19 1.203 1_554 S
C18 O25 1.267 . S
O19 C18 1.203 1_556 S
O20 C13 1.185 . S
O20 Zn16 2.086 . S
C21 O17 1.278 1_556 S
C21 O22 1.211 . S
O22 C21 1.211 . S
C23 O15 1.284 . S
C23 O24 1.273 1_554 S
O24 C23 1.273 1_556 S
O25 Zn16 1.977 . S
O25 C18 1.267 . S
C26 O27 1.160 . S
C26 O33 1.185 . S
O27 C26 1.160 . S
O28 Zn29 1.899 . S
O28 C36 1.284 . S
Zn29 O28 1.899 . S
Zn29 O30 2.032 . S
Zn29 O33 2.086 . S
Zn29 O38 1.977 1_565 S
O30 Zn29 2.032 . S
O30 C34 1.278 1_554 S
C31 O32 1.203 1_554 S
C31 O38 1.267 . S
O32 C31 1.203 1_556 S
O33 C26 1.185 . S
O33 Zn29 2.086 . S
C34 O30 1.278 1_556 S
C34 O35 1.211 . S
O35 C34 1.211 . S
C36 O28 1.284 . S
C36 O37 1.273 1_554 S
O37 C36 1.273 1_556 S
O38 Zn29 1.977 1_545 S
O38 C31 1.267 . S
C39 O40 1.160 . S
C39 O46 1.185 . S
O40 C39 1.160 . S
O41 Zn42 1.899 . S
O41 C49 1.284 . S
Zn42 O41 1.899 . S
Zn42 O43 2.032 . S
Zn42 O46 2.086 . S
Zn42 O51 1.977 1_565 S
O43 Zn42 2.032 . S
O43 C47 1.278 . S
C44 O45 1.203 . S
C44 O51 1.267 . S
O45 C44 1.203 . S
O46 C39 1.185 . S
O46 Zn42 2.086 . S
C47 O43 1.278 . S
C47 O48 1.211 . S
O48 C47 1.211 . S
C49 O41 1.284 . S
C49 O50 1.273 . S
O50 C49 1.273 . S
O51 Zn42 1.977 1_545 S
O51 C44 1.267 . S
C52 O53 1.160 . S
C52 O59 1.185 . S
O53 C52 1.160 . S
O54 Zn55 1.899 . S
O54 C62 1.284 . S
Zn55 O54 1.899 . S
Zn55 O56 2.032 . S
Zn55 O59 2.086 . S
Zn55 O64 1.977 1_455 S
O56 Zn55 2.032 . S
O56 C60 1.278 . S
C57 O58 1.203 . S
C57 O64 1.267 . S
O58 C57 1.203 . S
O59 C52 1.185 . S
O59 Zn55 2.086 . S
C60 O56 1.278 . S
C60 O61 1.211 . S
O61 C60 1.211 . S
C62 O54 1.284 . S
C62 O63 1.273 . S
O63 C62 1.273 . S
O64 Zn55 1.977 1_655 S
O64 C57 1.267 . S
C65 O66 1.160 . S
C65 O72 1.185 . S
O66 C65 1.160 . S
O67 Zn68 1.899 . S
O67 C75 1.284 . S
Zn68 O67 1.899 . S
Zn68 O69 2.032 . S
Zn68 O72 2.086 . S
Zn68 O77 1.977 . S
O69 Zn68 2.032 . S
O69 C73 1.278 . S
C70 O71 1.203 . S
C70 O77 1.267 . S
O71 C70 1.203 . S
O72 C65 1.185 . S
O72 Zn68 2.086 . S
C73 O69 1.278 . S
C73 O74 1.211 . S
O74 C73 1.211 . S
C75 O67 1.284 . S
C75 O76 1.273 . S
O76 C75 1.273 . S
O77 Zn68 1.977 . S
O77 C70 1.267 . S
C78 O79 1.160 . S
C78 O85 1.185 . S
O79 C78 1.160 . S
O80 Zn81 1.899 . S
O80 C88 1.284 . S
Zn81 O80 1.899 . S
Zn81 O82 2.032 . S
Zn81 O85 2.086 . S
Zn81 O90 1.977 1_655 S
O82 Zn81 2.032 . S
O82 C86 1.278 1_556 S
C83 O84 1.203 1_556 S
C83 O90 1.267 . S
O84 C83 1.203 1_554 S
O85 C78 1.185 . S
O85 Zn81 2.086 . S
C86 O82 1.278 1_554 S
C86 O87 1.211 . S
O87 C86 1.211 . S
C88 O80 1.284 . S
C88 O89 1.273 1_556 S
O89 C88 1.273 1_554 S
O90 Zn81 1.977 1_455 S
O90 C83 1.267 . S
C91 O92 1.160 . S
C91 O98 1.185 . S
O92 C91 1.160 . S
O93 Zn94 1.899 . S
O93 C101 1.284 . S
Zn94 O93 1.899 . S
Zn94 O95 2.032 . S
Zn94 O98 2.086 . S
Zn94 O103 1.977 . S
O95 Zn94 2.032 . S
O95 C99 1.278 1_556 S
C96 O97 1.203 1_556 S
C96 O103 1.267 . S
O97 C96 1.203 1_554 S
O98 C91 1.185 . S
O98 Zn94 2.086 . S
C99 O95 1.278 1_554 S
C99 O100 1.211 . S
O100 C99 1.211 . S
C101 O93 1.284 . S
C101 O102 1.273 1_556 S
O102 C101 1.273 1_554 S
O103 Zn94 1.977 . S
O103 C96 1.267 . S
C104 O105 1.160 . S
C104 O111 1.185 . S
O105 C104 1.160 . S
O106 Zn107 1.899 . S
O106 C114 1.284 . S
Zn107 O106 1.899 . S
Zn107 O108 2.032 . S
Zn107 O111 2.086 . S
Zn107 O116 1.977 1_545 S
O108 Zn107 2.032 . S
O108 C112 1.278 1_556 S
C109 O110 1.203 1_556 S
C109 O116 1.267 . S
O110 C109 1.203 1_554 S
O111 C104 1.185 . S
O111 Zn107 2.086 . S
C112 O108 1.278 1_554 S
C112 O113 1.211 . S
O113 C112 1.211 . S
C114 O106 1.284 . S
C114 O115 1.273 1_556 S
O115 C114 1.273 1_554 S
O116 Zn107 1.977 1_565 S
O116 C109 1.267 . S
C117 O118 1.160 . S
C117 O124 1.185 . S
O118 C117 1.160 . S
O119 Zn120 1.899 . S
O119 C127 1.284 . S
Zn120 O119 1.899 . S
Zn120 O121 2.032 . S
Zn120 O124 2.086 . S
Zn120 O129 1.977 1_545 S
O121 Zn120 2.032 . S
O121 C125 1.278 . S
C122 O123 1.203 . S
C122 O129 1.267 . S
O123 C122 1.203 . S
O124 C117 1.185 . S
O124 Zn120 2.086 . S
C125 O121 1.278 . S
C125 O126 1.211 . S
O126 C125 1.211 . S
C127 O119 1.284 . S
C127 O128 1.273 . S
O128 C127 1.273 . S
O129 Zn120 1.977 1_565 S
O129 C122 1.267 . S
C130 O131 1.160 . S
C130 O137 1.185 . S
O131 C130 1.160 . S
O132 Zn133 1.899 . S
O132 C140 1.284 . S
Zn133 O132 1.899 . S
Zn133 O134 2.032 . S
Zn133 O137 2.086 . S
Zn133 O142 1.977 1_655 S
O134 Zn133 2.032 . S
O134 C138 1.278 . S
C135 O136 1.203 . S
C135 O142 1.267 . S
O136 C135 1.203 . S
O137 C130 1.185 . S
O137 Zn133 2.086 . S
C138 O134 1.278 . S
C138 O139 1.211 . S
O139 C138 1.211 . S
C140 O132 1.284 . S
C140 O141 1.273 . S
O141 C140 1.273 . S
O142 Zn133 1.977 1_455 S
O142 C135 1.267 . S
C143 O144 1.160 . S
C143 O150 1.185 . S
O144 C143 1.160 . S
O145 Zn146 1.899 . S
O145 C153 1.284 . S
Zn146 O145 1.899 . S
Zn146 O147 2.032 . S
Zn146 O150 2.086 . S
Zn146 O155 1.977 . S
O147 Zn146 2.032 . S
O147 C151 1.278 . S
C148 O149 1.203 . S
C148 O155 1.267 . S
O149 C148 1.203 . S
O150 C143 1.185 . S
O150 Zn146 2.086 . S
C151 O147 1.278 . S
C151 O152 1.211 . S
O152 C151 1.211 . S
C153 O145 1.284 . S
C153 O154 1.273 . S
O154 C153 1.273 . S
O155 Zn146 1.977 . S
O155 C148 1.267 . S
C8 C96 0.680 . S
C21 C109 0.680 . S
C34 C83 0.680 . S
C148 C47 0.680 . S
C60 C122 0.680 . S
C135 C73 0.680 . S
C18 C86 0.680 . S
C99 C31 0.680 . S
C5 C112 0.680 . S
C125 C70 0.680 . S
C138 C44 0.680 . S
C57 C151 0.680 . S
C65 C0 2.573 . S
C13 C39 2.573 . S
C26 C52 2.573 . S
C78 C143 2.573 . S
C91 C117 2.573 . S
C104 C130 2.573 . S
C10 C88 1.853 1_454 S
C23 C101 1.853 1_554 S
C36 C114 1.853 1_564 S
C49 C127 1.853 1_565 S
C140 C62 1.853 1_655 S
C75 C153 1.853 . S
