# Generated by pormake.
# Topology hex, (8)-cn, num edge types: 1
# Building blocks:
#     Node 0, Type 0, BuildingBlock: EBIMEJ_clean_sbu_0, # of connection points: 8
#     Edge 1, Type (0, 0), BuildingBlock: EZIPEK_clean_linker_0, # of connection points: 2
#     Edge 2, Type (0, 0), BuildingBlock: EZIPEK_clean_linker_0, # of connection points: 2
#     Edge 3, Type (0, 0), BuildingBlock: EZIPEK_clean_linker_0, # of connection points: 2
#     Edge 4, Type (0, 0), BuildingBlock: EZIPEK_clean_linker_0, # of connection points: 2
# Relax obj value: 0.009
# Max RMSD: 0.048
# Mean RMSD: 0.048
data_MOF--net-hex--node1-EBIMEJ_clean_sbu_0--edge1-EZIPEK_clean_linker_0
_symmetry_space_group_name_H-M    P1
_symmetry_Int_Tables_number       1
_symmetry_cell_setting            triclinic
loop_
_symmetry_equiv_pos_as_xyz
'x, y, z'
_cell_length_a     13.572162
_cell_length_b     16.270264
_cell_length_c     12.104779
_cell_angle_alpha  75.100315
_cell_angle_beta   114.03989
_cell_angle_gamma 126.73606
loop_
_atom_site_label
_atom_site_type_symbol
_atom_site_fract_x
_atom_site_fract_y
_atom_site_fract_z
_atom_type_partial_charge
Co0 Co 0.99142 0.85001 0.95874 0.0
Co1 Co 0.86671 0.9537 0.00461 0.0
Co2 Co 0.14327 0.08739 1.00252 0.0
H3 H 0.0528 0.96629 0.00484 0.0
O4 O 0.01665 0.94324 0.0598 0.0
H5 H 0.95718 0.0748 1.00229 0.0
O6 O 0.99333 0.09785 0.94733 0.0
Co7 Co 0.01855 0.19108 0.04838 0.0
O8 O 0.83153 0.12252 0.03799 0.0
O9 O 0.72044 0.9705 0.95367 0.0
O10 O 0.20306 0.30385 0.04903 0.0
O11 O 0.26518 0.23611 0.97266 0.0
O12 O 0.91456 0.71089 0.89474 0.0
O13 O 0.07086 0.76758 0.05528 0.0
O14 O 0.06734 0.14055 0.21748 0.0
O15 O 0.90601 0.97638 0.17868 0.0
C16 C 0.28483 1.00157 0.01555 0.0
C17 C 0.72772 0.72871 0.99842 0.0
C18 C 0.0162 0.34526 0.02597 0.0
C19 C 0.01742 0.99048 0.75482 0.0
C20 C 0.72515 0.03951 0.99158 0.0
C21 C 0.28226 0.31238 0.0087 0.0
C22 C 0.99378 0.69582 0.98116 0.0
C23 C 0.99256 0.05061 0.25231 0.0
O24 O 0.17845 0.91856 0.96913 0.0
O25 O 0.28954 0.07058 0.05346 0.0
O26 O 0.7448 0.80497 0.03447 0.0
O27 O 0.80691 0.73723 0.95809 0.0
O28 O 0.09542 0.33019 0.11239 0.0
O29 O 0.93912 0.27351 0.95185 0.0
O30 O 0.94263 0.90053 0.78965 0.0
O31 O 0.10397 0.0647 0.82845 0.0
C32 C 0.90122 0.421 0.02569 0.0
C33 C 0.01089 0.43513 0.01491 0.0
C34 C 0.10876 0.62009 0.98144 0.0
C35 C 0.99908 0.60595 0.99222 0.0
N36 N 0.7856 0.4949 0.01293 0.0
N37 N 0.22438 0.54619 0.9942 0.0
C38 C 0.89346 0.50679 0.01055 0.0
C39 C 0.11651 0.53429 0.99659 0.0
N40 N 0.80895 0.32662 0.05851 0.0
N41 N 0.20103 0.71446 0.94863 0.0
H42 H 0.22952 0.48468 0.99505 0.0
H43 H 0.31167 0.61664 0.99693 0.0
H44 H 0.19612 0.77815 0.93219 0.0
H45 H 0.27784 0.72929 0.92846 0.0
H46 H 0.73213 0.31179 0.07866 0.0
H47 H 0.81385 0.26293 0.07494 0.0
H48 H 0.69831 0.42444 0.01021 0.0
H49 H 0.78046 0.55641 0.0121 0.0
C50 C 0.54213 0.95268 0.0743 0.0
C51 C 0.60483 0.02278 0.98986 0.0
C52 C 0.46785 0.0884 0.93282 0.0
C53 C 0.40514 1.01831 0.01727 0.0
N54 N 0.39324 0.89608 0.18156 0.0
N55 N 0.61674 0.14501 0.82557 0.0
C56 C 0.44474 0.95327 0.09116 0.0
C57 C 0.56523 0.08782 0.91597 0.0
N58 N 0.57466 0.88474 0.13703 0.0
N59 N 0.43531 0.15634 0.87009 0.0
H60 H 0.68474 0.14306 0.80856 0.0
H61 H 0.58564 0.18796 0.76098 0.0
H62 H 0.36168 0.15697 0.87677 0.0
H63 H 0.48633 0.21702 0.81728 0.0
H64 H 0.52364 0.82406 0.18983 0.0
H65 H 0.64829 0.88411 0.13035 0.0
H66 H 0.42434 0.85312 0.24614 0.0
H67 H 0.32523 0.89802 0.19857 0.0
C68 C 0.4165 0.46557 0.89347 0.0
C69 C 0.40016 0.41692 0.00615 0.0
C70 C 0.59347 0.57552 0.11365 0.0
C71 C 0.60981 0.62416 1.00097 0.0
N72 N 0.5443 0.61687 0.78425 0.0
N73 N 0.46568 0.42422 0.22287 0.0
C74 C 0.52335 0.56931 0.89111 0.0
C75 C 0.48663 0.47178 0.11601 0.0
N76 N 0.32482 0.41459 0.78824 0.0
N77 N 0.68516 0.62649 0.21888 0.0
H78 H 0.39839 0.34569 0.23072 0.0
H79 H 0.51132 0.46215 0.30369 0.0
H80 H 0.765 0.70209 0.22137 0.0
H81 H 0.68782 0.59324 0.30486 0.0
H82 H 0.32216 0.44784 0.70227 0.0
H83 H 0.24498 0.33899 0.78576 0.0
H84 H 0.49865 0.57895 0.70343 0.0
H85 H 0.61157 0.6954 0.7764 0.0
C86 C 0.97605 0.07325 0.55035 0.0
C87 C 0.01258 1.00705 0.62647 0.0
C88 C 0.03393 0.96783 0.45678 0.0
C89 C 0.9974 0.03403 0.38066 0.0
N90 N 0.93987 0.1545 0.35306 0.0
N91 N 0.0701 0.88658 0.65406 0.0
C92 C 0.9705 0.08826 0.42712 0.0
C93 C 0.03947 0.95282 0.58001 0.0
N94 N 0.93913 0.11684 0.59446 0.0
N95 N 0.07085 0.92425 0.41267 0.0
H96 H 0.08809 0.88061 0.74691 0.0
H97 H 0.07372 0.83425 0.62423 0.0
H98 H 0.06885 0.93397 0.3234 0.0
H99 H 0.1111 0.88326 0.46476 0.0
H100 H 0.89889 0.15784 0.54237 0.0
H101 H 0.94114 0.10713 0.68373 0.0
H102 H 0.93625 0.20683 0.38289 0.0
H103 H 0.92187 0.16047 0.26021 0.0
loop_
_geom_bond_atom_site_label_1
_geom_bond_atom_site_label_2
_geom_bond_distance
_geom_bond_site_symmetry_2
_ccdc_geom_bond_type
Co0 H3 2.400 1_556 S
Co0 O4 2.009 1_556 S
Co0 O12 2.115 1_455 S
Co0 O13 2.315 1_556 S
Co0 O24 2.053 . S
Co0 O27 2.094 1_455 S
Co0 O30 2.122 1_455 S
Co1 O4 2.126 1_655 S
Co1 H5 2.388 1_564 S
Co1 O6 2.053 1_564 S
Co1 O9 2.047 1_554 S
Co1 O15 2.113 . S
Co1 O26 2.063 . S
Co2 H3 2.388 1_546 S
Co2 O4 2.053 1_546 S
Co2 O6 2.126 1_455 S
Co2 O11 2.063 . S
Co2 O25 2.047 1_556 S
Co2 O31 2.113 . S
H3 Co0 2.400 1_554 S
H3 Co2 2.388 1_564 S
H3 O4 0.760 . S
O4 Co0 2.009 1_554 S
O4 Co1 2.126 1_455 S
O4 Co2 2.053 1_564 S
O4 H3 0.760 . S
H5 Co1 2.388 1_546 S
H5 O6 0.760 . S
H5 Co7 2.400 1_556 S
O6 Co1 2.053 1_546 S
O6 Co2 2.126 1_655 S
O6 H5 0.760 . S
O6 Co7 2.009 1_556 S
Co7 H5 2.400 1_554 S
Co7 O6 2.009 1_554 S
Co7 O8 2.053 . S
Co7 O10 2.094 1_655 S
Co7 O14 2.122 1_655 S
Co7 O28 2.115 1_655 S
Co7 O29 2.315 1_554 S
O8 Co7 2.053 . S
O8 C20 1.259 . S
O9 Co1 2.047 1_556 S
O9 C20 1.257 1_566 S
O10 Co7 2.094 1_455 S
O10 C21 1.253 . S
O11 Co2 2.063 . S
O11 C21 1.268 1_556 S
O12 Co0 2.115 1_655 S
O12 C22 1.281 1_556 S
O13 Co0 2.315 1_554 S
O13 C22 1.252 1_455 S
O14 Co7 2.122 1_455 S
O14 C23 1.272 1_455 S
O15 Co1 2.113 . S
O15 C23 1.245 1_565 S
C16 O24 1.259 . S
C16 O25 1.257 1_566 S
C17 O26 1.268 1_556 S
C17 O27 1.253 . S
C18 O28 1.281 1_556 S
C18 O29 1.252 1_455 S
C19 O30 1.272 1_455 S
C19 O31 1.245 1_565 S
C20 O8 1.259 . S
C20 O9 1.257 1_544 S
C21 O10 1.253 . S
C21 O11 1.268 1_554 S
C22 O12 1.281 1_554 S
C22 O13 1.252 1_655 S
C23 O14 1.272 1_655 S
C23 O15 1.245 1_545 S
O24 Co0 2.053 . S
O24 C16 1.259 . S
O25 Co2 2.047 1_554 S
O25 C16 1.257 1_544 S
O26 Co1 2.063 . S
O26 C17 1.268 1_554 S
O27 Co0 2.094 1_655 S
O27 C17 1.253 . S
O28 Co7 2.115 1_455 S
O28 C18 1.281 1_554 S
O29 Co7 2.315 1_556 S
O29 C18 1.252 1_655 S
O30 Co0 2.122 1_655 S
O30 C19 1.272 1_655 S
O31 Co2 2.113 . S
O31 C19 1.245 1_545 S
C32 C33 1.363 1_654 S
C32 C38 1.379 . S
C32 N40 1.356 1_554 S
C33 C32 1.363 1_456 S
C33 C39 1.363 . S
C34 C35 1.363 1_455 S
C34 C39 1.379 1_554 S
C34 N41 1.356 . S
C35 C34 1.363 1_655 S
C35 C38 1.363 . S
N36 C38 1.356 . S
N36 H48 0.984 . S
N36 H49 0.985 . S
N37 C39 1.356 . S
N37 H42 0.984 . S
N37 H43 0.985 . S
C38 C32 1.379 . S
C38 C35 1.363 . S
C38 N36 1.356 . S
C39 C33 1.363 . S
C39 C34 1.379 1_556 S
C39 N37 1.356 . S
N40 C32 1.356 1_556 S
N40 H46 0.984 1_556 S
N40 H47 0.984 . S
N41 C34 1.356 . S
N41 H44 0.984 . S
N41 H45 0.985 1_554 S
H42 N37 0.984 . S
H43 N37 0.985 . S
H44 N41 0.984 . S
H45 N41 0.985 1_556 S
H46 N40 0.984 1_554 S
H47 N40 0.984 . S
H48 N36 0.984 . S
H49 N36 0.985 . S
C50 C51 1.363 . S
C50 C56 1.379 . S
C50 N58 1.356 . S
C51 C50 1.363 . S
C51 C57 1.363 1_564 S
C52 C53 1.363 . S
C52 C57 1.379 . S
C52 N59 1.356 . S
C53 C52 1.363 . S
C53 C56 1.363 1_546 S
N54 C56 1.356 . S
N54 H66 0.984 . S
N54 H67 0.985 . S
N55 C57 1.356 . S
N55 H60 0.984 . S
N55 H61 0.985 . S
C56 C50 1.379 . S
C56 C53 1.363 1_564 S
C56 N54 1.356 . S
C57 C51 1.363 1_546 S
C57 C52 1.379 . S
C57 N55 1.356 . S
N58 C50 1.356 . S
N58 H64 0.984 . S
N58 H65 0.984 . S
N59 C52 1.356 . S
N59 H62 0.984 . S
N59 H63 0.985 . S
H60 N55 0.984 . S
H61 N55 0.985 . S
H62 N59 0.984 . S
H63 N59 0.985 . S
H64 N58 0.984 . S
H65 N58 0.984 . S
H66 N54 0.984 . S
H67 N54 0.985 . S
C68 C69 1.363 1_556 S
C68 C74 1.379 . S
C68 N76 1.356 . S
C69 C68 1.363 1_554 S
C69 C75 1.363 . S
C70 C71 1.363 1_554 S
C70 C75 1.379 . S
C70 N77 1.356 . S
C71 C70 1.363 1_556 S
C71 C74 1.363 . S
N72 C74 1.356 . S
N72 H84 0.984 . S
N72 H85 0.985 . S
N73 C75 1.356 . S
N73 H78 0.984 . S
N73 H79 0.985 . S
C74 C68 1.379 . S
C74 C71 1.363 . S
C74 N72 1.356 . S
C75 C69 1.363 . S
C75 C70 1.379 . S
C75 N73 1.356 . S
N76 C68 1.356 . S
N76 H82 0.984 . S
N76 H83 0.984 . S
N77 C70 1.356 . S
N77 H80 0.984 . S
N77 H81 0.985 . S
H78 N73 0.984 . S
H79 N73 0.985 . S
H80 N77 0.984 . S
H81 N77 0.985 . S
H82 N76 0.984 . S
H83 N76 0.984 . S
H84 N72 0.984 . S
H85 N72 0.985 . S
C86 C87 1.355 1_545 S
C86 C92 1.379 . S
C86 N94 1.356 . S
C87 C86 1.355 1_565 S
C87 C93 1.378 1_455 S
C88 C89 1.363 1_565 S
C88 C93 1.379 . S
C88 N95 1.356 . S
C89 C88 1.363 1_545 S
C89 C92 1.365 1_655 S
N90 C92 1.356 . S
N90 H102 0.984 . S
N90 H103 0.985 . S
N91 C93 1.356 . S
N91 H96 0.984 . S
N91 H97 0.985 . S
C92 C86 1.379 . S
C92 C89 1.365 1_455 S
C92 N90 1.356 . S
C93 C87 1.378 1_655 S
C93 C88 1.379 . S
C93 N91 1.356 . S
N94 C86 1.356 . S
N94 H100 0.984 . S
N94 H101 0.984 . S
N95 C88 1.356 . S
N95 H98 0.984 . S
N95 H99 0.985 . S
H96 N91 0.984 . S
H97 N91 0.985 . S
H98 N95 0.984 . S
H99 N95 0.985 . S
H100 N94 0.984 . S
H101 N94 0.984 . S
H102 N90 0.984 . S
H103 N90 0.985 . S
C33 C18 1.579 . S
C35 C22 1.579 . S
C51 C20 1.168 1_565 S
C53 C16 1.168 1_545 S
C69 C21 1.715 . S
C71 C17 1.715 . S
C87 C19 1.462 . S
C89 C23 1.464 . S
