# Generated by pormake.
# Topology npo, (4)-cn, num edge types: 1
# Building blocks:
#     Node 0, Type 0, BuildingBlock: TATPOV_clean_sbu_0, # of connection points: 4
#     Node 1, Type 0, BuildingBlock: TATPOV_clean_sbu_0, # of connection points: 4
#     Node 2, Type 0, BuildingBlock: TATPOV_clean_sbu_0, # of connection points: 4
#     Node 3, Type 0, BuildingBlock: TATPOV_clean_sbu_0, # of connection points: 4
#     Node 4, Type 0, BuildingBlock: TATPOV_clean_sbu_0, # of connection points: 4
#     Node 5, Type 0, BuildingBlock: TATPOV_clean_sbu_0, # of connection points: 4
#     Edge 6, Type (0, 0), BuildingBlock: OJICUG_clean_linker_0, # of connection points: 2
#     Edge 7, Type (0, 0), BuildingBlock: OJICUG_clean_linker_0, # of connection points: 2
#     Edge 8, Type (0, 0), BuildingBlock: OJICUG_clean_linker_0, # of connection points: 2
#     Edge 9, Type (0, 0), BuildingBlock: OJICUG_clean_linker_0, # of connection points: 2
#     Edge 10, Type (0, 0), BuildingBlock: OJICUG_clean_linker_0, # of connection points: 2
#     Edge 11, Type (0, 0), BuildingBlock: OJICUG_clean_linker_0, # of connection points: 2
#     Edge 12, Type (0, 0), BuildingBlock: OJICUG_clean_linker_0, # of connection points: 2
#     Edge 13, Type (0, 0), BuildingBlock: OJICUG_clean_linker_0, # of connection points: 2
#     Edge 14, Type (0, 0), BuildingBlock: OJICUG_clean_linker_0, # of connection points: 2
#     Edge 15, Type (0, 0), BuildingBlock: OJICUG_clean_linker_0, # of connection points: 2
#     Edge 16, Type (0, 0), BuildingBlock: OJICUG_clean_linker_0, # of connection points: 2
#     Edge 17, Type (0, 0), BuildingBlock: OJICUG_clean_linker_0, # of connection points: 2
# Relax obj value: 0.173
# Max RMSD: 0.210
# Mean RMSD: 0.196
data_MOF--net-npo--node1-TATPOV_clean_sbu_0--edge1-OJICUG_clean_linker_0
_symmetry_space_group_name_H-M    P1
_symmetry_Int_Tables_number       1
_symmetry_cell_setting            triclinic
loop_
_symmetry_equiv_pos_as_xyz
'x, y, z'
_cell_length_a     32.054944
_cell_length_b     31.259312
_cell_length_c     18.165571
_cell_angle_alpha  86.490603
_cell_angle_beta   90.33052
_cell_angle_gamma 120.69215
loop_
_atom_site_label
_atom_site_type_symbol
_atom_site_fract_x
_atom_site_fract_y
_atom_site_fract_z
_atom_type_partial_charge
Zn0 Zn 0.63815 0.14161 0.14535 0.0
Zn1 Zn 0.57393 0.08321 0.24871 0.0
O2 O 0.53984 0.121 0.21303 0.0
O3 O 0.59295 0.1675 0.12359 0.0
O4 O 0.53093 0.0318 0.32986 0.0
O5 O 0.63304 0.0888 0.08492 0.0
O6 O 0.57673 0.03946 0.16863 0.0
C7 C 0.55388 0.15404 0.15942 0.0
C8 C 0.67853 0.16511 0.28479 0.0
O9 O 0.63534 0.13109 0.30372 0.0
O10 O 0.69114 0.17532 0.21716 0.0
C11 C 0.52919 0.04326 0.39536 0.0
O12 O 0.55374 0.0904 0.41025 0.0
C13 C 0.60035 0.04565 0.10856 0.0
Zn14 Zn 0.3269 0.50772 0.52235 0.0
Zn15 Zn 0.36527 0.48055 0.639 0.0
O16 O 0.29607 0.45435 0.67688 0.0
O17 O 0.26341 0.47475 0.5844 0.0
O18 O 0.39887 0.46529 0.72063 0.0
O19 O 0.34548 0.46818 0.45767 0.0
O20 O 0.37493 0.44733 0.55381 0.0
C21 C 0.26001 0.45558 0.64939 0.0
C22 C 0.40593 0.59099 0.59007 0.0
O23 O 0.40476 0.55577 0.63065 0.0
O24 O 0.37638 0.58113 0.53814 0.0
C25 C 0.39912 0.47709 0.78638 0.0
O26 O 0.37348 0.49713 0.80422 0.0
C27 C 0.3662 0.44584 0.48541 0.0
Zn28 Zn 0.78584 0.42179 0.50744 0.0
Zn29 Zn 0.85056 0.4513 0.39029 0.0
O30 O 0.80612 0.47753 0.35747 0.0
O31 O 0.75358 0.45518 0.4501 0.0
O32 O 0.89534 0.46831 0.30191 0.0
O33 O 0.84446 0.45979 0.57181 0.0
O34 O 0.89529 0.48221 0.47667 0.0
C35 C 0.76882 0.47554 0.38569 0.0
C36 C 0.78165 0.33994 0.43627 0.0
O37 O 0.81505 0.37578 0.39617 0.0
O38 O 0.76221 0.3489 0.48918 0.0
C39 C 0.91963 0.44656 0.29928 0.0
O40 O 0.91664 0.4166 0.35564 0.0
C41 C 0.8876 0.48183 0.54552 0.0
Zn42 Zn 0.45805 0.78742 0.88221 0.0
Zn43 Zn 0.45267 0.84698 0.77901 0.0
O44 O 0.38093 0.80993 0.81384 0.0
O45 O 0.38737 0.76265 0.90311 0.0
O46 O 0.46188 0.89914 0.69809 0.0
O47 O 0.50603 0.83957 0.94338 0.0
O48 O 0.49962 0.88984 0.85975 0.0
C49 C 0.36199 0.77681 0.8673 0.0
C50 C 0.4748 0.76473 0.7424 0.0
O51 O 0.46575 0.79905 0.72368 0.0
O52 O 0.47695 0.75384 0.81 0.0
C53 C 0.44904 0.88802 0.63223 0.0
O54 O 0.42596 0.8409 0.61717 0.0
C55 C 0.51697 0.88301 0.91994 0.0
Zn56 Zn 0.58396 0.41913 0.04989 0.0
Zn57 Zn 0.51954 0.40177 0.15551 0.0
O58 O 0.58529 0.44419 0.20412 0.0
O59 O 0.63935 0.46196 0.11569 0.0
O60 O 0.47104 0.39883 0.22767 0.0
O61 O 0.55643 0.44731 0.97517 0.0
O62 O 0.50162 0.42923 0.06236 0.0
C63 C 0.62948 0.46479 0.18204 0.0
C64 C 0.52394 0.31441 0.10643 0.0
O65 O 0.50523 0.33037 0.15091 0.0
O66 O 0.55607 0.3443 0.05886 0.0
C67 C 0.4673 0.38549 0.29585 0.0
O68 O 0.49588 0.37025 0.32332 0.0
C69 C 0.51801 0.4454 0.99659 0.0
Zn70 Zn 0.13683 0.51323 0.98515 0.0
Zn71 Zn 0.08338 0.52532 0.88691 0.0
O72 O 0.10775 0.48355 0.83738 0.0
O73 O 0.15133 0.47199 0.92125 0.0
O74 O 0.03485 0.52469 0.81492 0.0
O75 O 0.08543 0.48181 0.06428 0.0
O76 O 0.04289 0.49967 0.98632 0.0
C77 C 0.13475 0.46607 0.85694 0.0
C78 C 0.17501 0.61639 0.92771 0.0
O79 O 0.13894 0.59805 0.88546 0.0
O80 O 0.18035 0.58838 0.97552 0.0
C81 C 0.04473 0.53627 0.7463 0.0
O82 O 0.08872 0.55106 0.7212 0.0
C83 C 0.04755 0.48333 0.05019 0.0
C84 C 0.53335 0.20321 0.07071 0.0
C85 C 0.52922 0.18222 0.14276 0.0
H86 H 0.53352 0.26132 1.00238 0.0
C87 C 0.51151 0.19756 0.19986 0.0
H88 H 0.54632 0.19153 0.02556 0.0
C89 C 0.50423 0.23791 0.18655 0.0
C90 C 0.51466 0.26304 0.11611 0.0
H91 H 0.50812 0.18194 0.25592 0.0
H92 H 0.49524 0.25238 0.23273 0.0
C93 C 0.52609 0.24322 0.05748 0.0
C94 C 0.21653 0.42758 0.77258 0.0
C95 C 0.2178 0.44341 0.69807 0.0
H96 H 0.18816 0.42119 0.88147 0.0
C97 C 0.18314 0.45579 0.67438 0.0
H98 H 0.24215 0.41704 0.79265 0.0
C99 C 0.152 0.45815 0.72556 0.0
C100 C 0.15501 0.4482 0.80133 0.0
H101 H 0.18266 0.46761 0.61722 0.0
H102 H 0.12864 0.47189 0.70635 0.0
C103 C 0.18547 0.42995 0.82364 0.0
C104 C 0.7586 0.23595 0.31806 0.0
C105 C 0.71027 0.20043 0.33864 0.0
H106 H 0.81964 0.30793 0.3341 0.0
C107 C 0.68996 0.20632 0.40294 0.0
H108 H 0.77554 0.23208 0.26948 0.0
C109 C 0.71518 0.25019 0.43986 0.0
C110 C 0.7611 0.28856 0.41313 0.0
H111 H 0.65287 0.17944 0.42057 0.0
H112 H 0.69696 0.25569 0.48517 0.0
C113 C 0.7838 0.27958 0.35501 0.0
C114 C 0.44483 0.72379 0.624 0.0
C115 C 0.47182 0.7301 0.68796 0.0
H116 H 0.40258 0.67414 0.54176 0.0
C117 C 0.48631 0.69558 0.70758 0.0
H118 H 0.43333 0.74994 0.60717 0.0
C119 C 0.46882 0.6523 0.67006 0.0
C120 C 0.43628 0.64262 0.61247 0.0
H121 H 0.50776 0.69986 0.75588 0.0
H122 H 0.47758 0.62458 0.69036 0.0
C123 C 0.42704 0.6802 0.58657 0.0
C124 C 0.65712 0.47296 0.3126 0.0
C125 C 0.66867 0.48266 0.23651 0.0
H126 H 0.68019 0.46387 0.42022 0.0
C127 C 0.71693 0.50086 0.21297 0.0
H128 H 0.62046 0.45939 0.33286 0.0
C129 C 0.75126 0.50344 0.26317 0.0
C130 C 0.73805 0.48783 0.33798 0.0
H131 H 0.72735 0.50942 0.15492 0.0
H132 H 0.78702 0.51392 0.24215 0.0
C133 C 0.69148 0.4755 0.36284 0.0
C134 C 0.29349 0.73119 0.95743 0.0
C135 C 0.30945 0.74949 0.88432 0.0
H136 H 0.23699 0.67481 0.02879 0.0
C137 C 0.27596 0.73145 0.82758 0.0
H138 H 0.31856 0.74494 1.0022 0.0
C139 C 0.22891 0.6909 0.84286 0.0
C140 C 0.21534 0.66833 0.9149 0.0
H141 H 0.28755 0.7449 0.77072 0.0
H142 H 0.20526 0.67411 0.79735 0.0
C143 C 0.24682 0.691 0.97261 0.0
C144 C 0.54105 0.91512 0.04472 0.0
C145 C 0.54438 0.92455 0.96756 0.0
H146 H 0.55572 0.9463 0.15028 0.0
C147 C 0.57019 -0.02608 0.93752 0.0
H148 H 0.52105 0.87731 0.06942 0.0
C149 C 0.59101 0.01326 0.98388 0.0
C150 C 0.58517 0.00388 0.06104 0.0
H151 H 0.57328 -0.01786 0.87832 0.0
H152 H 0.60948 0.05108 0.95916 0.0
C153 C 0.56069 0.95448 0.09109 0.0
C154 C 0.40649 0.41175 0.31451 0.0
C155 C 0.43545 0.39353 0.3446 0.0
H156 H 0.36143 0.44207 0.3353 0.0
C157 C 0.43657 0.38708 0.4216 0.0
H158 H 0.40441 0.41671 0.25534 0.0
C159 C 0.41178 0.40157 0.4675 0.0
C160 C 0.38535 0.42279 0.43733 0.0
H161 H 0.45821 0.37281 0.44653 0.0
H162 H 0.41506 0.39803 0.52664 0.0
C163 C 0.38171 0.42622 0.36037 0.0
C164 C 0.01209 0.44333 0.17502 0.0
C165 C 0.01126 0.47005 0.11046 0.0
H166 H -0.01607 0.41499 0.28478 0.0
C167 C 0.97857 0.48747 0.10725 0.0
H168 H 0.03675 0.42928 0.17923 0.0
C169 C 0.94858 0.47979 0.16846 0.0
C170 C 0.95037 0.45408 0.23363 0.0
H171 H 0.9773 0.50843 0.05842 0.0
H172 H 0.92433 0.49438 0.16494 0.0
C173 C -0.01814 0.43524 0.23569 0.0
C174 C 0.47755 0.95315 0.44029 0.0
C175 C 0.50417 0.00369 0.45568 0.0
H176 H 0.43885 0.87712 0.48373 0.0
C177 C 0.5092 0.01587 0.52976 0.0
H178 H 0.47276 0.94242 0.3839 0.0
C179 C 0.48992 -0.02162 0.58712 0.0
C180 C 0.4649 0.92781 0.57176 0.0
H181 H 0.52935 0.0544 0.54368 0.0
H182 H 0.4957 -0.01091 0.64354 0.0
C183 C 0.45803 0.91567 0.49764 0.0
C184 C 0.4685 0.46485 0.81655 0.0
C185 C 0.4303 0.47077 0.84075 0.0
H186 H 0.52676 0.45338 0.84669 0.0
C187 C 0.4227 0.47098 0.91677 0.0
H188 H 0.47561 0.46506 0.75826 0.0
C189 C 0.45187 0.46381 0.9677 0.0
C190 C 0.4897 0.45726 0.94338 0.0
H191 H 0.39364 0.47565 0.93695 0.0
H192 H 0.44451 0.46295 0.02607 0.0
C193 C 0.49811 0.45859 0.86725 0.0
C194 C 0.01473 0.53466 0.6179 0.0
C195 C 0.00577 0.52832 0.69464 0.0
H196 H -0.01539 0.52542 0.5105 0.0
C197 C 0.95843 0.51128 0.72149 0.0
H198 H 0.05082 0.54795 0.59532 0.0
C199 C 0.92048 0.49852 0.67287 0.0
C200 C 0.92892 0.50239 0.59619 0.0
H201 H 0.95029 0.50633 0.78025 0.0
H202 H 0.88419 0.48393 0.69566 0.0
C203 C 0.97673 0.5218 0.56921 0.0
loop_
_geom_bond_atom_site_label_1
_geom_bond_atom_site_label_2
_geom_bond_distance
_geom_bond_site_symmetry_2
_ccdc_geom_bond_type
Zn0 O3 2.031 . S
Zn0 O5 2.049 . S
Zn0 O10 2.067 . S
Zn1 O2 1.962 . S
Zn1 O4 1.986 . S
Zn1 O6 1.996 . S
Zn1 O9 1.943 . S
O2 Zn1 1.962 . S
O2 C7 1.254 . S
O3 Zn0 2.031 . S
O3 C7 1.269 . S
O4 Zn1 1.986 . S
O4 C11 1.262 . S
O5 Zn0 2.049 . S
O5 C13 1.260 . S
O6 Zn1 1.996 . S
O6 C13 1.257 . S
C7 O2 1.254 . S
C7 O3 1.269 . S
C8 O9 1.249 . S
C8 O10 1.270 . S
O9 Zn1 1.943 . S
O9 C8 1.249 . S
O10 Zn0 2.067 . S
O10 C8 1.270 . S
C11 O4 1.262 . S
C11 O12 1.232 . S
O12 C11 1.232 . S
C13 O5 1.260 . S
C13 O6 1.257 . S
Zn14 O17 2.031 . S
Zn14 O19 2.049 . S
Zn14 O24 2.067 . S
Zn15 O16 1.962 . S
Zn15 O18 1.986 . S
Zn15 O20 1.996 . S
Zn15 O23 1.943 . S
O16 Zn15 1.962 . S
O16 C21 1.254 . S
O17 Zn14 2.031 . S
O17 C21 1.269 . S
O18 Zn15 1.986 . S
O18 C25 1.262 . S
O19 Zn14 2.049 . S
O19 C27 1.260 . S
O20 Zn15 1.996 . S
O20 C27 1.257 . S
C21 O16 1.254 . S
C21 O17 1.269 . S
C22 O23 1.249 . S
C22 O24 1.270 . S
O23 Zn15 1.943 . S
O23 C22 1.249 . S
O24 Zn14 2.067 . S
O24 C22 1.270 . S
C25 O18 1.262 . S
C25 O26 1.232 . S
O26 C25 1.232 . S
C27 O19 1.260 . S
C27 O20 1.257 . S
Zn28 O31 2.031 . S
Zn28 O33 2.049 . S
Zn28 O38 2.067 . S
Zn29 O30 1.962 . S
Zn29 O32 1.986 . S
Zn29 O34 1.996 . S
Zn29 O37 1.943 . S
O30 Zn29 1.962 . S
O30 C35 1.254 . S
O31 Zn28 2.031 . S
O31 C35 1.269 . S
O32 Zn29 1.986 . S
O32 C39 1.262 . S
O33 Zn28 2.049 . S
O33 C41 1.260 . S
O34 Zn29 1.996 . S
O34 C41 1.257 . S
C35 O30 1.254 . S
C35 O31 1.269 . S
C36 O37 1.249 . S
C36 O38 1.270 . S
O37 Zn29 1.943 . S
O37 C36 1.249 . S
O38 Zn28 2.067 . S
O38 C36 1.270 . S
C39 O32 1.262 . S
C39 O40 1.232 . S
O40 C39 1.232 . S
C41 O33 1.260 . S
C41 O34 1.257 . S
Zn42 O45 2.031 . S
Zn42 O47 2.049 . S
Zn42 O52 2.067 . S
Zn43 O44 1.962 . S
Zn43 O46 1.986 . S
Zn43 O48 1.996 . S
Zn43 O51 1.943 . S
O44 Zn43 1.962 . S
O44 C49 1.254 . S
O45 Zn42 2.031 . S
O45 C49 1.269 . S
O46 Zn43 1.986 . S
O46 C53 1.262 . S
O47 Zn42 2.049 . S
O47 C55 1.260 . S
O48 Zn43 1.996 . S
O48 C55 1.257 . S
C49 O44 1.254 . S
C49 O45 1.269 . S
C50 O51 1.249 . S
C50 O52 1.270 . S
O51 Zn43 1.943 . S
O51 C50 1.249 . S
O52 Zn42 2.067 . S
O52 C50 1.270 . S
C53 O46 1.262 . S
C53 O54 1.232 . S
O54 C53 1.232 . S
C55 O47 1.260 . S
C55 O48 1.257 . S
Zn56 O59 2.031 . S
Zn56 O61 2.049 . S
Zn56 O66 2.067 . S
Zn57 O58 1.962 . S
Zn57 O60 1.986 . S
Zn57 O62 1.996 . S
Zn57 O65 1.943 . S
O58 Zn57 1.962 . S
O58 C63 1.254 . S
O59 Zn56 2.031 . S
O59 C63 1.269 . S
O60 Zn57 1.986 . S
O60 C67 1.262 . S
O61 Zn56 2.049 . S
O61 C69 1.260 . S
O62 Zn57 1.996 . S
O62 C69 1.257 . S
C63 O58 1.254 . S
C63 O59 1.269 . S
C64 O65 1.249 . S
C64 O66 1.270 . S
O65 Zn57 1.943 . S
O65 C64 1.249 . S
O66 Zn56 2.067 . S
O66 C64 1.270 . S
C67 O60 1.262 . S
C67 O68 1.232 . S
O68 C67 1.232 . S
C69 O61 1.260 . S
C69 O62 1.257 . S
Zn70 O73 2.031 . S
Zn70 O75 2.049 . S
Zn70 O80 2.067 . S
Zn71 O72 1.962 . S
Zn71 O74 1.986 . S
Zn71 O76 1.996 . S
Zn71 O79 1.943 . S
O72 Zn71 1.962 . S
O72 C77 1.254 . S
O73 Zn70 2.031 . S
O73 C77 1.269 . S
O74 Zn71 1.986 . S
O74 C81 1.262 . S
O75 Zn70 2.049 . S
O75 C83 1.260 . S
O76 Zn71 1.996 . S
O76 C83 1.257 . S
C77 O72 1.254 . S
C77 O73 1.269 . S
C78 O79 1.249 . S
C78 O80 1.270 . S
O79 Zn71 1.943 . S
O79 C78 1.249 . S
O80 Zn70 2.067 . S
O80 C78 1.270 . S
C81 O74 1.262 . S
C81 O82 1.232 . S
O82 C81 1.232 . S
C83 O75 1.260 . S
C83 O76 1.257 . S
C84 C85 1.387 . S
C84 H88 0.950 . S
C84 C93 1.390 . S
C85 C84 1.387 . S
C85 C87 1.387 . S
H86 C93 0.950 . S
C87 C85 1.387 . S
C87 C89 1.390 . S
C87 H91 0.950 . S
H88 C84 0.950 . S
C89 C87 1.390 . S
C89 C90 1.387 . S
C89 H92 0.950 . S
C90 C89 1.387 . S
C90 C93 1.387 . S
H91 C87 0.950 . S
H92 C89 0.950 . S
C93 C84 1.390 . S
C93 H86 0.950 . S
C93 C90 1.387 . S
C94 C95 1.387 . S
C94 H98 0.950 . S
C94 C103 1.390 . S
C95 C94 1.387 . S
C95 C97 1.387 . S
H96 C103 0.950 . S
C97 C95 1.387 . S
C97 C99 1.390 . S
C97 H101 0.950 . S
H98 C94 0.950 . S
C99 C97 1.390 . S
C99 C100 1.387 . S
C99 H102 0.950 . S
C100 C99 1.387 . S
C100 C103 1.387 . S
H101 C97 0.950 . S
H102 C99 0.950 . S
C103 C94 1.390 . S
C103 H96 0.950 . S
C103 C100 1.387 . S
C104 C105 1.387 . S
C104 H108 0.950 . S
C104 C113 1.390 . S
C105 C104 1.387 . S
C105 C107 1.387 . S
H106 C113 0.950 . S
C107 C105 1.387 . S
C107 C109 1.390 . S
C107 H111 0.950 . S
H108 C104 0.950 . S
C109 C107 1.390 . S
C109 C110 1.387 . S
C109 H112 0.950 . S
C110 C109 1.387 . S
C110 C113 1.387 . S
H111 C107 0.950 . S
H112 C109 0.950 . S
C113 C104 1.390 . S
C113 H106 0.950 . S
C113 C110 1.387 . S
C114 C115 1.387 . S
C114 H118 0.950 . S
C114 C123 1.390 . S
C115 C114 1.387 . S
C115 C117 1.387 . S
H116 C123 0.950 . S
C117 C115 1.387 . S
C117 C119 1.390 . S
C117 H121 0.950 . S
H118 C114 0.950 . S
C119 C117 1.390 . S
C119 C120 1.387 . S
C119 H122 0.950 . S
C120 C119 1.387 . S
C120 C123 1.387 . S
H121 C117 0.950 . S
H122 C119 0.950 . S
C123 C114 1.390 . S
C123 H116 0.950 . S
C123 C120 1.387 . S
C124 C125 1.387 . S
C124 H128 0.950 . S
C124 C133 1.390 . S
C125 C124 1.387 . S
C125 C127 1.387 . S
H126 C133 0.950 . S
C127 C125 1.387 . S
C127 C129 1.390 . S
C127 H131 0.950 . S
H128 C124 0.950 . S
C129 C127 1.390 . S
C129 C130 1.387 . S
C129 H132 0.950 . S
C130 C129 1.387 . S
C130 C133 1.387 . S
H131 C127 0.950 . S
H132 C129 0.950 . S
C133 C124 1.390 . S
C133 H126 0.950 . S
C133 C130 1.387 . S
C134 C135 1.387 . S
C134 H138 0.950 . S
C134 C143 1.390 . S
C135 C134 1.387 . S
C135 C137 1.387 . S
H136 C143 0.950 . S
C137 C135 1.387 . S
C137 C139 1.390 . S
C137 H141 0.950 . S
H138 C134 0.950 . S
C139 C137 1.390 . S
C139 C140 1.387 . S
C139 H142 0.950 . S
C140 C139 1.387 . S
C140 C143 1.387 . S
H141 C137 0.950 . S
H142 C139 0.950 . S
C143 C134 1.390 . S
C143 H136 0.950 . S
C143 C140 1.387 . S
C144 C145 1.387 . S
C144 H148 0.950 . S
C144 C153 1.390 1_566 S
C145 C144 1.387 . S
C145 C147 1.387 . S
H146 C153 0.950 . S
C147 C145 1.387 . S
C147 C149 1.390 1_566 S
C147 H151 0.950 . S
H148 C144 0.950 . S
C149 C147 1.390 1_544 S
C149 C150 1.387 . S
C149 H152 0.950 . S
C150 C149 1.387 . S
C150 C153 1.387 . S
H151 C147 0.950 . S
H152 C149 0.950 . S
C153 C144 1.390 1_544 S
C153 H146 0.950 . S
C153 C150 1.387 . S
C154 C155 1.387 . S
C154 H158 0.950 . S
C154 C163 1.390 . S
C155 C154 1.387 . S
C155 C157 1.387 . S
H156 C163 0.950 . S
C157 C155 1.387 . S
C157 C159 1.390 . S
C157 H161 0.950 . S
H158 C154 0.950 . S
C159 C157 1.390 . S
C159 C160 1.387 . S
C159 H162 0.950 . S
C160 C159 1.387 . S
C160 C163 1.387 . S
H161 C157 0.950 . S
H162 C159 0.950 . S
C163 C154 1.390 . S
C163 H156 0.950 . S
C163 C160 1.387 . S
C164 C165 1.387 1_655 S
C164 H168 0.950 . S
C164 C173 1.390 1_556 S
C165 C164 1.387 1_455 S
C165 C167 1.387 . S
H166 C173 0.950 . S
C167 C165 1.387 . S
C167 C169 1.390 1_556 S
C167 H171 0.950 . S
H168 C164 0.950 . S
C169 C167 1.390 1_554 S
C169 C170 1.387 1_455 S
C169 H172 0.950 . S
C170 C169 1.387 1_655 S
C170 C173 1.387 . S
H171 C167 0.950 . S
H172 C169 0.950 . S
C173 C164 1.390 1_554 S
C173 H166 0.950 . S
C173 C170 1.387 . S
C174 C175 1.387 . S
C174 H178 0.950 . S
C174 C183 1.390 1_545 S
C175 C174 1.387 . S
C175 C177 1.387 . S
H176 C183 0.950 . S
C177 C175 1.387 . S
C177 C179 1.390 1_545 S
C177 H181 0.950 . S
H178 C174 0.950 . S
C179 C177 1.390 1_565 S
C179 C180 1.387 . S
C179 H182 0.950 . S
C180 C179 1.387 . S
C180 C183 1.387 . S
H181 C177 0.950 . S
H182 C179 0.950 . S
C183 C174 1.390 1_565 S
C183 H176 0.950 . S
C183 C180 1.387 . S
C184 C185 1.387 . S
C184 H188 0.950 . S
C184 C193 1.390 1_556 S
C185 C184 1.387 . S
C185 C187 1.387 . S
H186 C193 0.950 . S
C187 C185 1.387 . S
C187 C189 1.390 1_556 S
C187 H191 0.950 . S
H188 C184 0.950 . S
C189 C187 1.390 1_554 S
C189 C190 1.387 . S
C189 H192 0.950 . S
C190 C189 1.387 . S
C190 C193 1.387 . S
H191 C187 0.950 . S
H192 C189 0.950 . S
C193 C184 1.390 1_554 S
C193 H186 0.950 . S
C193 C190 1.387 . S
C194 C195 1.387 . S
C194 H198 0.950 . S
C194 C203 1.390 . S
C195 C194 1.387 . S
C195 C197 1.387 1_455 S
H196 C203 0.950 . S
C197 C195 1.387 1_655 S
C197 C199 1.390 . S
C197 H201 0.950 . S
H198 C194 0.950 . S
C199 C197 1.390 . S
C199 C200 1.387 . S
C199 H202 0.950 . S
C200 C199 1.387 . S
C200 C203 1.387 1_655 S
H201 C197 0.950 . S
H202 C199 0.950 . S
C203 C194 1.390 . S
C203 H196 0.950 . S
C203 C200 1.387 1_455 S
C85 C7 1.177 . S
C90 C64 1.194 . S
C95 C21 1.196 . S
C100 C77 1.174 . S
C105 C8 1.205 . S
C110 C36 1.204 . S
C115 C50 1.204 . S
C120 C22 1.206 . S
C125 C63 1.178 . S
C130 C35 1.196 . S
C135 C49 1.177 . S
C140 C78 1.194 . S
C145 C55 1.310 . S
C150 C13 1.310 . S
C155 C67 1.434 . S
C160 C27 1.327 . S
C165 C83 1.317 . S
C170 C39 1.421 . S
C175 C11 1.420 . S
C180 C53 1.420 . S
C185 C25 1.420 . S
C190 C69 1.312 . S
C195 C81 1.434 . S
C200 C41 1.328 . S
