# Generated by pormake.
# Topology tfs, (6)-cn, num edge types: 1
# Building blocks:
#     Node 0, Type 0, BuildingBlock: UKALOJ_clean_sbu_0, # of connection points: 6
#     Node 1, Type 0, BuildingBlock: UKALOJ_clean_sbu_0, # of connection points: 6
#     Node 2, Type 0, BuildingBlock: UKALOJ_clean_sbu_0, # of connection points: 6
#     Node 3, Type 0, BuildingBlock: UKALOJ_clean_sbu_0, # of connection points: 6
#     Node 4, Type 0, BuildingBlock: UKALOJ_clean_sbu_0, # of connection points: 6
#     Node 5, Type 0, BuildingBlock: UKALOJ_clean_sbu_0, # of connection points: 6
#     Edge 6, Type (0, 0), None
#     Edge 7, Type (0, 0), None
#     Edge 8, Type (0, 0), None
#     Edge 9, Type (0, 0), None
#     Edge 10, Type (0, 0), None
#     Edge 11, Type (0, 0), None
#     Edge 12, Type (0, 0), None
#     Edge 13, Type (0, 0), None
#     Edge 14, Type (0, 0), None
#     Edge 15, Type (0, 0), None
#     Edge 16, Type (0, 0), None
#     Edge 17, Type (0, 0), None
#     Edge 18, Type (0, 0), None
#     Edge 19, Type (0, 0), None
#     Edge 20, Type (0, 0), None
#     Edge 21, Type (0, 0), None
#     Edge 22, Type (0, 0), None
#     Edge 23, Type (0, 0), None
# Relax obj value: 0.255
# Max RMSD: 0.164
# Mean RMSD: 0.164
data_MOF--net-tfs--node1-UKALOJ_clean_sbu_0--edge1-none
_symmetry_space_group_name_H-M    P1
_symmetry_Int_Tables_number       1
_symmetry_cell_setting            triclinic
loop_
_symmetry_equiv_pos_as_xyz
'x, y, z'
_cell_length_a     25.35646
_cell_length_b     25.339506
_cell_length_c     6.9469512
_cell_angle_alpha  89.991947
_cell_angle_beta   90.0937
_cell_angle_gamma 120.06492
loop_
_atom_site_label
_atom_site_type_symbol
_atom_site_fract_x
_atom_site_fract_y
_atom_site_fract_z
_atom_type_partial_charge
Zn0 Zn 0.21191 0.47024 -0.00734 0.0
O1 O 0.20818 0.46773 0.29653 0.0
C2 C 0.34681 0.52211 -0.00587 0.0
Zn3 Zn 0.23699 0.3971 -0.01393 0.0
C4 C 0.22409 0.43394 0.38465 0.0
O5 O 0.23934 0.40061 0.29106 0.0
C6 C 0.22484 0.43326 0.59396 0.0
O7 O 0.14272 0.32986 -0.00222 0.0
O8 O 0.11898 0.40185 -0.02389 0.0
N9 N 0.2591 0.32912 -0.00664 0.0
C10 C 0.31081 0.3289 0.94921 0.0
C11 C 0.2479 0.24068 0.05889 0.0
N12 N 0.22002 0.27412 0.06007 0.0
N13 N 0.30529 0.27434 -0.00703 0.0
C14 C 0.20935 0.59132 0.06058 0.0
C15 C 0.13854 0.58003 0.86867 0.0
N16 N 0.18658 0.53595 -0.02217 0.0
N17 N 0.14233 0.5289 0.86008 0.0
N18 N 0.18078 0.62036 -0.00912 0.0
H19 H 0.21033 0.58145 0.3641 0.0
H20 H 0.26412 0.65601 0.28305 0.0
H21 H 0.27755 0.5924 0.24939 0.0
C22 C 0.24333 0.6071 0.24783 0.0
C23 C 0.36305 0.37884 0.83992 0.0
H24 H 0.34674 0.40285 0.74491 0.0
H25 H 0.38563 0.36033 0.7475 0.0
H26 H 0.39713 0.41173 0.94309 0.0
O27 O 0.23414 0.39476 0.6822 0.0
O28 O 0.21603 0.47115 0.6876 0.0
C29 C 0.10239 0.34553 -0.01565 0.0
O30 O 0.30624 0.53744 0.00967 0.0
O31 O 0.33042 0.46615 0.9751 0.0
Zn32 Zn 0.75225 0.20798 -0.00807 0.0
O33 O 0.7511 0.20431 0.29565 0.0
C34 C 0.83531 0.34306 -0.00662 0.0
Zn35 Zn 0.85069 0.23356 -0.01471 0.0
C36 C 0.80085 0.2204 0.38389 0.0
O37 O 0.84948 0.2358 0.29044 0.0
C38 C 0.80227 0.22118 0.5932 0.0
O39 O 0.82347 0.13907 -0.00299 0.0
O40 O 0.72761 0.11498 -0.02373 0.0
N41 N 0.94109 0.2563 -0.00805 0.0
C42 C 0.99304 0.30821 0.94761 0.0
C43 C 0.01849 0.2451 0.05402 0.0
N44 N 0.95713 0.21714 0.05669 0.0
N45 N 0.04218 0.30266 -0.01083 0.0
C46 C 0.62873 0.20543 0.05979 0.0
C47 C 0.56897 0.13467 0.8679 0.0
N48 N 0.66118 0.1826 -0.02294 0.0
N49 N 0.62383 0.13839 0.85931 0.0
N50 N 0.57107 0.17693 -0.00992 0.0
H51 H 0.63886 0.20608 0.3636 0.0
H52 H 0.61951 0.26074 0.28124 0.0
H53 H 0.69617 0.27304 0.24976 0.0
C54 C 0.64704 0.23932 0.24713 0.0
C55 C 0.99519 0.36063 0.83979 0.0
H56 H 0.95486 0.34432 0.7446 0.0
H57 H 0.03631 0.38371 0.74767 0.0
H58 H 0.99615 0.39431 0.9439 0.0
O59 O 0.85016 0.2308 0.6816 0.0
O60 O 0.75546 0.21204 0.68667 0.0
C61 C 0.76739 0.09854 -0.01556 0.0
O62 O 0.7794 0.30231 0.00852 0.0
O63 O 0.87496 0.32688 0.97442 0.0
Zn64 Zn 0.55592 0.74721 -0.00616 0.0
O65 O 0.55884 0.74664 0.29829 0.0
C66 C 0.50219 0.82884 -0.00157 0.0
Zn67 Zn 0.62842 0.84614 -0.00933 0.0
C68 C 0.5923 0.79627 0.38761 0.0
O69 O 0.62568 0.84515 0.29525 0.0
C70 C 0.59238 0.79726 0.59692 0.0
O71 O 0.69677 0.82034 0.00039 0.0
O72 O 0.62522 0.72435 -0.02085 0.0
N73 N 0.69557 0.93707 -0.00432 0.0
C74 C 0.69519 0.98881 0.95149 0.0
C75 C 0.78439 0.01498 0.05358 0.0
N76 N 0.75118 0.95358 0.05774 0.0
N77 N 0.75008 0.03831 -0.00969 0.0
C78 C 0.43436 0.62372 0.04576 0.0
C79 C 0.45069 0.56127 0.8885 0.0
N80 N 0.49216 0.65521 -0.01794 0.0
N81 N 0.50243 0.61606 0.88581 0.0
N82 N 0.40681 0.56541 -0.01542 0.0
H83 H 0.44372 0.68968 0.25899 0.0
H84 H 0.38662 0.61177 0.30993 0.0
H85 H 0.3727 0.65181 0.12449 0.0
C86 C 0.40846 0.64636 0.19451 0.0
C87 C 0.64404 0.99032 0.84723 0.0
H88 H 0.61954 0.94971 0.75338 0.0
H89 H 0.66126 0.03124 0.75433 0.0
H90 H 0.61187 0.99114 0.95367 0.0
O91 O 0.62989 0.84535 0.68643 0.0
O92 O 0.55496 0.74992 0.68918 0.0
C93 C 0.68139 0.76433 -0.01295 0.0
O94 O 0.48711 0.77281 0.00839 0.0
O95 O 0.5582 0.86888 -0.01689 0.0
Zn96 Zn 0.81955 0.5521 -0.00506 0.0
O97 O 0.82301 0.55493 0.29952 0.0
C98 C 0.68419 0.49853 -0.0013 0.0
Zn99 Zn 0.79359 0.62479 -0.00858 0.0
C100 C 0.80707 0.58852 0.38854 0.0
O101 O 0.79177 0.62199 0.29588 0.0
C102 C 0.80622 0.58869 0.59784 0.0
O103 O 0.88778 0.69296 0.00178 0.0
O104 O 0.91179 0.62124 -0.01939 0.0
N105 N 0.77057 0.69233 -0.00352 0.0
C106 C 0.71863 0.69221 0.95223 0.0
C107 C 0.782 0.78127 0.05549 0.0
N108 N 0.8099 0.74785 0.05919 0.0
N109 N 0.72432 0.74714 -0.00819 0.0
C110 C 0.82118 0.43041 0.04592 0.0
C111 C 0.90006 0.44715 0.88881 0.0
N112 N 0.84757 0.48834 -0.01702 0.0
N113 N 0.89704 0.49886 0.88679 0.0
N114 N 0.85196 0.40305 -0.01566 0.0
H115 H 0.76449 0.4394 0.25907 0.0
H116 H 0.78561 0.38259 0.31025 0.0
H117 H 0.73143 0.36829 0.12499 0.0
C118 C 0.77266 0.40426 0.19474 0.0
C119 C 0.66584 0.64126 0.84733 0.0
H120 H 0.68179 0.61667 0.75372 0.0
H121 H 0.64248 0.65877 0.75407 0.0
H122 H 0.63259 0.60907 0.95334 0.0
O123 O 0.79593 0.62636 0.68706 0.0
O124 O 0.8159 0.55117 0.69042 0.0
C125 C 0.92822 0.67745 -0.01126 0.0
O126 O 0.72505 0.4834 0.00911 0.0
O127 O 0.70034 0.55461 -0.01665 0.0
Zn128 Zn 0.27843 0.81576 0.00206 0.0
O129 O 0.27957 0.82009 0.30592 0.0
C130 C 0.1964 0.67998 0.00634 0.0
Zn131 Zn 0.17981 0.78906 -0.00449 0.0
C132 C 0.2297 0.80293 0.39412 0.0
O133 O 0.1808 0.78657 0.30057 0.0
C134 C 0.22845 0.80195 0.60345 0.0
O135 O 0.20605 0.88333 0.00773 0.0
O136 O 0.30187 0.90791 -0.01627 0.0
N137 N 0.08944 0.76622 0.00059 0.0
C138 C 0.03752 0.71448 0.95493 0.0
C139 C 1.01215 0.77782 0.0595 0.0
N140 N 0.07348 0.80555 0.06411 0.0
N141 N 0.98841 0.72028 -0.0056 0.0
C142 C 0.39975 0.81422 0.04446 0.0
C143 C 0.46521 0.89692 0.91126 0.0
N144 N 0.37024 0.8435 -0.0095 0.0
N145 N 0.41115 0.89529 0.90901 0.0
N146 N 0.45895 0.84571 -0.00793 0.0
H147 H 0.33935 0.76242 0.27222 0.0
H148 H 0.40774 0.75806 0.26124 0.0
H149 H 0.34812 0.71966 0.08096 0.0
C150 C 0.37247 0.7603 0.17338 0.0
C151 C 0.03548 0.66191 0.84842 0.0
H152 H 0.07596 0.67812 0.75446 0.0
H153 H 0.99452 0.63873 0.75525 0.0
H154 H 0.03445 0.62839 0.95339 0.0
O155 O 0.18054 0.79207 0.69178 0.0
O156 O 0.27539 0.81118 0.69698 0.0
C157 C 0.26193 0.92402 -0.00727 0.0
O158 O 0.25201 0.72124 0.02209 0.0
O159 O 0.15639 0.69563 -0.01626 0.0
Zn160 Zn 0.47335 0.27438 0.0008 0.0
O161 O 0.4701 0.27552 0.3047 0.0
C162 C 0.52713 0.19253 0.00574 0.0
Zn163 Zn 0.40135 0.17567 -0.00532 0.0
C164 C 0.4374 0.2256 0.39307 0.0
O165 O 0.40485 0.17664 0.29967 0.0
C166 C 0.43714 0.22435 0.60241 0.0
O167 O 0.33318 0.20152 0.00639 0.0
O168 O 0.40444 0.29746 -0.0186 0.0
N169 N 0.3339 0.08526 0.00056 0.0
C170 C 0.33381 0.03339 0.9557 0.0
C171 C 0.24527 1.00773 0.0623 0.0
N172 N 0.27872 0.06912 0.06534 0.0
N173 N 0.27908 0.98415 -0.00298 0.0
C174 C 0.59622 0.39597 0.04403 0.0
C175 C 0.57911 0.46147 0.91059 0.0
N176 N 0.53744 0.36636 -0.01059 0.0
N177 N 0.52663 0.4073 0.9078 0.0
N178 N 0.62401 0.45525 -0.00808 0.0
H179 H 0.58752 0.33529 0.27128 0.0
H180 H 0.66026 0.4039 0.26136 0.0
H181 H 0.63929 0.34459 0.08037 0.0
C182 C 0.62283 0.36866 0.17295 0.0
C183 C 0.38419 0.03145 0.84847 0.0
H184 H 0.40832 0.07193 0.75412 0.0
H185 H 0.36622 0.99041 0.75563 0.0
H186 H 0.41688 0.03054 0.95296 0.0
O187 O 0.39905 0.1764 0.69086 0.0
O188 O 0.47495 0.27134 0.69582 0.0
C189 C 0.34834 0.25737 -0.00964 0.0
O190 O 0.54157 0.24816 0.02148 0.0
O191 O 0.47141 0.15248 -0.01681 0.0
loop_
_geom_bond_atom_site_label_1
_geom_bond_atom_site_label_2
_geom_bond_distance
_geom_bond_site_symmetry_2
_ccdc_geom_bond_type
Zn0 O1 2.055 . S
Zn0 O8 2.046 . S
Zn0 N16 2.036 1_554 S
Zn0 O28 2.053 1_554 S
Zn0 O30 2.066 . S
O1 Zn0 2.055 . S
O1 C4 1.259 . S
C2 O30 1.256 . S
C2 O31 1.244 . S
Zn3 O5 2.046 . S
Zn3 O7 2.055 . S
Zn3 N9 2.036 . S
Zn3 O27 2.066 1_554 S
Zn3 O31 2.053 . S
C4 O1 1.259 . S
C4 O5 1.254 . S
O5 Zn3 2.046 . S
O5 C4 1.254 . S
C6 O27 1.256 . S
C6 O28 1.244 . S
O7 Zn3 2.055 . S
O7 C29 1.259 . S
O8 Zn0 2.046 . S
O8 C29 1.255 . S
N9 Zn3 2.036 . S
N9 C10 1.298 1_554 S
N9 N12 1.398 . S
C10 N9 1.298 1_556 S
C10 N13 1.367 . S
C10 C23 1.481 . S
C11 N12 1.299 . S
C11 N13 1.379 1_554 S
N12 N9 1.398 . S
N12 C11 1.299 . S
N13 C10 1.367 . S
N13 C11 1.379 1_556 S
C14 N16 1.298 1_554 S
C14 N18 1.367 1_554 S
C14 C22 1.481 . S
C15 N17 1.299 . S
C15 N18 1.379 . S
N16 Zn0 2.036 1_556 S
N16 C14 1.298 1_556 S
N16 N17 1.398 . S
N17 C15 1.299 . S
N17 N16 1.398 . S
N18 C14 1.367 1_556 S
N18 C15 1.379 . S
H19 C22 0.980 . S
H20 C22 0.981 . S
H21 C22 0.981 . S
C22 C14 1.481 . S
C22 H19 0.980 . S
C22 H20 0.981 . S
C22 H21 0.981 . S
C23 C10 1.481 . S
C23 H24 0.980 . S
C23 H25 0.981 . S
C23 H26 0.981 . S
H24 C23 0.980 . S
H25 C23 0.981 . S
H26 C23 0.981 . S
O27 Zn3 2.066 1_556 S
O27 C6 1.256 . S
O28 Zn0 2.053 1_556 S
O28 C6 1.244 . S
C29 O7 1.259 . S
C29 O8 1.255 . S
O30 Zn0 2.066 . S
O30 C2 1.256 . S
O31 C2 1.244 . S
O31 Zn3 2.053 . S
Zn32 O33 2.055 . S
Zn32 O40 2.046 . S
Zn32 N48 2.036 1_554 S
Zn32 O60 2.053 1_554 S
Zn32 O62 2.066 . S
O33 Zn32 2.055 . S
O33 C36 1.259 . S
C34 O62 1.256 . S
C34 O63 1.244 . S
Zn35 O37 2.046 . S
Zn35 O39 2.055 . S
Zn35 N41 2.036 . S
Zn35 O59 2.066 1_554 S
Zn35 O63 2.053 . S
C36 O33 1.259 . S
C36 O37 1.254 . S
O37 Zn35 2.046 . S
O37 C36 1.254 . S
C38 O59 1.256 . S
C38 O60 1.244 . S
O39 Zn35 2.055 . S
O39 C61 1.259 . S
O40 Zn32 2.046 . S
O40 C61 1.255 . S
N41 Zn35 2.036 . S
N41 C42 1.298 1_554 S
N41 N44 1.398 . S
C42 N41 1.298 1_556 S
C42 N45 1.367 1_655 S
C42 C55 1.481 . S
C43 N44 1.299 1_455 S
C43 N45 1.379 1_554 S
N44 N41 1.398 . S
N44 C43 1.299 1_655 S
N45 C42 1.367 1_455 S
N45 C43 1.379 1_556 S
C46 N48 1.298 1_554 S
C46 N50 1.367 1_554 S
C46 C54 1.481 . S
C47 N49 1.299 . S
C47 N50 1.379 . S
N48 Zn32 2.036 1_556 S
N48 C46 1.298 1_556 S
N48 N49 1.398 . S
N49 C47 1.299 . S
N49 N48 1.398 . S
N50 C46 1.367 1_556 S
N50 C47 1.379 . S
H51 C54 0.980 . S
H52 C54 0.981 . S
H53 C54 0.981 . S
C54 C46 1.481 . S
C54 H51 0.980 . S
C54 H52 0.981 . S
C54 H53 0.981 . S
C55 C42 1.481 . S
C55 H56 0.980 . S
C55 H57 0.981 . S
C55 H58 0.981 . S
H56 C55 0.980 . S
H57 C55 0.981 . S
H58 C55 0.981 . S
O59 Zn35 2.066 1_556 S
O59 C38 1.256 . S
O60 Zn32 2.053 1_556 S
O60 C38 1.244 . S
C61 O39 1.259 . S
C61 O40 1.255 . S
O62 Zn32 2.066 . S
O62 C34 1.256 . S
O63 C34 1.244 . S
O63 Zn35 2.053 . S
Zn64 O65 2.055 . S
Zn64 O72 2.046 . S
Zn64 N80 2.036 1_554 S
Zn64 O92 2.053 1_554 S
Zn64 O94 2.066 . S
O65 Zn64 2.055 . S
O65 C68 1.259 . S
C66 O94 1.256 . S
C66 O95 1.244 . S
Zn67 O69 2.046 . S
Zn67 O71 2.055 . S
Zn67 N73 2.036 . S
Zn67 O91 2.066 1_554 S
Zn67 O95 2.053 . S
C68 O65 1.259 . S
C68 O69 1.254 . S
O69 Zn67 2.046 . S
O69 C68 1.254 . S
C70 O91 1.256 . S
C70 O92 1.244 . S
O71 Zn67 2.055 . S
O71 C93 1.259 . S
O72 Zn64 2.046 . S
O72 C93 1.255 . S
N73 Zn67 2.036 . S
N73 C74 1.298 1_554 S
N73 N76 1.398 . S
C74 N73 1.298 1_556 S
C74 N77 1.367 1_565 S
C74 C87 1.481 . S
C75 N76 1.299 1_545 S
C75 N77 1.379 1_554 S
N76 N73 1.398 . S
N76 C75 1.299 1_565 S
N77 C74 1.367 1_545 S
N77 C75 1.379 1_556 S
C78 N80 1.298 1_554 S
C78 N82 1.367 1_554 S
C78 C86 1.481 . S
C79 N81 1.299 . S
C79 N82 1.379 . S
N80 Zn64 2.036 1_556 S
N80 C78 1.298 1_556 S
N80 N81 1.398 . S
N81 C79 1.299 . S
N81 N80 1.398 . S
N82 C78 1.367 1_556 S
N82 C79 1.379 . S
H83 C86 0.980 . S
H84 C86 0.981 . S
H85 C86 0.981 . S
C86 C78 1.481 . S
C86 H83 0.980 . S
C86 H84 0.981 . S
C86 H85 0.981 . S
C87 C74 1.481 . S
C87 H88 0.980 . S
C87 H89 0.981 . S
C87 H90 0.981 . S
H88 C87 0.980 . S
H89 C87 0.981 . S
H90 C87 0.981 . S
O91 Zn67 2.066 1_556 S
O91 C70 1.256 . S
O92 Zn64 2.053 1_556 S
O92 C70 1.244 . S
C93 O71 1.259 . S
C93 O72 1.255 . S
O94 Zn64 2.066 . S
O94 C66 1.256 . S
O95 C66 1.244 . S
O95 Zn67 2.053 . S
Zn96 O97 2.055 . S
Zn96 O104 2.046 . S
Zn96 N112 2.036 1_554 S
Zn96 O124 2.053 1_554 S
Zn96 O126 2.066 . S
O97 Zn96 2.055 . S
O97 C100 1.259 . S
C98 O126 1.256 . S
C98 O127 1.244 . S
Zn99 O101 2.046 . S
Zn99 O103 2.055 . S
Zn99 N105 2.036 . S
Zn99 O123 2.066 1_554 S
Zn99 O127 2.053 . S
C100 O97 1.259 . S
C100 O101 1.254 . S
O101 Zn99 2.046 . S
O101 C100 1.254 . S
C102 O123 1.256 . S
C102 O124 1.244 . S
O103 Zn99 2.055 . S
O103 C125 1.259 . S
O104 Zn96 2.046 . S
O104 C125 1.255 . S
N105 Zn99 2.036 . S
N105 C106 1.298 1_554 S
N105 N108 1.398 . S
C106 N105 1.298 1_556 S
C106 N109 1.367 . S
C106 C119 1.481 . S
C107 N108 1.299 . S
C107 N109 1.379 1_554 S
N108 N105 1.398 . S
N108 C107 1.299 . S
N109 C106 1.367 . S
N109 C107 1.379 1_556 S
C110 N112 1.298 1_554 S
C110 N114 1.367 1_554 S
C110 C118 1.481 . S
C111 N113 1.299 . S
C111 N114 1.379 . S
N112 Zn96 2.036 1_556 S
N112 C110 1.298 1_556 S
N112 N113 1.398 . S
N113 C111 1.299 . S
N113 N112 1.398 . S
N114 C110 1.367 1_556 S
N114 C111 1.379 . S
H115 C118 0.980 . S
H116 C118 0.981 . S
H117 C118 0.981 . S
C118 C110 1.481 . S
C118 H115 0.980 . S
C118 H116 0.981 . S
C118 H117 0.981 . S
C119 C106 1.481 . S
C119 H120 0.980 . S
C119 H121 0.981 . S
C119 H122 0.981 . S
H120 C119 0.980 . S
H121 C119 0.981 . S
H122 C119 0.981 . S
O123 Zn99 2.066 1_556 S
O123 C102 1.256 . S
O124 Zn96 2.053 1_556 S
O124 C102 1.244 . S
C125 O103 1.259 . S
C125 O104 1.255 . S
O126 Zn96 2.066 . S
O126 C98 1.256 . S
O127 C98 1.244 . S
O127 Zn99 2.053 . S
Zn128 O129 2.055 . S
Zn128 O136 2.046 . S
Zn128 N144 2.036 1_554 S
Zn128 O156 2.053 1_554 S
Zn128 O158 2.066 . S
O129 Zn128 2.055 . S
O129 C132 1.259 . S
C130 O158 1.256 . S
C130 O159 1.244 . S
Zn131 O133 2.046 . S
Zn131 O135 2.055 . S
Zn131 N137 2.036 . S
Zn131 O155 2.066 1_554 S
Zn131 O159 2.053 . S
C132 O129 1.259 . S
C132 O133 1.254 . S
O133 Zn131 2.046 . S
O133 C132 1.254 . S
C134 O155 1.256 . S
C134 O156 1.244 . S
O135 Zn131 2.055 . S
O135 C157 1.259 . S
O136 Zn128 2.046 . S
O136 C157 1.255 . S
N137 Zn131 2.036 . S
N137 C138 1.298 1_554 S
N137 N140 1.398 . S
C138 N137 1.298 1_556 S
C138 N141 1.367 1_455 S
C138 C151 1.481 . S
C139 N140 1.299 1_655 S
C139 N141 1.379 1_554 S
N140 N137 1.398 . S
N140 C139 1.299 1_455 S
N141 C138 1.367 1_655 S
N141 C139 1.379 1_556 S
C142 N144 1.298 1_554 S
C142 N146 1.367 1_554 S
C142 C150 1.481 . S
C143 N145 1.299 . S
C143 N146 1.379 . S
N144 Zn128 2.036 1_556 S
N144 C142 1.298 1_556 S
N144 N145 1.398 . S
N145 C143 1.299 . S
N145 N144 1.398 . S
N146 C142 1.367 1_556 S
N146 C143 1.379 . S
H147 C150 0.980 . S
H148 C150 0.981 . S
H149 C150 0.981 . S
C150 C142 1.481 . S
C150 H147 0.980 . S
C150 H148 0.981 . S
C150 H149 0.981 . S
C151 C138 1.481 . S
C151 H152 0.980 . S
C151 H153 0.981 . S
C151 H154 0.981 . S
H152 C151 0.980 . S
H153 C151 0.981 . S
H154 C151 0.981 . S
O155 Zn131 2.066 1_556 S
O155 C134 1.256 . S
O156 Zn128 2.053 1_556 S
O156 C134 1.244 . S
C157 O135 1.259 . S
C157 O136 1.255 . S
O158 Zn128 2.066 . S
O158 C130 1.256 . S
O159 C130 1.244 . S
O159 Zn131 2.053 . S
Zn160 O161 2.055 . S
Zn160 O168 2.046 . S
Zn160 N176 2.036 1_554 S
Zn160 O188 2.053 1_554 S
Zn160 O190 2.066 . S
O161 Zn160 2.055 . S
O161 C164 1.259 . S
C162 O190 1.256 . S
C162 O191 1.244 . S
Zn163 O165 2.046 . S
Zn163 O167 2.055 . S
Zn163 N169 2.036 . S
Zn163 O187 2.066 1_554 S
Zn163 O191 2.053 . S
C164 O161 1.259 . S
C164 O165 1.254 . S
O165 Zn163 2.046 . S
O165 C164 1.254 . S
C166 O187 1.256 . S
C166 O188 1.244 . S
O167 Zn163 2.055 . S
O167 C189 1.259 . S
O168 Zn160 2.046 . S
O168 C189 1.255 . S
N169 Zn163 2.036 . S
N169 C170 1.298 1_554 S
N169 N172 1.398 . S
C170 N169 1.298 1_556 S
C170 N173 1.367 1_545 S
C170 C183 1.481 . S
C171 N172 1.299 1_565 S
C171 N173 1.379 1_554 S
N172 N169 1.398 . S
N172 C171 1.299 1_545 S
N173 C170 1.367 1_565 S
N173 C171 1.379 1_556 S
C174 N176 1.298 1_554 S
C174 N178 1.367 1_554 S
C174 C182 1.481 . S
C175 N177 1.299 . S
C175 N178 1.379 . S
N176 Zn160 2.036 1_556 S
N176 C174 1.298 1_556 S
N176 N177 1.398 . S
N177 C175 1.299 . S
N177 N176 1.398 . S
N178 C174 1.367 1_556 S
N178 C175 1.379 . S
H179 C182 0.980 . S
H180 C182 0.981 . S
H181 C182 0.981 . S
C182 C174 1.481 . S
C182 H179 0.980 . S
C182 H180 0.981 . S
C182 H181 0.981 . S
C183 C170 1.481 . S
C183 H184 0.980 . S
C183 H185 0.981 . S
C183 H186 0.981 . S
H184 C183 0.980 . S
H185 C183 0.981 . S
H186 C183 0.981 . S
O187 Zn163 2.066 1_556 S
O187 C166 1.256 . S
O188 Zn160 2.053 1_556 S
O188 C166 1.244 . S
C189 O167 1.259 . S
C189 O168 1.255 . S
O190 Zn160 2.066 . S
O190 C162 1.256 . S
O191 C162 1.244 . S
O191 Zn163 2.053 . S
C189 N13 1.527 1_554 S
C29 N45 1.527 1_554 S
C61 N77 1.528 1_554 S
N109 C93 1.527 1_556 S
N141 C125 1.527 1_556 S
C157 N173 1.528 1_554 S
C130 N18 1.792 1_554 S
C162 N50 1.792 1_554 S
N82 C2 1.792 1_556 S
N114 C34 1.792 1_556 S
N146 C66 1.792 1_556 S
C98 N178 1.792 1_554 S
C6 C4 1.560 . S
C38 C36 1.560 . S
C70 C68 1.560 . S
C102 C100 1.560 . S
C132 C134 1.560 . S
C166 C164 1.560 . S
