# Generated by pormake.
# Topology dmp, (4)-cn, num edge types: 1
# Building blocks:
#     Node 0, Type 0, BuildingBlock: CEKHIL_clean_sbu_0, # of connection points: 4
#     Node 1, Type 0, BuildingBlock: CEKHIL_clean_sbu_0, # of connection points: 4
#     Node 2, Type 0, BuildingBlock: CEKHIL_clean_sbu_0, # of connection points: 4
#     Node 3, Type 0, BuildingBlock: CEKHIL_clean_sbu_0, # of connection points: 4
#     Edge 4, Type (0, 0), BuildingBlock: FUNLAD_clean_linker_0, # of connection points: 2
#     Edge 5, Type (0, 0), BuildingBlock: FUNLAD_clean_linker_0, # of connection points: 2
#     Edge 6, Type (0, 0), BuildingBlock: FUNLAD_clean_linker_0, # of connection points: 2
#     Edge 7, Type (0, 0), BuildingBlock: FUNLAD_clean_linker_0, # of connection points: 2
#     Edge 8, Type (0, 0), BuildingBlock: FUNLAD_clean_linker_0, # of connection points: 2
#     Edge 9, Type (0, 0), BuildingBlock: FUNLAD_clean_linker_0, # of connection points: 2
#     Edge 10, Type (0, 0), BuildingBlock: FUNLAD_clean_linker_0, # of connection points: 2
#     Edge 11, Type (0, 0), BuildingBlock: FUNLAD_clean_linker_0, # of connection points: 2
# Relax obj value: 0.089
# Max RMSD: 0.196
# Mean RMSD: 0.196
data_MOF--net-dmp--node1-CEKHIL_clean_sbu_0--edge1-FUNLAD_clean_linker_0
_symmetry_space_group_name_H-M    P1
_symmetry_Int_Tables_number       1
_symmetry_cell_setting            triclinic
loop_
_symmetry_equiv_pos_as_xyz
'x, y, z'
_cell_length_a     45.679626
_cell_length_b     22.239205
_cell_length_c     16.801983
_cell_angle_alpha  89.928219
_cell_angle_beta   90.0909
_cell_angle_gamma 91.543163
loop_
_atom_site_label
_atom_site_type_symbol
_atom_site_fract_x
_atom_site_fract_y
_atom_site_fract_z
_atom_type_partial_charge
Co0 Co 0.10263 0.24386 0.24577 0.0
O1 O 0.07608 0.30864 0.23353 0.0
O2 O 0.10093 0.28993 0.34363 0.0
C3 C 0.07225 0.17402 0.19147 0.0
O4 O 0.13154 0.18015 0.27991 0.0
Co5 Co 0.12528 0.17641 0.09677 0.0
O6 O 0.139 0.11788 0.17689 0.0
C7 C 0.14999 0.29669 0.138 0.0
C8 C 0.08192 0.32262 0.30679 0.0
C9 C 0.14231 0.13224 0.24985 0.0
O10 O 0.13577 0.2961 0.20411 0.0
O11 O 0.14693 0.25574 0.08484 0.0
O12 O 0.06977 0.18789 0.2662 0.0
O13 O 0.09143 0.20519 0.15177 0.0
Co14 Co 0.39646 0.74429 0.24931 0.0
O15 O 0.42733 0.68841 0.23659 0.0
O16 O 0.40245 0.70072 0.34801 0.0
C17 C 0.42095 0.8214 0.19106 0.0
O18 O 0.3636 0.7993 0.28371 0.0
Co19 Co 0.3675 0.80009 0.09983 0.0
O20 O 0.35217 0.85736 0.17894 0.0
C21 C 0.35112 0.67607 0.14916 0.0
C22 C 0.42328 0.67372 0.31043 0.0
C23 C 0.35022 0.84391 0.25254 0.0
O24 O 0.36684 0.68206 0.21235 0.0
O25 O 0.3501 0.71624 0.09454 0.0
O26 O 0.42522 0.80948 0.26583 0.0
O27 O 0.40386 0.78413 0.15332 0.0
Co28 Co 0.89684 0.73689 0.73531 0.0
O29 O 0.92428 0.67378 0.74815 0.0
O30 O 0.901 0.69358 0.63588 0.0
C31 C 0.92504 0.80747 0.79582 0.0
O32 O 0.86739 0.79943 0.70039 0.0
Co33 Co 0.87035 0.79812 0.88385 0.0
O34 O 0.85798 0.85885 0.80502 0.0
C35 C 0.84701 0.67933 0.83098 0.0
C36 C 0.91994 0.66132 0.67369 0.0
C37 C 0.8558 0.84619 0.73126 0.0
O38 O 0.86386 0.68137 0.76971 0.0
O39 O 0.84764 0.71945 0.8857 0.0
O40 O 0.92893 0.79533 0.72105 0.0
O41 O 0.90588 0.77397 0.83245 0.0
Co42 Co 0.60228 0.23644 0.73328 0.0
O43 O 0.57206 0.29381 0.74526 0.0
O44 O 0.59824 0.28275 0.63585 0.0
C45 C 0.57579 0.15965 0.78591 0.0
O46 O 0.6348 0.18025 0.69994 0.0
Co47 Co 0.62811 0.17504 0.8833 0.0
O48 O 0.64431 0.11941 0.80345 0.0
C49 C 0.6461 0.29999 0.84277 0.0
C50 C 0.57723 0.30992 0.67244 0.0
C51 C 0.64736 0.13443 0.73062 0.0
O52 O 0.63214 0.29597 0.7763 0.0
O53 O 0.64529 0.25862 0.89592 0.0
O54 O 0.5728 0.17339 0.71121 0.0
O55 O 0.59295 0.19486 0.82659 0.0
C56 C 0.32311 0.93689 0.28229 0.0
C57 C 0.32835 0.87632 0.2995 0.0
C58 C 0.2981 0.96423 0.31113 0.0
C59 C 0.27752 0.93123 0.35709 0.0
C60 C 0.28372 0.87178 0.37843 0.0
C61 C 0.30913 0.84474 0.35076 0.0
C62 C 0.24763 0.95413 0.37066 0.0
C63 C 0.24188 0.0132 0.37328 0.0
C64 C 0.21235 0.03737 0.35768 0.0
C65 C 0.20624 0.09605 0.38238 0.0
C66 C 0.18165 0.1253 0.35316 0.0
C67 C 0.16311 0.09679 0.29713 0.0
H68 H 0.19646 0.96239 0.28514 0.0
C69 C 0.16807 0.03666 0.27677 0.0
C70 C 0.19232 0.00713 0.30693 0.0
H71 H 0.15414 0.01354 0.23372 0.0
H72 H 0.33753 0.96214 0.2426 0.0
H73 H 0.2939 0.00963 0.29181 0.0
H74 H 0.26813 0.84519 0.41309 0.0
H75 H 0.31246 0.79776 0.36418 0.0
H76 H 0.22961 0.92123 0.37148 0.0
H77 H 0.25988 0.04574 0.38009 0.0
H78 H 0.22139 0.12054 0.42092 0.0
H79 H 0.17854 0.17179 0.36954 0.0
C80 C 0.18247 0.38067 0.1883 0.0
C81 C 0.17239 0.34482 0.12462 0.0
C82 C 0.20551 0.4223 0.17738 0.0
C83 C 0.21893 0.42892 0.10246 0.0
C84 C 0.20796 0.39525 0.03802 0.0
C85 C 0.18508 0.3532 0.04904 0.0
C86 C 0.244 0.47144 0.08972 0.0
C87 C 0.26379 0.48386 0.14728 0.0
C88 C 0.28817 0.52918 0.14027 0.0
C89 C 0.30856 0.53359 0.20274 0.0
C90 C 0.32992 0.57961 0.20388 0.0
C91 C 0.33134 0.62251 0.14243 0.0
H92 H 0.27527 0.56951 0.02752 0.0
C93 C 0.31189 0.61642 0.07786 0.0
C94 C 0.29047 0.57048 0.07682 0.0
H95 H 0.31242 0.64851 0.0293 0.0
H96 H 0.17307 0.37569 0.24716 0.0
H97 H 0.21268 0.44926 0.22771 0.0
H98 H 0.21761 0.40038 0.97944 0.0
H99 H 0.17759 0.32677 -0.00151 0.0
H100 H 0.24647 0.49066 0.03076 0.0
H101 H 0.26199 0.45978 0.20346 0.0
H102 H 0.30743 0.50239 0.25231 0.0
H103 H 0.34462 0.58266 0.25444 0.0
C104 C 0.67472 0.04151 0.70158 0.0
C105 C 0.66948 0.10209 0.68429 0.0
C106 C 0.69975 0.01416 0.67286 0.0
C107 C 0.72033 0.0471 0.62684 0.0
C108 C 0.71414 0.10655 0.60547 0.0
C109 C 0.68873 0.13362 0.63308 0.0
C110 C 0.75019 0.02413 0.61297 0.0
C111 C 0.75594 0.96505 0.61031 0.0
C112 C 0.78556 0.94097 0.62496 0.0
C113 C 0.79164 0.88235 0.59994 0.0
C114 C 0.81639 0.85319 0.62835 0.0
C115 C 0.8351 0.88174 0.6839 0.0
H116 H 0.80165 0.01594 0.6972 0.0
C117 C 0.83016 0.94181 0.70455 0.0
C118 C 0.80576 0.97127 0.67515 0.0
H119 H 0.8442 0.96486 0.74741 0.0
H120 H 0.66027 0.01621 0.74112 0.0
H121 H 0.70394 0.96875 0.69218 0.0
H122 H 0.72973 0.1331 0.57074 0.0
H123 H 0.6854 0.18058 0.61947 0.0
H124 H 0.7682 0.05703 0.61167 0.0
H125 H 0.73793 0.93248 0.60398 0.0
H126 H 0.77635 0.8578 0.56186 0.0
H127 H 0.81946 0.80669 0.61197 0.0
C128 C 0.80254 0.63153 0.89443 0.0
C129 C 0.8243 0.63073 0.83534 0.0
C130 C 0.77926 0.58956 0.89339 0.0
C131 C 0.7774 0.54541 0.83353 0.0
C132 C 0.79955 0.54367 0.77586 0.0
C133 C 0.82277 0.58568 0.77677 0.0
C134 C 0.7521 0.50252 0.82628 0.0
C135 C 0.73343 0.48895 0.88597 0.0
C136 C 0.70896 0.44462 0.87588 0.0
C137 C 0.70061 0.40797 0.9403 0.0
C138 C 0.67941 0.36217 0.93045 0.0
C139 C 0.66583 0.35284 0.85609 0.0
H140 H 0.69939 0.46667 0.75271 0.0
C141 C 0.67289 0.39215 0.793 0.0
C142 C 0.69424 0.43758 0.80276 0.0
H143 H 0.66263 0.38673 0.73518 0.0
H144 H 0.80289 0.66583 0.94015 0.0
H145 H 0.76237 0.59351 0.93794 0.0
H146 H 0.79866 0.51021 0.72901 0.0
H147 H 0.83914 0.58361 0.73033 0.0
H148 H 0.74943 0.47942 0.76965 0.0
H149 H 0.73729 0.50688 0.9452 0.0
H150 H 0.71131 0.41325 -0.00243 0.0
H151 H 0.67421 0.33322 0.98062 0.0
C152 C 0.0554 0.12007 0.06974 0.0
C153 C 0.05343 0.12815 0.15234 0.0
C154 C 0.03659 0.07957 0.0307 0.0
C155 C 0.01561 0.0454 0.07373 0.0
C156 C 0.01369 0.05345 0.15647 0.0
C157 C 0.03248 0.09439 0.19557 0.0
C158 C 0.99472 0.00291 0.03393 0.0
C159 C 2e-05 0.97787 0.96258 0.0
C160 C 0.97925 0.93623 0.921 0.0
C161 C 0.98255 0.92811 0.83866 0.0
C162 C 0.9644 0.88743 0.79737 0.0
C163 C 0.94269 0.85378 0.83786 0.0
H164 H 0.9544 0.90638 0.02501 0.0
C165 C 0.93907 0.8623 0.91999 0.0
C166 C 0.95723 0.90291 0.96134 0.0
H167 H 0.92264 0.83654 0.95284 0.0
H168 H 0.07109 0.14607 0.03464 0.0
H169 H 0.03818 0.07676 0.96664 0.0
H170 H 0.99756 0.0281 0.19094 0.0
H171 H 0.03038 0.10005 0.25931 0.0
H172 H 0.97447 -0.00777 0.06509 0.0
H173 H 0.02045 0.98828 0.93206 0.0
H174 H -0.00061 0.95302 0.80617 0.0
H175 H 0.96773 0.88163 0.73405 0.0
C176 C 0.56209 0.10031 0.90625 0.0
C177 C 0.55843 0.11126 0.8246 0.0
C178 C 0.54352 0.05965 0.94586 0.0
C179 C 0.52078 0.02938 0.90455 0.0
C180 C 0.51816 0.03777 0.82207 0.0
C181 C 0.53675 0.07868 0.78234 0.0
C182 C 0.49963 0.98869 0.94593 0.0
C183 C 0.49178 -0.00309 0.02233 0.0
C184 C 0.47156 0.95524 0.06535 0.0
C185 C 0.47457 0.94929 0.14811 0.0
C186 C 0.45738 0.90713 0.18989 0.0
C187 C 0.43669 0.87069 0.14951 0.0
H188 H 0.4459 0.9262 0.96255 0.0
C189 C 0.43249 0.87905 0.06748 0.0
C190 C 0.44971 0.92103 0.02573 0.0
H191 H 0.41637 0.85217 0.03501 0.0
H192 H 0.57892 0.12414 0.94015 0.0
H193 H 0.54705 0.05227 0.00878 0.0
H194 H 0.5011 0.0141 0.78878 0.0
H195 H 0.53359 0.08602 0.7192 0.0
H196 H 0.49006 0.95173 0.91171 0.0
H197 H 0.50134 0.03416 0.05608 0.0
H198 H 0.49096 0.97586 0.18012 0.0
H199 H 0.4609 0.90192 0.25327 0.0
C200 C 0.93893 0.61109 0.55097 0.0
C201 C 0.93732 0.61481 0.63425 0.0
C202 C 0.95777 0.57059 0.51488 0.0
C203 C 0.97527 0.53298 0.56166 0.0
C204 C 0.97263 0.53514 0.64471 0.0
C205 C 0.95407 0.57585 0.68064 0.0
C206 C 0.99617 0.4903 0.52657 0.0
C207 C 0.00914 0.49891 0.45539 0.0
C208 C 0.02966 0.45567 0.41985 0.0
C209 C 0.03177 0.45293 0.33672 0.0
C210 C 0.04948 0.41084 0.30038 0.0
C211 C 0.06592 0.3711 0.34641 0.0
H212 H 0.04679 0.41974 0.53053 0.0
C213 C 0.06504 0.37567 0.42971 0.0
C214 C 0.04702 0.41752 0.46622 0.0
H215 H 0.07759 0.34583 0.46666 0.0
H216 H 0.92616 0.64036 0.51374 0.0
H217 H 0.95841 0.56879 0.45058 0.0
H218 H 0.98551 0.50618 0.68214 0.0
H219 H 0.95317 0.57728 0.74503 0.0
H220 H 0.00144 0.45115 0.56195 0.0
H221 H 0.00388 0.53805 0.41998 0.0
H222 H 0.019 0.48228 0.29957 0.0
H223 H 0.04988 0.4088 0.23597 0.0
C224 C 0.43936 0.61458 0.4298 0.0
C225 C 0.4426 0.63004 0.34921 0.0
C226 C 0.45877 0.57512 0.46599 0.0
C227 C 0.48175 0.55018 0.42194 0.0
C228 C 0.48486 0.56589 0.34152 0.0
C229 C 0.46549 0.60502 0.30549 0.0
C230 C 0.50357 0.50944 0.45756 0.0
C231 C 0.49854 0.47645 0.5236 0.0
C232 C 0.52024 0.43571 0.5597 0.0
C233 C 0.51657 0.41947 0.63976 0.0
C234 C 0.53556 0.37987 0.67625 0.0
C235 C 0.55866 0.35486 0.63339 0.0
H236 H 0.54677 0.42107 0.45416 0.0
C237 C 0.5626 0.37109 0.55326 0.0
C238 C 0.54355 0.4111 0.51658 0.0
H239 H 0.58003 0.3521 0.51853 0.0
H240 H 0.42211 0.63361 0.46519 0.0
H241 H 0.45603 0.56573 0.52872 0.0
H242 H 0.50239 0.5478 0.30621 0.0
H243 H 0.46875 0.61617 0.2433 0.0
H244 H 0.52438 0.50627 0.427 0.0
H245 H 0.47767 0.47955 0.55388 0.0
H246 H 0.4988 0.43736 0.67439 0.0
H247 H 0.53178 0.3682 0.73806 0.0
loop_
_geom_bond_atom_site_label_1
_geom_bond_atom_site_label_2
_geom_bond_distance
_geom_bond_site_symmetry_2
_ccdc_geom_bond_type
Co0 O1 2.216 . S
Co0 O2 2.091 . S
Co0 O4 2.004 . S
Co0 O10 2.021 . S
Co0 O12 2.137 . S
Co0 O13 2.244 . S
O1 Co0 2.216 . S
O1 C8 1.247 . S
O2 Co0 2.091 . S
O2 C8 1.261 . S
C3 O12 1.247 . S
C3 O13 1.272 . S
O4 Co0 2.004 . S
O4 C9 1.259 . S
Co5 O6 2.061 . S
Co5 O11 2.052 . S
Co5 O13 2.135 . S
O6 Co5 2.061 . S
O6 C9 1.235 . S
C7 O10 1.238 . S
C7 O11 1.241 . S
C8 O1 1.247 . S
C8 O2 1.261 . S
C9 O4 1.259 . S
C9 O6 1.235 . S
O10 Co0 2.021 . S
O10 C7 1.238 . S
O11 Co5 2.052 . S
O11 C7 1.241 . S
O12 Co0 2.137 . S
O12 C3 1.247 . S
O13 Co0 2.244 . S
O13 C3 1.272 . S
O13 Co5 2.135 . S
Co14 O15 2.216 . S
Co14 O16 2.091 . S
Co14 O18 2.004 . S
Co14 O24 2.021 . S
Co14 O26 2.137 . S
Co14 O27 2.244 . S
O15 Co14 2.216 . S
O15 C22 1.247 . S
O16 Co14 2.091 . S
O16 C22 1.261 . S
C17 O26 1.247 . S
C17 O27 1.272 . S
O18 Co14 2.004 . S
O18 C23 1.259 . S
Co19 O20 2.061 . S
Co19 O25 2.052 . S
Co19 O27 2.135 . S
O20 Co19 2.061 . S
O20 C23 1.235 . S
C21 O24 1.238 . S
C21 O25 1.241 . S
C22 O15 1.247 . S
C22 O16 1.261 . S
C23 O18 1.259 . S
C23 O20 1.235 . S
O24 Co14 2.021 . S
O24 C21 1.238 . S
O25 Co19 2.052 . S
O25 C21 1.241 . S
O26 Co14 2.137 . S
O26 C17 1.247 . S
O27 Co14 2.244 . S
O27 C17 1.272 . S
O27 Co19 2.135 . S
Co28 O29 2.216 . S
Co28 O30 2.091 . S
Co28 O32 2.004 . S
Co28 O38 2.021 . S
Co28 O40 2.137 . S
Co28 O41 2.244 . S
O29 Co28 2.216 . S
O29 C36 1.247 . S
O30 Co28 2.091 . S
O30 C36 1.261 . S
C31 O40 1.247 . S
C31 O41 1.272 . S
O32 Co28 2.004 . S
O32 C37 1.259 . S
Co33 O34 2.061 . S
Co33 O39 2.052 . S
Co33 O41 2.135 . S
O34 Co33 2.061 . S
O34 C37 1.235 . S
C35 O38 1.238 . S
C35 O39 1.241 . S
C36 O29 1.247 . S
C36 O30 1.261 . S
C37 O32 1.259 . S
C37 O34 1.235 . S
O38 Co28 2.021 . S
O38 C35 1.238 . S
O39 Co33 2.052 . S
O39 C35 1.241 . S
O40 Co28 2.137 . S
O40 C31 1.247 . S
O41 Co28 2.244 . S
O41 C31 1.272 . S
O41 Co33 2.135 . S
Co42 O43 2.216 . S
Co42 O44 2.091 . S
Co42 O46 2.004 . S
Co42 O52 2.021 . S
Co42 O54 2.137 . S
Co42 O55 2.244 . S
O43 Co42 2.216 . S
O43 C50 1.247 . S
O44 Co42 2.091 . S
O44 C50 1.261 . S
C45 O54 1.247 . S
C45 O55 1.272 . S
O46 Co42 2.004 . S
O46 C51 1.259 . S
Co47 O48 2.061 . S
Co47 O53 2.052 . S
Co47 O55 2.135 . S
O48 Co47 2.061 . S
O48 C51 1.235 . S
C49 O52 1.238 . S
C49 O53 1.241 . S
C50 O43 1.247 . S
C50 O44 1.261 . S
C51 O46 1.259 . S
C51 O48 1.235 . S
O52 Co42 2.021 . S
O52 C49 1.238 . S
O53 Co47 2.052 . S
O53 C49 1.241 . S
O54 Co42 2.137 . S
O54 C45 1.247 . S
O55 Co42 2.244 . S
O55 C45 1.272 . S
O55 Co47 2.135 . S
C56 C57 1.386 . S
C56 C58 1.383 . S
C56 H72 0.951 . S
C57 C56 1.386 . S
C57 C61 1.383 . S
C58 C56 1.383 . S
C58 C59 1.402 . S
C58 H73 0.951 1_565 S
C59 C58 1.402 . S
C59 C60 1.375 . S
C59 C62 1.481 . S
C60 C59 1.375 . S
C60 C61 1.367 . S
C60 H74 0.951 . S
C61 C57 1.383 . S
C61 C60 1.367 . S
C61 H75 0.950 . S
C62 C59 1.481 . S
C62 C63 1.297 1_565 S
C62 H76 0.950 . S
C63 C62 1.297 1_545 S
C63 C64 1.479 . S
C63 H77 0.950 . S
C64 C63 1.479 . S
C64 C65 1.375 . S
C64 C70 1.404 . S
C65 C64 1.375 . S
C65 C66 1.369 . S
C65 H78 0.950 . S
C66 C65 1.369 . S
C66 C67 1.392 . S
C66 H79 0.951 . S
C67 C66 1.392 . S
C67 C69 1.384 . S
H68 C70 0.949 1_565 S
C69 C67 1.384 . S
C69 C70 1.385 . S
C69 H71 0.950 . S
C70 C64 1.404 . S
C70 H68 0.949 1_545 S
C70 C69 1.385 . S
H71 C69 0.950 . S
H72 C56 0.951 . S
H73 C58 0.951 1_545 S
H74 C60 0.951 . S
H75 C61 0.950 . S
H76 C62 0.950 . S
H77 C63 0.950 . S
H78 C65 0.950 . S
H79 C66 0.951 . S
C80 C81 1.386 . S
C80 C82 1.383 . S
C80 H96 0.951 . S
C81 C80 1.386 . S
C81 C85 1.383 . S
C82 C80 1.383 . S
C82 C83 1.402 . S
C82 H97 0.951 . S
C83 C82 1.402 . S
C83 C84 1.375 . S
C83 C86 1.481 . S
C84 C83 1.375 . S
C84 C85 1.367 . S
C84 H98 0.951 . S
C85 C81 1.383 . S
C85 C84 1.367 . S
C85 H99 0.950 . S
C86 C83 1.481 . S
C86 C87 1.297 . S
C86 H100 0.950 . S
C87 C86 1.297 . S
C87 C88 1.479 . S
C87 H101 0.950 . S
C88 C87 1.479 . S
C88 C89 1.375 . S
C88 C94 1.404 . S
C89 C88 1.375 . S
C89 C90 1.369 . S
C89 H102 0.950 . S
C90 C89 1.369 . S
C90 C91 1.392 . S
C90 H103 0.951 . S
C91 C90 1.392 . S
C91 C93 1.384 . S
H92 C94 0.949 . S
C93 C91 1.384 . S
C93 C94 1.385 . S
C93 H95 0.950 . S
C94 C88 1.404 . S
C94 H92 0.949 . S
C94 C93 1.385 . S
H95 C93 0.950 . S
H96 C80 0.951 . S
H97 C82 0.951 . S
H98 C84 0.951 . S
H99 C85 0.950 . S
H100 C86 0.950 . S
H101 C87 0.950 . S
H102 C89 0.950 . S
H103 C90 0.951 . S
C104 C105 1.386 . S
C104 C106 1.383 . S
C104 H120 0.951 . S
C105 C104 1.386 . S
C105 C109 1.383 . S
C106 C104 1.383 . S
C106 C107 1.402 . S
C106 H121 0.951 . S
C107 C106 1.402 . S
C107 C108 1.375 . S
C107 C110 1.481 . S
C108 C107 1.375 . S
C108 C109 1.367 . S
C108 H122 0.951 . S
C109 C105 1.383 . S
C109 C108 1.367 . S
C109 H123 0.950 . S
C110 C107 1.481 . S
C110 C111 1.297 1_545 S
C110 H124 0.950 . S
C111 C110 1.297 1_565 S
C111 C112 1.479 . S
C111 H125 0.950 . S
C112 C111 1.479 . S
C112 C113 1.375 . S
C112 C118 1.404 . S
C113 C112 1.375 . S
C113 C114 1.369 . S
C113 H126 0.950 . S
C114 C113 1.369 . S
C114 C115 1.392 . S
C114 H127 0.951 . S
C115 C114 1.392 . S
C115 C117 1.384 . S
H116 C118 0.949 . S
C117 C115 1.384 . S
C117 C118 1.385 . S
C117 H119 0.950 . S
C118 C112 1.404 . S
C118 H116 0.949 . S
C118 C117 1.385 . S
H119 C117 0.950 . S
H120 C104 0.951 . S
H121 C106 0.951 . S
H122 C108 0.951 . S
H123 C109 0.950 . S
H124 C110 0.950 . S
H125 C111 0.950 . S
H126 C113 0.950 . S
H127 C114 0.951 . S
C128 C129 1.386 . S
C128 C130 1.383 . S
C128 H144 0.951 . S
C129 C128 1.386 . S
C129 C133 1.383 . S
C130 C128 1.383 . S
C130 C131 1.402 . S
C130 H145 0.951 . S
C131 C130 1.402 . S
C131 C132 1.375 . S
C131 C134 1.481 . S
C132 C131 1.375 . S
C132 C133 1.367 . S
C132 H146 0.951 . S
C133 C129 1.383 . S
C133 C132 1.367 . S
C133 H147 0.950 . S
C134 C131 1.481 . S
C134 C135 1.297 . S
C134 H148 0.950 . S
C135 C134 1.297 . S
C135 C136 1.479 . S
C135 H149 0.950 . S
C136 C135 1.479 . S
C136 C137 1.375 . S
C136 C142 1.404 . S
C137 C136 1.375 . S
C137 C138 1.369 . S
C137 H150 0.950 . S
C138 C137 1.369 . S
C138 C139 1.392 . S
C138 H151 0.951 . S
C139 C138 1.392 . S
C139 C141 1.384 . S
H140 C142 0.949 . S
C141 C139 1.384 . S
C141 C142 1.385 . S
C141 H143 0.950 . S
C142 C136 1.404 . S
C142 H140 0.949 . S
C142 C141 1.385 . S
H143 C141 0.950 . S
H144 C128 0.951 . S
H145 C130 0.951 . S
H146 C132 0.951 . S
H147 C133 0.950 . S
H148 C134 0.950 . S
H149 C135 0.950 . S
H150 C137 0.950 . S
H151 C138 0.951 . S
C152 C153 1.386 . S
C152 C154 1.383 . S
C152 H168 0.951 . S
C153 C152 1.386 . S
C153 C157 1.383 . S
C154 C152 1.383 . S
C154 C155 1.402 . S
C154 H169 0.951 1_554 S
C155 C154 1.402 . S
C155 C156 1.375 . S
C155 C158 1.481 1_545 S
C156 C155 1.375 . S
C156 C157 1.367 . S
C156 H170 0.951 . S
C157 C153 1.383 . S
C157 C156 1.367 . S
C157 H171 0.950 . S
C158 C155 1.481 1_565 S
C158 C159 1.297 1_554 S
C158 H172 0.950 . S
C159 C158 1.297 1_556 S
C159 C160 1.479 1_455 S
C159 H173 0.950 1_565 S
C160 C159 1.479 1_655 S
C160 C161 1.375 . S
C160 C166 1.404 . S
C161 C160 1.375 . S
C161 C162 1.369 . S
C161 H174 0.950 . S
C162 C161 1.369 . S
C162 C163 1.392 . S
C162 H175 0.951 . S
C163 C162 1.392 . S
C163 C165 1.384 . S
H164 C166 0.949 1_554 S
C165 C163 1.384 . S
C165 C166 1.385 . S
C165 H167 0.950 . S
C166 C160 1.404 . S
C166 H164 0.949 1_556 S
C166 C165 1.385 . S
H167 C165 0.950 . S
H168 C152 0.951 . S
H169 C154 0.951 1_556 S
H170 C156 0.951 . S
H171 C157 0.950 . S
H172 C158 0.950 . S
H173 C159 0.950 1_545 S
H174 C161 0.950 . S
H175 C162 0.951 . S
C176 C177 1.386 . S
C176 C178 1.383 . S
C176 H192 0.951 . S
C177 C176 1.386 . S
C177 C181 1.383 . S
C178 C176 1.383 . S
C178 C179 1.402 . S
C178 H193 0.951 1_556 S
C179 C178 1.402 . S
C179 C180 1.375 . S
C179 C182 1.481 . S
C180 C179 1.375 . S
C180 C181 1.367 . S
C180 H194 0.951 . S
C181 C177 1.383 . S
C181 C180 1.367 . S
C181 H195 0.950 . S
C182 C179 1.481 . S
C182 C183 1.297 1_556 S
C182 H196 0.950 1_545 S
C183 C182 1.297 1_554 S
C183 C184 1.479 1_545 S
C183 H197 0.950 . S
C184 C183 1.479 1_565 S
C184 C185 1.375 . S
C184 C190 1.404 1_554 S
C185 C184 1.375 . S
C185 C186 1.369 . S
C185 H198 0.950 . S
C186 C185 1.369 . S
C186 C187 1.392 . S
C186 H199 0.951 . S
C187 C186 1.392 . S
C187 C189 1.384 . S
H188 C190 0.949 . S
C189 C187 1.384 . S
C189 C190 1.385 1_554 S
C189 H191 0.950 1_554 S
C190 C184 1.404 1_556 S
C190 H188 0.949 . S
C190 C189 1.385 1_556 S
H191 C189 0.950 1_556 S
H192 C176 0.951 . S
H193 C178 0.951 1_554 S
H194 C180 0.951 . S
H195 C181 0.950 . S
H196 C182 0.950 1_565 S
H197 C183 0.950 . S
H198 C185 0.950 . S
H199 C186 0.951 . S
C200 C201 1.386 . S
C200 C202 1.383 . S
C200 H216 0.951 . S
C201 C200 1.386 . S
C201 C205 1.383 . S
C202 C200 1.383 . S
C202 C203 1.402 . S
C202 H217 0.951 . S
C203 C202 1.402 . S
C203 C204 1.375 . S
C203 C206 1.470 1_655 S
C204 C203 1.375 . S
C204 C205 1.367 . S
C204 H218 0.951 . S
C205 C201 1.383 . S
C205 C204 1.367 . S
C205 H219 0.950 . S
C206 C203 1.470 1_455 S
C206 C207 1.307 . S
C206 H220 0.951 . S
C207 C206 1.307 . S
C207 C208 1.479 . S
C207 H221 0.950 . S
C208 C207 1.479 . S
C208 C209 1.375 . S
C208 C214 1.404 . S
C209 C208 1.375 . S
C209 C210 1.369 . S
C209 H222 0.950 . S
C210 C209 1.369 . S
C210 C211 1.392 . S
C210 H223 0.951 . S
C211 C210 1.392 . S
C211 C213 1.384 . S
H212 C214 0.949 . S
C213 C211 1.384 . S
C213 C214 1.385 . S
C213 H215 0.950 . S
C214 C208 1.404 . S
C214 H212 0.949 . S
C214 C213 1.385 . S
H215 C213 0.950 . S
H216 C200 0.951 . S
H217 C202 0.951 . S
H218 C204 0.951 . S
H219 C205 0.950 . S
H220 C206 0.951 . S
H221 C207 0.950 . S
H222 C209 0.950 . S
H223 C210 0.951 . S
C224 C225 1.386 . S
C224 C226 1.383 . S
C224 H240 0.951 . S
C225 C224 1.386 . S
C225 C229 1.383 . S
C226 C224 1.383 . S
C226 C227 1.402 . S
C226 H241 0.951 . S
C227 C226 1.402 . S
C227 C228 1.375 . S
C227 C230 1.481 . S
C228 C227 1.375 . S
C228 C229 1.367 . S
C228 H242 0.951 . S
C229 C225 1.383 . S
C229 C228 1.367 . S
C229 H243 0.950 . S
C230 C227 1.481 . S
C230 C231 1.297 . S
C230 H244 0.950 . S
C231 C230 1.297 . S
C231 C232 1.479 . S
C231 H245 0.950 . S
C232 C231 1.479 . S
C232 C233 1.375 . S
C232 C238 1.404 . S
C233 C232 1.375 . S
C233 C234 1.369 . S
C233 H246 0.950 . S
C234 C233 1.369 . S
C234 C235 1.392 . S
C234 H247 0.951 . S
C235 C234 1.392 . S
C235 C237 1.384 . S
H236 C238 0.949 . S
C237 C235 1.384 . S
C237 C238 1.385 . S
C237 H239 0.950 . S
C238 C232 1.404 . S
C238 H236 0.949 . S
C238 C237 1.385 . S
H239 C237 0.950 . S
H240 C224 0.951 . S
H241 C226 0.951 . S
H242 C228 0.951 . S
H243 C229 0.950 . S
H244 C230 0.950 . S
H245 C231 0.950 . S
H246 C233 0.950 . S
H247 C234 0.951 . S
C57 C23 0.946 . S
C67 C9 0.912 . S
C81 C7 0.864 . S
C91 C21 0.927 . S
C105 C51 1.025 . S
C115 C37 0.977 . S
C129 C35 0.850 . S
C139 C49 0.932 . S
C153 C3 1.495 . S
C163 C31 1.496 . S
C177 C45 1.493 . S
C187 C17 1.501 . S
C201 C36 1.518 . S
C211 C8 1.517 . S
C225 C22 1.518 . S
C235 C50 1.537 . S
