# Generated by pormake.
# Topology sxb, (6)-cn, num edge types: 1
# Building blocks:
#     Node 0, Type 0, BuildingBlock: UKALOJ_clean_sbu_0, # of connection points: 6
#     Node 1, Type 0, BuildingBlock: UKALOJ_clean_sbu_0, # of connection points: 6
#     Node 2, Type 0, BuildingBlock: UKALOJ_clean_sbu_0, # of connection points: 6
#     Node 3, Type 0, BuildingBlock: UKALOJ_clean_sbu_0, # of connection points: 6
#     Edge 4, Type (0, 0), None
#     Edge 5, Type (0, 0), None
#     Edge 6, Type (0, 0), None
#     Edge 7, Type (0, 0), None
#     Edge 8, Type (0, 0), None
#     Edge 9, Type (0, 0), None
#     Edge 10, Type (0, 0), None
#     Edge 11, Type (0, 0), None
#     Edge 12, Type (0, 0), None
#     Edge 13, Type (0, 0), None
#     Edge 14, Type (0, 0), None
#     Edge 15, Type (0, 0), None
# Relax obj value: 0.061
# Max RMSD: 0.145
# Mean RMSD: 0.145
data_MOF--net-sxb--node1-UKALOJ_clean_sbu_0--edge1-none
_symmetry_space_group_name_H-M    P1
_symmetry_Int_Tables_number       1
_symmetry_cell_setting            triclinic
loop_
_symmetry_equiv_pos_as_xyz
'x, y, z'
_cell_length_a     6.5344422
_cell_length_b     12.376608
_cell_length_c     23.937468
_cell_angle_alpha  96.779805
_cell_angle_beta   91.258377
_cell_angle_gamma 89.572679
loop_
_atom_site_label
_atom_site_type_symbol
_atom_site_fract_x
_atom_site_fract_y
_atom_site_fract_z
_atom_type_partial_charge
Zn0 Zn 0.91135 0.02306 0.07882 0.0
O1 O 0.01965 0.85838 0.07801 0.0
C2 C 0.31073 0.02842 0.03216 0.0
Zn3 Zn 0.90242 0.00113 0.98527 0.0
C4 C 0.07993 0.80721 0.0319 0.0
O5 O 0.01506 0.83771 0.98563 0.0
C6 C 0.73609 0.21761 0.03197 0.0
O7 O 0.59117 0.97126 0.9854 0.0
O8 O 0.60023 -0.00654 0.07801 0.0
N9 N 0.89225 0.97891 0.89957 0.0
C10 C -0.03221 0.03803 0.86101 0.0
C11 C 0.81237 0.90192 0.81641 0.0
N12 N 0.79607 0.89449 0.87183 0.0
N13 N 0.91788 -0.00823 0.8086 0.0
C14 C 0.00714 -0.00287 0.2058 0.0
C15 C 0.76976 0.09595 0.2455 0.0
N16 N 0.90411 0.04305 0.16508 0.0
N17 N 0.75786 0.10469 0.19 0.0
N18 N 0.92473 0.02895 0.25644 0.0
H19 H 0.13921 0.8375 0.19458 0.0
H20 H 0.30336 0.94015 0.23102 0.0
H21 H 0.26401 0.93421 0.15622 0.0
C22 C 0.1892 0.92333 0.19613 0.0
C23 C 0.08641 0.14119 0.87485 0.0
H24 H 0.02102 0.20526 0.85089 0.0
H25 H 0.24764 0.12691 0.86219 0.0
H26 H 0.08507 0.16991 0.92039 0.0
O27 O 0.78958 0.16451 0.9857 0.0
O28 O 0.80277 0.18728 0.0781 0.0
C29 C 0.50299 -0.00397 0.03185 0.0
O30 O 0.22259 0.05326 0.07874 0.0
O31 O 0.21362 0.03056 0.98583 0.0
Zn32 Zn -0.01184 0.01443 0.57864 0.0
O33 O 0.6818 0.05148 0.57796 0.0
C34 C 0.8068 0.79932 0.53121 0.0
Zn35 Zn -0.01775 -0.00766 0.48498 0.0
C36 C 0.58647 0.02679 0.53156 0.0
O37 O 0.67487 0.0279 0.485 0.0
C38 C 0.38409 0.98048 0.53182 0.0
O39 O 0.10159 0.1548 0.48603 0.0
O40 O 0.10315 0.17754 0.57838 0.0
N41 N -0.01565 0.97093 0.39925 0.0
C42 C 0.9189 0.03503 0.36066 0.0
C43 C 0.06332 0.89587 0.31645 0.0
N44 N 0.07352 0.88457 0.37175 0.0
N45 N -0.03084 -0.00983 0.30855 0.0
C46 C 0.89185 -0.00689 0.70486 0.0
C47 C 0.13625 0.0855 0.74718 0.0
N48 N 0.002 0.03372 0.66509 0.0
N49 N 0.15285 0.09126 0.69161 0.0
N50 N -0.0263 0.0245 0.75649 0.0
H51 H 0.6352 0.93226 0.6516 0.0
H52 H 0.58729 0.94874 0.72561 0.0
H53 H 0.74506 0.83791 0.69561 0.0
C54 C 0.70388 0.92449 0.69345 0.0
C55 C 0.81013 0.14168 0.37425 0.0
H56 H 0.80247 0.16553 0.42017 0.0
H57 H 0.6514 0.13497 0.3568 0.0
H58 H 0.88915 0.20602 0.35442 0.0
O59 O 0.28871 0.95609 0.48552 0.0
O60 O 0.29559 0.97877 0.57823 0.0
C61 C 0.16198 0.20782 0.53225 0.0
O62 O 0.87367 0.85045 0.57731 0.0
O63 O 0.86344 0.82999 0.48496 0.0
Zn64 Zn 0.41801 0.52621 0.07891 0.0
O65 O 0.53343 0.36257 0.07829 0.0
C66 C 0.81748 0.53025 0.03192 0.0
Zn67 Zn 0.40903 0.50231 0.98557 0.0
C68 C 0.58691 0.30911 0.03211 0.0
O69 O 0.51973 0.33893 0.98594 0.0
C70 C 0.23555 0.71836 0.0321 0.0
O71 O 0.09924 0.47195 0.98652 0.0
O72 O 0.10551 0.49646 0.07938 0.0
N73 N 0.39644 0.47969 0.8999 0.0
C74 C 0.47058 0.53898 0.86122 0.0
C75 C 0.3154 0.40258 0.81685 0.0
N76 N 0.30042 0.39506 0.87231 0.0
N77 N 0.41992 0.49267 0.80889 0.0
C78 C 0.3896 0.48481 0.20379 0.0
C79 C 0.5444 0.62342 0.24623 0.0
N80 N 0.43841 0.54943 0.16461 0.0
N81 N 0.53385 0.6355 0.19103 0.0
N82 N 0.45763 0.52881 0.25513 0.0
H83 H 0.24859 0.35798 0.14569 0.0
H84 H 0.1321 0.38287 0.21317 0.0
H85 H 0.37368 0.31265 0.20722 0.0
C86 C 0.28041 0.3783 0.1913 0.0
C87 C 0.58843 0.64241 0.87489 0.0
H88 H 0.52131 0.7064 0.85118 0.0
H89 H 0.7493 0.62867 0.86179 0.0
H90 H 0.58842 0.6709 0.92047 0.0
O91 O 0.29334 0.66603 0.98599 0.0
O92 O 0.30365 0.68933 0.07841 0.0
C93 C 0.00965 0.49763 0.03267 0.0
O94 O 0.72785 0.55675 0.07791 0.0
O95 O 0.72173 0.53125 0.98529 0.0
Zn96 Zn 0.48233 0.51542 0.57878 0.0
O97 O 0.17467 0.55205 0.57891 0.0
C98 C 0.30797 0.29992 0.53228 0.0
Zn99 Zn 0.4763 0.49466 0.48491 0.0
C100 C 0.08084 0.52797 0.53221 0.0
O101 O 0.17075 0.53023 0.48619 0.0
C102 C 0.87795 0.48217 0.53117 0.0
O103 O 0.58865 0.65826 0.4853 0.0
O104 O 0.59907 0.67843 0.57771 0.0
N105 N 0.44906 0.47335 0.39881 0.0
C106 C 0.53421 0.52062 0.35701 0.0
C107 C 0.2912 0.41959 0.32025 0.0
N108 N 0.29945 0.41027 0.37568 0.0
N109 N 0.43632 0.48856 0.30749 0.0
C110 C 0.39056 0.49446 0.70524 0.0
C111 C 0.63603 0.58678 0.74704 0.0
N112 N 0.49933 0.5352 0.66524 0.0
N113 N 0.65087 0.59271 0.69144 0.0
N114 N 0.47396 0.5257 0.75669 0.0
H115 H 0.13197 0.43366 0.65265 0.0
H116 H 0.08703 0.44984 0.7268 0.0
H117 H 0.244 0.33918 0.69623 0.0
C118 C 0.20243 0.42578 0.69427 0.0
C119 C 0.7148 0.59528 0.36466 0.0
H120 H 0.66045 0.68095 0.3684 0.0
H121 H 0.81628 0.58099 0.32793 0.0
H122 H 0.80497 0.5822 0.40301 0.0
O123 O 0.78402 0.45946 0.48428 0.0
O124 O 0.78821 0.47918 0.57731 0.0
C125 C 0.65531 0.70933 0.53143 0.0
O126 O 0.37073 0.35213 0.57843 0.0
O127 O 0.3636 0.33131 0.48615 0.0
loop_
_geom_bond_atom_site_label_1
_geom_bond_atom_site_label_2
_geom_bond_distance
_geom_bond_site_symmetry_2
_ccdc_geom_bond_type
Zn0 O1 2.055 1_655 S
Zn0 O8 2.046 . S
Zn0 N16 2.036 1_565 S
Zn0 O28 2.053 1_565 S
Zn0 O30 2.066 1_665 S
O1 Zn0 2.055 1_455 S
O1 C4 1.259 1_554 S
C2 O30 1.256 . S
C2 O31 1.244 1_554 S
Zn3 O5 2.046 1_655 S
Zn3 O7 2.055 . S
Zn3 N9 2.036 1_655 S
Zn3 O27 2.066 1_565 S
Zn3 O31 2.053 1_665 S
C4 O1 1.259 1_556 S
C4 O5 1.254 . S
O5 Zn3 2.046 1_455 S
O5 C4 1.254 . S
C6 O27 1.256 1_554 S
C6 O28 1.244 . S
O7 Zn3 2.055 . S
O7 C29 1.259 1_556 S
O8 Zn0 2.046 . S
O8 C29 1.254 . S
N9 Zn3 2.036 1_455 S
N9 C10 1.298 1_455 S
N9 N12 1.398 . S
C10 N9 1.298 1_655 S
C10 N13 1.367 1_665 S
C10 C23 1.481 1_565 S
C11 N12 1.299 . S
C11 N13 1.379 1_565 S
N12 N9 1.398 . S
N12 C11 1.299 . S
N13 C10 1.367 1_445 S
N13 C11 1.379 1_545 S
C14 N16 1.298 1_465 S
C14 N18 1.367 1_565 S
C14 C22 1.481 . S
C15 N17 1.299 . S
C15 N18 1.379 1_655 S
N16 Zn0 2.036 1_545 S
N16 C14 1.298 1_645 S
N16 N17 1.398 . S
N17 C15 1.299 . S
N17 N16 1.398 . S
N18 C14 1.367 1_545 S
N18 C15 1.379 1_455 S
H19 C22 0.980 . S
H20 C22 0.981 . S
H21 C22 0.981 . S
C22 C14 1.481 . S
C22 H19 0.980 . S
C22 H20 0.981 . S
C22 H21 0.981 . S
C23 C10 1.481 1_545 S
C23 H24 0.980 1_545 S
C23 H25 0.981 1_545 S
C23 H26 0.981 . S
H24 C23 0.980 1_565 S
H25 C23 0.981 1_565 S
H26 C23 0.981 . S
O27 Zn3 2.066 1_545 S
O27 C6 1.256 1_556 S
O28 Zn0 2.053 1_545 S
O28 C6 1.244 . S
C29 O7 1.259 1_554 S
C29 O8 1.254 . S
O30 Zn0 2.066 1_445 S
O30 C2 1.256 . S
O31 C2 1.244 1_556 S
O31 Zn3 2.053 1_445 S
Zn32 O33 2.055 . S
Zn32 O40 2.046 1_655 S
Zn32 N48 2.036 1_655 S
Zn32 O60 2.053 1_655 S
Zn32 O62 2.066 1_545 S
O33 Zn32 2.055 . S
O33 C36 1.259 . S
C34 O62 1.256 . S
C34 O63 1.244 . S
Zn35 O37 2.046 . S
Zn35 O39 2.055 1_655 S
Zn35 N41 2.036 . S
Zn35 O59 2.066 1_655 S
Zn35 O63 2.053 1_545 S
C36 O33 1.259 . S
C36 O37 1.254 . S
O37 Zn35 2.046 . S
O37 C36 1.254 . S
C38 O59 1.256 . S
C38 O60 1.244 . S
O39 Zn35 2.055 1_455 S
O39 C61 1.259 . S
O40 Zn32 2.046 1_455 S
O40 C61 1.254 . S
N41 Zn35 2.036 . S
N41 C42 1.298 1_655 S
N41 N44 1.398 1_545 S
C42 N41 1.298 1_455 S
C42 N45 1.367 . S
C42 C55 1.481 . S
C43 N44 1.299 . S
C43 N45 1.379 1_665 S
N44 N41 1.398 1_565 S
N44 C43 1.299 . S
N45 C42 1.367 . S
N45 C43 1.379 1_445 S
C46 N48 1.298 1_655 S
C46 N50 1.367 1_655 S
C46 C54 1.481 . S
C47 N49 1.299 . S
C47 N50 1.379 . S
N48 Zn32 2.036 1_455 S
N48 C46 1.298 1_455 S
N48 N49 1.398 . S
N49 C47 1.299 . S
N49 N48 1.398 . S
N50 C46 1.367 1_455 S
N50 C47 1.379 . S
H51 C54 0.980 . S
H52 C54 0.981 . S
H53 C54 0.981 1_565 S
C54 C46 1.481 . S
C54 H51 0.980 . S
C54 H52 0.981 . S
C54 H53 0.981 1_545 S
C55 C42 1.481 . S
C55 H56 0.980 . S
C55 H57 0.981 . S
C55 H58 0.981 . S
H56 C55 0.980 . S
H57 C55 0.981 . S
H58 C55 0.981 . S
O59 Zn35 2.066 1_455 S
O59 C38 1.256 . S
O60 Zn32 2.053 1_455 S
O60 C38 1.244 . S
C61 O39 1.259 . S
C61 O40 1.254 . S
O62 Zn32 2.066 1_565 S
O62 C34 1.256 . S
O63 C34 1.244 . S
O63 Zn35 2.053 1_565 S
Zn64 O65 2.055 . S
Zn64 O72 2.046 . S
Zn64 N80 2.036 . S
Zn64 O92 2.053 . S
Zn64 O94 2.066 . S
O65 Zn64 2.055 . S
O65 C68 1.259 1_554 S
C66 O94 1.256 . S
C66 O95 1.244 1_554 S
Zn67 O69 2.046 . S
Zn67 O71 2.055 . S
Zn67 N73 2.036 . S
Zn67 O91 2.066 . S
Zn67 O95 2.053 . S
C68 O65 1.259 1_556 S
C68 O69 1.254 . S
O69 Zn67 2.046 . S
O69 C68 1.254 . S
C70 O91 1.256 1_554 S
C70 O92 1.244 . S
O71 Zn67 2.055 . S
O71 C93 1.259 1_556 S
O72 Zn64 2.046 . S
O72 C93 1.254 . S
N73 Zn67 2.036 . S
N73 C74 1.298 . S
N73 N76 1.398 . S
C74 N73 1.298 . S
C74 N77 1.367 . S
C74 C87 1.481 . S
C75 N76 1.299 . S
C75 N77 1.379 . S
N76 N73 1.398 . S
N76 C75 1.299 . S
N77 C74 1.367 . S
N77 C75 1.379 . S
C78 N80 1.298 . S
C78 N82 1.367 . S
C78 C86 1.481 . S
C79 N81 1.299 . S
C79 N82 1.379 . S
N80 Zn64 2.036 . S
N80 C78 1.298 . S
N80 N81 1.398 . S
N81 C79 1.299 . S
N81 N80 1.398 . S
N82 C78 1.367 . S
N82 C79 1.379 . S
H83 C86 0.980 . S
H84 C86 0.981 . S
H85 C86 0.981 . S
C86 C78 1.481 . S
C86 H83 0.980 . S
C86 H84 0.981 . S
C86 H85 0.981 . S
C87 C74 1.481 . S
C87 H88 0.980 . S
C87 H89 0.981 . S
C87 H90 0.981 . S
H88 C87 0.980 . S
H89 C87 0.981 . S
H90 C87 0.981 . S
O91 Zn67 2.066 . S
O91 C70 1.256 1_556 S
O92 Zn64 2.053 . S
O92 C70 1.244 . S
C93 O71 1.259 1_554 S
C93 O72 1.254 . S
O94 Zn64 2.066 . S
O94 C66 1.256 . S
O95 C66 1.244 1_556 S
O95 Zn67 2.053 . S
Zn96 O97 2.055 . S
Zn96 O104 2.046 . S
Zn96 N112 2.036 . S
Zn96 O124 2.053 . S
Zn96 O126 2.066 . S
O97 Zn96 2.055 . S
O97 C100 1.259 . S
C98 O126 1.256 . S
C98 O127 1.244 . S
Zn99 O101 2.046 . S
Zn99 O103 2.055 . S
Zn99 N105 2.036 . S
Zn99 O123 2.066 . S
Zn99 O127 2.053 . S
C100 O97 1.259 . S
C100 O101 1.254 . S
O101 Zn99 2.046 . S
O101 C100 1.254 . S
C102 O123 1.256 . S
C102 O124 1.244 . S
O103 Zn99 2.055 . S
O103 C125 1.259 . S
O104 Zn96 2.046 . S
O104 C125 1.254 . S
N105 Zn99 2.036 . S
N105 C106 1.298 . S
N105 N108 1.398 . S
C106 N105 1.298 . S
C106 N109 1.367 . S
C106 C119 1.481 . S
C107 N108 1.299 . S
C107 N109 1.379 . S
N108 N105 1.398 . S
N108 C107 1.299 . S
N109 C106 1.367 . S
N109 C107 1.379 . S
C110 N112 1.298 . S
C110 N114 1.367 . S
C110 C118 1.481 . S
C111 N113 1.299 . S
C111 N114 1.379 . S
N112 Zn96 2.036 . S
N112 C110 1.298 . S
N112 N113 1.398 . S
N113 C111 1.299 . S
N113 N112 1.398 . S
N114 C110 1.367 . S
N114 C111 1.379 . S
H115 C118 0.980 . S
H116 C118 0.981 . S
H117 C118 0.981 . S
C118 C110 1.481 . S
C118 H115 0.980 . S
C118 H116 0.981 . S
C118 H117 0.981 . S
C119 C106 1.481 . S
C119 H120 0.980 . S
C119 H121 0.981 . S
C119 H122 0.981 . S
H120 C119 0.980 . S
H121 C119 0.981 . S
H122 C119 0.981 . S
O123 Zn99 2.066 . S
O123 C102 1.256 . S
O124 Zn96 2.053 . S
O124 C102 1.244 . S
C125 O103 1.259 . S
C125 O104 1.254 . S
O126 Zn96 2.066 . S
O126 C98 1.256 . S
O127 C98 1.244 . S
O127 Zn99 2.053 . S
C70 C4 1.857 1_554 S
C68 C6 1.857 1_556 S
C61 C98 1.857 . S
C34 C125 1.858 . S
C2 C29 1.428 1_545 S
C38 C36 1.428 . S
C66 C93 1.428 1_655 S
C100 C102 1.428 1_455 S
N45 N18 1.449 . S
N13 N50 1.415 . S
N109 N82 1.448 . S
N114 N77 1.415 . S
