# Generated by pormake.
# Topology rac, (4)-cn, num edge types: 1
# Building blocks:
#     Node 0, Type 0, BuildingBlock: NAHDIM_clean_sbu_0, # of connection points: 4
#     Node 1, Type 0, BuildingBlock: NAHDIM_clean_sbu_0, # of connection points: 4
#     Node 2, Type 0, BuildingBlock: NAHDIM_clean_sbu_0, # of connection points: 4
#     Node 3, Type 0, BuildingBlock: NAHDIM_clean_sbu_0, # of connection points: 4
#     Node 4, Type 0, BuildingBlock: NAHDIM_clean_sbu_0, # of connection points: 4
#     Node 5, Type 0, BuildingBlock: NAHDIM_clean_sbu_0, # of connection points: 4
#     Node 6, Type 0, BuildingBlock: NAHDIM_clean_sbu_0, # of connection points: 4
#     Node 7, Type 0, BuildingBlock: NAHDIM_clean_sbu_0, # of connection points: 4
#     Edge 8, Type (0, 0), BuildingBlock: OJICUG_clean_linker_0, # of connection points: 2
#     Edge 9, Type (0, 0), BuildingBlock: OJICUG_clean_linker_0, # of connection points: 2
#     Edge 10, Type (0, 0), BuildingBlock: OJICUG_clean_linker_0, # of connection points: 2
#     Edge 11, Type (0, 0), BuildingBlock: OJICUG_clean_linker_0, # of connection points: 2
#     Edge 12, Type (0, 0), BuildingBlock: OJICUG_clean_linker_0, # of connection points: 2
#     Edge 13, Type (0, 0), BuildingBlock: OJICUG_clean_linker_0, # of connection points: 2
#     Edge 14, Type (0, 0), BuildingBlock: OJICUG_clean_linker_0, # of connection points: 2
#     Edge 15, Type (0, 0), BuildingBlock: OJICUG_clean_linker_0, # of connection points: 2
#     Edge 16, Type (0, 0), BuildingBlock: OJICUG_clean_linker_0, # of connection points: 2
#     Edge 17, Type (0, 0), BuildingBlock: OJICUG_clean_linker_0, # of connection points: 2
#     Edge 18, Type (0, 0), BuildingBlock: OJICUG_clean_linker_0, # of connection points: 2
#     Edge 19, Type (0, 0), BuildingBlock: OJICUG_clean_linker_0, # of connection points: 2
#     Edge 20, Type (0, 0), BuildingBlock: OJICUG_clean_linker_0, # of connection points: 2
#     Edge 21, Type (0, 0), BuildingBlock: OJICUG_clean_linker_0, # of connection points: 2
#     Edge 22, Type (0, 0), BuildingBlock: OJICUG_clean_linker_0, # of connection points: 2
#     Edge 23, Type (0, 0), BuildingBlock: OJICUG_clean_linker_0, # of connection points: 2
# Relax obj value: 0.219
# Max RMSD: 0.117
# Mean RMSD: 0.117
data_MOF--net-rac--node1-NAHDIM_clean_sbu_0--edge1-OJICUG_clean_linker_0
_symmetry_space_group_name_H-M    P1
_symmetry_Int_Tables_number       1
_symmetry_cell_setting            triclinic
loop_
_symmetry_equiv_pos_as_xyz
'x, y, z'
_cell_length_a     29.810654
_cell_length_b     15.16736
_cell_length_c     30.635625
_cell_angle_alpha  89.977584
_cell_angle_beta   89.838228
_cell_angle_gamma 90.034685
loop_
_atom_site_label
_atom_site_type_symbol
_atom_site_fract_x
_atom_site_fract_y
_atom_site_fract_z
_atom_type_partial_charge
C0 C 0.44137 0.37727 0.04789 0.0
O1 O 0.42845 0.40084 0.08724 0.0
O2 O 0.39002 0.23372 0.13089 0.0
Zn3 Zn 0.37345 0.26041 0.06835 0.0
O4 O 0.33597 0.36676 0.07262 0.0
C5 C 0.32651 0.09394 0.06332 0.0
O6 O 0.35738 0.07137 0.09173 0.0
O7 O 0.42512 0.30668 0.0316 0.0
C8 C 0.32015 0.3983 0.03763 0.0
O9 O 0.32665 0.35671 0.00054 0.0
C10 C 0.35605 0.22398 0.15565 0.0
O11 O 0.3157 0.22909 0.13869 0.0
O12 O 0.33049 0.16739 0.04363 0.0
C13 C 0.05533 0.61893 0.04032 0.0
O14 O 0.08289 0.58511 0.06915 0.0
O15 O 0.10317 0.74515 0.12853 0.0
Zn16 Zn 0.11244 0.75505 0.06257 0.0
O17 O 0.1627 0.67692 0.04535 0.0
C18 C 0.15293 0.92243 0.07688 0.0
O19 O 0.13803 0.90555 0.11638 0.0
O20 O 0.05916 0.70067 0.03081 0.0
C21 C 0.20257 0.69134 0.0577 0.0
O22 O 0.21102 0.75781 0.08388 0.0
C23 C 0.12302 0.68699 0.1514 0.0
O24 O 0.14839 0.62803 0.13205 0.0
O25 O 0.13813 0.87593 0.04541 0.0
C26 C 0.43001 0.11977 0.4535 0.0
O27 O 0.40221 0.08605 0.42485 0.0
O28 O 0.38231 0.24629 0.36532 0.0
Zn29 Zn 0.37316 0.25632 0.4313 0.0
O30 O 0.32273 0.17858 0.44863 0.0
C31 C 0.33301 0.42394 0.41697 0.0
O32 O 0.34786 0.40705 0.37747 0.0
O33 O 0.42642 0.20156 0.46294 0.0
C34 C 0.28291 0.19317 0.43621 0.0
O35 O 0.27461 0.25956 0.40993 0.0
C36 C 0.36238 0.18807 0.34253 0.0
O37 O 0.33694 0.12926 0.36198 0.0
O38 O 0.34776 0.37736 0.44845 0.0
C39 C 0.04437 0.87794 0.44571 0.0
O40 O 0.05727 0.90133 0.40632 0.0
O41 O 0.09582 0.73439 0.36297 0.0
Zn42 Zn 0.11241 0.76141 0.42546 0.0
O43 O 0.1498 0.86798 0.42109 0.0
C44 C 0.15947 0.59518 0.43063 0.0
O45 O 0.12857 0.57238 0.40229 0.0
O46 O 0.06068 0.80754 0.46214 0.0
C47 C 0.1653 0.8999 0.45613 0.0
O48 O 0.15854 0.85854 0.49326 0.0
C49 C 0.12975 0.72468 0.33817 0.0
O50 O 0.17013 0.7301 0.35505 0.0
O51 O 0.15547 0.66867 0.45025 0.0
C52 C 0.54404 0.62641 0.94418 0.0
O53 O 0.55708 0.60271 0.90489 0.0
O54 O 0.59609 0.76924 0.86134 0.0
Zn55 Zn 0.61229 0.74267 0.92398 0.0
O56 O 0.6496 0.636 0.92013 0.0
C57 C 0.65962 0.90875 0.929 0.0
O58 O 0.62916 0.93128 0.90017 0.0
O59 O 0.56033 0.69694 0.96049 0.0
C60 C 0.66492 0.60455 0.95536 0.0
O61 O 0.65804 0.64644 0.99231 0.0
C62 C 0.63014 0.77846 0.83665 0.0
O63 O 0.67044 0.77282 0.8537 0.0
O64 O 0.65524 0.83557 0.94885 0.0
C65 C 0.92964 0.38512 0.95408 0.0
O66 O 0.902 0.41889 0.92531 0.0
O67 O 0.88188 0.25878 0.86589 0.0
Zn68 Zn 0.87272 0.24863 0.93185 0.0
O69 O 0.82227 0.32621 0.94913 0.0
C70 C 0.8333 0.08031 0.91731 0.0
O71 O 0.8488 0.09686 0.878 0.0
O72 O 0.92593 0.30334 0.96355 0.0
C73 C 0.78243 0.31112 0.93689 0.0
O74 O 0.77416 0.24425 0.91091 0.0
C75 C 0.86178 0.31664 0.84304 0.0
O76 O 0.8362 0.37523 0.86242 0.0
O77 O 0.84741 0.12742 0.94886 0.0
C78 C 0.55599 0.88547 0.53893 0.0
O79 O 0.58378 0.91908 0.56761 0.0
O80 O 0.6037 0.75859 0.62695 0.0
Zn81 Zn 0.61279 0.74875 0.56098 0.0
O82 O 0.66329 0.82636 0.54371 0.0
C83 C 0.65208 0.58032 0.57538 0.0
O84 O 0.63653 0.59661 0.61469 0.0
O85 O 0.55957 0.80371 0.52942 0.0
C86 C 0.70312 0.81124 0.55594 0.0
O87 O 0.71136 0.74431 0.5819 0.0
C88 C 0.62384 0.81634 0.64984 0.0
O89 O 0.64946 0.87501 0.63049 0.0
O90 O 0.63802 0.62761 0.54386 0.0
C91 C 0.94144 0.12718 0.5489 0.0
O92 O 0.92837 0.10361 0.58821 0.0
O93 O 0.88935 0.26995 0.63152 0.0
Zn94 Zn 0.87315 0.2433 0.5689 0.0
O95 O 0.83584 0.13654 0.57279 0.0
C96 C 0.82579 0.40926 0.56377 0.0
O97 O 0.85624 0.43189 0.59259 0.0
O98 O 0.92515 0.19758 0.53246 0.0
C99 C 0.82063 0.10498 0.53755 0.0
O100 O 0.8276 0.14683 0.50058 0.0
C101 C 0.85532 0.27915 0.65623 0.0
O102 O 0.81501 0.27348 0.63921 0.0
O103 O 0.8302 0.33607 0.54395 0.0
C104 C 0.25316 0.04683 0.02867 0.0
C105 C 0.28224 0.04912 0.06479 0.0
H106 H 0.18928 0.00341 0.00364 0.0
C107 C 0.26752 0.01305 0.10452 0.0
H108 H 0.2635 0.07501 -0.00225 0.0
C109 C 0.22493 0.97587 0.10833 0.0
C110 C 0.19599 0.97127 0.07222 0.0
H111 H 0.28866 0.0151 0.13323 0.0
H112 H 0.21523 0.94842 0.13962 0.0
C113 C 0.21065 0.0066 0.03213 0.0
C114 C 0.21853 0.5149 0.38934 0.0
C115 C 0.20377 0.55059 0.42912 0.0
H116 H 0.27083 0.4506 0.35419 0.0
C117 C 0.23282 0.54807 0.46526 0.0
H118 H 0.19742 0.51715 0.36062 0.0
C119 C 0.27531 0.5079 0.46178 0.0
C120 C 0.29 0.47286 0.42165 0.0
H121 H 0.22246 0.57598 0.49622 0.0
H122 H 0.29665 0.50447 0.49028 0.0
C123 C 0.26111 0.47778 0.38551 0.0
C124 C 0.73236 0.9567 0.96456 0.0
C125 C 0.70398 0.95322 0.92794 0.0
H126 H 0.79567 1.00119 0.99042 0.0
C127 C 0.71947 0.98792 0.88818 0.0
H128 H 0.72141 0.92957 0.99552 0.0
C129 C 0.76211 0.02511 0.88486 0.0
C130 C 0.79031 0.03107 0.92148 0.0
H131 H 0.69889 0.98489 0.85912 0.0
H132 H 0.77239 0.05157 0.85355 0.0
C133 C 0.77489 0.99694 0.96157 0.0
C134 C 0.72326 0.52523 0.60785 0.0
C135 C 0.69509 0.53121 0.57122 0.0
H136 H 0.78646 0.48511 0.63362 0.0
C137 C 0.71053 0.49721 0.53113 0.0
H138 H 0.71295 0.55158 0.63917 0.0
C139 C 0.75307 0.45708 0.52816 0.0
C140 C 0.78142 0.45358 0.5648 0.0
H141 H 0.68977 0.50148 0.50226 0.0
H142 H 0.76404 0.43005 0.49721 0.0
C143 C 0.7659 0.48816 0.60455 0.0
C144 C 0.32752 0.16078 0.22509 0.0
C145 C 0.36086 0.20829 0.20283 0.0
H146 H 0.30243 0.11588 0.28653 0.0
C147 C 0.39653 0.24515 0.22649 0.0
H148 H 0.29977 0.13136 0.20754 0.0
C149 C 0.39763 0.23783 0.27208 0.0
C150 C 0.36366 0.19168 0.29439 0.0
H151 H 0.42251 0.28248 0.20998 0.0
H152 H 0.42469 0.269 0.28986 0.0
C153 C 0.32916 0.15171 0.27032 0.0
C154 C 0.08911 0.74503 0.26736 0.0
C155 C 0.12486 0.70854 0.29104 0.0
H156 H 0.0608 0.76817 0.20399 0.0
C157 C 0.15815 0.6609 0.26884 0.0
H158 H 0.06316 0.78244 0.28382 0.0
C159 C 0.15639 0.65136 0.22365 0.0
C160 C 0.12183 0.69098 0.19954 0.0
H161 H 0.18595 0.63175 0.28641 0.0
H162 H 0.18309 0.61546 0.20748 0.0
C163 C 0.0879 0.73725 0.2218 0.0
C164 C 0.58955 0.75874 0.76576 0.0
C165 C 0.62548 0.7945 0.78947 0.0
H166 H 0.56115 0.73628 0.70238 0.0
C167 C 0.65909 0.84143 0.76729 0.0
H168 H 0.56335 0.72189 0.78221 0.0
C169 C 0.65743 0.85105 0.72209 0.0
C170 C 0.62264 0.81221 0.69797 0.0
H171 H 0.68703 0.87001 0.78488 0.0
H172 H 0.68435 0.88642 0.70593 0.0
C173 C 0.58843 0.7666 0.7202 0.0
C174 C 0.82647 0.34203 0.72561 0.0
C175 C 0.86004 0.29513 0.7034 0.0
H176 H 0.80129 0.38688 0.78699 0.0
C177 C 0.89596 0.25933 0.72708 0.0
H178 H 0.79853 0.37064 0.70804 0.0
C179 C 0.89712 0.26709 0.77264 0.0
C180 C 0.86296 0.31265 0.7949 0.0
H181 H 0.92213 0.22251 0.71061 0.0
H182 H 0.9244 0.23673 0.79044 0.0
C183 C 0.82817 0.35155 0.77081 0.0
C184 C 0.47777 0.42296 0.97723 0.0
C185 C 0.46894 0.43921 0.02151 0.0
H186 H 0.50762 0.4698 0.91805 0.0
C187 C 0.48411 0.51892 0.03998 0.0
H188 H 0.46625 0.36279 0.96186 0.0
C189 C 0.50753 0.58084 0.0148 0.0
C190 C 0.51637 0.56458 0.97052 0.0
H191 H 0.47769 0.53399 0.07398 0.0
H192 H 0.51906 0.641 0.03017 0.0
C193 C 0.50119 0.48488 0.95205 0.0
C194 C 0.02039 0.47007 0.02996 0.0
C195 C 0.02258 0.56005 0.01845 0.0
H196 H 0.98973 0.34413 0.01873 0.0
C197 C -0.00569 0.59136 0.98543 0.0
H198 H 0.04178 0.44346 0.05526 0.0
C199 C 0.96456 0.53404 0.96442 0.0
C200 C 0.96237 0.44405 0.97594 0.0
H201 H -0.00476 0.65998 0.97566 0.0
H202 H 0.94317 0.56063 0.93912 0.0
C203 C 0.99065 0.41275 0.00896 0.0
C204 C 0.49461 0.91335 0.48447 0.0
C205 C 0.5232 0.94453 0.51727 0.0
H206 H 0.44317 0.94424 0.43854 0.0
C207 C 0.52122 0.03453 0.52877 0.0
H208 H 0.49536 0.84473 0.47472 0.0
C209 C 0.4914 0.09196 0.50798 0.0
C210 C 0.46281 0.06076 0.47518 0.0
H211 H 0.54285 0.06104 0.55391 0.0
H212 H 0.49065 0.16058 0.51773 0.0
C213 C 0.46479 0.97077 0.46367 0.0
C214 C 0.98442 0.98584 0.54132 0.0
C215 C 0.96917 0.06533 0.52269 0.0
H216 H 0.01947 0.86389 0.53177 0.0
C217 C 0.97802 0.08135 0.47838 0.0
H218 H 0.978 0.97096 0.57535 0.0
C219 C 0.0015 0.01939 0.45333 0.0
C220 C 0.01673 0.93988 0.47196 0.0
H221 H 0.96644 0.14133 0.46288 0.0
H222 H 0.00791 0.03427 0.4193 0.0
C223 C 0.00791 0.92388 0.51628 0.0
C224 C 0.27204 0.61182 0.07831 0.0
C225 C 0.23683 0.62472 0.04879 0.0
H226 H 0.32603 0.52829 0.09797 0.0
C227 C 0.23187 0.56746 0.01311 0.0
H228 H 0.27644 0.65509 0.1061 0.0
C229 C 0.26051 0.49564 0.00815 0.0
C230 C 0.29376 0.47944 0.03934 0.0
H231 H 0.20501 0.57668 0.98979 0.0
H232 H 0.25522 0.45062 0.9812 0.0
C233 C 0.30008 0.53906 0.07384 0.0
C234 C 0.21356 0.1134 0.41536 0.0
C235 C 0.24854 0.12665 0.44509 0.0
H236 H 0.15978 0.02946 0.39549 0.0
C237 C 0.25325 0.0697 0.48095 0.0
H238 H 0.20936 0.15642 0.38743 0.0
C239 C 0.22461 0.9978 0.48585 0.0
C240 C 0.19162 0.9812 0.45445 0.0
H241 H 0.27994 0.07921 0.50442 0.0
H242 H 0.22971 0.95299 0.51294 0.0
C243 C 0.18552 0.04054 0.41978 0.0
C244 C 0.72412 0.50716 0.98563 0.0
C245 C 0.69117 0.5232 0.95411 0.0
H246 H 0.7794 0.42614 0.00462 0.0
C247 C 0.68507 0.46323 0.91972 0.0
H248 H 0.72922 0.55246 0.0125 0.0
C249 C 0.71307 0.39031 0.91568 0.0
C250 C 0.74803 0.37762 0.94549 0.0
H251 H 0.65935 0.47388 0.89536 0.0
H252 H 0.70888 0.34681 0.88794 0.0
C253 C 0.75273 0.43519 0.98109 0.0
C254 C 0.77242 0.89062 0.57725 0.0
C255 C 0.73754 0.8778 0.54736 0.0
H256 H 0.82607 0.97439 0.59765 0.0
C257 C 0.73293 0.93531 0.51172 0.0
H258 H 0.77655 0.84717 0.60503 0.0
C259 C 0.76153 0.00737 0.5072 0.0
C260 C 0.7944 0.02354 0.53879 0.0
H261 H 0.70631 0.92615 0.48813 0.0
H262 H 0.75649 0.05262 0.48029 0.0
C263 C 0.80042 0.96363 0.57323 0.0
loop_
_geom_bond_atom_site_label_1
_geom_bond_atom_site_label_2
_geom_bond_distance
_geom_bond_site_symmetry_2
_ccdc_geom_bond_type
C0 O1 1.160 . S
C0 O7 1.185 . S
O1 C0 1.160 . S
O2 Zn3 1.899 . S
O2 C10 1.284 . S
Zn3 O2 1.899 . S
Zn3 O4 2.032 . S
Zn3 O7 2.086 . S
Zn3 O12 1.977 . S
O4 Zn3 2.032 . S
O4 C8 1.278 . S
C5 O6 1.203 . S
C5 O12 1.267 . S
O6 C5 1.203 . S
O7 C0 1.185 . S
O7 Zn3 2.086 . S
C8 O4 1.278 . S
C8 O9 1.211 . S
O9 C8 1.211 . S
C10 O2 1.284 . S
C10 O11 1.273 . S
O11 C10 1.273 . S
O12 Zn3 1.977 . S
O12 C5 1.267 . S
C13 O14 1.160 . S
C13 O20 1.185 . S
O14 C13 1.160 . S
O15 Zn16 1.899 . S
O15 C23 1.284 . S
Zn16 O15 1.899 . S
Zn16 O17 2.032 . S
Zn16 O20 2.086 . S
Zn16 O25 1.977 . S
O17 Zn16 2.032 . S
O17 C21 1.278 . S
C18 O19 1.203 . S
C18 O25 1.267 . S
O19 C18 1.203 . S
O20 C13 1.185 . S
O20 Zn16 2.086 . S
C21 O17 1.278 . S
C21 O22 1.211 . S
O22 C21 1.211 . S
C23 O15 1.284 . S
C23 O24 1.273 . S
O24 C23 1.273 . S
O25 Zn16 1.977 . S
O25 C18 1.267 . S
C26 O27 1.160 . S
C26 O33 1.185 . S
O27 C26 1.160 . S
O28 Zn29 1.899 . S
O28 C36 1.284 . S
Zn29 O28 1.899 . S
Zn29 O30 2.032 . S
Zn29 O33 2.086 . S
Zn29 O38 1.977 . S
O30 Zn29 2.032 . S
O30 C34 1.278 . S
C31 O32 1.203 . S
C31 O38 1.267 . S
O32 C31 1.203 . S
O33 C26 1.185 . S
O33 Zn29 2.086 . S
C34 O30 1.278 . S
C34 O35 1.211 . S
O35 C34 1.211 . S
C36 O28 1.284 . S
C36 O37 1.273 . S
O37 C36 1.273 . S
O38 Zn29 1.977 . S
O38 C31 1.267 . S
C39 O40 1.160 . S
C39 O46 1.185 . S
O40 C39 1.160 . S
O41 Zn42 1.899 . S
O41 C49 1.284 . S
Zn42 O41 1.899 . S
Zn42 O43 2.032 . S
Zn42 O46 2.086 . S
Zn42 O51 1.977 . S
O43 Zn42 2.032 . S
O43 C47 1.278 . S
C44 O45 1.203 . S
C44 O51 1.267 . S
O45 C44 1.203 . S
O46 C39 1.185 . S
O46 Zn42 2.086 . S
C47 O43 1.278 . S
C47 O48 1.211 . S
O48 C47 1.211 . S
C49 O41 1.284 . S
C49 O50 1.273 . S
O50 C49 1.273 . S
O51 Zn42 1.977 . S
O51 C44 1.267 . S
C52 O53 1.160 . S
C52 O59 1.185 . S
O53 C52 1.160 . S
O54 Zn55 1.899 . S
O54 C62 1.284 . S
Zn55 O54 1.899 . S
Zn55 O56 2.032 . S
Zn55 O59 2.086 . S
Zn55 O64 1.977 . S
O56 Zn55 2.032 . S
O56 C60 1.278 . S
C57 O58 1.203 . S
C57 O64 1.267 . S
O58 C57 1.203 . S
O59 C52 1.185 . S
O59 Zn55 2.086 . S
C60 O56 1.278 . S
C60 O61 1.211 . S
O61 C60 1.211 . S
C62 O54 1.284 . S
C62 O63 1.273 . S
O63 C62 1.273 . S
O64 Zn55 1.977 . S
O64 C57 1.267 . S
C65 O66 1.160 . S
C65 O72 1.185 . S
O66 C65 1.160 . S
O67 Zn68 1.899 . S
O67 C75 1.284 . S
Zn68 O67 1.899 . S
Zn68 O69 2.032 . S
Zn68 O72 2.086 . S
Zn68 O77 1.977 . S
O69 Zn68 2.032 . S
O69 C73 1.278 . S
C70 O71 1.203 . S
C70 O77 1.267 . S
O71 C70 1.203 . S
O72 C65 1.185 . S
O72 Zn68 2.086 . S
C73 O69 1.278 . S
C73 O74 1.211 . S
O74 C73 1.211 . S
C75 O67 1.284 . S
C75 O76 1.273 . S
O76 C75 1.273 . S
O77 Zn68 1.977 . S
O77 C70 1.267 . S
C78 O79 1.160 . S
C78 O85 1.185 . S
O79 C78 1.160 . S
O80 Zn81 1.899 . S
O80 C88 1.284 . S
Zn81 O80 1.899 . S
Zn81 O82 2.032 . S
Zn81 O85 2.086 . S
Zn81 O90 1.977 . S
O82 Zn81 2.032 . S
O82 C86 1.278 . S
C83 O84 1.203 . S
C83 O90 1.267 . S
O84 C83 1.203 . S
O85 C78 1.185 . S
O85 Zn81 2.086 . S
C86 O82 1.278 . S
C86 O87 1.211 . S
O87 C86 1.211 . S
C88 O80 1.284 . S
C88 O89 1.273 . S
O89 C88 1.273 . S
O90 Zn81 1.977 . S
O90 C83 1.267 . S
C91 O92 1.160 . S
C91 O98 1.185 . S
O92 C91 1.160 . S
O93 Zn94 1.899 . S
O93 C101 1.284 . S
Zn94 O93 1.899 . S
Zn94 O95 2.032 . S
Zn94 O98 2.086 . S
Zn94 O103 1.977 . S
O95 Zn94 2.032 . S
O95 C99 1.278 . S
C96 O97 1.203 . S
C96 O103 1.267 . S
O97 C96 1.203 . S
O98 C91 1.185 . S
O98 Zn94 2.086 . S
C99 O95 1.278 . S
C99 O100 1.211 . S
O100 C99 1.211 . S
C101 O93 1.284 . S
C101 O102 1.273 . S
O102 C101 1.273 . S
O103 Zn94 1.977 . S
O103 C96 1.267 . S
C104 C105 1.387 . S
C104 H108 0.950 1_554 S
C104 C113 1.390 1_545 S
C105 C104 1.387 . S
C105 C107 1.387 . S
H106 C113 0.950 1_556 S
C107 C105 1.387 . S
C107 C109 1.390 1_545 S
C107 H111 0.950 . S
H108 C104 0.950 1_556 S
C109 C107 1.390 1_565 S
C109 C110 1.387 . S
C109 H112 0.950 . S
C110 C109 1.387 . S
C110 C113 1.387 . S
H111 C107 0.950 . S
H112 C109 0.950 . S
C113 C104 1.390 1_565 S
C113 H106 0.950 1_554 S
C113 C110 1.387 . S
C114 C115 1.387 . S
C114 H118 0.950 . S
C114 C123 1.390 . S
C115 C114 1.387 . S
C115 C117 1.387 . S
H116 C123 0.950 . S
C117 C115 1.387 . S
C117 C119 1.390 . S
C117 H121 0.950 . S
H118 C114 0.950 . S
C119 C117 1.390 . S
C119 C120 1.387 . S
C119 H122 0.950 . S
C120 C119 1.387 . S
C120 C123 1.387 . S
H121 C117 0.950 . S
H122 C119 0.950 . S
C123 C114 1.390 . S
C123 H116 0.950 . S
C123 C120 1.387 . S
C124 C125 1.387 . S
C124 H128 0.950 1_556 S
C124 C133 1.390 1_565 S
C125 C124 1.387 . S
C125 C127 1.387 . S
H126 C133 0.950 1_554 S
C127 C125 1.387 . S
C127 C129 1.390 1_565 S
C127 H131 0.950 . S
H128 C124 0.950 1_554 S
C129 C127 1.390 1_545 S
C129 C130 1.387 . S
C129 H132 0.950 . S
C130 C129 1.387 . S
C130 C133 1.387 . S
H131 C127 0.950 . S
H132 C129 0.950 . S
C133 C124 1.390 1_545 S
C133 H126 0.950 1_556 S
C133 C130 1.387 . S
C134 C135 1.387 . S
C134 H138 0.950 . S
C134 C143 1.390 . S
C135 C134 1.387 . S
C135 C137 1.387 . S
H136 C143 0.950 . S
C137 C135 1.387 . S
C137 C139 1.390 . S
C137 H141 0.950 . S
H138 C134 0.950 . S
C139 C137 1.390 . S
C139 C140 1.387 . S
C139 H142 0.950 . S
C140 C139 1.387 . S
C140 C143 1.387 . S
H141 C137 0.950 . S
H142 C139 0.950 . S
C143 C134 1.390 . S
C143 H136 0.950 . S
C143 C140 1.387 . S
C144 C145 1.387 . S
C144 H148 0.950 . S
C144 C153 1.390 . S
C145 C144 1.387 . S
C145 C147 1.387 . S
H146 C153 0.950 . S
C147 C145 1.387 . S
C147 C149 1.390 . S
C147 H151 0.950 . S
H148 C144 0.950 . S
C149 C147 1.390 . S
C149 C150 1.387 . S
C149 H152 0.950 . S
C150 C149 1.387 . S
C150 C153 1.387 . S
H151 C147 0.950 . S
H152 C149 0.950 . S
C153 C144 1.390 . S
C153 H146 0.950 . S
C153 C150 1.387 . S
C154 C155 1.387 . S
C154 H158 0.950 . S
C154 C163 1.390 . S
C155 C154 1.387 . S
C155 C157 1.387 . S
H156 C163 0.950 . S
C157 C155 1.387 . S
C157 C159 1.390 . S
C157 H161 0.950 . S
H158 C154 0.950 . S
C159 C157 1.390 . S
C159 C160 1.387 . S
C159 H162 0.950 . S
C160 C159 1.387 . S
C160 C163 1.387 . S
H161 C157 0.950 . S
H162 C159 0.950 . S
C163 C154 1.390 . S
C163 H156 0.950 . S
C163 C160 1.387 . S
C164 C165 1.387 . S
C164 H168 0.950 . S
C164 C173 1.390 . S
C165 C164 1.387 . S
C165 C167 1.387 . S
H166 C173 0.950 . S
C167 C165 1.387 . S
C167 C169 1.390 . S
C167 H171 0.950 . S
H168 C164 0.950 . S
C169 C167 1.390 . S
C169 C170 1.387 . S
C169 H172 0.950 . S
C170 C169 1.387 . S
C170 C173 1.387 . S
H171 C167 0.950 . S
H172 C169 0.950 . S
C173 C164 1.390 . S
C173 H166 0.950 . S
C173 C170 1.387 . S
C174 C175 1.387 . S
C174 H178 0.950 . S
C174 C183 1.390 . S
C175 C174 1.387 . S
C175 C177 1.387 . S
H176 C183 0.950 . S
C177 C175 1.387 . S
C177 C179 1.390 . S
C177 H181 0.950 . S
H178 C174 0.950 . S
C179 C177 1.390 . S
C179 C180 1.387 . S
C179 H182 0.950 . S
C180 C179 1.387 . S
C180 C183 1.387 . S
H181 C177 0.950 . S
H182 C179 0.950 . S
C183 C174 1.390 . S
C183 H176 0.950 . S
C183 C180 1.387 . S
C184 C185 1.387 1_556 S
C184 H188 0.950 . S
C184 C193 1.390 . S
C185 C184 1.387 1_554 S
C185 C187 1.387 . S
H186 C193 0.950 . S
C187 C185 1.387 . S
C187 C189 1.390 . S
C187 H191 0.950 . S
H188 C184 0.950 . S
C189 C187 1.390 . S
C189 C190 1.387 1_554 S
C189 H192 0.950 . S
C190 C189 1.387 1_556 S
C190 C193 1.387 . S
H191 C187 0.950 . S
H192 C189 0.950 . S
C193 C184 1.390 . S
C193 H186 0.950 . S
C193 C190 1.387 . S
C194 C195 1.387 . S
C194 H198 0.950 . S
C194 C203 1.390 1_455 S
C195 C194 1.387 . S
C195 C197 1.387 1_554 S
H196 C203 0.950 . S
C197 C195 1.387 1_556 S
C197 C199 1.390 1_455 S
C197 H201 0.950 . S
H198 C194 0.950 . S
C199 C197 1.390 1_655 S
C199 C200 1.387 . S
C199 H202 0.950 . S
C200 C199 1.387 . S
C200 C203 1.387 1_556 S
H201 C197 0.950 . S
H202 C199 0.950 . S
C203 C194 1.390 1_655 S
C203 H196 0.950 . S
C203 C200 1.387 1_554 S
C204 C205 1.387 . S
C204 H208 0.950 . S
C204 C213 1.390 1_565 S
C205 C204 1.387 . S
C205 C207 1.387 . S
H206 C213 0.950 . S
C207 C205 1.387 . S
C207 C209 1.390 1_565 S
C207 H211 0.950 . S
H208 C204 0.950 . S
C209 C207 1.390 1_545 S
C209 C210 1.387 . S
C209 H212 0.950 . S
C210 C209 1.387 . S
C210 C213 1.387 . S
H211 C207 0.950 . S
H212 C209 0.950 . S
C213 C204 1.390 1_545 S
C213 H206 0.950 . S
C213 C210 1.387 . S
C214 C215 1.387 1_455 S
C214 H218 0.950 . S
C214 C223 1.390 1_545 S
C215 C214 1.387 1_655 S
C215 C217 1.387 . S
H216 C223 0.950 . S
C217 C215 1.387 . S
C217 C219 1.390 1_545 S
C217 H221 0.950 . S
H218 C214 0.950 . S
C219 C217 1.390 1_565 S
C219 C220 1.387 1_655 S
C219 H222 0.950 . S
C220 C219 1.387 1_455 S
C220 C223 1.387 . S
H221 C217 0.950 . S
H222 C219 0.950 . S
C223 C214 1.390 1_565 S
C223 H216 0.950 . S
C223 C220 1.387 . S
C224 C225 1.387 . S
C224 H228 0.950 . S
C224 C233 1.390 . S
C225 C224 1.387 . S
C225 C227 1.387 . S
H226 C233 0.950 . S
C227 C225 1.387 . S
C227 C229 1.390 . S
C227 H231 0.950 1_554 S
H228 C224 0.950 . S
C229 C227 1.390 . S
C229 C230 1.387 . S
C229 H232 0.950 1_554 S
C230 C229 1.387 . S
C230 C233 1.387 . S
H231 C227 0.950 1_556 S
H232 C229 0.950 1_556 S
C233 C224 1.390 . S
C233 H226 0.950 . S
C233 C230 1.387 . S
C234 C235 1.387 . S
C234 H238 0.950 . S
C234 C243 1.390 1_545 S
C235 C234 1.387 . S
C235 C237 1.387 . S
H236 C243 0.950 . S
C237 C235 1.387 . S
C237 C239 1.390 1_545 S
C237 H241 0.950 . S
H238 C234 0.950 . S
C239 C237 1.390 1_565 S
C239 C240 1.387 . S
C239 H242 0.950 . S
C240 C239 1.387 . S
C240 C243 1.387 . S
H241 C237 0.950 . S
H242 C239 0.950 . S
C243 C234 1.390 1_565 S
C243 H236 0.950 . S
C243 C240 1.387 . S
C244 C245 1.387 . S
C244 H248 0.950 1_556 S
C244 C253 1.390 . S
C245 C244 1.387 . S
C245 C247 1.387 . S
H246 C253 0.950 1_554 S
C247 C245 1.387 . S
C247 C249 1.390 . S
C247 H251 0.950 . S
H248 C244 0.950 1_554 S
C249 C247 1.390 . S
C249 C250 1.387 . S
C249 H252 0.950 . S
C250 C249 1.387 . S
C250 C253 1.387 . S
H251 C247 0.950 . S
H252 C249 0.950 . S
C253 C244 1.390 . S
C253 H246 0.950 1_556 S
C253 C250 1.387 . S
C254 C255 1.387 . S
C254 H258 0.950 . S
C254 C263 1.390 1_565 S
C255 C254 1.387 . S
C255 C257 1.387 . S
H256 C263 0.950 . S
C257 C255 1.387 . S
C257 C259 1.390 1_565 S
C257 H261 0.950 . S
H258 C254 0.950 . S
C259 C257 1.390 1_545 S
C259 C260 1.387 . S
C259 H262 0.950 . S
C260 C259 1.387 . S
C260 C263 1.387 . S
H261 C257 0.950 . S
H262 C259 0.950 . S
C263 C254 1.390 1_545 S
C263 H256 0.950 . S
C263 C260 1.387 . S
C105 C5 1.422 . S
C110 C18 1.422 . S
C115 C44 1.425 . S
C120 C31 1.425 . S
C125 C57 1.426 . S
C130 C70 1.426 . S
C135 C83 1.422 . S
C140 C96 1.422 . S
C145 C10 1.492 . S
C150 C36 1.493 . S
C155 C49 1.494 . S
C160 C23 1.494 . S
C165 C62 1.493 . S
C170 C88 1.492 . S
C175 C101 1.494 . S
C180 C75 1.494 . S
C185 C0 1.600 . S
C190 C52 1.600 . S
C195 C13 1.598 . S
C200 C65 1.598 . S
C205 C78 1.598 . S
C210 C26 1.598 . S
C215 C91 1.601 . S
C220 C39 1.601 . S
C225 C21 0.911 . S
C230 C8 0.911 . S
C235 C34 0.911 . S
C240 C47 0.911 . S
C245 C60 0.911 . S
C250 C73 0.911 . S
C255 C86 0.915 . S
C260 C99 0.915 . S
