# Generated by pormake.
# Topology pcu, (6)-cn, num edge types: 1
# Building blocks:
#     Node 0, Type 0, BuildingBlock: CUWYAW_clean_sbu_0, # of connection points: 6
#     Edge 1, Type (0, 0), BuildingBlock: AJUNOK_clean_linker_0, # of connection points: 2
#     Edge 2, Type (0, 0), BuildingBlock: AJUNOK_clean_linker_0, # of connection points: 2
#     Edge 3, Type (0, 0), BuildingBlock: AJUNOK_clean_linker_0, # of connection points: 2
# Relax obj value: 0.000
# Max RMSD: 0.000
# Mean RMSD: 0.000
data_MOF--net-pcu--node1-CUWYAW_clean_sbu_0--edge1-AJUNOK_clean_linker_0
_symmetry_space_group_name_H-M    P1
_symmetry_Int_Tables_number       1
_symmetry_cell_setting            triclinic
loop_
_symmetry_equiv_pos_as_xyz
'x, y, z'
_cell_length_a     21.348518
_cell_length_b     11.509302
_cell_length_c     10.346193
_cell_angle_alpha  90.604768
_cell_angle_beta   99.490395
_cell_angle_gamma 120.53501
loop_
_atom_site_label
_atom_site_type_symbol
_atom_site_fract_x
_atom_site_fract_y
_atom_site_fract_z
_atom_type_partial_charge
C0 C 0.25631 0.15088 0.99136 0.0
Eu1 Eu 0.12178 0.05581 0.0303 0.0
C2 C 0.31326 0.11195 1.00354 0.0
C3 C 0.37474 0.17309 0.10868 0.0
C4 C 0.43072 0.1423 0.11803 0.0
C5 C 0.4269 0.05082 1.02157 0.0
C6 C 0.36507 -0.01149 0.91714 0.0
C7 C 0.30899 0.01907 0.90785 0.0
C8 C 0.07991 0.01925 0.26757 0.0
C9 C 1.03403 0.72405 1.01458 0.0
C10 C 0.82154 0.80091 0.06183 0.0
Eu11 Eu 0.95503 0.89447 1.01813 0.0
C12 C 0.76661 0.84418 0.05594 0.0
C13 C 0.70337 0.78521 0.95436 0.0
C14 C 0.64999 0.82217 0.94912 0.0
C15 C 0.65843 0.91848 0.04578 0.0
C16 C 0.72134 0.97662 0.14819 0.0
C17 C 0.77494 0.94012 0.15316 0.0
C18 C 0.99601 0.92439 0.78085 0.0
C19 C 0.04241 0.2258 1.02272 0.0
O20 O 0.19686 0.08243 0.89885 0.0
O21 O 0.24151 0.18001 0.10084 0.0
O22 O 0.13628 0.13024 0.24376 0.0
O23 O 0.05111 0.93228 0.16832 0.0
O24 O 0.09215 0.83752 0.99265 0.0
O25 O 0.97611 0.7229 0.0454 0.0
O26 O 0.88154 0.86407 0.15407 0.0
O27 O 0.83503 0.77528 0.94938 0.0
O28 O 0.93891 0.81586 0.80659 0.0
O29 O 1.02542 0.01449 0.87789 0.0
O30 O 0.9846 0.11467 0.04988 0.0
O31 O 0.09958 0.22374 0.99307 0.0
H32 H 0.37988 0.24565 0.18348 0.0
H33 H 0.47695 0.18988 0.20104 0.0
H34 H 0.36075 0.91792 0.84113 0.0
H35 H 0.26278 0.97087 0.82485 0.0
H36 H 0.69498 0.70992 0.87895 0.0
H37 H 0.60215 0.77574 0.86894 0.0
H38 H 0.72854 0.04866 0.22587 0.0
H39 H 0.82246 -0.01371 0.23391 0.0
C40 C 0.09241 0.09767 0.50205 0.0
C41 C 0.05799 -0.00754 0.39766 0.0
C42 C 0.07248 0.07472 0.62611 0.0
C43 C 1.01728 0.94575 0.65015 0.0
H44 H 0.13491 0.19875 0.48781 0.0
H45 H 0.1002 0.15896 0.70338 0.0
S46 S 0.91215 0.63475 0.41128 0.0
N47 N 0.96744 0.75339 0.328 0.0
N48 N 0.92977 0.71069 0.56017 0.0
C49 C 0.98292 0.83944 0.54701 0.0
C50 C 1.0033 0.86268 0.42098 0.0
C51 C 0.46952 0.88459 1.01325 0.0
C52 C 0.48713 0.02011 0.02936 0.0
C53 C 0.52518 0.85286 1.01902 0.0
C54 C 0.60067 0.95538 0.04091 0.0
H55 H 0.41223 0.80221 0.99736 0.0
H56 H 0.50896 0.74698 1.00757 0.0
S57 S 0.6759 0.32666 0.07953 0.0
N58 N 0.58528 0.25792 0.06196 0.0
N59 N 0.68982 0.19829 0.07253 0.0
C60 C 0.61903 0.09141 0.05594 0.0
C61 C 0.56233 0.12373 0.0502 0.0
C62 C 0.98236 0.48186 0.05997 0.0
C63 C 1.03628 0.59732 1.01221 0.0
C64 C 0.98473 0.3624 0.06292 0.0
C65 C 0.04116 0.35349 1.01833 0.0
H66 H 0.93825 0.48379 0.09694 0.0
H67 H 0.94216 0.27681 0.10148 0.0
S68 S 0.19397 0.62531 0.87771 0.0
N69 N 0.14652 0.69348 0.91489 0.0
N70 N 0.15117 0.47001 0.92079 0.0
C71 C 0.095 0.4678 0.96875 0.0
C72 C 0.0925 0.58929 0.96556 0.0
loop_
_geom_bond_atom_site_label_1
_geom_bond_atom_site_label_2
_geom_bond_distance
_geom_bond_site_symmetry_2
_ccdc_geom_bond_type
C0 Eu1 2.835 . S
C0 C2 1.500 . S
C0 O20 1.257 1_554 S
C0 O21 1.260 . S
Eu1 C0 2.835 . S
Eu1 O20 2.473 1_554 S
Eu1 O21 2.480 . S
Eu1 O22 2.430 . S
Eu1 O23 2.670 1_455 S
Eu1 O24 2.394 1_545 S
Eu1 O29 2.355 1_544 S
Eu1 O31 2.374 . S
C2 C0 1.500 . S
C2 C3 1.377 . S
C2 C7 1.377 1_544 S
C3 C2 1.377 . S
C3 C4 1.395 . S
C3 H32 0.931 . S
C4 C3 1.395 . S
C4 C5 1.383 . S
C4 H33 0.931 . S
C5 C4 1.383 . S
C5 C6 1.394 1_544 S
C6 C5 1.394 1_566 S
C6 C7 1.378 . S
C6 H34 0.931 . S
C7 C2 1.377 1_566 S
C7 C6 1.378 . S
C7 H35 0.931 . S
C8 O22 1.259 . S
C8 O23 1.270 1_455 S
C9 O24 1.251 1_655 S
C9 O25 1.251 1_554 S
C10 Eu11 2.835 . S
C10 C12 1.500 . S
C10 O26 1.257 1_556 S
C10 O27 1.260 . S
Eu11 C10 2.835 . S
Eu11 O23 2.355 1_566 S
Eu11 O25 2.374 . S
Eu11 O26 2.473 1_556 S
Eu11 O27 2.480 . S
Eu11 O28 2.430 . S
Eu11 O29 2.670 1_655 S
Eu11 O30 2.394 1_565 S
C12 C10 1.500 . S
C12 C13 1.377 . S
C12 C17 1.377 1_566 S
C13 C12 1.377 . S
C13 C14 1.395 . S
C13 H36 0.931 . S
C14 C13 1.395 . S
C14 C15 1.387 . S
C14 H37 0.931 . S
C15 C14 1.387 . S
C15 C16 1.396 1_566 S
C16 C15 1.396 1_544 S
C16 C17 1.378 . S
C16 H38 0.931 . S
C17 C12 1.377 1_544 S
C17 C16 1.378 . S
C17 H39 0.931 . S
C18 O28 1.259 . S
C18 O29 1.270 1_655 S
C19 O30 1.251 1_455 S
C19 O31 1.251 1_556 S
O20 C0 1.257 1_556 S
O20 Eu1 2.473 1_556 S
O21 C0 1.260 . S
O21 Eu1 2.480 . S
O22 Eu1 2.430 . S
O22 C8 1.259 . S
O23 Eu1 2.670 1_655 S
O23 C8 1.270 1_655 S
O23 Eu11 2.355 1_544 S
O24 Eu1 2.394 1_565 S
O24 C9 1.251 1_455 S
O25 C9 1.251 1_556 S
O25 Eu11 2.374 . S
O26 C10 1.257 1_554 S
O26 Eu11 2.473 1_554 S
O27 C10 1.260 . S
O27 Eu11 2.480 . S
O28 Eu11 2.430 . S
O28 C18 1.259 . S
O29 Eu1 2.355 1_566 S
O29 Eu11 2.670 1_455 S
O29 C18 1.270 1_455 S
O30 Eu11 2.394 1_545 S
O30 C19 1.251 1_655 S
O31 Eu1 2.374 . S
O31 C19 1.251 1_554 S
H32 C3 0.931 . S
H33 C4 0.931 . S
H34 C6 0.931 . S
H35 C7 0.931 . S
H36 C13 0.931 . S
H37 C14 0.931 . S
H38 C16 0.931 . S
H39 C17 0.931 . S
C40 C41 1.371 1_545 S
C40 C42 1.419 . S
C40 H44 0.930 . S
C41 C40 1.371 1_565 S
C41 C50 1.427 . S
C42 C40 1.419 . S
C42 C43 1.363 1_545 S
C42 H45 0.929 . S
C43 C42 1.363 1_565 S
C43 C49 1.427 1_655 S
H44 C40 0.930 . S
H45 C42 0.929 . S
S46 N47 1.613 . S
S46 N48 1.610 . S
N47 S46 1.613 . S
N47 C50 1.350 . S
N48 S46 1.610 . S
N48 C49 1.352 1_655 S
C49 C43 1.427 1_455 S
C49 N48 1.352 1_455 S
C49 C50 1.434 1_455 S
C50 C41 1.427 . S
C50 N47 1.350 . S
C50 C49 1.434 1_655 S
C51 C52 1.369 1_566 S
C51 C53 1.419 . S
C51 H55 0.930 . S
C52 C51 1.369 1_544 S
C52 C61 1.429 . S
C53 C51 1.419 . S
C53 C54 1.363 1_566 S
C53 H56 0.929 . S
C54 C53 1.363 1_544 S
C54 C60 1.429 . S
H55 C51 0.930 . S
H56 C53 0.929 . S
S57 N58 1.613 . S
S57 N59 1.610 . S
N58 S57 1.613 . S
N58 C61 1.350 . S
N59 S57 1.610 . S
N59 C60 1.351 . S
C60 C54 1.429 . S
C60 N59 1.351 . S
C60 C61 1.434 . S
C61 C52 1.429 . S
C61 N58 1.350 . S
C61 C60 1.434 . S
C62 C63 1.367 1_654 S
C62 C64 1.419 . S
C62 H66 0.930 . S
C63 C62 1.367 1_456 S
C63 C72 1.436 . S
C64 C62 1.419 . S
C64 C65 1.352 1_654 S
C64 H67 0.929 . S
C65 C64 1.352 1_456 S
C65 C71 1.436 . S
H66 C62 0.930 . S
H67 C64 0.929 . S
S68 N69 1.613 . S
S68 N70 1.610 . S
N69 S68 1.613 . S
N69 C72 1.350 . S
N70 S68 1.610 . S
N70 C71 1.351 . S
C71 C65 1.436 . S
C71 N70 1.351 . S
C71 C72 1.434 . S
C72 C63 1.436 . S
C72 N69 1.350 . S
C72 C71 1.434 . S
C41 C8 1.454 1_665 S
C43 C18 1.451 . S
C52 C5 1.499 . S
C54 C15 1.494 1_544 S
C63 C9 1.486 1_456 S
C65 C19 1.492 . S
