# Generated by pormake.
# Topology unh, (4)-cn, num edge types: 1
# Building blocks:
#     Node 0, Type 0, BuildingBlock: CEKHIL_clean_sbu_0, # of connection points: 4
#     Node 1, Type 0, BuildingBlock: CEKHIL_clean_sbu_0, # of connection points: 4
#     Node 2, Type 0, BuildingBlock: CEKHIL_clean_sbu_0, # of connection points: 4
#     Node 3, Type 0, BuildingBlock: CEKHIL_clean_sbu_0, # of connection points: 4
#     Node 4, Type 0, BuildingBlock: CEKHIL_clean_sbu_0, # of connection points: 4
#     Node 5, Type 0, BuildingBlock: CEKHIL_clean_sbu_0, # of connection points: 4
#     Edge 6, Type (0, 0), BuildingBlock: OJICUG_clean_linker_0, # of connection points: 2
#     Edge 7, Type (0, 0), BuildingBlock: OJICUG_clean_linker_0, # of connection points: 2
#     Edge 8, Type (0, 0), BuildingBlock: OJICUG_clean_linker_0, # of connection points: 2
#     Edge 9, Type (0, 0), BuildingBlock: OJICUG_clean_linker_0, # of connection points: 2
#     Edge 10, Type (0, 0), BuildingBlock: OJICUG_clean_linker_0, # of connection points: 2
#     Edge 11, Type (0, 0), BuildingBlock: OJICUG_clean_linker_0, # of connection points: 2
#     Edge 12, Type (0, 0), BuildingBlock: OJICUG_clean_linker_0, # of connection points: 2
#     Edge 13, Type (0, 0), BuildingBlock: OJICUG_clean_linker_0, # of connection points: 2
#     Edge 14, Type (0, 0), BuildingBlock: OJICUG_clean_linker_0, # of connection points: 2
#     Edge 15, Type (0, 0), BuildingBlock: OJICUG_clean_linker_0, # of connection points: 2
#     Edge 16, Type (0, 0), BuildingBlock: OJICUG_clean_linker_0, # of connection points: 2
#     Edge 17, Type (0, 0), BuildingBlock: OJICUG_clean_linker_0, # of connection points: 2
# Relax obj value: 0.073
# Max RMSD: 0.185
# Mean RMSD: 0.185
data_MOF--net-unh--node1-CEKHIL_clean_sbu_0--edge1-OJICUG_clean_linker_0
_symmetry_space_group_name_H-M    P1
_symmetry_Int_Tables_number       1
_symmetry_cell_setting            triclinic
loop_
_symmetry_equiv_pos_as_xyz
'x, y, z'
_cell_length_a     30.534998
_cell_length_b     30.530916
_cell_length_c     15.977837
_cell_angle_alpha  89.837916
_cell_angle_beta   90.136004
_cell_angle_gamma 119.84248
loop_
_atom_site_label
_atom_site_type_symbol
_atom_site_fract_x
_atom_site_fract_y
_atom_site_fract_z
_atom_type_partial_charge
Co0 Co 0.12708 0.55387 0.12988 0.0
O1 O 0.08264 0.51182 0.21652 0.0
O2 O 0.08388 0.58015 0.16678 0.0
C3 C 0.19781 0.5601 0.18447 0.0
O4 O 0.17014 0.60776 0.04378 0.0
Co5 Co 0.17907 0.51113 0.01783 0.0
O6 O 0.21477 0.58028 0.97064 0.0
C7 C 0.07545 0.4857 0.9776 0.0
C8 C 0.06571 0.54314 0.2206 0.0
C9 C 0.20307 0.61389 0.98779 0.0
O10 O 0.07683 0.51287 0.04011 0.0
O11 O 0.11149 0.47724 0.96055 0.0
O12 O 0.18036 0.58856 0.21071 0.0
O13 O 0.169 0.52437 0.13311 0.0
Co14 Co 0.57697 0.12769 0.2835 0.0
O15 O 0.57 0.07822 0.3643 0.0
O16 O 0.5077 0.09075 0.32371 0.0
C17 C 0.64774 0.1913 0.33915 0.0
O18 O 0.57176 0.17735 0.2036 0.0
Co19 Co 0.67043 0.17261 0.16669 0.0
O20 O 0.64547 0.2189 0.13401 0.0
C21 C 0.58334 0.07393 0.12562 0.0
C22 C 0.52336 0.06701 0.37234 0.0
C23 C 0.60175 0.21181 0.15207 0.0
O24 O 0.55984 0.07823 0.18901 0.0
O25 O 0.62945 0.10585 0.10888 0.0
O26 O 0.60387 0.17932 0.36955 0.0
O27 O 0.64819 0.16146 0.28218 0.0
Co28 Co 0.44824 0.57906 0.4531 0.0
O29 O 0.48961 0.57136 0.53544 0.0
O30 O 0.41675 0.50893 0.48978 0.0
C31 C 0.45156 0.64766 0.51118 0.0
O32 O 0.39457 0.57466 0.3713 0.0
Co33 Co 0.49778 0.6752 0.34158 0.0
O34 O 0.42702 0.65029 0.30699 0.0
C35 C 0.51259 0.5904 0.29745 0.0
C36 C 0.45489 0.52434 0.5409 0.0
C37 C 0.39049 0.6061 0.3223 0.0
O38 O 0.48381 0.56533 0.35915 0.0
O39 O 0.52592 0.63658 0.28258 0.0
O40 O 0.42035 0.60288 0.53909 0.0
O41 O 0.48369 0.65027 0.45577 0.0
Co42 Co 0.8662 0.43795 0.62987 0.0
O43 O 0.91125 0.48034 0.71552 0.0
O44 O 0.90922 0.41147 0.66733 0.0
C45 C 0.796 0.43254 0.68502 0.0
O46 O 0.82244 0.38355 0.5452 0.0
Co47 Co 0.81405 0.48026 0.51683 0.0
O48 O 0.77813 0.41103 0.47046 0.0
C49 C 0.91742 0.50537 0.47633 0.0
C50 C 0.9278 0.44873 0.72042 0.0
C51 C 0.78955 0.37731 0.48889 0.0
O52 O 0.91609 0.47826 0.53918 0.0
O53 O 0.88144 0.51396 0.45914 0.0
O54 O 0.81346 0.40405 0.71155 0.0
O55 O 0.82454 0.46785 0.63266 0.0
Co56 Co 0.41272 0.86611 0.78355 0.0
O57 O 0.41742 0.91521 0.86318 0.0
O58 O 0.48126 0.90463 0.82512 0.0
C59 C 0.34255 0.80095 0.83705 0.0
O60 O 0.42168 0.81786 0.70703 0.0
Co61 Co 0.32219 0.8171 0.66135 0.0
O62 O 0.35385 0.77766 0.62288 0.0
C63 C 0.40552 0.91859 0.62384 0.0
C64 C 0.46445 0.92768 0.87235 0.0
C65 C 0.39677 0.78591 0.64888 0.0
O66 O 0.42919 0.91521 0.68811 0.0
O67 O 0.36026 0.88499 0.60548 0.0
O68 O 0.38635 0.81465 0.86986 0.0
O69 O 0.34142 0.82987 0.77861 0.0
Co70 Co 0.54832 0.41994 0.95322 0.0
O71 O 0.50759 0.42665 0.03714 0.0
O72 O 0.57839 0.49032 0.98759 0.0
C73 C 0.54997 0.35401 0.0123 0.0
O74 O 0.60092 0.42472 0.86888 0.0
Co75 Co 0.49862 0.32318 0.84623 0.0
O76 O 0.5699 0.34593 0.81849 0.0
C77 C 0.48221 0.40647 0.79835 0.0
C78 C 0.54115 0.47409 0.04067 0.0
C79 C 0.60576 0.39126 0.82712 0.0
O80 O 0.50991 0.43136 0.86101 0.0
O81 O 0.47041 0.36077 0.78302 0.0
O82 O 0.58025 0.39973 0.03706 0.0
O83 O 0.51488 0.34854 0.96019 0.0
C84 C 0.02884 0.43968 0.84656 0.0
C85 C 0.03339 0.46967 0.91663 0.0
H86 H 0.99147 0.40905 0.72912 0.0
C87 C 0.00082 0.48965 0.92292 0.0
H88 H 0.05334 0.42373 0.8396 0.0
C89 C 0.96661 0.48222 0.85922 0.0
C90 C 0.96322 0.45386 0.78798 0.0
H91 H 0.00303 0.51294 0.97558 0.0
H92 H 0.94301 0.49926 0.86562 0.0
C93 C 0.99366 0.43145 0.78308 0.0
C94 C 0.54866 0.98682 0.93735 0.0
C95 C 0.49577 0.96394 0.93778 0.0
H96 H 0.61824 0.0398 0.99664 0.0
C97 C 0.47218 0.97512 1.00296 0.0
H98 H 0.56778 0.9786 0.88805 0.0
C99 C 0.50072 0.00902 0.06576 0.0
C100 C 0.55374 0.03334 0.06434 0.0
H101 H 0.43144 0.95762 0.00564 0.0
H102 H 0.48105 0.01727 0.11406 0.0
C103 C 0.57746 0.02163 0.99969 0.0
C104 C 0.55666 0.58683 0.16586 0.0
C105 C 0.52572 0.56248 0.2357 0.0
H106 H 0.5863 0.57805 0.04881 0.0
C107 C 0.50282 0.50972 0.2419 0.0
H108 H 0.57489 0.62746 0.15904 0.0
C109 C 0.50856 0.48181 0.17853 0.0
C110 C 0.53797 0.50575 0.10756 0.0
H111 H 0.47881 0.48945 0.29444 0.0
H112 H 0.48941 0.4411 0.18511 0.0
C113 C 0.56308 0.55866 0.10256 0.0
C114 C 0.96398 0.55137 0.34511 0.0
C115 C 0.95947 0.52142 0.4155 0.0
H116 H 0.0015 0.58222 0.22786 0.0
C117 C 0.99227 0.50172 0.42252 0.0
H118 H 0.9393 0.56711 0.33758 0.0
C119 C 0.02672 0.50944 0.35929 0.0
C120 C 0.03011 0.53779 0.28776 0.0
H121 H 0.99012 0.47848 0.47545 0.0
H122 H 0.0505 0.49261 0.36628 0.0
C123 C -0.00063 0.55987 0.28208 0.0
C124 C 0.43873 0.00544 0.43437 0.0
C125 C 0.49169 0.03133 0.4383 0.0
H126 H 0.36944 0.94899 0.49017 0.0
C127 C 0.51542 0.02277 0.50673 0.0
H128 H 0.41953 0.01159 0.38246 0.0
C129 C 0.48712 0.98813 0.56882 0.0
C130 C 0.4342 0.96031 0.56356 0.0
H131 H 0.5562 0.04271 0.51221 0.0
H132 H 0.50709 0.98193 0.61944 0.0
C133 C 0.41018 0.96978 0.49612 0.0
C134 C 0.43872 0.4107 0.6657 0.0
C135 C 0.46915 0.43458 0.73623 0.0
H136 H 0.40972 0.42028 0.54813 0.0
C137 C 0.49197 0.48736 0.74284 0.0
H138 H 0.42062 0.37012 0.65846 0.0
C139 C 0.48669 0.51571 0.67935 0.0
C140 C 0.4577 0.49225 0.60786 0.0
H141 H 0.51567 0.50734 0.79584 0.0
H142 H 0.5058 0.55638 0.68624 0.0
C143 C 0.43261 0.43932 0.60237 0.0
C144 C 0.25832 0.53105 0.22961 0.0
C145 C 0.24796 0.57011 0.21205 0.0
H146 H 0.31173 0.51158 0.28091 0.0
C147 C 0.2848 0.62016 0.22884 0.0
H148 H 0.23011 0.49208 0.21787 0.0
C149 C 0.33094 0.63126 0.26357 0.0
C150 C 0.34123 0.59248 0.28387 0.0
H151 H 0.2777 0.65095 0.21589 0.0
H152 H 0.35819 0.67042 0.27639 0.0
C153 C 0.30459 0.54214 0.26638 0.0
C154 C 0.70966 0.23718 0.45177 0.0
C155 C 0.69306 0.23631 0.36947 0.0
H156 H 0.75486 0.28302 0.55395 0.0
C157 C 0.71304 0.2813 0.32358 0.0
H158 H 0.69374 0.2028 0.48861 0.0
C159 C 0.74686 0.32712 0.36136 0.0
C160 C 0.76165 0.32846 0.4452 0.0
H161 H 0.6999 0.28154 0.26068 0.0
H162 H 0.75977 0.36179 0.32617 0.0
C163 C 0.74441 0.28292 0.48908 0.0
C164 C 0.4084 0.74275 0.5257 0.0
C165 C 0.41812 0.75679 0.61036 0.0
H166 H 0.41325 0.69825 0.42685 0.0
C167 C 0.44529 0.73986 0.6586 0.0
H168 H 0.38776 0.75556 0.48701 0.0
C169 C 0.45936 0.70659 0.62414 0.0
C170 C 0.44795 0.69122 0.5404 0.0
H171 H 0.45301 0.74993 0.7241 0.0
H172 H 0.47721 0.69113 0.66383 0.0
C173 C 0.42353 0.71049 0.49086 0.0
C174 C 0.66575 0.36485 0.77651 0.0
C175 C 0.65475 0.40389 0.78893 0.0
H176 H 0.71852 0.34365 0.73336 0.0
C177 C 0.69009 0.45315 0.76299 0.0
H178 H 0.63957 0.32652 0.79603 0.0
C179 C 0.73566 0.46288 0.72523 0.0
C180 C 0.74661 0.42362 0.71491 0.0
H181 H 0.68238 0.48386 0.77134 0.0
H182 H 0.76281 0.50109 0.70661 0.0
C183 C 0.7111 0.37465 0.74053 0.0
C184 C 0.28112 0.70983 0.82277 0.0
C185 C 0.29787 0.75506 0.86649 0.0
H186 H 0.23743 0.62914 0.82752 0.0
C187 C 0.27876 0.75415 0.94668 0.0
H188 H 0.29628 0.70981 0.76154 0.0
C189 C 0.24471 0.70817 0.98429 0.0
C190 C 0.23062 0.66253 0.94295 0.0
H191 H 0.29221 0.7888 0.98189 0.0
H192 H 0.23226 0.7082 0.04772 0.0
C193 C 0.24792 0.66383 0.8609 0.0
C194 C 0.61069 0.32522 0.04128 0.0
C195 C 0.56019 0.3136 0.03737 0.0
H196 H 0.66314 0.30262 0.08037 0.0
C197 C 0.52225 0.26696 0.06828 0.0
H198 H 0.64062 0.36108 0.018 0.0
C199 C 0.53526 0.23331 0.10601 0.0
C200 C 0.58623 0.24574 0.11172 0.0
H201 H 0.48308 0.25765 0.0668 0.0
H202 H 0.50564 0.19795 0.1312 0.0
C203 C 0.62354 0.29169 0.07736 0.0
loop_
_geom_bond_atom_site_label_1
_geom_bond_atom_site_label_2
_geom_bond_distance
_geom_bond_site_symmetry_2
_ccdc_geom_bond_type
Co0 O1 2.216 . S
Co0 O2 2.091 . S
Co0 O4 2.004 . S
Co0 O10 2.021 . S
Co0 O12 2.137 . S
Co0 O13 2.244 . S
O1 Co0 2.216 . S
O1 C8 1.247 . S
O2 Co0 2.091 . S
O2 C8 1.261 . S
C3 O12 1.247 . S
C3 O13 1.272 . S
O4 Co0 2.004 . S
O4 C9 1.259 1_554 S
Co5 O6 2.061 . S
Co5 O11 2.052 . S
Co5 O13 2.135 1_556 S
O6 Co5 2.061 . S
O6 C9 1.235 . S
C7 O10 1.238 1_556 S
C7 O11 1.241 . S
C8 O1 1.247 . S
C8 O2 1.261 . S
C9 O4 1.259 1_556 S
C9 O6 1.235 . S
O10 Co0 2.021 . S
O10 C7 1.238 1_554 S
O11 Co5 2.052 . S
O11 C7 1.241 . S
O12 Co0 2.137 . S
O12 C3 1.247 . S
O13 Co0 2.244 . S
O13 C3 1.272 . S
O13 Co5 2.135 1_554 S
Co14 O15 2.216 . S
Co14 O16 2.091 . S
Co14 O18 2.004 . S
Co14 O24 2.021 . S
Co14 O26 2.137 . S
Co14 O27 2.244 . S
O15 Co14 2.216 . S
O15 C22 1.247 . S
O16 Co14 2.091 . S
O16 C22 1.261 . S
C17 O26 1.247 . S
C17 O27 1.272 . S
O18 Co14 2.004 . S
O18 C23 1.259 . S
Co19 O20 2.061 . S
Co19 O25 2.052 . S
Co19 O27 2.135 . S
O20 Co19 2.061 . S
O20 C23 1.235 . S
C21 O24 1.238 . S
C21 O25 1.241 . S
C22 O15 1.247 . S
C22 O16 1.261 . S
C23 O18 1.259 . S
C23 O20 1.235 . S
O24 Co14 2.021 . S
O24 C21 1.238 . S
O25 Co19 2.052 . S
O25 C21 1.241 . S
O26 Co14 2.137 . S
O26 C17 1.247 . S
O27 Co14 2.244 . S
O27 C17 1.272 . S
O27 Co19 2.135 . S
Co28 O29 2.216 . S
Co28 O30 2.091 . S
Co28 O32 2.004 . S
Co28 O38 2.021 . S
Co28 O40 2.137 . S
Co28 O41 2.244 . S
O29 Co28 2.216 . S
O29 C36 1.247 . S
O30 Co28 2.091 . S
O30 C36 1.261 . S
C31 O40 1.247 . S
C31 O41 1.272 . S
O32 Co28 2.004 . S
O32 C37 1.259 . S
Co33 O34 2.061 . S
Co33 O39 2.052 . S
Co33 O41 2.135 . S
O34 Co33 2.061 . S
O34 C37 1.235 . S
C35 O38 1.238 . S
C35 O39 1.241 . S
C36 O29 1.247 . S
C36 O30 1.261 . S
C37 O32 1.259 . S
C37 O34 1.235 . S
O38 Co28 2.021 . S
O38 C35 1.238 . S
O39 Co33 2.052 . S
O39 C35 1.241 . S
O40 Co28 2.137 . S
O40 C31 1.247 . S
O41 Co28 2.244 . S
O41 C31 1.272 . S
O41 Co33 2.135 . S
Co42 O43 2.216 . S
Co42 O44 2.091 . S
Co42 O46 2.004 . S
Co42 O52 2.021 . S
Co42 O54 2.137 . S
Co42 O55 2.244 . S
O43 Co42 2.216 . S
O43 C50 1.247 . S
O44 Co42 2.091 . S
O44 C50 1.261 . S
C45 O54 1.247 . S
C45 O55 1.272 . S
O46 Co42 2.004 . S
O46 C51 1.259 . S
Co47 O48 2.061 . S
Co47 O53 2.052 . S
Co47 O55 2.135 . S
O48 Co47 2.061 . S
O48 C51 1.235 . S
C49 O52 1.238 . S
C49 O53 1.241 . S
C50 O43 1.247 . S
C50 O44 1.261 . S
C51 O46 1.259 . S
C51 O48 1.235 . S
O52 Co42 2.021 . S
O52 C49 1.238 . S
O53 Co47 2.052 . S
O53 C49 1.241 . S
O54 Co42 2.137 . S
O54 C45 1.247 . S
O55 Co42 2.244 . S
O55 C45 1.272 . S
O55 Co47 2.135 . S
Co56 O57 2.216 . S
Co56 O58 2.091 . S
Co56 O60 2.004 . S
Co56 O66 2.021 . S
Co56 O68 2.137 . S
Co56 O69 2.244 . S
O57 Co56 2.216 . S
O57 C64 1.247 . S
O58 Co56 2.091 . S
O58 C64 1.261 . S
C59 O68 1.247 . S
C59 O69 1.272 . S
O60 Co56 2.004 . S
O60 C65 1.259 . S
Co61 O62 2.061 . S
Co61 O67 2.052 . S
Co61 O69 2.135 . S
O62 Co61 2.061 . S
O62 C65 1.235 . S
C63 O66 1.238 . S
C63 O67 1.241 . S
C64 O57 1.247 . S
C64 O58 1.261 . S
C65 O60 1.259 . S
C65 O62 1.235 . S
O66 Co56 2.021 . S
O66 C63 1.238 . S
O67 Co61 2.052 . S
O67 C63 1.241 . S
O68 Co56 2.137 . S
O68 C59 1.247 . S
O69 Co56 2.244 . S
O69 C59 1.272 . S
O69 Co61 2.135 . S
Co70 O71 2.216 1_556 S
Co70 O72 2.091 1_556 S
Co70 O74 2.004 . S
Co70 O80 2.021 . S
Co70 O82 2.137 1_556 S
Co70 O83 2.244 . S
O71 Co70 2.216 1_554 S
O71 C78 1.247 . S
O72 Co70 2.091 1_554 S
O72 C78 1.261 . S
C73 O82 1.247 1_556 S
C73 O83 1.272 . S
O74 Co70 2.004 . S
O74 C79 1.259 . S
Co75 O76 2.061 . S
Co75 O81 2.052 . S
Co75 O83 2.135 . S
O76 Co75 2.061 . S
O76 C79 1.235 . S
C77 O80 1.238 . S
C77 O81 1.241 . S
C78 O71 1.247 . S
C78 O72 1.261 . S
C79 O74 1.259 . S
C79 O76 1.235 . S
O80 Co70 2.021 . S
O80 C77 1.238 . S
O81 Co75 2.052 . S
O81 C77 1.241 . S
O82 Co70 2.137 1_554 S
O82 C73 1.247 1_554 S
O83 Co70 2.244 . S
O83 C73 1.272 . S
O83 Co75 2.135 . S
C84 C85 1.387 . S
C84 H88 0.950 . S
C84 C93 1.390 . S
C85 C84 1.387 . S
C85 C87 1.387 . S
H86 C93 0.950 . S
C87 C85 1.387 . S
C87 C89 1.390 1_455 S
C87 H91 0.950 . S
H88 C84 0.950 . S
C89 C87 1.390 1_655 S
C89 C90 1.387 . S
C89 H92 0.950 . S
C90 C89 1.387 . S
C90 C93 1.387 1_655 S
H91 C87 0.950 . S
H92 C89 0.950 . S
C93 C84 1.390 . S
C93 H86 0.950 . S
C93 C90 1.387 1_455 S
C94 C95 1.387 . S
C94 H98 0.950 . S
C94 C103 1.390 1_566 S
C95 C94 1.387 . S
C95 C97 1.387 . S
H96 C103 0.950 . S
C97 C95 1.387 . S
C97 C99 1.390 1_566 S
C97 H101 0.950 . S
H98 C94 0.950 . S
C99 C97 1.390 1_544 S
C99 C100 1.387 . S
C99 H102 0.950 . S
C100 C99 1.387 . S
C100 C103 1.387 . S
H101 C97 0.950 . S
H102 C99 0.950 . S
C103 C94 1.390 1_544 S
C103 H96 0.950 . S
C103 C100 1.387 . S
C104 C105 1.387 . S
C104 H108 0.950 . S
C104 C113 1.390 . S
C105 C104 1.387 . S
C105 C107 1.387 . S
H106 C113 0.950 . S
C107 C105 1.387 . S
C107 C109 1.390 . S
C107 H111 0.950 . S
H108 C104 0.950 . S
C109 C107 1.390 . S
C109 C110 1.387 . S
C109 H112 0.950 . S
C110 C109 1.387 . S
C110 C113 1.387 . S
H111 C107 0.950 . S
H112 C109 0.950 . S
C113 C104 1.390 . S
C113 H106 0.950 . S
C113 C110 1.387 . S
C114 C115 1.387 . S
C114 H118 0.950 . S
C114 C123 1.390 1_655 S
C115 C114 1.387 . S
C115 C117 1.387 . S
H116 C123 0.950 . S
C117 C115 1.387 . S
C117 C119 1.390 1_655 S
C117 H121 0.950 . S
H118 C114 0.950 . S
C119 C117 1.390 1_455 S
C119 C120 1.387 . S
C119 H122 0.950 . S
C120 C119 1.387 . S
C120 C123 1.387 . S
H121 C117 0.950 . S
H122 C119 0.950 . S
C123 C114 1.390 1_455 S
C123 H116 0.950 . S
C123 C120 1.387 . S
C124 C125 1.387 . S
C124 H128 0.950 . S
C124 C133 1.390 1_545 S
C125 C124 1.387 . S
C125 C127 1.387 . S
H126 C133 0.950 . S
C127 C125 1.387 . S
C127 C129 1.390 1_545 S
C127 H131 0.950 . S
H128 C124 0.950 . S
C129 C127 1.390 1_565 S
C129 C130 1.387 . S
C129 H132 0.950 . S
C130 C129 1.387 . S
C130 C133 1.387 . S
H131 C127 0.950 . S
H132 C129 0.950 . S
C133 C124 1.390 1_565 S
C133 H126 0.950 . S
C133 C130 1.387 . S
C134 C135 1.387 . S
C134 H138 0.950 . S
C134 C143 1.390 . S
C135 C134 1.387 . S
C135 C137 1.387 . S
H136 C143 0.950 . S
C137 C135 1.387 . S
C137 C139 1.390 . S
C137 H141 0.950 . S
H138 C134 0.950 . S
C139 C137 1.390 . S
C139 C140 1.387 . S
C139 H142 0.950 . S
C140 C139 1.387 . S
C140 C143 1.387 . S
H141 C137 0.950 . S
H142 C139 0.950 . S
C143 C134 1.390 . S
C143 H136 0.950 . S
C143 C140 1.387 . S
C144 C145 1.387 . S
C144 H148 0.950 . S
C144 C153 1.390 . S
C145 C144 1.387 . S
C145 C147 1.387 . S
H146 C153 0.950 . S
C147 C145 1.387 . S
C147 C149 1.390 . S
C147 H151 0.950 . S
H148 C144 0.950 . S
C149 C147 1.390 . S
C149 C150 1.387 . S
C149 H152 0.950 . S
C150 C149 1.387 . S
C150 C153 1.387 . S
H151 C147 0.950 . S
H152 C149 0.950 . S
C153 C144 1.390 . S
C153 H146 0.950 . S
C153 C150 1.387 . S
C154 C155 1.387 . S
C154 H158 0.950 . S
C154 C163 1.390 . S
C155 C154 1.387 . S
C155 C157 1.387 . S
H156 C163 0.950 . S
C157 C155 1.387 . S
C157 C159 1.390 . S
C157 H161 0.950 . S
H158 C154 0.950 . S
C159 C157 1.390 . S
C159 C160 1.387 . S
C159 H162 0.950 . S
C160 C159 1.387 . S
C160 C163 1.387 . S
H161 C157 0.950 . S
H162 C159 0.950 . S
C163 C154 1.390 . S
C163 H156 0.950 . S
C163 C160 1.387 . S
C164 C165 1.387 . S
C164 H168 0.950 . S
C164 C173 1.390 . S
C165 C164 1.387 . S
C165 C167 1.387 . S
H166 C173 0.950 . S
C167 C165 1.387 . S
C167 C169 1.390 . S
C167 H171 0.950 . S
H168 C164 0.950 . S
C169 C167 1.390 . S
C169 C170 1.387 . S
C169 H172 0.950 . S
C170 C169 1.387 . S
C170 C173 1.387 . S
H171 C167 0.950 . S
H172 C169 0.950 . S
C173 C164 1.390 . S
C173 H166 0.950 . S
C173 C170 1.387 . S
C174 C175 1.387 . S
C174 H178 0.950 . S
C174 C183 1.390 . S
C175 C174 1.387 . S
C175 C177 1.387 . S
H176 C183 0.950 . S
C177 C175 1.387 . S
C177 C179 1.390 . S
C177 H181 0.950 . S
H178 C174 0.950 . S
C179 C177 1.390 . S
C179 C180 1.387 . S
C179 H182 0.950 . S
C180 C179 1.387 . S
C180 C183 1.387 . S
H181 C177 0.950 . S
H182 C179 0.950 . S
C183 C174 1.390 . S
C183 H176 0.950 . S
C183 C180 1.387 . S
C184 C185 1.387 . S
C184 H188 0.950 . S
C184 C193 1.390 . S
C185 C184 1.387 . S
C185 C187 1.387 . S
H186 C193 0.950 . S
C187 C185 1.387 . S
C187 C189 1.390 . S
C187 H191 0.950 . S
H188 C184 0.950 . S
C189 C187 1.390 . S
C189 C190 1.387 . S
C189 H192 0.950 1_556 S
C190 C189 1.387 . S
C190 C193 1.387 . S
H191 C187 0.950 . S
H192 C189 0.950 1_554 S
C193 C184 1.390 . S
C193 H186 0.950 . S
C193 C190 1.387 . S
C194 C195 1.387 . S
C194 H198 0.950 . S
C194 C203 1.390 . S
C195 C194 1.387 . S
C195 C197 1.387 . S
H196 C203 0.950 . S
C197 C195 1.387 . S
C197 C199 1.390 . S
C197 H201 0.950 1_554 S
H198 C194 0.950 . S
C199 C197 1.390 . S
C199 C200 1.387 . S
C199 H202 0.950 . S
C200 C199 1.387 . S
C200 C203 1.387 . S
H201 C197 0.950 1_556 S
H202 C199 0.950 . S
C203 C194 1.390 . S
C203 H196 0.950 . S
C203 C200 1.387 . S
C85 C7 1.368 . S
C90 C50 1.382 . S
C95 C64 1.382 . S
C100 C21 1.368 . S
C105 C35 1.368 . S
C110 C78 1.382 . S
C115 C49 1.368 . S
C120 C8 1.382 . S
C125 C22 1.382 . S
C130 C63 1.368 . S
C135 C77 1.369 . S
C140 C36 1.383 . S
C145 C3 1.330 . S
C150 C37 1.307 . S
C155 C17 1.330 . S
C160 C51 1.309 . S
C165 C65 1.307 . S
C170 C31 1.332 . S
C175 C79 1.308 . S
C180 C45 1.332 . S
C185 C59 1.332 . S
C190 C9 1.306 . S
C195 C73 1.331 1_554 S
C200 C23 1.309 . S
