# Generated by pormake.
# Topology rob, (6)-cn, num edge types: 1
# Building blocks:
#     Node 0, Type 0, BuildingBlock: JUFBIX_clean_sbu_0, # of connection points: 6
#     Node 1, Type 0, BuildingBlock: JUFBIX_clean_sbu_0, # of connection points: 6
#     Node 2, Type 0, BuildingBlock: JUFBIX_clean_sbu_0, # of connection points: 6
#     Node 3, Type 0, BuildingBlock: JUFBIX_clean_sbu_0, # of connection points: 6
#     Edge 4, Type (0, 0), BuildingBlock: OJICUG_clean_linker_0, # of connection points: 2
#     Edge 5, Type (0, 0), BuildingBlock: OJICUG_clean_linker_0, # of connection points: 2
#     Edge 6, Type (0, 0), BuildingBlock: OJICUG_clean_linker_0, # of connection points: 2
#     Edge 7, Type (0, 0), BuildingBlock: OJICUG_clean_linker_0, # of connection points: 2
#     Edge 8, Type (0, 0), BuildingBlock: OJICUG_clean_linker_0, # of connection points: 2
#     Edge 9, Type (0, 0), BuildingBlock: OJICUG_clean_linker_0, # of connection points: 2
#     Edge 10, Type (0, 0), BuildingBlock: OJICUG_clean_linker_0, # of connection points: 2
#     Edge 11, Type (0, 0), BuildingBlock: OJICUG_clean_linker_0, # of connection points: 2
#     Edge 12, Type (0, 0), BuildingBlock: OJICUG_clean_linker_0, # of connection points: 2
#     Edge 13, Type (0, 0), BuildingBlock: OJICUG_clean_linker_0, # of connection points: 2
#     Edge 14, Type (0, 0), BuildingBlock: OJICUG_clean_linker_0, # of connection points: 2
#     Edge 15, Type (0, 0), BuildingBlock: OJICUG_clean_linker_0, # of connection points: 2
# Relax obj value: 0.370
# Max RMSD: 0.272
# Mean RMSD: 0.272
data_MOF--net-rob--node1-JUFBIX_clean_sbu_0--edge1-OJICUG_clean_linker_0
_symmetry_space_group_name_H-M    P1
_symmetry_Int_Tables_number       1
_symmetry_cell_setting            triclinic
loop_
_symmetry_equiv_pos_as_xyz
'x, y, z'
_cell_length_a     13.416619
_cell_length_b     17.060029
_cell_length_c     21.19486
_cell_angle_alpha  93.210386
_cell_angle_beta   89.998331
_cell_angle_gamma 90.000436
loop_
_atom_site_label
_atom_site_type_symbol
_atom_site_fract_x
_atom_site_fract_y
_atom_site_fract_z
_atom_type_partial_charge
Co0 Co 0.18994 0.30012 0.98872 0.0
C1 C 0.12984 0.149 1.01158 0.0
Co2 Co 0.30346 0.23224 0.03861 0.0
C3 C 0.05077 0.3241 0.88991 0.0
C4 C 0.08373 0.43286 0.94074 0.0
N5 N 0.10052 0.35478 0.94078 0.0
N6 N 0.00519 0.37959 0.85753 0.0
C7 C 0.02564 0.44836 0.88908 0.0
H8 H 0.05332 0.26255 0.87443 0.0
H9 H 0.11568 0.47605 0.97418 0.0
C10 C 0.36454 0.38262 0.01614 0.0
N11 N 0.39472 0.17712 0.08578 0.0
C12 C 0.4215 0.1946 0.14638 0.0
C13 C 0.44839 0.11238 0.06837 0.0
N14 N 0.48899 0.14381 0.16731 0.0
C15 C 0.50736 0.09223 0.11839 0.0
C16 C 0.32519 0.21494 0.90998 0.0
O17 O 0.2783 0.38714 0.99175 0.0
O18 O 0.39132 0.3191 0.03976 0.0
O19 O 0.36231 0.19193 0.96098 0.0
O20 O 0.25135 0.26145 0.91291 0.0
O21 O 0.21525 0.14564 0.03726 0.0
H22 H 0.44517 0.08171 0.02235 0.0
H23 H 0.39405 0.2448 0.17465 0.0
O24 O 0.10328 0.21178 0.98659 0.0
O25 O 0.12843 0.33894 0.06475 0.0
O26 O 0.2424 0.27414 0.11481 0.0
C27 C 0.16693 0.31927 0.11631 0.0
H28 H 0.00221 0.50548 0.87499 0.0
H29 H 0.55889 0.04341 0.11902 0.0
Co30 Co 0.69244 0.79635 0.98721 0.0
C31 C 0.63472 0.646 1.01274 0.0
Co32 Co 0.80728 0.73132 0.03901 0.0
C33 C 0.5788 0.83606 0.87755 0.0
C34 C 0.53082 0.904 0.9597 0.0
N35 N 0.59838 0.84918 0.93982 0.0
N36 N 0.50239 0.87973 0.85808 0.0
C37 C 0.47083 0.92203 0.90967 0.0
H38 H 0.61616 0.79244 0.84708 0.0
H39 H 0.52333 0.92809 1.00774 0.0
C40 C 0.86455 0.8821 0.01348 0.0
N41 N 0.90014 0.67786 0.08618 0.0
C42 C 0.92663 0.69543 0.1468 0.0
C43 C 0.95433 0.61335 0.06883 0.0
N44 N 0.99432 0.64486 0.16778 0.0
C45 C 0.01325 0.59341 0.11888 0.0
C46 C 0.82877 0.70986 0.91052 0.0
O47 O 0.77884 0.8845 0.98785 0.0
O48 O 0.89214 0.81998 0.03915 0.0
O49 O 0.86729 0.69145 0.96234 0.0
O50 O 0.75345 0.75483 0.91152 0.0
O51 O 0.72047 0.64316 0.03823 0.0
H52 H 0.95122 0.58245 0.0229 0.0
H53 H 0.89851 0.74535 0.17513 0.0
O54 O 0.60768 0.70818 0.98713 0.0
O55 O 0.63287 0.83605 0.06407 0.0
O56 O 0.74655 0.77245 0.11492 0.0
C57 C 0.67119 0.81739 0.11589 0.0
H58 H 0.40789 0.96178 0.91131 0.0
H59 H 0.06494 0.5447 0.11961 0.0
Co60 Co 0.19241 0.72489 0.53882 0.0
C61 C 0.13471 0.87524 0.51329 0.0
Co62 Co 0.30726 0.78991 0.48702 0.0
C63 C 0.07882 0.68509 0.64849 0.0
C64 C 0.03066 0.61733 0.56629 0.0
N65 N 0.09834 0.67206 0.5862 0.0
N66 N 0.00236 0.64147 0.66793 0.0
C67 C 0.97068 0.59928 0.61631 0.0
H68 H 0.11628 0.72862 0.67898 0.0
H69 H 0.02309 0.59334 0.51823 0.0
C70 C 0.36452 0.63913 0.51256 0.0
N71 N 0.40014 0.84337 0.43985 0.0
C72 C 0.42663 0.82579 0.37923 0.0
C73 C 0.45432 0.90789 0.45719 0.0
N74 N 0.49432 0.87637 0.35824 0.0
C75 C 0.51325 0.92783 0.40714 0.0
C76 C 0.32874 0.81137 0.61551 0.0
O77 O 0.27881 0.63674 0.53818 0.0
O78 O 0.39211 0.70125 0.48687 0.0
O79 O 0.36727 0.82977 0.56369 0.0
O80 O 0.25341 0.76641 0.61451 0.0
O81 O 0.22046 0.87809 0.4878 0.0
H82 H 0.4512 0.93879 0.50312 0.0
H83 H 0.39852 0.77588 0.3509 0.0
O84 O 0.10766 0.81306 0.53889 0.0
O85 O 0.13286 0.68519 0.46194 0.0
O86 O 0.24653 0.7488 0.4111 0.0
C87 C 0.17118 0.70386 0.41013 0.0
H88 H 0.90767 0.5596 0.61465 0.0
H89 H 0.56492 0.97654 0.40641 0.0
Co90 Co 0.68994 0.22114 0.53743 0.0
C91 C 0.62983 0.37226 0.51457 0.0
Co92 Co 0.80347 0.28903 0.48755 0.0
C93 C 0.55075 0.19715 0.63623 0.0
C94 C 0.58382 0.08838 0.58544 0.0
N95 N 0.60053 0.16647 0.58538 0.0
N96 N 0.50522 0.14165 0.66863 0.0
C97 C 0.52574 0.07287 0.6371 0.0
H98 H 0.55325 0.2587 0.6517 0.0
H99 H 0.61582 0.04519 0.55202 0.0
C100 C 0.86457 0.13866 0.51 0.0
N101 N 0.89471 0.34417 0.44038 0.0
C102 C 0.92153 0.32667 0.37978 0.0
C103 C 0.94832 0.40895 0.45776 0.0
N104 N 0.98898 0.37748 0.35885 0.0
C105 C 0.00729 0.4291 0.40775 0.0
C106 C 0.82518 0.30633 0.61617 0.0
O107 O 0.77832 0.13413 0.53439 0.0
O108 O 0.89134 0.20219 0.48639 0.0
O109 O 0.86231 0.32935 0.56518 0.0
O110 O 0.75135 0.25982 0.61324 0.0
O111 O 0.71525 0.37562 0.48889 0.0
H112 H 0.94506 0.43964 0.50377 0.0
H113 H 0.89413 0.27644 0.35153 0.0
O114 O 0.60327 0.30948 0.53956 0.0
O115 O 0.62844 0.18232 0.4614 0.0
O116 O 0.74241 0.24714 0.41134 0.0
C117 C 0.66695 0.202 0.40984 0.0
H118 H 0.50238 0.01574 0.65122 0.0
H119 H 0.05876 0.47795 0.40709 0.0
C120 C 0.59486 0.50895 0.04137 0.0
C121 C 0.5661 0.57833 0.0136 0.0
H122 H 0.55366 0.39268 0.06412 0.0
C123 C 0.47036 0.58293 0.98711 0.0
H124 H 0.66807 0.5036 0.06225 0.0
C125 C 0.40479 0.51954 0.9883 0.0
C126 C 0.43355 0.45009 0.01593 0.0
H127 H 0.44576 0.63561 0.96545 0.0
H128 H 0.33162 0.52502 0.96738 0.0
C129 C 0.52924 0.44544 0.04251 0.0
C130 C 0.40251 0.50176 0.5414 0.0
C131 C 0.43203 0.57065 0.5131 0.0
H132 H 0.44184 0.38507 0.56424 0.0
C133 C 0.52718 0.57377 0.48563 0.0
H134 H 0.32971 0.49749 0.56304 0.0
C135 C 0.59138 0.50945 0.48637 0.0
C136 C 0.5619 0.4405 0.51456 0.0
H137 H 0.55231 0.62597 0.4635 0.0
H138 H 0.66416 0.51384 0.4647 0.0
C139 C 0.4668 0.43734 0.54214 0.0
C140 C 0.96683 0.08392 0.98397 0.0
C141 C 0.06191 0.08075 1.01156 0.0
H142 H 0.82975 0.02376 0.96303 0.0
C143 C 0.09139 0.01179 0.03974 0.0
H144 H 0.94188 0.1362 0.96188 0.0
C145 C 0.02719 0.94746 0.04045 0.0
C146 C 0.93206 0.95058 1.01296 0.0
H147 H 0.16416 1.00739 0.06142 0.0
H148 H 0.05232 0.89525 0.06256 0.0
C149 C 0.90255 0.01949 0.98468 0.0
C150 C 0.9048 1.00171 0.53779 0.0
C151 C 0.93357 0.07119 0.51019 0.0
H152 H 0.94575 0.88562 0.56059 0.0
C153 C 0.02926 0.07584 0.4836 0.0
H154 H 0.83163 0.99623 0.55872 0.0
C155 C 0.09487 0.01232 0.48471 0.0
C156 C 0.0661 0.94292 0.51246 0.0
H157 H 0.05368 0.12861 0.462 0.0
H158 H 0.16808 0.01767 0.46382 0.0
C159 C 0.97035 0.93831 0.53895 0.0
C160 C 0.51819 0.16863 0.3427 0.0
C161 C 0.62197 0.17685 0.34848 0.0
H162 H 0.39424 0.15296 0.27911 0.0
C163 C 0.68179 0.16683 0.29413 0.0
H164 H 0.47045 0.17634 0.38381 0.0
C165 C 0.63829 0.15118 0.23476 0.0
C166 C 0.53433 0.14776 0.2287 0.0
H167 H 0.76207 0.17256 0.29743 0.0
H168 H 0.68529 0.14578 0.19321 0.0
C169 C 0.47466 0.15549 0.2831 0.0
C170 C 0.68634 0.85458 0.23107 0.0
C171 C 0.62624 0.84338 0.17696 0.0
H172 H 0.69031 0.87645 0.33186 0.0
C173 C 0.52242 0.85075 0.18287 0.0
H174 H 0.76668 0.84954 0.2276 0.0
C175 C 0.47914 0.86396 0.24253 0.0
C176 C 0.53914 0.87258 0.29675 0.0
H177 H 0.47454 0.84215 0.1419 0.0
H178 H 0.39872 0.86574 0.24672 0.0
C179 C 0.64308 0.87028 0.29045 0.0
C180 C 0.51793 0.86705 0.7422 0.0
C181 C 0.45765 0.87347 0.79645 0.0
H182 H 0.52386 0.8441 0.64171 0.0
C183 C 0.35401 0.86612 0.79002 0.0
H184 H 0.59807 0.87295 0.74625 0.0
C185 C 0.31182 0.84793 0.73071 0.0
C186 C 0.37242 0.83879 0.67668 0.0
H187 H 0.30631 0.87036 0.83128 0.0
H188 H 0.23193 0.83951 0.72728 0.0
C189 C 0.47556 0.85078 0.68263 0.0
C190 C 0.47585 0.10872 0.77931 0.0
C191 C 0.4544 0.1546 0.72793 0.0
H192 H 0.45415 0.09339 0.87835 0.0
C193 C 0.38819 0.21778 0.73639 0.0
H194 H 0.52766 0.06013 0.77385 0.0
C195 C 0.34481 0.23566 0.79518 0.0
C196 C 0.36852 0.19182 0.84743 0.0
H197 H 0.37076 0.25377 0.69735 0.0
H198 H 0.29455 0.28535 0.79999 0.0
C199 C 0.43427 0.12791 0.83894 0.0
C200 C 0.14308 0.65099 0.23557 0.0
C201 C 0.03914 0.64865 0.22928 0.0
H202 H 0.26668 0.67176 0.29841 0.0
C203 C 0.97915 0.65724 0.2835 0.0
H204 H 0.1903 0.64484 0.19415 0.0
C205 C 0.02242 0.67046 0.34315 0.0
C206 C 0.12624 0.67786 0.34906 0.0
H207 H 0.89872 0.65543 0.27931 0.0
H208 H 0.97455 0.67903 0.38413 0.0
C209 C 0.18634 0.66669 0.29495 0.0
C210 C 0.13827 0.37017 0.29138 0.0
C211 C 0.03431 0.37354 0.29745 0.0
H212 H 0.26206 0.34881 0.22871 0.0
C213 C 0.97464 0.36575 0.24306 0.0
H214 H 0.18527 0.37561 0.33293 0.0
C215 C 0.01817 0.3526 0.18345 0.0
C216 C 0.12195 0.34443 0.17767 0.0
H217 H 0.89421 0.36824 0.24705 0.0
H218 H 0.97042 0.34485 0.14235 0.0
C219 C 0.18178 0.35451 0.23201 0.0
C220 C 0.93411 0.39343 0.68725 0.0
C221 C 0.86851 0.32943 0.67872 0.0
H222 H 0.02737 0.46127 0.75237 0.0
C223 C 0.84494 0.28549 0.73093 0.0
H224 H 0.95387 0.42804 0.64786 0.0
C225 C 0.88831 0.30335 0.78973 0.0
C226 C 0.95437 0.36663 0.79823 0.0
H227 H 0.7948 0.23572 0.7261 0.0
H228 H 0.87098 0.26729 0.82874 0.0
C229 C 0.97568 0.41261 0.74688 0.0
C230 C 0.85399 0.65514 0.736 0.0
C231 C 0.95762 0.64772 0.72956 0.0
H232 H 0.73194 0.68182 0.79875 0.0
C233 C 0.0179 0.65406 0.78382 0.0
H234 H 0.80629 0.65096 0.69474 0.0
C235 C 0.97554 0.67035 0.84339 0.0
C236 C 0.87243 0.68243 0.84935 0.0
H237 H 0.09804 0.6481 0.77976 0.0
H238 H 0.02385 0.67697 0.88431 0.0
C239 C 0.81181 0.67334 0.79532 0.0
loop_
_geom_bond_atom_site_label_1
_geom_bond_atom_site_label_2
_geom_bond_distance
_geom_bond_site_symmetry_2
_ccdc_geom_bond_type
Co0 N5 2.057 . S
Co0 O17 2.021 . S
Co0 O20 2.062 . S
Co0 O24 2.117 . S
Co0 O25 2.020 1_556 S
C1 O21 1.270 . S
C1 O24 1.248 1_554 S
Co2 N11 2.057 . S
Co2 O18 2.117 . S
Co2 O19 2.020 1_554 S
Co2 O21 2.021 . S
Co2 O26 2.062 . S
C3 N5 1.316 . S
C3 N6 1.347 1_455 S
C3 H8 0.931 . S
C4 N5 1.375 1_655 S
C4 C7 1.350 . S
C4 H9 0.930 . S
N5 Co0 2.057 . S
N5 C3 1.316 . S
N5 C4 1.375 1_455 S
N6 C3 1.347 1_655 S
N6 C7 1.373 . S
C7 C4 1.350 . S
C7 N6 1.373 . S
C7 H28 0.931 . S
H8 C3 0.931 . S
H9 C4 0.930 . S
C10 O17 1.267 . S
C10 O18 1.250 1_556 S
N11 Co2 2.057 . S
N11 C12 1.316 . S
N11 C13 1.375 . S
C12 N11 1.316 . S
C12 N14 1.347 . S
C12 H23 0.931 . S
C13 N11 1.375 . S
C13 C15 1.350 . S
C13 H22 0.930 . S
N14 C12 1.347 . S
N14 C15 1.373 . S
C15 C13 1.350 . S
C15 N14 1.373 . S
C15 H29 0.931 . S
C16 O19 1.256 . S
C16 O20 1.255 . S
O17 Co0 2.021 . S
O17 C10 1.267 . S
O18 Co2 2.117 . S
O18 C10 1.250 1_554 S
O19 Co2 2.020 1_556 S
O19 C16 1.256 . S
O20 Co0 2.062 . S
O20 C16 1.255 . S
O21 C1 1.270 . S
O21 Co2 2.021 . S
H22 C13 0.930 . S
H23 C12 0.931 . S
O24 Co0 2.117 . S
O24 C1 1.248 1_556 S
O25 Co0 2.020 1_554 S
O25 C27 1.256 . S
O26 Co2 2.062 . S
O26 C27 1.255 . S
C27 O25 1.256 . S
C27 O26 1.255 . S
H28 C7 0.931 . S
H29 C15 0.931 . S
Co30 N35 2.057 . S
Co30 O47 2.021 . S
Co30 O50 2.062 . S
Co30 O54 2.117 . S
Co30 O55 2.020 1_556 S
C31 O51 1.270 . S
C31 O54 1.248 1_554 S
Co32 N41 2.057 . S
Co32 O48 2.117 . S
Co32 O49 2.020 1_554 S
Co32 O51 2.021 . S
Co32 O56 2.062 . S
C33 N35 1.316 . S
C33 N36 1.347 . S
C33 H38 0.931 . S
C34 N35 1.375 . S
C34 C37 1.350 . S
C34 H39 0.930 . S
N35 Co30 2.057 . S
N35 C33 1.316 . S
N35 C34 1.375 . S
N36 C33 1.347 . S
N36 C37 1.373 . S
C37 C34 1.350 . S
C37 N36 1.373 . S
C37 H58 0.931 . S
H38 C33 0.931 . S
H39 C34 0.930 . S
C40 O47 1.267 . S
C40 O48 1.250 1_556 S
N41 Co32 2.057 . S
N41 C42 1.316 . S
N41 C43 1.375 1_655 S
C42 N41 1.316 . S
C42 N44 1.347 1_655 S
C42 H53 0.931 . S
C43 N41 1.375 1_455 S
C43 C45 1.350 . S
C43 H52 0.930 . S
N44 C42 1.347 1_455 S
N44 C45 1.373 . S
C45 C43 1.350 . S
C45 N44 1.373 . S
C45 H59 0.931 . S
C46 O49 1.256 . S
C46 O50 1.255 . S
O47 Co30 2.021 . S
O47 C40 1.267 . S
O48 Co32 2.117 . S
O48 C40 1.250 1_554 S
O49 Co32 2.020 1_556 S
O49 C46 1.256 . S
O50 Co30 2.062 . S
O50 C46 1.255 . S
O51 C31 1.270 . S
O51 Co32 2.021 . S
H52 C43 0.930 . S
H53 C42 0.931 . S
O54 Co30 2.117 . S
O54 C31 1.248 1_556 S
O55 Co30 2.020 1_554 S
O55 C57 1.256 . S
O56 Co32 2.062 . S
O56 C57 1.255 . S
C57 O55 1.256 . S
C57 O56 1.255 . S
H58 C37 0.931 . S
H59 C45 0.931 . S
Co60 N65 2.057 . S
Co60 O77 2.021 . S
Co60 O80 2.062 . S
Co60 O84 2.117 . S
Co60 O85 2.020 . S
C61 O81 1.259 . S
C61 O84 1.258 . S
Co62 N71 2.057 . S
Co62 O78 2.117 . S
Co62 O79 2.020 . S
Co62 O81 2.021 . S
Co62 O86 2.062 . S
C63 N65 1.316 . S
C63 N66 1.347 1_455 S
C63 H68 0.931 . S
C64 N65 1.375 1_655 S
C64 C67 1.350 . S
C64 H69 0.930 . S
N65 Co60 2.057 . S
N65 C63 1.316 . S
N65 C64 1.375 1_455 S
N66 C63 1.347 1_655 S
N66 C67 1.373 . S
C67 C64 1.350 . S
C67 N66 1.373 . S
C67 H88 0.931 . S
H68 C63 0.931 . S
H69 C64 0.930 . S
C70 O77 1.259 . S
C70 O78 1.258 . S
N71 Co62 2.057 . S
N71 C72 1.316 . S
N71 C73 1.375 . S
C72 N71 1.316 . S
C72 N74 1.347 . S
C72 H83 0.931 . S
C73 N71 1.375 . S
C73 C75 1.350 . S
C73 H82 0.930 . S
N74 C72 1.347 . S
N74 C75 1.373 . S
C75 C73 1.350 . S
C75 N74 1.373 . S
C75 H89 0.931 . S
C76 O79 1.256 . S
C76 O80 1.255 . S
O77 Co60 2.021 . S
O77 C70 1.259 . S
O78 Co62 2.117 . S
O78 C70 1.258 . S
O79 Co62 2.020 . S
O79 C76 1.256 . S
O80 Co60 2.062 . S
O80 C76 1.255 . S
O81 C61 1.259 . S
O81 Co62 2.021 . S
H82 C73 0.930 . S
H83 C72 0.931 . S
O84 Co60 2.117 . S
O84 C61 1.258 . S
O85 Co60 2.020 . S
O85 C87 1.256 . S
O86 Co62 2.062 . S
O86 C87 1.255 . S
C87 O85 1.256 . S
C87 O86 1.255 . S
H88 C67 0.931 . S
H89 C75 0.931 . S
Co90 N95 2.057 . S
Co90 O107 2.021 . S
Co90 O110 2.062 . S
Co90 O114 2.117 . S
Co90 O115 2.020 . S
C91 O111 1.259 . S
C91 O114 1.258 . S
Co92 N101 2.057 . S
Co92 O108 2.117 . S
Co92 O109 2.020 . S
Co92 O111 2.021 . S
Co92 O116 2.062 . S
C93 N95 1.316 . S
C93 N96 1.347 . S
C93 H98 0.931 . S
C94 N95 1.375 . S
C94 C97 1.350 . S
C94 H99 0.930 . S
N95 Co90 2.057 . S
N95 C93 1.316 . S
N95 C94 1.375 . S
N96 C93 1.347 . S
N96 C97 1.373 . S
C97 C94 1.350 . S
C97 N96 1.373 . S
C97 H118 0.931 . S
H98 C93 0.931 . S
H99 C94 0.930 . S
C100 O107 1.259 . S
C100 O108 1.258 . S
N101 Co92 2.057 . S
N101 C102 1.316 . S
N101 C103 1.375 1_655 S
C102 N101 1.316 . S
C102 N104 1.347 1_655 S
C102 H113 0.931 . S
C103 N101 1.375 1_455 S
C103 C105 1.350 . S
C103 H112 0.930 . S
N104 C102 1.347 1_455 S
N104 C105 1.373 . S
C105 C103 1.350 . S
C105 N104 1.373 . S
C105 H119 0.931 . S
C106 O109 1.256 . S
C106 O110 1.255 . S
O107 Co90 2.021 . S
O107 C100 1.259 . S
O108 Co92 2.117 . S
O108 C100 1.258 . S
O109 Co92 2.020 . S
O109 C106 1.256 . S
O110 Co90 2.062 . S
O110 C106 1.255 . S
O111 C91 1.259 . S
O111 Co92 2.021 . S
H112 C103 0.930 . S
H113 C102 0.931 . S
O114 Co90 2.117 . S
O114 C91 1.258 . S
O115 Co90 2.020 . S
O115 C117 1.256 . S
O116 Co92 2.062 . S
O116 C117 1.255 . S
C117 O115 1.256 . S
C117 O116 1.255 . S
H118 C97 0.931 . S
H119 C105 0.931 . S
C120 C121 1.382 1_554 S
C120 H124 0.950 . S
C120 C129 1.390 . S
C121 C120 1.382 1_556 S
C121 C123 1.393 . S
H122 C129 0.950 . S
C123 C121 1.393 . S
C123 C125 1.390 . S
C123 H127 0.950 . S
H124 C120 0.950 . S
C125 C123 1.390 . S
C125 C126 1.379 1_556 S
C125 H128 0.950 . S
C126 C125 1.379 1_554 S
C126 C129 1.396 . S
H127 C123 0.950 . S
H128 C125 0.950 . S
C129 C120 1.390 . S
C129 H122 0.950 . S
C129 C126 1.396 . S
C130 C131 1.387 . S
C130 H134 0.950 . S
C130 C139 1.390 . S
C131 C130 1.387 . S
C131 C133 1.387 . S
H132 C139 0.950 . S
C133 C131 1.387 . S
C133 C135 1.390 . S
C133 H137 0.950 . S
H134 C130 0.950 . S
C135 C133 1.390 . S
C135 C136 1.387 . S
C135 H138 0.950 . S
C136 C135 1.387 . S
C136 C139 1.387 . S
H137 C133 0.950 . S
H138 C135 0.950 . S
C139 C130 1.390 . S
C139 H132 0.950 . S
C139 C136 1.387 . S
C140 C141 1.396 . S
C140 H144 0.950 . S
C140 C149 1.390 1_445 S
C141 C140 1.396 . S
C141 C143 1.379 1_556 S
H142 C149 0.950 . S
C143 C141 1.379 1_554 S
C143 C145 1.390 1_445 S
C143 H147 0.950 . S
H144 C140 0.950 . S
C145 C143 1.390 1_665 S
C145 C146 1.400 . S
C145 H148 0.950 . S
C146 C145 1.400 . S
C146 C149 1.375 1_554 S
H147 C143 0.950 . S
H148 C145 0.950 . S
C149 C140 1.390 1_665 S
C149 H142 0.950 . S
C149 C146 1.375 1_556 S
C150 C151 1.387 . S
C150 H154 0.950 . S
C150 C159 1.390 1_645 S
C151 C150 1.387 . S
C151 C153 1.387 . S
H152 C159 0.950 . S
C153 C151 1.387 . S
C153 C155 1.390 1_645 S
C153 H157 0.950 . S
H154 C150 0.950 . S
C155 C153 1.390 1_465 S
C155 C156 1.387 . S
C155 H158 0.950 . S
C156 C155 1.387 . S
C156 C159 1.387 . S
H157 C153 0.950 . S
H158 C155 0.950 . S
C159 C150 1.390 1_465 S
C159 H152 0.950 . S
C159 C156 1.387 . S
C160 C161 1.387 . S
C160 H164 0.950 . S
C160 C169 1.390 . S
C161 C160 1.387 . S
C161 C163 1.387 . S
H162 C169 0.950 . S
C163 C161 1.387 . S
C163 C165 1.390 . S
C163 H167 0.950 . S
H164 C160 0.950 . S
C165 C163 1.390 . S
C165 C166 1.387 . S
C165 H168 0.950 . S
C166 C165 1.387 . S
C166 C169 1.387 . S
H167 C163 0.950 . S
H168 C165 0.950 . S
C169 C160 1.390 . S
C169 H162 0.950 . S
C169 C166 1.387 . S
C170 C171 1.387 . S
C170 H174 0.950 . S
C170 C179 1.390 . S
C171 C170 1.387 . S
C171 C173 1.387 . S
H172 C179 0.950 . S
C173 C171 1.387 . S
C173 C175 1.390 . S
C173 H177 0.950 . S
H174 C170 0.950 . S
C175 C173 1.390 . S
C175 C176 1.387 . S
C175 H178 0.950 . S
C176 C175 1.387 . S
C176 C179 1.387 . S
H177 C173 0.950 . S
H178 C175 0.950 . S
C179 C170 1.390 . S
C179 H172 0.950 . S
C179 C176 1.387 . S
C180 C181 1.387 . S
C180 H184 0.950 . S
C180 C189 1.390 . S
C181 C180 1.387 . S
C181 C183 1.387 . S
H182 C189 0.950 . S
C183 C181 1.387 . S
C183 C185 1.390 . S
C183 H187 0.950 . S
H184 C180 0.950 . S
C185 C183 1.390 . S
C185 C186 1.387 . S
C185 H188 0.950 . S
C186 C185 1.387 . S
C186 C189 1.387 . S
H187 C183 0.950 . S
H188 C185 0.950 . S
C189 C180 1.390 . S
C189 H182 0.950 . S
C189 C186 1.387 . S
C190 C191 1.387 . S
C190 H194 0.950 . S
C190 C199 1.390 . S
C191 C190 1.387 . S
C191 C193 1.387 . S
H192 C199 0.950 . S
C193 C191 1.387 . S
C193 C195 1.390 . S
C193 H197 0.950 . S
H194 C190 0.950 . S
C195 C193 1.390 . S
C195 C196 1.387 . S
C195 H198 0.950 . S
C196 C195 1.387 . S
C196 C199 1.387 . S
H197 C193 0.950 . S
H198 C195 0.950 . S
C199 C190 1.390 . S
C199 H192 0.950 . S
C199 C196 1.387 . S
C200 C201 1.387 . S
C200 H204 0.950 . S
C200 C209 1.390 . S
C201 C200 1.387 . S
C201 C203 1.387 . S
H202 C209 0.950 . S
C203 C201 1.387 . S
C203 C205 1.390 . S
C203 H207 0.950 1_455 S
H204 C200 0.950 . S
C205 C203 1.390 . S
C205 C206 1.387 . S
C205 H208 0.950 . S
C206 C205 1.387 . S
C206 C209 1.387 . S
H207 C203 0.950 1_655 S
H208 C205 0.950 . S
C209 C200 1.390 . S
C209 H202 0.950 . S
C209 C206 1.387 . S
C210 C211 1.387 . S
C210 H214 0.950 . S
C210 C219 1.390 . S
C211 C210 1.387 . S
C211 C213 1.387 . S
H212 C219 0.950 . S
C213 C211 1.387 . S
C213 C215 1.390 . S
C213 H217 0.950 1_455 S
H214 C210 0.950 . S
C215 C213 1.390 . S
C215 C216 1.387 . S
C215 H218 0.950 . S
C216 C215 1.387 . S
C216 C219 1.387 . S
H217 C213 0.950 1_655 S
H218 C215 0.950 . S
C219 C210 1.390 . S
C219 H212 0.950 . S
C219 C216 1.387 . S
C220 C221 1.387 . S
C220 H224 0.950 . S
C220 C229 1.390 . S
C221 C220 1.387 . S
C221 C223 1.387 . S
H222 C229 0.950 . S
C223 C221 1.387 . S
C223 C225 1.390 . S
C223 H227 0.950 . S
H224 C220 0.950 . S
C225 C223 1.390 . S
C225 C226 1.387 . S
C225 H228 0.950 . S
C226 C225 1.387 . S
C226 C229 1.387 . S
H227 C223 0.950 . S
H228 C225 0.950 . S
C229 C220 1.390 . S
C229 H222 0.950 . S
C229 C226 1.387 . S
C230 C231 1.387 . S
C230 H234 0.950 . S
C230 C239 1.390 . S
C231 C230 1.387 . S
C231 C233 1.387 1_655 S
H232 C239 0.950 . S
C233 C231 1.387 1_455 S
C233 C235 1.390 . S
C233 H237 0.950 . S
H234 C230 0.950 . S
C235 C233 1.390 . S
C235 C236 1.387 1_455 S
C235 H238 0.950 . S
C236 C235 1.387 1_655 S
C236 C239 1.387 . S
H237 C233 0.950 . S
H238 C235 0.950 . S
C239 C230 1.390 . S
C239 H232 0.950 . S
C239 C236 1.387 . S
C121 C31 1.727 1_556 S
C126 C10 1.727 1_554 S
C131 C70 1.724 . S
C136 C91 1.724 . S
C141 C1 1.725 1_556 S
C146 C40 1.725 1_554 S
C151 C100 1.724 . S
C156 C61 1.724 . S
C161 C117 1.214 . S
C166 N14 1.165 . S
C171 C57 1.213 . S
C176 N74 1.168 . S
C181 N36 1.169 . S
C186 C76 1.215 . S
C191 N96 1.170 . S
C196 C16 1.218 . S
C201 N44 1.170 . S
C206 C87 1.212 . S
C211 N104 1.170 . S
C216 C27 1.212 . S
C221 C106 1.216 . S
C226 N6 1.171 . S
C231 N66 1.167 . S
C236 C46 1.217 . S
