# Generated by pormake.
# Topology hex, (8)-cn, num edge types: 1
# Building blocks:
#     Node 0, Type 0, BuildingBlock: NUHRAL_clean_sbu_3, # of connection points: 8
#     Edge 1, Type (0, 0), BuildingBlock: CIFDUS_clean_linker_0, # of connection points: 2
#     Edge 2, Type (0, 0), BuildingBlock: CIFDUS_clean_linker_0, # of connection points: 2
#     Edge 3, Type (0, 0), BuildingBlock: CIFDUS_clean_linker_0, # of connection points: 2
#     Edge 4, Type (0, 0), BuildingBlock: CIFDUS_clean_linker_0, # of connection points: 2
# Relax obj value: 0.034
# Max RMSD: 0.095
# Mean RMSD: 0.095
data_MOF--net-hex--node1-NUHRAL_clean_sbu_3--edge1-CIFDUS_clean_linker_0
_symmetry_space_group_name_H-M    P1
_symmetry_Int_Tables_number       1
_symmetry_cell_setting            triclinic
loop_
_symmetry_equiv_pos_as_xyz
'x, y, z'
_cell_length_a     20.021167
_cell_length_b     16.598971
_cell_length_c     13.038934
_cell_angle_alpha  110.3875
_cell_angle_beta   101.5071
_cell_angle_gamma 112.73294
loop_
_atom_site_label
_atom_site_type_symbol
_atom_site_fract_x
_atom_site_fract_y
_atom_site_fract_z
_atom_type_partial_charge
C0 C 0.76797 0.82758 0.91275 0.0
C1 C 0.73586 0.74459 0.93177 0.0
C2 C 0.66827 0.7208 0.9586 0.0
C3 C 0.63519 0.78226 0.97044 0.0
C4 C 0.66599 0.86486 0.95202 0.0
C5 C 0.7326 0.88717 0.92285 0.0
O6 O 0.03414 0.91593 0.08805 0.0
Tb7 Tb 0.96327 0.85419 0.90252 0.0
O8 O 0.95221 0.71196 0.87877 0.0
O9 O 0.03183 0.06038 0.17063 0.0
Eu10 Eu 0.08671 0.1148 0.05656 0.0
O11 O 0.84154 0.77401 0.81015 0.0
C12 C 0.22098 0.11999 0.08694 0.0
O13 O 0.9013 0.92956 0.94679 0.0
O14 O 1.01096 0.04582 0.86501 0.0
O15 O 1.01594 0.90301 0.78945 0.0
C16 C 0.83373 0.84925 0.87211 0.0
C17 C 0.03589 0.2659 0.02789 0.0
O18 O 0.96658 0.18556 0.97459 0.0
C19 C 0.02908 0.98089 0.17421 0.0
C20 C 1.01692 0.98031 0.78123 0.0
O21 O 0.09761 0.26152 0.07821 0.0
C22 C 0.28836 0.14328 0.04998 0.0
C23 C 0.39138 0.10727 0.01359 0.0
C24 C 0.32402 0.08405 0.04083 0.0
C25 C 0.32104 0.22688 0.03229 0.0
C26 C 0.38939 0.25159 0.00742 0.0
C27 C 0.42275 0.19045 -0.00361 0.0
C28 C 1.01418 0.7062 0.92467 0.0
O29 O 0.08394 0.78549 0.97461 0.0
O30 O 0.21326 0.19446 0.15131 0.0
O31 O 0.1537 0.04041 0.00984 0.0
H32 H 0.76149 0.69693 0.92156 0.0
H33 H 0.58309 0.76359 -0.00906 0.0
H34 H 0.75634 0.95005 0.90633 0.0
H35 H 0.29977 0.0206 0.05619 0.0
H36 H 0.29502 0.27409 0.0416 0.0
H37 H 0.4753 0.20955 0.97707 0.0
H38 H 0.92101 0.29454 0.92221 0.0
H39 H 0.17095 0.44299 0.11887 0.0
H40 H 0.18629 0.59044 0.10137 0.0
H41 H 0.12905 0.67734 0.02982 0.0
H42 H 0.87906 0.52917 0.83381 0.0
H43 H 0.86373 0.38158 0.85096 0.0
C44 C 0.9789 0.35922 0.96183 0.0
C45 C 0.04472 0.35739 0.02224 0.0
C46 C 0.9874 0.4438 0.95089 0.0
C47 C 0.11918 0.44209 0.07239 0.0
C48 C 0.12805 0.5265 0.06207 0.0
C49 C 0.07115 0.61267 -0.0098 0.0
C50 C 1.00532 0.6146 0.93004 0.0
C51 C 0.06264 0.52812 0.0012 0.0
C52 C 0.93084 0.52998 0.88009 0.0
C53 C 0.92197 0.44549 0.8902 0.0
H54 H 0.60172 0.92014 0.11031 0.0
H55 H 0.6316 0.93255 0.79627 0.0
H56 H 0.54446 0.00198 0.78297 0.0
H57 H 0.45569 0.05218 0.8555 0.0
H58 H 0.42543 0.0393 0.16911 0.0
H59 H 0.51271 0.96998 0.18258 0.0
C60 C 0.5891 0.93785 0.03871 0.0
C61 C 0.62304 0.9208 0.95413 0.0
C62 C 0.53702 0.97455 0.02938 0.0
C63 C 0.60729 0.94613 0.86347 0.0
C64 C 0.55649 0.98439 0.85477 0.0
C65 C 0.46821 0.03429 0.92697 0.0
C66 C 0.43422 0.05124 0.01147 0.0
C67 C 0.52024 -0.00249 0.93625 0.0
C68 C 0.44986 0.0258 0.10204 0.0
C69 C 0.50071 -0.01239 0.1108 0.0
H70 H 0.54531 0.38318 0.10385 0.0
H71 H 0.32226 0.32102 0.88086 0.0
H72 H 0.39005 0.45765 0.84042 0.0
H73 H 0.51245 0.58949 0.86261 0.0
H74 H 0.73553 0.65148 0.08521 0.0
H75 H 0.66775 0.51494 0.12588 0.0
C76 C 0.51146 0.39927 0.04595 0.0
C77 C 0.42883 0.3416 -0.00549 0.0
C78 C 0.55081 0.47571 0.02077 0.0
C79 C 0.38573 0.36478 0.92213 0.0
C80 C 0.42452 0.44195 0.89791 0.0
C81 C 0.5463 0.57334 0.92043 0.0
C82 C 0.62892 0.63092 0.97174 0.0
C83 C 0.50697 0.4969 0.94561 0.0
C84 C 0.67205 0.60776 0.04408 0.0
C85 C 0.63327 0.53064 0.06842 0.0
H86 H 1.0084 0.85135 0.57309 0.0
H87 H 0.03628 0.14226 0.75542 0.0
H88 H 0.04223 0.16809 0.5846 0.0
H89 H 0.03885 0.10876 0.38284 0.0
H90 H 1.01105 0.81825 0.19899 0.0
H91 H 1.00559 0.79203 0.3703 0.0
C92 C 1.01588 0.92031 0.57532 0.0
C93 C 1.02145 -0.00578 0.67658 0.0
C94 C 1.01916 0.93508 0.47633 0.0
C95 C 0.03121 0.08345 0.67825 0.0
C96 C 0.03477 0.09866 0.5806 0.0
C97 C 0.03158 0.03976 0.38023 0.0
C98 C 1.02565 0.96601 0.27857 0.0
C99 C 0.02856 0.02494 0.47904 0.0
C100 C 1.01623 0.87681 0.27657 0.0
C101 C 1.01298 0.86147 0.37446 0.0
loop_
_geom_bond_atom_site_label_1
_geom_bond_atom_site_label_2
_geom_bond_distance
_geom_bond_site_symmetry_2
_ccdc_geom_bond_type
C0 C1 1.387 . S
C0 C5 1.380 . S
C0 C16 1.494 . S
C1 C0 1.387 . S
C1 C2 1.386 1_556 S
C1 H32 0.930 . S
C2 C1 1.386 1_554 S
C2 C3 1.397 . S
C3 C2 1.397 . S
C3 C4 1.393 1_554 S
C3 H33 0.930 . S
C4 C3 1.393 1_556 S
C4 C5 1.395 . S
C5 C0 1.380 . S
C5 C4 1.395 . S
C5 H34 0.930 . S
O6 Tb7 2.295 1_554 S
O6 C19 1.242 1_665 S
Tb7 O6 2.295 1_556 S
Tb7 O8 2.312 . S
Tb7 O11 2.438 . S
Tb7 O13 2.472 . S
Tb7 O15 2.308 . S
Tb7 C16 2.821 . S
O8 Tb7 2.312 . S
O8 C28 1.264 1_655 S
O9 Eu10 2.308 . S
O9 C19 1.243 . S
Eu10 O9 2.308 . S
Eu10 C12 2.821 . S
Eu10 O14 2.295 1_554 S
Eu10 O21 2.312 . S
Eu10 O30 2.438 . S
Eu10 O31 2.472 . S
O11 Tb7 2.438 . S
O11 C16 1.263 . S
C12 Eu10 2.821 . S
C12 C22 1.494 . S
C12 O30 1.263 . S
C12 O31 1.264 . S
O13 Tb7 2.472 . S
O13 C16 1.264 . S
O14 Eu10 2.295 1_556 S
O14 C20 1.242 1_445 S
O15 Tb7 2.308 . S
O15 C20 1.243 . S
C16 C0 1.494 . S
C16 Tb7 2.821 . S
C16 O11 1.263 . S
C16 O13 1.264 . S
C17 O18 1.260 . S
C17 O21 1.264 1_655 S
O18 C17 1.260 . S
C19 O6 1.242 1_445 S
C19 O9 1.243 . S
C20 O14 1.242 1_665 S
C20 O15 1.243 . S
O21 Eu10 2.312 . S
O21 C17 1.264 1_455 S
C22 C12 1.494 . S
C22 C24 1.380 . S
C22 C25 1.387 . S
C23 C24 1.395 . S
C23 C27 1.393 1_554 S
C24 C22 1.380 . S
C24 C23 1.395 . S
C24 H35 0.930 . S
C25 C22 1.387 . S
C25 C26 1.386 1_554 S
C25 H36 0.930 . S
C26 C25 1.386 1_556 S
C26 C27 1.397 . S
C27 C23 1.393 1_556 S
C27 C26 1.397 . S
C27 H37 0.930 . S
C28 O8 1.264 1_455 S
C28 O29 1.260 . S
O29 C28 1.260 . S
O30 Eu10 2.438 . S
O30 C12 1.263 . S
O31 Eu10 2.472 . S
O31 C12 1.264 . S
H32 C1 0.930 . S
H33 C3 0.930 . S
H34 C5 0.930 . S
H35 C24 0.930 . S
H36 C25 0.930 . S
H37 C27 0.930 . S
H38 C44 0.930 . S
H39 C47 0.930 . S
H40 C48 0.930 . S
H41 C49 0.930 . S
H42 C52 0.930 . S
H43 C53 0.930 . S
C44 H38 0.930 . S
C44 C45 1.365 1_556 S
C44 C46 1.415 . S
C45 C44 1.365 1_554 S
C45 C47 1.409 1_655 S
C46 C44 1.415 . S
C46 C51 1.425 1_656 S
C46 C53 1.409 . S
C47 H39 0.930 . S
C47 C45 1.409 1_455 S
C47 C48 1.362 . S
C48 H40 0.930 . S
C48 C47 1.362 . S
C48 C51 1.409 . S
C49 H41 0.930 . S
C49 C50 1.369 1_554 S
C49 C51 1.415 . S
C50 C49 1.369 1_556 S
C50 C52 1.406 1_455 S
C51 C46 1.425 1_454 S
C51 C48 1.409 . S
C51 C49 1.415 . S
C52 H42 0.930 . S
C52 C50 1.406 1_655 S
C52 C53 1.362 . S
C53 H43 0.930 . S
C53 C46 1.409 . S
C53 C52 1.362 . S
H54 C60 0.930 . S
H55 C63 0.930 1_545 S
H56 C64 0.930 . S
H57 C65 0.930 . S
H58 C68 0.930 1_565 S
H59 C69 0.930 . S
C60 H54 0.930 . S
C60 C61 1.355 1_554 S
C60 C62 1.415 . S
C61 C60 1.355 1_556 S
C61 C63 1.419 . S
C62 C60 1.415 . S
C62 C67 1.425 1_564 S
C62 C69 1.409 . S
C63 H55 0.930 1_565 S
C63 C61 1.419 . S
C63 C64 1.362 1_565 S
C64 H56 0.930 . S
C64 C63 1.362 1_545 S
C64 C67 1.409 . S
C65 H57 0.930 . S
C65 C66 1.355 1_556 S
C65 C67 1.415 . S
C66 C65 1.355 1_554 S
C66 C68 1.419 . S
C67 C62 1.425 1_546 S
C67 C64 1.409 . S
C67 C65 1.415 . S
C68 H58 0.930 1_545 S
C68 C66 1.419 . S
C68 C69 1.362 1_545 S
C69 H59 0.930 . S
C69 C62 1.409 . S
C69 C68 1.362 1_565 S
H70 C76 0.930 . S
H71 C79 0.930 . S
H72 C80 0.930 . S
H73 C81 0.930 . S
H74 C84 0.930 . S
H75 C85 0.930 . S
C76 H70 0.930 . S
C76 C77 1.355 1_554 S
C76 C78 1.415 . S
C77 C76 1.355 1_556 S
C77 C79 1.419 . S
C78 C76 1.415 . S
C78 C83 1.425 1_554 S
C78 C85 1.409 . S
C79 H71 0.930 . S
C79 C77 1.419 . S
C79 C80 1.362 . S
C80 H72 0.930 . S
C80 C79 1.362 . S
C80 C83 1.409 . S
C81 H73 0.930 . S
C81 C82 1.355 1_556 S
C81 C83 1.415 . S
C82 C81 1.355 1_554 S
C82 C84 1.419 . S
C83 C78 1.425 1_556 S
C83 C80 1.409 . S
C83 C81 1.415 . S
C84 H74 0.930 . S
C84 C82 1.419 . S
C84 C85 1.362 . S
C85 H75 0.930 . S
C85 C78 1.409 . S
C85 C84 1.362 . S
H86 C92 0.930 . S
H87 C95 0.930 . S
H88 C96 0.930 . S
H89 C97 0.930 . S
H90 C100 0.930 . S
H91 C101 0.930 . S
C92 H86 0.930 . S
C92 C93 1.355 1_565 S
C92 C94 1.414 . S
C93 C92 1.355 1_545 S
C93 C95 1.419 . S
C94 C92 1.414 . S
C94 C99 1.422 1_465 S
C94 C101 1.412 1_455 S
C95 H87 0.930 . S
C95 C93 1.419 . S
C95 C96 1.362 . S
C96 H88 0.930 . S
C96 C95 1.362 . S
C96 C99 1.410 1_455 S
C97 H89 0.930 . S
C97 C98 1.355 1_545 S
C97 C99 1.414 . S
C98 C97 1.355 1_565 S
C98 C100 1.419 . S
C99 C94 1.422 1_645 S
C99 C96 1.410 1_655 S
C99 C97 1.414 . S
C100 H90 0.930 . S
C100 C98 1.419 . S
C100 C101 1.362 . S
C101 H91 0.930 . S
C101 C94 1.412 1_655 S
C101 C100 1.362 . S
C45 C17 0.556 . S
C50 C28 0.558 . S
C61 C4 2.060 . S
C66 C23 2.060 . S
C77 C26 1.845 . S
C82 C2 1.845 . S
C93 C20 1.496 1_445 S
C98 C19 1.496 1_665 S
