# Generated by pormake.
# Topology qzd, (4)-cn, num edge types: 1
# Building blocks:
#     Node 0, Type 0, BuildingBlock: NAWXER_clean_sbu_0, # of connection points: 4
#     Node 1, Type 0, BuildingBlock: NAWXER_clean_sbu_0, # of connection points: 4
#     Node 2, Type 0, BuildingBlock: NAWXER_clean_sbu_0, # of connection points: 4
#     Edge 3, Type (0, 0), BuildingBlock: FUNLAD_clean_linker_1, # of connection points: 2
#     Edge 4, Type (0, 0), BuildingBlock: FUNLAD_clean_linker_1, # of connection points: 2
#     Edge 5, Type (0, 0), BuildingBlock: FUNLAD_clean_linker_1, # of connection points: 2
#     Edge 6, Type (0, 0), BuildingBlock: FUNLAD_clean_linker_1, # of connection points: 2
#     Edge 7, Type (0, 0), BuildingBlock: FUNLAD_clean_linker_1, # of connection points: 2
#     Edge 8, Type (0, 0), BuildingBlock: FUNLAD_clean_linker_1, # of connection points: 2
# Relax obj value: 0.000
# Max RMSD: 0.038
# Mean RMSD: 0.038
data_MOF--net-qzd--node1-NAWXER_clean_sbu_0--edge1-FUNLAD_clean_linker_1
_symmetry_space_group_name_H-M    P1
_symmetry_Int_Tables_number       1
_symmetry_cell_setting            triclinic
loop_
_symmetry_equiv_pos_as_xyz
'x, y, z'
_cell_length_a     15.158777
_cell_length_b     15.171135
_cell_length_c     45.625433
_cell_angle_alpha  95.330621
_cell_angle_beta   94.077819
_cell_angle_gamma 119.6668
loop_
_atom_site_label
_atom_site_type_symbol
_atom_site_fract_x
_atom_site_fract_y
_atom_site_fract_z
_atom_type_partial_charge
C0 C 0.09195 0.89561 0.02951 0.0
C1 C 0.79628 0.94154 0.02887 0.0
O2 O 0.99783 0.82698 0.02565 0.0
Zn3 Zn 0.94424 0.91826 0.02934 0.0
O4 O 0.11809 0.99074 0.0342 0.0
Zn5 Zn 0.04168 0.07884 0.038 0.0
O6 O 0.08975 0.15014 0.07797 0.0
O7 O 0.98967 0.98281 0.07579 0.0
O8 O 0.8809 0.02722 0.03387 0.0
O9 O 0.79715 0.85803 0.02484 0.0
O10 O 0.98649 0.99374 0.99044 0.0
O11 O 0.08392 0.15986 1.00635 0.0
C12 C 0.04519 0.07229 0.09109 0.0
C13 C 0.03972 0.08612 0.98504 0.0
C14 C 0.08933 0.07433 0.42598 0.0
C15 C 0.05746 0.04414 0.31828 0.0
O16 O 0.05088 0.12635 0.41611 0.0
Zn17 Zn 1.01267 0.15841 0.37331 0.0
O18 O 0.11579 0.02551 0.40802 0.0
Zn19 Zn 0.07439 0.06036 0.37221 0.0
O20 O 0.18554 0.22103 0.3751 0.0
O21 O 0.10184 0.30567 0.37609 0.0
O22 O 0.0909 1.00226 0.33517 0.0
O23 O 1.02639 0.103 0.32953 0.0
O24 O 0.86646 0.10338 0.37163 0.0
O25 O 0.91017 0.98444 0.3709 0.0
C26 C 0.18585 0.30593 0.37633 0.0
C27 C 0.84096 1.00977 0.37087 0.0
C28 C 0.13149 0.1067 0.7621 0.0
C29 C 0.09705 0.07795 0.65438 0.0
O30 O 0.04989 0.06114 0.74369 0.0
Zn31 Zn 0.11418 0.09289 0.70825 0.0
O32 O 0.21878 0.15499 0.75283 0.0
Zn33 Zn 0.27438 0.18825 0.71059 0.0
O34 O 0.33526 0.33541 0.71334 0.0
O35 O 0.16667 0.25349 0.71045 0.0
O36 O 0.1907 0.13453 0.66637 0.0
O37 O 1.0269 0.03716 0.67063 0.0
O38 O 0.20116 1.01458 0.70776 0.0
O39 O 0.36411 0.1329 0.7095 0.0
C40 C 0.25226 0.33729 0.71221 0.0
C41 C 0.29563 0.03946 0.70831 0.0
H42 H 0.70484 1.01734 0.0304 0.0
C43 C 0.69967 0.94285 0.02784 0.0
H44 H 0.59962 0.78224 0.02271 0.0
H45 H 0.26779 0.86197 0.08044 0.0
H46 H 0.31898 0.79264 0.11972 0.0
H47 H 0.45895 0.75515 0.11578 0.0
H48 H 0.54865 0.7869 0.0725 0.0
C49 C 0.60707 0.85758 0.02422 0.0
C50 C 0.51336 0.86593 0.02446 0.0
C51 C 0.45952 0.84373 0.04942 0.0
C52 C 0.37813 0.86441 0.05154 0.0
C53 C 0.32877 0.84588 0.07737 0.0
C54 C 0.35772 0.80651 0.10016 0.0
C55 C 0.43658 0.78546 0.09796 0.0
C56 C 0.48739 0.804 0.07299 0.0
H57 H 0.14597 0.78441 0.02441 0.0
C58 C 0.17061 0.86557 0.02827 0.0
H59 H 0.29639 1.01706 0.03421 0.0
H60 H 0.59134 0.9034 0.97175 0.0
H61 H 0.53925 0.97114 0.93214 0.0
H62 H 0.39986 1.00952 0.9361 0.0
H63 H 0.31139 0.97988 0.9796 0.0
C64 C 0.27092 0.93569 0.03138 0.0
C65 C 0.34999 0.90584 0.02843 0.0
C66 C 0.40122 0.92418 1.00294 0.0
C67 C 0.48239 0.90333 1.00082 0.0
C68 C 0.53084 0.92029 0.97482 0.0
C69 C 0.50124 0.9585 0.95183 0.0
C70 C 0.42271 0.98001 0.95404 0.0
C71 C 0.37279 0.96293 0.97919 0.0
H72 H 0.67535 0.95435 0.37056 0.0
C73 C 0.7324 0.93079 0.37072 0.0
H74 H 0.76056 0.80827 0.37283 0.0
H75 H 0.37405 0.52629 0.43152 0.0
H76 H 0.50677 0.59317 0.47395 0.0
H77 H 0.68149 0.7336 0.47101 0.0
H78 H 0.72425 0.80849 0.42571 0.0
C79 C 0.70346 0.83173 0.37151 0.0
C80 C 0.59575 0.75233 0.3736 0.0
C81 C 0.57202 0.70877 0.40018 0.0
C82 C 0.47165 0.62677 0.40175 0.0
C83 C 0.44967 0.58673 0.42885 0.0
C84 C 0.52497 0.62492 0.45345 0.0
C85 C 0.62329 0.70404 0.45181 0.0
C86 C 0.64689 0.74605 0.4256 0.0
H87 H 0.35369 0.39633 0.37874 0.0
C88 C 0.28477 0.40196 0.37768 0.0
H89 H 0.22532 0.50129 0.37468 0.0
H90 H 0.61546 0.81671 0.31902 0.0
H91 H 0.48236 0.75075 0.27682 0.0
H92 H 0.3079 0.61003 0.27976 0.0
H93 H 0.26563 0.53406 0.32493 0.0
C94 C 0.2933 0.49423 0.37695 0.0
C95 C 0.39542 0.58705 0.37654 0.0
C96 C 0.41814 0.63294 0.3503 0.0
C97 C 0.51859 0.71508 0.34872 0.0
C98 C 0.54014 0.75592 0.32173 0.0
C99 C 0.46449 0.71838 0.29725 0.0
C100 C 0.36629 0.63908 0.29889 0.0
C101 C 0.34303 0.59628 0.32499 0.0
H102 H 0.40579 0.98397 0.70785 0.0
C103 C 0.3255 0.96045 0.70812 0.0
H104 H 0.17598 0.83661 0.7084 0.0
H105 H 0.25575 0.48861 0.65569 0.0
H106 H 0.16085 0.49997 0.6125 0.0
H107 H 0.12295 0.64049 0.61261 0.0
H108 H 0.17984 0.7706 0.65589 0.0
C109 C 0.25684 0.86156 0.70891 0.0
C110 C 0.28646 0.78147 0.70843 0.0
C111 C 0.25205 0.70569 0.68303 0.0
C112 C 0.27273 0.62397 0.6831 0.0
C113 C 0.23964 0.55073 0.65714 0.0
C114 C 0.18584 0.55681 0.6321 0.0
C115 C 0.16454 0.63595 0.63216 0.0
C116 C 0.19734 0.70992 0.65721 0.0
H117 H 0.17715 0.4293 0.71132 0.0
C118 C 0.25104 0.43361 0.71177 0.0
H119 H 0.41009 0.53136 0.71152 0.0
H120 H 0.36312 0.91349 0.76109 0.0
H121 H 0.46176 0.90411 0.80361 0.0
H122 H 0.50076 0.76428 0.80318 0.0
H123 H 0.44028 0.63226 0.7602 0.0
C124 C 0.33494 0.52417 0.71056 0.0
C125 C 0.32613 0.61709 0.7088 0.0
C126 C 0.36491 0.69546 0.73365 0.0
C127 C 0.34405 0.7772 0.73365 0.0
C128 C 0.379 0.85129 0.75946 0.0
C129 C 0.43525 0.84648 0.78415 0.0
C130 C 0.45706 0.76765 0.78392 0.0
C131 C 0.42197 0.69245 0.75911 0.0
H132 H 0.0813 0.97424 0.27716 0.0
C133 C 0.05619 0.02609 0.28589 0.0
H134 H 0.99915 0.12304 0.2755 0.0
H135 H 0.21041 0.08285 0.15557 0.0
H136 H 0.3724 0.17444 0.18801 0.0
H137 H 0.37799 0.21617 0.24192 0.0
H138 H 0.22156 0.16444 0.26375 0.0
C139 C 1.02702 0.07316 0.26718 0.0
C140 C 1.02523 0.05401 0.23449 0.0
C141 C 0.11791 0.08884 0.22197 0.0
C142 C 0.11503 0.06964 0.19069 0.0
C143 C 0.20828 0.09959 0.17898 0.0
C144 C 0.30186 0.15156 0.19739 0.0
C145 C 0.30498 0.17468 0.22775 0.0
C146 C 0.21441 0.14392 0.24002 0.0
H147 H 0.09624 0.16345 0.13585 0.0
C148 C 0.05572 0.08578 0.12382 0.0
H149 H 0.97314 0.92779 0.12713 0.0
H150 H 0.83378 0.97498 0.25136 0.0
H151 H 0.67203 0.88878 0.21875 0.0
H152 H 0.66738 0.86322 0.16434 0.0
H153 H 0.82424 0.92279 0.14224 0.0
C154 C 1.01588 1.00568 0.13896 0.0
C155 C 1.01984 0.02057 0.17187 0.0
C156 C 0.92728 0.98599 0.18441 0.0
C157 C 0.93 1.00235 0.21574 0.0
C158 C 0.83631 0.96585 0.22768 0.0
C159 C 0.74283 0.91605 0.20922 0.0
C160 C 0.74021 0.90153 0.1786 0.0
C161 C 0.831 0.93598 0.16621 0.0
H162 H 0.9897 0.02655 0.61278 0.0
C163 C 0.07019 0.06444 0.62192 0.0
H164 H 0.22313 0.14152 0.61295 0.0
H165 H 0.94991 0.9114 0.479 0.0
H166 H 0.89068 0.75013 0.49802 0.0
H167 H 0.93933 0.74709 0.55053 0.0
H168 H 0.04474 0.90522 0.58448 0.0
C169 C 0.14254 0.10122 0.60378 0.0
C170 C 0.11706 0.10075 0.57162 0.0
C171 C 0.05998 1.00727 0.55177 0.0
C172 C 0.03727 1.00895 0.52109 0.0
C173 C 0.97389 0.91464 0.50217 0.0
C174 C 0.93866 0.82144 0.51285 0.0
C175 C 0.96563 0.81975 0.54243 0.0
C176 C 1.02567 0.91126 0.56175 0.0
H177 H 0.14385 0.03348 0.4658 0.0
C178 C 0.10198 0.0698 0.45804 0.0
H179 H 1.02085 0.14452 0.47013 0.0
H180 H 0.22209 0.29375 0.60391 0.0
H181 H 0.28513 0.45468 0.58454 0.0
H182 H 0.25542 0.4575 0.53086 0.0
H183 H 0.16168 0.29929 0.49627 0.0
C184 C 0.0616 0.10677 0.47757 0.0
C185 C 0.07728 0.10396 0.51 0.0
C186 C 0.13351 0.19729 0.52987 0.0
C187 C 0.15264 0.19567 0.56073 0.0
C188 C 0.20711 0.29019 0.58016 0.0
C189 C 0.24345 0.38332 0.56937 0.0
C190 C 0.2266 0.38489 0.53916 0.0
C191 C 0.17245 0.29333 0.51954 0.0
H192 H 0.19208 0.10404 0.80703 0.0
C193 C 0.12764 0.10138 0.79405 0.0
H194 H 0.98617 0.09552 0.79433 0.0
H195 H 0.8539 0.89511 0.90942 0.0
H196 H 0.71059 0.78055 0.87186 0.0
H197 H 0.71896 0.80171 0.81902 0.0
H198 H 0.86984 0.93851 0.8035 0.0
C199 C 0.04956 0.0967 0.80744 0.0
C200 C 0.0441 0.08638 0.83964 0.0
C201 C 0.95623 1.0035 0.84821 0.0
C202 C 0.95279 0.98901 0.87859 0.0
C203 C 0.8622 0.90822 0.88662 0.0
C204 C 0.77896 0.84192 0.86528 0.0
C205 C 0.7836 0.85396 0.83555 0.0
C206 C 0.87092 0.93336 0.82697 0.0
H207 H 0.06878 0.18396 0.94989 0.0
C208 C 0.0485 0.10736 0.9542 0.0
H209 H 1.01462 0.95935 0.93627 0.0
H210 H 0.21103 0.27003 0.83292 0.0
H211 H 0.35981 0.37801 0.86968 0.0
H212 H 0.36794 0.33344 0.92007 0.0
H213 H 0.22538 0.18392 0.93433 0.0
C214 C 0.03481 0.03578 0.93179 0.0
C215 C 0.0388 0.05469 0.90024 0.0
C216 C 0.12724 0.13679 0.89157 0.0
C217 C 0.12711 0.15637 0.86167 0.0
C218 C 0.21071 0.24664 0.8546 0.0
C219 C 0.29611 0.31005 0.8756 0.0
C220 C 0.30036 0.28539 0.90401 0.0
C221 C 0.21726 0.19983 0.91202 0.0
loop_
_geom_bond_atom_site_label_1
_geom_bond_atom_site_label_2
_geom_bond_distance
_geom_bond_site_symmetry_2
_ccdc_geom_bond_type
C0 O2 1.248 . S
C0 O4 1.256 1_565 S
C1 O8 1.250 . S
C1 O9 1.253 1_545 S
O2 C0 1.248 . S
O2 Zn3 2.028 1_455 S
Zn3 O2 2.028 1_655 S
Zn3 O7 2.035 . S
Zn3 O9 2.035 . S
Zn3 O10 2.028 1_554 S
O4 C0 1.256 1_545 S
O4 Zn5 2.035 . S
Zn5 O4 2.035 . S
Zn5 O6 2.028 . S
Zn5 O8 2.028 1_455 S
Zn5 O11 2.035 1_554 S
O6 Zn5 2.028 . S
O6 C12 1.250 . S
O7 Zn3 2.035 . S
O7 C12 1.255 1_665 S
O8 C1 1.250 . S
O8 Zn5 2.028 1_655 S
O9 C1 1.253 1_565 S
O9 Zn3 2.035 . S
O10 Zn3 2.028 1_556 S
O10 C13 1.247 1_655 S
O11 Zn5 2.035 1_556 S
O11 C13 1.258 1_545 S
C12 O6 1.250 . S
C12 O7 1.255 1_445 S
C13 O10 1.247 1_455 S
C13 O11 1.258 1_565 S
C14 O16 1.247 1_455 S
C14 O18 1.258 . S
C15 O22 1.246 . S
C15 O23 1.259 1_455 S
O16 C14 1.247 1_655 S
O16 Zn17 2.028 . S
Zn17 O16 2.028 . S
Zn17 O21 2.035 1_655 S
Zn17 O23 2.035 . S
Zn17 O24 2.028 . S
O18 C14 1.258 . S
O18 Zn19 2.035 . S
Zn19 O18 2.035 . S
Zn19 O20 2.028 . S
Zn19 O22 2.028 . S
Zn19 O25 2.035 1_445 S
O20 Zn19 2.028 . S
O20 C26 1.247 . S
O21 Zn17 2.035 1_455 S
O21 C26 1.258 . S
O22 C15 1.246 . S
O22 Zn19 2.028 . S
O23 C15 1.259 1_655 S
O23 Zn17 2.035 . S
O24 Zn17 2.028 . S
O24 C27 1.246 1_545 S
O25 Zn19 2.035 1_665 S
O25 C27 1.258 . S
C26 O20 1.247 . S
C26 O21 1.258 . S
C27 O24 1.246 1_565 S
C27 O25 1.258 . S
C28 O30 1.247 . S
C28 O32 1.258 . S
C29 O36 1.247 . S
C29 O37 1.258 . S
O30 C28 1.247 . S
O30 Zn31 2.028 1_455 S
Zn31 O30 2.028 1_655 S
Zn31 O35 2.035 1_655 S
Zn31 O37 2.035 1_655 S
Zn31 O38 2.028 1_645 S
O32 C28 1.258 . S
O32 Zn33 2.035 . S
Zn33 O32 2.035 . S
Zn33 O34 2.028 . S
Zn33 O36 2.028 . S
Zn33 O39 2.035 . S
O34 Zn33 2.028 . S
O34 C40 1.247 . S
O35 Zn31 2.035 1_455 S
O35 C40 1.258 . S
O36 C29 1.247 . S
O36 Zn33 2.028 . S
O37 C29 1.258 . S
O37 Zn31 2.035 1_455 S
O38 Zn31 2.028 1_465 S
O38 C41 1.247 . S
O39 Zn33 2.035 . S
O39 C41 1.258 1_545 S
C40 O34 1.247 . S
C40 O35 1.258 . S
C41 O38 1.247 . S
C41 O39 1.258 1_565 S
H42 C43 0.951 . S
C43 H42 0.951 . S
C43 C49 1.265 1_545 S
H44 C49 0.950 1_556 S
H45 C53 0.949 . S
H46 C54 0.950 . S
H47 C55 0.951 . S
H48 C56 0.951 . S
C49 C43 1.265 1_565 S
C49 H44 0.950 1_554 S
C49 C50 1.478 . S
C50 C49 1.478 . S
C50 C51 1.397 . S
C50 C67 1.394 1_565 S
C51 C50 1.397 . S
C51 C52 1.438 . S
C51 C56 1.429 . S
C52 C51 1.438 . S
C52 C53 1.428 . S
C52 C65 1.394 1_565 S
C53 H45 0.949 . S
C53 C52 1.428 . S
C53 C54 1.345 . S
C54 H46 0.950 . S
C54 C53 1.345 . S
C54 C55 1.424 . S
C55 H47 0.951 . S
C55 C54 1.424 . S
C55 C56 1.347 . S
C56 H48 0.951 . S
C56 C51 1.429 . S
C56 C55 1.347 . S
H57 C58 0.951 . S
C58 H57 0.951 . S
C58 C64 1.265 1_565 S
H59 C64 0.950 . S
H60 C68 0.949 . S
H61 C69 0.950 . S
H62 C70 0.951 . S
H63 C71 0.951 . S
C64 C58 1.265 1_545 S
C64 H59 0.950 . S
C64 C65 1.478 . S
C65 C52 1.394 1_545 S
C65 C64 1.478 . S
C65 C66 1.397 . S
C66 C65 1.397 . S
C66 C67 1.438 . S
C66 C71 1.429 . S
C67 C50 1.394 1_545 S
C67 C66 1.438 . S
C67 C68 1.428 . S
C68 H60 0.949 . S
C68 C67 1.428 . S
C68 C69 1.345 . S
C69 H61 0.950 . S
C69 C68 1.345 . S
C69 C70 1.424 . S
C70 H62 0.951 . S
C70 C69 1.424 . S
C70 C71 1.347 . S
C71 H63 0.951 . S
C71 C66 1.429 . S
C71 C70 1.347 . S
H72 C73 0.951 . S
C73 H72 0.951 . S
C73 C79 1.265 . S
H74 C79 0.950 . S
H75 C83 0.949 . S
H76 C84 0.950 . S
H77 C85 0.951 . S
H78 C86 0.951 . S
C79 C73 1.265 . S
C79 H74 0.950 . S
C79 C80 1.478 . S
C80 C79 1.478 . S
C80 C81 1.397 . S
C80 C97 1.394 . S
C81 C80 1.397 . S
C81 C82 1.438 . S
C81 C86 1.429 . S
C82 C81 1.438 . S
C82 C83 1.428 . S
C82 C95 1.394 . S
C83 H75 0.949 . S
C83 C82 1.428 . S
C83 C84 1.345 . S
C84 H76 0.950 . S
C84 C83 1.345 . S
C84 C85 1.424 . S
C85 H77 0.951 . S
C85 C84 1.424 . S
C85 C86 1.347 . S
C86 H78 0.951 . S
C86 C81 1.429 . S
C86 C85 1.347 . S
H87 C88 0.951 . S
C88 H87 0.951 . S
C88 C94 1.265 . S
H89 C94 0.950 . S
H90 C98 0.949 . S
H91 C99 0.950 . S
H92 C100 0.951 . S
H93 C101 0.951 . S
C94 C88 1.265 . S
C94 H89 0.950 . S
C94 C95 1.478 . S
C95 C82 1.394 . S
C95 C94 1.478 . S
C95 C96 1.397 . S
C96 C95 1.397 . S
C96 C97 1.438 . S
C96 C101 1.429 . S
C97 C80 1.394 . S
C97 C96 1.438 . S
C97 C98 1.428 . S
C98 H90 0.949 . S
C98 C97 1.428 . S
C98 C99 1.345 . S
C99 H91 0.950 . S
C99 C98 1.345 . S
C99 C100 1.424 . S
C100 H92 0.951 . S
C100 C99 1.424 . S
C100 C101 1.347 . S
C101 H93 0.951 . S
C101 C96 1.429 . S
C101 C100 1.347 . S
H102 C103 0.951 . S
C103 H102 0.951 . S
C103 C109 1.265 . S
H104 C109 0.950 1_655 S
H105 C113 0.949 . S
H106 C114 0.950 . S
H107 C115 0.951 . S
H108 C116 0.952 . S
C109 C103 1.265 . S
C109 H104 0.950 1_455 S
C109 C110 1.478 . S
C110 C109 1.478 . S
C110 C111 1.397 . S
C110 C127 1.394 . S
C111 C110 1.397 . S
C111 C112 1.438 . S
C111 C116 1.428 1_455 S
C112 C111 1.438 . S
C112 C113 1.428 . S
C112 C125 1.394 . S
C113 H105 0.949 . S
C113 C112 1.428 . S
C113 C114 1.345 1_455 S
C114 H106 0.950 . S
C114 C113 1.345 1_655 S
C114 C115 1.424 . S
C115 H107 0.951 . S
C115 C114 1.424 . S
C115 C116 1.347 . S
C116 H108 0.952 . S
C116 C111 1.428 1_655 S
C116 C115 1.347 . S
H117 C118 0.951 . S
C118 H117 0.951 . S
C118 C124 1.265 . S
H119 C124 0.950 . S
H120 C128 0.949 . S
H121 C129 0.950 . S
H122 C130 0.951 . S
H123 C131 0.951 . S
C124 C118 1.265 . S
C124 H119 0.950 . S
C124 C125 1.478 . S
C125 C112 1.394 . S
C125 C124 1.478 . S
C125 C126 1.397 . S
C126 C125 1.397 . S
C126 C127 1.438 . S
C126 C131 1.429 . S
C127 C110 1.394 . S
C127 C126 1.438 . S
C127 C128 1.428 . S
C128 H120 0.949 . S
C128 C127 1.428 . S
C128 C129 1.345 . S
C129 H121 0.950 . S
C129 C128 1.345 . S
C129 C130 1.424 . S
C130 H122 0.951 . S
C130 C129 1.424 . S
C130 C131 1.347 . S
C131 H123 0.951 . S
C131 C126 1.429 . S
C131 C130 1.347 . S
H132 C133 0.951 . S
C133 H132 0.951 . S
C133 C139 1.265 1_455 S
H134 C139 0.950 . S
H135 C143 0.949 . S
H136 C144 0.950 . S
H137 C145 0.951 . S
H138 C146 0.951 . S
C139 C133 1.265 1_655 S
C139 H134 0.950 . S
C139 C140 1.478 . S
C140 C139 1.478 . S
C140 C141 1.397 1_655 S
C140 C157 1.394 1_545 S
C141 C140 1.397 1_455 S
C141 C142 1.438 . S
C141 C146 1.429 . S
C142 C141 1.438 . S
C142 C143 1.428 . S
C142 C155 1.394 . S
C143 H135 0.949 . S
C143 C142 1.428 . S
C143 C144 1.345 . S
C144 H136 0.950 . S
C144 C143 1.345 . S
C144 C145 1.424 . S
C145 H137 0.951 . S
C145 C144 1.424 . S
C145 C146 1.347 . S
C146 H138 0.951 . S
C146 C141 1.429 . S
C146 C145 1.347 . S
H147 C148 0.951 . S
C148 H147 0.951 . S
C148 C154 1.265 1_655 S
H149 C154 0.950 1_565 S
H150 C158 0.949 . S
H151 C159 0.950 . S
H152 C160 0.951 . S
H153 C161 0.951 . S
C154 C148 1.265 1_455 S
C154 H149 0.950 1_545 S
C154 C155 1.478 . S
C155 C142 1.394 . S
C155 C154 1.478 . S
C155 C156 1.397 1_445 S
C156 C155 1.397 1_665 S
C156 C157 1.438 . S
C156 C161 1.429 . S
C157 C140 1.394 1_565 S
C157 C156 1.438 . S
C157 C158 1.428 . S
C158 H150 0.949 . S
C158 C157 1.428 . S
C158 C159 1.345 . S
C159 H151 0.950 . S
C159 C158 1.345 . S
C159 C160 1.424 . S
C160 H152 0.951 . S
C160 C159 1.424 . S
C160 C161 1.347 . S
C161 H153 0.951 . S
C161 C156 1.429 . S
C161 C160 1.347 . S
H162 C163 0.951 . S
C163 H162 0.951 . S
C163 C169 1.265 . S
H164 C169 0.950 . S
H165 C173 0.949 1_655 S
H166 C174 0.950 1_655 S
H167 C175 0.951 . S
H168 C176 0.951 . S
C169 C163 1.265 . S
C169 H164 0.950 . S
C169 C170 1.478 . S
C170 C169 1.478 . S
C170 C171 1.397 . S
C170 C187 1.394 . S
C171 C170 1.397 . S
C171 C172 1.438 . S
C171 C176 1.429 1_545 S
C172 C171 1.438 . S
C172 C173 1.428 1_545 S
C172 C185 1.394 . S
C173 H165 0.949 1_455 S
C173 C172 1.428 1_565 S
C173 C174 1.345 . S
C174 H166 0.950 1_455 S
C174 C173 1.345 . S
C174 C175 1.424 . S
C175 H167 0.951 . S
C175 C174 1.424 . S
C175 C176 1.347 . S
C176 H168 0.951 . S
C176 C171 1.429 1_565 S
C176 C175 1.347 . S
H177 C178 0.951 . S
C178 H177 0.951 . S
C178 C184 1.265 1_455 S
H179 C184 0.950 . S
H180 C188 0.949 . S
H181 C189 0.950 . S
H182 C190 0.951 . S
H183 C191 0.951 . S
C184 C178 1.265 1_655 S
C184 H179 0.950 . S
C184 C185 1.478 1_655 S
C185 C172 1.394 . S
C185 C184 1.478 1_455 S
C185 C186 1.397 . S
C186 C185 1.397 . S
C186 C187 1.438 . S
C186 C191 1.429 . S
C187 C170 1.394 . S
C187 C186 1.438 . S
C187 C188 1.428 . S
C188 H180 0.949 . S
C188 C187 1.428 . S
C188 C189 1.345 . S
C189 H181 0.950 . S
C189 C188 1.345 . S
C189 C190 1.424 . S
C190 H182 0.951 . S
C190 C189 1.424 . S
C190 C191 1.347 . S
C191 H183 0.951 . S
C191 C186 1.429 . S
C191 C190 1.347 . S
H192 C193 0.951 . S
C193 H192 0.951 . S
C193 C199 1.265 . S
H194 C199 0.950 1_655 S
H195 C203 0.949 . S
H196 C204 0.950 . S
H197 C205 0.951 . S
H198 C206 0.951 . S
C199 C193 1.265 . S
C199 H194 0.950 1_455 S
C199 C200 1.478 . S
C200 C199 1.478 . S
C200 C201 1.397 1_445 S
C200 C217 1.394 . S
C201 C200 1.397 1_665 S
C201 C202 1.438 . S
C201 C206 1.429 . S
C202 C201 1.438 . S
C202 C203 1.428 . S
C202 C215 1.394 1_665 S
C203 H195 0.949 . S
C203 C202 1.428 . S
C203 C204 1.345 . S
C204 H196 0.950 . S
C204 C203 1.345 . S
C204 C205 1.424 . S
C205 H197 0.951 . S
C205 C204 1.424 . S
C205 C206 1.347 . S
C206 H198 0.951 . S
C206 C201 1.429 . S
C206 C205 1.347 . S
H207 C208 0.951 1_655 S
C208 H207 0.951 1_455 S
C208 C214 1.265 . S
H209 C214 0.950 . S
H210 C218 0.949 . S
H211 C219 0.950 . S
H212 C220 0.951 . S
H213 C221 0.951 . S
C214 C208 1.265 . S
C214 H209 0.950 . S
C214 C215 1.478 . S
C215 C202 1.394 1_445 S
C215 C214 1.478 . S
C215 C216 1.397 . S
C216 C215 1.397 . S
C216 C217 1.438 . S
C216 C221 1.429 . S
C217 C200 1.394 . S
C217 C216 1.438 . S
C217 C218 1.428 . S
C218 H210 0.949 . S
C218 C217 1.428 . S
C218 C219 1.345 . S
C219 H211 0.950 . S
C219 C218 1.345 . S
C219 C220 1.424 . S
C220 H212 0.951 . S
C220 C219 1.424 . S
C220 C221 1.347 . S
C221 H213 0.951 . S
C221 C216 1.429 . S
C221 C220 1.347 . S
C43 C1 1.497 . S
C58 C0 1.495 . S
C73 C27 1.487 . S
C88 C26 1.487 . S
C103 C41 1.488 . S
C118 C40 1.488 . S
C133 C15 1.508 . S
C148 C12 1.520 1_655 S
C163 C29 1.510 . S
C178 C14 1.501 . S
C193 C28 1.528 . S
C208 C13 1.510 1_545 S
