# Generated by pormake.
# Topology hex, (8)-cn, num edge types: 1
# Building blocks:
#     Node 0, Type 0, BuildingBlock: VETTIZ_charged_sbu_0, # of connection points: 8
#     Edge 1, Type (0, 0), BuildingBlock: XIVTED_clean_linker_0, # of connection points: 2
#     Edge 2, Type (0, 0), BuildingBlock: XIVTED_clean_linker_0, # of connection points: 2
#     Edge 3, Type (0, 0), BuildingBlock: XIVTED_clean_linker_0, # of connection points: 2
#     Edge 4, Type (0, 0), BuildingBlock: XIVTED_clean_linker_0, # of connection points: 2
# Relax obj value: 0.198
# Max RMSD: 0.293
# Mean RMSD: 0.293
data_MOF--net-hex--node1-VETTIZ_charged_sbu_0--edge1-XIVTED_clean_linker_0
_symmetry_space_group_name_H-M    P1
_symmetry_Int_Tables_number       1
_symmetry_cell_setting            triclinic
loop_
_symmetry_equiv_pos_as_xyz
'x, y, z'
_cell_length_a     17.138971
_cell_length_b     16.655369
_cell_length_c     17.864566
_cell_angle_alpha  79.61374
_cell_angle_beta   101.94849
_cell_angle_gamma 123.93337
loop_
_atom_site_label
_atom_site_type_symbol
_atom_site_fract_x
_atom_site_fract_y
_atom_site_fract_z
_atom_type_partial_charge
Fe0 Fe 0.0366 0.88997 0.1339 0.0
O1 O 0.04577 0.99726 0.06336 0.0
Fe2 Fe 0.94659 0.03483 0.05085 0.0
Fe3 Fe 0.05874 1.01102 0.95277 0.0
O4 O 0.04794 1.00592 0.06917 0.0
O5 O 0.95956 0.04859 0.94026 0.0
O6 O 0.9574 0.03992 0.93445 0.0
Fe7 Fe 0.96874 0.15587 0.86972 0.0
C8 C 0.21221 0.9843 0.05475 0.0
O9 O 0.01574 0.81059 0.05027 0.0
O10 O 0.96394 0.86254 0.93933 0.0
O11 O 0.82625 0.08507 0.88333 0.0
O12 O 0.83883 0.05924 0.01619 0.0
O13 O 0.84628 0.89274 0.03675 0.0
O14 O 0.88824 0.81147 0.13094 0.0
O15 O 0.06191 0.03236 0.83318 0.0
O16 O 0.95591 0.07891 0.78572 0.0
C17 C 0.82695 0.81538 0.07813 0.0
O18 O 0.98959 0.23525 0.95335 0.0
O19 O 0.0414 0.18331 0.06429 0.0
O20 O 0.17909 0.96077 0.12029 0.0
O21 O 0.16651 0.9866 0.98743 0.0
C22 C 0.974 0.7976 0.98229 0.0
C23 C 0.007 0.04675 0.77781 0.0
C24 C 0.17839 0.23046 0.9255 0.0
O25 O 0.15906 0.1531 0.96688 0.0
O26 O 0.1171 0.23438 0.87269 0.0
C27 C 0.79313 0.06154 0.94888 0.0
O28 O 0.94343 1.01348 0.17044 0.0
O29 O 0.04943 0.96694 0.21791 0.0
C30 C 0.03134 0.24824 0.02134 0.0
C31 C 0.99834 0.99909 0.22581 0.0
H32 H 0.17479 0.43379 0.99392 0.0
H33 H 0.83055 0.61204 0.00971 0.0
H34 H 0.91761 0.25904 0.0983 0.0
H35 H 0.08773 0.7868 0.90532 0.0
H36 H 0.85594 0.47838 0.03581 0.0
H37 H 0.1494 0.56747 0.96782 0.0
C38 C 0.11587 0.42554 0.01552 0.0
C39 C 0.04926 0.33547 0.04974 0.0
C40 C 0.9057 0.54495 0.00531 0.0
C41 C 0.01571 0.48612 0.01512 0.0
C42 C 0.88947 0.62031 0.98811 0.0
C43 C 0.95608 0.71037 0.95388 0.0
C44 C 0.98963 0.55972 0.98851 0.0
C45 C 0.0333 0.718 0.93007 0.0
C46 C 0.09964 0.5009 0.99832 0.0
C47 C 0.97204 0.32784 0.07355 0.0
N48 N 0.04902 0.64467 0.94918 0.0
N49 N 0.95632 0.40117 0.05444 0.0
H50 H 0.70835 0.15457 0.86661 0.0
H51 H 0.29699 0.89127 0.13702 0.0
H52 H 0.66683 0.92194 0.03996 0.0
H53 H 0.33851 0.1239 0.96367 0.0
H54 H 0.437 0.90512 0.10568 0.0
H55 H 0.56833 0.14072 0.89795 0.0
C56 C 0.66798 0.09885 0.90952 0.0
C57 C 0.69836 0.03939 0.95088 0.0
C58 C 0.41605 0.95397 0.07525 0.0
C59 C 0.54179 0.02505 0.98877 0.0
C60 C 0.33736 0.94699 0.09411 0.0
C61 C 0.30698 1.00646 0.05275 0.0
C62 C 0.46355 1.02079 0.01485 0.0
C63 C 0.36015 0.07663 0.99665 0.0
C64 C 0.58929 0.09187 0.92838 0.0
C65 C 0.64519 0.96922 0.00697 0.0
N66 N 0.43548 0.08131 0.97879 0.0
N67 N 0.56986 0.96453 0.02484 0.0
H68 H 0.32398 0.23572 0.02656 0.0
H69 H 0.68136 0.81012 0.97706 0.0
H70 H 0.25556 0.42392 0.86929 0.0
H71 H 0.74978 0.62192 0.13434 0.0
H72 H 0.52625 0.67062 0.93861 0.0
H73 H 0.47909 0.37523 0.06501 0.0
C74 C 0.34151 0.30637 0.99924 0.0
C75 C 0.27563 0.31726 0.94375 0.0
C76 C 0.57467 0.65944 0.98174 0.0
C77 C 0.45547 0.47937 0.98951 0.0
C78 C 0.66383 0.73947 0.00439 0.0
C79 C 0.72971 0.72858 0.05987 0.0
C80 C 0.54987 0.56648 0.01412 0.0
C81 C 0.70169 0.63438 0.09196 0.0
C82 C 0.43067 0.3864 0.02189 0.0
C83 C 0.30365 0.41146 0.91167 0.0
N84 N 0.61403 0.557 0.06843 0.0
N85 N 0.39131 0.48884 0.9352 0.0
H86 H 0.13621 0.03701 0.71664 0.0
H87 H 0.86913 1.00884 0.28698 0.0
H88 H 0.87063 1.02109 0.65747 0.0
H89 H 0.1347 0.02476 0.34615 0.0
H90 H 0.86976 1.01659 0.42282 0.0
H91 H 0.13557 0.02925 0.58081 0.0
C92 C 0.07743 0.03082 0.67537 0.0
C93 C 0.00399 0.03066 0.69838 0.0
C94 C 0.92799 1.01867 0.40582 0.0
C95 C 0.00319 0.02304 0.54328 0.0
C96 C 0.92791 1.01502 0.32826 0.0
C97 C 1.00135 1.01519 0.30525 0.0
C98 C 1.00215 1.0228 0.46034 0.0
C99 C 0.07576 0.023 0.3613 0.0
C100 C 0.07735 0.02717 0.59781 0.0
C101 C 0.92958 0.02285 0.64232 0.0
N102 N 0.07399 0.02602 0.43614 0.0
N103 N 0.93135 1.01983 0.56749 0.0
loop_
_geom_bond_atom_site_label_1
_geom_bond_atom_site_label_2
_geom_bond_distance
_geom_bond_site_symmetry_2
_ccdc_geom_bond_type
Fe0 O1 1.886 1_554 S
Fe0 O4 1.715 1_455 S
Fe0 O9 2.077 1_455 S
Fe0 O14 1.935 1_455 S
Fe0 O20 2.077 . S
Fe0 O29 1.935 . S
O1 Fe0 1.886 1_556 S
O1 Fe3 1.715 1_565 S
Fe2 O4 1.886 . S
Fe2 O5 1.715 1_565 S
Fe2 O12 1.935 . S
Fe2 O13 2.077 . S
Fe2 O19 1.935 1_565 S
Fe2 O28 2.077 1_565 S
Fe3 O1 1.715 1_545 S
Fe3 O6 1.886 . S
Fe3 O10 1.935 1_545 S
Fe3 O15 2.077 1_545 S
Fe3 O21 1.935 . S
Fe3 O25 2.077 . S
O4 Fe0 1.715 1_655 S
O4 Fe2 1.886 . S
O5 Fe2 1.715 1_545 S
O5 Fe7 1.886 1_554 S
O6 Fe3 1.886 . S
O6 Fe7 1.715 1_455 S
Fe7 O5 1.886 1_556 S
Fe7 O6 1.715 1_655 S
Fe7 O11 2.077 . S
Fe7 O16 1.935 . S
Fe7 O18 2.077 1_655 S
Fe7 O26 1.935 1_655 S
C8 O20 1.381 . S
C8 O21 1.421 1_564 S
O9 Fe0 2.077 1_655 S
O9 C22 1.381 1_654 S
O10 Fe3 1.935 1_565 S
O10 C22 1.421 . S
O11 Fe7 2.077 . S
O11 C27 1.381 . S
O12 Fe2 1.935 . S
O12 C27 1.421 1_564 S
O13 Fe2 2.077 . S
O13 C17 1.381 . S
O14 Fe0 1.935 1_655 S
O14 C17 1.421 . S
O15 Fe3 2.077 1_565 S
O15 C23 1.381 1_565 S
O16 Fe7 1.935 . S
O16 C23 1.421 1_655 S
C17 O13 1.381 . S
C17 O14 1.421 . S
O18 Fe7 2.077 1_455 S
O18 C30 1.381 1_456 S
O19 Fe2 1.935 1_545 S
O19 C30 1.421 . S
O20 Fe0 2.077 . S
O20 C8 1.381 . S
O21 Fe3 1.935 . S
O21 C8 1.421 1_546 S
C22 O9 1.381 1_456 S
C22 O10 1.421 . S
C23 O15 1.381 1_545 S
C23 O16 1.421 1_455 S
C24 O25 1.381 . S
C24 O26 1.421 . S
O25 Fe3 2.077 . S
O25 C24 1.381 . S
O26 Fe7 1.935 1_455 S
O26 C24 1.421 . S
C27 O11 1.381 . S
C27 O12 1.421 1_546 S
O28 Fe2 2.077 1_545 S
O28 C31 1.381 1_545 S
O29 Fe0 1.935 . S
O29 C31 1.421 1_455 S
C30 O18 1.381 1_654 S
C30 O19 1.421 . S
C31 O28 1.381 1_565 S
C31 O29 1.421 1_655 S
H32 C38 0.930 . S
H33 C42 0.930 . S
H34 C47 0.929 . S
H35 C45 0.929 . S
H36 C40 0.929 . S
H37 C46 0.929 . S
C38 H32 0.930 . S
C38 C39 1.367 . S
C38 C46 1.378 . S
C39 C38 1.367 . S
C39 C47 1.433 1_455 S
C40 H36 0.929 . S
C40 C42 1.378 . S
C40 C44 1.350 . S
C41 C44 1.463 1_454 S
C41 C46 1.350 . S
C41 N49 1.427 1_454 S
C42 H33 0.930 . S
C42 C40 1.378 . S
C42 C43 1.367 . S
C43 C42 1.367 . S
C43 C45 1.433 1_655 S
C44 C40 1.350 . S
C44 C41 1.463 1_656 S
C44 N48 1.427 1_656 S
C45 H35 0.929 . S
C45 C43 1.433 1_455 S
C45 N48 1.384 1_556 S
C46 H37 0.929 . S
C46 C38 1.378 . S
C46 C41 1.350 . S
C47 H34 0.929 . S
C47 C39 1.433 1_655 S
C47 N49 1.384 1_554 S
N48 C44 1.427 1_454 S
N48 C45 1.384 1_554 S
N49 C41 1.427 1_656 S
N49 C47 1.384 1_556 S
H50 C56 0.930 . S
H51 C60 0.930 . S
H52 C65 0.929 . S
H53 C63 0.929 . S
H54 C58 0.929 . S
H55 C64 0.929 . S
C56 H50 0.930 . S
C56 C57 1.367 . S
C56 C64 1.378 . S
C57 C56 1.367 . S
C57 C65 1.433 1_545 S
C58 H54 0.929 . S
C58 C60 1.378 . S
C58 C62 1.350 . S
C59 C62 1.463 1_546 S
C59 C64 1.350 . S
C59 N67 1.427 1_545 S
C60 H51 0.930 . S
C60 C58 1.378 . S
C60 C61 1.367 . S
C61 C60 1.367 . S
C61 C63 1.433 1_565 S
C62 C58 1.350 . S
C62 C59 1.463 1_564 S
C62 N66 1.427 1_565 S
C63 H53 0.929 . S
C63 C61 1.433 1_545 S
C63 N66 1.384 . S
C64 H55 0.929 . S
C64 C56 1.378 . S
C64 C59 1.350 . S
C65 H52 0.929 . S
C65 C57 1.433 1_565 S
C65 N67 1.384 . S
N66 C62 1.427 1_545 S
N66 C63 1.384 . S
N67 C59 1.427 1_565 S
N67 C65 1.384 . S
H68 C74 0.930 . S
H69 C78 0.930 . S
H70 C83 0.929 . S
H71 C81 0.929 . S
H72 C76 0.929 . S
H73 C82 0.929 . S
C74 H68 0.930 . S
C74 C75 1.367 1_554 S
C74 C82 1.378 . S
C75 C74 1.367 1_556 S
C75 C83 1.433 . S
C76 H72 0.929 . S
C76 C78 1.378 . S
C76 C80 1.350 1_556 S
C77 C80 1.463 1_556 S
C77 C82 1.350 1_556 S
C77 N85 1.427 . S
C78 H69 0.930 . S
C78 C76 1.378 . S
C78 C79 1.367 1_556 S
C79 C78 1.367 1_554 S
C79 C81 1.433 . S
C80 C76 1.350 1_554 S
C80 C77 1.463 1_554 S
C80 N84 1.427 . S
C81 H71 0.929 . S
C81 C79 1.433 . S
C81 N84 1.384 . S
C82 H73 0.929 . S
C82 C74 1.378 . S
C82 C77 1.350 1_554 S
C83 H70 0.929 . S
C83 C75 1.433 . S
C83 N85 1.384 . S
N84 C80 1.427 . S
N84 C81 1.384 . S
N85 C77 1.427 . S
N85 C83 1.384 . S
H86 C92 0.930 . S
H87 C96 0.930 . S
H88 C101 0.929 . S
H89 C99 0.929 . S
H90 C94 0.929 . S
H91 C100 0.929 . S
C92 H86 0.930 . S
C92 C93 1.367 . S
C92 C100 1.378 . S
C93 C92 1.367 . S
C93 C101 1.433 1_445 S
C94 H90 0.929 . S
C94 C96 1.378 . S
C94 C98 1.350 . S
C95 C98 1.463 1_445 S
C95 C100 1.350 . S
C95 N103 1.427 1_445 S
C96 H87 0.930 . S
C96 C94 1.378 . S
C96 C97 1.367 . S
C97 C96 1.367 . S
C97 C99 1.433 1_665 S
C98 C94 1.350 . S
C98 C95 1.463 1_665 S
C98 N102 1.427 1_665 S
C99 H89 0.929 . S
C99 C97 1.433 1_445 S
C99 N102 1.384 . S
C100 H91 0.929 . S
C100 C92 1.378 . S
C100 C95 1.350 . S
C101 H88 0.929 . S
C101 C93 1.433 1_665 S
C101 N103 1.384 . S
N102 C98 1.427 1_445 S
N102 C99 1.384 . S
N103 C95 1.427 1_665 S
N103 C101 1.384 . S
C39 C30 1.504 1_455 S
C43 C22 1.504 1_655 S
C57 C27 1.444 . S
C61 C8 1.444 . S
C75 C24 1.599 . S
C79 C17 1.599 . S
C93 C23 1.445 . S
C97 C31 1.445 . S
