# Generated by pormake.
# Topology eci, (8)-cn, num edge types: 1
# Building blocks:
#     Node 0, Type 0, BuildingBlock: TAGTUT_clean_sbu_1, # of connection points: 8
#     Node 1, Type 0, BuildingBlock: TAGTUT_clean_sbu_1, # of connection points: 8
#     Node 2, Type 0, BuildingBlock: TAGTUT_clean_sbu_1, # of connection points: 8
#     Node 3, Type 0, BuildingBlock: TAGTUT_clean_sbu_1, # of connection points: 8
#     Edge 4, Type (0, 0), BuildingBlock: EYOCIG_clean_linker_4, # of connection points: 2
#     Edge 5, Type (0, 0), BuildingBlock: EYOCIG_clean_linker_4, # of connection points: 2
#     Edge 6, Type (0, 0), BuildingBlock: EYOCIG_clean_linker_4, # of connection points: 2
#     Edge 7, Type (0, 0), BuildingBlock: EYOCIG_clean_linker_4, # of connection points: 2
#     Edge 8, Type (0, 0), BuildingBlock: EYOCIG_clean_linker_4, # of connection points: 2
#     Edge 9, Type (0, 0), BuildingBlock: EYOCIG_clean_linker_4, # of connection points: 2
#     Edge 10, Type (0, 0), BuildingBlock: EYOCIG_clean_linker_4, # of connection points: 2
#     Edge 11, Type (0, 0), BuildingBlock: EYOCIG_clean_linker_4, # of connection points: 2
#     Edge 12, Type (0, 0), BuildingBlock: EYOCIG_clean_linker_4, # of connection points: 2
#     Edge 13, Type (0, 0), BuildingBlock: EYOCIG_clean_linker_4, # of connection points: 2
#     Edge 14, Type (0, 0), BuildingBlock: EYOCIG_clean_linker_4, # of connection points: 2
#     Edge 15, Type (0, 0), BuildingBlock: EYOCIG_clean_linker_4, # of connection points: 2
#     Edge 16, Type (0, 0), BuildingBlock: EYOCIG_clean_linker_4, # of connection points: 2
#     Edge 17, Type (0, 0), BuildingBlock: EYOCIG_clean_linker_4, # of connection points: 2
#     Edge 18, Type (0, 0), BuildingBlock: EYOCIG_clean_linker_4, # of connection points: 2
#     Edge 19, Type (0, 0), BuildingBlock: EYOCIG_clean_linker_4, # of connection points: 2
# Relax obj value: 0.214
# Max RMSD: 0.270
# Mean RMSD: 0.259
data_MOF--net-eci--node1-TAGTUT_clean_sbu_1--edge1-EYOCIG_clean_linker_4
_symmetry_space_group_name_H-M    P1
_symmetry_Int_Tables_number       1
_symmetry_cell_setting            triclinic
loop_
_symmetry_equiv_pos_as_xyz
'x, y, z'
_cell_length_a     23.728141
_cell_length_b     24.950973
_cell_length_c     15.90901
_cell_angle_alpha  95.94037
_cell_angle_beta   93.825428
_cell_angle_gamma 91.016271
loop_
_atom_site_label
_atom_site_type_symbol
_atom_site_fract_x
_atom_site_fract_y
_atom_site_fract_z
_atom_type_partial_charge
C0 C 0.76147 0.67516 0.15376 0.0
C1 C 0.83565 0.81981 0.27509 0.0
C2 C 0.72829 0.91377 0.01539 0.0
Mg3 Mg 0.8651 0.74572 0.11947 0.0
O4 O 0.8061 0.7708 0.05089 0.0
Mg5 Mg 0.73807 0.80031 0.10918 0.0
Mg6 Mg 0.82325 0.83201 -0.01162 0.0
O7 O 0.8391 0.89307 0.92382 0.0
Mg8 Mg 0.77934 0.91839 0.8555 0.0
Mg9 Mg 0.91314 0.87545 0.87762 0.0
C10 C 0.93994 0.76144 0.96047 0.0
C11 C 0.9372 0.89382 0.07912 0.0
O12 O 0.72784 0.71444 0.14707 0.0
O13 O 0.8146 0.67789 0.14385 0.0
O14 O 0.78707 0.82351 0.23738 0.0
O15 O 0.87586 0.79576 0.23898 0.0
O16 O 0.93341 0.74236 0.03139 0.0
O17 O 0.90083 0.78861 0.92401 0.0
C18 C 0.6979 0.77952 0.91074 0.0
O19 O 0.74648 0.79586 0.88896 0.0
O20 O 0.68788 0.7783 -0.01218 0.0
O21 O 0.91071 0.96519 0.85283 0.0
O22 O 0.82099 0.9936 0.86392 0.0
O23 O 0.87419 0.85389 0.74101 0.0
C24 C 0.87368 0.00232 0.85789 0.0
O25 O 0.78555 0.88274 0.72724 0.0
O26 O 0.7145 0.89767 0.93813 0.0
C27 C 0.82895 0.86132 0.69599 0.0
O28 O 0.75696 0.88278 0.06033 0.0
O29 O 0.89132 0.86851 0.08948 0.0
O30 O 0.95307 0.90083 0.00642 0.0
C31 C 0.72881 0.17412 0.04969 0.0
C32 C 0.65335 0.31414 0.94792 0.0
C33 C 0.75313 0.42613 0.23316 0.0
Mg34 Mg 0.62594 0.24329 0.08816 0.0
O35 O 0.68385 0.27395 0.16615 0.0
Mg36 Mg 0.74994 0.30562 0.11582 0.0
Mg37 Mg 0.66349 0.33693 0.24167 0.0
O38 O 0.64058 0.40077 0.31838 0.0
Mg39 Mg 0.69336 0.43863 0.39816 0.0
Mg40 Mg 0.56881 0.37258 0.35824 0.0
C41 C 0.55645 0.25979 0.25387 0.0
C42 C 0.54679 0.37377 0.15497 0.0
O43 O 0.7621 0.21594 0.06291 0.0
O44 O 0.67538 0.17554 0.05594 0.0
O45 O 0.70167 0.32183 -0.01177 0.0
O46 O 0.6138 0.28802 0.97748 0.0
O47 O 0.55995 0.24012 0.17665 0.0
O48 O 0.59539 0.28883 0.29644 0.0
C49 C 0.78376 0.2978 0.31471 0.0
O50 O 0.73532 0.31404 0.33636 0.0
O51 O 0.79674 0.29222 0.23801 0.0
O52 O 0.55638 0.46174 0.40452 0.0
O53 O 0.64002 0.50746 0.40583 0.0
O54 O 0.60675 0.36072 0.49367 0.0
C55 C 0.58644 0.50558 0.41201 0.0
O56 O 0.6904 0.40362 0.51916 0.0
O57 O 0.76134 0.42019 0.31196 0.0
C58 C 0.65003 0.37556 0.54323 0.0
O59 O 0.72656 0.38944 0.18272 0.0
O60 O 0.59632 0.35701 0.14548 0.0
O61 O 0.52742 0.38407 0.22762 0.0
C62 C 0.29138 0.23102 0.30044 0.0
C63 C 0.14342 0.15401 0.17806 0.0
C64 C 0.04324 0.26495 0.4484 0.0
Mg65 Mg 0.22031 0.13172 0.33177 0.0
O66 O 0.19299 0.18976 0.40206 0.0
Mg67 Mg 0.15855 0.25113 0.34504 0.0
Mg68 Mg 0.12995 0.17278 0.46716 0.0
O69 O 0.06734 0.15459 0.53345 0.0
Mg70 Mg 0.03615 0.20881 0.60368 0.0
Mg71 Mg 0.08765 0.08506 0.57602 0.0
C72 C 0.20454 0.06377 0.48938 0.0
C73 C 0.07394 0.05932 0.37431 0.0
O74 O 0.24864 0.26172 0.3051 0.0
O75 O 0.29022 0.18064 0.3096 0.0
O76 O 0.1365 0.20029 0.2174 0.0
O77 O 0.1709 0.11763 0.21221 0.0
O78 O 0.22443 0.06769 0.41705 0.0
O79 O 0.17751 0.10223 0.52804 0.0
C80 C 0.17884 0.29639 0.54268 0.0
O81 O 0.16414 0.24996 0.56571 0.0
O82 O 0.17979 0.30374 0.46504 0.0
O83 O -0.00746 0.08479 0.60511 0.0
O84 O 0.95855 0.16654 0.58199 0.0
O85 O 0.10919 0.12141 0.71248 0.0
C86 C 0.95147 0.11723 0.59382 0.0
O87 O 0.07012 0.20214 0.73287 0.0
O88 O 0.05635 0.27326 0.52776 0.0
C89 C 0.09686 0.1629 0.76065 0.0
O90 O 0.07257 0.23281 0.40124 0.0
O91 O 0.09735 0.10464 0.36526 0.0
O92 O 0.06512 0.04476 0.4464 0.0
C93 C 0.24126 0.81066 0.5737 0.0
C94 C 0.31684 0.66918 0.45671 0.0
C95 C 0.21813 0.55595 0.70023 0.0
Mg96 Mg 0.34429 0.74468 0.61954 0.0
O97 O 0.28913 0.71267 0.68054 0.0
Mg98 Mg 0.22243 0.67754 0.61134 0.0
Mg99 Mg 0.31287 0.65256 0.74408 0.0
O100 O 0.33978 0.59257 0.80726 0.0
Mg101 Mg 0.29017 0.55548 0.8686 0.0
Mg102 Mg 0.41406 0.62102 0.86313 0.0
C103 C 0.42855 0.73259 0.78097 0.0
C104 C 0.42669 0.61337 0.66094 0.0
O105 O 0.20927 0.76795 0.57362 0.0
O106 O 0.29462 0.81119 0.59158 0.0
O107 O 0.26979 0.65842 0.48695 0.0
O108 O 0.35489 0.69882 0.49959 0.0
O109 O 0.41748 0.75185 0.71025 0.0
O110 O 0.39142 0.70443 0.81545 0.0
C111 C 0.18926 0.69491 0.80799 0.0
O112 O 0.23886 0.68026 0.83498 0.0
O113 O 0.17589 0.69613 0.72933 0.0
O114 O 0.42661 0.53307 0.89394 0.0
O115 O 0.34283 0.48706 0.87509 0.0
O116 O 0.37796 0.63746 -0.00282 0.0
C117 C 0.39648 0.48947 0.89095 0.0
O118 O 0.29404 0.59482 -0.00362 0.0
O119 O 0.21532 0.56017 0.78077 0.0
C120 C 0.33476 0.62351 0.03488 0.0
O121 O 0.24637 0.59186 0.66492 0.0
O122 O 0.37649 0.62938 0.65069 0.0
O123 O 0.44967 0.60489 0.73318 0.0
C124 C 0.83953 0.84254 0.44116 0.0
C125 C 0.84018 0.83162 0.36558 0.0
C126 C 0.83471 0.84886 0.52972 0.0
C127 C 0.83124 0.8548 0.60545 0.0
C128 C 0.64783 0.35481 0.70462 0.0
C129 C 0.64991 0.36479 0.6315 0.0
C130 C 0.64539 0.34253 0.79031 0.0
C131 C 0.64678 0.32888 0.86172 0.0
C132 C 0.11225 0.15524 0.92527 0.0
C133 C 0.1046 0.16016 0.85063 0.0
C134 C 0.12018 0.14898 0.01272 0.0
C135 C 0.13166 0.14826 0.08769 0.0
C136 C 0.33317 0.6403 0.20254 0.0
C137 C 0.33551 0.63353 0.12625 0.0
C138 C 0.32887 0.6468 0.29186 0.0
C139 C 0.3227 0.65666 0.3669 0.0
C140 C 0.53937 0.7433 0.82123 0.0
C141 C 0.48824 0.73552 0.81068 0.0
C142 C 0.59924 0.75477 0.83098 0.0
C143 C 0.64869 0.76657 0.85227 0.0
C144 C 0.758 0.07383 0.03485 0.0
C145 C 0.75202 0.12173 0.04057 0.0
C146 C 0.75344 0.01753 0.03412 0.0
C147 C 0.74364 0.96984 0.03032 0.0
C148 C 0.39445 0.26455 0.2973 0.0
C149 C 0.34521 0.25499 0.29767 0.0
C150 C 0.45275 0.26599 0.29522 0.0
C151 C 0.50144 0.26493 0.28164 0.0
C152 C 0.20864 0.90829 0.54561 0.0
C153 C 0.21764 0.86177 0.5568 0.0
C154 C 0.20468 0.96389 0.5333 0.0
C155 C 0.20297 0.01045 0.51768 0.0
C156 C 0.04328 0.74197 0.90843 0.0
C157 C -0.00484 0.75329 0.92588 0.0
C158 C 0.09937 0.72562 0.8893 0.0
C159 C 0.1446 0.71081 0.86363 0.0
C160 C 0.73327 0.5251 0.20056 0.0
C161 C 0.74208 0.47963 0.21447 0.0
C162 C 0.73075 0.57914 0.18503 0.0
C163 C 0.73908 0.62472 0.17122 0.0
C164 C 0.87504 0.27919 0.40355 0.0
C165 C 0.82831 0.28887 0.37602 0.0
C166 C 0.93338 0.27089 0.41707 0.0
C167 C -0.01617 0.26663 0.42633 0.0
C168 C 0.19772 0.39341 0.62524 0.0
C169 C 0.18875 0.34563 0.60055 0.0
C170 C 0.20626 0.45113 0.64294 0.0
C171 C 0.2132 0.49991 0.66124 0.0
C172 C 0.03237 0.98879 0.25236 0.0
C173 C 0.05332 0.02395 0.30246 0.0
C174 C 0.0002 0.94966 0.19919 0.0
C175 C 0.96869 0.92228 0.14965 0.0
C176 C 0.52681 0.58393 0.47287 0.0
C177 C 0.55982 0.55322 0.44297 0.0
C178 C 0.48832 0.60277 0.53059 0.0
C179 C 0.45903 0.608 0.58896 0.0
C180 C 0.87779 0.09619 0.69082 0.0
C181 C 0.90087 0.10713 0.63085 0.0
C182 C 0.87818 0.08045 0.77159 0.0
C183 C 0.88617 0.04996 0.82329 0.0
C184 C 0.4843 0.38992 0.01861 0.0
C185 C 0.51285 0.38254 0.08102 0.0
C186 C 0.45075 0.41234 0.95658 0.0
C187 C 0.42213 0.44466 0.92463 0.0
loop_
_geom_bond_atom_site_label_1
_geom_bond_atom_site_label_2
_geom_bond_distance
_geom_bond_site_symmetry_2
_ccdc_geom_bond_type
C0 O12 1.241 . S
C0 O13 1.280 . S
C1 O14 1.277 . S
C1 O15 1.245 . S
C2 O26 1.247 1_554 S
C2 O28 1.289 . S
Mg3 O4 1.926 . S
Mg3 O13 1.984 . S
Mg3 O15 1.988 . S
Mg3 O16 2.061 . S
O4 Mg3 1.926 . S
O4 Mg5 1.986 . S
O4 Mg6 1.917 . S
Mg5 O4 1.986 . S
Mg5 O12 2.042 . S
Mg5 O14 2.041 . S
Mg5 O20 2.038 . S
Mg5 O28 2.238 . S
Mg6 O4 1.917 . S
Mg6 O7 1.917 1_554 S
Mg6 O17 2.106 1_554 S
Mg6 O19 2.079 1_554 S
Mg6 O28 2.106 . S
Mg6 O29 2.079 . S
O7 Mg6 1.917 1_556 S
O7 Mg8 1.926 . S
O7 Mg9 1.986 . S
Mg8 O7 1.926 . S
Mg8 O22 1.970 1_565 S
Mg8 O25 1.988 . S
Mg8 O26 2.061 . S
Mg9 O7 1.986 . S
Mg9 O17 2.238 . S
Mg9 O21 2.042 . S
Mg9 O23 2.041 . S
Mg9 O30 2.038 1_556 S
C10 O16 1.247 1_556 S
C10 O17 1.289 . S
C11 O29 1.245 . S
C11 O30 1.274 . S
O12 C0 1.241 . S
O12 Mg5 2.042 . S
O13 C0 1.280 . S
O13 Mg3 1.984 . S
O14 C1 1.277 . S
O14 Mg5 2.041 . S
O15 C1 1.245 . S
O15 Mg3 1.988 . S
O16 Mg3 2.061 . S
O16 C10 1.247 1_554 S
O17 Mg6 2.106 1_556 S
O17 Mg9 2.238 . S
O17 C10 1.289 . S
C18 O19 1.245 . S
C18 O20 1.274 1_556 S
O19 Mg6 2.079 1_556 S
O19 C18 1.245 . S
O20 Mg5 2.038 . S
O20 C18 1.274 1_554 S
O21 Mg9 2.042 . S
O21 C24 1.241 1_565 S
O22 Mg8 1.970 1_545 S
O22 C24 1.280 . S
O23 Mg9 2.041 . S
O23 C27 1.277 . S
C24 O21 1.241 1_545 S
C24 O22 1.280 . S
O25 Mg8 1.988 . S
O25 C27 1.245 . S
O26 C2 1.247 1_556 S
O26 Mg8 2.061 . S
C27 O23 1.277 . S
C27 O25 1.245 . S
O28 C2 1.289 . S
O28 Mg5 2.238 . S
O28 Mg6 2.106 . S
O29 Mg6 2.079 . S
O29 C11 1.245 . S
O30 Mg9 2.038 1_554 S
O30 C11 1.274 . S
C31 O43 1.241 . S
C31 O44 1.280 . S
C32 O45 1.277 1_556 S
C32 O46 1.245 1_556 S
C33 O57 1.247 . S
C33 O59 1.289 . S
Mg34 O35 1.926 . S
Mg34 O44 1.984 . S
Mg34 O46 1.988 . S
Mg34 O47 2.061 . S
O35 Mg34 1.926 . S
O35 Mg36 1.986 . S
O35 Mg37 1.917 . S
Mg36 O35 1.986 . S
Mg36 O43 2.042 . S
Mg36 O45 2.041 . S
Mg36 O51 2.038 . S
Mg36 O59 2.238 . S
Mg37 O35 1.917 . S
Mg37 O38 1.917 . S
Mg37 O48 2.106 . S
Mg37 O50 2.079 . S
Mg37 O59 2.106 . S
Mg37 O60 2.079 . S
O38 Mg37 1.917 . S
O38 Mg39 1.926 . S
O38 Mg40 1.986 . S
Mg39 O38 1.926 . S
Mg39 O53 1.984 . S
Mg39 O56 1.988 . S
Mg39 O57 2.061 . S
Mg40 O38 1.986 . S
Mg40 O48 2.238 . S
Mg40 O52 2.042 . S
Mg40 O54 2.041 . S
Mg40 O61 2.038 . S
C41 O47 1.247 . S
C41 O48 1.289 . S
C42 O60 1.245 . S
C42 O61 1.274 . S
O43 C31 1.241 . S
O43 Mg36 2.042 . S
O44 C31 1.280 . S
O44 Mg34 1.984 . S
O45 C32 1.277 1_554 S
O45 Mg36 2.041 . S
O46 C32 1.245 1_554 S
O46 Mg34 1.988 . S
O47 Mg34 2.061 . S
O47 C41 1.247 . S
O48 Mg37 2.106 . S
O48 Mg40 2.238 . S
O48 C41 1.289 . S
C49 O50 1.245 . S
C49 O51 1.274 . S
O50 Mg37 2.079 . S
O50 C49 1.245 . S
O51 Mg36 2.038 . S
O51 C49 1.274 . S
O52 Mg40 2.042 . S
O52 C55 1.241 . S
O53 Mg39 1.984 . S
O53 C55 1.280 . S
O54 Mg40 2.041 . S
O54 C58 1.277 . S
C55 O52 1.241 . S
C55 O53 1.280 . S
O56 Mg39 1.988 . S
O56 C58 1.245 . S
O57 C33 1.247 . S
O57 Mg39 2.061 . S
C58 O54 1.277 . S
C58 O56 1.245 . S
O59 C33 1.289 . S
O59 Mg36 2.238 . S
O59 Mg37 2.106 . S
O60 Mg37 2.079 . S
O60 C42 1.245 . S
O61 Mg40 2.038 . S
O61 C42 1.274 . S
C62 O74 1.241 . S
C62 O75 1.280 . S
C63 O76 1.277 . S
C63 O77 1.245 . S
C64 O88 1.247 . S
C64 O90 1.289 . S
Mg65 O66 1.926 . S
Mg65 O75 1.984 . S
Mg65 O77 1.988 . S
Mg65 O78 2.061 . S
O66 Mg65 1.926 . S
O66 Mg67 1.986 . S
O66 Mg68 1.917 . S
Mg67 O66 1.986 . S
Mg67 O74 2.042 . S
Mg67 O76 2.041 . S
Mg67 O82 2.038 . S
Mg67 O90 2.238 . S
Mg68 O66 1.917 . S
Mg68 O69 1.917 . S
Mg68 O79 2.106 . S
Mg68 O81 2.079 . S
Mg68 O90 2.106 . S
Mg68 O91 2.079 . S
O69 Mg68 1.917 . S
O69 Mg70 1.926 . S
O69 Mg71 1.986 . S
Mg70 O69 1.926 . S
Mg70 O84 1.984 1_455 S
Mg70 O87 1.988 . S
Mg70 O88 2.061 . S
Mg71 O69 1.986 . S
Mg71 O79 2.238 . S
Mg71 O83 2.042 . S
Mg71 O85 2.041 . S
Mg71 O92 2.038 . S
C72 O78 1.247 . S
C72 O79 1.289 . S
C73 O91 1.245 . S
C73 O92 1.274 . S
O74 C62 1.241 . S
O74 Mg67 2.042 . S
O75 C62 1.280 . S
O75 Mg65 1.984 . S
O76 C63 1.277 . S
O76 Mg67 2.041 . S
O77 C63 1.245 . S
O77 Mg65 1.988 . S
O78 Mg65 2.061 . S
O78 C72 1.247 . S
O79 Mg68 2.106 . S
O79 Mg71 2.238 . S
O79 C72 1.289 . S
C80 O81 1.245 . S
C80 O82 1.274 . S
O81 Mg68 2.079 . S
O81 C80 1.245 . S
O82 Mg67 2.038 . S
O82 C80 1.274 . S
O83 Mg71 2.042 . S
O83 C86 1.241 1_455 S
O84 Mg70 1.984 1_655 S
O84 C86 1.280 . S
O85 Mg71 2.041 . S
O85 C89 1.277 . S
C86 O83 1.241 1_655 S
C86 O84 1.280 . S
O87 Mg70 1.988 . S
O87 C89 1.245 . S
O88 C64 1.247 . S
O88 Mg70 2.061 . S
C89 O85 1.277 . S
C89 O87 1.245 . S
O90 C64 1.289 . S
O90 Mg67 2.238 . S
O90 Mg68 2.106 . S
O91 Mg68 2.079 . S
O91 C73 1.245 . S
O92 Mg71 2.038 . S
O92 C73 1.274 . S
C93 O105 1.241 . S
C93 O106 1.280 . S
C94 O107 1.277 . S
C94 O108 1.245 . S
C95 O119 1.247 . S
C95 O121 1.289 . S
Mg96 O97 1.926 . S
Mg96 O106 1.984 . S
Mg96 O108 1.988 . S
Mg96 O109 2.061 . S
O97 Mg96 1.926 . S
O97 Mg98 1.986 . S
O97 Mg99 1.917 . S
Mg98 O97 1.986 . S
Mg98 O105 2.042 . S
Mg98 O107 2.041 . S
Mg98 O113 2.038 . S
Mg98 O121 2.238 . S
Mg99 O97 1.917 . S
Mg99 O100 1.917 . S
Mg99 O110 2.106 . S
Mg99 O112 2.079 . S
Mg99 O121 2.106 . S
Mg99 O122 2.079 . S
O100 Mg99 1.917 . S
O100 Mg101 1.926 . S
O100 Mg102 1.986 . S
Mg101 O100 1.926 . S
Mg101 O115 1.984 . S
Mg101 O118 1.988 1_556 S
Mg101 O119 2.061 . S
Mg102 O100 1.986 . S
Mg102 O110 2.238 . S
Mg102 O114 2.042 . S
Mg102 O116 2.041 1_556 S
Mg102 O123 2.038 . S
C103 O109 1.247 . S
C103 O110 1.289 . S
C104 O122 1.245 . S
C104 O123 1.274 . S
O105 C93 1.241 . S
O105 Mg98 2.042 . S
O106 C93 1.280 . S
O106 Mg96 1.984 . S
O107 C94 1.277 . S
O107 Mg98 2.041 . S
O108 C94 1.245 . S
O108 Mg96 1.988 . S
O109 Mg96 2.061 . S
O109 C103 1.247 . S
O110 Mg99 2.106 . S
O110 Mg102 2.238 . S
O110 C103 1.289 . S
C111 O112 1.245 . S
C111 O113 1.274 . S
O112 Mg99 2.079 . S
O112 C111 1.245 . S
O113 Mg98 2.038 . S
O113 C111 1.274 . S
O114 Mg102 2.042 . S
O114 C117 1.241 . S
O115 Mg101 1.984 . S
O115 C117 1.280 . S
O116 Mg102 2.041 1_554 S
O116 C120 1.277 . S
C117 O114 1.241 . S
C117 O115 1.280 . S
O118 Mg101 1.988 1_554 S
O118 C120 1.245 . S
O119 C95 1.247 . S
O119 Mg101 2.061 . S
C120 O116 1.277 . S
C120 O118 1.245 . S
O121 C95 1.289 . S
O121 Mg98 2.238 . S
O121 Mg99 2.106 . S
O122 Mg99 2.079 . S
O122 C104 1.245 . S
O123 Mg102 2.038 . S
O123 C104 1.274 . S
C124 C125 1.170 . S
C124 C126 1.380 . S
C125 C124 1.170 . S
C126 C124 1.380 . S
C126 C127 1.170 . S
C127 C126 1.170 . S
C128 C129 1.170 . S
C128 C130 1.380 . S
C129 C128 1.170 . S
C130 C128 1.380 . S
C130 C131 1.170 . S
C131 C130 1.170 . S
C132 C133 1.170 . S
C132 C134 1.380 1_556 S
C133 C132 1.170 . S
C134 C132 1.380 1_554 S
C134 C135 1.170 . S
C135 C134 1.170 . S
C136 C137 1.170 . S
C136 C138 1.380 . S
C137 C136 1.170 . S
C138 C136 1.380 . S
C138 C139 1.170 . S
C139 C138 1.170 . S
C140 C141 1.170 . S
C140 C142 1.380 . S
C141 C140 1.170 . S
C142 C140 1.380 . S
C142 C143 1.170 . S
C143 C142 1.170 . S
C144 C145 1.170 . S
C144 C146 1.380 . S
C145 C144 1.170 . S
C146 C144 1.380 . S
C146 C147 1.170 1_545 S
C147 C146 1.170 1_565 S
C148 C149 1.170 . S
C148 C150 1.380 . S
C149 C148 1.170 . S
C150 C148 1.380 . S
C150 C151 1.170 . S
C151 C150 1.170 . S
C152 C153 1.170 . S
C152 C154 1.380 . S
C153 C152 1.170 . S
C154 C152 1.380 . S
C154 C155 1.170 1_565 S
C155 C154 1.170 1_545 S
C156 C157 1.170 . S
C156 C158 1.380 . S
C157 C156 1.170 . S
C158 C156 1.380 . S
C158 C159 1.170 . S
C159 C158 1.170 . S
C160 C161 1.170 . S
C160 C162 1.380 . S
C161 C160 1.170 . S
C162 C160 1.380 . S
C162 C163 1.170 . S
C163 C162 1.170 . S
C164 C165 1.170 . S
C164 C166 1.380 . S
C165 C164 1.170 . S
C166 C164 1.380 . S
C166 C167 1.170 . S
C167 C166 1.170 . S
C168 C169 1.170 . S
C168 C170 1.380 . S
C169 C168 1.170 . S
C170 C168 1.380 . S
C170 C171 1.170 . S
C171 C170 1.170 . S
C172 C173 1.170 1_565 S
C172 C174 1.380 . S
C173 C172 1.170 1_545 S
C174 C172 1.380 . S
C174 C175 1.170 1_455 S
C175 C174 1.170 1_655 S
C176 C177 1.170 . S
C176 C178 1.380 . S
C177 C176 1.170 . S
C178 C176 1.380 . S
C178 C179 1.170 . S
C179 C178 1.170 . S
C180 C181 1.170 . S
C180 C182 1.380 . S
C181 C180 1.170 . S
C182 C180 1.380 . S
C182 C183 1.170 . S
C183 C182 1.170 . S
C184 C185 1.170 . S
C184 C186 1.376 1_554 S
C185 C184 1.170 . S
C186 C184 1.376 1_556 S
C186 C187 1.174 . S
C187 C186 1.174 . S
C125 C1 1.450 . S
C127 C27 1.481 . S
C129 C58 1.487 . S
C131 C32 1.517 . S
C133 C89 1.491 . S
C135 C63 1.461 . S
C137 C120 1.507 . S
C139 C94 1.507 . S
C141 C103 1.663 . S
C143 C18 1.745 . S
C145 C31 1.470 . S
C147 C2 1.323 . S
C149 C62 1.455 . S
C151 C41 1.317 . S
C153 C93 1.946 . S
C155 C72 1.760 . S
C157 C10 2.126 1_455 S
C159 C111 2.169 . S
C161 C33 1.640 . S
C163 C0 1.741 . S
C165 C49 1.525 . S
C167 C64 1.610 1_655 S
C169 C80 2.134 . S
C171 C95 2.208 . S
C173 C73 1.297 . S
C175 C11 1.306 . S
C177 C55 0.880 . S
C179 C104 0.963 . S
C181 C86 0.733 . S
C183 C24 0.812 . S
C185 C42 0.935 . S
C187 C117 0.899 . S
