# Generated by pormake.
# Topology unh, (4)-cn, num edge types: 1
# Building blocks:
#     Node 0, Type 0, BuildingBlock: GALJAG_clean_sbu_0, # of connection points: 4
#     Node 1, Type 0, BuildingBlock: GALJAG_clean_sbu_0, # of connection points: 4
#     Node 2, Type 0, BuildingBlock: GALJAG_clean_sbu_0, # of connection points: 4
#     Node 3, Type 0, BuildingBlock: GALJAG_clean_sbu_0, # of connection points: 4
#     Node 4, Type 0, BuildingBlock: GALJAG_clean_sbu_0, # of connection points: 4
#     Node 5, Type 0, BuildingBlock: GALJAG_clean_sbu_0, # of connection points: 4
#     Edge 6, Type (0, 0), BuildingBlock: AJUNOK_clean_linker_0, # of connection points: 2
#     Edge 7, Type (0, 0), BuildingBlock: AJUNOK_clean_linker_0, # of connection points: 2
#     Edge 8, Type (0, 0), BuildingBlock: AJUNOK_clean_linker_0, # of connection points: 2
#     Edge 9, Type (0, 0), BuildingBlock: AJUNOK_clean_linker_0, # of connection points: 2
#     Edge 10, Type (0, 0), BuildingBlock: AJUNOK_clean_linker_0, # of connection points: 2
#     Edge 11, Type (0, 0), BuildingBlock: AJUNOK_clean_linker_0, # of connection points: 2
#     Edge 12, Type (0, 0), BuildingBlock: AJUNOK_clean_linker_0, # of connection points: 2
#     Edge 13, Type (0, 0), BuildingBlock: AJUNOK_clean_linker_0, # of connection points: 2
#     Edge 14, Type (0, 0), BuildingBlock: AJUNOK_clean_linker_0, # of connection points: 2
#     Edge 15, Type (0, 0), BuildingBlock: AJUNOK_clean_linker_0, # of connection points: 2
#     Edge 16, Type (0, 0), BuildingBlock: AJUNOK_clean_linker_0, # of connection points: 2
#     Edge 17, Type (0, 0), BuildingBlock: AJUNOK_clean_linker_0, # of connection points: 2
# Relax obj value: 0.030
# Max RMSD: 0.133
# Mean RMSD: 0.133
data_MOF--net-unh--node1-GALJAG_clean_sbu_0--edge1-AJUNOK_clean_linker_0
_symmetry_space_group_name_H-M    P1
_symmetry_Int_Tables_number       1
_symmetry_cell_setting            triclinic
loop_
_symmetry_equiv_pos_as_xyz
'x, y, z'
_cell_length_a     33.630496
_cell_length_b     33.655847
_cell_length_c     15.134429
_cell_angle_alpha  89.946976
_cell_angle_beta   90.019816
_cell_angle_gamma 119.981
loop_
_atom_site_label
_atom_site_type_symbol
_atom_site_fract_x
_atom_site_fract_y
_atom_site_fract_z
_atom_type_partial_charge
In0 In 0.13319 0.56546 0.08359 0.0
O1 O 0.09137 0.50729 0.98608 0.0
O2 O 0.08342 0.56636 0.98633 0.0
C3 C 0.19046 0.54684 0.1736 0.0
C4 C 0.06912 0.54216 0.20813 0.0
C5 C 0.19974 0.63936 0.00156 0.0
O6 O 0.1726 0.52722 0.10102 0.0
O7 O 0.17885 0.57512 0.20064 0.0
O8 O 0.17424 0.64331 0.05853 0.0
O9 O 0.19045 0.59882 0.98571 0.0
C10 C 0.07078 0.52708 0.95488 0.0
O11 O 0.09327 0.58364 0.18337 0.0
O12 O 0.07864 0.51425 0.17146 0.0
In13 In 0.55805 0.13809 0.2529 0.0
O14 O 0.57657 0.09765 0.15564 0.0
O15 O 0.50659 0.08049 0.16904 0.0
C16 C 0.63848 0.19909 0.32635 0.0
C17 C 0.52122 0.07619 0.3829 0.0
C18 C 0.53433 0.19474 0.17311 0.0
O19 O 0.63663 0.1826 0.2503 0.0
O20 O 0.6002 0.18541 0.36327 0.0
O21 O 0.52199 0.18085 0.25147 0.0
O22 O 0.5583 0.18023 0.13659 0.0
C23 C 0.53512 0.07158 0.13311 0.0
O24 O 0.50075 0.09642 0.35312 0.0
O25 O 0.55983 0.08841 0.34847 0.0
In26 In 0.43155 0.5751 0.40179 0.0
O27 O 0.49025 0.59209 0.30419 0.0
O28 O 0.42848 0.5273 0.29586 0.0
C29 C 0.45591 0.65632 0.47914 0.0
C30 C 0.45318 0.52798 0.51618 0.0
C31 C 0.34909 0.55489 0.33712 0.0
O32 O 0.46492 0.65359 0.39901 0.0
O33 O 0.43585 0.61857 0.51958 0.0
O34 O 0.35326 0.54173 0.41319 0.0
O35 O 0.38609 0.57788 0.29511 0.0
C36 C 0.4684 0.55337 0.26657 0.0
O37 O 0.41181 0.5147 0.49624 0.0
O38 O 0.48239 0.56516 0.48058 0.0
In39 In 0.85402 0.42445 0.58285 0.0
O40 O 0.8965 0.4089 0.68047 0.0
O41 O 0.90357 0.47554 0.67962 0.0
C42 C 0.7963 0.34774 0.49583 0.0
C43 C 0.9179 0.46557 0.45802 0.0
C44 C 0.78737 0.43178 0.66448 0.0
O45 O 0.81493 0.34675 0.56801 0.0
O46 O 0.80787 0.38731 0.46692 0.0
O47 O 0.81236 0.46074 0.60632 0.0
O48 O 0.79729 0.40109 0.68182 0.0
C49 C 0.91672 0.44931 0.7113 0.0
O50 O 0.89322 0.48238 0.48238 0.0
O51 O 0.90883 0.4283 0.49494 0.0
In52 In 0.43127 0.85945 0.75312 0.0
O53 O 0.41133 0.89802 0.65357 0.0
O54 O 0.48205 0.91869 0.67265 0.0
C55 C 0.35592 0.79154 0.82957 0.0
C56 C 0.46616 0.91903 0.8873 0.0
C57 C 0.45441 0.80625 0.65993 0.0
O58 O 0.35313 0.81838 0.77425 0.0
O59 O 0.39612 0.79966 0.84567 0.0
O60 O 0.4718 0.82213 0.73499 0.0
O61 O 0.4259 0.81749 0.63256 0.0
C62 C 0.45292 0.92573 0.63373 0.0
O63 O 0.48808 0.90113 0.85388 0.0
O64 O 0.42679 0.9052 0.85506 0.0
In65 In 0.55373 0.42064 0.90241 0.0
O66 O 0.49595 0.40456 0.8035 0.0
O67 O 0.5594 0.46736 0.79131 0.0
C68 C 0.52955 0.34347 -0.00593 0.0
C69 C 0.53383 0.46877 0.01697 0.0
C70 C 0.63001 0.42791 0.83074 0.0
O71 O 0.51314 0.34289 0.91846 0.0
O72 O 0.55683 0.38293 0.02412 0.0
O73 O 0.63201 0.45835 0.88284 0.0
O74 O 0.59014 0.39516 0.81527 0.0
C75 C 0.51904 0.44232 0.76315 0.0
O76 O 0.57513 0.47995 0.00062 0.0
O77 O 0.504 0.43327 0.97756 0.0
C78 C 0.01285 0.53143 0.86024 0.0
C79 C 0.03247 0.50565 0.89096 0.0
C80 C 0.97509 0.51238 0.80365 0.0
C81 C 0.95516 0.46665 0.77502 0.0
H82 H 0.02659 0.56681 0.8803 0.0
H83 H 0.9616 0.53402 0.78196 0.0
S84 S 0.99336 0.38416 0.83602 0.0
N85 N 0.02915 0.43175 0.88886 0.0
N86 N 0.95786 0.39579 0.78138 0.0
C87 C 0.9743 0.44024 0.80496 0.0
C88 C 0.01306 0.45979 0.86304 0.0
C89 C 0.45624 0.97046 0.99075 0.0
C90 C 0.48531 0.95602 0.95409 0.0
C91 C 0.47301 0.00778 0.04811 0.0
C92 C 0.51969 0.03251 0.07148 0.0
H93 H 0.42006 0.95315 0.97424 0.0
H94 H 0.44896 0.01744 0.07377 0.0
S95 S 0.61022 0.00797 -0.00388 0.0
N96 N 0.56306 0.96866 0.94667 0.0
N97 N 0.5948 0.03923 0.05546 0.0
C98 C 0.54925 0.01816 0.03663 0.0
C99 C 0.532 0.97977 0.97788 0.0
C100 C 0.4572 0.50092 0.14285 0.0
C101 C 0.48772 0.53732 0.19696 0.0
C102 C 0.47294 0.48003 0.08394 0.0
C103 C 0.51993 0.49441 0.07683 0.0
H104 H 0.42053 0.48768 0.14722 0.0
H105 H 0.44766 0.45167 0.04482 0.0
S106 S 0.61441 0.58996 0.20102 0.0
N107 N 0.56739 0.58844 0.2377 0.0
N108 N 0.59728 0.54884 0.12632 0.0
C109 C 0.55119 0.5319 0.12832 0.0
C110 C 0.53502 0.55349 0.18847 0.0
C111 C 0.97634 0.46204 0.36444 0.0
C112 C 0.95575 0.48724 0.39317 0.0
C113 C 0.01323 0.48076 0.306 0.0
C114 C 0.03151 0.52567 0.27352 0.0
H115 H 0.9639 0.42725 0.38715 0.0
H116 H 0.02748 0.45951 0.28615 0.0
S117 S 0.99048 0.60656 0.32818 0.0
N118 N 0.95641 0.55977 0.38519 0.0
N119 N 0.02642 0.59527 0.27425 0.0
C120 C 0.01161 0.55164 0.3017 0.0
C121 C 0.97351 0.53232 0.36155 0.0
C122 C 0.53126 0.02588 0.48886 0.0
C123 C 0.50194 0.03946 0.45019 0.0
C124 C 0.51469 0.98921 0.54779 0.0
C125 C 0.46795 0.9642 0.57063 0.0
H126 H 0.56754 0.0435 0.47305 0.0
H127 H 0.53899 0.98025 0.57501 0.0
S128 S 0.37672 0.98639 0.48951 0.0
N129 N 0.42387 0.0257 0.43989 0.0
N130 N 0.39243 0.95614 0.5515 0.0
C131 C 0.43808 0.9776 0.53352 0.0
C132 C 0.45516 0.01544 0.47328 0.0
C133 C 0.53069 0.49734 0.64347 0.0
C134 C 0.50011 0.45901 0.69372 0.0
C135 C 0.51482 0.51855 0.58548 0.0
C136 C 0.46763 0.50247 0.57526 0.0
H137 H 0.56746 0.51187 0.65033 0.0
H138 H 0.54005 0.54839 0.54943 0.0
S139 S 0.37298 0.40158 0.68804 0.0
N140 N 0.4202 0.40437 0.72705 0.0
N141 N 0.39014 0.44445 0.6172 0.0
C142 C 0.4364 0.46313 0.62265 0.0
C143 C 0.4527 0.44131 0.682 0.0
C144 C 0.25907 0.53724 0.16799 0.0
C145 C 0.22646 0.54161 0.21856 0.0
C146 C 0.29802 0.54004 0.20771 0.0
C147 C 0.30495 0.54595 0.29953 0.0
H148 H 0.25582 0.53422 0.09674 0.0
H149 H 0.32346 0.53864 0.16595 0.0
S150 S 0.22747 0.55507 0.46184 0.0
N151 N 0.20221 0.54977 0.36544 0.0
N152 N 0.2747 0.55322 0.44053 0.0
C153 C 0.27128 0.54768 0.35142 0.0
C154 C 0.2322 0.54603 0.31072 0.0
C155 C 0.71667 0.26838 0.31889 0.0
C156 C 0.68162 0.23313 0.36897 0.0
C157 C 0.75481 0.30479 0.36037 0.0
C158 C 0.75975 0.30621 0.45284 0.0
H159 H 0.71344 0.26912 0.24776 0.0
H160 H 0.78008 0.33255 0.32001 0.0
S161 S 0.67911 0.22012 0.61264 0.0
N162 N 0.65515 0.20063 0.51518 0.0
N163 N 0.72762 0.26811 0.59269 0.0
C164 C 0.72616 0.26984 0.50309 0.0
C165 C 0.68682 0.23351 0.46118 0.0
C166 C 0.46889 0.7405 0.65792 0.0
C167 C 0.46274 0.77312 0.61122 0.0
C168 C 0.46875 0.70378 0.61388 0.0
C169 C 0.46369 0.69915 0.52149 0.0
H170 H 0.47113 0.74179 0.72938 0.0
H171 H 0.47118 0.67803 0.65277 0.0
S172 S 0.45156 0.77847 0.36831 0.0
N173 N 0.45464 0.80043 0.46734 0.0
N174 N 0.4559 0.73222 0.38427 0.0
C175 C 0.46056 0.73324 0.47356 0.0
C176 C 0.45963 0.77002 0.51859 0.0
C177 C 0.71001 0.47116 0.76908 0.0
C178 C 0.67073 0.42924 0.79088 0.0
C179 C 0.74763 0.47212 0.72624 0.0
C180 C 0.74745 0.43121 0.70633 0.0
H181 H 0.71127 0.50329 0.7835 0.0
H182 H 0.77722 0.50496 0.70989 0.0
S183 S 0.65308 0.31271 0.75095 0.0
N184 N 0.63405 0.34602 0.78941 0.0
N185 N 0.70475 0.34782 0.71131 0.0
C186 C 0.70855 0.38923 0.72879 0.0
C187 C 0.67016 0.38824 0.77052 0.0
C188 C 0.27573 0.75469 0.89069 0.0
C189 C 0.31569 0.75267 0.87192 0.0
C190 C 0.23838 0.71841 0.93494 0.0
C191 C 0.23954 0.67867 0.95935 0.0
H192 H 0.27367 0.78474 0.87252 0.0
H193 H 0.20819 0.7211 0.94859 0.0
S194 S 0.33596 0.65649 0.92453 0.0
N195 N 0.35407 0.7078 0.88155 0.0
N196 N 0.28387 0.63962 0.96224 0.0
C197 C 0.27916 0.67626 0.94026 0.0
C198 C 0.31726 0.71328 0.89712 0.0
C199 C 0.52603 0.30125 0.13235 0.0
C200 C 0.52243 0.30161 0.03971 0.0
C201 C 0.52657 0.26474 0.17622 0.0
C202 C 0.5249 0.22815 0.12849 0.0
H203 H 0.52984 0.33004 0.17098 0.0
H204 H 0.53108 0.26654 0.24727 0.0
S205 S 0.51258 0.21149 0.88573 0.0
N206 N 0.51413 0.26072 0.90244 0.0
N207 N 0.51673 0.19297 0.9845 0.0
C208 C 0.51948 0.22724 0.03629 0.0
C209 C 0.5178 0.26377 0.99193 0.0
loop_
_geom_bond_atom_site_label_1
_geom_bond_atom_site_label_2
_geom_bond_distance
_geom_bond_site_symmetry_2
_ccdc_geom_bond_type
In0 O1 2.294 1_554 S
In0 O2 2.326 1_554 S
In0 O6 2.266 . S
In0 O7 2.326 . S
In0 O8 2.266 . S
In0 O9 2.326 1_554 S
In0 O11 2.294 . S
In0 O12 2.326 . S
O1 In0 2.294 1_556 S
O1 C10 1.240 . S
O2 In0 2.326 1_556 S
O2 C10 1.252 . S
C3 O6 1.252 . S
C3 O7 1.260 . S
C4 O11 1.240 . S
C4 O12 1.252 . S
C5 O8 1.252 . S
C5 O9 1.260 1_554 S
O6 In0 2.266 . S
O6 C3 1.252 . S
O7 In0 2.326 . S
O7 C3 1.260 . S
O8 In0 2.266 . S
O8 C5 1.252 . S
O9 In0 2.326 1_556 S
O9 C5 1.260 1_556 S
C10 O1 1.240 . S
C10 O2 1.252 . S
O11 In0 2.294 . S
O11 C4 1.240 . S
O12 In0 2.326 . S
O12 C4 1.252 . S
In13 O14 2.294 . S
In13 O15 2.326 . S
In13 O19 2.266 . S
In13 O20 2.326 . S
In13 O21 2.266 . S
In13 O22 2.326 . S
In13 O24 2.294 . S
In13 O25 2.326 . S
O14 In13 2.294 . S
O14 C23 1.240 . S
O15 In13 2.326 . S
O15 C23 1.252 . S
C16 O19 1.252 . S
C16 O20 1.260 . S
C17 O24 1.240 . S
C17 O25 1.252 . S
C18 O21 1.252 . S
C18 O22 1.260 . S
O19 In13 2.266 . S
O19 C16 1.252 . S
O20 In13 2.326 . S
O20 C16 1.260 . S
O21 In13 2.266 . S
O21 C18 1.252 . S
O22 In13 2.326 . S
O22 C18 1.260 . S
C23 O14 1.240 . S
C23 O15 1.252 . S
O24 In13 2.294 . S
O24 C17 1.240 . S
O25 In13 2.326 . S
O25 C17 1.252 . S
In26 O27 2.294 . S
In26 O28 2.326 . S
In26 O32 2.266 . S
In26 O33 2.326 . S
In26 O34 2.266 . S
In26 O35 2.326 . S
In26 O37 2.294 . S
In26 O38 2.326 . S
O27 In26 2.294 . S
O27 C36 1.240 . S
O28 In26 2.326 . S
O28 C36 1.252 . S
C29 O32 1.252 . S
C29 O33 1.260 . S
C30 O37 1.240 . S
C30 O38 1.252 . S
C31 O34 1.252 . S
C31 O35 1.260 . S
O32 In26 2.266 . S
O32 C29 1.252 . S
O33 In26 2.326 . S
O33 C29 1.260 . S
O34 In26 2.266 . S
O34 C31 1.252 . S
O35 In26 2.326 . S
O35 C31 1.260 . S
C36 O27 1.240 . S
C36 O28 1.252 . S
O37 In26 2.294 . S
O37 C30 1.240 . S
O38 In26 2.326 . S
O38 C30 1.252 . S
In39 O40 2.294 . S
In39 O41 2.326 . S
In39 O45 2.266 . S
In39 O46 2.326 . S
In39 O47 2.266 . S
In39 O48 2.326 . S
In39 O50 2.294 . S
In39 O51 2.326 . S
O40 In39 2.294 . S
O40 C49 1.240 . S
O41 In39 2.326 . S
O41 C49 1.252 . S
C42 O45 1.252 . S
C42 O46 1.260 . S
C43 O50 1.240 . S
C43 O51 1.252 . S
C44 O47 1.252 . S
C44 O48 1.260 . S
O45 In39 2.266 . S
O45 C42 1.252 . S
O46 In39 2.326 . S
O46 C42 1.260 . S
O47 In39 2.266 . S
O47 C44 1.252 . S
O48 In39 2.326 . S
O48 C44 1.260 . S
C49 O40 1.240 . S
C49 O41 1.252 . S
O50 In39 2.294 . S
O50 C43 1.240 . S
O51 In39 2.326 . S
O51 C43 1.252 . S
In52 O53 2.294 . S
In52 O54 2.326 . S
In52 O58 2.266 . S
In52 O59 2.326 . S
In52 O60 2.266 . S
In52 O61 2.326 . S
In52 O63 2.294 . S
In52 O64 2.326 . S
O53 In52 2.294 . S
O53 C62 1.240 . S
O54 In52 2.326 . S
O54 C62 1.252 . S
C55 O58 1.252 . S
C55 O59 1.260 . S
C56 O63 1.240 . S
C56 O64 1.252 . S
C57 O60 1.252 . S
C57 O61 1.260 . S
O58 In52 2.266 . S
O58 C55 1.252 . S
O59 In52 2.326 . S
O59 C55 1.260 . S
O60 In52 2.266 . S
O60 C57 1.252 . S
O61 In52 2.326 . S
O61 C57 1.260 . S
C62 O53 1.240 . S
C62 O54 1.252 . S
O63 In52 2.294 . S
O63 C56 1.240 . S
O64 In52 2.326 . S
O64 C56 1.252 . S
In65 O66 2.294 . S
In65 O67 2.326 . S
In65 O71 2.266 . S
In65 O72 2.326 1_556 S
In65 O73 2.266 . S
In65 O74 2.326 . S
In65 O76 2.294 1_556 S
In65 O77 2.326 1_556 S
O66 In65 2.294 . S
O66 C75 1.240 . S
O67 In65 2.326 . S
O67 C75 1.252 . S
C68 O71 1.252 . S
C68 O72 1.260 1_556 S
C69 O76 1.240 . S
C69 O77 1.252 . S
C70 O73 1.252 . S
C70 O74 1.260 . S
O71 In65 2.266 . S
O71 C68 1.252 . S
O72 In65 2.326 1_554 S
O72 C68 1.260 1_554 S
O73 In65 2.266 . S
O73 C70 1.252 . S
O74 In65 2.326 . S
O74 C70 1.260 . S
C75 O66 1.240 . S
C75 O67 1.252 . S
O76 In65 2.294 1_554 S
O76 C69 1.240 . S
O77 In65 2.326 1_554 S
O77 C69 1.252 . S
C78 C79 1.369 . S
C78 C80 1.419 1_455 S
C78 H82 0.930 . S
C79 C78 1.369 . S
C79 C88 1.429 . S
C80 C78 1.419 1_655 S
C80 C81 1.363 . S
C80 H83 0.929 . S
C81 C80 1.363 . S
C81 C87 1.428 . S
H82 C78 0.930 . S
H83 C80 0.929 . S
S84 N85 1.613 1_655 S
S84 N86 1.610 . S
N85 S84 1.613 1_455 S
N85 C88 1.350 . S
N86 S84 1.610 . S
N86 C87 1.351 . S
C87 C81 1.428 . S
C87 N86 1.351 . S
C87 C88 1.434 1_655 S
C88 C79 1.429 . S
C88 N85 1.350 . S
C88 C87 1.434 1_455 S
C89 C90 1.369 1_545 S
C89 C91 1.419 . S
C89 H93 0.930 . S
C90 C89 1.369 1_565 S
C90 C99 1.429 1_556 S
C91 C89 1.419 . S
C91 C92 1.363 1_556 S
C91 H94 0.929 . S
C92 C91 1.363 1_554 S
C92 C98 1.428 1_545 S
H93 C89 0.930 . S
H94 C91 0.929 . S
S95 N96 1.613 . S
S95 N97 1.610 . S
N96 S95 1.613 . S
N96 C99 1.350 . S
N97 S95 1.610 . S
N97 C98 1.351 . S
C98 C92 1.428 1_565 S
C98 N97 1.351 . S
C98 C99 1.434 . S
C99 C90 1.429 1_554 S
C99 N96 1.350 . S
C99 C98 1.434 . S
C100 C101 1.369 . S
C100 C102 1.419 . S
C100 H104 0.930 . S
C101 C100 1.369 . S
C101 C110 1.429 . S
C102 C100 1.419 . S
C102 C103 1.363 . S
C102 H105 0.929 . S
C103 C102 1.363 . S
C103 C109 1.428 . S
H104 C100 0.930 . S
H105 C102 0.929 . S
S106 N107 1.613 . S
S106 N108 1.610 . S
N107 S106 1.613 . S
N107 C110 1.350 . S
N108 S106 1.610 . S
N108 C109 1.351 . S
C109 C103 1.428 . S
C109 N108 1.351 . S
C109 C110 1.434 . S
C110 C101 1.429 . S
C110 N107 1.350 . S
C110 C109 1.434 . S
C111 C112 1.369 . S
C111 C113 1.419 1_655 S
C111 H115 0.930 . S
C112 C111 1.369 . S
C112 C121 1.429 . S
C113 C111 1.419 1_455 S
C113 C114 1.363 . S
C113 H116 0.929 . S
C114 C113 1.363 . S
C114 C120 1.428 . S
H115 C111 0.930 . S
H116 C113 0.929 . S
S117 N118 1.613 . S
S117 N119 1.610 1_655 S
N118 S117 1.613 . S
N118 C121 1.350 . S
N119 S117 1.610 1_455 S
N119 C120 1.351 . S
C120 C114 1.428 . S
C120 N119 1.351 . S
C120 C121 1.434 1_455 S
C121 C112 1.429 . S
C121 N118 1.350 . S
C121 C120 1.434 1_655 S
C122 C123 1.369 . S
C122 C124 1.419 1_545 S
C122 H126 0.930 . S
C123 C122 1.369 . S
C123 C132 1.429 . S
C124 C122 1.419 1_565 S
C124 C125 1.363 . S
C124 H127 0.929 . S
C125 C124 1.363 . S
C125 C131 1.428 . S
H126 C122 0.930 . S
H127 C124 0.929 . S
S128 N129 1.613 1_565 S
S128 N130 1.610 . S
N129 S128 1.613 1_545 S
N129 C132 1.350 . S
N130 S128 1.610 . S
N130 C131 1.351 . S
C131 C125 1.428 . S
C131 N130 1.351 . S
C131 C132 1.434 1_565 S
C132 C123 1.429 . S
C132 N129 1.350 . S
C132 C131 1.434 1_545 S
C133 C134 1.369 . S
C133 C135 1.419 . S
C133 H137 0.930 . S
C134 C133 1.369 . S
C134 C143 1.429 . S
C135 C133 1.419 . S
C135 C136 1.363 . S
C135 H138 0.929 . S
C136 C135 1.363 . S
C136 C142 1.428 . S
H137 C133 0.930 . S
H138 C135 0.929 . S
S139 N140 1.613 . S
S139 N141 1.610 . S
N140 S139 1.613 . S
N140 C143 1.350 . S
N141 S139 1.610 . S
N141 C142 1.351 . S
C142 C136 1.428 . S
C142 N141 1.351 . S
C142 C143 1.434 . S
C143 C134 1.429 . S
C143 N140 1.350 . S
C143 C142 1.434 . S
C144 C145 1.369 . S
C144 C146 1.419 . S
C144 H148 0.930 . S
C145 C144 1.369 . S
C145 C154 1.429 . S
C146 C144 1.419 . S
C146 C147 1.363 . S
C146 H149 0.929 . S
C147 C146 1.363 . S
C147 C153 1.428 . S
H148 C144 0.930 . S
H149 C146 0.929 . S
S150 N151 1.613 . S
S150 N152 1.610 . S
N151 S150 1.613 . S
N151 C154 1.350 . S
N152 S150 1.610 . S
N152 C153 1.351 . S
C153 C147 1.428 . S
C153 N152 1.351 . S
C153 C154 1.434 . S
C154 C145 1.429 . S
C154 N151 1.350 . S
C154 C153 1.434 . S
C155 C156 1.369 . S
C155 C157 1.419 . S
C155 H159 0.930 . S
C156 C155 1.369 . S
C156 C165 1.429 . S
C157 C155 1.419 . S
C157 C158 1.363 . S
C157 H160 0.929 . S
C158 C157 1.363 . S
C158 C164 1.428 . S
H159 C155 0.930 . S
H160 C157 0.929 . S
S161 N162 1.613 . S
S161 N163 1.610 . S
N162 S161 1.613 . S
N162 C165 1.350 . S
N163 S161 1.610 . S
N163 C164 1.351 . S
C164 C158 1.428 . S
C164 N163 1.351 . S
C164 C165 1.434 . S
C165 C156 1.429 . S
C165 N162 1.350 . S
C165 C164 1.434 . S
C166 C167 1.369 . S
C166 C168 1.419 . S
C166 H170 0.930 . S
C167 C166 1.369 . S
C167 C176 1.429 . S
C168 C166 1.419 . S
C168 C169 1.363 . S
C168 H171 0.929 . S
C169 C168 1.363 . S
C169 C175 1.428 . S
H170 C166 0.930 . S
H171 C168 0.929 . S
S172 N173 1.613 . S
S172 N174 1.610 . S
N173 S172 1.613 . S
N173 C176 1.350 . S
N174 S172 1.610 . S
N174 C175 1.351 . S
C175 C169 1.428 . S
C175 N174 1.351 . S
C175 C176 1.434 . S
C176 C167 1.429 . S
C176 N173 1.350 . S
C176 C175 1.434 . S
C177 C178 1.369 . S
C177 C179 1.419 . S
C177 H181 0.930 . S
C178 C177 1.369 . S
C178 C187 1.429 . S
C179 C177 1.419 . S
C179 C180 1.363 . S
C179 H182 0.929 . S
C180 C179 1.363 . S
C180 C186 1.428 . S
H181 C177 0.930 . S
H182 C179 0.929 . S
S183 N184 1.613 . S
S183 N185 1.610 . S
N184 S183 1.613 . S
N184 C187 1.350 . S
N185 S183 1.610 . S
N185 C186 1.351 . S
C186 C180 1.428 . S
C186 N185 1.351 . S
C186 C187 1.434 . S
C187 C178 1.429 . S
C187 N184 1.350 . S
C187 C186 1.434 . S
C188 C189 1.369 . S
C188 C190 1.419 . S
C188 H192 0.930 . S
C189 C188 1.369 . S
C189 C198 1.429 . S
C190 C188 1.419 . S
C190 C191 1.363 . S
C190 H193 0.929 . S
C191 C190 1.363 . S
C191 C197 1.428 . S
H192 C188 0.930 . S
H193 C190 0.929 . S
S194 N195 1.613 . S
S194 N196 1.610 . S
N195 S194 1.613 . S
N195 C198 1.350 . S
N196 S194 1.610 . S
N196 C197 1.351 . S
C197 C191 1.428 . S
C197 N196 1.351 . S
C197 C198 1.434 . S
C198 C189 1.429 . S
C198 N195 1.350 . S
C198 C197 1.434 . S
C199 C200 1.369 . S
C199 C201 1.419 . S
C199 H203 0.930 . S
C200 C199 1.369 . S
C200 C209 1.425 1_554 S
C201 C199 1.419 . S
C201 C202 1.363 . S
C201 H204 0.929 . S
C202 C201 1.363 . S
C202 C208 1.428 . S
H203 C199 0.930 . S
H204 C201 0.929 . S
S205 N206 1.613 . S
S205 N207 1.610 1_556 S
N206 S205 1.613 . S
N206 C209 1.358 . S
N207 S205 1.610 1_554 S
N207 C208 1.351 . S
C208 C202 1.428 . S
C208 N207 1.351 . S
C208 C209 1.429 1_554 S
C209 C200 1.425 1_556 S
C209 N206 1.358 . S
C209 C208 1.429 1_556 S
C79 C10 1.394 . S
C81 C49 1.394 . S
C90 C56 1.394 . S
C92 C23 1.392 . S
C101 C36 1.393 . S
C103 C69 1.394 . S
C112 C43 1.394 . S
C114 C4 1.393 . S
C123 C17 1.394 . S
C125 C62 1.394 . S
C134 C75 1.393 . S
C136 C30 1.394 . S
C145 C3 1.390 . S
C147 C31 1.393 . S
C156 C16 1.391 . S
C158 C42 1.393 . S
C167 C57 1.393 . S
C169 C29 1.395 . S
C178 C70 1.391 . S
C180 C44 1.392 . S
C189 C55 1.392 . S
C191 C5 1.391 1_556 S
C200 C68 1.395 1_554 S
C202 C18 1.394 . S
