# Generated by pormake.
# Topology wht, (6)-cn, num edge types: 1
# Building blocks:
#     Node 0, Type 0, BuildingBlock: IZENUY_clean_sbu_0, # of connection points: 6
#     Node 1, Type 0, BuildingBlock: IZENUY_clean_sbu_0, # of connection points: 6
#     Node 2, Type 0, BuildingBlock: IZENUY_clean_sbu_0, # of connection points: 6
#     Node 3, Type 0, BuildingBlock: IZENUY_clean_sbu_0, # of connection points: 6
#     Node 4, Type 0, BuildingBlock: IZENUY_clean_sbu_0, # of connection points: 6
#     Node 5, Type 0, BuildingBlock: IZENUY_clean_sbu_0, # of connection points: 6
#     Node 6, Type 0, BuildingBlock: IZENUY_clean_sbu_0, # of connection points: 6
#     Node 7, Type 0, BuildingBlock: IZENUY_clean_sbu_0, # of connection points: 6
#     Edge 8, Type (0, 0), None
#     Edge 9, Type (0, 0), None
#     Edge 10, Type (0, 0), None
#     Edge 11, Type (0, 0), None
#     Edge 12, Type (0, 0), None
#     Edge 13, Type (0, 0), None
#     Edge 14, Type (0, 0), None
#     Edge 15, Type (0, 0), None
#     Edge 16, Type (0, 0), None
#     Edge 17, Type (0, 0), None
#     Edge 18, Type (0, 0), None
#     Edge 19, Type (0, 0), None
#     Edge 20, Type (0, 0), None
#     Edge 21, Type (0, 0), None
#     Edge 22, Type (0, 0), None
#     Edge 23, Type (0, 0), None
#     Edge 24, Type (0, 0), None
#     Edge 25, Type (0, 0), None
#     Edge 26, Type (0, 0), None
#     Edge 27, Type (0, 0), None
#     Edge 28, Type (0, 0), None
#     Edge 29, Type (0, 0), None
#     Edge 30, Type (0, 0), None
#     Edge 31, Type (0, 0), None
# Relax obj value: 0.255
# Max RMSD: 0.240
# Mean RMSD: 0.240
data_MOF--net-wht--node1-IZENUY_clean_sbu_0--edge1-none
_symmetry_space_group_name_H-M    P1
_symmetry_Int_Tables_number       1
_symmetry_cell_setting            triclinic
loop_
_symmetry_equiv_pos_as_xyz
'x, y, z'
_cell_length_a     12.39413
_cell_length_b     12.394138
_cell_length_c     21.422271
_cell_angle_alpha  89.999698
_cell_angle_beta   90.000261
_cell_angle_gamma 89.999606
loop_
_atom_site_label
_atom_site_type_symbol
_atom_site_fract_x
_atom_site_fract_y
_atom_site_fract_z
_atom_type_partial_charge
Fe0 Fe 0.05957 0.15802 0.14588 0.0
Fe1 Fe 0.27001 0.27661 0.17813 0.0
O2 O 0.12603 0.26831 0.18099 0.0
Fe3 Fe 0.04632 0.37385 0.21054 0.0
O4 O 0.97621 0.39121 0.13635 0.0
O5 O 0.93003 0.22416 0.12665 0.0
O6 O 0.10499 0.20465 0.07278 0.0
C7 C 0.20123 0.22501 0.05946 0.0
C8 C 0.94707 0.1715 0.25302 0.0
O9 O 0.27592 0.22037 0.09953 0.0
C10 C 0.21032 0.36878 0.29809 0.0
O11 O 0.1764 0.06728 0.15263 0.0
O12 O 0.29227 0.14773 0.21382 0.0
O13 O 0.94242 0.27507 0.24448 0.0
O14 O 1.00981 0.11372 0.22036 0.0
C15 C 0.21921 0.48014 0.14281 0.0
O16 O 0.28091 0.3433 0.25679 0.0
O17 O 0.11087 0.36769 0.28579 0.0
C18 C 0.26698 0.06876 0.18031 0.0
O19 O 0.26923 0.39611 0.13591 0.0
O20 O 0.1413 0.4846 0.18246 0.0
C21 C 0.92191 0.32038 0.10839 0.0
Fe22 Fe 0.28363 0.77001 0.42813 0.0
Fe23 Fe 0.18641 0.54631 0.46054 0.0
O24 O 0.29195 0.62603 0.43098 0.0
Fe25 Fe 0.40224 0.55958 0.39588 0.0
O26 O 0.35562 0.60499 0.32278 0.0
O27 O 0.33988 0.77592 0.34953 0.0
O28 O 0.16414 0.76921 0.3859 0.0
C29 C 0.08011 0.7192 0.39281 0.0
C30 C 0.49149 0.76699 0.43031 0.0
O31 O 0.07566 0.64129 0.43246 0.0
C32 C 0.38877 0.44707 0.50302 0.0
O33 O 0.21694 0.78091 0.50678 0.0
O34 O 0.19258 0.61087 0.53579 0.0
O35 O 0.49298 0.67641 0.40263 0.0
O36 O 0.41251 0.79228 0.46382 0.0
C37 C 0.23989 0.42193 0.35839 0.0
O38 O 0.2852 0.44242 0.49448 0.0
O39 O 0.44655 0.50982 0.47036 0.0
C40 C 0.19148 0.71032 0.54809 0.0
O41 O 0.16905 0.4762 0.38636 0.0
O42 O 0.33611 0.43004 0.37665 0.0
C43 C 0.33525 0.70123 0.30946 0.0
Fe44 Fe 1.00069 0.90224 0.64588 0.0
Fe45 Fe 0.79025 0.78363 0.67813 0.0
O46 O 0.93423 0.79195 0.68099 0.0
Fe47 Fe 1.01395 0.68641 0.71054 0.0
O48 O 0.08406 0.66904 0.63636 0.0
O49 O 0.13023 0.83611 0.62665 0.0
O50 O 0.95527 0.85562 0.57278 0.0
C51 C 0.85903 0.83525 0.55946 0.0
C52 C 0.11319 0.88876 0.75302 0.0
O53 O 0.78434 0.83989 0.59953 0.0
C54 C 0.84994 0.69148 0.79809 0.0
O55 O 0.88385 0.99298 0.65264 0.0
O56 O 0.76798 0.91251 0.71382 0.0
O57 O 0.11785 0.78519 0.74448 0.0
O58 O 0.05045 0.94654 0.72036 0.0
C59 C 0.84106 0.58011 0.64281 0.0
O60 O 0.77935 0.71694 0.75678 0.0
O61 O 0.94939 0.69258 0.78579 0.0
C62 C 0.79327 0.99149 0.68031 0.0
O63 O 0.79105 0.66415 0.6359 0.0
O64 O 0.91897 0.57566 0.68246 0.0
C65 C 0.13833 0.73989 0.60839 0.0
Fe66 Fe 0.87385 0.51395 0.96054 0.0
Fe67 Fe 0.65802 0.50069 0.89588 0.0
O68 O 0.76831 0.43423 0.93099 0.0
Fe69 Fe 0.77662 0.29025 0.92814 0.0
O70 O 0.89611 0.29104 0.88591 0.0
O71 O 0.9846 0.41896 0.93246 0.0
O72 O 0.89122 0.58405 0.88635 0.0
C73 C 0.82037 0.63833 0.85839 0.0
C74 C 0.86875 0.34995 0.04809 0.0
O75 O 0.72415 0.63022 0.87665 0.0
C76 C 0.56876 0.29328 0.93031 0.0
O77 O 0.77507 0.61784 0.99448 0.0
O78 O 0.61372 0.55045 0.97036 0.0
O79 O 0.84331 0.27935 1.00679 0.0
O80 O 0.86769 0.4494 0.03579 0.0
C81 C 0.72501 0.35903 0.80947 0.0
O82 O 0.56728 0.38386 0.90264 0.0
O83 O 0.64774 0.26799 0.96382 0.0
C84 C 0.6715 0.6132 1.00302 0.0
O85 O 0.70464 0.45527 0.82278 0.0
O86 O 0.72037 0.28434 0.84954 0.0
C87 C 0.98014 0.34105 0.89281 0.0
Fe88 Fe 0.54631 0.18638 0.59697 0.0
Fe89 Fe 0.55953 0.40224 0.66161 0.0
O90 O 0.62602 0.29193 0.62652 0.0
Fe91 Fe 0.77001 0.28365 0.62937 0.0
O92 O 0.76932 0.16414 0.67157 0.0
O93 O 0.64125 0.07563 0.6251 0.0
O94 O 0.47617 0.16906 0.67115 0.0
C95 C 0.42186 0.2399 0.69909 0.0
C96 C 0.71034 0.19148 0.50942 0.0
O97 O 0.42998 0.33611 0.68082 0.0
C98 C 0.76694 0.49149 0.62721 0.0
O99 O 0.44244 0.28517 0.563 0.0
O100 O 0.50983 0.44653 0.58712 0.0
O101 O 0.78093 0.217 0.5507 0.0
O102 O 0.61089 0.19249 0.52173 0.0
C103 C 0.70111 0.33507 0.74801 0.0
O104 O 0.67637 0.49299 0.65489 0.0
O105 O 0.7922 0.41254 0.59368 0.0
C106 C 0.4471 0.38874 0.55446 0.0
O107 O 0.6049 0.35562 0.73472 0.0
O108 O 0.77586 0.33987 0.70798 0.0
C109 C 0.71919 0.08015 0.66472 0.0
Fe110 Fe 0.2766 0.27002 0.87936 0.0
Fe111 Fe 0.37389 0.04631 0.84697 0.0
O112 O 0.26833 0.12602 0.87652 0.0
Fe113 Fe 0.15803 0.05953 0.91161 0.0
O114 O 0.20464 0.1049 0.98472 0.0
O115 O 0.22039 0.27586 0.95798 0.0
O116 O 0.39612 0.26933 0.92156 0.0
C117 C 0.4801 0.2192 0.91472 0.0
C118 C 0.06876 0.26693 0.87721 0.0
O119 O 0.48463 0.14125 0.8751 0.0
C120 C 0.17153 0.9471 0.80446 0.0
O121 O 0.34324 0.28094 0.8007 0.0
O122 O 0.36778 0.11089 0.77173 0.0
O123 O 0.06727 0.17636 0.90489 0.0
O124 O 0.14771 0.2922 0.84368 0.0
C125 C 0.32037 0.92186 0.94909 0.0
O126 O 0.2751 0.94244 0.813 0.0
O127 O 0.11374 1.00982 0.83712 0.0
C128 C 0.36876 0.21033 0.75941 0.0
O129 O 0.3912 0.97617 0.92115 0.0
O130 O 0.22416 0.92998 0.93082 0.0
C131 C 0.22519 0.20111 0.998 0.0
Fe132 Fe 0.29024 0.77659 0.12936 0.0
Fe133 Fe 0.51395 0.87389 0.09697 0.0
O134 O 0.43424 0.76833 0.12652 0.0
Fe135 Fe 0.50073 0.65802 0.16161 0.0
O136 O 0.45536 0.70464 0.23472 0.0
O137 O 0.2844 0.72038 0.20797 0.0
O138 O 0.29093 0.89611 0.17156 0.0
C139 C 0.34106 0.9801 0.16472 0.0
C140 C 0.29333 0.56876 0.12721 0.0
O141 O 0.41901 0.98463 0.1251 0.0
C142 C 0.61317 0.67153 0.05446 0.0
O143 O 0.27933 0.84324 0.05069 0.0
O144 O 0.44937 0.86778 1.02173 0.0
O145 O 0.3839 0.56727 0.15489 0.0
O146 O 0.26807 0.64771 0.09368 0.0
C147 C 0.6384 0.82037 0.1991 0.0
O148 O 0.61782 0.7751 0.063 0.0
O149 O 0.55044 0.61374 0.08712 0.0
C150 C 0.34993 0.86876 1.00941 0.0
O151 O 0.58409 0.8912 0.17115 0.0
O152 O 0.63028 0.72416 0.18082 0.0
C153 C 0.35915 0.72518 0.248 0.0
Fe154 Fe 0.90224 1.00073 0.41161 0.0
Fe155 Fe 0.78365 0.79025 0.37937 0.0
O156 O 0.79193 0.93424 0.37652 0.0
Fe157 Fe 0.68637 1.01396 0.34697 0.0
O158 O 0.66905 0.08409 0.42114 0.0
O159 O 0.83611 0.13028 0.43082 0.0
O160 O 0.85563 0.95536 0.48472 0.0
C161 C 0.83508 0.85915 0.498 0.0
C162 C 0.88873 0.11316 0.30445 0.0
O163 O 0.83987 0.7844 0.45798 0.0
C164 C 0.6915 0.84993 0.25941 0.0
O165 O 0.99299 0.88389 0.40489 0.0
O166 O 0.91253 0.76805 0.34368 0.0
O167 O 0.78516 0.11782 0.313 0.0
O168 O 0.94652 0.05044 0.33712 0.0
C169 C 0.58015 0.84107 0.41472 0.0
O170 O 0.717 0.77933 0.3007 0.0
O171 O 0.69249 0.94937 0.27173 0.0
C172 C 0.99149 0.79332 0.37721 0.0
O173 O 0.66414 0.79095 0.42157 0.0
O174 O 0.57562 0.91901 0.37509 0.0
C175 C 0.7399 0.13838 0.4491 0.0
loop_
_geom_bond_atom_site_label_1
_geom_bond_atom_site_label_2
_geom_bond_distance
_geom_bond_site_symmetry_2
_ccdc_geom_bond_type
Fe0 O2 1.918 . S
Fe0 O5 1.997 1_455 S
Fe0 O6 2.002 . S
Fe0 O11 1.976 . S
Fe0 O14 1.996 1_455 S
Fe1 O2 1.918 . S
Fe1 O9 1.997 . S
Fe1 O12 1.996 . S
Fe1 O16 1.976 . S
Fe1 O19 2.002 . S
O2 Fe0 1.918 . S
O2 Fe1 1.918 . S
O2 Fe3 1.918 . S
Fe3 O2 1.918 . S
Fe3 O4 2.002 1_455 S
Fe3 O13 1.976 1_455 S
Fe3 O17 1.996 . S
Fe3 O20 1.997 . S
O4 Fe3 2.002 1_655 S
O4 C21 1.295 . S
O5 Fe0 1.997 1_655 S
O5 C21 1.235 . S
O6 Fe0 2.002 . S
O6 C7 1.295 . S
C7 O6 1.295 . S
C7 O9 1.235 . S
C8 O13 1.287 . S
C8 O14 1.255 . S
O9 Fe1 1.997 . S
O9 C7 1.235 . S
C10 O16 1.287 . S
C10 O17 1.255 . S
O11 Fe0 1.976 . S
O11 C18 1.287 . S
O12 Fe1 1.996 . S
O12 C18 1.255 . S
O13 Fe3 1.976 1_655 S
O13 C8 1.287 . S
O14 Fe0 1.996 1_655 S
O14 C8 1.255 . S
C15 O19 1.295 . S
C15 O20 1.235 . S
O16 Fe1 1.976 . S
O16 C10 1.287 . S
O17 Fe3 1.996 . S
O17 C10 1.255 . S
C18 O11 1.287 . S
C18 O12 1.255 . S
O19 Fe1 2.002 . S
O19 C15 1.295 . S
O20 Fe3 1.997 . S
O20 C15 1.235 . S
C21 O4 1.295 . S
C21 O5 1.235 . S
Fe22 O24 1.918 . S
Fe22 O27 1.997 . S
Fe22 O28 2.002 . S
Fe22 O33 1.976 . S
Fe22 O36 1.996 . S
Fe23 O24 1.918 . S
Fe23 O31 1.997 . S
Fe23 O34 1.996 . S
Fe23 O38 1.976 . S
Fe23 O41 2.002 . S
O24 Fe22 1.918 . S
O24 Fe23 1.918 . S
O24 Fe25 1.918 . S
Fe25 O24 1.918 . S
Fe25 O26 2.002 . S
Fe25 O35 1.976 . S
Fe25 O39 1.996 . S
Fe25 O42 1.997 . S
O26 Fe25 2.002 . S
O26 C43 1.295 . S
O27 Fe22 1.997 . S
O27 C43 1.235 . S
O28 Fe22 2.002 . S
O28 C29 1.295 . S
C29 O28 1.295 . S
C29 O31 1.235 . S
C30 O35 1.287 . S
C30 O36 1.255 . S
O31 Fe23 1.997 . S
O31 C29 1.235 . S
C32 O38 1.287 . S
C32 O39 1.255 . S
O33 Fe22 1.976 . S
O33 C40 1.287 . S
O34 Fe23 1.996 . S
O34 C40 1.255 . S
O35 Fe25 1.976 . S
O35 C30 1.287 . S
O36 Fe22 1.996 . S
O36 C30 1.255 . S
C37 O41 1.295 . S
C37 O42 1.235 . S
O38 Fe23 1.976 . S
O38 C32 1.287 . S
O39 Fe25 1.996 . S
O39 C32 1.255 . S
C40 O33 1.287 . S
C40 O34 1.255 . S
O41 Fe23 2.002 . S
O41 C37 1.295 . S
O42 Fe25 1.997 . S
O42 C37 1.235 . S
C43 O26 1.295 . S
C43 O27 1.235 . S
Fe44 O46 1.918 . S
Fe44 O49 1.997 1_655 S
Fe44 O50 2.002 . S
Fe44 O55 1.976 . S
Fe44 O58 1.996 1_655 S
Fe45 O46 1.918 . S
Fe45 O53 1.997 . S
Fe45 O56 1.996 . S
Fe45 O60 1.976 . S
Fe45 O63 2.002 . S
O46 Fe44 1.918 . S
O46 Fe45 1.918 . S
O46 Fe47 1.918 . S
Fe47 O46 1.918 . S
Fe47 O48 2.002 1_655 S
Fe47 O57 1.976 1_655 S
Fe47 O61 1.996 . S
Fe47 O64 1.997 . S
O48 Fe47 2.002 1_455 S
O48 C65 1.295 . S
O49 Fe44 1.997 1_455 S
O49 C65 1.235 . S
O50 Fe44 2.002 . S
O50 C51 1.295 . S
C51 O50 1.295 . S
C51 O53 1.235 . S
C52 O57 1.287 . S
C52 O58 1.255 . S
O53 Fe45 1.997 . S
O53 C51 1.235 . S
C54 O60 1.287 . S
C54 O61 1.255 . S
O55 Fe44 1.976 . S
O55 C62 1.287 . S
O56 Fe45 1.996 . S
O56 C62 1.255 . S
O57 Fe47 1.976 1_455 S
O57 C52 1.287 . S
O58 Fe44 1.996 1_455 S
O58 C52 1.255 . S
C59 O63 1.295 . S
C59 O64 1.235 . S
O60 Fe45 1.976 . S
O60 C54 1.287 . S
O61 Fe47 1.996 . S
O61 C54 1.255 . S
C62 O55 1.287 . S
C62 O56 1.255 . S
O63 Fe45 2.002 . S
O63 C59 1.295 . S
O64 Fe47 1.997 . S
O64 C59 1.235 . S
C65 O48 1.295 . S
C65 O49 1.235 . S
Fe66 O68 1.918 . S
Fe66 O71 1.997 . S
Fe66 O72 2.002 . S
Fe66 O77 1.976 . S
Fe66 O80 1.996 1_556 S
Fe67 O68 1.918 . S
Fe67 O75 1.997 . S
Fe67 O78 1.996 . S
Fe67 O82 1.976 . S
Fe67 O85 2.002 . S
O68 Fe66 1.918 . S
O68 Fe67 1.918 . S
O68 Fe69 1.918 . S
Fe69 O68 1.918 . S
Fe69 O70 2.002 . S
Fe69 O79 1.976 . S
Fe69 O83 1.996 . S
Fe69 O86 1.997 . S
O70 Fe69 2.002 . S
O70 C87 1.295 . S
O71 Fe66 1.997 . S
O71 C87 1.235 . S
O72 Fe66 2.002 . S
O72 C73 1.295 . S
C73 O72 1.295 . S
C73 O75 1.235 . S
C74 O79 1.287 1_554 S
C74 O80 1.255 . S
O75 Fe67 1.997 . S
O75 C73 1.235 . S
C76 O82 1.287 . S
C76 O83 1.255 . S
O77 Fe66 1.976 . S
O77 C84 1.287 . S
O78 Fe67 1.996 . S
O78 C84 1.255 . S
O79 Fe69 1.976 . S
O79 C74 1.287 1_556 S
O80 Fe66 1.996 1_554 S
O80 C74 1.255 . S
C81 O85 1.295 . S
C81 O86 1.235 . S
O82 Fe67 1.976 . S
O82 C76 1.287 . S
O83 Fe69 1.996 . S
O83 C76 1.255 . S
C84 O77 1.287 . S
C84 O78 1.255 . S
O85 Fe67 2.002 . S
O85 C81 1.295 . S
O86 Fe69 1.997 . S
O86 C81 1.235 . S
C87 O70 1.295 . S
C87 O71 1.235 . S
Fe88 O90 1.918 . S
Fe88 O93 1.997 . S
Fe88 O94 2.002 . S
Fe88 O99 1.976 . S
Fe88 O102 1.996 . S
Fe89 O90 1.918 . S
Fe89 O97 1.997 . S
Fe89 O100 1.996 . S
Fe89 O104 1.976 . S
Fe89 O107 2.002 . S
O90 Fe88 1.918 . S
O90 Fe89 1.918 . S
O90 Fe91 1.918 . S
Fe91 O90 1.918 . S
Fe91 O92 2.002 . S
Fe91 O101 1.976 . S
Fe91 O105 1.996 . S
Fe91 O108 1.997 . S
O92 Fe91 2.002 . S
O92 C109 1.295 . S
O93 Fe88 1.997 . S
O93 C109 1.235 . S
O94 Fe88 2.002 . S
O94 C95 1.295 . S
C95 O94 1.295 . S
C95 O97 1.235 . S
C96 O101 1.287 . S
C96 O102 1.255 . S
O97 Fe89 1.997 . S
O97 C95 1.235 . S
C98 O104 1.287 . S
C98 O105 1.255 . S
O99 Fe88 1.976 . S
O99 C106 1.287 . S
O100 Fe89 1.996 . S
O100 C106 1.255 . S
O101 Fe91 1.976 . S
O101 C96 1.287 . S
O102 Fe88 1.996 . S
O102 C96 1.255 . S
C103 O107 1.295 . S
C103 O108 1.235 . S
O104 Fe89 1.976 . S
O104 C98 1.287 . S
O105 Fe91 1.996 . S
O105 C98 1.255 . S
C106 O99 1.287 . S
C106 O100 1.255 . S
O107 Fe89 2.002 . S
O107 C103 1.295 . S
O108 Fe91 1.997 . S
O108 C103 1.235 . S
C109 O92 1.295 . S
C109 O93 1.235 . S
Fe110 O112 1.918 . S
Fe110 O115 1.997 . S
Fe110 O116 2.002 . S
Fe110 O121 1.976 . S
Fe110 O124 1.996 . S
Fe111 O112 1.918 . S
Fe111 O119 1.997 . S
Fe111 O122 1.996 . S
Fe111 O126 1.976 1_545 S
Fe111 O129 2.002 1_545 S
O112 Fe110 1.918 . S
O112 Fe111 1.918 . S
O112 Fe113 1.918 . S
Fe113 O112 1.918 . S
Fe113 O114 2.002 . S
Fe113 O123 1.976 . S
Fe113 O127 1.996 1_545 S
Fe113 O130 1.997 1_545 S
O114 Fe113 2.002 . S
O114 C131 1.295 . S
O115 Fe110 1.997 . S
O115 C131 1.235 . S
O116 Fe110 2.002 . S
O116 C117 1.295 . S
C117 O116 1.295 . S
C117 O119 1.235 . S
C118 O123 1.287 . S
C118 O124 1.255 . S
O119 Fe111 1.997 . S
O119 C117 1.235 . S
C120 O126 1.287 . S
C120 O127 1.255 . S
O121 Fe110 1.976 . S
O121 C128 1.287 . S
O122 Fe111 1.996 . S
O122 C128 1.255 . S
O123 Fe113 1.976 . S
O123 C118 1.287 . S
O124 Fe110 1.996 . S
O124 C118 1.255 . S
C125 O129 1.295 . S
C125 O130 1.235 . S
O126 Fe111 1.976 1_565 S
O126 C120 1.287 . S
O127 Fe113 1.996 1_565 S
O127 C120 1.255 . S
C128 O121 1.287 . S
C128 O122 1.255 . S
O129 Fe111 2.002 1_565 S
O129 C125 1.295 . S
O130 Fe113 1.997 1_565 S
O130 C125 1.235 . S
C131 O114 1.295 . S
C131 O115 1.235 . S
Fe132 O134 1.918 . S
Fe132 O137 1.997 . S
Fe132 O138 2.002 . S
Fe132 O143 1.976 . S
Fe132 O146 1.996 . S
Fe133 O134 1.918 . S
Fe133 O141 1.997 . S
Fe133 O144 1.996 1_554 S
Fe133 O148 1.976 . S
Fe133 O151 2.002 . S
O134 Fe132 1.918 . S
O134 Fe133 1.918 . S
O134 Fe135 1.918 . S
Fe135 O134 1.918 . S
Fe135 O136 2.002 . S
Fe135 O145 1.976 . S
Fe135 O149 1.996 . S
Fe135 O152 1.997 . S
O136 Fe135 2.002 . S
O136 C153 1.295 . S
O137 Fe132 1.997 . S
O137 C153 1.235 . S
O138 Fe132 2.002 . S
O138 C139 1.295 . S
C139 O138 1.295 . S
C139 O141 1.235 . S
C140 O145 1.287 . S
C140 O146 1.255 . S
O141 Fe133 1.997 . S
O141 C139 1.235 . S
C142 O148 1.287 . S
C142 O149 1.255 . S
O143 Fe132 1.976 . S
O143 C150 1.287 1_554 S
O144 Fe133 1.996 1_556 S
O144 C150 1.255 . S
O145 Fe135 1.976 . S
O145 C140 1.287 . S
O146 Fe132 1.996 . S
O146 C140 1.255 . S
C147 O151 1.295 . S
C147 O152 1.235 . S
O148 Fe133 1.976 . S
O148 C142 1.287 . S
O149 Fe135 1.996 . S
O149 C142 1.255 . S
C150 O143 1.287 1_556 S
C150 O144 1.255 . S
O151 Fe133 2.002 . S
O151 C147 1.295 . S
O152 Fe135 1.997 . S
O152 C147 1.235 . S
C153 O136 1.295 . S
C153 O137 1.235 . S
Fe154 O156 1.918 . S
Fe154 O159 1.997 1_565 S
Fe154 O160 2.002 . S
Fe154 O165 1.976 . S
Fe154 O168 1.996 1_565 S
Fe155 O156 1.918 . S
Fe155 O163 1.997 . S
Fe155 O166 1.996 . S
Fe155 O170 1.976 . S
Fe155 O173 2.002 . S
O156 Fe154 1.918 . S
O156 Fe155 1.918 . S
O156 Fe157 1.918 . S
Fe157 O156 1.918 . S
Fe157 O158 2.002 1_565 S
Fe157 O167 1.976 1_565 S
Fe157 O171 1.996 . S
Fe157 O174 1.997 . S
O158 Fe157 2.002 1_545 S
O158 C175 1.295 . S
O159 Fe154 1.997 1_545 S
O159 C175 1.235 . S
O160 Fe154 2.002 . S
O160 C161 1.295 . S
C161 O160 1.295 . S
C161 O163 1.235 . S
C162 O167 1.287 . S
C162 O168 1.255 . S
O163 Fe155 1.997 . S
O163 C161 1.235 . S
C164 O170 1.287 . S
C164 O171 1.255 . S
O165 Fe154 1.976 . S
O165 C172 1.287 . S
O166 Fe155 1.996 . S
O166 C172 1.255 . S
O167 Fe157 1.976 1_545 S
O167 C162 1.287 . S
O168 Fe154 1.996 1_545 S
O168 C162 1.255 . S
C169 O173 1.295 . S
C169 O174 1.235 . S
O170 Fe155 1.976 . S
O170 C164 1.287 . S
O171 Fe157 1.996 . S
O171 C164 1.255 . S
C172 O165 1.287 . S
C172 O166 1.255 . S
O173 Fe155 2.002 . S
O173 C169 1.295 . S
O174 Fe157 1.997 . S
O174 C169 1.235 . S
C175 O158 1.295 . S
C175 O159 1.235 . S
C8 C162 1.820 . S
C32 C106 1.820 . S
C52 C120 1.820 . S
C142 C84 1.820 1_554 S
C10 C37 1.544 . S
C65 C40 1.544 . S
C73 C54 1.544 . S
C21 C74 1.544 . S
C96 C175 1.544 . S
C128 C95 1.544 . S
C150 C125 1.544 . S
C147 C164 1.544 . S
C131 C7 0.945 1_556 S
C153 C43 0.945 . S
C161 C51 0.945 . S
C103 C81 0.945 . S
C18 C139 1.859 1_545 S
C30 C169 1.859 . S
C109 C62 1.859 1_545 S
C117 C76 1.859 . S
C59 C98 1.859 . S
C118 C87 1.859 1_455 S
C140 C15 1.859 . S
C172 C29 1.859 1_655 S
