# Generated by pormake.
# Topology pcu, (6)-cn, num edge types: 1
# Building blocks:
#     Node 0, Type 0, BuildingBlock: CUWYAW_clean_sbu_0, # of connection points: 6
#     Edge 1, Type (0, 0), BuildingBlock: OJICUG_clean_linker_0, # of connection points: 2
#     Edge 2, Type (0, 0), BuildingBlock: OJICUG_clean_linker_0, # of connection points: 2
#     Edge 3, Type (0, 0), BuildingBlock: OJICUG_clean_linker_0, # of connection points: 2
# Relax obj value: 0.000
# Max RMSD: 0.000
# Mean RMSD: 0.000
data_MOF--net-pcu--node1-CUWYAW_clean_sbu_0--edge1-OJICUG_clean_linker_0
_symmetry_space_group_name_H-M    P1
_symmetry_Int_Tables_number       1
_symmetry_cell_setting            triclinic
loop_
_symmetry_equiv_pos_as_xyz
'x, y, z'
_cell_length_a     21.294292
_cell_length_b     11.475246
_cell_length_c     10.301726
_cell_angle_alpha  90.991687
_cell_angle_beta   98.756725
_cell_angle_gamma 120.04703
loop_
_atom_site_label
_atom_site_type_symbol
_atom_site_fract_x
_atom_site_fract_y
_atom_site_fract_z
_atom_type_partial_charge
C0 C 0.2526 0.14673 0.98035 0.0
Eu1 Eu 0.1187 0.05085 0.02387 0.0
C2 C 0.30925 0.10753 0.98938 0.0
C3 C 0.38326 0.205 0.03896 0.0
C4 C 0.43827 0.1712 0.04694 0.0
C5 C 0.42032 0.03895 1.00526 0.0
C6 C 0.34589 0.94121 0.95601 0.0
C7 C 0.2909 -0.02483 0.94819 0.0
C8 C 0.07675 0.0188 0.26227 0.0
C9 C 1.03212 0.71994 1.01579 0.0
C10 C 0.81797 0.7947 0.05648 0.0
Eu11 Eu 0.95205 0.89091 1.01376 0.0
C12 C 0.76134 0.83394 0.04758 0.0
C13 C 0.68733 0.73651 0.99799 0.0
C14 C 0.63234 0.77036 0.99006 0.0
C15 C 0.65031 0.90262 0.03179 0.0
C16 C 0.72475 0.0003 0.08107 0.0
C17 C 0.77972 0.9663 0.08884 0.0
C18 C 0.99443 0.92304 0.77554 0.0
C19 C 0.03864 0.22183 0.0222 0.0
O20 O 0.19329 0.0782 0.88907 0.0
O21 O 0.238 0.17363 0.09212 0.0
O22 O 0.1336 0.12756 0.2372 0.0
O23 O 0.04778 0.93024 0.1641 0.0
O24 O 0.09009 0.83146 0.99065 0.0
O25 O 0.97445 0.72118 0.04649 0.0
O26 O 0.87713 0.86272 0.14816 0.0
O27 O 0.8328 0.76852 0.94468 0.0
O28 O 0.93765 0.81408 0.80051 0.0
O29 O 1.02289 0.01147 0.8737 0.0
O30 O 0.98068 0.11029 0.04734 0.0
O31 O 0.09629 0.22059 0.99136 0.0
H32 H 0.39863 0.30783 0.0708 0.0
H33 H 0.49505 0.24939 0.08374 0.0
H34 H 0.32999 0.83804 0.9246 0.0
H35 H 0.23416 0.89813 0.90959 0.0
H36 H 0.67194 0.63368 0.96608 0.0
H37 H 0.57556 0.6922 0.95324 0.0
H38 H 0.74067 0.10347 0.11253 0.0
H39 H 0.83647 0.04329 0.12746 0.0
C40 C 0.09323 0.09762 0.49937 0.0
C41 C 0.05545 -0.00532 0.39333 0.0
H42 H 0.1035 0.15547 0.70392 0.0
C43 C 0.9977 0.86786 0.414 0.0
H44 H 0.13798 0.19631 0.48612 0.0
C45 C 0.97809 0.8444 0.53856 0.0
C46 C 1.01585 0.94733 0.64459 0.0
H47 H 0.96777 0.78654 0.33403 0.0
H48 H 0.93333 0.7457 0.55177 0.0
C49 C 0.0736 0.07417 0.62393 0.0
C50 C 0.47786 0.92027 0.90899 0.0
C51 C 0.47911 0.0036 1.01229 0.0
H52 H 0.53126 0.82517 0.83291 0.0
C53 C 0.53729 0.05371 0.12191 0.0
H54 H 0.43456 0.88174 0.82214 0.0
C55 C 0.5928 0.02135 0.12805 0.0
C56 C 0.59154 0.93802 0.02475 0.0
H57 H 0.53939 0.11646 0.20412 0.0
H58 H 0.6361 0.05988 0.2149 0.0
C59 C 0.53337 0.88792 0.91513 0.0
C60 C 0.09565 0.5889 0.99077 0.0
C61 C 1.03363 0.59235 1.01659 0.0
H62 H 0.14609 0.46999 0.97272 0.0
C63 C 0.97338 0.47292 0.04492 0.0
H64 H 0.14309 0.67892 0.96893 0.0
C65 C 0.97513 0.35288 0.04735 0.0
C66 C 0.03714 0.34943 0.0215 0.0
H67 H 0.92468 0.4718 0.06539 0.0
H68 H 0.92769 0.26286 0.06919 0.0
C69 C 0.0974 0.46887 0.9932 0.0
loop_
_geom_bond_atom_site_label_1
_geom_bond_atom_site_label_2
_geom_bond_distance
_geom_bond_site_symmetry_2
_ccdc_geom_bond_type
C0 Eu1 2.835 . S
C0 C2 1.500 . S
C0 O20 1.257 1_554 S
C0 O21 1.260 . S
Eu1 C0 2.835 . S
Eu1 O20 2.473 1_554 S
Eu1 O21 2.480 . S
Eu1 O22 2.430 . S
Eu1 O23 2.670 1_455 S
Eu1 O24 2.394 1_545 S
Eu1 O29 2.355 1_544 S
Eu1 O31 2.374 . S
C2 C0 1.500 . S
C2 C3 1.377 . S
C2 C7 1.377 1_544 S
C3 C2 1.377 . S
C3 C4 1.395 . S
C3 H32 0.931 . S
C4 C3 1.395 . S
C4 C5 1.383 . S
C4 H33 0.931 . S
C5 C4 1.383 . S
C5 C6 1.394 1_544 S
C6 C5 1.394 1_566 S
C6 C7 1.378 . S
C6 H34 0.931 . S
C7 C2 1.377 1_566 S
C7 C6 1.378 . S
C7 H35 0.931 . S
C8 O22 1.259 . S
C8 O23 1.270 1_455 S
C9 O24 1.251 1_655 S
C9 O25 1.251 1_554 S
C10 Eu11 2.835 . S
C10 C12 1.500 . S
C10 O26 1.257 1_556 S
C10 O27 1.260 . S
Eu11 C10 2.835 . S
Eu11 O23 2.355 1_566 S
Eu11 O25 2.374 . S
Eu11 O26 2.473 1_556 S
Eu11 O27 2.480 . S
Eu11 O28 2.430 . S
Eu11 O29 2.670 1_655 S
Eu11 O30 2.394 1_565 S
C12 C10 1.500 . S
C12 C13 1.377 . S
C12 C17 1.377 1_566 S
C13 C12 1.377 . S
C13 C14 1.395 . S
C13 H36 0.931 . S
C14 C13 1.395 . S
C14 C15 1.387 . S
C14 H37 0.931 . S
C15 C14 1.387 . S
C15 C16 1.396 1_566 S
C16 C15 1.396 1_544 S
C16 C17 1.378 . S
C16 H38 0.931 . S
C17 C12 1.377 1_544 S
C17 C16 1.378 . S
C17 H39 0.931 . S
C18 O28 1.259 . S
C18 O29 1.270 1_655 S
C19 O30 1.251 1_455 S
C19 O31 1.251 1_556 S
O20 C0 1.257 1_556 S
O20 Eu1 2.473 1_556 S
O21 C0 1.260 . S
O21 Eu1 2.480 . S
O22 Eu1 2.430 . S
O22 C8 1.259 . S
O23 Eu1 2.670 1_655 S
O23 C8 1.270 1_655 S
O23 Eu11 2.355 1_544 S
O24 Eu1 2.394 1_565 S
O24 C9 1.251 1_455 S
O25 C9 1.251 1_556 S
O25 Eu11 2.374 . S
O26 C10 1.257 1_554 S
O26 Eu11 2.473 1_554 S
O27 C10 1.260 . S
O27 Eu11 2.480 . S
O28 Eu11 2.430 . S
O28 C18 1.259 . S
O29 Eu1 2.355 1_566 S
O29 Eu11 2.670 1_455 S
O29 C18 1.270 1_455 S
O30 Eu11 2.394 1_545 S
O30 C19 1.251 1_655 S
O31 Eu1 2.374 . S
O31 C19 1.251 1_554 S
H32 C3 0.931 . S
H33 C4 0.931 . S
H34 C6 0.931 . S
H35 C7 0.931 . S
H36 C13 0.931 . S
H37 C14 0.931 . S
H38 C16 0.931 . S
H39 C17 0.931 . S
C40 C41 1.389 1_455 S
C40 H44 0.950 . S
C40 C49 1.390 . S
C41 C40 1.389 1_655 S
C41 C43 1.386 1_565 S
H42 C49 0.950 . S
C43 C41 1.386 1_545 S
C43 C45 1.390 . S
C43 H47 0.950 . S
H44 C40 0.950 . S
C45 C43 1.390 . S
C45 C46 1.388 1_655 S
C45 H48 0.950 . S
C46 C45 1.388 1_455 S
C46 C49 1.388 1_545 S
H47 C43 0.950 . S
H48 C45 0.950 . S
C49 C40 1.390 . S
C49 H42 0.950 . S
C49 C46 1.388 1_565 S
C50 C51 1.388 1_545 S
C50 H54 0.950 . S
C50 C59 1.390 . S
C51 C50 1.388 1_565 S
C51 C53 1.390 1_556 S
H52 C59 0.950 . S
C53 C51 1.390 1_554 S
C53 C55 1.390 . S
C53 H57 0.950 . S
H54 C50 0.950 . S
C55 C53 1.390 . S
C55 C56 1.390 1_565 S
C55 H58 0.950 . S
C56 C55 1.390 1_545 S
C56 C59 1.390 1_554 S
H57 C53 0.950 . S
H58 C55 0.950 . S
C59 C50 1.390 . S
C59 H52 0.950 . S
C59 C56 1.390 1_556 S
C60 C61 1.387 1_556 S
C60 H64 0.950 . S
C60 C69 1.390 . S
C61 C60 1.387 1_554 S
C61 C63 1.387 1_655 S
H62 C69 0.950 . S
C63 C61 1.387 1_455 S
C63 C65 1.390 . S
C63 H67 0.950 . S
H64 C60 0.950 . S
C65 C63 1.390 . S
C65 C66 1.386 . S
C65 H68 0.950 . S
C66 C65 1.386 . S
C66 C69 1.386 1_454 S
H67 C63 0.950 . S
H68 C65 0.950 . S
C69 C60 1.390 . S
C69 H62 0.950 . S
C69 C66 1.386 1_656 S
C41 C8 1.453 1_665 S
C46 C18 1.452 1_445 S
C51 C5 1.497 1_566 S
C56 C15 1.490 1_544 S
C61 C9 1.489 . S
C66 C19 1.492 1_554 S
