# Generated by pormake.
# Topology sra, (4)-cn, num edge types: 1
# Building blocks:
#     Node 0, Type 0, BuildingBlock: NAHDIM_clean_sbu_0, # of connection points: 4
#     Node 1, Type 0, BuildingBlock: NAHDIM_clean_sbu_0, # of connection points: 4
#     Node 2, Type 0, BuildingBlock: NAHDIM_clean_sbu_0, # of connection points: 4
#     Node 3, Type 0, BuildingBlock: NAHDIM_clean_sbu_0, # of connection points: 4
#     Node 4, Type 0, BuildingBlock: NAHDIM_clean_sbu_0, # of connection points: 4
#     Node 5, Type 0, BuildingBlock: NAHDIM_clean_sbu_0, # of connection points: 4
#     Node 6, Type 0, BuildingBlock: NAHDIM_clean_sbu_0, # of connection points: 4
#     Node 7, Type 0, BuildingBlock: NAHDIM_clean_sbu_0, # of connection points: 4
#     Edge 8, Type (0, 0), None
#     Edge 9, Type (0, 0), None
#     Edge 10, Type (0, 0), None
#     Edge 11, Type (0, 0), None
#     Edge 12, Type (0, 0), None
#     Edge 13, Type (0, 0), None
#     Edge 14, Type (0, 0), None
#     Edge 15, Type (0, 0), None
#     Edge 16, Type (0, 0), None
#     Edge 17, Type (0, 0), None
#     Edge 18, Type (0, 0), None
#     Edge 19, Type (0, 0), None
#     Edge 20, Type (0, 0), None
#     Edge 21, Type (0, 0), None
#     Edge 22, Type (0, 0), None
#     Edge 23, Type (0, 0), None
# Relax obj value: 0.088
# Max RMSD: 0.093
# Mean RMSD: 0.093
data_MOF--net-sra--node1-NAHDIM_clean_sbu_0--edge1-none
_symmetry_space_group_name_H-M    P1
_symmetry_Int_Tables_number       1
_symmetry_cell_setting            triclinic
loop_
_symmetry_equiv_pos_as_xyz
'x, y, z'
_cell_length_a     10.45542
_cell_length_b     22.444286
_cell_length_c     19.982304
_cell_angle_alpha  89.999992
_cell_angle_beta   89.999994
_cell_angle_gamma 90.001097
loop_
_atom_site_label
_atom_site_type_symbol
_atom_site_fract_x
_atom_site_fract_y
_atom_site_fract_z
_atom_type_partial_charge
C0 C 1.01116 0.00309 0.0024 0.0
O1 O 0.02651 0.96489 0.05145 0.0
O2 O 0.88517 0.07248 0.17101 0.0
Zn3 Zn 0.03124 0.09153 0.1079 0.0
O4 O 0.20329 0.06639 0.14387 0.0
C5 C 0.03897 0.21012 0.15584 0.0
O6 O 0.03616 0.18127 0.21297 0.0
O7 O 1.00735 0.05851 0.01494 0.0
C8 C 0.22531 0.05831 0.20569 0.0
O9 O 0.1308 0.06128 0.24882 0.0
C10 C 0.84514 0.02305 0.19393 0.0
O11 O 0.90026 0.97298 0.17614 0.0
O12 O 0.03709 0.18106 0.10129 0.0
C13 C 0.07203 0.48233 0.00242 0.0
O14 O 0.05651 0.52052 0.05147 0.0
O15 O 0.19804 0.41293 0.17104 0.0
Zn16 Zn 0.052 0.39388 0.10792 0.0
O17 O 0.87994 0.41902 0.14386 0.0
C18 C 0.04424 0.2753 0.15585 0.0
O19 O 0.04702 0.30414 0.21297 0.0
O20 O 0.07595 0.42691 0.01496 0.0
C21 C 0.85791 0.42711 0.20569 0.0
O22 O 0.95242 0.42414 0.24882 0.0
C23 C 0.23809 0.46237 0.19393 0.0
O24 O 0.18303 0.51243 0.1761 0.0
O25 O 0.04614 0.30436 0.1013 0.0
C26 C 1.01114 0.98233 0.93289 0.0
O27 O 0.02639 0.02054 0.88383 0.0
O28 O 0.88517 0.91294 0.76429 0.0
Zn29 Zn 0.03124 0.89389 0.82738 0.0
O30 O 0.20329 0.91902 0.79141 0.0
C31 C 0.03898 0.7753 0.77945 0.0
O32 O 0.0362 0.80414 0.72232 0.0
O33 O 1.0074 0.92691 0.92035 0.0
C34 C 0.22532 0.92711 0.72959 0.0
O35 O 0.1308 0.92414 0.68646 0.0
C36 C 0.8452 0.96237 0.74134 0.0
O37 O 0.90039 0.01243 0.75908 0.0
O38 O 0.03708 0.80436 0.834 0.0
C39 C 0.07212 0.5031 0.93291 0.0
O40 O 0.0571 0.46488 0.88384 0.0
O41 O 0.19801 0.57247 0.76434 0.0
Zn42 Zn 0.0519 0.59153 0.8274 0.0
O43 O 0.87987 0.56639 0.79141 0.0
C44 C 0.04422 0.71012 0.77945 0.0
O45 O 0.04707 0.68127 0.72233 0.0
O46 O 0.07569 0.55852 0.92038 0.0
C47 C 0.85786 0.55832 0.72958 0.0
O48 O 0.95237 0.56131 0.68645 0.0
C49 C 0.23781 0.52305 0.74128 0.0
O50 O 0.18238 0.47301 0.75888 0.0
O51 O 0.04606 0.68106 0.834 0.0
C52 C 0.51127 0.50308 0.50242 0.0
O53 O 0.52688 0.46489 0.55147 0.0
O54 O 0.38518 0.57249 0.67106 0.0
Zn55 Zn 0.5312 0.59153 0.60793 0.0
O56 O 0.70327 0.56641 0.64387 0.0
C57 C 0.53898 0.71012 0.65585 0.0
O58 O 0.53623 0.68128 0.71298 0.0
O59 O 0.50727 0.5585 0.51497 0.0
C60 C 0.72529 0.5583 0.7057 0.0
O61 O 0.63078 0.56123 0.74883 0.0
C62 C 0.34492 0.52305 0.69384 0.0
O63 O 0.39972 0.47296 0.67587 0.0
O64 O 0.53704 0.68106 0.6013 0.0
C65 C 0.57198 0.98233 0.5024 0.0
O66 O 0.55661 0.02053 0.55145 0.0
O67 O 0.69801 0.91294 0.67101 0.0
Zn68 Zn 0.55194 0.89388 0.60791 0.0
O69 O 0.37989 0.91902 0.64387 0.0
C70 C 0.54423 0.7753 0.65585 0.0
O71 O 0.54706 0.80415 0.71297 0.0
O72 O 0.57581 0.92691 0.51494 0.0
C73 C 0.35789 0.92711 0.7057 0.0
O74 O 0.45239 0.92415 0.74883 0.0
C75 C 0.73809 0.96237 0.6939 0.0
O76 O 0.68305 0.01244 0.67607 0.0
O77 O 0.54609 0.80436 0.6013 0.0
C78 C 0.51119 0.48233 0.43291 0.0
O79 O 0.5263 0.52054 0.38385 0.0
O80 O 0.3852 0.41295 0.26431 0.0
Zn81 Zn 0.5313 0.39389 0.32739 0.0
O82 O 0.70334 0.41902 0.2914 0.0
C83 C 0.53899 0.2753 0.27945 0.0
O84 O 0.53618 0.30415 0.22232 0.0
O85 O 0.50753 0.42691 0.42037 0.0
C86 C 0.72534 0.42711 0.22957 0.0
O87 O 0.63083 0.42415 0.18644 0.0
C88 C 0.3452 0.46237 0.24137 0.0
O89 O 0.40037 0.51244 0.25911 0.0
O90 O 0.53713 0.30436 0.334 0.0
C91 C 0.572 0.00309 0.43289 0.0
O92 O 0.55672 0.96488 0.38383 0.0
O93 O 0.69801 0.07248 0.26428 0.0
Zn94 Zn 0.55194 0.09153 0.32738 0.0
O95 O 0.37989 0.0664 0.2914 0.0
C96 C 0.54423 0.21012 0.27944 0.0
O97 O 0.54701 0.18128 0.22232 0.0
O98 O 0.57577 0.05851 0.42035 0.0
C99 C 0.35788 0.05831 0.22958 0.0
O100 O 0.45239 0.06127 0.18644 0.0
C101 C 0.73804 0.02305 0.24137 0.0
O102 O 0.68291 0.97298 0.25915 0.0
O103 O 0.54611 0.18106 0.33399 0.0
loop_
_geom_bond_atom_site_label_1
_geom_bond_atom_site_label_2
_geom_bond_distance
_geom_bond_site_symmetry_2
_ccdc_geom_bond_type
C0 O1 1.160 1_445 S
C0 O7 1.185 . S
O1 C0 1.160 1_665 S
O2 Zn3 1.899 1_655 S
O2 C10 1.284 . S
Zn3 O2 1.899 1_455 S
Zn3 O4 2.032 . S
Zn3 O7 2.086 . S
Zn3 O12 1.977 . S
O4 Zn3 2.032 . S
O4 C8 1.278 . S
C5 O6 1.203 1_455 S
C5 O12 1.267 . S
O6 C5 1.203 1_655 S
O7 C0 1.185 . S
O7 Zn3 2.086 . S
C8 O4 1.278 . S
C8 O9 1.211 . S
O9 C8 1.211 . S
C10 O2 1.284 . S
C10 O11 1.273 . S
O11 C10 1.273 . S
O12 Zn3 1.977 . S
O12 C5 1.267 . S
C13 O14 1.160 . S
C13 O20 1.185 1_455 S
O14 C13 1.160 . S
O15 Zn16 1.899 . S
O15 C23 1.284 . S
Zn16 O15 1.899 . S
Zn16 O17 2.032 1_455 S
Zn16 O20 2.086 1_455 S
Zn16 O25 1.977 1_455 S
O17 Zn16 2.032 1_655 S
O17 C21 1.278 . S
C18 O19 1.203 . S
C18 O25 1.267 1_455 S
O19 C18 1.203 . S
O20 C13 1.185 1_655 S
O20 Zn16 2.086 1_655 S
C21 O17 1.278 . S
C21 O22 1.211 . S
O22 C21 1.211 . S
C23 O15 1.284 . S
C23 O24 1.273 . S
O24 C23 1.273 . S
O25 Zn16 1.977 1_655 S
O25 C18 1.267 1_655 S
C26 O27 1.160 1_465 S
C26 O33 1.185 . S
O27 C26 1.160 1_645 S
O28 Zn29 1.899 1_655 S
O28 C36 1.284 . S
Zn29 O28 1.899 1_455 S
Zn29 O30 2.032 . S
Zn29 O33 2.086 . S
Zn29 O38 1.977 . S
O30 Zn29 2.032 . S
O30 C34 1.278 . S
C31 O32 1.203 1_455 S
C31 O38 1.267 . S
O32 C31 1.203 1_655 S
O33 C26 1.185 . S
O33 Zn29 2.086 . S
C34 O30 1.278 . S
C34 O35 1.211 . S
O35 C34 1.211 . S
C36 O28 1.284 . S
C36 O37 1.273 . S
O37 C36 1.273 . S
O38 Zn29 1.977 . S
O38 C31 1.267 . S
C39 O40 1.160 . S
C39 O46 1.185 1_455 S
O40 C39 1.160 . S
O41 Zn42 1.899 . S
O41 C49 1.284 . S
Zn42 O41 1.899 . S
Zn42 O43 2.032 1_455 S
Zn42 O46 2.086 1_455 S
Zn42 O51 1.977 1_455 S
O43 Zn42 2.032 1_655 S
O43 C47 1.278 . S
C44 O45 1.203 . S
C44 O51 1.267 1_455 S
O45 C44 1.203 . S
O46 C39 1.185 1_655 S
O46 Zn42 2.086 1_655 S
C47 O43 1.278 . S
C47 O48 1.211 . S
O48 C47 1.211 . S
C49 O41 1.284 . S
C49 O50 1.273 . S
O50 C49 1.273 . S
O51 Zn42 1.977 1_655 S
O51 C44 1.267 1_655 S
C52 O53 1.160 . S
C52 O59 1.185 . S
O53 C52 1.160 . S
O54 Zn55 1.899 . S
O54 C62 1.284 . S
Zn55 O54 1.899 . S
Zn55 O56 2.032 . S
Zn55 O59 2.086 . S
Zn55 O64 1.977 . S
O56 Zn55 2.032 . S
O56 C60 1.278 . S
C57 O58 1.203 . S
C57 O64 1.267 . S
O58 C57 1.203 . S
O59 C52 1.185 . S
O59 Zn55 2.086 . S
C60 O56 1.278 . S
C60 O61 1.211 . S
O61 C60 1.211 . S
C62 O54 1.284 . S
C62 O63 1.273 . S
O63 C62 1.273 . S
O64 Zn55 1.977 . S
O64 C57 1.267 . S
C65 O66 1.160 1_565 S
C65 O72 1.185 . S
O66 C65 1.160 1_545 S
O67 Zn68 1.899 . S
O67 C75 1.284 . S
Zn68 O67 1.899 . S
Zn68 O69 2.032 . S
Zn68 O72 2.086 . S
Zn68 O77 1.977 . S
O69 Zn68 2.032 . S
O69 C73 1.278 . S
C70 O71 1.203 . S
C70 O77 1.267 . S
O71 C70 1.203 . S
O72 C65 1.185 . S
O72 Zn68 2.086 . S
C73 O69 1.278 . S
C73 O74 1.211 . S
O74 C73 1.211 . S
C75 O67 1.284 . S
C75 O76 1.273 . S
O76 C75 1.273 . S
O77 Zn68 1.977 . S
O77 C70 1.267 . S
C78 O79 1.160 . S
C78 O85 1.185 . S
O79 C78 1.160 . S
O80 Zn81 1.899 . S
O80 C88 1.284 . S
Zn81 O80 1.899 . S
Zn81 O82 2.032 . S
Zn81 O85 2.086 . S
Zn81 O90 1.977 . S
O82 Zn81 2.032 . S
O82 C86 1.278 . S
C83 O84 1.203 . S
C83 O90 1.267 . S
O84 C83 1.203 . S
O85 C78 1.185 . S
O85 Zn81 2.086 . S
C86 O82 1.278 . S
C86 O87 1.211 . S
O87 C86 1.211 . S
C88 O80 1.284 . S
C88 O89 1.273 . S
O89 C88 1.273 . S
O90 Zn81 1.977 . S
O90 C83 1.267 . S
C91 O92 1.160 1_545 S
C91 O98 1.185 . S
O92 C91 1.160 1_565 S
O93 Zn94 1.899 . S
O93 C101 1.284 . S
Zn94 O93 1.899 . S
Zn94 O95 2.032 . S
Zn94 O98 2.086 . S
Zn94 O103 1.977 . S
O95 Zn94 2.032 . S
O95 C99 1.278 . S
C96 O97 1.203 . S
C96 O103 1.267 . S
O97 C96 1.203 . S
O98 C91 1.185 . S
O98 Zn94 2.086 . S
C99 O95 1.278 . S
C99 O100 1.211 . S
O100 C99 1.211 . S
C101 O93 1.284 . S
C101 O102 1.273 . S
O102 C101 1.273 . S
O103 Zn94 1.977 . S
O103 C96 1.267 . S
C18 C5 1.363 . S
C31 C44 1.362 . S
C57 C70 1.363 . S
C83 C96 1.362 . S
C99 C8 1.204 . S
C86 C21 1.204 . S
C34 C73 1.204 . S
C60 C47 1.204 . S
C75 C36 1.586 . S
C62 C49 1.587 . S
C101 C10 1.586 . S
C23 C88 1.587 . S
C0 C26 1.335 1_544 S
C39 C13 1.335 1_556 S
C78 C52 1.335 . S
C65 C91 1.335 1_565 S
