# Generated by pormake.
# Topology snz, (6)-cn, num edge types: 1
# Building blocks:
#     Node 0, Type 0, BuildingBlock: BETDEL_clean_sbu_0, # of connection points: 6
#     Node 1, Type 0, BuildingBlock: BETDEL_clean_sbu_0, # of connection points: 6
#     Node 2, Type 0, BuildingBlock: BETDEL_clean_sbu_0, # of connection points: 6
#     Node 3, Type 0, BuildingBlock: BETDEL_clean_sbu_0, # of connection points: 6
#     Node 4, Type 0, BuildingBlock: BETDEL_clean_sbu_0, # of connection points: 6
#     Node 5, Type 0, BuildingBlock: BETDEL_clean_sbu_0, # of connection points: 6
#     Node 6, Type 0, BuildingBlock: BETDEL_clean_sbu_0, # of connection points: 6
#     Node 7, Type 0, BuildingBlock: BETDEL_clean_sbu_0, # of connection points: 6
#     Node 8, Type 0, BuildingBlock: BETDEL_clean_sbu_0, # of connection points: 6
#     Edge 9, Type (0, 0), None
#     Edge 10, Type (0, 0), None
#     Edge 11, Type (0, 0), None
#     Edge 12, Type (0, 0), None
#     Edge 13, Type (0, 0), None
#     Edge 14, Type (0, 0), None
#     Edge 15, Type (0, 0), None
#     Edge 16, Type (0, 0), None
#     Edge 17, Type (0, 0), None
#     Edge 18, Type (0, 0), None
#     Edge 19, Type (0, 0), None
#     Edge 20, Type (0, 0), None
#     Edge 21, Type (0, 0), None
#     Edge 22, Type (0, 0), None
#     Edge 23, Type (0, 0), None
#     Edge 24, Type (0, 0), None
#     Edge 25, Type (0, 0), None
#     Edge 26, Type (0, 0), None
#     Edge 27, Type (0, 0), None
#     Edge 28, Type (0, 0), None
#     Edge 29, Type (0, 0), None
#     Edge 30, Type (0, 0), None
#     Edge 31, Type (0, 0), None
#     Edge 32, Type (0, 0), None
#     Edge 33, Type (0, 0), None
#     Edge 34, Type (0, 0), None
#     Edge 35, Type (0, 0), None
# Relax obj value: 0.319
# Max RMSD: 0.242
# Mean RMSD: 0.177
data_MOF--net-snz--node1-BETDEL_clean_sbu_0--edge1-none
_symmetry_space_group_name_H-M    P1
_symmetry_Int_Tables_number       1
_symmetry_cell_setting            triclinic
loop_
_symmetry_equiv_pos_as_xyz
'x, y, z'
_cell_length_a     26.175417
_cell_length_b     26.101905
_cell_length_c     6.4058315
_cell_angle_alpha  90.574525
_cell_angle_beta   90.556057
_cell_angle_gamma 120.50329
loop_
_atom_site_label
_atom_site_type_symbol
_atom_site_fract_x
_atom_site_fract_y
_atom_site_fract_z
_atom_type_partial_charge
Dy0 Dy 0.13773 0.44757 0.08794 0.0
C1 C 0.96637 0.52781 1.00748 0.0
C2 C 0.20862 0.41137 0.25492 0.0
Dy3 Dy 0.02363 0.4684 0.119 0.0
O4 O 0.22748 0.45535 0.12476 0.0
O5 O 0.15206 0.38702 0.28401 0.0
O6 O 0.14081 0.45018 0.72709 0.0
O7 O 0.07987 0.46211 0.88739 0.0
C8 C 0.09514 0.45755 0.70491 0.0
C9 C 0.06552 0.45755 0.50203 0.0
O10 O 0.98094 0.37233 1.00289 0.0
O11 O 0.06007 0.35498 1.06051 0.0
O12 O 0.94441 0.47061 0.97978 0.0
O13 O 0.01728 0.55081 0.10248 0.0
O14 O 0.01855 0.46259 0.47957 0.0
O15 O 0.08207 0.45541 0.31962 0.0
O16 O 0.17886 0.53984 0.21536 0.0
O17 O 0.10677 0.55523 1.06674 0.0
C18 C 0.00428 0.33689 1.00592 0.0
C19 C 0.15746 0.57456 0.16996 0.0
Dy20 Dy 0.64612 0.57945 0.10449 0.0
C21 C 0.56682 0.32689 1.01558 0.0
C22 C 0.6856 0.68711 0.2828 0.0
Dy23 Dy 0.62629 0.44448 0.13081 0.0
O24 O 0.6428 0.66363 0.14244 0.0
O25 O 0.70743 0.65307 0.31683 0.0
O26 O 0.64345 0.58003 0.74284 0.0
O27 O 0.63023 0.50636 0.90106 0.0
C28 C 0.63566 0.52657 0.71904 0.0
C29 C 0.63775 0.49765 0.5163 0.0
O30 O 0.71908 0.49854 0.99603 0.0
O31 O 0.73755 0.59486 0.0751 0.0
O32 O 0.62468 0.36018 1.02385 0.0
O33 O 0.543 0.35751 1.07311 0.0
O34 O 0.63279 0.44549 0.49265 0.0
O35 O 0.64047 0.51652 0.33401 0.0
O36 O 0.5544 0.52775 0.2256 0.0
O37 O 0.5375 0.43694 0.09419 0.0
C38 C 0.75438 0.55789 1.00409 0.0
C39 C 0.51946 0.47023 0.18842 0.0
Dy40 Dy 0.51825 0.95086 0.09058 0.0
C41 C 0.76112 0.12076 0.97327 0.0
C42 C 0.41164 0.88302 0.26592 0.0
Dy43 Dy 0.65069 0.07143 0.13072 0.0
O44 O 0.43331 0.86288 0.12522 0.0
O45 O 0.44692 0.93936 0.30181 0.0
O46 O 0.51789 0.94722 0.72818 0.0
O47 O 0.58846 0.01263 0.8958 0.0
C48 C 0.56959 0.99601 0.71079 0.0
C49 C 0.59891 0.02701 0.51043 0.0
O50 O 0.59564 0.10839 1.00116 0.0
O51 O 0.50056 0.02592 1.05953 0.0
O52 O 0.74205 0.15141 0.07617 0.0
O53 O 0.72044 0.06535 0.95842 0.0
O54 O 0.65005 0.07644 0.49291 0.0
O55 O 0.58071 0.00964 0.32545 0.0
O56 O 0.57221 0.91194 0.20813 0.0
O57 O 0.66616 0.99579 0.16055 0.0
C58 C 0.53653 0.08175 1.00248 0.0
C59 C 0.63099 0.93964 0.2105 0.0
Dy60 Dy 0.8474 0.85338 0.41934 0.0
C61 C 0.66277 0.91093 0.28404 0.0
C62 C 0.9042 0.79367 0.53264 0.0
Dy63 Dy 0.73336 0.87427 0.45031 0.0
O64 O 0.92701 0.85115 0.55474 0.0
O65 O 0.85264 0.77047 0.44232 0.0
O66 O 0.85238 0.85899 1.0587 0.0
O67 O 0.78888 0.86623 0.21863 0.0
C68 C 0.80542 0.86405 1.03625 0.0
C69 C 0.77594 0.86431 0.83339 0.0
O70 O 0.69218 0.78197 0.32278 0.0
O71 O 0.76425 0.76659 0.47152 0.0
O72 O 0.6437 0.86667 0.41307 0.0
O73 O 0.71933 0.93523 0.25539 0.0
O74 O 0.73007 0.87134 0.81115 0.0
O75 O 0.79153 0.86023 0.65096 0.0
O76 O 0.89007 0.94941 0.53609 0.0
O77 O 0.81107 0.96686 0.47722 0.0
C78 C 0.71355 0.74724 0.36838 0.0
C79 C 0.86682 0.98492 0.53235 0.0
Dy80 Dy 0.24466 0.8771 0.40796 0.0
C81 C 0.18544 0.63464 0.25585 0.0
C82 C 0.30455 0.9943 0.5268 0.0
Dy83 Dy 0.22526 0.74233 0.43432 0.0
O84 O 0.24683 0.96252 0.50288 0.0
O85 O 0.328 0.96233 0.48394 0.0
O86 O 0.23865 0.87628 1.0461 0.0
O87 O 0.23093 0.80523 0.20482 0.0
C88 C 0.23379 0.82415 1.02256 0.0
C89 C 0.23566 0.79515 0.81978 0.0
O90 O 0.31705 0.79409 0.31314 0.0
O91 O 0.33384 0.88543 0.43898 0.0
O92 O 0.2283 0.65802 0.39602 0.0
O93 O 0.16375 0.66881 0.22194 0.0
O94 O 0.22865 0.742 0.79598 0.0
O95 O 0.24008 0.81502 0.63773 0.0
O96 O 0.1521 0.82291 0.54423 0.0
O97 O 0.13373 0.72665 0.46472 0.0
C98 C 0.35189 0.85176 0.34783 0.0
C99 C 0.11685 0.76356 0.53605 0.0
Dy100 Dy 0.22059 0.25085 0.40698 0.0
C101 C 0.45979 0.43888 0.27122 0.0
C102 C 0.11004 0.20142 0.56368 0.0
Dy103 Dy 0.35315 0.37134 0.4469 0.0
O104 O 0.12932 0.17075 0.46209 0.0
O105 O 0.15056 0.2569 0.57752 0.0
O106 O 0.2212 0.24591 1.04472 0.0
O107 O 0.29062 0.31257 0.21216 0.0
C108 C 0.27238 0.29529 1.02717 0.0
C109 C 0.30172 0.3263 0.82678 0.0
O110 O 0.29923 0.41029 0.3293 0.0
O111 O 0.20531 0.32666 0.37941 0.0
O112 O 0.43821 0.45914 0.41182 0.0
O113 O 0.42439 0.38256 0.23534 0.0
O114 O 0.35343 0.37509 0.80934 0.0
O115 O 0.28291 0.3096 0.64176 0.0
O116 O 0.27557 0.21395 0.5377 0.0
O117 O 0.37074 0.29628 0.47932 0.0
C118 C 0.24046 0.38271 0.32833 0.0
C119 C 0.33469 0.24054 0.53697 0.0
Dy120 Dy 0.46469 0.17742 0.67231 0.0
C121 C 0.40384 0.14466 0.24988 0.0
C122 C 0.46174 0.17395 0.29215 0.0
Dy123 Dy 0.40504 0.1438 0.87177 0.0
O124 O 0.48149 0.22548 0.38083 0.0
O125 O 0.48099 0.1431 0.38507 0.0
O126 O 0.55341 0.24282 0.80349 0.0
O127 O 0.47487 0.24054 0.91307 0.0
C128 C 0.53135 0.26677 0.92415 0.0
C129 C 0.33978 0.05462 0.61647 0.0
O130 O 0.33951 0.16641 0.74781 0.0
O131 O 0.41931 0.228 0.5735 0.0
O132 O 0.38453 0.09345 0.15942 0.0
O133 O 0.3849 0.17575 0.15707 0.0
O134 O 0.31722 0.07966 0.72869 0.0
O135 O 0.39596 0.08009 0.63692 0.0
O136 O 0.53106 0.15543 0.791 0.0
O137 O 0.45192 0.09449 0.97032 0.0
C138 C 0.36399 0.2093 0.61651 0.0
C139 C 0.50709 0.11305 0.92453 0.0
Dy140 Dy 0.94152 0.14032 0.86631 0.0
C141 C 0.92805 0.18116 0.29127 0.0
C142 C 0.94293 0.14085 0.24623 0.0
Dy143 Dy 0.92957 0.1816 0.67107 0.0
O144 O 0.90141 0.09356 0.15325 0.0
O145 O -0.00667 0.16166 0.15524 0.0
O146 O 0.94728 0.06378 0.73953 0.0
O147 O 0.88078 0.08141 0.62637 0.0
C148 C 0.90133 0.04632 0.61783 0.0
C149 C 0.96978 0.27551 0.92028 0.0
O150 O 0.84911 0.18206 0.77487 0.0
O151 O 0.84687 0.11023 0.95848 0.0
O152 O 0.96959 0.22845 0.38419 0.0
O153 O 0.87766 0.16034 0.38238 0.0
O154 O 0.92375 0.25803 0.799 0.0
O155 O -0.00962 0.24048 0.91084 0.0
O156 O 0.02205 0.13999 0.76214 0.0
O157 O 0.02421 0.21179 0.57856 0.0
C158 C 0.82166 0.14074 0.90911 0.0
C159 C 0.04947 0.18133 0.62786 0.0
Dy160 Dy 0.92269 0.63193 0.67232 0.0
C161 C 0.95058 0.69116 0.24987 0.0
C162 C 0.92181 0.63352 0.29147 0.0
Dy163 Dy 0.94871 0.6904 0.86978 0.0
O164 O 0.95401 0.61507 0.37994 0.0
O165 O 0.87165 0.61427 0.38326 0.0
O166 O 0.89845 0.5426 0.78726 0.0
O167 O 0.97524 0.62106 0.9112 0.0
C168 C 0.94416 0.56429 0.91308 0.0
C169 C 0.92658 0.75736 0.62718 0.0
O170 O 0.03818 0.75798 0.75535 0.0
O171 O 0.01895 0.67817 0.57299 0.0
O172 O 0.91829 0.70934 0.16047 0.0
O173 O 0.00066 0.7102 0.15787 0.0
O174 O 0.9731 0.77934 0.74904 0.0
O175 O 0.8953 0.70072 0.63354 0.0
O176 O 0.8331 0.56384 0.78389 0.0
O177 O 0.85239 0.64324 0.96937 0.0
C178 C 0.05622 0.73402 0.61906 0.0
C179 C 0.81511 0.58746 0.92179 0.0
loop_
_geom_bond_atom_site_label_1
_geom_bond_atom_site_label_2
_geom_bond_distance
_geom_bond_site_symmetry_2
_ccdc_geom_bond_type
Dy0 O4 2.398 1_554 S
Dy0 O5 2.491 . S
Dy0 O6 2.403 1_554 S
Dy0 O7 2.664 1_554 S
Dy0 O11 2.326 1_554 S
Dy0 O15 2.310 . S
Dy0 O16 2.351 . S
C1 O12 1.185 1_556 S
C1 O13 1.355 . S
C2 O4 1.185 1_554 S
C2 O5 1.355 . S
Dy3 O7 2.310 1_655 S
Dy3 O10 2.351 . S
Dy3 O12 2.398 1_556 S
Dy3 O13 2.491 . S
Dy3 O14 2.403 1_556 S
Dy3 O15 2.664 1_656 S
Dy3 O17 2.326 1_656 S
O4 Dy0 2.398 1_556 S
O4 C2 1.185 1_556 S
O5 Dy0 2.491 . S
O5 C2 1.355 . S
O6 Dy0 2.403 1_556 S
O6 C8 1.254 . S
O7 Dy0 2.664 1_556 S
O7 Dy3 2.310 1_455 S
O7 C8 1.268 . S
C8 O6 1.254 . S
C8 O7 1.268 . S
C9 O14 1.254 1_455 S
C9 O15 1.268 . S
O10 Dy3 2.351 . S
O10 C18 1.249 1_655 S
O11 Dy0 2.326 1_556 S
O11 C18 1.267 . S
O12 C1 1.185 1_554 S
O12 Dy3 2.398 1_554 S
O13 C1 1.355 . S
O13 Dy3 2.491 . S
O14 Dy3 2.403 1_554 S
O14 C9 1.254 1_655 S
O15 Dy0 2.310 . S
O15 Dy3 2.664 1_454 S
O15 C9 1.268 . S
O16 Dy0 2.351 . S
O16 C19 1.249 . S
O17 Dy3 2.326 1_454 S
O17 C19 1.267 . S
C18 O10 1.249 1_455 S
C18 O11 1.267 . S
C19 O16 1.249 . S
C19 O17 1.267 . S
Dy20 O24 2.398 . S
Dy20 O25 2.491 . S
Dy20 O26 2.403 1_554 S
Dy20 O27 2.664 1_554 S
Dy20 O31 2.326 . S
Dy20 O35 2.310 . S
Dy20 O36 2.351 . S
C21 O32 1.185 . S
C21 O33 1.355 1_554 S
C22 O24 1.185 . S
C22 O25 1.355 . S
Dy23 O27 2.310 1_554 S
Dy23 O30 2.351 . S
Dy23 O32 2.398 . S
Dy23 O33 2.491 1_554 S
Dy23 O34 2.403 . S
Dy23 O35 2.664 . S
Dy23 O37 2.326 . S
O24 Dy20 2.398 . S
O24 C22 1.185 . S
O25 Dy20 2.491 . S
O25 C22 1.355 . S
O26 Dy20 2.403 1_556 S
O26 C28 1.254 . S
O27 Dy20 2.664 1_556 S
O27 Dy23 2.310 1_556 S
O27 C28 1.268 . S
C28 O26 1.254 . S
C28 O27 1.268 . S
C29 O34 1.254 . S
C29 O35 1.268 . S
O30 Dy23 2.351 . S
O30 C38 1.249 . S
O31 Dy20 2.326 . S
O31 C38 1.267 . S
O32 C21 1.185 . S
O32 Dy23 2.398 . S
O33 C21 1.355 1_556 S
O33 Dy23 2.491 1_556 S
O34 Dy23 2.403 . S
O34 C29 1.254 . S
O35 Dy20 2.310 . S
O35 Dy23 2.664 . S
O35 C29 1.268 . S
O36 Dy20 2.351 . S
O36 C39 1.249 . S
O37 Dy23 2.326 . S
O37 C39 1.267 . S
C38 O30 1.249 . S
C38 O31 1.267 . S
C39 O36 1.249 . S
C39 O37 1.267 . S
Dy40 O44 2.398 . S
Dy40 O45 2.491 . S
Dy40 O46 2.403 1_554 S
Dy40 O47 2.664 1_564 S
Dy40 O51 2.326 1_565 S
Dy40 O55 2.310 1_565 S
Dy40 O56 2.351 . S
C41 O52 1.185 . S
C41 O53 1.355 . S
C42 O44 1.185 . S
C42 O45 1.355 . S
Dy43 O47 2.310 1_554 S
Dy43 O50 2.351 . S
Dy43 O52 2.398 . S
Dy43 O53 2.491 . S
Dy43 O54 2.403 . S
Dy43 O55 2.664 . S
Dy43 O57 2.326 . S
O44 Dy40 2.398 . S
O44 C42 1.185 . S
O45 Dy40 2.491 . S
O45 C42 1.355 . S
O46 Dy40 2.403 1_556 S
O46 C48 1.254 1_565 S
O47 Dy40 2.664 1_546 S
O47 Dy43 2.310 1_556 S
O47 C48 1.268 . S
C48 O46 1.254 1_545 S
C48 O47 1.268 . S
C49 O54 1.254 . S
C49 O55 1.268 . S
O50 Dy43 2.351 . S
O50 C58 1.249 . S
O51 Dy40 2.326 1_545 S
O51 C58 1.267 . S
O52 C41 1.185 . S
O52 Dy43 2.398 . S
O53 C41 1.355 . S
O53 Dy43 2.491 . S
O54 Dy43 2.403 . S
O54 C49 1.254 . S
O55 Dy40 2.310 1_545 S
O55 Dy43 2.664 . S
O55 C49 1.268 . S
O56 Dy40 2.351 . S
O56 C59 1.249 1_565 S
O57 Dy43 2.326 . S
O57 C59 1.267 . S
C58 O50 1.249 . S
C58 O51 1.267 . S
C59 O56 1.249 1_545 S
C59 O57 1.267 . S
Dy60 O64 2.398 . S
Dy60 O65 2.491 . S
Dy60 O66 2.403 . S
Dy60 O67 2.664 . S
Dy60 O71 2.326 . S
Dy60 O75 2.310 . S
Dy60 O76 2.351 . S
C61 O72 1.185 . S
C61 O73 1.355 . S
C62 O64 1.185 . S
C62 O65 1.355 . S
Dy63 O67 2.310 . S
Dy63 O70 2.351 . S
Dy63 O72 2.398 . S
Dy63 O73 2.491 . S
Dy63 O74 2.403 . S
Dy63 O75 2.664 . S
Dy63 O77 2.326 . S
O64 Dy60 2.398 . S
O64 C62 1.185 . S
O65 Dy60 2.491 . S
O65 C62 1.355 . S
O66 Dy60 2.403 . S
O66 C68 1.254 . S
O67 Dy60 2.664 . S
O67 Dy63 2.310 . S
O67 C68 1.268 . S
C68 O66 1.254 . S
C68 O67 1.268 . S
C69 O74 1.254 . S
C69 O75 1.268 . S
O70 Dy63 2.351 . S
O70 C78 1.249 . S
O71 Dy60 2.326 . S
O71 C78 1.267 . S
O72 C61 1.185 . S
O72 Dy63 2.398 . S
O73 C61 1.355 . S
O73 Dy63 2.491 . S
O74 Dy63 2.403 . S
O74 C69 1.254 . S
O75 Dy60 2.310 . S
O75 Dy63 2.664 . S
O75 C69 1.268 . S
O76 Dy60 2.351 . S
O76 C79 1.249 1_565 S
O77 Dy63 2.326 . S
O77 C79 1.267 1_565 S
C78 O70 1.249 . S
C78 O71 1.267 . S
C79 O76 1.249 1_545 S
C79 O77 1.267 1_545 S
Dy80 O84 2.398 1_565 S
Dy80 O85 2.491 . S
Dy80 O86 2.403 1_554 S
Dy80 O87 2.664 . S
Dy80 O91 2.326 . S
Dy80 O95 2.310 . S
Dy80 O96 2.351 . S
C81 O92 1.185 . S
C81 O93 1.355 . S
C82 O84 1.185 . S
C82 O85 1.355 1_545 S
Dy83 O87 2.310 . S
Dy83 O90 2.351 . S
Dy83 O92 2.398 . S
Dy83 O93 2.491 . S
Dy83 O94 2.403 . S
Dy83 O95 2.664 . S
Dy83 O97 2.326 . S
O84 Dy80 2.398 1_545 S
O84 C82 1.185 . S
O85 Dy80 2.491 . S
O85 C82 1.355 1_565 S
O86 Dy80 2.403 1_556 S
O86 C88 1.254 . S
O87 Dy80 2.664 . S
O87 Dy83 2.310 . S
O87 C88 1.268 1_554 S
C88 O86 1.254 . S
C88 O87 1.268 1_556 S
C89 O94 1.254 . S
C89 O95 1.268 . S
O90 Dy83 2.351 . S
O90 C98 1.249 . S
O91 Dy80 2.326 . S
O91 C98 1.267 . S
O92 C81 1.185 . S
O92 Dy83 2.398 . S
O93 C81 1.355 . S
O93 Dy83 2.491 . S
O94 Dy83 2.403 . S
O94 C89 1.254 . S
O95 Dy80 2.310 . S
O95 Dy83 2.664 . S
O95 C89 1.268 . S
O96 Dy80 2.351 . S
O96 C99 1.249 . S
O97 Dy83 2.326 . S
O97 C99 1.267 . S
C98 O90 1.249 . S
C98 O91 1.267 . S
C99 O96 1.249 . S
C99 O97 1.267 . S
Dy100 O104 2.398 . S
Dy100 O105 2.491 . S
Dy100 O106 2.403 1_554 S
Dy100 O107 2.664 . S
Dy100 O111 2.326 . S
Dy100 O115 2.310 . S
Dy100 O116 2.351 . S
C101 O112 1.185 . S
C101 O113 1.355 . S
C102 O104 1.185 . S
C102 O105 1.355 . S
Dy103 O107 2.310 . S
Dy103 O110 2.351 . S
Dy103 O112 2.398 . S
Dy103 O113 2.491 . S
Dy103 O114 2.403 . S
Dy103 O115 2.664 . S
Dy103 O117 2.326 . S
O104 Dy100 2.398 . S
O104 C102 1.185 . S
O105 Dy100 2.491 . S
O105 C102 1.355 . S
O106 Dy100 2.403 1_556 S
O106 C108 1.254 . S
O107 Dy100 2.664 . S
O107 Dy103 2.310 . S
O107 C108 1.268 1_554 S
C108 O106 1.254 . S
C108 O107 1.268 1_556 S
C109 O114 1.254 . S
C109 O115 1.268 . S
O110 Dy103 2.351 . S
O110 C118 1.249 . S
O111 Dy100 2.326 . S
O111 C118 1.267 . S
O112 C101 1.185 . S
O112 Dy103 2.398 . S
O113 C101 1.355 . S
O113 Dy103 2.491 . S
O114 Dy103 2.403 . S
O114 C109 1.254 . S
O115 Dy100 2.310 . S
O115 Dy103 2.664 . S
O115 C109 1.268 . S
O116 Dy100 2.351 . S
O116 C119 1.249 . S
O117 Dy103 2.326 . S
O117 C119 1.267 . S
C118 O110 1.249 . S
C118 O111 1.267 . S
C119 O116 1.249 . S
C119 O117 1.267 . S
Dy120 O124 2.398 . S
Dy120 O125 2.491 . S
Dy120 O126 2.403 . S
Dy120 O127 2.664 . S
Dy120 O131 2.326 . S
Dy120 O135 2.310 . S
Dy120 O136 2.351 . S
C121 O132 1.185 . S
C121 O133 1.355 . S
C122 O124 1.185 . S
C122 O125 1.355 . S
Dy123 O127 2.310 . S
Dy123 O130 2.351 . S
Dy123 O132 2.398 1_556 S
Dy123 O133 2.491 1_556 S
Dy123 O134 2.403 . S
Dy123 O135 2.664 . S
Dy123 O137 2.326 . S
O124 Dy120 2.398 . S
O124 C122 1.185 . S
O125 Dy120 2.491 . S
O125 C122 1.355 . S
O126 Dy120 2.403 . S
O126 C128 1.254 . S
O127 Dy120 2.664 . S
O127 Dy123 2.310 . S
O127 C128 1.268 . S
C128 O126 1.254 . S
C128 O127 1.268 . S
C129 O134 1.254 . S
C129 O135 1.268 . S
O130 Dy123 2.351 . S
O130 C138 1.249 . S
O131 Dy120 2.326 . S
O131 C138 1.267 . S
O132 C121 1.185 . S
O132 Dy123 2.398 1_554 S
O133 C121 1.355 . S
O133 Dy123 2.491 1_554 S
O134 Dy123 2.403 . S
O134 C129 1.254 . S
O135 Dy120 2.310 . S
O135 Dy123 2.664 . S
O135 C129 1.268 . S
O136 Dy120 2.351 . S
O136 C139 1.249 . S
O137 Dy123 2.326 . S
O137 C139 1.267 . S
C138 O130 1.249 . S
C138 O131 1.267 . S
C139 O136 1.249 . S
C139 O137 1.267 . S
Dy140 O144 2.398 1_556 S
Dy140 O145 2.491 1_556 S
Dy140 O146 2.403 . S
Dy140 O147 2.664 . S
Dy140 O151 2.326 . S
Dy140 O155 2.310 . S
Dy140 O156 2.351 1_655 S
C141 O152 1.185 . S
C141 O153 1.355 . S
C142 O144 1.185 . S
C142 O145 1.355 . S
Dy143 O147 2.310 . S
Dy143 O150 2.351 . S
Dy143 O152 2.398 . S
Dy143 O153 2.491 . S
Dy143 O154 2.403 . S
Dy143 O155 2.664 . S
Dy143 O157 2.326 1_655 S
O144 Dy140 2.398 1_554 S
O144 C142 1.185 . S
O145 Dy140 2.491 1_554 S
O145 C142 1.355 . S
O146 Dy140 2.403 . S
O146 C148 1.254 . S
O147 Dy140 2.664 . S
O147 Dy143 2.310 . S
O147 C148 1.268 . S
C148 O146 1.254 . S
C148 O147 1.268 . S
C149 O154 1.254 . S
C149 O155 1.268 . S
O150 Dy143 2.351 . S
O150 C158 1.249 . S
O151 Dy140 2.326 . S
O151 C158 1.267 . S
O152 C141 1.185 . S
O152 Dy143 2.398 . S
O153 C141 1.355 . S
O153 Dy143 2.491 . S
O154 Dy143 2.403 . S
O154 C149 1.254 . S
O155 Dy140 2.310 . S
O155 Dy143 2.664 . S
O155 C149 1.268 . S
O156 Dy140 2.351 1_455 S
O156 C159 1.249 . S
O157 Dy143 2.326 1_455 S
O157 C159 1.267 . S
C158 O150 1.249 . S
C158 O151 1.267 . S
C159 O156 1.249 . S
C159 O157 1.267 . S
Dy160 O164 2.398 . S
Dy160 O165 2.491 . S
Dy160 O166 2.403 . S
Dy160 O167 2.664 . S
Dy160 O171 2.326 1_655 S
Dy160 O175 2.310 . S
Dy160 O176 2.351 . S
C161 O172 1.185 . S
C161 O173 1.355 . S
C162 O164 1.185 . S
C162 O165 1.355 . S
Dy163 O167 2.310 . S
Dy163 O170 2.351 1_655 S
Dy163 O172 2.398 1_556 S
Dy163 O173 2.491 1_556 S
Dy163 O174 2.403 . S
Dy163 O175 2.664 . S
Dy163 O177 2.326 . S
O164 Dy160 2.398 . S
O164 C162 1.185 . S
O165 Dy160 2.491 . S
O165 C162 1.355 . S
O166 Dy160 2.403 . S
O166 C168 1.254 . S
O167 Dy160 2.664 . S
O167 Dy163 2.310 . S
O167 C168 1.268 . S
C168 O166 1.254 . S
C168 O167 1.268 . S
C169 O174 1.254 . S
C169 O175 1.268 . S
O170 Dy163 2.351 1_455 S
O170 C178 1.249 . S
O171 Dy160 2.326 1_455 S
O171 C178 1.267 . S
O172 C161 1.185 . S
O172 Dy163 2.398 1_554 S
O173 C161 1.355 . S
O173 Dy163 2.491 1_554 S
O174 Dy163 2.403 . S
O174 C169 1.254 . S
O175 Dy160 2.310 . S
O175 Dy163 2.664 . S
O175 C169 1.268 . S
O176 Dy160 2.351 . S
O176 C179 1.249 . S
O177 Dy163 2.326 . S
O177 C179 1.267 . S
C178 O170 1.249 . S
C178 O171 1.267 . S
C179 O176 1.249 . S
C179 O177 1.267 . S
C8 C9 2.796 . S
C28 C29 2.937 . S
C48 C49 3.048 . S
C69 C68 2.796 1_556 S
C89 C88 2.937 . S
C109 C108 3.048 . S
C122 C121 2.038 . S
C141 C142 2.010 . S
C162 C161 2.056 . S
C118 C2 1.637 . S
C22 C78 1.735 . S
C42 C98 1.769 . S
C58 C139 2.194 1_554 S
C149 C18 1.691 1_655 S
C179 C38 2.149 1_556 S
C168 C1 2.044 . S
C21 C128 2.089 1_554 S
C158 C41 2.694 1_556 S
C59 C61 1.637 1_545 S
C81 C19 1.735 . S
C39 C101 1.769 . S
C169 C62 2.044 . S
C129 C82 2.089 . S
C159 C102 2.695 . S
C138 C119 2.194 . S
C79 C148 1.691 . S
C178 C99 2.150 . S
