# Generated by pormake.
# Topology qtz-x, (6)-cn, num edge types: 1
# Building blocks:
#     Node 0, Type 0, BuildingBlock: BETFEN_clean_sbu_0, # of connection points: 6
#     Node 1, Type 0, BuildingBlock: BETFEN_clean_sbu_0, # of connection points: 6
#     Node 2, Type 0, BuildingBlock: BETFEN_clean_sbu_0, # of connection points: 6
#     Edge 3, Type (0, 0), None
#     Edge 4, Type (0, 0), None
#     Edge 5, Type (0, 0), None
#     Edge 6, Type (0, 0), None
#     Edge 7, Type (0, 0), None
#     Edge 8, Type (0, 0), None
#     Edge 9, Type (0, 0), None
#     Edge 10, Type (0, 0), None
#     Edge 11, Type (0, 0), None
# Relax obj value: 0.675
# Max RMSD: 0.355
# Mean RMSD: 0.311
data_MOF--net-qtz-x--node1-BETFEN_clean_sbu_0--edge1-none
_symmetry_space_group_name_H-M    P1
_symmetry_Int_Tables_number       1
_symmetry_cell_setting            triclinic
loop_
_symmetry_equiv_pos_as_xyz
'x, y, z'
_cell_length_a     8.1635761
_cell_length_b     8.3600365
_cell_length_c     34.669234
_cell_angle_alpha  54.087908
_cell_angle_beta   129.58426
_cell_angle_gamma 124.87746
loop_
_atom_site_label
_atom_site_type_symbol
_atom_site_fract_x
_atom_site_fract_y
_atom_site_fract_z
_atom_type_partial_charge
Pr0 Pr 0.88535 0.64201 0.1706 0.0
Pr1 Pr 0.13095 0.76671 0.14431 0.0
C2 C 0.65935 0.3832 0.23134 0.0
C3 C 0.6924 0.33633 0.28491 0.0
C4 C 0.52387 0.32272 0.28911 0.0
C5 C 0.54056 0.2573 0.33899 0.0
C6 C 0.73425 0.21718 0.38678 0.0
C7 C 0.90469 0.23125 0.3831 0.0
C8 C 0.88281 0.28666 0.33319 0.0
C9 C 1.0231 0.09093 0.16909 0.0
C10 C 0.32525 0.6755 0.26903 0.0
C11 C 0.43503 0.06109 0.10559 0.0
C12 C 0.55717 0.13757 0.07644 0.0
C13 C 0.57917 -0.00095 0.07232 0.0
C14 C 0.74071 0.07261 0.05752 0.0
C15 C 0.81983 0.27617 0.02841 0.0
C16 C 0.79798 0.42268 0.03119 0.0
C17 C 0.68481 0.34734 0.06011 0.0
C18 C 1.05941 0.30865 0.16503 0.0
C19 C 0.62923 0.74919 0.03545 0.0
O20 O 0.78539 0.33361 0.23186 0.0
O21 O 0.62534 0.55724 0.19232 0.0
O22 O 0.11226 0.02534 0.15988 0.0
O23 O 0.87194 0.91295 0.18016 0.0
O24 O 0.34382 0.83594 0.22682 0.0
O25 O 0.15984 0.51947 0.25561 0.0
O26 O 0.21967 0.02915 0.07782 0.0
O27 O 0.48875 0.92263 0.15429 0.0
O28 O 0.95046 0.37543 0.16836 0.0
O29 O 0.20785 0.48885 0.15325 0.0
O30 O 0.59017 0.65657 0.07726 0.0
O31 O 0.84464 0.81071 0.0503 0.0
H32 H 0.37557 0.3586 0.25406 0.0
H33 H 0.40097 0.23878 0.34013 0.0
H34 H 1.05159 0.19076 0.41914 0.0
H35 H 1.01483 0.28816 0.33269 0.0
H36 H 0.51186 0.83558 0.09221 0.0
H37 H 0.84876 0.98612 0.07988 0.0
H38 H 0.87612 0.58777 1.01467 0.0
H39 H 0.70082 0.4445 0.07261 0.0
Pr40 Pr 0.94553 0.96587 0.56904 0.0
Pr41 Pr 0.63749 0.73779 0.53362 0.0
C42 C 0.18439 0.3032 0.59796 0.0
C43 C 0.24801 0.40294 0.63191 0.0
C44 C 0.47086 0.46827 0.66774 0.0
C45 C 0.55393 0.58633 0.69683 0.0
C46 C 0.41145 0.66932 0.68368 0.0
C47 C 0.19346 0.61533 0.64464 0.0
C48 C 0.10352 0.46834 0.62308 0.0
C49 C 0.21594 0.89719 0.5472 0.0
C50 C 0.87189 0.49947 0.66904 0.0
C51 C 0.39048 0.53759 0.46408 0.0
C52 C 0.40104 0.59748 0.41482 0.0
C53 C 0.27209 0.71811 0.36399 0.0
C54 C 0.26688 0.76194 0.31727 0.0
C55 C 0.3908 0.68834 0.31918 0.0
C56 C 0.53119 0.57995 0.37024 0.0
C57 C 0.53568 0.53419 0.4172 0.0
C58 C 0.36356 0.85275 0.54288 0.0
C59 C 0.74631 0.13524 0.44026 0.0
O60 O 0.99088 0.29008 0.55497 0.0
O61 O 0.25137 0.14627 0.62176 0.0
O62 O 0.99421 0.81257 0.53446 0.0
O63 O 0.28922 0.01539 0.57193 0.0
O64 O 0.7308 0.45608 0.62398 0.0
O65 O 0.9539 0.70387 0.65861 0.0
O66 O 0.55243 0.47971 0.51143 0.0
O67 O 0.32155 0.65214 0.46153 0.0
O68 O 0.58293 0.93819 0.55478 0.0
O69 O 0.29832 0.7057 0.52779 0.0
O70 O 0.93437 0.16014 0.48289 0.0
O71 O 0.57372 0.00034 0.44883 0.0
H72 H 0.57181 0.41437 0.67397 0.0
H73 H 0.72513 0.61378 0.72799 0.0
H74 H 0.10269 0.71476 0.62376 0.0
H75 H 0.93083 0.43366 0.5933 0.0
H76 H 0.16674 0.77204 0.35983 0.0
H77 H 0.15407 0.84288 0.27923 0.0
H78 H 0.63394 0.52546 0.37392 0.0
H79 H 0.64069 0.44442 0.45526 0.0
Pr80 Pr 0.21572 0.19421 0.86921 0.0
Pr81 Pr 0.2404 0.00455 0.83913 0.0
C82 C 0.14603 0.33147 0.91043 0.0
C83 C 1.07357 0.29627 0.94571 0.0
C84 C 0.21361 0.399 0.98192 0.0
C85 C 0.13762 0.40216 1.00882 0.0
C86 C 0.91518 0.31169 0.99732 0.0
C87 C 0.78133 0.21058 0.96144 0.0
C88 C 0.8588 0.18639 0.9391 0.0
C89 C 0.64389 0.50991 0.8619 0.0
C90 C 0.45401 0.82308 0.97433 0.0
C91 C 0.41583 0.96133 0.80159 0.0
C92 C 0.41109 0.89412 0.76924 0.0
C93 C 0.31688 0.69348 0.77267 0.0
C94 C 0.36034 0.6255 0.75177 0.0
C95 C 0.4543 0.75745 0.71771 0.0
C96 C 0.54394 0.96494 0.71188 0.0
C97 C 0.53076 0.02722 0.7403 0.0
C98 C 0.83652 0.67943 0.85352 0.0
C99 C 0.94359 0.32991 0.72931 0.0
O100 O 0.99924 0.30288 0.86429 0.0
O101 O 0.3259 0.28898 0.93353 0.0
O102 O 0.5248 0.33895 0.85009 0.0
O103 O 0.54697 0.50618 0.88083 0.0
O104 O 0.46857 0.84482 0.93523 0.0
O105 O 0.31944 0.91501 0.95727 0.0
O106 O 0.33303 0.10956 0.77651 0.0
O107 O 0.39815 0.82916 0.84608 0.0
O108 O 0.94417 0.85168 0.86384 0.0
O109 O 0.93006 0.68531 0.8331 0.0
O110 O 0.97539 0.34457 0.77031 0.0
O111 O 1.01913 0.18721 0.74494 0.0
H112 H 0.38014 0.47652 0.98769 0.0
H113 H 0.24504 0.46404 0.03969 0.0
H114 H 0.60969 0.18396 0.94399 0.0
H115 H 0.74581 0.11107 0.90995 0.0
H116 H 0.24588 0.59144 0.79984 0.0
H117 H 0.33215 0.46762 0.76285 0.0
H118 H 0.61225 0.07448 0.68386 0.0
H119 H 0.61156 0.1747 0.74271 0.0
loop_
_geom_bond_atom_site_label_1
_geom_bond_atom_site_label_2
_geom_bond_distance
_geom_bond_site_symmetry_2
_ccdc_geom_bond_type
Pr0 C2 2.880 . S
Pr0 O20 2.562 . S
Pr0 O21 2.490 . S
Pr0 O22 2.695 1_665 S
Pr0 O23 2.512 1_565 S
Pr0 O25 2.437 1_655 S
Pr0 O28 2.436 . S
Pr0 O30 2.438 . S
Pr1 C11 2.880 1_565 S
Pr1 O22 2.436 1_565 S
Pr1 O24 2.438 . S
Pr1 O26 2.562 1_565 S
Pr1 O27 2.490 . S
Pr1 O28 2.695 1_455 S
Pr1 O29 2.512 . S
Pr1 O31 2.437 1_455 S
C2 Pr0 2.880 . S
C2 C3 1.491 . S
C2 O20 1.254 . S
C2 O21 1.225 . S
C3 C2 1.491 . S
C3 C4 1.392 . S
C3 C8 1.356 . S
C4 C3 1.392 . S
C4 C5 1.368 . S
C4 H32 0.929 . S
C5 C4 1.368 . S
C5 C6 1.386 . S
C5 H33 0.929 . S
C6 C5 1.386 . S
C6 C7 1.373 . S
C7 C6 1.373 . S
C7 C8 1.409 . S
C7 H34 0.931 . S
C8 C3 1.356 . S
C8 C7 1.409 . S
C8 H35 0.930 . S
C9 O22 1.270 1_655 S
C9 O23 1.248 . S
C10 O24 1.267 . S
C10 O25 1.278 . S
C11 Pr1 2.880 1_545 S
C11 C12 1.491 . S
C11 O26 1.254 . S
C11 O27 1.225 1_545 S
C12 C11 1.491 . S
C12 C13 1.392 . S
C12 C17 1.356 1_554 S
C13 C12 1.392 . S
C13 C14 1.368 1_554 S
C13 H36 0.929 . S
C14 C13 1.368 1_556 S
C14 C15 1.386 . S
C14 H37 0.929 . S
C15 C14 1.386 . S
C15 C16 1.373 . S
C16 C15 1.373 . S
C16 C17 1.409 . S
C16 H38 0.931 . S
C17 C12 1.356 1_556 S
C17 C16 1.409 . S
C17 H39 0.930 . S
C18 O28 1.270 1_455 S
C18 O29 1.248 . S
C19 O30 1.267 . S
C19 O31 1.278 . S
O20 Pr0 2.562 . S
O20 C2 1.254 . S
O21 Pr0 2.490 . S
O21 C2 1.225 . S
O22 Pr0 2.695 1_445 S
O22 Pr1 2.436 1_545 S
O22 C9 1.270 1_455 S
O23 Pr0 2.512 1_545 S
O23 C9 1.248 . S
O24 Pr1 2.438 . S
O24 C10 1.267 . S
O25 Pr0 2.437 1_455 S
O25 C10 1.278 . S
O26 Pr1 2.562 1_545 S
O26 C11 1.254 . S
O27 Pr1 2.490 . S
O27 C11 1.225 1_565 S
O28 Pr0 2.436 . S
O28 Pr1 2.695 1_655 S
O28 C18 1.270 1_655 S
O29 Pr1 2.512 . S
O29 C18 1.248 . S
O30 Pr0 2.438 . S
O30 C19 1.267 . S
O31 Pr1 2.437 1_655 S
O31 C19 1.278 . S
H32 C4 0.929 . S
H33 C5 0.929 . S
H34 C7 0.931 . S
H35 C8 0.930 . S
H36 C13 0.929 . S
H37 C14 0.929 . S
H38 C16 0.931 . S
H39 C17 0.930 . S
Pr40 C42 2.880 . S
Pr40 O60 2.562 . S
Pr40 O61 2.490 . S
Pr40 O62 2.695 1_545 S
Pr40 O63 2.512 . S
Pr40 O65 2.437 1_545 S
Pr40 O68 2.436 1_455 S
Pr40 O70 2.438 1_455 S
Pr41 C51 2.880 . S
Pr41 O62 2.436 1_655 S
Pr41 O64 2.438 . S
Pr41 O66 2.562 . S
Pr41 O67 2.490 . S
Pr41 O68 2.695 1_565 S
Pr41 O69 2.512 . S
Pr41 O71 2.437 1_565 S
C42 Pr40 2.880 . S
C42 C43 1.491 . S
C42 O60 1.254 . S
C42 O61 1.225 . S
C43 C42 1.491 . S
C43 C44 1.392 . S
C43 C48 1.356 . S
C44 C43 1.392 . S
C44 C45 1.368 . S
C44 H72 0.929 . S
C45 C44 1.368 . S
C45 C46 1.386 . S
C45 H73 0.929 . S
C46 C45 1.386 . S
C46 C47 1.373 . S
C47 C46 1.373 . S
C47 C48 1.409 . S
C47 H74 0.931 . S
C48 C43 1.356 . S
C48 C47 1.409 . S
C48 H75 0.930 . S
C49 O62 1.270 1_545 S
C49 O63 1.248 . S
C50 O64 1.267 . S
C50 O65 1.278 1_655 S
C51 Pr41 2.880 . S
C51 C52 1.491 . S
C51 O66 1.254 . S
C51 O67 1.225 . S
C52 C51 1.491 . S
C52 C53 1.392 . S
C52 C57 1.356 . S
C53 C52 1.392 . S
C53 C54 1.368 . S
C53 H76 0.929 . S
C54 C53 1.368 . S
C54 C55 1.386 . S
C54 H77 0.929 . S
C55 C54 1.386 . S
C55 C56 1.373 . S
C56 C55 1.373 . S
C56 C57 1.409 . S
C56 H78 0.931 . S
C57 C52 1.356 . S
C57 C56 1.409 . S
C57 H79 0.930 . S
C58 O68 1.270 1_565 S
C58 O69 1.248 . S
C59 O70 1.267 . S
C59 O71 1.278 . S
O60 Pr40 2.562 . S
O60 C42 1.254 . S
O61 Pr40 2.490 . S
O61 C42 1.225 . S
O62 Pr40 2.695 1_565 S
O62 Pr41 2.436 1_455 S
O62 C49 1.270 1_565 S
O63 Pr40 2.512 . S
O63 C49 1.248 . S
O64 Pr41 2.438 . S
O64 C50 1.267 . S
O65 Pr40 2.437 1_565 S
O65 C50 1.278 1_455 S
O66 Pr41 2.562 . S
O66 C51 1.254 . S
O67 Pr41 2.490 . S
O67 C51 1.225 . S
O68 Pr40 2.436 1_655 S
O68 Pr41 2.695 1_545 S
O68 C58 1.270 1_545 S
O69 Pr41 2.512 . S
O69 C58 1.248 . S
O70 Pr40 2.438 1_655 S
O70 C59 1.267 . S
O71 Pr41 2.437 1_545 S
O71 C59 1.278 . S
H72 C44 0.929 . S
H73 C45 0.929 . S
H74 C47 0.931 . S
H75 C48 0.930 . S
H76 C53 0.929 . S
H77 C54 0.929 . S
H78 C56 0.931 . S
H79 C57 0.930 . S
Pr80 C82 2.880 . S
Pr80 O100 2.562 . S
Pr80 O101 2.490 . S
Pr80 O102 2.695 1_655 S
Pr80 O103 2.512 1_655 S
Pr80 O105 2.437 1_655 S
Pr80 O108 2.436 1_545 S
Pr80 O110 2.438 . S
Pr81 C91 2.880 . S
Pr81 O102 2.436 1_565 S
Pr81 O104 2.438 . S
Pr81 O106 2.562 . S
Pr81 O107 2.490 . S
Pr81 O108 2.695 1_455 S
Pr81 O109 2.512 1_455 S
Pr81 O111 2.437 1_455 S
C82 Pr80 2.880 . S
C82 C83 1.491 . S
C82 O100 1.254 . S
C82 O101 1.225 . S
C83 C82 1.491 . S
C83 C84 1.392 . S
C83 C88 1.356 . S
C84 C83 1.392 . S
C84 C85 1.368 . S
C84 H112 0.929 . S
C85 C84 1.368 . S
C85 C86 1.386 . S
C85 H113 0.929 . S
C86 C85 1.386 . S
C86 C87 1.373 . S
C87 C86 1.373 . S
C87 C88 1.409 . S
C87 H114 0.931 . S
C88 C83 1.356 . S
C88 C87 1.409 . S
C88 H115 0.930 . S
C89 O102 1.270 . S
C89 O103 1.248 . S
C90 O104 1.267 . S
C90 O105 1.278 1_565 S
C91 Pr81 2.880 . S
C91 C92 1.491 . S
C91 O106 1.254 . S
C91 O107 1.225 . S
C92 C91 1.491 . S
C92 C93 1.392 . S
C92 C97 1.356 . S
C93 C92 1.392 . S
C93 C94 1.368 . S
C93 H116 0.929 . S
C94 C93 1.368 . S
C94 C95 1.386 . S
C94 H117 0.929 . S
C95 C94 1.386 . S
C95 C96 1.373 . S
C96 C95 1.373 . S
C96 C97 1.409 . S
C96 H118 0.931 . S
C97 C92 1.356 . S
C97 C96 1.409 . S
C97 H119 0.930 . S
C98 O108 1.270 . S
C98 O109 1.248 . S
C99 O110 1.267 . S
C99 O111 1.278 1_545 S
O100 Pr80 2.562 . S
O100 C82 1.254 . S
O101 Pr80 2.490 . S
O101 C82 1.225 . S
O102 Pr80 2.695 1_455 S
O102 Pr81 2.436 1_545 S
O102 C89 1.270 . S
O103 Pr80 2.512 1_455 S
O103 C89 1.248 . S
O104 Pr81 2.438 . S
O104 C90 1.267 . S
O105 Pr80 2.437 1_455 S
O105 C90 1.278 1_545 S
O106 Pr81 2.562 . S
O106 C91 1.254 . S
O107 Pr81 2.490 . S
O107 C91 1.225 . S
O108 Pr80 2.436 1_565 S
O108 Pr81 2.695 1_655 S
O108 C98 1.270 . S
O109 Pr81 2.512 1_655 S
O109 C98 1.248 . S
O110 Pr80 2.438 . S
O110 C99 1.267 . S
O111 Pr81 2.437 1_655 S
O111 C99 1.278 1_565 S
H112 C84 0.929 . S
H113 C85 0.929 . S
H114 C87 0.931 . S
H115 C88 0.930 . S
H116 C93 0.929 . S
H117 C94 0.929 . S
H118 C96 0.931 . S
H119 C97 0.930 . S
C9 C18 4.036 1_655 S
C58 C49 4.254 1_565 S
C89 C98 2.880 . S
C86 C15 0.774 . S
C59 C6 3.611 . S
C99 C50 5.118 . S
C90 C19 4.943 1_556 S
C10 C55 3.623 . S
C95 C46 0.275 . S
