# Generated by pormake.
# Topology uoj, (4)-cn, num edge types: 1
# Building blocks:
#     Node 0, Type 0, BuildingBlock: QUQFOY_clean_sbu_1, # of connection points: 4
#     Node 1, Type 0, BuildingBlock: QUQFOY_clean_sbu_1, # of connection points: 4
#     Node 2, Type 0, BuildingBlock: QUQFOY_clean_sbu_1, # of connection points: 4
#     Node 3, Type 0, BuildingBlock: QUQFOY_clean_sbu_1, # of connection points: 4
#     Node 4, Type 0, BuildingBlock: QUQFOY_clean_sbu_1, # of connection points: 4
#     Node 5, Type 0, BuildingBlock: QUQFOY_clean_sbu_1, # of connection points: 4
#     Node 6, Type 0, BuildingBlock: QUQFOY_clean_sbu_1, # of connection points: 4
#     Node 7, Type 0, BuildingBlock: QUQFOY_clean_sbu_1, # of connection points: 4
#     Edge 8, Type (0, 0), BuildingBlock: EYOCIG_clean_linker_4, # of connection points: 2
#     Edge 9, Type (0, 0), BuildingBlock: EYOCIG_clean_linker_4, # of connection points: 2
#     Edge 10, Type (0, 0), BuildingBlock: EYOCIG_clean_linker_4, # of connection points: 2
#     Edge 11, Type (0, 0), BuildingBlock: EYOCIG_clean_linker_4, # of connection points: 2
#     Edge 12, Type (0, 0), BuildingBlock: EYOCIG_clean_linker_4, # of connection points: 2
#     Edge 13, Type (0, 0), BuildingBlock: EYOCIG_clean_linker_4, # of connection points: 2
#     Edge 14, Type (0, 0), BuildingBlock: EYOCIG_clean_linker_4, # of connection points: 2
#     Edge 15, Type (0, 0), BuildingBlock: EYOCIG_clean_linker_4, # of connection points: 2
#     Edge 16, Type (0, 0), BuildingBlock: EYOCIG_clean_linker_4, # of connection points: 2
#     Edge 17, Type (0, 0), BuildingBlock: EYOCIG_clean_linker_4, # of connection points: 2
#     Edge 18, Type (0, 0), BuildingBlock: EYOCIG_clean_linker_4, # of connection points: 2
#     Edge 19, Type (0, 0), BuildingBlock: EYOCIG_clean_linker_4, # of connection points: 2
#     Edge 20, Type (0, 0), BuildingBlock: EYOCIG_clean_linker_4, # of connection points: 2
#     Edge 21, Type (0, 0), BuildingBlock: EYOCIG_clean_linker_4, # of connection points: 2
#     Edge 22, Type (0, 0), BuildingBlock: EYOCIG_clean_linker_4, # of connection points: 2
#     Edge 23, Type (0, 0), BuildingBlock: EYOCIG_clean_linker_4, # of connection points: 2
# Relax obj value: 0.060
# Max RMSD: 0.093
# Mean RMSD: 0.093
data_MOF--net-uoj--node1-QUQFOY_clean_sbu_1--edge1-EYOCIG_clean_linker_4
_symmetry_space_group_name_H-M    P1
_symmetry_Int_Tables_number       1
_symmetry_cell_setting            triclinic
loop_
_symmetry_equiv_pos_as_xyz
'x, y, z'
_cell_length_a     26.072479
_cell_length_b     26.07846
_cell_length_c     34.275879
_cell_angle_alpha  89.992779
_cell_angle_beta   89.987196
_cell_angle_gamma 89.992895
loop_
_atom_site_label
_atom_site_type_symbol
_atom_site_fract_x
_atom_site_fract_y
_atom_site_fract_z
_atom_type_partial_charge
O0 O 0.98473 0.22991 0.47771 0.0
Cd1 Cd 0.05429 0.26272 0.49002 0.0
Cd2 Cd 0.042 0.28593 0.41059 0.0
O3 O 0.98166 0.23473 0.41329 0.0
O4 O 0.06761 0.23485 0.54324 0.0
O5 O 0.11728 0.21818 0.49233 0.0
C6 C 0.1061 0.21086 0.52858 0.0
C7 C 0.09547 0.28925 0.35586 0.0
C8 C 0.96265 0.22033 0.44559 0.0
C9 C 0.03475 0.37055 0.47159 0.0
O10 O 0.02697 0.35539 0.43691 0.0
O11 O 0.05196 0.3406 0.49762 0.0
O12 O 0.04869 0.30475 0.35438 0.0
O13 O 0.11223 0.27017 0.38817 0.0
O14 O 0.22958 -0.01279 0.56942 0.0
Cd15 Cd 0.26279 0.91774 0.55739 0.0
Cd16 Cd 0.28515 0.93028 0.63689 0.0
O17 O 0.23363 -0.00966 0.63387 0.0
O18 O 0.23548 0.90419 0.50405 0.0
O19 O 0.21847 0.85463 0.55495 0.0
C20 C 0.21145 0.8657 0.51864 0.0
C21 C 0.28821 0.87682 0.69162 0.0
C22 C 0.21952 0.00926 0.60146 0.0
C23 C 0.37037 0.93775 0.57637 0.0
O24 O 0.35482 0.9456 0.61095 0.0
O25 O 0.34076 0.9203 0.55022 0.0
O26 O 0.30343 0.92367 0.6932 0.0
O27 O 0.26953 0.85998 0.6592 0.0
O28 O -0.01205 0.74279 0.47771 0.0
Cd29 Cd 0.91834 0.70998 0.48992 0.0
Cd30 Cd 0.93083 0.68683 0.41054 0.0
O31 O -0.00883 0.73803 0.41329 0.0
O32 O 0.90486 0.73783 0.54311 0.0
O33 O 0.85535 0.75453 0.49213 0.0
C34 C 0.86643 0.76185 0.5284 0.0
C35 C 0.87739 0.68364 0.35581 0.0
C36 C 0.0101 0.75239 0.44562 0.0
C37 C 0.93794 0.60216 0.47151 0.0
O38 O 0.94581 0.61734 0.43684 0.0
O39 O 0.92064 0.63209 0.49752 0.0
O40 O 0.92416 0.66811 0.35431 0.0
O41 O 0.86062 0.70267 0.38814 0.0
O42 O 0.74279 0.98551 0.56902 0.0
Cd43 Cd 0.70961 0.05498 0.55698 0.0
Cd44 Cd 0.6874 0.0426 0.63647 0.0
O45 O 0.73892 0.98255 0.63348 0.0
O46 O 0.73698 0.06861 0.50366 0.0
O47 O 0.75397 0.11807 0.55461 0.0
C48 C 0.76103 0.10705 0.5183 0.0
C49 C 0.68438 0.09622 0.69111 0.0
C50 C 0.75293 0.96353 0.60108 0.0
C51 C 0.60207 0.03503 0.57609 0.0
O52 O 0.61769 0.02721 0.61064 0.0
O53 O 0.63164 0.05246 0.54988 0.0
O54 O 0.66919 0.04936 0.69279 0.0
O55 O 0.70303 0.11297 0.65864 0.0
O56 O 0.48749 0.73068 0.97811 0.0
Cd57 Cd 0.41789 0.76372 0.99003 0.0
Cd58 Cd 0.43038 0.78571 0.9105 0.0
O59 O 0.49054 0.73431 0.91365 0.0
O60 O 0.40427 0.73651 0.0434 0.0
O61 O 0.35492 0.71919 0.99245 0.0
C62 C 0.36591 0.71229 0.02878 0.0
C63 C 0.3769 0.7885 0.85578 0.0
C64 C 0.50953 0.72047 0.94609 0.0
C65 C 0.43765 0.87121 0.97076 0.0
O66 O 0.4456 0.85549 0.93624 0.0
O67 O 0.4202 0.84171 0.99699 0.0
O68 O 0.42375 0.80376 0.85414 0.0
O69 O 0.36008 0.76992 0.88825 0.0
O70 O 0.73033 0.48535 0.06916 0.0
Cd71 Cd 0.76312 0.55505 0.05727 0.0
Cd72 Cd 0.7858 0.54221 0.13666 0.0
O73 O 0.73458 0.48192 0.13359 0.0
O74 O 0.73546 0.56884 1.00407 0.0
O75 O 0.71845 0.61796 0.05521 0.0
C76 C 0.7113 0.60711 1.01888 0.0
C77 C 0.78882 0.5954 0.19153 0.0
C78 C 0.72049 0.46308 0.10116 0.0
C79 C 0.87084 0.53543 0.07595 0.0
O80 O 0.85543 0.52732 0.11053 0.0
O81 O 0.84107 0.55291 0.04991 0.0
O82 O 0.80427 0.54861 0.19295 0.0
O83 O 0.76993 0.61233 0.1592 0.0
O84 O 0.48551 0.24365 0.9774 0.0
Cd85 Cd 0.55503 0.21043 0.98925 0.0
Cd86 Cd 0.5422 0.18819 0.90983 0.0
O87 O 0.4822 0.23977 0.91296 0.0
O88 O 0.56881 0.23771 0.04256 0.0
O89 O 0.61816 0.25475 0.99154 0.0
C90 C 0.60723 0.26176 0.02787 0.0
C91 C 0.59569 0.18514 0.85511 0.0
C92 C 0.46336 0.25379 0.94542 0.0
C93 C 0.53483 0.10292 0.97027 0.0
O94 O 0.52683 0.11853 0.93573 0.0
O95 O 0.55247 0.13248 0.99639 0.0
O96 O 0.5488 0.16999 0.8535 0.0
O97 O 0.61254 0.20376 0.88755 0.0
O98 O 0.24326 0.4886 0.06976 0.0
Cd99 Cd 0.21038 0.41904 0.05756 0.0
Cd100 Cd 0.18738 0.4315 0.13701 0.0
O101 O 0.23863 0.49179 0.13418 0.0
O102 O 0.23804 0.40571 1.00428 0.0
O103 O 0.25491 0.35605 0.05514 0.0
C104 C 0.26209 0.36723 1.01887 0.0
C105 C 0.18418 0.37807 0.19176 0.0
C106 C 0.25294 0.51073 0.10183 0.0
C107 C 0.10259 0.4387 0.07615 0.0
O108 O 0.11785 0.44655 0.11079 0.0
O109 O 0.13246 0.4214 0.0501 0.0
O110 O 0.16872 0.42485 0.19325 0.0
O111 O 0.20317 0.36128 0.15941 0.0
C112 C 0.16769 0.32409 0.25563 0.0
C113 C 0.1771 0.34525 0.2251 0.0
C114 C 0.14945 0.30583 0.29199 0.0
C115 C 0.12829 0.29637 0.32252 0.0
C116 C 0.30465 0.82287 0.75551 0.0
C117 C 0.29528 0.84399 0.72495 0.0
C118 C 0.32287 0.80473 0.7919 0.0
C119 C 0.34403 0.79545 0.82245 0.0
C120 C 0.82342 0.66727 0.29192 0.0
C121 C 0.84457 0.67663 0.32246 0.0
C122 C 0.80522 0.64913 0.25553 0.0
C123 C 0.79585 0.62809 0.22495 0.0
C124 C 0.64972 0.16864 0.79125 0.0
C125 C 0.62855 0.17803 0.82179 0.0
C126 C 0.66795 0.15037 0.7549 0.0
C127 C 0.67732 0.12914 0.72438 0.0
C128 C 0.17547 0.09801 0.5896 0.0
C129 C 0.19524 0.05841 0.59959 0.0
C130 C 0.15328 0.14062 0.57074 0.0
C131 C 0.13201 0.1726 0.55123 0.0
C132 C 0.14157 0.81833 0.47627 0.0
C133 C 0.17339 0.8397 0.49587 0.0
C134 C 0.09902 0.79614 0.45736 0.0
C135 C 0.05937 0.77646 0.44738 0.0
C136 C 0.79698 0.87477 0.58928 0.0
C137 C 0.77722 0.91438 0.59925 0.0
C138 C 0.81918 0.83213 0.57047 0.0
C139 C 0.84049 0.80013 0.55099 0.0
C140 C 0.83105 0.1544 0.47602 0.0
C141 C 0.79917 0.13303 0.49557 0.0
C142 C 0.87369 0.1766 0.45719 0.0
C143 C 0.91337 0.19628 0.44728 0.0
C144 C 0.29662 0.59966 0.09006 0.0
C145 C 0.27698 0.56 0.10005 0.0
C146 C 0.31873 0.64228 0.07116 0.0
C147 C 0.34003 0.67416 0.05156 0.0
C148 C 0.64101 0.65441 0.97685 0.0
C149 C 0.67301 0.63308 0.99631 0.0
C150 C 0.59836 0.67657 0.95802 0.0
C151 C 0.55872 0.69625 0.94801 0.0
C152 C 0.67682 0.3742 0.08912 0.0
C153 C 0.69643 0.41383 0.0992 0.0
C154 C 0.65466 0.33166 0.07017 0.0
C155 C 0.63329 0.29984 0.05058 0.0
C156 C 0.37467 0.29787 0.95753 0.0
C157 C 0.41422 0.2781 0.94741 0.0
C158 C 0.33214 0.32004 0.97652 0.0
C159 C 0.30025 0.34131 0.99613 0.0
C160 C 0.97431 0.51048 0.48649 0.0
C161 C 0.95649 0.55262 0.48232 0.0
C162 C -0.00165 0.46223 0.48652 0.0
C163 C 0.01617 0.42009 0.48238 0.0
C164 C 0.51032 -0.00157 0.56166 0.0
C165 C 0.55246 0.01633 0.56562 0.0
C166 C 0.46209 0.97433 0.56174 0.0
C167 C 0.41996 0.95645 0.56581 0.0
C168 C 0.49821 0.01125 0.98494 0.0
C169 C 0.51613 0.05336 0.98084 0.0
C170 C 0.47412 0.96303 0.98507 0.0
C171 C 0.45627 0.92086 0.98116 0.0
C172 C 0.01089 0.47513 0.06124 0.0
C173 C 0.05304 0.4573 0.0654 0.0
C174 C 0.96263 0.49916 0.06119 0.0
C175 C 0.92045 0.51695 0.06525 0.0
loop_
_geom_bond_atom_site_label_1
_geom_bond_atom_site_label_2
_geom_bond_distance
_geom_bond_site_symmetry_2
_ccdc_geom_bond_type
O0 Cd1 2.223 . S
O0 C8 1.315 . S
Cd1 O0 2.223 . S
Cd1 O4 2.297 . S
Cd1 O5 2.439 . S
Cd1 O11 2.240 . S
Cd2 O3 2.240 . S
Cd2 O10 2.223 . S
Cd2 O12 2.297 . S
Cd2 O13 2.439 . S
O3 Cd2 2.240 . S
O3 C8 1.279 . S
O4 Cd1 2.297 . S
O4 C6 1.247 . S
O5 Cd1 2.439 . S
O5 C6 1.208 . S
C6 O4 1.247 . S
C6 O5 1.208 . S
C7 O12 1.247 . S
C7 O13 1.208 . S
C8 O0 1.315 . S
C8 O3 1.279 . S
C9 O10 1.315 . S
C9 O11 1.279 . S
O10 Cd2 2.223 . S
O10 C9 1.315 . S
O11 Cd1 2.240 . S
O11 C9 1.279 . S
O12 Cd2 2.297 . S
O12 C7 1.247 . S
O13 Cd2 2.439 . S
O13 C7 1.208 . S
O14 Cd15 2.223 . S
O14 C22 1.315 . S
Cd15 O14 2.223 . S
Cd15 O18 2.297 . S
Cd15 O19 2.439 . S
Cd15 O25 2.240 . S
Cd16 O17 2.240 . S
Cd16 O24 2.223 . S
Cd16 O26 2.297 . S
Cd16 O27 2.439 . S
O17 Cd16 2.240 . S
O17 C22 1.279 . S
O18 Cd15 2.297 . S
O18 C20 1.247 . S
O19 Cd15 2.439 . S
O19 C20 1.208 . S
C20 O18 1.247 . S
C20 O19 1.208 . S
C21 O26 1.247 . S
C21 O27 1.208 . S
C22 O14 1.315 . S
C22 O17 1.279 . S
C23 O24 1.315 . S
C23 O25 1.279 . S
O24 Cd16 2.223 . S
O24 C23 1.315 . S
O25 Cd15 2.240 . S
O25 C23 1.279 . S
O26 Cd16 2.297 . S
O26 C21 1.247 . S
O27 Cd16 2.439 . S
O27 C21 1.208 . S
O28 Cd29 2.223 . S
O28 C36 1.315 . S
Cd29 O28 2.223 . S
Cd29 O32 2.297 . S
Cd29 O33 2.439 . S
Cd29 O39 2.240 . S
Cd30 O31 2.240 . S
Cd30 O38 2.223 . S
Cd30 O40 2.297 . S
Cd30 O41 2.439 . S
O31 Cd30 2.240 . S
O31 C36 1.279 . S
O32 Cd29 2.297 . S
O32 C34 1.247 . S
O33 Cd29 2.439 . S
O33 C34 1.208 . S
C34 O32 1.247 . S
C34 O33 1.208 . S
C35 O40 1.247 . S
C35 O41 1.208 . S
C36 O28 1.315 . S
C36 O31 1.279 . S
C37 O38 1.315 . S
C37 O39 1.279 . S
O38 Cd30 2.223 . S
O38 C37 1.315 . S
O39 Cd29 2.240 . S
O39 C37 1.279 . S
O40 Cd30 2.297 . S
O40 C35 1.247 . S
O41 Cd30 2.439 . S
O41 C35 1.208 . S
O42 Cd43 2.223 . S
O42 C50 1.315 . S
Cd43 O42 2.223 . S
Cd43 O46 2.297 . S
Cd43 O47 2.439 . S
Cd43 O53 2.240 . S
Cd44 O45 2.240 . S
Cd44 O52 2.223 . S
Cd44 O54 2.297 . S
Cd44 O55 2.439 . S
O45 Cd44 2.240 . S
O45 C50 1.279 . S
O46 Cd43 2.297 . S
O46 C48 1.247 . S
O47 Cd43 2.439 . S
O47 C48 1.208 . S
C48 O46 1.247 . S
C48 O47 1.208 . S
C49 O54 1.247 . S
C49 O55 1.208 . S
C50 O42 1.315 . S
C50 O45 1.279 . S
C51 O52 1.315 . S
C51 O53 1.279 . S
O52 Cd44 2.223 . S
O52 C51 1.315 . S
O53 Cd43 2.240 . S
O53 C51 1.279 . S
O54 Cd44 2.297 . S
O54 C49 1.247 . S
O55 Cd44 2.439 . S
O55 C49 1.208 . S
O56 Cd57 2.223 1_554 S
O56 C64 1.315 1_554 S
Cd57 O56 2.223 1_556 S
Cd57 O60 2.297 1_556 S
Cd57 O61 2.439 . S
Cd57 O67 2.240 . S
Cd58 O59 2.240 . S
Cd58 O66 2.223 . S
Cd58 O68 2.297 . S
Cd58 O69 2.439 . S
O59 Cd58 2.240 . S
O59 C64 1.279 . S
O60 Cd57 2.297 1_554 S
O60 C62 1.247 1_554 S
O61 Cd57 2.439 . S
O61 C62 1.208 . S
C62 O60 1.247 1_556 S
C62 O61 1.208 . S
C63 O68 1.247 . S
C63 O69 1.208 . S
C64 O56 1.315 1_556 S
C64 O59 1.279 . S
C65 O66 1.315 . S
C65 O67 1.279 . S
O66 Cd58 2.223 . S
O66 C65 1.315 . S
O67 Cd57 2.240 . S
O67 C65 1.279 . S
O68 Cd58 2.297 . S
O68 C63 1.247 . S
O69 Cd58 2.439 . S
O69 C63 1.208 . S
O70 Cd71 2.223 1_556 S
O70 C78 1.315 1_556 S
Cd71 O70 2.223 1_554 S
Cd71 O74 2.297 1_554 S
Cd71 O75 2.439 . S
Cd71 O81 2.240 . S
Cd72 O73 2.240 . S
Cd72 O80 2.223 . S
Cd72 O82 2.297 . S
Cd72 O83 2.439 . S
O73 Cd72 2.240 . S
O73 C78 1.279 . S
O74 Cd71 2.297 1_556 S
O74 C76 1.247 1_556 S
O75 Cd71 2.439 . S
O75 C76 1.208 . S
C76 O74 1.247 1_554 S
C76 O75 1.208 . S
C77 O82 1.247 . S
C77 O83 1.208 . S
C78 O70 1.315 1_554 S
C78 O73 1.279 . S
C79 O80 1.315 . S
C79 O81 1.279 . S
O80 Cd72 2.223 . S
O80 C79 1.315 . S
O81 Cd71 2.240 . S
O81 C79 1.279 . S
O82 Cd72 2.297 . S
O82 C77 1.247 . S
O83 Cd72 2.439 . S
O83 C77 1.208 . S
O84 Cd85 2.223 1_554 S
O84 C92 1.315 1_554 S
Cd85 O84 2.223 1_556 S
Cd85 O88 2.297 1_556 S
Cd85 O89 2.439 . S
Cd85 O95 2.240 . S
Cd86 O87 2.240 . S
Cd86 O94 2.223 . S
Cd86 O96 2.297 . S
Cd86 O97 2.439 . S
O87 Cd86 2.240 . S
O87 C92 1.279 . S
O88 Cd85 2.297 1_554 S
O88 C90 1.247 1_554 S
O89 Cd85 2.439 . S
O89 C90 1.208 . S
C90 O88 1.247 1_556 S
C90 O89 1.208 . S
C91 O96 1.247 . S
C91 O97 1.208 . S
C92 O84 1.315 1_556 S
C92 O87 1.279 . S
C93 O94 1.315 . S
C93 O95 1.279 . S
O94 Cd86 2.223 . S
O94 C93 1.315 . S
O95 Cd85 2.240 . S
O95 C93 1.279 . S
O96 Cd86 2.297 . S
O96 C91 1.247 . S
O97 Cd86 2.439 . S
O97 C91 1.208 . S
O98 Cd99 2.223 1_556 S
O98 C106 1.315 1_556 S
Cd99 O98 2.223 1_554 S
Cd99 O102 2.297 1_554 S
Cd99 O103 2.439 . S
Cd99 O109 2.240 . S
Cd100 O101 2.240 . S
Cd100 O108 2.223 . S
Cd100 O110 2.297 . S
Cd100 O111 2.439 . S
O101 Cd100 2.240 . S
O101 C106 1.279 . S
O102 Cd99 2.297 1_556 S
O102 C104 1.247 1_556 S
O103 Cd99 2.439 . S
O103 C104 1.208 . S
C104 O102 1.247 1_554 S
C104 O103 1.208 . S
C105 O110 1.247 . S
C105 O111 1.208 . S
C106 O98 1.315 1_554 S
C106 O101 1.279 . S
C107 O108 1.315 . S
C107 O109 1.279 . S
O108 Cd100 2.223 . S
O108 C107 1.315 . S
O109 Cd99 2.240 . S
O109 C107 1.279 . S
O110 Cd100 2.297 . S
O110 C105 1.247 . S
O111 Cd100 2.439 . S
O111 C105 1.208 . S
C112 C113 1.170 . S
C112 C114 1.380 . S
C113 C112 1.170 . S
C114 C112 1.380 . S
C114 C115 1.170 . S
C115 C114 1.170 . S
C116 C117 1.170 . S
C116 C118 1.380 . S
C117 C116 1.170 . S
C118 C116 1.380 . S
C118 C119 1.170 . S
C119 C118 1.170 . S
C120 C121 1.170 . S
C120 C122 1.380 . S
C121 C120 1.170 . S
C122 C120 1.380 . S
C122 C123 1.170 . S
C123 C122 1.170 . S
C124 C125 1.170 . S
C124 C126 1.380 . S
C125 C124 1.170 . S
C126 C124 1.380 . S
C126 C127 1.170 . S
C127 C126 1.170 . S
C128 C129 1.170 . S
C128 C130 1.380 . S
C129 C128 1.170 . S
C130 C128 1.380 . S
C130 C131 1.170 . S
C131 C130 1.170 . S
C132 C133 1.170 . S
C132 C134 1.380 . S
C133 C132 1.170 . S
C134 C132 1.380 . S
C134 C135 1.170 . S
C135 C134 1.170 . S
C136 C137 1.170 . S
C136 C138 1.380 . S
C137 C136 1.170 . S
C138 C136 1.380 . S
C138 C139 1.170 . S
C139 C138 1.170 . S
C140 C141 1.170 . S
C140 C142 1.380 . S
C141 C140 1.170 . S
C142 C140 1.380 . S
C142 C143 1.170 . S
C143 C142 1.170 . S
C144 C145 1.170 . S
C144 C146 1.380 . S
C145 C144 1.170 . S
C146 C144 1.380 . S
C146 C147 1.170 1_554 S
C147 C146 1.170 1_556 S
C148 C149 1.170 . S
C148 C150 1.380 1_554 S
C149 C148 1.170 . S
C150 C148 1.380 1_556 S
C150 C151 1.170 . S
C151 C150 1.170 . S
C152 C153 1.170 . S
C152 C154 1.380 1_554 S
C153 C152 1.170 . S
C154 C152 1.380 1_556 S
C154 C155 1.170 . S
C155 C154 1.170 . S
C156 C157 1.170 . S
C156 C158 1.388 . S
C157 C156 1.170 . S
C158 C156 1.388 . S
C158 C159 1.162 1_556 S
C159 C158 1.162 1_554 S
C160 C161 1.170 . S
C160 C162 1.380 1_655 S
C161 C160 1.170 . S
C162 C160 1.380 1_455 S
C162 C163 1.170 . S
C163 C162 1.170 . S
C164 C165 1.170 . S
C164 C166 1.380 1_545 S
C165 C164 1.170 . S
C166 C164 1.380 1_565 S
C166 C167 1.170 . S
C167 C166 1.170 . S
C168 C169 1.170 . S
C168 C170 1.380 1_545 S
C169 C168 1.170 . S
C170 C168 1.380 1_565 S
C170 C171 1.170 . S
C171 C170 1.170 . S
C172 C173 1.170 . S
C172 C174 1.380 1_455 S
C173 C172 1.170 . S
C174 C172 1.380 1_655 S
C174 C175 1.170 . S
C175 C174 1.170 . S
C113 C105 1.525 . S
C115 C7 1.566 . S
C117 C21 1.535 . S
C119 C63 1.561 . S
C121 C35 1.566 . S
C123 C77 1.525 . S
C125 C91 1.530 . S
C127 C49 1.557 . S
C129 C22 1.545 1_545 S
C131 C6 1.513 . S
C133 C20 1.535 . S
C135 C36 1.545 1_455 S
C137 C50 1.540 1_565 S
C139 C34 1.534 . S
C141 C48 1.524 . S
C143 C8 1.545 1_655 S
C145 C106 1.546 . S
C147 C62 1.530 . S
C149 C76 1.534 . S
C151 C64 1.540 . S
C153 C78 1.536 . S
C155 C90 1.519 . S
C157 C92 1.541 . S
C159 C104 1.515 . S
C161 C37 1.337 . S
C163 C9 1.356 . S
C165 C51 1.305 . S
C167 C23 1.340 . S
C169 C93 1.329 . S
C171 C65 1.310 . S
C173 C107 1.356 . S
C175 C79 1.359 . S
