# Generated by pormake.
# Topology bcu, (8)-cn, num edge types: 1
# Building blocks:
#     Node 0, Type 0, BuildingBlock: GIZVER_clean_sbu_0, # of connection points: 8
#     Node 1, Type 0, BuildingBlock: GIZVER_clean_sbu_0, # of connection points: 8
#     Edge 2, Type (0, 0), None
#     Edge 3, Type (0, 0), None
#     Edge 4, Type (0, 0), None
#     Edge 5, Type (0, 0), None
#     Edge 6, Type (0, 0), None
#     Edge 7, Type (0, 0), None
#     Edge 8, Type (0, 0), None
#     Edge 9, Type (0, 0), None
# Relax obj value: 0.000
# Max RMSD: 0.010
# Mean RMSD: 0.010
data_MOF--net-bcu--node1-GIZVER_clean_sbu_0--edge1-none
_symmetry_space_group_name_H-M    P1
_symmetry_Int_Tables_number       1
_symmetry_cell_setting            triclinic
loop_
_symmetry_equiv_pos_as_xyz
'x, y, z'
_cell_length_a     11.559541
_cell_length_b     13.730565
_cell_length_c     7.579652
_cell_angle_alpha  89.00115
_cell_angle_beta   99.583325
_cell_angle_gamma 124.27134
loop_
_atom_site_label
_atom_site_type_symbol
_atom_site_fract_x
_atom_site_fract_y
_atom_site_fract_z
_atom_type_partial_charge
Co0 Co 0.1532 0.84842 0.84719 0.0
Co1 Co 0.15929 0.8848 0.18147 0.0
Co2 Co 0.06369 0.0349 -0.04197 0.0
O3 O 0.19128 0.97966 -0.00503 0.0
H4 H 0.29073 0.04496 0.0151 0.0
O5 O 0.9361 0.09014 0.9211 0.0
Co6 Co 0.97419 0.22138 0.06887 0.0
Co7 Co 0.9681 0.185 0.73459 0.0
H8 H 0.83665 1.02483 0.90097 0.0
O9 O 0.31215 0.89667 0.31771 0.0
O10 O 0.16283 0.7708 0.06912 0.0
O11 O 0.98007 0.80729 0.25442 0.0
O12 O 0.90989 0.90528 0.08286 0.0
O13 O 0.16839 0.13764 0.18583 0.0
O14 O 0.99362 0.33734 0.20453 0.0
O15 O 0.79136 0.16708 0.07246 0.0
O16 O 0.17501 0.29436 0.09348 0.0
O17 O 0.21749 0.16452 0.83321 0.0
O18 O 0.14731 0.26251 0.66165 0.0
O19 O 0.96455 0.29899 0.84695 0.0
O20 O 0.81523 0.17312 0.59836 0.0
C21 C 0.2721 0.80268 0.74395 0.0
C22 C 0.89101 0.82107 0.73886 0.0
C23 C 0.88559 0.82412 0.18757 0.0
C24 C 0.27372 0.81157 0.19922 0.0
C25 C 0.85528 0.26712 0.17212 0.0
C26 C 0.23638 0.24873 0.17721 0.0
C27 C 0.24179 0.24568 0.7285 0.0
C28 C 0.85367 0.25822 0.71685 0.0
O29 O 0.13376 0.73246 0.71153 0.0
O30 O 0.33603 0.90272 0.84361 0.0
O31 O 0.95899 0.93216 0.73024 0.0
O32 O 0.95237 0.77544 0.82259 0.0
Co33 Co 0.6532 0.34842 0.3472 0.0
Co34 Co 0.65929 0.3848 0.68148 0.0
Co35 Co 0.56369 0.5349 0.45803 0.0
O36 O 0.69128 0.47966 0.49497 0.0
H37 H 0.79073 0.54497 0.5151 0.0
O38 O 0.4361 0.59014 0.4211 0.0
Co39 Co 0.47418 0.72138 0.56887 0.0
Co40 Co 0.46809 0.685 0.23459 0.0
H41 H 0.33665 0.52483 0.40097 0.0
O42 O 0.81216 0.39668 0.81772 0.0
O43 O 0.66284 0.27081 0.56913 0.0
O44 O 0.48007 0.30729 0.75442 0.0
O45 O 0.40989 0.40527 0.58285 0.0
O46 O 0.66839 0.63763 0.68583 0.0
O47 O 0.49361 0.83734 0.70452 0.0
O48 O 0.29135 0.66708 0.57245 0.0
O49 O 0.675 0.79436 0.59348 0.0
O50 O 0.71749 0.66453 0.33322 0.0
O51 O 0.64731 0.76251 0.16165 0.0
O52 O 0.46455 0.79899 0.34694 0.0
O53 O 0.31523 0.67312 0.09835 0.0
C54 C 0.77211 0.30268 0.24396 0.0
C55 C 0.39103 0.32108 0.23883 0.0
C56 C 0.38559 0.32412 0.68756 0.0
C57 C 0.77372 0.31158 0.69923 0.0
C58 C 0.35527 0.76712 0.67211 0.0
C59 C 0.73635 0.74872 0.67724 0.0
C60 C 0.74179 0.74568 0.22851 0.0
C61 C 0.35366 0.75822 0.21684 0.0
O62 O 0.63377 0.23246 0.21154 0.0
O63 O 0.83603 0.40272 0.34362 0.0
O64 O 0.459 0.43216 0.23024 0.0
O65 O 0.45238 0.27544 0.32259 0.0
loop_
_geom_bond_atom_site_label_1
_geom_bond_atom_site_label_2
_geom_bond_distance
_geom_bond_site_symmetry_2
_ccdc_geom_bond_type
Co0 O3 2.042 1_556 S
Co0 O10 2.264 1_556 S
Co0 O29 2.286 . S
Co0 O30 2.069 . S
Co0 O32 2.015 1_455 S
Co1 O3 2.122 . S
Co1 O9 2.073 . S
Co1 O10 2.327 . S
Co1 O11 1.976 1_455 S
Co2 O3 2.087 1_545 S
Co2 O5 2.087 1_454 S
Co2 O12 2.111 1_445 S
Co2 O13 2.143 . S
Co2 O17 2.111 1_554 S
Co2 O31 2.143 1_444 S
O3 Co0 2.042 1_554 S
O3 Co1 2.122 . S
O3 Co2 2.087 1_565 S
O3 H4 0.980 . S
H4 O3 0.980 . S
O5 Co2 2.087 1_656 S
O5 Co6 2.042 1_556 S
O5 Co7 2.122 . S
O5 H8 0.980 . S
Co6 O5 2.042 1_554 S
Co6 O14 2.286 . S
Co6 O15 2.069 . S
Co6 O16 2.015 1_655 S
Co6 O19 2.264 1_554 S
Co7 O5 2.122 . S
Co7 O18 1.976 1_655 S
Co7 O19 2.327 . S
Co7 O20 2.073 . S
H8 O5 0.980 . S
O9 Co1 2.073 . S
O9 C24 1.245 . S
O10 Co0 2.264 1_554 S
O10 Co1 2.327 . S
O10 C24 1.257 . S
O11 Co1 1.976 1_655 S
O11 C23 1.251 . S
O12 Co2 2.111 1_665 S
O12 C23 1.274 . S
O13 Co2 2.143 . S
O13 C26 1.246 . S
O14 Co6 2.286 . S
O14 C25 1.259 . S
O15 Co6 2.069 . S
O15 C25 1.289 . S
O16 Co6 2.015 1_455 S
O16 C26 1.257 . S
O17 Co2 2.111 1_556 S
O17 C27 1.274 . S
O18 Co7 1.976 1_455 S
O18 C27 1.251 . S
O19 Co6 2.264 1_556 S
O19 Co7 2.327 . S
O19 C28 1.257 . S
O20 Co7 2.073 . S
O20 C28 1.245 . S
C21 O29 1.259 . S
C21 O30 1.289 . S
C22 O31 1.246 . S
C22 O32 1.257 . S
C23 O11 1.251 . S
C23 O12 1.274 . S
C24 O9 1.245 . S
C24 O10 1.257 . S
C25 O14 1.259 . S
C25 O15 1.289 . S
C26 O13 1.246 . S
C26 O16 1.257 . S
C27 O17 1.274 . S
C27 O18 1.251 . S
C28 O19 1.257 . S
C28 O20 1.245 . S
O29 Co0 2.286 . S
O29 C21 1.259 . S
O30 Co0 2.069 . S
O30 C21 1.289 . S
O31 Co2 2.143 1_666 S
O31 C22 1.246 . S
O32 Co0 2.015 1_655 S
O32 C22 1.257 . S
Co33 O36 2.042 . S
Co33 O43 2.264 . S
Co33 O62 2.286 . S
Co33 O63 2.069 . S
Co33 O65 2.015 . S
Co34 O36 2.122 . S
Co34 O42 2.073 . S
Co34 O43 2.327 . S
Co34 O44 1.976 . S
Co35 O36 2.087 . S
Co35 O38 2.087 . S
Co35 O45 2.111 . S
Co35 O46 2.143 . S
Co35 O50 2.111 . S
Co35 O64 2.143 . S
O36 Co33 2.042 . S
O36 Co34 2.122 . S
O36 Co35 2.087 . S
O36 H37 0.980 . S
H37 O36 0.980 . S
O38 Co35 2.087 . S
O38 Co39 2.042 . S
O38 Co40 2.122 . S
O38 H41 0.980 . S
Co39 O38 2.042 . S
Co39 O47 2.286 . S
Co39 O48 2.069 . S
Co39 O49 2.015 . S
Co39 O52 2.264 . S
Co40 O38 2.122 . S
Co40 O51 1.976 . S
Co40 O52 2.327 . S
Co40 O53 2.073 . S
H41 O38 0.980 . S
O42 Co34 2.073 . S
O42 C57 1.245 . S
O43 Co33 2.264 . S
O43 Co34 2.327 . S
O43 C57 1.257 . S
O44 Co34 1.976 . S
O44 C56 1.251 . S
O45 Co35 2.111 . S
O45 C56 1.274 . S
O46 Co35 2.143 . S
O46 C59 1.246 . S
O47 Co39 2.286 . S
O47 C58 1.259 . S
O48 Co39 2.069 . S
O48 C58 1.289 . S
O49 Co39 2.015 . S
O49 C59 1.257 . S
O50 Co35 2.111 . S
O50 C60 1.274 . S
O51 Co40 1.976 . S
O51 C60 1.251 . S
O52 Co39 2.264 . S
O52 Co40 2.327 . S
O52 C61 1.257 . S
O53 Co40 2.073 . S
O53 C61 1.245 . S
C54 O62 1.259 . S
C54 O63 1.289 . S
C55 O64 1.246 . S
C55 O65 1.257 . S
C56 O44 1.251 . S
C56 O45 1.274 . S
C57 O42 1.245 . S
C57 O43 1.257 . S
C58 O47 1.259 . S
C58 O48 1.289 . S
C59 O46 1.246 . S
C59 O49 1.257 . S
C60 O50 1.274 . S
C60 O51 1.251 . S
C61 O52 1.257 . S
C61 O53 1.245 . S
O62 Co33 2.286 . S
O62 C54 1.259 . S
O63 Co33 2.069 . S
O63 C54 1.289 . S
O64 Co35 2.143 . S
O64 C55 1.246 . S
O65 Co33 2.015 . S
O65 C55 1.257 . S
C26 C55 1.527 . S
C25 C54 1.485 . S
C23 C60 1.482 . S
C24 C61 1.521 . S
C21 C58 1.485 . S
C56 C27 1.480 . S
C28 C57 1.520 . S
C59 C22 1.530 . S
