# Generated by pormake.
# Topology pcu, (6)-cn, num edge types: 1
# Building blocks:
#     Node 0, Type 0, BuildingBlock: CUWYAW_clean_sbu_0, # of connection points: 6
#     Edge 1, Type (0, 0), BuildingBlock: XIVTED_clean_linker_0, # of connection points: 2
#     Edge 2, Type (0, 0), BuildingBlock: XIVTED_clean_linker_0, # of connection points: 2
#     Edge 3, Type (0, 0), BuildingBlock: XIVTED_clean_linker_0, # of connection points: 2
# Relax obj value: 0.000
# Max RMSD: 0.000
# Mean RMSD: 0.000
data_MOF--net-pcu--node1-CUWYAW_clean_sbu_0--edge1-XIVTED_clean_linker_0
_symmetry_space_group_name_H-M    P1
_symmetry_Int_Tables_number       1
_symmetry_cell_setting            triclinic
loop_
_symmetry_equiv_pos_as_xyz
'x, y, z'
_cell_length_a     25.683773
_cell_length_b     15.697736
_cell_length_c     14.514672
_cell_angle_alpha  92.547072
_cell_angle_beta   97.97197
_cell_angle_gamma 121.61734
loop_
_atom_site_label
_atom_site_type_symbol
_atom_site_fract_x
_atom_site_fract_y
_atom_site_fract_z
_atom_type_partial_charge
C0 C 0.20154 0.10123 0.96753 0.0
Eu1 Eu 0.09199 0.03675 1.00823 0.0
C2 C 0.24989 0.07556 0.97768 0.0
C3 C 0.28726 0.09209 0.06538 0.0
C4 C 0.33502 0.07291 0.07261 0.0
C5 C 0.34664 0.03677 0.99241 0.0
C6 C 0.30871 0.01914 0.90496 0.0
C7 C 0.26111 0.03867 0.8977 0.0
C8 C 0.06505 0.024 0.18331 0.0
C9 C 1.01694 0.79213 1.0096 0.0
C10 C 0.84387 0.85425 0.05371 0.0
Eu11 Eu 0.95362 0.91899 0.01365 0.0
C12 C 0.79558 0.88003 0.04361 0.0
C13 C 0.75814 0.86338 0.95594 0.0
C14 C 0.71039 0.88261 0.94875 0.0
C15 C 0.69885 0.91888 0.02894 0.0
C16 C 0.73685 0.93664 0.11636 0.0
C17 C 0.78444 0.91708 0.12359 0.0
C18 C 0.98096 0.93187 0.83868 0.0
C19 C 0.02869 0.16364 0.01258 0.0
O20 O 0.14921 0.03919 0.90895 0.0
O21 O 0.19302 0.13628 0.04373 0.0
O22 O 0.11242 0.10249 0.16071 0.0
O23 O 0.03688 0.954 0.11502 0.0
O24 O 0.06435 0.87292 0.98563 0.0
O25 O 0.97121 0.79516 0.03808 0.0
O26 O 0.89609 0.9159 0.11268 0.0
O27 O 0.8526 0.81969 0.97742 0.0
O28 O 0.93365 0.85317 0.86118 0.0
O29 O 1.00868 0.00176 0.90701 0.0
O30 O 0.98128 0.08282 0.03653 0.0
O31 O 0.07439 0.16061 0.98401 0.0
H32 H 0.28011 0.12074 0.12853 0.0
H33 H 0.36278 0.08616 0.14124 0.0
H34 H 0.31678 -0.00736 0.84154 0.0
H35 H 0.23358 0.02627 0.82904 0.0
H36 H 0.76522 0.83459 0.8928 0.0
H37 H 0.68259 0.86926 0.88014 0.0
H38 H 0.72883 0.96325 0.17978 0.0
H39 H 0.81201 0.92955 0.19224 0.0
H40 H 0.12763 0.16378 0.34067 0.0
H41 H 0.91883 0.79206 0.6814 0.0
H42 H 0.97405 0.85754 0.24519 0.0
H43 H 0.07183 0.09872 0.77693 0.0
H44 H 0.93866 0.81423 0.52137 0.0
H45 H 0.10789 0.14173 0.50079 0.0
C46 C 0.08967 0.09193 0.35349 0.0
C47 C 0.05249 0.01229 0.27975 0.0
C48 C 0.96797 0.87673 0.57723 0.0
C49 C 0.02962 -0.01371 0.46277 0.0
C50 C 0.95669 0.86404 0.6686 0.0
C51 C 0.99366 0.94376 0.74232 0.0
C52 C 1.01666 0.9699 0.55938 0.0
C53 C 0.04216 0.03536 0.72198 0.0
C54 C 0.07844 0.07931 0.44491 0.0
C55 C 1.00387 0.92084 0.30013 0.0
N56 N 0.05221 0.04598 0.63242 0.0
N57 N 0.99389 0.9103 0.38972 0.0
H58 H 0.46436 0.15359 0.0996 0.0
H59 H 0.58109 0.80197 0.92191 0.0
H60 H 0.34847 0.88119 0.90111 0.0
H61 H 0.69705 0.07454 0.12018 0.0
H62 H 0.49571 0.8303 0.91262 0.0
H63 H 0.54975 0.12526 0.10891 0.0
C64 C 0.45663 0.08735 0.05846 0.0
C65 C 0.39889 0.01961 0.99956 0.0
C66 C 0.53983 0.88402 0.95811 0.0
C67 C 0.4971 -0.01271 1.00911 0.0
C68 C 0.58884 0.86825 0.96301 0.0
C69 C 0.6466 0.93604 0.02183 0.0
C70 C 0.54839 0.96836 0.01231 0.0
C71 C 0.65326 0.01957 0.07469 0.0
C72 C 0.50564 0.07158 0.06337 0.0
C73 C 0.39225 0.93612 0.94665 0.0
N74 N 0.60487 0.03335 0.0686 0.0
N75 N 0.44064 0.92234 0.95276 0.0
H76 H 0.93147 0.61235 0.06198 0.0
H77 H 0.11417 0.34346 0.96032 0.0
H78 H 0.10349 0.75812 0.95689 0.0
H79 H 0.94216 0.19765 0.06541 0.0
H80 H 0.1112 0.49635 0.95899 0.0
H81 H 0.93447 0.45947 0.06341 0.0
C82 C 0.96981 0.61225 0.03904 0.0
C83 C 1.01731 0.6983 1.00933 0.0
C84 C 0.07414 0.43091 0.98241 0.0
C85 C 1.02107 0.52352 0.01095 0.0
C86 C 0.07584 0.34356 0.98329 0.0
C87 C 0.02834 0.25749 0.01297 0.0
C88 C 0.0246 0.43229 0.01145 0.0
C89 C 0.9798 0.26211 0.04188 0.0
C90 C 0.97152 0.5249 0.03997 0.0
C91 C 0.06585 0.69367 0.98045 0.0
N92 N 0.97918 0.34799 0.04033 0.0
N93 N 0.06647 0.60779 0.98205 0.0
loop_
_geom_bond_atom_site_label_1
_geom_bond_atom_site_label_2
_geom_bond_distance
_geom_bond_site_symmetry_2
_ccdc_geom_bond_type
C0 Eu1 2.835 . S
C0 C2 1.500 . S
C0 O20 1.257 1_554 S
C0 O21 1.260 . S
Eu1 C0 2.835 . S
Eu1 O20 2.473 1_554 S
Eu1 O21 2.480 . S
Eu1 O22 2.430 . S
Eu1 O23 2.670 1_455 S
Eu1 O24 2.394 1_545 S
Eu1 O29 2.355 1_544 S
Eu1 O31 2.374 . S
C2 C0 1.500 . S
C2 C3 1.377 . S
C2 C7 1.377 1_544 S
C3 C2 1.377 . S
C3 C4 1.395 . S
C3 H32 0.931 . S
C4 C3 1.395 . S
C4 C5 1.388 . S
C4 H33 0.931 . S
C5 C4 1.388 . S
C5 C6 1.396 1_544 S
C6 C5 1.396 1_566 S
C6 C7 1.378 . S
C6 H34 0.931 . S
C7 C2 1.377 1_566 S
C7 C6 1.378 . S
C7 H35 0.931 . S
C8 O22 1.259 . S
C8 O23 1.270 1_455 S
C9 O24 1.251 1_655 S
C9 O25 1.251 1_554 S
C10 Eu11 2.835 . S
C10 C12 1.500 . S
C10 O26 1.257 1_556 S
C10 O27 1.260 . S
Eu11 C10 2.835 . S
Eu11 O23 2.355 1_566 S
Eu11 O25 2.374 . S
Eu11 O26 2.473 1_556 S
Eu11 O27 2.480 . S
Eu11 O28 2.430 . S
Eu11 O29 2.670 1_655 S
Eu11 O30 2.394 1_565 S
C12 C10 1.500 . S
C12 C13 1.377 . S
C12 C17 1.377 1_566 S
C13 C12 1.377 . S
C13 C14 1.395 . S
C13 H36 0.931 . S
C14 C13 1.395 . S
C14 C15 1.387 . S
C14 H37 0.931 . S
C15 C14 1.387 . S
C15 C16 1.396 1_566 S
C16 C15 1.396 1_544 S
C16 C17 1.378 . S
C16 H38 0.931 . S
C17 C12 1.377 1_544 S
C17 C16 1.378 . S
C17 H39 0.931 . S
C18 O28 1.259 . S
C18 O29 1.270 1_655 S
C19 O30 1.251 1_455 S
C19 O31 1.251 1_556 S
O20 C0 1.257 1_556 S
O20 Eu1 2.473 1_556 S
O21 C0 1.260 . S
O21 Eu1 2.480 . S
O22 Eu1 2.430 . S
O22 C8 1.259 . S
O23 Eu1 2.670 1_655 S
O23 C8 1.270 1_655 S
O23 Eu11 2.355 1_544 S
O24 Eu1 2.394 1_565 S
O24 C9 1.251 1_455 S
O25 C9 1.251 1_556 S
O25 Eu11 2.374 . S
O26 C10 1.257 1_554 S
O26 Eu11 2.473 1_554 S
O27 C10 1.260 . S
O27 Eu11 2.480 . S
O28 Eu11 2.430 . S
O28 C18 1.259 . S
O29 Eu1 2.355 1_566 S
O29 Eu11 2.670 1_455 S
O29 C18 1.270 1_455 S
O30 Eu11 2.394 1_545 S
O30 C19 1.251 1_655 S
O31 Eu1 2.374 . S
O31 C19 1.251 1_554 S
H32 C3 0.931 . S
H33 C4 0.931 . S
H34 C6 0.931 . S
H35 C7 0.931 . S
H36 C13 0.931 . S
H37 C14 0.931 . S
H38 C16 0.931 . S
H39 C17 0.931 . S
H40 C46 0.930 . S
H41 C50 0.930 . S
H42 C55 0.929 . S
H43 C53 0.929 . S
H44 C48 0.929 . S
H45 C54 0.929 . S
C46 H40 0.930 . S
C46 C47 1.367 . S
C46 C54 1.378 . S
C47 C46 1.367 . S
C47 C55 1.433 1_645 S
C48 H44 0.929 . S
C48 C50 1.378 . S
C48 C52 1.355 . S
C49 C52 1.464 1_645 S
C49 C54 1.352 . S
C49 N57 1.425 1_645 S
C50 H41 0.930 . S
C50 C48 1.378 . S
C50 C51 1.371 . S
C51 C50 1.371 . S
C51 C53 1.430 1_465 S
C52 C48 1.355 . S
C52 C49 1.464 1_465 S
C52 N56 1.421 1_465 S
C53 H43 0.929 . S
C53 C51 1.430 1_645 S
C53 N56 1.384 . S
C54 H45 0.929 . S
C54 C46 1.378 . S
C54 C49 1.352 . S
C55 H42 0.929 . S
C55 C47 1.433 1_465 S
C55 N57 1.384 . S
N56 C52 1.421 1_645 S
N56 C53 1.384 . S
N57 C49 1.425 1_465 S
N57 C55 1.384 . S
H58 C64 0.930 . S
H59 C68 0.930 . S
H60 C73 0.929 . S
H61 C71 0.929 . S
H62 C66 0.929 . S
H63 C72 0.929 . S
C64 H58 0.930 . S
C64 C65 1.367 . S
C64 C72 1.378 . S
C65 C64 1.367 . S
C65 C73 1.433 1_544 S
C66 H62 0.929 . S
C66 C68 1.378 . S
C66 C70 1.350 . S
C67 C70 1.463 1_544 S
C67 C72 1.350 . S
C67 N75 1.427 1_544 S
C68 H59 0.930 . S
C68 C66 1.378 . S
C68 C69 1.370 . S
C69 C68 1.370 . S
C69 C71 1.429 1_566 S
C70 C66 1.350 . S
C70 C67 1.463 1_566 S
C70 N74 1.427 1_566 S
C71 H61 0.929 . S
C71 C69 1.429 1_544 S
C71 N74 1.384 . S
C72 H63 0.929 . S
C72 C64 1.378 . S
C72 C67 1.350 . S
C73 H60 0.929 . S
C73 C65 1.433 1_566 S
C73 N75 1.384 . S
N74 C70 1.427 1_544 S
N74 C71 1.384 . S
N75 C67 1.427 1_566 S
N75 C73 1.384 . S
H76 C82 0.930 . S
H77 C86 0.930 . S
H78 C91 0.929 . S
H79 C89 0.929 . S
H80 C84 0.929 . S
H81 C90 0.929 . S
C82 H76 0.930 . S
C82 C83 1.371 . S
C82 C90 1.378 . S
C83 C82 1.371 . S
C83 C91 1.435 1_454 S
C84 H80 0.929 . S
C84 C86 1.378 . S
C84 C88 1.348 . S
C85 C88 1.476 1_454 S
C85 C90 1.347 . S
C85 N93 1.422 1_454 S
C86 H77 0.930 . S
C86 C84 1.378 . S
C86 C87 1.369 . S
C87 C86 1.369 . S
C87 C89 1.434 1_656 S
C88 C84 1.348 . S
C88 C85 1.476 1_656 S
C88 N92 1.424 1_656 S
C89 H79 0.929 . S
C89 C87 1.434 1_454 S
C89 N92 1.384 . S
C90 H81 0.929 . S
C90 C82 1.378 . S
C90 C85 1.347 . S
C91 H78 0.929 . S
C91 C83 1.435 1_656 S
C91 N93 1.384 . S
N92 C88 1.424 1_454 S
N92 C89 1.384 . S
N93 C85 1.422 1_656 S
N93 C91 1.384 . S
C47 C8 1.452 1_655 S
C51 C18 1.451 1_455 S
C65 C5 1.493 . S
C69 C15 1.496 . S
C83 C9 1.479 1_455 S
C87 C19 1.482 1_655 S
