# Generated by pormake.
# Topology bsn, (6)-cn, num edge types: 1
# Building blocks:
#     Node 0, Type 0, BuildingBlock: LEVNOQ01_clean_sbu_1, # of connection points: 6
#     Node 1, Type 0, BuildingBlock: LEVNOQ01_clean_sbu_1, # of connection points: 6
#     Node 2, Type 0, BuildingBlock: LEVNOQ01_clean_sbu_1, # of connection points: 6
#     Node 3, Type 0, BuildingBlock: LEVNOQ01_clean_sbu_1, # of connection points: 6
#     Edge 4, Type (0, 0), BuildingBlock: AJUNOK_clean_linker_0, # of connection points: 2
#     Edge 5, Type (0, 0), BuildingBlock: AJUNOK_clean_linker_0, # of connection points: 2
#     Edge 6, Type (0, 0), BuildingBlock: AJUNOK_clean_linker_0, # of connection points: 2
#     Edge 7, Type (0, 0), BuildingBlock: AJUNOK_clean_linker_0, # of connection points: 2
#     Edge 8, Type (0, 0), BuildingBlock: AJUNOK_clean_linker_0, # of connection points: 2
#     Edge 9, Type (0, 0), BuildingBlock: AJUNOK_clean_linker_0, # of connection points: 2
#     Edge 10, Type (0, 0), BuildingBlock: AJUNOK_clean_linker_0, # of connection points: 2
#     Edge 11, Type (0, 0), BuildingBlock: AJUNOK_clean_linker_0, # of connection points: 2
#     Edge 12, Type (0, 0), BuildingBlock: AJUNOK_clean_linker_0, # of connection points: 2
#     Edge 13, Type (0, 0), BuildingBlock: AJUNOK_clean_linker_0, # of connection points: 2
#     Edge 14, Type (0, 0), BuildingBlock: AJUNOK_clean_linker_0, # of connection points: 2
#     Edge 15, Type (0, 0), BuildingBlock: AJUNOK_clean_linker_0, # of connection points: 2
# Relax obj value: 0.179
# Max RMSD: 0.191
# Mean RMSD: 0.191
data_MOF--net-bsn--node1-LEVNOQ01_clean_sbu_1--edge1-AJUNOK_clean_linker_0
_symmetry_space_group_name_H-M    P1
_symmetry_Int_Tables_number       1
_symmetry_cell_setting            triclinic
loop_
_symmetry_equiv_pos_as_xyz
'x, y, z'
_cell_length_a     23.388237
_cell_length_b     23.109159
_cell_length_c     11.998435
_cell_angle_alpha  90.496671
_cell_angle_beta   94.501313
_cell_angle_gamma 89.926666
loop_
_atom_site_label
_atom_site_type_symbol
_atom_site_fract_x
_atom_site_fract_y
_atom_site_fract_z
_atom_type_partial_charge
O0 O 0.96724 0.20524 0.55291 0.0
Mg1 Mg 0.96895 0.16482 0.39452 0.0
O2 O 0.05359 0.22862 0.51696 0.0
Mg3 Mg 0.03211 0.22775 0.32361 0.0
O4 O 0.0332 0.12374 0.31185 0.0
O5 O 0.9832 0.08391 0.44393 0.0
O6 O 0.0197 0.23157 0.13011 0.0
O7 O 0.13061 0.20987 0.29707 0.0
Mg8 Mg 0.10322 0.32267 0.26906 0.0
O9 O 0.03324 0.32772 0.35578 0.0
O10 O 0.08545 0.29738 0.09852 0.0
O11 O 0.16823 0.28582 0.37789 0.0
O12 O 0.08268 0.40509 0.30588 0.0
C13 C 0.88483 0.2207 0.30121 0.0
C14 C 0.01568 0.22463 0.58623 0.0
C15 C 0.02075 0.07951 0.37189 0.0
C16 C 0.04795 0.26065 0.06286 0.0
C17 C 0.17553 0.23801 0.33035 0.0
C18 C 0.04222 0.38312 0.35922 0.0
O19 O 0.88951 0.16661 0.30839 0.0
O20 O 0.92983 0.25206 0.31798 0.0
O21 O 0.08357 0.72874 0.37323 0.0
Mg22 Mg 0.07718 0.67741 0.51798 0.0
O23 O 0.99305 0.73344 0.39562 0.0
Mg24 Mg 0.01184 0.73497 0.59023 0.0
O25 O 0.01596 0.6318 0.59832 0.0
O26 O 0.05749 0.59979 0.44778 0.0
O27 O 0.02057 0.74004 0.78545 0.0
O28 O 0.91543 0.71449 0.60554 0.0
Mg29 Mg 0.93742 0.84283 0.67158 0.0
O30 O 1.00057 0.83189 0.5689 0.0
O31 O 0.97118 0.81833 0.83243 0.0
O32 O 0.8655 0.79582 0.60399 0.0
O33 O 0.96289 0.91817 0.59885 0.0
C34 C 0.1589 0.73096 0.62339 0.0
C35 C 0.03367 0.73928 0.33306 0.0
C36 C 0.02394 0.59113 0.52566 0.0
C37 C 1.00234 0.77476 0.8586 0.0
C38 C 0.86764 0.74104 0.60417 0.0
C39 C 0.99842 0.88661 0.54818 0.0
O40 O 0.15508 0.67691 0.61013 0.0
O41 O 0.114 0.76237 0.60438 0.0
O42 O 0.45161 0.69774 0.03629 0.0
Mg43 Mg 0.45993 0.66533 0.86819 0.0
O44 O 0.53696 0.73638 0.0296 0.0
Mg45 Mg 0.52645 0.73438 0.83757 0.0
O46 O 0.53641 0.62938 0.84337 0.0
O47 O 0.45762 0.57878 0.87642 0.0
O48 O 0.5149 0.73121 0.64011 0.0
O49 O 0.6238 0.71755 0.82336 0.0
Mg50 Mg 0.59057 0.83816 0.73727 0.0
O51 O 0.53031 0.83426 0.84942 0.0
O52 O 0.55595 0.8104 0.57877 0.0
O53 O 0.66826 0.80025 0.80159 0.0
O54 O 0.56631 0.91749 0.79303 0.0
C55 C 0.39246 0.7367 0.75841 0.0
C56 C 0.49542 0.72178 0.08558 0.0
C57 C 0.5114 0.58033 0.86063 0.0
C58 C 0.52761 0.76416 0.5604 0.0
C59 C 0.66977 0.7459 0.81382 0.0
C60 C 0.53282 0.89033 0.85524 0.0
O61 O 0.40615 0.68727 0.72578 0.0
O62 O 0.42576 0.76072 0.83395 0.0
O63 O 0.56198 0.16895 0.82862 0.0
Mg64 Mg 0.5888 0.15603 -0.00455 0.0
O65 O 0.50855 0.23855 0.89357 0.0
Mg66 Mg 0.5143 0.23352 0.08948 0.0
O67 O 0.52138 0.13098 0.0882 0.0
O68 O 0.59217 0.07257 0.03911 0.0
O69 O 0.5137 0.23316 0.27986 0.0
O70 O 0.41476 0.2135 0.0879 0.0
Mg71 Mg 0.43226 0.33545 0.15231 0.0
O72 O 0.50847 0.33322 0.08421 0.0
O73 O 0.44655 0.29837 0.31468 0.0
O74 O 0.38027 0.29436 0.02307 0.0
O75 O 0.46529 0.41581 0.12335 0.0
C76 C 0.66223 0.23787 0.10629 0.0
C77 C 0.5272 0.2103 0.8121 0.0
C78 C 0.54295 0.0792 0.07873 0.0
C79 C 0.48291 0.25988 0.34688 0.0
C80 C 0.37111 0.24422 0.05791 0.0
C81 C 0.50651 0.3891 0.07943 0.0
O82 O 0.6669 0.19234 0.05006 0.0
O83 O 0.61263 0.25623 0.12557 0.0
C84 C 0.0549 0.43874 0.53337 0.0
C85 C 0.01753 0.42023 0.44269 0.0
C86 C 0.04849 0.49335 0.58206 0.0
C87 C 0.00538 0.53123 0.53933 0.0
H88 H 0.09367 0.41445 0.55648 0.0
H89 H 0.08302 0.50944 0.6396 0.0
S90 S 0.88525 0.49404 0.33158 0.0
N91 N 0.92734 0.43646 0.33389 0.0
N92 N 0.91573 0.54023 0.42409 0.0
C93 C 0.96194 0.5088 0.46354 0.0
C94 C 0.9682 0.45286 0.41456 0.0
C95 C 0.77077 0.71098 0.82381 0.0
C96 C 0.7173 0.7167 0.76367 0.0
C97 C 0.821 0.7076 0.76727 0.0
C98 C 0.81887 0.71256 0.64992 0.0
H99 H 0.7743 0.71497 0.91412 0.0
H100 H 0.86193 0.70932 0.81633 0.0
S101 S 0.68857 0.71963 0.45566 0.0
N102 N 0.66436 0.71766 0.58125 0.0
N103 N 0.75915 0.71603 0.47599 0.0
C104 C 0.76546 0.71196 0.58919 0.0
C105 C 0.7144 0.71296 0.64625 0.0
C106 C 0.52568 0.42375 0.89449 0.0
C107 C 0.54255 0.42299 0.00947 0.0
C108 C 0.5259 0.47575 0.83492 0.0
C109 C 0.54449 0.52754 0.88838 0.0
H110 H 0.50321 0.38694 0.85538 0.0
H111 H 0.50366 0.47704 0.75228 0.0
S112 S 0.61141 0.54244 0.17714 0.0
N113 N 0.59158 0.47391 0.16632 0.0
N114 N 0.59433 0.57118 0.05329 0.0
C115 C 0.57251 0.52413 -0.00397 0.0
C116 C 0.57099 0.47161 0.05727 0.0
C117 C 0.81635 0.2759 0.1727 0.0
C118 C 0.82749 0.2453 0.27282 0.0
C119 C 0.75999 0.28084 0.12326 0.0
C120 C 0.71353 0.25703 0.17481 0.0
H121 H 0.85157 0.29039 0.12649 0.0
H122 H 0.75336 0.29854 0.03993 0.0
S123 S 0.7198 0.18077 0.44539 0.0
N124 N 0.78732 0.19636 0.42704 0.0
N125 N 0.68161 0.20826 0.33689 0.0
C126 C 0.72376 0.23263 0.28104 0.0
C127 C 0.78087 0.22601 0.32946 0.0
C128 C 0.29132 0.28839 0.15321 0.0
C129 C 0.31869 0.23755 0.11972 0.0
C130 C 0.2469 0.28696 0.22322 0.0
C131 C 0.22596 0.23458 0.26263 0.0
H132 H 0.30521 0.33071 0.12816 0.0
H133 H 0.2282 0.32808 0.24493 0.0
S134 S 0.27951 0.08821 0.19594 0.0
N135 N 0.32084 0.13242 0.13015 0.0
N136 N 0.23394 0.12969 0.25893 0.0
C137 C 0.25119 0.18281 0.22776 0.0
C138 C 0.29833 0.18432 0.15756 0.0
C139 C 0.29391 0.7674 0.79875 0.0
C140 C 0.33514 0.75874 0.721 0.0
C141 C 0.23497 0.76557 0.76441 0.0
C142 C 0.21612 0.75566 0.65164 0.0
H143 H 0.30695 0.76936 0.88737 0.0
H144 H 0.20428 0.76633 0.82753 0.0
S145 S 0.30754 0.74028 0.41461 0.0
N146 N 0.35339 0.74781 0.52564 0.0
N147 N 0.24302 0.74425 0.4614 0.0
C148 C 0.25705 0.753 0.57237 0.0
C149 C 0.31662 0.75477 0.60708 0.0
C150 C 0.47269 0.97347 0.90023 0.0
C151 C 0.50403 0.92458 0.9383 0.0
C152 C 0.47213 0.02398 -0.03414 0.0
C153 C 0.5059 0.02777 0.06806 0.0
H154 H 0.4553 0.97546 0.81389 0.0
H155 H 0.45499 0.06302 0.92633 0.0
S156 S 0.57827 0.90586 0.21917 0.0
N157 N 0.55491 0.87785 0.09682 0.0
N158 N 0.55658 0.97398 0.21767 0.0
C159 C 0.5273 0.97597 0.11547 0.0
C160 C 0.52643 0.92399 0.05009 0.0
C161 C 0.07601 0.95042 0.49942 0.0
C162 C 0.03025 0.91403 0.4624 0.0
C163 C 0.08389 0.00358 0.44696 0.0
C164 C 0.04523 0.02174 0.35835 0.0
H165 H 0.09979 0.94233 0.57897 0.0
H166 H 0.11304 0.0346 0.48907 0.0
S167 S 0.9315 0.93341 0.20945 0.0
N168 N 0.95626 0.89267 0.315 0.0
N169 N 0.97103 -0.00729 0.21708 0.0
C170 C 0.00798 0.98035 0.30682 0.0
C171 C 0.9999 0.92636 0.35992 0.0
C172 C 0.02788 0.29776 0.86939 0.0
C173 C 0.03929 0.25071 0.94154 0.0
C174 C 0.02207 0.28964 0.75298 0.0
C175 C 0.02897 0.2345 0.70601 0.0
H176 H 0.02259 0.34087 0.90333 0.0
H177 H 0.01129 0.32633 0.69967 0.0
S178 S 0.06452 0.09877 0.85753 0.0
N179 N 0.06034 0.14802 -0.0427 0.0
N180 N 0.05054 0.13308 0.73824 0.0
C181 C 0.04195 0.18762 0.77679 0.0
C182 C 0.04688 0.19563 0.89495 0.0
C183 C 0.98836 0.71672 0.02729 0.0
C184 C 0.01443 0.76377 -0.02203 0.0
C185 C 0.99247 0.71041 0.14382 0.0
C186 C 0.02356 0.75045 0.21332 0.0
H187 H 0.96351 0.6856 -0.02424 0.0
H188 H 0.97236 0.67344 0.1796 0.0
S189 S 0.09796 0.88154 0.1245 0.0
N190 N 0.06996 0.85205 0.00669 0.0
N191 N 0.08034 0.83844 0.22548 0.0
C192 C 0.04987 0.79739 0.16481 0.0
C193 C 0.04451 0.80457 0.04688 0.0
C194 C 0.52949 0.69106 0.27799 0.0
C195 C 0.499 0.73059 0.20743 0.0
C196 C 0.53508 0.69971 0.39441 0.0
C197 C 0.51136 0.74886 0.44292 0.0
H198 H 0.5498 0.65377 0.24274 0.0
H199 H 0.56035 0.66936 0.44603 0.0
S200 S 0.4258 0.86369 0.29444 0.0
N201 N 0.44242 0.81864 0.19421 0.0
N202 N 0.45509 0.83646 0.4124 0.0
C203 C 0.47998 0.788 0.37319 0.0
C204 C 0.47323 0.7785 0.25535 0.0
C205 C 0.53363 0.27917 0.53157 0.0
C206 C 0.49153 0.24829 0.46601 0.0
C207 C 0.54309 0.26852 0.64611 0.0
C208 C 0.51064 0.22678 0.69718 0.0
H209 H 0.55975 0.31113 0.49376 0.0
H210 H 0.57693 0.2918 0.69434 0.0
S211 S 0.39445 0.13596 0.56129 0.0
N212 N 0.41616 0.176 0.45921 0.0
N213 N 0.43453 0.15517 0.67525 0.0
C214 C 0.46784 0.19636 0.63274 0.0
C215 C 0.45805 0.20742 0.51643 0.0
loop_
_geom_bond_atom_site_label_1
_geom_bond_atom_site_label_2
_geom_bond_distance
_geom_bond_site_symmetry_2
_ccdc_geom_bond_type
O0 Mg1 1.990 . S
O0 C14 1.253 1_655 S
Mg1 O0 1.990 . S
Mg1 O4 2.180 . S
Mg1 O5 2.117 1_655 S
Mg1 O19 2.030 . S
O2 Mg3 2.072 . S
O2 C14 1.260 . S
Mg3 O2 2.072 . S
Mg3 O4 2.099 1_455 S
Mg3 O6 2.079 . S
Mg3 O7 2.072 . S
Mg3 O9 2.099 . S
Mg3 O20 2.079 1_455 S
O4 Mg1 2.180 . S
O4 Mg3 2.099 1_655 S
O4 C15 1.279 1_655 S
O5 Mg1 2.117 1_455 S
O5 C15 1.250 . S
O6 Mg3 2.079 . S
O6 C16 1.264 . S
O7 Mg3 2.072 . S
O7 C17 1.260 . S
Mg8 O9 2.180 . S
Mg8 O10 2.030 . S
Mg8 O11 1.990 . S
Mg8 O12 2.117 . S
O9 Mg3 2.099 . S
O9 Mg8 2.180 . S
O9 C18 1.279 . S
O10 Mg8 2.030 . S
O10 C16 1.248 . S
O11 Mg8 1.990 . S
O11 C17 1.253 . S
O12 Mg8 2.117 . S
O12 C18 1.250 . S
C13 O19 1.248 . S
C13 O20 1.264 . S
C14 O0 1.253 1_455 S
C14 O2 1.260 . S
C15 O4 1.279 1_455 S
C15 O5 1.250 . S
C16 O6 1.264 . S
C16 O10 1.248 . S
C17 O7 1.260 . S
C17 O11 1.253 . S
C18 O9 1.279 . S
C18 O12 1.250 . S
O19 Mg1 2.030 . S
O19 C13 1.248 . S
O20 Mg3 2.079 1_655 S
O20 C13 1.264 . S
O21 Mg22 1.990 . S
O21 C35 1.253 . S
Mg22 O21 1.990 . S
Mg22 O25 2.180 . S
Mg22 O26 2.117 . S
Mg22 O40 2.030 . S
O23 Mg24 2.072 . S
O23 C35 1.260 . S
Mg24 O23 2.072 . S
Mg24 O25 2.099 . S
Mg24 O27 2.079 . S
Mg24 O28 2.072 1_455 S
Mg24 O30 2.099 . S
Mg24 O41 2.079 . S
O25 Mg22 2.180 . S
O25 Mg24 2.099 . S
O25 C36 1.279 . S
O26 Mg22 2.117 . S
O26 C36 1.250 . S
O27 Mg24 2.079 . S
O27 C37 1.264 . S
O28 Mg24 2.072 1_655 S
O28 C38 1.260 . S
Mg29 O30 2.180 1_655 S
Mg29 O31 2.030 . S
Mg29 O32 1.990 . S
Mg29 O33 2.117 . S
O30 Mg24 2.099 . S
O30 Mg29 2.180 1_455 S
O30 C39 1.279 1_455 S
O31 Mg29 2.030 . S
O31 C37 1.248 1_655 S
O32 Mg29 1.990 . S
O32 C38 1.253 . S
O33 Mg29 2.117 . S
O33 C39 1.250 . S
C34 O40 1.248 . S
C34 O41 1.264 . S
C35 O21 1.253 . S
C35 O23 1.260 . S
C36 O25 1.279 . S
C36 O26 1.250 . S
C37 O27 1.264 . S
C37 O31 1.248 1_455 S
C38 O28 1.260 . S
C38 O32 1.253 . S
C39 O30 1.279 1_655 S
C39 O33 1.250 . S
O40 Mg22 2.030 . S
O40 C34 1.248 . S
O41 Mg24 2.079 . S
O41 C34 1.264 . S
O42 Mg43 1.990 . S
O42 C56 1.253 . S
Mg43 O42 1.990 . S
Mg43 O46 2.180 1_554 S
Mg43 O47 2.117 1_554 S
Mg43 O61 2.030 1_554 S
O44 Mg45 2.072 1_554 S
O44 C56 1.260 . S
Mg45 O44 2.072 1_556 S
Mg45 O46 2.099 . S
Mg45 O48 2.079 . S
Mg45 O49 2.072 . S
Mg45 O51 2.099 . S
Mg45 O62 2.079 . S
O46 Mg43 2.180 1_556 S
O46 Mg45 2.099 . S
O46 C57 1.279 . S
O47 Mg43 2.117 1_556 S
O47 C57 1.250 . S
O48 Mg45 2.079 . S
O48 C58 1.264 . S
O49 Mg45 2.072 . S
O49 C59 1.260 . S
Mg50 O51 2.180 . S
Mg50 O52 2.030 . S
Mg50 O53 1.990 . S
Mg50 O54 2.117 . S
O51 Mg45 2.099 . S
O51 Mg50 2.180 . S
O51 C60 1.279 . S
O52 Mg50 2.030 . S
O52 C58 1.248 . S
O53 Mg50 1.990 . S
O53 C59 1.253 . S
O54 Mg50 2.117 . S
O54 C60 1.250 . S
C55 O61 1.248 . S
C55 O62 1.264 . S
C56 O42 1.253 . S
C56 O44 1.260 . S
C57 O46 1.279 . S
C57 O47 1.250 . S
C58 O48 1.264 . S
C58 O52 1.248 . S
C59 O49 1.260 . S
C59 O53 1.253 . S
C60 O51 1.279 . S
C60 O54 1.250 . S
O61 Mg43 2.030 1_556 S
O61 C55 1.248 . S
O62 Mg45 2.079 . S
O62 C55 1.264 . S
O63 Mg64 1.990 . S
O63 C77 1.253 . S
Mg64 O63 1.990 . S
Mg64 O67 2.180 1_556 S
Mg64 O68 2.117 1_556 S
Mg64 O82 2.030 1_556 S
O65 Mg66 2.072 1_556 S
O65 C77 1.260 . S
Mg66 O65 2.072 1_554 S
Mg66 O67 2.099 . S
Mg66 O69 2.079 . S
Mg66 O70 2.072 . S
Mg66 O72 2.099 . S
Mg66 O83 2.079 . S
O67 Mg64 2.180 1_554 S
O67 Mg66 2.099 . S
O67 C78 1.279 . S
O68 Mg64 2.117 1_554 S
O68 C78 1.250 . S
O69 Mg66 2.079 . S
O69 C79 1.264 . S
O70 Mg66 2.072 . S
O70 C80 1.260 . S
Mg71 O72 2.180 . S
Mg71 O73 2.030 . S
Mg71 O74 1.990 . S
Mg71 O75 2.117 . S
O72 Mg66 2.099 . S
O72 Mg71 2.180 . S
O72 C81 1.279 . S
O73 Mg71 2.030 . S
O73 C79 1.248 . S
O74 Mg71 1.990 . S
O74 C80 1.253 . S
O75 Mg71 2.117 . S
O75 C81 1.250 . S
C76 O82 1.248 . S
C76 O83 1.264 . S
C77 O63 1.253 . S
C77 O65 1.260 . S
C78 O67 1.279 . S
C78 O68 1.250 . S
C79 O69 1.264 . S
C79 O73 1.248 . S
C80 O70 1.260 . S
C80 O74 1.253 . S
C81 O72 1.279 . S
C81 O75 1.250 . S
O82 Mg64 2.030 1_554 S
O82 C76 1.248 . S
O83 Mg66 2.079 . S
O83 C76 1.264 . S
C84 C85 1.369 . S
C84 C86 1.419 . S
C84 H88 0.930 . S
C85 C84 1.369 . S
C85 C94 1.429 1_455 S
C86 C84 1.419 . S
C86 C87 1.363 . S
C86 H89 0.929 . S
C87 C86 1.363 . S
C87 C93 1.428 1_455 S
H88 C84 0.930 . S
H89 C86 0.929 . S
S90 N91 1.613 . S
S90 N92 1.610 . S
N91 S90 1.613 . S
N91 C94 1.350 . S
N92 S90 1.610 . S
N92 C93 1.351 . S
C93 C87 1.428 1_655 S
C93 N92 1.351 . S
C93 C94 1.434 . S
C94 C85 1.429 1_655 S
C94 N91 1.350 . S
C94 C93 1.434 . S
C95 C96 1.369 . S
C95 C97 1.419 . S
C95 H99 0.930 . S
C96 C95 1.369 . S
C96 C105 1.429 . S
C97 C95 1.419 . S
C97 C98 1.363 . S
C97 H100 0.929 . S
C98 C97 1.363 . S
C98 C104 1.428 . S
H99 C95 0.930 . S
H100 C97 0.929 . S
S101 N102 1.613 . S
S101 N103 1.610 . S
N102 S101 1.613 . S
N102 C105 1.350 . S
N103 S101 1.610 . S
N103 C104 1.351 . S
C104 C98 1.428 . S
C104 N103 1.351 . S
C104 C105 1.434 . S
C105 C96 1.429 . S
C105 N102 1.350 . S
C105 C104 1.434 . S
C106 C107 1.369 1_556 S
C106 C108 1.419 . S
C106 H110 0.930 . S
C107 C106 1.369 1_554 S
C107 C116 1.429 . S
C108 C106 1.419 . S
C108 C109 1.363 . S
C108 H111 0.929 . S
C109 C108 1.363 . S
C109 C115 1.428 1_556 S
H110 C106 0.930 . S
H111 C108 0.929 . S
S112 N113 1.613 . S
S112 N114 1.610 . S
N113 S112 1.613 . S
N113 C116 1.350 . S
N114 S112 1.610 . S
N114 C115 1.351 . S
C115 C109 1.428 1_554 S
C115 N114 1.351 . S
C115 C116 1.434 . S
C116 C107 1.429 . S
C116 N113 1.350 . S
C116 C115 1.434 . S
C117 C118 1.369 . S
C117 C119 1.419 . S
C117 H121 0.930 . S
C118 C117 1.369 . S
C118 C127 1.429 . S
C119 C117 1.419 . S
C119 C120 1.363 . S
C119 H122 0.929 . S
C120 C119 1.363 . S
C120 C126 1.428 . S
H121 C117 0.930 . S
H122 C119 0.929 . S
S123 N124 1.613 . S
S123 N125 1.610 . S
N124 S123 1.613 . S
N124 C127 1.350 . S
N125 S123 1.610 . S
N125 C126 1.351 . S
C126 C120 1.428 . S
C126 N125 1.351 . S
C126 C127 1.434 . S
C127 C118 1.429 . S
C127 N124 1.350 . S
C127 C126 1.434 . S
C128 C129 1.369 . S
C128 C130 1.419 . S
C128 H132 0.930 . S
C129 C128 1.369 . S
C129 C138 1.429 . S
C130 C128 1.419 . S
C130 C131 1.363 . S
C130 H133 0.929 . S
C131 C130 1.363 . S
C131 C137 1.428 . S
H132 C128 0.930 . S
H133 C130 0.929 . S
S134 N135 1.613 . S
S134 N136 1.610 . S
N135 S134 1.613 . S
N135 C138 1.350 . S
N136 S134 1.610 . S
N136 C137 1.351 . S
C137 C131 1.428 . S
C137 N136 1.351 . S
C137 C138 1.434 . S
C138 C129 1.429 . S
C138 N135 1.350 . S
C138 C137 1.434 . S
C139 C140 1.369 . S
C139 C141 1.419 . S
C139 H143 0.930 . S
C140 C139 1.369 . S
C140 C149 1.429 . S
C141 C139 1.419 . S
C141 C142 1.363 . S
C141 H144 0.929 . S
C142 C141 1.363 . S
C142 C148 1.428 . S
H143 C139 0.930 . S
H144 C141 0.929 . S
S145 N146 1.613 . S
S145 N147 1.610 . S
N146 S145 1.613 . S
N146 C149 1.350 . S
N147 S145 1.610 . S
N147 C148 1.351 . S
C148 C142 1.428 . S
C148 N147 1.351 . S
C148 C149 1.434 . S
C149 C140 1.429 . S
C149 N146 1.350 . S
C149 C148 1.434 . S
C150 C151 1.369 . S
C150 C152 1.419 1_565 S
C150 H154 0.930 1_565 S
C151 C150 1.369 . S
C151 C160 1.429 1_556 S
C152 C150 1.419 1_545 S
C152 C153 1.363 1_556 S
C152 H155 0.929 . S
C153 C152 1.363 1_554 S
C153 C159 1.415 1_545 S
H154 C150 0.930 1_545 S
H155 C152 0.929 . S
S156 N157 1.613 . S
S156 N158 1.610 . S
N157 S156 1.613 . S
N157 C160 1.350 . S
N158 S156 1.610 . S
N158 C159 1.353 . S
C159 C153 1.415 1_565 S
C159 N158 1.353 . S
C159 C160 1.447 . S
C160 C151 1.429 1_554 S
C160 N157 1.350 . S
C160 C159 1.447 . S
C161 C162 1.369 . S
C161 C163 1.419 1_565 S
C161 H165 0.930 . S
C162 C161 1.369 . S
C162 C171 1.429 1_455 S
C163 C161 1.419 1_545 S
C163 C164 1.363 . S
C163 H166 0.929 . S
C164 C163 1.363 . S
C164 C170 1.428 1_455 S
H165 C161 0.930 . S
H166 C163 0.929 . S
S167 N168 1.613 . S
S167 N169 1.610 1_565 S
N168 S167 1.613 . S
N168 C171 1.350 . S
N169 S167 1.610 1_545 S
N169 C170 1.351 . S
C170 C164 1.428 1_655 S
C170 N169 1.351 . S
C170 C171 1.434 1_545 S
C171 C162 1.429 1_655 S
C171 N168 1.350 . S
C171 C170 1.434 1_565 S
C172 C173 1.369 . S
C172 C174 1.419 . S
C172 H176 0.930 . S
C173 C172 1.369 . S
C173 C182 1.429 . S
C174 C172 1.419 . S
C174 C175 1.363 . S
C174 H177 0.929 . S
C175 C174 1.363 . S
C175 C181 1.428 . S
H176 C172 0.930 . S
H177 C174 0.929 . S
S178 N179 1.613 . S
S178 N180 1.610 . S
N179 S178 1.613 . S
N179 C182 1.350 . S
N180 S178 1.610 . S
N180 C181 1.351 . S
C181 C175 1.428 . S
C181 N180 1.351 . S
C181 C182 1.434 . S
C182 C173 1.429 . S
C182 N179 1.350 . S
C182 C181 1.434 . S
C183 C184 1.369 1_655 S
C183 C185 1.419 1_655 S
C183 H187 0.930 . S
C184 C183 1.369 1_455 S
C184 C193 1.429 . S
C185 C183 1.419 1_455 S
C185 C186 1.363 . S
C185 H188 0.929 1_455 S
C186 C185 1.363 . S
C186 C192 1.428 . S
H187 C183 0.930 . S
H188 C185 0.929 1_655 S
S189 N190 1.613 . S
S189 N191 1.610 . S
N190 S189 1.613 . S
N190 C193 1.350 . S
N191 S189 1.610 . S
N191 C192 1.351 . S
C192 C186 1.428 . S
C192 N191 1.351 . S
C192 C193 1.434 . S
C193 C184 1.429 . S
C193 N190 1.350 . S
C193 C192 1.434 . S
C194 C195 1.369 . S
C194 C196 1.419 . S
C194 H198 0.930 . S
C195 C194 1.369 . S
C195 C204 1.429 . S
C196 C194 1.419 . S
C196 C197 1.363 . S
C196 H199 0.929 . S
C197 C196 1.363 . S
C197 C203 1.428 . S
H198 C194 0.930 . S
H199 C196 0.929 . S
S200 N201 1.613 . S
S200 N202 1.610 . S
N201 S200 1.613 . S
N201 C204 1.350 . S
N202 S200 1.610 . S
N202 C203 1.351 . S
C203 C197 1.428 . S
C203 N202 1.351 . S
C203 C204 1.434 . S
C204 C195 1.429 . S
C204 N201 1.350 . S
C204 C203 1.434 . S
C205 C206 1.369 . S
C205 C207 1.419 . S
C205 H209 0.930 . S
C206 C205 1.369 . S
C206 C215 1.429 . S
C207 C205 1.419 . S
C207 C208 1.363 . S
C207 H210 0.929 . S
C208 C207 1.363 . S
C208 C214 1.428 . S
H209 C205 0.930 . S
H210 C207 0.929 . S
S211 N212 1.613 . S
S211 N213 1.610 . S
N212 S211 1.613 . S
N212 C215 1.350 . S
N213 S211 1.610 . S
N213 C214 1.351 . S
C214 C208 1.428 . S
C214 N213 1.351 . S
C214 C215 1.434 . S
C215 C206 1.429 . S
C215 N212 1.350 . S
C215 C214 1.434 . S
C85 C18 1.732 . S
C87 C36 1.279 . S
C96 C59 1.886 . S
C98 C38 1.891 . S
C107 C81 1.727 . S
C109 C57 1.271 . S
C118 C13 1.472 . S
C120 C76 1.471 . S
C129 C80 1.892 . S
C131 C17 1.890 . S
C140 C55 1.474 . S
C142 C34 1.477 . S
C151 C60 1.734 . S
C153 C78 1.284 . S
C162 C39 1.730 1_455 S
C164 C15 1.279 . S
C173 C16 1.072 1_556 S
C175 C14 1.048 . S
C184 C37 1.065 1_554 S
C186 C35 1.058 . S
C195 C56 1.062 . S
C197 C58 1.062 . S
C206 C79 1.068 . S
C208 C77 1.052 . S
