# Generated by pormake.
# Topology reo, (8)-cn, num edge types: 1
# Building blocks:
#     Node 0, Type 0, BuildingBlock: TAGTUT_clean_sbu_1, # of connection points: 8
#     Node 1, Type 0, BuildingBlock: TAGTUT_clean_sbu_1, # of connection points: 8
#     Node 2, Type 0, BuildingBlock: TAGTUT_clean_sbu_1, # of connection points: 8
#     Edge 3, Type (0, 0), None
#     Edge 4, Type (0, 0), None
#     Edge 5, Type (0, 0), None
#     Edge 6, Type (0, 0), None
#     Edge 7, Type (0, 0), None
#     Edge 8, Type (0, 0), None
#     Edge 9, Type (0, 0), None
#     Edge 10, Type (0, 0), None
#     Edge 11, Type (0, 0), None
#     Edge 12, Type (0, 0), None
#     Edge 13, Type (0, 0), None
#     Edge 14, Type (0, 0), None
# Relax obj value: 0.278
# Max RMSD: 0.256
# Mean RMSD: 0.183
data_MOF--net-reo--node1-TAGTUT_clean_sbu_1--edge1-none
_symmetry_space_group_name_H-M    P1
_symmetry_Int_Tables_number       1
_symmetry_cell_setting            triclinic
loop_
_symmetry_equiv_pos_as_xyz
'x, y, z'
_cell_length_a     10.645742
_cell_length_b     11.736391
_cell_length_c     15.602434
_cell_angle_alpha  84.937629
_cell_angle_beta   88.735672
_cell_angle_gamma 94.012851
loop_
_atom_site_label
_atom_site_type_symbol
_atom_site_fract_x
_atom_site_fract_y
_atom_site_fract_z
_atom_type_partial_charge
C0 C 0.02102 0.66163 0.59433 0.0
C1 C 0.90103 0.69942 0.3276 0.0
C2 C 0.21461 0.07376 0.29922 0.0
Mg3 Mg 0.83964 0.77268 0.49314 0.0
O4 O -0.00969 0.87231 0.49716 0.0
Mg5 Mg 0.1416 0.83313 0.43412 0.0
Mg6 Mg 0.98154 0.02551 0.44543 0.0
O7 O 0.9731 0.1787 0.39365 0.0
Mg8 Mg 0.12406 0.27813 0.39763 0.0
Mg9 Mg 0.82196 0.21811 0.45664 0.0
C10 C 0.74874 0.97709 0.59145 0.0
C11 C 0.72307 1.0223 0.33947 0.0
O12 O 0.12434 0.68962 0.55041 0.0
O13 O 0.92327 0.63122 0.55449 0.0
O14 O 0.00924 0.73448 0.35247 0.0
O15 O 0.80045 0.72014 0.36693 0.0
O16 O 0.73292 0.87377 0.57065 0.0
O17 O 0.83186 0.05161 0.5532 0.0
C18 C 0.24005 0.02889 0.55138 0.0
O19 O 0.14011 0.08093 0.53722 0.0
O20 O 0.26064 0.93869 0.51532 0.0
O21 O 0.83945 0.36166 0.34043 0.0
O22 O 0.04056 0.41981 0.33651 0.0
O23 O 0.95442 0.31665 0.5383 0.0
C24 C 0.94287 0.38949 0.29658 0.0
O25 O 0.16323 0.33072 0.52389 0.0
O26 O 0.23079 0.17715 0.31985 0.0
C27 C 0.06266 0.3516 0.56319 0.0
O28 O 0.13127 0.99971 0.33776 0.0
O29 O 0.82287 0.97005 0.35367 0.0
O30 O 0.70277 0.11265 0.37542 0.0
C31 C 0.65168 1.00968 0.26159 0.0
C32 C 0.28839 0.05191 0.22194 0.0
C33 C 0.33647 0.77138 -0.05059 0.0
Mg34 Mg 0.521 0.14962 0.11754 0.0
O35 O 0.54768 1.02097 0.06366 0.0
Mg36 Mg 0.46747 0.87455 0.12382 0.0
Mg37 Mg 0.48193 0.02545 -0.05462 0.0
O38 O 0.41611 0.02979 0.82718 0.0
Mg39 Mg 0.44169 0.90103 0.77316 0.0
Mg40 Mg 0.49609 0.1761 0.76695 0.0
C41 C 0.62697 0.27945 0.94137 0.0
C42 C 0.29411 0.24613 0.91221 0.0
O43 O 0.60229 0.91276 0.24036 0.0
O44 O 0.63387 0.10571 0.22035 0.0
O45 O 0.3145 0.95078 0.20757 0.0
O46 O 0.34174 0.14049 0.17912 0.0
O47 O 0.59611 0.27948 0.02119 0.0
O48 O 0.60914 0.18982 0.8987 0.0
C49 C 0.66959 0.80453 -0.02139 0.0
O50 O 0.64207 0.88295 0.91919 0.0
O51 O 0.61524 0.79887 0.05255 0.0
O52 O 0.36121 0.13802 0.65046 0.0
O53 O 0.32823 0.94519 0.67077 0.0
O54 O 0.64897 0.09978 0.68333 0.0
C55 C 0.31106 0.0413 0.62942 0.0
O56 O 0.62039 0.90997 0.71086 0.0
O57 O 0.3669 0.77111 0.86955 0.0
C58 C 0.67439 0.99862 0.66852 0.0
O59 O 0.35483 0.86118 -0.00816 0.0
O60 O 0.32178 0.16779 -0.02836 0.0
O61 O 0.34836 0.25178 0.83824 0.0
C62 C 0.05935 0.41669 0.63836 0.0
C63 C -0.0033 0.71966 0.67328 0.0
C64 C 0.24658 0.67803 -0.01783 0.0
Mg65 Mg 0.86189 0.51733 0.75384 0.0
O66 O -0.0001 0.50009 0.82418 0.0
Mg67 Mg 0.17293 0.57735 0.79217 0.0
Mg68 Mg -0.01816 0.52524 -0.0545 0.0
O69 O 0.96388 0.5505 0.06678 0.0
Mg70 Mg 0.10194 0.53362 0.13715 0.0
Mg71 Mg 0.79089 0.47335 0.09883 0.0
C72 C 0.71693 0.37296 0.90892 0.0
C73 C 0.74607 0.70103 -0.02873 0.0
O74 O 0.1562 0.4731 0.66677 0.0
O75 O 0.94712 0.42457 0.66605 0.0
O76 O 0.0886 0.73437 0.72285 0.0
O77 O 0.88794 0.69685 0.70958 0.0
O78 O 0.71758 0.40905 0.82904 0.0
O79 O 0.80289 0.40564 -0.03988 0.0
C80 C 0.21764 0.34958 0.91961 0.0
O81 O 0.11808 0.35877 -0.03266 0.0
O82 O 0.2484 0.42658 0.85881 0.0
O83 O 0.80755 0.57781 0.22409 0.0
O84 O 0.01661 0.62639 0.22483 0.0
O85 O 0.87537 0.31644 0.1682 0.0
C86 C 0.90437 0.63429 0.25247 0.0
O87 O 0.07602 0.3541 0.18145 0.0
O88 O 0.24606 0.64229 0.0621 0.0
C89 C 0.96725 0.33128 0.21775 0.0
O90 O 0.16087 0.64452 0.93107 0.0
O91 O 0.84567 0.6918 0.9236 0.0
O92 O 0.71528 0.62405 0.03208 0.0
loop_
_geom_bond_atom_site_label_1
_geom_bond_atom_site_label_2
_geom_bond_distance
_geom_bond_site_symmetry_2
_ccdc_geom_bond_type
C0 O12 1.241 . S
C0 O13 1.280 1_455 S
C1 O14 1.277 1_655 S
C1 O15 1.245 . S
C2 O26 1.247 . S
C2 O28 1.289 1_545 S
Mg3 O4 1.926 . S
Mg3 O13 1.984 . S
Mg3 O15 1.988 . S
Mg3 O16 2.061 . S
O4 Mg3 1.926 . S
O4 Mg5 1.986 1_655 S
O4 Mg6 1.917 1_665 S
Mg5 O4 1.986 1_455 S
Mg5 O12 2.042 . S
Mg5 O14 2.041 . S
Mg5 O20 2.038 . S
Mg5 O28 2.238 . S
Mg6 O4 1.917 1_445 S
Mg6 O7 1.917 . S
Mg6 O17 2.106 1_455 S
Mg6 O19 2.079 . S
Mg6 O28 2.106 1_545 S
Mg6 O29 2.079 1_445 S
O7 Mg6 1.917 . S
O7 Mg8 1.926 . S
O7 Mg9 1.986 1_455 S
Mg8 O7 1.926 . S
Mg8 O22 1.984 . S
Mg8 O25 1.988 . S
Mg8 O26 2.061 . S
Mg9 O7 1.986 1_655 S
Mg9 O17 2.238 . S
Mg9 O21 2.042 . S
Mg9 O23 2.041 . S
Mg9 O30 2.038 . S
C10 O16 1.247 . S
C10 O17 1.289 1_565 S
C11 O29 1.245 1_545 S
C11 O30 1.274 . S
O12 C0 1.241 . S
O12 Mg5 2.042 . S
O13 C0 1.280 1_655 S
O13 Mg3 1.984 . S
O14 C1 1.277 1_455 S
O14 Mg5 2.041 . S
O15 C1 1.245 . S
O15 Mg3 1.988 . S
O16 Mg3 2.061 . S
O16 C10 1.247 . S
O17 Mg6 2.106 1_655 S
O17 Mg9 2.238 . S
O17 C10 1.289 1_545 S
C18 O19 1.245 1_565 S
C18 O20 1.274 . S
O19 Mg6 2.079 . S
O19 C18 1.245 1_545 S
O20 Mg5 2.038 . S
O20 C18 1.274 . S
O21 Mg9 2.042 . S
O21 C24 1.241 . S
O22 Mg8 1.984 . S
O22 C24 1.280 1_455 S
O23 Mg9 2.041 . S
O23 C27 1.277 1_655 S
C24 O21 1.241 . S
C24 O22 1.280 1_655 S
O25 Mg8 1.988 . S
O25 C27 1.245 . S
O26 C2 1.247 . S
O26 Mg8 2.061 . S
C27 O23 1.277 1_455 S
C27 O25 1.245 . S
O28 C2 1.289 1_565 S
O28 Mg5 2.238 . S
O28 Mg6 2.106 1_565 S
O29 Mg6 2.079 1_665 S
O29 C11 1.245 1_565 S
O30 Mg9 2.038 . S
O30 C11 1.274 . S
C31 O43 1.241 . S
C31 O44 1.280 1_565 S
C32 O45 1.277 1_545 S
C32 O46 1.245 . S
C33 O57 1.247 . S
C33 O59 1.289 1_556 S
Mg34 O35 1.926 . S
Mg34 O44 1.984 . S
Mg34 O46 1.988 . S
Mg34 O47 2.061 . S
O35 Mg34 1.926 . S
O35 Mg36 1.986 1_545 S
O35 Mg37 1.917 . S
Mg36 O35 1.986 1_565 S
Mg36 O43 2.042 . S
Mg36 O45 2.041 . S
Mg36 O51 2.038 . S
Mg36 O59 2.238 . S
Mg37 O35 1.917 . S
Mg37 O38 1.917 1_544 S
Mg37 O48 2.106 1_554 S
Mg37 O50 2.079 1_544 S
Mg37 O59 2.106 1_545 S
Mg37 O60 2.079 . S
O38 Mg37 1.917 1_566 S
O38 Mg39 1.926 . S
O38 Mg40 1.986 1_565 S
Mg39 O38 1.926 . S
Mg39 O53 1.984 . S
Mg39 O56 1.988 . S
Mg39 O57 2.061 . S
Mg40 O38 1.986 1_545 S
Mg40 O48 2.238 . S
Mg40 O52 2.042 . S
Mg40 O54 2.041 . S
Mg40 O61 2.038 . S
C41 O47 1.247 . S
C41 O48 1.289 1_554 S
C42 O60 1.245 1_556 S
C42 O61 1.274 . S
O43 C31 1.241 . S
O43 Mg36 2.042 . S
O44 C31 1.280 1_545 S
O44 Mg34 1.984 . S
O45 C32 1.277 1_565 S
O45 Mg36 2.041 . S
O46 C32 1.245 . S
O46 Mg34 1.988 . S
O47 Mg34 2.061 . S
O47 C41 1.247 . S
O48 Mg37 2.106 1_556 S
O48 Mg40 2.238 . S
O48 C41 1.289 1_556 S
C49 O50 1.245 1_554 S
C49 O51 1.274 . S
O50 Mg37 2.079 1_566 S
O50 C49 1.245 1_556 S
O51 Mg36 2.038 . S
O51 C49 1.274 . S
O52 Mg40 2.042 . S
O52 C55 1.241 . S
O53 Mg39 1.984 . S
O53 C55 1.280 1_565 S
O54 Mg40 2.041 . S
O54 C58 1.277 1_545 S
C55 O52 1.241 . S
C55 O53 1.280 1_545 S
O56 Mg39 1.988 . S
O56 C58 1.245 . S
O57 C33 1.247 . S
O57 Mg39 2.061 . S
C58 O54 1.277 1_565 S
C58 O56 1.245 . S
O59 C33 1.289 1_554 S
O59 Mg36 2.238 . S
O59 Mg37 2.106 1_565 S
O60 Mg37 2.079 . S
O60 C42 1.245 1_554 S
O61 Mg40 2.038 . S
O61 C42 1.274 . S
C62 O74 1.241 . S
C62 O75 1.280 1_455 S
C63 O76 1.277 1_655 S
C63 O77 1.245 . S
C64 O88 1.247 . S
C64 O90 1.289 1_554 S
Mg65 O66 1.926 . S
Mg65 O75 1.984 . S
Mg65 O77 1.988 . S
Mg65 O78 2.061 . S
O66 Mg65 1.926 . S
O66 Mg67 1.986 1_655 S
O66 Mg68 1.917 1_656 S
Mg67 O66 1.986 1_455 S
Mg67 O74 2.042 . S
Mg67 O76 2.041 . S
Mg67 O82 2.038 . S
Mg67 O90 2.238 . S
Mg68 O66 1.917 1_454 S
Mg68 O69 1.917 . S
Mg68 O79 2.106 1_455 S
Mg68 O81 2.079 . S
Mg68 O90 2.106 1_554 S
Mg68 O91 2.079 1_454 S
O69 Mg68 1.917 . S
O69 Mg70 1.926 . S
O69 Mg71 1.986 1_455 S
Mg70 O69 1.926 . S
Mg70 O84 1.984 . S
Mg70 O87 1.988 . S
Mg70 O88 2.061 . S
Mg71 O69 1.986 1_655 S
Mg71 O79 2.238 . S
Mg71 O83 2.042 . S
Mg71 O85 2.041 . S
Mg71 O92 2.038 . S
C72 O78 1.247 . S
C72 O79 1.289 1_556 S
C73 O91 1.245 1_554 S
C73 O92 1.274 . S
O74 C62 1.241 . S
O74 Mg67 2.042 . S
O75 C62 1.280 1_655 S
O75 Mg65 1.984 . S
O76 C63 1.277 1_455 S
O76 Mg67 2.041 . S
O77 C63 1.245 . S
O77 Mg65 1.988 . S
O78 Mg65 2.061 . S
O78 C72 1.247 . S
O79 Mg68 2.106 1_655 S
O79 Mg71 2.238 . S
O79 C72 1.289 1_554 S
C80 O81 1.245 1_556 S
C80 O82 1.274 . S
O81 Mg68 2.079 . S
O81 C80 1.245 1_554 S
O82 Mg67 2.038 . S
O82 C80 1.274 . S
O83 Mg71 2.042 . S
O83 C86 1.241 . S
O84 Mg70 1.984 . S
O84 C86 1.280 1_455 S
O85 Mg71 2.041 . S
O85 C89 1.277 1_655 S
C86 O83 1.241 . S
C86 O84 1.280 1_655 S
O87 Mg70 1.988 . S
O87 C89 1.245 . S
O88 C64 1.247 . S
O88 Mg70 2.061 . S
C89 O85 1.277 1_455 S
C89 O87 1.245 . S
O90 C64 1.289 1_556 S
O90 Mg67 2.238 . S
O90 Mg68 2.106 1_556 S
O91 Mg68 2.079 1_656 S
O91 C73 1.245 1_556 S
O92 Mg71 2.038 . S
O92 C73 1.274 . S
C89 C24 1.061 1_455 S
C11 C31 1.397 1_545 S
C1 C86 0.700 . S
C32 C2 1.235 . S
C0 C63 1.062 1_455 S
C55 C18 1.396 1_545 S
C62 C27 0.702 . S
C58 C10 1.238 . S
C80 C42 2.440 . S
C64 C33 1.761 1_554 S
C41 C72 1.760 1_554 S
C73 C49 2.443 . S
