# Generated by pormake.
# Topology cds, (4)-cn, num edge types: 1
# Building blocks:
#     Node 0, Type 0, BuildingBlock: MUDLON_clean_sbu_0, # of connection points: 4
#     Node 1, Type 0, BuildingBlock: MUDLON_clean_sbu_0, # of connection points: 4
#     Edge 2, Type (0, 0), BuildingBlock: CIFDUS_clean_linker_0, # of connection points: 2
#     Edge 3, Type (0, 0), BuildingBlock: CIFDUS_clean_linker_0, # of connection points: 2
#     Edge 4, Type (0, 0), BuildingBlock: CIFDUS_clean_linker_0, # of connection points: 2
#     Edge 5, Type (0, 0), BuildingBlock: CIFDUS_clean_linker_0, # of connection points: 2
# Relax obj value: 0.001
# Max RMSD: 0.016
# Mean RMSD: 0.016
data_MOF--net-cds--node1-MUDLON_clean_sbu_0--edge1-CIFDUS_clean_linker_0
_symmetry_space_group_name_H-M    P1
_symmetry_Int_Tables_number       1
_symmetry_cell_setting            triclinic
loop_
_symmetry_equiv_pos_as_xyz
'x, y, z'
_cell_length_a     13.419166
_cell_length_b     13.345901
_cell_length_c     26.2419
_cell_angle_alpha  91.583377
_cell_angle_beta   91.055425
_cell_angle_gamma 88.480861
loop_
_atom_site_label
_atom_site_type_symbol
_atom_site_fract_x
_atom_site_fract_y
_atom_site_fract_z
_atom_type_partial_charge
Mg0 Mg 0.1109 0.10691 0.03501 0.0
C1 C 0.32231 0.14483 1.02033 0.0
O2 O 0.30681 0.05841 0.9968 0.0
C3 C 0.90248 0.132 1.01255 0.0
O4 O 0.92848 0.03877 1.00085 0.0
C5 C 0.12868 0.08273 0.92311 0.0
O6 O 0.14351 0.17852 0.93234 0.0
O7 O 0.11478 0.0267 0.96073 0.0
O8 O 0.24957 0.18999 0.04236 0.0
O9 O 0.10039 1.01379 0.1017 0.0
C10 C 0.13143 0.05108 0.14411 0.0
O11 O 0.17383 0.13872 0.14445 0.0
O12 O 0.96837 0.19013 0.03114 0.0
Mg13 Mg 0.92921 0.93456 0.53726 0.0
C14 C 0.8329 0.13817 0.51543 0.0
O15 O 0.86984 0.11818 0.47016 0.0
C16 C 0.84387 0.7282 0.55667 0.0
O17 O 0.87499 0.74808 0.60353 0.0
C18 C 0.99717 0.91451 0.42839 0.0
O19 O 0.92336 0.85174 0.42732 0.0
O20 O 0.02056 0.95815 0.47058 0.0
O21 O 0.83736 0.07042 0.54865 0.0
O22 O 1.01395 0.92884 0.60892 0.0
C23 C 0.05948 1.00785 0.62248 0.0
O24 O 0.062 0.08137 0.59026 0.0
O25 O 0.85107 0.7948 0.52325 0.0
H26 H 0.19118 0.11156 0.23947 0.0
H27 H 0.02251 0.88389 0.1591 0.0
H28 H 0.97212 0.81729 0.24026 0.0
H29 H 0.96571 0.83158 0.33372 0.0
H30 H 0.13241 0.06089 0.41399 0.0
H31 H 0.19434 0.11833 0.33312 0.0
C32 C 0.14412 0.04676 0.23959 0.0
C33 C 0.11003 1.00342 0.19309 0.0
C34 C 0.11463 1.00941 0.28642 0.0
C35 C 0.04969 0.91901 0.19419 0.0
C36 C 0.02055 0.88103 0.24064 0.0
C37 C 0.01633 0.89358 0.33366 0.0
C38 C 0.04363 0.94231 0.37999 0.0
C39 C 0.05097 0.92686 0.28696 0.0
C40 C 0.10989 0.02206 0.37903 0.0
C41 C 0.14514 0.0552 0.33273 0.0
H42 H 0.1916 0.1739 0.83926 0.0
H43 H 0.05123 0.90557 0.88655 0.0
H44 H 0.0251 0.85328 0.7971 0.0
H45 H 0.02965 0.89178 0.70534 0.0
H46 H 0.16909 0.1625 0.65994 0.0
H47 H 0.20872 0.2051 0.74866 0.0
C48 C 0.15593 0.10349 0.83011 0.0
C49 C 0.12247 0.04428 0.86957 0.0
C50 C 0.14066 0.07444 0.7788 0.0
C51 C 0.0776 0.95267 0.85694 0.0
C52 C 0.06231 0.92296 0.80576 0.0
C53 C 0.07008 0.95926 0.7148 0.0
C54 C 0.09549 0.02424 0.67586 0.0
C55 C 0.09177 0.98429 0.76632 0.0
C56 C 0.14788 0.11139 0.68896 0.0
C57 C 0.17047 0.13607 0.7398 0.0
H58 H 0.76974 0.22617 0.07735 0.0
H59 H 0.80257 0.10499 0.9244 0.0
H60 H 0.62257 0.11401 0.91063 0.0
H61 H 0.45676 0.12837 0.94653 0.0
H62 H 0.41793 0.24208 0.10024 0.0
H63 H 0.59856 0.26572 0.1093 0.0
C64 C 0.73719 0.20525 0.04058 0.0
C65 C 0.79874 0.16488 1.00186 0.0
C66 C 0.63258 0.20757 0.03346 0.0
C67 C 0.75621 0.13624 0.95461 0.0
C68 C 0.65336 0.14078 0.94683 0.0
C69 C 0.48771 0.16046 0.98164 0.0
C70 C 0.42491 0.18226 1.02286 0.0
C71 C 0.59087 0.17192 0.98668 0.0
C72 C 0.4652 0.22486 0.06797 0.0
C73 C 0.56849 0.23753 0.07324 0.0
H74 H 0.81401 0.56976 0.61766 0.0
H75 H 0.81615 0.65227 0.45976 0.0
H76 H 0.80117 0.47686 0.43295 0.0
H77 H 0.80748 0.29862 0.4542 0.0
H78 H 0.80576 0.21567 0.612 0.0
H79 H 0.7989 0.39225 0.63873 0.0
C80 C 0.80968 0.54962 0.57738 0.0
C81 C 0.81772 0.62426 0.54088 0.0
C82 C 0.80171 0.44818 0.56209 0.0
C83 C 0.81078 0.59665 0.48881 0.0
C84 C 0.80257 0.49609 0.47336 0.0
C85 C 0.80381 0.31905 0.49442 0.0
C86 C 0.80841 0.24371 0.53097 0.0
C87 C 0.80099 0.42096 0.50964 0.0
C88 C 0.80259 0.27179 0.58294 0.0
C89 C 0.7993 0.37299 0.59834 0.0
loop_
_geom_bond_atom_site_label_1
_geom_bond_atom_site_label_2
_geom_bond_distance
_geom_bond_site_symmetry_2
_ccdc_geom_bond_type
Mg0 O7 2.145 . S
Mg0 O8 2.040 1_655 S
Mg0 O9 2.045 1_556 S
Mg0 O12 2.149 . S
C1 O2 1.313 1_545 S
C1 O8 1.195 1_554 S
O2 C1 1.313 1_565 S
C3 O4 1.245 1_545 S
C3 O12 1.289 1_554 S
O4 C3 1.245 1_565 S
C5 O6 1.245 1_545 S
C5 O7 1.289 1_455 S
O6 C5 1.245 1_565 S
O7 Mg0 2.145 . S
O7 C5 1.289 1_655 S
O8 Mg0 2.040 1_455 S
O8 C1 1.195 1_556 S
O9 Mg0 2.045 1_554 S
O9 C10 1.195 1_655 S
C10 O9 1.195 1_455 S
C10 O11 1.313 1_545 S
O11 C10 1.313 1_565 S
O12 Mg0 2.149 . S
O12 C3 1.289 1_556 S
Mg13 O20 2.142 . S
Mg13 O21 2.040 1_565 S
Mg13 O22 2.048 . S
Mg13 O25 2.150 . S
C14 O15 1.313 . S
C14 O21 1.195 1_455 S
O15 C14 1.313 . S
C16 O17 1.245 . S
C16 O25 1.289 1_455 S
O17 C16 1.245 . S
C18 O19 1.245 . S
C18 O20 1.289 1_445 S
O19 C18 1.245 . S
O20 Mg13 2.142 . S
O20 C18 1.289 1_665 S
O21 Mg13 2.040 1_545 S
O21 C14 1.195 1_655 S
O22 Mg13 2.048 . S
O22 C23 1.195 1_665 S
C23 O22 1.195 1_445 S
C23 O24 1.313 . S
O24 C23 1.313 . S
O25 Mg13 2.150 . S
O25 C16 1.289 1_655 S
H26 C32 0.930 . S
H27 C35 0.930 . S
H28 C36 0.930 . S
H29 C37 0.930 . S
H30 C40 0.930 . S
H31 C41 0.930 . S
C32 H26 0.930 . S
C32 C33 1.355 1_465 S
C32 C34 1.415 . S
C33 C32 1.355 1_645 S
C33 C35 1.419 . S
C34 C32 1.415 . S
C34 C39 1.425 1_465 S
C34 C41 1.409 . S
C35 H27 0.930 . S
C35 C33 1.419 . S
C35 C36 1.362 . S
C36 H28 0.930 . S
C36 C35 1.362 . S
C36 C39 1.409 . S
C37 H29 0.930 . S
C37 C38 1.355 1_655 S
C37 C39 1.415 . S
C38 C37 1.355 1_455 S
C38 C40 1.419 1_545 S
C39 C34 1.425 1_645 S
C39 C36 1.409 . S
C39 C37 1.415 . S
C40 H30 0.930 . S
C40 C38 1.419 1_565 S
C40 C41 1.362 . S
C41 H31 0.930 . S
C41 C34 1.409 . S
C41 C40 1.362 . S
H42 C48 0.930 . S
H43 C51 0.930 . S
H44 C52 0.930 . S
H45 C53 0.930 . S
H46 C56 0.930 . S
H47 C57 0.930 . S
C48 H42 0.930 . S
C48 C49 1.355 1_455 S
C48 C50 1.415 . S
C49 C48 1.355 1_655 S
C49 C51 1.419 . S
C50 C48 1.415 . S
C50 C55 1.425 1_455 S
C50 C57 1.409 . S
C51 H43 0.930 . S
C51 C49 1.419 . S
C51 C52 1.362 . S
C52 H44 0.930 . S
C52 C51 1.362 . S
C52 C55 1.409 . S
C53 H45 0.930 . S
C53 C54 1.355 1_655 S
C53 C55 1.415 . S
C54 C53 1.355 1_455 S
C54 C56 1.419 . S
C55 C50 1.425 1_655 S
C55 C52 1.409 . S
C55 C53 1.415 . S
C56 H46 0.930 . S
C56 C54 1.419 . S
C56 C57 1.362 . S
C57 H47 0.930 . S
C57 C50 1.409 . S
C57 C56 1.362 . S
H58 C64 0.930 . S
H59 C67 0.930 . S
H60 C68 0.930 . S
H61 C69 0.930 . S
H62 C72 0.930 . S
H63 C73 0.930 . S
C64 H58 0.930 . S
C64 C65 1.355 . S
C64 C66 1.415 . S
C65 C64 1.355 . S
C65 C67 1.419 1_544 S
C66 C64 1.415 . S
C66 C71 1.425 1_544 S
C66 C73 1.409 . S
C67 H59 0.930 . S
C67 C65 1.419 1_566 S
C67 C68 1.362 . S
C68 H60 0.930 . S
C68 C67 1.362 . S
C68 C71 1.409 . S
C69 H61 0.930 . S
C69 C70 1.355 1_566 S
C69 C71 1.415 . S
C70 C69 1.355 1_544 S
C70 C72 1.419 . S
C71 C66 1.425 1_566 S
C71 C68 1.409 . S
C71 C69 1.415 . S
C72 H62 0.930 . S
C72 C70 1.419 . S
C72 C73 1.362 . S
C73 H63 0.930 . S
C73 C66 1.409 . S
C73 C72 1.362 . S
H74 C80 0.930 . S
H75 C83 0.930 . S
H76 C84 0.930 . S
H77 C85 0.930 . S
H78 C88 0.930 . S
H79 C89 0.930 . S
C80 H74 0.930 . S
C80 C81 1.355 . S
C80 C82 1.415 . S
C81 C80 1.355 . S
C81 C83 1.419 1_455 S
C82 C80 1.415 . S
C82 C87 1.425 1_455 S
C82 C89 1.409 . S
C83 H75 0.930 . S
C83 C81 1.419 1_655 S
C83 C84 1.362 . S
C84 H76 0.930 . S
C84 C83 1.362 . S
C84 C87 1.409 . S
C85 H77 0.930 . S
C85 C86 1.355 1_655 S
C85 C87 1.415 . S
C86 C85 1.355 1_455 S
C86 C88 1.419 . S
C87 C82 1.425 1_655 S
C87 C84 1.409 . S
C87 C85 1.415 . S
C88 H78 0.930 . S
C88 C86 1.419 . S
C88 C89 1.362 . S
C89 H79 0.930 . S
C89 C82 1.409 . S
C89 C88 1.362 . S
C33 C10 1.494 1_655 S
C38 C18 1.470 . S
C49 C5 1.487 1_655 S
C54 C23 1.485 . S
C65 C3 1.468 . S
C70 C1 1.500 . S
C81 C16 1.487 . S
C86 C14 1.478 . S
