# Generated by pormake.
# Topology hex, (8)-cn, num edge types: 1
# Building blocks:
#     Node 0, Type 0, BuildingBlock: LIZSOE_clean_sbu_0, # of connection points: 8
#     Edge 1, Type (0, 0), BuildingBlock: XUDNAN_clean_linker_2, # of connection points: 2
#     Edge 2, Type (0, 0), BuildingBlock: XUDNAN_clean_linker_2, # of connection points: 2
#     Edge 3, Type (0, 0), BuildingBlock: XUDNAN_clean_linker_2, # of connection points: 2
#     Edge 4, Type (0, 0), BuildingBlock: XUDNAN_clean_linker_2, # of connection points: 2
# Relax obj value: 0.134
# Max RMSD: 0.234
# Mean RMSD: 0.234
data_MOF--net-hex--node1-LIZSOE_clean_sbu_0--edge1-XUDNAN_clean_linker_2
_symmetry_space_group_name_H-M    P1
_symmetry_Int_Tables_number       1
_symmetry_cell_setting            triclinic
loop_
_symmetry_equiv_pos_as_xyz
'x, y, z'
_cell_length_a     14.964348
_cell_length_b     22.163136
_cell_length_c     15.478743
_cell_angle_alpha  105.99103
_cell_angle_beta   78.743909
_cell_angle_gamma 135.8468
loop_
_atom_site_label
_atom_site_type_symbol
_atom_site_fract_x
_atom_site_fract_y
_atom_site_fract_z
_atom_type_partial_charge
Co0 Co 0.08364 0.86789 0.98959 0.0
N1 N 1.05194 0.79225 0.04634 0.0
C2 C 0.95224 0.70418 0.02336 0.0
N3 N 1.05524 0.72763 0.13187 0.0
C4 C 0.11509 0.80493 0.11187 0.0
C5 C 0.95441 0.66444 0.07542 0.0
Co6 Co 0.97752 0.09679 0.95971 0.0
N7 N 1.0245 0.19848 0.94618 0.0
N8 N 0.06701 0.32172 0.9764 0.0
C9 C 1.03292 0.28469 0.88956 0.0
C10 C 1.00727 0.20898 0.87101 0.0
C11 C 1.06314 0.26965 0.00916 0.0
Co12 Co 1.03726 0.98297 0.95789 0.0
C13 C 0.90328 0.05339 0.02252 0.0
H14 H 0.97076 0.16193 0.80798 0.0
O15 O 0.13286 0.94753 0.93321 0.0
O16 O 0.21134 0.11053 0.98239 0.0
O17 O 1.02354 0.98014 0.09057 0.0
O18 O 0.87137 0.85204 0.92757 0.0
O19 O 0.91576 0.8147 0.01682 0.0
O20 O 0.14933 0.169 0.96263 0.0
O21 O 0.92086 1.00193 0.97797 0.0
O22 O 0.9851 0.06026 0.83237 0.0
O23 O 0.13381 0.94915 0.09999 0.0
O24 O 0.23891 0.9186 0.96163 0.0
O25 O 1.04606 0.98978 0.8286 0.0
O26 O 0.98315 0.1222 0.08276 0.0
C27 C 0.07986 0.97525 0.13704 0.0
C28 C 0.0941 0.28868 0.10571 0.0
H29 H 0.15707 0.27989 0.10995 0.0
H30 H 0.14362 0.35698 0.13995 0.0
H31 H 1.00405 0.24459 0.14338 0.0
C32 C 0.2373 0.17708 0.97442 0.0
C33 C 0.83746 0.79465 0.96723 0.0
H34 H 0.88565 0.67104 0.96938 0.0
H35 H 0.30235 0.9376 0.10801 0.0
H36 H 0.28858 0.88681 0.18942 0.0
H37 H 0.21347 0.92537 0.20961 0.0
C38 C 0.23718 0.89342 0.15652 0.0
C39 C 0.24181 0.96987 0.93363 0.0
C40 C 1.01727 0.01913 0.78985 0.0
H41 H 0.8932 0.59411 0.06731 0.0
H42 H 1.019 0.30733 0.84484 0.0
H43 H 0.24504 0.49303 0.96436 0.0
H44 H 0.90535 0.29973 0.10722 0.0
H45 H 0.93041 0.41701 0.2128 0.0
H46 H 0.41631 0.68922 0.16934 0.0
H47 H 0.47497 0.76457 0.09948 0.0
H48 H 0.45713 0.67216 0.05383 0.0
H49 H 0.31124 0.6178 0.92589 0.0
H50 H 0.33449 0.71181 0.96917 0.0
H51 H 0.17384 0.60226 0.95448 0.0
H52 H 0.96033 0.5406 0.2799 0.0
H53 H 0.94643 0.64173 0.26777 0.0
H54 H 0.267 0.76319 0.08605 0.0
C55 C 0.17766 0.47682 0.01883 0.0
C56 C 0.07469 0.389 0.02958 0.0
C57 C 0.98566 0.36777 0.09969 0.0
C58 C 1.00109 0.43404 0.16084 0.0
C59 C 0.10557 0.52117 0.15038 0.0
C60 C 0.19101 0.54256 0.07983 0.0
C61 C 0.27645 0.63694 0.07119 0.0
C62 C 0.41437 0.6941 0.10023 0.0
C63 C 0.27346 0.64238 0.97458 0.0
C64 C 0.21278 0.66057 0.13891 0.0
C65 C 0.12177 0.59554 0.18924 0.0
C66 C 1.03321 0.59315 0.24309 0.0
C67 C 1.02616 0.65113 0.23662 0.0
C68 C 0.10631 0.70934 0.17638 0.0
C69 C 0.20854 0.72053 0.13457 0.0
H70 H 0.74806 0.98188 0.87384 0.0
H71 H 0.78508 0.0799 0.162 0.0
H72 H 0.66093 0.11178 0.15218 0.0
H73 H 0.76213 0.13032 0.80545 0.0
H74 H 0.63726 0.04765 0.72214 0.0
H75 H 0.73201 0.03382 0.751 0.0
H76 H 0.52298 0.881 0.78971 0.0
H77 H 0.43077 0.89575 0.75851 0.0
H78 H 0.41124 0.87442 0.86834 0.0
H79 H 0.55502 0.15138 0.10988 0.0
H80 H 0.38813 0.12806 0.05246 0.0
H81 H 0.40428 0.99814 0.79414 0.0
C82 C 0.72638 1.00706 0.93533 0.0
C83 C 0.77997 0.02992 0.01866 0.0
C84 C 0.74727 0.06244 0.09707 0.0
C85 C 0.67879 0.08274 0.09207 0.0
C86 C 0.63866 0.06777 0.00827 0.0
C87 C 0.65497 0.02629 0.93189 0.0
C88 C 0.58911 1.00911 0.85193 0.0
C89 C 0.68604 0.05814 0.77829 0.0
C90 C 0.48214 0.90916 0.81496 0.0
C91 C 0.53441 0.04783 0.89551 0.0
C92 C 0.56794 0.08383 0.98523 0.0
C93 C 0.52549 0.12092 0.0402 0.0
C94 C 0.43329 0.11017 0.00568 0.0
C95 C 0.37397 0.05357 0.92162 0.0
C96 C 0.44313 0.03798 0.86064 0.0
H97 H 0.36434 0.3286 0.10165 0.0
H98 H 0.38708 0.22426 0.8268 0.0
H99 H 0.52873 0.37166 0.78962 0.0
H100 H 0.34027 0.45852 0.05733 0.0
H101 H 0.44091 0.5538 0.14554 0.0
H102 H 0.3614 0.44717 0.16121 0.0
H103 H 0.56677 0.49804 0.19337 0.0
H104 H 0.65775 0.6087 0.18219 0.0
H105 H 0.69746 0.54988 0.11562 0.0
H106 H 0.6405 0.52682 0.77754 0.0
H107 H 0.76285 0.68546 0.80196 0.0
H108 H 0.66699 0.68763 0.0845 0.0
C109 C 0.40545 0.33809 0.03503 0.0
C110 C 0.3675 0.26503 0.96778 0.0
C111 C 0.41895 0.27964 0.88032 0.0
C112 C 0.49683 0.36287 0.85806 0.0
C113 C 0.52404 0.43162 0.92431 0.0
C114 C 0.48377 0.42094 0.01199 0.0
C115 C 0.52503 0.50505 0.07053 0.0
C116 C 0.40971 0.49004 0.11098 0.0
C117 C 0.61739 0.54287 0.14482 0.0
C118 C 0.59168 0.56367 0.00188 0.0
C119 C 0.58885 0.52009 0.91757 0.0
C120 C 0.64352 0.56143 0.84355 0.0
C121 C 0.71 0.65107 0.85741 0.0
C122 C 0.72155 0.69851 0.94459 0.0
C123 C 0.65656 0.65252 0.01658 0.0
H124 H 0.09532 0.12483 0.67419 0.0
H125 H 0.92654 0.86582 0.68283 0.0
H126 H 0.90792 0.82495 0.51767 0.0
H127 H 0.91336 0.0583 0.48302 0.0
H128 H 1.04795 0.15327 0.43445 0.0
H129 H 1.0402 0.16149 0.55435 0.0
H130 H 0.26237 0.21639 0.5521 0.0
H131 H 0.27121 0.209 0.43243 0.0
H132 H 0.28781 0.15108 0.47851 0.0
H133 H 0.9047 0.81026 0.35546 0.0
H134 H 0.94437 0.82823 0.19881 0.0
H135 H 0.13198 0.1006 0.28752 0.0
C136 C 1.05383 0.05945 0.64089 0.0
C137 C 1.01156 0.99805 0.69086 0.0
C138 C 0.9598 0.9137 0.64554 0.0
C139 C 0.94789 0.88969 0.55194 0.0
C140 C 0.99002 0.9513 0.50448 0.0
C141 C 1.04412 0.03499 0.54671 0.0
C142 C 0.09077 0.09027 0.4781 0.0
C143 C 1.01875 0.11743 0.4881 0.0
C144 C 0.23671 0.17149 0.48575 0.0
C145 C 1.05466 0.0244 0.3909 0.0
C146 C 0.9945 0.94432 0.40863 0.0
C147 C 0.95237 0.8727 0.34061 0.0
C148 C 0.97569 0.88368 0.25188 0.0
C149 C 1.04263 0.96601 0.23144 0.0
C150 C 0.08023 0.03698 0.30163 0.0
loop_
_geom_bond_atom_site_label_1
_geom_bond_atom_site_label_2
_geom_bond_distance
_geom_bond_site_symmetry_2
_ccdc_geom_bond_type
Co0 N1 2.034 . S
Co0 O15 2.262 1_654 S
Co0 O19 1.958 1_554 S
Co0 O23 1.950 1_655 S
Co0 O24 2.057 1_654 S
N1 Co0 2.034 . S
N1 C2 1.366 . S
N1 C4 1.332 1_655 S
C2 N1 1.366 . S
C2 C5 1.377 . S
C2 H34 0.931 . S
N3 C4 1.341 . S
N3 C5 1.332 1_455 S
C4 N1 1.332 1_455 S
C4 N3 1.341 . S
C4 C38 1.361 . S
C5 C2 1.377 . S
C5 N3 1.332 1_655 S
C5 H41 0.930 . S
Co6 N7 2.034 1_655 S
Co6 O20 1.950 1_655 S
Co6 O21 2.257 1_556 S
Co6 O22 1.958 . S
Co6 O26 2.060 . S
N7 Co6 2.034 1_455 S
N7 C10 1.366 . S
N7 C11 1.332 . S
N8 C9 1.337 . S
N8 C11 1.346 . S
C9 N8 1.337 . S
C9 C10 1.377 . S
C9 H42 0.930 . S
C10 N7 1.366 . S
C10 C9 1.377 . S
C10 H14 0.931 . S
C11 N7 1.332 . S
C11 N8 1.346 . S
C11 C28 1.361 1_556 S
Co12 O15 2.097 1_655 S
Co12 O16 2.065 1_666 S
Co12 O17 2.065 1_566 S
Co12 O18 2.042 . S
Co12 O21 2.098 1_566 S
Co12 O25 2.042 1_655 S
C13 O21 1.253 . S
C13 O26 1.259 1_554 S
H14 C10 0.931 . S
O15 Co0 2.262 1_456 S
O15 Co12 2.097 1_455 S
O15 C39 1.253 . S
O16 Co12 2.065 1_444 S
O16 C32 1.221 . S
O17 Co12 2.065 1_544 S
O17 C27 1.221 1_545 S
O18 Co12 2.042 . S
O18 C33 1.237 . S
O19 Co0 1.958 1_556 S
O19 C33 1.278 . S
O20 Co6 1.950 1_455 S
O20 C32 1.277 1_556 S
O21 Co6 2.257 1_554 S
O21 Co12 2.098 1_544 S
O21 C13 1.253 . S
O22 Co6 1.958 . S
O22 C40 1.284 . S
O23 Co0 1.950 1_455 S
O23 C27 1.277 1_455 S
O24 Co0 2.057 1_456 S
O24 C39 1.263 . S
O25 Co12 2.042 1_455 S
O25 C40 1.232 1_465 S
O26 Co6 2.060 . S
O26 C13 1.259 1_556 S
C27 O17 1.221 1_565 S
C27 O23 1.277 1_655 S
C28 C11 1.361 1_554 S
C28 H29 0.960 . S
C28 H30 0.961 . S
C28 H31 0.961 1_455 S
H29 C28 0.960 . S
H30 C28 0.961 . S
H31 C28 0.961 1_655 S
C32 O16 1.221 . S
C32 O20 1.277 1_554 S
C33 O18 1.237 . S
C33 O19 1.278 . S
H34 C2 0.931 . S
H35 C38 0.961 . S
H36 C38 0.961 . S
H37 C38 0.960 . S
C38 C4 1.361 . S
C38 H35 0.961 . S
C38 H36 0.961 . S
C38 H37 0.960 . S
C39 O15 1.253 . S
C39 O24 1.263 . S
C40 O22 1.284 . S
C40 O25 1.232 1_645 S
H41 C5 0.930 . S
H42 C9 0.930 . S
H43 C55 0.930 . S
H44 C57 0.930 . S
H45 C58 0.930 . S
H46 C62 0.959 . S
H47 C62 0.959 . S
H48 C62 0.961 . S
H49 C63 0.960 . S
H50 C63 0.961 . S
H51 C63 0.959 . S
H52 C66 0.929 . S
H53 C67 0.931 . S
H54 C69 0.930 . S
C55 H43 0.930 . S
C55 C56 1.399 1_455 S
C55 C60 1.399 . S
C56 C55 1.399 1_655 S
C56 C57 1.376 . S
C57 H44 0.930 . S
C57 C56 1.376 . S
C57 C58 1.388 . S
C58 H45 0.930 . S
C58 C57 1.388 . S
C58 C59 1.390 . S
C59 C58 1.390 . S
C59 C60 1.394 1_655 S
C59 C65 1.465 1_556 S
C60 C55 1.399 . S
C60 C59 1.394 1_455 S
C60 C61 1.516 1_556 S
C61 C60 1.516 1_554 S
C61 C62 1.502 . S
C61 C63 1.561 1_554 S
C61 C64 1.526 . S
C62 H46 0.959 . S
C62 H47 0.959 . S
C62 H48 0.961 . S
C62 C61 1.502 . S
C63 H49 0.960 . S
C63 H50 0.961 . S
C63 H51 0.959 . S
C63 C61 1.561 1_556 S
C64 C61 1.526 . S
C64 C65 1.396 1_455 S
C64 C69 1.390 . S
C65 C59 1.465 1_554 S
C65 C64 1.396 1_655 S
C65 C66 1.399 . S
C66 H52 0.929 . S
C66 C65 1.399 . S
C66 C67 1.385 . S
C67 H53 0.931 . S
C67 C66 1.385 . S
C67 C68 1.389 1_655 S
C68 C67 1.389 1_455 S
C68 C69 1.387 . S
C69 H54 0.930 . S
C69 C64 1.390 . S
C69 C68 1.387 . S
H70 C82 0.930 . S
H71 C84 0.930 . S
H72 C85 0.930 . S
H73 C89 0.959 . S
H74 C89 0.959 . S
H75 C89 0.961 . S
H76 C90 0.960 . S
H77 C90 0.961 . S
H78 C90 0.959 . S
H79 C93 0.929 . S
H80 C94 0.931 . S
H81 C96 0.930 . S
C82 H70 0.930 . S
C82 C83 1.398 1_556 S
C82 C87 1.399 . S
C83 C82 1.398 1_554 S
C83 C84 1.374 1_565 S
C84 H71 0.930 . S
C84 C83 1.374 1_545 S
C84 C85 1.388 . S
C85 H72 0.930 . S
C85 C84 1.388 . S
C85 C86 1.390 . S
C86 C85 1.390 . S
C86 C87 1.394 1_544 S
C86 C92 1.465 . S
C87 C82 1.399 . S
C87 C86 1.394 1_566 S
C87 C88 1.516 . S
C88 C87 1.516 . S
C88 C89 1.502 . S
C88 C90 1.561 . S
C88 C91 1.526 . S
C89 H73 0.959 . S
C89 H74 0.959 . S
C89 H75 0.961 . S
C89 C88 1.502 . S
C90 H76 0.960 . S
C90 H77 0.961 . S
C90 H78 0.959 . S
C90 C88 1.561 . S
C91 C88 1.526 . S
C91 C92 1.396 1_566 S
C91 C96 1.390 . S
C92 C86 1.465 . S
C92 C91 1.396 1_544 S
C92 C93 1.399 . S
C93 H79 0.929 . S
C93 C92 1.399 . S
C93 C94 1.385 . S
C94 H80 0.931 . S
C94 C93 1.385 . S
C94 C95 1.389 1_554 S
C95 C94 1.389 1_556 S
C95 C96 1.387 1_545 S
C96 H81 0.930 . S
C96 C91 1.390 . S
C96 C95 1.387 1_565 S
H97 C109 0.930 . S
H98 C111 0.930 . S
H99 C112 0.930 . S
H100 C116 0.959 . S
H101 C116 0.959 . S
H102 C116 0.961 . S
H103 C117 0.960 . S
H104 C117 0.961 . S
H105 C117 0.959 . S
H106 C120 0.929 . S
H107 C121 0.931 . S
H108 C123 0.930 . S
C109 H97 0.930 . S
C109 C110 1.399 . S
C109 C114 1.399 . S
C110 C109 1.399 . S
C110 C111 1.376 1_554 S
C111 H98 0.930 . S
C111 C110 1.376 1_556 S
C111 C112 1.388 . S
C112 H99 0.930 . S
C112 C111 1.388 . S
C112 C113 1.390 . S
C113 C112 1.390 . S
C113 C114 1.394 1_556 S
C113 C119 1.465 . S
C114 C109 1.399 . S
C114 C113 1.394 1_554 S
C114 C115 1.516 . S
C115 C114 1.516 . S
C115 C116 1.502 . S
C115 C117 1.561 . S
C115 C118 1.526 . S
C116 H100 0.959 . S
C116 H101 0.959 . S
C116 H102 0.961 . S
C116 C115 1.502 . S
C117 H103 0.960 . S
C117 H104 0.961 . S
C117 H105 0.959 . S
C117 C115 1.561 . S
C118 C115 1.526 . S
C118 C119 1.396 1_554 S
C118 C123 1.390 . S
C119 C113 1.465 . S
C119 C118 1.396 1_556 S
C119 C120 1.399 . S
C120 H106 0.929 . S
C120 C119 1.399 . S
C120 C121 1.385 . S
C121 H107 0.931 . S
C121 C120 1.385 . S
C121 C122 1.389 . S
C122 C121 1.389 . S
C122 C123 1.387 1_556 S
C123 H108 0.930 . S
C123 C118 1.390 . S
C123 C122 1.387 1_554 S
H124 C136 0.930 . S
H125 C138 0.930 . S
H126 C139 0.930 . S
H127 C143 0.959 . S
H128 C143 0.959 1_455 S
H129 C143 0.961 1_455 S
H130 C144 0.960 . S
H131 C144 0.961 . S
H132 C144 0.959 . S
H133 C147 0.929 . S
H134 C148 0.931 . S
H135 C150 0.930 . S
C136 H124 0.930 . S
C136 C137 1.399 1_545 S
C136 C141 1.399 . S
C137 C136 1.399 1_565 S
C137 C138 1.376 1_455 S
C138 H125 0.930 . S
C138 C137 1.376 1_655 S
C138 C139 1.388 . S
C139 H126 0.930 . S
C139 C138 1.388 . S
C139 C140 1.390 . S
C140 C139 1.390 . S
C140 C141 1.394 1_665 S
C140 C146 1.465 . S
C141 C136 1.399 . S
C141 C140 1.394 1_445 S
C141 C142 1.516 . S
C142 C141 1.516 . S
C142 C143 1.502 1_455 S
C142 C144 1.561 . S
C142 C145 1.526 . S
C143 H127 0.959 . S
C143 H128 0.959 1_655 S
C143 H129 0.961 1_655 S
C143 C142 1.502 1_655 S
C144 H130 0.960 . S
C144 H131 0.961 . S
C144 H132 0.959 . S
C144 C142 1.561 . S
C145 C142 1.526 . S
C145 C146 1.396 1_445 S
C145 C150 1.390 . S
C146 C140 1.465 . S
C146 C145 1.396 1_665 S
C146 C147 1.399 . S
C147 H133 0.929 . S
C147 C146 1.399 . S
C147 C148 1.385 . S
C148 H134 0.931 . S
C148 C147 1.385 . S
C148 C149 1.394 . S
C149 C148 1.394 . S
C149 C150 1.384 1_665 S
C150 H135 0.930 . S
C150 C145 1.390 . S
C150 C149 1.384 1_445 S
C56 N8 1.556 1_655 S
C68 N3 1.356 . S
C83 C13 1.685 1_565 S
C95 C39 1.638 1_545 S
C110 C32 1.597 . S
C122 C33 1.633 . S
C137 C40 1.468 1_465 S
C149 C27 1.368 . S
