# Generated by pormake.
# Topology pcu, (6)-cn, num edge types: 1
# Building blocks:
#     Node 0, Type 0, BuildingBlock: KUMBOL_clean_sbu_1, # of connection points: 6
#     Edge 1, Type (0, 0), BuildingBlock: FUNLAD_clean_linker_0, # of connection points: 2
#     Edge 2, Type (0, 0), BuildingBlock: FUNLAD_clean_linker_0, # of connection points: 2
#     Edge 3, Type (0, 0), BuildingBlock: FUNLAD_clean_linker_0, # of connection points: 2
# Relax obj value: 0.000
# Max RMSD: 0.000
# Mean RMSD: 0.000
data_MOF--net-pcu--node1-KUMBOL_clean_sbu_1--edge1-FUNLAD_clean_linker_0
_symmetry_space_group_name_H-M    P1
_symmetry_Int_Tables_number       1
_symmetry_cell_setting            triclinic
loop_
_symmetry_equiv_pos_as_xyz
'x, y, z'
_cell_length_a     17.447643
_cell_length_b     27.387741
_cell_length_c     17.454411
_cell_angle_alpha  114.569
_cell_angle_beta   88.834582
_cell_angle_gamma 115.74186
loop_
_atom_site_label
_atom_site_type_symbol
_atom_site_fract_x
_atom_site_fract_y
_atom_site_fract_z
_atom_type_partial_charge
C0 C 0.27214 0.15731 0.10224 0.0
C1 C 0.33509 0.15852 0.97749 0.0
C2 C 0.26169 0.14343 0.0157 0.0
C3 C 0.41812 0.18479 0.02614 0.0
C4 C 0.35548 0.18483 0.15178 0.0
C5 C 0.42828 0.1979 0.11302 0.0
N6 N 0.20038 0.14296 0.13766 0.0
C7 C 0.20713 0.15614 0.22243 0.0
C8 C 0.36298 0.19791 0.23868 0.0
C9 C 0.28849 0.1837 0.27419 0.0
Gd10 Gd 0.94455 0.91179 0.9408 0.0
Gd11 Gd 0.06689 0.09568 0.0459 0.0
N12 N 0.1803 0.11746 0.96992 0.0
C13 C 0.32312 0.14854 0.89226 0.0
C14 C 0.16978 0.11393 0.89024 0.0
C15 C 0.24028 0.12746 0.84913 0.0
H16 H 0.10803 0.1031 0.85916 0.0
H17 H 0.23097 0.12302 0.78499 0.0
H18 H 0.83635 0.91465 0.10267 0.0
H19 H 0.14967 0.14538 0.25 0.0
H20 H 0.68464 0.87391 0.12212 0.0
H21 H 0.37781 0.15961 0.8606 0.0
H22 H 0.47509 0.19613 0.99754 0.0
H23 H 0.93709 0.85306 0.72868 0.0
H24 H 0.42588 0.21899 0.27886 0.0
H25 H 0.2937 0.19388 0.34137 0.0
H26 H 0.51702 0.75748 0.83483 0.0
H27 H 0.4928 0.2186 0.14985 0.0
H28 H 0.67022 0.74622 0.60188 0.0
H29 H 0.82613 0.78891 0.5948 0.0
N30 N 0.84485 0.84905 0.81018 0.0
C31 C 0.75967 0.82523 0.81558 0.0
C32 C 0.86922 0.8359 0.73231 0.0
C33 C 0.71862 0.77493 0.66076 0.0
C34 C 0.80656 0.79903 0.65647 0.0
C35 C 0.69415 0.78754 0.74093 0.0
H36 H 0.55539 0.7346 0.69196 0.0
N37 N 0.80278 0.87548 0.9669 0.0
C38 C 0.73792 0.83824 0.89618 0.0
C39 C 0.63118 0.82732 0.98654 0.0
C40 C 0.65028 0.81373 0.90417 0.0
C41 C 0.78475 0.88713 0.04714 0.0
C42 C 0.69875 0.86382 0.05826 0.0
O43 O 0.13657 0.04433 0.05588 0.0
O44 O 0.08099 0.96097 0.92563 0.0
O45 O 0.97956 0.86985 0.00629 0.0
O46 O 0.93871 0.82337 0.86815 0.0
O47 O 0.99095 0.03978 0.90828 0.0
O48 O 0.01247 0.9558 0.85881 0.0
O49 O 0.86024 0.95728 0.94897 0.0
O50 O 0.92924 0.05356 0.06373 0.0
O51 O 0.04345 0.15684 0.01277 0.0
O52 O 0.09222 0.18499 0.14469 0.0
O53 O 0.99289 0.96376 0.08502 0.0
O54 O 1.00629 0.06133 0.14037 0.0
C55 C 0.14511 1.00147 0.99119 0.0
C56 C 0.994 0.99334 0.84482 0.0
C57 C 0.90697 0.76259 0.94031 0.0
C58 C 0.89737 0.67738 0.9616 0.0
C59 C 0.76649 0.68297 0.9316 0.0
C60 C 0.81633 0.7374 0.92744 0.0
C61 C 0.80646 0.65307 0.94847 0.0
C62 C 0.94727 0.7325 0.95736 0.0
C63 C 0.96018 0.82009 0.93615 0.0
C64 C 0.58478 0.77655 0.82998 0.0
C65 C 0.60665 0.76354 0.7486 0.0
H66 H 0.56463 0.80945 0.99542 0.0
C67 C 0.85966 1.00636 0.00836 0.0
C68 C 0.99789 0.01355 0.14871 0.0
C69 C 0.13293 0.2615 0.0985 0.0
C70 C 0.15483 0.35363 0.09029 0.0
C71 C 0.27872 0.34136 0.12229 0.0
C72 C 0.22308 0.28449 0.11709 0.0
C73 C 0.24509 0.37577 0.10903 0.0
C74 C 0.09919 0.29612 0.08508 0.0
C75 C 0.07274 0.201 0.09046 0.0
H76 H 0.69651 0.6637 0.92124 0.0
H77 H 0.78402 0.75951 0.91379 0.0
H78 H 0.766 0.61037 0.94989 0.0
H79 H 0.01742 0.7524 0.96815 0.0
H80 H 0.34826 0.35892 0.13687 0.0
H81 H 0.25047 0.25864 0.12756 0.0
H82 H 0.28979 0.42007 0.11462 0.0
H83 H 0.02946 0.2777 0.06928 0.0
C84 C 0.97806 0.96357 0.24456 0.0
C85 C 0.99173 0.01482 0.23425 0.0
C86 C 0.9711 0.96384 0.32442 0.0
C87 C 0.97932 0.01593 0.39673 0.0
C88 C 0.9916 0.06682 0.38623 0.0
C89 C 0.99769 0.06633 0.30592 0.0
C90 C 0.97396 0.01846 0.48339 0.0
C91 C 0.98875 0.98154 0.50639 0.0
C92 C 0.98657 0.98439 0.59327 0.0
C93 C 0.94461 0.01254 0.65205 0.0
C94 C 0.94592 0.01469 0.73349 0.0
C95 C 0.98817 0.98821 0.75732 0.0
H96 H 0.05957 0.93462 0.57294 0.0
C97 C 0.02831 0.95899 0.69808 0.0
C98 C 0.02722 0.95696 0.61694 0.0
H99 H 0.06236 0.93882 0.715 0.0
H100 H 0.97167 0.92263 0.19067 0.0
H101 H 0.95798 0.92264 0.32829 0.0
H102 H 0.99709 0.10731 0.44049 0.0
H103 H 1.00716 0.10639 0.30026 0.0
H104 H 0.96196 0.0541 0.53055 0.0
H105 H 1.00823 0.94957 0.46127 0.0
H106 H 0.91007 0.03254 0.6357 0.0
H107 H 0.91392 0.03713 0.77785 0.0
C108 C 0.29221 0.03198 0.06413 0.0
C109 C 0.22958 1.00107 0.98876 0.0
C110 C 0.37232 0.03183 0.06106 0.0
C111 C 0.39093 0.99987 0.98229 0.0
C112 C 0.32808 0.96928 0.90712 0.0
C113 C 0.24833 0.96966 0.91025 0.0
C114 C 0.47467 0.99755 0.97448 0.0
C115 C 0.53296 0.01335 0.04103 0.0
C116 C 0.6158 0.01025 0.03062 0.0
C117 C 0.68713 0.04999 0.09927 0.0
C118 C 0.76632 0.04888 0.09191 0.0
C119 C 0.77559 0.00729 0.01599 0.0
H120 H 0.57042 0.93513 0.90164 0.0
C121 C 0.70376 0.96667 0.94774 0.0
C122 C 0.62461 0.96792 0.95499 0.0
H123 H 0.70874 0.93414 0.8883 0.0
H124 H 0.2792 0.05613 0.12567 0.0
H125 H 0.41906 0.05735 0.12052 0.0
H126 H 0.3405 0.94463 0.84546 0.0
H127 H 0.20162 0.94566 0.85085 0.0
H128 H 0.48826 0.98152 0.91016 0.0
H129 H 0.52169 0.03066 0.106 0.0
H130 H 0.6819 0.08255 0.15857 0.0
H131 H 0.82011 0.08043 0.14607 0.0
C132 C 0.90827 0.61659 0.03241 0.0
C133 C 0.93922 0.6447 0.97876 0.0
C134 C 0.94487 0.58371 0.04594 0.0
C135 C 0.01323 0.57776 0.00563 0.0
C136 C 0.04568 0.60725 0.95392 0.0
C137 C 1.009 0.64013 0.94034 0.0
C138 C 0.0536 0.54257 0.01739 0.0
C139 C 0.01245 0.49725 0.03975 0.0
C140 C 0.0515 0.46142 0.05178 0.0
C141 C 0.01275 0.42798 0.09736 0.0
C142 C 0.04609 0.39315 0.10985 0.0
C143 C 0.11898 0.39048 0.07652 0.0
H144 H 0.1545 0.48153 0.97965 0.0
C145 C 0.15736 0.42338 0.03005 0.0
C146 C 0.12401 0.45828 0.01755 0.0
H147 H 0.21249 0.42137 0.00195 0.0
H148 H 0.85605 0.62044 0.06474 0.0
H149 H 0.92002 0.56397 0.08908 0.0
H150 H 0.09877 0.60402 0.92267 0.0
H151 H 0.03414 0.66083 0.89819 0.0
H152 H 0.119 0.55421 0.00556 0.0
H153 H 0.94668 0.48554 0.05058 0.0
H154 H 0.95664 0.42915 0.12416 0.0
H155 H 0.01536 0.36895 0.14671 0.0
loop_
_geom_bond_atom_site_label_1
_geom_bond_atom_site_label_2
_geom_bond_distance
_geom_bond_site_symmetry_2
_ccdc_geom_bond_type
C0 C2 1.422 . S
C0 C4 1.415 . S
C0 N6 1.369 . S
C1 C2 1.421 . S
C1 C3 1.417 . S
C1 C13 1.422 . S
C2 C0 1.422 . S
C2 C1 1.421 . S
C2 N12 1.359 . S
C3 C1 1.417 . S
C3 C5 1.329 . S
C3 H22 0.930 . S
C4 C0 1.415 . S
C4 C5 1.437 . S
C4 C8 1.413 . S
C5 C3 1.329 . S
C5 C4 1.437 . S
C5 H27 0.929 . S
N6 C0 1.369 . S
N6 C7 1.338 . S
N6 Gd11 2.622 . S
C7 N6 1.338 . S
C7 C9 1.378 . S
C7 H19 0.929 . S
C8 C4 1.413 . S
C8 C9 1.348 . S
C8 H24 0.931 . S
C9 C7 1.378 . S
C9 C8 1.348 . S
C9 H25 0.930 . S
Gd10 N30 2.622 . S
Gd10 N37 2.570 . S
Gd10 O44 2.353 1_655 S
Gd10 O45 2.468 . S
Gd10 O46 2.427 . S
Gd10 O48 2.388 . S
Gd10 O49 2.386 . S
Gd10 O53 2.307 1_556 S
Gd10 C63 2.805 . S
Gd11 N6 2.622 . S
Gd11 N12 2.570 . S
Gd11 O43 2.386 . S
Gd11 O47 2.307 1_554 S
Gd11 O50 2.353 1_455 S
Gd11 O51 2.468 . S
Gd11 O52 2.427 . S
Gd11 O54 2.388 . S
Gd11 C75 2.805 . S
N12 C2 1.359 . S
N12 Gd11 2.570 . S
N12 C14 1.343 1_554 S
C13 C1 1.422 . S
C13 C15 1.321 1_554 S
C13 H21 0.931 1_554 S
C14 N12 1.343 1_556 S
C14 C15 1.390 . S
C14 H16 0.931 . S
C15 C13 1.321 1_556 S
C15 C14 1.390 . S
C15 H17 0.930 . S
H16 C14 0.931 . S
H17 C15 0.930 . S
H18 C41 0.931 . S
H19 C7 0.929 . S
H20 C42 0.930 . S
H21 C13 0.931 1_556 S
H22 C3 0.930 . S
H23 C32 0.929 . S
H24 C8 0.931 . S
H25 C9 0.930 . S
H26 C64 0.930 . S
H27 C5 0.929 . S
H28 C33 0.931 . S
H29 C34 0.930 . S
N30 Gd10 2.622 . S
N30 C31 1.369 . S
N30 C32 1.338 . S
C31 N30 1.369 . S
C31 C35 1.415 . S
C31 C38 1.422 . S
C32 H23 0.929 . S
C32 N30 1.338 . S
C32 C34 1.378 . S
C33 H28 0.931 . S
C33 C34 1.348 . S
C33 C35 1.413 . S
C34 H29 0.930 . S
C34 C32 1.378 . S
C34 C33 1.348 . S
C35 C31 1.415 . S
C35 C33 1.413 . S
C35 C65 1.437 . S
H36 C65 0.929 . S
N37 Gd10 2.570 . S
N37 C38 1.359 . S
N37 C41 1.343 1_556 S
C38 C31 1.422 . S
C38 N37 1.359 . S
C38 C40 1.421 . S
C39 C40 1.422 . S
C39 C42 1.321 1_556 S
C39 H66 0.931 1_556 S
C40 C38 1.421 . S
C40 C39 1.422 . S
C40 C64 1.417 . S
C41 H18 0.931 . S
C41 N37 1.343 1_554 S
C41 C42 1.390 . S
C42 H20 0.930 . S
C42 C39 1.321 1_554 S
C42 C41 1.390 . S
O43 Gd11 2.386 . S
O43 C55 1.264 1_545 S
O44 Gd10 2.353 1_455 S
O44 C55 1.243 1_556 S
O45 Gd10 2.468 . S
O45 C63 1.263 . S
O46 Gd10 2.427 . S
O46 C63 1.252 . S
O47 Gd11 2.307 1_556 S
O47 C56 1.261 1_545 S
O48 Gd10 2.388 . S
O48 C56 1.252 1_655 S
O49 Gd10 2.386 . S
O49 C67 1.259 1_565 S
O50 Gd11 2.353 1_655 S
O50 C67 1.245 1_554 S
O51 Gd11 2.468 . S
O51 C75 1.263 . S
O52 Gd11 2.427 . S
O52 C75 1.252 . S
O53 Gd10 2.307 1_554 S
O53 C68 1.261 1_565 S
O54 Gd11 2.388 . S
O54 C68 1.252 1_455 S
C55 O43 1.264 1_565 S
C55 O44 1.243 1_554 S
C56 O47 1.261 1_565 S
C56 O48 1.252 1_455 S
C57 C60 1.394 . S
C57 C62 1.370 . S
C57 C63 1.500 . S
C58 C61 1.383 . S
C58 C62 1.395 . S
C59 C60 1.396 . S
C59 C61 1.365 . S
C59 H76 0.929 . S
C60 C57 1.394 . S
C60 C59 1.396 . S
C60 H77 0.930 . S
C61 C58 1.383 . S
C61 C59 1.365 . S
C61 H78 0.931 . S
C62 C57 1.370 . S
C62 C58 1.395 . S
C62 H79 0.930 1_556 S
C63 Gd10 2.805 . S
C63 O45 1.263 . S
C63 O46 1.252 . S
C63 C57 1.500 . S
C64 H26 0.930 . S
C64 C40 1.417 . S
C64 C65 1.329 . S
C65 C35 1.437 . S
C65 H36 0.929 . S
C65 C64 1.329 . S
H66 C39 0.931 1_554 S
C67 O49 1.259 1_545 S
C67 O50 1.245 1_556 S
C68 O53 1.261 1_545 S
C68 O54 1.252 1_655 S
C69 C72 1.394 . S
C69 C74 1.370 . S
C69 C75 1.500 . S
C70 C73 1.383 . S
C70 C74 1.395 . S
C71 C72 1.396 . S
C71 C73 1.365 . S
C71 H80 0.929 . S
C72 C69 1.394 . S
C72 C71 1.396 . S
C72 H81 0.930 . S
C73 C70 1.383 . S
C73 C71 1.365 . S
C73 H82 0.931 . S
C74 C69 1.370 . S
C74 C70 1.395 . S
C74 H83 0.930 1_554 S
C75 Gd11 2.805 . S
C75 O51 1.263 . S
C75 O52 1.252 . S
C75 C69 1.500 . S
H76 C59 0.929 . S
H77 C60 0.930 . S
H78 C61 0.931 . S
H79 C62 0.930 1_554 S
H80 C71 0.929 . S
H81 C72 0.930 . S
H82 C73 0.931 . S
H83 C74 0.930 1_556 S
C84 C85 1.386 1_665 S
C84 C86 1.383 . S
C84 H100 0.951 . S
C85 C84 1.386 1_445 S
C85 C89 1.383 . S
C86 C84 1.383 . S
C86 C87 1.402 1_665 S
C86 H101 0.951 . S
C87 C86 1.402 1_445 S
C87 C88 1.375 . S
C87 C90 1.481 . S
C88 C87 1.375 . S
C88 C89 1.367 . S
C88 H102 0.951 . S
C89 C85 1.383 . S
C89 C88 1.367 . S
C89 H103 0.950 . S
C90 C87 1.481 . S
C90 C91 1.297 1_545 S
C90 H104 0.950 . S
C91 C90 1.297 1_565 S
C91 C92 1.479 . S
C91 H105 0.950 1_455 S
C92 C91 1.479 . S
C92 C93 1.375 1_455 S
C92 C98 1.404 1_565 S
C93 C92 1.375 1_655 S
C93 C94 1.369 . S
C93 H106 0.950 . S
C94 C93 1.369 . S
C94 C95 1.392 1_655 S
C94 H107 0.951 . S
C95 C94 1.392 1_455 S
C95 C97 1.384 1_565 S
H96 C98 0.949 . S
C97 C95 1.384 1_545 S
C97 C98 1.385 . S
C97 H99 0.950 . S
C98 C92 1.404 1_545 S
C98 H96 0.949 . S
C98 C97 1.385 . S
H99 C97 0.950 . S
H100 C84 0.951 . S
H101 C86 0.951 . S
H102 C88 0.951 . S
H103 C89 0.950 . S
H104 C90 0.950 . S
H105 C91 0.950 1_655 S
H106 C93 0.950 . S
H107 C94 0.951 . S
C108 C109 1.386 1_554 S
C108 C110 1.383 . S
C108 H124 0.951 . S
C109 C108 1.386 1_556 S
C109 C113 1.383 1_565 S
C110 C108 1.383 . S
C110 C111 1.402 1_554 S
C110 H125 0.951 . S
C111 C110 1.402 1_556 S
C111 C112 1.375 1_565 S
C111 C114 1.481 . S
C112 C111 1.375 1_545 S
C112 C113 1.367 . S
C112 H126 0.951 . S
C113 C109 1.383 1_545 S
C113 C112 1.367 . S
C113 H127 0.950 . S
C114 C111 1.481 . S
C114 C115 1.297 . S
C114 H128 0.956 . S
C115 C114 1.297 . S
C115 C116 1.479 . S
C115 H129 0.950 1_556 S
C116 C115 1.479 . S
C116 C117 1.375 1_556 S
C116 C122 1.404 . S
C117 C116 1.375 1_554 S
C117 C118 1.369 . S
C117 H130 0.950 . S
C118 C117 1.369 . S
C118 C119 1.392 1_554 S
C118 H131 0.951 . S
C119 C118 1.392 1_556 S
C119 C121 1.384 . S
H120 C122 0.949 . S
C121 C119 1.384 . S
C121 C122 1.385 . S
C121 H123 0.946 1_565 S
C122 C116 1.404 . S
C122 H120 0.949 . S
C122 C121 1.385 . S
H123 C121 0.946 1_545 S
H124 C108 0.951 . S
H125 C110 0.951 . S
H126 C112 0.951 . S
H127 C113 0.950 . S
H128 C114 0.956 . S
H129 C115 0.950 1_554 S
H130 C117 0.950 . S
H131 C118 0.951 . S
C132 C133 1.386 1_554 S
C132 C134 1.383 . S
C132 H148 0.951 . S
C133 C132 1.386 1_556 S
C133 C137 1.385 . S
C134 C132 1.383 . S
C134 C135 1.402 1_554 S
C134 H149 0.951 . S
C135 C134 1.402 1_556 S
C135 C136 1.375 . S
C135 C138 1.481 . S
C136 C135 1.375 . S
C136 C137 1.364 . S
C136 H150 0.951 . S
C137 C133 1.385 . S
C137 C136 1.364 . S
C137 H151 0.950 1_655 S
C138 C135 1.481 . S
C138 C139 1.297 1_556 S
C138 H152 0.950 . S
C139 C138 1.297 1_554 S
C139 C140 1.484 1_554 S
C139 H153 0.950 . S
C140 C139 1.484 1_556 S
C140 C141 1.362 1_556 S
C140 C146 1.412 . S
C141 C140 1.362 1_554 S
C141 C142 1.369 . S
C141 H154 0.950 . S
C142 C141 1.369 . S
C142 C143 1.392 1_554 S
C142 H155 0.951 . S
C143 C142 1.392 1_556 S
C143 C145 1.384 . S
H144 C146 0.949 . S
C145 C143 1.384 . S
C145 C146 1.385 . S
C145 H147 0.950 . S
C146 C140 1.412 . S
C146 H144 0.949 . S
C146 C145 1.385 . S
H147 C145 0.950 . S
H148 C132 0.951 . S
H149 C134 0.951 . S
H150 C136 0.951 . S
H151 C137 0.950 1_455 S
H152 C138 0.950 . S
H153 C139 0.950 . S
H154 C141 0.950 . S
H155 C142 0.951 . S
C85 C68 1.481 1_455 S
C95 C56 1.440 . S
C109 C55 1.500 1_556 S
C119 C67 1.485 1_565 S
C133 C58 1.309 . S
C143 C70 1.360 1_656 S
