# Generated by pormake.
# Topology ukh, (4)-cn, num edge types: 1
# Building blocks:
#     Node 0, Type 0, BuildingBlock: QUQFOY_clean_sbu_1, # of connection points: 4
#     Node 1, Type 0, BuildingBlock: QUQFOY_clean_sbu_1, # of connection points: 4
#     Node 2, Type 0, BuildingBlock: QUQFOY_clean_sbu_1, # of connection points: 4
#     Node 3, Type 0, BuildingBlock: QUQFOY_clean_sbu_1, # of connection points: 4
#     Node 4, Type 0, BuildingBlock: QUQFOY_clean_sbu_1, # of connection points: 4
#     Node 5, Type 0, BuildingBlock: QUQFOY_clean_sbu_1, # of connection points: 4
#     Node 6, Type 0, BuildingBlock: QUQFOY_clean_sbu_1, # of connection points: 4
#     Node 7, Type 0, BuildingBlock: QUQFOY_clean_sbu_1, # of connection points: 4
#     Node 8, Type 0, BuildingBlock: QUQFOY_clean_sbu_1, # of connection points: 4
#     Node 9, Type 0, BuildingBlock: QUQFOY_clean_sbu_1, # of connection points: 4
#     Node 10, Type 0, BuildingBlock: QUQFOY_clean_sbu_1, # of connection points: 4
#     Node 11, Type 0, BuildingBlock: QUQFOY_clean_sbu_1, # of connection points: 4
#     Edge 12, Type (0, 0), None
#     Edge 13, Type (0, 0), None
#     Edge 14, Type (0, 0), None
#     Edge 15, Type (0, 0), None
#     Edge 16, Type (0, 0), None
#     Edge 17, Type (0, 0), None
#     Edge 18, Type (0, 0), None
#     Edge 19, Type (0, 0), None
#     Edge 20, Type (0, 0), None
#     Edge 21, Type (0, 0), None
#     Edge 22, Type (0, 0), None
#     Edge 23, Type (0, 0), None
#     Edge 24, Type (0, 0), None
#     Edge 25, Type (0, 0), None
#     Edge 26, Type (0, 0), None
#     Edge 27, Type (0, 0), None
#     Edge 28, Type (0, 0), None
#     Edge 29, Type (0, 0), None
#     Edge 30, Type (0, 0), None
#     Edge 31, Type (0, 0), None
#     Edge 32, Type (0, 0), None
#     Edge 33, Type (0, 0), None
#     Edge 34, Type (0, 0), None
#     Edge 35, Type (0, 0), None
# Relax obj value: 0.078
# Max RMSD: 0.083
# Mean RMSD: 0.083
data_MOF--net-ukh--node1-QUQFOY_clean_sbu_1--edge1-none
_symmetry_space_group_name_H-M    P1
_symmetry_Int_Tables_number       1
_symmetry_cell_setting            triclinic
loop_
_symmetry_equiv_pos_as_xyz
'x, y, z'
_cell_length_a     14.644836
_cell_length_b     14.644956
_cell_length_c     32.264412
_cell_angle_alpha  90.00001
_cell_angle_beta   89.999995
_cell_angle_gamma 120.0008
loop_
_atom_site_label
_atom_site_type_symbol
_atom_site_fract_x
_atom_site_fract_y
_atom_site_fract_z
_atom_type_partial_charge
O0 O 0.34775 0.09258 0.04699 0.0
Cd1 Cd 0.33954 0.21099 0.07735 0.0
Cd2 Cd 0.43538 0.3046 0.00661 0.0
O3 O 0.46457 0.18087 0.9985 0.0
O4 O 0.25959 0.13522 0.12817 0.0
O5 O 0.42559 0.26351 0.13017 0.0
C6 C 0.34379 0.19159 0.14929 0.0
C7 C 0.54067 0.48703 0.00978 0.0
C8 C 0.40425 0.09405 0.01692 0.0
C9 C 0.22199 0.25988 0.01268 0.0
O10 O 0.28911 0.2647 0.98696 0.0
O11 O 0.23607 0.25538 0.0515 0.0
O12 O 0.5264 0.43671 0.97529 0.0
O13 O 0.50508 0.43285 0.04357 0.0
O14 O 0.30033 0.32519 0.38033 0.0
Cd15 Cd 0.17371 0.31698 0.41069 0.0
Cd16 Cd 0.17593 0.41281 0.33994 0.0
O17 O 0.32885 0.442 0.33183 0.0
O18 O 0.16952 0.23702 0.4615 0.0
O19 O 0.20724 0.40302 0.4635 0.0
C20 C 0.19736 0.32123 0.48263 0.0
C21 C 0.0988 0.51811 0.34311 0.0
C22 C 0.35536 0.38169 0.35026 0.0
C23 C 1.00726 0.19943 0.34602 0.0
O24 O 0.06957 0.26655 0.32029 0.0
O25 O 1.02585 0.21351 0.38484 0.0
O26 O 0.13484 0.50383 0.30862 0.0
O27 O 0.11738 0.48252 0.3769 0.0
O28 O 1.02029 0.27776 0.71366 0.0
Cd29 Cd 0.90188 0.15114 0.74402 0.0
Cd30 Cd 0.80827 0.15336 0.67327 0.0
O31 O 0.932 0.30628 0.66517 0.0
O32 O 0.97764 0.14695 0.79484 0.0
O33 O 0.84936 0.18467 0.79684 0.0
C34 C 0.92128 0.17479 0.81596 0.0
C35 C 0.62584 0.07623 0.67645 0.0
C36 C 1.01883 0.33279 0.68359 0.0
C37 C 0.85299 0.9847 0.67935 0.0
O38 O 0.84817 0.047 0.65363 0.0
O39 O 0.85749 1.00328 0.71817 0.0
O40 O 0.67616 0.11228 0.64196 0.0
O41 O 0.68002 0.09481 0.71023 0.0
O42 O 0.78768 0.99773 0.04699 0.0
Cd43 Cd 0.7959 0.87932 0.07735 0.0
Cd44 Cd 0.70006 0.7857 0.00661 0.0
O45 O 0.67087 0.90944 0.9985 0.0
O46 O 0.87585 0.95508 0.12817 0.0
O47 O 0.70985 0.8268 0.13017 0.0
C48 C 0.79165 0.89872 0.14929 0.0
C49 C 0.59477 0.60328 0.00978 0.0
C50 C 0.73118 0.99626 0.01692 0.0
C51 C 0.91344 0.83042 0.01268 0.0
O52 O 0.84632 0.82561 0.98696 0.0
O53 O 0.89936 0.83493 0.0515 0.0
O54 O 0.60904 0.6536 0.97529 0.0
O55 O 0.63036 0.65745 0.04357 0.0
O56 O 0.8351 0.76511 0.38033 0.0
Cd57 Cd 0.96173 0.77333 0.41069 0.0
Cd58 Cd 0.95951 0.67749 0.33994 0.0
O59 O 0.80658 0.6483 0.33183 0.0
O60 O 0.96592 0.85328 0.4615 0.0
O61 O 0.9282 0.68728 0.4635 0.0
C62 C 0.93808 0.76908 0.48263 0.0
C63 C 1.03664 0.5722 0.34311 0.0
C64 C 0.78007 0.70861 0.35026 0.0
C65 C 0.12817 0.89088 0.34602 0.0
O66 O 1.06587 0.82375 0.32029 0.0
O67 O 0.10958 0.8768 0.38484 0.0
O68 O 1.00059 0.58647 0.30862 0.0
O69 O 1.01805 0.60779 0.3769 0.0
O70 O 0.11514 0.81254 0.71366 0.0
Cd71 Cd 0.23356 0.93917 0.74402 0.0
Cd72 Cd 0.32717 0.93694 0.67327 0.0
O73 O 0.20343 0.78402 0.66517 0.0
O74 O 0.15779 0.94335 0.79484 0.0
O75 O 0.28607 0.90564 0.79684 0.0
C76 C 0.21415 0.91551 0.81596 0.0
C77 C 0.50959 1.01407 0.67645 0.0
C78 C 0.11661 0.75751 0.68359 0.0
C79 C 0.28245 0.10561 0.67935 0.0
O80 O 0.28726 1.0433 0.65363 0.0
O81 O 0.27794 0.08702 0.71817 0.0
O82 O 0.45927 0.97803 0.64196 0.0
O83 O 0.45542 0.99549 0.71023 0.0
O84 O 1.02023 0.76498 0.62961 0.0
Cd85 Cd 0.90181 0.77326 0.59929 0.0
Cd86 Cd 0.80826 0.67745 0.67009 0.0
O87 O 0.932 0.64828 0.67818 0.0
O88 O 0.97756 0.85325 0.54848 0.0
O89 O 0.84925 0.68726 0.54647 0.0
C90 C 0.92118 0.76907 0.52735 0.0
C91 C 0.62584 0.57219 0.66692 0.0
C92 C 1.01875 0.70849 0.65969 0.0
C93 C 0.85299 0.89083 0.664 0.0
O94 O 0.84818 0.82373 0.68972 0.0
O95 O 0.85747 0.87674 0.62517 0.0
O96 O 0.67616 0.58645 0.70141 0.0
O97 O 0.68002 0.60777 0.63313 0.0
O98 O 0.30041 0.99767 0.96295 0.0
Cd99 Cd 0.17371 0.87925 0.93262 0.0
Cd100 Cd 0.17596 0.7857 1.00342 0.0
O101 O 0.32888 0.90944 0.01151 0.0
O102 O 0.16947 0.955 0.88181 0.0
O103 O 0.20714 0.82669 0.8798 0.0
C104 C 0.19726 0.89861 0.86068 0.0
C105 C 0.09881 0.60328 1.00025 0.0
C106 C 0.35542 0.99619 0.99302 0.0
C107 C 1.0073 0.83042 0.99733 0.0
O108 O 0.06961 0.82562 0.02305 0.0
O109 O 1.02588 0.83491 0.95851 0.0
O110 O 0.13486 0.65359 0.03474 0.0
O111 O 0.1174 0.65745 0.96647 0.0
O112 O 0.3479 0.27785 0.29628 0.0
Cd113 Cd 0.33961 0.15114 0.26596 0.0
Cd114 Cd 0.43542 0.1534 0.33676 0.0
O115 O 0.4646 0.30632 0.34485 0.0
O116 O 0.25962 0.1469 0.21515 0.0
O117 O 0.4256 0.18458 0.21313 0.0
C118 C 0.3438 0.1747 0.19402 0.0
C119 C 0.54069 0.07624 0.33359 0.0
C120 C 0.40438 0.33285 0.32636 0.0
C121 C 0.22203 0.98474 0.33066 0.0
O122 O 0.28915 0.04705 0.35639 0.0
O123 O 0.23612 1.00332 0.29184 0.0
O124 O 0.52642 0.1123 0.36808 0.0
O125 O 0.50511 0.09484 0.2998 0.0
O126 O 0.1152 0.32533 0.62961 0.0
Cd127 Cd 0.23362 0.31704 0.59929 0.0
Cd128 Cd 0.32717 0.41285 0.67009 0.0
O129 O 0.20343 0.44203 0.67818 0.0
O130 O 0.15787 0.23705 0.54848 0.0
O131 O 0.28618 0.40304 0.54647 0.0
C132 C 0.21426 0.32124 0.52735 0.0
C133 C 0.50959 0.51812 0.66692 0.0
C134 C 0.11668 0.38181 0.65969 0.0
C135 C 0.28245 0.19947 0.664 0.0
O136 O 0.28725 0.26658 0.68972 0.0
O137 O 0.27796 0.21356 0.62517 0.0
O138 O 0.45928 0.50385 0.70141 0.0
O139 O 0.45542 0.48254 0.63313 0.0
O140 O 0.83502 0.09263 0.96295 0.0
Cd141 Cd 0.96173 0.21105 0.93262 0.0
Cd142 Cd 0.95947 0.30461 1.00342 0.0
O143 O 0.80655 0.18086 0.01151 0.0
O144 O 0.96597 0.13531 0.88181 0.0
O145 O 0.92829 0.26362 0.8798 0.0
C146 C 0.93817 0.19169 0.86068 0.0
C147 C 1.03663 0.48703 1.00025 0.0
C148 C 0.78002 0.09411 0.99302 0.0
C149 C 0.12813 0.25988 0.99733 0.0
O150 O 1.06582 0.26469 0.02306 0.0
O151 O 0.10955 0.25539 0.95851 0.0
O152 O 1.00057 0.43671 0.03474 0.0
O153 O 1.01803 0.43285 0.96647 0.0
O154 O 0.78754 0.81245 0.29628 0.0
Cd155 Cd 0.79583 0.93916 0.26596 0.0
Cd156 Cd 0.70002 0.93691 0.33676 0.0
O157 O 0.67084 0.78399 0.34485 0.0
O158 O 0.87582 0.9434 0.21515 0.0
O159 O 0.70983 0.90573 0.21313 0.0
C160 C 0.79163 0.91561 0.19402 0.0
C161 C 0.59475 1.01406 0.33359 0.0
C162 C 0.73105 0.75745 0.32636 0.0
C163 C 0.9134 0.10556 0.33066 0.0
O164 O 0.84629 1.04326 0.35639 0.0
O165 O 0.89931 0.08698 0.29184 0.0
O166 O 0.60901 0.97801 0.36808 0.0
O167 O 0.63033 0.99547 0.2998 0.0
loop_
_geom_bond_atom_site_label_1
_geom_bond_atom_site_label_2
_geom_bond_distance
_geom_bond_site_symmetry_2
_ccdc_geom_bond_type
O0 Cd1 2.223 . S
O0 C8 1.315 . S
Cd1 O0 2.223 . S
Cd1 O4 2.297 . S
Cd1 O5 2.439 . S
Cd1 O11 2.240 . S
Cd2 O3 2.240 1_556 S
Cd2 O10 2.223 . S
Cd2 O12 2.297 . S
Cd2 O13 2.439 1_556 S
O3 Cd2 2.240 1_554 S
O3 C8 1.279 . S
O4 Cd1 2.297 . S
O4 C6 1.247 . S
O5 Cd1 2.439 . S
O5 C6 1.208 . S
C6 O4 1.247 . S
C6 O5 1.208 . S
C7 O12 1.247 1_554 S
C7 O13 1.208 . S
C8 O0 1.315 . S
C8 O3 1.279 . S
C9 O10 1.315 . S
C9 O11 1.279 1_556 S
O10 Cd2 2.223 . S
O10 C9 1.315 . S
O11 Cd1 2.240 . S
O11 C9 1.279 1_554 S
O12 Cd2 2.297 . S
O12 C7 1.247 1_556 S
O13 Cd2 2.439 1_554 S
O13 C7 1.208 . S
O14 Cd15 2.223 . S
O14 C22 1.315 . S
Cd15 O14 2.223 . S
Cd15 O18 2.297 . S
Cd15 O19 2.439 . S
Cd15 O25 2.240 1_455 S
Cd16 O17 2.240 . S
Cd16 O24 2.223 1_455 S
Cd16 O26 2.297 . S
Cd16 O27 2.439 . S
O17 Cd16 2.240 . S
O17 C22 1.279 . S
O18 Cd15 2.297 . S
O18 C20 1.247 . S
O19 Cd15 2.439 . S
O19 C20 1.208 . S
C20 O18 1.247 . S
C20 O19 1.208 . S
C21 O26 1.247 . S
C21 O27 1.208 . S
C22 O14 1.315 . S
C22 O17 1.279 . S
C23 O24 1.315 . S
C23 O25 1.279 . S
O24 Cd16 2.223 1_655 S
O24 C23 1.315 . S
O25 Cd15 2.240 1_655 S
O25 C23 1.279 . S
O26 Cd16 2.297 . S
O26 C21 1.247 . S
O27 Cd16 2.439 . S
O27 C21 1.208 . S
O28 Cd29 2.223 . S
O28 C36 1.315 . S
Cd29 O28 2.223 . S
Cd29 O32 2.297 . S
Cd29 O33 2.439 . S
Cd29 O39 2.240 1_545 S
Cd30 O31 2.240 . S
Cd30 O38 2.223 1_545 S
Cd30 O40 2.297 . S
Cd30 O41 2.439 . S
O31 Cd30 2.240 . S
O31 C36 1.279 . S
O32 Cd29 2.297 . S
O32 C34 1.247 . S
O33 Cd29 2.439 . S
O33 C34 1.208 . S
C34 O32 1.247 . S
C34 O33 1.208 . S
C35 O40 1.247 . S
C35 O41 1.208 . S
C36 O28 1.315 . S
C36 O31 1.279 . S
C37 O38 1.315 . S
C37 O39 1.279 . S
O38 Cd30 2.223 1_565 S
O38 C37 1.315 . S
O39 Cd29 2.240 1_565 S
O39 C37 1.279 . S
O40 Cd30 2.297 . S
O40 C35 1.247 . S
O41 Cd30 2.439 . S
O41 C35 1.208 . S
O42 Cd43 2.223 . S
O42 C50 1.315 . S
Cd43 O42 2.223 . S
Cd43 O46 2.297 . S
Cd43 O47 2.439 . S
Cd43 O53 2.240 . S
Cd44 O45 2.240 1_556 S
Cd44 O52 2.223 . S
Cd44 O54 2.297 . S
Cd44 O55 2.439 1_556 S
O45 Cd44 2.240 1_554 S
O45 C50 1.279 . S
O46 Cd43 2.297 . S
O46 C48 1.247 . S
O47 Cd43 2.439 . S
O47 C48 1.208 . S
C48 O46 1.247 . S
C48 O47 1.208 . S
C49 O54 1.247 1_554 S
C49 O55 1.208 . S
C50 O42 1.315 . S
C50 O45 1.279 . S
C51 O52 1.315 . S
C51 O53 1.279 1_556 S
O52 Cd44 2.223 . S
O52 C51 1.315 . S
O53 Cd43 2.240 . S
O53 C51 1.279 1_554 S
O54 Cd44 2.297 . S
O54 C49 1.247 1_556 S
O55 Cd44 2.439 1_554 S
O55 C49 1.208 . S
O56 Cd57 2.223 . S
O56 C64 1.315 . S
Cd57 O56 2.223 . S
Cd57 O60 2.297 . S
Cd57 O61 2.439 . S
Cd57 O67 2.240 1_655 S
Cd58 O59 2.240 . S
Cd58 O66 2.223 1_655 S
Cd58 O68 2.297 . S
Cd58 O69 2.439 . S
O59 Cd58 2.240 . S
O59 C64 1.279 . S
O60 Cd57 2.297 . S
O60 C62 1.247 . S
O61 Cd57 2.439 . S
O61 C62 1.208 . S
C62 O60 1.247 . S
C62 O61 1.208 . S
C63 O68 1.247 . S
C63 O69 1.208 . S
C64 O56 1.315 . S
C64 O59 1.279 . S
C65 O66 1.315 . S
C65 O67 1.279 . S
O66 Cd58 2.223 1_455 S
O66 C65 1.315 . S
O67 Cd57 2.240 1_455 S
O67 C65 1.279 . S
O68 Cd58 2.297 . S
O68 C63 1.247 . S
O69 Cd58 2.439 . S
O69 C63 1.208 . S
O70 Cd71 2.223 . S
O70 C78 1.315 . S
Cd71 O70 2.223 . S
Cd71 O74 2.297 . S
Cd71 O75 2.439 . S
Cd71 O81 2.240 1_565 S
Cd72 O73 2.240 . S
Cd72 O80 2.223 1_565 S
Cd72 O82 2.297 . S
Cd72 O83 2.439 . S
O73 Cd72 2.240 . S
O73 C78 1.279 . S
O74 Cd71 2.297 . S
O74 C76 1.247 . S
O75 Cd71 2.439 . S
O75 C76 1.208 . S
C76 O74 1.247 . S
C76 O75 1.208 . S
C77 O82 1.247 . S
C77 O83 1.208 . S
C78 O70 1.315 . S
C78 O73 1.279 . S
C79 O80 1.315 . S
C79 O81 1.279 . S
O80 Cd72 2.223 1_545 S
O80 C79 1.315 . S
O81 Cd71 2.240 1_545 S
O81 C79 1.279 . S
O82 Cd72 2.297 . S
O82 C77 1.247 . S
O83 Cd72 2.439 . S
O83 C77 1.208 . S
O84 Cd85 2.223 . S
O84 C92 1.315 . S
Cd85 O84 2.223 . S
Cd85 O88 2.297 . S
Cd85 O89 2.439 . S
Cd85 O95 2.240 . S
Cd86 O87 2.240 . S
Cd86 O94 2.223 . S
Cd86 O96 2.297 . S
Cd86 O97 2.439 . S
O87 Cd86 2.240 . S
O87 C92 1.279 . S
O88 Cd85 2.297 . S
O88 C90 1.247 . S
O89 Cd85 2.439 . S
O89 C90 1.208 . S
C90 O88 1.247 . S
C90 O89 1.208 . S
C91 O96 1.247 . S
C91 O97 1.208 . S
C92 O84 1.315 . S
C92 O87 1.279 . S
C93 O94 1.315 . S
C93 O95 1.279 . S
O94 Cd86 2.223 . S
O94 C93 1.315 . S
O95 Cd85 2.240 . S
O95 C93 1.279 . S
O96 Cd86 2.297 . S
O96 C91 1.247 . S
O97 Cd86 2.439 . S
O97 C91 1.208 . S
O98 Cd99 2.223 . S
O98 C106 1.315 . S
Cd99 O98 2.223 . S
Cd99 O102 2.297 . S
Cd99 O103 2.439 . S
Cd99 O109 2.240 1_455 S
Cd100 O101 2.240 1_554 S
Cd100 O108 2.223 1_455 S
Cd100 O110 2.297 . S
Cd100 O111 2.439 1_554 S
O101 Cd100 2.240 1_556 S
O101 C106 1.279 . S
O102 Cd99 2.297 . S
O102 C104 1.247 . S
O103 Cd99 2.439 . S
O103 C104 1.208 . S
C104 O102 1.247 . S
C104 O103 1.208 . S
C105 O110 1.247 1_556 S
C105 O111 1.208 . S
C106 O98 1.315 . S
C106 O101 1.279 . S
C107 O108 1.315 . S
C107 O109 1.279 1_554 S
O108 Cd100 2.223 1_655 S
O108 C107 1.315 . S
O109 Cd99 2.240 1_655 S
O109 C107 1.279 1_556 S
O110 Cd100 2.297 . S
O110 C105 1.247 1_554 S
O111 Cd100 2.439 1_556 S
O111 C105 1.208 . S
O112 Cd113 2.223 . S
O112 C120 1.315 . S
Cd113 O112 2.223 . S
Cd113 O116 2.297 . S
Cd113 O117 2.439 . S
Cd113 O123 2.240 1_545 S
Cd114 O115 2.240 . S
Cd114 O122 2.223 1_545 S
Cd114 O124 2.297 . S
Cd114 O125 2.439 . S
O115 Cd114 2.240 . S
O115 C120 1.279 . S
O116 Cd113 2.297 . S
O116 C118 1.247 . S
O117 Cd113 2.439 . S
O117 C118 1.208 . S
C118 O116 1.247 . S
C118 O117 1.208 . S
C119 O124 1.247 . S
C119 O125 1.208 . S
C120 O112 1.315 . S
C120 O115 1.279 . S
C121 O122 1.315 . S
C121 O123 1.279 . S
O122 Cd114 2.223 1_565 S
O122 C121 1.315 . S
O123 Cd113 2.240 1_565 S
O123 C121 1.279 . S
O124 Cd114 2.297 . S
O124 C119 1.247 . S
O125 Cd114 2.439 . S
O125 C119 1.208 . S
O126 Cd127 2.223 . S
O126 C134 1.315 . S
Cd127 O126 2.223 . S
Cd127 O130 2.297 . S
Cd127 O131 2.439 . S
Cd127 O137 2.240 . S
Cd128 O129 2.240 . S
Cd128 O136 2.223 . S
Cd128 O138 2.297 . S
Cd128 O139 2.439 . S
O129 Cd128 2.240 . S
O129 C134 1.279 . S
O130 Cd127 2.297 . S
O130 C132 1.247 . S
O131 Cd127 2.439 . S
O131 C132 1.208 . S
C132 O130 1.247 . S
C132 O131 1.208 . S
C133 O138 1.247 . S
C133 O139 1.208 . S
C134 O126 1.315 . S
C134 O129 1.279 . S
C135 O136 1.315 . S
C135 O137 1.279 . S
O136 Cd128 2.223 . S
O136 C135 1.315 . S
O137 Cd127 2.240 . S
O137 C135 1.279 . S
O138 Cd128 2.297 . S
O138 C133 1.247 . S
O139 Cd128 2.439 . S
O139 C133 1.208 . S
O140 Cd141 2.223 . S
O140 C148 1.315 . S
Cd141 O140 2.223 . S
Cd141 O144 2.297 . S
Cd141 O145 2.439 . S
Cd141 O151 2.240 1_655 S
Cd142 O143 2.240 1_554 S
Cd142 O150 2.223 1_655 S
Cd142 O152 2.297 . S
Cd142 O153 2.439 1_554 S
O143 Cd142 2.240 1_556 S
O143 C148 1.279 . S
O144 Cd141 2.297 . S
O144 C146 1.247 . S
O145 Cd141 2.439 . S
O145 C146 1.208 . S
C146 O144 1.247 . S
C146 O145 1.208 . S
C147 O152 1.247 1_556 S
C147 O153 1.208 . S
C148 O140 1.315 . S
C148 O143 1.279 . S
C149 O150 1.315 . S
C149 O151 1.279 1_554 S
O150 Cd142 2.223 1_455 S
O150 C149 1.315 . S
O151 Cd141 2.240 1_455 S
O151 C149 1.279 1_556 S
O152 Cd142 2.297 . S
O152 C147 1.247 1_554 S
O153 Cd142 2.439 1_556 S
O153 C147 1.208 . S
O154 Cd155 2.223 . S
O154 C162 1.315 . S
Cd155 O154 2.223 . S
Cd155 O158 2.297 . S
Cd155 O159 2.439 . S
Cd155 O165 2.240 1_565 S
Cd156 O157 2.240 . S
Cd156 O164 2.223 1_565 S
Cd156 O166 2.297 . S
Cd156 O167 2.439 . S
O157 Cd156 2.240 . S
O157 C162 1.279 . S
O158 Cd155 2.297 . S
O158 C160 1.247 . S
O159 Cd155 2.439 . S
O159 C160 1.208 . S
C160 O158 1.247 . S
C160 O159 1.208 . S
C161 O166 1.247 . S
C161 O167 1.208 . S
C162 O154 1.315 . S
C162 O157 1.279 . S
C163 O164 1.315 . S
C163 O165 1.279 . S
O164 Cd156 2.223 1_545 S
O164 C163 1.315 . S
O165 Cd155 2.240 1_545 S
O165 C163 1.279 . S
O166 Cd156 2.297 . S
O166 C161 1.247 . S
O167 Cd156 2.439 . S
O167 C161 1.208 . S
C49 C7 1.391 . S
C21 C63 1.390 1_455 S
C77 C35 1.390 1_565 S
C91 C133 1.390 . S
C147 C105 1.390 1_655 S
C119 C161 1.390 1_545 S
C118 C6 1.706 . S
C20 C132 1.706 . S
C34 C146 1.706 . S
C48 C160 1.706 . S
C90 C62 1.706 . S
C104 C76 1.706 . S
C106 C8 1.641 1_566 S
C22 C120 1.641 . S
C36 C134 1.641 1_655 S
C50 C148 1.641 1_564 S
C162 C64 1.641 . S
C78 C92 1.641 1_455 S
C149 C9 1.815 1_554 S
C163 C23 1.815 . S
C93 C37 1.815 . S
C51 C107 1.815 1_556 S
C65 C121 1.815 . S
C79 C135 1.815 . S
