# Generated by pormake.
# Topology bcu, (8)-cn, num edge types: 1
# Building blocks:
#     Node 0, Type 0, BuildingBlock: GIZVER_clean_sbu_0, # of connection points: 8
#     Node 1, Type 0, BuildingBlock: GIZVER_clean_sbu_0, # of connection points: 8
#     Edge 2, Type (0, 0), BuildingBlock: XIVTED_clean_linker_0, # of connection points: 2
#     Edge 3, Type (0, 0), BuildingBlock: XIVTED_clean_linker_0, # of connection points: 2
#     Edge 4, Type (0, 0), BuildingBlock: XIVTED_clean_linker_0, # of connection points: 2
#     Edge 5, Type (0, 0), BuildingBlock: XIVTED_clean_linker_0, # of connection points: 2
#     Edge 6, Type (0, 0), BuildingBlock: XIVTED_clean_linker_0, # of connection points: 2
#     Edge 7, Type (0, 0), BuildingBlock: XIVTED_clean_linker_0, # of connection points: 2
#     Edge 8, Type (0, 0), BuildingBlock: XIVTED_clean_linker_0, # of connection points: 2
#     Edge 9, Type (0, 0), BuildingBlock: XIVTED_clean_linker_0, # of connection points: 2
# Relax obj value: 0.004
# Max RMSD: 0.041
# Mean RMSD: 0.041
data_MOF--net-bcu--node1-GIZVER_clean_sbu_0--edge1-XIVTED_clean_linker_0
_symmetry_space_group_name_H-M    P1
_symmetry_Int_Tables_number       1
_symmetry_cell_setting            triclinic
loop_
_symmetry_equiv_pos_as_xyz
'x, y, z'
_cell_length_a     22.52341
_cell_length_b     24.814647
_cell_length_c     12.721333
_cell_angle_alpha  88.477967
_cell_angle_beta   92.583325
_cell_angle_gamma 109.24889
loop_
_atom_site_label
_atom_site_type_symbol
_atom_site_fract_x
_atom_site_fract_y
_atom_site_fract_z
_atom_type_partial_charge
Co0 Co 0.06793 0.92739 0.98012 0.0
Co1 Co 0.07426 0.96728 0.16865 0.0
Co2 Co 0.00394 0.0315 1.01163 0.0
O3 O 0.07495 1.0005 0.03582 0.0
H4 H 0.11549 1.02893 0.02443 0.0
O5 O 0.93283 0.06239 0.9875 0.0
Co6 Co 0.94027 0.13591 0.04148 0.0
Co7 Co 0.93349 0.09484 0.854 0.0
H8 H 0.8923 0.03409 0.99948 0.0
O9 O 0.14784 0.96264 0.23124 0.0
O10 O 0.07924 0.89846 0.1241 0.0
O11 O 0.99772 0.94711 0.24315 0.0
O12 O 0.94609 0.97718 0.1138 0.0
O13 O 0.04308 0.089 0.12294 0.0
O14 O 0.94186 0.2013 0.09345 0.0
O15 O 0.85753 0.12269 0.06635 0.0
O16 O 0.02766 0.15959 0.02881 0.0
O17 O 0.06172 0.08559 0.90937 0.0
O18 O 0.01 0.1149 0.77923 0.0
O19 O 0.92806 0.16376 0.89684 0.0
O20 O 0.8597 0.09841 0.79116 0.0
C21 C 0.12705 0.88909 0.92102 0.0
C22 C 0.94882 0.92129 0.92234 0.0
C23 C 0.94674 0.94855 0.19867 0.0
C24 C 0.13027 0.91371 0.1844 0.0
C25 C 0.88193 0.17507 0.10041 0.0
C26 C 0.05906 0.14204 0.09918 0.0
C27 C 0.06102 0.11378 0.82402 0.0
C28 C 0.87686 0.14763 0.83694 0.0
O29 O 0.06708 0.86249 0.92651 0.0
O30 O 0.15087 0.94118 0.95659 0.0
O31 O 0.96495 0.97442 0.89989 0.0
O32 O 0.98027 0.90311 0.99162 0.0
Co33 Co 0.5676 0.42633 0.48267 0.0
Co34 Co 0.57438 0.46738 0.67016 0.0
Co35 Co 0.50394 0.53073 0.51254 0.0
O36 O 0.57505 0.49984 0.53667 0.0
H37 H 0.61558 0.52815 0.52469 0.0
O38 O 0.43292 0.56173 0.48835 0.0
Co39 Co 0.43995 0.63485 0.54403 0.0
Co40 Co 0.43361 0.59494 0.3555 0.0
H41 H 0.39239 0.5333 0.49974 0.0
O42 O 0.64818 0.46382 0.733 0.0
O43 O 0.57982 0.39847 0.62731 0.0
O44 O 0.49787 0.44732 0.74492 0.0
O45 O 0.44616 0.47664 0.61479 0.0
O46 O 0.54293 0.58781 0.62427 0.0
O47 O 0.4408 0.69974 0.59763 0.0
O48 O 0.35701 0.62105 0.56756 0.0
O49 O 0.5276 0.65912 0.53254 0.0
O50 O 0.56178 0.58505 0.41037 0.0
O51 O 0.51015 0.61511 0.281 0.0
O52 O 0.42864 0.66377 0.40005 0.0
O53 O 0.36003 0.59958 0.29292 0.0
C54 C 0.62595 0.38717 0.42373 0.0
C55 C 0.44882 0.42019 0.42498 0.0
C56 C 0.44686 0.44844 0.70013 0.0
C57 C 0.63102 0.41459 0.68721 0.0
C58 C 0.38083 0.67315 0.60313 0.0
C59 C 0.55906 0.64094 0.60182 0.0
C60 C 0.56113 0.61367 0.32548 0.0
C61 C 0.37761 0.64852 0.33975 0.0
O62 O 0.56602 0.36093 0.4307 0.0
O63 O 0.65035 0.43954 0.4578 0.0
O64 O 0.4648 0.47323 0.40123 0.0
O65 O 0.48022 0.40265 0.49534 0.0
H66 H 0.11241 0.25466 0.04806 0.0
H67 H 0.39546 0.30757 0.4761 0.0
H68 H 0.13766 0.12283 0.25613 0.0
H69 H 0.37022 0.43941 0.26803 0.0
H70 H 0.30094 0.23957 0.39704 0.0
H71 H 0.20694 0.32266 0.12712 0.0
C72 C 0.13779 0.23997 0.1106 0.0
C73 C 0.1169 0.18295 0.146 0.0
C74 C 0.31604 0.28332 0.36851 0.0
C75 C 0.22531 0.26087 0.23694 0.0
C76 C 0.37009 0.32227 0.41357 0.0
C77 C 0.39097 0.37928 0.37817 0.0
C78 C 0.28256 0.30136 0.28723 0.0
C79 C 0.35589 0.39586 0.29752 0.0
C80 C 0.19184 0.27891 0.15566 0.0
C81 C 0.15198 0.16637 0.22665 0.0
N82 N 0.3034 0.35698 0.25455 0.0
N83 N 0.20448 0.20525 0.26961 0.0
H84 H 0.92166 0.28532 0.16575 0.0
H85 H 0.58622 0.27692 0.35839 0.0
H86 H 0.7547 0.13691 0.13815 0.0
H87 H 0.75318 0.42532 0.38599 0.0
H88 H 0.64721 0.22532 0.27901 0.0
H89 H 0.86067 0.33692 0.24513 0.0
C90 C 0.872 0.2634 0.17625 0.0
C91 C 0.84335 0.20632 0.14551 0.0
C92 C 0.67067 0.26912 0.30231 0.0
C93 C 0.77298 0.26587 0.23719 0.0
C94 C 0.63588 0.29884 0.34789 0.0
C95 C 0.66453 0.35591 0.37863 0.0
C96 C 0.7349 0.29637 0.28695 0.0
C97 C 0.72908 0.38155 0.3633 0.0
C98 C 0.83721 0.29312 0.22183 0.0
C99 C 0.7788 0.18068 0.16084 0.0
N100 N 0.76208 0.35161 0.31828 0.0
N101 N 0.7458 0.21063 0.20586 0.0
H102 H 0.92684 0.87399 0.36752 0.0
H103 H 0.58104 0.68823 0.15664 0.0
H104 H 0.83063 0.92171 0.09793 0.0
H105 H 0.67725 0.64052 0.42624 0.0
H106 H 0.67336 0.77251 0.13075 0.0
H107 H 0.83452 0.78971 0.39341 0.0
C108 C 0.88596 0.86747 0.31494 0.0
C109 C 0.88687 0.90522 0.23023 0.0
C110 C 0.67444 0.74332 0.19504 0.0
C111 C 0.78141 0.80768 0.25789 0.0
C112 C 0.62192 0.69475 0.20922 0.0
C113 C 0.621 0.65701 0.29394 0.0
C114 C 0.72647 0.75454 0.26628 0.0
C115 C 0.67554 0.66812 0.35963 0.0
C116 C 0.83344 0.8189 0.32912 0.0
C117 C 0.83233 0.89411 0.16454 0.0
N118 N 0.72569 0.71606 0.345 0.0
N119 N 0.78218 0.84616 0.17917 0.0
H120 H 0.10534 0.80551 0.10885 0.0
H121 H 0.40255 0.75672 0.41529 0.0
H122 H 0.23772 0.93174 0.30719 0.0
H123 H 0.27016 0.63048 0.21697 0.0
H124 H 0.34232 0.82125 0.37769 0.0
H125 H 0.16556 0.74098 0.14645 0.0
C126 C 0.14709 0.81975 0.16014 0.0
C127 C 0.16644 0.87418 0.2049 0.0
C128 C 0.32648 0.77943 0.34235 0.0
C129 C 0.23532 0.80027 0.24914 0.0
C130 C 0.3608 0.74248 0.36401 0.0
C131 C 0.34144 0.68805 0.31925 0.0
C132 C 0.27256 0.76196 0.275 0.0
C133 C 0.28698 0.67206 0.25314 0.0
C134 C 0.1814 0.7828 0.1818 0.0
C135 C 0.2209 0.89017 0.27101 0.0
N136 N 0.25456 0.70886 0.23291 0.0
N137 N 0.25332 0.85337 0.29124 0.0
H138 H 0.25535 0.92708 0.89413 0.0
H139 H 0.25253 0.63516 0.63001 0.0
H140 H 0.08812 0.78072 0.84594 0.0
H141 H 0.41976 0.78152 0.6782 0.0
H142 H 0.19099 0.68799 0.70835 0.0
H143 H 0.31689 0.87424 0.81579 0.0
C144 C 0.23161 0.88398 0.86722 0.0
C145 C 0.16647 0.85855 0.87625 0.0
C146 C 0.24122 0.70845 0.7017 0.0
C147 C 0.2363 0.7978 0.78654 0.0
C148 C 0.27627 0.67826 0.65692 0.0
C149 C 0.34141 0.70369 0.64789 0.0
C150 C 0.27158 0.76444 0.73759 0.0
C151 C 0.36968 0.75989 0.6838 0.0
C152 C 0.26666 0.85379 0.82244 0.0
C153 C 0.1382 0.80234 0.84034 0.0
N154 N 0.33471 0.78821 0.72705 0.0
N155 N 0.17316 0.77402 0.79709 0.0
H156 H 0.42724 0.37287 0.86742 0.0
H157 H 0.08064 0.18935 0.65674 0.0
H158 H 0.33047 0.42273 0.60088 0.0
H159 H 0.1774 0.1395 0.92329 0.0
H160 H 0.17308 0.27362 0.63174 0.0
H161 H 0.33479 0.2886 0.89242 0.0
C162 C 0.38623 0.36683 0.81537 0.0
C163 C 0.38702 0.40514 0.73169 0.0
C164 C 0.17424 0.24396 0.69516 0.0
C165 C 0.28143 0.30765 0.75826 0.0
C166 C 0.12165 0.19539 0.70879 0.0
C167 C 0.12086 0.15708 0.79247 0.0
C168 C 0.22644 0.25457 0.76591 0.0
C169 C 0.17558 0.16758 0.85754 0.0
C170 C 0.33363 0.31826 0.829 0.0
C171 C 0.3323 0.39464 0.66663 0.0
N172 N 0.22579 0.21553 0.84348 0.0
N173 N 0.28209 0.3467 0.68068 0.0
H174 H 0.76799 0.12695 0.7171 0.0
H175 H 0.73989 0.43528 0.80706 0.0
H176 H 0.90131 0.25678 0.90762 0.0
H177 H 0.60657 0.30545 0.61652 0.0
H178 H 0.79959 0.37055 0.84442 0.0
H179 H 0.70829 0.19168 0.67973 0.0
C180 C 0.78475 0.16906 0.75128 0.0
C181 C 0.83989 0.18644 0.81559 0.0
C182 C 0.75733 0.3562 0.79433 0.0
C183 C 0.77148 0.26087 0.773 0.0
C184 C 0.72313 0.39317 0.77287 0.0
C185 C 0.66799 0.37579 0.70856 0.0
C186 C 0.73641 0.30136 0.75115 0.0
C187 C 0.64878 0.32073 0.6664 0.0
C188 C 0.75055 0.20603 0.72982 0.0
C189 C 0.8591 0.2415 0.85774 0.0
N190 N 0.68295 0.28548 0.68849 0.0
N191 N 0.82494 0.27675 0.83565 0.0
H192 H 0.63775 0.61939 0.75574 0.0
H193 H 0.87012 0.94284 0.76843 0.0
H194 H 0.61243 0.75428 0.55596 0.0
H195 H 0.89544 0.80795 0.96821 0.0
H196 H 0.77513 0.8743 0.68972 0.0
H197 H 0.73274 0.68794 0.83445 0.0
C198 C 0.65217 0.66336 0.7284 0.0
C199 C 0.617 0.6812 0.64956 0.0
C200 C 0.80152 0.85975 0.75081 0.0
C201 C 0.72547 0.75973 0.73898 0.0
C202 C 0.8557 0.89887 0.79577 0.0
C203 C 0.89087 0.88103 0.87461 0.0
C204 C 0.7824 0.8025 0.78519 0.0
C205 C 0.86995 0.82355 0.90721 0.0
C206 C 0.70636 0.70248 0.77336 0.0
C207 C 0.63792 0.73868 0.61696 0.0
N208 N 0.8171 0.78634 0.86231 0.0
N209 N 0.69078 0.77589 0.66186 0.0
loop_
_geom_bond_atom_site_label_1
_geom_bond_atom_site_label_2
_geom_bond_distance
_geom_bond_site_symmetry_2
_ccdc_geom_bond_type
Co0 O3 2.042 1_556 S
Co0 O10 2.264 1_556 S
Co0 O29 2.286 . S
Co0 O30 2.069 . S
Co0 O32 2.015 1_455 S
Co1 O3 2.122 . S
Co1 O9 2.073 . S
Co1 O10 2.327 . S
Co1 O11 1.976 1_455 S
Co2 O3 2.087 1_545 S
Co2 O5 2.087 1_454 S
Co2 O12 2.111 1_445 S
Co2 O13 2.143 . S
Co2 O17 2.111 1_554 S
Co2 O31 2.143 1_444 S
O3 Co0 2.042 1_554 S
O3 Co1 2.122 . S
O3 Co2 2.087 1_565 S
O3 H4 0.980 . S
H4 O3 0.980 . S
O5 Co2 2.087 1_656 S
O5 Co6 2.042 1_556 S
O5 Co7 2.122 . S
O5 H8 0.980 . S
Co6 O5 2.042 1_554 S
Co6 O14 2.286 . S
Co6 O15 2.069 . S
Co6 O16 2.015 1_655 S
Co6 O19 2.264 1_554 S
Co7 O5 2.122 . S
Co7 O18 1.976 1_655 S
Co7 O19 2.327 . S
Co7 O20 2.073 . S
H8 O5 0.980 . S
O9 Co1 2.073 . S
O9 C24 1.245 . S
O10 Co0 2.264 1_554 S
O10 Co1 2.327 . S
O10 C24 1.257 . S
O11 Co1 1.976 1_655 S
O11 C23 1.251 . S
O12 Co2 2.111 1_665 S
O12 C23 1.274 . S
O13 Co2 2.143 . S
O13 C26 1.246 . S
O14 Co6 2.286 . S
O14 C25 1.259 . S
O15 Co6 2.069 . S
O15 C25 1.289 . S
O16 Co6 2.015 1_455 S
O16 C26 1.257 . S
O17 Co2 2.111 1_556 S
O17 C27 1.274 . S
O18 Co7 1.976 1_455 S
O18 C27 1.251 . S
O19 Co6 2.264 1_556 S
O19 Co7 2.327 . S
O19 C28 1.257 . S
O20 Co7 2.073 . S
O20 C28 1.245 . S
C21 O29 1.259 . S
C21 O30 1.289 . S
C22 O31 1.246 . S
C22 O32 1.257 . S
C23 O11 1.251 . S
C23 O12 1.274 . S
C24 O9 1.245 . S
C24 O10 1.257 . S
C25 O14 1.259 . S
C25 O15 1.289 . S
C26 O13 1.246 . S
C26 O16 1.257 . S
C27 O17 1.274 . S
C27 O18 1.251 . S
C28 O19 1.257 . S
C28 O20 1.245 . S
O29 Co0 2.286 . S
O29 C21 1.259 . S
O30 Co0 2.069 . S
O30 C21 1.289 . S
O31 Co2 2.143 1_666 S
O31 C22 1.246 . S
O32 Co0 2.015 1_655 S
O32 C22 1.257 . S
Co33 O36 2.042 . S
Co33 O43 2.264 . S
Co33 O62 2.286 . S
Co33 O63 2.069 . S
Co33 O65 2.015 . S
Co34 O36 2.122 . S
Co34 O42 2.073 . S
Co34 O43 2.327 . S
Co34 O44 1.976 . S
Co35 O36 2.087 . S
Co35 O38 2.087 . S
Co35 O45 2.111 . S
Co35 O46 2.143 . S
Co35 O50 2.111 . S
Co35 O64 2.143 . S
O36 Co33 2.042 . S
O36 Co34 2.122 . S
O36 Co35 2.087 . S
O36 H37 0.980 . S
H37 O36 0.980 . S
O38 Co35 2.087 . S
O38 Co39 2.042 . S
O38 Co40 2.122 . S
O38 H41 0.980 . S
Co39 O38 2.042 . S
Co39 O47 2.286 . S
Co39 O48 2.069 . S
Co39 O49 2.015 . S
Co39 O52 2.264 . S
Co40 O38 2.122 . S
Co40 O51 1.976 . S
Co40 O52 2.327 . S
Co40 O53 2.073 . S
H41 O38 0.980 . S
O42 Co34 2.073 . S
O42 C57 1.245 . S
O43 Co33 2.264 . S
O43 Co34 2.327 . S
O43 C57 1.257 . S
O44 Co34 1.976 . S
O44 C56 1.251 . S
O45 Co35 2.111 . S
O45 C56 1.274 . S
O46 Co35 2.143 . S
O46 C59 1.246 . S
O47 Co39 2.286 . S
O47 C58 1.259 . S
O48 Co39 2.069 . S
O48 C58 1.289 . S
O49 Co39 2.015 . S
O49 C59 1.257 . S
O50 Co35 2.111 . S
O50 C60 1.274 . S
O51 Co40 1.976 . S
O51 C60 1.251 . S
O52 Co39 2.264 . S
O52 Co40 2.327 . S
O52 C61 1.257 . S
O53 Co40 2.073 . S
O53 C61 1.245 . S
C54 O62 1.259 . S
C54 O63 1.289 . S
C55 O64 1.246 . S
C55 O65 1.257 . S
C56 O44 1.251 . S
C56 O45 1.274 . S
C57 O42 1.245 . S
C57 O43 1.257 . S
C58 O47 1.259 . S
C58 O48 1.289 . S
C59 O46 1.246 . S
C59 O49 1.257 . S
C60 O50 1.274 . S
C60 O51 1.251 . S
C61 O52 1.257 . S
C61 O53 1.245 . S
O62 Co33 2.286 . S
O62 C54 1.259 . S
O63 Co33 2.069 . S
O63 C54 1.289 . S
O64 Co35 2.143 . S
O64 C55 1.246 . S
O65 Co33 2.015 . S
O65 C55 1.257 . S
H66 C72 0.930 . S
H67 C76 0.930 . S
H68 C81 0.929 . S
H69 C79 0.929 . S
H70 C74 0.929 . S
H71 C80 0.929 . S
C72 H66 0.930 . S
C72 C73 1.367 . S
C72 C80 1.378 . S
C73 C72 1.367 . S
C73 C81 1.433 . S
C74 H70 0.929 . S
C74 C76 1.378 . S
C74 C78 1.350 . S
C75 C78 1.463 . S
C75 C80 1.350 . S
C75 N83 1.427 . S
C76 H67 0.930 . S
C76 C74 1.378 . S
C76 C77 1.367 . S
C77 C76 1.367 . S
C77 C79 1.433 . S
C78 C74 1.350 . S
C78 C75 1.463 . S
C78 N82 1.427 . S
C79 H69 0.929 . S
C79 C77 1.433 . S
C79 N82 1.384 . S
C80 H71 0.929 . S
C80 C72 1.378 . S
C80 C75 1.350 . S
C81 H68 0.929 . S
C81 C73 1.433 . S
C81 N83 1.384 . S
N82 C78 1.427 . S
N82 C79 1.384 . S
N83 C75 1.427 . S
N83 C81 1.384 . S
H84 C90 0.930 . S
H85 C94 0.930 . S
H86 C99 0.929 . S
H87 C97 0.929 . S
H88 C92 0.929 . S
H89 C98 0.929 . S
C90 H84 0.930 . S
C90 C91 1.367 . S
C90 C98 1.378 . S
C91 C90 1.367 . S
C91 C99 1.433 . S
C92 H88 0.929 . S
C92 C94 1.378 . S
C92 C96 1.350 . S
C93 C96 1.463 . S
C93 C98 1.350 . S
C93 N101 1.427 . S
C94 H85 0.930 . S
C94 C92 1.378 . S
C94 C95 1.367 . S
C95 C94 1.367 . S
C95 C97 1.433 . S
C96 C92 1.350 . S
C96 C93 1.463 . S
C96 N100 1.427 . S
C97 H87 0.929 . S
C97 C95 1.433 . S
C97 N100 1.384 . S
C98 H89 0.929 . S
C98 C90 1.378 . S
C98 C93 1.350 . S
C99 H86 0.929 . S
C99 C91 1.433 . S
C99 N101 1.384 . S
N100 C96 1.427 . S
N100 C97 1.384 . S
N101 C93 1.427 . S
N101 C99 1.384 . S
H102 C108 0.930 . S
H103 C112 0.930 . S
H104 C117 0.929 . S
H105 C115 0.929 . S
H106 C110 0.929 . S
H107 C116 0.929 . S
C108 H102 0.930 . S
C108 C109 1.367 . S
C108 C116 1.378 . S
C109 C108 1.367 . S
C109 C117 1.433 . S
C110 H106 0.929 . S
C110 C112 1.378 . S
C110 C114 1.350 . S
C111 C114 1.463 . S
C111 C116 1.350 . S
C111 N119 1.427 . S
C112 H103 0.930 . S
C112 C110 1.378 . S
C112 C113 1.367 . S
C113 C112 1.367 . S
C113 C115 1.433 . S
C114 C110 1.350 . S
C114 C111 1.463 . S
C114 N118 1.427 . S
C115 H105 0.929 . S
C115 C113 1.433 . S
C115 N118 1.384 . S
C116 H107 0.929 . S
C116 C108 1.378 . S
C116 C111 1.350 . S
C117 H104 0.929 . S
C117 C109 1.433 . S
C117 N119 1.384 . S
N118 C114 1.427 . S
N118 C115 1.384 . S
N119 C111 1.427 . S
N119 C117 1.384 . S
H120 C126 0.930 . S
H121 C130 0.930 . S
H122 C135 0.929 . S
H123 C133 0.929 . S
H124 C128 0.929 . S
H125 C134 0.929 . S
C126 H120 0.930 . S
C126 C127 1.367 . S
C126 C134 1.378 . S
C127 C126 1.367 . S
C127 C135 1.433 . S
C128 H124 0.929 . S
C128 C130 1.378 . S
C128 C132 1.350 . S
C129 C132 1.463 . S
C129 C134 1.350 . S
C129 N137 1.427 . S
C130 H121 0.930 . S
C130 C128 1.378 . S
C130 C131 1.367 . S
C131 C130 1.367 . S
C131 C133 1.433 . S
C132 C128 1.350 . S
C132 C129 1.463 . S
C132 N136 1.427 . S
C133 H123 0.929 . S
C133 C131 1.433 . S
C133 N136 1.384 . S
C134 H125 0.929 . S
C134 C126 1.378 . S
C134 C129 1.350 . S
C135 H122 0.929 . S
C135 C127 1.433 . S
C135 N137 1.384 . S
N136 C132 1.427 . S
N136 C133 1.384 . S
N137 C129 1.427 . S
N137 C135 1.384 . S
H138 C144 0.930 . S
H139 C148 0.930 . S
H140 C153 0.929 . S
H141 C151 0.929 . S
H142 C146 0.929 . S
H143 C152 0.929 . S
C144 H138 0.930 . S
C144 C145 1.367 . S
C144 C152 1.378 . S
C145 C144 1.367 . S
C145 C153 1.433 . S
C146 H142 0.929 . S
C146 C148 1.378 . S
C146 C150 1.350 . S
C147 C150 1.463 . S
C147 C152 1.350 . S
C147 N155 1.427 . S
C148 H139 0.930 . S
C148 C146 1.378 . S
C148 C149 1.367 . S
C149 C148 1.367 . S
C149 C151 1.433 . S
C150 C146 1.350 . S
C150 C147 1.463 . S
C150 N154 1.427 . S
C151 H141 0.929 . S
C151 C149 1.433 . S
C151 N154 1.384 . S
C152 H143 0.929 . S
C152 C144 1.378 . S
C152 C147 1.350 . S
C153 H140 0.929 . S
C153 C145 1.433 . S
C153 N155 1.384 . S
N154 C150 1.427 . S
N154 C151 1.384 . S
N155 C147 1.427 . S
N155 C153 1.384 . S
H156 C162 0.930 . S
H157 C166 0.930 . S
H158 C171 0.929 . S
H159 C169 0.929 . S
H160 C164 0.929 . S
H161 C170 0.929 . S
C162 H156 0.930 . S
C162 C163 1.367 . S
C162 C170 1.378 . S
C163 C162 1.367 . S
C163 C171 1.433 . S
C164 H160 0.929 . S
C164 C166 1.378 . S
C164 C168 1.350 . S
C165 C168 1.463 . S
C165 C170 1.350 . S
C165 N173 1.427 . S
C166 H157 0.930 . S
C166 C164 1.378 . S
C166 C167 1.367 . S
C167 C166 1.367 . S
C167 C169 1.433 . S
C168 C164 1.350 . S
C168 C165 1.463 . S
C168 N172 1.427 . S
C169 H159 0.929 . S
C169 C167 1.433 . S
C169 N172 1.384 . S
C170 H161 0.929 . S
C170 C162 1.378 . S
C170 C165 1.350 . S
C171 H158 0.929 . S
C171 C163 1.433 . S
C171 N173 1.384 . S
N172 C168 1.427 . S
N172 C169 1.384 . S
N173 C165 1.427 . S
N173 C171 1.384 . S
H174 C180 0.930 . S
H175 C184 0.930 . S
H176 C189 0.929 . S
H177 C187 0.929 . S
H178 C182 0.929 . S
H179 C188 0.929 . S
C180 H174 0.930 . S
C180 C181 1.367 . S
C180 C188 1.378 . S
C181 C180 1.367 . S
C181 C189 1.433 . S
C182 H178 0.929 . S
C182 C184 1.378 . S
C182 C186 1.350 . S
C183 C186 1.463 . S
C183 C188 1.350 . S
C183 N191 1.427 . S
C184 H175 0.930 . S
C184 C182 1.378 . S
C184 C185 1.367 . S
C185 C184 1.367 . S
C185 C187 1.433 . S
C186 C182 1.350 . S
C186 C183 1.463 . S
C186 N190 1.427 . S
C187 H177 0.929 . S
C187 C185 1.433 . S
C187 N190 1.384 . S
C188 H179 0.929 . S
C188 C180 1.378 . S
C188 C183 1.350 . S
C189 H176 0.929 . S
C189 C181 1.433 . S
C189 N191 1.384 . S
N190 C186 1.427 . S
N190 C187 1.384 . S
N191 C183 1.427 . S
N191 C189 1.384 . S
H192 C198 0.930 . S
H193 C202 0.930 . S
H194 C207 0.929 . S
H195 C205 0.929 . S
H196 C200 0.929 . S
H197 C206 0.929 . S
C198 H192 0.930 . S
C198 C199 1.367 . S
C198 C206 1.378 . S
C199 C198 1.367 . S
C199 C207 1.433 . S
C200 H196 0.929 . S
C200 C202 1.378 . S
C200 C204 1.350 . S
C201 C204 1.463 . S
C201 C206 1.350 . S
C201 N209 1.427 . S
C202 H193 0.930 . S
C202 C200 1.378 . S
C202 C203 1.367 . S
C203 C202 1.367 . S
C203 C205 1.433 . S
C204 C200 1.350 . S
C204 C201 1.463 . S
C204 N208 1.427 . S
C205 H195 0.929 . S
C205 C203 1.433 . S
C205 N208 1.384 . S
C206 H197 0.929 . S
C206 C198 1.378 . S
C206 C201 1.350 . S
C207 H194 0.929 . S
C207 C199 1.433 . S
C207 N209 1.384 . S
N208 C204 1.427 . S
N208 C205 1.384 . S
N209 C201 1.427 . S
N209 C207 1.384 . S
C73 C26 1.332 . S
C77 C55 1.329 . S
C91 C25 1.703 . S
C95 C54 1.702 . S
C109 C23 1.287 . S
C113 C60 1.289 . S
C127 C24 1.388 . S
C131 C61 1.388 . S
C145 C21 1.706 . S
C149 C58 1.707 . S
C163 C56 1.285 . S
C167 C27 1.283 . S
C181 C28 1.392 . S
C185 C57 1.392 . S
C199 C59 1.341 . S
C203 C22 1.344 . S
