# Generated by pormake.
# Topology pcu, (6)-cn, num edge types: 1
# Building blocks:
#     Node 0, Type 0, BuildingBlock: KUMJIN_clean_sbu_1, # of connection points: 6
#     Edge 1, Type (0, 0), BuildingBlock: XIVTED_clean_linker_0, # of connection points: 2
#     Edge 2, Type (0, 0), BuildingBlock: XIVTED_clean_linker_0, # of connection points: 2
#     Edge 3, Type (0, 0), BuildingBlock: XIVTED_clean_linker_0, # of connection points: 2
# Relax obj value: 0.000
# Max RMSD: 0.000
# Mean RMSD: 0.000
data_MOF--net-pcu--node1-KUMJIN_clean_sbu_1--edge1-XIVTED_clean_linker_0
_symmetry_space_group_name_H-M    P1
_symmetry_Int_Tables_number       1
_symmetry_cell_setting            triclinic
loop_
_symmetry_equiv_pos_as_xyz
'x, y, z'
_cell_length_a     15.062882
_cell_length_b     24.440763
_cell_length_c     15.160773
_cell_angle_alpha  114.81509
_cell_angle_beta   89.019265
_cell_length_gamma 115.44787
loop_
_atom_site_label
_atom_site_type_symbol
_atom_site_fract_x
_atom_site_fract_y
_atom_site_fract_z
_atom_type_partial_charge
Eu0 Eu 0.94894 0.91308 0.92032 0.0
C1 C 0.31934 0.19815 0.15842 0.0
N2 N 0.23028 0.17204 0.18594 0.0
C3 C 0.31589 0.20857 0.3474 0.0
C4 C 0.41086 0.22956 0.22464 0.0
C5 C 0.22705 0.17746 0.27906 0.0
C6 C 0.40822 0.23453 0.32002 0.0
C7 C 0.41011 0.2174 0.03187 0.0
C8 C 0.31862 0.19127 0.06248 0.0
C9 C 0.50139 0.24814 0.09736 0.0
C10 C 0.50177 0.25419 0.19341 0.0
Eu11 Eu 0.0842 0.12012 0.06622 0.0
N12 N 0.22894 0.16037 -6e-05 0.0
C13 C 0.40728 0.21315 0.93697 0.0
C14 C 0.22646 0.16148 0.91078 0.0
C15 C 0.31508 0.18618 0.87691 0.0
H16 H 0.15584 0.15828 0.30076 0.0
H17 H 0.31225 0.18567 0.80526 0.0
H18 H 0.87736 0.87492 0.68576 0.0
H19 H 0.72082 0.84758 0.18125 0.0
H20 H 0.1571 0.14586 0.86661 0.0
H21 H 0.47585 0.23271 0.91077 0.0
H22 H 0.87599 0.88737 0.11994 0.0
H23 H 0.31311 0.21257 0.42115 0.0
H24 H 0.57223 0.26806 0.07474 0.0
H25 H 0.57283 0.27819 0.24309 0.0
H26 H 0.72012 0.82063 0.56534 0.0
H27 H 0.47693 0.2583 0.373 0.0
H28 H 0.55724 0.80052 0.0757 0.0
N29 N 0.80289 0.86116 0.80056 0.0
C30 C 0.71382 0.83504 0.82806 0.0
C31 C 0.71732 0.82463 0.63908 0.0
C32 C 0.6223 0.80364 0.76182 0.0
C33 C 0.80614 0.85574 0.70745 0.0
C34 C 0.62498 0.79867 0.66645 0.0
N35 N 0.80417 0.87281 0.98654 0.0
C36 C 0.80664 0.87174 0.07573 0.0
C37 C 0.62301 0.81581 0.95459 0.0
C38 C 0.71451 0.84192 0.92399 0.0
C39 C 0.62582 0.82007 0.04951 0.0
C40 C 0.71801 0.84705 0.10959 0.0
H41 H 0.55627 0.7749 0.61345 0.0
H42 H 0.46034 0.75502 0.74334 0.0
H43 H 0.46089 0.76515 0.9117 0.0
O44 O 0.97058 0.83519 0.94234 0.0
O45 O 0.85848 0.96719 0.91784 0.0
O46 O 0.92178 0.06077 0.07013 0.0
O47 O 0.93832 0.8229 0.79342 0.0
O48 O 0.01805 0.9653 0.08529 0.0
O49 O 1.00193 0.0641 0.15266 0.0
O50 O 0.06257 0.19802 0.04421 0.0
O51 O 0.17466 0.06602 0.06871 0.0
O52 O 0.11137 0.97244 0.91641 0.0
O53 O 0.09485 0.21031 0.19312 0.0
O54 O 1.01508 0.0679 0.90125 0.0
O55 O 0.03122 0.9691 0.83388 0.0
C56 C 0.84865 1.01517 0.99315 0.0
C57 C 0.95981 0.73205 0.80137 0.0
C58 C 0.97944 0.64064 0.81333 0.0
C59 C 0.96868 0.6084 0.70959 0.0
C60 C 0.94955 0.69848 0.69792 0.0
C61 C 0.95392 0.63718 0.65264 0.0
C62 C 0.97446 0.70271 0.85897 0.0
C63 C 1.01281 1.01582 0.16134 0.0
C64 C 0.95624 0.79772 0.84716 0.0
C65 C 0.53138 0.77901 0.79304 0.0
C66 C 0.53174 0.78507 0.88909 0.0
C67 C 0.18449 0.01803 -0.0066 0.0
C68 C 0.07337 0.30116 0.18519 0.0
C69 C 0.05375 0.39258 0.17324 0.0
C70 C 0.06451 0.42482 0.27698 0.0
C71 C 0.08363 0.33474 0.28864 0.0
C72 C 0.05872 0.33051 0.1276 0.0
C73 C 0.07927 0.39604 0.33392 0.0
C74 C 0.02034 0.01739 0.82521 0.0
C75 C 0.07693 0.23549 0.1394 0.0
H76 H 0.97019 0.56018 0.67198 0.0
H77 H 0.93831 0.71963 0.65159 0.0
H78 H 0.94559 0.61173 0.57287 0.0
H79 H 0.98322 0.72842 0.93884 0.0
H80 H 0.06301 0.47304 0.3146 0.0
H81 H 0.09488 0.31358 0.33497 0.0
H82 H 0.04995 0.30479 0.04773 0.0
H83 H 0.08761 0.42149 0.4137 0.0
H84 H 0.95883 0.09085 0.32347 0.0
H85 H 0.07435 0.94238 0.66309 0.0
H86 H 0.07008 0.94325 0.22375 0.0
H87 H 0.96303 0.08993 0.76278 0.0
H88 H 0.07273 0.94176 0.50177 0.0
H89 H 0.96045 0.09146 0.48479 0.0
C90 C 0.98387 0.05864 0.33549 0.0
C91 C 1.01437 0.01688 0.25977 0.0
C92 C 0.04862 0.97429 0.55884 0.0
C93 C 1.01594 0.01716 0.44468 0.0
C94 C 0.0493 0.97458 0.65106 0.0
C95 C 0.01878 1.01632 0.72677 0.0
C96 C 0.01721 1.01604 0.54186 0.0
C97 C 0.98754 0.05714 0.70678 0.0
C98 C 0.98454 0.05893 0.42771 0.0
C99 C 0.04559 0.97605 0.27975 0.0
N100 N 0.98761 0.05599 0.61632 0.0
N101 N 0.04551 0.9772 0.37021 0.0
H102 H 0.25031 0.95114 0.83444 0.0
H103 H 0.78283 0.08205 0.15211 0.0
H104 H 0.34005 0.08182 0.15023 0.0
H105 H 0.69309 0.95138 0.83632 0.0
H106 H 0.62147 0.08305 0.15274 0.0
H107 H 0.41166 0.95013 0.83382 0.0
C108 C 0.30404 0.97976 0.90373 0.0
C109 C 0.28205 0.01724 0.99247 0.0
C110 C 0.63683 0.05392 0.08331 0.0
C111 C 0.46716 1.01635 0.9922 0.0
C112 C 0.7291 0.05343 0.08282 0.0
C113 C 0.75109 1.01596 -0.00592 0.0
C114 C 0.56597 0.01684 -0.00564 0.0
C115 C 0.67855 0.97985 0.90668 0.0
C116 C 0.3963 0.97927 0.90324 0.0
C117 C 0.35458 0.05335 0.07987 0.0
N118 N 0.58922 0.98115 0.90901 0.0
N119 N 0.44392 0.05205 0.07754 0.0
H120 H 0.89331 0.62783 0.96978 0.0
H121 H 0.13987 0.40539 0.01679 0.0
H122 H 0.09882 0.57863 0.78994 0.0
H123 H 0.93437 0.4546 0.19665 0.0
H124 H 0.12372 0.46701 0.93081 0.0
H125 H 0.90946 0.56621 0.05576 0.0
C126 C 0.94261 0.60471 0.94903 0.0
C127 C 0.99425 0.60815 0.87202 0.0
C128 C 0.08201 0.46422 0.989 0.0
C129 C 1.01206 0.53656 0.96919 0.0
C130 C 0.09057 0.42851 0.03754 0.0
C131 C 0.03894 0.42507 0.11456 0.0
C132 C 0.02113 0.49666 0.01738 0.0
C133 C 0.97697 0.45681 0.1389 0.0
C134 C 0.95118 0.569 -0.00242 0.0
C135 C 0.05622 0.57642 0.84768 0.0
N136 N 0.97005 0.49131 0.0908 0.0
N137 N 0.06314 0.54191 0.89578 0.0
loop_
_geom_bond_atom_site_label_1
_geom_bond_atom_site_label_2
_geom_bond_distance
_geom_bond_site_symmetry_2
_ccdc_geom_bond_type
Eu0 N29 2.600 . S
Eu0 N35 2.562 . S
Eu0 O44 2.462 . S
Eu0 O45 2.373 . S
Eu0 O47 2.432 . S
Eu0 O48 2.291 1_556 S
Eu0 O52 2.335 1_655 S
Eu0 O55 2.372 . S
Eu0 C64 2.787 . S
C1 N2 1.365 . S
C1 C4 1.405 . S
C1 C8 1.448 . S
N2 C1 1.365 . S
N2 C5 1.319 . S
N2 Eu11 2.600 . S
C3 C5 1.397 . S
C3 C6 1.367 . S
C3 H23 0.931 . S
C4 C1 1.405 . S
C4 C6 1.403 . S
C4 C10 1.439 . S
C5 N2 1.319 . S
C5 C3 1.397 . S
C5 H16 0.930 . S
C6 C3 1.367 . S
C6 C4 1.403 . S
C6 H27 0.929 . S
C7 C8 1.430 . S
C7 C9 1.387 . S
C7 C13 1.404 . S
C8 C1 1.448 . S
C8 C7 1.430 . S
C8 N12 1.351 . S
C9 C7 1.387 . S
C9 C10 1.374 . S
C9 H24 0.931 . S
C10 C4 1.439 . S
C10 C9 1.374 . S
C10 H25 0.931 . S
Eu11 N2 2.600 . S
Eu11 N12 2.562 . S
Eu11 O46 2.335 1_455 S
Eu11 O49 2.372 . S
Eu11 O50 2.462 . S
Eu11 O51 2.373 . S
Eu11 O53 2.432 . S
Eu11 O54 2.291 1_554 S
Eu11 C75 2.787 . S
N12 C8 1.351 . S
N12 Eu11 2.562 . S
N12 C14 1.325 1_554 S
C13 C7 1.404 . S
C13 C15 1.366 1_554 S
C13 H21 0.930 1_554 S
C14 N12 1.325 1_556 S
C14 C15 1.416 . S
C14 H20 0.929 . S
C15 C13 1.366 1_556 S
C15 C14 1.416 . S
C15 H17 0.930 . S
H16 C5 0.930 . S
H17 C15 0.930 . S
H18 C33 0.930 . S
H19 C40 0.930 . S
H20 C14 0.929 . S
H21 C13 0.930 1_556 S
H22 C36 0.929 . S
H23 C3 0.931 . S
H24 C9 0.931 . S
H25 C10 0.931 . S
H26 C31 0.931 . S
H27 C6 0.929 . S
H28 C39 0.930 1_554 S
N29 Eu0 2.600 . S
N29 C30 1.365 . S
N29 C33 1.319 . S
C30 N29 1.365 . S
C30 C32 1.405 . S
C30 C38 1.448 . S
C31 H26 0.931 . S
C31 C33 1.397 . S
C31 C34 1.367 . S
C32 C30 1.405 . S
C32 C34 1.403 . S
C32 C65 1.439 . S
C33 H18 0.930 . S
C33 N29 1.319 . S
C33 C31 1.397 . S
C34 C31 1.367 . S
C34 C32 1.403 . S
C34 H41 0.929 . S
N35 Eu0 2.562 . S
N35 C36 1.325 1_556 S
N35 C38 1.351 . S
C36 H22 0.929 . S
C36 N35 1.325 1_554 S
C36 C40 1.416 . S
C37 C38 1.430 . S
C37 C39 1.404 . S
C37 C66 1.387 . S
C38 C30 1.448 . S
C38 N35 1.351 . S
C38 C37 1.430 . S
C39 H28 0.930 1_556 S
C39 C37 1.404 . S
C39 C40 1.366 1_556 S
C40 H19 0.930 . S
C40 C36 1.416 . S
C40 C39 1.366 1_554 S
H41 C34 0.929 . S
H42 C65 0.931 . S
H43 C66 0.931 . S
O44 Eu0 2.462 . S
O44 C64 1.252 . S
O45 Eu0 2.373 . S
O45 C56 1.248 . S
O46 Eu11 2.335 1_655 S
O46 C56 1.264 1_544 S
O47 Eu0 2.432 . S
O47 C64 1.268 . S
O48 Eu0 2.291 1_554 S
O48 C63 1.255 1_565 S
O49 Eu11 2.372 . S
O49 C63 1.257 1_455 S
O50 Eu11 2.462 . S
O50 C75 1.252 . S
O51 Eu11 2.373 . S
O51 C67 1.252 . S
O52 Eu0 2.335 1_455 S
O52 C67 1.262 1_566 S
O53 Eu11 2.432 . S
O53 C75 1.268 . S
O54 Eu11 2.291 1_556 S
O54 C74 1.255 1_545 S
O55 Eu0 2.372 . S
O55 C74 1.257 1_655 S
C56 O45 1.248 . S
C56 O46 1.264 1_566 S
C57 C60 1.382 . S
C57 C62 1.390 . S
C57 C64 1.506 . S
C58 C59 1.398 . S
C58 C62 1.392 . S
C59 C58 1.398 . S
C59 C61 1.372 . S
C59 H76 0.931 . S
C60 C57 1.382 . S
C60 C61 1.390 . S
C60 H77 0.931 . S
C61 C59 1.372 . S
C61 C60 1.390 . S
C61 H78 0.929 . S
C62 C57 1.390 . S
C62 C58 1.392 . S
C62 H79 0.930 1_556 S
C63 O48 1.255 1_545 S
C63 O49 1.257 1_655 S
C64 Eu0 2.787 . S
C64 O44 1.252 . S
C64 O47 1.268 . S
C64 C57 1.506 . S
C65 C32 1.439 . S
C65 H42 0.931 . S
C65 C66 1.374 . S
C66 C37 1.387 . S
C66 H43 0.931 . S
C66 C65 1.374 . S
C67 O51 1.252 . S
C67 O52 1.262 1_544 S
C68 C71 1.382 . S
C68 C72 1.390 . S
C68 C75 1.506 . S
C69 C70 1.398 . S
C69 C72 1.392 . S
C70 C69 1.398 . S
C70 C73 1.372 . S
C70 H80 0.931 . S
C71 C68 1.382 . S
C71 C73 1.390 . S
C71 H81 0.931 . S
C72 C68 1.390 . S
C72 C69 1.392 . S
C72 H82 0.930 1_554 S
C73 C70 1.372 . S
C73 C71 1.390 . S
C73 H83 0.929 . S
C74 O54 1.255 1_565 S
C74 O55 1.257 1_455 S
C75 Eu11 2.787 . S
C75 O50 1.252 . S
C75 O53 1.268 . S
C75 C68 1.506 . S
H76 C59 0.931 . S
H77 C60 0.931 . S
H78 C61 0.929 . S
H79 C62 0.930 1_554 S
H80 C70 0.931 . S
H81 C71 0.931 . S
H82 C72 0.930 1_556 S
H83 C73 0.929 . S
H84 C90 0.930 . S
H85 C94 0.930 . S
H86 C99 0.929 . S
H87 C97 0.929 . S
H88 C92 0.929 . S
H89 C98 0.929 . S
C90 H84 0.930 . S
C90 C91 1.371 . S
C90 C98 1.378 . S
C91 C90 1.371 . S
C91 C99 1.429 1_645 S
C92 H88 0.929 . S
C92 C94 1.378 . S
C92 C96 1.350 . S
C93 C96 1.462 1_645 S
C93 C98 1.357 . S
C93 N101 1.420 1_645 S
C94 H85 0.930 . S
C94 C92 1.378 . S
C94 C95 1.383 . S
C95 C94 1.383 . S
C95 C97 1.408 1_465 S
C96 C92 1.350 . S
C96 C93 1.462 1_465 S
C96 N100 1.427 1_465 S
C97 H87 0.929 . S
C97 C95 1.408 1_645 S
C97 N100 1.384 . S
C98 H89 0.929 . S
C98 C90 1.378 . S
C98 C93 1.357 . S
C99 H86 0.929 . S
C99 C91 1.429 1_465 S
C99 N101 1.384 . S
N100 C96 1.427 1_645 S
N100 C97 1.384 . S
N101 C93 1.420 1_465 S
N101 C99 1.384 . S
H102 C108 0.930 . S
H103 C112 0.930 . S
H104 C117 0.929 . S
H105 C115 0.929 . S
H106 C110 0.929 . S
H107 C116 0.929 . S
C108 H102 0.930 . S
C108 C109 1.367 . S
C108 C116 1.378 . S
C109 C108 1.367 . S
C109 C117 1.433 1_566 S
C110 H106 0.929 . S
C110 C112 1.378 . S
C110 C114 1.347 . S
C111 C114 1.466 1_566 S
C111 C116 1.349 . S
C111 N119 1.427 1_566 S
C112 H103 0.930 . S
C112 C110 1.378 . S
C112 C113 1.366 . S
C113 C112 1.366 . S
C113 C115 1.435 1_544 S
C114 C110 1.347 . S
C114 C111 1.466 1_544 S
C114 N118 1.428 1_544 S
C115 H105 0.929 . S
C115 C113 1.435 1_566 S
C115 N118 1.384 . S
C116 H107 0.929 . S
C116 C108 1.378 . S
C116 C111 1.349 . S
C117 H104 0.929 . S
C117 C109 1.433 1_544 S
C117 N119 1.384 . S
N118 C114 1.428 1_566 S
N118 C115 1.384 . S
N119 C111 1.427 1_544 S
N119 C117 1.384 . S
H120 C126 0.930 . S
H121 C130 0.930 . S
H122 C135 0.929 . S
H123 C133 0.929 . S
H124 C128 0.929 . S
H125 C134 0.929 . S
C126 H120 0.930 . S
C126 C127 1.367 . S
C126 C134 1.378 . S
C127 C126 1.367 . S
C127 C135 1.433 1_654 S
C128 H124 0.929 . S
C128 C130 1.378 . S
C128 C132 1.350 . S
C129 C132 1.463 1_654 S
C129 C134 1.350 . S
C129 N137 1.427 1_654 S
C130 H121 0.930 . S
C130 C128 1.378 . S
C130 C131 1.367 . S
C131 C130 1.367 . S
C131 C133 1.433 1_456 S
C132 C128 1.350 . S
C132 C129 1.463 1_456 S
C132 N136 1.427 1_456 S
C133 H123 0.929 . S
C133 C131 1.433 1_654 S
C133 N136 1.384 . S
C134 H125 0.929 . S
C134 C126 1.378 . S
C134 C129 1.350 . S
C135 H122 0.929 . S
C135 C127 1.433 1_456 S
C135 N137 1.384 . S
N136 C132 1.427 1_654 S
N136 C133 1.384 . S
N137 C129 1.427 1_456 S
N137 C135 1.384 . S
C91 C63 1.477 . S
C95 C74 1.488 . S
C109 C67 1.496 1_566 S
C113 C56 1.496 1_544 S
C127 C58 1.367 1_554 S
C131 C69 1.367 1_556 S
