# Generated by pormake.
# Topology irl, (4)-cn, num edge types: 1
# Building blocks:
#     Node 0, Type 0, BuildingBlock: GALJAG_clean_sbu_0, # of connection points: 4
#     Node 1, Type 0, BuildingBlock: GALJAG_clean_sbu_0, # of connection points: 4
#     Node 2, Type 0, BuildingBlock: GALJAG_clean_sbu_0, # of connection points: 4
#     Node 3, Type 0, BuildingBlock: GALJAG_clean_sbu_0, # of connection points: 4
#     Node 4, Type 0, BuildingBlock: GALJAG_clean_sbu_0, # of connection points: 4
#     Node 5, Type 0, BuildingBlock: GALJAG_clean_sbu_0, # of connection points: 4
#     Node 6, Type 0, BuildingBlock: GALJAG_clean_sbu_0, # of connection points: 4
#     Node 7, Type 0, BuildingBlock: GALJAG_clean_sbu_0, # of connection points: 4
#     Edge 8, Type (0, 0), None
#     Edge 9, Type (0, 0), None
#     Edge 10, Type (0, 0), None
#     Edge 11, Type (0, 0), None
#     Edge 12, Type (0, 0), None
#     Edge 13, Type (0, 0), None
#     Edge 14, Type (0, 0), None
#     Edge 15, Type (0, 0), None
#     Edge 16, Type (0, 0), None
#     Edge 17, Type (0, 0), None
#     Edge 18, Type (0, 0), None
#     Edge 19, Type (0, 0), None
#     Edge 20, Type (0, 0), None
#     Edge 21, Type (0, 0), None
#     Edge 22, Type (0, 0), None
#     Edge 23, Type (0, 0), None
# Relax obj value: 0.098
# Max RMSD: 0.151
# Mean RMSD: 0.151
data_MOF--net-irl--node1-GALJAG_clean_sbu_0--edge1-none
_symmetry_space_group_name_H-M    P1
_symmetry_Int_Tables_number       1
_symmetry_cell_setting            triclinic
loop_
_symmetry_equiv_pos_as_xyz
'x, y, z'
_cell_length_a     13.963398
_cell_length_b     21.696348
_cell_length_c     12.963679
_cell_angle_alpha  89.999992
_cell_angle_beta   90.0
_cell_angle_gamma 89.999957
loop_
_atom_site_label
_atom_site_type_symbol
_atom_site_fract_x
_atom_site_fract_y
_atom_site_fract_z
_atom_type_partial_charge
In0 In 0.03924 0.14751 0.01629 0.0
O1 O 0.93604 0.18277 0.13895 0.0
O2 O 0.07197 0.14651 0.18647 0.0
C3 C -0.00727 0.1698 0.82018 0.0
C4 C 0.18728 0.22382 0.01632 0.0
C5 C -0.00821 0.02761 0.01623 0.0
O6 O 0.93604 0.1828 0.89365 0.0
O7 O 0.07198 0.14657 0.84611 0.0
O8 O 0.07853 0.04519 0.01624 0.0
O9 O 0.93027 0.07011 0.01624 0.0
C10 C -0.00728 0.16974 0.21241 0.0
O11 O 0.19841 0.16567 0.0163 0.0
O12 O 0.10164 0.24313 0.01633 0.0
In13 In 0.91633 0.84257 0.01629 0.0
O14 O 0.75716 0.82441 0.0163 0.0
O15 O 0.85393 0.74694 0.01633 0.0
C16 C 0.96378 0.96247 0.01623 0.0
C17 C 0.96285 0.82033 0.21241 0.0
C18 C 0.96284 0.82027 0.82018 0.0
O19 O 0.87704 0.94489 0.01624 0.0
O20 O 0.0253 0.91997 0.01624 0.0
O21 O 0.01953 0.80728 0.89365 0.0
O22 O 0.88359 0.84351 0.84611 0.0
C23 C 0.76829 0.76626 0.01632 0.0
O24 O 0.01953 0.80731 0.13895 0.0
O25 O 0.8836 0.84357 0.18647 0.0
In26 In 0.03923 0.84256 0.51631 0.0
O27 O 0.93602 0.8073 0.39366 0.0
O28 O 0.07195 0.84358 0.34612 0.0
C29 C -0.00731 0.8203 0.7124 0.0
C30 C 0.18728 0.76626 0.51628 0.0
C31 C -0.00821 0.96247 0.51636 0.0
O32 O 0.93602 0.80727 0.63893 0.0
O33 O 0.07196 0.84351 0.68649 0.0
O34 O 0.07853 0.94488 0.51635 0.0
O35 O 0.93027 0.91997 0.51635 0.0
C36 C -0.00732 0.82036 0.3202 0.0
O37 O 0.19841 0.82441 0.51629 0.0
O38 O 0.10164 0.74694 0.51627 0.0
In39 In 0.91634 0.14751 0.51631 0.0
O40 O 0.01955 0.18277 0.39366 0.0
O41 O 0.88362 0.1465 0.34612 0.0
C42 C 0.96288 0.16978 0.7124 0.0
C43 C 0.76829 0.22382 0.51628 0.0
C44 C 0.96378 0.02761 0.51636 0.0
O45 O 0.01955 0.1828 0.63893 0.0
O46 O 0.88361 0.14656 0.68649 0.0
O47 O 0.87704 0.04519 0.51635 0.0
O48 O 0.0253 0.07011 0.51635 0.0
C49 C 0.96289 0.16972 0.3202 0.0
O50 O 0.75716 0.16567 0.51629 0.0
O51 O 0.85393 0.24313 0.51627 0.0
In52 In 0.53924 0.64751 0.01629 0.0
O53 O 0.69841 0.66567 0.0163 0.0
O54 O 0.60164 0.74313 0.01633 0.0
C55 C 0.49179 0.52761 0.01624 0.0
C56 C 0.49272 0.66974 0.21242 0.0
C57 C 0.49272 0.6698 0.82019 0.0
O58 O 0.57853 0.54519 0.01625 0.0
O59 O 0.43027 0.57011 0.01625 0.0
O60 O 0.43603 0.6828 0.89366 0.0
O61 O 0.57198 0.64657 0.84612 0.0
C62 C 0.68728 0.72382 0.01632 0.0
O63 O 0.43604 0.68277 0.13896 0.0
O64 O 0.57197 0.64651 0.18647 0.0
In65 In 0.41633 0.34257 0.01629 0.0
O66 O 0.51953 0.30731 0.13896 0.0
O67 O 0.3836 0.34357 0.18647 0.0
C68 C 0.46285 0.32027 0.82019 0.0
C69 C 0.26829 0.26626 0.01632 0.0
C70 C 0.46378 0.46247 0.01624 0.0
O71 O 0.51954 0.30728 0.89366 0.0
O72 O 0.38359 0.34351 0.84612 0.0
O73 O 0.37704 0.44489 0.01625 0.0
O74 O 0.5253 0.41997 0.01625 0.0
C75 C 0.46285 0.32033 0.21242 0.0
O76 O 0.25716 0.32441 0.0163 0.0
O77 O 0.35393 0.24694 0.01633 0.0
In78 In 0.53924 0.34256 0.51631 0.0
O79 O 0.69841 0.32441 0.5163 0.0
O80 O 0.60164 0.24694 0.51627 0.0
C81 C 0.49179 0.46247 0.51637 0.0
C82 C 0.49268 0.32036 0.3202 0.0
C83 C 0.49269 0.3203 0.7124 0.0
O84 O 0.57853 0.44488 0.51636 0.0
O85 O 0.43027 0.41997 0.51636 0.0
O86 O 0.43602 0.30727 0.63893 0.0
O87 O 0.57196 0.34351 0.68649 0.0
C88 C 0.68728 0.26626 0.51628 0.0
O89 O 0.43602 0.3073 0.39367 0.0
O90 O 0.57195 0.34358 0.34613 0.0
In91 In 0.41633 0.64751 0.51631 0.0
O92 O 0.25716 0.66567 0.5163 0.0
O93 O 0.35393 0.74313 0.51627 0.0
C94 C 0.46378 0.52761 0.51637 0.0
C95 C 0.46289 0.66972 0.3202 0.0
C96 C 0.46288 0.66978 0.7124 0.0
O97 O 0.37704 0.54519 0.51636 0.0
O98 O 0.5253 0.57011 0.51636 0.0
O99 O 0.51955 0.6828 0.63893 0.0
O100 O 0.38361 0.64656 0.68649 0.0
C101 C 0.26829 0.72382 0.51628 0.0
O102 O 0.51955 0.68277 0.39367 0.0
O103 O 0.38362 0.6465 0.34613 0.0
loop_
_geom_bond_atom_site_label_1
_geom_bond_atom_site_label_2
_geom_bond_distance
_geom_bond_site_symmetry_2
_ccdc_geom_bond_type
In0 O1 2.294 1_455 S
In0 O2 2.326 . S
In0 O6 2.266 1_454 S
In0 O7 2.326 1_554 S
In0 O8 2.266 1_554 S
In0 O9 2.326 1_455 S
In0 O11 2.294 . S
In0 O12 2.326 . S
O1 In0 2.294 1_655 S
O1 C10 1.240 . S
O2 In0 2.326 . S
O2 C10 1.252 1_455 S
C3 O6 1.252 . S
C3 O7 1.260 1_655 S
C4 O11 1.240 . S
C4 O12 1.252 . S
C5 O8 1.252 . S
C5 O9 1.260 1_456 S
O6 In0 2.266 1_656 S
O6 C3 1.252 . S
O7 In0 2.326 1_556 S
O7 C3 1.260 1_455 S
O8 In0 2.266 1_556 S
O8 C5 1.252 . S
O9 In0 2.326 1_655 S
O9 C5 1.260 1_654 S
C10 O1 1.240 . S
C10 O2 1.252 1_655 S
O11 In0 2.294 . S
O11 C4 1.240 . S
O12 In0 2.326 . S
O12 C4 1.252 . S
In13 O14 2.294 . S
In13 O15 2.326 . S
In13 O19 2.266 1_554 S
In13 O20 2.326 1_655 S
In13 O21 2.266 1_654 S
In13 O22 2.326 1_554 S
In13 O24 2.294 1_655 S
In13 O25 2.326 . S
O14 In13 2.294 . S
O14 C23 1.240 . S
O15 In13 2.326 . S
O15 C23 1.252 . S
C16 O19 1.252 . S
C16 O20 1.260 1_656 S
C17 O24 1.240 . S
C17 O25 1.252 1_455 S
C18 O21 1.252 . S
C18 O22 1.260 1_455 S
O19 In13 2.266 1_556 S
O19 C16 1.252 . S
O20 In13 2.326 1_455 S
O20 C16 1.260 1_454 S
O21 In13 2.266 1_456 S
O21 C18 1.252 . S
O22 In13 2.326 1_556 S
O22 C18 1.260 1_655 S
C23 O14 1.240 . S
C23 O15 1.252 . S
O24 In13 2.294 1_455 S
O24 C17 1.240 . S
O25 In13 2.326 . S
O25 C17 1.252 1_655 S
In26 O27 2.294 1_455 S
In26 O28 2.326 . S
In26 O32 2.266 1_455 S
In26 O33 2.326 . S
In26 O34 2.266 . S
In26 O35 2.326 1_455 S
In26 O37 2.294 . S
In26 O38 2.326 . S
O27 In26 2.294 1_655 S
O27 C36 1.240 . S
O28 In26 2.326 . S
O28 C36 1.252 1_455 S
C29 O32 1.252 . S
C29 O33 1.260 1_655 S
C30 O37 1.240 . S
C30 O38 1.252 . S
C31 O34 1.252 . S
C31 O35 1.260 1_455 S
O32 In26 2.266 1_655 S
O32 C29 1.252 . S
O33 In26 2.326 . S
O33 C29 1.260 1_455 S
O34 In26 2.266 . S
O34 C31 1.252 . S
O35 In26 2.326 1_655 S
O35 C31 1.260 1_655 S
C36 O27 1.240 . S
C36 O28 1.252 1_655 S
O37 In26 2.294 . S
O37 C30 1.240 . S
O38 In26 2.326 . S
O38 C30 1.252 . S
In39 O40 2.294 1_655 S
In39 O41 2.326 . S
In39 O45 2.266 1_655 S
In39 O46 2.326 . S
In39 O47 2.266 . S
In39 O48 2.326 1_655 S
In39 O50 2.294 . S
In39 O51 2.326 . S
O40 In39 2.294 1_455 S
O40 C49 1.240 . S
O41 In39 2.326 . S
O41 C49 1.252 1_655 S
C42 O45 1.252 . S
C42 O46 1.260 1_455 S
C43 O50 1.240 . S
C43 O51 1.252 . S
C44 O47 1.252 . S
C44 O48 1.260 1_655 S
O45 In39 2.266 1_455 S
O45 C42 1.252 . S
O46 In39 2.326 . S
O46 C42 1.260 1_655 S
O47 In39 2.266 . S
O47 C44 1.252 . S
O48 In39 2.326 1_455 S
O48 C44 1.260 1_455 S
C49 O40 1.240 . S
C49 O41 1.252 1_455 S
O50 In39 2.294 . S
O50 C43 1.240 . S
O51 In39 2.326 . S
O51 C43 1.252 . S
In52 O53 2.294 . S
In52 O54 2.326 . S
In52 O58 2.266 1_554 S
In52 O59 2.326 . S
In52 O60 2.266 1_554 S
In52 O61 2.326 1_554 S
In52 O63 2.294 . S
In52 O64 2.326 . S
O53 In52 2.294 . S
O53 C62 1.240 . S
O54 In52 2.326 . S
O54 C62 1.252 . S
C55 O58 1.252 . S
C55 O59 1.260 1_556 S
C56 O63 1.240 . S
C56 O64 1.252 . S
C57 O60 1.252 . S
C57 O61 1.260 . S
O58 In52 2.266 1_556 S
O58 C55 1.252 . S
O59 In52 2.326 . S
O59 C55 1.260 1_554 S
O60 In52 2.266 1_556 S
O60 C57 1.252 . S
O61 In52 2.326 1_556 S
O61 C57 1.260 . S
C62 O53 1.240 . S
C62 O54 1.252 . S
O63 In52 2.294 . S
O63 C56 1.240 . S
O64 In52 2.326 . S
O64 C56 1.252 . S
In65 O66 2.294 . S
In65 O67 2.326 . S
In65 O71 2.266 1_554 S
In65 O72 2.326 1_554 S
In65 O73 2.266 1_554 S
In65 O74 2.326 . S
In65 O76 2.294 . S
In65 O77 2.326 . S
O66 In65 2.294 . S
O66 C75 1.240 . S
O67 In65 2.326 . S
O67 C75 1.252 . S
C68 O71 1.252 . S
C68 O72 1.260 . S
C69 O76 1.240 . S
C69 O77 1.252 . S
C70 O73 1.252 . S
C70 O74 1.260 1_556 S
O71 In65 2.266 1_556 S
O71 C68 1.252 . S
O72 In65 2.326 1_556 S
O72 C68 1.260 . S
O73 In65 2.266 1_556 S
O73 C70 1.252 . S
O74 In65 2.326 . S
O74 C70 1.260 1_554 S
C75 O66 1.240 . S
C75 O67 1.252 . S
O76 In65 2.294 . S
O76 C69 1.240 . S
O77 In65 2.326 . S
O77 C69 1.252 . S
In78 O79 2.294 . S
In78 O80 2.326 . S
In78 O84 2.266 . S
In78 O85 2.326 . S
In78 O86 2.266 . S
In78 O87 2.326 . S
In78 O89 2.294 . S
In78 O90 2.326 . S
O79 In78 2.294 . S
O79 C88 1.240 . S
O80 In78 2.326 . S
O80 C88 1.252 . S
C81 O84 1.252 . S
C81 O85 1.260 . S
C82 O89 1.240 . S
C82 O90 1.252 . S
C83 O86 1.252 . S
C83 O87 1.260 . S
O84 In78 2.266 . S
O84 C81 1.252 . S
O85 In78 2.326 . S
O85 C81 1.260 . S
O86 In78 2.266 . S
O86 C83 1.252 . S
O87 In78 2.326 . S
O87 C83 1.260 . S
C88 O79 1.240 . S
C88 O80 1.252 . S
O89 In78 2.294 . S
O89 C82 1.240 . S
O90 In78 2.326 . S
O90 C82 1.252 . S
In91 O92 2.294 . S
In91 O93 2.326 . S
In91 O97 2.266 . S
In91 O98 2.326 . S
In91 O99 2.266 . S
In91 O100 2.326 . S
In91 O102 2.294 . S
In91 O103 2.326 . S
O92 In91 2.294 . S
O92 C101 1.240 . S
O93 In91 2.326 . S
O93 C101 1.252 . S
C94 O97 1.252 . S
C94 O98 1.260 . S
C95 O102 1.240 . S
C95 O103 1.252 . S
C96 O99 1.252 . S
C96 O100 1.260 . S
O97 In91 2.266 . S
O97 C94 1.252 . S
O98 In91 2.326 . S
O98 C94 1.260 . S
O99 In91 2.266 . S
O99 C96 1.252 . S
O100 In91 2.326 . S
O100 C96 1.260 . S
C101 O92 1.240 . S
C101 O93 1.252 . S
O102 In91 2.294 . S
O102 C95 1.240 . S
O103 In91 2.326 . S
O103 C95 1.252 . S
C16 C5 1.531 1_665 S
C31 C44 1.531 1_465 S
C55 C70 1.531 . S
C81 C94 1.531 . S
C10 C49 1.568 1_655 S
C36 C17 1.568 1_655 S
C29 C18 1.725 1_655 S
C3 C42 1.725 1_655 S
C56 C95 1.568 . S
C82 C75 1.568 . S
C68 C83 1.725 . S
C57 C96 1.725 . S
C69 C4 1.544 . S
C62 C23 1.544 . S
C30 C101 1.544 . S
C88 C43 1.544 . S
