# Generated by pormake.
# Topology neb, (4)-cn, num edge types: 1
# Building blocks:
#     Node 0, Type 0, BuildingBlock: QUQFOY_clean_sbu_1, # of connection points: 4
#     Node 1, Type 0, BuildingBlock: QUQFOY_clean_sbu_1, # of connection points: 4
#     Node 2, Type 0, BuildingBlock: QUQFOY_clean_sbu_1, # of connection points: 4
#     Node 3, Type 0, BuildingBlock: QUQFOY_clean_sbu_1, # of connection points: 4
#     Node 4, Type 0, BuildingBlock: QUQFOY_clean_sbu_1, # of connection points: 4
#     Node 5, Type 0, BuildingBlock: QUQFOY_clean_sbu_1, # of connection points: 4
#     Node 6, Type 0, BuildingBlock: QUQFOY_clean_sbu_1, # of connection points: 4
#     Node 7, Type 0, BuildingBlock: QUQFOY_clean_sbu_1, # of connection points: 4
#     Node 8, Type 0, BuildingBlock: QUQFOY_clean_sbu_1, # of connection points: 4
#     Node 9, Type 0, BuildingBlock: QUQFOY_clean_sbu_1, # of connection points: 4
#     Node 10, Type 0, BuildingBlock: QUQFOY_clean_sbu_1, # of connection points: 4
#     Node 11, Type 0, BuildingBlock: QUQFOY_clean_sbu_1, # of connection points: 4
#     Node 12, Type 0, BuildingBlock: QUQFOY_clean_sbu_1, # of connection points: 4
#     Node 13, Type 0, BuildingBlock: QUQFOY_clean_sbu_1, # of connection points: 4
#     Node 14, Type 0, BuildingBlock: QUQFOY_clean_sbu_1, # of connection points: 4
#     Node 15, Type 0, BuildingBlock: QUQFOY_clean_sbu_1, # of connection points: 4
#     Edge 16, Type (0, 0), None
#     Edge 17, Type (0, 0), None
#     Edge 18, Type (0, 0), None
#     Edge 19, Type (0, 0), None
#     Edge 20, Type (0, 0), None
#     Edge 21, Type (0, 0), None
#     Edge 22, Type (0, 0), None
#     Edge 23, Type (0, 0), None
#     Edge 24, Type (0, 0), None
#     Edge 25, Type (0, 0), None
#     Edge 26, Type (0, 0), None
#     Edge 27, Type (0, 0), None
#     Edge 28, Type (0, 0), None
#     Edge 29, Type (0, 0), None
#     Edge 30, Type (0, 0), None
#     Edge 31, Type (0, 0), None
#     Edge 32, Type (0, 0), None
#     Edge 33, Type (0, 0), None
#     Edge 34, Type (0, 0), None
#     Edge 35, Type (0, 0), None
#     Edge 36, Type (0, 0), None
#     Edge 37, Type (0, 0), None
#     Edge 38, Type (0, 0), None
#     Edge 39, Type (0, 0), None
#     Edge 40, Type (0, 0), None
#     Edge 41, Type (0, 0), None
#     Edge 42, Type (0, 0), None
#     Edge 43, Type (0, 0), None
#     Edge 44, Type (0, 0), None
#     Edge 45, Type (0, 0), None
#     Edge 46, Type (0, 0), None
#     Edge 47, Type (0, 0), None
# Relax obj value: 0.028
# Max RMSD: 0.104
# Mean RMSD: 0.104
data_MOF--net-neb--node1-QUQFOY_clean_sbu_1--edge1-none
_symmetry_space_group_name_H-M    P1
_symmetry_Int_Tables_number       1
_symmetry_cell_setting            triclinic
loop_
_symmetry_equiv_pos_as_xyz
'x, y, z'
_cell_length_a     23.581425
_cell_length_b     11.278656
_cell_length_c     32.654499
_cell_angle_alpha  90.0
_cell_angle_beta   89.999997
_cell_angle_gamma 90.015795
loop_
_atom_site_label
_atom_site_type_symbol
_atom_site_fract_x
_atom_site_fract_y
_atom_site_fract_z
_atom_type_partial_charge
O0 O 0.14859 0.9089 0.45676 0.0
Cd1 Cd 0.12107 0.03867 0.49498 0.0
Cd2 Cd 0.23546 0.06986 0.49498 0.0
O3 O 0.24065 0.90133 0.46932 0.0
O4 O 1.04555 -0.02131 0.51393 0.0
O5 O 0.12051 -0.00468 0.55459 0.0
C6 C 0.06893 -0.04021 0.54906 0.0
C7 C 0.2876 0.14874 0.54906 0.0
C8 C 0.19651 0.85948 0.45217 0.0
C9 C 0.16002 0.24904 0.45217 0.0
O10 O 0.20794 0.19962 0.45676 0.0
O11 O 0.11588 0.2072 0.46932 0.0
O12 O 0.31098 0.12983 0.51393 0.0
O13 O 0.23602 0.1132 0.55459 0.0
O14 O 0.20793 0.90897 0.92414 0.0
Cd15 Cd 0.23546 0.03873 0.8859 0.0
Cd16 Cd 0.12107 0.0698 0.8859 0.0
O17 O 0.11589 0.90124 0.91154 0.0
O18 O 0.31098 -0.0212 0.86696 0.0
O19 O 0.23603 -0.00471 0.8263 0.0
C20 C 0.2876 -0.04019 0.83184 0.0
C21 C 0.06893 0.14872 0.83184 0.0
C22 C 0.16002 0.85948 0.92871 0.0
C23 C 0.19651 0.24905 0.92871 0.0
O24 O 0.1486 0.19955 0.92414 0.0
O25 O 0.24064 0.20728 0.91154 0.0
O26 O 1.04555 0.12973 0.86696 0.0
O27 O 0.1205 0.11323 0.8263 0.0
O28 O 0.95794 -0.05038 0.67415 0.0
Cd29 Cd 0.98546 0.81986 0.63592 0.0
Cd30 Cd 0.87107 0.78867 0.63592 0.0
O31 O 0.86588 -0.0428 0.66158 0.0
O32 O 0.06098 0.87983 0.61697 0.0
O33 O 0.98602 0.8632 0.57632 0.0
C34 C 1.0376 0.89874 0.58185 0.0
C35 C 0.81893 0.70979 0.58185 0.0
C36 C 0.91002 -0.00096 0.67873 0.0
C37 C 0.94651 0.60948 0.67873 0.0
O38 O 0.8986 0.6589 0.67415 0.0
O39 O 0.99065 0.65133 0.66158 0.0
O40 O 0.79555 0.7287 0.61697 0.0
O41 O 0.87051 0.74532 0.57632 0.0
O42 O 0.8986 -0.05045 0.20676 0.0
Cd43 Cd 0.87107 0.8198 0.245 0.0
Cd44 Cd 0.98546 0.78873 0.245 0.0
O45 O 0.99064 -0.04272 0.21936 0.0
O46 O 0.79555 0.87973 0.26394 0.0
O47 O 0.8705 0.86323 0.3046 0.0
C48 C 0.81893 0.89872 0.29906 0.0
C49 C 1.0376 0.70981 0.29906 0.0
C50 C 0.94651 -0.00095 0.2022 0.0
C51 C 0.91002 0.60948 0.2022 0.0
O52 O 0.95793 0.65897 0.20676 0.0
O53 O 0.86589 0.65124 0.21936 0.0
O54 O 0.06098 0.7288 0.26394 0.0
O55 O 0.98603 0.74529 0.3046 0.0
O56 O 0.14859 0.4089 0.95675 0.0
Cd57 Cd 0.12107 0.53867 0.99498 0.0
Cd58 Cd 0.23546 0.56985 0.99498 0.0
O59 O 0.24065 0.40133 0.96932 0.0
O60 O 1.04555 0.4787 1.01393 0.0
O61 O 0.12051 0.49532 1.05459 0.0
C62 C 0.06893 0.45979 1.04906 0.0
C63 C 0.2876 0.64874 1.04906 0.0
C64 C 0.19651 0.35949 0.95217 0.0
C65 C 0.16002 0.74904 0.95217 0.0
O66 O 0.20794 0.69962 0.95675 0.0
O67 O 0.11588 0.7072 0.96932 0.0
O68 O 0.31098 0.62983 1.01393 0.0
O69 O 0.23603 0.6132 1.05459 0.0
O70 O 0.20793 0.40897 0.42414 0.0
Cd71 Cd 0.23546 0.53873 0.3859 0.0
Cd72 Cd 0.12107 0.5698 0.3859 0.0
O73 O 0.11589 0.40124 0.41154 0.0
O74 O 0.31098 0.4788 0.36696 0.0
O75 O 0.23603 0.49529 0.3263 0.0
C76 C 0.2876 0.45981 0.33184 0.0
C77 C 0.06893 0.64872 0.33184 0.0
C78 C 0.16002 0.35948 0.42871 0.0
C79 C 0.19651 0.74904 0.42871 0.0
O80 O 0.1486 0.69955 0.42414 0.0
O81 O 0.24064 0.70728 0.41154 0.0
O82 O 1.04555 0.62973 0.36696 0.0
O83 O 0.1205 0.61323 0.3263 0.0
O84 O 0.95794 0.44962 0.17415 0.0
Cd85 Cd 0.98546 0.31985 0.13592 0.0
Cd86 Cd 0.87107 0.28867 0.13592 0.0
O87 O 0.86588 0.4572 0.16158 0.0
O88 O 0.06098 0.37983 0.11697 0.0
O89 O 0.98602 0.3632 0.07632 0.0
C90 C 1.0376 0.39874 0.08185 0.0
C91 C 0.81893 0.20979 0.08185 0.0
C92 C 0.91002 0.49904 0.17873 0.0
C93 C 0.94651 0.10949 0.17873 0.0
O94 O 0.89859 0.1589 0.17415 0.0
O95 O 0.99065 0.15133 0.16158 0.0
O96 O 0.79555 0.2287 0.11697 0.0
O97 O 0.87051 0.24532 0.07632 0.0
O98 O 0.8986 0.44955 0.70676 0.0
Cd99 Cd 0.87107 0.3198 0.745 0.0
Cd100 Cd 0.98546 0.28873 0.745 0.0
O101 O 0.99064 0.45728 0.71936 0.0
O102 O 0.79555 0.37973 0.76394 0.0
O103 O 0.8705 0.36323 0.8046 0.0
C104 C 0.81893 0.39872 0.79906 0.0
C105 C 1.0376 0.2098 0.79906 0.0
C106 C 0.94651 0.49904 0.70219 0.0
C107 C 0.91002 0.10948 0.70219 0.0
O108 O 0.95793 0.15897 0.70676 0.0
O109 O 0.86589 0.15124 0.71936 0.0
O110 O 0.06098 0.2288 0.76394 0.0
O111 O 0.98603 0.24529 0.8046 0.0
O112 O 0.64859 0.9089 0.95676 0.0
Cd113 Cd 0.62107 0.03867 0.99498 0.0
Cd114 Cd 0.73546 0.06986 0.99498 0.0
O115 O 0.74065 0.90133 0.96932 0.0
O116 O 0.54555 -0.02131 1.01393 0.0
O117 O 0.62051 -0.00468 1.05459 0.0
C118 C 0.56893 -0.04021 1.04906 0.0
C119 C 0.7876 0.14874 1.04906 0.0
C120 C 0.69651 0.85948 0.95217 0.0
C121 C 0.66002 0.24904 0.95217 0.0
O122 O 0.70794 0.19962 0.95676 0.0
O123 O 0.61588 0.2072 0.96932 0.0
O124 O 0.81098 0.12983 1.01393 0.0
O125 O 0.73602 0.1132 1.05459 0.0
O126 O 0.70793 0.90897 0.42414 0.0
Cd127 Cd 0.73546 0.03873 0.3859 0.0
Cd128 Cd 0.62107 0.0698 0.3859 0.0
O129 O 0.61589 0.90124 0.41154 0.0
O130 O 0.81098 -0.0212 0.36696 0.0
O131 O 0.73603 -0.00471 0.3263 0.0
C132 C 0.7876 -0.04019 0.33184 0.0
C133 C 0.56893 0.14872 0.33184 0.0
C134 C 0.66002 0.85948 0.42871 0.0
C135 C 0.69651 0.24905 0.42871 0.0
O136 O 0.6486 0.19955 0.42414 0.0
O137 O 0.74064 0.20728 0.41154 0.0
O138 O 0.54555 0.12973 0.36696 0.0
O139 O 0.6205 0.11323 0.3263 0.0
O140 O 0.45794 -0.05038 0.17415 0.0
Cd141 Cd 0.48546 0.81986 0.13592 0.0
Cd142 Cd 0.37107 0.78867 0.13592 0.0
O143 O 0.36588 -0.0428 0.16158 0.0
O144 O 0.56098 0.87983 0.11697 0.0
O145 O 0.48602 0.8632 0.07632 0.0
C146 C 0.5376 0.89874 0.08185 0.0
C147 C 0.31893 0.70979 0.08185 0.0
C148 C 0.41002 -0.00096 0.17873 0.0
C149 C 0.44651 0.60948 0.17873 0.0
O150 O 0.3986 0.6589 0.17415 0.0
O151 O 0.49065 0.65133 0.16158 0.0
O152 O 0.29555 0.72869 0.11697 0.0
O153 O 0.37051 0.74532 0.07632 0.0
O154 O 0.3986 -0.05045 0.70676 0.0
Cd155 Cd 0.37107 0.8198 0.745 0.0
Cd156 Cd 0.48546 0.78873 0.745 0.0
O157 O 0.49064 -0.04272 0.71936 0.0
O158 O 0.29555 0.87973 0.76394 0.0
O159 O 0.3705 0.86323 0.8046 0.0
C160 C 0.31893 0.89872 0.79906 0.0
C161 C 0.5376 0.70981 0.79906 0.0
C162 C 0.44651 -0.00095 0.7022 0.0
C163 C 0.41002 0.60948 0.7022 0.0
O164 O 0.45793 0.65897 0.70676 0.0
O165 O 0.36589 0.65124 0.71936 0.0
O166 O 0.56098 0.7288 0.76394 0.0
O167 O 0.48603 0.74529 0.8046 0.0
O168 O 0.64859 0.4089 0.45675 0.0
Cd169 Cd 0.62107 0.53867 0.49498 0.0
Cd170 Cd 0.73546 0.56985 0.49498 0.0
O171 O 0.74065 0.40133 0.46932 0.0
O172 O 0.54555 0.4787 0.51393 0.0
O173 O 0.62051 0.49532 0.55459 0.0
C174 C 0.56893 0.45979 0.54906 0.0
C175 C 0.7876 0.64874 0.54906 0.0
C176 C 0.69651 0.35949 0.45217 0.0
C177 C 0.66002 0.74904 0.45217 0.0
O178 O 0.70794 0.69962 0.45675 0.0
O179 O 0.61588 0.7072 0.46932 0.0
O180 O 0.81098 0.62983 0.51393 0.0
O181 O 0.73603 0.6132 0.55459 0.0
O182 O 0.70793 0.40897 0.92414 0.0
Cd183 Cd 0.73546 0.53873 0.8859 0.0
Cd184 Cd 0.62107 0.5698 0.8859 0.0
O185 O 0.61589 0.40124 0.91154 0.0
O186 O 0.81098 0.4788 0.86696 0.0
O187 O 0.73603 0.49529 0.8263 0.0
C188 C 0.7876 0.45981 0.83184 0.0
C189 C 0.56893 0.64872 0.83184 0.0
C190 C 0.66002 0.35948 0.92871 0.0
C191 C 0.69651 0.74904 0.92871 0.0
O192 O 0.6486 0.69955 0.92414 0.0
O193 O 0.74064 0.70728 0.91154 0.0
O194 O 0.54555 0.62973 0.86696 0.0
O195 O 0.6205 0.61323 0.8263 0.0
O196 O 0.45794 0.44962 0.67415 0.0
Cd197 Cd 0.48546 0.31985 0.63592 0.0
Cd198 Cd 0.37107 0.28867 0.63592 0.0
O199 O 0.36588 0.4572 0.66158 0.0
O200 O 0.56098 0.37983 0.61697 0.0
O201 O 0.48602 0.3632 0.57632 0.0
C202 C 0.5376 0.39874 0.58185 0.0
C203 C 0.31893 0.20979 0.58185 0.0
C204 C 0.41002 0.49904 0.67873 0.0
C205 C 0.44651 0.10949 0.67873 0.0
O206 O 0.39859 0.1589 0.67415 0.0
O207 O 0.49065 0.15133 0.66158 0.0
O208 O 0.29555 0.22869 0.61697 0.0
O209 O 0.37051 0.24532 0.57632 0.0
O210 O 0.3986 0.44955 0.20676 0.0
Cd211 Cd 0.37107 0.3198 0.245 0.0
Cd212 Cd 0.48546 0.28873 0.245 0.0
O213 O 0.49064 0.45728 0.21936 0.0
O214 O 0.29555 0.37973 0.26394 0.0
O215 O 0.3705 0.36323 0.3046 0.0
C216 C 0.31893 0.39872 0.29906 0.0
C217 C 0.5376 0.2098 0.29906 0.0
C218 C 0.44651 0.49904 0.20219 0.0
C219 C 0.41002 0.10948 0.20219 0.0
O220 O 0.45793 0.15897 0.20676 0.0
O221 O 0.36589 0.15124 0.21936 0.0
O222 O 0.56098 0.2288 0.26394 0.0
O223 O 0.48603 0.24529 0.3046 0.0
loop_
_geom_bond_atom_site_label_1
_geom_bond_atom_site_label_2
_geom_bond_distance
_geom_bond_site_symmetry_2
_ccdc_geom_bond_type
O0 Cd1 2.223 . S
O0 C8 1.315 1_545 S
Cd1 O0 2.223 . S
Cd1 O4 2.297 1_455 S
Cd1 O5 2.439 . S
Cd1 O11 2.240 . S
Cd2 O3 2.240 1_545 S
Cd2 O10 2.223 . S
Cd2 O12 2.297 . S
Cd2 O13 2.439 . S
O3 Cd2 2.240 1_565 S
O3 C8 1.279 . S
O4 Cd1 2.297 1_655 S
O4 C6 1.247 1_655 S
O5 Cd1 2.439 . S
O5 C6 1.208 . S
C6 O4 1.247 1_455 S
C6 O5 1.208 . S
C7 O12 1.247 . S
C7 O13 1.208 . S
C8 O0 1.315 1_565 S
C8 O3 1.279 . S
C9 O10 1.315 . S
C9 O11 1.279 . S
O10 Cd2 2.223 . S
O10 C9 1.315 . S
O11 Cd1 2.240 . S
O11 C9 1.279 . S
O12 Cd2 2.297 . S
O12 C7 1.247 . S
O13 Cd2 2.439 . S
O13 C7 1.208 . S
O14 Cd15 2.223 . S
O14 C22 1.315 1_545 S
Cd15 O14 2.223 . S
Cd15 O18 2.297 . S
Cd15 O19 2.439 . S
Cd15 O25 2.240 . S
Cd16 O17 2.240 1_545 S
Cd16 O24 2.223 . S
Cd16 O26 2.297 1_455 S
Cd16 O27 2.439 . S
O17 Cd16 2.240 1_565 S
O17 C22 1.279 . S
O18 Cd15 2.297 . S
O18 C20 1.247 . S
O19 Cd15 2.439 . S
O19 C20 1.208 . S
C20 O18 1.247 . S
C20 O19 1.208 . S
C21 O26 1.247 1_455 S
C21 O27 1.208 . S
C22 O14 1.315 1_565 S
C22 O17 1.279 . S
C23 O24 1.315 . S
C23 O25 1.279 . S
O24 Cd16 2.223 . S
O24 C23 1.315 . S
O25 Cd15 2.240 . S
O25 C23 1.279 . S
O26 Cd16 2.297 1_655 S
O26 C21 1.247 1_655 S
O27 Cd16 2.439 . S
O27 C21 1.208 . S
O28 Cd29 2.223 . S
O28 C36 1.315 1_565 S
Cd29 O28 2.223 . S
Cd29 O32 2.297 1_655 S
Cd29 O33 2.439 . S
Cd29 O39 2.240 . S
Cd30 O31 2.240 1_565 S
Cd30 O38 2.223 . S
Cd30 O40 2.297 . S
Cd30 O41 2.439 . S
O31 Cd30 2.240 1_545 S
O31 C36 1.279 . S
O32 Cd29 2.297 1_455 S
O32 C34 1.247 1_455 S
O33 Cd29 2.439 . S
O33 C34 1.208 . S
C34 O32 1.247 1_655 S
C34 O33 1.208 . S
C35 O40 1.247 . S
C35 O41 1.208 . S
C36 O28 1.315 1_545 S
C36 O31 1.279 . S
C37 O38 1.315 . S
C37 O39 1.279 . S
O38 Cd30 2.223 . S
O38 C37 1.315 . S
O39 Cd29 2.240 . S
O39 C37 1.279 . S
O40 Cd30 2.297 . S
O40 C35 1.247 . S
O41 Cd30 2.439 . S
O41 C35 1.208 . S
O42 Cd43 2.223 . S
O42 C50 1.315 1_565 S
Cd43 O42 2.223 . S
Cd43 O46 2.297 . S
Cd43 O47 2.439 . S
Cd43 O53 2.240 . S
Cd44 O45 2.240 1_565 S
Cd44 O52 2.223 . S
Cd44 O54 2.297 1_655 S
Cd44 O55 2.439 . S
O45 Cd44 2.240 1_545 S
O45 C50 1.279 . S
O46 Cd43 2.297 . S
O46 C48 1.247 . S
O47 Cd43 2.439 . S
O47 C48 1.208 . S
C48 O46 1.247 . S
C48 O47 1.208 . S
C49 O54 1.247 1_655 S
C49 O55 1.208 . S
C50 O42 1.315 1_545 S
C50 O45 1.279 . S
C51 O52 1.315 . S
C51 O53 1.279 . S
O52 Cd44 2.223 . S
O52 C51 1.315 . S
O53 Cd43 2.240 . S
O53 C51 1.279 . S
O54 Cd44 2.297 1_455 S
O54 C49 1.247 1_455 S
O55 Cd44 2.439 . S
O55 C49 1.208 . S
O56 Cd57 2.223 . S
O56 C64 1.315 . S
Cd57 O56 2.223 . S
Cd57 O60 2.297 1_455 S
Cd57 O61 2.439 . S
Cd57 O67 2.240 . S
Cd58 O59 2.240 . S
Cd58 O66 2.223 . S
Cd58 O68 2.297 . S
Cd58 O69 2.439 . S
O59 Cd58 2.240 . S
O59 C64 1.279 . S
O60 Cd57 2.297 1_655 S
O60 C62 1.247 1_655 S
O61 Cd57 2.439 . S
O61 C62 1.208 . S
C62 O60 1.247 1_455 S
C62 O61 1.208 . S
C63 O68 1.247 . S
C63 O69 1.208 . S
C64 O56 1.315 . S
C64 O59 1.279 . S
C65 O66 1.315 . S
C65 O67 1.279 . S
O66 Cd58 2.223 . S
O66 C65 1.315 . S
O67 Cd57 2.240 . S
O67 C65 1.279 . S
O68 Cd58 2.297 . S
O68 C63 1.247 . S
O69 Cd58 2.439 . S
O69 C63 1.208 . S
O70 Cd71 2.223 . S
O70 C78 1.315 . S
Cd71 O70 2.223 . S
Cd71 O74 2.297 . S
Cd71 O75 2.439 . S
Cd71 O81 2.240 . S
Cd72 O73 2.240 . S
Cd72 O80 2.223 . S
Cd72 O82 2.297 1_455 S
Cd72 O83 2.439 . S
O73 Cd72 2.240 . S
O73 C78 1.279 . S
O74 Cd71 2.297 . S
O74 C76 1.247 . S
O75 Cd71 2.439 . S
O75 C76 1.208 . S
C76 O74 1.247 . S
C76 O75 1.208 . S
C77 O82 1.247 1_455 S
C77 O83 1.208 . S
C78 O70 1.315 . S
C78 O73 1.279 . S
C79 O80 1.315 . S
C79 O81 1.279 . S
O80 Cd72 2.223 . S
O80 C79 1.315 . S
O81 Cd71 2.240 . S
O81 C79 1.279 . S
O82 Cd72 2.297 1_655 S
O82 C77 1.247 1_655 S
O83 Cd72 2.439 . S
O83 C77 1.208 . S
O84 Cd85 2.223 . S
O84 C92 1.315 . S
Cd85 O84 2.223 . S
Cd85 O88 2.297 1_655 S
Cd85 O89 2.439 . S
Cd85 O95 2.240 . S
Cd86 O87 2.240 . S
Cd86 O94 2.223 . S
Cd86 O96 2.297 . S
Cd86 O97 2.439 . S
O87 Cd86 2.240 . S
O87 C92 1.279 . S
O88 Cd85 2.297 1_455 S
O88 C90 1.247 1_455 S
O89 Cd85 2.439 . S
O89 C90 1.208 . S
C90 O88 1.247 1_655 S
C90 O89 1.208 . S
C91 O96 1.247 . S
C91 O97 1.208 . S
C92 O84 1.315 . S
C92 O87 1.279 . S
C93 O94 1.315 . S
C93 O95 1.279 . S
O94 Cd86 2.223 . S
O94 C93 1.315 . S
O95 Cd85 2.240 . S
O95 C93 1.279 . S
O96 Cd86 2.297 . S
O96 C91 1.247 . S
O97 Cd86 2.439 . S
O97 C91 1.208 . S
O98 Cd99 2.223 . S
O98 C106 1.315 . S
Cd99 O98 2.223 . S
Cd99 O102 2.297 . S
Cd99 O103 2.439 . S
Cd99 O109 2.240 . S
Cd100 O101 2.240 . S
Cd100 O108 2.223 . S
Cd100 O110 2.297 1_655 S
Cd100 O111 2.439 . S
O101 Cd100 2.240 . S
O101 C106 1.279 . S
O102 Cd99 2.297 . S
O102 C104 1.247 . S
O103 Cd99 2.439 . S
O103 C104 1.208 . S
C104 O102 1.247 . S
C104 O103 1.208 . S
C105 O110 1.247 1_655 S
C105 O111 1.208 . S
C106 O98 1.315 . S
C106 O101 1.279 . S
C107 O108 1.315 . S
C107 O109 1.279 . S
O108 Cd100 2.223 . S
O108 C107 1.315 . S
O109 Cd99 2.240 . S
O109 C107 1.279 . S
O110 Cd100 2.297 1_455 S
O110 C105 1.247 1_455 S
O111 Cd100 2.439 . S
O111 C105 1.208 . S
O112 Cd113 2.223 . S
O112 C120 1.315 1_545 S
Cd113 O112 2.223 . S
Cd113 O116 2.297 . S
Cd113 O117 2.439 . S
Cd113 O123 2.240 . S
Cd114 O115 2.240 1_545 S
Cd114 O122 2.223 . S
Cd114 O124 2.297 . S
Cd114 O125 2.439 . S
O115 Cd114 2.240 1_565 S
O115 C120 1.279 . S
O116 Cd113 2.297 . S
O116 C118 1.247 . S
O117 Cd113 2.439 . S
O117 C118 1.208 . S
C118 O116 1.247 . S
C118 O117 1.208 . S
C119 O124 1.247 . S
C119 O125 1.208 . S
C120 O112 1.315 1_565 S
C120 O115 1.279 . S
C121 O122 1.315 . S
C121 O123 1.279 . S
O122 Cd114 2.223 . S
O122 C121 1.315 . S
O123 Cd113 2.240 . S
O123 C121 1.279 . S
O124 Cd114 2.297 . S
O124 C119 1.247 . S
O125 Cd114 2.439 . S
O125 C119 1.208 . S
O126 Cd127 2.223 . S
O126 C134 1.315 1_545 S
Cd127 O126 2.223 . S
Cd127 O130 2.297 . S
Cd127 O131 2.439 . S
Cd127 O137 2.240 . S
Cd128 O129 2.240 1_545 S
Cd128 O136 2.223 . S
Cd128 O138 2.297 . S
Cd128 O139 2.439 . S
O129 Cd128 2.240 1_565 S
O129 C134 1.279 . S
O130 Cd127 2.297 . S
O130 C132 1.247 . S
O131 Cd127 2.439 . S
O131 C132 1.208 . S
C132 O130 1.247 . S
C132 O131 1.208 . S
C133 O138 1.247 . S
C133 O139 1.208 . S
C134 O126 1.315 1_565 S
C134 O129 1.279 . S
C135 O136 1.315 . S
C135 O137 1.279 . S
O136 Cd128 2.223 . S
O136 C135 1.315 . S
O137 Cd127 2.240 . S
O137 C135 1.279 . S
O138 Cd128 2.297 . S
O138 C133 1.247 . S
O139 Cd128 2.439 . S
O139 C133 1.208 . S
O140 Cd141 2.223 . S
O140 C148 1.315 1_565 S
Cd141 O140 2.223 . S
Cd141 O144 2.297 . S
Cd141 O145 2.439 . S
Cd141 O151 2.240 . S
Cd142 O143 2.240 1_565 S
Cd142 O150 2.223 . S
Cd142 O152 2.297 . S
Cd142 O153 2.439 . S
O143 Cd142 2.240 1_545 S
O143 C148 1.279 . S
O144 Cd141 2.297 . S
O144 C146 1.247 . S
O145 Cd141 2.439 . S
O145 C146 1.208 . S
C146 O144 1.247 . S
C146 O145 1.208 . S
C147 O152 1.247 . S
C147 O153 1.208 . S
C148 O140 1.315 1_545 S
C148 O143 1.279 . S
C149 O150 1.315 . S
C149 O151 1.279 . S
O150 Cd142 2.223 . S
O150 C149 1.315 . S
O151 Cd141 2.240 . S
O151 C149 1.279 . S
O152 Cd142 2.297 . S
O152 C147 1.247 . S
O153 Cd142 2.439 . S
O153 C147 1.208 . S
O154 Cd155 2.223 . S
O154 C162 1.315 1_565 S
Cd155 O154 2.223 . S
Cd155 O158 2.297 . S
Cd155 O159 2.439 . S
Cd155 O165 2.240 . S
Cd156 O157 2.240 1_565 S
Cd156 O164 2.223 . S
Cd156 O166 2.297 . S
Cd156 O167 2.439 . S
O157 Cd156 2.240 1_545 S
O157 C162 1.279 . S
O158 Cd155 2.297 . S
O158 C160 1.247 . S
O159 Cd155 2.439 . S
O159 C160 1.208 . S
C160 O158 1.247 . S
C160 O159 1.208 . S
C161 O166 1.247 . S
C161 O167 1.208 . S
C162 O154 1.315 1_545 S
C162 O157 1.279 . S
C163 O164 1.315 . S
C163 O165 1.279 . S
O164 Cd156 2.223 . S
O164 C163 1.315 . S
O165 Cd155 2.240 . S
O165 C163 1.279 . S
O166 Cd156 2.297 . S
O166 C161 1.247 . S
O167 Cd156 2.439 . S
O167 C161 1.208 . S
O168 Cd169 2.223 . S
O168 C176 1.315 . S
Cd169 O168 2.223 . S
Cd169 O172 2.297 . S
Cd169 O173 2.439 . S
Cd169 O179 2.240 . S
Cd170 O171 2.240 . S
Cd170 O178 2.223 . S
Cd170 O180 2.297 . S
Cd170 O181 2.439 . S
O171 Cd170 2.240 . S
O171 C176 1.279 . S
O172 Cd169 2.297 . S
O172 C174 1.247 . S
O173 Cd169 2.439 . S
O173 C174 1.208 . S
C174 O172 1.247 . S
C174 O173 1.208 . S
C175 O180 1.247 . S
C175 O181 1.208 . S
C176 O168 1.315 . S
C176 O171 1.279 . S
C177 O178 1.315 . S
C177 O179 1.279 . S
O178 Cd170 2.223 . S
O178 C177 1.315 . S
O179 Cd169 2.240 . S
O179 C177 1.279 . S
O180 Cd170 2.297 . S
O180 C175 1.247 . S
O181 Cd170 2.439 . S
O181 C175 1.208 . S
O182 Cd183 2.223 . S
O182 C190 1.315 . S
Cd183 O182 2.223 . S
Cd183 O186 2.297 . S
Cd183 O187 2.439 . S
Cd183 O193 2.240 . S
Cd184 O185 2.240 . S
Cd184 O192 2.223 . S
Cd184 O194 2.297 . S
Cd184 O195 2.439 . S
O185 Cd184 2.240 . S
O185 C190 1.279 . S
O186 Cd183 2.297 . S
O186 C188 1.247 . S
O187 Cd183 2.439 . S
O187 C188 1.208 . S
C188 O186 1.247 . S
C188 O187 1.208 . S
C189 O194 1.247 . S
C189 O195 1.208 . S
C190 O182 1.315 . S
C190 O185 1.279 . S
C191 O192 1.315 . S
C191 O193 1.279 . S
O192 Cd184 2.223 . S
O192 C191 1.315 . S
O193 Cd183 2.240 . S
O193 C191 1.279 . S
O194 Cd184 2.297 . S
O194 C189 1.247 . S
O195 Cd184 2.439 . S
O195 C189 1.208 . S
O196 Cd197 2.223 . S
O196 C204 1.315 . S
Cd197 O196 2.223 . S
Cd197 O200 2.297 . S
Cd197 O201 2.439 . S
Cd197 O207 2.240 . S
Cd198 O199 2.240 . S
Cd198 O206 2.223 . S
Cd198 O208 2.297 . S
Cd198 O209 2.439 . S
O199 Cd198 2.240 . S
O199 C204 1.279 . S
O200 Cd197 2.297 . S
O200 C202 1.247 . S
O201 Cd197 2.439 . S
O201 C202 1.208 . S
C202 O200 1.247 . S
C202 O201 1.208 . S
C203 O208 1.247 . S
C203 O209 1.208 . S
C204 O196 1.315 . S
C204 O199 1.279 . S
C205 O206 1.315 . S
C205 O207 1.279 . S
O206 Cd198 2.223 . S
O206 C205 1.315 . S
O207 Cd197 2.240 . S
O207 C205 1.279 . S
O208 Cd198 2.297 . S
O208 C203 1.247 . S
O209 Cd198 2.439 . S
O209 C203 1.208 . S
O210 Cd211 2.223 . S
O210 C218 1.315 . S
Cd211 O210 2.223 . S
Cd211 O214 2.297 . S
Cd211 O215 2.439 . S
Cd211 O221 2.240 . S
Cd212 O213 2.240 . S
Cd212 O220 2.223 . S
Cd212 O222 2.297 . S
Cd212 O223 2.439 . S
O213 Cd212 2.240 . S
O213 C218 1.279 . S
O214 Cd211 2.297 . S
O214 C216 1.247 . S
O215 Cd211 2.439 . S
O215 C216 1.208 . S
C216 O214 1.247 . S
C216 O215 1.208 . S
C217 O222 1.247 . S
C217 O223 1.208 . S
C218 O210 1.315 . S
C218 O213 1.279 . S
C219 O220 1.315 . S
C219 O221 1.279 . S
O220 Cd212 2.223 . S
O220 C219 1.315 . S
O221 Cd211 2.240 . S
O221 C219 1.279 . S
O222 Cd212 2.297 . S
O222 C217 1.247 . S
O223 Cd212 2.439 . S
O223 C217 1.208 . S
C203 C7 1.512 . S
C34 C6 1.512 1_665 S
C160 C20 1.512 1_565 S
C21 C105 1.512 1_455 S
C35 C175 1.512 . S
C132 C48 1.512 1_545 S
C49 C77 1.512 1_655 S
C147 C63 1.512 1_554 S
C62 C90 1.512 1_456 S
C216 C76 1.512 . S
C119 C91 1.512 1_556 S
C188 C104 1.512 . S
C118 C146 1.512 1_546 S
C217 C133 1.512 . S
C161 C189 1.512 . S
C202 C174 1.512 . S
C79 C8 1.772 . S
C9 C78 1.772 . S
C23 C64 1.772 . S
C65 C22 1.772 . S
C107 C36 1.772 . S
C106 C37 1.772 . S
C92 C51 1.772 . S
C50 C93 1.772 . S
C191 C120 1.772 . S
C121 C190 1.772 . S
C135 C176 1.772 . S
C177 C134 1.772 . S
C219 C148 1.772 . S
C218 C149 1.772 . S
C163 C204 1.772 . S
C205 C162 1.772 . S
