# Generated by pormake.
# Topology kag, (6)-cn, num edge types: 1
# Building blocks:
#     Node 0, Type 0, BuildingBlock: CUKXOW_clean_sbu_0, # of connection points: 6
#     Node 1, Type 0, BuildingBlock: CUKXOW_clean_sbu_0, # of connection points: 6
#     Node 2, Type 0, BuildingBlock: CUKXOW_clean_sbu_0, # of connection points: 6
#     Edge 3, Type (0, 0), BuildingBlock: EYOCIG_clean_linker_4, # of connection points: 2
#     Edge 4, Type (0, 0), BuildingBlock: EYOCIG_clean_linker_4, # of connection points: 2
#     Edge 5, Type (0, 0), BuildingBlock: EYOCIG_clean_linker_4, # of connection points: 2
#     Edge 6, Type (0, 0), BuildingBlock: EYOCIG_clean_linker_4, # of connection points: 2
#     Edge 7, Type (0, 0), BuildingBlock: EYOCIG_clean_linker_4, # of connection points: 2
#     Edge 8, Type (0, 0), BuildingBlock: EYOCIG_clean_linker_4, # of connection points: 2
#     Edge 9, Type (0, 0), BuildingBlock: EYOCIG_clean_linker_4, # of connection points: 2
#     Edge 10, Type (0, 0), BuildingBlock: EYOCIG_clean_linker_4, # of connection points: 2
#     Edge 11, Type (0, 0), BuildingBlock: EYOCIG_clean_linker_4, # of connection points: 2
# Relax obj value: 0.024
# Max RMSD: 0.117
# Mean RMSD: 0.073
data_MOF--net-kag--node1-CUKXOW_clean_sbu_0--edge1-EYOCIG_clean_linker_4
_symmetry_space_group_name_H-M    P1
_symmetry_Int_Tables_number       1
_symmetry_cell_setting            triclinic
loop_
_symmetry_equiv_pos_as_xyz
'x, y, z'
_cell_length_a     22.755308
_cell_length_b     29.270358
_cell_length_c     12.076292
_cell_angle_alpha  89.481899
_cell_angle_beta   100.76558
_cell_angle_gamma 121.27815
loop_
_atom_site_label
_atom_site_type_symbol
_atom_site_fract_x
_atom_site_fract_y
_atom_site_fract_z
_atom_type_partial_charge
Tb0 Tb 0.08329 0.56717 0.00275 0.0
C1 C 0.04764 0.50908 0.22568 0.0
Tb2 Tb 0.99456 0.43893 0.98441 0.0
O3 O 0.99612 0.58073 -0.00349 0.0
O4 O 0.97844 0.50396 0.98554 0.0
O5 O 0.08629 0.55508 0.18311 0.0
C6 C 0.887 0.33832 0.97467 0.0
O7 O 1.0066 0.46169 0.16369 0.0
C8 C 0.1298 0.47646 -0.00014 0.0
C9 C 1.02852 0.49714 0.7611 0.0
O10 O 0.93859 0.36419 0.06136 0.0
O11 O 0.89605 0.36864 0.89243 0.0
O12 O 0.08204 0.4256 0.99074 0.0
O13 O 0.09941 0.50218 0.00134 0.0
O14 O 0.99046 0.45112 0.80398 0.0
O15 O 0.06987 0.54451 0.82299 0.0
C16 C 0.19134 0.66732 0.01039 0.0
O17 O 0.13941 0.64133 0.92427 0.0
O18 O 0.18231 0.63744 0.09343 0.0
C19 C 0.94826 0.52986 0.98705 0.0
Tb20 Tb 0.49285 0.03099 0.97726 0.0
C21 C 0.54392 0.00716 0.22137 0.0
Tb22 Tb 0.58623 0.97485 0.01183 0.0
O23 O 0.38955 0.95369 0.96298 0.0
O24 O 0.48382 0.95751 0.98462 0.0
O25 O 0.51582 0.03175 0.1603 0.0
C26 C 0.57969 0.8825 0.01505 0.0
O27 O 0.56953 0.98058 0.1813 0.0
C28 C 0.6597 0.08051 0.01201 0.0
C29 C 0.53586 0.99943 0.76805 0.0
O30 O 0.60851 0.91867 0.10183 0.0
O31 O 0.55972 0.89979 0.92565 0.0
O32 O 0.6894 0.0519 0.02376 0.0
O33 O 0.59528 0.0483 0.00455 0.0
O34 O 0.56345 0.97434 0.82861 0.0
O35 O 0.51084 0.02629 0.80866 0.0
C36 C 0.49809 0.12293 0.97469 0.0
O37 O 0.47008 0.08703 0.88754 0.0
O38 O 0.51806 0.10557 0.06396 0.0
C39 C 0.41929 0.92513 0.97515 0.0
Tb40 Tb 0.57737 0.56759 0.00803 0.0
C41 C 0.53369 0.5046 0.76689 0.0
Tb42 Tb 0.50116 0.43905 0.98073 0.0
O43 O 0.68667 0.5864 0.02236 0.0
O44 O 0.60148 0.50858 0.00246 0.0
O45 O 0.55554 0.55068 0.8255 0.0
C46 C 0.5067 0.35158 0.98182 0.0
O47 O 0.51479 0.45833 0.80994 0.0
C48 C 0.41139 0.47105 0.9756 0.0
C49 C 0.54422 0.5023 0.2219 0.0
O50 O 0.47586 0.36378 0.89547 0.0
O51 O 0.53111 0.38682 0.06845 0.0
O52 O 0.39178 0.42039 0.96503 0.0
O53 O 0.47708 0.4981 0.986 0.0
O54 O 0.52131 0.45595 0.16323 0.0
O55 O 0.56455 0.54874 0.17906 0.0
C56 C 0.57095 0.65453 0.00849 0.0
O57 O 0.59988 0.64141 0.09565 0.0
O58 O 0.54932 0.62075 0.92026 0.0
C59 C 0.66709 0.53572 0.01182 0.0
C60 C 1.034 0.50053 0.54204 0.0
C61 C 1.02918 0.49632 0.64086 0.0
C62 C 0.04081 0.50583 0.44423 0.0
C63 C 0.04621 0.50994 0.34563 0.0
C64 C 0.54038 0.00514 0.43703 0.0
C65 C 0.54201 0.00605 0.33844 0.0
C66 C 0.53713 0.00214 0.55164 0.0
C67 C 0.53687 1.00057 0.65069 0.0
C68 C 0.53692 0.5046 0.55135 0.0
C69 C 0.53585 0.50554 0.65002 0.0
C70 C 0.54037 0.50297 0.43715 0.0
C71 C 0.54168 0.50167 0.33862 0.0
C72 C 0.25858 0.50177 0.99354 0.0
C73 C 0.20248 0.49649 -0.00261 0.0
C74 C 0.31882 0.49924 0.98744 0.0
C75 C 0.36515 0.49063 0.98301 0.0
C76 C 0.72986 0.18499 0.98871 0.0
C77 C 0.69405 0.13744 -0.00143 0.0
C78 C 0.78003 0.23944 0.97805 0.0
C79 C 0.82775 0.28459 0.97255 0.0
C80 C 0.55566 0.78468 0.0168 0.0
C81 C 0.56712 0.82955 0.01779 0.0
C82 C 0.55317 0.73592 0.01333 0.0
C83 C 0.56104 0.69859 0.01023 0.0
C84 C 0.81952 0.50483 0.99235 0.0
C85 C 0.87557 0.50997 0.98891 0.0
C86 C 0.75942 0.50751 -0.00149 0.0
C87 C 0.71325 0.51619 0.00364 0.0
C88 C 0.29852 0.76585 0.00524 0.0
C89 C 0.25067 0.72086 0.01139 0.0
C90 C 0.34881 0.82031 -0.00495 0.0
C91 C 0.38476 0.86802 0.9868 0.0
C92 C 0.52276 0.26919 0.97785 0.0
C93 C 0.51573 0.30699 0.98063 0.0
C94 C 0.52039 0.22039 0.97421 0.0
C95 C 0.50971 0.17569 0.97259 0.0
loop_
_geom_bond_atom_site_label_1
_geom_bond_atom_site_label_2
_geom_bond_distance
_geom_bond_site_symmetry_2
_ccdc_geom_bond_type
Tb0 O3 2.453 1_455 S
Tb0 O4 2.596 1_455 S
Tb0 O5 2.374 1_556 S
Tb0 O13 2.343 1_556 S
Tb0 O15 2.353 1_455 S
Tb0 O17 2.427 . S
Tb0 O18 2.513 1_556 S
C1 O5 1.251 . S
C1 O7 1.263 . S
Tb2 O4 2.343 1_554 S
Tb2 O7 2.353 1_655 S
Tb2 O10 2.427 . S
Tb2 O11 2.513 1_554 S
Tb2 O12 2.453 1_655 S
Tb2 O13 2.596 1_655 S
Tb2 O14 2.374 1_554 S
O3 Tb0 2.453 1_655 S
O3 C19 1.245 . S
O4 Tb0 2.596 1_655 S
O4 Tb2 2.343 1_556 S
O4 C19 1.259 . S
O5 Tb0 2.374 1_554 S
O5 C1 1.251 . S
C6 O10 1.275 1_556 S
C6 O11 1.246 . S
O7 C1 1.263 . S
O7 Tb2 2.353 1_455 S
C8 O12 1.245 . S
C8 O13 1.259 . S
C9 O14 1.250 . S
C9 O15 1.263 . S
O10 Tb2 2.427 . S
O10 C6 1.275 1_554 S
O11 Tb2 2.513 1_556 S
O11 C6 1.246 . S
O12 Tb2 2.453 1_455 S
O12 C8 1.245 . S
O13 Tb0 2.343 1_554 S
O13 Tb2 2.596 1_455 S
O13 C8 1.259 . S
O14 Tb2 2.374 1_556 S
O14 C9 1.250 . S
O15 Tb0 2.353 1_655 S
O15 C9 1.263 . S
C16 O17 1.275 1_554 S
C16 O18 1.246 . S
O17 Tb0 2.427 . S
O17 C16 1.275 1_556 S
O18 Tb0 2.513 1_554 S
O18 C16 1.246 . S
C19 O3 1.245 . S
C19 O4 1.259 . S
Tb20 O23 2.453 1_545 S
Tb20 O24 2.596 1_545 S
Tb20 O25 2.374 1_556 S
Tb20 O33 2.343 1_556 S
Tb20 O35 2.353 . S
Tb20 O37 2.427 . S
Tb20 O38 2.513 1_556 S
C21 O25 1.251 . S
C21 O27 1.263 1_545 S
Tb22 O24 2.343 1_554 S
Tb22 O27 2.353 . S
Tb22 O30 2.427 . S
Tb22 O31 2.513 1_554 S
Tb22 O32 2.453 1_565 S
Tb22 O33 2.596 1_565 S
Tb22 O34 2.374 1_554 S
O23 Tb20 2.453 1_565 S
O23 C39 1.245 . S
O24 Tb20 2.596 1_565 S
O24 Tb22 2.343 1_556 S
O24 C39 1.259 . S
O25 Tb20 2.374 1_554 S
O25 C21 1.251 . S
C26 O30 1.275 . S
C26 O31 1.246 1_554 S
O27 C21 1.263 1_565 S
O27 Tb22 2.353 . S
C28 O32 1.245 . S
C28 O33 1.259 . S
C29 O34 1.249 1_545 S
C29 O35 1.264 . S
O30 Tb22 2.427 . S
O30 C26 1.275 . S
O31 Tb22 2.513 1_556 S
O31 C26 1.246 1_556 S
O32 Tb22 2.453 1_545 S
O32 C28 1.245 . S
O33 Tb20 2.343 1_554 S
O33 Tb22 2.596 1_545 S
O33 C28 1.259 . S
O34 Tb22 2.374 1_556 S
O34 C29 1.249 1_565 S
O35 Tb20 2.353 . S
O35 C29 1.264 . S
C36 O37 1.275 . S
C36 O38 1.246 1_556 S
O37 Tb20 2.427 . S
O37 C36 1.275 . S
O38 Tb20 2.513 1_554 S
O38 C36 1.246 1_554 S
C39 O23 1.245 . S
C39 O24 1.259 . S
Tb40 O43 2.453 . S
Tb40 O44 2.596 . S
Tb40 O45 2.374 1_554 S
Tb40 O53 2.343 1_554 S
Tb40 O55 2.353 . S
Tb40 O57 2.427 . S
Tb40 O58 2.513 1_554 S
C41 O45 1.251 . S
C41 O47 1.263 . S
Tb42 O44 2.343 1_556 S
Tb42 O47 2.353 . S
Tb42 O50 2.427 . S
Tb42 O51 2.513 1_556 S
Tb42 O52 2.453 . S
Tb42 O53 2.596 . S
Tb42 O54 2.374 1_556 S
O43 Tb40 2.453 . S
O43 C59 1.245 . S
O44 Tb40 2.596 . S
O44 Tb42 2.343 1_554 S
O44 C59 1.259 . S
O45 Tb40 2.374 1_556 S
O45 C41 1.251 . S
C46 O50 1.275 . S
C46 O51 1.246 1_556 S
O47 C41 1.263 . S
O47 Tb42 2.353 . S
C48 O52 1.245 . S
C48 O53 1.259 . S
C49 O54 1.250 . S
C49 O55 1.263 . S
O50 Tb42 2.427 . S
O50 C46 1.275 . S
O51 Tb42 2.513 1_554 S
O51 C46 1.246 1_554 S
O52 Tb42 2.453 . S
O52 C48 1.245 . S
O53 Tb40 2.343 1_556 S
O53 Tb42 2.596 . S
O53 C48 1.259 . S
O54 Tb42 2.374 1_554 S
O54 C49 1.250 . S
O55 Tb40 2.353 . S
O55 C49 1.263 . S
C56 O57 1.275 . S
C56 O58 1.246 1_554 S
O57 Tb40 2.427 . S
O57 C56 1.275 . S
O58 Tb40 2.513 1_556 S
O58 C56 1.246 1_556 S
C59 O43 1.245 . S
C59 O44 1.259 . S
C60 C61 1.170 . S
C60 C62 1.380 . S
C61 C60 1.170 . S
C62 C60 1.380 . S
C62 C63 1.170 1_655 S
C63 C62 1.170 1_455 S
C64 C65 1.172 . S
C64 C66 1.379 1_565 S
C65 C64 1.172 . S
C66 C64 1.379 1_545 S
C66 C67 1.170 . S
C67 C66 1.170 . S
C68 C69 1.170 . S
C68 C70 1.380 . S
C69 C68 1.170 . S
C70 C68 1.380 . S
C70 C71 1.170 . S
C71 C70 1.170 . S
C72 C73 1.170 . S
C72 C74 1.380 . S
C73 C72 1.170 . S
C74 C72 1.380 . S
C74 C75 1.170 . S
C75 C74 1.170 . S
C76 C77 1.170 . S
C76 C78 1.380 . S
C77 C76 1.170 . S
C78 C76 1.380 . S
C78 C79 1.170 . S
C79 C78 1.170 . S
C80 C81 1.170 . S
C80 C82 1.380 . S
C81 C80 1.170 . S
C82 C80 1.380 . S
C82 C83 1.170 . S
C83 C82 1.170 . S
C84 C85 1.169 . S
C84 C86 1.380 . S
C85 C84 1.169 . S
C86 C84 1.380 . S
C86 C87 1.170 . S
C87 C86 1.170 . S
C88 C89 1.170 . S
C88 C90 1.380 . S
C89 C88 1.170 . S
C90 C88 1.380 . S
C90 C91 1.170 . S
C91 C90 1.170 . S
C92 C93 1.170 . S
C92 C94 1.380 . S
C93 C92 1.170 . S
C94 C92 1.380 . S
C94 C95 1.170 . S
C95 C94 1.170 . S
C61 C9 1.493 . S
C63 C1 1.511 . S
C65 C21 1.480 1_565 S
C67 C29 1.485 . S
C69 C41 1.478 . S
C71 C49 1.494 . S
C73 C8 1.745 1_556 S
C75 C48 1.776 . S
C77 C28 1.612 1_556 S
C79 C6 1.553 . S
C81 C26 1.326 . S
C83 C56 1.318 . S
C85 C19 1.710 . S
C87 C59 1.772 1_556 S
C89 C16 1.559 . S
C91 C39 1.604 1_554 S
C93 C46 1.298 . S
C95 C36 1.327 . S
