# Generated by pormake.
# Topology pcu, (6)-cn, num edge types: 1
# Building blocks:
#     Node 0, Type 0, BuildingBlock: KUMBOL_clean_sbu_0, # of connection points: 6
#     Edge 1, Type (0, 0), BuildingBlock: MIFKUJ_clean_linker_0, # of connection points: 2
#     Edge 2, Type (0, 0), BuildingBlock: MIFKUJ_clean_linker_0, # of connection points: 2
#     Edge 3, Type (0, 0), BuildingBlock: MIFKUJ_clean_linker_0, # of connection points: 2
# Relax obj value: 0.000
# Max RMSD: 0.000
# Mean RMSD: 0.000
data_MOF--net-pcu--node1-KUMBOL_clean_sbu_0--edge1-MIFKUJ_clean_linker_0
_symmetry_space_group_name_H-M    P1
_symmetry_Int_Tables_number       1
_symmetry_cell_setting            triclinic
loop_
_symmetry_equiv_pos_as_xyz
'x, y, z'
_cell_length_a     28.863114
_cell_length_b     18.435042
_cell_length_c     19.737213
_cell_angle_alpha  74.612988
_cell_angle_beta   115.04616
_cell_angle_gamma 117.21651
loop_
_atom_site_label
_atom_site_type_symbol
_atom_site_fract_x
_atom_site_fract_y
_atom_site_fract_z
_atom_type_partial_charge
Gd0 Gd 0.09538 0.07151 0.02265 0.0
Gd1 Gd 0.94299 0.9493 0.96728 0.0
C2 C 0.86701 0.67696 0.93478 0.0
C3 C 0.81514 0.67563 0.80049 0.0
C4 C 0.86619 0.80372 0.85914 0.0
C5 C 0.88414 0.76271 0.92803 0.0
C6 C 0.83039 0.76051 0.79481 0.0
C7 C 0.83352 0.63392 0.87036 0.0
C8 C 0.88297 0.63689 0.00628 0.0
C9 C 0.91357 0.68194 0.06893 0.0
N10 N 0.91619 0.80622 0.98908 0.0
C11 C 0.92925 0.76685 0.05938 0.0
H12 H 0.95312 0.80071 0.10836 0.0
C13 C 0.85934 0.9272 0.79109 0.0
N14 N 0.8815 0.88553 0.85583 0.0
C15 C 0.82383 0.88716 0.72564 0.0
C16 C 0.80985 0.80362 0.72725 0.0
H17 H 0.87037 0.99191 0.78953 0.0
H18 H 0.8205 0.56818 0.87428 0.0
H19 H 0.08532 0.22007 0.88152 0.0
H20 H 0.87087 0.57115 0.01385 0.0
H21 H 0.9253 0.65138 0.12463 0.0
H22 H 0.78814 0.64142 0.75156 0.0
H23 H 0.16795 0.02894 0.20045 0.0
H24 H 0.16756 0.44968 0.97595 0.0
H25 H 0.11316 0.36941 0.86519 0.0
H26 H 0.25018 0.37947 0.23828 0.0
H27 H 0.80738 0.92075 0.67403 0.0
H28 H 0.78224 0.77269 0.67654 0.0
H29 H 0.21787 0.45268 0.11552 0.0
H30 H 0.2309 0.10013 0.31593 0.0
N31 N 0.1222 0.2146 0.0008 0.0
C32 C 0.15545 0.38393 0.98354 0.0
C33 C 0.12487 0.33886 0.9209 0.0
C34 C 0.17138 0.34388 0.05506 0.0
C35 C 0.15423 0.25813 0.06183 0.0
C36 C 0.10917 0.25395 0.93049 0.0
N37 N 0.15683 0.13531 0.13409 0.0
C38 C 0.17216 0.21713 0.13075 0.0
C39 C 0.21447 0.13371 0.2643 0.0
C40 C 0.22845 0.21726 0.26266 0.0
C41 C 0.17898 0.09365 0.19886 0.0
C42 C 0.20793 0.26035 0.19507 0.0
H43 H 0.25605 0.24821 0.31336 0.0
O44 O 0.16279 0.03336 0.05039 0.0
O45 O 0.02632 0.95014 -0.00354 0.0
O46 O 0.98704 0.94859 0.0943 0.0
O47 O 0.06955 0.06609 0.11714 0.0
O48 O 0.09745 0.94995 0.08478 0.0
O49 O 0.14437 0.11494 0.95072 0.0
O50 O 0.87556 0.9874 0.93958 0.0
O51 O 1.01204 0.07057 0.99335 0.0
O52 O 0.05134 0.07221 0.89561 0.0
O53 O 0.96878 0.95477 0.87273 0.0
O54 O 0.94092 0.07095 0.90526 0.0
O55 O 0.89405 0.90586 0.03927 0.0
C56 C 0.04861 0.90395 0.04414 0.0
C57 C 0.22319 0.34525 0.18936 0.0
C58 C 0.20485 0.38694 0.11946 0.0
C59 C 0.17791 0.07877 0.99438 0.0
C60 C 0.2379 0.12866 0.01258 0.0
C61 C 0.26189 0.20514 0.04039 0.0
C62 C 0.27175 0.09897 0.00336 0.0
C63 C 0.32949 0.14562 0.02176 0.0
C64 C 0.31894 0.25142 0.05909 0.0
C65 C 0.35258 0.22203 0.05002 0.0
C66 C 0.02896 1.00606 0.13823 0.0
C67 C 0.98981 0.11689 0.94582 0.0
C68 C 0.86048 0.942 -0.00438 0.0
C69 C 0.8005 0.89207 0.97747 0.0
C70 C 0.77651 0.81557 0.9497 0.0
C71 C 0.76665 0.92175 0.9867 0.0
C72 C 0.70891 0.87508 0.96834 0.0
C73 C 0.71947 0.76927 0.93104 0.0
C74 C 0.68582 0.79865 0.94011 0.0
C75 C 1.00939 0.0148 0.85166 0.0
H76 H 0.23662 0.22906 0.04774 0.0
H77 H 0.25299 0.04014 0.98117 0.0
H78 H 0.33721 0.3102 0.08097 0.0
H79 H 0.39688 0.25881 0.06612 0.0
H80 H 0.80178 0.79166 0.94234 0.0
H81 H 0.7854 0.98059 0.00887 0.0
H82 H 0.7012 0.71048 0.90918 0.0
H83 H 0.64153 0.76185 0.92404 0.0
H84 H 0.95863 0.88775 0.2081 0.0
H85 H 0.95588 0.88964 0.32957 0.0
H86 H 0.09657 0.12209 0.361 0.0
H87 H 0.09938 0.12144 0.23935 0.0
H88 H 0.10494 0.01526 0.48964 0.0
H89 H 0.97052 0.11763 0.30417 0.0
H90 H 0.88959 0.11426 0.1889 0.0
H91 H 0.78463 0.89528 0.28193 0.0
H92 H 0.86521 0.89644 0.39731 0.0
H93 H 0.07974 0.13309 0.78181 0.0
H94 H 0.08248 0.13123 0.66033 0.0
H95 H 0.94173 0.89885 0.62883 0.0
H96 H 0.93892 0.89948 0.75048 0.0
H97 H 0.93339 1.00564 0.50022 0.0
H98 H 0.0678 0.90327 0.68568 0.0
H99 H 0.14873 0.90659 0.80094 0.0
H100 H 0.25371 0.12555 0.70792 0.0
H101 H 0.17313 0.12443 0.59256 0.0
C102 C 0.98924 0.93915 0.24089 0.0
C103 C 0.02938 1.00434 0.2139 0.0
C104 C 0.98751 0.94013 0.31029 0.0
C105 C 0.02574 1.00632 0.35391 0.0
C106 C 0.06678 0.07036 0.32821 0.0
C107 C 0.06838 0.06969 0.25865 0.0
C108 C 0.02189 1.0099 0.42537 0.0
C109 C 0.06773 0.01419 0.49193 0.0
C110 C 0.97284 1.00692 0.42821 0.0
C111 C 0.92411 1.00662 0.35915 0.0
C112 C 0.9303 0.06833 0.29985 0.0
C113 C 0.88446 0.06688 0.23448 0.0
C114 C 0.83202 1.00445 0.22799 0.0
C115 C 0.82531 0.9435 0.28698 0.0
C116 C 0.87105 0.94455 0.35239 0.0
C117 C 0.04911 0.08171 0.749 0.0
C118 C 1.00896 0.01654 0.77597 0.0
C119 C 0.05084 0.08075 0.6796 0.0
C120 C 1.0126 0.01458 0.63595 0.0
C121 C 0.97154 0.95056 0.66163 0.0
C122 C 0.96994 0.95122 0.7312 0.0
C123 C 1.01644 0.01101 0.56449 0.0
C124 C 0.97061 1.00672 0.49793 0.0
C125 C 0.0655 0.01398 0.56165 0.0
C126 C 0.11423 0.01427 0.6307 0.0
C127 C 0.10802 0.95255 0.69 0.0
C128 C 0.15386 0.95398 0.75536 0.0
C129 C 0.2063 0.01639 0.76186 0.0
C130 C 0.21303 0.07734 0.70288 0.0
C131 C 0.16729 0.07632 0.63747 0.0
H132 H 0.24175 0.01742 0.81249 0.0
H133 H 0.79658 1.0034 0.17735 0.0
H134 H 0.41538 0.23326 0.96872 0.0
H135 H 0.47917 0.18637 0.96048 0.0
H136 H 0.38985 0.94215 0.04282 0.0
H137 H 0.32669 0.98939 0.05365 0.0
H138 H 0.50155 0.9887 0.11293 0.0
H139 H 0.37585 0.98758 0.85851 0.0
H140 H 0.32265 0.04578 0.74068 0.0
H141 H 0.47492 0.2346 0.71872 0.0
H142 H 0.52907 0.17808 0.837 0.0
H143 H 0.62304 0.78743 0.02142 0.0
H144 H 0.55924 0.8343 0.02966 0.0
H145 H 0.64851 0.07851 0.94725 0.0
H146 H 0.71168 0.03129 0.93642 0.0
H147 H 0.53683 0.03195 0.87717 0.0
H148 H 0.66252 0.03311 0.13159 0.0
H149 H 0.71574 0.97495 0.24943 0.0
H150 H 0.56348 0.7861 0.27141 0.0
H151 H 0.50932 0.84257 0.15311 0.0
C152 C 0.40936 0.1696 0.98548 0.0
C153 C 0.366 0.11523 0.01225 0.0
C154 C 0.44562 0.1427 0.98005 0.0
C155 C 0.43914 0.06058 0.0005 0.0
C156 C 0.39565 1.00581 0.02666 0.0
C157 C 0.35926 0.03274 0.03216 0.0
C158 C 0.47855 0.03269 -0.00417 0.0
C159 C 0.50863 0.99701 0.0611 0.0
C160 C 0.48893 0.04548 0.9287 0.0
C161 C 0.45651 0.07897 0.85698 0.0
C162 C 0.398 0.04182 0.82882 0.0
C163 C 0.36766 0.07448 0.76191 0.0
C164 C 0.39537 0.14399 0.72234 0.0
C165 C 0.4535 0.1808 0.74947 0.0
C166 C 0.48405 0.14841 0.81639 0.0
C167 C 0.62905 0.85108 0.00464 0.0
C168 C 0.67239 0.90545 0.97785 0.0
C169 C 0.59278 0.87798 0.01008 0.0
C170 C 0.59924 0.96008 0.9896 0.0
C171 C 0.64272 0.01486 0.96342 0.0
C172 C 0.67912 0.98794 0.95793 0.0
C173 C 0.55982 0.98796 0.99427 0.0
C174 C 0.52974 0.02364 0.92899 0.0
C175 C 0.54944 0.97517 0.0614 0.0
C176 C 0.58187 0.9417 0.13312 0.0
C177 C 0.64038 0.97887 0.16128 0.0
C178 C 0.67073 0.94624 0.2282 0.0
C179 C 0.64303 0.87672 0.26778 0.0
C180 C 0.58489 0.8399 0.24065 0.0
C181 C 0.55434 0.87226 0.17372 0.0
H182 H 0.6666 0.8515 0.31954 0.0
H183 H 0.3718 0.16923 0.67059 0.0
H184 H 0.0802 0.79195 0.15083 0.0
H185 H 0.07034 0.65803 0.1334 0.0
H186 H 0.98314 0.69393 0.89624 0.0
H187 H 0.99478 0.82899 0.91299 0.0
H188 H 0.93385 0.53124 0.96845 0.0
H189 H 0.10652 0.72532 0.94037 0.0
H190 H 0.19909 0.83839 0.97689 0.0
H191 H 0.25643 0.69171 0.17597 0.0
H192 H 0.16378 0.57819 0.14135 0.0
H193 H 0.95844 0.2291 0.83925 0.0
H194 H 0.96838 0.36301 0.85681 0.0
H195 H 0.05534 0.32672 0.09399 0.0
H196 H 0.0436 0.19165 0.0771 0.0
H197 H 0.10476 0.48958 0.02184 0.0
H198 H 0.9321 0.29551 0.04993 0.0
H199 H 0.83954 0.18243 0.0134 0.0
H200 H 0.7822 0.3291 0.8143 0.0
H201 H 0.87484 0.44263 0.84894 0.0
C202 C 0.05844 0.77079 0.09514 0.0
C203 C 0.03701 0.81999 0.03361 0.0
C204 C 0.05289 0.69448 0.08524 0.0
C205 C 0.02593 0.66606 0.01356 0.0
C206 C 1.00373 0.71449 0.9521 0.0
C207 C 1.01007 0.79145 0.96183 0.0
C208 C 0.0232 0.58742 0.00253 0.0
C209 C 0.97111 0.52238 0.9792 0.0
C210 C 0.07201 0.57562 0.01794 0.0
C211 C 0.12792 0.64359 0.03877 0.0
C212 C 0.13865 0.71744 0.99238 0.0
C213 C 0.19119 0.78159 0.01264 0.0
C214 C 0.23356 0.77235 0.07885 0.0
C215 C 0.22351 0.69884 0.12479 0.0
C216 C 0.17099 0.63457 0.10487 0.0
C217 C 0.98016 0.25017 0.89497 0.0
C218 C 1.00151 0.20086 0.95646 0.0
C219 C 0.98576 0.32648 0.90494 0.0
C220 C 1.01268 0.35479 0.97666 0.0
C221 C 0.03479 0.30625 0.03809 0.0
C222 C 0.0284 0.22929 0.02828 0.0
C223 C 1.01541 0.43341 0.98776 0.0
C224 C 0.06751 0.49845 0.0111 0.0
C225 C 0.96661 0.44521 0.97236 0.0
C226 C 0.91071 0.37724 0.95152 0.0
C227 C 0.89997 0.30338 -0.00209 0.0
C228 C 0.84744 0.23923 0.97765 0.0
C229 C 0.80507 0.24847 0.91144 0.0
C230 C 0.81511 0.32197 0.86549 0.0
C231 C 0.86764 0.38625 0.88541 0.0
H232 H 0.7644 0.19876 0.89587 0.0
H233 H 0.27423 0.82204 0.09441 0.0
loop_
_geom_bond_atom_site_label_1
_geom_bond_atom_site_label_2
_geom_bond_distance
_geom_bond_site_symmetry_2
_ccdc_geom_bond_type
Gd0 N31 2.661 1_554 S
Gd0 N37 2.601 . S
Gd0 O44 2.545 . S
Gd0 O45 2.606 1_444 S
Gd0 O47 2.430 1_545 S
Gd0 O48 2.545 1_545 S
Gd0 O49 2.412 . S
Gd0 O51 2.362 . S
Gd0 O52 2.324 1_554 S
Gd0 C59 2.828 . S
Gd1 N10 2.661 1_556 S
Gd1 N14 2.601 . S
Gd1 O45 2.362 . S
Gd1 O46 2.324 1_556 S
Gd1 O50 2.545 . S
Gd1 O51 2.606 1_666 S
Gd1 O53 2.430 1_565 S
Gd1 O54 2.545 1_565 S
Gd1 O55 2.412 . S
Gd1 C68 2.828 . S
C2 C5 1.417 . S
C2 C7 1.431 . S
C2 C8 1.412 1_556 S
C3 C6 1.437 . S
C3 C7 1.317 . S
C3 H22 0.929 . S
C4 C5 1.426 . S
C4 C6 1.413 . S
C4 N14 1.359 . S
C5 C2 1.417 . S
C5 C4 1.426 . S
C5 N10 1.350 1_556 S
C6 C3 1.437 . S
C6 C4 1.413 . S
C6 C16 1.391 . S
C7 C2 1.431 . S
C7 C3 1.317 . S
C7 H18 0.930 . S
C8 C2 1.412 1_554 S
C8 C9 1.355 . S
C8 H20 0.930 . S
C9 C8 1.355 . S
C9 C11 1.402 . S
C9 H21 0.930 . S
N10 Gd1 2.661 1_554 S
N10 C5 1.350 1_554 S
N10 C11 1.307 . S
C11 C9 1.402 . S
C11 N10 1.307 . S
C11 H12 0.930 . S
H12 C11 0.930 . S
C13 N14 1.334 . S
C13 C15 1.394 . S
C13 H17 0.930 . S
N14 Gd1 2.601 . S
N14 C4 1.359 . S
N14 C13 1.334 . S
C15 C13 1.394 . S
C15 C16 1.359 . S
C15 H27 0.930 . S
C16 C6 1.391 . S
C16 C15 1.359 . S
C16 H28 0.929 . S
H17 C13 0.930 . S
H18 C7 0.930 . S
H19 C36 0.930 . S
H20 C8 0.930 . S
H21 C9 0.930 . S
H22 C3 0.929 . S
H23 C41 0.930 . S
H24 C32 0.930 . S
H25 C33 0.930 . S
H26 C57 0.929 . S
H27 C15 0.930 . S
H28 C16 0.929 . S
H29 C58 0.930 . S
H30 C39 0.930 . S
N31 Gd0 2.661 1_556 S
N31 C35 1.350 1_556 S
N31 C36 1.307 . S
C32 H24 0.930 . S
C32 C33 1.355 . S
C32 C34 1.412 1_556 S
C33 H25 0.930 . S
C33 C32 1.355 . S
C33 C36 1.402 . S
C34 C32 1.412 1_554 S
C34 C35 1.417 . S
C34 C58 1.431 . S
C35 N31 1.350 1_554 S
C35 C34 1.417 . S
C35 C38 1.426 . S
C36 H19 0.930 . S
C36 N31 1.307 . S
C36 C33 1.402 . S
N37 Gd0 2.601 . S
N37 C38 1.359 . S
N37 C41 1.334 . S
C38 C35 1.426 . S
C38 N37 1.359 . S
C38 C42 1.413 . S
C39 H30 0.930 . S
C39 C40 1.359 . S
C39 C41 1.394 . S
C40 C39 1.359 . S
C40 C42 1.391 . S
C40 H43 0.929 . S
C41 H23 0.930 . S
C41 N37 1.334 . S
C41 C39 1.394 . S
C42 C38 1.413 . S
C42 C40 1.391 . S
C42 C57 1.437 . S
H43 C40 0.929 . S
O44 Gd0 2.545 . S
O44 C59 1.258 . S
O45 Gd0 2.606 1_666 S
O45 Gd1 2.362 . S
O45 C56 1.284 1_656 S
O46 Gd1 2.324 1_554 S
O46 C66 1.254 1_655 S
O47 Gd0 2.430 1_565 S
O47 C66 1.264 . S
O48 Gd0 2.545 1_565 S
O48 C56 1.250 . S
O49 Gd0 2.412 . S
O49 C59 1.252 . S
O50 Gd1 2.545 . S
O50 C68 1.258 . S
O51 Gd0 2.362 . S
O51 Gd1 2.606 1_444 S
O51 C67 1.284 1_454 S
O52 Gd0 2.324 1_556 S
O52 C75 1.254 1_455 S
O53 Gd1 2.430 1_545 S
O53 C75 1.263 . S
O54 Gd1 2.545 1_545 S
O54 C67 1.250 . S
O55 Gd1 2.412 . S
O55 C68 1.252 . S
C56 O45 1.284 1_454 S
C56 O48 1.250 . S
C57 H26 0.929 . S
C57 C42 1.437 . S
C57 C58 1.317 . S
C58 H29 0.930 . S
C58 C34 1.431 . S
C58 C57 1.317 . S
C59 Gd0 2.828 . S
C59 O44 1.258 . S
C59 O49 1.252 . S
C59 C60 1.497 . S
C60 C59 1.497 . S
C60 C61 1.395 . S
C60 C62 1.380 . S
C61 C60 1.395 . S
C61 C64 1.398 . S
C61 H76 0.930 . S
C62 C60 1.380 . S
C62 C63 1.391 . S
C62 H77 0.930 1_554 S
C63 C62 1.391 . S
C63 C65 1.387 . S
C64 C61 1.398 . S
C64 C65 1.380 . S
C64 H78 0.930 . S
C65 C63 1.387 . S
C65 C64 1.380 . S
C65 H79 0.930 . S
C66 O46 1.254 1_455 S
C66 O47 1.264 . S
C67 O51 1.284 1_656 S
C67 O54 1.250 . S
C68 Gd1 2.828 . S
C68 O50 1.258 . S
C68 O55 1.252 . S
C68 C69 1.497 . S
C69 C68 1.497 . S
C69 C70 1.395 . S
C69 C71 1.380 . S
C70 C69 1.395 . S
C70 C73 1.398 . S
C70 H80 0.930 . S
C71 C69 1.380 . S
C71 C72 1.391 . S
C71 H81 0.930 1_556 S
C72 C71 1.391 . S
C72 C74 1.387 . S
C73 C70 1.398 . S
C73 C74 1.380 . S
C73 H82 0.930 . S
C74 C72 1.387 . S
C74 C73 1.380 . S
C74 H83 0.930 . S
C75 O52 1.254 1_655 S
C75 O53 1.263 . S
H76 C61 0.930 . S
H77 C62 0.930 1_556 S
H78 C64 0.930 . S
H79 C65 0.930 . S
H80 C70 0.930 . S
H81 C71 0.930 1_554 S
H82 C73 0.930 . S
H83 C74 0.930 . S
H84 C102 0.951 . S
H85 C104 0.951 . S
H86 C106 0.950 . S
H87 C107 0.950 . S
H88 C109 0.950 . S
H89 C112 0.950 1_455 S
H90 C113 0.950 . S
H91 C115 0.950 . S
H92 C116 0.950 . S
H93 C117 0.951 . S
H94 C119 0.951 . S
H95 C121 0.950 . S
H96 C122 0.950 . S
H97 C124 0.950 . S
H98 C127 0.950 1_655 S
H99 C128 0.950 . S
H100 C130 0.950 . S
H101 C131 0.950 . S
C102 H84 0.951 . S
C102 C103 1.366 1_655 S
C102 C104 1.388 . S
C103 C102 1.366 1_455 S
C103 C107 1.385 1_565 S
C104 H85 0.951 . S
C104 C102 1.388 . S
C104 C105 1.360 1_665 S
C105 C104 1.360 1_445 S
C105 C106 1.426 . S
C105 C108 1.494 . S
C106 H86 0.950 . S
C106 C105 1.426 . S
C106 C107 1.374 . S
C107 H87 0.950 . S
C107 C103 1.385 1_545 S
C107 C106 1.374 . S
C108 C105 1.494 . S
C108 C109 1.373 1_545 S
C108 C110 1.389 1_455 S
C109 H88 0.950 . S
C109 C108 1.373 1_565 S
C109 C125 1.377 . S
C110 C108 1.389 1_655 S
C110 C111 1.524 . S
C110 C124 1.377 . S
C111 C110 1.524 . S
C111 C112 1.397 . S
C111 C116 1.363 . S
C112 H89 0.950 1_655 S
C112 C111 1.397 . S
C112 C113 1.334 . S
C113 H90 0.950 . S
C113 C112 1.334 . S
C113 C114 1.287 . S
C114 C113 1.287 . S
C114 C115 1.524 . S
C114 H133 0.913 . S
C115 H91 0.950 . S
C115 C114 1.524 . S
C115 C116 1.415 . S
C116 H92 0.950 . S
C116 C111 1.363 . S
C116 C115 1.415 . S
C117 H93 0.951 . S
C117 C118 1.365 . S
C117 C119 1.388 . S
C118 C117 1.365 . S
C118 C122 1.385 1_445 S
C119 H94 0.951 . S
C119 C117 1.388 . S
C119 C120 1.362 1_445 S
C120 C119 1.362 1_665 S
C120 C121 1.420 . S
C120 C123 1.496 . S
C121 H95 0.950 . S
C121 C120 1.420 . S
C121 C122 1.374 . S
C122 H96 0.950 . S
C122 C118 1.385 1_665 S
C122 C121 1.374 . S
C123 C120 1.496 . S
C123 C124 1.373 1_565 S
C123 C125 1.389 1_655 S
C124 H97 0.950 . S
C124 C110 1.377 . S
C124 C123 1.373 1_545 S
C125 C109 1.377 . S
C125 C123 1.389 1_455 S
C125 C126 1.524 . S
C126 C125 1.524 . S
C126 C127 1.397 . S
C126 C131 1.363 . S
C127 H98 0.950 1_455 S
C127 C126 1.397 . S
C127 C128 1.334 . S
C128 H99 0.950 . S
C128 C127 1.334 . S
C128 C129 1.287 . S
C129 C128 1.287 . S
C129 C130 1.524 . S
C129 H132 0.999 . S
C130 H100 0.950 . S
C130 C129 1.524 . S
C130 C131 1.415 . S
C131 H101 0.950 . S
C131 C126 1.363 . S
C131 C130 1.415 . S
H132 C129 0.999 . S
H133 C114 0.913 . S
H134 C152 0.951 . S
H135 C154 0.951 . S
H136 C156 0.950 . S
H137 C157 0.950 . S
H138 C159 0.950 . S
H139 C162 0.950 . S
H140 C163 0.950 . S
H141 C165 0.950 . S
H142 C166 0.950 . S
H143 C167 0.951 . S
H144 C169 0.951 . S
H145 C171 0.950 . S
H146 C172 0.950 . S
H147 C174 0.950 . S
H148 C177 0.950 . S
H149 C178 0.950 . S
H150 C180 0.950 . S
H151 C181 0.950 . S
C152 H134 0.951 . S
C152 C153 1.365 . S
C152 C154 1.388 . S
C153 C152 1.365 . S
C153 C157 1.385 1_544 S
C154 H135 0.951 . S
C154 C152 1.388 . S
C154 C155 1.366 1_554 S
C155 C154 1.366 1_556 S
C155 C156 1.414 1_545 S
C155 C158 1.499 1_545 S
C156 H136 0.950 . S
C156 C155 1.414 1_565 S
C156 C157 1.374 . S
C157 H137 0.950 . S
C157 C153 1.385 1_566 S
C157 C156 1.374 . S
C158 C155 1.499 1_565 S
C158 C159 1.373 1_556 S
C158 C160 1.389 1_565 S
C159 H138 0.950 . S
C159 C158 1.373 1_554 S
C159 C175 1.377 . S
C160 C158 1.389 1_545 S
C160 C161 1.524 . S
C160 C174 1.377 . S
C161 C160 1.524 . S
C161 C162 1.397 . S
C161 C166 1.363 . S
C162 H139 0.950 . S
C162 C161 1.397 . S
C162 C163 1.334 . S
C163 H140 0.950 . S
C163 C162 1.334 . S
C163 C164 1.287 . S
C164 C163 1.287 . S
C164 C165 1.524 . S
C164 H183 0.913 . S
C165 H141 0.950 . S
C165 C164 1.524 . S
C165 C166 1.415 . S
C166 H142 0.950 . S
C166 C161 1.363 . S
C166 C165 1.415 . S
C167 H143 0.951 . S
C167 C168 1.365 1_566 S
C167 C169 1.388 . S
C168 C167 1.365 1_544 S
C168 C172 1.385 . S
C169 H144 0.951 . S
C169 C167 1.388 . S
C169 C170 1.366 1_556 S
C170 C169 1.366 1_554 S
C170 C171 1.414 1_565 S
C170 C173 1.497 1_565 S
C171 H145 0.950 . S
C171 C170 1.414 1_545 S
C171 C172 1.374 . S
C172 H146 0.950 . S
C172 C168 1.385 . S
C172 C171 1.374 . S
C173 C170 1.497 1_545 S
C173 C174 1.377 1_554 S
C173 C175 1.388 1_545 S
C174 H147 0.950 . S
C174 C160 1.377 . S
C174 C173 1.377 1_556 S
C175 C159 1.377 . S
C175 C173 1.388 1_565 S
C175 C176 1.524 . S
C176 C175 1.524 . S
C176 C177 1.397 . S
C176 C181 1.363 . S
C177 H148 0.950 . S
C177 C176 1.397 . S
C177 C178 1.334 . S
C178 H149 0.950 . S
C178 C177 1.334 . S
C178 C179 1.287 . S
C179 C178 1.287 . S
C179 C180 1.524 . S
C179 H182 0.999 . S
C180 H150 0.950 . S
C180 C179 1.524 . S
C180 C181 1.415 . S
C181 H151 0.950 . S
C181 C176 1.363 . S
C181 C180 1.415 . S
H182 C179 0.999 . S
H183 C164 0.913 . S
H184 C202 0.951 . S
H185 C204 0.951 . S
H186 C206 0.950 . S
H187 C207 0.950 . S
H188 C209 0.950 . S
H189 C212 0.950 . S
H190 C213 0.950 1_556 S
H191 C215 0.950 . S
H192 C216 0.950 . S
H193 C217 0.951 . S
H194 C219 0.951 . S
H195 C221 0.950 . S
H196 C222 0.950 . S
H197 C224 0.950 . S
H198 C227 0.950 . S
H199 C228 0.950 1_554 S
H200 C230 0.950 . S
H201 C231 0.950 . S
C202 H184 0.951 . S
C202 C203 1.365 . S
C202 C204 1.388 . S
C203 C202 1.365 . S
C203 C207 1.384 1_454 S
C204 H185 0.951 . S
C204 C202 1.388 . S
C204 C205 1.366 1_554 S
C205 C204 1.366 1_556 S
C205 C206 1.414 1_455 S
C205 C208 1.499 . S
C206 H186 0.950 . S
C206 C205 1.414 1_655 S
C206 C207 1.374 . S
C207 H187 0.950 . S
C207 C203 1.384 1_656 S
C207 C206 1.374 . S
C208 C205 1.499 . S
C208 C209 1.373 1_455 S
C208 C210 1.389 1_556 S
C209 H188 0.950 . S
C209 C208 1.373 1_655 S
C209 C225 1.377 . S
C210 C208 1.389 1_554 S
C210 C211 1.524 . S
C210 C224 1.377 . S
C211 C210 1.524 . S
C211 C212 1.397 1_554 S
C211 C216 1.363 . S
C212 H189 0.950 . S
C212 C211 1.397 1_556 S
C212 C213 1.334 1_556 S
C213 H190 0.950 1_554 S
C213 C212 1.334 1_554 S
C213 C214 1.287 . S
C214 C213 1.287 . S
C214 C215 1.524 . S
C214 H233 0.913 . S
C215 H191 0.950 . S
C215 C214 1.524 . S
C215 C216 1.415 . S
C216 H192 0.950 . S
C216 C211 1.363 . S
C216 C215 1.415 . S
C217 H193 0.951 . S
C217 C218 1.365 1_656 S
C217 C219 1.388 . S
C218 C217 1.365 1_454 S
C218 C222 1.384 . S
C219 H194 0.951 . S
C219 C217 1.388 . S
C219 C220 1.366 1_556 S
C220 C219 1.366 1_554 S
C220 C221 1.414 1_655 S
C220 C223 1.499 . S
C221 H195 0.950 . S
C221 C220 1.414 1_455 S
C221 C222 1.374 . S
C222 H196 0.950 . S
C222 C218 1.384 . S
C222 C221 1.374 . S
C223 C220 1.499 . S
C223 C224 1.373 1_655 S
C223 C225 1.389 1_554 S
C224 H197 0.950 . S
C224 C210 1.377 . S
C224 C223 1.373 1_455 S
C225 C209 1.377 . S
C225 C223 1.389 1_556 S
C225 C226 1.524 . S
C226 C225 1.524 . S
C226 C227 1.397 1_556 S
C226 C231 1.363 . S
C227 H198 0.950 . S
C227 C226 1.397 1_554 S
C227 C228 1.334 1_554 S
C228 H199 0.950 1_556 S
C228 C227 1.334 1_556 S
C228 C229 1.287 . S
C229 C228 1.287 . S
C229 C230 1.524 . S
C229 H232 0.999 . S
C230 H200 0.950 . S
C230 C229 1.524 . S
C230 C231 1.415 . S
C231 H201 0.950 . S
C231 C226 1.363 . S
C231 C230 1.415 . S
H232 C229 0.999 . S
H233 C214 0.913 . S
C103 C66 1.471 . S
C118 C75 1.473 1_455 S
C153 C63 1.324 . S
C168 C72 1.324 1_544 S
C203 C56 1.436 . S
C218 C67 1.436 1_454 S
