# Generated by pormake.
# Topology qtz, (4)-cn, num edge types: 1
# Building blocks:
#     Node 0, Type 0, BuildingBlock: QUQFOY_clean_sbu_1, # of connection points: 4
#     Node 1, Type 0, BuildingBlock: QUQFOY_clean_sbu_1, # of connection points: 4
#     Node 2, Type 0, BuildingBlock: QUQFOY_clean_sbu_1, # of connection points: 4
#     Edge 3, Type (0, 0), None
#     Edge 4, Type (0, 0), None
#     Edge 5, Type (0, 0), None
#     Edge 6, Type (0, 0), None
#     Edge 7, Type (0, 0), None
#     Edge 8, Type (0, 0), None
# Relax obj value: 0.054
# Max RMSD: 0.155
# Mean RMSD: 0.103
data_MOF--net-qtz--node1-QUQFOY_clean_sbu_1--edge1-none
_symmetry_space_group_name_H-M    P1
_symmetry_Int_Tables_number       1
_symmetry_cell_setting            triclinic
loop_
_symmetry_equiv_pos_as_xyz
'x, y, z'
_cell_length_a     11.702067
_cell_length_b     11.437325
_cell_length_c     12.763606
_cell_angle_alpha  89.999957
_cell_angle_beta   89.99999
_cell_angle_gamma 119.28285
loop_
_atom_site_label
_atom_site_type_symbol
_atom_site_fract_x
_atom_site_fract_y
_atom_site_fract_z
_atom_type_partial_charge
O0 O 0.76349 0.46161 1.02894 0.0
Cd1 Cd 0.88069 0.42116 0.12551 0.0
Cd2 Cd 0.01998 0.68956 0.12551 0.0
O3 O 0.85251 0.67838 0.0618 0.0
O4 O 0.76822 0.23542 0.1792 0.0
O5 O 0.83788 0.41728 0.27799 0.0
C6 C 0.76668 0.28893 0.26775 0.0
C7 C 0.13398 0.82179 0.26775 0.0
C8 C 0.76315 0.57213 1.01983 0.0
C9 C 0.13752 0.5386 1.01983 0.0
O10 O 0.13718 0.64911 1.02894 0.0
O11 O 0.04816 0.43234 0.0618 0.0
O12 O 0.13244 0.87531 0.1792 0.0
O13 O 0.06279 0.69345 0.27799 0.0
O14 O 0.60561 0.26028 0.39074 0.0
Cd15 Cd 0.42039 0.15284 0.45518 0.0
Cd16 Cd 0.48027 0.95789 0.45518 0.0
O17 O 0.62849 0.08423 0.35464 0.0
O18 O 0.37936 0.28898 0.51602 0.0
O19 O 0.39157 0.13266 0.6104 0.0
C20 C 0.37417 0.23557 0.60615 0.0
C21 C 0.5265 0.87515 0.60615 0.0
C22 C 0.66771 0.20892 0.34626 0.0
C23 C 0.23295 0.90181 0.34626 0.0
O24 O 0.29505 0.85044 0.39074 0.0
O25 O 0.27217 1.0265 0.35464 0.0
O26 O 0.5213 0.82175 0.51602 0.0
O27 O 0.50909 0.97806 0.6104 0.0
O28 O 0.34484 0.64903 0.94053 0.0
Cd29 Cd 0.51209 0.69493 0.8575 0.0
Cd30 Cd 0.38858 0.4158 0.8575 0.0
O31 O 0.23819 0.42711 0.93398 0.0
O32 O 0.5661 0.87343 0.79065 0.0
O33 O 0.49996 0.68461 0.70181 0.0
C34 C 0.53562 0.81047 0.70229 0.0
C35 C 0.36505 0.30026 0.70228 0.0
C36 C 0.24505 0.53717 0.96205 0.0
C37 C 0.65561 0.57355 0.96205 0.0
O38 O 0.55583 0.4617 0.94053 0.0
O39 O 0.66248 0.68361 0.93398 0.0
O40 O 0.33457 0.23729 0.79065 0.0
O41 O 0.4007 0.42611 0.70181 0.0
loop_
_geom_bond_atom_site_label_1
_geom_bond_atom_site_label_2
_geom_bond_distance
_geom_bond_site_symmetry_2
_ccdc_geom_bond_type
O0 Cd1 2.223 1_556 S
O0 C8 1.315 . S
Cd1 O0 2.223 1_554 S
Cd1 O4 2.297 . S
Cd1 O5 2.439 . S
Cd1 O11 2.240 1_655 S
Cd2 O3 2.240 1_455 S
Cd2 O10 2.223 1_554 S
Cd2 O12 2.297 . S
Cd2 O13 2.439 . S
O3 Cd2 2.240 1_655 S
O3 C8 1.279 1_554 S
O4 Cd1 2.297 . S
O4 C6 1.247 . S
O5 Cd1 2.439 . S
O5 C6 1.208 . S
C6 O4 1.247 . S
C6 O5 1.208 . S
C7 O12 1.247 . S
C7 O13 1.208 . S
C8 O0 1.315 . S
C8 O3 1.279 1_556 S
C9 O10 1.315 . S
C9 O11 1.279 1_556 S
O10 Cd2 2.223 1_556 S
O10 C9 1.315 . S
O11 Cd1 2.240 1_455 S
O11 C9 1.279 1_554 S
O12 Cd2 2.297 . S
O12 C7 1.247 . S
O13 Cd2 2.439 . S
O13 C7 1.208 . S
O14 Cd15 2.223 . S
O14 C22 1.315 . S
Cd15 O14 2.223 . S
Cd15 O18 2.297 . S
Cd15 O19 2.439 . S
Cd15 O25 2.240 1_545 S
Cd16 O17 2.240 1_565 S
Cd16 O24 2.223 . S
Cd16 O26 2.297 . S
Cd16 O27 2.439 . S
O17 Cd16 2.240 1_545 S
O17 C22 1.279 . S
O18 Cd15 2.297 . S
O18 C20 1.247 . S
O19 Cd15 2.439 . S
O19 C20 1.208 . S
C20 O18 1.247 . S
C20 O19 1.208 . S
C21 O26 1.247 . S
C21 O27 1.208 . S
C22 O14 1.315 . S
C22 O17 1.279 . S
C23 O24 1.315 . S
C23 O25 1.279 . S
O24 Cd16 2.223 . S
O24 C23 1.315 . S
O25 Cd15 2.240 1_565 S
O25 C23 1.279 . S
O26 Cd16 2.297 . S
O26 C21 1.247 . S
O27 Cd16 2.439 . S
O27 C21 1.208 . S
O28 Cd29 2.223 . S
O28 C36 1.315 . S
Cd29 O28 2.223 . S
Cd29 O32 2.297 . S
Cd29 O33 2.439 . S
Cd29 O39 2.240 . S
Cd30 O31 2.240 . S
Cd30 O38 2.223 . S
Cd30 O40 2.297 . S
Cd30 O41 2.439 . S
O31 Cd30 2.240 . S
O31 C36 1.279 . S
O32 Cd29 2.297 . S
O32 C34 1.247 . S
O33 Cd29 2.439 . S
O33 C34 1.208 . S
C34 O32 1.247 . S
C34 O33 1.208 . S
C35 O40 1.247 . S
C35 O41 1.208 . S
C36 O28 1.315 . S
C36 O31 1.279 . S
C37 O38 1.315 . S
C37 O39 1.279 . S
O38 Cd30 2.223 . S
O38 C37 1.315 . S
O39 Cd29 2.240 . S
O39 C37 1.279 . S
O40 Cd30 2.297 . S
O40 C35 1.247 . S
O41 Cd30 2.439 . S
O41 C35 1.208 . S
C36 C9 1.814 . S
C6 C22 1.539 . S
C21 C34 1.509 . S
C37 C8 1.816 . S
C23 C7 1.540 . S
C35 C20 1.509 . S
