# Generated by pormake.
# Topology lon, (4)-cn, num edge types: 1
# Building blocks:
#     Node 0, Type 0, BuildingBlock: QUQFOY_clean_sbu_1, # of connection points: 4
#     Node 1, Type 0, BuildingBlock: QUQFOY_clean_sbu_1, # of connection points: 4
#     Node 2, Type 0, BuildingBlock: QUQFOY_clean_sbu_1, # of connection points: 4
#     Node 3, Type 0, BuildingBlock: QUQFOY_clean_sbu_1, # of connection points: 4
#     Edge 4, Type (0, 0), None
#     Edge 5, Type (0, 0), None
#     Edge 6, Type (0, 0), None
#     Edge 7, Type (0, 0), None
#     Edge 8, Type (0, 0), None
#     Edge 9, Type (0, 0), None
#     Edge 10, Type (0, 0), None
#     Edge 11, Type (0, 0), None
# Relax obj value: 0.206
# Max RMSD: 0.246
# Mean RMSD: 0.242
data_MOF--net-lon--node1-QUQFOY_clean_sbu_1--edge1-none
_symmetry_space_group_name_H-M    P1
_symmetry_Int_Tables_number       1
_symmetry_cell_setting            triclinic
loop_
_symmetry_equiv_pos_as_xyz
'x, y, z'
_cell_length_a     11.804313
_cell_length_b     11.830568
_cell_length_c     19.871724
_cell_angle_alpha  89.599616
_cell_angle_beta   89.999636
_cell_angle_gamma 119.92578
loop_
_atom_site_label
_atom_site_type_symbol
_atom_site_fract_x
_atom_site_fract_y
_atom_site_fract_z
_atom_type_partial_charge
O0 O -0.01824 0.53631 0.12203 0.0
Cd1 Cd 0.16502 0.58439 0.1575 0.0
Cd2 Cd 0.23828 0.73142 1.042 0.0
O3 O 0.04169 0.64378 1.02516 0.0
O4 O 0.14404 0.53511 0.25522 0.0
O5 O 0.27275 0.73641 0.21722 0.0
C6 C 0.22808 0.65541 0.26715 0.0
C7 C 0.35487 0.95482 1.04963 0.0
C8 C -0.04686 0.56848 0.06609 0.0
C9 C 0.3309 0.54041 0.05772 0.0
O10 O 0.3343 0.63129 1.02192 0.0
O11 O 0.26601 0.50424 0.1124 0.0
O12 O 0.32537 0.89929 0.9916 0.0
O13 O 0.31877 0.88308 0.10331 0.0
O14 O 0.53822 0.12439 0.62297 0.0
Cd15 Cd 0.65977 0.30777 0.66327 0.0
Cd16 Cd 0.63618 0.38226 0.5361 0.0
O17 O 0.5387 0.18356 0.51718 0.0
O18 O 0.65306 0.27388 0.76218 0.0
O19 O 0.59449 0.40821 0.71644 0.0
C20 C 0.61216 0.35562 0.76953 0.0
C21 C 0.52766 0.50111 0.52633 0.0
C22 C 0.50536 0.09485 0.56187 0.0
C23 C 0.90893 0.47595 0.58433 0.0
O24 O 0.83837 0.47955 0.537 0.0
O25 O 0.85706 0.41053 0.63781 0.0
O26 O 0.57732 0.47721 0.47417 0.0
O27 O 0.53887 0.45689 0.58408 0.0
O28 O 0.43949 0.92695 0.48118 0.0
Cd29 Cd 0.37766 0.74356 0.44088 0.0
Cd30 Cd 0.27958 0.66908 0.56805 0.0
O31 O 0.3808 0.86778 0.58696 0.0
O32 O 0.40484 0.77746 0.34196 0.0
O33 O 0.21195 0.64313 0.38771 0.0
C34 C 0.28221 0.69571 0.33462 0.0
C35 C 0.05222 0.55023 0.57782 0.0
C36 C 0.43617 0.95649 0.54228 0.0
C37 C 0.45865 0.57539 0.51982 0.0
O38 O 0.38449 0.57179 0.56714 0.0
O39 O 0.47219 0.6408 0.46634 0.0
O40 O 0.12578 0.57413 0.62997 0.0
O41 O 0.10765 0.59445 0.52007 0.0
O42 O 0.47112 0.51504 0.98211 0.0
Cd43 Cd 0.60631 0.46695 0.94665 0.0
Cd44 Cd 0.53254 0.31993 0.06214 0.0
O45 O 0.42359 0.40757 0.07898 0.0
O46 O 0.63461 0.51623 0.84892 0.0
O47 O 0.56202 0.31493 0.88693 0.0
C48 C 0.59837 0.39594 0.837 0.0
C49 C 0.42572 0.09652 0.05451 0.0
C50 C 0.41034 0.48286 1.03806 0.0
C51 C 0.81616 0.51094 1.04643 0.0
O52 O 0.72868 0.42006 0.08222 0.0
O53 O 0.78744 0.54711 0.99174 0.0
O54 O 0.45176 0.15205 0.11255 0.0
O55 O 0.46136 0.16826 1.00084 0.0
loop_
_geom_bond_atom_site_label_1
_geom_bond_atom_site_label_2
_geom_bond_distance
_geom_bond_site_symmetry_2
_ccdc_geom_bond_type
O0 Cd1 2.223 . S
O0 C8 1.315 . S
Cd1 O0 2.223 . S
Cd1 O4 2.297 . S
Cd1 O5 2.439 . S
Cd1 O11 2.240 . S
Cd2 O3 2.240 1_556 S
Cd2 O10 2.223 . S
Cd2 O12 2.297 . S
Cd2 O13 2.439 1_556 S
O3 Cd2 2.240 1_554 S
O3 C8 1.279 . S
O4 Cd1 2.297 . S
O4 C6 1.247 . S
O5 Cd1 2.439 . S
O5 C6 1.208 . S
C6 O4 1.247 . S
C6 O5 1.208 . S
C7 O12 1.247 1_554 S
C7 O13 1.208 . S
C8 O0 1.315 . S
C8 O3 1.279 . S
C9 O10 1.315 . S
C9 O11 1.279 1_556 S
O10 Cd2 2.223 . S
O10 C9 1.315 . S
O11 Cd1 2.240 . S
O11 C9 1.279 1_554 S
O12 Cd2 2.297 . S
O12 C7 1.247 1_556 S
O13 Cd2 2.439 1_554 S
O13 C7 1.208 . S
O14 Cd15 2.223 . S
O14 C22 1.315 . S
Cd15 O14 2.223 . S
Cd15 O18 2.297 . S
Cd15 O19 2.439 . S
Cd15 O25 2.240 . S
Cd16 O17 2.240 . S
Cd16 O24 2.223 . S
Cd16 O26 2.297 . S
Cd16 O27 2.439 . S
O17 Cd16 2.240 . S
O17 C22 1.279 . S
O18 Cd15 2.297 . S
O18 C20 1.247 . S
O19 Cd15 2.439 . S
O19 C20 1.208 . S
C20 O18 1.247 . S
C20 O19 1.208 . S
C21 O26 1.247 . S
C21 O27 1.208 . S
C22 O14 1.315 . S
C22 O17 1.279 . S
C23 O24 1.315 . S
C23 O25 1.279 . S
O24 Cd16 2.223 . S
O24 C23 1.315 . S
O25 Cd15 2.240 . S
O25 C23 1.279 . S
O26 Cd16 2.297 . S
O26 C21 1.247 . S
O27 Cd16 2.439 . S
O27 C21 1.208 . S
O28 Cd29 2.223 . S
O28 C36 1.315 . S
Cd29 O28 2.223 . S
Cd29 O32 2.297 . S
Cd29 O33 2.439 . S
Cd29 O39 2.240 . S
Cd30 O31 2.240 . S
Cd30 O38 2.223 . S
Cd30 O40 2.297 . S
Cd30 O41 2.439 . S
O31 Cd30 2.240 . S
O31 C36 1.279 . S
O32 Cd29 2.297 . S
O32 C34 1.247 . S
O33 Cd29 2.439 . S
O33 C34 1.208 . S
C34 O32 1.247 . S
C34 O33 1.208 . S
C35 O40 1.247 1_655 S
C35 O41 1.208 1_655 S
C36 O28 1.315 . S
C36 O31 1.279 . S
C37 O38 1.315 . S
C37 O39 1.279 . S
O38 Cd30 2.223 . S
O38 C37 1.315 . S
O39 Cd29 2.240 . S
O39 C37 1.279 . S
O40 Cd30 2.297 . S
O40 C35 1.247 1_455 S
O41 Cd30 2.439 . S
O41 C35 1.208 1_455 S
O42 Cd43 2.223 . S
O42 C50 1.315 . S
Cd43 O42 2.223 . S
Cd43 O46 2.297 . S
Cd43 O47 2.439 . S
Cd43 O53 2.240 . S
Cd44 O45 2.240 1_554 S
Cd44 O52 2.223 . S
Cd44 O54 2.297 . S
Cd44 O55 2.439 1_554 S
O45 Cd44 2.240 1_556 S
O45 C50 1.279 . S
O46 Cd43 2.297 . S
O46 C48 1.247 . S
O47 Cd43 2.439 . S
O47 C48 1.208 . S
C48 O46 1.247 . S
C48 O47 1.208 . S
C49 O54 1.247 1_556 S
C49 O55 1.208 . S
C50 O42 1.315 . S
C50 O45 1.279 . S
C51 O52 1.315 . S
C51 O53 1.279 1_554 S
O52 Cd44 2.223 . S
O52 C51 1.315 . S
O53 Cd43 2.240 . S
O53 C51 1.279 1_556 S
O54 Cd44 2.297 . S
O54 C49 1.247 1_554 S
O55 Cd44 2.439 1_556 S
O55 C49 1.208 . S
C6 C34 1.497 . S
C20 C48 1.498 . S
C9 C50 1.958 . S
C35 C23 1.567 . S
C49 C7 1.198 1_546 S
C21 C37 1.567 . S
C8 C51 1.959 1_455 S
C22 C36 2.189 1_545 S
