# Generated by pormake.
# Topology hex, (8)-cn, num edge types: 1
# Building blocks:
#     Node 0, Type 0, BuildingBlock: EBIMEJ_clean_sbu_0, # of connection points: 8
#     Edge 1, Type (0, 0), BuildingBlock: KIFKEQ_clean_linker_1, # of connection points: 2
#     Edge 2, Type (0, 0), BuildingBlock: KIFKEQ_clean_linker_1, # of connection points: 2
#     Edge 3, Type (0, 0), BuildingBlock: KIFKEQ_clean_linker_1, # of connection points: 2
#     Edge 4, Type (0, 0), BuildingBlock: KIFKEQ_clean_linker_1, # of connection points: 2
# Relax obj value: 0.012
# Max RMSD: 0.051
# Mean RMSD: 0.051
data_MOF--net-hex--node1-EBIMEJ_clean_sbu_0--edge1-KIFKEQ_clean_linker_1
_symmetry_space_group_name_H-M    P1
_symmetry_Int_Tables_number       1
_symmetry_cell_setting            triclinic
loop_
_symmetry_equiv_pos_as_xyz
'x, y, z'
_cell_length_a     17.651059
_cell_length_b     20.747337
_cell_length_c     16.319534
_cell_angle_alpha  74.719966
_cell_angle_beta   115.14476
_cell_angle_gamma 125.29063
loop_
_atom_site_label
_atom_site_type_symbol
_atom_site_fract_x
_atom_site_fract_y
_atom_site_fract_z
_atom_type_partial_charge
Co0 Co 0.99942 0.88181 0.98812 0.0
Co1 Co 0.89475 0.96747 1.00263 0.0
Co2 Co 0.105 0.06802 1.00563 0.0
H3 H 0.04002 0.97404 0.01262 0.0
O4 O 0.01159 0.9584 0.05184 0.0
H5 H 0.96305 0.06059 1.00119 0.0
O6 O 0.98964 0.07737 0.96039 0.0
Co7 Co 0.0116 0.15068 0.0365 0.0
O8 O 0.86637 0.10667 1.00209 0.0
O9 O 0.78212 0.98296 0.95613 0.0
O10 O 0.15591 0.23068 0.05332 0.0
O11 O 0.19345 0.18229 0.97909 0.0
O12 O 0.0606 0.82919 0.96903 0.0
O13 O 0.94463 0.76296 0.01826 0.0
O14 O 0.05297 0.10749 0.16091 0.0
O15 O 0.92046 0.98653 0.12946 0.0
C16 C 0.22053 0.99896 0.03322 0.0
C17 C 0.80231 0.79284 0.02307 0.0
C18 C 0.01418 0.27328 0.02973 0.0
C19 C 0.00916 0.98539 0.8274 0.0
C20 C 0.78545 0.04304 0.96838 0.0
C21 C 0.21113 0.23968 0.01494 0.0
C22 C 1.00371 0.76204 0.99576 0.0
C23 C 0.9925 0.04043 0.18636 0.0
O24 O 0.14264 0.93228 1.00486 0.0
O25 O 0.21947 0.05584 0.04774 0.0
O26 O 0.80295 0.85397 0.02648 0.0
O27 O 0.86993 0.79611 0.00831 0.0
O28 O 0.99584 0.22011 0.09011 0.0
O29 O 0.03078 0.25672 0.97292 0.0
O30 O 0.96006 0.91674 0.85885 0.0
O31 O 0.07216 0.04567 0.8778 0.0
H32 H 0.96854 0.31263 0.14143 0.0
H33 H 0.06043 0.39696 0.90824 0.0
H34 H 0.9683 0.43147 0.13439 0.0
H35 H 0.05815 0.51521 0.89966 0.0
H36 H 0.13966 0.7535 0.96786 0.0
H37 H 0.14434 0.6362 0.97745 0.0
H38 H 0.87664 0.49285 0.04276 0.0
H39 H 0.8735 0.61025 0.03501 0.0
C40 C 0.98852 0.3566 0.08854 0.0
C41 C 0.01448 0.34555 0.02538 0.0
C42 C 0.98775 0.4245 0.08406 0.0
C43 C 0.01299 0.48302 0.0163 0.0
C44 C 0.03947 0.47193 0.95339 0.0
C45 C 0.04013 0.40392 0.95787 0.0
C46 C 0.08187 0.69683 0.98418 0.0
C47 C 0.00628 0.69103 1.00082 0.0
C48 C 0.08422 0.62953 0.98928 0.0
C49 C 0.01088 0.5549 0.01093 0.0
C50 C 0.93522 0.54941 0.02734 0.0
C51 C 0.93307 0.61668 0.02247 0.0
H52 H 0.7664 0.16459 0.96432 0.0
H53 H 0.59885 0.91058 0.94398 0.0
H54 H 0.63284 0.15658 0.98244 0.0
H55 H 0.46037 0.90285 0.95545 0.0
H56 H 0.28945 0.90128 0.09824 0.0
H57 H 0.42158 0.91259 0.06987 0.0
H58 H 0.47739 0.13475 0.92566 0.0
H59 H 0.35059 0.12558 0.96069 0.0
C60 C 0.69966 0.10692 0.96127 0.0
C61 C 0.69407 0.03792 0.95478 0.0
C62 C 0.62232 0.10242 0.97103 0.0
C63 C 0.53625 0.0289 0.97245 0.0
C64 C 0.52701 0.9603 0.95774 0.0
C65 C 0.60557 0.96471 0.94949 0.0
C66 C 0.33258 0.95356 0.06305 0.0
C67 C 0.31196 1.0134 0.03323 0.0
C68 C 0.40662 0.95932 0.04485 0.0
C69 C 0.45935 0.02396 0.99404 0.0
C70 C 0.43967 0.08469 0.96613 0.0
C71 C 0.36751 0.07989 0.98663 0.0
H72 H 0.24889 0.37483 0.06078 0.0
H73 H 0.36902 0.2888 0.96572 0.0
H74 H 0.39095 0.50719 0.06573 0.0
H75 H 0.51196 0.42371 0.9686 0.0
H76 H 0.80043 0.6566 0.08438 0.0
H77 H 0.65727 0.52289 0.07819 0.0
H78 H 0.46681 0.61508 0.9698 0.0
H79 H 0.61075 0.74919 0.97688 0.0
C80 C 0.30552 0.38403 0.04046 0.0
C81 C 0.29761 0.32064 0.01338 0.0
C82 C 0.38687 0.46054 0.04261 0.0
C83 C 0.46289 0.47627 0.01754 0.0
C84 C 0.45499 0.4133 0.98937 0.0
C85 C 0.37292 0.33615 0.98707 0.0
C86 C 0.72798 0.6483 0.05913 0.0
C87 C 0.71675 0.71336 0.03034 0.0
C88 C 0.64585 0.57159 0.05514 0.0
C89 C 0.5504 0.55807 0.02236 0.0
C90 C 0.53942 0.62341 0.99601 0.0
C91 C 0.62183 0.70032 1.00035 0.0
H92 H 0.07424 0.12092 0.72277 0.0
H93 H 0.9278 0.86769 0.71551 0.0
H94 H 0.06965 0.13301 0.56803 0.0
H95 H 0.92703 0.8799 0.56338 0.0
H96 H 0.85441 0.91917 0.25918 0.0
H97 H 0.85464 0.90729 0.41144 0.0
H98 H 0.14297 0.12315 0.48282 0.0
H99 H 0.14093 0.13661 0.32926 0.0
C100 C 0.04092 0.06788 0.68815 0.0
C101 C 1.00073 0.99338 0.73138 0.0
C102 C 0.03913 0.07479 0.59972 0.0
C103 C 0.99825 1.00743 0.55293 0.0
C104 C 0.95746 0.93299 0.59625 0.0
C105 C 0.95812 0.92601 0.68394 0.0
C106 C 0.91829 0.9638 0.3075 0.0
C107 C 0.99763 0.02885 0.2818 0.0
C108 C 0.91855 0.95692 0.39515 0.0
C109 C 0.99863 1.01447 0.45975 0.0
C110 C 0.07909 0.07853 0.43456 0.0
C111 C 0.07843 0.08579 0.34663 0.0
loop_
_geom_bond_atom_site_label_1
_geom_bond_atom_site_label_2
_geom_bond_distance
_geom_bond_site_symmetry_2
_ccdc_geom_bond_type
Co0 H3 2.400 1_556 S
Co0 O4 2.009 1_556 S
Co0 O12 2.115 1_455 S
Co0 O13 2.315 1_556 S
Co0 O24 2.053 . S
Co0 O27 2.094 1_455 S
Co0 O30 2.122 1_455 S
Co1 O4 2.126 1_655 S
Co1 H5 2.388 1_564 S
Co1 O6 2.053 1_564 S
Co1 O9 2.047 1_554 S
Co1 O15 2.113 . S
Co1 O26 2.063 . S
Co2 H3 2.388 1_546 S
Co2 O4 2.053 1_546 S
Co2 O6 2.126 1_455 S
Co2 O11 2.063 . S
Co2 O25 2.047 1_556 S
Co2 O31 2.113 . S
H3 Co0 2.400 1_554 S
H3 Co2 2.388 1_564 S
H3 O4 0.760 . S
O4 Co0 2.009 1_554 S
O4 Co1 2.126 1_455 S
O4 Co2 2.053 1_564 S
O4 H3 0.760 . S
H5 Co1 2.388 1_546 S
H5 O6 0.760 . S
H5 Co7 2.400 1_556 S
O6 Co1 2.053 1_546 S
O6 Co2 2.126 1_655 S
O6 H5 0.760 . S
O6 Co7 2.009 1_556 S
Co7 H5 2.400 1_554 S
Co7 O6 2.009 1_554 S
Co7 O8 2.053 . S
Co7 O10 2.094 1_655 S
Co7 O14 2.122 1_655 S
Co7 O28 2.115 1_655 S
Co7 O29 2.315 1_554 S
O8 Co7 2.053 . S
O8 C20 1.259 . S
O9 Co1 2.047 1_556 S
O9 C20 1.257 1_566 S
O10 Co7 2.094 1_455 S
O10 C21 1.253 . S
O11 Co2 2.063 . S
O11 C21 1.268 1_556 S
O12 Co0 2.115 1_655 S
O12 C22 1.281 1_556 S
O13 Co0 2.315 1_554 S
O13 C22 1.252 1_455 S
O14 Co7 2.122 1_455 S
O14 C23 1.272 1_455 S
O15 Co1 2.113 . S
O15 C23 1.245 1_565 S
C16 O24 1.259 . S
C16 O25 1.257 1_566 S
C17 O26 1.268 1_556 S
C17 O27 1.253 . S
C18 O28 1.281 1_556 S
C18 O29 1.252 1_455 S
C19 O30 1.272 1_455 S
C19 O31 1.245 1_565 S
C20 O8 1.259 . S
C20 O9 1.257 1_544 S
C21 O10 1.253 . S
C21 O11 1.268 1_554 S
C22 O12 1.281 1_554 S
C22 O13 1.252 1_655 S
C23 O14 1.272 1_655 S
C23 O15 1.245 1_545 S
O24 Co0 2.053 . S
O24 C16 1.259 . S
O25 Co2 2.047 1_554 S
O25 C16 1.257 1_544 S
O26 Co1 2.063 . S
O26 C17 1.268 1_554 S
O27 Co0 2.094 1_655 S
O27 C17 1.253 . S
O28 Co7 2.115 1_455 S
O28 C18 1.281 1_554 S
O29 Co7 2.315 1_556 S
O29 C18 1.252 1_655 S
O30 Co0 2.122 1_655 S
O30 C19 1.272 1_655 S
O31 Co2 2.113 . S
O31 C19 1.245 1_545 S
H32 C40 0.950 . S
H33 C45 0.950 . S
H34 C42 0.950 . S
H35 C44 0.950 . S
H36 C46 0.950 . S
H37 C48 0.950 . S
H38 C50 0.950 . S
H39 C51 0.950 . S
C40 H32 0.950 . S
C40 C41 1.386 1_654 S
C40 C42 1.391 . S
C41 C40 1.386 1_456 S
C41 C45 1.393 . S
C42 H34 0.950 . S
C42 C40 1.391 . S
C42 C43 1.399 1_654 S
C43 C42 1.399 1_456 S
C43 C44 1.401 . S
C43 C49 1.487 1_456 S
C44 H35 0.950 . S
C44 C43 1.401 . S
C44 C45 1.391 . S
C45 H33 0.950 . S
C45 C41 1.393 . S
C45 C44 1.391 . S
C46 H36 0.950 . S
C46 C47 1.386 1_456 S
C46 C48 1.391 . S
C47 C46 1.386 1_654 S
C47 C51 1.393 . S
C48 H37 0.950 . S
C48 C46 1.391 . S
C48 C49 1.398 1_456 S
C49 C43 1.487 1_654 S
C49 C48 1.398 1_654 S
C49 C50 1.403 . S
C50 H38 0.950 . S
C50 C49 1.403 . S
C50 C51 1.391 . S
C51 H39 0.950 . S
C51 C47 1.393 . S
C51 C50 1.391 . S
H52 C60 0.950 . S
H53 C65 0.950 . S
H54 C62 0.950 . S
H55 C64 0.950 . S
H56 C66 0.950 . S
H57 C68 0.950 . S
H58 C70 0.950 . S
H59 C71 0.950 . S
C60 H52 0.950 . S
C60 C61 1.395 . S
C60 C62 1.391 . S
C61 C60 1.395 . S
C61 C65 1.389 1_544 S
C62 H54 0.950 . S
C62 C60 1.391 . S
C62 C63 1.401 . S
C63 C62 1.401 . S
C63 C64 1.393 1_544 S
C63 C69 1.494 1_544 S
C64 H55 0.950 . S
C64 C63 1.393 1_566 S
C64 C65 1.391 . S
C65 H53 0.950 . S
C65 C61 1.389 1_566 S
C65 C64 1.391 . S
C66 H56 0.950 . S
C66 C67 1.391 . S
C66 C68 1.391 . S
C67 C66 1.391 . S
C67 C71 1.391 1_566 S
C68 H57 0.950 . S
C68 C66 1.391 . S
C68 C69 1.400 . S
C69 C63 1.494 1_566 S
C69 C68 1.400 . S
C69 C70 1.399 1_566 S
C70 H58 0.950 . S
C70 C69 1.399 1_544 S
C70 C71 1.391 . S
C71 H59 0.950 . S
C71 C67 1.391 1_544 S
C71 C70 1.391 . S
H72 C80 0.950 . S
H73 C85 0.950 . S
H74 C82 0.950 . S
H75 C84 0.950 . S
H76 C86 0.950 . S
H77 C88 0.950 . S
H78 C90 0.950 . S
H79 C91 0.950 . S
C80 H72 0.950 . S
C80 C81 1.386 1_556 S
C80 C82 1.391 . S
C81 C80 1.386 1_554 S
C81 C85 1.393 . S
C82 H74 0.950 . S
C82 C80 1.391 . S
C82 C83 1.400 1_556 S
C83 C82 1.400 1_554 S
C83 C84 1.398 . S
C83 C89 1.491 1_554 S
C84 H75 0.950 . S
C84 C83 1.398 . S
C84 C85 1.391 . S
C85 H73 0.950 . S
C85 C81 1.393 . S
C85 C84 1.391 . S
C86 H76 0.950 . S
C86 C87 1.386 1_554 S
C86 C88 1.391 . S
C87 C86 1.386 1_556 S
C87 C91 1.393 . S
C88 H77 0.950 . S
C88 C86 1.391 . S
C88 C89 1.400 1_554 S
C89 C83 1.491 1_556 S
C89 C88 1.400 1_556 S
C89 C90 1.398 . S
C90 H78 0.950 . S
C90 C89 1.398 . S
C90 C91 1.391 . S
C91 H79 0.950 . S
C91 C87 1.393 . S
C91 C90 1.391 . S
H92 C100 0.950 . S
H93 C105 0.950 . S
H94 C102 0.952 . S
H95 C104 0.950 . S
H96 C106 0.950 . S
H97 C108 0.951 . S
H98 C110 0.950 . S
H99 C111 0.950 . S
C100 H92 0.950 . S
C100 C101 1.393 . S
C100 C102 1.391 . S
C101 C100 1.393 . S
C101 C105 1.382 1_545 S
C102 H94 0.952 . S
C102 C100 1.391 . S
C102 C103 1.411 . S
C103 C102 1.411 . S
C103 C104 1.391 1_545 S
C103 C109 1.486 1_445 S
C104 H95 0.950 . S
C104 C103 1.391 1_565 S
C104 C105 1.391 . S
C105 H93 0.950 . S
C105 C101 1.382 1_565 S
C105 C104 1.391 . S
C106 H96 0.950 . S
C106 C107 1.391 . S
C106 C108 1.391 . S
C107 C106 1.391 . S
C107 C111 1.386 1_565 S
C108 H97 0.951 . S
C108 C106 1.391 . S
C108 C109 1.407 . S
C109 C103 1.486 1_665 S
C109 C108 1.407 . S
C109 C110 1.394 1_565 S
C110 H98 0.950 . S
C110 C109 1.394 1_545 S
C110 C111 1.391 . S
C111 H99 0.950 . S
C111 C107 1.386 1_545 S
C111 C110 1.391 . S
C41 C18 1.728 . S
C47 C22 1.728 . S
C61 C20 0.999 . S
C67 C16 1.001 . S
C81 C21 1.678 . S
C87 C17 1.678 . S
C101 C19 1.460 1_545 S
C107 C23 1.460 1_565 S
