# Generated by pormake.
# Topology kag, (6)-cn, num edge types: 1
# Building blocks:
#     Node 0, Type 0, BuildingBlock: PAMTUU_clean_sbu_0, # of connection points: 6
#     Node 1, Type 0, BuildingBlock: PAMTUU_clean_sbu_0, # of connection points: 6
#     Node 2, Type 0, BuildingBlock: PAMTUU_clean_sbu_0, # of connection points: 6
#     Edge 3, Type (0, 0), BuildingBlock: AJUNOK_clean_linker_0, # of connection points: 2
#     Edge 4, Type (0, 0), BuildingBlock: AJUNOK_clean_linker_0, # of connection points: 2
#     Edge 5, Type (0, 0), BuildingBlock: AJUNOK_clean_linker_0, # of connection points: 2
#     Edge 6, Type (0, 0), BuildingBlock: AJUNOK_clean_linker_0, # of connection points: 2
#     Edge 7, Type (0, 0), BuildingBlock: AJUNOK_clean_linker_0, # of connection points: 2
#     Edge 8, Type (0, 0), BuildingBlock: AJUNOK_clean_linker_0, # of connection points: 2
#     Edge 9, Type (0, 0), BuildingBlock: AJUNOK_clean_linker_0, # of connection points: 2
#     Edge 10, Type (0, 0), BuildingBlock: AJUNOK_clean_linker_0, # of connection points: 2
#     Edge 11, Type (0, 0), BuildingBlock: AJUNOK_clean_linker_0, # of connection points: 2
# Relax obj value: 0.145
# Max RMSD: 0.202
# Mean RMSD: 0.143
data_MOF--net-kag--node1-PAMTUU_clean_sbu_0--edge1-AJUNOK_clean_linker_0
_symmetry_space_group_name_H-M    P1
_symmetry_Int_Tables_number       1
_symmetry_cell_setting            triclinic
loop_
_symmetry_equiv_pos_as_xyz
'x, y, z'
_cell_length_a     40.777854
_cell_length_b     22.594111
_cell_length_c     11.055486
_cell_angle_alpha  86.544374
_cell_angle_beta   98.642639
_cell_angle_gamma 123.57728
loop_
_atom_site_label
_atom_site_type_symbol
_atom_site_fract_x
_atom_site_fract_y
_atom_site_fract_z
_atom_type_partial_charge
Tb0 Tb 1.05135 0.64287 0.00131 0.0
Tb1 Tb 0.06025 0.50751 0.0243 0.0
C2 C 0.05327 0.57088 0.77335 0.0
C3 C 1.00585 0.7427 0.01871 0.0
C4 C 0.93651 0.73412 0.05528 0.0
C5 C 0.962 0.78459 0.9765 0.0
C6 C 0.99645 0.78887 0.95855 0.0
C7 C 0.98077 0.69282 0.0986 0.0
C8 C 0.94639 0.68862 0.11681 0.0
C9 C 1.0392 0.74134 0.9879 0.0
O10 O 0.99458 0.553 0.04368 0.0
O11 O 0.99662 0.46192 0.97153 0.0
O12 O 1.04156 0.51511 0.19299 0.0
O13 O 0.07152 0.63525 0.19263 0.0
O14 O 0.05412 0.41797 0.9489 0.0
O15 O 0.07909 0.45117 0.13766 0.0
O16 O 0.11975 0.60359 0.06717 0.0
O17 O 0.11107 0.68557 0.96193 0.0
O18 O 1.03421 0.59342 0.81979 0.0
O19 O 0.07318 0.54891 0.84305 0.0
C20 C 0.97667 0.48673 0.00563 0.0
O21 O 0.06131 0.73515 0.07898 0.0
O22 O 1.03003 0.69859 0.89693 0.0
C23 C 0.0563 0.57535 0.25101 0.0
C24 C 0.10949 0.41131 0.03082 0.0
C25 C 0.18102 0.42523 0.00223 0.0
C26 C 0.17258 0.42816 0.11929 0.0
C27 C 0.13708 0.42085 0.13351 0.0
C28 C 0.11743 0.40608 0.91377 0.0
C29 C 0.15284 0.41272 0.89975 0.0
C30 C 0.07411 0.41144 0.04687 0.0
C31 C 0.13424 0.66469 0.01192 0.0
H32 H 0.9546 0.81908 0.92545 0.0
H33 H 1.01509 0.82671 0.89485 0.0
H34 H 0.98726 0.65599 0.14464 0.0
H35 H 0.92724 0.64917 0.17772 0.0
H36 H 0.19353 0.43629 0.19983 0.0
H37 H 0.13163 0.42424 0.225 0.0
H38 H 0.09673 0.39832 0.83277 0.0
H39 H 0.15868 0.40984 0.80859 0.0
Tb40 Tb 0.50469 1.02477 0.97032 0.0
Tb41 Tb 0.60404 0.12086 0.00354 0.0
C42 C 0.55123 0.0737 0.74764 0.0
C43 C 0.38699 0.91153 0.96647 0.0
C44 C 0.30423 0.83163 0.97602 0.0
C45 C 0.31874 0.83802 0.86498 0.0
C46 C 0.35978 0.87742 0.86034 0.0
C47 C 0.37241 0.90496 0.07732 0.0
C48 C 0.33152 0.86518 0.08214 0.0
C49 C 0.43043 0.95311 0.96361 0.0
O50 O 0.52004 0.9489 0.94457 0.0
O51 O 0.58597 1.01054 0.03112 0.0
O52 O 0.58684 0.12689 0.17729 0.0
O53 O 0.52837 1.0179 0.156 0.0
O54 O 0.65492 0.19242 0.92284 0.0
O55 O 0.6601 0.1511 0.10421 0.0
O56 O 0.58862 0.19956 0.96948 0.0
O57 O 0.52259 0.13356 -0.00236 0.0
O58 O 0.52173 1.0686 0.79266 0.0
O59 O 0.58068 0.07591 0.81888 0.0
C60 C 0.55257 0.95116 0.988 0.0
O61 O 0.45532 0.99747 0.05257 0.0
O62 O 0.44731 0.94973 0.87511 0.0
C63 C 0.55662 0.07311 0.22435 0.0
C64 C 0.72209 0.23261 0.01629 0.0
C65 C 0.80524 0.30957 0.01444 0.0
C66 C 0.78928 0.28578 0.12503 0.0
C67 C 0.74806 0.24717 0.12584 0.0
C68 C 0.73811 0.25702 0.90601 0.0
C69 C 0.7792 0.29491 0.90506 0.0
C70 C 0.67843 0.19105 0.01528 0.0
C71 C 0.55562 0.19466 0.98293 0.0
H72 H 0.29836 0.81182 0.78211 0.0
H73 H 0.3702 0.88131 0.77383 0.0
H74 H 0.39263 0.93026 0.16087 0.0
H75 H 0.32118 0.86123 0.16883 0.0
H76 H 0.80871 0.29656 0.21073 0.0
H77 H 0.73654 0.22899 0.21213 0.0
H78 H 0.71886 0.24649 0.82 0.0
H79 H 0.79066 0.31367 0.81882 0.0
Tb80 Tb 0.60346 0.62385 0.98998 0.0
Tb81 Tb 0.50564 0.52455 0.94767 0.0
C82 C 0.55432 0.57259 0.20785 0.0
C83 C 0.7129 0.6929 0.03821 0.0
C84 C 0.7846 0.69896 0.06704 0.0
C85 C 0.77713 0.73061 0.15547 0.0
C86 C 0.74169 0.72798 0.1407 0.0
C87 C 0.71946 0.65795 0.95314 0.0
C88 C 0.75497 0.66096 0.96756 0.0
C89 C 0.67857 0.69981 0.01512 0.0
O90 O 0.58859 0.51669 0.95632 0.0
O91 O 0.52419 0.45186 -0.00131 0.0
O92 O 0.52638 0.51964 0.78157 0.0
O93 O 0.58173 0.63168 0.80203 0.0
O94 O 0.45133 0.44612 0.00583 0.0
O95 O 0.45317 0.49222 0.82769 0.0
O96 O 0.52142 0.6333 0.92332 0.0
O97 O 0.58611 0.69678 0.01925 0.0
O98 O 0.58414 0.57821 0.1643 0.0
O99 O 0.52361 0.56522 0.13522 0.0
C100 C 0.55638 0.45587 0.97906 0.0
O101 O 0.65576 0.67493 0.91054 0.0
O102 O 0.65811 0.68625 0.10458 0.0
C103 C 0.55451 0.57597 0.73323 0.0
C104 C 0.39687 0.45493 0.92265 0.0
C105 C 0.32904 0.45498 0.94719 0.0
C106 C 0.33449 0.44002 0.83311 0.0
C107 C 0.36803 0.43989 0.82111 0.0
C108 C 0.39203 0.47145 0.0365 0.0
C109 C 0.35828 0.4712 0.0487 0.0
C110 C 0.43064 0.45019 0.90734 0.0
C111 C 0.55319 0.69262 0.97316 0.0
H112 H 0.79906 0.75878 0.23462 0.0
H113 H 0.73732 0.75529 0.20751 0.0
H114 H 0.69784 0.63038 0.87306 0.0
H115 H 0.75994 0.63605 0.89803 0.0
H116 H 0.31259 0.42781 0.75321 0.0
H117 H 0.37119 0.42705 0.73248 0.0
H118 H 0.41386 0.48329 0.11641 0.0
H119 H 0.35455 0.4817 0.13822 0.0
C120 C 0.08828 0.62083 0.59073 0.0
C121 C 0.05324 0.5722 0.6403 0.0
C122 C 0.08887 0.623 0.46379 0.0
C123 C 0.05475 0.57506 0.3834 0.0
H124 H 0.11527 0.65767 0.65044 0.0
H125 H 0.11638 0.66116 0.42859 0.0
S126 S 0.95561 0.43838 0.46848 0.0
N127 N 0.9835 0.4768 0.60026 0.0
N128 N 0.98494 0.47855 0.36208 0.0
C129 C 1.01961 0.52616 0.43226 0.0
C130 C 1.01876 0.52533 0.56087 0.0
C131 C 0.58943 0.11091 0.44095 0.0
C132 C 0.55443 0.07388 0.35689 0.0
C133 C 0.58796 0.11072 0.56698 0.0
C134 C 0.55144 0.07496 0.61358 0.0
H135 H 0.61822 0.1391 0.4095 0.0
H136 H 0.61575 0.13911 0.62843 0.0
S137 S 0.45116 0.97261 0.43147 0.0
N138 N 0.48206 1.00168 0.32899 0.0
N139 N 0.47943 1.00288 0.56542 0.0
C140 C 0.5162 1.03916 0.53036 0.0
C141 C 0.51768 1.03813 0.4022 0.0
C142 C 0.51955 0.53691 0.5195 0.0
C143 C 0.5553 0.57648 0.5999 0.0
C144 C 0.51947 0.53655 0.39264 0.0
C145 C 0.5552 0.57429 0.34189 0.0
H146 H 0.49135 0.50665 0.55469 0.0
H147 H 0.49122 0.50566 0.33409 0.0
S148 S 0.65687 0.68541 0.51312 0.0
N149 N 0.62735 0.65446 0.61985 0.0
N150 N 0.62729 0.65244 0.38184 0.0
C151 C 0.59118 0.61358 0.42137 0.0
C152 C 0.5912 0.6151 0.55028 0.0
C153 C 0.21919 0.38307 0.92352 0.0
C154 C 0.21916 0.43494 0.98726 0.0
C155 C 0.25489 0.39025 0.91083 0.0
C156 C 0.29187 0.44982 0.96069 0.0
H157 H 0.19138 0.33597 0.88506 0.0
H158 H 0.25346 0.3482 0.86318 0.0
S159 S 0.30778 0.60387 0.12552 0.0
N160 N 0.25896 0.54973 0.09461 0.0
N161 N 0.32622 0.56383 0.06937 0.0
C162 C 0.29222 0.50286 0.02239 0.0
C163 C 0.25583 0.4953 0.03589 0.0
C164 C 0.87385 0.41285 0.08971 0.0
C165 C 0.84902 0.35184 0.01347 0.0
C166 C 0.91496 0.45572 0.08638 0.0
C167 C 0.93309 0.4388 0.00801 0.0
H168 H 0.86128 0.42848 0.15065 0.0
H169 H 0.93266 0.50254 0.14622 0.0
S170 S 0.8813 0.28316 0.7928 0.0
N171 N 0.84548 0.2756 0.85907 0.0
N172 N 0.92283 0.35578 0.85352 0.0
C173 C 0.90867 0.37713 0.93285 0.0
C174 C 0.86666 0.33389 0.93521 0.0
C175 C 0.58726 0.88633 0.01177 0.0
C176 C 0.55169 0.88415 0.98614 0.0
C177 C 0.58741 0.82442 0.00765 0.0
C178 C 0.552 0.75737 0.97754 0.0
H179 H 0.61545 0.93642 0.03415 0.0
H180 H 0.61571 0.82952 0.02727 0.0
S181 S 0.45028 0.72116 0.91002 0.0
N182 N 0.47964 0.80797 0.93445 0.0
N183 N 0.48001 0.69231 0.92671 0.0
C184 C 0.5161 0.75414 0.95343 0.0
C185 C 0.51592 0.81718 0.95775 0.0
C186 C 0.86277 0.65843 0.05274 0.0
C187 C 0.89851 0.72606 0.06756 0.0
C188 C 0.82613 0.64986 0.05546 0.0
C189 C 0.8239 0.70852 0.07395 0.0
H190 H 0.86299 0.61196 0.0355 0.0
H191 H 0.79929 0.59698 0.04178 0.0
S192 S 0.90902 0.89649 0.12203 0.0
N193 N 0.92959 0.85224 0.10635 0.0
N194 N 0.86068 0.83649 0.10863 0.0
C195 C 0.8595 0.77624 0.09146 0.0
C196 C 0.89679 0.78493 0.08868 0.0
C197 C 0.20399 0.69716 0.07942 0.0
C198 C 0.17754 0.70927 0.00235 0.0
C199 C 0.24479 0.73691 0.07029 0.0
C200 C 0.26077 0.7897 0.98252 0.0
H201 H 0.19319 0.65674 0.14792 0.0
H202 H 0.26395 0.72568 0.13165 0.0
S203 S 0.20473 0.84224 0.75759 0.0
N204 N 0.17066 0.77826 0.8344 0.0
N205 N 0.24722 0.85241 0.81742 0.0
C206 C 0.23479 0.80223 0.90442 0.0
C207 C 0.19328 0.76231 0.91443 0.0
C208 C 0.58997 0.3905 0.96595 0.0
C209 C 0.55581 0.38892 0.98171 0.0
C210 C 0.58975 0.3279 0.96657 0.0
C211 C 0.55535 0.26075 0.98275 0.0
H212 H 0.61723 0.44052 0.95286 0.0
H213 H 0.61688 0.33242 0.95399 0.0
S214 S 0.45771 0.22682 0.0279 0.0
N215 N 0.48641 0.3136 0.01411 0.0
N216 N 0.48599 0.19711 0.01527 0.0
C217 C 0.52097 0.25849 -0.00118 0.0
C218 C 0.5212 0.32208 -0.00168 0.0
loop_
_geom_bond_atom_site_label_1
_geom_bond_atom_site_label_2
_geom_bond_distance
_geom_bond_site_symmetry_2
_ccdc_geom_bond_type
Tb0 C9 2.764 . S
Tb0 O10 2.325 . S
Tb0 O13 2.303 1_656 S
Tb0 O17 2.322 1_655 S
Tb0 O18 2.349 . S
Tb0 O21 2.415 1_556 S
Tb0 O22 2.399 . S
Tb1 O11 2.322 1_455 S
Tb1 O12 2.349 . S
Tb1 O14 2.415 1_554 S
Tb1 O15 2.399 . S
Tb1 O16 2.325 . S
Tb1 O19 2.303 1_554 S
Tb1 C30 2.764 . S
C2 O18 1.290 . S
C2 O19 1.245 1_655 S
C3 C6 1.358 . S
C3 C7 1.332 1_556 S
C3 C9 1.504 . S
C4 C5 1.373 1_554 S
C4 C8 1.308 . S
C5 C4 1.373 1_556 S
C5 C6 1.429 . S
C5 H32 0.932 . S
C6 C3 1.358 . S
C6 C5 1.429 . S
C6 H33 0.930 . S
C7 C3 1.332 1_554 S
C7 C8 1.394 . S
C7 H34 0.932 . S
C8 C4 1.308 . S
C8 C7 1.394 . S
C8 H35 0.929 . S
C9 Tb0 2.764 . S
C9 C3 1.504 . S
C9 O21 1.239 1_556 S
C9 O22 1.263 . S
O10 Tb0 2.325 . S
O10 C20 1.236 . S
O11 Tb1 2.322 1_655 S
O11 C20 1.257 1_554 S
O12 Tb1 2.349 . S
O12 C23 1.261 . S
O13 Tb0 2.303 1_454 S
O13 C23 1.257 . S
O14 Tb1 2.415 1_556 S
O14 C30 1.239 1_556 S
O15 Tb1 2.399 . S
O15 C30 1.263 . S
O16 Tb1 2.325 . S
O16 C31 1.236 . S
O17 Tb0 2.322 1_455 S
O17 C31 1.257 1_556 S
O18 Tb0 2.349 . S
O18 C2 1.290 . S
O19 Tb1 2.303 1_556 S
O19 C2 1.245 1_455 S
C20 O10 1.236 . S
C20 O11 1.257 1_556 S
O21 Tb0 2.415 1_554 S
O21 C9 1.239 1_554 S
O22 Tb0 2.399 . S
O22 C9 1.263 . S
C23 O12 1.261 . S
C23 O13 1.257 . S
C24 C27 1.358 . S
C24 C28 1.332 1_554 S
C24 C30 1.504 . S
C25 C26 1.373 1_556 S
C25 C29 1.308 . S
C26 C25 1.373 1_554 S
C26 C27 1.429 . S
C26 H36 0.932 . S
C27 C24 1.358 . S
C27 C26 1.429 . S
C27 H37 0.930 . S
C28 C24 1.332 1_556 S
C28 C29 1.394 . S
C28 H38 0.932 . S
C29 C25 1.308 . S
C29 C28 1.394 . S
C29 H39 0.929 . S
C30 Tb1 2.764 . S
C30 O14 1.239 1_554 S
C30 O15 1.263 . S
C30 C24 1.504 . S
C31 O16 1.236 . S
C31 O17 1.257 1_554 S
H32 C5 0.932 . S
H33 C6 0.930 . S
H34 C7 0.932 . S
H35 C8 0.929 . S
H36 C26 0.932 . S
H37 C27 0.930 . S
H38 C28 0.932 . S
H39 C29 0.929 . S
Tb40 C49 2.764 . S
Tb40 O50 2.325 . S
Tb40 O53 2.303 1_556 S
Tb40 O57 2.322 1_565 S
Tb40 O58 2.349 . S
Tb40 O61 2.415 1_556 S
Tb40 O62 2.399 . S
Tb41 O51 2.322 1_545 S
Tb41 O52 2.349 . S
Tb41 O54 2.415 1_554 S
Tb41 O55 2.399 . S
Tb41 O56 2.325 . S
Tb41 O59 2.303 1_554 S
Tb41 C70 2.764 . S
C42 O58 1.261 . S
C42 O59 1.257 1_565 S
C43 C46 1.358 . S
C43 C47 1.332 1_556 S
C43 C49 1.504 . S
C44 C45 1.381 . S
C44 C48 1.302 1_556 S
C45 C44 1.381 . S
C45 C46 1.429 . S
C45 H72 0.932 . S
C46 C43 1.358 . S
C46 C45 1.429 . S
C46 H73 0.930 . S
C47 C43 1.332 1_554 S
C47 C48 1.394 . S
C47 H74 0.932 . S
C48 C44 1.302 1_554 S
C48 C47 1.394 . S
C48 H75 0.929 . S
C49 Tb40 2.764 . S
C49 C43 1.504 . S
C49 O61 1.239 1_556 S
C49 O62 1.263 . S
O50 Tb40 2.325 . S
O50 C60 1.236 1_556 S
O51 Tb41 2.322 1_565 S
O51 C60 1.257 . S
O52 Tb41 2.349 . S
O52 C63 1.261 . S
O53 Tb40 2.303 1_554 S
O53 C63 1.257 1_565 S
O54 Tb41 2.415 1_556 S
O54 C70 1.239 1_556 S
O55 Tb41 2.399 . S
O55 C70 1.263 . S
O56 Tb41 2.325 . S
O56 C71 1.236 1_554 S
O57 Tb40 2.322 1_545 S
O57 C71 1.257 . S
O58 Tb40 2.349 . S
O58 C42 1.261 . S
O59 Tb41 2.303 1_556 S
O59 C42 1.257 1_545 S
C60 O50 1.236 1_554 S
C60 O51 1.257 . S
O61 Tb40 2.415 1_554 S
O61 C49 1.239 1_554 S
O62 Tb40 2.399 . S
O62 C49 1.263 . S
C63 O52 1.261 . S
C63 O53 1.257 1_545 S
C64 C67 1.358 . S
C64 C68 1.332 1_554 S
C64 C70 1.504 . S
C65 C66 1.373 . S
C65 C69 1.308 1_554 S
C66 C65 1.373 . S
C66 C67 1.429 . S
C66 H76 0.932 . S
C67 C64 1.358 . S
C67 C66 1.429 . S
C67 H77 0.930 . S
C68 C64 1.332 1_556 S
C68 C69 1.394 . S
C68 H78 0.932 . S
C69 C65 1.308 1_556 S
C69 C68 1.394 . S
C69 H79 0.929 . S
C70 Tb41 2.764 . S
C70 O54 1.239 1_554 S
C70 O55 1.263 . S
C70 C64 1.504 . S
C71 O56 1.236 1_556 S
C71 O57 1.257 . S
H72 C45 0.932 . S
H73 C46 0.930 . S
H74 C47 0.932 . S
H75 C48 0.929 . S
H76 C66 0.932 . S
H77 C67 0.930 . S
H78 C68 0.932 . S
H79 C69 0.929 . S
Tb80 C89 2.764 . S
Tb80 O90 2.325 . S
Tb80 O93 2.303 1_554 S
Tb80 O97 2.322 . S
Tb80 O98 2.349 . S
Tb80 O101 2.415 1_554 S
Tb80 O102 2.399 . S
Tb81 O91 2.322 . S
Tb81 O92 2.349 . S
Tb81 O94 2.415 1_556 S
Tb81 O95 2.399 . S
Tb81 O96 2.325 . S
Tb81 O99 2.303 1_556 S
Tb81 C110 2.764 . S
C82 O98 1.261 . S
C82 O99 1.257 . S
C83 C86 1.358 . S
C83 C87 1.332 1_554 S
C83 C89 1.504 . S
C84 C85 1.373 . S
C84 C88 1.308 1_554 S
C85 C84 1.373 . S
C85 C86 1.429 . S
C85 H112 0.932 . S
C86 C83 1.358 . S
C86 C85 1.429 . S
C86 H113 0.930 . S
C87 C83 1.332 1_556 S
C87 C88 1.394 . S
C87 H114 0.932 . S
C88 C84 1.308 1_556 S
C88 C87 1.394 . S
C88 H115 0.929 . S
C89 Tb80 2.764 . S
C89 C83 1.504 . S
C89 O101 1.239 1_554 S
C89 O102 1.263 . S
O90 Tb80 2.325 . S
O90 C100 1.236 1_554 S
O91 Tb81 2.322 . S
O91 C100 1.257 . S
O92 Tb81 2.349 . S
O92 C103 1.261 . S
O93 Tb80 2.303 1_556 S
O93 C103 1.257 . S
O94 Tb81 2.415 1_554 S
O94 C110 1.239 1_554 S
O95 Tb81 2.399 . S
O95 C110 1.263 . S
O96 Tb81 2.325 . S
O96 C111 1.236 1_556 S
O97 Tb80 2.322 . S
O97 C111 1.257 . S
O98 Tb80 2.349 . S
O98 C82 1.261 . S
O99 Tb81 2.303 1_554 S
O99 C82 1.257 . S
C100 O90 1.236 1_556 S
C100 O91 1.257 . S
O101 Tb80 2.415 1_556 S
O101 C89 1.239 1_556 S
O102 Tb80 2.399 . S
O102 C89 1.263 . S
C103 O92 1.261 . S
C103 O93 1.257 . S
C104 C107 1.358 . S
C104 C108 1.332 1_556 S
C104 C110 1.504 . S
C105 C106 1.373 . S
C105 C109 1.308 1_556 S
C106 C105 1.373 . S
C106 C107 1.429 . S
C106 H116 0.932 . S
C107 C104 1.358 . S
C107 C106 1.429 . S
C107 H117 0.930 . S
C108 C104 1.332 1_554 S
C108 C109 1.394 . S
C108 H118 0.932 . S
C109 C105 1.308 1_554 S
C109 C108 1.394 . S
C109 H119 0.929 . S
C110 Tb81 2.764 . S
C110 O94 1.239 1_556 S
C110 O95 1.263 . S
C110 C104 1.504 . S
C111 O96 1.236 1_554 S
C111 O97 1.257 . S
H112 C85 0.932 . S
H113 C86 0.930 . S
H114 C87 0.932 . S
H115 C88 0.929 . S
H116 C106 0.932 . S
H117 C107 0.930 . S
H118 C108 0.932 . S
H119 C109 0.929 . S
C120 C121 1.369 . S
C120 C122 1.419 . S
C120 H124 0.930 . S
C121 C120 1.369 . S
C121 C130 1.429 1_455 S
C122 C120 1.419 . S
C122 C123 1.363 . S
C122 H125 0.929 . S
C123 C122 1.363 . S
C123 C129 1.428 1_455 S
H124 C120 0.930 . S
H125 C122 0.929 . S
S126 N127 1.613 . S
S126 N128 1.610 . S
N127 S126 1.613 . S
N127 C130 1.350 . S
N128 S126 1.610 . S
N128 C129 1.351 . S
C129 C123 1.428 1_655 S
C129 N128 1.351 . S
C129 C130 1.434 . S
C130 C121 1.429 1_655 S
C130 N127 1.350 . S
C130 C129 1.434 . S
C131 C132 1.369 1_545 S
C131 C133 1.419 . S
C131 H135 0.930 . S
C132 C131 1.369 1_565 S
C132 C141 1.429 . S
C133 C131 1.419 . S
C133 C134 1.363 . S
C133 H136 0.929 . S
C134 C133 1.363 . S
C134 C140 1.428 1_545 S
H135 C131 0.930 . S
H136 C133 0.929 . S
S137 N138 1.613 . S
S137 N139 1.610 . S
N138 S137 1.613 . S
N138 C141 1.350 . S
N139 S137 1.610 . S
N139 C140 1.351 . S
C140 C134 1.428 1_565 S
C140 N139 1.351 . S
C140 C141 1.434 . S
C141 C132 1.429 . S
C141 N138 1.350 . S
C141 C140 1.434 . S
C142 C143 1.369 . S
C142 C144 1.419 . S
C142 H146 0.930 . S
C143 C142 1.369 . S
C143 C152 1.429 . S
C144 C142 1.419 . S
C144 C145 1.363 . S
C144 H147 0.929 . S
C145 C144 1.363 . S
C145 C151 1.428 . S
H146 C142 0.930 . S
H147 C144 0.929 . S
S148 N149 1.613 . S
S148 N150 1.610 . S
N149 S148 1.613 . S
N149 C152 1.350 . S
N150 S148 1.610 . S
N150 C151 1.351 . S
C151 C145 1.428 . S
C151 N150 1.351 . S
C151 C152 1.434 . S
C152 C143 1.429 . S
C152 N149 1.350 . S
C152 C151 1.434 . S
C153 C154 1.369 . S
C153 C155 1.419 . S
C153 H157 0.930 . S
C154 C153 1.369 . S
C154 C163 1.429 1_556 S
C155 C153 1.419 . S
C155 C156 1.363 . S
C155 H158 0.929 . S
C156 C155 1.363 . S
C156 C162 1.428 1_556 S
H157 C153 0.930 . S
H158 C155 0.929 . S
S159 N160 1.613 . S
S159 N161 1.610 . S
N160 S159 1.613 . S
N160 C163 1.350 . S
N161 S159 1.610 . S
N161 C162 1.351 . S
C162 C156 1.428 1_554 S
C162 N161 1.351 . S
C162 C163 1.434 . S
C163 C154 1.429 1_554 S
C163 N160 1.350 . S
C163 C162 1.434 . S
C164 C165 1.372 . S
C164 C166 1.419 . S
C164 H168 0.930 . S
C165 C164 1.372 . S
C165 C174 1.425 1_554 S
C166 C164 1.419 . S
C166 C167 1.363 1_554 S
C166 H169 0.929 . S
C167 C166 1.363 1_556 S
C167 C173 1.428 . S
H168 C164 0.930 . S
H169 C166 0.929 . S
S170 N171 1.613 . S
S170 N172 1.610 . S
N171 S170 1.613 . S
N171 C174 1.350 . S
N172 S170 1.610 . S
N172 C173 1.351 . S
C173 C167 1.428 . S
C173 N172 1.351 . S
C173 C174 1.434 . S
C174 C165 1.425 1_556 S
C174 N171 1.350 . S
C174 C173 1.434 . S
C175 C176 1.369 1_556 S
C175 C177 1.419 . S
C175 H179 0.930 . S
C176 C175 1.369 1_554 S
C176 C185 1.429 . S
C177 C175 1.419 . S
C177 C178 1.363 1_556 S
C177 H180 0.929 . S
C178 C177 1.363 1_554 S
C178 C184 1.428 . S
H179 C175 0.930 . S
H180 C177 0.929 . S
S181 N182 1.613 . S
S181 N183 1.610 . S
N182 S181 1.613 . S
N182 C185 1.350 . S
N183 S181 1.610 . S
N183 C184 1.351 . S
C184 C178 1.428 . S
C184 N183 1.351 . S
C184 C185 1.434 . S
C185 C176 1.429 . S
C185 N182 1.350 . S
C185 C184 1.434 . S
C186 C187 1.369 1_556 S
C186 C188 1.419 . S
C186 H190 0.930 . S
C187 C186 1.369 1_554 S
C187 C196 1.429 . S
C188 C186 1.419 . S
C188 C189 1.363 1_556 S
C188 H191 0.929 . S
C189 C188 1.363 1_554 S
C189 C195 1.428 . S
H190 C186 0.930 . S
H191 C188 0.929 . S
S192 N193 1.613 . S
S192 N194 1.610 . S
N193 S192 1.613 . S
N193 C196 1.350 . S
N194 S192 1.610 . S
N194 C195 1.351 . S
C195 C189 1.428 . S
C195 N194 1.351 . S
C195 C196 1.434 . S
C196 C187 1.429 . S
C196 N193 1.350 . S
C196 C195 1.434 . S
C197 C198 1.369 . S
C197 C199 1.419 . S
C197 H201 0.930 . S
C198 C197 1.369 . S
C198 C207 1.429 1_554 S
C199 C197 1.419 . S
C199 C200 1.363 1_554 S
C199 H202 0.929 . S
C200 C199 1.363 1_556 S
C200 C206 1.428 . S
H201 C197 0.930 . S
H202 C199 0.929 . S
S203 N204 1.613 . S
S203 N205 1.610 . S
N204 S203 1.613 . S
N204 C207 1.350 . S
N205 S203 1.610 . S
N205 C206 1.351 . S
C206 C200 1.428 . S
C206 N205 1.351 . S
C206 C207 1.434 . S
C207 C198 1.429 1_556 S
C207 N204 1.350 . S
C207 C206 1.434 . S
C208 C209 1.369 . S
C208 C210 1.419 . S
C208 H212 0.930 . S
C209 C208 1.369 . S
C209 C218 1.429 1_556 S
C210 C208 1.419 . S
C210 C211 1.363 . S
C210 H213 0.929 . S
C211 C210 1.363 . S
C211 C217 1.428 1_556 S
H212 C208 0.930 . S
H213 C210 0.929 . S
S214 N215 1.613 . S
S214 N216 1.610 . S
N215 S214 1.613 . S
N215 C218 1.350 . S
N216 S214 1.610 . S
N216 C217 1.351 . S
C217 C211 1.428 1_554 S
C217 N216 1.351 . S
C217 C218 1.434 . S
C218 C209 1.429 1_554 S
C218 N215 1.350 . S
C218 C217 1.434 . S
C121 C2 1.452 1_455 S
C123 C23 1.463 . S
C132 C63 1.480 1_565 S
C134 C42 1.477 1_545 S
C143 C103 1.470 . S
C145 C82 1.473 . S
C154 C25 0.857 . S
C156 C105 0.888 . S
C165 C65 2.046 . S
C167 C20 2.057 . S
C176 C60 2.556 . S
C178 C111 2.598 . S
C187 C4 0.873 . S
C189 C84 0.882 . S
C198 C31 2.057 . S
C200 C44 2.046 . S
C209 C100 2.598 . S
C211 C71 2.554 . S
