# Generated by pormake.
# Topology rob, (6)-cn, num edge types: 1
# Building blocks:
#     Node 0, Type 0, BuildingBlock: FUNLAD_clean_sbu_0, # of connection points: 6
#     Node 1, Type 0, BuildingBlock: FUNLAD_clean_sbu_0, # of connection points: 6
#     Node 2, Type 0, BuildingBlock: FUNLAD_clean_sbu_0, # of connection points: 6
#     Node 3, Type 0, BuildingBlock: FUNLAD_clean_sbu_0, # of connection points: 6
#     Edge 4, Type (0, 0), None
#     Edge 5, Type (0, 0), None
#     Edge 6, Type (0, 0), None
#     Edge 7, Type (0, 0), None
#     Edge 8, Type (0, 0), None
#     Edge 9, Type (0, 0), None
#     Edge 10, Type (0, 0), None
#     Edge 11, Type (0, 0), None
#     Edge 12, Type (0, 0), None
#     Edge 13, Type (0, 0), None
#     Edge 14, Type (0, 0), None
#     Edge 15, Type (0, 0), None
# Relax obj value: 0.053
# Max RMSD: 0.125
# Mean RMSD: 0.125
data_MOF--net-rob--node1-FUNLAD_clean_sbu_0--edge1-none
_symmetry_space_group_name_H-M    P1
_symmetry_Int_Tables_number       1
_symmetry_cell_setting            triclinic
loop_
_symmetry_equiv_pos_as_xyz
'x, y, z'
_cell_length_a     9.2746959
_cell_length_b     25.082891
_cell_length_c     10.096814
_cell_angle_alpha  89.956485
_cell_angle_beta   89.999999
_cell_angle_gamma 90.000212
loop_
_atom_site_label
_atom_site_type_symbol
_atom_site_fract_x
_atom_site_fract_y
_atom_site_fract_z
_atom_type_partial_charge
C0 C 0.33225 0.27056 0.80395 0.0
N1 N 0.22429 0.41117 0.99807 0.0
C2 C 0.36811 0.41688 0.02178 0.0
C3 C 0.43253 0.46706 0.02137 0.0
C4 C 0.35038 0.51249 0.99119 0.0
C5 C 0.20245 0.50529 0.96321 0.0
C6 C 0.14118 0.45426 0.96879 0.0
Zn7 Zn 0.14424 0.33427 0.99948 0.0
C8 C -0.06364 0.30866 0.80393 0.0
N9 N 0.04437 0.16804 0.99845 0.0
C10 C 0.12742 0.12498 0.96882 0.0
C11 C -0.09939 0.16229 0.02245 0.0
C12 C 0.8362 0.1121 0.02192 0.0
C13 C -0.08172 0.06672 0.99131 0.0
C14 C 0.06614 0.07396 0.9631 0.0
Zn15 Zn 0.1244 0.24495 -0.00033 0.0
O16 O 0.29641 0.3154 0.85219 0.0
C17 C 0.33167 0.26957 0.19581 0.0
O18 O 0.2758 0.22802 0.84838 0.0
H19 H 0.83405 0.19676 0.04145 0.0
H20 H 0.43468 0.38237 0.04052 0.0
H21 H 0.2409 0.1302 0.94788 0.0
O22 O 0.29157 0.31455 0.15122 0.0
O23 O 0.27953 0.22698 0.14746 0.0
H24 H 0.02764 0.44908 0.94807 0.0
O25 O -0.0229 0.26466 0.15137 0.0
O26 O -0.01085 0.35223 0.14724 0.0
O27 O -0.02779 0.26383 0.85235 0.0
O28 O -0.00718 0.35121 0.84817 0.0
C29 C -0.06298 0.30964 0.19578 0.0
H30 H 0.54582 0.46981 0.04589 0.0
H31 H 0.13415 0.53847 0.93575 0.0
H32 H 0.72296 0.10931 0.04665 0.0
H33 H 0.13439 0.04083 0.93532 0.0
C34 C 0.83225 0.77056 0.80404 0.0
N35 N 0.72429 0.91117 0.99816 0.0
C36 C 0.8681 0.91688 0.0219 0.0
C37 C -0.06747 0.96707 0.02145 0.0
C38 C 0.85038 1.01249 0.99122 0.0
C39 C 0.70246 1.00529 0.96322 0.0
C40 C 0.64118 0.95426 0.96883 0.0
Zn41 Zn 0.64424 0.83427 0.99958 0.0
C42 C 0.43636 0.80866 0.80402 0.0
N43 N 0.54437 0.66803 0.99853 0.0
C44 C 0.62742 0.62499 0.96886 0.0
C45 C 0.40061 0.66228 0.02256 0.0
C46 C 0.3362 0.61209 0.02199 0.0
C47 C 0.41828 0.56671 0.99133 0.0
C48 C 0.56614 0.57396 0.9631 0.0
Zn49 Zn 0.6244 0.74495 -0.00024 0.0
O50 O 0.79641 0.8154 0.85229 0.0
C51 C 0.83167 0.76957 0.19591 0.0
O52 O 0.7758 0.72802 0.84847 0.0
H53 H 0.33406 0.69675 0.04159 0.0
H54 H -0.06533 0.88238 0.04067 0.0
H55 H 0.74089 0.6302 0.9479 0.0
O56 O 0.79158 0.81455 0.15131 0.0
O57 O 0.77953 0.72698 0.14756 0.0
H58 H 0.52765 0.94908 0.9481 0.0
O59 O 0.4771 0.76466 0.15146 0.0
O60 O 0.48915 0.85223 0.14734 0.0
O61 O 0.4722 0.76383 0.85245 0.0
O62 O 0.49282 0.85121 0.84826 0.0
C63 C 0.43702 0.80964 0.19588 0.0
H64 H 0.04581 0.96982 0.04599 0.0
H65 H 0.63416 1.03846 0.93572 0.0
H66 H 0.22298 0.6093 0.04673 0.0
H67 H 0.63438 0.54084 0.93528 0.0
C68 C 0.33225 0.80866 0.69548 0.0
N69 N 0.22429 0.66805 0.50137 0.0
C70 C 0.36811 0.66235 0.47765 0.0
C71 C 0.43253 0.61216 0.47807 0.0
C72 C 0.35038 0.56673 0.50824 0.0
C73 C 0.20245 0.57393 0.53623 0.0
C74 C 0.14118 0.62496 0.53065 0.0
Zn75 Zn 0.14424 0.74495 0.49995 0.0
C76 C -0.06364 0.77056 0.6955 0.0
N77 N 0.04437 0.91119 0.50098 0.0
C78 C 0.12742 0.95424 0.53061 0.0
C79 C -0.09939 0.91693 0.47698 0.0
C80 C 0.8362 0.96712 0.47751 0.0
C81 C -0.08172 1.01251 0.50812 0.0
C82 C 0.06614 1.00526 0.53633 0.0
Zn83 Zn 0.12441 0.83427 0.49976 0.0
O84 O 0.29641 0.76382 0.64724 0.0
C85 C 0.33167 0.80965 0.30362 0.0
O86 O 0.2758 0.8512 0.65105 0.0
H87 H 0.83405 0.88246 0.45798 0.0
H88 H 0.43468 0.69685 0.45891 0.0
H89 H 0.2409 0.94903 0.55155 0.0
O90 O 0.29157 0.76467 0.34822 0.0
O91 O 0.27953 0.85224 0.35197 0.0
H92 H 0.02764 0.63014 0.55136 0.0
O93 O -0.0229 0.81456 0.34806 0.0
O94 O -0.01085 0.72699 0.35219 0.0
O95 O -0.02779 0.81539 0.64708 0.0
O96 O -0.00718 0.72801 0.65127 0.0
C97 C -0.06298 0.76958 0.30365 0.0
H98 H 0.54582 0.60941 0.45354 0.0
H99 H 0.13415 0.54075 0.56368 0.0
H100 H 0.72296 0.96991 0.45279 0.0
H101 H 0.13439 1.03839 0.56411 0.0
C102 C 0.83225 0.30866 0.69539 0.0
N103 N 0.72428 0.16805 0.50127 0.0
C104 C 0.8681 0.16234 0.47754 0.0
C105 C -0.06747 0.11216 0.47798 0.0
C106 C 0.85038 0.06673 0.50821 0.0
C107 C 0.70246 0.07393 0.53621 0.0
C108 C 0.64118 0.12496 0.5306 0.0
Zn109 Zn 0.64424 0.24495 0.49986 0.0
C110 C 0.43636 0.27056 0.69541 0.0
N111 N 0.54437 0.41119 0.5009 0.0
C112 C 0.62742 0.45424 0.53058 0.0
C113 C 0.40061 0.41694 0.47687 0.0
C114 C 0.33621 0.46713 0.47744 0.0
C115 C 0.41828 0.51251 0.50811 0.0
C116 C 0.56614 0.50526 0.53633 0.0
Zn117 Zn 0.6244 0.33427 0.49967 0.0
O118 O 0.79641 0.26382 0.64715 0.0
C119 C 0.83167 0.30965 0.30352 0.0
O120 O 0.7758 0.3512 0.65096 0.0
H121 H 0.33406 0.38247 0.45784 0.0
H122 H -0.06533 0.19684 0.45876 0.0
H123 H 0.74089 0.44902 0.55153 0.0
O124 O 0.79157 0.26467 0.34812 0.0
O125 O 0.77953 0.35224 0.35187 0.0
H126 H 0.52765 0.13014 0.55133 0.0
O127 O 0.4771 0.31456 0.34797 0.0
O128 O 0.48915 0.22699 0.3521 0.0
O129 O 0.4722 0.31539 0.64699 0.0
O130 O 0.49282 0.22801 0.65117 0.0
C131 C 0.43702 0.26958 0.30355 0.0
H132 H 0.04581 0.1094 0.45345 0.0
H133 H 0.63416 0.04076 0.56371 0.0
H134 H 0.22298 0.46992 0.4527 0.0
H135 H 0.63438 0.53838 0.56415 0.0
loop_
_geom_bond_atom_site_label_1
_geom_bond_atom_site_label_2
_geom_bond_distance
_geom_bond_site_symmetry_2
_ccdc_geom_bond_type
C0 O16 1.251 . S
C0 O18 1.254 . S
N1 C2 1.333 1_554 S
N1 C6 1.307 . S
N1 Zn7 2.020 . S
C2 N1 1.333 1_556 S
C2 C3 1.379 . S
C2 H20 0.952 . S
C3 C2 1.379 . S
C3 C4 1.390 1_556 S
C3 H30 0.949 . S
C4 C3 1.390 1_554 S
C4 C5 1.357 . S
C5 C4 1.357 . S
C5 C6 1.370 . S
C5 H31 0.950 . S
C6 N1 1.307 . S
C6 C5 1.370 . S
C6 H24 0.948 . S
Zn7 N1 2.020 . S
Zn7 O16 2.039 1_554 S
Zn7 O22 2.034 . S
Zn7 O26 2.025 . S
Zn7 O28 2.024 1_554 S
C8 O27 1.246 . S
C8 O28 1.249 . S
N9 C10 1.307 . S
N9 C11 1.333 1_556 S
N9 Zn15 2.020 . S
C10 N9 1.307 . S
C10 C14 1.370 . S
C10 H21 0.948 . S
C11 N9 1.333 1_554 S
C11 C12 1.379 1_455 S
C11 H19 0.952 1_455 S
C12 C11 1.379 1_655 S
C12 C13 1.390 1_654 S
C12 H32 0.949 . S
C13 C12 1.390 1_456 S
C13 C14 1.357 . S
C14 C10 1.370 . S
C14 C13 1.357 . S
C14 H33 0.950 . S
Zn15 N9 2.020 . S
Zn15 O18 2.025 . S
Zn15 O23 2.024 1_556 S
Zn15 O25 2.039 1_556 S
Zn15 O27 2.034 . S
O16 C0 1.251 . S
O16 Zn7 2.039 1_556 S
C17 O22 1.246 . S
C17 O23 1.249 . S
O18 C0 1.254 . S
O18 Zn15 2.025 . S
H19 C11 0.952 1_655 S
H20 C2 0.952 . S
H21 C10 0.948 . S
O22 Zn7 2.034 . S
O22 C17 1.246 . S
O23 Zn15 2.024 1_554 S
O23 C17 1.249 . S
H24 C6 0.948 . S
O25 Zn15 2.039 1_554 S
O25 C29 1.251 . S
O26 Zn7 2.025 . S
O26 C29 1.254 . S
O27 C8 1.246 . S
O27 Zn15 2.034 . S
O28 Zn7 2.024 1_556 S
O28 C8 1.249 . S
C29 O25 1.251 . S
C29 O26 1.254 . S
H30 C3 0.949 . S
H31 C5 0.950 . S
H32 C12 0.949 . S
H33 C14 0.950 . S
C34 O50 1.251 . S
C34 O52 1.254 . S
N35 C36 1.333 1_554 S
N35 C40 1.307 . S
N35 Zn41 2.020 . S
C36 N35 1.333 1_556 S
C36 C37 1.379 1_655 S
C36 H54 0.952 1_655 S
C37 C36 1.379 1_455 S
C37 C38 1.390 1_456 S
C37 H64 0.949 . S
C38 C37 1.390 1_654 S
C38 C39 1.357 . S
C39 C38 1.357 . S
C39 C40 1.370 . S
C39 H65 0.950 . S
C40 N35 1.307 . S
C40 C39 1.370 . S
C40 H58 0.948 . S
Zn41 N35 2.020 . S
Zn41 O50 2.039 1_554 S
Zn41 O56 2.034 . S
Zn41 O60 2.025 . S
Zn41 O62 2.024 1_554 S
C42 O61 1.246 . S
C42 O62 1.249 . S
N43 C44 1.307 . S
N43 C45 1.333 1_556 S
N43 Zn49 2.020 . S
C44 N43 1.307 . S
C44 C48 1.370 . S
C44 H55 0.948 . S
C45 N43 1.333 1_554 S
C45 C46 1.379 . S
C45 H53 0.952 . S
C46 C45 1.379 . S
C46 C47 1.390 1_554 S
C46 H66 0.949 . S
C47 C46 1.390 1_556 S
C47 C48 1.357 . S
C48 C44 1.370 . S
C48 C47 1.357 . S
C48 H67 0.950 . S
Zn49 N43 2.020 . S
Zn49 O52 2.025 . S
Zn49 O57 2.024 1_556 S
Zn49 O59 2.039 1_556 S
Zn49 O61 2.034 . S
O50 C34 1.251 . S
O50 Zn41 2.039 1_556 S
C51 O56 1.246 . S
C51 O57 1.249 . S
O52 C34 1.254 . S
O52 Zn49 2.025 . S
H53 C45 0.952 . S
H54 C36 0.952 1_455 S
H55 C44 0.948 . S
O56 Zn41 2.034 . S
O56 C51 1.246 . S
O57 Zn49 2.024 1_554 S
O57 C51 1.249 . S
H58 C40 0.948 . S
O59 Zn49 2.039 1_554 S
O59 C63 1.251 . S
O60 Zn41 2.025 . S
O60 C63 1.254 . S
O61 C42 1.246 . S
O61 Zn49 2.034 . S
O62 Zn41 2.024 1_556 S
O62 C42 1.249 . S
C63 O59 1.251 . S
C63 O60 1.254 . S
H64 C37 0.949 . S
H65 C39 0.950 . S
H66 C46 0.949 . S
H67 C48 0.950 . S
C68 O84 1.251 . S
C68 O86 1.254 . S
N69 C70 1.333 . S
N69 C74 1.307 . S
N69 Zn75 2.020 . S
C70 N69 1.333 . S
C70 C71 1.379 . S
C70 H88 0.952 . S
C71 C70 1.379 . S
C71 C72 1.390 . S
C71 H98 0.949 . S
C72 C71 1.390 . S
C72 C73 1.357 . S
C73 C72 1.357 . S
C73 C74 1.370 . S
C73 H99 0.950 . S
C74 N69 1.307 . S
C74 C73 1.370 . S
C74 H92 0.948 . S
Zn75 N69 2.020 . S
Zn75 O84 2.039 . S
Zn75 O90 2.034 . S
Zn75 O94 2.025 . S
Zn75 O96 2.024 . S
C76 O95 1.246 . S
C76 O96 1.249 . S
N77 C78 1.307 . S
N77 C79 1.333 . S
N77 Zn83 2.020 . S
C78 N77 1.307 . S
C78 C82 1.370 . S
C78 H89 0.948 . S
C79 N77 1.333 . S
C79 C80 1.379 1_455 S
C79 H87 0.952 1_455 S
C80 C79 1.379 1_655 S
C80 C81 1.390 1_655 S
C80 H100 0.949 . S
C81 C80 1.390 1_455 S
C81 C82 1.357 . S
C82 C78 1.370 . S
C82 C81 1.357 . S
C82 H101 0.950 . S
Zn83 N77 2.020 . S
Zn83 O86 2.025 . S
Zn83 O91 2.024 . S
Zn83 O93 2.039 . S
Zn83 O95 2.034 . S
O84 C68 1.251 . S
O84 Zn75 2.039 . S
C85 O90 1.246 . S
C85 O91 1.249 . S
O86 C68 1.254 . S
O86 Zn83 2.025 . S
H87 C79 0.952 1_655 S
H88 C70 0.952 . S
H89 C78 0.948 . S
O90 Zn75 2.034 . S
O90 C85 1.246 . S
O91 Zn83 2.024 . S
O91 C85 1.249 . S
H92 C74 0.948 . S
O93 Zn83 2.039 . S
O93 C97 1.251 . S
O94 Zn75 2.025 . S
O94 C97 1.254 . S
O95 C76 1.246 . S
O95 Zn83 2.034 . S
O96 Zn75 2.024 . S
O96 C76 1.249 . S
C97 O93 1.251 . S
C97 O94 1.254 . S
H98 C71 0.949 . S
H99 C73 0.950 . S
H100 C80 0.949 . S
H101 C82 0.950 . S
C102 O118 1.251 . S
C102 O120 1.254 . S
N103 C104 1.333 . S
N103 C108 1.307 . S
N103 Zn109 2.020 . S
C104 N103 1.333 . S
C104 C105 1.379 1_655 S
C104 H122 0.952 1_655 S
C105 C104 1.379 1_455 S
C105 C106 1.390 1_455 S
C105 H132 0.949 . S
C106 C105 1.390 1_655 S
C106 C107 1.357 . S
C107 C106 1.357 . S
C107 C108 1.370 . S
C107 H133 0.950 . S
C108 N103 1.307 . S
C108 C107 1.370 . S
C108 H126 0.948 . S
Zn109 N103 2.020 . S
Zn109 O118 2.039 . S
Zn109 O124 2.034 . S
Zn109 O128 2.025 . S
Zn109 O130 2.024 . S
C110 O129 1.246 . S
C110 O130 1.249 . S
N111 C112 1.307 . S
N111 C113 1.333 . S
N111 Zn117 2.020 . S
C112 N111 1.307 . S
C112 C116 1.370 . S
C112 H123 0.948 . S
C113 N111 1.333 . S
C113 C114 1.379 . S
C113 H121 0.952 . S
C114 C113 1.379 . S
C114 C115 1.390 . S
C114 H134 0.949 . S
C115 C114 1.390 . S
C115 C116 1.357 . S
C116 C112 1.370 . S
C116 C115 1.357 . S
C116 H135 0.950 . S
Zn117 N111 2.020 . S
Zn117 O120 2.025 . S
Zn117 O125 2.024 . S
Zn117 O127 2.039 . S
Zn117 O129 2.034 . S
O118 C102 1.251 . S
O118 Zn109 2.039 . S
C119 O124 1.246 . S
C119 O125 1.249 . S
O120 C102 1.254 . S
O120 Zn117 2.025 . S
H121 C113 0.952 . S
H122 C104 0.952 1_455 S
H123 C112 0.948 . S
O124 Zn109 2.034 . S
O124 C119 1.246 . S
O125 Zn117 2.024 . S
O125 C119 1.249 . S
H126 C108 0.948 . S
O127 Zn117 2.039 . S
O127 C131 1.251 . S
O128 Zn109 2.025 . S
O128 C131 1.254 . S
O129 C110 1.246 . S
O129 Zn117 2.034 . S
O130 Zn109 2.024 . S
O130 C110 1.249 . S
C131 O127 1.251 . S
C131 O128 1.254 . S
H132 C105 0.949 . S
H133 C107 0.950 . S
H134 C114 0.949 . S
H135 C116 0.950 . S
C47 C4 1.929 1_556 S
C72 C115 1.929 . S
C13 C38 1.930 1_446 S
C106 C81 1.930 1_645 S
C131 C17 1.320 . S
C63 C85 1.320 . S
C42 C68 1.321 . S
C110 C0 1.321 . S
C51 C97 1.320 1_655 S
C119 C29 1.320 1_655 S
C102 C8 1.321 1_655 S
C76 C34 1.321 1_455 S
