# Generated by pormake.
# Topology pcu, (6)-cn, num edge types: 1
# Building blocks:
#     Node 0, Type 0, BuildingBlock: LEVNOQ01_clean_sbu_1, # of connection points: 6
#     Edge 1, Type (0, 0), BuildingBlock: KIFKEQ_clean_linker_1, # of connection points: 2
#     Edge 2, Type (0, 0), BuildingBlock: KIFKEQ_clean_linker_1, # of connection points: 2
#     Edge 3, Type (0, 0), BuildingBlock: KIFKEQ_clean_linker_1, # of connection points: 2
# Relax obj value: 0.007
# Max RMSD: 0.050
# Mean RMSD: 0.050
data_MOF--net-pcu--node1-LEVNOQ01_clean_sbu_1--edge1-KIFKEQ_clean_linker_1
_symmetry_space_group_name_H-M    P1
_symmetry_Int_Tables_number       1
_symmetry_cell_setting            triclinic
loop_
_symmetry_equiv_pos_as_xyz
'x, y, z'
_cell_length_a     16.233443
_cell_length_b     16.412893
_cell_length_c     16.046708
_cell_angle_alpha  76.830367
_cell_angle_beta   101.4577
_cell_angle_gamma 101.79901
loop_
_atom_site_label
_atom_site_type_symbol
_atom_site_fract_x
_atom_site_fract_y
_atom_site_fract_z
_atom_type_partial_charge
O0 O 0.85969 0.09551 0.93879 0.0
Mg1 Mg 0.97541 0.09233 0.89558 0.0
O2 O 0.85077 0.95962 0.99322 0.0
Mg3 Mg -0.00425 0.97431 0.99517 0.0
O4 O 0.97538 -0.00229 0.83532 0.0
O5 O 0.94639 0.12703 0.76769 0.0
O6 O 0.14344 -0.00522 0.99056 0.0
O7 O 0.97924 0.83081 0.98073 0.0
Mg8 Mg 0.10325 0.87594 0.15781 0.0
O9 O 0.00508 0.93874 0.14407 0.0
O10 O 0.21325 0.9577 0.12292 0.0
O11 O 0.05768 0.76976 0.10009 0.0
O12 O 0.06677 0.87439 0.27261 0.0
C13 C 0.06127 0.18025 -0.00098 0.0
C14 C 0.81686 0.02636 0.97184 0.0
C15 C 0.95389 0.05142 0.76419 0.0
C16 C 0.21313 -0.0081 0.04393 0.0
C17 C 0.00812 0.76561 0.02884 0.0
C18 C 0.01023 0.9188 0.22775 0.0
O19 O 0.08744 0.17811 0.93091 0.0
O20 O 0.01591 0.11299 0.03376 0.0
H21 H 0.00425 0.07749 0.24607 0.0
H22 H 0.89638 0.81409 0.32073 0.0
H23 H 0.96412 0.10822 0.37301 0.0
H24 H 0.85394 0.84446 0.44669 0.0
H25 H 0.97753 0.90569 0.7212 0.0
H26 H 0.95584 0.87452 0.57584 0.0
H27 H 0.86463 0.11208 0.46746 0.0
H28 H 0.88739 0.14383 0.61159 0.0
C29 C 0.96741 0.02729 0.28695 0.0
C30 C 0.95365 0.94356 0.27458 0.0
C31 C 0.94484 0.04453 0.36011 0.0
C32 C 0.90819 0.97805 0.42132 0.0
C33 C 0.88417 0.89643 0.40196 0.0
C34 C 0.90724 0.87927 0.32929 0.0
C35 C 0.95215 0.95074 0.66644 0.0
C36 C 0.93589 0.0278 0.67794 0.0
C37 C 0.93873 0.93262 0.58317 0.0
C38 C 0.90859 0.99111 0.50998 0.0
C39 C 0.88874 0.06626 0.52222 0.0
C40 C 0.9022 0.08438 0.60509 0.0
H41 H 0.35027 0.09722 0.10706 0.0
H42 H 0.26329 0.93553 0.9187 0.0
H43 H 0.49722 0.10917 0.08449 0.0
H44 H 0.41098 0.9457 0.89727 0.0
H45 H 0.69045 0.88815 -0.00131 0.0
H46 H 0.54055 0.88947 0.00308 0.0
H47 H 0.59283 0.1627 0.96837 0.0
H48 H 0.74164 0.16178 0.96387 0.0
C49 C 0.36268 0.06636 0.05897 0.0
C50 C 0.29597 0.01648 0.01373 0.0
C51 C 0.44656 0.0727 0.0464 0.0
C52 C 0.46533 0.02746 0.98997 0.0
C53 C 0.39808 0.98052 0.94174 0.0
C54 C 0.31376 0.97577 0.95292 0.0
C55 C 0.66986 0.94832 0.99239 0.0
C56 C 0.72769 0.02479 0.98072 0.0
C57 C 0.58409 0.94916 0.99394 0.0
C58 C 0.55519 0.02634 0.9851 0.0
C59 C 0.61342 0.10243 0.97518 0.0
C60 C 0.69859 0.10172 0.97262 0.0
H61 H 0.03767 0.71669 0.88667 0.0
H62 H 0.93456 0.62421 0.12481 0.0
H63 H 0.04542 0.57087 0.87942 0.0
H64 H 0.94549 0.48022 0.12073 0.0
H65 H 0.93979 0.21809 0.07242 0.0
H66 H 0.90777 0.35803 0.06463 0.0
H67 H 0.13586 0.47258 0.95294 0.0
H68 H 0.16491 0.33178 0.95633 0.0
C69 C 0.01369 0.66478 0.93555 0.0
C70 C 0.98499 0.68116 0.00596 0.0
C71 C 0.01996 0.58143 0.9328 0.0
C72 C -0.00166 0.51351 0.00084 0.0
C73 C 0.96263 0.53005 0.06697 0.0
C74 C 0.95595 0.61279 0.06928 0.0
C75 C 0.98417 0.27315 0.04798 0.0
C76 C 0.05517 0.26382 0.0153 0.0
C77 C 0.96546 0.35376 0.04287 0.0
C78 C 0.01827 0.42727 0.00661 0.0
C79 C 0.09204 0.41772 0.97859 0.0
C80 C 0.10986 0.33699 0.98225 0.0
loop_
_geom_bond_atom_site_label_1
_geom_bond_atom_site_label_2
_geom_bond_distance
_geom_bond_site_symmetry_2
_ccdc_geom_bond_type
O0 Mg1 1.990 . S
O0 C14 1.253 . S
Mg1 O0 1.990 . S
Mg1 O4 2.180 . S
Mg1 O5 2.117 . S
Mg1 O19 2.030 . S
O2 Mg3 2.072 1_665 S
O2 C14 1.260 1_564 S
Mg3 O2 2.072 1_445 S
Mg3 O4 2.099 1_454 S
Mg3 O6 2.079 1_554 S
Mg3 O7 2.072 1_444 S
Mg3 O9 2.099 1_545 S
Mg3 O20 2.079 . S
O4 Mg1 2.180 . S
O4 Mg3 2.099 1_656 S
O4 C15 1.279 . S
O5 Mg1 2.117 . S
O5 C15 1.250 . S
O6 Mg3 2.079 1_556 S
O6 C16 1.264 1_546 S
O7 Mg3 2.072 1_666 S
O7 C17 1.260 1_656 S
Mg8 O9 2.180 . S
Mg8 O10 2.030 . S
Mg8 O11 1.990 . S
Mg8 O12 2.117 . S
O9 Mg3 2.099 1_565 S
O9 Mg8 2.180 . S
O9 C18 1.279 . S
O10 Mg8 2.030 . S
O10 C16 1.248 . S
O11 Mg8 1.990 . S
O11 C17 1.253 . S
O12 Mg8 2.117 . S
O12 C18 1.250 . S
C13 O19 1.248 . S
C13 O20 1.264 1_656 S
C14 O0 1.253 . S
C14 O2 1.260 1_546 S
C15 O4 1.279 . S
C15 O5 1.250 . S
C16 O6 1.264 1_564 S
C16 O10 1.248 . S
C17 O7 1.260 1_454 S
C17 O11 1.253 . S
C18 O9 1.279 . S
C18 O12 1.250 . S
O19 Mg1 2.030 . S
O19 C13 1.248 . S
O20 Mg3 2.079 . S
O20 C13 1.264 1_454 S
H21 C29 0.950 1_545 S
H22 C34 0.950 . S
H23 C31 0.950 1_545 S
H24 C33 0.950 . S
H25 C35 0.950 . S
H26 C37 0.950 . S
H27 C39 0.950 . S
H28 C40 0.950 . S
C29 H21 0.950 1_565 S
C29 C30 1.386 1_455 S
C29 C31 1.391 . S
C30 C29 1.386 1_655 S
C30 C34 1.393 . S
C31 H23 0.950 1_565 S
C31 C29 1.391 . S
C31 C32 1.400 1_455 S
C32 C31 1.400 1_655 S
C32 C33 1.398 . S
C32 C38 1.491 . S
C33 H24 0.950 . S
C33 C32 1.398 . S
C33 C34 1.391 . S
C34 H22 0.950 . S
C34 C30 1.393 . S
C34 C33 1.391 . S
C35 H25 0.950 . S
C35 C36 1.386 . S
C35 C37 1.391 . S
C36 C35 1.386 . S
C36 C40 1.393 1_655 S
C37 H26 0.950 . S
C37 C35 1.391 . S
C37 C38 1.400 . S
C38 C32 1.491 . S
C38 C37 1.400 . S
C38 C39 1.398 1_655 S
C39 H27 0.950 . S
C39 C38 1.398 1_455 S
C39 C40 1.391 . S
C40 H28 0.950 . S
C40 C36 1.393 1_455 S
C40 C39 1.391 . S
H41 C49 0.950 . S
H42 C54 0.950 . S
H43 C51 0.950 . S
H44 C53 0.950 . S
H45 C55 0.950 . S
H46 C57 0.950 . S
H47 C59 0.950 . S
H48 C60 0.950 . S
C49 H41 0.950 . S
C49 C50 1.386 1_556 S
C49 C51 1.391 . S
C50 C49 1.386 1_554 S
C50 C54 1.393 1_545 S
C51 H43 0.950 . S
C51 C49 1.391 . S
C51 C52 1.400 1_556 S
C52 C51 1.400 1_554 S
C52 C53 1.398 1_545 S
C52 C58 1.491 . S
C53 H44 0.950 . S
C53 C52 1.398 1_565 S
C53 C54 1.391 . S
C54 H42 0.950 . S
C54 C50 1.393 1_565 S
C54 C53 1.391 . S
C55 H45 0.950 . S
C55 C56 1.385 1_565 S
C55 C57 1.391 . S
C56 C55 1.385 1_545 S
C56 C60 1.396 1_554 S
C57 H46 0.950 . S
C57 C55 1.391 . S
C57 C58 1.400 1_565 S
C58 C52 1.491 . S
C58 C57 1.400 1_545 S
C58 C59 1.398 1_554 S
C59 H47 0.950 . S
C59 C58 1.398 1_556 S
C59 C60 1.391 . S
C60 H48 0.950 . S
C60 C56 1.396 1_556 S
C60 C59 1.391 . S
H61 C69 0.950 . S
H62 C74 0.950 . S
H63 C71 0.950 . S
H64 C73 0.950 . S
H65 C75 0.950 . S
H66 C77 0.950 . S
H67 C79 0.950 . S
H68 C80 0.950 . S
C69 H61 0.950 . S
C69 C70 1.385 1_554 S
C69 C71 1.391 . S
C70 C69 1.385 1_556 S
C70 C74 1.394 1_455 S
C71 H63 0.950 . S
C71 C69 1.391 . S
C71 C72 1.400 1_554 S
C72 C71 1.400 1_556 S
C72 C73 1.398 1_455 S
C72 C78 1.491 . S
C73 H64 0.950 . S
C73 C72 1.398 1_655 S
C73 C74 1.391 . S
C74 H62 0.950 . S
C74 C70 1.394 1_655 S
C74 C73 1.391 . S
C75 H65 0.950 . S
C75 C76 1.386 1_655 S
C75 C77 1.391 . S
C76 C75 1.386 1_455 S
C76 C80 1.393 1_556 S
C77 H66 0.950 . S
C77 C75 1.391 . S
C77 C78 1.400 1_655 S
C78 C72 1.491 . S
C78 C77 1.400 1_455 S
C78 C79 1.398 1_556 S
C79 H67 0.950 . S
C79 C78 1.398 1_554 S
C79 C80 1.391 . S
C80 H68 0.950 . S
C80 C76 1.393 1_554 S
C80 C79 1.391 . S
C30 C18 1.320 1_655 S
C36 C15 1.320 1_565 S
C50 C16 1.454 1_545 S
C56 C14 1.442 1_554 S
C70 C17 1.433 1_556 S
C76 C13 1.444 1_455 S
