# Generated by pormake.
# Topology uov, (4)-cn, num edge types: 1
# Building blocks:
#     Node 0, Type 0, BuildingBlock: QUQFOY_clean_sbu_3, # of connection points: 4
#     Node 1, Type 0, BuildingBlock: QUQFOY_clean_sbu_3, # of connection points: 4
#     Node 2, Type 0, BuildingBlock: QUQFOY_clean_sbu_3, # of connection points: 4
#     Node 3, Type 0, BuildingBlock: QUQFOY_clean_sbu_3, # of connection points: 4
#     Node 4, Type 0, BuildingBlock: QUQFOY_clean_sbu_3, # of connection points: 4
#     Node 5, Type 0, BuildingBlock: QUQFOY_clean_sbu_3, # of connection points: 4
#     Node 6, Type 0, BuildingBlock: QUQFOY_clean_sbu_3, # of connection points: 4
#     Node 7, Type 0, BuildingBlock: QUQFOY_clean_sbu_3, # of connection points: 4
#     Edge 8, Type (0, 0), BuildingBlock: EYOCIG_clean_linker_4, # of connection points: 2
#     Edge 9, Type (0, 0), BuildingBlock: EYOCIG_clean_linker_4, # of connection points: 2
#     Edge 10, Type (0, 0), BuildingBlock: EYOCIG_clean_linker_4, # of connection points: 2
#     Edge 11, Type (0, 0), BuildingBlock: EYOCIG_clean_linker_4, # of connection points: 2
#     Edge 12, Type (0, 0), BuildingBlock: EYOCIG_clean_linker_4, # of connection points: 2
#     Edge 13, Type (0, 0), BuildingBlock: EYOCIG_clean_linker_4, # of connection points: 2
#     Edge 14, Type (0, 0), BuildingBlock: EYOCIG_clean_linker_4, # of connection points: 2
#     Edge 15, Type (0, 0), BuildingBlock: EYOCIG_clean_linker_4, # of connection points: 2
#     Edge 16, Type (0, 0), BuildingBlock: EYOCIG_clean_linker_4, # of connection points: 2
#     Edge 17, Type (0, 0), BuildingBlock: EYOCIG_clean_linker_4, # of connection points: 2
#     Edge 18, Type (0, 0), BuildingBlock: EYOCIG_clean_linker_4, # of connection points: 2
#     Edge 19, Type (0, 0), BuildingBlock: EYOCIG_clean_linker_4, # of connection points: 2
#     Edge 20, Type (0, 0), BuildingBlock: EYOCIG_clean_linker_4, # of connection points: 2
#     Edge 21, Type (0, 0), BuildingBlock: EYOCIG_clean_linker_4, # of connection points: 2
#     Edge 22, Type (0, 0), BuildingBlock: EYOCIG_clean_linker_4, # of connection points: 2
#     Edge 23, Type (0, 0), BuildingBlock: EYOCIG_clean_linker_4, # of connection points: 2
# Relax obj value: 0.138
# Max RMSD: 0.154
# Mean RMSD: 0.146
data_MOF--net-uov--node1-QUQFOY_clean_sbu_3--edge1-EYOCIG_clean_linker_4
_symmetry_space_group_name_H-M    P1
_symmetry_Int_Tables_number       1
_symmetry_cell_setting            triclinic
loop_
_symmetry_equiv_pos_as_xyz
'x, y, z'
_cell_length_a     25.566283
_cell_length_b     25.569972
_cell_length_c     35.325889
_cell_angle_alpha  90.022646
_cell_angle_beta   89.973698
_cell_angle_gamma 87.68112
loop_
_atom_site_label
_atom_site_type_symbol
_atom_site_fract_x
_atom_site_fract_y
_atom_site_fract_z
_atom_type_partial_charge
C0 C 0.95922 0.18991 0.54174 0.0
O1 O 0.96924 0.14897 0.56109 0.0
Cd2 Cd 0.05281 0.13477 0.5919 0.0
O3 O -0.00896 0.2267 0.5405 0.0
Cd4 Cd 0.07356 0.25461 0.56885 0.0
C5 C 0.13409 0.16115 0.5161 0.0
O6 O 0.06877 0.20998 0.62956 0.0
O7 O 0.14219 0.24599 0.6172 0.0
O8 O 0.01548 0.32728 0.58287 0.0
C9 C 0.11497 0.21965 0.63972 0.0
O10 O 0.1142 0.12927 0.53912 0.0
C11 C 0.04106 0.36117 0.56552 0.0
O12 O 0.12511 0.21037 0.5187 0.0
O13 O 0.08491 0.34677 0.55099 0.0
C14 C 0.20527 0.83329 0.29712 0.0
O15 O 0.16459 0.8616 0.30394 0.0
Cd16 Cd 0.15051 0.91054 0.36061 0.0
O17 O 0.24437 0.83247 0.3194 0.0
Cd18 Cd 0.26487 0.88045 0.37871 0.0
C19 C 0.17742 0.8133 0.42592 0.0
O20 O 0.2201 0.96712 0.37276 0.0
O21 O 0.24062 0.94052 0.42932 0.0
O22 O 0.34065 0.91541 0.34941 0.0
C23 C 0.22603 -0.02237 0.40756 0.0
O24 O 0.14547 0.84597 0.41033 0.0
C25 C 0.37167 0.90404 0.37635 0.0
O26 O 0.22621 0.81247 0.41837 0.0
O27 O 0.35513 0.8754 0.40286 0.0
C28 C -0.00338 0.7592 0.54073 0.0
O29 O -0.0123 0.80023 0.56024 0.0
Cd30 Cd 0.90482 0.81655 0.59156 0.0
O31 O 0.96398 0.72313 0.53959 0.0
Cd32 Cd 0.8811 0.69728 0.56863 0.0
C33 C 0.82242 0.79199 0.51611 0.0
O34 O 0.88718 0.74192 0.62928 0.0
O35 O 0.81273 0.7079 0.617 0.0
O36 O 0.93739 0.62332 0.58258 0.0
C37 C 0.84068 0.73354 0.63948 0.0
O38 O 0.84311 0.82345 0.53906 0.0
C39 C 0.91082 0.59003 0.56542 0.0
O40 O 0.83037 0.74263 0.51868 0.0
O41 O 0.86721 0.60544 0.55102 0.0
C42 C 0.7489 0.11989 0.29735 0.0
O43 O 0.78962 0.09158 0.30404 0.0
Cd44 Cd 0.80409 0.04199 0.36036 0.0
O45 O 0.70982 0.12056 0.31967 0.0
Cd46 Cd 0.68947 0.07215 0.37881 0.0
C47 C 0.77727 0.13799 0.42675 0.0
O48 O 0.73447 -0.01439 0.37262 0.0
O49 O 0.71382 0.01204 0.42924 0.0
O50 O 0.61392 0.03665 0.34962 0.0
C51 C 0.72873 0.97507 0.40744 0.0
O52 O 0.8091 0.10557 0.41074 0.0
C53 C 0.58273 0.04824 0.37644 0.0
O54 O 0.72847 0.13926 0.41918 0.0
O55 O 0.59907 0.0772 0.40285 0.0
C56 C 0.83341 0.20416 0.13978 0.0
O57 O 0.86177 0.16348 0.13306 0.0
Cd58 Cd 0.91127 0.14915 0.07668 0.0
O59 O 0.83279 0.2433 0.11753 0.0
Cd60 Cd 0.88113 0.26399 0.05839 0.0
C61 C 0.81433 0.17627 0.01111 0.0
O62 O 0.96759 0.2189 0.0646 0.0
O63 O 0.94139 0.23947 0.00795 0.0
O64 O 0.91611 0.33987 0.08763 0.0
C65 C -0.02171 0.22458 0.0298 0.0
O66 O 0.84692 0.14436 0.02682 0.0
C67 C 0.90476 0.37087 0.06067 0.0
O68 O 0.81343 0.22508 0.01859 0.0
O69 O 0.87617 0.35426 0.03415 0.0
C70 C 0.19302 0.95765 0.89571 0.0
O71 O 0.15212 0.96687 0.87614 0.0
Cd72 Cd 0.13653 0.05022 0.84534 0.0
O73 O 0.22927 -0.00993 0.89698 0.0
Cd74 Cd 0.25585 0.07274 0.86809 0.0
C75 C 0.16189 0.1315 0.9213 0.0
O76 O 0.21102 0.06798 0.80741 0.0
O77 O 0.24557 0.14196 0.8204 0.0
O78 O 0.32889 0.01555 0.85331 0.0
C79 C 0.21981 0.11455 0.79763 0.0
O80 O 0.13024 0.11129 0.89827 0.0
C81 C 0.36279 0.04146 0.87037 0.0
O82 O 0.21121 0.12329 0.91858 0.0
O83 O 0.34816 0.08509 0.88514 0.0
C84 C 0.12076 0.74857 0.13962 0.0
O85 O 0.09229 0.78918 0.13294 0.0
Cd86 Cd 0.04292 0.80348 0.07653 0.0
O87 O 0.12151 0.70946 0.11733 0.0
Cd88 Cd 0.07308 0.68882 0.05822 0.0
C89 C 0.13974 0.77652 0.01077 0.0
O90 O -0.01345 0.73385 0.06419 0.0
O91 O 0.01327 0.71331 0.00762 0.0
O92 O 0.03753 0.61331 0.08755 0.0
C93 C 0.97616 0.7281 0.02935 0.0
O94 O 0.10717 0.80842 0.02658 0.0
C95 C 0.04887 0.58212 0.06068 0.0
O96 O 0.14072 0.72772 0.01826 0.0
O97 O 0.07776 0.5984 0.0342 0.0
C98 C 0.76128 -0.00481 0.89622 0.0
O99 O 0.80238 -0.01377 0.87678 0.0
Cd100 Cd 0.81854 0.90336 0.84541 0.0
O101 O 0.72509 0.96268 0.89716 0.0
Cd102 Cd 0.69899 0.88022 0.86775 0.0
C103 C 0.79294 0.82097 0.92066 0.0
O104 O 0.74419 0.88606 0.80727 0.0
O105 O 0.70955 0.81187 0.81942 0.0
O106 O 0.62594 0.93753 0.85337 0.0
C107 C 0.73553 0.83964 0.79703 0.0
O108 O 0.82466 0.84159 0.89786 0.0
C109 C 0.592 0.91128 0.87011 0.0
O110 O 0.74361 0.8291 0.91789 0.0
O111 O 0.60663 0.86743 0.8845 0.0
C112 C 0.95825 0.49769 0.55895 0.0
C113 C 0.9327 0.5382 0.56018 0.0
C114 C -0.00814 0.45269 0.559 0.0
C115 C 0.01795 0.41251 0.56031 0.0
C116 C 0.49783 -0.00638 0.37995 0.0
C117 C 0.53568 0.02016 0.38028 0.0
C118 C 0.45656 0.95866 0.37992 0.0
C119 C 0.41869 0.93215 0.38021 0.0
C120 C 0.95916 0.45595 0.05715 0.0
C121 C 0.93276 0.41799 0.05684 0.0
C122 C -0.00595 0.49731 0.05717 0.0
C123 C 0.02062 0.53514 0.05689 0.0
C124 C 0.45483 -0.00695 0.87603 0.0
C125 C 0.41444 0.01884 0.87511 0.0
C126 C 0.49989 0.9595 0.87596 0.0
C127 C 0.5403 0.93374 0.87492 0.0
C128 C 0.2025 0.06893 0.43894 0.0
C129 C 0.21258 0.02834 0.42272 0.0
C130 C 0.18504 0.11093 0.46214 0.0
C131 C 0.16346 0.13938 0.48494 0.0
C132 C 0.12652 0.76144 0.47634 0.0
C133 C 0.1567 0.78032 0.45455 0.0
C134 C 0.08324 0.75296 0.50001 0.0
C135 C 0.04329 0.75429 0.5182 0.0
C136 C 0.7537 0.8843 0.43898 0.0
C137 C 0.743 0.9246 0.42262 0.0
C138 C 0.77155 0.84265 0.46233 0.0
C139 C 0.7931 0.81425 0.48513 0.0
C140 C 0.82854 0.18788 0.47801 0.0
C141 C 0.79815 0.16997 0.45593 0.0
C142 C 0.872 0.19554 0.50169 0.0
C143 C 0.91211 0.19414 0.51966 0.0
C144 C 0.75478 0.08177 0.93694 0.0
C145 C 0.75628 0.04186 0.91873 0.0
C146 C 0.76292 0.12514 0.9606 0.0
C147 C 0.78155 0.15546 -0.01761 0.0
C148 C 0.11128 0.18198 -0.02466 0.0
C149 C 0.13981 0.16061 0.95249 0.0
C150 C 0.06937 0.1997 -0.00146 0.0
C151 C 0.02889 0.21038 0.01473 0.0
C152 C 0.1908 0.82764 0.96002 0.0
C153 C 0.17231 0.79736 -0.01808 0.0
C154 C 0.19895 0.87094 0.9363 0.0
C155 C 0.19761 0.91088 0.91814 0.0
C156 C 0.84341 0.7701 -0.0255 0.0
C157 C 0.81494 0.79159 0.9517 0.0
C158 C 0.88523 0.75248 -0.00222 0.0
C159 C 0.92563 0.74203 0.01411 0.0
C160 C 0.15622 0.17868 0.70222 0.0
C161 C 0.13732 0.19734 0.67371 0.0
C162 C 0.17871 0.15605 0.73526 0.0
C163 C 0.1974 0.13696 0.7637 0.0
C164 C 0.17669 0.75746 0.20131 0.0
C165 C 0.15338 0.74838 0.17259 0.0
C166 C 0.19669 0.7776 0.23525 0.0
C167 C 0.20556 0.80085 0.26403 0.0
C168 C 0.80003 0.77581 0.70178 0.0
C169 C 0.81883 0.75663 0.67339 0.0
C170 C 0.77742 0.79871 0.7347 0.0
C171 C 0.75845 0.81771 0.76309 0.0
C172 C 0.75739 0.17553 0.23549 0.0
C173 C 0.7485 0.15233 0.26429 0.0
C174 C 0.77744 0.1955 0.20151 0.0
C175 C 0.8008 0.20444 0.17278 0.0
loop_
_geom_bond_atom_site_label_1
_geom_bond_atom_site_label_2
_geom_bond_distance
_geom_bond_site_symmetry_2
_ccdc_geom_bond_type
C0 O1 1.306 1_655 S
C0 O3 1.160 1_655 S
O1 C0 1.306 1_455 S
O1 Cd2 2.228 . S
Cd2 O1 2.228 . S
Cd2 O6 2.273 . S
Cd2 O10 2.277 . S
O3 C0 1.160 1_455 S
O3 Cd4 2.203 . S
Cd4 O3 2.203 . S
Cd4 O6 2.411 . S
Cd4 O7 2.333 . S
Cd4 O8 2.352 . S
Cd4 O12 2.277 . S
Cd4 O13 2.356 . S
C5 O10 1.209 . S
C5 O12 1.226 . S
O6 Cd2 2.273 . S
O6 Cd4 2.411 . S
O6 C9 1.320 . S
O7 Cd4 2.333 . S
O7 C9 1.214 . S
O8 Cd4 2.352 . S
O8 C11 1.258 . S
C9 O6 1.320 . S
C9 O7 1.214 . S
O10 Cd2 2.277 . S
O10 C5 1.209 . S
C11 O8 1.258 . S
C11 O13 1.282 . S
O12 Cd4 2.277 . S
O12 C5 1.226 . S
O13 Cd4 2.356 . S
O13 C11 1.282 . S
C14 O15 1.306 . S
C14 O17 1.160 . S
O15 C14 1.306 . S
O15 Cd16 2.228 . S
Cd16 O15 2.228 . S
Cd16 O20 2.273 . S
Cd16 O24 2.277 . S
O17 C14 1.160 . S
O17 Cd18 2.203 . S
Cd18 O17 2.203 . S
Cd18 O20 2.411 . S
Cd18 O21 2.333 . S
Cd18 O22 2.352 . S
Cd18 O26 2.277 . S
Cd18 O27 2.356 . S
C19 O24 1.209 . S
C19 O26 1.226 . S
O20 Cd16 2.273 . S
O20 Cd18 2.411 . S
O20 C23 1.320 . S
O21 Cd18 2.333 . S
O21 C23 1.214 . S
O22 Cd18 2.352 . S
O22 C25 1.258 . S
C23 O20 1.320 . S
C23 O21 1.214 . S
O24 Cd16 2.277 . S
O24 C19 1.209 . S
C25 O22 1.258 . S
C25 O27 1.282 . S
O26 Cd18 2.277 . S
O26 C19 1.226 . S
O27 Cd18 2.356 . S
O27 C25 1.282 . S
C28 O29 1.306 1_455 S
C28 O31 1.160 1_455 S
O29 C28 1.306 1_655 S
O29 Cd30 2.228 . S
Cd30 O29 2.228 . S
Cd30 O34 2.273 . S
Cd30 O38 2.277 . S
O31 C28 1.160 1_655 S
O31 Cd32 2.203 . S
Cd32 O31 2.203 . S
Cd32 O34 2.411 . S
Cd32 O35 2.333 . S
Cd32 O36 2.352 . S
Cd32 O40 2.277 . S
Cd32 O41 2.356 . S
C33 O38 1.209 . S
C33 O40 1.226 . S
O34 Cd30 2.273 . S
O34 Cd32 2.411 . S
O34 C37 1.320 . S
O35 Cd32 2.333 . S
O35 C37 1.214 . S
O36 Cd32 2.352 . S
O36 C39 1.258 . S
C37 O34 1.320 . S
C37 O35 1.214 . S
O38 Cd30 2.277 . S
O38 C33 1.209 . S
C39 O36 1.258 . S
C39 O41 1.282 . S
O40 Cd32 2.277 . S
O40 C33 1.226 . S
O41 Cd32 2.356 . S
O41 C39 1.282 . S
C42 O43 1.306 . S
C42 O45 1.160 . S
O43 C42 1.306 . S
O43 Cd44 2.228 . S
Cd44 O43 2.228 . S
Cd44 O48 2.273 . S
Cd44 O52 2.277 . S
O45 C42 1.160 . S
O45 Cd46 2.203 . S
Cd46 O45 2.203 . S
Cd46 O48 2.411 . S
Cd46 O49 2.333 . S
Cd46 O50 2.352 . S
Cd46 O54 2.277 . S
Cd46 O55 2.356 . S
C47 O52 1.209 . S
C47 O54 1.226 . S
O48 Cd44 2.273 . S
O48 Cd46 2.411 . S
O48 C51 1.320 . S
O49 Cd46 2.333 . S
O49 C51 1.214 . S
O50 Cd46 2.352 . S
O50 C53 1.258 . S
C51 O48 1.320 . S
C51 O49 1.214 . S
O52 Cd44 2.277 . S
O52 C47 1.209 . S
C53 O50 1.258 . S
C53 O55 1.282 . S
O54 Cd46 2.277 . S
O54 C47 1.226 . S
O55 Cd46 2.356 . S
O55 C53 1.282 . S
C56 O57 1.306 . S
C56 O59 1.160 . S
O57 C56 1.306 . S
O57 Cd58 2.228 . S
Cd58 O57 2.228 . S
Cd58 O62 2.273 . S
Cd58 O66 2.277 . S
O59 C56 1.160 . S
O59 Cd60 2.203 . S
Cd60 O59 2.203 . S
Cd60 O62 2.411 . S
Cd60 O63 2.333 . S
Cd60 O64 2.352 . S
Cd60 O68 2.277 . S
Cd60 O69 2.356 . S
C61 O66 1.209 . S
C61 O68 1.226 . S
O62 Cd58 2.273 . S
O62 Cd60 2.411 . S
O62 C65 1.320 . S
O63 Cd60 2.333 . S
O63 C65 1.214 . S
O64 Cd60 2.352 . S
O64 C67 1.258 . S
C65 O62 1.320 . S
C65 O63 1.214 . S
O66 Cd58 2.277 . S
O66 C61 1.209 . S
C67 O64 1.258 . S
C67 O69 1.282 . S
O68 Cd60 2.277 . S
O68 C61 1.226 . S
O69 Cd60 2.356 . S
O69 C67 1.282 . S
C70 O71 1.306 1_565 S
C70 O73 1.160 1_565 S
O71 C70 1.306 1_545 S
O71 Cd72 2.228 . S
Cd72 O71 2.228 . S
Cd72 O76 2.273 . S
Cd72 O80 2.277 . S
O73 C70 1.160 1_545 S
O73 Cd74 2.203 . S
Cd74 O73 2.203 . S
Cd74 O76 2.411 . S
Cd74 O77 2.333 . S
Cd74 O78 2.352 . S
Cd74 O82 2.277 . S
Cd74 O83 2.356 . S
C75 O80 1.209 . S
C75 O82 1.226 . S
O76 Cd72 2.273 . S
O76 Cd74 2.411 . S
O76 C79 1.320 . S
O77 Cd74 2.333 . S
O77 C79 1.214 . S
O78 Cd74 2.352 . S
O78 C81 1.258 . S
C79 O76 1.320 . S
C79 O77 1.214 . S
O80 Cd72 2.277 . S
O80 C75 1.209 . S
C81 O78 1.258 . S
C81 O83 1.282 . S
O82 Cd74 2.277 . S
O82 C75 1.226 . S
O83 Cd74 2.356 . S
O83 C81 1.282 . S
C84 O85 1.306 . S
C84 O87 1.160 . S
O85 C84 1.306 . S
O85 Cd86 2.228 . S
Cd86 O85 2.228 . S
Cd86 O90 2.273 . S
Cd86 O94 2.277 . S
O87 C84 1.160 . S
O87 Cd88 2.203 . S
Cd88 O87 2.203 . S
Cd88 O90 2.411 . S
Cd88 O91 2.333 . S
Cd88 O92 2.352 . S
Cd88 O96 2.277 . S
Cd88 O97 2.356 . S
C89 O94 1.209 . S
C89 O96 1.226 . S
O90 Cd86 2.273 . S
O90 Cd88 2.411 . S
O90 C93 1.320 . S
O91 Cd88 2.333 . S
O91 C93 1.214 . S
O92 Cd88 2.352 . S
O92 C95 1.258 . S
C93 O90 1.320 . S
C93 O91 1.214 . S
O94 Cd86 2.277 . S
O94 C89 1.209 . S
C95 O92 1.258 . S
C95 O97 1.282 . S
O96 Cd88 2.277 . S
O96 C89 1.226 . S
O97 Cd88 2.356 . S
O97 C95 1.282 . S
C98 O99 1.306 1_545 S
C98 O101 1.160 1_545 S
O99 C98 1.306 1_565 S
O99 Cd100 2.228 . S
Cd100 O99 2.228 . S
Cd100 O104 2.273 . S
Cd100 O108 2.277 . S
O101 C98 1.160 1_565 S
O101 Cd102 2.203 . S
Cd102 O101 2.203 . S
Cd102 O104 2.411 . S
Cd102 O105 2.333 . S
Cd102 O106 2.352 . S
Cd102 O110 2.277 . S
Cd102 O111 2.356 . S
C103 O108 1.209 . S
C103 O110 1.226 . S
O104 Cd100 2.273 . S
O104 Cd102 2.411 . S
O104 C107 1.320 . S
O105 Cd102 2.333 . S
O105 C107 1.214 . S
O106 Cd102 2.352 . S
O106 C109 1.258 . S
C107 O104 1.320 . S
C107 O105 1.214 . S
O108 Cd100 2.277 . S
O108 C103 1.209 . S
C109 O106 1.258 . S
C109 O111 1.282 . S
O110 Cd102 2.277 . S
O110 C103 1.226 . S
O111 Cd102 2.356 . S
O111 C109 1.282 . S
C112 C113 1.170 . S
C112 C114 1.380 1_655 S
C113 C112 1.170 . S
C114 C112 1.380 1_455 S
C114 C115 1.170 . S
C115 C114 1.170 . S
C116 C117 1.170 . S
C116 C118 1.380 1_545 S
C117 C116 1.170 . S
C118 C116 1.380 1_565 S
C118 C119 1.170 . S
C119 C118 1.170 . S
C120 C121 1.170 . S
C120 C122 1.380 1_655 S
C121 C120 1.170 . S
C122 C120 1.380 1_455 S
C122 C123 1.170 . S
C123 C122 1.170 . S
C124 C125 1.170 . S
C124 C126 1.380 1_545 S
C125 C124 1.170 . S
C126 C124 1.380 1_565 S
C126 C127 1.170 . S
C127 C126 1.170 . S
C128 C129 1.170 . S
C128 C130 1.380 . S
C129 C128 1.170 . S
C130 C128 1.380 . S
C130 C131 1.170 . S
C131 C130 1.170 . S
C132 C133 1.170 . S
C132 C134 1.380 . S
C133 C132 1.170 . S
C134 C132 1.380 . S
C134 C135 1.170 . S
C135 C134 1.170 . S
C136 C137 1.170 . S
C136 C138 1.380 . S
C137 C136 1.170 . S
C138 C136 1.380 . S
C138 C139 1.170 . S
C139 C138 1.170 . S
C140 C141 1.170 . S
C140 C142 1.380 . S
C141 C140 1.170 . S
C142 C140 1.380 . S
C142 C143 1.170 . S
C143 C142 1.170 . S
C144 C145 1.170 . S
C144 C146 1.380 1_556 S
C145 C144 1.170 . S
C146 C144 1.380 1_554 S
C146 C147 1.170 . S
C147 C146 1.170 . S
C148 C149 1.170 . S
C148 C150 1.380 1_556 S
C149 C148 1.170 . S
C150 C148 1.380 1_554 S
C150 C151 1.170 . S
C151 C150 1.170 . S
C152 C153 1.170 . S
C152 C154 1.380 1_554 S
C153 C152 1.170 . S
C154 C152 1.380 1_556 S
C154 C155 1.170 . S
C155 C154 1.170 . S
C156 C157 1.170 . S
C156 C158 1.380 1_556 S
C157 C156 1.170 . S
C158 C156 1.380 1_554 S
C158 C159 1.170 . S
C159 C158 1.170 . S
C160 C161 1.170 . S
C160 C162 1.380 . S
C161 C160 1.170 . S
C162 C160 1.380 . S
C162 C163 1.170 . S
C163 C162 1.170 . S
C164 C165 1.170 . S
C164 C166 1.380 . S
C165 C164 1.170 . S
C166 C164 1.380 . S
C166 C167 1.170 . S
C167 C166 1.170 . S
C168 C169 1.170 . S
C168 C170 1.380 . S
C169 C168 1.170 . S
C170 C168 1.380 . S
C170 C171 1.170 . S
C171 C170 1.170 . S
C172 C173 1.170 . S
C172 C174 1.380 . S
C173 C172 1.170 . S
C174 C172 1.380 . S
C174 C175 1.170 . S
C175 C174 1.170 . S
C113 C39 1.529 . S
C115 C11 1.507 . S
C117 C53 1.587 . S
C119 C25 1.580 . S
C121 C67 1.598 . S
C123 C95 1.570 . S
C125 C81 1.535 . S
C127 C109 1.523 . S
C129 C23 1.211 1_545 S
C131 C5 1.211 . S
C133 C19 1.245 . S
C135 C28 1.272 . S
C137 C51 1.210 1_565 S
C139 C33 1.166 . S
C141 C47 1.203 . S
C143 C0 1.276 . S
C145 C98 1.270 . S
C147 C61 1.239 . S
C149 C75 1.170 . S
C151 C65 1.219 1_455 S
C153 C89 1.225 . S
C155 C70 1.268 . S
C157 C103 1.166 . S
C159 C93 1.210 1_655 S
C161 C9 1.662 . S
C163 C79 1.655 . S
C165 C84 1.626 . S
C167 C14 1.647 . S
C169 C37 1.656 . S
C171 C107 1.660 . S
C173 C42 1.647 . S
C175 C56 1.626 . S
