# Generated by pormake.
# Topology unj, (4)-cn, num edge types: 1
# Building blocks:
#     Node 0, Type 0, BuildingBlock: NAHDIM_clean_sbu_0, # of connection points: 4
#     Node 1, Type 0, BuildingBlock: NAHDIM_clean_sbu_0, # of connection points: 4
#     Node 2, Type 0, BuildingBlock: NAHDIM_clean_sbu_0, # of connection points: 4
#     Node 3, Type 0, BuildingBlock: NAHDIM_clean_sbu_0, # of connection points: 4
#     Node 4, Type 0, BuildingBlock: NAHDIM_clean_sbu_0, # of connection points: 4
#     Node 5, Type 0, BuildingBlock: NAHDIM_clean_sbu_0, # of connection points: 4
#     Edge 6, Type (0, 0), None
#     Edge 7, Type (0, 0), None
#     Edge 8, Type (0, 0), None
#     Edge 9, Type (0, 0), None
#     Edge 10, Type (0, 0), None
#     Edge 11, Type (0, 0), None
#     Edge 12, Type (0, 0), None
#     Edge 13, Type (0, 0), None
#     Edge 14, Type (0, 0), None
#     Edge 15, Type (0, 0), None
#     Edge 16, Type (0, 0), None
#     Edge 17, Type (0, 0), None
# Relax obj value: 0.008
# Max RMSD: 0.040
# Mean RMSD: 0.040
data_MOF--net-unj--node1-NAHDIM_clean_sbu_0--edge1-none
_symmetry_space_group_name_H-M    P1
_symmetry_Int_Tables_number       1
_symmetry_cell_setting            triclinic
loop_
_symmetry_equiv_pos_as_xyz
'x, y, z'
_cell_length_a     16.140591
_cell_length_b     16.141423
_cell_length_c     14.896813
_cell_angle_alpha  89.999993
_cell_angle_beta   90.00002
_cell_angle_gamma 120.00487
loop_
_atom_site_label
_atom_site_type_symbol
_atom_site_fract_x
_atom_site_fract_y
_atom_site_fract_z
_atom_type_partial_charge
C0 C 0.38113 0.38515 0.64137 0.0
O1 O 0.46922 0.44281 0.61461 0.0
O2 O 0.51536 0.34275 0.49202 0.0
Zn3 Zn 0.44117 0.25511 0.59538 0.0
O4 O 0.52998 0.27277 0.69937 0.0
C5 C 0.42219 0.09073 0.50649 0.0
O6 O 0.51391 0.15017 0.49512 0.0
O7 O 0.34815 0.2953 0.6397 0.0
C8 C 0.54447 0.20753 0.72985 0.0
O9 O 0.50178 0.12239 0.69284 0.0
C10 C 0.60242 0.37163 0.47325 0.0
O11 O 0.652 0.34454 0.5227 0.0
O12 O 0.37226 0.11823 0.54958 0.0
C13 C 0.98798 0.38511 0.80801 0.0
O14 O 0.01842 0.47319 0.78125 0.0
O15 O 0.16464 0.51933 0.65867 0.0
Zn16 Zn 0.17808 0.44514 0.76204 0.0
O17 O 0.24923 0.53395 0.86603 0.0
C18 C 0.32346 0.42614 0.67312 0.0
O19 O 0.35573 0.51785 0.6617 0.0
O20 O 0.04485 0.35213 0.80635 0.0
C21 C 0.329 0.54851 0.89648 0.0
O22 O 0.37151 0.50589 0.85941 0.0
C23 C 0.22283 0.60639 0.63992 0.0
O24 O 0.29949 0.65597 0.68939 0.0
O25 O 0.24604 0.37623 0.71624 0.0
C26 C 0.59486 0.99198 0.97474 0.0
O27 O 0.5372 0.02242 0.94801 0.0
O28 O 0.63725 0.16862 0.82539 0.0
Zn29 Zn 0.72492 0.18208 0.92873 0.0
O30 O 0.70729 0.25323 0.03272 0.0
C31 C 0.88931 0.32744 0.83977 0.0
O32 O 0.82987 0.35971 0.82834 0.0
O33 O 0.68472 0.04886 0.97305 0.0
C34 C 0.7725 0.33302 0.06314 0.0
O35 O 0.85761 0.37554 0.02604 0.0
C36 C 0.60841 0.22681 0.80661 0.0
O37 O 0.63554 0.3035 0.85604 0.0
O38 O 0.8618 0.25004 0.88291 0.0
C39 C 0.59493 0.5989 0.14137 0.0
O40 O 0.50684 0.54124 0.11461 0.0
O41 O 0.4607 0.6413 0.99202 0.0
Zn42 Zn 0.53489 0.72894 0.09538 0.0
O43 O 0.44608 0.71128 0.19937 0.0
C44 C 0.55387 0.89332 1.00649 0.0
O45 O 0.46215 0.83389 0.99512 0.0
O46 O 0.62792 0.68875 0.1397 0.0
C47 C 0.43159 0.77652 0.22985 0.0
O48 O 0.47429 0.86166 0.19284 0.0
C49 C 0.37364 0.61242 0.97325 0.0
O50 O 0.32406 0.6395 0.0227 0.0
O51 O 0.6038 0.86582 0.04958 0.0
C52 C -0.01191 0.59894 0.30801 0.0
O53 O 0.95764 0.51086 0.28125 0.0
O54 O 0.81142 0.46472 0.15867 0.0
Zn55 Zn 0.79798 0.5389 0.26204 0.0
O56 O 0.72683 0.4501 0.36603 0.0
C57 C 0.6526 0.55791 0.17312 0.0
O58 O 0.62033 0.4662 0.1617 0.0
O59 O 0.93121 0.63192 0.30635 0.0
C60 C 0.64706 0.43554 0.39648 0.0
O61 O 0.60456 0.47816 0.35941 0.0
C62 C 0.75324 0.37766 0.13992 0.0
O63 O 0.67657 0.32808 0.18938 0.0
O64 O 0.73003 0.60782 0.21624 0.0
C65 C 0.3812 -0.00793 0.47474 0.0
O66 O 0.43886 0.96163 0.44801 0.0
O67 O 0.33881 0.81543 0.32539 0.0
Zn68 Zn 0.25115 0.80197 0.42873 0.0
O69 O 0.26878 0.73082 0.53273 0.0
C70 C 0.08676 0.6566 0.33977 0.0
O71 O 0.14619 0.62434 0.32834 0.0
O72 O 0.29134 0.93519 0.47304 0.0
C73 C 0.20356 0.65103 0.56314 0.0
O74 O 0.11846 0.60851 0.52604 0.0
C75 C 0.36766 0.75723 0.30662 0.0
O76 O 0.34052 0.68054 0.35604 0.0
O77 O 0.11427 0.73401 0.38291 0.0
loop_
_geom_bond_atom_site_label_1
_geom_bond_atom_site_label_2
_geom_bond_distance
_geom_bond_site_symmetry_2
_ccdc_geom_bond_type
C0 O1 1.160 . S
C0 O7 1.185 . S
O1 C0 1.160 . S
O2 Zn3 1.899 . S
O2 C10 1.284 . S
Zn3 O2 1.899 . S
Zn3 O4 2.032 . S
Zn3 O7 2.086 . S
Zn3 O12 1.977 . S
O4 Zn3 2.032 . S
O4 C8 1.278 . S
C5 O6 1.203 . S
C5 O12 1.267 . S
O6 C5 1.203 . S
O7 C0 1.185 . S
O7 Zn3 2.086 . S
C8 O4 1.278 . S
C8 O9 1.211 . S
O9 C8 1.211 . S
C10 O2 1.284 . S
C10 O11 1.273 . S
O11 C10 1.273 . S
O12 Zn3 1.977 . S
O12 C5 1.267 . S
C13 O14 1.160 . S
C13 O20 1.185 . S
O14 C13 1.160 . S
O15 Zn16 1.899 . S
O15 C23 1.284 . S
Zn16 O15 1.899 . S
Zn16 O17 2.032 . S
Zn16 O20 2.086 . S
Zn16 O25 1.977 . S
O17 Zn16 2.032 . S
O17 C21 1.278 . S
C18 O19 1.203 . S
C18 O25 1.267 . S
O19 C18 1.203 . S
O20 C13 1.185 . S
O20 Zn16 2.086 . S
C21 O17 1.278 . S
C21 O22 1.211 . S
O22 C21 1.211 . S
C23 O15 1.284 . S
C23 O24 1.273 . S
O24 C23 1.273 . S
O25 Zn16 1.977 . S
O25 C18 1.267 . S
C26 O27 1.160 . S
C26 O33 1.185 . S
O27 C26 1.160 . S
O28 Zn29 1.899 . S
O28 C36 1.284 . S
Zn29 O28 1.899 . S
Zn29 O30 2.032 1_556 S
Zn29 O33 2.086 . S
Zn29 O38 1.977 . S
O30 Zn29 2.032 1_554 S
O30 C34 1.278 . S
C31 O32 1.203 . S
C31 O38 1.267 . S
O32 C31 1.203 . S
O33 C26 1.185 . S
O33 Zn29 2.086 . S
C34 O30 1.278 . S
C34 O35 1.216 . S
O35 C34 1.216 . S
C36 O28 1.284 . S
C36 O37 1.273 . S
O37 C36 1.273 . S
O38 Zn29 1.977 . S
O38 C31 1.267 . S
C39 O40 1.160 . S
C39 O46 1.185 . S
O40 C39 1.160 . S
O41 Zn42 1.899 1_556 S
O41 C49 1.284 . S
Zn42 O41 1.899 1_554 S
Zn42 O43 2.032 . S
Zn42 O46 2.086 . S
Zn42 O51 1.977 . S
O43 Zn42 2.032 . S
O43 C47 1.278 . S
C44 O45 1.203 1_554 S
C44 O51 1.267 . S
O45 C44 1.203 1_556 S
O46 C39 1.185 . S
O46 Zn42 2.086 . S
C47 O43 1.278 . S
C47 O48 1.211 . S
O48 C47 1.211 . S
C49 O41 1.284 . S
C49 O50 1.273 1_556 S
O50 C49 1.273 1_554 S
O51 Zn42 1.977 . S
O51 C44 1.267 . S
C52 O53 1.160 . S
C52 O59 1.185 . S
O53 C52 1.160 . S
O54 Zn55 1.899 . S
O54 C62 1.284 . S
Zn55 O54 1.899 . S
Zn55 O56 2.032 . S
Zn55 O59 2.086 . S
Zn55 O64 1.977 . S
O56 Zn55 2.032 . S
O56 C60 1.278 . S
C57 O58 1.203 . S
C57 O64 1.267 . S
O58 C57 1.203 . S
O59 C52 1.185 . S
O59 Zn55 2.086 . S
C60 O56 1.278 . S
C60 O61 1.211 . S
O61 C60 1.211 . S
C62 O54 1.284 . S
C62 O63 1.273 . S
O63 C62 1.273 . S
O64 Zn55 1.977 . S
O64 C57 1.267 . S
C65 O66 1.160 . S
C65 O72 1.185 . S
O66 C65 1.160 . S
O67 Zn68 1.899 . S
O67 C75 1.284 . S
Zn68 O67 1.899 . S
Zn68 O69 2.032 . S
Zn68 O72 2.086 . S
Zn68 O77 1.977 . S
O69 Zn68 2.032 . S
O69 C73 1.278 . S
C70 O71 1.203 . S
C70 O77 1.267 . S
O71 C70 1.203 . S
O72 C65 1.185 . S
O72 Zn68 2.086 . S
C73 O69 1.278 . S
C73 O74 1.211 . S
O74 C73 1.211 . S
C75 O67 1.284 . S
C75 O76 1.273 . S
O76 C75 1.273 . S
O77 Zn68 1.977 . S
O77 C70 1.267 . S
C5 C65 1.319 1_545 S
C0 C18 1.319 . S
C31 C13 1.319 1_655 S
C44 C26 1.319 1_564 S
C57 C39 1.319 . S
C70 C52 1.319 1_455 S
C10 C60 1.526 . S
C73 C23 1.526 . S
C36 C8 1.526 . S
C21 C49 1.526 . S
C34 C62 1.526 . S
C75 C47 1.526 . S
