# Generated by pormake.
# Topology umf, (4)-cn, num edge types: 1
# Building blocks:
#     Node 0, Type 0, BuildingBlock: QUQFOY_clean_sbu_3, # of connection points: 4
#     Node 1, Type 0, BuildingBlock: QUQFOY_clean_sbu_3, # of connection points: 4
#     Node 2, Type 0, BuildingBlock: QUQFOY_clean_sbu_3, # of connection points: 4
#     Node 3, Type 0, BuildingBlock: QUQFOY_clean_sbu_3, # of connection points: 4
#     Node 4, Type 0, BuildingBlock: QUQFOY_clean_sbu_3, # of connection points: 4
#     Node 5, Type 0, BuildingBlock: QUQFOY_clean_sbu_3, # of connection points: 4
#     Node 6, Type 0, BuildingBlock: QUQFOY_clean_sbu_3, # of connection points: 4
#     Node 7, Type 0, BuildingBlock: QUQFOY_clean_sbu_3, # of connection points: 4
#     Edge 8, Type (0, 0), BuildingBlock: EYOCIG_clean_linker_4, # of connection points: 2
#     Edge 9, Type (0, 0), BuildingBlock: EYOCIG_clean_linker_4, # of connection points: 2
#     Edge 10, Type (0, 0), BuildingBlock: EYOCIG_clean_linker_4, # of connection points: 2
#     Edge 11, Type (0, 0), BuildingBlock: EYOCIG_clean_linker_4, # of connection points: 2
#     Edge 12, Type (0, 0), BuildingBlock: EYOCIG_clean_linker_4, # of connection points: 2
#     Edge 13, Type (0, 0), BuildingBlock: EYOCIG_clean_linker_4, # of connection points: 2
#     Edge 14, Type (0, 0), BuildingBlock: EYOCIG_clean_linker_4, # of connection points: 2
#     Edge 15, Type (0, 0), BuildingBlock: EYOCIG_clean_linker_4, # of connection points: 2
#     Edge 16, Type (0, 0), BuildingBlock: EYOCIG_clean_linker_4, # of connection points: 2
#     Edge 17, Type (0, 0), BuildingBlock: EYOCIG_clean_linker_4, # of connection points: 2
#     Edge 18, Type (0, 0), BuildingBlock: EYOCIG_clean_linker_4, # of connection points: 2
#     Edge 19, Type (0, 0), BuildingBlock: EYOCIG_clean_linker_4, # of connection points: 2
#     Edge 20, Type (0, 0), BuildingBlock: EYOCIG_clean_linker_4, # of connection points: 2
#     Edge 21, Type (0, 0), BuildingBlock: EYOCIG_clean_linker_4, # of connection points: 2
#     Edge 22, Type (0, 0), BuildingBlock: EYOCIG_clean_linker_4, # of connection points: 2
#     Edge 23, Type (0, 0), BuildingBlock: EYOCIG_clean_linker_4, # of connection points: 2
# Relax obj value: 0.167
# Max RMSD: 0.287
# Mean RMSD: 0.287
data_MOF--net-umf--node1-QUQFOY_clean_sbu_3--edge1-EYOCIG_clean_linker_4
_symmetry_space_group_name_H-M    P1
_symmetry_Int_Tables_number       1
_symmetry_cell_setting            triclinic
loop_
_symmetry_equiv_pos_as_xyz
'x, y, z'
_cell_length_a     24.344505
_cell_length_b     24.344874
_cell_length_c     42.576425
_cell_angle_alpha  90.030809
_cell_angle_beta   90.021652
_cell_angle_gamma 89.836088
loop_
_atom_site_label
_atom_site_type_symbol
_atom_site_fract_x
_atom_site_fract_y
_atom_site_fract_z
_atom_type_partial_charge
C0 C 0.14505 0.19785 0.16634 0.0
O1 O 0.1683 0.18319 0.14108 0.0
Cd2 Cd 0.10561 0.15796 0.09895 0.0
O3 O 0.09413 0.20868 0.1667 0.0
Cd4 Cd 0.01822 0.22228 0.12965 0.0
C5 C 0.00641 0.08734 0.1393 0.0
O6 O 0.05001 0.22842 0.07437 0.0
O7 O -0.03459 0.20359 0.08324 0.0
O8 O 0.03148 0.31884 0.1378 0.0
C9 C 0.00224 0.21739 0.06377 0.0
O10 O 0.04714 0.08624 0.12062 0.0
C11 C -0.01542 0.32821 0.14953 0.0
O12 O -0.01401 0.13264 0.14886 0.0
O13 O 0.95186 0.28783 0.15266 0.0
C14 C 0.72391 0.1458 0.6662 0.0
O15 O 0.73841 0.16888 0.64088 0.0
Cd16 Cd 0.76384 0.10594 0.59885 0.0
O17 O 0.7133 0.09491 0.66666 0.0
Cd18 Cd 0.69997 0.01872 0.62979 0.0
C19 C 0.83503 0.00696 0.63943 0.0
O20 O 0.69357 0.05021 0.57446 0.0
O21 O 0.71888 -0.03435 0.58346 0.0
O22 O 0.60332 0.03195 0.63795 0.0
C23 C 0.70486 0.00238 0.56393 0.0
O24 O 0.83588 0.04756 0.62066 0.0
C25 C 0.59429 -0.01489 0.64977 0.0
O26 O 0.78986 -0.01337 0.64904 0.0
O27 O 0.6349 0.95245 0.65294 0.0
C28 C 0.77673 0.72441 0.16602 0.0
O29 O 0.75353 0.739 0.14073 0.0
Cd30 Cd 0.81635 0.76417 0.09869 0.0
O31 O 0.82764 0.71359 0.16645 0.0
Cd32 Cd 0.90364 0.69988 0.1295 0.0
C33 C 0.91543 0.83482 0.13921 0.0
O34 O 0.87206 0.69371 0.07416 0.0
O35 O 0.95664 0.71852 0.08319 0.0
O36 O 0.89028 0.60334 0.13762 0.0
C37 C 0.91987 0.70473 0.06365 0.0
O38 O 0.87476 0.83591 0.12047 0.0
C39 C 0.93712 0.59395 0.14943 0.0
O40 O 0.93582 0.78954 0.14878 0.0
O41 O -0.03013 0.63432 0.15261 0.0
C42 C 0.19889 0.77692 0.66634 0.0
O43 O 0.18431 0.75382 0.64103 0.0
Cd44 Cd 0.15897 0.8167 0.59898 0.0
O45 O 0.20961 0.82779 0.6668 0.0
Cd46 Cd 0.22305 0.90386 0.62991 0.0
C47 C 0.08803 0.91593 0.63953 0.0
O48 O 0.2293 0.87225 0.57458 0.0
O49 O 0.20414 0.95687 0.58359 0.0
O50 O 0.3197 0.89048 0.63805 0.0
C51 C 0.21806 0.92008 0.56405 0.0
O52 O 0.08708 0.87529 0.62075 0.0
C53 C 0.32884 0.93733 0.64985 0.0
O54 O 0.13324 0.93619 0.64914 0.0
O55 O 0.28829 -0.02993 0.65304 0.0
C56 C 0.14564 0.72374 0.81162 0.0
O57 O 0.16863 0.73822 0.83699 0.0
Cd58 Cd 0.10551 0.76356 0.87893 0.0
O59 O 0.09475 0.71308 0.81108 0.0
Cd60 Cd 0.01848 0.69958 0.84782 0.0
C61 C 0.00658 0.83459 0.83819 0.0
O62 O 0.04976 0.69325 0.90321 0.0
O63 O -0.0348 0.71844 0.89406 0.0
O64 O 0.03195 0.60297 0.83964 0.0
C65 C 0.00188 0.70449 0.91365 0.0
O66 O 0.04711 0.83549 0.85704 0.0
C67 C -0.01483 0.59383 0.82774 0.0
O68 O -0.01368 0.78939 0.82854 0.0
O69 O 0.95243 0.63436 0.82453 0.0
C70 C 0.19779 0.14519 0.3118 0.0
O71 O 0.1832 0.16831 0.33712 0.0
Cd72 Cd 0.1581 0.10532 0.37909 0.0
O73 O 0.20866 0.09429 0.31132 0.0
Cd74 Cd 0.22249 0.01817 0.34816 0.0
C75 C 0.08758 0.00631 0.33842 0.0
O76 O 0.22863 0.04962 0.40353 0.0
O77 O 0.20393 -0.03497 0.39443 0.0
O78 O 0.319 0.03169 0.34002 0.0
C79 C 0.21767 0.00177 0.41401 0.0
O80 O 0.08645 0.04692 0.35722 0.0
C81 C 0.32843 -0.01511 0.32815 0.0
O82 O 0.13289 -0.01402 0.32884 0.0
O83 O 0.28811 0.9521 0.32496 0.0
C84 C 0.77707 0.19878 0.81153 0.0
O85 O 0.75405 0.18427 0.83686 0.0
Cd86 Cd 0.81707 0.15886 0.87884 0.0
O87 O 0.82796 0.20939 0.81102 0.0
Cd88 Cd 0.90427 0.22273 0.8478 0.0
C89 C 0.91596 0.08767 0.83816 0.0
O90 O 0.87289 0.22915 0.90315 0.0
O91 O 0.95745 0.20386 0.89409 0.0
O92 O 0.89101 0.31936 0.83963 0.0
C93 C 0.92073 0.21786 0.91365 0.0
O94 O 0.87542 0.08684 0.85698 0.0
C95 C 0.9378 0.32838 0.82775 0.0
O96 O 0.93629 0.13283 0.82853 0.0
O97 O -0.02953 0.28778 0.82456 0.0
C98 C 0.72429 0.77719 0.31149 0.0
O99 O 0.73885 0.754 0.33679 0.0
Cd100 Cd 0.76421 0.81686 0.37882 0.0
O101 O 0.71359 0.82813 0.31107 0.0
Cd102 Cd 0.70007 0.90421 0.34801 0.0
C103 C 0.835 0.91573 0.3383 0.0
O104 O 0.69389 0.87273 0.40334 0.0
O105 O 0.71884 0.95725 0.39433 0.0
O106 O 0.60351 0.89099 0.33988 0.0
C107 C 0.705 0.92054 0.41387 0.0
O108 O 0.83603 0.87509 0.35705 0.0
C109 C 0.59418 0.93782 0.32806 0.0
O110 O 0.78974 0.9362 0.32873 0.0
O111 O 0.63458 -0.0295 0.32488 0.0
C112 C -0.03691 0.43218 0.16126 0.0
C113 C -0.03105 0.38361 0.15683 0.0
C114 C 0.9585 0.49 0.16124 0.0
C115 C 0.95268 0.53856 0.15677 0.0
C116 C 0.4327 0.95883 0.66158 0.0
C117 C 0.38416 0.95293 0.65715 0.0
C118 C 0.49049 -0.03647 0.66157 0.0
C119 C 0.53901 -0.03054 0.6571 0.0
C120 C 0.95926 0.43218 0.8159 0.0
C121 C 0.95341 0.38366 0.82038 0.0
C122 C -0.03615 0.48997 0.8159 0.0
C123 C -0.03034 0.53851 0.82037 0.0
C124 C 0.4324 -0.03629 0.31628 0.0
C125 C 0.38384 -0.03056 0.32077 0.0
C126 C 0.49023 0.95923 0.31626 0.0
C127 C 0.5388 0.95343 0.32071 0.0
C128 C 0.95086 0.22337 0.97323 0.0
C129 C 0.93429 0.22175 0.94649 0.0
C130 C -0.02766 0.22326 0.00416 0.0
C131 C -0.01116 0.22147 0.03092 0.0
C132 C 0.69921 -0.02774 0.50435 0.0
C133 C 0.70088 -0.01115 0.53109 0.0
C134 C 0.69925 0.9507 0.47344 0.0
C135 C 0.70099 0.9341 0.4467 0.0
C136 C 0.94999 0.69893 0.00408 0.0
C137 C 0.93338 0.7007 0.03081 0.0
C138 C -0.02842 0.69888 0.97318 0.0
C139 C -0.01177 0.70055 0.94647 0.0
C140 C 0.2235 -0.02839 0.47356 0.0
C141 C 0.22171 -0.0118 0.44683 0.0
C142 C 0.2236 0.95009 0.50447 0.0
C143 C 0.22197 0.93354 0.53121 0.0
C144 C 0.1891 0.19708 0.22279 0.0
C145 C 0.17379 0.19645 0.19582 0.0
C146 C 0.19681 0.18941 0.25542 0.0
C147 C 0.19627 0.17407 0.28238 0.0
C148 C 0.73261 0.19794 0.75519 0.0
C149 C 0.74809 0.19736 0.78213 0.0
C150 C 0.72478 0.19015 0.72257 0.0
C151 C 0.72534 0.17471 0.69562 0.0
C152 C 0.725 0.733 0.25508 0.0
C153 C 0.72565 0.74833 0.28204 0.0
C154 C 0.73263 0.7253 0.22244 0.0
C155 C 0.74792 0.72587 0.19547 0.0
C156 C 0.19796 0.73261 0.7227 0.0
C157 C 0.19742 0.74807 0.69577 0.0
C158 C 0.19011 0.72476 0.75531 0.0
C159 C 0.17462 0.72525 0.78224 0.0
C160 C -0.03159 -0.0109 0.15294 0.0
C161 C -0.01744 0.03585 0.14832 0.0
C162 C 0.9534 0.93308 0.15292 0.0
C163 C 0.93927 0.88632 0.14828 0.0
C164 C -0.01039 0.95403 0.65319 0.0
C165 C 0.03643 0.93985 0.64858 0.0
C166 C 0.9335 -0.03095 0.65316 0.0
C167 C 0.88667 -0.01683 0.64851 0.0
C168 C 0.95378 -0.01083 0.82442 0.0
C169 C 0.93972 0.03602 0.82906 0.0
C170 C -0.03129 0.93304 0.82443 0.0
C171 C -0.01721 0.8862 0.82908 0.0
C172 C 0.93331 0.95349 0.32461 0.0
C173 C 0.88653 0.93946 0.32924 0.0
C174 C -0.01066 -0.03158 0.32463 0.0
C175 C 0.0361 -0.0175 0.3293 0.0
loop_
_geom_bond_atom_site_label_1
_geom_bond_atom_site_label_2
_geom_bond_distance
_geom_bond_site_symmetry_2
_ccdc_geom_bond_type
C0 O1 1.306 . S
C0 O3 1.160 . S
O1 C0 1.306 . S
O1 Cd2 2.228 . S
Cd2 O1 2.228 . S
Cd2 O6 2.273 . S
Cd2 O10 2.277 . S
O3 C0 1.160 . S
O3 Cd4 2.203 . S
Cd4 O3 2.203 . S
Cd4 O6 2.411 . S
Cd4 O7 2.333 . S
Cd4 O8 2.352 . S
Cd4 O12 2.277 . S
Cd4 O13 2.356 1_455 S
C5 O10 1.209 . S
C5 O12 1.226 . S
O6 Cd2 2.273 . S
O6 Cd4 2.411 . S
O6 C9 1.320 . S
O7 Cd4 2.333 . S
O7 C9 1.214 . S
O8 Cd4 2.352 . S
O8 C11 1.258 . S
C9 O6 1.320 . S
C9 O7 1.214 . S
O10 Cd2 2.277 . S
O10 C5 1.209 . S
C11 O8 1.258 . S
C11 O13 1.282 1_455 S
O12 Cd4 2.277 . S
O12 C5 1.226 . S
O13 Cd4 2.356 1_655 S
O13 C11 1.282 1_655 S
C14 O15 1.306 . S
C14 O17 1.160 . S
O15 C14 1.306 . S
O15 Cd16 2.228 . S
Cd16 O15 2.228 . S
Cd16 O20 2.273 . S
Cd16 O24 2.277 . S
O17 C14 1.160 . S
O17 Cd18 2.203 . S
Cd18 O17 2.203 . S
Cd18 O20 2.411 . S
Cd18 O21 2.333 . S
Cd18 O22 2.352 . S
Cd18 O26 2.277 . S
Cd18 O27 2.356 1_545 S
C19 O24 1.209 . S
C19 O26 1.226 . S
O20 Cd16 2.273 . S
O20 Cd18 2.411 . S
O20 C23 1.320 . S
O21 Cd18 2.333 . S
O21 C23 1.214 . S
O22 Cd18 2.352 . S
O22 C25 1.258 . S
C23 O20 1.320 . S
C23 O21 1.214 . S
O24 Cd16 2.277 . S
O24 C19 1.209 . S
C25 O22 1.258 . S
C25 O27 1.282 1_545 S
O26 Cd18 2.277 . S
O26 C19 1.226 . S
O27 Cd18 2.356 1_565 S
O27 C25 1.282 1_565 S
C28 O29 1.306 . S
C28 O31 1.160 . S
O29 C28 1.306 . S
O29 Cd30 2.228 . S
Cd30 O29 2.228 . S
Cd30 O34 2.273 . S
Cd30 O38 2.277 . S
O31 C28 1.160 . S
O31 Cd32 2.203 . S
Cd32 O31 2.203 . S
Cd32 O34 2.411 . S
Cd32 O35 2.333 . S
Cd32 O36 2.352 . S
Cd32 O40 2.277 . S
Cd32 O41 2.356 1_655 S
C33 O38 1.209 . S
C33 O40 1.226 . S
O34 Cd30 2.273 . S
O34 Cd32 2.411 . S
O34 C37 1.320 . S
O35 Cd32 2.333 . S
O35 C37 1.214 . S
O36 Cd32 2.352 . S
O36 C39 1.258 . S
C37 O34 1.320 . S
C37 O35 1.214 . S
O38 Cd30 2.277 . S
O38 C33 1.209 . S
C39 O36 1.258 . S
C39 O41 1.282 1_655 S
O40 Cd32 2.277 . S
O40 C33 1.226 . S
O41 Cd32 2.356 1_455 S
O41 C39 1.282 1_455 S
C42 O43 1.306 . S
C42 O45 1.160 . S
O43 C42 1.306 . S
O43 Cd44 2.228 . S
Cd44 O43 2.228 . S
Cd44 O48 2.273 . S
Cd44 O52 2.277 . S
O45 C42 1.160 . S
O45 Cd46 2.203 . S
Cd46 O45 2.203 . S
Cd46 O48 2.411 . S
Cd46 O49 2.333 . S
Cd46 O50 2.352 . S
Cd46 O54 2.277 . S
Cd46 O55 2.356 1_565 S
C47 O52 1.209 . S
C47 O54 1.226 . S
O48 Cd44 2.273 . S
O48 Cd46 2.411 . S
O48 C51 1.320 . S
O49 Cd46 2.333 . S
O49 C51 1.214 . S
O50 Cd46 2.352 . S
O50 C53 1.258 . S
C51 O48 1.320 . S
C51 O49 1.214 . S
O52 Cd44 2.277 . S
O52 C47 1.209 . S
C53 O50 1.258 . S
C53 O55 1.282 1_565 S
O54 Cd46 2.277 . S
O54 C47 1.226 . S
O55 Cd46 2.356 1_545 S
O55 C53 1.282 1_545 S
C56 O57 1.306 . S
C56 O59 1.160 . S
O57 C56 1.306 . S
O57 Cd58 2.228 . S
Cd58 O57 2.228 . S
Cd58 O62 2.273 . S
Cd58 O66 2.277 . S
O59 C56 1.160 . S
O59 Cd60 2.203 . S
Cd60 O59 2.203 . S
Cd60 O62 2.411 . S
Cd60 O63 2.333 . S
Cd60 O64 2.352 . S
Cd60 O68 2.277 . S
Cd60 O69 2.356 1_455 S
C61 O66 1.209 . S
C61 O68 1.226 . S
O62 Cd58 2.273 . S
O62 Cd60 2.411 . S
O62 C65 1.320 . S
O63 Cd60 2.333 . S
O63 C65 1.214 . S
O64 Cd60 2.352 . S
O64 C67 1.258 . S
C65 O62 1.320 . S
C65 O63 1.214 . S
O66 Cd58 2.277 . S
O66 C61 1.209 . S
C67 O64 1.258 . S
C67 O69 1.282 1_455 S
O68 Cd60 2.277 . S
O68 C61 1.226 . S
O69 Cd60 2.356 1_655 S
O69 C67 1.282 1_655 S
C70 O71 1.306 . S
C70 O73 1.160 . S
O71 C70 1.306 . S
O71 Cd72 2.228 . S
Cd72 O71 2.228 . S
Cd72 O76 2.273 . S
Cd72 O80 2.277 . S
O73 C70 1.160 . S
O73 Cd74 2.203 . S
Cd74 O73 2.203 . S
Cd74 O76 2.411 . S
Cd74 O77 2.333 . S
Cd74 O78 2.352 . S
Cd74 O82 2.277 . S
Cd74 O83 2.356 1_545 S
C75 O80 1.209 . S
C75 O82 1.226 . S
O76 Cd72 2.273 . S
O76 Cd74 2.411 . S
O76 C79 1.320 . S
O77 Cd74 2.333 . S
O77 C79 1.214 . S
O78 Cd74 2.352 . S
O78 C81 1.258 . S
C79 O76 1.320 . S
C79 O77 1.214 . S
O80 Cd72 2.277 . S
O80 C75 1.209 . S
C81 O78 1.258 . S
C81 O83 1.282 1_545 S
O82 Cd74 2.277 . S
O82 C75 1.226 . S
O83 Cd74 2.356 1_565 S
O83 C81 1.282 1_565 S
C84 O85 1.306 . S
C84 O87 1.160 . S
O85 C84 1.306 . S
O85 Cd86 2.228 . S
Cd86 O85 2.228 . S
Cd86 O90 2.273 . S
Cd86 O94 2.277 . S
O87 C84 1.160 . S
O87 Cd88 2.203 . S
Cd88 O87 2.203 . S
Cd88 O90 2.411 . S
Cd88 O91 2.333 . S
Cd88 O92 2.352 . S
Cd88 O96 2.277 . S
Cd88 O97 2.356 1_655 S
C89 O94 1.209 . S
C89 O96 1.226 . S
O90 Cd86 2.273 . S
O90 Cd88 2.411 . S
O90 C93 1.320 . S
O91 Cd88 2.333 . S
O91 C93 1.214 . S
O92 Cd88 2.352 . S
O92 C95 1.258 . S
C93 O90 1.320 . S
C93 O91 1.214 . S
O94 Cd86 2.277 . S
O94 C89 1.209 . S
C95 O92 1.258 . S
C95 O97 1.282 1_655 S
O96 Cd88 2.277 . S
O96 C89 1.226 . S
O97 Cd88 2.356 1_455 S
O97 C95 1.282 1_455 S
C98 O99 1.306 . S
C98 O101 1.160 . S
O99 C98 1.306 . S
O99 Cd100 2.228 . S
Cd100 O99 2.228 . S
Cd100 O104 2.273 . S
Cd100 O108 2.277 . S
O101 C98 1.160 . S
O101 Cd102 2.203 . S
Cd102 O101 2.203 . S
Cd102 O104 2.411 . S
Cd102 O105 2.333 . S
Cd102 O106 2.352 . S
Cd102 O110 2.277 . S
Cd102 O111 2.356 1_565 S
C103 O108 1.209 . S
C103 O110 1.226 . S
O104 Cd100 2.273 . S
O104 Cd102 2.411 . S
O104 C107 1.320 . S
O105 Cd102 2.333 . S
O105 C107 1.214 . S
O106 Cd102 2.352 . S
O106 C109 1.258 . S
C107 O104 1.320 . S
C107 O105 1.214 . S
O108 Cd100 2.277 . S
O108 C103 1.209 . S
C109 O106 1.258 . S
C109 O111 1.282 1_565 S
O110 Cd102 2.277 . S
O110 C103 1.226 . S
O111 Cd102 2.356 1_545 S
O111 C109 1.282 1_545 S
C112 C113 1.170 . S
C112 C114 1.380 1_455 S
C113 C112 1.170 . S
C114 C112 1.380 1_655 S
C114 C115 1.170 . S
C115 C114 1.170 . S
C116 C117 1.170 . S
C116 C118 1.380 1_565 S
C117 C116 1.170 . S
C118 C116 1.380 1_545 S
C118 C119 1.170 . S
C119 C118 1.170 . S
C120 C121 1.170 . S
C120 C122 1.380 1_655 S
C121 C120 1.170 . S
C122 C120 1.380 1_455 S
C122 C123 1.170 . S
C123 C122 1.170 . S
C124 C125 1.170 . S
C124 C126 1.380 1_545 S
C125 C124 1.170 . S
C126 C124 1.380 1_565 S
C126 C127 1.170 . S
C127 C126 1.170 . S
C128 C129 1.170 . S
C128 C130 1.380 1_656 S
C129 C128 1.170 . S
C130 C128 1.380 1_454 S
C130 C131 1.170 . S
C131 C130 1.170 . S
C132 C133 1.170 . S
C132 C134 1.380 1_545 S
C133 C132 1.170 . S
C134 C132 1.380 1_565 S
C134 C135 1.170 . S
C135 C134 1.170 . S
C136 C137 1.170 . S
C136 C138 1.380 1_654 S
C137 C136 1.170 . S
C138 C136 1.380 1_456 S
C138 C139 1.170 . S
C139 C138 1.170 . S
C140 C141 1.170 . S
C140 C142 1.380 1_545 S
C141 C140 1.170 . S
C142 C140 1.380 1_565 S
C142 C143 1.170 . S
C143 C142 1.170 . S
C144 C145 1.170 . S
C144 C146 1.380 . S
C145 C144 1.170 . S
C146 C144 1.380 . S
C146 C147 1.170 . S
C147 C146 1.170 . S
C148 C149 1.170 . S
C148 C150 1.380 . S
C149 C148 1.170 . S
C150 C148 1.380 . S
C150 C151 1.170 . S
C151 C150 1.170 . S
C152 C153 1.170 . S
C152 C154 1.380 . S
C153 C152 1.170 . S
C154 C152 1.380 . S
C154 C155 1.170 . S
C155 C154 1.170 . S
C156 C157 1.170 . S
C156 C158 1.380 . S
C157 C156 1.170 . S
C158 C156 1.380 . S
C158 C159 1.170 . S
C159 C158 1.170 . S
C160 C161 1.170 . S
C160 C162 1.380 1_445 S
C161 C160 1.170 . S
C162 C160 1.380 1_665 S
C162 C163 1.170 . S
C163 C162 1.170 . S
C164 C165 1.170 . S
C164 C166 1.380 1_465 S
C165 C164 1.170 . S
C166 C164 1.380 1_645 S
C166 C167 1.170 . S
C167 C166 1.170 . S
C168 C169 1.171 . S
C168 C170 1.379 1_645 S
C169 C168 1.171 . S
C170 C168 1.379 1_465 S
C170 C171 1.170 . S
C171 C170 1.170 . S
C172 C173 1.170 . S
C172 C174 1.380 1_665 S
C173 C172 1.170 . S
C174 C172 1.380 1_445 S
C174 C175 1.170 . S
C175 C174 1.170 . S
C113 C11 1.430 . S
C115 C39 1.429 . S
C117 C53 1.427 . S
C119 C25 1.429 . S
C121 C95 1.433 . S
C123 C67 1.431 . S
C125 C81 1.424 . S
C127 C109 1.426 . S
C129 C93 1.642 . S
C131 C9 1.698 . S
C133 C23 1.691 . S
C135 C107 1.656 . S
C137 C37 1.678 . S
C139 C65 1.672 . S
C141 C79 1.645 . S
C143 C51 1.681 . S
C145 C0 1.537 . S
C147 C70 1.532 . S
C149 C84 1.558 . S
C151 C14 1.562 . S
C153 C98 1.542 . S
C155 C28 1.529 . S
C157 C42 1.530 . S
C159 C56 1.561 . S
C161 C5 1.088 . S
C163 C33 1.072 . S
C165 C47 1.085 . S
C167 C19 1.073 . S
C169 C89 1.107 . S
C171 C61 1.082 . S
C173 C103 1.098 . S
C175 C75 1.099 . S
