# Generated by pormake.
# Topology uoo, (4)-cn, num edge types: 1
# Building blocks:
#     Node 0, Type 0, BuildingBlock: CEKHIL_clean_sbu_0, # of connection points: 4
#     Node 1, Type 0, BuildingBlock: CEKHIL_clean_sbu_0, # of connection points: 4
#     Node 2, Type 0, BuildingBlock: CEKHIL_clean_sbu_0, # of connection points: 4
#     Node 3, Type 0, BuildingBlock: CEKHIL_clean_sbu_0, # of connection points: 4
#     Node 4, Type 0, BuildingBlock: CEKHIL_clean_sbu_0, # of connection points: 4
#     Node 5, Type 0, BuildingBlock: CEKHIL_clean_sbu_0, # of connection points: 4
#     Edge 6, Type (0, 0), None
#     Edge 7, Type (0, 0), None
#     Edge 8, Type (0, 0), None
#     Edge 9, Type (0, 0), None
#     Edge 10, Type (0, 0), None
#     Edge 11, Type (0, 0), None
#     Edge 12, Type (0, 0), None
#     Edge 13, Type (0, 0), None
#     Edge 14, Type (0, 0), None
#     Edge 15, Type (0, 0), None
#     Edge 16, Type (0, 0), None
#     Edge 17, Type (0, 0), None
# Relax obj value: 0.266
# Max RMSD: 0.178
# Mean RMSD: 0.178
data_MOF--net-uoo--node1-CEKHIL_clean_sbu_0--edge1-none
_symmetry_space_group_name_H-M    P1
_symmetry_Int_Tables_number       1
_symmetry_cell_setting            triclinic
loop_
_symmetry_equiv_pos_as_xyz
'x, y, z'
_cell_length_a     11.741091
_cell_length_b     11.737009
_cell_length_c     15.421025
_cell_angle_alpha  89.999094
_cell_angle_beta   90.000879
_cell_angle_gamma 119.96555
loop_
_atom_site_label
_atom_site_type_symbol
_atom_site_fract_x
_atom_site_fract_y
_atom_site_fract_z
_atom_type_partial_charge
Co0 Co 0.12058 0.35765 1.01482 0.0
O1 O -0.0403 0.32125 0.95882 0.0
O2 O 0.11332 0.51582 1.00927 0.0
C3 C 0.17869 0.25099 0.91869 0.0
O4 O 0.29712 0.4437 0.07261 0.0
Co5 Co 0.17778 0.15492 0.09415 0.0
O6 O 0.36419 0.2975 0.08671 0.0
C7 C -0.0031 0.21822 0.18538 0.0
C8 C 9e-05 0.4452 0.97267 0.0
C9 C 0.38727 0.41548 0.08504 0.0
O10 O 0.0243 0.30995 0.12967 0.0
O11 O 0.04424 0.14104 0.18162 0.0
O12 O 0.20507 0.37081 0.90418 0.0
O13 O 0.11227 0.19562 0.98852 0.0
Co14 Co 0.73269 0.13548 0.34802 0.0
O15 O 0.60816 -0.0255 0.29213 0.0
O16 O 0.5674 0.12842 0.34244 0.0
C17 C 0.89732 0.19329 0.25189 0.0
O18 O 0.82327 0.31218 0.40567 0.0
Co19 Co -0.00752 0.19244 0.42735 0.0
O20 O 0.03636 0.37898 0.4199 0.0
C21 C 0.74842 0.01192 0.51868 0.0
C22 C 0.52471 0.01506 0.30595 0.0
C23 C 0.94159 0.40224 0.41817 0.0
O24 O 0.68416 0.03937 0.46294 0.0
O25 O 0.87284 0.05909 0.51489 0.0
O26 O 0.80399 0.21979 0.23732 0.0
O27 O 0.88624 0.12691 0.32176 0.0
Co28 Co 0.56712 0.74776 0.68137 0.0
O29 O 0.60346 0.62315 0.62536 0.0
O30 O 0.40897 0.58254 0.67579 0.0
C31 C 0.67381 0.91246 0.58525 0.0
O32 O 0.48109 0.83833 0.73917 0.0
Co33 Co 0.76976 0.00756 0.76071 0.0
O34 O 0.62715 0.05148 0.75329 0.0
C35 C 0.70627 0.76338 0.85204 0.0
C36 C 0.47952 0.53978 0.6392 0.0
C37 C 0.50924 0.95666 0.75163 0.0
O38 O 0.61474 0.69909 0.79624 0.0
O39 O 0.78338 0.88785 0.84829 0.0
O40 O 0.55403 0.8192 0.57073 0.0
O41 O 0.72912 0.90131 0.6551 0.0
Co42 Co 0.78914 0.58207 1.0148 0.0
O43 O 0.95004 0.61851 0.95882 0.0
O44 O 0.79639 0.4239 1.00926 0.0
C45 C 0.73108 0.68875 0.91866 0.0
O46 O 0.61258 0.49601 0.07257 0.0
Co47 Co 0.73192 0.78481 0.09412 0.0
O48 O 0.54551 0.64221 0.08671 0.0
C49 C 0.91279 0.7215 0.18536 0.0
C50 C 0.90962 0.49455 0.97268 0.0
C51 C 0.52244 0.52424 0.08505 0.0
O52 O 0.88539 0.62976 0.12966 0.0
O53 O 0.86546 0.79869 0.18159 0.0
O54 O 0.70466 0.56893 0.90415 0.0
O55 O 0.79746 0.74411 0.9885 0.0
Co56 Co 0.177 0.80427 0.34801 0.0
O57 O 0.30152 0.96527 0.29213 0.0
O58 O 0.34229 0.81134 0.34245 0.0
C59 C 0.01237 0.74644 0.25188 0.0
O60 O 0.08642 0.62757 0.40567 0.0
Co61 Co 0.9172 0.7473 0.42734 0.0
O62 O 0.87334 0.56077 0.4199 0.0
C63 C 0.16125 0.92784 0.51866 0.0
C64 C 0.38494 0.92469 0.30596 0.0
C65 C -0.03189 0.53753 0.41819 0.0
O66 O 0.22551 0.90038 0.46294 0.0
O67 O 0.03683 0.88067 0.51487 0.0
O68 O 0.10571 0.71996 0.23731 0.0
O69 O 0.02344 0.81283 0.32175 0.0
Co70 Co 0.34256 0.19201 0.68135 0.0
O71 O 0.30618 0.31661 0.62536 0.0
O72 O 0.5007 0.35724 0.67577 0.0
C73 C 0.23585 0.02731 0.58523 0.0
O74 O 0.42862 0.10144 0.73911 0.0
Co75 Co 0.13993 0.9322 0.76069 0.0
O76 O 0.28256 0.88829 0.75332 0.0
C77 C 0.20347 0.17636 0.85205 0.0
C78 C 0.43011 0.39997 0.6392 0.0
C79 C 0.40046 -0.01688 0.75165 0.0
O80 O 0.29497 0.24066 0.79623 0.0
O81 O 0.12633 0.0519 0.84829 0.0
O82 O 0.35562 0.12059 0.57069 0.0
O83 O 0.18055 0.03845 0.65509 0.0
loop_
_geom_bond_atom_site_label_1
_geom_bond_atom_site_label_2
_geom_bond_distance
_geom_bond_site_symmetry_2
_ccdc_geom_bond_type
Co0 O1 2.216 1_455 S
Co0 O2 2.091 . S
Co0 O4 2.004 1_556 S
Co0 O10 2.021 1_556 S
Co0 O12 2.137 . S
Co0 O13 2.244 . S
O1 Co0 2.216 1_655 S
O1 C8 1.247 . S
O2 Co0 2.091 . S
O2 C8 1.261 1_455 S
C3 O12 1.247 . S
C3 O13 1.272 . S
O4 Co0 2.004 1_554 S
O4 C9 1.259 . S
Co5 O6 2.061 . S
Co5 O11 2.052 . S
Co5 O13 2.135 1_554 S
O6 Co5 2.061 . S
O6 C9 1.235 . S
C7 O10 1.238 . S
C7 O11 1.241 . S
C8 O1 1.247 . S
C8 O2 1.261 1_655 S
C9 O4 1.259 . S
C9 O6 1.235 . S
O10 Co0 2.021 1_554 S
O10 C7 1.238 . S
O11 Co5 2.052 . S
O11 C7 1.241 . S
O12 Co0 2.137 . S
O12 C3 1.247 . S
O13 Co0 2.244 . S
O13 C3 1.272 . S
O13 Co5 2.135 1_556 S
Co14 O15 2.216 1_545 S
Co14 O16 2.091 . S
Co14 O18 2.004 . S
Co14 O24 2.021 . S
Co14 O26 2.137 . S
Co14 O27 2.244 . S
O15 Co14 2.216 1_565 S
O15 C22 1.247 . S
O16 Co14 2.091 . S
O16 C22 1.261 1_545 S
C17 O26 1.247 . S
C17 O27 1.272 . S
O18 Co14 2.004 . S
O18 C23 1.259 1_655 S
Co19 O20 2.061 . S
Co19 O25 2.052 . S
Co19 O27 2.135 1_455 S
O20 Co19 2.061 . S
O20 C23 1.235 . S
C21 O24 1.238 . S
C21 O25 1.241 1_655 S
C22 O15 1.247 . S
C22 O16 1.261 1_565 S
C23 O18 1.259 1_455 S
C23 O20 1.235 . S
O24 Co14 2.021 . S
O24 C21 1.238 . S
O25 Co19 2.052 . S
O25 C21 1.241 1_455 S
O26 Co14 2.137 . S
O26 C17 1.247 . S
O27 Co14 2.244 . S
O27 C17 1.272 . S
O27 Co19 2.135 1_655 S
Co28 O29 2.216 . S
Co28 O30 2.091 . S
Co28 O32 2.004 . S
Co28 O38 2.021 . S
Co28 O40 2.137 . S
Co28 O41 2.244 . S
O29 Co28 2.216 . S
O29 C36 1.247 . S
O30 Co28 2.091 . S
O30 C36 1.261 . S
C31 O40 1.247 . S
C31 O41 1.272 . S
O32 Co28 2.004 . S
O32 C37 1.259 1_565 S
Co33 O34 2.061 . S
Co33 O39 2.052 . S
Co33 O41 2.135 1_545 S
O34 Co33 2.061 . S
O34 C37 1.235 . S
C35 O38 1.238 . S
C35 O39 1.241 1_565 S
C36 O29 1.247 . S
C36 O30 1.261 . S
C37 O32 1.259 1_545 S
C37 O34 1.235 . S
O38 Co28 2.021 . S
O38 C35 1.238 . S
O39 Co33 2.052 . S
O39 C35 1.241 1_545 S
O40 Co28 2.137 . S
O40 C31 1.247 . S
O41 Co28 2.244 . S
O41 C31 1.272 . S
O41 Co33 2.135 1_565 S
Co42 O43 2.216 1_655 S
Co42 O44 2.091 . S
Co42 O46 2.004 1_556 S
Co42 O52 2.021 1_556 S
Co42 O54 2.137 . S
Co42 O55 2.244 . S
O43 Co42 2.216 1_455 S
O43 C50 1.247 . S
O44 Co42 2.091 . S
O44 C50 1.261 1_655 S
C45 O54 1.247 . S
C45 O55 1.272 . S
O46 Co42 2.004 1_554 S
O46 C51 1.259 . S
Co47 O48 2.061 . S
Co47 O53 2.052 . S
Co47 O55 2.135 1_554 S
O48 Co47 2.061 . S
O48 C51 1.235 . S
C49 O52 1.238 . S
C49 O53 1.241 . S
C50 O43 1.247 . S
C50 O44 1.261 1_455 S
C51 O46 1.259 . S
C51 O48 1.235 . S
O52 Co42 2.021 1_554 S
O52 C49 1.238 . S
O53 Co47 2.052 . S
O53 C49 1.241 . S
O54 Co42 2.137 . S
O54 C45 1.247 . S
O55 Co42 2.244 . S
O55 C45 1.272 . S
O55 Co47 2.135 1_556 S
Co56 O57 2.216 1_565 S
Co56 O58 2.091 . S
Co56 O60 2.004 . S
Co56 O66 2.021 . S
Co56 O68 2.137 . S
Co56 O69 2.244 . S
O57 Co56 2.216 1_545 S
O57 C64 1.247 . S
O58 Co56 2.091 . S
O58 C64 1.261 1_565 S
C59 O68 1.247 . S
C59 O69 1.272 . S
O60 Co56 2.004 . S
O60 C65 1.259 1_455 S
Co61 O62 2.061 . S
Co61 O67 2.052 . S
Co61 O69 2.135 1_655 S
O62 Co61 2.061 . S
O62 C65 1.235 . S
C63 O66 1.238 . S
C63 O67 1.241 1_455 S
C64 O57 1.247 . S
C64 O58 1.261 1_545 S
C65 O60 1.259 1_655 S
C65 O62 1.235 . S
O66 Co56 2.021 . S
O66 C63 1.238 . S
O67 Co61 2.052 . S
O67 C63 1.241 1_655 S
O68 Co56 2.137 . S
O68 C59 1.247 . S
O69 Co56 2.244 . S
O69 C59 1.272 . S
O69 Co61 2.135 1_455 S
Co70 O71 2.216 . S
Co70 O72 2.091 . S
Co70 O74 2.004 . S
Co70 O80 2.021 . S
Co70 O82 2.137 . S
Co70 O83 2.244 . S
O71 Co70 2.216 . S
O71 C78 1.247 . S
O72 Co70 2.091 . S
O72 C78 1.261 . S
C73 O82 1.247 . S
C73 O83 1.272 . S
O74 Co70 2.004 . S
O74 C79 1.259 1_545 S
Co75 O76 2.061 . S
Co75 O81 2.052 . S
Co75 O83 2.135 1_565 S
O76 Co75 2.061 . S
O76 C79 1.235 . S
C77 O80 1.238 . S
C77 O81 1.241 1_545 S
C78 O71 1.247 . S
C78 O72 1.261 . S
C79 O74 1.259 1_565 S
C79 O76 1.235 . S
O80 Co70 2.021 . S
O80 C77 1.238 . S
O81 Co75 2.052 . S
O81 C77 1.241 1_565 S
O82 Co70 2.137 . S
O82 C73 1.247 . S
O83 Co70 2.244 . S
O83 C73 1.272 . S
O83 Co75 2.135 1_545 S
C77 C3 1.508 . S
C17 C7 1.508 1_655 S
C21 C31 1.508 1_545 S
C45 C35 1.508 . S
C59 C49 1.508 1_455 S
C73 C63 1.508 1_545 S
C9 C51 2.243 . S
C23 C65 2.243 1_455 S
C79 C37 2.243 1_565 S
C78 C36 1.782 . S
C50 C8 1.782 1_455 S
C22 C64 1.782 1_565 S
