# Generated by pormake.
# Topology unc, (4)-cn, num edge types: 1
# Building blocks:
#     Node 0, Type 0, BuildingBlock: GALJAG_clean_sbu_0, # of connection points: 4
#     Node 1, Type 0, BuildingBlock: GALJAG_clean_sbu_0, # of connection points: 4
#     Node 2, Type 0, BuildingBlock: GALJAG_clean_sbu_0, # of connection points: 4
#     Node 3, Type 0, BuildingBlock: GALJAG_clean_sbu_0, # of connection points: 4
#     Edge 4, Type (0, 0), BuildingBlock: FUNLAD_clean_linker_0, # of connection points: 2
#     Edge 5, Type (0, 0), BuildingBlock: FUNLAD_clean_linker_0, # of connection points: 2
#     Edge 6, Type (0, 0), BuildingBlock: FUNLAD_clean_linker_0, # of connection points: 2
#     Edge 7, Type (0, 0), BuildingBlock: FUNLAD_clean_linker_0, # of connection points: 2
#     Edge 8, Type (0, 0), BuildingBlock: FUNLAD_clean_linker_0, # of connection points: 2
#     Edge 9, Type (0, 0), BuildingBlock: FUNLAD_clean_linker_0, # of connection points: 2
#     Edge 10, Type (0, 0), BuildingBlock: FUNLAD_clean_linker_0, # of connection points: 2
#     Edge 11, Type (0, 0), BuildingBlock: FUNLAD_clean_linker_0, # of connection points: 2
# Relax obj value: 0.013
# Max RMSD: 0.034
# Mean RMSD: 0.034
data_MOF--net-unc--node1-GALJAG_clean_sbu_0--edge1-FUNLAD_clean_linker_0
_symmetry_space_group_name_H-M    P1
_symmetry_Int_Tables_number       1
_symmetry_cell_setting            triclinic
loop_
_symmetry_equiv_pos_as_xyz
'x, y, z'
_cell_length_a     36.734514
_cell_length_b     36.774044
_cell_length_c     23.792153
_cell_angle_alpha  89.764724
_cell_angle_beta   89.999724
_cell_angle_gamma 90.035852
loop_
_atom_site_label
_atom_site_type_symbol
_atom_site_fract_x
_atom_site_fract_y
_atom_site_fract_z
_atom_type_partial_charge
In0 In 0.99696 0.67737 -0.0024 0.0
O1 O 0.05424 0.70166 -0.00704 0.0
O2 O 0.01926 0.71954 0.0584 0.0
C3 C 0.99817 0.62929 0.9126 0.0
C4 C 0.94876 0.72588 0.95644 0.0
C5 C 0.98968 0.62825 0.08146 0.0
O6 O 0.02663 0.64533 0.92922 0.0
O7 O 0.96942 0.63811 0.93808 0.0
O8 O 0.96516 0.65134 0.0707 0.0
O9 O 0.01765 0.63077 0.05107 0.0
C10 C 0.05012 0.72175 0.03539 0.0
O11 O 0.94284 0.70788 0.00091 0.0
O12 O 0.97907 0.71967 0.93341 0.0
In13 In 0.31887 0.99858 0.24832 0.0
O14 O 0.29404 0.94142 0.2464 0.0
O15 O 0.26836 0.98314 0.19869 0.0
C16 C 0.37321 0.9896 0.32325 0.0
C17 C 0.27694 0.04942 0.29794 0.0
C18 C 0.36136 0.00617 0.15665 0.0
O19 O 0.34768 0.96672 0.3187 0.0
O20 O 0.37053 0.01692 0.29137 0.0
O21 O 0.34544 0.03287 0.17907 0.0
O22 O 0.35466 0.9758 0.17923 0.0
C23 C 0.26839 0.95021 0.2137 0.0
O24 O 0.28997 0.05349 0.2492 0.0
O25 O 0.28527 0.01984 0.32172 0.0
In26 In 0.00046 0.32113 0.50378 0.0
O27 O 0.0528 0.28783 0.51235 0.0
O28 O 0.02197 0.28254 0.43722 0.0
C29 C 0.00647 0.36702 0.5912 0.0
C30 C 0.94691 0.27518 0.53543 0.0
C31 C 0.99925 0.37354 0.42415 0.0
O32 O 0.03317 0.34865 0.5736 0.0
O33 O 0.97691 0.3614 0.5657 0.0
O34 O 0.97118 0.35532 0.43665 0.0
O35 O 0.02754 0.36468 0.45086 0.0
C36 C 0.04982 0.27315 0.46466 0.0
O37 O 0.94527 0.29364 0.49058 0.0
O38 O 0.97546 0.27994 0.56396 0.0
In39 In 0.67479 0.00018 0.74687 0.0
O40 O 0.70744 0.94733 0.7399 0.0
O41 O 0.71074 0.97731 0.81602 0.0
C42 C 0.63084 -0.00107 0.65635 0.0
C43 C 0.72287 0.05268 0.71925 0.0
C44 C 0.61998 0.00031 0.82199 0.0
O45 O 0.64792 0.97094 0.67263 0.0
O46 O 0.63684 0.02718 0.68475 0.0
O47 O 0.63965 0.02805 0.81369 0.0
O48 O 0.6287 0.97277 0.7936 0.0
C49 C 0.72065 0.94965 0.78883 0.0
O50 O 0.70299 0.05471 0.76252 0.0
O51 O 0.71852 0.02423 0.69052 0.0
C52 C 0.01248 0.57208 0.12828 0.0
C53 C 0.98578 0.59925 0.12419 0.0
C54 C 0.00889 0.54374 0.16694 0.0
C55 C 0.97871 0.54215 0.20333 0.0
C56 C 0.95175 0.56912 0.19881 0.0
C57 C 0.95525 0.59748 0.15965 0.0
C58 C 0.97427 0.51217 0.24505 0.0
C59 C 0.00285 0.49356 0.26609 0.0
C60 C 0.00016 0.46293 0.3069 0.0
C61 C 0.03199 0.45217 0.33503 0.0
C62 C 0.03156 0.42305 0.37269 0.0
C63 C 0.99925 0.40375 0.38305 0.0
H64 H 0.94279 0.45013 0.29505 0.0
C65 C 0.96732 0.41415 0.35475 0.0
C66 C 0.96773 0.44342 0.31685 0.0
H67 H 0.94204 0.39965 0.36181 0.0
H68 H 0.03604 0.57233 0.10087 0.0
H69 H 0.02956 0.52281 0.16714 0.0
H70 H 0.92801 0.56835 0.22581 0.0
H71 H 0.93408 0.61791 0.15707 0.0
H72 H 0.94697 0.50647 0.26008 0.0
H73 H 0.03019 0.50188 0.25444 0.0
H74 H 0.05742 0.46642 0.32796 0.0
H75 H 0.05665 0.41572 0.39381 0.0
C76 C 0.43481 0.00798 0.35609 0.0
C77 C 0.40464 0.98474 0.36121 0.0
C78 C 0.46489 0.00393 0.39127 0.0
C79 C 0.46527 0.97692 0.43335 0.0
C80 C 0.43544 0.95308 0.43757 0.0
C81 C 0.40536 0.95694 0.40182 0.0
C82 C 0.4963 0.97298 0.4732 0.0
C83 C 0.5185 0.00092 0.48624 0.0
C84 C 0.54838 -0.00105 0.52825 0.0
C85 C 0.56073 0.03159 0.55192 0.0
C86 C 0.58806 0.03147 0.59255 0.0
C87 C 0.60402 0.99867 0.61014 0.0
H88 H 0.55705 0.94045 0.5262 0.0
C89 C 0.59263 0.96598 0.58531 0.0
C90 C 0.56503 0.96607 0.54466 0.0
H91 H 0.6046 0.94031 0.59795 0.0
H92 H 0.43539 0.02921 0.3244 0.0
H93 H 0.48784 0.02188 0.3847 0.0
H94 H 0.43516 0.93175 0.46912 0.0
H95 H 0.38259 0.93843 0.40633 0.0
H96 H 0.49928 0.94712 0.49485 0.0
H97 H 0.51318 0.02756 0.46827 0.0
H98 H 0.54873 0.05735 0.53971 0.0
H99 H 0.59634 0.05714 0.61072 0.0
C100 C 0.03113 0.58514 0.85085 0.0
C101 C 0.99838 0.60096 0.8689 0.0
C102 C 0.03072 0.55637 0.81249 0.0
C103 C 0.99747 0.54316 0.79134 0.0
C104 C 0.96495 0.55994 0.80799 0.0
C105 C 0.96533 0.58829 0.84672 0.0
C106 C 0.99528 0.51234 0.75146 0.0
C107 C 0.01982 0.48515 0.7493 0.0
C108 C 0.01574 0.45351 0.71109 0.0
C109 C 0.04691 0.43463 0.69342 0.0
C110 C 0.04399 0.40568 0.65565 0.0
C111 C 0.00976 0.395 0.6352 0.0
H112 H 0.95653 0.45417 0.70713 0.0
C113 C 0.97848 0.41283 0.65477 0.0
C114 C 0.98137 0.44157 0.69255 0.0
H115 H 0.95168 0.40484 0.64038 0.0
H116 H 0.05701 0.5945 0.86717 0.0
H117 H 0.05641 0.54483 0.79931 0.0
H118 H 0.939 0.55054 0.79191 0.0
H119 H 0.93966 0.6001 0.85963 0.0
H120 H 0.97151 0.51158 0.72439 0.0
H121 H 0.04385 0.48601 0.77584 0.0
H122 H 0.07366 0.44286 0.70776 0.0
H123 H 0.06856 0.39232 0.64141 0.0
C124 C 0.40746 0.9796 0.09195 0.0
C125 C 0.38865 0.01025 0.11149 0.0
C126 C 0.43606 0.98337 0.05381 0.0
C127 C 0.44627 0.01797 0.03361 0.0
C128 C 0.427 0.04857 0.05251 0.0
C129 C 0.39838 0.04477 0.09094 0.0
C130 C 0.47822 0.02323 -0.0041 0.0
C131 C 0.49137 0.99663 0.96275 0.0
C132 C 0.52484 -0.00071 0.92758 0.0
C133 C 0.53612 0.96791 0.899 0.0
C134 C 0.56728 0.96825 0.86559 0.0
C135 C 0.58805 8e-05 0.8597 0.0
H136 H 0.53846 0.05617 0.94288 0.0
C137 C 0.57714 0.03156 0.88832 0.0
C138 C 0.54585 0.03124 0.92199 0.0
H139 H 0.59259 0.05654 0.8843 0.0
H140 H 0.40089 0.95266 0.10753 0.0
H141 H 0.45083 0.95911 0.04221 0.0
H142 H 0.43443 0.07556 0.03811 0.0
H143 H 0.38453 0.06893 0.10562 0.0
H144 H 0.49091 0.04982 -0.00388 0.0
H145 H 0.47695 0.97089 0.96118 0.0
H146 H 0.52074 0.94284 0.90247 0.0
H147 H 0.57491 0.94353 0.84399 0.0
C148 C 0.24465 0.88667 0.20292 0.0
C149 C 0.24042 0.92425 0.19432 0.0
C150 C 0.21813 0.8623 0.18385 0.0
C151 C 0.18676 0.87518 0.15624 0.0
C152 C 0.18236 0.91276 0.14857 0.0
C153 C 0.20905 0.93703 0.16688 0.0
C154 C 0.15749 0.85041 0.13675 0.0
C155 C 0.16373 0.81626 0.11896 0.0
C156 C 0.1342 0.79228 0.09799 0.0
C157 C 0.14206 0.76649 0.05638 0.0
C158 C 0.1147 0.74374 0.03556 0.0
C159 C 0.07908 0.74592 0.05679 0.0
H160 H 0.09179 0.81303 0.15281 0.0
C161 C 0.07137 0.77122 0.09922 0.0
C162 C 0.0986 0.79421 0.11958 0.0
H163 H 0.04422 0.77333 0.1167 0.0
H164 H 0.26849 0.87609 0.22418 0.0
H165 H 0.22194 0.83354 0.19174 0.0
H166 H 0.15832 0.92339 0.12787 0.0
H167 H 0.20494 0.96587 0.15993 0.0
H168 H 0.13018 0.86159 0.13376 0.0
H169 H 0.19151 0.80628 0.11639 0.0
H170 H 0.16934 0.76424 0.03943 0.0
H171 H 0.1215 0.72431 0.00312 0.0
C172 C 0.24284 0.10828 0.29517 0.0
C173 C 0.25299 0.07666 0.32451 0.0
C174 C 0.21916 0.13344 0.31954 0.0
C175 C 0.20499 0.12737 0.37378 0.0
C176 C 0.21598 0.09624 0.4036 0.0
C177 C 0.23956 0.07103 0.37914 0.0
C178 C 0.17913 0.15306 0.40071 0.0
C179 C 0.1562 0.17434 0.37105 0.0
C180 C 0.12914 0.19916 0.3971 0.0
C181 C 0.09872 0.20973 0.36531 0.0
C182 C 0.07284 0.23345 0.38753 0.0
C183 C 0.07698 0.24747 0.44198 0.0
H184 H 0.15697 0.20673 0.47695 0.0
C185 C 0.10751 0.2372 0.47384 0.0
C186 C 0.1334 0.21333 0.45164 0.0
H187 H 0.11156 0.24782 0.51577 0.0
H188 H 0.25305 0.11354 0.25319 0.0
H189 H 0.21237 0.15771 0.29592 0.0
H190 H 0.2058 0.09108 0.44563 0.0
H191 H 0.24707 0.047 0.40293 0.0
H192 H 0.17744 0.15253 0.44626 0.0
H193 H 0.15564 0.17213 0.32556 0.0
H194 H 0.09485 0.19948 0.32309 0.0
H195 H 0.04967 0.24098 0.36183 0.0
C196 C 0.7678 0.07895 0.65154 0.0
C197 C 0.74904 0.08136 0.70285 0.0
C198 C 0.7926 0.10587 0.63557 0.0
C199 C 0.79918 0.13589 0.67064 0.0
C200 C 0.78075 0.13804 0.72225 0.0
C201 C 0.7557 0.11119 0.73806 0.0
C202 C 0.82632 0.16433 0.65577 0.0
C203 C 0.83495 0.17298 0.60228 0.0
C204 C 0.86323 0.20022 0.58707 0.0
C205 C 0.86126 0.21772 0.53457 0.0
C206 C 0.88817 0.24245 0.51795 0.0
C207 C 0.9179 0.24977 0.55326 0.0
H208 H 0.89615 0.19388 0.66244 0.0
C209 C 0.92002 0.23215 0.60565 0.0
C210 C 0.89302 0.20762 0.62243 0.0
H211 H 0.94274 0.23708 0.63364 0.0
H212 H 0.76342 0.05614 0.62366 0.0
H213 H 0.80711 0.10258 0.59634 0.0
H214 H 0.78561 0.16065 0.75032 0.0
H215 H 0.74177 0.11368 0.77798 0.0
H216 H 0.83857 0.17936 0.69011 0.0
H217 H 0.82001 0.16052 0.56798 0.0
H218 H 0.83882 0.21225 0.50629 0.0
H219 H 0.88589 0.25552 0.47721 0.0
C220 C 0.75858 0.89323 0.78038 0.0
C221 C 0.74571 0.92229 0.81293 0.0
C222 C 0.78255 0.86766 0.80355 0.0
C223 C 0.79411 0.87074 0.8598 0.0
C224 C 0.78066 0.89945 0.89241 0.0
C225 C 0.75693 0.92507 0.86919 0.0
C226 C 0.81939 0.84421 0.88639 0.0
C227 C 0.84421 0.82498 0.85731 0.0
C228 C 0.87062 0.79974 0.88434 0.0
C229 C 0.90363 0.79253 0.85686 0.0
C230 C 0.92914 0.76887 0.88062 0.0
C231 C 0.922 0.75153 0.93219 0.0
H232 H 0.83777 0.78609 0.95754 0.0
C233 C 0.88883 0.75834 0.95952 0.0
C234 C 0.86334 0.78215 0.93585 0.0
H235 H 0.88243 0.74508 -0.00095 0.0
H236 H 0.75015 0.89023 0.73702 0.0
H237 H 0.79144 0.8453 0.77752 0.0
H238 H 0.78884 0.90231 0.93593 0.0
H239 H 0.74732 0.94705 0.89547 0.0
H240 H 0.819 0.84238 0.93195 0.0
H241 H 0.84696 0.82944 0.81237 0.0
H242 H 0.90984 0.80544 0.81697 0.0
H243 H 0.95438 0.764 0.85835 0.0
loop_
_geom_bond_atom_site_label_1
_geom_bond_atom_site_label_2
_geom_bond_distance
_geom_bond_site_symmetry_2
_ccdc_geom_bond_type
In0 O1 2.294 1_554 S
In0 O2 2.326 . S
In0 O6 2.266 1_554 S
In0 O7 2.326 1_454 S
In0 O8 2.266 1_455 S
In0 O9 2.326 . S
In0 O11 2.294 1_455 S
In0 O12 2.326 1_454 S
O1 In0 2.294 1_556 S
O1 C10 1.240 1_556 S
O2 In0 2.326 . S
O2 C10 1.252 . S
C3 O6 1.254 . S
C3 O7 1.259 1_455 S
C4 O11 1.240 1_556 S
C4 O12 1.252 . S
C5 O8 1.254 1_455 S
C5 O9 1.259 . S
O6 In0 2.266 1_556 S
O6 C3 1.254 . S
O7 In0 2.326 1_656 S
O7 C3 1.259 1_655 S
O8 In0 2.266 1_655 S
O8 C5 1.254 1_655 S
O9 In0 2.326 . S
O9 C5 1.259 . S
C10 O1 1.240 1_554 S
C10 O2 1.252 . S
O11 In0 2.294 1_655 S
O11 C4 1.240 1_554 S
O12 In0 2.326 1_656 S
O12 C4 1.252 . S
In13 O14 2.294 1_545 S
In13 O15 2.326 1_545 S
In13 O19 2.266 1_545 S
In13 O20 2.326 . S
In13 O21 2.266 . S
In13 O22 2.326 1_545 S
In13 O24 2.294 . S
In13 O25 2.326 . S
O14 In13 2.294 1_565 S
O14 C23 1.240 . S
O15 In13 2.326 1_565 S
O15 C23 1.252 . S
C16 O19 1.254 1_545 S
C16 O20 1.259 . S
C17 O24 1.240 . S
C17 O25 1.252 . S
C18 O21 1.254 . S
C18 O22 1.259 1_545 S
O19 In13 2.266 1_565 S
O19 C16 1.254 1_565 S
O20 In13 2.326 . S
O20 C16 1.259 . S
O21 In13 2.266 . S
O21 C18 1.254 . S
O22 In13 2.326 1_565 S
O22 C18 1.259 1_565 S
C23 O14 1.240 . S
C23 O15 1.252 . S
O24 In13 2.294 . S
O24 C17 1.240 . S
O25 In13 2.326 . S
O25 C17 1.252 . S
In26 O27 2.294 . S
In26 O28 2.326 . S
In26 O32 2.266 . S
In26 O33 2.326 1_455 S
In26 O34 2.266 1_455 S
In26 O35 2.326 . S
In26 O37 2.294 1_455 S
In26 O38 2.326 1_455 S
O27 In26 2.294 . S
O27 C36 1.240 . S
O28 In26 2.326 . S
O28 C36 1.252 . S
C29 O32 1.254 . S
C29 O33 1.259 1_455 S
C30 O37 1.240 . S
C30 O38 1.252 . S
C31 O34 1.254 1_455 S
C31 O35 1.259 . S
O32 In26 2.266 . S
O32 C29 1.254 . S
O33 In26 2.326 1_655 S
O33 C29 1.259 1_655 S
O34 In26 2.266 1_655 S
O34 C31 1.254 1_655 S
O35 In26 2.326 . S
O35 C31 1.259 . S
C36 O27 1.240 . S
C36 O28 1.252 . S
O37 In26 2.294 1_655 S
O37 C30 1.240 . S
O38 In26 2.326 1_655 S
O38 C30 1.252 . S
In39 O40 2.294 1_545 S
In39 O41 2.326 1_545 S
In39 O45 2.266 1_545 S
In39 O46 2.326 . S
In39 O47 2.266 . S
In39 O48 2.326 1_545 S
In39 O50 2.294 . S
In39 O51 2.326 . S
O40 In39 2.294 1_565 S
O40 C49 1.240 . S
O41 In39 2.326 1_565 S
O41 C49 1.252 . S
C42 O45 1.254 1_545 S
C42 O46 1.259 . S
C43 O50 1.240 . S
C43 O51 1.252 . S
C44 O47 1.254 . S
C44 O48 1.259 1_545 S
O45 In39 2.266 1_565 S
O45 C42 1.254 1_565 S
O46 In39 2.326 . S
O46 C42 1.259 . S
O47 In39 2.266 . S
O47 C44 1.254 . S
O48 In39 2.326 1_565 S
O48 C44 1.259 1_565 S
C49 O40 1.240 . S
C49 O41 1.252 . S
O50 In39 2.294 . S
O50 C43 1.240 . S
O51 In39 2.326 . S
O51 C43 1.252 . S
C52 C53 1.386 1_455 S
C52 C54 1.383 . S
C52 H68 0.951 . S
C53 C52 1.386 1_655 S
C53 C57 1.383 . S
C54 C52 1.383 . S
C54 C55 1.402 1_455 S
C54 H69 0.951 . S
C55 C54 1.402 1_655 S
C55 C56 1.375 . S
C55 C58 1.481 . S
C56 C55 1.375 . S
C56 C57 1.367 . S
C56 H70 0.951 . S
C57 C53 1.383 . S
C57 C56 1.367 . S
C57 H71 0.950 . S
C58 C55 1.481 . S
C58 C59 1.297 1_655 S
C58 H72 0.950 . S
C59 C58 1.297 1_455 S
C59 C60 1.479 . S
C59 H73 0.950 . S
C60 C59 1.479 . S
C60 C61 1.375 . S
C60 C66 1.404 1_455 S
C61 C60 1.375 . S
C61 C62 1.369 . S
C61 H74 0.950 . S
C62 C61 1.369 . S
C62 C63 1.392 . S
C62 H75 0.951 . S
C63 C62 1.392 . S
C63 C65 1.384 1_455 S
H64 C66 0.949 . S
C65 C63 1.384 1_655 S
C65 C66 1.385 . S
C65 H67 0.950 . S
C66 C60 1.404 1_655 S
C66 H64 0.949 . S
C66 C65 1.385 . S
H67 C65 0.950 . S
H68 C52 0.951 . S
H69 C54 0.951 . S
H70 C56 0.951 . S
H71 C57 0.950 . S
H72 C58 0.950 . S
H73 C59 0.950 . S
H74 C61 0.950 . S
H75 C62 0.951 . S
C76 C77 1.386 1_545 S
C76 C78 1.383 . S
C76 H92 0.951 . S
C77 C76 1.386 1_565 S
C77 C81 1.383 . S
C78 C76 1.383 . S
C78 C79 1.402 1_545 S
C78 H93 0.951 . S
C79 C78 1.402 1_565 S
C79 C80 1.375 . S
C79 C82 1.481 . S
C80 C79 1.375 . S
C80 C81 1.367 . S
C80 H94 0.951 . S
C81 C77 1.383 . S
C81 C80 1.367 . S
C81 H95 0.950 . S
C82 C79 1.481 . S
C82 C83 1.316 . S
C82 H96 0.950 . S
C83 C82 1.316 . S
C83 C84 1.482 . S
C83 H97 0.927 1_565 S
C84 C83 1.482 . S
C84 C85 1.375 1_565 S
C84 C90 1.404 . S
C85 C84 1.375 1_545 S
C85 C86 1.369 . S
C85 H98 0.950 . S
C86 C85 1.369 . S
C86 C87 1.392 1_545 S
C86 H99 0.951 . S
C87 C86 1.392 1_565 S
C87 C89 1.384 . S
H88 C90 0.949 . S
C89 C87 1.384 . S
C89 C90 1.385 . S
C89 H91 0.950 . S
C90 C84 1.404 . S
C90 H88 0.949 . S
C90 C89 1.385 . S
H91 C89 0.950 . S
H92 C76 0.951 . S
H93 C78 0.951 . S
H94 C80 0.951 . S
H95 C81 0.950 . S
H96 C82 0.950 . S
H97 C83 0.927 1_545 S
H98 C85 0.950 . S
H99 C86 0.951 . S
C100 C101 1.397 . S
C100 C102 1.383 . S
C100 H116 0.951 . S
C101 C100 1.397 . S
C101 C105 1.371 1_455 S
C102 C100 1.383 . S
C102 C103 1.385 1_455 S
C102 H117 0.951 . S
C103 C102 1.385 1_655 S
C103 C104 1.392 . S
C103 C106 1.483 . S
C104 C103 1.392 . S
C104 C105 1.367 . S
C104 H118 0.951 . S
C105 C101 1.371 1_655 S
C105 C104 1.367 . S
C105 H119 0.950 . S
C106 C103 1.483 . S
C106 C107 1.297 1_655 S
C106 H120 0.950 . S
C107 C106 1.297 1_455 S
C107 C108 1.479 . S
C107 H121 0.950 . S
C108 C107 1.479 . S
C108 C109 1.375 . S
C108 C114 1.404 1_455 S
C109 C108 1.375 . S
C109 C110 1.369 . S
C109 H122 0.950 . S
C110 C109 1.369 . S
C110 C111 1.392 . S
C110 H123 0.951 . S
C111 C110 1.392 . S
C111 C113 1.384 1_455 S
H112 C114 0.949 . S
C113 C111 1.384 1_655 S
C113 C114 1.385 . S
C113 H115 0.950 . S
C114 C108 1.404 1_655 S
C114 H112 0.949 . S
C114 C113 1.385 . S
H115 C113 0.950 . S
H116 C100 0.951 . S
H117 C102 0.951 . S
H118 C104 0.951 . S
H119 C105 0.950 . S
H120 C106 0.950 . S
H121 C107 0.950 . S
H122 C109 0.950 . S
H123 C110 0.951 . S
C124 C125 1.386 1_565 S
C124 C126 1.383 . S
C124 H140 0.951 . S
C125 C124 1.386 1_545 S
C125 C129 1.383 . S
C126 C124 1.383 . S
C126 C127 1.402 1_565 S
C126 H141 0.951 . S
C127 C126 1.402 1_545 S
C127 C128 1.375 . S
C127 C130 1.481 . S
C128 C127 1.375 . S
C128 C129 1.367 . S
C128 H142 0.951 . S
C129 C125 1.383 . S
C129 C128 1.367 . S
C129 H143 0.950 . S
C130 C127 1.481 . S
C130 C131 1.297 1_544 S
C130 H144 0.950 . S
C131 C130 1.297 1_566 S
C131 C132 1.479 1_565 S
C131 H145 0.950 . S
C132 C131 1.479 1_545 S
C132 C133 1.375 1_545 S
C132 C138 1.404 . S
C133 C132 1.375 1_565 S
C133 C134 1.369 . S
C133 H146 0.950 . S
C134 C133 1.369 . S
C134 C135 1.392 1_565 S
C134 H147 0.951 . S
C135 C134 1.392 1_545 S
C135 C137 1.384 . S
H136 C138 0.949 . S
C137 C135 1.384 . S
C137 C138 1.385 . S
C137 H139 0.950 . S
C138 C132 1.404 . S
C138 H136 0.949 . S
C138 C137 1.385 . S
H139 C137 0.950 . S
H140 C124 0.951 . S
H141 C126 0.951 . S
H142 C128 0.951 . S
H143 C129 0.950 . S
H144 C130 0.950 . S
H145 C131 0.950 . S
H146 C133 0.950 . S
H147 C134 0.951 . S
C148 C149 1.386 . S
C148 C150 1.383 . S
C148 H164 0.951 . S
C149 C148 1.386 . S
C149 C153 1.383 . S
C150 C148 1.383 . S
C150 C151 1.402 . S
C150 H165 0.951 . S
C151 C150 1.402 . S
C151 C152 1.375 . S
C151 C154 1.481 . S
C152 C151 1.375 . S
C152 C153 1.367 . S
C152 H166 0.951 . S
C153 C149 1.383 . S
C153 C152 1.367 . S
C153 H167 0.950 . S
C154 C151 1.481 . S
C154 C155 1.297 . S
C154 H168 0.950 . S
C155 C154 1.297 . S
C155 C156 1.479 . S
C155 H169 0.950 . S
C156 C155 1.479 . S
C156 C157 1.375 . S
C156 C162 1.404 . S
C157 C156 1.375 . S
C157 C158 1.369 . S
C157 H170 0.950 . S
C158 C157 1.369 . S
C158 C159 1.392 . S
C158 H171 0.951 . S
C159 C158 1.392 . S
C159 C161 1.384 . S
H160 C162 0.949 . S
C161 C159 1.384 . S
C161 C162 1.385 . S
C161 H163 0.950 . S
C162 C156 1.404 . S
C162 H160 0.949 . S
C162 C161 1.385 . S
H163 C161 0.950 . S
H164 C148 0.951 . S
H165 C150 0.951 . S
H166 C152 0.951 . S
H167 C153 0.950 . S
H168 C154 0.950 . S
H169 C155 0.950 . S
H170 C157 0.950 . S
H171 C158 0.951 . S
C172 C173 1.386 . S
C172 C174 1.383 . S
C172 H188 0.951 . S
C173 C172 1.386 . S
C173 C177 1.383 . S
C174 C172 1.383 . S
C174 C175 1.402 . S
C174 H189 0.951 . S
C175 C174 1.402 . S
C175 C176 1.375 . S
C175 C178 1.481 . S
C176 C175 1.375 . S
C176 C177 1.367 . S
C176 H190 0.951 . S
C177 C173 1.383 . S
C177 C176 1.367 . S
C177 H191 0.950 . S
C178 C175 1.481 . S
C178 C179 1.297 . S
C178 H192 0.950 . S
C179 C178 1.297 . S
C179 C180 1.479 . S
C179 H193 0.950 . S
C180 C179 1.479 . S
C180 C181 1.375 . S
C180 C186 1.404 . S
C181 C180 1.375 . S
C181 C182 1.369 . S
C181 H194 0.950 . S
C182 C181 1.369 . S
C182 C183 1.392 . S
C182 H195 0.951 . S
C183 C182 1.392 . S
C183 C185 1.384 . S
H184 C186 0.949 . S
C185 C183 1.384 . S
C185 C186 1.385 . S
C185 H187 0.950 . S
C186 C180 1.404 . S
C186 H184 0.949 . S
C186 C185 1.385 . S
H187 C185 0.950 . S
H188 C172 0.951 . S
H189 C174 0.951 . S
H190 C176 0.951 . S
H191 C177 0.950 . S
H192 C178 0.950 . S
H193 C179 0.950 . S
H194 C181 0.950 . S
H195 C182 0.951 . S
C196 C197 1.386 . S
C196 C198 1.383 . S
C196 H212 0.951 . S
C197 C196 1.386 . S
C197 C201 1.383 . S
C198 C196 1.383 . S
C198 C199 1.402 . S
C198 H213 0.951 . S
C199 C198 1.402 . S
C199 C200 1.375 . S
C199 C202 1.481 . S
C200 C199 1.375 . S
C200 C201 1.367 . S
C200 H214 0.951 . S
C201 C197 1.383 . S
C201 C200 1.367 . S
C201 H215 0.950 . S
C202 C199 1.481 . S
C202 C203 1.297 . S
C202 H216 0.950 . S
C203 C202 1.297 . S
C203 C204 1.479 . S
C203 H217 0.950 . S
C204 C203 1.479 . S
C204 C205 1.375 . S
C204 C210 1.404 . S
C205 C204 1.375 . S
C205 C206 1.369 . S
C205 H218 0.950 . S
C206 C205 1.369 . S
C206 C207 1.392 . S
C206 H219 0.951 . S
C207 C206 1.392 . S
C207 C209 1.384 . S
H208 C210 0.949 . S
C209 C207 1.384 . S
C209 C210 1.385 . S
C209 H211 0.950 . S
C210 C204 1.404 . S
C210 H208 0.949 . S
C210 C209 1.385 . S
H211 C209 0.950 . S
H212 C196 0.951 . S
H213 C198 0.951 . S
H214 C200 0.951 . S
H215 C201 0.950 . S
H216 C202 0.950 . S
H217 C203 0.950 . S
H218 C205 0.950 . S
H219 C206 0.951 . S
C220 C221 1.386 . S
C220 C222 1.383 . S
C220 H236 0.951 . S
C221 C220 1.386 . S
C221 C225 1.383 . S
C222 C220 1.383 . S
C222 C223 1.402 . S
C222 H237 0.951 . S
C223 C222 1.402 . S
C223 C224 1.375 . S
C223 C226 1.481 . S
C224 C223 1.375 . S
C224 C225 1.367 . S
C224 H238 0.951 . S
C225 C221 1.383 . S
C225 C224 1.367 . S
C225 H239 0.950 . S
C226 C223 1.481 . S
C226 C227 1.297 . S
C226 H240 0.950 . S
C227 C226 1.297 . S
C227 C228 1.479 . S
C227 H241 0.950 . S
C228 C227 1.479 . S
C228 C229 1.375 . S
C228 C234 1.404 . S
C229 C228 1.375 . S
C229 C230 1.369 . S
C229 H242 0.950 . S
C230 C229 1.369 . S
C230 C231 1.392 . S
C230 H243 0.951 . S
C231 C230 1.392 . S
C231 C233 1.384 . S
H232 C234 0.949 . S
C233 C231 1.384 . S
C233 C234 1.385 . S
C233 H235 0.950 1_556 S
C234 C228 1.404 . S
C234 H232 0.949 . S
C234 C233 1.385 . S
H235 C233 0.950 1_554 S
H236 C220 0.951 . S
H237 C222 0.951 . S
H238 C224 0.951 . S
H239 C225 0.950 . S
H240 C226 0.950 . S
H241 C227 0.950 . S
H242 C229 0.950 . S
H243 C230 0.951 . S
C53 C5 1.459 1_655 S
C63 C31 1.436 . S
C77 C16 1.457 1_565 S
C87 C42 1.441 1_565 S
C101 C3 1.449 . S
C111 C29 1.456 . S
C125 C18 1.458 . S
C135 C44 1.440 . S
C149 C23 1.559 . S
C159 C10 1.547 . S
C173 C17 1.557 . S
C183 C36 1.546 . S
C197 C43 1.559 . S
C207 C30 1.550 . S
C221 C49 1.557 . S
C231 C4 1.558 . S
