# Generated by pormake.
# Topology qtz, (4)-cn, num edge types: 1
# Building blocks:
#     Node 0, Type 0, BuildingBlock: GALJAG_clean_sbu_0, # of connection points: 4
#     Node 1, Type 0, BuildingBlock: GALJAG_clean_sbu_0, # of connection points: 4
#     Node 2, Type 0, BuildingBlock: GALJAG_clean_sbu_0, # of connection points: 4
#     Edge 3, Type (0, 0), BuildingBlock: XUDNAN_clean_linker_2, # of connection points: 2
#     Edge 4, Type (0, 0), BuildingBlock: XUDNAN_clean_linker_2, # of connection points: 2
#     Edge 5, Type (0, 0), BuildingBlock: XUDNAN_clean_linker_2, # of connection points: 2
#     Edge 6, Type (0, 0), BuildingBlock: XUDNAN_clean_linker_2, # of connection points: 2
#     Edge 7, Type (0, 0), BuildingBlock: XUDNAN_clean_linker_2, # of connection points: 2
#     Edge 8, Type (0, 0), BuildingBlock: XUDNAN_clean_linker_2, # of connection points: 2
# Relax obj value: 0.004
# Max RMSD: 0.037
# Mean RMSD: 0.037
data_MOF--net-qtz--node1-GALJAG_clean_sbu_0--edge1-XUDNAN_clean_linker_2
_symmetry_space_group_name_H-M    P1
_symmetry_Int_Tables_number       1
_symmetry_cell_setting            triclinic
loop_
_symmetry_equiv_pos_as_xyz
'x, y, z'
_cell_length_a     24.607152
_cell_length_b     24.640855
_cell_length_c     26.074434
_cell_angle_alpha  90.018306
_cell_angle_beta   90.317248
_cell_angle_gamma 120.30492
loop_
_atom_site_label
_atom_site_type_symbol
_atom_site_fract_x
_atom_site_fract_y
_atom_site_fract_z
_atom_type_partial_charge
In0 In 0.01212 0.49683 0.17813 0.0
O1 O 0.9231 0.40388 0.1968 0.0
O2 O 1.00011 0.43642 0.24857 0.0
C3 C 0.08365 0.47098 0.11561 0.0
C4 C 0.94588 0.52873 0.11382 0.0
C5 C 0.07859 0.59398 0.24375 0.0
O6 O 0.02933 0.4291 0.12938 0.0
O7 O 0.10099 0.52507 0.1329 0.0
O8 O 0.02407 0.57916 0.2284 0.0
O9 O 0.09865 0.55969 0.22648 0.0
C10 C 0.94433 0.39471 0.23795 0.0
O11 O 0.92396 0.50063 0.15564 0.0
O12 O 1.00153 0.54192 0.10497 0.0
In13 In 0.50803 0.01347 0.50975 0.0
O14 O 0.61412 0.05703 0.49768 0.0
O15 O 0.56013 0.06053 0.43568 0.0
C16 C 0.52564 0.94426 0.58136 0.0
C17 C 0.49017 0.10409 0.55082 0.0
C18 C 0.40332 0.9312 0.45726 0.0
O19 O 0.49223 0.9203 0.54177 0.0
O20 O 0.55037 1.00313 0.58479 0.0
O21 O 0.40279 0.96734 0.49133 0.0
O22 O 0.45649 0.93667 0.44974 0.0
C23 C 0.61387 0.07497 0.45251 0.0
O24 O 0.47941 0.05561 0.57538 0.0
O25 O 0.50836 0.106 0.50543 0.0
In26 In 0.51986 0.51832 0.84364 0.0
O27 O 0.56639 0.62507 0.83669 0.0
O28 O 0.4908 0.56838 0.78581 0.0
C29 C 0.62417 0.53624 0.89448 0.0
C30 C 0.41712 0.48419 0.90231 0.0
C31 C 0.5064 0.43514 0.76987 0.0
O32 O 0.62596 0.55813 0.85046 0.0
O33 O 0.56972 0.50523 0.91311 0.0
O34 O 0.49722 0.42035 0.81668 0.0
O35 O 0.5223 0.4914 0.76062 0.0
C36 C 0.53159 0.62306 0.80008 0.0
O37 O 0.41844 0.44895 0.86789 0.0
O38 O 0.46766 0.53588 0.90758 0.0
H39 H 0.40015 0.55988 0.96868 0.0
H40 H 0.30581 0.37174 0.90394 0.0
H41 H 0.2099 0.34613 0.953 0.0
H42 H 0.33165 0.51806 0.09502 0.0
H43 H 0.32521 0.58746 0.10122 0.0
H44 H 0.38664 0.58944 0.06261 0.0
H45 H 0.34876 0.6273 0.98471 0.0
H46 H 0.28713 0.62527 0.02303 0.0
H47 H 0.26792 0.5816 0.96374 0.0
H48 H 0.12354 0.34226 0.00892 0.0
H49 H 0.05405 0.36129 0.06538 0.0
H50 H 0.20568 0.55278 0.09071 0.0
C51 C 0.35952 0.51308 0.96513 0.0
C52 C 0.36041 0.46764 0.93276 0.0
C53 C 0.30608 0.40718 0.9287 0.0
C54 C 0.25148 0.39223 0.95641 0.0
C55 C 0.25205 0.43838 0.98776 0.0
C56 C 0.30472 0.49761 0.99213 0.0
C57 C 0.29292 0.53951 0.02709 0.0
C58 C 0.3367 0.55979 0.07428 0.0
C59 C 0.29956 0.59679 0.99788 0.0
C60 C 0.22529 0.49477 0.04166 0.0
C61 C 0.20247 0.43652 0.01891 0.0
C62 C 0.14097 0.38771 0.02693 0.0
C63 C 0.10187 0.39889 0.05899 0.0
C64 C 0.12446 0.45849 0.08224 0.0
C65 C 0.18698 0.50676 0.07335 0.0
H66 H 0.81778 0.31145 0.23128 0.0
H67 H 0.98358 0.35899 0.32315 0.0
H68 H 0.91767 0.27479 0.38431 0.0
H69 H 0.71745 0.28619 0.33426 0.0
H70 H 0.64853 0.22185 0.30484 0.0
H71 H 0.70953 0.28067 0.26538 0.0
H72 H 0.71981 0.19413 0.21748 0.0
H73 H 0.65867 0.1349 0.25683 0.0
H74 H 0.73439 0.1403 0.25355 0.0
H75 H 0.83271 0.19097 0.43869 0.0
H76 H 0.73493 0.11608 0.48344 0.0
H77 H 0.62453 0.12457 0.35663 0.0
C78 C 0.84039 0.30332 0.26374 0.0
C79 C 0.90583 0.34136 0.27234 0.0
C80 C 0.93354 0.33013 0.31575 0.0
C81 C 0.89652 0.28233 0.35059 0.0
C82 C 0.83193 0.24623 0.34141 0.0
C83 C 0.80409 0.25613 0.29902 0.0
C84 C 0.73321 0.21398 0.29991 0.0
C85 C 0.70027 0.25302 0.3012 0.0
C86 C 0.71018 0.1681 0.25423 0.0
C87 C 0.72535 0.17985 0.35003 0.0
C88 C 0.7829 0.19851 0.37307 0.0
C89 C 0.78743 0.17551 0.42076 0.0
C90 C 0.73165 0.13301 0.44588 0.0
C91 C 0.67221 0.11435 0.42341 0.0
C92 C 0.6693 0.13749 0.37453 0.0
H93 H 0.47083 0.81622 0.58462 0.0
H94 H 0.60116 0.98673 0.66665 0.0
H95 H 0.61669 0.92317 0.73218 0.0
H96 H 0.39783 0.72155 0.69598 0.0
H97 H 0.38982 0.65099 0.66791 0.0
H98 H 0.38945 0.71003 0.62747 0.0
H99 H 0.48171 0.7167 0.57489 0.0
H100 H 0.48234 0.65764 0.61515 0.0
H101 H 0.55314 0.73271 0.60748 0.0
H102 H 0.61909 0.84067 0.78801 0.0
H103 H 0.60656 0.74537 0.83069 0.0
H104 H 0.47296 0.62929 0.71279 0.0
C105 C 0.50266 0.8402 0.61636 0.0
C106 C 0.53491 0.90638 0.62058 0.0
C107 C 0.57602 0.93603 0.66272 0.0
C108 C 0.58514 0.90036 0.70009 0.0
C109 C 0.55261 0.83514 0.69478 0.0
C110 C 0.51208 0.80535 0.65405 0.0
C111 C 0.48259 0.73469 0.65732 0.0
C112 C 0.41066 0.70244 0.66249 0.0
C113 C 0.50107 0.70894 0.61096 0.0
C114 C 0.51288 0.72933 0.70625 0.0
C115 C 0.55329 0.78777 0.72722 0.0
C116 C 0.58741 0.79466 0.77203 0.0
C117 C 0.58004 0.74034 0.79596 0.0
C118 C 0.53865 0.68006 0.77514 0.0
C119 C 0.50464 0.67474 0.72979 0.0
H120 H 0.63171 0.49142 0.98905 0.0
H121 H 0.74554 0.60202 0.86093 0.0
H122 H 0.84098 0.61613 0.90496 0.0
H123 H 0.74501 0.58151 0.08954 0.0
H124 H 0.72605 0.51314 0.12752 0.0
H125 H 0.66691 0.51363 0.08678 0.0
H126 H 0.64918 0.41221 0.04159 0.0
H127 H 0.70815 0.41137 0.0822 0.0
H128 H 0.71521 0.41077 0.01346 0.0
H129 H 0.92336 0.61462 0.96118 0.0
H130 H 0.98697 0.59744 0.02577 0.0
H131 H 0.81987 0.48892 0.11782 0.0
C132 C 0.67678 0.51895 0.97043 0.0
C133 C 0.68128 0.54572 0.9216 0.0
C134 C 0.74103 0.58115 0.89836 0.0
C135 C 0.79551 0.5895 0.92309 0.0
C136 C 0.78945 0.56228 0.9711 0.0
C137 C 0.73165 0.5278 0.9946 0.0
C138 C 0.73794 0.50216 0.04572 0.0
C139 C 0.71779 0.52925 0.09001 0.0
C140 C 0.7004 0.42985 0.04571 0.0
C141 C 0.8082 0.5271 0.04705 0.0
C142 C 0.83705 0.5618 1.0037 0.0
C143 C 0.90138 0.58793 0.99546 0.0
C144 C 0.9371 0.57791 0.03233 0.0
C145 C 0.90843 0.54217 0.07688 0.0
C146 C 0.84321 0.51699 0.08439 0.0
H147 H 0.39073 0.83782 0.39317 0.0
H148 H 0.28707 0.92091 0.45742 0.0
H149 H 0.19183 0.84389 0.40948 0.0
H150 H 0.31997 0.80463 0.26793 0.0
H151 H 0.3186 0.7311 0.26165 0.0
H152 H 0.37824 0.79325 0.30055 0.0
H153 H 0.34518 0.71785 0.37832 0.0
H154 H 0.28542 0.65547 0.33967 0.0
H155 H 0.26432 0.67773 0.39887 0.0
H156 H 0.10807 0.75778 0.3529 0.0
H157 H 0.04251 0.66812 0.29488 0.0
H158 H 0.20151 0.64097 0.27064 0.0
C159 C 0.34806 0.83997 0.39707 0.0
C160 C 0.34625 0.88543 0.42881 0.0
C161 C 0.2894 0.88641 0.43323 0.0
C162 C 0.23516 0.84293 0.40614 0.0
C163 C 0.23855 0.79863 0.37513 0.0
C164 C 0.29354 0.79674 0.37072 0.0
C165 C 0.28482 0.74397 0.33566 0.0
C166 C 0.32796 0.7698 0.28866 0.0
C167 C 0.29556 0.69592 0.36489 0.0
C168 C 0.21639 0.71653 0.32079 0.0
C169 C 0.19042 0.74871 0.3437 0.0
C170 C 0.1279 0.73212 0.33493 0.0
C171 C 0.09105 0.68125 0.30194 0.0
C172 C 0.11687 0.64752 0.2785 0.0
C173 C 0.18031 0.6656 0.28823 0.0
H174 H 0.48112 0.31359 0.78028 0.0
H175 H 0.51766 0.45692 0.66696 0.0
H176 H 0.51034 0.38482 0.59808 0.0
H177 H 0.57221 0.25667 0.72161 0.0
H178 H 0.51927 0.17541 0.73737 0.0
H179 H 0.5231 0.23666 0.77757 0.0
H180 H 0.40294 0.19029 0.76616 0.0
H181 H 0.39877 0.12888 0.72581 0.0
H182 H 0.3699 0.17859 0.70247 0.0
H183 H 0.50489 0.30002 0.54208 0.0
H184 H 0.50308 0.20808 0.50254 0.0
H185 H 0.46955 0.11914 0.65178 0.0
C186 C 0.48692 0.3295 0.74092 0.0
C187 C 0.49981 0.39076 0.7289 0.0
C188 C 0.50769 0.41014 0.67701 0.0
C189 C 0.50345 0.36949 0.63761 0.0
C190 C 0.49113 0.30957 0.65071 0.0
C191 C 0.48291 0.2895 0.70105 0.0
C192 C 0.47283 0.22366 0.70479 0.0
C193 C 0.52497 0.22311 0.73725 0.0
C194 C 0.4072 0.17764 0.72606 0.0
C195 C 0.47775 0.21036 0.6488 0.0
C196 C 0.48786 0.2604 0.61825 0.0
C197 C 0.49643 0.26028 0.5655 0.0
C198 C 0.49535 0.20789 0.54341 0.0
C199 C 0.48586 0.15643 0.57405 0.0
C200 C 0.47619 0.15751 0.62733 0.0
loop_
_geom_bond_atom_site_label_1
_geom_bond_atom_site_label_2
_geom_bond_distance
_geom_bond_site_symmetry_2
_ccdc_geom_bond_type
In0 O1 2.294 1_455 S
In0 O2 2.326 1_455 S
In0 O6 2.266 . S
In0 O7 2.326 . S
In0 O8 2.266 . S
In0 O9 2.326 . S
In0 O11 2.294 1_455 S
In0 O12 2.326 1_455 S
O1 In0 2.294 1_655 S
O1 C10 1.240 . S
O2 In0 2.326 1_655 S
O2 C10 1.252 . S
C3 O6 1.252 . S
C3 O7 1.260 . S
C4 O11 1.240 . S
C4 O12 1.252 . S
C5 O8 1.252 . S
C5 O9 1.260 . S
O6 In0 2.266 . S
O6 C3 1.252 . S
O7 In0 2.326 . S
O7 C3 1.260 . S
O8 In0 2.266 . S
O8 C5 1.252 . S
O9 In0 2.326 . S
O9 C5 1.260 . S
C10 O1 1.240 . S
C10 O2 1.252 . S
O11 In0 2.294 1_655 S
O11 C4 1.240 . S
O12 In0 2.326 1_655 S
O12 C4 1.252 . S
In13 O14 2.294 . S
In13 O15 2.326 . S
In13 O19 2.266 1_545 S
In13 O20 2.326 1_545 S
In13 O21 2.266 1_545 S
In13 O22 2.326 1_545 S
In13 O24 2.294 . S
In13 O25 2.326 . S
O14 In13 2.294 . S
O14 C23 1.240 . S
O15 In13 2.326 . S
O15 C23 1.252 . S
C16 O19 1.252 . S
C16 O20 1.260 . S
C17 O24 1.240 . S
C17 O25 1.252 . S
C18 O21 1.252 . S
C18 O22 1.260 . S
O19 In13 2.266 1_565 S
O19 C16 1.252 . S
O20 In13 2.326 1_565 S
O20 C16 1.260 . S
O21 In13 2.266 1_565 S
O21 C18 1.252 . S
O22 In13 2.326 1_565 S
O22 C18 1.260 . S
C23 O14 1.240 . S
C23 O15 1.252 . S
O24 In13 2.294 . S
O24 C17 1.240 . S
O25 In13 2.326 . S
O25 C17 1.252 . S
In26 O27 2.294 . S
In26 O28 2.326 . S
In26 O32 2.266 . S
In26 O33 2.326 . S
In26 O34 2.266 . S
In26 O35 2.326 . S
In26 O37 2.294 . S
In26 O38 2.326 . S
O27 In26 2.294 . S
O27 C36 1.240 . S
O28 In26 2.326 . S
O28 C36 1.252 . S
C29 O32 1.252 . S
C29 O33 1.260 . S
C30 O37 1.240 . S
C30 O38 1.252 . S
C31 O34 1.252 . S
C31 O35 1.260 . S
O32 In26 2.266 . S
O32 C29 1.252 . S
O33 In26 2.326 . S
O33 C29 1.260 . S
O34 In26 2.266 . S
O34 C31 1.252 . S
O35 In26 2.326 . S
O35 C31 1.260 . S
C36 O27 1.240 . S
C36 O28 1.252 . S
O37 In26 2.294 . S
O37 C30 1.240 . S
O38 In26 2.326 . S
O38 C30 1.252 . S
H39 C51 0.930 . S
H40 C53 0.930 . S
H41 C54 0.930 . S
H42 C58 0.959 . S
H43 C58 0.959 . S
H44 C58 0.961 . S
H45 C59 0.960 . S
H46 C59 0.961 1_554 S
H47 C59 0.959 . S
H48 C62 0.929 1_556 S
H49 C63 0.931 . S
H50 C65 0.930 . S
C51 H39 0.930 . S
C51 C52 1.399 . S
C51 C56 1.399 . S
C52 C51 1.399 . S
C52 C53 1.376 . S
C53 H40 0.930 . S
C53 C52 1.376 . S
C53 C54 1.388 . S
C54 H41 0.930 . S
C54 C53 1.388 . S
C54 C55 1.390 . S
C55 C54 1.390 . S
C55 C56 1.394 . S
C55 C61 1.465 1_556 S
C56 C51 1.399 . S
C56 C55 1.394 . S
C56 C57 1.516 1_556 S
C57 C56 1.516 1_554 S
C57 C58 1.502 . S
C57 C59 1.561 1_554 S
C57 C60 1.526 . S
C58 H42 0.959 . S
C58 H43 0.959 . S
C58 H44 0.961 . S
C58 C57 1.502 . S
C59 H45 0.960 . S
C59 H46 0.961 1_556 S
C59 H47 0.959 . S
C59 C57 1.561 1_556 S
C60 C57 1.526 . S
C60 C61 1.396 . S
C60 C65 1.390 . S
C61 C55 1.465 1_554 S
C61 C60 1.396 . S
C61 C62 1.399 . S
C62 H48 0.929 1_554 S
C62 C61 1.399 . S
C62 C63 1.385 . S
C63 H49 0.931 . S
C63 C62 1.385 . S
C63 C64 1.389 . S
C64 C63 1.389 . S
C64 C65 1.387 . S
C65 H50 0.930 . S
C65 C60 1.390 . S
C65 C64 1.387 . S
H66 C78 0.930 . S
H67 C80 0.930 . S
H68 C81 0.930 . S
H69 C85 0.959 . S
H70 C85 0.959 . S
H71 C85 0.961 . S
H72 C86 0.960 . S
H73 C86 0.961 . S
H74 C86 0.959 . S
H75 C89 0.929 . S
H76 C90 0.931 . S
H77 C92 0.930 . S
C78 H66 0.930 . S
C78 C79 1.399 . S
C78 C83 1.399 . S
C79 C78 1.399 . S
C79 C80 1.376 . S
C80 H67 0.930 . S
C80 C79 1.376 . S
C80 C81 1.388 . S
C81 H68 0.930 . S
C81 C80 1.388 . S
C81 C82 1.390 . S
C82 C81 1.390 . S
C82 C83 1.394 . S
C82 C88 1.465 . S
C83 C78 1.399 . S
C83 C82 1.394 . S
C83 C84 1.516 . S
C84 C83 1.516 . S
C84 C85 1.502 . S
C84 C86 1.561 . S
C84 C87 1.526 . S
C85 H69 0.959 . S
C85 H70 0.959 . S
C85 H71 0.961 . S
C85 C84 1.502 . S
C86 H72 0.960 . S
C86 H73 0.961 . S
C86 H74 0.959 . S
C86 C84 1.561 . S
C87 C84 1.526 . S
C87 C88 1.396 . S
C87 C92 1.390 . S
C88 C82 1.465 . S
C88 C87 1.396 . S
C88 C89 1.399 . S
C89 H75 0.929 . S
C89 C88 1.399 . S
C89 C90 1.385 . S
C90 H76 0.931 . S
C90 C89 1.385 . S
C90 C91 1.389 . S
C91 C90 1.389 . S
C91 C92 1.387 . S
C92 H77 0.930 . S
C92 C87 1.390 . S
C92 C91 1.387 . S
H93 C105 0.930 . S
H94 C107 0.930 . S
H95 C108 0.930 . S
H96 C112 0.959 . S
H97 C112 0.959 . S
H98 C112 0.961 . S
H99 C113 0.960 . S
H100 C113 0.961 . S
H101 C113 0.959 . S
H102 C116 0.929 . S
H103 C117 0.931 . S
H104 C119 0.930 . S
C105 H93 0.930 . S
C105 C106 1.399 . S
C105 C110 1.399 . S
C106 C105 1.399 . S
C106 C107 1.376 . S
C107 H94 0.930 . S
C107 C106 1.376 . S
C107 C108 1.388 . S
C108 H95 0.930 . S
C108 C107 1.388 . S
C108 C109 1.390 . S
C109 C108 1.390 . S
C109 C110 1.394 . S
C109 C115 1.465 . S
C110 C105 1.399 . S
C110 C109 1.394 . S
C110 C111 1.516 . S
C111 C110 1.516 . S
C111 C112 1.502 . S
C111 C113 1.561 . S
C111 C114 1.526 . S
C112 H96 0.959 . S
C112 H97 0.959 . S
C112 H98 0.961 . S
C112 C111 1.502 . S
C113 H99 0.960 . S
C113 H100 0.961 . S
C113 H101 0.959 . S
C113 C111 1.561 . S
C114 C111 1.526 . S
C114 C115 1.396 . S
C114 C119 1.390 . S
C115 C109 1.465 . S
C115 C114 1.396 . S
C115 C116 1.399 . S
C116 H102 0.929 . S
C116 C115 1.399 . S
C116 C117 1.385 . S
C117 H103 0.931 . S
C117 C116 1.385 . S
C117 C118 1.389 . S
C118 C117 1.389 . S
C118 C119 1.387 . S
C119 H104 0.930 . S
C119 C114 1.390 . S
C119 C118 1.387 . S
H120 C132 0.930 . S
H121 C134 0.930 . S
H122 C135 0.930 . S
H123 C139 0.959 . S
H124 C139 0.959 . S
H125 C139 0.961 . S
H126 C140 0.960 . S
H127 C140 0.961 . S
H128 C140 0.959 . S
H129 C143 0.929 . S
H130 C144 0.931 . S
H131 C146 0.930 . S
C132 H120 0.930 . S
C132 C133 1.399 . S
C132 C137 1.399 . S
C133 C132 1.399 . S
C133 C134 1.376 . S
C134 H121 0.930 . S
C134 C133 1.376 . S
C134 C135 1.388 . S
C135 H122 0.930 . S
C135 C134 1.388 . S
C135 C136 1.390 . S
C136 C135 1.390 . S
C136 C137 1.394 . S
C136 C142 1.465 . S
C137 C132 1.399 . S
C137 C136 1.394 . S
C137 C138 1.516 1_556 S
C138 C137 1.516 1_554 S
C138 C139 1.502 . S
C138 C140 1.561 . S
C138 C141 1.526 . S
C139 H123 0.959 . S
C139 H124 0.959 . S
C139 H125 0.961 . S
C139 C138 1.502 . S
C140 H126 0.960 . S
C140 H127 0.961 . S
C140 H128 0.959 . S
C140 C138 1.561 . S
C141 C138 1.526 . S
C141 C142 1.396 1_554 S
C141 C146 1.390 . S
C142 C136 1.465 . S
C142 C141 1.396 1_556 S
C142 C143 1.399 . S
C143 H129 0.929 . S
C143 C142 1.399 . S
C143 C144 1.385 1_556 S
C144 H130 0.931 . S
C144 C143 1.385 1_554 S
C144 C145 1.389 . S
C145 C144 1.389 . S
C145 C146 1.387 . S
C146 H131 0.930 . S
C146 C141 1.390 . S
C146 C145 1.387 . S
H147 C159 0.930 . S
H148 C161 0.930 . S
H149 C162 0.930 . S
H150 C166 0.959 . S
H151 C166 0.959 . S
H152 C166 0.961 . S
H153 C167 0.960 . S
H154 C167 0.961 . S
H155 C167 0.959 . S
H156 C170 0.929 . S
H157 C171 0.931 . S
H158 C173 0.930 . S
C159 H147 0.930 . S
C159 C160 1.399 . S
C159 C164 1.399 . S
C160 C159 1.399 . S
C160 C161 1.376 . S
C161 H148 0.930 . S
C161 C160 1.376 . S
C161 C162 1.388 . S
C162 H149 0.930 . S
C162 C161 1.388 . S
C162 C163 1.390 . S
C163 C162 1.390 . S
C163 C164 1.394 . S
C163 C169 1.465 . S
C164 C159 1.399 . S
C164 C163 1.394 . S
C164 C165 1.516 . S
C165 C164 1.516 . S
C165 C166 1.502 . S
C165 C167 1.561 . S
C165 C168 1.526 . S
C166 H150 0.959 . S
C166 H151 0.959 . S
C166 H152 0.961 . S
C166 C165 1.502 . S
C167 H153 0.960 . S
C167 H154 0.961 . S
C167 H155 0.959 . S
C167 C165 1.561 . S
C168 C165 1.526 . S
C168 C169 1.396 . S
C168 C173 1.390 . S
C169 C163 1.465 . S
C169 C168 1.396 . S
C169 C170 1.399 . S
C170 H156 0.929 . S
C170 C169 1.399 . S
C170 C171 1.385 . S
C171 H157 0.931 . S
C171 C170 1.385 . S
C171 C172 1.389 . S
C172 C171 1.389 . S
C172 C173 1.387 . S
C173 H158 0.930 . S
C173 C168 1.390 . S
C173 C172 1.387 . S
H174 C186 0.930 . S
H175 C188 0.930 . S
H176 C189 0.930 . S
H177 C193 0.959 . S
H178 C193 0.959 . S
H179 C193 0.961 . S
H180 C194 0.960 . S
H181 C194 0.961 . S
H182 C194 0.959 . S
H183 C197 0.929 . S
H184 C198 0.931 . S
H185 C200 0.930 . S
C186 H174 0.930 . S
C186 C187 1.399 . S
C186 C191 1.399 . S
C187 C186 1.399 . S
C187 C188 1.376 . S
C188 H175 0.930 . S
C188 C187 1.376 . S
C188 C189 1.388 . S
C189 H176 0.930 . S
C189 C188 1.388 . S
C189 C190 1.390 . S
C190 C189 1.390 . S
C190 C191 1.394 . S
C190 C196 1.465 . S
C191 C186 1.399 . S
C191 C190 1.394 . S
C191 C192 1.516 . S
C192 C191 1.516 . S
C192 C193 1.502 . S
C192 C194 1.561 . S
C192 C195 1.526 . S
C193 H177 0.959 . S
C193 H178 0.959 . S
C193 H179 0.961 . S
C193 C192 1.502 . S
C194 H180 0.960 . S
C194 H181 0.961 . S
C194 H182 0.959 . S
C194 C192 1.561 . S
C195 C192 1.526 . S
C195 C196 1.396 . S
C195 C200 1.390 . S
C196 C190 1.465 . S
C196 C195 1.396 . S
C196 C197 1.399 . S
C197 H183 0.929 . S
C197 C196 1.399 . S
C197 C198 1.385 . S
C198 H184 0.931 . S
C198 C197 1.385 . S
C198 C199 1.389 . S
C199 C198 1.389 . S
C199 C200 1.387 . S
C200 H185 0.930 . S
C200 C195 1.390 . S
C200 C199 1.387 . S
C52 C30 1.537 . S
C64 C3 1.542 . S
C79 C10 1.538 . S
C91 C23 1.531 . S
C106 C16 1.542 . S
C118 C36 1.537 . S
C133 C29 1.539 . S
C145 C4 1.544 . S
C160 C18 1.547 . S
C172 C5 1.546 . S
C187 C31 1.541 . S
C199 C17 1.536 . S
