# Generated by pormake.
# Topology pcu, (6)-cn, num edge types: 1
# Building blocks:
#     Node 0, Type 0, BuildingBlock: KUMBUR_clean_sbu_1, # of connection points: 6
#     Edge 1, Type (0, 0), BuildingBlock: MIFKUJ_clean_linker_0, # of connection points: 2
#     Edge 2, Type (0, 0), BuildingBlock: MIFKUJ_clean_linker_0, # of connection points: 2
#     Edge 3, Type (0, 0), BuildingBlock: MIFKUJ_clean_linker_0, # of connection points: 2
# Relax obj value: 0.000
# Max RMSD: 0.000
# Mean RMSD: 0.000
data_MOF--net-pcu--node1-KUMBUR_clean_sbu_1--edge1-MIFKUJ_clean_linker_0
_symmetry_space_group_name_H-M    P1
_symmetry_Int_Tables_number       1
_symmetry_cell_setting            triclinic
loop_
_symmetry_equiv_pos_as_xyz
'x, y, z'
_cell_length_a     19.294458
_cell_length_b     29.241175
_cell_length_c     19.286383
_cell_angle_alpha  113.84325
_cell_angle_beta   89.197556
_cell_angle_gamma 115.42951
loop_
_atom_site_label
_atom_site_type_symbol
_atom_site_fract_x
_atom_site_fract_y
_atom_site_fract_z
_atom_type_partial_charge
Tb0 Tb 0.97061 0.92511 0.95505 0.0
C1 C 0.23095 0.17603 0.14476 0.0
N2 N 0.15672 0.15168 0.15612 0.0
C3 C 0.20298 0.20042 0.29328 0.0
C4 C 0.29458 0.21296 0.20756 0.0
C5 C 0.14177 0.16399 0.22918 0.0
C6 C 0.27981 0.22468 0.28251 0.0
C7 C 0.31893 0.18866 0.05532 0.0
C8 C 0.24308 0.16377 0.06959 0.0
C9 C 0.3826 0.22537 0.1177 0.0
C10 C 0.37051 0.2373 0.19359 0.0
Tb11 Tb 0.06231 0.09411 0.04678 0.0
N12 N 0.1803 0.12662 0.01045 0.0
C13 C 0.32827 0.17627 0.97883 0.0
C14 C 0.18879 0.11606 0.93605 0.0
C15 C 0.26289 0.14001 0.91899 0.0
H16 H 0.08247 0.14727 0.23834 0.0
H17 H 0.26938 0.13122 0.8598 0.0
H18 H 0.95058 0.87193 0.76349 0.0
H19 H 0.7634 0.88798 0.14189 0.0
H20 H 0.1388 0.09039 0.88981 0.0
H21 H 0.38528 0.19543 0.96548 0.0
H22 H 0.89402 0.92883 0.11195 0.0
H23 H 0.19065 0.21042 0.35094 0.0
H24 H 0.44135 0.24498 0.10797 0.0
H25 H 0.4202 0.26579 0.24109 0.0
H26 H 0.84246 0.80877 0.65083 0.0
H27 H 0.32705 0.25301 0.33239 0.0
H28 H 0.64755 0.82374 0.03614 0.0
N29 N 0.87626 0.86751 0.84566 0.0
C30 C 0.80201 0.84316 0.85697 0.0
C31 C 0.83009 0.81876 0.70848 0.0
C32 C 0.73842 0.80622 0.79413 0.0
C33 C 0.89126 0.8552 0.77262 0.0
C34 C 0.75324 0.7945 0.7192 0.0
N35 N 0.85258 0.89256 0.99129 0.0
C36 C 0.84404 0.90315 0.06569 0.0
C37 C 0.71397 0.83052 0.94635 0.0
C38 C 0.78984 0.85541 0.93212 0.0
C39 C 0.70458 0.84292 0.02283 0.0
C40 C 0.76992 0.87918 0.0827 0.0
H41 H 0.70603 0.76617 0.6693 0.0
H42 H 0.6128 0.75339 0.76054 0.0
H43 H 0.59155 0.77419 0.89364 0.0
O44 O 0.99274 0.88266 0.01109 0.0
O45 O 0.89154 0.96199 0.95649 0.0
O46 O 0.94326 0.04954 0.0622 0.0
O47 O 0.96752 0.84679 0.88731 0.0
O48 O 0.03014 0.97732 0.07688 0.0
O49 O 1.01036 0.05625 0.12372 0.0
O50 O 0.04023 0.13661 0.99079 0.0
O51 O 0.14136 0.05722 0.04536 0.0
O52 O 0.08965 0.96969 0.93961 0.0
O53 O 0.06543 0.17244 0.11457 0.0
O54 O 1.00275 0.04191 0.92495 0.0
O55 O 0.02255 0.96298 0.87811 0.0
C56 C 0.88393 1.00425 0.0099 0.0
C57 C 0.04732 0.82298 0.94253 0.0
C58 C 0.09018 0.75758 0.9516 0.0
C59 C 0.16042 0.7853 0.92976 0.0
C60 C 0.11747 0.84962 0.92077 0.0
C61 C 0.17394 0.83112 0.91495 0.0
C62 C 0.0341 0.77738 0.95849 0.0
C63 C 0.02305 0.01834 0.13377 0.0
C64 C 0.98635 0.84105 0.94659 0.0
C65 C 0.66246 0.78188 0.80806 0.0
C66 C 0.65032 0.79381 0.88394 0.0
C67 C 0.14898 0.01497 0.99192 0.0
C68 C 0.98566 0.19629 0.0594 0.0
C69 C 0.94282 0.2617 0.05035 0.0
C70 C 0.87258 0.23399 0.07219 0.0
C71 C 0.91552 0.16965 0.08116 0.0
C72 C 0.99889 0.2419 0.04344 0.0
C73 C 0.85905 0.18816 0.087 0.0
C74 C 1.00981 1.00087 0.86806 0.0
C75 C 0.04662 0.1782 0.05531 0.0
H76 H 0.20442 0.77094 0.92236 0.0
H77 H 0.12774 0.88411 0.90731 0.0
H78 H 0.2279 0.85182 0.89773 0.0
H79 H 0.98 0.75746 0.97621 0.0
H80 H 0.82859 0.24836 0.07961 0.0
H81 H 0.90524 0.13516 0.09461 0.0
H82 H 0.05299 0.26181 0.02573 0.0
H83 H 0.80509 0.16746 0.10422 0.0
H84 H 0.96963 0.07299 0.25643 0.0
H85 H 0.97019 0.0715 0.38228 0.0
H86 H 0.08319 0.96506 0.3118 0.0
H87 H 0.08308 0.96647 0.18606 0.0
H88 H 0.96107 0.92425 0.37498 0.0
H89 H 0.18551 0.10368 0.44414 0.0
H90 H 0.26059 0.20003 0.45579 0.0
H91 H 0.10261 0.24977 0.58724 0.0
H92 H 0.0265 0.15359 0.57627 0.0
H93 H 0.06324 0.94624 0.74538 0.0
H94 H 0.06261 0.94771 0.61952 0.0
H95 H 0.94953 0.05409 0.69001 0.0
H96 H 0.94969 0.0527 0.81576 0.0
H97 H 0.07166 0.09493 0.62683 0.0
H98 H 0.84726 0.91551 0.55772 0.0
H99 H 0.7722 0.81915 0.54608 0.0
H100 H 0.93012 0.76941 0.41453 0.0
H101 H 1.00622 0.86558 0.4255 0.0
C102 C 0.99592 0.05014 0.26824 0.0
C103 C 0.02698 0.02029 0.21154 0.0
C104 C 0.99608 0.04925 0.34016 0.0
C105 C 0.02737 0.01857 0.35667 0.0
C106 C 0.05879 0.98903 0.30029 0.0
C107 C 0.0587 0.98992 0.22848 0.0
C108 C 0.02413 0.01507 0.43134 0.0
C109 C 0.98629 0.96155 0.43008 0.0
C110 C 0.05513 0.06375 0.50316 0.0
C111 C 0.09987 0.1213 0.50867 0.0
C112 C 0.1664 0.13503 0.47495 0.0
C113 C 0.20932 0.18966 0.48172 0.0
C114 C 0.18619 0.23093 0.52193 0.0
C115 C 0.12034 0.21772 0.55591 0.0
C116 C 0.07743 0.1632 0.54964 0.0
C117 C 0.03691 0.96907 0.73357 0.0
C118 C 1.00584 0.99891 0.79028 0.0
C119 C 0.03671 0.96995 0.66165 0.0
C120 C 1.00539 1.00062 0.64514 0.0
C121 C 0.97396 0.03014 0.70152 0.0
C122 C 0.97408 0.02926 0.77334 0.0
C123 C 1.0086 1.00411 0.57047 0.0
C124 C 0.04644 0.05763 0.57173 0.0
C125 C 0.97761 0.95543 0.49865 0.0
C126 C 0.93287 0.89788 0.49314 0.0
C127 C 0.86637 0.88415 0.52689 0.0
C128 C 0.82345 0.82952 0.52013 0.0
C129 C 0.84657 0.78825 0.47989 0.0
C130 C 0.9124 0.80145 0.44588 0.0
C131 C 0.9553 0.85597 0.45215 0.0
H132 H 0.81337 0.74602 0.47493 0.0
H133 H 0.21939 0.27316 0.52689 0.0
H134 H 0.27744 0.08248 0.10896 0.0
H135 H 0.40473 0.08328 0.10876 0.0
H136 H 0.32652 0.95676 0.87168 0.0
H137 H 0.20034 0.95771 0.8702 0.0
H138 H 0.38587 0.92795 0.9716 0.0
H139 H 0.46629 0.07978 0.9006 0.0
H140 H 0.48868 0.17108 0.907 0.0
H141 H 0.62246 0.25702 0.13736 0.0
H142 H 0.60186 0.16612 0.13177 0.0
H143 H 0.75548 0.93673 0.89285 0.0
H144 H 0.62819 0.93594 0.89303 0.0
H145 H 0.70639 0.06248 0.1301 0.0
H146 H 0.83256 0.06152 0.1316 0.0
H147 H 0.64704 0.09128 0.03017 0.0
H148 H 0.56659 0.93945 0.10118 0.0
H149 H 0.54421 0.84814 0.09477 0.0
H150 H 0.41051 0.76221 0.86438 0.0
H151 H 0.43108 0.85311 0.86998 0.0
C152 C 0.28776 0.0556 0.0563 0.0
C153 C 0.22812 0.01902 0.99008 0.0
C154 C 0.36056 0.05611 0.05631 0.0
C155 C 0.37479 0.01979 0.99035 0.0
C156 C 0.31645 0.98481 0.92334 0.0
C157 C 0.2442 0.98505 0.92285 0.0
C158 C 0.4481 0.01514 0.99332 0.0
C159 C 0.44298 0.9634 0.98312 0.0
C160 C 0.5225 0.06182 0.01074 0.0
C161 C 0.53174 0.11617 0.0161 0.0
C162 C 0.49976 0.11809 0.95292 0.0
C163 C 0.51264 0.1698 0.95619 0.0
C164 C 0.5567 0.21981 0.02266 0.0
C165 C 0.58829 0.21824 0.08592 0.0
C166 C 0.57635 0.16667 0.08261 0.0
C167 C 0.74516 0.96362 0.94551 0.0
C168 C 0.80479 1.00021 0.01173 0.0
C169 C 0.67235 0.96311 0.94548 0.0
C170 C 0.65813 0.99944 0.01143 0.0
C171 C 0.71647 0.03443 0.07845 0.0
C172 C 0.78871 0.03418 0.07895 0.0
C173 C 0.58482 1.00409 0.00846 0.0
C174 C 0.58994 0.05583 0.01865 0.0
C175 C 0.51042 0.95741 0.99103 0.0
C176 C 0.50118 0.90306 0.98567 0.0
C177 C 0.53314 0.90113 0.04885 0.0
C178 C 0.52027 0.84943 0.04558 0.0
C179 C 0.47623 0.79941 0.97909 0.0
C180 C 0.44466 0.80099 0.91582 0.0
C181 C 0.45659 0.85256 0.91915 0.0
H182 H 0.4666 0.75944 0.9766 0.0
H183 H 0.56634 0.25979 0.02514 0.0
H184 H 0.95034 0.6623 0.91707 0.0
H185 H 0.92621 0.57982 0.93693 0.0
H186 H 0.17077 0.65443 0.03241 0.0
H187 H 0.19528 0.73836 0.01613 0.0
H188 H 0.10818 0.54123 0.91933 0.0
H189 H 0.05164 0.65205 0.15125 0.0
H190 H 0.98906 0.70811 0.22969 0.0
H191 H 0.76271 0.56486 0.12241 0.0
H192 H 0.82392 0.50811 0.04245 0.0
H193 H 0.08267 0.35698 0.08489 0.0
H194 H 0.1068 0.43947 0.06504 0.0
H195 H 0.86224 0.36488 0.96958 0.0
H196 H 0.83773 0.28094 0.98584 0.0
H197 H 0.92484 0.47807 0.08266 0.0
H198 H 0.98137 0.36726 0.85073 0.0
H199 H 0.04395 0.31119 0.77228 0.0
H200 H 0.27031 0.45443 0.87956 0.0
H201 H 0.2091 0.51119 0.95953 0.0
C202 C 0.99897 0.66193 0.94372 0.0
C203 C 0.07487 0.70746 0.96508 0.0
C204 C 0.98504 0.6144 0.95449 0.0
C205 C 0.04667 0.61102 0.98623 0.0
C206 C 0.12244 0.65607 0.00743 0.0
C207 C 0.13632 0.70395 0.99764 0.0
C208 C 0.03207 0.5601 0.99631 0.0
C209 C 0.06896 0.52783 0.95589 0.0
C210 C 0.97947 0.54195 0.04258 0.0
C211 C 0.94235 0.576 0.09019 0.0
C212 C 0.98847 0.63265 0.14377 0.0
C213 C 0.95327 0.66452 0.18865 0.0
C214 C 0.87195 0.64012 0.18087 0.0
C215 C 0.82569 0.58374 0.12827 0.0
C216 C 0.86062 0.55168 0.08319 0.0
C217 C 0.03404 0.35736 0.05824 0.0
C218 C 0.95813 0.31183 0.03689 0.0
C219 C 0.04797 0.40489 0.04748 0.0
C220 C 0.98634 0.40827 0.01575 0.0
C221 C 0.91057 0.36323 0.99455 0.0
C222 C 0.89669 0.31534 0.00434 0.0
C223 C 1.00095 0.4592 0.00568 0.0
C224 C 0.96406 0.49147 0.0461 0.0
C225 C 0.05356 0.47735 0.95941 0.0
C226 C 0.09067 0.4433 0.91179 0.0
C227 C 0.04454 0.38665 0.85821 0.0
C228 C 0.07975 0.35478 0.81332 0.0
C229 C 0.16106 0.37918 0.8211 0.0
C230 C 0.20733 0.43556 0.8737 0.0
C231 C 0.1724 0.46761 0.91879 0.0
H232 H 0.1882 0.35445 0.78622 0.0
H233 H 0.84481 0.66485 0.21575 0.0
loop_
_geom_bond_atom_site_label_1
_geom_bond_atom_site_label_2
_geom_bond_distance
_geom_bond_site_symmetry_2
_ccdc_geom_bond_type
Tb0 N29 2.617 . S
Tb0 N35 2.572 . S
Tb0 O44 2.465 . S
Tb0 O45 2.387 . S
Tb0 O47 2.428 . S
Tb0 O48 2.308 1_556 S
Tb0 O52 2.349 1_655 S
Tb0 O55 2.393 . S
Tb0 C64 2.802 . S
C1 N2 1.379 . S
C1 C4 1.416 . S
C1 C8 1.424 . S
N2 C1 1.379 . S
N2 C5 1.334 . S
N2 Tb11 2.617 . S
C3 C5 1.390 . S
C3 C6 1.339 . S
C3 H23 0.930 . S
C4 C1 1.416 . S
C4 C6 1.416 . S
C4 C10 1.448 . S
C5 N2 1.334 . S
C5 C3 1.390 . S
C5 H16 0.930 . S
C6 C3 1.339 . S
C6 C4 1.416 . S
C6 H27 0.930 . S
C7 C8 1.413 . S
C7 C9 1.427 . S
C7 C13 1.416 . S
C8 C1 1.424 . S
C8 C7 1.413 . S
C8 N12 1.361 . S
C9 C7 1.427 . S
C9 C10 1.328 . S
C9 H24 0.929 . S
C10 C4 1.448 . S
C10 C9 1.328 . S
C10 H25 0.930 . S
Tb11 N2 2.617 . S
Tb11 N12 2.572 . S
Tb11 O46 2.349 1_455 S
Tb11 O49 2.393 . S
Tb11 O50 2.465 . S
Tb11 O51 2.387 . S
Tb11 O53 2.428 . S
Tb11 O54 2.308 1_554 S
Tb11 C75 2.802 . S
N12 C8 1.361 . S
N12 Tb11 2.572 . S
N12 C14 1.340 1_554 S
C13 C7 1.416 . S
C13 C15 1.332 1_554 S
C13 H21 0.931 1_554 S
C14 N12 1.340 1_556 S
C14 C15 1.407 . S
C14 H20 0.930 . S
C15 C13 1.332 1_556 S
C15 C14 1.407 . S
C15 H17 0.929 . S
H16 C5 0.930 . S
H17 C15 0.929 . S
H18 C33 0.930 . S
H19 C40 0.929 . S
H20 C14 0.930 . S
H21 C13 0.931 1_556 S
H22 C36 0.930 . S
H23 C3 0.930 . S
H24 C9 0.929 . S
H25 C10 0.930 . S
H26 C31 0.930 . S
H27 C6 0.930 . S
H28 C39 0.931 1_554 S
N29 Tb0 2.617 . S
N29 C30 1.379 . S
N29 C33 1.334 . S
C30 N29 1.379 . S
C30 C32 1.416 . S
C30 C38 1.424 . S
C31 H26 0.930 . S
C31 C33 1.390 . S
C31 C34 1.339 . S
C32 C30 1.416 . S
C32 C34 1.416 . S
C32 C65 1.448 . S
C33 H18 0.930 . S
C33 N29 1.334 . S
C33 C31 1.390 . S
C34 C31 1.339 . S
C34 C32 1.416 . S
C34 H41 0.930 . S
N35 Tb0 2.572 . S
N35 C36 1.340 1_556 S
N35 C38 1.361 . S
C36 H22 0.930 . S
C36 N35 1.340 1_554 S
C36 C40 1.407 . S
C37 C38 1.413 . S
C37 C39 1.416 . S
C37 C66 1.427 . S
C38 C30 1.424 . S
C38 N35 1.361 . S
C38 C37 1.413 . S
C39 H28 0.931 1_556 S
C39 C37 1.416 . S
C39 C40 1.332 1_556 S
C40 H19 0.929 . S
C40 C36 1.407 . S
C40 C39 1.332 1_554 S
H41 C34 0.930 . S
H42 C65 0.930 . S
H43 C66 0.929 . S
O44 Tb0 2.465 . S
O44 C64 1.264 . S
O45 Tb0 2.387 . S
O45 C56 1.257 1_565 S
O46 Tb11 2.349 1_655 S
O46 C56 1.247 1_554 S
O47 Tb0 2.428 . S
O47 C64 1.256 . S
O48 Tb0 2.308 1_554 S
O48 C63 1.266 1_565 S
O49 Tb11 2.393 . S
O49 C63 1.248 1_455 S
O50 Tb11 2.465 . S
O50 C75 1.264 . S
O51 Tb11 2.387 . S
O51 C67 1.262 1_545 S
O52 Tb0 2.349 1_455 S
O52 C67 1.245 1_556 S
O53 Tb11 2.428 . S
O53 C75 1.256 . S
O54 Tb11 2.308 1_556 S
O54 C74 1.266 1_545 S
O55 Tb0 2.393 . S
O55 C74 1.248 1_655 S
C56 O45 1.257 1_545 S
C56 O46 1.247 1_556 S
C57 C60 1.399 . S
C57 C62 1.383 . S
C57 C64 1.496 . S
C58 C59 1.399 . S
C58 C62 1.389 . S
C59 C58 1.399 . S
C59 C61 1.380 . S
C59 H76 0.929 . S
C60 C57 1.399 . S
C60 C61 1.392 . S
C60 H77 0.929 . S
C61 C59 1.380 . S
C61 C60 1.392 . S
C61 H78 0.929 . S
C62 C57 1.383 . S
C62 C58 1.389 . S
C62 H79 0.931 1_556 S
C63 O48 1.266 1_545 S
C63 O49 1.248 1_655 S
C64 Tb0 2.802 . S
C64 O44 1.264 . S
C64 O47 1.256 . S
C64 C57 1.496 . S
C65 C32 1.448 . S
C65 H42 0.930 . S
C65 C66 1.328 . S
C66 C37 1.427 . S
C66 H43 0.929 . S
C66 C65 1.328 . S
C67 O51 1.262 1_565 S
C67 O52 1.245 1_554 S
C68 C71 1.399 . S
C68 C72 1.383 . S
C68 C75 1.496 . S
C69 C70 1.399 . S
C69 C72 1.389 . S
C70 C69 1.399 . S
C70 C73 1.380 . S
C70 H80 0.929 . S
C71 C68 1.399 . S
C71 C73 1.392 . S
C71 H81 0.929 . S
C72 C68 1.383 . S
C72 C69 1.389 . S
C72 H82 0.931 1_554 S
C73 C70 1.380 . S
C73 C71 1.392 . S
C73 H83 0.929 . S
C74 O54 1.266 1_565 S
C74 O55 1.248 1_455 S
C75 Tb11 2.802 . S
C75 O50 1.264 . S
C75 O53 1.256 . S
C75 C68 1.496 . S
H76 C59 0.929 . S
H77 C60 0.929 . S
H78 C61 0.929 . S
H79 C62 0.931 1_554 S
H80 C70 0.929 . S
H81 C71 0.929 . S
H82 C72 0.931 1_556 S
H83 C73 0.929 . S
H84 C102 0.951 . S
H85 C104 0.951 . S
H86 C106 0.950 . S
H87 C107 0.950 . S
H88 C109 0.950 . S
H89 C112 0.950 . S
H90 C113 0.950 . S
H91 C115 0.950 . S
H92 C116 0.950 . S
H93 C117 0.951 . S
H94 C119 0.951 . S
H95 C121 0.950 . S
H96 C122 0.950 . S
H97 C124 0.950 . S
H98 C127 0.950 . S
H99 C128 0.950 . S
H100 C130 0.950 . S
H101 C131 0.950 . S
C102 H84 0.951 . S
C102 C103 1.365 1_665 S
C102 C104 1.388 . S
C103 C102 1.365 1_445 S
C103 C107 1.385 . S
C104 H85 0.951 . S
C104 C102 1.388 . S
C104 C105 1.366 1_565 S
C105 C104 1.366 1_545 S
C105 C106 1.414 1_655 S
C105 C108 1.498 1_655 S
C106 H86 0.950 . S
C106 C105 1.414 1_455 S
C106 C107 1.374 . S
C107 H87 0.950 . S
C107 C103 1.385 . S
C107 C106 1.374 . S
C108 C105 1.498 1_455 S
C108 C109 1.385 . S
C108 C110 1.377 1_455 S
C109 H88 0.950 . S
C109 C108 1.385 . S
C109 C125 1.374 1_545 S
C110 C108 1.377 1_655 S
C110 C111 1.532 . S
C110 C124 1.371 1_545 S
C111 C110 1.532 . S
C111 C112 1.397 . S
C111 C116 1.363 1_545 S
C112 H89 0.950 . S
C112 C111 1.397 . S
C112 C113 1.334 . S
C113 H90 0.950 . S
C113 C112 1.334 . S
C113 C114 1.287 . S
C114 C113 1.287 . S
C114 C115 1.524 1_545 S
C114 H133 0.913 . S
C115 H91 0.950 . S
C115 C114 1.524 1_565 S
C115 C116 1.415 . S
C116 H92 0.950 . S
C116 C111 1.363 1_565 S
C116 C115 1.415 . S
C117 H93 0.951 . S
C117 C118 1.365 . S
C117 C119 1.388 . S
C118 C117 1.365 . S
C118 C122 1.385 1_445 S
C119 H94 0.951 . S
C119 C117 1.388 . S
C119 C120 1.366 1_545 S
C120 C119 1.366 1_565 S
C120 C121 1.414 1_455 S
C120 C123 1.498 1_455 S
C121 H95 0.950 . S
C121 C120 1.414 1_655 S
C121 C122 1.374 . S
C122 H96 0.950 . S
C122 C118 1.385 1_665 S
C122 C121 1.374 . S
C123 C120 1.498 1_655 S
C123 C124 1.382 . S
C123 C125 1.381 1_655 S
C124 H97 0.950 . S
C124 C110 1.371 1_565 S
C124 C123 1.382 . S
C125 C109 1.374 1_565 S
C125 C123 1.381 1_455 S
C125 C126 1.528 . S
C126 C125 1.528 . S
C126 C127 1.397 . S
C126 C131 1.363 1_565 S
C127 H98 0.950 . S
C127 C126 1.397 . S
C127 C128 1.334 . S
C128 H99 0.950 . S
C128 C127 1.334 . S
C128 C129 1.287 . S
C129 C128 1.287 . S
C129 C130 1.524 1_565 S
C129 H132 0.999 . S
C130 H100 0.950 . S
C130 C129 1.524 1_545 S
C130 C131 1.415 . S
C131 H101 0.950 . S
C131 C126 1.363 1_545 S
C131 C130 1.415 . S
H132 C129 0.999 . S
H133 C114 0.913 . S
H134 C152 0.951 . S
H135 C154 0.951 . S
H136 C156 0.950 . S
H137 C157 0.950 . S
H138 C159 0.950 . S
H139 C162 0.950 1_556 S
H140 C163 0.950 . S
H141 C165 0.950 . S
H142 C166 0.950 . S
H143 C167 0.951 . S
H144 C169 0.951 . S
H145 C171 0.950 . S
H146 C172 0.950 . S
H147 C174 0.950 . S
H148 C177 0.950 1_554 S
H149 C178 0.950 . S
H150 C180 0.950 . S
H151 C181 0.950 . S
C152 H134 0.951 . S
C152 C153 1.366 . S
C152 C154 1.388 . S
C153 C152 1.366 . S
C153 C157 1.386 1_544 S
C154 H135 0.951 . S
C154 C152 1.388 . S
C154 C155 1.362 1_554 S
C155 C154 1.362 1_556 S
C155 C156 1.418 1_545 S
C155 C158 1.499 . S
C156 H136 0.950 . S
C156 C155 1.418 1_565 S
C156 C157 1.374 . S
C157 H137 0.950 . S
C157 C153 1.386 1_566 S
C157 C156 1.374 . S
C158 C155 1.499 . S
C158 C159 1.373 1_545 S
C158 C160 1.389 1_556 S
C159 H138 0.950 . S
C159 C158 1.373 1_565 S
C159 C175 1.377 . S
C160 C158 1.389 1_554 S
C160 C161 1.524 . S
C160 C174 1.377 . S
C161 C160 1.524 . S
C161 C162 1.397 . S
C161 C166 1.363 . S
C162 H139 0.950 1_554 S
C162 C161 1.397 . S
C162 C163 1.334 . S
C163 H140 0.950 . S
C163 C162 1.334 . S
C163 C164 1.287 . S
C164 C163 1.287 . S
C164 C165 1.524 . S
C164 H183 0.913 . S
C165 H141 0.950 . S
C165 C164 1.524 . S
C165 C166 1.415 . S
C166 H142 0.950 . S
C166 C161 1.363 . S
C166 C165 1.415 . S
C167 H143 0.951 . S
C167 C168 1.366 1_566 S
C167 C169 1.388 . S
C168 C167 1.366 1_544 S
C168 C172 1.386 . S
C169 H144 0.951 . S
C169 C167 1.388 . S
C169 C170 1.359 1_556 S
C170 C169 1.359 1_554 S
C170 C171 1.421 1_565 S
C170 C173 1.499 . S
C171 H145 0.950 . S
C171 C170 1.421 1_545 S
C171 C172 1.374 . S
C172 H146 0.950 . S
C172 C168 1.386 . S
C172 C171 1.374 . S
C173 C170 1.499 . S
C173 C174 1.373 1_565 S
C173 C175 1.389 1_554 S
C174 H147 0.950 . S
C174 C160 1.377 . S
C174 C173 1.373 1_545 S
C175 C159 1.377 . S
C175 C173 1.389 1_556 S
C175 C176 1.524 . S
C176 C175 1.524 . S
C176 C177 1.397 . S
C176 C181 1.363 . S
C177 H148 0.950 1_556 S
C177 C176 1.397 . S
C177 C178 1.334 . S
C178 H149 0.950 . S
C178 C177 1.334 . S
C178 C179 1.287 . S
C179 C178 1.287 . S
C179 C180 1.524 . S
C179 H182 0.999 . S
C180 H150 0.950 . S
C180 C179 1.524 . S
C180 C181 1.415 . S
C181 H151 0.950 . S
C181 C176 1.363 . S
C181 C180 1.415 . S
H182 C179 0.999 . S
H183 C164 0.913 . S
H184 C202 0.951 . S
H185 C204 0.951 . S
H186 C206 0.950 . S
H187 C207 0.950 . S
H188 C209 0.950 . S
H189 C212 0.950 . S
H190 C213 0.950 . S
H191 C215 0.950 . S
H192 C216 0.950 . S
H193 C217 0.951 . S
H194 C219 0.951 . S
H195 C221 0.950 . S
H196 C222 0.950 . S
H197 C224 0.950 . S
H198 C227 0.950 . S
H199 C228 0.950 . S
H200 C230 0.950 . S
H201 C231 0.950 . S
C202 H184 0.951 . S
C202 C203 1.367 1_654 S
C202 C204 1.388 . S
C203 C202 1.367 1_456 S
C203 C207 1.383 . S
C204 H185 0.951 . S
C204 C202 1.388 . S
C204 C205 1.366 1_655 S
C205 C204 1.366 1_455 S
C205 C206 1.414 1_554 S
C205 C208 1.499 . S
C206 H186 0.950 . S
C206 C205 1.414 1_556 S
C206 C207 1.374 . S
C207 H187 0.950 . S
C207 C203 1.383 . S
C207 C206 1.374 . S
C208 C205 1.499 . S
C208 C209 1.373 1_554 S
C208 C210 1.389 1_455 S
C209 H188 0.950 . S
C209 C208 1.373 1_556 S
C209 C225 1.377 . S
C210 C208 1.389 1_655 S
C210 C211 1.524 . S
C210 C224 1.377 . S
C211 C210 1.524 . S
C211 C212 1.397 1_655 S
C211 C216 1.363 . S
C212 H189 0.950 . S
C212 C211 1.397 1_455 S
C212 C213 1.334 . S
C213 H190 0.950 . S
C213 C212 1.334 . S
C213 C214 1.287 . S
C214 C213 1.287 . S
C214 C215 1.524 1_455 S
C214 H233 0.913 . S
C215 H191 0.950 . S
C215 C214 1.524 1_655 S
C215 C216 1.415 . S
C216 H192 0.950 . S
C216 C211 1.363 . S
C216 C215 1.415 . S
C217 H193 0.951 . S
C217 C218 1.364 1_556 S
C217 C219 1.388 . S
C218 C217 1.364 1_554 S
C218 C222 1.384 1_455 S
C219 H194 0.951 . S
C219 C217 1.388 . S
C219 C220 1.366 1_455 S
C220 C219 1.366 1_655 S
C220 C221 1.414 1_556 S
C220 C223 1.499 . S
C221 H195 0.950 . S
C221 C220 1.414 1_554 S
C221 C222 1.374 . S
C222 H196 0.950 . S
C222 C218 1.384 1_655 S
C222 C221 1.374 . S
C223 C220 1.499 . S
C223 C224 1.373 1_556 S
C223 C225 1.389 1_655 S
C224 H197 0.950 . S
C224 C210 1.377 . S
C224 C223 1.373 1_554 S
C225 C209 1.377 . S
C225 C223 1.389 1_455 S
C225 C226 1.524 . S
C226 C225 1.524 . S
C226 C227 1.397 1_455 S
C226 C231 1.363 . S
C227 H198 0.950 . S
C227 C226 1.397 1_655 S
C227 C228 1.334 . S
C228 H199 0.950 . S
C228 C227 1.334 . S
C228 C229 1.287 . S
C229 C228 1.287 . S
C229 C230 1.524 1_655 S
C229 H232 0.999 . S
C230 H200 0.950 . S
C230 C229 1.524 1_455 S
C230 C231 1.415 . S
C231 H201 0.950 . S
C231 C226 1.363 . S
C231 C230 1.415 . S
H232 C229 0.999 . S
H233 C214 0.913 . S
C103 C63 1.479 1_455 S
C118 C74 1.479 1_545 S
C153 C67 1.495 1_545 S
C168 C56 1.498 1_554 S
C203 C58 1.356 1_455 S
C218 C69 1.359 . S
