# Generated by pormake.
# Topology pcu, (6)-cn, num edge types: 1
# Building blocks:
#     Node 0, Type 0, BuildingBlock: PAMTUU_clean_sbu_0, # of connection points: 6
#     Edge 1, Type (0, 0), BuildingBlock: EZIPEK_clean_linker_0, # of connection points: 2
#     Edge 2, Type (0, 0), BuildingBlock: EZIPEK_clean_linker_0, # of connection points: 2
#     Edge 3, Type (0, 0), BuildingBlock: EZIPEK_clean_linker_0, # of connection points: 2
# Relax obj value: 0.000
# Max RMSD: 0.000
# Mean RMSD: 0.000
data_MOF--net-pcu--node1-PAMTUU_clean_sbu_0--edge1-EZIPEK_clean_linker_0
_symmetry_space_group_name_H-M    P1
_symmetry_Int_Tables_number       1
_symmetry_cell_setting            triclinic
loop_
_symmetry_equiv_pos_as_xyz
'x, y, z'
_cell_length_a     21.499963
_cell_length_b     11.1724
_cell_length_c     11.107284
_cell_angle_alpha  86.128766
_cell_angle_beta   98.183028
_cell_angle_gamma 115.28335
loop_
_atom_site_label
_atom_site_type_symbol
_atom_site_fract_x
_atom_site_fract_y
_atom_site_fract_z
_atom_type_partial_charge
Tb0 Tb 0.12075 0.04798 0.00536 0.0
Tb1 Tb 0.94559 0.90958 0.96406 0.0
C2 C 1.03172 0.97498 0.21865 0.0
C3 C 0.30879 0.11296 0.03249 0.0
C4 C 0.42094 0.05187 0.00865 0.0
C5 C 0.38515 0.00758 0.11048 0.0
C6 C 0.32973 0.03809 0.12256 0.0
C7 C 0.34503 0.1574 0.93053 0.0
C8 C 0.40054 0.12672 0.91857 0.0
C9 C 0.25181 0.14984 0.04805 0.0
O10 O 0.09477 0.84442 0.96693 0.0
O11 O 0.97743 0.74724 -0.01174 0.0
O12 O 0.97412 0.9338 0.78188 0.0
O13 O 0.09426 0.01828 0.81042 0.0
O14 O 0.85406 0.79791 0.04324 0.0
O15 O 0.85011 0.8571 0.85474 0.0
O16 O 0.97238 0.1189 0.94457 0.0
O17 O 0.08995 0.20911 0.01608 0.0
O18 O 0.08203 0.96243 0.17541 0.0
O19 O 0.98093 -0.01253 0.14716 0.0
C20 C 0.0359 0.74063 0.97525 0.0
O21 O 0.21765 0.17436 0.95021 0.0
O22 O 0.21043 0.08107 0.12683 0.0
C23 C 1.03429 0.97576 0.74067 0.0
C24 C 0.75985 0.84666 0.95985 0.0
C25 C 0.65122 0.91922 0.97848 0.0
C26 C 0.71144 0.00911 0.93131 0.0
C27 C 0.76557 0.97342 0.92264 0.0
C28 C 0.70004 0.75764 0.00853 0.0
C29 C 0.64616 0.79376 0.01817 0.0
C30 C 0.81447 0.80413 0.94502 0.0
C31 C 1.03151 0.21944 0.97857 0.0
H32 H 0.40047 0.95009 0.181 0.0
H33 H 0.3037 0.00376 0.20307 0.0
H34 H 0.33086 0.21673 0.86047 0.0
H35 H 0.42794 0.16211 0.83962 0.0
H36 H 0.71622 0.10642 0.90052 0.0
H37 H 0.81143 0.0442 0.88546 0.0
H38 H 0.6947 0.6596 0.03787 0.0
H39 H 0.60011 0.72336 0.05506 0.0
C40 C 0.98502 0.86307 0.41001 0.0
C41 C 1.03252 0.97479 0.35185 0.0
C42 C 0.07746 0.0909 0.54646 0.0
C43 C 1.03423 0.9749 0.60686 0.0
N44 N 0.95574 0.74202 0.598 0.0
N45 N 0.13154 0.18708 0.36525 0.0
C46 C 0.9901 0.85869 0.53913 0.0
C47 C 0.08129 0.08596 0.42038 0.0
N48 N 0.93503 0.76072 0.34191 0.0
N49 N 0.11184 0.20815 0.60745 0.0
H50 H 0.13423 0.19095 0.272 0.0
H51 H 0.1736 0.26256 0.41323 0.0
H52 H 0.10972 0.21827 0.69907 0.0
H53 H 0.13721 0.29868 0.5646 0.0
H54 H 0.89348 0.68459 0.37756 0.0
H55 H 0.9323 0.75597 0.24778 0.0
H56 H 0.92964 0.6512 0.55419 0.0
H57 H 0.95845 0.73248 0.69228 0.0
C58 C 0.54529 0.09166 0.06866 0.0
C59 C 0.48059 0.02089 -0.00231 0.0
C60 C 0.53031 0.89464 0.9042 0.0
C61 C 0.59272 0.95557 0.9843 0.0
N62 N 0.65651 0.09736 0.15564 0.0
N63 N 0.40771 0.84205 0.86089 0.0
C64 C 0.59947 0.05041 0.07 0.0
C65 C 0.47202 0.91875 0.91886 0.0
N66 N 0.55546 0.20038 0.13239 0.0
N67 N 0.52749 0.81719 0.81151 0.0
H68 H 0.36389 0.85758 0.86831 0.0
H69 H 0.39662 0.7566 0.81338 0.0
H70 H 0.56926 0.79799 0.79715 0.0
H71 H 0.48602 0.78153 0.7425 0.0
H72 H 0.60366 0.26463 0.17502 0.0
H73 H 0.51685 0.23318 0.13402 0.0
H74 H 0.66097 0.15555 0.2286 0.0
H75 H 0.69714 0.06901 0.16005 0.0
C76 C 1.02809 0.53275 0.08646 0.0
C77 C 0.03631 0.60835 0.97696 0.0
C78 C 0.03492 0.42395 0.86725 0.0
C79 C 1.03185 0.3521 0.97807 0.0
N80 N 1.03221 0.34004 0.19564 0.0
N81 N 0.0618 0.63745 0.76928 0.0
C82 C 1.03038 0.40715 0.08855 0.0
C83 C 0.04411 0.55751 0.86914 0.0
N84 N 1.01806 0.5811 0.18841 0.0
N85 N 1.02731 0.36345 0.7597 0.0
H86 H 0.06887 0.73575 0.76655 0.0
H87 H 0.0754 0.61016 0.69267 0.0
H88 H 1.02024 0.26553 0.75477 0.0
H89 H 1.02169 0.40592 0.67483 0.0
H90 H 1.00314 0.52501 0.26654 0.0
H91 H 1.02145 0.67657 0.19345 0.0
H92 H 0.03965 0.38059 0.28102 0.0
H93 H 1.03022 0.2451 0.19981 0.0
loop_
_geom_bond_atom_site_label_1
_geom_bond_atom_site_label_2
_geom_bond_distance
_geom_bond_site_symmetry_2
_ccdc_geom_bond_type
Tb0 C9 2.764 . S
Tb0 O10 2.325 1_545 S
Tb0 O13 2.303 1_554 S
Tb0 O17 2.322 . S
Tb0 O18 2.349 . S
Tb0 O21 2.415 1_554 S
Tb0 O22 2.399 . S
Tb1 O11 2.322 . S
Tb1 O12 2.349 . S
Tb1 O14 2.415 1_556 S
Tb1 O15 2.399 . S
Tb1 O16 2.325 1_565 S
Tb1 O19 2.303 1_556 S
Tb1 C30 2.764 . S
C2 O18 1.261 . S
C2 O19 1.257 1_445 S
C3 C6 1.358 . S
C3 C7 1.332 1_544 S
C3 C9 1.504 . S
C4 C5 1.373 1_566 S
C4 C8 1.308 . S
C5 C4 1.373 1_544 S
C5 C6 1.429 . S
C5 H32 0.932 . S
C6 C3 1.358 . S
C6 C5 1.429 . S
C6 H33 0.930 . S
C7 C3 1.332 1_566 S
C7 C8 1.394 . S
C7 H34 0.932 . S
C8 C4 1.308 . S
C8 C7 1.394 . S
C8 H35 0.929 . S
C9 Tb0 2.764 . S
C9 C3 1.504 . S
C9 O21 1.239 1_554 S
C9 O22 1.263 . S
O10 Tb0 2.325 1_565 S
O10 C20 1.231 1_455 S
O11 Tb1 2.322 . S
O11 C20 1.267 1_556 S
O12 Tb1 2.349 . S
O12 C23 1.261 . S
O13 Tb0 2.303 1_556 S
O13 C23 1.257 1_445 S
O14 Tb1 2.415 1_554 S
O14 C30 1.239 1_554 S
O15 Tb1 2.399 . S
O15 C30 1.263 . S
O16 Tb1 2.325 1_545 S
O16 C31 1.229 1_655 S
O17 Tb0 2.322 . S
O17 C31 1.271 1_554 S
O18 Tb0 2.349 . S
O18 C2 1.261 . S
O19 Tb1 2.303 1_554 S
O19 C2 1.257 1_665 S
C20 O10 1.231 1_655 S
C20 O11 1.267 1_554 S
O21 Tb0 2.415 1_556 S
O21 C9 1.239 1_556 S
O22 Tb0 2.399 . S
O22 C9 1.263 . S
C23 O12 1.261 . S
C23 O13 1.257 1_665 S
C24 C27 1.358 . S
C24 C28 1.332 1_566 S
C24 C30 1.504 . S
C25 C26 1.373 1_544 S
C25 C29 1.308 . S
C26 C25 1.373 1_566 S
C26 C27 1.429 . S
C26 H36 0.932 . S
C27 C24 1.358 . S
C27 C26 1.429 . S
C27 H37 0.930 . S
C28 C24 1.332 1_544 S
C28 C29 1.394 . S
C28 H38 0.932 . S
C29 C25 1.308 . S
C29 C28 1.394 . S
C29 H39 0.929 . S
C30 Tb1 2.764 . S
C30 O14 1.239 1_556 S
C30 O15 1.263 . S
C30 C24 1.504 . S
C31 O16 1.229 1_455 S
C31 O17 1.271 1_556 S
H32 C5 0.932 . S
H33 C6 0.930 . S
H34 C7 0.932 . S
H35 C8 0.929 . S
H36 C26 0.932 . S
H37 C27 0.930 . S
H38 C28 0.932 . S
H39 C29 0.929 . S
C40 C41 1.363 1_665 S
C40 C46 1.379 . S
C40 N48 1.356 . S
C41 C40 1.363 1_445 S
C41 C47 1.363 . S
C42 C43 1.363 . S
C42 C47 1.379 . S
C42 N49 1.356 . S
C43 C42 1.363 . S
C43 C46 1.363 1_445 S
N44 C46 1.356 . S
N44 H56 0.984 . S
N44 H57 0.985 . S
N45 C47 1.356 . S
N45 H50 0.984 . S
N45 H51 0.985 . S
C46 C40 1.379 . S
C46 C43 1.363 1_665 S
C46 N44 1.356 . S
C47 C41 1.363 . S
C47 C42 1.379 . S
C47 N45 1.356 . S
N48 C40 1.356 . S
N48 H54 0.984 . S
N48 H55 0.984 . S
N49 C42 1.356 . S
N49 H52 0.984 . S
N49 H53 0.985 . S
H50 N45 0.984 . S
H51 N45 0.985 . S
H52 N49 0.984 . S
H53 N49 0.985 . S
H54 N48 0.984 . S
H55 N48 0.984 . S
H56 N44 0.984 . S
H57 N44 0.985 . S
C58 C59 1.363 . S
C58 C64 1.379 . S
C58 N66 1.356 . S
C59 C58 1.363 . S
C59 C65 1.363 1_544 S
C60 C61 1.363 1_566 S
C60 C65 1.379 . S
C60 N67 1.356 . S
C61 C60 1.363 1_544 S
C61 C64 1.363 . S
N62 C64 1.356 . S
N62 H74 0.984 . S
N62 H75 0.985 . S
N63 C65 1.356 . S
N63 H68 0.984 . S
N63 H69 0.985 . S
C64 C58 1.379 . S
C64 C61 1.363 . S
C64 N62 1.356 . S
C65 C59 1.363 1_566 S
C65 C60 1.379 . S
C65 N63 1.356 . S
N66 C58 1.356 . S
N66 H72 0.984 . S
N66 H73 0.984 . S
N67 C60 1.356 . S
N67 H70 0.984 . S
N67 H71 0.985 . S
H68 N63 0.984 . S
H69 N63 0.985 . S
H70 N67 0.984 . S
H71 N67 0.985 . S
H72 N66 0.984 . S
H73 N66 0.984 . S
H74 N62 0.984 . S
H75 N62 0.985 . S
C76 C77 1.363 . S
C76 C82 1.379 . S
C76 N84 1.356 . S
C77 C76 1.363 . S
C77 C83 1.363 1_454 S
C78 C79 1.363 1_656 S
C78 C83 1.379 . S
C78 N85 1.356 . S
C79 C78 1.363 1_454 S
C79 C82 1.363 . S
N80 C82 1.356 . S
N80 H92 0.984 . S
N80 H93 0.985 . S
N81 C83 1.356 . S
N81 H86 0.984 . S
N81 H87 0.985 . S
C82 C76 1.379 . S
C82 C79 1.363 . S
C82 N80 1.356 . S
C83 C77 1.363 1_656 S
C83 C78 1.379 . S
C83 N81 1.356 . S
N84 C76 1.356 . S
N84 H90 0.984 . S
N84 H91 0.984 . S
N85 C78 1.356 . S
N85 H88 0.984 . S
N85 H89 0.985 . S
H86 N81 0.984 . S
H87 N81 0.985 . S
H88 N85 0.984 . S
H89 N85 0.985 . S
H90 N84 0.984 . S
H91 N84 0.984 . S
H92 N80 0.984 . S
H93 N80 0.985 . S
C41 C2 1.466 . S
C43 C23 1.466 1_445 S
C59 C4 1.499 1_544 S
C61 C25 1.499 . S
C77 C20 1.492 1_455 S
C79 C31 1.490 1_554 S
