# Generated by pormake.
# Topology hex, (8)-cn, num edge types: 1
# Building blocks:
#     Node 0, Type 0, BuildingBlock: TAGTUT_clean_sbu_3, # of connection points: 8
#     Edge 1, Type (0, 0), BuildingBlock: AJUNOK_clean_linker_0, # of connection points: 2
#     Edge 2, Type (0, 0), BuildingBlock: AJUNOK_clean_linker_0, # of connection points: 2
#     Edge 3, Type (0, 0), BuildingBlock: AJUNOK_clean_linker_0, # of connection points: 2
#     Edge 4, Type (0, 0), BuildingBlock: AJUNOK_clean_linker_0, # of connection points: 2
# Relax obj value: 0.104
# Max RMSD: 0.228
# Mean RMSD: 0.228
data_MOF--net-hex--node1-TAGTUT_clean_sbu_3--edge1-AJUNOK_clean_linker_0
_symmetry_space_group_name_H-M    P1
_symmetry_Int_Tables_number       1
_symmetry_cell_setting            triclinic
loop_
_symmetry_equiv_pos_as_xyz
'x, y, z'
_cell_length_a     16.085294
_cell_length_b     14.79044
_cell_length_c     12.015985
_cell_angle_alpha  98.905148
_cell_angle_beta   92.86393
_cell_angle_gamma 137.4465
loop_
_atom_site_label
_atom_site_type_symbol
_atom_site_fract_x
_atom_site_fract_y
_atom_site_fract_z
_atom_type_partial_charge
C0 C 0.96138 0.97665 0.73815 0.0
C1 C 0.25463 0.99179 0.90424 0.0
C2 C 0.06082 0.79666 0.10903 0.0
Mg3 Mg 0.81443 0.02228 0.84783 0.0
Mg4 Mg 0.88133 0.1682 0.12559 0.0
O5 O 0.85346 0.04117 0.01605 0.0
Mg6 Mg -0.02452 0.03799 0.01432 0.0
O7 O 0.07999 1.01541 -0.00221 0.0
Mg8 Mg 0.95647 0.82047 0.90326 0.0
Mg9 Mg 0.21774 0.093 0.10565 0.0
C10 C 0.95633 0.08085 0.29107 0.0
O11 O 0.1653 0.27452 0.06632 0.0
O12 O 0.65765 0.99232 0.87422 0.0
O13 O 0.29748 0.29427 0.17634 0.0
O14 O 0.94912 0.26619 0.89433 0.0
O15 O 0.70768 0.09774 0.06218 0.0
O16 O 0.03209 0.35597 0.08646 0.0
O17 O 0.80289 0.80162 0.95254 0.0
O18 O 0.68041 0.78883 0.83487 0.0
C19 C 0.69299 0.73363 0.89593 0.0
C20 C 0.63505 0.02913 0.95914 0.0
O21 O -0.0209 0.04115 0.20756 0.0
O22 O 0.13403 0.87604 0.87388 0.0
O23 O 0.92191 0.13487 0.27847 0.0
O24 O 0.96648 0.76619 0.06551 0.0
O25 O 0.30155 0.1015 0.97476 0.0
O26 O 0.168 0.92451 0.1567 0.0
O27 O -0.03174 0.04384 0.82691 0.0
O28 O 0.95666 0.88823 0.747 0.0
C29 C 0.02074 0.37049 -0.0128 0.0
C30 C 0.27834 0.34407 0.11516 0.0
C31 C 0.14913 0.61636 0.08507 0.0
C32 C 0.05197 0.49414 -0.00781 0.0
C33 C 0.1525 0.7143 0.12146 0.0
C34 C 0.05789 0.69345 0.06753 0.0
H35 H 0.21869 0.63195 0.13495 0.0
H36 H 0.22704 0.80418 0.19536 0.0
S37 S 0.79518 0.40279 0.80707 0.0
N38 N 0.86839 0.3674 0.83779 0.0
N39 N 0.87366 0.54964 0.90527 0.0
C40 C 0.96564 0.57684 0.96883 0.0
C41 C 0.9634 0.47829 0.93106 0.0
C42 C 0.56865 0.13393 0.95606 0.0
C43 C 0.53484 1.01351 0.93185 0.0
C44 C 0.47779 0.12599 0.93097 0.0
C45 C 0.34789 0.99621 0.88642 0.0
H46 H 0.66628 0.23535 -0.00447 0.0
H47 H 0.50936 0.2227 0.95473 0.0
S48 S 0.21655 0.65274 0.78653 0.0
N49 N 0.36935 0.76363 0.84162 0.0
N50 N 0.19418 0.74615 0.8023 0.0
C51 C 0.31451 0.87552 0.85306 0.0
C52 C 0.40904 0.88474 0.87478 0.0
C53 C 0.50808 0.52726 0.10984 0.0
C54 C 0.38348 0.45224 0.06267 0.0
C55 C 0.60515 0.61153 0.05246 0.0
C56 C 0.58312 0.62583 0.94467 0.0
H57 H 0.53091 0.51937 0.19148 0.0
H58 H 0.69915 0.66809 0.0949 0.0
S59 S 0.27273 0.44724 0.77944 0.0
N60 N 0.2431 0.39571 0.89838 0.0
N61 N 0.42525 0.55361 0.79141 0.0
C62 C 0.45886 0.5509 0.89585 0.0
C63 C 0.3597 0.46517 0.95457 0.0
C64 C 0.95458 0.0895 0.60863 0.0
C65 C 0.96104 1.00224 0.62361 0.0
C66 C 0.95542 0.11615 0.50158 0.0
C67 C 0.96336 0.0572 0.40506 0.0
H68 H 0.94834 0.1375 0.6799 0.0
H69 H 0.94927 0.18332 0.4947 0.0
S70 S -0.01377 0.82423 0.39904 0.0
N71 N -0.0212 0.85921 0.53286 0.0
N72 N -0.02005 0.90906 0.33226 0.0
C73 C -0.02825 0.97126 0.41921 0.0
C74 C -0.02952 0.9437 0.52811 0.0
loop_
_geom_bond_atom_site_label_1
_geom_bond_atom_site_label_2
_geom_bond_distance
_geom_bond_site_symmetry_2
_ccdc_geom_bond_type
C0 O27 1.312 1_565 S
C0 O28 1.208 . S
C1 O22 1.331 . S
C1 O25 1.244 . S
C2 O24 1.264 1_454 S
C2 O26 1.273 . S
Mg3 O5 1.936 1_566 S
Mg3 O12 2.081 . S
Mg3 O14 2.023 1_565 S
Mg3 O18 2.031 . S
Mg3 O27 2.291 1_565 S
Mg4 O5 1.963 . S
Mg4 O15 1.942 . S
Mg4 O16 1.955 1_655 S
Mg4 O23 1.986 1_655 S
O5 Mg3 1.936 1_544 S
O5 Mg4 1.963 . S
O5 Mg6 1.915 1_655 S
Mg6 O5 1.915 1_455 S
Mg6 O7 1.915 1_544 S
Mg6 O11 2.013 . S
Mg6 O17 2.114 1_444 S
Mg6 O21 2.013 1_545 S
Mg6 O27 2.114 1_454 S
O7 Mg6 1.915 1_566 S
O7 Mg8 1.936 1_455 S
O7 Mg9 1.963 1_566 S
Mg8 O7 1.936 1_655 S
Mg8 O17 2.291 . S
Mg8 O22 2.081 1_655 S
Mg8 O24 2.023 . S
Mg8 O28 2.031 . S
Mg9 O7 1.963 1_544 S
Mg9 O13 1.986 . S
Mg9 O25 1.942 1_544 S
Mg9 O26 1.955 1_545 S
C10 O21 1.191 1_545 S
C10 O23 1.307 . S
O11 Mg6 2.013 . S
O11 C30 1.191 . S
O12 Mg3 2.081 . S
O12 C20 1.331 1_566 S
O13 Mg9 1.986 . S
O13 C30 1.307 . S
O14 Mg3 2.023 1_545 S
O14 C29 1.264 . S
O15 Mg4 1.942 . S
O15 C20 1.244 . S
O16 Mg4 1.955 1_455 S
O16 C29 1.273 1_454 S
O17 Mg6 2.114 1_666 S
O17 Mg8 2.291 . S
O17 C19 1.312 . S
O18 Mg3 2.031 . S
O18 C19 1.208 . S
C19 O17 1.312 . S
C19 O18 1.208 . S
C20 O12 1.331 1_544 S
C20 O15 1.244 . S
O21 Mg6 2.013 1_565 S
O21 C10 1.191 1_565 S
O22 C1 1.331 . S
O22 Mg8 2.081 1_455 S
O23 Mg4 1.986 1_455 S
O23 C10 1.307 . S
O24 C2 1.264 1_656 S
O24 Mg8 2.023 . S
O25 C1 1.244 . S
O25 Mg9 1.942 1_566 S
O26 C2 1.273 . S
O26 Mg9 1.955 1_565 S
O27 C0 1.312 1_545 S
O27 Mg3 2.291 1_545 S
O27 Mg6 2.114 1_656 S
O28 C0 1.208 . S
O28 Mg8 2.031 . S
C29 O14 1.264 . S
C29 O16 1.273 1_656 S
C30 O11 1.191 . S
C30 O13 1.307 . S
C31 C32 1.369 1_554 S
C31 C33 1.419 . S
C31 H35 0.930 . S
C32 C31 1.369 1_556 S
C32 C41 1.429 . S
C33 C31 1.419 . S
C33 C34 1.363 . S
C33 H36 0.929 . S
C34 C33 1.363 . S
C34 C40 1.428 1_554 S
H35 C31 0.930 . S
H36 C33 0.929 . S
S37 N38 1.613 . S
S37 N39 1.610 . S
N38 S37 1.613 . S
N38 C41 1.350 . S
N39 S37 1.610 . S
N39 C40 1.351 . S
C40 C34 1.428 1_556 S
C40 N39 1.351 . S
C40 C41 1.434 . S
C41 C32 1.429 . S
C41 N38 1.350 . S
C41 C40 1.434 . S
C42 C43 1.369 1_546 S
C42 C44 1.419 . S
C42 H46 0.930 . S
C43 C42 1.369 1_564 S
C43 C52 1.429 . S
C44 C42 1.419 . S
C44 C45 1.363 1_545 S
C44 H47 0.929 . S
C45 C44 1.363 1_565 S
C45 C51 1.428 . S
H46 C42 0.930 . S
H47 C44 0.929 . S
S48 N49 1.613 . S
S48 N50 1.610 1_554 S
N49 S48 1.613 . S
N49 C52 1.350 . S
N50 S48 1.610 1_556 S
N50 C51 1.351 . S
C51 C45 1.428 . S
C51 N50 1.351 . S
C51 C52 1.434 1_556 S
C52 C43 1.429 . S
C52 N49 1.350 . S
C52 C51 1.434 1_554 S
C53 C54 1.369 . S
C53 C55 1.419 1_554 S
C53 H57 0.930 . S
C54 C53 1.369 . S
C54 C63 1.429 . S
C55 C53 1.419 1_556 S
C55 C56 1.363 . S
C55 H58 0.929 . S
C56 C55 1.363 . S
C56 C62 1.428 . S
H57 C53 0.930 . S
H58 C55 0.929 . S
S59 N60 1.613 1_556 S
S59 N61 1.610 . S
N60 S59 1.613 1_554 S
N60 C63 1.350 . S
N61 S59 1.610 . S
N61 C62 1.351 . S
C62 C56 1.428 . S
C62 N61 1.351 . S
C62 C63 1.434 1_556 S
C63 C54 1.429 . S
C63 N60 1.350 . S
C63 C62 1.434 1_554 S
C64 C65 1.369 . S
C64 C66 1.419 . S
C64 H68 0.930 . S
C65 C64 1.369 . S
C65 C74 1.429 1_665 S
C66 C64 1.419 . S
C66 C67 1.363 1_665 S
C66 H69 0.929 . S
C67 C66 1.363 1_445 S
C67 C73 1.428 . S
H68 C64 0.930 . S
H69 C66 0.929 . S
S70 N71 1.613 . S
S70 N72 1.610 . S
N71 S70 1.613 . S
N71 C74 1.350 . S
N72 S70 1.610 . S
N72 C73 1.351 . S
C73 C67 1.428 . S
C73 N72 1.351 . S
C73 C74 1.434 . S
C74 C65 1.429 1_445 S
C74 N71 1.350 . S
C74 C73 1.434 . S
C32 C29 1.591 1_455 S
C34 C2 1.543 . S
C43 C20 1.479 1_565 S
C45 C1 1.380 . S
C54 C30 1.823 . S
C56 C19 1.840 . S
C65 C0 1.475 . S
C67 C10 1.485 . S
