# Generated by pormake.
# Topology sma, (6)-cn, num edge types: 1
# Building blocks:
#     Node 0, Type 0, BuildingBlock: VOLQOD_clean_sbu_1, # of connection points: 6
#     Node 1, Type 0, BuildingBlock: VOLQOD_clean_sbu_1, # of connection points: 6
#     Node 2, Type 0, BuildingBlock: VOLQOD_clean_sbu_1, # of connection points: 6
#     Edge 3, Type (0, 0), BuildingBlock: OJICUG_clean_linker_0, # of connection points: 2
#     Edge 4, Type (0, 0), BuildingBlock: OJICUG_clean_linker_0, # of connection points: 2
#     Edge 5, Type (0, 0), BuildingBlock: OJICUG_clean_linker_0, # of connection points: 2
#     Edge 6, Type (0, 0), BuildingBlock: OJICUG_clean_linker_0, # of connection points: 2
#     Edge 7, Type (0, 0), BuildingBlock: OJICUG_clean_linker_0, # of connection points: 2
#     Edge 8, Type (0, 0), BuildingBlock: OJICUG_clean_linker_0, # of connection points: 2
#     Edge 9, Type (0, 0), BuildingBlock: OJICUG_clean_linker_0, # of connection points: 2
#     Edge 10, Type (0, 0), BuildingBlock: OJICUG_clean_linker_0, # of connection points: 2
#     Edge 11, Type (0, 0), BuildingBlock: OJICUG_clean_linker_0, # of connection points: 2
# Relax obj value: 0.284
# Max RMSD: 0.234
# Mean RMSD: 0.234
data_MOF--net-sma--node1-VOLQOD_clean_sbu_1--edge1-OJICUG_clean_linker_0
_symmetry_space_group_name_H-M    P1
_symmetry_Int_Tables_number       1
_symmetry_cell_setting            triclinic
loop_
_symmetry_equiv_pos_as_xyz
'x, y, z'
_cell_length_a     23.536631
_cell_length_b     23.68563
_cell_length_c     12.891721
_cell_angle_alpha  89.808477
_cell_angle_beta   90.194899
_cell_angle_gamma 119.8119
loop_
_atom_site_label
_atom_site_type_symbol
_atom_site_fract_x
_atom_site_fract_y
_atom_site_fract_z
_atom_type_partial_charge
O0 O 0.03783 0.55923 0.90433 0.0
Zn1 Zn 0.02419 0.58138 0.04924 0.0
O2 O 0.00121 0.5057 0.13136 0.0
Zn3 Zn 0.06939 0.51755 0.22117 0.0
Zn4 Zn 0.97783 0.42997 0.04974 0.0
Zn5 Zn 0.9334 0.49396 0.22113 0.0
O6 O 0.03298 0.48288 0.36285 0.0
O7 O 0.9703 0.52879 0.3624 0.0
O8 O 0.09942 0.66277 0.12063 0.0
O9 O 0.12419 0.61224 0.24339 0.0
O10 O 0.12429 0.48382 0.15445 0.0
O11 O 0.05731 0.42 0.03121 0.0
O12 O 0.90247 0.34865 0.12126 0.0
O13 O 0.94447 0.59102 0.03006 0.0
O14 O 0.87857 0.39934 0.244 0.0
O15 O 0.87822 0.52759 0.15424 0.0
C16 C 0.00115 0.50576 0.85655 0.0
C17 C 0.00171 0.50588 0.41126 0.0
C18 C 0.11271 0.44642 0.07658 0.0
C19 C 0.13176 0.66428 0.20179 0.0
C20 C 0.87054 0.34724 0.20253 0.0
C21 C 0.88933 0.56472 0.07585 0.0
O22 O 0.96432 0.45227 0.90437 0.0
O23 O 0.48921 0.04703 0.24122 0.0
Zn24 Zn 0.44844 0.02913 0.38355 0.0
O25 O 0.5006 0.00611 0.46875 0.0
Zn26 Zn 0.55646 0.07572 0.55536 0.0
Zn27 Zn 0.55249 0.98304 0.38396 0.0
Zn28 Zn 0.44495 0.93646 0.55557 0.0
O29 O 0.55373 0.04379 0.70049 0.0
O30 O 0.44759 0.96841 0.70022 0.0
O31 O 0.43843 0.10241 0.45368 0.0
O32 O 0.51635 0.13071 0.57287 0.0
O33 O 0.64526 0.12881 0.48804 0.0
O34 O 0.6407 0.06329 0.36136 0.0
O35 O 0.56238 0.90952 0.45421 0.0
O36 O 0.36032 0.9487 0.36079 0.0
O37 O 0.48518 0.88155 0.57393 0.0
O38 O 0.35619 0.88319 0.48791 0.0
C39 C 0.50033 0.00624 0.19333 0.0
C40 C 0.50063 0.00614 0.74848 0.0
C41 C 0.67024 0.11779 0.40815 0.0
C42 C 0.47017 0.13641 0.53248 0.0
C43 C 0.53103 0.87565 0.53335 0.0
C44 C 0.33103 0.89412 0.40773 0.0
O45 O 0.51152 0.96541 0.24161 0.0
O46 O 0.44632 0.48906 0.56453 0.0
Zn47 Zn 0.42392 0.45337 0.70982 0.0
O48 O 0.5003 0.50525 0.79136 0.0
Zn49 Zn 0.48983 0.56158 0.88151 0.0
Zn50 Zn 0.57646 0.55728 0.70985 0.0
Zn51 Zn 0.51109 0.44884 0.88177 0.0
O52 O 0.52491 0.55911 0.02275 0.0
O53 O 0.47618 0.45104 0.02295 0.0
O54 O 0.34283 0.44771 0.78292 0.0
O55 O 0.39493 0.52253 0.90472 0.0
O56 O 0.52453 0.65017 0.81572 0.0
O57 O 0.58723 0.64658 0.6908 0.0
O58 O 0.65771 0.5629 0.78292 0.0
O59 O 0.41315 0.3641 0.69112 0.0
O60 O 0.6061 0.48799 0.90507 0.0
O61 O 0.47639 0.36042 0.81586 0.0
C62 C 0.50005 0.5053 0.51689 0.0
C63 C 0.50052 0.50505 0.07153 0.0
C64 C 0.56177 0.67586 0.73739 0.0
C65 C 0.34217 0.47841 0.86423 0.0
C66 C 0.6587 0.53217 0.86435 0.0
C67 C 0.43891 0.33484 0.73757 0.0
O68 O 0.55381 0.5216 0.56489 0.0
C69 C 0.16303 0.42032 0.92476 0.0
C70 C 0.16785 0.44293 0.02745 0.0
H71 H 0.2144 0.41389 0.7914 0.0
C72 C 0.22883 0.47103 0.07737 0.0
H73 H 0.11671 0.39854 0.88374 0.0
C74 C 0.28426 0.48024 0.02438 0.0
C75 C 0.28056 0.4616 0.91974 0.0
H76 H 0.23443 0.48852 0.15637 0.0
H77 H 0.33065 0.50363 0.06535 0.0
C78 C 0.21896 0.42943 0.87139 0.0
C79 C 0.76294 0.23225 0.41224 0.0
C80 C 0.72921 0.17266 0.35995 0.0
H81 H 0.83371 0.33303 0.40388 0.0
C82 C 0.74703 0.16913 0.25667 0.0
H83 H 0.75112 0.23686 0.49178 0.0
C84 C 0.79482 0.22505 0.20523 0.0
C85 C 0.82519 0.28539 0.2561 0.0
H86 H 0.72188 0.12392 0.21387 0.0
H87 H 0.80579 0.22159 0.12476 0.0
C88 C 0.81011 0.28769 0.36114 0.0
C89 C 0.53207 0.81623 0.69197 0.0
C90 C 0.54894 0.83109 0.58667 0.0
H91 H 0.52445 0.75725 0.82249 0.0
C92 C 0.57918 0.80087 0.53538 0.0
H93 H 0.51021 0.83983 0.73496 0.0
C94 C 0.58771 0.7531 0.58662 0.0
C95 C 0.56644 0.73523 0.68999 0.0
H96 H 0.59323 0.81174 0.45472 0.0
H97 H 0.60769 0.72783 0.54346 0.0
C98 C 0.54072 0.76909 0.74283 0.0
C99 C 0.78194 0.58138 0.87094 0.0
C100 C 0.72056 0.54904 0.9196 0.0
H101 H 0.88431 0.61256 0.88282 0.0
C102 C 0.71737 0.53037 0.02429 0.0
H103 H 0.78609 0.59696 0.79089 0.0
C104 C 0.77312 0.53975 0.07707 0.0
C105 C 0.83388 0.56803 0.02685 0.0
H106 H 0.67117 0.50684 0.06547 0.0
H107 H 0.76791 0.52224 0.15615 0.0
C108 C 0.83817 0.59065 0.92407 0.0
C109 C 0.23898 0.77934 0.41166 0.0
C110 C 0.27225 0.83907 0.35935 0.0
H111 H 0.16888 0.67837 0.40326 0.0
C112 C 0.25426 0.84261 0.25591 0.0
H113 H 0.25094 0.77471 0.49132 0.0
C114 C 0.20677 0.78659 0.20439 0.0
C115 C 0.17689 0.72615 0.25532 0.0
H116 H 0.27907 0.88793 0.21308 0.0
H117 H 0.19564 0.79008 0.12383 0.0
C118 C 0.19213 0.72381 0.36047 0.0
C119 C 0.46055 0.24195 0.74246 0.0
C120 C 0.43437 0.27575 0.68992 0.0
H121 H 0.49152 0.17162 0.73412 0.0
C122 C 0.41284 0.25818 0.58651 0.0
H123 H 0.47704 0.25357 0.82211 0.0
C124 C 0.42151 0.21078 0.53499 0.0
C125 C 0.45219 0.18065 0.586 0.0
H126 H 0.39252 0.28342 0.54356 0.0
H127 H 0.40723 0.20013 0.45433 0.0
C128 C 0.46934 0.19519 0.69132 0.0
C129 C 0.00515 0.55876 0.68764 0.0
C130 C 0.00136 0.5058 0.74275 0.0
H131 H 0.00673 0.59943 0.5382 0.0
C132 C -0.00218 0.45292 0.68836 0.0
H133 H 0.00764 0.5999 0.72828 0.0
C134 C -0.00095 0.45343 0.58012 0.0
C135 C 0.00176 0.5059 0.52503 0.0
H136 H -0.00481 0.41173 0.72957 0.0
H137 H -0.00326 0.41237 0.53947 0.0
C138 C 0.00432 0.55834 0.5794 0.0
C139 C 0.53034 0.06527 0.02475 0.0
C140 C 0.5003 0.00625 0.07963 0.0
H141 H 0.55535 0.1112 0.87527 0.0
C142 C 0.47034 0.94721 0.02516 0.0
H143 H 0.55394 0.1113 0.06559 0.0
C144 C 0.4695 0.94721 0.91691 0.0
C145 C 0.50054 0.00619 0.86209 0.0
H146 H 0.44669 0.9012 0.06631 0.0
H147 H 0.44566 0.90119 0.87601 0.0
C148 C 0.53142 0.06522 0.9165 0.0
C149 C 0.44619 0.45714 0.34817 0.0
C150 C 0.50007 0.50526 0.40304 0.0
H151 H 0.40493 0.41866 0.1989 0.0
C152 C 0.5541 0.55325 0.34836 0.0
H153 H 0.40415 0.4195 0.38899 0.0
C154 C 0.55382 0.55372 0.24012 0.0
C155 C 0.50038 0.50504 0.1853 0.0
H156 H 0.59605 0.59097 0.38932 0.0
H157 H 0.59577 0.59147 0.19928 0.0
C158 C 0.44678 0.45646 0.23993 0.0
loop_
_geom_bond_atom_site_label_1
_geom_bond_atom_site_label_2
_geom_bond_distance
_geom_bond_site_symmetry_2
_ccdc_geom_bond_type
O0 Zn1 1.953 1_556 S
O0 C16 1.225 . S
Zn1 O0 1.953 1_554 S
Zn1 O2 1.949 . S
Zn1 O8 1.919 . S
Zn1 O13 1.924 1_455 S
O2 Zn1 1.949 . S
O2 Zn3 1.923 . S
O2 Zn4 1.950 . S
O2 Zn5 1.945 1_455 S
Zn3 O2 1.923 . S
Zn3 O6 1.933 . S
Zn3 O9 1.941 . S
Zn3 O10 1.965 . S
Zn4 O2 1.950 . S
Zn4 O11 1.938 . S
Zn4 O12 1.906 1_455 S
Zn4 O22 1.953 1_454 S
Zn5 O2 1.945 1_655 S
Zn5 O7 1.932 . S
Zn5 O14 1.977 . S
Zn5 O15 1.910 . S
O6 Zn3 1.933 . S
O6 C17 1.226 . S
O7 Zn5 1.932 . S
O7 C17 1.307 1_655 S
O8 Zn1 1.919 . S
O8 C19 1.253 . S
O9 Zn3 1.941 . S
O9 C19 1.283 . S
O10 Zn3 1.965 . S
O10 C18 1.303 . S
O11 Zn4 1.938 . S
O11 C18 1.247 . S
O12 Zn4 1.906 1_655 S
O12 C20 1.304 . S
O13 Zn1 1.924 1_655 S
O13 C21 1.311 . S
O14 Zn5 1.977 . S
O14 C20 1.272 . S
O15 Zn5 1.910 . S
O15 C21 1.231 . S
C16 O0 1.225 . S
C16 O22 1.298 1_455 S
C17 O6 1.226 . S
C17 O7 1.307 1_455 S
C18 O10 1.303 . S
C18 O11 1.247 . S
C19 O8 1.253 . S
C19 O9 1.283 . S
C20 O12 1.304 . S
C20 O14 1.272 . S
C21 O13 1.311 . S
C21 O15 1.231 . S
O22 Zn4 1.953 1_656 S
O22 C16 1.298 1_655 S
O23 Zn24 1.953 . S
O23 C39 1.225 . S
Zn24 O23 1.953 . S
Zn24 O25 1.949 . S
Zn24 O31 1.919 . S
Zn24 O36 1.924 1_545 S
O25 Zn24 1.949 . S
O25 Zn26 1.923 . S
O25 Zn27 1.950 . S
O25 Zn28 1.945 1_545 S
Zn26 O25 1.923 . S
Zn26 O29 1.933 . S
Zn26 O32 1.941 . S
Zn26 O33 1.965 . S
Zn27 O25 1.950 . S
Zn27 O34 1.938 . S
Zn27 O35 1.906 1_545 S
Zn27 O45 1.953 1_545 S
Zn28 O25 1.945 1_565 S
Zn28 O30 1.932 . S
Zn28 O37 1.977 . S
Zn28 O38 1.910 . S
O29 Zn26 1.933 . S
O29 C40 1.226 . S
O30 Zn28 1.932 . S
O30 C40 1.307 1_565 S
O31 Zn24 1.919 . S
O31 C42 1.253 . S
O32 Zn26 1.941 . S
O32 C42 1.283 . S
O33 Zn26 1.965 . S
O33 C41 1.303 . S
O34 Zn27 1.938 . S
O34 C41 1.247 . S
O35 Zn27 1.906 1_565 S
O35 C43 1.304 . S
O36 Zn24 1.924 1_565 S
O36 C44 1.311 . S
O37 Zn28 1.977 . S
O37 C43 1.272 . S
O38 Zn28 1.910 . S
O38 C44 1.231 . S
C39 O23 1.225 . S
C39 O45 1.298 1_545 S
C40 O29 1.226 . S
C40 O30 1.307 1_545 S
C41 O33 1.303 . S
C41 O34 1.247 . S
C42 O31 1.253 . S
C42 O32 1.283 . S
C43 O35 1.304 . S
C43 O37 1.272 . S
C44 O36 1.311 . S
C44 O38 1.231 . S
O45 Zn27 1.953 1_565 S
O45 C39 1.298 1_565 S
O46 Zn47 1.953 . S
O46 C62 1.225 . S
Zn47 O46 1.953 . S
Zn47 O48 1.949 . S
Zn47 O54 1.919 . S
Zn47 O59 1.924 . S
O48 Zn47 1.949 . S
O48 Zn49 1.923 . S
O48 Zn50 1.950 . S
O48 Zn51 1.945 . S
Zn49 O48 1.923 . S
Zn49 O52 1.933 1_556 S
Zn49 O55 1.941 . S
Zn49 O56 1.965 . S
Zn50 O48 1.950 . S
Zn50 O57 1.938 . S
Zn50 O58 1.906 . S
Zn50 O68 1.953 . S
Zn51 O48 1.945 . S
Zn51 O53 1.932 1_556 S
Zn51 O60 1.977 . S
Zn51 O61 1.910 . S
O52 Zn49 1.933 1_554 S
O52 C63 1.226 . S
O53 Zn51 1.932 1_554 S
O53 C63 1.307 . S
O54 Zn47 1.919 . S
O54 C65 1.253 . S
O55 Zn49 1.941 . S
O55 C65 1.283 . S
O56 Zn49 1.965 . S
O56 C64 1.303 . S
O57 Zn50 1.938 . S
O57 C64 1.247 . S
O58 Zn50 1.906 . S
O58 C66 1.304 . S
O59 Zn47 1.924 . S
O59 C67 1.311 . S
O60 Zn51 1.977 . S
O60 C66 1.272 . S
O61 Zn51 1.910 . S
O61 C67 1.231 . S
C62 O46 1.225 . S
C62 O68 1.298 . S
C63 O52 1.226 . S
C63 O53 1.307 . S
C64 O56 1.303 . S
C64 O57 1.247 . S
C65 O54 1.253 . S
C65 O55 1.283 . S
C66 O58 1.304 . S
C66 O60 1.272 . S
C67 O59 1.311 . S
C67 O61 1.231 . S
O68 Zn50 1.953 . S
O68 C62 1.298 . S
C69 C70 1.387 . S
C69 H73 0.950 . S
C69 C78 1.390 1_554 S
C70 C69 1.387 . S
C70 C72 1.387 . S
H71 C78 0.950 . S
C72 C70 1.387 . S
C72 C74 1.390 1_554 S
C72 H76 0.950 . S
H73 C69 0.950 . S
C74 C72 1.390 1_556 S
C74 C75 1.387 . S
C74 H77 0.950 . S
C75 C74 1.387 . S
C75 C78 1.387 . S
H76 C72 0.950 . S
H77 C74 0.950 . S
C78 C69 1.390 1_556 S
C78 H71 0.950 . S
C78 C75 1.387 . S
C79 C80 1.387 . S
C79 H83 0.950 . S
C79 C88 1.390 . S
C80 C79 1.387 . S
C80 C82 1.387 . S
H81 C88 0.950 . S
C82 C80 1.387 . S
C82 C84 1.390 . S
C82 H86 0.950 . S
H83 C79 0.950 . S
C84 C82 1.390 . S
C84 C85 1.387 . S
C84 H87 0.950 . S
C85 C84 1.387 . S
C85 C88 1.387 . S
H86 C82 0.950 . S
H87 C84 0.950 . S
C88 C79 1.390 . S
C88 H81 0.950 . S
C88 C85 1.387 . S
C89 C90 1.387 . S
C89 H93 0.950 . S
C89 C98 1.390 . S
C90 C89 1.387 . S
C90 C92 1.387 . S
H91 C98 0.950 . S
C92 C90 1.387 . S
C92 C94 1.390 . S
C92 H96 0.950 . S
H93 C89 0.950 . S
C94 C92 1.390 . S
C94 C95 1.387 . S
C94 H97 0.950 . S
C95 C94 1.387 . S
C95 C98 1.387 . S
H96 C92 0.950 . S
H97 C94 0.950 . S
C98 C89 1.390 . S
C98 H91 0.950 . S
C98 C95 1.387 . S
C99 C100 1.387 . S
C99 H103 0.950 . S
C99 C108 1.390 1_556 S
C100 C99 1.387 . S
C100 C102 1.387 . S
H101 C108 0.950 . S
C102 C100 1.387 . S
C102 C104 1.390 1_556 S
C102 H106 0.950 . S
H103 C99 0.950 . S
C104 C102 1.390 1_554 S
C104 C105 1.387 . S
C104 H107 0.950 . S
C105 C104 1.387 . S
C105 C108 1.387 . S
H106 C102 0.950 . S
H107 C104 0.950 . S
C108 C99 1.390 1_554 S
C108 H101 0.950 . S
C108 C105 1.387 . S
C109 C110 1.387 . S
C109 H113 0.950 . S
C109 C118 1.390 . S
C110 C109 1.387 . S
C110 C112 1.387 . S
H111 C118 0.950 . S
C112 C110 1.387 . S
C112 C114 1.390 . S
C112 H116 0.950 . S
H113 C109 0.950 . S
C114 C112 1.390 . S
C114 C115 1.387 . S
C114 H117 0.950 . S
C115 C114 1.387 . S
C115 C118 1.387 . S
H116 C112 0.950 . S
H117 C114 0.950 . S
C118 C109 1.390 . S
C118 H111 0.950 . S
C118 C115 1.387 . S
C119 C120 1.387 . S
C119 H123 0.950 . S
C119 C128 1.390 . S
C120 C119 1.387 . S
C120 C122 1.387 . S
H121 C128 0.950 . S
C122 C120 1.387 . S
C122 C124 1.390 . S
C122 H126 0.950 . S
H123 C119 0.950 . S
C124 C122 1.390 . S
C124 C125 1.387 . S
C124 H127 0.950 . S
C125 C124 1.387 . S
C125 C128 1.387 . S
H126 C122 0.950 . S
H127 C124 0.950 . S
C128 C119 1.390 . S
C128 H121 0.950 . S
C128 C125 1.387 . S
C129 C130 1.387 . S
C129 H133 0.950 . S
C129 C138 1.390 . S
C130 C129 1.387 . S
C130 C132 1.387 1_455 S
H131 C138 0.950 . S
C132 C130 1.387 1_655 S
C132 C134 1.390 . S
C132 H136 0.950 . S
H133 C129 0.950 . S
C134 C132 1.390 . S
C134 C135 1.387 1_655 S
C134 H137 0.950 . S
C135 C134 1.387 1_455 S
C135 C138 1.387 . S
H136 C132 0.950 . S
H137 C134 0.950 . S
C138 C129 1.390 . S
C138 H131 0.950 . S
C138 C135 1.387 . S
C139 C140 1.387 . S
C139 H143 0.950 . S
C139 C148 1.390 1_554 S
C140 C139 1.387 . S
C140 C142 1.387 1_545 S
H141 C148 0.950 . S
C142 C140 1.387 1_565 S
C142 C144 1.390 1_554 S
C142 H146 0.950 . S
H143 C139 0.950 . S
C144 C142 1.390 1_556 S
C144 C145 1.387 1_565 S
C144 H147 0.950 . S
C145 C144 1.387 1_545 S
C145 C148 1.387 . S
H146 C142 0.950 . S
H147 C144 0.950 . S
C148 C139 1.390 1_556 S
C148 H141 0.950 . S
C148 C145 1.387 . S
C149 C150 1.387 . S
C149 H153 0.950 . S
C149 C158 1.390 . S
C150 C149 1.387 . S
C150 C152 1.387 . S
H151 C158 0.950 . S
C152 C150 1.387 . S
C152 C154 1.390 . S
C152 H156 0.950 . S
H153 C149 0.950 . S
C154 C152 1.390 . S
C154 C155 1.387 . S
C154 H157 0.950 . S
C155 C154 1.387 . S
C155 C158 1.387 . S
H156 C152 0.950 . S
H157 C154 0.950 . S
C158 C149 1.390 . S
C158 H151 0.950 . S
C158 C155 1.387 . S
C70 C18 1.525 . S
C75 C65 1.509 . S
C80 C41 1.517 . S
C85 C20 1.485 . S
C90 C43 1.463 . S
C95 C64 1.495 . S
C100 C66 1.447 . S
C105 C21 1.481 . S
C110 C44 1.487 . S
C115 C19 1.471 . S
C120 C67 1.508 . S
C125 C42 1.494 . S
C130 C16 1.091 . S
C135 C17 1.090 . S
C140 C39 1.090 . S
C145 C40 1.089 . S
C150 C62 1.090 . S
C155 C63 1.090 . S
