# Generated by pormake.
# Topology smc, (6)-cn, num edge types: 1
# Building blocks:
#     Node 0, Type 0, BuildingBlock: VOLQOD_clean_sbu_1, # of connection points: 6
#     Node 1, Type 0, BuildingBlock: VOLQOD_clean_sbu_1, # of connection points: 6
#     Node 2, Type 0, BuildingBlock: VOLQOD_clean_sbu_1, # of connection points: 6
#     Node 3, Type 0, BuildingBlock: VOLQOD_clean_sbu_1, # of connection points: 6
#     Node 4, Type 0, BuildingBlock: VOLQOD_clean_sbu_1, # of connection points: 6
#     Node 5, Type 0, BuildingBlock: VOLQOD_clean_sbu_1, # of connection points: 6
#     Node 6, Type 0, BuildingBlock: VOLQOD_clean_sbu_1, # of connection points: 6
#     Node 7, Type 0, BuildingBlock: VOLQOD_clean_sbu_1, # of connection points: 6
#     Node 8, Type 0, BuildingBlock: VOLQOD_clean_sbu_1, # of connection points: 6
#     Edge 9, Type (0, 0), None
#     Edge 10, Type (0, 0), None
#     Edge 11, Type (0, 0), None
#     Edge 12, Type (0, 0), None
#     Edge 13, Type (0, 0), None
#     Edge 14, Type (0, 0), None
#     Edge 15, Type (0, 0), None
#     Edge 16, Type (0, 0), None
#     Edge 17, Type (0, 0), None
#     Edge 18, Type (0, 0), None
#     Edge 19, Type (0, 0), None
#     Edge 20, Type (0, 0), None
#     Edge 21, Type (0, 0), None
#     Edge 22, Type (0, 0), None
#     Edge 23, Type (0, 0), None
#     Edge 24, Type (0, 0), None
#     Edge 25, Type (0, 0), None
#     Edge 26, Type (0, 0), None
#     Edge 27, Type (0, 0), None
#     Edge 28, Type (0, 0), None
#     Edge 29, Type (0, 0), None
#     Edge 30, Type (0, 0), None
#     Edge 31, Type (0, 0), None
#     Edge 32, Type (0, 0), None
#     Edge 33, Type (0, 0), None
#     Edge 34, Type (0, 0), None
#     Edge 35, Type (0, 0), None
# Relax obj value: 0.340
# Max RMSD: 0.274
# Mean RMSD: 0.261
data_MOF--net-smc--node1-VOLQOD_clean_sbu_1--edge1-none
_symmetry_space_group_name_H-M    P1
_symmetry_Int_Tables_number       1
_symmetry_cell_setting            triclinic
loop_
_symmetry_equiv_pos_as_xyz
'x, y, z'
_cell_length_a     16.166215
_cell_length_b     16.241329
_cell_length_c     23.69186
_cell_angle_alpha  89.882407
_cell_angle_beta   89.983382
_cell_angle_gamma 120.71807
loop_
_atom_site_label
_atom_site_type_symbol
_atom_site_fract_x
_atom_site_fract_y
_atom_site_fract_z
_atom_type_partial_charge
O0 O 0.84718 0.54029 0.99882 0.0
Zn1 Zn 0.94308 0.5078 0.96591 0.0
O2 O -0.03109 0.443 0.02436 0.0
Zn3 Zn -0.03839 0.32576 1.00421 0.0
Zn4 Zn 0.89663 0.42304 0.08954 0.0
Zn5 Zn 0.09636 0.52002 0.04631 0.0
O6 O 0.09647 0.34177 1.01315 0.0
O7 O 0.16927 0.49482 0.99008 0.0
O8 O 0.8923 0.41567 0.89612 0.0
O9 O 0.92366 0.30274 0.92398 0.0
O10 O 0.84457 0.2137 0.04222 0.0
O11 O 0.78234 0.29418 0.08173 0.0
O12 O -0.02895 0.41799 0.15546 0.0
O13 O 0.06443 0.63951 0.95233 0.0
O14 O 0.12049 0.47811 0.12402 0.0
O15 O 0.1333 0.65685 0.0365 0.0
C16 C 0.82515 0.54858 0.04955 0.0
C17 C 0.17134 0.4185 0.99595 0.0
C18 C 0.77425 0.21609 0.06521 0.0
C19 C 0.89246 0.33759 0.88736 0.0
C20 C 0.05686 0.43544 0.16226 0.0
C21 C 0.12322 0.69246 0.99074 0.0
O22 O 0.84817 0.51505 0.09159 0.0
O23 O 0.42035 0.31879 0.99309 0.0
Zn24 Zn 0.44775 0.4478 0.96614 0.0
O25 O 0.52165 0.53767 0.02379 0.0
Zn26 Zn 0.63815 0.64777 0.99923 0.0
Zn27 Zn 0.54064 0.48237 0.08807 0.0
Zn28 Zn 0.44687 0.58564 0.05055 0.0
O29 O 0.62284 0.76692 1.00921 0.0
O30 O 0.46509 0.68374 0.99562 0.0
O31 O 0.52693 0.49257 0.892 0.0
O32 O 0.65468 0.63212 0.91767 0.0
O33 O 0.75097 0.64005 0.03187 0.0
O34 O 0.67049 0.50144 0.07861 0.0
O35 O 0.54684 0.55796 0.15769 0.0
O36 O 0.3151 0.43302 0.96167 0.0
O37 O 0.49458 0.65231 0.12678 0.0
O38 O 0.30978 0.48001 0.04886 0.0
C39 C 0.41335 0.2845 0.04259 0.0
C40 C 0.54381 0.76306 0.99619 0.0
C41 C 0.74783 0.56896 0.05739 0.0
C42 C 0.60876 0.56731 0.88118 0.0
C43 C 0.53364 0.62843 0.16502 0.0
C44 C 0.26724 0.43408 1.00428 0.0
O45 O 0.44759 0.33859 0.08594 0.0
O46 O 0.51876 0.86752 0.05016 0.0
Zn47 Zn 0.48932 0.96642 0.07917 0.0
O48 O 0.42391 -0.01262 0.01903 0.0
Zn49 Zn 0.30472 -0.02151 0.03877 0.0
Zn50 Zn 0.40784 0.91634 0.95338 0.0
Zn51 Zn 0.50582 0.1134 0.99741 0.0
O52 O 0.32369 0.11445 0.02897 0.0
O53 O 0.47883 0.18911 0.0508 0.0
O54 O 0.40048 0.9259 0.14941 0.0
O55 O 0.27809 0.94208 0.12022 0.0
O56 O 0.19418 0.85994 1.00065 0.0
O57 O 0.27831 0.80093 0.96156 0.0
O58 O 0.40403 -0.0087 0.88494 0.0
O59 O 0.62193 0.08523 0.09251 0.0
O60 O 0.47308 0.13902 0.91936 0.0
O61 O 0.64175 0.14712 1.00655 0.0
C62 C 0.53226 0.84605 1.00042 0.0
C63 C 0.40082 0.18927 0.04604 0.0
C64 C 0.19885 0.79074 0.97825 0.0
C65 C 0.31896 0.91955 0.15795 0.0
C66 C 0.43005 0.07964 0.87965 0.0
C67 C 0.67654 0.13958 0.05312 0.0
O68 O 0.50313 0.86975 0.95638 0.0
O69 O 0.51743 0.87912 0.33416 0.0
Zn70 Zn 0.61343 0.84769 0.30098 0.0
O71 O 0.63631 0.77952 0.35917 0.0
Zn72 Zn 0.63212 0.66589 0.33569 0.0
Zn73 Zn 0.56674 0.75928 0.42635 0.0
Zn74 Zn 0.76207 0.85768 0.38134 0.0
O75 O 0.7668 0.68289 0.34469 0.0
O76 O 0.83979 0.83769 0.32525 0.0
O77 O 0.56491 0.75864 0.22884 0.0
O78 O 0.59791 0.64642 0.25521 0.0
O79 O 0.51319 0.55286 0.36988 0.0
O80 O 0.45454 0.63009 0.41782 0.0
O81 O 0.64196 0.75358 0.49389 0.0
O82 O 0.73552 -0.01901 0.29134 0.0
O83 O 0.78854 0.81843 0.45721 0.0
O84 O 0.79023 -0.00902 0.37846 0.0
C85 C 0.49418 0.88577 0.38487 0.0
C86 C 0.84177 0.76079 0.3289 0.0
C87 C 0.44467 0.55421 0.39598 0.0
C88 C 0.56673 0.68161 0.21893 0.0
C89 C 0.72981 0.77593 0.49748 0.0
C90 C 0.78673 0.03106 0.3331 0.0
O91 O 0.51556 0.8503 0.42686 0.0
O92 O 0.08603 0.6539 0.33071 0.0
Zn93 Zn 0.11662 0.7837 0.30075 0.0
O94 O 0.1911 0.87593 0.35743 0.0
Zn95 Zn 0.30755 -0.01385 0.33222 0.0
Zn96 Zn 0.21084 0.82181 0.42216 0.0
Zn97 Zn 0.11599 0.92366 0.38407 0.0
O98 O 0.29165 0.10628 0.34077 0.0
O99 O 0.13365 0.02197 0.32941 0.0
O100 O 0.19729 0.8266 0.2266 0.0
O101 O 0.32341 0.96847 0.25086 0.0
O102 O 0.4203 -0.02258 0.36554 0.0
O103 O 0.34018 0.84045 0.41392 0.0
O104 O 0.21384 0.89355 0.49142 0.0
O105 O -0.015 0.77241 0.2948 0.0
O106 O 0.16032 -0.01288 0.46109 0.0
O107 O -0.02053 0.81918 0.38204 0.0
C108 C 0.08169 0.62321 0.38105 0.0
C109 C 0.21173 0.10188 0.32926 0.0
C110 C 0.41738 0.90721 0.39225 0.0
C111 C 0.27843 0.90201 0.21512 0.0
C112 C 0.19802 0.96189 0.49944 0.0
C113 C 0.93725 0.77505 0.33705 0.0
O114 O 0.11874 0.68005 0.42282 0.0
O115 O 0.31901 0.45346 0.33578 0.0
Zn116 Zn 0.19183 0.35643 0.30108 0.0
O117 O 0.09612 0.33286 0.35707 0.0
Zn118 Zn -0.01326 0.33649 0.3314 0.0
Zn119 Zn 0.14499 0.407 0.42206 0.0
Zn120 Zn 0.0448 0.20847 0.38254 0.0
O121 O 0.86524 0.2012 0.33812 0.0
O122 O 0.94898 0.1299 0.32495 0.0
O123 O 0.15621 0.40511 0.22698 0.0
O124 O 0.00874 0.37109 0.25173 0.0
O125 O -0.00845 0.456 0.3625 0.0
O126 O 0.12887 0.5177 0.41079 0.0
O127 O 0.06561 0.33665 0.48939 0.0
O128 O 0.20375 0.23579 0.2948 0.0
O129 O -0.0247 0.18745 0.45895 0.0
O130 O 0.15025 0.17863 0.38098 0.0
C131 C 0.34609 0.47752 0.38686 0.0
C132 C 0.86909 0.12688 0.3245 0.0
C133 C 0.06203 0.52566 0.38825 0.0
C134 C 0.07703 0.40289 0.21617 0.0
C135 C -0.00359 0.25109 0.49668 0.0
C136 C 0.1983 0.18368 0.33703 0.0
O137 O 0.28627 0.45697 0.4272 0.0
O138 O 0.17786 0.20612 0.66977 0.0
Zn139 Zn 0.27343 0.17563 0.63514 0.0
O140 O 0.3009 0.1105 0.69307 0.0
Zn141 Zn 0.29375 -0.00573 0.6706 0.0
Zn142 Zn 0.23016 0.08757 0.76023 0.0
Zn143 Zn 0.42937 0.18953 0.71213 0.0
O144 O 0.42724 0.00795 0.67919 0.0
O145 O 0.50223 0.16125 0.65651 0.0
O146 O 0.2238 0.08733 0.5644 0.0
O147 O 0.25949 -0.0234 0.59 0.0
O148 O 0.17518 0.88031 0.70583 0.0
O149 O 0.11599 0.95783 0.75223 0.0
O150 O 0.30857 0.08303 0.82603 0.0
O151 O 0.39267 0.30708 0.61929 0.0
O152 O 0.45653 0.15536 0.78999 0.0
O153 O 0.46655 0.32543 0.70156 0.0
C154 C 0.15484 0.21197 0.72065 0.0
C155 C 0.50258 0.08379 0.66161 0.0
C156 C 0.10638 0.88112 0.73192 0.0
C157 C 0.22776 0.01186 0.55403 0.0
C158 C 0.39765 0.10991 0.82991 0.0
C159 C 0.45424 0.36029 0.65631 0.0
O160 O 0.17806 0.17758 0.76235 0.0
O161 O 0.74817 -0.02027 0.66104 0.0
Zn162 Zn 0.77888 0.10908 0.63299 0.0
O163 O 0.85026 0.19787 0.69199 0.0
Zn164 Zn -0.03415 0.30905 0.6695 0.0
Zn165 Zn 0.86868 0.14194 0.75631 0.0
Zn166 Zn 0.77482 0.24486 0.71861 0.0
O167 O 0.95039 0.42789 0.67939 0.0
O168 O 0.79293 0.3449 0.66501 0.0
O169 O 0.86434 0.15103 0.56 0.0
O170 O -0.01733 0.29432 0.58831 0.0
O171 O 0.0788 0.30167 0.70298 0.0
O172 O -0.00112 0.16173 0.74837 0.0
O173 O 0.87279 0.21435 0.82628 0.0
O174 O 0.64689 0.09799 0.62715 0.0
O175 O 0.82087 0.30893 0.79538 0.0
O176 O 0.63877 0.13873 0.71562 0.0
C177 C 0.74131 0.94553 0.71053 0.0
C178 C 0.87172 0.42417 0.66574 0.0
C179 C 0.07642 0.2308 0.72842 0.0
C180 C 0.94391 0.22954 0.55087 0.0
C181 C 0.85912 0.28434 0.83372 0.0
C182 C 0.59771 0.09699 0.66981 0.0
O183 O 0.77608 -0.00068 0.75386 0.0
O184 O 0.84839 0.53115 0.71832 0.0
Zn185 Zn 0.82067 0.63171 0.74621 0.0
O186 O 0.75512 0.6514 0.68569 0.0
Zn187 Zn 0.63537 0.64225 0.70475 0.0
Zn188 Zn 0.7398 0.58101 0.61992 0.0
Zn189 Zn 0.83553 0.77788 0.66536 0.0
O190 O 0.65283 0.77665 0.69514 0.0
O191 O 0.80633 0.85021 0.72003 0.0
O192 O 0.7321 0.59322 0.81619 0.0
O193 O 0.60756 0.60502 0.78594 0.0
O194 O 0.52534 0.52709 0.66509 0.0
O195 O 0.60914 0.46706 0.62706 0.0
O196 O 0.73833 0.65739 0.55146 0.0
O197 O 0.95386 0.75016 0.75928 0.0
O198 O 0.80117 0.80337 0.58793 0.0
O199 O -0.02757 0.8141 0.67402 0.0
C200 C 0.86085 0.50771 0.6689 0.0
C201 C 0.72864 0.85057 0.71398 0.0
C202 C 0.5296 0.45776 0.64278 0.0
C203 C 0.64975 0.58519 0.82422 0.0
C204 C 0.76113 0.74504 0.54736 0.0
C205 C 0.00788 0.80569 0.7201 0.0
O206 O 0.83255 0.53121 0.62439 0.0
loop_
_geom_bond_atom_site_label_1
_geom_bond_atom_site_label_2
_geom_bond_distance
_geom_bond_site_symmetry_2
_ccdc_geom_bond_type
O0 Zn1 1.953 . S
O0 C16 1.225 1_556 S
Zn1 O0 1.953 . S
Zn1 O2 1.949 1_656 S
Zn1 O8 1.919 . S
Zn1 O13 1.924 1_655 S
O2 Zn1 1.949 1_454 S
O2 Zn3 1.923 1_454 S
O2 Zn4 1.950 1_455 S
O2 Zn5 1.945 . S
Zn3 O2 1.923 1_656 S
Zn3 O6 1.933 1_655 S
Zn3 O9 1.941 . S
Zn3 O10 1.965 . S
Zn4 O2 1.950 1_655 S
Zn4 O11 1.938 . S
Zn4 O12 1.906 . S
Zn4 O22 1.953 . S
Zn5 O2 1.945 . S
Zn5 O7 1.932 . S
Zn5 O14 1.977 . S
Zn5 O15 1.910 . S
O6 Zn3 1.933 1_455 S
O6 C17 1.226 1_556 S
O7 Zn5 1.932 . S
O7 C17 1.307 . S
O8 Zn1 1.919 . S
O8 C19 1.253 . S
O9 Zn3 1.941 . S
O9 C19 1.283 . S
O10 Zn3 1.965 . S
O10 C18 1.303 1_556 S
O11 Zn4 1.938 . S
O11 C18 1.247 . S
O12 Zn4 1.906 . S
O12 C20 1.304 1_655 S
O13 Zn1 1.924 1_455 S
O13 C21 1.311 . S
O14 Zn5 1.977 . S
O14 C20 1.272 . S
O15 Zn5 1.910 . S
O15 C21 1.231 1_554 S
C16 O0 1.225 1_554 S
C16 O22 1.298 . S
C17 O6 1.226 1_554 S
C17 O7 1.307 . S
C18 O10 1.303 1_554 S
C18 O11 1.247 . S
C19 O8 1.253 . S
C19 O9 1.283 . S
C20 O12 1.304 1_455 S
C20 O14 1.272 . S
C21 O13 1.311 . S
C21 O15 1.231 1_556 S
O22 Zn4 1.953 . S
O22 C16 1.298 . S
O23 Zn24 1.953 . S
O23 C39 1.225 1_556 S
Zn24 O23 1.953 . S
Zn24 O25 1.949 1_556 S
Zn24 O31 1.919 . S
Zn24 O36 1.924 . S
O25 Zn24 1.949 1_554 S
O25 Zn26 1.923 1_554 S
O25 Zn27 1.950 . S
O25 Zn28 1.945 . S
Zn26 O25 1.923 1_556 S
Zn26 O29 1.933 . S
Zn26 O32 1.941 . S
Zn26 O33 1.965 . S
Zn27 O25 1.950 . S
Zn27 O34 1.938 . S
Zn27 O35 1.906 . S
Zn27 O45 1.953 . S
Zn28 O25 1.945 . S
Zn28 O30 1.932 . S
Zn28 O37 1.977 . S
Zn28 O38 1.910 . S
O29 Zn26 1.933 . S
O29 C40 1.226 . S
O30 Zn28 1.932 . S
O30 C40 1.307 1_554 S
O31 Zn24 1.919 . S
O31 C42 1.253 . S
O32 Zn26 1.941 . S
O32 C42 1.283 . S
O33 Zn26 1.965 . S
O33 C41 1.303 1_556 S
O34 Zn27 1.938 . S
O34 C41 1.247 . S
O35 Zn27 1.906 . S
O35 C43 1.304 . S
O36 Zn24 1.924 . S
O36 C44 1.311 . S
O37 Zn28 1.977 . S
O37 C43 1.272 . S
O38 Zn28 1.910 . S
O38 C44 1.231 1_554 S
C39 O23 1.225 1_554 S
C39 O45 1.298 . S
C40 O29 1.226 . S
C40 O30 1.307 1_556 S
C41 O33 1.303 1_554 S
C41 O34 1.247 . S
C42 O31 1.253 . S
C42 O32 1.283 . S
C43 O35 1.304 . S
C43 O37 1.272 . S
C44 O36 1.311 . S
C44 O38 1.231 1_556 S
O45 Zn27 1.953 . S
O45 C39 1.298 . S
O46 Zn47 1.953 1_565 S
O46 C62 1.225 . S
Zn47 O46 1.953 1_545 S
Zn47 O48 1.949 . S
Zn47 O54 1.919 . S
Zn47 O59 1.924 . S
O48 Zn47 1.949 . S
O48 Zn49 1.923 . S
O48 Zn50 1.950 1_544 S
O48 Zn51 1.945 1_554 S
Zn49 O48 1.923 . S
Zn49 O52 1.933 . S
Zn49 O55 1.941 1_545 S
Zn49 O56 1.965 1_545 S
Zn50 O48 1.950 1_566 S
Zn50 O57 1.938 . S
Zn50 O58 1.906 . S
Zn50 O68 1.953 . S
Zn51 O48 1.945 1_556 S
Zn51 O53 1.932 . S
Zn51 O60 1.977 . S
Zn51 O61 1.910 . S
O52 Zn49 1.933 . S
O52 C63 1.226 . S
O53 Zn51 1.932 . S
O53 C63 1.307 1_556 S
O54 Zn47 1.919 . S
O54 C65 1.253 . S
O55 Zn49 1.941 1_565 S
O55 C65 1.283 1_565 S
O56 Zn49 1.965 1_565 S
O56 C64 1.303 1_554 S
O57 Zn50 1.938 . S
O57 C64 1.247 . S
O58 Zn50 1.906 . S
O58 C66 1.304 1_565 S
O59 Zn47 1.924 . S
O59 C67 1.311 . S
O60 Zn51 1.977 . S
O60 C66 1.272 . S
O61 Zn51 1.910 . S
O61 C67 1.231 1_556 S
C62 O46 1.225 . S
C62 O68 1.298 1_554 S
C63 O52 1.226 . S
C63 O53 1.307 1_554 S
C64 O56 1.303 1_556 S
C64 O57 1.247 . S
C65 O54 1.253 . S
C65 O55 1.283 1_545 S
C66 O58 1.304 1_545 S
C66 O60 1.272 . S
C67 O59 1.311 . S
C67 O61 1.231 1_554 S
O68 Zn50 1.953 . S
O68 C62 1.298 1_556 S
O69 Zn70 1.953 . S
O69 C85 1.225 . S
Zn70 O69 1.953 . S
Zn70 O71 1.949 . S
Zn70 O77 1.919 . S
Zn70 O82 1.924 1_565 S
O71 Zn70 1.949 . S
O71 Zn72 1.923 . S
O71 Zn73 1.950 . S
O71 Zn74 1.945 . S
Zn72 O71 1.923 . S
Zn72 O75 1.933 . S
Zn72 O78 1.941 . S
Zn72 O79 1.965 . S
Zn73 O71 1.950 . S
Zn73 O80 1.938 . S
Zn73 O81 1.906 . S
Zn73 O91 1.953 . S
Zn74 O71 1.945 . S
Zn74 O76 1.932 . S
Zn74 O83 1.977 . S
Zn74 O84 1.910 1_565 S
O75 Zn72 1.933 . S
O75 C86 1.226 . S
O76 Zn74 1.932 . S
O76 C86 1.307 . S
O77 Zn70 1.919 . S
O77 C88 1.253 . S
O78 Zn72 1.941 . S
O78 C88 1.283 . S
O79 Zn72 1.965 . S
O79 C87 1.303 . S
O80 Zn73 1.938 . S
O80 C87 1.247 . S
O81 Zn73 1.906 . S
O81 C89 1.304 . S
O82 Zn70 1.924 1_545 S
O82 C90 1.311 . S
O83 Zn74 1.977 . S
O83 C89 1.272 . S
O84 Zn74 1.910 1_545 S
O84 C90 1.231 . S
C85 O69 1.225 . S
C85 O91 1.298 . S
C86 O75 1.226 . S
C86 O76 1.307 . S
C87 O79 1.303 . S
C87 O80 1.247 . S
C88 O77 1.253 . S
C88 O78 1.283 . S
C89 O81 1.304 . S
C89 O83 1.272 . S
C90 O82 1.311 . S
C90 O84 1.231 . S
O91 Zn73 1.953 . S
O91 C85 1.298 . S
O92 Zn93 1.953 . S
O92 C108 1.225 . S
Zn93 O92 1.953 . S
Zn93 O94 1.949 . S
Zn93 O100 1.919 . S
Zn93 O105 1.924 . S
O94 Zn93 1.949 . S
O94 Zn95 1.923 1_565 S
O94 Zn96 1.950 . S
O94 Zn97 1.945 1_565 S
Zn95 O94 1.923 1_545 S
Zn95 O98 1.933 . S
Zn95 O101 1.941 . S
Zn95 O102 1.965 . S
Zn96 O94 1.950 . S
Zn96 O103 1.938 . S
Zn96 O104 1.906 . S
Zn96 O114 1.953 . S
Zn97 O94 1.945 1_545 S
Zn97 O99 1.932 . S
Zn97 O106 1.977 1_545 S
Zn97 O107 1.910 1_545 S
O98 Zn95 1.933 . S
O98 C109 1.226 . S
O99 Zn97 1.932 . S
O99 C109 1.307 . S
O100 Zn93 1.919 . S
O100 C111 1.253 . S
O101 Zn95 1.941 . S
O101 C111 1.283 1_545 S
O102 Zn95 1.965 . S
O102 C110 1.303 1_545 S
O103 Zn96 1.938 . S
O103 C110 1.247 . S
O104 Zn96 1.906 . S
O104 C112 1.304 . S
O105 Zn93 1.924 . S
O105 C113 1.316 . S
O106 Zn97 1.977 1_565 S
O106 C112 1.272 . S
O107 Zn97 1.910 1_565 S
O107 C113 1.231 . S
C108 O92 1.225 . S
C108 O114 1.298 . S
C109 O98 1.226 . S
C109 O99 1.307 . S
C110 O102 1.303 1_565 S
C110 O103 1.247 . S
C111 O100 1.253 . S
C111 O101 1.283 1_565 S
C112 O104 1.304 . S
C112 O106 1.272 . S
C113 O105 1.316 . S
C113 O107 1.231 . S
O114 Zn96 1.953 . S
O114 C108 1.298 . S
O115 Zn116 1.953 . S
O115 C131 1.225 . S
Zn116 O115 1.953 . S
Zn116 O117 1.949 . S
Zn116 O123 1.919 . S
Zn116 O128 1.924 . S
O117 Zn116 1.949 . S
O117 Zn118 1.923 . S
O117 Zn119 1.950 . S
O117 Zn120 1.945 . S
Zn118 O117 1.923 . S
Zn118 O121 1.933 1_455 S
Zn118 O124 1.941 . S
Zn118 O125 1.965 . S
Zn119 O117 1.950 . S
Zn119 O126 1.938 . S
Zn119 O127 1.906 . S
Zn119 O137 1.953 . S
Zn120 O117 1.945 . S
Zn120 O122 1.932 1_455 S
Zn120 O129 1.977 . S
Zn120 O130 1.910 . S
O121 Zn118 1.933 1_655 S
O121 C132 1.226 . S
O122 Zn120 1.932 1_655 S
O122 C132 1.307 . S
O123 Zn116 1.919 . S
O123 C134 1.253 . S
O124 Zn118 1.941 . S
O124 C134 1.283 . S
O125 Zn118 1.965 . S
O125 C133 1.303 . S
O126 Zn119 1.938 . S
O126 C133 1.247 . S
O127 Zn119 1.906 . S
O127 C135 1.304 . S
O128 Zn116 1.924 . S
O128 C136 1.311 . S
O129 Zn120 1.977 . S
O129 C135 1.272 . S
O130 Zn120 1.910 . S
O130 C136 1.231 . S
C131 O115 1.225 . S
C131 O137 1.298 . S
C132 O121 1.226 . S
C132 O122 1.307 . S
C133 O125 1.303 . S
C133 O126 1.247 . S
C134 O123 1.253 . S
C134 O124 1.283 . S
C135 O127 1.304 . S
C135 O129 1.272 . S
C136 O128 1.311 . S
C136 O130 1.231 . S
O137 Zn119 1.953 . S
O137 C131 1.298 . S
O138 Zn139 1.953 . S
O138 C154 1.225 . S
Zn139 O138 1.953 . S
Zn139 O140 1.949 . S
Zn139 O146 1.919 . S
Zn139 O151 1.924 . S
O140 Zn139 1.949 . S
O140 Zn141 1.923 1_545 S
O140 Zn142 1.950 . S
O140 Zn143 1.945 . S
Zn141 O140 1.923 1_565 S
Zn141 O144 1.933 . S
Zn141 O147 1.939 1_565 S
Zn141 O148 1.965 . S
Zn142 O140 1.950 . S
Zn142 O149 1.938 1_545 S
Zn142 O150 1.906 . S
Zn142 O160 1.953 . S
Zn143 O140 1.945 . S
Zn143 O145 1.932 . S
Zn143 O152 1.977 . S
Zn143 O153 1.910 . S
O144 Zn141 1.933 . S
O144 C155 1.226 1_565 S
O145 Zn143 1.932 . S
O145 C155 1.307 . S
O146 Zn139 1.919 . S
O146 C157 1.253 . S
O147 Zn141 1.939 1_545 S
O147 C157 1.293 . S
O148 Zn141 1.965 . S
O148 C156 1.303 . S
O149 Zn142 1.938 1_565 S
O149 C156 1.247 . S
O150 Zn142 1.906 . S
O150 C158 1.304 . S
O151 Zn139 1.924 . S
O151 C159 1.311 . S
O152 Zn143 1.977 . S
O152 C158 1.272 . S
O153 Zn143 1.910 . S
O153 C159 1.231 . S
C154 O138 1.225 . S
C154 O160 1.298 . S
C155 O144 1.226 1_545 S
C155 O145 1.307 . S
C156 O148 1.303 . S
C156 O149 1.247 . S
C157 O146 1.253 . S
C157 O147 1.293 . S
C158 O150 1.304 . S
C158 O152 1.272 . S
C159 O151 1.311 . S
C159 O153 1.231 . S
O160 Zn142 1.953 . S
O160 C154 1.298 . S
O161 Zn162 1.953 . S
O161 C177 1.225 1_545 S
Zn162 O161 1.953 . S
Zn162 O163 1.949 . S
Zn162 O169 1.919 . S
Zn162 O174 1.924 . S
O163 Zn162 1.949 . S
O163 Zn164 1.923 1_655 S
O163 Zn165 1.950 . S
O163 Zn166 1.945 . S
Zn164 O163 1.923 1_455 S
Zn164 O167 1.933 . S
Zn164 O170 1.941 . S
Zn164 O171 1.965 . S
Zn165 O163 1.950 . S
Zn165 O172 1.938 1_655 S
Zn165 O173 1.906 . S
Zn165 O183 1.953 . S
Zn166 O163 1.945 . S
Zn166 O168 1.932 . S
Zn166 O175 1.977 . S
Zn166 O176 1.910 . S
O167 Zn164 1.933 . S
O167 C178 1.226 1_455 S
O168 Zn166 1.932 . S
O168 C178 1.307 . S
O169 Zn162 1.919 . S
O169 C180 1.253 . S
O170 Zn164 1.941 . S
O170 C180 1.283 1_455 S
O171 Zn164 1.965 . S
O171 C179 1.303 . S
O172 Zn165 1.938 1_455 S
O172 C179 1.247 . S
O173 Zn165 1.906 . S
O173 C181 1.304 . S
O174 Zn162 1.924 . S
O174 C182 1.311 . S
O175 Zn166 1.977 . S
O175 C181 1.272 . S
O176 Zn166 1.910 . S
O176 C182 1.231 . S
C177 O161 1.225 1_565 S
C177 O183 1.298 1_565 S
C178 O167 1.226 1_655 S
C178 O168 1.307 . S
C179 O171 1.303 . S
C179 O172 1.247 . S
C180 O169 1.253 . S
C180 O170 1.283 1_655 S
C181 O173 1.304 . S
C181 O175 1.272 . S
C182 O174 1.311 . S
C182 O176 1.231 . S
O183 Zn165 1.953 . S
O183 C177 1.298 1_545 S
O184 Zn185 1.953 . S
O184 C200 1.225 . S
Zn185 O184 1.953 . S
Zn185 O186 1.949 . S
Zn185 O192 1.919 . S
Zn185 O197 1.924 1_655 S
O186 Zn185 1.949 . S
O186 Zn187 1.923 . S
O186 Zn188 1.950 . S
O186 Zn189 1.945 . S
Zn187 O186 1.923 . S
Zn187 O190 1.933 . S
Zn187 O193 1.941 . S
Zn187 O194 1.965 . S
Zn188 O186 1.950 . S
Zn188 O195 1.938 . S
Zn188 O196 1.906 . S
Zn188 O206 1.953 . S
Zn189 O186 1.945 . S
Zn189 O191 1.932 . S
Zn189 O198 1.977 . S
Zn189 O199 1.910 1_655 S
O190 Zn187 1.933 . S
O190 C201 1.226 . S
O191 Zn189 1.932 . S
O191 C201 1.307 . S
O192 Zn185 1.919 . S
O192 C203 1.253 . S
O193 Zn187 1.941 . S
O193 C203 1.283 . S
O194 Zn187 1.965 . S
O194 C202 1.303 . S
O195 Zn188 1.938 . S
O195 C202 1.247 . S
O196 Zn188 1.906 . S
O196 C204 1.304 . S
O197 Zn185 1.924 1_455 S
O197 C205 1.311 . S
O198 Zn189 1.977 . S
O198 C204 1.272 . S
O199 Zn189 1.910 1_455 S
O199 C205 1.231 . S
C200 O184 1.225 . S
C200 O206 1.298 . S
C201 O190 1.226 . S
C201 O191 1.307 . S
C202 O194 1.303 . S
C202 O195 1.247 . S
C203 O192 1.253 . S
C203 O193 1.283 . S
C204 O196 1.304 . S
C204 O198 1.272 . S
C205 O197 1.311 . S
C205 O199 1.231 . S
O206 Zn188 1.953 . S
O206 C200 1.298 . S
C44 C17 1.799 1_556 S
C62 C40 2.103 1_554 S
C64 C21 1.509 . S
C63 C39 1.893 . S
C67 C18 1.176 . S
C16 C41 1.734 . S
C86 C113 1.766 1_655 S
C136 C109 2.007 . S
C132 C90 1.749 . S
C108 C133 1.545 . S
C131 C87 1.244 . S
C110 C85 1.501 . S
C182 C155 1.515 . S
C178 C200 2.061 . S
C202 C159 1.362 . S
C201 C177 1.752 . S
C205 C156 1.139 . S
C154 C179 1.484 . S
C134 C20 1.870 . S
C88 C43 2.265 . S
C65 C111 1.870 1_545 S
C66 C158 1.882 . S
C19 C181 2.049 . S
C203 C42 2.095 . S
C89 C204 2.129 . S
C112 C157 1.813 1_565 S
C180 C135 2.142 1_655 S
