# Generated by pormake.
# Topology bnn, (5)-cn, num edge types: 1
# Building blocks:
#     Node 0, Type 0, BuildingBlock: XOMCOT_clean_sbu_1, # of connection points: 5
#     Node 1, Type 0, BuildingBlock: XOMCOT_clean_sbu_1, # of connection points: 5
#     Edge 2, Type (0, 0), BuildingBlock: FUNLAD_clean_linker_0, # of connection points: 2
#     Edge 3, Type (0, 0), BuildingBlock: FUNLAD_clean_linker_0, # of connection points: 2
#     Edge 4, Type (0, 0), BuildingBlock: FUNLAD_clean_linker_0, # of connection points: 2
#     Edge 5, Type (0, 0), BuildingBlock: FUNLAD_clean_linker_0, # of connection points: 2
#     Edge 6, Type (0, 0), BuildingBlock: FUNLAD_clean_linker_0, # of connection points: 2
# Relax obj value: 0.039
# Max RMSD: 0.098
# Mean RMSD: 0.098
data_MOF--net-bnn--node1-XOMCOT_clean_sbu_1--edge1-FUNLAD_clean_linker_0
_symmetry_space_group_name_H-M    P1
_symmetry_Int_Tables_number       1
_symmetry_cell_setting            triclinic
loop_
_symmetry_equiv_pos_as_xyz
'x, y, z'
_cell_length_a     34.80381
_cell_length_b     31.07333
_cell_length_c     20.053047
_cell_angle_alpha  98.546411
_cell_angle_beta   90.510909
_cell_angle_gamma 123.6181
loop_
_atom_site_label
_atom_site_type_symbol
_atom_site_fract_x
_atom_site_fract_y
_atom_site_fract_z
_atom_type_partial_charge
C0 C 0.30906 0.62624 0.98357 0.0
C1 C 0.30979 0.61898 0.91438 0.0
N2 N 0.32591 0.66513 0.89422 0.0
N3 N 0.32479 0.67675 1.00738 0.0
C4 C 0.33455 0.69949 0.95179 0.0
H5 H 0.29764 0.59654 1.01471 0.0
Co6 Co 0.32953 0.70406 0.09875 0.0
C7 C 0.40445 0.81672 0.11548 0.0
O8 O 0.42237 0.81211 0.16978 0.0
N9 N 0.33272 0.73131 0.1918 0.0
C10 C 0.32471 0.77762 0.27999 0.0
C11 C 0.32479 0.76907 0.21091 0.0
C12 C 0.33682 0.71714 0.25102 0.0
N13 N 0.33208 0.74476 0.30538 0.0
O14 O 0.27396 0.70069 0.08067 0.0
H15 H 0.31842 0.78863 0.17635 0.0
H16 H 0.34111 0.68577 0.25477 0.0
O17 O 0.36775 0.77624 0.08099 0.0
C18 C 0.24108 0.65625 0.09245 0.0
O19 O 0.25203 0.6266 0.11584 0.0
N20 N 0.38042 0.69998 0.11455 0.0
C21 C 0.43445 0.65883 0.10755 0.0
C22 C 0.44823 0.70397 0.08056 0.0
C23 C 0.42021 0.72345 0.08349 0.0
C24 C 0.36714 0.65663 0.1416 0.0
C25 C 0.3941 0.6363 0.14032 0.0
H26 H 0.42844 0.75408 0.05542 0.0
H27 H 0.33314 0.63457 0.15866 0.0
H28 H 0.34813 0.74052 0.95355 0.0
H29 H 0.29846 0.58218 0.88146 0.0
H30 H 0.31916 0.80559 0.3091 0.0
H31 H 0.47831 0.72153 0.05276 0.0
H32 H 0.38181 0.60115 0.16121 0.0
C33 C 0.71602 0.44655 0.09853 0.0
C34 C 0.71902 0.4514 0.16798 0.0
N35 N 0.68447 0.40552 0.18371 0.0
N36 N 0.68004 0.39773 0.07068 0.0
C37 C 0.66119 0.37388 0.12363 0.0
H38 H 0.73883 0.47647 0.07007 0.0
Co39 Co 0.66173 0.37104 0.97917 0.0
C40 C 0.63023 0.25979 0.96303 0.0
O41 O 0.65467 0.26687 0.91119 0.0
N42 N 0.6419 0.34432 0.88586 0.0
C43 C 0.59351 0.29711 0.79143 0.0
C44 C 0.5983 0.30362 0.86084 0.0
C45 C 0.66251 0.36267 0.83039 0.0
N46 N 0.63398 0.33449 0.7723 0.0
O47 O 0.6071 0.37046 0.98974 0.0
H48 H 0.57117 0.28072 0.89142 0.0
H49 H 0.69679 0.39764 0.83207 0.0
O50 O 0.63007 0.29829 0.99605 0.0
C51 C 0.61542 0.41303 0.97449 0.0
O52 O 0.65542 0.44442 0.95212 0.0
N53 N 0.71892 0.37869 0.97109 0.0
C54 C 0.81376 0.41966 0.98621 0.0
C55 C 0.78165 0.37418 1.01132 0.0
C56 C 0.73452 0.35504 1.00469 0.0
C57 C 0.74983 0.42305 0.94694 0.0
C58 C 0.79709 0.44352 0.95255 0.0
H59 H 0.71163 0.32405 0.03149 0.0
H60 H 0.73845 0.44577 0.92906 0.0
H61 H 0.63057 0.33426 0.11809 0.0
H62 H 0.74517 0.4858 0.20381 0.0
H63 H 0.56234 0.26763 0.75794 0.0
H64 H 0.79308 0.3551 0.03899 0.0
H65 H 0.82068 0.4801 0.93536 0.0
C66 C 0.43231 0.57641 0.07531 0.0
C67 C 0.45846 0.63151 0.09475 0.0
C68 C 0.45414 0.55013 0.06096 0.0
C69 C 0.50283 0.57833 0.06589 0.0
C70 C 0.52898 0.63342 0.08496 0.0
C71 C 0.50708 0.65977 0.09932 0.0
C72 C 0.52741 0.55222 0.04743 0.0
C73 C 0.50852 0.50045 0.04473 0.0
C74 C 0.53367 0.47559 0.0228 0.0
C75 C 0.5241 0.43109 0.04799 0.0
C76 C 0.5492 0.40883 0.03039 0.0
C77 C 0.58402 0.43064 0.98692 0.0
H78 H 0.57354 0.52794 0.95329 0.0
C79 C 0.59167 0.47328 0.95895 0.0
C80 C 0.5667 0.49532 0.97633 0.0
H81 H 0.61767 0.49041 0.92427 0.0
H82 H 0.39473 0.55349 0.06926 0.0
H83 H 0.43252 0.50797 0.04408 0.0
H84 H 0.56655 0.65624 0.0885 0.0
H85 H 0.52818 0.70219 0.11411 0.0
H86 H 0.56317 0.57731 0.03692 0.0
H87 H 0.47459 0.47579 0.06156 0.0
H88 H 0.49819 0.41452 0.08293 0.0
H89 H 0.5425 0.3759 0.05261 0.0
C90 C 0.89534 0.47063 0.95429 0.0
C91 C 0.86457 0.44596 1.00205 0.0
C92 C 0.94338 0.49868 0.97123 0.0
C93 C 0.96162 0.50283 0.03658 0.0
C94 C 0.93081 0.47739 0.08373 0.0
C95 C 0.88292 0.44952 0.06688 0.0
C96 C 0.01218 0.53065 0.05677 0.0
C97 C 0.04589 0.56751 0.02546 0.0
C98 C 0.09601 0.59129 0.04486 0.0
C99 C 0.12979 0.64137 0.03144 0.0
C100 C 0.17722 0.66354 0.04779 0.0
C101 C 0.19152 0.63566 0.07734 0.0
H102 H 0.08615 0.52407 0.08261 0.0
C103 C 0.15764 0.58558 0.09035 0.0
C104 C 0.11067 0.56354 0.07393 0.0
H105 H 0.1673 0.56261 0.11233 0.0
H106 H 0.88226 0.46809 0.90364 0.0
H107 H 0.96583 0.5162 0.93267 0.0
H108 H 0.94384 0.47955 0.13425 0.0
H109 H 0.86036 0.43191 0.10538 0.0
H110 H 0.02184 0.52089 0.101 0.0
H111 H 0.03691 0.58152 0.98553 0.0
H112 H 0.11946 0.66333 1.00826 0.0
H113 H 0.20255 0.70204 0.03666 0.0
C114 C 0.47109 0.91077 0.12651 0.0
C115 C 0.42671 0.86899 0.09568 0.0
C116 C 0.49206 0.96064 0.10979 0.0
C117 C 0.46907 0.97009 0.06193 0.0
C118 C 0.42448 0.92857 0.03166 0.0
C119 C 0.40366 0.87835 0.04779 0.0
C120 C 0.49058 1.02311 0.04403 0.0
C121 C 0.53671 0.05579 0.04235 0.0
C122 C 0.55912 0.10801 0.02208 0.0
C123 C 0.59841 0.12578 0.98703 0.0
C124 C 0.62109 0.1749 0.96777 0.0
C125 C 0.60579 0.20814 0.98476 0.0
H126 H 0.51396 0.12895 0.06763 0.0
C127 C 0.56707 0.19107 0.02132 0.0
C128 C 0.54359 0.14113 0.03928 0.0
H129 H 0.55461 0.21596 0.0352 0.0
H130 H 0.48975 0.90507 0.16389 0.0
H131 H 0.52594 0.99196 0.13547 0.0
H132 H 0.40587 0.93487 0.99498 0.0
H133 H 0.3693 0.84712 0.02349 0.0
H134 H 0.46774 1.03411 0.02799 0.0
H135 H 0.55888 0.04236 0.05154 0.0
H136 H 0.61136 0.10129 0.97379 0.0
H137 H 0.65107 0.18708 0.94017 0.0
C138 C 0.33197 0.7167 0.80643 0.0
C139 C 0.33197 0.6749 0.82546 0.0
C140 C 0.33634 0.72486 0.73922 0.0
C141 C 0.34057 0.69114 0.68913 0.0
C142 C 0.34179 0.65032 0.70868 0.0
C143 C 0.33744 0.64219 0.77571 0.0
C144 C 0.34438 0.69724 0.61642 0.0
C145 C 0.3302 0.72327 0.58705 0.0
C146 C 0.33149 0.72756 0.51366 0.0
C147 C 0.30651 0.74559 0.48714 0.0
C148 C 0.30656 0.7509 0.41917 0.0
C149 C 0.33178 0.73846 0.37545 0.0
H150 H 0.37774 0.70243 0.48808 0.0
C151 C 0.35689 0.72039 0.40163 0.0
C152 C 0.357 0.71524 0.46998 0.0
H153 H 0.37724 0.71122 0.36963 0.0
H154 H 0.32787 0.74274 0.84316 0.0
H155 H 0.33672 0.75789 0.72727 0.0
H156 H 0.34565 0.62411 0.67172 0.0
H157 H 0.33865 0.61032 0.78847 0.0
H158 H 0.35693 0.67673 0.58557 0.0
H159 H 0.31461 0.74047 0.61723 0.0
H160 H 0.28654 0.75547 0.51914 0.0
H161 H 0.28627 0.76421 0.40077 0.0
C162 C 0.6918 0.43249 0.30814 0.0
C163 C 0.67481 0.39258 0.25038 0.0
C164 C 0.68276 0.41996 0.37271 0.0
C165 C 0.65647 0.36717 0.38092 0.0
C166 C 0.63885 0.3273 0.3234 0.0
C167 C 0.64823 0.33979 0.25888 0.0
C168 C 0.64545 0.3525 0.4485 0.0
C169 C 0.67419 0.38248 0.50558 0.0
C170 C 0.66292 0.36813 0.57329 0.0
C171 C 0.69918 0.38542 0.62361 0.0
C172 C 0.68972 0.37365 0.68847 0.0
C173 C 0.64371 0.34501 0.70468 0.0
H174 H 0.58812 0.32693 0.55236 0.0
C175 C 0.60743 0.32797 0.6542 0.0
C176 C 0.61689 0.33942 0.58926 0.0
H177 H 0.57168 0.30689 0.6651 0.0
H178 H 0.7115 0.47349 0.30362 0.0
H179 H 0.69559 0.45169 0.41586 0.0
H180 H 0.61826 0.28632 0.32845 0.0
H181 H 0.63503 0.30792 0.21594 0.0
H182 H 0.61378 0.31464 0.4506 0.0
H183 H 0.70805 0.41759 0.50249 0.0
H184 H 0.73495 0.40782 0.6126 0.0
H185 H 0.71849 0.38685 0.72572 0.0
loop_
_geom_bond_atom_site_label_1
_geom_bond_atom_site_label_2
_geom_bond_distance
_geom_bond_site_symmetry_2
_ccdc_geom_bond_type
C0 C1 1.351 . S
C0 N3 1.368 . S
C0 H5 0.931 . S
C1 C0 1.351 . S
C1 N2 1.373 . S
C1 H29 0.930 . S
N2 C1 1.373 . S
N2 C4 1.340 . S
N3 C0 1.368 . S
N3 C4 1.321 . S
N3 Co6 2.135 1_556 S
C4 N2 1.340 . S
C4 N3 1.321 . S
C4 H28 0.930 . S
H5 C0 0.931 . S
Co6 N3 2.135 1_554 S
Co6 N9 2.121 . S
Co6 O14 2.055 . S
Co6 O17 2.039 . S
Co6 N20 2.140 . S
C7 O8 1.227 . S
C7 O17 1.265 . S
O8 C7 1.227 . S
N9 Co6 2.121 . S
N9 C11 1.375 . S
N9 C12 1.313 . S
C10 C11 1.338 . S
C10 N13 1.377 . S
C10 H30 0.930 . S
C11 N9 1.375 . S
C11 C10 1.338 . S
C11 H15 0.931 . S
C12 N9 1.313 . S
C12 N13 1.344 . S
C12 H16 0.930 . S
N13 C10 1.377 . S
N13 C12 1.344 . S
O14 Co6 2.055 . S
O14 C18 1.253 . S
H15 C11 0.931 . S
H16 C12 0.930 . S
O17 Co6 2.039 . S
O17 C7 1.265 . S
C18 O14 1.253 . S
C18 O19 1.227 . S
O19 C18 1.227 . S
N20 Co6 2.140 . S
N20 C23 1.346 1_554 S
N20 C24 1.345 . S
C21 C22 1.387 1_554 S
C21 C25 1.391 . S
C22 C21 1.387 1_556 S
C22 C23 1.369 . S
C22 H31 0.929 . S
C23 N20 1.346 1_556 S
C23 C22 1.369 . S
C23 H26 0.928 . S
C24 N20 1.345 . S
C24 C25 1.371 . S
C24 H27 0.931 . S
C25 C21 1.391 . S
C25 C24 1.371 . S
C25 H32 0.930 . S
H26 C23 0.928 . S
H27 C24 0.931 . S
H28 C4 0.930 . S
H29 C1 0.930 . S
H30 C10 0.930 . S
H31 C22 0.929 . S
H32 C25 0.930 . S
C33 C34 1.351 . S
C33 N36 1.368 . S
C33 H38 0.931 . S
C34 C33 1.351 . S
C34 N35 1.373 . S
C34 H62 0.930 . S
N35 C34 1.373 . S
N35 C37 1.340 . S
N36 C33 1.368 . S
N36 C37 1.321 . S
N36 Co39 2.135 . S
C37 N35 1.340 . S
C37 N36 1.321 . S
C37 H61 0.930 . S
H38 C33 0.931 . S
Co39 N36 2.135 . S
Co39 N42 2.121 1_554 S
Co39 O47 2.055 . S
Co39 O50 2.039 . S
Co39 N53 2.140 . S
C40 O41 1.227 . S
C40 O50 1.265 . S
O41 C40 1.227 . S
N42 Co39 2.121 1_556 S
N42 C44 1.375 . S
N42 C45 1.313 . S
C43 C44 1.338 . S
C43 N46 1.377 . S
C43 H63 0.930 . S
C44 N42 1.375 . S
C44 C43 1.338 . S
C44 H48 0.931 . S
C45 N42 1.313 . S
C45 N46 1.344 . S
C45 H49 0.930 . S
N46 C43 1.377 . S
N46 C45 1.344 . S
O47 Co39 2.055 . S
O47 C51 1.253 . S
H48 C44 0.931 . S
H49 C45 0.930 . S
O50 Co39 2.039 . S
O50 C40 1.265 . S
C51 O47 1.253 . S
C51 O52 1.227 . S
O52 C51 1.227 . S
N53 Co39 2.140 . S
N53 C56 1.346 . S
N53 C57 1.345 1_554 S
C54 C55 1.387 . S
C54 C58 1.391 1_554 S
C55 C54 1.387 . S
C55 C56 1.369 . S
C55 H64 0.929 . S
C56 N53 1.346 . S
C56 C55 1.369 . S
C56 H59 0.928 . S
C57 N53 1.345 1_556 S
C57 C58 1.371 . S
C57 H60 0.931 . S
C58 C54 1.391 1_556 S
C58 C57 1.371 . S
C58 H65 0.930 . S
H59 C56 0.928 . S
H60 C57 0.931 . S
H61 C37 0.930 . S
H62 C34 0.930 . S
H63 C43 0.930 . S
H64 C55 0.929 . S
H65 C58 0.930 . S
C66 C67 1.386 1_556 S
C66 C68 1.383 . S
C66 H82 0.951 . S
C67 C66 1.386 1_554 S
C67 C71 1.383 . S
C68 C66 1.383 . S
C68 C69 1.402 1_556 S
C68 H83 0.951 . S
C69 C68 1.402 1_554 S
C69 C70 1.375 . S
C69 C72 1.481 . S
C70 C69 1.375 . S
C70 C71 1.367 . S
C70 H84 0.951 . S
C71 C67 1.383 . S
C71 C70 1.367 . S
C71 H85 0.950 . S
C72 C69 1.481 . S
C72 C73 1.297 1_554 S
C72 H86 0.950 . S
C73 C72 1.297 1_556 S
C73 C74 1.479 . S
C73 H87 0.950 . S
C74 C73 1.479 . S
C74 C75 1.375 . S
C74 C80 1.404 1_556 S
C75 C74 1.375 . S
C75 C76 1.369 . S
C75 H88 0.950 . S
C76 C75 1.369 . S
C76 C77 1.392 1_556 S
C76 H89 0.951 . S
C77 C76 1.392 1_554 S
C77 C79 1.384 . S
H78 C80 0.949 . S
C79 C77 1.384 . S
C79 C80 1.385 . S
C79 H81 0.950 . S
C80 C74 1.404 1_554 S
C80 H78 0.949 . S
C80 C79 1.385 . S
H81 C79 0.950 . S
H82 C66 0.951 . S
H83 C68 0.951 . S
H84 C70 0.951 . S
H85 C71 0.950 . S
H86 C72 0.950 . S
H87 C73 0.950 . S
H88 C75 0.950 . S
H89 C76 0.951 . S
C90 C91 1.386 1_556 S
C90 C92 1.382 1_556 S
C90 H106 0.951 . S
C91 C90 1.386 1_554 S
C91 C95 1.383 . S
C92 C90 1.382 1_554 S
C92 C93 1.416 . S
C92 H107 0.937 1_554 S
C93 C92 1.416 . S
C93 C94 1.375 . S
C93 C96 1.481 1_655 S
C94 C93 1.375 . S
C94 C95 1.367 . S
C94 H108 0.951 . S
C95 C91 1.383 . S
C95 C94 1.367 . S
C95 H109 0.950 . S
C96 C93 1.481 1_455 S
C96 C97 1.297 . S
C96 H110 0.950 . S
C97 C96 1.297 . S
C97 C98 1.479 . S
C97 H111 0.950 1_554 S
C98 C97 1.479 . S
C98 C99 1.375 1_554 S
C98 C104 1.404 . S
C99 C98 1.375 1_556 S
C99 C100 1.369 . S
C99 H112 0.950 . S
C100 C99 1.369 . S
C100 C101 1.392 1_556 S
C100 H113 0.951 . S
C101 C100 1.392 1_554 S
C101 C103 1.384 . S
H102 C104 0.949 . S
C103 C101 1.384 . S
C103 C104 1.385 . S
C103 H105 0.950 . S
C104 C98 1.404 . S
C104 H102 0.949 . S
C104 C103 1.385 . S
H105 C103 0.950 . S
H106 C90 0.951 . S
H107 C92 0.937 1_556 S
H108 C94 0.951 . S
H109 C95 0.950 . S
H110 C96 0.950 . S
H111 C97 0.950 1_556 S
H112 C99 0.950 . S
H113 C100 0.951 . S
C114 C115 1.386 . S
C114 C116 1.383 . S
C114 H130 0.951 . S
C115 C114 1.386 . S
C115 C119 1.383 1_554 S
C116 C114 1.383 . S
C116 C117 1.402 1_554 S
C116 H131 0.951 . S
C117 C116 1.402 1_556 S
C117 C118 1.375 . S
C117 C120 1.481 . S
C118 C117 1.375 . S
C118 C119 1.367 . S
C118 H132 0.951 . S
C119 C115 1.383 1_556 S
C119 C118 1.367 . S
C119 H133 0.950 . S
C120 C117 1.481 . S
C120 C121 1.297 1_566 S
C120 H134 0.950 . S
C121 C120 1.297 1_544 S
C121 C122 1.479 . S
C121 H135 0.950 . S
C122 C121 1.479 . S
C122 C123 1.375 . S
C122 C128 1.404 1_554 S
C123 C122 1.375 . S
C123 C124 1.369 . S
C123 H136 0.950 . S
C124 C123 1.369 . S
C124 C125 1.392 . S
C124 H137 0.951 . S
C125 C124 1.392 . S
C125 C127 1.384 1_554 S
H126 C128 0.949 . S
C127 C125 1.384 1_556 S
C127 C128 1.385 . S
C127 H129 0.950 . S
C128 C122 1.404 1_556 S
C128 H126 0.949 . S
C128 C127 1.385 . S
H129 C127 0.950 . S
H130 C114 0.951 . S
H131 C116 0.951 . S
H132 C118 0.951 . S
H133 C119 0.950 . S
H134 C120 0.950 . S
H135 C121 0.950 . S
H136 C123 0.950 . S
H137 C124 0.951 . S
C138 C139 1.386 . S
C138 C140 1.383 . S
C138 H154 0.951 . S
C139 C138 1.386 . S
C139 C143 1.383 . S
C140 C138 1.383 . S
C140 C141 1.402 . S
C140 H155 0.951 . S
C141 C140 1.402 . S
C141 C142 1.375 . S
C141 C144 1.481 . S
C142 C141 1.375 . S
C142 C143 1.367 . S
C142 H156 0.951 . S
C143 C139 1.383 . S
C143 C142 1.367 . S
C143 H157 0.950 . S
C144 C141 1.481 . S
C144 C145 1.297 . S
C144 H158 0.950 . S
C145 C144 1.297 . S
C145 C146 1.479 . S
C145 H159 0.950 . S
C146 C145 1.479 . S
C146 C147 1.375 . S
C146 C152 1.404 . S
C147 C146 1.375 . S
C147 C148 1.369 . S
C147 H160 0.950 . S
C148 C147 1.369 . S
C148 C149 1.392 . S
C148 H161 0.951 . S
C149 C148 1.392 . S
C149 C151 1.384 . S
H150 C152 0.949 . S
C151 C149 1.384 . S
C151 C152 1.385 . S
C151 H153 0.950 . S
C152 C146 1.404 . S
C152 H150 0.949 . S
C152 C151 1.385 . S
H153 C151 0.950 . S
H154 C138 0.951 . S
H155 C140 0.951 . S
H156 C142 0.951 . S
H157 C143 0.950 . S
H158 C144 0.950 . S
H159 C145 0.950 . S
H160 C147 0.950 . S
H161 C148 0.951 . S
C162 C163 1.386 . S
C162 C164 1.383 . S
C162 H178 0.951 . S
C163 C162 1.386 . S
C163 C167 1.383 . S
C164 C162 1.383 . S
C164 C165 1.402 . S
C164 H179 0.951 . S
C165 C164 1.402 . S
C165 C166 1.375 . S
C165 C168 1.481 . S
C166 C165 1.375 . S
C166 C167 1.367 . S
C166 H180 0.951 . S
C167 C163 1.383 . S
C167 C166 1.367 . S
C167 H181 0.950 . S
C168 C165 1.481 . S
C168 C169 1.297 . S
C168 H182 0.950 . S
C169 C168 1.297 . S
C169 C170 1.479 . S
C169 H183 0.950 . S
C170 C169 1.479 . S
C170 C171 1.375 . S
C170 C176 1.404 . S
C171 C170 1.375 . S
C171 C172 1.369 . S
C171 H184 0.950 . S
C172 C171 1.369 . S
C172 C173 1.392 . S
C172 H185 0.951 . S
C173 C172 1.392 . S
C173 C175 1.384 . S
H174 C176 0.949 . S
C175 C173 1.384 . S
C175 C176 1.385 . S
C175 H177 0.950 . S
C176 C170 1.404 . S
C176 H174 0.949 . S
C176 C175 1.385 . S
H177 C175 0.950 . S
H178 C162 0.951 . S
H179 C164 0.951 . S
H180 C166 0.951 . S
H181 C167 0.950 . S
H182 C168 0.950 . S
H183 C169 0.950 . S
H184 C171 0.950 . S
H185 C172 0.951 . S
C67 C21 1.505 . S
C77 C51 1.496 . S
C91 C54 1.505 . S
C101 C18 1.494 . S
C115 C7 1.483 . S
C125 C40 1.489 . S
C139 N2 1.435 . S
C149 N13 1.414 . S
C163 N35 1.469 . S
C173 N46 1.438 . S
