# Generated by pormake.
# Topology unf, (4)-cn, num edge types: 1
# Building blocks:
#     Node 0, Type 0, BuildingBlock: CEKHIL_clean_sbu_0, # of connection points: 4
#     Node 1, Type 0, BuildingBlock: CEKHIL_clean_sbu_0, # of connection points: 4
#     Node 2, Type 0, BuildingBlock: CEKHIL_clean_sbu_0, # of connection points: 4
#     Node 3, Type 0, BuildingBlock: CEKHIL_clean_sbu_0, # of connection points: 4
#     Node 4, Type 0, BuildingBlock: CEKHIL_clean_sbu_0, # of connection points: 4
#     Node 5, Type 0, BuildingBlock: CEKHIL_clean_sbu_0, # of connection points: 4
#     Node 6, Type 0, BuildingBlock: CEKHIL_clean_sbu_0, # of connection points: 4
#     Node 7, Type 0, BuildingBlock: CEKHIL_clean_sbu_0, # of connection points: 4
#     Node 8, Type 0, BuildingBlock: CEKHIL_clean_sbu_0, # of connection points: 4
#     Node 9, Type 0, BuildingBlock: CEKHIL_clean_sbu_0, # of connection points: 4
#     Node 10, Type 0, BuildingBlock: CEKHIL_clean_sbu_0, # of connection points: 4
#     Node 11, Type 0, BuildingBlock: CEKHIL_clean_sbu_0, # of connection points: 4
#     Edge 12, Type (0, 0), None
#     Edge 13, Type (0, 0), None
#     Edge 14, Type (0, 0), None
#     Edge 15, Type (0, 0), None
#     Edge 16, Type (0, 0), None
#     Edge 17, Type (0, 0), None
#     Edge 18, Type (0, 0), None
#     Edge 19, Type (0, 0), None
#     Edge 20, Type (0, 0), None
#     Edge 21, Type (0, 0), None
#     Edge 22, Type (0, 0), None
#     Edge 23, Type (0, 0), None
#     Edge 24, Type (0, 0), None
#     Edge 25, Type (0, 0), None
#     Edge 26, Type (0, 0), None
#     Edge 27, Type (0, 0), None
#     Edge 28, Type (0, 0), None
#     Edge 29, Type (0, 0), None
#     Edge 30, Type (0, 0), None
#     Edge 31, Type (0, 0), None
#     Edge 32, Type (0, 0), None
#     Edge 33, Type (0, 0), None
#     Edge 34, Type (0, 0), None
#     Edge 35, Type (0, 0), None
# Relax obj value: 0.231
# Max RMSD: 0.187
# Mean RMSD: 0.176
data_MOF--net-unf--node1-CEKHIL_clean_sbu_0--edge1-none
_symmetry_space_group_name_H-M    P1
_symmetry_Int_Tables_number       1
_symmetry_cell_setting            triclinic
loop_
_symmetry_equiv_pos_as_xyz
'x, y, z'
_cell_length_a     16.918466
_cell_length_b     16.745543
_cell_length_c     14.941495
_cell_angle_alpha  89.342068
_cell_angle_beta   91.300105
_cell_angle_gamma 120.37344
loop_
_atom_site_label
_atom_site_type_symbol
_atom_site_fract_x
_atom_site_fract_y
_atom_site_fract_z
_atom_type_partial_charge
Co0 Co 0.10236 0.38914 0.1291 0.0
O1 O 0.19726 0.47533 0.21411 0.0
O2 O 0.10814 0.32517 0.23564 0.0
C3 C 0.02858 0.46339 0.0782 0.0
O4 O 1.00043 0.28027 0.06166 0.0
Co5 Co 0.1311 0.44281 0.92694 0.0
O6 O 0.01627 0.32214 0.91601 0.0
C7 C 0.24527 0.38119 1.01024 0.0
C8 C 0.17927 0.40244 0.26172 0.0
C9 C 0.97467 0.26515 0.97908 0.0
O10 O 0.19579 0.36362 0.07922 0.0
O11 O 0.23662 0.42061 0.94019 0.0
O12 O 0.0113 0.42589 0.15776 0.0
O13 O 0.10233 0.47275 1.04352 0.0
Co14 Co 0.60091 0.69076 0.11076 0.0
O15 O 0.51207 0.6956 0.19302 0.0
O16 O 0.66072 0.76583 0.21633 0.0
C17 C 0.53757 0.53921 0.06654 0.0
O18 O 0.7142 0.70465 0.05483 0.0
Co19 Co 0.55149 0.63628 0.90501 0.0
O20 O 0.67581 0.65234 0.91291 0.0
C21 C 0.61062 0.82446 0.96188 0.0
C22 C 0.58249 0.75209 0.24302 0.0
C23 C 0.73201 0.68339 0.97915 0.0
O24 O 0.61994 0.80589 1.04444 0.0
O25 O 0.57797 0.76499 0.89888 0.0
O26 O 0.57319 0.56375 0.14715 0.0
O27 O 0.52263 0.59894 1.0274 0.0
Co28 Co 0.31539 0.89056 0.14754 0.0
O29 O 0.29415 0.78575 0.22817 0.0
O30 O 0.24037 0.87865 0.24912 0.0
C31 C 0.46908 0.9664 0.11423 0.0
O32 O 0.32065 0.00374 0.09406 0.0
Co33 Co 0.37562 0.91077 0.94558 0.0
O34 O 0.38316 0.03228 0.95735 0.0
C35 C 0.18378 0.78575 0.9896 0.0
C36 C 0.24334 0.80651 0.27614 0.0
C37 C 0.35415 0.0549 1.02491 0.0
O38 O 0.19926 0.80713 0.07373 0.0
O39 O 0.24587 0.81421 0.93094 0.0
O40 O 0.44353 0.97622 0.19324 0.0
O41 O 0.40535 0.8989 0.06877 0.0
Co42 Co 0.59214 0.89051 0.45062 0.0
O43 O 0.50852 0.7857 0.36995 0.0
O44 O 0.65527 0.87863 0.34902 0.0
C45 C 0.51433 0.96636 0.48397 0.0
O46 O 0.70014 0.00369 0.50412 0.0
Co47 Co 0.55209 0.91061 0.6526 0.0
O48 O 0.66607 0.0322 0.64078 0.0
C49 C 0.61898 0.78574 0.60855 0.0
C50 C 0.58012 0.80648 0.32199 0.0
C51 C 0.71775 0.05486 0.57324 0.0
O52 O 0.62482 0.80709 0.52442 0.0
O53 O 0.58538 0.81418 0.66724 0.0
O54 O 0.5497 0.97617 0.40495 0.0
O55 O 0.51051 0.89884 0.52941 0.0
Co56 Co 0.10682 0.69075 0.48733 0.0
O57 O 0.20051 0.69564 0.40508 0.0
O58 O 0.12206 0.76579 0.38178 0.0
C59 C 0.01858 0.53921 0.53154 0.0
O60 O 0.0074 0.70457 0.54326 0.0
Co61 Co 0.10176 0.63627 0.69307 0.0
O62 O 0.99358 0.65244 0.68524 0.0
C63 C 0.23082 0.82449 0.6362 0.0
C64 C 0.18659 0.75211 0.3551 0.0
C65 C 0.96841 0.68344 0.61899 0.0
O66 O 0.20295 0.8059 0.55363 0.0
O67 O 0.204 0.76504 0.69921 0.0
O68 O 0.00748 0.56372 0.45094 0.0
O69 O 0.09329 0.59896 0.57068 0.0
Co70 Co 0.30368 0.38909 0.46889 0.0
O71 O 0.29497 0.4753 0.38396 0.0
O72 O 0.23388 0.32516 0.36232 0.0
C73 C 0.45176 0.46341 0.51976 0.0
O74 O 0.29676 0.28022 0.53625 0.0
Co75 Co 0.32871 0.4427 0.67109 0.0
O76 O 0.32302 0.32214 0.68188 0.0
C77 C 0.15287 0.38116 0.58778 0.0
C78 C 0.24003 0.40243 0.33631 0.0
C79 C 0.30755 0.26514 0.61881 0.0
O80 O 0.18469 0.36348 0.51882 0.0
O81 O 0.20102 0.42063 0.6578 0.0
O82 O 0.43154 0.42595 0.44018 0.0
O83 O 0.38735 0.47268 0.55448 0.0
Co84 Co 0.90354 0.56717 0.95946 0.0
O85 O 0.9722 0.50381 0.94274 0.0
O86 O 0.91123 0.50814 0.07036 0.0
C87 C 0.80828 0.5292 0.83185 0.0
O88 O 0.83157 0.62632 0.99947 0.0
Co89 Co 0.95576 0.7307 0.83049 0.0
O90 O 0.86346 0.74085 0.8999 0.0
C91 C 0.09021 0.73619 0.95286 0.0
C92 C 0.96603 0.48844 1.02871 0.0
C93 C 0.81936 0.69042 0.96572 0.0
O94 O 0.02329 0.67888 1.00065 0.0
O95 O 0.07849 0.75684 0.87325 0.0
O96 O 0.78725 0.47044 0.89772 0.0
O97 O 0.89191 0.59685 0.83911 0.0
Co98 Co 0.46428 0.33166 0.92847 0.0
O99 O 0.55938 0.30974 0.87719 0.0
O100 O 0.44049 0.29528 0.80281 0.0
C101 C 0.53922 0.46517 1.0111 0.0
O102 O 0.35293 0.3449 0.95037 0.0
Co103 Co 0.43143 0.31702 0.13664 0.0
O104 O 0.34517 0.35824 0.09985 0.0
C105 C 0.37766 0.15062 1.032 0.0
C106 C 0.50989 0.28251 0.80338 0.0
C107 C 0.31906 0.36066 1.01966 0.0
O108 O 0.39493 0.19725 0.95945 0.0
O109 O 0.39367 0.18614 0.11021 0.0
O110 O 0.53571 0.46747 0.9236 0.0
O111 O 0.51706 0.38473 1.0428 0.0
Co112 Co 0.68061 0.10715 0.97842 0.0
O113 O 0.54835 0.04442 0.97834 0.0
O114 O 0.63312 0.08882 0.1016 0.0
C115 C 0.7196 0.21171 0.85808 0.0
O116 O 0.81721 0.17007 1.00271 0.0
Co117 Co 0.76344 0.06696 0.81174 0.0
O118 O 0.87911 0.15355 0.87639 0.0
C119 C 0.64875 0.92043 0.93399 0.0
C120 C 0.55163 0.03992 0.06532 0.0
C121 C 0.88609 0.18631 0.95482 0.0
O122 O 0.66885 0.98247 0.99313 0.0
O123 O 0.6699 0.93978 0.85185 0.0
O124 O 0.70109 0.23144 0.93647 0.0
O125 O 0.69826 0.12637 0.85344 0.0
Co126 Co 0.44358 0.10719 0.61967 0.0
O127 O 0.51303 0.0444 0.61985 0.0
O128 O 0.47283 0.08881 0.49653 0.0
C129 C 0.50905 0.21178 0.73995 0.0
O130 O 0.36997 0.17014 0.59524 0.0
Co131 Co 0.32033 0.06696 0.78622 0.0
O132 O 0.29134 0.1535 0.72145 0.0
C133 C 0.28865 0.92048 0.66407 0.0
C134 C 0.50531 0.03987 0.53286 0.0
C135 C 0.31725 0.18631 0.64306 0.0
O136 O 0.33056 0.98253 0.60492 0.0
O137 O 0.28681 0.93983 0.7462 0.0
O138 O 0.54748 0.2315 0.66165 0.0
O139 O 0.44502 0.12642 0.74463 0.0
Co140 Co 0.88432 0.33167 0.66962 0.0
O141 O 0.76725 0.30967 0.72087 0.0
O142 O 0.87177 0.29532 0.79528 0.0
C143 C 0.94286 0.46515 0.58699 0.0
O144 O 0.00895 0.34501 0.6477 0.0
Co145 Co 0.90249 0.31705 0.46143 0.0
O146 O 0.03 0.35825 0.49821 0.0
C147 C 0.78993 0.15062 0.56613 0.0
C148 C 0.78954 0.28243 0.79465 0.0
C149 C 0.05856 0.3607 0.57838 0.0
O150 O 0.81925 0.19727 0.63866 0.0
O151 O 0.80943 0.18612 0.48791 0.0
O152 O 0.94871 0.46747 0.67449 0.0
O153 O 0.88457 0.3847 0.5553 0.0
Co154 Co 0.6806 0.56722 0.63857 0.0
O155 O 0.54852 0.50376 0.65524 0.0
O156 O 0.61392 0.50826 0.52763 0.0
C157 C 0.7379 0.52923 0.7661 0.0
O158 O 0.81177 0.62646 0.59858 0.0
Co159 Co 0.79194 0.73067 0.76764 0.0
O160 O 0.89446 0.74085 0.6983 0.0
C161 C 0.663 0.73621 0.64526 0.0
C162 C 0.53937 0.48846 0.56926 0.0
C163 C 0.88811 0.69049 0.63243 0.0
O164 O 0.67257 0.67892 0.59745 0.0
O165 O 0.6954 0.75685 0.72487 0.0
O166 O 0.70012 0.47049 0.70021 0.0
O167 O 0.72188 0.59682 0.75895 0.0
loop_
_geom_bond_atom_site_label_1
_geom_bond_atom_site_label_2
_geom_bond_distance
_geom_bond_site_symmetry_2
_ccdc_geom_bond_type
Co0 O1 2.216 . S
Co0 O2 2.091 . S
Co0 O4 2.004 1_455 S
Co0 O10 2.021 . S
Co0 O12 2.137 . S
Co0 O13 2.244 1_554 S
O1 Co0 2.216 . S
O1 C8 1.247 . S
O2 Co0 2.091 . S
O2 C8 1.261 . S
C3 O12 1.247 . S
C3 O13 1.272 1_554 S
O4 Co0 2.004 1_655 S
O4 C9 1.259 1_554 S
Co5 O6 2.061 1_455 S
Co5 O11 2.052 . S
Co5 O13 2.135 . S
O6 Co5 2.061 1_655 S
O6 C9 1.235 . S
C7 O10 1.238 1_556 S
C7 O11 1.241 . S
C8 O1 1.247 . S
C8 O2 1.261 . S
C9 O4 1.259 1_556 S
C9 O6 1.235 . S
O10 Co0 2.021 . S
O10 C7 1.238 1_554 S
O11 Co5 2.052 . S
O11 C7 1.241 . S
O12 Co0 2.137 . S
O12 C3 1.247 . S
O13 Co0 2.244 1_556 S
O13 C3 1.272 1_556 S
O13 Co5 2.135 . S
Co14 O15 2.216 . S
Co14 O16 2.091 . S
Co14 O18 2.004 . S
Co14 O24 2.021 . S
Co14 O26 2.137 . S
Co14 O27 2.244 1_554 S
O15 Co14 2.216 . S
O15 C22 1.247 . S
O16 Co14 2.091 . S
O16 C22 1.261 . S
C17 O26 1.247 . S
C17 O27 1.272 1_554 S
O18 Co14 2.004 . S
O18 C23 1.259 1_554 S
Co19 O20 2.061 . S
Co19 O25 2.052 . S
Co19 O27 2.135 . S
O20 Co19 2.061 . S
O20 C23 1.235 . S
C21 O24 1.238 1_556 S
C21 O25 1.241 . S
C22 O15 1.247 . S
C22 O16 1.261 . S
C23 O18 1.259 1_556 S
C23 O20 1.235 . S
O24 Co14 2.021 . S
O24 C21 1.238 1_554 S
O25 Co19 2.052 . S
O25 C21 1.241 . S
O26 Co14 2.137 . S
O26 C17 1.247 . S
O27 Co14 2.244 1_556 S
O27 C17 1.272 1_556 S
O27 Co19 2.135 . S
Co28 O29 2.216 . S
Co28 O30 2.091 . S
Co28 O32 2.004 1_565 S
Co28 O38 2.021 . S
Co28 O40 2.137 . S
Co28 O41 2.244 1_554 S
O29 Co28 2.216 . S
O29 C36 1.247 . S
O30 Co28 2.091 . S
O30 C36 1.261 . S
C31 O40 1.247 . S
C31 O41 1.272 1_554 S
O32 Co28 2.004 1_545 S
O32 C37 1.259 1_554 S
Co33 O34 2.061 1_565 S
Co33 O39 2.052 . S
Co33 O41 2.135 . S
O34 Co33 2.061 1_545 S
O34 C37 1.235 . S
C35 O38 1.238 1_556 S
C35 O39 1.241 . S
C36 O29 1.247 . S
C36 O30 1.261 . S
C37 O32 1.259 1_556 S
C37 O34 1.235 . S
O38 Co28 2.021 . S
O38 C35 1.238 1_554 S
O39 Co33 2.052 . S
O39 C35 1.241 . S
O40 Co28 2.137 . S
O40 C31 1.247 . S
O41 Co28 2.244 1_556 S
O41 C31 1.272 1_556 S
O41 Co33 2.135 . S
Co42 O43 2.216 . S
Co42 O44 2.091 . S
Co42 O46 2.004 1_565 S
Co42 O52 2.021 . S
Co42 O54 2.137 . S
Co42 O55 2.244 . S
O43 Co42 2.216 . S
O43 C50 1.247 . S
O44 Co42 2.091 . S
O44 C50 1.261 . S
C45 O54 1.247 . S
C45 O55 1.272 . S
O46 Co42 2.004 1_545 S
O46 C51 1.259 . S
Co47 O48 2.061 1_565 S
Co47 O53 2.052 . S
Co47 O55 2.135 . S
O48 Co47 2.061 1_545 S
O48 C51 1.235 . S
C49 O52 1.238 . S
C49 O53 1.241 . S
C50 O43 1.247 . S
C50 O44 1.261 . S
C51 O46 1.259 . S
C51 O48 1.235 . S
O52 Co42 2.021 . S
O52 C49 1.238 . S
O53 Co47 2.052 . S
O53 C49 1.241 . S
O54 Co42 2.137 . S
O54 C45 1.247 . S
O55 Co42 2.244 . S
O55 C45 1.272 . S
O55 Co47 2.135 . S
Co56 O57 2.216 . S
Co56 O58 2.091 . S
Co56 O60 2.004 1_455 S
Co56 O66 2.021 . S
Co56 O68 2.137 . S
Co56 O69 2.244 . S
O57 Co56 2.216 . S
O57 C64 1.247 . S
O58 Co56 2.091 . S
O58 C64 1.261 . S
C59 O68 1.247 . S
C59 O69 1.272 . S
O60 Co56 2.004 1_655 S
O60 C65 1.259 . S
Co61 O62 2.061 1_455 S
Co61 O67 2.052 . S
Co61 O69 2.135 . S
O62 Co61 2.061 1_655 S
O62 C65 1.235 . S
C63 O66 1.238 . S
C63 O67 1.241 . S
C64 O57 1.247 . S
C64 O58 1.261 . S
C65 O60 1.259 . S
C65 O62 1.235 . S
O66 Co56 2.021 . S
O66 C63 1.238 . S
O67 Co61 2.052 . S
O67 C63 1.241 . S
O68 Co56 2.137 . S
O68 C59 1.247 . S
O69 Co56 2.244 . S
O69 C59 1.272 . S
O69 Co61 2.135 . S
Co70 O71 2.216 . S
Co70 O72 2.091 . S
Co70 O74 2.004 . S
Co70 O80 2.021 . S
Co70 O82 2.137 . S
Co70 O83 2.244 . S
O71 Co70 2.216 . S
O71 C78 1.247 . S
O72 Co70 2.091 . S
O72 C78 1.261 . S
C73 O82 1.247 . S
C73 O83 1.272 . S
O74 Co70 2.004 . S
O74 C79 1.259 . S
Co75 O76 2.061 . S
Co75 O81 2.052 . S
Co75 O83 2.135 . S
O76 Co75 2.061 . S
O76 C79 1.235 . S
C77 O80 1.238 . S
C77 O81 1.241 . S
C78 O71 1.247 . S
C78 O72 1.261 . S
C79 O74 1.259 . S
C79 O76 1.235 . S
O80 Co70 2.021 . S
O80 C77 1.238 . S
O81 Co75 2.052 . S
O81 C77 1.241 . S
O82 Co70 2.137 . S
O82 C73 1.247 . S
O83 Co70 2.244 . S
O83 C73 1.272 . S
O83 Co75 2.135 . S
Co84 O85 2.216 . S
Co84 O86 2.091 . S
Co84 O88 2.004 . S
Co84 O94 2.021 1_655 S
Co84 O96 2.137 . S
Co84 O97 2.244 . S
O85 Co84 2.216 . S
O85 C92 1.247 . S
O86 Co84 2.091 . S
O86 C92 1.261 . S
C87 O96 1.247 . S
C87 O97 1.272 . S
O88 Co84 2.004 . S
O88 C93 1.259 . S
Co89 O90 2.061 . S
Co89 O95 2.052 1_655 S
Co89 O97 2.135 . S
O90 Co89 2.061 . S
O90 C93 1.235 . S
C91 O94 1.238 . S
C91 O95 1.241 . S
C92 O85 1.247 . S
C92 O86 1.261 . S
C93 O88 1.259 . S
C93 O90 1.235 . S
O94 Co84 2.021 1_455 S
O94 C91 1.238 . S
O95 Co89 2.052 1_455 S
O95 C91 1.241 . S
O96 Co84 2.137 . S
O96 C87 1.247 . S
O97 Co84 2.244 . S
O97 C87 1.272 . S
O97 Co89 2.135 . S
Co98 O99 2.216 . S
Co98 O100 2.091 . S
Co98 O102 2.004 . S
Co98 O108 2.021 . S
Co98 O110 2.137 . S
Co98 O111 2.244 . S
O99 Co98 2.216 . S
O99 C106 1.247 . S
O100 Co98 2.091 . S
O100 C106 1.261 . S
C101 O110 1.247 . S
C101 O111 1.272 . S
O102 Co98 2.004 . S
O102 C107 1.259 . S
Co103 O104 2.061 . S
Co103 O109 2.052 . S
Co103 O111 2.135 1_554 S
O104 Co103 2.061 . S
O104 C107 1.235 1_554 S
C105 O108 1.238 1_554 S
C105 O109 1.241 . S
C106 O99 1.247 . S
C106 O100 1.261 . S
C107 O102 1.259 . S
C107 O104 1.235 1_556 S
O108 Co98 2.021 . S
O108 C105 1.238 1_556 S
O109 Co103 2.052 . S
O109 C105 1.241 . S
O110 Co98 2.137 . S
O110 C101 1.247 . S
O111 Co98 2.244 . S
O111 C101 1.272 . S
O111 Co103 2.135 1_556 S
Co112 O113 2.216 1_545 S
Co112 O114 2.091 . S
Co112 O116 2.004 . S
Co112 O122 2.021 1_545 S
Co112 O124 2.137 . S
Co112 O125 2.244 . S
O113 Co112 2.216 1_565 S
O113 C120 1.247 1_565 S
O114 Co112 2.091 . S
O114 C120 1.261 . S
C115 O124 1.247 . S
C115 O125 1.272 . S
O116 Co112 2.004 . S
O116 C121 1.259 . S
Co117 O118 2.061 . S
Co117 O123 2.052 1_545 S
Co117 O125 2.135 . S
O118 Co117 2.061 . S
O118 C121 1.235 . S
C119 O122 1.238 . S
C119 O123 1.241 . S
C120 O113 1.247 1_545 S
C120 O114 1.261 . S
C121 O116 1.259 . S
C121 O118 1.235 . S
O122 Co112 2.021 1_565 S
O122 C119 1.238 . S
O123 Co117 2.052 1_565 S
O123 C119 1.241 . S
O124 Co112 2.137 . S
O124 C115 1.247 . S
O125 Co112 2.244 . S
O125 C115 1.272 . S
O125 Co117 2.135 . S
Co126 O127 2.216 1_545 S
Co126 O128 2.091 . S
Co126 O130 2.004 . S
Co126 O136 2.021 1_545 S
Co126 O138 2.137 . S
Co126 O139 2.244 . S
O127 Co126 2.216 1_565 S
O127 C134 1.247 1_565 S
O128 Co126 2.091 . S
O128 C134 1.261 . S
C129 O138 1.247 . S
C129 O139 1.272 . S
O130 Co126 2.004 . S
O130 C135 1.259 . S
Co131 O132 2.061 . S
Co131 O137 2.052 1_545 S
Co131 O139 2.135 . S
O132 Co131 2.061 . S
O132 C135 1.235 . S
C133 O136 1.238 . S
C133 O137 1.241 . S
C134 O127 1.247 1_545 S
C134 O128 1.261 . S
C135 O130 1.259 . S
C135 O132 1.235 . S
O136 Co126 2.021 1_565 S
O136 C133 1.238 . S
O137 Co131 2.052 1_565 S
O137 C133 1.241 . S
O138 Co126 2.137 . S
O138 C129 1.247 . S
O139 Co126 2.244 . S
O139 C129 1.272 . S
O139 Co131 2.135 . S
Co140 O141 2.216 . S
Co140 O142 2.091 . S
Co140 O144 2.004 1_655 S
Co140 O150 2.021 . S
Co140 O152 2.137 . S
Co140 O153 2.244 . S
O141 Co140 2.216 . S
O141 C148 1.247 . S
O142 Co140 2.091 . S
O142 C148 1.261 . S
C143 O152 1.247 . S
C143 O153 1.272 . S
O144 Co140 2.004 1_455 S
O144 C149 1.259 . S
Co145 O146 2.061 1_655 S
Co145 O151 2.052 . S
Co145 O153 2.135 . S
O146 Co145 2.061 1_455 S
O146 C149 1.235 . S
C147 O150 1.238 . S
C147 O151 1.241 . S
C148 O141 1.247 . S
C148 O142 1.261 . S
C149 O144 1.259 . S
C149 O146 1.235 . S
O150 Co140 2.021 . S
O150 C147 1.238 . S
O151 Co145 2.052 . S
O151 C147 1.241 . S
O152 Co140 2.137 . S
O152 C143 1.247 . S
O153 Co140 2.244 . S
O153 C143 1.272 . S
O153 Co145 2.135 . S
Co154 O155 2.216 . S
Co154 O156 2.091 . S
Co154 O158 2.004 . S
Co154 O164 2.021 . S
Co154 O166 2.137 . S
Co154 O167 2.244 . S
O155 Co154 2.216 . S
O155 C162 1.247 . S
O156 Co154 2.091 . S
O156 C162 1.261 . S
C157 O166 1.247 . S
C157 O167 1.272 . S
O158 Co154 2.004 . S
O158 C163 1.259 . S
Co159 O160 2.061 . S
Co159 O165 2.052 . S
Co159 O167 2.135 . S
O160 Co159 2.061 . S
O160 C163 1.235 . S
C161 O164 1.238 . S
C161 O165 1.241 . S
C162 O155 1.247 . S
C162 O156 1.261 . S
C163 O158 1.259 . S
C163 O160 1.235 . S
O164 Co154 2.021 . S
O164 C161 1.238 . S
O165 Co159 2.052 . S
O165 C161 1.241 . S
O166 Co154 2.137 . S
O166 C157 1.247 . S
O167 Co154 2.244 . S
O167 C157 1.272 . S
O167 Co159 2.135 . S
C7 C107 1.082 . S
C21 C119 0.998 . S
C35 C91 1.005 . S
C161 C49 1.005 . S
C63 C133 0.998 . S
C149 C77 1.082 . S
C23 C93 0.873 . S
C105 C37 1.097 1_554 S
C9 C121 0.888 . S
C135 C79 0.887 . S
C147 C51 1.097 . S
C65 C163 0.873 . S
C78 C8 1.822 . S
C22 C50 1.929 . S
C36 C64 1.929 . S
C87 C157 1.976 . S
C106 C129 2.056 . S
C115 C148 2.056 . S
C3 C92 2.244 1_454 S
C17 C101 2.208 1_554 S
C31 C120 2.183 1_564 S
C45 C134 2.183 1_565 S
C143 C59 2.208 1_655 S
C73 C162 2.244 . S
