# Generated by pormake.
# Topology wgw, (6)-cn, num edge types: 1
# Building blocks:
#     Node 0, Type 0, BuildingBlock: IZENUY_clean_sbu_0, # of connection points: 6
#     Node 1, Type 0, BuildingBlock: IZENUY_clean_sbu_0, # of connection points: 6
#     Node 2, Type 0, BuildingBlock: IZENUY_clean_sbu_0, # of connection points: 6
#     Node 3, Type 0, BuildingBlock: IZENUY_clean_sbu_0, # of connection points: 6
#     Node 4, Type 0, BuildingBlock: IZENUY_clean_sbu_0, # of connection points: 6
#     Node 5, Type 0, BuildingBlock: IZENUY_clean_sbu_0, # of connection points: 6
#     Node 6, Type 0, BuildingBlock: IZENUY_clean_sbu_0, # of connection points: 6
#     Node 7, Type 0, BuildingBlock: IZENUY_clean_sbu_0, # of connection points: 6
#     Edge 8, Type (0, 0), None
#     Edge 9, Type (0, 0), None
#     Edge 10, Type (0, 0), None
#     Edge 11, Type (0, 0), None
#     Edge 12, Type (0, 0), None
#     Edge 13, Type (0, 0), None
#     Edge 14, Type (0, 0), None
#     Edge 15, Type (0, 0), None
#     Edge 16, Type (0, 0), None
#     Edge 17, Type (0, 0), None
#     Edge 18, Type (0, 0), None
#     Edge 19, Type (0, 0), None
#     Edge 20, Type (0, 0), None
#     Edge 21, Type (0, 0), None
#     Edge 22, Type (0, 0), None
#     Edge 23, Type (0, 0), None
#     Edge 24, Type (0, 0), None
#     Edge 25, Type (0, 0), None
#     Edge 26, Type (0, 0), None
#     Edge 27, Type (0, 0), None
#     Edge 28, Type (0, 0), None
#     Edge 29, Type (0, 0), None
#     Edge 30, Type (0, 0), None
#     Edge 31, Type (0, 0), None
# Relax obj value: 0.277
# Max RMSD: 0.289
# Mean RMSD: 0.289
data_MOF--net-wgw--node1-IZENUY_clean_sbu_0--edge1-none
_symmetry_space_group_name_H-M    P1
_symmetry_Int_Tables_number       1
_symmetry_cell_setting            triclinic
loop_
_symmetry_equiv_pos_as_xyz
'x, y, z'
_cell_length_a     12.812147
_cell_length_b     12.812328
_cell_length_c     20.499584
_cell_angle_alpha  89.999996
_cell_angle_beta   89.999971
_cell_angle_gamma 89.999998
loop_
_atom_site_label
_atom_site_type_symbol
_atom_site_fract_x
_atom_site_fract_y
_atom_site_fract_z
_atom_type_partial_charge
Fe0 Fe 1.01539 0.36943 0.16205 0.0
Fe1 Fe 0.18279 0.53681 0.16207 0.0
O2 O 0.09853 0.45368 0.20536 0.0
Fe3 Fe 0.092 0.46018 0.29261 0.0
O4 O 0.09155 0.31962 0.30793 0.0
O5 O 0.98788 0.28334 0.22771 0.0
O6 O 0.13531 0.29113 0.13949 0.0
C7 C 0.2332 0.319 0.13535 0.0
C8 C 0.88951 0.48696 0.24377 0.0
O9 O 0.26107 0.41689 0.13948 0.0
C10 C 0.06534 0.66271 0.24382 0.0
O11 O 1.00493 0.42943 0.083 0.0
O12 O 0.12277 0.54734 0.08303 0.0
O13 O 0.95234 0.46454 0.28934 0.0
O14 O 0.9021 0.45068 0.18613 0.0
C15 C 0.28918 0.52972 0.28298 0.0
O16 O 0.10156 0.65011 0.18617 0.0
O17 O 0.08765 0.59983 0.28938 0.0
C18 C 0.04597 0.50627 0.05724 0.0
O19 O 0.26889 0.56427 0.22774 0.0
O20 O 0.23255 0.4606 0.30795 0.0
C21 C 1.02245 0.26301 0.28294 0.0
Fe22 Fe 1.01538 0.18279 0.66207 0.0
Fe23 Fe 0.09201 0.092 0.79261 0.0
O24 O 0.09852 0.09852 0.70536 0.0
Fe25 Fe 0.18276 1.01539 0.66205 0.0
O26 O 0.26107 0.1353 0.63949 0.0
O27 O 0.1353 0.26107 0.63948 0.0
O28 O 0.98792 0.26888 0.72774 0.0
C29 C 1.02248 0.28918 0.78297 0.0
C30 C 0.04593 0.04597 0.55724 0.0
O31 O 0.0916 0.23255 0.80794 0.0
C32 C 0.06523 0.88951 0.74377 0.0
O33 O 0.90208 0.10156 0.68617 0.0
O34 O 0.95236 0.08766 0.78938 0.0
O35 O 0.12276 1.00492 0.58301 0.0
O36 O 1.00486 0.12277 0.58302 0.0
C37 C 0.28919 1.02244 0.78294 0.0
O38 O 0.08764 0.95234 0.78935 0.0
O39 O 0.10151 0.9021 0.68614 0.0
C40 C 0.88949 0.06533 0.74382 0.0
O41 O 0.23257 0.09154 0.80794 0.0
O42 O 0.26885 0.98788 0.72772 0.0
C43 C 0.23319 0.23319 0.63535 0.0
Fe44 Fe 0.46021 0.09201 0.29261 0.0
Fe45 Fe 0.53681 0.18276 0.16205 0.0
O46 O 0.45368 0.09851 0.20536 0.0
Fe47 Fe 0.36941 1.01538 0.16207 0.0
O48 O 0.28331 0.98792 0.22774 0.0
O49 O 0.31965 0.09159 0.30795 0.0
O50 O 0.46065 0.23257 0.30793 0.0
C51 C 0.52976 0.28918 0.28294 0.0
C52 C 0.48687 0.88948 0.24382 0.0
O53 O 0.56433 0.26885 0.22771 0.0
C54 C 0.50623 0.04592 0.05724 0.0
O55 O 0.59986 0.08765 0.28934 0.0
O56 O 0.6501 0.1015 0.18613 0.0
O57 O 0.45064 0.90208 0.18617 0.0
O58 O 0.46455 0.95236 0.28938 0.0
C59 C 0.31901 0.23318 0.13535 0.0
O60 O 0.54728 0.12276 0.083 0.0
O61 O 0.42943 1.00485 0.08303 0.0
C62 C 0.66269 0.06522 0.24377 0.0
O63 O 0.4169 0.26106 0.13949 0.0
O64 O 0.29113 0.1353 0.13948 0.0
C65 C 0.26302 1.02247 0.28298 0.0
Fe66 Fe 0.36944 0.5368 0.66205 0.0
Fe67 Fe 0.53682 0.3694 0.66207 0.0
O68 O 0.45369 0.45367 0.70536 0.0
Fe69 Fe 0.46019 0.46019 0.79261 0.0
O70 O 0.31964 0.46065 0.80794 0.0
O71 O 0.28335 0.56431 0.72772 0.0
O72 O 0.29113 0.41689 0.63949 0.0
C73 C 0.31902 0.319 0.63535 0.0
C74 C 0.48698 0.66268 0.74377 0.0
O75 O 0.4169 0.29112 0.63948 0.0
C76 C 0.66272 0.48686 0.74382 0.0
O77 O 0.42944 0.54727 0.58301 0.0
O78 O 0.54735 0.42942 0.58302 0.0
O79 O 0.46457 0.59985 0.78935 0.0
O80 O 0.45069 0.65009 0.68614 0.0
C81 C 0.52972 0.26301 0.78297 0.0
O82 O 0.65012 0.45063 0.68617 0.0
O83 O 0.59984 0.46453 0.78938 0.0
C84 C 0.50627 0.50622 0.55724 0.0
O85 O 0.56428 0.28331 0.72774 0.0
O86 O 0.4606 0.31964 0.80794 0.0
C87 C 0.26302 0.52975 0.78294 0.0
Fe88 Fe 0.68279 0.51537 0.38957 0.0
Fe89 Fe 0.59199 0.59201 0.25901 0.0
O90 O 0.59852 0.59851 0.34626 0.0
Fe91 Fe 0.51539 0.68276 0.38958 0.0
O92 O 0.63531 0.76106 0.41215 0.0
O93 O 0.76107 0.6353 0.41216 0.0
O94 O 0.76889 0.48794 0.3239 0.0
C95 C 0.78918 0.52249 0.26866 0.0
C96 C 0.54596 0.54591 0.49439 0.0
O97 O 0.73254 0.59158 0.24367 0.0
C98 C 0.38954 0.5652 0.30786 0.0
O99 O 0.60157 0.40206 0.36546 0.0
O100 O 0.58765 0.45236 0.26224 0.0
O101 O 0.50491 0.62275 0.46863 0.0
O102 O 0.62276 0.50483 0.4686 0.0
C103 C 0.52246 0.78918 0.2687 0.0
O104 O 0.45234 0.58764 0.26228 0.0
O105 O 0.40209 0.60152 0.3655 0.0
C106 C 0.56531 0.38951 0.30781 0.0
O107 O 0.59154 0.73256 0.24369 0.0
O108 O 0.48789 0.76885 0.32392 0.0
C109 C 0.73319 0.73318 0.41628 0.0
Fe110 Fe 0.03683 0.68278 0.88957 0.0
Fe111 Fe 0.9602 0.59199 0.75901 0.0
O112 O 0.9537 0.59852 0.84626 0.0
Fe113 Fe 0.86944 0.51538 0.88958 0.0
O114 O 0.79114 0.6353 0.91215 0.0
O115 O 0.9169 0.76106 0.91215 0.0
O116 O 0.06427 0.76888 0.8239 0.0
C117 C 0.02971 0.78918 0.76867 0.0
C118 C 1.00629 0.54595 0.99439 0.0
O119 O 0.96062 0.73254 0.74368 0.0
C120 C 0.987 0.38953 0.80786 0.0
O121 O 0.15014 0.60157 0.86546 0.0
O122 O 0.09985 0.58765 0.76225 0.0
O123 O 0.92946 0.5049 0.96862 0.0
O124 O 0.04736 0.62276 0.96861 0.0
C125 C 0.76302 0.52246 0.7687 0.0
O126 O 0.96457 0.45234 0.76227 0.0
O127 O 0.95068 0.40208 0.86549 0.0
C128 C 0.16269 0.56531 0.80782 0.0
O129 O 0.81965 0.59153 0.74368 0.0
O130 O 0.78335 0.48789 0.82392 0.0
C131 C 0.81902 0.73319 0.91628 0.0
Fe132 Fe 0.96021 0.96018 0.25901 0.0
Fe133 Fe 0.03682 0.86943 0.38958 0.0
O134 O 0.95368 0.95368 0.34626 0.0
Fe135 Fe 0.86942 0.03682 0.38957 0.0
O136 O 0.78331 0.06425 0.3239 0.0
O137 O 0.81966 0.96061 0.24367 0.0
O138 O 0.96067 0.81963 0.24369 0.0
C139 C 0.02974 0.76301 0.2687 0.0
C140 C 0.98689 0.16268 0.30781 0.0
O141 O 0.06432 0.78334 0.32392 0.0
C142 C 1.00624 1.00628 0.49439 0.0
O143 O 0.09987 0.96455 0.26228 0.0
O144 O 0.15012 0.95067 0.3655 0.0
O145 O 0.95063 0.15013 0.36546 0.0
O146 O 0.96456 0.09983 0.26224 0.0
C147 C 0.81901 0.81901 0.41629 0.0
O148 O 0.04729 0.92944 0.46863 0.0
O149 O 0.92944 0.04736 0.4686 0.0
C150 C 0.16267 0.98699 0.30786 0.0
O151 O 0.9169 0.79113 0.41215 0.0
O152 O 0.79113 0.9169 0.41216 0.0
C153 C 0.76303 0.0297 0.26866 0.0
Fe154 Fe 0.68276 0.03681 0.88958 0.0
Fe155 Fe 0.51538 0.86941 0.88957 0.0
O156 O 0.59851 0.95367 0.84626 0.0
Fe157 Fe 0.59201 0.9602 0.75901 0.0
O158 O 0.73256 0.96066 0.74368 0.0
O159 O 0.76885 0.0643 0.82392 0.0
O160 O 0.76106 0.91689 0.91215 0.0
C161 C 0.73319 0.81901 0.91629 0.0
C162 C 0.5652 0.16265 0.80786 0.0
O163 O 0.6353 0.79112 0.91215 0.0
C164 C 0.38951 0.98688 0.80782 0.0
O165 O 0.62275 0.04729 0.96862 0.0
O166 O 0.50484 0.92943 0.96861 0.0
O167 O 0.58763 0.09985 0.76227 0.0
O168 O 0.60152 0.15011 0.86549 0.0
C169 C 0.5225 0.76301 0.76867 0.0
O170 O 0.40207 0.95062 0.86546 0.0
O171 O 0.45236 0.96453 0.76225 0.0
C172 C 0.54592 1.00623 0.99439 0.0
O173 O 0.48794 0.7833 0.8239 0.0
O174 O 0.59159 0.81965 0.74368 0.0
C175 C 0.78918 0.02973 0.7687 0.0
loop_
_geom_bond_atom_site_label_1
_geom_bond_atom_site_label_2
_geom_bond_distance
_geom_bond_site_symmetry_2
_ccdc_geom_bond_type
Fe0 O2 1.918 1_655 S
Fe0 O5 1.997 . S
Fe0 O6 2.002 1_655 S
Fe0 O11 1.976 . S
Fe0 O14 1.996 . S
Fe1 O2 1.918 . S
Fe1 O9 1.997 . S
Fe1 O12 1.996 . S
Fe1 O16 1.976 . S
Fe1 O19 2.002 . S
O2 Fe0 1.918 1_455 S
O2 Fe1 1.918 . S
O2 Fe3 1.918 . S
Fe3 O2 1.918 . S
Fe3 O4 2.002 . S
Fe3 O13 1.976 1_455 S
Fe3 O17 1.996 . S
Fe3 O20 1.997 . S
O4 Fe3 2.002 . S
O4 C21 1.295 . S
O5 Fe0 1.997 . S
O5 C21 1.235 1_655 S
O6 Fe0 2.002 1_455 S
O6 C7 1.295 . S
C7 O6 1.295 . S
C7 O9 1.235 . S
C8 O13 1.287 . S
C8 O14 1.255 . S
O9 Fe1 1.997 . S
O9 C7 1.235 . S
C10 O16 1.287 . S
C10 O17 1.255 . S
O11 Fe0 1.976 . S
O11 C18 1.287 1_655 S
O12 Fe1 1.996 . S
O12 C18 1.255 . S
O13 Fe3 1.976 1_655 S
O13 C8 1.287 . S
O14 Fe0 1.996 . S
O14 C8 1.255 . S
C15 O19 1.295 . S
C15 O20 1.235 . S
O16 Fe1 1.976 . S
O16 C10 1.287 . S
O17 Fe3 1.996 . S
O17 C10 1.255 . S
C18 O11 1.287 1_455 S
C18 O12 1.255 . S
O19 Fe1 2.002 . S
O19 C15 1.295 . S
O20 Fe3 1.997 . S
O20 C15 1.235 . S
C21 O4 1.295 . S
C21 O5 1.235 1_455 S
Fe22 O24 1.918 1_655 S
Fe22 O27 1.997 1_655 S
Fe22 O28 2.002 . S
Fe22 O33 1.976 . S
Fe22 O36 1.996 . S
Fe23 O24 1.918 . S
Fe23 O31 1.997 . S
Fe23 O34 1.996 1_455 S
Fe23 O38 1.976 1_545 S
Fe23 O41 2.002 . S
O24 Fe22 1.918 1_455 S
O24 Fe23 1.918 . S
O24 Fe25 1.918 1_545 S
Fe25 O24 1.918 1_565 S
Fe25 O26 2.002 1_565 S
Fe25 O35 1.976 . S
Fe25 O39 1.996 . S
Fe25 O42 1.997 . S
O26 Fe25 2.002 1_545 S
O26 C43 1.295 . S
O27 Fe22 1.997 1_455 S
O27 C43 1.235 . S
O28 Fe22 2.002 . S
O28 C29 1.293 1_655 S
C29 O28 1.293 1_455 S
C29 O31 1.236 . S
C30 O35 1.287 1_545 S
C30 O36 1.255 1_455 S
O31 Fe23 1.997 . S
O31 C29 1.236 . S
C32 O38 1.287 . S
C32 O39 1.255 . S
O33 Fe22 1.976 . S
O33 C40 1.287 . S
O34 Fe23 1.996 1_655 S
O34 C40 1.255 . S
O35 Fe25 1.976 . S
O35 C30 1.287 1_565 S
O36 Fe22 1.996 . S
O36 C30 1.255 1_655 S
C37 O41 1.295 . S
C37 O42 1.235 1_545 S
O38 Fe23 1.976 1_565 S
O38 C32 1.287 . S
O39 Fe25 1.996 . S
O39 C32 1.255 . S
C40 O33 1.287 . S
C40 O34 1.255 . S
O41 Fe23 2.002 . S
O41 C37 1.295 . S
O42 Fe25 1.997 . S
O42 C37 1.235 1_565 S
C43 O26 1.295 . S
C43 O27 1.235 . S
Fe44 O46 1.918 . S
Fe44 O49 1.997 . S
Fe44 O50 2.002 . S
Fe44 O55 1.976 . S
Fe44 O58 1.996 1_545 S
Fe45 O46 1.918 . S
Fe45 O53 1.997 . S
Fe45 O56 1.996 . S
Fe45 O60 1.976 . S
Fe45 O63 2.002 . S
O46 Fe44 1.918 . S
O46 Fe45 1.918 . S
O46 Fe47 1.918 1_545 S
Fe47 O46 1.918 1_565 S
Fe47 O48 2.002 . S
Fe47 O57 1.976 . S
Fe47 O61 1.996 . S
Fe47 O64 1.997 1_565 S
O48 Fe47 2.002 . S
O48 C65 1.293 1_565 S
O49 Fe44 1.997 . S
O49 C65 1.236 . S
O50 Fe44 2.002 . S
O50 C51 1.295 . S
C51 O50 1.295 . S
C51 O53 1.235 . S
C52 O57 1.287 . S
C52 O58 1.255 . S
O53 Fe45 1.997 . S
O53 C51 1.235 . S
C54 O60 1.287 . S
C54 O61 1.255 1_545 S
O55 Fe44 1.976 . S
O55 C62 1.287 . S
O56 Fe45 1.996 . S
O56 C62 1.255 . S
O57 Fe47 1.976 . S
O57 C52 1.287 . S
O58 Fe44 1.996 1_565 S
O58 C52 1.255 . S
C59 O63 1.295 . S
C59 O64 1.235 . S
O60 Fe45 1.976 . S
O60 C54 1.287 . S
O61 Fe47 1.996 . S
O61 C54 1.255 1_565 S
C62 O55 1.287 . S
C62 O56 1.255 . S
O63 Fe45 2.002 . S
O63 C59 1.295 . S
O64 Fe47 1.997 1_545 S
O64 C59 1.235 . S
C65 O48 1.293 1_545 S
C65 O49 1.236 . S
Fe66 O68 1.918 . S
Fe66 O71 1.997 . S
Fe66 O72 2.002 . S
Fe66 O77 1.976 . S
Fe66 O80 1.996 . S
Fe67 O68 1.918 . S
Fe67 O75 1.997 . S
Fe67 O78 1.996 . S
Fe67 O82 1.976 . S
Fe67 O85 2.002 . S
O68 Fe66 1.918 . S
O68 Fe67 1.918 . S
O68 Fe69 1.918 . S
Fe69 O68 1.918 . S
Fe69 O70 2.002 . S
Fe69 O79 1.976 . S
Fe69 O83 1.996 . S
Fe69 O86 1.997 . S
O70 Fe69 2.002 . S
O70 C87 1.295 . S
O71 Fe66 1.997 . S
O71 C87 1.235 . S
O72 Fe66 2.002 . S
O72 C73 1.295 . S
C73 O72 1.295 . S
C73 O75 1.235 . S
C74 O79 1.287 . S
C74 O80 1.255 . S
O75 Fe67 1.997 . S
O75 C73 1.235 . S
C76 O82 1.287 . S
C76 O83 1.255 . S
O77 Fe66 1.976 . S
O77 C84 1.287 . S
O78 Fe67 1.996 . S
O78 C84 1.255 . S
O79 Fe69 1.976 . S
O79 C74 1.287 . S
O80 Fe66 1.996 . S
O80 C74 1.255 . S
C81 O85 1.295 . S
C81 O86 1.235 . S
O82 Fe67 1.976 . S
O82 C76 1.287 . S
O83 Fe69 1.996 . S
O83 C76 1.255 . S
C84 O77 1.287 . S
C84 O78 1.255 . S
O85 Fe67 2.002 . S
O85 C81 1.295 . S
O86 Fe69 1.997 . S
O86 C81 1.235 . S
C87 O70 1.295 . S
C87 O71 1.235 . S
Fe88 O90 1.918 . S
Fe88 O93 1.997 . S
Fe88 O94 2.002 . S
Fe88 O99 1.976 . S
Fe88 O102 1.996 . S
Fe89 O90 1.918 . S
Fe89 O97 1.997 . S
Fe89 O100 1.996 . S
Fe89 O104 1.976 . S
Fe89 O107 2.002 . S
O90 Fe88 1.918 . S
O90 Fe89 1.918 . S
O90 Fe91 1.918 . S
Fe91 O90 1.918 . S
Fe91 O92 2.002 . S
Fe91 O101 1.976 . S
Fe91 O105 1.996 . S
Fe91 O108 1.997 . S
O92 Fe91 2.002 . S
O92 C109 1.295 . S
O93 Fe88 1.997 . S
O93 C109 1.235 . S
O94 Fe88 2.002 . S
O94 C95 1.295 . S
C95 O94 1.295 . S
C95 O97 1.235 . S
C96 O101 1.287 . S
C96 O102 1.255 . S
O97 Fe89 1.997 . S
O97 C95 1.235 . S
C98 O104 1.287 . S
C98 O105 1.255 . S
O99 Fe88 1.976 . S
O99 C106 1.287 . S
O100 Fe89 1.996 . S
O100 C106 1.255 . S
O101 Fe91 1.976 . S
O101 C96 1.287 . S
O102 Fe88 1.996 . S
O102 C96 1.255 . S
C103 O107 1.295 . S
C103 O108 1.235 . S
O104 Fe89 1.976 . S
O104 C98 1.287 . S
O105 Fe91 1.996 . S
O105 C98 1.255 . S
C106 O99 1.287 . S
C106 O100 1.255 . S
O107 Fe89 2.002 . S
O107 C103 1.295 . S
O108 Fe91 1.997 . S
O108 C103 1.235 . S
C109 O92 1.295 . S
C109 O93 1.235 . S
Fe110 O112 1.918 1_455 S
Fe110 O115 1.997 1_455 S
Fe110 O116 2.002 . S
Fe110 O121 1.976 . S
Fe110 O124 1.996 . S
Fe111 O112 1.918 . S
Fe111 O119 1.997 . S
Fe111 O122 1.996 1_655 S
Fe111 O126 1.976 . S
Fe111 O129 2.002 . S
O112 Fe110 1.918 1_655 S
O112 Fe111 1.918 . S
O112 Fe113 1.918 . S
Fe113 O112 1.918 . S
Fe113 O114 2.002 . S
Fe113 O123 1.976 . S
Fe113 O127 1.996 . S
Fe113 O130 1.997 . S
O114 Fe113 2.002 . S
O114 C131 1.295 . S
O115 Fe110 1.997 1_655 S
O115 C131 1.235 . S
O116 Fe110 2.002 . S
O116 C117 1.293 1_455 S
C117 O116 1.293 1_655 S
C117 O119 1.236 . S
C118 O123 1.287 . S
C118 O124 1.255 1_655 S
O119 Fe111 1.997 . S
O119 C117 1.236 . S
C120 O126 1.287 . S
C120 O127 1.255 . S
O121 Fe110 1.976 . S
O121 C128 1.287 . S
O122 Fe111 1.996 1_455 S
O122 C128 1.255 . S
O123 Fe113 1.976 . S
O123 C118 1.287 . S
O124 Fe110 1.996 . S
O124 C118 1.255 1_455 S
C125 O129 1.295 . S
C125 O130 1.235 . S
O126 Fe111 1.976 . S
O126 C120 1.287 . S
O127 Fe113 1.996 . S
O127 C120 1.255 . S
C128 O121 1.287 . S
C128 O122 1.255 . S
O129 Fe111 2.002 . S
O129 C125 1.295 . S
O130 Fe113 1.997 . S
O130 C125 1.235 . S
C131 O114 1.295 . S
C131 O115 1.235 . S
Fe132 O134 1.918 . S
Fe132 O137 1.997 . S
Fe132 O138 2.002 . S
Fe132 O143 1.976 1_655 S
Fe132 O146 1.996 1_565 S
Fe133 O134 1.918 1_455 S
Fe133 O141 1.997 . S
Fe133 O144 1.996 . S
Fe133 O148 1.976 . S
Fe133 O151 2.002 1_455 S
O134 Fe132 1.918 . S
O134 Fe133 1.918 1_655 S
O134 Fe135 1.918 1_565 S
Fe135 O134 1.918 1_545 S
Fe135 O136 2.002 . S
Fe135 O145 1.976 . S
Fe135 O149 1.996 . S
Fe135 O152 1.997 1_545 S
O136 Fe135 2.002 . S
O136 C153 1.293 1_545 S
O137 Fe132 1.997 . S
O137 C153 1.236 . S
O138 Fe132 2.002 . S
O138 C139 1.295 . S
C139 O138 1.295 . S
C139 O141 1.235 1_655 S
C140 O145 1.287 . S
C140 O146 1.255 . S
O141 Fe133 1.997 . S
O141 C139 1.235 1_455 S
C142 O148 1.287 1_655 S
C142 O149 1.255 1_565 S
O143 Fe132 1.976 1_455 S
O143 C150 1.287 . S
O144 Fe133 1.996 . S
O144 C150 1.255 . S
O145 Fe135 1.976 . S
O145 C140 1.287 . S
O146 Fe132 1.996 1_545 S
O146 C140 1.255 . S
C147 O151 1.295 . S
C147 O152 1.235 . S
O148 Fe133 1.976 . S
O148 C142 1.287 1_455 S
O149 Fe135 1.996 . S
O149 C142 1.255 1_545 S
C150 O143 1.287 . S
C150 O144 1.255 . S
O151 Fe133 2.002 1_655 S
O151 C147 1.295 . S
O152 Fe135 1.997 1_565 S
O152 C147 1.235 . S
C153 O136 1.293 1_565 S
C153 O137 1.236 . S
Fe154 O156 1.918 1_545 S
Fe154 O159 1.997 . S
Fe154 O160 2.002 1_545 S
Fe154 O165 1.976 . S
Fe154 O168 1.996 . S
Fe155 O156 1.918 . S
Fe155 O163 1.997 . S
Fe155 O166 1.996 . S
Fe155 O170 1.976 . S
Fe155 O173 2.002 . S
O156 Fe154 1.918 1_565 S
O156 Fe155 1.918 . S
O156 Fe157 1.918 . S
Fe157 O156 1.918 . S
Fe157 O158 2.002 . S
Fe157 O167 1.976 1_565 S
Fe157 O171 1.996 . S
Fe157 O174 1.997 . S
O158 Fe157 2.002 . S
O158 C175 1.295 . S
O159 Fe154 1.997 . S
O159 C175 1.235 1_545 S
O160 Fe154 2.002 1_565 S
O160 C161 1.295 . S
C161 O160 1.295 . S
C161 O163 1.235 . S
C162 O167 1.287 . S
C162 O168 1.255 . S
O163 Fe155 1.997 . S
O163 C161 1.235 . S
C164 O170 1.287 . S
C164 O171 1.255 . S
O165 Fe154 1.976 . S
O165 C172 1.287 1_545 S
O166 Fe155 1.996 . S
O166 C172 1.255 . S
O167 Fe157 1.976 1_545 S
O167 C162 1.287 . S
O168 Fe154 1.996 . S
O168 C162 1.255 . S
C169 O173 1.295 . S
C169 O174 1.235 . S
O170 Fe155 1.976 . S
O170 C164 1.287 . S
O171 Fe157 1.996 . S
O171 C164 1.255 . S
C172 O165 1.287 1_565 S
C172 O166 1.255 . S
O173 Fe155 2.002 . S
O173 C169 1.295 . S
O174 Fe157 1.997 . S
O174 C169 1.235 . S
C175 O158 1.295 . S
C175 O159 1.235 1_565 S
C98 C15 1.463 . S
C120 C29 1.457 1_655 S
C65 C150 1.457 1_545 S
C81 C162 1.463 . S
C95 C8 1.463 . S
C32 C117 1.457 1_455 S
C62 C153 1.457 1_545 S
C74 C169 1.463 . S
C125 C76 1.440 . S
C10 C139 1.440 1_455 S
C40 C175 1.440 1_545 S
C52 C103 1.440 . S
C87 C128 1.440 . S
C21 C140 1.440 1_455 S
C164 C37 1.440 1_565 S
C106 C51 1.440 . S
C7 C59 2.257 . S
C43 C73 2.257 . S
C147 C109 2.257 . S
C161 C131 2.257 . S
C118 C18 1.431 1_656 S
C30 C142 1.431 1_445 S
C172 C54 1.431 1_566 S
C96 C84 1.431 . S
