# Generated by pormake.
# Topology snz, (6)-cn, num edge types: 1
# Building blocks:
#     Node 0, Type 0, BuildingBlock: LEVNOQ01_clean_sbu_1, # of connection points: 6
#     Node 1, Type 0, BuildingBlock: LEVNOQ01_clean_sbu_1, # of connection points: 6
#     Node 2, Type 0, BuildingBlock: LEVNOQ01_clean_sbu_1, # of connection points: 6
#     Node 3, Type 0, BuildingBlock: LEVNOQ01_clean_sbu_1, # of connection points: 6
#     Node 4, Type 0, BuildingBlock: LEVNOQ01_clean_sbu_1, # of connection points: 6
#     Node 5, Type 0, BuildingBlock: LEVNOQ01_clean_sbu_1, # of connection points: 6
#     Node 6, Type 0, BuildingBlock: LEVNOQ01_clean_sbu_1, # of connection points: 6
#     Node 7, Type 0, BuildingBlock: LEVNOQ01_clean_sbu_1, # of connection points: 6
#     Node 8, Type 0, BuildingBlock: LEVNOQ01_clean_sbu_1, # of connection points: 6
#     Edge 9, Type (0, 0), None
#     Edge 10, Type (0, 0), None
#     Edge 11, Type (0, 0), None
#     Edge 12, Type (0, 0), None
#     Edge 13, Type (0, 0), None
#     Edge 14, Type (0, 0), None
#     Edge 15, Type (0, 0), None
#     Edge 16, Type (0, 0), None
#     Edge 17, Type (0, 0), None
#     Edge 18, Type (0, 0), None
#     Edge 19, Type (0, 0), None
#     Edge 20, Type (0, 0), None
#     Edge 21, Type (0, 0), None
#     Edge 22, Type (0, 0), None
#     Edge 23, Type (0, 0), None
#     Edge 24, Type (0, 0), None
#     Edge 25, Type (0, 0), None
#     Edge 26, Type (0, 0), None
#     Edge 27, Type (0, 0), None
#     Edge 28, Type (0, 0), None
#     Edge 29, Type (0, 0), None
#     Edge 30, Type (0, 0), None
#     Edge 31, Type (0, 0), None
#     Edge 32, Type (0, 0), None
#     Edge 33, Type (0, 0), None
#     Edge 34, Type (0, 0), None
#     Edge 35, Type (0, 0), None
# Relax obj value: 0.250
# Max RMSD: 0.271
# Mean RMSD: 0.237
data_MOF--net-snz--node1-LEVNOQ01_clean_sbu_1--edge1-none
_symmetry_space_group_name_H-M    P1
_symmetry_Int_Tables_number       1
_symmetry_cell_setting            triclinic
loop_
_symmetry_equiv_pos_as_xyz
'x, y, z'
_cell_length_a     25.655239
_cell_length_b     25.595365
_cell_length_c     7.2015375
_cell_angle_alpha  90.59387
_cell_angle_beta   93.643945
_cell_angle_gamma 121.13671
loop_
_atom_site_label
_atom_site_type_symbol
_atom_site_fract_x
_atom_site_fract_y
_atom_site_fract_z
_atom_type_partial_charge
O0 O 0.07786 0.41146 0.87414 0.0
Mg1 Mg -0.00144 0.3666 0.68516 0.0
O2 O 0.02881 0.42748 0.09065 0.0
Mg3 Mg -0.04611 0.44533 0.94976 0.0
O4 O -0.01867 0.43485 0.67074 0.0
O5 O -0.02491 0.38592 0.41255 0.0
O6 O 0.88291 0.46675 0.81705 0.0
O7 O 0.02611 0.55203 -0.02307 0.0
Mg8 Mg 0.91494 0.52161 0.24223 0.0
O9 O 0.92529 0.45024 0.22401 0.0
O10 O 0.85408 0.51555 0.00132 0.0
O11 O 0.00594 0.58868 0.22697 0.0
O12 O 0.91708 0.48187 0.49459 0.0
C13 C 0.87453 0.298 0.82365 0.0
C14 C 0.07353 0.42257 0.0431 0.0
C15 C -0.03559 0.42348 0.49647 0.0
C16 C 0.85131 0.49135 0.84256 0.0
C17 C 0.03985 0.59542 0.09812 0.0
C18 C 0.93175 0.44938 0.40131 0.0
O19 O 0.92387 0.29768 0.82798 0.0
O20 O 0.87558 0.34342 0.90235 0.0
O21 O 0.63722 0.48345 0.07404 0.0
Mg22 Mg 0.60126 0.51581 0.2728 0.0
O23 O 0.57844 0.50085 0.88544 0.0
Mg24 Mg 0.48156 0.44926 -0.01734 0.0
O25 O 0.51379 0.4428 0.27398 0.0
O26 O 0.56084 0.49928 0.52918 0.0
O27 O 0.38484 0.40013 0.08251 0.0
O28 O 0.46932 0.35701 0.87199 0.0
Mg29 Mg 0.36046 0.37845 0.69314 0.0
O30 O 0.4479 0.45345 0.68972 0.0
O31 O 0.32917 0.41886 0.88406 0.0
O32 O 0.36954 0.30701 0.82536 0.0
O33 O 0.40167 0.39525 0.43747 0.0
C34 C 0.5473 0.59209 0.1296 0.0
C35 C 0.62913 0.504 0.92225 0.0
C36 C 0.51033 0.46 0.43956 0.0
C37 C 0.33696 0.40236 0.04385 0.0
C38 C 0.41945 0.30839 0.81323 0.0
C39 C 0.4518 0.43623 0.52481 0.0
O40 O 0.59572 0.59041 0.16113 0.0
O41 O 0.49577 0.54336 0.08428 0.0
O42 O 0.31307 0.82508 0.88844 0.0
Mg43 Mg 0.36366 0.88365 0.67368 0.0
O44 O 0.38206 0.89424 0.09812 0.0
Mg45 Mg 0.48039 0.95694 0.00675 0.0
O46 O 0.4531 0.91934 0.71784 0.0
O47 O 0.41084 0.89536 0.43355 0.0
O48 O 0.57915 0.01239 0.90901 0.0
O49 O 0.5143 0.88987 0.093 0.0
Mg50 Mg 0.59844 0.03134 0.34102 0.0
O51 O 0.51001 -0.00232 0.29652 0.0
O52 O 0.64653 0.08474 0.10903 0.0
O53 O 0.59069 0.94532 0.3128 0.0
O54 O 0.55338 0.0261 0.58076 0.0
C55 C 0.39799 0.01489 0.81799 0.0
C56 C 0.32838 0.8489 0.05374 0.0
C57 C 0.45726 0.93138 0.54382 0.0
C58 C 0.63319 0.05724 0.94884 0.0
C59 C 0.55696 0.89614 0.21271 0.0
C60 C 0.50644 -0.01139 0.4726 0.0
O61 O 0.36358 -0.03515 0.7236 0.0
O62 O 0.4447 0.02441 0.92536 0.0
O63 O 0.53217 0.64067 0.37124 0.0
Mg64 Mg 0.60888 0.66871 0.569 0.0
O65 O 0.59905 0.69721 0.17521 0.0
Mg66 Mg 0.66424 0.7957 0.31414 0.0
O67 O 0.62877 0.75711 0.5914 0.0
O68 O 0.63477 0.71256 0.84164 0.0
O69 O 0.73174 0.89242 0.45454 0.0
O70 O 0.59018 0.82469 0.2594 0.0
Mg71 Mg 0.72151 0.91712 0.03916 0.0
O72 O 0.70146 0.82943 0.03918 0.0
O73 O 0.78345 -0.02831 0.28118 0.0
O74 O 0.63888 0.90658 0.08929 0.0
O75 O 0.69364 0.86916 0.77918 0.0
C76 C 0.73739 0.72722 0.45187 0.0
C77 C 0.55098 0.6469 0.20949 0.0
C78 C 0.64627 0.76197 0.76505 0.0
C79 C 0.77143 0.94906 0.44069 0.0
C80 C 0.59223 0.8687 0.16884 0.0
C81 C 0.68177 0.82143 0.86568 0.0
O82 O 0.68605 0.67741 0.43171 0.0
O83 O 0.74098 0.7754 0.3903 0.0
O84 O 0.29503 0.83363 0.35848 0.0
Mg85 Mg 0.25869 0.87248 0.53496 0.0
O86 O 0.23339 0.83454 0.13331 0.0
Mg87 Mg 0.13738 0.79827 0.24779 0.0
O88 O 0.17159 0.79901 0.54548 0.0
O89 O 0.22126 0.85953 0.79406 0.0
O90 O 0.04062 0.74908 0.34874 0.0
O91 O 0.11161 0.69909 0.16056 0.0
Mg92 Mg 0.01842 0.7414 0.91554 0.0
O93 O 0.10599 0.80403 0.96196 0.0
O94 O -0.02742 0.74961 0.14909 0.0
O95 O 0.03178 0.66682 0.9474 0.0
O96 O 0.06357 0.78715 0.67978 0.0
C97 C 0.20061 0.94216 0.41619 0.0
C98 C 0.28123 0.83333 0.18627 0.0
C99 C 0.16994 0.8202 0.70798 0.0
C100 C -0.01311 0.73837 0.3103 0.0
C101 C 0.06954 0.65792 0.04495 0.0
C102 C 0.1124 0.80572 0.78635 0.0
O103 O 0.25184 0.9458 0.41156 0.0
O104 O 0.15276 0.89323 0.34858 0.0
O105 O 0.12427 0.43774 0.34611 0.0
Mg106 Mg 0.118 0.38227 0.57466 0.0
O107 O 0.11214 0.36267 0.15602 0.0
Mg108 Mg 0.14597 0.2998 0.26756 0.0
O109 O 0.16608 0.34221 0.55613 0.0
O110 O 0.15192 0.36848 0.83153 0.0
O111 O 0.18528 0.24028 0.37987 0.0
O112 O 0.24308 0.36611 0.17981 0.0
Mg113 Mg 0.18314 0.22112 -0.0118 0.0
O114 O 0.13051 0.25832 -0.02388 0.0
O115 O 0.15067 0.15769 0.20131 0.0
O116 O 0.26945 0.30033 0.07784 0.0
O117 O 0.1611 0.23901 0.71978 0.0
C118 C 0.01052 0.25011 0.43234 0.0
C119 C 0.10871 0.41003 0.18611 0.0
C120 C 0.15836 0.33087 0.73054 0.0
C121 C 0.18097 0.18894 0.34902 0.0
C122 C 0.28202 0.35443 0.11913 0.0
C123 C 0.14655 0.27284 0.80825 0.0
O124 O 0.03267 0.30255 0.51264 0.0
O125 O 0.04285 0.23481 0.34153 0.0
O126 O 0.37766 0.1625 0.23153 0.0
Mg127 Mg 0.37675 0.23922 0.32625 0.0
O128 O 0.29352 0.08763 0.32406 0.0
Mg129 Mg 0.30567 0.12214 0.62026 0.0
O130 O 0.3827 0.22121 0.59638 0.0
O131 O 0.44638 0.31192 0.50562 0.0
O132 O 0.317 0.15698 0.91434 0.0
O133 O 0.37038 0.08543 0.71295 0.0
Mg134 Mg 0.22972 0.00644 0.91479 0.0
O135 O 0.23036 0.02579 0.64345 0.0
O136 O 0.23155 0.08469 0.00908 0.0
O137 O 0.32142 0.02154 0.93787 0.0
O138 O 0.16458 0.93467 0.71636 0.0
C139 C 0.23665 0.18784 0.4054 0.0
C140 C 0.32312 0.11925 0.194 0.0
C141 C 0.42166 0.27787 0.64172 0.0
C142 C 0.2866 0.12716 0.04569 0.0
C143 C 0.36774 0.04958 0.84141 0.0
C144 C 0.1934 -0.02999 0.58733 0.0
O145 O 0.28392 0.22194 0.31807 0.0
O146 O 0.23575 0.1513 0.5272 0.0
O147 O 0.8559 0.1016 0.06948 0.0
Mg148 Mg 0.78683 0.0242 0.91697 0.0
O149 O 0.84795 0.17091 0.92229 0.0
Mg150 Mg 0.81197 0.13258 0.61784 0.0
O151 O 0.80468 0.04036 0.64342 0.0
O152 O 0.7987 -0.03992 0.76642 0.0
O153 O 0.77672 0.09626 0.31311 0.0
O154 O 0.91229 0.17679 0.52282 0.0
Mg155 Mg 0.84213 0.25175 0.3145 0.0
O156 O 0.81999 0.22191 0.57471 0.0
O157 O 0.77321 0.17023 0.17825 0.0
O158 O 0.92415 0.24827 0.32249 0.0
O159 O 0.84298 0.31389 0.52405 0.0
C160 C 0.68355 0.05674 0.85687 0.0
C161 C 0.84097 0.14168 0.06905 0.0
C162 C 0.79784 -0.01298 0.61807 0.0
C163 C 0.78854 0.13033 0.17561 0.0
C164 C -0.05609 0.21757 0.40823 0.0
C165 C 0.83736 0.27504 0.64415 0.0
O166 O 0.70211 0.02338 0.93035 0.0
O167 O 0.71332 0.0952 0.73394 0.0
O168 O 0.77588 0.55077 0.18719 0.0
Mg169 Mg 0.84201 0.54474 0.35694 0.0
O170 O 0.77006 0.61869 0.35052 0.0
Mg171 Mg 0.81248 0.62813 0.65263 0.0
O172 O 0.83779 0.55644 0.63367 0.0
O173 O 0.81151 0.46665 0.52862 0.0
O174 O 0.85243 0.63907 0.95989 0.0
O175 O 0.71948 0.55745 0.76291 0.0
Mg176 Mg 0.76533 0.70242 0.95061 0.0
O177 O 0.78959 0.70095 0.6881 0.0
O178 O 0.83929 0.70591 0.10525 0.0
O179 O 0.69031 0.60974 0.93794 0.0
O180 O 0.76238 0.7652 0.7642 0.0
C181 C -0.06213 0.68756 0.40646 0.0
C182 C 0.78397 0.60384 0.2008 0.0
C183 C 0.82233 0.50172 0.67246 0.0
C184 C 0.83379 0.65367 0.10031 0.0
C185 C 0.68171 0.55988 0.86508 0.0
C186 C 0.77095 0.7365 0.63396 0.0
O187 O 0.92344 0.63408 0.34634 0.0
O188 O 0.90615 0.69661 0.52083 0.0
loop_
_geom_bond_atom_site_label_1
_geom_bond_atom_site_label_2
_geom_bond_distance
_geom_bond_site_symmetry_2
_ccdc_geom_bond_type
O0 Mg1 1.990 . S
O0 C14 1.253 1_556 S
Mg1 O0 1.990 . S
Mg1 O4 2.180 . S
Mg1 O5 2.117 . S
Mg1 O19 2.030 1_455 S
O2 Mg3 2.072 . S
O2 C14 1.260 . S
Mg3 O2 2.072 . S
Mg3 O4 2.099 1_554 S
Mg3 O6 2.079 1_454 S
Mg3 O7 2.072 . S
Mg3 O9 2.099 1_455 S
Mg3 O20 2.079 1_455 S
O4 Mg1 2.180 . S
O4 Mg3 2.099 1_556 S
O4 C15 1.279 . S
O5 Mg1 2.117 . S
O5 C15 1.250 . S
O6 Mg3 2.079 1_656 S
O6 C16 1.264 . S
O7 Mg3 2.072 . S
O7 C17 1.260 . S
Mg8 O9 2.180 . S
Mg8 O10 2.030 . S
Mg8 O11 1.990 1_655 S
Mg8 O12 2.117 1_655 S
O9 Mg3 2.099 1_655 S
O9 Mg8 2.180 . S
O9 C18 1.279 1_655 S
O10 Mg8 2.030 . S
O10 C16 1.248 1_554 S
O11 Mg8 1.990 1_455 S
O11 C17 1.253 . S
O12 Mg8 2.117 1_455 S
O12 C18 1.250 . S
C13 O19 1.248 . S
C13 O20 1.264 1_556 S
C14 O0 1.253 1_554 S
C14 O2 1.260 . S
C15 O4 1.279 . S
C15 O5 1.250 . S
C16 O6 1.264 . S
C16 O10 1.248 1_556 S
C17 O7 1.260 . S
C17 O11 1.253 . S
C18 O9 1.279 1_455 S
C18 O12 1.250 . S
O19 Mg1 2.030 1_655 S
O19 C13 1.248 . S
O20 Mg3 2.079 1_655 S
O20 C13 1.264 1_554 S
O21 Mg22 1.990 . S
O21 C35 1.253 . S
Mg22 O21 1.990 . S
Mg22 O25 2.180 . S
Mg22 O26 2.117 . S
Mg22 O40 2.030 . S
O23 Mg24 2.072 1_556 S
O23 C35 1.260 1_556 S
Mg24 O23 2.072 1_554 S
Mg24 O25 2.099 . S
Mg24 O27 2.079 . S
Mg24 O28 2.072 . S
Mg24 O30 2.099 1_554 S
Mg24 O41 2.079 . S
O25 Mg22 2.180 . S
O25 Mg24 2.099 . S
O25 C36 1.279 . S
O26 Mg22 2.117 . S
O26 C36 1.250 . S
O27 Mg24 2.079 . S
O27 C37 1.264 . S
O28 Mg24 2.072 . S
O28 C38 1.260 1_554 S
Mg29 O30 2.180 . S
Mg29 O31 2.030 . S
Mg29 O32 1.990 . S
Mg29 O33 2.117 . S
O30 Mg24 2.099 1_556 S
O30 Mg29 2.180 . S
O30 C39 1.279 . S
O31 Mg29 2.030 . S
O31 C37 1.248 1_556 S
O32 Mg29 1.990 . S
O32 C38 1.253 . S
O33 Mg29 2.117 . S
O33 C39 1.250 . S
C34 O40 1.248 . S
C34 O41 1.264 . S
C35 O21 1.253 . S
C35 O23 1.260 1_554 S
C36 O25 1.279 . S
C36 O26 1.250 . S
C37 O27 1.264 . S
C37 O31 1.248 1_554 S
C38 O28 1.260 1_556 S
C38 O32 1.253 . S
C39 O30 1.279 . S
C39 O33 1.250 . S
O40 Mg22 2.030 . S
O40 C34 1.248 . S
O41 Mg24 2.079 . S
O41 C34 1.264 . S
O42 Mg43 1.990 . S
O42 C56 1.253 1_556 S
Mg43 O42 1.990 . S
Mg43 O46 2.180 1_565 S
Mg43 O47 2.117 . S
Mg43 O61 2.030 1_565 S
O44 Mg45 2.072 1_565 S
O44 C56 1.260 . S
Mg45 O44 2.072 1_545 S
Mg45 O46 2.099 1_554 S
Mg45 O48 2.079 . S
Mg45 O49 2.072 1_545 S
Mg45 O51 2.099 . S
Mg45 O62 2.079 . S
O46 Mg43 2.180 1_545 S
O46 Mg45 2.099 1_556 S
O46 C57 1.279 1_545 S
O47 Mg43 2.117 . S
O47 C57 1.250 . S
O48 Mg45 2.079 . S
O48 C58 1.264 . S
O49 Mg45 2.072 1_565 S
O49 C59 1.260 . S
Mg50 O51 2.180 . S
Mg50 O52 2.030 . S
Mg50 O53 1.990 1_545 S
Mg50 O54 2.117 . S
O51 Mg45 2.099 . S
O51 Mg50 2.180 . S
O51 C60 1.279 . S
O52 Mg50 2.030 . S
O52 C58 1.248 . S
O53 Mg50 1.990 1_565 S
O53 C59 1.253 . S
O54 Mg50 2.117 . S
O54 C60 1.250 . S
C55 O61 1.248 1_554 S
C55 O62 1.264 . S
C56 O42 1.253 1_554 S
C56 O44 1.260 . S
C57 O46 1.279 1_565 S
C57 O47 1.250 . S
C58 O48 1.264 . S
C58 O52 1.248 . S
C59 O49 1.260 . S
C59 O53 1.253 . S
C60 O51 1.279 . S
C60 O54 1.250 . S
O61 Mg43 2.030 1_545 S
O61 C55 1.248 1_556 S
O62 Mg45 2.079 . S
O62 C55 1.264 . S
O63 Mg64 1.990 . S
O63 C77 1.253 . S
Mg64 O63 1.990 . S
Mg64 O67 2.180 . S
Mg64 O68 2.117 . S
Mg64 O82 2.030 . S
O65 Mg66 2.072 . S
O65 C77 1.260 . S
Mg66 O65 2.072 . S
Mg66 O67 2.099 . S
Mg66 O69 2.079 . S
Mg66 O70 2.072 . S
Mg66 O72 2.099 1_554 S
Mg66 O83 2.079 . S
O67 Mg64 2.180 . S
O67 Mg66 2.099 . S
O67 C78 1.279 . S
O68 Mg64 2.117 . S
O68 C78 1.250 . S
O69 Mg66 2.079 . S
O69 C79 1.264 1_565 S
O70 Mg66 2.072 . S
O70 C80 1.260 . S
Mg71 O72 2.180 . S
Mg71 O73 2.030 1_566 S
Mg71 O74 1.990 . S
Mg71 O75 2.117 . S
O72 Mg66 2.099 1_556 S
O72 Mg71 2.180 . S
O72 C81 1.279 . S
O73 Mg71 2.030 1_544 S
O73 C79 1.248 . S
O74 Mg71 1.990 . S
O74 C80 1.253 1_556 S
O75 Mg71 2.117 . S
O75 C81 1.250 . S
C76 O82 1.248 . S
C76 O83 1.264 . S
C77 O63 1.253 . S
C77 O65 1.260 . S
C78 O67 1.279 . S
C78 O68 1.250 . S
C79 O69 1.264 1_545 S
C79 O73 1.248 . S
C80 O70 1.260 . S
C80 O74 1.253 1_554 S
C81 O72 1.279 . S
C81 O75 1.250 . S
O82 Mg64 2.030 . S
O82 C76 1.248 . S
O83 Mg66 2.079 . S
O83 C76 1.264 . S
O84 Mg85 1.990 . S
O84 C98 1.253 . S
Mg85 O84 1.990 . S
Mg85 O88 2.180 . S
Mg85 O89 2.117 . S
Mg85 O103 2.030 1_565 S
O86 Mg87 2.072 . S
O86 C98 1.260 . S
Mg87 O86 2.072 . S
Mg87 O88 2.099 . S
Mg87 O90 2.079 . S
Mg87 O91 2.072 . S
Mg87 O93 2.099 1_554 S
Mg87 O104 2.079 . S
O88 Mg85 2.180 . S
O88 Mg87 2.099 . S
O88 C99 1.279 . S
O89 Mg85 2.117 . S
O89 C99 1.250 . S
O90 Mg87 2.079 . S
O90 C100 1.264 . S
O91 Mg87 2.072 . S
O91 C101 1.260 . S
Mg92 O93 2.180 . S
Mg92 O94 2.030 1_556 S
Mg92 O95 1.990 . S
Mg92 O96 2.117 . S
O93 Mg87 2.099 1_556 S
O93 Mg92 2.180 . S
O93 C102 1.279 . S
O94 Mg92 2.030 1_554 S
O94 C100 1.248 . S
O95 Mg92 1.990 . S
O95 C101 1.253 1_556 S
O96 Mg92 2.117 . S
O96 C102 1.250 . S
C97 O103 1.248 . S
C97 O104 1.264 1_545 S
C98 O84 1.253 . S
C98 O86 1.260 . S
C99 O88 1.279 . S
C99 O89 1.250 . S
C100 O90 1.264 . S
C100 O94 1.248 . S
C101 O91 1.260 . S
C101 O95 1.253 1_554 S
C102 O93 1.279 . S
C102 O96 1.250 . S
O103 Mg85 2.030 1_545 S
O103 C97 1.248 . S
O104 Mg87 2.079 . S
O104 C97 1.264 1_565 S
O105 Mg106 1.990 . S
O105 C119 1.253 . S
Mg106 O105 1.990 . S
Mg106 O109 2.180 . S
Mg106 O110 2.117 . S
Mg106 O124 2.030 . S
O107 Mg108 2.072 . S
O107 C119 1.260 . S
Mg108 O107 2.072 . S
Mg108 O109 2.099 . S
Mg108 O111 2.079 . S
Mg108 O112 2.072 . S
Mg108 O114 2.097 1_554 S
Mg108 O125 2.079 . S
O109 Mg106 2.180 . S
O109 Mg108 2.099 . S
O109 C120 1.279 . S
O110 Mg106 2.117 . S
O110 C120 1.250 . S
O111 Mg108 2.079 . S
O111 C121 1.264 . S
O112 Mg108 2.072 . S
O112 C122 1.260 . S
Mg113 O114 2.181 . S
Mg113 O115 2.030 1_556 S
Mg113 O116 1.990 1_556 S
Mg113 O117 2.117 . S
O114 Mg108 2.097 1_556 S
O114 Mg113 2.181 . S
O114 C123 1.281 . S
O115 Mg113 2.030 1_554 S
O115 C121 1.248 . S
O116 Mg113 1.990 1_554 S
O116 C122 1.253 . S
O117 Mg113 2.117 . S
O117 C123 1.250 . S
C118 O124 1.248 . S
C118 O125 1.264 . S
C119 O105 1.253 . S
C119 O107 1.260 . S
C120 O109 1.279 . S
C120 O110 1.250 . S
C121 O111 1.264 . S
C121 O115 1.248 . S
C122 O112 1.260 . S
C122 O116 1.253 . S
C123 O114 1.281 . S
C123 O117 1.250 . S
O124 Mg106 2.030 . S
O124 C118 1.248 . S
O125 Mg108 2.079 . S
O125 C118 1.264 . S
O126 Mg127 1.990 . S
O126 C140 1.253 . S
Mg127 O126 1.990 . S
Mg127 O130 2.180 . S
Mg127 O131 2.117 . S
Mg127 O145 2.030 . S
O128 Mg129 2.072 . S
O128 C140 1.260 . S
Mg129 O128 2.072 . S
Mg129 O130 2.099 . S
Mg129 O132 2.079 1_556 S
Mg129 O133 2.072 . S
Mg129 O135 2.099 . S
Mg129 O146 2.079 . S
O130 Mg127 2.180 . S
O130 Mg129 2.099 . S
O130 C141 1.279 . S
O131 Mg127 2.117 . S
O131 C141 1.250 . S
O132 Mg129 2.079 1_554 S
O132 C142 1.264 . S
O133 Mg129 2.072 . S
O133 C143 1.260 . S
Mg134 O135 2.180 . S
Mg134 O136 2.030 1_556 S
Mg134 O137 1.990 . S
Mg134 O138 2.117 1_545 S
O135 Mg129 2.099 . S
O135 Mg134 2.180 . S
O135 C144 1.279 . S
O136 Mg134 2.030 1_554 S
O136 C142 1.248 . S
O137 Mg134 1.990 . S
O137 C143 1.253 . S
O138 Mg134 2.117 1_565 S
O138 C144 1.250 1_565 S
C139 O145 1.248 . S
C139 O146 1.264 . S
C140 O126 1.253 . S
C140 O128 1.260 . S
C141 O130 1.279 . S
C141 O131 1.250 . S
C142 O132 1.264 . S
C142 O136 1.248 . S
C143 O133 1.260 . S
C143 O137 1.253 . S
C144 O135 1.279 . S
C144 O138 1.250 1_545 S
O145 Mg127 2.030 . S
O145 C139 1.248 . S
O146 Mg129 2.079 . S
O146 C139 1.264 . S
O147 Mg148 1.990 1_554 S
O147 C161 1.253 . S
Mg148 O147 1.990 1_556 S
Mg148 O151 2.180 . S
Mg148 O152 2.117 1_545 S
Mg148 O166 2.030 . S
O149 Mg150 2.072 . S
O149 C161 1.260 1_556 S
Mg150 O149 2.072 . S
Mg150 O151 2.099 . S
Mg150 O153 2.079 . S
Mg150 O154 2.072 . S
Mg150 O156 2.099 . S
Mg150 O167 2.079 . S
O151 Mg148 2.180 . S
O151 Mg150 2.099 . S
O151 C162 1.279 . S
O152 Mg148 2.117 1_565 S
O152 C162 1.250 1_565 S
O153 Mg150 2.079 . S
O153 C163 1.264 . S
O154 Mg150 2.072 . S
O154 C164 1.260 1_655 S
Mg155 O156 2.180 . S
Mg155 O157 2.030 . S
Mg155 O158 1.990 1_655 S
Mg155 O159 2.117 . S
O156 Mg150 2.099 . S
O156 Mg155 2.180 . S
O156 C165 1.279 . S
O157 Mg155 2.030 . S
O157 C163 1.248 . S
O158 Mg155 1.990 1_455 S
O158 C164 1.253 . S
O159 Mg155 2.117 . S
O159 C165 1.250 . S
C160 O166 1.248 . S
C160 O167 1.264 . S
C161 O147 1.253 . S
C161 O149 1.260 1_554 S
C162 O151 1.279 . S
C162 O152 1.250 1_545 S
C163 O153 1.264 . S
C163 O157 1.248 . S
C164 O154 1.260 1_455 S
C164 O158 1.253 . S
C165 O156 1.279 . S
C165 O159 1.250 . S
O166 Mg148 2.030 . S
O166 C160 1.248 . S
O167 Mg150 2.079 . S
O167 C160 1.264 . S
O168 Mg169 1.990 . S
O168 C182 1.253 . S
Mg169 O168 1.990 . S
Mg169 O172 2.180 . S
Mg169 O173 2.117 . S
Mg169 O187 2.030 1_655 S
O170 Mg171 2.072 . S
O170 C182 1.260 . S
Mg171 O170 2.072 . S
Mg171 O172 2.099 . S
Mg171 O174 2.079 . S
Mg171 O175 2.072 . S
Mg171 O177 2.099 . S
Mg171 O188 2.079 . S
O172 Mg169 2.180 . S
O172 Mg171 2.099 . S
O172 C183 1.279 . S
O173 Mg169 2.117 . S
O173 C183 1.250 . S
O174 Mg171 2.079 . S
O174 C184 1.264 1_556 S
O175 Mg171 2.072 . S
O175 C185 1.260 . S
Mg176 O177 2.180 . S
Mg176 O178 2.030 1_556 S
Mg176 O179 1.990 . S
Mg176 O180 2.117 . S
O177 Mg171 2.099 . S
O177 Mg176 2.180 . S
O177 C186 1.279 . S
O178 Mg176 2.030 1_554 S
O178 C184 1.248 . S
O179 Mg176 1.990 . S
O179 C185 1.253 . S
O180 Mg176 2.117 . S
O180 C186 1.250 . S
C181 O187 1.248 . S
C181 O188 1.264 1_455 S
C182 O168 1.253 . S
C182 O170 1.260 . S
C183 O172 1.279 . S
C183 O173 1.250 . S
C184 O174 1.264 1_554 S
C184 O178 1.248 . S
C185 O175 1.260 . S
C185 O179 1.253 . S
C186 O177 1.279 . S
C186 O180 1.250 . S
O187 Mg169 2.030 1_455 S
O187 C181 1.248 . S
O188 Mg171 2.079 . S
O188 C181 1.264 1_655 S
C15 C18 1.599 . S
C39 C36 1.706 . S
C57 C60 1.697 1_565 S
C78 C81 1.359 . S
C99 C102 1.625 . S
C120 C123 1.766 . S
C140 C142 1.587 . S
C163 C161 1.710 . S
C182 C184 1.855 . S
C119 C14 1.528 . S
C34 C77 1.233 . S
C56 C98 1.492 . S
C55 C143 1.070 1_554 S
C165 C13 1.310 . S
C185 C35 1.883 1_556 S
C183 C16 2.167 . S
C38 C141 1.235 . S
C160 C58 1.687 1_556 S
C59 C80 1.313 . S
C101 C17 1.246 . S
C37 C122 1.593 . S
C186 C76 1.679 . S
C144 C97 1.697 . S
C164 C118 1.204 . S
C139 C121 1.488 . S
C79 C162 1.993 . S
C181 C100 1.379 . S
