# Generated by pormake.
# Topology uoz, (4)-cn, num edge types: 1
# Building blocks:
#     Node 0, Type 0, BuildingBlock: QUQFOY_clean_sbu_1, # of connection points: 4
#     Node 1, Type 0, BuildingBlock: QUQFOY_clean_sbu_1, # of connection points: 4
#     Node 2, Type 0, BuildingBlock: QUQFOY_clean_sbu_1, # of connection points: 4
#     Node 3, Type 0, BuildingBlock: QUQFOY_clean_sbu_1, # of connection points: 4
#     Node 4, Type 0, BuildingBlock: QUQFOY_clean_sbu_1, # of connection points: 4
#     Node 5, Type 0, BuildingBlock: QUQFOY_clean_sbu_1, # of connection points: 4
#     Node 6, Type 0, BuildingBlock: QUQFOY_clean_sbu_1, # of connection points: 4
#     Node 7, Type 0, BuildingBlock: QUQFOY_clean_sbu_1, # of connection points: 4
#     Node 8, Type 0, BuildingBlock: QUQFOY_clean_sbu_1, # of connection points: 4
#     Node 9, Type 0, BuildingBlock: QUQFOY_clean_sbu_1, # of connection points: 4
#     Node 10, Type 0, BuildingBlock: QUQFOY_clean_sbu_1, # of connection points: 4
#     Node 11, Type 0, BuildingBlock: QUQFOY_clean_sbu_1, # of connection points: 4
#     Node 12, Type 0, BuildingBlock: QUQFOY_clean_sbu_1, # of connection points: 4
#     Node 13, Type 0, BuildingBlock: QUQFOY_clean_sbu_1, # of connection points: 4
#     Node 14, Type 0, BuildingBlock: QUQFOY_clean_sbu_1, # of connection points: 4
#     Node 15, Type 0, BuildingBlock: QUQFOY_clean_sbu_1, # of connection points: 4
#     Edge 16, Type (0, 0), None
#     Edge 17, Type (0, 0), None
#     Edge 18, Type (0, 0), None
#     Edge 19, Type (0, 0), None
#     Edge 20, Type (0, 0), None
#     Edge 21, Type (0, 0), None
#     Edge 22, Type (0, 0), None
#     Edge 23, Type (0, 0), None
#     Edge 24, Type (0, 0), None
#     Edge 25, Type (0, 0), None
#     Edge 26, Type (0, 0), None
#     Edge 27, Type (0, 0), None
#     Edge 28, Type (0, 0), None
#     Edge 29, Type (0, 0), None
#     Edge 30, Type (0, 0), None
#     Edge 31, Type (0, 0), None
#     Edge 32, Type (0, 0), None
#     Edge 33, Type (0, 0), None
#     Edge 34, Type (0, 0), None
#     Edge 35, Type (0, 0), None
#     Edge 36, Type (0, 0), None
#     Edge 37, Type (0, 0), None
#     Edge 38, Type (0, 0), None
#     Edge 39, Type (0, 0), None
#     Edge 40, Type (0, 0), None
#     Edge 41, Type (0, 0), None
#     Edge 42, Type (0, 0), None
#     Edge 43, Type (0, 0), None
#     Edge 44, Type (0, 0), None
#     Edge 45, Type (0, 0), None
#     Edge 46, Type (0, 0), None
#     Edge 47, Type (0, 0), None
# Relax obj value: 0.128
# Max RMSD: 0.195
# Mean RMSD: 0.195
data_MOF--net-uoz--node1-QUQFOY_clean_sbu_1--edge1-none
_symmetry_space_group_name_H-M    P1
_symmetry_Int_Tables_number       1
_symmetry_cell_setting            triclinic
loop_
_symmetry_equiv_pos_as_xyz
'x, y, z'
_cell_length_a     31.086028
_cell_length_b     31.085565
_cell_length_c     10.548401
_cell_angle_alpha  89.999169
_cell_angle_beta   90.010712
_cell_angle_gamma 89.998463
loop_
_atom_site_label
_atom_site_type_symbol
_atom_site_fract_x
_atom_site_fract_y
_atom_site_fract_z
_atom_type_partial_charge
O0 O 0.07118 0.50998 0.21554 0.0
Cd1 Cd 0.07245 0.54452 0.37997 0.0
Cd2 Cd 0.01292 0.58632 0.22482 0.0
O3 O 0.00326 0.52398 0.17195 0.0
O4 O 0.10757 0.50803 0.49955 0.0
O5 O 0.03777 0.51868 0.524 0.0
C6 C 0.07252 0.4993 0.55956 0.0
C7 C 0.95493 0.63336 0.23497 0.0
C8 C 0.03666 0.50126 0.15718 0.0
C9 C 0.10033 0.62309 0.25432 0.0
O10 O 0.07074 0.61451 0.17552 0.0
O11 O 0.10143 0.60452 0.36209 0.0
O12 O 0.96975 0.62053 0.12747 0.0
O13 O 0.97212 0.61841 0.33742 0.0
O14 O 0.74573 0.78288 0.46556 0.0
Cd15 Cd 0.7112 0.78414 0.62998 0.0
Cd16 Cd 0.6694 0.72462 0.4748 0.0
O17 O 0.73173 0.71496 0.42197 0.0
O18 O 0.74768 0.81926 0.74954 0.0
O19 O 0.73705 0.74946 0.77403 0.0
C20 C 0.75642 0.78421 0.80957 0.0
C21 C 0.62235 0.66663 0.48495 0.0
C22 C 0.75445 0.74836 0.4072 0.0
C23 C 0.63262 0.81202 0.50432 0.0
O24 O 0.6412 0.78245 0.42551 0.0
O25 O 0.65119 0.81312 0.61209 0.0
O26 O 0.63518 0.68145 0.37746 0.0
O27 O 0.63731 0.68381 0.58741 0.0
O28 O 0.47282 0.45745 0.71559 0.0
Cd29 Cd 0.47156 0.42292 0.88004 0.0
Cd30 Cd 0.53108 0.38111 0.72491 0.0
O31 O 0.54074 0.44345 0.67206 0.0
O32 O 0.43644 0.45941 0.99957 0.0
O33 O 0.50624 0.44877 0.0241 0.0
C34 C 0.47149 0.46814 0.05961 0.0
C35 C 0.58907 0.33407 0.73499 0.0
C36 C 0.50734 0.46617 0.65725 0.0
C37 C 0.44368 0.34434 0.75442 0.0
O38 O 0.47326 0.35292 0.67562 0.0
O39 O 0.44259 0.36291 0.86218 0.0
O40 O 0.57424 0.34691 0.62752 0.0
O41 O 0.57191 0.34901 0.83747 0.0
O42 O 0.79827 0.18454 0.96561 0.0
Cd43 Cd 0.83281 0.18327 0.13006 0.0
Cd44 Cd 0.8746 0.2428 0.97492 0.0
O45 O 0.81226 0.25247 0.92207 0.0
O46 O 0.79632 0.14815 0.2496 0.0
O47 O 0.80696 0.21795 0.27409 0.0
C48 C 0.78759 0.1832 0.30962 0.0
C49 C 0.92165 0.30079 0.985 0.0
C50 C 0.78955 0.21906 0.90725 0.0
C51 C 0.91138 0.1554 1.00442 0.0
O52 O 0.90279 0.18498 0.92562 0.0
O53 O 0.89282 0.1543 0.11219 0.0
O54 O 0.9088 0.28597 0.87753 0.0
O55 O 0.90671 0.28362 0.08748 0.0
O56 O 0.07118 0.45745 1.00951 0.0
Cd57 Cd 0.07244 0.42292 0.84507 0.0
Cd58 Cd 0.01292 0.38111 1.00023 0.0
O59 O 0.00326 0.44345 0.05306 0.0
O60 O 0.10756 0.4594 0.72554 0.0
O61 O 0.03776 0.44877 0.70101 0.0
C62 C 0.07251 0.46814 0.6655 0.0
C63 C 0.95493 0.33407 0.99015 0.0
C64 C 0.03666 0.46617 0.06785 0.0
C65 C 0.10031 0.34433 0.97071 0.0
O66 O 0.07074 0.35292 0.04952 0.0
O67 O 0.10141 0.3629 0.86294 0.0
O68 O 0.96976 0.34691 0.09763 0.0
O69 O 0.97209 0.34901 0.88767 0.0
O70 O 0.79826 0.78288 0.25954 0.0
Cd71 Cd 0.8328 0.78415 0.09513 0.0
Cd72 Cd 0.8746 0.72463 0.25031 0.0
O73 O 0.81227 0.71496 0.30314 0.0
O74 O 0.79631 0.81927 0.97555 0.0
O75 O 0.80696 0.74947 0.95108 0.0
C76 C 0.78758 0.78421 0.91553 0.0
C77 C 0.92166 0.66664 0.24016 0.0
C78 C 0.78955 0.74836 0.31789 0.0
C79 C 0.91138 0.81203 0.2208 0.0
O80 O 0.9028 0.78245 0.29961 0.0
O81 O 0.8928 0.81313 0.11302 0.0
O82 O 0.90882 0.68146 0.34766 0.0
O83 O 0.9067 0.68382 0.1377 0.0
O84 O 0.47282 0.50998 0.50956 0.0
Cd85 Cd 0.47155 0.54452 0.34513 0.0
Cd86 Cd 0.53109 0.58631 0.5003 0.0
O87 O 0.54074 0.52398 0.55315 0.0
O88 O 0.43643 0.50804 0.22555 0.0
O89 O 0.50623 0.51868 0.2011 0.0
C90 C 0.47149 0.49931 0.16554 0.0
C91 C 0.58907 0.63336 0.49015 0.0
C92 C 0.50734 0.50126 0.56792 0.0
C93 C 0.44368 0.6231 0.47079 0.0
O94 O 0.47327 0.61451 0.54959 0.0
O95 O 0.44258 0.60453 0.36302 0.0
O96 O 0.57426 0.62052 0.59764 0.0
O97 O 0.57189 0.61841 0.38769 0.0
O98 O 0.74574 0.18454 0.75955 0.0
Cd99 Cd 0.71121 0.18327 0.59509 0.0
Cd100 Cd 0.66941 0.2428 0.75023 0.0
O101 O 0.73174 0.25246 0.8031 0.0
O102 O 0.74769 0.14815 0.47556 0.0
O103 O 0.73705 0.21795 0.45106 0.0
C104 C 0.75643 0.1832 0.41554 0.0
C105 C 0.62235 0.30079 0.74015 0.0
C106 C 0.75446 0.21906 0.8179 0.0
C107 C 0.63263 0.1554 0.72071 0.0
O108 O 0.64122 0.18497 0.79952 0.0
O109 O 0.6512 0.15429 0.61295 0.0
O110 O 0.6352 0.28596 0.84763 0.0
O111 O 0.63729 0.28362 0.63767 0.0
O112 O 0.29826 0.28288 0.75956 0.0
Cd113 Cd 0.3328 0.28415 0.59514 0.0
Cd114 Cd 0.37461 0.22463 0.75031 0.0
O115 O 0.31227 0.21496 0.80315 0.0
O116 O 0.29631 0.31927 0.47557 0.0
O117 O 0.30696 0.24947 0.45109 0.0
C118 C 0.28758 0.28421 0.41554 0.0
C119 C 0.42166 0.16664 0.74016 0.0
C120 C 0.28955 0.24836 0.81791 0.0
C121 C 0.41138 0.31203 0.7208 0.0
O122 O 0.4028 0.28245 0.79961 0.0
O123 O 0.39281 0.31313 0.61303 0.0
O124 O 0.40883 0.18146 0.84766 0.0
O125 O 0.4067 0.18382 0.63771 0.0
O126 O 0.24574 0.68454 0.25953 0.0
Cd127 Cd 0.21121 0.68327 0.09507 0.0
Cd128 Cd 0.1694 0.7428 0.25021 0.0
O129 O 0.23174 0.75246 0.30307 0.0
O130 O 0.24769 0.64815 0.97554 0.0
O131 O 0.23705 0.71795 0.95104 0.0
C132 C 0.25642 0.6832 0.91552 0.0
C133 C 0.12235 0.80079 0.24013 0.0
C134 C 0.25445 0.71906 0.31788 0.0
C135 C 0.13263 0.65539 0.2207 0.0
O136 O 0.14122 0.68497 0.2995 0.0
O137 O 0.1512 0.65429 0.11294 0.0
O138 O 0.1352 0.78596 0.3476 0.0
O139 O 0.13729 0.78361 0.13765 0.0
O140 O 0.24574 0.28288 0.96557 0.0
Cd141 Cd 0.2112 0.28414 0.12999 0.0
Cd142 Cd 0.1694 0.22462 0.97481 0.0
O143 O 0.23174 0.21496 0.92198 0.0
O144 O 0.24768 0.31926 0.24956 0.0
O145 O 0.23705 0.24946 0.27405 0.0
C146 C 0.25642 0.28421 0.30959 0.0
C147 C 0.12236 0.16663 0.98495 0.0
C148 C 0.25446 0.24836 0.90722 0.0
C149 C 0.13262 0.31202 1.00432 0.0
O150 O 0.14121 0.28245 0.92551 0.0
O151 O 0.15119 0.31312 0.1121 0.0
O152 O 0.13519 0.18145 0.87746 0.0
O153 O 0.13731 0.18381 0.08741 0.0
O154 O 0.29827 0.68454 0.46559 0.0
Cd155 Cd 0.3328 0.68327 0.63004 0.0
Cd156 Cd 0.3746 0.74281 0.4749 0.0
O157 O 0.31226 0.75247 0.42203 0.0
O158 O 0.29632 0.64815 0.74958 0.0
O159 O 0.30696 0.71795 0.77408 0.0
C160 C 0.28759 0.6832 0.8096 0.0
C161 C 0.42165 0.80079 0.48498 0.0
C162 C 0.28955 0.71906 0.40724 0.0
C163 C 0.41138 0.6554 0.50441 0.0
O164 O 0.40279 0.68498 0.42561 0.0
O165 O 0.39281 0.6543 0.61217 0.0
O166 O 0.4088 0.78597 0.37751 0.0
O167 O 0.40671 0.78362 0.58746 0.0
O168 O 0.57118 0.00998 0.71555 0.0
Cd169 Cd 0.57246 0.04452 0.87998 0.0
Cd170 Cd 0.51292 0.08632 0.72482 0.0
O171 O 0.50326 0.02398 0.67196 0.0
O172 O 0.60757 0.00803 0.99956 0.0
O173 O 0.53777 0.01868 0.024 0.0
C174 C 0.57252 -0.0007 0.05956 0.0
C175 C 0.45494 0.13336 0.73497 0.0
C176 C 0.53666 0.00126 0.65718 0.0
C177 C 0.60033 0.12309 0.75433 0.0
O178 O 0.57075 0.11451 0.67552 0.0
O179 O 0.60143 0.10452 0.8621 0.0
O180 O 0.46975 0.12053 0.62747 0.0
O181 O 0.47212 0.11841 0.83743 0.0
O182 O 0.97282 0.95745 0.21558 0.0
Cd183 Cd 0.97156 0.92292 0.38003 0.0
Cd184 Cd 0.03108 0.88111 0.2249 0.0
O185 O 0.04074 0.94345 0.17205 0.0
O186 O 0.93644 0.95941 0.49956 0.0
O187 O 0.00623 0.94877 0.52409 0.0
C188 C 0.97149 0.96815 0.5596 0.0
C189 C 0.08907 0.83406 0.23498 0.0
C190 C 0.00734 0.96617 0.15725 0.0
C191 C 0.94368 0.84434 0.25441 0.0
O192 O 0.97326 0.85292 0.17561 0.0
O193 O 0.94258 0.86291 0.36217 0.0
O194 O 0.07424 0.84691 0.1275 0.0
O195 O 0.07191 0.84901 0.33746 0.0
O196 O 0.57118 0.95745 0.50951 0.0
Cd197 Cd 0.57244 0.92292 0.34507 0.0
Cd198 Cd 0.51291 0.88112 0.50023 0.0
O199 O 0.50326 0.94345 0.55306 0.0
O200 O 0.60756 0.9594 0.22554 0.0
O201 O 0.53776 0.94877 0.20101 0.0
C202 C 0.57251 0.96814 0.1655 0.0
C203 C 0.45493 0.83407 0.49014 0.0
C204 C 0.53666 0.96617 0.56785 0.0
C205 C 0.60031 0.84433 0.4707 0.0
O206 O 0.57074 0.85292 0.54951 0.0
O207 O 0.60141 0.8629 0.36294 0.0
O208 O 0.46976 0.84691 0.59762 0.0
O209 O 0.47209 0.84901 0.38766 0.0
O210 O 0.97282 0.00998 1.00955 0.0
Cd211 Cd 0.97155 0.04452 0.84512 0.0
Cd212 Cd 0.03109 0.08631 1.00029 0.0
O213 O 0.04075 0.02398 0.05314 0.0
O214 O 0.93643 0.00804 0.72554 0.0
O215 O 0.00623 0.01868 0.70109 0.0
C216 C 0.97149 -0.00069 0.66553 0.0
C217 C 0.08907 0.13336 0.99014 0.0
C218 C 0.00734 0.00126 0.06791 0.0
C219 C 0.94368 0.1231 0.97079 0.0
O220 O 0.97327 0.11451 0.04959 0.0
O221 O 0.94258 0.10453 0.86302 0.0
O222 O 0.07426 0.12052 0.09764 0.0
O223 O 0.07189 0.11841 0.88768 0.0
loop_
_geom_bond_atom_site_label_1
_geom_bond_atom_site_label_2
_geom_bond_distance
_geom_bond_site_symmetry_2
_ccdc_geom_bond_type
O0 Cd1 2.223 . S
O0 C8 1.315 . S
Cd1 O0 2.223 . S
Cd1 O4 2.297 . S
Cd1 O5 2.439 . S
Cd1 O11 2.240 . S
Cd2 O3 2.240 . S
Cd2 O10 2.223 . S
Cd2 O12 2.297 1_455 S
Cd2 O13 2.439 1_455 S
O3 Cd2 2.240 . S
O3 C8 1.279 . S
O4 Cd1 2.297 . S
O4 C6 1.247 . S
O5 Cd1 2.439 . S
O5 C6 1.208 . S
C6 O4 1.247 . S
C6 O5 1.208 . S
C7 O12 1.247 . S
C7 O13 1.208 . S
C8 O0 1.315 . S
C8 O3 1.279 . S
C9 O10 1.315 . S
C9 O11 1.279 . S
O10 Cd2 2.223 . S
O10 C9 1.315 . S
O11 Cd1 2.240 . S
O11 C9 1.279 . S
O12 Cd2 2.297 1_655 S
O12 C7 1.247 . S
O13 Cd2 2.439 1_655 S
O13 C7 1.208 . S
O14 Cd15 2.223 . S
O14 C22 1.315 . S
Cd15 O14 2.223 . S
Cd15 O18 2.297 . S
Cd15 O19 2.439 . S
Cd15 O25 2.240 . S
Cd16 O17 2.240 . S
Cd16 O24 2.223 . S
Cd16 O26 2.297 . S
Cd16 O27 2.439 . S
O17 Cd16 2.240 . S
O17 C22 1.279 . S
O18 Cd15 2.297 . S
O18 C20 1.247 . S
O19 Cd15 2.439 . S
O19 C20 1.208 . S
C20 O18 1.247 . S
C20 O19 1.208 . S
C21 O26 1.247 . S
C21 O27 1.208 . S
C22 O14 1.315 . S
C22 O17 1.279 . S
C23 O24 1.315 . S
C23 O25 1.279 . S
O24 Cd16 2.223 . S
O24 C23 1.315 . S
O25 Cd15 2.240 . S
O25 C23 1.279 . S
O26 Cd16 2.297 . S
O26 C21 1.247 . S
O27 Cd16 2.439 . S
O27 C21 1.208 . S
O28 Cd29 2.223 . S
O28 C36 1.315 . S
Cd29 O28 2.223 . S
Cd29 O32 2.297 1_556 S
Cd29 O33 2.439 . S
Cd29 O39 2.240 . S
Cd30 O31 2.240 . S
Cd30 O38 2.223 . S
Cd30 O40 2.297 . S
Cd30 O41 2.439 . S
O31 Cd30 2.240 . S
O31 C36 1.279 . S
O32 Cd29 2.297 1_554 S
O32 C34 1.247 . S
O33 Cd29 2.439 . S
O33 C34 1.208 1_556 S
C34 O32 1.247 . S
C34 O33 1.208 1_554 S
C35 O40 1.247 . S
C35 O41 1.208 . S
C36 O28 1.315 . S
C36 O31 1.279 . S
C37 O38 1.315 . S
C37 O39 1.279 . S
O38 Cd30 2.223 . S
O38 C37 1.315 . S
O39 Cd29 2.240 . S
O39 C37 1.279 . S
O40 Cd30 2.297 . S
O40 C35 1.247 . S
O41 Cd30 2.439 . S
O41 C35 1.208 . S
O42 Cd43 2.223 1_556 S
O42 C50 1.315 . S
Cd43 O42 2.223 1_554 S
Cd43 O46 2.297 . S
Cd43 O47 2.439 . S
Cd43 O53 2.240 . S
Cd44 O45 2.240 . S
Cd44 O52 2.223 . S
Cd44 O54 2.297 . S
Cd44 O55 2.439 1_556 S
O45 Cd44 2.240 . S
O45 C50 1.279 . S
O46 Cd43 2.297 . S
O46 C48 1.247 . S
O47 Cd43 2.439 . S
O47 C48 1.208 . S
C48 O46 1.247 . S
C48 O47 1.208 . S
C49 O54 1.247 1_554 S
C49 O55 1.208 . S
C50 O42 1.315 . S
C50 O45 1.279 . S
C51 O52 1.315 . S
C51 O53 1.279 1_556 S
O52 Cd44 2.223 . S
O52 C51 1.315 . S
O53 Cd43 2.240 . S
O53 C51 1.279 1_554 S
O54 Cd44 2.297 . S
O54 C49 1.247 1_556 S
O55 Cd44 2.439 1_554 S
O55 C49 1.208 . S
O56 Cd57 2.223 . S
O56 C64 1.315 1_556 S
Cd57 O56 2.223 . S
Cd57 O60 2.297 . S
Cd57 O61 2.439 . S
Cd57 O67 2.240 . S
Cd58 O59 2.240 . S
Cd58 O66 2.223 . S
Cd58 O68 2.297 1_455 S
Cd58 O69 2.439 1_454 S
O59 Cd58 2.240 . S
O59 C64 1.279 . S
O60 Cd57 2.297 . S
O60 C62 1.247 . S
O61 Cd57 2.439 . S
O61 C62 1.208 . S
C62 O60 1.247 . S
C62 O61 1.208 . S
C63 O68 1.247 1_556 S
C63 O69 1.208 . S
C64 O56 1.315 1_554 S
C64 O59 1.279 . S
C65 O66 1.315 . S
C65 O67 1.279 1_554 S
O66 Cd58 2.223 . S
O66 C65 1.315 . S
O67 Cd57 2.240 . S
O67 C65 1.279 1_556 S
O68 Cd58 2.297 1_655 S
O68 C63 1.247 1_554 S
O69 Cd58 2.439 1_656 S
O69 C63 1.208 . S
O70 Cd71 2.223 . S
O70 C78 1.315 . S
Cd71 O70 2.223 . S
Cd71 O74 2.297 1_554 S
Cd71 O75 2.439 1_554 S
Cd71 O81 2.240 . S
Cd72 O73 2.240 . S
Cd72 O80 2.223 . S
Cd72 O82 2.297 . S
Cd72 O83 2.439 . S
O73 Cd72 2.240 . S
O73 C78 1.279 . S
O74 Cd71 2.297 1_556 S
O74 C76 1.247 . S
O75 Cd71 2.439 1_556 S
O75 C76 1.208 . S
C76 O74 1.247 . S
C76 O75 1.208 . S
C77 O82 1.247 . S
C77 O83 1.208 . S
C78 O70 1.315 . S
C78 O73 1.279 . S
C79 O80 1.315 . S
C79 O81 1.279 . S
O80 Cd72 2.223 . S
O80 C79 1.315 . S
O81 Cd71 2.240 . S
O81 C79 1.279 . S
O82 Cd72 2.297 . S
O82 C77 1.247 . S
O83 Cd72 2.439 . S
O83 C77 1.208 . S
O84 Cd85 2.223 . S
O84 C92 1.315 . S
Cd85 O84 2.223 . S
Cd85 O88 2.297 . S
Cd85 O89 2.439 . S
Cd85 O95 2.240 . S
Cd86 O87 2.240 . S
Cd86 O94 2.223 . S
Cd86 O96 2.297 . S
Cd86 O97 2.439 . S
O87 Cd86 2.240 . S
O87 C92 1.279 . S
O88 Cd85 2.297 . S
O88 C90 1.247 . S
O89 Cd85 2.439 . S
O89 C90 1.208 . S
C90 O88 1.247 . S
C90 O89 1.208 . S
C91 O96 1.247 . S
C91 O97 1.208 . S
C92 O84 1.315 . S
C92 O87 1.279 . S
C93 O94 1.315 . S
C93 O95 1.279 . S
O94 Cd86 2.223 . S
O94 C93 1.315 . S
O95 Cd85 2.240 . S
O95 C93 1.279 . S
O96 Cd86 2.297 . S
O96 C91 1.247 . S
O97 Cd86 2.439 . S
O97 C91 1.208 . S
O98 Cd99 2.223 . S
O98 C106 1.315 . S
Cd99 O98 2.223 . S
Cd99 O102 2.297 . S
Cd99 O103 2.439 . S
Cd99 O109 2.240 . S
Cd100 O101 2.240 . S
Cd100 O108 2.223 . S
Cd100 O110 2.297 . S
Cd100 O111 2.439 . S
O101 Cd100 2.240 . S
O101 C106 1.279 . S
O102 Cd99 2.297 . S
O102 C104 1.247 . S
O103 Cd99 2.439 . S
O103 C104 1.208 . S
C104 O102 1.247 . S
C104 O103 1.208 . S
C105 O110 1.247 . S
C105 O111 1.208 . S
C106 O98 1.315 . S
C106 O101 1.279 . S
C107 O108 1.315 . S
C107 O109 1.279 . S
O108 Cd100 2.223 . S
O108 C107 1.315 . S
O109 Cd99 2.240 . S
O109 C107 1.279 . S
O110 Cd100 2.297 . S
O110 C105 1.247 . S
O111 Cd100 2.439 . S
O111 C105 1.208 . S
O112 Cd113 2.223 . S
O112 C120 1.315 . S
Cd113 O112 2.223 . S
Cd113 O116 2.297 . S
Cd113 O117 2.439 . S
Cd113 O123 2.240 . S
Cd114 O115 2.240 . S
Cd114 O122 2.223 . S
Cd114 O124 2.297 . S
Cd114 O125 2.439 . S
O115 Cd114 2.240 . S
O115 C120 1.279 . S
O116 Cd113 2.297 . S
O116 C118 1.247 . S
O117 Cd113 2.439 . S
O117 C118 1.208 . S
C118 O116 1.247 . S
C118 O117 1.208 . S
C119 O124 1.247 . S
C119 O125 1.208 . S
C120 O112 1.315 . S
C120 O115 1.279 . S
C121 O122 1.315 . S
C121 O123 1.279 . S
O122 Cd114 2.223 . S
O122 C121 1.315 . S
O123 Cd113 2.240 . S
O123 C121 1.279 . S
O124 Cd114 2.297 . S
O124 C119 1.247 . S
O125 Cd114 2.439 . S
O125 C119 1.208 . S
O126 Cd127 2.223 . S
O126 C134 1.315 . S
Cd127 O126 2.223 . S
Cd127 O130 2.297 1_554 S
Cd127 O131 2.439 1_554 S
Cd127 O137 2.240 . S
Cd128 O129 2.240 . S
Cd128 O136 2.223 . S
Cd128 O138 2.297 . S
Cd128 O139 2.439 . S
O129 Cd128 2.240 . S
O129 C134 1.279 . S
O130 Cd127 2.297 1_556 S
O130 C132 1.247 . S
O131 Cd127 2.439 1_556 S
O131 C132 1.208 . S
C132 O130 1.247 . S
C132 O131 1.208 . S
C133 O138 1.247 . S
C133 O139 1.208 . S
C134 O126 1.315 . S
C134 O129 1.279 . S
C135 O136 1.315 . S
C135 O137 1.279 . S
O136 Cd128 2.223 . S
O136 C135 1.315 . S
O137 Cd127 2.240 . S
O137 C135 1.279 . S
O138 Cd128 2.297 . S
O138 C133 1.247 . S
O139 Cd128 2.439 . S
O139 C133 1.208 . S
O140 Cd141 2.223 1_556 S
O140 C148 1.315 . S
Cd141 O140 2.223 1_554 S
Cd141 O144 2.297 . S
Cd141 O145 2.439 . S
Cd141 O151 2.240 . S
Cd142 O143 2.240 . S
Cd142 O150 2.223 . S
Cd142 O152 2.297 . S
Cd142 O153 2.439 1_556 S
O143 Cd142 2.240 . S
O143 C148 1.279 . S
O144 Cd141 2.297 . S
O144 C146 1.247 . S
O145 Cd141 2.439 . S
O145 C146 1.208 . S
C146 O144 1.247 . S
C146 O145 1.208 . S
C147 O152 1.247 1_554 S
C147 O153 1.208 . S
C148 O140 1.315 . S
C148 O143 1.279 . S
C149 O150 1.315 . S
C149 O151 1.279 1_556 S
O150 Cd142 2.223 . S
O150 C149 1.315 . S
O151 Cd141 2.240 . S
O151 C149 1.279 1_554 S
O152 Cd142 2.297 . S
O152 C147 1.247 1_556 S
O153 Cd142 2.439 1_554 S
O153 C147 1.208 . S
O154 Cd155 2.223 . S
O154 C162 1.315 . S
Cd155 O154 2.223 . S
Cd155 O158 2.297 . S
Cd155 O159 2.439 . S
Cd155 O165 2.240 . S
Cd156 O157 2.240 . S
Cd156 O164 2.223 . S
Cd156 O166 2.297 . S
Cd156 O167 2.439 . S
O157 Cd156 2.240 . S
O157 C162 1.279 . S
O158 Cd155 2.297 . S
O158 C160 1.247 . S
O159 Cd155 2.439 . S
O159 C160 1.208 . S
C160 O158 1.247 . S
C160 O159 1.208 . S
C161 O166 1.247 . S
C161 O167 1.208 . S
C162 O154 1.315 . S
C162 O157 1.279 . S
C163 O164 1.315 . S
C163 O165 1.279 . S
O164 Cd156 2.223 . S
O164 C163 1.315 . S
O165 Cd155 2.240 . S
O165 C163 1.279 . S
O166 Cd156 2.297 . S
O166 C161 1.247 . S
O167 Cd156 2.439 . S
O167 C161 1.208 . S
O168 Cd169 2.223 . S
O168 C176 1.315 . S
Cd169 O168 2.223 . S
Cd169 O172 2.297 1_546 S
Cd169 O173 2.439 . S
Cd169 O179 2.240 . S
Cd170 O171 2.240 . S
Cd170 O178 2.223 . S
Cd170 O180 2.297 . S
Cd170 O181 2.439 . S
O171 Cd170 2.240 . S
O171 C176 1.279 . S
O172 Cd169 2.297 1_564 S
O172 C174 1.247 1_565 S
O173 Cd169 2.439 . S
O173 C174 1.208 1_556 S
C174 O172 1.247 1_545 S
C174 O173 1.208 1_554 S
C175 O180 1.247 . S
C175 O181 1.208 . S
C176 O168 1.315 . S
C176 O171 1.279 . S
C177 O178 1.315 . S
C177 O179 1.279 . S
O178 Cd170 2.223 . S
O178 C177 1.315 . S
O179 Cd169 2.240 . S
O179 C177 1.279 . S
O180 Cd170 2.297 . S
O180 C175 1.247 . S
O181 Cd170 2.439 . S
O181 C175 1.208 . S
O182 Cd183 2.223 . S
O182 C190 1.315 . S
Cd183 O182 2.223 . S
Cd183 O186 2.297 1_565 S
Cd183 O187 2.439 1_655 S
Cd183 O193 2.240 . S
Cd184 O185 2.240 . S
Cd184 O192 2.223 1_455 S
Cd184 O194 2.297 . S
Cd184 O195 2.439 . S
O185 Cd184 2.240 . S
O185 C190 1.279 1_455 S
O186 Cd183 2.297 1_545 S
O186 C188 1.247 1_645 S
O187 Cd183 2.439 1_455 S
O187 C188 1.208 . S
C188 O186 1.247 1_465 S
C188 O187 1.208 . S
C189 O194 1.247 . S
C189 O195 1.208 . S
C190 O182 1.315 . S
C190 O185 1.279 1_655 S
C191 O192 1.315 . S
C191 O193 1.279 . S
O192 Cd184 2.223 1_655 S
O192 C191 1.315 . S
O193 Cd183 2.240 . S
O193 C191 1.279 . S
O194 Cd184 2.297 . S
O194 C189 1.247 . S
O195 Cd184 2.439 . S
O195 C189 1.208 . S
O196 Cd197 2.223 . S
O196 C204 1.315 . S
Cd197 O196 2.223 . S
Cd197 O200 2.297 1_565 S
Cd197 O201 2.439 . S
Cd197 O207 2.240 . S
Cd198 O199 2.240 . S
Cd198 O206 2.223 . S
Cd198 O208 2.297 . S
Cd198 O209 2.439 . S
O199 Cd198 2.240 . S
O199 C204 1.279 . S
O200 Cd197 2.297 1_545 S
O200 C202 1.247 1_545 S
O201 Cd197 2.439 . S
O201 C202 1.208 . S
C202 O200 1.247 1_565 S
C202 O201 1.208 . S
C203 O208 1.247 . S
C203 O209 1.208 . S
C204 O196 1.315 . S
C204 O199 1.279 . S
C205 O206 1.315 . S
C205 O207 1.279 . S
O206 Cd198 2.223 . S
O206 C205 1.315 . S
O207 Cd197 2.240 . S
O207 C205 1.279 . S
O208 Cd198 2.297 . S
O208 C203 1.247 . S
O209 Cd198 2.439 . S
O209 C203 1.208 . S
O210 Cd211 2.223 . S
O210 C218 1.315 1_556 S
Cd211 O210 2.223 . S
Cd211 O214 2.297 1_545 S
Cd211 O215 2.439 1_655 S
Cd211 O221 2.240 . S
Cd212 O213 2.240 . S
Cd212 O220 2.223 1_455 S
Cd212 O222 2.297 . S
Cd212 O223 2.439 1_554 S
O213 Cd212 2.240 . S
O213 C218 1.279 1_455 S
O214 Cd211 2.297 1_565 S
O214 C216 1.247 1_665 S
O215 Cd211 2.439 1_455 S
O215 C216 1.208 . S
C216 O214 1.247 1_445 S
C216 O215 1.208 . S
C217 O222 1.247 1_556 S
C217 O223 1.208 . S
C218 O210 1.315 1_554 S
C218 O213 1.279 1_655 S
C219 O220 1.315 . S
C219 O221 1.279 1_554 S
O220 Cd212 2.223 1_655 S
O220 C219 1.315 . S
O221 Cd211 2.240 . S
O221 C219 1.279 1_556 S
O222 Cd212 2.297 . S
O222 C217 1.247 1_554 S
O223 Cd212 2.439 1_556 S
O223 C217 1.208 . S
C135 C9 2.002 . S
C205 C23 2.001 . S
C37 C121 2.001 . S
C51 C219 2.001 1_556 S
C65 C149 2.002 1_554 S
C191 C79 2.001 . S
C163 C93 2.001 . S
C107 C177 2.001 . S
C63 C49 1.544 1_556 S
C175 C119 1.544 . S
C91 C21 1.544 . S
C133 C189 1.543 . S
C7 C77 1.544 . S
C217 C147 1.544 1_556 S
C105 C35 1.544 . S
C161 C203 1.544 . S
C8 C64 1.673 . S
C78 C22 1.674 . S
C92 C36 1.673 . S
C50 C106 1.673 . S
C148 C120 1.673 . S
C162 C134 1.674 . S
C204 C176 1.673 1_565 S
C218 C190 1.673 1_545 S
C62 C6 1.404 . S
C76 C20 1.404 . S
C90 C34 1.404 . S
C48 C104 1.404 . S
C118 C146 1.404 . S
C160 C132 1.404 . S
C202 C174 1.404 1_565 S
C216 C188 1.404 1_545 S
