# Generated by pormake.
# Topology uog, (4)-cn, num edge types: 1
# Building blocks:
#     Node 0, Type 0, BuildingBlock: GALJAG_clean_sbu_0, # of connection points: 4
#     Node 1, Type 0, BuildingBlock: GALJAG_clean_sbu_0, # of connection points: 4
#     Node 2, Type 0, BuildingBlock: GALJAG_clean_sbu_0, # of connection points: 4
#     Node 3, Type 0, BuildingBlock: GALJAG_clean_sbu_0, # of connection points: 4
#     Node 4, Type 0, BuildingBlock: GALJAG_clean_sbu_0, # of connection points: 4
#     Node 5, Type 0, BuildingBlock: GALJAG_clean_sbu_0, # of connection points: 4
#     Edge 6, Type (0, 0), None
#     Edge 7, Type (0, 0), None
#     Edge 8, Type (0, 0), None
#     Edge 9, Type (0, 0), None
#     Edge 10, Type (0, 0), None
#     Edge 11, Type (0, 0), None
#     Edge 12, Type (0, 0), None
#     Edge 13, Type (0, 0), None
#     Edge 14, Type (0, 0), None
#     Edge 15, Type (0, 0), None
#     Edge 16, Type (0, 0), None
#     Edge 17, Type (0, 0), None
# Relax obj value: 0.035
# Max RMSD: 0.144
# Mean RMSD: 0.144
data_MOF--net-uog--node1-GALJAG_clean_sbu_0--edge1-none
_symmetry_space_group_name_H-M    P1
_symmetry_Int_Tables_number       1
_symmetry_cell_setting            triclinic
loop_
_symmetry_equiv_pos_as_xyz
'x, y, z'
_cell_length_a     13.027781
_cell_length_b     13.028322
_cell_length_c     19.549744
_cell_angle_alpha  89.999613
_cell_angle_beta   90.000761
_cell_angle_gamma 120.00413
loop_
_atom_site_label
_atom_site_type_symbol
_atom_site_fract_x
_atom_site_fract_y
_atom_site_fract_z
_atom_type_partial_charge
In0 In 0.58596 0.29309 0.15297 0.0
O1 O 0.4432 0.34466 0.1566 0.0
O2 O 0.62615 0.48274 0.15779 0.0
C3 C 0.51823 0.06336 0.14762 0.0
C4 C 0.65164 0.32131 0.28353 0.0
C5 C 0.65164 0.33056 0.02242 0.0
O6 O 0.4432 0.09876 0.14934 0.0
O7 O 0.62615 0.14364 0.14816 0.0
O8 O 0.72538 0.3477 0.06983 0.0
O9 O 0.54669 0.29673 0.04125 0.0
C10 C 0.51823 0.4551 0.15832 0.0
O11 O 0.72538 0.37792 0.23611 0.0
O12 O 0.54669 0.25019 0.26469 0.0
In13 In 0.29332 0.58576 0.4863 0.0
O14 O 0.34792 0.72517 0.56944 0.0
O15 O 0.29696 0.5465 0.59803 0.0
C16 C 0.32154 0.65144 0.35575 0.0
C17 C 0.06357 0.51802 0.49165 0.0
C18 C 0.45531 0.51802 0.48095 0.0
O19 O 0.37816 0.72518 0.40317 0.0
O20 O 0.25041 0.5465 0.37458 0.0
O21 O 0.34487 0.443 0.48268 0.0
O22 O 0.48296 0.62594 0.48149 0.0
C23 C 0.33078 0.65144 0.61686 0.0
O24 O 0.09898 0.443 0.48993 0.0
O25 O 0.14385 0.62594 0.49112 0.0
In26 In 0.70797 0.29311 0.81964 0.0
O27 O 0.62312 0.34768 0.90277 0.0
O28 O 0.75086 0.29675 0.93137 0.0
C29 C 0.67051 0.32132 0.68908 0.0
C30 C 0.54598 0.06336 0.82499 0.0
C31 C 0.93772 0.4551 0.81429 0.0
O32 O 0.65339 0.37793 0.7365 0.0
O33 O 0.70432 0.2502 0.70792 0.0
O34 O 0.9023 0.34466 0.81601 0.0
O35 O 0.85745 0.48274 0.81483 0.0
C36 C 0.6797 0.33052 0.95019 0.0
O37 O 0.65642 0.09879 0.82327 0.0
O38 O 0.51833 0.14362 0.82445 0.0
In39 In 0.41533 0.70777 0.15297 0.0
O40 O 0.55809 0.65621 0.15661 0.0
O41 O 0.37514 0.51813 0.15778 0.0
C42 C 0.48306 0.93751 0.14763 0.0
C43 C 0.34965 0.67951 0.28352 0.0
C44 C 0.34966 0.67031 0.02242 0.0
O45 O 0.55809 0.90211 0.14935 0.0
O46 O 0.37514 0.85723 0.14816 0.0
O47 O 0.27592 0.65318 0.06983 0.0
O48 O 0.4546 0.70414 0.04125 0.0
C49 C 0.48306 0.54577 0.15832 0.0
O50 O 0.2759 0.62293 0.2361 0.0
O51 O 0.45459 0.75066 0.2647 0.0
In52 In 0.70797 0.4151 0.4863 0.0
O53 O 0.90231 0.55786 0.48993 0.0
O54 O 0.85744 0.37493 0.49111 0.0
C55 C 0.54598 0.48284 0.48096 0.0
C56 C 0.67055 0.34942 0.61685 0.0
C57 C 0.6797 0.34942 0.35576 0.0
O58 O 0.65642 0.55786 0.48267 0.0
O59 O 0.51833 0.37493 0.4815 0.0
O60 O 0.62312 0.27567 0.40317 0.0
O61 O 0.75086 0.45435 0.37458 0.0
C62 C 0.93772 0.48284 0.49165 0.0
O63 O 0.65337 0.27568 0.56944 0.0
O64 O 0.70435 0.45436 0.59803 0.0
In65 In 0.29333 0.70776 0.81964 0.0
O66 O 0.34487 0.90208 0.82327 0.0
O67 O 0.48297 0.85725 0.82445 0.0
C68 C 0.06357 0.54577 0.8143 0.0
C69 C 0.32159 0.67035 0.95019 0.0
C70 C 0.33074 0.6795 0.68909 0.0
O71 O 0.099 0.6562 0.81601 0.0
O72 O 0.14384 0.51812 0.81483 0.0
O73 O 0.34791 0.62293 0.73651 0.0
O74 O 0.29696 0.75065 0.70791 0.0
C75 C 0.45532 0.93751 0.82498 0.0
O76 O 0.37817 0.65319 0.90277 0.0
O77 O 0.25044 0.70413 0.93136 0.0
loop_
_geom_bond_atom_site_label_1
_geom_bond_atom_site_label_2
_geom_bond_distance
_geom_bond_site_symmetry_2
_ccdc_geom_bond_type
In0 O1 2.294 . S
In0 O2 2.326 . S
In0 O6 2.266 . S
In0 O7 2.326 . S
In0 O8 2.266 . S
In0 O9 2.326 . S
In0 O11 2.294 . S
In0 O12 2.326 . S
O1 In0 2.294 . S
O1 C10 1.240 . S
O2 In0 2.326 . S
O2 C10 1.252 . S
C3 O6 1.252 . S
C3 O7 1.260 . S
C4 O11 1.240 . S
C4 O12 1.252 . S
C5 O8 1.252 . S
C5 O9 1.260 . S
O6 In0 2.266 . S
O6 C3 1.252 . S
O7 In0 2.326 . S
O7 C3 1.260 . S
O8 In0 2.266 . S
O8 C5 1.252 . S
O9 In0 2.326 . S
O9 C5 1.260 . S
C10 O1 1.240 . S
C10 O2 1.252 . S
O11 In0 2.294 . S
O11 C4 1.240 . S
O12 In0 2.326 . S
O12 C4 1.252 . S
In13 O14 2.294 . S
In13 O15 2.326 . S
In13 O19 2.266 . S
In13 O20 2.326 . S
In13 O21 2.266 . S
In13 O22 2.326 . S
In13 O24 2.294 . S
In13 O25 2.326 . S
O14 In13 2.294 . S
O14 C23 1.240 . S
O15 In13 2.326 . S
O15 C23 1.252 . S
C16 O19 1.252 . S
C16 O20 1.260 . S
C17 O24 1.240 . S
C17 O25 1.252 . S
C18 O21 1.252 . S
C18 O22 1.260 . S
O19 In13 2.266 . S
O19 C16 1.252 . S
O20 In13 2.326 . S
O20 C16 1.260 . S
O21 In13 2.266 . S
O21 C18 1.252 . S
O22 In13 2.326 . S
O22 C18 1.260 . S
C23 O14 1.240 . S
C23 O15 1.252 . S
O24 In13 2.294 . S
O24 C17 1.240 . S
O25 In13 2.326 . S
O25 C17 1.252 . S
In26 O27 2.294 . S
In26 O28 2.326 . S
In26 O32 2.266 . S
In26 O33 2.326 . S
In26 O34 2.266 . S
In26 O35 2.326 . S
In26 O37 2.294 . S
In26 O38 2.326 . S
O27 In26 2.294 . S
O27 C36 1.240 . S
O28 In26 2.326 . S
O28 C36 1.252 . S
C29 O32 1.252 . S
C29 O33 1.260 . S
C30 O37 1.240 . S
C30 O38 1.252 . S
C31 O34 1.252 . S
C31 O35 1.260 . S
O32 In26 2.266 . S
O32 C29 1.252 . S
O33 In26 2.326 . S
O33 C29 1.260 . S
O34 In26 2.266 . S
O34 C31 1.252 . S
O35 In26 2.326 . S
O35 C31 1.260 . S
C36 O27 1.240 . S
C36 O28 1.252 . S
O37 In26 2.294 . S
O37 C30 1.240 . S
O38 In26 2.326 . S
O38 C30 1.252 . S
In39 O40 2.294 . S
In39 O41 2.326 . S
In39 O45 2.266 . S
In39 O46 2.326 . S
In39 O47 2.266 . S
In39 O48 2.326 . S
In39 O50 2.294 . S
In39 O51 2.326 . S
O40 In39 2.294 . S
O40 C49 1.240 . S
O41 In39 2.326 . S
O41 C49 1.252 . S
C42 O45 1.252 . S
C42 O46 1.260 . S
C43 O50 1.240 . S
C43 O51 1.252 . S
C44 O47 1.252 . S
C44 O48 1.260 . S
O45 In39 2.266 . S
O45 C42 1.252 . S
O46 In39 2.326 . S
O46 C42 1.260 . S
O47 In39 2.266 . S
O47 C44 1.252 . S
O48 In39 2.326 . S
O48 C44 1.260 . S
C49 O40 1.240 . S
C49 O41 1.252 . S
O50 In39 2.294 . S
O50 C43 1.240 . S
O51 In39 2.326 . S
O51 C43 1.252 . S
In52 O53 2.294 . S
In52 O54 2.326 . S
In52 O58 2.266 . S
In52 O59 2.326 . S
In52 O60 2.266 . S
In52 O61 2.326 . S
In52 O63 2.294 . S
In52 O64 2.326 . S
O53 In52 2.294 . S
O53 C62 1.240 . S
O54 In52 2.326 . S
O54 C62 1.252 . S
C55 O58 1.252 . S
C55 O59 1.260 . S
C56 O63 1.240 . S
C56 O64 1.252 . S
C57 O60 1.252 . S
C57 O61 1.260 . S
O58 In52 2.266 . S
O58 C55 1.252 . S
O59 In52 2.326 . S
O59 C55 1.260 . S
O60 In52 2.266 . S
O60 C57 1.252 . S
O61 In52 2.326 . S
O61 C57 1.260 . S
C62 O53 1.240 . S
C62 O54 1.252 . S
O63 In52 2.294 . S
O63 C56 1.240 . S
O64 In52 2.326 . S
O64 C56 1.252 . S
In65 O66 2.294 . S
In65 O67 2.326 . S
In65 O71 2.266 . S
In65 O72 2.326 . S
In65 O73 2.266 . S
In65 O74 2.326 . S
In65 O76 2.294 . S
In65 O77 2.326 . S
O66 In65 2.294 . S
O66 C75 1.240 . S
O67 In65 2.326 . S
O67 C75 1.252 . S
C68 O71 1.252 . S
C68 O72 1.260 . S
C69 O76 1.240 . S
C69 O77 1.252 . S
C70 O73 1.252 . S
C70 O74 1.260 . S
O71 In65 2.266 . S
O71 C68 1.252 . S
O72 In65 2.326 . S
O72 C68 1.260 . S
O73 In65 2.266 . S
O73 C70 1.252 . S
O74 In65 2.326 . S
O74 C70 1.260 . S
C75 O66 1.240 . S
C75 O67 1.252 . S
O76 In65 2.294 . S
O76 C69 1.240 . S
O77 In65 2.326 . S
O77 C69 1.252 . S
C3 C42 1.651 1_545 S
C18 C55 1.651 . S
C31 C68 1.651 1_655 S
C17 C62 1.658 1_455 S
C75 C30 1.658 1_565 S
C49 C10 1.658 . S
C36 C5 1.480 1_556 S
C43 C16 1.480 . S
C29 C56 1.480 . S
C69 C44 1.480 1_556 S
C57 C4 1.479 . S
C70 C23 1.480 . S
