# Generated by pormake.
# Topology dmp, (4)-cn, num edge types: 1
# Building blocks:
#     Node 0, Type 0, BuildingBlock: ESEHIV_clean_sbu_0, # of connection points: 4
#     Node 1, Type 0, BuildingBlock: ESEHIV_clean_sbu_0, # of connection points: 4
#     Node 2, Type 0, BuildingBlock: ESEHIV_clean_sbu_0, # of connection points: 4
#     Node 3, Type 0, BuildingBlock: ESEHIV_clean_sbu_0, # of connection points: 4
#     Edge 4, Type (0, 0), BuildingBlock: CIFDUS_clean_linker_0, # of connection points: 2
#     Edge 5, Type (0, 0), BuildingBlock: CIFDUS_clean_linker_0, # of connection points: 2
#     Edge 6, Type (0, 0), BuildingBlock: CIFDUS_clean_linker_0, # of connection points: 2
#     Edge 7, Type (0, 0), BuildingBlock: CIFDUS_clean_linker_0, # of connection points: 2
#     Edge 8, Type (0, 0), BuildingBlock: CIFDUS_clean_linker_0, # of connection points: 2
#     Edge 9, Type (0, 0), BuildingBlock: CIFDUS_clean_linker_0, # of connection points: 2
#     Edge 10, Type (0, 0), BuildingBlock: CIFDUS_clean_linker_0, # of connection points: 2
#     Edge 11, Type (0, 0), BuildingBlock: CIFDUS_clean_linker_0, # of connection points: 2
# Relax obj value: 0.000
# Max RMSD: 0.008
# Mean RMSD: 0.008
data_MOF--net-dmp--node1-ESEHIV_clean_sbu_0--edge1-CIFDUS_clean_linker_0
_symmetry_space_group_name_H-M    P1
_symmetry_Int_Tables_number       1
_symmetry_cell_setting            triclinic
loop_
_symmetry_equiv_pos_as_xyz
'x, y, z'
_cell_length_a     34.547567
_cell_length_b     21.70289
_cell_length_c     5.4356577
_cell_angle_alpha  89.787507
_cell_angle_beta   89.940918
_cell_angle_gamma 99.578539
loop_
_atom_site_label
_atom_site_type_symbol
_atom_site_fract_x
_atom_site_fract_y
_atom_site_fract_z
_atom_type_partial_charge
Cu0 Cu 0.15389 0.27903 0.23658 0.0
N1 N 0.18809 0.24766 0.01403 0.0
N2 N 0.22345 0.17555 0.88193 0.0
C3 C 0.18967 0.18608 0.98784 0.0
C4 C 0.2442 0.23307 0.84094 0.0
C5 C 0.22277 0.27695 0.92624 0.0
O6 O 0.11612 0.20517 0.33001 0.0
C7 C 0.20543 0.37751 0.41485 0.0
O8 O 0.19828 0.39708 0.19333 0.0
H9 H 0.16833 0.14957 0.06878 0.0
H10 H 0.23337 0.32631 0.94209 0.0
N11 N 0.12293 0.33914 0.13317 0.0
N12 N 0.08617 0.41387 0.20176 0.0
C13 C 0.1138 0.38262 0.29054 0.0
C14 C 0.10005 0.3434 0.93507 0.0
C15 C 0.0772 0.38904 0.97767 0.0
C16 C 0.0963 0.18229 0.14349 0.0
O17 O 0.10397 0.20948 0.92903 0.0
H18 H 0.12605 0.38933 0.47298 0.0
H19 H 0.09859 0.31391 0.77471 0.0
O20 O 0.18869 0.32331 0.48548 0.0
H21 H 0.27373 0.24302 0.76799 0.0
H22 H 0.05501 0.40168 0.85598 0.0
Cu23 Cu 0.4001 0.7716 0.22067 0.0
N24 N 0.3646 0.80378 0.01052 0.0
N25 N 0.3286 0.87548 0.88304 0.0
C26 C 0.36226 0.86521 -0.00932 0.0
C27 C 0.30863 0.81785 0.8351 0.0
C28 C 0.33058 0.77406 0.9169 0.0
O29 O 0.43742 0.84545 0.31761 0.0
C30 C 0.35212 0.66886 0.40459 0.0
O31 O 0.35872 0.65078 0.18049 0.0
H32 H 0.38317 0.90161 0.07474 0.0
H33 H 0.32095 0.72426 0.92586 0.0
N34 N 0.43143 0.71532 0.09112 0.0
N35 N 0.47336 0.64653 0.11926 0.0
C36 C 0.44547 0.67283 0.2332 0.0
C37 C 0.45073 0.71491 0.87612 0.0
C38 C 0.47684 0.67325 0.89393 0.0
C39 C 0.45633 0.87109 0.13134 0.0
O40 O 0.44808 0.84662 0.9137 0.0
H41 H 0.43657 0.6635 0.42155 0.0
H42 H 0.4476 0.74478 0.72055 0.0
O43 O 0.36756 0.72369 0.47351 0.0
H44 H 0.27942 0.80772 0.7579 0.0
H45 H 0.49774 0.66519 0.75455 0.0
Cu46 Cu 0.89003 0.77265 0.75061 0.0
N47 N 0.8508 0.80161 0.94212 0.0
N48 N 0.80946 0.8675 0.04496 0.0
C49 C 0.84459 0.86167 0.94505 0.0
C50 C 0.79295 0.8089 0.108 0.0
C51 C 0.81797 0.76881 0.04093 0.0
O52 O 0.92843 0.84761 0.68842 0.0
C53 C 0.84192 0.67703 0.53214 0.0
O54 O 0.84191 0.65928 0.76278 0.0
H55 H 0.86391 0.89957 0.85581 0.0
H56 H 0.81079 0.71898 0.04543 0.0
N57 N 0.91874 0.71238 0.88152 0.0
N58 N 0.95486 0.63552 0.84258 0.0
C59 C 0.9287 0.66699 0.73705 0.0
C60 C 0.93987 0.70952 0.0887 0.0
C61 C 0.96227 0.66234 0.06466 0.0
C62 C 0.94373 0.87225 0.88626 0.0
O63 O 0.93234 0.8459 0.0976 0.0
H64 H 0.91866 0.65942 0.55031 0.0
H65 H 0.94052 0.74088 0.24289 0.0
O66 O 0.86264 0.7291 0.46918 0.0
H67 H 0.76385 0.79525 0.1847 0.0
H68 H 0.98304 0.64995 0.19726 0.0
Cu69 Cu 0.65534 0.29036 0.76258 0.0
N70 N 0.69527 0.26181 0.94769 0.0
N71 N 0.73723 0.19701 0.05118 0.0
C72 C 0.70325 0.20291 0.93689 0.0
C73 C 0.7513 0.25464 0.13666 0.0
C74 C 0.72574 0.29422 0.07023 0.0
O75 O 0.61856 0.21427 0.69165 0.0
C76 C 0.70062 0.39153 0.55815 0.0
O77 O 0.70129 0.40521 0.79294 0.0
H78 H 0.6857 0.166 0.83294 0.0
H79 H 0.73039 0.34371 0.09742 0.0
N80 N 0.62479 0.34559 0.90788 0.0
N81 N 0.58234 0.41383 0.88806 0.0
C82 C 0.6104 0.38865 0.77092 0.0
C83 C 0.6052 0.34394 0.12279 0.0
C84 C 0.57895 0.38561 0.11055 0.0
C85 C 0.60437 0.18672 0.888 0.0
O86 O 0.61603 0.21094 0.10142 0.0
H87 H 0.61854 0.39817 0.58149 0.0
H88 H 0.60795 0.31253 0.27381 0.0
O89 O 0.68114 0.33937 0.48772 0.0
H90 H 0.77875 0.26795 0.23353 0.0
H91 H 0.55795 0.39248 0.25116 0.0
H92 H 0.25317 0.89673 0.85748 0.0
H93 H 0.37364 0.99023 0.85371 0.0
H94 H 0.35184 0.0914 0.84644 0.0
H95 H 0.29876 0.15385 0.85985 0.0
H96 H 0.1782 0.06085 0.85046 0.0
H97 H 0.19994 0.95951 0.84298 0.0
C98 C 0.27476 0.93904 0.85149 0.0
C99 C 0.31516 0.9352 0.85894 0.0
C100 C 0.26199 0.99757 0.84644 0.0
C101 C 0.34243 0.99121 0.85309 0.0
C102 C 0.32996 0.04935 0.84765 0.0
C103 C 0.27709 0.1117 0.85241 0.0
C104 C 0.23671 0.11569 0.85809 0.0
C105 C 0.28981 0.0532 0.84726 0.0
C106 C 0.2094 0.05975 0.85086 0.0
C107 C 0.22184 1.00153 0.84537 0.0
H108 H 0.19863 0.49076 0.58388 0.0
H109 H 0.27831 0.3584 0.54347 0.0
H110 H 0.33403 0.4422 0.60987 0.0
H111 H 0.3597 0.55437 0.56129 0.0
H112 H 0.27973 0.68666 0.54918 0.0
H113 H 0.22456 0.60267 0.62874 0.0
C114 C 0.2281 0.48013 0.60286 0.0
C115 C 0.23453 0.41872 0.56192 0.0
C116 C 0.25999 0.52913 0.6267 0.0
C117 C 0.27271 0.40516 0.58023 0.0
C118 C 0.30459 0.45332 0.61375 0.0
C119 C 0.33037 0.56489 0.58895 0.0
C120 C 0.32367 0.62645 0.55336 0.0
C121 C 0.29866 0.5158 0.62055 0.0
C122 C 0.28561 0.63984 0.58257 0.0
C123 C 0.254 0.59158 0.62362 0.0
H124 H 0.70259 0.07592 0.02952 0.0
H125 H 0.81546 0.19463 0.08687 0.0
H126 H 0.84794 0.10309 0.09241 0.0
H127 H 0.84457 0.98847 0.07662 0.0
H128 H 0.73148 0.87061 0.01356 0.0
H129 H 0.69919 0.96205 0.01384 0.0
C130 C 0.7343 0.08187 0.04169 0.0
C131 C 0.75636 0.14244 0.05798 0.0
C132 C 0.75294 0.02885 0.04409 0.0
C133 C 0.7975 0.14886 0.0774 0.0
C134 C 0.81622 0.09638 0.07896 0.0
C135 C 0.8129 0.98288 0.06206 0.0
C136 C 0.79065 0.92239 0.04688 0.0
C137 C 0.79428 0.03605 0.06187 0.0
C138 C 0.74949 0.91619 0.03013 0.0
C139 C 0.7309 0.96866 0.02848 0.0
H140 H 0.76623 0.66132 0.39257 0.0
H141 H 0.8729 0.58628 0.30286 0.0
H142 H 0.83522 0.48156 0.24708 0.0
H143 H 0.77344 0.41166 0.35829 0.0
H144 H 0.66632 0.48744 0.4096 0.0
H145 H 0.70238 0.59248 0.33804 0.0
C146 C 0.78107 0.62273 0.34418 0.0
C147 C 0.82219 0.63075 0.35783 0.0
C148 C 0.75907 0.56287 0.31071 0.0
C149 C 0.84123 0.58061 0.2973 0.0
C150 C 0.81965 0.52067 0.26746 0.0
C151 C 0.75762 0.45049 0.33558 0.0
C152 C 0.71727 0.44202 0.38914 0.0
C153 C 0.77867 0.51081 0.29331 0.0
C154 C 0.6973 0.493 0.36731 0.0
C155 C 0.71804 0.55321 0.32938 0.0
H156 H 0.03836 0.14566 0.82055 0.0
H157 H 0.09289 0.08462 0.47123 0.0
H158 H 0.05178 0.98124 0.437 0.0
H159 H 1.00012 0.90914 0.22213 0.0
H160 H 0.94719 0.97032 0.56593 0.0
H161 H 0.98743 0.07399 0.60559 0.0
C162 C 0.04097 0.10998 0.95707 0.0
C163 C 0.06846 0.12275 0.14929 0.0
C164 C 1.0175 0.0511 0.93516 0.0
C165 C 0.07163 0.0761 0.3237 0.0
C166 C 0.04844 1.01693 0.30231 0.0
C167 C 0.99781 0.94502 0.08596 0.0
C168 C 0.97103 0.93219 0.88987 0.0
C169 C 1.02133 1.00401 0.10869 0.0
C170 C 0.968 0.97895 0.71592 0.0
C171 C 0.99068 0.03826 0.7403 0.0
H172 H 0.54803 0.14634 0.22048 0.0
H173 H 0.60292 0.09067 0.56291 0.0
H174 H 0.56451 0.98535 0.59982 0.0
H175 H 0.51448 0.91082 0.81258 0.0
H176 H 0.45806 0.96645 0.46462 0.0
H177 H 0.49746 0.07135 0.43359 0.0
C178 C 0.55113 0.11128 0.08325 0.0
C179 C 0.57789 0.12609 0.88756 0.0
C180 C 0.5287 0.0514 0.10465 0.0
C181 C 0.58202 0.08046 0.71231 0.0
C182 C 0.56042 1.02024 0.73529 0.0
C183 C 0.51116 0.94566 0.95027 0.0
C184 C 0.48361 0.931 0.14182 0.0
C185 C 0.53362 1.00541 0.92994 0.0
C186 C 0.47944 0.97648 0.31783 0.0
C187 C 0.50162 0.03651 0.2981 0.0
H188 H 0.03009 0.61561 0.89014 0.0
H189 H 0.92061 0.54766 0.52792 0.0
H190 H 0.95202 0.47597 0.28268 0.0
H191 H 1.01084 0.43233 0.16842 0.0
H192 H 0.12029 0.49756 0.53692 0.0
H193 H 0.0889 0.56947 0.78316 0.0
C194 C 1.01307 0.58449 0.76003 0.0
C195 C 0.97309 0.58794 0.72427 0.0
C196 C 0.03145 0.54281 0.6197 0.0
C197 C 0.95154 0.54716 0.55434 0.0
C198 C 0.96949 0.50589 0.41466 0.0
C199 C 0.02792 0.46277 0.30045 0.0
C200 C 0.06791 0.45938 0.33356 0.0
C201 C 1.00955 0.50373 0.44344 0.0
C202 C 0.08943 0.49882 0.50835 0.0
C203 C 0.07147 0.54003 0.64957 0.0
H204 H 0.4536 0.5635 0.49052 0.0
H205 H 0.54829 0.63648 -0.00254 0.0
H206 H 0.59065 0.57209 0.19754 0.0
H207 H 0.60158 0.49732 0.51962 0.0
H208 H 0.5073 0.42384 0.0137 0.0
H209 H 0.46474 0.48827 0.81422 0.0
C210 C 0.48355 0.56557 0.42726 0.0
C211 C 0.49761 0.60535 0.2291 0.0
C212 C 0.50811 0.52905 0.54642 0.0
C213 C 0.53642 0.6064 0.14799 0.0
C214 C 0.56087 0.56993 0.26418 0.0
C215 C 0.5717 0.49497 0.58315 0.0
C216 C 0.55784 0.45508 0.78101 0.0
C217 C 0.54713 0.53141 0.46454 0.0
C218 C 0.51905 0.45395 0.863 0.0
C219 C 0.49449 0.49047 0.74715 0.0
loop_
_geom_bond_atom_site_label_1
_geom_bond_atom_site_label_2
_geom_bond_distance
_geom_bond_site_symmetry_2
_ccdc_geom_bond_type
Cu0 N1 1.999 . S
Cu0 O6 1.974 . S
Cu0 N11 1.985 . S
Cu0 O20 1.959 . S
N1 Cu0 1.999 . S
N1 C3 1.263 . S
N1 C5 1.389 . S
N2 C3 1.358 . S
N2 C4 1.400 . S
C3 N1 1.263 . S
C3 N2 1.358 . S
C3 H9 0.930 . S
C4 N2 1.400 . S
C4 C5 1.351 . S
C4 H21 0.930 . S
C5 N1 1.389 . S
C5 C4 1.351 . S
C5 H10 0.930 . S
O6 Cu0 1.974 . S
O6 C16 1.282 . S
C7 O8 1.261 . S
C7 O20 1.251 . S
O8 C7 1.261 . S
H9 C3 0.930 . S
H10 C5 0.930 . S
N11 Cu0 1.985 . S
N11 C13 1.335 . S
N11 C14 1.390 . S
N12 C13 1.345 . S
N12 C15 1.336 . S
C13 N11 1.335 . S
C13 N12 1.345 . S
C13 H18 0.930 . S
C14 N11 1.390 . S
C14 C15 1.346 . S
C14 H19 0.930 . S
C15 N12 1.336 . S
C15 C14 1.346 . S
C15 H22 0.929 . S
C16 O6 1.282 . S
C16 O17 1.216 1_554 S
O17 C16 1.216 1_556 S
H18 C13 0.930 . S
H19 C14 0.930 . S
O20 Cu0 1.959 . S
O20 C7 1.251 . S
H21 C4 0.930 . S
H22 C15 0.929 . S
Cu23 N24 1.999 . S
Cu23 O29 1.974 . S
Cu23 N34 1.985 . S
Cu23 O43 1.959 . S
N24 Cu23 1.999 . S
N24 C26 1.263 . S
N24 C28 1.389 . S
N25 C26 1.358 . S
N25 C27 1.400 . S
C26 N24 1.263 . S
C26 N25 1.358 . S
C26 H32 0.930 . S
C27 N25 1.400 . S
C27 C28 1.351 . S
C27 H44 0.930 . S
C28 N24 1.389 . S
C28 C27 1.351 . S
C28 H33 0.930 . S
O29 Cu23 1.974 . S
O29 C39 1.282 . S
C30 O31 1.261 . S
C30 O43 1.251 . S
O31 C30 1.261 . S
H32 C26 0.930 . S
H33 C28 0.930 . S
N34 Cu23 1.985 . S
N34 C36 1.335 . S
N34 C37 1.390 . S
N35 C36 1.345 . S
N35 C38 1.336 . S
C36 N34 1.335 . S
C36 N35 1.345 . S
C36 H41 0.930 . S
C37 N34 1.390 . S
C37 C38 1.346 . S
C37 H42 0.930 . S
C38 N35 1.336 . S
C38 C37 1.346 . S
C38 H45 0.929 . S
C39 O29 1.282 . S
C39 O40 1.216 1_554 S
O40 C39 1.216 1_556 S
H41 C36 0.930 . S
H42 C37 0.930 . S
O43 Cu23 1.959 . S
O43 C30 1.251 . S
H44 C27 0.930 . S
H45 C38 0.929 . S
Cu46 N47 1.999 . S
Cu46 O52 1.974 . S
Cu46 N57 1.985 . S
Cu46 O66 1.959 . S
N47 Cu46 1.999 . S
N47 C49 1.263 . S
N47 C51 1.389 . S
N48 C49 1.358 . S
N48 C50 1.400 . S
C49 N47 1.263 . S
C49 N48 1.358 . S
C49 H55 0.930 . S
C50 N48 1.400 . S
C50 C51 1.351 . S
C50 H67 0.930 . S
C51 N47 1.389 . S
C51 C50 1.351 . S
C51 H56 0.930 . S
O52 Cu46 1.974 . S
O52 C62 1.282 . S
C53 O54 1.261 . S
C53 O66 1.251 . S
O54 C53 1.261 . S
H55 C49 0.930 . S
H56 C51 0.930 . S
N57 Cu46 1.985 . S
N57 C59 1.335 . S
N57 C60 1.390 . S
N58 C59 1.345 . S
N58 C61 1.336 . S
C59 N57 1.335 . S
C59 N58 1.345 . S
C59 H64 0.930 . S
C60 N57 1.390 . S
C60 C61 1.346 . S
C60 H65 0.930 . S
C61 N58 1.336 . S
C61 C60 1.346 . S
C61 H68 0.929 . S
C62 O52 1.282 . S
C62 O63 1.216 1_556 S
O63 C62 1.216 1_554 S
H64 C59 0.930 . S
H65 C60 0.930 . S
O66 Cu46 1.959 . S
O66 C53 1.251 . S
H67 C50 0.930 . S
H68 C61 0.929 . S
Cu69 N70 1.999 . S
Cu69 O75 1.974 . S
Cu69 N80 1.985 . S
Cu69 O89 1.959 . S
N70 Cu69 1.999 . S
N70 C72 1.263 . S
N70 C74 1.389 . S
N71 C72 1.358 . S
N71 C73 1.400 . S
C72 N70 1.263 . S
C72 N71 1.358 . S
C72 H78 0.930 . S
C73 N71 1.400 . S
C73 C74 1.351 . S
C73 H90 0.930 . S
C74 N70 1.389 . S
C74 C73 1.351 . S
C74 H79 0.930 . S
O75 Cu69 1.974 . S
O75 C85 1.282 . S
C76 O77 1.261 . S
C76 O89 1.251 . S
O77 C76 1.261 . S
H78 C72 0.930 . S
H79 C74 0.930 . S
N80 Cu69 1.985 . S
N80 C82 1.335 . S
N80 C83 1.390 . S
N81 C82 1.345 . S
N81 C84 1.336 . S
C82 N80 1.335 . S
C82 N81 1.345 . S
C82 H87 0.930 . S
C83 N80 1.390 . S
C83 C84 1.346 . S
C83 H88 0.930 . S
C84 N81 1.336 . S
C84 C83 1.346 . S
C84 H91 0.929 . S
C85 O75 1.282 . S
C85 O86 1.216 1_556 S
O86 C85 1.216 1_554 S
H87 C82 0.930 . S
H88 C83 0.930 . S
O89 Cu69 1.959 . S
O89 C76 1.251 . S
H90 C73 0.930 . S
H91 C84 0.929 . S
H92 C98 0.930 . S
H93 C101 0.930 . S
H94 C102 0.930 . S
H95 C103 0.930 . S
H96 C106 0.930 . S
H97 C107 0.930 1_556 S
C98 H92 0.930 . S
C98 C99 1.355 . S
C98 C100 1.415 . S
C99 C98 1.355 . S
C99 C101 1.419 . S
C100 C98 1.415 . S
C100 C105 1.425 1_565 S
C100 C107 1.409 . S
C101 H93 0.930 . S
C101 C99 1.419 . S
C101 C102 1.362 1_565 S
C102 H94 0.930 . S
C102 C101 1.362 1_545 S
C102 C105 1.409 . S
C103 H95 0.930 . S
C103 C104 1.355 . S
C103 C105 1.415 . S
C104 C103 1.355 . S
C104 C106 1.419 . S
C105 C100 1.425 1_545 S
C105 C102 1.409 . S
C105 C103 1.415 . S
C106 H96 0.930 . S
C106 C104 1.419 . S
C106 C107 1.362 1_545 S
C107 H97 0.930 1_554 S
C107 C100 1.409 . S
C107 C106 1.362 1_565 S
H108 C114 0.930 . S
H109 C117 0.930 1_556 S
H110 C118 0.930 1_556 S
H111 C119 0.930 . S
H112 C122 0.930 . S
H113 C123 0.930 . S
C114 H108 0.930 . S
C114 C115 1.355 . S
C114 C116 1.415 . S
C115 C114 1.355 . S
C115 C117 1.419 . S
C116 C114 1.415 . S
C116 C121 1.425 . S
C116 C123 1.409 . S
C117 H109 0.930 1_554 S
C117 C115 1.419 . S
C117 C118 1.362 . S
C118 H110 0.930 1_554 S
C118 C117 1.362 . S
C118 C121 1.409 . S
C119 H111 0.930 . S
C119 C120 1.355 . S
C119 C121 1.415 . S
C120 C119 1.355 . S
C120 C122 1.419 . S
C121 C116 1.425 . S
C121 C118 1.409 . S
C121 C119 1.415 . S
C122 H112 0.930 . S
C122 C120 1.419 . S
C122 C123 1.362 . S
C123 H113 0.930 . S
C123 C116 1.409 . S
C123 C122 1.362 . S
H124 C130 0.930 . S
H125 C133 0.930 . S
H126 C134 0.930 . S
H127 C135 0.930 . S
H128 C138 0.930 . S
H129 C139 0.930 . S
C130 H124 0.930 . S
C130 C131 1.355 . S
C130 C132 1.415 1_545 S
C131 C130 1.355 . S
C131 C133 1.419 . S
C132 C130 1.415 1_565 S
C132 C137 1.425 1_565 S
C132 C139 1.409 . S
C133 H125 0.930 . S
C133 C131 1.419 . S
C133 C134 1.362 . S
C134 H126 0.930 . S
C134 C133 1.362 . S
C134 C137 1.409 . S
C135 H127 0.930 . S
C135 C136 1.355 . S
C135 C137 1.415 1_565 S
C136 C135 1.355 . S
C136 C138 1.419 . S
C137 C132 1.425 1_545 S
C137 C134 1.409 . S
C137 C135 1.415 1_545 S
C138 H128 0.930 . S
C138 C136 1.419 . S
C138 C139 1.362 . S
C139 H129 0.930 . S
C139 C132 1.409 . S
C139 C138 1.362 . S
H140 C146 0.930 . S
H141 C149 0.930 . S
H142 C150 0.930 . S
H143 C151 0.930 . S
H144 C154 0.930 . S
H145 C155 0.930 . S
C146 H140 0.930 . S
C146 C147 1.355 . S
C146 C148 1.415 . S
C147 C146 1.355 . S
C147 C149 1.419 . S
C148 C146 1.415 . S
C148 C153 1.425 . S
C148 C155 1.409 . S
C149 H141 0.930 . S
C149 C147 1.419 . S
C149 C150 1.362 . S
C150 H142 0.930 . S
C150 C149 1.362 . S
C150 C153 1.409 . S
C151 H143 0.930 . S
C151 C152 1.355 . S
C151 C153 1.415 . S
C152 C151 1.355 . S
C152 C154 1.419 . S
C153 C148 1.425 . S
C153 C150 1.409 . S
C153 C151 1.415 . S
C154 H144 0.930 . S
C154 C152 1.419 . S
C154 C155 1.362 . S
C155 H145 0.930 . S
C155 C148 1.409 . S
C155 C154 1.362 . S
H156 C162 0.930 . S
H157 C165 0.930 . S
H158 C166 0.930 . S
H159 C167 0.930 . S
H160 C170 0.930 . S
H161 C171 0.930 . S
C162 H156 0.930 . S
C162 C163 1.355 1_556 S
C162 C164 1.415 1_455 S
C163 C162 1.355 1_554 S
C163 C165 1.419 . S
C164 C162 1.415 1_655 S
C164 C169 1.425 1_646 S
C164 C171 1.409 . S
C165 H157 0.930 . S
C165 C163 1.419 . S
C165 C166 1.362 1_545 S
C166 H158 0.930 . S
C166 C165 1.362 1_565 S
C166 C169 1.409 . S
C167 H159 0.930 . S
C167 C168 1.355 1_554 S
C167 C169 1.415 1_655 S
C168 C167 1.355 1_556 S
C168 C170 1.419 . S
C169 C164 1.425 1_464 S
C169 C166 1.409 . S
C169 C167 1.415 1_455 S
C170 H160 0.930 . S
C170 C168 1.419 . S
C170 C171 1.362 1_565 S
C171 H161 0.930 . S
C171 C164 1.409 . S
C171 C170 1.362 1_545 S
H172 C178 0.930 . S
H173 C181 0.930 . S
H174 C182 0.930 . S
H175 C183 0.930 . S
H176 C186 0.930 . S
H177 C187 0.930 . S
C178 H172 0.930 . S
C178 C179 1.355 1_554 S
C178 C180 1.415 . S
C179 C178 1.355 1_556 S
C179 C181 1.419 . S
C180 C178 1.415 . S
C180 C185 1.425 1_544 S
C180 C187 1.409 . S
C181 H173 0.930 . S
C181 C179 1.419 . S
C181 C182 1.362 1_545 S
C182 H174 0.930 . S
C182 C181 1.362 1_565 S
C182 C185 1.409 . S
C183 H175 0.930 . S
C183 C184 1.355 1_556 S
C183 C185 1.415 . S
C184 C183 1.355 1_554 S
C184 C186 1.419 . S
C185 C180 1.425 1_566 S
C185 C182 1.409 . S
C185 C183 1.415 . S
C186 H176 0.930 . S
C186 C184 1.419 . S
C186 C187 1.362 1_565 S
C187 H177 0.930 . S
C187 C180 1.409 . S
C187 C186 1.362 1_545 S
H188 C194 0.930 1_455 S
H189 C197 0.930 . S
H190 C198 0.930 . S
H191 C199 0.930 1_655 S
H192 C202 0.930 . S
H193 C203 0.930 . S
C194 H188 0.930 1_655 S
C194 C195 1.355 . S
C194 C196 1.415 1_655 S
C195 C194 1.355 . S
C195 C197 1.419 . S
C196 C194 1.415 1_455 S
C196 C201 1.425 1_455 S
C196 C203 1.409 . S
C197 H189 0.930 . S
C197 C195 1.419 . S
C197 C198 1.362 . S
C198 H190 0.930 . S
C198 C197 1.362 . S
C198 C201 1.409 . S
C199 H191 0.930 1_455 S
C199 C200 1.355 . S
C199 C201 1.415 1_455 S
C200 C199 1.355 . S
C200 C202 1.419 . S
C201 C196 1.425 1_655 S
C201 C198 1.409 . S
C201 C199 1.415 1_655 S
C202 H192 0.930 . S
C202 C200 1.419 . S
C202 C203 1.362 . S
C203 H193 0.930 . S
C203 C196 1.409 . S
C203 C202 1.362 . S
H204 C210 0.930 . S
H205 C213 0.930 . S
H206 C214 0.930 . S
H207 C215 0.930 . S
H208 C218 0.930 . S
H209 C219 0.930 . S
C210 H204 0.930 . S
C210 C211 1.355 . S
C210 C212 1.415 . S
C211 C210 1.355 . S
C211 C213 1.419 . S
C212 C210 1.415 . S
C212 C217 1.425 . S
C212 C219 1.409 . S
C213 H205 0.930 . S
C213 C211 1.419 . S
C213 C214 1.362 . S
C214 H206 0.930 . S
C214 C213 1.362 . S
C214 C217 1.409 . S
C215 H207 0.930 . S
C215 C216 1.355 . S
C215 C217 1.415 . S
C216 C215 1.355 . S
C216 C218 1.419 . S
C217 C212 1.425 . S
C217 C214 1.409 . S
C217 C215 1.415 . S
C218 H208 0.930 . S
C218 C216 1.419 . S
C218 C219 1.362 . S
C219 H209 0.930 . S
C219 C212 1.409 . S
C219 C218 1.362 . S
C99 N25 1.455 . S
C104 N2 1.474 . S
C115 C7 1.479 . S
C120 C30 1.491 . S
C131 N71 1.423 . S
C136 N48 1.431 . S
C147 C53 1.492 . S
C152 C76 1.494 . S
C163 C16 1.497 . S
C168 C62 1.497 . S
C179 C85 1.492 . S
C184 C39 1.492 . S
C195 N58 1.486 . S
C200 N12 1.486 . S
C211 N35 1.442 . S
C216 N81 1.442 . S
