# Generated by pormake.
# Topology acs, (6)-cn, num edge types: 1
# Building blocks:
#     Node 0, Type 0, BuildingBlock: IZENUY_clean_sbu_0, # of connection points: 6
#     Node 1, Type 0, BuildingBlock: IZENUY_clean_sbu_0, # of connection points: 6
#     Edge 2, Type (0, 0), BuildingBlock: AJUNOK_clean_linker_0, # of connection points: 2
#     Edge 3, Type (0, 0), BuildingBlock: AJUNOK_clean_linker_0, # of connection points: 2
#     Edge 4, Type (0, 0), BuildingBlock: AJUNOK_clean_linker_0, # of connection points: 2
#     Edge 5, Type (0, 0), BuildingBlock: AJUNOK_clean_linker_0, # of connection points: 2
#     Edge 6, Type (0, 0), BuildingBlock: AJUNOK_clean_linker_0, # of connection points: 2
#     Edge 7, Type (0, 0), BuildingBlock: AJUNOK_clean_linker_0, # of connection points: 2
# Relax obj value: 0.000
# Max RMSD: 0.012
# Mean RMSD: 0.012
data_MOF--net-acs--node1-IZENUY_clean_sbu_0--edge1-AJUNOK_clean_linker_0
_symmetry_space_group_name_H-M    P1
_symmetry_Int_Tables_number       1
_symmetry_cell_setting            triclinic
loop_
_symmetry_equiv_pos_as_xyz
'x, y, z'
_cell_length_a     14.986529
_cell_length_b     15.006047
_cell_length_c     15.78891
_cell_angle_alpha  89.998997
_cell_angle_beta   90.016278
_cell_angle_gamma 119.94474
loop_
_atom_site_label
_atom_site_type_symbol
_atom_site_fract_x
_atom_site_fract_y
_atom_site_fract_z
_atom_type_partial_charge
Fe0 Fe 0.62661 0.32327 0.229 0.0
Fe1 Fe 0.83458 0.33105 0.23074 0.0
O2 O 0.76282 0.39546 0.22842 0.0
Fe3 Fe 0.82696 0.53158 0.22576 0.0
O4 O 0.7291 0.54173 0.28867 0.0
O5 O 0.62102 0.38273 0.32708 0.0
O6 O 0.61835 0.21732 0.29322 0.0
C7 C 0.68255 0.21535 0.34421 0.0
C8 C 0.66938 0.48476 0.1145 0.0
O9 O 0.7779 0.27076 0.33113 0.0
C10 C 0.94616 0.48272 0.11567 0.0
O11 O 0.62445 0.25962 0.13068 0.0
O12 O 0.73999 0.21901 0.17019 0.0
O13 O 0.76544 0.53091 0.12651 0.0
O14 O 0.6092 0.41564 0.1653 0.0
C15 C 0.94772 0.50123 0.33911 0.0
O16 O 0.89564 0.38756 0.1308 0.0
O17 O 0.93653 0.54601 0.16252 0.0
C18 C 0.67062 0.2096 0.1192 0.0
O19 O 0.94254 0.43109 0.29137 0.0
O20 O 0.89252 0.5412 0.32485 0.0
C21 C 0.66083 0.47827 0.33878 0.0
Fe22 Fe 0.56602 0.79321 0.72912 0.0
Fe23 Fe 0.36509 0.80113 0.73086 0.0
O24 O 0.42977 0.72951 0.72862 0.0
Fe25 Fe 0.35781 0.59361 0.72596 0.0
O26 O 0.41343 0.58457 0.82538 0.0
O27 O 0.57365 0.6931 0.79023 0.0
O28 O 0.57239 0.85533 0.82937 0.0
C29 C 0.5322 0.91037 0.84362 0.0
C30 C 0.52276 0.63965 0.61478 0.0
O31 O 0.46286 0.90631 0.79527 0.0
C32 C 0.2475 0.64068 0.6149 0.0
O33 O 0.58287 0.90484 0.66866 0.0
O34 O 0.42608 0.86651 0.63274 0.0
O35 O 0.45279 0.57846 0.66441 0.0
O36 O 0.56875 0.73529 0.62853 0.0
C37 C 0.2456 0.64442 0.83998 0.0
O38 O 0.25555 0.70888 0.66656 0.0
O39 O 0.29798 0.5949 0.62634 0.0
C40 C 0.52216 0.9168 0.62048 0.0
O41 O 0.30012 0.74039 0.82943 0.0
O42 O 0.24939 0.58316 0.78716 0.0
C43 C 0.50876 0.62405 0.83895 0.0
C44 C 0.51521 1.03606 0.93672 0.0
C45 C 0.56998 0.98575 0.91444 0.0
C46 C 0.54829 0.10802 0.00266 0.0
C47 C 0.63759 0.13288 0.04953 0.0
H48 H 0.44554 1.01959 0.9032 0.0
H49 H 0.50289 0.14402 0.01706 0.0
S50 S 0.81155 1.02615 0.01493 0.0
N51 N 0.71972 0.96781 0.94366 0.0
N52 N 0.78225 0.10325 0.06732 0.0
C53 C 0.69373 0.08372 0.02769 0.0
C54 C 0.65985 1.01016 0.96042 0.0
C55 C 0.64186 0.66215 0.49428 0.0
C56 C 0.556 0.59694 0.54432 0.0
C57 C 0.67482 0.62314 0.42805 0.0
C58 C 0.62331 0.51726 0.40889 0.0
H59 H 0.68455 0.74411 0.50644 0.0
H60 H 0.74183 0.67672 0.39199 0.0
S61 S 0.39204 0.31351 0.51904 0.0
N62 N 0.4185 0.42071 0.56858 0.0
N63 N 0.48068 0.34794 0.44485 0.0
C64 C 0.53691 0.45116 0.45809 0.0
C65 C 0.50321 0.49082 0.52542 0.0
C66 C 1.07338 0.62709 0.02393 0.0
C67 C 1.02279 0.52193 0.04564 0.0
C68 C 0.14563 0.6663 0.95794 0.0
C69 C 0.17009 0.60196 0.9106 0.0
H70 H 1.0568 0.6799 0.05783 0.0
H71 H 0.18177 0.74759 0.94355 0.0
S72 S 1.06333 0.3214 0.94418 0.0
N73 N 1.00503 0.35462 0.01562 0.0
N74 N 0.14055 0.42799 0.89231 0.0
C75 C 0.12102 0.49676 0.93225 0.0
C76 C 1.0475 0.45687 -0.00059 0.0
C77 C 0.49925 1.00163 0.49198 0.0
C78 C 0.5653 0.9951 0.55186 0.0
C79 C 0.53792 0.07305 0.42557 0.0
C80 C 0.64443 0.14118 0.41594 0.0
H81 H 0.41675 0.95056 0.4958 0.0
H82 H 0.4834 0.07422 0.38117 0.0
S83 S 0.85066 0.15905 0.55773 0.0
N84 N 0.74311 0.06559 0.59844 0.0
N85 N 0.81534 0.19953 0.47391 0.0
C86 C 0.71147 0.13649 0.47597 0.0
C87 C 0.6721 0.06362 0.54367 0.0
C88 C 0.65245 0.63709 0.92885 0.0
C89 C 0.54659 0.58564 0.90923 0.0
C90 C 0.69122 0.60379 -0.00518 0.0
C91 C 0.6259 0.5176 0.04438 0.0
H92 H 0.70636 0.70438 0.89329 0.0
H93 H 0.77325 0.64664 0.00716 0.0
S94 S 0.34236 0.35378 0.01811 0.0
N95 N 0.37694 0.44283 0.94429 0.0
N96 N 0.44951 0.37991 0.06799 0.0
C97 C 0.51971 0.46486 0.02524 0.0
C98 C 0.48019 0.49895 0.95794 0.0
C99 C 0.15383 0.5246 0.49271 0.0
C100 C 0.17115 0.60785 0.54477 0.0
C101 C 1.08184 0.49128 0.42669 0.0
C102 C 1.02395 0.53978 0.40945 0.0
H103 H 0.19584 0.48413 0.50303 0.0
H104 H 1.07143 0.42637 0.38912 0.0
S105 S 1.04073 0.76268 0.52607 0.0
N106 N 0.12487 0.73923 0.57373 0.0
N107 N 0.98953 0.67628 0.44992 0.0
C108 C 1.04058 0.62345 0.46078 0.0
C109 C 0.11411 0.65755 0.52816 0.0
loop_
_geom_bond_atom_site_label_1
_geom_bond_atom_site_label_2
_geom_bond_distance
_geom_bond_site_symmetry_2
_ccdc_geom_bond_type
Fe0 O2 1.918 . S
Fe0 O5 1.997 . S
Fe0 O6 2.002 . S
Fe0 O11 1.976 . S
Fe0 O14 1.996 . S
Fe1 O2 1.918 . S
Fe1 O9 1.997 . S
Fe1 O12 1.996 . S
Fe1 O16 1.976 . S
Fe1 O19 2.002 . S
O2 Fe0 1.918 . S
O2 Fe1 1.918 . S
O2 Fe3 1.918 . S
Fe3 O2 1.918 . S
Fe3 O4 2.002 . S
Fe3 O13 1.976 . S
Fe3 O17 1.996 . S
Fe3 O20 1.997 . S
O4 Fe3 2.002 . S
O4 C21 1.295 . S
O5 Fe0 1.997 . S
O5 C21 1.235 . S
O6 Fe0 2.002 . S
O6 C7 1.295 . S
C7 O6 1.295 . S
C7 O9 1.235 . S
C8 O13 1.287 . S
C8 O14 1.255 . S
O9 Fe1 1.997 . S
O9 C7 1.235 . S
C10 O16 1.287 . S
C10 O17 1.255 . S
O11 Fe0 1.976 . S
O11 C18 1.287 . S
O12 Fe1 1.996 . S
O12 C18 1.255 . S
O13 Fe3 1.976 . S
O13 C8 1.287 . S
O14 Fe0 1.996 . S
O14 C8 1.255 . S
C15 O19 1.295 . S
C15 O20 1.235 . S
O16 Fe1 1.976 . S
O16 C10 1.287 . S
O17 Fe3 1.996 . S
O17 C10 1.255 . S
C18 O11 1.287 . S
C18 O12 1.255 . S
O19 Fe1 2.002 . S
O19 C15 1.295 . S
O20 Fe3 1.997 . S
O20 C15 1.235 . S
C21 O4 1.295 . S
C21 O5 1.235 . S
Fe22 O24 1.918 . S
Fe22 O27 1.997 . S
Fe22 O28 2.002 . S
Fe22 O33 1.976 . S
Fe22 O36 1.996 . S
Fe23 O24 1.918 . S
Fe23 O31 1.997 . S
Fe23 O34 1.996 . S
Fe23 O38 1.976 . S
Fe23 O41 2.002 . S
O24 Fe22 1.918 . S
O24 Fe23 1.918 . S
O24 Fe25 1.918 . S
Fe25 O24 1.918 . S
Fe25 O26 2.002 . S
Fe25 O35 1.976 . S
Fe25 O39 1.996 . S
Fe25 O42 1.997 . S
O26 Fe25 2.002 . S
O26 C43 1.295 . S
O27 Fe22 1.997 . S
O27 C43 1.235 . S
O28 Fe22 2.002 . S
O28 C29 1.295 . S
C29 O28 1.295 . S
C29 O31 1.235 . S
C30 O35 1.287 . S
C30 O36 1.255 . S
O31 Fe23 1.997 . S
O31 C29 1.235 . S
C32 O38 1.287 . S
C32 O39 1.255 . S
O33 Fe22 1.976 . S
O33 C40 1.287 . S
O34 Fe23 1.996 . S
O34 C40 1.255 . S
O35 Fe25 1.976 . S
O35 C30 1.287 . S
O36 Fe22 1.996 . S
O36 C30 1.255 . S
C37 O41 1.295 . S
C37 O42 1.235 . S
O38 Fe23 1.976 . S
O38 C32 1.287 . S
O39 Fe25 1.996 . S
O39 C32 1.255 . S
C40 O33 1.287 . S
C40 O34 1.255 . S
O41 Fe23 2.002 . S
O41 C37 1.295 . S
O42 Fe25 1.997 . S
O42 C37 1.235 . S
C43 O26 1.295 . S
C43 O27 1.235 . S
C44 C45 1.369 . S
C44 C46 1.419 1_566 S
C44 H48 0.930 . S
C45 C44 1.369 . S
C45 C54 1.429 . S
C46 C44 1.419 1_544 S
C46 C47 1.363 . S
C46 H49 0.929 . S
C47 C46 1.363 . S
C47 C53 1.428 . S
H48 C44 0.930 . S
H49 C46 0.929 . S
S50 N51 1.613 1_554 S
S50 N52 1.610 1_565 S
N51 S50 1.613 1_556 S
N51 C54 1.350 . S
N52 S50 1.610 1_545 S
N52 C53 1.351 . S
C53 C47 1.428 . S
C53 N52 1.351 . S
C53 C54 1.434 1_544 S
C54 C45 1.429 . S
C54 N51 1.350 . S
C54 C53 1.434 1_566 S
C55 C56 1.369 . S
C55 C57 1.419 . S
C55 H59 0.930 . S
C56 C55 1.369 . S
C56 C65 1.429 . S
C57 C55 1.419 . S
C57 C58 1.363 . S
C57 H60 0.929 . S
C58 C57 1.363 . S
C58 C64 1.428 . S
H59 C55 0.930 . S
H60 C57 0.929 . S
S61 N62 1.613 . S
S61 N63 1.610 . S
N62 S61 1.613 . S
N62 C65 1.350 . S
N63 S61 1.610 . S
N63 C64 1.351 . S
C64 C58 1.428 . S
C64 N63 1.351 . S
C64 C65 1.434 . S
C65 C56 1.429 . S
C65 N62 1.350 . S
C65 C64 1.434 . S
C66 C67 1.369 . S
C66 C68 1.419 1_654 S
C66 H70 0.930 . S
C67 C66 1.369 . S
C67 C76 1.429 . S
C68 C66 1.419 1_456 S
C68 C69 1.363 . S
C68 H71 0.929 . S
C69 C68 1.363 . S
C69 C75 1.430 . S
H70 C66 0.930 . S
H71 C68 0.929 . S
S72 N73 1.613 1_455 S
S72 N74 1.610 . S
N73 S72 1.613 1_655 S
N73 C76 1.350 . S
N74 S72 1.610 . S
N74 C75 1.351 1_554 S
C75 C69 1.430 . S
C75 N74 1.351 1_556 S
C75 C76 1.432 1_456 S
C76 C67 1.429 . S
C76 N73 1.350 . S
C76 C75 1.432 1_654 S
C77 C78 1.369 . S
C77 C79 1.419 . S
C77 H81 0.930 . S
C78 C77 1.369 . S
C78 C87 1.429 1_565 S
C79 C77 1.419 . S
C79 C80 1.363 1_565 S
C79 H82 0.929 . S
C80 C79 1.363 1_545 S
C80 C86 1.428 . S
H81 C77 0.930 . S
H82 C79 0.929 . S
S83 N84 1.613 . S
S83 N85 1.610 . S
N84 S83 1.613 . S
N84 C87 1.350 . S
N85 S83 1.610 . S
N85 C86 1.351 . S
C86 C80 1.428 . S
C86 N85 1.351 . S
C86 C87 1.434 . S
C87 C78 1.429 1_545 S
C87 N84 1.350 . S
C87 C86 1.434 . S
C88 C89 1.369 1_554 S
C88 C90 1.419 . S
C88 H92 0.930 . S
C89 C88 1.369 1_556 S
C89 C98 1.429 . S
C90 C88 1.419 . S
C90 C91 1.363 . S
C90 H93 0.929 . S
C91 C90 1.363 . S
C91 C97 1.428 1_554 S
H92 C88 0.930 . S
H93 C90 0.929 . S
S94 N95 1.613 . S
S94 N96 1.610 . S
N95 S94 1.613 . S
N95 C98 1.350 . S
N96 S94 1.610 . S
N96 C97 1.351 . S
C97 C91 1.428 1_556 S
C97 N96 1.351 . S
C97 C98 1.434 . S
C98 C89 1.429 . S
C98 N95 1.350 . S
C98 C97 1.434 . S
C99 C100 1.369 . S
C99 C101 1.419 1_455 S
C99 H103 0.930 . S
C100 C99 1.369 . S
C100 C109 1.429 1_455 S
C101 C99 1.419 1_655 S
C101 C102 1.363 . S
C101 H104 0.929 1_655 S
C102 C101 1.363 . S
C102 C108 1.428 . S
H103 C99 0.930 . S
H104 C101 0.929 1_455 S
S105 N106 1.613 . S
S105 N107 1.610 . S
N106 S105 1.613 . S
N106 C109 1.350 . S
N107 S105 1.610 . S
N107 C108 1.351 . S
C108 C102 1.428 . S
C108 N107 1.351 . S
C108 C109 1.434 . S
C109 C100 1.429 1_655 S
C109 N106 1.350 . S
C109 C108 1.434 . S
C45 C29 1.489 . S
C47 C18 1.497 . S
C56 C30 1.497 . S
C58 C21 1.490 . S
C67 C10 1.497 . S
C69 C37 1.489 . S
C78 C40 1.497 . S
C80 C7 1.489 . S
C89 C43 1.486 . S
C91 C8 1.498 . S
C100 C32 1.497 . S
C102 C15 1.490 . S
