# Generated by pormake.
# Topology ukg, (4)-cn, num edge types: 1
# Building blocks:
#     Node 0, Type 0, BuildingBlock: MUDLON_clean_sbu_0, # of connection points: 4
#     Node 1, Type 0, BuildingBlock: MUDLON_clean_sbu_0, # of connection points: 4
#     Node 2, Type 0, BuildingBlock: MUDLON_clean_sbu_0, # of connection points: 4
#     Node 3, Type 0, BuildingBlock: MUDLON_clean_sbu_0, # of connection points: 4
#     Node 4, Type 0, BuildingBlock: MUDLON_clean_sbu_0, # of connection points: 4
#     Node 5, Type 0, BuildingBlock: MUDLON_clean_sbu_0, # of connection points: 4
#     Node 6, Type 0, BuildingBlock: MUDLON_clean_sbu_0, # of connection points: 4
#     Node 7, Type 0, BuildingBlock: MUDLON_clean_sbu_0, # of connection points: 4
#     Edge 8, Type (0, 0), None
#     Edge 9, Type (0, 0), None
#     Edge 10, Type (0, 0), None
#     Edge 11, Type (0, 0), None
#     Edge 12, Type (0, 0), None
#     Edge 13, Type (0, 0), None
#     Edge 14, Type (0, 0), None
#     Edge 15, Type (0, 0), None
#     Edge 16, Type (0, 0), None
#     Edge 17, Type (0, 0), None
#     Edge 18, Type (0, 0), None
#     Edge 19, Type (0, 0), None
#     Edge 20, Type (0, 0), None
#     Edge 21, Type (0, 0), None
#     Edge 22, Type (0, 0), None
#     Edge 23, Type (0, 0), None
# Relax obj value: 0.082
# Max RMSD: 0.241
# Mean RMSD: 0.241
data_MOF--net-ukg--node1-MUDLON_clean_sbu_0--edge1-none
_symmetry_space_group_name_H-M    P1
_symmetry_Int_Tables_number       1
_symmetry_cell_setting            triclinic
loop_
_symmetry_equiv_pos_as_xyz
'x, y, z'
_cell_length_a     16.089679
_cell_length_b     16.089679
_cell_length_c     14.469108
_cell_angle_alpha  90.00139
_cell_angle_beta   89.999664
_cell_angle_gamma 90.0
loop_
_atom_site_label
_atom_site_type_symbol
_atom_site_fract_x
_atom_site_fract_y
_atom_site_fract_z
_atom_type_partial_charge
Mg0 Mg 0.02849 0.63888 0.30634 0.0
C1 C 0.88854 0.56202 0.38809 0.0
O2 O 0.86265 0.6099 0.32041 0.0
C3 C 0.19093 0.72963 0.34174 0.0
O4 O 0.14117 0.79406 0.3448 0.0
C5 C -0.00449 0.50513 0.16328 0.0
O6 O 0.00366 0.45805 0.23683 0.0
O7 O 0.00401 0.5837 0.17062 0.0
O8 O 0.96612 0.55746 0.40406 0.0
O9 O 0.96219 0.75399 0.33253 0.0
C10 C 0.96098 0.82727 0.29986 0.0
O11 O 0.00789 0.84788 0.22923 0.0
O12 O 0.16101 0.65713 0.32987 0.0
Mg13 Mg 0.33313 0.5285 0.80635 0.0
C14 C 0.40999 0.38856 0.88811 0.0
O15 O 0.3621 0.36266 0.82044 0.0
C16 C 0.24238 0.69095 0.84174 0.0
O17 O 0.17795 0.64119 0.84477 0.0
C18 C 0.46687 0.49552 0.66328 0.0
O19 O 0.51395 0.50366 0.73683 0.0
O20 O 0.38829 0.50402 0.67063 0.0
O21 O 0.41456 0.46614 0.90406 0.0
O22 O 0.21802 0.4622 0.83256 0.0
C23 C 0.14475 0.46099 0.79987 0.0
O24 O 0.12414 0.50788 0.72923 0.0
O25 O 0.31488 0.66102 0.82988 0.0
Mg26 Mg 0.44348 0.83313 0.30633 0.0
C27 C 0.58341 0.90998 0.38812 0.0
O28 O 0.60931 0.86208 0.32046 0.0
C29 C 0.28103 0.74238 0.34176 0.0
O30 O 0.3308 0.67795 0.34488 0.0
C31 C 0.47647 0.96687 0.16328 0.0
O32 O 0.46832 0.01395 0.23683 0.0
O33 O 0.46797 0.88829 0.17062 0.0
O34 O 0.50583 0.91455 0.40406 0.0
O35 O 0.50978 0.71801 0.33253 0.0
C36 C 0.51097 0.64473 0.29986 0.0
O37 O 0.46404 0.62412 0.22925 0.0
O38 O 0.31096 0.81487 0.32984 0.0
Mg39 Mg 0.13889 0.9435 0.80632 0.0
C40 C 0.06203 0.08343 0.8881 0.0
O41 O 0.10992 0.10933 0.82043 0.0
C42 C 0.22964 0.78105 0.84176 0.0
O43 O 0.29406 0.83081 0.84491 0.0
C44 C 0.00513 0.97648 0.66327 0.0
O45 O 0.95805 0.96833 0.73683 0.0
O46 O 0.0837 0.96798 0.67061 0.0
O47 O 0.05747 0.00584 0.90405 0.0
O48 O 0.254 0.0098 0.83251 0.0
C49 C 0.32728 0.01098 0.79984 0.0
O50 O 0.34791 0.96404 0.72925 0.0
O51 O 0.15714 0.81097 0.82982 0.0
Mg52 Mg 0.9435 0.33311 0.9303 0.0
C53 C 0.011 0.14472 0.93679 0.0
O54 O 0.96408 0.1241 1.0074 0.0
C55 C 0.97646 0.46687 1.07335 0.0
O56 O 0.96831 0.51395 0.9998 0.0
C57 C 0.78106 0.24236 0.89487 0.0
O58 O 0.83082 0.17793 0.8918 0.0
O59 O 0.81098 0.31486 0.90676 0.0
O60 O 0.00981 0.218 0.90412 0.0
O61 O 0.00586 0.41452 0.83258 0.0
C62 C 0.08344 0.40999 0.84857 0.0
O63 O 0.10933 0.36212 0.91626 0.0
O64 O 0.96796 0.3883 1.06601 0.0
Mg65 Mg 0.63886 0.44349 0.43028 0.0
C66 C 0.82724 0.511 0.43677 0.0
O67 O 0.84785 0.46409 0.5074 0.0
C68 C 0.50511 0.47646 0.57335 0.0
O69 O 0.45803 0.46832 0.4998 0.0
C70 C 0.72961 0.28105 0.39487 0.0
O71 O 0.79404 0.33081 0.39183 0.0
O72 O 0.65711 0.31097 0.40674 0.0
O73 O 0.75397 0.5098 0.40409 0.0
O74 O 0.55743 0.50585 0.33257 0.0
C75 C 0.56197 0.58343 0.34856 0.0
O76 O 0.60987 0.60932 0.41623 0.0
O77 O 0.58369 0.46796 0.566 0.0
Mg78 Mg 0.52851 0.13887 0.9303 0.0
C79 C 0.46103 0.32726 0.93678 0.0
O80 O 0.50796 0.34788 1.00738 0.0
C81 C 0.49554 0.00512 1.07335 0.0
O82 O 0.50369 0.95804 0.9998 0.0
C83 C 0.69096 0.22962 0.89485 0.0
O84 O 0.64119 0.29404 0.89173 0.0
O85 O 0.66103 0.15712 0.90678 0.0
O86 O 0.4622 0.25398 0.90412 0.0
O87 O 0.46616 0.05745 0.83257 0.0
C88 C 0.38858 0.06199 0.84855 0.0
O89 O 0.36268 0.10989 0.91621 0.0
O90 O 0.50404 0.08369 1.06601 0.0
Mg91 Mg 0.8331 0.0285 0.43032 0.0
C92 C 0.6447 0.96102 0.4368 0.0
O93 O 0.62408 0.00797 0.50738 0.0
C94 C 0.96687 -0.00446 0.57336 0.0
O95 O 0.01394 0.00369 0.4998 0.0
C96 C 0.74235 0.19094 0.39485 0.0
O97 O 0.67792 0.14118 0.3917 0.0
O98 O 0.81484 0.16102 0.4068 0.0
O99 O 0.71799 0.96219 0.40414 0.0
O100 O 0.91451 0.96615 0.33258 0.0
C101 C 0.90998 0.88857 0.34856 0.0
O102 O 0.8621 0.86268 0.41625 0.0
O103 O 0.88829 0.00403 0.56602 0.0
loop_
_geom_bond_atom_site_label_1
_geom_bond_atom_site_label_2
_geom_bond_distance
_geom_bond_site_symmetry_2
_ccdc_geom_bond_type
Mg0 O7 2.141 . S
Mg0 O8 2.048 1_455 S
Mg0 O9 2.048 . S
Mg0 O12 2.141 . S
C1 O2 1.313 . S
C1 O8 1.195 . S
O2 C1 1.313 . S
C3 O4 1.245 . S
C3 O12 1.289 . S
O4 C3 1.245 . S
C5 O6 1.245 . S
C5 O7 1.289 . S
O6 C5 1.245 . S
O7 Mg0 2.141 . S
O7 C5 1.289 . S
O8 Mg0 2.048 1_655 S
O8 C1 1.195 . S
O9 Mg0 2.048 . S
O9 C10 1.195 1_455 S
C10 O9 1.195 1_655 S
C10 O11 1.313 . S
O11 C10 1.313 . S
O12 Mg0 2.141 . S
O12 C3 1.289 . S
Mg13 O20 2.141 . S
Mg13 O21 2.048 . S
Mg13 O22 2.048 . S
Mg13 O25 2.141 . S
C14 O15 1.313 . S
C14 O21 1.195 . S
O15 C14 1.313 . S
C16 O17 1.245 . S
C16 O25 1.289 . S
O17 C16 1.245 . S
C18 O19 1.245 . S
C18 O20 1.289 . S
O19 C18 1.245 . S
O20 Mg13 2.141 . S
O20 C18 1.289 . S
O21 Mg13 2.048 . S
O21 C14 1.195 . S
O22 Mg13 2.048 . S
O22 C23 1.195 . S
C23 O22 1.195 . S
C23 O24 1.313 . S
O24 C23 1.313 . S
O25 Mg13 2.141 . S
O25 C16 1.289 . S
Mg26 O33 2.141 . S
Mg26 O34 2.048 . S
Mg26 O35 2.048 . S
Mg26 O38 2.141 . S
C27 O28 1.313 . S
C27 O34 1.195 . S
O28 C27 1.313 . S
C29 O30 1.245 . S
C29 O38 1.289 . S
O30 C29 1.245 . S
C31 O32 1.245 . S
C31 O33 1.289 . S
O32 C31 1.245 . S
O33 Mg26 2.141 . S
O33 C31 1.289 . S
O34 Mg26 2.048 . S
O34 C27 1.195 . S
O35 Mg26 2.048 . S
O35 C36 1.195 . S
C36 O35 1.195 . S
C36 O37 1.313 . S
O37 C36 1.313 . S
O38 Mg26 2.141 . S
O38 C29 1.289 . S
Mg39 O46 2.141 . S
Mg39 O47 2.048 1_565 S
Mg39 O48 2.048 . S
Mg39 O51 2.141 . S
C40 O41 1.313 . S
C40 O47 1.195 . S
O41 C40 1.313 . S
C42 O43 1.245 . S
C42 O51 1.289 . S
O43 C42 1.245 . S
C44 O45 1.245 . S
C44 O46 1.289 . S
O45 C44 1.245 . S
O46 Mg39 2.141 . S
O46 C44 1.289 . S
O47 Mg39 2.048 1_545 S
O47 C40 1.195 . S
O48 Mg39 2.048 . S
O48 C49 1.195 1_565 S
C49 O48 1.195 1_545 S
C49 O50 1.313 . S
O50 C49 1.313 . S
O51 Mg39 2.141 . S
O51 C42 1.289 . S
Mg52 O59 2.141 . S
Mg52 O60 2.048 . S
Mg52 O61 2.048 1_655 S
Mg52 O64 2.141 . S
C53 O54 1.313 . S
C53 O60 1.195 1_455 S
O54 C53 1.313 . S
C55 O56 1.245 . S
C55 O64 1.289 . S
O56 C55 1.245 . S
C57 O58 1.245 . S
C57 O59 1.289 . S
O58 C57 1.245 . S
O59 Mg52 2.141 . S
O59 C57 1.289 . S
O60 Mg52 2.048 . S
O60 C53 1.195 1_655 S
O61 Mg52 2.048 1_455 S
O61 C62 1.195 . S
C62 O61 1.195 . S
C62 O63 1.313 . S
O63 C62 1.313 . S
O64 Mg52 2.141 . S
O64 C55 1.289 . S
Mg65 O72 2.141 . S
Mg65 O73 2.048 . S
Mg65 O74 2.048 . S
Mg65 O77 2.141 . S
C66 O67 1.313 . S
C66 O73 1.195 . S
O67 C66 1.313 . S
C68 O69 1.245 . S
C68 O77 1.289 . S
O69 C68 1.245 . S
C70 O71 1.245 . S
C70 O72 1.289 . S
O71 C70 1.245 . S
O72 Mg65 2.141 . S
O72 C70 1.289 . S
O73 Mg65 2.048 . S
O73 C66 1.195 . S
O74 Mg65 2.048 . S
O74 C75 1.195 . S
C75 O74 1.195 . S
C75 O76 1.313 . S
O76 C75 1.313 . S
O77 Mg65 2.141 . S
O77 C68 1.289 . S
Mg78 O85 2.141 . S
Mg78 O86 2.048 . S
Mg78 O87 2.048 . S
Mg78 O90 2.141 . S
C79 O80 1.313 . S
C79 O86 1.195 . S
O80 C79 1.313 . S
C81 O82 1.245 . S
C81 O90 1.289 . S
O82 C81 1.245 . S
C83 O84 1.245 . S
C83 O85 1.289 . S
O84 C83 1.245 . S
O85 Mg78 2.141 . S
O85 C83 1.289 . S
O86 Mg78 2.048 . S
O86 C79 1.195 . S
O87 Mg78 2.048 . S
O87 C88 1.195 . S
C88 O87 1.195 . S
C88 O89 1.313 . S
O89 C88 1.313 . S
O90 Mg78 2.141 . S
O90 C81 1.289 . S
Mg91 O98 2.141 . S
Mg91 O99 2.048 . S
Mg91 O100 2.048 1_545 S
Mg91 O103 2.141 . S
C92 O93 1.313 . S
C92 O99 1.195 1_565 S
O93 C92 1.313 . S
C94 O95 1.245 . S
C94 O103 1.289 . S
O95 C94 1.245 . S
C96 O97 1.245 . S
C96 O98 1.289 . S
O97 C96 1.245 . S
O98 Mg91 2.141 . S
O98 C96 1.289 . S
O99 Mg91 2.048 . S
O99 C92 1.195 1_545 S
O100 Mg91 2.048 1_565 S
O100 C101 1.195 . S
C101 O100 1.195 . S
C101 O102 1.313 . S
O102 C101 1.313 . S
O103 Mg91 2.141 . S
O103 C94 1.289 . S
C55 C5 2.287 1_656 S
C18 C68 2.287 . S
C31 C81 2.287 1_564 S
C94 C44 2.287 1_645 S
C3 C29 2.056 . S
C16 C42 2.056 . S
C83 C57 2.056 . S
C70 C96 2.056 . S
C66 C1 1.667 . S
C14 C79 1.667 . S
C27 C92 1.667 . S
C53 C40 1.667 . S
C62 C23 1.667 . S
C75 C36 1.667 . S
C88 C49 1.667 . S
C10 C101 1.667 . S
