# Generated by pormake.
# Topology bsn, (6)-cn, num edge types: 1
# Building blocks:
#     Node 0, Type 0, BuildingBlock: MIDCAF_clean_sbu_0, # of connection points: 6
#     Node 1, Type 0, BuildingBlock: MIDCAF_clean_sbu_0, # of connection points: 6
#     Node 2, Type 0, BuildingBlock: MIDCAF_clean_sbu_0, # of connection points: 6
#     Node 3, Type 0, BuildingBlock: MIDCAF_clean_sbu_0, # of connection points: 6
#     Edge 4, Type (0, 0), BuildingBlock: OJICUG_clean_linker_0, # of connection points: 2
#     Edge 5, Type (0, 0), BuildingBlock: OJICUG_clean_linker_0, # of connection points: 2
#     Edge 6, Type (0, 0), BuildingBlock: OJICUG_clean_linker_0, # of connection points: 2
#     Edge 7, Type (0, 0), BuildingBlock: OJICUG_clean_linker_0, # of connection points: 2
#     Edge 8, Type (0, 0), BuildingBlock: OJICUG_clean_linker_0, # of connection points: 2
#     Edge 9, Type (0, 0), BuildingBlock: OJICUG_clean_linker_0, # of connection points: 2
#     Edge 10, Type (0, 0), BuildingBlock: OJICUG_clean_linker_0, # of connection points: 2
#     Edge 11, Type (0, 0), BuildingBlock: OJICUG_clean_linker_0, # of connection points: 2
#     Edge 12, Type (0, 0), BuildingBlock: OJICUG_clean_linker_0, # of connection points: 2
#     Edge 13, Type (0, 0), BuildingBlock: OJICUG_clean_linker_0, # of connection points: 2
#     Edge 14, Type (0, 0), BuildingBlock: OJICUG_clean_linker_0, # of connection points: 2
#     Edge 15, Type (0, 0), BuildingBlock: OJICUG_clean_linker_0, # of connection points: 2
# Relax obj value: 0.106
# Max RMSD: 0.165
# Mean RMSD: 0.164
data_MOF--net-bsn--node1-MIDCAF_clean_sbu_0--edge1-OJICUG_clean_linker_0
_symmetry_space_group_name_H-M    P1
_symmetry_Int_Tables_number       1
_symmetry_cell_setting            triclinic
loop_
_symmetry_equiv_pos_as_xyz
'x, y, z'
_cell_length_a     22.325021
_cell_length_b     22.451142
_cell_length_c     11.625732
_cell_angle_alpha  90.141592
_cell_angle_beta   108.92059
_cell_angle_gamma 89.893283
loop_
_atom_site_label
_atom_site_type_symbol
_atom_site_fract_x
_atom_site_fract_y
_atom_site_fract_z
_atom_type_partial_charge
Zn0 Zn 0.96804 0.1872 0.25748 0.0
Zn1 Zn 0.12778 0.31862 0.511 0.0
Zn2 Zn 0.04373 0.25993 0.39202 0.0
C3 C 0.03711 0.39693 0.38272 0.0
C4 C 0.1849 0.25988 0.38297 0.0
O5 O 0.04542 0.18132 0.5089 0.0
O6 O 0.99526 0.11736 0.36508 0.0
C7 C 0.89669 0.28675 0.28292 0.0
O8 O 0.00335 0.35055 0.38349 0.0
O9 O 0.09656 0.39175 0.4151 0.0
O10 O 0.20209 0.28015 0.48979 0.0
O11 O 0.12533 0.25561 0.32245 0.0
O12 O 0.89094 0.23287 0.24966 0.0
O13 O 0.95204 0.30896 0.33522 0.0
O14 O 0.072 0.23955 0.22778 0.0
O15 O 0.99134 0.18781 0.10948 0.0
C16 C 0.04302 0.21429 0.12466 0.0
O17 O 0.07059 0.22984 0.58446 0.0
O18 O 0.11835 0.3117 0.67296 0.0
C19 C 0.02766 0.12777 0.47412 0.0
C20 C 0.09464 0.26164 0.68132 0.0
Zn21 Zn 0.91386 0.8189 0.48286 0.0
Zn22 Zn 0.07397 0.68746 0.73531 0.0
Zn23 Zn 0.99805 0.76016 0.60121 0.0
C24 C 0.14506 0.78691 0.71011 0.0
C25 C 0.01416 0.62793 0.51833 0.0
O26 O 0.91656 0.75593 0.67105 0.0
O27 O 0.83967 0.78055 0.50409 0.0
C28 C 0.00448 0.89722 0.61083 0.0
O29 O 0.08966 0.80913 0.65802 0.0
O30 O 0.15094 0.73307 0.74318 0.0
O31 O 0.04675 0.61762 0.62723 0.0
O32 O 0.99625 0.68146 0.48383 0.0
O33 O 0.94506 0.8921 0.57895 0.0
O34 O 0.03824 0.85075 0.60977 0.0
O35 O 0.97115 0.72995 0.40861 0.0
O36 O 0.92321 0.81181 0.32077 0.0
C37 C 0.94702 0.76174 0.312 0.0
O38 O 0.96997 0.73988 0.76552 0.0
O39 O 0.05076 0.68813 0.88341 0.0
C40 C 0.85696 0.76024 0.61071 0.0
C41 C 0.99902 0.71462 0.86845 0.0
Zn42 Zn 0.45213 0.66723 0.73373 0.0
Zn43 Zn 0.62588 0.78776 -0.00312 0.0
Zn44 Zn 0.53461 0.73965 0.87698 0.0
C45 C 0.58721 0.73597 0.16541 0.0
C46 C 0.54007 0.87474 0.88335 0.0
O47 O 0.55698 0.71939 0.70676 0.0
O48 O 0.48199 0.6601 0.59216 0.0
C49 C 0.50913 0.60799 0.95562 0.0
O50 O 0.5613 0.70511 0.06804 0.0
O51 O 0.61573 0.78344 0.15812 0.0
O52 O 0.59831 0.8639 0.90551 0.0
O53 O 0.50247 0.83151 0.88471 0.0
O54 O 0.47105 0.5997 0.8498 0.0
O55 O 0.53498 0.65933 0.98776 0.0
O56 O 0.44697 0.79333 0.82913 0.0
O57 O 0.38171 0.72472 0.72026 0.0
C58 C 0.39094 0.77657 0.76541 0.0
O59 O 0.61268 0.7404 0.79861 0.0
O60 O 0.69496 0.74097 0.96682 0.0
C61 C 0.5315 0.6902 0.60683 0.0
C62 C 0.67284 0.73523 0.85301 0.0
Zn63 Zn 0.58989 0.16755 0.25863 0.0
Zn64 Zn 0.41587 0.28818 -0.00331 0.0
Zn65 Zn 0.50719 0.23992 0.11606 0.0
C66 C 0.45462 0.23621 0.82773 0.0
C67 C 0.50158 0.37509 0.11006 0.0
O68 O 0.485 0.21978 0.28631 0.0
O69 O 0.56022 0.16056 0.40038 0.0
C70 C 0.53266 0.10815 0.03659 0.0
O71 O 0.48053 0.20531 0.92482 0.0
O72 O 0.42603 0.2837 0.83542 0.0
O73 O 0.44337 0.36439 0.08835 0.0
O74 O 0.53914 0.33173 0.10845 0.0
O75 O 0.57091 0.09994 0.14223 0.0
O76 O 0.50672 0.15949 0.00477 0.0
O77 O 0.59474 0.29356 0.16399 0.0
O78 O 0.66019 0.22493 0.27216 0.0
C79 C 0.65082 0.27677 0.2274 0.0
O80 O 0.42922 0.24076 0.19469 0.0
O81 O 0.34691 0.24146 0.02655 0.0
C82 C 0.51064 0.19064 0.38604 0.0
C83 C 0.36907 0.23563 0.14028 0.0
C84 C 0.04795 0.50341 0.33942 0.0
C85 C 0.01145 0.45815 0.36759 0.0
H86 H 0.07835 0.59389 0.36889 0.0
C87 C 0.9628 0.47411 0.41361 0.0
H88 H 0.08574 0.49235 0.3035 0.0
C89 C 0.95727 0.53334 0.4475 0.0
C90 C 0.99987 0.57692 0.43463 0.0
H91 H 0.9343 0.44016 0.43695 0.0
H92 H 0.92451 0.54368 0.49608 0.0
C93 C 0.04315 0.56203 0.37508 0.0
C94 C 0.7076 0.77601 0.68925 0.0
C95 C 0.71678 0.73477 0.78321 0.0
H96 H 0.74449 0.81571 0.56029 0.0
C97 C 0.77197 0.69985 0.81915 0.0
H98 H 0.66772 0.80621 0.66628 0.0
C99 C 0.81737 0.7063 0.76066 0.0
C100 C 0.8083 0.74847 0.6676 0.0
H101 H 0.78039 0.66855 0.89351 0.0
H102 H 0.85967 0.67907 0.78908 0.0
C103 C 0.75237 0.78224 0.63068 0.0
C104 C 0.48108 0.48202 0.13817 0.0
C105 C 0.52066 0.43827 0.11364 0.0
H106 H 0.44699 0.57183 0.10713 0.0
C107 C 0.56771 0.45596 0.06489 0.0
H108 H 0.44471 0.46976 0.17676 0.0
C109 C 0.56924 0.51487 0.02626 0.0
C110 C 0.52437 0.55653 0.03746 0.0
H111 H 0.59862 0.42326 0.04457 0.0
H112 H 0.6013 0.5263 0.97696 0.0
C113 C 0.48243 0.54054 0.09901 0.0
C114 C 0.79224 0.32271 0.15301 0.0
C115 C 0.83757 0.3194 0.26972 0.0
H116 H 0.69404 0.31452 0.04745 0.0
C117 C 0.8171 0.32317 0.37145 0.0
H118 H 0.80694 0.319 0.07311 0.0
C119 C 0.75241 0.3194 0.3567 0.0
C120 C 0.7076 0.31303 0.24006 0.0
H121 H 0.85098 0.31971 0.46224 0.0
H122 H 0.73825 0.31349 0.43672 0.0
C123 C 0.72745 0.3201 0.1382 0.0
C124 C 0.33416 0.27614 0.30452 0.0
C125 C 0.32516 0.23498 0.21013 0.0
H126 H 0.29712 0.31558 0.43398 0.0
C127 C 0.27015 0.19992 0.17389 0.0
H128 H 0.37387 0.30645 0.32773 0.0
C129 C 0.22475 0.20616 0.2325 0.0
C130 C 0.23363 0.24825 0.32602 0.0
H131 H 0.26188 0.16868 0.09919 0.0
H132 H 0.18257 0.17885 0.20382 0.0
C133 C 0.2894 0.28216 0.36325 0.0
C134 C 0.28923 0.8191 0.63623 0.0
C135 C 0.33407 0.81287 0.75283 0.0
H136 H 0.19068 0.81942 0.53075 0.0
C137 C 0.31425 0.8202 0.85474 0.0
H138 H 0.30339 0.81298 0.55619 0.0
C139 C 0.24946 0.82296 0.83999 0.0
C140 C 0.20411 0.81951 0.7233 0.0
H141 H 0.34771 0.81476 0.94545 0.0
H142 H 0.23481 0.81945 0.91994 0.0
C143 C 0.22455 0.82301 0.62154 0.0
C144 C 0.47388 0.95608 0.92785 0.0
C145 C 0.52094 0.93797 0.87925 0.0
H146 H 0.44031 0.02694 0.0154 0.0
C147 C 0.56049 0.98143 0.85439 0.0
H148 H 0.44299 0.92361 0.94841 0.0
C149 C 0.55915 0.04012 0.8932 0.0
C150 C 0.51723 0.05656 0.9547 0.0
H151 H 0.59687 0.96884 0.81588 0.0
H152 H 0.59461 0.0712 0.88493 0.0
C153 C 0.47234 0.01516 0.96611 0.0
C154 C 0.99345 0.00396 0.65301 0.0
C155 C 0.03005 0.95842 0.62538 0.0
H156 H 0.96301 0.09444 0.62281 0.0
C157 C 0.07877 0.97397 0.57945 0.0
H158 H 0.9556 0.99323 0.68884 0.0
C159 C 0.08433 0.03305 0.54526 0.0
C160 C 0.0417 0.07688 0.55772 0.0
H161 H 0.10733 0.9398 0.55649 0.0
H162 H 0.11719 0.04304 0.49686 0.0
C163 C 0.99826 0.0624 0.61699 0.0
C164 C 0.10759 0.26578 0.014 0.0
C165 C 0.06592 0.21998 0.0194 0.0
H166 H 0.15068 0.314 0.90317 0.0
C167 C 0.03953 0.18389 0.91636 0.0
H168 H 0.12811 0.29481 0.09125 0.0
C169 C 0.05138 0.1957 0.80812 0.0
C170 C 0.09034 0.24319 0.80044 0.0
H171 H 0.00713 0.14818 0.91735 0.0
H172 H 0.02716 0.16987 0.72874 0.0
C173 C 0.12006 0.27701 0.90573 0.0
C174 C 0.00241 0.68407 0.07635 0.0
C175 C 0.97606 0.72026 0.97371 0.0
H176 H 0.0146 0.66983 0.26373 0.0
C177 C 0.9343 0.76608 0.97951 0.0
H178 H 0.03486 0.64833 0.07502 0.0
C179 C 0.92172 0.77723 0.08781 0.0
C180 C 0.9514 0.7433 0.19274 0.0
H181 H 0.9138 0.79517 0.90257 0.0
H182 H 0.89105 0.81423 0.09069 0.0
C183 C 0.99043 0.69578 0.18463 0.0
C184 C 0.5635 0.66332 0.31024 0.0
C185 C 0.57895 0.72101 0.28323 0.0
H186 H 0.53737 0.60768 0.43651 0.0
C187 C 0.58321 0.76687 0.36821 0.0
H188 H 0.5608 0.62716 0.24749 0.0
C189 C 0.5698 0.75593 0.47512 0.0
C190 C 0.55385 0.69862 0.5019 0.0
H191 H 0.59396 0.81216 0.34964 0.0
H192 H 0.56848 0.79311 0.53373 0.0
C193 C 0.55081 0.65219 0.41874 0.0
C194 C 0.47202 0.25626 0.51824 0.0
C195 C 0.48829 0.199 0.49108 0.0
H196 H 0.44748 0.3124 0.644 0.0
C197 C 0.49158 0.15256 0.57394 0.0
H198 H 0.47317 0.29345 0.45989 0.0
C199 C 0.4788 0.16364 0.68248 0.0
C200 C 0.46297 0.22127 0.70982 0.0
H201 H 0.50527 0.1081 0.55589 0.0
H202 H 0.48174 0.12749 0.74504 0.0
C203 C 0.4585 0.26714 0.62516 0.0
loop_
_geom_bond_atom_site_label_1
_geom_bond_atom_site_label_2
_geom_bond_distance
_geom_bond_site_symmetry_2
_ccdc_geom_bond_type
Zn0 O6 1.920 . S
Zn0 O12 1.898 . S
Zn0 O15 1.905 . S
Zn1 O9 1.905 . S
Zn1 O10 1.898 . S
Zn1 O18 1.920 . S
Zn2 O5 2.080 . S
Zn2 O8 2.114 . S
Zn2 O11 2.120 . S
Zn2 O13 2.120 1_455 S
Zn2 O14 2.114 . S
Zn2 O17 2.080 . S
C3 O8 1.166 . S
C3 O9 1.182 . S
C4 O10 1.167 . S
C4 O11 1.299 . S
O5 Zn2 2.080 . S
O5 C19 1.305 . S
O6 Zn0 1.920 . S
O6 C19 1.234 1_655 S
C7 O12 1.167 . S
C7 O13 1.299 . S
O8 Zn2 2.114 . S
O8 C3 1.166 . S
O9 Zn1 1.905 . S
O9 C3 1.182 . S
O10 Zn1 1.898 . S
O10 C4 1.167 . S
O11 Zn2 2.120 . S
O11 C4 1.299 . S
O12 Zn0 1.898 . S
O12 C7 1.167 . S
O13 Zn2 2.120 1_655 S
O13 C7 1.299 . S
O14 Zn2 2.114 . S
O14 C16 1.166 . S
O15 Zn0 1.905 . S
O15 C16 1.182 1_655 S
C16 O14 1.166 . S
C16 O15 1.182 1_455 S
O17 Zn2 2.080 . S
O17 C20 1.305 . S
O18 Zn1 1.920 . S
O18 C20 1.234 . S
C19 O5 1.305 . S
C19 O6 1.234 1_455 S
C20 O17 1.305 . S
C20 O18 1.234 . S
Zn21 O27 1.920 . S
Zn21 O33 1.898 . S
Zn21 O36 1.905 . S
Zn22 O30 1.905 . S
Zn22 O31 1.898 . S
Zn22 O39 1.920 . S
Zn23 O26 2.080 1_455 S
Zn23 O29 2.114 . S
Zn23 O32 2.120 . S
Zn23 O34 2.120 . S
Zn23 O35 2.114 . S
Zn23 O38 2.080 . S
C24 O29 1.166 . S
C24 O30 1.182 . S
C25 O31 1.167 . S
C25 O32 1.299 . S
O26 Zn23 2.080 1_655 S
O26 C40 1.305 . S
O27 Zn21 1.920 . S
O27 C40 1.234 . S
C28 O33 1.167 1_455 S
C28 O34 1.299 . S
O29 Zn23 2.114 . S
O29 C24 1.166 . S
O30 Zn22 1.905 . S
O30 C24 1.182 . S
O31 Zn22 1.898 . S
O31 C25 1.167 . S
O32 Zn23 2.120 . S
O32 C25 1.299 . S
O33 Zn21 1.898 . S
O33 C28 1.167 1_655 S
O34 Zn23 2.120 . S
O34 C28 1.299 . S
O35 Zn23 2.114 . S
O35 C37 1.166 1_455 S
O36 Zn21 1.905 . S
O36 C37 1.182 . S
C37 O35 1.166 1_655 S
C37 O36 1.182 . S
O38 Zn23 2.080 . S
O38 C41 1.305 . S
O39 Zn22 1.920 . S
O39 C41 1.234 . S
C40 O26 1.305 . S
C40 O27 1.234 . S
C41 O38 1.305 . S
C41 O39 1.234 . S
Zn42 O48 1.920 . S
Zn42 O54 1.898 . S
Zn42 O57 1.905 . S
Zn43 O51 1.905 . S
Zn43 O52 1.898 . S
Zn43 O60 1.920 1_554 S
Zn44 O47 2.080 . S
Zn44 O50 2.114 1_556 S
Zn44 O53 2.120 . S
Zn44 O55 2.120 . S
Zn44 O56 2.114 . S
Zn44 O59 2.080 . S
C45 O50 1.166 . S
C45 O51 1.182 . S
C46 O52 1.167 1_556 S
C46 O53 1.299 . S
O47 Zn44 2.080 . S
O47 C61 1.305 . S
O48 Zn42 1.920 . S
O48 C61 1.234 . S
C49 O54 1.167 . S
C49 O55 1.299 . S
O50 Zn44 2.114 1_554 S
O50 C45 1.166 . S
O51 Zn43 1.905 . S
O51 C45 1.182 . S
O52 Zn43 1.898 . S
O52 C46 1.167 1_554 S
O53 Zn44 2.120 . S
O53 C46 1.299 . S
O54 Zn42 1.898 . S
O54 C49 1.167 . S
O55 Zn44 2.120 . S
O55 C49 1.299 . S
O56 Zn44 2.114 . S
O56 C58 1.166 . S
O57 Zn42 1.905 . S
O57 C58 1.182 . S
C58 O56 1.166 . S
C58 O57 1.182 . S
O59 Zn44 2.080 . S
O59 C62 1.305 . S
O60 Zn43 1.920 1_556 S
O60 C62 1.234 . S
C61 O47 1.305 . S
C61 O48 1.234 . S
C62 O59 1.305 . S
C62 O60 1.234 . S
Zn63 O69 1.920 . S
Zn63 O75 1.898 . S
Zn63 O78 1.905 . S
Zn64 O72 1.905 . S
Zn64 O73 1.898 . S
Zn64 O81 1.920 1_556 S
Zn65 O68 2.080 . S
Zn65 O71 2.114 1_554 S
Zn65 O74 2.120 . S
Zn65 O76 2.120 . S
Zn65 O77 2.114 . S
Zn65 O80 2.080 . S
C66 O71 1.166 . S
C66 O72 1.182 . S
C67 O73 1.167 1_554 S
C67 O74 1.299 . S
O68 Zn65 2.080 . S
O68 C82 1.305 . S
O69 Zn63 1.920 . S
O69 C82 1.234 . S
C70 O75 1.167 . S
C70 O76 1.299 . S
O71 Zn65 2.114 1_556 S
O71 C66 1.166 . S
O72 Zn64 1.905 . S
O72 C66 1.182 . S
O73 Zn64 1.898 . S
O73 C67 1.167 1_556 S
O74 Zn65 2.120 . S
O74 C67 1.299 . S
O75 Zn63 1.898 . S
O75 C70 1.167 . S
O76 Zn65 2.120 . S
O76 C70 1.299 . S
O77 Zn65 2.114 . S
O77 C79 1.166 . S
O78 Zn63 1.905 . S
O78 C79 1.182 . S
C79 O77 1.166 . S
C79 O78 1.182 . S
O80 Zn65 2.080 . S
O80 C83 1.305 . S
O81 Zn64 1.920 1_554 S
O81 C83 1.234 . S
C82 O68 1.305 . S
C82 O69 1.234 . S
C83 O80 1.305 . S
C83 O81 1.234 . S
C84 C85 1.387 . S
C84 H88 0.950 . S
C84 C93 1.390 . S
C85 C84 1.387 . S
C85 C87 1.387 1_455 S
H86 C93 0.950 . S
C87 C85 1.387 1_655 S
C87 C89 1.390 . S
C87 H91 0.950 . S
H88 C84 0.950 . S
C89 C87 1.390 . S
C89 C90 1.387 1_655 S
C89 H92 0.950 . S
C90 C89 1.387 1_455 S
C90 C93 1.387 . S
H91 C87 0.950 . S
H92 C89 0.950 . S
C93 C84 1.390 . S
C93 H86 0.950 . S
C93 C90 1.387 . S
C94 C95 1.387 . S
C94 H98 0.950 . S
C94 C103 1.390 . S
C95 C94 1.387 . S
C95 C97 1.387 . S
H96 C103 0.950 . S
C97 C95 1.387 . S
C97 C99 1.390 . S
C97 H101 0.950 . S
H98 C94 0.950 . S
C99 C97 1.390 . S
C99 C100 1.387 . S
C99 H102 0.950 . S
C100 C99 1.387 . S
C100 C103 1.387 . S
H101 C97 0.950 . S
H102 C99 0.950 . S
C103 C94 1.390 . S
C103 H96 0.950 . S
C103 C100 1.387 . S
C104 C105 1.387 . S
C104 H108 0.950 . S
C104 C113 1.390 . S
C105 C104 1.387 . S
C105 C107 1.387 1_554 S
H106 C113 0.950 . S
C107 C105 1.387 1_556 S
C107 C109 1.390 . S
C107 H111 0.950 . S
H108 C104 0.950 . S
C109 C107 1.390 . S
C109 C110 1.387 . S
C109 H112 0.950 . S
C110 C109 1.387 . S
C110 C113 1.387 1_556 S
H111 C107 0.950 . S
H112 C109 0.950 . S
C113 C104 1.390 . S
C113 H106 0.950 . S
C113 C110 1.387 1_554 S
C114 C115 1.387 . S
C114 H118 0.950 . S
C114 C123 1.390 . S
C115 C114 1.387 . S
C115 C117 1.387 . S
H116 C123 0.950 . S
C117 C115 1.387 . S
C117 C119 1.390 . S
C117 H121 0.950 . S
H118 C114 0.950 . S
C119 C117 1.390 . S
C119 C120 1.387 . S
C119 H122 0.950 . S
C120 C119 1.387 . S
C120 C123 1.387 . S
H121 C117 0.950 . S
H122 C119 0.950 . S
C123 C114 1.390 . S
C123 H116 0.950 . S
C123 C120 1.387 . S
C124 C125 1.387 . S
C124 H128 0.950 . S
C124 C133 1.390 . S
C125 C124 1.387 . S
C125 C127 1.387 . S
H126 C133 0.950 . S
C127 C125 1.387 . S
C127 C129 1.390 . S
C127 H131 0.950 . S
H128 C124 0.950 . S
C129 C127 1.390 . S
C129 C130 1.387 . S
C129 H132 0.950 . S
C130 C129 1.387 . S
C130 C133 1.387 . S
H131 C127 0.950 . S
H132 C129 0.950 . S
C133 C124 1.390 . S
C133 H126 0.950 . S
C133 C130 1.387 . S
C134 C135 1.387 . S
C134 H138 0.950 . S
C134 C143 1.390 . S
C135 C134 1.387 . S
C135 C137 1.387 . S
H136 C143 0.950 . S
C137 C135 1.387 . S
C137 C139 1.390 . S
C137 H141 0.950 . S
H138 C134 0.950 . S
C139 C137 1.390 . S
C139 C140 1.387 . S
C139 H142 0.950 . S
C140 C139 1.387 . S
C140 C143 1.387 . S
H141 C137 0.950 . S
H142 C139 0.950 . S
C143 C134 1.390 . S
C143 H136 0.950 . S
C143 C140 1.387 . S
C144 C145 1.387 . S
C144 H148 0.950 . S
C144 C153 1.390 1_565 S
C145 C144 1.387 . S
C145 C147 1.387 . S
H146 C153 0.950 . S
C147 C145 1.387 . S
C147 C149 1.390 1_566 S
C147 H151 0.950 . S
H148 C144 0.950 . S
C149 C147 1.390 1_544 S
C149 C150 1.387 . S
C149 H152 0.950 . S
C150 C149 1.387 . S
C150 C153 1.387 1_554 S
H151 C147 0.950 . S
H152 C149 0.950 . S
C153 C144 1.390 1_545 S
C153 H146 0.950 . S
C153 C150 1.387 1_556 S
C154 C155 1.387 1_655 S
C154 H158 0.950 . S
C154 C163 1.390 1_565 S
C155 C154 1.387 1_455 S
C155 C157 1.387 . S
H156 C163 0.950 . S
C157 C155 1.387 . S
C157 C159 1.390 1_565 S
C157 H161 0.950 . S
H158 C154 0.950 . S
C159 C157 1.390 1_545 S
C159 C160 1.387 . S
C159 H162 0.950 . S
C160 C159 1.387 . S
C160 C163 1.387 1_455 S
H161 C157 0.950 . S
H162 C159 0.950 . S
C163 C154 1.390 1_545 S
C163 H156 0.950 . S
C163 C160 1.387 1_655 S
C164 C165 1.387 1_556 S
C164 H168 0.950 . S
C164 C173 1.390 . S
C165 C164 1.387 1_554 S
C165 C167 1.387 1_554 S
H166 C173 0.950 . S
C167 C165 1.387 1_556 S
C167 C169 1.390 . S
C167 H171 0.950 . S
H168 C164 0.950 . S
C169 C167 1.390 . S
C169 C170 1.387 . S
C169 H172 0.950 . S
C170 C169 1.387 . S
C170 C173 1.387 . S
H171 C167 0.950 . S
H172 C169 0.950 . S
C173 C164 1.390 . S
C173 H166 0.950 . S
C173 C170 1.387 . S
C174 C175 1.392 . S
C174 H178 0.950 . S
C174 C183 1.390 . S
C175 C174 1.392 . S
C175 C177 1.392 . S
H176 C183 0.950 . S
C177 C175 1.392 . S
C177 C179 1.390 . S
C177 H181 0.950 . S
H178 C174 0.950 . S
C179 C177 1.390 . S
C179 C180 1.387 . S
C179 H182 0.950 . S
C180 C179 1.387 . S
C180 C183 1.387 . S
H181 C177 0.950 . S
H182 C179 0.950 . S
C183 C174 1.390 . S
C183 H176 0.950 . S
C183 C180 1.387 . S
C184 C185 1.387 . S
C184 H188 0.950 . S
C184 C193 1.390 . S
C185 C184 1.387 . S
C185 C187 1.387 . S
H186 C193 0.950 . S
C187 C185 1.387 . S
C187 C189 1.390 . S
C187 H191 0.950 . S
H188 C184 0.950 . S
C189 C187 1.390 . S
C189 C190 1.387 . S
C189 H192 0.950 . S
C190 C189 1.387 . S
C190 C193 1.387 . S
H191 C187 0.950 . S
H192 C189 0.950 . S
C193 C184 1.390 . S
C193 H186 0.950 . S
C193 C190 1.387 . S
C194 C195 1.387 . S
C194 H198 0.950 . S
C194 C203 1.390 . S
C195 C194 1.387 . S
C195 C197 1.387 . S
H196 C203 0.950 . S
C197 C195 1.387 . S
C197 C199 1.390 . S
C197 H201 0.950 . S
H198 C194 0.950 . S
C199 C197 1.390 . S
C199 C200 1.387 . S
C199 H202 0.950 . S
C200 C199 1.387 . S
C200 C203 1.387 . S
H201 C197 0.950 . S
H202 C199 0.950 . S
C203 C194 1.390 . S
C203 H196 0.950 . S
C203 C200 1.387 . S
C85 C3 1.353 . S
C90 C25 1.555 . S
C95 C62 1.352 . S
C100 C40 1.350 . S
C105 C67 1.321 . S
C110 C49 1.535 . S
C115 C7 1.569 . S
C120 C79 1.584 . S
C125 C83 1.353 . S
C130 C4 1.350 . S
C135 C58 1.587 . S
C140 C24 1.592 . S
C145 C46 1.337 . S
C150 C70 1.542 . S
C155 C28 1.323 . S
C160 C19 1.542 . S
C165 C16 1.227 . S
C170 C20 1.211 . S
C175 C41 1.216 1_654 S
C180 C37 1.212 . S
C185 C45 1.215 . S
C190 C61 1.225 . S
C195 C82 1.219 . S
C200 C66 1.211 . S
