# Generated by pormake.
# Topology pcu, (6)-cn, num edge types: 1
# Building blocks:
#     Node 0, Type 0, BuildingBlock: BETFEN_clean_sbu_0, # of connection points: 6
#     Edge 1, Type (0, 0), BuildingBlock: EZIPEK_clean_linker_0, # of connection points: 2
#     Edge 2, Type (0, 0), BuildingBlock: EZIPEK_clean_linker_0, # of connection points: 2
#     Edge 3, Type (0, 0), BuildingBlock: EZIPEK_clean_linker_0, # of connection points: 2
# Relax obj value: 0.000
# Max RMSD: 0.000
# Mean RMSD: 0.000
data_MOF--net-pcu--node1-BETFEN_clean_sbu_0--edge1-EZIPEK_clean_linker_0
_symmetry_space_group_name_H-M    P1
_symmetry_Int_Tables_number       1
_symmetry_cell_setting            triclinic
loop_
_symmetry_equiv_pos_as_xyz
'x, y, z'
_cell_length_a     21.104878
_cell_length_b     11.573932
_cell_length_c     10.679046
_cell_angle_alpha  89.156792
_cell_angle_beta   94.608391
_cell_angle_gamma 120.77649
loop_
_atom_site_label
_atom_site_type_symbol
_atom_site_fract_x
_atom_site_fract_y
_atom_site_fract_z
_atom_type_partial_charge
Pr0 Pr 0.95611 0.89115 1.00106 0.0
Pr1 Pr 0.12456 0.03575 0.01331 0.0
C2 C 0.80942 0.75777 0.02735 0.0
C3 C 0.75372 0.79832 0.02735 0.0
C4 C 0.6782 0.7022 1.00458 0.0
C5 C 0.6254 0.74155 1.00024 0.0
C6 C 0.64768 0.87748 0.0186 0.0
C7 C 0.72316 -0.02653 0.04203 0.0
C8 C 0.77585 0.93422 0.04601 0.0
C9 C 1.01432 -0.03306 0.7682 0.0
C10 C 0.04264 0.21665 1.00701 0.0
C11 C 0.27128 0.16958 0.98762 0.0
C12 C 0.32706 0.12919 0.98783 0.0
C13 C 0.40252 0.22528 0.01146 0.0
C14 C 0.45537 0.18605 0.01596 0.0
C15 C 0.4332 0.05026 0.9969 0.0
C16 C 0.35777 0.95429 0.97266 0.0
C17 C 0.30503 -0.00658 0.9685 0.0
C18 C 0.06575 0.95897 0.24591 0.0
C19 C 1.03827 0.71028 1.00582 0.0
O20 O 0.85974 0.80241 0.1226 0.0
O21 O 0.83685 0.7659 0.92 0.0
O22 O 1.03602 0.91526 0.85332 0.0
O23 O 0.959 -0.02391 0.80026 0.0
O24 O 0.10197 0.21384 0.98107 0.0
O25 O 0.98165 0.10827 0.03581 0.0
O26 O 0.22108 0.12501 0.89215 0.0
O27 O 0.24369 0.16128 0.09486 0.0
O28 O 0.04478 0.01198 0.16105 0.0
O29 O 0.12065 0.9486 0.2136 0.0
O30 O 0.97868 0.71264 0.03124 0.0
O31 O 0.09953 0.81918 0.97878 0.0
H32 H 0.66018 0.59707 0.98935 0.0
H33 H 0.56729 0.66635 0.98208 0.0
H34 H 0.74118 0.07871 0.05629 0.0
H35 H 0.8339 0.01005 0.06294 0.0
H36 H 0.42045 0.3303 0.02722 0.0
H37 H 0.51344 0.26123 0.03475 0.0
H38 H 0.33984 0.84915 0.95786 0.0
H39 H 0.24702 0.9176 0.95089 0.0
C40 C 0.09962 0.07866 0.45563 0.0
C41 C 0.05207 0.96156 0.37925 0.0
C42 C 0.98128 0.84739 0.55882 0.0
C43 C 1.02827 -0.0352 0.63497 0.0
N44 N 0.1363 0.18622 0.66377 0.0
N45 N 0.94219 0.74245 0.34999 0.0
C46 C 0.08851 0.07912 0.58539 0.0
C47 C 0.99148 0.84791 0.42872 0.0
N48 N 0.1536 0.19089 0.40246 0.0
N49 N 0.92876 0.73366 0.61235 0.0
H50 H 0.94875 0.73883 0.25484 0.0
H51 H 0.89221 0.66291 0.37572 0.0
H52 H 0.91871 0.72982 0.70679 0.0
H53 H 0.89839 0.63993 0.56639 0.0
H54 H 0.18557 0.28442 0.44818 0.0
H55 H 0.16415 0.19363 0.3084 0.0
H56 H 0.18565 0.2678 0.6386 0.0
H57 H 0.12869 0.19048 0.7583 0.0
C58 C 0.52337 0.01073 0.89294 0.0
C59 C 0.48901 0.00781 1.00294 0.0
C60 C 0.55761 0.91726 0.1226 0.0
C61 C 0.59192 0.92005 0.01259 0.0
N62 N 0.6144 -0.02061 0.79678 0.0
N63 N 0.46634 0.948 0.21861 0.0
C64 C 0.57651 -0.03075 0.89854 0.0
C65 C 0.50438 0.95852 0.11695 0.0
N66 N 0.50285 0.0486 0.78222 0.0
N67 N 0.57828 0.87978 0.23342 0.0
H68 H 0.42929 -0.01771 0.21943 0.0
H69 H 0.46818 0.89977 0.30052 0.0
H70 H 0.6158 0.84621 0.24031 0.0
H71 H 0.56183 0.88812 0.32035 0.0
H72 H 0.5194 0.04063 0.69528 0.0
H73 H 0.46541 0.08237 0.77541 0.0
H74 H 0.61249 0.02732 0.71471 0.0
H75 H 0.65136 0.94488 0.79593 0.0
C76 C 1.03737 0.5235 0.88998 0.0
C77 C 1.03698 0.58165 1.00583 0.0
C78 C 0.04825 0.40791 0.12215 0.0
C79 C 0.04425 0.34548 1.00617 0.0
N80 N 1.02682 0.33174 0.77986 0.0
N81 N 1.03671 0.57759 0.23165 0.0
C82 C 1.037 0.40035 0.88996 0.0
C83 C 0.04057 0.52298 0.12186 0.0
N84 N 1.03861 0.58679 0.7801 0.0
N85 N 0.06225 0.35976 0.23227 0.0
H86 H 1.03627 0.66697 0.23596 0.0
H87 H 1.03008 0.53146 0.31788 0.0
H88 H 0.06792 0.27535 0.23577 0.0
H89 H 0.07361 0.40797 0.31964 0.0
H90 H 0.04811 0.55943 0.69433 0.0
H91 H 1.03383 0.67212 0.77517 0.0
H92 H 1.01267 0.35736 0.69265 0.0
H93 H 1.02792 0.24292 0.77613 0.0
loop_
_geom_bond_atom_site_label_1
_geom_bond_atom_site_label_2
_geom_bond_distance
_geom_bond_site_symmetry_2
_ccdc_geom_bond_type
Pr0 C2 2.880 . S
Pr0 O20 2.562 1_556 S
Pr0 O21 2.490 . S
Pr0 O22 2.695 1_655 S
Pr0 O23 2.512 . S
Pr0 O25 2.437 1_565 S
Pr0 O28 2.436 1_566 S
Pr0 O30 2.438 . S
Pr1 C11 2.880 . S
Pr1 O22 2.436 1_544 S
Pr1 O24 2.438 . S
Pr1 O26 2.562 1_554 S
Pr1 O27 2.490 . S
Pr1 O28 2.695 1_455 S
Pr1 O29 2.512 . S
Pr1 O31 2.437 1_545 S
C2 Pr0 2.880 . S
C2 C3 1.491 . S
C2 O20 1.254 1_556 S
C2 O21 1.225 . S
C3 C2 1.491 . S
C3 C4 1.392 . S
C3 C8 1.356 1_566 S
C4 C3 1.392 . S
C4 C5 1.368 . S
C4 H32 0.929 . S
C5 C4 1.368 . S
C5 C6 1.386 . S
C5 H33 0.929 . S
C6 C5 1.386 . S
C6 C7 1.373 1_566 S
C7 C6 1.373 1_544 S
C7 C8 1.409 . S
C7 H34 0.931 . S
C8 C3 1.356 1_544 S
C8 C7 1.409 . S
C8 H35 0.930 . S
C9 O22 1.270 1_655 S
C9 O23 1.248 . S
C10 O24 1.267 1_556 S
C10 O25 1.278 1_455 S
C11 Pr1 2.880 . S
C11 C12 1.491 . S
C11 O26 1.254 1_554 S
C11 O27 1.225 . S
C12 C11 1.491 . S
C12 C13 1.392 . S
C12 C17 1.356 1_544 S
C13 C12 1.392 . S
C13 C14 1.368 . S
C13 H36 0.929 . S
C14 C13 1.368 . S
C14 C15 1.386 . S
C14 H37 0.929 . S
C15 C14 1.386 . S
C15 C16 1.373 1_544 S
C16 C15 1.373 1_566 S
C16 C17 1.409 . S
C16 H38 0.931 . S
C17 C12 1.356 1_566 S
C17 C16 1.409 . S
C17 H39 0.930 . S
C18 O28 1.270 1_455 S
C18 O29 1.248 . S
C19 O30 1.267 1_554 S
C19 O31 1.278 1_655 S
O20 Pr0 2.562 1_554 S
O20 C2 1.254 1_554 S
O21 Pr0 2.490 . S
O21 C2 1.225 . S
O22 Pr0 2.695 1_455 S
O22 Pr1 2.436 1_566 S
O22 C9 1.270 1_455 S
O23 Pr0 2.512 . S
O23 C9 1.248 . S
O24 Pr1 2.438 . S
O24 C10 1.267 1_554 S
O25 Pr0 2.437 1_545 S
O25 C10 1.278 1_655 S
O26 Pr1 2.562 1_556 S
O26 C11 1.254 1_556 S
O27 Pr1 2.490 . S
O27 C11 1.225 . S
O28 Pr0 2.436 1_544 S
O28 Pr1 2.695 1_655 S
O28 C18 1.270 1_655 S
O29 Pr1 2.512 . S
O29 C18 1.248 . S
O30 Pr0 2.438 . S
O30 C19 1.267 1_556 S
O31 Pr1 2.437 1_565 S
O31 C19 1.278 1_455 S
H32 C4 0.929 . S
H33 C5 0.929 . S
H34 C7 0.931 . S
H35 C8 0.930 . S
H36 C13 0.929 . S
H37 C14 0.929 . S
H38 C16 0.931 . S
H39 C17 0.930 . S
C40 C41 1.363 . S
C40 C46 1.379 . S
C40 N48 1.356 . S
C41 C40 1.363 . S
C41 C47 1.363 1_445 S
C42 C43 1.363 1_665 S
C42 C47 1.379 . S
C42 N49 1.356 . S
C43 C42 1.363 1_445 S
C43 C46 1.363 . S
N44 C46 1.356 . S
N44 H56 0.984 . S
N44 H57 0.985 . S
N45 C47 1.356 . S
N45 H50 0.984 . S
N45 H51 0.985 . S
C46 C40 1.379 . S
C46 C43 1.363 . S
C46 N44 1.356 . S
C47 C41 1.363 1_665 S
C47 C42 1.379 . S
C47 N45 1.356 . S
N48 C40 1.356 . S
N48 H54 0.984 . S
N48 H55 0.984 . S
N49 C42 1.356 . S
N49 H52 0.984 . S
N49 H53 0.985 . S
H50 N45 0.984 . S
H51 N45 0.985 . S
H52 N49 0.984 . S
H53 N49 0.985 . S
H54 N48 0.984 . S
H55 N48 0.984 . S
H56 N44 0.984 . S
H57 N44 0.985 . S
C58 C59 1.363 1_566 S
C58 C64 1.379 . S
C58 N66 1.356 . S
C59 C58 1.363 1_544 S
C59 C65 1.363 . S
C60 C61 1.363 . S
C60 C65 1.379 . S
C60 N67 1.356 . S
C61 C60 1.363 . S
C61 C64 1.363 1_544 S
N62 C64 1.356 . S
N62 H74 0.984 . S
N62 H75 0.985 . S
N63 C65 1.356 . S
N63 H68 0.984 . S
N63 H69 0.985 . S
C64 C58 1.379 . S
C64 C61 1.363 1_566 S
C64 N62 1.356 . S
C65 C59 1.363 . S
C65 C60 1.379 . S
C65 N63 1.356 . S
N66 C58 1.356 . S
N66 H72 0.984 . S
N66 H73 0.984 . S
N67 C60 1.356 . S
N67 H70 0.984 . S
N67 H71 0.985 . S
H68 N63 0.984 . S
H69 N63 0.985 . S
H70 N67 0.984 . S
H71 N67 0.985 . S
H72 N66 0.984 . S
H73 N66 0.984 . S
H74 N62 0.984 . S
H75 N62 0.985 . S
C76 C77 1.363 1_656 S
C76 C82 1.379 . S
C76 N84 1.356 . S
C77 C76 1.363 1_454 S
C77 C83 1.363 . S
C78 C79 1.363 . S
C78 C83 1.379 . S
C78 N85 1.356 . S
C79 C78 1.363 . S
C79 C82 1.363 1_454 S
N80 C82 1.356 . S
N80 H92 0.984 . S
N80 H93 0.985 . S
N81 C83 1.356 . S
N81 H86 0.984 . S
N81 H87 0.985 . S
C82 C76 1.379 . S
C82 C79 1.363 1_656 S
C82 N80 1.356 . S
C83 C77 1.363 . S
C83 C78 1.379 . S
C83 N81 1.356 . S
N84 C76 1.356 . S
N84 H90 0.984 . S
N84 H91 0.984 . S
N85 C78 1.356 . S
N85 H88 0.984 . S
N85 H89 0.985 . S
H86 N81 0.984 . S
H87 N81 0.985 . S
H88 N85 0.984 . S
H89 N85 0.985 . S
H90 N84 0.984 . S
H91 N84 0.984 . S
H92 N80 0.984 . S
H93 N80 0.985 . S
C41 C18 1.451 . S
C43 C9 1.451 1_445 S
C59 C15 1.499 . S
C61 C6 1.499 1_544 S
C77 C19 1.490 1_455 S
C79 C10 1.490 1_554 S
