# Generated by pormake.
# Topology pcu, (6)-cn, num edge types: 1
# Building blocks:
#     Node 0, Type 0, BuildingBlock: BETDIP_clean_sbu_0, # of connection points: 6
#     Edge 1, Type (0, 0), BuildingBlock: KIFKEQ_clean_linker_1, # of connection points: 2
#     Edge 2, Type (0, 0), BuildingBlock: KIFKEQ_clean_linker_1, # of connection points: 2
#     Edge 3, Type (0, 0), BuildingBlock: KIFKEQ_clean_linker_1, # of connection points: 2
# Relax obj value: 0.000
# Max RMSD: 0.000
# Mean RMSD: 0.000
data_MOF--net-pcu--node1-BETDIP_clean_sbu_0--edge1-KIFKEQ_clean_linker_1
_symmetry_space_group_name_H-M    P1
_symmetry_Int_Tables_number       1
_symmetry_cell_setting            triclinic
loop_
_symmetry_equiv_pos_as_xyz
'x, y, z'
_cell_length_a     25.305017
_cell_length_b     15.63963
_cell_length_c     14.501873
_cell_angle_alpha  90.429827
_cell_angle_beta   97.221269
_cell_angle_gamma 123.79943
loop_
_atom_site_label
_atom_site_type_symbol
_atom_site_fract_x
_atom_site_fract_y
_atom_site_fract_z
_atom_type_partial_charge
Tb0 Tb 0.96409 0.9172 0.02346 0.0
Tb1 Tb 0.1055 0.04685 1.01484 0.0
C2 C 0.85462 0.84627 0.06735 0.0
C3 C 0.80625 0.87267 0.05688 0.0
C4 C 0.811 0.94607 0.12025 0.0
C5 C 0.7634 0.96655 0.11226 0.0
C6 C 0.70973 0.91396 0.04092 0.0
C7 C 0.70542 0.84127 0.97716 0.0
C8 C 0.75285 0.82056 0.98533 0.0
C9 C 0.99344 0.93347 0.85337 0.0
C10 C 0.03828 0.16243 1.0148 0.0
C11 C 0.21588 0.1185 0.974 0.0
C12 C 0.26295 0.08987 0.98226 0.0
C13 C 0.28828 0.08562 0.90296 0.0
C14 C 0.33471 0.06272 0.90941 0.0
C15 C 0.3572 0.04428 0.99561 0.0
C16 C 0.33124 0.04743 0.07486 0.0
C17 C 0.28443 0.06959 0.06825 0.0
C18 C 0.0745 0.02971 0.18401 0.0
C19 C 1.03106 0.80169 0.02151 0.0
O20 O 0.90873 0.90851 0.12391 0.0
O21 O 0.86378 0.81451 0.99094 0.0
O22 O 1.02167 0.00398 0.91963 0.0
O23 O 0.94357 0.85294 0.87909 0.0
O24 O 0.98785 0.07546 0.03667 0.0
O25 O 0.0879 0.16612 0.98955 0.0
O26 O 0.16257 0.05892 0.9154 0.0
O27 O 0.20567 0.14651 0.05145 0.0
O28 O 0.04798 0.9595 0.11791 0.0
O29 O 0.12354 0.1119 0.15873 0.0
O30 O 0.08071 0.88813 0.99751 0.0
O31 O 0.98256 0.79901 0.04989 0.0
H32 H 0.85106 -0.01312 0.17691 0.0
H33 H 0.76798 0.02194 0.16347 0.0
H34 H 0.66539 0.80031 0.92051 0.0
H35 H 0.7474 0.76297 0.93578 0.0
H36 H 0.27263 0.10123 0.83599 0.0
H37 H 0.35411 0.06184 0.84722 0.0
H38 H 0.34691 0.03226 0.14202 0.0
H39 H 0.2655 0.07156 0.13061 0.0
H40 H 0.11003 0.17849 0.32198 0.0
H41 H 1.00728 0.84833 0.26317 0.0
H42 H 0.08871 0.15612 0.48227 0.0
H43 H 0.98954 0.82513 0.42486 0.0
H44 H 0.91742 0.80232 0.69885 0.0
H45 H 0.93415 0.82658 0.5372 0.0
H46 H 0.11562 0.11919 0.62629 0.0
H47 H 0.09561 0.09777 0.78713 0.0
C48 C 0.08328 0.10106 0.34392 0.0
C49 C 0.06026 0.01519 0.28046 0.0
C50 C 0.07152 0.088 0.43622 0.0
C51 C 0.03765 -0.01133 0.46794 0.0
C52 C 1.01467 0.90278 0.40353 0.0
C53 C 1.02519 0.91587 0.31068 0.0
C54 C 0.96079 0.87192 0.68363 0.0
C55 C 1.00544 0.94782 0.75568 0.0
C56 C 0.97082 0.88562 0.59071 0.0
C57 C 1.02656 0.97475 0.56744 0.0
C58 C 0.07151 0.05029 0.64034 0.0
C59 C 0.06063 0.03752 0.73311 0.0
H60 H 0.46292 0.12358 0.13092 0.0
H61 H 0.36745 0.91888 0.8768 0.0
H62 H 0.54751 0.09158 0.14224 0.0
H63 H 0.45277 0.88862 0.88699 0.0
H64 H 0.57921 0.77284 0.99553 0.0
H65 H 0.49446 0.80391 0.98429 0.0
H66 H 0.6373 0.12931 0.06097 0.0
H67 H 0.72238 0.09873 0.07095 0.0
C68 C 0.45984 0.07138 0.07769 0.0
C69 C 0.40836 0.02368 1.00301 0.0
C70 C 0.50869 0.05392 0.08363 0.0
C71 C 0.50703 -0.01228 1.01542 0.0
C72 C 0.45528 0.93941 0.94111 0.0
C73 C 0.40668 0.95747 0.93481 0.0
C74 C 0.59278 0.85131 1.00888 0.0
C75 C 0.65788 0.93327 0.03397 0.0
C76 C 0.54406 0.86904 1.0026 0.0
C77 C 0.55903 0.96908 0.02175 0.0
C78 C 0.62402 0.05106 0.04705 0.0
C79 C 0.67283 0.03345 0.05287 0.0
H80 H 0.95842 0.62749 0.10892 0.0
H81 H 0.10567 0.76428 0.93198 0.0
H82 H 0.96128 0.47441 0.109 0.0
H83 H 0.10656 0.60965 0.9283 0.0
H84 H 0.13973 0.36268 1.01414 0.0
H85 H 0.13836 0.51709 1.01827 0.0
H86 H 0.9324 0.32707 1.01558 0.0
H87 H 0.93449 0.17355 1.0159 0.0
C88 C 0.99095 0.62439 0.06929 0.0
C89 C 1.03186 0.70795 0.02058 0.0
C90 C 0.99238 0.53631 0.06881 0.0
C91 C 0.0341 0.52919 0.0185 0.0
C92 C 0.07467 0.61287 0.96928 0.0
C93 C 0.07388 0.70143 0.97085 0.0
C94 C 0.09421 0.35405 1.01435 0.0
C95 C 0.03729 0.25601 1.01473 0.0
C96 C 0.09328 0.44257 1.01621 0.0
C97 C 0.03523 0.43495 1.01716 0.0
C98 C 0.97822 0.33643 1.01669 0.0
C99 C 0.97931 0.24813 1.01618 0.0
loop_
_geom_bond_atom_site_label_1
_geom_bond_atom_site_label_2
_geom_bond_distance
_geom_bond_site_symmetry_2
_ccdc_geom_bond_type
Tb0 C2 2.809 . S
Tb0 O20 2.484 1_556 S
Tb0 O21 2.440 . S
Tb0 O22 2.658 1_655 S
Tb0 O23 2.409 . S
Tb0 O24 2.378 1_565 S
Tb0 O28 2.325 1_566 S
Tb0 O31 2.341 . S
Tb1 C11 2.809 . S
Tb1 O22 2.325 1_544 S
Tb1 O25 2.341 . S
Tb1 O26 2.484 1_554 S
Tb1 O27 2.440 . S
Tb1 O28 2.658 1_455 S
Tb1 O29 2.409 . S
Tb1 O30 2.378 1_545 S
C2 Tb0 2.809 . S
C2 C3 1.514 . S
C2 O20 1.248 1_556 S
C2 O21 1.266 . S
C3 C2 1.514 . S
C3 C4 1.355 1_566 S
C3 C8 1.348 . S
C4 C3 1.355 1_544 S
C4 C5 1.386 . S
C4 H32 0.927 . S
C5 C4 1.386 . S
C5 C6 1.339 1_544 S
C5 H33 0.931 . S
C6 C5 1.339 1_566 S
C6 C7 1.378 . S
C7 C6 1.378 . S
C7 C8 1.408 . S
C7 H34 0.930 . S
C8 C3 1.348 . S
C8 C7 1.408 . S
C8 H35 0.930 . S
C9 O22 1.281 1_655 S
C9 O23 1.254 . S
C10 O24 1.236 1_455 S
C10 O25 1.266 1_556 S
C11 Tb1 2.809 . S
C11 C12 1.514 . S
C11 O26 1.248 1_554 S
C11 O27 1.266 . S
C12 C11 1.514 . S
C12 C13 1.356 1_544 S
C12 C17 1.348 . S
C13 C12 1.356 1_566 S
C13 C14 1.384 . S
C13 H36 0.927 . S
C14 C13 1.384 . S
C14 C15 1.337 1_566 S
C14 H37 0.931 . S
C15 C14 1.337 1_544 S
C15 C16 1.380 . S
C16 C15 1.380 . S
C16 C17 1.408 . S
C16 H38 0.930 . S
C17 C12 1.348 . S
C17 C16 1.408 . S
C17 H39 0.930 . S
C18 O28 1.281 1_455 S
C18 O29 1.254 . S
C19 O30 1.236 1_655 S
C19 O31 1.266 1_554 S
O20 Tb0 2.484 1_554 S
O20 C2 1.248 1_554 S
O21 Tb0 2.440 . S
O21 C2 1.266 . S
O22 Tb0 2.658 1_455 S
O22 Tb1 2.325 1_566 S
O22 C9 1.281 1_455 S
O23 Tb0 2.409 . S
O23 C9 1.254 . S
O24 Tb0 2.378 1_545 S
O24 C10 1.236 1_655 S
O25 Tb1 2.341 . S
O25 C10 1.266 1_554 S
O26 Tb1 2.484 1_556 S
O26 C11 1.248 1_556 S
O27 Tb1 2.440 . S
O27 C11 1.266 . S
O28 Tb0 2.325 1_544 S
O28 Tb1 2.658 1_655 S
O28 C18 1.281 1_655 S
O29 Tb1 2.409 . S
O29 C18 1.254 . S
O30 Tb1 2.378 1_565 S
O30 C19 1.236 1_455 S
O31 Tb0 2.341 . S
O31 C19 1.266 1_556 S
H32 C4 0.927 . S
H33 C5 0.931 . S
H34 C7 0.930 . S
H35 C8 0.930 . S
H36 C13 0.927 . S
H37 C14 0.931 . S
H38 C16 0.930 . S
H39 C17 0.930 . S
H40 C48 0.950 . S
H41 C53 0.950 . S
H42 C50 0.950 . S
H43 C52 0.950 . S
H44 C54 0.950 . S
H45 C56 0.950 . S
H46 C58 0.950 . S
H47 C59 0.950 . S
C48 H40 0.950 . S
C48 C49 1.376 1_455 S
C48 C50 1.391 . S
C49 C48 1.376 1_655 S
C49 C53 1.405 1_545 S
C50 H42 0.950 . S
C50 C48 1.391 . S
C50 C51 1.396 1_455 S
C51 C50 1.396 1_655 S
C51 C52 1.402 1_545 S
C51 C57 1.492 1_645 S
C52 H43 0.950 . S
C52 C51 1.402 1_565 S
C52 C53 1.391 . S
C53 H41 0.950 . S
C53 C49 1.405 1_565 S
C53 C52 1.391 . S
C54 H44 0.950 . S
C54 C55 1.386 1_655 S
C54 C56 1.391 . S
C55 C54 1.386 1_455 S
C55 C59 1.393 1_565 S
C56 H45 0.950 . S
C56 C54 1.391 . S
C56 C57 1.397 1_655 S
C57 C51 1.492 1_465 S
C57 C56 1.397 1_455 S
C57 C58 1.402 1_565 S
C58 H46 0.950 . S
C58 C57 1.402 1_545 S
C58 C59 1.391 . S
C59 H47 0.950 . S
C59 C55 1.393 1_545 S
C59 C58 1.391 . S
H60 C68 0.950 . S
H61 C73 0.950 . S
H62 C70 0.950 . S
H63 C72 0.950 . S
H64 C74 0.950 . S
H65 C76 0.950 . S
H66 C78 0.950 . S
H67 C79 0.950 . S
C68 H60 0.950 . S
C68 C69 1.386 1_545 S
C68 C70 1.391 . S
C69 C68 1.386 1_565 S
C69 C73 1.393 1_554 S
C70 H62 0.950 . S
C70 C68 1.391 . S
C70 C71 1.400 1_545 S
C71 C70 1.400 1_565 S
C71 C72 1.398 1_554 S
C71 C77 1.491 1_564 S
C72 H63 0.950 . S
C72 C71 1.398 1_556 S
C72 C73 1.391 . S
C73 H61 0.950 . S
C73 C69 1.393 1_556 S
C73 C72 1.391 . S
C74 H64 0.950 . S
C74 C75 1.386 1_565 S
C74 C76 1.391 . S
C75 C74 1.386 1_545 S
C75 C79 1.393 1_556 S
C76 H65 0.950 . S
C76 C74 1.391 . S
C76 C77 1.400 1_565 S
C77 C71 1.491 1_546 S
C77 C76 1.400 1_545 S
C77 C78 1.398 1_556 S
C78 H66 0.950 . S
C78 C77 1.398 1_554 S
C78 C79 1.391 . S
C79 H67 0.950 . S
C79 C75 1.393 1_554 S
C79 C78 1.391 . S
H80 C88 0.950 . S
H81 C93 0.950 . S
H82 C90 0.950 . S
H83 C92 0.950 . S
H84 C94 0.950 . S
H85 C96 0.950 . S
H86 C98 0.950 . S
H87 C99 0.950 . S
C88 H80 0.950 . S
C88 C89 1.386 1_554 S
C88 C90 1.391 . S
C89 C88 1.386 1_556 S
C89 C93 1.393 1_655 S
C90 H82 0.950 . S
C90 C88 1.391 . S
C90 C91 1.412 1_554 S
C91 C90 1.412 1_556 S
C91 C92 1.395 1_655 S
C91 C97 1.472 1_656 S
C92 H83 0.950 . S
C92 C91 1.395 1_455 S
C92 C93 1.391 . S
C93 H81 0.950 . S
C93 C89 1.393 1_455 S
C93 C92 1.391 . S
C94 H84 0.950 . S
C94 C95 1.386 1_556 S
C94 C96 1.391 . S
C95 C94 1.386 1_554 S
C95 C99 1.393 1_455 S
C96 H85 0.950 . S
C96 C94 1.391 . S
C96 C97 1.417 1_556 S
C97 C91 1.472 1_454 S
C97 C96 1.417 1_554 S
C97 C98 1.394 1_455 S
C98 H86 0.950 . S
C98 C97 1.394 1_655 S
C98 C99 1.391 . S
C99 H87 0.950 . S
C99 C95 1.393 1_655 S
C99 C98 1.391 . S
C49 C18 1.448 1_655 S
C55 C9 1.455 1_455 S
C69 C15 1.498 1_565 S
C75 C6 1.498 1_545 S
C89 C19 1.493 1_556 S
C95 C10 1.493 1_554 S
