# Generated by pormake.
# Topology qtz, (4)-cn, num edge types: 1
# Building blocks:
#     Node 0, Type 0, BuildingBlock: CEKHIL_clean_sbu_0, # of connection points: 4
#     Node 1, Type 0, BuildingBlock: CEKHIL_clean_sbu_0, # of connection points: 4
#     Node 2, Type 0, BuildingBlock: CEKHIL_clean_sbu_0, # of connection points: 4
#     Edge 3, Type (0, 0), BuildingBlock: EZIPEK_clean_linker_0, # of connection points: 2
#     Edge 4, Type (0, 0), BuildingBlock: EZIPEK_clean_linker_0, # of connection points: 2
#     Edge 5, Type (0, 0), BuildingBlock: EZIPEK_clean_linker_0, # of connection points: 2
#     Edge 6, Type (0, 0), BuildingBlock: EZIPEK_clean_linker_0, # of connection points: 2
#     Edge 7, Type (0, 0), BuildingBlock: EZIPEK_clean_linker_0, # of connection points: 2
#     Edge 8, Type (0, 0), BuildingBlock: EZIPEK_clean_linker_0, # of connection points: 2
# Relax obj value: 0.004
# Max RMSD: 0.041
# Mean RMSD: 0.037
data_MOF--net-qtz--node1-CEKHIL_clean_sbu_0--edge1-EZIPEK_clean_linker_0
_symmetry_space_group_name_H-M    P1
_symmetry_Int_Tables_number       1
_symmetry_cell_setting            triclinic
loop_
_symmetry_equiv_pos_as_xyz
'x, y, z'
_cell_length_a     16.83245
_cell_length_b     16.93206
_cell_length_c     20.910267
_cell_angle_alpha  92.578324
_cell_angle_beta   89.985456
_cell_angle_gamma 120.46424
loop_
_atom_site_label
_atom_site_type_symbol
_atom_site_fract_x
_atom_site_fract_y
_atom_site_fract_z
_atom_type_partial_charge
Co0 Co 0.03444 0.51781 0.14678 0.0
O1 O 0.11912 0.57517 0.07845 0.0
O2 O 0.10281 0.45572 0.12882 0.0
C3 C 0.91244 0.51198 0.09564 0.0
O4 O 0.95277 0.43691 0.21743 0.0
Co5 Co 0.94458 0.61355 0.21912 0.0
O6 O 0.87428 0.49823 0.26373 0.0
C7 C 0.13741 0.66946 0.25025 0.0
C8 C 0.14232 0.51361 0.08429 0.0
C9 C 0.8932 0.43451 0.25733 0.0
O10 O 0.13146 0.60438 0.21256 0.0
O11 O 0.07317 0.68839 0.25607 0.0
O12 O 0.93392 0.44933 0.08402 0.0
O13 O 0.96807 0.57954 0.13441 0.0
Co14 Co 0.55632 0.02965 0.53116 0.0
O15 O 0.49334 0.94383 0.59697 0.0
O16 O 0.61064 0.95337 0.5436 0.0
C17 C 0.56922 0.15267 0.58958 0.0
O18 O 0.64325 0.1128 0.46328 0.0
Co19 Co 0.46868 0.129 0.46811 0.0
O20 O 0.58037 0.18585 0.4159 0.0
C21 C 0.40398 0.93808 0.42682 0.0
C22 C 0.55169 0.91593 0.58879 0.0
C23 C 0.64499 0.16857 0.42249 0.0
O24 O 0.4674 0.93904 0.46213 0.0
O25 O 0.38848 0.00449 0.42648 0.0
O26 O 0.62822 0.12573 0.597 0.0
O27 O 0.50107 0.10172 0.55006 0.0
Co28 Co 0.54513 0.53756 0.81638 0.0
O29 O 0.48939 0.56491 0.74658 0.0
O30 O 0.60061 0.66967 0.81072 0.0
C31 C 0.56472 0.43205 0.75883 0.0
O32 O 0.62317 0.53582 0.89107 0.0
Co33 Co 0.44962 0.34356 0.86874 0.0
O34 O 0.56276 0.39127 0.92248 0.0
C35 C 0.38415 0.46908 0.90845 0.0
C36 C 0.54636 0.65103 0.76094 0.0
C37 C 0.62516 0.47571 0.92581 0.0
O38 O 0.44976 0.53365 0.87781 0.0
O39 O 0.36826 0.38672 0.90689 0.0
O40 O 0.62357 0.51903 0.75602 0.0
O41 O 0.49219 0.41145 0.79167 0.0
C42 C 0.36191 0.55018 1.00504 0.0
C43 C 0.3243 0.48982 0.94967 0.0
C44 C 0.16772 0.44212 0.98473 0.0
C45 C 0.20532 0.5056 0.03833 0.0
N46 N 0.33689 0.63199 0.09383 0.0
N47 N 0.19347 0.39381 0.87958 0.0
C48 C 0.30212 0.56369 0.04653 0.0
C49 C 0.22765 0.44025 0.93746 0.0
N50 N 0.45387 0.59054 0.02007 0.0
N51 N 0.07469 0.38253 0.97944 0.0
H52 H 0.23573 0.39285 0.84339 0.0
H53 H 0.12462 0.36381 0.86496 0.0
H54 H 0.02816 0.38365 0.01186 0.0
H55 H 0.04408 0.32766 0.94564 0.0
H56 H 0.48337 0.62644 0.06346 0.0
H57 H 0.5001 0.58241 0.99134 0.0
H58 H 0.4061 0.68314 0.09777 0.0
H59 H 0.29534 0.64164 0.12652 0.0
C60 C 0.85825 0.37844 0.36828 0.0
C61 C 0.8471 0.35764 0.3011 0.0
C62 C 0.73034 0.19822 0.32046 0.0
C63 C 0.72889 0.22432 0.38547 0.0
N64 N 0.7931 0.33673 0.47352 0.0
N65 N 0.77214 0.24751 0.21219 0.0
C66 C 0.79476 0.31329 0.41031 0.0
C67 C 0.78445 0.26681 0.27682 0.0
N68 N 0.92988 0.46066 0.39169 0.0
N69 N 0.67955 0.10768 0.30093 0.0
H70 H 0.81056 0.2956 0.17878 0.0
H71 H 0.72005 0.18557 0.19147 0.0
H72 H 0.6422 0.05702 0.33315 0.0
H73 H 0.68201 0.08214 0.25521 0.0
H74 H 0.94758 0.47684 0.44016 0.0
H75 H 0.97673 0.51024 0.36204 0.0
H76 H 0.83049 0.4036 0.49321 0.0
H77 H 0.75088 0.28899 0.5061 0.0
C78 C 0.63605 0.86337 0.66072 0.0
C79 C 0.55246 0.84772 0.63172 0.0
C80 C 0.46642 0.71557 0.69841 0.0
C81 C 0.55001 0.72309 0.7201 0.0
N82 N 0.71514 0.79424 0.709 0.0
N83 N 0.38928 0.7441 0.61293 0.0
C84 C 0.63522 0.79432 0.69781 0.0
C85 C 0.4679 0.76961 0.64781 0.0
N86 N 0.71571 0.94557 0.65576 0.0
N87 N 0.38559 0.65917 0.72752 0.0
H88 H 0.38878 0.77824 0.57292 0.0
H89 H 0.32761 0.683 0.61897 0.0
H90 H 0.3821 0.62209 0.767 0.0
H91 H 0.32422 0.65763 0.71723 0.0
H92 H 0.77605 0.96317 0.68139 0.0
H93 H 0.7192 0.99998 0.63202 0.0
H94 H 0.77713 0.83953 0.68809 0.0
H95 H 0.71794 0.74329 0.73328 0.0
C96 C 0.7947 0.54016 0.95063 0.0
C97 C 0.70303 0.50317 0.97205 0.0
C98 C 0.74948 0.47572 0.07612 0.0
C99 C 0.84162 0.51572 0.0557 0.0
N100 N 0.95635 0.60514 0.97944 0.0
N101 N 0.5993 0.4598 0.06021 0.0
C102 C 0.86565 0.55454 0.99491 0.0
C103 C 0.68254 0.47876 0.03657 0.0
N104 N 0.81329 0.55592 0.88731 0.0
N105 N 0.72483 0.43121 0.13192 0.0
H106 H 0.54967 0.46365 0.03279 0.0
H107 H 0.58342 0.44974 0.10841 0.0
H108 H 0.77193 0.42695 0.16165 0.0
H109 H 0.65673 0.39205 0.14586 0.0
H110 H 0.87631 0.57195 0.86772 0.0
H111 H 0.76384 0.54613 0.85301 0.0
H112 H 0.97862 0.64307 0.93866 0.0
H113 H 0.01004 0.61605 0.01027 0.0
C114 C 0.35839 0.87808 0.31328 0.0
C115 C 0.34991 0.86044 0.37955 0.0
C116 C 0.22538 0.70303 0.35346 0.0
C117 C 0.22227 0.72675 0.28986 0.0
N118 N 0.2865 0.83418 0.2069 0.0
N119 N 0.2705 0.75842 0.46385 0.0
C120 C 0.29004 0.81315 0.2688 0.0
C121 C 0.28326 0.77283 0.4 0.0
N122 N 0.43195 0.95699 0.29316 0.0
N123 N 0.17245 0.6138 0.36911 0.0
H124 H 0.3091 0.80947 0.49908 0.0
H125 H 0.21676 0.69889 0.4818 0.0
H126 H 0.13173 0.56163 0.33498 0.0
H127 H 0.17652 0.59045 0.41354 0.0
H128 H 0.44719 0.9703 0.24521 0.0
H129 H 0.48238 0.00638 0.32473 0.0
H130 H 0.32641 0.89969 0.19016 0.0
H131 H 0.24025 0.78604 0.17257 0.0
C132 C 0.59192 0.29991 0.73992 0.0
C133 C 0.56985 0.36316 0.7153 0.0
C134 C 0.56205 0.29777 0.60699 0.0
C135 C 0.57043 0.22599 0.63268 0.0
N136 N 0.57226 0.14858 0.72683 0.0
N137 N 0.52033 0.41409 0.62564 0.0
C138 C 0.57961 0.22414 0.70012 0.0
C139 C 0.55074 0.3596 0.64887 0.0
N140 N 0.62847 0.31418 0.80039 0.0
N141 N 0.57023 0.3104 0.54291 0.0
H142 H 0.51238 0.46134 0.65446 0.0
H143 H 0.49571 0.40683 0.57875 0.0
H144 H 0.58513 0.27043 0.51189 0.0
H145 H 0.57355 0.36674 0.5221 0.0
H146 H 0.65324 0.27439 0.81891 0.0
H147 H 0.64483 0.37291 0.82854 0.0
H148 H 0.57008 0.1412 0.77613 0.0
H149 H 0.55776 0.08906 0.7002 0.0
loop_
_geom_bond_atom_site_label_1
_geom_bond_atom_site_label_2
_geom_bond_distance
_geom_bond_site_symmetry_2
_ccdc_geom_bond_type
Co0 O1 2.216 . S
Co0 O2 2.091 . S
Co0 O4 2.004 1_455 S
Co0 O10 2.021 . S
Co0 O12 2.137 1_455 S
Co0 O13 2.244 1_455 S
O1 Co0 2.216 . S
O1 C8 1.247 . S
O2 Co0 2.091 . S
O2 C8 1.261 . S
C3 O12 1.247 . S
C3 O13 1.272 . S
O4 Co0 2.004 1_655 S
O4 C9 1.259 . S
Co5 O6 2.061 . S
Co5 O11 2.052 1_655 S
Co5 O13 2.135 . S
O6 Co5 2.061 . S
O6 C9 1.235 . S
C7 O10 1.238 . S
C7 O11 1.241 . S
C8 O1 1.247 . S
C8 O2 1.261 . S
C9 O4 1.259 . S
C9 O6 1.235 . S
O10 Co0 2.021 . S
O10 C7 1.238 . S
O11 Co5 2.052 1_455 S
O11 C7 1.241 . S
O12 Co0 2.137 1_655 S
O12 C3 1.247 . S
O13 Co0 2.244 1_655 S
O13 C3 1.272 . S
O13 Co5 2.135 . S
Co14 O15 2.216 1_545 S
Co14 O16 2.091 1_545 S
Co14 O18 2.004 . S
Co14 O24 2.021 1_545 S
Co14 O26 2.137 . S
Co14 O27 2.244 . S
O15 Co14 2.216 1_565 S
O15 C22 1.247 . S
O16 Co14 2.091 1_565 S
O16 C22 1.261 . S
C17 O26 1.247 . S
C17 O27 1.272 . S
O18 Co14 2.004 . S
O18 C23 1.259 . S
Co19 O20 2.061 . S
Co19 O25 2.052 1_545 S
Co19 O27 2.135 . S
O20 Co19 2.061 . S
O20 C23 1.235 . S
C21 O24 1.238 . S
C21 O25 1.241 . S
C22 O15 1.247 . S
C22 O16 1.261 . S
C23 O18 1.259 . S
C23 O20 1.235 . S
O24 Co14 2.021 1_565 S
O24 C21 1.238 . S
O25 Co19 2.052 1_565 S
O25 C21 1.241 . S
O26 Co14 2.137 . S
O26 C17 1.247 . S
O27 Co14 2.244 . S
O27 C17 1.272 . S
O27 Co19 2.135 . S
Co28 O29 2.216 . S
Co28 O30 2.091 . S
Co28 O32 2.004 . S
Co28 O38 2.021 . S
Co28 O40 2.137 . S
Co28 O41 2.244 . S
O29 Co28 2.216 . S
O29 C36 1.247 . S
O30 Co28 2.091 . S
O30 C36 1.261 . S
C31 O40 1.247 . S
C31 O41 1.272 . S
O32 Co28 2.004 . S
O32 C37 1.259 . S
Co33 O34 2.061 . S
Co33 O39 2.052 . S
Co33 O41 2.135 . S
O34 Co33 2.061 . S
O34 C37 1.235 . S
C35 O38 1.238 . S
C35 O39 1.241 . S
C36 O29 1.247 . S
C36 O30 1.261 . S
C37 O32 1.259 . S
C37 O34 1.235 . S
O38 Co28 2.021 . S
O38 C35 1.238 . S
O39 Co33 2.052 . S
O39 C35 1.241 . S
O40 Co28 2.137 . S
O40 C31 1.247 . S
O41 Co28 2.244 . S
O41 C31 1.272 . S
O41 Co33 2.135 . S
C42 C43 1.367 . S
C42 C48 1.375 1_556 S
C42 N50 1.357 . S
C43 C42 1.367 . S
C43 C49 1.363 . S
C44 C45 1.363 1_556 S
C44 C49 1.379 . S
C44 N51 1.360 . S
C45 C44 1.363 1_554 S
C45 C48 1.363 . S
N46 C48 1.356 . S
N46 H58 0.984 . S
N46 H59 0.985 . S
N47 C49 1.356 . S
N47 H52 0.984 . S
N47 H53 0.985 . S
C48 C42 1.375 1_554 S
C48 C45 1.363 . S
C48 N46 1.356 . S
C49 C43 1.363 . S
C49 C44 1.379 . S
C49 N47 1.356 . S
N50 C42 1.357 . S
N50 H56 0.984 1_556 S
N50 H57 0.984 . S
N51 C44 1.360 . S
N51 H54 0.971 1_556 S
N51 H55 0.995 . S
H52 N47 0.984 . S
H53 N47 0.985 . S
H54 N51 0.971 1_554 S
H55 N51 0.995 . S
H56 N50 0.984 1_554 S
H57 N50 0.984 . S
H58 N46 0.984 . S
H59 N46 0.985 . S
C60 C61 1.363 . S
C60 C66 1.379 . S
C60 N68 1.356 . S
C61 C60 1.363 . S
C61 C67 1.363 . S
C62 C63 1.363 . S
C62 C67 1.379 . S
C62 N69 1.356 . S
C63 C62 1.363 . S
C63 C66 1.363 . S
N64 C66 1.356 . S
N64 H76 0.984 . S
N64 H77 0.985 . S
N65 C67 1.356 . S
N65 H70 0.984 . S
N65 H71 0.985 . S
C66 C60 1.379 . S
C66 C63 1.363 . S
C66 N64 1.356 . S
C67 C61 1.363 . S
C67 C62 1.379 . S
C67 N65 1.356 . S
N68 C60 1.356 . S
N68 H74 0.984 . S
N68 H75 0.984 . S
N69 C62 1.356 . S
N69 H72 0.984 . S
N69 H73 0.985 . S
H70 N65 0.984 . S
H71 N65 0.985 . S
H72 N69 0.984 . S
H73 N69 0.985 . S
H74 N68 0.984 . S
H75 N68 0.984 . S
H76 N64 0.984 . S
H77 N64 0.985 . S
C78 C79 1.363 . S
C78 C84 1.379 . S
C78 N86 1.356 . S
C79 C78 1.363 . S
C79 C85 1.363 . S
C80 C81 1.363 . S
C80 C85 1.379 . S
C80 N87 1.356 . S
C81 C80 1.363 . S
C81 C84 1.363 . S
N82 C84 1.356 . S
N82 H94 0.984 . S
N82 H95 0.985 . S
N83 C85 1.356 . S
N83 H88 0.984 . S
N83 H89 0.985 . S
C84 C78 1.379 . S
C84 C81 1.363 . S
C84 N82 1.356 . S
C85 C79 1.363 . S
C85 C80 1.379 . S
C85 N83 1.356 . S
N86 C78 1.356 . S
N86 H92 0.984 . S
N86 H93 0.984 . S
N87 C80 1.356 . S
N87 H90 0.984 . S
N87 H91 0.985 . S
H88 N83 0.984 . S
H89 N83 0.985 . S
H90 N87 0.984 . S
H91 N87 0.985 . S
H92 N86 0.984 . S
H93 N86 0.984 . S
H94 N82 0.984 . S
H95 N82 0.985 . S
C96 C97 1.363 . S
C96 C102 1.379 1_556 S
C96 N104 1.356 . S
C97 C96 1.363 . S
C97 C103 1.363 1_556 S
C98 C99 1.363 . S
C98 C103 1.379 . S
C98 N105 1.356 . S
C99 C98 1.363 . S
C99 C102 1.363 . S
N100 C102 1.356 . S
N100 H112 0.984 1_654 S
N100 H113 0.985 1_655 S
N101 C103 1.356 1_556 S
N101 H106 0.984 . S
N101 H107 0.985 1_556 S
C102 C96 1.379 1_554 S
C102 C99 1.363 . S
C102 N100 1.356 . S
C103 C97 1.363 1_554 S
C103 C98 1.379 . S
C103 N101 1.356 1_554 S
N104 C96 1.356 . S
N104 H110 0.984 . S
N104 H111 0.984 . S
N105 C98 1.356 . S
N105 H108 0.984 . S
N105 H109 0.985 . S
H106 N101 0.984 . S
H107 N101 0.985 1_554 S
H108 N105 0.984 . S
H109 N105 0.985 . S
H110 N104 0.984 . S
H111 N104 0.984 . S
H112 N100 0.984 1_456 S
H113 N100 0.985 1_455 S
C114 C115 1.363 . S
C114 C120 1.379 . S
C114 N122 1.356 . S
C115 C114 1.363 . S
C115 C121 1.363 . S
C116 C117 1.363 . S
C116 C121 1.379 . S
C116 N123 1.356 . S
C117 C116 1.363 . S
C117 C120 1.363 . S
N118 C120 1.356 . S
N118 H130 0.984 . S
N118 H131 0.985 . S
N119 C121 1.356 . S
N119 H124 0.984 . S
N119 H125 0.985 . S
C120 C114 1.379 . S
C120 C117 1.363 . S
C120 N118 1.356 . S
C121 C115 1.363 . S
C121 C116 1.379 . S
C121 N119 1.356 . S
N122 C114 1.356 . S
N122 H128 0.984 . S
N122 H129 0.984 . S
N123 C116 1.356 . S
N123 H126 0.984 . S
N123 H127 0.985 . S
H124 N119 0.984 . S
H125 N119 0.985 . S
H126 N123 0.984 . S
H127 N123 0.985 . S
H128 N122 0.984 . S
H129 N122 0.984 . S
H130 N118 0.984 . S
H131 N118 0.985 . S
C132 C133 1.363 . S
C132 C138 1.379 . S
C132 N140 1.356 . S
C133 C132 1.363 . S
C133 C139 1.363 . S
C134 C135 1.363 . S
C134 C139 1.379 . S
C134 N141 1.356 . S
C135 C134 1.363 . S
C135 C138 1.363 . S
N136 C138 1.356 . S
N136 H148 0.984 . S
N136 H149 0.985 . S
N137 C139 1.356 . S
N137 H142 0.984 . S
N137 H143 0.985 . S
C138 C132 1.379 . S
C138 C135 1.363 . S
C138 N136 1.356 . S
C139 C133 1.363 . S
C139 C134 1.379 . S
C139 N137 1.356 . S
N140 C132 1.356 . S
N140 H146 0.984 . S
N140 H147 0.984 . S
N141 C134 1.356 . S
N141 H144 0.984 . S
N141 H145 0.985 . S
H142 N137 0.984 . S
H143 N137 0.985 . S
H144 N141 0.984 . S
H145 N141 0.985 . S
H146 N140 0.984 . S
H147 N140 0.984 . S
H148 N136 0.984 . S
H149 N136 0.985 . S
C43 C35 1.441 . S
C45 C8 1.461 . S
C61 C9 1.490 . S
C63 C23 1.490 . S
C79 C22 1.469 . S
C81 C36 1.469 . S
C97 C37 1.464 . S
C99 C3 1.478 . S
C115 C21 1.435 . S
C117 C7 1.433 . S
C133 C31 1.454 . S
C135 C17 1.453 . S
