# Generated by pormake.
# Topology pcu, (6)-cn, num edge types: 1
# Building blocks:
#     Node 0, Type 0, BuildingBlock: BETFAJ_clean_sbu_0, # of connection points: 6
#     Edge 1, Type (0, 0), None
#     Edge 2, Type (0, 0), None
#     Edge 3, Type (0, 0), None
# Relax obj value: 0.000
# Max RMSD: 0.000
# Mean RMSD: 0.000
data_MOF--net-pcu--node1-BETFAJ_clean_sbu_0--edge1-none
_symmetry_space_group_name_H-M    P1
_symmetry_Int_Tables_number       1
_symmetry_cell_setting            triclinic
loop_
_symmetry_equiv_pos_as_xyz
'x, y, z'
_cell_length_a     17.08519
_cell_length_b     7.0427571
_cell_length_c     6.0693028
_cell_angle_alpha  84.64368
_cell_angle_beta   97.348603
_cell_angle_gamma 118.03364
loop_
_atom_site_label
_atom_site_type_symbol
_atom_site_fract_x
_atom_site_fract_y
_atom_site_fract_z
_atom_type_partial_charge
Sm0 Sm 0.93849 0.82675 1.00924 0.0
Sm1 Sm 0.14592 0.07398 0.06804 0.0
C2 C 0.76563 0.67095 0.03974 0.0
C3 C 0.70143 0.75496 0.0404 0.0
C4 C 0.72676 -0.04591 0.13125 0.0
C5 C 0.66491 0.03177 0.12925 0.0
C6 C 0.57667 0.91214 1.03565 0.0
C7 C 0.55205 0.71365 0.94289 0.0
C8 C 0.61392 0.63602 0.94529 0.0
C9 C 1.02032 0.9259 0.6277 0.0
C10 C 0.04359 0.3585 1.0374 0.0
C11 C 0.31874 0.22803 0.03816 0.0
C12 C 0.38406 0.14596 1.03547 0.0
C13 C 0.386 0.04367 0.8495 0.0
C14 C 0.4485 -0.03167 0.8495 0.0
C15 C 0.51058 -0.00621 1.03509 0.0
C16 C 0.50896 0.09772 0.22023 0.0
C17 C 0.44665 0.17364 0.21994 0.0
C18 C 0.06372 -0.02499 0.44921 0.0
C19 C 1.04087 0.54241 0.03941 0.0
O20 O 0.82455 0.71031 0.21293 0.0
O21 O 0.79923 0.69282 0.85152 0.0
O22 O 0.04343 0.0491 0.78682 0.0
O23 O 0.94897 0.74651 0.65815 0.0
O24 O 0.96999 0.17726 0.06666 0.0
O25 O 0.11927 0.36353 1.00422 0.0
O26 O 0.26021 0.19357 0.8647 0.0
O27 O 0.2849 0.20544 0.22638 0.0
O28 O 1.04105 0.85182 0.29029 0.0
O29 O 0.13508 0.15448 0.41888 0.0
O30 O 0.11442 0.72367 1.00973 0.0
O31 O 0.96525 0.53737 0.07312 0.0
H32 H 0.79437 0.04998 0.20311 0.0
H33 H 0.68657 0.18686 0.19853 0.0
H34 H 0.48464 0.61675 0.87076 0.0
H35 H 0.59339 0.48275 0.87293 0.0
H36 H 0.33943 0.02183 0.70339 0.0
H37 H 0.44879 0.89233 0.70272 0.0
H38 H 0.55522 0.11844 0.36679 0.0
H39 H 0.4474 0.25405 0.36453 0.0
loop_
_geom_bond_atom_site_label_1
_geom_bond_atom_site_label_2
_geom_bond_distance
_geom_bond_site_symmetry_2
_ccdc_geom_bond_type
Sm0 C2 2.846 . S
Sm0 O20 2.543 1_556 S
Sm0 O21 2.450 . S
Sm0 O22 2.681 1_665 S
Sm0 O23 2.464 . S
Sm0 O24 2.396 1_565 S
Sm0 O28 2.386 1_566 S
Sm0 O31 2.408 . S
Sm1 C11 2.846 . S
Sm1 O22 2.386 1_554 S
Sm1 O25 2.408 . S
Sm1 O26 2.543 1_554 S
Sm1 O27 2.450 . S
Sm1 O28 2.681 1_455 S
Sm1 O29 2.464 . S
Sm1 O30 2.396 1_545 S
C2 Sm0 2.846 . S
C2 C3 1.506 . S
C2 O20 1.261 1_556 S
C2 O21 1.242 . S
C3 C2 1.506 . S
C3 C4 1.358 1_566 S
C3 C8 1.382 . S
C4 C3 1.358 1_544 S
C4 C5 1.385 . S
C4 H32 0.930 . S
C5 C4 1.385 . S
C5 C6 1.395 1_544 S
C5 H33 0.929 . S
C6 C5 1.395 1_566 S
C6 C7 1.335 . S
C7 C6 1.335 . S
C7 C8 1.398 . S
C7 H34 0.930 . S
C8 C3 1.382 . S
C8 C7 1.398 . S
C8 H35 0.929 . S
C9 O22 1.271 1_665 S
C9 O23 1.251 . S
C10 O24 1.252 1_455 S
C10 O25 1.272 1_556 S
C11 Sm1 2.846 . S
C11 C12 1.506 . S
C11 O26 1.261 1_554 S
C11 O27 1.242 . S
C12 C11 1.506 . S
C12 C13 1.358 1_544 S
C12 C17 1.382 . S
C13 C12 1.358 1_566 S
C13 C14 1.385 . S
C13 H36 0.930 . S
C14 C13 1.385 . S
C14 C15 1.395 1_566 S
C14 H37 0.929 . S
C15 C14 1.395 1_544 S
C15 C16 1.335 . S
C16 C15 1.335 . S
C16 C17 1.398 . S
C16 H38 0.930 . S
C17 C12 1.382 . S
C17 C16 1.398 . S
C17 H39 0.929 . S
C18 O28 1.271 1_455 S
C18 O29 1.251 . S
C19 O30 1.252 1_655 S
C19 O31 1.272 1_554 S
O20 Sm0 2.543 1_554 S
O20 C2 1.261 1_554 S
O21 Sm0 2.450 . S
O21 C2 1.242 . S
O22 Sm0 2.681 1_445 S
O22 Sm1 2.386 1_556 S
O22 C9 1.271 1_445 S
O23 Sm0 2.464 . S
O23 C9 1.251 . S
O24 Sm0 2.396 1_545 S
O24 C10 1.252 1_655 S
O25 Sm1 2.408 . S
O25 C10 1.272 1_554 S
O26 Sm1 2.543 1_556 S
O26 C11 1.261 1_556 S
O27 Sm1 2.450 . S
O27 C11 1.242 . S
O28 Sm0 2.386 1_544 S
O28 Sm1 2.681 1_655 S
O28 C18 1.271 1_655 S
O29 Sm1 2.464 . S
O29 C18 1.251 . S
O30 Sm1 2.396 1_565 S
O30 C19 1.252 1_455 S
O31 Sm0 2.408 . S
O31 C19 1.272 1_556 S
H32 C4 0.930 . S
H33 C5 0.929 . S
H34 C7 0.930 . S
H35 C8 0.929 . S
H36 C13 0.930 . S
H37 C14 0.929 . S
H38 C16 0.930 . S
H39 C17 0.929 . S
C18 C9 1.500 1_445 S
C15 C6 1.500 1_544 S
C19 C10 1.500 1_654 S
