# Generated by pormake.
# Topology ukf, (4)-cn, num edge types: 1
# Building blocks:
#     Node 0, Type 0, BuildingBlock: QUQFOY_clean_sbu_1, # of connection points: 4
#     Node 1, Type 0, BuildingBlock: QUQFOY_clean_sbu_1, # of connection points: 4
#     Node 2, Type 0, BuildingBlock: QUQFOY_clean_sbu_1, # of connection points: 4
#     Node 3, Type 0, BuildingBlock: QUQFOY_clean_sbu_1, # of connection points: 4
#     Node 4, Type 0, BuildingBlock: QUQFOY_clean_sbu_1, # of connection points: 4
#     Node 5, Type 0, BuildingBlock: QUQFOY_clean_sbu_1, # of connection points: 4
#     Node 6, Type 0, BuildingBlock: QUQFOY_clean_sbu_1, # of connection points: 4
#     Node 7, Type 0, BuildingBlock: QUQFOY_clean_sbu_1, # of connection points: 4
#     Node 8, Type 0, BuildingBlock: QUQFOY_clean_sbu_1, # of connection points: 4
#     Node 9, Type 0, BuildingBlock: QUQFOY_clean_sbu_1, # of connection points: 4
#     Node 10, Type 0, BuildingBlock: QUQFOY_clean_sbu_1, # of connection points: 4
#     Node 11, Type 0, BuildingBlock: QUQFOY_clean_sbu_1, # of connection points: 4
#     Edge 12, Type (0, 0), None
#     Edge 13, Type (0, 0), None
#     Edge 14, Type (0, 0), None
#     Edge 15, Type (0, 0), None
#     Edge 16, Type (0, 0), None
#     Edge 17, Type (0, 0), None
#     Edge 18, Type (0, 0), None
#     Edge 19, Type (0, 0), None
#     Edge 20, Type (0, 0), None
#     Edge 21, Type (0, 0), None
#     Edge 22, Type (0, 0), None
#     Edge 23, Type (0, 0), None
#     Edge 24, Type (0, 0), None
#     Edge 25, Type (0, 0), None
#     Edge 26, Type (0, 0), None
#     Edge 27, Type (0, 0), None
#     Edge 28, Type (0, 0), None
#     Edge 29, Type (0, 0), None
#     Edge 30, Type (0, 0), None
#     Edge 31, Type (0, 0), None
#     Edge 32, Type (0, 0), None
#     Edge 33, Type (0, 0), None
#     Edge 34, Type (0, 0), None
#     Edge 35, Type (0, 0), None
# Relax obj value: 0.112
# Max RMSD: 0.124
# Mean RMSD: 0.124
data_MOF--net-ukf--node1-QUQFOY_clean_sbu_1--edge1-none
_symmetry_space_group_name_H-M    P1
_symmetry_Int_Tables_number       1
_symmetry_cell_setting            triclinic
loop_
_symmetry_equiv_pos_as_xyz
'x, y, z'
_cell_length_a     14.607167
_cell_length_b     14.607209
_cell_length_c     34.670855
_cell_angle_alpha  89.999839
_cell_angle_beta   90.000081
_cell_angle_gamma 120.00031
loop_
_atom_site_label
_atom_site_type_symbol
_atom_site_fract_x
_atom_site_fract_y
_atom_site_fract_z
_atom_type_partial_charge
O0 O 0.55417 0.42543 0.0908 0.0
Cd1 Cd 0.50805 0.27515 0.10977 0.0
Cd2 Cd 0.38187 0.2313 0.04679 0.0
O3 O 0.41052 0.38481 0.05691 0.0
O4 O 0.5886 0.30572 0.15887 0.0
O5 O 0.4141 0.21445 0.15696 0.0
C6 C 0.50012 0.25623 0.17694 0.0
C7 C 0.23262 0.06661 0.03668 0.0
C8 C 0.49868 0.45374 0.07164 0.0
C9 C 0.56849 0.20278 0.04184 0.0
O10 O 0.50885 0.22811 1.02392 0.0
O11 O 0.56762 0.19865 0.07836 0.0
O12 O 0.26618 0.13819 1.01007 0.0
O13 O 0.27406 0.0943 0.07072 0.0
O14 O 0.13878 0.54914 0.42413 0.0
Cd15 Cd 0.24295 0.50302 0.44311 0.0
Cd16 Cd 0.16061 0.37683 0.38013 0.0
O17 O 0.03574 0.40548 0.39025 0.0
O18 O 0.29292 0.58357 0.49221 0.0
O19 O 0.20969 0.40906 0.49029 0.0
C20 C 0.25393 0.49509 0.51028 0.0
C21 C 0.17605 0.22758 0.37001 0.0
C22 C 0.05498 0.49365 0.40498 0.0
C23 C 0.37575 0.56346 0.37517 0.0
O24 O 0.29078 0.50381 0.35725 0.0
O25 O 0.37901 0.56258 0.4117 0.0
O26 O 0.13803 0.26115 0.34341 0.0
O27 O 0.18981 0.26903 0.40406 0.0
O28 O 0.59969 0.13374 0.75747 0.0
Cd29 Cd 0.74998 0.23791 0.77644 0.0
Cd30 Cd 0.79382 0.15557 0.71346 0.0
O31 O 0.64031 0.0307 0.72358 0.0
O32 O 0.7194 0.28788 0.82554 0.0
O33 O 0.81067 0.20465 0.82363 0.0
C34 C 0.76889 0.24889 0.84361 0.0
C35 C 0.95851 0.17101 0.70335 0.0
C36 C 0.57138 0.04995 0.73831 0.0
C37 C 0.82234 0.37072 0.70851 0.0
O38 O 0.79701 0.28574 0.69059 0.0
O39 O 0.82647 0.37397 0.74503 0.0
O40 O 0.88693 0.133 0.67674 0.0
O41 O 0.93082 0.18477 0.73739 0.0
O42 O 0.47599 0.59466 0.0908 0.0
Cd43 Cd 0.52211 0.74494 0.10977 0.0
Cd44 Cd 0.64829 0.78878 0.04679 0.0
O45 O 0.61964 0.63527 0.05691 0.0
O46 O 0.44156 0.71437 0.15887 0.0
O47 O 0.61607 0.80564 0.15696 0.0
C48 C 0.53004 0.76386 0.17694 0.0
C49 C 0.79755 0.95347 0.03668 0.0
C50 C 0.53147 0.56635 0.07164 0.0
C51 C 0.46167 0.81731 0.04184 0.0
O52 O 0.52131 0.79197 1.02392 0.0
O53 O 0.46254 0.82144 0.07836 0.0
O54 O 0.76398 0.88189 1.01007 0.0
O55 O 0.7561 0.92578 0.07072 0.0
O56 O 0.89137 0.47095 0.42413 0.0
Cd57 Cd 0.78721 0.51708 0.44311 0.0
Cd58 Cd 0.86956 0.64326 0.38013 0.0
O59 O 0.99442 0.61461 0.39024 0.0
O60 O 0.73723 0.43652 0.49221 0.0
O61 O 0.82047 0.61103 0.4903 0.0
C62 C 0.77622 0.52501 0.51028 0.0
C63 C 0.85411 0.79251 0.37001 0.0
C64 C 0.97517 0.52644 0.40498 0.0
C65 C 0.65441 0.45664 0.37517 0.0
O66 O 0.73939 0.51628 0.35725 0.0
O67 O 0.65115 0.45751 0.4117 0.0
O68 O 0.89213 0.75895 0.34341 0.0
O69 O 0.84036 0.75106 0.40406 0.0
O70 O 0.43046 0.88633 0.75747 0.0
Cd71 Cd 0.28018 0.78217 0.77644 0.0
Cd72 Cd 0.23634 0.86452 0.71346 0.0
O73 O 0.38986 0.98938 0.72358 0.0
O74 O 0.31075 0.73219 0.82554 0.0
O75 O 0.21949 0.81544 0.82363 0.0
C76 C 0.26126 0.77119 0.84361 0.0
C77 C 0.07165 0.84908 0.70335 0.0
C78 C 0.45877 0.97013 0.73831 0.0
C79 C 0.20781 0.64937 0.70851 0.0
O80 O 0.23315 0.73435 0.69059 0.0
O81 O 0.20368 0.64611 0.74503 0.0
O82 O 0.14323 0.88709 0.67674 0.0
O83 O 0.09934 0.83532 0.73739 0.0
O84 O 0.5997 0.47096 0.6386 0.0
Cd85 Cd 0.74998 0.51708 0.61963 0.0
Cd86 Cd 0.79382 0.64327 0.68261 0.0
O87 O 0.64031 0.61462 0.67249 0.0
O88 O 0.71941 0.43652 0.57053 0.0
O89 O 0.81068 0.61103 0.57244 0.0
C90 C 0.7689 0.52501 0.55246 0.0
C91 C 0.95849 0.79249 0.69272 0.0
C92 C 0.57138 0.52645 0.65776 0.0
C93 C 0.82237 0.45667 0.68757 0.0
O94 O 0.79701 0.5163 0.70549 0.0
O95 O 0.82648 0.45752 0.65104 0.0
O96 O 0.88692 0.75896 0.71934 0.0
O97 O 0.93082 0.75106 0.65868 0.0
O98 O 0.13879 0.59466 0.97194 0.0
Cd99 Cd 0.24295 0.74495 0.95296 0.0
Cd100 Cd 0.16059 0.78878 1.01594 0.0
O101 O 0.03573 0.63527 1.00582 0.0
O102 O 0.29293 0.71438 0.90386 0.0
O103 O 0.20969 0.80564 0.90577 0.0
C104 C 0.25394 0.76386 0.88579 0.0
C105 C 0.17604 0.95345 1.02605 0.0
C106 C 0.05498 0.56635 0.99109 0.0
C107 C 0.37574 0.81733 1.0209 0.0
O108 O 0.29076 0.79197 0.03882 0.0
O109 O 0.37901 0.82145 0.98438 0.0
O110 O 0.138 0.88188 0.05267 0.0
O111 O 0.18981 0.92578 0.99201 0.0
O112 O 0.55417 0.13375 0.30527 0.0
Cd113 Cd 0.50805 0.23792 0.28629 0.0
Cd114 Cd 0.38185 0.15556 0.34928 0.0
O115 O 0.41051 0.0307 0.33916 0.0
O116 O 0.58861 0.2879 0.2372 0.0
O117 O 0.4141 0.20466 0.23911 0.0
C118 C 0.50012 0.24891 0.21912 0.0
C119 C 0.23264 0.17101 0.35939 0.0
C120 C 0.49868 0.04995 0.32442 0.0
C121 C 0.56845 0.37071 0.35423 0.0
O122 O 0.50883 0.28573 0.37215 0.0
O123 O 0.56761 0.37398 0.31771 0.0
O124 O 0.26616 0.13297 0.386 0.0
O125 O 0.27407 0.18477 0.32534 0.0
O126 O 0.43046 0.54914 0.6386 0.0
Cd127 Cd 0.28018 0.50301 0.61963 0.0
Cd128 Cd 0.23634 0.37681 0.68262 0.0
O129 O 0.38986 0.40548 0.67249 0.0
O130 O 0.31074 0.58357 0.57053 0.0
O131 O 0.21948 0.40906 0.57244 0.0
C132 C 0.26126 0.49509 0.55246 0.0
C133 C 0.07167 0.2276 0.69272 0.0
C134 C 0.45877 0.49365 0.65776 0.0
C135 C 0.20779 0.56341 0.68757 0.0
O136 O 0.23314 0.50379 0.70549 0.0
O137 O 0.20367 0.56257 0.65104 0.0
O138 O 0.14324 0.26113 0.71934 0.0
O139 O 0.09934 0.26903 0.65868 0.0
O140 O 0.89137 0.42542 0.97193 0.0
Cd141 Cd 0.78721 0.27514 0.95296 0.0
Cd142 Cd 0.86957 0.2313 1.01595 0.0
O143 O 0.99443 0.38482 1.00582 0.0
O144 O 0.73722 0.3057 0.90386 0.0
O145 O 0.82047 0.21444 0.90577 0.0
C146 C 0.77622 0.25622 0.88579 0.0
C147 C 0.85412 0.06663 1.02605 0.0
C148 C 0.97517 0.45374 0.99109 0.0
C149 C 0.65442 0.20275 1.0209 0.0
O150 O 0.7394 0.22811 0.03882 0.0
O151 O 0.65115 0.19863 0.98438 0.0
O152 O 0.89216 0.1382 0.05267 0.0
O153 O 0.84036 0.09431 0.99201 0.0
O154 O 0.47599 0.88634 0.30527 0.0
Cd155 Cd 0.52211 0.78217 0.28629 0.0
Cd156 Cd 0.64831 0.86454 0.34928 0.0
O157 O 0.61965 0.98939 0.33916 0.0
O158 O 0.44156 0.73219 0.2372 0.0
O159 O 0.61607 0.81543 0.23911 0.0
C160 C 0.53004 0.77118 0.21912 0.0
C161 C 0.79753 0.84908 0.35939 0.0
C162 C 0.53147 0.97013 0.32442 0.0
C163 C 0.46171 0.64939 0.35423 0.0
O164 O 0.52133 0.73437 0.37215 0.0
O165 O 0.46255 0.64612 0.31771 0.0
O166 O 0.764 0.88712 0.386 0.0
O167 O 0.7561 0.83532 0.32534 0.0
loop_
_geom_bond_atom_site_label_1
_geom_bond_atom_site_label_2
_geom_bond_distance
_geom_bond_site_symmetry_2
_ccdc_geom_bond_type
O0 Cd1 2.223 . S
O0 C8 1.315 . S
Cd1 O0 2.223 . S
Cd1 O4 2.297 . S
Cd1 O5 2.439 . S
Cd1 O11 2.240 . S
Cd2 O3 2.240 . S
Cd2 O10 2.223 1_554 S
Cd2 O12 2.297 1_554 S
Cd2 O13 2.439 . S
O3 Cd2 2.240 . S
O3 C8 1.279 . S
O4 Cd1 2.297 . S
O4 C6 1.247 . S
O5 Cd1 2.439 . S
O5 C6 1.208 . S
C6 O4 1.247 . S
C6 O5 1.208 . S
C7 O12 1.247 1_554 S
C7 O13 1.208 . S
C8 O0 1.315 . S
C8 O3 1.279 . S
C9 O10 1.297 1_554 S
C9 O11 1.307 . S
O10 Cd2 2.223 1_556 S
O10 C9 1.297 1_556 S
O11 Cd1 2.240 . S
O11 C9 1.307 . S
O12 Cd2 2.297 1_556 S
O12 C7 1.247 1_556 S
O13 Cd2 2.439 . S
O13 C7 1.208 . S
O14 Cd15 2.223 . S
O14 C22 1.315 . S
Cd15 O14 2.223 . S
Cd15 O18 2.297 . S
Cd15 O19 2.439 . S
Cd15 O25 2.240 . S
Cd16 O17 2.240 . S
Cd16 O24 2.223 . S
Cd16 O26 2.297 . S
Cd16 O27 2.439 . S
O17 Cd16 2.240 . S
O17 C22 1.279 . S
O18 Cd15 2.297 . S
O18 C20 1.247 . S
O19 Cd15 2.439 . S
O19 C20 1.208 . S
C20 O18 1.247 . S
C20 O19 1.208 . S
C21 O26 1.247 . S
C21 O27 1.208 . S
C22 O14 1.315 . S
C22 O17 1.279 . S
C23 O24 1.315 . S
C23 O25 1.279 . S
O24 Cd16 2.223 . S
O24 C23 1.315 . S
O25 Cd15 2.240 . S
O25 C23 1.279 . S
O26 Cd16 2.297 . S
O26 C21 1.247 . S
O27 Cd16 2.439 . S
O27 C21 1.208 . S
O28 Cd29 2.223 . S
O28 C36 1.315 . S
Cd29 O28 2.223 . S
Cd29 O32 2.297 . S
Cd29 O33 2.439 . S
Cd29 O39 2.240 . S
Cd30 O31 2.240 . S
Cd30 O38 2.223 . S
Cd30 O40 2.297 . S
Cd30 O41 2.439 . S
O31 Cd30 2.240 . S
O31 C36 1.279 . S
O32 Cd29 2.297 . S
O32 C34 1.247 . S
O33 Cd29 2.439 . S
O33 C34 1.208 . S
C34 O32 1.247 . S
C34 O33 1.208 . S
C35 O40 1.247 . S
C35 O41 1.208 . S
C36 O28 1.315 . S
C36 O31 1.279 . S
C37 O38 1.315 . S
C37 O39 1.279 . S
O38 Cd30 2.223 . S
O38 C37 1.315 . S
O39 Cd29 2.240 . S
O39 C37 1.279 . S
O40 Cd30 2.297 . S
O40 C35 1.247 . S
O41 Cd30 2.439 . S
O41 C35 1.208 . S
O42 Cd43 2.223 . S
O42 C50 1.315 . S
Cd43 O42 2.223 . S
Cd43 O46 2.297 . S
Cd43 O47 2.439 . S
Cd43 O53 2.240 . S
Cd44 O45 2.240 . S
Cd44 O52 2.223 1_554 S
Cd44 O54 2.297 1_554 S
Cd44 O55 2.439 . S
O45 Cd44 2.240 . S
O45 C50 1.279 . S
O46 Cd43 2.297 . S
O46 C48 1.247 . S
O47 Cd43 2.439 . S
O47 C48 1.208 . S
C48 O46 1.247 . S
C48 O47 1.208 . S
C49 O54 1.247 1_554 S
C49 O55 1.208 . S
C50 O42 1.315 . S
C50 O45 1.279 . S
C51 O52 1.297 1_554 S
C51 O53 1.307 . S
O52 Cd44 2.223 1_556 S
O52 C51 1.297 1_556 S
O53 Cd43 2.240 . S
O53 C51 1.307 . S
O54 Cd44 2.297 1_556 S
O54 C49 1.247 1_556 S
O55 Cd44 2.439 . S
O55 C49 1.208 . S
O56 Cd57 2.223 . S
O56 C64 1.315 . S
Cd57 O56 2.223 . S
Cd57 O60 2.297 . S
Cd57 O61 2.439 . S
Cd57 O67 2.240 . S
Cd58 O59 2.240 . S
Cd58 O66 2.223 . S
Cd58 O68 2.297 . S
Cd58 O69 2.439 . S
O59 Cd58 2.240 . S
O59 C64 1.279 . S
O60 Cd57 2.297 . S
O60 C62 1.247 . S
O61 Cd57 2.439 . S
O61 C62 1.208 . S
C62 O60 1.247 . S
C62 O61 1.208 . S
C63 O68 1.247 . S
C63 O69 1.208 . S
C64 O56 1.315 . S
C64 O59 1.279 . S
C65 O66 1.315 . S
C65 O67 1.279 . S
O66 Cd58 2.223 . S
O66 C65 1.315 . S
O67 Cd57 2.240 . S
O67 C65 1.279 . S
O68 Cd58 2.297 . S
O68 C63 1.247 . S
O69 Cd58 2.439 . S
O69 C63 1.208 . S
O70 Cd71 2.223 . S
O70 C78 1.315 . S
Cd71 O70 2.223 . S
Cd71 O74 2.297 . S
Cd71 O75 2.439 . S
Cd71 O81 2.240 . S
Cd72 O73 2.240 . S
Cd72 O80 2.223 . S
Cd72 O82 2.297 . S
Cd72 O83 2.439 . S
O73 Cd72 2.240 . S
O73 C78 1.279 . S
O74 Cd71 2.297 . S
O74 C76 1.247 . S
O75 Cd71 2.439 . S
O75 C76 1.208 . S
C76 O74 1.247 . S
C76 O75 1.208 . S
C77 O82 1.247 . S
C77 O83 1.208 . S
C78 O70 1.315 . S
C78 O73 1.279 . S
C79 O80 1.315 . S
C79 O81 1.279 . S
O80 Cd72 2.223 . S
O80 C79 1.315 . S
O81 Cd71 2.240 . S
O81 C79 1.279 . S
O82 Cd72 2.297 . S
O82 C77 1.247 . S
O83 Cd72 2.439 . S
O83 C77 1.208 . S
O84 Cd85 2.223 . S
O84 C92 1.315 . S
Cd85 O84 2.223 . S
Cd85 O88 2.297 . S
Cd85 O89 2.439 . S
Cd85 O95 2.240 . S
Cd86 O87 2.240 . S
Cd86 O94 2.223 . S
Cd86 O96 2.297 . S
Cd86 O97 2.439 . S
O87 Cd86 2.240 . S
O87 C92 1.279 . S
O88 Cd85 2.297 . S
O88 C90 1.247 . S
O89 Cd85 2.439 . S
O89 C90 1.208 . S
C90 O88 1.247 . S
C90 O89 1.208 . S
C91 O96 1.247 . S
C91 O97 1.208 . S
C92 O84 1.315 . S
C92 O87 1.279 . S
C93 O94 1.315 . S
C93 O95 1.279 . S
O94 Cd86 2.223 . S
O94 C93 1.315 . S
O95 Cd85 2.240 . S
O95 C93 1.279 . S
O96 Cd86 2.297 . S
O96 C91 1.247 . S
O97 Cd86 2.439 . S
O97 C91 1.208 . S
O98 Cd99 2.223 . S
O98 C106 1.315 . S
Cd99 O98 2.223 . S
Cd99 O102 2.297 . S
Cd99 O103 2.439 . S
Cd99 O109 2.240 . S
Cd100 O101 2.240 . S
Cd100 O108 2.223 1_556 S
Cd100 O110 2.297 1_556 S
Cd100 O111 2.439 . S
O101 Cd100 2.240 . S
O101 C106 1.279 . S
O102 Cd99 2.297 . S
O102 C104 1.247 . S
O103 Cd99 2.439 . S
O103 C104 1.208 . S
C104 O102 1.247 . S
C104 O103 1.208 . S
C105 O110 1.247 1_556 S
C105 O111 1.208 . S
C106 O98 1.315 . S
C106 O101 1.279 . S
C107 O108 1.296 1_556 S
C107 O109 1.307 . S
O108 Cd100 2.223 1_554 S
O108 C107 1.296 1_554 S
O109 Cd99 2.240 . S
O109 C107 1.307 . S
O110 Cd100 2.297 1_554 S
O110 C105 1.247 1_554 S
O111 Cd100 2.439 . S
O111 C105 1.208 . S
O112 Cd113 2.223 . S
O112 C120 1.315 . S
Cd113 O112 2.223 . S
Cd113 O116 2.297 . S
Cd113 O117 2.439 . S
Cd113 O123 2.240 . S
Cd114 O115 2.240 . S
Cd114 O122 2.223 . S
Cd114 O124 2.297 . S
Cd114 O125 2.439 . S
O115 Cd114 2.240 . S
O115 C120 1.279 . S
O116 Cd113 2.297 . S
O116 C118 1.247 . S
O117 Cd113 2.439 . S
O117 C118 1.208 . S
C118 O116 1.247 . S
C118 O117 1.208 . S
C119 O124 1.247 . S
C119 O125 1.208 . S
C120 O112 1.315 . S
C120 O115 1.279 . S
C121 O122 1.315 . S
C121 O123 1.279 . S
O122 Cd114 2.223 . S
O122 C121 1.315 . S
O123 Cd113 2.240 . S
O123 C121 1.279 . S
O124 Cd114 2.297 . S
O124 C119 1.247 . S
O125 Cd114 2.439 . S
O125 C119 1.208 . S
O126 Cd127 2.223 . S
O126 C134 1.315 . S
Cd127 O126 2.223 . S
Cd127 O130 2.297 . S
Cd127 O131 2.439 . S
Cd127 O137 2.240 . S
Cd128 O129 2.240 . S
Cd128 O136 2.223 . S
Cd128 O138 2.297 . S
Cd128 O139 2.439 . S
O129 Cd128 2.240 . S
O129 C134 1.279 . S
O130 Cd127 2.297 . S
O130 C132 1.247 . S
O131 Cd127 2.439 . S
O131 C132 1.208 . S
C132 O130 1.247 . S
C132 O131 1.208 . S
C133 O138 1.247 . S
C133 O139 1.208 . S
C134 O126 1.315 . S
C134 O129 1.279 . S
C135 O136 1.315 . S
C135 O137 1.279 . S
O136 Cd128 2.223 . S
O136 C135 1.315 . S
O137 Cd127 2.240 . S
O137 C135 1.279 . S
O138 Cd128 2.297 . S
O138 C133 1.247 . S
O139 Cd128 2.439 . S
O139 C133 1.208 . S
O140 Cd141 2.223 . S
O140 C148 1.315 . S
Cd141 O140 2.223 . S
Cd141 O144 2.297 . S
Cd141 O145 2.439 . S
Cd141 O151 2.240 . S
Cd142 O143 2.240 . S
Cd142 O150 2.223 1_556 S
Cd142 O152 2.297 1_556 S
Cd142 O153 2.439 . S
O143 Cd142 2.240 . S
O143 C148 1.279 . S
O144 Cd141 2.297 . S
O144 C146 1.247 . S
O145 Cd141 2.439 . S
O145 C146 1.208 . S
C146 O144 1.247 . S
C146 O145 1.208 . S
C147 O152 1.247 1_556 S
C147 O153 1.208 . S
C148 O140 1.315 . S
C148 O143 1.279 . S
C149 O150 1.296 1_556 S
C149 O151 1.307 . S
O150 Cd142 2.223 1_554 S
O150 C149 1.296 1_554 S
O151 Cd141 2.240 . S
O151 C149 1.307 . S
O152 Cd142 2.297 1_554 S
O152 C147 1.247 1_554 S
O153 Cd142 2.439 . S
O153 C147 1.208 . S
O154 Cd155 2.223 . S
O154 C162 1.315 . S
Cd155 O154 2.223 . S
Cd155 O158 2.297 . S
Cd155 O159 2.439 . S
Cd155 O165 2.240 . S
Cd156 O157 2.240 . S
Cd156 O164 2.223 . S
Cd156 O166 2.297 . S
Cd156 O167 2.439 . S
O157 Cd156 2.240 . S
O157 C162 1.279 . S
O158 Cd155 2.297 . S
O158 C160 1.247 . S
O159 Cd155 2.439 . S
O159 C160 1.208 . S
C160 O158 1.247 . S
C160 O159 1.208 . S
C161 O166 1.247 . S
C161 O167 1.208 . S
C162 O154 1.315 . S
C162 O157 1.279 . S
C163 O164 1.315 . S
C163 O165 1.279 . S
O164 Cd156 2.223 . S
O164 C163 1.315 . S
O165 Cd155 2.240 . S
O165 C163 1.279 . S
O166 Cd156 2.297 . S
O166 C161 1.247 . S
O167 Cd156 2.439 . S
O167 C161 1.208 . S
C105 C7 1.243 1_566 S
C21 C119 1.243 . S
C35 C133 1.244 1_655 S
C49 C147 1.243 1_564 S
C161 C63 1.243 . S
C91 C77 1.244 1_655 S
C149 C9 1.987 1_556 S
C23 C163 1.988 . S
C37 C93 1.988 . S
C107 C51 1.987 1_556 S
C121 C65 1.988 . S
C135 C79 1.988 . S
C6 C118 1.935 . S
C20 C132 1.935 . S
C146 C34 1.935 . S
C48 C160 1.935 . S
C90 C62 1.935 . S
C104 C76 1.935 . S
C50 C8 1.326 . S
C64 C22 1.326 1_655 S
C36 C78 1.326 1_545 S
C92 C134 1.326 . S
C106 C148 1.326 1_455 S
C162 C120 1.326 1_565 S
