# Generated by pormake.
# Topology sxc, (6)-cn, num edge types: 1
# Building blocks:
#     Node 0, Type 0, BuildingBlock: UKALOJ_clean_sbu_0, # of connection points: 6
#     Node 1, Type 0, BuildingBlock: UKALOJ_clean_sbu_0, # of connection points: 6
#     Node 2, Type 0, BuildingBlock: UKALOJ_clean_sbu_0, # of connection points: 6
#     Edge 3, Type (0, 0), BuildingBlock: OJICUG_clean_linker_0, # of connection points: 2
#     Edge 4, Type (0, 0), BuildingBlock: OJICUG_clean_linker_0, # of connection points: 2
#     Edge 5, Type (0, 0), BuildingBlock: OJICUG_clean_linker_0, # of connection points: 2
#     Edge 6, Type (0, 0), BuildingBlock: OJICUG_clean_linker_0, # of connection points: 2
#     Edge 7, Type (0, 0), BuildingBlock: OJICUG_clean_linker_0, # of connection points: 2
#     Edge 8, Type (0, 0), BuildingBlock: OJICUG_clean_linker_0, # of connection points: 2
#     Edge 9, Type (0, 0), BuildingBlock: OJICUG_clean_linker_0, # of connection points: 2
#     Edge 10, Type (0, 0), BuildingBlock: OJICUG_clean_linker_0, # of connection points: 2
#     Edge 11, Type (0, 0), BuildingBlock: OJICUG_clean_linker_0, # of connection points: 2
# Relax obj value: 0.103
# Max RMSD: 0.184
# Mean RMSD: 0.184
data_MOF--net-sxc--node1-UKALOJ_clean_sbu_0--edge1-OJICUG_clean_linker_0
_symmetry_space_group_name_H-M    P1
_symmetry_Int_Tables_number       1
_symmetry_cell_setting            triclinic
loop_
_symmetry_equiv_pos_as_xyz
'x, y, z'
_cell_length_a     11.081082
_cell_length_b     11.078693
_cell_length_c     47.932876
_cell_angle_alpha  88.669187
_cell_angle_beta   90.688064
_cell_angle_gamma 120.00373
loop_
_atom_site_label
_atom_site_type_symbol
_atom_site_fract_x
_atom_site_fract_y
_atom_site_fract_z
_atom_type_partial_charge
Zn0 Zn -0.03991 0.06485 1.01472 0.0
O1 O 0.01281 0.90525 1.01411 0.0
C2 C 0.68936 0.84808 0.03693 0.0
Zn3 Zn -0.03856 0.06183 0.06138 0.0
C4 C 0.01721 0.84808 0.03717 0.0
O5 O 0.01013 0.90085 0.05993 0.0
C6 C 0.90508 0.27876 0.03943 0.0
O7 O 0.17387 0.22112 0.06168 0.0
O8 O 0.1702 0.22594 1.01587 0.0
N9 N -0.04812 0.04202 0.10432 0.0
C10 C 0.0239 0.12807 0.1253 0.0
C11 C 0.87596 0.93348 0.14392 0.0
N12 N 0.8598 0.92144 0.11603 0.0
N13 N -0.02128 0.06212 0.15028 0.0
C14 C 0.9415 -0.00324 0.95078 0.0
C15 C -0.01241 0.19206 0.93229 0.0
N16 N -0.03664 0.0843 0.97183 0.0
N17 N -0.00835 0.20536 0.9602 0.0
N18 N -0.04327 0.06218 0.92582 0.0
H19 H 0.8363 0.80233 0.97397 0.0
H20 H -0.00683 0.83665 0.95617 0.0
H21 H 0.83605 0.785 0.93654 0.0
C22 C 0.89829 0.84605 0.95463 0.0
C23 C 0.13309 0.27797 0.12143 0.0
H24 H 0.11107 0.32371 0.10259 0.0
H25 H 0.23558 0.28461 0.11894 0.0
H26 H 0.13844 0.33887 0.13993 0.0
O27 O 0.91268 0.2231 0.06239 0.0
O28 O 0.90837 0.22421 1.01662 0.0
C29 C 0.23274 0.27851 0.03862 0.0
O30 O 0.74997 0.90401 1.01398 0.0
O31 O 0.74985 0.90234 0.05975 0.0
Zn32 Zn 0.22283 0.23551 0.34878 0.0
O33 O 0.01175 0.18483 0.34891 0.0
C34 C 0.27852 0.5042 0.37256 0.0
Zn35 Zn 0.22264 0.2303 0.39529 0.0
C36 C -0.04813 0.1784 0.37183 0.0
O37 O 0.01311 0.18324 0.39474 0.0
C38 C 0.49394 0.28838 0.37215 0.0
O39 O 0.17175 0.01955 0.39445 0.0
O40 O 0.17529 0.02545 0.34862 0.0
N41 N 0.22653 0.22661 0.43814 0.0
C42 C 0.14547 0.13 0.45747 0.0
C43 C 0.30457 0.3029 0.47923 0.0
N44 N 0.32531 0.33369 0.45175 0.0
N45 N 0.19278 0.17519 0.48355 0.0
C46 C 0.13884 0.17508 0.28577 0.0
C47 C 0.31849 0.33975 0.26582 0.0
N48 N 0.2298 0.24988 0.30601 0.0
N49 N 0.34107 0.3521 0.29352 0.0
N50 N 0.19197 0.22992 0.26023 0.0
H51 H 0.00186 -0.00189 0.31184 0.0
H52 H -0.02183 -0.03162 0.27474 0.0
H53 H 0.91831 0.07302 0.29153 0.0
C54 C 0.00185 0.04561 0.29128 0.0
C55 C 0.01728 -0.00486 0.45059 0.0
H56 H -0.02382 0.00075 0.42977 0.0
H57 H 0.93509 -0.03235 0.46648 0.0
H58 H 0.04399 0.91113 0.45024 0.0
O59 O 0.43274 0.27888 0.39503 0.0
O60 O 0.43388 0.2866 0.34928 0.0
C61 C 0.16785 0.9619 0.37155 0.0
O62 O 0.27169 0.44528 0.3497 0.0
O63 O 0.274 0.4418 0.39546 0.0
Zn64 Zn -0.0424 0.8791 0.72619 0.0
O65 O 0.79674 0.92964 0.7268 0.0
C66 C 0.74266 0.61174 0.70258 0.0
Zn67 Zn -0.04123 0.88727 0.6796 0.0
C68 C 0.74233 0.9384 0.70385 0.0
O69 O 0.79776 0.93578 0.68096 0.0
C70 C 0.17397 0.8279 0.70188 0.0
O71 O 0.11737 0.0996 0.68052 0.0
O72 O 0.12042 0.08912 0.72633 0.0
N73 N -0.05002 0.88952 0.63657 0.0
C74 C 0.0436 -0.03532 0.61645 0.0
C75 C 0.85204 0.82966 0.59606 0.0
N76 N 0.83129 0.8054 0.62376 0.0
N77 N -0.01557 0.92961 0.59094 0.0
C78 C -0.04987 0.93983 0.78962 0.0
C79 C -0.03271 0.77335 0.80866 0.0
N80 N -0.04143 0.86385 0.76892 0.0
N81 N -0.03112 0.76045 0.78085 0.0
N82 N -0.045 0.88475 0.81491 0.0
H83 H -0.01748 0.11592 0.76377 0.0
H84 H 0.005 0.14856 0.80079 0.0
H85 H 0.83332 0.04518 0.78606 0.0
C86 C 0.94345 0.07049 0.78477 0.0
C87 C 0.19406 0.06723 0.62155 0.0
H88 H 0.23092 0.04178 0.64119 0.0
H89 H 0.20665 0.17258 0.62293 0.0
H90 H 0.25889 0.0687 0.60393 0.0
O91 O 0.12056 0.83851 0.67896 0.0
O92 O 0.11722 0.82818 0.72475 0.0
C93 C 0.17371 0.15511 0.70358 0.0
O94 O 0.79689 0.66952 0.7255 0.0
O95 O 0.79845 0.6752 0.67978 0.0
C96 C 0.94461 0.49329 0.06389 0.0
C97 C 0.92355 0.4209 0.03896 0.0
H98 H -0.00508 0.68568 0.0829 0.0
C99 C 0.94152 0.49309 1.01341 0.0
H100 H 0.93431 0.44188 0.08394 0.0
C101 C -0.02054 0.63393 1.0128 0.0
C102 C -0.00027 0.70623 0.0377 0.0
H103 H 0.92877 0.44158 0.99377 0.0
H104 H -0.00935 0.68525 0.99276 0.0
C105 C -0.01792 0.63409 0.06326 0.0
C106 C 0.67068 0.24809 0.39724 0.0
C107 C 0.61796 0.27068 0.37205 0.0
H108 H 0.8137 0.19658 0.41696 0.0
C109 C 0.67137 0.25525 0.34674 0.0
H110 H 0.63045 0.25672 0.41713 0.0
C111 C 0.77487 0.21817 0.34664 0.0
C112 C 0.82768 0.19576 0.37184 0.0
H113 H 0.63164 0.26953 0.32693 0.0
H114 H 0.81516 0.20951 0.32676 0.0
C115 C 0.77412 0.211 0.39714 0.0
C116 C 0.52076 0.45055 0.67794 0.0
C117 C 0.60056 0.4883 0.70256 0.0
H118 H 0.32195 0.32184 0.65922 0.0
C119 C 0.53579 0.42101 0.72779 0.0
H120 H 0.56607 0.50258 0.65823 0.0
C121 C 0.39506 0.31776 0.72835 0.0
C122 C 0.31539 0.2795 0.70369 0.0
H123 H 0.59343 0.44914 0.74723 0.0
H124 H 0.34962 0.26601 0.74807 0.0
C125 C 0.37988 0.34805 0.67855 0.0
C126 C 0.5326 0.91133 0.67798 0.0
C127 C 0.6007 0.92107 0.70351 0.0
H128 H 0.34382 0.87012 0.65734 0.0
C129 C 0.52467 0.89311 0.72841 0.0
H130 H 0.58723 0.93016 0.65836 0.0
C131 C 0.38404 0.8559 0.72779 0.0
C132 C 0.31589 0.84593 0.70225 0.0
H133 H 0.57298 0.89736 0.74843 0.0
H134 H 0.32939 0.83708 0.74741 0.0
C135 C 0.39203 0.87423 0.67736 0.0
C136 C 0.5103 0.63509 1.01228 0.0
C137 C 0.56584 0.70588 0.03731 0.0
H138 H 0.36496 0.44395 0.993 0.0
C139 C 0.51605 0.632 0.06275 0.0
H140 H 0.54792 0.68784 0.99228 0.0
C141 C 0.4134 0.49113 0.06315 0.0
C142 C 0.35703 0.42043 0.03816 0.0
H143 H 0.55822 0.68219 0.08245 0.0
H144 H 0.37697 0.4385 0.08311 0.0
C145 C 0.40712 0.49424 1.0127 0.0
C146 C 0.23861 0.67761 0.3975 0.0
C147 C 0.26074 0.62823 0.37241 0.0
H148 H 0.18729 0.81807 0.41693 0.0
C149 C 0.24465 0.6849 0.34701 0.0
H150 H 0.24766 0.63472 0.41744 0.0
C151 C 0.20735 0.78824 0.3467 0.0
C152 C 0.18538 0.83775 0.37178 0.0
H153 H 0.25865 0.64789 0.32726 0.0
H154 H 0.19817 0.83099 0.32675 0.0
C155 C 0.20131 0.78101 0.39719 0.0
C156 C -0.00697 0.12931 0.22687 0.0
C157 C 0.13591 0.18593 0.23258 0.0
H158 H 0.83105 0.04416 0.19591 0.0
C159 C 0.22643 0.20602 0.21036 0.0
H160 H 0.92106 0.11831 0.24306 0.0
C161 C 0.17531 0.16802 0.18328 0.0
C162 C 0.03248 0.10901 0.17779 0.0
H163 H 0.33704 0.24998 0.21404 0.0
H164 H 0.24685 0.18166 0.16671 0.0
C165 C 0.94162 0.08911 0.19981 0.0
C166 C 0.15262 0.19504 0.53332 0.0
C167 C 0.13948 0.11112 0.51059 0.0
H168 H 0.11273 0.20243 0.57675 0.0
C169 C 0.07938 -0.03357 0.5152 0.0
H170 H 0.19906 0.30678 0.53051 0.0
C171 C 0.02856 0.90692 0.54161 0.0
C172 C 0.04129 -0.00876 0.56411 0.0
H173 H 0.07355 0.89915 0.49867 0.0
H174 H -0.019 0.79517 0.54465 0.0
C175 C 0.10419 0.13579 0.55978 0.0
C176 C 0.87401 -0.00846 0.84985 0.0
C177 C -0.04553 0.93077 0.84284 0.0
H178 H 0.81326 0.08235 0.88204 0.0
C179 C 0.03096 0.909 0.86405 0.0
H180 H 0.80863 0.00399 0.83453 0.0
C181 C 0.02949 0.94943 0.89138 0.0
C182 C -0.04839 0.01273 0.89814 0.0
H183 H 0.09343 0.86188 0.85937 0.0
H184 H 0.0918 0.93435 0.90714 0.0
C185 C 0.87453 0.03419 0.87715 0.0
loop_
_geom_bond_atom_site_label_1
_geom_bond_atom_site_label_2
_geom_bond_distance
_geom_bond_site_symmetry_2
_ccdc_geom_bond_type
Zn0 O1 2.055 1_545 S
Zn0 O8 2.046 . S
Zn0 N16 2.036 . S
Zn0 O28 2.053 1_455 S
Zn0 O30 2.066 1_445 S
O1 Zn0 2.055 1_565 S
O1 C4 1.259 1_556 S
C2 O30 1.256 1_554 S
C2 O31 1.244 . S
Zn3 O5 2.046 1_545 S
Zn3 O7 2.055 . S
Zn3 N9 2.036 1_455 S
Zn3 O27 2.066 1_455 S
Zn3 O31 2.053 1_445 S
C4 O1 1.259 1_554 S
C4 O5 1.254 . S
O5 Zn3 2.046 1_565 S
O5 C4 1.254 . S
C6 O27 1.256 . S
C6 O28 1.244 1_554 S
O7 Zn3 2.055 . S
O7 C29 1.259 . S
O8 Zn0 2.046 . S
O8 C29 1.254 1_556 S
N9 Zn3 2.036 1_655 S
N9 C10 1.298 1_655 S
N9 N12 1.398 1_545 S
C10 N9 1.298 1_455 S
C10 N13 1.367 1_455 S
C10 C23 1.481 . S
C11 N12 1.299 . S
C11 N13 1.379 1_565 S
N12 N9 1.398 1_565 S
N12 C11 1.299 . S
N13 C10 1.367 1_655 S
N13 C11 1.379 1_545 S
C14 N16 1.298 1_655 S
C14 N18 1.367 . S
C14 C22 1.481 1_545 S
C15 N17 1.299 1_655 S
C15 N18 1.379 . S
N16 Zn0 2.036 . S
N16 C14 1.298 1_455 S
N16 N17 1.398 . S
N17 C15 1.299 1_455 S
N17 N16 1.398 . S
N18 C14 1.367 . S
N18 C15 1.379 . S
H19 C22 0.980 1_455 S
H20 C22 0.981 . S
H21 C22 0.981 . S
C22 C14 1.481 1_565 S
C22 H19 0.980 1_655 S
C22 H20 0.981 . S
C22 H21 0.981 . S
C23 C10 1.481 . S
C23 H24 0.980 . S
C23 H25 0.981 . S
C23 H26 0.981 . S
H24 C23 0.980 . S
H25 C23 0.981 . S
H26 C23 0.981 . S
O27 Zn3 2.066 1_655 S
O27 C6 1.256 . S
O28 Zn0 2.053 1_655 S
O28 C6 1.244 1_556 S
C29 O7 1.259 . S
C29 O8 1.254 1_554 S
O30 Zn0 2.066 1_665 S
O30 C2 1.256 1_556 S
O31 C2 1.244 . S
O31 Zn3 2.053 1_665 S
Zn32 O33 2.055 1_455 S
Zn32 O40 2.046 1_545 S
Zn32 N48 2.036 . S
Zn32 O60 2.053 . S
Zn32 O62 2.066 . S
O33 Zn32 2.055 1_655 S
O33 C36 1.259 . S
C34 O62 1.256 . S
C34 O63 1.244 . S
Zn35 O37 2.046 1_455 S
Zn35 O39 2.055 1_545 S
Zn35 N41 2.036 . S
Zn35 O59 2.066 . S
Zn35 O63 2.053 . S
C36 O33 1.259 . S
C36 O37 1.254 . S
O37 Zn35 2.046 1_655 S
O37 C36 1.254 . S
C38 O59 1.256 . S
C38 O60 1.244 . S
O39 Zn35 2.055 1_565 S
O39 C61 1.259 . S
O40 Zn32 2.046 1_565 S
O40 C61 1.254 . S
N41 Zn35 2.036 . S
N41 C42 1.298 . S
N41 N44 1.398 . S
C42 N41 1.298 . S
C42 N45 1.367 . S
C42 C55 1.481 1_545 S
C43 N44 1.299 . S
C43 N45 1.379 . S
N44 N41 1.398 . S
N44 C43 1.299 . S
N45 C42 1.367 . S
N45 C43 1.379 . S
C46 N48 1.298 . S
C46 N50 1.367 . S
C46 C54 1.481 1_455 S
C47 N49 1.299 . S
C47 N50 1.379 . S
N48 Zn32 2.036 . S
N48 C46 1.298 . S
N48 N49 1.398 . S
N49 C47 1.299 . S
N49 N48 1.398 . S
N50 C46 1.367 . S
N50 C47 1.379 . S
H51 C54 0.980 . S
H52 C54 0.981 . S
H53 C54 0.981 1_455 S
C54 C46 1.481 1_655 S
C54 H51 0.980 . S
C54 H52 0.981 . S
C54 H53 0.981 1_655 S
C55 C42 1.481 1_565 S
C55 H56 0.980 . S
C55 H57 0.981 . S
C55 H58 0.981 1_565 S
H56 C55 0.980 . S
H57 C55 0.981 . S
H58 C55 0.981 1_545 S
O59 Zn35 2.066 . S
O59 C38 1.256 . S
O60 Zn32 2.053 . S
O60 C38 1.244 . S
C61 O39 1.259 . S
C61 O40 1.254 . S
O62 Zn32 2.066 . S
O62 C34 1.256 . S
O63 C34 1.244 . S
O63 Zn35 2.053 . S
Zn64 O65 2.055 1_455 S
Zn64 O72 2.046 . S
Zn64 N80 2.036 . S
Zn64 O92 2.053 1_545 S
Zn64 O94 2.066 1_445 S
O65 Zn64 2.055 1_655 S
O65 C68 1.259 . S
C66 O94 1.256 . S
C66 O95 1.244 . S
Zn67 O69 2.046 1_455 S
Zn67 O71 2.055 . S
Zn67 N73 2.036 1_545 S
Zn67 O91 2.066 1_545 S
Zn67 O95 2.053 1_445 S
C68 O65 1.259 . S
C68 O69 1.254 . S
O69 Zn67 2.046 1_655 S
O69 C68 1.254 . S
C70 O91 1.256 . S
C70 O92 1.244 . S
O71 Zn67 2.055 . S
O71 C93 1.259 . S
O72 Zn64 2.046 . S
O72 C93 1.254 . S
N73 Zn67 2.036 1_565 S
N73 C74 1.298 1_565 S
N73 N76 1.398 1_455 S
C74 N73 1.298 1_545 S
C74 N77 1.367 1_545 S
C74 C87 1.481 . S
C75 N76 1.299 . S
C75 N77 1.379 1_655 S
N76 N73 1.398 1_655 S
N76 C75 1.299 . S
N77 C74 1.367 1_565 S
N77 C75 1.379 1_455 S
C78 N80 1.298 1_565 S
C78 N82 1.367 . S
C78 C86 1.481 1_455 S
C79 N81 1.299 1_565 S
C79 N82 1.379 . S
N80 Zn64 2.036 . S
N80 C78 1.298 1_545 S
N80 N81 1.398 . S
N81 C79 1.299 1_545 S
N81 N80 1.398 . S
N82 C78 1.367 . S
N82 C79 1.379 . S
H83 C86 0.980 1_545 S
H84 C86 0.981 . S
H85 C86 0.981 . S
C86 C78 1.481 1_655 S
C86 H83 0.980 1_565 S
C86 H84 0.981 . S
C86 H85 0.981 . S
C87 C74 1.481 . S
C87 H88 0.980 . S
C87 H89 0.981 . S
C87 H90 0.981 . S
H88 C87 0.980 . S
H89 C87 0.981 . S
H90 C87 0.981 . S
O91 Zn67 2.066 1_565 S
O91 C70 1.256 . S
O92 Zn64 2.053 1_565 S
O92 C70 1.244 . S
C93 O71 1.259 . S
C93 O72 1.254 . S
O94 Zn64 2.066 1_665 S
O94 C66 1.256 . S
O95 C66 1.244 . S
O95 Zn67 2.053 1_665 S
C96 C97 1.387 . S
C96 H100 0.950 . S
C96 C105 1.390 1_655 S
C97 C96 1.387 . S
C97 C99 1.387 1_654 S
H98 C105 0.950 . S
C99 C97 1.387 1_456 S
C99 C101 1.390 . S
C99 H103 0.950 1_455 S
H100 C96 0.950 . S
C101 C99 1.390 . S
C101 C102 1.387 1_556 S
C101 H104 0.950 . S
C102 C101 1.387 1_554 S
C102 C105 1.387 . S
H103 C99 0.950 1_655 S
H104 C101 0.950 . S
C105 C96 1.390 1_455 S
C105 H98 0.950 . S
C105 C102 1.387 . S
C106 C107 1.387 . S
C106 H110 0.950 . S
C106 C115 1.390 . S
C107 C106 1.387 . S
C107 C109 1.387 . S
H108 C115 0.950 . S
C109 C107 1.387 . S
C109 C111 1.390 . S
C109 H113 0.950 . S
H110 C106 0.950 . S
C111 C109 1.390 . S
C111 C112 1.387 . S
C111 H114 0.950 . S
C112 C111 1.387 . S
C112 C115 1.387 . S
H113 C109 0.950 . S
H114 C111 0.950 . S
C115 C106 1.390 . S
C115 H108 0.950 . S
C115 C112 1.387 . S
C116 C117 1.387 . S
C116 H120 0.950 . S
C116 C125 1.390 . S
C117 C116 1.387 . S
C117 C119 1.387 . S
H118 C125 0.950 . S
C119 C117 1.387 . S
C119 C121 1.390 . S
C119 H123 0.950 . S
H120 C116 0.950 . S
C121 C119 1.390 . S
C121 C122 1.387 . S
C121 H124 0.950 . S
C122 C121 1.387 . S
C122 C125 1.387 . S
H123 C119 0.950 . S
H124 C121 0.950 . S
C125 C116 1.390 . S
C125 H118 0.950 . S
C125 C122 1.387 . S
C126 C127 1.387 . S
C126 H130 0.950 . S
C126 C135 1.390 . S
C127 C126 1.387 . S
C127 C129 1.387 . S
H128 C135 0.950 . S
C129 C127 1.387 . S
C129 C131 1.390 1_545 S
C129 H133 0.950 . S
H130 C126 0.950 . S
C131 C129 1.390 1_565 S
C131 C132 1.387 . S
C131 H134 0.950 . S
C132 C131 1.387 . S
C132 C135 1.387 1_565 S
H133 C129 0.950 . S
H134 C131 0.950 . S
C135 C126 1.390 . S
C135 H128 0.950 . S
C135 C132 1.387 1_545 S
C136 C137 1.387 1_556 S
C136 H140 0.950 . S
C136 C145 1.390 . S
C137 C136 1.387 1_554 S
C137 C139 1.387 . S
H138 C145 0.950 . S
C139 C137 1.387 . S
C139 C141 1.390 . S
C139 H143 0.950 . S
H140 C136 0.950 . S
C141 C139 1.390 . S
C141 C142 1.387 . S
C141 H144 0.950 . S
C142 C141 1.387 . S
C142 C145 1.387 1_554 S
H143 C139 0.950 . S
H144 C141 0.950 . S
C145 C136 1.390 . S
C145 H138 0.950 . S
C145 C142 1.387 1_556 S
C146 C147 1.387 . S
C146 H150 0.950 . S
C146 C155 1.390 . S
C147 C146 1.387 . S
C147 C149 1.387 . S
H148 C155 0.950 . S
C149 C147 1.387 . S
C149 C151 1.390 . S
C149 H153 0.950 . S
H150 C146 0.950 . S
C151 C149 1.390 . S
C151 C152 1.387 . S
C151 H154 0.950 . S
C152 C151 1.387 . S
C152 C155 1.387 . S
H153 C149 0.950 . S
H154 C151 0.950 . S
C155 C146 1.390 . S
C155 H148 0.950 . S
C155 C152 1.387 . S
C156 C157 1.387 . S
C156 H160 0.950 . S
C156 C165 1.390 . S
C157 C156 1.387 . S
C157 C159 1.387 . S
H158 C165 0.950 . S
C159 C157 1.387 . S
C159 C161 1.390 . S
C159 H163 0.950 . S
H160 C156 0.950 . S
C161 C159 1.390 . S
C161 C162 1.387 . S
C161 H164 0.950 1_545 S
C162 C161 1.387 . S
C162 C165 1.387 . S
H163 C159 0.950 . S
H164 C161 0.950 1_565 S
C165 C156 1.390 . S
C165 H158 0.950 . S
C165 C162 1.387 . S
C166 C167 1.387 . S
C166 H170 0.950 . S
C166 C175 1.390 . S
C167 C166 1.387 . S
C167 C169 1.387 . S
H168 C175 0.948 1_655 S
C169 C167 1.387 . S
C169 C171 1.390 . S
C169 H173 0.950 . S
H170 C166 0.950 . S
C171 C169 1.390 . S
C171 C172 1.387 . S
C171 H174 0.950 . S
C172 C171 1.387 . S
C172 C175 1.387 . S
H173 C169 0.950 . S
H174 C171 0.950 . S
C175 C166 1.390 . S
C175 H168 0.948 1_455 S
C175 C172 1.387 . S
C176 C177 1.387 . S
C176 H180 0.950 . S
C176 C185 1.390 . S
C177 C176 1.387 . S
C177 C179 1.387 1_665 S
H178 C185 0.950 . S
C179 C177 1.387 1_445 S
C179 C181 1.390 . S
C179 H183 0.950 . S
H180 C176 0.950 . S
C181 C179 1.390 . S
C181 C182 1.387 1_445 S
C181 H184 0.950 . S
C182 C181 1.387 1_665 S
C182 C185 1.387 . S
H183 C179 0.950 . S
H184 C181 0.950 . S
C185 C176 1.390 . S
C185 H178 0.950 . S
C185 C182 1.387 . S
C97 C6 1.351 . S
C102 C4 1.362 . S
C107 C38 1.351 . S
C112 C36 1.362 . S
C117 C66 1.348 . S
C122 C93 1.361 . S
C127 C68 1.363 . S
C132 C70 1.351 . S
C137 C2 1.351 . S
C142 C29 1.363 . S
C147 C34 1.348 . S
C152 C61 1.360 . S
C157 N50 1.612 . S
C162 N13 1.611 1_455 S
C167 N45 1.613 . S
C172 N77 1.613 1_545 S
C177 N82 1.613 1_655 S
C182 N18 1.611 1_565 S
