# Generated by pormake.
# Topology rob, (6)-cn, num edge types: 1
# Building blocks:
#     Node 0, Type 0, BuildingBlock: BETDEL_clean_sbu_0, # of connection points: 6
#     Node 1, Type 0, BuildingBlock: BETDEL_clean_sbu_0, # of connection points: 6
#     Node 2, Type 0, BuildingBlock: BETDEL_clean_sbu_0, # of connection points: 6
#     Node 3, Type 0, BuildingBlock: BETDEL_clean_sbu_0, # of connection points: 6
#     Edge 4, Type (0, 0), BuildingBlock: AJUNOK_clean_linker_0, # of connection points: 2
#     Edge 5, Type (0, 0), BuildingBlock: AJUNOK_clean_linker_0, # of connection points: 2
#     Edge 6, Type (0, 0), BuildingBlock: AJUNOK_clean_linker_0, # of connection points: 2
#     Edge 7, Type (0, 0), BuildingBlock: AJUNOK_clean_linker_0, # of connection points: 2
#     Edge 8, Type (0, 0), BuildingBlock: AJUNOK_clean_linker_0, # of connection points: 2
#     Edge 9, Type (0, 0), BuildingBlock: AJUNOK_clean_linker_0, # of connection points: 2
#     Edge 10, Type (0, 0), BuildingBlock: AJUNOK_clean_linker_0, # of connection points: 2
#     Edge 11, Type (0, 0), BuildingBlock: AJUNOK_clean_linker_0, # of connection points: 2
#     Edge 12, Type (0, 0), BuildingBlock: AJUNOK_clean_linker_0, # of connection points: 2
#     Edge 13, Type (0, 0), BuildingBlock: AJUNOK_clean_linker_0, # of connection points: 2
#     Edge 14, Type (0, 0), BuildingBlock: AJUNOK_clean_linker_0, # of connection points: 2
#     Edge 15, Type (0, 0), BuildingBlock: AJUNOK_clean_linker_0, # of connection points: 2
# Relax obj value: 0.090
# Max RMSD: 0.171
# Mean RMSD: 0.171
data_MOF--net-rob--node1-BETDEL_clean_sbu_0--edge1-AJUNOK_clean_linker_0
_symmetry_space_group_name_H-M    P1
_symmetry_Int_Tables_number       1
_symmetry_cell_setting            triclinic
loop_
_symmetry_equiv_pos_as_xyz
'x, y, z'
_cell_length_a     12.310119
_cell_length_b     16.589489
_cell_length_c     21.253825
_cell_angle_alpha  85.720779
_cell_angle_beta   104.08572
_cell_angle_gamma 88.531166
loop_
_atom_site_label
_atom_site_type_symbol
_atom_site_fract_x
_atom_site_fract_y
_atom_site_fract_z
_atom_type_partial_charge
Dy0 Dy 0.09461 0.36748 0.05828 0.0
C1 C 0.3199 0.23534 0.88802 0.0
C2 C 0.00927 0.41111 0.15903 0.0
Dy3 Dy 0.23444 0.27967 0.98873 0.0
O4 O 0.11407 0.40326 0.15955 0.0
O5 O -0.05186 0.39677 0.1019 0.0
O6 O 0.1481 0.48803 1.02469 0.0
O7 O 0.26199 0.38791 0.04218 0.0
C8 C 0.24654 0.46166 1.02134 0.0
C9 C 0.08376 0.18417 0.02599 0.0
O10 O 0.34776 0.26488 0.08961 0.0
O11 O 0.19333 0.27267 0.13114 0.0
O12 O 0.2156 0.25044 0.8858 0.0
O13 O 0.38043 0.24329 0.9467 0.0
O14 O 0.18318 0.15965 1.02312 0.0
O15 O 0.06635 0.25802 1.0049 0.0
O16 O -0.01629 0.38804 0.95759 0.0
O17 O 0.13772 0.37571 0.91573 0.0
C18 C 0.30178 0.2577 0.13997 0.0
C19 C 0.0304 0.39517 0.90757 0.0
Dy20 Dy 0.56863 0.85564 0.04451 0.0
C21 C 0.90151 0.77877 0.91655 0.0
C22 C 0.42474 0.85955 0.12372 0.0
Dy23 Dy 0.75959 0.78685 0.99647 0.0
O24 O 0.45862 0.923 0.09545 0.0
O25 O 0.46221 0.79491 0.10391 0.0
O26 O 0.62393 0.98256 0.02938 0.0
O27 O 0.74337 0.88582 0.05538 0.0
C28 C 0.72895 0.96051 0.03804 0.0
C29 C 0.60106 0.68183 1.00414 0.0
O30 O 0.84395 0.76751 0.10283 0.0
O31 O 0.67444 0.7801 0.1304 0.0
O32 O 0.86294 0.71642 0.94341 0.0
O33 O 0.87093 0.84387 0.93891 0.0
O34 O 0.70661 0.66077 1.01399 0.0
O35 O 0.5847 0.7563 0.98561 0.0
O36 O 0.48525 0.87713 0.93874 0.0
O37 O 0.65368 0.86233 0.90999 0.0
C38 C 0.7832 0.76187 0.14662 0.0
C39 C 0.54579 0.88417 0.89495 0.0
Dy40 Dy 0.24794 0.84674 0.48219 0.0
C41 C -0.02438 0.7716 0.65836 0.0
C42 C 0.35122 0.86235 0.38251 0.0
Dy43 Dy 0.08845 0.78422 0.56288 0.0
O44 O 0.2979 0.92011 0.40197 0.0
O45 O 0.35701 0.7974 0.42163 0.0
O46 O 0.1957 0.97407 0.49285 0.0
O47 O 0.07966 0.88217 0.48815 0.0
C48 C 0.09571 0.95566 0.49706 0.0
C49 C 0.2409 0.67569 0.54813 0.0
O50 O -0.02015 0.76554 0.46535 0.0
O51 O 0.12917 0.77021 0.41667 0.0
O52 O 0.03466 0.71345 0.64343 0.0
O53 O -0.02826 0.83473 0.61775 0.0
O54 O 0.14066 0.65707 0.55182 0.0
O55 O 0.25675 0.74913 0.55728 0.0
O56 O 0.3565 0.8687 0.57958 0.0
O57 O 0.20624 0.86158 0.62764 0.0
C58 C 0.02388 0.75441 0.41536 0.0
C59 C 0.31027 0.88102 0.62864 0.0
Dy60 Dy 0.75058 0.3603 0.49119 0.0
C61 C 0.48118 0.22504 0.6538 0.0
C62 C 0.85559 0.40902 0.39622 0.0
Dy63 Dy 0.59099 0.2717 0.56024 0.0
O64 O 0.75548 0.43177 0.39856 0.0
O65 O 0.9021 0.36185 0.44833 0.0
O66 O 0.68873 0.47959 0.51355 0.0
O67 O 0.57871 0.38352 0.49785 0.0
C68 C 0.58959 0.4551 0.5142 0.0
C69 C 0.75123 0.17672 0.53638 0.0
O70 O 0.49678 0.2597 0.45705 0.0
O71 O 0.65527 0.28046 0.41869 0.0
O72 O 0.582 0.20171 0.65316 0.0
O73 O 0.43717 0.27144 0.60093 0.0
O74 O 0.65182 0.15256 0.53692 0.0
O75 O 0.76271 0.24803 0.5534 0.0
O76 O 0.8432 0.37715 0.59364 0.0
O77 O 0.68566 0.3525 0.63225 0.0
C78 C 0.55018 0.25932 0.40961 0.0
C79 C 0.78891 0.37761 0.64064 0.0
C80 C 0.40052 0.65329 0.99918 0.0
C81 C 0.51127 0.62425 1.00544 0.0
C82 C 0.31513 0.60009 1.00315 0.0
C83 C 0.3371 0.51577 1.01324 0.0
H84 H 0.37973 0.7177 0.992 0.0
H85 H 0.23153 0.62548 0.99916 0.0
S86 S 0.61062 0.40825 0.0258 0.0
N87 N 0.63657 0.50511 1.01735 0.0
N88 N 0.47628 0.40545 0.0249 0.0
C89 C 0.44665 0.48574 1.01729 0.0
C90 C 0.53366 0.53989 1.01337 0.0
C91 C 0.43771 0.64222 0.54619 0.0
C92 C 0.32742 0.61778 0.53946 0.0
C93 C 0.52192 0.58856 0.53847 0.0
C94 C 0.49863 0.50876 0.5233 0.0
H95 H 0.45948 0.7032 0.55774 0.0
H96 H 0.60585 0.61005 0.54425 0.0
S97 S 0.22263 0.41545 0.49967 0.0
N98 N 0.19871 0.50874 0.51671 0.0
N99 N 0.35717 0.40808 0.501 0.0
C100 C 0.38859 0.48354 0.5162 0.0
C101 C 0.30281 0.53809 0.52455 0.0
C102 C 0.88241 0.15517 1.02227 0.0
C103 C -0.00535 0.12717 0.03188 0.0
C104 C 0.79701 0.10102 0.02483 0.0
C105 C 0.8207 1.01695 0.0374 0.0
H106 H 0.86004 0.21922 1.01193 0.0
H107 H 0.71171 0.12529 1.01653 0.0
S108 S 0.10122 0.91276 0.06767 0.0
N109 N 0.12435 1.00939 0.0547 0.0
N110 N -0.03455 0.90896 0.06189 0.0
C111 C -0.06717 0.98854 0.04848 0.0
C112 C 0.0193 1.04328 0.04508 0.0
C113 C 0.81628 1.0441 0.50874 0.0
C114 C 0.84129 0.12292 0.52609 0.0
C115 C 0.89931 0.99034 0.49961 0.0
C116 C 0.0103 1.01365 0.5072 0.0
H117 H 0.73174 1.02344 0.50221 0.0
H118 H 0.87612 0.93026 0.48624 0.0
S119 S 0.11987 0.21283 0.55323 0.0
N120 N -0.01479 0.22136 0.55146 0.0
N121 N 0.14167 0.1204 0.53363 0.0
C122 C 0.03669 0.09227 0.52448 0.0
C123 C -0.04796 0.14701 0.53409 0.0
C124 C 0.37307 0.24364 0.3248 0.0
C125 C 0.49048 0.24345 0.34219 0.0
C126 C 0.31399 0.24437 0.25953 0.0
C127 C 0.3694 0.24429 0.20852 0.0
H128 H 0.32577 0.24729 0.36141 0.0
H129 H 0.22333 0.24717 0.24911 0.0
S130 S 0.67718 0.2344 0.22837 0.0
N131 N 0.66127 0.23559 0.30321 0.0
N132 N 0.54916 0.23738 0.18069 0.0
C133 C 0.48696 0.23921 0.2254 0.0
C134 C 0.54762 0.23853 0.29209 0.0
C135 C 0.41528 0.78978 0.23003 0.0
C136 C 0.39222 0.85951 0.1861 0.0
C137 C 0.40516 0.79185 0.29419 0.0
C138 C 0.37029 0.86343 0.31645 0.0
H139 H 0.44592 0.73391 0.21573 0.0
H140 H 0.42504 0.73698 0.3265 0.0
S141 S 0.28187 1.05789 0.21703 0.0
N142 N 0.32444 0.99962 0.16743 0.0
N143 N 0.30001 1.00299 0.28705 0.0
C144 C 0.3417 0.93236 0.27197 0.0
C145 C 0.35387 0.93047 0.20702 0.0
C146 C 0.54789 0.88222 0.77784 0.0
C147 C 0.49166 0.90431 0.82503 0.0
C148 C 0.49155 0.88271 0.71207 0.0
C149 C 0.37736 0.90588 0.69119 0.0
H150 H 0.63395 0.85851 0.79211 0.0
H151 H 0.53535 0.85839 0.67871 0.0
S152 S 0.20148 0.99208 0.79147 0.0
N153 N 0.3224 0.96602 0.84374 0.0
N154 N 0.2166 0.96847 0.71986 0.0
C155 C 0.32434 0.93806 0.73629 0.0
C156 C 0.38144 0.9368 0.80337 0.0
C157 C 0.33196 0.25418 0.71126 0.0
C158 C 0.43584 0.21642 0.71244 0.0
C159 C 0.2944 0.25719 0.76826 0.0
C160 C 0.36044 0.22434 0.829 0.0
H161 H 0.2808 0.28412 0.66644 0.0
H162 H 0.2146 0.28849 0.76495 0.0
S163 S 0.6339 0.1116 0.85777 0.0
N164 N 0.60016 0.13893 0.77885 0.0
N165 N 0.53058 0.14751 0.88631 0.0
C166 C 0.46268 0.18398 0.83077 0.0
C167 C 0.50003 0.17923 0.77236 0.0
C168 C -0.05761 0.70741 0.23939 0.0
C169 C 0.83675 0.74766 0.21713 0.0
C170 C -0.00094 0.70333 0.30548 0.0
C171 C -0.04811 0.73928 0.35141 0.0
H172 H -0.01683 0.68145 0.20534 0.0
H173 H 0.08286 0.67533 0.32022 0.0
S174 S 0.67823 0.85243 0.31836 0.0
N175 N 0.6869 0.82374 0.24704 0.0
N176 N 0.79344 0.81483 0.37045 0.0
C177 C 0.84421 0.77599 0.3304 0.0
C178 C 0.78673 0.78071 0.26336 0.0
C179 C 0.00488 0.3889 0.33689 0.0
C180 C 0.89785 0.42018 0.3367 0.0
C181 C 0.04106 0.38953 0.27924 0.0
C182 C -0.02965 0.41918 0.21887 0.0
H183 H 0.05998 0.36156 0.38149 0.0
H184 H 0.12377 0.36358 0.28178 0.0
S185 S 0.68587 0.51429 0.19236 0.0
N186 N 0.72438 0.4879 0.27138 0.0
N187 N 0.79181 0.48576 0.16285 0.0
C188 C 0.86453 0.45285 0.21806 0.0
C189 C 0.82847 0.45419 0.27705 0.0
C190 C -0.0394 0.41197 0.72347 0.0
C191 C 0.84476 0.40098 0.70669 0.0
C192 C 0.01834 0.41769 0.78841 0.0
C193 C -0.03711 0.41196 0.83941 0.0
H194 H 0.00841 0.41149 0.68691 0.0
H195 H 0.10859 0.42163 0.7989 0.0
S196 S 0.65646 0.39885 0.8202 0.0
N197 N 0.6735 0.39761 0.74563 0.0
N198 N 0.78321 0.40626 0.86741 0.0
C199 C 0.84572 0.4087 0.82269 0.0
C200 C 0.78646 0.40351 0.75644 0.0
C201 C -0.03261 0.70338 0.76567 0.0
C202 C -0.05031 0.77368 0.72241 0.0
C203 C -0.0434 0.70592 0.8297 0.0
C204 C -0.07023 0.77908 0.85295 0.0
H205 H -0.00966 0.646 0.7501 0.0
H206 H -0.03181 0.65009 0.86094 0.0
S207 S 0.87334 0.98005 0.75857 0.0
N208 N 0.90186 0.91816 0.70687 0.0
N209 N 0.88427 0.92355 0.82727 0.0
C210 C 0.91262 0.84994 0.8102 0.0
C211 C -0.07851 0.84702 0.74482 0.0
loop_
_geom_bond_atom_site_label_1
_geom_bond_atom_site_label_2
_geom_bond_distance
_geom_bond_site_symmetry_2
_ccdc_geom_bond_type
Dy0 O4 2.398 . S
Dy0 O5 2.491 . S
Dy0 O6 2.403 . S
Dy0 O7 2.664 1_554 S
Dy0 O11 2.326 . S
Dy0 O15 2.310 . S
Dy0 O16 2.351 1_554 S
C1 O12 1.185 . S
C1 O13 1.355 . S
C2 O4 1.185 . S
C2 O5 1.355 . S
Dy3 O7 2.310 . S
Dy3 O10 2.351 1_556 S
Dy3 O12 2.398 . S
Dy3 O13 2.491 . S
Dy3 O14 2.403 . S
Dy3 O15 2.664 1_556 S
Dy3 O17 2.326 . S
O4 Dy0 2.398 . S
O4 C2 1.185 . S
O5 Dy0 2.491 . S
O5 C2 1.355 . S
O6 Dy0 2.403 . S
O6 C8 1.254 . S
O7 Dy0 2.664 1_556 S
O7 Dy3 2.310 . S
O7 C8 1.268 1_556 S
C8 O6 1.254 . S
C8 O7 1.268 1_554 S
C9 O14 1.254 . S
C9 O15 1.268 1_556 S
O10 Dy3 2.351 1_554 S
O10 C18 1.249 . S
O11 Dy0 2.326 . S
O11 C18 1.267 . S
O12 C1 1.185 . S
O12 Dy3 2.398 . S
O13 C1 1.355 . S
O13 Dy3 2.491 . S
O14 Dy3 2.403 . S
O14 C9 1.254 . S
O15 Dy0 2.310 . S
O15 Dy3 2.664 1_554 S
O15 C9 1.268 1_554 S
O16 Dy0 2.351 1_556 S
O16 C19 1.249 . S
O17 Dy3 2.326 . S
O17 C19 1.267 . S
C18 O10 1.249 . S
C18 O11 1.267 . S
C19 O16 1.249 . S
C19 O17 1.267 . S
Dy20 O24 2.398 . S
Dy20 O25 2.491 . S
Dy20 O26 2.403 . S
Dy20 O27 2.664 1_554 S
Dy20 O31 2.326 . S
Dy20 O35 2.310 . S
Dy20 O36 2.351 1_554 S
C21 O32 1.185 . S
C21 O33 1.355 . S
C22 O24 1.185 . S
C22 O25 1.355 . S
Dy23 O27 2.310 . S
Dy23 O30 2.351 1_556 S
Dy23 O32 2.398 . S
Dy23 O33 2.491 . S
Dy23 O34 2.403 . S
Dy23 O35 2.664 1_556 S
Dy23 O37 2.326 . S
O24 Dy20 2.398 . S
O24 C22 1.185 . S
O25 Dy20 2.491 . S
O25 C22 1.355 . S
O26 Dy20 2.403 . S
O26 C28 1.254 . S
O27 Dy20 2.664 1_556 S
O27 Dy23 2.310 . S
O27 C28 1.268 1_556 S
C28 O26 1.254 . S
C28 O27 1.268 1_554 S
C29 O34 1.254 . S
C29 O35 1.268 1_556 S
O30 Dy23 2.351 1_554 S
O30 C38 1.249 . S
O31 Dy20 2.326 . S
O31 C38 1.267 . S
O32 C21 1.185 . S
O32 Dy23 2.398 . S
O33 C21 1.355 . S
O33 Dy23 2.491 . S
O34 Dy23 2.403 . S
O34 C29 1.254 . S
O35 Dy20 2.310 . S
O35 Dy23 2.664 1_554 S
O35 C29 1.268 1_554 S
O36 Dy20 2.351 1_556 S
O36 C39 1.249 . S
O37 Dy23 2.326 . S
O37 C39 1.267 . S
C38 O30 1.249 . S
C38 O31 1.267 . S
C39 O36 1.249 . S
C39 O37 1.267 . S
Dy40 O44 2.398 . S
Dy40 O45 2.491 . S
Dy40 O46 2.403 . S
Dy40 O47 2.664 . S
Dy40 O51 2.326 . S
Dy40 O55 2.310 . S
Dy40 O56 2.351 . S
C41 O52 1.185 . S
C41 O53 1.355 . S
C42 O44 1.185 . S
C42 O45 1.355 . S
Dy43 O47 2.310 . S
Dy43 O50 2.351 . S
Dy43 O52 2.398 . S
Dy43 O53 2.491 . S
Dy43 O54 2.403 . S
Dy43 O55 2.664 . S
Dy43 O57 2.326 . S
O44 Dy40 2.398 . S
O44 C42 1.185 . S
O45 Dy40 2.491 . S
O45 C42 1.355 . S
O46 Dy40 2.403 . S
O46 C48 1.254 . S
O47 Dy40 2.664 . S
O47 Dy43 2.310 . S
O47 C48 1.268 . S
C48 O46 1.254 . S
C48 O47 1.268 . S
C49 O54 1.254 . S
C49 O55 1.268 . S
O50 Dy43 2.351 . S
O50 C58 1.249 . S
O51 Dy40 2.326 . S
O51 C58 1.267 . S
O52 C41 1.185 . S
O52 Dy43 2.398 . S
O53 C41 1.355 . S
O53 Dy43 2.491 . S
O54 Dy43 2.403 . S
O54 C49 1.254 . S
O55 Dy40 2.310 . S
O55 Dy43 2.664 . S
O55 C49 1.268 . S
O56 Dy40 2.351 . S
O56 C59 1.249 . S
O57 Dy43 2.326 . S
O57 C59 1.267 . S
C58 O50 1.249 . S
C58 O51 1.267 . S
C59 O56 1.249 . S
C59 O57 1.267 . S
Dy60 O64 2.398 . S
Dy60 O65 2.491 . S
Dy60 O66 2.403 . S
Dy60 O67 2.664 . S
Dy60 O71 2.326 . S
Dy60 O75 2.310 . S
Dy60 O76 2.351 . S
C61 O72 1.185 . S
C61 O73 1.355 . S
C62 O64 1.185 . S
C62 O65 1.355 . S
Dy63 O67 2.310 . S
Dy63 O70 2.351 . S
Dy63 O72 2.398 . S
Dy63 O73 2.491 . S
Dy63 O74 2.403 . S
Dy63 O75 2.664 . S
Dy63 O77 2.326 . S
O64 Dy60 2.398 . S
O64 C62 1.185 . S
O65 Dy60 2.491 . S
O65 C62 1.355 . S
O66 Dy60 2.403 . S
O66 C68 1.254 . S
O67 Dy60 2.664 . S
O67 Dy63 2.310 . S
O67 C68 1.268 . S
C68 O66 1.254 . S
C68 O67 1.268 . S
C69 O74 1.254 . S
C69 O75 1.268 . S
O70 Dy63 2.351 . S
O70 C78 1.249 . S
O71 Dy60 2.326 . S
O71 C78 1.267 . S
O72 C61 1.185 . S
O72 Dy63 2.398 . S
O73 C61 1.355 . S
O73 Dy63 2.491 . S
O74 Dy63 2.403 . S
O74 C69 1.254 . S
O75 Dy60 2.310 . S
O75 Dy63 2.664 . S
O75 C69 1.268 . S
O76 Dy60 2.351 . S
O76 C79 1.249 . S
O77 Dy63 2.326 . S
O77 C79 1.267 . S
C78 O70 1.249 . S
C78 O71 1.267 . S
C79 O76 1.249 . S
C79 O77 1.267 . S
C80 C81 1.368 1_556 S
C80 C82 1.419 . S
C80 H84 0.930 . S
C81 C80 1.368 1_554 S
C81 C90 1.431 . S
C82 C80 1.419 . S
C82 C83 1.353 1_556 S
C82 H85 0.929 . S
C83 C82 1.353 1_554 S
C83 C89 1.435 . S
H84 C80 0.930 . S
H85 C82 0.929 . S
S86 N87 1.613 . S
S86 N88 1.610 . S
N87 S86 1.613 . S
N87 C90 1.350 . S
N88 S86 1.610 . S
N88 C89 1.351 . S
C89 C83 1.435 . S
C89 N88 1.351 . S
C89 C90 1.434 . S
C90 C81 1.431 . S
C90 N87 1.350 . S
C90 C89 1.434 . S
C91 C92 1.369 . S
C91 C93 1.419 . S
C91 H95 0.930 . S
C92 C91 1.369 . S
C92 C101 1.429 . S
C93 C91 1.419 . S
C93 C94 1.363 . S
C93 H96 0.929 . S
C94 C93 1.363 . S
C94 C100 1.428 . S
H95 C91 0.930 . S
H96 C93 0.929 . S
S97 N98 1.613 . S
S97 N99 1.610 . S
N98 S97 1.613 . S
N98 C101 1.350 . S
N99 S97 1.610 . S
N99 C100 1.351 . S
C100 C94 1.428 . S
C100 N99 1.351 . S
C100 C101 1.434 . S
C101 C92 1.429 . S
C101 N98 1.350 . S
C101 C100 1.434 . S
C102 C103 1.353 1_554 S
C102 C104 1.419 1_445 S
C102 H106 0.930 . S
C103 C102 1.353 1_556 S
C103 C112 1.441 . S
C104 C102 1.419 1_665 S
C104 C105 1.363 1_554 S
C104 H107 0.929 . S
C105 C104 1.363 1_556 S
C105 C111 1.429 . S
H106 C102 0.930 . S
H107 C104 0.929 . S
S108 N109 1.613 . S
S108 N110 1.610 1_455 S
N109 S108 1.613 . S
N109 C112 1.350 1_565 S
N110 S108 1.610 1_655 S
N110 C111 1.351 . S
C111 C105 1.429 . S
C111 N110 1.351 . S
C111 C112 1.434 1_665 S
C112 C103 1.441 . S
C112 N109 1.350 1_545 S
C112 C111 1.434 1_445 S
C113 C114 1.369 . S
C113 C115 1.419 1_545 S
C113 H117 0.930 . S
C114 C113 1.369 . S
C114 C123 1.429 1_655 S
C115 C113 1.419 1_565 S
C115 C116 1.363 1_655 S
C115 H118 0.929 . S
C116 C115 1.363 1_455 S
C116 C122 1.428 . S
H117 C113 0.930 . S
H118 C115 0.929 . S
S119 N120 1.613 . S
S119 N121 1.610 1_545 S
N120 S119 1.613 . S
N120 C123 1.350 . S
N121 S119 1.610 1_565 S
N121 C122 1.351 . S
C122 C116 1.428 . S
C122 N121 1.351 . S
C122 C123 1.434 1_565 S
C123 C114 1.429 1_455 S
C123 N120 1.350 . S
C123 C122 1.434 1_545 S
C124 C125 1.369 . S
C124 C126 1.419 . S
C124 H128 0.930 . S
C125 C124 1.369 . S
C125 C134 1.429 . S
C126 C124 1.419 . S
C126 C127 1.363 . S
C126 H129 0.929 . S
C127 C126 1.363 . S
C127 C133 1.428 . S
H128 C124 0.930 . S
H129 C126 0.929 . S
S130 N131 1.613 . S
S130 N132 1.610 . S
N131 S130 1.613 . S
N131 C134 1.350 . S
N132 S130 1.610 . S
N132 C133 1.351 . S
C133 C127 1.428 . S
C133 N132 1.351 . S
C133 C134 1.434 . S
C134 C125 1.429 . S
C134 N131 1.350 . S
C134 C133 1.434 . S
C135 C136 1.369 . S
C135 C137 1.419 . S
C135 H139 0.930 . S
C136 C135 1.369 . S
C136 C145 1.429 . S
C137 C135 1.419 . S
C137 C138 1.363 . S
C137 H140 0.929 . S
C138 C137 1.363 . S
C138 C144 1.428 . S
H139 C135 0.930 . S
H140 C137 0.929 . S
S141 N142 1.613 . S
S141 N143 1.610 . S
N142 S141 1.613 . S
N142 C145 1.350 . S
N143 S141 1.610 . S
N143 C144 1.351 . S
C144 C138 1.428 . S
C144 N143 1.351 . S
C144 C145 1.434 . S
C145 C136 1.429 . S
C145 N142 1.350 . S
C145 C144 1.434 . S
C146 C147 1.369 . S
C146 C148 1.419 . S
C146 H150 0.930 . S
C147 C146 1.369 . S
C147 C156 1.429 . S
C148 C146 1.419 . S
C148 C149 1.363 . S
C148 H151 0.929 . S
C149 C148 1.363 . S
C149 C155 1.428 . S
H150 C146 0.930 . S
H151 C148 0.929 . S
S152 N153 1.613 . S
S152 N154 1.610 . S
N153 S152 1.613 . S
N153 C156 1.350 . S
N154 S152 1.610 . S
N154 C155 1.351 . S
C155 C149 1.428 . S
C155 N154 1.351 . S
C155 C156 1.434 . S
C156 C147 1.429 . S
C156 N153 1.350 . S
C156 C155 1.434 . S
C157 C158 1.369 . S
C157 C159 1.419 . S
C157 H161 0.930 . S
C158 C157 1.369 . S
C158 C167 1.429 . S
C159 C157 1.419 . S
C159 C160 1.363 . S
C159 H162 0.929 . S
C160 C159 1.363 . S
C160 C166 1.428 . S
H161 C157 0.930 . S
H162 C159 0.929 . S
S163 N164 1.613 . S
S163 N165 1.610 . S
N164 S163 1.613 . S
N164 C167 1.350 . S
N165 S163 1.610 . S
N165 C166 1.351 . S
C166 C160 1.428 . S
C166 N165 1.351 . S
C166 C167 1.434 . S
C167 C158 1.429 . S
C167 N164 1.350 . S
C167 C166 1.434 . S
C168 C169 1.369 1_455 S
C168 C170 1.419 . S
C168 H172 0.930 . S
C169 C168 1.369 1_655 S
C169 C178 1.429 . S
C170 C168 1.419 . S
C170 C171 1.363 . S
C170 H173 0.929 . S
C171 C170 1.363 . S
C171 C177 1.428 1_455 S
H172 C168 0.930 . S
H173 C170 0.929 . S
S174 N175 1.613 . S
S174 N176 1.610 . S
N175 S174 1.613 . S
N175 C178 1.350 . S
N176 S174 1.610 . S
N176 C177 1.351 . S
C177 C171 1.428 1_655 S
C177 N176 1.351 . S
C177 C178 1.434 . S
C178 C169 1.429 . S
C178 N175 1.350 . S
C178 C177 1.434 . S
C179 C180 1.369 1_455 S
C179 C181 1.419 . S
C179 H183 0.930 . S
C180 C179 1.369 1_655 S
C180 C189 1.429 . S
C181 C179 1.419 . S
C181 C182 1.363 . S
C181 H184 0.929 . S
C182 C181 1.363 . S
C182 C188 1.428 1_455 S
H183 C179 0.930 . S
H184 C181 0.929 . S
S185 N186 1.613 . S
S185 N187 1.610 . S
N186 S185 1.613 . S
N186 C189 1.350 . S
N187 S185 1.610 . S
N187 C188 1.351 . S
C188 C182 1.428 1_655 S
C188 N187 1.351 . S
C188 C189 1.434 . S
C189 C180 1.429 . S
C189 N186 1.350 . S
C189 C188 1.434 . S
C190 C191 1.369 1_455 S
C190 C192 1.419 . S
C190 H194 0.930 . S
C191 C190 1.369 1_655 S
C191 C200 1.429 . S
C192 C190 1.419 . S
C192 C193 1.363 . S
C192 H195 0.929 . S
C193 C192 1.363 . S
C193 C199 1.428 1_455 S
H194 C190 0.930 . S
H195 C192 0.929 . S
S196 N197 1.613 . S
S196 N198 1.610 . S
N197 S196 1.613 . S
N197 C200 1.350 . S
N198 S196 1.610 . S
N198 C199 1.351 . S
C199 C193 1.428 1_655 S
C199 N198 1.351 . S
C199 C200 1.434 . S
C200 C191 1.429 . S
C200 N197 1.350 . S
C200 C199 1.434 . S
C201 C202 1.369 . S
C201 C203 1.419 . S
C201 H205 0.930 . S
C202 C201 1.369 . S
C202 C211 1.429 1_455 S
C203 C201 1.419 . S
C203 C204 1.363 1_455 S
C203 H206 0.929 . S
C204 C203 1.363 1_655 S
C204 C210 1.428 . S
H205 C201 0.930 . S
H206 C203 0.929 . S
S207 N208 1.613 . S
S207 N209 1.610 . S
N208 S207 1.613 . S
N208 C211 1.350 . S
N209 S207 1.610 . S
N209 C210 1.351 . S
C210 C204 1.428 . S
C210 N209 1.351 . S
C210 C211 1.434 . S
C211 C202 1.429 1_655 S
C211 N208 1.350 . S
C211 C210 1.434 . S
C81 C29 1.557 1_554 S
C83 C8 1.564 . S
C92 C49 1.559 . S
C94 C68 1.559 . S
C103 C9 1.563 . S
C105 C28 1.560 1_556 S
C114 C69 1.559 . S
C116 C48 1.559 . S
C125 C78 1.373 . S
C127 C18 1.375 . S
C136 C22 1.290 . S
C138 C42 1.289 . S
C147 C39 1.370 . S
C149 C59 1.370 . S
C158 C61 1.288 . S
C160 C1 1.290 . S
C169 C38 1.370 . S
C171 C58 1.373 . S
C180 C62 1.288 . S
C182 C2 1.290 . S
C191 C79 1.374 . S
C193 C19 1.375 . S
C202 C41 1.290 . S
C204 C21 1.289 . S
