# Generated by pormake.
# Topology unc, (4)-cn, num edge types: 1
# Building blocks:
#     Node 0, Type 0, BuildingBlock: GALJAG_clean_sbu_0, # of connection points: 4
#     Node 1, Type 0, BuildingBlock: GALJAG_clean_sbu_0, # of connection points: 4
#     Node 2, Type 0, BuildingBlock: GALJAG_clean_sbu_0, # of connection points: 4
#     Node 3, Type 0, BuildingBlock: GALJAG_clean_sbu_0, # of connection points: 4
#     Edge 4, Type (0, 0), None
#     Edge 5, Type (0, 0), None
#     Edge 6, Type (0, 0), None
#     Edge 7, Type (0, 0), None
#     Edge 8, Type (0, 0), None
#     Edge 9, Type (0, 0), None
#     Edge 10, Type (0, 0), None
#     Edge 11, Type (0, 0), None
# Relax obj value: 0.013
# Max RMSD: 0.035
# Mean RMSD: 0.035
data_MOF--net-unc--node1-GALJAG_clean_sbu_0--edge1-none
_symmetry_space_group_name_H-M    P1
_symmetry_Int_Tables_number       1
_symmetry_cell_setting            triclinic
loop_
_symmetry_equiv_pos_as_xyz
'x, y, z'
_cell_length_a     13.7655
_cell_length_b     13.765559
_cell_length_c     9.7892462
_cell_angle_alpha  89.99977
_cell_angle_beta   89.999863
_cell_angle_gamma 89.999765
loop_
_atom_site_label
_atom_site_type_symbol
_atom_site_fract_x
_atom_site_fract_y
_atom_site_fract_z
_atom_type_partial_charge
In0 In 0.01608 0.6873 -0.03712 0.0
O1 O 0.14897 0.78589 0.93689 0.0
O2 O 0.08361 0.77663 0.13391 0.0
C3 C 0.02839 0.55285 0.76657 0.0
C4 C 0.88246 0.8124 0.86508 0.0
C5 C 1.00378 0.55285 0.15921 0.0
O6 O 0.10339 0.59803 0.80649 0.0
O7 O 0.94987 0.57689 0.82345 0.0
O8 O 0.92878 0.59803 0.11928 0.0
O9 O 0.0823 0.5769 0.10232 0.0
C10 C 0.14971 0.8124 0.06067 0.0
O11 O 0.8832 0.78589 -0.01113 0.0
O12 O 0.94856 0.77663 0.79185 0.0
In13 In 0.34487 0.01609 0.21287 0.0
O14 O 0.24628 0.8832 0.23888 0.0
O15 O 0.25553 0.94856 0.04185 0.0
C16 C 0.47933 1.00378 0.40919 0.0
C17 C 0.21977 0.14971 0.31067 0.0
C18 C 0.47932 0.02839 0.01655 0.0
O19 O 0.43414 0.92878 0.36927 0.0
O20 O 0.45528 0.0823 0.3523 0.0
O21 O 0.43414 0.10339 0.05647 0.0
O22 O 0.45527 0.94987 0.07343 0.0
C23 C 0.21976 0.88247 0.11509 0.0
O24 O 0.24628 0.14897 0.18688 0.0
O25 O 0.25554 0.08362 0.38391 0.0
In26 In 0.01609 0.34488 0.46289 0.0
O27 O 0.14897 0.24628 0.48888 0.0
O28 O 0.08362 0.25554 0.29185 0.0
C29 C 0.02839 0.47931 0.65922 0.0
C30 C 0.88246 0.21977 0.56068 0.0
C31 C 1.00378 0.47932 0.26656 0.0
O32 O 0.10339 0.43414 0.61928 0.0
O33 O 0.94987 0.45527 0.60233 0.0
O34 O 0.92878 0.43414 0.30649 0.0
O35 O 0.0823 0.45528 0.32344 0.0
C36 C 0.14971 0.21976 0.3651 0.0
O37 O 0.88321 0.24628 0.43689 0.0
O38 O 0.94856 0.25554 0.63392 0.0
In39 In 0.6873 0.01608 0.71287 0.0
O40 O 0.78589 0.8832 0.68687 0.0
O41 O 0.77663 0.94855 0.8839 0.0
C42 C 0.55286 1.00378 0.51654 0.0
C43 C 0.81241 0.1497 0.6151 0.0
C44 C 0.55285 0.02839 0.9092 0.0
O45 O 0.59803 0.92878 0.55648 0.0
O46 O 0.5769 0.0823 0.57342 0.0
O47 O 0.59803 0.10339 0.86927 0.0
O48 O 0.57689 0.94987 0.85231 0.0
C49 C 0.81241 0.88246 0.81066 0.0
O50 O 0.78589 0.14896 0.73888 0.0
O51 O 0.77664 0.08362 0.54185 0.0
loop_
_geom_bond_atom_site_label_1
_geom_bond_atom_site_label_2
_geom_bond_distance
_geom_bond_site_symmetry_2
_ccdc_geom_bond_type
In0 O1 2.294 1_554 S
In0 O2 2.326 . S
In0 O6 2.266 1_554 S
In0 O7 2.326 1_454 S
In0 O8 2.266 1_455 S
In0 O9 2.326 . S
In0 O11 2.294 1_455 S
In0 O12 2.326 1_454 S
O1 In0 2.294 1_556 S
O1 C10 1.240 1_556 S
O2 In0 2.326 . S
O2 C10 1.252 . S
C3 O6 1.252 . S
C3 O7 1.260 1_455 S
C4 O11 1.240 1_556 S
C4 O12 1.252 . S
C5 O8 1.252 1_455 S
C5 O9 1.260 . S
O6 In0 2.266 1_556 S
O6 C3 1.252 . S
O7 In0 2.326 1_656 S
O7 C3 1.260 1_655 S
O8 In0 2.266 1_655 S
O8 C5 1.252 1_655 S
O9 In0 2.326 . S
O9 C5 1.260 . S
C10 O1 1.240 1_554 S
C10 O2 1.252 . S
O11 In0 2.294 1_655 S
O11 C4 1.240 1_554 S
O12 In0 2.326 1_656 S
O12 C4 1.252 . S
In13 O14 2.294 1_545 S
In13 O15 2.326 1_545 S
In13 O19 2.266 1_545 S
In13 O20 2.326 . S
In13 O21 2.266 . S
In13 O22 2.326 1_545 S
In13 O24 2.294 . S
In13 O25 2.326 . S
O14 In13 2.294 1_565 S
O14 C23 1.240 . S
O15 In13 2.326 1_565 S
O15 C23 1.252 . S
C16 O19 1.252 1_545 S
C16 O20 1.260 . S
C17 O24 1.240 . S
C17 O25 1.252 . S
C18 O21 1.252 . S
C18 O22 1.260 1_545 S
O19 In13 2.266 1_565 S
O19 C16 1.252 1_565 S
O20 In13 2.326 . S
O20 C16 1.260 . S
O21 In13 2.266 . S
O21 C18 1.252 . S
O22 In13 2.326 1_565 S
O22 C18 1.260 1_565 S
C23 O14 1.240 . S
C23 O15 1.252 . S
O24 In13 2.294 . S
O24 C17 1.240 . S
O25 In13 2.326 . S
O25 C17 1.252 . S
In26 O27 2.294 . S
In26 O28 2.326 . S
In26 O32 2.266 . S
In26 O33 2.326 1_455 S
In26 O34 2.266 1_455 S
In26 O35 2.326 . S
In26 O37 2.294 1_455 S
In26 O38 2.326 1_455 S
O27 In26 2.294 . S
O27 C36 1.240 . S
O28 In26 2.326 . S
O28 C36 1.252 . S
C29 O32 1.252 . S
C29 O33 1.260 1_455 S
C30 O37 1.240 . S
C30 O38 1.252 . S
C31 O34 1.252 1_455 S
C31 O35 1.260 . S
O32 In26 2.266 . S
O32 C29 1.252 . S
O33 In26 2.326 1_655 S
O33 C29 1.260 1_655 S
O34 In26 2.266 1_655 S
O34 C31 1.252 1_655 S
O35 In26 2.326 . S
O35 C31 1.260 . S
C36 O27 1.240 . S
C36 O28 1.252 . S
O37 In26 2.294 1_655 S
O37 C30 1.240 . S
O38 In26 2.326 1_655 S
O38 C30 1.252 . S
In39 O40 2.294 1_545 S
In39 O41 2.326 1_545 S
In39 O45 2.266 1_545 S
In39 O46 2.326 . S
In39 O47 2.266 . S
In39 O48 2.326 1_545 S
In39 O50 2.294 . S
In39 O51 2.326 . S
O40 In39 2.294 1_565 S
O40 C49 1.240 . S
O41 In39 2.326 1_565 S
O41 C49 1.252 . S
C42 O45 1.252 1_545 S
C42 O46 1.260 . S
C43 O50 1.240 . S
C43 O51 1.252 . S
C44 O47 1.252 . S
C44 O48 1.260 1_545 S
O45 In39 2.266 1_565 S
O45 C42 1.252 1_565 S
O46 In39 2.326 . S
O46 C42 1.260 . S
O47 In39 2.266 . S
O47 C44 1.252 . S
O48 In39 2.326 1_565 S
O48 C44 1.260 1_565 S
C49 O40 1.240 . S
C49 O41 1.252 . S
O50 In39 2.294 . S
O50 C43 1.240 . S
O51 In39 2.326 . S
O51 C43 1.252 . S
C5 C31 1.471 . S
C16 C42 1.471 . S
C3 C29 1.472 . S
C18 C44 1.471 1_554 S
C23 C10 1.568 . S
C17 C36 1.567 . S
C43 C30 1.569 . S
C49 C4 1.571 . S
