# Generated by pormake.
# Topology qtz-x, (6)-cn, num edge types: 1
# Building blocks:
#     Node 0, Type 0, BuildingBlock: PAMTOO_clean_sbu_0, # of connection points: 6
#     Node 1, Type 0, BuildingBlock: PAMTOO_clean_sbu_0, # of connection points: 6
#     Node 2, Type 0, BuildingBlock: PAMTOO_clean_sbu_0, # of connection points: 6
#     Edge 3, Type (0, 0), None
#     Edge 4, Type (0, 0), None
#     Edge 5, Type (0, 0), None
#     Edge 6, Type (0, 0), None
#     Edge 7, Type (0, 0), None
#     Edge 8, Type (0, 0), None
#     Edge 9, Type (0, 0), None
#     Edge 10, Type (0, 0), None
#     Edge 11, Type (0, 0), None
# Relax obj value: 0.164
# Max RMSD: 0.258
# Mean RMSD: 0.258
data_MOF--net-qtz-x--node1-PAMTOO_clean_sbu_0--edge1-none
_symmetry_space_group_name_H-M    P1
_symmetry_Int_Tables_number       1
_symmetry_cell_setting            triclinic
loop_
_symmetry_equiv_pos_as_xyz
'x, y, z'
_cell_length_a     7.203696
_cell_length_b     7.2042657
_cell_length_c     31.192823
_cell_angle_alpha  89.999902
_cell_angle_beta   89.993282
_cell_angle_gamma 119.9991
loop_
_atom_site_label
_atom_site_type_symbol
_atom_site_fract_x
_atom_site_fract_y
_atom_site_fract_z
_atom_type_partial_charge
Dy0 Dy 0.33707 0.78549 0.19373 0.0
Dy1 Dy 0.87064 0.5632 0.23669 0.0
C2 C 0.09943 0.0641 0.21436 0.0
O3 O 0.41861 0.75453 0.26159 0.0
O4 O 0.12011 0.7489 0.28494 0.0
O5 O 0.56867 0.07167 0.16048 0.0
O6 O 0.58544 0.78357 0.15471 0.0
O7 O 0.93373 0.28574 0.22547 0.0
O8 O 0.28773 0.45362 0.2052 0.0
O9 O 0.76171 0.51796 0.1685 0.0
O10 O 0.09678 0.61735 0.14372 0.0
O11 O 0.61385 0.28398 0.26821 0.0
O12 O 0.64959 0.59585 0.27693 0.0
C13 C 0.28843 0.73331 0.29292 0.0
O14 O 0.27957 0.05881 0.21244 0.0
O15 O 0.91411 0.88422 0.21634 0.0
C16 C 0.58639 0.9552 0.09026 0.0
C17 C 0.46373 0.87276 1.00286 0.0
C18 C 0.33739 0.90886 1.032 0.0
C19 C 0.39756 0.94837 0.07539 0.0
C20 C 0.71774 0.93052 0.0605 0.0
C21 C 0.65701 0.88987 1.01731 0.0
C22 C 0.63286 0.96528 0.13695 0.0
C23 C 0.10749 0.27796 0.21505 0.0
C24 C 0.89298 0.53977 0.13725 0.0
C25 C 0.55055 0.37247 0.33714 0.0
C26 C 0.54144 0.29487 0.42579 0.0
C27 C 0.37102 0.15533 0.39872 0.0
C28 C 0.37623 0.19358 0.35503 0.0
C29 C 0.71663 0.51981 0.36406 0.0
C30 C 0.71174 0.48156 0.40831 0.0
C31 C 0.55663 0.39986 0.29044 0.0
H32 H 0.18771 0.89611 1.02178 0.0
H33 H 0.29341 0.96897 0.0975 0.0
H34 H 0.86384 0.9357 0.07085 0.0
H35 H 0.75791 0.8634 0.99529 0.0
H36 H 0.23249 0.01282 0.4111 0.0
H37 H 0.24351 0.0827 0.33521 0.0
H38 H 0.85103 0.66302 0.35093 0.0
H39 H 0.84285 0.59373 0.42832 0.0
Dy40 Dy 0.34004 0.78249 0.52706 0.0
Dy41 Dy 0.58425 0.24885 0.57002 0.0
C42 C 0.85631 0.02014 0.54769 0.0
O43 O 0.22749 0.70094 0.59492 0.0
O44 O 0.52036 0.99937 0.61828 0.0
O45 O 0.39476 0.55097 0.49381 0.0
O46 O 0.08982 0.53405 0.48805 0.0
O47 O 0.24365 0.18574 0.55882 0.0
O48 O 0.05749 0.83182 0.53852 0.0
O49 O 0.64804 0.35794 0.50184 0.0
O50 O 0.41233 0.02295 0.47707 0.0
O51 O 0.56198 0.50576 0.60152 0.0
O52 O 0.83787 0.46964 0.6103 0.0
C53 C 0.33645 0.83105 0.62625 0.0
O54 O 0.67087 0.84002 0.54579 0.0
O55 O 0.86178 0.20545 0.54965 0.0
C56 C 0.26045 0.5331 0.4236 0.0
C57 C 0.30059 0.65576 0.3362 0.0
C58 C 0.46303 0.78212 0.36532 0.0
C59 C 0.44239 0.72196 0.40872 0.0
C60 C 0.10442 0.40175 0.39384 0.0
C61 C 0.12446 0.46247 0.35065 0.0
C62 C 0.22412 0.48663 0.47029 0.0
C63 C 0.06212 0.01204 0.54838 0.0
C64 C 0.53859 0.22672 0.47059 0.0
C65 C 0.71354 0.56893 0.67047 0.0
C66 C 0.64505 0.57823 0.75912 0.0
C67 C 0.67596 0.74861 0.73202 0.0
C68 C 0.709 0.7433 0.68834 0.0
C69 C 0.69472 0.40288 0.69742 0.0
C70 C 0.66137 0.40787 0.74166 0.0
C71 C 0.73498 0.5628 0.62377 0.0
H72 H 0.59992 0.9318 0.35509 0.0
H73 H 0.56713 0.82614 0.43082 0.0
H74 H 0.96353 0.25563 0.40421 0.0
H75 H 0.9971 0.36156 0.32864 0.0
H76 H 0.67201 0.88717 0.74438 0.0
H77 H 0.73091 0.876 0.6685 0.0
H78 H 0.70351 0.26844 0.6843 0.0
H79 H 0.6424 0.27679 0.76169 0.0
Dy80 Dy 0.33414 0.77953 0.86042 0.0
Dy81 Dy 0.55624 0.53528 0.90337 0.0
C82 C 0.05547 0.26319 0.88105 0.0
O83 O 0.36499 0.89201 0.92827 0.0
O84 O 0.37053 0.5991 0.95162 0.0
O85 O 0.04784 0.72456 0.82716 0.0
O86 O 0.33574 0.02963 0.8214 0.0
O87 O 0.83371 0.87585 0.89214 0.0
O88 O 0.66595 0.06211 0.87189 0.0
O89 O 0.60131 0.47151 0.83516 0.0
O90 O 0.50264 0.70775 0.81041 0.0
O91 O 0.83558 0.55784 0.93486 0.0
O92 O 0.52373 0.28169 0.94361 0.0
C93 C 0.38614 0.78302 0.9596 0.0
O94 O 0.06083 0.44865 0.87912 0.0
O95 O 0.23531 0.25769 0.88304 0.0
C96 C 0.1643 0.85892 0.75694 0.0
C97 C 0.24673 0.81882 0.66953 0.0
C98 C 0.21069 0.65638 0.69865 0.0
C99 C 0.17121 0.67699 0.74206 0.0
C100 C 0.18894 0.01496 0.72719 0.0
C101 C 0.2296 0.99495 0.684 0.0
C102 C 0.1541 0.8952 0.80363 0.0
C103 C 0.84156 0.05743 0.88173 0.0
C104 C 0.57982 0.58121 0.80393 0.0
C105 C 0.74718 0.40604 1.0038 0.0
C106 C 0.82482 0.47449 0.09245 0.0
C107 C 0.96432 0.44356 0.06537 0.0
C108 C 0.92605 0.41053 1.02168 0.0
C109 C 0.59986 0.42481 1.03074 0.0
C110 C 0.63812 0.45813 0.07498 0.0
C111 C 0.71974 0.38474 0.9571 0.0
H112 H 0.22349 0.5195 0.68842 0.0
H113 H 0.15069 0.55226 0.76416 0.0
H114 H 0.18371 0.15583 0.73756 0.0
H115 H 0.25603 0.12232 0.66199 0.0
H116 H 0.10683 0.44751 0.07774 0.0
H117 H 0.03687 0.38861 1.00185 0.0
H118 H 0.45665 0.41603 1.01761 0.0
H119 H 0.52597 0.47709 0.095 0.0
loop_
_geom_bond_atom_site_label_1
_geom_bond_atom_site_label_2
_geom_bond_distance
_geom_bond_site_symmetry_2
_ccdc_geom_bond_type
Dy0 O3 2.307 . S
Dy0 O5 2.395 1_565 S
Dy0 O6 2.379 . S
Dy0 O8 2.339 . S
Dy0 O10 2.298 . S
Dy0 O14 2.275 . S
Dy0 C22 2.738 . S
Dy1 O4 2.298 1_655 S
Dy1 O7 2.275 1_655 S
Dy1 O9 2.307 . S
Dy1 O11 2.395 . S
Dy1 O12 2.379 . S
Dy1 O15 2.339 . S
Dy1 C31 2.738 . S
C2 O14 1.254 1_545 S
C2 O15 1.257 1_445 S
O3 Dy0 2.307 . S
O3 C13 1.266 . S
O4 Dy1 2.298 1_455 S
O4 C13 1.236 . S
O5 Dy0 2.395 1_545 S
O5 C22 1.255 1_545 S
O6 Dy0 2.379 . S
O6 C22 1.249 . S
O7 Dy1 2.275 1_455 S
O7 C23 1.254 . S
O8 Dy0 2.339 . S
O8 C23 1.257 . S
O9 Dy1 2.307 . S
O9 C24 1.266 . S
O10 Dy0 2.298 . S
O10 C24 1.236 1_455 S
O11 Dy1 2.395 . S
O11 C31 1.255 . S
O12 Dy1 2.379 . S
O12 C31 1.249 . S
C13 O3 1.266 . S
C13 O4 1.236 . S
O14 Dy0 2.275 . S
O14 C2 1.254 1_565 S
O15 Dy1 2.339 . S
O15 C2 1.257 1_665 S
C16 C19 1.344 1_565 S
C16 C20 1.328 . S
C16 C22 1.516 . S
C17 C18 1.304 . S
C17 C21 1.323 1_545 S
C18 C17 1.304 . S
C18 C19 1.371 1_556 S
C18 H32 0.930 . S
C19 C16 1.344 1_545 S
C19 C18 1.371 1_554 S
C19 H33 0.931 . S
C20 C16 1.328 . S
C20 C21 1.433 1_554 S
C20 H34 0.931 . S
C21 C17 1.323 1_565 S
C21 C20 1.433 1_556 S
C21 H35 0.933 . S
C22 Dy0 2.738 . S
C22 O5 1.255 1_565 S
C22 O6 1.249 . S
C22 C16 1.516 . S
C23 O7 1.254 . S
C23 O8 1.257 . S
C24 O9 1.266 . S
C24 O10 1.236 1_655 S
C25 C28 1.344 . S
C25 C29 1.328 . S
C25 C31 1.516 . S
C26 C27 1.304 . S
C26 C30 1.323 . S
C27 C26 1.304 . S
C27 C28 1.371 . S
C27 H36 0.930 . S
C28 C25 1.344 . S
C28 C27 1.371 . S
C28 H37 0.931 . S
C29 C25 1.328 . S
C29 C30 1.433 . S
C29 H38 0.931 . S
C30 C26 1.323 . S
C30 C29 1.433 . S
C30 H39 0.933 . S
C31 Dy1 2.738 . S
C31 O11 1.255 . S
C31 O12 1.249 . S
C31 C25 1.516 . S
H32 C18 0.930 . S
H33 C19 0.931 . S
H34 C20 0.931 . S
H35 C21 0.933 . S
H36 C27 0.930 . S
H37 C28 0.931 . S
H38 C29 0.931 . S
H39 C30 0.933 . S
Dy40 O43 2.307 . S
Dy40 O45 2.395 . S
Dy40 O46 2.379 . S
Dy40 O48 2.339 . S
Dy40 O50 2.298 1_565 S
Dy40 O54 2.275 . S
Dy40 C62 2.738 . S
Dy41 O44 2.298 1_545 S
Dy41 O47 2.275 . S
Dy41 O49 2.307 . S
Dy41 O51 2.395 . S
Dy41 O52 2.379 . S
Dy41 O55 2.339 . S
Dy41 C71 2.738 . S
C42 O54 1.254 1_545 S
C42 O55 1.257 . S
O43 Dy40 2.307 . S
O43 C53 1.266 . S
O44 Dy41 2.298 1_565 S
O44 C53 1.236 . S
O45 Dy40 2.395 . S
O45 C62 1.255 . S
O46 Dy40 2.379 . S
O46 C62 1.249 . S
O47 Dy41 2.275 . S
O47 C63 1.254 1_545 S
O48 Dy40 2.339 . S
O48 C63 1.257 . S
O49 Dy41 2.307 . S
O49 C64 1.266 . S
O50 Dy40 2.298 1_545 S
O50 C64 1.236 . S
O51 Dy41 2.395 . S
O51 C71 1.255 . S
O52 Dy41 2.379 . S
O52 C71 1.249 . S
C53 O43 1.266 . S
C53 O44 1.236 . S
O54 Dy40 2.275 . S
O54 C42 1.254 1_565 S
O55 Dy41 2.339 . S
O55 C42 1.257 . S
C56 C59 1.344 . S
C56 C60 1.328 . S
C56 C62 1.516 . S
C57 C58 1.304 . S
C57 C61 1.323 . S
C58 C57 1.304 . S
C58 C59 1.371 . S
C58 H72 0.930 . S
C59 C56 1.344 . S
C59 C58 1.371 . S
C59 H73 0.931 . S
C60 C56 1.328 . S
C60 C61 1.433 . S
C60 H74 0.931 1_455 S
C61 C57 1.323 . S
C61 C60 1.433 . S
C61 H75 0.933 1_455 S
C62 Dy40 2.738 . S
C62 O45 1.255 . S
C62 O46 1.249 . S
C62 C56 1.516 . S
C63 O47 1.254 1_565 S
C63 O48 1.257 . S
C64 O49 1.266 . S
C64 O50 1.236 . S
C65 C68 1.344 . S
C65 C69 1.328 . S
C65 C71 1.516 . S
C66 C67 1.304 . S
C66 C70 1.323 . S
C67 C66 1.304 . S
C67 C68 1.371 . S
C67 H76 0.930 . S
C68 C65 1.344 . S
C68 C67 1.371 . S
C68 H77 0.931 . S
C69 C65 1.328 . S
C69 C70 1.433 . S
C69 H78 0.931 . S
C70 C66 1.323 . S
C70 C69 1.433 . S
C70 H79 0.933 . S
C71 Dy41 2.738 . S
C71 O51 1.255 . S
C71 O52 1.249 . S
C71 C65 1.516 . S
H72 C58 0.930 . S
H73 C59 0.931 . S
H74 C60 0.931 1_655 S
H75 C61 0.933 1_655 S
H76 C67 0.930 . S
H77 C68 0.931 . S
H78 C69 0.931 . S
H79 C70 0.933 . S
Dy80 O83 2.307 . S
Dy80 O85 2.395 . S
Dy80 O86 2.379 1_565 S
Dy80 O88 2.339 1_565 S
Dy80 O90 2.298 . S
Dy80 O94 2.275 . S
Dy80 C102 2.738 . S
Dy81 O84 2.298 . S
Dy81 O87 2.275 . S
Dy81 O89 2.307 . S
Dy81 O91 2.395 . S
Dy81 O92 2.379 . S
Dy81 O95 2.339 . S
Dy81 C111 2.738 . S
C82 O94 1.254 . S
C82 O95 1.257 . S
O83 Dy80 2.307 . S
O83 C93 1.266 . S
O84 Dy81 2.298 . S
O84 C93 1.236 . S
O85 Dy80 2.395 . S
O85 C102 1.255 . S
O86 Dy80 2.379 1_545 S
O86 C102 1.249 1_545 S
O87 Dy81 2.275 . S
O87 C103 1.254 1_565 S
O88 Dy80 2.339 1_545 S
O88 C103 1.257 . S
O89 Dy81 2.307 . S
O89 C104 1.266 . S
O90 Dy80 2.298 . S
O90 C104 1.236 . S
O91 Dy81 2.395 . S
O91 C111 1.255 . S
O92 Dy81 2.379 . S
O92 C111 1.249 . S
C93 O83 1.266 . S
C93 O84 1.236 . S
O94 Dy80 2.275 . S
O94 C82 1.254 . S
O95 Dy81 2.339 . S
O95 C82 1.257 . S
C96 C99 1.344 1_455 S
C96 C100 1.328 1_565 S
C96 C102 1.516 . S
C97 C98 1.304 . S
C97 C101 1.323 1_665 S
C98 C97 1.304 . S
C98 C99 1.371 . S
C98 H112 0.930 . S
C99 C96 1.344 1_655 S
C99 C98 1.371 . S
C99 H113 0.931 . S
C100 C96 1.328 1_545 S
C100 C101 1.433 . S
C100 H114 0.931 . S
C101 C97 1.323 1_445 S
C101 C100 1.433 . S
C101 H115 0.933 . S
C102 Dy80 2.738 . S
C102 O85 1.255 . S
C102 O86 1.249 1_565 S
C102 C96 1.516 . S
C103 O87 1.254 1_545 S
C103 O88 1.257 . S
C104 O89 1.266 . S
C104 O90 1.236 . S
C105 C108 1.344 1_556 S
C105 C109 1.328 1_556 S
C105 C111 1.516 . S
C106 C107 1.304 . S
C106 C110 1.323 . S
C107 C106 1.304 . S
C107 C108 1.371 . S
C107 H116 0.930 1_655 S
C108 C105 1.344 1_554 S
C108 C107 1.371 . S
C108 H117 0.931 1_554 S
C109 C105 1.328 1_554 S
C109 C110 1.433 . S
C109 H118 0.931 1_554 S
C110 C106 1.323 . S
C110 C109 1.433 . S
C110 H119 0.933 . S
C111 Dy81 2.738 . S
C111 O91 1.255 . S
C111 O92 1.249 . S
C111 C105 1.516 . S
H112 C98 0.930 . S
H113 C99 0.931 . S
H114 C100 0.931 . S
H115 C101 0.933 . S
H116 C107 0.930 1_455 S
H117 C108 0.931 1_556 S
H118 C109 0.931 1_556 S
H119 C110 0.933 . S
C2 C23 2.142 . S
C63 C42 2.141 1_465 S
C103 C82 2.141 1_655 S
C93 C17 3.378 1_565 S
C64 C26 1.859 . S
C97 C53 3.377 1_655 S
C106 C24 1.860 . S
C13 C57 3.378 . S
C104 C66 1.859 . S
