# Generated by pormake.
# Topology fni, (5)-cn, num edge types: 1
# Building blocks:
#     Node 0, Type 0, BuildingBlock: XOMCOT_clean_sbu_1, # of connection points: 5
#     Node 1, Type 0, BuildingBlock: XOMCOT_clean_sbu_1, # of connection points: 5
#     Node 2, Type 0, BuildingBlock: XOMCOT_clean_sbu_1, # of connection points: 5
#     Node 3, Type 0, BuildingBlock: XOMCOT_clean_sbu_1, # of connection points: 5
#     Node 4, Type 0, BuildingBlock: XOMCOT_clean_sbu_1, # of connection points: 5
#     Node 5, Type 0, BuildingBlock: XOMCOT_clean_sbu_1, # of connection points: 5
#     Node 6, Type 0, BuildingBlock: XOMCOT_clean_sbu_1, # of connection points: 5
#     Node 7, Type 0, BuildingBlock: XOMCOT_clean_sbu_1, # of connection points: 5
#     Edge 8, Type (0, 0), None
#     Edge 9, Type (0, 0), None
#     Edge 10, Type (0, 0), None
#     Edge 11, Type (0, 0), None
#     Edge 12, Type (0, 0), None
#     Edge 13, Type (0, 0), None
#     Edge 14, Type (0, 0), None
#     Edge 15, Type (0, 0), None
#     Edge 16, Type (0, 0), None
#     Edge 17, Type (0, 0), None
#     Edge 18, Type (0, 0), None
#     Edge 19, Type (0, 0), None
#     Edge 20, Type (0, 0), None
#     Edge 21, Type (0, 0), None
#     Edge 22, Type (0, 0), None
#     Edge 23, Type (0, 0), None
#     Edge 24, Type (0, 0), None
#     Edge 25, Type (0, 0), None
#     Edge 26, Type (0, 0), None
#     Edge 27, Type (0, 0), None
# Relax obj value: 0.183
# Max RMSD: 0.175
# Mean RMSD: 0.167
data_MOF--net-fni--node1-XOMCOT_clean_sbu_1--edge1-none
_symmetry_space_group_name_H-M    P1
_symmetry_Int_Tables_number       1
_symmetry_cell_setting            triclinic
loop_
_symmetry_equiv_pos_as_xyz
'x, y, z'
_cell_length_a     27.434782
_cell_length_b     23.399028
_cell_length_c     9.3258576
_cell_angle_alpha  91.043788
_cell_angle_beta   91.568238
_cell_angle_gamma 91.268821
loop_
_atom_site_label
_atom_site_type_symbol
_atom_site_fract_x
_atom_site_fract_y
_atom_site_fract_z
_atom_type_partial_charge
C0 C 0.43597 0.50522 0.38142 0.0
C1 C 0.43924 0.50236 0.52892 0.0
N2 N 0.45917 0.45202 0.56196 0.0
N3 N 0.45323 0.45664 0.32385 0.0
C4 C 0.46762 0.42536 0.43663 0.0
H5 H 0.42163 0.54014 0.32 0.0
Co6 Co 0.45742 0.43769 0.13224 0.0
C7 C 0.43403 0.3107 0.13385 0.0
O8 O 0.40347 0.3131 0.02331 0.0
N9 N 0.46343 0.41958 0.93723 0.0
C10 C 0.48603 0.37902 0.732 0.0
C11 C 0.48516 0.3737 0.87852 0.0
C12 C 0.45385 0.45358 0.82478 0.0
N13 N 0.46624 0.42935 0.69967 0.0
O14 O 0.52618 0.4394 0.15025 0.0
H15 H 0.50113 0.33933 0.93822 0.0
H16 H 0.44007 0.49617 0.83361 0.0
O17 O 0.45649 0.35583 0.18156 0.0
C18 C 0.54677 0.48791 0.13228 0.0
O19 O 0.51988 0.53318 0.11618 0.0
N20 N 0.389 0.44097 0.11135 0.0
C21 C 0.29215 0.4525 0.02082 0.0
C22 C 0.30562 0.40786 0.11171 0.0
C23 C 0.35427 0.40385 0.15958 0.0
C24 C 0.37506 0.48906 0.04302 0.0
C25 C 0.32731 0.49488 0.99235 0.0
H26 H 0.36382 0.37045 0.23273 0.0
H27 H 0.40171 0.5225 0.02387 0.0
H28 H 0.48371 0.38376 0.42731 0.0
H29 H 0.4275 0.53434 0.60491 0.0
H30 H 0.50102 0.34899 0.65646 0.0
H31 H 0.27898 0.37633 0.14517 0.0
H32 H 0.3187 0.53144 0.92768 0.0
C33 C 0.62822 1.0287 0.04796 0.0
C34 C 0.62381 1.02663 0.90004 0.0
N35 N 0.58808 0.98836 0.86394 0.0
N36 N 0.59573 0.99142 0.10333 0.0
C37 C 0.57148 0.96811 0.98785 0.0
H38 H 0.65333 0.05603 0.11024 0.0
Co39 Co 0.58237 0.97583 0.29441 0.0
C40 C 0.53377 0.86242 0.20924 0.0
O41 O 0.48916 0.88021 0.22556 0.0
N42 N 0.56873 0.96104 0.48551 0.0
C43 C 0.54568 0.9229 0.69065 0.0
C44 C 0.54312 0.91759 0.54355 0.0
C45 C 0.58594 0.99266 0.59948 0.0
N46 N 0.57281 0.96996 0.72473 0.0
O47 O 0.51609 0.99481 0.25943 0.0
H48 H 0.52455 0.88318 0.48489 0.0
H49 H 0.60823 1.03102 0.59085 0.0
O50 O 0.5704 0.89579 0.23705 0.0
C51 C 0.50841 1.04831 0.25663 0.0
O52 O 0.54548 0.08464 0.27095 0.0
N53 N 0.64812 0.96191 0.3356 0.0
C54 C 0.74203 0.95547 0.45652 0.0
C55 C 0.71615 0.90573 0.40993 0.0
C56 C 0.66898 0.90976 0.35045 0.0
C57 C 0.67314 1.01057 0.37695 0.0
C58 C 0.7199 1.00841 0.43813 0.0
H59 H 0.64915 0.87073 0.32149 0.0
H60 H 0.65546 0.05132 0.36943 0.0
H61 H 0.54159 0.9376 0.99416 0.0
H62 H 0.64536 0.05075 0.82572 0.0
H63 H 0.53017 0.89346 0.76603 0.0
H64 H 0.73201 0.86398 0.42013 0.0
H65 H 0.73777 1.04793 0.47478 0.0
C66 C 0.03248 0.11336 0.34383 0.0
C67 C 0.03602 0.11138 0.1963 0.0
N68 N 0.08343 0.106 0.16628 0.0
N69 N 0.0775 0.10963 0.40473 0.0
C70 C 0.10761 0.10433 0.29342 0.0
H71 H 0.99952 0.11928 0.40288 0.0
Co72 Co 0.09514 0.11542 0.59856 0.0
C73 C 0.19241 0.18192 0.55626 0.0
O74 O 0.18666 0.22655 0.64126 0.0
N75 N 0.11237 0.11916 0.794 0.0
C76 C 0.15206 0.12138 1.00581 0.0
C77 C 0.15674 0.12579 0.85994 0.0
C78 C 0.08162 0.10852 0.90175 0.0
N79 N 0.10473 0.11074 0.03094 0.0
O80 O 0.12074 1.03981 0.59147 0.0
H81 H 0.19089 0.13138 0.80687 0.0
H82 H 0.04336 0.09755 0.88575 0.0
O83 O 0.15959 0.14252 0.54504 0.0
C84 C 0.0994 0.99196 0.61224 0.0
O85 O 0.12488 0.94514 0.60837 0.0
N86 N 0.06998 0.19077 0.60694 0.0
C87 C 0.04236 0.30286 0.66339 0.0
C88 C 0.07649 0.29114 0.55853 0.0
C89 C 0.08826 0.23445 0.52765 0.0
C90 C 0.03243 0.20104 0.69641 0.0
C91 C 0.0182 0.25698 0.72712 0.0
H92 H 0.11342 0.22609 0.44325 0.0
H93 H 0.01392 0.16602 0.74698 0.0
H94 H 0.14667 0.10072 0.30475 0.0
H95 H 0.00658 0.11616 0.11817 0.0
H96 H 0.18115 0.12549 0.08627 0.0
H97 H 0.09415 0.3255 0.5017 0.0
H98 H 0.99023 0.26433 0.80469 0.0
C99 C 0.83549 0.59895 0.51875 0.0
C100 C 0.84041 0.60113 0.37183 0.0
N101 N 0.87983 0.63419 0.34669 0.0
N102 N 0.87143 0.63102 0.58494 0.0
C103 C 0.8981 0.65122 0.47612 0.0
H104 H 0.80724 0.57544 0.57213 0.0
Co105 Co 0.88641 0.64641 0.78049 0.0
C106 C 0.93953 0.75628 0.70794 0.0
O107 O 0.98318 0.73774 0.74066 0.0
N108 N 0.90168 0.66091 0.97468 0.0
C109 C 0.92513 0.69788 0.18805 0.0
C110 C 0.92819 0.70341 0.04174 0.0
C111 C 0.88317 0.6299 0.0823 0.0
N112 N 0.89657 0.65182 0.21237 0.0
O113 O 0.95145 0.62336 0.75189 0.0
H114 H 0.9472 0.73765 0.98971 0.0
H115 H 0.85934 0.59283 0.06538 0.0
O116 O 0.90165 0.72491 0.72597 0.0
C117 C 0.95867 0.56976 0.75228 0.0
O118 O 0.92144 0.53402 0.76323 0.0
N119 N 0.82193 0.66525 0.81751 0.0
C120 C 0.73625 0.67715 0.96845 0.0
C121 C 0.76521 0.72524 0.93756 0.0
C122 C 0.80806 0.71845 0.86145 0.0
C123 C 0.79325 0.61847 0.84269 0.0
C124 C 0.74996 0.62351 0.91602 0.0
H125 H 0.8316 0.75548 0.84883 0.0
H126 H 0.80631 0.57628 0.81777 0.0
H127 H 0.93074 0.67751 0.49111 0.0
H128 H 0.81646 0.58108 0.29067 0.0
H129 H 0.94088 0.72682 0.2694 0.0
H130 H 0.75573 0.76745 0.97573 0.0
H131 H 0.72901 0.58514 0.93901 0.0
C132 C 0.33549 0.09896 0.01876 0.0
C133 C 0.34041 0.10114 0.87185 0.0
N134 N 0.37984 0.13419 0.8467 0.0
N135 N 0.37143 0.13102 0.08495 0.0
C136 C 0.39811 0.15123 0.97613 0.0
H137 H 0.30724 0.07545 0.07214 0.0
Co138 Co 0.38642 0.14642 0.2805 0.0
C139 C 0.43953 0.25629 0.20796 0.0
O140 O 0.48318 0.23775 0.24063 0.0
N141 N 0.40168 0.16092 0.47469 0.0
C142 C 0.42514 0.19788 0.68806 0.0
C143 C 0.4282 0.2034 0.54175 0.0
C144 C 0.38317 0.1299 0.58231 0.0
N145 N 0.39658 0.15182 0.71238 0.0
O146 O 0.45146 0.12336 0.2519 0.0
H147 H 0.44722 0.23764 0.48971 0.0
H148 H 0.35934 0.09283 0.56539 0.0
O149 O 0.40165 0.22491 0.22599 0.0
C150 C 0.45868 0.06976 0.25228 0.0
O151 O 0.42144 1.03402 0.26323 0.0
N152 N 0.32193 0.16526 0.31753 0.0
C153 C 0.23625 0.17715 0.46846 0.0
C154 C 0.26522 0.22524 0.43758 0.0
C155 C 0.30806 0.21845 0.36147 0.0
C156 C 0.29325 0.11847 0.3427 0.0
C157 C 0.24996 0.12351 0.41603 0.0
H158 H 0.3316 0.25548 0.34885 0.0
H159 H 0.30631 0.07628 0.31778 0.0
H160 H 0.43075 0.17752 0.99112 0.0
H161 H 0.31647 0.08108 0.79068 0.0
H162 H 0.4409 0.22682 0.76941 0.0
H163 H 0.25574 0.26745 0.47576 0.0
H164 H 0.22901 0.08514 0.43901 0.0
C165 C 0.93597 1.00521 0.88143 0.0
C166 C 0.93925 1.00236 0.02892 0.0
N167 N 0.95917 0.95201 0.06196 0.0
N168 N 0.95323 0.95664 0.82385 0.0
C169 C 0.96763 0.92535 0.93663 0.0
H170 H 0.92163 1.04014 0.82 0.0
Co171 Co 0.95742 0.93768 0.63224 0.0
C172 C 0.93403 0.81069 0.63384 0.0
O173 O 0.90347 0.8131 0.5233 0.0
N174 N 0.96343 0.91958 0.43723 0.0
C175 C 0.98604 0.87902 0.23201 0.0
C176 C 0.98516 0.87369 0.37852 0.0
C177 C 0.95385 0.95357 0.32478 0.0
N178 N 0.96625 0.92935 0.19967 0.0
O179 O 0.02619 0.9394 0.65025 0.0
H180 H 1.00113 0.83933 0.43822 0.0
H181 H 0.94007 0.99617 0.33361 0.0
O182 O 0.95649 0.85582 0.68156 0.0
C183 C 0.04677 0.98791 0.63229 0.0
O184 O 0.01988 1.03318 0.61619 0.0
N185 N 0.889 0.94097 0.61135 0.0
C186 C 0.79215 0.9525 0.52083 0.0
C187 C 0.80562 0.90786 0.61172 0.0
C188 C 0.85427 0.90385 0.65958 0.0
C189 C 0.87507 0.98906 0.54302 0.0
C190 C 0.82732 0.99488 0.49236 0.0
H191 H 0.86382 0.87045 0.73273 0.0
H192 H 0.90172 1.0225 0.52387 0.0
H193 H 0.98371 0.88376 0.92731 0.0
H194 H 0.92751 1.03434 0.10491 0.0
H195 H 1.00103 0.84899 0.15646 0.0
H196 H 0.77898 0.87633 0.64517 0.0
H197 H 0.8187 1.03144 0.42769 0.0
C198 C 0.12821 0.5287 0.54796 0.0
C199 C 0.12381 0.52663 0.40004 0.0
N200 N 0.08808 0.48836 0.36394 0.0
N201 N 0.09573 0.49142 0.60333 0.0
C202 C 0.07148 0.4681 0.48785 0.0
H203 H 0.15333 0.55603 0.61024 0.0
Co204 Co 0.08236 0.47582 0.79441 0.0
C205 C 0.03376 0.36242 0.70924 0.0
O206 O 0.98915 0.38021 0.72557 0.0
N207 N 0.06873 0.46103 0.98551 0.0
C208 C 0.04568 0.42289 0.19065 0.0
C209 C 0.04312 0.41758 0.04355 0.0
C210 C 0.08593 0.49266 0.09948 0.0
N211 N 0.07281 0.46996 0.22473 0.0
O212 O 0.01609 0.49481 0.75943 0.0
H213 H 0.02455 0.38317 0.98489 0.0
H214 H 0.10823 0.53102 0.09085 0.0
O215 O 0.0704 0.39578 0.73705 0.0
C216 C 0.0084 0.54831 0.75664 0.0
O217 O 0.04548 0.58463 0.77095 0.0
N218 N 0.14811 0.4619 0.83559 0.0
C219 C 0.24203 0.45547 0.95651 0.0
C220 C 0.21615 0.40573 0.90993 0.0
C221 C 0.16897 0.40976 0.85045 0.0
C222 C 0.17314 0.51057 0.87695 0.0
C223 C 0.21989 0.50841 0.93813 0.0
H224 H 0.14915 0.37073 0.82149 0.0
H225 H 0.15546 0.55132 0.86943 0.0
H226 H 0.04158 0.4376 0.49416 0.0
H227 H 0.14536 0.55075 0.32572 0.0
H228 H 0.03017 0.39345 0.26603 0.0
H229 H 0.23201 0.36398 0.92012 0.0
H230 H 0.23777 0.54793 0.97477 0.0
C231 C 0.53248 0.61337 0.84382 0.0
C232 C 0.53602 0.61139 0.69629 0.0
N233 N 0.58343 0.60601 0.66627 0.0
N234 N 0.5775 0.60963 0.90472 0.0
C235 C 0.60761 0.60434 0.79341 0.0
H236 H 0.49952 0.61929 0.90286 0.0
Co237 Co 0.59514 0.61542 0.09855 0.0
C238 C 0.69241 0.68193 0.05625 0.0
O239 O 0.68666 0.72655 0.14124 0.0
N240 N 0.61237 0.61917 0.29399 0.0
C241 C 0.65205 0.62138 0.5058 0.0
C242 C 0.65674 0.6258 0.35993 0.0
C243 C 0.58161 0.60852 0.40173 0.0
N244 N 0.60473 0.61075 0.53093 0.0
O245 O 0.62073 0.53981 0.09146 0.0
H246 H 0.69089 0.63139 0.30686 0.0
H247 H 0.54336 0.59755 0.38574 0.0
O248 O 0.65959 0.64252 0.04503 0.0
C249 C 0.5994 0.49197 0.11222 0.0
O250 O 0.62487 0.44514 0.10837 0.0
N251 N 0.56998 0.69077 0.10693 0.0
C252 C 0.54236 0.80287 0.16339 0.0
C253 C 0.57649 0.79114 0.05852 0.0
C254 C 0.58826 0.73446 0.02764 0.0
C255 C 0.53243 0.70104 0.1964 0.0
C256 C 0.5182 0.75699 0.22711 0.0
H257 H 0.61342 0.72609 0.94324 0.0
H258 H 0.51392 0.66603 0.24696 0.0
H259 H 0.64667 0.60072 0.80474 0.0
H260 H 0.50657 0.61617 0.61816 0.0
H261 H 0.68115 0.6255 0.58626 0.0
H262 H 0.59415 0.82551 1.0017 0.0
H263 H 0.49023 0.76433 0.30468 0.0
loop_
_geom_bond_atom_site_label_1
_geom_bond_atom_site_label_2
_geom_bond_distance
_geom_bond_site_symmetry_2
_ccdc_geom_bond_type
C0 C1 1.351 . S
C0 N3 1.368 . S
C0 H5 0.931 . S
C1 C0 1.351 . S
C1 N2 1.373 . S
C1 H29 0.930 . S
N2 C1 1.373 . S
N2 C4 1.340 . S
N3 C0 1.368 . S
N3 C4 1.321 . S
N3 Co6 2.135 . S
C4 N2 1.340 . S
C4 N3 1.321 . S
C4 H28 0.930 . S
H5 C0 0.931 . S
Co6 N3 2.135 . S
Co6 N9 2.121 1_554 S
Co6 O14 2.055 . S
Co6 O17 2.039 . S
Co6 N20 2.140 . S
C7 O8 1.227 . S
C7 O17 1.265 . S
O8 C7 1.227 . S
N9 Co6 2.121 1_556 S
N9 C11 1.375 . S
N9 C12 1.313 . S
C10 C11 1.338 . S
C10 N13 1.377 . S
C10 H30 0.930 . S
C11 N9 1.375 . S
C11 C10 1.338 . S
C11 H15 0.931 . S
C12 N9 1.313 . S
C12 N13 1.344 . S
C12 H16 0.930 . S
N13 C10 1.377 . S
N13 C12 1.344 . S
O14 Co6 2.055 . S
O14 C18 1.253 . S
H15 C11 0.931 . S
H16 C12 0.930 . S
O17 Co6 2.039 . S
O17 C7 1.265 . S
C18 O14 1.253 . S
C18 O19 1.227 . S
O19 C18 1.227 . S
N20 Co6 2.140 . S
N20 C23 1.346 . S
N20 C24 1.345 1_554 S
C21 C22 1.387 . S
C21 C25 1.391 1_554 S
C22 C21 1.387 . S
C22 C23 1.369 . S
C22 H31 0.929 . S
C23 N20 1.346 . S
C23 C22 1.369 . S
C23 H26 0.928 . S
C24 N20 1.345 1_556 S
C24 C25 1.371 . S
C24 H27 0.931 . S
C25 C21 1.391 1_556 S
C25 C24 1.371 . S
C25 H32 0.930 . S
H26 C23 0.928 . S
H27 C24 0.931 . S
H28 C4 0.930 . S
H29 C1 0.930 . S
H30 C10 0.930 . S
H31 C22 0.929 . S
H32 C25 0.930 . S
C33 C34 1.351 1_554 S
C33 N36 1.368 . S
C33 H38 0.939 . S
C34 C33 1.351 1_556 S
C34 N35 1.373 . S
C34 H62 0.930 . S
N35 C34 1.373 . S
N35 C37 1.340 . S
N36 C33 1.368 . S
N36 C37 1.321 1_554 S
N36 Co39 2.135 . S
C37 N35 1.340 . S
C37 N36 1.321 1_556 S
C37 H61 0.930 . S
H38 C33 0.939 . S
Co39 N36 2.135 . S
Co39 N42 2.121 . S
Co39 O47 2.055 . S
Co39 O50 2.039 . S
Co39 N53 2.140 . S
C40 O41 1.227 . S
C40 O50 1.265 . S
O41 C40 1.227 . S
N42 Co39 2.121 . S
N42 C44 1.375 . S
N42 C45 1.313 . S
C43 C44 1.338 . S
C43 N46 1.377 . S
C43 H63 0.930 . S
C44 N42 1.375 . S
C44 C43 1.338 . S
C44 H48 0.931 . S
C45 N42 1.313 . S
C45 N46 1.344 . S
C45 H49 0.930 . S
N46 C43 1.377 . S
N46 C45 1.344 . S
O47 Co39 2.055 . S
O47 C51 1.253 . S
H48 C44 0.931 . S
H49 C45 0.930 . S
O50 Co39 2.039 . S
O50 C40 1.265 . S
C51 O47 1.253 . S
C51 O52 1.227 . S
O52 C51 1.227 . S
N53 Co39 2.140 . S
N53 C56 1.346 . S
N53 C57 1.345 . S
C54 C55 1.387 . S
C54 C58 1.391 . S
C55 C54 1.387 . S
C55 C56 1.369 . S
C55 H64 0.929 . S
C56 N53 1.346 . S
C56 C55 1.369 . S
C56 H59 0.928 . S
C57 N53 1.345 . S
C57 C58 1.371 . S
C57 H60 0.931 . S
C58 C54 1.391 . S
C58 C57 1.371 . S
C58 H65 0.930 . S
H59 C56 0.928 . S
H60 C57 0.931 . S
H61 C37 0.930 . S
H62 C34 0.930 . S
H63 C43 0.930 . S
H64 C55 0.929 . S
H65 C58 0.930 . S
C66 C67 1.351 . S
C66 N69 1.368 . S
C66 H71 0.931 . S
C67 C66 1.351 . S
C67 N68 1.373 . S
C67 H95 0.930 . S
N68 C67 1.373 . S
N68 C70 1.340 . S
N69 C66 1.368 . S
N69 C70 1.321 . S
N69 Co72 2.135 . S
C70 N68 1.340 . S
C70 N69 1.321 . S
C70 H94 0.930 . S
H71 C66 0.931 . S
Co72 N69 2.135 . S
Co72 N75 2.121 . S
Co72 O80 2.055 1_545 S
Co72 O83 2.039 . S
Co72 N86 2.140 . S
C73 O74 1.227 . S
C73 O83 1.265 . S
O74 C73 1.227 . S
N75 Co72 2.121 . S
N75 C77 1.375 . S
N75 C78 1.313 . S
C76 C77 1.338 . S
C76 N79 1.377 . S
C76 H96 0.930 . S
C77 N75 1.375 . S
C77 C76 1.338 . S
C77 H81 0.931 . S
C78 N75 1.313 . S
C78 N79 1.344 . S
C78 H82 0.930 . S
N79 C76 1.377 . S
N79 C78 1.344 . S
O80 Co72 2.055 1_565 S
O80 C84 1.253 1_565 S
H81 C77 0.931 . S
H82 C78 0.930 . S
O83 Co72 2.039 . S
O83 C73 1.265 . S
C84 O80 1.253 1_545 S
C84 O85 1.227 . S
O85 C84 1.227 . S
N86 Co72 2.140 . S
N86 C89 1.346 . S
N86 C90 1.345 . S
C87 C88 1.387 . S
C87 C91 1.391 . S
C88 C87 1.387 . S
C88 C89 1.369 . S
C88 H97 0.929 . S
C89 N86 1.346 . S
C89 C88 1.369 . S
C89 H92 0.928 . S
C90 N86 1.345 . S
C90 C91 1.371 . S
C90 H93 0.931 . S
C91 C87 1.391 . S
C91 C90 1.371 . S
C91 H98 0.930 . S
H92 C89 0.928 . S
H93 C90 0.931 . S
H94 C70 0.930 . S
H95 C67 0.930 . S
H96 C76 0.930 . S
H97 C88 0.929 . S
H98 C91 0.930 . S
C99 C100 1.351 . S
C99 N102 1.368 . S
C99 H104 0.931 . S
C100 C99 1.351 . S
C100 N101 1.373 . S
C100 H128 0.930 . S
N101 C100 1.373 . S
N101 C103 1.340 . S
N102 C99 1.368 . S
N102 C103 1.321 . S
N102 Co105 2.135 . S
C103 N101 1.340 . S
C103 N102 1.321 . S
C103 H127 0.930 . S
H104 C99 0.931 . S
Co105 N102 2.135 . S
Co105 N108 2.121 1_556 S
Co105 O113 2.055 . S
Co105 O116 2.039 . S
Co105 N119 2.140 . S
C106 O107 1.227 . S
C106 O116 1.265 . S
O107 C106 1.227 . S
N108 Co105 2.121 1_554 S
N108 C110 1.375 . S
N108 C111 1.313 . S
C109 C110 1.338 . S
C109 N112 1.377 . S
C109 H129 0.930 . S
C110 N108 1.375 . S
C110 C109 1.338 . S
C110 H114 0.931 . S
C111 N108 1.313 . S
C111 N112 1.344 . S
C111 H115 0.930 . S
N112 C109 1.377 . S
N112 C111 1.344 . S
O113 Co105 2.055 . S
O113 C117 1.253 . S
H114 C110 0.931 . S
H115 C111 0.930 . S
O116 Co105 2.039 . S
O116 C106 1.265 . S
C117 O113 1.253 . S
C117 O118 1.227 . S
O118 C117 1.227 . S
N119 Co105 2.140 . S
N119 C122 1.346 . S
N119 C123 1.345 . S
C120 C121 1.387 . S
C120 C124 1.391 . S
C121 C120 1.387 . S
C121 C122 1.369 . S
C121 H130 0.929 . S
C122 N119 1.346 . S
C122 C121 1.369 . S
C122 H125 0.928 . S
C123 N119 1.345 . S
C123 C124 1.371 . S
C123 H126 0.931 1_556 S
C124 C120 1.391 . S
C124 C123 1.371 . S
C124 H131 0.930 1_556 S
H125 C122 0.928 . S
H126 C123 0.931 1_554 S
H127 C103 0.930 . S
H128 C100 0.930 . S
H129 C109 0.930 . S
H130 C121 0.929 . S
H131 C124 0.930 1_554 S
C132 C133 1.351 1_554 S
C132 N135 1.368 . S
C132 H137 0.931 . S
C133 C132 1.351 1_556 S
C133 N134 1.373 . S
C133 H161 0.930 . S
N134 C133 1.373 . S
N134 C136 1.340 1_556 S
N135 C132 1.368 . S
N135 C136 1.321 . S
N135 Co138 2.135 . S
C136 N134 1.340 1_554 S
C136 N135 1.321 . S
C136 H160 0.930 . S
H137 C132 0.931 . S
Co138 N135 2.135 . S
Co138 N141 2.121 . S
Co138 O146 2.055 . S
Co138 O149 2.039 . S
Co138 N152 2.140 . S
C139 O140 1.227 . S
C139 O149 1.265 . S
O140 C139 1.227 . S
N141 Co138 2.121 . S
N141 C143 1.375 . S
N141 C144 1.313 . S
C142 C143 1.338 . S
C142 N145 1.377 . S
C142 H162 0.930 . S
C143 N141 1.375 . S
C143 C142 1.338 . S
C143 H147 0.931 . S
C144 N141 1.313 . S
C144 N145 1.344 . S
C144 H148 0.930 . S
N145 C142 1.377 . S
N145 C144 1.344 . S
O146 Co138 2.055 . S
O146 C150 1.253 . S
H147 C143 0.931 . S
H148 C144 0.930 . S
O149 Co138 2.039 . S
O149 C139 1.265 . S
C150 O146 1.253 . S
C150 O151 1.227 . S
O151 C150 1.227 . S
N152 Co138 2.140 . S
N152 C155 1.346 . S
N152 C156 1.345 . S
C153 C154 1.387 . S
C153 C157 1.391 . S
C154 C153 1.387 . S
C154 C155 1.369 . S
C154 H163 0.929 . S
C155 N152 1.346 . S
C155 C154 1.369 . S
C155 H158 0.928 . S
C156 N152 1.345 . S
C156 C157 1.371 . S
C156 H159 0.931 . S
C157 C153 1.391 . S
C157 C156 1.371 . S
C157 H164 0.930 . S
H158 C155 0.928 . S
H159 C156 0.931 . S
H160 C136 0.930 . S
H161 C133 0.930 . S
H162 C142 0.930 . S
H163 C154 0.929 . S
H164 C157 0.930 . S
C165 C166 1.351 . S
C165 N168 1.368 . S
C165 H170 0.931 . S
C166 C165 1.351 . S
C166 N167 1.373 1_556 S
C166 H194 0.930 1_556 S
N167 C166 1.373 1_554 S
N167 C169 1.340 1_554 S
N168 C165 1.368 . S
N168 C169 1.321 . S
N168 Co171 2.135 . S
C169 N167 1.340 1_556 S
C169 N168 1.321 . S
C169 H193 0.930 . S
H170 C165 0.931 . S
Co171 N168 2.135 . S
Co171 N174 2.121 . S
Co171 O179 2.055 1_655 S
Co171 O182 2.039 . S
Co171 N185 2.140 . S
C172 O173 1.227 . S
C172 O182 1.265 . S
O173 C172 1.227 . S
N174 Co171 2.121 . S
N174 C176 1.375 . S
N174 C177 1.313 . S
C175 C176 1.338 . S
C175 N178 1.377 . S
C175 H195 0.930 . S
C176 N174 1.375 . S
C176 C175 1.338 . S
C176 H180 0.931 . S
C177 N174 1.313 . S
C177 N178 1.344 . S
C177 H181 0.930 . S
N178 C175 1.377 . S
N178 C177 1.344 . S
O179 Co171 2.055 1_455 S
O179 C183 1.246 1_455 S
H180 C176 0.931 . S
H181 C177 0.930 . S
O182 Co171 2.039 . S
O182 C172 1.265 . S
C183 O179 1.246 1_655 S
C183 O184 1.249 . S
O184 C183 1.249 . S
N185 Co171 2.140 . S
N185 C188 1.346 . S
N185 C189 1.345 . S
C186 C187 1.387 . S
C186 C190 1.391 . S
C187 C186 1.387 . S
C187 C188 1.369 . S
C187 H196 0.929 . S
C188 N185 1.346 . S
C188 C187 1.369 . S
C188 H191 0.928 . S
C189 N185 1.345 . S
C189 C190 1.371 . S
C189 H192 0.931 . S
C190 C186 1.391 . S
C190 C189 1.371 . S
C190 H197 0.930 . S
H191 C188 0.928 . S
H192 C189 0.931 . S
H193 C169 0.930 . S
H194 C166 0.930 1_554 S
H195 C175 0.930 . S
H196 C187 0.929 . S
H197 C190 0.930 . S
C198 C199 1.351 . S
C198 N201 1.368 . S
C198 H203 0.931 . S
C199 C198 1.351 . S
C199 N200 1.373 . S
C199 H227 0.930 . S
N200 C199 1.373 . S
N200 C202 1.340 . S
N201 C198 1.368 . S
N201 C202 1.321 . S
N201 Co204 2.135 . S
C202 N200 1.340 . S
C202 N201 1.321 . S
C202 H226 0.930 . S
H203 C198 0.931 . S
Co204 N201 2.135 . S
Co204 N207 2.121 1_556 S
Co204 O212 2.055 1_455 S
Co204 O215 2.039 . S
Co204 N218 2.140 . S
C205 O206 1.227 . S
C205 O215 1.265 . S
O206 C205 1.227 . S
N207 Co204 2.121 1_554 S
N207 C209 1.375 . S
N207 C210 1.313 . S
C208 C209 1.338 . S
C208 N211 1.377 . S
C208 H228 0.930 . S
C209 N207 1.375 . S
C209 C208 1.338 . S
C209 H213 0.931 . S
C210 N207 1.313 . S
C210 N211 1.344 . S
C210 H214 0.930 . S
N211 C208 1.377 . S
N211 C210 1.344 . S
O212 Co204 2.055 1_655 S
O212 C216 1.253 1_655 S
H213 C209 0.931 . S
H214 C210 0.930 . S
O215 Co204 2.039 . S
O215 C205 1.265 . S
C216 O212 1.253 1_455 S
C216 O217 1.227 . S
O217 C216 1.227 . S
N218 Co204 2.140 . S
N218 C221 1.346 . S
N218 C222 1.345 . S
C219 C220 1.387 . S
C219 C223 1.393 . S
C220 C219 1.387 . S
C220 C221 1.369 . S
C220 H229 0.929 . S
C221 N218 1.346 . S
C221 C220 1.369 . S
C221 H224 0.928 . S
C222 N218 1.345 . S
C222 C223 1.372 . S
C222 H225 0.931 1_556 S
C223 C219 1.393 . S
C223 C222 1.372 . S
C223 H230 0.928 1_556 S
H224 C221 0.928 . S
H225 C222 0.931 1_554 S
H226 C202 0.930 . S
H227 C199 0.930 . S
H228 C208 0.930 . S
H229 C220 0.929 . S
H230 C223 0.928 1_554 S
C231 C232 1.351 . S
C231 N234 1.368 . S
C231 H236 0.931 . S
C232 C231 1.351 . S
C232 N233 1.373 . S
C232 H260 0.930 . S
N233 C232 1.373 . S
N233 C235 1.340 . S
N234 C231 1.368 . S
N234 C235 1.321 . S
N234 Co237 2.135 1_556 S
C235 N233 1.340 . S
C235 N234 1.321 . S
C235 H259 0.930 . S
H236 C231 0.931 . S
Co237 N234 2.135 1_554 S
Co237 N240 2.121 . S
Co237 O245 2.054 . S
Co237 O248 2.039 1_554 S
Co237 N251 2.140 . S
C238 O239 1.227 . S
C238 O248 1.265 . S
O239 C238 1.227 . S
N240 Co237 2.121 . S
N240 C242 1.375 . S
N240 C243 1.313 . S
C241 C242 1.338 . S
C241 N244 1.377 . S
C241 H261 0.930 . S
C242 N240 1.375 . S
C242 C241 1.338 . S
C242 H246 0.931 . S
C243 N240 1.313 . S
C243 N244 1.344 . S
C243 H247 0.930 . S
N244 C241 1.377 . S
N244 C243 1.344 . S
O245 Co237 2.054 . S
O245 C249 1.254 . S
H246 C242 0.931 . S
H247 C243 0.930 . S
O248 Co237 2.039 1_556 S
O248 C238 1.265 . S
C249 O245 1.254 . S
C249 O250 1.227 . S
O250 C249 1.227 . S
N251 Co237 2.140 . S
N251 C254 1.346 1_554 S
N251 C255 1.345 . S
C252 C253 1.387 1_554 S
C252 C256 1.391 . S
C253 C252 1.387 1_556 S
C253 C254 1.369 . S
C253 H262 0.929 . S
C254 N251 1.346 1_556 S
C254 C253 1.369 . S
C254 H257 0.928 . S
C255 N251 1.345 . S
C255 C256 1.371 . S
C255 H258 0.931 . S
C256 C252 1.391 . S
C256 C255 1.371 . S
C256 H263 0.930 . S
H257 C254 0.928 . S
H258 C255 0.931 . S
H259 C235 0.930 . S
H260 C232 0.930 . S
H261 C241 0.930 . S
H262 C253 0.929 . S
H263 C256 0.930 . S
C249 C18 1.198 . S
C150 C51 1.224 1_545 S
C183 C84 1.186 1_665 S
C216 C117 1.225 1_455 S
N2 N13 1.905 . S
N35 N46 1.761 . S
N79 N68 1.855 1_556 S
N112 N101 1.905 . S
N134 N145 1.905 . S
N178 N167 1.905 . S
N200 N211 1.761 . S
N233 N244 1.855 . S
C219 C21 1.651 1_556 S
C40 C252 1.760 . S
C153 C73 1.889 . S
C106 C172 1.878 . S
C186 C54 1.651 . S
C87 C205 1.760 . S
C238 C120 1.889 . S
C7 C139 1.878 . S
