# Generated by pormake.
# Topology fne, (5)-cn, num edge types: 1
# Building blocks:
#     Node 0, Type 0, BuildingBlock: XOMCOT_clean_sbu_0, # of connection points: 5
#     Node 1, Type 0, BuildingBlock: XOMCOT_clean_sbu_0, # of connection points: 5
#     Node 2, Type 0, BuildingBlock: XOMCOT_clean_sbu_0, # of connection points: 5
#     Node 3, Type 0, BuildingBlock: XOMCOT_clean_sbu_0, # of connection points: 5
#     Node 4, Type 0, BuildingBlock: XOMCOT_clean_sbu_0, # of connection points: 5
#     Node 5, Type 0, BuildingBlock: XOMCOT_clean_sbu_0, # of connection points: 5
#     Edge 6, Type (0, 0), None
#     Edge 7, Type (0, 0), None
#     Edge 8, Type (0, 0), None
#     Edge 9, Type (0, 0), None
#     Edge 10, Type (0, 0), None
#     Edge 11, Type (0, 0), None
#     Edge 12, Type (0, 0), None
#     Edge 13, Type (0, 0), None
#     Edge 14, Type (0, 0), None
#     Edge 15, Type (0, 0), None
#     Edge 16, Type (0, 0), None
#     Edge 17, Type (0, 0), None
#     Edge 18, Type (0, 0), None
#     Edge 19, Type (0, 0), None
#     Edge 20, Type (0, 0), None
# Relax obj value: 0.090
# Max RMSD: 0.115
# Mean RMSD: 0.115
data_MOF--net-fne--node1-XOMCOT_clean_sbu_0--edge1-none
_symmetry_space_group_name_H-M    P1
_symmetry_Int_Tables_number       1
_symmetry_cell_setting            triclinic
loop_
_symmetry_equiv_pos_as_xyz
'x, y, z'
_cell_length_a     21.959535
_cell_length_b     21.959195
_cell_length_c     9.1723101
_cell_angle_alpha  89.997119
_cell_angle_beta   90.005416
_cell_angle_gamma 120.00092
loop_
_atom_site_label
_atom_site_type_symbol
_atom_site_fract_x
_atom_site_fract_y
_atom_site_fract_z
_atom_type_partial_charge
Co0 Co 0.39938 0.15067 0.079 0.0
C1 C 0.42336 0.14872 0.39173 0.0
C2 C 0.32103 0.06617 0.33159 0.0
C3 C 0.32123 0.07885 0.47954 0.0
N4 N 0.38501 0.11104 0.27508 0.0
N5 N 0.38561 0.13186 0.51495 0.0
H6 H 0.47384 0.19569 0.3845 0.0
H7 H 0.2746 1.03365 0.2673 0.0
C8 C 0.31863 0.99898 0.96994 0.0
O9 O 0.35999 0.98225 0.04148 0.0
N10 N 0.41178 0.19013 0.88533 0.0
C11 C 0.47492 0.2351 0.82675 0.0
C12 C 0.47184 0.22378 0.67842 0.0
C13 C 0.37011 0.15513 0.77045 0.0
N14 N 0.40627 0.17213 0.64469 0.0
C15 C 0.52961 0.15313 0.13217 0.0
C16 C 0.52865 0.0758 0.8942 0.0
C17 C 0.58024 0.09379 1.00154 0.0
C18 C 0.58168 0.13501 0.11867 0.0
C19 C 0.47666 0.09471 0.91317 0.0
N20 N 0.47432 0.12831 0.03755 0.0
H21 H 0.53494 0.18802 0.21866 0.0
H22 H 0.43725 0.08013 0.8295 0.0
H23 H 0.52246 0.26594 0.88925 0.0
H24 H 0.31666 0.11242 0.77948 0.0
O25 O 0.45745 0.24371 0.16285 0.0
O26 O 0.34207 0.19178 0.13961 0.0
O27 O 0.32192 0.05792 0.99347 0.0
C28 C 0.3997 0.24375 0.19342 0.0
H29 H 0.27598 0.05571 0.55097 0.0
H30 H 0.51639 0.24641 0.6052 0.0
H31 H 0.52698 0.04543 0.79971 0.0
H32 H 0.62268 0.1527 0.20049 0.0
Co33 Co 0.3288 0.3745 0.41232 0.0
C34 C 0.35472 0.39847 0.72505 0.0
C35 C 0.33494 0.29614 0.66493 0.0
C36 C 0.32246 0.29634 0.81288 0.0
N37 N 0.35405 0.36012 0.6084 0.0
N38 N 0.33383 0.36072 0.84827 0.0
H39 H 0.35825 0.44896 0.7178 0.0
H40 H 0.32101 0.24971 0.60064 0.0
C41 C 0.39973 0.29374 0.30327 0.0
O42 O 0.45782 0.3351 0.37482 0.0
N43 N 0.30174 0.3869 0.21864 0.0
C44 C 0.31992 0.45005 0.16005 0.0
C45 C 0.32816 0.44696 1.01172 0.0
C46 C 0.29507 0.34523 0.10377 0.0
N47 N 0.31423 0.38139 0.97801 0.0
C48 C 0.45657 0.50473 0.46548 0.0
C49 C 0.53294 0.50376 0.22753 0.0
C50 C 0.56654 0.55535 0.33487 0.0
C51 C 0.52675 0.55679 0.45199 0.0
C52 C 0.46204 0.45178 0.2465 0.0
N53 N 0.4261 0.44943 0.37087 0.0
H54 H 0.427 0.51005 0.55195 0.0
H55 H 0.43721 0.41237 0.16283 0.0
H56 H 0.33662 0.49758 0.22254 0.0
H57 H 0.28432 0.29178 0.11282 0.0
O58 O 0.29383 0.43257 0.49616 0.0
O59 O 0.23038 0.31719 0.47294 0.0
O60 O 0.34408 0.29703 0.3268 0.0
C61 C 0.23603 0.37482 0.52673 0.0
H62 H 0.30034 0.25109 0.88431 0.0
H63 H 0.35007 0.49151 0.93849 0.0
H64 H 0.56165 0.5021 0.13305 0.0
H65 H 0.55006 0.5978 0.5338 0.0
Co66 Co 1.03439 0.30392 0.74563 0.0
C67 C 1.03634 0.32985 0.05836 0.0
C68 C 0.11888 0.31006 0.99825 0.0
C69 C 0.1062 0.29758 0.1462 0.0
N70 N 0.07402 0.32917 0.94171 0.0
N71 N 1.0532 0.30896 0.18159 0.0
H72 H 0.98938 0.33338 0.0511 0.0
H73 H 0.15139 0.29613 0.93397 0.0
C74 C 0.18607 0.37485 0.63658 0.0
O75 O 0.20281 0.43294 0.70813 0.0
N76 N 0.99492 0.27687 0.55196 0.0
C77 C 0.94997 0.29506 0.49335 0.0
C78 C 0.96129 0.3033 0.34503 0.0
C79 C 1.02992 0.27019 0.43709 0.0
N80 N 1.01293 0.28936 0.31132 0.0
C81 C 1.03193 0.43169 0.79877 0.0
C82 C 0.10929 0.50808 0.56085 0.0
C83 C 0.09129 0.54168 0.66818 0.0
C84 C 1.05004 0.50188 0.78528 0.0
C85 C 0.09037 0.43719 0.57982 0.0
N86 N 1.05676 0.40123 0.70418 0.0
H87 H 0.99702 0.40211 0.88523 0.0
H88 H 0.10495 0.41236 0.49615 0.0
H89 H 0.91913 0.31176 0.55584 0.0
H90 H 0.07262 0.25944 0.44614 0.0
O91 O 0.94135 0.26896 0.82946 0.0
O92 O 0.99327 0.2055 0.80625 0.0
O93 O 0.12713 0.3192 0.66012 0.0
C94 C 0.9413 0.21116 0.86005 0.0
H95 H 0.12933 0.27546 0.21765 0.0
H96 H 0.93867 0.32522 0.27179 0.0
H97 H 0.13967 0.5368 0.46638 0.0
H98 H 1.03234 0.52518 0.86709 0.0
Co99 Co 0.81054 1.00951 0.07897 0.0
C100 C 0.78657 1.01146 0.39169 0.0
C101 C 0.88891 0.094 0.33157 0.0
C102 C 0.8887 0.08132 0.47953 0.0
N103 N 0.82493 0.04914 0.27504 0.0
N104 N 0.82432 1.02832 0.51492 0.0
H105 H 0.73609 0.9645 0.38444 0.0
H106 H 0.93534 0.12651 0.26729 0.0
C107 C 0.89131 0.1612 0.9699 0.0
O108 O 0.84996 0.17794 0.04144 0.0
N109 N 0.79813 0.97005 0.8853 0.0
C110 C 0.73498 0.92509 0.8267 0.0
C111 C 0.73807 0.93641 0.67837 0.0
C112 C 0.83981 1.00505 0.77043 0.0
N113 N 0.80364 0.98805 0.64466 0.0
C114 C 0.68031 1.00705 0.13211 0.0
C115 C 0.68129 0.08442 0.89419 0.0
C116 C 0.62971 0.06643 1.00153 0.0
C117 C 0.62826 1.02518 0.11863 0.0
C118 C 0.73327 0.0655 0.91315 0.0
N119 N 0.73561 1.03188 0.03751 0.0
H120 H 0.67498 0.97214 0.21856 0.0
H121 H 0.77267 0.08007 0.82947 0.0
H122 H 0.68744 0.89426 0.88919 0.0
H123 H 0.89326 0.04774 0.77948 0.0
O124 O 0.75247 0.91647 0.16281 0.0
O125 O 0.86784 0.96839 0.13959 0.0
O126 O 0.88801 0.10226 0.99344 0.0
C127 C 0.81022 0.91642 0.19339 0.0
H128 H 0.93395 0.10446 0.55098 0.0
H129 H 0.69352 0.9138 0.60513 0.0
H130 H 0.68295 0.1148 0.79971 0.0
H131 H 0.58725 1.00748 0.20044 0.0
Co132 Co 0.88112 0.78567 0.41232 0.0
C133 C 0.8552 0.7617 0.72504 0.0
C134 C 0.87498 0.86403 0.66491 0.0
C135 C 0.88746 0.86382 0.81287 0.0
N136 N 0.85587 0.80005 0.60839 0.0
N137 N 0.87608 0.79944 0.84827 0.0
H138 H 0.85167 0.71121 0.7178 0.0
H139 H 0.88891 0.91046 0.60062 0.0
C140 C 0.81019 0.86643 0.30325 0.0
O141 O 0.7521 0.82507 0.37479 0.0
N142 N 0.90817 0.77326 0.21866 0.0
C143 C 0.88999 0.71011 0.16007 0.0
C144 C 0.88175 0.7132 1.01174 0.0
C145 C 0.91485 0.81493 0.10378 0.0
N146 N 0.89568 0.77877 0.97802 0.0
C147 C 0.75335 0.65544 0.46547 0.0
C148 C 0.67696 0.65641 0.22752 0.0
C149 C 0.64337 0.60483 0.33487 0.0
C150 C 0.68316 0.60337 0.45198 0.0
C151 C 0.74786 0.70839 0.24649 0.0
N152 N 0.78382 0.71073 0.37086 0.0
H153 H 0.78293 0.65011 0.55194 0.0
H154 H 0.77269 0.7478 0.16282 0.0
H155 H 0.87328 0.66258 0.22257 0.0
H156 H 0.9256 0.86839 0.11282 0.0
O157 O 0.91609 0.7276 0.49618 0.0
O158 O 0.97954 0.84297 0.47294 0.0
O159 O 0.86584 0.86313 0.32678 0.0
C160 C 0.97388 0.78535 0.52675 0.0
H161 H 0.90957 0.90907 0.8843 0.0
H162 H 0.85983 0.66865 0.93851 0.0
H163 H 0.64825 0.65807 0.13304 0.0
H164 H 0.65986 0.56237 0.53379 0.0
Co165 Co 0.17554 0.85625 0.74567 0.0
C166 C 0.17359 0.83032 0.0584 0.0
C167 C 0.09104 0.8501 0.99825 0.0
C168 C 0.10373 0.86258 0.14621 0.0
N169 N 0.13591 0.83099 0.94174 0.0
N170 N 0.15673 0.85121 0.18162 0.0
H171 H 0.22055 0.82679 0.05117 0.0
H172 H 1.05854 0.86403 0.93395 0.0
C173 C 1.02385 0.78532 0.6366 0.0
O174 O 1.00712 0.72723 0.70815 0.0
N175 N 0.21501 0.88331 0.55201 0.0
C176 C 0.25997 0.86512 0.49343 0.0
C177 C 0.24864 0.85688 0.3451 0.0
C178 C 0.18 0.88998 0.43712 0.0
N179 N 0.197 0.87081 0.31137 0.0
C180 C 0.178 0.72847 0.79883 0.0
C181 C 0.10065 0.6521 0.56086 0.0
C182 C 0.11864 0.6185 0.6682 0.0
C183 C 0.15988 0.65829 0.78532 0.0
C184 C 0.11956 0.723 0.57984 0.0
N185 N 0.15317 0.75895 0.70422 0.0
H186 H 0.2129 0.75804 0.8853 0.0
H187 H 0.10498 0.74783 0.49617 0.0
H188 H 0.2908 0.84843 0.55593 0.0
H189 H 0.1373 0.90073 0.44615 0.0
O190 O 0.26858 0.89121 0.82954 0.0
O191 O 0.21666 0.95467 0.80629 0.0
O192 O 0.0828 0.84097 0.66013 0.0
C193 C 0.26862 0.949 0.86013 0.0
H194 H 0.08059 0.8847 0.21763 0.0
H195 H 0.27127 0.83496 0.27188 0.0
H196 H 0.07027 0.62339 0.46637 0.0
H197 H 0.17758 0.63498 0.86713 0.0
loop_
_geom_bond_atom_site_label_1
_geom_bond_atom_site_label_2
_geom_bond_distance
_geom_bond_site_symmetry_2
_ccdc_geom_bond_type
Co0 N4 2.148 . S
Co0 N10 2.128 1_554 S
Co0 N20 2.194 . S
Co0 O25 2.351 . S
Co0 O26 2.155 . S
Co0 O27 2.096 1_544 S
C1 N4 1.301 . S
C1 N5 1.328 . S
C1 H6 0.930 . S
C2 C3 1.333 . S
C2 N4 1.317 1_565 S
C2 H7 0.930 . S
C3 C2 1.333 . S
C3 N5 1.350 1_565 S
C3 H29 0.931 . S
N4 Co0 2.148 . S
N4 C1 1.301 . S
N4 C2 1.317 1_545 S
N5 C1 1.328 . S
N5 C3 1.350 1_545 S
H6 C1 0.930 . S
H7 C2 0.930 . S
C8 O9 1.224 . S
C8 O27 1.247 . S
O9 C8 1.224 . S
N10 Co0 2.128 1_556 S
N10 C11 1.355 . S
N10 C13 1.311 . S
C11 N10 1.355 . S
C11 C12 1.363 . S
C11 H23 0.929 . S
C12 C11 1.363 . S
C12 N14 1.375 . S
C12 H30 0.931 . S
C13 N10 1.311 . S
C13 N14 1.347 . S
C13 H24 0.929 . S
N14 C12 1.375 . S
N14 C13 1.347 . S
C15 C18 1.365 . S
C15 N20 1.328 . S
C15 H21 0.929 . S
C16 C17 1.362 1_565 S
C16 C19 1.378 . S
C16 H31 0.929 1_554 S
C17 C16 1.362 1_545 S
C17 C18 1.366 . S
C18 C15 1.365 . S
C18 C17 1.366 . S
C18 H32 0.930 . S
C19 C16 1.378 . S
C19 N20 1.315 1_565 S
C19 H22 0.930 1_554 S
N20 Co0 2.194 . S
N20 C15 1.328 . S
N20 C19 1.315 1_545 S
H21 C15 0.929 . S
H22 C19 0.930 1_556 S
H23 C11 0.929 . S
H24 C13 0.929 . S
O25 Co0 2.351 . S
O25 C28 1.244 . S
O26 Co0 2.155 . S
O26 C28 1.240 . S
O27 Co0 2.096 1_566 S
O27 C8 1.247 . S
C28 O25 1.244 . S
C28 O26 1.240 . S
H29 C3 0.931 . S
H30 C12 0.931 . S
H31 C16 0.929 1_556 S
H32 C18 0.930 . S
Co33 N37 2.148 . S
Co33 N43 2.128 . S
Co33 N53 2.194 . S
Co33 O58 2.351 . S
Co33 O59 2.155 . S
Co33 O60 2.096 . S
C34 N37 1.301 . S
C34 N38 1.328 . S
C34 H39 0.930 . S
C35 C36 1.333 . S
C35 N37 1.317 . S
C35 H40 0.930 . S
C36 C35 1.333 . S
C36 N38 1.350 . S
C36 H62 0.931 . S
N37 Co33 2.148 . S
N37 C34 1.301 . S
N37 C35 1.317 . S
N38 C34 1.328 . S
N38 C36 1.350 . S
H39 C34 0.930 . S
H40 C35 0.930 . S
C41 O42 1.224 . S
C41 O60 1.247 . S
O42 C41 1.224 . S
N43 Co33 2.128 . S
N43 C44 1.355 . S
N43 C46 1.311 . S
C44 N43 1.355 . S
C44 C45 1.363 1_554 S
C44 H56 0.929 . S
C45 C44 1.363 1_556 S
C45 N47 1.375 . S
C45 H63 0.931 . S
C46 N43 1.311 . S
C46 N47 1.347 1_554 S
C46 H57 0.929 . S
N47 C45 1.375 . S
N47 C46 1.347 1_556 S
C48 C51 1.365 . S
C48 N53 1.328 . S
C48 H54 0.929 . S
C49 C50 1.362 . S
C49 C52 1.378 . S
C49 H64 0.929 . S
C50 C49 1.362 . S
C50 C51 1.366 . S
C51 C48 1.365 . S
C51 C50 1.366 . S
C51 H65 0.930 . S
C52 C49 1.378 . S
C52 N53 1.315 . S
C52 H55 0.930 . S
N53 Co33 2.194 . S
N53 C48 1.328 . S
N53 C52 1.315 . S
H54 C48 0.929 . S
H55 C52 0.930 . S
H56 C44 0.929 . S
H57 C46 0.929 . S
O58 Co33 2.351 . S
O58 C61 1.244 . S
O59 Co33 2.155 . S
O59 C61 1.240 . S
O60 Co33 2.096 . S
O60 C41 1.247 . S
C61 O58 1.244 . S
C61 O59 1.240 . S
H62 C36 0.931 . S
H63 C45 0.931 . S
H64 C49 0.929 . S
H65 C51 0.930 . S
Co66 N70 2.148 . S
Co66 N76 2.128 . S
Co66 N86 2.194 . S
Co66 O91 2.351 1_455 S
Co66 O92 2.155 1_455 S
Co66 O93 2.096 . S
C67 N70 1.301 1_554 S
C67 N71 1.328 . S
C67 H72 0.930 . S
C68 C69 1.333 1_556 S
C68 N70 1.317 . S
C68 H73 0.930 . S
C69 C68 1.333 1_554 S
C69 N71 1.350 . S
C69 H95 0.931 . S
N70 Co66 2.148 . S
N70 C67 1.301 1_556 S
N70 C68 1.317 . S
N71 C67 1.328 . S
N71 C69 1.350 . S
H72 C67 0.930 . S
H73 C68 0.930 . S
C74 O75 1.224 . S
C74 O93 1.247 . S
O75 C74 1.224 . S
N76 Co66 2.128 . S
N76 C77 1.355 1_455 S
N76 C79 1.311 . S
C77 N76 1.355 1_655 S
C77 C78 1.363 . S
C77 H89 0.929 . S
C78 C77 1.363 . S
C78 N80 1.375 1_655 S
C78 H96 0.931 . S
C79 N76 1.311 . S
C79 N80 1.347 . S
C79 H90 0.929 . S
N80 C78 1.375 1_455 S
N80 C79 1.347 . S
C81 C84 1.365 . S
C81 N86 1.328 1_655 S
C81 H87 0.929 . S
C82 C83 1.362 . S
C82 C85 1.378 . S
C82 H97 0.929 . S
C83 C82 1.362 . S
C83 C84 1.366 1_455 S
C84 C81 1.365 . S
C84 C83 1.366 1_655 S
C84 H98 0.930 . S
C85 C82 1.378 . S
C85 N86 1.315 . S
C85 H88 0.930 . S
N86 Co66 2.194 . S
N86 C81 1.328 1_455 S
N86 C85 1.315 . S
H87 C81 0.929 . S
H88 C85 0.930 . S
H89 C77 0.929 . S
H90 C79 0.929 . S
O91 Co66 2.351 1_655 S
O91 C94 1.244 . S
O92 Co66 2.155 1_655 S
O92 C94 1.240 . S
O93 Co66 2.096 . S
O93 C74 1.247 . S
C94 O91 1.244 . S
C94 O92 1.240 . S
H95 C69 0.931 . S
H96 C78 0.931 . S
H97 C82 0.929 . S
H98 C84 0.930 . S
Co99 N103 2.148 . S
Co99 N109 2.128 1_554 S
Co99 N119 2.194 . S
Co99 O124 2.351 1_545 S
Co99 O125 2.155 1_545 S
Co99 O126 2.096 1_554 S
C100 N103 1.301 . S
C100 N104 1.328 . S
C100 H105 0.936 . S
C101 C102 1.333 . S
C101 N103 1.317 . S
C101 H106 0.930 . S
C102 C101 1.333 . S
C102 N104 1.350 . S
C102 H128 0.931 . S
N103 Co99 2.148 . S
N103 C100 1.301 . S
N103 C101 1.317 . S
N104 C100 1.328 . S
N104 C102 1.350 . S
H105 C100 0.936 . S
H106 C101 0.930 . S
C107 O108 1.224 . S
C107 O126 1.247 . S
O108 C107 1.224 . S
N109 Co99 2.128 1_556 S
N109 C110 1.355 1_545 S
N109 C112 1.311 . S
C110 N109 1.355 1_565 S
C110 C111 1.363 . S
C110 H122 0.929 . S
C111 C110 1.363 . S
C111 N113 1.375 1_565 S
C111 H129 0.931 . S
C112 N109 1.311 . S
C112 N113 1.347 . S
C112 H123 0.929 . S
N113 C111 1.375 1_545 S
N113 C112 1.347 . S
C114 C117 1.365 . S
C114 N119 1.328 1_565 S
C114 H120 0.929 . S
C115 C116 1.362 . S
C115 C118 1.378 . S
C115 H130 0.929 1_554 S
C116 C115 1.362 . S
C116 C117 1.366 1_545 S
C117 C114 1.365 . S
C117 C116 1.366 1_565 S
C117 H131 0.930 . S
C118 C115 1.378 . S
C118 N119 1.315 . S
C118 H121 0.930 1_554 S
N119 Co99 2.194 . S
N119 C114 1.328 1_545 S
N119 C118 1.315 . S
H120 C114 0.929 . S
H121 C118 0.930 1_556 S
H122 C110 0.929 . S
H123 C112 0.929 . S
O124 Co99 2.351 1_565 S
O124 C127 1.244 . S
O125 Co99 2.155 1_565 S
O125 C127 1.240 . S
O126 Co99 2.096 1_556 S
O126 C107 1.247 . S
C127 O124 1.244 . S
C127 O125 1.240 . S
H128 C102 0.931 . S
H129 C111 0.931 . S
H130 C115 0.929 1_556 S
H131 C117 0.930 . S
Co132 N136 2.148 . S
Co132 N142 2.128 . S
Co132 N152 2.194 . S
Co132 O157 2.351 . S
Co132 O158 2.155 . S
Co132 O159 2.096 . S
C133 N136 1.301 . S
C133 N137 1.328 . S
C133 H138 0.930 . S
C134 C135 1.333 . S
C134 N136 1.317 . S
C134 H139 0.930 . S
C135 C134 1.333 . S
C135 N137 1.350 . S
C135 H161 0.931 . S
N136 Co132 2.148 . S
N136 C133 1.301 . S
N136 C134 1.317 . S
N137 C133 1.328 . S
N137 C135 1.350 . S
H138 C133 0.930 . S
H139 C134 0.930 . S
C140 O141 1.224 . S
C140 O159 1.247 . S
O141 C140 1.224 . S
N142 Co132 2.128 . S
N142 C143 1.355 . S
N142 C145 1.311 . S
C143 N142 1.355 . S
C143 C144 1.363 1_554 S
C143 H155 0.929 . S
C144 C143 1.363 1_556 S
C144 N146 1.375 . S
C144 H162 0.931 . S
C145 N142 1.311 . S
C145 N146 1.347 1_554 S
C145 H156 0.929 . S
N146 C144 1.375 . S
N146 C145 1.347 1_556 S
C147 C150 1.365 . S
C147 N152 1.328 . S
C147 H153 0.929 . S
C148 C149 1.362 . S
C148 C151 1.378 . S
C148 H163 0.929 . S
C149 C148 1.362 . S
C149 C150 1.366 . S
C150 C147 1.365 . S
C150 C149 1.366 . S
C150 H164 0.930 . S
C151 C148 1.378 . S
C151 N152 1.315 . S
C151 H154 0.930 . S
N152 Co132 2.194 . S
N152 C147 1.328 . S
N152 C151 1.315 . S
H153 C147 0.929 . S
H154 C151 0.930 . S
H155 C143 0.929 . S
H156 C145 0.929 . S
O157 Co132 2.351 . S
O157 C160 1.244 . S
O158 Co132 2.155 . S
O158 C160 1.240 . S
O159 Co132 2.096 . S
O159 C140 1.247 . S
C160 O157 1.244 . S
C160 O158 1.240 . S
H161 C135 0.931 . S
H162 C144 0.931 . S
H163 C148 0.929 . S
H164 C150 0.930 . S
Co165 N169 2.148 . S
Co165 N175 2.128 . S
Co165 N185 2.194 . S
Co165 O190 2.351 . S
Co165 O191 2.155 . S
Co165 O192 2.096 1_455 S
C166 N169 1.301 1_554 S
C166 N170 1.328 . S
C166 H171 0.930 . S
C167 C168 1.333 1_556 S
C167 N169 1.317 1_655 S
C167 H172 0.930 . S
C168 C167 1.333 1_554 S
C168 N170 1.350 1_655 S
C168 H194 0.931 . S
N169 Co165 2.148 . S
N169 C166 1.301 1_556 S
N169 C167 1.317 1_455 S
N170 C166 1.328 . S
N170 C168 1.350 1_455 S
H171 C166 0.930 . S
H172 C167 0.930 . S
C173 O174 1.224 . S
C173 O192 1.247 . S
O174 C173 1.224 . S
N175 Co165 2.128 . S
N175 C176 1.355 . S
N175 C178 1.311 . S
C176 N175 1.355 . S
C176 C177 1.363 . S
C176 H188 0.929 . S
C177 C176 1.363 . S
C177 N179 1.375 . S
C177 H195 0.931 . S
C178 N175 1.311 . S
C178 N179 1.347 . S
C178 H189 0.929 . S
N179 C177 1.375 . S
N179 C178 1.347 . S
C180 C183 1.365 . S
C180 N185 1.328 . S
C180 H186 0.929 . S
C181 C182 1.362 1_655 S
C181 C184 1.378 . S
C181 H196 0.929 . S
C182 C181 1.362 1_455 S
C182 C183 1.366 . S
C183 C180 1.365 . S
C183 C182 1.366 . S
C183 H197 0.930 . S
C184 C181 1.378 . S
C184 N185 1.315 1_655 S
C184 H187 0.930 . S
N185 Co165 2.194 . S
N185 C180 1.328 . S
N185 C184 1.315 1_455 S
H186 C180 0.929 . S
H187 C184 0.930 . S
H188 C176 0.929 . S
H189 C178 0.929 . S
O190 Co165 2.351 . S
O190 C193 1.244 . S
O191 Co165 2.155 . S
O191 C193 1.240 . S
O192 Co165 2.096 1_655 S
O192 C173 1.247 . S
C193 O190 1.244 . S
C193 O191 1.240 . S
H194 C168 0.931 . S
H195 C177 0.931 . S
H196 C181 0.929 . S
H197 C183 0.930 . S
C17 C116 1.580 . S
C149 C50 1.580 . S
C83 C182 1.580 . S
N5 N14 1.872 . S
N38 N47 1.871 . S
N71 N80 1.871 . S
N113 N104 1.871 . S
N137 N146 1.872 . S
N179 N170 1.871 . S
C28 C41 1.829 . S
C61 C74 1.829 . S
C107 C94 1.829 . S
C127 C140 1.829 . S
C173 C160 1.830 . S
C193 C8 1.829 . S
