# Generated by pormake.
# Topology sxc, (6)-cn, num edge types: 1
# Building blocks:
#     Node 0, Type 0, BuildingBlock: UKALOJ_clean_sbu_0, # of connection points: 6
#     Node 1, Type 0, BuildingBlock: UKALOJ_clean_sbu_0, # of connection points: 6
#     Node 2, Type 0, BuildingBlock: UKALOJ_clean_sbu_0, # of connection points: 6
#     Edge 3, Type (0, 0), BuildingBlock: CIFDUS_clean_linker_0, # of connection points: 2
#     Edge 4, Type (0, 0), BuildingBlock: CIFDUS_clean_linker_0, # of connection points: 2
#     Edge 5, Type (0, 0), BuildingBlock: CIFDUS_clean_linker_0, # of connection points: 2
#     Edge 6, Type (0, 0), BuildingBlock: CIFDUS_clean_linker_0, # of connection points: 2
#     Edge 7, Type (0, 0), BuildingBlock: CIFDUS_clean_linker_0, # of connection points: 2
#     Edge 8, Type (0, 0), BuildingBlock: CIFDUS_clean_linker_0, # of connection points: 2
#     Edge 9, Type (0, 0), BuildingBlock: CIFDUS_clean_linker_0, # of connection points: 2
#     Edge 10, Type (0, 0), BuildingBlock: CIFDUS_clean_linker_0, # of connection points: 2
#     Edge 11, Type (0, 0), BuildingBlock: CIFDUS_clean_linker_0, # of connection points: 2
# Relax obj value: 0.111
# Max RMSD: 0.183
# Mean RMSD: 0.183
data_MOF--net-sxc--node1-UKALOJ_clean_sbu_0--edge1-CIFDUS_clean_linker_0
_symmetry_space_group_name_H-M    P1
_symmetry_Int_Tables_number       1
_symmetry_cell_setting            triclinic
loop_
_symmetry_equiv_pos_as_xyz
'x, y, z'
_cell_length_a     13.21445
_cell_length_b     13.161671
_cell_length_c     55.069131
_cell_angle_alpha  90.392214
_cell_angle_beta   90.47378
_cell_angle_gamma 119.90727
loop_
_atom_site_label
_atom_site_type_symbol
_atom_site_fract_x
_atom_site_fract_y
_atom_site_fract_z
_atom_type_partial_charge
Zn0 Zn -0.01485 0.11751 1.00543 0.0
O1 O 0.03217 -0.01321 1.00786 0.0
C2 C 0.76502 0.94996 0.03104 0.0
Zn3 Zn -0.00201 0.13668 0.04598 0.0
C4 C 0.04749 0.95287 0.02846 0.0
O5 O 0.04432 0.00523 0.0477 0.0
C6 C 0.93568 0.3014 0.02299 0.0
O7 O 0.1726 0.26829 0.04086 0.0
O8 O 0.16022 0.25244 1.00112 0.0
N9 N 0.02594 0.1686 0.08288 0.0
C10 C -0.01278 0.10238 0.103 0.0
C11 C 0.11113 0.27612 0.11456 0.0
N12 N 0.10244 0.27636 0.09022 0.0
N13 N 0.04018 0.16806 0.12319 0.0
C14 C 0.02734 0.10111 0.94978 0.0
C15 C 0.85675 0.04109 0.93511 0.0
N16 N 0.95772 0.09054 0.96852 0.0
N17 N 0.85185 0.05309 0.95931 0.0
N18 N -0.034 0.0709 0.92861 0.0
H19 H 0.20802 0.23071 0.95181 0.0
H20 H 0.17898 0.095 0.93756 0.0
H21 H 0.16847 0.10415 0.97019 0.0
C22 C 0.1529 0.13393 0.95248 0.0
C23 C 0.89018 -0.02267 0.10264 0.0
H24 H 0.81066 0.97346 0.09495 0.0
H25 H 0.86788 0.93897 0.12096 0.0
H26 H 0.91359 0.92405 0.09073 0.0
O27 O 0.95266 0.2684 0.04351 0.0
O28 O 0.93706 0.24789 1.0038 0.0
C29 C 0.21821 0.30436 0.02024 0.0
O30 O 0.81175 -0.0158 1.01045 0.0
O31 O 0.82171 0.00407 0.05013 0.0
Zn32 Zn 0.09076 0.11868 0.34289 0.0
O33 O 0.91483 0.07331 0.33978 0.0
C34 C 0.14142 0.34422 0.36438 0.0
Zn35 Zn 0.0797 0.10797 0.38343 0.0
C36 C 0.857 0.06204 0.35885 0.0
O37 O 0.90308 0.06706 0.37953 0.0
C38 C 0.31334 0.16437 0.36759 0.0
O39 O 0.03333 0.92876 0.38256 0.0
O40 O 0.04444 0.94145 0.34277 0.0
N41 N 0.06491 0.1103 0.42055 0.0
C42 C 0.09537 0.06627 0.43956 0.0
C43 C 0.02983 0.17254 0.45402 0.0
N44 N 0.02383 0.17568 0.42969 0.0
N45 N 0.07452 0.10466 0.46081 0.0
C46 C 0.07389 0.16182 0.28691 0.0
C47 C 0.15293 0.06885 0.27199 0.0
N48 N 0.10707 0.11896 0.30571 0.0
N49 N 0.15641 0.06174 0.2963 0.0
N50 N 0.10161 0.13116 0.26543 0.0
H51 H -0.02953 0.21623 0.3078 0.0
H52 H 0.94267 0.20361 0.27543 0.0
H53 H 0.07437 0.32433 0.28818 0.0
C54 C 0.01086 0.2294 0.28978 0.0
C55 C 0.15025 -0.00912 0.43725 0.0
H56 H 0.19187 0.0017 0.41938 0.0
H57 H 0.08147 0.89764 0.43888 0.0
H58 H 0.21584 0.01188 0.45198 0.0
O59 O 0.25476 0.15112 0.38664 0.0
O60 O 0.26801 0.16123 0.34691 0.0
C61 C 0.02895 0.88249 0.36191 0.0
O62 O 0.13545 0.29737 0.34374 0.0
O63 O 0.12769 0.28581 0.38352 0.0
Zn64 Zn 0.0585 0.95951 0.71228 0.0
O65 O 0.92658 0.00666 0.70955 0.0
C66 C 0.87933 0.72246 0.69883 0.0
Zn67 Zn 0.05582 0.93833 0.67186 0.0
C68 C 0.88171 0.00384 0.68882 0.0
O69 O 0.92371 -0.01654 0.66994 0.0
C70 C 0.23312 0.89485 0.69506 0.0
O71 O 0.18753 0.1138 0.66661 0.0
O72 O 0.19357 0.1339 0.7063 0.0
N73 N 0.03354 0.90035 0.63512 0.0
C74 C 0.09735 0.94828 0.61504 0.0
C75 C 0.93482 0.80338 0.60334 0.0
N76 N 0.93295 0.81022 0.62769 0.0
N77 N 0.03692 0.88905 0.59483 0.0
C78 C 0.00794 0.96139 0.76827 0.0
C79 C 0.1813 0.06823 0.78196 0.0
N80 N 0.08026 -0.00673 0.74911 0.0
N81 N 0.1877 0.05941 0.75775 0.0
N82 N 0.06956 0.0073 0.78924 0.0
H83 H 0.84753 0.89377 0.7475 0.0
H84 H 0.83559 0.92041 0.77929 0.0
H85 H 0.84969 0.79661 0.76972 0.0
C86 C 0.87763 0.88965 0.76605 0.0
C87 C 0.22045 0.04806 0.61546 0.0
H88 H 0.21952 0.13178 0.61647 0.0
H89 H 0.26708 0.04761 0.59884 0.0
H90 H 0.26781 0.04251 0.63167 0.0
O91 O 0.18999 0.89496 0.67431 0.0
O92 O 0.18892 0.91161 0.71402 0.0
C93 C 0.23485 0.17564 0.68561 0.0
O94 O 0.92509 0.7855 0.71772 0.0
O95 O 0.92223 0.7629 0.67818 0.0
H96 H 0.01355 0.47508 0.05682 0.0
H97 H 0.86725 0.38236 0.98428 0.0
H98 H 0.89855 0.58018 0.9789 0.0
H99 H -0.02971 0.77952 0.99457 0.0
H100 H 0.11578 0.87194 0.06717 0.0
H101 H 0.08498 0.67428 0.07251 0.0
C102 C -0.01348 0.49739 0.03998 0.0
C103 C 0.93692 0.41377 0.02106 0.0
C104 C 0.00745 0.61183 0.0368 0.0
C105 C 0.90464 0.44489 0.99918 0.0
C106 C 0.9235 0.5582 0.99602 0.0
C107 C -0.00276 0.75716 1.01141 0.0
C108 C 0.04656 0.84066 0.03035 0.0
C109 C -0.02369 0.64271 1.01459 0.0
C110 C 0.0787 0.8095 0.05224 0.0
C111 C 0.06009 0.69628 0.05539 0.0
H112 H 0.41974 0.11148 0.33177 0.0
H113 H 0.45123 0.20606 0.40779 0.0
H114 H 0.61701 0.17357 0.41219 0.0
H115 H 0.7507 0.11533 0.39463 0.0
H116 H 0.71922 0.0206 0.3186 0.0
H117 H 0.55356 0.05331 0.31419 0.0
C118 C 0.46412 0.127 0.34921 0.0
C119 C 0.42401 0.16246 0.36936 0.0
C120 C 0.55747 0.10537 0.35175 0.0
C121 C 0.48108 0.17984 0.39194 0.0
C122 C 0.57519 0.16027 0.39452 0.0
C123 C 0.70639 0.09985 0.37718 0.0
C124 C 0.74645 0.06425 0.35704 0.0
C125 C 0.61309 0.12154 0.37463 0.0
C126 C 0.68941 0.04689 0.33445 0.0
C127 C 0.59538 0.06661 0.33186 0.0
H128 H 0.72847 0.6052 0.66169 0.0
H129 H 0.77152 0.59721 0.73934 0.0
H130 H 0.57226 0.43246 0.74218 0.0
H131 H 0.38574 0.2931 0.72274 0.0
H132 H 0.34222 0.30203 0.64513 0.0
H133 H 0.54152 0.46647 0.64227 0.0
C134 C 0.69512 0.56638 0.67922 0.0
C135 C 0.7655 0.61273 0.70026 0.0
C136 C 0.57969 0.47368 0.68079 0.0
C137 C 0.71977 0.56256 0.72285 0.0
C138 C 0.60549 0.46903 0.72451 0.0
C139 C 0.419 0.33197 0.7052 0.0
C140 C 0.34856 0.28561 0.68417 0.0
C141 C 0.53433 0.42485 0.70364 0.0
C142 C 0.39409 0.33624 0.6616 0.0
C143 C 0.50839 0.42973 0.65994 0.0
H144 H 0.71962 0.94781 0.72386 0.0
H145 H 0.78848 0.04919 0.64881 0.0
H146 H 0.58999 0.01504 0.64357 0.0
H147 H 0.39584 0.95277 0.66009 0.0
H148 H 0.32678 0.8501 0.73509 0.0
H149 H 0.52554 0.8852 0.74036 0.0
C150 C 0.69198 0.9645 0.70647 0.0
C151 C 0.76925 0.00232 0.68683 0.0
C152 C 0.57674 0.94145 0.7034 0.0
C153 C 0.73104 0.02113 0.66428 0.0
C154 C 0.61723 0.00054 0.66121 0.0
C155 C 0.42353 0.93589 0.67747 0.0
C156 C 0.34607 0.89741 0.69709 0.0
C157 C 0.5388 0.95901 0.68054 0.0
C158 C 0.38431 0.8786 0.71963 0.0
C159 C 0.49828 0.89971 0.72273 0.0
H160 H 0.65889 0.7878 0.99519 0.0
H161 H 0.62653 0.85553 0.07075 0.0
H162 H 0.45941 0.65765 0.07436 0.0
H163 H 0.3248 0.46584 0.05618 0.0
H164 H 0.35644 0.39862 0.98056 0.0
H165 H 0.5243 0.59617 0.97701 0.0
C166 C 0.61448 0.76015 1.01241 0.0
C167 C 0.65481 0.83685 0.03267 0.0
C168 C 0.52012 0.64584 1.01445 0.0
C169 C 0.59706 0.7986 0.05487 0.0
C170 C 0.50202 0.68522 0.05698 0.0
C171 C 0.3693 0.49355 0.03898 0.0
C172 C 0.3287 0.41711 1.01868 0.0
C173 C 0.46376 0.60784 0.03695 0.0
C174 C 0.38637 0.45537 0.99647 0.0
C175 C 0.48174 0.56856 0.9944 0.0
H176 H 0.05931 0.43764 0.33139 0.0
H177 H 0.21732 0.49664 0.40275 0.0
H178 H 0.18591 0.66269 0.40929 0.0
H179 H 0.11043 0.7888 0.39497 0.0
H180 H 0.95264 0.72991 0.3236 0.0
H181 H -0.01627 0.56364 0.31709 0.0
C182 C 0.08912 0.48848 0.34815 0.0
C183 C 0.14207 0.45623 0.36642 0.0
C184 C 0.06765 0.5815 0.35206 0.0
C185 C 0.17752 0.52086 0.38831 0.0
C186 C 0.15848 0.61491 0.39216 0.0
C187 C 0.08059 0.73791 0.37822 0.0
C188 C 0.02783 0.77027 0.35993 0.0
C189 C 0.10197 0.64483 0.37432 0.0
C190 C -0.00769 0.70559 0.33805 0.0
C191 C 0.01118 0.61143 0.33421 0.0
H192 H 0.05971 -0.01293 0.22734 0.0
H193 H 0.10503 0.32532 0.24685 0.0
H194 H 0.07537 0.35906 0.20466 0.0
H195 H 0.04793 0.29761 0.1616 0.0
H196 H 0.03384 0.97387 0.14151 0.0
H197 H 0.0392 0.92878 0.18429 0.0
C198 C 0.06239 0.06795 0.22239 0.0
C199 C 0.08037 0.15143 0.24059 0.0
C200 C 0.05052 0.08912 0.19784 0.0
C201 C 0.08548 0.2566 0.23371 0.0
C202 C 0.07047 0.27693 0.20938 0.0
C203 C 0.04448 0.2165 0.16667 0.0
C204 C 0.03471 0.13657 0.1484 0.0
C205 C 0.05377 0.19418 0.19128 0.0
C206 C 0.03413 0.03352 0.15516 0.0
C207 C 0.03957 0.00886 0.17965 0.0
H208 H 0.02811 0.89995 0.48136 0.0
H209 H 0.16484 0.26749 0.49624 0.0
H210 H 0.17798 0.23593 0.53957 0.0
H211 H 0.13088 0.10023 0.57357 0.0
H212 H -0.00883 0.73215 0.55898 0.0
H213 H 0.00018 0.76696 0.51522 0.0
C214 C 0.0642 0.97343 0.494 0.0
C215 C 0.09652 0.08609 0.4856 0.0
C216 C 0.07006 0.95421 0.51898 0.0
C217 C 0.13946 0.18002 0.50235 0.0
C218 C 0.1469 0.16201 0.5271 0.0
C219 C 0.1065 0.02849 0.5608 0.0
C220 C 0.06213 0.91403 0.56946 0.0
C221 C 0.11001 0.04906 0.5357 0.0
C222 C 0.02634 0.82107 0.55266 0.0
C223 C 0.03105 0.84092 0.52768 0.0
H224 H 0.1741 0.17241 0.8239 0.0
H225 H 0.8874 0.8217 0.81158 0.0
H226 H 0.82876 0.81208 0.8537 0.0
H227 H 0.86002 0.90324 0.89453 0.0
H228 H 0.15472 0.24763 0.90751 0.0
H229 H 0.21159 0.25891 0.86496 0.0
C230 C 0.09863 0.09384 0.83041 0.0
C231 C 0.0326 -7e-05 0.81414 0.0
C232 C 0.06819 0.08715 0.85497 0.0
C233 C 0.93631 0.89797 0.82308 0.0
C234 C 0.9039 0.89152 0.8474 0.0
C235 C 0.93704 -0.01984 0.88795 0.0
C236 C 0.00419 0.07383 0.90409 0.0
C237 C -0.03098 -0.01433 0.86349 0.0
C238 C 0.10356 0.1735 0.89551 0.0
C239 C 0.13522 0.18031 0.87116 0.0
loop_
_geom_bond_atom_site_label_1
_geom_bond_atom_site_label_2
_geom_bond_distance
_geom_bond_site_symmetry_2
_ccdc_geom_bond_type
Zn0 O1 2.055 1_545 S
Zn0 O8 2.046 . S
Zn0 N16 2.036 . S
Zn0 O28 2.053 1_455 S
Zn0 O30 2.066 1_445 S
O1 Zn0 2.055 1_565 S
O1 C4 1.259 1_556 S
C2 O30 1.256 1_554 S
C2 O31 1.244 . S
Zn3 O5 2.046 1_545 S
Zn3 O7 2.055 . S
Zn3 N9 2.036 1_455 S
Zn3 O27 2.066 1_455 S
Zn3 O31 2.053 1_445 S
C4 O1 1.259 1_554 S
C4 O5 1.254 . S
O5 Zn3 2.046 1_565 S
O5 C4 1.254 . S
C6 O27 1.256 . S
C6 O28 1.244 1_554 S
O7 Zn3 2.055 . S
O7 C29 1.259 . S
O8 Zn0 2.046 . S
O8 C29 1.254 1_556 S
N9 Zn3 2.036 1_655 S
N9 C10 1.298 1_655 S
N9 N12 1.398 1_545 S
C10 N9 1.298 1_455 S
C10 N13 1.367 1_455 S
C10 C23 1.481 . S
C11 N12 1.299 . S
C11 N13 1.379 1_565 S
N12 N9 1.398 1_565 S
N12 C11 1.299 . S
N13 C10 1.367 1_655 S
N13 C11 1.379 1_545 S
C14 N16 1.298 1_655 S
C14 N18 1.367 . S
C14 C22 1.481 1_545 S
C15 N17 1.299 1_655 S
C15 N18 1.379 . S
N16 Zn0 2.036 . S
N16 C14 1.298 1_455 S
N16 N17 1.398 . S
N17 C15 1.299 1_455 S
N17 N16 1.398 . S
N18 C14 1.367 . S
N18 C15 1.379 . S
H19 C22 0.980 1_455 S
H20 C22 0.981 . S
H21 C22 0.981 . S
C22 C14 1.481 1_565 S
C22 H19 0.980 1_655 S
C22 H20 0.981 . S
C22 H21 0.981 . S
C23 C10 1.481 . S
C23 H24 0.980 . S
C23 H25 0.981 . S
C23 H26 0.981 . S
H24 C23 0.980 . S
H25 C23 0.981 . S
H26 C23 0.981 . S
O27 Zn3 2.066 1_655 S
O27 C6 1.256 . S
O28 Zn0 2.053 1_655 S
O28 C6 1.244 1_556 S
C29 O7 1.259 . S
C29 O8 1.254 1_554 S
O30 Zn0 2.066 1_665 S
O30 C2 1.256 1_556 S
O31 C2 1.244 . S
O31 Zn3 2.053 1_665 S
Zn32 O33 2.055 1_455 S
Zn32 O40 2.046 1_545 S
Zn32 N48 2.036 . S
Zn32 O60 2.053 . S
Zn32 O62 2.066 . S
O33 Zn32 2.055 1_655 S
O33 C36 1.259 . S
C34 O62 1.256 . S
C34 O63 1.244 . S
Zn35 O37 2.046 1_455 S
Zn35 O39 2.055 1_545 S
Zn35 N41 2.036 . S
Zn35 O59 2.066 . S
Zn35 O63 2.053 . S
C36 O33 1.259 . S
C36 O37 1.254 . S
O37 Zn35 2.046 1_655 S
O37 C36 1.254 . S
C38 O59 1.256 . S
C38 O60 1.244 . S
O39 Zn35 2.055 1_565 S
O39 C61 1.259 . S
O40 Zn32 2.046 1_565 S
O40 C61 1.254 . S
N41 Zn35 2.036 . S
N41 C42 1.298 . S
N41 N44 1.398 . S
C42 N41 1.298 . S
C42 N45 1.367 . S
C42 C55 1.481 . S
C43 N44 1.299 . S
C43 N45 1.379 . S
N44 N41 1.398 . S
N44 C43 1.299 . S
N45 C42 1.367 . S
N45 C43 1.379 . S
C46 N48 1.298 . S
C46 N50 1.367 . S
C46 C54 1.481 . S
C47 N49 1.299 . S
C47 N50 1.379 . S
N48 Zn32 2.036 . S
N48 C46 1.298 . S
N48 N49 1.398 . S
N49 C47 1.299 . S
N49 N48 1.398 . S
N50 C46 1.367 . S
N50 C47 1.379 . S
H51 C54 0.980 1_655 S
H52 C54 0.981 1_655 S
H53 C54 0.981 . S
C54 C46 1.481 . S
C54 H51 0.980 1_455 S
C54 H52 0.981 1_455 S
C54 H53 0.981 . S
C55 C42 1.481 . S
C55 H56 0.980 1_545 S
C55 H57 0.981 1_545 S
C55 H58 0.981 . S
H56 C55 0.980 1_565 S
H57 C55 0.981 1_565 S
H58 C55 0.981 . S
O59 Zn35 2.066 . S
O59 C38 1.256 . S
O60 Zn32 2.053 . S
O60 C38 1.244 . S
C61 O39 1.259 . S
C61 O40 1.254 . S
O62 Zn32 2.066 . S
O62 C34 1.256 . S
O63 C34 1.244 . S
O63 Zn35 2.053 . S
Zn64 O65 2.055 1_455 S
Zn64 O72 2.046 . S
Zn64 N80 2.036 . S
Zn64 O92 2.053 1_545 S
Zn64 O94 2.066 1_445 S
O65 Zn64 2.055 1_655 S
O65 C68 1.259 . S
C66 O94 1.256 . S
C66 O95 1.244 . S
Zn67 O69 2.046 1_455 S
Zn67 O71 2.055 . S
Zn67 N73 2.036 1_545 S
Zn67 O91 2.066 1_545 S
Zn67 O95 2.053 1_445 S
C68 O65 1.259 . S
C68 O69 1.254 . S
O69 Zn67 2.046 1_655 S
O69 C68 1.254 . S
C70 O91 1.256 . S
C70 O92 1.244 . S
O71 Zn67 2.055 . S
O71 C93 1.259 . S
O72 Zn64 2.046 . S
O72 C93 1.254 . S
N73 Zn67 2.036 1_565 S
N73 C74 1.298 1_565 S
N73 N76 1.398 1_455 S
C74 N73 1.298 1_545 S
C74 N77 1.367 1_545 S
C74 C87 1.481 . S
C75 N76 1.299 . S
C75 N77 1.379 1_655 S
N76 N73 1.398 1_655 S
N76 C75 1.299 . S
N77 C74 1.367 1_565 S
N77 C75 1.379 1_455 S
C78 N80 1.298 1_565 S
C78 N82 1.367 . S
C78 C86 1.481 1_455 S
C79 N81 1.299 1_565 S
C79 N82 1.379 . S
N80 Zn64 2.036 . S
N80 C78 1.298 1_545 S
N80 N81 1.398 . S
N81 C79 1.299 1_545 S
N81 N80 1.398 . S
N82 C78 1.367 . S
N82 C79 1.379 . S
H83 C86 0.980 1_545 S
H84 C86 0.981 . S
H85 C86 0.981 . S
C86 C78 1.481 1_655 S
C86 H83 0.980 1_565 S
C86 H84 0.981 . S
C86 H85 0.981 . S
C87 C74 1.481 . S
C87 H88 0.980 . S
C87 H89 0.981 . S
C87 H90 0.981 . S
H88 C87 0.980 . S
H89 C87 0.981 . S
H90 C87 0.981 . S
O91 Zn67 2.066 1_565 S
O91 C70 1.256 . S
O92 Zn64 2.053 1_565 S
O92 C70 1.244 . S
C93 O71 1.259 . S
C93 O72 1.254 . S
O94 Zn64 2.066 1_665 S
O94 C66 1.256 . S
O95 C66 1.244 . S
O95 Zn67 2.053 1_665 S
H96 C102 0.930 . S
H97 C105 0.930 . S
H98 C106 0.930 . S
H99 C107 0.930 1_655 S
H100 C110 0.930 . S
H101 C111 0.930 . S
C102 H96 0.930 . S
C102 C103 1.355 1_455 S
C102 C104 1.415 . S
C103 C102 1.355 1_655 S
C103 C105 1.419 1_554 S
C104 C102 1.415 . S
C104 C109 1.387 1_454 S
C104 C111 1.409 . S
C105 H97 0.930 . S
C105 C103 1.419 1_556 S
C105 C106 1.362 . S
C106 H98 0.930 . S
C106 C105 1.362 . S
C106 C109 1.438 . S
C107 H99 0.930 1_455 S
C107 C108 1.355 1_556 S
C107 C109 1.424 1_455 S
C108 C107 1.355 1_554 S
C108 C110 1.419 . S
C109 C104 1.387 1_656 S
C109 C106 1.438 . S
C109 C107 1.424 1_655 S
C110 H100 0.930 . S
C110 C108 1.419 . S
C110 C111 1.362 . S
C111 H101 0.930 . S
C111 C104 1.409 . S
C111 C110 1.362 . S
H112 C118 0.930 . S
H113 C121 0.930 . S
H114 C122 0.930 . S
H115 C123 0.930 . S
H116 C126 0.930 1_565 S
H117 C127 0.930 . S
C118 H112 0.930 . S
C118 C119 1.355 . S
C118 C120 1.415 . S
C119 C118 1.355 . S
C119 C121 1.419 . S
C120 C118 1.415 . S
C120 C125 1.425 . S
C120 C127 1.409 . S
C121 H113 0.930 . S
C121 C119 1.419 . S
C121 C122 1.362 . S
C122 H114 0.930 . S
C122 C121 1.362 . S
C122 C125 1.409 . S
C123 H115 0.930 . S
C123 C124 1.355 . S
C123 C125 1.415 . S
C124 C123 1.355 . S
C124 C126 1.419 . S
C125 C120 1.425 . S
C125 C122 1.409 . S
C125 C123 1.415 . S
C126 H116 0.930 1_545 S
C126 C124 1.419 . S
C126 C127 1.362 . S
C127 H117 0.930 . S
C127 C120 1.409 . S
C127 C126 1.362 . S
H128 C134 0.930 . S
H129 C137 0.930 . S
H130 C138 0.930 . S
H131 C139 0.930 . S
H132 C142 0.930 . S
H133 C143 0.930 . S
C134 H128 0.930 . S
C134 C135 1.355 . S
C134 C136 1.415 . S
C135 C134 1.355 . S
C135 C137 1.419 . S
C136 C134 1.415 . S
C136 C141 1.425 . S
C136 C143 1.409 . S
C137 H129 0.930 . S
C137 C135 1.419 . S
C137 C138 1.362 . S
C138 H130 0.930 . S
C138 C137 1.362 . S
C138 C141 1.409 . S
C139 H131 0.930 . S
C139 C140 1.355 . S
C139 C141 1.415 . S
C140 C139 1.355 . S
C140 C142 1.419 . S
C141 C136 1.425 . S
C141 C138 1.409 . S
C141 C139 1.415 . S
C142 H132 0.930 . S
C142 C140 1.419 . S
C142 C143 1.362 . S
C143 H133 0.930 . S
C143 C136 1.409 . S
C143 C142 1.362 . S
H144 C150 0.930 . S
H145 C153 0.930 . S
H146 C154 0.930 . S
H147 C155 0.930 . S
H148 C158 0.930 . S
H149 C159 0.930 . S
C150 H144 0.930 . S
C150 C151 1.355 1_565 S
C150 C152 1.415 . S
C151 C150 1.355 1_545 S
C151 C153 1.419 . S
C152 C150 1.415 . S
C152 C157 1.425 1_565 S
C152 C159 1.409 . S
C153 H145 0.930 . S
C153 C151 1.419 . S
C153 C154 1.362 . S
C154 H146 0.930 . S
C154 C153 1.362 . S
C154 C157 1.409 . S
C155 H147 0.930 . S
C155 C156 1.355 1_545 S
C155 C157 1.415 . S
C156 C155 1.355 1_565 S
C156 C158 1.419 . S
C157 C152 1.425 1_545 S
C157 C154 1.409 . S
C157 C155 1.415 . S
C158 H148 0.930 . S
C158 C156 1.419 . S
C158 C159 1.362 . S
C159 H149 0.930 . S
C159 C152 1.409 . S
C159 C158 1.362 . S
H160 C166 0.925 1_556 S
H161 C169 0.930 . S
H162 C170 0.930 . S
H163 C171 0.930 . S
H164 C174 0.930 . S
H165 C175 0.930 . S
C166 H160 0.925 1_554 S
C166 C167 1.359 . S
C166 C168 1.416 . S
C167 C166 1.359 . S
C167 C169 1.419 . S
C168 C166 1.416 . S
C168 C173 1.425 . S
C168 C175 1.409 1_554 S
C169 H161 0.930 . S
C169 C167 1.419 . S
C169 C170 1.362 . S
C170 H162 0.930 . S
C170 C169 1.362 . S
C170 C173 1.409 . S
C171 H163 0.930 . S
C171 C172 1.355 . S
C171 C173 1.415 . S
C172 C171 1.355 . S
C172 C174 1.419 1_554 S
C173 C168 1.425 . S
C173 C170 1.409 . S
C173 C171 1.415 . S
C174 H164 0.930 . S
C174 C172 1.419 1_556 S
C174 C175 1.362 . S
C175 H165 0.930 . S
C175 C168 1.409 1_556 S
C175 C174 1.362 . S
H176 C182 0.930 . S
H177 C185 0.930 . S
H178 C186 0.930 . S
H179 C187 0.930 . S
H180 C190 0.930 . S
H181 C191 0.930 . S
C182 H176 0.930 . S
C182 C183 1.355 . S
C182 C184 1.415 . S
C183 C182 1.355 . S
C183 C185 1.419 . S
C184 C182 1.415 . S
C184 C189 1.425 . S
C184 C191 1.409 1_455 S
C185 H177 0.930 . S
C185 C183 1.419 . S
C185 C186 1.362 . S
C186 H178 0.930 . S
C186 C185 1.362 . S
C186 C189 1.409 . S
C187 H179 0.930 . S
C187 C188 1.355 . S
C187 C189 1.415 . S
C188 C187 1.355 . S
C188 C190 1.419 1_455 S
C189 C184 1.425 . S
C189 C186 1.409 . S
C189 C187 1.415 . S
C190 H180 0.930 . S
C190 C188 1.419 1_655 S
C190 C191 1.362 . S
C191 H181 0.930 . S
C191 C184 1.409 1_655 S
C191 C190 1.362 . S
H192 C198 0.930 1_655 S
H193 C201 0.930 . S
H194 C202 0.930 . S
H195 C203 0.930 . S
H196 C206 0.930 . S
H197 C207 0.930 . S
C198 H192 0.930 1_455 S
C198 C199 1.355 . S
C198 C200 1.415 . S
C199 C198 1.355 . S
C199 C201 1.419 . S
C200 C198 1.415 . S
C200 C205 1.425 . S
C200 C207 1.409 1_455 S
C201 H193 0.930 . S
C201 C199 1.419 . S
C201 C202 1.362 . S
C202 H194 0.930 . S
C202 C201 1.362 . S
C202 C205 1.409 . S
C203 H195 0.930 . S
C203 C204 1.355 . S
C203 C205 1.415 . S
C204 C203 1.355 . S
C204 C206 1.419 1_455 S
C205 C200 1.425 . S
C205 C202 1.409 . S
C205 C203 1.415 . S
C206 H196 0.930 . S
C206 C204 1.419 1_655 S
C206 C207 1.362 . S
C207 H197 0.930 . S
C207 C200 1.409 1_655 S
C207 C206 1.362 . S
H208 C214 0.930 . S
H209 C217 0.930 . S
H210 C218 0.930 . S
H211 C219 0.930 . S
H212 C222 0.930 . S
H213 C223 0.930 . S
C214 H208 0.930 . S
C214 C215 1.355 . S
C214 C216 1.415 . S
C215 C214 1.355 . S
C215 C217 1.419 . S
C216 C214 1.415 . S
C216 C221 1.425 . S
C216 C223 1.409 1_545 S
C217 H209 0.930 . S
C217 C215 1.419 . S
C217 C218 1.362 . S
C218 H210 0.930 . S
C218 C217 1.362 . S
C218 C221 1.409 . S
C219 H211 0.930 . S
C219 C220 1.355 . S
C219 C221 1.415 . S
C220 C219 1.355 . S
C220 C222 1.419 1_545 S
C221 C216 1.425 . S
C221 C218 1.409 . S
C221 C219 1.415 . S
C222 H212 0.930 . S
C222 C220 1.419 1_565 S
C222 C223 1.362 . S
C223 H213 0.930 . S
C223 C216 1.409 1_565 S
C223 C222 1.362 . S
H224 C230 0.930 . S
H225 C233 0.930 . S
H226 C234 0.930 . S
H227 C235 0.930 . S
H228 C238 0.930 . S
H229 C239 0.930 . S
C230 H224 0.930 . S
C230 C231 1.355 1_545 S
C230 C232 1.415 . S
C231 C230 1.355 1_565 S
C231 C233 1.419 1_455 S
C232 C230 1.415 . S
C232 C237 1.425 1_445 S
C232 C239 1.409 . S
C233 H225 0.930 . S
C233 C231 1.419 1_655 S
C233 C234 1.362 . S
C234 H226 0.930 . S
C234 C233 1.362 . S
C234 C237 1.409 . S
C235 H227 0.930 . S
C235 C236 1.355 1_565 S
C235 C237 1.415 . S
C236 C235 1.355 1_545 S
C236 C238 1.419 1_655 S
C237 C232 1.425 1_665 S
C237 C234 1.409 . S
C237 C235 1.415 . S
C238 H228 0.930 . S
C238 C236 1.419 1_455 S
C238 C239 1.362 . S
C239 H229 0.930 . S
C239 C232 1.409 . S
C239 C238 1.362 . S
C103 C6 1.288 . S
C108 C4 1.288 . S
C119 C38 1.283 . S
C124 C36 1.291 . S
C135 C66 1.268 . S
C140 C93 1.280 . S
C151 C68 1.288 . S
C156 C70 1.287 . S
C167 C2 1.248 . S
C172 C29 1.261 . S
C183 C34 1.297 . S
C188 C61 1.298 . S
C199 N50 1.569 . S
C204 N13 1.607 1_455 S
C215 N45 1.556 . S
C220 N77 1.616 1_545 S
C231 N82 1.611 . S
C236 N18 1.564 . S
