# Generated by pormake.
# Topology vmb, (5)-cn, num edge types: 1
# Building blocks:
#     Node 0, Type 0, BuildingBlock: XOMCOT_clean_sbu_1, # of connection points: 5
#     Node 1, Type 0, BuildingBlock: XOMCOT_clean_sbu_1, # of connection points: 5
#     Node 2, Type 0, BuildingBlock: XOMCOT_clean_sbu_1, # of connection points: 5
#     Node 3, Type 0, BuildingBlock: XOMCOT_clean_sbu_1, # of connection points: 5
#     Node 4, Type 0, BuildingBlock: XOMCOT_clean_sbu_1, # of connection points: 5
#     Node 5, Type 0, BuildingBlock: XOMCOT_clean_sbu_1, # of connection points: 5
#     Node 6, Type 0, BuildingBlock: XOMCOT_clean_sbu_1, # of connection points: 5
#     Node 7, Type 0, BuildingBlock: XOMCOT_clean_sbu_1, # of connection points: 5
#     Edge 8, Type (0, 0), None
#     Edge 9, Type (0, 0), None
#     Edge 10, Type (0, 0), None
#     Edge 11, Type (0, 0), None
#     Edge 12, Type (0, 0), None
#     Edge 13, Type (0, 0), None
#     Edge 14, Type (0, 0), None
#     Edge 15, Type (0, 0), None
#     Edge 16, Type (0, 0), None
#     Edge 17, Type (0, 0), None
#     Edge 18, Type (0, 0), None
#     Edge 19, Type (0, 0), None
#     Edge 20, Type (0, 0), None
#     Edge 21, Type (0, 0), None
#     Edge 22, Type (0, 0), None
#     Edge 23, Type (0, 0), None
#     Edge 24, Type (0, 0), None
#     Edge 25, Type (0, 0), None
#     Edge 26, Type (0, 0), None
#     Edge 27, Type (0, 0), None
# Relax obj value: 0.060
# Max RMSD: 0.101
# Mean RMSD: 0.101
data_MOF--net-vmb--node1-XOMCOT_clean_sbu_1--edge1-none
_symmetry_space_group_name_H-M    P1
_symmetry_Int_Tables_number       1
_symmetry_cell_setting            triclinic
loop_
_symmetry_equiv_pos_as_xyz
'x, y, z'
_cell_length_a     19.487773
_cell_length_b     26.887409
_cell_length_c     12.123515
_cell_angle_alpha  89.986095
_cell_angle_beta   112.49939
_cell_angle_gamma 89.999947
loop_
_atom_site_label
_atom_site_type_symbol
_atom_site_fract_x
_atom_site_fract_y
_atom_site_fract_z
_atom_type_partial_charge
C0 C 0.16339 0.03786 0.1662 0.0
C1 C 0.08937 0.03742 0.15034 0.0
N2 N 0.08572 0.02893 0.25727 0.0
N3 N 0.20581 0.02931 0.2823 0.0
C4 C 0.15644 0.02406 0.33548 0.0
H5 H 0.18465 0.04488 0.09743 0.0
Co6 Co 0.31003 0.02744 0.35363 0.0
C7 C 0.33691 -0.01018 0.59697 0.0
O8 O 0.38725 0.02408 0.64722 0.0
N9 N 0.41512 0.02357 0.42546 0.0
C10 C 0.53774 0.03388 0.48443 0.0
C11 C 0.46932 0.05714 0.43797 0.0
C12 C 0.4522 -0.0198 0.46418 0.0
N13 N 0.52635 -0.01449 0.50034 0.0
O14 O 0.31174 -0.03066 0.2658 0.0
H15 H 0.46052 0.0957 0.41168 0.0
H16 H 0.42488 0.94505 0.46263 0.0
O17 O 0.30395 -0.01262 0.48356 0.0
C18 C 0.3215 -0.01915 0.1708 0.0
O19 O 0.32311 0.02791 0.14304 0.0
N20 N 0.30788 0.08821 0.42711 0.0
C21 C 0.29773 0.18742 0.48709 0.0
C22 C 0.28016 0.14864 0.54957 0.0
C23 C 0.28315 0.09935 0.51552 0.0
C24 C 0.32141 0.12535 0.3619 0.0
C25 C 0.3171 0.17503 0.39039 0.0
H26 H 0.26356 0.07091 0.55873 0.0
H27 H 0.33446 0.11611 0.28529 0.0
H28 H 0.17168 0.01708 0.42964 0.0
H29 H 1.0424 0.04427 0.06786 0.0
H30 H 0.59111 0.05102 0.50202 0.0
H31 H 0.26375 0.15597 0.62377 0.0
H32 H 0.32754 0.20333 0.33524 0.0
C33 C 0.94355 0.03762 0.37503 0.0
C34 C 1.01757 0.03721 0.39085 0.0
N35 N 1.02119 0.02895 0.28383 0.0
N36 N 0.90111 0.02926 0.25886 0.0
C37 C 0.95047 0.02414 0.20561 0.0
H38 H 0.92231 0.04448 0.44388 0.0
Co39 Co 0.79689 0.0274 0.18752 0.0
C40 C 0.77001 -0.01023 0.94422 0.0
O41 O 0.71962 0.02401 0.89392 0.0
N42 N 0.6918 0.02353 0.11569 0.0
C43 C 0.56919 0.03387 0.05669 0.0
C44 C 0.63761 0.05711 0.10314 0.0
C45 C 0.65472 -0.01982 0.07701 0.0
N46 N 0.58057 -0.0145 0.04084 0.0
O47 O 0.79518 -0.03071 0.27538 0.0
H48 H 0.64642 0.09568 0.12938 0.0
H49 H 0.68203 0.94502 0.0786 0.0
O50 O 0.80299 -0.01265 0.05763 0.0
C51 C 0.78538 -0.0192 0.37034 0.0
O52 O 0.78373 0.02786 0.39802 0.0
N53 N 0.79902 0.08818 0.11401 0.0
C54 C 0.80916 0.1874 0.05407 0.0
C55 C 0.82662 0.14865 0.99145 0.0
C56 C 0.82364 0.09935 0.02547 0.0
C57 C 0.78558 0.12529 0.17932 0.0
C58 C 0.78989 0.17498 0.15086 0.0
H59 H 0.84315 0.07092 0.98214 0.0
H60 H 0.77259 0.11603 0.25599 0.0
H61 H 0.93521 0.01729 0.1114 0.0
H62 H 0.06455 0.0439 0.47339 0.0
H63 H 0.51582 0.05103 0.03908 0.0
H64 H 0.84294 0.156 0.91716 0.0
H65 H 0.77952 0.20327 0.20611 0.0
C66 C 0.94352 0.89513 0.87499 0.0
C67 C 1.01754 0.89557 0.89084 0.0
N68 N 1.02119 0.90406 0.78392 0.0
N69 N 0.9011 0.90368 0.75889 0.0
C70 C 0.95048 0.90893 0.70571 0.0
H71 H 0.92226 0.88811 0.94376 0.0
Co72 Co 0.79688 0.90555 0.68756 0.0
C73 C 0.76999 0.94318 0.44422 0.0
O74 O 0.71964 0.90892 0.39397 0.0
N75 N 0.69179 0.90944 0.61573 0.0
C76 C 0.56917 0.89912 0.55675 0.0
C77 C 0.63758 0.87586 0.60317 0.0
C78 C 0.65472 0.9528 0.57707 0.0
N79 N 0.58057 0.9475 0.54093 0.0
O80 O 0.79518 0.96365 0.77539 0.0
H81 H 0.64638 0.83729 0.62938 0.0
H82 H 0.68204 -0.01204 0.57865 0.0
O83 O 0.80296 0.94562 0.55763 0.0
C84 C 0.78542 0.95214 0.8704 0.0
O85 O 0.7838 0.90508 0.89816 0.0
N86 N 0.79902 0.84479 0.61407 0.0
C87 C 0.80917 0.74558 0.55408 0.0
C88 C 0.82674 0.78436 0.49161 0.0
C89 C 0.82375 0.83364 0.52566 0.0
C90 C 0.78549 0.80765 0.67927 0.0
C91 C 0.78979 0.75797 0.65078 0.0
H92 H 0.84334 0.86209 0.48245 0.0
H93 H 0.77244 0.81688 0.75589 0.0
H94 H 0.93524 0.91591 0.61154 0.0
H95 H 0.06451 0.88872 0.97333 0.0
H96 H 0.51579 0.88198 0.53911 0.0
H97 H 0.84315 0.77703 0.41741 0.0
H98 H 0.77935 0.72966 0.70592 0.0
C99 C 0.16337 0.89537 0.66617 0.0
C100 C 0.08935 0.89577 0.65035 0.0
N101 N 0.08572 0.90404 0.75736 0.0
N102 N 0.20581 0.90373 0.78234 0.0
C103 C 0.15644 0.90885 0.83558 0.0
H104 H 0.1846 0.88851 0.59732 0.0
Co105 Co 0.31002 0.9056 0.85367 0.0
C106 C 0.33691 0.94323 0.09697 0.0
O107 O 0.3873 0.90899 0.14727 0.0
N108 N 0.41511 0.90947 0.92551 0.0
C109 C 0.53773 0.89913 0.98451 0.0
C110 C 0.46931 0.87588 0.93811 0.0
C111 C 0.45219 0.95283 0.96412 0.0
N112 N 0.52634 0.9475 1.00027 0.0
O113 O 0.31172 0.96371 0.7658 0.0
H114 H 0.4605 0.83731 0.91194 0.0
H115 H 0.42488 -0.01201 0.9625 0.0
O116 O 0.30392 0.94565 0.98356 0.0
C117 C 0.32153 0.95219 0.67085 0.0
O118 O 0.32318 0.90513 0.64317 0.0
N119 N 0.3079 0.84482 0.9272 0.0
C120 C 0.29776 0.74559 0.98714 0.0
C121 C 0.2803 0.78435 0.04975 0.0
C122 C 0.28328 0.83365 1.01573 0.0
C123 C 0.32134 0.80771 0.86189 0.0
C124 C 0.31704 0.75801 0.89035 0.0
H125 H 0.26377 0.86208 0.05906 0.0
H126 H 0.33433 0.81697 0.78522 0.0
H127 H 0.1717 0.91571 0.92979 0.0
H128 H 1.04237 0.88908 0.5678 0.0
H129 H 0.5911 0.88197 1.00217 0.0
H130 H 0.26398 0.777 0.12404 0.0
H131 H 0.3274 0.72973 0.83511 0.0
C132 C 0.67557 0.57217 0.21119 0.0
C133 C 0.60024 0.57342 0.18459 0.0
N134 N 0.58577 0.54135 0.25788 0.0
N135 N 0.70787 0.53996 0.30181 0.0
C136 C 0.65131 0.52176 0.32837 0.0
H137 H 0.70559 0.59561 0.17248 0.0
Co138 Co 0.81002 0.53116 0.38207 0.0
C139 C 0.80875 0.49918 0.62083 0.0
O140 O 0.8413 0.53937 0.67853 0.0
N141 N 0.91412 0.52069 0.46386 0.0
C142 C 1.02922 0.51685 0.60386 0.0
C143 C 0.96084 0.5395 0.56981 0.0
C144 C 0.95627 0.48676 0.43561 0.0
N145 N 1.02552 0.48346 0.5195 0.0
O146 O 0.80323 0.47078 0.29593 0.0
H147 H 0.94637 0.56724 0.62155 0.0
H148 H 0.9366 0.46368 0.35701 0.0
O149 O 0.7949 0.49392 0.50946 0.0
C150 C 0.79742 0.47601 0.18813 0.0
O151 O 0.79228 0.52089 0.14302 0.0
N152 N 0.81472 0.59326 0.45525 0.0
C153 C 0.8117 0.69262 0.52026 0.0
C154 C 0.76267 0.65766 0.536 0.0
C155 C 0.7649 0.60834 0.50265 0.0
C156 C 0.86052 0.62703 0.43438 0.0
C157 C 0.86155 0.6765 0.46937 0.0
H158 H 0.72505 0.58259 0.51219 0.0
H159 H 0.89614 0.6156 0.38907 0.0
H160 H 0.6581 0.49756 0.40305 0.0
H161 H 0.56017 0.59839 0.12301 0.0
H162 H 0.077 0.52375 0.68504 0.0
H163 H 0.72107 0.66837 0.57034 0.0
H164 H 0.90074 0.70171 0.45536 0.0
C165 C 0.43146 0.57209 0.32981 0.0
C166 C 0.50676 0.57339 0.35611 0.0
N167 N 0.52108 0.54142 0.28252 0.0
N168 N 0.39907 0.5399 0.23919 0.0
C169 C 0.45554 0.52176 0.21234 0.0
H170 H 0.40151 0.59548 0.36873 0.0
Co171 Co 0.2969 0.53114 0.15907 0.0
C172 C 0.29802 0.49915 0.92027 0.0
O173 O 0.26542 0.53932 0.86251 0.0
N174 N 0.19277 0.52069 0.07739 0.0
C175 C 0.07765 0.51694 0.93746 0.0
C176 C 0.14602 0.53957 0.97152 0.0
C177 C 0.15064 0.48672 0.10558 0.0
N178 N 0.08137 0.48347 0.02172 0.0
O179 O 0.30372 0.47075 0.24528 0.0
H180 H 0.16048 0.56735 0.91982 0.0
H181 H 0.17035 0.46357 0.18408 0.0
O182 O 0.31192 0.49389 0.03166 0.0
C183 C 0.30957 0.47598 0.35309 0.0
O184 O 0.31472 0.52086 0.39817 0.0
N185 N 0.29218 0.59323 0.08585 0.0
C186 C 0.29521 0.69262 0.0209 0.0
C187 C 0.34415 0.65765 1.00494 0.0
C188 C 0.34191 0.60831 0.03826 0.0
C189 C 0.24647 0.62702 0.10692 0.0
C190 C 0.24544 0.67649 0.07197 0.0
H191 H 0.3817 0.58255 0.02856 0.0
H192 H 0.21093 0.61558 0.15237 0.0
H193 H 0.44868 0.49755 0.13766 0.0
H194 H 0.54689 0.59833 0.41768 0.0
H195 H 1.02984 0.52389 0.85632 0.0
H196 H 0.38568 0.66835 0.97046 0.0
H197 H 0.20633 0.70171 0.08614 0.0
C198 C 0.43131 0.3608 0.82999 0.0
C199 C 0.50664 0.35954 0.85658 0.0
N200 N 0.52112 0.39161 0.78331 0.0
N201 N 0.39902 0.39302 0.73938 0.0
C202 C 0.45559 0.41121 0.71283 0.0
H203 H 0.40128 0.33737 0.86869 0.0
Co204 Co 0.29688 0.40183 0.65911 0.0
C205 C 0.29813 0.43381 0.42036 0.0
O206 O 0.26552 0.39364 0.36265 0.0
N207 N 0.19277 0.41232 0.5773 0.0
C208 C 0.07768 0.41616 0.4373 0.0
C209 C 0.14603 0.39349 0.4714 0.0
C210 C 0.15066 0.4463 0.60548 0.0
N211 N 0.08141 0.44961 0.52157 0.0
O212 O 0.30368 0.46222 0.74527 0.0
H213 H 0.16048 0.36571 0.41971 0.0
H214 H 0.17034 0.4694 0.68404 0.0
O215 O 0.31201 0.43908 0.53174 0.0
C216 C 0.30947 0.45698 0.85306 0.0
O217 O 0.3146 0.4121 0.89818 0.0
N218 N 0.29217 0.33974 0.58591 0.0
C219 C 0.29519 0.24038 0.52091 0.0
C220 C 0.34421 0.27534 0.50514 0.0
C221 C 0.34198 0.32466 0.53849 0.0
C222 C 0.24638 0.30596 0.60681 0.0
C223 C 0.24535 0.2565 0.57183 0.0
H224 H 0.38182 0.35041 0.52894 0.0
H225 H 0.21077 0.3174 0.65214 0.0
H226 H 0.44881 0.43542 0.63816 0.0
H227 H 0.54671 0.33456 0.91816 0.0
H228 H 1.02988 0.40924 0.35616 0.0
H229 H 0.3858 0.26463 0.47079 0.0
H230 H 0.20617 0.23129 0.58585 0.0
C231 C 0.67545 0.36088 0.71139 0.0
C232 C 0.60015 0.35957 0.6851 0.0
N233 N 0.58582 0.39154 0.75868 0.0
N234 N 0.70783 0.39308 0.80199 0.0
C235 C 0.65135 0.41122 0.82884 0.0
H236 H 0.70541 0.3375 0.67248 0.0
Co237 Co 0.80999 0.40186 0.88212 0.0
C238 C 0.80888 0.43384 0.12092 0.0
O239 O 0.84154 0.39369 0.17868 0.0
N240 N 0.91412 0.41232 0.96382 0.0
C241 C 1.02924 0.41608 0.10375 0.0
C242 C 0.96088 0.39342 0.06965 0.0
C243 C 0.95622 0.44634 0.9357 0.0
N244 N 1.02548 0.4496 1.01958 0.0
O245 O 0.80316 0.46225 0.7959 0.0
H246 H 0.94645 0.36561 0.1213 0.0
H247 H 0.9365 0.46951 0.85725 0.0
O248 O 0.79495 0.4391 1.00952 0.0
C249 C 0.79732 0.45701 0.6881 0.0
O250 O 0.79219 0.41214 0.64302 0.0
N251 N 0.81473 0.33977 0.95536 0.0
C252 C 0.8117 0.24038 1.0203 0.0
C253 C 0.76277 0.27535 0.03629 0.0
C254 C 0.76501 0.32469 1.00297 0.0
C255 C 0.86043 0.30598 0.93426 0.0
C256 C 0.86146 0.2565 0.96921 0.0
H257 H 0.72522 0.35045 1.01268 0.0
H258 H 0.89596 0.31742 0.88879 0.0
H259 H 0.6582 0.43543 0.90351 0.0
H260 H 0.56002 0.33463 0.62353 0.0
H261 H 0.07706 0.40911 0.18486 0.0
H262 H 0.72125 0.26465 0.07079 0.0
H263 H 0.90057 0.23129 0.95502 0.0
loop_
_geom_bond_atom_site_label_1
_geom_bond_atom_site_label_2
_geom_bond_distance
_geom_bond_site_symmetry_2
_ccdc_geom_bond_type
C0 C1 1.351 . S
C0 N3 1.368 . S
C0 H5 0.931 . S
C1 C0 1.351 . S
C1 N2 1.373 . S
C1 H29 0.930 . S
N2 C1 1.373 . S
N2 C4 1.340 . S
N3 C0 1.368 . S
N3 C4 1.321 . S
N3 Co6 2.135 . S
C4 N2 1.340 . S
C4 N3 1.321 . S
C4 H28 0.930 . S
H5 C0 0.931 . S
Co6 N3 2.135 . S
Co6 N9 2.121 . S
Co6 O14 2.055 1_545 S
Co6 O17 2.039 1_545 S
Co6 N20 2.140 . S
C7 O8 1.227 1_565 S
C7 O17 1.265 . S
O8 C7 1.227 1_545 S
N9 Co6 2.121 . S
N9 C11 1.375 . S
N9 C12 1.313 . S
C10 C11 1.338 . S
C10 N13 1.377 . S
C10 H30 0.930 . S
C11 N9 1.375 . S
C11 C10 1.338 . S
C11 H15 0.931 . S
C12 N9 1.313 . S
C12 N13 1.344 . S
C12 H16 0.930 . S
N13 C10 1.377 . S
N13 C12 1.344 . S
O14 Co6 2.055 1_565 S
O14 C18 1.253 1_565 S
H15 C11 0.931 . S
H16 C12 0.930 . S
O17 Co6 2.039 1_565 S
O17 C7 1.265 . S
C18 O14 1.253 1_545 S
C18 O19 1.227 . S
O19 C18 1.227 . S
N20 Co6 2.140 . S
N20 C23 1.346 . S
N20 C24 1.345 . S
C21 C22 1.387 . S
C21 C25 1.391 . S
C22 C21 1.387 . S
C22 C23 1.369 . S
C22 H31 0.929 . S
C23 N20 1.346 . S
C23 C22 1.369 . S
C23 H26 0.928 . S
C24 N20 1.345 . S
C24 C25 1.371 . S
C24 H27 0.931 . S
C25 C21 1.391 . S
C25 C24 1.371 . S
C25 H32 0.930 . S
H26 C23 0.928 . S
H27 C24 0.931 . S
H28 C4 0.930 . S
H29 C1 0.930 . S
H30 C10 0.930 . S
H31 C22 0.929 . S
H32 C25 0.930 . S
C33 C34 1.351 . S
C33 N36 1.368 . S
C33 H38 0.931 . S
C34 C33 1.351 . S
C34 N35 1.373 . S
C34 H62 0.930 . S
N35 C34 1.373 . S
N35 C37 1.340 . S
N36 C33 1.368 . S
N36 C37 1.321 . S
N36 Co39 2.135 . S
C37 N35 1.340 . S
C37 N36 1.321 . S
C37 H61 0.930 . S
H38 C33 0.931 . S
Co39 N36 2.135 . S
Co39 N42 2.121 . S
Co39 O47 2.055 1_545 S
Co39 O50 2.039 1_544 S
Co39 N53 2.140 . S
C40 O41 1.227 1_565 S
C40 O50 1.265 . S
O41 C40 1.227 1_545 S
N42 Co39 2.121 . S
N42 C44 1.375 1_554 S
N42 C45 1.313 . S
C43 C44 1.338 . S
C43 N46 1.377 . S
C43 H63 0.930 . S
C44 N42 1.375 1_556 S
C44 C43 1.338 . S
C44 H48 0.931 . S
C45 N42 1.313 . S
C45 N46 1.344 1_554 S
C45 H49 0.930 . S
N46 C43 1.377 . S
N46 C45 1.344 1_556 S
O47 Co39 2.055 1_565 S
O47 C51 1.253 1_565 S
H48 C44 0.931 . S
H49 C45 0.930 . S
O50 Co39 2.039 1_566 S
O50 C40 1.265 . S
C51 O47 1.253 1_545 S
C51 O52 1.227 . S
O52 C51 1.227 . S
N53 Co39 2.140 . S
N53 C56 1.346 . S
N53 C57 1.345 . S
C54 C55 1.387 . S
C54 C58 1.391 . S
C55 C54 1.387 . S
C55 C56 1.369 . S
C55 H64 0.929 1_554 S
C56 N53 1.346 . S
C56 C55 1.369 . S
C56 H59 0.928 . S
C57 N53 1.345 . S
C57 C58 1.371 . S
C57 H60 0.931 . S
C58 C54 1.391 . S
C58 C57 1.371 . S
C58 H65 0.930 . S
H59 C56 0.928 . S
H60 C57 0.931 . S
H61 C37 0.930 . S
H62 C34 0.930 . S
H63 C43 0.930 . S
H64 C55 0.929 1_556 S
H65 C58 0.930 . S
C66 C67 1.351 . S
C66 N69 1.368 . S
C66 H71 0.931 . S
C67 C66 1.351 . S
C67 N68 1.373 . S
C67 H95 0.930 . S
N68 C67 1.373 . S
N68 C70 1.340 . S
N69 C66 1.368 . S
N69 C70 1.321 . S
N69 Co72 2.135 . S
C70 N68 1.340 . S
C70 N69 1.321 . S
C70 H94 0.930 . S
H71 C66 0.931 . S
Co72 N69 2.135 . S
Co72 N75 2.121 . S
Co72 O80 2.055 1_565 S
Co72 O83 2.039 1_565 S
Co72 N86 2.140 . S
C73 O74 1.227 1_545 S
C73 O83 1.265 . S
O74 C73 1.227 1_565 S
N75 Co72 2.121 . S
N75 C77 1.375 . S
N75 C78 1.313 . S
C76 C77 1.338 . S
C76 N79 1.377 . S
C76 H96 0.930 . S
C77 N75 1.375 . S
C77 C76 1.338 . S
C77 H81 0.931 . S
C78 N75 1.313 . S
C78 N79 1.344 . S
C78 H82 0.930 . S
N79 C76 1.377 . S
N79 C78 1.344 . S
O80 Co72 2.055 1_545 S
O80 C84 1.253 1_545 S
H81 C77 0.931 . S
H82 C78 0.930 . S
O83 Co72 2.039 1_545 S
O83 C73 1.265 . S
C84 O80 1.253 1_565 S
C84 O85 1.227 . S
O85 C84 1.227 . S
N86 Co72 2.140 . S
N86 C89 1.346 . S
N86 C90 1.345 . S
C87 C88 1.387 . S
C87 C91 1.391 . S
C88 C87 1.387 . S
C88 C89 1.369 . S
C88 H97 0.929 . S
C89 N86 1.346 . S
C89 C88 1.369 . S
C89 H92 0.928 . S
C90 N86 1.345 . S
C90 C91 1.371 . S
C90 H93 0.931 . S
C91 C87 1.391 . S
C91 C90 1.371 . S
C91 H98 0.930 . S
H92 C89 0.928 . S
H93 C90 0.931 . S
H94 C70 0.930 . S
H95 C67 0.930 . S
H96 C76 0.930 . S
H97 C88 0.929 . S
H98 C91 0.930 . S
C99 C100 1.351 . S
C99 N102 1.368 . S
C99 H104 0.931 . S
C100 C99 1.351 . S
C100 N101 1.373 . S
C100 H128 0.930 . S
N101 C100 1.373 . S
N101 C103 1.340 . S
N102 C99 1.368 . S
N102 C103 1.321 . S
N102 Co105 2.135 . S
C103 N101 1.340 . S
C103 N102 1.321 . S
C103 H127 0.930 . S
H104 C99 0.931 . S
Co105 N102 2.135 . S
Co105 N108 2.121 . S
Co105 O113 2.055 1_565 S
Co105 O116 2.039 1_566 S
Co105 N119 2.140 . S
C106 O107 1.227 1_545 S
C106 O116 1.265 . S
O107 C106 1.227 1_565 S
N108 Co105 2.121 . S
N108 C110 1.375 1_556 S
N108 C111 1.313 . S
C109 C110 1.338 . S
C109 N112 1.377 . S
C109 H129 0.930 . S
C110 N108 1.375 1_554 S
C110 C109 1.338 . S
C110 H114 0.931 . S
C111 N108 1.313 . S
C111 N112 1.344 1_556 S
C111 H115 0.930 . S
N112 C109 1.377 . S
N112 C111 1.344 1_554 S
O113 Co105 2.055 1_545 S
O113 C117 1.253 1_545 S
H114 C110 0.931 . S
H115 C111 0.930 . S
O116 Co105 2.039 1_544 S
O116 C106 1.265 . S
C117 O113 1.253 1_565 S
C117 O118 1.227 . S
O118 C117 1.227 . S
N119 Co105 2.140 . S
N119 C122 1.346 . S
N119 C123 1.345 . S
C120 C121 1.387 . S
C120 C124 1.391 . S
C121 C120 1.387 . S
C121 C122 1.369 . S
C121 H130 0.929 1_556 S
C122 N119 1.346 . S
C122 C121 1.369 . S
C122 H125 0.928 . S
C123 N119 1.345 . S
C123 C124 1.371 . S
C123 H126 0.931 . S
C124 C120 1.391 . S
C124 C123 1.371 . S
C124 H131 0.930 . S
H125 C122 0.928 . S
H126 C123 0.931 . S
H127 C103 0.930 . S
H128 C100 0.930 . S
H129 C109 0.930 . S
H130 C121 0.929 1_554 S
H131 C124 0.930 . S
C132 C133 1.351 . S
C132 N135 1.368 . S
C132 H137 0.931 . S
C133 C132 1.351 . S
C133 N134 1.373 . S
C133 H161 0.930 . S
N134 C133 1.373 . S
N134 C136 1.340 . S
N135 C132 1.368 . S
N135 C136 1.321 . S
N135 Co138 2.135 . S
C136 N134 1.340 . S
C136 N135 1.321 . S
C136 H160 0.930 . S
H137 C132 0.931 . S
Co138 N135 2.135 . S
Co138 N141 2.121 . S
Co138 O146 2.055 . S
Co138 O149 2.039 . S
Co138 N152 2.140 . S
C139 O140 1.227 . S
C139 O149 1.265 . S
O140 C139 1.227 . S
N141 Co138 2.121 . S
N141 C143 1.375 . S
N141 C144 1.313 . S
C142 C143 1.338 . S
C142 N145 1.377 . S
C142 H162 0.930 . S
C143 N141 1.375 . S
C143 C142 1.338 . S
C143 H147 0.931 . S
C144 N141 1.313 . S
C144 N145 1.344 . S
C144 H148 0.930 . S
N145 C142 1.377 . S
N145 C144 1.344 . S
O146 Co138 2.055 . S
O146 C150 1.253 . S
H147 C143 0.931 . S
H148 C144 0.930 . S
O149 Co138 2.039 . S
O149 C139 1.265 . S
C150 O146 1.253 . S
C150 O151 1.227 . S
O151 C150 1.227 . S
N152 Co138 2.140 . S
N152 C155 1.346 . S
N152 C156 1.345 . S
C153 C154 1.387 . S
C153 C157 1.391 . S
C154 C153 1.387 . S
C154 C155 1.369 . S
C154 H163 0.929 . S
C155 N152 1.346 . S
C155 C154 1.369 . S
C155 H158 0.928 . S
C156 N152 1.345 . S
C156 C157 1.371 . S
C156 H159 0.931 . S
C157 C153 1.391 . S
C157 C156 1.371 . S
C157 H164 0.930 . S
H158 C155 0.928 . S
H159 C156 0.931 . S
H160 C136 0.930 . S
H161 C133 0.930 . S
H162 C142 0.930 . S
H163 C154 0.929 . S
H164 C157 0.930 . S
C165 C166 1.351 . S
C165 N168 1.368 . S
C165 H170 0.931 . S
C166 C165 1.351 . S
C166 N167 1.373 . S
C166 H194 0.930 . S
N167 C166 1.373 . S
N167 C169 1.340 . S
N168 C165 1.368 . S
N168 C169 1.321 . S
N168 Co171 2.135 . S
C169 N167 1.340 . S
C169 N168 1.321 . S
C169 H193 0.930 . S
H170 C165 0.931 . S
Co171 N168 2.135 . S
Co171 N174 2.121 . S
Co171 O179 2.055 . S
Co171 O182 2.039 1_554 S
Co171 N185 2.140 . S
C172 O173 1.227 . S
C172 O182 1.265 . S
O173 C172 1.227 . S
N174 Co171 2.121 . S
N174 C176 1.375 1_554 S
N174 C177 1.313 . S
C175 C176 1.338 . S
C175 N178 1.377 . S
C175 H195 0.930 . S
C176 N174 1.375 1_556 S
C176 C175 1.338 . S
C176 H180 0.931 . S
C177 N174 1.313 . S
C177 N178 1.344 1_554 S
C177 H181 0.930 . S
N178 C175 1.377 . S
N178 C177 1.344 1_556 S
O179 Co171 2.055 . S
O179 C183 1.253 . S
H180 C176 0.931 . S
H181 C177 0.930 . S
O182 Co171 2.039 1_556 S
O182 C172 1.265 . S
C183 O179 1.253 . S
C183 O184 1.227 . S
O184 C183 1.227 . S
N185 Co171 2.140 . S
N185 C188 1.346 . S
N185 C189 1.345 . S
C186 C187 1.387 . S
C186 C190 1.391 . S
C187 C186 1.387 . S
C187 C188 1.369 . S
C187 H196 0.929 1_554 S
C188 N185 1.346 . S
C188 C187 1.369 . S
C188 H191 0.928 . S
C189 N185 1.345 . S
C189 C190 1.371 . S
C189 H192 0.931 . S
C190 C186 1.391 . S
C190 C189 1.371 . S
C190 H197 0.930 . S
H191 C188 0.928 . S
H192 C189 0.931 . S
H193 C169 0.930 . S
H194 C166 0.930 . S
H195 C175 0.930 . S
H196 C187 0.929 1_556 S
H197 C190 0.930 . S
C198 C199 1.351 . S
C198 N201 1.368 . S
C198 H203 0.931 . S
C199 C198 1.351 . S
C199 N200 1.373 . S
C199 H227 0.930 . S
N200 C199 1.373 . S
N200 C202 1.340 . S
N201 C198 1.368 . S
N201 C202 1.321 . S
N201 Co204 2.135 . S
C202 N200 1.340 . S
C202 N201 1.321 . S
C202 H226 0.930 . S
H203 C198 0.931 . S
Co204 N201 2.135 . S
Co204 N207 2.121 . S
Co204 O212 2.055 . S
Co204 O215 2.039 . S
Co204 N218 2.140 . S
C205 O206 1.227 . S
C205 O215 1.265 . S
O206 C205 1.227 . S
N207 Co204 2.121 . S
N207 C209 1.375 . S
N207 C210 1.313 . S
C208 C209 1.338 . S
C208 N211 1.377 . S
C208 H228 0.930 . S
C209 N207 1.375 . S
C209 C208 1.338 . S
C209 H213 0.931 . S
C210 N207 1.313 . S
C210 N211 1.344 . S
C210 H214 0.930 . S
N211 C208 1.377 . S
N211 C210 1.344 . S
O212 Co204 2.055 . S
O212 C216 1.253 . S
H213 C209 0.931 . S
H214 C210 0.930 . S
O215 Co204 2.039 . S
O215 C205 1.265 . S
C216 O212 1.253 . S
C216 O217 1.227 . S
O217 C216 1.227 . S
N218 Co204 2.140 . S
N218 C221 1.346 . S
N218 C222 1.345 . S
C219 C220 1.387 . S
C219 C223 1.391 . S
C220 C219 1.387 . S
C220 C221 1.369 . S
C220 H229 0.929 . S
C221 N218 1.346 . S
C221 C220 1.369 . S
C221 H224 0.928 . S
C222 N218 1.345 . S
C222 C223 1.371 . S
C222 H225 0.931 . S
C223 C219 1.391 . S
C223 C222 1.371 . S
C223 H230 0.930 . S
H224 C221 0.928 . S
H225 C222 0.931 . S
H226 C202 0.930 . S
H227 C199 0.930 . S
H228 C208 0.930 . S
H229 C220 0.929 . S
H230 C223 0.930 . S
C231 C232 1.351 . S
C231 N234 1.368 . S
C231 H236 0.931 . S
C232 C231 1.351 . S
C232 N233 1.373 . S
C232 H260 0.930 . S
N233 C232 1.373 . S
N233 C235 1.340 . S
N234 C231 1.368 . S
N234 C235 1.321 . S
N234 Co237 2.135 . S
C235 N233 1.340 . S
C235 N234 1.321 . S
C235 H259 0.930 . S
H236 C231 0.931 . S
Co237 N234 2.135 . S
Co237 N240 2.121 . S
Co237 O245 2.055 . S
Co237 O248 2.039 1_556 S
Co237 N251 2.140 . S
C238 O239 1.227 . S
C238 O248 1.265 . S
O239 C238 1.227 . S
N240 Co237 2.121 . S
N240 C242 1.375 1_556 S
N240 C243 1.313 . S
C241 C242 1.338 . S
C241 N244 1.377 . S
C241 H261 0.930 . S
C242 N240 1.375 1_554 S
C242 C241 1.338 . S
C242 H246 0.931 . S
C243 N240 1.313 . S
C243 N244 1.344 1_556 S
C243 H247 0.930 . S
N244 C241 1.377 . S
N244 C243 1.344 1_554 S
O245 Co237 2.055 . S
O245 C249 1.253 . S
H246 C242 0.931 . S
H247 C243 0.930 . S
O248 Co237 2.039 1_554 S
O248 C238 1.265 . S
C249 O245 1.253 . S
C249 O250 1.227 . S
O250 C249 1.227 . S
N251 Co237 2.140 . S
N251 C254 1.346 . S
N251 C255 1.345 . S
C252 C253 1.387 . S
C252 C256 1.391 . S
C253 C252 1.387 . S
C253 C254 1.369 . S
C253 H262 0.929 1_556 S
C254 N251 1.346 . S
C254 C253 1.369 . S
C254 H257 0.928 . S
C255 N251 1.345 . S
C255 C256 1.371 . S
C255 H258 0.931 . S
C256 C252 1.391 . S
C256 C255 1.371 . S
C256 H263 0.930 . S
H257 C254 0.928 . S
H258 C255 0.931 . S
H259 C235 0.930 . S
H260 C232 0.930 . S
H261 C241 0.930 . S
H262 C253 0.929 1_554 S
H263 C256 0.930 . S
C106 C18 1.170 . S
C51 C73 1.170 . S
C84 C40 1.170 . S
C117 C7 1.170 . S
C150 C238 1.170 . S
C183 C205 1.170 . S
C172 C216 1.170 . S
C249 C139 1.170 . S
N79 N13 2.076 1_565 S
N112 N46 2.076 1_564 S
N145 N211 2.076 1_655 S
N178 N244 2.076 1_456 S
N2 N35 1.022 1_455 S
N101 N68 1.022 1_455 S
N167 N134 1.022 . S
N233 N200 1.022 . S
C219 C21 1.930 . S
C252 C54 1.930 1_556 S
C153 C87 1.930 . S
C120 C186 1.930 1_556 S
