# Generated by pormake.
# Topology acs-a, (4)-cn, num edge types: 1
# Building blocks:
#     Node 0, Type 0, BuildingBlock: NAHDIM_clean_sbu_0, # of connection points: 4
#     Node 1, Type 0, BuildingBlock: NAHDIM_clean_sbu_0, # of connection points: 4
#     Node 2, Type 0, BuildingBlock: NAHDIM_clean_sbu_0, # of connection points: 4
#     Node 3, Type 0, BuildingBlock: NAHDIM_clean_sbu_0, # of connection points: 4
#     Node 4, Type 0, BuildingBlock: NAHDIM_clean_sbu_0, # of connection points: 4
#     Node 5, Type 0, BuildingBlock: NAHDIM_clean_sbu_0, # of connection points: 4
#     Node 6, Type 0, BuildingBlock: NAHDIM_clean_sbu_0, # of connection points: 4
#     Node 7, Type 0, BuildingBlock: NAHDIM_clean_sbu_0, # of connection points: 4
#     Node 8, Type 0, BuildingBlock: NAHDIM_clean_sbu_0, # of connection points: 4
#     Node 9, Type 0, BuildingBlock: NAHDIM_clean_sbu_0, # of connection points: 4
#     Node 10, Type 0, BuildingBlock: NAHDIM_clean_sbu_0, # of connection points: 4
#     Node 11, Type 0, BuildingBlock: NAHDIM_clean_sbu_0, # of connection points: 4
#     Edge 12, Type (0, 0), None
#     Edge 13, Type (0, 0), None
#     Edge 14, Type (0, 0), None
#     Edge 15, Type (0, 0), None
#     Edge 16, Type (0, 0), None
#     Edge 17, Type (0, 0), None
#     Edge 18, Type (0, 0), None
#     Edge 19, Type (0, 0), None
#     Edge 20, Type (0, 0), None
#     Edge 21, Type (0, 0), None
#     Edge 22, Type (0, 0), None
#     Edge 23, Type (0, 0), None
#     Edge 24, Type (0, 0), None
#     Edge 25, Type (0, 0), None
#     Edge 26, Type (0, 0), None
#     Edge 27, Type (0, 0), None
#     Edge 28, Type (0, 0), None
#     Edge 29, Type (0, 0), None
#     Edge 30, Type (0, 0), None
#     Edge 31, Type (0, 0), None
#     Edge 32, Type (0, 0), None
#     Edge 33, Type (0, 0), None
#     Edge 34, Type (0, 0), None
#     Edge 35, Type (0, 0), None
# Relax obj value: 0.402
# Max RMSD: 0.217
# Mean RMSD: 0.210
data_MOF--net-acs-a--node1-NAHDIM_clean_sbu_0--edge1-none
_symmetry_space_group_name_H-M    P1
_symmetry_Int_Tables_number       1
_symmetry_cell_setting            triclinic
loop_
_symmetry_equiv_pos_as_xyz
'x, y, z'
_cell_length_a     22.899087
_cell_length_b     22.895093
_cell_length_c     19.897272
_cell_angle_alpha  89.997264
_cell_angle_beta   90.003015
_cell_angle_gamma 118.68987
loop_
_atom_site_label
_atom_site_type_symbol
_atom_site_fract_x
_atom_site_fract_y
_atom_site_fract_z
_atom_type_partial_charge
C0 C 0.39933 0.96087 0.07475 0.0
O1 O 0.36587 0.98709 0.10384 0.0
O2 O 0.46982 0.14059 0.0598 0.0
Zn3 Zn 0.5062 0.08695 0.10668 0.0
O4 O 0.49195 0.08856 0.20632 0.0
C5 C 0.6301 0.17291 0.03889 0.0
O6 O 0.59059 0.17028 -0.01022 0.0
O7 O 0.46232 -0.00573 0.07087 0.0
C8 C 0.53837 0.09731 0.24677 0.0
O9 O 0.59318 0.09969 0.22374 0.0
C10 C 0.43599 0.16383 0.08882 0.0
O11 O 0.41697 0.14719 0.15136 0.0
O12 O 0.6054 0.13647 0.09042 0.0
C13 C 0.47504 0.52644 0.5053 0.0
O14 O 0.41199 0.49195 0.52196 0.0
O15 O 0.37831 0.60897 0.52452 0.0
Zn16 Zn 0.45791 0.62082 0.57852 0.0
O17 O 0.42696 0.57514 0.66814 0.0
C18 C 0.50406 0.75918 0.55991 0.0
O19 O 0.47719 0.73848 0.50041 0.0
O20 O 0.50883 0.58605 0.52561 0.0
C21 C 0.39344 0.59598 0.70174 0.0
O22 O 0.38164 0.64206 0.67584 0.0
C23 C 0.31792 0.56653 0.53532 0.0
O24 O 0.30304 0.52126 0.58226 0.0
O25 O 0.51002 0.71867 0.59919 0.0
C26 C 0.87723 0.38461 0.93091 0.0
O27 O 0.8494 0.31989 0.93942 0.0
O28 O 0.71373 0.27823 0.00283 0.0
Zn29 Zn 0.78081 0.3728 0.02799 0.0
O30 O 0.82171 0.37382 0.11736 0.0
C31 C 0.67451 0.40234 0.00791 0.0
O32 O 0.65881 0.35702 0.96088 0.0
O33 O 0.85408 0.41767 0.9614 0.0
C34 C 0.84634 0.42632 0.15288 0.0
O35 O 0.8472 0.48042 0.12965 0.0
C36 C 0.69703 0.23028 0.04386 0.0
O37 O 0.73108 0.23979 0.09963 0.0
O38 O 0.72845 0.42181 0.04031 0.0
C39 C 0.54157 0.02132 0.5747 0.0
O40 O 0.57503 -0.00492 0.60375 0.0
O41 O 0.47103 0.84161 0.55981 0.0
Zn42 Zn 0.43468 0.89527 0.60669 0.0
O43 O 0.44893 0.89365 0.70633 0.0
C44 C 0.31077 0.80934 0.53889 0.0
O45 O 0.35027 0.81196 0.48978 0.0
O46 O 0.47857 0.98795 0.57087 0.0
C47 C 0.40252 0.88492 0.74678 0.0
O48 O 0.34772 0.88257 0.72373 0.0
C49 C 0.50485 0.81836 0.58884 0.0
O50 O 0.52388 0.83498 0.65138 0.0
O51 O 0.33548 0.84578 0.59042 0.0
C52 C 0.46567 0.45569 0.0053 0.0
O53 O 0.52873 0.49019 0.02197 0.0
O54 O 0.56244 0.37321 0.02452 0.0
Zn55 Zn 0.48283 0.36132 0.07852 0.0
O56 O 0.51377 0.407 0.16814 0.0
C57 C 0.43673 0.22298 0.05987 0.0
O58 O 0.4636 0.24367 0.00038 0.0
O59 O 0.43189 0.39608 0.0256 0.0
C60 C 0.5473 0.38618 0.20174 0.0
O61 O 0.55914 0.34012 0.17584 0.0
C62 C 0.62282 0.41567 0.03532 0.0
O63 O 0.63771 0.46094 0.08226 0.0
O64 O 0.43075 0.26347 0.09917 0.0
C65 C 0.06354 0.5977 0.43096 0.0
O66 O 0.09135 0.66241 0.43953 0.0
O67 O 0.2271 0.70403 0.50282 0.0
Zn68 Zn 0.16 0.60948 0.52799 0.0
O69 O 0.11911 0.60847 0.61736 0.0
C70 C 0.26625 0.57987 0.5079 0.0
O71 O 0.28197 0.6252 0.46085 0.0
O72 O 0.08672 0.56463 0.4614 0.0
C73 C 0.09446 0.55597 0.65289 0.0
O74 O 0.09357 0.50187 0.62965 0.0
C75 C 0.24382 0.75199 0.54386 0.0
O76 O 0.20978 0.74249 0.59963 0.0
O77 O 0.21232 0.56043 0.54031 0.0
C78 C 0.00045 0.56246 0.39493 0.0
O79 O -0.02577 0.59594 0.36588 0.0
O80 O 0.82076 0.49194 0.40965 0.0
Zn81 Zn 0.87444 0.45554 0.36289 0.0
O82 O 0.87287 0.46972 0.26323 0.0
C83 C 0.78848 0.33166 0.43074 0.0
O84 O 0.79106 0.37119 0.4798 0.0
O85 O 0.96708 0.49945 0.39876 0.0
C86 C 0.86419 0.42327 0.22284 0.0
O87 O 0.86185 0.36849 0.24595 0.0
C88 C 0.79752 0.52573 0.38054 0.0
O89 O 0.81418 0.5447 0.318 0.0
O90 O 0.82494 0.35633 0.37922 0.0
C91 C 0.36407 0.89777 0.03872 0.0
O92 O 0.29936 0.86997 0.0302 0.0
O93 O 0.25768 0.73426 0.96678 0.0
Zn94 Zn 0.35222 0.80138 0.94158 0.0
O95 O 0.35316 0.84235 0.85226 0.0
C96 C 0.38177 0.69505 0.96145 0.0
O97 O 0.33648 0.67931 0.00853 0.0
O98 O 0.39712 0.87462 0.0082 0.0
C99 C 0.40563 0.86702 0.8167 0.0
O100 O 0.45974 0.86788 0.83985 0.0
C101 C 0.20971 0.71756 0.92578 0.0
O102 O 0.21921 0.75165 0.87004 0.0
O103 O 0.40121 0.74902 0.92912 0.0
C104 C 0.50557 0.49594 0.46363 0.0
O105 O 0.47107 0.4329 0.44689 0.0
O106 O 0.58814 0.3992 0.44471 0.0
Zn107 Zn 0.60003 0.47878 0.39063 0.0
O108 O 0.55441 0.44776 0.30098 0.0
C109 C 0.73834 0.52498 0.4094 0.0
O110 O 0.71762 0.49815 0.46891 0.0
O111 O 0.56521 0.52972 0.44345 0.0
C112 C 0.57528 0.41421 0.26747 0.0
O113 O 0.62133 0.40242 0.29345 0.0
C114 C 0.54572 0.3388 0.43395 0.0
O115 O 0.50048 0.32387 0.38698 0.0
O116 O 0.69787 0.5309 0.37004 0.0
C117 C 0.94032 0.41986 0.89488 0.0
O118 O 0.96651 0.38637 0.86578 0.0
O119 O 0.12002 0.49032 0.90966 0.0
Zn120 Zn 0.06636 0.52675 0.86289 0.0
O121 O 0.06792 0.51257 0.76323 0.0
C122 C 0.15235 0.65061 0.93075 0.0
O123 O 0.14976 0.61108 0.97983 0.0
O124 O -0.02628 0.48286 0.89875 0.0
C125 C 0.07662 0.55903 0.72284 0.0
O126 O 0.07899 0.61382 0.74595 0.0
C127 C 0.14324 0.45651 0.88056 0.0
O128 O 0.12655 0.43754 0.81801 0.0
O129 O 0.11589 0.62595 0.87922 0.0
C130 C 0.57682 0.08442 0.53867 0.0
O131 O 0.64152 0.1122 0.53011 0.0
O132 O 0.68317 0.24799 0.46678 0.0
Zn133 Zn 0.58865 0.18085 0.44158 0.0
O134 O 0.58772 0.13989 0.35226 0.0
C135 C 0.55904 0.28713 0.46147 0.0
O136 O 0.60433 0.3029 0.50855 0.0
O137 O 0.54377 0.1076 0.5082 0.0
C138 C 0.53525 0.11521 0.3167 0.0
O139 O 0.48112 0.11431 0.33985 0.0
C140 C 0.73114 0.26469 0.42579 0.0
O141 O 0.72168 0.23061 0.37005 0.0
O142 O 0.53962 0.23317 0.42912 0.0
C143 C 0.43515 0.4862 0.96363 0.0
O144 O 0.46965 0.54924 0.94689 0.0
O145 O 0.35263 0.58297 0.94471 0.0
Zn146 Zn 0.3407 0.50338 0.89063 0.0
O147 O 0.38631 0.53438 0.80098 0.0
C148 C 0.2024 0.45724 0.90941 0.0
O149 O 0.22313 0.48407 0.96892 0.0
O150 O 0.3755 0.45242 0.94345 0.0
C151 C 0.36546 0.56795 0.76747 0.0
O152 O 0.31943 0.57977 0.79344 0.0
C153 C 0.39507 0.64337 0.93394 0.0
O154 O 0.44031 0.6583 0.88697 0.0
O155 O 0.24286 0.45129 0.87005 0.0
loop_
_geom_bond_atom_site_label_1
_geom_bond_atom_site_label_2
_geom_bond_distance
_geom_bond_site_symmetry_2
_ccdc_geom_bond_type
C0 O1 1.160 1_556 S
C0 O7 1.185 1_556 S
O1 C0 1.160 1_554 S
O2 Zn3 1.899 . S
O2 C10 1.284 . S
Zn3 O2 1.899 . S
Zn3 O4 2.032 . S
Zn3 O7 2.086 . S
Zn3 O12 1.977 . S
O4 Zn3 2.032 . S
O4 C8 1.278 . S
C5 O6 1.203 . S
C5 O12 1.267 . S
O6 C5 1.203 . S
O7 C0 1.185 1_554 S
O7 Zn3 2.086 . S
C8 O4 1.278 . S
C8 O9 1.211 . S
O9 C8 1.211 . S
C10 O2 1.284 . S
C10 O11 1.273 . S
O11 C10 1.273 . S
O12 Zn3 1.977 . S
O12 C5 1.267 . S
C13 O14 1.160 . S
C13 O20 1.185 . S
O14 C13 1.160 . S
O15 Zn16 1.899 . S
O15 C23 1.284 . S
Zn16 O15 1.899 . S
Zn16 O17 2.032 . S
Zn16 O20 2.086 . S
Zn16 O25 1.977 . S
O17 Zn16 2.032 . S
O17 C21 1.278 . S
C18 O19 1.203 . S
C18 O25 1.267 . S
O19 C18 1.203 . S
O20 C13 1.185 . S
O20 Zn16 2.086 . S
C21 O17 1.278 . S
C21 O22 1.211 . S
O22 C21 1.211 . S
C23 O15 1.284 . S
C23 O24 1.273 . S
O24 C23 1.273 . S
O25 Zn16 1.977 . S
O25 C18 1.267 . S
C26 O27 1.160 1_556 S
C26 O33 1.185 1_556 S
O27 C26 1.160 1_554 S
O28 Zn29 1.899 . S
O28 C36 1.284 . S
Zn29 O28 1.899 . S
Zn29 O30 2.032 . S
Zn29 O33 2.086 . S
Zn29 O38 1.977 . S
O30 Zn29 2.032 . S
O30 C34 1.278 . S
C31 O32 1.203 . S
C31 O38 1.267 . S
O32 C31 1.203 . S
O33 C26 1.185 1_554 S
O33 Zn29 2.086 . S
C34 O30 1.278 . S
C34 O35 1.211 . S
O35 C34 1.211 . S
C36 O28 1.284 . S
C36 O37 1.273 . S
O37 C36 1.273 . S
O38 Zn29 1.977 . S
O38 C31 1.267 . S
C39 O40 1.160 . S
C39 O46 1.185 . S
O40 C39 1.160 . S
O41 Zn42 1.899 . S
O41 C49 1.284 . S
Zn42 O41 1.899 . S
Zn42 O43 2.032 . S
Zn42 O46 2.086 . S
Zn42 O51 1.977 . S
O43 Zn42 2.032 . S
O43 C47 1.278 . S
C44 O45 1.203 . S
C44 O51 1.267 . S
O45 C44 1.203 . S
O46 C39 1.185 . S
O46 Zn42 2.086 . S
C47 O43 1.278 . S
C47 O48 1.211 . S
O48 C47 1.211 . S
C49 O41 1.284 . S
C49 O50 1.273 . S
O50 C49 1.273 . S
O51 Zn42 1.977 . S
O51 C44 1.267 . S
C52 O53 1.161 . S
C52 O59 1.187 . S
O53 C52 1.161 . S
O54 Zn55 1.899 . S
O54 C62 1.284 . S
Zn55 O54 1.899 . S
Zn55 O56 2.032 . S
Zn55 O59 2.086 . S
Zn55 O64 1.977 . S
O56 Zn55 2.032 . S
O56 C60 1.278 . S
C57 O58 1.203 . S
C57 O64 1.267 . S
O58 C57 1.203 . S
O59 C52 1.187 . S
O59 Zn55 2.086 . S
C60 O56 1.278 . S
C60 O61 1.211 . S
O61 C60 1.211 . S
C62 O54 1.284 . S
C62 O63 1.273 . S
O63 C62 1.273 . S
O64 Zn55 1.977 . S
O64 C57 1.267 . S
C65 O66 1.160 . S
C65 O72 1.185 . S
O66 C65 1.160 . S
O67 Zn68 1.899 . S
O67 C75 1.284 . S
Zn68 O67 1.899 . S
Zn68 O69 2.032 . S
Zn68 O72 2.086 . S
Zn68 O77 1.977 . S
O69 Zn68 2.032 . S
O69 C73 1.278 . S
C70 O71 1.203 . S
C70 O77 1.267 . S
O71 C70 1.203 . S
O72 C65 1.185 . S
O72 Zn68 2.086 . S
C73 O69 1.278 . S
C73 O74 1.211 . S
O74 C73 1.211 . S
C75 O67 1.284 . S
C75 O76 1.273 . S
O76 C75 1.273 . S
O77 Zn68 1.977 . S
O77 C70 1.267 . S
C78 O79 1.160 . S
C78 O85 1.185 . S
O79 C78 1.160 . S
O80 Zn81 1.899 . S
O80 C88 1.284 . S
Zn81 O80 1.899 . S
Zn81 O82 2.032 . S
Zn81 O85 2.086 . S
Zn81 O90 1.977 . S
O82 Zn81 2.032 . S
O82 C86 1.278 . S
C83 O84 1.203 . S
C83 O90 1.267 . S
O84 C83 1.203 . S
O85 C78 1.185 . S
O85 Zn81 2.086 . S
C86 O82 1.278 . S
C86 O87 1.211 . S
O87 C86 1.211 . S
C88 O80 1.284 . S
C88 O89 1.273 . S
O89 C88 1.273 . S
O90 Zn81 1.977 . S
O90 C83 1.267 . S
C91 O92 1.160 1_554 S
C91 O98 1.185 1_554 S
O92 C91 1.160 1_556 S
O93 Zn94 1.899 . S
O93 C101 1.284 . S
Zn94 O93 1.899 . S
Zn94 O95 2.032 . S
Zn94 O98 2.086 . S
Zn94 O103 1.977 . S
O95 Zn94 2.032 . S
O95 C99 1.278 . S
C96 O97 1.203 . S
C96 O103 1.267 . S
O97 C96 1.203 . S
O98 C91 1.185 1_556 S
O98 Zn94 2.086 . S
C99 O95 1.278 . S
C99 O100 1.211 . S
O100 C99 1.211 . S
C101 O93 1.284 . S
C101 O102 1.273 . S
O102 C101 1.273 . S
O103 Zn94 1.977 . S
O103 C96 1.267 . S
C104 O105 1.160 . S
C104 O111 1.185 . S
O105 C104 1.160 . S
O106 Zn107 1.899 . S
O106 C114 1.284 . S
Zn107 O106 1.899 . S
Zn107 O108 2.032 . S
Zn107 O111 2.086 . S
Zn107 O116 1.977 . S
O108 Zn107 2.032 . S
O108 C112 1.278 . S
C109 O110 1.203 . S
C109 O116 1.267 . S
O110 C109 1.203 . S
O111 C104 1.185 . S
O111 Zn107 2.086 . S
C112 O108 1.278 . S
C112 O113 1.211 . S
O113 C112 1.211 . S
C114 O106 1.284 . S
C114 O115 1.273 . S
O115 C114 1.273 . S
O116 Zn107 1.977 . S
O116 C109 1.267 . S
C117 O118 1.160 1_554 S
C117 O124 1.185 1_554 S
O118 C117 1.160 1_556 S
O119 Zn120 1.899 . S
O119 C127 1.284 . S
Zn120 O119 1.899 . S
Zn120 O121 2.032 . S
Zn120 O124 2.086 . S
Zn120 O129 1.977 . S
O121 Zn120 2.032 . S
O121 C125 1.278 . S
C122 O123 1.203 . S
C122 O129 1.267 . S
O123 C122 1.203 . S
O124 C117 1.185 1_556 S
O124 Zn120 2.086 . S
C125 O121 1.278 . S
C125 O126 1.211 . S
O126 C125 1.211 . S
C127 O119 1.284 . S
C127 O128 1.273 . S
O128 C127 1.273 . S
O129 Zn120 1.977 . S
O129 C122 1.267 . S
C130 O131 1.160 . S
C130 O137 1.185 . S
O131 C130 1.160 . S
O132 Zn133 1.899 . S
O132 C140 1.284 . S
Zn133 O132 1.899 . S
Zn133 O134 2.032 . S
Zn133 O137 2.086 . S
Zn133 O142 1.977 . S
O134 Zn133 2.032 . S
O134 C138 1.278 . S
C135 O136 1.203 . S
C135 O142 1.267 . S
O136 C135 1.203 . S
O137 C130 1.185 . S
O137 Zn133 2.086 . S
C138 O134 1.278 . S
C138 O139 1.211 . S
O139 C138 1.211 . S
C140 O132 1.284 . S
C140 O141 1.273 . S
O141 C140 1.273 . S
O142 Zn133 1.977 . S
O142 C135 1.267 . S
C143 O144 1.161 . S
C143 O150 1.187 . S
O144 C143 1.161 . S
O145 Zn146 1.899 . S
O145 C153 1.284 . S
Zn146 O145 1.899 . S
Zn146 O147 2.032 . S
Zn146 O150 2.086 . S
Zn146 O155 1.977 . S
O147 Zn146 2.032 . S
O147 C151 1.278 . S
C148 O149 1.203 . S
C148 O155 1.267 . S
O149 C148 1.203 . S
O150 C143 1.187 . S
O150 Zn146 2.086 . S
C151 O147 1.278 . S
C151 O152 1.211 . S
O152 C151 1.211 . S
C153 O145 1.284 . S
C153 O154 1.273 . S
O154 C153 1.273 . S
O155 Zn146 1.977 . S
O155 C148 1.267 . S
C138 C8 1.463 . S
C21 C151 1.349 . S
C34 C86 1.463 . S
C99 C47 1.463 . S
C112 C60 1.349 . S
C73 C125 1.463 . S
C0 C91 1.241 1_546 S
C13 C104 0.942 . S
C117 C26 1.241 1_454 S
C130 C39 1.241 1_545 S
C143 C52 0.942 1_556 S
C78 C65 1.241 1_655 S
C10 C57 0.882 . S
C23 C70 1.019 . S
C36 C5 0.979 . S
C49 C18 0.882 . S
C62 C31 1.019 . S
C75 C44 0.979 . S
C88 C109 0.882 . S
C101 C122 0.979 . S
C135 C114 1.019 . S
C127 C148 0.882 . S
C140 C83 0.979 . S
C153 C96 1.019 . S
