# Generated by pormake.
# Topology pcu, (6)-cn, num edge types: 1
# Building blocks:
#     Node 0, Type 0, BuildingBlock: KUMBUR_clean_sbu_1, # of connection points: 6
#     Edge 1, Type (0, 0), BuildingBlock: EZIPEK_clean_linker_0, # of connection points: 2
#     Edge 2, Type (0, 0), BuildingBlock: EZIPEK_clean_linker_0, # of connection points: 2
#     Edge 3, Type (0, 0), BuildingBlock: EZIPEK_clean_linker_0, # of connection points: 2
# Relax obj value: 0.000
# Max RMSD: 0.000
# Mean RMSD: 0.000
data_MOF--net-pcu--node1-KUMBUR_clean_sbu_1--edge1-EZIPEK_clean_linker_0
_symmetry_space_group_name_H-M    P1
_symmetry_Int_Tables_number       1
_symmetry_cell_setting            triclinic
loop_
_symmetry_equiv_pos_as_xyz
'x, y, z'
_cell_length_a     10.681441
_cell_length_b     20.571932
_cell_length_c     10.870541
_cell_angle_alpha  113.88949
_cell_angle_beta   90.660462
_cell_angle_gamma 113.46472
loop_
_atom_site_label
_atom_site_type_symbol
_atom_site_fract_x
_atom_site_fract_y
_atom_site_fract_z
_atom_type_partial_charge
Tb0 Tb 0.95939 0.89188 0.89067 0.0
C1 C 0.35486 0.26961 0.33267 0.0
N2 N 0.22867 0.21469 0.32853 0.0
C3 C 0.25659 0.28688 0.57265 0.0
C4 C 0.43583 0.33655 0.4569 0.0
C5 C 0.17863 0.22222 0.44654 0.0
C6 C 0.38553 0.3445 0.57788 0.0
C7 C 0.53304 0.3141 0.21079 0.0
C8 C 0.40289 0.25856 0.2112 0.0
C9 C 0.60993 0.38334 0.3326 0.0
C10 C 0.56242 0.39414 0.45567 0.0
Tb11 Tb 0.0996 0.12872 0.11105 0.0
N12 N 0.32394 0.19172 0.09469 0.0
C13 C 0.58212 0.29804 0.08828 0.0
C14 C 0.37374 0.17387 0.97641 0.0
C15 C 0.50374 0.22672 0.97136 0.0
H16 H 0.07557 0.18059 0.44288 0.0
H17 H 0.54261 0.21282 0.87709 0.0
H18 H 0.9834 0.83999 0.55884 0.0
H19 H 0.51637 0.80783 0.12464 0.0
H20 H 0.31354 0.11881 0.88645 0.0
H21 H 0.68152 0.33958 0.08433 0.0
H22 H 0.74548 0.90181 0.11528 0.0
H23 H 0.21561 0.29321 0.66526 0.0
H24 H 0.70626 0.42886 0.33305 0.0
H25 H 0.62386 0.44743 0.549 0.0
H26 H 0.84335 0.72737 0.33646 0.0
H27 H 0.44471 0.39514 0.6754 0.0
H28 H 0.37744 0.68105 0.91743 0.0
N29 N 0.83029 0.8059 0.67319 0.0
C30 C 0.70411 0.75099 0.66906 0.0
C31 C 0.80237 0.73371 0.42908 0.0
C32 C 0.62312 0.68405 0.54484 0.0
C33 C 0.88033 0.79837 0.55518 0.0
C34 C 0.67342 0.6761 0.42385 0.0
N35 N 0.73507 0.82886 0.90705 0.0
C36 C 0.68526 0.84674 0.02533 0.0
C37 C 0.52593 0.70651 0.79096 0.0
C38 C 0.65609 0.76204 0.79054 0.0
C39 C 0.47685 0.72258 0.91346 0.0
C40 C 0.55525 0.79392 0.03038 0.0
H41 H 0.61423 0.62545 0.32633 0.0
H42 H 0.43508 0.57318 0.45275 0.0
H43 H 0.35268 0.59176 0.6687 0.0
O44 O 0.95867 0.80412 0.94943 0.0
O45 O 0.80202 0.93502 0.87732 0.0
O46 O 0.88276 0.04538 0.08222 0.0
O47 O 0.03451 0.81291 0.76934 0.0
O48 O 1.02878 0.94068 0.11562 0.0
O49 O 1.00981 0.05901 0.2236 0.0
O50 O 0.10032 0.21647 0.05227 0.0
O51 O 0.25698 0.08558 0.12439 0.0
O52 O 0.17624 0.97521 0.91949 0.0
O53 O 1.02449 0.20769 0.23237 0.0
O54 O 0.03023 0.07992 0.88609 0.0
O55 O 0.04916 0.96157 0.7781 0.0
C56 C 0.7899 0.99767 0.96654 0.0
C57 C 0.03112 0.70292 0.80117 0.0
C58 C 0.0468 0.5992 0.84691 0.0
C59 C 0.09117 0.57243 0.72289 0.0
C60 C 0.07661 0.67504 0.67775 0.0
C61 C 0.10569 0.61012 0.63891 0.0
C62 C 1.01388 0.6638 0.8848 0.0
C63 C 1.02644 0.9992 0.22618 0.0
C64 C 1.00323 0.77277 0.83968 0.0
C65 C 0.49653 0.62647 0.54608 0.0
C66 C 0.44902 0.63727 0.66915 0.0
C67 C 0.26909 0.02292 0.03517 0.0
C68 C 1.02787 0.31767 0.20053 0.0
C69 C 1.01216 0.42138 0.15479 0.0
C70 C 0.96779 0.44814 0.2788 0.0
C71 C 0.98237 0.34555 0.32395 0.0
C72 C 0.0451 0.35679 0.1169 0.0
C73 C 0.95327 0.41046 0.36277 0.0
C74 C 0.03256 0.0214 0.77553 0.0
C75 C 0.05577 0.24783 0.16202 0.0
H76 H 0.11444 0.52201 0.69111 0.0
H77 H 0.08996 0.70342 0.61068 0.0
H78 H 0.14084 0.58937 0.54382 0.0
H79 H 0.9776 0.684 0.97955 0.0
H80 H 0.94449 0.49856 0.31057 0.0
H81 H 0.96902 0.31716 0.39101 0.0
H82 H 0.08139 0.3366 0.02215 0.0
H83 H 0.91811 0.4312 0.45786 0.0
C84 C 0.92822 0.94127 0.39019 0.0
C85 C 0.03762 0.99775 0.36306 0.0
C86 C 0.13079 0.07933 0.61152 0.0
C87 C 1.02138 0.02285 0.63865 0.0
N88 N 0.78839 0.91809 0.55479 0.0
N89 N 0.27061 0.10251 0.44692 0.0
C90 C 0.91212 0.95874 0.52799 0.0
C91 C 0.14688 0.06186 0.47372 0.0
N92 N 0.84745 0.86804 0.2864 0.0
N93 N 0.21158 0.15255 0.71531 0.0
H94 H 0.28814 0.08628 0.34727 0.0
H95 H 0.35934 0.14521 0.52315 0.0
H96 H 0.18624 0.17166 0.81158 0.0
H97 H 0.29031 0.19745 0.70117 0.0
H98 H 0.76871 0.82315 0.30056 0.0
H99 H 0.87274 0.84893 0.19011 0.0
H100 H 0.69967 0.8754 0.47855 0.0
H101 H 0.77085 0.9343 0.65444 0.0
C102 C 0.40628 0.94287 0.97379 0.0
C103 C 0.40703 0.01811 0.04026 0.0
C104 C 0.65272 0.07773 0.02791 0.0
C105 C 0.65197 1.00248 0.96144 0.0
N106 N 0.50131 0.86535 0.81032 0.0
N107 N 0.55768 0.15525 0.19137 0.0
C108 C 0.52157 0.93497 0.91737 0.0
C109 C 0.53743 0.08563 0.08434 0.0
N110 N 0.30158 0.87969 0.97856 0.0
N111 N 0.75742 0.14091 0.02317 0.0
H112 H 0.48504 0.15885 0.25359 0.0
H113 H 0.65484 0.20456 0.23168 0.0
H114 H 0.83212 0.13352 0.96517 0.0
H115 H 0.75555 0.19571 0.05715 0.0
H116 H 0.30347 0.82489 0.94457 0.0
H117 H 0.22685 0.88707 0.03653 0.0
H118 H 0.40413 0.81606 0.77003 0.0
H119 H 0.57395 0.86172 0.7481 0.0
C120 C 0.13066 0.59103 0.05587 0.0
C121 C 0.03193 0.55619 0.93217 0.0
C122 C 0.9283 0.42956 0.94583 0.0
C123 C 1.02703 0.46439 0.06952 0.0
N124 N 0.23753 0.57192 0.22894 0.0
N125 N 0.82144 0.44866 0.77275 0.0
C126 C 0.13208 0.54365 0.12124 0.0
C127 C 0.92688 0.47694 0.88046 0.0
N128 N 0.22057 0.66993 0.11283 0.0
N129 N 0.83838 0.35066 0.88888 0.0
H130 H 0.81554 0.48259 0.72507 0.0
H131 H 0.73328 0.39466 0.73776 0.0
H132 H 0.83404 0.31418 0.93439 0.0
H133 H 0.77434 0.31932 0.7916 0.0
H134 H 0.28459 0.70126 0.21012 0.0
H135 H 0.22491 0.70642 0.06733 0.0
H136 H 0.32568 0.62593 0.26392 0.0
H137 H 0.24342 0.538 0.27664 0.0
loop_
_geom_bond_atom_site_label_1
_geom_bond_atom_site_label_2
_geom_bond_distance
_geom_bond_site_symmetry_2
_ccdc_geom_bond_type
Tb0 N29 2.617 . S
Tb0 N35 2.572 . S
Tb0 O44 2.465 . S
Tb0 O45 2.387 . S
Tb0 O47 2.428 . S
Tb0 O48 2.308 1_556 S
Tb0 O52 2.349 1_655 S
Tb0 O55 2.393 . S
Tb0 C64 2.802 . S
C1 N2 1.379 . S
C1 C4 1.416 . S
C1 C8 1.424 . S
N2 C1 1.379 . S
N2 C5 1.334 . S
N2 Tb11 2.617 . S
C3 C5 1.390 . S
C3 C6 1.339 . S
C3 H23 0.930 . S
C4 C1 1.416 . S
C4 C6 1.416 . S
C4 C10 1.448 . S
C5 N2 1.334 . S
C5 C3 1.390 . S
C5 H16 0.930 . S
C6 C3 1.339 . S
C6 C4 1.416 . S
C6 H27 0.930 . S
C7 C8 1.413 . S
C7 C9 1.427 . S
C7 C13 1.416 . S
C8 C1 1.424 . S
C8 C7 1.413 . S
C8 N12 1.361 . S
C9 C7 1.427 . S
C9 C10 1.328 . S
C9 H24 0.929 . S
C10 C4 1.448 . S
C10 C9 1.328 . S
C10 H25 0.930 . S
Tb11 N2 2.617 . S
Tb11 N12 2.572 . S
Tb11 O46 2.349 1_455 S
Tb11 O49 2.393 . S
Tb11 O50 2.465 . S
Tb11 O51 2.387 . S
Tb11 O53 2.428 . S
Tb11 O54 2.308 1_554 S
Tb11 C75 2.802 . S
N12 C8 1.361 . S
N12 Tb11 2.572 . S
N12 C14 1.340 1_554 S
C13 C7 1.416 . S
C13 C15 1.332 1_554 S
C13 H21 0.931 1_554 S
C14 N12 1.340 1_556 S
C14 C15 1.407 . S
C14 H20 0.930 . S
C15 C13 1.332 1_556 S
C15 C14 1.407 . S
C15 H17 0.929 . S
H16 C5 0.930 . S
H17 C15 0.929 . S
H18 C33 0.930 . S
H19 C40 0.929 . S
H20 C14 0.930 . S
H21 C13 0.931 1_556 S
H22 C36 0.930 . S
H23 C3 0.930 . S
H24 C9 0.929 . S
H25 C10 0.930 . S
H26 C31 0.930 . S
H27 C6 0.930 . S
H28 C39 0.931 1_554 S
N29 Tb0 2.617 . S
N29 C30 1.379 . S
N29 C33 1.334 . S
C30 N29 1.379 . S
C30 C32 1.416 . S
C30 C38 1.424 . S
C31 H26 0.930 . S
C31 C33 1.390 . S
C31 C34 1.339 . S
C32 C30 1.416 . S
C32 C34 1.416 . S
C32 C65 1.448 . S
C33 H18 0.930 . S
C33 N29 1.334 . S
C33 C31 1.390 . S
C34 C31 1.339 . S
C34 C32 1.416 . S
C34 H41 0.930 . S
N35 Tb0 2.572 . S
N35 C36 1.340 1_556 S
N35 C38 1.361 . S
C36 H22 0.930 . S
C36 N35 1.340 1_554 S
C36 C40 1.407 . S
C37 C38 1.413 . S
C37 C39 1.416 . S
C37 C66 1.427 . S
C38 C30 1.424 . S
C38 N35 1.361 . S
C38 C37 1.413 . S
C39 H28 0.931 1_556 S
C39 C37 1.416 . S
C39 C40 1.332 1_556 S
C40 H19 0.929 . S
C40 C36 1.407 . S
C40 C39 1.332 1_554 S
H41 C34 0.930 . S
H42 C65 0.930 . S
H43 C66 0.929 . S
O44 Tb0 2.465 . S
O44 C64 1.264 . S
O45 Tb0 2.387 . S
O45 C56 1.257 1_565 S
O46 Tb11 2.349 1_655 S
O46 C56 1.247 1_554 S
O47 Tb0 2.428 . S
O47 C64 1.256 . S
O48 Tb0 2.308 1_554 S
O48 C63 1.266 1_565 S
O49 Tb11 2.393 . S
O49 C63 1.248 1_455 S
O50 Tb11 2.465 . S
O50 C75 1.264 . S
O51 Tb11 2.387 . S
O51 C67 1.260 1_545 S
O52 Tb0 2.349 1_455 S
O52 C67 1.245 1_556 S
O53 Tb11 2.428 . S
O53 C75 1.256 . S
O54 Tb11 2.308 1_556 S
O54 C74 1.266 1_545 S
O55 Tb0 2.393 . S
O55 C74 1.248 1_655 S
C56 O45 1.257 1_545 S
C56 O46 1.247 1_556 S
C57 C60 1.399 . S
C57 C62 1.383 . S
C57 C64 1.496 . S
C58 C59 1.399 . S
C58 C62 1.389 . S
C59 C58 1.399 . S
C59 C61 1.380 . S
C59 H76 0.929 . S
C60 C57 1.399 . S
C60 C61 1.392 . S
C60 H77 0.929 . S
C61 C59 1.380 . S
C61 C60 1.392 . S
C61 H78 0.929 . S
C62 C57 1.383 . S
C62 C58 1.389 . S
C62 H79 0.931 1_556 S
C63 O48 1.266 1_545 S
C63 O49 1.248 1_655 S
C64 Tb0 2.802 . S
C64 O44 1.264 . S
C64 O47 1.256 . S
C64 C57 1.496 . S
C65 C32 1.448 . S
C65 H42 0.930 . S
C65 C66 1.328 . S
C66 C37 1.427 . S
C66 H43 0.929 . S
C66 C65 1.328 . S
C67 O51 1.260 1_565 S
C67 O52 1.245 1_554 S
C68 C71 1.399 . S
C68 C72 1.383 . S
C68 C75 1.496 . S
C69 C70 1.399 . S
C69 C72 1.389 . S
C70 C69 1.399 . S
C70 C73 1.380 . S
C70 H80 0.929 . S
C71 C68 1.399 . S
C71 C73 1.392 . S
C71 H81 0.929 . S
C72 C68 1.383 . S
C72 C69 1.389 . S
C72 H82 0.931 1_554 S
C73 C70 1.380 . S
C73 C71 1.392 . S
C73 H83 0.929 . S
C74 O54 1.266 1_565 S
C74 O55 1.248 1_455 S
C75 Tb11 2.802 . S
C75 O50 1.264 . S
C75 O53 1.256 . S
C75 C68 1.496 . S
H76 C59 0.929 . S
H77 C60 0.929 . S
H78 C61 0.929 . S
H79 C62 0.931 1_554 S
H80 C70 0.929 . S
H81 C71 0.929 . S
H82 C72 0.931 1_556 S
H83 C73 0.929 . S
C84 C85 1.363 1_665 S
C84 C90 1.379 . S
C84 N92 1.356 . S
C85 C84 1.363 1_445 S
C85 C91 1.363 . S
C86 C87 1.363 . S
C86 C91 1.379 . S
C86 N93 1.356 . S
C87 C86 1.363 . S
C87 C90 1.363 1_445 S
N88 C90 1.356 . S
N88 H100 0.984 . S
N88 H101 0.985 . S
N89 C91 1.356 . S
N89 H94 0.984 . S
N89 H95 0.985 . S
C90 C84 1.379 . S
C90 C87 1.363 1_665 S
C90 N88 1.356 . S
C91 C85 1.363 . S
C91 C86 1.379 . S
C91 N89 1.356 . S
N92 C84 1.356 . S
N92 H98 0.984 . S
N92 H99 0.984 . S
N93 C86 1.356 . S
N93 H96 0.984 . S
N93 H97 0.985 . S
H94 N89 0.984 . S
H95 N89 0.985 . S
H96 N93 0.984 . S
H97 N93 0.985 . S
H98 N92 0.984 . S
H99 N92 0.984 . S
H100 N88 0.984 . S
H101 N88 0.985 . S
C102 C103 1.363 1_566 S
C102 C108 1.379 . S
C102 N110 1.356 . S
C103 C102 1.363 1_544 S
C103 C109 1.363 . S
C104 C105 1.363 . S
C104 C109 1.379 . S
C104 N111 1.356 . S
C105 C104 1.363 . S
C105 C108 1.363 1_544 S
N106 C108 1.356 . S
N106 H118 0.984 . S
N106 H119 0.985 . S
N107 C109 1.356 . S
N107 H112 0.984 . S
N107 H113 0.985 . S
C108 C102 1.379 . S
C108 C105 1.363 1_566 S
C108 N106 1.356 . S
C109 C103 1.363 . S
C109 C104 1.379 . S
C109 N107 1.356 . S
N110 C102 1.356 . S
N110 H116 0.984 . S
N110 H117 0.984 . S
N111 C104 1.356 . S
N111 H114 0.984 . S
N111 H115 0.985 . S
H112 N107 0.984 . S
H113 N107 0.985 . S
H114 N111 0.984 . S
H115 N111 0.985 . S
H116 N110 0.984 . S
H117 N110 0.984 . S
H118 N106 0.984 . S
H119 N106 0.985 . S
C120 C121 1.363 . S
C120 C126 1.379 . S
C120 N128 1.356 . S
C121 C120 1.363 . S
C121 C127 1.363 1_454 S
C122 C123 1.363 1_656 S
C122 C127 1.379 . S
C122 N129 1.356 . S
C123 C122 1.363 1_454 S
C123 C126 1.363 . S
N124 C126 1.356 . S
N124 H136 0.984 . S
N124 H137 0.985 . S
N125 C127 1.356 . S
N125 H130 0.984 . S
N125 H131 0.985 . S
C126 C120 1.379 . S
C126 C123 1.363 . S
C126 N124 1.356 . S
C127 C121 1.363 1_656 S
C127 C122 1.379 . S
C127 N125 1.356 . S
N128 C120 1.356 . S
N128 H134 0.984 . S
N128 H135 0.984 . S
N129 C122 1.356 . S
N129 H132 0.984 . S
N129 H133 0.985 . S
H130 N125 0.984 . S
H131 N125 0.985 . S
H132 N129 0.984 . S
H133 N129 0.985 . S
H134 N128 0.984 . S
H135 N128 0.984 . S
H136 N124 0.984 . S
H137 N124 0.985 . S
C85 C63 1.480 1_455 S
C87 C74 1.480 1_545 S
C103 C67 1.497 1_545 S
C105 C56 1.499 1_554 S
C121 C58 1.358 1_454 S
C123 C69 1.358 . S
