# Generated by pormake.
# Topology hex, (8)-cn, num edge types: 1
# Building blocks:
#     Node 0, Type 0, BuildingBlock: EYACOX_clean_sbu_0, # of connection points: 8
#     Edge 1, Type (0, 0), BuildingBlock: TEMPAE_clean_linker_10, # of connection points: 2
#     Edge 2, Type (0, 0), BuildingBlock: TEMPAE_clean_linker_10, # of connection points: 2
#     Edge 3, Type (0, 0), BuildingBlock: TEMPAE_clean_linker_10, # of connection points: 2
#     Edge 4, Type (0, 0), BuildingBlock: TEMPAE_clean_linker_10, # of connection points: 2
# Relax obj value: 0.024
# Max RMSD: 0.062
# Mean RMSD: 0.062
data_MOF--net-hex--node1-EYACOX_clean_sbu_0--edge1-TEMPAE_clean_linker_10
_symmetry_space_group_name_H-M    P1
_symmetry_Int_Tables_number       1
_symmetry_cell_setting            triclinic
loop_
_symmetry_equiv_pos_as_xyz
'x, y, z'
_cell_length_a     25.182161
_cell_length_b     23.851606
_cell_length_c     15.337186
_cell_angle_alpha  112.32825
_cell_angle_beta   72.130743
_cell_angle_gamma 146.20108
loop_
_atom_site_label
_atom_site_type_symbol
_atom_site_fract_x
_atom_site_fract_y
_atom_site_fract_z
_atom_type_partial_charge
Eu0 Eu 0.07623 0.96332 0.98123 0.0
Eu1 Eu 0.97671 0.02255 0.05093 0.0
O2 O 0.19575 0.0175 0.00904 0.0
O3 O 0.09066 0.87808 0.9014 0.0
O4 O 0.96542 0.96652 0.89338 0.0
O5 O 0.08366 -0.00372 0.85549 0.0
O6 O 0.92288 0.81758 0.9362 0.0
O7 O 0.86576 0.85669 0.04805 0.0
C8 C 0.17714 0.89428 0.97371 0.0
C9 C 0.20657 0.81503 0.01222 0.0
C10 C 0.13072 0.7501 0.95349 0.0
C11 C 0.11469 0.78878 0.93485 0.0
C12 C 0.27135 0.91971 0.0485 0.0
C13 C 0.25733 0.95997 0.02863 0.0
C14 C 0.16686 0.93973 0.94794 0.0
C15 C 1.02277 0.97768 0.83292 0.0
O16 O 0.85228 0.97016 0.05517 0.0
O17 O 0.98475 0.12848 0.124 0.0
C18 C 0.85298 0.79132 0.98154 0.0
O19 O 1.02522 0.04606 0.17846 0.0
O20 O 1.00531 0.92448 0.11926 0.0
O21 O 0.12041 0.15196 -0.00794 0.0
O22 O 0.17126 0.12721 0.04885 0.0
C23 C 0.87594 0.09478 0.0759 0.0
C24 C 0.77202 0.08969 0.09156 0.0
C25 C 0.79259 0.05606 0.11168 0.0
C26 C 0.83284 0.15903 0.03395 0.0
C27 C 0.91502 0.19812 -0.00285 0.0
C28 C 0.93788 0.16726 0.01897 0.0
C29 C 0.89685 0.06016 0.10221 0.0
C30 C 1.0136 -0.01578 0.19021 0.0
C31 C 0.18884 0.17867 0.00472 0.0
H32 H 0.21891 0.78458 0.02499 0.0
H33 H 0.05614 0.73808 0.88828 0.0
H34 H 0.30947 0.04215 0.05417 0.0
H35 H 0.7451 0.00167 0.15628 0.0
H36 H 0.81667 0.18488 0.01888 0.0
H37 H 1.00265 0.19908 -0.00781 0.0
C38 C 0.93567 0.24749 0.8624 0.0
C39 C 0.97607 0.27703 0.9429 0.0
C40 C 0.95943 0.3176 0.83774 0.0
C41 C 0.02661 0.42011 0.89388 0.0
C42 C 0.07756 0.45397 0.96666 0.0
C43 C 0.05129 0.3817 0.99062 0.0
C44 C 0.9042 0.27814 0.75886 0.0
C45 C 0.15243 0.56376 0.0262 0.0
C46 C 0.12423 0.63801 0.84145 0.0
C47 C 0.07688 0.64534 0.90875 0.0
C48 C 0.10404 0.56017 0.8302 0.0
C49 C 0.03385 0.48716 0.88679 0.0
C50 C 0.97794 0.48687 0.94645 0.0
C51 C 1.00077 0.56668 0.95733 0.0
C52 C 0.16516 0.5636 0.76549 0.0
C53 C 0.90022 0.40842 0.006 0.0
H54 H 0.87658 0.1662 0.82607 0.0
H55 H 0.08183 0.40459 0.05348 0.0
H56 H 0.84636 0.26057 0.78926 0.0
H57 H 0.95067 0.33737 0.7181 0.0
H58 H 0.87113 0.2061 0.70995 0.0
H59 H 0.1949 0.58187 0.07 0.0
H60 H 0.20174 0.6201 0.98114 0.0
H61 H 0.11719 0.57473 0.0738 0.0
H62 H 0.18464 0.70021 0.8054 0.0
H63 H 0.9655 0.57339 0.01077 0.0
H64 H 0.12256 0.4844 0.72888 0.0
H65 H 0.2218 0.60233 0.80781 0.0
H66 H 0.20019 0.60785 0.71189 0.0
H67 H 0.85329 0.32895 0.96286 0.0
H68 H 0.85557 0.41016 0.03896 0.0
H69 H 0.93292 0.42502 0.06288 0.0
C70 C 0.70633 0.13223 0.19084 0.0
C71 C 0.689 0.0571 0.12837 0.0
C72 C 0.64113 0.12154 0.19892 0.0
C73 C 0.55655 0.03367 0.14285 0.0
C74 C 0.53493 0.95332 0.08586 0.0
C75 C 0.60168 0.96626 0.07902 0.0
C76 C 0.66701 0.20863 0.26124 0.0
C77 C 0.44486 0.85739 0.02595 0.0
C78 C 0.34686 0.95643 0.17246 0.0
C79 C 0.35813 -0.01639 0.09526 0.0
C80 C 0.41437 0.97872 0.19343 0.0
C81 C 0.49529 0.02963 0.13589 0.0
C82 C 0.51198 0.06701 0.06425 0.0
C83 C 0.44307 0.04343 0.04475 0.0
C84 C 0.39418 0.93894 0.2714 0.0
C85 C 0.59827 0.12355 0.0023 0.0
H86 H 0.77489 0.20375 0.2273 0.0
H87 H 0.58919 0.90941 0.02892 0.0
H88 H 0.6919 0.25483 0.21684 0.0
H89 H 0.604 0.17783 0.30038 0.0
H90 H 0.72491 0.26128 0.31264 0.0
H91 H 0.43385 0.79787 -0.00695 0.0
H92 H 0.38171 0.82261 0.06889 0.0
H93 H 0.44873 0.87875 0.9691 0.0
H94 H 0.28053 0.90873 0.21075 0.0
H95 H 0.45129 0.06287 0.98401 0.0
H96 H 0.46007 -0.00257 0.3129 0.0
H97 H 0.36816 0.86854 0.24019 0.0
H98 H 0.33895 0.91831 0.31983 0.0
H99 H 0.60673 0.1578 0.95744 0.0
H100 H 0.5911 0.06867 0.95573 0.0
H101 H 0.66416 0.18634 0.04575 0.0
C102 C 0.31397 0.32561 0.92665 0.0
C103 C 0.27556 0.24541 0.94978 0.0
C104 C 0.40692 0.40209 0.89265 0.0
C105 C 0.46049 0.39702 0.88405 0.0
C106 C 0.41499 0.30586 0.88943 0.0
C107 C 0.32252 0.23092 0.92342 0.0
C108 C 0.45241 0.49581 0.88059 0.0
C109 C 0.46865 0.29538 0.87547 0.0
C110 C 0.72821 0.63402 0.86036 0.0
C111 C 0.75554 0.68521 0.95549 0.0
C112 C 0.6317 0.53842 0.83459 0.0
C113 C 0.56302 0.49452 0.9063 0.0
C114 C 0.59162 0.54439 0.00277 0.0
C115 C 0.68789 0.63992 0.02594 0.0
C116 C 0.6041 0.4885 0.7313 0.0
C117 C 0.52076 0.49884 0.08201 0.0
H118 H 0.27525 0.33367 0.94278 0.0
H119 H 0.28992 0.16482 0.93547 0.0
H120 H 0.49198 0.55791 0.94635 0.0
H121 H 0.50403 0.52617 0.82215 0.0
H122 H 0.39792 0.47741 0.8663 0.0
H123 H 0.41923 0.21274 0.85882 0.0
H124 H 0.52102 0.33128 0.81809 0.0
H125 H 0.50853 0.33595 0.94143 0.0
H126 H 0.78163 0.67106 0.80619 0.0
H127 H 0.7104 0.68049 0.09936 0.0
H128 H 0.59323 0.51692 0.70723 0.0
H129 H 0.53689 0.40275 0.71743 0.0
H130 H 0.66163 0.50988 0.68835 0.0
H131 H 0.47258 0.49264 0.07877 0.0
H132 H 0.55624 0.54663 0.15266 0.0
H133 H 0.4762 0.41982 0.07521 0.0
C134 C 0.10209 0.02784 0.68041 0.0
C135 C 1.02138 0.9751 0.73673 0.0
C136 C 0.10342 0.03266 0.59153 0.0
C137 C 1.02183 0.98276 0.55896 0.0
C138 C 0.93969 0.92803 0.61496 0.0
C139 C 0.94054 0.92499 0.70347 0.0
C140 C 0.19208 0.09167 0.53291 0.0
C141 C 0.85106 0.87286 0.58152 0.0
C142 C 0.04431 0.06111 0.36342 0.0
C143 C 1.01299 0.98313 0.28555 0.0
C144 C 0.04878 0.06287 0.45334 0.0
C145 C 1.02064 -0.01557 0.46474 0.0
C146 C 0.98805 0.90504 0.38663 0.0
C147 C 0.98462 0.90535 0.29786 0.0
C148 C 0.08376 0.1485 0.53595 0.0
C149 C 0.95656 0.8196 0.39683 0.0
H150 H 0.16495 0.06754 0.70674 0.0
H151 H 0.87776 0.88347 0.74686 0.0
H152 H 0.17479 0.03887 0.465 0.0
H153 H 0.21905 0.15372 0.51605 0.0
H154 H 0.24995 0.12749 0.56939 0.0
H155 H 0.79343 0.83427 0.63433 0.0
H156 H 0.86859 0.92885 0.56607 0.0
H157 H 0.82342 0.8134 0.51508 0.0
H158 H 0.06674 0.12159 0.35397 0.0
H159 H 0.95967 0.84434 0.23797 0.0
H160 H 0.14611 0.19096 0.57048 0.0
H161 H 0.02706 0.11494 0.58934 0.0
H162 H 0.10476 0.20475 0.51466 0.0
H163 H 1.01553 0.85336 0.42761 0.0
H164 H 0.9342 0.76433 0.32839 0.0
H165 H 0.89584 0.77573 0.44584 0.0
loop_
_geom_bond_atom_site_label_1
_geom_bond_atom_site_label_2
_geom_bond_distance
_geom_bond_site_symmetry_2
_ccdc_geom_bond_type
Eu0 O2 2.472 . S
Eu0 O3 2.507 1_455 S
Eu0 O5 2.336 1_455 S
Eu0 O6 2.389 1_455 S
Eu0 C14 2.835 . S
Eu0 O20 2.396 1_456 S
Eu0 O22 2.323 1_565 S
Eu1 O4 2.396 1_654 S
Eu1 O7 2.323 1_545 S
Eu1 O16 2.472 . S
Eu1 O17 2.507 1_655 S
Eu1 O19 2.336 1_655 S
Eu1 O21 2.389 1_655 S
Eu1 C29 2.835 . S
O2 Eu0 2.472 . S
O2 C14 1.258 . S
O3 Eu0 2.507 1_655 S
O3 C14 1.246 1_655 S
O4 Eu1 2.396 1_456 S
O4 C15 1.216 1_445 S
O5 Eu0 2.336 1_655 S
O5 C15 1.279 . S
O6 Eu0 2.389 1_655 S
O6 C18 1.239 . S
O7 Eu1 2.323 1_565 S
O7 C18 1.249 1_554 S
C8 C11 1.390 . S
C8 C13 1.370 . S
C8 C14 1.489 . S
C9 C10 1.344 . S
C9 C12 1.414 . S
C9 H32 0.931 . S
C10 C9 1.344 . S
C10 C11 1.423 1_554 S
C11 C8 1.390 . S
C11 C10 1.423 1_556 S
C11 H33 0.930 1_455 S
C12 C9 1.414 . S
C12 C13 1.395 1_554 S
C13 C8 1.370 . S
C13 C12 1.395 1_556 S
C13 H34 0.932 1_565 S
C14 Eu0 2.835 . S
C14 O2 1.258 . S
C14 O3 1.246 1_455 S
C14 C8 1.489 . S
C15 O4 1.216 1_665 S
C15 O5 1.279 . S
O16 Eu1 2.472 . S
O16 C29 1.258 . S
O17 Eu1 2.507 1_455 S
O17 C29 1.246 1_455 S
C18 O6 1.239 . S
C18 O7 1.249 1_556 S
O19 Eu1 2.336 1_455 S
O19 C30 1.279 . S
O20 Eu0 2.396 1_654 S
O20 C30 1.216 1_665 S
O21 Eu1 2.389 1_455 S
O21 C31 1.239 . S
O22 Eu0 2.323 1_545 S
O22 C31 1.249 1_556 S
C23 C25 1.370 . S
C23 C28 1.390 . S
C23 C29 1.489 . S
C24 C25 1.396 1_556 S
C24 C26 1.413 . S
C25 C23 1.370 . S
C25 C24 1.396 1_554 S
C25 H35 0.932 1_545 S
C26 C24 1.413 . S
C26 C27 1.345 . S
C26 H36 0.931 . S
C27 C26 1.345 . S
C27 C28 1.418 1_556 S
C28 C23 1.390 . S
C28 C27 1.418 1_554 S
C28 H37 0.930 1_655 S
C29 Eu1 2.835 . S
C29 O16 1.258 . S
C29 O17 1.246 1_655 S
C29 C23 1.489 . S
C30 O19 1.279 . S
C30 O20 1.216 1_445 S
C31 O21 1.239 . S
C31 O22 1.249 1_554 S
H32 C9 0.931 . S
H33 C11 0.930 1_655 S
H34 C13 0.932 1_545 S
H35 C25 0.932 1_565 S
H36 C26 0.931 . S
H37 C28 0.930 1_455 S
C38 C39 1.391 . S
C38 C40 1.394 . S
C38 H54 0.931 . S
C39 C38 1.391 . S
C39 C43 1.376 1_556 S
C40 C38 1.394 . S
C40 C41 1.375 . S
C40 C44 1.531 . S
C41 C40 1.375 . S
C41 C42 1.400 1_556 S
C41 C49 1.509 1_556 S
C42 C41 1.400 1_554 S
C42 C43 1.392 . S
C42 C45 1.511 . S
C43 C39 1.376 1_554 S
C43 C42 1.392 . S
C43 H55 0.929 . S
C44 C40 1.531 . S
C44 H56 0.960 . S
C44 H57 0.962 1_655 S
C44 H58 0.960 . S
C45 C42 1.511 . S
C45 H59 0.973 . S
C45 H60 0.961 1_655 S
C45 H61 0.961 . S
C46 C47 1.370 1_556 S
C46 C48 1.363 . S
C46 H62 0.931 . S
C47 C46 1.370 1_554 S
C47 C51 1.408 1_455 S
C48 C46 1.363 . S
C48 C49 1.370 1_456 S
C48 C52 1.524 . S
C49 C41 1.509 1_554 S
C49 C48 1.370 1_654 S
C49 C50 1.401 . S
C50 C49 1.401 . S
C50 C51 1.404 . S
C50 C53 1.539 . S
C51 C47 1.408 1_655 S
C51 C50 1.404 . S
C51 H63 0.930 . S
C52 C48 1.524 . S
C52 H64 0.956 . S
C52 H65 0.961 1_556 S
C52 H66 0.961 . S
C53 C50 1.539 . S
C53 H67 0.958 1_554 S
C53 H68 0.961 . S
C53 H69 0.960 . S
H54 C38 0.931 . S
H55 C43 0.929 . S
H56 C44 0.960 . S
H57 C44 0.962 1_455 S
H58 C44 0.960 . S
H59 C45 0.973 . S
H60 C45 0.961 1_455 S
H61 C45 0.961 . S
H62 C46 0.931 . S
H63 C51 0.930 . S
H64 C52 0.956 . S
H65 C52 0.961 1_554 S
H66 C52 0.961 . S
H67 C53 0.958 1_556 S
H68 C53 0.961 . S
H69 C53 0.960 . S
C70 C71 1.391 1_554 S
C70 C72 1.394 . S
C70 H86 0.931 . S
C71 C70 1.391 1_556 S
C71 C75 1.376 1_545 S
C72 C70 1.394 . S
C72 C73 1.369 1_554 S
C72 C76 1.531 . S
C73 C72 1.369 1_556 S
C73 C74 1.410 1_545 S
C73 C81 1.503 . S
C74 C73 1.410 1_565 S
C74 C75 1.392 . S
C74 C77 1.511 . S
C75 C71 1.376 1_565 S
C75 C74 1.392 . S
C75 H87 0.929 . S
C76 C72 1.531 . S
C76 H88 0.960 . S
C76 H89 0.962 . S
C76 H90 0.960 . S
C77 C74 1.511 . S
C77 H91 0.961 . S
C77 H92 0.961 . S
C77 H93 0.961 . S
C78 C79 1.370 1_554 S
C78 C80 1.363 . S
C78 H94 0.931 . S
C79 C78 1.370 1_556 S
C79 C83 1.408 1_565 S
C80 C78 1.363 . S
C80 C81 1.370 1_564 S
C80 C84 1.524 . S
C81 C73 1.503 . S
C81 C80 1.370 1_546 S
C81 C82 1.403 . S
C82 C81 1.403 . S
C82 C83 1.404 . S
C82 C85 1.539 . S
C83 C79 1.408 1_545 S
C83 C82 1.404 . S
C83 H95 0.930 . S
C84 C80 1.524 . S
C84 H96 0.956 . S
C84 H97 0.961 1_554 S
C84 H98 0.961 . S
C85 C82 1.539 . S
C85 H99 0.958 1_556 S
C85 H100 0.961 . S
C85 H101 0.960 . S
H86 C70 0.931 . S
H87 C75 0.929 . S
H88 C76 0.960 . S
H89 C76 0.962 . S
H90 C76 0.960 . S
H91 C77 0.961 . S
H92 C77 0.961 . S
H93 C77 0.961 . S
H94 C78 0.931 . S
H95 C83 0.930 . S
H96 C84 0.956 . S
H97 C84 0.961 1_556 S
H98 C84 0.961 . S
H99 C85 0.958 1_554 S
H100 C85 0.961 . S
H101 C85 0.960 . S
C102 C103 1.391 . S
C102 C104 1.394 . S
C102 H118 0.931 . S
C103 C102 1.391 . S
C103 C107 1.376 1_554 S
C104 C102 1.394 . S
C104 C105 1.369 . S
C104 C108 1.531 . S
C105 C104 1.369 . S
C105 C106 1.410 1_554 S
C105 C113 1.503 . S
C106 C105 1.410 1_556 S
C106 C107 1.392 . S
C106 C109 1.511 . S
C107 C103 1.376 1_556 S
C107 C106 1.392 . S
C107 H119 0.929 . S
C108 C104 1.531 . S
C108 H120 0.960 . S
C108 H121 0.962 . S
C108 H122 0.960 . S
C109 C106 1.511 . S
C109 H123 0.961 . S
C109 H124 0.961 . S
C109 H125 0.961 1_556 S
C110 C111 1.370 1_556 S
C110 C112 1.363 . S
C110 H126 0.931 . S
C111 C110 1.370 1_554 S
C111 C115 1.408 . S
C112 C110 1.363 . S
C112 C113 1.370 1_556 S
C112 C116 1.524 . S
C113 C105 1.503 . S
C113 C112 1.370 1_554 S
C113 C114 1.403 . S
C114 C113 1.403 . S
C114 C115 1.404 . S
C114 C117 1.539 . S
C115 C111 1.408 . S
C115 C114 1.404 . S
C115 H127 0.930 . S
C116 C112 1.524 . S
C116 H128 0.956 . S
C116 H129 0.961 . S
C116 H130 0.961 . S
C117 C114 1.539 . S
C117 H131 0.958 . S
C117 H132 0.961 . S
C117 H133 0.960 . S
H118 C102 0.931 . S
H119 C107 0.929 . S
H120 C108 0.960 . S
H121 C108 0.962 . S
H122 C108 0.960 . S
H123 C109 0.961 . S
H124 C109 0.961 . S
H125 C109 0.961 1_554 S
H126 C110 0.931 . S
H127 C115 0.930 . S
H128 C116 0.956 . S
H129 C116 0.961 . S
H130 C116 0.961 . S
H131 C117 0.958 . S
H132 C117 0.961 . S
H133 C117 0.960 . S
C134 C135 1.391 . S
C134 C136 1.394 . S
C134 H150 0.931 . S
C135 C134 1.391 . S
C135 C139 1.376 1_665 S
C136 C134 1.394 . S
C136 C137 1.369 . S
C136 C140 1.531 . S
C137 C136 1.369 . S
C137 C138 1.410 1_565 S
C137 C145 1.503 . S
C138 C137 1.410 1_545 S
C138 C139 1.392 1_655 S
C138 C141 1.511 1_655 S
C139 C135 1.376 1_445 S
C139 C138 1.392 1_455 S
C139 H151 0.929 . S
C140 C136 1.531 . S
C140 H152 0.960 . S
C140 H153 0.962 1_655 S
C140 H154 0.960 . S
C141 C138 1.511 1_455 S
C141 H155 0.961 . S
C141 H156 0.961 . S
C141 H157 0.961 1_455 S
C142 C143 1.370 1_445 S
C142 C144 1.363 . S
C142 H158 0.931 . S
C143 C142 1.370 1_665 S
C143 C147 1.408 . S
C144 C142 1.363 . S
C144 C145 1.370 1_445 S
C144 C148 1.524 . S
C145 C137 1.503 . S
C145 C144 1.370 1_665 S
C145 C146 1.403 . S
C146 C145 1.403 . S
C146 C147 1.404 . S
C146 C149 1.539 . S
C147 C143 1.408 . S
C147 C146 1.404 . S
C147 H159 0.930 . S
C148 C144 1.524 . S
C148 H160 0.956 . S
C148 H161 0.961 . S
C148 H162 0.961 . S
C149 C146 1.539 . S
C149 H163 0.958 . S
C149 H164 0.961 . S
C149 H165 0.960 . S
H150 C134 0.931 . S
H151 C139 0.929 . S
H152 C140 0.960 . S
H153 C140 0.962 1_455 S
H154 C140 0.960 . S
H155 C141 0.961 . S
H156 C141 0.961 . S
H157 C141 0.961 1_655 S
H158 C142 0.931 . S
H159 C147 0.930 . S
H160 C148 0.956 . S
H161 C148 0.961 . S
H162 C148 0.961 . S
H163 C149 0.958 . S
H164 C149 0.961 . S
H165 C149 0.960 . S
C39 C27 1.126 . S
C47 C10 1.168 . S
C71 C24 1.977 . S
C79 C12 2.030 1_556 S
C103 C31 0.897 . S
C111 C18 0.870 1_554 S
C135 C15 1.477 . S
C143 C30 1.497 1_665 S
