# Generated by pormake.
# Topology tzs, (4)-cn, num edge types: 1
# Building blocks:
#     Node 0, Type 0, BuildingBlock: TATPOV_clean_sbu_0, # of connection points: 4
#     Node 1, Type 0, BuildingBlock: TATPOV_clean_sbu_0, # of connection points: 4
#     Node 2, Type 0, BuildingBlock: TATPOV_clean_sbu_0, # of connection points: 4
#     Node 3, Type 0, BuildingBlock: TATPOV_clean_sbu_0, # of connection points: 4
#     Node 4, Type 0, BuildingBlock: TATPOV_clean_sbu_0, # of connection points: 4
#     Node 5, Type 0, BuildingBlock: TATPOV_clean_sbu_0, # of connection points: 4
#     Node 6, Type 0, BuildingBlock: TATPOV_clean_sbu_0, # of connection points: 4
#     Node 7, Type 0, BuildingBlock: TATPOV_clean_sbu_0, # of connection points: 4
#     Node 8, Type 0, BuildingBlock: TATPOV_clean_sbu_0, # of connection points: 4
#     Node 9, Type 0, BuildingBlock: TATPOV_clean_sbu_0, # of connection points: 4
#     Node 10, Type 0, BuildingBlock: TATPOV_clean_sbu_0, # of connection points: 4
#     Node 11, Type 0, BuildingBlock: TATPOV_clean_sbu_0, # of connection points: 4
#     Node 12, Type 0, BuildingBlock: TATPOV_clean_sbu_0, # of connection points: 4
#     Node 13, Type 0, BuildingBlock: TATPOV_clean_sbu_0, # of connection points: 4
#     Node 14, Type 0, BuildingBlock: TATPOV_clean_sbu_0, # of connection points: 4
#     Node 15, Type 0, BuildingBlock: TATPOV_clean_sbu_0, # of connection points: 4
#     Edge 16, Type (0, 0), None
#     Edge 17, Type (0, 0), None
#     Edge 18, Type (0, 0), None
#     Edge 19, Type (0, 0), None
#     Edge 20, Type (0, 0), None
#     Edge 21, Type (0, 0), None
#     Edge 22, Type (0, 0), None
#     Edge 23, Type (0, 0), None
#     Edge 24, Type (0, 0), None
#     Edge 25, Type (0, 0), None
#     Edge 26, Type (0, 0), None
#     Edge 27, Type (0, 0), None
#     Edge 28, Type (0, 0), None
#     Edge 29, Type (0, 0), None
#     Edge 30, Type (0, 0), None
#     Edge 31, Type (0, 0), None
#     Edge 32, Type (0, 0), None
#     Edge 33, Type (0, 0), None
#     Edge 34, Type (0, 0), None
#     Edge 35, Type (0, 0), None
#     Edge 36, Type (0, 0), None
#     Edge 37, Type (0, 0), None
#     Edge 38, Type (0, 0), None
#     Edge 39, Type (0, 0), None
#     Edge 40, Type (0, 0), None
#     Edge 41, Type (0, 0), None
#     Edge 42, Type (0, 0), None
#     Edge 43, Type (0, 0), None
#     Edge 44, Type (0, 0), None
#     Edge 45, Type (0, 0), None
#     Edge 46, Type (0, 0), None
#     Edge 47, Type (0, 0), None
# Relax obj value: 0.053
# Max RMSD: 0.090
# Mean RMSD: 0.090
data_MOF--net-tzs--node1-TATPOV_clean_sbu_0--edge1-none
_symmetry_space_group_name_H-M    P1
_symmetry_Int_Tables_number       1
_symmetry_cell_setting            triclinic
loop_
_symmetry_equiv_pos_as_xyz
'x, y, z'
_cell_length_a     20.947381
_cell_length_b     20.947368
_cell_length_c     21.220563
_cell_angle_alpha  90.00006
_cell_angle_beta   89.998087
_cell_angle_gamma 89.999669
loop_
_atom_site_label
_atom_site_type_symbol
_atom_site_fract_x
_atom_site_fract_y
_atom_site_fract_z
_atom_type_partial_charge
Zn0 Zn 0.12969 0.47555 0.08397 0.0
Zn1 Zn 0.15976 0.36679 0.10993 0.0
O2 O 0.07143 0.35579 0.15268 0.0
O3 O 0.05972 0.46001 0.14805 0.0
O4 O 0.21144 0.28781 0.12747 0.0
O5 O 0.10953 0.46386 -0.00532 0.0
O6 O 0.15386 0.37006 0.01025 0.0
C7 C 0.04122 0.4062 0.16836 0.0
C8 C 0.2214 0.49449 0.16093 0.0
O9 O 0.20487 0.43598 0.16549 0.0
O10 O 0.20785 0.52402 0.11082 0.0
C11 C 0.22233 0.27065 0.18384 0.0
O12 O 0.19629 0.30245 0.23058 0.0
C13 C 0.12933 0.4114 -0.02683 0.0
Zn14 Zn 0.55158 0.12968 0.08396 0.0
Zn15 Zn 0.66033 0.15976 0.10993 0.0
O16 O 0.67134 0.07143 0.15269 0.0
O17 O 0.56712 0.05972 0.14804 0.0
O18 O 0.73931 0.21144 0.12747 0.0
O19 O 0.56328 0.10952 -0.00533 0.0
O20 O 0.65708 0.15385 0.01025 0.0
C21 C 0.62093 0.04122 0.16837 0.0
C22 C 0.53263 0.2214 0.16092 0.0
O23 O 0.59114 0.20488 0.16547 0.0
O24 O 0.5031 0.20784 0.11081 0.0
C25 C 0.75647 0.22233 0.18384 0.0
O26 O 0.72467 0.1963 0.23058 0.0
C27 C 0.61574 0.12932 -0.02684 0.0
Zn28 Zn 0.89745 0.55157 0.08396 0.0
Zn29 Zn 0.86737 0.66033 0.10993 0.0
O30 O 0.95569 0.67134 0.15269 0.0
O31 O 0.9674 0.56712 0.14805 0.0
O32 O 0.81568 0.73931 0.12747 0.0
O33 O 0.91762 0.56327 -0.00532 0.0
O34 O 0.87328 0.65707 0.01025 0.0
C35 C 0.9859 0.62093 0.16838 0.0
C36 C 0.80572 0.53263 0.16092 0.0
O37 O 0.82224 0.59114 0.16548 0.0
O38 O 0.81928 0.5031 0.11081 0.0
C39 C 0.80479 0.75647 0.18384 0.0
O40 O 0.83082 0.72468 0.23058 0.0
C41 C 0.89782 0.61573 -0.02683 0.0
Zn42 Zn 0.47555 0.89743 0.08397 0.0
Zn43 Zn 0.36679 0.86737 0.10994 0.0
O44 O 0.35579 0.95569 0.15269 0.0
O45 O 0.46001 0.9674 0.14806 0.0
O46 O 0.28781 0.81569 0.12747 0.0
O47 O 0.46387 0.9176 -0.00531 0.0
O48 O 0.37007 0.87328 0.01026 0.0
C49 C 0.4062 0.9859 0.16837 0.0
C50 C 0.49448 0.80572 0.16094 0.0
O51 O 0.43598 0.82225 0.16549 0.0
O52 O 0.52402 0.81927 0.11083 0.0
C53 C 0.27064 0.80479 0.18384 0.0
O54 O 0.30244 0.83083 0.23058 0.0
C55 C 0.41141 0.89781 -0.02683 0.0
Zn56 Zn 0.12898 0.55109 0.29593 0.0
Zn57 Zn 0.15961 0.65977 0.27033 0.0
O58 O 0.07137 0.67104 0.22739 0.0
O59 O 0.05951 0.56683 0.23142 0.0
O60 O 0.21141 0.73871 0.25301 0.0
O61 O 0.10826 0.56291 0.3851 0.0
O62 O 0.15359 0.6563 0.36997 0.0
C63 C 0.04116 0.62076 0.21131 0.0
C64 C 0.22127 0.53207 0.21959 0.0
O65 O 0.2049 0.59061 0.21489 0.0
O66 O 0.20727 0.50252 0.26958 0.0
C67 C 0.22201 0.75619 0.19668 0.0
O68 O 0.19562 0.72474 0.1499 0.0
C69 C 0.12848 0.61511 0.40684 0.0
Zn70 Zn 0.47604 0.129 0.29591 0.0
Zn71 Zn 0.36736 0.15962 0.27032 0.0
O72 O 0.35608 0.07138 0.22739 0.0
O73 O 0.4603 0.05953 0.2314 0.0
O74 O 0.28841 0.21141 0.25301 0.0
O75 O 0.46424 0.10827 0.38508 0.0
O76 O 0.37084 0.1536 0.36997 0.0
C77 C 0.40636 0.04117 0.2113 0.0
C78 C 0.49505 0.22128 0.21958 0.0
O79 O 0.43651 0.2049 0.21488 0.0
O80 O 0.52459 0.2073 0.26956 0.0
C81 C 0.27093 0.22201 0.19668 0.0
O82 O 0.30239 0.19562 0.1499 0.0
C83 C 0.41203 0.12849 0.40683 0.0
Zn84 Zn 0.89813 0.47604 0.29591 0.0
Zn85 Zn 0.86751 0.36736 0.27032 0.0
O86 O 0.95574 0.35608 0.22738 0.0
O87 O 0.96759 0.4603 0.23139 0.0
O88 O 0.81571 0.28841 0.25301 0.0
O89 O 0.91886 0.46424 0.38508 0.0
O90 O 0.87354 0.37084 0.36997 0.0
C91 C 0.98594 0.40636 0.21129 0.0
C92 C 0.80584 0.49505 0.21958 0.0
O93 O 0.82222 0.43651 0.21488 0.0
O94 O 0.81982 0.5246 0.26957 0.0
C95 C 0.80511 0.27094 0.19668 0.0
O96 O 0.8315 0.30239 0.1499 0.0
C97 C 0.89865 0.41204 0.40683 0.0
Zn98 Zn 0.55109 0.89815 0.29592 0.0
Zn99 Zn 0.65976 0.86751 0.27033 0.0
O100 O 0.67104 0.95574 0.22738 0.0
O101 O 0.56682 0.96761 0.23141 0.0
O102 O 0.73871 0.81571 0.25301 0.0
O103 O 0.56291 0.91887 0.3851 0.0
O104 O 0.65629 0.87354 0.36997 0.0
C105 C 0.62076 0.98595 0.2113 0.0
C106 C 0.53206 0.80585 0.2196 0.0
O107 O 0.5906 0.82222 0.2149 0.0
O108 O 0.50252 0.81985 0.26959 0.0
C109 C 0.75618 0.80511 0.19668 0.0
O110 O 0.72473 0.8315 0.1499 0.0
C111 C 0.61511 0.89866 0.40684 0.0
Zn112 Zn 0.97557 0.62969 0.79608 0.0
Zn113 Zn 0.86681 0.65977 0.77011 0.0
O114 O 0.85581 0.57144 0.72735 0.0
O115 O 0.96003 0.55974 0.73199 0.0
O116 O 0.78783 0.71145 0.75257 0.0
O117 O 0.96386 0.60951 0.88537 0.0
O118 O 0.87007 0.65385 0.86979 0.0
C119 C 0.90622 0.54123 0.71167 0.0
C120 C 0.99451 0.72142 0.71913 0.0
O121 O 0.936 0.70489 0.71458 0.0
O122 O 0.02404 0.70785 0.76924 0.0
C123 C 0.77068 0.72235 0.6962 0.0
O124 O 0.80249 0.69633 0.64946 0.0
C125 C 0.9114 0.62931 0.90687 0.0
Zn126 Zn 0.39748 0.97556 0.79609 0.0
Zn127 Zn 0.36741 0.8668 0.77011 0.0
O128 O 0.45573 0.8558 0.72735 0.0
O129 O 0.46744 0.96002 0.73201 0.0
O130 O 0.31573 0.78782 0.75257 0.0
O131 O 0.41764 0.96385 0.88538 0.0
O132 O 0.37331 0.87006 0.86979 0.0
C133 C 0.48595 0.90621 0.71168 0.0
C134 C 0.30575 0.9945 0.71913 0.0
O135 O 0.32228 0.93599 0.71457 0.0
O136 O 0.31932 0.02403 0.76924 0.0
C137 C 0.30482 0.77067 0.69619 0.0
O138 O 0.33084 0.80248 0.64945 0.0
C139 C 0.39784 0.91139 0.90688 0.0
Zn140 Zn 0.0516 0.39747 0.79608 0.0
Zn141 Zn 0.16036 0.3674 0.7701 0.0
O142 O 0.17136 0.45573 0.72735 0.0
O143 O 0.06714 0.46743 0.732 0.0
O144 O 0.23935 0.31573 0.75257 0.0
O145 O 0.06329 0.41762 0.88537 0.0
O146 O 0.15709 0.3733 0.86979 0.0
C147 C 0.12095 0.48594 0.71168 0.0
C148 C 0.03267 0.30575 0.71911 0.0
O149 O 0.09118 0.32228 0.71456 0.0
O150 O 1.00314 0.3193 0.76922 0.0
C151 C 0.2565 0.30482 0.6962 0.0
O152 O 0.2247 0.33084 0.64945 0.0
C153 C 0.11575 0.39783 0.90687 0.0
Zn154 Zn 0.6297 0.05159 0.79607 0.0
Zn155 Zn 0.65977 0.16035 0.7701 0.0
O156 O 0.57145 0.17136 0.72735 0.0
O157 O 0.55975 0.06713 0.73198 0.0
O158 O 0.71145 0.23934 0.75257 0.0
O159 O 0.60953 0.06328 0.88536 0.0
O160 O 0.65386 0.15708 0.86979 0.0
C161 C 0.54124 0.12094 0.71166 0.0
C162 C 0.72143 0.03266 0.71911 0.0
O163 O 0.7049 0.09117 0.71456 0.0
O164 O 0.70787 1.00313 0.76922 0.0
C165 C 0.72236 0.25649 0.6962 0.0
O166 O 0.69634 0.22469 0.64946 0.0
C167 C 0.62933 0.11574 0.90687 0.0
Zn168 Zn 0.97607 0.39816 0.58411 0.0
Zn169 Zn 0.86739 0.36752 0.60971 0.0
O170 O 0.85611 0.45576 0.65265 0.0
O171 O 0.96033 0.46763 0.64862 0.0
O172 O 0.78845 0.31572 0.62703 0.0
O173 O 0.96425 0.41887 0.49494 0.0
O174 O 0.87086 0.37354 0.51007 0.0
C175 C 0.90639 0.48597 0.66873 0.0
C176 C 0.9951 0.30587 0.66045 0.0
O177 O 0.93656 0.32224 0.66515 0.0
O178 O 0.02464 0.31986 0.61046 0.0
C179 C 0.77096 0.30513 0.68337 0.0
O180 O 0.8024 0.33153 0.73014 0.0
C181 C 0.91205 0.39865 0.4732 0.0
Zn182 Zn 0.62902 0.97606 0.58413 0.0
Zn183 Zn 0.65965 0.86738 0.60972 0.0
O184 O 0.57142 0.8561 0.65266 0.0
O185 O 0.55956 0.96032 0.64864 0.0
O186 O 0.71146 0.78844 0.62703 0.0
O187 O 0.60829 0.96425 0.49495 0.0
O188 O 0.65363 0.87086 0.51007 0.0
C189 C 0.54121 0.90638 0.66875 0.0
C190 C 0.72131 0.99508 0.66045 0.0
O191 O 0.70494 0.93654 0.66515 0.0
O192 O 0.70732 0.02463 0.61046 0.0
C193 C 0.72204 0.77096 0.68336 0.0
O194 O 0.69564 0.8024 0.73014 0.0
C195 C 0.62851 0.91205 0.47321 0.0
Zn196 Zn 0.0511 0.62903 0.58414 0.0
Zn197 Zn 0.15978 0.65965 0.60972 0.0
O198 O 0.17107 0.57142 0.65266 0.0
O199 O 0.06684 0.55956 0.64865 0.0
O200 O 0.23873 0.71145 0.62702 0.0
O201 O 0.0629 0.60829 0.49497 0.0
O202 O 0.15629 0.65362 0.51007 0.0
C203 C 0.12078 0.54121 0.66875 0.0
C204 C 0.03209 0.72131 0.66047 0.0
O205 O 0.09063 0.70493 0.66517 0.0
O206 O 1.00255 0.70733 0.61048 0.0
C207 C 0.25622 0.72203 0.68335 0.0
O208 O 0.22478 0.69563 0.73013 0.0
C209 C 0.1151 0.62851 0.47322 0.0
Zn210 Zn 0.39816 0.05109 0.58413 0.0
Zn211 Zn 0.36753 0.15978 0.60972 0.0
O212 O 0.45576 0.17106 0.65265 0.0
O213 O 0.46763 0.06684 0.64863 0.0
O214 O 0.31573 0.23872 0.62703 0.0
O215 O 0.41887 0.0629 0.49495 0.0
O216 O 0.37354 0.15629 0.51007 0.0
C217 C 0.48597 0.12078 0.66874 0.0
C218 C 0.30587 0.03208 0.66047 0.0
O219 O 0.32225 0.09062 0.66517 0.0
O220 O 0.31986 1.00254 0.61048 0.0
C221 C 0.30514 0.25621 0.68336 0.0
O222 O 0.33154 0.22478 0.73014 0.0
C223 C 0.39865 0.1151 0.47321 0.0
loop_
_geom_bond_atom_site_label_1
_geom_bond_atom_site_label_2
_geom_bond_distance
_geom_bond_site_symmetry_2
_ccdc_geom_bond_type
Zn0 O3 2.031 . S
Zn0 O5 2.049 . S
Zn0 O10 2.067 . S
Zn1 O2 1.962 . S
Zn1 O4 1.986 . S
Zn1 O6 1.996 . S
Zn1 O9 1.943 . S
O2 Zn1 1.962 . S
O2 C7 1.254 . S
O3 Zn0 2.031 . S
O3 C7 1.269 . S
O4 Zn1 1.986 . S
O4 C11 1.262 . S
O5 Zn0 2.049 . S
O5 C13 1.260 . S
O6 Zn1 1.996 . S
O6 C13 1.257 . S
C7 O2 1.254 . S
C7 O3 1.269 . S
C8 O9 1.249 . S
C8 O10 1.270 . S
O9 Zn1 1.943 . S
O9 C8 1.249 . S
O10 Zn0 2.067 . S
O10 C8 1.270 . S
C11 O4 1.262 . S
C11 O12 1.232 . S
O12 C11 1.232 . S
C13 O5 1.260 . S
C13 O6 1.257 . S
Zn14 O17 2.031 . S
Zn14 O19 2.049 . S
Zn14 O24 2.067 . S
Zn15 O16 1.962 . S
Zn15 O18 1.986 . S
Zn15 O20 1.996 . S
Zn15 O23 1.943 . S
O16 Zn15 1.962 . S
O16 C21 1.254 . S
O17 Zn14 2.031 . S
O17 C21 1.269 . S
O18 Zn15 1.986 . S
O18 C25 1.262 . S
O19 Zn14 2.049 . S
O19 C27 1.260 . S
O20 Zn15 1.996 . S
O20 C27 1.257 . S
C21 O16 1.254 . S
C21 O17 1.269 . S
C22 O23 1.249 . S
C22 O24 1.270 . S
O23 Zn15 1.943 . S
O23 C22 1.249 . S
O24 Zn14 2.067 . S
O24 C22 1.270 . S
C25 O18 1.262 . S
C25 O26 1.232 . S
O26 C25 1.232 . S
C27 O19 1.260 . S
C27 O20 1.257 . S
Zn28 O31 2.031 . S
Zn28 O33 2.049 . S
Zn28 O38 2.067 . S
Zn29 O30 1.962 . S
Zn29 O32 1.986 . S
Zn29 O34 1.996 . S
Zn29 O37 1.943 . S
O30 Zn29 1.962 . S
O30 C35 1.254 . S
O31 Zn28 2.031 . S
O31 C35 1.269 . S
O32 Zn29 1.986 . S
O32 C39 1.262 . S
O33 Zn28 2.049 . S
O33 C41 1.260 . S
O34 Zn29 1.996 . S
O34 C41 1.257 . S
C35 O30 1.254 . S
C35 O31 1.269 . S
C36 O37 1.249 . S
C36 O38 1.270 . S
O37 Zn29 1.943 . S
O37 C36 1.249 . S
O38 Zn28 2.067 . S
O38 C36 1.270 . S
C39 O32 1.262 . S
C39 O40 1.232 . S
O40 C39 1.232 . S
C41 O33 1.260 . S
C41 O34 1.257 . S
Zn42 O45 2.031 . S
Zn42 O47 2.049 . S
Zn42 O52 2.067 . S
Zn43 O44 1.962 . S
Zn43 O46 1.986 . S
Zn43 O48 1.996 . S
Zn43 O51 1.943 . S
O44 Zn43 1.962 . S
O44 C49 1.254 . S
O45 Zn42 2.031 . S
O45 C49 1.269 . S
O46 Zn43 1.986 . S
O46 C53 1.262 . S
O47 Zn42 2.049 . S
O47 C55 1.260 . S
O48 Zn43 1.996 . S
O48 C55 1.257 . S
C49 O44 1.254 . S
C49 O45 1.269 . S
C50 O51 1.249 . S
C50 O52 1.270 . S
O51 Zn43 1.943 . S
O51 C50 1.249 . S
O52 Zn42 2.067 . S
O52 C50 1.270 . S
C53 O46 1.262 . S
C53 O54 1.232 . S
O54 C53 1.232 . S
C55 O47 1.260 . S
C55 O48 1.257 . S
Zn56 O59 2.031 . S
Zn56 O61 2.049 . S
Zn56 O66 2.067 . S
Zn57 O58 1.962 . S
Zn57 O60 1.986 . S
Zn57 O62 1.996 . S
Zn57 O65 1.943 . S
O58 Zn57 1.962 . S
O58 C63 1.254 . S
O59 Zn56 2.031 . S
O59 C63 1.269 . S
O60 Zn57 1.986 . S
O60 C67 1.262 . S
O61 Zn56 2.049 . S
O61 C69 1.260 . S
O62 Zn57 1.996 . S
O62 C69 1.257 . S
C63 O58 1.254 . S
C63 O59 1.269 . S
C64 O65 1.249 . S
C64 O66 1.270 . S
O65 Zn57 1.943 . S
O65 C64 1.249 . S
O66 Zn56 2.067 . S
O66 C64 1.270 . S
C67 O60 1.262 . S
C67 O68 1.232 . S
O68 C67 1.232 . S
C69 O61 1.260 . S
C69 O62 1.257 . S
Zn70 O73 2.031 . S
Zn70 O75 2.049 . S
Zn70 O80 2.067 . S
Zn71 O72 1.962 . S
Zn71 O74 1.986 . S
Zn71 O76 1.996 . S
Zn71 O79 1.943 . S
O72 Zn71 1.962 . S
O72 C77 1.254 . S
O73 Zn70 2.031 . S
O73 C77 1.269 . S
O74 Zn71 1.986 . S
O74 C81 1.262 . S
O75 Zn70 2.049 . S
O75 C83 1.260 . S
O76 Zn71 1.996 . S
O76 C83 1.257 . S
C77 O72 1.254 . S
C77 O73 1.269 . S
C78 O79 1.249 . S
C78 O80 1.270 . S
O79 Zn71 1.943 . S
O79 C78 1.249 . S
O80 Zn70 2.067 . S
O80 C78 1.270 . S
C81 O74 1.262 . S
C81 O82 1.232 . S
O82 C81 1.232 . S
C83 O75 1.260 . S
C83 O76 1.257 . S
Zn84 O87 2.031 . S
Zn84 O89 2.049 . S
Zn84 O94 2.067 . S
Zn85 O86 1.962 . S
Zn85 O88 1.986 . S
Zn85 O90 1.996 . S
Zn85 O93 1.943 . S
O86 Zn85 1.962 . S
O86 C91 1.254 . S
O87 Zn84 2.031 . S
O87 C91 1.269 . S
O88 Zn85 1.986 . S
O88 C95 1.262 . S
O89 Zn84 2.049 . S
O89 C97 1.260 . S
O90 Zn85 1.996 . S
O90 C97 1.257 . S
C91 O86 1.254 . S
C91 O87 1.269 . S
C92 O93 1.249 . S
C92 O94 1.270 . S
O93 Zn85 1.943 . S
O93 C92 1.249 . S
O94 Zn84 2.067 . S
O94 C92 1.270 . S
C95 O88 1.262 . S
C95 O96 1.232 . S
O96 C95 1.232 . S
C97 O89 1.260 . S
C97 O90 1.257 . S
Zn98 O101 2.031 . S
Zn98 O103 2.049 . S
Zn98 O108 2.067 . S
Zn99 O100 1.962 . S
Zn99 O102 1.986 . S
Zn99 O104 1.996 . S
Zn99 O107 1.943 . S
O100 Zn99 1.962 . S
O100 C105 1.254 . S
O101 Zn98 2.031 . S
O101 C105 1.269 . S
O102 Zn99 1.986 . S
O102 C109 1.262 . S
O103 Zn98 2.049 . S
O103 C111 1.260 . S
O104 Zn99 1.996 . S
O104 C111 1.257 . S
C105 O100 1.254 . S
C105 O101 1.269 . S
C106 O107 1.249 . S
C106 O108 1.270 . S
O107 Zn99 1.943 . S
O107 C106 1.249 . S
O108 Zn98 2.067 . S
O108 C106 1.270 . S
C109 O102 1.262 . S
C109 O110 1.232 . S
O110 C109 1.232 . S
C111 O103 1.260 . S
C111 O104 1.257 . S
Zn112 O115 2.031 . S
Zn112 O117 2.049 . S
Zn112 O122 2.067 . S
Zn113 O114 1.962 . S
Zn113 O116 1.986 . S
Zn113 O118 1.996 . S
Zn113 O121 1.943 . S
O114 Zn113 1.962 . S
O114 C119 1.254 . S
O115 Zn112 2.031 . S
O115 C119 1.269 . S
O116 Zn113 1.986 . S
O116 C123 1.262 . S
O117 Zn112 2.049 . S
O117 C125 1.260 . S
O118 Zn113 1.996 . S
O118 C125 1.257 . S
C119 O114 1.254 . S
C119 O115 1.269 . S
C120 O121 1.249 . S
C120 O122 1.270 . S
O121 Zn113 1.943 . S
O121 C120 1.249 . S
O122 Zn112 2.067 . S
O122 C120 1.270 . S
C123 O116 1.262 . S
C123 O124 1.232 . S
O124 C123 1.232 . S
C125 O117 1.260 . S
C125 O118 1.257 . S
Zn126 O129 2.031 . S
Zn126 O131 2.049 . S
Zn126 O136 2.067 . S
Zn127 O128 1.962 . S
Zn127 O130 1.986 . S
Zn127 O132 1.996 . S
Zn127 O135 1.943 . S
O128 Zn127 1.962 . S
O128 C133 1.254 . S
O129 Zn126 2.031 . S
O129 C133 1.269 . S
O130 Zn127 1.986 . S
O130 C137 1.262 . S
O131 Zn126 2.049 . S
O131 C139 1.260 . S
O132 Zn127 1.996 . S
O132 C139 1.257 . S
C133 O128 1.254 . S
C133 O129 1.269 . S
C134 O135 1.249 . S
C134 O136 1.270 . S
O135 Zn127 1.943 . S
O135 C134 1.249 . S
O136 Zn126 2.067 . S
O136 C134 1.270 . S
C137 O130 1.262 . S
C137 O138 1.232 . S
O138 C137 1.232 . S
C139 O131 1.260 . S
C139 O132 1.257 . S
Zn140 O143 2.031 . S
Zn140 O145 2.049 . S
Zn140 O150 2.067 . S
Zn141 O142 1.962 . S
Zn141 O144 1.986 . S
Zn141 O146 1.996 . S
Zn141 O149 1.943 . S
O142 Zn141 1.962 . S
O142 C147 1.254 . S
O143 Zn140 2.031 . S
O143 C147 1.269 . S
O144 Zn141 1.986 . S
O144 C151 1.262 . S
O145 Zn140 2.049 . S
O145 C153 1.260 . S
O146 Zn141 1.996 . S
O146 C153 1.257 . S
C147 O142 1.254 . S
C147 O143 1.269 . S
C148 O149 1.249 . S
C148 O150 1.270 . S
O149 Zn141 1.943 . S
O149 C148 1.249 . S
O150 Zn140 2.067 . S
O150 C148 1.270 . S
C151 O144 1.262 . S
C151 O152 1.232 . S
O152 C151 1.232 . S
C153 O145 1.260 . S
C153 O146 1.257 . S
Zn154 O157 2.031 . S
Zn154 O159 2.049 . S
Zn154 O164 2.067 . S
Zn155 O156 1.962 . S
Zn155 O158 1.986 . S
Zn155 O160 1.996 . S
Zn155 O163 1.943 . S
O156 Zn155 1.962 . S
O156 C161 1.254 . S
O157 Zn154 2.031 . S
O157 C161 1.269 . S
O158 Zn155 1.986 . S
O158 C165 1.262 . S
O159 Zn154 2.049 . S
O159 C167 1.260 . S
O160 Zn155 1.996 . S
O160 C167 1.257 . S
C161 O156 1.254 . S
C161 O157 1.269 . S
C162 O163 1.249 . S
C162 O164 1.270 . S
O163 Zn155 1.943 . S
O163 C162 1.249 . S
O164 Zn154 2.067 . S
O164 C162 1.270 . S
C165 O158 1.262 . S
C165 O166 1.232 . S
O166 C165 1.232 . S
C167 O159 1.260 . S
C167 O160 1.257 . S
Zn168 O171 2.031 . S
Zn168 O173 2.049 . S
Zn168 O178 2.067 . S
Zn169 O170 1.962 . S
Zn169 O172 1.986 . S
Zn169 O174 1.996 . S
Zn169 O177 1.943 . S
O170 Zn169 1.962 . S
O170 C175 1.254 . S
O171 Zn168 2.031 . S
O171 C175 1.269 . S
O172 Zn169 1.986 . S
O172 C179 1.262 . S
O173 Zn168 2.049 . S
O173 C181 1.260 . S
O174 Zn169 1.996 . S
O174 C181 1.257 . S
C175 O170 1.254 . S
C175 O171 1.269 . S
C176 O177 1.249 . S
C176 O178 1.270 . S
O177 Zn169 1.943 . S
O177 C176 1.249 . S
O178 Zn168 2.067 . S
O178 C176 1.270 . S
C179 O172 1.262 . S
C179 O180 1.232 . S
O180 C179 1.232 . S
C181 O173 1.260 . S
C181 O174 1.257 . S
Zn182 O185 2.031 . S
Zn182 O187 2.049 . S
Zn182 O192 2.067 . S
Zn183 O184 1.962 . S
Zn183 O186 1.986 . S
Zn183 O188 1.996 . S
Zn183 O191 1.943 . S
O184 Zn183 1.962 . S
O184 C189 1.254 . S
O185 Zn182 2.031 . S
O185 C189 1.269 . S
O186 Zn183 1.986 . S
O186 C193 1.262 . S
O187 Zn182 2.049 . S
O187 C195 1.260 . S
O188 Zn183 1.996 . S
O188 C195 1.257 . S
C189 O184 1.254 . S
C189 O185 1.269 . S
C190 O191 1.249 . S
C190 O192 1.270 . S
O191 Zn183 1.943 . S
O191 C190 1.249 . S
O192 Zn182 2.067 . S
O192 C190 1.270 . S
C193 O186 1.262 . S
C193 O194 1.232 . S
O194 C193 1.232 . S
C195 O187 1.260 . S
C195 O188 1.257 . S
Zn196 O199 2.031 . S
Zn196 O201 2.049 . S
Zn196 O206 2.067 . S
Zn197 O198 1.962 . S
Zn197 O200 1.986 . S
Zn197 O202 1.996 . S
Zn197 O205 1.943 . S
O198 Zn197 1.962 . S
O198 C203 1.254 . S
O199 Zn196 2.031 . S
O199 C203 1.269 . S
O200 Zn197 1.986 . S
O200 C207 1.262 . S
O201 Zn196 2.049 . S
O201 C209 1.260 . S
O202 Zn197 1.996 . S
O202 C209 1.257 . S
C203 O198 1.254 . S
C203 O199 1.269 . S
C204 O205 1.249 . S
C204 O206 1.270 . S
O205 Zn197 1.943 . S
O205 C204 1.249 . S
O206 Zn196 2.067 . S
O206 C204 1.270 . S
C207 O200 1.262 . S
C207 O208 1.232 . S
O208 C207 1.232 . S
C209 O201 1.260 . S
C209 O202 1.257 . S
Zn210 O213 2.031 . S
Zn210 O215 2.049 . S
Zn210 O220 2.067 . S
Zn211 O212 1.962 . S
Zn211 O214 1.986 . S
Zn211 O216 1.996 . S
Zn211 O219 1.943 . S
O212 Zn211 1.962 . S
O212 C217 1.254 . S
O213 Zn210 2.031 . S
O213 C217 1.269 . S
O214 Zn211 1.986 . S
O214 C221 1.262 . S
O215 Zn210 2.049 . S
O215 C223 1.260 . S
O216 Zn211 1.996 . S
O216 C223 1.257 . S
C217 O212 1.254 . S
C217 O213 1.269 . S
C218 O219 1.249 . S
C218 O220 1.270 . S
O219 Zn211 1.943 . S
O219 C218 1.249 . S
O220 Zn210 2.067 . S
O220 C218 1.270 . S
C221 O214 1.262 . S
C221 O222 1.232 . S
O222 C221 1.232 . S
C223 O215 1.260 . S
C223 O216 1.257 . S
C81 C11 1.356 . S
C95 C25 1.356 . S
C39 C109 1.356 . S
C53 C67 1.356 . S
C193 C123 1.356 . S
C207 C137 1.356 . S
C151 C221 1.356 . S
C165 C179 1.356 . S
C153 C13 1.116 1_556 S
C167 C27 1.116 1_556 S
C125 C41 1.116 1_556 S
C55 C139 1.116 1_554 S
C209 C69 1.116 . S
C223 C83 1.116 . S
C97 C181 1.116 . S
C195 C111 1.116 . S
C64 C8 1.836 . S
C22 C78 1.836 . S
C36 C92 1.836 . S
C106 C50 1.836 . S
C119 C175 1.165 . S
C189 C133 1.165 . S
C147 C203 1.165 . S
C217 C161 1.165 . S
C162 C190 1.836 1_545 S
C120 C204 1.836 1_655 S
C218 C134 1.836 1_545 S
C148 C176 1.836 1_455 S
C77 C49 1.165 1_545 S
C91 C7 1.165 1_655 S
C105 C21 1.165 1_565 S
C63 C35 1.165 1_455 S
