# Generated by pormake.
# Topology pcu, (6)-cn, num edge types: 1
# Building blocks:
#     Node 0, Type 0, BuildingBlock: PAMTOO_clean_sbu_0, # of connection points: 6
#     Edge 1, Type (0, 0), BuildingBlock: AJUNOK_clean_linker_0, # of connection points: 2
#     Edge 2, Type (0, 0), BuildingBlock: AJUNOK_clean_linker_0, # of connection points: 2
#     Edge 3, Type (0, 0), BuildingBlock: AJUNOK_clean_linker_0, # of connection points: 2
# Relax obj value: 0.000
# Max RMSD: 0.000
# Mean RMSD: 0.000
data_MOF--net-pcu--node1-PAMTOO_clean_sbu_0--edge1-AJUNOK_clean_linker_0
_symmetry_space_group_name_H-M    P1
_symmetry_Int_Tables_number       1
_symmetry_cell_setting            triclinic
loop_
_symmetry_equiv_pos_as_xyz
'x, y, z'
_cell_length_a     21.634375
_cell_length_b     11.29644
_cell_length_c     11.206389
_cell_angle_alpha  84.30435
_cell_angle_beta   97.906938
_cell_angle_gamma 116.32437
loop_
_atom_site_label
_atom_site_type_symbol
_atom_site_fract_x
_atom_site_fract_y
_atom_site_fract_z
_atom_type_partial_charge
Dy0 Dy 0.11879 0.04917 -0.00098 0.0
Dy1 Dy 0.94587 0.90774 0.96413 0.0
C2 C 1.03207 0.97704 0.74091 0.0
O3 O 0.08918 0.20942 0.02685 0.0
O4 O 0.97954 0.12371 0.92557 0.0
O5 O 0.21782 0.16648 0.92974 0.0
O6 O 0.21404 0.09264 0.11518 0.0
O7 O 0.97758 0.98329 0.14913 0.0
O8 O 0.08138 0.97122 0.1797 0.0
O9 O 0.97698 0.74399 0.01581 0.0
O10 O 0.08783 0.83966 0.95927 0.0
O11 O 0.84675 0.78417 0.03035 0.0
O12 O 0.85142 0.87333 0.84917 0.0
C13 C 0.03372 0.22219 0.97672 0.0
O14 O 0.08523 0.06741 0.80274 0.0
O15 O 0.98043 0.88492 0.79393 0.0
C16 C 0.30931 0.11242 0.01957 0.0
C17 C 0.41858 0.04289 0.00694 0.0
C18 C 0.37677 0.05176 0.90197 0.0
C19 C 0.32248 0.08578 0.90815 0.0
C20 C 0.35162 0.10481 0.12415 0.0
C21 C 0.40557 0.07013 0.11801 0.0
C22 C 0.2533 0.15142 0.02899 0.0
C23 C 1.02908 0.97697 0.22156 0.0
C24 C 1.03187 0.73503 -0.01196 0.0
C25 C 0.75636 0.84537 0.94945 0.0
C26 C 0.64754 0.91217 0.97356 0.0
C27 C 0.69214 0.90525 0.07503 0.0
C28 C 0.74616 0.87228 0.06317 0.0
C29 C 0.71207 0.85332 0.84818 0.0
C30 C 0.65846 0.88705 0.85995 0.0
C31 C 0.81186 0.80743 0.93365 0.0
H32 H 0.38576 0.03129 0.81519 0.0
H33 H 0.29105 0.09134 0.82574 0.0
H34 H 0.34314 0.12639 0.21091 0.0
H35 H 0.43781 0.06657 0.19998 0.0
H36 H 0.68548 0.92619 0.1634 0.0
H37 H 0.77969 0.86773 0.14292 0.0
H38 H 0.71876 0.83279 0.75963 0.0
H39 H 0.62474 0.89135 0.78037 0.0
C40 C 0.09136 0.02462 0.42904 0.0
C41 C 1.02849 0.97667 0.35343 0.0
C42 C 0.09223 0.02651 0.55423 0.0
C43 C 1.0302 0.97788 0.60848 0.0
H44 H 0.1404 0.06238 0.39119 0.0
H45 H 0.1418 0.06433 0.60901 0.0
S46 S 0.85177 0.84184 0.45071 0.0
N47 N 0.90263 0.88049 0.34193 0.0
N48 N 0.90419 0.88192 0.57703 0.0
C49 C 0.96697 0.92936 0.53396 0.0
C50 C 0.96614 0.92944 0.40647 0.0
C51 C 0.52511 0.07538 0.91686 0.0
C52 C 0.47649 0.00768 0.00026 0.0
C53 C 0.58053 0.04461 0.9095 0.0
C54 C 0.58941 0.94502 -0.01472 0.0
H55 H 0.52069 0.15377 0.85771 0.0
H56 H 0.61706 0.09988 0.84459 0.0
S57 S 0.47341 0.73168 0.21232 0.0
N58 N 0.43886 0.83219 0.15591 0.0
N59 N 0.54304 0.77443 0.14206 0.0
C60 C 0.54081 0.87574 0.06821 0.0
C61 C 0.48437 0.907 0.07567 0.0
C62 C 0.09325 0.59142 -0.00611 0.0
C63 C 1.03057 0.60271 -0.0131 0.0
C64 C 0.09381 0.4681 -0.00876 0.0
C65 C 1.03169 0.35128 0.97951 0.0
H66 H 0.14253 0.67851 0.00229 0.0
H67 H 0.14339 0.46467 -0.00297 0.0
S68 S 0.85335 0.32575 0.95883 0.0
N69 N 0.9045 0.48541 0.96876 0.0
N70 N 0.90559 0.25412 0.96299 0.0
C71 C 0.96856 0.36086 0.97249 0.0
C72 C 0.96798 0.48632 0.97656 0.0
loop_
_geom_bond_atom_site_label_1
_geom_bond_atom_site_label_2
_geom_bond_distance
_geom_bond_site_symmetry_2
_ccdc_geom_bond_type
Dy0 O3 2.307 . S
Dy0 O5 2.395 1_554 S
Dy0 O6 2.379 . S
Dy0 O8 2.339 . S
Dy0 O10 2.298 1_545 S
Dy0 O14 2.275 1_554 S
Dy0 C22 2.738 . S
Dy1 O4 2.298 1_565 S
Dy1 O7 2.275 1_556 S
Dy1 O9 2.307 . S
Dy1 O11 2.395 1_556 S
Dy1 O12 2.379 . S
Dy1 O15 2.339 . S
Dy1 C31 2.738 . S
C2 O14 1.254 1_665 S
C2 O15 1.257 . S
O3 Dy0 2.307 . S
O3 C13 1.275 1_554 S
O4 Dy1 2.298 1_545 S
O4 C13 1.232 1_655 S
O5 Dy0 2.395 1_556 S
O5 C22 1.255 1_556 S
O6 Dy0 2.379 . S
O6 C22 1.249 . S
O7 Dy1 2.275 1_554 S
O7 C23 1.254 1_665 S
O8 Dy0 2.339 . S
O8 C23 1.257 . S
O9 Dy1 2.307 . S
O9 C24 1.270 1_556 S
O10 Dy0 2.298 1_565 S
O10 C24 1.234 1_455 S
O11 Dy1 2.395 1_554 S
O11 C31 1.255 1_554 S
O12 Dy1 2.379 . S
O12 C31 1.249 . S
C13 O3 1.275 1_556 S
C13 O4 1.232 1_455 S
O14 Dy0 2.275 1_556 S
O14 C2 1.254 1_445 S
O15 Dy1 2.339 . S
O15 C2 1.257 . S
C16 C19 1.344 1_544 S
C16 C20 1.328 . S
C16 C22 1.516 . S
C17 C18 1.304 . S
C17 C21 1.323 1_566 S
C18 C17 1.304 . S
C18 C19 1.371 . S
C18 H32 0.930 . S
C19 C16 1.344 1_566 S
C19 C18 1.371 . S
C19 H33 0.931 . S
C20 C16 1.328 . S
C20 C21 1.433 . S
C20 H34 0.931 . S
C21 C17 1.323 1_544 S
C21 C20 1.433 . S
C21 H35 0.933 . S
C22 Dy0 2.738 . S
C22 O5 1.255 1_554 S
C22 O6 1.249 . S
C22 C16 1.516 . S
C23 O7 1.254 1_445 S
C23 O8 1.257 . S
C24 O9 1.270 1_554 S
C24 O10 1.234 1_655 S
C25 C28 1.344 1_566 S
C25 C29 1.328 . S
C25 C31 1.516 . S
C26 C27 1.304 . S
C26 C30 1.323 1_544 S
C27 C26 1.304 . S
C27 C28 1.371 . S
C27 H36 0.930 . S
C28 C25 1.344 1_544 S
C28 C27 1.371 . S
C28 H37 0.931 . S
C29 C25 1.328 . S
C29 C30 1.433 . S
C29 H38 0.931 . S
C30 C26 1.323 1_566 S
C30 C29 1.433 . S
C30 H39 0.933 . S
C31 Dy1 2.738 . S
C31 O11 1.255 1_556 S
C31 O12 1.249 . S
C31 C25 1.516 . S
H32 C18 0.930 . S
H33 C19 0.931 . S
H34 C20 0.931 . S
H35 C21 0.933 . S
H36 C27 0.930 . S
H37 C28 0.931 . S
H38 C29 0.931 . S
H39 C30 0.933 . S
C40 C41 1.360 1_445 S
C40 C42 1.419 . S
C40 H44 0.930 . S
C41 C40 1.360 1_665 S
C41 C50 1.440 . S
C42 C40 1.419 . S
C42 C43 1.355 1_445 S
C42 H45 0.929 . S
C43 C42 1.355 1_665 S
C43 C49 1.435 . S
H44 C40 0.930 . S
H45 C42 0.929 . S
S46 N47 1.613 . S
S46 N48 1.610 . S
N47 S46 1.613 . S
N47 C50 1.350 . S
N48 S46 1.610 . S
N48 C49 1.351 . S
C49 C43 1.435 . S
C49 N48 1.351 . S
C49 C50 1.434 . S
C50 C41 1.440 . S
C50 N47 1.350 . S
C50 C49 1.434 . S
C51 C52 1.369 1_546 S
C51 C53 1.419 . S
C51 H55 0.930 . S
C52 C51 1.369 1_564 S
C52 C61 1.429 . S
C53 C51 1.419 . S
C53 C54 1.362 1_546 S
C53 H56 0.929 . S
C54 C53 1.362 1_564 S
C54 C60 1.431 . S
H55 C51 0.930 . S
H56 C53 0.929 . S
S57 N58 1.613 . S
S57 N59 1.610 . S
N58 S57 1.613 . S
N58 C61 1.350 . S
N59 S57 1.610 . S
N59 C60 1.351 . S
C60 C54 1.431 . S
C60 N59 1.351 . S
C60 C61 1.434 . S
C61 C52 1.429 . S
C61 N58 1.350 . S
C61 C60 1.434 . S
C62 C63 1.360 1_456 S
C62 C64 1.419 . S
C62 H66 0.930 . S
C63 C62 1.360 1_654 S
C63 C72 1.433 . S
C64 C62 1.419 . S
C64 C65 1.358 1_456 S
C64 H67 0.929 . S
C65 C64 1.358 1_654 S
C65 C71 1.438 . S
H66 C62 0.930 . S
H67 C64 0.929 . S
S68 N69 1.613 . S
S68 N70 1.610 . S
N69 S68 1.613 . S
N69 C72 1.350 . S
N70 S68 1.610 . S
N70 C71 1.351 . S
C71 C65 1.438 . S
C71 N70 1.351 . S
C71 C72 1.434 . S
C72 C63 1.433 . S
C72 N69 1.350 . S
C72 C71 1.434 . S
C41 C23 1.466 1_665 S
C43 C2 1.467 . S
C52 C17 1.498 1_554 S
C54 C26 1.497 1_565 S
C63 C24 1.499 . S
C65 C13 1.489 1_654 S
