# Generated by pormake.
# Topology qtz-e, (6)-cn, num edge types: 1
# Building blocks:
#     Node 0, Type 0, BuildingBlock: PAMTOO_clean_sbu_0, # of connection points: 6
#     Node 1, Type 0, BuildingBlock: PAMTOO_clean_sbu_0, # of connection points: 6
#     Node 2, Type 0, BuildingBlock: PAMTOO_clean_sbu_0, # of connection points: 6
#     Node 3, Type 0, BuildingBlock: PAMTOO_clean_sbu_0, # of connection points: 6
#     Node 4, Type 0, BuildingBlock: PAMTOO_clean_sbu_0, # of connection points: 6
#     Node 5, Type 0, BuildingBlock: PAMTOO_clean_sbu_0, # of connection points: 6
#     Edge 6, Type (0, 0), None
#     Edge 7, Type (0, 0), None
#     Edge 8, Type (0, 0), None
#     Edge 9, Type (0, 0), None
#     Edge 10, Type (0, 0), None
#     Edge 11, Type (0, 0), None
#     Edge 12, Type (0, 0), None
#     Edge 13, Type (0, 0), None
#     Edge 14, Type (0, 0), None
#     Edge 15, Type (0, 0), None
#     Edge 16, Type (0, 0), None
#     Edge 17, Type (0, 0), None
#     Edge 18, Type (0, 0), None
#     Edge 19, Type (0, 0), None
#     Edge 20, Type (0, 0), None
#     Edge 21, Type (0, 0), None
#     Edge 22, Type (0, 0), None
#     Edge 23, Type (0, 0), None
# Relax obj value: 0.426
# Max RMSD: 0.283
# Mean RMSD: 0.283
data_MOF--net-qtz-e--node1-PAMTOO_clean_sbu_0--edge1-none
_symmetry_space_group_name_H-M    P1
_symmetry_Int_Tables_number       1
_symmetry_cell_setting            triclinic
loop_
_symmetry_equiv_pos_as_xyz
'x, y, z'
_cell_length_a     13.259406
_cell_length_b     13.259665
_cell_length_c     27.951684
_cell_angle_alpha  89.998742
_cell_angle_beta   89.999368
_cell_angle_gamma 119.99833
loop_
_atom_site_label
_atom_site_type_symbol
_atom_site_fract_x
_atom_site_fract_y
_atom_site_fract_z
_atom_type_partial_charge
Dy0 Dy 0.01722 0.33004 0.2685 0.0
Dy1 Dy 0.15751 0.61327 0.28795 0.0
C2 C 0.29872 0.48356 0.25668 0.0
O3 O 0.99809 0.32779 0.34951 0.0
O4 O 0.08021 0.52559 0.36009 0.0
O5 O 0.00379 0.16065 0.26517 0.0
O6 O 0.87671 0.18984 0.22868 0.0
O7 O 1.00287 0.5951 0.24994 0.0
O8 O 0.8912 0.39402 0.25188 0.0
O9 O 0.14927 0.60745 0.20762 0.0
O10 O 0.09732 0.4145 0.20079 0.0
O11 O 0.17407 0.77678 0.31096 0.0
O12 O 0.32797 0.76363 0.29743 0.0
C13 C 0.02697 0.41842 0.37764 0.0
O14 O 0.20582 0.38074 0.26289 0.0
O15 O 0.29892 0.58032 0.26515 0.0
C16 C 0.95711 0.09257 0.18396 0.0
C17 C 0.0168 0.0324 0.09437 0.0
C18 C 0.08082 0.04252 0.13604 0.0
C19 C 0.05228 0.0734 0.18003 0.0
C20 C 0.89252 0.08137 0.14225 0.0
C21 C 0.92261 0.05285 0.09807 0.0
C22 C 0.9268 0.12667 0.23077 0.0
C23 C 0.90698 0.49773 0.24009 0.0
C24 C 0.13087 0.51643 0.18219 0.0
C25 C 0.32138 0.84374 0.36978 0.0
C26 C 0.39018 0.84571 0.4649 0.0
C27 C 0.27279 0.7793 0.45164 0.0
C28 C 0.23855 0.78015 0.40505 0.0
C29 C 0.44005 0.9072 0.38235 0.0
C30 C 0.47432 0.90961 0.43005 0.0
C31 C 0.28531 0.8203 0.31954 0.0
H32 H 0.15452 0.02849 0.13445 0.0
H33 H 0.1052 0.08235 0.21098 0.0
H34 H 0.81873 0.09528 0.14367 0.0
H35 H 0.87094 0.04516 1.0668 0.0
H36 H 0.20591 0.73186 0.47819 0.0
H37 H 0.14665 0.72916 0.39674 0.0
H38 H 0.50571 0.95403 0.35532 0.0
H39 H 0.56482 0.96469 0.43997 0.0
Dy40 Dy 0.0039 0.32338 0.53982 0.0
Dy41 Dy 0.86358 0.4663 0.52038 0.0
C42 C 0.72237 0.19537 0.55165 0.0
O43 O 0.02288 0.34014 0.45881 0.0
O44 O 0.94099 0.45603 0.44824 0.0
O45 O 0.01742 0.16746 0.54314 0.0
O46 O 0.14442 0.32372 0.57966 0.0
O47 O 0.01816 0.6027 0.55844 0.0
O48 O 0.12993 0.51339 0.55639 0.0
O49 O 0.87174 0.46865 0.6007 0.0
O50 O 0.92382 0.32774 0.60754 0.0
O51 O 0.84709 0.61329 0.49735 0.0
O52 O 0.69315 0.44628 0.5109 0.0
C53 C 0.99411 0.40199 0.43069 0.0
O54 O 0.81533 0.1855 0.54553 0.0
O55 O 0.72213 0.29188 0.54309 0.0
C56 C 0.06405 0.14603 0.62436 0.0
C57 C 0.0043 0.02612 0.71394 0.0
C58 C 0.9403 0.97226 0.67227 0.0
C59 C 0.96885 0.03169 0.62828 0.0
C60 C 0.12863 0.19937 0.66607 0.0
C61 C 0.09852 0.14074 0.71025 0.0
C62 C 0.09439 0.21048 0.57756 0.0
C63 C 0.11411 0.60127 0.56824 0.0
C64 C 0.89018 0.39605 0.62613 0.0
C65 C 0.69977 0.53297 0.43854 0.0
C66 C 0.63098 0.46614 0.34342 0.0
C67 C 0.74838 0.51718 0.35667 0.0
C68 C 0.78262 0.55226 0.40326 0.0
C69 C 0.5811 0.4777 0.42597 0.0
C70 C 0.54683 0.44584 0.37827 0.0
C71 C 0.73584 0.5456 0.48878 0.0
H72 H 0.86658 0.88454 0.67385 0.0
H73 H 0.91593 0.98776 0.59733 0.0
H74 H 0.20243 0.28706 0.66467 0.0
H75 H 0.15017 0.18469 0.74152 0.0
H76 H 0.81527 0.53667 0.33012 0.0
H77 H 0.87452 0.5932 0.41157 0.0
H78 H 0.51543 0.45884 0.453 0.0
H79 H 0.45633 0.41038 0.36835 0.0
Dy80 Dy 0.67509 0.66585 0.93516 0.0
Dy81 Dy 0.39186 0.52291 0.95461 0.0
C82 C 0.52156 0.79383 0.92334 0.0
O83 O 0.67734 0.64897 1.01616 0.0
O84 O 0.47954 0.53326 1.02675 0.0
O85 O 0.84449 0.82181 0.93182 0.0
O86 O 0.81529 0.66555 0.89532 0.0
O87 O 0.41004 0.38646 0.91659 0.0
O88 O 0.61112 0.47585 0.91854 0.0
O89 O 0.39767 0.52049 0.87429 0.0
O90 O 0.59062 0.6615 0.86745 0.0
O91 O 0.22836 0.37594 0.97763 0.0
O92 O 0.24147 0.54297 0.9641 0.0
C93 C 0.58672 0.58721 1.0443 0.0
O94 O 0.62438 0.80373 0.92953 0.0
O95 O 0.42479 0.69727 0.93183 0.0
C96 C 0.91258 0.84324 0.85061 0.0
C97 C 0.9728 0.96315 0.76102 0.0
C98 C 0.96266 0.01702 0.8027 0.0
C99 C 0.93175 0.95758 0.84669 0.0
C100 C 0.92381 0.78988 0.8089 0.0
C101 C 0.95235 0.84851 0.76472 0.0
C102 C 0.87847 0.7788 0.89741 0.0
C103 C 0.50741 0.38793 0.90675 0.0
C104 C 0.48869 0.59313 0.84885 0.0
C105 C 0.1614 0.45627 1.03646 0.0
C106 C 0.1595 0.52314 0.13157 0.0
C107 C 0.22586 0.47211 0.11832 0.0
C108 C 0.22499 0.437 1.07173 0.0
C109 C 0.09795 0.5115 1.04903 0.0
C110 C 0.09557 0.54338 0.09673 0.0
C111 C 0.18483 0.44364 0.98622 0.0
H112 H 0.97669 0.10475 0.80111 0.0
H113 H 0.92278 1.00153 0.87764 0.0
H114 H 0.9099 0.70218 0.81031 0.0
H115 H 0.96006 0.80455 0.73345 0.0
H116 H 0.27329 0.45264 0.14487 0.0
H117 H 0.27595 0.39607 1.06341 0.0
H118 H 0.05111 0.53033 1.02201 0.0
H119 H 0.04051 0.57882 0.10667 0.0
Dy120 Dy 0.68179 0.65918 0.20647 0.0
Dy121 Dy 0.53886 0.37595 0.18704 0.0
C122 C 0.80979 0.50567 0.2183 0.0
O123 O 0.66489 0.66141 0.12547 0.0
O124 O 0.54923 0.46361 0.11489 0.0
O125 O 0.83775 0.82858 0.2098 0.0
O126 O 0.68148 0.7994 0.24629 0.0
O127 O 0.40238 0.39413 0.22504 0.0
O128 O 0.4918 0.59521 0.22311 0.0
O129 O 0.53644 0.38179 0.26737 0.0
O130 O 0.67744 0.57475 0.27419 0.0
O131 O 0.3919 0.21243 0.16405 0.0
O132 O 0.55898 0.2256 0.17755 0.0
C133 C 0.60316 0.57078 0.09734 0.0
O134 O 0.81969 0.60849 0.21209 0.0
O135 O 0.71321 0.40891 0.20985 0.0
C136 C 0.85915 0.89666 0.29101 0.0
C137 C 0.979 0.95679 0.3806 0.0
C138 C 0.0329 0.94669 0.33892 0.0
C139 C 0.97349 0.91582 0.29493 0.0
C140 C 0.80577 0.90786 0.33271 0.0
C141 C 0.86436 0.93636 0.3769 0.0
C142 C 0.79473 0.86256 0.2442 0.0
C143 C 0.40387 0.4915 0.2349 0.0
C144 C 0.60904 0.47284 0.29279 0.0
C145 C 0.47222 0.14547 0.10521 0.0
C146 C 0.539 0.1435 1.01008 0.0
C147 C 0.48794 0.20984 1.02334 0.0
C148 C 0.45288 0.209 1.06994 0.0
C149 C 0.5275 0.08207 0.09264 0.0
C150 C 0.55934 0.07967 1.04493 0.0
C151 C 0.45963 0.16892 0.15546 0.0
H152 H 0.12063 0.9607 0.34052 0.0
H153 H 0.01746 0.90687 0.26398 0.0
H154 H 0.71807 0.89396 0.3313 0.0
H155 H 0.82039 0.94405 0.40816 0.0
H156 H 0.46842 0.25723 0.9968 0.0
H157 H 0.41194 0.25995 0.07826 0.0
H158 H 0.5464 0.03529 0.11966 0.0
H159 H 0.59481 0.02464 1.035 0.0
Dy160 Dy 0.33924 0.98786 0.60183 0.0
Dy161 Dy 0.48222 0.84762 0.62128 0.0
C162 C 0.21131 0.70639 0.59003 0.0
O163 O 0.3563 0.00721 0.68282 0.0
O164 O 0.4717 0.92477 0.69344 0.0
O165 O 0.1832 1.00117 0.59848 0.0
O166 O 0.33945 0.12834 0.56201 0.0
O167 O 0.61877 0.00235 0.58335 0.0
O168 O 0.5292 0.11389 0.58513 0.0
O169 O 0.48474 0.85598 0.54095 0.0
O170 O 0.34359 0.90773 0.53413 0.0
O171 O 0.62917 0.83101 0.64427 0.0
O172 O 0.46207 0.67714 0.63078 0.0
C173 C 0.41791 0.97817 0.71097 0.0
O174 O 0.20134 0.79924 0.59634 0.0
O175 O 0.30796 0.70627 0.59837 0.0
C176 C 0.16179 0.0479 0.51728 0.0
C177 C 0.04194 0.98824 0.42769 0.0
C178 C 0.98802 0.92425 0.46936 0.0
C179 C 0.04742 0.95276 0.51335 0.0
C180 C 0.2152 0.11246 0.47557 0.0
C181 C 0.1566 0.0824 0.43138 0.0
C182 C 0.22619 0.07819 0.56409 0.0
C183 C 0.61722 0.09817 0.57343 0.0
C184 C 0.41209 0.87434 0.51552 0.0
C185 C 0.54883 0.68376 0.70312 0.0
C186 C 0.48198 0.61504 0.79823 0.0
C187 C 0.53305 0.73243 0.78498 0.0
C188 C 0.56814 0.76663 0.73838 0.0
C189 C 0.49356 0.56508 0.7157 0.0
C190 C 0.46169 0.53084 0.7634 0.0
C191 C 0.56142 0.71979 0.65287 0.0
H192 H 0.90027 0.85057 0.46777 0.0
H193 H 0.00344 0.89986 0.54431 0.0
H194 H 0.30291 0.18622 0.47698 0.0
H195 H 0.20059 0.13405 0.40012 0.0
H196 H 0.55254 0.79933 0.81152 0.0
H197 H 0.60909 0.85852 0.73005 0.0
H198 H 0.4747 0.4994 0.68868 0.0
H199 H 0.42623 0.44035 0.77334 0.0
Dy200 Dy 0.34594 1.00131 0.87315 0.0
Dy201 Dy 0.62918 0.14157 0.85371 0.0
C202 C 0.49948 0.2828 0.88496 0.0
O203 O 0.3437 0.98209 0.79214 0.0
O204 O 0.54152 0.06434 0.78155 0.0
O205 O 0.17657 0.98795 0.87648 0.0
O206 O 0.2057 0.86082 0.91296 0.0
O207 O 0.61098 0.98689 0.89168 0.0
O208 O 0.40989 0.87528 0.88981 0.0
O209 O 0.62333 0.13328 0.93403 0.0
O210 O 0.4304 0.08142 0.94085 0.0
O211 O 0.79271 0.15812 0.83071 0.0
O212 O 0.77954 0.31202 0.84422 0.0
C213 C 0.43434 0.01104 0.76401 0.0
O214 O 0.39666 0.18992 0.87871 0.0
O215 O 0.59625 0.28296 0.87654 0.0
C216 C 0.10845 0.94124 0.95769 0.0
C217 C 0.04827 1.00093 1.04728 0.0
C218 C 0.05836 0.06493 1.0056 0.0
C219 C 0.08925 0.0364 0.96161 0.0
C220 C 0.09727 0.87668 0.9994 0.0
C221 C 0.06875 0.90676 1.04358 0.0
C222 C 0.14256 0.91094 0.91088 0.0
C223 C 0.51361 0.89103 0.90156 0.0
C224 C 0.5323 0.11488 0.95946 0.0
C225 C 0.85966 0.30539 0.77187 0.0
C226 C 0.86156 0.37412 0.67676 0.0
C227 C 0.79525 0.25672 0.69001 0.0
C228 C 0.79613 0.22252 0.7366 0.0
C229 C 0.92305 0.42407 0.75929 0.0
C230 C 0.92543 0.45831 0.71159 0.0
C231 C 0.83621 0.26935 0.82212 0.0
H232 H 0.04431 0.13862 1.00719 0.0
H233 H 0.09818 0.08931 0.93066 0.0
H234 H 0.11121 0.8029 0.99799 0.0
H235 H 0.06108 0.85511 0.07485 0.0
H236 H 0.74788 0.18983 0.66346 0.0
H237 H 0.7452 0.13062 0.74493 0.0
H238 H 0.96984 0.48975 0.78632 0.0
H239 H 0.98044 0.54881 0.70166 0.0
loop_
_geom_bond_atom_site_label_1
_geom_bond_atom_site_label_2
_geom_bond_distance
_geom_bond_site_symmetry_2
_ccdc_geom_bond_type
Dy0 O3 2.307 . S
Dy0 O5 2.395 1_655 S
Dy0 O6 2.379 . S
Dy0 O8 2.339 . S
Dy0 O10 2.298 1_655 S
Dy0 O14 2.275 1_655 S
Dy0 C22 2.738 . S
Dy1 O4 2.298 . S
Dy1 O7 2.275 1_455 S
Dy1 O9 2.307 . S
Dy1 O11 2.395 . S
Dy1 O12 2.379 . S
Dy1 O15 2.339 . S
Dy1 C31 2.738 . S
C2 O14 1.254 . S
C2 O15 1.257 . S
O3 Dy0 2.307 . S
O3 C13 1.266 . S
O4 Dy1 2.298 . S
O4 C13 1.236 1_455 S
O5 Dy0 2.395 1_455 S
O5 C22 1.255 1_455 S
O6 Dy0 2.379 . S
O6 C22 1.249 . S
O7 Dy1 2.275 1_655 S
O7 C23 1.254 . S
O8 Dy0 2.339 . S
O8 C23 1.257 . S
O9 Dy1 2.307 . S
O9 C24 1.266 . S
O10 Dy0 2.298 1_455 S
O10 C24 1.236 . S
O11 Dy1 2.395 . S
O11 C31 1.255 . S
O12 Dy1 2.379 . S
O12 C31 1.249 . S
C13 O3 1.266 . S
C13 O4 1.236 1_655 S
O14 Dy0 2.275 1_455 S
O14 C2 1.254 . S
O15 Dy1 2.339 . S
O15 C2 1.257 . S
C16 C19 1.344 1_655 S
C16 C20 1.328 1_545 S
C16 C22 1.516 . S
C17 C18 1.304 1_665 S
C17 C21 1.323 . S
C18 C17 1.304 1_445 S
C18 C19 1.371 . S
C18 H32 0.930 . S
C19 C16 1.344 1_455 S
C19 C18 1.371 . S
C19 H33 0.931 . S
C20 C16 1.328 1_565 S
C20 C21 1.433 . S
C20 H34 0.931 . S
C21 C17 1.323 . S
C21 C20 1.433 . S
C21 H35 0.933 . S
C22 Dy0 2.738 . S
C22 O5 1.255 1_655 S
C22 O6 1.249 . S
C22 C16 1.516 . S
C23 O7 1.254 . S
C23 O8 1.257 . S
C24 O9 1.266 . S
C24 O10 1.236 . S
C25 C28 1.344 . S
C25 C29 1.328 . S
C25 C31 1.516 . S
C26 C27 1.304 . S
C26 C30 1.323 . S
C27 C26 1.304 . S
C27 C28 1.371 . S
C27 H36 0.930 1_455 S
C28 C25 1.344 . S
C28 C27 1.371 . S
C28 H37 0.931 1_455 S
C29 C25 1.328 . S
C29 C30 1.433 . S
C29 H38 0.931 . S
C30 C26 1.323 . S
C30 C29 1.433 . S
C30 H39 0.933 . S
C31 Dy1 2.738 . S
C31 O11 1.255 . S
C31 O12 1.249 . S
C31 C25 1.516 . S
H32 C18 0.930 . S
H33 C19 0.931 . S
H34 C20 0.931 . S
H35 C21 0.933 . S
H36 C27 0.930 1_655 S
H37 C28 0.931 1_655 S
H38 C29 0.931 . S
H39 C30 0.933 . S
Dy40 O43 2.307 . S
Dy40 O45 2.395 1_455 S
Dy40 O46 2.379 . S
Dy40 O48 2.339 . S
Dy40 O50 2.298 1_455 S
Dy40 O54 2.275 1_455 S
Dy40 C62 2.738 . S
Dy41 O44 2.298 . S
Dy41 O47 2.275 1_655 S
Dy41 O49 2.307 . S
Dy41 O51 2.395 . S
Dy41 O52 2.379 . S
Dy41 O55 2.339 . S
Dy41 C71 2.738 . S
C42 O54 1.254 . S
C42 O55 1.257 . S
O43 Dy40 2.307 . S
O43 C53 1.266 . S
O44 Dy41 2.298 . S
O44 C53 1.236 1_655 S
O45 Dy40 2.395 1_655 S
O45 C62 1.255 1_655 S
O46 Dy40 2.379 . S
O46 C62 1.249 . S
O47 Dy41 2.275 1_455 S
O47 C63 1.254 . S
O48 Dy40 2.339 . S
O48 C63 1.257 . S
O49 Dy41 2.307 . S
O49 C64 1.266 . S
O50 Dy40 2.298 1_655 S
O50 C64 1.236 . S
O51 Dy41 2.395 . S
O51 C71 1.255 . S
O52 Dy41 2.379 . S
O52 C71 1.249 . S
C53 O43 1.266 . S
C53 O44 1.236 1_455 S
O54 Dy40 2.275 1_655 S
O54 C42 1.254 . S
O55 Dy41 2.339 . S
O55 C42 1.257 . S
C56 C59 1.344 1_455 S
C56 C60 1.328 . S
C56 C62 1.516 . S
C57 C58 1.304 1_455 S
C57 C61 1.323 1_565 S
C58 C57 1.304 1_655 S
C58 C59 1.371 1_565 S
C58 H72 0.930 . S
C59 C56 1.344 1_655 S
C59 C58 1.371 1_545 S
C59 H73 0.931 . S
C60 C56 1.328 . S
C60 C61 1.433 . S
C60 H74 0.931 . S
C61 C57 1.323 1_545 S
C61 C60 1.433 . S
C61 H75 0.933 . S
C62 Dy40 2.738 . S
C62 O45 1.255 1_455 S
C62 O46 1.249 . S
C62 C56 1.516 . S
C63 O47 1.254 . S
C63 O48 1.257 . S
C64 O49 1.266 . S
C64 O50 1.236 . S
C65 C68 1.344 . S
C65 C69 1.328 . S
C65 C71 1.516 . S
C66 C67 1.304 . S
C66 C70 1.323 . S
C67 C66 1.304 . S
C67 C68 1.371 . S
C67 H76 0.930 1_655 S
C68 C65 1.344 . S
C68 C67 1.371 . S
C68 H77 0.931 1_655 S
C69 C65 1.328 . S
C69 C70 1.433 . S
C69 H78 0.931 . S
C70 C66 1.323 . S
C70 C69 1.433 . S
C70 H79 0.933 . S
C71 Dy41 2.738 . S
C71 O51 1.255 . S
C71 O52 1.249 . S
C71 C65 1.516 . S
H72 C58 0.930 . S
H73 C59 0.931 . S
H74 C60 0.931 . S
H75 C61 0.933 . S
H76 C67 0.930 1_455 S
H77 C68 0.931 1_455 S
H78 C69 0.931 . S
H79 C70 0.933 . S
Dy80 O83 2.307 . S
Dy80 O85 2.395 . S
Dy80 O86 2.379 . S
Dy80 O88 2.339 . S
Dy80 O90 2.298 . S
Dy80 O94 2.275 . S
Dy80 C102 2.738 . S
Dy81 O84 2.298 . S
Dy81 O87 2.275 . S
Dy81 O89 2.307 . S
Dy81 O91 2.395 . S
Dy81 O92 2.379 . S
Dy81 O95 2.339 . S
Dy81 C111 2.738 . S
C82 O94 1.254 . S
C82 O95 1.257 . S
O83 Dy80 2.307 . S
O83 C93 1.266 . S
O84 Dy81 2.298 . S
O84 C93 1.236 . S
O85 Dy80 2.395 . S
O85 C102 1.255 . S
O86 Dy80 2.379 . S
O86 C102 1.249 . S
O87 Dy81 2.275 . S
O87 C103 1.254 . S
O88 Dy80 2.339 . S
O88 C103 1.257 . S
O89 Dy81 2.307 . S
O89 C104 1.266 . S
O90 Dy80 2.298 . S
O90 C104 1.236 . S
O91 Dy81 2.395 . S
O91 C111 1.255 . S
O92 Dy81 2.379 . S
O92 C111 1.249 . S
C93 O83 1.266 . S
C93 O84 1.236 . S
O94 Dy80 2.275 . S
O94 C82 1.254 . S
O95 Dy81 2.339 . S
O95 C82 1.257 . S
C96 C99 1.344 . S
C96 C100 1.328 1_655 S
C96 C102 1.516 . S
C97 C98 1.304 1_465 S
C97 C101 1.323 . S
C98 C97 1.304 1_645 S
C98 C99 1.371 1_545 S
C98 H112 0.930 . S
C99 C96 1.344 . S
C99 C98 1.371 1_565 S
C99 H113 0.931 . S
C100 C96 1.328 1_455 S
C100 C101 1.433 . S
C100 H114 0.931 . S
C101 C97 1.323 . S
C101 C100 1.433 . S
C101 H115 0.933 . S
C102 Dy80 2.738 . S
C102 O85 1.255 . S
C102 O86 1.249 . S
C102 C96 1.516 . S
C103 O87 1.254 . S
C103 O88 1.257 . S
C104 O89 1.266 . S
C104 O90 1.236 . S
C105 C108 1.344 . S
C105 C109 1.328 . S
C105 C111 1.516 1_554 S
C106 C107 1.304 . S
C106 C110 1.323 . S
C107 C106 1.304 . S
C107 C108 1.371 . S
C107 H116 0.930 . S
C108 C105 1.344 . S
C108 C107 1.371 . S
C108 H117 0.931 . S
C109 C105 1.328 . S
C109 C110 1.433 . S
C109 H118 0.931 . S
C110 C106 1.323 . S
C110 C109 1.433 . S
C110 H119 0.933 . S
C111 Dy81 2.738 . S
C111 O91 1.255 . S
C111 O92 1.249 . S
C111 C105 1.516 1_556 S
H112 C98 0.930 . S
H113 C99 0.931 . S
H114 C100 0.931 . S
H115 C101 0.933 . S
H116 C107 0.930 . S
H117 C108 0.931 . S
H118 C109 0.931 . S
H119 C110 0.933 . S
Dy120 O123 2.307 . S
Dy120 O125 2.395 . S
Dy120 O126 2.379 . S
Dy120 O128 2.339 . S
Dy120 O130 2.298 . S
Dy120 O134 2.275 . S
Dy120 C142 2.738 . S
Dy121 O124 2.298 . S
Dy121 O127 2.275 . S
Dy121 O129 2.307 . S
Dy121 O131 2.395 . S
Dy121 O132 2.379 . S
Dy121 O135 2.339 . S
Dy121 C151 2.738 . S
C122 O134 1.254 . S
C122 O135 1.257 . S
O123 Dy120 2.307 . S
O123 C133 1.266 . S
O124 Dy121 2.298 . S
O124 C133 1.236 . S
O125 Dy120 2.395 . S
O125 C142 1.255 . S
O126 Dy120 2.379 . S
O126 C142 1.249 . S
O127 Dy121 2.275 . S
O127 C143 1.254 . S
O128 Dy120 2.339 . S
O128 C143 1.257 . S
O129 Dy121 2.307 . S
O129 C144 1.266 . S
O130 Dy120 2.298 . S
O130 C144 1.236 . S
O131 Dy121 2.395 . S
O131 C151 1.255 . S
O132 Dy121 2.379 . S
O132 C151 1.249 . S
C133 O123 1.266 . S
C133 O124 1.236 . S
O134 Dy120 2.275 . S
O134 C122 1.254 . S
O135 Dy121 2.339 . S
O135 C122 1.257 . S
C136 C139 1.344 . S
C136 C140 1.328 . S
C136 C142 1.516 . S
C137 C138 1.304 1_545 S
C137 C141 1.323 1_455 S
C138 C137 1.304 1_565 S
C138 C139 1.371 1_455 S
C138 H152 0.930 . S
C139 C136 1.344 . S
C139 C138 1.371 1_655 S
C139 H153 0.931 . S
C140 C136 1.328 . S
C140 C141 1.433 1_565 S
C140 H154 0.931 . S
C141 C137 1.323 1_655 S
C141 C140 1.433 1_545 S
C141 H155 0.933 . S
C142 Dy120 2.738 . S
C142 O125 1.255 . S
C142 O126 1.249 . S
C142 C136 1.516 . S
C143 O127 1.254 . S
C143 O128 1.257 . S
C144 O129 1.266 . S
C144 O130 1.236 . S
C145 C148 1.344 . S
C145 C149 1.328 . S
C145 C151 1.516 1_556 S
C146 C147 1.304 . S
C146 C150 1.323 . S
C147 C146 1.304 . S
C147 C148 1.371 . S
C147 H156 0.930 . S
C148 C145 1.344 . S
C148 C147 1.371 . S
C148 H157 0.931 . S
C149 C145 1.328 . S
C149 C150 1.433 . S
C149 H158 0.931 . S
C150 C146 1.323 . S
C150 C149 1.433 . S
C150 H159 0.933 . S
C151 Dy121 2.738 . S
C151 O131 1.255 . S
C151 O132 1.249 . S
C151 C145 1.516 1_554 S
H152 C138 0.930 . S
H153 C139 0.931 . S
H154 C140 0.931 . S
H155 C141 0.933 . S
H156 C147 0.930 . S
H157 C148 0.931 . S
H158 C149 0.931 . S
H159 C150 0.933 . S
Dy160 O163 2.307 . S
Dy160 O165 2.395 1_545 S
Dy160 O166 2.379 . S
Dy160 O168 2.339 . S
Dy160 O170 2.298 1_545 S
Dy160 O174 2.275 1_545 S
Dy160 C182 2.738 . S
Dy161 O164 2.298 . S
Dy161 O167 2.275 1_565 S
Dy161 O169 2.307 . S
Dy161 O171 2.395 . S
Dy161 O172 2.379 . S
Dy161 O175 2.339 . S
Dy161 C191 2.738 . S
C162 O174 1.254 . S
C162 O175 1.257 . S
O163 Dy160 2.307 . S
O163 C173 1.266 . S
O164 Dy161 2.298 . S
O164 C173 1.236 1_565 S
O165 Dy160 2.395 1_565 S
O165 C182 1.255 1_565 S
O166 Dy160 2.379 . S
O166 C182 1.249 . S
O167 Dy161 2.275 1_545 S
O167 C183 1.254 . S
O168 Dy160 2.339 . S
O168 C183 1.257 . S
O169 Dy161 2.307 . S
O169 C184 1.266 . S
O170 Dy160 2.298 1_565 S
O170 C184 1.236 . S
O171 Dy161 2.395 . S
O171 C191 1.255 . S
O172 Dy161 2.379 . S
O172 C191 1.249 . S
C173 O163 1.266 . S
C173 O164 1.236 1_545 S
O174 Dy160 2.275 1_565 S
O174 C162 1.254 . S
O175 Dy161 2.339 . S
O175 C162 1.257 . S
C176 C179 1.344 1_545 S
C176 C180 1.328 . S
C176 C182 1.516 . S
C177 C178 1.304 1_445 S
C177 C181 1.323 . S
C178 C177 1.304 1_665 S
C178 C179 1.371 1_655 S
C178 H192 0.930 . S
C179 C176 1.344 1_565 S
C179 C178 1.371 1_455 S
C179 H193 0.931 . S
C180 C176 1.328 . S
C180 C181 1.433 . S
C180 H194 0.931 . S
C181 C177 1.323 . S
C181 C180 1.433 . S
C181 H195 0.933 . S
C182 Dy160 2.738 . S
C182 O165 1.255 1_545 S
C182 O166 1.249 . S
C182 C176 1.516 . S
C183 O167 1.254 . S
C183 O168 1.257 . S
C184 O169 1.266 . S
C184 O170 1.236 . S
C185 C188 1.344 . S
C185 C189 1.328 . S
C185 C191 1.516 . S
C186 C187 1.304 . S
C186 C190 1.323 . S
C187 C186 1.304 . S
C187 C188 1.371 . S
C187 H196 0.930 1_565 S
C188 C185 1.344 . S
C188 C187 1.371 . S
C188 H197 0.931 1_565 S
C189 C185 1.328 . S
C189 C190 1.433 . S
C189 H198 0.931 . S
C190 C186 1.323 . S
C190 C189 1.433 . S
C190 H199 0.933 . S
C191 Dy161 2.738 . S
C191 O171 1.255 . S
C191 O172 1.249 . S
C191 C185 1.516 . S
H192 C178 0.930 . S
H193 C179 0.931 . S
H194 C180 0.931 . S
H195 C181 0.933 . S
H196 C187 0.930 1_545 S
H197 C188 0.931 1_545 S
H198 C189 0.931 . S
H199 C190 0.933 . S
Dy200 O203 2.307 . S
Dy200 O205 2.395 1_565 S
Dy200 O206 2.379 . S
Dy200 O208 2.339 . S
Dy200 O210 2.298 1_565 S
Dy200 O214 2.275 1_565 S
Dy200 C222 2.738 . S
Dy201 O204 2.298 . S
Dy201 O207 2.275 1_545 S
Dy201 O209 2.307 . S
Dy201 O211 2.395 . S
Dy201 O212 2.379 . S
Dy201 O215 2.339 . S
Dy201 C231 2.738 . S
C202 O214 1.254 . S
C202 O215 1.257 . S
O203 Dy200 2.307 . S
O203 C213 1.266 . S
O204 Dy201 2.298 . S
O204 C213 1.236 1_545 S
O205 Dy200 2.395 1_545 S
O205 C222 1.255 1_545 S
O206 Dy200 2.379 . S
O206 C222 1.249 . S
O207 Dy201 2.275 1_565 S
O207 C223 1.254 . S
O208 Dy200 2.339 . S
O208 C223 1.257 . S
O209 Dy201 2.307 . S
O209 C224 1.266 . S
O210 Dy200 2.298 1_545 S
O210 C224 1.236 . S
O211 Dy201 2.395 . S
O211 C231 1.255 . S
O212 Dy201 2.379 . S
O212 C231 1.249 . S
C213 O203 1.266 . S
C213 O204 1.236 1_565 S
O214 Dy200 2.275 1_545 S
O214 C202 1.254 . S
O215 Dy201 2.339 . S
O215 C202 1.257 . S
C216 C219 1.344 1_565 S
C216 C220 1.328 . S
C216 C222 1.516 . S
C217 C218 1.304 1_665 S
C217 C221 1.323 . S
C218 C217 1.304 1_445 S
C218 C219 1.371 . S
C218 H232 0.930 . S
C219 C216 1.344 1_545 S
C219 C218 1.371 . S
C219 H233 0.931 . S
C220 C216 1.328 . S
C220 C221 1.433 1_455 S
C220 H234 0.931 . S
C221 C217 1.323 . S
C221 C220 1.433 1_655 S
C221 H235 0.933 . S
C222 Dy200 2.738 . S
C222 O205 1.255 1_565 S
C222 O206 1.249 . S
C222 C216 1.516 . S
C223 O207 1.254 . S
C223 O208 1.257 . S
C224 O209 1.266 . S
C224 O210 1.236 . S
C225 C228 1.344 . S
C225 C229 1.328 . S
C225 C231 1.516 . S
C226 C227 1.304 . S
C226 C230 1.323 . S
C227 C226 1.304 . S
C227 C228 1.371 . S
C227 H236 0.930 1_545 S
C228 C225 1.344 . S
C228 C227 1.371 . S
C228 H237 0.931 1_545 S
C229 C225 1.328 . S
C229 C230 1.433 . S
C229 H238 0.931 . S
C230 C226 1.323 . S
C230 C229 1.433 . S
C230 H239 0.933 . S
C231 Dy201 2.738 . S
C231 O211 1.255 . S
C231 O212 1.249 . S
C231 C225 1.516 . S
H232 C218 0.930 . S
H233 C219 0.931 . S
H234 C220 0.931 . S
H235 C221 0.933 . S
H236 C227 0.930 1_565 S
H237 C228 0.931 1_565 S
H238 C229 0.931 . S
H239 C230 0.933 . S
C184 C26 3.819 . S
C226 C64 3.819 . S
C24 C106 3.819 . S
C66 C144 3.819 . S
C104 C186 3.819 . S
C146 C224 3.819 . S
C2 C143 4.385 . S
C162 C63 4.385 . S
C223 C82 4.385 . S
C103 C202 4.385 . S
C23 C122 4.385 . S
C183 C42 4.385 . S
C217 C17 0.722 1_556 S
C53 C13 2.873 1_455 S
C97 C57 0.722 . S
C93 C133 2.873 1_556 S
C177 C137 0.722 . S
C213 C173 2.873 1_565 S
