# Generated by pormake.
# Topology uop, (4)-cn, num edge types: 1
# Building blocks:
#     Node 0, Type 0, BuildingBlock: QUQFOY_clean_sbu_3, # of connection points: 4
#     Node 1, Type 0, BuildingBlock: QUQFOY_clean_sbu_3, # of connection points: 4
#     Node 2, Type 0, BuildingBlock: QUQFOY_clean_sbu_3, # of connection points: 4
#     Node 3, Type 0, BuildingBlock: QUQFOY_clean_sbu_3, # of connection points: 4
#     Node 4, Type 0, BuildingBlock: QUQFOY_clean_sbu_3, # of connection points: 4
#     Node 5, Type 0, BuildingBlock: QUQFOY_clean_sbu_3, # of connection points: 4
#     Node 6, Type 0, BuildingBlock: QUQFOY_clean_sbu_3, # of connection points: 4
#     Node 7, Type 0, BuildingBlock: QUQFOY_clean_sbu_3, # of connection points: 4
#     Node 8, Type 0, BuildingBlock: QUQFOY_clean_sbu_3, # of connection points: 4
#     Node 9, Type 0, BuildingBlock: QUQFOY_clean_sbu_3, # of connection points: 4
#     Node 10, Type 0, BuildingBlock: QUQFOY_clean_sbu_3, # of connection points: 4
#     Node 11, Type 0, BuildingBlock: QUQFOY_clean_sbu_3, # of connection points: 4
#     Edge 12, Type (0, 0), None
#     Edge 13, Type (0, 0), None
#     Edge 14, Type (0, 0), None
#     Edge 15, Type (0, 0), None
#     Edge 16, Type (0, 0), None
#     Edge 17, Type (0, 0), None
#     Edge 18, Type (0, 0), None
#     Edge 19, Type (0, 0), None
#     Edge 20, Type (0, 0), None
#     Edge 21, Type (0, 0), None
#     Edge 22, Type (0, 0), None
#     Edge 23, Type (0, 0), None
#     Edge 24, Type (0, 0), None
#     Edge 25, Type (0, 0), None
#     Edge 26, Type (0, 0), None
#     Edge 27, Type (0, 0), None
#     Edge 28, Type (0, 0), None
#     Edge 29, Type (0, 0), None
#     Edge 30, Type (0, 0), None
#     Edge 31, Type (0, 0), None
#     Edge 32, Type (0, 0), None
#     Edge 33, Type (0, 0), None
#     Edge 34, Type (0, 0), None
#     Edge 35, Type (0, 0), None
# Relax obj value: 0.155
# Max RMSD: 0.163
# Mean RMSD: 0.157
data_MOF--net-uop--node1-QUQFOY_clean_sbu_3--edge1-none
_symmetry_space_group_name_H-M    P1
_symmetry_Int_Tables_number       1
_symmetry_cell_setting            triclinic
loop_
_symmetry_equiv_pos_as_xyz
'x, y, z'
_cell_length_a     15.432297
_cell_length_b     15.859276
_cell_length_c     22.724456
_cell_angle_alpha  89.71366
_cell_angle_beta   90.3311
_cell_angle_gamma 119.06502
loop_
_atom_site_label
_atom_site_type_symbol
_atom_site_fract_x
_atom_site_fract_y
_atom_site_fract_z
_atom_type_partial_charge
C0 C -0.01017 0.20733 0.14891 0.0
O1 O 0.00874 0.2163 0.09435 0.0
Cd2 Cd 0.16404 0.35546 0.06771 0.0
O3 O 0.05743 0.25803 0.18526 0.0
Cd4 Cd 0.23461 0.36798 0.17737 0.0
C5 C 0.17283 0.53005 0.1605 0.0
O6 O 0.32155 0.36336 0.08907 0.0
O7 O 0.35838 0.50464 0.12089 0.0
O8 O 0.26365 0.2543 0.23575 0.0
C9 C 0.38505 0.45273 0.09243 0.0
O10 O 0.16478 0.4999 0.10778 0.0
C11 C 0.32066 0.31823 0.27181 0.0
O12 O 0.19097 0.48789 0.20245 0.0
O13 O 0.3361 0.40365 0.26418 0.0
C14 C 0.84073 0.29557 0.67719 0.0
O15 O 0.80243 0.34869 0.66546 0.0
Cd16 Cd 0.69301 0.32984 0.58507 0.0
O17 O 0.83055 0.22827 0.64284 0.0
Cd18 Cd 0.76363 0.18324 0.54269 0.0
C19 C 0.88886 0.41664 0.49928 0.0
O20 O 0.60106 0.16306 0.56282 0.0
O21 O 0.63816 0.16549 0.4712 0.0
O22 O 0.74434 0.02645 0.56473 0.0
C23 C 0.57351 0.15217 0.50956 0.0
O24 O 0.80959 0.42073 0.5079 0.0
C25 C 0.76521 0.01224 0.51303 0.0
O26 O 0.89313 0.34028 0.51153 0.0
O27 O 0.79774 0.08295 0.47738 0.0
C28 C 0.6959 0.77677 0.83025 0.0
O29 O 0.67082 0.77085 0.77655 0.0
Cd30 Cd 0.5355 0.79693 0.74568 0.0
O31 O 0.65406 0.80255 0.86835 0.0
Cd32 Cd 0.52038 0.84195 0.86493 0.0
C33 C 0.35647 0.62191 0.82771 0.0
O34 O 0.53696 0.94223 0.78025 0.0
O35 O 0.38811 0.85276 0.81264 0.0
O36 O 0.59626 -0.01517 0.92574 0.0
C37 C 0.44874 0.92809 0.78498 0.0
O38 O 0.38359 0.65112 0.77529 0.0
C39 C 0.54661 0.94316 0.97125 0.0
O40 O 0.40075 0.67529 0.87133 0.0
O41 O 0.48306 0.85451 0.96732 0.0
C42 C 0.88651 0.72879 0.14945 0.0
O43 O 0.86694 0.71995 0.09488 0.0
Cd44 Cd 0.71129 0.58141 0.0679 0.0
O45 O 0.81931 0.67807 0.18586 0.0
Cd46 Cd 0.64191 0.56761 0.17801 0.0
C47 C 0.70333 0.40543 0.16022 0.0
O48 O 0.55442 0.57379 0.0896 0.0
O49 O 0.51768 0.43192 0.121 0.0
O50 O 0.61195 0.6794 0.23693 0.0
C51 C 0.49096 0.48437 0.09262 0.0
O52 O 0.71058 0.43617 0.10754 0.0
C53 C 0.55537 0.61454 0.27265 0.0
O54 O 0.68608 0.44727 0.20231 0.0
O55 O 0.54084 0.52956 0.26476 0.0
C56 C 0.0345 0.6378 0.67697 0.0
O57 O 0.07864 0.58899 0.66909 0.0
Cd58 Cd 0.18282 0.60256 0.58766 0.0
O59 O 0.03759 0.6982 0.63888 0.0
Cd60 Cd 0.10368 0.74331 0.53868 0.0
C61 C -0.01817 0.50781 0.50064 0.0
O62 O 0.26735 0.76692 0.55958 0.0
O63 O 0.22891 0.76118 0.46767 0.0
O64 O 0.1204 0.89865 0.56079 0.0
C65 C 0.29401 0.77558 0.50635 0.0
O66 O 0.05942 0.50351 0.51516 0.0
C67 C 0.1006 0.91397 0.50884 0.0
O68 O -0.02328 0.5849 0.50785 0.0
O69 O 0.06938 0.84416 0.47279 0.0
C70 C 0.18315 0.16091 0.82975 0.0
O71 O 0.20781 0.16738 0.77609 0.0
Cd72 Cd 0.34278 0.14134 0.74569 0.0
O73 O 0.22517 0.1346 0.86791 0.0
Cd74 Cd 0.35836 0.09481 0.86507 0.0
C75 C 0.52209 0.31532 0.82834 0.0
O76 O 0.34148 -0.00441 0.78028 0.0
O77 O 0.49033 0.08394 0.81366 0.0
O78 O 0.2814 0.9514 0.92578 0.0
C79 C 0.42964 0.00949 0.78537 0.0
O80 O 0.4946 0.28678 0.77585 0.0
C81 C 0.33082 -0.00744 0.97155 0.0
O82 O 0.4782 0.26136 0.87184 0.0
O83 O 0.39503 0.08103 0.96773 0.0
C84 C 0.51164 0.63661 0.3227 0.0
O85 O 0.41946 0.58487 0.33205 0.0
Cd86 Cd 0.32703 0.60028 0.4119 0.0
O87 O 0.56813 0.70079 0.35908 0.0
Cd88 Cd 0.54403 0.74383 0.45904 0.0
C89 C 0.43294 0.50898 0.49965 0.0
O90 O 0.40271 0.76568 0.43731 0.0
O91 O 0.4356 0.76101 0.52933 0.0
O92 O 0.68219 0.90024 0.43826 0.0
C93 C 0.3849 0.77508 0.49044 0.0
O94 O 0.35031 0.50494 0.48775 0.0
C95 C 0.71621 0.91414 0.49041 0.0
O96 O 0.51438 0.58572 0.49003 0.0
O97 O 0.67722 0.84338 0.52596 0.0
C98 C 0.75185 0.72931 0.85036 0.0
O99 O 0.76178 0.71964 0.90496 0.0
Cd100 Cd 0.77896 0.58088 0.93204 0.0
O101 O 0.76894 0.67919 0.81394 0.0
Cd102 Cd 0.83549 0.5684 0.82185 0.0
C103 C 0.61184 0.40625 0.83939 0.0
O104 O 0.92829 0.57334 0.91032 0.0
O105 O 0.8236 0.43194 0.87869 0.0
O106 O -0.02163 0.68001 0.76343 0.0
C107 C 0.90255 0.48398 0.90714 0.0
O108 O 0.63488 0.43622 0.89214 0.0
C109 C -0.03098 0.61557 0.7272 0.0
O110 O 0.67124 0.44861 0.79741 0.0
O111 O 0.8976 0.53097 0.73465 0.0
C112 C -0.01016 0.77611 0.16944 0.0
O113 O 0.009 0.7697 0.22309 0.0
Cd114 Cd 0.17043 0.79564 0.25362 0.0
O115 O 0.05744 0.80227 0.13123 0.0
Cd116 Cd 0.23045 0.84142 0.13433 0.0
C117 C 0.17409 0.62101 0.17147 0.0
O118 O 0.31427 0.9411 0.21887 0.0
O119 O 0.37348 0.8516 0.18635 0.0
O120 O 0.29748 -0.01552 0.07325 0.0
C121 C 0.38825 0.9268 0.21401 0.0
O122 O 0.17632 0.64987 0.22391 0.0
C123 C 0.3055 0.94289 0.02782 0.0
O124 O 0.18322 0.67477 0.12788 0.0
O125 O 0.28036 0.8542 0.03191 0.0
C126 C 0.36279 0.29441 0.32237 0.0
O127 O 0.45487 0.34509 0.33278 0.0
Cd128 Cd 0.5439 0.32755 0.4145 0.0
O129 O 0.30484 0.23031 0.35831 0.0
Cd130 Cd 0.32405 0.18358 0.4587 0.0
C131 C 0.43486 0.41778 0.49985 0.0
O132 O 0.46524 0.16165 0.43931 0.0
O133 O 0.4306 0.16482 0.53086 0.0
O134 O 0.1863 0.02802 0.43542 0.0
C135 C 0.48217 0.15155 0.49268 0.0
O136 O 0.51772 0.42209 0.48885 0.0
C137 C 0.15018 0.01267 0.4869 0.0
O138 O 0.35351 0.34119 0.48964 0.0
O139 O 0.18796 0.08239 0.52307 0.0
C140 C 0.12743 0.20815 0.84981 0.0
O141 O 0.11696 0.21625 0.90439 0.0
Cd142 Cd 0.10092 0.35524 0.93134 0.0
O143 O 0.11088 0.25946 0.81357 0.0
Cd144 Cd 0.0431 0.36901 0.82169 0.0
C145 C 0.26673 0.53091 0.83858 0.0
O146 O -0.04871 0.36309 0.91017 0.0
O147 O 0.05542 0.50486 0.87845 0.0
O148 O 0.90106 0.25525 0.76334 0.0
C149 C -0.02304 0.45248 0.90698 0.0
O150 O 0.24451 0.50009 0.89127 0.0
C151 C 0.90709 0.31935 0.72749 0.0
O152 O 0.20659 0.48935 0.79662 0.0
O153 O -0.02366 0.40498 0.7352 0.0
C154 C 0.88679 0.15978 0.16894 0.0
O155 O 0.86835 0.16537 0.22264 0.0
Cd156 Cd 0.7073 0.13912 0.25316 0.0
O157 O 0.8187 0.13414 0.13078 0.0
Cd158 Cd 0.64561 0.09414 0.13385 0.0
C159 C 0.70213 0.31429 0.17102 0.0
O160 O 0.56292 -0.00606 0.21854 0.0
O161 O 0.50264 0.08287 0.18535 0.0
O162 O 0.57944 0.95117 0.07321 0.0
C163 C 0.48875 0.00805 0.21353 0.0
O164 O 0.701 0.28508 0.22344 0.0
C165 C 0.57105 -0.00741 0.02745 0.0
O166 O 0.69211 0.26083 0.12739 0.0
O167 O 0.59523 0.08105 0.03121 0.0
loop_
_geom_bond_atom_site_label_1
_geom_bond_atom_site_label_2
_geom_bond_distance
_geom_bond_site_symmetry_2
_ccdc_geom_bond_type
C0 O1 1.306 . S
C0 O3 1.160 . S
O1 C0 1.306 . S
O1 Cd2 2.228 . S
Cd2 O1 2.228 . S
Cd2 O6 2.273 . S
Cd2 O10 2.277 . S
O3 C0 1.160 . S
O3 Cd4 2.203 . S
Cd4 O3 2.203 . S
Cd4 O6 2.411 . S
Cd4 O7 2.333 . S
Cd4 O8 2.352 . S
Cd4 O12 2.277 . S
Cd4 O13 2.356 . S
C5 O10 1.209 . S
C5 O12 1.226 . S
O6 Cd2 2.273 . S
O6 Cd4 2.411 . S
O6 C9 1.320 . S
O7 Cd4 2.333 . S
O7 C9 1.214 . S
O8 Cd4 2.352 . S
O8 C11 1.258 . S
C9 O6 1.320 . S
C9 O7 1.214 . S
O10 Cd2 2.277 . S
O10 C5 1.209 . S
C11 O8 1.258 . S
C11 O13 1.282 . S
O12 Cd4 2.277 . S
O12 C5 1.226 . S
O13 Cd4 2.356 . S
O13 C11 1.282 . S
C14 O15 1.306 . S
C14 O17 1.160 . S
O15 C14 1.306 . S
O15 Cd16 2.228 . S
Cd16 O15 2.228 . S
Cd16 O20 2.273 . S
Cd16 O24 2.277 . S
O17 C14 1.160 . S
O17 Cd18 2.203 . S
Cd18 O17 2.203 . S
Cd18 O20 2.411 . S
Cd18 O21 2.333 . S
Cd18 O22 2.352 . S
Cd18 O26 2.277 1_655 S
Cd18 O27 2.356 . S
C19 O24 1.209 1_455 S
C19 O26 1.226 . S
O20 Cd16 2.273 . S
O20 Cd18 2.411 . S
O20 C23 1.320 . S
O21 Cd18 2.333 . S
O21 C23 1.214 . S
O22 Cd18 2.352 . S
O22 C25 1.258 . S
C23 O20 1.320 . S
C23 O21 1.214 . S
O24 Cd16 2.277 . S
O24 C19 1.209 1_655 S
C25 O22 1.258 . S
C25 O27 1.282 . S
O26 Cd18 2.277 1_455 S
O26 C19 1.226 . S
O27 Cd18 2.356 . S
O27 C25 1.282 . S
C28 O29 1.306 . S
C28 O31 1.160 . S
O29 C28 1.306 . S
O29 Cd30 2.228 . S
Cd30 O29 2.228 . S
Cd30 O34 2.273 . S
Cd30 O38 2.277 . S
O31 C28 1.160 . S
O31 Cd32 2.203 . S
Cd32 O31 2.203 . S
Cd32 O34 2.411 . S
Cd32 O35 2.333 . S
Cd32 O36 2.352 1_565 S
Cd32 O40 2.277 . S
Cd32 O41 2.356 . S
C33 O38 1.209 . S
C33 O40 1.226 . S
O34 Cd30 2.273 . S
O34 Cd32 2.411 . S
O34 C37 1.320 1_565 S
O35 Cd32 2.333 . S
O35 C37 1.214 1_565 S
O36 Cd32 2.352 1_545 S
O36 C39 1.258 1_545 S
C37 O34 1.320 1_545 S
C37 O35 1.214 1_545 S
O38 Cd30 2.277 . S
O38 C33 1.209 . S
C39 O36 1.258 1_565 S
C39 O41 1.282 . S
O40 Cd32 2.277 . S
O40 C33 1.226 . S
O41 Cd32 2.356 . S
O41 C39 1.282 . S
C42 O43 1.306 . S
C42 O45 1.160 . S
O43 C42 1.306 . S
O43 Cd44 2.228 . S
Cd44 O43 2.228 . S
Cd44 O48 2.273 . S
Cd44 O52 2.277 . S
O45 C42 1.160 . S
O45 Cd46 2.203 . S
Cd46 O45 2.203 . S
Cd46 O48 2.411 . S
Cd46 O49 2.333 . S
Cd46 O50 2.352 . S
Cd46 O54 2.277 . S
Cd46 O55 2.356 . S
C47 O52 1.209 . S
C47 O54 1.226 . S
O48 Cd44 2.273 . S
O48 Cd46 2.411 . S
O48 C51 1.320 . S
O49 Cd46 2.333 . S
O49 C51 1.214 . S
O50 Cd46 2.352 . S
O50 C53 1.258 . S
C51 O48 1.320 . S
C51 O49 1.214 . S
O52 Cd44 2.277 . S
O52 C47 1.209 . S
C53 O50 1.258 . S
C53 O55 1.282 . S
O54 Cd46 2.277 . S
O54 C47 1.226 . S
O55 Cd46 2.356 . S
O55 C53 1.282 . S
C56 O57 1.306 . S
C56 O59 1.160 . S
O57 C56 1.306 . S
O57 Cd58 2.228 . S
Cd58 O57 2.228 . S
Cd58 O62 2.273 . S
Cd58 O66 2.277 . S
O59 C56 1.160 . S
O59 Cd60 2.203 . S
Cd60 O59 2.203 . S
Cd60 O62 2.411 . S
Cd60 O63 2.333 . S
Cd60 O64 2.352 . S
Cd60 O68 2.277 1_455 S
Cd60 O69 2.356 . S
C61 O66 1.209 1_655 S
C61 O68 1.226 . S
O62 Cd58 2.273 . S
O62 Cd60 2.411 . S
O62 C65 1.320 . S
O63 Cd60 2.333 . S
O63 C65 1.214 . S
O64 Cd60 2.352 . S
O64 C67 1.258 . S
C65 O62 1.320 . S
C65 O63 1.214 . S
O66 Cd58 2.277 . S
O66 C61 1.209 1_455 S
C67 O64 1.258 . S
C67 O69 1.282 . S
O68 Cd60 2.277 1_655 S
O68 C61 1.226 . S
O69 Cd60 2.356 . S
O69 C67 1.282 . S
C70 O71 1.306 . S
C70 O73 1.160 . S
O71 C70 1.306 . S
O71 Cd72 2.228 . S
Cd72 O71 2.228 . S
Cd72 O76 2.273 . S
Cd72 O80 2.277 . S
O73 C70 1.160 . S
O73 Cd74 2.203 . S
Cd74 O73 2.203 . S
Cd74 O76 2.411 . S
Cd74 O77 2.333 . S
Cd74 O78 2.352 1_545 S
Cd74 O82 2.277 . S
Cd74 O83 2.356 . S
C75 O80 1.209 . S
C75 O82 1.226 . S
O76 Cd72 2.273 . S
O76 Cd74 2.411 . S
O76 C79 1.320 1_545 S
O77 Cd74 2.333 . S
O77 C79 1.214 1_545 S
O78 Cd74 2.352 1_565 S
O78 C81 1.258 1_565 S
C79 O76 1.320 1_565 S
C79 O77 1.214 1_565 S
O80 Cd72 2.277 . S
O80 C75 1.209 . S
C81 O78 1.258 1_545 S
C81 O83 1.282 . S
O82 Cd74 2.277 . S
O82 C75 1.226 . S
O83 Cd74 2.356 . S
O83 C81 1.282 . S
C84 O85 1.306 . S
C84 O87 1.160 . S
O85 C84 1.306 . S
O85 Cd86 2.228 . S
Cd86 O85 2.228 . S
Cd86 O90 2.273 . S
Cd86 O94 2.277 . S
O87 C84 1.160 . S
O87 Cd88 2.203 . S
Cd88 O87 2.203 . S
Cd88 O90 2.411 . S
Cd88 O91 2.333 . S
Cd88 O92 2.352 . S
Cd88 O96 2.277 . S
Cd88 O97 2.356 . S
C89 O94 1.209 . S
C89 O96 1.226 . S
O90 Cd86 2.273 . S
O90 Cd88 2.411 . S
O90 C93 1.320 . S
O91 Cd88 2.333 . S
O91 C93 1.214 . S
O92 Cd88 2.352 . S
O92 C95 1.258 . S
C93 O90 1.320 . S
C93 O91 1.214 . S
O94 Cd86 2.277 . S
O94 C89 1.209 . S
C95 O92 1.258 . S
C95 O97 1.282 . S
O96 Cd88 2.277 . S
O96 C89 1.226 . S
O97 Cd88 2.356 . S
O97 C95 1.282 . S
C98 O99 1.306 . S
C98 O101 1.160 . S
O99 C98 1.306 . S
O99 Cd100 2.228 . S
Cd100 O99 2.228 . S
Cd100 O104 2.273 . S
Cd100 O108 2.277 . S
O101 C98 1.160 . S
O101 Cd102 2.203 . S
Cd102 O101 2.203 . S
Cd102 O104 2.411 . S
Cd102 O105 2.333 . S
Cd102 O106 2.352 1_655 S
Cd102 O110 2.277 . S
Cd102 O111 2.356 . S
C103 O108 1.209 . S
C103 O110 1.226 . S
O104 Cd100 2.273 . S
O104 Cd102 2.411 . S
O104 C107 1.320 1_655 S
O105 Cd102 2.333 . S
O105 C107 1.214 1_655 S
O106 Cd102 2.352 1_455 S
O106 C109 1.258 1_455 S
C107 O104 1.320 1_455 S
C107 O105 1.214 1_455 S
O108 Cd100 2.277 . S
O108 C103 1.209 . S
C109 O106 1.258 1_655 S
C109 O111 1.282 . S
O110 Cd102 2.277 . S
O110 C103 1.226 . S
O111 Cd102 2.356 . S
O111 C109 1.282 . S
C112 O113 1.306 . S
C112 O115 1.160 . S
O113 C112 1.306 . S
O113 Cd114 2.228 . S
Cd114 O113 2.228 . S
Cd114 O118 2.273 . S
Cd114 O122 2.277 . S
O115 C112 1.160 . S
O115 Cd116 2.203 . S
Cd116 O115 2.203 . S
Cd116 O118 2.411 . S
Cd116 O119 2.333 . S
Cd116 O120 2.352 1_565 S
Cd116 O124 2.277 . S
Cd116 O125 2.356 . S
C117 O122 1.209 . S
C117 O124 1.226 . S
O118 Cd114 2.273 . S
O118 Cd116 2.411 . S
O118 C121 1.320 1_565 S
O119 Cd116 2.333 . S
O119 C121 1.214 1_565 S
O120 Cd116 2.352 1_545 S
O120 C123 1.258 1_545 S
C121 O118 1.320 1_545 S
C121 O119 1.214 1_545 S
O122 Cd114 2.277 . S
O122 C117 1.209 . S
C123 O120 1.258 1_565 S
C123 O125 1.282 . S
O124 Cd116 2.277 . S
O124 C117 1.226 . S
O125 Cd116 2.356 . S
O125 C123 1.282 . S
C126 O127 1.306 . S
C126 O129 1.160 . S
O127 C126 1.306 . S
O127 Cd128 2.228 . S
Cd128 O127 2.228 . S
Cd128 O132 2.273 . S
Cd128 O136 2.277 . S
O129 C126 1.160 . S
O129 Cd130 2.203 . S
Cd130 O129 2.203 . S
Cd130 O132 2.411 . S
Cd130 O133 2.333 . S
Cd130 O134 2.352 . S
Cd130 O138 2.277 . S
Cd130 O139 2.356 . S
C131 O136 1.209 . S
C131 O138 1.226 . S
O132 Cd128 2.273 . S
O132 Cd130 2.411 . S
O132 C135 1.320 . S
O133 Cd130 2.333 . S
O133 C135 1.214 . S
O134 Cd130 2.352 . S
O134 C137 1.258 . S
C135 O132 1.320 . S
C135 O133 1.214 . S
O136 Cd128 2.277 . S
O136 C131 1.209 . S
C137 O134 1.258 . S
C137 O139 1.282 . S
O138 Cd130 2.277 . S
O138 C131 1.226 . S
O139 Cd130 2.356 . S
O139 C137 1.282 . S
C140 O141 1.306 . S
C140 O143 1.160 . S
O141 C140 1.306 . S
O141 Cd142 2.228 . S
Cd142 O141 2.228 . S
Cd142 O146 2.273 . S
Cd142 O150 2.277 . S
O143 C140 1.160 . S
O143 Cd144 2.203 . S
Cd144 O143 2.203 . S
Cd144 O146 2.411 . S
Cd144 O147 2.333 . S
Cd144 O148 2.352 1_455 S
Cd144 O152 2.277 . S
Cd144 O153 2.356 . S
C145 O150 1.209 . S
C145 O152 1.226 . S
O146 Cd142 2.273 . S
O146 Cd144 2.411 . S
O146 C149 1.320 1_455 S
O147 Cd144 2.333 . S
O147 C149 1.214 1_455 S
O148 Cd144 2.352 1_655 S
O148 C151 1.258 1_655 S
C149 O146 1.320 1_655 S
C149 O147 1.214 1_655 S
O150 Cd142 2.277 . S
O150 C145 1.209 . S
C151 O148 1.258 1_455 S
C151 O153 1.282 . S
O152 Cd144 2.277 . S
O152 C145 1.226 . S
O153 Cd144 2.356 . S
O153 C151 1.282 . S
C154 O155 1.306 . S
C154 O157 1.160 . S
O155 C154 1.306 . S
O155 Cd156 2.228 . S
Cd156 O155 2.228 . S
Cd156 O160 2.273 . S
Cd156 O164 2.277 . S
O157 C154 1.160 . S
O157 Cd158 2.203 . S
Cd158 O157 2.203 . S
Cd158 O160 2.411 . S
Cd158 O161 2.333 . S
Cd158 O162 2.352 1_545 S
Cd158 O166 2.277 . S
Cd158 O167 2.356 . S
C159 O164 1.209 . S
C159 O166 1.226 . S
O160 Cd156 2.273 . S
O160 Cd158 2.411 . S
O160 C163 1.320 1_545 S
O161 Cd158 2.333 . S
O161 C163 1.214 1_545 S
O162 Cd158 2.352 1_565 S
O162 C165 1.258 1_565 S
C163 O160 1.320 1_565 S
C163 O161 1.214 1_565 S
O164 Cd156 2.277 . S
O164 C159 1.209 . S
C165 O162 1.258 1_545 S
C165 O167 1.282 . S
O166 Cd158 2.277 . S
O166 C159 1.226 . S
O167 Cd158 2.356 . S
O167 C165 1.282 . S
C117 C5 1.902 . S
C23 C135 1.824 . S
C33 C145 1.902 . S
C47 C159 1.902 . S
C93 C65 1.824 . S
C75 C103 1.902 . S
C51 C9 1.474 . S
C61 C19 1.467 1_655 S
C79 C37 1.622 1_565 S
C89 C131 1.466 . S
C107 C149 1.474 1_455 S
C121 C163 1.622 1_545 S
C11 C126 1.560 . S
C14 C151 1.560 1_655 S
C39 C165 1.587 1_566 S
C84 C53 1.560 . S
C56 C109 1.560 1_455 S
C123 C81 1.587 1_564 S
C154 C0 1.956 1_655 S
C25 C95 1.801 1_545 S
C98 C28 1.956 . S
C42 C112 1.956 1_655 S
C67 C137 1.801 1_565 S
C140 C70 1.956 . S
