# Generated by pormake.
# Topology vmf, (6)-cn, num edge types: 1
# Building blocks:
#     Node 0, Type 0, BuildingBlock: IZENUY_clean_sbu_0, # of connection points: 6
#     Node 1, Type 0, BuildingBlock: IZENUY_clean_sbu_0, # of connection points: 6
#     Node 2, Type 0, BuildingBlock: IZENUY_clean_sbu_0, # of connection points: 6
#     Node 3, Type 0, BuildingBlock: IZENUY_clean_sbu_0, # of connection points: 6
#     Node 4, Type 0, BuildingBlock: IZENUY_clean_sbu_0, # of connection points: 6
#     Node 5, Type 0, BuildingBlock: IZENUY_clean_sbu_0, # of connection points: 6
#     Node 6, Type 0, BuildingBlock: IZENUY_clean_sbu_0, # of connection points: 6
#     Node 7, Type 0, BuildingBlock: IZENUY_clean_sbu_0, # of connection points: 6
#     Edge 8, Type (0, 0), None
#     Edge 9, Type (0, 0), None
#     Edge 10, Type (0, 0), None
#     Edge 11, Type (0, 0), None
#     Edge 12, Type (0, 0), None
#     Edge 13, Type (0, 0), None
#     Edge 14, Type (0, 0), None
#     Edge 15, Type (0, 0), None
#     Edge 16, Type (0, 0), None
#     Edge 17, Type (0, 0), None
#     Edge 18, Type (0, 0), None
#     Edge 19, Type (0, 0), None
#     Edge 20, Type (0, 0), None
#     Edge 21, Type (0, 0), None
#     Edge 22, Type (0, 0), None
#     Edge 23, Type (0, 0), None
#     Edge 24, Type (0, 0), None
#     Edge 25, Type (0, 0), None
#     Edge 26, Type (0, 0), None
#     Edge 27, Type (0, 0), None
#     Edge 28, Type (0, 0), None
#     Edge 29, Type (0, 0), None
#     Edge 30, Type (0, 0), None
#     Edge 31, Type (0, 0), None
# Relax obj value: 0.281
# Max RMSD: 0.266
# Mean RMSD: 0.266
data_MOF--net-vmf--node1-IZENUY_clean_sbu_0--edge1-none
_symmetry_space_group_name_H-M    P1
_symmetry_Int_Tables_number       1
_symmetry_cell_setting            triclinic
loop_
_symmetry_equiv_pos_as_xyz
'x, y, z'
_cell_length_a     13.632458
_cell_length_b     20.699411
_cell_length_c     13.046686
_cell_angle_alpha  89.999986
_cell_angle_beta   112.28412
_cell_angle_gamma 89.999991
loop_
_atom_site_label
_atom_site_type_symbol
_atom_site_fract_x
_atom_site_fract_y
_atom_site_fract_z
_atom_type_partial_charge
Fe0 Fe 0.29917 0.39667 0.20933 0.0
Fe1 Fe 0.26133 0.2617 0.29585 0.0
O2 O 0.23868 0.34752 0.28435 0.0
Fe3 Fe 0.14962 0.38314 0.33745 0.0
O4 O 0.08049 0.43219 0.20858 0.0
O5 O 0.17188 0.41573 0.10288 0.0
O6 O 0.30803 0.33541 0.12199 0.0
C7 C 0.26802 0.28127 0.09707 0.0
C8 C 0.28157 0.48778 0.36289 0.0
O9 O 0.21607 0.25424 0.14737 0.0
C10 C 0.26411 0.28355 0.50162 0.0
O11 O 0.43421 0.3763 0.30333 0.0
O12 O 0.3965 0.2721 0.30646 0.0
O13 O 0.23822 0.44938 0.40799 0.0
O14 O 0.30119 0.47087 0.28075 0.0
C15 C 0.05178 0.26658 0.29231 0.0
O16 O 0.31058 0.26063 0.44336 0.0
O17 O 0.20319 0.33365 0.46982 0.0
C18 C 0.46205 0.31708 0.31403 0.0
O19 O 0.1308 0.23417 0.29445 0.0
O20 O 0.04825 0.32563 0.27303 0.0
C21 C 0.08669 0.43095 0.11263 0.0
Fe22 Fe 0.77594 0.39667 0.91144 0.0
Fe23 Fe 0.81378 0.2617 0.82492 0.0
O24 O 0.83643 0.34752 0.83641 0.0
Fe25 Fe 0.9255 0.38314 0.78331 0.0
O26 O 0.99463 0.43219 0.91218 0.0
O27 O 0.90322 0.41573 1.01788 0.0
O28 O 0.76709 0.33541 0.99877 0.0
C29 C 0.80709 0.28128 1.02369 0.0
C30 C 0.79355 0.48778 0.75787 0.0
O31 O 0.85905 0.25424 0.9734 0.0
C32 C 0.811 0.28355 0.61915 0.0
O33 O 0.6409 0.3763 0.81743 0.0
O34 O 0.67861 0.2721 0.8143 0.0
O35 O 0.8369 0.44938 0.71277 0.0
O36 O 0.77391 0.47087 0.84001 0.0
C37 C 1.02333 0.26658 0.82846 0.0
O38 O 0.76454 0.26063 0.6774 0.0
O39 O 0.87192 0.33365 0.65094 0.0
C40 C 0.61306 0.31708 0.80673 0.0
O41 O 0.94432 0.23417 0.82632 0.0
O42 O 1.02687 0.32563 0.84773 0.0
C43 C 0.98841 0.43096 1.00813 0.0
Fe44 Fe 0.82515 0.78419 0.83726 0.0
Fe45 Fe 0.77036 0.64411 0.88945 0.0
O46 O 0.83665 0.69962 0.83107 0.0
Fe47 Fe 0.92407 0.66807 0.77325 0.0
O48 O 0.99348 0.73781 0.76077 0.0
O49 O 0.96449 0.80698 0.86572 0.0
O50 O 0.86049 0.77911 0.98308 0.0
C51 C 0.81076 0.74701 1.03028 0.0
C52 C 0.79002 0.75344 0.61271 0.0
O53 O 0.78347 0.68992 1.00808 0.0
C54 C 0.7968 0.55809 0.74425 0.0
O55 O 0.68595 0.78077 0.8153 0.0
O56 O 0.63819 0.67929 0.8216 0.0
O57 O 0.82791 0.69435 0.63399 0.0
O58 O 0.78866 0.79249 0.68794 0.0
C59 C 0.99647 0.62651 0.99896 0.0
O60 O 0.73356 0.59056 0.77067 0.0
O61 O 0.88423 0.58317 0.75991 0.0
C62 C 0.61837 0.73918 0.81598 0.0
O63 O 0.90113 0.60586 0.97644 0.0
O64 O 1.02028 0.65135 0.91975 0.0
C65 C 1.01075 0.79197 0.80245 0.0
Fe66 Fe 0.30476 0.64411 0.23132 0.0
Fe67 Fe 0.15104 0.66807 0.34751 0.0
O68 O 0.23847 0.69962 0.2897 0.0
Fe69 Fe 0.24996 0.78419 0.2835 0.0
O70 O 0.21462 0.77911 0.13768 0.0
O71 O 0.29164 0.68992 0.11268 0.0
O72 O 0.17399 0.60586 0.14432 0.0
C73 C 0.07865 0.62651 0.12181 0.0
C74 C 0.45675 0.73918 0.30479 0.0
O75 O 0.05484 0.65135 0.20101 0.0
C76 C 0.28509 0.75344 0.50805 0.0
O77 O 0.34156 0.59056 0.35009 0.0
O78 O 0.19088 0.58317 0.36085 0.0
O79 O 0.38916 0.78077 0.30546 0.0
O80 O 0.43692 0.67929 0.29916 0.0
C81 C 0.06436 0.79197 0.31831 0.0
O82 O 0.24721 0.69435 0.48678 0.0
O83 O 0.28646 0.79249 0.43282 0.0
C84 C 0.27831 0.55809 0.37651 0.0
O85 O 0.08163 0.73781 0.35999 0.0
O86 O 0.11062 0.80698 0.25505 0.0
C87 C 0.26435 0.74701 0.09049 0.0
Fe88 Fe 0.79917 0.89668 0.20931 0.0
Fe89 Fe 0.76131 0.7617 0.29579 0.0
O90 O 0.73867 0.84752 0.28433 0.0
Fe91 Fe 0.64962 0.88314 0.33744 0.0
O92 O 0.58048 0.9322 0.20858 0.0
O93 O 0.67188 0.91576 0.10288 0.0
O94 O 0.80798 0.83542 0.12196 0.0
C95 C 0.76783 0.78133 0.09694 0.0
C96 C 0.78157 0.98778 0.3629 0.0
O97 O 0.71598 0.75425 0.14731 0.0
C98 C 0.76414 0.78354 0.50158 0.0
O99 O 0.93419 0.87629 0.30331 0.0
O100 O 0.89647 0.77209 0.30633 0.0
O101 O 0.73822 0.94937 0.40799 0.0
O102 O 0.80121 0.97087 0.28076 0.0
C103 C 0.55179 0.76658 0.29232 0.0
O104 O 0.81061 0.76063 0.44331 0.0
O105 O 0.70322 0.83364 0.4698 0.0
C106 C 0.96202 0.81708 0.31397 0.0
O107 O 0.6308 0.73417 0.29445 0.0
O108 O 0.54824 0.82563 0.27303 0.0
C109 C 0.58668 0.93097 0.11263 0.0
Fe110 Fe 0.3138 0.7617 0.82497 0.0
Fe111 Fe 0.4255 0.88314 0.78332 0.0
O112 O 0.33644 0.84752 0.83644 0.0
Fe113 Fe 0.27594 0.89668 0.91145 0.0
O114 O 0.26714 0.83542 0.99881 0.0
O115 O 0.35914 0.75425 0.97346 0.0
O116 O 0.44432 0.73417 0.82631 0.0
C117 C 0.52333 0.76658 0.82844 0.0
C118 C 0.11309 0.81708 0.80679 0.0
O119 O 0.52687 0.82563 0.84773 0.0
C120 C 0.29354 0.98778 0.75786 0.0
O121 O 0.26451 0.76063 0.67746 0.0
O122 O 0.37189 0.83364 0.65096 0.0
O123 O 0.14092 0.87629 0.81744 0.0
O124 O 0.17865 0.77209 0.81443 0.0
C125 C 0.48841 0.93098 1.00812 0.0
O126 O 0.33691 0.94937 0.71278 0.0
O127 O 0.2739 0.97087 0.83999 0.0
C128 C 0.31097 0.78354 0.61918 0.0
O129 O 0.49464 0.93219 0.91218 0.0
O130 O 0.40322 0.91576 1.01788 0.0
C131 C 0.30728 0.78133 1.02382 0.0
Fe132 Fe 0.32518 0.2842 0.83731 0.0
Fe133 Fe 0.27034 0.14411 0.88942 0.0
O134 O 0.33665 0.19962 0.83108 0.0
Fe135 Fe 0.42406 0.16806 0.77324 0.0
O136 O 0.49348 0.23779 0.76075 0.0
O137 O 0.46449 0.30702 0.86568 0.0
O138 O 0.36059 0.27909 0.98315 0.0
C139 C 0.31097 0.24696 1.03042 0.0
C140 C 0.28995 0.25344 0.61274 0.0
O141 O 0.28343 0.18993 1.00803 0.0
C142 C 0.29679 0.05809 0.74424 0.0
O143 O 0.186 0.28077 0.81545 0.0
O144 O 0.13818 0.17929 0.82155 0.0
O145 O 0.32788 0.19436 0.634 0.0
O146 O 0.28861 0.29249 0.68798 0.0
C147 C 0.49646 0.1265 0.99895 0.0
O148 O 0.23355 0.09056 0.77065 0.0
O149 O 0.38423 0.08316 0.75991 0.0
C150 C 0.11838 0.23918 0.81601 0.0
O151 O 0.40111 0.10586 0.97644 0.0
O152 O 0.52027 0.15134 0.91974 0.0
C153 C 0.51075 0.29194 0.80245 0.0
Fe154 Fe 0.74994 0.2842 0.28345 0.0
Fe155 Fe 0.80477 0.14411 0.23134 0.0
O156 O 0.73846 0.19962 0.28969 0.0
Fe157 Fe 0.65106 0.16806 0.34752 0.0
O158 O 0.58163 0.23779 0.36001 0.0
O159 O 0.61062 0.30702 0.25509 0.0
O160 O 0.71452 0.27909 0.13762 0.0
C161 C 0.76414 0.24696 0.09034 0.0
C162 C 0.78516 0.25344 0.50802 0.0
O163 O 0.79169 0.18993 0.11273 0.0
C164 C 0.77832 0.05809 0.37653 0.0
O165 O 0.88911 0.28077 0.30531 0.0
O166 O 0.93694 0.17929 0.29921 0.0
O167 O 0.74723 0.19436 0.48677 0.0
O168 O 0.7865 0.29249 0.43278 0.0
C169 C 0.57866 0.1265 0.12181 0.0
O170 O 0.84157 0.09056 0.35011 0.0
O171 O 0.69089 0.08316 0.36086 0.0
C172 C 0.95673 0.23918 0.30475 0.0
O173 O 0.67401 0.10586 0.14432 0.0
O174 O 0.55484 0.15134 0.20102 0.0
C175 C 0.56436 0.29195 0.31832 0.0
loop_
_geom_bond_atom_site_label_1
_geom_bond_atom_site_label_2
_geom_bond_distance
_geom_bond_site_symmetry_2
_ccdc_geom_bond_type
Fe0 O2 1.918 . S
Fe0 O5 1.997 . S
Fe0 O6 2.002 . S
Fe0 O11 1.976 . S
Fe0 O14 1.996 . S
Fe1 O2 1.918 . S
Fe1 O9 1.997 . S
Fe1 O12 1.996 . S
Fe1 O16 1.976 . S
Fe1 O19 2.002 . S
O2 Fe0 1.918 . S
O2 Fe1 1.918 . S
O2 Fe3 1.918 . S
Fe3 O2 1.918 . S
Fe3 O4 2.002 . S
Fe3 O13 1.976 . S
Fe3 O17 1.996 . S
Fe3 O20 1.997 . S
O4 Fe3 2.002 . S
O4 C21 1.295 . S
O5 Fe0 1.997 . S
O5 C21 1.235 . S
O6 Fe0 2.002 . S
O6 C7 1.295 . S
C7 O6 1.295 . S
C7 O9 1.235 . S
C8 O13 1.287 . S
C8 O14 1.255 . S
O9 Fe1 1.997 . S
O9 C7 1.235 . S
C10 O16 1.287 . S
C10 O17 1.255 . S
O11 Fe0 1.976 . S
O11 C18 1.287 . S
O12 Fe1 1.996 . S
O12 C18 1.255 . S
O13 Fe3 1.976 . S
O13 C8 1.287 . S
O14 Fe0 1.996 . S
O14 C8 1.255 . S
C15 O19 1.295 . S
C15 O20 1.235 . S
O16 Fe1 1.976 . S
O16 C10 1.287 . S
O17 Fe3 1.996 . S
O17 C10 1.255 . S
C18 O11 1.287 . S
C18 O12 1.255 . S
O19 Fe1 2.002 . S
O19 C15 1.295 . S
O20 Fe3 1.997 . S
O20 C15 1.235 . S
C21 O4 1.295 . S
C21 O5 1.235 . S
Fe22 O24 1.918 . S
Fe22 O27 1.997 . S
Fe22 O28 2.002 . S
Fe22 O33 1.976 . S
Fe22 O36 1.996 . S
Fe23 O24 1.918 . S
Fe23 O31 1.997 . S
Fe23 O34 1.996 . S
Fe23 O38 1.976 . S
Fe23 O41 2.002 . S
O24 Fe22 1.918 . S
O24 Fe23 1.918 . S
O24 Fe25 1.918 . S
Fe25 O24 1.918 . S
Fe25 O26 2.002 . S
Fe25 O35 1.976 . S
Fe25 O39 1.996 . S
Fe25 O42 1.997 . S
O26 Fe25 2.002 . S
O26 C43 1.295 . S
O27 Fe22 1.997 . S
O27 C43 1.235 . S
O28 Fe22 2.002 . S
O28 C29 1.295 . S
C29 O28 1.295 . S
C29 O31 1.235 . S
C30 O35 1.287 . S
C30 O36 1.255 . S
O31 Fe23 1.997 . S
O31 C29 1.235 . S
C32 O38 1.287 . S
C32 O39 1.255 . S
O33 Fe22 1.976 . S
O33 C40 1.287 . S
O34 Fe23 1.996 . S
O34 C40 1.255 . S
O35 Fe25 1.976 . S
O35 C30 1.287 . S
O36 Fe22 1.996 . S
O36 C30 1.255 . S
C37 O41 1.295 . S
C37 O42 1.235 . S
O38 Fe23 1.976 . S
O38 C32 1.287 . S
O39 Fe25 1.996 . S
O39 C32 1.255 . S
C40 O33 1.287 . S
C40 O34 1.255 . S
O41 Fe23 2.002 . S
O41 C37 1.295 . S
O42 Fe25 1.997 . S
O42 C37 1.235 . S
C43 O26 1.295 . S
C43 O27 1.235 . S
Fe44 O46 1.918 . S
Fe44 O49 1.997 . S
Fe44 O50 2.002 . S
Fe44 O55 1.976 . S
Fe44 O58 1.996 . S
Fe45 O46 1.918 . S
Fe45 O53 1.997 . S
Fe45 O56 1.996 . S
Fe45 O60 1.976 . S
Fe45 O63 2.002 . S
O46 Fe44 1.918 . S
O46 Fe45 1.918 . S
O46 Fe47 1.918 . S
Fe47 O46 1.918 . S
Fe47 O48 2.002 . S
Fe47 O57 1.976 . S
Fe47 O61 1.996 . S
Fe47 O64 1.997 . S
O48 Fe47 2.002 . S
O48 C65 1.295 . S
O49 Fe44 1.997 . S
O49 C65 1.235 . S
O50 Fe44 2.002 . S
O50 C51 1.295 . S
C51 O50 1.295 . S
C51 O53 1.235 . S
C52 O57 1.287 . S
C52 O58 1.255 . S
O53 Fe45 1.997 . S
O53 C51 1.235 . S
C54 O60 1.287 . S
C54 O61 1.255 . S
O55 Fe44 1.976 . S
O55 C62 1.287 . S
O56 Fe45 1.996 . S
O56 C62 1.255 . S
O57 Fe47 1.976 . S
O57 C52 1.287 . S
O58 Fe44 1.996 . S
O58 C52 1.255 . S
C59 O63 1.295 . S
C59 O64 1.235 . S
O60 Fe45 1.976 . S
O60 C54 1.287 . S
O61 Fe47 1.996 . S
O61 C54 1.255 . S
C62 O55 1.287 . S
C62 O56 1.255 . S
O63 Fe45 2.002 . S
O63 C59 1.295 . S
O64 Fe47 1.997 . S
O64 C59 1.235 . S
C65 O48 1.295 . S
C65 O49 1.235 . S
Fe66 O68 1.918 . S
Fe66 O71 1.997 . S
Fe66 O72 2.002 . S
Fe66 O77 1.976 . S
Fe66 O80 1.996 . S
Fe67 O68 1.918 . S
Fe67 O75 1.997 . S
Fe67 O78 1.996 . S
Fe67 O82 1.976 . S
Fe67 O85 2.002 . S
O68 Fe66 1.918 . S
O68 Fe67 1.918 . S
O68 Fe69 1.918 . S
Fe69 O68 1.918 . S
Fe69 O70 2.002 . S
Fe69 O79 1.976 . S
Fe69 O83 1.996 . S
Fe69 O86 1.997 . S
O70 Fe69 2.002 . S
O70 C87 1.295 . S
O71 Fe66 1.997 . S
O71 C87 1.235 . S
O72 Fe66 2.002 . S
O72 C73 1.295 . S
C73 O72 1.295 . S
C73 O75 1.235 . S
C74 O79 1.287 . S
C74 O80 1.255 . S
O75 Fe67 1.997 . S
O75 C73 1.235 . S
C76 O82 1.287 . S
C76 O83 1.255 . S
O77 Fe66 1.976 . S
O77 C84 1.287 . S
O78 Fe67 1.996 . S
O78 C84 1.255 . S
O79 Fe69 1.976 . S
O79 C74 1.287 . S
O80 Fe66 1.996 . S
O80 C74 1.255 . S
C81 O85 1.295 . S
C81 O86 1.235 . S
O82 Fe67 1.976 . S
O82 C76 1.287 . S
O83 Fe69 1.996 . S
O83 C76 1.255 . S
C84 O77 1.287 . S
C84 O78 1.255 . S
O85 Fe67 2.002 . S
O85 C81 1.295 . S
O86 Fe69 1.997 . S
O86 C81 1.235 . S
C87 O70 1.295 . S
C87 O71 1.235 . S
Fe88 O90 1.918 . S
Fe88 O93 1.997 . S
Fe88 O94 2.002 . S
Fe88 O99 1.976 . S
Fe88 O102 1.996 . S
Fe89 O90 1.918 . S
Fe89 O97 1.997 . S
Fe89 O100 1.996 . S
Fe89 O104 1.976 . S
Fe89 O107 2.002 . S
O90 Fe88 1.918 . S
O90 Fe89 1.918 . S
O90 Fe91 1.918 . S
Fe91 O90 1.918 . S
Fe91 O92 2.002 . S
Fe91 O101 1.976 . S
Fe91 O105 1.996 . S
Fe91 O108 1.997 . S
O92 Fe91 2.002 . S
O92 C109 1.295 . S
O93 Fe88 1.997 . S
O93 C109 1.235 . S
O94 Fe88 2.002 . S
O94 C95 1.295 . S
C95 O94 1.295 . S
C95 O97 1.235 . S
C96 O101 1.287 . S
C96 O102 1.255 . S
O97 Fe89 1.997 . S
O97 C95 1.235 . S
C98 O104 1.287 . S
C98 O105 1.255 . S
O99 Fe88 1.976 . S
O99 C106 1.287 . S
O100 Fe89 1.996 . S
O100 C106 1.255 . S
O101 Fe91 1.976 . S
O101 C96 1.287 . S
O102 Fe88 1.996 . S
O102 C96 1.255 . S
C103 O107 1.295 . S
C103 O108 1.235 . S
O104 Fe89 1.976 . S
O104 C98 1.287 . S
O105 Fe91 1.996 . S
O105 C98 1.255 . S
C106 O99 1.287 . S
C106 O100 1.255 . S
O107 Fe89 2.002 . S
O107 C103 1.295 . S
O108 Fe91 1.997 . S
O108 C103 1.235 . S
C109 O92 1.295 . S
C109 O93 1.235 . S
Fe110 O112 1.918 . S
Fe110 O115 1.997 . S
Fe110 O116 2.002 . S
Fe110 O121 1.976 . S
Fe110 O124 1.996 . S
Fe111 O112 1.918 . S
Fe111 O119 1.997 . S
Fe111 O122 1.996 . S
Fe111 O126 1.976 . S
Fe111 O129 2.002 . S
O112 Fe110 1.918 . S
O112 Fe111 1.918 . S
O112 Fe113 1.918 . S
Fe113 O112 1.918 . S
Fe113 O114 2.002 . S
Fe113 O123 1.976 . S
Fe113 O127 1.996 . S
Fe113 O130 1.997 . S
O114 Fe113 2.002 . S
O114 C131 1.295 . S
O115 Fe110 1.997 . S
O115 C131 1.235 . S
O116 Fe110 2.002 . S
O116 C117 1.295 . S
C117 O116 1.295 . S
C117 O119 1.235 . S
C118 O123 1.287 . S
C118 O124 1.255 . S
O119 Fe111 1.997 . S
O119 C117 1.235 . S
C120 O126 1.287 . S
C120 O127 1.255 . S
O121 Fe110 1.976 . S
O121 C128 1.287 . S
O122 Fe111 1.996 . S
O122 C128 1.255 . S
O123 Fe113 1.976 . S
O123 C118 1.287 . S
O124 Fe110 1.996 . S
O124 C118 1.255 . S
C125 O129 1.295 . S
C125 O130 1.235 . S
O126 Fe111 1.976 . S
O126 C120 1.287 . S
O127 Fe113 1.996 . S
O127 C120 1.255 . S
C128 O121 1.287 . S
C128 O122 1.255 . S
O129 Fe111 2.002 . S
O129 C125 1.295 . S
O130 Fe113 1.997 . S
O130 C125 1.235 . S
C131 O114 1.295 . S
C131 O115 1.235 . S
Fe132 O134 1.918 . S
Fe132 O137 1.997 . S
Fe132 O138 2.002 . S
Fe132 O143 1.976 . S
Fe132 O146 1.996 . S
Fe133 O134 1.918 . S
Fe133 O141 1.997 . S
Fe133 O144 1.996 . S
Fe133 O148 1.976 . S
Fe133 O151 2.002 . S
O134 Fe132 1.918 . S
O134 Fe133 1.918 . S
O134 Fe135 1.918 . S
Fe135 O134 1.918 . S
Fe135 O136 2.002 . S
Fe135 O145 1.976 . S
Fe135 O149 1.996 . S
Fe135 O152 1.997 . S
O136 Fe135 2.002 . S
O136 C153 1.295 . S
O137 Fe132 1.997 . S
O137 C153 1.235 . S
O138 Fe132 2.002 . S
O138 C139 1.295 . S
C139 O138 1.295 . S
C139 O141 1.235 . S
C140 O145 1.287 . S
C140 O146 1.255 . S
O141 Fe133 1.997 . S
O141 C139 1.235 . S
C142 O148 1.287 . S
C142 O149 1.255 . S
O143 Fe132 1.976 . S
O143 C150 1.287 . S
O144 Fe133 1.996 . S
O144 C150 1.255 . S
O145 Fe135 1.976 . S
O145 C140 1.287 . S
O146 Fe132 1.996 . S
O146 C140 1.255 . S
C147 O151 1.295 . S
C147 O152 1.235 . S
O148 Fe133 1.976 . S
O148 C142 1.287 . S
O149 Fe135 1.996 . S
O149 C142 1.255 . S
C150 O143 1.287 . S
C150 O144 1.255 . S
O151 Fe133 2.002 . S
O151 C147 1.295 . S
O152 Fe135 1.997 . S
O152 C147 1.235 . S
C153 O136 1.295 . S
C153 O137 1.235 . S
Fe154 O156 1.918 . S
Fe154 O159 1.997 . S
Fe154 O160 2.002 . S
Fe154 O165 1.976 . S
Fe154 O168 1.996 . S
Fe155 O156 1.918 . S
Fe155 O163 1.997 . S
Fe155 O166 1.996 . S
Fe155 O170 1.976 . S
Fe155 O173 2.002 . S
O156 Fe154 1.918 . S
O156 Fe155 1.918 . S
O156 Fe157 1.918 . S
Fe157 O156 1.918 . S
Fe157 O158 2.002 . S
Fe157 O167 1.976 . S
Fe157 O171 1.996 . S
Fe157 O174 1.997 . S
O158 Fe157 2.002 . S
O158 C175 1.295 . S
O159 Fe154 1.997 . S
O159 C175 1.235 . S
O160 Fe154 2.002 . S
O160 C161 1.295 . S
C161 O160 1.295 . S
C161 O163 1.235 . S
C162 O167 1.287 . S
C162 O168 1.255 . S
O163 Fe155 1.997 . S
O163 C161 1.235 . S
C164 O170 1.287 . S
C164 O171 1.255 . S
O165 Fe154 1.976 . S
O165 C172 1.287 . S
O166 Fe155 1.996 . S
O166 C172 1.255 . S
O167 Fe157 1.976 . S
O167 C162 1.287 . S
O168 Fe154 1.996 . S
O168 C162 1.255 . S
C169 O173 1.295 . S
C169 O174 1.235 . S
O170 Fe155 1.976 . S
O170 C164 1.287 . S
O171 Fe157 1.996 . S
O171 C164 1.255 . S
C172 O165 1.287 . S
C172 O166 1.255 . S
O173 Fe155 2.002 . S
O173 C169 1.295 . S
O174 Fe157 1.997 . S
O174 C169 1.235 . S
C175 O158 1.295 . S
C175 O159 1.235 . S
C175 C18 1.453 . S
C40 C153 1.453 . S
C117 C62 1.481 . S
C74 C103 1.481 . S
C81 C106 1.453 1_455 S
C65 C118 1.453 1_655 S
C37 C150 1.481 1_655 S
C15 C172 1.481 1_455 S
C43 C21 2.000 1_656 S
C73 C59 2.003 1_454 S
C109 C125 2.000 1_554 S
C169 C147 2.003 1_554 S
C84 C8 1.477 . S
C54 C30 1.477 . S
C96 C164 1.477 1_565 S
C120 C142 1.477 1_565 S
C140 C10 2.375 . S
C32 C162 2.375 . S
C98 C52 2.375 . S
C128 C76 2.375 . S
C7 C139 1.717 1_554 S
C161 C29 1.717 1_554 S
C51 C95 1.717 1_556 S
C87 C131 1.717 1_554 S
