# Generated by pormake.
# Topology acs, (6)-cn, num edge types: 1
# Building blocks:
#     Node 0, Type 0, BuildingBlock: OJICUG_clean_sbu_0, # of connection points: 6
#     Node 1, Type 0, BuildingBlock: OJICUG_clean_sbu_0, # of connection points: 6
#     Edge 2, Type (0, 0), BuildingBlock: TEMPAE_clean_linker_10, # of connection points: 2
#     Edge 3, Type (0, 0), BuildingBlock: TEMPAE_clean_linker_10, # of connection points: 2
#     Edge 4, Type (0, 0), BuildingBlock: TEMPAE_clean_linker_10, # of connection points: 2
#     Edge 5, Type (0, 0), BuildingBlock: TEMPAE_clean_linker_10, # of connection points: 2
#     Edge 6, Type (0, 0), BuildingBlock: TEMPAE_clean_linker_10, # of connection points: 2
#     Edge 7, Type (0, 0), BuildingBlock: TEMPAE_clean_linker_10, # of connection points: 2
# Relax obj value: 0.000
# Max RMSD: 0.000
# Mean RMSD: 0.000
data_MOF--net-acs--node1-OJICUG_clean_sbu_0--edge1-TEMPAE_clean_linker_10
_symmetry_space_group_name_H-M    P1
_symmetry_Int_Tables_number       1
_symmetry_cell_setting            triclinic
loop_
_symmetry_equiv_pos_as_xyz
'x, y, z'
_cell_length_a     21.710273
_cell_length_b     21.748077
_cell_length_c     22.400908
_cell_angle_alpha  90.02258
_cell_angle_beta   89.856143
_cell_angle_gamma 120.3972
loop_
_atom_site_label
_atom_site_type_symbol
_atom_site_fract_x
_atom_site_fract_y
_atom_site_fract_z
_atom_type_partial_charge
Sc0 Sc 0.7137 0.4373 0.23147 0.0
Sc1 Sc 0.54734 0.27876 0.23949 0.0
Sc2 Sc 0.70497 0.27172 0.24368 0.0
O3 O 0.65552 0.32938 0.23819 0.0
C4 C 0.80214 0.38904 0.14866 0.0
C5 C 0.58638 0.40368 0.14468 0.0
C6 C 0.57311 0.17689 0.15658 0.0
C7 C 0.58782 0.41131 0.32189 0.0
C8 C 0.8047 0.40763 0.32491 0.0
C9 C 0.57792 0.18686 0.33372 0.0
O10 O 0.78865 0.43547 0.16932 0.0
O11 O 0.54216 0.34858 0.17378 0.0
O12 O 0.63044 0.1906 0.18324 0.0
O13 O 0.64549 0.45183 0.29368 0.0
O14 O 0.78407 0.34521 0.30552 0.0
O15 O 0.53608 0.20135 0.30557 0.0
O16 O 0.78172 0.44694 0.30482 0.0
O17 O 0.54855 0.34514 0.31091 0.0
O18 O 0.64323 0.2132 0.31995 0.0
O19 O 0.65263 0.43873 0.15657 0.0
O20 O 0.77242 0.32535 0.16795 0.0
O21 O 0.53901 0.20884 0.16817 0.0
Sc22 Sc 0.27294 0.55423 0.73102 0.0
Sc23 Sc 0.43102 0.71967 0.73934 0.0
Sc24 Sc 0.26534 0.7115 0.74365 0.0
O25 O 0.3229 0.6617 0.73801 0.0
C26 C 0.17729 0.5927 0.64748 0.0
C27 C 0.40297 0.59837 0.64431 0.0
C28 C 0.39487 0.81394 0.65668 0.0
C29 C 0.40128 0.59012 0.8216 0.0
C30 C 0.17271 0.57212 0.82344 0.0
C31 C 0.38939 0.80387 0.83343 0.0
O32 O 0.19613 0.54993 0.66747 0.0
O33 O 0.44418 0.65415 0.67388 0.0
O34 O 0.33679 0.7966 0.68409 0.0
O35 O 0.34515 0.54656 0.79313 0.0
O36 O 0.18713 0.63253 0.80302 0.0
O37 O 0.43445 0.79427 0.80478 0.0
O38 O 0.2032 0.53873 0.80527 0.0
O39 O 0.43593 0.65677 0.8111 0.0
O40 O 0.3234 0.77184 0.82062 0.0
O41 O 0.33701 0.55923 0.65608 0.0
O42 O 0.20056 0.65506 0.6681 0.0
O43 O 0.43281 0.78599 0.66766 0.0
C44 C 0.48522 0.91516 0.88057 0.0
C45 C 0.41554 0.85646 0.88244 0.0
C46 C 0.51025 0.96719 0.92542 0.0
C47 C 0.46507 0.95932 0.97406 0.0
C48 C 0.3951 0.89942 0.97681 0.0
C49 C 0.3708 0.84911 0.93048 0.0
C50 C 0.58464 0.03114 0.92028 0.0
C51 C 0.34607 0.8884 0.02875 0.0
C52 C 0.55701 0.06363 0.11397 0.0
C53 C 0.54465 0.12085 0.11035 0.0
C54 C 0.52988 0.00969 0.07066 0.0
C55 C 0.49112 0.01419 0.0218 0.0
C56 C 0.4788 0.07207 0.01775 0.0
C57 C 0.50497 0.12428 0.06254 0.0
C58 C 0.54266 0.94791 0.07718 0.0
C59 C 0.4391 0.0795 0.96558 0.0
H60 H 0.5197 0.92135 0.84316 0.0
H61 H 0.31705 0.80349 0.9322 0.0
H62 H 0.5821 0.08083 0.92031 0.0
H63 H 0.61707 0.03357 0.95935 0.0
H64 H 0.61247 0.0299 0.879 0.0
H65 H 0.29421 0.83767 0.02519 0.0
H66 H 0.37209 0.88806 0.07123 0.0
H67 H 0.33546 0.93314 0.03122 0.0
H68 H 0.58704 0.06046 0.15126 0.0
H69 H 0.49572 0.16872 0.05946 0.0
H70 H 0.57506 0.94721 0.03912 0.0
H71 H 0.49103 0.8968 0.07625 0.0
H72 H 0.57079 0.9506 0.11932 0.0
H73 H 0.46713 0.08217 0.92331 0.0
H74 H 0.43438 0.12792 0.96898 0.0
H75 H 0.38469 0.03211 0.96279 0.0
C76 C 0.50393 0.59125 0.59823 0.0
C77 C 0.43338 0.57687 0.59513 0.0
C78 C 0.53201 0.56703 0.55365 0.0
C79 C 0.48901 0.52927 0.50414 0.0
C80 C 0.41856 0.51685 0.49979 0.0
C81 C 0.39122 0.53995 0.54582 0.0
C82 C 0.60678 0.57981 0.56048 0.0
C83 C 0.37174 0.47836 0.44692 0.0
C84 C 0.57998 0.51312 0.36489 0.0
C85 C 0.56479 0.4425 0.36926 0.0
C86 C 0.55543 0.54216 0.40839 0.0
C87 C 0.51654 0.50006 0.4581 0.0
C88 C 0.50271 0.42931 0.46344 0.0
C89 C 0.52617 0.40105 0.4185 0.0
C90 C 0.56971 0.61722 0.40053 0.0
C91 C 0.46294 0.38337 0.51655 0.0
H92 H 0.53641 0.61936 0.63659 0.0
H93 H 0.33685 0.52943 0.54311 0.0
H94 H 0.60496 0.52796 0.56325 0.0
H95 H 0.63957 0.60833 0.52086 0.0
H96 H 0.63375 0.6114 0.60101 0.0
H97 H 0.32018 0.47757 0.44829 0.0
H98 H 0.39985 0.50423 0.40474 0.0
H99 H 0.36029 0.42256 0.44585 0.0
H100 H 0.60937 0.54503 0.32656 0.0
H101 H 0.51497 0.34662 0.4222 0.0
H102 H 0.59953 0.65039 0.43946 0.0
H103 H 0.51835 0.61665 0.3984 0.0
H104 H 0.60082 0.64289 0.35936 0.0
H105 H 0.48961 0.411 0.55854 0.0
H106 H 0.45983 0.33079 0.51543 0.0
H107 H 0.40785 0.37423 0.51781 0.0
C108 C 0.84957 0.36353 0.05595 0.0
C109 C 0.85638 0.41115 0.10112 0.0
C110 C 0.90005 0.3853 0.0096 0.0
C111 C 0.95958 0.45555 0.0097 0.0
C112 C 0.96765 0.50304 0.05629 0.0
C113 C 0.91535 0.48057 0.10096 0.0
C114 C 0.88871 0.33387 0.95977 0.0
C115 C 0.03129 0.5778 0.05876 0.0
C116 C 0.12363 0.50034 0.91663 0.0
C117 C 0.11691 0.53905 0.86968 0.0
C118 C 0.07233 0.47201 0.96241 0.0
C119 C 0.01208 0.48088 0.95991 0.0
C120 C 0.00385 0.5176 0.91125 0.0
C121 C 0.05699 0.54723 0.8672 0.0
C122 C 0.08383 0.43484 0.01442 0.0
C123 C 0.93942 0.52651 0.90616 0.0
H124 H 0.80372 0.30992 0.05597 0.0
H125 H 0.92108 0.51713 0.13634 0.0
H126 H 0.88324 0.35588 0.91671 0.0
H127 H 0.93569 0.32684 0.95564 0.0
H128 H 0.8403 0.28078 0.96686 0.0
H129 H 0.03209 0.60625 0.10022 0.0
H130 H 0.08156 0.57629 0.05615 0.0
H131 H 0.03052 0.60899 0.0199 0.0
H132 H 0.17022 0.49435 0.91858 0.0
H133 H 0.0514 0.57643 0.8304 0.0
H134 H 0.03692 0.38057 0.02017 0.0
H135 H 0.08937 0.46472 0.05615 0.0
H136 H 0.13228 0.43041 0.00868 0.0
H137 H 0.88963 0.47403 0.91044 0.0
H138 H 0.93818 0.5511 0.86304 0.0
H139 H 0.9396 0.5607 0.94298 0.0
C140 C 0.45713 0.86614 0.56036 0.0
C141 C 0.41966 0.8694 0.61011 0.0
C142 C 0.48114 0.91839 0.51565 0.0
C143 C 0.46913 0.9763 0.52183 0.0
C144 C 0.43198 0.98026 0.57235 0.0
C145 C 0.40672 0.92609 0.61554 0.0
C146 C 0.51899 0.91141 0.46167 0.0
C147 C 0.41986 0.04219 0.58117 0.0
C148 C 0.59283 0.14099 0.43143 0.0
C149 C 0.54895 0.13539 0.38348 0.0
C150 C 0.56673 0.09083 0.4779 0.0
C151 C 0.49576 0.03271 0.47533 0.0
C152 C 0.45109 0.0271 0.42717 0.0
C153 C 0.47799 0.07914 0.38217 0.0
C154 C 0.61534 0.0996 0.52935 0.0
C155 C 0.37566 0.96499 0.42222 0.0
H156 H 0.46663 0.82196 0.55592 0.0
H157 H 0.3783 0.92895 0.65433 0.0
H158 H 0.49109 0.91173 0.42033 0.0
H159 H 0.5742 0.95758 0.45916 0.0
H160 H 0.52161 0.86171 0.46264 0.0
H161 H 0.39124 0.03797 0.62353 0.0
H162 H 0.47187 0.09293 0.58147 0.0
H163 H 0.38836 0.04512 0.54352 0.0
H164 H 0.64755 0.18488 0.43274 0.0
H165 H 0.44418 0.07448 0.34485 0.0
H166 H 0.62593 0.05478 0.5298 0.0
H167 H 0.5891 0.09811 0.57234 0.0
H168 H 0.66726 0.15042 0.52672 0.0
H169 H 0.37646 0.91444 0.41949 0.0
H170 H 0.34759 0.96906 0.38236 0.0
H171 H 0.34451 0.96175 0.46261 0.0
C172 C 0.46598 0.60461 0.91732 0.0
C173 C 0.42792 0.56187 0.86858 0.0
C174 C 0.49146 0.57844 0.96233 0.0
C175 C 0.48016 0.50853 0.95761 0.0
C176 C 0.44253 0.46546 0.9081 0.0
C177 C 0.41603 0.49236 0.86453 0.0
C178 C 0.52984 0.62533 0.0152 0.0
C179 C 0.43081 0.39124 0.9009 0.0
C180 C 0.60315 0.46783 0.04797 0.0
C181 C 0.55897 0.42907 0.09599 0.0
C182 C 0.57773 0.49282 0.00192 0.0
C183 C 0.5071 0.48026 0.00488 0.0
C184 C 0.46241 0.44145 0.05343 0.0
C185 C 0.48863 0.41556 0.09804 0.0
C186 C 0.62637 0.53257 0.95011 0.0
C187 C 0.38732 0.42833 0.0588 0.0
H188 H 0.47479 0.6582 0.92079 0.0
H189 H 0.3872 0.45943 0.82659 0.0
H190 H 0.50205 0.59828 0.05715 0.0
H191 H 0.58492 0.6346 0.0178 0.0
H192 H 0.53283 0.67779 0.01276 0.0
H193 H 0.40238 0.36547 0.85886 0.0
H194 H 0.48291 0.39323 0.90108 0.0
H195 H 0.39922 0.35732 0.93904 0.0
H196 H 0.65739 0.47789 0.04603 0.0
H197 H 0.4545 0.38616 0.13538 0.0
H198 H 0.63594 0.5877 0.94834 0.0
H199 H 0.60057 0.50624 0.90748 0.0
H200 H 0.67874 0.53526 0.95329 0.0
H201 H 0.38855 0.47995 0.05968 0.0
H202 H 0.35975 0.39783 0.09972 0.0
H203 H 0.35541 0.39837 0.01939 0.0
C204 C 0.06842 0.58252 0.60135 0.0
C205 C 0.12425 0.56794 0.59916 0.0
C206 C 0.01549 0.55653 0.55717 0.0
C207 C 0.02019 0.5173 0.50867 0.0
C208 C 0.07768 0.5041 0.50552 0.0
C209 C 0.12838 0.52848 0.55152 0.0
C210 C 0.95381 0.56973 0.56306 0.0
C211 C 0.08577 0.46453 0.45351 0.0
C212 C 0.85389 0.39275 0.4205 0.0
C213 C 0.85886 0.43607 0.37236 0.0
C214 C 0.90535 0.41903 0.46589 0.0
C215 C 0.96443 0.48933 0.46161 0.0
C216 C 0.97012 0.53288 0.41247 0.0
C217 C 0.91642 0.50608 0.36891 0.0
C218 C 0.8962 0.37182 0.51858 0.0
C219 C 0.03346 0.60725 0.40539 0.0
H220 H 0.06502 0.61249 0.63864 0.0
H221 H 0.172 0.51776 0.54979 0.0
H222 H 0.9523 0.60021 0.52399 0.0
H223 H 0.90265 0.51813 0.56373 0.0
H224 H 0.95725 0.59974 0.60427 0.0
H225 H 0.13571 0.46231 0.45616 0.0
H226 H 0.03975 0.40923 0.45209 0.0
H227 H 0.08591 0.49068 0.41094 0.0
H228 H 0.80895 0.3387 0.42316 0.0
H229 H 0.92044 0.53917 0.33119 0.0
H230 H 0.89682 0.39898 0.56072 0.0
H231 H 0.94134 0.36169 0.5205 0.0
H232 H 0.84553 0.31974 0.51644 0.0
H233 H 0.03625 0.64089 0.44368 0.0
H234 H 0.03098 0.63324 0.3635 0.0
H235 H 0.08362 0.6054 0.40531 0.0
loop_
_geom_bond_atom_site_label_1
_geom_bond_atom_site_label_2
_geom_bond_distance
_geom_bond_site_symmetry_2
_ccdc_geom_bond_type
Sc0 O3 2.025 . S
Sc0 O10 2.105 . S
Sc0 O13 2.105 . S
Sc0 O16 2.105 . S
Sc0 O19 2.105 . S
Sc1 O3 2.025 . S
Sc1 O11 2.105 . S
Sc1 O15 2.105 . S
Sc1 O17 2.105 . S
Sc1 O21 2.105 . S
Sc2 O3 2.025 . S
Sc2 O12 2.105 . S
Sc2 O14 2.105 . S
Sc2 O18 2.105 . S
Sc2 O20 2.105 . S
O3 Sc0 2.025 . S
O3 Sc1 2.025 . S
O3 Sc2 2.025 . S
C4 O10 1.268 . S
C4 O20 1.268 . S
C5 O11 1.268 . S
C5 O19 1.268 . S
C6 O12 1.268 . S
C6 O21 1.268 . S
C7 O13 1.268 . S
C7 O17 1.268 . S
C8 O14 1.268 . S
C8 O16 1.268 . S
C9 O15 1.268 . S
C9 O18 1.268 . S
O10 Sc0 2.105 . S
O10 C4 1.268 . S
O11 Sc1 2.105 . S
O11 C5 1.268 . S
O12 Sc2 2.105 . S
O12 C6 1.268 . S
O13 Sc0 2.105 . S
O13 C7 1.268 . S
O14 Sc2 2.105 . S
O14 C8 1.268 . S
O15 Sc1 2.105 . S
O15 C9 1.268 . S
O16 Sc0 2.105 . S
O16 C8 1.268 . S
O17 Sc1 2.105 . S
O17 C7 1.268 . S
O18 Sc2 2.105 . S
O18 C9 1.268 . S
O19 Sc0 2.105 . S
O19 C5 1.268 . S
O20 Sc2 2.105 . S
O20 C4 1.268 . S
O21 Sc1 2.105 . S
O21 C6 1.268 . S
Sc22 O25 2.025 . S
Sc22 O32 2.105 . S
Sc22 O35 2.105 . S
Sc22 O38 2.105 . S
Sc22 O41 2.105 . S
Sc23 O25 2.025 . S
Sc23 O33 2.105 . S
Sc23 O37 2.105 . S
Sc23 O39 2.105 . S
Sc23 O43 2.105 . S
Sc24 O25 2.025 . S
Sc24 O34 2.105 . S
Sc24 O36 2.105 . S
Sc24 O40 2.105 . S
Sc24 O42 2.105 . S
O25 Sc22 2.025 . S
O25 Sc23 2.025 . S
O25 Sc24 2.025 . S
C26 O32 1.268 . S
C26 O42 1.268 . S
C27 O33 1.268 . S
C27 O41 1.268 . S
C28 O34 1.268 . S
C28 O43 1.268 . S
C29 O35 1.268 . S
C29 O39 1.268 . S
C30 O36 1.268 . S
C30 O38 1.268 . S
C31 O37 1.268 . S
C31 O40 1.268 . S
O32 Sc22 2.105 . S
O32 C26 1.268 . S
O33 Sc23 2.105 . S
O33 C27 1.268 . S
O34 Sc24 2.105 . S
O34 C28 1.268 . S
O35 Sc22 2.105 . S
O35 C29 1.268 . S
O36 Sc24 2.105 . S
O36 C30 1.268 . S
O37 Sc23 2.105 . S
O37 C31 1.268 . S
O38 Sc22 2.105 . S
O38 C30 1.268 . S
O39 Sc23 2.105 . S
O39 C29 1.268 . S
O40 Sc24 2.105 . S
O40 C31 1.268 . S
O41 Sc22 2.105 . S
O41 C27 1.268 . S
O42 Sc24 2.105 . S
O42 C26 1.268 . S
O43 Sc23 2.105 . S
O43 C28 1.268 . S
C44 C45 1.391 . S
C44 C46 1.394 . S
C44 H60 0.931 . S
C45 C44 1.391 . S
C45 C49 1.376 . S
C46 C44 1.394 . S
C46 C47 1.369 . S
C46 C50 1.531 1_565 S
C47 C46 1.369 . S
C47 C48 1.410 . S
C47 C55 1.503 1_566 S
C48 C47 1.410 . S
C48 C49 1.392 . S
C48 C51 1.511 1_556 S
C49 C45 1.376 . S
C49 C48 1.392 . S
C49 H61 0.929 . S
C50 C46 1.531 1_545 S
C50 H62 0.960 . S
C50 H63 0.962 . S
C50 H64 0.960 . S
C51 C48 1.511 1_554 S
C51 H65 0.961 . S
C51 H66 0.961 . S
C51 H67 0.961 . S
C52 C53 1.370 . S
C52 C54 1.363 . S
C52 H68 0.931 . S
C53 C52 1.370 . S
C53 C57 1.408 . S
C54 C52 1.363 . S
C54 C55 1.370 . S
C54 C58 1.524 1_545 S
C55 C47 1.503 1_544 S
C55 C54 1.370 . S
C55 C56 1.403 . S
C56 C55 1.403 . S
C56 C57 1.404 . S
C56 C59 1.539 1_554 S
C57 C53 1.408 . S
C57 C56 1.404 . S
C57 H69 0.930 . S
C58 C54 1.524 1_565 S
C58 H70 0.956 . S
C58 H71 0.961 . S
C58 H72 0.961 . S
C59 C56 1.539 1_556 S
C59 H73 0.958 . S
C59 H74 0.961 . S
C59 H75 0.960 . S
H60 C44 0.931 . S
H61 C49 0.929 . S
H62 C50 0.960 . S
H63 C50 0.962 . S
H64 C50 0.960 . S
H65 C51 0.961 . S
H66 C51 0.961 . S
H67 C51 0.961 . S
H68 C52 0.931 . S
H69 C57 0.930 . S
H70 C58 0.956 . S
H71 C58 0.961 . S
H72 C58 0.961 . S
H73 C59 0.958 . S
H74 C59 0.961 . S
H75 C59 0.960 . S
C76 C77 1.391 . S
C76 C78 1.394 . S
C76 H92 0.931 . S
C77 C76 1.391 . S
C77 C81 1.376 . S
C78 C76 1.394 . S
C78 C79 1.369 . S
C78 C82 1.531 . S
C79 C78 1.369 . S
C79 C80 1.410 . S
C79 C87 1.503 . S
C80 C79 1.410 . S
C80 C81 1.392 . S
C80 C83 1.511 . S
C81 C77 1.376 . S
C81 C80 1.392 . S
C81 H93 0.929 . S
C82 C78 1.531 . S
C82 H94 0.960 . S
C82 H95 0.962 . S
C82 H96 0.960 . S
C83 C80 1.511 . S
C83 H97 0.961 . S
C83 H98 0.961 . S
C83 H99 0.961 . S
C84 C85 1.370 . S
C84 C86 1.363 . S
C84 H100 0.931 . S
C85 C84 1.370 . S
C85 C89 1.408 . S
C86 C84 1.363 . S
C86 C87 1.370 . S
C86 C90 1.524 . S
C87 C79 1.503 . S
C87 C86 1.370 . S
C87 C88 1.403 . S
C88 C87 1.403 . S
C88 C89 1.404 . S
C88 C91 1.539 . S
C89 C85 1.408 . S
C89 C88 1.404 . S
C89 H101 0.930 . S
C90 C86 1.524 . S
C90 H102 0.956 . S
C90 H103 0.961 . S
C90 H104 0.961 . S
C91 C88 1.539 . S
C91 H105 0.958 . S
C91 H106 0.961 . S
C91 H107 0.960 . S
H92 C76 0.931 . S
H93 C81 0.929 . S
H94 C82 0.960 . S
H95 C82 0.962 . S
H96 C82 0.960 . S
H97 C83 0.961 . S
H98 C83 0.961 . S
H99 C83 0.961 . S
H100 C84 0.931 . S
H101 C89 0.930 . S
H102 C90 0.956 . S
H103 C90 0.961 . S
H104 C90 0.961 . S
H105 C91 0.958 . S
H106 C91 0.961 . S
H107 C91 0.960 . S
C108 C109 1.391 . S
C108 C110 1.394 . S
C108 H124 0.931 . S
C109 C108 1.391 . S
C109 C113 1.376 . S
C110 C108 1.394 . S
C110 C111 1.369 . S
C110 C114 1.531 . S
C111 C110 1.369 . S
C111 C112 1.410 . S
C111 C119 1.503 1_654 S
C112 C111 1.410 . S
C112 C113 1.392 . S
C112 C115 1.511 1_554 S
C113 C109 1.376 . S
C113 C112 1.392 . S
C113 H125 0.929 . S
C114 C110 1.531 . S
C114 H126 0.960 1_554 S
C114 H127 0.962 1_655 S
C114 H128 0.960 . S
C115 C112 1.511 1_556 S
C115 H129 0.961 1_556 S
C115 H130 0.961 . S
C115 H131 0.961 . S
C116 C117 1.370 . S
C116 C118 1.363 . S
C116 H132 0.931 . S
C117 C116 1.370 . S
C117 C121 1.408 . S
C118 C116 1.363 . S
C118 C119 1.370 . S
C118 C122 1.524 1_556 S
C119 C111 1.503 1_456 S
C119 C118 1.370 . S
C119 C120 1.403 . S
C120 C119 1.403 . S
C120 C121 1.404 . S
C120 C123 1.539 1_455 S
C121 C117 1.408 . S
C121 C120 1.404 . S
C121 H133 0.930 . S
C122 C118 1.524 1_554 S
C122 H134 0.956 . S
C122 H135 0.961 . S
C122 H136 0.961 . S
C123 C120 1.539 1_655 S
C123 H137 0.958 . S
C123 H138 0.961 . S
C123 H139 0.960 . S
H124 C108 0.931 . S
H125 C113 0.929 . S
H126 C114 0.960 1_556 S
H127 C114 0.962 1_455 S
H128 C114 0.960 . S
H129 C115 0.961 1_554 S
H130 C115 0.961 . S
H131 C115 0.961 . S
H132 C116 0.931 . S
H133 C121 0.930 . S
H134 C122 0.956 . S
H135 C122 0.961 . S
H136 C122 0.961 . S
H137 C123 0.958 . S
H138 C123 0.961 . S
H139 C123 0.960 . S
C140 C141 1.391 . S
C140 C142 1.394 . S
C140 H156 0.931 . S
C141 C140 1.391 . S
C141 C145 1.376 . S
C142 C140 1.394 . S
C142 C143 1.369 . S
C142 C146 1.531 . S
C143 C142 1.369 . S
C143 C144 1.410 . S
C143 C151 1.503 1_565 S
C144 C143 1.410 . S
C144 C145 1.392 . S
C144 C147 1.511 1_565 S
C145 C141 1.376 . S
C145 C144 1.392 . S
C145 H157 0.929 . S
C146 C142 1.531 . S
C146 H158 0.960 . S
C146 H159 0.962 . S
C146 H160 0.960 . S
C147 C144 1.511 1_545 S
C147 H161 0.961 . S
C147 H162 0.961 . S
C147 H163 0.961 . S
C148 C149 1.370 . S
C148 C150 1.363 . S
C148 H164 0.931 . S
C149 C148 1.370 . S
C149 C153 1.408 . S
C150 C148 1.363 . S
C150 C151 1.370 . S
C150 C154 1.524 . S
C151 C143 1.503 1_545 S
C151 C150 1.370 . S
C151 C152 1.403 . S
C152 C151 1.403 . S
C152 C153 1.404 . S
C152 C155 1.539 . S
C153 C149 1.408 . S
C153 C152 1.404 . S
C153 H165 0.930 . S
C154 C150 1.524 . S
C154 H166 0.956 1_545 S
C154 H167 0.961 . S
C154 H168 0.961 . S
C155 C152 1.539 . S
C155 H169 0.958 1_545 S
C155 H170 0.961 . S
C155 H171 0.960 . S
H156 C140 0.931 . S
H157 C145 0.929 . S
H158 C146 0.960 . S
H159 C146 0.962 . S
H160 C146 0.960 . S
H161 C147 0.961 . S
H162 C147 0.961 . S
H163 C147 0.961 . S
H164 C148 0.931 . S
H165 C153 0.930 . S
H166 C154 0.956 1_565 S
H167 C154 0.961 . S
H168 C154 0.961 . S
H169 C155 0.958 1_565 S
H170 C155 0.961 . S
H171 C155 0.960 . S
C172 C173 1.391 . S
C172 C174 1.394 . S
C172 H188 0.931 . S
C173 C172 1.391 . S
C173 C177 1.376 . S
C174 C172 1.394 . S
C174 C175 1.369 . S
C174 C178 1.531 1_556 S
C175 C174 1.369 . S
C175 C176 1.410 . S
C175 C183 1.503 1_556 S
C176 C175 1.410 . S
C176 C177 1.392 . S
C176 C179 1.511 . S
C177 C173 1.376 . S
C177 C176 1.392 . S
C177 H189 0.929 . S
C178 C174 1.531 1_554 S
C178 H190 0.960 . S
C178 H191 0.962 . S
C178 H192 0.960 . S
C179 C176 1.511 . S
C179 H193 0.961 . S
C179 H194 0.961 . S
C179 H195 0.961 . S
C180 C181 1.370 . S
C180 C182 1.363 . S
C180 H196 0.931 . S
C181 C180 1.370 . S
C181 C185 1.408 . S
C182 C180 1.363 . S
C182 C183 1.370 . S
C182 C186 1.524 1_554 S
C183 C175 1.503 1_554 S
C183 C182 1.370 . S
C183 C184 1.403 . S
C184 C183 1.403 . S
C184 C185 1.404 . S
C184 C187 1.539 . S
C185 C181 1.408 . S
C185 C184 1.404 . S
C185 H197 0.930 . S
C186 C182 1.524 1_556 S
C186 H198 0.956 . S
C186 H199 0.961 . S
C186 H200 0.961 . S
C187 C184 1.539 . S
C187 H201 0.958 . S
C187 H202 0.961 . S
C187 H203 0.960 . S
H188 C172 0.931 . S
H189 C177 0.929 . S
H190 C178 0.960 . S
H191 C178 0.962 . S
H192 C178 0.960 . S
H193 C179 0.961 . S
H194 C179 0.961 . S
H195 C179 0.961 . S
H196 C180 0.931 . S
H197 C185 0.930 . S
H198 C186 0.956 . S
H199 C186 0.961 . S
H200 C186 0.961 . S
H201 C187 0.958 . S
H202 C187 0.961 . S
H203 C187 0.960 . S
C204 C205 1.391 . S
C204 C206 1.394 . S
C204 H220 0.931 . S
C205 C204 1.391 . S
C205 C209 1.376 . S
C206 C204 1.394 . S
C206 C207 1.369 . S
C206 C210 1.531 1_455 S
C207 C206 1.369 . S
C207 C208 1.410 . S
C207 C215 1.503 1_455 S
C208 C207 1.410 . S
C208 C209 1.392 . S
C208 C211 1.511 . S
C209 C205 1.376 . S
C209 C208 1.392 . S
C209 H221 0.929 . S
C210 C206 1.531 1_655 S
C210 H222 0.960 . S
C210 H223 0.962 . S
C210 H224 0.960 1_655 S
C211 C208 1.511 . S
C211 H225 0.961 . S
C211 H226 0.961 . S
C211 H227 0.961 . S
C212 C213 1.370 . S
C212 C214 1.363 . S
C212 H228 0.931 . S
C213 C212 1.370 . S
C213 C217 1.408 . S
C214 C212 1.363 . S
C214 C215 1.370 . S
C214 C218 1.524 . S
C215 C207 1.503 1_655 S
C215 C214 1.370 . S
C215 C216 1.403 . S
C216 C215 1.403 . S
C216 C217 1.404 . S
C216 C219 1.539 1_655 S
C217 C213 1.408 . S
C217 C216 1.404 . S
C217 H229 0.930 . S
C218 C214 1.524 . S
C218 H230 0.956 . S
C218 H231 0.961 . S
C218 H232 0.961 . S
C219 C216 1.539 1_455 S
C219 H233 0.958 . S
C219 H234 0.961 . S
C219 H235 0.960 . S
H220 C204 0.931 . S
H221 C209 0.929 . S
H222 C210 0.960 . S
H223 C210 0.962 . S
H224 C210 0.960 1_455 S
H225 C211 0.961 . S
H226 C211 0.961 . S
H227 C211 0.961 . S
H228 C212 0.931 . S
H229 C217 0.930 . S
H230 C218 0.956 . S
H231 C218 0.961 . S
H232 C218 0.961 . S
H233 C219 0.958 . S
H234 C219 0.961 . S
H235 C219 0.960 . S
C45 C31 1.460 . S
C53 C6 1.485 . S
C77 C27 1.456 . S
C85 C7 1.487 . S
C109 C4 1.494 . S
C117 C30 1.471 . S
C141 C28 1.477 . S
C149 C9 1.480 . S
C173 C29 1.486 . S
C181 C5 1.476 . S
C205 C26 1.492 . S
C213 C8 1.472 . S
