# Generated by pormake.
# Topology can, (4)-cn, num edge types: 1
# Building blocks:
#     Node 0, Type 0, BuildingBlock: NAHDIM_clean_sbu_0, # of connection points: 4
#     Node 1, Type 0, BuildingBlock: NAHDIM_clean_sbu_0, # of connection points: 4
#     Node 2, Type 0, BuildingBlock: NAHDIM_clean_sbu_0, # of connection points: 4
#     Node 3, Type 0, BuildingBlock: NAHDIM_clean_sbu_0, # of connection points: 4
#     Node 4, Type 0, BuildingBlock: NAHDIM_clean_sbu_0, # of connection points: 4
#     Node 5, Type 0, BuildingBlock: NAHDIM_clean_sbu_0, # of connection points: 4
#     Node 6, Type 0, BuildingBlock: NAHDIM_clean_sbu_0, # of connection points: 4
#     Node 7, Type 0, BuildingBlock: NAHDIM_clean_sbu_0, # of connection points: 4
#     Node 8, Type 0, BuildingBlock: NAHDIM_clean_sbu_0, # of connection points: 4
#     Node 9, Type 0, BuildingBlock: NAHDIM_clean_sbu_0, # of connection points: 4
#     Node 10, Type 0, BuildingBlock: NAHDIM_clean_sbu_0, # of connection points: 4
#     Node 11, Type 0, BuildingBlock: NAHDIM_clean_sbu_0, # of connection points: 4
#     Edge 12, Type (0, 0), None
#     Edge 13, Type (0, 0), None
#     Edge 14, Type (0, 0), None
#     Edge 15, Type (0, 0), None
#     Edge 16, Type (0, 0), None
#     Edge 17, Type (0, 0), None
#     Edge 18, Type (0, 0), None
#     Edge 19, Type (0, 0), None
#     Edge 20, Type (0, 0), None
#     Edge 21, Type (0, 0), None
#     Edge 22, Type (0, 0), None
#     Edge 23, Type (0, 0), None
#     Edge 24, Type (0, 0), None
#     Edge 25, Type (0, 0), None
#     Edge 26, Type (0, 0), None
#     Edge 27, Type (0, 0), None
#     Edge 28, Type (0, 0), None
#     Edge 29, Type (0, 0), None
#     Edge 30, Type (0, 0), None
#     Edge 31, Type (0, 0), None
#     Edge 32, Type (0, 0), None
#     Edge 33, Type (0, 0), None
#     Edge 34, Type (0, 0), None
#     Edge 35, Type (0, 0), None
# Relax obj value: 0.090
# Max RMSD: 0.088
# Mean RMSD: 0.088
data_MOF--net-can--node1-NAHDIM_clean_sbu_0--edge1-none
_symmetry_space_group_name_H-M    P1
_symmetry_Int_Tables_number       1
_symmetry_cell_setting            triclinic
loop_
_symmetry_equiv_pos_as_xyz
'x, y, z'
_cell_length_a     28.085005
_cell_length_b     28.084669
_cell_length_c     10.466729
_cell_angle_alpha  90.003863
_cell_angle_beta   89.991982
_cell_angle_gamma 119.99816
loop_
_atom_site_label
_atom_site_type_symbol
_atom_site_fract_x
_atom_site_fract_y
_atom_site_fract_z
_atom_type_partial_charge
C0 C 0.14519 0.36694 0.25999 0.0
O1 O 0.09931 0.31942 0.25883 0.0
O2 O 0.01892 0.36851 0.11839 0.0
Zn3 Zn 0.06993 0.40756 0.26946 0.0
O4 O 0.0367 0.37196 0.4377 0.0
C5 C 0.03698 0.48717 0.26407 0.0
O6 O -0.0098 0.44198 0.2424 0.0
O7 O 0.14331 0.41119 0.25856 0.0
C8 C -0.01458 0.34712 0.45917 0.0
O9 O 0.95118 0.34081 0.36672 0.0
C10 C -0.01337 0.31721 0.10214 0.0
O11 O -0.0141 0.28193 0.18548 0.0
O12 O 0.08052 0.48442 0.27769 0.0
C13 C 0.76345 0.15259 0.75988 0.0
O14 O 0.76509 0.10671 0.75851 0.0
O15 O 0.6356 0.02632 0.61859 0.0
Zn16 Zn 0.64757 0.07733 0.76967 0.0
O17 O 0.64996 0.0441 0.9379 0.0
C18 C 0.53502 0.04439 0.76429 0.0
O19 O 0.53342 -0.00239 0.74255 0.0
O20 O 0.71731 0.15071 0.75871 0.0
C21 C 0.62349 -0.00718 0.95936 0.0
O22 O 0.59554 0.95859 0.86691 0.0
C23 C 0.65458 -0.00601 0.60237 0.0
O24 O 0.6891 -0.00676 0.68573 0.0
O25 O 0.58131 0.08792 0.77796 0.0
C26 C 0.59603 0.77085 0.26001 0.0
O27 O 0.64356 0.77249 0.2587 0.0
O28 O 0.59447 0.643 0.11861 0.0
Zn29 Zn 0.55542 0.65497 0.2697 0.0
O30 O 0.59104 0.65736 0.43793 0.0
C31 C 0.47582 0.54242 0.26433 0.0
O32 O 0.521 0.54082 0.24262 0.0
O33 O 0.55179 0.72472 0.25877 0.0
C34 C 0.61586 0.63091 0.45938 0.0
O35 O 0.62216 0.60297 0.36691 0.0
C36 C 0.64577 0.66199 0.10237 0.0
O37 O 0.68105 0.69653 0.18573 0.0
O38 O 0.47857 0.58871 0.27797 0.0
C39 C 0.81038 0.60345 0.75994 0.0
O40 O 0.85626 0.65097 0.75868 0.0
O41 O 0.93666 0.60188 0.61844 0.0
Zn42 Zn 0.88565 0.56283 0.76953 0.0
O43 O 0.91887 0.59844 0.93776 0.0
C44 C 0.91859 0.48323 0.7641 0.0
O45 O 0.96537 0.52841 0.74239 0.0
O46 O 0.81227 0.5592 0.75863 0.0
C47 C 0.97015 0.62327 0.9592 0.0
O48 O 0.00438 0.62957 0.86673 0.0
C49 C 0.96895 0.65318 0.6022 0.0
O50 O 0.96969 0.68847 0.68555 0.0
O51 O 0.87506 0.48598 0.77776 0.0
C52 C 0.19212 0.81781 0.25983 0.0
O53 O 0.19048 0.86368 0.25838 0.0
O54 O 0.31996 0.94409 0.11861 0.0
Zn55 Zn 0.308 0.89308 0.26968 0.0
O56 O 0.3056 0.9263 0.43792 0.0
C57 C 0.42055 0.92601 0.26414 0.0
O58 O 0.42215 0.97278 0.24228 0.0
O59 O 0.23826 0.81969 0.25873 0.0
C60 C 0.33211 0.97758 0.4594 0.0
O61 O 0.3601 0.01179 0.36696 0.0
C62 C 0.30101 0.97643 0.10247 0.0
O63 O 0.26651 0.97721 0.18593 0.0
O64 O 0.37427 0.88249 0.27793 0.0
C65 C 0.35953 0.19954 0.76 0.0
O66 O 0.312 0.1979 0.75873 0.0
O67 O 0.36108 0.32738 0.61859 0.0
Zn68 Zn 0.40014 0.31542 0.76964 0.0
O69 O 0.36452 0.31303 0.9379 0.0
C70 C 0.47975 0.42797 0.76416 0.0
O71 O 0.43457 0.42957 0.74239 0.0
O72 O 0.40377 0.24567 0.75871 0.0
C73 C 0.33973 0.33951 0.95938 0.0
O74 O 0.33346 0.36747 0.86694 0.0
C75 C 0.30979 0.3084 0.60242 0.0
O76 O 0.27451 0.27388 0.68583 0.0
O77 O 0.47699 0.38168 0.77788 0.0
C78 C 0.59437 0.82212 0.2627 0.0
O79 O 0.6375 0.86819 0.22572 0.0
O80 O 0.59403 0.94953 0.42863 0.0
Zn81 Zn 0.55092 0.89378 0.2887 0.0
O82 O 0.57901 0.92391 0.11419 0.0
C83 C 0.47237 0.92543 0.27142 0.0
O84 O 0.51883 0.97167 0.25509 0.0
O85 O 0.55162 0.82253 0.30113 0.0
C86 C 0.61619 0.97286 0.09078 0.0
O87 O 0.64114 0.00723 0.18526 0.0
C88 C 0.63292 0.95333 0.49819 0.0
O89 O 0.65042 0.91821 0.48366 0.0
O90 O 0.4736 0.88147 0.29228 0.0
C91 C 0.75744 0.60178 0.76266 0.0
O92 O 0.7545 0.64491 0.72571 0.0
O93 O 0.6297 0.60144 0.92863 0.0
Zn94 Zn 0.64234 0.55834 0.78867 0.0
O95 O 0.6403 0.58643 0.61418 0.0
C96 C 0.53214 0.47978 0.77143 0.0
O97 O 0.53235 0.52624 0.75516 0.0
O98 O 0.71429 0.55903 0.80108 0.0
C99 C 0.62851 0.6236 0.59079 0.0
O100 O 0.61908 0.64854 0.68528 0.0
C101 C 0.66478 0.64034 0.99819 0.0
O102 O 0.7174 0.65786 0.98363 0.0
O103 O 0.57734 0.48101 0.79223 0.0
C104 C 0.14085 0.76487 0.2625 0.0
O105 O 0.09479 0.76192 0.22547 0.0
O106 O 0.01344 0.63711 0.42846 0.0
Zn107 Zn 0.0692 0.64977 0.28851 0.0
O108 O 0.03907 0.64771 0.11401 0.0
C109 C 0.03755 0.53956 0.27132 0.0
O110 O -0.0087 0.53976 0.2551 0.0
O111 O 0.14044 0.72172 0.30096 0.0
C112 C -0.00989 0.63592 0.09062 0.0
O113 O 0.95574 0.62649 0.18511 0.0
C114 C 0.00961 0.6722 0.49801 0.0
O115 O 0.0447 0.72482 0.48343 0.0
O116 O 0.08152 0.58476 0.29206 0.0
C117 C 0.36119 0.14827 0.76272 0.0
O118 O 0.31806 0.10219 0.72579 0.0
O119 O 0.36152 0.02087 0.92866 0.0
Zn120 Zn 0.40465 0.07662 0.78873 0.0
O121 O 0.37659 0.04648 0.61422 0.0
C122 C 0.48321 0.04497 0.77156 0.0
O123 O 0.43675 -0.00128 0.75529 0.0
O124 O 0.40394 0.14787 0.80113 0.0
C125 C 0.3394 -0.00246 0.59081 0.0
O126 O 0.31442 0.96318 0.68529 0.0
C127 C 0.32266 0.01709 0.99831 0.0
O128 O 0.3052 0.05225 0.98388 0.0
O129 O 0.48197 0.08894 0.79233 0.0
C130 C 0.19812 0.3686 0.26273 0.0
O131 O 0.20107 0.32546 0.22583 0.0
O132 O 0.32585 0.36893 0.42866 0.0
Zn133 Zn 0.31322 0.41205 0.28874 0.0
O134 O 0.3153 0.38399 0.11422 0.0
C135 C 0.42343 0.49061 0.27158 0.0
O136 O 0.42322 0.44415 0.25534 0.0
O137 O 0.24127 0.41136 0.30113 0.0
C138 C 0.32707 0.34681 0.0908 0.0
O139 O 0.33647 0.32185 0.18527 0.0
C140 C 0.29077 0.33005 0.49827 0.0
O141 O 0.23815 0.31256 0.48379 0.0
O142 O 0.37822 0.48938 0.29234 0.0
C143 C 0.81472 0.20553 0.76256 0.0
O144 O 0.86079 0.20847 0.72552 0.0
O145 O 0.94213 0.33328 0.92846 0.0
Zn146 Zn 0.88638 0.32063 0.78854 0.0
O147 O 0.9165 0.32268 0.61402 0.0
C148 C 0.91802 0.43084 0.77135 0.0
O149 O 0.96427 0.43063 0.7551 0.0
O150 O 0.81513 0.24868 0.80101 0.0
C151 C 0.96546 0.33447 0.5906 0.0
O152 O -0.00017 0.34392 0.68507 0.0
C153 C 0.94597 0.2982 0.99798 0.0
O154 O 0.91088 0.24557 0.9834 0.0
O155 O 0.87405 0.38563 0.79212 0.0
loop_
_geom_bond_atom_site_label_1
_geom_bond_atom_site_label_2
_geom_bond_distance
_geom_bond_site_symmetry_2
_ccdc_geom_bond_type
C0 O1 1.160 . S
C0 O7 1.185 . S
O1 C0 1.160 . S
O2 Zn3 1.899 . S
O2 C10 1.284 . S
Zn3 O2 1.899 . S
Zn3 O4 2.032 . S
Zn3 O7 2.086 . S
Zn3 O12 1.977 . S
O4 Zn3 2.032 . S
O4 C8 1.278 . S
C5 O6 1.203 . S
C5 O12 1.267 . S
O6 C5 1.203 . S
O7 C0 1.185 . S
O7 Zn3 2.086 . S
C8 O4 1.278 . S
C8 O9 1.211 1_455 S
O9 C8 1.211 1_655 S
C10 O2 1.284 . S
C10 O11 1.273 1_455 S
O11 C10 1.273 1_655 S
O12 Zn3 1.977 . S
O12 C5 1.267 . S
C13 O14 1.160 . S
C13 O20 1.185 . S
O14 C13 1.160 . S
O15 Zn16 1.899 . S
O15 C23 1.284 . S
Zn16 O15 1.899 . S
Zn16 O17 2.032 . S
Zn16 O20 2.086 . S
Zn16 O25 1.977 . S
O17 Zn16 2.032 . S
O17 C21 1.278 . S
C18 O19 1.203 . S
C18 O25 1.267 . S
O19 C18 1.203 . S
O20 C13 1.185 . S
O20 Zn16 2.086 . S
C21 O17 1.278 . S
C21 O22 1.211 1_545 S
O22 C21 1.211 1_565 S
C23 O15 1.284 . S
C23 O24 1.273 1_545 S
O24 C23 1.273 1_565 S
O25 Zn16 1.977 . S
O25 C18 1.267 . S
C26 O27 1.160 . S
C26 O33 1.185 . S
O27 C26 1.160 . S
O28 Zn29 1.899 . S
O28 C36 1.284 . S
Zn29 O28 1.899 . S
Zn29 O30 2.032 . S
Zn29 O33 2.086 . S
Zn29 O38 1.977 . S
O30 Zn29 2.032 . S
O30 C34 1.278 . S
C31 O32 1.203 . S
C31 O38 1.267 . S
O32 C31 1.203 . S
O33 C26 1.185 . S
O33 Zn29 2.086 . S
C34 O30 1.278 . S
C34 O35 1.211 . S
O35 C34 1.211 . S
C36 O28 1.284 . S
C36 O37 1.273 . S
O37 C36 1.273 . S
O38 Zn29 1.977 . S
O38 C31 1.267 . S
C39 O40 1.160 . S
C39 O46 1.185 . S
O40 C39 1.160 . S
O41 Zn42 1.899 . S
O41 C49 1.284 . S
Zn42 O41 1.899 . S
Zn42 O43 2.032 . S
Zn42 O46 2.086 . S
Zn42 O51 1.977 . S
O43 Zn42 2.032 . S
O43 C47 1.278 . S
C44 O45 1.203 . S
C44 O51 1.267 . S
O45 C44 1.203 . S
O46 C39 1.185 . S
O46 Zn42 2.086 . S
C47 O43 1.278 . S
C47 O48 1.211 1_655 S
O48 C47 1.211 1_455 S
C49 O41 1.284 . S
C49 O50 1.273 1_655 S
O50 C49 1.273 1_455 S
O51 Zn42 1.977 . S
O51 C44 1.267 . S
C52 O53 1.160 . S
C52 O59 1.185 . S
O53 C52 1.160 . S
O54 Zn55 1.899 . S
O54 C62 1.284 . S
Zn55 O54 1.899 . S
Zn55 O56 2.032 . S
Zn55 O59 2.086 . S
Zn55 O64 1.977 . S
O56 Zn55 2.032 . S
O56 C60 1.278 . S
C57 O58 1.203 . S
C57 O64 1.267 . S
O58 C57 1.203 . S
O59 C52 1.185 . S
O59 Zn55 2.086 . S
C60 O56 1.278 . S
C60 O61 1.211 1_565 S
O61 C60 1.211 1_545 S
C62 O54 1.284 . S
C62 O63 1.273 1_565 S
O63 C62 1.273 1_545 S
O64 Zn55 1.977 . S
O64 C57 1.267 . S
C65 O66 1.160 . S
C65 O72 1.185 . S
O66 C65 1.160 . S
O67 Zn68 1.899 . S
O67 C75 1.284 . S
Zn68 O67 1.899 . S
Zn68 O69 2.032 . S
Zn68 O72 2.086 . S
Zn68 O77 1.977 . S
O69 Zn68 2.032 . S
O69 C73 1.278 . S
C70 O71 1.203 . S
C70 O77 1.267 . S
O71 C70 1.203 . S
O72 C65 1.185 . S
O72 Zn68 2.086 . S
C73 O69 1.278 . S
C73 O74 1.211 . S
O74 C73 1.211 . S
C75 O67 1.284 . S
C75 O76 1.273 . S
O76 C75 1.273 . S
O77 Zn68 1.977 . S
O77 C70 1.267 . S
C78 O79 1.160 . S
C78 O85 1.185 . S
O79 C78 1.160 . S
O80 Zn81 1.899 . S
O80 C88 1.284 . S
Zn81 O80 1.899 . S
Zn81 O82 2.032 . S
Zn81 O85 2.086 . S
Zn81 O90 1.977 . S
O82 Zn81 2.032 . S
O82 C86 1.278 . S
C83 O84 1.203 . S
C83 O90 1.267 . S
O84 C83 1.203 . S
O85 C78 1.185 . S
O85 Zn81 2.086 . S
C86 O82 1.278 . S
C86 O87 1.211 1_565 S
O87 C86 1.211 1_545 S
C88 O80 1.284 . S
C88 O89 1.273 1_565 S
O89 C88 1.273 1_545 S
O90 Zn81 1.977 . S
O90 C83 1.267 . S
C91 O92 1.160 . S
C91 O98 1.185 . S
O92 C91 1.160 . S
O93 Zn94 1.899 . S
O93 C101 1.284 . S
Zn94 O93 1.899 . S
Zn94 O95 2.032 . S
Zn94 O98 2.086 . S
Zn94 O103 1.977 . S
O95 Zn94 2.032 . S
O95 C99 1.278 . S
C96 O97 1.203 . S
C96 O103 1.267 . S
O97 C96 1.203 . S
O98 C91 1.185 . S
O98 Zn94 2.086 . S
C99 O95 1.278 . S
C99 O100 1.211 . S
O100 C99 1.211 . S
C101 O93 1.284 . S
C101 O102 1.273 . S
O102 C101 1.273 . S
O103 Zn94 1.977 . S
O103 C96 1.267 . S
C104 O105 1.160 . S
C104 O111 1.185 . S
O105 C104 1.160 . S
O106 Zn107 1.899 . S
O106 C114 1.284 . S
Zn107 O106 1.899 . S
Zn107 O108 2.032 . S
Zn107 O111 2.086 . S
Zn107 O116 1.977 . S
O108 Zn107 2.032 . S
O108 C112 1.278 . S
C109 O110 1.203 . S
C109 O116 1.267 . S
O110 C109 1.203 . S
O111 C104 1.185 . S
O111 Zn107 2.086 . S
C112 O108 1.278 . S
C112 O113 1.211 1_455 S
O113 C112 1.211 1_655 S
C114 O106 1.284 . S
C114 O115 1.273 1_455 S
O115 C114 1.273 1_655 S
O116 Zn107 1.977 . S
O116 C109 1.267 . S
C117 O118 1.160 . S
C117 O124 1.185 . S
O118 C117 1.160 . S
O119 Zn120 1.899 . S
O119 C127 1.284 . S
Zn120 O119 1.899 . S
Zn120 O121 2.032 . S
Zn120 O124 2.086 . S
Zn120 O129 1.977 . S
O121 Zn120 2.032 . S
O121 C125 1.278 . S
C122 O123 1.203 . S
C122 O129 1.267 . S
O123 C122 1.203 . S
O124 C117 1.185 . S
O124 Zn120 2.086 . S
C125 O121 1.278 . S
C125 O126 1.211 1_545 S
O126 C125 1.211 1_565 S
C127 O119 1.284 . S
C127 O128 1.273 1_545 S
O128 C127 1.273 1_565 S
O129 Zn120 1.977 . S
O129 C122 1.267 . S
C130 O131 1.160 . S
C130 O137 1.185 . S
O131 C130 1.160 . S
O132 Zn133 1.899 . S
O132 C140 1.284 . S
Zn133 O132 1.899 . S
Zn133 O134 2.032 . S
Zn133 O137 2.086 . S
Zn133 O142 1.977 . S
O134 Zn133 2.032 . S
O134 C138 1.278 . S
C135 O136 1.203 . S
C135 O142 1.267 . S
O136 C135 1.203 . S
O137 C130 1.185 . S
O137 Zn133 2.086 . S
C138 O134 1.278 . S
C138 O139 1.211 . S
O139 C138 1.211 . S
C140 O132 1.284 . S
C140 O141 1.273 . S
O141 C140 1.273 . S
O142 Zn133 1.977 . S
O142 C135 1.267 . S
C143 O144 1.160 . S
C143 O150 1.185 . S
O144 C143 1.160 . S
O145 Zn146 1.899 . S
O145 C153 1.284 . S
Zn146 O145 1.899 . S
Zn146 O147 2.032 . S
Zn146 O150 2.086 . S
Zn146 O155 1.977 . S
O147 Zn146 2.032 . S
O147 C151 1.278 . S
C148 O149 1.203 . S
C148 O155 1.267 . S
O149 C148 1.203 . S
O150 C143 1.185 . S
O150 Zn146 2.086 . S
C151 O147 1.278 . S
C151 O152 1.211 1_655 S
O152 C151 1.211 1_455 S
C153 O145 1.284 . S
C153 O154 1.273 1_655 S
O154 C153 1.273 1_455 S
O155 Zn146 1.977 . S
O155 C148 1.267 . S
C10 C153 1.519 1_454 S
C88 C23 1.519 1_565 S
C36 C101 1.518 1_554 S
C114 C49 1.519 1_455 S
C127 C62 1.519 1_546 S
C140 C75 1.518 . S
C47 C112 1.275 1_656 S
C60 C125 1.275 1_565 S
C73 C138 1.275 1_556 S
C151 C8 1.275 1_655 S
C21 C86 1.275 1_546 S
C34 C99 1.275 . S
C109 C5 1.422 . S
C122 C18 1.422 . S
C31 C135 1.422 . S
C44 C148 1.422 . S
C57 C83 1.422 . S
C96 C70 1.422 . S
C0 C130 1.313 . S
C143 C13 1.313 . S
C26 C78 1.313 . S
C39 C91 1.313 . S
C52 C104 1.313 . S
C65 C117 1.312 . S
