# Generated by pormake.
# Topology snp, (6)-cn, num edge types: 1
# Building blocks:
#     Node 0, Type 0, BuildingBlock: JUFBIX_clean_sbu_0, # of connection points: 6
#     Node 1, Type 0, BuildingBlock: JUFBIX_clean_sbu_0, # of connection points: 6
#     Node 2, Type 0, BuildingBlock: JUFBIX_clean_sbu_0, # of connection points: 6
#     Node 3, Type 0, BuildingBlock: JUFBIX_clean_sbu_0, # of connection points: 6
#     Edge 4, Type (0, 0), None
#     Edge 5, Type (0, 0), None
#     Edge 6, Type (0, 0), None
#     Edge 7, Type (0, 0), None
#     Edge 8, Type (0, 0), None
#     Edge 9, Type (0, 0), None
#     Edge 10, Type (0, 0), None
#     Edge 11, Type (0, 0), None
#     Edge 12, Type (0, 0), None
#     Edge 13, Type (0, 0), None
#     Edge 14, Type (0, 0), None
#     Edge 15, Type (0, 0), None
# Relax obj value: 0.872
# Max RMSD: 0.300
# Mean RMSD: 0.295
data_MOF--net-snp--node1-JUFBIX_clean_sbu_0--edge1-none
_symmetry_space_group_name_H-M    P1
_symmetry_Int_Tables_number       1
_symmetry_cell_setting            triclinic
loop_
_symmetry_equiv_pos_as_xyz
'x, y, z'
_cell_length_a     12.754855
_cell_length_b     12.682409
_cell_length_c     13.569173
_cell_angle_alpha  78.821625
_cell_angle_beta   105.00724
_cell_angle_gamma 99.245541
loop_
_atom_site_label
_atom_site_type_symbol
_atom_site_fract_x
_atom_site_fract_y
_atom_site_fract_z
_atom_type_partial_charge
Co0 Co 0.30028 0.09064 0.22622 0.0
C1 C 0.47816 0.00673 0.20076 0.0
Co2 Co 0.26483 0.93932 0.16227 0.0
C3 C 0.29306 0.21541 0.37377 0.0
C4 C 0.42299 0.28675 0.30064 0.0
N5 N 0.33752 0.20804 0.29602 0.0
N6 N 0.34798 0.29333 0.42812 0.0
C7 C 0.42994 0.33963 0.3828 0.0
H8 H 0.22674 0.15855 0.39496 0.0
H9 H 0.48069 0.29997 0.25218 0.0
C10 C 0.0895 0.00459 0.20366 0.0
N11 N 0.23003 0.81907 0.09797 0.0
C12 C 0.24154 0.81285 1.00316 0.0
C13 C 0.17053 0.72607 0.1269 0.0
N14 N 0.18526 0.72256 0.96852 0.0
C15 C 0.14173 0.66735 1.04706 0.0
C16 C 0.31006 0.89914 0.37181 0.0
O17 O 0.1525 0.09045 0.22148 0.0
O18 O 0.12238 0.92927 0.17519 0.0
O19 O 0.30071 0.84974 0.29613 0.0
O20 O 0.31243 0.00082 0.35513 0.0
O21 O 0.40607 0.9434 0.15204 0.0
H22 H 0.14063 0.70752 0.19673 0.0
H23 H 0.27586 0.88067 0.9546 0.0
O24 O 0.45073 0.08291 0.23432 0.0
O25 O 0.28051 0.18452 0.095 0.0
O26 O 0.22419 0.03485 1.02865 0.0
C27 C 0.23475 0.13843 1.01685 0.0
H28 H 0.49268 0.40276 0.40969 0.0
H29 H 0.08248 0.59586 1.04235 0.0
Co30 Co 0.97369 0.22199 0.76279 0.0
C31 C 0.048 0.44246 0.72721 0.0
Co32 Co 0.12759 0.2699 0.70987 0.0
C33 C 0.83182 0.12156 0.89923 0.0
C34 C 0.79543 0.28132 0.82928 0.0
N35 N 0.85218 0.20198 0.82299 0.0
N36 N 0.77155 0.15056 0.95632 0.0
C37 C 0.74945 0.25145 0.91339 0.0
H38 H 0.87392 0.04977 0.92208 0.0
H39 H 0.79584 0.36076 0.7826 0.0
C40 C 0.0379 0.05209 0.72043 0.0
N41 N 0.24505 0.29968 0.6486 0.0
C42 C 0.24387 0.26417 0.56115 0.0
C43 C 0.33665 0.37059 0.66514 0.0
N44 N 0.3296 0.31052 0.52153 0.0
C45 C 0.38937 0.37752 0.58636 0.0
C46 C 0.17554 0.20071 0.91851 0.0
O47 O 0.96746 0.07633 0.76071 0.0
O48 O 0.11295 0.12292 0.69521 0.0
O49 O 0.22199 0.23554 0.84412 0.0
O50 O 0.07184 0.20069 0.90134 0.0
O51 O 0.13668 0.41611 0.71881 0.0
H52 H 0.3607 0.41785 0.72741 0.0
H53 H 0.17777 0.20941 0.52456 0.0
O54 O 0.97764 0.37092 0.75758 0.0
O55 O 0.88246 0.23576 0.62531 0.0
O56 O 0.03536 0.30069 0.57833 0.0
C57 C 0.93286 0.27584 0.55421 0.0
H58 H 0.70732 0.3014 0.9431 0.0
H59 H 0.46328 0.42923 0.57632 0.0
Co60 Co 0.80503 0.05607 0.25948 0.0
C61 C 0.98037 -0.00919 0.21812 0.0
Co62 Co 0.76959 0.90472 0.19558 0.0
C63 C 0.82839 0.1825 0.41862 0.0
C64 C 0.89936 0.26932 0.29484 0.0
N65 N 0.83981 0.17633 0.32376 0.0
N66 N 0.8849 0.27268 0.45327 0.0
C67 C 0.92832 0.32799 0.37472 0.0
H68 H 0.79406 0.1147 0.46719 0.0
H69 H 0.92918 0.28788 0.22497 0.0
C70 C 0.59171 -0.01138 0.22101 0.0
N71 N 0.73238 0.7873 0.12582 0.0
C72 C 0.77687 0.77992 1.04809 0.0
C73 C 0.6469 0.7086 0.12117 0.0
N74 N 0.72196 0.70201 0.99373 0.0
C75 C 0.63998 0.65572 1.03902 0.0
C76 C 0.83514 0.85699 0.40497 0.0
O77 O 0.66379 0.05199 0.26971 0.0
O78 O 0.61913 0.91243 0.18748 0.0
O79 O 0.7894 0.81087 0.32683 0.0
O80 O 0.84568 -0.03943 0.39313 0.0
O81 O 0.91738 0.90494 0.20031 0.0
H82 H 0.58917 0.69539 0.16961 0.0
H83 H 0.84319 0.83679 1.02691 0.0
O84 O 0.94748 0.06614 0.24657 0.0
O85 O 0.76914 0.14562 0.1256 0.0
O86 O 0.75742 -0.00549 1.06664 0.0
C87 C 0.75979 0.09619 1.04994 0.0
H88 H -0.01239 0.39945 0.37944 0.0
H89 H 0.57724 0.5926 1.01211 0.0
Co90 Co 0.94237 0.72554 0.71198 0.0
C91 C 0.03205 0.94333 0.70143 0.0
Co92 Co 0.09626 0.77343 0.65902 0.0
C93 C 0.82608 0.73121 0.86071 0.0
C94 C 0.73331 0.62483 0.75668 0.0
N95 N 0.82491 0.69573 0.77325 0.0
N96 N 0.74035 0.68484 0.90032 0.0
C97 C 0.68059 0.61787 0.83547 0.0
H98 H 0.89218 0.78597 0.89731 0.0
H99 H 0.70927 0.57759 0.69439 0.0
C100 C 0.02195 0.55298 0.69459 0.0
N101 N 0.21773 0.79346 0.59881 0.0
C102 C 0.23796 0.8738 0.52248 0.0
C103 C 0.27457 0.71414 0.5926 0.0
N104 N 0.29814 0.84473 0.46536 0.0
C105 C 0.32046 0.74395 0.50843 0.0
C106 C 0.13715 0.71955 0.86758 0.0
O107 O 0.93331 0.57933 0.70306 0.0
O108 O 0.09229 0.62451 0.66416 0.0
O109 O 0.18753 0.75957 0.79646 0.0
O110 O 0.03463 0.69478 0.84352 0.0
O111 O 0.10251 0.91908 0.66117 0.0
H112 H 0.27427 0.63476 0.6394 0.0
H113 H 0.19583 0.94557 0.4996 0.0
O114 O 0.95699 0.87251 0.72662 0.0
O115 O 0.84795 0.75988 0.57771 0.0
O116 O -0.00192 0.79479 0.52048 0.0
C117 C 0.89438 0.79473 0.50332 0.0
H118 H 0.60667 0.56614 0.84549 0.0
H119 H 0.36269 0.69402 0.47879 0.0
loop_
_geom_bond_atom_site_label_1
_geom_bond_atom_site_label_2
_geom_bond_distance
_geom_bond_site_symmetry_2
_ccdc_geom_bond_type
Co0 N5 2.057 . S
Co0 O17 2.021 . S
Co0 O20 2.062 . S
Co0 O24 2.117 . S
Co0 O25 2.020 . S
C1 O21 1.259 . S
C1 O24 1.258 . S
Co2 N11 2.057 1_544 S
Co2 O18 2.117 . S
Co2 O19 2.020 1_545 S
Co2 O21 2.021 . S
Co2 O26 2.062 1_554 S
C3 N5 1.316 . S
C3 N6 1.347 . S
C3 H8 0.931 . S
C4 N5 1.375 . S
C4 C7 1.350 . S
C4 H9 0.930 . S
N5 Co0 2.057 . S
N5 C3 1.316 . S
N5 C4 1.375 . S
N6 C3 1.347 . S
N6 C7 1.373 . S
C7 C4 1.350 . S
C7 N6 1.373 . S
C7 H28 0.931 . S
H8 C3 0.931 . S
H9 C4 0.930 . S
C10 O17 1.259 . S
C10 O18 1.258 . S
N11 Co2 2.057 1_566 S
N11 C12 1.316 . S
N11 C13 1.375 . S
C12 N11 1.316 . S
C12 N14 1.347 . S
C12 H23 0.931 . S
C13 N11 1.375 . S
C13 C15 1.350 . S
C13 H22 0.930 . S
N14 C12 1.347 . S
N14 C15 1.373 . S
C15 C13 1.350 . S
C15 N14 1.373 . S
C15 H29 0.931 . S
C16 O19 1.256 . S
C16 O20 1.255 1_565 S
O17 Co0 2.021 . S
O17 C10 1.259 . S
O18 Co2 2.117 . S
O18 C10 1.258 . S
O19 Co2 2.020 1_565 S
O19 C16 1.256 . S
O20 Co0 2.062 . S
O20 C16 1.255 1_545 S
O21 C1 1.259 . S
O21 Co2 2.021 . S
H22 C13 0.930 . S
H23 C12 0.931 . S
O24 Co0 2.117 . S
O24 C1 1.258 . S
O25 Co0 2.020 . S
O25 C27 1.256 1_554 S
O26 Co2 2.062 1_556 S
O26 C27 1.255 . S
C27 O25 1.256 1_556 S
C27 O26 1.255 . S
H28 C7 0.931 . S
H29 C15 0.931 . S
Co30 N35 2.057 1_455 S
Co30 O47 2.021 . S
Co30 O50 2.062 . S
Co30 O54 2.117 . S
Co30 O55 2.020 1_455 S
C31 O51 1.259 . S
C31 O54 1.258 . S
Co32 N41 2.057 . S
Co32 O48 2.117 . S
Co32 O49 2.020 . S
Co32 O51 2.021 . S
Co32 O56 2.062 . S
C33 N35 1.316 . S
C33 N36 1.347 . S
C33 H38 0.931 . S
C34 N35 1.375 . S
C34 C37 1.350 . S
C34 H39 0.930 . S
N35 Co30 2.057 1_655 S
N35 C33 1.316 . S
N35 C34 1.375 . S
N36 C33 1.347 . S
N36 C37 1.373 . S
C37 C34 1.350 . S
C37 N36 1.373 . S
C37 H58 0.931 . S
H38 C33 0.931 . S
H39 C34 0.930 . S
C40 O47 1.259 . S
C40 O48 1.258 . S
N41 Co32 2.057 . S
N41 C42 1.316 . S
N41 C43 1.375 . S
C42 N41 1.316 . S
C42 N44 1.347 . S
C42 H53 0.931 . S
C43 N41 1.375 . S
C43 C45 1.350 . S
C43 H52 0.930 . S
N44 C42 1.347 . S
N44 C45 1.373 . S
C45 C43 1.350 . S
C45 N44 1.373 . S
C45 H59 0.931 . S
C46 O49 1.256 . S
C46 O50 1.255 . S
O47 Co30 2.021 . S
O47 C40 1.259 . S
O48 Co32 2.117 . S
O48 C40 1.258 . S
O49 Co32 2.020 . S
O49 C46 1.256 . S
O50 Co30 2.062 . S
O50 C46 1.255 . S
O51 C31 1.259 . S
O51 Co32 2.021 . S
H52 C43 0.930 . S
H53 C42 0.931 . S
O54 Co30 2.117 . S
O54 C31 1.258 . S
O55 Co30 2.020 1_655 S
O55 C57 1.256 . S
O56 Co32 2.062 . S
O56 C57 1.255 1_455 S
C57 O55 1.256 . S
C57 O56 1.255 1_655 S
H58 C37 0.931 . S
H59 C45 0.931 . S
Co60 N65 2.057 . S
Co60 O77 2.021 . S
Co60 O80 2.062 1_545 S
Co60 O84 2.117 . S
Co60 O85 2.020 . S
C61 O81 1.259 1_455 S
C61 O84 1.258 1_465 S
Co62 N71 2.057 . S
Co62 O78 2.117 . S
Co62 O79 2.020 . S
Co62 O81 2.021 . S
Co62 O86 2.062 1_565 S
C63 N65 1.316 . S
C63 N66 1.347 . S
C63 H68 0.931 . S
C64 N65 1.375 . S
C64 C67 1.350 1_655 S
C64 H69 0.930 1_655 S
N65 Co60 2.057 . S
N65 C63 1.316 . S
N65 C64 1.375 . S
N66 C63 1.347 . S
N66 C67 1.373 1_655 S
C67 C64 1.350 1_455 S
C67 N66 1.373 1_455 S
C67 H88 0.931 . S
H68 C63 0.931 . S
H69 C64 0.930 1_455 S
C70 O77 1.259 . S
C70 O78 1.258 1_545 S
N71 Co62 2.057 . S
N71 C72 1.316 1_554 S
N71 C73 1.375 1_554 S
C72 N71 1.316 1_556 S
C72 N74 1.347 . S
C72 H83 0.931 . S
C73 N71 1.375 1_556 S
C73 C75 1.350 . S
C73 H82 0.930 1_556 S
N74 C72 1.347 . S
N74 C75 1.373 . S
C75 C73 1.350 . S
C75 N74 1.373 . S
C75 H89 0.931 . S
C76 O79 1.256 . S
C76 O80 1.255 . S
O77 Co60 2.021 . S
O77 C70 1.259 . S
O78 Co62 2.117 . S
O78 C70 1.258 1_565 S
O79 Co62 2.020 . S
O79 C76 1.256 . S
O80 Co60 2.062 1_565 S
O80 C76 1.255 . S
O81 C61 1.259 1_655 S
O81 Co62 2.021 . S
H82 C73 0.930 1_554 S
H83 C72 0.931 . S
O84 Co60 2.117 . S
O84 C61 1.258 1_645 S
O85 Co60 2.020 . S
O85 C87 1.256 . S
O86 Co62 2.062 1_545 S
O86 C87 1.255 . S
C87 O85 1.256 . S
C87 O86 1.255 . S
H88 C67 0.931 . S
H89 C75 0.931 . S
Co90 N95 2.057 . S
Co90 O107 2.021 . S
Co90 O110 2.062 1_655 S
Co90 O114 2.117 . S
Co90 O115 2.020 . S
C91 O111 1.259 1_545 S
C91 O114 1.258 1_445 S
Co92 N101 2.057 . S
Co92 O108 2.117 . S
Co92 O109 2.020 . S
Co92 O111 2.021 . S
Co92 O116 2.062 1_455 S
C93 N95 1.316 . S
C93 N96 1.347 . S
C93 H98 0.931 . S
C94 N95 1.375 . S
C94 C97 1.350 . S
C94 H99 0.930 . S
N95 Co90 2.057 . S
N95 C93 1.316 . S
N95 C94 1.375 . S
N96 C93 1.347 . S
N96 C97 1.373 . S
C97 C94 1.350 . S
C97 N96 1.373 . S
C97 H118 0.931 . S
H98 C93 0.931 . S
H99 C94 0.930 . S
C100 O107 1.259 . S
C100 O108 1.258 1_655 S
N101 Co92 2.057 . S
N101 C102 1.316 . S
N101 C103 1.375 . S
C102 N101 1.316 . S
C102 N104 1.347 . S
C102 H113 0.931 . S
C103 N101 1.375 . S
C103 C105 1.350 . S
C103 H112 0.930 . S
N104 C102 1.347 . S
N104 C105 1.373 . S
C105 C103 1.350 . S
C105 N104 1.373 . S
C105 H119 0.931 . S
C106 O109 1.256 . S
C106 O110 1.255 . S
O107 Co90 2.021 . S
O107 C100 1.259 . S
O108 Co92 2.117 . S
O108 C100 1.258 1_455 S
O109 Co92 2.020 . S
O109 C106 1.256 . S
O110 Co90 2.062 1_455 S
O110 C106 1.255 . S
O111 C91 1.259 1_565 S
O111 Co92 2.021 . S
H112 C103 0.930 . S
H113 C102 0.931 . S
O114 Co90 2.117 . S
O114 C91 1.258 1_665 S
O115 Co90 2.020 . S
O115 C117 1.256 . S
O116 Co92 2.062 1_655 S
O116 C117 1.255 . S
C117 O115 1.256 . S
C117 O116 1.255 . S
H118 C97 0.931 . S
H119 C105 0.931 . S
C61 C10 2.325 1_565 S
C91 C40 2.640 . S
C70 C1 1.374 . S
C31 C100 1.766 1_455 S
N44 N6 1.470 . S
N36 C87 1.848 1_556 S
C117 C76 2.076 . S
C106 N14 1.477 . S
N74 N96 1.470 . S
C16 N104 1.848 . S
C46 C27 2.076 . S
N66 C57 1.477 . S
