# Generated by pormake.
# Topology pcu, (6)-cn, num edge types: 1
# Building blocks:
#     Node 0, Type 0, BuildingBlock: LEVNOQ01_clean_sbu_1, # of connection points: 6
#     Edge 1, Type (0, 0), BuildingBlock: FUNLAD_clean_linker_1, # of connection points: 2
#     Edge 2, Type (0, 0), BuildingBlock: FUNLAD_clean_linker_1, # of connection points: 2
#     Edge 3, Type (0, 0), BuildingBlock: FUNLAD_clean_linker_1, # of connection points: 2
# Relax obj value: 0.007
# Max RMSD: 0.050
# Mean RMSD: 0.050
data_MOF--net-pcu--node1-LEVNOQ01_clean_sbu_1--edge1-FUNLAD_clean_linker_1
_symmetry_space_group_name_H-M    P1
_symmetry_Int_Tables_number       1
_symmetry_cell_setting            triclinic
loop_
_symmetry_equiv_pos_as_xyz
'x, y, z'
_cell_length_a     16.524535
_cell_length_b     16.654504
_cell_length_c     16.213959
_cell_angle_alpha  79.618919
_cell_angle_beta   100.65626
_cell_angle_gamma 100.95987
loop_
_atom_site_label
_atom_site_type_symbol
_atom_site_fract_x
_atom_site_fract_y
_atom_site_fract_z
_atom_type_partial_charge
O0 O 0.8341 0.11289 0.91255 0.0
Mg1 Mg 0.94286 0.13338 0.85403 0.0
O2 O 0.85622 -0.00279 0.00103 0.0
Mg3 Mg -0.00145 -0.00394 -0.00155 0.0
O4 O 0.97496 0.02233 0.85494 0.0
O5 O 0.93595 0.10465 0.73525 0.0
O6 O 0.14119 -0.00338 0.99466 0.0
O7 O 0.96891 0.85657 0.97165 0.0
Mg8 Mg 0.05051 0.86232 0.13134 0.0
O9 O 0.0207 0.9714 0.1443 0.0
O10 O 0.1604 0.87752 0.07665 0.0
O11 O 0.94777 0.77682 0.09109 0.0
O12 O 0.06477 0.87815 0.25396 0.0
C13 C 0.05206 0.20669 0.98046 0.0
C14 C 0.80972 0.05155 0.96614 0.0
C15 C 0.9616 0.03699 0.77316 0.0
C16 C 0.1866 0.94076 0.02648 0.0
C17 C 0.94453 0.78528 0.0118 0.0
C18 C 0.03743 0.94704 0.22517 0.0
O19 O 0.04704 0.21413 0.90092 0.0
O20 O 0.02823 0.13612 0.0225 0.0
H21 H 0.08616 0.02696 0.32033 0.0
C22 C 0.02852 -0.00252 0.28597 0.0
H23 H 0.90302 0.94486 0.28974 0.0
H24 H 0.00873 0.83392 0.68241 0.0
H25 H 0.95697 0.70317 0.62978 0.0
H26 H 0.90936 0.69942 0.47684 0.0
H27 H 0.91307 0.82573 0.37607 0.0
C28 C 0.95882 0.98041 0.32082 0.0
C29 C 0.96697 0.98434 0.41238 0.0
C30 C 0.96236 0.90939 0.47036 0.0
C31 C 0.98875 0.91141 0.55841 0.0
C32 C 0.98715 0.83581 0.61499 0.0
C33 C 0.95826 0.76033 0.58558 0.0
C34 C 0.93157 0.75822 0.49951 0.0
C35 C 0.93403 0.83152 0.44224 0.0
H36 H 0.91014 0.94288 0.69431 0.0
C37 C 0.96897 0.97665 0.72186 0.0
H38 H 0.09119 0.03044 0.70539 0.0
H39 H 0.97254 0.13811 0.318 0.0
H40 H 0.02039 0.2695 0.37051 0.0
H41 H 0.06661 0.2739 0.52352 0.0
H42 H 0.06561 0.14799 0.62434 0.0
C43 C 0.03416 0.9922 0.68025 0.0
C44 C 0.01736 0.98833 0.58811 0.0
C45 C 0.01944 0.06349 0.53022 0.0
C46 C 0.99338 0.06129 0.44221 0.0
C47 C 0.99374 0.13671 0.38545 0.0
C48 C 0.02035 0.21244 0.41478 0.0
C49 C 0.04628 0.2149 0.50087 0.0
C50 C 0.04556 0.14169 0.55821 0.0
H51 H 0.29119 0.88686 0.0066 0.0
C52 C 0.27069 0.94541 0.00562 0.0
H53 H 0.31055 0.07354 0.00587 0.0
H54 H 0.67916 0.99346 0.15398 0.0
H55 H 0.63781 0.02404 0.2796 0.0
H56 H 0.49485 0.04895 0.27725 0.0
H57 H 0.39217 0.0432 0.14939 0.0
C58 C 0.32676 0.01506 -0.00087 0.0
C59 C 0.41566 0.00958 -0.00275 0.0
C60 C 0.47548 0.01487 0.07196 0.0
C61 C 0.55832 0.00135 0.07315 0.0
C62 C 0.61596 0.00471 0.14928 0.0
C63 C 0.59293 0.02178 0.22191 0.0
C64 C 0.51238 0.03569 0.22061 0.0
C65 C 0.45404 0.03219 0.14679 0.0
H66 H 0.7053 0.10654 0.9846 0.0
C67 C 0.72613 0.04771 0.98784 0.0
H68 H 0.68694 0.91889 0.9931 0.0
H69 H 0.31867 0.00101 0.84218 0.0
H70 H 0.36012 0.97066 0.71654 0.0
H71 H 0.50291 0.94515 0.71912 0.0
H72 H 0.60533 0.95017 0.84724 0.0
C73 C 0.67058 0.97799 -0.00252 0.0
C74 C 0.58177 0.98377 -0.00067 0.0
C75 C 0.52201 0.97865 0.92457 0.0
C76 C 0.43922 0.99228 0.92333 0.0
C77 C 0.38176 0.98943 0.84702 0.0
C78 C 0.40487 0.97253 0.77436 0.0
C79 C 0.48532 0.9583 0.77578 0.0
C80 C 0.54351 0.96139 0.84974 0.0
H81 H 0.9706 0.71881 0.91641 0.0
C82 C 0.94286 0.71069 0.97376 0.0
H83 H 0.90017 0.62728 0.07642 0.0
H84 H 0.98125 0.38055 0.82684 0.0
H85 H 0.88126 0.43957 0.7155 0.0
H86 H 0.81541 0.55406 0.73587 0.0
H87 H 0.84957 0.61011 0.86811 0.0
C88 C 0.92683 0.63457 0.01852 0.0
C89 C 0.96449 0.5642 0.00518 0.0
C90 C 0.94264 0.53096 0.92803 0.0
C91 C 0.98021 0.4643 0.9168 0.0
C92 C 0.95628 0.43193 0.83909 0.0
C93 C 0.89827 0.46489 0.77447 0.0
C94 C 0.86124 0.52935 0.78591 0.0
C95 C 0.88215 0.56155 0.86196 0.0
H96 H 0.02908 0.27647 0.07466 0.0
C97 C 0.05637 0.28255 0.01733 0.0
H98 H 0.10097 0.36306 0.91381 0.0
H99 H 0.02388 0.6153 0.1606 0.0
H100 H 0.12542 0.55754 0.27119 0.0
H101 H 0.191 0.44284 0.25083 0.0
H102 H 0.15495 0.38525 0.11942 0.0
C103 C 0.07428 0.35779 0.97137 0.0
C104 C 0.03879 0.43007 0.98332 0.0
C105 C 0.06138 0.46396 0.06003 0.0
C106 C 0.0239 0.53067 0.07123 0.0
C107 C 0.04869 0.56375 0.1485 0.0
C108 C 0.1076 0.53155 0.21262 0.0
C109 C 0.14448 0.46697 0.2012 0.0
C110 C 0.12253 0.4339 0.12567 0.0
loop_
_geom_bond_atom_site_label_1
_geom_bond_atom_site_label_2
_geom_bond_distance
_geom_bond_site_symmetry_2
_ccdc_geom_bond_type
O0 Mg1 1.990 . S
O0 C14 1.253 . S
Mg1 O0 1.990 . S
Mg1 O4 2.180 . S
Mg1 O5 2.117 . S
Mg1 O19 2.030 . S
O2 Mg3 2.072 1_665 S
O2 C14 1.260 1_564 S
Mg3 O2 2.072 1_445 S
Mg3 O4 2.099 1_454 S
Mg3 O6 2.079 1_554 S
Mg3 O7 2.072 1_444 S
Mg3 O9 2.099 1_545 S
Mg3 O20 2.079 . S
O4 Mg1 2.180 . S
O4 Mg3 2.099 1_656 S
O4 C15 1.279 . S
O5 Mg1 2.117 . S
O5 C15 1.250 . S
O6 Mg3 2.079 1_556 S
O6 C16 1.264 1_546 S
O7 Mg3 2.072 1_666 S
O7 C17 1.260 1_656 S
Mg8 O9 2.180 . S
Mg8 O10 2.030 . S
Mg8 O11 1.990 . S
Mg8 O12 2.117 . S
O9 Mg3 2.099 1_565 S
O9 Mg8 2.180 . S
O9 C18 1.279 . S
O10 Mg8 2.030 . S
O10 C16 1.248 . S
O11 Mg8 1.990 . S
O11 C17 1.253 . S
O12 Mg8 2.117 . S
O12 C18 1.250 . S
C13 O19 1.248 . S
C13 O20 1.264 1_656 S
C14 O0 1.253 . S
C14 O2 1.260 1_546 S
C15 O4 1.279 . S
C15 O5 1.250 . S
C16 O6 1.264 1_564 S
C16 O10 1.248 . S
C17 O7 1.260 1_454 S
C17 O11 1.253 . S
C18 O9 1.279 . S
C18 O12 1.250 . S
O19 Mg1 2.030 . S
O19 C13 1.248 . S
O20 Mg3 2.079 . S
O20 C13 1.264 1_454 S
H21 C22 0.951 1_445 S
C22 H21 0.951 1_665 S
C22 C28 1.265 . S
H23 C28 0.950 . S
H24 C32 0.949 . S
H25 C33 0.950 . S
H26 C34 0.951 . S
H27 C35 0.951 . S
C28 C22 1.265 . S
C28 H23 0.950 . S
C28 C29 1.478 . S
C29 C28 1.478 . S
C29 C30 1.397 . S
C29 C46 1.394 1_665 S
C30 C29 1.397 . S
C30 C31 1.438 . S
C30 C35 1.429 . S
C31 C30 1.438 . S
C31 C32 1.428 . S
C31 C44 1.394 1_655 S
C32 H24 0.949 . S
C32 C31 1.428 . S
C32 C33 1.345 . S
C33 H25 0.950 . S
C33 C32 1.345 . S
C33 C34 1.424 . S
C34 H26 0.951 . S
C34 C33 1.424 . S
C34 C35 1.347 . S
C35 H27 0.951 . S
C35 C30 1.429 . S
C35 C34 1.347 . S
H36 C37 0.951 . S
C37 H36 0.951 . S
C37 C43 1.265 1_655 S
H38 C43 0.949 1_545 S
H39 C47 0.949 . S
H40 C48 0.950 . S
H41 C49 0.951 . S
H42 C50 0.951 . S
C43 C37 1.265 1_455 S
C43 H38 0.949 1_565 S
C43 C44 1.479 . S
C44 C31 1.394 1_455 S
C44 C43 1.479 . S
C44 C45 1.397 1_565 S
C45 C44 1.397 1_545 S
C45 C46 1.438 . S
C45 C50 1.429 . S
C46 C29 1.394 1_445 S
C46 C45 1.438 . S
C46 C47 1.428 . S
C47 H39 0.949 . S
C47 C46 1.428 . S
C47 C48 1.345 . S
C48 H40 0.950 . S
C48 C47 1.345 . S
C48 C49 1.424 . S
C49 H41 0.951 . S
C49 C48 1.424 . S
C49 C50 1.347 . S
C50 H42 0.951 . S
C50 C45 1.429 . S
C50 C49 1.347 . S
H51 C52 0.951 1_556 S
C52 H51 0.951 1_554 S
C52 C58 1.265 1_565 S
H53 C58 0.950 . S
H54 C62 0.949 . S
H55 C63 0.950 . S
H56 C64 0.951 . S
H57 C65 0.951 . S
C58 C52 1.265 1_545 S
C58 H53 0.950 . S
C58 C59 1.478 . S
C59 C58 1.478 . S
C59 C60 1.397 . S
C59 C76 1.394 1_544 S
C60 C59 1.397 . S
C60 C61 1.438 . S
C60 C65 1.429 . S
C61 C60 1.438 . S
C61 C62 1.428 . S
C61 C74 1.394 1_545 S
C62 H54 0.949 . S
C62 C61 1.428 . S
C62 C63 1.345 . S
C63 H55 0.950 . S
C63 C62 1.345 . S
C63 C64 1.424 . S
C64 H56 0.951 . S
C64 C63 1.424 . S
C64 C65 1.347 . S
C65 H57 0.951 . S
C65 C60 1.429 . S
C65 C64 1.347 . S
H66 C67 0.951 . S
C67 H66 0.951 . S
C67 C73 1.265 1_544 S
H68 C73 0.950 . S
H69 C77 0.949 1_545 S
H70 C78 0.950 . S
H71 C79 0.951 . S
H72 C80 0.951 . S
C73 C67 1.265 1_566 S
C73 H68 0.950 . S
C73 C74 1.478 1_556 S
C74 C61 1.394 1_565 S
C74 C73 1.478 1_554 S
C74 C75 1.396 1_554 S
C75 C74 1.396 1_556 S
C75 C76 1.438 . S
C75 C80 1.429 . S
C76 C59 1.394 1_566 S
C76 C75 1.438 . S
C76 C77 1.428 . S
C77 H69 0.949 1_565 S
C77 C76 1.428 . S
C77 C78 1.345 . S
C78 H70 0.950 . S
C78 C77 1.345 . S
C78 C79 1.424 . S
C79 H71 0.951 . S
C79 C78 1.424 . S
C79 C80 1.347 . S
C80 H72 0.951 . S
C80 C75 1.429 . S
C80 C79 1.347 . S
H81 C82 0.951 1_554 S
C82 H81 0.951 1_556 S
C82 C88 1.265 1_455 S
H83 C88 0.950 . S
H84 C92 0.949 . S
H85 C93 0.950 . S
H86 C94 0.951 . S
H87 C95 0.951 . S
C88 C82 1.265 1_655 S
C88 H83 0.950 . S
C88 C89 1.478 . S
C89 C88 1.478 . S
C89 C90 1.397 . S
C89 C106 1.394 1_656 S
C90 C89 1.397 . S
C90 C91 1.438 . S
C90 C95 1.429 . S
C91 C90 1.438 . S
C91 C92 1.428 . S
C91 C104 1.394 1_655 S
C92 H84 0.949 . S
C92 C91 1.428 . S
C92 C93 1.345 . S
C93 H85 0.950 . S
C93 C92 1.345 . S
C93 C94 1.424 . S
C94 H86 0.951 . S
C94 C93 1.424 . S
C94 C95 1.347 . S
C95 H87 0.951 . S
C95 C90 1.429 . S
C95 C94 1.347 . S
H96 C97 0.951 . S
C97 H96 0.951 . S
C97 C103 1.265 1_656 S
H98 C103 0.950 . S
H99 C107 0.949 . S
H100 C108 0.950 . S
H101 C109 0.951 . S
H102 C110 0.951 . S
C103 C97 1.265 1_454 S
C103 H98 0.950 . S
C103 C104 1.478 1_554 S
C104 C91 1.394 1_455 S
C104 C103 1.478 1_556 S
C104 C105 1.397 1_556 S
C105 C104 1.397 1_554 S
C105 C106 1.438 . S
C105 C110 1.429 . S
C106 C89 1.394 1_454 S
C106 C105 1.438 . S
C106 C107 1.428 . S
C107 H99 0.949 . S
C107 C106 1.428 . S
C107 C108 1.345 . S
C108 H100 0.950 . S
C108 C107 1.345 . S
C108 C109 1.424 . S
C109 H101 0.951 . S
C109 C108 1.424 . S
C109 C110 1.347 . S
C110 H102 0.951 . S
C110 C105 1.429 . S
C110 C109 1.347 . S
C22 C18 1.241 1_655 S
C37 C15 1.241 1_565 S
C52 C16 1.420 . S
C67 C14 1.431 1_554 S
C82 C17 1.426 1_556 S
C97 C13 1.415 . S
