# Generated by pormake.
# Topology ukh, (4)-cn, num edge types: 1
# Building blocks:
#     Node 0, Type 0, BuildingBlock: CEKHIL_clean_sbu_0, # of connection points: 4
#     Node 1, Type 0, BuildingBlock: CEKHIL_clean_sbu_0, # of connection points: 4
#     Node 2, Type 0, BuildingBlock: CEKHIL_clean_sbu_0, # of connection points: 4
#     Node 3, Type 0, BuildingBlock: CEKHIL_clean_sbu_0, # of connection points: 4
#     Node 4, Type 0, BuildingBlock: CEKHIL_clean_sbu_0, # of connection points: 4
#     Node 5, Type 0, BuildingBlock: CEKHIL_clean_sbu_0, # of connection points: 4
#     Node 6, Type 0, BuildingBlock: CEKHIL_clean_sbu_0, # of connection points: 4
#     Node 7, Type 0, BuildingBlock: CEKHIL_clean_sbu_0, # of connection points: 4
#     Node 8, Type 0, BuildingBlock: CEKHIL_clean_sbu_0, # of connection points: 4
#     Node 9, Type 0, BuildingBlock: CEKHIL_clean_sbu_0, # of connection points: 4
#     Node 10, Type 0, BuildingBlock: CEKHIL_clean_sbu_0, # of connection points: 4
#     Node 11, Type 0, BuildingBlock: CEKHIL_clean_sbu_0, # of connection points: 4
#     Edge 12, Type (0, 0), None
#     Edge 13, Type (0, 0), None
#     Edge 14, Type (0, 0), None
#     Edge 15, Type (0, 0), None
#     Edge 16, Type (0, 0), None
#     Edge 17, Type (0, 0), None
#     Edge 18, Type (0, 0), None
#     Edge 19, Type (0, 0), None
#     Edge 20, Type (0, 0), None
#     Edge 21, Type (0, 0), None
#     Edge 22, Type (0, 0), None
#     Edge 23, Type (0, 0), None
#     Edge 24, Type (0, 0), None
#     Edge 25, Type (0, 0), None
#     Edge 26, Type (0, 0), None
#     Edge 27, Type (0, 0), None
#     Edge 28, Type (0, 0), None
#     Edge 29, Type (0, 0), None
#     Edge 30, Type (0, 0), None
#     Edge 31, Type (0, 0), None
#     Edge 32, Type (0, 0), None
#     Edge 33, Type (0, 0), None
#     Edge 34, Type (0, 0), None
#     Edge 35, Type (0, 0), None
# Relax obj value: 0.070
# Max RMSD: 0.095
# Mean RMSD: 0.095
data_MOF--net-ukh--node1-CEKHIL_clean_sbu_0--edge1-none
_symmetry_space_group_name_H-M    P1
_symmetry_Int_Tables_number       1
_symmetry_cell_setting            triclinic
loop_
_symmetry_equiv_pos_as_xyz
'x, y, z'
_cell_length_a     14.354823
_cell_length_b     14.358594
_cell_length_c     27.470167
_cell_angle_alpha  90.000072
_cell_angle_beta   89.999963
_cell_angle_gamma 120.01797
loop_
_atom_site_label
_atom_site_type_symbol
_atom_site_fract_x
_atom_site_fract_y
_atom_site_fract_z
_atom_type_partial_charge
Co0 Co 0.33649 0.28826 0.03407 0.0
O1 O 0.38415 0.4287 0.06185 0.0
O2 O 0.49098 0.38131 0.02506 0.0
C3 C 0.19776 0.27919 -0.00638 0.0
O4 O 0.30207 0.14826 -0.00143 0.0
Co5 Co 0.11135 0.10879 0.06939 0.0
O6 O 0.15215 0.01466 0.03364 0.0
C7 C 0.28878 0.18804 0.13172 0.0
C8 C 0.47829 0.45679 0.04512 0.0
C9 C 0.22861 0.04786 0.00282 0.0
O10 O 0.35728 0.22732 0.09703 0.0
O11 O 0.19836 0.18362 0.12803 0.0
O12 O 0.29344 0.33114 0.97522 0.0
O13 O 0.19115 0.24821 0.03825 0.0
Co14 Co 0.0621 0.32968 0.36729 0.0
O15 O 0.96921 0.37728 0.39499 0.0
O16 O 0.12352 0.4841 0.35822 0.0
C17 C 0.93246 0.19083 0.32688 0.0
O18 O 0.16778 0.29527 0.33187 0.0
Co19 Co 1.01649 0.10465 0.40274 0.0
O20 O 0.15162 0.14559 0.36708 0.0
C21 C 0.11409 0.28211 0.46496 0.0
C22 C 0.03528 0.47139 0.37824 0.0
C23 C 0.19478 0.22189 0.33619 0.0
O24 O 0.14377 0.35063 0.43028 0.0
O25 O 0.02783 0.19196 0.46114 0.0
O26 O 0.97617 0.28644 0.30843 0.0
O27 O 0.95685 0.18435 0.37152 0.0
Co28 Co 0.74618 0.055 0.70075 0.0
O29 O 0.60569 0.96226 0.72855 0.0
O30 O 0.65325 0.11653 0.69178 0.0
C31 C 0.75503 0.9253 0.66027 0.0
O32 O 0.88626 0.16055 0.66524 0.0
Co33 Co 0.92549 1.00918 0.73601 0.0
O34 O 1.01979 0.14424 0.70036 0.0
C35 C 0.84664 0.10763 0.79841 0.0
C36 C 0.57769 0.02835 0.71183 0.0
C37 C 0.98666 0.18749 0.66951 0.0
O38 O 0.80727 0.13673 0.76372 0.0
O39 O 0.85114 0.02169 0.79475 0.0
O40 O 0.70315 0.96909 0.64189 0.0
O41 O 0.78604 0.94961 0.7049 0.0
Co42 Co 0.70488 0.7393 0.03406 0.0
O43 O 0.65723 0.59886 0.06185 0.0
O44 O 0.55039 0.64624 0.02507 0.0
C45 C 0.84361 0.74837 -0.00639 0.0
O46 O 0.73928 0.8793 -0.00143 0.0
Co47 Co 0.93002 0.91877 0.06937 0.0
O48 O 0.8892 1.0129 0.03364 0.0
C49 C 0.75261 0.83951 0.13172 0.0
C50 C 0.5631 0.57076 0.04511 0.0
C51 C 0.81274 0.9797 0.00282 0.0
O52 O 0.68409 0.80023 0.09703 0.0
O53 O 0.84302 0.84394 0.12802 0.0
O54 O 0.74793 0.69642 0.97521 0.0
O55 O 0.85022 0.77935 0.03824 0.0
Co56 Co 0.97927 0.69784 0.36728 0.0
O57 O 0.07218 0.65026 0.39498 0.0
O58 O 0.91787 0.54342 0.35822 0.0
C59 C 0.1089 0.83669 0.32687 0.0
O60 O 0.87358 0.73224 0.33187 0.0
Co61 Co 0.02486 0.92287 0.40273 0.0
O62 O 0.88971 0.8819 0.36709 0.0
C63 C 0.92732 0.74543 0.46496 0.0
C64 C 1.00612 0.55615 0.37823 0.0
C65 C 0.84656 0.80561 0.33619 0.0
O66 O 0.89762 0.6769 0.43028 0.0
O67 O 1.01358 0.83557 0.46113 0.0
O68 O 0.06519 0.74107 0.30842 0.0
O69 O 0.08451 0.84318 0.37151 0.0
Co70 Co 0.29522 0.97256 0.70075 0.0
O71 O 0.43572 0.06531 0.72855 0.0
O72 O 0.38816 0.91104 0.69178 0.0
C73 C 0.28636 0.10225 0.66027 0.0
O74 O 0.15514 0.867 0.66525 0.0
Co75 Co 0.11591 0.01837 0.73602 0.0
O76 O 0.02161 0.8833 0.70037 0.0
C77 C 0.19479 0.91995 0.79841 0.0
C78 C 0.46372 0.99923 0.71183 0.0
C79 C 0.05474 0.84006 0.66952 0.0
O80 O 0.23415 0.89083 0.76372 0.0
O81 O 0.19031 1.00589 0.79474 0.0
O82 O 0.33825 0.05847 0.64189 0.0
O83 O 0.25535 0.07794 0.7049 0.0
Co84 Co 0.74617 0.69804 0.5952 0.0
O85 O 0.60567 0.65028 0.56744 0.0
O86 O 0.65325 0.54358 0.6042 0.0
C87 C 0.75505 0.83661 0.63566 0.0
O88 O 0.88629 0.73264 0.63067 0.0
Co89 Co 0.92558 0.923 0.55991 0.0
O90 O 1.01997 0.88148 0.59498 0.0
C91 C 0.84619 0.74574 0.49751 0.0
C92 C 0.57768 0.55619 0.58416 0.0
C93 C 0.9868 0.8056 0.62608 0.0
O94 O 0.80709 0.6773 0.53222 0.0
O95 O 0.85073 0.83618 0.50123 0.0
O96 O 0.70323 0.74095 0.65407 0.0
O97 O 0.78608 0.84333 0.59103 0.0
Co98 Co 0.06204 0.73924 0.92867 0.0
O99 O 0.96915 0.5987 0.901 0.0
O100 O 0.12351 0.64632 0.93776 0.0
C101 C 0.93239 0.74836 0.96907 0.0
O102 O 0.16768 0.87944 0.96404 0.0
Co103 Co 1.01662 0.91867 0.8932 0.0
O104 O 0.15269 1.01305 0.92822 0.0
C105 C 0.11372 0.83842 0.83096 0.0
C106 C 0.03525 0.57073 0.91775 0.0
C107 C 0.19529 0.97992 0.95939 0.0
O108 O 0.14363 0.79986 0.86566 0.0
O109 O 0.02749 0.84232 0.83483 0.0
O110 O 0.97618 0.69657 -0.01246 0.0
O111 O 0.95674 0.77926 0.92443 0.0
Co112 Co 0.33659 0.05516 0.26197 0.0
O113 O 0.38419 0.96228 0.23429 0.0
O114 O 0.49103 0.11657 0.27106 0.0
C115 C 0.19772 0.92553 0.30236 0.0
O116 O 0.30212 0.1608 0.29736 0.0
Co117 Co 0.11168 1.00981 0.22652 0.0
O118 O 0.15334 0.14572 0.26163 0.0
C119 C 0.28911 0.10694 0.16427 0.0
C120 C 0.4783 0.02834 0.25104 0.0
C121 C 0.22921 0.18837 0.29276 0.0
O122 O 0.3576 0.13676 0.19897 0.0
O123 O 0.19889 0.02077 0.16812 0.0
O124 O 0.29334 0.96929 0.32083 0.0
O125 O 0.1912 0.94991 0.25772 0.0
Co126 Co 0.29523 0.32952 0.5952 0.0
O127 O 0.43573 0.37726 0.56744 0.0
O128 O 0.38817 0.48397 0.6042 0.0
C129 C 0.28633 0.19094 0.63567 0.0
O130 O 0.15511 0.29492 0.63066 0.0
Co131 Co 0.11581 0.10456 0.5599 0.0
O132 O 0.02143 0.1461 0.59497 0.0
C133 C 0.19524 0.28182 0.4975 0.0
C134 C 0.46373 0.47135 0.58417 0.0
C135 C 0.0546 0.22196 0.62608 0.0
O136 O 0.23432 0.35026 0.53222 0.0
O137 O 0.19072 0.19139 0.50123 0.0
O138 O 0.33816 0.2866 0.65407 0.0
O139 O 0.25532 0.18422 0.59103 0.0
Co140 Co 0.97933 0.28832 0.92867 0.0
O141 O 0.07224 0.42886 0.90101 0.0
O142 O 0.91787 0.38125 0.93776 0.0
C143 C 0.10897 0.27918 0.96908 0.0
O144 O 0.87367 0.14812 0.96404 0.0
Co145 Co 0.02474 0.10888 0.89321 0.0
O146 O 0.88864 0.0145 0.92821 0.0
C147 C 0.92769 0.18916 0.83096 0.0
C148 C 1.00614 0.45683 0.91776 0.0
C149 C 0.84605 0.04764 0.95939 0.0
O150 O 0.89776 0.22771 0.86566 0.0
O151 O 1.01393 0.18527 0.83484 0.0
O152 O 0.06518 0.33098 -0.01245 0.0
O153 O 0.08462 0.24829 0.92444 0.0
Co154 Co 0.70478 0.97236 0.26198 0.0
O155 O 0.6572 0.06525 0.23429 0.0
O156 O 0.55034 0.91096 0.27106 0.0
C157 C 0.84365 0.10199 0.30237 0.0
O158 O 0.73924 0.86671 0.29737 0.0
Co159 Co 0.92969 0.0177 0.22653 0.0
O160 O 0.88801 0.88178 0.26163 0.0
C161 C 0.75227 0.9206 0.16427 0.0
C162 C 0.56308 0.9992 0.25105 0.0
C163 C 0.81214 0.83913 0.29276 0.0
O164 O 0.68378 0.89077 0.19897 0.0
O165 O 0.8425 1.00677 0.16813 0.0
O166 O 0.74802 0.05822 0.32084 0.0
O167 O 0.85018 0.07761 0.25773 0.0
loop_
_geom_bond_atom_site_label_1
_geom_bond_atom_site_label_2
_geom_bond_distance
_geom_bond_site_symmetry_2
_ccdc_geom_bond_type
Co0 O1 2.216 . S
Co0 O2 2.091 . S
Co0 O4 2.004 1_554 S
Co0 O10 2.021 . S
Co0 O12 2.137 1_554 S
Co0 O13 2.244 . S
O1 Co0 2.216 . S
O1 C8 1.247 . S
O2 Co0 2.091 . S
O2 C8 1.261 . S
C3 O12 1.247 1_554 S
C3 O13 1.272 . S
O4 Co0 2.004 1_556 S
O4 C9 1.259 1_556 S
Co5 O6 2.061 . S
Co5 O11 2.052 . S
Co5 O13 2.135 . S
O6 Co5 2.061 . S
O6 C9 1.235 . S
C7 O10 1.238 . S
C7 O11 1.241 . S
C8 O1 1.247 . S
C8 O2 1.261 . S
C9 O4 1.259 1_554 S
C9 O6 1.235 . S
O10 Co0 2.021 . S
O10 C7 1.238 . S
O11 Co5 2.052 . S
O11 C7 1.241 . S
O12 Co0 2.137 1_556 S
O12 C3 1.247 1_556 S
O13 Co0 2.244 . S
O13 C3 1.272 . S
O13 Co5 2.135 . S
Co14 O15 2.216 1_455 S
Co14 O16 2.091 . S
Co14 O18 2.004 . S
Co14 O24 2.021 . S
Co14 O26 2.137 1_455 S
Co14 O27 2.244 1_455 S
O15 Co14 2.216 1_655 S
O15 C22 1.247 1_655 S
O16 Co14 2.091 . S
O16 C22 1.261 . S
C17 O26 1.247 . S
C17 O27 1.272 . S
O18 Co14 2.004 . S
O18 C23 1.259 . S
Co19 O20 2.061 . S
Co19 O25 2.052 . S
Co19 O27 2.135 1_455 S
O20 Co19 2.061 . S
O20 C23 1.235 . S
C21 O24 1.238 . S
C21 O25 1.241 . S
C22 O15 1.247 1_455 S
C22 O16 1.261 . S
C23 O18 1.259 . S
C23 O20 1.235 . S
O24 Co14 2.021 . S
O24 C21 1.238 . S
O25 Co19 2.052 . S
O25 C21 1.241 . S
O26 Co14 2.137 1_655 S
O26 C17 1.247 . S
O27 Co14 2.244 1_655 S
O27 C17 1.272 . S
O27 Co19 2.135 1_655 S
Co28 O29 2.216 1_545 S
Co28 O30 2.091 . S
Co28 O32 2.004 . S
Co28 O38 2.021 . S
Co28 O40 2.137 1_545 S
Co28 O41 2.244 1_545 S
O29 Co28 2.216 1_565 S
O29 C36 1.247 1_565 S
O30 Co28 2.091 . S
O30 C36 1.261 . S
C31 O40 1.247 . S
C31 O41 1.272 . S
O32 Co28 2.004 . S
O32 C37 1.259 . S
Co33 O34 2.061 . S
Co33 O39 2.052 . S
Co33 O41 2.135 1_545 S
O34 Co33 2.061 . S
O34 C37 1.235 . S
C35 O38 1.238 . S
C35 O39 1.241 . S
C36 O29 1.247 1_545 S
C36 O30 1.261 . S
C37 O32 1.259 . S
C37 O34 1.235 . S
O38 Co28 2.021 . S
O38 C35 1.238 . S
O39 Co33 2.052 . S
O39 C35 1.241 . S
O40 Co28 2.137 1_565 S
O40 C31 1.247 . S
O41 Co28 2.244 1_565 S
O41 C31 1.272 . S
O41 Co33 2.135 1_565 S
Co42 O43 2.216 . S
Co42 O44 2.091 . S
Co42 O46 2.004 1_554 S
Co42 O52 2.021 . S
Co42 O54 2.137 1_554 S
Co42 O55 2.244 . S
O43 Co42 2.216 . S
O43 C50 1.247 . S
O44 Co42 2.091 . S
O44 C50 1.261 . S
C45 O54 1.247 1_554 S
C45 O55 1.272 . S
O46 Co42 2.004 1_556 S
O46 C51 1.259 1_556 S
Co47 O48 2.061 . S
Co47 O53 2.052 . S
Co47 O55 2.135 . S
O48 Co47 2.061 . S
O48 C51 1.235 . S
C49 O52 1.238 . S
C49 O53 1.241 . S
C50 O43 1.247 . S
C50 O44 1.261 . S
C51 O46 1.259 1_554 S
C51 O48 1.235 . S
O52 Co42 2.021 . S
O52 C49 1.238 . S
O53 Co47 2.052 . S
O53 C49 1.241 . S
O54 Co42 2.137 1_556 S
O54 C45 1.247 1_556 S
O55 Co42 2.244 . S
O55 C45 1.272 . S
O55 Co47 2.135 . S
Co56 O57 2.216 1_655 S
Co56 O58 2.091 . S
Co56 O60 2.004 . S
Co56 O66 2.021 . S
Co56 O68 2.137 1_655 S
Co56 O69 2.244 1_655 S
O57 Co56 2.216 1_455 S
O57 C64 1.247 1_455 S
O58 Co56 2.091 . S
O58 C64 1.261 . S
C59 O68 1.247 . S
C59 O69 1.272 . S
O60 Co56 2.004 . S
O60 C65 1.259 . S
Co61 O62 2.061 . S
Co61 O67 2.052 . S
Co61 O69 2.135 1_655 S
O62 Co61 2.061 . S
O62 C65 1.235 . S
C63 O66 1.238 . S
C63 O67 1.241 . S
C64 O57 1.247 1_655 S
C64 O58 1.261 . S
C65 O60 1.259 . S
C65 O62 1.235 . S
O66 Co56 2.021 . S
O66 C63 1.238 . S
O67 Co61 2.052 . S
O67 C63 1.241 . S
O68 Co56 2.137 1_455 S
O68 C59 1.247 . S
O69 Co56 2.244 1_455 S
O69 C59 1.272 . S
O69 Co61 2.135 1_455 S
Co70 O71 2.216 1_565 S
Co70 O72 2.091 . S
Co70 O74 2.004 . S
Co70 O80 2.021 . S
Co70 O82 2.137 1_565 S
Co70 O83 2.244 1_565 S
O71 Co70 2.216 1_545 S
O71 C78 1.247 1_545 S
O72 Co70 2.091 . S
O72 C78 1.261 . S
C73 O82 1.247 . S
C73 O83 1.272 . S
O74 Co70 2.004 . S
O74 C79 1.259 . S
Co75 O76 2.061 . S
Co75 O81 2.052 . S
Co75 O83 2.135 1_565 S
O76 Co75 2.061 . S
O76 C79 1.235 . S
C77 O80 1.238 . S
C77 O81 1.241 . S
C78 O71 1.247 1_565 S
C78 O72 1.261 . S
C79 O74 1.259 . S
C79 O76 1.235 . S
O80 Co70 2.021 . S
O80 C77 1.238 . S
O81 Co75 2.052 . S
O81 C77 1.241 . S
O82 Co70 2.137 1_545 S
O82 C73 1.247 . S
O83 Co70 2.244 1_545 S
O83 C73 1.272 . S
O83 Co75 2.135 1_545 S
Co84 O85 2.216 . S
Co84 O86 2.091 . S
Co84 O88 2.004 . S
Co84 O94 2.021 . S
Co84 O96 2.137 . S
Co84 O97 2.244 . S
O85 Co84 2.216 . S
O85 C92 1.247 . S
O86 Co84 2.091 . S
O86 C92 1.261 . S
C87 O96 1.247 . S
C87 O97 1.272 . S
O88 Co84 2.004 . S
O88 C93 1.259 . S
Co89 O90 2.061 . S
Co89 O95 2.052 . S
Co89 O97 2.135 . S
O90 Co89 2.061 . S
O90 C93 1.235 . S
C91 O94 1.238 . S
C91 O95 1.241 . S
C92 O85 1.247 . S
C92 O86 1.261 . S
C93 O88 1.259 . S
C93 O90 1.235 . S
O94 Co84 2.021 . S
O94 C91 1.238 . S
O95 Co89 2.052 . S
O95 C91 1.241 . S
O96 Co84 2.137 . S
O96 C87 1.247 . S
O97 Co84 2.244 . S
O97 C87 1.272 . S
O97 Co89 2.135 . S
Co98 O99 2.216 1_455 S
Co98 O100 2.091 . S
Co98 O102 2.004 1_556 S
Co98 O108 2.021 . S
Co98 O110 2.137 1_456 S
Co98 O111 2.244 1_455 S
O99 Co98 2.216 1_655 S
O99 C106 1.247 1_655 S
O100 Co98 2.091 . S
O100 C106 1.261 . S
C101 O110 1.247 1_556 S
C101 O111 1.272 . S
O102 Co98 2.004 1_554 S
O102 C107 1.259 1_554 S
Co103 O104 2.061 . S
Co103 O109 2.052 . S
Co103 O111 2.135 1_455 S
O104 Co103 2.061 . S
O104 C107 1.235 . S
C105 O108 1.238 . S
C105 O109 1.241 . S
C106 O99 1.247 1_455 S
C106 O100 1.261 . S
C107 O102 1.259 1_556 S
C107 O104 1.235 . S
O108 Co98 2.021 . S
O108 C105 1.238 . S
O109 Co103 2.052 . S
O109 C105 1.241 . S
O110 Co98 2.137 1_654 S
O110 C101 1.247 1_554 S
O111 Co98 2.244 1_655 S
O111 C101 1.272 . S
O111 Co103 2.135 1_655 S
Co112 O113 2.216 1_545 S
Co112 O114 2.091 . S
Co112 O116 2.004 . S
Co112 O122 2.021 . S
Co112 O124 2.137 1_545 S
Co112 O125 2.244 1_545 S
O113 Co112 2.216 1_565 S
O113 C120 1.247 1_565 S
O114 Co112 2.091 . S
O114 C120 1.261 . S
C115 O124 1.247 . S
C115 O125 1.272 . S
O116 Co112 2.004 . S
O116 C121 1.259 . S
Co117 O118 2.061 . S
Co117 O123 2.052 . S
Co117 O125 2.135 1_545 S
O118 Co117 2.061 . S
O118 C121 1.235 . S
C119 O122 1.238 . S
C119 O123 1.241 . S
C120 O113 1.247 1_545 S
C120 O114 1.261 . S
C121 O116 1.259 . S
C121 O118 1.235 . S
O122 Co112 2.021 . S
O122 C119 1.238 . S
O123 Co117 2.052 . S
O123 C119 1.241 . S
O124 Co112 2.137 1_565 S
O124 C115 1.247 . S
O125 Co112 2.244 1_565 S
O125 C115 1.272 . S
O125 Co117 2.135 1_565 S
Co126 O127 2.216 . S
Co126 O128 2.091 . S
Co126 O130 2.004 . S
Co126 O136 2.021 . S
Co126 O138 2.137 . S
Co126 O139 2.244 . S
O127 Co126 2.216 . S
O127 C134 1.247 . S
O128 Co126 2.091 . S
O128 C134 1.261 . S
C129 O138 1.247 . S
C129 O139 1.272 . S
O130 Co126 2.004 . S
O130 C135 1.259 . S
Co131 O132 2.061 . S
Co131 O137 2.052 . S
Co131 O139 2.135 . S
O132 Co131 2.061 . S
O132 C135 1.235 . S
C133 O136 1.238 . S
C133 O137 1.241 . S
C134 O127 1.247 . S
C134 O128 1.261 . S
C135 O130 1.259 . S
C135 O132 1.235 . S
O136 Co126 2.021 . S
O136 C133 1.238 . S
O137 Co131 2.052 . S
O137 C133 1.241 . S
O138 Co126 2.137 . S
O138 C129 1.247 . S
O139 Co126 2.244 . S
O139 C129 1.272 . S
O139 Co131 2.135 . S
Co140 O141 2.216 1_655 S
Co140 O142 2.091 . S
Co140 O144 2.004 1_556 S
Co140 O150 2.021 . S
Co140 O152 2.137 1_656 S
Co140 O153 2.244 1_655 S
O141 Co140 2.216 1_455 S
O141 C148 1.247 1_455 S
O142 Co140 2.091 . S
O142 C148 1.261 . S
C143 O152 1.247 1_556 S
C143 O153 1.272 . S
O144 Co140 2.004 1_554 S
O144 C149 1.259 1_554 S
Co145 O146 2.061 . S
Co145 O151 2.052 . S
Co145 O153 2.135 1_655 S
O146 Co145 2.061 . S
O146 C149 1.235 . S
C147 O150 1.238 . S
C147 O151 1.241 . S
C148 O141 1.247 1_655 S
C148 O142 1.261 . S
C149 O144 1.259 1_556 S
C149 O146 1.235 . S
O150 Co140 2.021 . S
O150 C147 1.238 . S
O151 Co145 2.052 . S
O151 C147 1.241 . S
O152 Co140 2.137 1_454 S
O152 C143 1.247 1_554 S
O153 Co140 2.244 1_455 S
O153 C143 1.272 . S
O153 Co145 2.135 1_455 S
Co154 O155 2.216 1_565 S
Co154 O156 2.091 . S
Co154 O158 2.004 . S
Co154 O164 2.021 . S
Co154 O166 2.137 1_565 S
Co154 O167 2.244 1_565 S
O155 Co154 2.216 1_545 S
O155 C162 1.247 1_545 S
O156 Co154 2.091 . S
O156 C162 1.261 . S
C157 O166 1.247 . S
C157 O167 1.272 . S
O158 Co154 2.004 . S
O158 C163 1.259 . S
Co159 O160 2.061 . S
Co159 O165 2.052 . S
Co159 O167 2.135 1_565 S
O160 Co159 2.061 . S
O160 C163 1.235 . S
C161 O164 1.238 . S
C161 O165 1.241 . S
C162 O155 1.247 1_565 S
C162 O156 1.261 . S
C163 O158 1.259 . S
C163 O160 1.235 . S
O164 Co154 2.021 . S
O164 C161 1.238 . S
O165 Co159 2.052 . S
O165 C161 1.241 . S
O166 Co154 2.137 1_545 S
O166 C157 1.247 . S
O167 Co154 2.244 1_545 S
O167 C157 1.272 . S
O167 Co159 2.135 1_545 S
C50 C8 1.660 . S
C22 C64 1.660 1_455 S
C78 C36 1.660 1_565 S
C92 C134 1.660 . S
C148 C106 1.660 1_655 S
C120 C162 1.660 1_545 S
C119 C7 1.472 . S
C21 C133 1.472 . S
C35 C147 1.472 . S
C49 C161 1.472 . S
C91 C63 1.472 . S
C105 C77 1.472 . S
C107 C9 1.117 1_566 S
C23 C121 1.116 . S
C37 C135 1.117 1_655 S
C51 C149 1.117 1_564 S
C163 C65 1.116 . S
C79 C93 1.117 1_455 S
C143 C3 1.542 1_556 S
C157 C17 1.542 . S
C87 C31 1.542 . S
C45 C101 1.542 1_554 S
C59 C115 1.542 . S
C73 C129 1.542 . S
