# Generated by pormake.
# Topology lon, (4)-cn, num edge types: 1
# Building blocks:
#     Node 0, Type 0, BuildingBlock: AZAVOO_clean_sbu_0, # of connection points: 4
#     Node 1, Type 0, BuildingBlock: AZAVOO_clean_sbu_0, # of connection points: 4
#     Node 2, Type 0, BuildingBlock: AZAVOO_clean_sbu_0, # of connection points: 4
#     Node 3, Type 0, BuildingBlock: AZAVOO_clean_sbu_0, # of connection points: 4
#     Edge 4, Type (0, 0), None
#     Edge 5, Type (0, 0), None
#     Edge 6, Type (0, 0), None
#     Edge 7, Type (0, 0), None
#     Edge 8, Type (0, 0), None
#     Edge 9, Type (0, 0), None
#     Edge 10, Type (0, 0), None
#     Edge 11, Type (0, 0), None
# Relax obj value: 0.035
# Max RMSD: 0.083
# Mean RMSD: 0.066
data_MOF--net-lon--node1-AZAVOO_clean_sbu_0--edge1-none
_symmetry_space_group_name_H-M    P1
_symmetry_Int_Tables_number       1
_symmetry_cell_setting            triclinic
loop_
_symmetry_equiv_pos_as_xyz
'x, y, z'
_cell_length_a     12.240841
_cell_length_b     11.310936
_cell_length_c     18.448621
_cell_angle_alpha  102.39067
_cell_angle_beta   88.44391
_cell_angle_gamma 123.73964
loop_
_atom_site_label
_atom_site_type_symbol
_atom_site_fract_x
_atom_site_fract_y
_atom_site_fract_z
_atom_type_partial_charge
Mg0 Mg 0.43823 0.73275 0.09209 0.0
O1 O 0.22149 0.57009 0.04798 0.0
O2 O 0.10629 0.6558 0.10319 0.0
Mg3 Mg 0.25324 0.87427 0.18493 0.0
C4 C 0.11306 0.55866 0.05736 0.0
C5 C 0.57088 0.59152 1.00413 0.0
O6 O 0.65474 0.66718 0.06511 0.0
O7 O 0.45295 0.883 0.02501 0.0
O8 O 0.34592 0.97758 0.08363 0.0
O9 O 0.41608 0.62223 0.17968 0.0
O10 O 0.38947 0.80483 0.19454 0.0
C11 C 0.41236 0.96624 0.03105 0.0
C12 C 0.38407 0.70438 0.22055 0.0
O13 O 0.47665 0.60541 0.99552 0.0
Mg14 Mg 0.65991 0.43244 0.60216 0.0
O15 O 0.53299 0.19011 0.53478 0.0
O16 O 0.35527 0.07506 0.59567 0.0
Mg17 Mg 0.36992 0.23328 0.70171 0.0
C18 C 0.42238 0.07555 0.54144 0.0
C19 C 0.88477 0.48091 0.50518 0.0
O20 O 0.88582 0.40405 0.54889 0.0
O21 O 0.50765 0.46524 0.55847 0.0
O22 O 0.3378 0.35073 0.62468 0.0
O23 O 0.77301 0.3945 0.67461 0.0
O24 O 0.58501 0.36827 0.701 0.0
C25 C 0.39269 0.42701 0.57657 0.0
C26 C 0.68117 0.35959 0.71822 0.0
O27 O 0.79485 0.50584 0.50798 0.0
Mg28 Mg 0.27902 0.60409 0.41377 0.0
O29 O 0.37508 0.84225 0.48182 0.0
O30 O 0.27561 0.92808 0.43228 0.0
Mg31 Mg 0.12772 0.75395 0.33163 0.0
C32 C 0.35908 0.94395 0.48001 0.0
C33 C 0.31713 0.46446 0.53734 0.0
O34 O 0.18794 0.39026 0.53583 0.0
O35 O 0.09102 0.53516 0.46934 0.0
O36 O -0.00719 0.61562 0.41331 0.0
O37 O 0.42788 0.67148 0.33574 0.0
O38 O 0.23951 0.65167 0.31776 0.0
C39 C -0.00542 0.54651 0.45937 0.0
C40 C 0.35229 0.68512 0.29571 0.0
O41 O 0.37573 0.55927 0.49894 0.0
Mg42 Mg 0.72493 0.30347 0.91627 0.0
O43 O 0.667 0.46163 0.96278 0.0
O44 O 0.46567 0.37226 0.90979 0.0
Mg45 Mg 0.3948 0.15222 0.8298 0.0
C46 C 0.56963 0.4712 0.95436 0.0
C47 C -0.00467 0.43941 1.00683 0.0
O48 O 0.0055 0.35681 0.94886 0.0
O49 O 0.58775 0.15181 0.98507 0.0
O50 O 0.38423 0.05297 0.93114 0.0
O51 O 0.81484 0.41448 0.82692 0.0
O52 O 0.60377 0.22948 0.81666 0.0
C53 C 0.46273 0.06665 0.98168 0.0
C54 C 0.69897 0.33132 0.78906 0.0
O55 O 0.88913 0.43346 0.0114 0.0
loop_
_geom_bond_atom_site_label_1
_geom_bond_atom_site_label_2
_geom_bond_distance
_geom_bond_site_symmetry_2
_ccdc_geom_bond_type
Mg0 O1 2.028 . S
Mg0 O7 1.986 . S
Mg0 O9 2.114 . S
Mg0 O10 2.251 . S
Mg0 O13 2.010 . S
O1 Mg0 2.028 . S
O1 C4 1.250 . S
O2 Mg3 2.028 . S
O2 C4 1.248 . S
Mg3 O2 2.028 . S
Mg3 O8 2.032 . S
Mg3 O10 2.079 . S
C4 O1 1.250 . S
C4 O2 1.248 . S
C5 O6 1.264 . S
C5 O13 1.249 . S
O6 C5 1.264 . S
O7 Mg0 1.986 . S
O7 C11 1.246 . S
O8 Mg3 2.032 . S
O8 C11 1.259 . S
O9 Mg0 2.114 . S
O9 C12 1.252 . S
O10 Mg0 2.251 . S
O10 Mg3 2.079 . S
O10 C12 1.273 . S
C11 O7 1.246 . S
C11 O8 1.259 . S
C12 O9 1.252 . S
C12 O10 1.273 . S
O13 Mg0 2.010 . S
O13 C5 1.249 . S
Mg14 O15 2.028 . S
Mg14 O21 1.986 . S
Mg14 O23 2.114 . S
Mg14 O24 2.251 . S
Mg14 O27 2.010 . S
O15 Mg14 2.028 . S
O15 C18 1.250 . S
O16 Mg17 2.028 . S
O16 C18 1.248 . S
Mg17 O16 2.028 . S
Mg17 O22 2.032 . S
Mg17 O24 2.079 . S
C18 O15 1.250 . S
C18 O16 1.248 . S
C19 O20 1.264 1_655 S
C19 O27 1.249 . S
O20 C19 1.264 1_455 S
O21 Mg14 1.986 . S
O21 C25 1.246 . S
O22 Mg17 2.032 . S
O22 C25 1.259 . S
O23 Mg14 2.114 . S
O23 C26 1.252 . S
O24 Mg14 2.251 . S
O24 Mg17 2.079 . S
O24 C26 1.273 . S
C25 O21 1.246 . S
C25 O22 1.259 . S
C26 O23 1.252 . S
C26 O24 1.273 . S
O27 Mg14 2.010 . S
O27 C19 1.249 . S
Mg28 O29 2.028 . S
Mg28 O35 1.986 . S
Mg28 O37 2.114 . S
Mg28 O38 2.251 . S
Mg28 O41 2.010 . S
O29 Mg28 2.028 . S
O29 C32 1.250 . S
O30 Mg31 2.028 . S
O30 C32 1.248 . S
Mg31 O30 2.028 . S
Mg31 O36 2.032 . S
Mg31 O38 2.079 . S
C32 O29 1.250 . S
C32 O30 1.248 . S
C33 O34 1.264 . S
C33 O41 1.249 . S
O34 C33 1.264 . S
O35 Mg28 1.986 . S
O35 C39 1.246 . S
O36 Mg31 2.032 . S
O36 C39 1.259 . S
O37 Mg28 2.114 . S
O37 C40 1.252 . S
O38 Mg28 2.251 . S
O38 Mg31 2.079 . S
O38 C40 1.273 . S
C39 O35 1.246 . S
C39 O36 1.259 . S
C40 O37 1.252 . S
C40 O38 1.273 . S
O41 Mg28 2.010 . S
O41 C33 1.249 . S
Mg42 O43 2.028 . S
Mg42 O49 1.986 . S
Mg42 O51 2.114 . S
Mg42 O52 2.251 . S
Mg42 O55 2.010 . S
O43 Mg42 2.028 . S
O43 C46 1.250 . S
O44 Mg45 2.028 . S
O44 C46 1.248 . S
Mg45 O44 2.028 . S
Mg45 O50 2.032 . S
Mg45 O52 2.079 . S
C46 O43 1.250 . S
C46 O44 1.248 . S
C47 O48 1.264 . S
C47 O55 1.249 1_455 S
O48 C47 1.264 . S
O49 Mg42 1.986 . S
O49 C53 1.246 . S
O50 Mg45 2.032 . S
O50 C53 1.259 . S
O51 Mg42 2.114 . S
O51 C54 1.252 . S
O52 Mg42 2.251 . S
O52 Mg45 2.079 . S
O52 C54 1.273 . S
C53 O49 1.246 . S
C53 O50 1.259 . S
C54 O51 1.252 . S
C54 O52 1.273 . S
O55 Mg42 2.010 . S
O55 C47 1.249 1_655 S
C12 C40 1.513 . S
C26 C54 1.513 . S
C5 C46 1.180 1_554 S
C39 C19 1.003 1_455 S
C53 C11 1.294 1_546 S
C25 C33 1.003 . S
C4 C47 1.180 1_554 S
C18 C32 1.691 1_545 S
