# Generated by pormake.
# Topology hcp, (12)-cn, num edge types: 1
# Building blocks:
#     Node 0, Type 0, BuildingBlock: ZALLEG_clean_sbu_0, # of connection points: 12
#     Node 1, Type 0, BuildingBlock: ZALLEG_clean_sbu_0, # of connection points: 12
#     Edge 2, Type (0, 0), None
#     Edge 3, Type (0, 0), None
#     Edge 4, Type (0, 0), None
#     Edge 5, Type (0, 0), None
#     Edge 6, Type (0, 0), None
#     Edge 7, Type (0, 0), None
#     Edge 8, Type (0, 0), None
#     Edge 9, Type (0, 0), None
#     Edge 10, Type (0, 0), None
#     Edge 11, Type (0, 0), None
#     Edge 12, Type (0, 0), None
#     Edge 13, Type (0, 0), None
# Relax obj value: 0.186
# Max RMSD: 0.270
# Mean RMSD: 0.270
data_MOF--net-hcp--node1-ZALLEG_clean_sbu_0--edge1-none
_symmetry_space_group_name_H-M    P1
_symmetry_Int_Tables_number       1
_symmetry_cell_setting            triclinic
loop_
_symmetry_equiv_pos_as_xyz
'x, y, z'
_cell_length_a     10.091681
_cell_length_b     10.091727
_cell_length_c     16.867097
_cell_angle_alpha  90.000012
_cell_angle_beta   89.999998
_cell_angle_gamma 120.00041
loop_
_atom_site_label
_atom_site_type_symbol
_atom_site_fract_x
_atom_site_fract_y
_atom_site_fract_z
_atom_type_partial_charge
H0 H 0.52105 0.0194 0.22132 0.0
O1 O 0.57338 0.12781 0.23691 0.0
Tb2 Tb 0.46965 0.25478 0.1893 0.0
Tb3 Tb 0.61096 0.13765 0.36034 0.0
Tb4 Tb 0.78032 0.22188 0.1893 0.0
O5 O 0.46222 0.21918 0.31529 0.0
O6 O 0.68773 0.34737 0.13626 0.0
O7 O 0.58251 0.46171 0.23691 0.0
O8 O 0.68773 0.34737 0.41135 0.0
O9 O 0.90729 0.45259 0.23691 0.0
O10 O 0.81592 0.25006 0.31529 0.0
H11 H 0.35983 0.1726 0.34004 0.0
H12 H 0.68773 0.34737 0.0775 0.0
Tb13 Tb 0.55477 0.42413 0.36034 0.0
Tb14 Tb 0.81322 0.56545 0.1893 0.0
H15 H 0.52643 0.51405 0.22132 0.0
H16 H 0.68773 0.34737 0.46938 0.0
Tb17 Tb 0.89745 0.48032 0.36034 0.0
H18 H 1.0157 0.50866 0.22132 0.0
H19 H 0.86249 0.19425 0.34004 0.0
O20 O 0.78504 0.57287 0.31529 0.0
H21 H 0.84085 0.67526 0.34004 0.0
O22 O 0.28252 0.02784 0.21997 0.0
O23 O 0.0882 0.70617 0.34247 0.0
O24 O 1.01224 0.46937 0.45009 0.0
O25 O 0.50104 0.4472 0.09416 0.0
O26 O 0.64606 0.9469 0.34247 0.0
O27 O 0.7734 0.75258 0.21997 0.0
O28 O 0.97425 0.53406 0.09416 0.0
O29 O 0.48521 0.02286 0.45009 0.0
O30 O 0.5879 0.06085 0.09416 0.0
O31 O 0.56573 0.54989 0.45009 0.0
O32 O 0.32892 0.38904 0.34247 0.0
O33 O 1.00726 0.2617 0.21997 0.0
O34 O 0.37114 0.94991 0.33442 0.0
O35 O 0.03859 0.75748 0.21301 0.0
O36 O 0.74744 0.66607 0.09913 0.0
O37 O 0.79882 0.22244 0.47428 0.0
O38 O 0.27761 0.28812 0.21301 0.0
O39 O 0.08519 0.42825 0.33442 0.0
O40 O 0.81266 0.58339 0.47428 0.0
O41 O 0.36903 0.08838 0.09913 0.0
O42 O 0.45171 0.23628 0.47428 0.0
O43 O 0.94672 0.28766 0.09913 0.0
O44 O 0.74698 0.99651 0.21301 0.0
O45 O 0.60685 0.66395 0.33442 0.0
C46 C 0.2677 0.9292 0.27728 0.0
C47 C 0.12404 0.79018 0.27779 0.0
C48 C 0.9339 0.35983 0.49739 0.0
C49 C 0.60583 0.60052 0.07461 0.0
C50 C 0.69422 0.91106 0.27779 0.0
C51 C 0.68959 0.7674 0.27728 0.0
C52 C 0.02278 0.42927 0.07461 0.0
C53 C 0.45402 0.1012 0.49739 0.0
C54 C 0.43458 1.01232 0.07461 0.0
C55 C 0.67526 0.58108 0.49739 0.0
C56 C 0.24492 0.34088 0.27779 0.0
C57 C 0.1059 0.34551 0.27728 0.0
H58 H 0.02643 0.51403 0.72129 0.0
O59 O 0.13484 0.56636 0.73688 0.0
Tb60 Tb 0.14469 0.60396 0.8603 0.0
Tb61 Tb 0.26181 0.46262 0.68926 0.0
Tb62 Tb 0.22889 0.77329 0.68926 0.0
O63 O 0.22619 0.45519 0.81525 0.0
O64 O 0.25709 0.80891 0.81525 0.0
O65 O 0.35439 0.6807 0.9113 0.0
O66 O 0.46874 0.57549 0.73688 0.0
O67 O 0.45961 0.90026 0.73688 0.0
O68 O 0.35439 0.6807 0.63622 0.0
H69 H 0.17963 0.35281 0.84 0.0
H70 H 0.20126 0.85547 0.84 0.0
Tb71 Tb 0.43114 0.54774 0.8603 0.0
Tb72 Tb 0.48736 0.89041 0.8603 0.0
H73 H 0.35439 0.6807 0.96932 0.0
H74 H 0.52107 0.51941 0.72129 0.0
Tb75 Tb 0.57248 0.80621 0.68926 0.0
H76 H 0.51568 1.00867 0.72129 0.0
H77 H 0.35439 0.6807 0.57746 0.0
O78 O 0.57991 0.77801 0.81525 0.0
H79 H 0.68229 0.83384 0.84 0.0
O80 O 0.95695 0.36412 0.83439 0.0
O81 O 0.76452 0.03157 0.71298 0.0
O82 O 0.67309 0.7404 0.59909 0.0
O83 O 0.22949 0.79185 0.97423 0.0
O84 O 0.09539 0.36201 0.59909 0.0
O85 O 0.59045 0.8056 0.97423 0.0
O86 O 0.43526 0.07815 0.83439 0.0
O87 O 0.29514 0.27058 0.71298 0.0
O88 O 1.00352 0.73996 0.71298 0.0
O89 O 0.67097 0.59984 0.83439 0.0
O90 O 0.24324 0.44465 0.97423 0.0
O91 O 0.2947 0.9397 0.59909 0.0
O92 O 0.03487 0.27549 0.71994 0.0
O93 O 0.71319 0.08118 0.84243 0.0
O94 O 0.47653 1.00515 0.9501 0.0
O95 O 0.45424 0.49394 0.59413 0.0
O96 O 0.02995 0.47839 0.9501 0.0
O97 O 0.54115 0.9673 0.59413 0.0
O98 O 0.7596 0.76639 0.71994 0.0
O99 O 0.95391 0.63902 0.84243 0.0
O100 O 0.39608 0.32191 0.84243 0.0
O101 O 0.26871 1.00023 0.71994 0.0
O102 O 0.06779 0.58086 0.59413 0.0
O103 O 0.5567 0.55857 0.9501 0.0
C104 C 0.93624 0.26068 0.77725 0.0
C105 C 0.79721 0.11702 0.77775 0.0
C106 C 0.60759 0.59874 0.57466 0.0
C107 C 0.36697 0.92682 0.99739 0.0
C108 C 1.01923 0.42751 0.57466 0.0
C109 C 0.58793 0.66813 0.99739 0.0
C110 C 0.35252 0.09886 0.77725 0.0
C111 C 0.3479 0.23789 0.77775 0.0
C112 C 0.91807 0.68719 0.77775 0.0
C113 C 0.77442 0.68257 0.77725 0.0
C114 C 0.10828 0.44716 0.99739 0.0
C115 C 0.43636 0.01586 0.57466 0.0
loop_
_geom_bond_atom_site_label_1
_geom_bond_atom_site_label_2
_geom_bond_distance
_geom_bond_site_symmetry_2
_ccdc_geom_bond_type
H0 O1 0.850 . S
O1 H0 0.850 . S
O1 Tb2 2.341 . S
O1 Tb3 2.341 . S
O1 Tb4 2.341 . S
Tb2 O1 2.341 . S
Tb2 O5 2.341 . S
Tb2 O6 2.341 . S
Tb2 O7 2.341 . S
Tb2 O22 2.344 1_545 S
Tb2 O25 2.344 . S
Tb2 O38 2.344 . S
Tb2 O41 2.344 . S
Tb3 O1 2.341 . S
Tb3 O5 2.341 . S
Tb3 O8 2.341 . S
Tb3 O10 2.341 . S
Tb3 O26 2.344 1_545 S
Tb3 O29 2.344 . S
Tb3 O34 2.344 1_545 S
Tb3 O37 2.344 . S
Tb4 O1 2.341 . S
Tb4 O6 2.341 . S
Tb4 O9 2.341 . S
Tb4 O10 2.341 . S
Tb4 O30 2.344 . S
Tb4 O33 2.344 1_655 S
Tb4 O43 2.344 . S
Tb4 O44 2.344 . S
O5 Tb2 2.341 . S
O5 Tb3 2.341 . S
O5 H11 0.850 . S
O5 Tb13 2.341 . S
O6 Tb2 2.341 . S
O6 Tb4 2.341 . S
O6 H12 0.850 . S
O6 Tb14 2.341 . S
O7 Tb2 2.341 . S
O7 Tb13 2.341 . S
O7 Tb14 2.341 . S
O7 H15 0.850 . S
O8 Tb3 2.341 . S
O8 Tb13 2.341 . S
O8 H16 0.850 . S
O8 Tb17 2.341 . S
O9 Tb4 2.341 . S
O9 Tb14 2.341 . S
O9 Tb17 2.341 . S
O9 H18 0.850 . S
O10 Tb3 2.341 . S
O10 Tb4 2.341 . S
O10 Tb17 2.341 . S
O10 H19 0.850 . S
H11 O5 0.850 . S
H12 O6 0.850 . S
Tb13 O5 2.341 . S
Tb13 O7 2.341 . S
Tb13 O8 2.341 . S
Tb13 O20 2.341 . S
Tb13 O31 2.344 . S
Tb13 O32 2.344 . S
Tb13 O42 2.344 . S
Tb13 O45 2.344 . S
Tb14 O6 2.341 . S
Tb14 O7 2.341 . S
Tb14 O9 2.341 . S
Tb14 O20 2.341 . S
Tb14 O27 2.344 . S
Tb14 O28 2.344 . S
Tb14 O35 2.344 . S
Tb14 O36 2.344 . S
H15 O7 0.850 . S
H16 O8 0.850 . S
Tb17 O8 2.341 . S
Tb17 O9 2.341 . S
Tb17 O10 2.341 . S
Tb17 O20 2.341 . S
Tb17 O23 2.344 1_655 S
Tb17 O24 2.344 . S
Tb17 O39 2.344 1_655 S
Tb17 O40 2.344 . S
H18 O9 0.850 . S
H19 O10 0.850 . S
O20 Tb13 2.341 . S
O20 Tb14 2.341 . S
O20 Tb17 2.341 . S
O20 H21 0.850 . S
H21 O20 0.850 . S
O22 Tb2 2.344 1_565 S
O22 C46 1.272 . S
O23 Tb17 2.344 1_455 S
O23 C47 1.272 . S
O24 Tb17 2.344 . S
O24 C48 1.272 . S
O25 Tb2 2.344 . S
O25 C49 1.272 . S
O26 Tb3 2.344 1_565 S
O26 C50 1.272 . S
O27 Tb14 2.344 . S
O27 C51 1.272 . S
O28 Tb14 2.344 . S
O28 C52 1.272 . S
O29 Tb3 2.344 . S
O29 C53 1.272 . S
O30 Tb4 2.344 . S
O30 C54 1.272 . S
O31 Tb13 2.344 . S
O31 C55 1.272 . S
O32 Tb13 2.344 . S
O32 C56 1.272 . S
O33 Tb4 2.344 1_455 S
O33 C57 1.272 . S
O34 Tb3 2.344 1_565 S
O34 C46 1.272 . S
O35 Tb14 2.344 . S
O35 C47 1.272 1_655 S
O36 Tb14 2.344 . S
O36 C49 1.272 . S
O37 Tb3 2.344 . S
O37 C48 1.272 . S
O38 Tb2 2.344 . S
O38 C56 1.272 . S
O39 Tb17 2.344 1_455 S
O39 C57 1.272 . S
O40 Tb17 2.344 . S
O40 C55 1.272 . S
O41 Tb2 2.344 . S
O41 C54 1.272 . S
O42 Tb13 2.344 . S
O42 C53 1.272 . S
O43 Tb4 2.344 . S
O43 C52 1.272 . S
O44 Tb4 2.344 . S
O44 C50 1.272 1_545 S
O45 Tb13 2.344 . S
O45 C51 1.272 . S
C46 O22 1.272 . S
C46 O34 1.272 . S
C47 O23 1.272 . S
C47 O35 1.272 1_455 S
C48 O24 1.272 . S
C48 O37 1.272 . S
C49 O25 1.272 . S
C49 O36 1.272 . S
C50 O26 1.272 . S
C50 O44 1.272 1_565 S
C51 O27 1.272 . S
C51 O45 1.272 . S
C52 O28 1.272 . S
C52 O43 1.272 . S
C53 O29 1.272 . S
C53 O42 1.272 . S
C54 O30 1.272 . S
C54 O41 1.272 . S
C55 O31 1.272 . S
C55 O40 1.272 . S
C56 O32 1.272 . S
C56 O38 1.272 . S
C57 O33 1.272 . S
C57 O39 1.272 . S
H58 O59 0.850 . S
O59 H58 0.850 . S
O59 Tb60 2.341 . S
O59 Tb61 2.341 . S
O59 Tb62 2.341 . S
Tb60 O59 2.341 . S
Tb60 O63 2.341 . S
Tb60 O64 2.341 . S
Tb60 O65 2.341 . S
Tb60 O80 2.344 1_455 S
Tb60 O83 2.344 . S
Tb60 O96 2.344 . S
Tb60 O99 2.344 1_455 S
Tb61 O59 2.341 . S
Tb61 O63 2.341 . S
Tb61 O66 2.341 . S
Tb61 O68 2.341 . S
Tb61 O84 2.344 . S
Tb61 O87 2.344 . S
Tb61 O92 2.344 1_455 S
Tb61 O95 2.344 . S
Tb62 O59 2.341 . S
Tb62 O64 2.341 . S
Tb62 O67 2.341 . S
Tb62 O68 2.341 . S
Tb62 O88 2.344 . S
Tb62 O91 2.344 . S
Tb62 O101 2.344 1_565 S
Tb62 O102 2.344 . S
O63 Tb60 2.341 . S
O63 Tb61 2.341 . S
O63 H69 0.850 . S
O63 Tb71 2.341 . S
O64 Tb60 2.341 . S
O64 Tb62 2.341 . S
O64 H70 0.850 . S
O64 Tb72 2.341 . S
O65 Tb60 2.341 . S
O65 Tb71 2.341 . S
O65 Tb72 2.341 . S
O65 H73 0.850 . S
O66 Tb61 2.341 . S
O66 Tb71 2.341 . S
O66 H74 0.850 . S
O66 Tb75 2.341 . S
O67 Tb62 2.341 . S
O67 Tb72 2.341 . S
O67 Tb75 2.341 . S
O67 H76 0.850 . S
O68 Tb61 2.341 . S
O68 Tb62 2.341 . S
O68 Tb75 2.341 . S
O68 H77 0.850 . S
H69 O63 0.850 . S
H70 O64 0.850 . S
Tb71 O63 2.341 . S
Tb71 O65 2.341 . S
Tb71 O66 2.341 . S
Tb71 O78 2.341 . S
Tb71 O89 2.344 . S
Tb71 O90 2.344 . S
Tb71 O100 2.344 . S
Tb71 O103 2.344 . S
Tb72 O64 2.341 . S
Tb72 O65 2.341 . S
Tb72 O67 2.341 . S
Tb72 O78 2.341 . S
Tb72 O85 2.344 . S
Tb72 O86 2.344 1_565 S
Tb72 O93 2.344 1_565 S
Tb72 O94 2.344 . S
H73 O65 0.850 . S
H74 O66 0.850 . S
Tb75 O66 2.341 . S
Tb75 O67 2.341 . S
Tb75 O68 2.341 . S
Tb75 O78 2.341 . S
Tb75 O81 2.344 . S
Tb75 O82 2.344 . S
Tb75 O97 2.344 . S
Tb75 O98 2.344 . S
H76 O67 0.850 . S
H77 O68 0.850 . S
O78 Tb71 2.341 . S
O78 Tb72 2.341 . S
O78 Tb75 2.341 . S
O78 H79 0.850 . S
H79 O78 0.850 . S
O80 Tb60 2.344 1_655 S
O80 C104 1.272 . S
O81 Tb75 2.344 . S
O81 C105 1.272 1_565 S
O82 Tb75 2.344 . S
O82 C106 1.272 . S
O83 Tb60 2.344 . S
O83 C107 1.272 . S
O84 Tb61 2.344 . S
O84 C108 1.272 . S
O85 Tb72 2.344 . S
O85 C109 1.272 . S
O86 Tb72 2.344 1_545 S
O86 C110 1.272 . S
O87 Tb61 2.344 . S
O87 C111 1.272 . S
O88 Tb62 2.344 . S
O88 C112 1.272 1_455 S
O89 Tb71 2.344 . S
O89 C113 1.272 . S
O90 Tb71 2.344 . S
O90 C114 1.272 . S
O91 Tb62 2.344 . S
O91 C115 1.272 . S
O92 Tb61 2.344 1_655 S
O92 C104 1.272 . S
O93 Tb72 2.344 1_545 S
O93 C105 1.272 . S
O94 Tb72 2.344 . S
O94 C107 1.272 . S
O95 Tb61 2.344 . S
O95 C106 1.272 . S
O96 Tb60 2.344 . S
O96 C114 1.272 . S
O97 Tb75 2.344 . S
O97 C115 1.272 . S
O98 Tb75 2.344 . S
O98 C113 1.272 . S
O99 Tb60 2.344 1_655 S
O99 C112 1.272 . S
O100 Tb71 2.344 . S
O100 C111 1.272 . S
O101 Tb62 2.344 1_545 S
O101 C110 1.272 . S
O102 Tb62 2.344 . S
O102 C108 1.272 . S
O103 Tb71 2.344 . S
O103 C109 1.272 . S
C104 O80 1.272 . S
C104 O92 1.272 . S
C105 O81 1.272 1_545 S
C105 O93 1.272 . S
C106 O82 1.272 . S
C106 O95 1.272 . S
C107 O83 1.272 . S
C107 O94 1.272 . S
C108 O84 1.272 . S
C108 O102 1.272 . S
C109 O85 1.272 . S
C109 O103 1.272 . S
C110 O86 1.272 . S
C110 O101 1.272 . S
C111 O87 1.272 . S
C111 O100 1.272 . S
C112 O88 1.272 1_655 S
C112 O99 1.272 . S
C113 O89 1.272 . S
C113 O98 1.272 . S
C114 O90 1.272 . S
C114 O96 1.272 . S
C115 O91 1.272 . S
C115 O97 1.272 . S
C107 C54 3.255 1_566 S
C106 C55 3.255 . S
C52 C114 3.255 1_654 S
C115 C53 3.255 1_565 S
C49 C109 3.255 1_554 S
C48 C108 3.255 1_655 S
C50 C51 1.485 . S
C112 C113 1.485 . S
C46 C47 1.485 . S
C111 C110 1.485 . S
C56 C57 1.485 . S
C104 C105 1.485 . S
