# Generated by pormake.
# Topology ilc, (8)-cn, num edge types: 1
# Building blocks:
#     Node 0, Type 0, BuildingBlock: NUHRAL_clean_sbu_3, # of connection points: 8
#     Node 1, Type 0, BuildingBlock: NUHRAL_clean_sbu_3, # of connection points: 8
#     Node 2, Type 0, BuildingBlock: NUHRAL_clean_sbu_3, # of connection points: 8
#     Edge 3, Type (0, 0), None
#     Edge 4, Type (0, 0), None
#     Edge 5, Type (0, 0), None
#     Edge 6, Type (0, 0), None
#     Edge 7, Type (0, 0), None
#     Edge 8, Type (0, 0), None
#     Edge 9, Type (0, 0), None
#     Edge 10, Type (0, 0), None
#     Edge 11, Type (0, 0), None
#     Edge 12, Type (0, 0), None
#     Edge 13, Type (0, 0), None
#     Edge 14, Type (0, 0), None
# Relax obj value: 0.278
# Max RMSD: 0.231
# Mean RMSD: 0.231
data_MOF--net-ilc--node1-NUHRAL_clean_sbu_3--edge1-none
_symmetry_space_group_name_H-M    P1
_symmetry_Int_Tables_number       1
_symmetry_cell_setting            triclinic
loop_
_symmetry_equiv_pos_as_xyz
'x, y, z'
_cell_length_a     13.976584
_cell_length_b     15.077449
_cell_length_c     11.91656
_cell_angle_alpha  110.75202
_cell_angle_beta   52.971182
_cell_angle_gamma 136.25408
loop_
_atom_site_label
_atom_site_type_symbol
_atom_site_fract_x
_atom_site_fract_y
_atom_site_fract_z
_atom_type_partial_charge
C0 C 0.01266 0.88121 0.23097 0.0
C1 C -0.0482 0.92988 0.34697 0.0
C2 C -0.04585 0.94368 0.46743 0.0
C3 C 0.01611 0.89918 0.46799 0.0
C4 C 0.06235 0.83509 0.3578 0.0
C5 C 0.05336 0.8242 0.24092 0.0
O6 O 0.78806 0.97401 0.26218 0.0
Tb7 Tb 0.04334 0.06828 0.09003 0.0
O8 O 0.11812 0.20257 0.23441 0.0
O9 O 0.66753 0.78145 0.17779 0.0
Eu10 Eu 0.81406 0.88269 0.96017 0.0
O11 O 0.19398 0.0525 0.05962 0.0
C12 C 0.78961 0.03423 0.957 0.0
O13 O -0.04118 0.8818 0.07834 0.0
O14 O 0.07802 -0.01926 0.78787 0.0
O15 O 0.18912 0.16981 0.87937 0.0
C16 C 0.072 0.92579 0.09387 0.0
C17 C 0.77551 0.67687 0.74524 0.0
O18 O 0.83821 0.66998 0.78691 0.0
C19 C 0.66679 0.84637 0.28642 0.0
C20 C 0.19646 0.108 0.7678 0.0
O21 O 0.73842 0.74741 0.80752 0.0
C22 C 0.84716 0.07684 0.81994 0.0
C23 C 0.79413 0.12011 0.69417 0.0
C24 C 0.80492 0.13252 0.81027 0.0
C25 C 0.90754 0.02757 0.70446 0.0
C26 C 0.90247 0.01158 0.58498 0.0
C27 C 0.83883 0.0548 0.58491 0.0
C28 C 0.07924 0.27193 0.29705 0.0
O29 O 0.01431 0.27706 0.25652 0.0
O30 O 0.66422 0.90817 0.9952 0.0
O31 O 0.90383 0.07693 0.96965 0.0
H32 H 0.91845 0.96873 0.33345 0.0
H33 H 0.03001 0.91535 0.55334 0.0
H34 H 0.08807 0.78047 0.15139 0.0
H35 H 0.77068 0.17656 0.89963 0.0
H36 H -0.05664 -0.00932 0.71775 0.0
H37 H 0.82208 0.03655 0.50089 0.0
C38 C 0.67932 0.21454 0.56431 0.0
C39 C 0.61846 0.26321 0.68031 0.0
C40 C 0.62081 0.27702 0.80077 0.0
C41 C 0.68277 0.23251 0.80132 0.0
C42 C 0.72903 0.16844 0.69113 0.0
C43 C 0.72002 0.15753 0.57426 0.0
O44 O 0.45473 0.30735 0.59552 0.0
Tb45 Tb 0.71001 0.40161 0.42337 0.0
O46 O 0.78478 0.5359 0.56775 0.0
O47 O 0.3342 0.11478 0.51112 0.0
Eu48 Eu 0.48074 0.21603 0.2935 0.0
O49 O 0.86065 0.38583 0.39296 0.0
C50 C 0.4563 0.36758 0.29032 0.0
O51 O 0.62549 0.21514 0.41168 0.0
O52 O 0.7447 0.31407 0.12121 0.0
O53 O 0.8558 0.50315 0.2127 0.0
C54 C 0.73866 0.25912 0.42721 0.0
C55 C 0.44219 0.01021 0.07857 0.0
O56 O 0.50487 0.00331 0.12025 0.0
C57 C 0.33346 0.1797 0.61975 0.0
C58 C 0.86314 0.44133 0.10113 0.0
O59 O 0.4051 0.08075 0.14084 0.0
C60 C 0.51385 0.41019 0.15327 0.0
C61 C 0.46079 0.45344 0.02751 0.0
C62 C 0.4716 0.46586 0.1436 0.0
C63 C 0.57424 0.36093 0.03779 0.0
C64 C 0.56914 0.34491 0.91832 0.0
C65 C 0.50548 0.38812 0.91826 0.0
C66 C 0.7459 0.60526 0.63039 0.0
O67 O 0.68098 0.6104 0.58985 0.0
O68 O 0.33091 0.24152 0.32853 0.0
O69 O 0.57051 0.41027 0.30298 0.0
H70 H 0.58512 0.30208 0.66679 0.0
H71 H 0.69667 0.24868 0.88669 0.0
H72 H 0.75472 0.1138 0.48474 0.0
H73 H 0.43735 0.5099 0.23296 0.0
H74 H 0.61008 0.32405 0.05107 0.0
H75 H 0.4887 0.36985 0.83426 0.0
C76 C 0.34597 0.54786 0.89765 0.0
C77 C 0.28511 0.59653 1.01365 0.0
C78 C 0.28746 0.61034 0.1341 0.0
C79 C 0.34943 0.56584 0.13466 0.0
C80 C 0.39568 0.50176 1.02446 0.0
C81 C 0.38668 0.49086 0.90759 0.0
O82 O 0.1214 0.64068 0.92885 0.0
Tb83 Tb 0.37668 0.73494 0.75671 0.0
O84 O 0.45145 0.86923 0.90109 0.0
O85 O 0.00087 0.44812 0.84445 0.0
Eu86 Eu 0.14739 0.54936 0.62684 0.0
O87 O 0.52731 0.71916 0.7263 0.0
C88 C 0.12295 0.7009 0.62366 0.0
O89 O 0.29215 0.54847 0.74501 0.0
O90 O 0.41136 0.6474 0.45454 0.0
O91 O 0.52247 0.83648 0.54604 0.0
C92 C 0.40532 0.59245 0.76054 0.0
C93 C 0.10885 0.34354 0.4119 0.0
O94 O 0.17155 0.33665 0.45356 0.0
C95 C 0.00013 0.51304 0.95309 0.0
C96 C 0.5298 0.77466 0.43447 0.0
O97 O 0.07176 0.41408 0.47418 0.0
C98 C 0.18049 0.74351 0.4866 0.0
C99 C 0.12745 0.78676 0.36084 0.0
C100 C 0.13826 0.79918 0.47694 0.0
C101 C 0.24087 0.69423 0.37113 0.0
C102 C 0.23579 0.67824 0.25165 0.0
C103 C 0.17215 0.72146 0.25158 0.0
C104 C 0.41258 0.9386 0.96372 0.0
O105 O 0.34766 0.94374 0.92318 0.0
O106 O -0.00244 0.57485 0.66187 0.0
O107 O 0.23717 0.7436 0.63631 0.0
H108 H 0.25176 0.63538 1.00013 0.0
H109 H 0.36334 0.58201 0.22002 0.0
H110 H 0.4214 0.44713 0.81807 0.0
H111 H 0.10401 0.84323 0.56629 0.0
H112 H 0.2767 0.65735 0.38442 0.0
H113 H 0.15539 0.7032 0.16757 0.0
loop_
_geom_bond_atom_site_label_1
_geom_bond_atom_site_label_2
_geom_bond_distance
_geom_bond_site_symmetry_2
_ccdc_geom_bond_type
C0 C1 1.387 . S
C0 C5 1.380 1_545 S
C0 C16 1.494 . S
C1 C0 1.387 . S
C1 C2 1.386 . S
C1 H32 0.930 . S
C2 C1 1.386 . S
C2 C3 1.397 1_545 S
C3 C2 1.397 1_565 S
C3 C4 1.393 . S
C3 H33 0.930 . S
C4 C3 1.393 . S
C4 C5 1.395 . S
C5 C0 1.380 1_565 S
C5 C4 1.395 . S
C5 H34 0.930 . S
O6 Tb7 2.295 1_665 S
O6 C19 1.242 . S
Tb7 O6 2.295 1_445 S
Tb7 O8 2.312 . S
Tb7 O11 2.438 . S
Tb7 O13 2.472 . S
Tb7 O15 2.308 1_554 S
Tb7 C16 2.821 . S
O8 Tb7 2.312 . S
O8 C28 1.264 . S
O9 Eu10 2.308 1_554 S
O9 C19 1.243 . S
Eu10 O9 2.308 1_556 S
Eu10 C12 2.821 . S
Eu10 O14 2.295 1_665 S
Eu10 O21 2.312 . S
Eu10 O30 2.438 . S
Eu10 O31 2.472 . S
O11 Tb7 2.438 . S
O11 C16 1.263 . S
C12 Eu10 2.821 . S
C12 C22 1.494 . S
C12 O30 1.263 . S
C12 O31 1.264 . S
O13 Tb7 2.472 . S
O13 C16 1.264 . S
O14 Eu10 2.295 1_445 S
O14 C20 1.242 . S
O15 Tb7 2.308 1_556 S
O15 C20 1.243 . S
C16 C0 1.494 . S
C16 Tb7 2.821 . S
C16 O11 1.263 . S
C16 O13 1.264 . S
C17 O18 1.260 . S
C17 O21 1.264 . S
O18 C17 1.260 . S
C19 O6 1.242 . S
C19 O9 1.243 . S
C20 O14 1.242 . S
C20 O15 1.243 . S
O21 Eu10 2.312 . S
O21 C17 1.264 . S
C22 C12 1.494 . S
C22 C24 1.380 1_565 S
C22 C25 1.387 . S
C23 C24 1.395 . S
C23 C27 1.393 . S
C24 C22 1.380 1_545 S
C24 C23 1.395 . S
C24 H35 0.930 . S
C25 C22 1.387 . S
C25 C26 1.386 . S
C25 H36 0.930 . S
C26 C25 1.386 . S
C26 C27 1.397 1_565 S
C27 C23 1.393 . S
C27 C26 1.397 1_545 S
C27 H37 0.930 . S
C28 O8 1.264 . S
C28 O29 1.260 . S
O29 C28 1.260 . S
O30 Eu10 2.438 . S
O30 C12 1.263 . S
O31 Eu10 2.472 . S
O31 C12 1.264 . S
H32 C1 0.930 . S
H33 C3 0.930 . S
H34 C5 0.930 . S
H35 C24 0.930 . S
H36 C25 0.930 . S
H37 C27 0.930 . S
C38 C39 1.387 . S
C38 C43 1.380 . S
C38 C54 1.494 . S
C39 C38 1.387 . S
C39 C40 1.386 . S
C39 H70 0.930 . S
C40 C39 1.386 . S
C40 C41 1.397 . S
C41 C40 1.397 . S
C41 C42 1.393 . S
C41 H71 0.930 . S
C42 C41 1.393 . S
C42 C43 1.395 . S
C43 C38 1.380 . S
C43 C42 1.395 . S
C43 H72 0.930 . S
O44 Tb45 2.295 . S
O44 C57 1.242 . S
Tb45 O44 2.295 . S
Tb45 O46 2.312 . S
Tb45 O49 2.438 . S
Tb45 O51 2.472 . S
Tb45 O53 2.308 1_655 S
Tb45 C54 2.821 . S
O46 Tb45 2.312 . S
O46 C66 1.264 . S
O47 Eu48 2.308 . S
O47 C57 1.243 . S
Eu48 O47 2.308 . S
Eu48 C50 2.821 . S
Eu48 O52 2.295 . S
Eu48 O59 2.312 . S
Eu48 O68 2.438 . S
Eu48 O69 2.472 . S
O49 Tb45 2.438 . S
O49 C54 1.263 . S
C50 Eu48 2.821 . S
C50 C60 1.494 . S
C50 O68 1.263 . S
C50 O69 1.264 . S
O51 Tb45 2.472 . S
O51 C54 1.264 . S
O52 Eu48 2.295 . S
O52 C58 1.242 . S
O53 Tb45 2.308 1_455 S
O53 C58 1.243 1_455 S
C54 C38 1.494 . S
C54 Tb45 2.821 . S
C54 O49 1.263 . S
C54 O51 1.264 . S
C55 O56 1.260 . S
C55 O59 1.264 1_565 S
O56 C55 1.260 . S
C57 O44 1.242 . S
C57 O47 1.243 . S
C58 O52 1.242 . S
C58 O53 1.243 1_655 S
O59 Eu48 2.312 . S
O59 C55 1.264 1_545 S
C60 C50 1.494 . S
C60 C62 1.380 . S
C60 C63 1.387 1_554 S
C61 C62 1.395 . S
C61 C65 1.393 1_554 S
C62 C60 1.380 . S
C62 C61 1.395 . S
C62 H73 0.930 . S
C63 C60 1.387 1_556 S
C63 C64 1.386 . S
C63 H74 0.930 . S
C64 C63 1.386 . S
C64 C65 1.397 . S
C65 C61 1.393 1_556 S
C65 C64 1.397 . S
C65 H75 0.930 . S
C66 O46 1.264 . S
C66 O67 1.260 . S
O67 C66 1.260 . S
O68 Eu48 2.438 . S
O68 C50 1.263 . S
O69 Eu48 2.472 . S
O69 C50 1.264 . S
H70 C39 0.930 . S
H71 C41 0.930 . S
H72 C43 0.930 . S
H73 C62 0.930 . S
H74 C63 0.930 . S
H75 C65 0.930 . S
C76 C77 1.387 1_556 S
C76 C81 1.380 . S
C76 C92 1.494 . S
C77 C76 1.387 1_554 S
C77 C78 1.386 . S
C77 H108 0.930 . S
C78 C77 1.386 . S
C78 C79 1.397 . S
C79 C78 1.397 . S
C79 C80 1.393 1_554 S
C79 H109 0.930 . S
C80 C79 1.393 1_556 S
C80 C81 1.395 . S
C81 C76 1.380 . S
C81 C80 1.395 . S
C81 H110 0.930 . S
O82 Tb83 2.295 . S
O82 C95 1.242 . S
Tb83 O82 2.295 . S
Tb83 O84 2.312 . S
Tb83 O87 2.438 . S
Tb83 O89 2.472 . S
Tb83 O91 2.308 . S
Tb83 C92 2.821 . S
O84 Tb83 2.312 . S
O84 C104 1.264 1_565 S
O85 Eu86 2.308 1_655 S
O85 C95 1.243 1_655 S
Eu86 O85 2.308 1_455 S
Eu86 C88 2.821 . S
Eu86 O90 2.295 . S
Eu86 O97 2.312 . S
Eu86 O106 2.438 . S
Eu86 O107 2.472 . S
O87 Tb83 2.438 . S
O87 C92 1.263 . S
C88 Eu86 2.821 . S
C88 C98 1.494 . S
C88 O106 1.263 . S
C88 O107 1.264 . S
O89 Tb83 2.472 . S
O89 C92 1.264 . S
O90 Eu86 2.295 . S
O90 C96 1.242 . S
O91 Tb83 2.308 . S
O91 C96 1.243 . S
C92 C76 1.494 . S
C92 Tb83 2.821 . S
C92 O87 1.263 . S
C92 O89 1.264 . S
C93 O94 1.260 . S
C93 O97 1.264 . S
O94 C93 1.260 . S
C95 O82 1.242 . S
C95 O85 1.243 1_455 S
C96 O90 1.242 . S
C96 O91 1.243 . S
O97 Eu86 2.312 . S
O97 C93 1.264 . S
C98 C88 1.494 . S
C98 C100 1.380 . S
C98 C101 1.387 . S
C99 C100 1.395 . S
C99 C103 1.393 . S
C100 C98 1.380 . S
C100 C99 1.395 . S
C100 H111 0.930 . S
C101 C98 1.387 . S
C101 C102 1.386 . S
C101 H112 0.930 . S
C102 C101 1.386 . S
C102 C103 1.397 . S
C103 C99 1.393 . S
C103 C102 1.397 . S
C103 H113 0.930 . S
C104 O84 1.264 1_545 S
C104 O105 1.260 . S
O105 C104 1.260 . S
O106 Eu86 2.438 . S
O106 C88 1.263 . S
O107 Eu86 2.472 . S
O107 C88 1.264 . S
H108 C77 0.930 . S
H109 C79 0.930 . S
H110 C81 0.930 . S
H111 C100 0.930 . S
H112 C101 0.930 . S
H113 C103 0.930 . S
C26 C2 5.047 1_665 S
C40 C64 5.047 . S
C78 C102 5.047 . S
C99 C4 2.744 . S
C93 C28 2.578 . S
C96 C19 2.840 . S
C42 C23 2.744 . S
C66 C17 2.580 . S
C57 C20 2.842 . S
C61 C80 2.744 1_554 S
C104 C55 2.579 1_546 S
C95 C58 2.841 1_456 S
