# Generated by pormake.
# Topology ukg, (4)-cn, num edge types: 1
# Building blocks:
#     Node 0, Type 0, BuildingBlock: GALJAG_clean_sbu_0, # of connection points: 4
#     Node 1, Type 0, BuildingBlock: GALJAG_clean_sbu_0, # of connection points: 4
#     Node 2, Type 0, BuildingBlock: GALJAG_clean_sbu_0, # of connection points: 4
#     Node 3, Type 0, BuildingBlock: GALJAG_clean_sbu_0, # of connection points: 4
#     Node 4, Type 0, BuildingBlock: GALJAG_clean_sbu_0, # of connection points: 4
#     Node 5, Type 0, BuildingBlock: GALJAG_clean_sbu_0, # of connection points: 4
#     Node 6, Type 0, BuildingBlock: GALJAG_clean_sbu_0, # of connection points: 4
#     Node 7, Type 0, BuildingBlock: GALJAG_clean_sbu_0, # of connection points: 4
#     Edge 8, Type (0, 0), BuildingBlock: EYOCIG_clean_linker_4, # of connection points: 2
#     Edge 9, Type (0, 0), BuildingBlock: EYOCIG_clean_linker_4, # of connection points: 2
#     Edge 10, Type (0, 0), BuildingBlock: EYOCIG_clean_linker_4, # of connection points: 2
#     Edge 11, Type (0, 0), BuildingBlock: EYOCIG_clean_linker_4, # of connection points: 2
#     Edge 12, Type (0, 0), BuildingBlock: EYOCIG_clean_linker_4, # of connection points: 2
#     Edge 13, Type (0, 0), BuildingBlock: EYOCIG_clean_linker_4, # of connection points: 2
#     Edge 14, Type (0, 0), BuildingBlock: EYOCIG_clean_linker_4, # of connection points: 2
#     Edge 15, Type (0, 0), BuildingBlock: EYOCIG_clean_linker_4, # of connection points: 2
#     Edge 16, Type (0, 0), BuildingBlock: EYOCIG_clean_linker_4, # of connection points: 2
#     Edge 17, Type (0, 0), BuildingBlock: EYOCIG_clean_linker_4, # of connection points: 2
#     Edge 18, Type (0, 0), BuildingBlock: EYOCIG_clean_linker_4, # of connection points: 2
#     Edge 19, Type (0, 0), BuildingBlock: EYOCIG_clean_linker_4, # of connection points: 2
#     Edge 20, Type (0, 0), BuildingBlock: EYOCIG_clean_linker_4, # of connection points: 2
#     Edge 21, Type (0, 0), BuildingBlock: EYOCIG_clean_linker_4, # of connection points: 2
#     Edge 22, Type (0, 0), BuildingBlock: EYOCIG_clean_linker_4, # of connection points: 2
#     Edge 23, Type (0, 0), BuildingBlock: EYOCIG_clean_linker_4, # of connection points: 2
# Relax obj value: 0.111
# Max RMSD: 0.188
# Mean RMSD: 0.187
data_MOF--net-ukg--node1-GALJAG_clean_sbu_0--edge1-EYOCIG_clean_linker_4
_symmetry_space_group_name_H-M    P1
_symmetry_Int_Tables_number       1
_symmetry_cell_setting            triclinic
loop_
_symmetry_equiv_pos_as_xyz
'x, y, z'
_cell_length_a     23.872412
_cell_length_b     23.884673
_cell_length_c     31.117687
_cell_angle_alpha  90.116563
_cell_angle_beta   89.899345
_cell_angle_gamma 90.015528
loop_
_atom_site_label
_atom_site_type_symbol
_atom_site_fract_x
_atom_site_fract_y
_atom_site_fract_z
_atom_type_partial_charge
In0 In 0.00281 0.67606 0.12746 0.0
O1 O 0.97568 0.65161 0.05896 0.0
O2 O 0.01859 0.59186 0.09822 0.0
C3 C 0.95825 0.77139 0.15558 0.0
C4 C 0.11097 0.70615 0.1233 0.0
C5 C 0.94288 0.62285 0.18717 0.0
O6 O 0.94612 0.75318 0.11836 0.0
O7 O 0.99403 0.7437 0.17617 0.0
O8 O -0.00437 0.62654 0.1891 0.0
O9 O 0.92041 0.64272 0.15379 0.0
C10 C -0.00457 0.6026 0.0629 0.0
O11 O 0.09319 0.67035 0.14983 0.0
O12 O 0.07466 0.72636 0.09823 0.0
In13 In 0.31089 0.49871 0.62572 0.0
O14 O 0.31853 0.58851 0.64926 0.0
O15 O 0.26082 0.5716 0.5983 0.0
C16 C 0.36395 0.43623 0.68362 0.0
C17 C 0.38303 0.49287 0.56025 0.0
C18 C 0.21577 0.4552 0.65504 0.0
O19 O 0.36127 0.48895 0.6866 0.0
O20 O 0.34335 0.41504 0.64994 0.0
O21 O 0.23298 0.4428 0.61754 0.0
O22 O 0.2442 0.49091 0.67523 0.0
C23 C 0.28224 0.60718 0.62351 0.0
O24 O 0.33361 0.47403 0.55625 0.0
O25 O 0.39483 0.51413 0.59614 0.0
In26 In 0.48947 0.8117 0.12612 0.0
O27 O 0.51509 0.83509 0.05709 0.0
O28 O 0.47386 0.89564 0.09709 0.0
C29 C 0.53343 0.71694 0.15548 0.0
C30 C 0.38078 0.78359 0.12309 0.0
C31 C 0.55182 0.86582 0.18366 0.0
O32 O 0.54516 0.73363 0.11777 0.0
O33 O 0.49808 0.74563 0.17588 0.0
O34 O 0.49918 0.86215 0.18708 0.0
O35 O 0.57296 0.84536 0.14986 0.0
C36 C 0.49594 0.88436 0.06138 0.0
O37 O 0.39951 0.81928 0.1494 0.0
O38 O 0.41647 0.76231 0.09784 0.0
In39 In 0.17476 0.98489 0.62788 0.0
O40 O 0.16684 0.89474 0.65038 0.0
O41 O 0.22538 0.91236 0.60007 0.0
C42 C 0.12044 0.04578 0.68658 0.0
C43 C 0.1041 0.99208 0.56172 0.0
C44 C 0.26946 0.02889 0.65757 0.0
O45 O 0.1234 0.99302 0.68873 0.0
O46 O 0.14147 0.06776 0.65338 0.0
O47 O 0.25217 0.04162 0.62026 0.0
O48 O 0.24136 0.99263 0.6774 0.0
C49 C 0.20358 0.87643 0.62472 0.0
O50 O 0.15367 0.01072 0.55848 0.0
O51 O 0.09139 0.97032 0.5972 0.0
In52 In 0.98568 0.31156 0.86615 0.0
O53 O 0.8958 0.32028 0.84298 0.0
O54 O 0.91213 0.26276 0.89405 0.0
C55 C 0.04827 0.36416 0.80779 0.0
C56 C 0.99248 0.38355 0.93167 0.0
C57 C 0.0284 0.21546 0.8377 0.0
O58 O -0.00445 0.36124 0.80488 0.0
O59 O 0.06942 0.3439 0.84154 0.0
O60 O 0.04043 0.233 0.87513 0.0
O61 O 0.99353 0.2442 0.81704 0.0
C62 C 0.8767 0.28453 0.86902 0.0
O63 O 0.01109 0.33407 0.93542 0.0
O64 O 0.97103 0.39557 0.89597 0.0
In65 In 0.67836 0.48928 0.36699 0.0
O66 O 0.67256 0.3993 0.34368 0.0
O67 O 0.7282 0.41715 0.3958 0.0
C68 C 0.62608 0.55112 0.30821 0.0
C69 C 0.604 0.49481 0.43101 0.0
C70 C 0.77429 0.53249 0.339 0.0
O71 O 0.62916 0.4984 0.30546 0.0
O72 O 0.64607 0.57266 0.34199 0.0
O73 O 0.7565 0.54457 0.37641 0.0
O74 O 0.74579 0.4975 0.31815 0.0
C75 C 0.70811 0.38119 0.37026 0.0
O76 O 0.6528 0.51498 0.43566 0.0
O77 O 0.5939 0.47235 0.39525 0.0
In78 In 0.49906 0.17658 0.8672 0.0
O79 O 0.47475 0.1536 0.93657 0.0
O80 O 0.51571 0.09298 0.89645 0.0
C81 C 0.4549 0.27073 0.83719 0.0
C82 C 0.60713 0.20661 0.87017 0.0
C83 C 0.4367 0.12232 0.80973 0.0
O84 O 0.44241 0.254 0.87476 0.0
O85 O 0.49102 0.24239 0.81729 0.0
O86 O 0.48941 0.12551 0.8065 0.0
O87 O 0.41552 0.14308 0.84341 0.0
C88 C 0.49435 0.1045 0.93239 0.0
O89 O 0.58913 0.17021 0.8441 0.0
O90 O 0.57103 0.22755 0.89524 0.0
In91 In 0.81399 0.00327 0.36516 0.0
O92 O 0.82214 0.0934 0.34284 0.0
O93 O 0.76452 0.07595 0.39385 0.0
C94 C 0.86691 0.9412 0.30661 0.0
C95 C 0.88628 -0.00437 0.43013 0.0
C96 C 0.71881 0.96044 0.33556 0.0
O97 O 0.86429 0.99394 0.30398 0.0
O98 O 0.84624 0.91982 0.34018 0.0
O99 O 0.73579 0.94778 0.37298 0.0
O100 O 0.74743 -0.00382 0.3156 0.0
C101 C 0.78614 0.11185 0.36906 0.0
O102 O 0.83679 0.97694 0.43406 0.0
O103 O 0.89805 0.01778 0.39459 0.0
C104 C -0.00518 0.46689 0.98654 0.0
C105 C -0.00372 0.42541 0.96452 0.0
C106 C 0.99186 0.51803 0.00915 0.0
C107 C 0.99085 0.55985 0.0308 0.0
C108 C 0.46694 0.49173 0.50593 0.0
C109 C 0.42509 0.4896 0.52752 0.0
C110 C 0.51854 0.49584 0.48401 0.0
C111 C 0.56077 0.49804 0.46287 0.0
C112 C 0.49824 0.96898 0.00806 0.0
C113 C 0.49993 0.92687 0.0292 0.0
C114 C 0.49416 0.02055 0.98635 0.0
C115 C 0.49158 0.06238 0.96494 0.0
C116 C 0.97024 0.99212 0.48415 0.0
C117 C 0.92848 0.9911 0.46253 0.0
C118 C 0.02139 -0.00498 0.5066 0.0
C119 C 0.06276 -0.00367 0.52865 0.0
C120 C 0.2171 0.73778 0.12235 0.0
C121 C 0.16856 0.72365 0.12251 0.0
C122 C 0.27406 0.75399 0.12243 0.0
C123 C 0.3228 0.7674 0.12264 0.0
C124 C 0.2513 0.71343 0.62403 0.0
C125 C 0.26537 0.66491 0.62375 0.0
C126 C 0.2346 0.7702 0.62429 0.0
C127 C 0.2205 0.81871 0.62444 0.0
C128 C 0.7132 0.23831 0.87031 0.0
C129 C 0.66472 0.22404 0.87043 0.0
C130 C 0.77003 0.25493 0.86984 0.0
C131 C 0.81869 0.26856 0.86937 0.0
C132 C 0.7398 0.2752 0.3705 0.0
C133 C 0.72555 0.32365 0.37059 0.0
C134 C 0.75622 0.21836 0.3702 0.0
C135 C 0.76978 0.16971 0.36977 0.0
C136 C 0.85218 0.57634 0.29102 0.0
C137 C 0.81926 0.56077 0.3178 0.0
C138 C 0.88421 0.5914 0.25474 0.0
C139 C 0.91037 0.60589 0.22358 0.0
C140 C 0.3945 0.37638 0.75059 0.0
C141 C 0.38031 0.40255 0.71944 0.0
C142 C 0.40962 0.34541 0.78727 0.0
C143 C 0.42573 0.31395 0.81475 0.0
C144 C 0.61205 0.89894 0.24979 0.0
C145 C 0.58568 0.88359 0.21903 0.0
C146 C 0.6434 0.91508 0.28607 0.0
C147 C 0.67528 0.93145 0.31324 0.0
C148 C 0.0727 0.13764 0.78966 0.0
C149 C 0.05676 0.17062 0.8163 0.0
C150 C 0.08827 0.10528 0.75363 0.0
C151 C 0.10311 0.07873 0.72271 0.0
C152 C 0.10843 0.39504 0.74087 0.0
C153 C 0.08203 0.38072 0.77195 0.0
C154 C 0.13991 0.41027 0.70435 0.0
C155 C 0.17193 0.4263 0.67712 0.0
C156 C 0.59489 0.61052 0.24114 0.0
C157 C 0.60935 0.58447 0.27228 0.0
C158 C 0.57919 0.64162 0.20464 0.0
C159 C 0.56269 0.67335 0.17746 0.0
C160 C 0.37636 0.09018 0.74332 0.0
C161 C 0.40287 0.10507 0.77416 0.0
C162 C 0.34482 0.07442 0.70702 0.0
C163 C 0.31288 0.05808 0.67987 0.0
C164 C 0.91308 0.84856 0.20361 0.0
C165 C 0.9292 0.81579 0.17691 0.0
C166 C 0.89784 0.88086 0.23972 0.0
C167 C 0.88354 0.90763 0.27065 0.0
loop_
_geom_bond_atom_site_label_1
_geom_bond_atom_site_label_2
_geom_bond_distance
_geom_bond_site_symmetry_2
_ccdc_geom_bond_type
In0 O1 2.293 1_455 S
In0 O2 2.327 . S
In0 O6 2.264 1_455 S
In0 O7 2.325 1_455 S
In0 O8 2.266 1_455 S
In0 O9 2.323 1_455 S
In0 O11 2.297 . S
In0 O12 2.329 . S
O1 In0 2.293 1_655 S
O1 C10 1.240 1_655 S
O2 In0 2.327 . S
O2 C10 1.252 . S
C3 O6 1.252 . S
C3 O7 1.260 . S
C4 O11 1.240 . S
C4 O12 1.252 . S
C5 O8 1.252 . S
C5 O9 1.260 . S
O6 In0 2.264 1_655 S
O6 C3 1.252 . S
O7 In0 2.325 1_655 S
O7 C3 1.260 . S
O8 In0 2.266 1_655 S
O8 C5 1.252 . S
O9 In0 2.323 1_655 S
O9 C5 1.260 . S
C10 O1 1.240 1_455 S
C10 O2 1.252 . S
O11 In0 2.297 . S
O11 C4 1.240 . S
O12 In0 2.329 . S
O12 C4 1.252 . S
In13 O14 2.294 . S
In13 O15 2.326 . S
In13 O19 2.266 . S
In13 O20 2.326 . S
In13 O21 2.266 . S
In13 O22 2.326 . S
In13 O24 2.294 . S
In13 O25 2.326 . S
O14 In13 2.294 . S
O14 C23 1.240 . S
O15 In13 2.326 . S
O15 C23 1.252 . S
C16 O19 1.252 . S
C16 O20 1.260 . S
C17 O24 1.240 . S
C17 O25 1.252 . S
C18 O21 1.252 . S
C18 O22 1.260 . S
O19 In13 2.266 . S
O19 C16 1.252 . S
O20 In13 2.326 . S
O20 C16 1.260 . S
O21 In13 2.266 . S
O21 C18 1.252 . S
O22 In13 2.326 . S
O22 C18 1.260 . S
C23 O14 1.240 . S
C23 O15 1.252 . S
O24 In13 2.294 . S
O24 C17 1.240 . S
O25 In13 2.326 . S
O25 C17 1.252 . S
In26 O27 2.294 . S
In26 O28 2.326 . S
In26 O32 2.266 . S
In26 O33 2.326 . S
In26 O34 2.266 . S
In26 O35 2.326 . S
In26 O37 2.294 . S
In26 O38 2.326 . S
O27 In26 2.294 . S
O27 C36 1.240 . S
O28 In26 2.326 . S
O28 C36 1.252 . S
C29 O32 1.252 . S
C29 O33 1.260 . S
C30 O37 1.240 . S
C30 O38 1.252 . S
C31 O34 1.252 . S
C31 O35 1.260 . S
O32 In26 2.266 . S
O32 C29 1.252 . S
O33 In26 2.326 . S
O33 C29 1.260 . S
O34 In26 2.266 . S
O34 C31 1.252 . S
O35 In26 2.326 . S
O35 C31 1.260 . S
C36 O27 1.240 . S
C36 O28 1.252 . S
O37 In26 2.294 . S
O37 C30 1.240 . S
O38 In26 2.326 . S
O38 C30 1.252 . S
In39 O40 2.297 . S
In39 O41 2.329 . S
In39 O45 2.266 1_565 S
In39 O46 2.323 1_565 S
In39 O47 2.264 1_565 S
In39 O48 2.325 1_565 S
In39 O50 2.293 1_565 S
In39 O51 2.327 . S
O40 In39 2.297 . S
O40 C49 1.240 . S
O41 In39 2.329 . S
O41 C49 1.252 . S
C42 O45 1.252 . S
C42 O46 1.260 . S
C43 O50 1.240 1_565 S
C43 O51 1.252 . S
C44 O47 1.252 . S
C44 O48 1.260 . S
O45 In39 2.266 1_545 S
O45 C42 1.252 . S
O46 In39 2.323 1_545 S
O46 C42 1.260 . S
O47 In39 2.264 1_545 S
O47 C44 1.252 . S
O48 In39 2.325 1_545 S
O48 C44 1.260 . S
C49 O40 1.240 . S
C49 O41 1.252 . S
O50 In39 2.293 1_545 S
O50 C43 1.240 1_545 S
O51 In39 2.327 . S
O51 C43 1.252 . S
In52 O53 2.297 . S
In52 O54 2.329 . S
In52 O58 2.266 1_655 S
In52 O59 2.323 1_655 S
In52 O60 2.264 1_655 S
In52 O61 2.325 1_655 S
In52 O63 2.293 1_655 S
In52 O64 2.327 . S
O53 In52 2.297 . S
O53 C62 1.240 . S
O54 In52 2.329 . S
O54 C62 1.252 . S
C55 O58 1.252 . S
C55 O59 1.260 . S
C56 O63 1.240 1_655 S
C56 O64 1.252 . S
C57 O60 1.252 . S
C57 O61 1.260 . S
O58 In52 2.266 1_455 S
O58 C55 1.252 . S
O59 In52 2.323 1_455 S
O59 C55 1.260 . S
O60 In52 2.264 1_455 S
O60 C57 1.252 . S
O61 In52 2.325 1_455 S
O61 C57 1.260 . S
C62 O53 1.240 . S
C62 O54 1.252 . S
O63 In52 2.293 1_455 S
O63 C56 1.240 1_455 S
O64 In52 2.327 . S
O64 C56 1.252 . S
In65 O66 2.294 . S
In65 O67 2.326 . S
In65 O71 2.266 . S
In65 O72 2.326 . S
In65 O73 2.266 . S
In65 O74 2.326 . S
In65 O76 2.294 . S
In65 O77 2.326 . S
O66 In65 2.294 . S
O66 C75 1.240 . S
O67 In65 2.326 . S
O67 C75 1.252 . S
C68 O71 1.252 . S
C68 O72 1.260 . S
C69 O76 1.240 . S
C69 O77 1.252 . S
C70 O73 1.252 . S
C70 O74 1.260 . S
O71 In65 2.266 . S
O71 C68 1.252 . S
O72 In65 2.326 . S
O72 C68 1.260 . S
O73 In65 2.266 . S
O73 C70 1.252 . S
O74 In65 2.326 . S
O74 C70 1.260 . S
C75 O66 1.240 . S
C75 O67 1.252 . S
O76 In65 2.294 . S
O76 C69 1.240 . S
O77 In65 2.326 . S
O77 C69 1.252 . S
In78 O79 2.294 . S
In78 O80 2.326 . S
In78 O84 2.266 . S
In78 O85 2.326 . S
In78 O86 2.266 . S
In78 O87 2.326 . S
In78 O89 2.294 . S
In78 O90 2.326 . S
O79 In78 2.294 . S
O79 C88 1.240 . S
O80 In78 2.326 . S
O80 C88 1.252 . S
C81 O84 1.252 . S
C81 O85 1.260 . S
C82 O89 1.240 . S
C82 O90 1.252 . S
C83 O86 1.252 . S
C83 O87 1.260 . S
O84 In78 2.266 . S
O84 C81 1.252 . S
O85 In78 2.326 . S
O85 C81 1.260 . S
O86 In78 2.266 . S
O86 C83 1.252 . S
O87 In78 2.326 . S
O87 C83 1.260 . S
C88 O79 1.240 . S
C88 O80 1.252 . S
O89 In78 2.294 . S
O89 C82 1.240 . S
O90 In78 2.326 . S
O90 C82 1.252 . S
In91 O92 2.297 . S
In91 O93 2.329 . S
In91 O97 2.266 1_545 S
In91 O98 2.323 1_545 S
In91 O99 2.264 1_545 S
In91 O100 2.325 1_545 S
In91 O102 2.293 1_545 S
In91 O103 2.327 . S
O92 In91 2.297 . S
O92 C101 1.240 . S
O93 In91 2.329 . S
O93 C101 1.252 . S
C94 O97 1.252 . S
C94 O98 1.260 . S
C95 O102 1.240 1_545 S
C95 O103 1.252 . S
C96 O99 1.252 . S
C96 O100 1.260 . S
O97 In91 2.266 1_565 S
O97 C94 1.252 . S
O98 In91 2.323 1_565 S
O98 C94 1.260 . S
O99 In91 2.264 1_565 S
O99 C96 1.252 . S
O100 In91 2.325 1_565 S
O100 C96 1.260 . S
C101 O92 1.240 . S
C101 O93 1.252 . S
O102 In91 2.293 1_565 S
O102 C95 1.240 1_565 S
O103 In91 2.327 . S
O103 C95 1.252 . S
C104 C105 1.170 . S
C104 C106 1.381 1_556 S
C105 C104 1.170 . S
C106 C104 1.381 1_554 S
C106 C107 1.170 1_655 S
C107 C106 1.170 1_455 S
C108 C109 1.170 . S
C108 C110 1.380 . S
C109 C108 1.170 . S
C110 C108 1.380 . S
C110 C111 1.170 . S
C111 C110 1.170 . S
C112 C113 1.170 . S
C112 C114 1.380 1_564 S
C113 C112 1.170 . S
C114 C112 1.380 1_546 S
C114 C115 1.170 . S
C115 C114 1.170 . S
C116 C117 1.171 . S
C116 C118 1.380 1_645 S
C117 C116 1.171 . S
C118 C116 1.380 1_465 S
C118 C119 1.170 . S
C119 C118 1.170 . S
C120 C121 1.170 . S
C120 C122 1.380 . S
C121 C120 1.170 . S
C122 C120 1.380 . S
C122 C123 1.170 . S
C123 C122 1.170 . S
C124 C125 1.170 . S
C124 C126 1.380 . S
C125 C124 1.170 . S
C126 C124 1.380 . S
C126 C127 1.170 . S
C127 C126 1.170 . S
C128 C129 1.170 . S
C128 C130 1.380 . S
C129 C128 1.170 . S
C130 C128 1.380 . S
C130 C131 1.170 . S
C131 C130 1.170 . S
C132 C133 1.170 . S
C132 C134 1.380 . S
C133 C132 1.170 . S
C134 C132 1.380 . S
C134 C135 1.170 . S
C135 C134 1.170 . S
C136 C137 1.170 . S
C136 C138 1.380 . S
C137 C136 1.170 . S
C138 C136 1.380 . S
C138 C139 1.170 . S
C139 C138 1.170 . S
C140 C141 1.170 . S
C140 C142 1.380 . S
C141 C140 1.170 . S
C142 C140 1.380 . S
C142 C143 1.170 . S
C143 C142 1.170 . S
C144 C145 1.170 . S
C144 C146 1.380 . S
C145 C144 1.170 . S
C146 C144 1.380 . S
C146 C147 1.170 . S
C147 C146 1.170 . S
C148 C149 1.170 . S
C148 C150 1.380 . S
C149 C148 1.170 . S
C150 C148 1.380 . S
C150 C151 1.170 . S
C151 C150 1.170 . S
C152 C153 1.170 . S
C152 C154 1.380 . S
C153 C152 1.170 . S
C154 C152 1.380 . S
C154 C155 1.170 . S
C155 C154 1.170 . S
C156 C157 1.170 . S
C156 C158 1.380 . S
C157 C156 1.170 . S
C158 C156 1.380 . S
C158 C159 1.170 . S
C159 C158 1.170 . S
C160 C161 1.170 . S
C160 C162 1.380 . S
C161 C160 1.170 . S
C162 C160 1.380 . S
C162 C163 1.170 . S
C163 C162 1.170 . S
C164 C165 1.170 . S
C164 C166 1.380 . S
C165 C164 1.170 . S
C166 C164 1.380 . S
C166 C167 1.170 . S
C167 C166 1.170 . S
C105 C56 1.762 . S
C107 C10 1.731 . S
C109 C17 1.769 . S
C111 C69 1.735 . S
C113 C36 1.736 . S
C115 C88 1.757 . S
C117 C95 1.718 . S
C119 C43 1.752 . S
C121 C4 1.644 . S
C123 C30 1.654 . S
C125 C23 1.651 . S
C127 C49 1.647 . S
C129 C82 1.645 . S
C131 C62 1.652 . S
C133 C75 1.644 . S
C135 C101 1.652 . S
C137 C70 1.212 . S
C139 C5 1.227 . S
C141 C16 1.243 . S
C143 C81 1.185 . S
C145 C31 1.239 . S
C147 C96 1.160 . S
C149 C57 1.205 . S
C151 C42 1.213 . S
C153 C55 1.230 . S
C155 C18 1.166 . S
C157 C68 1.229 . S
C159 C29 1.190 . S
C161 C83 1.224 . S
C163 C44 1.160 . S
C165 C3 1.186 . S
C167 C94 1.212 . S
