# Generated by pormake.
# Topology crb, (4)-cn, num edge types: 1
# Building blocks:
#     Node 0, Type 0, BuildingBlock: NAHDIM_clean_sbu_0, # of connection points: 4
#     Node 1, Type 0, BuildingBlock: NAHDIM_clean_sbu_0, # of connection points: 4
#     Node 2, Type 0, BuildingBlock: NAHDIM_clean_sbu_0, # of connection points: 4
#     Node 3, Type 0, BuildingBlock: NAHDIM_clean_sbu_0, # of connection points: 4
#     Node 4, Type 0, BuildingBlock: NAHDIM_clean_sbu_0, # of connection points: 4
#     Node 5, Type 0, BuildingBlock: NAHDIM_clean_sbu_0, # of connection points: 4
#     Node 6, Type 0, BuildingBlock: NAHDIM_clean_sbu_0, # of connection points: 4
#     Node 7, Type 0, BuildingBlock: NAHDIM_clean_sbu_0, # of connection points: 4
#     Edge 8, Type (0, 0), BuildingBlock: OJICUG_clean_linker_0, # of connection points: 2
#     Edge 9, Type (0, 0), BuildingBlock: OJICUG_clean_linker_0, # of connection points: 2
#     Edge 10, Type (0, 0), BuildingBlock: OJICUG_clean_linker_0, # of connection points: 2
#     Edge 11, Type (0, 0), BuildingBlock: OJICUG_clean_linker_0, # of connection points: 2
#     Edge 12, Type (0, 0), BuildingBlock: OJICUG_clean_linker_0, # of connection points: 2
#     Edge 13, Type (0, 0), BuildingBlock: OJICUG_clean_linker_0, # of connection points: 2
#     Edge 14, Type (0, 0), BuildingBlock: OJICUG_clean_linker_0, # of connection points: 2
#     Edge 15, Type (0, 0), BuildingBlock: OJICUG_clean_linker_0, # of connection points: 2
#     Edge 16, Type (0, 0), BuildingBlock: OJICUG_clean_linker_0, # of connection points: 2
#     Edge 17, Type (0, 0), BuildingBlock: OJICUG_clean_linker_0, # of connection points: 2
#     Edge 18, Type (0, 0), BuildingBlock: OJICUG_clean_linker_0, # of connection points: 2
#     Edge 19, Type (0, 0), BuildingBlock: OJICUG_clean_linker_0, # of connection points: 2
#     Edge 20, Type (0, 0), BuildingBlock: OJICUG_clean_linker_0, # of connection points: 2
#     Edge 21, Type (0, 0), BuildingBlock: OJICUG_clean_linker_0, # of connection points: 2
#     Edge 22, Type (0, 0), BuildingBlock: OJICUG_clean_linker_0, # of connection points: 2
#     Edge 23, Type (0, 0), BuildingBlock: OJICUG_clean_linker_0, # of connection points: 2
# Relax obj value: 0.033
# Max RMSD: 0.066
# Mean RMSD: 0.066
data_MOF--net-crb--node1-NAHDIM_clean_sbu_0--edge1-OJICUG_clean_linker_0
_symmetry_space_group_name_H-M    P1
_symmetry_Int_Tables_number       1
_symmetry_cell_setting            triclinic
loop_
_symmetry_equiv_pos_as_xyz
'x, y, z'
_cell_length_a     30.528517
_cell_length_b     32.079973
_cell_length_c     18.012424
_cell_angle_alpha  89.99925
_cell_angle_beta   89.994627
_cell_angle_gamma 89.999716
loop_
_atom_site_label
_atom_site_type_symbol
_atom_site_fract_x
_atom_site_fract_y
_atom_site_fract_z
_atom_type_partial_charge
C0 C 0.31358 0.26576 0.15692 0.0
O1 O 0.34762 0.24968 0.12272 0.0
O2 O 0.38653 0.32142 0.03866 0.0
Zn3 Zn 0.32068 0.32652 0.03971 0.0
O4 O 0.29483 0.29932 0.949 0.0
C5 C 0.3198 0.4087 0.09727 0.0
O6 O 0.33958 0.38888 0.15162 0.0
O7 O 0.29632 0.29887 0.13145 0.0
C8 C 0.29802 0.31624 0.88545 0.0
O9 O 0.31821 0.35226 0.87941 0.0
C10 C 0.40767 0.29494 0.00028 0.0
O11 O 0.3861 0.26825 0.95877 0.0
O12 O 0.30675 0.38797 0.04136 0.0
C13 C 0.72506 0.269 0.95388 0.0
O14 O 0.7223 0.24859 0.01694 0.0
O15 O 0.61727 0.32539 0.03882 0.0
Zn16 Zn 0.68281 0.33299 0.04039 0.0
O17 O 0.70695 0.307 0.1337 0.0
C18 C 0.68103 0.41546 0.09698 0.0
O19 O 0.66219 0.39525 0.15184 0.0
O20 O 0.71034 0.30604 0.95031 0.0
C21 C 0.7439 0.31794 0.15965 0.0
O22 O 0.76641 0.34703 0.12527 0.0
C23 C 0.59723 0.29737 0.00226 0.0
O24 O 0.61986 0.27055 0.96269 0.0
O25 O 0.6943 0.39495 0.04091 0.0
C26 C 0.68592 0.73878 0.15666 0.0
O27 O 0.65197 0.75492 0.12233 0.0
O28 O 0.6129 0.68305 0.03857 0.0
Zn29 Zn 0.67874 0.67794 0.03961 0.0
O30 O 0.7046 0.70512 0.94887 0.0
C31 C 0.67955 0.59577 0.09719 0.0
O32 O 0.65973 0.6156 0.15148 0.0
O33 O 0.70311 0.7056 0.13132 0.0
C34 C 0.7014 0.68821 0.88533 0.0
O35 O 0.68118 0.6522 0.87929 0.0
C36 C 0.59176 0.70953 0.00018 0.0
O37 O 0.61334 0.73621 0.95865 0.0
O38 O 0.69266 0.61649 0.04129 0.0
C39 C 0.27439 0.73546 0.95367 0.0
O40 O 0.27718 0.75587 0.01672 0.0
O41 O 0.38216 0.67906 0.03864 0.0
Zn42 Zn 0.31662 0.67146 0.0402 0.0
O43 O 0.29247 0.69747 0.1335 0.0
C44 C 0.31832 0.58901 0.0969 0.0
O45 O 0.33709 0.60923 0.15179 0.0
O46 O 0.28909 0.6984 0.95012 0.0
C47 C 0.25546 0.68661 0.15934 0.0
O48 O 0.23291 0.6576 0.12484 0.0
C49 C 0.40221 0.70709 0.0021 0.0
O50 O 0.37958 0.73391 0.96255 0.0
O51 O 0.30512 0.6095 0.04077 0.0
C52 C 0.77437 0.76899 0.62594 0.0
O53 O 0.77713 0.74859 0.56288 0.0
O54 O 0.88215 0.82539 0.54098 0.0
Zn55 Zn 0.81661 0.83299 0.53942 0.0
O56 O 0.79247 0.807 0.44611 0.0
C57 C 0.81839 0.91546 0.48283 0.0
O58 O 0.83723 0.89525 0.42797 0.0
O59 O 0.78908 0.80604 0.6295 0.0
C60 C 0.75552 0.81794 0.42016 0.0
O61 O 0.73302 0.84703 0.45454 0.0
C62 C 0.9022 0.79737 0.57755 0.0
O63 O 0.87957 0.77056 0.61713 0.0
O64 O 0.80513 0.89495 0.5389 0.0
C65 C 0.18583 0.76576 0.42284 0.0
O66 O 0.15179 0.74968 0.45704 0.0
O67 O 0.1129 0.82142 0.54111 0.0
Zn68 Zn 0.17874 0.82652 0.54005 0.0
O69 O 0.2046 0.79932 0.63077 0.0
C70 C 0.17962 0.9087 0.4825 0.0
O71 O 0.15983 0.88889 0.42815 0.0
O72 O 0.20311 0.79887 0.44832 0.0
C73 C 0.20141 0.81624 0.69431 0.0
O74 O 0.18122 0.85226 0.70036 0.0
C75 C 0.09176 0.79494 0.5795 0.0
O76 O 0.11333 0.76825 0.62101 0.0
O77 O 0.19267 0.88797 0.53841 0.0
C78 C 0.22504 0.23546 0.6261 0.0
O79 O 0.22225 0.25587 0.56305 0.0
O80 O 0.11727 0.17906 0.54115 0.0
Zn81 Zn 0.18281 0.17146 0.53957 0.0
O82 O 0.20695 0.19747 0.44627 0.0
C83 C 0.1811 0.08901 0.48288 0.0
O84 O 0.16232 0.10924 0.42799 0.0
O85 O 0.21033 0.1984 0.62966 0.0
C86 C 0.24396 0.18661 0.42043 0.0
O87 O 0.26651 0.15759 0.45492 0.0
C88 C 0.09722 0.20709 0.57768 0.0
O89 O 0.11984 0.23392 0.61723 0.0
O90 O 0.1943 0.1095 0.539 0.0
C91 C 0.8135 0.23878 0.42315 0.0
O92 O 0.84745 0.25493 0.45749 0.0
O93 O 0.88653 0.18305 0.54124 0.0
Zn94 Zn 0.82068 0.17794 0.54021 0.0
O95 O 0.79482 0.20512 0.63094 0.0
C96 C 0.81987 0.09577 0.48262 0.0
O97 O 0.83969 0.1156 0.42833 0.0
O98 O 0.79631 0.2056 0.44849 0.0
C99 C 0.79803 0.18821 0.69449 0.0
O100 O 0.81825 0.1522 0.70053 0.0
C101 C 0.90766 0.20953 0.57963 0.0
O102 O 0.88609 0.23621 0.62115 0.0
O103 O 0.80676 0.11649 0.53852 0.0
C104 C 0.33154 0.47722 0.16056 0.0
C105 C 0.31606 0.45475 0.09895 0.0
H106 H 0.34416 0.537 0.20837 0.0
C107 C 0.29901 0.47684 0.038 0.0
H108 H 0.34472 0.46123 0.20857 0.0
C109 C 0.29871 0.52049 0.03787 0.0
C110 C 0.31543 0.54291 0.09868 0.0
H111 H 0.28676 0.46047 0.98969 0.0
H112 H 0.28619 0.53661 0.98948 0.0
C113 C 0.33122 0.52076 0.16043 0.0
C114 C 0.48011 0.2658 0.9596 0.0
C115 C 0.45616 0.29474 0.00188 0.0
H116 H 0.54343 0.24382 0.9266 0.0
C117 C 0.47902 0.32397 0.04523 0.0
H118 H 0.4635 0.24284 0.92567 0.0
C119 C 0.52475 0.32454 0.04573 0.0
C120 C 0.54875 0.29588 0.00295 0.0
H121 H 0.46162 0.34668 0.07855 0.0
H122 H 0.54125 0.34768 0.07942 0.0
C123 C 0.52594 0.26635 0.96016 0.0
C124 C 0.66805 0.48373 0.16041 0.0
C125 C 0.68391 0.46156 0.09872 0.0
H126 H 0.65449 0.54327 0.20846 0.0
C127 C 0.7007 0.48396 0.03794 0.0
H128 H 0.65506 0.4675 0.20832 0.0
C129 C 0.7004 0.52761 0.03803 0.0
C130 C 0.68328 0.54972 0.09891 0.0
H131 H 0.71328 0.46783 0.98961 0.0
H132 H 0.71271 0.54398 0.98974 0.0
C133 C 0.66773 0.52726 0.1605 0.0
C134 C 0.4735 0.73812 0.96003 0.0
C135 C 0.45069 0.70858 0.00281 0.0
H136 H 0.53595 0.76163 0.92557 0.0
C137 C 0.47468 0.67991 0.04559 0.0
H138 H 0.45601 0.76065 0.92648 0.0
C139 C 0.52041 0.6805 0.0451 0.0
C140 C 0.54328 0.70973 0.00177 0.0
H141 H 0.45817 0.65677 0.07927 0.0
H142 H 0.53781 0.65778 0.07842 0.0
C143 C 0.51933 0.73867 0.95948 0.0
C144 C 0.83137 0.98373 0.4194 0.0
C145 C 0.81551 0.96156 0.48109 0.0
H146 H 0.84492 0.04327 0.37135 0.0
C147 C 0.79872 0.98396 0.54188 0.0
H148 H 0.84436 0.9675 0.37149 0.0
C149 C 0.79903 0.02761 0.54178 0.0
C150 C 0.81614 0.04972 0.4809 0.0
H151 H 0.78615 0.96783 0.59021 0.0
H152 H 0.78672 0.04397 0.59007 0.0
C153 C 0.83169 0.02727 0.41931 0.0
C154 C 0.02041 0.82397 0.53456 0.0
C155 C 0.04327 0.79474 0.5779 0.0
H156 H 0.95817 0.84768 0.50037 0.0
C157 C 0.01932 0.7658 0.6202 0.0
H158 H 0.03781 0.84668 0.50123 0.0
C159 C 0.97349 0.76635 0.61964 0.0
C160 C 0.95068 0.79588 0.57685 0.0
H161 H 0.03593 0.74284 0.65412 0.0
H162 H 0.956 0.74382 0.6532 0.0
C163 C 0.97468 0.82454 0.53406 0.0
C164 C 0.16819 0.02076 0.41935 0.0
C165 C 0.18399 0.04291 0.4811 0.0
H166 H 0.15468 0.96124 0.37121 0.0
C167 C 0.20072 0.02049 0.5419 0.0
H168 H 0.15525 0.03701 0.37142 0.0
C169 C 0.20041 0.97684 0.54177 0.0
C170 C 0.18336 0.95475 0.48082 0.0
H171 H 0.21324 0.03661 0.59028 0.0
H172 H 0.21267 0.96046 0.59007 0.0
C173 C 0.16787 0.97723 0.41921 0.0
C174 C 0.97902 0.1805 0.5347 0.0
C175 C 0.95615 0.20973 0.57803 0.0
H176 H 0.04125 0.15677 0.50052 0.0
C177 C 0.9801 0.23867 0.62031 0.0
H178 H 0.96162 0.15778 0.50138 0.0
C179 C 0.02593 0.23812 0.61976 0.0
C180 C 0.04874 0.20858 0.57698 0.0
H181 H 0.96348 0.26164 0.65423 0.0
H182 H 0.04342 0.26065 0.65331 0.0
C183 C 0.02475 0.17992 0.53421 0.0
C184 C 0.24001 0.24102 0.32074 0.0
C185 C 0.2616 0.20675 0.35281 0.0
H186 H 0.23954 0.28666 0.23405 0.0
C187 C 0.30036 0.19205 0.31986 0.0
H188 H 0.21013 0.25318 0.34485 0.0
C189 C 0.31712 0.21114 0.25615 0.0
C190 C 0.29565 0.24551 0.22424 0.0
H191 H 0.31777 0.16569 0.34311 0.0
H192 H 0.34705 0.19901 0.23215 0.0
C193 C 0.25692 0.26028 0.25728 0.0
C194 C 0.80021 0.31258 0.26036 0.0
C195 C 0.76154 0.2978 0.22727 0.0
H196 H 0.84683 0.30568 0.34819 0.0
C197 C 0.74002 0.26344 0.2592 0.0
H198 H 0.81756 0.33901 0.23723 0.0
C199 C 0.75693 0.24418 0.32266 0.0
C200 C 0.79557 0.25903 0.35584 0.0
H201 H 0.7102 0.25121 0.23498 0.0
H202 H 0.7396 0.21773 0.34577 0.0
C203 C 0.81697 0.29349 0.32407 0.0
C204 C 0.69921 0.81258 0.31945 0.0
C205 C 0.73788 0.7978 0.35254 0.0
H206 H 0.65259 0.80568 0.23162 0.0
C207 C 0.7594 0.76344 0.32061 0.0
H208 H 0.68186 0.83901 0.34259 0.0
C209 C 0.7425 0.74418 0.25716 0.0
C210 C 0.70386 0.75903 0.22398 0.0
H211 H 0.78923 0.75121 0.34484 0.0
H212 H 0.75982 0.71773 0.23404 0.0
C213 C 0.68245 0.79348 0.25574 0.0
C214 C 0.2425 0.76028 0.32248 0.0
C215 C 0.20377 0.74552 0.35552 0.0
H216 H 0.2893 0.75318 0.23492 0.0
C217 C 0.18229 0.71115 0.3236 0.0
H218 H 0.25988 0.78666 0.34572 0.0
C219 C 0.19905 0.69206 0.25989 0.0
C220 C 0.23781 0.70675 0.22695 0.0
H221 H 0.15236 0.69902 0.3476 0.0
H222 H 0.18164 0.6657 0.23664 0.0
C223 C 0.25941 0.74102 0.25903 0.0
C224 C 0.23844 0.75541 0.75528 0.0
C225 C 0.21991 0.79544 0.76066 0.0
H226 H 0.26999 0.705 0.8119 0.0
C227 C 0.21917 0.81536 0.83011 0.0
H228 H 0.23945 0.73914 0.70261 0.0
C229 C 0.23678 0.79582 0.89271 0.0
C230 C 0.25535 0.75583 0.88735 0.0
H231 H 0.20514 0.84619 0.83621 0.0
H232 H 0.23579 0.81213 0.94534 0.0
C233 C 0.25588 0.73579 0.81797 0.0
C234 C 0.26099 0.25541 0.82449 0.0
C235 C 0.27952 0.29544 0.8191 0.0
H236 H 0.22943 0.205 0.76788 0.0
C237 C 0.28027 0.31536 0.74965 0.0
H238 H 0.25998 0.23914 0.87716 0.0
C239 C 0.26266 0.29582 0.68705 0.0
C240 C 0.24408 0.25583 0.69242 0.0
H241 H 0.2943 0.34618 0.74355 0.0
H242 H 0.26365 0.31213 0.63443 0.0
C243 C 0.24354 0.23579 0.7618 0.0
C244 C 0.7627 0.20864 0.89291 0.0
C245 C 0.74411 0.24862 0.88755 0.0
H246 H 0.79436 0.15828 0.83641 0.0
C247 C 0.74354 0.26865 0.81815 0.0
H248 H 0.76371 0.19234 0.94555 0.0
C249 C 0.76098 0.24902 0.75546 0.0
C250 C 0.77954 0.20901 0.76084 0.0
H251 H 0.72941 0.29943 0.81208 0.0
H252 H 0.75995 0.26529 0.70279 0.0
C253 C 0.78031 0.1891 0.83031 0.0
C254 C 0.71913 0.68909 0.74951 0.0
C255 C 0.71989 0.70901 0.81897 0.0
H256 H 0.73572 0.69234 0.63427 0.0
C257 C 0.73845 0.74902 0.82436 0.0
H258 H 0.70508 0.65828 0.74341 0.0
C259 C 0.75589 0.76865 0.76166 0.0
C260 C 0.75532 0.74862 0.69227 0.0
H261 H 0.73947 0.76529 0.87703 0.0
H262 H 0.77001 0.79943 0.76773 0.0
C263 C 0.73673 0.70864 0.6869 0.0
loop_
_geom_bond_atom_site_label_1
_geom_bond_atom_site_label_2
_geom_bond_distance
_geom_bond_site_symmetry_2
_ccdc_geom_bond_type
C0 O1 1.160 . S
C0 O7 1.185 . S
O1 C0 1.160 . S
O2 Zn3 1.899 . S
O2 C10 1.284 . S
Zn3 O2 1.899 . S
Zn3 O4 2.032 . S
Zn3 O7 2.086 . S
Zn3 O12 1.977 . S
O4 Zn3 2.032 . S
O4 C8 1.278 1_554 S
C5 O6 1.203 . S
C5 O12 1.267 . S
O6 C5 1.203 . S
O7 C0 1.185 . S
O7 Zn3 2.086 . S
C8 O4 1.278 1_556 S
C8 O9 1.211 . S
O9 C8 1.211 . S
C10 O2 1.284 . S
C10 O11 1.273 1_554 S
O11 C10 1.273 1_556 S
O12 Zn3 1.977 . S
O12 C5 1.267 . S
C13 O14 1.160 . S
C13 O20 1.185 . S
O14 C13 1.160 . S
O15 Zn16 1.899 1_556 S
O15 C23 1.284 1_556 S
Zn16 O15 1.899 1_554 S
Zn16 O17 2.032 . S
Zn16 O20 2.086 1_554 S
Zn16 O25 1.977 . S
O17 Zn16 2.032 . S
O17 C21 1.278 . S
C18 O19 1.203 . S
C18 O25 1.267 . S
O19 C18 1.203 . S
O20 C13 1.185 . S
O20 Zn16 2.086 1_556 S
C21 O17 1.278 . S
C21 O22 1.211 . S
O22 C21 1.211 . S
C23 O15 1.284 1_554 S
C23 O24 1.273 . S
O24 C23 1.273 . S
O25 Zn16 1.977 . S
O25 C18 1.267 . S
C26 O27 1.160 . S
C26 O33 1.185 . S
O27 C26 1.160 . S
O28 Zn29 1.899 . S
O28 C36 1.284 . S
Zn29 O28 1.899 . S
Zn29 O30 2.032 . S
Zn29 O33 2.086 . S
Zn29 O38 1.977 . S
O30 Zn29 2.032 . S
O30 C34 1.278 1_554 S
C31 O32 1.203 . S
C31 O38 1.267 . S
O32 C31 1.203 . S
O33 C26 1.185 . S
O33 Zn29 2.086 . S
C34 O30 1.278 1_556 S
C34 O35 1.211 . S
O35 C34 1.211 . S
C36 O28 1.284 . S
C36 O37 1.273 1_554 S
O37 C36 1.273 1_556 S
O38 Zn29 1.977 . S
O38 C31 1.267 . S
C39 O40 1.160 . S
C39 O46 1.185 . S
O40 C39 1.160 . S
O41 Zn42 1.899 1_556 S
O41 C49 1.284 1_556 S
Zn42 O41 1.899 1_554 S
Zn42 O43 2.032 . S
Zn42 O46 2.086 1_554 S
Zn42 O51 1.977 . S
O43 Zn42 2.032 . S
O43 C47 1.278 . S
C44 O45 1.203 . S
C44 O51 1.267 . S
O45 C44 1.203 . S
O46 C39 1.185 . S
O46 Zn42 2.086 1_556 S
C47 O43 1.278 . S
C47 O48 1.211 . S
O48 C47 1.211 . S
C49 O41 1.284 1_554 S
C49 O50 1.273 . S
O50 C49 1.273 . S
O51 Zn42 1.977 . S
O51 C44 1.267 . S
C52 O53 1.160 . S
C52 O59 1.185 . S
O53 C52 1.160 . S
O54 Zn55 1.899 . S
O54 C62 1.284 . S
Zn55 O54 1.899 . S
Zn55 O56 2.032 . S
Zn55 O59 2.086 . S
Zn55 O64 1.977 . S
O56 Zn55 2.032 . S
O56 C60 1.278 . S
C57 O58 1.203 . S
C57 O64 1.267 . S
O58 C57 1.203 . S
O59 C52 1.185 . S
O59 Zn55 2.086 . S
C60 O56 1.278 . S
C60 O61 1.211 . S
O61 C60 1.211 . S
C62 O54 1.284 . S
C62 O63 1.273 . S
O63 C62 1.273 . S
O64 Zn55 1.977 . S
O64 C57 1.267 . S
C65 O66 1.160 . S
C65 O72 1.185 . S
O66 C65 1.160 . S
O67 Zn68 1.899 . S
O67 C75 1.284 . S
Zn68 O67 1.899 . S
Zn68 O69 2.032 . S
Zn68 O72 2.086 . S
Zn68 O77 1.977 . S
O69 Zn68 2.032 . S
O69 C73 1.278 . S
C70 O71 1.203 . S
C70 O77 1.267 . S
O71 C70 1.203 . S
O72 C65 1.185 . S
O72 Zn68 2.086 . S
C73 O69 1.278 . S
C73 O74 1.211 . S
O74 C73 1.211 . S
C75 O67 1.284 . S
C75 O76 1.273 . S
O76 C75 1.273 . S
O77 Zn68 1.977 . S
O77 C70 1.267 . S
C78 O79 1.160 . S
C78 O85 1.185 . S
O79 C78 1.160 . S
O80 Zn81 1.899 . S
O80 C88 1.284 . S
Zn81 O80 1.899 . S
Zn81 O82 2.032 . S
Zn81 O85 2.086 . S
Zn81 O90 1.977 . S
O82 Zn81 2.032 . S
O82 C86 1.278 . S
C83 O84 1.203 . S
C83 O90 1.267 . S
O84 C83 1.203 . S
O85 C78 1.185 . S
O85 Zn81 2.086 . S
C86 O82 1.278 . S
C86 O87 1.211 . S
O87 C86 1.211 . S
C88 O80 1.284 . S
C88 O89 1.273 . S
O89 C88 1.273 . S
O90 Zn81 1.977 . S
O90 C83 1.267 . S
C91 O92 1.160 . S
C91 O98 1.185 . S
O92 C91 1.160 . S
O93 Zn94 1.899 . S
O93 C101 1.284 . S
Zn94 O93 1.899 . S
Zn94 O95 2.032 . S
Zn94 O98 2.086 . S
Zn94 O103 1.977 . S
O95 Zn94 2.032 . S
O95 C99 1.278 . S
C96 O97 1.203 . S
C96 O103 1.267 . S
O97 C96 1.203 . S
O98 C91 1.185 . S
O98 Zn94 2.086 . S
C99 O95 1.278 . S
C99 O100 1.211 . S
O100 C99 1.211 . S
C101 O93 1.284 . S
C101 O102 1.273 . S
O102 C101 1.273 . S
O103 Zn94 1.977 . S
O103 C96 1.267 . S
C104 C105 1.387 . S
C104 H108 0.950 . S
C104 C113 1.390 . S
C105 C104 1.387 . S
C105 C107 1.387 . S
H106 C113 0.950 . S
C107 C105 1.387 . S
C107 C109 1.390 . S
C107 H111 0.950 . S
H108 C104 0.950 . S
C109 C107 1.390 . S
C109 C110 1.387 . S
C109 H112 0.950 . S
C110 C109 1.387 . S
C110 C113 1.387 . S
H111 C107 0.950 . S
H112 C109 0.950 . S
C113 C104 1.390 . S
C113 H106 0.950 . S
C113 C110 1.387 . S
C114 C115 1.387 . S
C114 H118 0.950 . S
C114 C123 1.390 . S
C115 C114 1.387 . S
C115 C117 1.387 . S
H116 C123 0.950 . S
C117 C115 1.387 . S
C117 C119 1.390 . S
C117 H121 0.950 . S
H118 C114 0.950 . S
C119 C117 1.390 . S
C119 C120 1.387 . S
C119 H122 0.950 . S
C120 C119 1.387 . S
C120 C123 1.387 . S
H121 C117 0.950 . S
H122 C119 0.950 . S
C123 C114 1.390 . S
C123 H116 0.950 . S
C123 C120 1.387 . S
C124 C125 1.387 . S
C124 H128 0.950 . S
C124 C133 1.390 . S
C125 C124 1.387 . S
C125 C127 1.387 . S
H126 C133 0.950 . S
C127 C125 1.387 . S
C127 C129 1.390 . S
C127 H131 0.950 . S
H128 C124 0.950 . S
C129 C127 1.390 . S
C129 C130 1.387 . S
C129 H132 0.950 . S
C130 C129 1.387 . S
C130 C133 1.387 . S
H131 C127 0.950 . S
H132 C129 0.950 . S
C133 C124 1.390 . S
C133 H126 0.950 . S
C133 C130 1.387 . S
C134 C135 1.387 . S
C134 H138 0.950 . S
C134 C143 1.390 . S
C135 C134 1.387 . S
C135 C137 1.387 . S
H136 C143 0.950 . S
C137 C135 1.387 . S
C137 C139 1.390 . S
C137 H141 0.950 . S
H138 C134 0.950 . S
C139 C137 1.390 . S
C139 C140 1.387 . S
C139 H142 0.950 . S
C140 C139 1.387 . S
C140 C143 1.387 . S
H141 C137 0.950 . S
H142 C139 0.950 . S
C143 C134 1.390 . S
C143 H136 0.950 . S
C143 C140 1.387 . S
C144 C145 1.387 . S
C144 H148 0.950 . S
C144 C153 1.390 1_565 S
C145 C144 1.387 . S
C145 C147 1.387 . S
H146 C153 0.950 . S
C147 C145 1.387 . S
C147 C149 1.390 1_565 S
C147 H151 0.950 . S
H148 C144 0.950 . S
C149 C147 1.390 1_545 S
C149 C150 1.387 . S
C149 H152 0.950 . S
C150 C149 1.387 . S
C150 C153 1.387 . S
H151 C147 0.950 . S
H152 C149 0.950 . S
C153 C144 1.390 1_545 S
C153 H146 0.950 . S
C153 C150 1.387 . S
C154 C155 1.387 . S
C154 H158 0.950 . S
C154 C163 1.390 1_455 S
C155 C154 1.387 . S
C155 C157 1.387 . S
H156 C163 0.950 . S
C157 C155 1.387 . S
C157 C159 1.390 1_455 S
C157 H161 0.950 . S
H158 C154 0.950 . S
C159 C157 1.390 1_655 S
C159 C160 1.387 . S
C159 H162 0.950 . S
C160 C159 1.387 . S
C160 C163 1.387 . S
H161 C157 0.950 . S
H162 C159 0.950 . S
C163 C154 1.390 1_655 S
C163 H156 0.950 . S
C163 C160 1.387 . S
C164 C165 1.387 . S
C164 H168 0.950 . S
C164 C173 1.390 1_545 S
C165 C164 1.387 . S
C165 C167 1.387 . S
H166 C173 0.950 . S
C167 C165 1.387 . S
C167 C169 1.390 1_545 S
C167 H171 0.950 . S
H168 C164 0.950 . S
C169 C167 1.390 1_565 S
C169 C170 1.387 . S
C169 H172 0.950 . S
C170 C169 1.387 . S
C170 C173 1.387 . S
H171 C167 0.950 . S
H172 C169 0.950 . S
C173 C164 1.390 1_565 S
C173 H166 0.950 . S
C173 C170 1.387 . S
C174 C175 1.387 . S
C174 H178 0.950 . S
C174 C183 1.390 1_655 S
C175 C174 1.387 . S
C175 C177 1.387 . S
H176 C183 0.950 . S
C177 C175 1.387 . S
C177 C179 1.390 1_655 S
C177 H181 0.950 . S
H178 C174 0.950 . S
C179 C177 1.390 1_455 S
C179 C180 1.387 . S
C179 H182 0.950 . S
C180 C179 1.387 . S
C180 C183 1.387 . S
H181 C177 0.950 . S
H182 C179 0.950 . S
C183 C174 1.390 1_455 S
C183 H176 0.950 . S
C183 C180 1.387 . S
C184 C185 1.387 . S
C184 H188 0.950 . S
C184 C193 1.390 . S
C185 C184 1.387 . S
C185 C187 1.387 . S
H186 C193 0.950 . S
C187 C185 1.387 . S
C187 C189 1.390 . S
C187 H191 0.950 . S
H188 C184 0.950 . S
C189 C187 1.390 . S
C189 C190 1.387 . S
C189 H192 0.950 . S
C190 C189 1.387 . S
C190 C193 1.387 . S
H191 C187 0.950 . S
H192 C189 0.950 . S
C193 C184 1.390 . S
C193 H186 0.950 . S
C193 C190 1.387 . S
C194 C195 1.387 . S
C194 H198 0.950 . S
C194 C203 1.390 . S
C195 C194 1.387 . S
C195 C197 1.387 . S
H196 C203 0.950 . S
C197 C195 1.387 . S
C197 C199 1.390 . S
C197 H201 0.950 . S
H198 C194 0.950 . S
C199 C197 1.390 . S
C199 C200 1.387 . S
C199 H202 0.950 . S
C200 C199 1.387 . S
C200 C203 1.387 . S
H201 C197 0.950 . S
H202 C199 0.950 . S
C203 C194 1.390 . S
C203 H196 0.950 . S
C203 C200 1.387 . S
C204 C205 1.387 . S
C204 H208 0.950 . S
C204 C213 1.390 . S
C205 C204 1.387 . S
C205 C207 1.387 . S
H206 C213 0.950 . S
C207 C205 1.387 . S
C207 C209 1.390 . S
C207 H211 0.950 . S
H208 C204 0.950 . S
C209 C207 1.390 . S
C209 C210 1.387 . S
C209 H212 0.950 . S
C210 C209 1.387 . S
C210 C213 1.387 . S
H211 C207 0.950 . S
H212 C209 0.950 . S
C213 C204 1.390 . S
C213 H206 0.950 . S
C213 C210 1.387 . S
C214 C215 1.387 . S
C214 H218 0.950 . S
C214 C223 1.390 . S
C215 C214 1.387 . S
C215 C217 1.387 . S
H216 C223 0.950 . S
C217 C215 1.387 . S
C217 C219 1.390 . S
C217 H221 0.950 . S
H218 C214 0.950 . S
C219 C217 1.390 . S
C219 C220 1.387 . S
C219 H222 0.950 . S
C220 C219 1.387 . S
C220 C223 1.387 . S
H221 C217 0.950 . S
H222 C219 0.950 . S
C223 C214 1.390 . S
C223 H216 0.950 . S
C223 C220 1.387 . S
C224 C225 1.387 . S
C224 H228 0.950 . S
C224 C233 1.390 . S
C225 C224 1.387 . S
C225 C227 1.387 . S
H226 C233 0.950 . S
C227 C225 1.387 . S
C227 C229 1.390 . S
C227 H231 0.950 . S
H228 C224 0.950 . S
C229 C227 1.390 . S
C229 C230 1.387 . S
C229 H232 0.950 . S
C230 C229 1.387 . S
C230 C233 1.387 . S
H231 C227 0.950 . S
H232 C229 0.950 . S
C233 C224 1.390 . S
C233 H226 0.950 . S
C233 C230 1.387 . S
C234 C235 1.387 . S
C234 H238 0.950 . S
C234 C243 1.390 . S
C235 C234 1.387 . S
C235 C237 1.387 . S
H236 C243 0.950 . S
C237 C235 1.387 . S
C237 C239 1.390 . S
C237 H241 0.950 . S
H238 C234 0.950 . S
C239 C237 1.390 . S
C239 C240 1.387 . S
C239 H242 0.950 . S
C240 C239 1.387 . S
C240 C243 1.387 . S
H241 C237 0.950 . S
H242 C239 0.950 . S
C243 C234 1.390 . S
C243 H236 0.950 . S
C243 C240 1.387 . S
C244 C245 1.387 . S
C244 H248 0.950 . S
C244 C253 1.390 . S
C245 C244 1.387 . S
C245 C247 1.387 . S
H246 C253 0.950 . S
C247 C245 1.387 . S
C247 C249 1.390 . S
C247 H251 0.950 . S
H248 C244 0.950 . S
C249 C247 1.390 . S
C249 C250 1.387 . S
C249 H252 0.950 . S
C250 C249 1.387 . S
C250 C253 1.387 . S
H251 C247 0.950 . S
H252 C249 0.950 . S
C253 C244 1.390 . S
C253 H246 0.950 . S
C253 C250 1.387 . S
C254 C255 1.387 . S
C254 H258 0.950 . S
C254 C263 1.390 . S
C255 C254 1.387 . S
C255 C257 1.387 . S
H256 C263 0.950 . S
C257 C255 1.387 . S
C257 C259 1.390 . S
C257 H261 0.950 . S
H258 C254 0.950 . S
C259 C257 1.390 . S
C259 C260 1.387 . S
C259 H262 0.950 . S
C260 C259 1.387 . S
C260 C263 1.387 . S
H261 C257 0.950 . S
H262 C259 0.950 . S
C263 C254 1.390 . S
C263 H256 0.950 . S
C263 C260 1.387 . S
C105 C5 1.453 . S
C110 C44 1.453 . S
C115 C10 1.471 . S
C120 C23 1.471 . S
C125 C18 1.453 . S
C130 C31 1.453 . S
C135 C49 1.471 . S
C140 C36 1.471 . S
C145 C57 1.453 . S
C150 C96 1.453 . S
C155 C75 1.469 . S
C160 C62 1.469 . S
C165 C83 1.453 . S
C170 C70 1.453 . S
C175 C101 1.469 . S
C180 C88 1.469 . S
C185 C86 1.419 . S
C190 C0 1.420 . S
C195 C21 1.421 . S
C200 C91 1.422 . S
C205 C60 1.421 . S
C210 C26 1.422 . S
C215 C65 1.420 . S
C220 C47 1.419 . S
C225 C73 1.421 . S
C230 C39 1.420 . S
C235 C8 1.420 . S
C240 C78 1.419 . S
C245 C13 1.422 . S
C250 C99 1.420 . S
C255 C34 1.420 . S
C260 C52 1.422 . S
