# Generated by pormake.
# Topology rac, (4)-cn, num edge types: 1
# Building blocks:
#     Node 0, Type 0, BuildingBlock: AZAVOO_clean_sbu_0, # of connection points: 4
#     Node 1, Type 0, BuildingBlock: AZAVOO_clean_sbu_0, # of connection points: 4
#     Node 2, Type 0, BuildingBlock: AZAVOO_clean_sbu_0, # of connection points: 4
#     Node 3, Type 0, BuildingBlock: AZAVOO_clean_sbu_0, # of connection points: 4
#     Node 4, Type 0, BuildingBlock: AZAVOO_clean_sbu_0, # of connection points: 4
#     Node 5, Type 0, BuildingBlock: AZAVOO_clean_sbu_0, # of connection points: 4
#     Node 6, Type 0, BuildingBlock: AZAVOO_clean_sbu_0, # of connection points: 4
#     Node 7, Type 0, BuildingBlock: AZAVOO_clean_sbu_0, # of connection points: 4
#     Edge 8, Type (0, 0), None
#     Edge 9, Type (0, 0), None
#     Edge 10, Type (0, 0), None
#     Edge 11, Type (0, 0), None
#     Edge 12, Type (0, 0), None
#     Edge 13, Type (0, 0), None
#     Edge 14, Type (0, 0), None
#     Edge 15, Type (0, 0), None
#     Edge 16, Type (0, 0), None
#     Edge 17, Type (0, 0), None
#     Edge 18, Type (0, 0), None
#     Edge 19, Type (0, 0), None
#     Edge 20, Type (0, 0), None
#     Edge 21, Type (0, 0), None
#     Edge 22, Type (0, 0), None
#     Edge 23, Type (0, 0), None
# Relax obj value: 0.210
# Max RMSD: 0.130
# Mean RMSD: 0.130
data_MOF--net-rac--node1-AZAVOO_clean_sbu_0--edge1-none
_symmetry_space_group_name_H-M    P1
_symmetry_Int_Tables_number       1
_symmetry_cell_setting            triclinic
loop_
_symmetry_equiv_pos_as_xyz
'x, y, z'
_cell_length_a     16.008869
_cell_length_b     9.5125351
_cell_length_c     20.373784
_cell_angle_alpha  89.99356
_cell_angle_beta   91.084832
_cell_angle_gamma 90.010986
loop_
_atom_site_label
_atom_site_type_symbol
_atom_site_fract_x
_atom_site_fract_y
_atom_site_fract_z
_atom_type_partial_charge
Mg0 Mg 0.48681 0.19377 0.11819 0.0
O1 O 0.40283 0.38707 0.12066 0.0
O2 O 0.2818 0.3384 0.16844 0.0
Mg3 Mg 0.29231 0.11666 0.20786 0.0
C4 C 0.33025 0.42194 0.13869 0.0
C5 C 0.59752 0.43905 0.04078 0.0
O6 O 0.66626 0.51379 0.03931 0.0
O7 O 0.52424 0.24218 0.22746 0.0
O8 O 0.40176 0.18631 0.27057 0.0
O9 O 0.41096 0.08975 0.03073 0.0
O10 O 0.38456 0.06281 0.13458 0.0
C11 C 0.47723 0.22565 0.27708 0.0
C12 C 0.36498 0.03434 0.07533 0.0
O13 O 0.5936 0.33792 0.08196 0.0
Mg14 Mg 0.15852 0.77976 0.06487 0.0
O15 O 0.24622 0.59808 0.09209 0.0
O16 O 0.33341 0.65321 0.17602 0.0
Mg17 Mg 0.31077 0.87708 0.2129 0.0
C18 C 0.30496 0.56781 0.1328 0.0
C19 C 1.0566 0.50754 0.99146 0.0
O20 O 1.02028 0.46192 0.93741 0.0
O21 O 0.07876 0.72163 0.15659 0.0
O22 O 0.17821 0.86886 0.17429 0.0
O23 O 0.26351 0.89758 1.00868 0.0
O24 O 0.24581 0.91858 0.1147 0.0
C25 C 0.12453 0.78652 0.19824 0.0
C26 C 0.28752 0.95192 0.06404 0.0
O27 O 0.0842 0.63398 0.9924 0.0
Mg28 Mg 0.46434 0.27972 0.47471 0.0
O29 O 0.37667 0.09798 0.44747 0.0
O30 O 0.28943 0.15305 0.36357 0.0
Mg31 Mg 0.31197 0.37698 0.32672 0.0
C32 C 0.31794 0.06763 0.40675 0.0
C33 C 0.56628 0.00752 0.54811 0.0
O34 O 0.6026 -0.03811 0.60216 0.0
O35 O 0.5441 0.22178 0.38298 0.0
O36 O 0.44452 0.3689 0.36534 0.0
O37 O 0.35934 0.39742 0.53091 0.0
O38 O 0.37701 0.4185 0.4249 0.0
C39 C 0.49822 0.28663 0.34139 0.0
C40 C 0.33533 0.45183 0.47557 0.0
O41 O 0.53867 0.13394 0.54717 0.0
Mg42 Mg 0.13604 0.69361 0.42144 0.0
O43 O 0.22005 0.88689 0.41895 0.0
O44 O 0.34103 0.83825 0.3711 0.0
Mg45 Mg 0.33047 0.61651 0.3317 0.0
C46 C 0.29263 0.92175 0.4009 0.0
C47 C 1.02536 0.93897 0.4988 0.0
O48 O 0.95662 0.01367 0.50023 0.0
O49 O 0.0986 0.74206 0.31217 0.0
O50 O 0.22102 0.68609 0.26898 0.0
O51 O 0.21189 0.58958 0.50889 0.0
O52 O 0.23825 0.56266 0.40503 0.0
C53 C 0.14555 0.72543 0.26253 0.0
C54 C 0.25786 0.53421 0.46429 0.0
O55 O 1.02928 0.83777 0.45767 0.0
Mg56 Mg 0.63617 0.72512 0.92143 0.0
O57 O 0.72014 0.53183 0.91894 0.0
O58 O 0.84114 0.58049 0.87111 0.0
Mg59 Mg 0.83061 0.80224 0.83169 0.0
C60 C 0.79271 0.49695 0.90088 0.0
C61 C 0.52548 0.4798 0.99885 0.0
O62 O 0.45675 0.40506 1.00032 0.0
O63 O 0.59868 0.67671 0.81217 0.0
O64 O 0.72113 0.73258 0.76902 0.0
O65 O 0.71206 0.82914 1.00887 0.0
O66 O 0.7384 0.85608 0.90501 0.0
C67 C 0.64566 0.69324 0.76253 0.0
C68 C 0.75801 0.88455 0.96426 0.0
O69 O 0.52939 0.58095 0.95768 0.0
Mg70 Mg 0.96448 0.13912 0.97464 0.0
O71 O 0.87678 0.32081 0.94745 0.0
O72 O 0.78953 0.26568 0.86355 0.0
Mg73 Mg 0.81214 0.04182 0.82667 0.0
C74 C 0.81801 0.35109 0.90676 0.0
C75 C 0.06642 0.41134 0.04804 0.0
O76 O 0.10275 0.45696 0.10209 0.0
O77 O 1.04419 0.19725 0.88289 0.0
O78 O 0.94472 0.05003 0.86523 0.0
O79 O 0.85952 0.02131 0.03087 0.0
O80 O 0.87716 0.00031 0.92484 0.0
C81 C 0.99839 0.13237 0.84126 0.0
C82 C 0.83548 -0.03304 0.97552 0.0
O83 O 1.03882 0.2849 0.04709 0.0
Mg84 Mg 0.65844 0.63916 0.56489 0.0
O85 O 0.74611 0.82091 0.59211 0.0
O86 O 0.8334 0.76584 0.67598 0.0
Mg87 Mg 0.81089 0.54192 0.71284 0.0
C88 C 0.80486 0.85127 0.63281 0.0
C89 C 0.55647 0.91136 0.49152 0.0
O90 O 0.52014 0.95699 0.43747 0.0
O91 O 0.57872 0.6971 0.65666 0.0
O92 O 0.67832 0.54999 0.67426 0.0
O93 O 0.76341 0.52147 0.50866 0.0
O94 O 0.74579 0.50039 0.61468 0.0
C95 C 0.62463 0.63226 0.69823 0.0
C96 C 0.78745 0.46706 0.564 0.0
O97 O 0.58408 0.78493 0.49246 0.0
Mg98 Mg 0.98676 0.22528 0.61806 0.0
O99 O 0.90274 0.03201 0.62057 0.0
O100 O 0.78179 0.08064 0.66846 0.0
Mg101 Mg 0.79238 0.30238 0.70786 0.0
C102 C 0.83017 -0.00286 0.63865 0.0
C103 C 0.0974 -0.02012 0.5407 0.0
O104 O 0.16614 0.90518 0.53926 0.0
O105 O 1.02426 0.17683 0.72732 0.0
O106 O 0.90186 0.23281 0.77055 0.0
O107 O 0.91086 0.32931 0.53064 0.0
O108 O 0.88456 0.35623 0.6345 0.0
C109 C 0.97733 0.19347 0.77698 0.0
C110 C 0.86492 0.38468 0.57525 0.0
O111 O 0.0935 0.0811 0.58181 0.0
loop_
_geom_bond_atom_site_label_1
_geom_bond_atom_site_label_2
_geom_bond_distance
_geom_bond_site_symmetry_2
_ccdc_geom_bond_type
Mg0 O1 2.028 . S
Mg0 O7 1.986 . S
Mg0 O9 2.114 . S
Mg0 O10 2.251 . S
Mg0 O13 2.010 . S
O1 Mg0 2.028 . S
O1 C4 1.250 . S
O2 Mg3 2.028 . S
O2 C4 1.248 . S
Mg3 O2 2.028 . S
Mg3 O8 2.032 . S
Mg3 O10 2.079 . S
C4 O1 1.250 . S
C4 O2 1.248 . S
C5 O6 1.266 . S
C5 O13 1.244 1_556 S
O6 C5 1.266 . S
O7 Mg0 1.986 . S
O7 C11 1.246 . S
O8 Mg3 2.032 . S
O8 C11 1.259 . S
O9 Mg0 2.114 . S
O9 C12 1.252 . S
O10 Mg0 2.251 . S
O10 Mg3 2.079 . S
O10 C12 1.273 . S
C11 O7 1.246 . S
C11 O8 1.259 . S
C12 O9 1.252 . S
C12 O10 1.273 . S
O13 Mg0 2.010 . S
O13 C5 1.244 1_554 S
Mg14 O15 2.028 . S
Mg14 O21 1.986 . S
Mg14 O23 2.114 . S
Mg14 O24 2.251 . S
Mg14 O27 2.010 . S
O15 Mg14 2.028 . S
O15 C18 1.250 . S
O16 Mg17 2.028 . S
O16 C18 1.248 . S
Mg17 O16 2.028 . S
Mg17 O22 2.032 . S
Mg17 O24 2.079 . S
C18 O15 1.250 . S
C18 O16 1.248 . S
C19 O20 1.266 . S
C19 O27 1.244 1_656 S
O20 C19 1.266 . S
O21 Mg14 1.986 . S
O21 C25 1.246 . S
O22 Mg17 2.032 . S
O22 C25 1.259 . S
O23 Mg14 2.114 . S
O23 C26 1.252 . S
O24 Mg14 2.251 . S
O24 Mg17 2.079 . S
O24 C26 1.273 . S
C25 O21 1.246 . S
C25 O22 1.259 . S
C26 O23 1.252 . S
C26 O24 1.273 . S
O27 Mg14 2.010 . S
O27 C19 1.244 1_454 S
Mg28 O29 2.028 . S
Mg28 O35 1.986 . S
Mg28 O37 2.114 . S
Mg28 O38 2.251 . S
Mg28 O41 2.010 . S
O29 Mg28 2.028 . S
O29 C32 1.250 . S
O30 Mg31 2.028 . S
O30 C32 1.248 . S
Mg31 O30 2.028 . S
Mg31 O36 2.032 . S
Mg31 O38 2.079 . S
C32 O29 1.250 . S
C32 O30 1.248 . S
C33 O34 1.264 . S
C33 O41 1.249 . S
O34 C33 1.264 . S
O35 Mg28 1.986 . S
O35 C39 1.246 . S
O36 Mg31 2.032 . S
O36 C39 1.259 . S
O37 Mg28 2.114 . S
O37 C40 1.252 . S
O38 Mg28 2.251 . S
O38 Mg31 2.079 . S
O38 C40 1.273 . S
C39 O35 1.246 . S
C39 O36 1.259 . S
C40 O37 1.252 . S
C40 O38 1.273 . S
O41 Mg28 2.010 . S
O41 C33 1.249 . S
Mg42 O43 2.028 . S
Mg42 O49 1.986 . S
Mg42 O51 2.114 . S
Mg42 O52 2.251 . S
Mg42 O55 2.010 . S
O43 Mg42 2.028 . S
O43 C46 1.250 . S
O44 Mg45 2.028 . S
O44 C46 1.248 . S
Mg45 O44 2.028 . S
Mg45 O50 2.032 . S
Mg45 O52 2.079 . S
C46 O43 1.250 . S
C46 O44 1.248 . S
C47 O48 1.264 . S
C47 O55 1.249 1_655 S
O48 C47 1.264 . S
O49 Mg42 1.986 . S
O49 C53 1.246 . S
O50 Mg45 2.032 . S
O50 C53 1.259 . S
O51 Mg42 2.114 . S
O51 C54 1.252 . S
O52 Mg42 2.251 . S
O52 Mg45 2.079 . S
O52 C54 1.273 . S
C53 O49 1.246 . S
C53 O50 1.259 . S
C54 O51 1.252 . S
C54 O52 1.273 . S
O55 Mg42 2.010 . S
O55 C47 1.249 1_455 S
Mg56 O57 2.028 . S
Mg56 O63 1.986 . S
Mg56 O65 2.114 . S
Mg56 O66 2.251 . S
Mg56 O69 2.010 . S
O57 Mg56 2.028 . S
O57 C60 1.250 . S
O58 Mg59 2.028 . S
O58 C60 1.248 . S
Mg59 O58 2.028 . S
Mg59 O64 2.032 . S
Mg59 O66 2.079 . S
C60 O57 1.250 . S
C60 O58 1.248 . S
C61 O62 1.266 . S
C61 O69 1.244 1_554 S
O62 C61 1.266 . S
O63 Mg56 1.986 . S
O63 C67 1.246 . S
O64 Mg59 2.032 . S
O64 C67 1.259 . S
O65 Mg56 2.114 . S
O65 C68 1.252 . S
O66 Mg56 2.251 . S
O66 Mg59 2.079 . S
O66 C68 1.273 . S
C67 O63 1.246 . S
C67 O64 1.259 . S
C68 O65 1.252 . S
C68 O66 1.273 . S
O69 Mg56 2.010 . S
O69 C61 1.244 1_556 S
Mg70 O71 2.028 . S
Mg70 O77 1.986 . S
Mg70 O79 2.114 . S
Mg70 O80 2.251 . S
Mg70 O83 2.010 . S
O71 Mg70 2.028 . S
O71 C74 1.250 . S
O72 Mg73 2.028 . S
O72 C74 1.248 . S
Mg73 O72 2.028 . S
Mg73 O78 2.032 . S
Mg73 O80 2.079 . S
C74 O71 1.250 . S
C74 O72 1.248 . S
C75 O76 1.266 . S
C75 O83 1.244 1_454 S
O76 C75 1.266 . S
O77 Mg70 1.986 . S
O77 C81 1.246 . S
O78 Mg73 2.032 . S
O78 C81 1.259 . S
O79 Mg70 2.114 . S
O79 C82 1.252 . S
O80 Mg70 2.251 . S
O80 Mg73 2.079 . S
O80 C82 1.273 . S
C81 O77 1.246 . S
C81 O78 1.259 . S
C82 O79 1.252 . S
C82 O80 1.273 . S
O83 Mg70 2.010 . S
O83 C75 1.244 1_656 S
Mg84 O85 2.028 . S
Mg84 O91 1.986 . S
Mg84 O93 2.114 . S
Mg84 O94 2.251 . S
Mg84 O97 2.010 . S
O85 Mg84 2.028 . S
O85 C88 1.250 . S
O86 Mg87 2.028 . S
O86 C88 1.248 . S
Mg87 O86 2.028 . S
Mg87 O92 2.032 . S
Mg87 O94 2.079 . S
C88 O85 1.250 . S
C88 O86 1.248 . S
C89 O90 1.264 . S
C89 O97 1.249 . S
O90 C89 1.264 . S
O91 Mg84 1.986 . S
O91 C95 1.246 . S
O92 Mg87 2.032 . S
O92 C95 1.259 . S
O93 Mg84 2.114 . S
O93 C96 1.252 . S
O94 Mg84 2.251 . S
O94 Mg87 2.079 . S
O94 C96 1.273 . S
C95 O91 1.246 . S
C95 O92 1.259 . S
C96 O93 1.252 . S
C96 O94 1.273 . S
O97 Mg84 2.010 . S
O97 C89 1.249 . S
Mg98 O99 2.028 . S
Mg98 O105 1.986 . S
Mg98 O107 2.114 . S
Mg98 O108 2.251 . S
Mg98 O111 2.010 . S
O99 Mg98 2.028 . S
O99 C102 1.250 . S
O100 Mg101 2.028 . S
O100 C102 1.248 . S
Mg101 O100 2.028 . S
Mg101 O106 2.032 . S
Mg101 O108 2.079 . S
C102 O99 1.250 . S
C102 O100 1.248 . S
C103 O104 1.264 . S
C103 O111 1.249 1_455 S
O104 C103 1.264 . S
O105 Mg98 1.986 . S
O105 C109 1.246 . S
O106 Mg101 2.032 . S
O106 C109 1.259 . S
O107 Mg98 2.114 . S
O107 C110 1.252 . S
O108 Mg98 2.251 . S
O108 Mg101 2.079 . S
O108 C110 1.273 . S
C109 O105 1.246 . S
C109 O106 1.259 . S
C110 O107 1.252 . S
C110 O108 1.273 . S
O111 Mg98 2.010 . S
O111 C103 1.249 1_655 S
C12 C26 1.642 1_545 S
C54 C40 1.642 . S
C68 C82 1.642 1_565 S
C96 C110 1.642 . S
C11 C39 1.334 . S
C53 C25 1.334 . S
C67 C95 1.334 . S
C109 C81 1.334 . S
C5 C61 3.070 1_556 S
C19 C75 3.070 1_656 S
C89 C33 3.069 1_565 S
C103 C47 3.069 1_445 S
C18 C4 1.058 . S
C32 C46 1.058 1_545 S
C60 C74 1.058 . S
C88 C102 1.058 1_565 S
