# Generated by pormake.
# Topology unc, (4)-cn, num edge types: 1
# Building blocks:
#     Node 0, Type 0, BuildingBlock: QUQFOY_clean_sbu_3, # of connection points: 4
#     Node 1, Type 0, BuildingBlock: QUQFOY_clean_sbu_3, # of connection points: 4
#     Node 2, Type 0, BuildingBlock: QUQFOY_clean_sbu_3, # of connection points: 4
#     Node 3, Type 0, BuildingBlock: QUQFOY_clean_sbu_3, # of connection points: 4
#     Edge 4, Type (0, 0), BuildingBlock: FUNLAD_clean_linker_0, # of connection points: 2
#     Edge 5, Type (0, 0), BuildingBlock: FUNLAD_clean_linker_0, # of connection points: 2
#     Edge 6, Type (0, 0), BuildingBlock: FUNLAD_clean_linker_0, # of connection points: 2
#     Edge 7, Type (0, 0), BuildingBlock: FUNLAD_clean_linker_0, # of connection points: 2
#     Edge 8, Type (0, 0), BuildingBlock: FUNLAD_clean_linker_0, # of connection points: 2
#     Edge 9, Type (0, 0), BuildingBlock: FUNLAD_clean_linker_0, # of connection points: 2
#     Edge 10, Type (0, 0), BuildingBlock: FUNLAD_clean_linker_0, # of connection points: 2
#     Edge 11, Type (0, 0), BuildingBlock: FUNLAD_clean_linker_0, # of connection points: 2
# Relax obj value: 0.006
# Max RMSD: 0.046
# Mean RMSD: 0.046
data_MOF--net-unc--node1-QUQFOY_clean_sbu_3--edge1-FUNLAD_clean_linker_0
_symmetry_space_group_name_H-M    P1
_symmetry_Int_Tables_number       1
_symmetry_cell_setting            triclinic
loop_
_symmetry_equiv_pos_as_xyz
'x, y, z'
_cell_length_a     35.390802
_cell_length_b     35.54376
_cell_length_c     26.516442
_cell_angle_alpha  90.029988
_cell_angle_beta   90.336268
_cell_angle_gamma 94.791037
loop_
_atom_site_label
_atom_site_type_symbol
_atom_site_fract_x
_atom_site_fract_y
_atom_site_fract_z
_atom_type_partial_charge
C0 C 0.04399 0.63436 0.86977 0.0
O1 O 0.0765 0.641 0.88999 0.0
Cd2 Cd 0.08533 0.67353 0.96951 0.0
O3 O 0.01472 0.64612 0.89018 0.0
Cd4 Cd 0.99319 0.68236 0.96163 0.0
C5 C 0.02262 0.61599 0.04104 0.0
O6 O 0.04856 0.72671 0.96587 0.0
O7 O 0.00827 0.73083 0.02592 0.0
O8 O 0.95441 0.71123 0.90023 0.0
C9 C 0.03961 0.74269 0.00632 0.0
O10 O 0.05638 0.62858 0.03023 0.0
C11 C 0.9234 0.7054 0.92387 0.0
O12 O 0.99415 0.62925 0.01986 0.0
O13 O 0.92453 0.68814 0.9658 0.0
C14 C 0.37286 0.9551 0.37328 0.0
O15 O 0.3656 0.92341 0.3516 0.0
Cd16 Cd 0.3319 0.91664 0.27239 0.0
O17 O 0.36144 0.98505 0.35424 0.0
Cd18 Cd 0.32543 0.00642 0.28158 0.0
C19 C 0.39074 0.9763 0.20096 0.0
O20 O 0.27777 0.9528 0.27961 0.0
O21 O 0.27537 0.99336 0.21925 0.0
O22 O 0.30044 0.05225 0.33771 0.0
C23 C 0.26119 0.9635 0.24024 0.0
O24 O 0.37752 0.94253 0.20987 0.0
C25 C 0.30763 0.08026 0.30855 0.0
O26 O 0.37787 0.004 0.22371 0.0
O27 O 0.32384 0.07396 0.26717 0.0
C28 C 0.96447 0.37496 0.37216 0.0
O29 O 0.93374 0.369 0.39646 0.0
Cd30 Cd 0.92901 0.33445 0.47403 0.0
O31 O 0.99483 0.36184 0.38792 0.0
Cd32 Cd 0.01714 0.3234 0.458 0.0
C33 C 0.99499 0.38839 0.5439 0.0
O34 O 0.96141 0.27877 0.45937 0.0
O35 O 0.0011 0.27392 0.52048 0.0
O36 O 0.06044 0.2961 0.39984 0.0
C37 C 0.97095 0.2611 0.49825 0.0
O38 O 0.96019 0.37731 0.53689 0.0
C39 C 0.08947 0.30227 0.428 0.0
O40 O 0.02077 0.37456 0.51833 0.0
O41 O 0.08478 0.31867 0.46976 0.0
C42 C 0.63308 0.0572 0.87986 0.0
O43 O 0.63775 0.08928 0.85878 0.0
Cd44 Cd 0.66521 0.09597 0.77638 0.0
O45 O 0.64513 0.02829 0.85898 0.0
Cd46 Cd 0.68015 0.01033 0.78411 0.0
C47 C 0.60629 0.03047 0.71161 0.0
O48 O 0.72396 0.06665 0.77602 0.0
O49 O 0.71998 0.02851 0.71227 0.0
O50 O 0.71998 0.9758 0.83806 0.0
C51 C 0.73655 0.05738 0.73346 0.0
O52 O 0.6173 0.06493 0.72015 0.0
C53 C 0.71366 0.94425 0.81592 0.0
O54 O 0.62324 0.00405 0.73186 0.0
O55 O 0.69045 0.94282 0.77906 0.0
C56 C 0.98009 0.57133 0.09294 0.0
C57 C 0.01678 0.58554 0.07889 0.0
C58 C 0.97493 0.54289 0.12927 0.0
C59 C 0.00647 0.52796 0.15209 0.0
C60 C 0.04301 0.54228 0.13799 0.0
C61 C 0.04816 0.57061 0.10179 0.0
C62 C 0.00304 0.49858 0.19195 0.0
C63 C 0.97119 0.47644 0.20185 0.0
C64 C 0.96937 0.44834 0.24325 0.0
C65 C 0.93507 0.44025 0.26878 0.0
C66 C 0.93315 0.41579 0.3101 0.0
C67 C 0.96552 0.39866 0.3263 0.0
H68 H 0.02781 0.43416 0.23789 0.0
C69 C -0.0006 0.40542 0.2992 0.0
C70 C 0.00129 0.42985 0.258 0.0
H71 H 0.02471 0.39222 0.31013 0.0
H72 H 0.95531 0.5824 0.07624 0.0
H73 H 0.94625 0.53347 0.1398 0.0
H74 H 0.06783 0.5315 0.15507 0.0
H75 H 0.07685 0.58088 0.09199 0.0
H76 H 0.02832 0.49529 0.21442 0.0
H77 H 0.94528 0.47972 0.18088 0.0
H78 H 0.90996 0.45375 0.25769 0.0
H79 H 0.90652 0.41093 0.32988 0.0
C80 C 0.40517 0.9932 0.44263 0.0
C81 C 0.39654 0.95793 0.41952 0.0
C82 C 0.42991 -0.00312 0.48374 0.0
C83 C 0.4464 0.96519 0.50323 0.0
C84 C 0.43729 0.92982 0.48068 0.0
C85 C 0.41249 0.92613 0.43938 0.0
C86 C 0.47538 0.96864 0.54412 0.0
C87 C 0.47859 -0.00237 0.57704 0.0
C88 C 0.51073 0.00453 0.61291 0.0
C89 C 0.52071 0.04176 0.62856 0.0
C90 C 0.55171 0.05011 0.66051 0.0
C91 C 0.57321 0.02128 0.67814 0.0
H92 H 0.52424 0.94627 0.62128 0.0
C93 C 0.56267 0.9838 0.66359 0.0
C94 C 0.53172 0.97546 0.63128 0.0
H95 H 0.57842 0.96087 0.67692 0.0
H96 H 0.39362 0.01836 0.42813 0.0
H97 H 0.43704 0.02492 0.49857 0.0
H98 H 0.44985 0.90502 0.49459 0.0
H99 H 0.40653 0.89856 0.42236 0.0
H100 H 0.49551 0.94723 0.54551 0.0
H101 H 0.45819 0.01877 0.5759 0.0
H102 H 0.50489 0.06465 0.61524 0.0
H103 H 0.5588 0.07925 0.6713 0.0
C104 C 0.06933 0.59213 0.80446 0.0
C105 C 0.03931 0.61134 0.82338 0.0
C106 C 0.06355 0.56779 0.76317 0.0
C107 C 0.02755 0.56222 0.74015 0.0
C108 C -0.00181 0.58287 0.7576 0.0
C109 C 0.00389 0.60699 0.79887 0.0
C110 C 0.0189 0.5347 0.69878 0.0
C111 C 0.0384 0.50433 0.69094 0.0
C112 C 0.02662 0.4751 0.65285 0.0
C113 C 0.05434 0.45489 0.63017 0.0
C114 C 0.04409 0.42679 0.59468 0.0
C115 C 0.00576 0.41792 0.5818 0.0
H116 H 0.96595 0.47998 0.65862 0.0
C117 C 0.97793 0.43764 0.60532 0.0
C118 C 0.98822 0.46593 0.6405 0.0
H119 H 0.94815 0.43131 0.59653 0.0
H120 H 0.09707 0.5952 0.82218 0.0
H121 H 0.08732 0.55345 0.74973 0.0
H122 H 0.97032 0.57947 0.74021 0.0
H123 H 0.98023 0.6217 0.8121 0.0
H124 H 0.99405 0.53858 0.67571 0.0
H125 H 0.06357 0.50018 0.7131 0.0
H126 H 0.08404 0.46109 0.63959 0.0
H127 H 0.06624 0.41193 0.57753 0.0
C128 C 0.43567 0.02072 0.15277 0.0
C129 C 0.42169 0.98353 0.16412 0.0
C130 C 0.46499 0.02772 0.11818 0.0
C131 C 0.48122 -0.00242 0.09442 0.0
C132 C 0.46699 0.96046 0.10547 0.0
C133 C 0.43763 0.95346 0.14003 0.0
C134 C 0.51168 0.00348 0.0563 0.0
C135 C 0.53416 0.03577 0.05126 0.0
C136 C 0.56245 0.04133 0.0104 0.0
C137 C 0.5704 0.07757 0.99015 0.0
C138 C 0.59439 0.08314 0.94867 0.0
C139 C 0.61119 0.05253 0.92707 0.0
H140 H 0.57672 0.9831 0.0066 0.0
C141 C 0.60494 0.01668 0.9493 0.0
C142 C 0.58092 0.01113 0.9906 0.0
H143 H 0.61792 0.99257 0.93413 0.0
H144 H 0.42381 0.04457 0.17031 0.0
H145 H 0.47407 0.0568 0.10964 0.0
H146 H 0.47869 0.93671 0.08737 0.0
H147 H 0.42748 0.92445 0.14781 0.0
H148 H 0.51526 0.98008 0.03089 0.0
H149 H 0.53071 0.05965 0.07578 0.0
H150 H 0.55692 0.10139 0.00526 0.0
H151 H 0.59887 0.11118 0.93272 0.0
C152 C 0.22286 0.90202 0.22752 0.0
C153 C 0.22876 0.94082 0.21748 0.0
C154 C 0.1939 0.88002 0.2028 0.0
C155 C 0.17001 0.89665 0.16828 0.0
C156 C 0.17478 0.93569 0.16008 0.0
C157 C 0.20428 0.95756 0.18392 0.0
C158 C 0.1404 0.87361 0.13989 0.0
C159 C 0.14718 0.84012 0.11984 0.0
C160 C 0.11879 0.81711 0.08931 0.0
C161 C 0.13126 0.79492 0.04998 0.0
C162 C 0.10534 0.77171 0.02174 0.0
C163 C 0.06653 0.76961 0.03321 0.0
H164 H 0.06949 0.83182 0.13099 0.0
C165 C 0.054 0.79188 0.07252 0.0
C166 C 0.07987 0.81561 0.10019 0.0
H167 H 0.02423 0.79065 0.08226 0.0
H168 H 0.24129 0.88846 0.25334 0.0
H169 H 0.19025 0.85002 0.21055 0.0
H170 H 0.15644 0.94907 0.13394 0.0
H171 H 0.20806 0.98752 0.1759 0.0
H172 H 0.11384 0.88578 0.1319 0.0
H173 H 0.1753 0.83017 0.12346 0.0
H174 H 0.16117 0.7955 0.04116 0.0
H175 H 0.11582 0.7546 0.99191 0.0
C176 C 0.27849 0.1242 0.36741 0.0
C177 C 0.29491 0.11773 0.32049 0.0
C178 C 0.26158 0.15761 0.37642 0.0
C179 C 0.26084 0.18536 0.33861 0.0
C180 C 0.27885 0.17959 0.29257 0.0
C181 C 0.29598 0.14621 0.28367 0.0
C182 C 0.23699 0.21757 0.34339 0.0
C183 C 0.2259 0.23061 0.38811 0.0
C184 C 0.19359 0.2543 0.39369 0.0
C185 C 0.18971 0.27382 0.43912 0.0
C186 C 0.15653 0.29105 0.44934 0.0
C187 C 0.12638 0.28869 0.41446 0.0
H188 H 0.16537 0.23803 0.32279 0.0
C189 C 0.13087 0.27066 0.36804 0.0
C190 C 0.16407 0.25357 0.35773 0.0
H191 H 0.10812 0.2684 0.3404 0.0
H192 H 0.27725 0.10277 0.39653 0.0
H193 H 0.2472 0.16035 0.41195 0.0
H194 H 0.27843 0.20034 0.26269 0.0
H195 H 0.30845 0.14202 0.2471 0.0
H196 H 0.22642 0.22921 0.30871 0.0
H197 H 0.23938 0.22181 0.42255 0.0
H198 H 0.21184 0.27456 0.46761 0.0
H199 H 0.15394 0.30483 0.48545 0.0
C200 C 0.78191 0.06869 0.66209 0.0
C201 C 0.76861 0.07954 0.70929 0.0
C202 C 0.81209 0.08975 0.63902 0.0
C203 C 0.82941 0.12227 0.66263 0.0
C204 C 0.81665 0.13255 0.71031 0.0
C205 C 0.78644 0.11152 0.73335 0.0
C206 C 0.86077 0.14613 0.63885 0.0
C207 C 0.86543 0.14863 0.58857 0.0
C208 C 0.89429 0.17555 0.56492 0.0
C209 C 0.88675 0.18996 0.517 0.0
C210 C 0.91205 0.21724 0.49487 0.0
C211 C 0.94564 0.23031 0.52005 0.0
H212 H 0.93602 0.17601 0.62546 0.0
C213 C 0.95406 0.21466 0.56701 0.0
C214 C 0.92865 0.18749 0.58926 0.0
H215 H 0.97997 0.22386 0.58703 0.0
H216 H 0.76905 0.04388 0.64291 0.0
H217 H 0.82192 0.08016 0.60305 0.0
H218 H 0.8297 0.15728 0.7295 0.0
H219 H 0.77701 0.12042 0.76993 0.0
H220 H 0.8786 0.16451 0.66355 0.0
H221 H 0.84532 0.13311 0.56357 0.0
H222 H 0.86069 0.18089 0.49721 0.0
H223 H 0.90494 0.22853 0.4584 0.0
C224 C 0.72406 0.87523 0.81221 0.0
C225 C 0.7348 0.9118 0.83024 0.0
C226 C 0.74644 0.84548 0.8229 0.0
C227 C 0.78013 0.85221 0.851 0.0
C228 C 0.79036 0.88853 0.86963 0.0
C229 C 0.76772 0.91792 0.85993 0.0
C230 C 0.80709 0.82311 0.85803 0.0
C231 C 0.79679 0.78628 0.8654 0.0
C232 C 0.82628 0.7601 0.87542 0.0
C233 C 0.8236 0.73641 0.91774 0.0
C234 C 0.85468 0.71703 0.93265 0.0
C235 C 0.88853 0.72077 0.90487 0.0
H236 H 0.86144 0.77916 0.81228 0.0
C237 C 0.88984 0.74208 0.86022 0.0
C238 C 0.85906 0.76161 0.84571 0.0
H239 H 0.91527 0.7451 0.83754 0.0
H240 H 0.69882 0.86979 0.78917 0.0
H241 H 0.73826 0.81777 0.80743 0.0
H242 H 0.8163 0.89434 0.8912 0.0
H243 H 0.77686 0.9458 0.87419 0.0
H244 H 0.837 0.83299 0.86027 0.0
H245 H 0.76707 0.77625 0.8689 0.0
H246 H 0.79842 0.73473 0.94094 0.0
H247 H 0.85274 0.70048 0.96696 0.0
loop_
_geom_bond_atom_site_label_1
_geom_bond_atom_site_label_2
_geom_bond_distance
_geom_bond_site_symmetry_2
_ccdc_geom_bond_type
C0 O1 1.306 . S
C0 O3 1.160 1_455 S
O1 C0 1.306 . S
O1 Cd2 2.228 1_556 S
Cd2 O1 2.228 1_554 S
Cd2 O6 2.273 . S
Cd2 O10 2.277 . S
O3 C0 1.160 1_655 S
O3 Cd4 2.203 1_556 S
Cd4 O3 2.203 1_554 S
Cd4 O6 2.411 1_655 S
Cd4 O7 2.333 1_655 S
Cd4 O8 2.352 1_554 S
Cd4 O12 2.277 . S
Cd4 O13 2.356 . S
C5 O10 1.209 . S
C5 O12 1.226 1_455 S
O6 Cd2 2.273 . S
O6 Cd4 2.411 1_455 S
O6 C9 1.320 . S
O7 Cd4 2.333 1_455 S
O7 C9 1.214 . S
O8 Cd4 2.352 1_556 S
O8 C11 1.258 . S
C9 O6 1.320 . S
C9 O7 1.214 . S
O10 Cd2 2.277 . S
O10 C5 1.209 . S
C11 O8 1.258 . S
C11 O13 1.282 1_556 S
O12 Cd4 2.277 . S
O12 C5 1.226 1_655 S
O13 Cd4 2.356 . S
O13 C11 1.282 1_554 S
C14 O15 1.306 1_545 S
C14 O17 1.160 . S
O15 C14 1.306 1_565 S
O15 Cd16 2.228 . S
Cd16 O15 2.228 . S
Cd16 O20 2.273 . S
Cd16 O24 2.277 . S
O17 C14 1.160 . S
O17 Cd18 2.203 . S
Cd18 O17 2.203 . S
Cd18 O20 2.411 1_545 S
Cd18 O21 2.333 1_545 S
Cd18 O22 2.352 . S
Cd18 O26 2.277 . S
Cd18 O27 2.356 . S
C19 O24 1.209 1_545 S
C19 O26 1.226 . S
O20 Cd16 2.273 . S
O20 Cd18 2.411 1_565 S
O20 C23 1.320 . S
O21 Cd18 2.333 1_565 S
O21 C23 1.214 . S
O22 Cd18 2.352 . S
O22 C25 1.258 . S
C23 O20 1.320 . S
C23 O21 1.214 . S
O24 Cd16 2.277 . S
O24 C19 1.209 1_565 S
C25 O22 1.258 . S
C25 O27 1.282 . S
O26 Cd18 2.277 . S
O26 C19 1.226 . S
O27 Cd18 2.356 . S
O27 C25 1.282 . S
C28 O29 1.306 1_455 S
C28 O31 1.160 . S
O29 C28 1.306 1_655 S
O29 Cd30 2.228 . S
Cd30 O29 2.228 . S
Cd30 O34 2.273 . S
Cd30 O38 2.277 . S
O31 C28 1.160 . S
O31 Cd32 2.203 . S
Cd32 O31 2.203 . S
Cd32 O34 2.411 1_455 S
Cd32 O35 2.333 1_455 S
Cd32 O36 2.352 . S
Cd32 O40 2.277 . S
Cd32 O41 2.356 . S
C33 O38 1.209 1_455 S
C33 O40 1.226 . S
O34 Cd30 2.273 . S
O34 Cd32 2.411 1_655 S
O34 C37 1.320 . S
O35 Cd32 2.333 1_655 S
O35 C37 1.214 . S
O36 Cd32 2.352 . S
O36 C39 1.258 . S
C37 O34 1.320 . S
C37 O35 1.214 . S
O38 Cd30 2.277 . S
O38 C33 1.209 1_655 S
C39 O36 1.258 . S
C39 O41 1.282 . S
O40 Cd32 2.277 . S
O40 C33 1.226 . S
O41 Cd32 2.356 . S
O41 C39 1.282 . S
C42 O43 1.306 . S
C42 O45 1.160 1_545 S
O43 C42 1.306 . S
O43 Cd44 2.228 . S
Cd44 O43 2.228 . S
Cd44 O48 2.273 . S
Cd44 O52 2.277 . S
O45 C42 1.160 1_565 S
O45 Cd46 2.203 . S
Cd46 O45 2.203 . S
Cd46 O48 2.411 1_565 S
Cd46 O49 2.333 1_565 S
Cd46 O50 2.352 . S
Cd46 O54 2.277 . S
Cd46 O55 2.356 . S
C47 O52 1.209 . S
C47 O54 1.226 1_545 S
O48 Cd44 2.273 . S
O48 Cd46 2.411 1_545 S
O48 C51 1.320 . S
O49 Cd46 2.333 1_545 S
O49 C51 1.214 . S
O50 Cd46 2.352 . S
O50 C53 1.258 . S
C51 O48 1.320 . S
C51 O49 1.214 . S
O52 Cd44 2.277 . S
O52 C47 1.209 . S
C53 O50 1.258 . S
C53 O55 1.282 . S
O54 Cd46 2.277 . S
O54 C47 1.226 1_565 S
O55 Cd46 2.356 . S
O55 C53 1.282 . S
C56 C57 1.386 1_655 S
C56 C58 1.383 . S
C56 H72 0.951 . S
C57 C56 1.386 1_455 S
C57 C61 1.383 . S
C58 C56 1.383 . S
C58 C59 1.402 1_655 S
C58 H73 0.951 . S
C59 C58 1.402 1_455 S
C59 C60 1.375 . S
C59 C62 1.481 . S
C60 C59 1.375 . S
C60 C61 1.367 . S
C60 H74 0.951 . S
C61 C57 1.383 . S
C61 C60 1.367 . S
C61 H75 0.950 . S
C62 C59 1.481 . S
C62 C63 1.297 1_455 S
C62 H76 0.950 . S
C63 C62 1.297 1_655 S
C63 C64 1.479 . S
C63 H77 0.950 . S
C64 C63 1.479 . S
C64 C65 1.375 . S
C64 C70 1.404 1_655 S
C65 C64 1.375 . S
C65 C66 1.369 . S
C65 H78 0.950 . S
C66 C65 1.369 . S
C66 C67 1.392 1_655 S
C66 H79 0.951 . S
C67 C66 1.392 1_455 S
C67 C69 1.384 . S
H68 C70 0.949 . S
C69 C67 1.384 . S
C69 C70 1.385 . S
C69 H71 0.950 . S
C70 C64 1.404 1_455 S
C70 H68 0.949 . S
C70 C69 1.385 . S
H71 C69 0.950 . S
H72 C56 0.951 . S
H73 C58 0.951 . S
H74 C60 0.951 . S
H75 C61 0.950 . S
H76 C62 0.950 . S
H77 C63 0.950 . S
H78 C65 0.950 . S
H79 C66 0.951 . S
C80 C81 1.386 . S
C80 C82 1.383 . S
C80 H96 0.951 . S
C81 C80 1.386 . S
C81 C85 1.383 1_545 S
C82 C80 1.383 . S
C82 C83 1.402 . S
C82 H97 0.951 . S
C83 C82 1.402 . S
C83 C84 1.375 1_545 S
C83 C86 1.481 1_545 S
C84 C83 1.375 1_565 S
C84 C85 1.367 . S
C84 H98 0.951 . S
C85 C81 1.383 1_565 S
C85 C84 1.367 . S
C85 H99 0.950 . S
C86 C83 1.481 1_565 S
C86 C87 1.297 1_565 S
C86 H100 0.950 . S
C87 C86 1.297 1_545 S
C87 C88 1.479 . S
C87 H101 0.950 . S
C88 C87 1.479 . S
C88 C89 1.375 . S
C88 C94 1.404 1_545 S
C89 C88 1.375 . S
C89 C90 1.369 . S
C89 H102 0.950 . S
C90 C89 1.369 . S
C90 C91 1.392 . S
C90 H103 0.951 . S
C91 C90 1.392 . S
C91 C93 1.384 1_545 S
H92 C94 0.949 . S
C93 C91 1.384 1_565 S
C93 C94 1.385 . S
C93 H95 0.950 . S
C94 C88 1.404 1_565 S
C94 H92 0.949 . S
C94 C93 1.385 . S
H95 C93 0.950 . S
H96 C80 0.951 . S
H97 C82 0.951 . S
H98 C84 0.951 . S
H99 C85 0.950 . S
H100 C86 0.950 . S
H101 C87 0.950 . S
H102 C89 0.950 . S
H103 C90 0.951 . S
C104 C105 1.386 . S
C104 C106 1.383 . S
C104 H120 0.951 . S
C105 C104 1.386 . S
C105 C109 1.383 . S
C106 C104 1.383 . S
C106 C107 1.402 . S
C106 H121 0.951 . S
C107 C106 1.402 . S
C107 C108 1.375 . S
C107 C110 1.481 . S
C108 C107 1.375 . S
C108 C109 1.367 . S
C108 H122 0.951 . S
C109 C105 1.383 . S
C109 C108 1.367 . S
C109 H123 0.950 . S
C110 C107 1.481 . S
C110 C111 1.297 . S
C110 H124 0.950 . S
C111 C110 1.297 . S
C111 C112 1.480 . S
C111 H125 0.950 1_455 S
C112 C111 1.480 . S
C112 C113 1.375 . S
C112 C118 1.404 1_455 S
C113 C112 1.375 . S
C113 C114 1.369 . S
C113 H126 0.950 . S
C114 C113 1.369 . S
C114 C115 1.392 . S
C114 H127 0.951 . S
C115 C114 1.392 . S
C115 C117 1.384 . S
H116 C118 0.949 . S
C117 C115 1.384 . S
C117 C118 1.385 1_455 S
C117 H119 0.950 . S
C118 C112 1.404 1_655 S
C118 H116 0.949 . S
C118 C117 1.385 1_655 S
H119 C117 0.950 . S
H120 C104 0.951 . S
H121 C106 0.951 . S
H122 C108 0.951 . S
H123 C109 0.950 . S
H124 C110 0.950 . S
H125 C111 0.950 1_655 S
H126 C113 0.950 . S
H127 C114 0.951 . S
C128 C129 1.386 . S
C128 C130 1.383 . S
C128 H144 0.951 . S
C129 C128 1.386 . S
C129 C133 1.383 1_545 S
C130 C128 1.383 . S
C130 C131 1.402 . S
C130 H145 0.951 . S
C131 C130 1.402 . S
C131 C132 1.375 1_545 S
C131 C134 1.481 1_545 S
C132 C131 1.375 1_565 S
C132 C133 1.367 . S
C132 H146 0.951 . S
C133 C129 1.383 1_565 S
C133 C132 1.367 . S
C133 H147 0.950 . S
C134 C131 1.481 1_565 S
C134 C135 1.297 1_565 S
C134 H148 0.950 1_554 S
C135 C134 1.297 1_545 S
C135 C136 1.479 1_554 S
C135 H149 0.950 . S
C136 C135 1.479 1_556 S
C136 C137 1.375 . S
C136 C142 1.404 1_545 S
C137 C136 1.375 . S
C137 C138 1.369 . S
C137 H150 0.950 . S
C138 C137 1.369 . S
C138 C139 1.392 . S
C138 H151 0.951 . S
C139 C138 1.392 . S
C139 C141 1.384 1_545 S
H140 C142 0.949 . S
C141 C139 1.384 1_565 S
C141 C142 1.385 . S
C141 H143 0.950 . S
C142 C136 1.404 1_565 S
C142 H140 0.949 . S
C142 C141 1.385 . S
H143 C141 0.950 . S
H144 C128 0.951 . S
H145 C130 0.951 . S
H146 C132 0.951 . S
H147 C133 0.950 . S
H148 C134 0.950 1_556 S
H149 C135 0.950 . S
H150 C137 0.950 . S
H151 C138 0.951 . S
C152 C153 1.386 . S
C152 C154 1.383 . S
C152 H168 0.951 . S
C153 C152 1.386 . S
C153 C157 1.383 . S
C154 C152 1.383 . S
C154 C155 1.402 . S
C154 H169 0.951 . S
C155 C154 1.402 . S
C155 C156 1.375 . S
C155 C158 1.481 . S
C156 C155 1.375 . S
C156 C157 1.367 . S
C156 H170 0.951 . S
C157 C153 1.383 . S
C157 C156 1.367 . S
C157 H171 0.950 . S
C158 C155 1.481 . S
C158 C159 1.297 . S
C158 H172 0.950 . S
C159 C158 1.297 . S
C159 C160 1.479 . S
C159 H173 0.950 . S
C160 C159 1.479 . S
C160 C161 1.375 . S
C160 C166 1.404 . S
C161 C160 1.375 . S
C161 C162 1.369 . S
C161 H174 0.950 . S
C162 C161 1.369 . S
C162 C163 1.392 . S
C162 H175 0.951 . S
C163 C162 1.392 . S
C163 C165 1.384 . S
H164 C166 0.949 . S
C165 C163 1.384 . S
C165 C166 1.385 . S
C165 H167 0.950 . S
C166 C160 1.404 . S
C166 H164 0.949 . S
C166 C165 1.385 . S
H167 C165 0.950 . S
H168 C152 0.951 . S
H169 C154 0.951 . S
H170 C156 0.951 . S
H171 C157 0.950 . S
H172 C158 0.950 . S
H173 C159 0.950 . S
H174 C161 0.950 . S
H175 C162 0.951 . S
C176 C177 1.386 . S
C176 C178 1.383 . S
C176 H192 0.951 . S
C177 C176 1.386 . S
C177 C181 1.383 . S
C178 C176 1.383 . S
C178 C179 1.402 . S
C178 H193 0.951 . S
C179 C178 1.402 . S
C179 C180 1.375 . S
C179 C182 1.481 . S
C180 C179 1.375 . S
C180 C181 1.367 . S
C180 H194 0.951 . S
C181 C177 1.383 . S
C181 C180 1.367 . S
C181 H195 0.950 . S
C182 C179 1.481 . S
C182 C183 1.297 . S
C182 H196 0.950 . S
C183 C182 1.297 . S
C183 C184 1.479 . S
C183 H197 0.950 . S
C184 C183 1.479 . S
C184 C185 1.375 . S
C184 C190 1.404 . S
C185 C184 1.375 . S
C185 C186 1.369 . S
C185 H198 0.950 . S
C186 C185 1.369 . S
C186 C187 1.392 . S
C186 H199 0.951 . S
C187 C186 1.392 . S
C187 C189 1.384 . S
H188 C190 0.949 . S
C189 C187 1.384 . S
C189 C190 1.385 . S
C189 H191 0.950 . S
C190 C184 1.404 . S
C190 H188 0.949 . S
C190 C189 1.385 . S
H191 C189 0.950 . S
H192 C176 0.951 . S
H193 C178 0.951 . S
H194 C180 0.951 . S
H195 C181 0.950 . S
H196 C182 0.950 . S
H197 C183 0.950 . S
H198 C185 0.950 . S
H199 C186 0.951 . S
C200 C201 1.386 . S
C200 C202 1.383 . S
C200 H216 0.951 . S
C201 C200 1.386 . S
C201 C205 1.383 . S
C202 C200 1.383 . S
C202 C203 1.402 . S
C202 H217 0.951 . S
C203 C202 1.402 . S
C203 C204 1.375 . S
C203 C206 1.481 . S
C204 C203 1.375 . S
C204 C205 1.367 . S
C204 H218 0.951 . S
C205 C201 1.383 . S
C205 C204 1.367 . S
C205 H219 0.950 . S
C206 C203 1.481 . S
C206 C207 1.297 . S
C206 H220 0.950 . S
C207 C206 1.297 . S
C207 C208 1.479 . S
C207 H221 0.950 . S
C208 C207 1.479 . S
C208 C209 1.375 . S
C208 C214 1.404 . S
C209 C208 1.375 . S
C209 C210 1.369 . S
C209 H222 0.950 . S
C210 C209 1.369 . S
C210 C211 1.392 . S
C210 H223 0.951 . S
C211 C210 1.392 . S
C211 C213 1.384 . S
H212 C214 0.949 . S
C213 C211 1.384 . S
C213 C214 1.385 . S
C213 H215 0.950 . S
C214 C208 1.404 . S
C214 H212 0.949 . S
C214 C213 1.385 . S
H215 C213 0.950 . S
H216 C200 0.951 . S
H217 C202 0.951 . S
H218 C204 0.951 . S
H219 C205 0.950 . S
H220 C206 0.950 . S
H221 C207 0.950 . S
H222 C209 0.950 . S
H223 C210 0.951 . S
C224 C225 1.386 . S
C224 C226 1.383 . S
C224 H240 0.951 . S
C225 C224 1.386 . S
C225 C229 1.383 . S
C226 C224 1.383 . S
C226 C227 1.402 . S
C226 H241 0.951 . S
C227 C226 1.402 . S
C227 C228 1.375 . S
C227 C230 1.481 . S
C228 C227 1.375 . S
C228 C229 1.367 . S
C228 H242 0.951 . S
C229 C225 1.383 . S
C229 C228 1.367 . S
C229 H243 0.950 . S
C230 C227 1.481 . S
C230 C231 1.297 . S
C230 H244 0.950 . S
C231 C230 1.297 . S
C231 C232 1.479 . S
C231 H245 0.950 . S
C232 C231 1.479 . S
C232 C233 1.375 . S
C232 C238 1.404 . S
C233 C232 1.375 . S
C233 C234 1.369 . S
C233 H246 0.950 . S
C234 C233 1.369 . S
C234 C235 1.392 . S
C234 H247 0.951 . S
C235 C234 1.392 . S
C235 C237 1.384 . S
H236 C238 0.949 . S
C237 C235 1.384 . S
C237 C238 1.385 . S
C237 H239 0.950 . S
C238 C232 1.404 . S
C238 H236 0.949 . S
C238 C237 1.385 . S
H239 C237 0.950 . S
H240 C224 0.951 . S
H241 C226 0.951 . S
H242 C228 0.951 . S
H243 C229 0.950 . S
H244 C230 0.950 . S
H245 C231 0.950 . S
H246 C233 0.950 . S
H247 C234 0.951 . S
C57 C5 1.387 . S
C67 C28 1.387 . S
C81 C14 1.393 . S
C91 C47 1.377 . S
C105 C0 1.398 . S
C115 C33 1.376 . S
C129 C19 1.386 . S
C139 C42 1.398 . S
C153 C23 1.467 . S
C163 C9 1.459 . S
C177 C25 1.471 . S
C187 C39 1.472 . S
C201 C51 1.481 . S
C211 C37 1.481 . S
C225 C53 1.471 . S
C235 C11 1.473 . S
