# Generated by pormake.
# Topology pcu, (6)-cn, num edge types: 1
# Building blocks:
#     Node 0, Type 0, BuildingBlock: KUMBUR_clean_sbu_1, # of connection points: 6
#     Edge 1, Type (0, 0), BuildingBlock: KIFKEQ_clean_linker_1, # of connection points: 2
#     Edge 2, Type (0, 0), BuildingBlock: KIFKEQ_clean_linker_1, # of connection points: 2
#     Edge 3, Type (0, 0), BuildingBlock: KIFKEQ_clean_linker_1, # of connection points: 2
# Relax obj value: 0.000
# Max RMSD: 0.000
# Mean RMSD: 0.000
data_MOF--net-pcu--node1-KUMBUR_clean_sbu_1--edge1-KIFKEQ_clean_linker_1
_symmetry_space_group_name_H-M    P1
_symmetry_Int_Tables_number       1
_symmetry_cell_setting            triclinic
loop_
_symmetry_equiv_pos_as_xyz
'x, y, z'
_cell_length_a     15.090803
_cell_length_b     24.802164
_cell_length_c     15.052938
_cell_angle_alpha  113.45135
_cell_angle_beta   89.910974
_cell_angle_gamma 114.86876
loop_
_atom_site_label
_atom_site_type_symbol
_atom_site_fract_x
_atom_site_fract_y
_atom_site_fract_z
_atom_type_partial_charge
Tb0 Tb 0.94906 0.91278 0.93111 0.0
C1 C 0.30253 0.18801 0.19124 0.0
N2 N 0.20667 0.16551 0.20433 0.0
C3 C 0.26353 0.20799 0.37828 0.0
C4 C 0.3829 0.22036 0.27136 0.0
C5 C 0.18617 0.17584 0.29643 0.0
C6 C 0.36229 0.23012 0.3657 0.0
C7 C 0.41783 0.19778 0.07922 0.0
C8 C 0.31972 0.17672 0.09629 0.0
C9 C 0.49825 0.23003 0.15884 0.0
C10 C 0.48084 0.24132 0.25464 0.0
Tb11 Tb 0.08738 0.11225 0.0647 0.0
N12 N 0.23974 0.14291 0.02032 0.0
C13 C 0.43204 0.18559 0.98258 0.0
C14 C 0.25361 0.13423 0.92696 0.0
C15 C 0.34961 0.15442 0.90639 0.0
H16 H 0.11029 0.16047 0.30735 0.0
H17 H 0.36001 0.14643 0.83185 0.0
H18 H 0.92895 0.85263 0.68802 0.0
H19 H 0.67264 0.88082 0.16075 0.0
H20 H 0.19168 0.11306 0.8683 0.0
H21 H 0.50625 0.20095 0.96629 0.0
H22 H 0.84193 0.91731 0.12741 0.0
H23 H 0.24693 0.2159 0.45108 0.0
H24 H 0.5742 0.24637 0.14711 0.0
H25 H 0.54362 0.26615 0.31525 0.0
H26 H 0.79402 0.78791 0.54023 0.0
H27 H 0.422 0.25483 0.42924 0.0
H28 H 0.52719 0.81673 0.02253 0.0
N29 N 0.8308 0.85061 0.78907 0.0
C30 C 0.73461 0.82655 0.80048 0.0
C31 C 0.77623 0.79889 0.61308 0.0
C32 C 0.65498 0.78852 0.7183 0.0
C33 C 0.85263 0.83651 0.69697 0.0
C34 C 0.67691 0.77505 0.62376 0.0
N35 N 0.79524 0.87994 0.97266 0.0
C36 C 0.78036 0.89205 0.06674 0.0
C37 C 0.61738 0.81791 0.91067 0.0
C38 C 0.7161 0.84114 0.89533 0.0
C39 C 0.60188 0.83353 0.00752 0.0
C40 C 0.68379 0.8701 0.08575 0.0
H41 H 0.61787 0.74595 0.55866 0.0
H42 H 0.49419 0.73638 0.67095 0.0
H43 H 0.46126 0.76217 0.83945 0.0
O44 O 0.96081 0.85513 0.99749 0.0
O45 O 0.86035 0.96408 0.92921 0.0
O46 O 0.92898 0.06432 0.06929 0.0
O47 O 0.94683 0.82173 0.84069 0.0
O48 O 1.01578 0.96632 0.09003 0.0
O49 O 1.00214 0.06359 0.15137 0.0
O50 O 0.0792 0.17534 0.00727 0.0
O51 O 0.17017 0.0574 0.0663 0.0
O52 O 0.10441 0.9627 0.91991 0.0
O53 O 0.10317 0.20545 0.16363 0.0
O54 O 1.02073 0.06095 0.90624 0.0
O55 O 0.02601 0.96056 0.83928 0.0
C56 C 0.85387 0.01524 0.9971 0.0
C57 C 0.03973 0.79009 0.91798 0.0
C58 C 0.09559 0.71721 0.94407 0.0
C59 C 0.19194 0.75588 0.93534 0.0
C60 C 0.1359 0.82718 0.90766 0.0
C61 C 0.21161 0.81027 0.91668 0.0
C62 C 1.01959 0.7347 0.93517 0.0
C63 C 1.01153 0.01636 0.16321 0.0
C64 C 0.96091 0.80999 0.91485 0.0
C65 C 0.55641 0.76552 0.73315 0.0
C66 C 0.53766 0.78019 0.82911 0.0
C67 C 0.17864 1.00934 0.99378 0.0
C68 C 1.01529 0.24726 0.10296 0.0
C69 C 0.96521 0.32473 0.08358 0.0
C70 C 0.88202 0.30145 0.12558 0.0
C71 C 0.93231 0.22548 0.14507 0.0
C72 C 0.0311 0.29647 0.07167 0.0
C73 C 0.86564 0.252 0.15541 0.0
C74 C 1.02121 1.01031 0.8308 0.0
C75 C 0.08748 0.22059 0.09391 0.0
H76 H 0.25168 0.74344 0.94154 0.0
H77 H 0.15241 0.86916 0.89276 0.0
H78 H 0.28581 0.83945 0.90923 0.0
H79 H 0.94541 0.70604 0.94353 0.0
H80 H 0.83062 0.3225 0.13792 0.0
H81 H 0.92018 0.18876 0.17139 0.0
H82 H 0.09494 0.31265 0.03838 0.0
H83 H 0.80188 0.23499 0.18831 0.0
H84 H 0.90837 0.05541 0.30245 0.0
H85 H 0.12586 0.98204 0.24624 0.0
H86 H 0.90949 0.05285 0.46254 0.0
H87 H 0.1335 0.9839 0.40899 0.0
H88 H 0.05975 0.93166 0.66299 0.0
H89 H 0.05349 0.93207 0.50238 0.0
H90 H 0.99326 0.10055 0.62166 0.0
H91 H 0.98883 0.09523 0.7789 0.0
C92 C 0.95772 0.03983 0.32554 0.0
C93 C 1.01661 0.01861 0.26237 0.0
C94 C 0.9591 0.03872 0.41764 0.0
C95 C 1.02153 0.01802 0.44971 0.0
C96 C 0.08238 0.99846 0.38661 0.0
C97 C 0.07885 0.9979 0.29351 0.0
C98 C 0.04191 0.96737 0.6541 0.0
C99 C 1.02141 1.01184 0.73323 0.0
C100 C 0.04075 0.96877 0.56219 0.0
C101 C 0.02246 0.01625 0.54782 0.0
C102 C 1.00494 0.06202 0.62823 0.0
C103 C 1.00349 0.05943 0.71925 0.0
H104 H 0.26717 0.97813 0.83634 0.0
H105 H 0.31124 0.04342 0.15162 0.0
H106 H 0.4312 0.98217 0.83693 0.0
H107 H 0.47175 0.04256 0.15256 0.0
H108 H 0.79216 0.08959 0.14706 0.0
H109 H 0.63367 0.09225 0.14401 0.0
H110 H 0.52687 0.93375 0.84695 0.0
H111 H 0.69035 0.93818 0.84607 0.0
C112 C 0.31175 0.99229 0.90556 0.0
C113 C 0.27682 1.01011 0.99379 0.0
C114 C 0.4057 0.99417 0.90613 0.0
C115 C 0.46595 1.0123 0.99474 0.0
C116 C 0.42961 0.02969 0.08294 0.0
C117 C 0.33691 0.02957 0.08258 0.0
C118 C 0.736 0.05694 0.07997 0.0
C119 C 0.75512 0.0147 0.99627 0.0
C120 C 0.64348 0.0571 0.07891 0.0
C121 C 0.56579 1.01309 0.99522 0.0
C122 C 0.5846 0.96967 0.91218 0.0
C123 C 0.67835 0.97127 0.91219 0.0
H124 H 0.20074 0.71172 0.08471 0.0
H125 H 0.94462 0.5915 0.84556 0.0
H126 H 0.16875 0.61652 0.11544 0.0
H127 H 0.91462 0.49502 0.87245 0.0
H128 H 0.82856 0.34938 0.00692 0.0
H129 H 0.85903 0.44367 0.97543 0.0
H130 H 0.17649 0.51701 0.0578 0.0
H131 H 0.14565 0.42571 0.09739 0.0
C132 C 0.13805 0.66456 0.03806 0.0
C133 C 0.07507 0.65901 0.96289 0.0
C134 C 0.11995 0.60968 0.05506 0.0
C135 C 0.03924 0.5474 0.99619 0.0
C136 C 0.97644 0.54209 0.92064 0.0
C137 C 0.99371 0.59733 0.90478 0.0
C138 C 0.90496 0.38599 0.0197 0.0
C139 C 0.98444 0.37975 0.05582 0.0
C140 C 0.9226 0.43984 0.99998 0.0
C141 C 1.0204 0.48869 0.01429 0.0
C142 C 0.09999 0.4814 0.04764 0.0
C143 C 0.08229 0.42805 0.06873 0.0
loop_
_geom_bond_atom_site_label_1
_geom_bond_atom_site_label_2
_geom_bond_distance
_geom_bond_site_symmetry_2
_ccdc_geom_bond_type
Tb0 N29 2.617 . S
Tb0 N35 2.572 . S
Tb0 O44 2.465 . S
Tb0 O45 2.387 . S
Tb0 O47 2.428 . S
Tb0 O48 2.308 1_556 S
Tb0 O52 2.349 1_655 S
Tb0 O55 2.393 . S
Tb0 C64 2.802 . S
C1 N2 1.379 . S
C1 C4 1.416 . S
C1 C8 1.424 . S
N2 C1 1.379 . S
N2 C5 1.334 . S
N2 Tb11 2.617 . S
C3 C5 1.390 . S
C3 C6 1.339 . S
C3 H23 0.930 . S
C4 C1 1.416 . S
C4 C6 1.416 . S
C4 C10 1.448 . S
C5 N2 1.334 . S
C5 C3 1.390 . S
C5 H16 0.930 . S
C6 C3 1.339 . S
C6 C4 1.416 . S
C6 H27 0.930 . S
C7 C8 1.413 . S
C7 C9 1.427 . S
C7 C13 1.416 . S
C8 C1 1.424 . S
C8 C7 1.413 . S
C8 N12 1.361 . S
C9 C7 1.427 . S
C9 C10 1.328 . S
C9 H24 0.929 . S
C10 C4 1.448 . S
C10 C9 1.328 . S
C10 H25 0.930 . S
Tb11 N2 2.617 . S
Tb11 N12 2.572 . S
Tb11 O46 2.349 1_455 S
Tb11 O49 2.393 . S
Tb11 O50 2.465 . S
Tb11 O51 2.387 . S
Tb11 O53 2.428 . S
Tb11 O54 2.308 1_554 S
Tb11 C75 2.802 . S
N12 C8 1.361 . S
N12 Tb11 2.572 . S
N12 C14 1.340 1_554 S
C13 C7 1.416 . S
C13 C15 1.332 1_554 S
C13 H21 0.931 1_554 S
C14 N12 1.340 1_556 S
C14 C15 1.407 . S
C14 H20 0.930 . S
C15 C13 1.332 1_556 S
C15 C14 1.407 . S
C15 H17 0.929 . S
H16 C5 0.930 . S
H17 C15 0.929 . S
H18 C33 0.930 . S
H19 C40 0.929 . S
H20 C14 0.930 . S
H21 C13 0.931 1_556 S
H22 C36 0.930 . S
H23 C3 0.930 . S
H24 C9 0.929 . S
H25 C10 0.930 . S
H26 C31 0.930 . S
H27 C6 0.930 . S
H28 C39 0.931 1_554 S
N29 Tb0 2.617 . S
N29 C30 1.379 . S
N29 C33 1.334 . S
C30 N29 1.379 . S
C30 C32 1.416 . S
C30 C38 1.424 . S
C31 H26 0.930 . S
C31 C33 1.390 . S
C31 C34 1.339 . S
C32 C30 1.416 . S
C32 C34 1.416 . S
C32 C65 1.448 . S
C33 H18 0.930 . S
C33 N29 1.334 . S
C33 C31 1.390 . S
C34 C31 1.339 . S
C34 C32 1.416 . S
C34 H41 0.930 . S
N35 Tb0 2.572 . S
N35 C36 1.340 1_556 S
N35 C38 1.361 . S
C36 H22 0.930 . S
C36 N35 1.340 1_554 S
C36 C40 1.407 . S
C37 C38 1.413 . S
C37 C39 1.416 . S
C37 C66 1.427 . S
C38 C30 1.424 . S
C38 N35 1.361 . S
C38 C37 1.413 . S
C39 H28 0.931 1_556 S
C39 C37 1.416 . S
C39 C40 1.332 1_556 S
C40 H19 0.929 . S
C40 C36 1.407 . S
C40 C39 1.332 1_554 S
H41 C34 0.930 . S
H42 C65 0.930 . S
H43 C66 0.929 . S
O44 Tb0 2.465 . S
O44 C64 1.264 . S
O45 Tb0 2.387 . S
O45 C56 1.257 1_565 S
O46 Tb11 2.349 1_655 S
O46 C56 1.247 1_554 S
O47 Tb0 2.428 . S
O47 C64 1.256 . S
O48 Tb0 2.308 1_554 S
O48 C63 1.266 1_565 S
O49 Tb11 2.393 . S
O49 C63 1.248 1_455 S
O50 Tb11 2.465 . S
O50 C75 1.264 . S
O51 Tb11 2.387 . S
O51 C67 1.261 1_545 S
O52 Tb0 2.349 1_455 S
O52 C67 1.245 1_556 S
O53 Tb11 2.428 . S
O53 C75 1.256 . S
O54 Tb11 2.308 1_556 S
O54 C74 1.266 1_545 S
O55 Tb0 2.393 . S
O55 C74 1.248 1_655 S
C56 O45 1.257 1_545 S
C56 O46 1.247 1_556 S
C57 C60 1.399 . S
C57 C62 1.383 . S
C57 C64 1.496 . S
C58 C59 1.399 . S
C58 C62 1.389 . S
C59 C58 1.399 . S
C59 C61 1.380 . S
C59 H76 0.929 . S
C60 C57 1.399 . S
C60 C61 1.392 . S
C60 H77 0.929 . S
C61 C59 1.380 . S
C61 C60 1.392 . S
C61 H78 0.929 . S
C62 C57 1.383 . S
C62 C58 1.389 . S
C62 H79 0.931 1_556 S
C63 O48 1.266 1_545 S
C63 O49 1.248 1_655 S
C64 Tb0 2.802 . S
C64 O44 1.264 . S
C64 O47 1.256 . S
C64 C57 1.496 . S
C65 C32 1.448 . S
C65 H42 0.930 . S
C65 C66 1.328 . S
C66 C37 1.427 . S
C66 H43 0.929 . S
C66 C65 1.328 . S
C67 O51 1.261 1_565 S
C67 O52 1.245 1_554 S
C68 C71 1.399 . S
C68 C72 1.383 . S
C68 C75 1.496 . S
C69 C70 1.399 . S
C69 C72 1.389 . S
C70 C69 1.399 . S
C70 C73 1.380 . S
C70 H80 0.929 . S
C71 C68 1.399 . S
C71 C73 1.392 . S
C71 H81 0.929 . S
C72 C68 1.383 . S
C72 C69 1.389 . S
C72 H82 0.931 1_554 S
C73 C70 1.380 . S
C73 C71 1.392 . S
C73 H83 0.929 . S
C74 O54 1.266 1_565 S
C74 O55 1.248 1_455 S
C75 Tb11 2.802 . S
C75 O50 1.264 . S
C75 O53 1.256 . S
C75 C68 1.496 . S
H76 C59 0.929 . S
H77 C60 0.929 . S
H78 C61 0.929 . S
H79 C62 0.931 1_554 S
H80 C70 0.929 . S
H81 C71 0.929 . S
H82 C72 0.931 1_556 S
H83 C73 0.929 . S
H84 C92 0.950 . S
H85 C97 0.950 . S
H86 C94 0.950 . S
H87 C96 0.950 . S
H88 C98 0.950 . S
H89 C100 0.950 . S
H90 C102 0.950 . S
H91 C103 0.950 . S
C92 H84 0.950 . S
C92 C93 1.380 1_655 S
C92 C94 1.391 . S
C93 C92 1.380 1_455 S
C93 C97 1.398 1_565 S
C94 H86 0.950 . S
C94 C92 1.391 . S
C94 C95 1.394 1_655 S
C95 C94 1.394 1_455 S
C95 C96 1.397 1_565 S
C95 C101 1.499 1_465 S
C96 H87 0.950 . S
C96 C95 1.397 1_545 S
C96 C97 1.391 . S
C97 H85 0.950 . S
C97 C93 1.398 1_545 S
C97 C96 1.391 . S
C98 H88 0.950 . S
C98 C99 1.383 1_455 S
C98 C100 1.391 . S
C99 C98 1.383 1_655 S
C99 C103 1.396 1_545 S
C100 H89 0.950 . S
C100 C98 1.391 . S
C100 C101 1.400 1_455 S
C101 C95 1.499 1_645 S
C101 C100 1.400 1_655 S
C101 C102 1.398 1_545 S
C102 H90 0.950 . S
C102 C101 1.398 1_565 S
C102 C103 1.391 . S
C103 H91 0.950 . S
C103 C99 1.396 1_565 S
C103 C102 1.391 . S
H104 C112 0.950 . S
H105 C117 0.950 . S
H106 C114 0.950 . S
H107 C116 0.950 . S
H108 C118 0.950 . S
H109 C120 0.950 . S
H110 C122 0.950 . S
H111 C123 0.950 . S
C112 H104 0.950 . S
C112 C113 1.377 1_565 S
C112 C114 1.391 . S
C113 C112 1.377 1_545 S
C113 C117 1.397 1_556 S
C114 H106 0.950 . S
C114 C112 1.391 . S
C114 C115 1.398 1_565 S
C115 C114 1.398 1_545 S
C115 C116 1.402 1_556 S
C115 C121 1.489 1_546 S
C116 H107 0.950 . S
C116 C115 1.402 1_554 S
C116 C117 1.391 . S
C117 H105 0.950 . S
C117 C113 1.397 1_554 S
C117 C116 1.391 . S
C118 H108 0.950 . S
C118 C119 1.381 1_545 S
C118 C120 1.391 . S
C119 C118 1.381 1_565 S
C119 C123 1.395 1_554 S
C120 H109 0.950 . S
C120 C118 1.391 . S
C120 C121 1.401 1_545 S
C121 C115 1.489 1_564 S
C121 C120 1.401 1_565 S
C121 C122 1.398 1_554 S
C122 H110 0.950 . S
C122 C121 1.398 1_556 S
C122 C123 1.391 . S
C123 H111 0.950 . S
C123 C119 1.395 1_556 S
C123 C122 1.391 . S
H124 C132 0.950 . S
H125 C137 0.950 . S
H126 C134 0.950 . S
H127 C136 0.950 . S
H128 C138 0.950 . S
H129 C140 0.950 . S
H130 C142 0.950 . S
H131 C143 0.950 . S
C132 H124 0.950 . S
C132 C133 1.386 1_455 S
C132 C134 1.391 . S
C133 C132 1.386 1_655 S
C133 C137 1.393 1_554 S
C134 H126 0.950 . S
C134 C132 1.391 . S
C134 C135 1.400 1_455 S
C135 C134 1.400 1_655 S
C135 C136 1.398 1_554 S
C135 C141 1.491 1_654 S
C136 H127 0.950 . S
C136 C135 1.398 1_556 S
C136 C137 1.391 . S
C137 H125 0.950 . S
C137 C133 1.393 1_556 S
C137 C136 1.391 . S
C138 H128 0.950 . S
C138 C139 1.386 1_655 S
C138 C140 1.391 . S
C139 C138 1.386 1_455 S
C139 C143 1.393 1_556 S
C140 H129 0.950 . S
C140 C138 1.391 . S
C140 C141 1.400 1_655 S
C141 C135 1.491 1_456 S
C141 C140 1.400 1_455 S
C141 C142 1.398 1_556 S
C142 H130 0.950 . S
C142 C141 1.398 1_554 S
C142 C143 1.391 . S
C143 H131 0.950 . S
C143 C139 1.393 1_554 S
C143 C142 1.391 . S
C93 C63 1.486 1_465 S
C99 C74 1.486 1_645 S
C113 C67 1.504 1_546 S
C119 C56 1.504 1_564 S
C133 C58 1.371 1_554 S
C139 C69 1.371 1_556 S
