# Generated by pormake.
# Topology pcu, (6)-cn, num edge types: 1
# Building blocks:
#     Node 0, Type 0, BuildingBlock: BETDEL_clean_sbu_0, # of connection points: 6
#     Edge 1, Type (0, 0), BuildingBlock: XIVTED_clean_linker_0, # of connection points: 2
#     Edge 2, Type (0, 0), BuildingBlock: XIVTED_clean_linker_0, # of connection points: 2
#     Edge 3, Type (0, 0), BuildingBlock: XIVTED_clean_linker_0, # of connection points: 2
# Relax obj value: 0.000
# Max RMSD: 0.000
# Mean RMSD: 0.000
data_MOF--net-pcu--node1-BETDEL_clean_sbu_0--edge1-XIVTED_clean_linker_0
_symmetry_space_group_name_H-M    P1
_symmetry_Int_Tables_number       1
_symmetry_cell_setting            triclinic
loop_
_symmetry_equiv_pos_as_xyz
'x, y, z'
_cell_length_a     15.65082
_cell_length_b     18.16744
_cell_length_c     14.523089
_cell_angle_alpha  103.75491
_cell_angle_beta   86.068824
_cell_angle_gamma 108.9843
loop_
_atom_site_label
_atom_site_type_symbol
_atom_site_fract_x
_atom_site_fract_y
_atom_site_fract_z
_atom_type_partial_charge
Dy0 Dy 0.00952 0.0668 0.03065 0.0
C1 C 0.92212 0.73465 0.02355 0.0
C2 C 0.02889 0.2199 1.02117 0.0
Dy3 Dy 0.94156 0.88789 1.01462 0.0
O4 O 0.02709 0.19548 0.09832 0.0
O5 O 0.02317 0.16098 0.94809 0.0
O6 O 0.07051 0.08487 0.17189 0.0
O7 O 0.94897 -0.00895 0.13034 0.0
C8 C 0.00979 0.02347 0.19371 0.0
C9 C 0.94129 0.93171 0.85174 0.0
O10 O 0.80906 0.90882 0.04791 0.0
O11 O 0.85934 0.03396 1.01272 0.0
O12 O 0.92454 0.75937 0.94652 0.0
O13 O 0.92727 0.79333 0.09679 0.0
O14 O 0.8804 0.87035 0.87347 0.0
O15 O 0.00214 0.96358 0.91507 0.0
O16 O 0.142 0.04582 0.99746 0.0
O17 O 0.09169 0.92082 0.03298 0.0
C18 C 0.79335 0.97187 0.03105 0.0
C19 C 0.1577 -0.01715 1.01456 0.0
H20 H 0.12938 0.09758 0.34025 0.0
H21 H 0.82154 0.8582 0.70535 0.0
H22 H 0.87286 0.91388 0.26444 0.0
H23 H 0.07866 0.04104 0.78104 0.0
H24 H 0.83841 0.87876 0.54406 0.0
H25 H 0.11259 0.07712 0.50162 0.0
C26 C 0.06962 0.05264 0.35762 0.0
C27 C 0.00218 0.00751 0.28925 0.0
C28 C 0.89113 0.91455 0.59582 0.0
C29 C -0.01774 -0.01598 0.47383 0.0
C30 C 0.88145 0.90298 0.68796 0.0
C31 C 0.94904 0.94783 0.75628 0.0
C32 C 0.96905 0.97144 0.57176 0.0
C33 C 0.02509 0.00517 0.73026 0.0
C34 C 0.05999 0.04112 0.4498 0.0
C35 C 0.92632 0.94998 0.31526 0.0
N36 N 0.03319 0.0152 0.63984 0.0
N37 N 0.91826 0.94002 0.4057 0.0
H38 H 0.21295 0.86436 0.05046 0.0
H39 H 0.73809 0.09045 0.99546 0.0
H40 H 0.31602 0.09598 0.98171 0.0
H41 H 0.63504 0.85869 0.06385 0.0
H42 H 0.58433 0.09342 0.99063 0.0
H43 H 0.36672 0.86141 0.05538 0.0
C44 C 0.26786 0.91471 0.03615 0.0
C45 C 0.25129 -0.01932 1.01557 0.0
C46 C 0.59519 0.04192 1.00681 0.0
C47 C 0.42829 -0.0226 1.02137 0.0
C48 C 0.68318 0.04007 1.00972 0.0
C49 C 0.69976 0.97406 0.03016 0.0
C50 C 0.52276 -0.02264 0.02446 0.0
C51 C 0.62557 0.91077 0.04783 0.0
C52 C 0.35586 0.91288 0.03911 0.0
C53 C 0.32548 0.04394 0.99783 0.0
N54 N 0.54025 0.91399 0.04453 0.0
N55 N 0.41081 0.04073 1.00118 0.0
H56 H 0.93889 0.67883 0.1785 0.0
H57 H 0.01134 0.27532 0.86613 0.0
H58 H 0.92521 0.61348 0.87299 0.0
H59 H 0.0264 0.34135 0.17157 0.0
H60 H -0.01831 0.39991 0.86674 0.0
H61 H 0.96846 0.5542 0.17782 0.0
C62 C 0.94108 0.63774 0.11142 0.0
C63 C 0.92948 0.6562 0.02574 0.0
C64 C -0.00805 0.38736 0.93364 0.0
C65 C 0.96466 0.51445 0.02404 0.0
C66 C 0.00944 0.31655 0.93318 0.0
C67 C 0.02145 0.2983 1.01886 0.0
C68 C -0.01383 0.43999 1.02049 0.0
C69 C 0.0177 0.35334 0.10387 0.0
C70 C 0.95853 0.56691 0.11092 0.0
C71 C 0.93359 0.60133 0.94069 0.0
N72 N 3e-05 0.42151 0.10258 0.0
N73 N 0.95119 0.53312 0.94195 0.0
loop_
_geom_bond_atom_site_label_1
_geom_bond_atom_site_label_2
_geom_bond_distance
_geom_bond_site_symmetry_2
_ccdc_geom_bond_type
Dy0 O4 2.398 . S
Dy0 O5 2.491 1_554 S
Dy0 O6 2.403 . S
Dy0 O7 2.663 1_545 S
Dy0 O11 2.326 1_455 S
Dy0 O15 2.309 1_454 S
Dy0 O16 2.351 . S
C1 O12 1.185 . S
C1 O13 1.355 1_556 S
C2 O4 1.185 . S
C2 O5 1.355 1_554 S
Dy3 O7 2.309 1_656 S
Dy3 O10 2.351 . S
Dy3 O12 2.398 . S
Dy3 O13 2.491 1_556 S
Dy3 O14 2.403 . S
Dy3 O15 2.663 1_565 S
Dy3 O17 2.326 1_655 S
O4 Dy0 2.398 . S
O4 C2 1.185 . S
O5 Dy0 2.491 1_556 S
O5 C2 1.355 1_556 S
O6 Dy0 2.403 . S
O6 C8 1.254 . S
O7 Dy0 2.663 1_565 S
O7 Dy3 2.309 1_454 S
O7 C8 1.267 1_565 S
C8 O6 1.254 . S
C8 O7 1.267 1_545 S
C9 O14 1.254 . S
C9 O15 1.267 1_565 S
O10 Dy3 2.351 . S
O10 C18 1.249 1_556 S
O11 Dy0 2.326 1_655 S
O11 C18 1.267 1_545 S
O12 C1 1.185 . S
O12 Dy3 2.398 . S
O13 C1 1.355 1_554 S
O13 Dy3 2.491 1_554 S
O14 Dy3 2.403 . S
O14 C9 1.254 . S
O15 Dy0 2.309 1_656 S
O15 Dy3 2.663 1_545 S
O15 C9 1.267 1_545 S
O16 Dy0 2.351 . S
O16 C19 1.249 1_554 S
O17 Dy3 2.326 1_455 S
O17 C19 1.267 1_565 S
C18 O10 1.249 1_554 S
C18 O11 1.267 1_565 S
C19 O16 1.249 1_556 S
C19 O17 1.267 1_545 S
H20 C26 0.930 . S
H21 C30 0.930 . S
H22 C35 0.929 . S
H23 C33 0.929 . S
H24 C28 0.929 . S
H25 C34 0.929 . S
C26 H20 0.930 . S
C26 C27 1.373 . S
C26 C34 1.378 . S
C27 C26 1.373 . S
C27 C35 1.427 1_645 S
C28 H24 0.929 . S
C28 C30 1.378 . S
C28 C32 1.350 . S
C29 C32 1.463 1_645 S
C29 C34 1.350 . S
C29 N37 1.427 1_645 S
C30 H21 0.930 . S
C30 C28 1.378 . S
C30 C31 1.387 . S
C31 C30 1.387 . S
C31 C33 1.411 1_465 S
C32 C28 1.350 . S
C32 C29 1.463 1_465 S
C32 N36 1.427 1_465 S
C33 H23 0.929 . S
C33 C31 1.411 1_645 S
C33 N36 1.384 . S
C34 H25 0.929 . S
C34 C26 1.378 . S
C34 C29 1.350 . S
C35 H22 0.929 . S
C35 C27 1.427 1_465 S
C35 N37 1.384 . S
N36 C32 1.427 1_645 S
N36 C33 1.384 . S
N37 C29 1.427 1_465 S
N37 C35 1.384 . S
H38 C44 0.930 . S
H39 C48 0.930 . S
H40 C53 0.929 . S
H41 C51 0.929 . S
H42 C46 0.929 . S
H43 C52 0.929 . S
C44 H38 0.930 . S
C44 C45 1.371 . S
C44 C52 1.378 . S
C45 C44 1.371 . S
C45 C53 1.430 1_564 S
C46 H42 0.929 . S
C46 C48 1.378 . S
C46 C50 1.354 . S
C47 C50 1.463 1_564 S
C47 C52 1.350 . S
C47 N55 1.427 1_564 S
C48 H39 0.930 . S
C48 C46 1.378 . S
C48 C49 1.370 . S
C49 C48 1.370 . S
C49 C51 1.431 1_546 S
C50 C46 1.354 . S
C50 C47 1.463 1_546 S
C50 N54 1.423 1_546 S
C51 H41 0.929 . S
C51 C49 1.431 1_564 S
C51 N54 1.384 . S
C52 H43 0.929 . S
C52 C44 1.378 . S
C52 C47 1.350 . S
C53 H40 0.929 . S
C53 C45 1.430 1_546 S
C53 N55 1.384 . S
N54 C50 1.423 1_564 S
N54 C51 1.384 . S
N55 C47 1.427 1_546 S
N55 C53 1.384 . S
H56 C62 0.930 . S
H57 C66 0.930 . S
H58 C71 0.929 . S
H59 C69 0.929 . S
H60 C64 0.929 . S
H61 C70 0.929 . S
C62 H56 0.930 . S
C62 C63 1.367 . S
C62 C70 1.378 . S
C63 C62 1.367 . S
C63 C71 1.433 1_654 S
C64 H60 0.929 . S
C64 C66 1.378 . S
C64 C68 1.350 . S
C65 C68 1.463 1_654 S
C65 C70 1.350 . S
C65 N73 1.427 1_654 S
C66 H57 0.930 . S
C66 C64 1.378 . S
C66 C67 1.367 . S
C67 C66 1.367 . S
C67 C69 1.433 1_456 S
C68 C64 1.350 . S
C68 C65 1.463 1_456 S
C68 N72 1.427 1_456 S
C69 H59 0.929 . S
C69 C67 1.433 1_654 S
C69 N72 1.384 . S
C70 H61 0.929 . S
C70 C62 1.378 . S
C70 C65 1.350 . S
C71 H58 0.929 . S
C71 C63 1.433 1_456 S
C71 N73 1.384 . S
N72 C68 1.427 1_654 S
N72 C69 1.384 . S
N73 C65 1.427 1_456 S
N73 C71 1.384 . S
C27 C8 1.454 1_655 S
C31 C9 1.458 1_455 S
C45 C19 1.491 1_564 S
C49 C18 1.492 1_546 S
C63 C1 1.480 1_554 S
C67 C2 1.480 1_556 S
