# Generated by pormake.
# Topology ilc, (8)-cn, num edge types: 1
# Building blocks:
#     Node 0, Type 0, BuildingBlock: TAGTUT_clean_sbu_3, # of connection points: 8
#     Node 1, Type 0, BuildingBlock: TAGTUT_clean_sbu_3, # of connection points: 8
#     Node 2, Type 0, BuildingBlock: TAGTUT_clean_sbu_3, # of connection points: 8
#     Edge 3, Type (0, 0), BuildingBlock: EYOCIG_clean_linker_4, # of connection points: 2
#     Edge 4, Type (0, 0), BuildingBlock: EYOCIG_clean_linker_4, # of connection points: 2
#     Edge 5, Type (0, 0), BuildingBlock: EYOCIG_clean_linker_4, # of connection points: 2
#     Edge 6, Type (0, 0), BuildingBlock: EYOCIG_clean_linker_4, # of connection points: 2
#     Edge 7, Type (0, 0), BuildingBlock: EYOCIG_clean_linker_4, # of connection points: 2
#     Edge 8, Type (0, 0), BuildingBlock: EYOCIG_clean_linker_4, # of connection points: 2
#     Edge 9, Type (0, 0), BuildingBlock: EYOCIG_clean_linker_4, # of connection points: 2
#     Edge 10, Type (0, 0), BuildingBlock: EYOCIG_clean_linker_4, # of connection points: 2
#     Edge 11, Type (0, 0), BuildingBlock: EYOCIG_clean_linker_4, # of connection points: 2
#     Edge 12, Type (0, 0), BuildingBlock: EYOCIG_clean_linker_4, # of connection points: 2
#     Edge 13, Type (0, 0), BuildingBlock: EYOCIG_clean_linker_4, # of connection points: 2
#     Edge 14, Type (0, 0), BuildingBlock: EYOCIG_clean_linker_4, # of connection points: 2
# Relax obj value: 0.225
# Max RMSD: 0.162
# Mean RMSD: 0.162
data_MOF--net-ilc--node1-TAGTUT_clean_sbu_3--edge1-EYOCIG_clean_linker_4
_symmetry_space_group_name_H-M    P1
_symmetry_Int_Tables_number       1
_symmetry_cell_setting            triclinic
loop_
_symmetry_equiv_pos_as_xyz
'x, y, z'
_cell_length_a     22.324097
_cell_length_b     22.327877
_cell_length_c     11.797641
_cell_angle_alpha  94.527157
_cell_angle_beta   85.505139
_cell_angle_gamma 136.28386
loop_
_atom_site_label
_atom_site_type_symbol
_atom_site_fract_x
_atom_site_fract_y
_atom_site_fract_z
_atom_type_partial_charge
C0 C 0.08257 0.14558 0.14568 0.0
C1 C 0.14872 0.08127 0.35265 0.0
C2 C 0.04977 0.85419 0.20141 0.0
Mg3 Mg 0.01817 0.12966 0.91281 0.0
Mg4 Mg 0.91343 0.97757 0.73105 0.0
O5 O 0.92584 0.99764 0.88679 0.0
Mg6 Mg 0.95111 0.95999 1.0068 0.0
O7 O 0.98932 0.93528 0.12672 0.0
Mg8 Mg 0.12128 0.02799 0.10067 0.0
Mg9 Mg 0.969 0.9218 0.28223 0.0
C10 C 0.85967 0.8071 0.79206 0.0
O11 O 0.8238 0.89311 0.11805 0.0
O12 O 0.04348 0.17683 0.73491 0.0
O13 O 0.84224 0.87174 0.29137 0.0
O14 O 0.89278 0.09681 0.89838 0.0
O15 O 0.0378 0.08097 0.65171 0.0
O16 O 0.84491 0.01161 0.73701 0.0
O17 O 0.08082 0.02082 0.91953 0.0
O18 O 0.13064 0.14461 0.86929 0.0
C19 C 0.13646 0.09188 0.86772 0.0
C20 C 0.07202 0.15761 0.66105 0.0
O21 O 0.88486 0.83284 0.89563 0.0
O22 O 0.16844 0.05329 0.2786 0.0
O23 O 0.86412 0.85119 0.72174 0.0
O24 O 0.08968 0.90331 0.1138 0.0
O25 O 0.07175 0.04622 0.36218 0.0
O26 O 0.00434 0.85434 0.27504 0.0
O27 O 0.01134 0.08947 0.09413 0.0
O28 O 0.1355 0.14002 0.14436 0.0
C29 C 0.84392 0.05656 0.8104 0.0
C30 C 0.79805 0.86743 0.2214 0.0
C31 C 0.74938 0.47801 0.48013 0.0
C32 C 0.81298 0.4103 0.68748 0.0
C33 C 0.71381 0.1839 0.53159 0.0
Mg34 Mg 0.68417 0.46226 0.24761 0.0
Mg35 Mg 0.57616 0.30877 0.0663 0.0
O36 O 0.59207 0.3305 0.2213 0.0
Mg37 Mg 0.61724 0.29259 0.34079 0.0
O38 O 0.65511 0.2674 0.4603 0.0
Mg39 Mg 0.78688 0.35942 0.43426 0.0
Mg40 Mg 0.63338 0.25148 0.61525 0.0
C41 C 0.52392 0.13903 0.12673 0.0
O42 O 0.49008 0.22597 0.45184 0.0
O43 O 0.70806 0.50857 0.06949 0.0
O44 O 0.50699 0.20221 0.62434 0.0
O45 O 0.55883 0.42987 0.23654 0.0
O46 O 0.69971 0.41122 0.98478 0.0
O47 O 0.50823 0.34359 0.07589 0.0
O48 O 0.74696 0.35342 0.25319 0.0
O49 O 0.79638 0.47699 0.20268 0.0
C50 C 0.80252 0.42452 0.20137 0.0
C51 C 0.73518 0.48834 0.99459 0.0
O52 O 0.55056 0.16547 0.22963 0.0
O53 O 0.83317 0.38322 0.61244 0.0
O54 O 0.52684 0.18236 0.05708 0.0
O55 O 0.75442 0.23407 0.44505 0.0
O56 O 0.7359 0.37496 0.69715 0.0
O57 O 0.66815 0.18349 0.60556 0.0
O58 O 0.67811 0.42217 0.42858 0.0
O59 O 0.80183 0.47183 0.47909 0.0
C60 C 0.50865 0.38926 0.14989 0.0
C61 C 0.46365 0.19933 0.55469 0.0
C62 C 0.41688 0.81193 0.81378 0.0
C63 C 0.48219 0.74699 0.02102 0.0
C64 C 0.3806 0.51875 0.87133 0.0
Mg65 Mg 0.35312 0.7968 0.58109 0.0
Mg66 Mg 0.24717 0.6447 0.39914 0.0
O67 O 0.26017 0.66483 0.55477 0.0
Mg68 Mg 0.28467 0.62647 0.6748 0.0
O69 O 0.3221 0.60105 0.79493 0.0
Mg70 Mg 0.45411 0.69312 0.76918 0.0
Mg71 Mg 0.30205 0.58873 0.95065 0.0
C72 C 0.19226 0.47353 0.45997 0.0
O73 O 0.15749 0.56043 0.78577 0.0
O74 O 0.37882 0.84416 0.40325 0.0
O75 O 0.17577 0.53968 0.95972 0.0
O76 O 0.22855 0.7654 0.56711 0.0
O77 O 0.37178 0.74743 0.31984 0.0
O78 O 0.17983 0.68013 0.4057 0.0
O79 O 0.41423 0.68646 0.58775 0.0
O80 O 0.46484 0.81062 0.53758 0.0
C81 C 0.47019 0.75754 0.53598 0.0
C82 C 0.4069 0.82442 0.32943 0.0
O83 O 0.21768 0.49916 0.56348 0.0
O84 O 0.50119 0.71826 0.94715 0.0
O85 O 0.19692 0.51787 0.38987 0.0
O86 O 0.4209 0.56756 0.78342 0.0
O87 O 0.40566 0.71306 0.03022 0.0
O88 O 0.33577 0.51991 0.94468 0.0
O89 O 0.34567 0.7561 0.7622 0.0
O90 O 0.46949 0.80594 0.81254 0.0
C91 C 0.17958 0.72554 0.47924 0.0
C92 C 0.13174 0.53529 0.88933 0.0
C93 C 0.21431 0.25097 0.54571 0.0
C94 C 0.15408 0.2249 0.60562 0.0
C95 C 0.24147 0.22393 0.46734 0.0
C96 C 0.21566 0.16367 0.40771 0.0
C97 C 0.90494 0.55261 0.80279 0.0
C98 C 0.87959 0.49258 0.74302 0.0
C99 C 0.87772 0.58005 0.88018 0.0
C100 C 0.81766 0.5549 0.9396 0.0
C101 C 0.57617 0.88928 0.13677 0.0
C102 C 0.54968 0.82893 0.07671 0.0
C103 C 0.5496 0.91687 0.21523 0.0
C104 C 0.48941 0.8913 0.27469 0.0
C105 C 0.10477 0.75747 0.38206 0.0
C106 C 0.13893 0.74843 0.44204 0.0
C107 C 0.08216 0.77974 0.29834 0.0
C108 C 0.07288 0.81373 0.23845 0.0
C109 C 0.14082 0.33377 0.35754 0.0
C110 C 0.16462 0.39527 0.41366 0.0
C111 C 0.11796 0.26764 0.28179 0.0
C112 C 0.09975 0.2112 0.21886 0.0
C113 C 0.59218 0.79294 0.39977 0.0
C114 C 0.53575 0.77465 0.46277 0.0
C115 C 0.65832 0.81594 0.32392 0.0
C116 C 0.71981 0.8398 0.26773 0.0
C117 C 0.74563 0.10883 0.6277 0.0
C118 C 0.7367 0.14306 0.5677 0.0
C119 C 0.76814 0.08689 0.71211 0.0
C120 C 0.80258 0.07855 0.77279 0.0
C121 C 0.78566 0.6009 0.61526 0.0
C122 C 0.76716 0.54413 0.55282 0.0
C123 C 0.80863 0.66733 0.69041 0.0
C124 C 0.83227 0.7289 0.74609 0.0
C125 C 0.32461 0.14953 0.65677 0.0
C126 C 0.38594 0.17274 0.60103 0.0
C127 C 0.25863 0.12726 0.73208 0.0
C128 C 0.20223 0.1093 0.7947 0.0
C129 C 0.43319 0.42073 0.05396 0.0
C130 C 0.46762 0.41198 0.11387 0.0
C131 C 0.41099 0.44303 0.96963 0.0
C132 C 0.40257 0.4774 0.909 0.0
C133 C 0.45219 0.93412 0.94935 0.0
C134 C 0.43432 0.87772 0.88678 0.0
C135 C 0.4743 1.00006 0.02461 0.0
C136 C 0.49743 0.06138 0.08033 0.0
C137 C 0.99192 0.48417 0.99088 0.0
C138 C 0.05349 0.50785 0.93516 0.0
C139 C 0.92545 0.46102 0.06611 0.0
C140 C 0.86865 0.44236 0.12863 0.0
loop_
_geom_bond_atom_site_label_1
_geom_bond_atom_site_label_2
_geom_bond_distance
_geom_bond_site_symmetry_2
_ccdc_geom_bond_type
C0 O27 1.312 . S
C0 O28 1.208 . S
C1 O22 1.331 1_565 S
C1 O25 1.244 1_455 S
C2 O24 1.264 . S
C2 O26 1.273 1_455 S
Mg3 O5 1.936 1_455 S
Mg3 O12 2.081 . S
Mg3 O14 2.023 1_455 S
Mg3 O18 2.031 . S
Mg3 O27 2.291 1_556 S
Mg4 O5 1.963 1_565 S
Mg4 O15 1.942 . S
Mg4 O16 1.955 . S
Mg4 O23 1.986 . S
O5 Mg3 1.936 1_655 S
O5 Mg4 1.963 1_545 S
O5 Mg6 1.915 1_546 S
Mg6 O5 1.915 1_564 S
Mg6 O7 1.915 1_655 S
Mg6 O11 2.013 . S
Mg6 O17 2.114 1_664 S
Mg6 O21 2.013 1_554 S
Mg6 O27 2.114 1_665 S
O7 Mg6 1.915 1_455 S
O7 Mg8 1.936 1_565 S
O7 Mg9 1.963 1_455 S
Mg8 O7 1.936 1_545 S
Mg8 O17 2.291 1_554 S
Mg8 O22 2.081 . S
Mg8 O24 2.023 1_545 S
Mg8 O28 2.031 . S
Mg9 O7 1.963 1_655 S
Mg9 O13 1.986 . S
Mg9 O25 1.942 . S
Mg9 O26 1.955 . S
C10 O21 1.191 . S
C10 O23 1.307 . S
O11 Mg6 2.013 . S
O11 C30 1.191 . S
O12 Mg3 2.081 . S
O12 C20 1.331 1_455 S
O13 Mg9 1.986 . S
O13 C30 1.307 . S
O14 Mg3 2.023 1_655 S
O14 C29 1.264 . S
O15 Mg4 1.942 . S
O15 C20 1.244 1_565 S
O16 Mg4 1.955 . S
O16 C29 1.273 1_565 S
O17 Mg6 2.114 1_446 S
O17 Mg8 2.291 1_556 S
O17 C19 1.312 . S
O18 Mg3 2.031 . S
O18 C19 1.208 . S
C19 O17 1.312 . S
C19 O18 1.208 . S
C20 O12 1.331 1_655 S
C20 O15 1.244 1_545 S
O21 Mg6 2.013 1_556 S
O21 C10 1.191 . S
O22 C1 1.331 1_545 S
O22 Mg8 2.081 . S
O23 Mg4 1.986 . S
O23 C10 1.307 . S
O24 C2 1.264 . S
O24 Mg8 2.023 1_565 S
O25 C1 1.244 1_655 S
O25 Mg9 1.942 . S
O26 C2 1.273 1_655 S
O26 Mg9 1.955 . S
O27 C0 1.312 . S
O27 Mg3 2.291 1_554 S
O27 Mg6 2.114 1_445 S
O28 C0 1.208 . S
O28 Mg8 2.031 . S
C29 O14 1.264 . S
C29 O16 1.273 1_545 S
C30 O11 1.191 . S
C30 O13 1.307 . S
C31 O58 1.312 . S
C31 O59 1.208 . S
C32 O53 1.331 . S
C32 O56 1.244 . S
C33 O55 1.264 . S
C33 O57 1.273 . S
Mg34 O36 1.936 . S
Mg34 O43 2.081 1_554 S
Mg34 O45 2.023 . S
Mg34 O49 2.031 . S
Mg34 O58 2.291 . S
Mg35 O36 1.963 . S
Mg35 O46 1.942 1_554 S
Mg35 O47 1.955 . S
Mg35 O54 1.986 . S
O36 Mg34 1.936 . S
O36 Mg35 1.963 . S
O36 Mg37 1.915 . S
Mg37 O36 1.915 . S
Mg37 O38 1.915 . S
Mg37 O42 2.013 . S
Mg37 O48 2.114 . S
Mg37 O52 2.013 . S
Mg37 O58 2.114 . S
O38 Mg37 1.915 . S
O38 Mg39 1.936 . S
O38 Mg40 1.963 . S
Mg39 O38 1.936 . S
Mg39 O48 2.291 . S
Mg39 O53 2.081 . S
Mg39 O55 2.023 . S
Mg39 O59 2.031 . S
Mg40 O38 1.963 . S
Mg40 O44 1.986 . S
Mg40 O56 1.942 . S
Mg40 O57 1.955 . S
C41 O52 1.191 . S
C41 O54 1.307 . S
O42 Mg37 2.013 . S
O42 C61 1.191 . S
O43 Mg34 2.081 1_556 S
O43 C51 1.331 . S
O44 Mg40 1.986 . S
O44 C61 1.307 . S
O45 Mg34 2.023 . S
O45 C60 1.264 . S
O46 Mg35 1.942 1_556 S
O46 C51 1.244 . S
O47 Mg35 1.955 . S
O47 C60 1.273 . S
O48 Mg37 2.114 . S
O48 Mg39 2.291 . S
O48 C50 1.312 . S
O49 Mg34 2.031 . S
O49 C50 1.208 . S
C50 O48 1.312 . S
C50 O49 1.208 . S
C51 O43 1.331 . S
C51 O46 1.244 . S
O52 Mg37 2.013 . S
O52 C41 1.191 . S
O53 C32 1.331 . S
O53 Mg39 2.081 . S
O54 Mg35 1.986 . S
O54 C41 1.307 . S
O55 C33 1.264 . S
O55 Mg39 2.023 . S
O56 C32 1.244 . S
O56 Mg40 1.942 . S
O57 C33 1.273 . S
O57 Mg40 1.955 . S
O58 C31 1.312 . S
O58 Mg34 2.291 . S
O58 Mg37 2.114 . S
O59 C31 1.208 . S
O59 Mg39 2.031 . S
C60 O45 1.264 . S
C60 O47 1.273 . S
C61 O42 1.191 . S
C61 O44 1.307 . S
C62 O89 1.312 . S
C62 O90 1.208 . S
C63 O84 1.331 . S
C63 O87 1.244 . S
C64 O86 1.264 . S
C64 O88 1.273 . S
Mg65 O67 1.936 . S
Mg65 O74 2.081 . S
Mg65 O76 2.023 . S
Mg65 O80 2.031 . S
Mg65 O89 2.291 . S
Mg66 O67 1.963 . S
Mg66 O77 1.942 . S
Mg66 O78 1.955 . S
Mg66 O85 1.986 . S
O67 Mg65 1.936 . S
O67 Mg66 1.963 . S
O67 Mg68 1.915 . S
Mg68 O67 1.915 . S
Mg68 O69 1.915 . S
Mg68 O73 2.013 . S
Mg68 O79 2.114 . S
Mg68 O83 2.013 . S
Mg68 O89 2.114 . S
O69 Mg68 1.915 . S
O69 Mg70 1.936 . S
O69 Mg71 1.963 . S
Mg70 O69 1.936 . S
Mg70 O79 2.291 . S
Mg70 O84 2.081 1_556 S
Mg70 O86 2.023 . S
Mg70 O90 2.031 . S
Mg71 O69 1.963 . S
Mg71 O75 1.986 . S
Mg71 O87 1.942 1_556 S
Mg71 O88 1.955 . S
C72 O83 1.191 . S
C72 O85 1.307 . S
O73 Mg68 2.013 . S
O73 C92 1.191 . S
O74 Mg65 2.081 . S
O74 C82 1.331 . S
O75 Mg71 1.986 . S
O75 C92 1.307 . S
O76 Mg65 2.023 . S
O76 C91 1.264 . S
O77 Mg66 1.942 . S
O77 C82 1.244 . S
O78 Mg66 1.955 . S
O78 C91 1.273 . S
O79 Mg68 2.114 . S
O79 Mg70 2.291 . S
O79 C81 1.312 . S
O80 Mg65 2.031 . S
O80 C81 1.208 . S
C81 O79 1.312 . S
C81 O80 1.208 . S
C82 O74 1.331 . S
C82 O77 1.244 . S
O83 Mg68 2.013 . S
O83 C72 1.191 . S
O84 C63 1.331 . S
O84 Mg70 2.081 1_554 S
O85 Mg66 1.986 . S
O85 C72 1.307 . S
O86 C64 1.264 . S
O86 Mg70 2.023 . S
O87 C63 1.244 . S
O87 Mg71 1.942 1_554 S
O88 C64 1.273 . S
O88 Mg71 1.955 . S
O89 C62 1.312 . S
O89 Mg65 2.291 . S
O89 Mg68 2.114 . S
O90 C62 1.208 . S
O90 Mg70 2.031 . S
C91 O76 1.264 . S
C91 O78 1.273 . S
C92 O73 1.191 . S
C92 O75 1.307 . S
C93 C94 1.170 1_455 S
C93 C95 1.380 . S
C94 C93 1.170 1_655 S
C95 C93 1.380 . S
C95 C96 1.170 1_545 S
C96 C95 1.170 1_565 S
C97 C98 1.170 . S
C97 C99 1.380 . S
C98 C97 1.170 . S
C99 C97 1.380 . S
C99 C100 1.170 . S
C100 C99 1.170 . S
C101 C102 1.170 . S
C101 C103 1.380 . S
C102 C101 1.170 . S
C103 C101 1.380 . S
C103 C104 1.170 . S
C104 C103 1.170 . S
C105 C106 1.170 . S
C105 C107 1.380 . S
C106 C105 1.170 . S
C107 C105 1.380 . S
C107 C108 1.170 . S
C108 C107 1.170 . S
C109 C110 1.170 . S
C109 C111 1.380 . S
C110 C109 1.170 . S
C111 C109 1.380 . S
C111 C112 1.170 . S
C112 C111 1.170 . S
C113 C114 1.170 . S
C113 C115 1.380 . S
C114 C113 1.170 . S
C115 C113 1.380 . S
C115 C116 1.170 . S
C116 C115 1.170 . S
C117 C118 1.170 . S
C117 C119 1.380 . S
C118 C117 1.170 . S
C119 C117 1.380 . S
C119 C120 1.170 . S
C120 C119 1.170 . S
C121 C122 1.170 . S
C121 C123 1.380 . S
C122 C121 1.170 . S
C123 C121 1.380 . S
C123 C124 1.170 . S
C124 C123 1.170 . S
C125 C126 1.170 . S
C125 C127 1.380 . S
C126 C125 1.170 . S
C127 C125 1.380 . S
C127 C128 1.170 . S
C128 C127 1.170 . S
C129 C130 1.170 . S
C129 C131 1.380 1_554 S
C130 C129 1.170 . S
C131 C129 1.380 1_556 S
C131 C132 1.170 . S
C132 C131 1.170 . S
C133 C134 1.170 . S
C133 C135 1.380 1_566 S
C134 C133 1.170 . S
C135 C133 1.380 1_544 S
C135 C136 1.170 . S
C136 C135 1.170 . S
C137 C138 1.170 . S
C137 C139 1.380 1_456 S
C138 C137 1.170 . S
C139 C137 1.380 1_654 S
C139 C140 1.170 . S
C140 C139 1.170 . S
C94 C20 0.564 . S
C96 C1 0.555 . S
C98 C32 0.560 . S
C100 C51 0.543 . S
C102 C63 0.576 . S
C104 C82 0.541 . S
C106 C91 2.067 . S
C108 C2 2.040 . S
C110 C72 1.880 . S
C112 C0 1.870 . S
C114 C81 1.886 . S
C116 C30 1.861 . S
C118 C33 2.078 . S
C120 C29 2.055 . S
C122 C31 1.871 . S
C124 C10 1.883 . S
C126 C61 1.897 . S
C128 C19 1.848 . S
C130 C60 2.044 . S
C132 C64 2.081 . S
C134 C62 1.869 . S
C136 C41 1.868 . S
C138 C92 1.897 . S
C140 C50 1.848 . S
