# Generated by pormake.
# Topology pcu, (6)-cn, num edge types: 1
# Building blocks:
#     Node 0, Type 0, BuildingBlock: KUMBUR_clean_sbu_0, # of connection points: 6
#     Edge 1, Type (0, 0), BuildingBlock: XIVTED_clean_linker_0, # of connection points: 2
#     Edge 2, Type (0, 0), BuildingBlock: XIVTED_clean_linker_0, # of connection points: 2
#     Edge 3, Type (0, 0), BuildingBlock: XIVTED_clean_linker_0, # of connection points: 2
# Relax obj value: 0.000
# Max RMSD: 0.000
# Mean RMSD: 0.000
data_MOF--net-pcu--node1-KUMBUR_clean_sbu_0--edge1-XIVTED_clean_linker_0
_symmetry_space_group_name_H-M    P1
_symmetry_Int_Tables_number       1
_symmetry_cell_setting            triclinic
loop_
_symmetry_equiv_pos_as_xyz
'x, y, z'
_cell_length_a     14.008511
_cell_length_b     24.394405
_cell_length_c     15.319168
_cell_angle_alpha  115.54023
_cell_angle_beta   74.846459
_cell_angle_gamma 115.52884
loop_
_atom_site_label
_atom_site_type_symbol
_atom_site_fract_x
_atom_site_fract_y
_atom_site_fract_z
_atom_type_partial_charge
Tb0 Tb 0.10004 0.08779 0.03589 0.0
C1 C 0.78154 0.82336 0.80731 0.0
C2 C 0.61179 0.82074 0.89933 0.0
C3 C 0.62021 0.76217 0.72448 0.0
C4 C 0.72334 0.84257 0.89463 0.0
C5 C 0.73081 0.78176 0.72132 0.0
C6 C 0.56074 0.7817 0.81343 0.0
C7 C 0.90118 0.77783 0.6378 0.0
N8 N 0.88786 0.84303 0.80776 0.0
C9 C 0.94764 0.81891 0.72523 0.0
C10 C 0.79245 0.75978 0.63554 0.0
Tb11 Tb 0.95762 0.91184 0.95359 0.0
N12 N 0.77579 0.8796 0.97579 0.0
C13 C 0.71989 0.89254 0.06533 0.0
C14 C 0.55487 0.83721 0.99041 0.0
C15 C 0.60911 0.87243 0.07386 0.0
H16 H 0.03183 0.83285 0.72608 0.0
H17 H 0.56571 0.88434 0.14487 0.0
H18 H 0.47519 0.76498 0.81535 0.0
H19 H 0.94926 0.76015 0.57226 0.0
H20 H 0.7601 0.91996 0.13076 0.0
H21 H 0.49189 0.11539 0.84442 0.0
H22 H 0.4691 0.82163 -0.00276 0.0
H23 H 1.02593 0.16671 0.26349 0.0
H24 H 0.29749 0.07975 0.85862 0.0
H25 H 0.10857 0.23935 0.41728 0.0
H26 H 0.57969 0.73068 0.65907 0.0
H27 H 0.58857 0.17806 0.992 0.0
H28 H 0.58258 0.23463 0.17389 0.0
H29 H 0.75657 0.72776 0.56784 0.0
H30 H 0.47814 0.26886 0.33024 0.0
N31 N 0.28188 0.12006 0.0136 0.0
C32 C 0.33774 0.10716 0.92403 0.0
C33 C 0.5028 0.16247 -0.00114 0.0
C34 C 0.44593 0.1789 0.08998 0.0
C35 C 0.44852 0.12728 0.91544 0.0
C36 C 0.33436 0.15707 0.09473 0.0
H37 H 0.30128 0.27174 0.42159 0.0
N38 N 0.16987 0.15655 0.18171 0.0
C39 C 0.15663 0.22169 0.3517 0.0
C40 C 0.2762 0.17622 0.18209 0.0
C41 C 0.11012 0.18065 0.26429 0.0
C42 C 0.26537 0.23974 0.3539 0.0
C43 C 0.32697 0.21779 0.26807 0.0
O44 O 0.0433 0.16292 0.07293 0.0
O45 O 0.95254 0.00704 -0.00264 0.0
O46 O 0.96161 0.94298 0.83853 0.0
O47 O 0.10693 0.04169 0.87535 0.0
O48 O 0.943 0.089 0.10925 0.0
O49 O 0.15759 0.14508 0.94943 0.0
O50 O 1.01429 0.8367 0.91667 0.0
O51 O 0.10502 0.99258 0.99195 0.0
O52 O 0.09616 0.0566 0.15085 0.0
O53 O 0.95071 0.95797 0.11412 0.0
O54 O 0.11474 0.9106 0.88038 0.0
O55 O 0.9 0.85462 0.04015 0.0
C56 C 0.88707 0.0314 0.05619 0.0
C57 C 0.16245 0.25344 0.03145 0.0
C58 C 0.17281 0.35943 0.04465 0.0
C59 C 0.11936 0.29134 0.01787 0.0
C60 C 0.27012 0.38882 0.08554 0.0
C61 C 0.25963 0.28379 0.07202 0.0
C62 C 0.31297 0.35115 0.09901 0.0
C63 C 0.03611 0.99235 0.81545 0.0
C64 C 0.10416 0.18259 0.00378 0.0
C65 C 0.43759 0.2374 0.26485 0.0
C66 C 0.49702 0.21791 0.17586 0.0
C67 C 0.17063 0.96826 0.93333 0.0
C68 C 0.89507 0.74623 0.95823 0.0
C69 C 0.93816 0.70833 0.97181 0.0
C70 C 0.88468 0.64024 0.94506 0.0
C71 C 0.78734 0.61086 0.90422 0.0
C72 C 0.79786 0.71589 0.9177 0.0
C73 C 0.7445 0.64854 0.89075 0.0
C74 C 1.02162 0.00725 0.17396 0.0
C75 C 0.95341 0.81707 0.98585 0.0
H76 H 0.04358 0.2678 0.98752 0.0
H77 H 0.31409 0.44084 0.10576 0.0
H78 H 0.29445 0.25558 0.08258 0.0
H79 H 0.38811 0.37423 0.13011 0.0
H80 H 1.01396 0.73187 0.00212 0.0
H81 H 0.74335 0.55885 0.88403 0.0
H82 H 0.76305 0.7441 0.90715 0.0
H83 H 0.66934 0.62545 0.85969 0.0
H84 H 0.87119 0.92343 0.26043 0.0
H85 H 0.18651 0.07621 0.72902 0.0
H86 H 0.17064 0.08644 0.30542 0.0
H87 H 0.8872 0.91309 0.68391 0.0
H88 H 0.18224 0.08059 0.57383 0.0
H89 H 0.87548 0.91903 0.41561 0.0
C90 C 0.93757 0.95857 0.30303 0.0
C91 C 1.02027 0.00572 0.26988 0.0
C92 C 0.11774 0.04364 0.59772 0.0
C93 C 1.02592 0.00069 0.44766 0.0
C94 C 0.12017 0.04105 0.68639 0.0
C95 C 0.0375 0.99387 0.71951 0.0
C96 C 0.03187 0.99888 0.54171 0.0
C97 C 0.95347 0.94976 0.661 0.0
C98 C 0.94001 0.95596 0.39169 0.0
C99 C 0.10434 0.04979 0.32835 0.0
N100 N 0.9528 0.95341 0.57515 0.0
N101 N 0.10502 0.04614 0.41419 0.0
H102 H 0.25041 0.0218 0.1103 0.0
H103 H 0.80719 0.97783 0.87929 0.0
H104 H 0.33167 0.94069 0.80225 0.0
H105 H 0.72618 0.05922 0.18733 0.0
H106 H 0.63337 0.9628 0.84957 0.0
H107 H 0.42427 0.03691 0.14006 0.0
C108 C 0.30551 0.00829 0.04876 0.0
C109 C 0.27788 0.98197 0.95345 0.0
C110 C 0.65305 0.98354 0.92379 0.0
C111 C 0.47612 0.99655 0.98703 0.0
C112 C 0.75216 0.99143 0.94084 0.0
C113 C 0.77985 0.01781 0.03614 0.0
C114 C 0.58164 0.00331 0.0026 0.0
C115 C 0.70687 0.0375 0.11285 0.0
C116 C 0.40463 0.01623 0.06583 0.0
C117 C 0.35094 0.96238 0.87675 0.0
N118 N 0.61094 0.02963 0.09451 0.0
N119 N 0.44688 0.97028 0.89511 0.0
H120 H 0.98331 0.66939 0.10126 0.0
H121 H 0.07424 0.33029 0.88843 0.0
H122 H 0.888 0.51889 0.82363 0.0
H123 H 0.16943 0.48077 0.16611 0.0
H124 H 1.00423 0.39822 0.86401 0.0
H125 H 0.05332 0.60146 0.12568 0.0
C126 C 0.97773 0.62228 0.04506 0.0
C127 C 0.92949 0.59992 0.96024 0.0
C128 C 0.04038 0.4164 0.93033 0.0
C129 C 1.00855 0.52135 0.98832 0.0
C130 C 0.07979 0.3774 0.94464 0.0
C131 C 0.12799 0.39975 0.02948 0.0
C132 C 0.04894 0.47832 0.00139 0.0
C133 C 0.13432 0.46179 0.09898 0.0
C134 C 1.01714 0.58328 0.05937 0.0
C135 C 0.92314 0.53788 0.89074 0.0
N136 N 0.09532 0.4988 0.08341 0.0
N137 N 0.96214 0.50087 0.90632 0.0
loop_
_geom_bond_atom_site_label_1
_geom_bond_atom_site_label_2
_geom_bond_distance
_geom_bond_site_symmetry_2
_ccdc_geom_bond_type
Tb0 N31 2.660 1_554 S
Tb0 N38 2.600 . S
Tb0 O44 2.546 . S
Tb0 O45 2.610 1_444 S
Tb0 O47 2.320 1_554 S
Tb0 O48 2.552 1_455 S
Tb0 O49 2.413 . S
Tb0 O51 2.362 . S
Tb0 O52 2.422 1_455 S
Tb0 C64 2.833 . S
C1 C4 1.432 . S
C1 C5 1.414 . S
C1 N8 1.359 . S
C2 C4 1.417 . S
C2 C6 1.432 . S
C2 C14 1.410 1_556 S
C3 C5 1.444 . S
C3 C6 1.317 . S
C3 H26 0.929 . S
C4 C1 1.432 . S
C4 C2 1.417 . S
C4 N12 1.360 1_556 S
C5 C1 1.414 . S
C5 C3 1.444 . S
C5 C10 1.385 . S
C6 C2 1.432 . S
C6 C3 1.317 . S
C6 H18 0.930 . S
C7 C9 1.392 . S
C7 C10 1.370 . S
C7 H19 0.931 . S
N8 C1 1.359 . S
N8 C9 1.327 . S
N8 Tb11 2.600 . S
C9 C7 1.392 . S
C9 N8 1.327 . S
C9 H16 0.930 . S
C10 C5 1.385 . S
C10 C7 1.370 . S
C10 H29 0.930 . S
Tb11 N8 2.600 . S
Tb11 N12 2.660 1_556 S
Tb11 O45 2.362 . S
Tb11 O46 2.421 1_655 S
Tb11 O50 2.546 . S
Tb11 O51 2.610 1_666 S
Tb11 O53 2.320 1_556 S
Tb11 O54 2.552 1_655 S
Tb11 O55 2.413 . S
Tb11 C75 2.833 . S
N12 C4 1.360 1_554 S
N12 Tb11 2.660 1_554 S
N12 C13 1.305 . S
C13 N12 1.305 . S
C13 C15 1.407 . S
C13 H20 0.930 . S
C14 C2 1.410 1_554 S
C14 C15 1.345 . S
C14 H22 0.930 . S
C15 C13 1.407 . S
C15 C14 1.345 . S
C15 H17 0.930 . S
H16 C9 0.930 . S
H17 C15 0.930 . S
H18 C6 0.930 . S
H19 C7 0.931 . S
H20 C13 0.930 . S
H21 C35 0.930 . S
H22 C14 0.930 . S
H23 C41 0.930 . S
H24 C32 0.930 . S
H25 C39 0.931 . S
H26 C3 0.929 . S
H27 C33 0.930 . S
H28 C66 0.930 . S
H29 C10 0.930 . S
H30 C65 0.929 . S
N31 Tb0 2.660 1_556 S
N31 C32 1.305 . S
N31 C36 1.360 1_556 S
C32 H24 0.930 . S
C32 N31 1.305 . S
C32 C35 1.407 . S
C33 H27 0.930 . S
C33 C34 1.410 1_556 S
C33 C35 1.345 . S
C34 C33 1.410 1_554 S
C34 C36 1.417 . S
C34 C66 1.432 . S
C35 H21 0.930 . S
C35 C32 1.407 . S
C35 C33 1.345 . S
C36 N31 1.360 1_554 S
C36 C34 1.417 . S
C36 C40 1.432 . S
H37 C42 0.930 . S
N38 Tb0 2.600 . S
N38 C40 1.359 . S
N38 C41 1.327 . S
C39 H25 0.931 . S
C39 C41 1.392 . S
C39 C42 1.370 . S
C40 C36 1.432 . S
C40 N38 1.359 . S
C40 C43 1.414 . S
C41 H23 0.930 . S
C41 N38 1.327 . S
C41 C39 1.392 . S
C42 H37 0.930 . S
C42 C39 1.370 . S
C42 C43 1.385 . S
C43 C40 1.414 . S
C43 C42 1.385 . S
C43 C65 1.444 . S
O44 Tb0 2.546 . S
O44 C64 1.251 . S
O45 Tb0 2.610 1_666 S
O45 Tb11 2.362 . S
O45 C56 1.283 1_566 S
O46 Tb11 2.421 1_455 S
O46 C63 1.262 . S
O47 Tb0 2.320 1_556 S
O47 C63 1.260 1_545 S
O48 Tb0 2.552 1_655 S
O48 C56 1.243 . S
O49 Tb0 2.413 . S
O49 C64 1.256 . S
O50 Tb11 2.546 . S
O50 C75 1.251 . S
O51 Tb0 2.362 . S
O51 Tb11 2.610 1_444 S
O51 C67 1.283 1_544 S
O52 Tb0 2.422 1_655 S
O52 C74 1.258 . S
O53 Tb11 2.320 1_554 S
O53 C74 1.260 1_565 S
O54 Tb11 2.552 1_455 S
O54 C67 1.243 . S
O55 Tb11 2.413 . S
O55 C75 1.256 . S
C56 O45 1.283 1_544 S
C56 O48 1.243 . S
C57 C59 1.382 . S
C57 C61 1.393 . S
C57 C64 1.500 . S
C58 C59 1.400 . S
C58 C60 1.384 . S
C59 C57 1.382 . S
C59 C58 1.400 . S
C59 H76 0.930 1_554 S
C60 C58 1.384 . S
C60 C62 1.392 . S
C60 H77 0.931 . S
C61 C57 1.393 . S
C61 C62 1.401 . S
C61 H78 0.930 . S
C62 C60 1.392 . S
C62 C61 1.401 . S
C62 H79 0.930 . S
C63 O46 1.262 . S
C63 O47 1.260 1_565 S
C64 Tb0 2.833 . S
C64 O44 1.251 . S
C64 O49 1.256 . S
C64 C57 1.500 . S
C65 H30 0.929 . S
C65 C43 1.444 . S
C65 C66 1.317 . S
C66 H28 0.930 . S
C66 C34 1.432 . S
C66 C65 1.317 . S
C67 O51 1.283 1_566 S
C67 O54 1.243 . S
C68 C69 1.382 . S
C68 C72 1.393 . S
C68 C75 1.500 . S
C69 C68 1.382 . S
C69 C70 1.400 . S
C69 H80 0.930 1_556 S
C70 C69 1.400 . S
C70 C71 1.384 . S
C71 C70 1.384 . S
C71 C73 1.392 . S
C71 H81 0.931 . S
C72 C68 1.393 . S
C72 C73 1.401 . S
C72 H82 0.930 . S
C73 C71 1.392 . S
C73 C72 1.401 . S
C73 H83 0.930 . S
C74 O52 1.258 . S
C74 O53 1.260 1_545 S
C75 Tb11 2.833 . S
C75 O50 1.251 . S
C75 O55 1.256 . S
C75 C68 1.500 . S
H76 C59 0.930 1_556 S
H77 C60 0.931 . S
H78 C61 0.930 . S
H79 C62 0.930 . S
H80 C69 0.930 1_554 S
H81 C71 0.931 . S
H82 C72 0.930 . S
H83 C73 0.930 . S
H84 C90 0.930 . S
H85 C94 0.930 . S
H86 C99 0.929 . S
H87 C97 0.929 . S
H88 C92 0.929 . S
H89 C98 0.929 . S
C90 H84 0.930 . S
C90 C91 1.367 . S
C90 C98 1.378 . S
C91 C90 1.367 . S
C91 C99 1.433 1_665 S
C92 H88 0.929 . S
C92 C94 1.378 . S
C92 C96 1.350 . S
C93 C96 1.463 1_665 S
C93 C98 1.350 . S
C93 N101 1.427 1_665 S
C94 H85 0.930 . S
C94 C92 1.378 . S
C94 C95 1.367 . S
C95 C94 1.367 . S
C95 C97 1.433 1_445 S
C96 C92 1.350 . S
C96 C93 1.463 1_445 S
C96 N100 1.427 1_445 S
C97 H87 0.929 . S
C97 C95 1.433 1_665 S
C97 N100 1.384 . S
C98 H89 0.929 . S
C98 C90 1.378 . S
C98 C93 1.350 . S
C99 H86 0.929 . S
C99 C91 1.433 1_445 S
C99 N101 1.384 . S
N100 C96 1.427 1_665 S
N100 C97 1.384 . S
N101 C93 1.427 1_445 S
N101 C99 1.384 . S
H102 C108 0.930 . S
H103 C112 0.930 . S
H104 C117 0.929 . S
H105 C115 0.929 . S
H106 C110 0.929 . S
H107 C116 0.929 . S
C108 H102 0.930 . S
C108 C109 1.368 . S
C108 C116 1.378 . S
C109 C108 1.368 . S
C109 C117 1.433 1_564 S
C110 H106 0.929 . S
C110 C112 1.378 . S
C110 C114 1.351 . S
C111 C114 1.469 1_564 S
C111 C116 1.351 . S
C111 N119 1.425 1_564 S
C112 H103 0.930 . S
C112 C110 1.378 . S
C112 C113 1.371 . S
C113 C112 1.371 . S
C113 C115 1.432 1_546 S
C114 C110 1.351 . S
C114 C111 1.469 1_546 S
C114 N118 1.421 1_546 S
C115 H105 0.929 . S
C115 C113 1.432 1_564 S
C115 N118 1.384 . S
C116 H107 0.929 . S
C116 C108 1.378 . S
C116 C111 1.351 . S
C117 H104 0.929 . S
C117 C109 1.433 1_546 S
C117 N119 1.384 . S
N118 C114 1.421 1_564 S
N118 C115 1.384 . S
N119 C111 1.425 1_546 S
N119 C117 1.384 . S
H120 C126 0.930 . S
H121 C130 0.930 . S
H122 C135 0.929 . S
H123 C133 0.929 . S
H124 C128 0.929 . S
H125 C134 0.929 . S
C126 H120 0.930 . S
C126 C127 1.367 . S
C126 C134 1.378 . S
C127 C126 1.367 . S
C127 C135 1.433 1_654 S
C128 H124 0.929 . S
C128 C130 1.378 . S
C128 C132 1.350 . S
C129 C132 1.463 1_654 S
C129 C134 1.350 . S
C129 N137 1.427 1_654 S
C130 H121 0.930 . S
C130 C128 1.378 . S
C130 C131 1.367 . S
C131 C130 1.367 . S
C131 C133 1.433 1_456 S
C132 C128 1.350 . S
C132 C129 1.463 1_456 S
C132 N136 1.427 1_456 S
C133 H123 0.929 . S
C133 C131 1.433 1_654 S
C133 N136 1.384 . S
C134 H125 0.929 . S
C134 C126 1.378 . S
C134 C129 1.350 . S
C135 H122 0.929 . S
C135 C127 1.433 1_456 S
C135 N137 1.384 . S
N136 C132 1.427 1_654 S
N136 C133 1.384 . S
N137 C129 1.427 1_456 S
N137 C135 1.384 . S
C91 C74 1.470 1_565 S
C95 C63 1.470 1_545 S
C109 C67 1.435 1_554 S
C113 C56 1.433 1_556 S
C127 C70 1.324 1_554 S
C131 C58 1.324 1_556 S
