# Generated by pormake.
# Topology pcu, (6)-cn, num edge types: 1
# Building blocks:
#     Node 0, Type 0, BuildingBlock: KUMBOL_clean_sbu_0, # of connection points: 6
#     Edge 1, Type (0, 0), BuildingBlock: FUNLAD_clean_linker_1, # of connection points: 2
#     Edge 2, Type (0, 0), BuildingBlock: FUNLAD_clean_linker_1, # of connection points: 2
#     Edge 3, Type (0, 0), BuildingBlock: FUNLAD_clean_linker_1, # of connection points: 2
# Relax obj value: 0.000
# Max RMSD: 0.000
# Mean RMSD: 0.000
data_MOF--net-pcu--node1-KUMBOL_clean_sbu_0--edge1-FUNLAD_clean_linker_1
_symmetry_space_group_name_H-M    P1
_symmetry_Int_Tables_number       1
_symmetry_cell_setting            triclinic
loop_
_symmetry_equiv_pos_as_xyz
'x, y, z'
_cell_length_a     25.231282
_cell_length_b     14.742699
_cell_length_c     15.695461
_cell_angle_alpha  73.952542
_cell_angle_beta   115.24499
_cell_angle_gamma 116.45789
loop_
_atom_site_label
_atom_site_type_symbol
_atom_site_fract_x
_atom_site_fract_y
_atom_site_fract_z
_atom_type_partial_charge
Gd0 Gd 0.10651 0.06535 0.05657 0.0
Gd1 Gd 0.93036 0.94832 0.9484 0.0
C2 C 0.826 0.62917 0.85272 0.0
C3 C 0.78387 0.66514 0.68146 0.0
C4 C 0.8452 0.80362 0.78141 0.0
C5 C 0.85358 0.73461 0.86113 0.0
C6 C 0.80922 0.76974 0.69073 0.0
C7 C 0.79223 0.59496 0.76234 0.0
C8 C 0.83151 0.5613 0.93547 0.0
C9 C 0.86219 0.59912 0.02353 0.0
N10 N 0.8859 0.77033 0.94723 0.0
C11 C 0.88891 0.7044 0.02818 0.0
H12 H 0.9129 0.73265 0.09669 0.0
C13 C 0.85695 0.97395 0.71776 0.0
N14 N 0.86982 0.90385 0.7931 0.0
C15 C 0.82183 0.94421 0.62624 0.0
C16 C 0.79846 0.84177 0.61249 0.0
H17 H 0.87536 0.0533 0.72808 0.0
H18 H 0.77113 0.51431 0.75437 0.0
H19 H 0.12408 0.28101 0.90824 0.0
H20 H 0.81086 0.4797 0.93215 0.0
H21 H 0.86518 0.54721 0.08788 0.0
H22 H 0.75651 0.63758 0.61232 0.0
H23 H 0.16133 0.96036 0.27698 0.0
H24 H 0.22624 0.53401 0.07272 0.0
H25 H 0.1719 0.46645 0.91701 0.0
H26 H 0.28042 0.37618 0.39258 0.0
H27 H 0.81295 1.00026 0.56642 0.0
H28 H 0.77113 0.81886 0.54158 0.0
H29 H 0.26593 0.49944 0.2505 0.0
H30 H 0.22371 0.01344 0.43861 0.0
N31 N 0.15106 0.24335 0.0577 0.0
C32 C 0.20555 0.4524 0.06942 0.0
C33 C 0.17486 0.41456 0.98137 0.0
C34 C 0.21102 0.38454 0.15218 0.0
C35 C 0.18338 0.2791 0.1438 0.0
C36 C 0.14808 0.30927 0.97674 0.0
N37 N 0.16699 0.10984 0.21188 0.0
C38 C 0.19169 0.21009 0.22354 0.0
C39 C 0.21489 0.06949 0.37877 0.0
C40 C 0.23833 0.17196 0.39248 0.0
C41 C 0.17978 0.03973 0.28726 0.0
C42 C 0.22766 0.244 0.31421 0.0
H43 H 0.26565 0.19488 0.46338 0.0
O44 O 0.17636 1.00075 0.09132 0.0
O45 O 0.02181 0.93047 1.00117 0.0
O46 O 0.96726 0.91746 0.10968 0.0
O47 O 0.06516 0.05026 0.16388 0.0
O48 O 0.09484 0.90033 0.11231 0.0
O49 O 0.17177 0.12653 0.9804 0.0
O50 O 0.86041 0.01269 0.91369 0.0
O51 O 1.01506 0.08311 0.00349 0.0
O52 O 0.06967 0.09633 0.89529 0.0
O53 O 0.97167 0.96376 0.84091 0.0
O54 O 0.94192 0.11342 0.89297 0.0
O55 O 0.8652 0.88706 0.02474 0.0
C56 C 0.03905 0.85921 0.05217 0.0
C57 C 0.25307 0.34861 0.32345 0.0
C58 C 0.24478 0.41878 0.24255 0.0
C59 C 0.20159 0.06544 0.03051 0.0
C60 C 0.27091 0.111 0.06467 0.0
C61 C 0.30494 0.18287 0.13045 0.0
C62 C 0.30347 0.07956 0.03255 0.0
C63 C 0.36989 0.11803 0.06678 0.0
C64 C 0.37102 0.22272 0.16385 0.0
C65 C 0.40351 0.19069 0.13244 0.0
C66 C 1.01305 0.9774 0.17565 0.0
C67 C 0.99781 0.15448 0.95289 0.0
C68 C 0.83528 0.94801 0.9746 0.0
C69 C 0.76596 0.90228 0.94057 0.0
C70 C 0.73195 0.83033 0.87487 0.0
C71 C 0.73339 0.93367 0.97271 0.0
C72 C 0.66696 0.89505 0.93858 0.0
C73 C 0.66587 0.79033 0.84157 0.0
C74 C 0.63336 0.82231 0.873 0.0
C75 C 0.02382 0.03657 0.82922 0.0
H76 H 0.28056 0.20794 0.15591 0.0
H77 H 0.27695 0.02361 0.98188 0.0
H78 H 0.39716 0.27867 0.21424 0.0
H79 H 0.45467 0.22415 0.1585 0.0
H80 H 0.75634 0.8053 0.8494 0.0
H81 H 0.7599 0.98969 0.02332 0.0
H82 H 0.63975 0.73432 0.79125 0.0
H83 H 0.5822 0.78875 0.84702 0.0
H84 H 0.96003 0.90511 0.27355 0.0
C85 C 1.00391 0.9629 0.2659 0.0
H86 H 0.08916 0.08213 0.32794 0.0
H87 H 0.9895 0.17186 0.58886 0.0
H88 H 1.0079 0.32803 0.48294 0.0
H89 H 0.03892 0.34312 0.34889 0.0
H90 H 0.04917 0.20109 0.31758 0.0
C91 C 0.0464 0.02141 0.33634 0.0
C92 C 0.03309 0.01397 0.42228 0.0
C93 C 0.02806 0.09853 0.44013 0.0
C94 C 1.01238 0.0911 0.51945 0.0
C95 C 1.00411 0.17473 0.53235 0.0
C96 C 1.01386 0.26459 0.47142 0.0
C97 C 0.03097 0.27291 0.39563 0.0
C98 C 0.0372 0.19079 0.379 0.0
H99 H 0.07686 0.10893 0.73137 0.0
C100 C 0.03297 0.05117 0.73895 0.0
H101 H 0.9477 0.93202 0.67681 0.0
H102 H 0.0475 0.84236 0.41604 0.0
H103 H 0.02924 0.68626 0.52209 0.0
H104 H 0.99828 0.6712 0.6562 0.0
H105 H 0.9879 0.81316 0.68738 0.0
C106 C 0.99047 0.99273 0.66847 0.0
C107 C 1.00383 1.0002 0.58256 0.0
C108 C 1.00891 0.91566 0.56475 0.0
C109 C 0.02458 0.92308 0.48543 0.0
C110 C 0.03289 0.83948 0.47256 0.0
C111 C 0.02323 0.74968 0.53357 0.0
C112 C 1.00615 0.74137 0.60938 0.0
C113 C 0.99984 0.82345 0.62594 0.0
H114 H 0.37631 0.05247 0.96222 0.0
C115 C 0.40218 0.08191 0.03094 0.0
H116 H 0.48669 0.10505 0.15075 0.0
H117 H 0.48385 0.77 0.93634 0.0
H118 H 0.3911 0.65294 0.97564 0.0
H119 H 0.34371 0.71069 0.04864 0.0
H120 H 0.38848 0.88589 0.08215 0.0
C121 C 0.45981 0.07811 0.0812 0.0
C122 C 0.4899 0.04073 0.04186 0.0
C123 C 0.46371 0.93727 0.0244 0.0
C124 C 0.4918 0.90342 0.98404 0.0
C125 C 0.46449 0.79991 0.96685 0.0
C126 C 0.41131 0.73174 0.9893 0.0
C127 C 0.38458 0.76429 0.03026 0.0
C128 C 0.41048 0.8655 0.04834 0.0
H129 H 0.66054 0.96063 0.04312 0.0
C130 C 0.63466 0.93113 0.97442 0.0
H131 H 0.55012 0.90787 0.85464 0.0
H132 H 0.55295 0.24297 0.06901 0.0
H133 H 0.6457 0.36004 0.02969 0.0
H134 H 0.69307 0.3023 0.95665 0.0
H135 H 0.6483 0.1271 0.92314 0.0
C136 C 0.577 0.93486 0.92417 0.0
C137 C 0.54691 0.97224 0.96349 0.0
C138 C 0.57309 0.07571 0.98094 0.0
C139 C 0.545 0.10955 0.0213 0.0
C140 C 0.57231 0.21307 0.03849 0.0
C141 C 0.62548 0.28124 0.01602 0.0
C142 C 0.65221 0.24869 0.97505 0.0
C143 C 0.62631 0.14749 0.95698 0.0
H144 H 0.98375 0.74421 0.94951 0.0
C145 C 1.01783 0.75925 0.02046 0.0
H146 H 0.07942 0.70622 0.14388 0.0
H147 H 0.93686 0.24417 0.05688 0.0
H148 H 0.90192 0.23685 0.18122 0.0
H149 H 0.92613 0.39395 0.24132 0.0
H150 H 0.98553 0.55956 0.17723 0.0
C151 C 0.04537 0.69223 0.07264 0.0
C152 C 0.03098 0.59763 0.0358 0.0
C153 C 0.99809 0.50114 0.07602 0.0
C154 C 0.98503 0.41037 0.04232 0.0
C155 C 0.9496 0.31544 0.08117 0.0
C156 C 0.92878 0.31011 0.15222 0.0
C157 C 0.94236 0.39857 0.186 0.0
C158 C 0.97669 0.49311 0.1488 0.0
H159 H 0.05333 0.26933 0.05572 0.0
C160 C 0.01921 0.25442 0.98478 0.0
H161 H 0.95763 0.30766 0.86152 0.0
H162 H 0.10036 0.7696 0.94864 0.0
H163 H 0.1352 0.77694 0.82419 0.0
H164 H 0.11094 0.61983 0.76403 0.0
H165 H 0.05161 0.45422 0.82819 0.0
C166 C 0.99174 0.32156 0.93275 0.0
C167 C 1.00622 0.41614 0.96971 0.0
C168 C 0.03911 0.51263 0.92948 0.0
C169 C 0.05218 0.6034 0.9632 0.0
C170 C 0.0876 0.69834 0.92432 0.0
C171 C 0.10836 0.70367 0.85321 0.0
C172 C 0.09475 0.61521 0.8194 0.0
C173 C 0.06046 0.52067 0.85664 0.0
loop_
_geom_bond_atom_site_label_1
_geom_bond_atom_site_label_2
_geom_bond_distance
_geom_bond_site_symmetry_2
_ccdc_geom_bond_type
Gd0 N31 2.661 1_554 S
Gd0 N37 2.601 . S
Gd0 O44 2.545 . S
Gd0 O45 2.606 1_444 S
Gd0 O47 2.430 1_545 S
Gd0 O48 2.545 1_545 S
Gd0 O49 2.412 . S
Gd0 O51 2.362 . S
Gd0 O52 2.324 1_554 S
Gd0 C59 2.828 . S
Gd1 N10 2.661 1_556 S
Gd1 N14 2.601 . S
Gd1 O45 2.362 . S
Gd1 O46 2.324 1_556 S
Gd1 O50 2.545 . S
Gd1 O51 2.606 1_666 S
Gd1 O53 2.429 1_565 S
Gd1 O54 2.545 1_565 S
Gd1 O55 2.412 . S
Gd1 C68 2.828 . S
C2 C5 1.417 . S
C2 C7 1.431 . S
C2 C8 1.412 1_556 S
C3 C6 1.437 . S
C3 C7 1.317 . S
C3 H22 0.929 . S
C4 C5 1.426 . S
C4 C6 1.413 . S
C4 N14 1.359 . S
C5 C2 1.417 . S
C5 C4 1.426 . S
C5 N10 1.350 1_556 S
C6 C3 1.437 . S
C6 C4 1.413 . S
C6 C16 1.391 . S
C7 C2 1.431 . S
C7 C3 1.317 . S
C7 H18 0.930 . S
C8 C2 1.412 1_554 S
C8 C9 1.355 . S
C8 H20 0.930 . S
C9 C8 1.355 . S
C9 C11 1.402 . S
C9 H21 0.930 . S
N10 Gd1 2.661 1_554 S
N10 C5 1.350 1_554 S
N10 C11 1.307 . S
C11 C9 1.402 . S
C11 N10 1.307 . S
C11 H12 0.930 . S
H12 C11 0.930 . S
C13 N14 1.334 . S
C13 C15 1.394 . S
C13 H17 0.930 . S
N14 Gd1 2.601 . S
N14 C4 1.359 . S
N14 C13 1.334 . S
C15 C13 1.394 . S
C15 C16 1.359 . S
C15 H27 0.930 . S
C16 C6 1.391 . S
C16 C15 1.359 . S
C16 H28 0.929 . S
H17 C13 0.930 . S
H18 C7 0.930 . S
H19 C36 0.930 . S
H20 C8 0.930 . S
H21 C9 0.930 . S
H22 C3 0.929 . S
H23 C41 0.930 . S
H24 C32 0.930 . S
H25 C33 0.930 . S
H26 C57 0.929 . S
H27 C15 0.930 . S
H28 C16 0.929 . S
H29 C58 0.930 . S
H30 C39 0.930 . S
N31 Gd0 2.661 1_556 S
N31 C35 1.350 1_556 S
N31 C36 1.307 . S
C32 H24 0.930 . S
C32 C33 1.355 . S
C32 C34 1.412 1_556 S
C33 H25 0.930 . S
C33 C32 1.355 . S
C33 C36 1.402 . S
C34 C32 1.412 1_554 S
C34 C35 1.417 . S
C34 C58 1.431 . S
C35 N31 1.350 1_554 S
C35 C34 1.417 . S
C35 C38 1.426 . S
C36 H19 0.930 . S
C36 N31 1.307 . S
C36 C33 1.402 . S
N37 Gd0 2.601 . S
N37 C38 1.359 . S
N37 C41 1.334 . S
C38 C35 1.426 . S
C38 N37 1.359 . S
C38 C42 1.413 . S
C39 H30 0.930 . S
C39 C40 1.359 . S
C39 C41 1.394 . S
C40 C39 1.359 . S
C40 C42 1.391 . S
C40 H43 0.929 . S
C41 H23 0.930 . S
C41 N37 1.334 . S
C41 C39 1.394 . S
C42 C38 1.413 . S
C42 C40 1.391 . S
C42 C57 1.437 . S
H43 C40 0.929 . S
O44 Gd0 2.545 . S
O44 C59 1.258 . S
O45 Gd0 2.606 1_666 S
O45 Gd1 2.362 . S
O45 C56 1.284 1_656 S
O46 Gd1 2.324 1_554 S
O46 C66 1.254 1_655 S
O47 Gd0 2.430 1_565 S
O47 C66 1.264 . S
O48 Gd0 2.545 1_565 S
O48 C56 1.250 . S
O49 Gd0 2.412 . S
O49 C59 1.252 . S
O50 Gd1 2.545 . S
O50 C68 1.258 . S
O51 Gd0 2.362 . S
O51 Gd1 2.606 1_444 S
O51 C67 1.284 1_454 S
O52 Gd0 2.324 1_556 S
O52 C75 1.254 1_455 S
O53 Gd1 2.429 1_545 S
O53 C75 1.268 . S
O54 Gd1 2.545 1_545 S
O54 C67 1.250 . S
O55 Gd1 2.412 . S
O55 C68 1.252 . S
C56 O45 1.284 1_454 S
C56 O48 1.250 . S
C57 H26 0.929 . S
C57 C42 1.437 . S
C57 C58 1.317 . S
C58 H29 0.930 . S
C58 C34 1.431 . S
C58 C57 1.317 . S
C59 Gd0 2.828 . S
C59 O44 1.258 . S
C59 O49 1.252 . S
C59 C60 1.497 . S
C60 C59 1.497 . S
C60 C61 1.395 . S
C60 C62 1.380 . S
C61 C60 1.395 . S
C61 C64 1.398 . S
C61 H76 0.930 . S
C62 C60 1.380 . S
C62 C63 1.391 . S
C62 H77 0.930 1_554 S
C63 C62 1.391 . S
C63 C65 1.387 . S
C64 C61 1.398 . S
C64 C65 1.380 . S
C64 H78 0.930 . S
C65 C63 1.387 . S
C65 C64 1.380 . S
C65 H79 0.930 . S
C66 O46 1.254 1_455 S
C66 O47 1.264 . S
C67 O51 1.284 1_656 S
C67 O54 1.250 . S
C68 Gd1 2.828 . S
C68 O50 1.258 . S
C68 O55 1.252 . S
C68 C69 1.497 . S
C69 C68 1.497 . S
C69 C70 1.395 . S
C69 C71 1.380 . S
C70 C69 1.395 . S
C70 C73 1.398 . S
C70 H80 0.930 . S
C71 C69 1.380 . S
C71 C72 1.391 . S
C71 H81 0.930 1_556 S
C72 C71 1.391 . S
C72 C74 1.387 . S
C73 C70 1.398 . S
C73 C74 1.380 . S
C73 H82 0.930 . S
C74 C72 1.387 . S
C74 C73 1.380 . S
C74 H83 0.930 . S
C75 O52 1.254 1_655 S
C75 O53 1.268 . S
H76 C61 0.930 . S
H77 C62 0.930 1_556 S
H78 C64 0.930 . S
H79 C65 0.930 . S
H80 C70 0.930 . S
H81 C71 0.930 1_554 S
H82 C73 0.930 . S
H83 C74 0.930 . S
H84 C85 0.951 . S
C85 H84 0.951 . S
C85 C91 1.265 1_645 S
H86 C91 0.950 . S
H87 C95 0.949 . S
H88 C96 0.950 . S
H89 C97 0.951 . S
H90 C98 0.951 . S
C91 C85 1.265 1_465 S
C91 H86 0.950 . S
C91 C92 1.478 . S
C92 C91 1.478 . S
C92 C93 1.397 1_565 S
C92 C109 1.394 1_455 S
C93 C92 1.397 1_545 S
C93 C94 1.438 . S
C93 C98 1.429 . S
C94 C93 1.438 . S
C94 C95 1.428 . S
C94 C107 1.394 1_455 S
C95 H87 0.949 . S
C95 C94 1.428 . S
C95 C96 1.345 . S
C96 H88 0.950 . S
C96 C95 1.345 . S
C96 C97 1.424 . S
C97 H89 0.951 . S
C97 C96 1.424 . S
C97 C98 1.347 . S
C98 H90 0.951 . S
C98 C93 1.429 . S
C98 C97 1.347 . S
H99 C100 0.951 . S
C100 H99 0.951 . S
C100 C106 1.265 1_465 S
H101 C106 0.950 . S
H102 C110 0.949 . S
H103 C111 0.950 . S
H104 C112 0.951 . S
H105 C113 0.951 . S
C106 C100 1.265 1_645 S
C106 H101 0.950 . S
C106 C107 1.478 . S
C107 C94 1.394 1_655 S
C107 C106 1.478 . S
C107 C108 1.397 1_545 S
C108 C107 1.397 1_565 S
C108 C109 1.438 . S
C108 C113 1.429 . S
C109 C92 1.394 1_655 S
C109 C108 1.438 . S
C109 C110 1.428 . S
C110 H102 0.949 . S
C110 C109 1.428 . S
C110 C111 1.345 . S
C111 H103 0.950 . S
C111 C110 1.345 . S
C111 C112 1.424 . S
C112 H104 0.951 . S
C112 C111 1.424 . S
C112 C113 1.347 . S
C113 H105 0.951 . S
C113 C108 1.429 . S
C113 C112 1.347 . S
H114 C115 0.951 . S
C115 H114 0.951 . S
C115 C121 1.265 1_544 S
H116 C121 0.950 . S
H117 C125 0.949 . S
H118 C126 0.950 . S
H119 C127 0.951 . S
H120 C128 0.951 . S
C121 C115 1.265 1_566 S
C121 H116 0.950 . S
C121 C122 1.478 . S
C122 C121 1.478 . S
C122 C123 1.397 1_565 S
C122 C139 1.394 1_556 S
C123 C122 1.397 1_545 S
C123 C124 1.438 . S
C123 C128 1.429 . S
C124 C123 1.438 . S
C124 C125 1.428 . S
C124 C137 1.394 1_556 S
C125 H117 0.949 . S
C125 C124 1.428 . S
C125 C126 1.345 . S
C126 H118 0.950 . S
C126 C125 1.345 . S
C126 C127 1.424 . S
C127 H119 0.951 . S
C127 C126 1.424 . S
C127 C128 1.347 . S
C128 H120 0.951 . S
C128 C123 1.429 . S
C128 C127 1.347 . S
H129 C130 0.951 . S
C130 H129 0.951 . S
C130 C136 1.265 1_566 S
H131 C136 0.950 . S
H132 C140 0.949 . S
H133 C141 0.950 . S
H134 C142 0.951 . S
H135 C143 0.951 . S
C136 C130 1.265 1_544 S
C136 H131 0.950 . S
C136 C137 1.478 . S
C137 C124 1.394 1_554 S
C137 C136 1.478 . S
C137 C138 1.397 1_545 S
C138 C137 1.397 1_565 S
C138 C139 1.438 . S
C138 C143 1.429 . S
C139 C122 1.394 1_554 S
C139 C138 1.438 . S
C139 C140 1.428 . S
C140 H132 0.949 . S
C140 C139 1.428 . S
C140 C141 1.345 . S
C141 H133 0.950 . S
C141 C140 1.345 . S
C141 C142 1.424 . S
C142 H134 0.951 . S
C142 C141 1.424 . S
C142 C143 1.347 . S
C143 H135 0.951 . S
C143 C138 1.429 . S
C143 C142 1.347 . S
H144 C145 0.951 . S
C145 H144 0.951 . S
C145 C151 1.265 1_656 S
H146 C151 0.950 . S
H147 C155 0.949 . S
H148 C156 0.950 . S
H149 C157 0.951 . S
H150 C158 0.951 . S
C151 C145 1.265 1_454 S
C151 H146 0.950 . S
C151 C152 1.478 . S
C152 C151 1.478 . S
C152 C153 1.397 . S
C152 C169 1.394 1_454 S
C153 C152 1.397 . S
C153 C154 1.438 . S
C153 C158 1.429 . S
C154 C153 1.438 . S
C154 C155 1.428 . S
C154 C167 1.394 1_454 S
C155 H147 0.949 . S
C155 C154 1.428 . S
C155 C156 1.345 . S
C156 H148 0.950 . S
C156 C155 1.345 . S
C156 C157 1.424 . S
C157 H149 0.951 . S
C157 C156 1.424 . S
C157 C158 1.347 . S
C158 H150 0.951 . S
C158 C153 1.429 . S
C158 C157 1.347 . S
H159 C160 0.951 . S
C160 H159 0.951 . S
C160 C166 1.265 1_454 S
H161 C166 0.950 . S
H162 C170 0.949 . S
H163 C171 0.950 . S
H164 C172 0.951 . S
H165 C173 0.951 . S
C166 C160 1.265 1_656 S
C166 H161 0.950 . S
C166 C167 1.478 . S
C167 C154 1.394 1_656 S
C167 C166 1.478 . S
C167 C168 1.397 . S
C168 C167 1.397 . S
C168 C169 1.438 . S
C168 C173 1.429 . S
C169 C152 1.394 1_656 S
C169 C168 1.438 . S
C169 C170 1.428 . S
C170 H162 0.949 . S
C170 C169 1.428 . S
C170 C171 1.345 . S
C171 H163 0.950 . S
C171 C170 1.345 . S
C171 C172 1.424 . S
C172 H164 0.951 . S
C172 C171 1.424 . S
C172 C173 1.347 . S
C173 H165 0.951 . S
C173 C168 1.429 . S
C173 C172 1.347 . S
C85 C66 1.488 1_645 S
C100 C75 1.488 1_465 S
C115 C63 1.239 . S
C130 C72 1.239 . S
C145 C56 1.477 1_656 S
C160 C67 1.477 1_454 S
