# Generated by pormake.
# Topology acs, (6)-cn, num edge types: 1
# Building blocks:
#     Node 0, Type 0, BuildingBlock: IZENUY_clean_sbu_0, # of connection points: 6
#     Node 1, Type 0, BuildingBlock: IZENUY_clean_sbu_0, # of connection points: 6
#     Edge 2, Type (0, 0), BuildingBlock: TEMPAE_clean_linker_10, # of connection points: 2
#     Edge 3, Type (0, 0), BuildingBlock: TEMPAE_clean_linker_10, # of connection points: 2
#     Edge 4, Type (0, 0), BuildingBlock: TEMPAE_clean_linker_10, # of connection points: 2
#     Edge 5, Type (0, 0), BuildingBlock: TEMPAE_clean_linker_10, # of connection points: 2
#     Edge 6, Type (0, 0), BuildingBlock: TEMPAE_clean_linker_10, # of connection points: 2
#     Edge 7, Type (0, 0), BuildingBlock: TEMPAE_clean_linker_10, # of connection points: 2
# Relax obj value: 0.000
# Max RMSD: 0.012
# Mean RMSD: 0.012
data_MOF--net-acs--node1-IZENUY_clean_sbu_0--edge1-TEMPAE_clean_linker_10
_symmetry_space_group_name_H-M    P1
_symmetry_Int_Tables_number       1
_symmetry_cell_setting            triclinic
loop_
_symmetry_equiv_pos_as_xyz
'x, y, z'
_cell_length_a     21.742917
_cell_length_b     21.688582
_cell_length_c     20.005223
_cell_angle_alpha  90.019334
_cell_angle_beta   90.002243
_cell_angle_gamma 120.03762
loop_
_atom_site_label
_atom_site_type_symbol
_atom_site_fract_x
_atom_site_fract_y
_atom_site_fract_z
_atom_type_partial_charge
Fe0 Fe 0.60398 0.30587 0.2496 0.0
Fe1 Fe 0.74497 0.306 0.25026 0.0
O2 O 0.69798 0.35307 0.24981 0.0
Fe3 Fe 0.74498 0.4473 0.24957 0.0
O4 O 0.7045 0.45065 0.32785 0.0
O5 O 0.59525 0.37315 0.29788 0.0
O6 O 0.60071 0.26274 0.32835 0.0
C7 C 0.62851 0.22437 0.33698 0.0
C8 C 0.62893 0.41219 0.16225 0.0
O9 O 0.67782 0.23034 0.29898 0.0
C10 C 0.82688 0.42226 0.16324 0.0
O11 O 0.59555 0.22995 0.20129 0.0
O12 O 0.70497 0.26238 0.17171 0.0
O13 O 0.67812 0.45565 0.20041 0.0
O14 O 0.60103 0.34589 0.17084 0.0
C15 C 0.82631 0.4129 0.33709 0.0
O16 O 0.8207 0.37305 0.20165 0.0
O17 O 0.78858 0.45021 0.17126 0.0
C18 C 0.63883 0.22387 0.16332 0.0
O19 O 0.78805 0.34655 0.32881 0.0
O20 O 0.82038 0.45608 0.29868 0.0
C21 C 0.63831 0.42265 0.33602 0.0
Fe22 Fe 0.45807 0.73264 0.74954 0.0
Fe23 Fe 0.31721 0.7328 0.75035 0.0
O24 O 0.36407 0.6856 0.74983 0.0
Fe25 Fe 0.31693 0.59136 0.74958 0.0
O26 O 0.35742 0.58799 0.82786 0.0
O27 O 0.46669 0.66531 0.79784 0.0
O28 O 0.46158 0.77593 0.82826 0.0
C29 C 0.43375 0.81426 0.83709 0.0
C30 C 0.43281 0.62618 0.66222 0.0
O31 O 0.38439 0.80831 0.79917 0.0
C32 C 0.23517 0.61658 0.66324 0.0
O33 O 0.46664 0.80856 0.7012 0.0
O34 O 0.35725 0.7765 0.67186 0.0
O35 O 0.38367 0.58282 0.70043 0.0
O36 O 0.4608 0.69249 0.67079 0.0
C37 C 0.2357 0.62592 0.83709 0.0
O38 O 0.24146 0.66587 0.70164 0.0
O39 O 0.27334 0.58848 0.67129 0.0
C40 C 0.42339 0.81482 0.66331 0.0
O41 O 0.27405 0.69226 0.82886 0.0
O42 O 0.24158 0.58269 0.79869 0.0
C43 C 0.4236 0.61587 0.83601 0.0
C44 C 0.45223 0.93036 0.88015 0.0
C45 C 0.46539 0.87349 0.88591 0.0
C46 C 0.48314 0.98817 0.92441 0.0
C47 C 0.52743 0.98872 0.97648 0.0
C48 C 0.54074 0.93139 0.9829 0.0
C49 C 0.50997 0.87463 0.93716 0.0
C50 C 0.4683 0.04869 0.91545 0.0
C51 C 0.58678 0.92965 0.03851 0.0
C52 C 0.65147 0.16621 0.05972 0.0
C53 C 0.61124 0.16402 0.11535 0.0
C54 C 0.6251 0.10928 0.01414 0.0
C55 C 0.55767 0.04833 0.02542 0.0
C56 C 0.51758 0.04536 0.08227 0.0
C57 C 0.54451 0.10351 0.12613 0.0
C58 C 0.66874 0.11484 0.95337 0.0
C59 C 0.44601 0.98084 0.09666 0.0
H60 H 0.41841 0.93031 0.84031 0.0
H61 H 0.52021 0.83079 0.94195 0.0
H62 H 0.44051 0.05304 0.96015 0.0
H63 H 0.51898 0.09986 0.91054 0.0
H64 H 0.43506 0.04149 0.87072 0.0
H65 H 0.59234 0.88148 0.03629 0.0
H66 H 0.64047 0.97755 0.03598 0.0
H67 H 0.56367 0.93079 0.08764 0.0
H68 H 0.70302 0.21295 0.05122 0.0
H69 H 0.51357 0.1011 0.16958 0.0
H70 H 0.63883 0.11171 0.90733 0.0
H71 H 0.67884 0.06954 0.95204 0.0
H72 H 0.72056 0.16536 0.9524 0.0
H73 H 0.40817 0.97347 0.05605 0.0
H74 H 0.42329 0.98548 0.14487 0.0
H75 H 0.45071 0.93222 0.09813 0.0
C76 C 0.45422 0.52973 0.62162 0.0
C77 C 0.46432 0.59846 0.61356 0.0
C78 C 0.48518 0.50288 0.57748 0.0
C79 C 0.5262 0.54524 0.52314 0.0
C80 C 0.53637 0.61456 0.51443 0.0
C81 C 0.5058 0.64065 0.56016 0.0
C82 C 0.47391 0.42908 0.58901 0.0
C83 C 0.57875 0.66076 0.45636 0.0
C84 C 0.65189 0.49559 0.43806 0.0
C85 C 0.61036 0.45432 0.38425 0.0
C86 C 0.62538 0.52592 0.48363 0.0
C87 C 0.5563 0.51573 0.47431 0.0
C88 C 0.51467 0.47507 0.41946 0.0
C89 C 0.54192 0.44434 0.3755 0.0
C90 C 0.6708 0.56794 0.54225 0.0
C91 C 0.44117 0.46383 0.40725 0.0
H92 H 0.4229 0.49708 0.66321 0.0
H93 H 0.51362 0.69373 0.55365 0.0
H94 H 0.44506 0.39421 0.54599 0.0
H95 H 0.52592 0.43132 0.59267 0.0
H96 H 0.44313 0.40422 0.63527 0.0
H97 H 0.58209 0.71357 0.45692 0.0
H98 H 0.63341 0.66909 0.45735 0.0
H99 H 0.55408 0.63363 0.40857 0.0
H100 H 0.70475 0.50333 0.44509 0.0
H101 H 0.5098 0.41321 0.33355 0.0
H102 H 0.64335 0.54259 0.5897 0.0
H103 H 0.67884 0.62263 0.54171 0.0
H104 H 0.72362 0.57157 0.54199 0.0
H105 H 0.40585 0.43429 0.44974 0.0
H106 H 0.41701 0.43359 0.36054 0.0
H107 H 0.44336 0.51597 0.40407 0.0
C108 C 0.88591 0.49479 0.06097 0.0
C109 C 0.88634 0.45372 0.11488 0.0
C110 C 0.94265 0.52502 0.01535 0.0
C111 C 1.00163 0.51496 0.02471 0.0
C112 C 1.00274 0.47444 0.07962 0.0
C113 C 0.94485 0.4438 0.12363 0.0
C114 C 0.93909 0.56688 0.95667 0.0
C115 C 0.06508 0.46333 0.09187 0.0
C116 C 0.118 0.52925 0.87753 0.0
C117 C 0.17643 0.59806 0.88567 0.0
C118 C 0.06017 0.50228 0.9216 0.0
C119 C 0.06126 0.54458 0.97594 0.0
C120 C 0.12021 0.61397 0.98473 0.0
C121 C 0.17689 0.64018 0.93908 0.0
C122 C 0.99788 0.4284 0.90999 0.0
C123 C 0.12375 0.66013 0.0428 0.0
H124 H 0.84076 0.50248 0.05392 0.0
H125 H 0.94598 0.41281 0.16564 0.0
H126 H 0.98554 0.62166 0.95726 0.0
H127 H 0.94142 0.54157 0.90925 0.0
H128 H 0.88979 0.5703 0.95682 0.0
H129 H 0.05904 0.43306 0.13855 0.0
H130 H 0.07103 0.43387 0.04936 0.0
H131 H 0.1149 0.51551 0.09517 0.0
H132 H 0.11685 0.49665 0.83594 0.0
H133 H 0.22198 0.69331 0.94566 0.0
H134 H 0.94804 0.4305 0.90625 0.0
H135 H 0.99193 0.39358 0.95301 0.0
H136 H 1.00397 0.40358 0.86375 0.0
H137 H 0.07733 0.66832 0.04172 0.0
H138 H 0.17308 0.713 0.0423 0.0
H139 H 0.12135 0.63304 0.09059 0.0
C140 C 0.51993 0.93276 0.62293 0.0
C141 C 0.45114 0.87439 0.61492 0.0
C142 C 0.54699 0.99073 0.57886 0.0
C143 C 0.50478 0.98985 0.52464 0.0
C144 C 0.43535 0.93104 0.51604 0.0
C145 C 0.40907 0.87421 0.56171 0.0
C146 C 0.62089 0.05288 0.59029 0.0
C147 C 0.3893 0.92771 0.45811 0.0
C148 C 0.55587 0.16581 0.43926 0.0
C149 C 0.59665 0.16486 0.3854 0.0
C150 C 0.52526 0.10902 0.48495 0.0
C151 C 0.53463 0.04946 0.4757 0.0
C152 C 0.5748 0.04781 0.4208 0.0
C153 C 0.60585 0.10577 0.37674 0.0
C154 C 0.48381 0.11318 0.54362 0.0
C155 C 0.58515 0.98484 0.40865 0.0
H156 H 0.5525 0.93371 0.66438 0.0
H157 H 0.35595 0.82918 0.55523 0.0
H158 H 0.65549 0.05836 0.54729 0.0
H159 H 0.61924 0.10309 0.5938 0.0
H160 H 0.64555 0.04675 0.63658 0.0
H161 H 0.33629 0.87859 0.45888 0.0
H162 H 0.38172 0.97462 0.45905 0.0
H163 H 0.41599 0.92958 0.41025 0.0
H164 H 0.54873 0.21142 0.44621 0.0
H165 H 0.63658 0.10424 0.33475 0.0
H166 H 0.50905 0.11084 0.59104 0.0
H167 H 0.42903 0.06686 0.54321 0.0
H168 H 0.48081 0.16283 0.5433 0.0
H169 H 0.61448 0.97872 0.45111 0.0
H170 H 0.61508 0.99045 0.36189 0.0
H171 H 0.53284 0.93516 0.40558 0.0
C172 C 0.40991 0.54282 0.93796 0.0
C173 C 0.4515 0.58413 0.88422 0.0
C174 C 0.43634 0.51242 0.98351 0.0
C175 C 0.50541 0.52255 0.97426 0.0
C176 C 0.5471 0.56324 0.91947 0.0
C177 C 0.51992 0.59405 0.87553 0.0
C178 C 0.39085 0.47038 0.04205 0.0
C179 C 0.62058 0.57443 0.90733 0.0
C180 C 0.6074 0.50856 0.12167 0.0
C181 C 0.59734 0.43983 0.1136 0.0
C182 C 0.57645 0.53539 0.07751 0.0
C183 C 0.53546 0.49302 0.02313 0.0
C184 C 0.52531 0.42369 0.01441 0.0
C185 C 0.55586 0.39762 0.06017 0.0
C186 C 0.58771 0.60919 0.08907 0.0
C187 C 0.48296 0.37749 0.9563 0.0
H188 H 0.35706 0.53512 0.94495 0.0
H189 H 0.5521 0.62521 0.83364 0.0
H190 H 0.38283 0.41569 0.04149 0.0
H191 H 0.41825 0.49571 0.08955 0.0
H192 H 0.33804 0.46674 0.04172 0.0
H193 H 0.64478 0.60466 0.86063 0.0
H194 H 0.65589 0.60398 0.94985 0.0
H195 H 0.61838 0.52228 0.90414 0.0
H196 H 0.6387 0.54122 0.16329 0.0
H197 H 0.54806 0.34455 0.05365 0.0
H198 H 0.5357 0.60695 0.09265 0.0
H199 H 0.61661 0.64406 0.0461 0.0
H200 H 0.61843 0.63404 0.13538 0.0
H201 H 0.42832 0.3692 0.95721 0.0
H202 H 0.47958 0.32466 0.95688 0.0
H203 H 0.50769 0.40459 0.90854 0.0
C204 C 0.11739 0.59543 0.62348 0.0
C205 C 0.17573 0.58522 0.61485 0.0
C206 C 0.05949 0.56484 0.57946 0.0
C207 C 0.06044 0.52407 0.52466 0.0
C208 C 0.11926 0.51373 0.5154 0.0
C209 C 0.17601 0.54393 0.56103 0.0
C210 C 0.99732 0.57625 0.59158 0.0
C211 C 0.12263 0.4716 0.45684 0.0
C212 C 0.88503 0.39887 0.43921 0.0
C213 C 0.88557 0.44084 0.38567 0.0
C214 C 0.94172 0.42512 0.48487 0.0
C215 C 1.00077 0.49441 0.47593 0.0
C216 C 1.00195 0.53657 0.42145 0.0
C217 C 0.9441 0.50955 0.37739 0.0
C218 C 0.93809 0.37914 0.54309 0.0
C219 C 0.06435 0.61033 0.40969 0.0
H220 H 0.11639 0.6266 0.66541 0.0
H221 H 0.22103 0.53602 0.55407 0.0
H222 H 0.99144 0.60559 0.54895 0.0
H223 H 0.94741 0.52416 0.595 0.0
H224 H 1.00351 0.60675 0.63816 0.0
H225 H 0.17186 0.46805 0.45703 0.0
H226 H 0.07609 0.41688 0.45756 0.0
H227 H 0.1203 0.49677 0.40935 0.0
H228 H 0.83986 0.3458 0.4459 0.0
H229 H 0.9453 0.54203 0.33568 0.0
H230 H 0.94065 0.40647 0.59079 0.0
H231 H 0.9844 0.37077 0.54209 0.0
H232 H 0.88866 0.32635 0.54272 0.0
H233 H 0.07044 0.64534 0.45261 0.0
H234 H 0.05829 0.63504 0.36337 0.0
H235 H 0.1141 0.60806 0.40599 0.0
loop_
_geom_bond_atom_site_label_1
_geom_bond_atom_site_label_2
_geom_bond_distance
_geom_bond_site_symmetry_2
_ccdc_geom_bond_type
Fe0 O2 1.918 . S
Fe0 O5 1.997 . S
Fe0 O6 2.002 . S
Fe0 O11 1.976 . S
Fe0 O14 1.996 . S
Fe1 O2 1.918 . S
Fe1 O9 1.997 . S
Fe1 O12 1.996 . S
Fe1 O16 1.976 . S
Fe1 O19 2.002 . S
O2 Fe0 1.918 . S
O2 Fe1 1.918 . S
O2 Fe3 1.918 . S
Fe3 O2 1.918 . S
Fe3 O4 2.002 . S
Fe3 O13 1.976 . S
Fe3 O17 1.996 . S
Fe3 O20 1.997 . S
O4 Fe3 2.002 . S
O4 C21 1.295 . S
O5 Fe0 1.997 . S
O5 C21 1.235 . S
O6 Fe0 2.002 . S
O6 C7 1.295 . S
C7 O6 1.295 . S
C7 O9 1.235 . S
C8 O13 1.287 . S
C8 O14 1.255 . S
O9 Fe1 1.997 . S
O9 C7 1.235 . S
C10 O16 1.287 . S
C10 O17 1.255 . S
O11 Fe0 1.976 . S
O11 C18 1.287 . S
O12 Fe1 1.996 . S
O12 C18 1.255 . S
O13 Fe3 1.976 . S
O13 C8 1.287 . S
O14 Fe0 1.996 . S
O14 C8 1.255 . S
C15 O19 1.295 . S
C15 O20 1.235 . S
O16 Fe1 1.976 . S
O16 C10 1.287 . S
O17 Fe3 1.996 . S
O17 C10 1.255 . S
C18 O11 1.287 . S
C18 O12 1.255 . S
O19 Fe1 2.002 . S
O19 C15 1.295 . S
O20 Fe3 1.997 . S
O20 C15 1.235 . S
C21 O4 1.295 . S
C21 O5 1.235 . S
Fe22 O24 1.918 . S
Fe22 O27 1.997 . S
Fe22 O28 2.002 . S
Fe22 O33 1.976 . S
Fe22 O36 1.996 . S
Fe23 O24 1.918 . S
Fe23 O31 1.997 . S
Fe23 O34 1.996 . S
Fe23 O38 1.976 . S
Fe23 O41 2.002 . S
O24 Fe22 1.918 . S
O24 Fe23 1.918 . S
O24 Fe25 1.918 . S
Fe25 O24 1.918 . S
Fe25 O26 2.002 . S
Fe25 O35 1.976 . S
Fe25 O39 1.996 . S
Fe25 O42 1.997 . S
O26 Fe25 2.002 . S
O26 C43 1.295 . S
O27 Fe22 1.997 . S
O27 C43 1.235 . S
O28 Fe22 2.002 . S
O28 C29 1.295 . S
C29 O28 1.295 . S
C29 O31 1.235 . S
C30 O35 1.287 . S
C30 O36 1.255 . S
O31 Fe23 1.997 . S
O31 C29 1.235 . S
C32 O38 1.287 . S
C32 O39 1.255 . S
O33 Fe22 1.976 . S
O33 C40 1.287 . S
O34 Fe23 1.996 . S
O34 C40 1.255 . S
O35 Fe25 1.976 . S
O35 C30 1.287 . S
O36 Fe22 1.996 . S
O36 C30 1.255 . S
C37 O41 1.295 . S
C37 O42 1.235 . S
O38 Fe23 1.976 . S
O38 C32 1.287 . S
O39 Fe25 1.996 . S
O39 C32 1.255 . S
C40 O33 1.287 . S
C40 O34 1.255 . S
O41 Fe23 2.002 . S
O41 C37 1.295 . S
O42 Fe25 1.997 . S
O42 C37 1.235 . S
C43 O26 1.295 . S
C43 O27 1.235 . S
C44 C45 1.391 . S
C44 C46 1.394 . S
C44 H60 0.931 . S
C45 C44 1.391 . S
C45 C49 1.376 . S
C46 C44 1.394 . S
C46 C47 1.369 . S
C46 C50 1.531 1_556 S
C47 C46 1.369 . S
C47 C48 1.410 . S
C47 C55 1.503 1_566 S
C48 C47 1.410 . S
C48 C49 1.392 . S
C48 C51 1.511 1_565 S
C49 C45 1.376 . S
C49 C48 1.392 . S
C49 H61 0.929 . S
C50 C46 1.531 1_554 S
C50 H62 0.960 . S
C50 H63 0.962 . S
C50 H64 0.960 . S
C51 C48 1.511 1_545 S
C51 H65 0.961 . S
C51 H66 0.961 . S
C51 H67 0.961 1_545 S
C52 C53 1.370 . S
C52 C54 1.363 . S
C52 H68 0.931 . S
C53 C52 1.370 . S
C53 C57 1.408 . S
C54 C52 1.363 . S
C54 C55 1.370 . S
C54 C58 1.524 1_554 S
C55 C47 1.503 1_544 S
C55 C54 1.370 . S
C55 C56 1.403 . S
C56 C55 1.403 . S
C56 C57 1.404 . S
C56 C59 1.539 1_545 S
C57 C53 1.408 . S
C57 C56 1.404 . S
C57 H69 0.930 . S
C58 C54 1.524 1_556 S
C58 H70 0.956 . S
C58 H71 0.961 . S
C58 H72 0.961 . S
C59 C56 1.539 1_565 S
C59 H73 0.958 . S
C59 H74 0.961 . S
C59 H75 0.960 . S
H60 C44 0.931 . S
H61 C49 0.929 . S
H62 C50 0.960 . S
H63 C50 0.962 . S
H64 C50 0.960 . S
H65 C51 0.961 . S
H66 C51 0.961 . S
H67 C51 0.961 1_565 S
H68 C52 0.931 . S
H69 C57 0.930 . S
H70 C58 0.956 . S
H71 C58 0.961 . S
H72 C58 0.961 . S
H73 C59 0.958 . S
H74 C59 0.961 . S
H75 C59 0.960 . S
C76 C77 1.391 . S
C76 C78 1.394 . S
C76 H92 0.931 . S
C77 C76 1.391 . S
C77 C81 1.376 . S
C78 C76 1.394 . S
C78 C79 1.369 . S
C78 C82 1.531 . S
C79 C78 1.369 . S
C79 C80 1.410 . S
C79 C87 1.503 . S
C80 C79 1.410 . S
C80 C81 1.392 . S
C80 C83 1.511 . S
C81 C77 1.376 . S
C81 C80 1.392 . S
C81 H93 0.929 . S
C82 C78 1.531 . S
C82 H94 0.960 . S
C82 H95 0.962 . S
C82 H96 0.960 . S
C83 C80 1.511 . S
C83 H97 0.961 . S
C83 H98 0.961 . S
C83 H99 0.961 . S
C84 C85 1.370 . S
C84 C86 1.363 . S
C84 H100 0.931 . S
C85 C84 1.370 . S
C85 C89 1.408 . S
C86 C84 1.363 . S
C86 C87 1.370 . S
C86 C90 1.524 . S
C87 C79 1.503 . S
C87 C86 1.370 . S
C87 C88 1.403 . S
C88 C87 1.403 . S
C88 C89 1.404 . S
C88 C91 1.539 . S
C89 C85 1.408 . S
C89 C88 1.404 . S
C89 H101 0.930 . S
C90 C86 1.524 . S
C90 H102 0.956 . S
C90 H103 0.961 . S
C90 H104 0.961 . S
C91 C88 1.539 . S
C91 H105 0.958 . S
C91 H106 0.961 . S
C91 H107 0.960 . S
H92 C76 0.931 . S
H93 C81 0.929 . S
H94 C82 0.960 . S
H95 C82 0.962 . S
H96 C82 0.960 . S
H97 C83 0.961 . S
H98 C83 0.961 . S
H99 C83 0.961 . S
H100 C84 0.931 . S
H101 C89 0.930 . S
H102 C90 0.956 . S
H103 C90 0.961 . S
H104 C90 0.961 . S
H105 C91 0.958 . S
H106 C91 0.961 . S
H107 C91 0.960 . S
C108 C109 1.391 . S
C108 C110 1.394 . S
C108 H124 0.931 . S
C109 C108 1.391 . S
C109 C113 1.376 . S
C110 C108 1.394 . S
C110 C111 1.369 . S
C110 C114 1.531 1_554 S
C111 C110 1.369 . S
C111 C112 1.410 . S
C111 C119 1.503 1_654 S
C112 C111 1.410 . S
C112 C113 1.392 . S
C112 C115 1.511 1_655 S
C113 C109 1.376 . S
C113 C112 1.392 . S
C113 H125 0.929 . S
C114 C110 1.531 1_556 S
C114 H126 0.960 . S
C114 H127 0.962 . S
C114 H128 0.960 . S
C115 C112 1.511 1_455 S
C115 H129 0.961 . S
C115 H130 0.961 . S
C115 H131 0.961 . S
C116 C117 1.370 . S
C116 C118 1.363 . S
C116 H132 0.931 . S
C117 C116 1.370 . S
C117 C121 1.408 . S
C118 C116 1.363 . S
C118 C119 1.370 . S
C118 C122 1.524 1_455 S
C119 C111 1.503 1_456 S
C119 C118 1.370 . S
C119 C120 1.403 . S
C120 C119 1.403 . S
C120 C121 1.404 . S
C120 C123 1.539 1_556 S
C121 C117 1.408 . S
C121 C120 1.404 . S
C121 H133 0.930 . S
C122 C118 1.524 1_655 S
C122 H134 0.956 . S
C122 H135 0.961 . S
C122 H136 0.961 . S
C123 C120 1.539 1_554 S
C123 H137 0.958 . S
C123 H138 0.961 . S
C123 H139 0.960 . S
H124 C108 0.931 . S
H125 C113 0.929 . S
H126 C114 0.960 . S
H127 C114 0.962 . S
H128 C114 0.960 . S
H129 C115 0.961 . S
H130 C115 0.961 . S
H131 C115 0.961 . S
H132 C116 0.931 . S
H133 C121 0.930 . S
H134 C122 0.956 . S
H135 C122 0.961 . S
H136 C122 0.961 . S
H137 C123 0.958 . S
H138 C123 0.961 . S
H139 C123 0.960 . S
C140 C141 1.391 . S
C140 C142 1.394 . S
C140 H156 0.931 . S
C141 C140 1.391 . S
C141 C145 1.376 . S
C142 C140 1.394 . S
C142 C143 1.369 . S
C142 C146 1.531 1_565 S
C143 C142 1.369 . S
C143 C144 1.410 . S
C143 C151 1.503 1_565 S
C144 C143 1.410 . S
C144 C145 1.392 . S
C144 C147 1.511 . S
C145 C141 1.376 . S
C145 C144 1.392 . S
C145 H157 0.929 . S
C146 C142 1.531 1_545 S
C146 H158 0.960 . S
C146 H159 0.962 . S
C146 H160 0.960 . S
C147 C144 1.511 . S
C147 H161 0.961 . S
C147 H162 0.961 . S
C147 H163 0.961 . S
C148 C149 1.370 . S
C148 C150 1.363 . S
C148 H164 0.931 . S
C149 C148 1.370 . S
C149 C153 1.408 . S
C150 C148 1.363 . S
C150 C151 1.370 . S
C150 C154 1.524 . S
C151 C143 1.503 1_545 S
C151 C150 1.370 . S
C151 C152 1.403 . S
C152 C151 1.403 . S
C152 C153 1.404 . S
C152 C155 1.539 . S
C153 C149 1.408 . S
C153 C152 1.404 . S
C153 H165 0.930 . S
C154 C150 1.524 . S
C154 H166 0.956 . S
C154 H167 0.961 1_545 S
C154 H168 0.961 . S
C155 C152 1.539 . S
C155 H169 0.958 . S
C155 H170 0.961 . S
C155 H171 0.960 1_545 S
H156 C140 0.931 . S
H157 C145 0.929 . S
H158 C146 0.960 . S
H159 C146 0.962 . S
H160 C146 0.960 . S
H161 C147 0.961 . S
H162 C147 0.961 . S
H163 C147 0.961 . S
H164 C148 0.931 . S
H165 C153 0.930 . S
H166 C154 0.956 . S
H167 C154 0.961 1_565 S
H168 C154 0.961 . S
H169 C155 0.958 . S
H170 C155 0.961 . S
H171 C155 0.960 1_565 S
C172 C173 1.391 . S
C172 C174 1.394 . S
C172 H188 0.931 . S
C173 C172 1.391 . S
C173 C177 1.376 . S
C174 C172 1.394 . S
C174 C175 1.369 . S
C174 C178 1.531 . S
C175 C174 1.369 . S
C175 C176 1.410 . S
C175 C183 1.503 1_556 S
C176 C175 1.410 . S
C176 C177 1.392 . S
C176 C179 1.511 . S
C177 C173 1.376 . S
C177 C176 1.392 . S
C177 H189 0.929 . S
C178 C174 1.531 . S
C178 H190 0.960 . S
C178 H191 0.962 . S
C178 H192 0.960 . S
C179 C176 1.511 . S
C179 H193 0.961 . S
C179 H194 0.961 1_556 S
C179 H195 0.961 . S
C180 C181 1.370 . S
C180 C182 1.363 . S
C180 H196 0.931 . S
C181 C180 1.370 . S
C181 C185 1.408 . S
C182 C180 1.363 . S
C182 C183 1.370 . S
C182 C186 1.524 . S
C183 C175 1.503 1_554 S
C183 C182 1.370 . S
C183 C184 1.403 1_554 S
C184 C183 1.403 1_556 S
C184 C185 1.404 1_556 S
C184 C187 1.539 . S
C185 C181 1.408 . S
C185 C184 1.404 1_554 S
C185 H197 0.930 . S
C186 C182 1.524 . S
C186 H198 0.956 . S
C186 H199 0.961 . S
C186 H200 0.961 . S
C187 C184 1.539 . S
C187 H201 0.958 . S
C187 H202 0.961 . S
C187 H203 0.960 . S
H188 C172 0.931 . S
H189 C177 0.929 . S
H190 C178 0.960 . S
H191 C178 0.962 . S
H192 C178 0.960 . S
H193 C179 0.961 . S
H194 C179 0.961 1_554 S
H195 C179 0.961 . S
H196 C180 0.931 . S
H197 C185 0.930 . S
H198 C186 0.956 . S
H199 C186 0.961 . S
H200 C186 0.961 . S
H201 C187 0.958 . S
H202 C187 0.961 . S
H203 C187 0.960 . S
C204 C205 1.391 . S
C204 C206 1.394 . S
C204 H220 0.931 . S
C205 C204 1.391 . S
C205 C209 1.376 . S
C206 C204 1.394 . S
C206 C207 1.369 . S
C206 C210 1.531 . S
C207 C206 1.369 . S
C207 C208 1.410 . S
C207 C215 1.503 1_455 S
C208 C207 1.410 . S
C208 C209 1.392 . S
C208 C211 1.511 . S
C209 C205 1.376 . S
C209 C208 1.392 . S
C209 H221 0.929 . S
C210 C206 1.531 . S
C210 H222 0.960 . S
C210 H223 0.962 1_455 S
C210 H224 0.960 . S
C211 C208 1.511 . S
C211 H225 0.961 . S
C211 H226 0.971 . S
C211 H227 0.961 . S
C212 C213 1.370 . S
C212 C214 1.363 . S
C212 H228 0.931 . S
C213 C212 1.370 . S
C213 C217 1.408 . S
C214 C212 1.363 . S
C214 C215 1.370 . S
C214 C218 1.524 . S
C215 C207 1.503 1_655 S
C215 C214 1.370 . S
C215 C216 1.403 . S
C216 C215 1.403 . S
C216 C217 1.404 . S
C216 C219 1.539 1_655 S
C217 C213 1.408 . S
C217 C216 1.404 . S
C217 H229 0.930 . S
C218 C214 1.524 . S
C218 H230 0.956 . S
C218 H231 0.961 . S
C218 H232 0.961 . S
C219 C216 1.539 1_455 S
C219 H233 0.958 . S
C219 H234 0.961 . S
C219 H235 0.960 . S
H220 C204 0.931 . S
H221 C209 0.929 . S
H222 C210 0.960 . S
H223 C210 0.962 1_655 S
H224 C210 0.960 . S
H225 C211 0.961 . S
H226 C211 0.971 . S
H227 C211 0.961 . S
H228 C212 0.931 . S
H229 C217 0.930 . S
H230 C218 0.956 . S
H231 C218 0.961 . S
H232 C218 0.961 . S
H233 C219 0.958 . S
H234 C219 0.961 . S
H235 C219 0.960 . S
C45 C29 1.494 . S
C53 C18 1.495 . S
C77 C30 1.497 . S
C85 C21 1.485 . S
C109 C10 1.488 . S
C117 C37 1.492 . S
C141 C40 1.496 . S
C149 C7 1.486 . S
C173 C43 1.469 . S
C181 C8 1.500 . S
C205 C32 1.499 . S
C213 C15 1.481 . S
