# Generated by pormake.
# Topology uni, (4)-cn, num edge types: 1
# Building blocks:
#     Node 0, Type 0, BuildingBlock: GALJAG_clean_sbu_0, # of connection points: 4
#     Node 1, Type 0, BuildingBlock: GALJAG_clean_sbu_0, # of connection points: 4
#     Node 2, Type 0, BuildingBlock: GALJAG_clean_sbu_0, # of connection points: 4
#     Node 3, Type 0, BuildingBlock: GALJAG_clean_sbu_0, # of connection points: 4
#     Node 4, Type 0, BuildingBlock: GALJAG_clean_sbu_0, # of connection points: 4
#     Node 5, Type 0, BuildingBlock: GALJAG_clean_sbu_0, # of connection points: 4
#     Edge 6, Type (0, 0), BuildingBlock: AJUNOK_clean_linker_0, # of connection points: 2
#     Edge 7, Type (0, 0), BuildingBlock: AJUNOK_clean_linker_0, # of connection points: 2
#     Edge 8, Type (0, 0), BuildingBlock: AJUNOK_clean_linker_0, # of connection points: 2
#     Edge 9, Type (0, 0), BuildingBlock: AJUNOK_clean_linker_0, # of connection points: 2
#     Edge 10, Type (0, 0), BuildingBlock: AJUNOK_clean_linker_0, # of connection points: 2
#     Edge 11, Type (0, 0), BuildingBlock: AJUNOK_clean_linker_0, # of connection points: 2
#     Edge 12, Type (0, 0), BuildingBlock: AJUNOK_clean_linker_0, # of connection points: 2
#     Edge 13, Type (0, 0), BuildingBlock: AJUNOK_clean_linker_0, # of connection points: 2
#     Edge 14, Type (0, 0), BuildingBlock: AJUNOK_clean_linker_0, # of connection points: 2
#     Edge 15, Type (0, 0), BuildingBlock: AJUNOK_clean_linker_0, # of connection points: 2
#     Edge 16, Type (0, 0), BuildingBlock: AJUNOK_clean_linker_0, # of connection points: 2
#     Edge 17, Type (0, 0), BuildingBlock: AJUNOK_clean_linker_0, # of connection points: 2
# Relax obj value: 0.070
# Max RMSD: 0.134
# Mean RMSD: 0.134
data_MOF--net-uni--node1-GALJAG_clean_sbu_0--edge1-AJUNOK_clean_linker_0
_symmetry_space_group_name_H-M    P1
_symmetry_Int_Tables_number       1
_symmetry_cell_setting            triclinic
loop_
_symmetry_equiv_pos_as_xyz
'x, y, z'
_cell_length_a     27.618025
_cell_length_b     27.723247
_cell_length_c     18.664958
_cell_angle_alpha  89.963806
_cell_angle_beta   90.068693
_cell_angle_gamma 120.20487
loop_
_atom_site_label
_atom_site_type_symbol
_atom_site_fract_x
_atom_site_fract_y
_atom_site_fract_z
_atom_type_partial_charge
In0 In 0.63403 0.01659 0.05747 0.0
O1 O 0.61605 0.99432 0.93871 0.0
O2 O 0.56406 0.01784 0.99381 0.0
C3 C 0.6456 0.92908 0.09589 0.0
C4 C 0.73222 0.10888 0.02361 0.0
C5 C 0.57906 0.01996 0.17546 0.0
O6 O 0.61341 0.92661 0.04616 0.0
O7 O 0.67317 0.97634 0.12525 0.0
O8 O 0.62707 0.05965 0.15901 0.0
O9 O 0.55903 0.97986 0.13184 0.0
C10 C 0.57544 1.00296 0.93541 0.0
O11 O 0.68791 0.11008 0.03585 0.0
O12 O 0.72728 0.06136 0.03032 0.0
In13 In 0.63602 0.62989 0.22729 0.0
O14 O 0.63768 0.58955 0.11984 0.0
O15 O 0.5596 0.57417 0.16124 0.0
C16 C 0.73328 0.63202 0.25541 0.0
C17 C 0.64248 0.72788 0.19195 0.0
C18 C 0.57445 0.58871 0.3478 0.0
O19 O 0.73075 0.66651 0.21363 0.0
O20 O 0.68664 0.59552 0.28023 0.0
O21 O 0.60945 0.64002 0.34038 0.0
O22 O 0.57037 0.55905 0.29453 0.0
C23 C 0.58527 0.56657 0.11081 0.0
O24 O 0.60733 0.68157 0.16556 0.0
O25 O 0.67454 0.72518 0.23795 0.0
In26 In 0.02718 0.62864 0.38273 0.0
O27 O 0.07561 0.61044 0.29641 0.0
O28 O 0.98696 0.56539 0.2929 0.0
C29 C 0.10783 0.73252 0.42161 0.0
C30 C 0.93832 0.64068 0.35114 0.0
C31 C 0.02544 0.56583 0.49483 0.0
O32 O 0.10348 0.71417 0.35867 0.0
O33 O 0.07059 0.69915 0.46418 0.0
O34 O 0.98508 0.57328 0.48026 0.0
O35 O 0.06583 0.58836 0.45142 0.0
C36 C 0.03203 0.57506 0.2639 0.0
O37 O 0.93601 0.60526 0.39561 0.0
O38 O 0.98636 0.67196 0.32497 0.0
In39 In 0.40983 0.01619 0.55812 0.0
O40 O 0.33238 0.93024 0.57452 0.0
O41 O 0.3336 0.97773 0.4844 0.0
C42 C 0.45807 0.99974 0.67515 0.0
C43 C 0.46547 0.0192 0.43806 0.0
C44 C 0.40771 0.10986 0.59327 0.0
O45 O 0.41088 0.99639 0.67698 0.0
O46 O 0.48035 0.01019 0.61406 0.0
O47 O 0.45198 0.11053 0.57501 0.0
O48 O 0.36437 0.06223 0.59152 0.0
C49 C 0.30757 0.93258 0.51888 0.0
O50 O 0.46537 0.06192 0.46149 0.0
O51 O 0.43877 0.97599 0.47598 0.0
In52 In 0.41635 0.40847 0.72493 0.0
O53 O 0.45764 0.35784 0.69332 0.0
O54 O 0.36993 0.31387 0.71004 0.0
C55 C 0.47537 0.45975 0.84382 0.0
C56 C 0.45961 0.47454 0.60808 0.0
C57 C 0.31423 0.39046 0.7626 0.0
O58 O 0.47913 0.42082 0.81416 0.0
O59 O 0.44376 0.4735 0.81223 0.0
O60 O 0.33606 0.41085 0.70259 0.0
O61 O 0.34303 0.37758 0.8022 0.0
C62 C 0.41268 0.31145 0.69246 0.0
O63 O 0.41607 0.42706 0.60593 0.0
O64 O 0.48085 0.48929 0.66958 0.0
In65 In 0.02543 0.40394 0.88274 0.0
O66 O 0.11061 0.41352 0.90667 0.0
O67 O 0.06883 0.37015 0.81156 0.0
C68 C 0.03496 0.46784 0.99769 0.0
C69 C 0.0258 0.456 0.76004 0.0
C70 C 0.93352 0.30627 0.92125 0.0
O71 O 0.06251 0.44308 0.99209 0.0
O72 O 1.00453 0.4621 0.94436 0.0
O73 O 0.93125 0.34786 0.89872 0.0
O74 O 0.98221 0.31317 0.92259 0.0
C75 C 0.11183 0.38849 0.85081 0.0
O76 O 0.98624 0.40816 0.77669 0.0
O77 O 0.0646 0.47808 0.80586 0.0
C78 C 0.5667 0.06871 0.28102 0.0
C79 C 0.54906 0.01937 0.24152 0.0
C80 C 0.539 0.06865 0.34414 0.0
C81 C 0.49347 0.01904 0.37066 0.0
H82 H 0.602 0.10772 0.26294 0.0
H83 H 0.55393 0.10752 0.37294 0.0
S84 S 0.43006 0.87892 0.28672 0.0
N85 N 0.48218 0.91979 0.23296 0.0
N86 N 0.43105 0.91964 0.35183 0.0
C87 C 0.47533 0.96953 0.33161 0.0
C88 C 0.50287 0.9697 0.26696 0.0
C89 C 0.49582 0.5096 0.41239 0.0
C90 C 0.54266 0.56381 0.41444 0.0
C91 C 0.46787 0.48214 0.47515 0.0
C92 C 0.48611 0.50749 0.54262 0.0
H93 H 0.48116 0.48763 0.36192 0.0
H94 H 0.43285 0.4399 0.47075 0.0
S95 S 0.60468 0.65045 0.57693 0.0
N96 N 0.60432 0.6432 0.48908 0.0
N97 N 0.55223 0.59122 0.6075 0.0
C98 C 0.53176 0.56248 0.54535 0.0
C99 C 0.55989 0.59075 0.48113 0.0
C100 C 0.9763 0.47126 0.65803 0.0
C101 C 0.02681 0.48354 0.69174 0.0
C102 C 0.97622 0.49776 0.59398 0.0
C103 C 0.02664 0.53633 0.56034 0.0
H104 H 0.93651 0.4418 0.68207 0.0
H105 H 0.93634 0.4879 0.57062 0.0
S106 S 0.17019 0.58101 0.62537 0.0
N107 N 0.12852 0.536 0.6862 0.0
N108 N 0.12844 0.5846 0.56486 0.0
C109 C 0.07743 0.54795 0.59267 0.0
C110 C 0.07749 0.52191 0.65867 0.0
C111 C 0.49432 0.99926 0.87103 0.0
C112 C 0.54461 0.99807 0.8683 0.0
C113 C 0.46572 0.99791 0.80833 0.0
C114 C 0.48662 0.99597 0.74035 0.0
H115 H 0.4771 1.00187 0.92203 0.0
H116 H 0.42768 0.99988 0.81326 0.0
S117 S 0.61554 0.98989 0.70378 0.0
N118 N 0.61311 0.99272 0.79197 0.0
N119 N 0.5597 0.99085 0.67406 0.0
C120 C 0.53625 0.99354 0.73681 0.0
C121 C 0.56513 0.99439 0.80078 0.0
C122 C 0.58191 0.51838 0.99525 0.0
C123 C 0.55619 0.53709 0.04425 0.0
C124 C 0.55518 0.49217 0.9308 0.0
C125 C 0.50262 0.48525 0.9126 0.0
H126 H 0.62289 0.524 1.00674 0.0
H127 H 0.57629 0.47843 0.89433 0.0
S128 S 0.41675 0.52524 0.02297 0.0
N129 N 0.47408 0.54502 0.07063 0.0
N130 N 0.42499 0.49727 0.94934 0.0
C131 C 0.47637 0.50335 0.96127 0.0
C132 C 0.50286 0.52888 0.02717 0.0
C133 C 0.07919 0.51585 0.11338 0.0
C134 C 0.03503 0.49755 0.06362 0.0
C135 C 0.07859 0.54179 0.17776 0.0
C136 C 0.03309 0.54895 0.19532 0.0
H137 H 0.1145 0.51011 0.10252 0.0
H138 H 0.11338 0.5553 0.21461 0.0
S139 S 0.90751 0.50916 0.08299 0.0
N140 N 0.94523 0.48964 0.03579 0.0
N141 N 0.94347 0.53696 0.15714 0.0
C142 C 0.98885 0.53105 0.1459 0.0
C143 C 0.98999 0.50576 0.07992 0.0
C144 C 0.60764 0.77824 0.11661 0.0
C145 C 0.64551 0.78045 0.16884 0.0
C146 C 0.60883 0.82663 0.09273 0.0
C147 C 0.64781 0.87936 0.1202 0.0
H148 H 0.57648 0.73867 0.09387 0.0
H149 H 0.57834 0.82241 0.05294 0.0
S150 S 0.75736 0.90847 0.25629 0.0
N151 N 0.72414 0.84001 0.24622 0.0
N152 N 0.72623 0.93126 0.20151 0.0
C153 C 0.68637 0.88245 0.17202 0.0
C154 C 0.68526 0.83295 0.19629 0.0
C155 C 0.83506 0.60257 0.35588 0.0
C156 C 0.88752 0.64156 0.32727 0.0
C157 C 0.78565 0.59958 0.33156 0.0
C158 C 0.78653 0.63554 0.27769 0.0
H159 H 0.83188 0.57358 0.39709 0.0
H160 H 0.74641 0.5688 0.35558 0.0
S161 S 0.91303 0.74541 0.18501 0.0
N162 N 0.93745 0.71715 0.24193 0.0
N163 N 0.84445 0.71169 0.19649 0.0
C164 C 0.8387 0.67502 0.24875 0.0
C165 C 0.88918 0.67801 0.27349 0.0
C166 C 0.17105 0.79416 0.51844 0.0
C167 C 0.15574 0.78634 0.4456 0.0
C168 C 0.21966 0.84214 0.5419 0.0
C169 C 0.25414 0.88463 0.49367 0.0
H170 H 0.14644 0.76206 0.55737 0.0
H171 H 0.23066 0.84561 0.59815 0.0
S172 S 0.2307 0.88597 0.29798 0.0
N173 N 0.17774 0.82599 0.32578 0.0
N174 N 0.2684 0.91679 0.37005 0.0
C175 C 0.23816 0.87832 0.4211 0.0
C176 C 0.18917 0.82899 0.39702 0.0
C177 C 0.45888 0.26064 0.64374 0.0
C178 C 0.41016 0.25915 0.66901 0.0
C179 C 0.4575 0.2123 0.61874 0.0
C180 C 0.40735 0.1605 0.61797 0.0
H181 H 0.49849 0.29955 0.6428 0.0
H182 H 0.49618 0.21567 0.59997 0.0
S183 S 0.26811 0.13379 0.67937 0.0
N184 N 0.31029 0.2013 0.69235 0.0
N185 N 0.30769 0.11051 0.64543 0.0
C186 C 0.35829 0.15832 0.64328 0.0
C187 C 0.3597 0.20759 0.66881 0.0
C188 C 0.17148 0.37901 0.75775 0.0
C189 C 0.16147 0.38459 0.83035 0.0
C190 C 0.22077 0.38029 0.73619 0.0
C191 C 0.26107 0.38579 0.78664 0.0
H192 H 0.1419 0.37545 0.71697 0.0
H193 H 0.2275 0.37726 0.67959 0.0
S194 S 0.25389 0.39979 0.98349 0.0
N195 N 0.19547 0.39488 0.95278 0.0
N196 N 0.28727 0.39571 0.91251 0.0
C197 C 0.25081 0.38974 0.85958 0.0
C198 C 0.20122 0.38959 0.88137 0.0
C199 C 0.83227 0.25455 0.95451 0.0
C200 C 0.88319 0.255 0.94706 0.0
C201 C 0.78409 0.20747 0.98041 0.0
C202 C 0.78469 0.15868 0.99942 0.0
H203 H 0.82951 0.29105 0.94061 0.0
H204 H 0.74591 0.20925 0.9848 0.0
S205 S 0.90743 0.13814 0.99035 0.0
N206 N 0.93146 0.20251 0.96136 0.0
N207 N 0.84071 0.11371 0.00942 0.0
C208 C 0.83532 0.15845 0.99233 0.0
C209 C 0.88459 0.20665 0.96633 0.0
loop_
_geom_bond_atom_site_label_1
_geom_bond_atom_site_label_2
_geom_bond_distance
_geom_bond_site_symmetry_2
_ccdc_geom_bond_type
In0 O1 2.294 1_544 S
In0 O2 2.326 1_554 S
In0 O6 2.266 1_545 S
In0 O7 2.326 1_545 S
In0 O8 2.266 . S
In0 O9 2.326 1_545 S
In0 O11 2.294 . S
In0 O12 2.326 1_554 S
O1 In0 2.294 1_566 S
O1 C10 1.240 1_565 S
O2 In0 2.326 1_556 S
O2 C10 1.252 . S
C3 O6 1.252 . S
C3 O7 1.260 . S
C4 O11 1.240 1_556 S
C4 O12 1.252 . S
C5 O8 1.246 1_565 S
C5 O9 1.269 . S
O6 In0 2.266 1_565 S
O6 C3 1.252 . S
O7 In0 2.326 1_565 S
O7 C3 1.260 . S
O8 In0 2.266 . S
O8 C5 1.246 1_545 S
O9 In0 2.326 1_565 S
O9 C5 1.269 . S
C10 O1 1.240 1_545 S
C10 O2 1.252 . S
O11 In0 2.294 . S
O11 C4 1.240 1_554 S
O12 In0 2.326 1_556 S
O12 C4 1.252 . S
In13 O14 2.294 . S
In13 O15 2.326 . S
In13 O19 2.266 . S
In13 O20 2.326 . S
In13 O21 2.266 . S
In13 O22 2.326 . S
In13 O24 2.294 . S
In13 O25 2.326 . S
O14 In13 2.294 . S
O14 C23 1.240 . S
O15 In13 2.326 . S
O15 C23 1.252 . S
C16 O19 1.252 . S
C16 O20 1.260 . S
C17 O24 1.240 . S
C17 O25 1.252 . S
C18 O21 1.252 . S
C18 O22 1.260 . S
O19 In13 2.266 . S
O19 C16 1.252 . S
O20 In13 2.326 . S
O20 C16 1.260 . S
O21 In13 2.266 . S
O21 C18 1.252 . S
O22 In13 2.326 . S
O22 C18 1.260 . S
C23 O14 1.240 . S
C23 O15 1.252 . S
O24 In13 2.294 . S
O24 C17 1.240 . S
O25 In13 2.326 . S
O25 C17 1.252 . S
In26 O27 2.294 . S
In26 O28 2.326 1_455 S
In26 O32 2.266 . S
In26 O33 2.326 . S
In26 O34 2.266 1_455 S
In26 O35 2.326 . S
In26 O37 2.294 1_455 S
In26 O38 2.326 1_455 S
O27 In26 2.294 . S
O27 C36 1.240 . S
O28 In26 2.326 1_655 S
O28 C36 1.252 1_655 S
C29 O32 1.252 . S
C29 O33 1.260 . S
C30 O37 1.240 . S
C30 O38 1.252 . S
C31 O34 1.252 1_455 S
C31 O35 1.260 . S
O32 In26 2.266 . S
O32 C29 1.252 . S
O33 In26 2.326 . S
O33 C29 1.260 . S
O34 In26 2.266 1_655 S
O34 C31 1.252 1_655 S
O35 In26 2.326 . S
O35 C31 1.260 . S
C36 O27 1.240 . S
C36 O28 1.252 1_455 S
O37 In26 2.294 1_655 S
O37 C30 1.240 . S
O38 In26 2.326 1_655 S
O38 C30 1.252 . S
In39 O40 2.294 1_545 S
In39 O41 2.326 1_545 S
In39 O45 2.266 1_545 S
In39 O46 2.326 . S
In39 O47 2.266 . S
In39 O48 2.326 . S
In39 O50 2.294 . S
In39 O51 2.326 1_545 S
O40 In39 2.294 1_565 S
O40 C49 1.240 . S
O41 In39 2.326 1_565 S
O41 C49 1.252 . S
C42 O45 1.252 1_545 S
C42 O46 1.260 . S
C43 O50 1.240 1_565 S
C43 O51 1.252 . S
C44 O47 1.252 . S
C44 O48 1.260 . S
O45 In39 2.266 1_565 S
O45 C42 1.252 1_565 S
O46 In39 2.326 . S
O46 C42 1.260 . S
O47 In39 2.266 . S
O47 C44 1.252 . S
O48 In39 2.326 . S
O48 C44 1.260 . S
C49 O40 1.240 . S
C49 O41 1.252 . S
O50 In39 2.294 . S
O50 C43 1.240 1_545 S
O51 In39 2.326 1_565 S
O51 C43 1.252 . S
In52 O53 2.294 . S
In52 O54 2.326 . S
In52 O58 2.266 . S
In52 O59 2.326 . S
In52 O60 2.266 . S
In52 O61 2.326 . S
In52 O63 2.294 . S
In52 O64 2.326 . S
O53 In52 2.294 . S
O53 C62 1.240 . S
O54 In52 2.326 . S
O54 C62 1.252 . S
C55 O58 1.252 . S
C55 O59 1.260 . S
C56 O63 1.240 . S
C56 O64 1.252 . S
C57 O60 1.252 . S
C57 O61 1.260 . S
O58 In52 2.266 . S
O58 C55 1.252 . S
O59 In52 2.326 . S
O59 C55 1.260 . S
O60 In52 2.266 . S
O60 C57 1.252 . S
O61 In52 2.326 . S
O61 C57 1.260 . S
C62 O53 1.240 . S
C62 O54 1.252 . S
O63 In52 2.294 . S
O63 C56 1.240 . S
O64 In52 2.326 . S
O64 C56 1.252 . S
In65 O66 2.294 . S
In65 O67 2.326 . S
In65 O71 2.266 . S
In65 O72 2.326 1_455 S
In65 O73 2.266 1_455 S
In65 O74 2.326 1_455 S
In65 O76 2.294 1_455 S
In65 O77 2.326 . S
O66 In65 2.294 . S
O66 C75 1.240 . S
O67 In65 2.326 . S
O67 C75 1.252 . S
C68 O71 1.252 . S
C68 O72 1.260 1_455 S
C69 O76 1.240 1_455 S
C69 O77 1.252 . S
C70 O73 1.252 . S
C70 O74 1.260 . S
O71 In65 2.266 . S
O71 C68 1.252 . S
O72 In65 2.326 1_655 S
O72 C68 1.260 1_655 S
O73 In65 2.266 1_655 S
O73 C70 1.252 . S
O74 In65 2.326 1_655 S
O74 C70 1.260 . S
C75 O66 1.240 . S
C75 O67 1.252 . S
O76 In65 2.294 1_655 S
O76 C69 1.240 1_655 S
O77 In65 2.326 . S
O77 C69 1.252 . S
C78 C79 1.369 1_545 S
C78 C80 1.419 . S
C78 H82 0.930 . S
C79 C78 1.369 1_565 S
C79 C88 1.429 . S
C80 C78 1.419 . S
C80 C81 1.363 1_545 S
C80 H83 0.929 . S
C81 C80 1.363 1_565 S
C81 C87 1.428 . S
H82 C78 0.930 . S
H83 C80 0.929 . S
S84 N85 1.613 . S
S84 N86 1.610 . S
N85 S84 1.613 . S
N85 C88 1.350 . S
N86 S84 1.610 . S
N86 C87 1.351 . S
C87 C81 1.428 . S
C87 N86 1.351 . S
C87 C88 1.434 . S
C88 C79 1.429 . S
C88 N85 1.350 . S
C88 C87 1.434 . S
C89 C90 1.369 . S
C89 C91 1.419 . S
C89 H93 0.930 . S
C90 C89 1.369 . S
C90 C99 1.429 . S
C91 C89 1.419 . S
C91 C92 1.363 . S
C91 H94 0.929 . S
C92 C91 1.363 . S
C92 C98 1.428 . S
H93 C89 0.930 . S
H94 C91 0.929 . S
S95 N96 1.613 . S
S95 N97 1.610 . S
N96 S95 1.613 . S
N96 C99 1.350 . S
N97 S95 1.610 . S
N97 C98 1.351 . S
C98 C92 1.428 . S
C98 N97 1.351 . S
C98 C99 1.434 . S
C99 C90 1.429 . S
C99 N96 1.350 . S
C99 C98 1.434 . S
C100 C101 1.369 1_655 S
C100 C102 1.419 . S
C100 H104 0.930 . S
C101 C100 1.369 1_455 S
C101 C110 1.429 . S
C102 C100 1.419 . S
C102 C103 1.363 1_655 S
C102 H105 0.929 . S
C103 C102 1.363 1_455 S
C103 C109 1.428 . S
H104 C100 0.930 . S
H105 C102 0.929 . S
S106 N107 1.613 . S
S106 N108 1.610 . S
N107 S106 1.613 . S
N107 C110 1.350 . S
N108 S106 1.610 . S
N108 C109 1.351 . S
C109 C103 1.428 . S
C109 N108 1.351 . S
C109 C110 1.434 . S
C110 C101 1.429 . S
C110 N107 1.350 . S
C110 C109 1.434 . S
C111 C112 1.369 . S
C111 C113 1.419 . S
C111 H115 0.930 . S
C112 C111 1.369 . S
C112 C121 1.429 . S
C113 C111 1.419 . S
C113 C114 1.363 . S
C113 H116 0.929 . S
C114 C113 1.363 . S
C114 C120 1.428 . S
H115 C111 0.930 . S
H116 C113 0.929 . S
S117 N118 1.613 . S
S117 N119 1.610 . S
N118 S117 1.613 . S
N118 C121 1.350 . S
N119 S117 1.610 . S
N119 C120 1.351 . S
C120 C114 1.428 . S
C120 N119 1.351 . S
C120 C121 1.434 . S
C121 C112 1.429 . S
C121 N118 1.350 . S
C121 C120 1.434 . S
C122 C123 1.369 1_556 S
C122 C124 1.419 . S
C122 H126 0.930 . S
C123 C122 1.369 1_554 S
C123 C132 1.429 . S
C124 C122 1.419 . S
C124 C125 1.363 . S
C124 H127 0.929 . S
C125 C124 1.363 . S
C125 C131 1.428 . S
H126 C122 0.930 . S
H127 C124 0.929 . S
S128 N129 1.613 . S
S128 N130 1.610 1_554 S
N129 S128 1.613 . S
N129 C132 1.350 . S
N130 S128 1.610 1_556 S
N130 C131 1.351 . S
C131 C125 1.428 . S
C131 N130 1.351 . S
C131 C132 1.434 1_556 S
C132 C123 1.429 . S
C132 N129 1.350 . S
C132 C131 1.434 1_554 S
C133 C134 1.369 . S
C133 C135 1.419 . S
C133 H137 0.930 . S
C134 C133 1.369 . S
C134 C143 1.429 1_455 S
C135 C133 1.419 . S
C135 C136 1.384 . S
C135 H138 0.929 . S
C136 C135 1.384 . S
C136 C142 1.414 1_455 S
H137 C133 0.930 . S
H138 C135 0.929 . S
S139 N140 1.613 . S
S139 N141 1.610 . S
N140 S139 1.613 . S
N140 C143 1.350 . S
N141 S139 1.610 . S
N141 C142 1.351 . S
C142 C136 1.414 1_655 S
C142 N141 1.351 . S
C142 C143 1.434 . S
C143 C134 1.429 1_655 S
C143 N140 1.350 . S
C143 C142 1.434 . S
C144 C145 1.369 . S
C144 C146 1.419 . S
C144 H148 0.930 . S
C145 C144 1.369 . S
C145 C154 1.429 . S
C146 C144 1.419 . S
C146 C147 1.363 . S
C146 H149 0.929 . S
C147 C146 1.363 . S
C147 C153 1.428 . S
H148 C144 0.930 . S
H149 C146 0.929 . S
S150 N151 1.613 . S
S150 N152 1.610 . S
N151 S150 1.613 . S
N151 C154 1.350 . S
N152 S150 1.610 . S
N152 C153 1.351 . S
C153 C147 1.428 . S
C153 N152 1.351 . S
C153 C154 1.434 . S
C154 C145 1.429 . S
C154 N151 1.350 . S
C154 C153 1.434 . S
C155 C156 1.369 . S
C155 C157 1.419 . S
C155 H159 0.930 . S
C156 C155 1.369 . S
C156 C165 1.429 . S
C157 C155 1.419 . S
C157 C158 1.363 . S
C157 H160 0.929 . S
C158 C157 1.363 . S
C158 C164 1.428 . S
H159 C155 0.930 . S
H160 C157 0.929 . S
S161 N162 1.613 . S
S161 N163 1.610 . S
N162 S161 1.613 . S
N162 C165 1.350 . S
N163 S161 1.610 . S
N163 C164 1.351 . S
C164 C158 1.428 . S
C164 N163 1.351 . S
C164 C165 1.434 . S
C165 C156 1.429 . S
C165 N162 1.350 . S
C165 C164 1.434 . S
C166 C167 1.369 . S
C166 C168 1.419 . S
C166 H170 0.930 . S
C167 C166 1.369 . S
C167 C176 1.429 . S
C168 C166 1.419 . S
C168 C169 1.363 . S
C168 H171 0.929 . S
C169 C168 1.363 . S
C169 C175 1.428 . S
H170 C166 0.930 . S
H171 C168 0.929 . S
S172 N173 1.613 . S
S172 N174 1.610 . S
N173 S172 1.613 . S
N173 C176 1.350 . S
N174 S172 1.610 . S
N174 C175 1.351 . S
C175 C169 1.428 . S
C175 N174 1.351 . S
C175 C176 1.434 . S
C176 C167 1.429 . S
C176 N173 1.350 . S
C176 C175 1.434 . S
C177 C178 1.369 . S
C177 C179 1.419 . S
C177 H181 0.930 . S
C178 C177 1.369 . S
C178 C187 1.429 . S
C179 C177 1.419 . S
C179 C180 1.363 . S
C179 H182 0.929 . S
C180 C179 1.363 . S
C180 C186 1.428 . S
H181 C177 0.930 . S
H182 C179 0.929 . S
S183 N184 1.613 . S
S183 N185 1.610 . S
N184 S183 1.613 . S
N184 C187 1.350 . S
N185 S183 1.610 . S
N185 C186 1.351 . S
C186 C180 1.428 . S
C186 N185 1.351 . S
C186 C187 1.434 . S
C187 C178 1.429 . S
C187 N184 1.350 . S
C187 C186 1.434 . S
C188 C189 1.369 . S
C188 C190 1.419 . S
C188 H192 0.930 . S
C189 C188 1.369 . S
C189 C198 1.429 . S
C190 C188 1.419 . S
C190 C191 1.363 . S
C190 H193 0.929 . S
C191 C190 1.363 . S
C191 C197 1.428 . S
H192 C188 0.930 . S
H193 C190 0.929 . S
S194 N195 1.613 . S
S194 N196 1.610 . S
N195 S194 1.613 . S
N195 C198 1.350 . S
N196 S194 1.610 . S
N196 C197 1.351 . S
C197 C191 1.428 . S
C197 N196 1.351 . S
C197 C198 1.434 . S
C198 C189 1.429 . S
C198 N195 1.350 . S
C198 C197 1.434 . S
C199 C200 1.369 . S
C199 C201 1.419 . S
C199 H203 0.930 . S
C200 C199 1.369 . S
C200 C209 1.429 . S
C201 C199 1.419 . S
C201 C202 1.363 . S
C201 H204 0.929 . S
C202 C201 1.363 . S
C202 C208 1.428 . S
H203 C199 0.930 . S
H204 C201 0.929 . S
S205 N206 1.613 1_554 S
S205 N207 1.610 . S
N206 S205 1.613 1_556 S
N206 C209 1.350 . S
N207 S205 1.610 . S
N207 C208 1.351 1_554 S
C208 C202 1.428 . S
C208 N207 1.351 1_556 S
C208 C209 1.434 . S
C209 C200 1.429 . S
C209 N206 1.350 . S
C209 C208 1.434 . S
C79 C5 1.704 . S
C81 C43 1.706 . S
C90 C18 1.708 . S
C92 C56 1.707 . S
C101 C69 1.707 . S
C103 C31 1.708 . S
C112 C10 1.706 . S
C114 C42 1.708 . S
C123 C23 1.707 . S
C125 C55 1.707 . S
C134 C68 1.708 1_554 S
C136 C36 1.701 . S
C145 C17 1.467 . S
C147 C3 1.472 . S
C156 C30 1.470 . S
C158 C16 1.470 . S
C167 C29 1.469 . S
C169 C49 1.470 . S
C178 C62 1.467 . S
C180 C44 1.472 . S
C189 C75 1.465 . S
C191 C57 1.469 . S
C200 C70 1.471 . S
C202 C4 1.469 . S
