# Generated by pormake.
# Topology rob, (6)-cn, num edge types: 1
# Building blocks:
#     Node 0, Type 0, BuildingBlock: UKALOJ_clean_sbu_0, # of connection points: 6
#     Node 1, Type 0, BuildingBlock: UKALOJ_clean_sbu_0, # of connection points: 6
#     Node 2, Type 0, BuildingBlock: UKALOJ_clean_sbu_0, # of connection points: 6
#     Node 3, Type 0, BuildingBlock: UKALOJ_clean_sbu_0, # of connection points: 6
#     Edge 4, Type (0, 0), BuildingBlock: OJICUG_clean_linker_0, # of connection points: 2
#     Edge 5, Type (0, 0), BuildingBlock: OJICUG_clean_linker_0, # of connection points: 2
#     Edge 6, Type (0, 0), BuildingBlock: OJICUG_clean_linker_0, # of connection points: 2
#     Edge 7, Type (0, 0), BuildingBlock: OJICUG_clean_linker_0, # of connection points: 2
#     Edge 8, Type (0, 0), BuildingBlock: OJICUG_clean_linker_0, # of connection points: 2
#     Edge 9, Type (0, 0), BuildingBlock: OJICUG_clean_linker_0, # of connection points: 2
#     Edge 10, Type (0, 0), BuildingBlock: OJICUG_clean_linker_0, # of connection points: 2
#     Edge 11, Type (0, 0), BuildingBlock: OJICUG_clean_linker_0, # of connection points: 2
#     Edge 12, Type (0, 0), BuildingBlock: OJICUG_clean_linker_0, # of connection points: 2
#     Edge 13, Type (0, 0), BuildingBlock: OJICUG_clean_linker_0, # of connection points: 2
#     Edge 14, Type (0, 0), BuildingBlock: OJICUG_clean_linker_0, # of connection points: 2
#     Edge 15, Type (0, 0), BuildingBlock: OJICUG_clean_linker_0, # of connection points: 2
# Relax obj value: 0.125
# Max RMSD: 0.181
# Mean RMSD: 0.181
data_MOF--net-rob--node1-UKALOJ_clean_sbu_0--edge1-OJICUG_clean_linker_0
_symmetry_space_group_name_H-M    P1
_symmetry_Int_Tables_number       1
_symmetry_cell_setting            triclinic
loop_
_symmetry_equiv_pos_as_xyz
'x, y, z'
_cell_length_a     12.036605
_cell_length_b     29.976262
_cell_length_c     17.048799
_cell_angle_alpha  95.341374
_cell_angle_beta   90.056267
_cell_angle_gamma 90.048715
loop_
_atom_site_label
_atom_site_type_symbol
_atom_site_fract_x
_atom_site_fract_y
_atom_site_fract_z
_atom_type_partial_charge
Zn0 Zn 0.20839 0.32088 0.00877 0.0
O1 O 0.35624 0.29669 0.95347 0.0
C2 C 0.11001 0.30855 0.85301 0.0
Zn3 Zn 0.15435 0.24984 0.98359 0.0
C4 C 0.37368 0.25718 0.92178 0.0
O5 O 0.30046 0.22709 0.92735 0.0
C6 C -0.01103 0.31308 0.07111 0.0
O7 O 0.21133 0.23116 0.09287 0.0
O8 O 0.26286 0.30151 0.11756 0.0
N9 N 0.07616 0.18977 0.95826 0.0
C10 C 0.09335 0.14822 0.98001 0.0
C11 C -0.05988 0.14707 0.91721 0.0
N12 N -0.01875 0.18884 0.91893 0.0
N13 N 0.00818 0.12073 0.95555 0.0
C14 C 0.3272 0.41171 0.98914 0.0
C15 C 0.32403 0.44312 0.10647 0.0
N16 N 0.27799 0.38294 0.03469 0.0
N17 N 0.27649 0.4025 0.10754 0.0
N18 N 0.3563 0.44999 0.03283 0.0
H19 H 0.35926 0.36495 0.88713 0.0
H20 H 0.42793 0.41823 0.88601 0.0
H21 H 0.28032 0.41318 0.86829 0.0
C22 C 0.3507 0.40133 0.90291 0.0
C23 C 0.19627 0.13461 0.0211 0.0
H24 H 0.26796 0.15528 0.00551 0.0
H25 H 0.2152 0.09871 0.00498 0.0
H26 H 0.18385 0.14011 0.08575 0.0
O27 O 0.00736 0.27357 0.04013 0.0
O28 O 0.06127 0.34332 0.06454 0.0
C29 C 0.25229 0.26236 0.13952 0.0
O30 O 0.1498 0.33977 0.90003 0.0
O31 O 0.10048 0.26935 0.87471 0.0
Zn32 Zn 0.70824 0.82102 0.00973 0.0
O33 O 0.85619 0.79686 0.95452 0.0
C34 C 0.61004 0.80852 0.85392 0.0
Zn35 Zn 0.65444 0.74993 0.98467 0.0
C36 C 0.87379 0.75734 0.92292 0.0
O37 O 0.80068 0.72722 0.92854 0.0
C38 C 0.48881 0.81314 0.07202 0.0
O39 O 0.71133 0.73137 0.09402 0.0
O40 O 0.76271 0.80174 0.11858 0.0
N41 N 0.57643 0.68983 0.95935 0.0
C42 C 0.59372 0.64826 0.98099 0.0
C43 C 0.44065 0.64708 0.91799 0.0
N44 N 0.48161 0.68889 0.91991 0.0
N45 N 0.50872 0.62074 0.95631 0.0
C46 C 0.82667 0.91186 0.98973 0.0
C47 C 0.82346 0.94344 0.10694 0.0
N48 N 0.77763 0.88313 0.03544 0.0
N49 N 0.7761 0.9028 0.10822 0.0
N50 N 0.85563 0.95022 0.03324 0.0
H51 H 0.8589 0.86499 0.88789 0.0
H52 H 0.92732 0.9183 0.88653 0.0
H53 H 0.77973 0.91312 0.86885 0.0
C54 C 0.85017 0.90137 0.90352 0.0
C55 C 0.69657 0.63469 0.0222 0.0
H56 H 0.76821 0.65544 0.00682 0.0
H57 H 0.71572 0.59882 0.00598 0.0
H58 H 0.68391 0.6401 0.08684 0.0
O59 O 0.50732 0.77363 0.04109 0.0
O60 O 0.56103 0.84341 0.06542 0.0
C61 C 0.75218 0.76261 0.14064 0.0
O62 O 0.64964 0.83979 0.90092 0.0
O63 O 0.60063 0.76933 0.8757 0.0
Zn64 Zn 0.15454 0.821 0.50996 0.0
O65 O 0.2113 0.83948 0.40052 0.0
C66 C -0.01144 0.75765 0.42289 0.0
Zn67 Zn 0.20814 0.74988 0.48519 0.0
C68 C 0.25202 0.8082 0.35404 0.0
O69 O 0.26238 0.7691 0.37625 0.0
C70 C 0.11023 0.76249 0.64096 0.0
O71 O 0.35625 0.77412 0.5403 0.0
O72 O 0.30095 0.84377 0.56601 0.0
N73 N 0.27732 0.68777 0.45943 0.0
C74 C 0.32669 0.65901 0.50494 0.0
C75 C 0.32289 0.62759 0.38762 0.0
N76 N 0.27543 0.66819 0.38658 0.0
N77 N 0.35553 0.62073 0.46122 0.0
C78 C 0.09399 0.92269 0.51331 0.0
C79 C -0.05875 0.92391 0.57648 0.0
N80 N 0.07674 0.88114 0.53512 0.0
N81 N -0.01788 0.88211 0.57467 0.0
N82 N 0.00917 0.95022 0.53797 0.0
H83 H 0.26835 0.91554 0.48737 0.0
H84 H 0.21596 0.97213 0.48801 0.0
H85 H 0.18371 0.93074 0.40733 0.0
C86 C 0.19668 0.93624 0.47194 0.0
C87 C 0.35062 0.66942 0.59113 0.0
H88 H 0.35924 0.70582 0.60686 0.0
H89 H 0.42794 0.65257 0.60796 0.0
H90 H 0.28042 0.65753 0.62582 0.0
O91 O 0.14979 0.73119 0.59412 0.0
O92 O 0.10088 0.80164 0.61901 0.0
C93 C 0.37402 0.81368 0.57173 0.0
O94 O 0.00726 0.79722 0.45362 0.0
O95 O 0.06072 0.72742 0.42961 0.0
Zn96 Zn 0.65439 0.32087 0.50894 0.0
O97 O 0.71123 0.3394 0.39954 0.0
C98 C 0.48886 0.25736 0.42169 0.0
Zn99 Zn 0.70836 0.2498 0.48418 0.0
C100 C 0.75216 0.30815 0.35309 0.0
O101 O 0.76268 0.26905 0.3753 0.0
C102 C 0.61016 0.26233 0.63986 0.0
O103 O 0.85624 0.27419 0.53943 0.0
O104 O 0.80061 0.34379 0.56514 0.0
N105 N 0.77796 0.18774 0.45863 0.0
C106 C 0.82732 0.15908 0.50434 0.0
C107 C 0.82391 0.12749 0.38713 0.0
N108 N 0.77632 0.16806 0.38585 0.0
N109 N 0.85638 0.12076 0.46083 0.0
C110 C 0.59331 0.42252 0.51243 0.0
C111 C 0.44052 0.42357 0.57552 0.0
N112 N 0.5762 0.38093 0.53406 0.0
N113 N 0.48154 0.38179 0.57355 0.0
N114 N 0.50839 0.44998 0.53718 0.0
H115 H 0.7677 0.41551 0.48648 0.0
H116 H 0.71511 0.47208 0.48734 0.0
H117 H 0.683 0.43077 0.40652 0.0
C118 C 0.69595 0.43619 0.47114 0.0
C119 C 0.85102 0.16962 0.59054 0.0
H120 H 0.85953 0.20603 0.60614 0.0
H121 H 0.92835 0.15283 0.60755 0.0
H122 H 0.78077 0.15775 0.62521 0.0
O123 O 0.6499 0.23106 0.59304 0.0
O124 O 0.60069 0.30148 0.61793 0.0
C125 C 0.87381 0.31376 0.57089 0.0
O126 O 0.50734 0.29694 0.45246 0.0
O127 O 0.56116 0.22719 0.42844 0.0
C128 C 0.41653 0.54862 0.91874 0.0
C129 C 0.48286 0.57544 0.9722 0.0
H130 H 0.31969 0.48929 0.89708 0.0
C131 C 0.50995 0.55934 0.04468 0.0
H132 H 0.39204 0.56052 0.86322 0.0
C133 C 0.47202 0.5174 0.06282 0.0
C134 C 0.40433 0.49091 0.00974 0.0
H135 H 0.55558 0.57979 0.0892 0.0
H136 H 0.49288 0.50616 0.11956 0.0
C137 C 0.37651 0.50724 0.93764 0.0
C138 C 0.47109 0.55339 0.43097 0.0
C139 C 0.40376 0.57983 0.48421 0.0
H140 H 0.55445 0.49105 0.40433 0.0
C141 C 0.37644 0.56346 0.55633 0.0
H142 H 0.49158 0.56467 0.37421 0.0
C143 C 0.41651 0.52206 0.57507 0.0
C144 C 0.48246 0.49528 0.52144 0.0
H145 H 0.31995 0.58138 0.59704 0.0
H146 H 0.39237 0.51011 0.63061 0.0
C147 C 0.50911 0.51145 0.44896 0.0
C148 C 0.00933 0.05954 0.04434 0.0
C149 C -0.01786 0.07551 0.97176 0.0
H150 H -0.00766 1.00652 0.11957 0.0
C151 C 0.91559 0.04863 0.91854 0.0
H152 H 0.05511 0.08005 0.08869 0.0
C153 C 0.87554 1.00731 0.93773 0.0
C154 C 0.90353 0.99111 0.0099 0.0
H155 H 0.891 0.06044 0.86296 0.0
H156 H 0.8186 0.9893 0.89734 0.0
C157 C -0.02863 1.01766 0.06277 0.0
C158 C -0.02795 0.0534 0.43108 0.0
C159 C 0.90459 0.07992 0.4841 0.0
H160 H 0.05549 0.99104 0.40488 0.0
C161 C 0.87713 0.06368 0.55631 0.0
H162 H -0.00735 0.06457 0.37426 0.0
C163 C 0.91722 1.02234 0.57535 0.0
C164 C -0.01671 0.99548 0.52194 0.0
H165 H 0.82051 0.08164 0.59686 0.0
H166 H 0.89298 1.0105 0.63095 0.0
C167 C 0.01007 1.01151 0.44936 0.0
C168 C 0.32731 0.28623 0.35194 0.0
C169 C 0.39948 0.25049 0.36262 0.0
H170 H 0.2251 0.31805 0.27117 0.0
C171 C 0.40318 0.21376 0.30483 0.0
H172 H 0.32103 0.31467 0.39585 0.0
C173 C 0.34685 0.2156 0.23335 0.0
C174 C 0.28766 0.25432 0.21923 0.0
H175 H 0.4576 0.18561 0.31157 0.0
H176 H 0.35773 0.18871 0.18696 0.0
C177 C 0.27305 0.28839 0.28039 0.0
C178 C 0.4028 0.85671 0.18864 0.0
C179 C 0.39951 0.81986 0.13107 0.0
H180 H 0.35694 0.88193 0.30624 0.0
C181 C 0.32776 0.78396 0.14189 0.0
H182 H 0.45689 0.88498 0.18179 0.0
C183 C 0.27343 0.78185 0.21337 0.0
C184 C 0.28755 0.8161 0.27432 0.0
H185 H 0.3218 0.75541 0.09816 0.0
H186 H 0.22577 0.7521 0.22269 0.0
C187 C 0.34641 0.8549 0.26003 0.0
C188 C 0.5162 0.85534 0.7599 0.0
C189 C 0.57488 0.81653 0.77416 0.0
H190 H 0.40607 0.88551 0.68154 0.0
C191 C 0.5895 0.78246 0.713 0.0
H192 H 0.50546 0.88227 0.80623 0.0
C193 C 0.53562 0.78471 0.64133 0.0
C194 C 0.46365 0.82051 0.63061 0.0
H195 H 0.63718 0.75274 0.72228 0.0
H196 H 0.54193 0.75627 0.59742 0.0
C197 C 0.46017 0.85727 0.68835 0.0
C198 C 0.58926 0.28848 0.7807 0.0
C199 C 0.57476 0.25436 0.71957 0.0
H200 H 0.54155 0.31472 0.89613 0.0
C201 C 0.51587 0.21555 0.73376 0.0
H202 H 0.63705 0.31821 0.77148 0.0
C203 C 0.45965 0.21366 0.80518 0.0
C204 C 0.46317 0.25043 0.8629 0.0
H205 H 0.50514 0.18859 0.68745 0.0
H206 H 0.40548 0.1854 0.81193 0.0
C207 C 0.53522 0.28626 0.85225 0.0
C208 C 0.77311 0.78881 0.28143 0.0
C209 C 0.78747 0.75464 0.2204 0.0
H210 H 0.82123 0.81517 0.39681 0.0
C211 C 0.84629 0.71587 0.23469 0.0
H212 H 0.72543 0.81852 0.27209 0.0
C213 C 0.90253 0.71403 0.3062 0.0
C214 C 0.89913 0.75084 0.36385 0.0
H215 H 0.85694 0.6889 0.18841 0.0
H216 H -0.04332 0.68581 0.31307 0.0
C217 C 0.82728 0.78666 0.35303 0.0
C218 C 0.77347 0.28184 0.2124 0.0
C219 C 0.78767 0.31607 0.27339 0.0
H220 H 0.82179 0.25541 0.09719 0.0
C221 C 0.84664 0.35485 0.25914 0.0
H222 H 0.72573 0.25211 0.2217 0.0
C223 C 0.90305 0.35666 0.18775 0.0
C224 C 0.89968 0.31982 0.13015 0.0
H225 H 0.85723 0.38186 0.30538 0.0
H226 H -0.04278 0.38491 0.18094 0.0
C227 C 0.82781 0.28395 0.14093 0.0
C228 C -0.04041 0.35731 0.68768 0.0
C229 C -0.03661 0.32064 0.6298 0.0
H230 H 0.00472 0.38224 0.80563 0.0
C231 C 0.0357 0.28492 0.64037 0.0
H232 H 0.90522 0.38548 0.68097 0.0
C233 C 0.08966 0.28266 0.71201 0.0
C234 C 0.07478 0.31664 0.77329 0.0
H235 H 0.04224 0.25655 0.59635 0.0
H236 H 0.13762 0.25298 0.72116 0.0
C237 C 0.01571 0.35539 0.7592 0.0
C238 C 0.01609 0.71571 0.73493 0.0
C239 C 0.07483 0.75454 0.72069 0.0
H240 H 0.90584 0.68553 0.81315 0.0
C241 C 0.08923 0.7887 0.78177 0.0
H242 H 0.00546 0.68873 0.68866 0.0
C243 C 0.0352 0.78648 0.85334 0.0
C244 C -0.0367 0.75061 0.86404 0.0
H245 H 0.13691 0.81846 0.77252 0.0
H246 H 0.04144 0.81496 0.89719 0.0
C247 C -0.04009 0.71381 0.80637 0.0
loop_
_geom_bond_atom_site_label_1
_geom_bond_atom_site_label_2
_geom_bond_distance
_geom_bond_site_symmetry_2
_ccdc_geom_bond_type
Zn0 O1 2.055 1_554 S
Zn0 O8 2.046 . S
Zn0 N16 2.036 . S
Zn0 O28 2.053 . S
Zn0 O30 2.066 1_554 S
O1 Zn0 2.055 1_556 S
O1 C4 1.259 . S
C2 O30 1.256 . S
C2 O31 1.244 . S
Zn3 O5 2.046 . S
Zn3 O7 2.055 1_556 S
Zn3 N9 2.036 . S
Zn3 O27 2.066 1_556 S
Zn3 O31 2.053 . S
C4 O1 1.259 . S
C4 O5 1.254 . S
O5 Zn3 2.046 . S
O5 C4 1.254 . S
C6 O27 1.256 . S
C6 O28 1.244 . S
O7 Zn3 2.055 1_554 S
O7 C29 1.259 . S
O8 Zn0 2.046 . S
O8 C29 1.254 . S
N9 Zn3 2.036 . S
N9 C10 1.298 1_556 S
N9 N12 1.398 . S
C10 N9 1.298 1_554 S
C10 N13 1.367 1_554 S
C10 C23 1.481 . S
C11 N12 1.299 . S
C11 N13 1.379 . S
N12 N9 1.398 . S
N12 C11 1.299 . S
N13 C10 1.367 1_556 S
N13 C11 1.379 . S
C14 N16 1.298 1_556 S
C14 N18 1.367 1_556 S
C14 C22 1.481 . S
C15 N17 1.299 . S
C15 N18 1.379 . S
N16 Zn0 2.036 . S
N16 C14 1.298 1_554 S
N16 N17 1.398 . S
N17 C15 1.299 . S
N17 N16 1.398 . S
N18 C14 1.367 1_554 S
N18 C15 1.379 . S
H19 C22 0.980 . S
H20 C22 0.981 . S
H21 C22 0.981 . S
C22 C14 1.481 . S
C22 H19 0.980 . S
C22 H20 0.981 . S
C22 H21 0.981 . S
C23 C10 1.481 . S
C23 H24 0.980 . S
C23 H25 0.981 . S
C23 H26 0.981 . S
H24 C23 0.980 . S
H25 C23 0.981 . S
H26 C23 0.981 . S
O27 Zn3 2.066 1_554 S
O27 C6 1.256 . S
O28 Zn0 2.053 . S
O28 C6 1.244 . S
C29 O7 1.259 . S
C29 O8 1.254 . S
O30 Zn0 2.066 1_556 S
O30 C2 1.256 . S
O31 C2 1.244 . S
O31 Zn3 2.053 . S
Zn32 O33 2.055 1_554 S
Zn32 O40 2.046 . S
Zn32 N48 2.036 . S
Zn32 O60 2.053 . S
Zn32 O62 2.066 1_554 S
O33 Zn32 2.055 1_556 S
O33 C36 1.259 . S
C34 O62 1.256 . S
C34 O63 1.244 . S
Zn35 O37 2.046 . S
Zn35 O39 2.055 1_556 S
Zn35 N41 2.036 . S
Zn35 O59 2.066 1_556 S
Zn35 O63 2.053 . S
C36 O33 1.259 . S
C36 O37 1.254 . S
O37 Zn35 2.046 . S
O37 C36 1.254 . S
C38 O59 1.256 . S
C38 O60 1.244 . S
O39 Zn35 2.055 1_554 S
O39 C61 1.259 . S
O40 Zn32 2.046 . S
O40 C61 1.254 . S
N41 Zn35 2.036 . S
N41 C42 1.298 1_556 S
N41 N44 1.398 . S
C42 N41 1.298 1_554 S
C42 N45 1.367 1_554 S
C42 C55 1.481 . S
C43 N44 1.299 . S
C43 N45 1.379 . S
N44 N41 1.398 . S
N44 C43 1.299 . S
N45 C42 1.367 1_556 S
N45 C43 1.379 . S
C46 N48 1.298 1_556 S
C46 N50 1.367 1_556 S
C46 C54 1.481 . S
C47 N49 1.299 . S
C47 N50 1.379 . S
N48 Zn32 2.036 . S
N48 C46 1.298 1_554 S
N48 N49 1.398 . S
N49 C47 1.299 . S
N49 N48 1.398 . S
N50 C46 1.367 1_554 S
N50 C47 1.379 . S
H51 C54 0.980 . S
H52 C54 0.981 . S
H53 C54 0.981 . S
C54 C46 1.481 . S
C54 H51 0.980 . S
C54 H52 0.981 . S
C54 H53 0.981 . S
C55 C42 1.481 . S
C55 H56 0.980 . S
C55 H57 0.981 . S
C55 H58 0.981 . S
H56 C55 0.980 . S
H57 C55 0.981 . S
H58 C55 0.981 . S
O59 Zn35 2.066 1_554 S
O59 C38 1.256 . S
O60 Zn32 2.053 . S
O60 C38 1.244 . S
C61 O39 1.259 . S
C61 O40 1.254 . S
O62 Zn32 2.066 1_556 S
O62 C34 1.256 . S
O63 C34 1.244 . S
O63 Zn35 2.053 . S
Zn64 O65 2.055 . S
Zn64 O72 2.046 . S
Zn64 N80 2.036 . S
Zn64 O92 2.053 . S
Zn64 O94 2.066 . S
O65 Zn64 2.055 . S
O65 C68 1.259 . S
C66 O94 1.256 . S
C66 O95 1.244 . S
Zn67 O69 2.046 . S
Zn67 O71 2.055 . S
Zn67 N73 2.036 . S
Zn67 O91 2.066 . S
Zn67 O95 2.053 . S
C68 O65 1.259 . S
C68 O69 1.254 . S
O69 Zn67 2.046 . S
O69 C68 1.254 . S
C70 O91 1.256 . S
C70 O92 1.244 . S
O71 Zn67 2.055 . S
O71 C93 1.259 . S
O72 Zn64 2.046 . S
O72 C93 1.254 . S
N73 Zn67 2.036 . S
N73 C74 1.298 . S
N73 N76 1.398 . S
C74 N73 1.298 . S
C74 N77 1.367 . S
C74 C87 1.481 . S
C75 N76 1.299 . S
C75 N77 1.379 . S
N76 N73 1.398 . S
N76 C75 1.299 . S
N77 C74 1.367 . S
N77 C75 1.379 . S
C78 N80 1.298 . S
C78 N82 1.367 . S
C78 C86 1.481 . S
C79 N81 1.299 . S
C79 N82 1.379 . S
N80 Zn64 2.036 . S
N80 C78 1.298 . S
N80 N81 1.398 . S
N81 C79 1.299 . S
N81 N80 1.398 . S
N82 C78 1.367 . S
N82 C79 1.379 . S
H83 C86 0.980 . S
H84 C86 0.981 . S
H85 C86 0.981 . S
C86 C78 1.481 . S
C86 H83 0.980 . S
C86 H84 0.981 . S
C86 H85 0.981 . S
C87 C74 1.481 . S
C87 H88 0.980 . S
C87 H89 0.981 . S
C87 H90 0.981 . S
H88 C87 0.980 . S
H89 C87 0.981 . S
H90 C87 0.981 . S
O91 Zn67 2.066 . S
O91 C70 1.256 . S
O92 Zn64 2.053 . S
O92 C70 1.244 . S
C93 O71 1.259 . S
C93 O72 1.254 . S
O94 Zn64 2.066 . S
O94 C66 1.256 . S
O95 C66 1.244 . S
O95 Zn67 2.053 . S
Zn96 O97 2.055 . S
Zn96 O104 2.046 . S
Zn96 N112 2.036 . S
Zn96 O124 2.053 . S
Zn96 O126 2.066 . S
O97 Zn96 2.055 . S
O97 C100 1.259 . S
C98 O126 1.256 . S
C98 O127 1.244 . S
Zn99 O101 2.046 . S
Zn99 O103 2.055 . S
Zn99 N105 2.036 . S
Zn99 O123 2.066 . S
Zn99 O127 2.053 . S
C100 O97 1.259 . S
C100 O101 1.254 . S
O101 Zn99 2.046 . S
O101 C100 1.254 . S
C102 O123 1.256 . S
C102 O124 1.244 . S
O103 Zn99 2.055 . S
O103 C125 1.259 . S
O104 Zn96 2.046 . S
O104 C125 1.254 . S
N105 Zn99 2.036 . S
N105 C106 1.298 . S
N105 N108 1.398 . S
C106 N105 1.298 . S
C106 N109 1.367 . S
C106 C119 1.481 . S
C107 N108 1.299 . S
C107 N109 1.379 . S
N108 N105 1.398 . S
N108 C107 1.299 . S
N109 C106 1.367 . S
N109 C107 1.379 . S
C110 N112 1.298 . S
C110 N114 1.367 . S
C110 C118 1.481 . S
C111 N113 1.299 . S
C111 N114 1.379 . S
N112 Zn96 2.036 . S
N112 C110 1.298 . S
N112 N113 1.398 . S
N113 C111 1.299 . S
N113 N112 1.398 . S
N114 C110 1.367 . S
N114 C111 1.379 . S
H115 C118 0.980 . S
H116 C118 0.981 . S
H117 C118 0.981 . S
C118 C110 1.481 . S
C118 H115 0.980 . S
C118 H116 0.981 . S
C118 H117 0.981 . S
C119 C106 1.481 . S
C119 H120 0.980 . S
C119 H121 0.981 . S
C119 H122 0.981 . S
H120 C119 0.980 . S
H121 C119 0.981 . S
H122 C119 0.981 . S
O123 Zn99 2.066 . S
O123 C102 1.256 . S
O124 Zn96 2.053 . S
O124 C102 1.244 . S
C125 O103 1.259 . S
C125 O104 1.254 . S
O126 Zn96 2.066 . S
O126 C98 1.256 . S
O127 C98 1.244 . S
O127 Zn99 2.053 . S
C128 C129 1.384 1_556 S
C128 H132 0.950 . S
C128 C137 1.390 . S
C129 C128 1.384 1_554 S
C129 C131 1.391 . S
H130 C137 0.950 . S
C131 C129 1.391 . S
C131 C133 1.390 . S
C131 H135 0.950 . S
H132 C128 0.950 . S
C133 C131 1.390 . S
C133 C134 1.398 . S
C133 H136 0.950 . S
C134 C133 1.398 . S
C134 C137 1.376 1_554 S
H135 C131 0.950 . S
H136 C133 0.950 . S
C137 C128 1.390 . S
C137 H130 0.950 . S
C137 C134 1.376 1_556 S
C138 C139 1.387 . S
C138 H142 0.950 . S
C138 C147 1.390 . S
C139 C138 1.387 . S
C139 C141 1.387 . S
H140 C147 0.950 . S
C141 C139 1.387 . S
C141 C143 1.390 . S
C141 H145 0.950 . S
H142 C138 0.950 . S
C143 C141 1.390 . S
C143 C144 1.387 . S
C143 H146 0.950 . S
C144 C143 1.387 . S
C144 C147 1.387 . S
H145 C141 0.950 . S
H146 C143 0.950 . S
C147 C138 1.390 . S
C147 H140 0.950 . S
C147 C144 1.387 . S
C148 C149 1.391 . S
C148 H152 0.950 . S
C148 C157 1.390 1_445 S
C149 C148 1.391 . S
C149 C151 1.383 1_454 S
H150 C157 0.950 . S
C151 C149 1.383 1_656 S
C151 C153 1.393 1_545 S
C151 H155 0.949 1_655 S
H152 C148 0.950 . S
C153 C151 1.393 1_565 S
C153 C154 1.375 1_556 S
C153 H156 0.950 . S
C154 C153 1.375 1_554 S
C154 C157 1.398 . S
H155 C151 0.949 1_455 S
H156 C153 0.950 . S
C157 C148 1.390 1_665 S
C157 H150 0.950 . S
C157 C154 1.398 . S
C158 C159 1.387 . S
C158 H162 0.950 . S
C158 C167 1.390 1_645 S
C159 C158 1.387 . S
C159 C161 1.387 . S
H160 C167 0.950 . S
C161 C159 1.387 . S
C161 C163 1.390 1_645 S
C161 H165 0.950 . S
H162 C158 0.950 . S
C163 C161 1.390 1_465 S
C163 C164 1.387 . S
C163 H166 0.950 . S
C164 C163 1.387 . S
C164 C167 1.387 . S
H165 C161 0.950 . S
H166 C163 0.950 . S
C167 C158 1.390 1_465 S
C167 H160 0.950 . S
C167 C164 1.387 . S
C168 C169 1.387 . S
C168 H172 0.950 . S
C168 C177 1.390 . S
C169 C168 1.387 . S
C169 C171 1.387 . S
H170 C177 0.950 . S
C171 C169 1.387 . S
C171 C173 1.390 . S
C171 H175 0.950 . S
H172 C168 0.950 . S
C173 C171 1.390 . S
C173 C174 1.387 . S
C173 H176 0.950 . S
C174 C173 1.387 . S
C174 C177 1.387 . S
H175 C171 0.950 . S
H176 C173 0.950 . S
C177 C168 1.390 . S
C177 H170 0.950 . S
C177 C174 1.387 . S
C178 C179 1.387 . S
C178 H182 0.950 . S
C178 C187 1.390 . S
C179 C178 1.387 . S
C179 C181 1.387 . S
H180 C187 0.950 . S
C181 C179 1.387 . S
C181 C183 1.390 . S
C181 H185 0.950 . S
H182 C178 0.950 . S
C183 C181 1.390 . S
C183 C184 1.387 . S
C183 H186 0.950 . S
C184 C183 1.387 . S
C184 C187 1.387 . S
H185 C181 0.950 . S
H186 C183 0.950 . S
C187 C178 1.390 . S
C187 H180 0.950 . S
C187 C184 1.387 . S
C188 C189 1.387 . S
C188 H192 0.950 . S
C188 C197 1.390 . S
C189 C188 1.387 . S
C189 C191 1.387 . S
H190 C197 0.950 . S
C191 C189 1.387 . S
C191 C193 1.390 . S
C191 H195 0.950 . S
H192 C188 0.950 . S
C193 C191 1.390 . S
C193 C194 1.387 . S
C193 H196 0.950 . S
C194 C193 1.387 . S
C194 C197 1.387 . S
H195 C191 0.950 . S
H196 C193 0.950 . S
C197 C188 1.390 . S
C197 H190 0.950 . S
C197 C194 1.387 . S
C198 C199 1.387 . S
C198 H202 0.950 . S
C198 C207 1.390 . S
C199 C198 1.387 . S
C199 C201 1.387 . S
H200 C207 0.950 . S
C201 C199 1.387 . S
C201 C203 1.390 . S
C201 H205 0.950 . S
H202 C198 0.950 . S
C203 C201 1.390 . S
C203 C204 1.387 . S
C203 H206 0.950 . S
C204 C203 1.387 . S
C204 C207 1.387 . S
H205 C201 0.950 . S
H206 C203 0.950 . S
C207 C198 1.390 . S
C207 H200 0.950 . S
C207 C204 1.387 . S
C208 C209 1.387 . S
C208 H212 0.950 . S
C208 C217 1.390 1_655 S
C209 C208 1.387 . S
C209 C211 1.386 1_655 S
H210 C217 0.950 . S
C211 C209 1.386 1_455 S
C211 C213 1.393 . S
C211 H215 0.949 1_455 S
H212 C208 0.950 . S
C213 C211 1.393 . S
C213 C214 1.387 . S
C213 H216 0.950 . S
C214 C213 1.387 . S
C214 C217 1.387 . S
H215 C211 0.949 1_655 S
H216 C213 0.950 . S
C217 C208 1.390 1_455 S
C217 H210 0.950 . S
C217 C214 1.387 . S
C218 C219 1.387 . S
C218 H222 0.950 . S
C218 C227 1.390 1_655 S
C219 C218 1.387 . S
C219 C221 1.387 1_655 S
H220 C227 0.950 . S
C221 C219 1.387 1_455 S
C221 C223 1.392 . S
C221 H225 0.949 1_455 S
H222 C218 0.950 . S
C223 C221 1.392 . S
C223 C224 1.387 . S
C223 H226 0.950 . S
C224 C223 1.387 . S
C224 C227 1.387 . S
H225 C221 0.949 1_655 S
H226 C223 0.950 . S
C227 C218 1.390 1_455 S
C227 H220 0.950 . S
C227 C224 1.387 . S
C228 C229 1.387 . S
C228 H232 0.950 . S
C228 C237 1.390 . S
C229 C228 1.387 . S
C229 C231 1.387 1_655 S
H230 C237 0.950 . S
C231 C229 1.387 1_455 S
C231 C233 1.390 . S
C231 H235 0.950 . S
H232 C228 0.950 . S
C233 C231 1.390 . S
C233 C234 1.387 . S
C233 H236 0.950 . S
C234 C233 1.387 . S
C234 C237 1.387 1_455 S
H235 C231 0.950 . S
H236 C233 0.950 . S
C237 C228 1.390 . S
C237 H230 0.950 . S
C237 C234 1.387 1_655 S
C238 C239 1.387 . S
C238 H242 0.950 . S
C238 C247 1.390 1_455 S
C239 C238 1.387 . S
C239 C241 1.387 . S
H240 C247 0.950 . S
C241 C239 1.387 . S
C241 C243 1.390 . S
C241 H245 0.950 . S
H242 C238 0.950 . S
C243 C241 1.390 . S
C243 C244 1.387 1_455 S
C243 H246 0.950 . S
C244 C243 1.387 1_655 S
C244 C247 1.387 . S
H245 C241 0.950 . S
H246 C243 0.950 . S
C247 C238 1.390 1_655 S
C247 H240 0.950 . S
C247 C244 1.387 . S
C129 N45 1.623 1_554 S
C134 N18 1.589 . S
C139 N77 1.587 . S
C144 N114 1.626 . S
C149 N13 1.625 1_554 S
C154 N50 1.591 . S
C159 N109 1.587 . S
C164 N82 1.626 . S
C169 C98 1.169 . S
C174 C29 1.178 . S
C179 C38 1.166 . S
C184 C68 1.176 . S
C189 C34 1.187 . S
C194 C93 1.194 . S
C199 C102 1.185 . S
C204 C4 1.192 . S
C209 C61 1.179 . S
C214 C66 1.167 . S
C219 C100 1.179 . S
C224 C6 1.167 . S
C229 C125 1.193 . S
C234 C2 1.189 . S
C239 C70 1.188 . S
C244 C36 1.194 . S
