# Generated by pormake.
# Topology msw, (6)-cn, num edge types: 1
# Building blocks:
#     Node 0, Type 0, BuildingBlock: VOLQOD_clean_sbu_1, # of connection points: 6
#     Node 1, Type 0, BuildingBlock: VOLQOD_clean_sbu_1, # of connection points: 6
#     Edge 2, Type (0, 0), BuildingBlock: XUDNAN_clean_linker_2, # of connection points: 2
#     Edge 3, Type (0, 0), BuildingBlock: XUDNAN_clean_linker_2, # of connection points: 2
#     Edge 4, Type (0, 0), BuildingBlock: XUDNAN_clean_linker_2, # of connection points: 2
#     Edge 5, Type (0, 0), BuildingBlock: XUDNAN_clean_linker_2, # of connection points: 2
#     Edge 6, Type (0, 0), BuildingBlock: XUDNAN_clean_linker_2, # of connection points: 2
#     Edge 7, Type (0, 0), BuildingBlock: XUDNAN_clean_linker_2, # of connection points: 2
# Relax obj value: 0.244
# Max RMSD: 0.191
# Mean RMSD: 0.191
data_MOF--net-msw--node1-VOLQOD_clean_sbu_1--edge1-XUDNAN_clean_linker_2
_symmetry_space_group_name_H-M    P1
_symmetry_Int_Tables_number       1
_symmetry_cell_setting            triclinic
loop_
_symmetry_equiv_pos_as_xyz
'x, y, z'
_cell_length_a     19.291316
_cell_length_b     21.007536
_cell_length_c     16.376606
_cell_angle_alpha  90.3594
_cell_angle_beta   92.239978
_cell_angle_gamma 90.932562
loop_
_atom_site_label
_atom_site_type_symbol
_atom_site_fract_x
_atom_site_fract_y
_atom_site_fract_z
_atom_type_partial_charge
O0 O 0.8675 0.25381 0.34814 0.0
Zn1 Zn 0.91643 0.26911 0.24506 0.0
O2 O 0.84264 0.28667 0.17084 0.0
Zn3 Zn 0.82607 0.21101 0.11445 0.0
Zn4 Zn 0.75867 0.30391 0.22188 0.0
Zn5 Zn 0.86439 0.35514 0.10252 0.0
O6 O 0.79104 0.23775 0.00765 0.0
O7 O 0.87047 0.3154 -0.0097 0.0
O8 O 0.98021 0.19946 0.20196 0.0
O9 O 0.91477 0.17046 0.09326 0.0
O10 O 0.76551 0.15144 0.17886 0.0
O11 O 0.70592 0.22342 0.24472 0.0
O12 O 0.69891 0.36419 0.15325 0.0
O13 O 0.97135 0.34902 0.26347 0.0
O14 O 0.78238 0.40986 0.08356 0.0
O15 O 0.9408 0.4113 0.15893 0.0
C16 C 0.82315 0.29164 0.37715 0.0
C17 C 0.82476 0.27501 -0.03815 0.0
C18 C 0.71877 0.16564 0.22848 0.0
C19 C 0.97156 0.16863 0.1347 0.0
C20 C 0.71907 0.40505 0.10156 0.0
C21 C 0.97576 0.40155 0.22568 0.0
O22 O 0.78943 0.33159 0.33333 0.0
O23 O 0.36434 0.77335 0.49723 0.0
Zn24 Zn 0.36474 0.72738 0.60315 0.0
O25 O 0.35196 0.7913 0.68157 0.0
Zn26 Zn 0.43784 0.80403 0.73803 0.0
Zn27 Zn 0.32698 0.87251 0.63899 0.0
Zn28 Zn 0.28452 0.76148 0.7538 0.0
O29 O 0.41169 0.82398 0.85027 0.0
O30 O 0.33694 0.74211 0.85934 0.0
O31 O 0.44248 0.66724 0.63921 0.0
O32 O 0.48789 0.72305 0.74425 0.0
O33 O 0.49604 0.86959 0.68117 0.0
O34 O 0.41281 0.92562 0.62016 0.0
O35 O 0.26281 0.91859 0.71796 0.0
O36 O 0.28092 0.67303 0.59131 0.0
O37 O 0.2304 0.83472 0.79009 0.0
O38 O 0.21813 0.6945 0.69849 0.0
C39 C 0.32328 0.81774 0.47421 0.0
C40 C 0.37411 0.78714 0.89251 0.0
C41 C 0.47687 0.91569 0.63589 0.0
C42 C 0.48465 0.67263 0.70106 0.0
C43 C 0.22919 0.89412 0.77622 0.0
C44 C 0.22677 0.66458 0.63151 0.0
O45 O 0.29302 0.85421 0.52417 0.0
H46 H 0.84669 0.36565 0.84664 0.0
H47 H 0.76878 0.17274 0.88033 0.0
H48 H 0.74328 0.16265 0.7327 0.0
H49 H 0.72128 0.40597 0.6759 0.0
H50 H 0.7857 0.45172 0.62383 0.0
H51 H 0.78953 0.44747 0.73383 0.0
H52 H 0.91546 0.40665 0.73128 0.0
H53 H 0.91239 0.41102 0.62167 0.0
H54 H 0.93342 0.33702 0.67121 0.0
H55 H 0.74284 0.16647 0.58431 0.0
H56 H 0.76669 0.18574 0.43931 0.0
H57 H 0.8384 0.37749 0.49977 0.0
C58 C 0.82366 0.32164 0.82276 0.0
C59 C 0.80974 0.27002 0.87415 0.0
C60 C 0.77944 0.21303 0.84152 0.0
C61 C 0.76434 0.20691 0.75803 0.0
C62 C 0.77889 0.25855 0.70875 0.0
C63 C 0.80743 0.31499 0.73959 0.0
C64 C 0.82311 0.36115 0.6723 0.0
C65 C 0.77713 0.42006 0.67672 0.0
C66 C 0.90068 0.38 0.67425 0.0
C67 C 0.80298 0.32014 0.59888 0.0
C68 C 0.77646 0.26151 0.62146 0.0
C69 C 0.76182 0.21262 0.56536 0.0
C70 C 0.77594 0.22364 0.48384 0.0
C71 C 0.8037 0.28299 0.46043 0.0
C72 C 0.81579 0.33233 0.5175 0.0
H73 H 0.30098 0.72802 0.35749 0.0
H74 H 0.32776 0.93136 0.39631 0.0
H75 H 0.33478 0.9468 0.24709 0.0
H76 H 0.41765 0.70984 0.21171 0.0
H77 H 0.36922 0.65263 0.14886 0.0
H78 H 0.3541 0.6581 0.25625 0.0
H79 H 0.22336 0.67737 0.22567 0.0
H80 H 0.23751 0.6703 0.11786 0.0
H81 H 0.19738 0.74038 0.15736 0.0
H82 H 0.36203 0.93674 0.10099 0.0
H83 H 0.3884 0.90504 -0.0393 0.0
H84 H 0.33566 0.70858 0.01545 0.0
C85 C 0.30612 0.77588 0.33392 0.0
C86 C 0.31383 0.82863 0.38693 0.0
C87 C 0.321 0.89073 0.35553 0.0
C88 C 0.32521 0.89979 0.27131 0.0
C89 C 0.32028 0.84632 0.22048 0.0
C90 C 0.30887 0.78577 0.25027 0.0
C91 C 0.30963 0.73593 0.18346 0.0
C92 C 0.36602 0.68625 0.20118 0.0
C93 C 0.23768 0.70414 0.1703 0.0
C94 C 0.32731 0.77748 0.11223 0.0
C95 C 0.33312 0.84096 0.13487 0.0
C96 C 0.35591 0.88751 0.08182 0.0
C97 C 0.37176 0.86884 0.00284 0.0
C98 C 0.36371 0.80438 -0.02225 0.0
C99 C 0.34122 0.75825 0.03309 0.0
H100 H 0.61065 0.67013 0.7808 0.0
H101 H 0.43331 0.551 0.70743 0.0
H102 H 0.47224 0.46915 0.80639 0.0
H103 H 0.73438 0.53612 0.81835 0.0
H104 H 0.7764 0.57837 0.90318 0.0
H105 H 0.73898 0.62189 0.81835 0.0
H106 H 0.66627 0.68545 0.91964 0.0
H107 H 0.70109 0.6405 0.00446 0.0
H108 H 0.60855 0.64327 -0.01479 0.0
H109 H 0.52107 0.40886 -0.06997 0.0
H110 H 0.59057 0.36344 0.0454 0.0
H111 H 0.73681 0.52171 0.03359 0.0
C112 C 0.58174 0.62557 0.78306 0.0
C113 C 0.51946 0.61647 0.73601 0.0
C114 C 0.48202 0.55824 0.74166 0.0
C115 C 0.5032 0.51195 0.79862 0.0
C116 C 0.5625 0.52435 0.84807 0.0
C117 C 0.60257 0.5788 0.83866 0.0
C118 C 0.66288 0.58196 0.90051 0.0
C119 C 0.73227 0.5794 0.85754 0.0
C120 C 0.65942 0.64132 -0.04432 0.0
C121 C 0.64946 0.52179 -0.05211 0.0
C122 C 0.59107 0.48934 0.91742 0.0
C123 C 0.56742 0.43347 -0.04641 0.0
C124 C 0.60649 0.4086 0.01997 0.0
C125 C 0.66868 0.43937 0.0487 0.0
C126 C 0.68923 0.49739 0.01318 0.0
H127 H 0.09805 0.39841 0.31471 0.0
H128 H 0.92864 0.52218 0.24484 0.0
H129 H 0.96821 0.59923 0.35265 0.0
H130 H 0.09659 0.42137 0.52515 0.0
H131 H 0.18942 0.42282 0.54284 0.0
H132 H 0.15119 0.37922 0.45693 0.0
H133 H 0.22609 0.44302 0.3567 0.0
H134 H 0.26666 0.48484 0.44263 0.0
H135 H 0.22601 0.52881 0.36016 0.0
H136 H 1.01996 0.65696 0.47929 0.0
H137 H 0.09643 0.70379 0.58997 0.0
H138 H 0.2349 0.54472 0.57067 0.0
C139 C 1.07073 0.44277 0.32038 0.0
C140 C 1.01079 0.45479 0.27094 0.0
C141 C 0.97559 0.51278 0.28089 0.0
C142 C 0.99702 0.55625 0.34291 0.0
C143 C 1.05437 0.54139 0.3934 0.0
C144 C 0.09218 0.48711 0.38073 0.0
C145 C 0.15298 0.48285 0.44166 0.0
C146 C 0.14714 0.423 0.49476 0.0
C147 C 0.22202 0.48505 0.39767 0.0
C148 C 0.14302 0.54269 0.49153 0.0
C149 C 1.08513 0.57531 0.4639 0.0
C150 C 1.06556 0.63191 0.50107 0.0
C151 C 0.1085 0.6576 0.56491 0.0
C152 C 0.17056 0.62708 0.58984 0.0
C153 C 0.18678 0.56812 0.55405 0.0
H154 H 0.16051 1.00986 0.763 0.0
H155 H 0.23167 0.8679 -0.063 0.0
H156 H 0.18886 0.93133 0.04991 0.0
H157 H 0.18814 0.15156 0.8965 0.0
H158 H 0.10847 0.18801 0.86169 0.0
H159 H 0.1539 0.13668 0.79403 0.0
H160 H 1.04309 0.0663 0.77148 0.0
H161 H 0.99737 0.1178 0.83826 0.0
H162 H 1.00118 1.0337 0.85878 0.0
H163 H 0.13475 1.00729 0.14514 0.0
H164 H 1.05669 0.08265 0.21216 0.0
H165 H 1.00994 0.16981 -0.02237 0.0
C166 C 0.16772 0.99283 0.82496 0.0
C167 C 0.20052 0.93439 0.84107 0.0
C168 C 0.20743 0.91283 0.92297 0.0
C169 C 0.18357 0.94869 -0.01208 0.0
C170 C 0.15127 1.00582 -0.02958 0.0
C171 C 0.14194 1.02733 0.89095 0.0
C172 C 0.098 0.08651 0.88878 0.0
C173 C 0.13963 0.1441 0.85845 0.0
C174 C 1.03094 0.07538 0.83625 0.0
C175 C 1.08307 0.09357 -0.02126 0.0
C176 C 0.11603 0.0477 0.02515 0.0
C177 C 0.1088 0.04375 0.10961 0.0
C178 C 1.06482 0.08677 0.14733 0.0
C179 C 1.02774 0.1317 0.09998 0.0
C180 C 1.03815 0.13583 0.0151 0.0
H181 H 0.4626 1.03107 0.55944 0.0
H182 H 0.60661 0.87669 0.59938 0.0
H183 H 0.68181 0.92169 0.49501 0.0
H184 H 0.47345 1.04166 0.34851 0.0
H185 H 0.47143 0.1273 0.3433 0.0
H186 H 0.43093 0.0865 0.42571 0.0
H187 H 0.50528 0.15223 0.53252 0.0
H188 H 0.54448 0.19466 0.45045 0.0
H189 H 0.59836 0.1547 0.52577 0.0
H190 H 0.7342 0.97662 0.37485 0.0
H191 H 0.77252 0.0495 0.26707 0.0
H192 H 0.59778 0.17105 0.31057 0.0
C193 C 0.51082 1.00759 0.5477 0.0
C194 C 0.52868 0.95035 0.58772 0.0
C195 C 0.5921 0.92093 0.57027 0.0
C196 C 0.63486 0.94578 0.51041 0.0
C197 C 0.61417 1.0007 0.4696 0.0
C198 C 0.55474 1.03235 0.48919 0.0
C199 C 0.54457 0.09085 0.43668 0.0
C200 C 0.47603 0.08626 0.38554 0.0
C201 C 0.54843 0.15171 0.48951 0.0
C202 C 0.6066 0.08627 0.38317 0.0
C203 C 0.6457 1.03357 0.40251 0.0
C204 C 0.70442 1.01846 0.35982 0.0
C205 C 0.72528 0.05971 0.29793 0.0
C206 C 0.68801 0.11583 0.2801 0.0
C207 C 0.62722 0.12841 0.32254 0.0
loop_
_geom_bond_atom_site_label_1
_geom_bond_atom_site_label_2
_geom_bond_distance
_geom_bond_site_symmetry_2
_ccdc_geom_bond_type
O0 Zn1 1.953 . S
O0 C16 1.225 . S
Zn1 O0 1.953 . S
Zn1 O2 1.949 . S
Zn1 O8 1.919 . S
Zn1 O13 1.924 . S
O2 Zn1 1.949 . S
O2 Zn3 1.923 . S
O2 Zn4 1.950 . S
O2 Zn5 1.945 . S
Zn3 O2 1.923 . S
Zn3 O6 1.933 . S
Zn3 O9 1.941 . S
Zn3 O10 1.965 . S
Zn4 O2 1.950 . S
Zn4 O11 1.938 . S
Zn4 O12 1.906 . S
Zn4 O22 1.953 . S
Zn5 O2 1.945 . S
Zn5 O7 1.932 . S
Zn5 O14 1.977 . S
Zn5 O15 1.910 . S
O6 Zn3 1.933 . S
O6 C17 1.226 1_554 S
O7 Zn5 1.932 . S
O7 C17 1.307 1_554 S
O8 Zn1 1.919 . S
O8 C19 1.253 . S
O9 Zn3 1.941 . S
O9 C19 1.283 . S
O10 Zn3 1.965 . S
O10 C18 1.303 . S
O11 Zn4 1.938 . S
O11 C18 1.247 . S
O12 Zn4 1.906 . S
O12 C20 1.304 . S
O13 Zn1 1.924 . S
O13 C21 1.311 . S
O14 Zn5 1.977 . S
O14 C20 1.272 . S
O15 Zn5 1.910 . S
O15 C21 1.231 . S
C16 O0 1.225 . S
C16 O22 1.298 . S
C17 O6 1.226 1_556 S
C17 O7 1.307 1_556 S
C18 O10 1.303 . S
C18 O11 1.247 . S
C19 O8 1.253 . S
C19 O9 1.283 . S
C20 O12 1.304 . S
C20 O14 1.272 . S
C21 O13 1.311 . S
C21 O15 1.231 . S
O22 Zn4 1.953 . S
O22 C16 1.298 . S
O23 Zn24 1.953 . S
O23 C39 1.225 . S
Zn24 O23 1.953 . S
Zn24 O25 1.949 . S
Zn24 O31 1.919 . S
Zn24 O36 1.924 . S
O25 Zn24 1.949 . S
O25 Zn26 1.923 . S
O25 Zn27 1.950 . S
O25 Zn28 1.945 . S
Zn26 O25 1.923 . S
Zn26 O29 1.933 . S
Zn26 O32 1.941 . S
Zn26 O33 1.965 . S
Zn27 O25 1.950 . S
Zn27 O34 1.938 . S
Zn27 O35 1.906 . S
Zn27 O45 1.953 . S
Zn28 O25 1.945 . S
Zn28 O30 1.932 . S
Zn28 O37 1.977 . S
Zn28 O38 1.910 . S
O29 Zn26 1.933 . S
O29 C40 1.226 1_556 S
O30 Zn28 1.932 . S
O30 C40 1.307 1_556 S
O31 Zn24 1.919 . S
O31 C42 1.253 . S
O32 Zn26 1.941 . S
O32 C42 1.283 . S
O33 Zn26 1.965 . S
O33 C41 1.303 . S
O34 Zn27 1.938 . S
O34 C41 1.247 . S
O35 Zn27 1.906 . S
O35 C43 1.304 . S
O36 Zn24 1.924 . S
O36 C44 1.311 . S
O37 Zn28 1.977 . S
O37 C43 1.272 . S
O38 Zn28 1.910 . S
O38 C44 1.231 . S
C39 O23 1.225 . S
C39 O45 1.298 . S
C40 O29 1.226 1_554 S
C40 O30 1.307 1_554 S
C41 O33 1.303 . S
C41 O34 1.247 . S
C42 O31 1.253 . S
C42 O32 1.283 . S
C43 O35 1.304 . S
C43 O37 1.272 . S
C44 O36 1.311 . S
C44 O38 1.231 . S
O45 Zn27 1.953 . S
O45 C39 1.298 . S
H46 C58 0.930 . S
H47 C60 0.930 1_554 S
H48 C61 0.930 . S
H49 C65 0.959 . S
H50 C65 0.959 . S
H51 C65 0.961 . S
H52 C66 0.960 . S
H53 C66 0.961 . S
H54 C66 0.959 . S
H55 C69 0.929 . S
H56 C70 0.931 . S
H57 C72 0.930 . S
C58 H46 0.930 . S
C58 C59 1.399 . S
C58 C63 1.399 . S
C59 C58 1.399 . S
C59 C60 1.376 . S
C60 H47 0.930 1_556 S
C60 C59 1.376 . S
C60 C61 1.388 . S
C61 H48 0.930 . S
C61 C60 1.388 . S
C61 C62 1.390 . S
C62 C61 1.390 . S
C62 C63 1.394 . S
C62 C68 1.465 . S
C63 C58 1.399 . S
C63 C62 1.394 . S
C63 C64 1.516 . S
C64 C63 1.516 . S
C64 C65 1.502 . S
C64 C66 1.561 . S
C64 C67 1.526 . S
C65 H49 0.959 . S
C65 H50 0.959 . S
C65 H51 0.961 . S
C65 C64 1.502 . S
C66 H52 0.960 . S
C66 H53 0.961 . S
C66 H54 0.959 . S
C66 C64 1.561 . S
C67 C64 1.526 . S
C67 C68 1.396 . S
C67 C72 1.390 . S
C68 C62 1.465 . S
C68 C67 1.396 . S
C68 C69 1.399 . S
C69 H55 0.929 . S
C69 C68 1.399 . S
C69 C70 1.385 . S
C70 H56 0.931 . S
C70 C69 1.385 . S
C70 C71 1.389 . S
C71 C70 1.389 . S
C71 C72 1.387 . S
C72 H57 0.930 . S
C72 C67 1.390 . S
C72 C71 1.387 . S
H73 C85 0.930 . S
H74 C87 0.930 . S
H75 C88 0.930 . S
H76 C92 0.959 . S
H77 C92 0.959 . S
H78 C92 0.961 . S
H79 C93 0.960 . S
H80 C93 0.961 . S
H81 C93 0.959 . S
H82 C96 0.929 . S
H83 C97 0.931 1_556 S
H84 C99 0.930 . S
C85 H73 0.930 . S
C85 C86 1.399 . S
C85 C90 1.399 . S
C86 C85 1.399 . S
C86 C87 1.376 . S
C87 H74 0.930 . S
C87 C86 1.376 . S
C87 C88 1.388 . S
C88 H75 0.930 . S
C88 C87 1.388 . S
C88 C89 1.390 . S
C89 C88 1.390 . S
C89 C90 1.394 . S
C89 C95 1.465 . S
C90 C85 1.399 . S
C90 C89 1.394 . S
C90 C91 1.516 . S
C91 C90 1.516 . S
C91 C92 1.502 . S
C91 C93 1.561 . S
C91 C94 1.526 . S
C92 H76 0.959 . S
C92 H77 0.959 . S
C92 H78 0.961 . S
C92 C91 1.502 . S
C93 H79 0.960 . S
C93 H80 0.961 . S
C93 H81 0.959 . S
C93 C91 1.561 . S
C94 C91 1.526 . S
C94 C95 1.396 . S
C94 C99 1.390 . S
C95 C89 1.465 . S
C95 C94 1.396 . S
C95 C96 1.399 . S
C96 H82 0.929 . S
C96 C95 1.399 . S
C96 C97 1.385 . S
C97 H83 0.931 1_554 S
C97 C96 1.385 . S
C97 C98 1.389 . S
C98 C97 1.389 . S
C98 C99 1.387 . S
C99 H84 0.930 . S
C99 C94 1.390 . S
C99 C98 1.387 . S
H100 C112 0.930 . S
H101 C114 0.930 . S
H102 C115 0.930 1_554 S
H103 C119 0.959 . S
H104 C119 0.959 . S
H105 C119 0.961 . S
H106 C120 0.960 1_556 S
H107 C120 0.961 . S
H108 C120 0.959 . S
H109 C123 0.929 . S
H110 C124 0.931 . S
H111 C126 0.930 . S
C112 H100 0.930 . S
C112 C113 1.399 . S
C112 C117 1.399 . S
C113 C112 1.399 . S
C113 C114 1.376 . S
C114 H101 0.930 . S
C114 C113 1.376 . S
C114 C115 1.388 . S
C115 H102 0.930 1_556 S
C115 C114 1.388 . S
C115 C116 1.390 . S
C116 C115 1.390 . S
C116 C117 1.394 . S
C116 C122 1.465 1_556 S
C117 C112 1.399 . S
C117 C116 1.394 . S
C117 C118 1.516 . S
C118 C117 1.516 . S
C118 C119 1.502 . S
C118 C120 1.561 1_556 S
C118 C121 1.526 1_556 S
C119 H103 0.959 . S
C119 H104 0.959 . S
C119 H105 0.961 . S
C119 C118 1.502 . S
C120 H106 0.960 1_554 S
C120 H107 0.961 . S
C120 H108 0.959 . S
C120 C118 1.561 1_554 S
C121 C118 1.526 1_554 S
C121 C122 1.396 . S
C121 C126 1.390 . S
C122 C116 1.465 1_554 S
C122 C121 1.396 . S
C122 C123 1.399 . S
C123 H109 0.929 . S
C123 C122 1.399 . S
C123 C124 1.385 . S
C124 H110 0.931 . S
C124 C123 1.385 . S
C124 C125 1.389 . S
C125 C124 1.389 . S
C125 C126 1.387 . S
C126 H111 0.930 . S
C126 C121 1.390 . S
C126 C125 1.387 . S
H127 C139 0.930 . S
H128 C141 0.930 . S
H129 C142 0.930 . S
H130 C146 0.959 . S
H131 C146 0.959 . S
H132 C146 0.961 . S
H133 C147 0.960 . S
H134 C147 0.961 . S
H135 C147 0.959 . S
H136 C150 0.929 . S
H137 C151 0.931 . S
H138 C153 0.930 . S
C139 H127 0.930 . S
C139 C140 1.399 . S
C139 C144 1.399 . S
C140 C139 1.399 . S
C140 C141 1.376 . S
C141 H128 0.930 . S
C141 C140 1.376 . S
C141 C142 1.388 . S
C142 H129 0.930 . S
C142 C141 1.388 . S
C142 C143 1.390 . S
C143 C142 1.390 . S
C143 C144 1.394 . S
C143 C149 1.465 1_655 S
C144 C139 1.399 . S
C144 C143 1.394 . S
C144 C145 1.516 1_655 S
C145 C144 1.516 1_455 S
C145 C146 1.502 1_455 S
C145 C147 1.561 . S
C145 C148 1.526 . S
C146 H130 0.959 . S
C146 H131 0.959 . S
C146 H132 0.961 . S
C146 C145 1.502 1_655 S
C147 H133 0.960 . S
C147 H134 0.961 . S
C147 H135 0.959 . S
C147 C145 1.561 . S
C148 C145 1.526 . S
C148 C149 1.396 . S
C148 C153 1.390 . S
C149 C143 1.465 1_455 S
C149 C148 1.396 . S
C149 C150 1.399 . S
C150 H136 0.929 . S
C150 C149 1.399 . S
C150 C151 1.385 . S
C151 H137 0.931 . S
C151 C150 1.385 . S
C151 C152 1.389 . S
C152 C151 1.389 . S
C152 C153 1.387 . S
C153 H138 0.930 . S
C153 C148 1.390 . S
C153 C152 1.387 . S
H154 C166 0.930 . S
H155 C168 0.930 . S
H156 C169 0.930 . S
H157 C173 0.959 1_455 S
H158 C173 0.959 . S
H159 C173 0.961 . S
H160 C174 0.964 . S
H161 C174 0.954 1_545 S
H162 C174 0.966 . S
H163 C177 0.929 1_565 S
H164 C178 0.931 . S
H165 C180 0.930 . S
C166 H154 0.930 . S
C166 C167 1.399 . S
C166 C171 1.399 . S
C167 C166 1.399 . S
C167 C168 1.376 . S
C168 H155 0.930 . S
C168 C167 1.376 . S
C168 C169 1.388 1_556 S
C169 H156 0.930 . S
C169 C168 1.388 1_554 S
C169 C170 1.390 . S
C170 C169 1.390 . S
C170 C171 1.394 1_554 S
C170 C176 1.458 1_465 S
C171 C166 1.399 . S
C171 C170 1.394 1_556 S
C171 C172 1.516 1_465 S
C172 C171 1.516 1_645 S
C172 C173 1.502 . S
C172 C174 1.557 1_545 S
C172 C175 1.526 1_556 S
C173 H157 0.959 1_655 S
C173 H158 0.959 . S
C173 H159 0.961 . S
C173 C172 1.502 . S
C174 H160 0.964 . S
C174 H161 0.954 1_565 S
C174 H162 0.966 . S
C174 C172 1.557 1_565 S
C175 C172 1.526 1_554 S
C175 C176 1.404 . S
C175 C180 1.390 . S
C176 C170 1.458 1_645 S
C176 C175 1.404 . S
C176 C177 1.399 . S
C177 H163 0.929 1_545 S
C177 C176 1.399 . S
C177 C178 1.385 . S
C178 H164 0.931 . S
C178 C177 1.385 . S
C178 C179 1.389 . S
C179 C178 1.389 . S
C179 C180 1.387 . S
C180 H165 0.930 . S
C180 C175 1.390 . S
C180 C179 1.387 . S
H181 C193 0.930 . S
H182 C195 0.930 . S
H183 C196 0.930 . S
H184 C200 0.959 . S
H185 C200 0.959 . S
H186 C200 0.961 . S
H187 C201 0.960 . S
H188 C201 0.955 1_545 S
H189 C201 0.959 . S
H190 C204 0.929 1_565 S
H191 C205 0.931 . S
H192 C207 0.930 . S
C193 H181 0.930 . S
C193 C194 1.399 . S
C193 C198 1.399 . S
C194 C193 1.399 . S
C194 C195 1.376 . S
C195 H182 0.930 . S
C195 C194 1.376 . S
C195 C196 1.388 . S
C196 H183 0.930 . S
C196 C195 1.388 . S
C196 C197 1.390 . S
C197 C196 1.390 . S
C197 C198 1.394 . S
C197 C203 1.465 1_565 S
C198 C193 1.399 . S
C198 C197 1.394 . S
C198 C199 1.516 1_565 S
C199 C198 1.516 1_545 S
C199 C200 1.502 . S
C199 C201 1.561 1_545 S
C199 C202 1.526 . S
C200 H184 0.959 . S
C200 H185 0.959 . S
C200 H186 0.961 . S
C200 C199 1.502 . S
C201 H187 0.960 . S
C201 H188 0.955 1_565 S
C201 H189 0.959 . S
C201 C199 1.561 1_565 S
C202 C199 1.526 . S
C202 C203 1.396 . S
C202 C207 1.390 . S
C203 C197 1.465 1_545 S
C203 C202 1.396 . S
C203 C204 1.399 . S
C204 H190 0.929 1_545 S
C204 C203 1.399 . S
C204 C205 1.385 . S
C205 H191 0.931 . S
C205 C204 1.385 . S
C205 C206 1.389 . S
C206 C205 1.389 . S
C206 C207 1.387 . S
C207 H192 0.930 . S
C207 C202 1.390 . S
C207 C206 1.387 . S
C59 C17 0.201 . S
C71 C16 0.134 . S
C86 C39 0.191 . S
C98 C40 0.105 . S
C113 C42 2.081 . S
C125 C20 2.086 . S
C140 C21 2.055 . S
C152 C44 2.038 . S
C167 C43 2.055 . S
C179 C19 2.090 . S
C194 C41 2.099 . S
C206 C18 2.115 . S
