# Generated by pormake.
# Topology mdf, (4)-cn, num edge types: 1
# Building blocks:
#     Node 0, Type 0, BuildingBlock: QUQFOY_clean_sbu_3, # of connection points: 4
#     Node 1, Type 0, BuildingBlock: QUQFOY_clean_sbu_3, # of connection points: 4
#     Node 2, Type 0, BuildingBlock: QUQFOY_clean_sbu_3, # of connection points: 4
#     Node 3, Type 0, BuildingBlock: QUQFOY_clean_sbu_3, # of connection points: 4
#     Node 4, Type 0, BuildingBlock: QUQFOY_clean_sbu_3, # of connection points: 4
#     Node 5, Type 0, BuildingBlock: QUQFOY_clean_sbu_3, # of connection points: 4
#     Node 6, Type 0, BuildingBlock: QUQFOY_clean_sbu_3, # of connection points: 4
#     Node 7, Type 0, BuildingBlock: QUQFOY_clean_sbu_3, # of connection points: 4
#     Edge 8, Type (0, 0), None
#     Edge 9, Type (0, 0), None
#     Edge 10, Type (0, 0), None
#     Edge 11, Type (0, 0), None
#     Edge 12, Type (0, 0), None
#     Edge 13, Type (0, 0), None
#     Edge 14, Type (0, 0), None
#     Edge 15, Type (0, 0), None
#     Edge 16, Type (0, 0), None
#     Edge 17, Type (0, 0), None
#     Edge 18, Type (0, 0), None
#     Edge 19, Type (0, 0), None
#     Edge 20, Type (0, 0), None
#     Edge 21, Type (0, 0), None
#     Edge 22, Type (0, 0), None
#     Edge 23, Type (0, 0), None
# Relax obj value: 0.015
# Max RMSD: 0.040
# Mean RMSD: 0.040
data_MOF--net-mdf--node1-QUQFOY_clean_sbu_3--edge1-none
_symmetry_space_group_name_H-M    P1
_symmetry_Int_Tables_number       1
_symmetry_cell_setting            triclinic
loop_
_symmetry_equiv_pos_as_xyz
'x, y, z'
_cell_length_a     18.455175
_cell_length_b     18.446076
_cell_length_c     6.0781536
_cell_angle_alpha  89.994677
_cell_angle_beta   89.995851
_cell_angle_gamma 95.498128
loop_
_atom_site_label
_atom_site_type_symbol
_atom_site_fract_x
_atom_site_fract_y
_atom_site_fract_z
_atom_type_partial_charge
C0 C 0.33807 0.56016 -0.01619 0.0
O1 O 0.31428 0.51167 0.84721 0.0
Cd2 Cd 0.22632 0.41112 0.92642 0.0
O3 O 0.31098 0.56436 0.1746 0.0
Cd4 Cd 0.21136 0.50578 0.38807 0.0
C5 C 0.31037 0.36007 0.39563 0.0
O6 O 0.12875 0.46013 0.11182 0.0
O7 O 0.10664 0.42002 0.44332 0.0
O8 O 0.16015 0.61998 0.42843 0.0
C9 C 0.08878 0.42013 0.24209 0.0
O10 O 0.29451 0.34833 0.19427 0.0
C11 C 0.16061 0.61809 0.63695 0.0
O12 O 0.28807 0.41309 0.50221 0.0
O13 O 0.18926 0.56611 0.72977 0.0
C14 C 0.39384 0.61594 0.91579 0.0
O15 O 0.44231 0.63975 0.0524 0.0
Cd16 Cd 0.54281 0.72778 -0.02666 0.0
O17 O 0.38964 0.64306 0.725 0.0
Cd18 Cd 0.44816 0.7427 0.51138 0.0
C19 C 0.59383 0.64367 0.5041 0.0
O20 O 0.4938 0.8253 0.78763 0.0
O21 O 0.53383 0.84753 0.45614 0.0
O22 O 0.33397 0.79388 0.47111 0.0
C23 C 0.53378 0.86531 0.65744 0.0
O24 O 0.60556 0.65955 0.70546 0.0
C25 C 0.33583 0.7934 0.26258 0.0
O26 O 0.54084 0.66597 0.39747 0.0
O27 O 0.38781 0.76477 0.16973 0.0
C28 C 0.11317 0.89639 0.48384 0.0
O29 O 0.13698 0.94488 0.34723 0.0
Cd30 Cd 0.22493 0.04543 0.42638 0.0
O31 O 0.14025 0.89219 0.67464 0.0
Cd32 Cd 0.23988 0.95078 0.888 0.0
C33 C 0.14087 0.09647 0.89557 0.0
O34 O 0.32251 -0.00355 0.61177 0.0
O35 O 0.34455 0.03658 0.94326 0.0
O36 O 0.29116 0.8366 0.92831 0.0
C37 C 0.36245 0.03645 0.74207 0.0
O38 O 0.15673 0.10822 0.69419 0.0
C39 C 0.29069 0.83848 0.13684 0.0
O40 O 0.16316 0.04345 0.00215 0.0
O41 O 0.26199 0.89043 0.22969 0.0
C42 C 0.0574 0.84061 0.41583 0.0
O43 O 0.00892 0.8168 0.55243 0.0
Cd44 Cd 0.90843 0.72876 0.47343 0.0
O45 O 0.06162 0.81349 0.22505 0.0
Cd46 Cd 0.00313 0.71387 0.01142 0.0
C47 C 0.85742 0.81287 0.00418 0.0
O48 O 0.95745 0.63126 0.28764 0.0
O49 O 0.91747 0.60905 -0.04389 0.0
O50 O 0.11731 0.66267 -0.02878 0.0
C51 C 0.91749 0.59126 0.15742 0.0
O52 O 0.84568 0.79698 0.20555 0.0
C53 C 0.11546 0.66318 0.76269 0.0
O54 O 0.91042 0.7906 0.89755 0.0
O55 O 0.06351 0.69183 0.6698 0.0
C56 C 0.83773 0.06039 0.48367 0.0
O57 O 0.81407 0.01194 0.34674 0.0
Cd58 Cd 0.72624 0.91126 0.42564 0.0
O59 O 0.81055 0.0644 0.67442 0.0
Cd60 Cd 0.71092 0.00547 0.88714 0.0
C61 C 0.81022 0.86004 0.8947 0.0
O62 O 0.62832 0.95991 0.61045 0.0
O63 O 0.60643 0.91943 0.94172 0.0
O64 O 0.65946 0.11952 0.92853 0.0
C65 C 0.58846 0.91976 0.74061 0.0
O66 O 0.79446 0.84838 0.69324 0.0
C67 C 0.6599 0.11742 0.13703 0.0
O68 O 0.78778 0.91296 0.00143 0.0
O69 O 0.6886 0.06538 0.22939 0.0
C70 C 0.89355 0.11622 0.41627 0.0
O71 O 0.94197 0.13988 0.5532 0.0
Cd72 Cd 0.04265 0.22772 0.47427 0.0
O73 O 0.88954 0.14342 0.22554 0.0
Cd74 Cd 0.94841 0.24309 0.01275 0.0
C75 C 0.09374 0.14369 0.00511 0.0
O76 O -0.00591 0.3257 0.28927 0.0
O77 O 0.03446 0.34757 -0.04211 0.0
O78 O 0.83445 0.29465 -0.02839 0.0
C79 C 0.03424 0.36553 0.15903 0.0
O80 O 0.10542 0.15945 0.20657 0.0
C81 C 0.83645 0.29412 0.7631 0.0
O82 O 0.04084 0.16615 0.89843 0.0
O83 O 0.88841 0.26535 0.67065 0.0
C84 C 0.61351 0.39616 -0.01631 0.0
O85 O 0.63718 0.4446 0.84674 0.0
Cd86 Cd 0.72501 0.54529 0.92558 0.0
O87 O 0.64068 0.39215 0.17444 0.0
Cd88 Cd 0.74033 0.45108 0.38704 0.0
C89 C 0.64103 0.5965 0.39462 0.0
O90 O 0.82295 0.49666 0.11037 0.0
O91 O 0.84476 0.53716 0.44164 0.0
O92 O 0.79184 0.33707 0.42839 0.0
C93 C 0.86278 0.53682 0.24055 0.0
O94 O 0.6568 0.60817 0.19315 0.0
C95 C 0.79139 0.33915 0.63689 0.0
O96 O 0.66346 0.54358 0.50136 0.0
O97 O 0.76264 0.39115 0.72928 0.0
C98 C 0.5577 0.34034 0.9163 0.0
O99 O 0.50926 0.31667 0.05323 0.0
Cd100 Cd 0.40859 0.22882 -0.02564 0.0
O101 O 0.56172 0.31314 0.72558 0.0
Cd102 Cd 0.50286 0.21349 0.51279 0.0
C103 C 0.35751 0.31286 0.50519 0.0
O104 O 0.45715 0.13087 0.7893 0.0
O105 O 0.41683 0.109 0.45788 0.0
O106 O 0.61682 0.16191 0.47174 0.0
C107 C 0.41702 0.09105 0.65903 0.0
O108 O 0.34582 0.29709 0.70665 0.0
C109 C 0.61483 0.16245 0.26323 0.0
O110 O 0.41041 0.29042 0.39851 0.0
O111 O 0.5629 0.19126 0.17073 0.0
loop_
_geom_bond_atom_site_label_1
_geom_bond_atom_site_label_2
_geom_bond_distance
_geom_bond_site_symmetry_2
_ccdc_geom_bond_type
C0 O1 1.306 1_554 S
C0 O3 1.160 . S
O1 C0 1.306 1_556 S
O1 Cd2 2.228 . S
Cd2 O1 2.228 . S
Cd2 O6 2.273 1_556 S
Cd2 O10 2.277 1_556 S
O3 C0 1.160 . S
O3 Cd4 2.203 . S
Cd4 O3 2.203 . S
Cd4 O6 2.411 . S
Cd4 O7 2.333 . S
Cd4 O8 2.352 . S
Cd4 O12 2.277 . S
Cd4 O13 2.356 . S
C5 O10 1.209 . S
C5 O12 1.226 . S
O6 Cd2 2.273 1_554 S
O6 Cd4 2.411 . S
O6 C9 1.320 . S
O7 Cd4 2.333 . S
O7 C9 1.214 . S
O8 Cd4 2.352 . S
O8 C11 1.258 . S
C9 O6 1.320 . S
C9 O7 1.214 . S
O10 Cd2 2.277 1_554 S
O10 C5 1.209 . S
C11 O8 1.258 . S
C11 O13 1.282 . S
O12 Cd4 2.277 . S
O12 C5 1.226 . S
O13 Cd4 2.356 . S
O13 C11 1.282 . S
C14 O15 1.306 1_556 S
C14 O17 1.160 . S
O15 C14 1.306 1_554 S
O15 Cd16 2.228 . S
Cd16 O15 2.228 . S
Cd16 O20 2.273 1_554 S
Cd16 O24 2.277 1_554 S
O17 C14 1.160 . S
O17 Cd18 2.203 . S
Cd18 O17 2.203 . S
Cd18 O20 2.411 . S
Cd18 O21 2.333 . S
Cd18 O22 2.352 . S
Cd18 O26 2.277 . S
Cd18 O27 2.356 . S
C19 O24 1.209 . S
C19 O26 1.226 . S
O20 Cd16 2.273 1_556 S
O20 Cd18 2.411 . S
O20 C23 1.320 . S
O21 Cd18 2.333 . S
O21 C23 1.214 . S
O22 Cd18 2.352 . S
O22 C25 1.258 . S
C23 O20 1.320 . S
C23 O21 1.214 . S
O24 Cd16 2.277 1_556 S
O24 C19 1.209 . S
C25 O22 1.258 . S
C25 O27 1.282 . S
O26 Cd18 2.277 . S
O26 C19 1.226 . S
O27 Cd18 2.356 . S
O27 C25 1.282 . S
C28 O29 1.306 . S
C28 O31 1.160 . S
O29 C28 1.306 . S
O29 Cd30 2.228 1_565 S
Cd30 O29 2.228 1_545 S
Cd30 O34 2.273 . S
Cd30 O38 2.277 . S
O31 C28 1.160 . S
O31 Cd32 2.203 . S
Cd32 O31 2.203 . S
Cd32 O34 2.411 1_565 S
Cd32 O35 2.333 1_565 S
Cd32 O36 2.352 . S
Cd32 O40 2.277 1_566 S
Cd32 O41 2.356 1_556 S
C33 O38 1.209 . S
C33 O40 1.226 1_556 S
O34 Cd30 2.273 . S
O34 Cd32 2.411 1_545 S
O34 C37 1.320 . S
O35 Cd32 2.333 1_545 S
O35 C37 1.214 . S
O36 Cd32 2.352 . S
O36 C39 1.258 1_556 S
C37 O34 1.320 . S
C37 O35 1.214 . S
O38 Cd30 2.277 . S
O38 C33 1.209 . S
C39 O36 1.258 1_554 S
C39 O41 1.282 . S
O40 Cd32 2.277 1_544 S
O40 C33 1.226 1_554 S
O41 Cd32 2.356 1_554 S
O41 C39 1.282 . S
C42 O43 1.306 . S
C42 O45 1.160 . S
O43 C42 1.306 . S
O43 Cd44 2.228 1_455 S
Cd44 O43 2.228 1_655 S
Cd44 O48 2.273 . S
Cd44 O52 2.277 . S
O45 C42 1.160 . S
O45 Cd46 2.203 . S
Cd46 O45 2.203 . S
Cd46 O48 2.411 1_455 S
Cd46 O49 2.333 1_455 S
Cd46 O50 2.352 . S
Cd46 O54 2.277 1_454 S
Cd46 O55 2.356 1_554 S
C47 O52 1.209 . S
C47 O54 1.226 1_554 S
O48 Cd44 2.273 . S
O48 Cd46 2.411 1_655 S
O48 C51 1.320 . S
O49 Cd46 2.333 1_655 S
O49 C51 1.214 . S
O50 Cd46 2.352 . S
O50 C53 1.258 1_554 S
C51 O48 1.320 . S
C51 O49 1.214 . S
O52 Cd44 2.277 . S
O52 C47 1.209 . S
C53 O50 1.258 1_556 S
C53 O55 1.282 . S
O54 Cd46 2.277 1_656 S
O54 C47 1.226 1_556 S
O55 Cd46 2.356 1_556 S
O55 C53 1.282 . S
C56 O57 1.306 . S
C56 O59 1.160 . S
O57 C56 1.306 . S
O57 Cd58 2.228 1_545 S
Cd58 O57 2.228 1_565 S
Cd58 O62 2.273 . S
Cd58 O66 2.277 . S
O59 C56 1.160 . S
O59 Cd60 2.203 . S
Cd60 O59 2.203 . S
Cd60 O62 2.411 1_545 S
Cd60 O63 2.333 1_545 S
Cd60 O64 2.352 . S
Cd60 O68 2.277 1_546 S
Cd60 O69 2.356 1_556 S
C61 O66 1.209 . S
C61 O68 1.226 1_556 S
O62 Cd58 2.273 . S
O62 Cd60 2.411 1_565 S
O62 C65 1.320 . S
O63 Cd60 2.333 1_565 S
O63 C65 1.214 . S
O64 Cd60 2.352 . S
O64 C67 1.258 1_556 S
C65 O62 1.320 . S
C65 O63 1.214 . S
O66 Cd58 2.277 . S
O66 C61 1.209 . S
C67 O64 1.258 1_554 S
C67 O69 1.282 . S
O68 Cd60 2.277 1_564 S
O68 C61 1.226 1_554 S
O69 Cd60 2.356 1_554 S
O69 C67 1.282 . S
C70 O71 1.306 . S
C70 O73 1.160 . S
O71 C70 1.306 . S
O71 Cd72 2.228 1_655 S
Cd72 O71 2.228 1_455 S
Cd72 O76 2.273 . S
Cd72 O80 2.277 . S
O73 C70 1.160 . S
O73 Cd74 2.203 . S
Cd74 O73 2.203 . S
Cd74 O76 2.411 1_655 S
Cd74 O77 2.333 1_655 S
Cd74 O78 2.352 . S
Cd74 O82 2.277 1_654 S
Cd74 O83 2.356 1_554 S
C75 O80 1.209 . S
C75 O82 1.226 1_554 S
O76 Cd72 2.273 . S
O76 Cd74 2.411 1_455 S
O76 C79 1.320 . S
O77 Cd74 2.333 1_455 S
O77 C79 1.214 . S
O78 Cd74 2.352 . S
O78 C81 1.258 1_554 S
C79 O76 1.320 . S
C79 O77 1.214 . S
O80 Cd72 2.277 . S
O80 C75 1.209 . S
C81 O78 1.258 1_556 S
C81 O83 1.282 . S
O82 Cd74 2.277 1_456 S
O82 C75 1.226 1_556 S
O83 Cd74 2.356 1_556 S
O83 C81 1.282 . S
C84 O85 1.306 1_554 S
C84 O87 1.160 . S
O85 C84 1.306 1_556 S
O85 Cd86 2.228 . S
Cd86 O85 2.228 . S
Cd86 O90 2.273 1_556 S
Cd86 O94 2.277 1_556 S
O87 C84 1.160 . S
O87 Cd88 2.203 . S
Cd88 O87 2.203 . S
Cd88 O90 2.411 . S
Cd88 O91 2.333 . S
Cd88 O92 2.352 . S
Cd88 O96 2.277 . S
Cd88 O97 2.356 . S
C89 O94 1.209 . S
C89 O96 1.226 . S
O90 Cd86 2.273 1_554 S
O90 Cd88 2.411 . S
O90 C93 1.320 . S
O91 Cd88 2.333 . S
O91 C93 1.214 . S
O92 Cd88 2.352 . S
O92 C95 1.258 . S
C93 O90 1.320 . S
C93 O91 1.214 . S
O94 Cd86 2.277 1_554 S
O94 C89 1.209 . S
C95 O92 1.258 . S
C95 O97 1.282 . S
O96 Cd88 2.277 . S
O96 C89 1.226 . S
O97 Cd88 2.356 . S
O97 C95 1.282 . S
C98 O99 1.306 1_556 S
C98 O101 1.160 . S
O99 C98 1.306 1_554 S
O99 Cd100 2.228 . S
Cd100 O99 2.228 . S
Cd100 O104 2.273 1_554 S
Cd100 O108 2.277 1_554 S
O101 C98 1.160 . S
O101 Cd102 2.203 . S
Cd102 O101 2.203 . S
Cd102 O104 2.411 . S
Cd102 O105 2.333 . S
Cd102 O106 2.352 . S
Cd102 O110 2.277 . S
Cd102 O111 2.356 . S
C103 O108 1.209 . S
C103 O110 1.226 . S
O104 Cd100 2.273 1_556 S
O104 Cd102 2.411 . S
O104 C107 1.320 . S
O105 Cd102 2.333 . S
O105 C107 1.214 . S
O106 Cd102 2.352 . S
O106 C109 1.258 . S
C107 O104 1.320 . S
C107 O105 1.214 . S
O108 Cd100 2.277 1_556 S
O108 C103 1.209 . S
C109 O106 1.258 . S
C109 O111 1.282 . S
O110 Cd102 2.277 . S
O110 C103 1.226 . S
O111 Cd102 2.356 . S
O111 C109 1.282 . S
C14 C0 1.426 1_556 S
C25 C39 1.455 . S
C42 C28 1.426 . S
C53 C11 1.455 . S
C56 C70 1.426 . S
C81 C95 1.455 . S
C84 C98 1.426 1_554 S
C67 C109 1.455 . S
C5 C103 1.462 . S
C65 C23 1.451 . S
C75 C33 1.462 1_554 S
C51 C93 1.451 . S
C37 C107 1.451 . S
C61 C47 1.462 1_556 S
C79 C9 1.451 . S
C19 C89 1.462 . S
