# Generated by pormake.
# Topology pcu, (6)-cn, num edge types: 1
# Building blocks:
#     Node 0, Type 0, BuildingBlock: BETFEN_clean_sbu_0, # of connection points: 6
#     Edge 1, Type (0, 0), BuildingBlock: ZUJKAS_clean_linker_0, # of connection points: 2
#     Edge 2, Type (0, 0), BuildingBlock: ZUJKAS_clean_linker_0, # of connection points: 2
#     Edge 3, Type (0, 0), BuildingBlock: ZUJKAS_clean_linker_0, # of connection points: 2
# Relax obj value: 0.000
# Max RMSD: 0.000
# Mean RMSD: 0.000
data_MOF--net-pcu--node1-BETFEN_clean_sbu_0--edge1-ZUJKAS_clean_linker_0
_symmetry_space_group_name_H-M    P1
_symmetry_Int_Tables_number       1
_symmetry_cell_setting            triclinic
loop_
_symmetry_equiv_pos_as_xyz
'x, y, z'
_cell_length_a     30.160091
_cell_length_b     20.030187
_cell_length_c     18.793706
_cell_angle_alpha  88.27328
_cell_angle_beta   96.327788
_cell_angle_gamma 122.43422
loop_
_atom_site_label
_atom_site_type_symbol
_atom_site_fract_x
_atom_site_fract_y
_atom_site_fract_z
_atom_type_partial_charge
Pr0 Pr 0.95997 0.92998 0.03115 0.0
Pr1 Pr 0.07816 0.02387 1.00288 0.0
C2 C 0.86539 0.87858 0.07763 0.0
C3 C 0.82319 0.89582 0.06871 0.0
C4 C 0.81091 0.9217 1.00353 0.0
C5 C 0.76958 0.93518 0.99555 0.0
C6 C 0.73992 0.92365 0.05275 0.0
C7 C 0.75301 0.89892 0.11825 0.0
C8 C 0.79412 0.88505 0.12603 0.0
C9 C 0.97644 0.94034 0.88739 0.0
C10 C 0.02475 0.12543 1.01158 0.0
C11 C 0.1736 0.07643 0.95874 0.0
C12 C 0.2163 0.05989 0.96745 0.0
C13 C 0.2681 0.12101 0.99161 0.0
C14 C 0.30938 0.10758 0.9995 0.0
C15 C 0.29995 0.03263 0.98303 0.0
C16 C 0.24798 0.97136 0.95873 0.0
C17 C 0.20659 -0.01525 0.95117 0.0
C18 C 0.06101 0.01318 0.14654 0.0
C19 C 1.01329 0.82837 0.02131 0.0
O20 O 0.91043 0.93169 0.11303 0.0
O21 O 0.87113 0.84693 0.02224 0.0
O22 O 1.00255 -0.00387 0.93354 0.0
O23 O 0.93798 0.87795 0.91361 0.0
O24 O 0.06075 0.12259 0.98019 0.0
O25 O 0.98757 0.06327 0.04227 0.0
O26 O 0.12877 0.02481 0.92179 0.0
O27 O 0.16741 0.1069 1.01454 0.0
O28 O 0.03554 0.95749 0.10028 0.0
O29 O 0.09914 0.07605 0.12043 0.0
O30 O 0.97739 0.83114 0.05305 0.0
O31 O 0.05049 0.89066 0.99077 0.0
H32 H 0.83309 0.93113 0.95865 0.0
H33 H 0.76111 0.95524 0.9447 0.0
H34 H 0.73075 0.88864 0.16319 0.0
H35 H 0.8029 0.8651 0.17678 0.0
H36 H 0.27675 0.17958 1.00409 0.0
H37 H 0.34894 0.15642 0.01739 0.0
H38 H 0.23915 0.91271 0.94629 0.0
H39 H 0.16708 0.93629 0.93257 0.0
H40 H 0.98437 0.88461 0.20976 0.0
H41 H 0.96894 0.87283 0.33617 0.0
H42 H 0.10047 0.11309 0.3798 0.0
H43 H 0.11572 0.12557 0.2535 0.0
H44 H 0.04101 0.89241 0.45579 0.0
H45 H 0.97928 0.10773 0.46648 0.0
H46 H 0.98089 0.06678 0.38321 0.0
H47 H 0.041 0.14554 0.43061 0.0
C48 C 1.0098 0.93495 0.24634 0.0
C49 C 0.0512 0.00603 0.22213 0.0
C50 C 1.00097 0.92815 0.31833 0.0
C51 C 0.03318 -0.00757 0.36689 0.0
C52 C 0.07461 0.06336 0.34279 0.0
H53 H 0.05302 0.06831 0.8235 0.0
H54 H 0.06769 0.07958 0.69682 0.0
C55 C 0.08345 0.07023 0.27084 0.0
C56 C 0.02455 -0.01549 0.4433 0.0
H57 H 0.99474 0.05989 0.57754 0.0
C58 C 0.03061 0.92864 0.48245 0.0
C59 C 1.01117 0.03217 0.47763 0.0
C60 C 1.00221 0.09099 0.4373 0.0
C61 C 0.02453 0.92006 0.55568 0.0
C62 C 1.01123 0.9678 0.59003 0.0
C63 C 1.00511 0.02361 0.55087 0.0
C64 C 1.00292 0.96022 0.66654 0.0
C65 C 0.03343 0.86119 0.59602 0.0
C66 C 0.96143 0.88958 0.69096 0.0
C67 C 0.95301 0.88301 0.76306 0.0
C68 C 0.98575 0.9472 0.81161 0.0
C69 C 0.02721 0.01798 0.78706 0.0
C70 C 0.03561 0.0245 0.71491 0.0
H71 H 0.05599 0.84393 0.56662 0.0
H72 H 0.0551 0.88566 0.6499 0.0
H73 H 0.99462 0.80693 0.60323 0.0
H74 H 0.93524 0.83984 0.6541 0.0
H75 H 0.92068 0.82788 0.78067 0.0
H76 H 0.31955 0.94913 0.89175 0.0
H77 H 0.39323 0.92879 0.90388 0.0
H78 H 0.45516 0.06627 0.10254 0.0
H79 H 0.38123 0.08568 0.09157 0.0
H80 H 0.50402 0.04771 0.91548 0.0
H81 H 0.45003 0.86031 0.15376 0.0
H82 H 0.40367 0.87656 0.09927 0.0
H83 H 0.45283 0.95154 0.16327 0.0
C84 C 0.34846 0.97421 0.93851 0.0
C85 C 0.34427 0.01888 0.99079 0.0
C86 C 0.39076 0.96294 0.94512 0.0
C87 C 0.42944 -0.00476 1.0045 0.0
C88 C 0.42542 0.03981 0.05676 0.0
H89 H 0.71379 -0.00498 0.14799 0.0
H90 H 0.63935 0.01331 0.13435 0.0
C91 C 0.38334 0.05148 0.05003 0.0
C92 C 0.47472 -0.01592 1.01095 0.0
H93 H 0.53376 0.90469 0.11623 0.0
C94 C 0.51042 0.01609 0.95913 0.0
C95 C 0.48318 0.94316 0.06812 0.0
C96 C 0.44524 0.90526 0.12405 0.0
C97 C 0.55493 0.00975 0.96373 0.0
C98 C 0.56336 0.96854 0.02083 0.0
C99 C 0.52747 0.93634 0.07251 0.0
C100 C 0.60912 0.95825 0.02817 0.0
C101 C 0.59328 0.04931 0.90846 0.0
C102 C 0.61686 0.9205 0.9734 0.0
C103 C 0.65953 0.91013 0.981 0.0
C104 C 0.69513 0.93634 0.04399 0.0
C105 C 0.68697 0.97348 0.09903 0.0
C106 C 0.64447 -0.01578 0.0912 0.0
H107 H 0.58976 0.09674 0.88169 0.0
H108 H 0.63471 0.07543 0.93292 0.0
H109 H 0.58459 0.00467 0.86665 0.0
H110 H 0.58943 0.89794 0.92505 0.0
H111 H 0.66396 0.87997 0.93809 0.0
H112 H 0.08558 0.80669 0.9695 0.0
H113 H 0.08611 0.68568 0.96763 0.0
H114 H 0.94284 0.5634 0.07038 0.0
H115 H 0.94155 0.68459 0.07225 0.0
H116 H 0.08697 0.59597 0.08968 0.0
H117 H 0.91194 0.42517 0.88757 0.0
H118 H 0.94695 0.53149 0.8991 0.0
H119 H 0.90249 0.46894 0.96198 0.0
C120 C 0.05399 0.75416 0.99158 0.0
C121 C 1.01334 0.75503 0.02083 0.0
C122 C 0.0545 0.68522 0.99049 0.0
C123 C 1.01427 0.61602 0.01817 0.0
C124 C 0.97378 0.61641 0.04792 0.0
H125 H 0.95192 0.14684 0.06197 0.0
H126 H 0.95131 0.26783 0.06329 0.0
C127 C 0.97326 0.68559 0.0492 0.0
C128 C 1.01549 0.54382 0.01671 0.0
H129 H 0.9508 0.35768 0.94179 0.0
C130 C 0.05734 0.54379 0.05734 0.0
C131 C 0.97673 0.47655 0.97413 0.0
C132 C 0.93213 0.47525 0.92768 0.0
C133 C 0.06104 0.4771 0.05736 0.0
C134 C 0.02228 0.40981 1.01476 0.0
C135 C 0.98043 0.40987 0.97412 0.0
C136 C 0.02346 0.33757 1.01341 0.0
C137 C 0.10561 0.47839 0.10389 0.0
C138 C 0.06413 0.33721 0.98418 0.0
C139 C 0.06474 0.26809 0.98327 0.0
C140 C 0.02454 0.19865 1.01149 0.0
C141 C 0.98364 0.19942 0.0401 0.0
C142 C 0.98308 0.26833 0.04083 0.0
H143 H 0.12566 0.52834 0.14415 0.0
H144 H 0.09081 0.42207 0.13233 0.0
H145 H 0.13537 0.48498 0.06969 0.0
H146 H 0.09519 0.39024 0.96188 0.0
H147 H 0.09662 0.26915 0.96069 0.0
loop_
_geom_bond_atom_site_label_1
_geom_bond_atom_site_label_2
_geom_bond_distance
_geom_bond_site_symmetry_2
_ccdc_geom_bond_type
Pr0 C2 2.880 . S
Pr0 O20 2.562 1_556 S
Pr0 O21 2.490 . S
Pr0 O22 2.695 1_655 S
Pr0 O23 2.512 . S
Pr0 O25 2.437 1_565 S
Pr0 O28 2.436 1_566 S
Pr0 O30 2.438 . S
Pr1 C11 2.880 . S
Pr1 O22 2.436 1_544 S
Pr1 O24 2.438 . S
Pr1 O26 2.562 1_554 S
Pr1 O27 2.490 . S
Pr1 O28 2.695 1_455 S
Pr1 O29 2.512 . S
Pr1 O31 2.437 1_545 S
C2 Pr0 2.880 . S
C2 C3 1.491 . S
C2 O20 1.254 1_556 S
C2 O21 1.225 . S
C3 C2 1.491 . S
C3 C4 1.392 . S
C3 C8 1.356 1_566 S
C4 C3 1.392 . S
C4 C5 1.368 . S
C4 H32 0.929 . S
C5 C4 1.368 . S
C5 C6 1.398 . S
C5 H33 0.929 . S
C6 C5 1.398 . S
C6 C7 1.362 1_566 S
C7 C6 1.362 1_544 S
C7 C8 1.409 . S
C7 H34 0.931 . S
C8 C3 1.356 1_544 S
C8 C7 1.409 . S
C8 H35 0.930 . S
C9 O22 1.270 1_655 S
C9 O23 1.248 . S
C10 O24 1.267 1_556 S
C10 O25 1.278 1_455 S
C11 Pr1 2.880 . S
C11 C12 1.491 . S
C11 O26 1.254 1_554 S
C11 O27 1.225 . S
C12 C11 1.491 . S
C12 C13 1.392 . S
C12 C17 1.356 1_544 S
C13 C12 1.392 . S
C13 C14 1.368 . S
C13 H36 0.929 . S
C14 C13 1.368 . S
C14 C15 1.386 . S
C14 H37 0.929 . S
C15 C14 1.386 . S
C15 C16 1.373 1_544 S
C16 C15 1.373 1_566 S
C16 C17 1.409 . S
C16 H38 0.931 . S
C17 C12 1.356 1_566 S
C17 C16 1.409 . S
C17 H39 0.930 . S
C18 O28 1.270 1_455 S
C18 O29 1.248 . S
C19 O30 1.267 1_554 S
C19 O31 1.278 1_655 S
O20 Pr0 2.562 1_554 S
O20 C2 1.254 1_554 S
O21 Pr0 2.490 . S
O21 C2 1.225 . S
O22 Pr0 2.695 1_455 S
O22 Pr1 2.436 1_566 S
O22 C9 1.270 1_455 S
O23 Pr0 2.512 . S
O23 C9 1.248 . S
O24 Pr1 2.438 . S
O24 C10 1.267 1_554 S
O25 Pr0 2.437 1_545 S
O25 C10 1.278 1_655 S
O26 Pr1 2.562 1_556 S
O26 C11 1.254 1_556 S
O27 Pr1 2.490 . S
O27 C11 1.225 . S
O28 Pr0 2.436 1_544 S
O28 Pr1 2.695 1_655 S
O28 C18 1.270 1_655 S
O29 Pr1 2.512 . S
O29 C18 1.248 . S
O30 Pr0 2.438 . S
O30 C19 1.267 1_556 S
O31 Pr1 2.437 1_565 S
O31 C19 1.278 1_455 S
H32 C4 0.929 . S
H33 C5 0.929 . S
H34 C7 0.931 . S
H35 C8 0.930 . S
H36 C13 0.929 . S
H37 C14 0.929 . S
H38 C16 0.931 . S
H39 C17 0.930 . S
H40 C48 0.929 . S
H41 C50 0.930 . S
H42 C52 0.930 . S
H43 C55 0.929 . S
H44 C58 0.930 . S
H45 C60 0.960 . S
H46 C60 0.960 . S
H47 C60 0.960 . S
C48 H40 0.929 . S
C48 C49 1.375 1_565 S
C48 C50 1.384 . S
C49 C48 1.375 1_545 S
C49 C55 1.392 1_655 S
C50 H41 0.930 . S
C50 C48 1.384 . S
C50 C51 1.375 1_565 S
C51 C50 1.375 1_545 S
C51 C52 1.396 1_655 S
C51 C56 1.490 1_545 S
C52 H42 0.930 . S
C52 C51 1.396 1_455 S
C52 C55 1.386 . S
H53 C69 0.930 . S
H54 C70 0.931 . S
C55 H43 0.929 . S
C55 C49 1.392 1_455 S
C55 C52 1.386 . S
C56 C51 1.490 1_565 S
C56 C58 1.395 . S
C56 C59 1.403 1_665 S
H57 C63 0.930 . S
C58 H44 0.930 . S
C58 C56 1.395 . S
C58 C61 1.403 . S
C59 C56 1.403 1_445 S
C59 C60 1.524 . S
C59 C63 1.400 . S
C60 H45 0.960 . S
C60 H46 0.960 . S
C60 H47 0.960 . S
C60 C59 1.524 . S
C61 C58 1.403 . S
C61 C62 1.392 . S
C61 C65 1.495 . S
C62 C61 1.392 . S
C62 C63 1.385 1_665 S
C62 C64 1.478 . S
C63 H57 0.930 . S
C63 C59 1.400 . S
C63 C62 1.385 1_445 S
C64 C62 1.478 . S
C64 C66 1.381 . S
C64 C70 1.383 1_655 S
C65 C61 1.495 . S
C65 H71 0.959 . S
C65 H72 0.961 . S
C65 H73 0.960 . S
C66 C64 1.381 . S
C66 C67 1.394 . S
C66 H74 0.930 . S
C67 C66 1.394 . S
C67 C68 1.383 . S
C67 H75 0.929 . S
C68 C67 1.383 . S
C68 C69 1.377 1_655 S
C69 H53 0.930 . S
C69 C68 1.377 1_455 S
C69 C70 1.379 . S
C70 H54 0.931 . S
C70 C64 1.383 1_455 S
C70 C69 1.379 . S
H71 C65 0.959 . S
H72 C65 0.961 . S
H73 C65 0.960 . S
H74 C66 0.930 . S
H75 C67 0.929 . S
H76 C84 0.929 . S
H77 C86 0.930 . S
H78 C88 0.930 . S
H79 C91 0.929 . S
H80 C94 0.930 . S
H81 C96 0.960 . S
H82 C96 0.960 . S
H83 C96 0.960 . S
C84 H76 0.929 . S
C84 C85 1.379 . S
C84 C86 1.384 . S
C85 C84 1.379 . S
C85 C91 1.388 1_566 S
C86 H77 0.930 . S
C86 C84 1.384 . S
C86 C87 1.372 . S
C87 C86 1.372 . S
C87 C88 1.400 1_566 S
C87 C92 1.487 . S
C88 H78 0.930 . S
C88 C87 1.400 1_544 S
C88 C91 1.386 . S
H89 C105 0.930 . S
H90 C106 0.931 . S
C91 H79 0.929 . S
C91 C85 1.388 1_544 S
C91 C88 1.386 . S
C92 C87 1.487 . S
C92 C94 1.393 1_565 S
C92 C95 1.407 1_556 S
H93 C99 0.930 . S
C94 H80 0.930 . S
C94 C92 1.393 1_545 S
C94 C97 1.403 . S
C95 C92 1.407 1_554 S
C95 C96 1.524 . S
C95 C99 1.400 . S
C96 H81 0.960 . S
C96 H82 0.960 . S
C96 H83 0.960 . S
C96 C95 1.524 . S
C97 C94 1.403 . S
C97 C98 1.392 . S
C97 C101 1.495 . S
C98 C97 1.392 . S
C98 C99 1.385 1_546 S
C98 C100 1.478 . S
C99 H93 0.930 . S
C99 C95 1.400 . S
C99 C98 1.385 1_564 S
C100 C98 1.478 . S
C100 C102 1.381 1_545 S
C100 C106 1.383 1_556 S
C101 C97 1.495 . S
C101 H107 0.959 . S
C101 H108 0.961 . S
C101 H109 0.960 . S
C102 C100 1.381 1_565 S
C102 C103 1.394 . S
C102 H110 0.930 . S
C103 C102 1.394 . S
C103 C104 1.383 1_565 S
C103 H111 0.929 . S
C104 C103 1.383 1_545 S
C104 C105 1.377 1_556 S
C105 H89 0.930 . S
C105 C104 1.377 1_554 S
C105 C106 1.379 . S
C106 H90 0.931 . S
C106 C100 1.383 1_554 S
C106 C105 1.379 . S
H107 C101 0.959 . S
H108 C101 0.961 . S
H109 C101 0.960 . S
H110 C102 0.930 . S
H111 C103 0.929 . S
H112 C120 0.929 . S
H113 C122 0.930 . S
H114 C124 0.930 . S
H115 C127 0.929 . S
H116 C130 0.930 . S
H117 C132 0.960 . S
H118 C132 0.960 . S
H119 C132 0.960 1_655 S
C120 H112 0.929 . S
C120 C121 1.398 1_554 S
C120 C122 1.384 . S
C121 C120 1.398 1_556 S
C121 C127 1.385 1_455 S
C122 H113 0.930 . S
C122 C120 1.384 . S
C122 C123 1.372 . S
C123 C122 1.372 . S
C123 C124 1.400 1_454 S
C123 C128 1.490 . S
C124 H114 0.930 . S
C124 C123 1.400 1_656 S
C124 C127 1.386 . S
H125 C141 0.930 . S
H126 C142 0.931 . S
C127 H115 0.929 . S
C127 C121 1.385 1_655 S
C127 C124 1.386 . S
C128 C123 1.490 . S
C128 C130 1.395 1_455 S
C128 C131 1.403 1_554 S
H129 C135 0.930 . S
C130 H116 0.930 . S
C130 C128 1.395 1_655 S
C130 C133 1.403 . S
C131 C128 1.403 1_556 S
C131 C132 1.524 . S
C131 C135 1.400 . S
C132 H117 0.960 . S
C132 H118 0.960 . S
C132 H119 0.960 1_455 S
C132 C131 1.524 . S
C133 C130 1.403 . S
C133 C134 1.394 . S
C133 C137 1.495 . S
C134 C133 1.394 . S
C134 C135 1.385 1_654 S
C134 C136 1.476 . S
C135 H129 0.930 . S
C135 C131 1.400 . S
C135 C134 1.385 1_456 S
C136 C134 1.476 . S
C136 C138 1.381 1_655 S
C136 C142 1.383 1_554 S
C137 C133 1.495 . S
C137 H143 0.959 . S
C137 H144 0.961 . S
C137 H145 0.960 1_655 S
C138 C136 1.381 1_455 S
C138 C139 1.394 . S
C138 H146 0.930 . S
C139 C138 1.394 . S
C139 C140 1.376 1_455 S
C139 H147 0.929 . S
C140 C139 1.376 1_655 S
C140 C141 1.400 1_554 S
C141 H125 0.930 . S
C141 C140 1.400 1_556 S
C141 C142 1.379 . S
C142 H126 0.931 . S
C142 C136 1.383 1_556 S
C142 C141 1.379 . S
H143 C137 0.959 . S
H144 C137 0.961 . S
H145 C137 0.960 1_455 S
H146 C138 0.930 . S
H147 C139 0.929 . S
C49 C18 1.452 1_655 S
C68 C9 1.427 . S
C85 C15 1.500 1_566 S
C104 C6 1.496 1_545 S
C121 C19 1.476 1_456 S
C140 C10 1.481 1_654 S
