# Generated by pormake.
# Topology hex, (8)-cn, num edge types: 1
# Building blocks:
#     Node 0, Type 0, BuildingBlock: VETTIZ_charged_sbu_0, # of connection points: 8
#     Edge 1, Type (0, 0), BuildingBlock: OJICUG_clean_linker_0, # of connection points: 2
#     Edge 2, Type (0, 0), BuildingBlock: OJICUG_clean_linker_0, # of connection points: 2
#     Edge 3, Type (0, 0), BuildingBlock: OJICUG_clean_linker_0, # of connection points: 2
#     Edge 4, Type (0, 0), BuildingBlock: OJICUG_clean_linker_0, # of connection points: 2
# Relax obj value: 0.198
# Max RMSD: 0.293
# Mean RMSD: 0.293
data_MOF--net-hex--node1-VETTIZ_charged_sbu_0--edge1-OJICUG_clean_linker_0
_symmetry_space_group_name_H-M    P1
_symmetry_Int_Tables_number       1
_symmetry_cell_setting            triclinic
loop_
_symmetry_equiv_pos_as_xyz
'x, y, z'
_cell_length_a     13.156297
_cell_length_b     12.074626
_cell_length_c     12.499943
_cell_angle_alpha  89.807504
_cell_angle_beta   76.592161
_cell_angle_gamma 128.78633
loop_
_atom_site_label
_atom_site_type_symbol
_atom_site_fract_x
_atom_site_fract_y
_atom_site_fract_z
_atom_type_partial_charge
Fe0 Fe 0.99283 0.94241 0.12544 0.0
O1 O 0.14931 0.13295 1.02033 0.0
Fe2 Fe 0.75731 1.00098 0.2346 0.0
Fe3 Fe 0.27508 0.14317 0.88704 0.0
O4 O 0.88185 0.99934 0.10666 0.0
O5 O 0.88307 1.0112 0.1013 0.0
O6 O 0.15054 0.14481 1.01497 0.0
Fe7 Fe 0.03956 0.20174 0.9962 0.0
C8 C 0.28308 1.03372 0.09181 0.0
O9 O 0.96203 0.83505 0.99463 0.0
O10 O 0.16969 0.92198 0.91258 0.0
O11 O 0.88342 0.2137 0.98839 0.0
O12 O 0.68641 1.00288 0.11131 0.0
O13 O 0.64606 0.78242 0.27059 0.0
O14 O 0.7948 0.74333 0.21434 0.0
O15 O 0.18681 0.1306 0.77051 0.0
O16 O 1.00443 0.1082 0.85618 0.0
C17 C 0.67773 0.71188 0.21989 0.0
O18 O 0.07036 0.30909 0.12701 0.0
O19 O 0.8627 0.22217 0.20905 0.0
O20 O 0.14897 0.93045 0.13324 0.0
O21 O 0.34598 0.14126 1.01032 0.0
C22 C 0.0447 0.8124 0.95618 0.0
C23 C 0.07853 0.1068 0.77107 0.0
C24 C 0.35465 0.43227 0.90174 0.0
O25 O 0.38632 0.36173 0.85104 0.0
O26 O 0.23759 0.40082 0.90729 0.0
C27 C 0.7493 0.11043 1.02983 0.0
O28 O 0.84558 1.01354 0.35112 0.0
O29 O 0.02796 1.03595 0.26546 0.0
C30 C 0.98769 0.33175 0.16546 0.0
C31 C 0.95386 1.03735 0.35057 0.0
C32 C 0.10694 0.55051 1.01045 0.0
C33 C 1.01313 0.46472 0.1164 0.0
H34 H 0.18384 0.71748 0.87427 0.0
C35 C 0.92405 0.49067 0.16645 0.0
H36 H 0.17903 0.5384 0.96851 0.0
C37 C 0.92545 0.59364 0.11119 0.0
C38 C 0.01926 0.67942 1.00524 0.0
H39 H 0.84856 0.42667 0.24738 0.0
H40 H 0.85337 0.60575 0.15313 0.0
C41 C 0.10834 0.65348 0.95518 0.0
C42 C 0.54185 1.00381 0.9829 0.0
C43 C 0.65111 0.12361 1.0143 0.0
H44 H 0.32909 0.86376 1.00063 0.0
C45 C 0.62373 0.19311 0.09063 0.0
H46 H 0.55786 0.94291 0.92865 0.0
C47 C 0.49054 0.14034 0.13874 0.0
C48 C 0.38128 1.02054 0.10734 0.0
H49 H 0.70332 0.28041 0.12098 0.0
H50 H 0.47455 0.20126 0.19298 0.0
C51 C 0.40865 0.95104 1.03102 0.0
C52 C 0.40126 0.56114 0.07004 0.0
C53 C 0.43936 0.51228 0.98086 0.0
H54 H 0.4403 0.65409 0.21526 0.0
C55 C 0.55689 0.5258 0.97323 0.0
H56 H 0.31376 0.5546 0.08049 0.0
C57 C 0.63112 0.583 1.0516 0.0
C58 C 0.59302 0.63185 0.14078 0.0
H59 H 0.59208 0.49005 0.90638 0.0
H60 H 0.71862 0.58954 1.04115 0.0
C61 C 0.47549 0.61833 0.14842 0.0
C62 C 0.93497 0.07549 0.65347 0.0
C63 C 0.04325 0.0844 0.66485 0.0
H64 H 0.82354 1.05645 0.54507 0.0
C65 C 0.12406 0.08065 0.57104 0.0
H66 H 0.87152 0.07918 0.72355 0.0
C67 C 0.09742 1.06866 0.46817 0.0
C68 C 0.98914 1.05975 0.45679 0.0
H69 H 0.20884 0.0877 0.57656 0.0
H70 H 0.16087 1.06497 0.39808 0.0
C71 C 0.90833 1.0635 0.5506 0.0
loop_
_geom_bond_atom_site_label_1
_geom_bond_atom_site_label_2
_geom_bond_distance
_geom_bond_site_symmetry_2
_ccdc_geom_bond_type
Fe0 O1 1.886 1_554 S
Fe0 O4 1.715 1_455 S
Fe0 O9 2.077 1_455 S
Fe0 O14 1.935 1_455 S
Fe0 O20 2.077 . S
Fe0 O29 1.935 . S
O1 Fe0 1.886 1_556 S
O1 Fe3 1.715 1_565 S
Fe2 O4 1.886 . S
Fe2 O5 1.715 1_565 S
Fe2 O12 1.935 . S
Fe2 O13 2.077 . S
Fe2 O19 1.935 1_565 S
Fe2 O28 2.077 1_565 S
Fe3 O1 1.715 1_545 S
Fe3 O6 1.886 . S
Fe3 O10 1.935 1_545 S
Fe3 O15 2.077 1_545 S
Fe3 O21 1.935 . S
Fe3 O25 2.077 . S
O4 Fe0 1.715 1_655 S
O4 Fe2 1.886 . S
O5 Fe2 1.715 1_545 S
O5 Fe7 1.886 1_554 S
O6 Fe3 1.886 . S
O6 Fe7 1.715 1_455 S
Fe7 O5 1.886 1_556 S
Fe7 O6 1.715 1_655 S
Fe7 O11 2.077 . S
Fe7 O16 1.935 . S
Fe7 O18 2.077 1_655 S
Fe7 O26 1.935 1_655 S
C8 O20 1.381 . S
C8 O21 1.421 1_564 S
O9 Fe0 2.077 1_655 S
O9 C22 1.381 1_654 S
O10 Fe3 1.935 1_565 S
O10 C22 1.421 . S
O11 Fe7 2.077 . S
O11 C27 1.381 . S
O12 Fe2 1.935 . S
O12 C27 1.421 1_564 S
O13 Fe2 2.077 . S
O13 C17 1.381 . S
O14 Fe0 1.935 1_655 S
O14 C17 1.421 . S
O15 Fe3 2.077 1_565 S
O15 C23 1.381 1_565 S
O16 Fe7 1.935 . S
O16 C23 1.421 1_655 S
C17 O13 1.381 . S
C17 O14 1.421 . S
O18 Fe7 2.077 1_455 S
O18 C30 1.381 1_456 S
O19 Fe2 1.935 1_545 S
O19 C30 1.421 . S
O20 Fe0 2.077 . S
O20 C8 1.381 . S
O21 Fe3 1.935 . S
O21 C8 1.421 1_546 S
C22 O9 1.381 1_456 S
C22 O10 1.421 . S
C23 O15 1.381 1_545 S
C23 O16 1.421 1_455 S
C24 O25 1.381 . S
C24 O26 1.421 . S
O25 Fe3 2.077 . S
O25 C24 1.381 . S
O26 Fe7 1.935 1_455 S
O26 C24 1.421 . S
C27 O11 1.381 . S
C27 O12 1.421 1_546 S
O28 Fe2 2.077 1_545 S
O28 C31 1.381 1_545 S
O29 Fe0 1.935 . S
O29 C31 1.421 1_455 S
C30 O18 1.381 1_654 S
C30 O19 1.421 . S
C31 O28 1.381 1_565 S
C31 O29 1.421 1_655 S
C32 C33 1.387 1_656 S
C32 H36 0.950 . S
C32 C41 1.390 . S
C33 C32 1.387 1_454 S
C33 C35 1.388 . S
H34 C41 0.950 . S
C35 C33 1.388 . S
C35 C37 1.390 . S
C35 H39 0.950 . S
H36 C32 0.950 . S
C37 C35 1.390 . S
C37 C38 1.387 1_554 S
C37 H40 0.950 . S
C38 C37 1.387 1_556 S
C38 C41 1.388 1_455 S
H39 C35 0.950 . S
H40 C37 0.950 . S
C41 C32 1.390 . S
C41 H34 0.950 . S
C41 C38 1.388 1_655 S
C42 C43 1.385 1_565 S
C42 H46 0.950 . S
C42 C51 1.390 1_556 S
C43 C42 1.385 1_545 S
C43 C45 1.391 . S
H44 C51 0.950 . S
C45 C43 1.391 . S
C45 C47 1.390 1_556 S
C45 H49 0.950 . S
H46 C42 0.950 . S
C47 C45 1.390 1_554 S
C47 C48 1.387 1_545 S
C47 H50 0.950 . S
C48 C47 1.387 1_565 S
C48 C51 1.389 . S
H49 C45 0.950 . S
H50 C47 0.950 . S
C51 C42 1.390 1_554 S
C51 H44 0.950 . S
C51 C48 1.389 . S
C52 C53 1.392 . S
C52 H56 0.950 . S
C52 C61 1.386 1_556 S
C53 C52 1.392 . S
C53 C55 1.387 . S
H54 C61 0.950 . S
C55 C53 1.387 . S
C55 C57 1.384 1_556 S
C55 H59 0.950 . S
H56 C52 0.950 . S
C57 C55 1.384 1_554 S
C57 C58 1.394 . S
C57 H60 0.950 . S
C58 C57 1.394 . S
C58 C61 1.387 . S
H59 C55 0.950 . S
H60 C57 0.950 . S
C61 C52 1.386 1_554 S
C61 H54 0.950 . S
C61 C58 1.387 . S
C62 C63 1.391 1_455 S
C62 H66 0.950 . S
C62 C71 1.390 . S
C63 C62 1.391 1_655 S
C63 C65 1.384 1_545 S
H64 C71 0.950 . S
C65 C63 1.384 1_565 S
C65 C67 1.390 . S
C65 H69 0.950 . S
H66 C62 0.950 . S
C67 C65 1.390 . S
C67 C68 1.389 1_655 S
C67 H70 0.950 . S
C68 C67 1.389 1_455 S
C68 C71 1.386 1_565 S
H69 C65 0.950 . S
H70 C67 0.950 . S
C71 C62 1.390 . S
C71 H64 0.950 . S
C71 C68 1.386 1_545 S
C33 C30 1.661 1_455 S
C38 C22 1.661 . S
C43 C27 1.587 . S
C48 C8 1.588 . S
C53 C24 1.879 . S
C58 C17 1.879 . S
C63 C23 1.452 1_655 S
C68 C31 1.452 1_455 S
