# Generated by pormake.
# Topology pcu, (6)-cn, num edge types: 1
# Building blocks:
#     Node 0, Type 0, BuildingBlock: CUKXOW_clean_sbu_0, # of connection points: 6
#     Edge 1, Type (0, 0), BuildingBlock: FUNLAD_clean_linker_1, # of connection points: 2
#     Edge 2, Type (0, 0), BuildingBlock: FUNLAD_clean_linker_1, # of connection points: 2
#     Edge 3, Type (0, 0), BuildingBlock: FUNLAD_clean_linker_1, # of connection points: 2
# Relax obj value: 0.000
# Max RMSD: 0.000
# Mean RMSD: 0.000
data_MOF--net-pcu--node1-CUKXOW_clean_sbu_0--edge1-FUNLAD_clean_linker_1
_symmetry_space_group_name_H-M    P1
_symmetry_Int_Tables_number       1
_symmetry_cell_setting            triclinic
loop_
_symmetry_equiv_pos_as_xyz
'x, y, z'
_cell_length_a     14.673089
_cell_length_b     18.42701
_cell_length_c     15.899003
_cell_angle_alpha  85.472193
_cell_angle_beta   105.18193
_cell_angle_gamma 123.70251
loop_
_atom_site_label
_atom_site_type_symbol
_atom_site_fract_x
_atom_site_fract_y
_atom_site_fract_z
_atom_type_partial_charge
Tb0 Tb 0.07198 0.09991 0.99057 0.0
C1 C 1.00922 0.98358 0.82475 0.0
Tb2 Tb 0.9789 0.90287 0.00964 0.0
O3 O 0.23251 0.12727 0.97666 0.0
O4 O 0.13578 0.02432 0.04748 0.0
O5 O 0.0301 0.05853 0.85373 0.0
C6 C 0.96249 0.75128 0.01312 0.0
O7 O 0.99235 0.91789 0.8744 0.0
C8 C 0.83058 0.94392 0.98369 0.0
C9 C 0.04179 0.01923 0.17548 0.0
O10 O 0.87738 0.75935 0.99809 0.0
O11 O 0.05651 0.82821 0.02713 0.0
O12 O 0.81838 0.87578 0.02354 0.0
O13 O 0.91533 0.97844 0.9528 0.0
O14 O 1.02088 0.94427 0.14649 0.0
O15 O 0.05861 0.0849 0.12583 0.0
C16 C 0.08818 0.25142 0.98709 0.0
O17 O 0.17337 0.24343 0.00221 0.0
O18 O 0.99421 0.17446 0.97298 0.0
C19 C 0.2205 0.05917 0.01648 0.0
H20 H 0.09433 0.10019 0.29506 0.0
C21 C 0.05074 0.03321 0.26789 0.0
H22 H 0.95759 0.89958 0.29084 0.0
H23 H 0.1647 0.96512 0.70063 0.0
H24 H 0.23091 0.88205 0.65949 0.0
H25 H 0.20073 0.84629 0.50438 0.0
H26 H 0.1025 0.89221 0.38947 0.0
C27 C 1.00169 0.96681 0.31737 0.0
C28 C 1.01164 0.98329 0.41068 0.0
C29 C 0.06778 0.95474 0.47722 0.0
C30 C 0.08342 0.97407 0.56677 0.0
C31 C 0.14526 0.94871 0.63166 0.0
C32 C 0.18543 0.90205 0.60897 0.0
C33 C 0.16847 0.88192 0.52165 0.0
C34 C 0.11142 0.90847 0.45629 0.0
H35 H 0.95682 0.90267 0.70517 0.0
C36 C 1.00037 0.96963 0.73236 0.0
H37 H 0.09355 0.10328 0.70948 0.0
H38 H 0.88658 0.03787 0.29968 0.0
H39 H 0.82051 0.12103 0.34083 0.0
H40 H 0.85067 0.15678 0.49594 0.0
H41 H 0.94881 0.11077 0.61084 0.0
C42 C 0.04947 0.03606 0.68293 0.0
C43 C 0.03959 0.01963 0.58962 0.0
C44 C 0.98348 0.04821 0.52308 0.0
C45 C 0.96784 0.02888 0.43353 0.0
C46 C 0.90603 0.05428 0.36865 0.0
C47 C 0.86593 0.10099 0.39135 0.0
C48 C 0.88289 0.12111 0.47867 0.0
C49 C 0.93988 0.09451 0.54401 0.0
H50 H 0.2677 0.96366 0.04931 0.0
C51 C 0.29379 0.02676 0.02359 0.0
H52 H 0.41675 0.1361 0.97289 0.0
H53 H 0.66544 0.92738 0.16261 0.0
H54 H 0.63555 0.95148 0.2975 0.0
H55 H 0.53426 0.02197 0.29992 0.0
H56 H 0.45825 0.06544 0.1667 0.0
C57 C 0.39133 0.07335 0.99948 0.0
C58 C 0.46169 0.03798 0.00058 0.0
C59 C 0.50962 0.01605 0.07988 0.0
C60 C 0.57189 0.97842 0.07898 0.0
C61 C 0.61714 0.95591 0.15898 0.0
C62 C 0.60139 0.96999 0.23725 0.0
C63 C 0.54392 0.00928 0.23855 0.0
C64 C 0.49943 0.03297 0.16122 0.0
H65 H 0.78369 0.03961 0.95062 0.0
C66 C 0.75748 0.97653 0.97641 0.0
H67 H 0.63436 0.86734 0.02712 0.0
H68 H 0.38601 0.07626 0.83739 0.0
H69 H 0.41586 0.05212 0.70248 0.0
H70 H 0.51719 0.98168 0.70006 0.0
H71 H 0.59324 0.93823 0.83328 0.0
C72 C 0.65992 0.93009 0.00049 0.0
C73 C 0.58974 0.96563 0.9994 0.0
C74 C 0.54185 0.9876 0.9201 0.0
C75 C 0.47958 0.02522 0.921 0.0
C76 C 0.43431 0.04773 0.841 0.0
C77 C 0.45005 0.03364 0.76273 0.0
C78 C 0.50755 0.99436 0.76143 0.0
C79 C 0.55205 0.97069 0.83876 0.0
H80 H 0.86928 0.60736 0.99762 0.0
C81 C 0.95295 0.66791 0.00859 0.0
H82 H 0.12834 0.72611 0.02615 0.0
H83 H 0.10722 0.38312 0.15113 0.0
H84 H 0.20465 0.47493 0.28735 0.0
H85 H 0.22623 0.61692 0.29664 0.0
H86 H 0.14947 0.66749 0.16982 0.0
C87 C 0.04421 0.66582 0.01364 0.0
C88 C 0.03448 0.58169 0.0063 0.0
C89 C 0.08226 0.55412 0.08047 0.0
C90 C 0.07178 0.47306 0.07463 0.0
C91 C 0.1158 0.44531 0.15091 0.0
C92 C 0.17124 0.49711 0.22984 0.0
C93 C 0.18324 0.57698 0.23511 0.0
C94 C 0.13898 0.6053 0.16168 0.0
H95 H 0.18124 0.39532 0.00265 0.0
C96 C 0.09759 0.33473 0.99163 0.0
H97 H 0.92216 0.27641 0.97396 0.0
H98 H 0.94306 0.61936 0.84908 0.0
H99 H 0.8456 0.52753 0.71287 0.0
H100 H 0.82402 0.38554 0.70357 0.0
H101 H 0.90083 0.335 0.83038 0.0
C102 C 1.00625 0.33674 0.98652 0.0
C103 C 1.01588 0.42082 0.99389 0.0
C104 C 0.96807 0.44838 0.91973 0.0
C105 C 0.97855 0.52943 0.92556 0.0
C106 C 0.93449 0.55717 0.84929 0.0
C107 C 0.87903 0.50536 0.77037 0.0
C108 C 0.86704 0.42549 0.7651 0.0
C109 C 0.91132 0.39718 0.83852 0.0
loop_
_geom_bond_atom_site_label_1
_geom_bond_atom_site_label_2
_geom_bond_distance
_geom_bond_site_symmetry_2
_ccdc_geom_bond_type
Tb0 O3 2.453 . S
Tb0 O4 2.596 1_545 S
Tb0 O5 2.374 1_554 S
Tb0 O13 2.343 1_454 S
Tb0 O15 2.353 . S
Tb0 O17 2.427 . S
Tb0 O18 2.513 1_554 S
C1 O5 1.251 1_655 S
C1 O7 1.263 1_545 S
Tb2 O4 2.343 1_656 S
Tb2 O7 2.353 . S
Tb2 O10 2.427 . S
Tb2 O11 2.513 1_556 S
Tb2 O12 2.453 . S
Tb2 O13 2.596 1_565 S
Tb2 O14 2.374 1_556 S
O3 Tb0 2.453 . S
O3 C19 1.245 . S
O4 Tb0 2.596 1_565 S
O4 Tb2 2.343 1_454 S
O4 C19 1.259 1_565 S
O5 Tb0 2.374 1_556 S
O5 C1 1.251 1_455 S
C6 O10 1.273 1_554 S
C6 O11 1.247 . S
O7 C1 1.263 1_565 S
O7 Tb2 2.353 . S
C8 O12 1.245 . S
C8 O13 1.259 1_565 S
C9 O14 1.250 1_455 S
C9 O15 1.263 1_565 S
O10 Tb2 2.427 . S
O10 C6 1.273 1_556 S
O11 Tb2 2.513 1_554 S
O11 C6 1.247 . S
O12 Tb2 2.453 . S
O12 C8 1.245 . S
O13 Tb0 2.343 1_656 S
O13 Tb2 2.596 1_545 S
O13 C8 1.259 1_545 S
O14 Tb2 2.374 1_554 S
O14 C9 1.250 1_655 S
O15 Tb0 2.353 . S
O15 C9 1.263 1_545 S
C16 O17 1.276 1_556 S
C16 O18 1.245 . S
O17 Tb0 2.427 . S
O17 C16 1.276 1_554 S
O18 Tb0 2.513 1_556 S
O18 C16 1.245 . S
C19 O3 1.245 . S
C19 O4 1.259 1_545 S
H20 C21 0.951 . S
C21 H20 0.951 . S
C21 C27 1.265 1_445 S
H22 C27 0.950 . S
H23 C31 0.949 . S
H24 C32 0.950 . S
H25 C33 0.951 . S
H26 C34 0.951 . S
C27 C21 1.265 1_665 S
C27 H22 0.950 . S
C27 C28 1.478 . S
C28 C27 1.478 . S
C28 C29 1.397 . S
C28 C45 1.394 1_665 S
C29 C28 1.397 . S
C29 C30 1.438 . S
C29 C34 1.429 . S
C30 C29 1.438 . S
C30 C31 1.428 . S
C30 C43 1.394 1_665 S
C31 H23 0.949 . S
C31 C30 1.428 . S
C31 C32 1.345 . S
C32 H24 0.950 . S
C32 C31 1.345 . S
C32 C33 1.424 . S
C33 H25 0.951 . S
C33 C32 1.424 . S
C33 C34 1.347 . S
C34 H26 0.951 . S
C34 C29 1.429 . S
C34 C33 1.347 . S
H35 C36 0.951 . S
C36 H35 0.951 . S
C36 C42 1.265 1_665 S
H37 C42 0.950 . S
H38 C46 0.949 . S
H39 C47 0.950 . S
H40 C48 0.951 . S
H41 C49 0.951 . S
C42 C36 1.265 1_445 S
C42 H37 0.950 . S
C42 C43 1.478 . S
C43 C30 1.394 1_445 S
C43 C42 1.478 . S
C43 C44 1.397 . S
C44 C43 1.397 . S
C44 C45 1.438 . S
C44 C49 1.429 . S
C45 C28 1.394 1_445 S
C45 C44 1.438 . S
C45 C46 1.428 . S
C46 H38 0.949 . S
C46 C45 1.428 . S
C46 C47 1.345 . S
C47 H39 0.950 . S
C47 C46 1.345 . S
C47 C48 1.424 . S
C48 H40 0.951 . S
C48 C47 1.424 . S
C48 C49 1.347 . S
C49 H41 0.951 . S
C49 C44 1.429 . S
C49 C48 1.347 . S
H50 C51 0.952 . S
C51 H50 0.952 . S
C51 C57 1.266 1_566 S
H52 C57 0.950 . S
H53 C61 0.949 . S
H54 C62 0.950 . S
H55 C63 0.951 . S
H56 C64 0.951 . S
C57 C51 1.266 1_544 S
C57 H52 0.950 . S
C57 C58 1.478 . S
C58 C57 1.478 . S
C58 C59 1.397 . S
C58 C75 1.394 1_544 S
C59 C58 1.397 . S
C59 C60 1.438 . S
C59 C64 1.429 . S
C60 C59 1.438 . S
C60 C61 1.428 . S
C60 C73 1.394 1_544 S
C61 H53 0.949 . S
C61 C60 1.428 . S
C61 C62 1.345 . S
C62 H54 0.950 . S
C62 C61 1.345 . S
C62 C63 1.424 . S
C63 H55 0.951 . S
C63 C62 1.424 . S
C63 C64 1.347 . S
C64 H56 0.951 . S
C64 C59 1.429 . S
C64 C63 1.347 . S
H65 C66 0.952 . S
C66 H65 0.952 . S
C66 C72 1.267 1_544 S
H67 C72 0.950 . S
H68 C76 0.949 . S
H69 C77 0.950 . S
H70 C78 0.951 . S
H71 C79 0.951 . S
C72 C66 1.267 1_566 S
C72 H67 0.950 . S
C72 C73 1.478 . S
C73 C60 1.394 1_566 S
C73 C72 1.478 . S
C73 C74 1.397 . S
C74 C73 1.397 . S
C74 C75 1.438 . S
C74 C79 1.429 . S
C75 C58 1.394 1_566 S
C75 C74 1.438 . S
C75 C76 1.428 . S
C76 H68 0.949 . S
C76 C75 1.428 . S
C76 C77 1.345 . S
C77 H69 0.950 . S
C77 C76 1.345 . S
C77 C78 1.424 . S
C78 H70 0.951 . S
C78 C77 1.424 . S
C78 C79 1.347 . S
C79 H71 0.951 . S
C79 C74 1.429 . S
C79 C78 1.347 . S
H80 C81 0.950 . S
C81 H80 0.950 . S
C81 C87 1.265 1_656 S
H82 C87 0.950 . S
H83 C91 0.949 . S
H84 C92 0.950 . S
H85 C93 0.951 . S
H86 C94 0.951 . S
C87 C81 1.265 1_454 S
C87 H82 0.950 . S
C87 C88 1.478 . S
C88 C87 1.478 . S
C88 C89 1.397 . S
C88 C105 1.394 1_454 S
C89 C88 1.397 . S
C89 C90 1.438 . S
C89 C94 1.429 . S
C90 C89 1.438 . S
C90 C91 1.428 . S
C90 C103 1.394 1_454 S
C91 H83 0.949 . S
C91 C90 1.428 . S
C91 C92 1.345 . S
C92 H84 0.950 . S
C92 C91 1.345 . S
C92 C93 1.424 . S
C93 H85 0.951 . S
C93 C92 1.424 . S
C93 C94 1.347 . S
C94 H86 0.951 . S
C94 C89 1.429 . S
C94 C93 1.347 . S
H95 C96 0.950 . S
C96 H95 0.950 . S
C96 C102 1.266 1_454 S
H97 C102 0.950 . S
H98 C106 0.949 . S
H99 C107 0.950 . S
H100 C108 0.951 . S
H101 C109 0.951 . S
C102 C96 1.266 1_656 S
C102 H97 0.950 . S
C102 C103 1.478 . S
C103 C90 1.394 1_656 S
C103 C102 1.478 . S
C103 C104 1.397 . S
C104 C103 1.397 . S
C104 C105 1.438 . S
C104 C109 1.429 . S
C105 C88 1.394 1_656 S
C105 C104 1.438 . S
C105 C106 1.428 . S
C106 H98 0.949 . S
C106 C105 1.428 . S
C106 C107 1.345 . S
C107 H99 0.950 . S
C107 C106 1.345 . S
C107 C108 1.424 . S
C108 H100 0.951 . S
C108 C107 1.424 . S
C108 C109 1.347 . S
C109 H101 0.951 . S
C109 C104 1.429 . S
C109 C108 1.347 . S
C21 C9 1.459 1_545 S
C36 C1 1.459 1_565 S
C51 C19 1.476 1_566 S
C66 C8 1.475 1_544 S
C81 C6 1.435 1_556 S
C96 C16 1.435 1_554 S
