# Generated by pormake.
# Topology vmv, (8)-cn, num edge types: 1
# Building blocks:
#     Node 0, Type 0, BuildingBlock: TAGTUT_clean_sbu_1, # of connection points: 8
#     Node 1, Type 0, BuildingBlock: TAGTUT_clean_sbu_1, # of connection points: 8
#     Node 2, Type 0, BuildingBlock: TAGTUT_clean_sbu_1, # of connection points: 8
#     Node 3, Type 0, BuildingBlock: TAGTUT_clean_sbu_1, # of connection points: 8
#     Edge 4, Type (0, 0), BuildingBlock: EYOCIG_clean_linker_4, # of connection points: 2
#     Edge 5, Type (0, 0), BuildingBlock: EYOCIG_clean_linker_4, # of connection points: 2
#     Edge 6, Type (0, 0), BuildingBlock: EYOCIG_clean_linker_4, # of connection points: 2
#     Edge 7, Type (0, 0), BuildingBlock: EYOCIG_clean_linker_4, # of connection points: 2
#     Edge 8, Type (0, 0), BuildingBlock: EYOCIG_clean_linker_4, # of connection points: 2
#     Edge 9, Type (0, 0), BuildingBlock: EYOCIG_clean_linker_4, # of connection points: 2
#     Edge 10, Type (0, 0), BuildingBlock: EYOCIG_clean_linker_4, # of connection points: 2
#     Edge 11, Type (0, 0), BuildingBlock: EYOCIG_clean_linker_4, # of connection points: 2
#     Edge 12, Type (0, 0), BuildingBlock: EYOCIG_clean_linker_4, # of connection points: 2
#     Edge 13, Type (0, 0), BuildingBlock: EYOCIG_clean_linker_4, # of connection points: 2
#     Edge 14, Type (0, 0), BuildingBlock: EYOCIG_clean_linker_4, # of connection points: 2
#     Edge 15, Type (0, 0), BuildingBlock: EYOCIG_clean_linker_4, # of connection points: 2
#     Edge 16, Type (0, 0), BuildingBlock: EYOCIG_clean_linker_4, # of connection points: 2
#     Edge 17, Type (0, 0), BuildingBlock: EYOCIG_clean_linker_4, # of connection points: 2
#     Edge 18, Type (0, 0), BuildingBlock: EYOCIG_clean_linker_4, # of connection points: 2
#     Edge 19, Type (0, 0), BuildingBlock: EYOCIG_clean_linker_4, # of connection points: 2
# Relax obj value: 0.303
# Max RMSD: 0.292
# Mean RMSD: 0.283
data_MOF--net-vmv--node1-TAGTUT_clean_sbu_1--edge1-EYOCIG_clean_linker_4
_symmetry_space_group_name_H-M    P1
_symmetry_Int_Tables_number       1
_symmetry_cell_setting            triclinic
loop_
_symmetry_equiv_pos_as_xyz
'x, y, z'
_cell_length_a     13.058814
_cell_length_b     25.44373
_cell_length_c     25.941394
_cell_angle_alpha  90.718537
_cell_angle_beta   106.15192
_cell_angle_gamma 88.009022
loop_
_atom_site_label
_atom_site_type_symbol
_atom_site_fract_x
_atom_site_fract_y
_atom_site_fract_z
_atom_type_partial_charge
C0 C 0.30366 0.15196 0.78623 0.0
C1 C 0.56018 0.26136 0.84595 0.0
C2 C 0.2843 0.42222 0.76527 0.0
Mg3 Mg 0.44286 0.21703 0.73303 0.0
O4 O 0.32269 0.26234 0.73208 0.0
Mg5 Mg 0.29543 0.28756 0.79918 0.0
Mg6 Mg 0.31809 0.32825 0.69409 0.0
O7 O 0.31562 0.39396 0.65014 0.0
Mg8 Mg 0.21283 0.44935 0.64577 0.0
Mg9 Mg 0.30812 0.35314 0.58092 0.0
C10 C 0.35768 0.2424 0.6084 0.0
C11 C 0.54482 0.3342 0.66498 0.0
O12 O 0.26927 0.19389 0.8063 0.0
O13 O 0.37077 0.15296 0.75867 0.0
O14 O 0.46774 0.27672 0.84764 0.0
O15 O 0.57633 0.24043 0.80343 0.0
O16 O 0.42742 0.21505 0.64387 0.0
O17 O 0.30103 0.27882 0.62149 0.0
C18 C 0.07681 0.31824 0.70916 0.0
O19 O 0.1324 0.33207 0.67844 0.0
O20 O 0.12066 0.29983 0.75557 0.0
O21 O 0.32072 0.42994 0.54541 0.0
O22 O 0.28154 0.49826 0.59353 0.0
O23 O 0.12383 0.35936 0.54693 0.0
C24 C 0.31312 0.47893 0.55408 0.0
O25 O 0.07072 0.42432 0.59292 0.0
O26 O 0.20071 0.42752 0.72614 0.0
C27 C 0.05083 0.38868 0.55731 0.0
O28 O 0.33447 0.37696 0.77373 0.0
O29 O 0.50084 0.32536 0.70257 0.0
O30 O 0.48987 0.34551 0.61705 0.0
C31 C 0.94383 0.72635 0.67997 0.0
C32 C 0.26319 0.6684 0.77496 0.0
C33 C 0.14284 0.75409 0.95045 0.0
Mg34 Mg 0.1623 0.7777 0.73075 0.0
O35 O 0.09511 0.78007 0.78703 0.0
Mg36 Mg 0.05267 0.71561 0.8166 0.0
Mg37 Mg 0.15749 0.81936 0.85255 0.0
O38 O 0.22138 0.86393 0.91865 0.0
Mg39 Mg 0.14012 0.87328 0.96908 0.0
Mg40 Mg 0.2371 0.93057 0.87607 0.0
C41 C 0.18263 0.90005 0.76 0.0
C42 C 0.40413 0.83997 0.85687 0.0
O43 O 0.94488 0.70562 0.7255 0.0
O44 O 0.01867 0.75456 0.67369 0.0
O45 O 0.1902 0.66734 0.79881 0.0
O46 O 0.27499 0.70856 0.74795 0.0
O47 O 0.20012 0.86336 0.72844 0.0
O48 O 0.15065 0.89036 0.80074 0.0
C49 C 0.90477 0.80646 0.84684 0.0
O50 O 0.9826 0.83757 0.85598 0.0
O51 O 0.91442 0.75917 0.83285 0.0
O52 O 0.32392 0.96147 0.95546 0.0
O53 O 0.27643 0.91931 0.0212 0.0
O54 O 0.08738 0.97786 0.88287 0.0
C55 C 0.33349 0.95248 1.00477 0.0
O56 O 0.01351 0.92165 0.92136 0.0
O57 O 0.08017 0.79273 0.95319 0.0
C58 C 0.04212 0.96794 0.91877 0.0
O59 O 0.16409 0.74353 0.90539 0.0
O60 O 0.33224 0.80521 0.8484 0.0
O61 O 0.38574 0.88766 0.86797 0.0
C62 C 0.63777 0.52003 0.42691 0.0
C63 C 0.92628 0.57707 0.47165 0.0
C64 C 0.67869 0.75592 0.43331 0.0
Mg65 Mg 0.80784 0.55231 0.36484 0.0
O66 O 0.71185 0.61032 0.37035 0.0
Mg67 Mg 0.70528 0.63808 0.44433 0.0
Mg68 Mg 0.70936 0.68139 0.33549 0.0
O69 O 0.70792 0.75197 0.3063 0.0
Mg70 Mg 0.59075 0.79612 0.3118 0.0
Mg71 Mg 0.7258 0.73402 0.23478 0.0
C72 C 0.7314 0.5967 0.25701 0.0
C73 C 0.94755 0.69565 0.31872 0.0
O74 O 0.66991 0.55672 0.46076 0.0
O75 O 0.67653 0.51021 0.38689 0.0
O76 O 0.88406 0.62036 0.48177 0.0
O77 O 0.94732 0.5735 0.42715 0.0
O78 O 0.82034 0.59116 0.2919 0.0
O79 O 0.68591 0.64292 0.24971 0.0
C80 C 0.47769 0.67248 0.36005 0.0
O81 O 0.52623 0.68518 0.32551 0.0
O82 O 0.52776 0.65463 0.40626 0.0
O83 O 0.75125 0.82748 0.23377 0.0
O84 O 0.65756 0.86365 0.28771 0.0
O85 O 0.55166 0.74701 0.19179 0.0
C86 C 0.71926 0.86751 0.25743 0.0
O87 O 0.45101 0.77546 0.24379 0.0
O88 O 0.61455 0.78845 0.40102 0.0
C89 C 0.46126 0.75946 0.19831 0.0
O90 O 0.72923 0.71887 0.41658 0.0
O91 O 0.89429 0.67793 0.34897 0.0
O92 O 0.90168 0.71858 0.2747 0.0
C93 C 0.68292 0.12995 0.03741 0.0
C94 C 0.99038 0.06533 0.11019 0.0
C95 C 0.83637 0.12136 0.27394 0.0
Mg96 Mg 0.87138 0.17098 0.05851 0.0
O97 O 0.80475 0.16282 0.11978 0.0
Mg98 Mg 0.77595 0.09003 0.15747 0.0
Mg99 Mg 0.86229 0.20571 0.18718 0.0
O100 O 0.92265 0.24225 0.25524 0.0
Mg101 Mg 0.85704 0.24227 0.31176 0.0
Mg102 Mg 0.97219 0.30788 0.23136 0.0
C103 C 0.87707 0.27883 0.09549 0.0
C104 C 0.11601 0.21793 0.19564 0.0
O105 O 0.7367 0.14173 0.0853 0.0
O106 O 0.71603 0.14903 0.99996 0.0
O107 O 0.92947 0.05497 0.13965 0.0
O108 O 0.97604 0.1044 0.07837 0.0
O109 O 0.94587 0.24364 0.09261 0.0
O110 O 0.8579 0.28702 0.14119 0.0
C111 C 0.6147 0.17966 0.18427 0.0
O112 O 0.68519 0.21521 0.19027 0.0
O113 O 0.63248 0.13146 0.17389 0.0
O114 O 0.08181 0.31025 0.32319 0.0
O115 O 1.00257 0.25977 0.37108 0.0
O116 O 0.83622 0.35603 0.25034 0.0
C117 C 0.08112 0.28646 0.36698 0.0
O118 O 0.74547 0.31249 0.2966 0.0
O119 O 0.82044 0.15647 0.30748 0.0
C120 C 0.76047 0.35394 0.2722 0.0
O121 O 0.86494 0.13285 0.23237 0.0
O122 O 0.03662 0.18783 0.18373 0.0
O123 O 0.10838 0.26423 0.21276 0.0
C124 C 0.86887 0.48395 0.49196 0.0
C125 C 0.88818 0.52925 0.48692 0.0
C126 C 0.88493 0.42948 0.50036 0.0
C127 C 0.95004 0.39532 0.51861 0.0
C128 C 0.54722 0.05612 0.03751 0.0
C129 C 0.60589 0.08953 0.03071 0.0
C130 C 0.47843 0.01717 0.046 0.0
C131 C 0.41213 0.98395 0.04005 0.0
C132 C 0.46659 0.50111 0.45064 0.0
C133 C 0.53947 0.49948 0.43039 0.0
C134 C 0.39958 0.51129 0.48446 0.0
C135 C 0.35439 0.50963 0.51916 0.0
C136 C 0.10916 0.00945 0.07027 0.0
C137 C 0.06379 0.02639 0.10138 0.0
C138 C 0.1114 1.00049 0.0173 0.0
C139 C 0.08685 0.99069 0.97017 0.0
C140 C 0.69358 0.27432 0.94244 0.0
C141 C 0.6437 0.26602 0.89605 0.0
C142 C 0.74317 0.28258 0.99844 0.0
C143 C 0.79314 0.28523 0.0456 0.0
C144 C 0.72639 0.74654 0.53802 0.0
C145 C 0.69342 0.75693 0.49062 0.0
C146 C 0.78562 0.73213 0.59115 0.0
C147 C 0.84982 0.72488 0.63455 0.0
C148 C 0.26893 0.74267 0.04858 0.0
C149 C 0.22104 0.74297 1.00114 0.0
C150 C 0.31934 0.74877 0.10463 0.0
C151 C 0.37227 0.75569 0.15063 0.0
C152 C 0.24392 0.26956 0.45323 0.0
C153 C 0.17721 0.28143 0.41158 0.0
C154 C 0.30828 0.25106 0.50429 0.0
C155 C 0.34617 0.23943 0.55129 0.0
C156 C 0.86605 0.32716 0.68562 0.0
C157 C 0.96188 0.3245 0.69287 0.0
C158 C 0.75474 0.32926 0.68076 0.0
C159 C 0.65961 0.331 0.67584 0.0
C160 C 0.60256 0.82506 0.85384 0.0
C161 C 0.51021 0.82685 0.85405 0.0
C162 C 0.7108 0.82637 0.85396 0.0
C163 C 0.80231 0.82309 0.85244 0.0
C164 C 0.15735 0.68503 0.33855 0.0
C165 C 0.06202 0.68829 0.3325 0.0
C166 C 0.26816 0.68189 0.3427 0.0
C167 C 0.36319 0.67865 0.34782 0.0
C168 C 0.30917 0.19652 0.18817 0.0
C169 C 0.21784 0.20108 0.1896 0.0
C170 C 0.41737 0.19604 0.18831 0.0
C171 C 0.5092 0.19315 0.18745 0.0
C172 C 0.24062 0.05463 0.77967 0.0
C173 C 0.25935 0.10091 0.78791 0.0
C174 C 0.22543 1.00062 0.7648 0.0
C175 C 0.21088 0.95404 0.75605 0.0
C176 C 0.35992 0.51713 0.78191 0.0
C177 C 0.34162 0.47047 0.7795 0.0
C178 C 0.35217 0.57324 0.77871 0.0
C179 C 0.32174 0.6191 0.77363 0.0
C180 C 0.77688 0.96597 0.26004 0.0
C181 C 0.75802 0.91957 0.2544 0.0
C182 C 0.79403 0.02045 0.27113 0.0
C183 C 0.8099 0.06709 0.2776 0.0
C184 C 0.66391 0.44768 0.26268 0.0
C185 C 0.69686 0.40227 0.27059 0.0
C186 C 0.65209 0.50328 0.25371 0.0
C187 C 0.66896 0.5497 0.25019 0.0
loop_
_geom_bond_atom_site_label_1
_geom_bond_atom_site_label_2
_geom_bond_distance
_geom_bond_site_symmetry_2
_ccdc_geom_bond_type
C0 O12 1.241 . S
C0 O13 1.280 . S
C1 O14 1.277 . S
C1 O15 1.245 . S
C2 O26 1.247 . S
C2 O28 1.289 . S
Mg3 O4 1.926 . S
Mg3 O13 1.984 . S
Mg3 O15 1.988 . S
Mg3 O16 2.061 . S
O4 Mg3 1.926 . S
O4 Mg5 1.986 . S
O4 Mg6 1.917 . S
Mg5 O4 1.986 . S
Mg5 O12 2.042 . S
Mg5 O14 2.041 . S
Mg5 O20 2.038 . S
Mg5 O28 2.238 . S
Mg6 O4 1.917 . S
Mg6 O7 1.917 . S
Mg6 O17 2.106 . S
Mg6 O19 2.079 . S
Mg6 O28 2.106 . S
Mg6 O29 2.079 . S
O7 Mg6 1.917 . S
O7 Mg8 1.926 . S
O7 Mg9 1.986 . S
Mg8 O7 1.926 . S
Mg8 O22 1.984 . S
Mg8 O25 1.988 . S
Mg8 O26 2.061 . S
Mg9 O7 1.986 . S
Mg9 O17 2.238 . S
Mg9 O21 2.042 . S
Mg9 O23 2.041 . S
Mg9 O30 2.038 . S
C10 O16 1.247 . S
C10 O17 1.289 . S
C11 O29 1.245 . S
C11 O30 1.274 . S
O12 C0 1.241 . S
O12 Mg5 2.042 . S
O13 C0 1.280 . S
O13 Mg3 1.984 . S
O14 C1 1.277 . S
O14 Mg5 2.041 . S
O15 C1 1.245 . S
O15 Mg3 1.988 . S
O16 Mg3 2.061 . S
O16 C10 1.247 . S
O17 Mg6 2.106 . S
O17 Mg9 2.238 . S
O17 C10 1.289 . S
C18 O19 1.245 . S
C18 O20 1.274 . S
O19 Mg6 2.079 . S
O19 C18 1.245 . S
O20 Mg5 2.038 . S
O20 C18 1.274 . S
O21 Mg9 2.042 . S
O21 C24 1.241 . S
O22 Mg8 1.984 . S
O22 C24 1.280 . S
O23 Mg9 2.041 . S
O23 C27 1.277 . S
C24 O21 1.241 . S
C24 O22 1.280 . S
O25 Mg8 1.988 . S
O25 C27 1.245 . S
O26 C2 1.247 . S
O26 Mg8 2.061 . S
C27 O23 1.277 . S
C27 O25 1.245 . S
O28 C2 1.289 . S
O28 Mg5 2.238 . S
O28 Mg6 2.106 . S
O29 Mg6 2.079 . S
O29 C11 1.245 . S
O30 Mg9 2.038 . S
O30 C11 1.274 . S
C31 O43 1.241 . S
C31 O44 1.280 1_655 S
C32 O45 1.277 . S
C32 O46 1.245 . S
C33 O57 1.247 . S
C33 O59 1.289 . S
Mg34 O35 1.926 . S
Mg34 O44 1.984 . S
Mg34 O46 1.988 . S
Mg34 O47 2.061 . S
O35 Mg34 1.926 . S
O35 Mg36 1.986 . S
O35 Mg37 1.917 . S
Mg36 O35 1.986 . S
Mg36 O43 2.042 1_455 S
Mg36 O45 2.041 . S
Mg36 O51 2.038 1_455 S
Mg36 O59 2.238 . S
Mg37 O35 1.917 . S
Mg37 O38 1.917 . S
Mg37 O48 2.106 . S
Mg37 O50 2.079 . S
Mg37 O59 2.106 . S
Mg37 O60 2.079 . S
O38 Mg37 1.917 . S
O38 Mg39 1.926 . S
O38 Mg40 1.986 . S
Mg39 O38 1.926 . S
Mg39 O53 1.984 1_556 S
Mg39 O56 1.988 . S
Mg39 O57 2.061 . S
Mg40 O38 1.986 . S
Mg40 O48 2.238 . S
Mg40 O52 2.042 . S
Mg40 O54 2.041 . S
Mg40 O61 2.038 . S
C41 O47 1.247 . S
C41 O48 1.289 . S
C42 O60 1.245 . S
C42 O61 1.274 . S
O43 C31 1.241 . S
O43 Mg36 2.042 1_655 S
O44 C31 1.280 1_455 S
O44 Mg34 1.984 . S
O45 C32 1.277 . S
O45 Mg36 2.041 . S
O46 C32 1.245 . S
O46 Mg34 1.988 . S
O47 Mg34 2.061 . S
O47 C41 1.247 . S
O48 Mg37 2.106 . S
O48 Mg40 2.238 . S
O48 C41 1.289 . S
C49 O50 1.245 1_655 S
C49 O51 1.274 . S
O50 Mg37 2.079 . S
O50 C49 1.245 1_455 S
O51 Mg36 2.038 1_655 S
O51 C49 1.274 . S
O52 Mg40 2.042 . S
O52 C55 1.241 1_556 S
O53 Mg39 1.984 1_554 S
O53 C55 1.280 . S
O54 Mg40 2.041 . S
O54 C58 1.277 . S
C55 O52 1.241 1_554 S
C55 O53 1.280 . S
O56 Mg39 1.988 . S
O56 C58 1.245 . S
O57 C33 1.247 . S
O57 Mg39 2.061 . S
C58 O54 1.277 . S
C58 O56 1.245 . S
O59 C33 1.289 . S
O59 Mg36 2.238 . S
O59 Mg37 2.106 . S
O60 Mg37 2.079 . S
O60 C42 1.245 . S
O61 Mg40 2.038 . S
O61 C42 1.274 . S
C62 O74 1.241 . S
C62 O75 1.280 . S
C63 O76 1.277 . S
C63 O77 1.245 . S
C64 O88 1.247 . S
C64 O90 1.289 . S
Mg65 O66 1.926 . S
Mg65 O75 1.984 . S
Mg65 O77 1.988 . S
Mg65 O78 2.061 . S
O66 Mg65 1.926 . S
O66 Mg67 1.986 . S
O66 Mg68 1.917 . S
Mg67 O66 1.986 . S
Mg67 O74 2.042 . S
Mg67 O76 2.041 . S
Mg67 O82 2.038 . S
Mg67 O90 2.238 . S
Mg68 O66 1.917 . S
Mg68 O69 1.917 . S
Mg68 O79 2.106 . S
Mg68 O81 2.079 . S
Mg68 O90 2.106 . S
Mg68 O91 2.079 . S
O69 Mg68 1.917 . S
O69 Mg70 1.926 . S
O69 Mg71 1.986 . S
Mg70 O69 1.926 . S
Mg70 O84 1.984 . S
Mg70 O87 1.988 . S
Mg70 O88 2.061 . S
Mg71 O69 1.986 . S
Mg71 O79 2.238 . S
Mg71 O83 2.042 . S
Mg71 O85 2.041 . S
Mg71 O92 2.038 . S
C72 O78 1.247 . S
C72 O79 1.289 . S
C73 O91 1.245 . S
C73 O92 1.274 . S
O74 C62 1.241 . S
O74 Mg67 2.042 . S
O75 C62 1.280 . S
O75 Mg65 1.984 . S
O76 C63 1.277 . S
O76 Mg67 2.041 . S
O77 C63 1.245 . S
O77 Mg65 1.988 . S
O78 Mg65 2.061 . S
O78 C72 1.247 . S
O79 Mg68 2.106 . S
O79 Mg71 2.238 . S
O79 C72 1.289 . S
C80 O81 1.245 . S
C80 O82 1.274 . S
O81 Mg68 2.079 . S
O81 C80 1.245 . S
O82 Mg67 2.038 . S
O82 C80 1.274 . S
O83 Mg71 2.042 . S
O83 C86 1.241 . S
O84 Mg70 1.984 . S
O84 C86 1.280 . S
O85 Mg71 2.041 . S
O85 C89 1.277 . S
C86 O83 1.241 . S
C86 O84 1.280 . S
O87 Mg70 1.988 . S
O87 C89 1.245 . S
O88 C64 1.247 . S
O88 Mg70 2.061 . S
C89 O85 1.277 . S
C89 O87 1.245 . S
O90 C64 1.289 . S
O90 Mg67 2.238 . S
O90 Mg68 2.106 . S
O91 Mg68 2.079 . S
O91 C73 1.245 . S
O92 Mg71 2.038 . S
O92 C73 1.274 . S
C93 O105 1.241 1_556 S
C93 O106 1.280 . S
C94 O107 1.277 . S
C94 O108 1.245 . S
C95 O119 1.247 . S
C95 O121 1.289 . S
Mg96 O97 1.926 . S
Mg96 O106 1.984 1_554 S
Mg96 O108 1.988 . S
Mg96 O109 2.061 . S
O97 Mg96 1.926 . S
O97 Mg98 1.986 . S
O97 Mg99 1.917 . S
Mg98 O97 1.986 . S
Mg98 O105 2.042 . S
Mg98 O107 2.041 . S
Mg98 O113 2.038 . S
Mg98 O121 2.238 . S
Mg99 O97 1.917 . S
Mg99 O100 1.917 . S
Mg99 O110 2.106 . S
Mg99 O112 2.079 . S
Mg99 O121 2.106 . S
Mg99 O122 2.079 . S
O100 Mg99 1.917 . S
O100 Mg101 1.926 . S
O100 Mg102 1.986 . S
Mg101 O100 1.926 . S
Mg101 O115 1.984 . S
Mg101 O118 1.988 . S
Mg101 O119 2.061 . S
Mg102 O100 1.986 . S
Mg102 O110 2.238 . S
Mg102 O114 2.042 1_655 S
Mg102 O116 2.041 . S
Mg102 O123 2.038 1_655 S
C103 O109 1.247 . S
C103 O110 1.289 . S
C104 O122 1.245 1_455 S
C104 O123 1.274 . S
O105 C93 1.241 1_554 S
O105 Mg98 2.042 . S
O106 C93 1.280 . S
O106 Mg96 1.984 1_556 S
O107 C94 1.277 . S
O107 Mg98 2.041 . S
O108 C94 1.245 . S
O108 Mg96 1.988 . S
O109 Mg96 2.061 . S
O109 C103 1.247 . S
O110 Mg99 2.106 . S
O110 Mg102 2.238 . S
O110 C103 1.289 . S
C111 O112 1.245 . S
C111 O113 1.274 . S
O112 Mg99 2.079 . S
O112 C111 1.245 . S
O113 Mg98 2.038 . S
O113 C111 1.274 . S
O114 Mg102 2.042 1_455 S
O114 C117 1.241 . S
O115 Mg101 1.984 . S
O115 C117 1.280 1_655 S
O116 Mg102 2.041 . S
O116 C120 1.277 . S
C117 O114 1.241 . S
C117 O115 1.280 1_455 S
O118 Mg101 1.988 . S
O118 C120 1.245 . S
O119 C95 1.247 . S
O119 Mg101 2.061 . S
C120 O116 1.277 . S
C120 O118 1.245 . S
O121 C95 1.289 . S
O121 Mg98 2.238 . S
O121 Mg99 2.106 . S
O122 Mg99 2.079 . S
O122 C104 1.245 1_655 S
O123 Mg102 2.038 1_455 S
O123 C104 1.274 . S
C124 C125 1.170 . S
C124 C126 1.380 1_655 S
C125 C124 1.170 . S
C126 C124 1.380 1_455 S
C126 C127 1.170 . S
C127 C126 1.170 . S
C128 C129 1.170 . S
C128 C130 1.380 1_546 S
C129 C128 1.170 . S
C130 C128 1.380 1_564 S
C130 C131 1.170 . S
C131 C130 1.170 . S
C132 C133 1.170 . S
C132 C134 1.380 . S
C133 C132 1.170 . S
C134 C132 1.380 . S
C134 C135 1.170 . S
C135 C134 1.170 . S
C136 C137 1.170 . S
C136 C138 1.380 1_654 S
C137 C136 1.170 . S
C138 C136 1.380 1_456 S
C138 C139 1.170 1_545 S
C139 C138 1.170 1_565 S
C140 C141 1.170 . S
C140 C142 1.380 . S
C141 C140 1.170 . S
C142 C140 1.380 . S
C142 C143 1.170 1_556 S
C143 C142 1.170 1_554 S
C144 C145 1.170 . S
C144 C146 1.380 . S
C145 C144 1.170 . S
C146 C144 1.380 . S
C146 C147 1.170 . S
C147 C146 1.170 . S
C148 C149 1.170 1_554 S
C148 C150 1.380 . S
C149 C148 1.170 1_556 S
C150 C148 1.380 . S
C150 C151 1.170 . S
C151 C150 1.170 . S
C152 C153 1.170 . S
C152 C154 1.380 . S
C153 C152 1.170 . S
C154 C152 1.380 . S
C154 C155 1.170 . S
C155 C154 1.170 . S
C156 C157 1.170 . S
C156 C158 1.380 . S
C157 C156 1.170 . S
C158 C156 1.380 . S
C158 C159 1.170 . S
C159 C158 1.170 . S
C160 C161 1.170 . S
C160 C162 1.380 . S
C161 C160 1.170 . S
C162 C160 1.380 . S
C162 C163 1.170 . S
C163 C162 1.170 . S
C164 C165 1.170 . S
C164 C166 1.380 . S
C165 C164 1.170 . S
C166 C164 1.380 . S
C166 C167 1.170 . S
C167 C166 1.170 . S
C168 C169 1.170 . S
C168 C170 1.380 . S
C169 C168 1.170 . S
C170 C168 1.380 . S
C170 C171 1.170 . S
C171 C170 1.170 . S
C172 C173 1.170 . S
C172 C174 1.380 . S
C173 C172 1.170 . S
C174 C172 1.380 . S
C174 C175 1.170 1_545 S
C175 C174 1.170 1_565 S
C176 C177 1.170 . S
C176 C178 1.380 . S
C177 C176 1.170 . S
C178 C176 1.380 . S
C178 C179 1.170 . S
C179 C178 1.170 . S
C180 C181 1.170 . S
C180 C182 1.380 . S
C181 C180 1.170 . S
C182 C180 1.380 . S
C182 C183 1.170 1_565 S
C183 C182 1.170 1_545 S
C184 C185 1.170 . S
C184 C186 1.380 . S
C185 C184 1.170 . S
C186 C184 1.380 . S
C186 C187 1.170 . S
C187 C186 1.170 . S
C125 C63 0.660 . S
C127 C27 0.803 . S
C129 C93 0.804 . S
C131 C55 0.758 . S
C133 C62 0.966 . S
C135 C24 0.972 . S
C137 C94 0.830 . S
C139 C58 0.940 . S
C141 C1 1.877 . S
C143 C103 1.713 . S
C145 C64 2.030 . S
C147 C31 1.939 . S
C149 C33 1.713 . S
C151 C89 1.894 . S
C153 C117 1.923 . S
C155 C10 2.029 . S
C157 C18 1.724 1_655 S
C159 C11 1.732 . S
C161 C42 1.722 . S
C163 C49 1.732 . S
C165 C73 1.716 1_455 S
C167 C80 1.726 . S
C169 C104 1.722 . S
C171 C111 1.717 . S
C173 C0 1.979 . S
C175 C41 2.060 . S
C177 C2 1.638 . S
C179 C32 1.832 . S
C181 C86 1.946 . S
C183 C95 2.052 . S
C185 C120 1.796 . S
C187 C72 1.637 . S
