# Generated by pormake.
# Topology kag, (6)-cn, num edge types: 1
# Building blocks:
#     Node 0, Type 0, BuildingBlock: VOLQOD_clean_sbu_1, # of connection points: 6
#     Node 1, Type 0, BuildingBlock: VOLQOD_clean_sbu_1, # of connection points: 6
#     Node 2, Type 0, BuildingBlock: VOLQOD_clean_sbu_1, # of connection points: 6
#     Edge 3, Type (0, 0), None
#     Edge 4, Type (0, 0), None
#     Edge 5, Type (0, 0), None
#     Edge 6, Type (0, 0), None
#     Edge 7, Type (0, 0), None
#     Edge 8, Type (0, 0), None
#     Edge 9, Type (0, 0), None
#     Edge 10, Type (0, 0), None
#     Edge 11, Type (0, 0), None
# Relax obj value: 0.310
# Max RMSD: 0.247
# Mean RMSD: 0.245
data_MOF--net-kag--node1-VOLQOD_clean_sbu_1--edge1-none
_symmetry_space_group_name_H-M    P1
_symmetry_Int_Tables_number       1
_symmetry_cell_setting            triclinic
loop_
_symmetry_equiv_pos_as_xyz
'x, y, z'
_cell_length_a     17.227102
_cell_length_b     17.234905
_cell_length_c     8.8961353
_cell_angle_alpha  90.095288
_cell_angle_beta   89.935037
_cell_angle_gamma 120.02148
loop_
_atom_site_label
_atom_site_type_symbol
_atom_site_fract_x
_atom_site_fract_y
_atom_site_fract_z
_atom_type_partial_charge
O0 O -0.06219 0.4065 0.6747 0.0
Zn1 Zn -0.06218 0.37688 0.89405 0.0
O2 O -0.06221 0.47102 0.02179 0.0
Zn3 Zn 0.04308 0.52368 0.15143 0.0
Zn4 Zn -0.0622 0.56519 0.89466 0.0
Zn5 Zn 0.83246 0.41836 0.15149 0.0
O6 O 0.01229 0.50837 0.37219 0.0
O7 O 0.86324 0.43384 0.37227 0.0
O8 O 0.05026 0.36879 0.92567 0.0
O9 O 0.11993 0.46885 0.10703 0.0
O10 O 0.12016 0.65528 0.10693 0.0
O11 O 0.05028 0.68571 0.92641 0.0
O12 O 0.82531 0.57321 0.92643 0.0
O13 O 0.82535 0.25634 0.92566 0.0
O14 O 0.75537 0.47287 0.10699 0.0
O15 O 0.75561 0.28669 0.10703 0.0
C16 C -0.06222 0.47106 0.60574 0.0
C17 C -0.06223 0.4711 0.44163 0.0
C18 C 0.11572 0.71026 0.01691 0.0
C19 C 0.11552 0.40944 0.01663 0.0
C20 C 0.75984 0.53229 0.01692 0.0
C21 C 0.76005 0.23172 0.0166 0.0
O22 O -0.06222 0.53561 0.67518 0.0
O23 O 0.4976 -0.0381 0.31698 0.0
Zn24 Zn 0.53057 -0.03392 0.09841 0.0
O25 O 0.43789 -0.02909 0.9727 0.0
Zn26 Zn 0.38055 0.86887 0.84013 0.0
Zn27 Zn 0.34527 -0.02408 0.09875 0.0
Zn28 Zn 0.49524 0.07284 0.84031 0.0
O29 O 0.39059 0.89759 0.61945 0.0
O30 O 0.48516 0.04406 0.61968 0.0
O31 O 0.53813 0.85289 0.05457 0.0
O32 O 0.43527 0.79383 0.87423 0.0
O33 O 0.25197 0.79086 0.89343 0.0
O34 O 0.22407 0.86067 0.0779 0.0
O35 O 0.33764 0.08906 0.05498 0.0
O36 O 0.65176 0.08137 0.07759 0.0
O37 O 0.44044 0.14782 0.87446 0.0
O38 O 0.62379 0.15092 0.89335 0.0
C39 C 0.43784 -0.02912 0.38612 0.0
C40 C 0.43785 -0.02916 0.55001 0.0
C41 C 0.19897 0.7942 -0.01091 0.0
C42 C 0.4933 0.7912 0.9588 0.0
C43 C 0.38236 0.15054 0.95903 0.0
C44 C 0.67682 0.14772 -0.01116 0.0
O45 O 0.37815 -0.01998 0.31732 0.0
O46 O 0.49744 0.53965 0.31725 0.0
Zn47 Zn 0.53032 0.56845 0.09866 0.0
O48 O 0.4377 0.47081 0.97271 0.0
Zn49 Zn 0.49506 0.42612 0.84009 0.0
Zn50 Zn 0.34499 0.37329 0.0985 0.0
Zn51 Zn 0.38038 0.51539 0.84034 0.0
O52 O 0.48506 0.44483 0.6194 0.0
O53 O 0.39045 0.49666 0.61973 0.0
O54 O 0.65151 0.5744 0.07778 0.0
O55 O 0.62362 0.47664 0.89342 0.0
O56 O 0.44029 0.29634 0.87421 0.0
O57 O 0.33743 0.25253 0.05467 0.0
O58 O 0.22379 0.36739 0.07773 0.0
O59 O 0.53793 0.68921 0.05489 0.0
O60 O 0.25182 0.46489 0.89339 0.0
O61 O 0.43516 0.64517 0.87442 0.0
C62 C 0.43776 0.47082 0.38612 0.0
C63 C 0.43777 0.47077 0.55001 0.0
C64 C 0.38223 0.23567 0.95881 0.0
C65 C 0.6766 0.53297 -0.01094 0.0
C66 C 0.19875 0.40867 -0.01108 0.0
C67 C 0.49323 0.70597 0.95894 0.0
O68 O 0.37796 0.40208 0.31705 0.0
loop_
_geom_bond_atom_site_label_1
_geom_bond_atom_site_label_2
_geom_bond_distance
_geom_bond_site_symmetry_2
_ccdc_geom_bond_type
O0 Zn1 1.953 . S
O0 C16 1.225 . S
Zn1 O0 1.953 . S
Zn1 O2 1.949 1_556 S
Zn1 O8 1.919 . S
Zn1 O13 1.924 1_455 S
O2 Zn1 1.949 1_554 S
O2 Zn3 1.923 . S
O2 Zn4 1.950 1_454 S
O2 Zn5 1.945 1_455 S
Zn3 O2 1.923 . S
Zn3 O6 1.933 . S
Zn3 O9 1.941 . S
Zn3 O10 1.965 . S
Zn4 O2 1.950 1_656 S
Zn4 O11 1.938 1_655 S
Zn4 O12 1.906 . S
Zn4 O22 1.953 . S
Zn5 O2 1.945 1_655 S
Zn5 O7 1.932 . S
Zn5 O14 1.977 . S
Zn5 O15 1.910 . S
O6 Zn3 1.933 . S
O6 C17 1.226 . S
O7 Zn5 1.932 . S
O7 C17 1.307 1_655 S
O8 Zn1 1.919 . S
O8 C19 1.253 1_556 S
O9 Zn3 1.941 . S
O9 C19 1.283 . S
O10 Zn3 1.965 . S
O10 C18 1.303 1_554 S
O11 Zn4 1.938 1_455 S
O11 C18 1.247 . S
O12 Zn4 1.906 . S
O12 C20 1.304 1_556 S
O13 Zn1 1.924 1_655 S
O13 C21 1.311 . S
O14 Zn5 1.977 . S
O14 C20 1.272 . S
O15 Zn5 1.910 . S
O15 C21 1.231 1_554 S
C16 O0 1.225 . S
C16 O22 1.298 1_455 S
C17 O6 1.226 . S
C17 O7 1.307 1_455 S
C18 O10 1.303 1_556 S
C18 O11 1.247 . S
C19 O8 1.253 1_554 S
C19 O9 1.283 . S
C20 O12 1.304 1_554 S
C20 O14 1.272 . S
C21 O13 1.311 . S
C21 O15 1.231 1_556 S
O22 Zn4 1.953 . S
O22 C16 1.298 1_655 S
O23 Zn24 1.953 . S
O23 C39 1.225 1_565 S
Zn24 O23 1.953 . S
Zn24 O25 1.949 1_564 S
Zn24 O31 1.919 . S
Zn24 O36 1.924 1_565 S
O25 Zn24 1.949 1_546 S
O25 Zn26 1.923 1_545 S
O25 Zn27 1.950 1_556 S
O25 Zn28 1.945 . S
Zn26 O25 1.923 1_565 S
Zn26 O29 1.933 . S
Zn26 O32 1.941 . S
Zn26 O33 1.965 . S
Zn27 O25 1.950 1_554 S
Zn27 O34 1.938 1_545 S
Zn27 O35 1.906 . S
Zn27 O45 1.953 . S
Zn28 O25 1.945 . S
Zn28 O30 1.932 . S
Zn28 O37 1.977 . S
Zn28 O38 1.910 . S
O29 Zn26 1.933 . S
O29 C40 1.226 1_565 S
O30 Zn28 1.932 . S
O30 C40 1.307 . S
O31 Zn24 1.919 . S
O31 C42 1.253 1_554 S
O32 Zn26 1.941 . S
O32 C42 1.283 . S
O33 Zn26 1.965 . S
O33 C41 1.303 1_556 S
O34 Zn27 1.938 1_565 S
O34 C41 1.247 . S
O35 Zn27 1.906 . S
O35 C43 1.304 1_554 S
O36 Zn24 1.924 1_545 S
O36 C44 1.311 . S
O37 Zn28 1.977 . S
O37 C43 1.272 . S
O38 Zn28 1.910 . S
O38 C44 1.231 1_556 S
C39 O23 1.225 1_545 S
C39 O45 1.298 . S
C40 O29 1.226 1_545 S
C40 O30 1.307 . S
C41 O33 1.303 1_554 S
C41 O34 1.247 . S
C42 O31 1.253 1_556 S
C42 O32 1.283 . S
C43 O35 1.304 1_556 S
C43 O37 1.272 . S
C44 O36 1.311 . S
C44 O38 1.231 1_554 S
O45 Zn27 1.953 . S
O45 C39 1.298 . S
O46 Zn47 1.953 . S
O46 C62 1.225 . S
Zn47 O46 1.953 . S
Zn47 O48 1.949 1_554 S
Zn47 O54 1.919 . S
Zn47 O59 1.924 . S
O48 Zn47 1.949 1_556 S
O48 Zn49 1.923 . S
O48 Zn50 1.950 1_556 S
O48 Zn51 1.945 . S
Zn49 O48 1.923 . S
Zn49 O52 1.933 . S
Zn49 O55 1.941 . S
Zn49 O56 1.965 . S
Zn50 O48 1.950 1_554 S
Zn50 O57 1.938 . S
Zn50 O58 1.906 . S
Zn50 O68 1.953 . S
Zn51 O48 1.945 . S
Zn51 O53 1.932 . S
Zn51 O60 1.977 . S
Zn51 O61 1.910 . S
O52 Zn49 1.933 . S
O52 C63 1.226 . S
O53 Zn51 1.932 . S
O53 C63 1.307 . S
O54 Zn47 1.919 . S
O54 C65 1.253 1_554 S
O55 Zn49 1.941 . S
O55 C65 1.283 . S
O56 Zn49 1.965 . S
O56 C64 1.303 1_556 S
O57 Zn50 1.938 . S
O57 C64 1.247 . S
O58 Zn50 1.906 . S
O58 C66 1.304 1_554 S
O59 Zn47 1.924 . S
O59 C67 1.311 . S
O60 Zn51 1.977 . S
O60 C66 1.272 . S
O61 Zn51 1.910 . S
O61 C67 1.231 1_556 S
C62 O46 1.225 . S
C62 O68 1.298 . S
C63 O52 1.226 . S
C63 O53 1.307 . S
C64 O56 1.303 1_554 S
C64 O57 1.247 . S
C65 O54 1.253 1_556 S
C65 O55 1.283 . S
C66 O58 1.304 1_556 S
C66 O60 1.272 . S
C67 O59 1.311 . S
C67 O61 1.231 1_554 S
O68 Zn50 1.953 . S
O68 C62 1.298 . S
C16 C17 1.500 . S
C39 C40 1.499 . S
C63 C62 1.500 . S
C19 C66 1.284 1_554 S
C44 C21 1.328 1_554 S
C42 C67 1.329 1_556 S
C20 C65 1.305 1_554 S
C18 C41 1.487 1_556 S
C64 C43 1.433 1_554 S
