# Generated by pormake.
# Topology pcu, (6)-cn, num edge types: 1
# Building blocks:
#     Node 0, Type 0, BuildingBlock: BETFEN_clean_sbu_0, # of connection points: 6
#     Edge 1, Type (0, 0), BuildingBlock: AJUNOK_clean_linker_0, # of connection points: 2
#     Edge 2, Type (0, 0), BuildingBlock: AJUNOK_clean_linker_0, # of connection points: 2
#     Edge 3, Type (0, 0), BuildingBlock: AJUNOK_clean_linker_0, # of connection points: 2
# Relax obj value: 0.000
# Max RMSD: 0.000
# Mean RMSD: 0.000
data_MOF--net-pcu--node1-BETFEN_clean_sbu_0--edge1-AJUNOK_clean_linker_0
_symmetry_space_group_name_H-M    P1
_symmetry_Int_Tables_number       1
_symmetry_cell_setting            triclinic
loop_
_symmetry_equiv_pos_as_xyz
'x, y, z'
_cell_length_a     21.614073
_cell_length_b     11.578046
_cell_length_c     10.448094
_cell_angle_alpha  88.246734
_cell_angle_beta   96.272893
_cell_angle_gamma 120.66562
loop_
_atom_site_label
_atom_site_type_symbol
_atom_site_fract_x
_atom_site_fract_y
_atom_site_fract_z
_atom_type_partial_charge
Pr0 Pr 0.94121 0.87922 0.02575 0.0
Pr1 Pr 0.1264 0.05203 1.02024 0.0
C2 C 0.80946 0.78309 0.10393 0.0
C3 C 0.75085 0.81498 0.08678 0.0
C4 C 0.71794 0.81834 0.964 0.0
C5 C 0.66412 0.85271 0.95066 0.0
C6 C 0.64204 0.88432 0.05961 0.0
C7 C 0.67538 0.88165 0.18212 0.0
C8 C 0.72892 0.84685 0.19548 0.0
C9 C 0.98457 0.93176 0.77588 0.0
C10 C 0.03681 0.21722 1.0219 0.0
C11 C 0.26033 0.15504 0.94939 0.0
C12 C 0.31853 0.122 0.96831 0.0
C13 C 0.35038 0.11827 0.09202 0.0
C14 C 0.40298 0.08096 0.10776 0.0
C15 C 0.42448 0.04548 1.0004 0.0
C16 C 0.39347 0.05153 0.87671 0.0
C17 C 0.3411 0.08934 0.86091 0.0
C18 C 0.08174 -0.00887 0.26892 0.0
C19 C 1.03173 0.71495 0.03313 0.0
O20 O 0.86941 0.87139 0.17162 0.0
O21 O 0.82044 0.7312 1.00481 0.0
O22 O 1.02329 0.96678 0.88223 0.0
O23 O 0.91676 0.86896 0.79658 0.0
O24 O 0.09723 0.22205 0.99733 0.0
O25 O 0.97629 0.10483 0.04148 0.0
O26 O 0.20171 0.0703 0.87659 0.0
O27 O 0.24694 0.20145 0.04943 0.0
O28 O 0.04399 0.96309 0.16215 0.0
O29 O 0.1497 0.05352 0.24948 0.0
O30 O 0.97186 0.71237 0.05738 0.0
O31 O 0.0917 0.82543 1.00625 0.0
H32 H 0.73398 0.79527 0.87817 0.0
H33 H 0.6394 0.8538 0.85503 0.0
H34 H 0.66089 0.90854 0.26773 0.0
H35 H 0.75388 0.84626 0.29108 0.0
H36 H 0.33438 0.1431 0.1769 0.0
H37 H 0.42702 0.08031 0.20412 0.0
H38 H 0.40878 0.02459 0.79214 0.0
H39 H 0.31745 0.09136 0.76453 0.0
C40 C 1.00041 -0.00493 0.41924 0.0
C41 C 0.05507 -0.03119 0.39669 0.0
C42 C 0.97795 -0.01702 0.5427 0.0
C43 C 1.00992 0.94545 0.64755 0.0
H44 H 0.97651 0.02924 0.34207 0.0
H45 H 0.93618 0.00541 0.55669 0.0
S46 S 0.14702 0.84557 0.63367 0.0
N47 N 0.13632 0.89308 0.48622 0.0
N48 N 0.09199 0.86519 0.7166 0.0
C49 C 0.06257 0.914 0.62488 0.0
C50 C 0.08587 0.92744 0.49974 0.0
C51 C 0.53708 0.05693 0.94081 0.0
C52 C 0.47905 0.00221 1.01693 0.0
C53 C 0.58917 0.01786 0.95471 0.0
C54 C 0.58537 0.92243 0.04526 0.0
H55 H 0.54286 0.13202 0.87102 0.0
H56 H 0.63342 0.06432 0.89532 0.0
S57 S 0.44065 0.73978 0.25984 0.0
N58 N 0.41858 0.84151 0.18069 0.0
N59 N 0.51632 0.76831 0.20681 0.0
C60 C 0.52698 0.86529 0.12048 0.0
C61 C 0.47395 0.90506 0.10633 0.0
C62 C 0.08478 0.57882 0.9723 0.0
C63 C 0.03233 0.58743 0.03399 0.0
C64 C 0.08648 0.45952 0.96983 0.0
C65 C 0.0357 0.3439 0.02867 0.0
H66 H 0.12452 0.66443 0.92374 0.0
H67 H 0.12723 0.45759 0.91963 0.0
S68 S 0.8906 0.31609 0.21201 0.0
N69 N 0.93065 0.47149 0.16116 0.0
N70 N 0.93372 0.2477 0.15716 0.0
C71 C 0.98372 0.35176 0.09294 0.0
C72 C 0.98202 0.47324 0.09532 0.0
loop_
_geom_bond_atom_site_label_1
_geom_bond_atom_site_label_2
_geom_bond_distance
_geom_bond_site_symmetry_2
_ccdc_geom_bond_type
Pr0 C2 2.880 . S
Pr0 O20 2.562 1_556 S
Pr0 O21 2.490 . S
Pr0 O22 2.695 1_655 S
Pr0 O23 2.512 . S
Pr0 O25 2.437 1_565 S
Pr0 O28 2.436 1_566 S
Pr0 O30 2.438 . S
Pr1 C11 2.880 . S
Pr1 O22 2.436 1_544 S
Pr1 O24 2.438 . S
Pr1 O26 2.562 1_554 S
Pr1 O27 2.490 . S
Pr1 O28 2.695 1_455 S
Pr1 O29 2.512 . S
Pr1 O31 2.437 1_545 S
C2 Pr0 2.880 . S
C2 C3 1.491 . S
C2 O20 1.254 1_556 S
C2 O21 1.225 . S
C3 C2 1.491 . S
C3 C4 1.392 . S
C3 C8 1.356 1_566 S
C4 C3 1.392 . S
C4 C5 1.368 . S
C4 H32 0.929 . S
C5 C4 1.368 . S
C5 C6 1.386 . S
C5 H33 0.929 . S
C6 C5 1.386 . S
C6 C7 1.373 1_566 S
C7 C6 1.373 1_544 S
C7 C8 1.409 . S
C7 H34 0.931 . S
C8 C3 1.356 1_544 S
C8 C7 1.409 . S
C8 H35 0.930 . S
C9 O22 1.270 1_655 S
C9 O23 1.248 . S
C10 O24 1.267 1_556 S
C10 O25 1.278 1_455 S
C11 Pr1 2.880 . S
C11 C12 1.491 . S
C11 O26 1.254 1_554 S
C11 O27 1.225 . S
C12 C11 1.491 . S
C12 C13 1.392 . S
C12 C17 1.356 1_544 S
C13 C12 1.392 . S
C13 C14 1.368 . S
C13 H36 0.929 . S
C14 C13 1.368 . S
C14 C15 1.386 . S
C14 H37 0.929 . S
C15 C14 1.386 . S
C15 C16 1.373 1_544 S
C16 C15 1.373 1_566 S
C16 C17 1.409 . S
C16 H38 0.931 . S
C17 C12 1.356 1_566 S
C17 C16 1.409 . S
C17 H39 0.930 . S
C18 O28 1.270 1_455 S
C18 O29 1.248 . S
C19 O30 1.267 1_554 S
C19 O31 1.278 1_655 S
O20 Pr0 2.562 1_554 S
O20 C2 1.254 1_554 S
O21 Pr0 2.490 . S
O21 C2 1.225 . S
O22 Pr0 2.695 1_455 S
O22 Pr1 2.436 1_566 S
O22 C9 1.270 1_455 S
O23 Pr0 2.512 . S
O23 C9 1.248 . S
O24 Pr1 2.438 . S
O24 C10 1.267 1_554 S
O25 Pr0 2.437 1_545 S
O25 C10 1.278 1_655 S
O26 Pr1 2.562 1_556 S
O26 C11 1.254 1_556 S
O27 Pr1 2.490 . S
O27 C11 1.225 . S
O28 Pr0 2.436 1_544 S
O28 Pr1 2.695 1_655 S
O28 C18 1.270 1_655 S
O29 Pr1 2.512 . S
O29 C18 1.248 . S
O30 Pr0 2.438 . S
O30 C19 1.267 1_556 S
O31 Pr1 2.437 1_565 S
O31 C19 1.278 1_455 S
H32 C4 0.929 . S
H33 C5 0.929 . S
H34 C7 0.931 . S
H35 C8 0.930 . S
H36 C13 0.929 . S
H37 C14 0.929 . S
H38 C16 0.931 . S
H39 C17 0.930 . S
C40 C41 1.368 1_545 S
C40 C42 1.419 . S
C40 H44 0.930 . S
C41 C40 1.368 1_565 S
C41 C50 1.430 1_655 S
C42 C40 1.419 . S
C42 C43 1.363 1_645 S
C42 H45 0.929 . S
C43 C42 1.363 1_465 S
C43 C49 1.428 . S
H44 C40 0.930 . S
H45 C42 0.929 . S
S46 N47 1.613 . S
S46 N48 1.610 . S
N47 S46 1.613 . S
N47 C50 1.350 . S
N48 S46 1.610 . S
N48 C49 1.351 . S
C49 C43 1.428 . S
C49 N48 1.351 . S
C49 C50 1.434 . S
C50 C41 1.430 1_455 S
C50 N47 1.350 . S
C50 C49 1.434 . S
C51 C52 1.369 1_546 S
C51 C53 1.419 . S
C51 H55 0.930 . S
C52 C51 1.369 1_564 S
C52 C61 1.429 . S
C53 C51 1.419 . S
C53 C54 1.355 1_546 S
C53 H56 0.929 . S
C54 C53 1.355 1_564 S
C54 C60 1.431 . S
H55 C51 0.930 . S
H56 C53 0.929 . S
S57 N58 1.613 . S
S57 N59 1.610 . S
N58 S57 1.613 . S
N58 C61 1.350 . S
N59 S57 1.610 . S
N59 C60 1.351 . S
C60 C54 1.431 . S
C60 N59 1.351 . S
C60 C61 1.434 . S
C61 C52 1.429 . S
C61 N58 1.350 . S
C61 C60 1.434 . S
C62 C63 1.368 1_556 S
C62 C64 1.419 . S
C62 H66 0.930 . S
C63 C62 1.368 1_554 S
C63 C72 1.429 1_455 S
C64 C62 1.419 . S
C64 C65 1.363 1_456 S
C64 H67 0.929 . S
C65 C64 1.363 1_654 S
C65 C71 1.427 . S
H66 C62 0.930 . S
H67 C64 0.929 . S
S68 N69 1.613 . S
S68 N70 1.610 . S
N69 S68 1.613 . S
N69 C72 1.350 . S
N70 S68 1.610 . S
N70 C71 1.351 . S
C71 C65 1.427 . S
C71 N70 1.351 . S
C71 C72 1.434 . S
C72 C63 1.429 1_655 S
C72 N69 1.350 . S
C72 C71 1.434 . S
C41 C18 1.452 1_665 S
C43 C9 1.451 1_455 S
C52 C15 1.499 1_565 S
C54 C6 1.504 1_554 S
C63 C19 1.490 1_455 S
C65 C10 1.493 1_654 S
