# Generated by pormake.
# Topology unc, (4)-cn, num edge types: 1
# Building blocks:
#     Node 0, Type 0, BuildingBlock: QUQFOY_clean_sbu_1, # of connection points: 4
#     Node 1, Type 0, BuildingBlock: QUQFOY_clean_sbu_1, # of connection points: 4
#     Node 2, Type 0, BuildingBlock: QUQFOY_clean_sbu_1, # of connection points: 4
#     Node 3, Type 0, BuildingBlock: QUQFOY_clean_sbu_1, # of connection points: 4
#     Edge 4, Type (0, 0), BuildingBlock: EYOCIG_clean_linker_4, # of connection points: 2
#     Edge 5, Type (0, 0), BuildingBlock: EYOCIG_clean_linker_4, # of connection points: 2
#     Edge 6, Type (0, 0), BuildingBlock: EYOCIG_clean_linker_4, # of connection points: 2
#     Edge 7, Type (0, 0), BuildingBlock: EYOCIG_clean_linker_4, # of connection points: 2
#     Edge 8, Type (0, 0), BuildingBlock: EYOCIG_clean_linker_4, # of connection points: 2
#     Edge 9, Type (0, 0), BuildingBlock: EYOCIG_clean_linker_4, # of connection points: 2
#     Edge 10, Type (0, 0), BuildingBlock: EYOCIG_clean_linker_4, # of connection points: 2
#     Edge 11, Type (0, 0), BuildingBlock: EYOCIG_clean_linker_4, # of connection points: 2
# Relax obj value: 0.076
# Max RMSD: 0.103
# Mean RMSD: 0.103
data_MOF--net-unc--node1-QUQFOY_clean_sbu_1--edge1-EYOCIG_clean_linker_4
_symmetry_space_group_name_H-M    P1
_symmetry_Int_Tables_number       1
_symmetry_cell_setting            triclinic
loop_
_symmetry_equiv_pos_as_xyz
'x, y, z'
_cell_length_a     23.731056
_cell_length_b     23.723703
_cell_length_c     19.582664
_cell_angle_alpha  90.040803
_cell_angle_beta   89.989064
_cell_angle_gamma 90.134899
loop_
_atom_site_label
_atom_site_type_symbol
_atom_site_fract_x
_atom_site_fract_y
_atom_site_fract_z
_atom_type_partial_charge
O0 O 1.02548 0.63004 0.85504 0.0
Cd1 Cd 0.98946 0.6777 0.93152 0.0
Cd2 Cd 0.09794 0.67805 -0.02262 0.0
O3 O 0.11491 0.63914 0.88498 0.0
O4 O 0.91667 0.70496 0.89306 0.0
O5 O 0.98745 0.76199 0.92039 0.0
C6 C 0.93754 0.7551 0.8955 0.0
C7 C 0.14982 0.75564 0.01379 0.0
C8 C 0.07741 0.62106 0.84416 0.0
C9 C 1.01013 0.62059 0.06447 0.0
O10 O 0.06204 0.62998 0.05362 0.0
O11 O 0.97258 0.63847 0.02373 0.0
O12 O 0.17071 0.70561 0.01596 0.0
O13 O 0.09989 0.76232 -0.01104 0.0
O14 O 0.45812 0.06259 0.30478 0.0
Cd15 Cd 0.41051 0.09856 0.22832 0.0
Cd16 Cd 0.41015 0.99003 0.18246 0.0
O17 O 0.44906 0.97311 0.27481 0.0
O18 O 0.38319 0.17139 0.26674 0.0
O19 O 0.32624 0.10055 0.23941 0.0
C20 C 0.33308 0.15051 0.26427 0.0
C21 C 0.33253 0.93819 0.14614 0.0
C22 C 0.46711 1.01065 0.31563 0.0
C23 C 0.46763 0.07778 0.09533 0.0
O24 O 0.45822 1.02586 0.10616 0.0
O25 O 0.44977 0.11537 0.13609 0.0
O26 O 0.38252 0.91724 0.14391 0.0
O27 O 0.3259 0.98815 0.17099 0.0
O28 O 0.06241 0.4581 0.35485 0.0
Cd29 Cd 0.09844 0.41048 0.43126 0.0
Cd30 Cd 0.98996 0.41011 0.47717 0.0
O31 O 0.97298 0.44901 0.38483 0.0
O32 O 0.17125 0.38322 0.39279 0.0
O33 O 0.10049 0.32619 0.42009 0.0
C34 C 0.15041 0.33308 0.39523 0.0
C35 C 0.93815 0.3325 0.51353 0.0
C36 C 1.01048 0.46708 0.34402 0.0
C37 C 0.07774 0.46761 0.5643 0.0
O38 O 1.02584 0.4582 0.55347 0.0
O39 O 0.1153 0.44975 0.52352 0.0
O40 O 0.91721 0.38251 0.51576 0.0
O41 O 0.98807 0.32584 0.48864 0.0
O42 O 0.63011 1.02551 0.80467 0.0
Cd43 Cd 0.67777 0.98952 0.72819 0.0
Cd44 Cd 0.67813 0.09805 0.68248 0.0
O45 O 0.63926 0.11499 0.77489 0.0
O46 O 0.70502 0.9167 0.76657 0.0
O47 O 0.76203 0.98751 0.73937 0.0
C48 C 0.75514 0.93757 0.76419 0.0
C49 C 0.7557 0.1499 0.64609 0.0
C50 C 0.62116 0.07746 0.81563 0.0
C51 C 0.62065 1.01027 0.59525 0.0
O52 O 0.63003 0.06219 0.60618 0.0
O53 O 0.63855 0.97268 0.63592 0.0
O54 O 0.7057 0.17084 0.64397 0.0
O55 O 0.76237 0.09995 0.67088 0.0
C56 C 0.98805 0.56021 0.17422 0.0
C57 C 0.99456 0.58798 0.12326 0.0
C58 C 0.98815 0.52715 0.23417 0.0
C59 C 0.99479 0.4995 0.28517 0.0
C60 C 0.52719 0.98836 0.4255 0.0
C61 C 0.49954 0.995 0.37449 0.0
C62 C 0.56025 0.98825 0.48545 0.0
C63 C 0.58803 0.99473 0.53642 0.0
C64 C 0.09973 0.56101 0.73419 0.0
C65 C 0.09309 0.58865 0.78524 0.0
C66 C 0.09982 0.52798 0.67416 0.0
C67 C 0.09331 0.50022 0.62315 0.0
C68 C 0.52802 0.09982 -0.01446 0.0
C69 C 0.50025 0.09332 0.03651 0.0
C70 C 0.56108 0.09974 0.92556 0.0
C71 C 0.58874 0.09312 0.87453 0.0
C72 C 0.24974 0.87682 0.09484 0.0
C73 C 0.28578 0.90676 0.11899 0.0
C74 C 0.21126 0.83837 0.06516 0.0
C75 C 0.18128 0.80237 0.04098 0.0
C76 C 0.25042 0.21201 0.31504 0.0
C77 C 0.28641 0.18203 0.29113 0.0
C78 C 0.21195 0.25046 0.34441 0.0
C79 C 0.18195 0.28642 0.36834 0.0
C80 C 0.8384 0.21129 0.59467 0.0
C81 C 0.80241 0.18133 0.61887 0.0
C82 C 0.87682 0.24974 0.56494 0.0
C83 C 0.90675 0.28576 0.54074 0.0
C84 C 0.8377 0.87611 0.81512 0.0
C85 C 0.80176 0.90607 0.79114 0.0
C86 C 0.87611 0.83769 0.84457 0.0
C87 C 0.90606 0.80174 0.86855 0.0
loop_
_geom_bond_atom_site_label_1
_geom_bond_atom_site_label_2
_geom_bond_distance
_geom_bond_site_symmetry_2
_ccdc_geom_bond_type
O0 Cd1 2.223 1_556 S
O0 C8 1.315 . S
Cd1 O0 2.223 1_554 S
Cd1 O4 2.297 1_554 S
Cd1 O5 2.439 1_554 S
Cd1 O11 2.240 . S
Cd2 O3 2.240 . S
Cd2 O10 2.223 1_556 S
Cd2 O12 2.297 1_556 S
Cd2 O13 2.439 1_556 S
O3 Cd2 2.240 . S
O3 C8 1.279 1_455 S
O4 Cd1 2.297 1_556 S
O4 C6 1.247 . S
O5 Cd1 2.439 1_556 S
O5 C6 1.208 . S
C6 O4 1.247 . S
C6 O5 1.208 . S
C7 O12 1.247 . S
C7 O13 1.208 . S
C8 O0 1.315 . S
C8 O3 1.279 1_655 S
C9 O10 1.315 . S
C9 O11 1.279 1_455 S
O10 Cd2 2.223 1_554 S
O10 C9 1.315 . S
O11 Cd1 2.240 . S
O11 C9 1.279 1_655 S
O12 Cd2 2.297 1_554 S
O12 C7 1.247 . S
O13 Cd2 2.439 1_554 S
O13 C7 1.208 . S
O14 Cd15 2.223 . S
O14 C22 1.315 . S
Cd15 O14 2.223 . S
Cd15 O18 2.297 . S
Cd15 O19 2.439 . S
Cd15 O25 2.240 . S
Cd16 O17 2.240 . S
Cd16 O24 2.223 . S
Cd16 O26 2.297 . S
Cd16 O27 2.439 . S
O17 Cd16 2.240 . S
O17 C22 1.279 1_565 S
O18 Cd15 2.297 . S
O18 C20 1.247 . S
O19 Cd15 2.439 . S
O19 C20 1.208 . S
C20 O18 1.247 . S
C20 O19 1.208 . S
C21 O26 1.247 . S
C21 O27 1.208 . S
C22 O14 1.315 . S
C22 O17 1.279 1_545 S
C23 O24 1.315 . S
C23 O25 1.279 1_565 S
O24 Cd16 2.223 . S
O24 C23 1.315 . S
O25 Cd15 2.240 . S
O25 C23 1.279 1_545 S
O26 Cd16 2.297 . S
O26 C21 1.247 . S
O27 Cd16 2.439 . S
O27 C21 1.208 . S
O28 Cd29 2.223 . S
O28 C36 1.315 . S
Cd29 O28 2.223 . S
Cd29 O32 2.297 . S
Cd29 O33 2.439 . S
Cd29 O39 2.240 . S
Cd30 O31 2.240 . S
Cd30 O38 2.223 . S
Cd30 O40 2.297 . S
Cd30 O41 2.439 . S
O31 Cd30 2.240 . S
O31 C36 1.279 1_655 S
O32 Cd29 2.297 . S
O32 C34 1.247 . S
O33 Cd29 2.439 . S
O33 C34 1.208 . S
C34 O32 1.247 . S
C34 O33 1.208 . S
C35 O40 1.247 . S
C35 O41 1.208 . S
C36 O28 1.315 . S
C36 O31 1.279 1_455 S
C37 O38 1.315 . S
C37 O39 1.279 1_655 S
O38 Cd30 2.223 . S
O38 C37 1.315 . S
O39 Cd29 2.240 . S
O39 C37 1.279 1_455 S
O40 Cd30 2.297 . S
O40 C35 1.247 . S
O41 Cd30 2.439 . S
O41 C35 1.208 . S
O42 Cd43 2.223 . S
O42 C50 1.315 . S
Cd43 O42 2.223 . S
Cd43 O46 2.297 . S
Cd43 O47 2.439 . S
Cd43 O53 2.240 . S
Cd44 O45 2.240 . S
Cd44 O52 2.223 . S
Cd44 O54 2.297 . S
Cd44 O55 2.439 . S
O45 Cd44 2.240 . S
O45 C50 1.279 1_545 S
O46 Cd43 2.297 . S
O46 C48 1.247 . S
O47 Cd43 2.439 . S
O47 C48 1.208 . S
C48 O46 1.247 . S
C48 O47 1.208 . S
C49 O54 1.247 . S
C49 O55 1.208 . S
C50 O42 1.315 . S
C50 O45 1.279 1_565 S
C51 O52 1.315 . S
C51 O53 1.279 1_545 S
O52 Cd44 2.223 . S
O52 C51 1.315 . S
O53 Cd43 2.240 . S
O53 C51 1.279 1_565 S
O54 Cd44 2.297 . S
O54 C49 1.247 . S
O55 Cd44 2.439 . S
O55 C49 1.208 . S
C56 C57 1.170 . S
C56 C58 1.380 . S
C57 C56 1.170 . S
C58 C56 1.380 . S
C58 C59 1.170 . S
C59 C58 1.170 . S
C60 C61 1.170 . S
C60 C62 1.380 . S
C61 C60 1.170 . S
C62 C60 1.380 . S
C62 C63 1.170 . S
C63 C62 1.170 . S
C64 C65 1.170 . S
C64 C66 1.380 . S
C65 C64 1.170 . S
C66 C64 1.380 . S
C66 C67 1.170 . S
C67 C66 1.170 . S
C68 C69 1.170 . S
C68 C70 1.380 1_554 S
C69 C68 1.170 . S
C70 C68 1.380 1_556 S
C70 C71 1.170 . S
C71 C70 1.170 . S
C72 C73 1.170 . S
C72 C74 1.380 . S
C73 C72 1.170 . S
C74 C72 1.380 . S
C74 C75 1.170 . S
C75 C74 1.170 . S
C76 C77 1.170 . S
C76 C78 1.380 . S
C77 C76 1.170 . S
C78 C76 1.380 . S
C78 C79 1.170 . S
C79 C78 1.170 . S
C80 C81 1.170 . S
C80 C82 1.380 . S
C81 C80 1.170 . S
C82 C80 1.380 . S
C82 C83 1.170 . S
C83 C82 1.170 . S
C84 C85 1.170 . S
C84 C86 1.380 . S
C85 C84 1.170 . S
C86 C84 1.380 . S
C86 C87 1.170 . S
C87 C86 1.170 . S
C57 C9 1.642 . S
C59 C36 1.639 . S
C61 C22 1.626 . S
C63 C51 1.632 . S
C65 C8 1.618 . S
C67 C37 1.624 . S
C69 C23 1.620 . S
C71 C50 1.617 . S
C73 C21 1.472 . S
C75 C7 1.482 . S
C77 C20 1.473 . S
C79 C34 1.486 . S
C81 C49 1.488 . S
C83 C35 1.503 . S
C85 C48 1.473 . S
C87 C6 1.483 . S
