# Generated by pormake.
# Topology unh, (4)-cn, num edge types: 1
# Building blocks:
#     Node 0, Type 0, BuildingBlock: GALJAG_clean_sbu_0, # of connection points: 4
#     Node 1, Type 0, BuildingBlock: GALJAG_clean_sbu_0, # of connection points: 4
#     Node 2, Type 0, BuildingBlock: GALJAG_clean_sbu_0, # of connection points: 4
#     Node 3, Type 0, BuildingBlock: GALJAG_clean_sbu_0, # of connection points: 4
#     Node 4, Type 0, BuildingBlock: GALJAG_clean_sbu_0, # of connection points: 4
#     Node 5, Type 0, BuildingBlock: GALJAG_clean_sbu_0, # of connection points: 4
#     Edge 6, Type (0, 0), BuildingBlock: EYOCIG_clean_linker_4, # of connection points: 2
#     Edge 7, Type (0, 0), BuildingBlock: EYOCIG_clean_linker_4, # of connection points: 2
#     Edge 8, Type (0, 0), BuildingBlock: EYOCIG_clean_linker_4, # of connection points: 2
#     Edge 9, Type (0, 0), BuildingBlock: EYOCIG_clean_linker_4, # of connection points: 2
#     Edge 10, Type (0, 0), BuildingBlock: EYOCIG_clean_linker_4, # of connection points: 2
#     Edge 11, Type (0, 0), BuildingBlock: EYOCIG_clean_linker_4, # of connection points: 2
#     Edge 12, Type (0, 0), BuildingBlock: EYOCIG_clean_linker_4, # of connection points: 2
#     Edge 13, Type (0, 0), BuildingBlock: EYOCIG_clean_linker_4, # of connection points: 2
#     Edge 14, Type (0, 0), BuildingBlock: EYOCIG_clean_linker_4, # of connection points: 2
#     Edge 15, Type (0, 0), BuildingBlock: EYOCIG_clean_linker_4, # of connection points: 2
#     Edge 16, Type (0, 0), BuildingBlock: EYOCIG_clean_linker_4, # of connection points: 2
#     Edge 17, Type (0, 0), BuildingBlock: EYOCIG_clean_linker_4, # of connection points: 2
# Relax obj value: 0.030
# Max RMSD: 0.133
# Mean RMSD: 0.133
data_MOF--net-unh--node1-GALJAG_clean_sbu_0--edge1-EYOCIG_clean_linker_4
_symmetry_space_group_name_H-M    P1
_symmetry_Int_Tables_number       1
_symmetry_cell_setting            triclinic
loop_
_symmetry_equiv_pos_as_xyz
'x, y, z'
_cell_length_a     35.427869
_cell_length_b     35.392369
_cell_length_c     17.06078
_cell_angle_alpha  90.02866
_cell_angle_beta   90.024011
_cell_angle_gamma 120.00819
loop_
_atom_site_label
_atom_site_type_symbol
_atom_site_fract_x
_atom_site_fract_y
_atom_site_fract_z
_atom_type_partial_charge
In0 In 0.1449 0.57444 0.05133 0.0
O1 O 0.11017 0.51785 0.96459 0.0
O2 O 0.09299 0.56769 0.96531 0.0
C3 C 0.20213 0.55721 0.12366 0.0
C4 C 0.08712 0.55885 0.16642 0.0
C5 C 0.20165 0.64864 -0.02225 0.0
O6 O 0.17917 0.53452 0.06675 0.0
O7 O 0.19612 0.58798 0.1443 0.0
O8 O 0.17924 0.64863 0.03529 0.0
O9 O 0.19538 0.61175 0.95719 0.0
C10 C 0.08672 0.53218 0.93674 0.0
O11 O 0.11072 0.59662 0.13859 0.0
O12 O 0.09311 0.52947 0.13769 0.0
In13 In 0.57649 0.14242 0.21872 0.0
O14 O 0.59814 0.10784 0.13135 0.0
O15 O 0.53103 0.0901 0.13346 0.0
C16 C 0.65096 0.19975 0.29107 0.0
C17 C 0.53499 0.08456 0.33399 0.0
C18 C 0.55875 0.19909 0.14551 0.0
O19 O 0.65069 0.17697 0.23385 0.0
O20 O 0.61418 0.19356 0.31193 0.0
O21 O 0.53643 0.17653 0.20299 0.0
O22 O 0.58943 0.193 0.12483 0.0
C23 C 0.56022 0.08403 0.10427 0.0
O24 O 0.52058 0.10805 0.30664 0.0
O25 O 0.57024 0.09068 0.30467 0.0
In26 In 0.44102 0.57428 0.38382 0.0
O27 O 0.49712 0.59618 0.29619 0.0
O28 O 0.44738 0.52912 0.29715 0.0
C29 C 0.45879 0.64859 0.45768 0.0
C30 C 0.45701 0.53176 0.49777 0.0
C31 C 0.36661 0.55725 0.31153 0.0
O32 O 0.48112 0.64845 0.40013 0.0
O33 O 0.42808 0.61176 0.47812 0.0
O34 O 0.36683 0.53462 0.36852 0.0
O35 O 0.40341 0.5879 0.29085 0.0
C36 C 0.48271 0.55837 0.26825 0.0
O37 O 0.41916 0.51769 0.47043 0.0
O38 O 0.48627 0.56717 0.46908 0.0
In39 In 0.87293 0.43895 0.55111 0.0
O40 O 0.90745 0.4169 0.63778 0.0
O41 O 0.9248 0.48399 0.63743 0.0
C42 C 0.81557 0.36436 0.47892 0.0
C43 C 0.93098 0.48103 0.43634 0.0
C44 C 0.81627 0.45676 0.62406 0.0
O45 O 0.83821 0.36464 0.53631 0.0
O46 O 0.82195 0.40119 0.45772 0.0
O47 O 0.83866 0.47891 0.5663 0.0
O48 O 0.82252 0.42622 0.64515 0.0
C49 C 0.93096 0.45466 0.66582 0.0
O50 O 0.90757 0.49541 0.46419 0.0
O51 O 0.92466 0.44552 0.46488 0.0
In52 In 0.44092 0.86977 0.71838 0.0
O53 O 0.41953 0.90455 0.63102 0.0
O54 O 0.4865 0.92182 0.63293 0.0
C55 C 0.36593 0.81259 0.78921 0.0
C56 C 0.48236 0.92764 0.83391 0.0
C57 C 0.45886 0.81278 0.64679 0.0
O58 O 0.3666 0.83517 0.7314 0.0
O59 O 0.40256 0.81893 0.81143 0.0
O60 O 0.48071 0.83524 0.70482 0.0
O61 O 0.42858 0.81918 0.62469 0.0
C62 C 0.45743 0.92812 0.60384 0.0
O63 O 0.49687 0.90428 0.80632 0.0
O64 O 0.44702 0.92138 0.80471 0.0
In65 In 0.57683 0.43787 0.88354 0.0
O66 O 0.52077 0.41582 0.79567 0.0
O67 O 0.57025 0.48297 0.79705 0.0
C68 C 0.55907 0.36316 0.95577 0.0
C69 C 0.56037 0.47991 -0.00216 0.0
C70 C 0.65185 0.456 0.81242 0.0
O71 O 0.53714 0.36354 0.89774 0.0
O72 O 0.58938 0.39995 -0.02249 0.0
O73 O 0.65112 0.47801 0.87007 0.0
O74 O 0.61526 0.42542 0.79054 0.0
C75 C 0.535 0.45363 0.76793 0.0
O76 O 0.59826 0.49425 -0.02938 0.0
O77 O 0.53128 0.44445 -0.03111 0.0
C78 C 0.02566 0.49266 0.82945 0.0
C79 C 0.05394 0.50927 0.87826 0.0
C80 C 0.99198 0.47592 0.77305 0.0
C81 C 0.96371 0.46441 0.72425 0.0
C82 C 0.52156 0.98878 0.94132 0.0
C83 C 0.50503 0.96047 0.89247 0.0
C84 C 0.53843 0.02261 -0.00248 0.0
C85 C 0.55017 0.05106 0.04605 0.0
C86 C 0.52192 0.53668 0.16069 0.0
C87 C 0.50546 0.54843 0.2096 0.0
C88 C 0.53863 0.51962 0.10445 0.0
C89 C 0.55027 0.50282 0.05596 0.0
C90 C 0.99226 0.52068 0.3296 0.0
C91 C 0.96388 0.50399 0.37816 0.0
C92 C 0.02606 0.53754 0.27348 0.0
C93 C 0.05436 0.54911 0.22479 0.0
C94 C 0.49592 0.02341 0.4412 0.0
C95 C 0.51234 0.05174 0.39247 0.0
C96 C 0.47922 0.98957 0.49728 0.0
C97 C 0.46757 0.96113 0.54575 0.0
C98 C 0.4955 0.47501 0.66041 0.0
C99 C 0.51213 0.46343 0.7093 0.0
C100 C 0.4786 0.4919 0.60423 0.0
C101 C 0.46691 0.50868 0.55582 0.0
C102 C 0.26175 0.54633 0.19652 0.0
C103 C 0.23413 0.54982 0.16128 0.0
C104 C 0.29616 0.54637 0.23848 0.0
C105 C 0.32726 0.54989 0.27378 0.0
C106 C 0.72145 0.25934 0.36417 0.0
C107 C 0.69034 0.23175 0.32882 0.0
C108 C 0.75586 0.29375 0.40616 0.0
C109 C 0.7835 0.32492 0.44137 0.0
C110 C 0.47019 0.75332 0.57427 0.0
C111 C 0.46654 0.78086 0.60953 0.0
C112 C 0.47014 0.71898 0.53193 0.0
C113 C 0.46642 0.68792 0.49606 0.0
C114 C 0.72274 0.46781 0.73997 0.0
C115 C 0.69149 0.46395 0.77518 0.0
C116 C 0.7571 0.46798 0.69771 0.0
C117 C 0.78451 0.46437 0.66201 0.0
C118 C 0.2951 0.75314 0.86134 0.0
C119 C 0.32631 0.78068 0.82625 0.0
C120 C 0.26079 0.71887 0.90359 0.0
C121 C 0.23341 0.68788 0.93942 0.0
C122 C 0.54763 0.29252 0.02901 0.0
C123 C 0.55137 0.32367 -0.00651 0.0
C124 C 0.54753 0.25822 0.07152 0.0
C125 C 0.55113 0.23083 0.10735 0.0
loop_
_geom_bond_atom_site_label_1
_geom_bond_atom_site_label_2
_geom_bond_distance
_geom_bond_site_symmetry_2
_ccdc_geom_bond_type
In0 O1 2.294 1_554 S
In0 O2 2.326 . S
In0 O6 2.266 . S
In0 O7 2.326 . S
In0 O8 2.266 . S
In0 O9 2.326 1_554 S
In0 O11 2.294 . S
In0 O12 2.326 . S
O1 In0 2.294 1_556 S
O1 C10 1.240 . S
O2 In0 2.326 . S
O2 C10 1.252 1_554 S
C3 O6 1.252 . S
C3 O7 1.260 . S
C4 O11 1.240 . S
C4 O12 1.252 . S
C5 O8 1.252 . S
C5 O9 1.260 1_554 S
O6 In0 2.266 . S
O6 C3 1.252 . S
O7 In0 2.326 . S
O7 C3 1.260 . S
O8 In0 2.266 . S
O8 C5 1.252 . S
O9 In0 2.326 1_556 S
O9 C5 1.260 1_556 S
C10 O1 1.240 . S
C10 O2 1.252 1_556 S
O11 In0 2.294 . S
O11 C4 1.240 . S
O12 In0 2.326 . S
O12 C4 1.252 . S
In13 O14 2.294 . S
In13 O15 2.326 . S
In13 O19 2.266 . S
In13 O20 2.326 . S
In13 O21 2.266 . S
In13 O22 2.326 . S
In13 O24 2.294 . S
In13 O25 2.326 . S
O14 In13 2.294 . S
O14 C23 1.240 . S
O15 In13 2.326 . S
O15 C23 1.252 . S
C16 O19 1.252 . S
C16 O20 1.260 . S
C17 O24 1.240 . S
C17 O25 1.252 . S
C18 O21 1.252 . S
C18 O22 1.260 . S
O19 In13 2.266 . S
O19 C16 1.252 . S
O20 In13 2.326 . S
O20 C16 1.260 . S
O21 In13 2.266 . S
O21 C18 1.252 . S
O22 In13 2.326 . S
O22 C18 1.260 . S
C23 O14 1.240 . S
C23 O15 1.252 . S
O24 In13 2.294 . S
O24 C17 1.240 . S
O25 In13 2.326 . S
O25 C17 1.252 . S
In26 O27 2.294 . S
In26 O28 2.326 . S
In26 O32 2.266 . S
In26 O33 2.326 . S
In26 O34 2.266 . S
In26 O35 2.326 . S
In26 O37 2.294 . S
In26 O38 2.326 . S
O27 In26 2.294 . S
O27 C36 1.240 . S
O28 In26 2.326 . S
O28 C36 1.252 . S
C29 O32 1.252 . S
C29 O33 1.260 . S
C30 O37 1.240 . S
C30 O38 1.252 . S
C31 O34 1.252 . S
C31 O35 1.260 . S
O32 In26 2.266 . S
O32 C29 1.252 . S
O33 In26 2.326 . S
O33 C29 1.260 . S
O34 In26 2.266 . S
O34 C31 1.252 . S
O35 In26 2.326 . S
O35 C31 1.260 . S
C36 O27 1.240 . S
C36 O28 1.252 . S
O37 In26 2.294 . S
O37 C30 1.240 . S
O38 In26 2.326 . S
O38 C30 1.252 . S
In39 O40 2.294 . S
In39 O41 2.326 . S
In39 O45 2.266 . S
In39 O46 2.326 . S
In39 O47 2.266 . S
In39 O48 2.326 . S
In39 O50 2.294 . S
In39 O51 2.326 . S
O40 In39 2.294 . S
O40 C49 1.240 . S
O41 In39 2.326 . S
O41 C49 1.252 . S
C42 O45 1.252 . S
C42 O46 1.260 . S
C43 O50 1.240 . S
C43 O51 1.252 . S
C44 O47 1.252 . S
C44 O48 1.260 . S
O45 In39 2.266 . S
O45 C42 1.252 . S
O46 In39 2.326 . S
O46 C42 1.260 . S
O47 In39 2.266 . S
O47 C44 1.252 . S
O48 In39 2.326 . S
O48 C44 1.260 . S
C49 O40 1.240 . S
C49 O41 1.252 . S
O50 In39 2.294 . S
O50 C43 1.240 . S
O51 In39 2.326 . S
O51 C43 1.252 . S
In52 O53 2.294 . S
In52 O54 2.326 . S
In52 O58 2.266 . S
In52 O59 2.326 . S
In52 O60 2.266 . S
In52 O61 2.326 . S
In52 O63 2.294 . S
In52 O64 2.326 . S
O53 In52 2.294 . S
O53 C62 1.240 . S
O54 In52 2.326 . S
O54 C62 1.252 . S
C55 O58 1.252 . S
C55 O59 1.260 . S
C56 O63 1.240 . S
C56 O64 1.252 . S
C57 O60 1.252 . S
C57 O61 1.260 . S
O58 In52 2.266 . S
O58 C55 1.252 . S
O59 In52 2.326 . S
O59 C55 1.260 . S
O60 In52 2.266 . S
O60 C57 1.252 . S
O61 In52 2.326 . S
O61 C57 1.260 . S
C62 O53 1.240 . S
C62 O54 1.252 . S
O63 In52 2.294 . S
O63 C56 1.240 . S
O64 In52 2.326 . S
O64 C56 1.252 . S
In65 O66 2.294 . S
In65 O67 2.326 . S
In65 O71 2.266 . S
In65 O72 2.326 1_556 S
In65 O73 2.266 . S
In65 O74 2.326 . S
In65 O76 2.294 1_556 S
In65 O77 2.326 . S
O66 In65 2.294 . S
O66 C75 1.240 . S
O67 In65 2.326 . S
O67 C75 1.252 . S
C68 O71 1.252 . S
C68 O72 1.260 1_556 S
C69 O76 1.240 . S
C69 O77 1.252 1_554 S
C70 O73 1.252 . S
C70 O74 1.260 . S
O71 In65 2.266 . S
O71 C68 1.252 . S
O72 In65 2.326 1_554 S
O72 C68 1.260 1_554 S
O73 In65 2.266 . S
O73 C70 1.252 . S
O74 In65 2.326 . S
O74 C70 1.260 . S
C75 O66 1.240 . S
C75 O67 1.252 . S
O76 In65 2.294 1_554 S
O76 C69 1.240 . S
O77 In65 2.326 . S
O77 C69 1.252 1_556 S
C78 C79 1.170 . S
C78 C80 1.380 1_455 S
C79 C78 1.170 . S
C80 C78 1.380 1_655 S
C80 C81 1.170 . S
C81 C80 1.170 . S
C82 C83 1.170 . S
C82 C84 1.380 1_566 S
C83 C82 1.170 . S
C84 C82 1.380 1_544 S
C84 C85 1.170 . S
C85 C84 1.170 . S
C86 C87 1.170 . S
C86 C88 1.380 . S
C87 C86 1.170 . S
C88 C86 1.380 . S
C88 C89 1.170 . S
C89 C88 1.170 . S
C90 C91 1.170 . S
C90 C92 1.380 1_655 S
C91 C90 1.170 . S
C92 C90 1.380 1_455 S
C92 C93 1.170 . S
C93 C92 1.170 . S
C94 C95 1.170 . S
C94 C96 1.380 1_545 S
C95 C94 1.170 . S
C96 C94 1.380 1_565 S
C96 C97 1.170 . S
C97 C96 1.170 . S
C98 C99 1.170 . S
C98 C100 1.380 . S
C99 C98 1.170 . S
C100 C98 1.380 . S
C100 C101 1.170 . S
C101 C100 1.170 . S
C102 C103 1.170 . S
C102 C104 1.380 . S
C103 C102 1.170 . S
C104 C102 1.380 . S
C104 C105 1.170 . S
C105 C104 1.170 . S
C106 C107 1.170 . S
C106 C108 1.380 . S
C107 C106 1.170 . S
C108 C106 1.380 . S
C108 C109 1.170 . S
C109 C108 1.170 . S
C110 C111 1.170 . S
C110 C112 1.380 . S
C111 C110 1.170 . S
C112 C110 1.380 . S
C112 C113 1.170 . S
C113 C112 1.170 . S
C114 C115 1.170 . S
C114 C116 1.380 . S
C115 C114 1.170 . S
C116 C114 1.380 . S
C116 C117 1.170 . S
C117 C116 1.170 . S
C118 C119 1.170 . S
C118 C120 1.380 . S
C119 C118 1.170 . S
C120 C118 1.380 . S
C120 C121 1.170 . S
C121 C120 1.170 . S
C122 C123 1.170 . S
C122 C124 1.380 . S
C123 C122 1.170 . S
C124 C122 1.380 . S
C124 C125 1.170 . S
C125 C124 1.170 . S
C79 C10 1.383 . S
C81 C49 1.376 . S
C83 C56 1.382 . S
C85 C23 1.376 . S
C87 C36 1.385 . S
C89 C69 1.376 . S
C91 C43 1.381 . S
C93 C4 1.389 . S
C95 C17 1.383 . S
C97 C62 1.376 . S
C99 C75 1.387 . S
C101 C30 1.376 . S
C103 C3 1.377 . S
C105 C31 1.372 . S
C107 C16 1.372 . S
C109 C42 1.378 . S
C111 C57 1.387 . S
C113 C29 1.380 . S
C115 C70 1.390 . S
C117 C44 1.387 . S
C119 C55 1.381 . S
C121 C5 1.374 1_556 S
C123 C68 1.389 1_554 S
C125 C18 1.385 . S
