# Generated by pormake.
# Topology qtz-x, (6)-cn, num edge types: 1
# Building blocks:
#     Node 0, Type 0, BuildingBlock: UKALOJ_clean_sbu_0, # of connection points: 6
#     Node 1, Type 0, BuildingBlock: UKALOJ_clean_sbu_0, # of connection points: 6
#     Node 2, Type 0, BuildingBlock: UKALOJ_clean_sbu_0, # of connection points: 6
#     Edge 3, Type (0, 0), BuildingBlock: EZIPEK_clean_linker_0, # of connection points: 2
#     Edge 4, Type (0, 0), BuildingBlock: EZIPEK_clean_linker_0, # of connection points: 2
#     Edge 5, Type (0, 0), BuildingBlock: EZIPEK_clean_linker_0, # of connection points: 2
#     Edge 6, Type (0, 0), BuildingBlock: EZIPEK_clean_linker_0, # of connection points: 2
#     Edge 7, Type (0, 0), BuildingBlock: EZIPEK_clean_linker_0, # of connection points: 2
#     Edge 8, Type (0, 0), BuildingBlock: EZIPEK_clean_linker_0, # of connection points: 2
#     Edge 9, Type (0, 0), BuildingBlock: EZIPEK_clean_linker_0, # of connection points: 2
#     Edge 10, Type (0, 0), BuildingBlock: EZIPEK_clean_linker_0, # of connection points: 2
#     Edge 11, Type (0, 0), BuildingBlock: EZIPEK_clean_linker_0, # of connection points: 2
# Relax obj value: 0.355
# Max RMSD: 0.267
# Mean RMSD: 0.265
data_MOF--net-qtz-x--node1-UKALOJ_clean_sbu_0--edge1-EZIPEK_clean_linker_0
_symmetry_space_group_name_H-M    P1
_symmetry_Int_Tables_number       1
_symmetry_cell_setting            triclinic
loop_
_symmetry_equiv_pos_as_xyz
'x, y, z'
_cell_length_a     15.829647
_cell_length_b     15.83838
_cell_length_c     22.664581
_cell_angle_alpha  93.663775
_cell_angle_beta   93.448756
_cell_angle_gamma 120.39473
loop_
_atom_site_label
_atom_site_type_symbol
_atom_site_fract_x
_atom_site_fract_y
_atom_site_fract_z
_atom_type_partial_charge
Zn0 Zn 0.00601 0.55114 0.20894 0.0
O1 O 0.10547 0.61078 0.13952 0.0
C2 C 0.84507 0.42611 0.11965 0.0
Zn3 Zn 0.00597 0.41382 0.19693 0.0
C4 C 0.13965 0.55856 0.11887 0.0
O5 O 0.11017 0.47473 0.13621 0.0
C6 C 0.8755 0.39845 0.2874 0.0
O7 O 0.12926 0.46205 0.26959 0.0
O8 O 0.12711 0.5981 0.26735 0.0
N9 N 0.99746 0.28568 0.17389 0.0
C10 C 0.01002 0.2237 0.20581 0.0
C11 C 0.97295 0.16118 0.11496 0.0
N12 N 0.97442 0.24704 0.11751 0.0
N13 N 0.99522 0.14569 0.16984 0.0
C14 C 0.00601 0.74403 0.20025 0.0
C15 C 0.03532 0.80221 0.29172 0.0
N16 N 0.01587 0.6804 0.23212 0.0
N17 N 0.03393 0.71641 0.28886 0.0
N18 N 0.01798 0.82043 0.23661 0.0
H19 H 0.89822 0.6908 0.12483 0.0
H20 H 0.00575 0.68452 0.1118 0.0
H21 H 0.01108 0.80152 0.11594 0.0
C22 C 0.97958 0.72955 0.1343 0.0
C23 C 0.03805 0.2397 0.27165 0.0
H24 H 0.11958 0.28135 0.28043 0.0
H25 H 0.00979 0.16836 0.29046 0.0
H26 H 0.00962 0.28272 0.29432 0.0
O27 O 0.90229 0.34793 0.25716 0.0
O28 O 0.90954 0.48835 0.27898 0.0
C29 C 0.16536 0.55235 0.28925 0.0
O30 O 0.88336 0.50855 0.15049 0.0
O31 O 0.88322 0.3724 0.12624 0.0
Zn32 Zn 0.61316 0.01641 0.54875 0.0
O33 O 0.55806 0.88902 0.47827 0.0
C34 C 0.64011 0.15437 0.46079 0.0
Zn35 Zn 0.48251 0.02882 0.53925 0.0
C36 C 0.47068 0.86245 0.457 0.0
O37 O 0.4332 0.91005 0.47821 0.0
C38 C 0.60876 0.18431 0.62841 0.0
O39 O 0.4158 0.92499 0.6068 0.0
O40 O 0.5499 0.91694 0.6107 0.0
N41 N 0.3585 0.02839 0.51526 0.0
C42 C 0.28557 0.02045 0.54609 0.0
C43 C 0.25333 0.04072 0.45696 0.0
N44 N 0.33872 0.04122 0.45999 0.0
N45 N 0.21913 0.02762 0.51046 0.0
C46 C 0.8059 0.0167 0.53988 0.0
C47 C 0.84979 0.01809 0.63117 0.0
N48 N 0.73717 0.01652 0.5718 0.0
N49 N 0.76425 0.01733 0.62846 0.0
N50 N 0.8767 0.01768 0.5761 0.0
H51 H 0.73097 0.98643 0.4514 0.0
H52 H 0.84337 0.98241 0.45527 0.0
H53 H 0.84877 0.0985 0.46498 0.0
C54 C 0.80656 0.02034 0.47398 0.0
C55 C 0.27963 0.0068 0.61083 0.0
H56 H 0.24575 0.92721 0.61582 0.0
H57 H 0.23332 0.03313 0.63031 0.0
H58 H 0.35402 0.04656 0.63562 0.0
O59 O 0.5253 0.14714 0.59936 0.0
O60 O 0.6613 0.14504 0.61932 0.0
C61 C 0.46643 0.88941 0.62792 0.0
O62 O 0.6816 0.11404 0.48626 0.0
O63 O 0.55427 0.13208 0.47331 0.0
Zn64 Zn 0.57021 0.5977 0.8836 0.0
O65 O 0.63693 0.5414 0.82024 0.0
C66 C 0.44621 0.61949 0.78986 0.0
Zn67 Zn 0.43245 0.45945 0.86255 0.0
C68 C 0.58054 0.45766 0.79008 0.0
O69 O 0.48958 0.41314 0.79612 0.0
C70 C 0.41213 0.58537 0.95646 0.0
O71 O 0.48645 0.3914 0.92621 0.0
O72 O 0.61369 0.53923 0.95009 0.0
N73 N 0.30415 0.3346 0.83957 0.0
C74 C 0.24434 0.26357 0.87158 0.0
C75 C 0.17484 0.22663 0.78238 0.0
N76 N 0.26128 0.3118 0.78417 0.0
N77 N 0.16342 0.19557 0.83671 0.0
C78 C 0.76245 0.79003 0.87441 0.0
C79 C 0.81832 0.84039 0.96587 0.0
N80 N 0.69782 0.72357 0.90694 0.0
N81 N 0.73234 0.75464 0.96372 0.0
N82 N 0.83799 0.86337 0.91033 0.0
H83 H 0.71689 0.8302 0.79584 0.0
H84 H 0.70205 0.7096 0.78703 0.0
H85 H 0.82309 0.81831 0.79033 0.0
C86 C 0.75042 0.78596 0.808 0.0
C87 C 0.26477 0.25964 0.93648 0.0
H88 H 0.30214 0.21676 0.94129 0.0
H89 H 0.19513 0.22192 0.95748 0.0
H90 H 0.31318 0.33414 0.96013 0.0
O91 O 0.37003 0.49989 0.92867 0.0
O92 O 0.49961 0.64764 0.94644 0.0
C93 C 0.56966 0.44863 0.95665 0.0
O94 O 0.53188 0.66163 0.81739 0.0
O95 O 0.38441 0.53192 0.79983 0.0
C96 C 0.09925 0.98848 0.20889 0.0
C97 C 0.01245 0.9033 0.22085 0.0
C98 C 0.9147 0.9794 0.20033 0.0
C99 C 1.00064 0.06287 0.18581 0.0
N100 N 0.17209 0.14825 0.17118 0.0
N101 N 0.83731 0.81033 0.22374 0.0
C102 C 0.0925 0.06788 0.18871 0.0
C103 C 0.91985 0.89667 0.21544 0.0
N104 N 0.18755 0.99268 0.21758 0.0
N105 N 0.82935 0.9812 0.20094 0.0
H106 H 0.84017 0.74964 0.23657 0.0
H107 H 0.7659 0.79656 0.21514 0.0
H108 H 0.82383 0.04083 0.18882 0.0
H109 H 0.76569 0.92673 0.21631 0.0
H110 H 0.25542 0.0551 0.21431 0.0
H111 H 0.19332 0.93385 0.23105 0.0
H112 H 0.24013 0.15444 0.16755 0.0
H113 H 0.1685 0.20797 0.15719 0.0
C114 C 0.04343 0.93373 0.52237 0.0
C115 C 0.13215 0.02537 0.52588 0.0
C116 C 0.05112 0.11224 0.56088 0.0
C117 C 0.96367 0.02022 0.56034 0.0
N118 N 0.87432 0.84354 0.54618 0.0
N119 N 0.22705 0.20015 0.55339 0.0
C120 C 0.95914 0.93071 0.5426 0.0
C121 C 0.13788 0.11444 0.54646 0.0
N122 N 0.04059 0.85057 0.49888 0.0
N123 N 0.04963 0.19691 0.5738 0.0
H124 H 0.29136 0.20349 0.54174 0.0
H125 H 0.23881 0.26659 0.57367 0.0
H126 H 0.98672 0.19661 0.58546 0.0
H127 H 0.10824 0.26697 0.56969 0.0
H128 H 0.97662 0.78186 0.49026 0.0
H129 H 0.10262 0.85152 0.48482 0.0
H130 H 0.86748 0.77478 0.53858 0.0
H131 H 0.81118 0.84028 0.5601 0.0
C132 C 0.91752 0.03485 0.88892 0.0
C133 C 0.92139 0.94834 0.89348 0.0
C134 C 0.08189 0.02291 0.85565 0.0
C135 C 0.08013 0.11099 0.85399 0.0
N136 N 0.00624 0.20835 0.87501 0.0
N137 N 0.006 0.85857 0.88708 0.0
C138 C 1.00048 0.11912 0.87223 0.0
C139 C 0.00353 0.94196 0.87853 0.0
N140 N 0.83325 0.0347 0.89911 0.0
N141 N 0.15816 0.01738 0.83446 0.0
H142 H 0.9481 0.79782 0.90306 0.0
H143 H 0.06669 0.85099 0.88163 0.0
H144 H 0.21701 0.07698 0.81827 0.0
H145 H 0.1611 0.9532 0.82974 0.0
H146 H 0.82146 0.09204 0.89092 0.0
H147 H 0.77205 0.97384 0.91257 0.0
H148 H 0.9553 0.22217 0.89359 0.0
H149 H 0.06603 0.27093 0.8619 0.0
C150 C 0.25261 0.57241 0.97365 0.0
C151 C 0.35237 0.60965 0.99537 0.0
C152 C 0.31511 0.64867 0.09395 0.0
C153 C 0.21266 0.59109 0.07442 0.0
N154 N 0.08495 0.4805 0.99677 0.0
N155 N 0.4795 0.68231 0.0783 0.0
C156 C 0.18148 0.54895 1.01438 0.0
C157 C 0.38476 0.6497 0.05594 0.0
N158 N 0.2256 0.55803 0.91383 0.0
N159 N 0.34542 0.69954 0.14939 0.0
H160 H 0.53245 0.6848 0.05218 0.0
H161 H 0.50416 0.70137 0.12346 0.0
H162 H 0.29597 0.69806 0.17836 0.0
H163 H 0.419 0.74944 0.16451 0.0
H164 H 0.15479 0.53745 0.89583 0.0
H165 H 0.27698 0.57795 0.88287 0.0
H166 H 0.06073 0.44105 0.95462 0.0
H167 H 0.03122 0.45487 1.02609 0.0
C168 C 0.65123 0.23136 0.36341 0.0
C169 C 0.69598 0.22979 0.41955 0.0
C170 C 0.85872 0.34809 0.39048 0.0
C171 C 0.81369 0.35345 0.3361 0.0
N172 N 0.66678 0.31902 0.27659 0.0
N173 N 0.84025 0.3113 0.49209 0.0
C174 C 0.70962 0.30172 0.32476 0.0
C175 C 0.79905 0.296 0.4348 0.0
N176 N 0.55545 0.16156 0.34472 0.0
N177 N 0.95868 0.38929 0.39911 0.0
H178 H 0.79979 0.27701 0.52665 0.0
H179 H 0.91266 0.36605 0.50657 0.0
H180 H 0.00547 0.42913 0.36814 0.0
H181 H 0.99429 0.377 0.4348 0.0
H182 H 0.52274 0.15319 0.30181 0.0
H183 H 0.51091 0.10566 0.36971 0.0
H184 H 0.59114 0.29021 0.26857 0.0
H185 H 0.70816 0.37024 0.24794 0.0
C186 C 0.46016 0.77967 0.77327 0.0
C187 C 0.42072 0.67941 0.75182 0.0
C188 C 0.37364 0.71535 0.65498 0.0
C189 C 0.43403 0.81801 0.67335 0.0
N190 N 0.55408 0.94551 0.74829 0.0
N191 N 0.34004 0.55078 0.66974 0.0
C192 C 0.48175 0.84979 0.73226 0.0
C193 C 0.37531 0.64607 0.69221 0.0
N194 N 0.47868 0.80829 0.83303 0.0
N195 N 0.31782 0.68443 0.60117 0.0
H196 H 0.3398 0.49821 0.69515 0.0
H197 H 0.3166 0.52528 0.6249 0.0
H198 H 0.31723 0.73362 0.57286 0.0
H199 H 0.26611 0.61087 0.58716 0.0
H200 H 0.50146 0.87986 0.85079 0.0
H201 H 0.45981 0.75777 0.86437 0.0
H202 H 0.59672 0.96936 0.7894 0.0
H203 H 0.57971 0.99815 0.71839 0.0
C204 C 0.59733 0.36069 1.04042 0.0
C205 C 0.62864 0.4132 0.98995 0.0
C206 C 0.79887 0.45783 1.02004 0.0
C207 C 0.76871 0.40487 0.07008 0.0
N208 N 0.63731 0.28799 0.12138 0.0
N209 N 0.75256 0.47777 0.92146 0.0
C210 C 0.66683 0.34947 0.07778 0.0
C211 C 0.72707 0.44988 0.9764 0.0
N212 N 0.50368 0.32674 0.05452 0.0
N213 N 0.89647 0.5216 1.01575 0.0
H214 H 0.7017 0.4713 0.88788 0.0
H215 H 0.82069 0.49588 0.90739 0.0
H216 H 0.95222 0.53235 0.04749 0.0
H217 H 0.92146 0.57095 0.98378 0.0
H218 H 0.47915 0.29709 0.09402 0.0
H219 H 0.45178 0.3332 1.02776 0.0
H220 H 0.56376 0.2402 0.12707 0.0
H221 H 0.68715 0.27894 0.14856 0.0
C222 C 0.33605 0.61546 0.34968 0.0
C223 C 0.24259 0.60872 0.34123 0.0
C224 C 0.31636 0.7736 0.38897 0.0
C225 C 0.40482 0.77782 0.40956 0.0
N226 N 0.49378 0.68989 0.41133 0.0
N227 N 0.14206 0.66792 0.38247 0.0
C228 C 0.41376 0.6946 0.39086 0.0
C229 C 0.23221 0.68205 0.37268 0.0
N230 N 0.35198 0.54987 0.31786 0.0
N231 N 0.31324 0.85655 0.38059 0.0
H232 H 0.07753 0.59986 0.37147 0.0
H233 H 0.13452 0.72209 0.4062 0.0
H234 H 0.37732 0.92545 0.38245 0.0
H235 H 0.2487 0.8534 0.36371 0.0
H236 H 0.42127 0.55731 0.31787 0.0
H237 H 0.29644 0.49106 0.28926 0.0
H238 H 0.49836 0.6269 0.40314 0.0
H239 H 0.55296 0.74657 0.43889 0.0
C240 C 0.67039 0.4311 0.70697 0.0
C241 C 0.61786 0.39965 0.75743 0.0
C242 C 0.57819 0.2306 0.72866 0.0
C243 C 0.63165 0.2608 0.67863 0.0
N244 N 0.74432 0.3927 0.62602 0.0
N245 N 0.55541 0.27708 0.82663 0.0
C246 C 0.68401 0.36255 0.6702 0.0
C247 C 0.58381 0.30218 0.77173 0.0
N248 N 0.7018 0.52387 0.69218 0.0
N249 N 0.51469 0.133 0.73296 0.0
H250 H 0.55928 0.32755 0.85964 0.0
H251 H 0.53928 0.2099 0.84125 0.0
H252 H 0.50331 0.07736 0.70086 0.0
H253 H 0.46532 0.10793 0.765 0.0
H254 H 0.73095 0.54824 0.65252 0.0
H255 H 0.69378 0.57525 0.71851 0.0
H256 H 0.79062 0.46626 0.61981 0.0
H257 H 0.75373 0.34329 0.59879 0.0
loop_
_geom_bond_atom_site_label_1
_geom_bond_atom_site_label_2
_geom_bond_distance
_geom_bond_site_symmetry_2
_ccdc_geom_bond_type
Zn0 O1 2.055 . S
Zn0 O8 2.046 . S
Zn0 N16 2.036 . S
Zn0 O28 2.053 1_455 S
Zn0 O30 2.066 1_455 S
O1 Zn0 2.055 . S
O1 C4 1.259 . S
C2 O30 1.256 . S
C2 O31 1.244 . S
Zn3 O5 2.046 . S
Zn3 O7 2.055 . S
Zn3 N9 2.036 . S
Zn3 O27 2.066 1_455 S
Zn3 O31 2.053 1_455 S
C4 O1 1.259 . S
C4 O5 1.254 . S
O5 Zn3 2.046 . S
O5 C4 1.254 . S
C6 O27 1.256 . S
C6 O28 1.244 . S
O7 Zn3 2.055 . S
O7 C29 1.259 . S
O8 Zn0 2.046 . S
O8 C29 1.254 . S
N9 Zn3 2.036 . S
N9 C10 1.298 . S
N9 N12 1.398 1_455 S
C10 N9 1.298 . S
C10 N13 1.367 1_455 S
C10 C23 1.481 . S
C11 N12 1.299 . S
C11 N13 1.379 . S
N12 N9 1.398 1_655 S
N12 C11 1.299 . S
N13 C10 1.367 1_655 S
N13 C11 1.379 . S
C14 N16 1.298 . S
C14 N18 1.367 1_455 S
C14 C22 1.481 . S
C15 N17 1.299 . S
C15 N18 1.379 . S
N16 Zn0 2.036 . S
N16 C14 1.298 . S
N16 N17 1.398 1_455 S
N17 C15 1.299 . S
N17 N16 1.398 1_655 S
N18 C14 1.367 1_655 S
N18 C15 1.379 . S
H19 C22 0.980 . S
H20 C22 0.981 . S
H21 C22 0.981 1_655 S
C22 C14 1.481 . S
C22 H19 0.980 . S
C22 H20 0.981 . S
C22 H21 0.981 1_455 S
C23 C10 1.481 . S
C23 H24 0.980 . S
C23 H25 0.981 . S
C23 H26 0.981 . S
H24 C23 0.980 . S
H25 C23 0.981 . S
H26 C23 0.981 . S
O27 Zn3 2.066 1_655 S
O27 C6 1.256 . S
O28 Zn0 2.053 1_655 S
O28 C6 1.244 . S
C29 O7 1.259 . S
C29 O8 1.254 . S
O30 Zn0 2.066 1_655 S
O30 C2 1.256 . S
O31 C2 1.244 . S
O31 Zn3 2.053 1_655 S
Zn32 O33 2.055 . S
Zn32 O40 2.046 . S
Zn32 N48 2.036 1_565 S
Zn32 O60 2.053 1_565 S
Zn32 O62 2.066 1_565 S
O33 Zn32 2.055 . S
O33 C36 1.259 . S
C34 O62 1.256 . S
C34 O63 1.244 . S
Zn35 O37 2.046 . S
Zn35 O39 2.055 . S
Zn35 N41 2.036 1_565 S
Zn35 O59 2.066 1_565 S
Zn35 O63 2.053 1_565 S
C36 O33 1.259 . S
C36 O37 1.254 . S
O37 Zn35 2.046 . S
O37 C36 1.254 . S
C38 O59 1.256 . S
C38 O60 1.244 . S
O39 Zn35 2.055 . S
O39 C61 1.259 . S
O40 Zn32 2.046 . S
O40 C61 1.254 . S
N41 Zn35 2.036 1_545 S
N41 C42 1.298 . S
N41 N44 1.398 . S
C42 N41 1.298 . S
C42 N45 1.367 . S
C42 C55 1.481 1_545 S
C43 N44 1.299 . S
C43 N45 1.379 . S
N44 N41 1.398 . S
N44 C43 1.299 . S
N45 C42 1.367 . S
N45 C43 1.379 . S
C46 N48 1.302 . S
C46 N50 1.366 . S
C46 C54 1.478 1_545 S
C47 N49 1.299 . S
C47 N50 1.379 . S
N48 Zn32 2.036 1_545 S
N48 C46 1.302 . S
N48 N49 1.398 . S
N49 C47 1.299 . S
N49 N48 1.398 . S
N50 C46 1.366 . S
N50 C47 1.379 . S
H51 C54 0.980 . S
H52 C54 0.981 . S
H53 C54 0.981 1_545 S
C54 C46 1.478 1_565 S
C54 H51 0.980 . S
C54 H52 0.981 . S
C54 H53 0.981 1_565 S
C55 C42 1.481 1_565 S
C55 H56 0.980 . S
C55 H57 0.981 . S
C55 H58 0.981 1_565 S
H56 C55 0.980 . S
H57 C55 0.981 . S
H58 C55 0.981 1_545 S
O59 Zn35 2.066 1_545 S
O59 C38 1.256 . S
O60 Zn32 2.053 1_545 S
O60 C38 1.244 . S
C61 O39 1.259 . S
C61 O40 1.254 . S
O62 Zn32 2.066 1_545 S
O62 C34 1.256 . S
O63 C34 1.244 . S
O63 Zn35 2.053 1_545 S
Zn64 O65 2.055 . S
Zn64 O72 2.046 . S
Zn64 N80 2.036 . S
Zn64 O92 2.053 . S
Zn64 O94 2.066 . S
O65 Zn64 2.055 . S
O65 C68 1.259 . S
C66 O94 1.256 . S
C66 O95 1.244 . S
Zn67 O69 2.046 . S
Zn67 O71 2.055 . S
Zn67 N73 2.036 . S
Zn67 O91 2.066 . S
Zn67 O95 2.053 . S
C68 O65 1.259 . S
C68 O69 1.254 . S
O69 Zn67 2.046 . S
O69 C68 1.254 . S
C70 O91 1.256 . S
C70 O92 1.244 . S
O71 Zn67 2.055 . S
O71 C93 1.259 . S
O72 Zn64 2.046 . S
O72 C93 1.254 . S
N73 Zn67 2.036 . S
N73 C74 1.298 . S
N73 N76 1.398 . S
C74 N73 1.298 . S
C74 N77 1.367 . S
C74 C87 1.481 . S
C75 N76 1.299 . S
C75 N77 1.379 . S
N76 N73 1.398 . S
N76 C75 1.299 . S
N77 C74 1.367 . S
N77 C75 1.379 . S
C78 N80 1.298 . S
C78 N82 1.367 . S
C78 C86 1.481 . S
C79 N81 1.299 . S
C79 N82 1.379 . S
N80 Zn64 2.036 . S
N80 C78 1.298 . S
N80 N81 1.398 . S
N81 C79 1.299 . S
N81 N80 1.398 . S
N82 C78 1.367 . S
N82 C79 1.379 . S
H83 C86 0.980 . S
H84 C86 0.981 . S
H85 C86 0.981 . S
C86 C78 1.481 . S
C86 H83 0.980 . S
C86 H84 0.981 . S
C86 H85 0.981 . S
C87 C74 1.481 . S
C87 H88 0.980 . S
C87 H89 0.981 . S
C87 H90 0.981 . S
H88 C87 0.980 . S
H89 C87 0.981 . S
H90 C87 0.981 . S
O91 Zn67 2.066 . S
O91 C70 1.256 . S
O92 Zn64 2.053 . S
O92 C70 1.244 . S
C93 O71 1.259 . S
C93 O72 1.254 . S
O94 Zn64 2.066 . S
O94 C66 1.256 . S
O95 C66 1.244 . S
O95 Zn67 2.053 . S
C96 C97 1.363 1_455 S
C96 C102 1.379 1_565 S
C96 N104 1.356 . S
C97 C96 1.363 1_655 S
C97 C103 1.363 . S
C98 C99 1.363 1_565 S
C98 C103 1.379 . S
C98 N105 1.356 1_565 S
C99 C98 1.363 1_545 S
C99 C102 1.363 1_655 S
N100 C102 1.356 . S
N100 H112 0.984 . S
N100 H113 0.985 . S
N101 C103 1.356 . S
N101 H106 0.984 . S
N101 H107 0.985 . S
C102 C96 1.379 1_545 S
C102 C99 1.363 1_455 S
C102 N100 1.356 . S
C103 C97 1.363 . S
C103 C98 1.379 . S
C103 N101 1.356 . S
N104 C96 1.356 . S
N104 H110 0.984 . S
N104 H111 0.984 . S
N105 C98 1.356 1_545 S
N105 H108 0.984 . S
N105 H109 0.985 1_545 S
H106 N101 0.984 . S
H107 N101 0.985 . S
H108 N105 0.984 . S
H109 N105 0.985 1_565 S
H110 N104 0.984 . S
H111 N104 0.984 . S
H112 N100 0.984 . S
H113 N100 0.985 . S
C114 C115 1.363 1_565 S
C114 C120 1.379 1_455 S
C114 N122 1.356 . S
C115 C114 1.363 1_545 S
C115 C121 1.363 . S
C116 C117 1.363 1_455 S
C116 C121 1.379 . S
C116 N123 1.356 . S
C117 C116 1.363 1_655 S
C117 C120 1.363 1_545 S
N118 C120 1.356 . S
N118 H130 0.984 . S
N118 H131 0.985 . S
N119 C121 1.356 . S
N119 H124 0.984 . S
N119 H125 0.985 . S
C120 C114 1.379 1_655 S
C120 C117 1.363 1_565 S
C120 N118 1.356 . S
C121 C115 1.363 . S
C121 C116 1.379 . S
C121 N119 1.356 . S
N122 C114 1.356 . S
N122 H128 0.984 . S
N122 H129 0.984 . S
N123 C116 1.356 . S
N123 H126 0.984 1_455 S
N123 H127 0.985 . S
H124 N119 0.984 . S
H125 N119 0.985 . S
H126 N123 0.984 1_655 S
H127 N123 0.985 . S
H128 N122 0.984 . S
H129 N122 0.984 . S
H130 N118 0.984 . S
H131 N118 0.985 . S
C132 C133 1.363 1_545 S
C132 C138 1.379 1_655 S
C132 N140 1.356 1_545 S
C133 C132 1.363 1_565 S
C133 C139 1.363 . S
C134 C135 1.363 . S
C134 C139 1.379 1_445 S
C134 N141 1.356 . S
C135 C134 1.363 . S
C135 C138 1.363 . S
N136 C138 1.356 . S
N136 H148 0.984 . S
N136 H149 0.985 . S
N137 C139 1.356 . S
N137 H142 0.984 . S
N137 H143 0.985 . S
C138 C132 1.379 1_455 S
C138 C135 1.363 . S
C138 N136 1.356 . S
C139 C133 1.363 . S
C139 C134 1.379 1_665 S
C139 N137 1.356 . S
N140 C132 1.356 1_565 S
N140 H146 0.984 1_565 S
N140 H147 0.984 . S
N141 C134 1.356 . S
N141 H144 0.984 . S
N141 H145 0.985 . S
H142 N137 0.984 . S
H143 N137 0.985 . S
H144 N141 0.984 . S
H145 N141 0.985 . S
H146 N140 0.984 1_545 S
H147 N140 0.984 . S
H148 N136 0.984 . S
H149 N136 0.985 . S
C150 C151 1.363 . S
C150 C156 1.379 . S
C150 N158 1.356 . S
C151 C150 1.363 . S
C151 C157 1.363 1_556 S
C152 C153 1.363 . S
C152 C157 1.379 . S
C152 N159 1.356 . S
C153 C152 1.363 . S
C153 C156 1.363 1_554 S
N154 C156 1.356 . S
N154 H166 0.984 . S
N154 H167 0.985 1_556 S
N155 C157 1.361 . S
N155 H160 0.969 1_554 S
N155 H161 0.996 . S
C156 C150 1.379 . S
C156 C153 1.363 1_556 S
C156 N154 1.356 . S
C157 C151 1.363 1_554 S
C157 C152 1.379 . S
C157 N155 1.361 . S
N158 C150 1.356 . S
N158 H164 0.984 . S
N158 H165 0.984 . S
N159 C152 1.356 . S
N159 H162 0.984 . S
N159 H163 0.985 . S
H160 N155 0.969 1_556 S
H161 N155 0.996 . S
H162 N159 0.984 . S
H163 N159 0.985 . S
H164 N158 0.984 . S
H165 N158 0.984 . S
H166 N154 0.984 . S
H167 N154 0.985 1_554 S
C168 C169 1.363 . S
C168 C174 1.379 . S
C168 N176 1.356 . S
C169 C168 1.363 . S
C169 C175 1.363 . S
C170 C171 1.363 . S
C170 C175 1.379 . S
C170 N177 1.356 . S
C171 C170 1.363 . S
C171 C174 1.363 . S
N172 C174 1.356 . S
N172 H184 0.984 . S
N172 H185 0.985 . S
N173 C175 1.356 . S
N173 H178 0.984 . S
N173 H179 0.985 . S
C174 C168 1.379 . S
C174 C171 1.363 . S
C174 N172 1.356 . S
C175 C169 1.363 . S
C175 C170 1.379 . S
C175 N173 1.356 . S
N176 C168 1.356 . S
N176 H182 0.984 . S
N176 H183 0.984 . S
N177 C170 1.356 . S
N177 H180 0.984 . S
N177 H181 0.985 . S
H178 N173 0.984 . S
H179 N173 0.985 . S
H180 N177 0.984 . S
H181 N177 0.985 . S
H182 N176 0.984 . S
H183 N176 0.984 . S
H184 N172 0.984 . S
H185 N172 0.985 . S
C186 C187 1.363 . S
C186 C192 1.379 . S
C186 N194 1.356 . S
C187 C186 1.363 . S
C187 C193 1.363 . S
C188 C189 1.363 . S
C188 C193 1.379 . S
C188 N195 1.356 . S
C189 C188 1.363 . S
C189 C192 1.363 . S
N190 C192 1.356 . S
N190 H202 0.984 . S
N190 H203 0.985 . S
N191 C193 1.356 . S
N191 H196 0.984 . S
N191 H197 0.985 . S
C192 C186 1.379 . S
C192 C189 1.363 . S
C192 N190 1.356 . S
C193 C187 1.363 . S
C193 C188 1.379 . S
C193 N191 1.356 . S
N194 C186 1.356 . S
N194 H200 0.984 . S
N194 H201 0.984 . S
N195 C188 1.356 . S
N195 H198 0.984 . S
N195 H199 0.985 . S
H196 N191 0.984 . S
H197 N191 0.985 . S
H198 N195 0.984 . S
H199 N195 0.985 . S
H200 N194 0.984 . S
H201 N194 0.984 . S
H202 N190 0.984 . S
H203 N190 0.985 . S
C204 C205 1.363 1_554 S
C204 C210 1.379 . S
C204 N212 1.356 . S
C205 C204 1.363 1_556 S
C205 C211 1.363 . S
C206 C207 1.363 1_556 S
C206 C211 1.379 . S
C206 N213 1.356 . S
C207 C206 1.363 1_554 S
C207 C210 1.363 . S
N208 C210 1.356 . S
N208 H220 0.984 . S
N208 H221 0.985 . S
N209 C211 1.356 . S
N209 H214 0.984 . S
N209 H215 0.985 . S
C210 C204 1.379 . S
C210 C207 1.363 . S
C210 N208 1.356 . S
C211 C205 1.363 . S
C211 C206 1.379 . S
C211 N209 1.356 . S
N212 C204 1.356 . S
N212 H218 0.984 . S
N212 H219 0.984 1_554 S
N213 C206 1.356 . S
N213 H216 0.984 1_556 S
N213 H217 0.985 . S
H214 N209 0.984 . S
H215 N209 0.985 . S
H216 N213 0.984 1_554 S
H217 N213 0.985 . S
H218 N212 0.984 . S
H219 N212 0.984 1_556 S
H220 N208 0.984 . S
H221 N208 0.985 . S
C222 C223 1.363 . S
C222 C228 1.379 . S
C222 N230 1.356 . S
C223 C222 1.363 . S
C223 C229 1.363 . S
C224 C225 1.363 . S
C224 C229 1.379 . S
C224 N231 1.356 . S
C225 C224 1.363 . S
C225 C228 1.363 . S
N226 C228 1.356 . S
N226 H238 0.984 . S
N226 H239 0.985 . S
N227 C229 1.356 . S
N227 H232 0.984 . S
N227 H233 0.985 . S
C228 C222 1.379 . S
C228 C225 1.363 . S
C228 N226 1.356 . S
C229 C223 1.363 . S
C229 C224 1.379 . S
C229 N227 1.356 . S
N230 C222 1.356 . S
N230 H236 0.984 . S
N230 H237 0.984 . S
N231 C224 1.356 . S
N231 H234 0.984 . S
N231 H235 0.985 . S
H232 N227 0.984 . S
H233 N227 0.985 . S
H234 N231 0.984 . S
H235 N231 0.985 . S
H236 N230 0.984 . S
H237 N230 0.984 . S
H238 N226 0.984 . S
H239 N226 0.985 . S
C240 C241 1.363 . S
C240 C246 1.379 . S
C240 N248 1.356 . S
C241 C240 1.363 . S
C241 C247 1.363 . S
C242 C243 1.363 . S
C242 C247 1.379 . S
C242 N249 1.356 . S
C243 C242 1.363 . S
C243 C246 1.363 . S
N244 C246 1.356 . S
N244 H256 0.984 . S
N244 H257 0.985 . S
N245 C247 1.356 . S
N245 H250 0.984 . S
N245 H251 0.985 . S
C246 C240 1.379 . S
C246 C243 1.363 . S
C246 N244 1.356 . S
C247 C241 1.363 . S
C247 C242 1.379 . S
C247 N245 1.356 . S
N248 C240 1.356 . S
N248 H254 0.984 . S
N248 H255 0.984 . S
N249 C242 1.356 . S
N249 H252 0.984 . S
N249 H253 0.985 . S
H250 N245 0.984 . S
H251 N245 0.985 . S
H252 N249 0.984 . S
H253 N249 0.985 . S
H254 N248 0.984 . S
H255 N248 0.984 . S
H256 N244 0.984 . S
H257 N244 0.985 . S
C97 N18 0.894 . S
C99 N13 0.894 . S
C115 N45 0.894 . S
C117 N50 0.894 . S
C133 N82 0.884 . S
C135 N77 0.884 . S
C151 C70 1.843 . S
C153 C4 1.836 . S
C169 C34 2.118 . S
C171 C6 2.118 . S
C187 C66 1.843 . S
C189 C61 1.836 . S
C205 C93 1.865 . S
C207 C2 1.879 . S
C223 C29 1.611 . S
C225 C36 1.611 . S
C241 C68 1.865 . S
C243 C38 1.879 . S
