# Generated by pormake.
# Topology lon, (4)-cn, num edge types: 1
# Building blocks:
#     Node 0, Type 0, BuildingBlock: KUFVIS_clean_sbu_0, # of connection points: 4
#     Node 1, Type 0, BuildingBlock: KUFVIS_clean_sbu_0, # of connection points: 4
#     Node 2, Type 0, BuildingBlock: KUFVIS_clean_sbu_0, # of connection points: 4
#     Node 3, Type 0, BuildingBlock: KUFVIS_clean_sbu_0, # of connection points: 4
#     Edge 4, Type (0, 0), BuildingBlock: AJUNOK_clean_linker_0, # of connection points: 2
#     Edge 5, Type (0, 0), BuildingBlock: AJUNOK_clean_linker_0, # of connection points: 2
#     Edge 6, Type (0, 0), BuildingBlock: AJUNOK_clean_linker_0, # of connection points: 2
#     Edge 7, Type (0, 0), BuildingBlock: AJUNOK_clean_linker_0, # of connection points: 2
#     Edge 8, Type (0, 0), BuildingBlock: AJUNOK_clean_linker_0, # of connection points: 2
#     Edge 9, Type (0, 0), BuildingBlock: AJUNOK_clean_linker_0, # of connection points: 2
#     Edge 10, Type (0, 0), BuildingBlock: AJUNOK_clean_linker_0, # of connection points: 2
#     Edge 11, Type (0, 0), BuildingBlock: AJUNOK_clean_linker_0, # of connection points: 2
# Relax obj value: 0.046
# Max RMSD: 0.107
# Mean RMSD: 0.088
data_MOF--net-lon--node1-KUFVIS_clean_sbu_0--edge1-AJUNOK_clean_linker_0
_symmetry_space_group_name_H-M    P1
_symmetry_Int_Tables_number       1
_symmetry_cell_setting            triclinic
loop_
_symmetry_equiv_pos_as_xyz
'x, y, z'
_cell_length_a     17.943321
_cell_length_b     17.298175
_cell_length_c     29.45468
_cell_angle_alpha  100.37203
_cell_angle_beta   90.305722
_cell_angle_gamma 121.51435
loop_
_atom_site_label
_atom_site_type_symbol
_atom_site_fract_x
_atom_site_fract_y
_atom_site_fract_z
_atom_type_partial_charge
Mn0 Mn 0.36259 0.69554 0.09595 0.0
Mn1 Mn 0.30074 0.63123 0.97951 0.0
C2 C 0.22603 0.65872 0.06583 0.0
C3 C 0.37304 0.67207 0.17098 0.0
C4 C 0.43941 0.82798 0.02956 0.0
O5 O 0.44187 0.65021 0.07071 0.0
O6 O 0.38258 0.59267 0.99475 0.0
C7 C 0.20499 0.42592 0.95581 0.0
N8 N 0.20425 0.50513 0.96006 0.0
C9 C 0.05372 0.41837 0.92455 0.0
C10 C 0.05166 0.3357 0.9225 0.0
C11 C 0.12801 0.33959 0.93776 0.0
C12 C 0.13228 0.50233 0.9434 0.0
H13 H 0.26464 0.42893 0.96457 0.0
C14 C 0.433 0.60386 0.02968 0.0
O15 O 0.42792 0.74911 0.159 0.0
O16 O 0.31479 0.60451 0.13828 0.0
N17 N 0.21841 0.66366 0.96313 0.0
C18 C 0.23178 0.74965 0.96598 0.0
C19 C 0.16296 0.75796 0.94993 0.0
C20 C 0.08126 0.67793 0.93083 0.0
C21 C 0.06903 0.59021 0.92803 0.0
C22 C 0.13993 0.5862 0.94477 0.0
H23 H 0.2944 0.81162 0.98036 0.0
O24 O 0.26178 0.71388 0.10638 0.0
O25 O 0.27243 0.63085 0.04376 0.0
O26 O 0.42901 0.81279 0.07028 0.0
O27 O 0.39884 0.7634 0.9934 0.0
C28 C 0.98903 0.50663 0.90961 0.0
C29 C 0.98134 0.42075 0.90792 0.0
H30 H 0.9925 0.26905 0.90829 0.0
H31 H 0.12802 0.27633 0.93487 0.0
H32 H 0.17294 0.82595 0.95222 0.0
H33 H 1.02831 0.68463 0.91854 0.0
H34 H 0.93304 0.50766 0.89663 0.0
H35 H 0.91963 0.35696 0.8935 0.0
Mn36 Mn 0.74908 0.3844 0.58291 0.0
Mn37 Mn 0.53934 0.27171 0.61468 0.0
C38 C 0.67967 0.22611 0.5761 0.0
C39 C 0.86449 0.44378 0.53602 0.0
C40 C 0.70187 0.38126 0.68333 0.0
O41 O 0.70501 0.46952 0.57429 0.0
O42 O 0.57923 0.39943 0.60717 0.0
C43 C 0.40542 0.28137 0.54738 0.0
N44 N 0.44655 0.22426 0.56414 0.0
C45 C 0.26741 0.03016 0.49297 0.0
C46 C 0.24003 0.10969 0.47978 0.0
C47 C 0.30753 0.23067 0.50668 0.0
C48 C 0.40494 0.11511 0.55081 0.0
H49 H 0.43656 0.35428 0.56247 0.0
C50 C 0.63469 0.46363 0.58757 0.0
O51 O 0.87433 0.47888 0.5798 0.0
O52 O 0.78466 0.37914 0.51759 0.0
N53 N 0.48904 0.14502 0.62352 0.0
C54 C 0.51238 0.12303 0.66118 0.0
C55 C 0.46088 0.0347 0.67101 0.0
C56 C 0.38101 0.9671 0.64423 0.0
C57 C 0.35259 0.98403 0.60506 0.0
C58 C 0.41763 0.07921 0.59263 0.0
H59 H 0.57049 0.17367 0.68494 0.0
O60 O 0.7643 0.28083 0.58562 0.0
O61 O 0.63262 0.26573 0.57483 0.0
O62 O 0.75603 0.41596 0.65442 0.0
O63 O 0.6208 0.3214 0.67146 0.0
C64 C 0.25794 0.90896 0.57804 0.0
C65 C 0.19867 0.93175 0.50492 0.0
H66 H 0.17773 0.08378 0.45987 0.0
H67 H 0.28667 0.27601 0.49932 0.0
H68 H 0.48148 1.01987 0.70122 0.0
H69 H 0.34098 0.90147 0.6546 0.0
H70 H 0.22644 0.85039 0.59574 0.0
H71 H 0.13466 0.89127 0.48343 0.0
Mn72 Mn 0.39271 0.67445 0.46525 0.0
Mn73 Mn 0.30532 0.80387 0.45027 0.0
C74 C 0.48374 0.83496 0.48248 0.0
C75 C 0.44521 0.60424 0.50658 0.0
C76 C 0.35138 0.70466 0.37083 0.0
O77 O 0.26056 0.58543 0.4691 0.0
O78 O 0.21115 0.67398 0.45119 0.0
C79 C 0.16305 0.78644 0.51687 0.0
N80 N 0.26456 0.8471 0.50435 0.0
C81 C 0.26447 0.03659 0.56996 0.0
C82 C 0.15528 0.95308 0.57842 0.0
C83 C 0.10778 0.83299 0.55234 0.0
C84 C 0.33028 0.95763 0.51896 0.0
H85 H 0.12317 0.71347 0.50129 0.0
C86 C 0.19826 0.59903 0.4611 0.0
O87 O 0.42316 0.57808 0.46203 0.0
O88 O 0.42817 0.66474 0.52812 0.0
N89 N 0.39267 0.93227 0.44894 0.0
C90 C 0.4477 0.95792 0.41533 0.0
C91 C 0.48844 0.04739 0.40678 0.0
C92 C 0.4699 0.11167 0.43042 0.0
C93 C 0.41648 0.09094 0.46628 0.0
C94 C 0.38618 0.9965 0.47968 0.0
H95 H 0.45967 0.90901 0.39382 0.0
O96 O 0.51424 0.78266 0.46812 0.0
O97 O 0.39742 0.79254 0.48357 0.0
O98 O 0.37096 0.66122 0.39417 0.0
O99 O 0.33104 0.76161 0.38999 0.0
C100 C 0.38907 0.16141 0.48861 0.0
C101 C 0.29406 0.13397 0.55659 0.0
H102 H 0.11423 0.97587 0.59476 0.0
H103 H 0.03994 0.7852 0.55668 0.0
H104 H 0.5309 0.06517 0.37949 0.0
H105 H 0.49723 0.17774 0.42034 0.0
H106 H 0.41775 0.21981 0.47075 0.0
H107 H 0.26535 0.17152 0.5748 0.0
Mn108 Mn 0.68984 0.35533 0.95011 0.0
Mn109 Mn 0.69064 0.41207 0.06648 0.0
C110 C 0.58712 0.38641 0.9802 0.0
C111 C 0.73304 0.39052 0.87794 0.0
C112 C 0.63223 0.21732 1.0137 0.0
O113 O 0.81417 0.39886 0.97639 0.0
O114 O 0.81143 0.45217 0.05227 0.0
C115 C 0.79693 0.61756 0.08277 0.0
N116 N 0.72036 0.53776 0.08524 0.0
C117 C 0.65765 0.62373 0.12132 0.0
C118 C 0.73581 0.70671 0.11896 0.0
C119 C 0.80569 0.70356 0.09951 0.0
C120 C 0.65255 0.54004 0.10372 0.0
H121 H 0.85086 0.61558 0.0682 0.0
C122 C 0.85123 0.44247 1.01786 0.0
O123 O 0.70698 0.30997 0.88669 0.0
O124 O 0.73669 0.45267 0.91175 0.0
N125 N 0.57651 0.37866 0.08408 0.0
C126 C 0.5055 0.29249 0.08397 0.0
C127 C 0.43074 0.28367 0.1033 0.0
C128 C 0.42959 0.3634 0.12253 0.0
C129 C 0.50356 0.45133 0.12263 0.0
C130 C 0.57678 0.45586 0.10359 0.0
H131 H 0.50591 0.23081 0.06958 0.0
O132 O 0.57003 0.33612 0.93852 0.0
O133 O 0.66142 0.41379 1.00272 0.0
O134 O 0.63793 0.23581 0.97359 0.0
O135 O 0.65586 0.27952 0.05101 0.0
C136 C 0.50741 0.53462 0.14081 0.0
C137 C 0.58425 0.62077 0.13996 0.0
H138 H 0.74281 0.77318 0.13186 0.0
H139 H 0.8663 0.76728 0.09755 0.0
H140 H 0.37396 0.21552 0.10321 0.0
H141 H 0.37146 0.35627 0.13699 0.0
H142 H 0.45142 0.53319 0.15521 0.0
H143 H 0.58612 0.68431 0.15364 0.0
C144 C 0.36976 0.61387 0.24468 0.0
C145 C 0.3625 0.67363 0.22085 0.0
C146 C 0.36614 0.62358 0.29323 0.0
C147 C 0.35373 0.69233 0.31923 0.0
H148 H 0.3804 0.56117 0.22603 0.0
H149 H 0.37342 0.57723 0.31045 0.0
S150 S 0.32506 0.86141 0.27073 0.0
N151 N 0.33896 0.80039 0.22563 0.0
N152 N 0.33022 0.81823 0.31531 0.0
C153 C 0.34388 0.75036 0.29472 0.0
C154 C 0.34872 0.74103 0.246 0.0
C155 C 0.71682 0.46079 0.76539 0.0
C156 C 0.7337 0.40314 0.73292 0.0
C157 C 0.72455 0.46294 0.81324 0.0
C158 C 0.7469 0.40537 0.82986 0.0
H159 H 0.69267 0.50037 0.7535 0.0
H160 H 0.70638 0.50452 0.83681 0.0
S161 S 0.80468 0.24808 0.75885 0.0
N162 N 0.78031 0.29311 0.72067 0.0
N163 N 0.79327 0.29529 0.81018 0.0
C164 C 0.76886 0.35162 0.7978 0.0
C165 C 0.76239 0.35077 0.74937 0.0
C166 C 0.56154 0.59096 1.01286 0.0
C167 C 0.47408 0.5495 1.02229 0.0
C168 C 0.59702 0.53647 0.99881 0.0
C169 C 0.54538 0.43919 0.99299 0.0
H170 H 0.60206 0.66533 1.01563 0.0
H171 H 0.66527 0.57054 0.99217 0.0
S172 S 0.31278 0.29842 1.01346 0.0
N173 N 0.33793 0.40691 0.02746 0.0
N174 N 0.40261 0.3037 0.99633 0.0
C175 C 0.45753 0.39695 1.00145 0.0
C176 C 0.42247 0.45263 1.0176 0.0
C177 C 0.09895 0.51284 0.51669 0.0
C178 C 0.10818 0.53581 0.47281 0.0
C179 C 1.01888 0.48063 0.53583 0.0
C180 C 0.94392 0.46784 0.51155 0.0
H181 H 0.15578 0.5268 0.53803 0.0
H182 H 1.01646 0.4682 0.57071 0.0
S183 S 0.93042 0.50802 0.39334 0.0
N184 N 0.03353 0.53761 0.40423 0.0
N185 N 0.88213 0.47302 0.43957 0.0
C186 C 0.95017 0.48379 0.46629 0.0
C187 C 0.03247 0.5188 0.44713 0.0
C188 C 0.57645 0.09297 0.0604 0.0
C189 C 0.59073 0.11788 1.01687 0.0
C190 C 0.53037 0.9996 0.06409 0.0
C191 C 0.496 0.92637 1.02443 0.0
H192 H 0.5991 0.14588 0.09208 0.0
H193 H 0.51968 0.98502 0.09853 0.0
S194 S 0.52059 0.95326 0.90206 0.0
N195 N 0.57075 0.06053 0.93301 0.0
N196 N 0.48417 0.88594 0.94009 0.0
C197 C 0.51242 0.95019 0.98069 0.0
C198 C 0.55963 0.0454 0.97689 0.0
C199 C 0.60198 0.52265 0.52383 0.0
C200 C 0.60333 0.51953 0.57119 0.0
C201 C 0.55027 0.54953 0.50357 0.0
C202 C 0.49877 0.57615 0.52989 0.0
H203 H 0.63662 0.49833 0.50148 0.0
H204 H 0.55007 0.54846 0.46668 0.0
S205 S 0.48435 0.5867 0.65618 0.0
N206 N 0.5513 0.54902 0.64437 0.0
N207 N 0.45705 0.6031 0.6067 0.0
C208 C 0.50313 0.57807 0.57781 0.0
C209 C 0.55458 0.54895 0.5983 0.0
C210 C 0.08445 0.64616 0.04668 0.0
C211 C 0.13048 0.60388 0.05426 0.0
C212 C 0.99381 0.59196 0.03237 0.0
C213 C 0.94696 0.49476 0.02663 0.0
H214 H 0.11895 0.72077 0.05045 0.0
H215 H 0.96032 0.62631 0.02553 0.0
S216 S 0.03657 0.35282 0.04729 0.0
N217 N 0.12275 0.46042 0.05798 0.0
N218 N 0.95145 0.35919 0.03218 0.0
C219 C 0.99182 0.45215 0.03541 0.0
C220 C 0.08404 0.50686 0.04933 0.0
C221 C 0.55485 0.0683 0.55048 0.0
C222 C 0.64346 0.12494 0.55581 0.0
C223 C 0.51005 0.97283 0.53733 0.0
C224 C 0.54597 0.93229 0.50872 0.0
H225 H 0.52506 0.10159 0.54086 0.0
H226 H 0.44306 0.93162 0.54377 0.0
S227 S 0.78625 0.04953 0.49895 0.0
N228 N 0.77661 0.13113 0.53226 0.0
N229 N 0.68587 0.95553 0.48549 0.0
C230 C 0.63879 0.98743 0.50854 0.0
C231 C 0.6885 0.08358 0.53421 0.0
loop_
_geom_bond_atom_site_label_1
_geom_bond_atom_site_label_2
_geom_bond_distance
_geom_bond_site_symmetry_2
_ccdc_geom_bond_type
Mn0 O5 2.095 . S
Mn0 O15 2.162 . S
Mn0 O16 2.297 . S
Mn0 O24 2.385 . S
Mn0 O25 2.209 . S
Mn0 O26 2.094 . S
Mn1 O6 2.121 . S
Mn1 N8 2.257 . S
Mn1 N17 2.282 . S
Mn1 O25 2.215 1_556 S
Mn1 O27 2.117 . S
C2 O24 1.234 . S
C2 O25 1.283 . S
C3 O15 1.281 . S
C3 O16 1.236 . S
C4 O26 1.240 . S
C4 O27 1.264 1_554 S
O5 Mn0 2.095 . S
O5 C14 1.250 . S
O6 Mn1 2.121 . S
O6 C14 1.258 1_556 S
C7 N8 1.326 . S
C7 C11 1.460 . S
C7 H13 0.929 . S
N8 Mn1 2.257 . S
N8 C7 1.326 . S
N8 C12 1.362 . S
C9 C10 1.258 . S
C9 C12 1.431 . S
C9 C29 1.449 1_455 S
C10 C9 1.258 . S
C10 C11 1.477 . S
C10 H30 0.931 1_455 S
C11 C7 1.460 . S
C11 C10 1.477 . S
C11 H31 0.930 . S
C12 N8 1.362 . S
C12 C9 1.431 . S
C12 C22 1.476 . S
H13 C7 0.929 . S
C14 O5 1.250 . S
C14 O6 1.258 1_554 S
O15 Mn0 2.162 . S
O15 C3 1.281 . S
O16 Mn0 2.297 . S
O16 C3 1.236 . S
N17 Mn1 2.282 . S
N17 C18 1.328 . S
N17 C22 1.318 . S
C18 N17 1.328 . S
C18 C19 1.457 . S
C18 H23 0.929 . S
C19 C18 1.457 . S
C19 C20 1.291 . S
C19 H32 0.931 . S
C20 C19 1.291 . S
C20 C21 1.373 . S
C20 H33 0.929 1_455 S
C21 C20 1.373 . S
C21 C22 1.396 . S
C21 C28 1.403 1_455 S
C22 C12 1.476 . S
C22 N17 1.318 . S
C22 C21 1.396 . S
H23 C18 0.929 . S
O24 Mn0 2.385 . S
O24 C2 1.234 . S
O25 Mn0 2.209 . S
O25 Mn1 2.215 1_554 S
O25 C2 1.283 . S
O26 Mn0 2.094 . S
O26 C4 1.240 . S
O27 Mn1 2.117 . S
O27 C4 1.264 1_556 S
C28 C21 1.403 1_655 S
C28 C29 1.399 . S
C28 H34 0.929 . S
C29 C9 1.449 1_655 S
C29 C28 1.399 . S
C29 H35 0.930 . S
H30 C10 0.931 1_655 S
H31 C11 0.930 . S
H32 C19 0.931 . S
H33 C20 0.929 1_655 S
H34 C28 0.929 . S
H35 C29 0.930 . S
Mn36 O41 2.095 . S
Mn36 O51 2.162 . S
Mn36 O52 2.297 . S
Mn36 O60 2.385 . S
Mn36 O61 2.209 . S
Mn36 O62 2.094 . S
Mn37 O42 2.121 . S
Mn37 N44 2.257 . S
Mn37 N53 2.282 . S
Mn37 O61 2.215 . S
Mn37 O63 2.117 . S
C38 O60 1.234 . S
C38 O61 1.283 . S
C39 O51 1.281 . S
C39 O52 1.236 . S
C40 O62 1.240 . S
C40 O63 1.264 . S
O41 Mn36 2.095 . S
O41 C50 1.250 . S
O42 Mn37 2.121 . S
O42 C50 1.258 . S
C43 N44 1.326 . S
C43 C47 1.460 . S
C43 H49 0.929 . S
N44 Mn37 2.257 . S
N44 C43 1.326 . S
N44 C48 1.362 . S
C45 C46 1.258 1_565 S
C45 C48 1.431 1_565 S
C45 C65 1.449 . S
C46 C45 1.258 1_545 S
C46 C47 1.477 . S
C46 H66 0.931 1_545 S
C47 C43 1.460 . S
C47 C46 1.477 . S
C47 H67 0.930 . S
C48 N44 1.362 . S
C48 C45 1.431 1_545 S
C48 C58 1.476 . S
H49 C43 0.929 . S
C50 O41 1.250 . S
C50 O42 1.258 . S
O51 Mn36 2.162 . S
O51 C39 1.281 . S
O52 Mn36 2.297 . S
O52 C39 1.236 . S
N53 Mn37 2.282 . S
N53 C54 1.328 . S
N53 C58 1.318 . S
C54 N53 1.328 . S
C54 C55 1.457 1_545 S
C54 H59 0.929 . S
C55 C54 1.457 1_565 S
C55 C56 1.291 . S
C55 H68 0.931 . S
C56 C55 1.291 . S
C56 C57 1.373 . S
C56 H69 0.929 . S
C57 C56 1.373 . S
C57 C58 1.396 1_565 S
C57 C64 1.403 . S
C58 C48 1.476 . S
C58 N53 1.318 . S
C58 C57 1.396 1_545 S
H59 C54 0.929 . S
O60 Mn36 2.385 . S
O60 C38 1.234 . S
O61 Mn36 2.209 . S
O61 Mn37 2.215 . S
O61 C38 1.283 . S
O62 Mn36 2.094 . S
O62 C40 1.240 . S
O63 Mn37 2.117 . S
O63 C40 1.264 . S
C64 C57 1.403 . S
C64 C65 1.399 . S
C64 H70 0.929 . S
C65 C45 1.449 . S
C65 C64 1.399 . S
C65 H71 0.930 . S
H66 C46 0.931 1_565 S
H67 C47 0.930 . S
H68 C55 0.931 . S
H69 C56 0.929 . S
H70 C64 0.929 . S
H71 C65 0.930 . S
Mn72 O77 2.095 . S
Mn72 O87 2.162 . S
Mn72 O88 2.297 . S
Mn72 O96 2.385 . S
Mn72 O97 2.209 . S
Mn72 O98 2.094 . S
Mn73 O78 2.121 . S
Mn73 N80 2.257 . S
Mn73 N89 2.282 . S
Mn73 O97 2.215 . S
Mn73 O99 2.117 . S
C74 O96 1.234 . S
C74 O97 1.283 . S
C75 O87 1.281 . S
C75 O88 1.236 . S
C76 O98 1.240 . S
C76 O99 1.264 . S
O77 Mn72 2.095 . S
O77 C86 1.250 . S
O78 Mn73 2.121 . S
O78 C86 1.258 . S
C79 N80 1.326 . S
C79 C83 1.460 . S
C79 H85 0.929 . S
N80 Mn73 2.257 . S
N80 C79 1.326 . S
N80 C84 1.362 . S
C81 C82 1.258 1_545 S
C81 C84 1.431 1_545 S
C81 C101 1.449 . S
C82 C81 1.258 1_565 S
C82 C83 1.477 . S
C82 H102 0.931 1_565 S
C83 C79 1.460 . S
C83 C82 1.477 . S
C83 H103 0.930 . S
C84 N80 1.362 . S
C84 C81 1.431 1_565 S
C84 C94 1.476 . S
H85 C79 0.929 . S
C86 O77 1.250 . S
C86 O78 1.258 . S
O87 Mn72 2.162 . S
O87 C75 1.281 . S
O88 Mn72 2.297 . S
O88 C75 1.236 . S
N89 Mn73 2.282 . S
N89 C90 1.328 . S
N89 C94 1.318 . S
C90 N89 1.328 . S
C90 C91 1.457 1_565 S
C90 H95 0.929 . S
C91 C90 1.457 1_545 S
C91 C92 1.291 . S
C91 H104 0.931 . S
C92 C91 1.291 . S
C92 C93 1.373 . S
C92 H105 0.929 . S
C93 C92 1.373 . S
C93 C94 1.396 1_545 S
C93 C100 1.403 . S
C94 C84 1.476 . S
C94 N89 1.318 . S
C94 C93 1.396 1_565 S
H95 C90 0.929 . S
O96 Mn72 2.385 . S
O96 C74 1.234 . S
O97 Mn72 2.209 . S
O97 Mn73 2.215 . S
O97 C74 1.283 . S
O98 Mn72 2.094 . S
O98 C76 1.240 . S
O99 Mn73 2.117 . S
O99 C76 1.264 . S
C100 C93 1.403 . S
C100 C101 1.399 . S
C100 H106 0.929 . S
C101 C81 1.449 . S
C101 C100 1.399 . S
C101 H107 0.930 . S
H102 C82 0.931 1_545 S
H103 C83 0.930 . S
H104 C91 0.931 . S
H105 C92 0.929 . S
H106 C100 0.929 . S
H107 C101 0.930 . S
Mn108 O113 2.095 . S
Mn108 O123 2.162 . S
Mn108 O124 2.297 . S
Mn108 O132 2.385 . S
Mn108 O133 2.209 . S
Mn108 O134 2.094 . S
Mn109 O114 2.121 . S
Mn109 N116 2.257 . S
Mn109 N125 2.282 . S
Mn109 O133 2.215 1_554 S
Mn109 O135 2.117 . S
C110 O132 1.234 . S
C110 O133 1.283 . S
C111 O123 1.281 . S
C111 O124 1.236 . S
C112 O134 1.240 . S
C112 O135 1.264 1_556 S
O113 Mn108 2.095 . S
O113 C122 1.250 . S
O114 Mn109 2.121 . S
O114 C122 1.258 1_554 S
C115 N116 1.326 . S
C115 C119 1.460 . S
C115 H121 0.929 . S
N116 Mn109 2.257 . S
N116 C115 1.326 . S
N116 C120 1.362 . S
C117 C118 1.258 . S
C117 C120 1.431 . S
C117 C137 1.449 . S
C118 C117 1.258 . S
C118 C119 1.477 . S
C118 H138 0.931 . S
C119 C115 1.460 . S
C119 C118 1.477 . S
C119 H139 0.930 . S
C120 N116 1.362 . S
C120 C117 1.431 . S
C120 C130 1.476 . S
H121 C115 0.929 . S
C122 O113 1.250 . S
C122 O114 1.258 1_556 S
O123 Mn108 2.162 . S
O123 C111 1.281 . S
O124 Mn108 2.297 . S
O124 C111 1.236 . S
N125 Mn109 2.282 . S
N125 C126 1.328 . S
N125 C130 1.318 . S
C126 N125 1.328 . S
C126 C127 1.457 . S
C126 H131 0.929 . S
C127 C126 1.457 . S
C127 C128 1.291 . S
C127 H140 0.931 . S
C128 C127 1.291 . S
C128 C129 1.373 . S
C128 H141 0.929 . S
C129 C128 1.373 . S
C129 C130 1.396 . S
C129 C136 1.403 . S
C130 C120 1.476 . S
C130 N125 1.318 . S
C130 C129 1.396 . S
H131 C126 0.929 . S
O132 Mn108 2.385 . S
O132 C110 1.234 . S
O133 Mn108 2.209 . S
O133 Mn109 2.215 1_556 S
O133 C110 1.283 . S
O134 Mn108 2.094 . S
O134 C112 1.240 . S
O135 Mn109 2.117 . S
O135 C112 1.264 1_554 S
C136 C129 1.403 . S
C136 C137 1.399 . S
C136 H142 0.929 . S
C137 C117 1.449 . S
C137 C136 1.399 . S
C137 H143 0.930 . S
H138 C118 0.931 . S
H139 C119 0.930 . S
H140 C127 0.931 . S
H141 C128 0.929 . S
H142 C136 0.929 . S
H143 C137 0.930 . S
C144 C145 1.369 . S
C144 C146 1.419 . S
C144 H148 0.930 . S
C145 C144 1.369 . S
C145 C154 1.429 . S
C146 C144 1.419 . S
C146 C147 1.363 . S
C146 H149 0.929 . S
C147 C146 1.363 . S
C147 C153 1.428 . S
H148 C144 0.930 . S
H149 C146 0.929 . S
S150 N151 1.613 . S
S150 N152 1.610 . S
N151 S150 1.613 . S
N151 C154 1.350 . S
N152 S150 1.610 . S
N152 C153 1.351 . S
C153 C147 1.428 . S
C153 N152 1.351 . S
C153 C154 1.434 . S
C154 C145 1.429 . S
C154 N151 1.350 . S
C154 C153 1.434 . S
C155 C156 1.369 . S
C155 C157 1.419 . S
C155 H159 0.930 . S
C156 C155 1.369 . S
C156 C165 1.429 . S
C157 C155 1.419 . S
C157 C158 1.363 . S
C157 H160 0.929 . S
C158 C157 1.363 . S
C158 C164 1.428 . S
H159 C155 0.930 . S
H160 C157 0.929 . S
S161 N162 1.613 . S
S161 N163 1.610 . S
N162 S161 1.613 . S
N162 C165 1.350 . S
N163 S161 1.610 . S
N163 C164 1.351 . S
C164 C158 1.428 . S
C164 N163 1.351 . S
C164 C165 1.434 . S
C165 C156 1.429 . S
C165 N162 1.350 . S
C165 C164 1.434 . S
C166 C167 1.369 . S
C166 C168 1.419 . S
C166 H170 0.930 . S
C167 C166 1.369 . S
C167 C176 1.429 1_554 S
C168 C166 1.419 . S
C168 C169 1.363 1_554 S
C168 H171 0.929 . S
C169 C168 1.363 1_556 S
C169 C175 1.428 . S
H170 C166 0.930 . S
H171 C168 0.929 . S
S172 N173 1.613 . S
S172 N174 1.610 . S
N173 S172 1.613 . S
N173 C176 1.350 . S
N174 S172 1.610 . S
N174 C175 1.351 . S
C175 C169 1.428 . S
C175 N174 1.351 . S
C175 C176 1.434 . S
C176 C167 1.429 1_556 S
C176 N173 1.350 . S
C176 C175 1.434 . S
C177 C178 1.369 . S
C177 C179 1.407 1_455 S
C177 H181 0.930 . S
C178 C177 1.369 . S
C178 C187 1.429 . S
C179 C177 1.407 1_655 S
C179 C180 1.375 . S
C179 H182 0.929 . S
C180 C179 1.375 . S
C180 C186 1.428 . S
H181 C177 0.930 . S
H182 C179 0.929 . S
S183 N184 1.613 . S
S183 N185 1.610 1_455 S
N184 S183 1.613 . S
N184 C187 1.350 . S
N185 S183 1.610 1_655 S
N185 C186 1.351 . S
C186 C180 1.428 . S
C186 N185 1.351 . S
C186 C187 1.434 1_655 S
C187 C178 1.429 . S
C187 N184 1.350 . S
C187 C186 1.434 1_455 S
C188 C189 1.369 1_554 S
C188 C190 1.419 1_545 S
C188 H192 0.930 . S
C189 C188 1.369 1_556 S
C189 C198 1.429 . S
C190 C188 1.419 1_565 S
C190 C191 1.363 . S
C190 H193 0.929 . S
C191 C190 1.363 . S
C191 C197 1.428 1_554 S
H192 C188 0.930 . S
H193 C190 0.929 . S
S194 N195 1.613 1_565 S
S194 N196 1.610 . S
N195 S194 1.613 1_545 S
N195 C198 1.350 . S
N196 S194 1.610 . S
N196 C197 1.351 . S
C197 C191 1.428 1_556 S
C197 N196 1.351 . S
C197 C198 1.434 1_565 S
C198 C189 1.429 . S
C198 N195 1.350 . S
C198 C197 1.434 1_545 S
C199 C200 1.369 . S
C199 C201 1.419 . S
C199 H203 0.930 . S
C200 C199 1.369 . S
C200 C209 1.429 . S
C201 C199 1.419 . S
C201 C202 1.363 . S
C201 H204 0.929 . S
C202 C201 1.363 . S
C202 C208 1.428 . S
H203 C199 0.930 . S
H204 C201 0.929 . S
S205 N206 1.613 . S
S205 N207 1.610 . S
N206 S205 1.613 . S
N206 C209 1.350 . S
N207 S205 1.610 . S
N207 C208 1.351 . S
C208 C202 1.428 . S
C208 N207 1.351 . S
C208 C209 1.434 . S
C209 C200 1.429 . S
C209 N206 1.350 . S
C209 C208 1.434 . S
C210 C211 1.369 1_556 S
C210 C212 1.419 1_455 S
C210 H214 0.930 . S
C211 C210 1.369 1_554 S
C211 C220 1.429 1_455 S
C212 C210 1.419 1_655 S
C212 C213 1.363 . S
C212 H215 0.929 . S
C213 C212 1.363 . S
C213 C219 1.428 1_556 S
H214 C210 0.930 . S
H215 C212 0.929 . S
S216 N217 1.613 1_655 S
S216 N218 1.610 . S
N217 S216 1.613 1_455 S
N217 C220 1.350 1_455 S
N218 S216 1.610 . S
N218 C219 1.351 . S
C219 C213 1.428 1_554 S
C219 N218 1.351 . S
C219 C220 1.434 . S
C220 C211 1.429 1_655 S
C220 N217 1.350 1_655 S
C220 C219 1.434 . S
C221 C222 1.369 . S
C221 C223 1.419 1_545 S
C221 H225 0.930 . S
C222 C221 1.369 . S
C222 C231 1.429 . S
C223 C221 1.419 1_565 S
C223 C224 1.363 . S
C223 H226 0.929 . S
C224 C223 1.363 . S
C224 C230 1.428 . S
H225 C221 0.930 . S
H226 C223 0.929 . S
S227 N228 1.621 . S
S227 N229 1.608 1_545 S
N228 S227 1.621 . S
N228 C231 1.350 . S
N229 S227 1.608 1_565 S
N229 C230 1.351 . S
C230 C224 1.428 . S
C230 N229 1.351 . S
C230 C231 1.434 1_565 S
C231 C222 1.429 . S
C231 N228 1.350 . S
C231 C230 1.434 1_545 S
C145 C3 1.516 . S
C147 C76 1.514 . S
C156 C40 1.514 . S
C158 C111 1.516 . S
C167 C14 1.407 . S
C169 C110 1.456 . S
C178 C86 1.498 . S
C180 C39 1.582 . S
C189 C112 1.617 . S
C191 C4 1.617 . S
C200 C50 1.498 . S
C202 C75 1.583 . S
C211 C2 1.458 . S
C213 C122 1.408 . S
C222 C38 1.413 . S
C224 C74 1.413 . S
