# Generated by pormake.
# Topology umf, (4)-cn, num edge types: 1
# Building blocks:
#     Node 0, Type 0, BuildingBlock: MUDLON_clean_sbu_0, # of connection points: 4
#     Node 1, Type 0, BuildingBlock: MUDLON_clean_sbu_0, # of connection points: 4
#     Node 2, Type 0, BuildingBlock: MUDLON_clean_sbu_0, # of connection points: 4
#     Node 3, Type 0, BuildingBlock: MUDLON_clean_sbu_0, # of connection points: 4
#     Node 4, Type 0, BuildingBlock: MUDLON_clean_sbu_0, # of connection points: 4
#     Node 5, Type 0, BuildingBlock: MUDLON_clean_sbu_0, # of connection points: 4
#     Node 6, Type 0, BuildingBlock: MUDLON_clean_sbu_0, # of connection points: 4
#     Node 7, Type 0, BuildingBlock: MUDLON_clean_sbu_0, # of connection points: 4
#     Edge 8, Type (0, 0), None
#     Edge 9, Type (0, 0), None
#     Edge 10, Type (0, 0), None
#     Edge 11, Type (0, 0), None
#     Edge 12, Type (0, 0), None
#     Edge 13, Type (0, 0), None
#     Edge 14, Type (0, 0), None
#     Edge 15, Type (0, 0), None
#     Edge 16, Type (0, 0), None
#     Edge 17, Type (0, 0), None
#     Edge 18, Type (0, 0), None
#     Edge 19, Type (0, 0), None
#     Edge 20, Type (0, 0), None
#     Edge 21, Type (0, 0), None
#     Edge 22, Type (0, 0), None
#     Edge 23, Type (0, 0), None
# Relax obj value: 0.090
# Max RMSD: 0.169
# Mean RMSD: 0.169
data_MOF--net-umf--node1-MUDLON_clean_sbu_0--edge1-none
_symmetry_space_group_name_H-M    P1
_symmetry_Int_Tables_number       1
_symmetry_cell_setting            triclinic
loop_
_symmetry_equiv_pos_as_xyz
'x, y, z'
_cell_length_a     14.135619
_cell_length_b     14.135621
_cell_length_c     25.454786
_cell_angle_alpha  89.968898
_cell_angle_beta   90.031203
_cell_angle_gamma 89.99954
loop_
_atom_site_label
_atom_site_type_symbol
_atom_site_fract_x
_atom_site_fract_y
_atom_site_fract_z
_atom_type_partial_charge
Mg0 Mg 0.0475 0.24105 0.17982 0.0
C1 C 0.98826 0.25067 0.06857 0.0
O2 O 0.90635 0.24953 0.09288 0.0
C3 C 0.17689 0.23565 0.27259 0.0
O4 O 0.10546 0.28239 0.29294 0.0
C5 C 0.01584 0.44508 0.20609 0.0
O6 O 0.10821 0.44552 0.20053 0.0
O7 O 0.97114 0.36739 0.20257 0.0
O8 O 0.06432 0.24866 0.09536 0.0
O9 O 0.96772 0.11235 0.19241 0.0
C10 C 0.01433 0.03539 0.19423 0.0
O11 O 0.10696 0.03757 0.1907 0.0
O12 O 0.17731 0.21908 0.22355 0.0
Mg13 Mg 0.73998 0.04792 0.67973 0.0
C14 C 0.73042 0.98829 0.56858 0.0
O15 O 0.73157 0.90646 0.59303 0.0
C16 C 0.74491 0.1777 0.7723 0.0
O17 O 0.69791 0.10645 0.79269 0.0
C18 C 0.53597 0.01629 0.70604 0.0
O19 O 0.53552 0.10864 0.70033 0.0
O20 O 0.61367 0.97159 0.70259 0.0
O21 O 0.7324 0.06444 0.59524 0.0
O22 O 0.8687 0.96821 0.69246 0.0
C23 C 0.94566 0.01484 0.69419 0.0
O24 O 0.94348 0.10746 0.69052 0.0
O25 O 0.76186 0.17785 0.72329 0.0
Mg26 Mg 0.93189 0.73877 0.17982 0.0
C27 C -0.00867 0.73014 0.06866 0.0
O28 O 0.07316 0.73142 0.0931 0.0
C29 C 0.80267 0.74385 0.27258 0.0
O30 O 0.87416 0.69706 0.2929 0.0
C31 C 0.96357 0.53464 0.2061 0.0
O32 O 0.87117 0.53421 0.20065 0.0
O33 O 0.00826 0.61233 0.2025 0.0
O34 O 0.91518 0.73167 0.09533 0.0
O35 O 0.01166 0.8674 0.19257 0.0
C36 C 0.96504 0.94437 0.19419 0.0
O37 O 0.87243 0.94219 0.1904 0.0
O38 O 0.80213 0.76057 0.22354 0.0
Mg39 Mg 0.24227 0.93231 0.67991 0.0
C40 C 0.25095 -0.00865 0.56866 0.0
O41 O 0.24968 0.07327 0.59296 0.0
C42 C 0.23671 0.80348 0.77288 0.0
O43 O 0.28324 0.87514 0.79316 0.0
C44 C 0.44641 0.96402 0.70615 0.0
O45 O 0.44684 0.8716 0.70086 0.0
O46 O 0.36872 0.00871 0.70249 0.0
O47 O 0.24939 0.9153 0.59546 0.0
O48 O 0.11365 0.01216 0.69253 0.0
C49 C 0.03669 0.96554 0.69423 0.0
O50 O 0.03886 0.87293 0.69058 0.0
O51 O 0.22038 0.80267 0.7238 0.0
Mg52 Mg 0.048 0.73991 0.89995 0.0
C53 C 0.98838 0.73034 1.0111 0.0
O54 O 0.90655 0.73149 0.98665 0.0
C55 C 0.17779 0.7448 0.80738 0.0
O56 O 0.10658 0.69775 0.78697 0.0
C57 C 0.01637 0.53589 0.87365 0.0
O58 O 0.10871 0.53544 0.87936 0.0
O59 O 0.97167 0.61359 0.87709 0.0
O60 O 0.06453 0.73232 0.98444 0.0
O61 O 0.96829 0.86862 0.88722 0.0
C62 C 0.01492 0.94558 0.88549 0.0
O63 O 0.10754 0.9434 0.88916 0.0
O64 O 0.17793 0.76179 0.85638 0.0
Mg65 Mg 0.24113 0.04743 0.39986 0.0
C66 C 0.25075 0.9882 0.51111 0.0
O67 O 0.24961 0.90628 0.4868 0.0
C68 C 0.23576 0.17682 0.30708 0.0
O69 O 0.28255 0.10543 0.28672 0.0
C70 C 0.44516 0.01576 0.3736 0.0
O71 O 0.4456 0.10813 0.37915 0.0
O72 O 0.36746 0.97107 0.37711 0.0
O73 O 0.24874 0.06426 0.48432 0.0
O74 O 0.11243 0.96764 0.38727 0.0
C75 C 0.03547 0.01425 0.38546 0.0
O76 O 0.03764 0.10688 0.38898 0.0
O77 O 0.21915 0.17723 0.35612 0.0
Mg78 Mg 0.93238 0.24219 0.89977 0.0
C79 C -0.00858 0.25087 1.01102 0.0
O80 O 0.07333 0.2496 0.98672 0.0
C81 C 0.80355 0.23667 0.8068 0.0
O82 O 0.87517 0.28324 0.7865 0.0
C83 C 0.9641 0.44633 0.87353 0.0
O84 O 0.87168 0.44676 0.87882 0.0
O85 O 0.00878 0.36864 0.87719 0.0
O86 O 0.91537 0.24931 0.98422 0.0
O87 O 0.01224 0.11357 0.88715 0.0
C88 C 0.96562 0.03661 0.88546 0.0
O89 O 0.87301 0.03878 0.8891 0.0
O90 O 0.80276 0.2203 0.85587 0.0
Mg91 Mg 0.73885 0.93181 0.39986 0.0
C92 C 0.73022 -0.00877 0.51102 0.0
O93 O 0.7315 0.07306 0.48658 0.0
C94 C 0.74389 0.80259 0.3071 0.0
O95 O 0.69706 0.87403 0.28676 0.0
C96 C 0.53472 0.96349 0.37358 0.0
O97 O 0.53428 0.87109 0.37903 0.0
O98 O 0.61241 0.00818 0.37718 0.0
O99 O 0.73175 0.91509 0.48435 0.0
O100 O 0.86748 0.01159 0.38711 0.0
C101 C 0.94444 0.96496 0.3855 0.0
O102 O 0.94227 0.87235 0.38929 0.0
O103 O 0.76065 0.80206 0.35613 0.0
loop_
_geom_bond_atom_site_label_1
_geom_bond_atom_site_label_2
_geom_bond_distance
_geom_bond_site_symmetry_2
_ccdc_geom_bond_type
Mg0 O7 2.141 . S
Mg0 O8 2.048 . S
Mg0 O9 2.048 . S
Mg0 O12 2.141 . S
C1 O2 1.313 1_455 S
C1 O8 1.195 . S
O2 C1 1.313 1_655 S
C3 O4 1.245 . S
C3 O12 1.289 . S
O4 C3 1.245 . S
C5 O6 1.245 1_455 S
C5 O7 1.289 . S
O6 C5 1.245 1_655 S
O7 Mg0 2.141 . S
O7 C5 1.289 . S
O8 Mg0 2.048 . S
O8 C1 1.195 . S
O9 Mg0 2.048 . S
O9 C10 1.195 . S
C10 O9 1.195 . S
C10 O11 1.313 1_455 S
O11 C10 1.313 1_655 S
O12 Mg0 2.141 . S
O12 C3 1.289 . S
Mg13 O20 2.141 . S
Mg13 O21 2.048 . S
Mg13 O22 2.048 . S
Mg13 O25 2.141 . S
C14 O15 1.313 1_545 S
C14 O21 1.195 . S
O15 C14 1.313 1_565 S
C16 O17 1.245 . S
C16 O25 1.289 . S
O17 C16 1.245 . S
C18 O19 1.245 1_545 S
C18 O20 1.289 . S
O19 C18 1.245 1_565 S
O20 Mg13 2.141 . S
O20 C18 1.289 . S
O21 Mg13 2.048 . S
O21 C14 1.195 . S
O22 Mg13 2.048 . S
O22 C23 1.195 . S
C23 O22 1.195 . S
C23 O24 1.313 1_545 S
O24 C23 1.313 1_565 S
O25 Mg13 2.141 . S
O25 C16 1.289 . S
Mg26 O33 2.141 . S
Mg26 O34 2.048 . S
Mg26 O35 2.048 . S
Mg26 O38 2.141 . S
C27 O28 1.313 1_655 S
C27 O34 1.195 . S
O28 C27 1.313 1_455 S
C29 O30 1.245 . S
C29 O38 1.289 . S
O30 C29 1.245 . S
C31 O32 1.245 1_655 S
C31 O33 1.289 . S
O32 C31 1.245 1_455 S
O33 Mg26 2.141 . S
O33 C31 1.289 . S
O34 Mg26 2.048 . S
O34 C27 1.195 . S
O35 Mg26 2.048 . S
O35 C36 1.195 . S
C36 O35 1.195 . S
C36 O37 1.313 1_655 S
O37 C36 1.313 1_455 S
O38 Mg26 2.141 . S
O38 C29 1.289 . S
Mg39 O46 2.141 . S
Mg39 O47 2.048 . S
Mg39 O48 2.048 . S
Mg39 O51 2.141 . S
C40 O41 1.313 1_565 S
C40 O47 1.195 . S
O41 C40 1.313 1_545 S
C42 O43 1.245 . S
C42 O51 1.289 . S
O43 C42 1.245 . S
C44 O45 1.245 1_565 S
C44 O46 1.289 . S
O45 C44 1.245 1_545 S
O46 Mg39 2.141 . S
O46 C44 1.289 . S
O47 Mg39 2.048 . S
O47 C40 1.195 . S
O48 Mg39 2.048 . S
O48 C49 1.195 . S
C49 O48 1.195 . S
C49 O50 1.313 1_565 S
O50 C49 1.313 1_545 S
O51 Mg39 2.141 . S
O51 C42 1.289 . S
Mg52 O59 2.141 . S
Mg52 O60 2.048 . S
Mg52 O61 2.048 . S
Mg52 O64 2.141 . S
C53 O54 1.313 1_455 S
C53 O60 1.195 . S
O54 C53 1.313 1_655 S
C55 O56 1.245 . S
C55 O64 1.289 . S
O56 C55 1.245 . S
C57 O58 1.245 1_455 S
C57 O59 1.289 . S
O58 C57 1.245 1_655 S
O59 Mg52 2.141 . S
O59 C57 1.289 . S
O60 Mg52 2.048 . S
O60 C53 1.195 . S
O61 Mg52 2.048 . S
O61 C62 1.195 . S
C62 O61 1.195 . S
C62 O63 1.313 1_455 S
O63 C62 1.313 1_655 S
O64 Mg52 2.141 . S
O64 C55 1.289 . S
Mg65 O72 2.141 . S
Mg65 O73 2.048 . S
Mg65 O74 2.048 . S
Mg65 O77 2.141 . S
C66 O67 1.313 1_545 S
C66 O73 1.195 . S
O67 C66 1.313 1_565 S
C68 O69 1.245 . S
C68 O77 1.289 . S
O69 C68 1.245 . S
C70 O71 1.245 1_545 S
C70 O72 1.289 . S
O71 C70 1.245 1_565 S
O72 Mg65 2.141 . S
O72 C70 1.289 . S
O73 Mg65 2.048 . S
O73 C66 1.195 . S
O74 Mg65 2.048 . S
O74 C75 1.195 . S
C75 O74 1.195 . S
C75 O76 1.313 1_545 S
O76 C75 1.313 1_565 S
O77 Mg65 2.141 . S
O77 C68 1.289 . S
Mg78 O85 2.141 . S
Mg78 O86 2.048 . S
Mg78 O87 2.048 . S
Mg78 O90 2.141 . S
C79 O80 1.313 1_655 S
C79 O86 1.195 . S
O80 C79 1.313 1_455 S
C81 O82 1.245 . S
C81 O90 1.289 . S
O82 C81 1.245 . S
C83 O84 1.245 1_655 S
C83 O85 1.289 . S
O84 C83 1.245 1_455 S
O85 Mg78 2.141 . S
O85 C83 1.289 . S
O86 Mg78 2.048 . S
O86 C79 1.195 . S
O87 Mg78 2.048 . S
O87 C88 1.195 . S
C88 O87 1.195 . S
C88 O89 1.313 1_655 S
O89 C88 1.313 1_455 S
O90 Mg78 2.141 . S
O90 C81 1.289 . S
Mg91 O98 2.141 . S
Mg91 O99 2.048 . S
Mg91 O100 2.048 . S
Mg91 O103 2.141 . S
C92 O93 1.313 1_565 S
C92 O99 1.195 . S
O93 C92 1.313 1_545 S
C94 O95 1.245 . S
C94 O103 1.289 . S
O95 C94 1.245 . S
C96 O97 1.245 1_565 S
C96 O98 1.289 . S
O97 C96 1.245 1_545 S
O98 Mg91 2.141 . S
O98 C96 1.289 . S
O99 Mg91 2.048 . S
O99 C92 1.195 . S
O100 Mg91 2.048 . S
O100 C101 1.195 . S
C101 O100 1.195 . S
C101 O102 1.313 1_565 S
O102 C101 1.313 1_545 S
O103 Mg91 2.141 . S
O103 C94 1.289 . S
C5 C31 2.452 1_455 S
C44 C18 2.452 1_565 S
C83 C57 2.452 1_655 S
C70 C96 2.452 1_545 S
C79 C1 1.542 1_656 S
C14 C92 1.542 1_545 S
C27 C53 1.542 1_654 S
C66 C40 1.542 1_545 S
C3 C68 1.940 . S
C81 C16 1.940 . S
C94 C29 1.940 . S
C42 C55 1.940 . S
C10 C36 1.980 1_445 S
C49 C23 1.980 1_465 S
C88 C62 1.980 1_645 S
C101 C75 1.980 1_665 S
