# Generated by pormake.
# Topology bcu, (8)-cn, num edge types: 1
# Building blocks:
#     Node 0, Type 0, BuildingBlock: TAGTUT_clean_sbu_1, # of connection points: 8
#     Node 1, Type 0, BuildingBlock: TAGTUT_clean_sbu_1, # of connection points: 8
#     Edge 2, Type (0, 0), BuildingBlock: OJICUG_clean_linker_0, # of connection points: 2
#     Edge 3, Type (0, 0), BuildingBlock: OJICUG_clean_linker_0, # of connection points: 2
#     Edge 4, Type (0, 0), BuildingBlock: OJICUG_clean_linker_0, # of connection points: 2
#     Edge 5, Type (0, 0), BuildingBlock: OJICUG_clean_linker_0, # of connection points: 2
#     Edge 6, Type (0, 0), BuildingBlock: OJICUG_clean_linker_0, # of connection points: 2
#     Edge 7, Type (0, 0), BuildingBlock: OJICUG_clean_linker_0, # of connection points: 2
#     Edge 8, Type (0, 0), BuildingBlock: OJICUG_clean_linker_0, # of connection points: 2
#     Edge 9, Type (0, 0), BuildingBlock: OJICUG_clean_linker_0, # of connection points: 2
# Relax obj value: 0.013
# Max RMSD: 0.070
# Mean RMSD: 0.070
data_MOF--net-bcu--node1-TAGTUT_clean_sbu_1--edge1-OJICUG_clean_linker_0
_symmetry_space_group_name_H-M    P1
_symmetry_Int_Tables_number       1
_symmetry_cell_setting            triclinic
loop_
_symmetry_equiv_pos_as_xyz
'x, y, z'
_cell_length_a     13.502327
_cell_length_b     15.286706
_cell_length_c     17.4589
_cell_angle_alpha  90.838506
_cell_angle_beta   95.238328
_cell_angle_gamma 117.77326
loop_
_atom_site_label
_atom_site_type_symbol
_atom_site_fract_x
_atom_site_fract_y
_atom_site_fract_z
_atom_type_partial_charge
C0 C 0.83126 0.15232 0.02535 0.0
C1 C 0.9103 0.13861 0.79447 0.0
C2 C 0.86927 0.78093 0.8521 0.0
Mg3 Mg 1.0483 0.18728 -0.04754 0.0
O4 O 0.98338 0.05372 -0.02564 0.0
Mg5 Mg 0.82873 0.96226 0.92399 0.0
Mg6 Mg 0.06521 -0.01899 0.94935 0.0
O7 O 0.14677 0.90811 0.92435 0.0
Mg8 Mg 0.08154 0.77436 0.94606 0.0
Mg9 Mg 0.30135 -0.00065 -0.02522 0.0
C10 C 0.26049 0.18091 0.04675 0.0
C11 C 0.25048 0.11113 0.83398 0.0
O12 O 0.77692 0.06307 -0.00557 0.0
O13 O 0.93378 0.21079 0.01518 0.0
O14 O 0.84577 0.05643 0.8211 0.0
O15 O 1.00347 0.20032 0.83244 0.0
O16 O 0.21586 0.23155 0.0145 0.0
O17 O 0.21843 0.08696 0.03151 0.0
C18 C 0.88027 0.85099 0.06487 0.0
O19 O 0.98117 0.88227 0.04761 0.0
O20 O 0.81013 0.87109 0.02564 0.0
O21 O 0.35287 0.89847 0.90416 0.0
O22 O 0.19587 0.75086 0.88321 0.0
O23 O 0.28415 0.90489 0.07752 0.0
C24 C 0.29842 0.80929 0.8731 0.0
O25 O 0.12664 0.76085 0.06602 0.0
O26 O 0.91391 0.73005 0.88392 0.0
C27 C 0.21977 0.82257 0.10404 0.0
O28 O 0.91193 0.87489 0.86747 0.0
O29 O 0.14947 0.0799 0.85105 0.0
O30 O 0.32034 0.09081 0.8733 0.0
C31 C 0.43268 0.69176 0.60353 0.0
C32 C 0.42256 0.69156 0.35223 0.0
C33 C 0.35982 0.31373 0.36229 0.0
Mg34 Mg 0.60117 0.7149 0.48634 0.0
O35 O 0.52237 0.57555 0.49987 0.0
Mg36 Mg 0.3566 0.50316 0.46915 0.0
Mg37 Mg 0.56691 0.48172 0.44987 0.0
O38 O 0.61024 0.38779 0.39965 0.0
Mg39 Mg 0.53026 0.24845 0.41264 0.0
Mg40 Mg 0.77574 0.45916 0.42969 0.0
C41 C 0.76967 0.6485 0.53733 0.0
C42 C 0.72891 0.60526 0.32035 0.0
O43 O 0.3587 0.61088 0.56572 0.0
O44 O 0.53257 0.74331 0.58445 0.0
O45 O 0.36036 0.6087 0.37846 0.0
O46 O 0.52413 0.74546 0.38182 0.0
O47 O 0.75474 0.69983 0.48475 0.0
O48 O 0.7443 0.55793 0.52037 0.0
C49 C 0.40408 0.35772 0.57904 0.0
O50 O 0.49495 0.37737 0.54941 0.0
O51 O 0.34324 0.39719 0.55648 0.0
O52 O 0.77189 0.35112 0.33268 0.0
O53 O 0.59767 0.21917 0.31418 0.0
O54 O 0.77126 0.35304 0.51997 0.0
C55 C 0.69749 0.27039 0.2949 0.0
O56 O 0.6069 0.21689 0.51682 0.0
O57 O 0.37538 0.26181 0.41413 0.0
C58 C 0.70868 0.27029 0.5462 0.0
O59 O 0.39073 0.40545 0.37947 0.0
O60 O 0.63833 0.58578 0.35027 0.0
O61 O 0.78967 0.56562 0.34262 0.0
C62 C 0.36196 0.3227 0.14559 0.0
C63 C 0.32621 0.22274 0.12321 0.0
H64 H 0.39901 0.42983 0.23834 0.0
C65 C 0.32461 0.15851 0.18064 0.0
H66 H 0.3659 0.37474 0.10299 0.0
C67 C 0.34217 0.18985 0.25867 0.0
C68 C 0.36369 0.28647 0.28091 0.0
H69 H 0.29859 0.08122 0.16589 0.0
H70 H 0.33141 0.13626 0.30131 0.0
C71 C 0.37971 0.35407 0.22353 0.0
C72 C 0.6898 0.11617 0.12008 0.0
C73 C 0.78316 0.18483 0.0856 0.0
H74 H 0.59049 0.08918 0.21457 0.0
C75 C 0.84277 0.28283 0.11795 0.0
H76 H 0.64242 0.04 0.09693 0.0
C77 C 0.81478 0.30999 0.18584 0.0
C78 C 0.72536 0.24033 0.2226 0.0
H79 H 0.91458 0.33806 0.09267 0.0
H80 H 0.86415 0.38568 0.2098 0.0
C81 C 0.6609 0.14392 0.18794 0.0
C82 C 0.91584 0.76753 0.17787 0.0
C83 C 0.84241 0.79149 0.1322 0.0
H84 H 0.93777 0.69118 0.27336 0.0
C85 C 0.73188 0.75862 0.15173 0.0
H86 H 1.00172 0.79301 0.16544 0.0
C87 C 0.69485 0.70056 0.21451 0.0
C88 C 0.76754 0.67396 0.25838 0.0
H89 H 0.67327 0.77679 0.1181 0.0
H90 H 0.60894 0.67455 0.22734 0.0
C91 C 0.87883 0.7093 0.24005 0.0
C92 C 0.37484 0.85636 0.20916 0.0
C93 C 0.2654 0.79278 0.17356 0.0
H94 H 0.51139 0.87427 0.29192 0.0
C95 C 0.20786 0.6967 0.19847 0.0
H96 H 0.42196 0.93085 0.19127 0.0
C97 C 0.25973 0.6641 0.25582 0.0
C98 C 0.37048 0.72671 0.28977 0.0
H99 H 0.12401 0.64555 0.17217 0.0
H100 H 0.21296 0.58905 0.2729 0.0
C101 C 0.42693 0.82365 0.26634 0.0
C102 C 0.43997 0.84555 0.77845 0.0
C103 C 0.34644 0.77686 0.81276 0.0
H104 H 0.53953 0.87273 0.68412 0.0
C105 C 0.28665 0.67898 0.78016 0.0
H106 H 0.48747 0.92164 0.80178 0.0
C107 C 0.31474 0.65197 0.71225 0.0
C108 C 0.4044 0.72167 0.67571 0.0
H109 H 0.21469 0.62373 0.80529 0.0
H110 H 0.26529 0.57637 0.68813 0.0
C111 C 0.46892 0.81796 0.71058 0.0
C112 C 0.43716 0.26185 0.68492 0.0
C113 C 0.36496 0.28891 0.64095 0.0
H114 H 0.45779 0.18501 0.78121 0.0
C115 C 0.25356 0.25379 0.65905 0.0
H116 H 0.52311 0.28764 0.67227 0.0
C117 C 0.21598 0.19535 0.72106 0.0
C118 C 0.2889 0.17089 0.7668 0.0
H119 H 0.19495 0.27224 0.62569 0.0
H120 H 0.13006 0.17009 0.73331 0.0
C121 C 0.39954 0.20355 0.74751 0.0
C122 C 0.75514 0.10519 0.68955 0.0
C123 C 0.86489 0.16836 0.72486 0.0
H124 H 0.61863 0.08786 0.60699 0.0
C125 C 0.9231 0.26413 0.69957 0.0
H126 H 0.70752 0.03094 0.70777 0.0
C127 C 0.87156 0.29693 0.64217 0.0
C128 C 0.76049 0.2348 0.60855 0.0
H129 H 1.00723 0.31494 0.72562 0.0
H130 H 0.91884 0.37178 0.62483 0.0
C131 C 0.70338 0.1381 0.63231 0.0
C132 C 0.78562 0.77193 0.64061 0.0
C133 C 0.76378 0.67522 0.61839 0.0
H134 H 0.83037 0.8808 0.73339 0.0
C135 C 0.7472 0.60751 0.67574 0.0
H136 H 0.79683 0.82558 0.59795 0.0
C137 C 0.76545 0.63898 0.75368 0.0
C138 C 0.80221 0.73913 0.77604 0.0
H139 H 0.7275 0.53166 0.66089 0.0
H140 H 0.76143 0.5869 0.79627 0.0
C141 C 0.80368 0.80338 0.71865 0.0
loop_
_geom_bond_atom_site_label_1
_geom_bond_atom_site_label_2
_geom_bond_distance
_geom_bond_site_symmetry_2
_ccdc_geom_bond_type
C0 O12 1.241 . S
C0 O13 1.280 . S
C1 O14 1.277 . S
C1 O15 1.245 . S
C2 O26 1.247 . S
C2 O28 1.289 . S
Mg3 O4 1.926 . S
Mg3 O13 1.984 . S
Mg3 O15 1.988 1_554 S
Mg3 O16 2.061 1_655 S
O4 Mg3 1.926 . S
O4 Mg5 1.986 1_544 S
O4 Mg6 1.917 1_655 S
Mg5 O4 1.986 1_566 S
Mg5 O12 2.042 1_566 S
Mg5 O14 2.041 1_565 S
Mg5 O20 2.038 1_556 S
Mg5 O28 2.238 . S
Mg6 O4 1.917 1_455 S
Mg6 O7 1.917 1_544 S
Mg6 O17 2.106 . S
Mg6 O19 2.079 1_445 S
Mg6 O28 2.106 1_444 S
Mg6 O29 2.079 1_554 S
O7 Mg6 1.917 1_566 S
O7 Mg8 1.926 . S
O7 Mg9 1.986 1_566 S
Mg8 O7 1.926 . S
Mg8 O22 1.984 . S
Mg8 O25 1.988 1_556 S
Mg8 O26 2.061 1_455 S
Mg9 O7 1.986 1_544 S
Mg9 O17 2.238 . S
Mg9 O21 2.042 1_544 S
Mg9 O23 2.041 1_545 S
Mg9 O30 2.038 1_554 S
C10 O16 1.247 . S
C10 O17 1.289 . S
C11 O29 1.245 . S
C11 O30 1.274 . S
O12 C0 1.241 . S
O12 Mg5 2.042 1_544 S
O13 C0 1.280 . S
O13 Mg3 1.984 . S
O14 C1 1.277 . S
O14 Mg5 2.041 1_545 S
O15 C1 1.245 . S
O15 Mg3 1.988 1_556 S
O16 Mg3 2.061 1_455 S
O16 C10 1.247 . S
O17 Mg6 2.106 . S
O17 Mg9 2.238 . S
O17 C10 1.289 . S
C18 O19 1.245 . S
C18 O20 1.274 . S
O19 Mg6 2.079 1_665 S
O19 C18 1.245 . S
O20 Mg5 2.038 1_554 S
O20 C18 1.274 . S
O21 Mg9 2.042 1_566 S
O21 C24 1.241 . S
O22 Mg8 1.984 . S
O22 C24 1.280 . S
O23 Mg9 2.041 1_565 S
O23 C27 1.277 . S
C24 O21 1.241 . S
C24 O22 1.280 . S
O25 Mg8 1.988 1_554 S
O25 C27 1.245 . S
O26 C2 1.247 . S
O26 Mg8 2.061 1_655 S
C27 O23 1.277 . S
C27 O25 1.245 . S
O28 C2 1.289 . S
O28 Mg5 2.238 . S
O28 Mg6 2.106 1_666 S
O29 Mg6 2.079 1_556 S
O29 C11 1.245 . S
O30 Mg9 2.038 1_556 S
O30 C11 1.274 . S
C31 O43 1.241 . S
C31 O44 1.280 . S
C32 O45 1.277 . S
C32 O46 1.245 . S
C33 O57 1.247 . S
C33 O59 1.289 . S
Mg34 O35 1.926 . S
Mg34 O44 1.984 . S
Mg34 O46 1.988 . S
Mg34 O47 2.061 . S
O35 Mg34 1.926 . S
O35 Mg36 1.986 . S
O35 Mg37 1.917 . S
Mg36 O35 1.986 . S
Mg36 O43 2.042 . S
Mg36 O45 2.041 . S
Mg36 O51 2.038 . S
Mg36 O59 2.238 . S
Mg37 O35 1.917 . S
Mg37 O38 1.917 . S
Mg37 O48 2.106 . S
Mg37 O50 2.079 . S
Mg37 O59 2.106 . S
Mg37 O60 2.079 . S
O38 Mg37 1.917 . S
O38 Mg39 1.926 . S
O38 Mg40 1.986 . S
Mg39 O38 1.926 . S
Mg39 O53 1.984 . S
Mg39 O56 1.988 . S
Mg39 O57 2.061 . S
Mg40 O38 1.986 . S
Mg40 O48 2.238 . S
Mg40 O52 2.042 . S
Mg40 O54 2.041 . S
Mg40 O61 2.038 . S
C41 O47 1.247 . S
C41 O48 1.289 . S
C42 O60 1.245 . S
C42 O61 1.274 . S
O43 C31 1.241 . S
O43 Mg36 2.042 . S
O44 C31 1.280 . S
O44 Mg34 1.984 . S
O45 C32 1.277 . S
O45 Mg36 2.041 . S
O46 C32 1.245 . S
O46 Mg34 1.988 . S
O47 Mg34 2.061 . S
O47 C41 1.247 . S
O48 Mg37 2.106 . S
O48 Mg40 2.238 . S
O48 C41 1.289 . S
C49 O50 1.245 . S
C49 O51 1.274 . S
O50 Mg37 2.079 . S
O50 C49 1.245 . S
O51 Mg36 2.038 . S
O51 C49 1.274 . S
O52 Mg40 2.042 . S
O52 C55 1.241 . S
O53 Mg39 1.984 . S
O53 C55 1.280 . S
O54 Mg40 2.041 . S
O54 C58 1.277 . S
C55 O52 1.241 . S
C55 O53 1.280 . S
O56 Mg39 1.988 . S
O56 C58 1.245 . S
O57 C33 1.247 . S
O57 Mg39 2.061 . S
C58 O54 1.277 . S
C58 O56 1.245 . S
O59 C33 1.289 . S
O59 Mg36 2.238 . S
O59 Mg37 2.106 . S
O60 Mg37 2.079 . S
O60 C42 1.245 . S
O61 Mg40 2.038 . S
O61 C42 1.274 . S
C62 C63 1.387 . S
C62 H66 0.950 . S
C62 C71 1.390 . S
C63 C62 1.387 . S
C63 C65 1.387 . S
H64 C71 0.950 . S
C65 C63 1.387 . S
C65 C67 1.390 . S
C65 H69 0.950 . S
H66 C62 0.950 . S
C67 C65 1.390 . S
C67 C68 1.387 . S
C67 H70 0.950 . S
C68 C67 1.387 . S
C68 C71 1.387 . S
H69 C65 0.950 . S
H70 C67 0.950 . S
C71 C62 1.390 . S
C71 H64 0.950 . S
C71 C68 1.387 . S
C72 C73 1.387 . S
C72 H76 0.950 . S
C72 C81 1.390 . S
C73 C72 1.387 . S
C73 C75 1.387 . S
H74 C81 0.950 . S
C75 C73 1.387 . S
C75 C77 1.390 . S
C75 H79 0.950 . S
H76 C72 0.950 . S
C77 C75 1.390 . S
C77 C78 1.387 . S
C77 H80 0.950 . S
C78 C77 1.387 . S
C78 C81 1.387 . S
H79 C75 0.950 . S
H80 C77 0.950 . S
C81 C72 1.390 . S
C81 H74 0.950 . S
C81 C78 1.387 . S
C82 C83 1.387 . S
C82 H86 0.950 . S
C82 C91 1.390 . S
C83 C82 1.387 . S
C83 C85 1.387 . S
H84 C91 0.950 . S
C85 C83 1.387 . S
C85 C87 1.390 . S
C85 H89 0.950 . S
H86 C82 0.950 . S
C87 C85 1.390 . S
C87 C88 1.387 . S
C87 H90 0.950 . S
C88 C87 1.387 . S
C88 C91 1.387 . S
H89 C85 0.950 . S
H90 C87 0.950 . S
C91 C82 1.390 . S
C91 H84 0.950 . S
C91 C88 1.387 . S
C92 C93 1.387 . S
C92 H96 0.950 . S
C92 C101 1.390 . S
C93 C92 1.387 . S
C93 C95 1.387 . S
H94 C101 0.950 . S
C95 C93 1.387 . S
C95 C97 1.390 . S
C95 H99 0.950 . S
H96 C92 0.950 . S
C97 C95 1.390 . S
C97 C98 1.387 . S
C97 H100 0.950 . S
C98 C97 1.387 . S
C98 C101 1.387 . S
H99 C95 0.950 . S
H100 C97 0.950 . S
C101 C92 1.390 . S
C101 H94 0.950 . S
C101 C98 1.387 . S
C102 C103 1.387 . S
C102 H106 0.950 . S
C102 C111 1.390 . S
C103 C102 1.387 . S
C103 C105 1.387 . S
H104 C111 0.950 . S
C105 C103 1.387 . S
C105 C107 1.390 . S
C105 H109 0.950 . S
H106 C102 0.950 . S
C107 C105 1.390 . S
C107 C108 1.387 . S
C107 H110 0.950 . S
C108 C107 1.387 . S
C108 C111 1.387 . S
H109 C105 0.950 . S
H110 C107 0.950 . S
C111 C102 1.390 . S
C111 H104 0.950 . S
C111 C108 1.387 . S
C112 C113 1.387 . S
C112 H116 0.950 . S
C112 C121 1.390 . S
C113 C112 1.387 . S
C113 C115 1.387 . S
H114 C121 0.950 . S
C115 C113 1.387 . S
C115 C117 1.390 . S
C115 H119 0.950 . S
H116 C112 0.950 . S
C117 C115 1.390 . S
C117 C118 1.387 . S
C117 H120 0.950 . S
C118 C117 1.387 . S
C118 C121 1.387 . S
H119 C115 0.950 . S
H120 C117 0.950 . S
C121 C112 1.390 . S
C121 H114 0.950 . S
C121 C118 1.387 . S
C122 C123 1.387 . S
C122 H126 0.950 . S
C122 C131 1.390 . S
C123 C122 1.387 . S
C123 C125 1.387 . S
H124 C131 0.950 . S
C125 C123 1.387 . S
C125 C127 1.390 . S
C125 H129 0.950 . S
H126 C122 0.950 . S
C127 C125 1.390 . S
C127 C128 1.387 . S
C127 H130 0.950 . S
C128 C127 1.387 . S
C128 C131 1.387 . S
H129 C125 0.950 . S
H130 C127 0.950 . S
C131 C122 1.390 . S
C131 H124 0.950 . S
C131 C128 1.387 . S
C132 C133 1.387 . S
C132 H136 0.950 . S
C132 C141 1.390 . S
C133 C132 1.387 . S
C133 C135 1.387 . S
H134 C141 0.950 . S
C135 C133 1.387 . S
C135 C137 1.390 . S
C135 H139 0.950 . S
H136 C132 0.950 . S
C137 C135 1.390 . S
C137 C138 1.387 . S
C137 H140 0.950 . S
C138 C137 1.387 . S
C138 C141 1.387 . S
H139 C135 0.950 . S
H140 C137 0.950 . S
C141 C132 1.390 . S
C141 H134 0.950 . S
C141 C138 1.387 . S
C63 C10 1.084 . S
C68 C33 1.082 . S
C73 C0 1.496 . S
C78 C55 1.495 . S
C83 C18 1.582 . S
C88 C42 1.582 . S
C93 C27 1.640 . S
C98 C32 1.639 . S
C103 C24 1.497 . S
C108 C31 1.498 . S
C113 C49 1.583 . S
C118 C11 1.583 . S
C123 C1 1.641 . S
C128 C58 1.642 . S
C133 C41 1.087 . S
C138 C2 1.089 . S
