# Generated by pormake.
# Topology pcu, (6)-cn, num edge types: 1
# Building blocks:
#     Node 0, Type 0, BuildingBlock: BETFEN_clean_sbu_0, # of connection points: 6
#     Edge 1, Type (0, 0), BuildingBlock: KIFKEQ_clean_linker_1, # of connection points: 2
#     Edge 2, Type (0, 0), BuildingBlock: KIFKEQ_clean_linker_1, # of connection points: 2
#     Edge 3, Type (0, 0), BuildingBlock: KIFKEQ_clean_linker_1, # of connection points: 2
# Relax obj value: 0.000
# Max RMSD: 0.000
# Mean RMSD: 0.000
data_MOF--net-pcu--node1-BETFEN_clean_sbu_0--edge1-KIFKEQ_clean_linker_1
_symmetry_space_group_name_H-M    P1
_symmetry_Int_Tables_number       1
_symmetry_cell_setting            triclinic
loop_
_symmetry_equiv_pos_as_xyz
'x, y, z'
_cell_length_a     25.732762
_cell_length_b     15.891422
_cell_length_c     14.671457
_cell_angle_alpha  91.00712
_cell_angle_beta   95.067021
_cell_angle_gamma 122.0803
loop_
_atom_site_label
_atom_site_type_symbol
_atom_site_fract_x
_atom_site_fract_y
_atom_site_fract_z
_atom_type_partial_charge
Pr0 Pr 0.95163 0.90893 0.03028 0.0
Pr1 Pr 0.09922 0.03461 1.00857 0.0
C2 C 0.83822 0.84305 0.07893 0.0
C3 C 0.78977 0.86717 0.06599 0.0
C4 C 0.75096 0.84002 0.98287 0.0
C5 C 0.70479 0.86174 0.97226 0.0
C6 C 0.69619 0.91099 0.04446 0.0
C7 C 0.73502 0.93804 0.12755 0.0
C8 C 0.78106 0.91607 0.13825 0.0
C9 C 0.98373 0.92283 0.85205 0.0
C10 C 0.02941 0.15907 0.0213 0.0
C11 C 0.20663 0.10466 0.93792 0.0
C12 C 0.25911 0.09121 0.95148 0.0
C13 C 0.27125 0.05697 0.03326 0.0
C14 C 0.31963 0.04038 0.04385 0.0
C15 C 0.35647 0.05693 0.97254 0.0
C16 C 0.34408 0.09149 0.89081 0.0
C17 C 0.29586 0.10846 0.88048 0.0
C18 C 0.07914 -0.00041 0.19364 0.0
C19 C 1.02219 0.78911 0.02961 0.0
O20 O 0.88921 0.90679 0.13106 0.0
O21 O 0.84779 0.80444 1.00755 0.0
O22 O 1.01076 -0.00779 0.91529 0.0
O23 O 0.93563 0.8446 0.87828 0.0
O24 O 0.08064 0.1635 1.00517 0.0
O25 O 0.97783 0.07483 0.03417 0.0
O26 O 0.15433 0.02679 0.90063 0.0
O27 O 0.20012 0.15249 1.00538 0.0
O28 O 0.04005 0.97222 0.12445 0.0
O29 O 0.13414 0.04993 0.16773 0.0
O30 O 0.97778 0.79235 0.06547 0.0
O31 O 0.0661 0.86572 0.99113 0.0
H32 H 0.7561 0.80189 0.92579 0.0
H33 H 0.67619 0.84075 0.90701 0.0
H34 H 0.72915 -0.02529 0.18505 0.0
H35 H 0.8097 0.93693 0.20349 0.0
H36 H 0.24284 0.04196 0.0885 0.0
H37 H 0.32733 0.01251 0.10714 0.0
H38 H 0.37191 0.10596 0.83493 0.0
H39 H 0.28696 0.13438 0.81668 0.0
H40 H 0.96634 0.89495 0.25722 0.0
H41 H 0.16169 0.07057 0.34753 0.0
H42 H 0.94444 0.87666 0.41682 0.0
H43 H 0.14024 0.05018 0.50716 0.0
H44 H 0.076 0.08638 0.78015 0.0
H45 H 0.09931 0.10337 0.62109 0.0
H46 H 0.95196 0.79688 0.55086 0.0
H47 H 0.92802 0.78097 0.70917 0.0
C48 C 1.00455 0.92936 0.31128 0.0
C49 C 0.06561 -0.01522 0.29002 0.0
C50 C 0.99212 0.91827 0.40282 0.0
C51 C 0.04059 0.96216 0.47519 0.0
C52 C 0.10175 0.01667 0.45344 0.0
C53 C 0.11409 0.02778 0.36193 0.0
C54 C 0.04878 0.0227 0.73063 0.0
C55 C 1.00003 0.93252 0.75693 0.0
C56 C 0.06229 0.03217 0.63954 0.0
C57 C 1.02735 0.95158 0.57277 0.0
C58 C 0.97915 0.86099 0.59986 0.0
C59 C 0.96567 0.85163 0.6908 0.0
H60 H 0.3867 0.9664 0.84543 0.0
H61 H 0.44046 0.10161 0.12298 0.0
H62 H 0.46932 0.93347 0.86194 0.0
H63 H 0.52192 0.06586 0.14052 0.0
H64 H 0.70212 0.08088 0.1038 0.0
H65 H 0.62077 0.11679 0.08641 0.0
H66 H 0.49657 0.82741 0.94289 0.0
H67 H 0.57783 0.79146 0.96036 0.0
C68 C 0.41629 -0.01057 0.9099 0.0
C69 C 0.40698 0.03685 0.98282 0.0
C70 C 0.46324 0.96951 0.91973 0.0
C71 C 0.50227 -0.00319 1.00263 0.0
C72 C 0.49313 0.04465 0.07543 0.0
C73 C 0.44599 0.06421 0.06571 0.0
C74 C 0.65731 0.02457 0.06918 0.0
C75 C 0.64662 0.93327 0.03344 0.0
C76 C 0.61064 0.04517 0.05921 0.0
C77 C 0.55207 -0.02496 1.0132 0.0
C78 C 0.5414 0.88379 0.97741 0.0
C79 C 0.58805 0.86317 0.98742 0.0
H80 H 0.95148 0.62251 0.12059 0.0
H81 H 0.09522 0.74651 0.94079 0.0
H82 H 0.95443 0.47157 0.12204 0.0
H83 H 0.09674 0.59518 0.93987 0.0
H84 H 0.12795 0.35154 0.02655 0.0
H85 H 0.12655 0.50358 0.03313 0.0
H86 H 0.92782 0.32824 0.02593 0.0
H87 H 0.92939 0.17668 0.02244 0.0
C88 C 0.98342 0.61742 0.08099 0.0
C89 C 1.0231 0.6967 0.0307 0.0
C90 C 0.98493 0.53067 0.08143 0.0
C91 C 1.02589 0.52107 0.03111 0.0
C92 C 0.0654 0.60048 0.98076 0.0
C93 C 0.0642 0.68723 0.98083 0.0
C94 C 0.08397 0.34542 0.02633 0.0
C95 C 0.02884 0.25183 0.02384 0.0
C96 C 0.0831 0.43265 0.02974 0.0
C97 C 1.02703 0.42835 0.02994 0.0
C98 C 0.97194 0.33462 0.02741 0.0
C99 C 0.97284 0.24751 0.02473 0.0
loop_
_geom_bond_atom_site_label_1
_geom_bond_atom_site_label_2
_geom_bond_distance
_geom_bond_site_symmetry_2
_ccdc_geom_bond_type
Pr0 C2 2.880 . S
Pr0 O20 2.562 1_556 S
Pr0 O21 2.490 . S
Pr0 O22 2.695 1_655 S
Pr0 O23 2.512 . S
Pr0 O25 2.437 1_565 S
Pr0 O28 2.436 1_566 S
Pr0 O30 2.438 . S
Pr1 C11 2.880 . S
Pr1 O22 2.436 1_544 S
Pr1 O24 2.438 . S
Pr1 O26 2.562 1_554 S
Pr1 O27 2.490 . S
Pr1 O28 2.695 1_455 S
Pr1 O29 2.512 . S
Pr1 O31 2.437 1_545 S
C2 Pr0 2.880 . S
C2 C3 1.491 . S
C2 O20 1.254 1_556 S
C2 O21 1.225 . S
C3 C2 1.491 . S
C3 C4 1.392 . S
C3 C8 1.356 1_566 S
C4 C3 1.392 . S
C4 C5 1.368 . S
C4 H32 0.929 . S
C5 C4 1.368 . S
C5 C6 1.386 . S
C5 H33 0.929 . S
C6 C5 1.386 . S
C6 C7 1.373 1_566 S
C7 C6 1.373 1_544 S
C7 C8 1.409 . S
C7 H34 0.931 . S
C8 C3 1.356 1_544 S
C8 C7 1.409 . S
C8 H35 0.930 . S
C9 O22 1.270 1_655 S
C9 O23 1.248 . S
C10 O24 1.267 1_556 S
C10 O25 1.278 1_455 S
C11 Pr1 2.880 . S
C11 C12 1.491 . S
C11 O26 1.254 1_554 S
C11 O27 1.225 . S
C12 C11 1.491 . S
C12 C13 1.392 . S
C12 C17 1.356 1_544 S
C13 C12 1.392 . S
C13 C14 1.368 . S
C13 H36 0.929 . S
C14 C13 1.368 . S
C14 C15 1.386 . S
C14 H37 0.929 . S
C15 C14 1.386 . S
C15 C16 1.373 1_544 S
C16 C15 1.373 1_566 S
C16 C17 1.409 . S
C16 H38 0.931 . S
C17 C12 1.356 1_566 S
C17 C16 1.409 . S
C17 H39 0.930 . S
C18 O28 1.270 1_455 S
C18 O29 1.248 . S
C19 O30 1.267 1_554 S
C19 O31 1.278 1_655 S
O20 Pr0 2.562 1_554 S
O20 C2 1.254 1_554 S
O21 Pr0 2.490 . S
O21 C2 1.225 . S
O22 Pr0 2.695 1_455 S
O22 Pr1 2.436 1_566 S
O22 C9 1.270 1_455 S
O23 Pr0 2.512 . S
O23 C9 1.248 . S
O24 Pr1 2.438 . S
O24 C10 1.267 1_554 S
O25 Pr0 2.437 1_545 S
O25 C10 1.278 1_655 S
O26 Pr1 2.562 1_556 S
O26 C11 1.254 1_556 S
O27 Pr1 2.490 . S
O27 C11 1.225 . S
O28 Pr0 2.436 1_544 S
O28 Pr1 2.695 1_655 S
O28 C18 1.270 1_655 S
O29 Pr1 2.512 . S
O29 C18 1.248 . S
O30 Pr0 2.438 . S
O30 C19 1.267 1_556 S
O31 Pr1 2.437 1_565 S
O31 C19 1.278 1_455 S
H32 C4 0.929 . S
H33 C5 0.929 . S
H34 C7 0.931 . S
H35 C8 0.930 . S
H36 C13 0.929 . S
H37 C14 0.929 . S
H38 C16 0.931 . S
H39 C17 0.930 . S
H40 C48 0.950 . S
H41 C53 0.950 . S
H42 C50 0.950 . S
H43 C52 0.950 . S
H44 C54 0.950 . S
H45 C56 0.950 . S
H46 C58 0.950 . S
H47 C59 0.950 . S
C48 H40 0.950 . S
C48 C49 1.384 . S
C48 C50 1.391 . S
C49 C48 1.384 . S
C49 C53 1.394 1_665 S
C50 H42 0.950 . S
C50 C48 1.391 . S
C50 C51 1.398 . S
C51 C50 1.398 . S
C51 C52 1.401 1_665 S
C51 C57 1.491 1_665 S
C52 H43 0.950 . S
C52 C51 1.401 1_445 S
C52 C53 1.391 . S
C53 H41 0.950 . S
C53 C49 1.394 1_445 S
C53 C52 1.391 . S
C54 H44 0.950 . S
C54 C55 1.389 . S
C54 C56 1.391 . S
C55 C54 1.389 . S
C55 C59 1.390 1_445 S
C56 H45 0.950 . S
C56 C54 1.391 . S
C56 C57 1.402 . S
C57 C51 1.491 1_445 S
C57 C56 1.402 . S
C57 C58 1.396 1_445 S
C58 H46 0.950 . S
C58 C57 1.396 1_665 S
C58 C59 1.391 . S
C59 H47 0.950 . S
C59 C55 1.390 1_665 S
C59 C58 1.391 . S
H60 C68 0.950 . S
H61 C73 0.950 . S
H62 C70 0.950 . S
H63 C72 0.950 . S
H64 C74 0.950 . S
H65 C76 0.950 . S
H66 C78 0.950 . S
H67 C79 0.950 . S
C68 H60 0.950 . S
C68 C69 1.395 1_565 S
C68 C70 1.391 . S
C69 C68 1.395 1_545 S
C69 C73 1.384 1_556 S
C70 H62 0.950 . S
C70 C68 1.391 . S
C70 C71 1.404 1_565 S
C71 C70 1.404 1_545 S
C71 C72 1.394 1_556 S
C71 C77 1.492 1_546 S
C72 H63 0.950 . S
C72 C71 1.394 1_554 S
C72 C73 1.391 . S
C73 H61 0.950 . S
C73 C69 1.384 1_554 S
C73 C72 1.391 . S
C74 H64 0.950 . S
C74 C75 1.386 1_545 S
C74 C76 1.391 . S
C75 C74 1.386 1_565 S
C75 C79 1.393 1_554 S
C76 H65 0.950 . S
C76 C74 1.391 . S
C76 C77 1.406 1_545 S
C77 C71 1.492 1_564 S
C77 C76 1.406 1_565 S
C77 C78 1.392 1_554 S
C78 H66 0.950 . S
C78 C77 1.392 1_556 S
C78 C79 1.391 . S
C79 H67 0.950 . S
C79 C75 1.393 1_556 S
C79 C78 1.391 . S
H80 C88 0.950 . S
H81 C93 0.950 . S
H82 C90 0.950 . S
H83 C92 0.951 . S
H84 C94 0.950 . S
H85 C96 0.950 . S
H86 C98 0.950 1_556 S
H87 C99 0.950 . S
C88 H80 0.950 . S
C88 C89 1.383 1_655 S
C88 C90 1.391 . S
C89 C88 1.383 1_455 S
C89 C93 1.400 1_556 S
C90 H82 0.950 . S
C90 C88 1.391 . S
C90 C91 1.397 1_655 S
C91 C90 1.397 1_455 S
C91 C92 1.399 1_556 S
C91 C97 1.491 1_456 S
C92 H83 0.951 . S
C92 C91 1.399 1_554 S
C92 C93 1.390 . S
C93 H81 0.950 . S
C93 C89 1.400 1_554 S
C93 C92 1.390 . S
C94 H84 0.950 . S
C94 C95 1.385 1_455 S
C94 C96 1.391 . S
C95 C94 1.385 1_655 S
C95 C99 1.395 1_554 S
C96 H85 0.950 . S
C96 C94 1.391 . S
C96 C97 1.403 1_455 S
C97 C91 1.491 1_654 S
C97 C96 1.403 1_655 S
C97 C98 1.397 . S
C98 H86 0.950 1_554 S
C98 C97 1.397 . S
C98 C99 1.390 1_554 S
C99 H87 0.950 . S
C99 C95 1.395 1_556 S
C99 C98 1.390 1_556 S
C49 C18 1.451 1_665 S
C55 C9 1.450 1_445 S
C69 C15 1.496 1_556 S
C75 C6 1.497 1_554 S
C89 C19 1.490 1_456 S
C95 C10 1.494 1_654 S
