# Generated by pormake.
# Topology acs-a, (4)-cn, num edge types: 1
# Building blocks:
#     Node 0, Type 0, BuildingBlock: GALJAG_clean_sbu_0, # of connection points: 4
#     Node 1, Type 0, BuildingBlock: GALJAG_clean_sbu_0, # of connection points: 4
#     Node 2, Type 0, BuildingBlock: GALJAG_clean_sbu_0, # of connection points: 4
#     Node 3, Type 0, BuildingBlock: GALJAG_clean_sbu_0, # of connection points: 4
#     Node 4, Type 0, BuildingBlock: GALJAG_clean_sbu_0, # of connection points: 4
#     Node 5, Type 0, BuildingBlock: GALJAG_clean_sbu_0, # of connection points: 4
#     Node 6, Type 0, BuildingBlock: GALJAG_clean_sbu_0, # of connection points: 4
#     Node 7, Type 0, BuildingBlock: GALJAG_clean_sbu_0, # of connection points: 4
#     Node 8, Type 0, BuildingBlock: GALJAG_clean_sbu_0, # of connection points: 4
#     Node 9, Type 0, BuildingBlock: GALJAG_clean_sbu_0, # of connection points: 4
#     Node 10, Type 0, BuildingBlock: GALJAG_clean_sbu_0, # of connection points: 4
#     Node 11, Type 0, BuildingBlock: GALJAG_clean_sbu_0, # of connection points: 4
#     Edge 12, Type (0, 0), None
#     Edge 13, Type (0, 0), None
#     Edge 14, Type (0, 0), None
#     Edge 15, Type (0, 0), None
#     Edge 16, Type (0, 0), None
#     Edge 17, Type (0, 0), None
#     Edge 18, Type (0, 0), None
#     Edge 19, Type (0, 0), None
#     Edge 20, Type (0, 0), None
#     Edge 21, Type (0, 0), None
#     Edge 22, Type (0, 0), None
#     Edge 23, Type (0, 0), None
#     Edge 24, Type (0, 0), None
#     Edge 25, Type (0, 0), None
#     Edge 26, Type (0, 0), None
#     Edge 27, Type (0, 0), None
#     Edge 28, Type (0, 0), None
#     Edge 29, Type (0, 0), None
#     Edge 30, Type (0, 0), None
#     Edge 31, Type (0, 0), None
#     Edge 32, Type (0, 0), None
#     Edge 33, Type (0, 0), None
#     Edge 34, Type (0, 0), None
#     Edge 35, Type (0, 0), None
# Relax obj value: 0.468
# Max RMSD: 0.203
# Mean RMSD: 0.202
data_MOF--net-acs-a--node1-GALJAG_clean_sbu_0--edge1-none
_symmetry_space_group_name_H-M    P1
_symmetry_Int_Tables_number       1
_symmetry_cell_setting            triclinic
loop_
_symmetry_equiv_pos_as_xyz
'x, y, z'
_cell_length_a     23.757703
_cell_length_b     24.140518
_cell_length_c     14.56671
_cell_angle_alpha  89.983213
_cell_angle_beta   90.016284
_cell_angle_gamma 118.33828
loop_
_atom_site_label
_atom_site_type_symbol
_atom_site_fract_x
_atom_site_fract_y
_atom_site_fract_z
_atom_type_partial_charge
In0 In 0.56027 0.13062 -0.02153 0.0
O1 O 0.59528 0.11169 0.11295 0.0
O2 O 0.56006 0.1782 0.11243 0.0
C3 C 0.6825 0.20232 0.92517 0.0
C4 C 0.49002 0.00538 -0.04221 0.0
C5 C 0.50419 0.20034 0.92839 0.0
O6 O 0.66692 0.1692 -0.00316 0.0
O7 O 0.63609 0.19353 0.87399 0.0
O8 O 0.54038 0.19087 0.87443 0.0
O9 O 0.49113 0.16891 0.0017 0.0
C10 C 0.58207 0.1485 0.15813 0.0
O11 O 0.4717 0.03726 0.00476 0.0
O12 O 0.54048 0.03697 0.91217 0.0
In13 In 0.39588 0.56008 0.4784 0.0
O14 O 0.44856 0.59279 0.61296 0.0
O15 O 0.34783 0.56014 0.61254 0.0
C16 C 0.44298 0.68182 0.42781 0.0
C17 C 0.45403 0.48825 0.45759 0.0
C18 C 0.27139 0.50818 0.42924 0.0
O19 O 0.45979 0.66469 0.49972 0.0
O20 O 0.40764 0.63714 0.37523 0.0
O21 O 0.31578 0.54256 0.37483 0.0
O22 O 0.29049 0.49475 0.50246 0.0
C23 C 0.39882 0.58056 0.6582 0.0
O24 O 0.40459 0.47152 0.50497 0.0
O25 O 0.47054 0.53788 0.4115 0.0
In26 In 0.81009 0.38347 -0.02158 0.0
O27 O 0.90556 0.40548 0.91028 0.0
O28 O 0.90471 0.47107 0.00625 0.0
C29 C 0.74143 0.26241 0.92568 0.0
C30 C 0.79186 0.36193 0.15818 0.0
C31 C 0.73491 0.43445 0.92884 0.0
O32 O 0.74817 0.30729 0.87433 0.0
O33 O 0.77472 0.27912 -0.00235 0.0
O34 O 0.76759 0.44883 0.00155 0.0
O35 O 0.74613 0.39985 0.87493 0.0
C36 C 0.93744 0.45432 0.95761 0.0
O37 O 0.76186 0.38377 0.11251 0.0
O38 O 0.82914 0.34878 0.11295 0.0
In39 In 0.38507 0.8115 0.47843 0.0
O40 O 0.47384 0.90477 0.50452 0.0
O41 O 0.40502 0.90516 0.41203 0.0
C42 C 0.44066 0.74137 0.42846 0.0
C43 C 0.36333 0.79374 0.65811 0.0
C44 C 0.26276 0.74015 0.42513 0.0
O45 O 0.40463 0.75105 0.37441 0.0
O46 O 0.45388 0.77282 0.50176 0.0
O47 O 0.27847 0.77322 0.49682 0.0
O48 O 0.30911 0.74878 0.37396 0.0
C49 C 0.45555 0.9367 0.45756 0.0
O50 O 0.35024 0.83063 0.61288 0.0
O51 O 0.38519 0.7639 0.61247 0.0
In52 In 0.54829 0.3814 -0.02154 0.0
O53 O 0.4956 0.34855 0.11297 0.0
O54 O 0.59636 0.38132 0.11262 0.0
C55 C 0.50164 0.25979 0.92779 0.0
C56 C 0.48993 0.45306 -0.04221 0.0
C57 C 0.67277 0.43369 0.92937 0.0
O58 O 0.48464 0.27673 -0.00035 0.0
O59 O 0.53686 0.30453 0.8752 0.0
O60 O 0.62845 0.39932 0.87485 0.0
O61 O 0.65361 0.44692 0.0027 0.0
C62 C 0.54535 0.36082 0.15824 0.0
O63 O 0.53946 0.46987 0.00501 0.0
O64 O 0.47339 0.4034 0.91177 0.0
In65 In 0.13465 0.55922 0.47842 0.0
O66 O 0.03916 0.53739 0.41043 0.0
O67 O 0.03999 0.47175 0.50638 0.0
C68 C 0.20366 0.68022 0.42556 0.0
C69 C 0.15297 0.58082 0.65814 0.0
C70 C 0.20944 0.50785 0.42894 0.0
O71 O 0.19676 0.63526 0.37428 0.0
O72 O 0.17033 0.66362 0.49748 0.0
O73 O 0.1769 0.49365 0.50175 0.0
O74 O 0.19831 0.54246 0.37489 0.0
C75 C 0.00727 0.48856 0.45779 0.0
O76 O 0.1829 0.55889 0.61253 0.0
O77 O 0.11575 0.59404 0.61287 0.0
In78 In 0.8101 0.38343 0.43716 0.0
O79 O 0.9047 0.47103 0.40932 0.0
O80 O 0.90558 0.40544 0.5053 0.0
C81 C 0.73492 0.43439 0.48671 0.0
C82 C 0.79188 0.36194 0.2574 0.0
C83 C 0.74146 0.26232 0.48995 0.0
O84 O 0.74613 0.39977 0.54062 0.0
O85 O 0.76759 0.4488 0.41401 0.0
O86 O 0.77472 0.27909 0.41797 0.0
O87 O 0.74821 0.30722 0.54124 0.0
C88 C 0.93744 0.45428 0.45796 0.0
O89 O 0.82914 0.34877 0.30266 0.0
O90 O 0.76185 0.38374 0.30304 0.0
In91 In 0.38506 0.81155 0.937 0.0
O92 O 0.40504 0.90519 0.00341 0.0
O93 O 0.47379 0.90485 0.91082 0.0
C94 C 0.26275 0.74019 -0.00978 0.0
C95 C 0.36335 0.79377 0.75732 0.0
C96 C 0.44073 0.74145 -0.01288 0.0
O97 O 0.30909 0.74881 0.04143 0.0
O98 O 0.27846 0.77329 0.91854 0.0
O99 O 0.45392 0.77292 0.91382 0.0
O100 O 0.40464 0.75111 0.04106 0.0
C101 C 0.45552 0.93675 -0.04217 0.0
O102 O 0.38519 0.76393 0.80304 0.0
O103 O 0.35024 0.83065 0.80248 0.0
In104 In 0.54829 0.38134 0.43713 0.0
O105 O 0.47346 0.40338 0.50391 0.0
O106 O 0.53939 0.46978 0.41046 0.0
C107 C 0.50161 0.25968 0.48776 0.0
C108 C 0.54536 0.36083 0.25736 0.0
C109 C 0.67277 0.43365 0.48625 0.0
O110 O 0.53691 0.30441 0.54028 0.0
O111 O 0.48457 0.27669 0.41596 0.0
O112 O 0.65361 0.44687 0.41291 0.0
O113 O 0.62847 0.39927 0.54077 0.0
C114 C 0.48993 0.453 0.45779 0.0
O115 O 0.59636 0.38131 0.30301 0.0
O116 O 0.4956 0.34852 0.3026 0.0
In117 In 0.13465 0.55925 0.93709 0.0
O118 O 0.03996 0.4718 0.90916 0.0
O119 O 0.03917 0.53743 0.0051 0.0
C120 C 0.20946 0.50786 -0.01332 0.0
C121 C 0.15295 0.5808 0.75736 0.0
C122 C 0.20365 0.68026 -0.01014 0.0
O123 O 0.1984 0.54257 0.0406 0.0
O124 O 0.17681 0.49361 0.91394 0.0
O125 O 0.17035 0.66365 0.9179 0.0
O126 O 0.19672 0.63531 0.04122 0.0
C127 C 0.00726 0.48861 0.95774 0.0
O128 O 0.11573 0.59404 0.80256 0.0
O129 O 0.1829 0.5589 0.80305 0.0
In130 In 0.56029 0.13057 0.43698 0.0
O131 O 0.56005 0.17817 0.303 0.0
O132 O 0.59529 0.11167 0.30253 0.0
C133 C 0.50424 0.20028 0.48705 0.0
C134 C 0.49005 0.00533 0.45762 0.0
C135 C 0.68248 0.20228 0.49026 0.0
O136 O 0.49122 0.16894 0.41366 0.0
O137 O 0.54036 0.19071 0.5411 0.0
O138 O 0.6361 0.19348 0.54148 0.0
O139 O 0.66693 0.16917 0.41862 0.0
C140 C 0.58204 0.14846 0.25733 0.0
O141 O 0.54054 0.0369 0.5032 0.0
O142 O 0.47169 0.03723 0.41073 0.0
In143 In 0.39589 0.56015 0.93714 0.0
O144 O 0.47063 0.53799 0.00397 0.0
O145 O 0.40452 0.47153 0.91077 0.0
C146 C 0.44294 0.68184 -0.0124 0.0
C147 C 0.39882 0.58055 0.75732 0.0
C148 C 0.27145 0.50829 -0.01369 0.0
O149 O 0.40765 0.63719 0.04027 0.0
O150 O 0.45977 0.66476 0.91571 0.0
O151 O 0.29049 0.49488 0.91303 0.0
O152 O 0.31584 0.5426 0.04077 0.0
C153 C 0.45403 0.48831 -0.04199 0.0
O154 O 0.34783 0.56016 0.80294 0.0
O155 O 0.44857 0.59282 0.80259 0.0
loop_
_geom_bond_atom_site_label_1
_geom_bond_atom_site_label_2
_geom_bond_distance
_geom_bond_site_symmetry_2
_ccdc_geom_bond_type
In0 O1 2.296 . S
In0 O2 2.328 . S
In0 O6 2.266 1_554 S
In0 O7 2.324 1_554 S
In0 O8 2.265 1_554 S
In0 O9 2.326 . S
In0 O11 2.293 1_554 S
In0 O12 2.326 . S
O1 In0 2.296 . S
O1 C10 1.240 . S
O2 In0 2.328 . S
O2 C10 1.252 . S
C3 O6 1.252 . S
C3 O7 1.260 . S
C4 O11 1.240 . S
C4 O12 1.252 1_556 S
C5 O8 1.252 . S
C5 O9 1.260 1_556 S
O6 In0 2.266 1_556 S
O6 C3 1.252 . S
O7 In0 2.324 1_556 S
O7 C3 1.260 . S
O8 In0 2.265 1_556 S
O8 C5 1.252 . S
O9 In0 2.326 . S
O9 C5 1.260 1_554 S
C10 O1 1.240 . S
C10 O2 1.252 . S
O11 In0 2.293 1_556 S
O11 C4 1.240 . S
O12 In0 2.326 . S
O12 C4 1.252 1_554 S
In13 O14 2.294 . S
In13 O15 2.326 . S
In13 O19 2.266 . S
In13 O20 2.326 . S
In13 O21 2.266 . S
In13 O22 2.326 . S
In13 O24 2.294 . S
In13 O25 2.326 . S
O14 In13 2.294 . S
O14 C23 1.240 . S
O15 In13 2.326 . S
O15 C23 1.252 . S
C16 O19 1.252 . S
C16 O20 1.260 . S
C17 O24 1.240 . S
C17 O25 1.252 . S
C18 O21 1.252 . S
C18 O22 1.260 . S
O19 In13 2.266 . S
O19 C16 1.252 . S
O20 In13 2.326 . S
O20 C16 1.260 . S
O21 In13 2.266 . S
O21 C18 1.252 . S
O22 In13 2.326 . S
O22 C18 1.260 . S
C23 O14 1.240 . S
C23 O15 1.252 . S
O24 In13 2.294 . S
O24 C17 1.240 . S
O25 In13 2.326 . S
O25 C17 1.252 . S
In26 O27 2.293 1_554 S
In26 O28 2.326 . S
In26 O32 2.265 1_554 S
In26 O33 2.326 . S
In26 O34 2.266 1_554 S
In26 O35 2.324 1_554 S
In26 O37 2.296 . S
In26 O38 2.328 . S
O27 In26 2.293 1_556 S
O27 C36 1.240 . S
O28 In26 2.326 . S
O28 C36 1.252 1_554 S
C29 O32 1.252 . S
C29 O33 1.260 1_556 S
C30 O37 1.240 . S
C30 O38 1.252 . S
C31 O34 1.252 . S
C31 O35 1.260 . S
O32 In26 2.265 1_556 S
O32 C29 1.252 . S
O33 In26 2.326 . S
O33 C29 1.260 1_554 S
O34 In26 2.266 1_556 S
O34 C31 1.252 . S
O35 In26 2.324 1_556 S
O35 C31 1.260 . S
C36 O27 1.240 . S
C36 O28 1.252 1_556 S
O37 In26 2.296 . S
O37 C30 1.240 . S
O38 In26 2.328 . S
O38 C30 1.252 . S
In39 O40 2.294 . S
In39 O41 2.326 . S
In39 O45 2.266 . S
In39 O46 2.326 . S
In39 O47 2.266 . S
In39 O48 2.326 . S
In39 O50 2.294 . S
In39 O51 2.326 . S
O40 In39 2.294 . S
O40 C49 1.240 . S
O41 In39 2.326 . S
O41 C49 1.252 . S
C42 O45 1.252 . S
C42 O46 1.260 . S
C43 O50 1.240 . S
C43 O51 1.252 . S
C44 O47 1.252 . S
C44 O48 1.260 . S
O45 In39 2.266 . S
O45 C42 1.252 . S
O46 In39 2.326 . S
O46 C42 1.260 . S
O47 In39 2.266 . S
O47 C44 1.252 . S
O48 In39 2.326 . S
O48 C44 1.260 . S
C49 O40 1.240 . S
C49 O41 1.252 . S
O50 In39 2.294 . S
O50 C43 1.240 . S
O51 In39 2.326 . S
O51 C43 1.252 . S
In52 O53 2.296 . S
In52 O54 2.328 . S
In52 O58 2.266 1_554 S
In52 O59 2.324 1_554 S
In52 O60 2.265 1_554 S
In52 O61 2.326 . S
In52 O63 2.293 1_554 S
In52 O64 2.326 . S
O53 In52 2.296 . S
O53 C62 1.240 . S
O54 In52 2.328 . S
O54 C62 1.252 . S
C55 O58 1.252 . S
C55 O59 1.260 . S
C56 O63 1.240 . S
C56 O64 1.252 1_556 S
C57 O60 1.252 . S
C57 O61 1.260 1_556 S
O58 In52 2.266 1_556 S
O58 C55 1.252 . S
O59 In52 2.324 1_556 S
O59 C55 1.260 . S
O60 In52 2.265 1_556 S
O60 C57 1.252 . S
O61 In52 2.326 . S
O61 C57 1.260 1_554 S
C62 O53 1.240 . S
C62 O54 1.252 . S
O63 In52 2.293 1_556 S
O63 C56 1.240 . S
O64 In52 2.326 . S
O64 C56 1.252 1_554 S
In65 O66 2.294 . S
In65 O67 2.326 . S
In65 O71 2.266 . S
In65 O72 2.326 . S
In65 O73 2.266 . S
In65 O74 2.326 . S
In65 O76 2.294 . S
In65 O77 2.326 . S
O66 In65 2.294 . S
O66 C75 1.240 . S
O67 In65 2.326 . S
O67 C75 1.252 . S
C68 O71 1.252 . S
C68 O72 1.260 . S
C69 O76 1.240 . S
C69 O77 1.252 . S
C70 O73 1.252 . S
C70 O74 1.260 . S
O71 In65 2.266 . S
O71 C68 1.252 . S
O72 In65 2.326 . S
O72 C68 1.260 . S
O73 In65 2.266 . S
O73 C70 1.252 . S
O74 In65 2.326 . S
O74 C70 1.260 . S
C75 O66 1.240 . S
C75 O67 1.252 . S
O76 In65 2.294 . S
O76 C69 1.240 . S
O77 In65 2.326 . S
O77 C69 1.252 . S
In78 O79 2.294 . S
In78 O80 2.326 . S
In78 O84 2.266 . S
In78 O85 2.326 . S
In78 O86 2.266 . S
In78 O87 2.326 . S
In78 O89 2.294 . S
In78 O90 2.326 . S
O79 In78 2.294 . S
O79 C88 1.240 . S
O80 In78 2.326 . S
O80 C88 1.252 . S
C81 O84 1.252 . S
C81 O85 1.260 . S
C82 O89 1.240 . S
C82 O90 1.252 . S
C83 O86 1.252 . S
C83 O87 1.260 . S
O84 In78 2.266 . S
O84 C81 1.252 . S
O85 In78 2.326 . S
O85 C81 1.260 . S
O86 In78 2.266 . S
O86 C83 1.252 . S
O87 In78 2.326 . S
O87 C83 1.260 . S
C88 O79 1.240 . S
C88 O80 1.252 . S
O89 In78 2.294 . S
O89 C82 1.240 . S
O90 In78 2.326 . S
O90 C82 1.252 . S
In91 O92 2.293 1_556 S
In91 O93 2.326 . S
In91 O97 2.265 1_556 S
In91 O98 2.326 . S
In91 O99 2.266 1_556 S
In91 O100 2.324 1_556 S
In91 O102 2.296 . S
In91 O103 2.328 . S
O92 In91 2.293 1_554 S
O92 C101 1.240 . S
O93 In91 2.326 . S
O93 C101 1.252 1_556 S
C94 O97 1.252 . S
C94 O98 1.260 1_554 S
C95 O102 1.240 . S
C95 O103 1.252 . S
C96 O99 1.252 . S
C96 O100 1.260 . S
O97 In91 2.265 1_554 S
O97 C94 1.252 . S
O98 In91 2.326 . S
O98 C94 1.260 1_556 S
O99 In91 2.266 1_554 S
O99 C96 1.252 . S
O100 In91 2.324 1_554 S
O100 C96 1.260 . S
C101 O92 1.240 . S
C101 O93 1.252 1_554 S
O102 In91 2.296 . S
O102 C95 1.240 . S
O103 In91 2.328 . S
O103 C95 1.252 . S
In104 O105 2.294 . S
In104 O106 2.326 . S
In104 O110 2.266 . S
In104 O111 2.326 . S
In104 O112 2.266 . S
In104 O113 2.326 . S
In104 O115 2.294 . S
In104 O116 2.326 . S
O105 In104 2.294 . S
O105 C114 1.240 . S
O106 In104 2.326 . S
O106 C114 1.252 . S
C107 O110 1.252 . S
C107 O111 1.260 . S
C108 O115 1.240 . S
C108 O116 1.252 . S
C109 O112 1.252 . S
C109 O113 1.260 . S
O110 In104 2.266 . S
O110 C107 1.252 . S
O111 In104 2.326 . S
O111 C107 1.260 . S
O112 In104 2.266 . S
O112 C109 1.252 . S
O113 In104 2.326 . S
O113 C109 1.260 . S
C114 O105 1.240 . S
C114 O106 1.252 . S
O115 In104 2.294 . S
O115 C108 1.240 . S
O116 In104 2.326 . S
O116 C108 1.252 . S
In117 O118 2.293 1_556 S
In117 O119 2.326 . S
In117 O123 2.265 1_556 S
In117 O124 2.326 . S
In117 O125 2.266 1_556 S
In117 O126 2.324 1_556 S
In117 O128 2.296 . S
In117 O129 2.328 . S
O118 In117 2.293 1_554 S
O118 C127 1.240 . S
O119 In117 2.326 . S
O119 C127 1.252 1_556 S
C120 O123 1.252 . S
C120 O124 1.260 1_554 S
C121 O128 1.240 . S
C121 O129 1.252 . S
C122 O125 1.252 . S
C122 O126 1.260 . S
O123 In117 2.265 1_554 S
O123 C120 1.252 . S
O124 In117 2.326 . S
O124 C120 1.260 1_556 S
O125 In117 2.266 1_554 S
O125 C122 1.252 . S
O126 In117 2.324 1_554 S
O126 C122 1.260 . S
C127 O118 1.240 . S
C127 O119 1.252 1_554 S
O128 In117 2.296 . S
O128 C121 1.240 . S
O129 In117 2.328 . S
O129 C121 1.252 . S
In130 O131 2.294 . S
In130 O132 2.326 . S
In130 O136 2.266 . S
In130 O137 2.326 . S
In130 O138 2.266 . S
In130 O139 2.326 . S
In130 O141 2.294 . S
In130 O142 2.326 . S
O131 In130 2.294 . S
O131 C140 1.240 . S
O132 In130 2.326 . S
O132 C140 1.252 . S
C133 O136 1.252 . S
C133 O137 1.260 . S
C134 O141 1.240 . S
C134 O142 1.252 . S
C135 O138 1.252 . S
C135 O139 1.260 . S
O136 In130 2.266 . S
O136 C133 1.252 . S
O137 In130 2.326 . S
O137 C133 1.260 . S
O138 In130 2.266 . S
O138 C135 1.252 . S
O139 In130 2.326 . S
O139 C135 1.260 . S
C140 O131 1.240 . S
C140 O132 1.252 . S
O141 In130 2.294 . S
O141 C134 1.240 . S
O142 In130 2.326 . S
O142 C134 1.252 . S
In143 O144 2.293 1_556 S
In143 O145 2.326 . S
In143 O149 2.265 1_556 S
In143 O150 2.326 . S
In143 O151 2.266 1_556 S
In143 O152 2.324 1_556 S
In143 O154 2.296 . S
In143 O155 2.328 . S
O144 In143 2.293 1_554 S
O144 C153 1.240 . S
O145 In143 2.326 . S
O145 C153 1.252 1_556 S
C146 O149 1.252 . S
C146 O150 1.260 1_554 S
C147 O154 1.240 . S
C147 O155 1.252 . S
C148 O151 1.252 . S
C148 O152 1.260 . S
O149 In143 2.265 1_554 S
O149 C146 1.252 . S
O150 In143 2.326 . S
O150 C146 1.260 1_556 S
O151 In143 2.266 1_554 S
O151 C148 1.252 . S
O152 In143 2.324 1_554 S
O152 C148 1.260 . S
C153 O144 1.240 . S
C153 O145 1.252 1_554 S
O154 In143 2.296 . S
O154 C147 1.240 . S
O155 In143 2.328 . S
O155 C147 1.252 . S
C140 C10 1.925 . S
C23 C147 1.925 . S
C30 C82 1.925 . S
C95 C43 1.925 . S
C108 C62 1.925 . S
C69 C121 1.924 . S
C4 C101 1.709 1_546 S
C17 C114 1.881 . S
C127 C36 1.709 1_454 S
C134 C49 1.881 1_545 S
C153 C56 1.709 1_554 S
C88 C75 1.881 1_655 S
C5 C55 1.676 . S
C18 C70 1.710 . S
C29 C3 1.676 . S
C42 C16 1.712 . S
C57 C31 1.676 . S
C68 C44 1.711 . S
C81 C109 1.712 . S
C94 C122 1.676 . S
C133 C107 1.710 . S
C120 C148 1.676 . S
C135 C83 1.711 . S
C146 C96 1.676 . S
