# Generated by pormake.
# Topology umx, (4)-cn, num edge types: 1
# Building blocks:
#     Node 0, Type 0, BuildingBlock: NAWXER_clean_sbu_0, # of connection points: 4
#     Node 1, Type 0, BuildingBlock: NAWXER_clean_sbu_0, # of connection points: 4
#     Node 2, Type 0, BuildingBlock: NAWXER_clean_sbu_0, # of connection points: 4
#     Node 3, Type 0, BuildingBlock: NAWXER_clean_sbu_0, # of connection points: 4
#     Node 4, Type 0, BuildingBlock: NAWXER_clean_sbu_0, # of connection points: 4
#     Node 5, Type 0, BuildingBlock: NAWXER_clean_sbu_0, # of connection points: 4
#     Node 6, Type 0, BuildingBlock: NAWXER_clean_sbu_0, # of connection points: 4
#     Node 7, Type 0, BuildingBlock: NAWXER_clean_sbu_0, # of connection points: 4
#     Edge 8, Type (0, 0), None
#     Edge 9, Type (0, 0), None
#     Edge 10, Type (0, 0), None
#     Edge 11, Type (0, 0), None
#     Edge 12, Type (0, 0), None
#     Edge 13, Type (0, 0), None
#     Edge 14, Type (0, 0), None
#     Edge 15, Type (0, 0), None
#     Edge 16, Type (0, 0), None
#     Edge 17, Type (0, 0), None
#     Edge 18, Type (0, 0), None
#     Edge 19, Type (0, 0), None
#     Edge 20, Type (0, 0), None
#     Edge 21, Type (0, 0), None
#     Edge 22, Type (0, 0), None
#     Edge 23, Type (0, 0), None
# Relax obj value: 0.027
# Max RMSD: 0.221
# Mean RMSD: 0.220
data_MOF--net-umx--node1-NAWXER_clean_sbu_0--edge1-none
_symmetry_space_group_name_H-M    P1
_symmetry_Int_Tables_number       1
_symmetry_cell_setting            triclinic
loop_
_symmetry_equiv_pos_as_xyz
'x, y, z'
_cell_length_a     17.667486
_cell_length_b     17.6675
_cell_length_c     12.596667
_cell_angle_alpha  91.292393
_cell_angle_beta   91.292319
_cell_angle_gamma 90.020001
loop_
_atom_site_label
_atom_site_type_symbol
_atom_site_fract_x
_atom_site_fract_y
_atom_site_fract_z
_atom_type_partial_charge
C0 C 0.24178 0.30043 0.03392 0.0
C1 C 0.02115 0.46486 0.03719 0.0
O2 O 0.17236 0.28178 0.03043 0.0
Zn3 Zn 0.13197 0.38224 0.03422 0.0
O4 O 0.2607 0.37066 0.03814 0.0
Zn5 Zn 0.20238 0.47875 0.04154 0.0
O6 O 0.2343 0.52354 0.17577 0.0
O7 O 0.16302 0.42174 0.19218 0.0
O8 O 0.08292 0.50292 0.04074 0.0
O9 O 0.0234 0.39306 0.03201 0.0
O10 O 0.16338 0.42493 0.88267 0.0
O11 O 0.23404 0.52667 0.91375 0.0
C12 C 0.20204 0.47621 0.23413 0.0
C13 C 0.20226 0.48022 0.84865 0.0
C14 C 0.48855 0.20116 0.34888 0.0
C15 C 0.49309 0.20317 0.73467 0.0
O16 O 0.44193 0.23305 0.41065 0.0
Zn17 Zn 0.49035 0.20243 0.5414 0.0
O18 O 0.54387 0.1626 0.38674 0.0
Zn19 Zn 0.58687 0.13224 0.54126 0.0
O20 O 0.57623 0.02366 0.53899 0.0
O21 O 0.46628 0.08288 0.53943 0.0
O22 O 0.54757 0.16405 0.69652 0.0
O23 O 0.44596 0.23517 0.6729 0.0
O24 O 0.59836 0.26099 0.54043 0.0
O25 O 0.68725 0.17281 0.54122 0.0
C26 C 0.50443 0.02121 0.53875 0.0
C27 C 0.66857 0.24215 0.53974 0.0
C28 C 0.94817 0.50447 0.03935 0.0
C29 C 0.72754 0.6689 0.04261 0.0
O30 O 0.8864 0.4664 0.0358 0.0
Zn31 Zn 0.76694 0.49058 0.03499 0.0
O32 O 0.94592 0.57627 0.04452 0.0
Zn33 Zn 0.83735 0.58709 0.04231 0.0
O34 O 0.80594 0.54439 0.19386 0.0
O35 O 0.73527 0.44266 0.16278 0.0
O36 O 0.79696 0.68755 0.0461 0.0
O37 O 0.70862 0.59867 0.03839 0.0
O38 O 0.73502 0.44579 0.90076 0.0
O39 O 0.8063 0.54758 0.88435 0.0
C40 C 0.76705 0.4891 0.22789 0.0
C41 C 0.76728 0.49312 0.8424 0.0
C42 C 0.47623 0.76615 0.34186 0.0
C43 C 0.48077 0.76817 0.72766 0.0
O44 O 0.42175 0.80527 0.38001 0.0
Zn45 Zn 0.38245 0.83709 0.53527 0.0
O46 O 0.52336 0.73416 0.40364 0.0
Zn47 Zn 0.47897 0.76689 0.53513 0.0
O48 O 0.37095 0.70834 0.53611 0.0
O49 O 0.28207 0.79652 0.53532 0.0
O50 O 0.52739 0.73627 0.66588 0.0
O51 O 0.42545 0.80673 0.68979 0.0
O52 O 0.39309 0.94566 0.53754 0.0
O53 O 0.50304 0.88645 0.5371 0.0
C54 C 0.30075 0.72718 0.5368 0.0
C55 C 0.46489 0.94812 0.53778 0.0
C56 C 0.20116 0.48856 0.34888 0.0
C57 C 0.20316 0.4931 0.73467 0.0
O58 O 0.16259 0.54388 0.38674 0.0
Zn59 Zn 0.13223 0.58688 0.54126 0.0
O60 O 0.23305 0.44194 0.41065 0.0
Zn61 Zn 0.20243 0.49036 0.5414 0.0
O62 O 0.08287 0.46629 0.53943 0.0
O63 O 0.02366 0.57624 0.53899 0.0
O64 O 0.23516 0.44596 0.6729 0.0
O65 O 0.16404 0.54758 0.69652 0.0
O66 O 0.1728 0.68726 0.54122 0.0
O67 O 0.26098 0.59837 0.54043 0.0
C68 C 0.0212 0.50443 0.53875 0.0
C69 C 0.24215 0.66858 0.53974 0.0
C70 C 0.30042 0.24179 0.03392 0.0
C71 C 0.46485 0.02115 0.03719 0.0
O72 O 0.37065 0.2607 0.03814 0.0
Zn73 Zn 0.47874 0.20239 0.04154 0.0
O74 O 0.28178 0.17237 0.03043 0.0
Zn75 Zn 0.38224 0.13197 0.03423 0.0
O76 O 0.42174 0.16302 0.19219 0.0
O77 O 0.52353 0.23431 0.17577 0.0
O78 O 0.39306 0.0234 0.03202 0.0
O79 O 0.50292 0.08292 0.04074 0.0
O80 O 0.52667 0.23405 0.91375 0.0
O81 O 0.42493 0.16338 0.88268 0.0
C82 C 0.4762 0.20205 0.23413 0.0
C83 C 0.48022 0.20226 0.84865 0.0
C84 C 0.76816 0.48077 0.72765 0.0
C85 C 0.76615 0.47623 0.34186 0.0
O86 O 0.73627 0.52739 0.66588 0.0
Zn87 Zn 0.76689 0.47897 0.53513 0.0
O88 O 0.80673 0.42545 0.68979 0.0
Zn89 Zn 0.83708 0.38245 0.53526 0.0
O90 O 0.94566 0.39309 0.53753 0.0
O91 O 0.88644 0.50304 0.53709 0.0
O92 O 0.80527 0.42175 0.38001 0.0
O93 O 0.73415 0.52337 0.40363 0.0
O94 O 0.70834 0.37096 0.5361 0.0
O95 O 0.79651 0.28207 0.53531 0.0
C96 C 0.94811 0.4649 0.53777 0.0
C97 C 0.72717 0.30075 0.53679 0.0
C98 C 0.66889 0.72754 0.04261 0.0
C99 C 0.50446 0.94818 0.03935 0.0
O100 O 0.68754 0.79696 0.0461 0.0
Zn101 Zn 0.58708 0.83736 0.04231 0.0
O102 O 0.59867 0.70863 0.03839 0.0
Zn103 Zn 0.49058 0.76694 0.03499 0.0
O104 O 0.44579 0.73502 0.90076 0.0
O105 O 0.54758 0.80631 0.88435 0.0
O106 O 0.4664 0.8864 0.0358 0.0
O107 O 0.57626 0.94593 0.04453 0.0
O108 O 0.54439 0.80594 0.19386 0.0
O109 O 0.44265 0.73528 0.16278 0.0
C110 C 0.49312 0.76728 0.8424 0.0
C111 C 0.4891 0.76706 0.22789 0.0
loop_
_geom_bond_atom_site_label_1
_geom_bond_atom_site_label_2
_geom_bond_distance
_geom_bond_site_symmetry_2
_ccdc_geom_bond_type
C0 O2 1.247 1_554 S
C0 O4 1.258 . S
C1 O8 1.247 . S
C1 O9 1.258 1_554 S
O2 C0 1.247 1_556 S
O2 Zn3 2.028 . S
Zn3 O2 2.028 . S
Zn3 O7 2.035 1_556 S
Zn3 O9 2.035 . S
Zn3 O10 2.028 . S
O4 C0 1.258 . S
O4 Zn5 2.035 . S
Zn5 O4 2.035 . S
Zn5 O6 2.028 . S
Zn5 O8 2.028 . S
Zn5 O11 2.035 1_554 S
O6 Zn5 2.028 . S
O6 C12 1.247 . S
O7 Zn3 2.035 1_554 S
O7 C12 1.258 . S
O8 C1 1.247 . S
O8 Zn5 2.028 . S
O9 C1 1.258 1_556 S
O9 Zn3 2.035 . S
O10 Zn3 2.028 . S
O10 C13 1.247 . S
O11 Zn5 2.035 1_556 S
O11 C13 1.258 . S
C12 O6 1.247 . S
C12 O7 1.258 . S
C13 O10 1.247 . S
C13 O11 1.258 . S
C14 O16 1.247 . S
C14 O18 1.258 . S
C15 O22 1.247 . S
C15 O23 1.258 . S
O16 C14 1.247 . S
O16 Zn17 2.028 . S
Zn17 O16 2.028 . S
Zn17 O21 2.035 . S
Zn17 O23 2.035 . S
Zn17 O24 2.028 . S
O18 C14 1.258 . S
O18 Zn19 2.035 . S
Zn19 O18 2.035 . S
Zn19 O20 2.028 . S
Zn19 O22 2.028 . S
Zn19 O25 2.035 . S
O20 Zn19 2.028 . S
O20 C26 1.247 . S
O21 Zn17 2.035 . S
O21 C26 1.258 . S
O22 C15 1.247 . S
O22 Zn19 2.028 . S
O23 C15 1.258 . S
O23 Zn17 2.035 . S
O24 Zn17 2.028 . S
O24 C27 1.247 . S
O25 Zn19 2.035 . S
O25 C27 1.258 . S
C26 O20 1.247 . S
C26 O21 1.258 . S
C27 O24 1.247 . S
C27 O25 1.258 . S
C28 O30 1.247 . S
C28 O32 1.258 . S
C29 O36 1.247 . S
C29 O37 1.258 . S
O30 C28 1.247 . S
O30 Zn31 2.028 . S
Zn31 O30 2.028 . S
Zn31 O35 2.035 . S
Zn31 O37 2.035 . S
Zn31 O38 2.028 1_554 S
O32 C28 1.258 . S
O32 Zn33 2.035 . S
Zn33 O32 2.035 . S
Zn33 O34 2.028 . S
Zn33 O36 2.028 . S
Zn33 O39 2.035 1_554 S
O34 Zn33 2.028 . S
O34 C40 1.247 . S
O35 Zn31 2.035 . S
O35 C40 1.258 . S
O36 C29 1.247 . S
O36 Zn33 2.028 . S
O37 C29 1.258 . S
O37 Zn31 2.035 . S
O38 Zn31 2.028 1_556 S
O38 C41 1.247 . S
O39 Zn33 2.035 1_556 S
O39 C41 1.258 . S
C40 O34 1.247 . S
C40 O35 1.258 . S
C41 O38 1.247 . S
C41 O39 1.258 . S
C42 O44 1.247 . S
C42 O46 1.258 . S
C43 O50 1.247 . S
C43 O51 1.258 . S
O44 C42 1.247 . S
O44 Zn45 2.028 . S
Zn45 O44 2.028 . S
Zn45 O49 2.035 . S
Zn45 O51 2.035 . S
Zn45 O52 2.028 . S
O46 C42 1.258 . S
O46 Zn47 2.035 . S
Zn47 O46 2.035 . S
Zn47 O48 2.028 . S
Zn47 O50 2.028 . S
Zn47 O53 2.035 . S
O48 Zn47 2.028 . S
O48 C54 1.247 . S
O49 Zn45 2.035 . S
O49 C54 1.258 . S
O50 C43 1.247 . S
O50 Zn47 2.028 . S
O51 C43 1.258 . S
O51 Zn45 2.035 . S
O52 Zn45 2.028 . S
O52 C55 1.247 . S
O53 Zn47 2.035 . S
O53 C55 1.258 . S
C54 O48 1.247 . S
C54 O49 1.258 . S
C55 O52 1.247 . S
C55 O53 1.258 . S
C56 O58 1.247 . S
C56 O60 1.258 . S
C57 O64 1.247 . S
C57 O65 1.258 . S
O58 C56 1.247 . S
O58 Zn59 2.028 . S
Zn59 O58 2.028 . S
Zn59 O63 2.035 . S
Zn59 O65 2.035 . S
Zn59 O66 2.028 . S
O60 C56 1.258 . S
O60 Zn61 2.035 . S
Zn61 O60 2.035 . S
Zn61 O62 2.028 . S
Zn61 O64 2.028 . S
Zn61 O67 2.035 . S
O62 Zn61 2.028 . S
O62 C68 1.247 . S
O63 Zn59 2.035 . S
O63 C68 1.258 . S
O64 C57 1.247 . S
O64 Zn61 2.028 . S
O65 C57 1.258 . S
O65 Zn59 2.035 . S
O66 Zn59 2.028 . S
O66 C69 1.247 . S
O67 Zn61 2.035 . S
O67 C69 1.258 . S
C68 O62 1.247 . S
C68 O63 1.258 . S
C69 O66 1.247 . S
C69 O67 1.258 . S
C70 O72 1.247 . S
C70 O74 1.259 1_554 S
C71 O78 1.247 1_554 S
C71 O79 1.258 . S
O72 C70 1.247 . S
O72 Zn73 2.028 . S
Zn73 O72 2.028 . S
Zn73 O77 2.035 . S
Zn73 O79 2.035 . S
Zn73 O80 2.028 1_554 S
O74 C70 1.259 1_556 S
O74 Zn75 2.035 . S
Zn75 O74 2.035 . S
Zn75 O76 2.028 1_556 S
Zn75 O78 2.028 . S
Zn75 O81 2.035 . S
O76 Zn75 2.028 1_554 S
O76 C82 1.247 . S
O77 Zn73 2.035 . S
O77 C82 1.258 . S
O78 C71 1.247 1_556 S
O78 Zn75 2.028 . S
O79 C71 1.258 . S
O79 Zn73 2.035 . S
O80 Zn73 2.028 1_556 S
O80 C83 1.247 . S
O81 Zn75 2.035 . S
O81 C83 1.258 . S
C82 O76 1.247 . S
C82 O77 1.258 . S
C83 O80 1.247 . S
C83 O81 1.258 . S
C84 O86 1.247 . S
C84 O88 1.258 . S
C85 O92 1.247 . S
C85 O93 1.258 . S
O86 C84 1.247 . S
O86 Zn87 2.028 . S
Zn87 O86 2.028 . S
Zn87 O91 2.035 . S
Zn87 O93 2.035 . S
Zn87 O94 2.028 . S
O88 C84 1.258 . S
O88 Zn89 2.035 . S
Zn89 O88 2.035 . S
Zn89 O90 2.028 . S
Zn89 O92 2.028 . S
Zn89 O95 2.035 . S
O90 Zn89 2.028 . S
O90 C96 1.247 . S
O91 Zn87 2.035 . S
O91 C96 1.258 . S
O92 C85 1.247 . S
O92 Zn89 2.028 . S
O93 C85 1.258 . S
O93 Zn87 2.035 . S
O94 Zn87 2.028 . S
O94 C97 1.247 . S
O95 Zn89 2.035 . S
O95 C97 1.258 . S
C96 O90 1.247 . S
C96 O91 1.258 . S
C97 O94 1.247 . S
C97 O95 1.258 . S
C98 O100 1.247 . S
C98 O102 1.258 . S
C99 O106 1.247 . S
C99 O107 1.258 . S
O100 C98 1.247 . S
O100 Zn101 2.028 . S
Zn101 O100 2.028 . S
Zn101 O105 2.035 1_554 S
Zn101 O107 2.035 . S
Zn101 O108 2.028 . S
O102 C98 1.258 . S
O102 Zn103 2.035 . S
Zn103 O102 2.035 . S
Zn103 O104 2.028 1_554 S
Zn103 O106 2.028 . S
Zn103 O109 2.035 . S
O104 Zn103 2.028 1_556 S
O104 C110 1.247 . S
O105 Zn101 2.035 1_556 S
O105 C110 1.258 . S
O106 C99 1.247 . S
O106 Zn103 2.028 . S
O107 C99 1.258 . S
O107 Zn101 2.035 . S
O108 Zn101 2.028 . S
O108 C111 1.247 . S
O109 Zn103 2.035 . S
O109 C111 1.258 . S
C110 O104 1.247 . S
C110 O105 1.258 . S
C111 O108 1.247 . S
C111 O109 1.258 . S
C12 C56 1.605 . S
C15 C83 1.652 . S
C85 C40 1.657 . S
C110 C43 1.601 . S
C84 C41 1.601 . S
C111 C42 1.657 . S
C13 C57 1.653 . S
C14 C82 1.604 . S
C28 C1 2.631 1_655 S
C55 C26 2.616 1_565 S
C68 C96 2.625 1_455 S
C99 C71 2.622 1_565 S
C0 C70 2.013 . S
C97 C27 2.014 . S
C29 C98 2.009 . S
C54 C69 2.010 . S
