# Generated by pormake.
# Topology pcu, (6)-cn, num edge types: 1
# Building blocks:
#     Node 0, Type 0, BuildingBlock: VOLQOD_clean_sbu_1, # of connection points: 6
#     Edge 1, Type (0, 0), BuildingBlock: AJUNOK_clean_linker_0, # of connection points: 2
#     Edge 2, Type (0, 0), BuildingBlock: AJUNOK_clean_linker_0, # of connection points: 2
#     Edge 3, Type (0, 0), BuildingBlock: AJUNOK_clean_linker_0, # of connection points: 2
# Relax obj value: 0.082
# Max RMSD: 0.143
# Mean RMSD: 0.143
data_MOF--net-pcu--node1-VOLQOD_clean_sbu_1--edge1-AJUNOK_clean_linker_0
_symmetry_space_group_name_H-M    P1
_symmetry_Int_Tables_number       1
_symmetry_cell_setting            triclinic
loop_
_symmetry_equiv_pos_as_xyz
'x, y, z'
_cell_length_a     13.207291
_cell_length_b     13.206128
_cell_length_c     13.206694
_cell_angle_alpha  90.014832
_cell_angle_beta   89.773143
_cell_angle_gamma 90.160623
loop_
_atom_site_label
_atom_site_type_symbol
_atom_site_fract_x
_atom_site_fract_y
_atom_site_fract_z
_atom_type_partial_charge
O0 O 0.05198 0.03496 0.23387 0.0
Zn1 Zn 0.07204 0.06559 0.08579 0.0
O2 O -0.01503 0.98026 0.00181 0.0
Zn3 Zn 0.06931 0.89325 0.91655 0.0
Zn4 Zn 0.89955 0.89594 0.08916 0.0
Zn5 Zn 0.89959 0.06577 0.91624 0.0
O6 O 0.04897 0.92448 0.7689 0.0
O7 O 0.92382 0.03674 0.76806 0.0
O8 O 0.21964 0.04366 0.05341 0.0
O9 O 0.21735 0.91321 0.94702 0.0
O10 O 0.03686 0.74567 0.93875 0.0
O11 O 0.92982 0.74787 0.06905 0.0
O12 O 0.75194 0.91659 0.05824 0.0
O13 O 0.04077 0.21316 0.06526 0.0
O14 O 0.75137 0.04153 0.94542 0.0
O15 O 0.92855 0.21402 0.9402 0.0
C16 C -0.01236 -0.01842 0.28228 0.0
C17 C -0.01261 -0.01889 0.72149 0.0
C18 C -0.01687 0.69978 0.00462 0.0
C19 C 0.26547 0.9777 8e-05 0.0
C20 C 0.70467 0.97809 0.00137 0.0
C21 C -0.01589 0.26057 0.00371 0.0
O22 O 0.92174 0.92801 0.23672 0.0
C23 C 0.89815 -0.01638 0.44908 0.0
C24 C -0.01056 -0.01822 0.39397 0.0
C25 C 0.89815 -0.01477 0.55527 0.0
C26 C -0.01066 -0.01816 0.60976 0.0
H27 H 0.82628 -0.01464 0.40984 0.0
H28 H 0.82624 -0.01265 0.59499 0.0
S29 S 0.24848 0.97453 0.50092 0.0
N30 N 0.17321 0.9771 0.40137 0.0
N31 N 0.17311 0.97625 0.60101 0.0
C32 C 0.08102 0.97878 0.55552 0.0
C33 C 0.0811 0.97986 0.44753 0.0
C34 C 0.43213 0.06721 -0.00293 0.0
C35 C 0.37714 0.97593 -2e-05 0.0
C36 C 0.53832 0.06723 -0.00425 0.0
C37 C 0.59293 0.9761 0.00054 0.0
H38 H 0.3928 0.13904 0.99428 0.0
H39 H 0.57795 0.13913 0.99276 0.0
S40 S 0.48434 0.71701 0.01112 0.0
N41 N 0.38473 0.79223 0.00722 0.0
N42 N 0.58435 0.79237 0.00863 0.0
C43 C 0.53878 0.88442 0.0047 0.0
C44 C 0.4308 0.88431 0.00331 0.0
C45 C 0.98127 0.53343 0.91488 0.0
C46 C -0.01722 0.58808 0.00627 0.0
C47 C 0.97984 0.42724 0.9147 0.0
C48 C -0.01689 0.37228 0.0058 0.0
H49 H 0.97971 0.57304 0.84307 0.0
H50 H 0.97802 0.38788 0.84272 0.0
S51 S -0.01058 0.47978 0.26515 0.0
N52 N -0.0131 0.57972 0.19004 0.0
N53 N -0.0119 0.38008 0.18961 0.0
C54 C -0.01423 0.42605 0.09759 0.0
C55 C -0.01551 0.53404 0.09785 0.0
loop_
_geom_bond_atom_site_label_1
_geom_bond_atom_site_label_2
_geom_bond_distance
_geom_bond_site_symmetry_2
_ccdc_geom_bond_type
O0 Zn1 1.953 . S
O0 C16 1.225 . S
Zn1 O0 1.953 . S
Zn1 O2 1.949 1_454 S
Zn1 O8 1.919 . S
Zn1 O13 1.924 . S
O2 Zn1 1.949 1_656 S
O2 Zn3 1.923 1_645 S
O2 Zn4 1.950 1_546 S
O2 Zn5 1.945 . S
Zn3 O2 1.923 1_465 S
Zn3 O6 1.933 . S
Zn3 O9 1.941 . S
Zn3 O10 1.965 . S
Zn4 O2 1.950 1_564 S
Zn4 O11 1.938 . S
Zn4 O12 1.906 . S
Zn4 O22 1.953 . S
Zn5 O2 1.945 . S
Zn5 O7 1.932 . S
Zn5 O14 1.977 . S
Zn5 O15 1.910 . S
O6 Zn3 1.933 . S
O6 C17 1.231 . S
O7 Zn5 1.932 . S
O7 C17 1.302 1_645 S
O8 Zn1 1.919 . S
O8 C19 1.253 1_544 S
O9 Zn3 1.941 . S
O9 C19 1.283 . S
O10 Zn3 1.965 . S
O10 C18 1.303 1_456 S
O11 Zn4 1.938 . S
O11 C18 1.247 . S
O12 Zn4 1.906 . S
O12 C20 1.304 1_564 S
O13 Zn1 1.924 . S
O13 C21 1.311 . S
O14 Zn5 1.977 . S
O14 C20 1.272 . S
O15 Zn5 1.910 . S
O15 C21 1.231 1_656 S
C16 O0 1.225 . S
C16 O22 1.298 1_445 S
C17 O6 1.231 . S
C17 O7 1.302 1_465 S
C18 O10 1.303 1_654 S
C18 O11 1.247 . S
C19 O8 1.253 1_566 S
C19 O9 1.283 . S
C20 O12 1.304 1_546 S
C20 O14 1.272 . S
C21 O13 1.311 . S
C21 O15 1.231 1_454 S
O22 Zn4 1.953 . S
O22 C16 1.298 1_665 S
C23 C24 1.369 1_655 S
C23 C25 1.419 . S
C23 H27 0.930 . S
C24 C23 1.369 1_455 S
C24 C33 1.429 1_545 S
C25 C23 1.419 . S
C25 C26 1.363 1_655 S
C25 H28 0.929 . S
C26 C25 1.363 1_455 S
C26 C32 1.428 1_545 S
H27 C23 0.930 . S
H28 C25 0.929 . S
S29 N30 1.613 . S
S29 N31 1.610 . S
N30 S29 1.613 . S
N30 C33 1.350 . S
N31 S29 1.610 . S
N31 C32 1.351 . S
C32 C26 1.428 1_565 S
C32 N31 1.351 . S
C32 C33 1.434 . S
C33 C24 1.429 1_565 S
C33 N30 1.350 . S
C33 C32 1.434 . S
C34 C35 1.369 1_545 S
C34 C36 1.419 . S
C34 H38 0.930 . S
C35 C34 1.369 1_565 S
C35 C44 1.429 1_556 S
C36 C34 1.419 . S
C36 C37 1.363 1_545 S
C36 H39 0.929 . S
C37 C36 1.363 1_565 S
C37 C43 1.428 1_556 S
H38 C34 0.930 . S
H39 C36 0.929 . S
S40 N41 1.613 . S
S40 N42 1.610 . S
N41 S40 1.613 . S
N41 C44 1.350 . S
N42 S40 1.610 . S
N42 C43 1.351 . S
C43 C37 1.428 1_554 S
C43 N42 1.351 . S
C43 C44 1.434 . S
C44 C35 1.429 1_554 S
C44 N41 1.350 . S
C44 C43 1.434 . S
C45 C46 1.369 1_656 S
C45 C47 1.419 . S
C45 H49 0.930 . S
C46 C45 1.369 1_454 S
C46 C55 1.429 . S
C47 C45 1.419 . S
C47 C48 1.363 1_656 S
C47 H50 0.929 . S
C48 C47 1.363 1_454 S
C48 C54 1.428 . S
H49 C45 0.930 . S
H50 C47 0.929 . S
S51 N52 1.613 . S
S51 N53 1.610 . S
N52 S51 1.613 . S
N52 C55 1.350 . S
N53 S51 1.610 . S
N53 C54 1.351 . S
C54 C48 1.428 . S
C54 N53 1.351 . S
C54 C55 1.434 . S
C55 C46 1.429 . S
C55 N52 1.350 . S
C55 C54 1.434 . S
C24 C16 1.499 . S
C26 C17 1.499 1_545 S
C35 C19 1.453 . S
C37 C20 1.464 1_565 S
C46 C18 1.459 1_455 S
C48 C21 1.463 . S
