# Generated by pormake.
# Topology wnr, (7)-cn, num edge types: 1
# Building blocks:
#     Node 0, Type 0, BuildingBlock: NUHQUE_clean_sbu_2, # of connection points: 7
#     Node 1, Type 0, BuildingBlock: NUHQUE_clean_sbu_2, # of connection points: 7
#     Node 2, Type 0, BuildingBlock: NUHQUE_clean_sbu_2, # of connection points: 7
#     Node 3, Type 0, BuildingBlock: NUHQUE_clean_sbu_2, # of connection points: 7
#     Node 4, Type 0, BuildingBlock: NUHQUE_clean_sbu_2, # of connection points: 7
#     Node 5, Type 0, BuildingBlock: NUHQUE_clean_sbu_2, # of connection points: 7
#     Edge 6, Type (0, 0), None
#     Edge 7, Type (0, 0), None
#     Edge 8, Type (0, 0), None
#     Edge 9, Type (0, 0), None
#     Edge 10, Type (0, 0), None
#     Edge 11, Type (0, 0), None
#     Edge 12, Type (0, 0), None
#     Edge 13, Type (0, 0), None
#     Edge 14, Type (0, 0), None
#     Edge 15, Type (0, 0), None
#     Edge 16, Type (0, 0), None
#     Edge 17, Type (0, 0), None
#     Edge 18, Type (0, 0), None
#     Edge 19, Type (0, 0), None
#     Edge 20, Type (0, 0), None
#     Edge 21, Type (0, 0), None
#     Edge 22, Type (0, 0), None
#     Edge 23, Type (0, 0), None
#     Edge 24, Type (0, 0), None
#     Edge 25, Type (0, 0), None
#     Edge 26, Type (0, 0), None
# Relax obj value: 0.210
# Max RMSD: 0.216
# Mean RMSD: 0.216
data_MOF--net-wnr--node1-NUHQUE_clean_sbu_2--edge1-none
_symmetry_space_group_name_H-M    P1
_symmetry_Int_Tables_number       1
_symmetry_cell_setting            triclinic
loop_
_symmetry_equiv_pos_as_xyz
'x, y, z'
_cell_length_a     24.667818
_cell_length_b     24.667952
_cell_length_c     7.5531765
_cell_angle_alpha  90.002015
_cell_angle_beta   89.994225
_cell_angle_gamma 120.00091
loop_
_atom_site_label
_atom_site_type_symbol
_atom_site_fract_x
_atom_site_fract_y
_atom_site_fract_z
_atom_type_partial_charge
O0 O 0.33255 0.50296 0.94337 0.0
Tb1 Tb 0.39525 0.55604 1.15663 0.0
Eu2 Eu 0.28717 0.41219 0.26023 0.0
C3 C 0.35555 0.48887 0.80581 0.0
O4 O 0.41555 0.50738 0.80061 0.0
C5 C 0.42704 0.45239 1.17956 0.0
O6 O 0.34109 0.44675 0.51352 0.0
C7 C 0.19595 0.29779 0.27466 0.0
C8 C 0.31581 0.45599 0.65466 0.0
O9 O 0.25668 0.44096 0.6532 0.0
C10 C 0.27204 0.52631 0.32787 0.0
C11 C 0.1267 0.26744 0.278 0.0
C12 C 0.09349 0.25204 1.1182 0.0
C13 C 0.02848 0.22841 1.11298 0.0
C14 C 0.99749 0.21978 0.27942 0.0
C15 C 0.02865 0.22904 0.4457 0.0
C16 C 0.09415 0.25363 0.43933 0.0
O17 O 0.44631 0.50926 0.24078 0.0
O18 O 0.36999 0.4189 1.11626 0.0
O19 O 0.41731 0.65321 1.18004 0.0
O20 O 0.46928 0.63202 0.99776 0.0
C21 C 0.46084 0.67631 1.061 0.0
O22 O 0.24541 0.47473 0.23424 0.0
O23 O 0.33221 0.55336 0.36224 0.0
O24 O 0.22608 0.32968 0.41638 0.0
O25 O 0.22345 0.32598 1.12571 0.0
H26 H 0.11938 0.25711 0.99815 0.0
H27 H 0.94952 0.20907 0.27938 0.0
H28 H 0.12091 0.26059 0.55871 0.0
O29 O 0.51247 0.8245 0.60999 0.0
Tb30 Tb 0.45938 0.83408 0.82333 0.0
Eu31 Eu 0.60326 0.86991 0.92686 0.0
C32 C 0.52654 0.86158 0.47244 0.0
O33 O 0.50801 0.90305 0.46726 0.0
C34 C 0.56303 0.96955 0.84618 0.0
O35 O 0.56867 0.88926 1.18014 0.0
C36 C 0.71767 0.8931 0.94138 0.0
C37 C 0.55944 0.85474 0.32129 0.0
O38 O 0.5745 0.81067 0.31982 0.0
C39 C 0.48917 0.74065 0.99452 0.0
C40 C 0.74802 0.8542 0.9447 0.0
C41 C 0.76341 0.83639 0.78488 0.0
C42 C 0.78704 0.79501 0.77964 0.0
C43 C 0.79567 0.77265 0.94606 0.0
C44 C 0.78641 0.79455 1.11236 0.0
C45 C 0.76182 0.83546 1.10601 0.0
O46 O 0.50617 0.93193 0.90747 0.0
O47 O 0.59653 0.94599 0.78286 0.0
O48 O 0.36223 0.75891 0.84659 0.0
O49 O 0.38337 0.83217 0.66475 0.0
C50 C 0.3391 0.77938 0.72779 0.0
O51 O 0.54074 0.76562 0.90078 0.0
O52 O 0.46211 0.77376 1.02895 0.0
O53 O 0.68575 0.89132 1.08307 0.0
O54 O 0.6895 0.89244 0.79242 0.0
H55 H 0.75834 0.85721 0.66484 0.0
H56 H 0.80638 0.73539 0.946 0.0
H57 H 0.75485 0.85525 0.22541 0.0
O58 O 0.19089 0.6829 0.27669 0.0
Tb59 Tb 0.18133 0.62023 0.48998 0.0
Eu60 Eu 0.14551 0.72826 0.59359 0.0
C61 C 0.15381 0.65988 1.13914 0.0
O62 O 0.11236 0.59987 1.13393 0.0
C63 C 0.04586 0.5884 0.51287 0.0
O64 O 0.12613 0.67432 0.84686 0.0
C65 C 0.12233 0.81948 0.60809 0.0
C66 C 0.16064 0.69961 0.98801 0.0
O67 O 0.2047 0.75875 0.98655 0.0
C68 C 0.27475 0.74341 0.66136 0.0
C69 C 0.16123 0.88873 0.61143 0.0
C70 C 0.17905 0.92194 0.45162 0.0
C71 C 0.22043 0.98695 0.44639 0.0
C72 C 0.2428 0.01794 0.61281 0.0
C73 C 0.22089 0.98677 0.77911 0.0
C74 C 0.17998 0.92128 0.77275 0.0
O75 O 0.08348 0.56915 0.57414 0.0
O76 O 0.06943 0.64545 0.44958 0.0
O77 O 0.25663 0.59842 0.51274 0.0
O78 O 0.18319 0.54605 0.33162 0.0
C79 C 0.2361 0.55474 0.39417 0.0
O80 O 0.24981 0.77002 0.56763 0.0
O81 O 0.24162 0.68323 0.69573 0.0
O82 O 0.12408 0.78934 0.74979 0.0
O83 O 0.12302 0.79199 0.45913 0.0
H84 H 0.15823 0.89606 0.33158 0.0
H85 H 0.28006 0.06591 0.61276 0.0
H86 H 0.16019 0.89452 0.89215 0.0
O87 O 0.51151 0.32402 0.44882 0.0
Tb88 Tb 0.56459 0.38671 0.23551 0.0
Eu89 Eu 0.42071 0.27862 1.13194 0.0
C90 C 0.49742 0.34702 0.58636 0.0
O91 O 0.51593 0.40702 0.59154 0.0
C92 C 0.46093 0.4185 0.21263 0.0
O93 O 0.45529 0.33256 0.87866 0.0
C94 C 0.30631 0.1874 1.11747 0.0
C95 C 0.46453 0.30728 0.73752 0.0
O96 O 0.44949 0.24815 0.73899 0.0
C97 C 0.53483 0.26349 1.06432 0.0
C98 C 0.27596 0.11816 1.11414 0.0
C99 C 0.26056 0.08495 0.27396 0.0
C100 C 0.23693 0.01994 0.27919 0.0
C101 C 0.2283 0.98894 1.11276 0.0
C102 C 0.23756 0.02011 0.94647 0.0
C103 C 0.26215 0.0856 0.95283 0.0
O104 O 0.5178 0.43776 1.15139 0.0
O105 O 0.42743 0.36144 0.27591 0.0
O106 O 0.66175 0.40874 0.21211 0.0
O107 O 0.64058 0.46076 0.39423 0.0
C108 C 0.68487 0.4523 0.33105 0.0
O109 O 0.48325 0.23687 1.15799 0.0
O110 O 0.56188 0.32366 1.0299 0.0
O111 O 0.33821 0.21754 0.97576 0.0
O112 O 0.33448 0.21491 0.26642 0.0
H113 H 0.26563 0.11083 0.394 0.0
H114 H 0.21759 0.94098 1.11281 0.0
H115 H 0.26912 0.11237 0.83343 0.0
O116 O 0.69143 0.18236 1.11545 0.0
Tb117 Tb 0.62874 0.17278 0.90221 0.0
Eu118 Eu 0.7368 0.13699 0.79856 0.0
C119 C 0.66842 0.14527 0.25301 0.0
O120 O 0.60841 0.10381 0.25823 0.0
C121 C 0.59692 0.03733 0.87928 0.0
O122 O 0.68287 0.1176 0.54529 0.0
C123 C 0.82803 0.11382 0.78413 0.0
C124 C 0.70815 0.15212 0.40413 0.0
O125 O 0.76729 0.1962 0.40559 0.0
C126 C 0.75191 0.26623 0.73081 0.0
C127 C 0.89727 0.15272 0.78078 0.0
C128 C 0.93048 0.17053 0.94058 0.0
C129 C 0.99549 0.21191 0.9458 0.0
C130 C 0.02649 0.23428 0.77936 0.0
C131 C 0.99532 0.21237 0.61308 0.0
C132 C 0.92983 0.17146 0.61945 0.0
O133 O 0.57766 0.07494 0.81806 0.0
O134 O 0.65398 0.06088 0.94254 0.0
O135 O 0.60686 0.24803 0.87925 0.0
O136 O 0.55461 0.17467 1.06076 0.0
C137 C 0.56324 0.22754 0.99801 0.0
O138 O 0.77855 0.24129 0.82448 0.0
O139 O 0.69174 0.23309 0.69647 0.0
O140 O 0.79789 0.11556 0.64241 0.0
O141 O 0.80053 0.11451 0.93308 0.0
H142 H 0.9046 0.14971 1.06063 0.0
H143 H 0.07445 0.27154 0.7794 0.0
H144 H 0.90306 0.15167 0.50007 0.0
O145 O 0.83306 0.50398 0.78215 0.0
Tb146 Tb 0.84261 0.45087 0.56883 0.0
Eu147 Eu 0.87846 0.59475 0.46523 0.0
C148 C 0.87014 0.51804 0.91969 0.0
O149 O 0.91159 0.49948 0.92488 0.0
C150 C 0.97808 0.55451 0.54598 0.0
O151 O 0.89783 0.56017 0.21197 0.0
C152 C 0.90163 0.70915 0.45071 0.0
C153 C 0.86332 0.55095 1.07082 0.0
O154 O 0.81925 0.56603 1.07228 0.0
C155 C 0.74921 0.48065 0.39749 0.0
C156 C 0.86273 0.7395 0.44738 0.0
C157 C 0.84492 0.75489 0.60719 0.0
C158 C 0.80354 0.77852 0.61243 0.0
C159 C 0.78117 0.78714 0.44602 0.0
C160 C 0.80308 0.77789 0.27971 0.0
C161 C 0.84398 0.7533 0.28606 0.0
O162 O 0.94047 0.49765 0.4847 0.0
O163 O 0.95454 0.58802 0.60924 0.0
O164 O 0.76731 0.35377 0.54604 0.0
O165 O 0.84075 0.37482 0.7271 0.0
C166 C 0.78784 0.3306 0.66456 0.0
O167 O 0.77416 0.53221 0.49125 0.0
O168 O 0.78233 0.4536 0.36309 0.0
O169 O 0.89987 0.67725 0.30901 0.0
O170 O 0.90096 0.68098 0.59967 0.0
H171 H 0.86574 0.74983 0.72723 0.0
H172 H 0.74391 0.79785 0.44607 0.0
H173 H 0.86378 0.74633 1.16666 0.0
loop_
_geom_bond_atom_site_label_1
_geom_bond_atom_site_label_2
_geom_bond_distance
_geom_bond_site_symmetry_2
_ccdc_geom_bond_type
O0 Tb1 2.292 . S
O0 C3 1.255 . S
Tb1 O0 2.292 . S
Tb1 O17 2.326 . S
Tb1 O19 2.500 . S
Tb1 O20 2.473 1_556 S
Tb1 O23 2.324 1_556 S
Eu2 O6 2.292 . S
Eu2 C7 2.852 . S
Eu2 O18 2.324 . S
Eu2 O22 2.326 . S
Eu2 O24 2.500 . S
Eu2 O25 2.473 . S
C3 O0 1.255 . S
C3 O4 1.247 . S
O4 C3 1.247 . S
C5 O17 1.242 . S
C5 O18 1.258 1_556 S
O6 Eu2 2.292 . S
O6 C8 1.255 . S
C7 Eu2 2.852 . S
C7 C11 1.503 . S
C7 O24 1.273 . S
C7 O25 1.257 . S
C8 O6 1.255 . S
C8 O9 1.247 . S
O9 C8 1.247 . S
C10 O22 1.242 . S
C10 O23 1.258 . S
C11 C7 1.503 . S
C11 C12 1.379 . S
C11 C16 1.392 . S
C12 C11 1.379 . S
C12 C13 1.404 . S
C12 H26 0.929 1_554 S
C13 C12 1.404 . S
C13 C14 1.389 1_455 S
C14 C13 1.389 1_655 S
C14 C15 1.399 . S
C14 H27 0.931 . S
C15 C14 1.399 . S
C15 C16 1.390 1_655 S
C16 C11 1.392 . S
C16 C15 1.390 1_455 S
C16 H28 0.929 . S
O17 Tb1 2.326 . S
O17 C5 1.242 . S
O18 Eu2 2.324 . S
O18 C5 1.258 1_554 S
O19 Tb1 2.500 . S
O19 C21 1.273 . S
O20 Tb1 2.473 1_554 S
O20 C21 1.257 1_554 S
C21 O19 1.273 . S
C21 O20 1.257 1_556 S
O22 Eu2 2.326 . S
O22 C10 1.242 . S
O23 Tb1 2.324 1_554 S
O23 C10 1.258 . S
O24 Eu2 2.500 . S
O24 C7 1.273 . S
O25 Eu2 2.473 . S
O25 C7 1.257 . S
H26 C12 0.929 1_556 S
H27 C14 0.931 . S
H28 C16 0.929 . S
O29 Tb30 2.292 . S
O29 C32 1.255 . S
Tb30 O29 2.292 . S
Tb30 O46 2.326 . S
Tb30 O48 2.500 . S
Tb30 O49 2.473 . S
Tb30 O52 2.324 . S
Eu31 O35 2.292 1_556 S
Eu31 C36 2.852 . S
Eu31 O47 2.324 . S
Eu31 O51 2.326 . S
Eu31 O53 2.500 . S
Eu31 O54 2.473 . S
C32 O29 1.255 . S
C32 O33 1.247 . S
O33 C32 1.247 . S
C34 O46 1.242 . S
C34 O47 1.258 . S
O35 Eu31 2.292 1_554 S
O35 C37 1.255 . S
C36 Eu31 2.852 . S
C36 C40 1.503 . S
C36 O53 1.273 . S
C36 O54 1.257 . S
C37 O35 1.255 . S
C37 O38 1.247 . S
O38 C37 1.247 . S
C39 O51 1.242 . S
C39 O52 1.258 . S
C40 C36 1.503 . S
C40 C41 1.379 . S
C40 C45 1.392 . S
C41 C40 1.379 . S
C41 C42 1.404 . S
C41 H55 0.929 . S
C42 C41 1.404 . S
C42 C43 1.389 . S
C43 C42 1.389 . S
C43 C44 1.399 . S
C43 H56 0.931 . S
C44 C43 1.399 . S
C44 C45 1.390 . S
C45 C40 1.392 . S
C45 C44 1.390 . S
C45 H57 0.929 1_556 S
O46 Tb30 2.326 . S
O46 C34 1.242 . S
O47 Eu31 2.324 . S
O47 C34 1.258 . S
O48 Tb30 2.500 . S
O48 C50 1.273 . S
O49 Tb30 2.473 . S
O49 C50 1.257 . S
C50 O48 1.273 . S
C50 O49 1.257 . S
O51 Eu31 2.326 . S
O51 C39 1.242 . S
O52 Tb30 2.324 . S
O52 C39 1.258 . S
O53 Eu31 2.500 . S
O53 C36 1.273 . S
O54 Eu31 2.473 . S
O54 C36 1.257 . S
H55 C41 0.929 . S
H56 C43 0.931 . S
H57 C45 0.929 1_554 S
O58 Tb59 2.292 . S
O58 C61 1.255 1_554 S
Tb59 O58 2.292 . S
Tb59 O75 2.326 . S
Tb59 O77 2.500 . S
Tb59 O78 2.473 . S
Tb59 O81 2.324 . S
Eu60 O64 2.292 . S
Eu60 C65 2.852 . S
Eu60 O76 2.324 . S
Eu60 O80 2.326 . S
Eu60 O82 2.500 . S
Eu60 O83 2.473 . S
C61 O58 1.255 1_556 S
C61 O62 1.247 . S
O62 C61 1.247 . S
C63 O75 1.242 . S
C63 O76 1.258 . S
O64 Eu60 2.292 . S
O64 C66 1.255 . S
C65 Eu60 2.852 . S
C65 C69 1.503 . S
C65 O82 1.273 . S
C65 O83 1.257 . S
C66 O64 1.255 . S
C66 O67 1.247 . S
O67 C66 1.247 . S
C68 O80 1.242 . S
C68 O81 1.258 . S
C69 C65 1.503 . S
C69 C70 1.379 . S
C69 C74 1.392 . S
C70 C69 1.379 . S
C70 C71 1.404 . S
C70 H84 0.929 . S
C71 C70 1.404 . S
C71 C72 1.389 1_565 S
C72 C71 1.389 1_545 S
C72 C73 1.399 1_545 S
C72 H85 0.931 . S
C73 C72 1.399 1_565 S
C73 C74 1.390 . S
C74 C69 1.392 . S
C74 C73 1.390 . S
C74 H86 0.929 . S
O75 Tb59 2.326 . S
O75 C63 1.242 . S
O76 Eu60 2.324 . S
O76 C63 1.258 . S
O77 Tb59 2.500 . S
O77 C79 1.273 . S
O78 Tb59 2.473 . S
O78 C79 1.257 . S
C79 O77 1.273 . S
C79 O78 1.257 . S
O80 Eu60 2.326 . S
O80 C68 1.242 . S
O81 Tb59 2.324 . S
O81 C68 1.258 . S
O82 Eu60 2.500 . S
O82 C65 1.273 . S
O83 Eu60 2.473 . S
O83 C65 1.257 . S
H84 C70 0.929 . S
H85 C72 0.931 . S
H86 C74 0.929 . S
O87 Tb88 2.292 . S
O87 C90 1.255 . S
Tb88 O87 2.292 . S
Tb88 O104 2.326 . S
Tb88 O106 2.500 . S
Tb88 O107 2.473 1_554 S
Tb88 O110 2.324 1_554 S
Eu89 O93 2.292 . S
Eu89 C94 2.852 . S
Eu89 O105 2.324 . S
Eu89 O109 2.326 . S
Eu89 O111 2.500 . S
Eu89 O112 2.473 . S
C90 O87 1.255 . S
C90 O91 1.247 . S
O91 C90 1.247 . S
C92 O104 1.242 . S
C92 O105 1.258 1_554 S
O93 Eu89 2.292 . S
O93 C95 1.255 . S
C94 Eu89 2.852 . S
C94 C98 1.503 . S
C94 O111 1.273 . S
C94 O112 1.257 . S
C95 O93 1.255 . S
C95 O96 1.247 . S
O96 C95 1.247 . S
C97 O109 1.242 . S
C97 O110 1.258 . S
C98 C94 1.503 . S
C98 C99 1.379 . S
C98 C103 1.392 . S
C99 C98 1.379 . S
C99 C100 1.404 . S
C99 H113 0.929 1_556 S
C100 C99 1.404 . S
C100 C101 1.389 1_545 S
C101 C100 1.389 1_565 S
C101 C102 1.399 . S
C101 H114 0.931 . S
C102 C101 1.399 . S
C102 C103 1.390 1_565 S
C103 C98 1.392 . S
C103 C102 1.390 1_545 S
C103 H115 0.929 . S
O104 Tb88 2.326 . S
O104 C92 1.242 . S
O105 Eu89 2.324 . S
O105 C92 1.258 1_556 S
O106 Tb88 2.500 . S
O106 C108 1.273 . S
O107 Tb88 2.473 1_556 S
O107 C108 1.257 1_556 S
C108 O106 1.273 . S
C108 O107 1.257 1_554 S
O109 Eu89 2.326 . S
O109 C97 1.242 . S
O110 Tb88 2.324 1_556 S
O110 C97 1.258 . S
O111 Eu89 2.500 . S
O111 C94 1.273 . S
O112 Eu89 2.473 . S
O112 C94 1.257 . S
H113 C99 0.929 1_554 S
H114 C101 0.931 . S
H115 C103 0.929 . S
O116 Tb117 2.292 . S
O116 C119 1.255 1_556 S
Tb117 O116 2.292 . S
Tb117 O133 2.326 . S
Tb117 O135 2.500 . S
Tb117 O136 2.473 . S
Tb117 O139 2.324 . S
Eu118 O122 2.292 . S
Eu118 C123 2.852 . S
Eu118 O134 2.324 . S
Eu118 O138 2.326 . S
Eu118 O140 2.500 . S
Eu118 O141 2.473 . S
C119 O116 1.255 1_554 S
C119 O120 1.247 . S
O120 C119 1.247 . S
C121 O133 1.242 . S
C121 O134 1.258 . S
O122 Eu118 2.292 . S
O122 C124 1.255 . S
C123 Eu118 2.852 . S
C123 C127 1.503 . S
C123 O140 1.273 . S
C123 O141 1.257 . S
C124 O122 1.255 . S
C124 O125 1.247 . S
O125 C124 1.247 . S
C126 O138 1.242 . S
C126 O139 1.258 . S
C127 C123 1.503 . S
C127 C128 1.379 . S
C127 C132 1.392 . S
C128 C127 1.379 . S
C128 C129 1.404 . S
C128 H142 0.929 . S
C129 C128 1.404 . S
C129 C130 1.389 1_655 S
C130 C129 1.389 1_455 S
C130 C131 1.399 1_455 S
C130 H143 0.931 . S
C131 C130 1.399 1_655 S
C131 C132 1.390 . S
C132 C127 1.392 . S
C132 C131 1.390 . S
C132 H144 0.929 . S
O133 Tb117 2.326 . S
O133 C121 1.242 . S
O134 Eu118 2.324 . S
O134 C121 1.258 . S
O135 Tb117 2.500 . S
O135 C137 1.273 . S
O136 Tb117 2.473 . S
O136 C137 1.257 . S
C137 O135 1.273 . S
C137 O136 1.257 . S
O138 Eu118 2.326 . S
O138 C126 1.242 . S
O139 Tb117 2.324 . S
O139 C126 1.258 . S
O140 Eu118 2.500 . S
O140 C123 1.273 . S
O141 Eu118 2.473 . S
O141 C123 1.257 . S
H142 C128 0.929 . S
H143 C130 0.931 . S
H144 C132 0.929 . S
O145 Tb146 2.292 . S
O145 C148 1.255 . S
Tb146 O145 2.292 . S
Tb146 O162 2.326 . S
Tb146 O164 2.500 . S
Tb146 O165 2.473 . S
Tb146 O168 2.324 . S
Eu147 O151 2.292 1_554 S
Eu147 C152 2.852 . S
Eu147 O163 2.324 . S
Eu147 O167 2.326 . S
Eu147 O169 2.500 . S
Eu147 O170 2.473 . S
C148 O145 1.255 . S
C148 O149 1.247 . S
O149 C148 1.247 . S
C150 O162 1.242 . S
C150 O163 1.258 . S
O151 Eu147 2.292 1_556 S
O151 C153 1.255 . S
C152 Eu147 2.852 . S
C152 C156 1.503 . S
C152 O169 1.273 . S
C152 O170 1.257 . S
C153 O151 1.255 . S
C153 O154 1.247 . S
O154 C153 1.247 . S
C155 O167 1.242 . S
C155 O168 1.258 . S
C156 C152 1.503 . S
C156 C157 1.379 . S
C156 C161 1.392 . S
C157 C156 1.379 . S
C157 C158 1.404 . S
C157 H171 0.929 . S
C158 C157 1.404 . S
C158 C159 1.389 . S
C159 C158 1.389 . S
C159 C160 1.399 . S
C159 H172 0.931 . S
C160 C159 1.399 . S
C160 C161 1.390 . S
C161 C156 1.392 . S
C161 C160 1.390 . S
C161 H173 0.929 1_554 S
O162 Tb146 2.326 . S
O162 C150 1.242 . S
O163 Eu147 2.324 . S
O163 C150 1.258 . S
O164 Tb146 2.500 . S
O164 C166 1.273 . S
O165 Tb146 2.473 . S
O165 C166 1.257 . S
C166 O164 1.273 . S
C166 O165 1.257 . S
O167 Eu147 2.326 . S
O167 C155 1.242 . S
O168 Tb146 2.324 . S
O168 C155 1.258 . S
O169 Eu147 2.500 . S
O169 C152 1.273 . S
O170 Eu147 2.473 . S
O170 C152 1.257 . S
H171 C157 0.929 . S
H172 C159 0.931 . S
H173 C161 0.929 1_556 S
C13 C129 3.687 1_454 S
C158 C42 3.687 . S
C71 C100 3.687 1_564 S
C10 C79 3.301 . S
C21 C39 3.301 . S
C50 C68 3.301 . S
C97 C137 3.302 . S
C126 C166 3.301 . S
C108 C155 3.301 . S
C131 C15 2.231 . S
C160 C44 2.232 1_554 S
C102 C73 2.231 . S
C5 C92 3.401 1_556 S
C34 C121 3.401 1_565 S
C150 C63 3.401 1_655 S
C8 C3 1.504 . S
C32 C37 1.504 . S
C66 C61 1.504 . S
C95 C90 1.504 . S
C124 C119 1.504 . S
C148 C153 1.504 . S
