# Generated by pormake.
# Topology ilc, (8)-cn, num edge types: 1
# Building blocks:
#     Node 0, Type 0, BuildingBlock: TAGTUT_clean_sbu_1, # of connection points: 8
#     Node 1, Type 0, BuildingBlock: TAGTUT_clean_sbu_1, # of connection points: 8
#     Node 2, Type 0, BuildingBlock: TAGTUT_clean_sbu_1, # of connection points: 8
#     Edge 3, Type (0, 0), None
#     Edge 4, Type (0, 0), None
#     Edge 5, Type (0, 0), None
#     Edge 6, Type (0, 0), None
#     Edge 7, Type (0, 0), None
#     Edge 8, Type (0, 0), None
#     Edge 9, Type (0, 0), None
#     Edge 10, Type (0, 0), None
#     Edge 11, Type (0, 0), None
#     Edge 12, Type (0, 0), None
#     Edge 13, Type (0, 0), None
#     Edge 14, Type (0, 0), None
# Relax obj value: 0.164
# Max RMSD: 0.152
# Mean RMSD: 0.152
data_MOF--net-ilc--node1-TAGTUT_clean_sbu_1--edge1-none
_symmetry_space_group_name_H-M    P1
_symmetry_Int_Tables_number       1
_symmetry_cell_setting            triclinic
loop_
_symmetry_equiv_pos_as_xyz
'x, y, z'
_cell_length_a     14.205253
_cell_length_b     15.63521
_cell_length_c     8.2938594
_cell_angle_alpha  107.74495
_cell_angle_beta   70.442965
_cell_angle_gamma 136.66893
loop_
_atom_site_label
_atom_site_type_symbol
_atom_site_fract_x
_atom_site_fract_y
_atom_site_fract_z
_atom_type_partial_charge
C0 C 0.11676 0.79255 0.23466 0.0
C1 C -0.01773 0.93031 0.38632 0.0
C2 C 0.66238 0.79638 0.21077 0.0
Mg3 Mg 0.19992 -0.00639 0.06167 0.0
O4 O 0.03388 0.87142 -0.01858 0.0
Mg5 Mg 0.86161 0.72185 0.11079 0.0
Mg6 Mg -0.03838 -0.0539 -0.03149 0.0
O7 O 0.88917 0.02054 0.95571 0.0
Mg8 Mg 0.72314 0.8983 0.87539 0.0
Mg9 Mg 0.06134 0.17003 0.82635 0.0
C10 C 0.25985 0.09454 0.72582 0.0
C11 C 0.10097 0.23443 0.22102 0.0
O12 O 0.00184 0.70633 0.17208 0.0
O13 O 0.21385 0.90259 0.18556 0.0
O14 O 0.90213 0.81605 0.34458 0.0
O15 O 0.0926 0.01564 0.28993 0.0
O16 O 0.29485 0.06197 0.80001 0.0
O17 O 0.17029 0.10108 0.81192 0.0
C18 C 0.82197 0.65765 0.71608 0.0
O19 O 0.86881 0.76862 0.73349 0.0
O20 O 0.81764 0.62056 0.83826 0.0
O21 O 0.92099 0.18536 0.76486 0.0
O22 O 0.7089 -0.01087 0.75163 0.0
O23 O 0.02108 0.07577 0.59255 0.0
C24 C 0.80602 0.09913 0.7024 0.0
O25 O 0.83009 0.87616 0.64676 0.0
O26 O 0.62743 0.82895 0.13647 0.0
C27 C 0.94047 -0.03848 0.55044 0.0
O28 O 0.75345 0.79158 0.1257 0.0
O29 O 0.05433 0.12355 0.20355 0.0
O30 O 0.1051 0.2714 0.0989 0.0
C31 C 0.78343 0.12588 0.56799 0.0
C32 C 0.64894 0.26364 0.71965 0.0
C33 C 0.32904 0.12971 0.5441 0.0
Mg34 Mg 0.86659 0.32694 0.395 0.0
O35 O 0.70055 0.20476 0.31475 0.0
Mg36 Mg 0.52828 0.05518 0.44412 0.0
Mg37 Mg 0.62829 0.27943 0.30185 0.0
O38 O 0.55584 0.35388 0.28904 0.0
Mg39 Mg 0.3898 0.23164 0.20872 0.0
Mg40 Mg 0.728 0.50337 0.15969 0.0
C41 C 0.92652 0.42788 0.05915 0.0
C42 C 0.76763 0.56776 0.55435 0.0
O43 O 0.6685 0.03966 0.50542 0.0
O44 O 0.88051 0.23592 0.5189 0.0
O45 O 0.5688 0.14938 0.67791 0.0
O46 O 0.75927 0.34897 0.62326 0.0
O47 O -0.03848 0.3953 0.13335 0.0
O48 O 0.83695 0.43441 0.14526 0.0
C49 C 0.48864 -0.00902 0.04942 0.0
O50 O 0.53548 0.10195 0.06682 0.0
O51 O 0.48431 -0.0461 0.17159 0.0
O52 O 0.58766 0.51869 0.09819 0.0
O53 O 0.37557 0.32247 0.08497 0.0
O54 O 0.68774 0.4091 0.92588 0.0
C55 C 0.47268 0.43246 0.03573 0.0
O56 O 0.49676 0.20949 -0.01991 0.0
O57 O 0.2941 0.16229 0.4698 0.0
C58 C 0.60714 0.29485 0.88377 0.0
O59 O 0.42012 0.12492 0.45903 0.0
O60 O 0.721 0.45688 0.53688 0.0
O61 O 0.77177 0.60473 0.43224 0.0
C62 C 0.4501 0.45922 0.90132 0.0
C63 C 0.31561 0.59697 0.05299 0.0
C64 C -0.00429 0.46305 0.87744 0.0
Mg65 Mg 0.53326 0.66028 0.72834 0.0
O66 O 0.36722 0.53809 0.64809 0.0
Mg67 Mg 0.19495 0.38852 0.77746 0.0
Mg68 Mg 0.29496 0.61276 0.63518 0.0
O69 O 0.22251 0.68721 0.62237 0.0
Mg70 Mg 0.05647 0.56497 0.54205 0.0
Mg71 Mg 0.39467 0.8367 0.49302 0.0
C72 C 0.59319 0.76121 0.39249 0.0
C73 C 0.4343 0.9011 0.88769 0.0
O74 O 0.33517 0.37299 0.83875 0.0
O75 O 0.54718 0.56926 0.85223 0.0
O76 O 0.23547 0.48271 0.01125 0.0
O77 O 0.42593 0.6823 0.95659 0.0
O78 O 0.62819 0.72864 0.46668 0.0
O79 O 0.50362 0.76775 0.47859 0.0
C80 C 0.15531 0.32431 0.38275 0.0
O81 O 0.20214 0.43529 0.40015 0.0
O82 O 0.15098 0.28723 0.50492 0.0
O83 O 0.25432 0.85202 0.43153 0.0
O84 O 0.04224 0.6558 0.4183 0.0
O85 O 0.35441 0.74243 0.25922 0.0
C86 C 0.13935 0.7658 0.36906 0.0
O87 O 0.16342 0.54283 0.31342 0.0
O88 O 0.96077 0.49562 0.80314 0.0
C89 C 0.2738 0.62819 0.2171 0.0
O90 O 0.08679 0.45825 0.79236 0.0
O91 O 0.38767 0.79021 0.87022 0.0
O92 O 0.43844 0.93807 0.76557 0.0
loop_
_geom_bond_atom_site_label_1
_geom_bond_atom_site_label_2
_geom_bond_distance
_geom_bond_site_symmetry_2
_ccdc_geom_bond_type
C0 O12 1.241 1_455 S
C0 O13 1.280 . S
C1 O14 1.277 1_445 S
C1 O15 1.245 . S
C2 O26 1.247 . S
C2 O28 1.289 . S
Mg3 O4 1.926 1_545 S
Mg3 O13 1.984 1_545 S
Mg3 O15 1.988 . S
Mg3 O16 2.061 1_554 S
O4 Mg3 1.926 1_565 S
O4 Mg5 1.986 1_455 S
O4 Mg6 1.917 1_565 S
Mg5 O4 1.986 1_655 S
Mg5 O12 2.042 . S
Mg5 O14 2.041 . S
Mg5 O20 2.038 1_554 S
Mg5 O28 2.238 . S
Mg6 O4 1.917 1_545 S
Mg6 O7 1.917 1_454 S
Mg6 O17 2.106 1_554 S
Mg6 O19 2.079 1_444 S
Mg6 O28 2.106 1_445 S
Mg6 O29 2.079 . S
O7 Mg6 1.917 1_656 S
O7 Mg8 1.926 1_545 S
O7 Mg9 1.986 1_655 S
Mg8 O7 1.926 1_565 S
Mg8 O22 1.984 1_565 S
Mg8 O25 1.988 . S
Mg8 O26 2.061 1_556 S
Mg9 O7 1.986 1_455 S
Mg9 O17 2.238 . S
Mg9 O21 2.042 . S
Mg9 O23 2.041 . S
Mg9 O30 2.038 1_556 S
C10 O16 1.247 . S
C10 O17 1.289 . S
C11 O29 1.245 . S
C11 O30 1.274 . S
O12 C0 1.241 1_655 S
O12 Mg5 2.042 . S
O13 C0 1.280 . S
O13 Mg3 1.984 1_565 S
O14 C1 1.277 1_665 S
O14 Mg5 2.041 . S
O15 C1 1.245 . S
O15 Mg3 1.988 . S
O16 Mg3 2.061 1_556 S
O16 C10 1.247 . S
O17 Mg6 2.106 1_556 S
O17 Mg9 2.238 . S
O17 C10 1.289 . S
C18 O19 1.245 . S
C18 O20 1.274 . S
O19 Mg6 2.079 1_666 S
O19 C18 1.245 . S
O20 Mg5 2.038 1_556 S
O20 C18 1.274 . S
O21 Mg9 2.042 . S
O21 C24 1.241 1_455 S
O22 Mg8 1.984 1_545 S
O22 C24 1.280 . S
O23 Mg9 2.041 . S
O23 C27 1.277 1_445 S
C24 O21 1.241 1_655 S
C24 O22 1.280 . S
O25 Mg8 1.988 . S
O25 C27 1.245 . S
O26 C2 1.247 . S
O26 Mg8 2.061 1_554 S
C27 O23 1.277 1_665 S
C27 O25 1.245 . S
O28 C2 1.289 . S
O28 Mg5 2.238 . S
O28 Mg6 2.106 1_665 S
O29 Mg6 2.079 . S
O29 C11 1.245 . S
O30 Mg9 2.038 1_554 S
O30 C11 1.274 . S
C31 O43 1.241 . S
C31 O44 1.280 . S
C32 O45 1.277 . S
C32 O46 1.245 . S
C33 O57 1.247 . S
C33 O59 1.289 . S
Mg34 O35 1.926 . S
Mg34 O44 1.984 . S
Mg34 O46 1.988 . S
Mg34 O47 2.061 1_655 S
O35 Mg34 1.926 . S
O35 Mg36 1.986 . S
O35 Mg37 1.917 . S
Mg36 O35 1.986 . S
Mg36 O43 2.042 . S
Mg36 O45 2.041 . S
Mg36 O51 2.038 . S
Mg36 O59 2.238 . S
Mg37 O35 1.917 . S
Mg37 O38 1.917 . S
Mg37 O48 2.106 . S
Mg37 O50 2.079 . S
Mg37 O59 2.106 . S
Mg37 O60 2.079 . S
O38 Mg37 1.917 . S
O38 Mg39 1.926 . S
O38 Mg40 1.986 . S
Mg39 O38 1.926 . S
Mg39 O53 1.984 . S
Mg39 O56 1.988 1_554 S
Mg39 O57 2.061 . S
Mg40 O38 1.986 . S
Mg40 O48 2.238 . S
Mg40 O52 2.042 . S
Mg40 O54 2.041 1_554 S
Mg40 O61 2.038 . S
C41 O47 1.247 1_655 S
C41 O48 1.289 . S
C42 O60 1.245 . S
C42 O61 1.274 . S
O43 C31 1.241 . S
O43 Mg36 2.042 . S
O44 C31 1.280 . S
O44 Mg34 1.984 . S
O45 C32 1.277 . S
O45 Mg36 2.041 . S
O46 C32 1.245 . S
O46 Mg34 1.988 . S
O47 Mg34 2.061 1_455 S
O47 C41 1.247 1_455 S
O48 Mg37 2.106 . S
O48 Mg40 2.238 . S
O48 C41 1.289 . S
C49 O50 1.245 . S
C49 O51 1.274 . S
O50 Mg37 2.079 . S
O50 C49 1.245 . S
O51 Mg36 2.038 . S
O51 C49 1.274 . S
O52 Mg40 2.042 . S
O52 C55 1.241 . S
O53 Mg39 1.984 . S
O53 C55 1.280 . S
O54 Mg40 2.041 1_556 S
O54 C58 1.277 . S
C55 O52 1.241 . S
C55 O53 1.280 . S
O56 Mg39 1.988 1_556 S
O56 C58 1.245 . S
O57 C33 1.247 . S
O57 Mg39 2.061 . S
C58 O54 1.277 . S
C58 O56 1.245 . S
O59 C33 1.289 . S
O59 Mg36 2.238 . S
O59 Mg37 2.106 . S
O60 Mg37 2.079 . S
O60 C42 1.245 . S
O61 Mg40 2.038 . S
O61 C42 1.274 . S
C62 O74 1.241 . S
C62 O75 1.280 . S
C63 O76 1.277 . S
C63 O77 1.245 . S
C64 O88 1.247 1_455 S
C64 O90 1.289 . S
Mg65 O66 1.926 . S
Mg65 O75 1.984 . S
Mg65 O77 1.988 1_556 S
Mg65 O78 2.061 . S
O66 Mg65 1.926 . S
O66 Mg67 1.986 . S
O66 Mg68 1.917 . S
Mg67 O66 1.986 . S
Mg67 O74 2.042 . S
Mg67 O76 2.041 1_556 S
Mg67 O82 2.038 . S
Mg67 O90 2.238 . S
Mg68 O66 1.917 . S
Mg68 O69 1.917 . S
Mg68 O79 2.106 . S
Mg68 O81 2.079 . S
Mg68 O90 2.106 . S
Mg68 O91 2.079 . S
O69 Mg68 1.917 . S
O69 Mg70 1.926 . S
O69 Mg71 1.986 . S
Mg70 O69 1.926 . S
Mg70 O84 1.984 . S
Mg70 O87 1.988 . S
Mg70 O88 2.061 1_455 S
Mg71 O69 1.986 . S
Mg71 O79 2.238 . S
Mg71 O83 2.042 . S
Mg71 O85 2.041 . S
Mg71 O92 2.038 . S
C72 O78 1.247 . S
C72 O79 1.289 . S
C73 O91 1.245 . S
C73 O92 1.274 . S
O74 C62 1.241 . S
O74 Mg67 2.042 . S
O75 C62 1.280 . S
O75 Mg65 1.984 . S
O76 C63 1.277 . S
O76 Mg67 2.041 1_554 S
O77 C63 1.245 . S
O77 Mg65 1.988 1_554 S
O78 Mg65 2.061 . S
O78 C72 1.247 . S
O79 Mg68 2.106 . S
O79 Mg71 2.238 . S
O79 C72 1.289 . S
C80 O81 1.245 . S
C80 O82 1.274 . S
O81 Mg68 2.079 . S
O81 C80 1.245 . S
O82 Mg67 2.038 . S
O82 C80 1.274 . S
O83 Mg71 2.042 . S
O83 C86 1.241 . S
O84 Mg70 1.984 . S
O84 C86 1.280 . S
O85 Mg71 2.041 . S
O85 C89 1.277 . S
C86 O83 1.241 . S
C86 O84 1.280 . S
O87 Mg70 1.988 . S
O87 C89 1.245 . S
O88 C64 1.247 1_655 S
O88 Mg70 2.061 1_655 S
C89 O85 1.277 . S
C89 O87 1.245 . S
O90 C64 1.289 . S
O90 Mg67 2.238 . S
O90 Mg68 2.106 . S
O91 Mg68 2.079 . S
O91 C73 1.245 . S
O92 Mg71 2.038 . S
O92 C73 1.274 . S
C27 C1 1.716 1_665 S
C32 C58 1.716 . S
C63 C89 1.716 . S
C86 C0 1.963 . S
C80 C11 2.613 . S
C72 C2 2.588 . S
C31 C24 1.964 . S
C42 C18 2.615 . S
C33 C10 2.590 . S
C55 C62 1.964 1_554 S
C73 C49 2.614 1_566 S
C64 C41 2.589 1_456 S
