# Generated by pormake.
# Topology kag, (6)-cn, num edge types: 1
# Building blocks:
#     Node 0, Type 0, BuildingBlock: BETGAK_clean_sbu_0, # of connection points: 6
#     Node 1, Type 0, BuildingBlock: BETGAK_clean_sbu_0, # of connection points: 6
#     Node 2, Type 0, BuildingBlock: BETGAK_clean_sbu_0, # of connection points: 6
#     Edge 3, Type (0, 0), BuildingBlock: AJUNOK_clean_linker_0, # of connection points: 2
#     Edge 4, Type (0, 0), BuildingBlock: AJUNOK_clean_linker_0, # of connection points: 2
#     Edge 5, Type (0, 0), BuildingBlock: AJUNOK_clean_linker_0, # of connection points: 2
#     Edge 6, Type (0, 0), BuildingBlock: AJUNOK_clean_linker_0, # of connection points: 2
#     Edge 7, Type (0, 0), BuildingBlock: AJUNOK_clean_linker_0, # of connection points: 2
#     Edge 8, Type (0, 0), BuildingBlock: AJUNOK_clean_linker_0, # of connection points: 2
#     Edge 9, Type (0, 0), BuildingBlock: AJUNOK_clean_linker_0, # of connection points: 2
#     Edge 10, Type (0, 0), BuildingBlock: AJUNOK_clean_linker_0, # of connection points: 2
#     Edge 11, Type (0, 0), BuildingBlock: AJUNOK_clean_linker_0, # of connection points: 2
# Relax obj value: 0.122
# Max RMSD: 0.235
# Mean RMSD: 0.124
data_MOF--net-kag--node1-BETGAK_clean_sbu_0--edge1-AJUNOK_clean_linker_0
_symmetry_space_group_name_H-M    P1
_symmetry_Int_Tables_number       1
_symmetry_cell_setting            triclinic
loop_
_symmetry_equiv_pos_as_xyz
'x, y, z'
_cell_length_a     22.909302
_cell_length_b     33.809466
_cell_length_c     10.432888
_cell_angle_alpha  95.607618
_cell_angle_beta   90.837617
_cell_angle_gamma 90.676154
loop_
_atom_site_label
_atom_site_type_symbol
_atom_site_fract_x
_atom_site_fract_y
_atom_site_fract_z
_atom_type_partial_charge
La0 La 0.09779 0.48947 0.03211 0.0
La1 La 0.09729 0.57616 1.02654 0.0
C2 C 1.08371 0.41905 0.08784 0.0
C3 C 1.04111 0.3857 0.06897 0.0
C4 C 1.03357 0.36344 0.9486 0.0
C5 C 0.99866 0.32904 0.93647 0.0
C6 C 0.97084 0.31612 0.04435 0.0
C7 C 0.97622 0.33939 0.16324 0.0
C8 C 1.01133 0.37367 0.17557 0.0
C9 C 0.10284 0.51324 0.7967 0.0
C10 C 0.97563 0.53368 1.01922 0.0
C11 C 0.11141 0.64691 0.97392 0.0
C12 C 0.15304 0.68055 1.00221 0.0
C13 C 0.13967 0.71146 0.09684 0.0
C14 C 0.17585 0.74503 0.11778 0.0
C15 C 0.22612 0.74858 0.04416 0.0
C16 C 0.23998 0.71757 0.95032 0.0
C17 C 0.20384 0.68382 0.92958 0.0
C18 C 1.09096 0.55264 0.26173 0.0
C19 C 0.21944 0.53183 0.03849 0.0
O20 O 0.11172 0.42861 0.98675 0.0
O21 O 1.06856 0.45037 0.16315 0.0
O22 O 0.12812 0.482 0.83216 0.0
O23 O 1.07272 0.52806 0.88884 0.0
O24 O 1.00368 0.502 0.05166 0.0
O25 O 1.00504 0.5646 0.98414 0.0
O26 O 1.08065 0.63673 0.07029 0.0
O27 O 0.12889 0.61589 0.90004 0.0
O28 O 1.0663 0.58385 0.22479 0.0
O29 O 0.1219 0.53767 0.17095 0.0
O30 O 0.19136 0.56364 1.00722 0.0
O31 O 0.19015 0.50081 0.07308 0.0
H32 H 1.05598 0.37182 0.86447 0.0
H33 H 0.99528 0.31168 0.84366 0.0
H34 H 0.95418 0.33065 0.24739 0.0
H35 H 1.01645 0.39021 0.26948 0.0
H36 H 0.10033 0.71018 0.15275 0.0
H37 H 0.1633 0.76891 0.18847 0.0
H38 H 0.27838 0.71971 0.89186 0.0
H39 H 0.21508 0.66075 0.85494 0.0
La40 La 0.65974 0.03241 1.00213 0.0
La41 La 0.53229 0.03256 1.02776 0.0
C42 C 0.76073 0.05014 0.93401 0.0
C43 C 0.79368 0.08796 0.95461 0.0
C44 C 0.78953 0.11228 0.0713 0.0
C45 C 0.81768 0.14933 0.0873 0.0
C46 C 0.84995 0.16289 0.98658 0.0
C47 C 0.85345 0.13884 0.86932 0.0
C48 C 0.82567 0.10156 0.85366 0.0
C49 C 0.62469 1.02732 0.24048 0.0
C50 C 0.5912 0.11554 0.04411 0.0
C51 C 0.42952 1.01624 0.08948 0.0
C52 C 0.39874 0.9781 0.09954 0.0
C53 C 0.34596 0.97002 0.03181 0.0
C54 C 0.31939 0.9325 1.02851 0.0
C55 C 0.34513 0.90233 0.09298 0.0
C56 C 0.39738 0.91071 0.16306 0.0
C57 C 0.42377 0.94831 0.16692 0.0
C58 C 0.56927 0.03722 0.78986 0.0
C59 C 0.60126 0.95001 0.99207 0.0
O60 O 0.75021 0.03203 0.03675 0.0
O61 O 0.7146 0.05082 0.85897 0.0
O62 O 0.67041 1.01012 0.19051 0.0
O63 O 0.60255 0.04867 0.15995 0.0
O64 O 0.63892 0.096 1.008 0.0
O65 O 0.54316 0.09634 0.0716 0.0
O66 O 0.44423 1.023 0.97302 0.0
O67 O 0.47164 1.0258 0.17333 0.0
O68 O 0.5248 0.05615 0.83933 0.0
O69 O 0.58961 1.01571 0.87157 0.0
O70 O 0.55548 0.96978 0.03925 0.0
O71 O 0.64687 0.96911 0.95111 0.0
H72 H 0.76384 0.10294 0.14961 0.0
H73 H 0.81355 0.16766 0.17777 0.0
H74 H 0.87804 0.14878 0.79029 0.0
H75 H 0.82852 0.08355 0.76224 0.0
H76 H 0.32596 0.99249 0.97891 0.0
H77 H 0.27888 0.92694 0.97452 0.0
H78 H 0.41879 0.88788 0.2118 0.0
H79 H 0.46457 0.95367 0.21981 0.0
La80 La 0.59954 0.57699 0.03242 0.0
La81 La 0.59626 0.48883 1.01968 0.0
C82 C 0.5942 0.64999 1.0064 0.0
C83 C 0.59122 0.69343 0.99712 0.0
C84 C 0.59212 0.71983 0.10996 0.0
C85 C 0.59316 0.76091 0.10335 0.0
C86 C 0.59353 0.77676 0.98377 0.0
C87 C 0.59174 0.7504 0.87056 0.0
C88 C 0.59067 0.70911 0.87719 0.0
C89 C 0.61273 0.54803 0.25736 0.0
C90 C 0.476 0.53142 0.02939 0.0
C91 C 0.60257 0.41577 0.04404 0.0
C92 C 0.60674 0.37248 0.05495 0.0
C93 C 0.62255 0.34662 0.94769 0.0
C94 C 0.62134 0.30544 0.95298 0.0
C95 C 0.60392 0.28906 0.06533 0.0
C96 C 0.58955 0.31494 0.17388 0.0
C97 C 0.59095 0.35625 0.16873 0.0
C98 C 0.5846 0.51845 0.79477 0.0
C99 C 0.71926 0.53427 1.02442 0.0
O100 O 0.59687 0.63554 0.11789 0.0
O101 O 0.59252 0.62293 0.90741 0.0
O102 O 0.64024 0.57876 0.22287 0.0
O103 O 0.578 0.53505 0.16763 0.0
O104 O 0.50485 0.56435 1.00754 0.0
O105 O 0.50406 0.49876 0.05097 0.0
O106 O 0.6109 0.43092 0.93515 0.0
O107 O 0.59265 0.44217 0.14154 0.0
O108 O 0.55625 0.48773 0.82726 0.0
O109 O 0.61862 0.53076 0.88621 0.0
O110 O 0.69024 0.5023 0.0545 0.0
O111 O 0.69105 0.566 0.99409 0.0
H112 H 0.59287 0.70879 0.20399 0.0
H113 H 0.59477 0.78037 0.19227 0.0
H114 H 0.59088 0.76169 0.77693 0.0
H115 H 0.59009 0.68952 0.78858 0.0
H116 H 0.63477 0.35813 0.85842 0.0
H117 H 0.63257 0.2863 0.86774 0.0
H118 H 0.57702 0.30323 0.26262 0.0
H119 H 0.57846 0.37541 0.2529 0.0
C120 C 0.13238 0.5031 0.56413 0.0
C121 C 0.09925 0.52388 0.66117 0.0
C122 C 0.12933 0.51223 0.43516 0.0
C123 C 1.09302 0.54256 0.39792 0.0
H124 H 0.16104 0.47954 0.58792 0.0
H125 H 0.1558 0.4955 0.36432 0.0
S126 S 0.99633 0.60538 0.61388 0.0
N127 N 1.0284 0.5759 0.7097 0.0
N128 N 1.02242 0.59292 0.46905 0.0
C129 C 1.05943 0.56338 0.49391 0.0
C130 C 1.06263 0.55413 0.62493 0.0
C131 C 0.56842 0.05566 0.43385 0.0
C132 C 0.61024 1.029 0.38004 0.0
C133 C 0.55579 0.05828 0.56628 0.0
C134 C 0.58435 0.03431 0.65042 0.0
H135 H 0.54554 0.07491 0.37348 0.0
H136 H 0.52334 0.07933 0.60299 0.0
S137 S 0.69621 0.95873 0.55736 0.0
N138 N 0.67932 0.9775 0.42155 0.0
N139 N 0.65565 0.98245 0.66874 0.0
C140 C 0.62593 1.00736 0.59752 0.0
C141 C 0.63878 1.00468 0.46296 0.0
C142 C 0.55647 0.50731 0.56069 0.0
C143 C 0.59183 0.52713 0.65899 0.0
C144 C 0.56414 0.51353 0.43066 0.0
C145 C 0.60749 0.53982 0.39399 0.0
H146 H 0.52259 0.48673 0.58425 0.0
H147 H 0.53552 0.4979 0.35861 0.0
S148 S 0.7126 0.59835 0.61353 0.0
N149 N 0.67241 0.57373 0.70987 0.0
N150 N 0.68703 0.58526 0.46657 0.0
C151 C 0.64343 0.55958 0.49123 0.0
C152 C 0.63548 0.55335 0.62341 0.0
C153 C 0.31712 0.56435 1.00383 0.0
C154 C 0.28481 0.53142 0.03903 0.0
C155 C 0.37861 0.56423 1.00129 0.0
C156 C 0.41064 0.53115 0.03347 0.0
H157 H 0.29485 0.59051 0.97739 0.0
H158 H 0.40108 0.5903 0.97309 0.0
S159 S 0.34732 0.43744 0.13495 0.0
N160 N 0.29016 0.46487 0.10852 0.0
N161 N 0.40468 0.46461 0.10389 0.0
C162 C 0.37881 0.4981 0.06961 0.0
C163 C 0.31634 0.49825 0.07237 0.0
C164 C 0.86997 0.23052 0.91705 0.0
C165 C 0.88018 0.20205 1.00418 0.0
C166 C 0.89871 0.2676 0.93169 0.0
C167 C 0.93882 0.27743 0.03372 0.0
H168 H 0.83927 0.22414 0.83752 0.0
H169 H 0.88941 0.28877 0.86282 0.0
S170 S 0.98366 0.21192 0.28222 0.0
N171 N 0.93447 0.18542 0.19276 0.0
N172 N 0.98919 0.25476 0.21946 0.0
C173 C 0.94962 0.24901 0.12085 0.0
C174 C 0.92015 0.21141 0.10625 0.0
C175 C 0.55997 0.88645 0.05951 0.0
C176 C 0.60019 0.90577 0.98515 0.0
C177 C 0.55767 0.84493 0.05683 0.0
C178 C 0.59538 0.82073 0.97922 0.0
H179 H 0.53045 0.9035 0.1223 0.0
H180 H 0.52597 0.83165 0.11634 0.0
S181 S 0.70893 0.85604 0.76554 0.0
N182 N 0.67858 0.89717 0.83038 0.0
N183 N 0.6746 0.81909 0.82635 0.0
C184 C 0.63563 0.83948 0.90345 0.0
C185 C 0.63811 0.88194 0.90651 0.0
C186 C 0.87801 0.50286 0.06413 0.0
C187 C 0.91032 0.53395 1.01692 0.0
C188 C 0.81654 0.50304 0.06586 0.0
C189 C 0.78455 0.53437 1.02066 0.0
H190 H 0.9003 0.47819 0.10119 0.0
H191 H 0.79403 0.4785 0.10395 0.0
S192 S 0.84783 0.62229 0.88144 0.0
N193 N 0.90501 0.59647 0.91988 0.0
N194 N 0.79046 0.5969 0.92334 0.0
C195 C 0.81635 0.56545 0.97175 0.0
C196 C 0.87882 0.56522 0.96982 0.0
C197 C 0.27271 0.80609 0.94981 0.0
C198 C 0.26116 0.78598 0.05866 0.0
C199 C 0.30051 0.84343 0.96189 0.0
C200 C 0.31814 0.86197 0.08317 0.0
H201 H 0.25854 0.79344 0.85488 0.0
H202 H 0.30792 0.85803 0.87552 0.0
S203 S 0.30118 0.82055 0.39723 0.0
N204 N 0.27217 0.78625 0.29081 0.0
N205 N 0.32374 0.85676 0.3139 0.0
C206 C 0.30842 0.84164 0.19243 0.0
C207 C 0.27998 0.80362 0.1801 0.0
C208 C 0.64691 0.22124 1.02155 0.0
C209 C 0.60024 0.24504 0.06722 0.0
C210 C 0.64362 0.17966 1.01613 0.0
C211 C 0.59329 0.15989 0.05526 0.0
H212 H 0.68644 0.2349 0.98954 0.0
H213 H 0.6809 0.16296 0.97942 0.0
S214 S 0.45864 0.20876 0.18213 0.0
N215 N 0.502 0.24598 0.15204 0.0
N216 N 0.49569 0.16788 0.14269 0.0
C217 C 0.54639 0.18343 0.10228 0.0
C218 C 0.54993 0.22591 0.10824 0.0
loop_
_geom_bond_atom_site_label_1
_geom_bond_atom_site_label_2
_geom_bond_distance
_geom_bond_site_symmetry_2
_ccdc_geom_bond_type
La0 C2 2.928 . S
La0 O20 2.521 . S
La0 O21 2.628 1_556 S
La0 O22 2.554 . S
La0 O23 2.757 1_655 S
La0 O24 2.470 . S
La0 O29 2.482 1_556 S
La0 O31 2.503 1_655 S
La1 C11 2.928 . S
La1 O23 2.482 1_554 S
La1 O25 2.503 1_455 S
La1 O26 2.521 . S
La1 O27 2.628 1_554 S
La1 O28 2.554 . S
La1 O29 2.757 1_455 S
La1 O30 2.470 . S
C2 La0 2.928 . S
C2 C3 1.503 . S
C2 O20 1.261 . S
C2 O21 1.243 1_556 S
C3 C2 1.503 . S
C3 C4 1.394 . S
C3 C8 1.373 1_556 S
C4 C3 1.394 . S
C4 C5 1.380 . S
C4 H32 0.930 . S
C5 C4 1.380 . S
C5 C6 1.376 . S
C5 H33 0.930 . S
C6 C5 1.376 . S
C6 C7 1.370 1_556 S
C7 C6 1.370 1_554 S
C7 C8 1.396 . S
C7 H34 0.929 . S
C8 C3 1.373 1_554 S
C8 C7 1.396 . S
C8 H35 0.929 . S
C9 O22 1.240 1_455 S
C9 O23 1.289 . S
C10 O24 1.258 . S
C10 O25 1.256 1_556 S
C11 La1 2.928 . S
C11 C12 1.503 . S
C11 O26 1.261 . S
C11 O27 1.243 1_554 S
C12 C11 1.503 . S
C12 C13 1.394 . S
C12 C17 1.373 1_554 S
C13 C12 1.394 . S
C13 C14 1.380 . S
C13 H36 0.930 . S
C14 C13 1.380 . S
C14 C15 1.376 . S
C14 H37 0.930 . S
C15 C14 1.376 . S
C15 C16 1.370 1_554 S
C16 C15 1.370 1_556 S
C16 C17 1.396 . S
C16 H38 0.929 . S
C17 C12 1.373 1_556 S
C17 C16 1.396 . S
C17 H39 0.929 . S
C18 O28 1.245 . S
C18 O29 1.286 1_455 S
C19 O30 1.258 . S
C19 O31 1.256 1_554 S
O20 La0 2.521 . S
O20 C2 1.261 . S
O21 La0 2.628 1_554 S
O21 C2 1.243 1_554 S
O22 La0 2.554 . S
O22 C9 1.240 1_655 S
O23 La0 2.757 1_455 S
O23 La1 2.482 1_556 S
O23 C9 1.289 . S
O24 La0 2.470 . S
O24 C10 1.258 . S
O25 La1 2.503 1_655 S
O25 C10 1.256 1_554 S
O26 La1 2.521 . S
O26 C11 1.261 . S
O27 La1 2.628 1_556 S
O27 C11 1.243 1_556 S
O28 La1 2.554 . S
O28 C18 1.245 . S
O29 La0 2.482 1_554 S
O29 La1 2.757 1_655 S
O29 C18 1.286 1_655 S
O30 La1 2.470 . S
O30 C19 1.258 . S
O31 La0 2.503 1_455 S
O31 C19 1.256 1_556 S
H32 C4 0.930 . S
H33 C5 0.930 . S
H34 C7 0.929 . S
H35 C8 0.929 . S
H36 C13 0.930 . S
H37 C14 0.930 . S
H38 C16 0.929 . S
H39 C17 0.929 . S
La40 C42 2.928 1_554 S
La40 O60 2.521 . S
La40 O61 2.628 1_554 S
La40 O62 2.554 . S
La40 O63 2.757 1_545 S
La40 O64 2.470 . S
La40 O69 2.482 1_554 S
La40 O71 2.503 1_544 S
La41 C51 2.928 1_556 S
La41 O63 2.482 1_556 S
La41 O65 2.503 1_566 S
La41 O66 2.521 . S
La41 O67 2.628 1_556 S
La41 O68 2.554 . S
La41 O69 2.757 1_565 S
La41 O70 2.470 . S
C42 La40 2.928 1_556 S
C42 C43 1.503 . S
C42 O60 1.261 1_556 S
C42 O61 1.243 . S
C43 C42 1.503 . S
C43 C44 1.394 1_556 S
C43 C48 1.373 . S
C44 C43 1.394 1_554 S
C44 C45 1.380 . S
C44 H72 0.930 . S
C45 C44 1.380 . S
C45 C46 1.376 1_554 S
C45 H73 0.930 . S
C46 C45 1.376 1_556 S
C46 C47 1.370 . S
C47 C46 1.370 . S
C47 C48 1.396 . S
C47 H74 0.929 . S
C48 C43 1.373 . S
C48 C47 1.396 . S
C48 H75 0.929 . S
C49 O62 1.240 . S
C49 O63 1.289 1_545 S
C50 O64 1.258 . S
C50 O65 1.256 . S
C51 La41 2.928 1_554 S
C51 C52 1.503 . S
C51 O66 1.261 1_554 S
C51 O67 1.243 . S
C52 C51 1.503 . S
C52 C53 1.394 1_554 S
C52 C57 1.373 . S
C53 C52 1.394 1_556 S
C53 C54 1.380 . S
C53 H76 0.930 . S
C54 C53 1.380 . S
C54 C55 1.376 1_556 S
C54 H77 0.930 . S
C55 C54 1.376 1_554 S
C55 C56 1.370 . S
C56 C55 1.370 . S
C56 C57 1.396 . S
C56 H78 0.929 . S
C57 C52 1.373 . S
C57 C56 1.396 . S
C57 H79 0.929 . S
C58 O68 1.240 . S
C58 O69 1.289 1_565 S
C59 O70 1.258 . S
C59 O71 1.256 . S
O60 La40 2.521 . S
O60 C42 1.261 1_554 S
O61 La40 2.628 1_556 S
O61 C42 1.243 . S
O62 La40 2.554 . S
O62 C49 1.240 . S
O63 La40 2.757 1_565 S
O63 La41 2.482 1_554 S
O63 C49 1.289 1_565 S
O64 La40 2.470 . S
O64 C50 1.258 . S
O65 La41 2.503 1_544 S
O65 C50 1.256 . S
O66 La41 2.521 . S
O66 C51 1.261 1_556 S
O67 La41 2.628 1_554 S
O67 C51 1.243 . S
O68 La41 2.554 . S
O68 C58 1.240 . S
O69 La40 2.482 1_556 S
O69 La41 2.757 1_545 S
O69 C58 1.289 1_545 S
O70 La41 2.470 . S
O70 C59 1.258 . S
O71 La40 2.503 1_566 S
O71 C59 1.256 . S
H72 C44 0.930 . S
H73 C45 0.930 . S
H74 C47 0.929 . S
H75 C48 0.929 . S
H76 C53 0.930 . S
H77 C54 0.930 . S
H78 C56 0.929 . S
H79 C57 0.929 . S
La80 C82 2.928 . S
La80 O100 2.521 . S
La80 O101 2.628 1_554 S
La80 O102 2.554 . S
La80 O103 2.757 . S
La80 O104 2.470 . S
La80 O109 2.482 1_554 S
La80 O111 2.503 . S
La81 C91 2.928 . S
La81 O103 2.482 1_556 S
La81 O105 2.503 . S
La81 O106 2.521 . S
La81 O107 2.628 1_556 S
La81 O108 2.554 . S
La81 O109 2.757 . S
La81 O110 2.470 . S
C82 La80 2.928 . S
C82 C83 1.503 . S
C82 O100 1.261 . S
C82 O101 1.243 1_554 S
C83 C82 1.503 . S
C83 C84 1.394 . S
C83 C88 1.373 1_554 S
C84 C83 1.394 . S
C84 C85 1.380 . S
C84 H112 0.930 . S
C85 C84 1.380 . S
C85 C86 1.376 . S
C85 H113 0.930 . S
C86 C85 1.376 . S
C86 C87 1.370 1_554 S
C87 C86 1.370 1_556 S
C87 C88 1.396 . S
C87 H114 0.929 . S
C88 C83 1.373 1_556 S
C88 C87 1.396 . S
C88 H115 0.929 . S
C89 O102 1.240 . S
C89 O103 1.289 . S
C90 O104 1.258 . S
C90 O105 1.256 1_554 S
C91 La81 2.928 . S
C91 C92 1.503 . S
C91 O106 1.261 . S
C91 O107 1.243 1_556 S
C92 C91 1.503 . S
C92 C93 1.394 . S
C92 C97 1.373 1_556 S
C93 C92 1.394 . S
C93 C94 1.380 . S
C93 H116 0.930 . S
C94 C93 1.380 . S
C94 C95 1.374 1_556 S
C94 H117 0.930 . S
C95 C94 1.374 1_554 S
C95 C96 1.372 . S
C96 C95 1.372 . S
C96 C97 1.396 . S
C96 H118 0.929 . S
C97 C92 1.373 1_554 S
C97 C96 1.396 . S
C97 H119 0.929 . S
C98 O108 1.240 . S
C98 O109 1.289 . S
C99 O110 1.258 . S
C99 O111 1.256 1_556 S
O100 La80 2.521 . S
O100 C82 1.261 . S
O101 La80 2.628 1_556 S
O101 C82 1.243 1_556 S
O102 La80 2.554 . S
O102 C89 1.240 . S
O103 La80 2.757 . S
O103 La81 2.482 1_554 S
O103 C89 1.289 . S
O104 La80 2.470 . S
O104 C90 1.258 . S
O105 La81 2.503 . S
O105 C90 1.256 1_556 S
O106 La81 2.521 . S
O106 C91 1.261 . S
O107 La81 2.628 1_554 S
O107 C91 1.243 1_554 S
O108 La81 2.554 . S
O108 C98 1.240 . S
O109 La80 2.482 1_556 S
O109 La81 2.757 . S
O109 C98 1.289 . S
O110 La81 2.470 . S
O110 C99 1.258 . S
O111 La80 2.503 . S
O111 C99 1.256 1_554 S
H112 C84 0.930 . S
H113 C85 0.930 . S
H114 C87 0.929 . S
H115 C88 0.929 . S
H116 C93 0.930 . S
H117 C94 0.930 . S
H118 C96 0.929 . S
H119 C97 0.929 . S
C120 C121 1.369 1_655 S
C120 C122 1.419 . S
C120 H124 0.930 . S
C121 C120 1.369 1_455 S
C121 C130 1.429 . S
C122 C120 1.419 . S
C122 C123 1.358 1_655 S
C122 H125 0.929 . S
C123 C122 1.358 1_455 S
C123 C129 1.434 . S
H124 C120 0.930 . S
H125 C122 0.929 . S
S126 N127 1.613 . S
S126 N128 1.610 . S
N127 S126 1.613 . S
N127 C130 1.350 . S
N128 S126 1.610 . S
N128 C129 1.351 . S
C129 C123 1.434 . S
C129 N128 1.351 . S
C129 C130 1.434 . S
C130 C121 1.429 . S
C130 N127 1.350 . S
C130 C129 1.434 . S
C131 C132 1.375 . S
C131 C133 1.419 . S
C131 H135 0.930 . S
C132 C131 1.375 . S
C132 C141 1.422 1_545 S
C133 C131 1.419 . S
C133 C134 1.354 1_545 S
C133 H136 0.929 . S
C134 C133 1.354 1_565 S
C134 C140 1.437 . S
H135 C131 0.930 . S
H136 C133 0.929 . S
S137 N138 1.613 . S
S137 N139 1.610 . S
N138 S137 1.613 . S
N138 C141 1.350 . S
N139 S137 1.610 . S
N139 C140 1.351 . S
C140 C134 1.437 . S
C140 N139 1.351 . S
C140 C141 1.434 . S
C141 C132 1.422 1_565 S
C141 N138 1.350 . S
C141 C140 1.434 . S
C142 C143 1.369 . S
C142 C144 1.419 . S
C142 H146 0.930 . S
C143 C142 1.369 . S
C143 C152 1.429 . S
C144 C142 1.419 . S
C144 C145 1.363 . S
C144 H147 0.929 . S
C145 C144 1.363 . S
C145 C151 1.428 . S
H146 C142 0.930 . S
H147 C144 0.929 . S
S148 N149 1.613 . S
S148 N150 1.610 . S
N149 S148 1.613 . S
N149 C152 1.350 . S
N150 S148 1.610 . S
N150 C151 1.351 . S
C151 C145 1.428 . S
C151 N150 1.351 . S
C151 C152 1.434 . S
C152 C143 1.429 . S
C152 N149 1.350 . S
C152 C151 1.434 . S
C153 C154 1.369 . S
C153 C155 1.419 . S
C153 H157 0.930 . S
C154 C153 1.369 . S
C154 C163 1.429 1_556 S
C155 C153 1.419 . S
C155 C156 1.363 . S
C155 H158 0.929 . S
C156 C155 1.363 . S
C156 C162 1.428 1_556 S
H157 C153 0.930 . S
H158 C155 0.929 . S
S159 N160 1.613 . S
S159 N161 1.610 . S
N160 S159 1.613 . S
N160 C163 1.350 . S
N161 S159 1.610 . S
N161 C162 1.351 . S
C162 C156 1.428 1_554 S
C162 N161 1.351 . S
C162 C163 1.434 . S
C163 C154 1.429 1_554 S
C163 N160 1.350 . S
C163 C162 1.434 . S
C164 C165 1.369 . S
C164 C166 1.419 . S
C164 H168 0.930 . S
C165 C164 1.369 . S
C165 C174 1.429 1_556 S
C166 C164 1.419 . S
C166 C167 1.363 . S
C166 H169 0.929 . S
C167 C166 1.363 . S
C167 C173 1.428 1_556 S
H168 C164 0.930 . S
H169 C166 0.929 . S
S170 N171 1.613 . S
S170 N172 1.610 . S
N171 S170 1.613 . S
N171 C174 1.350 . S
N172 S170 1.610 . S
N172 C173 1.351 . S
C173 C167 1.428 1_554 S
C173 N172 1.351 . S
C173 C174 1.434 . S
C174 C165 1.429 1_554 S
C174 N171 1.350 . S
C174 C173 1.434 . S
C175 C176 1.369 1_554 S
C175 C177 1.419 . S
C175 H179 0.930 . S
C176 C175 1.369 1_556 S
C176 C185 1.429 . S
C177 C175 1.419 . S
C177 C178 1.363 1_554 S
C177 H180 0.929 . S
C178 C177 1.363 1_556 S
C178 C184 1.428 . S
H179 C175 0.930 . S
H180 C177 0.929 . S
S181 N182 1.613 . S
S181 N183 1.610 . S
N182 S181 1.613 . S
N182 C185 1.350 . S
N183 S181 1.610 . S
N183 C184 1.351 . S
C184 C178 1.428 . S
C184 N183 1.351 . S
C184 C185 1.434 . S
C185 C176 1.429 . S
C185 N182 1.350 . S
C185 C184 1.434 . S
C186 C187 1.369 . S
C186 C188 1.419 . S
C186 H190 0.930 . S
C187 C186 1.369 . S
C187 C196 1.429 1_554 S
C188 C186 1.419 . S
C188 C189 1.363 . S
C188 H191 0.929 . S
C189 C188 1.363 . S
C189 C195 1.428 1_554 S
H190 C186 0.930 . S
H191 C188 0.929 . S
S192 N193 1.613 . S
S192 N194 1.610 . S
N193 S192 1.613 . S
N193 C196 1.350 . S
N194 S192 1.610 . S
N194 C195 1.351 . S
C195 C189 1.428 1_556 S
C195 N194 1.351 . S
C195 C196 1.434 . S
C196 C187 1.429 1_556 S
C196 N193 1.350 . S
C196 C195 1.434 . S
C197 C198 1.369 1_556 S
C197 C199 1.419 . S
C197 H201 0.930 . S
C198 C197 1.369 1_554 S
C198 C207 1.429 . S
C199 C197 1.419 . S
C199 C200 1.363 1_556 S
C199 H202 0.929 . S
C200 C199 1.363 1_554 S
C200 C206 1.428 . S
H201 C197 0.930 . S
H202 C199 0.929 . S
S203 N204 1.613 . S
S203 N205 1.610 . S
N204 S203 1.613 . S
N204 C207 1.350 . S
N205 S203 1.610 . S
N205 C206 1.351 . S
C206 C200 1.428 . S
C206 N205 1.351 . S
C206 C207 1.434 . S
C207 C198 1.429 . S
C207 N204 1.350 . S
C207 C206 1.434 . S
C208 C209 1.369 1_556 S
C208 C210 1.419 . S
C208 H212 0.930 . S
C209 C208 1.369 1_554 S
C209 C218 1.429 . S
C210 C208 1.419 . S
C210 C211 1.363 1_556 S
C210 H213 0.929 . S
C211 C210 1.363 1_554 S
C211 C217 1.428 . S
H212 C208 0.930 . S
H213 C210 0.929 . S
S214 N215 1.613 . S
S214 N216 1.610 . S
N215 S214 1.613 . S
N215 C218 1.350 . S
N216 S214 1.610 . S
N216 C217 1.351 . S
C217 C211 1.428 . S
C217 N216 1.351 . S
C217 C218 1.434 . S
C218 C209 1.429 . S
C218 N215 1.350 . S
C218 C217 1.434 . S
C121 C9 1.457 . S
C123 C18 1.449 . S
C132 C49 1.450 . S
C134 C58 1.447 . S
C143 C98 1.459 . S
C145 C89 1.452 . S
C154 C19 2.661 1_556 S
C156 C90 2.572 1_556 S
C165 C46 0.949 . S
C167 C6 0.945 . S
C176 C59 2.300 . S
C178 C86 2.199 1_556 S
C187 C10 2.662 1_554 S
C189 C99 2.571 1_554 S
C198 C15 0.947 . S
C200 C55 0.946 . S
C209 C95 2.197 . S
C211 C50 2.302 . S
