# Generated by pormake.
# Topology upb, (4)-cn, num edge types: 1
# Building blocks:
#     Node 0, Type 0, BuildingBlock: NAHDIM_clean_sbu_0, # of connection points: 4
#     Node 1, Type 0, BuildingBlock: NAHDIM_clean_sbu_0, # of connection points: 4
#     Node 2, Type 0, BuildingBlock: NAHDIM_clean_sbu_0, # of connection points: 4
#     Node 3, Type 0, BuildingBlock: NAHDIM_clean_sbu_0, # of connection points: 4
#     Node 4, Type 0, BuildingBlock: NAHDIM_clean_sbu_0, # of connection points: 4
#     Node 5, Type 0, BuildingBlock: NAHDIM_clean_sbu_0, # of connection points: 4
#     Node 6, Type 0, BuildingBlock: NAHDIM_clean_sbu_0, # of connection points: 4
#     Node 7, Type 0, BuildingBlock: NAHDIM_clean_sbu_0, # of connection points: 4
#     Node 8, Type 0, BuildingBlock: NAHDIM_clean_sbu_0, # of connection points: 4
#     Node 9, Type 0, BuildingBlock: NAHDIM_clean_sbu_0, # of connection points: 4
#     Node 10, Type 0, BuildingBlock: NAHDIM_clean_sbu_0, # of connection points: 4
#     Node 11, Type 0, BuildingBlock: NAHDIM_clean_sbu_0, # of connection points: 4
#     Node 12, Type 0, BuildingBlock: NAHDIM_clean_sbu_0, # of connection points: 4
#     Node 13, Type 0, BuildingBlock: NAHDIM_clean_sbu_0, # of connection points: 4
#     Node 14, Type 0, BuildingBlock: NAHDIM_clean_sbu_0, # of connection points: 4
#     Node 15, Type 0, BuildingBlock: NAHDIM_clean_sbu_0, # of connection points: 4
#     Edge 16, Type (0, 0), None
#     Edge 17, Type (0, 0), None
#     Edge 18, Type (0, 0), None
#     Edge 19, Type (0, 0), None
#     Edge 20, Type (0, 0), None
#     Edge 21, Type (0, 0), None
#     Edge 22, Type (0, 0), None
#     Edge 23, Type (0, 0), None
#     Edge 24, Type (0, 0), None
#     Edge 25, Type (0, 0), None
#     Edge 26, Type (0, 0), None
#     Edge 27, Type (0, 0), None
#     Edge 28, Type (0, 0), None
#     Edge 29, Type (0, 0), None
#     Edge 30, Type (0, 0), None
#     Edge 31, Type (0, 0), None
#     Edge 32, Type (0, 0), None
#     Edge 33, Type (0, 0), None
#     Edge 34, Type (0, 0), None
#     Edge 35, Type (0, 0), None
#     Edge 36, Type (0, 0), None
#     Edge 37, Type (0, 0), None
#     Edge 38, Type (0, 0), None
#     Edge 39, Type (0, 0), None
#     Edge 40, Type (0, 0), None
#     Edge 41, Type (0, 0), None
#     Edge 42, Type (0, 0), None
#     Edge 43, Type (0, 0), None
#     Edge 44, Type (0, 0), None
#     Edge 45, Type (0, 0), None
#     Edge 46, Type (0, 0), None
#     Edge 47, Type (0, 0), None
# Relax obj value: 0.221
# Max RMSD: 0.112
# Mean RMSD: 0.112
data_MOF--net-upb--node1-NAHDIM_clean_sbu_0--edge1-none
_symmetry_space_group_name_H-M    P1
_symmetry_Int_Tables_number       1
_symmetry_cell_setting            triclinic
loop_
_symmetry_equiv_pos_as_xyz
'x, y, z'
_cell_length_a     18.306374
_cell_length_b     18.306136
_cell_length_c     20.533543
_cell_angle_alpha  90.00003
_cell_angle_beta   89.999974
_cell_angle_gamma 90.000005
loop_
_atom_site_label
_atom_site_type_symbol
_atom_site_fract_x
_atom_site_fract_y
_atom_site_fract_z
_atom_type_partial_charge
C0 C 0.06001 0.38988 0.27473 0.0
O1 O 0.07953 0.40453 0.33483 0.0
O2 O 0.95559 0.31307 0.41934 0.0
Zn3 Zn 0.98175 0.26732 0.33279 0.0
O4 O 0.05925 0.19227 0.35226 0.0
C5 C 0.87153 0.16081 0.33659 0.0
O6 O 0.90389 0.14955 0.3928 0.0
O7 O 0.0173 0.33676 0.26347 0.0
C8 C 0.11222 0.1741 0.31578 0.0
O9 O 0.12103 0.20581 0.25897 0.0
C10 C 0.0042 0.32046 0.46313 0.0
O11 O 0.07302 0.30897 0.44826 0.0
O12 O 0.89437 0.21167 0.29978 0.0
C13 C 0.59657 0.06001 0.27473 0.0
O14 O 0.5819 0.07953 0.33483 0.0
O15 O 0.67337 0.95559 0.41933 0.0
Zn16 Zn 0.71912 0.98175 0.33278 0.0
O17 O 0.79417 0.05926 0.35226 0.0
C18 C 0.82563 0.87154 0.33659 0.0
O19 O 0.83689 0.90389 0.3928 0.0
O20 O 0.64968 0.01731 0.26346 0.0
C21 C 0.81234 0.11223 0.31578 0.0
O22 O 0.78063 0.12104 0.25897 0.0
C23 C 0.66598 0.00421 0.46312 0.0
O24 O 0.67747 0.07303 0.44826 0.0
O25 O 0.77478 0.89437 0.29978 0.0
C26 C 0.92643 0.59657 0.27473 0.0
O27 O 0.90689 0.58192 0.33483 0.0
O28 O 0.03085 0.67338 0.41934 0.0
Zn29 Zn 0.00469 0.71912 0.33279 0.0
O30 O 0.92718 0.79417 0.35226 0.0
C31 C 0.1149 0.82564 0.33659 0.0
O32 O 0.08254 0.83689 0.3928 0.0
O33 O 0.96914 0.64968 0.26347 0.0
C34 C 0.87421 0.81235 0.31578 0.0
O35 O 0.86541 0.78063 0.25897 0.0
C36 C 0.98223 0.66598 0.46313 0.0
O37 O 0.91342 0.67747 0.44826 0.0
O38 O 0.09206 0.77478 0.29978 0.0
C39 C 0.38987 0.92644 0.27473 0.0
O40 O 0.40453 0.90691 0.33483 0.0
O41 O 0.31306 0.03085 0.41933 0.0
Zn42 Zn 0.26731 0.00469 0.33278 0.0
O43 O 0.19226 0.92718 0.35226 0.0
C44 C 0.1608 0.1149 0.33658 0.0
O45 O 0.14954 0.08255 0.3928 0.0
O46 O 0.33675 0.96914 0.26346 0.0
C47 C 0.17409 0.87422 0.31578 0.0
O48 O 0.2058 0.86541 0.25897 0.0
C49 C 0.32045 0.98224 0.46312 0.0
O50 O 0.30897 0.91342 0.44826 0.0
O51 O 0.21166 0.09207 0.29978 0.0
C52 C 0.06002 0.59654 0.72023 0.0
O53 O 0.07948 0.58182 0.66013 0.0
O54 O 0.95565 0.67337 0.57563 0.0
Zn55 Zn 0.9818 0.71912 0.66217 0.0
O56 O 0.05928 0.7942 0.6427 0.0
C57 C 0.87156 0.82562 0.65837 0.0
O58 O 0.90392 0.83688 0.60216 0.0
O59 O 0.01737 0.6497 0.7315 0.0
C60 C 0.11225 0.81237 0.67917 0.0
O61 O 0.12107 0.78065 0.73598 0.0
C62 C 0.00428 0.66597 0.53185 0.0
O63 O 0.0731 0.67745 0.5467 0.0
O64 O 0.8944 0.77476 0.69518 0.0
C65 C 0.3899 0.06003 0.72023 0.0
O66 O 0.40462 0.07949 0.66013 0.0
O67 O 0.31307 0.95566 0.57562 0.0
Zn68 Zn 0.26732 0.9818 0.66217 0.0
O69 O 0.19225 0.05929 0.6427 0.0
C70 C 0.16082 0.87158 0.65837 0.0
O71 O 0.14955 0.90393 0.60216 0.0
O72 O 0.33674 0.01737 0.73149 0.0
C73 C 0.17407 0.11226 0.67917 0.0
O74 O 0.20579 0.12108 0.73598 0.0
C75 C 0.32047 0.00428 0.53184 0.0
O76 O 0.30899 0.07311 0.54669 0.0
O77 O 0.21168 0.89441 0.69517 0.0
C78 C 0.92641 0.3899 0.72023 0.0
O79 O 0.90695 0.40462 0.66013 0.0
O80 O 0.03078 0.31308 0.57562 0.0
Zn81 Zn 0.00464 0.26732 0.66217 0.0
O82 O 0.92715 0.19225 0.6427 0.0
C83 C 0.11487 0.16083 0.65837 0.0
O84 O 0.08251 0.14956 0.60216 0.0
O85 O 0.96907 0.33675 0.7315 0.0
C86 C 0.87418 0.17408 0.67917 0.0
O87 O 0.86536 0.2058 0.73598 0.0
C88 C 0.98216 0.32047 0.53184 0.0
O89 O 0.91333 0.309 0.5467 0.0
O90 O 0.09203 0.21168 0.69518 0.0
C91 C 0.59654 0.92642 0.72023 0.0
O92 O 0.58182 0.90695 0.66013 0.0
O93 O 0.67336 0.03079 0.57562 0.0
Zn94 Zn 0.71912 0.00464 0.66217 0.0
O95 O 0.79418 0.92715 0.6427 0.0
C96 C 0.82561 0.11487 0.65837 0.0
O97 O 0.83688 0.08251 0.60216 0.0
O98 O 0.64969 0.96908 0.73149 0.0
C99 C 0.81236 0.87418 0.67917 0.0
O100 O 0.78064 0.86537 0.73598 0.0
C101 C 0.66597 0.98216 0.53184 0.0
O102 O 0.67744 0.91334 0.54669 0.0
O103 O 0.77476 0.09203 0.69517 0.0
C104 C 0.56 0.88988 0.77473 0.0
O105 O 0.57952 0.90455 0.83483 0.0
O106 O 0.45559 0.81307 0.91933 0.0
Zn107 Zn 0.48174 0.76732 0.83278 0.0
O108 O 0.55925 0.69226 0.85225 0.0
C109 C 0.37153 0.66081 0.83658 0.0
O110 O 0.40389 0.64955 0.89279 0.0
O111 O 0.5173 0.83676 0.76347 0.0
C112 C 0.61222 0.6741 0.81578 0.0
O113 O 0.62103 0.70582 0.75898 0.0
C114 C 0.5042 0.82046 0.96312 0.0
O115 O 0.57302 0.80897 0.94826 0.0
O116 O 0.39436 0.71166 0.79978 0.0
C117 C 0.09656 0.56001 0.77474 0.0
O118 O 0.0819 0.57954 0.83483 0.0
O119 O 0.17337 0.45559 0.91934 0.0
Zn120 Zn 0.21912 0.48175 0.83279 0.0
O121 O 0.29417 0.55926 0.85225 0.0
C122 C 0.32563 0.37154 0.83658 0.0
O123 O 0.33689 0.4039 0.89279 0.0
O124 O 0.14968 0.5173 0.76347 0.0
C125 C 0.31234 0.61223 0.81578 0.0
O126 O 0.28062 0.62104 0.75897 0.0
C127 C 0.16598 0.50421 0.96313 0.0
O128 O 0.17747 0.57302 0.94826 0.0
O129 O 0.27477 0.39437 0.79978 0.0
C130 C 0.42643 0.09657 0.77474 0.0
O131 O 0.4069 0.0819 0.83483 0.0
O132 O 0.53085 0.17338 0.91933 0.0
Zn133 Zn 0.50469 0.21912 0.83278 0.0
O134 O 0.42718 0.29418 0.85225 0.0
C135 C 0.6149 0.32564 0.83658 0.0
O136 O 0.58254 0.33689 0.8928 0.0
O137 O 0.46913 0.14969 0.76347 0.0
C138 C 0.37421 0.31235 0.81578 0.0
O139 O 0.3654 0.28063 0.75897 0.0
C140 C 0.48223 0.16599 0.96312 0.0
O141 O 0.41342 0.17747 0.94826 0.0
O142 O 0.59207 0.27478 0.79978 0.0
C143 C 0.88987 0.42644 0.77474 0.0
O144 O 0.90453 0.40691 0.83483 0.0
O145 O 0.81306 0.53085 0.91934 0.0
Zn146 Zn 0.76732 0.50469 0.83279 0.0
O147 O 0.69226 0.42719 0.85226 0.0
C148 C 0.6608 0.6149 0.83658 0.0
O149 O 0.64954 0.58254 0.89279 0.0
O150 O 0.83676 0.46914 0.76347 0.0
C151 C 0.67409 0.37422 0.81578 0.0
O152 O 0.70581 0.36541 0.75897 0.0
C153 C 0.82045 0.48224 0.96313 0.0
O154 O 0.80897 0.41342 0.94826 0.0
O155 O 0.71166 0.59207 0.79978 0.0
C156 C 0.56002 0.09654 0.22022 0.0
O157 O 0.57949 0.08182 0.16013 0.0
O158 O 0.45565 0.17337 0.07562 0.0
Zn159 Zn 0.48179 0.21912 0.16217 0.0
O160 O 0.55928 0.29419 0.1427 0.0
C161 C 0.37156 0.32562 0.15837 0.0
O162 O 0.40392 0.33688 0.10216 0.0
O163 O 0.51736 0.1497 0.23149 0.0
C164 C 0.61225 0.31237 0.17917 0.0
O165 O 0.62107 0.28064 0.23598 0.0
C166 C 0.50428 0.16597 0.03184 0.0
O167 O 0.5731 0.17745 0.04669 0.0
O168 O 0.3944 0.27476 0.19518 0.0
C169 C 0.8899 0.56002 0.22023 0.0
O170 O 0.90463 0.57948 0.16013 0.0
O171 O 0.81307 0.45566 0.07562 0.0
Zn172 Zn 0.76731 0.4818 0.16217 0.0
O173 O 0.69224 0.55929 0.1427 0.0
C174 C 0.66082 0.37157 0.15837 0.0
O175 O 0.64955 0.40393 0.10217 0.0
O176 O 0.83674 0.51737 0.23149 0.0
C177 C 0.67407 0.61226 0.17917 0.0
O178 O 0.70579 0.62108 0.23598 0.0
C179 C 0.82047 0.50428 0.03185 0.0
O180 O 0.80899 0.57311 0.0467 0.0
O181 O 0.71168 0.39441 0.19518 0.0
C182 C 0.42641 0.88991 0.22022 0.0
O183 O 0.40694 0.90463 0.16013 0.0
O184 O 0.53078 0.81307 0.07562 0.0
Zn185 Zn 0.50464 0.76732 0.16217 0.0
O186 O 0.42715 0.69225 0.1427 0.0
C187 C 0.61486 0.66083 0.15837 0.0
O188 O 0.58251 0.64956 0.10216 0.0
O189 O 0.46907 0.83675 0.23149 0.0
C190 C 0.37418 0.67408 0.17917 0.0
O191 O 0.36536 0.7058 0.23598 0.0
C192 C 0.48216 0.82047 0.03184 0.0
O193 O 0.41334 0.809 0.04669 0.0
O194 O 0.59203 0.71169 0.19517 0.0
C195 C 0.09654 0.42642 0.22023 0.0
O196 O 0.08181 0.40696 0.16013 0.0
O197 O 0.17337 0.53079 0.07562 0.0
Zn198 Zn 0.21912 0.50465 0.16217 0.0
O199 O 0.29419 0.42715 0.1427 0.0
C200 C 0.32562 0.61487 0.15837 0.0
O201 O 0.33688 0.58251 0.10216 0.0
O202 O 0.14969 0.46907 0.23149 0.0
C203 C 0.31236 0.37418 0.17917 0.0
O204 O 0.28064 0.36536 0.23598 0.0
C205 C 0.16597 0.48216 0.03184 0.0
O206 O 0.17745 0.41334 0.0467 0.0
O207 O 0.27476 0.59204 0.19518 0.0
loop_
_geom_bond_atom_site_label_1
_geom_bond_atom_site_label_2
_geom_bond_distance
_geom_bond_site_symmetry_2
_ccdc_geom_bond_type
C0 O1 1.160 . S
C0 O7 1.185 . S
O1 C0 1.160 . S
O2 Zn3 1.899 1_655 S
O2 C10 1.284 1_655 S
Zn3 O2 1.899 1_455 S
Zn3 O4 2.032 . S
Zn3 O7 2.086 . S
Zn3 O12 1.977 1_455 S
O4 Zn3 2.032 . S
O4 C8 1.278 . S
C5 O6 1.203 . S
C5 O12 1.267 . S
O6 C5 1.203 . S
O7 C0 1.185 . S
O7 Zn3 2.086 . S
C8 O4 1.278 . S
C8 O9 1.211 . S
O9 C8 1.211 . S
C10 O2 1.284 1_455 S
C10 O11 1.273 . S
O11 C10 1.273 . S
O12 Zn3 1.977 1_655 S
O12 C5 1.267 . S
C13 O14 1.160 . S
C13 O20 1.185 . S
O14 C13 1.160 . S
O15 Zn16 1.899 1_565 S
O15 C23 1.284 1_565 S
Zn16 O15 1.899 1_545 S
Zn16 O17 2.032 . S
Zn16 O20 2.086 . S
Zn16 O25 1.977 1_545 S
O17 Zn16 2.032 . S
O17 C21 1.278 . S
C18 O19 1.203 . S
C18 O25 1.267 . S
O19 C18 1.203 . S
O20 C13 1.185 . S
O20 Zn16 2.086 . S
C21 O17 1.278 . S
C21 O22 1.211 . S
O22 C21 1.211 . S
C23 O15 1.284 1_545 S
C23 O24 1.273 . S
O24 C23 1.273 . S
O25 Zn16 1.977 1_565 S
O25 C18 1.267 . S
C26 O27 1.160 . S
C26 O33 1.185 . S
O27 C26 1.160 . S
O28 Zn29 1.899 1_455 S
O28 C36 1.284 1_455 S
Zn29 O28 1.899 1_655 S
Zn29 O30 2.032 . S
Zn29 O33 2.086 . S
Zn29 O38 1.977 1_655 S
O30 Zn29 2.032 . S
O30 C34 1.278 . S
C31 O32 1.203 . S
C31 O38 1.267 . S
O32 C31 1.203 . S
O33 C26 1.185 . S
O33 Zn29 2.086 . S
C34 O30 1.278 . S
C34 O35 1.211 . S
O35 C34 1.211 . S
C36 O28 1.284 1_655 S
C36 O37 1.273 . S
O37 C36 1.273 . S
O38 Zn29 1.977 1_455 S
O38 C31 1.267 . S
C39 O40 1.160 . S
C39 O46 1.185 . S
O40 C39 1.160 . S
O41 Zn42 1.899 1_545 S
O41 C49 1.284 1_545 S
Zn42 O41 1.899 1_565 S
Zn42 O43 2.032 . S
Zn42 O46 2.086 . S
Zn42 O51 1.977 1_565 S
O43 Zn42 2.032 . S
O43 C47 1.278 . S
C44 O45 1.203 . S
C44 O51 1.267 . S
O45 C44 1.203 . S
O46 C39 1.185 . S
O46 Zn42 2.086 . S
C47 O43 1.278 . S
C47 O48 1.211 . S
O48 C47 1.211 . S
C49 O41 1.284 1_565 S
C49 O50 1.273 . S
O50 C49 1.273 . S
O51 Zn42 1.977 1_545 S
O51 C44 1.267 . S
C52 O53 1.160 . S
C52 O59 1.185 . S
O53 C52 1.160 . S
O54 Zn55 1.899 1_655 S
O54 C62 1.284 1_655 S
Zn55 O54 1.899 1_455 S
Zn55 O56 2.032 . S
Zn55 O59 2.086 . S
Zn55 O64 1.977 1_455 S
O56 Zn55 2.032 . S
O56 C60 1.278 . S
C57 O58 1.203 . S
C57 O64 1.267 . S
O58 C57 1.203 . S
O59 C52 1.185 . S
O59 Zn55 2.086 . S
C60 O56 1.278 . S
C60 O61 1.211 . S
O61 C60 1.211 . S
C62 O54 1.284 1_455 S
C62 O63 1.273 . S
O63 C62 1.273 . S
O64 Zn55 1.977 1_655 S
O64 C57 1.267 . S
C65 O66 1.160 . S
C65 O72 1.185 . S
O66 C65 1.160 . S
O67 Zn68 1.899 1_565 S
O67 C75 1.284 1_565 S
Zn68 O67 1.899 1_545 S
Zn68 O69 2.032 . S
Zn68 O72 2.086 . S
Zn68 O77 1.977 1_545 S
O69 Zn68 2.032 . S
O69 C73 1.278 . S
C70 O71 1.203 . S
C70 O77 1.267 . S
O71 C70 1.203 . S
O72 C65 1.185 . S
O72 Zn68 2.086 . S
C73 O69 1.278 . S
C73 O74 1.211 . S
O74 C73 1.211 . S
C75 O67 1.284 1_545 S
C75 O76 1.273 . S
O76 C75 1.273 . S
O77 Zn68 1.977 1_565 S
O77 C70 1.267 . S
C78 O79 1.160 . S
C78 O85 1.185 . S
O79 C78 1.160 . S
O80 Zn81 1.899 1_455 S
O80 C88 1.284 1_455 S
Zn81 O80 1.899 1_655 S
Zn81 O82 2.032 . S
Zn81 O85 2.086 . S
Zn81 O90 1.977 1_655 S
O82 Zn81 2.032 . S
O82 C86 1.278 . S
C83 O84 1.203 . S
C83 O90 1.267 . S
O84 C83 1.203 . S
O85 C78 1.185 . S
O85 Zn81 2.086 . S
C86 O82 1.278 . S
C86 O87 1.211 . S
O87 C86 1.211 . S
C88 O80 1.284 1_655 S
C88 O89 1.273 . S
O89 C88 1.273 . S
O90 Zn81 1.977 1_455 S
O90 C83 1.267 . S
C91 O92 1.160 . S
C91 O98 1.185 . S
O92 C91 1.160 . S
O93 Zn94 1.899 1_545 S
O93 C101 1.284 1_545 S
Zn94 O93 1.899 1_565 S
Zn94 O95 2.032 . S
Zn94 O98 2.086 . S
Zn94 O103 1.977 1_565 S
O95 Zn94 2.032 . S
O95 C99 1.278 . S
C96 O97 1.203 . S
C96 O103 1.267 . S
O97 C96 1.203 . S
O98 C91 1.185 . S
O98 Zn94 2.086 . S
C99 O95 1.278 . S
C99 O100 1.211 . S
O100 C99 1.211 . S
C101 O93 1.284 1_565 S
C101 O102 1.273 . S
O102 C101 1.273 . S
O103 Zn94 1.977 1_545 S
O103 C96 1.267 . S
C104 O105 1.160 . S
C104 O111 1.185 . S
O105 C104 1.160 . S
O106 Zn107 1.899 . S
O106 C114 1.284 . S
Zn107 O106 1.899 . S
Zn107 O108 2.032 . S
Zn107 O111 2.086 . S
Zn107 O116 1.977 . S
O108 Zn107 2.032 . S
O108 C112 1.278 . S
C109 O110 1.203 . S
C109 O116 1.267 . S
O110 C109 1.203 . S
O111 C104 1.185 . S
O111 Zn107 2.086 . S
C112 O108 1.278 . S
C112 O113 1.211 . S
O113 C112 1.211 . S
C114 O106 1.284 . S
C114 O115 1.273 . S
O115 C114 1.273 . S
O116 Zn107 1.977 . S
O116 C109 1.267 . S
C117 O118 1.160 . S
C117 O124 1.185 . S
O118 C117 1.160 . S
O119 Zn120 1.899 . S
O119 C127 1.284 . S
Zn120 O119 1.899 . S
Zn120 O121 2.032 . S
Zn120 O124 2.086 . S
Zn120 O129 1.977 . S
O121 Zn120 2.032 . S
O121 C125 1.278 . S
C122 O123 1.203 . S
C122 O129 1.267 . S
O123 C122 1.203 . S
O124 C117 1.185 . S
O124 Zn120 2.086 . S
C125 O121 1.278 . S
C125 O126 1.211 . S
O126 C125 1.211 . S
C127 O119 1.284 . S
C127 O128 1.273 . S
O128 C127 1.273 . S
O129 Zn120 1.977 . S
O129 C122 1.267 . S
C130 O131 1.160 . S
C130 O137 1.185 . S
O131 C130 1.160 . S
O132 Zn133 1.899 . S
O132 C140 1.284 . S
Zn133 O132 1.899 . S
Zn133 O134 2.032 . S
Zn133 O137 2.086 . S
Zn133 O142 1.977 . S
O134 Zn133 2.032 . S
O134 C138 1.278 . S
C135 O136 1.203 . S
C135 O142 1.267 . S
O136 C135 1.203 . S
O137 C130 1.185 . S
O137 Zn133 2.086 . S
C138 O134 1.278 . S
C138 O139 1.211 . S
O139 C138 1.211 . S
C140 O132 1.284 . S
C140 O141 1.273 . S
O141 C140 1.273 . S
O142 Zn133 1.977 . S
O142 C135 1.267 . S
C143 O144 1.160 . S
C143 O150 1.185 . S
O144 C143 1.160 . S
O145 Zn146 1.899 . S
O145 C153 1.284 . S
Zn146 O145 1.899 . S
Zn146 O147 2.032 . S
Zn146 O150 2.086 . S
Zn146 O155 1.977 . S
O147 Zn146 2.032 . S
O147 C151 1.278 . S
C148 O149 1.203 . S
C148 O155 1.267 . S
O149 C148 1.203 . S
O150 C143 1.185 . S
O150 Zn146 2.086 . S
C151 O147 1.278 . S
C151 O152 1.211 . S
O152 C151 1.211 . S
C153 O145 1.284 . S
C153 O154 1.273 . S
O154 C153 1.273 . S
O155 Zn146 1.977 . S
O155 C148 1.267 . S
C156 O157 1.160 . S
C156 O163 1.185 . S
O157 C156 1.160 . S
O158 Zn159 1.899 . S
O158 C166 1.284 . S
Zn159 O158 1.899 . S
Zn159 O160 2.032 . S
Zn159 O163 2.086 . S
Zn159 O168 1.977 . S
O160 Zn159 2.032 . S
O160 C164 1.278 . S
C161 O162 1.203 . S
C161 O168 1.267 . S
O162 C161 1.203 . S
O163 C156 1.185 . S
O163 Zn159 2.086 . S
C164 O160 1.278 . S
C164 O165 1.211 . S
O165 C164 1.211 . S
C166 O158 1.284 . S
C166 O167 1.273 . S
O167 C166 1.273 . S
O168 Zn159 1.977 . S
O168 C161 1.267 . S
C169 O170 1.160 . S
C169 O176 1.185 . S
O170 C169 1.160 . S
O171 Zn172 1.899 . S
O171 C179 1.284 . S
Zn172 O171 1.899 . S
Zn172 O173 2.032 . S
Zn172 O176 2.086 . S
Zn172 O181 1.977 . S
O173 Zn172 2.032 . S
O173 C177 1.278 . S
C174 O175 1.203 . S
C174 O181 1.267 . S
O175 C174 1.203 . S
O176 C169 1.185 . S
O176 Zn172 2.086 . S
C177 O173 1.278 . S
C177 O178 1.211 . S
O178 C177 1.211 . S
C179 O171 1.284 . S
C179 O180 1.273 . S
O180 C179 1.273 . S
O181 Zn172 1.977 . S
O181 C174 1.267 . S
C182 O183 1.160 . S
C182 O189 1.185 . S
O183 C182 1.160 . S
O184 Zn185 1.899 . S
O184 C192 1.284 . S
Zn185 O184 1.899 . S
Zn185 O186 2.032 . S
Zn185 O189 2.086 . S
Zn185 O194 1.977 . S
O186 Zn185 2.032 . S
O186 C190 1.278 . S
C187 O188 1.203 . S
C187 O194 1.267 . S
O188 C187 1.203 . S
O189 C182 1.185 . S
O189 Zn185 2.086 . S
C190 O186 1.278 . S
C190 O191 1.211 . S
O191 C190 1.211 . S
C192 O184 1.284 . S
C192 O193 1.273 . S
O193 C192 1.273 . S
O194 Zn185 1.977 . S
O194 C187 1.267 . S
C195 O196 1.160 . S
C195 O202 1.185 . S
O196 C195 1.160 . S
O197 Zn198 1.899 . S
O197 C205 1.284 . S
Zn198 O197 1.899 . S
Zn198 O199 2.032 . S
Zn198 O202 2.086 . S
Zn198 O207 1.977 . S
O199 Zn198 2.032 . S
O199 C203 1.278 . S
C200 O201 1.203 . S
C200 O207 1.267 . S
O201 C200 1.203 . S
O202 C195 1.185 . S
O202 Zn198 2.086 . S
C203 O199 1.278 . S
C203 O204 1.211 . S
O204 C203 1.211 . S
C205 O197 1.284 . S
C205 O206 1.273 . S
O206 C205 1.273 . S
O207 Zn198 1.977 . S
O207 C200 1.267 . S
C8 C44 1.558 . S
C5 C21 1.558 . S
C18 C34 1.558 . S
C31 C47 1.558 . S
C60 C70 1.558 . S
C73 C83 1.558 . S
C86 C96 1.558 . S
C99 C57 1.558 . S
C112 C148 1.558 . S
C109 C125 1.558 . S
C122 C138 1.558 . S
C151 C135 1.558 . S
C174 C164 1.558 . S
C187 C177 1.558 . S
C190 C200 1.558 . S
C203 C161 1.558 . S
C0 C195 1.217 . S
C13 C156 1.217 . S
C169 C26 1.217 . S
C39 C182 1.217 . S
C117 C52 1.217 . S
C130 C65 1.217 . S
C78 C143 1.217 . S
C91 C104 1.217 . S
C10 C88 1.373 1_455 S
C101 C23 1.373 1_565 S
C62 C36 1.373 1_455 S
C75 C49 1.373 1_545 S
C114 C192 1.373 1_556 S
C127 C205 1.373 1_556 S
C166 C140 1.373 1_554 S
C153 C179 1.373 1_556 S
