# Generated by pormake.
# Topology pcu, (6)-cn, num edge types: 1
# Building blocks:
#     Node 0, Type 0, BuildingBlock: KUMBUR_clean_sbu_1, # of connection points: 6
#     Edge 1, Type (0, 0), None
#     Edge 2, Type (0, 0), None
#     Edge 3, Type (0, 0), None
# Relax obj value: 0.000
# Max RMSD: 0.000
# Mean RMSD: 0.000
data_MOF--net-pcu--node1-KUMBUR_clean_sbu_1--edge1-none
_symmetry_space_group_name_H-M    P1
_symmetry_Int_Tables_number       1
_symmetry_cell_setting            triclinic
loop_
_symmetry_equiv_pos_as_xyz
'x, y, z'
_cell_length_a     7.3261181
_cell_length_b     17.184004
_cell_length_c     6.7933504
_cell_angle_alpha  107.81154
_cell_angle_beta   93.449538
_cell_angle_gamma 104.4581
loop_
_atom_site_label
_atom_site_type_symbol
_atom_site_fract_x
_atom_site_fract_y
_atom_site_fract_z
_atom_type_partial_charge
Tb0 Tb 0.90222 0.84743 0.88937 0.0
C1 C 0.3292 0.21687 0.22232 0.0
N2 N 0.19784 0.16552 0.29239 0.0
C3 C 0.23664 0.2756 0.6168 0.0
C4 C 0.39279 0.30321 0.33401 0.0
C5 C 0.14917 0.19305 0.48618 0.0
C6 C 0.35728 0.33144 0.54003 0.0
C7 C 0.48749 0.24039 0.93384 0.0
C8 C 0.37278 0.18588 0.02176 0.0
C9 C 0.51968 0.32794 0.03115 0.0
C10 C 0.45985 0.35777 0.22375 0.0
Tb11 Tb 0.00107 0.06427 0.02729 0.0
N12 N 0.28085 0.10507 0.90333 0.0
C13 C 0.53842 0.20508 0.73725 0.0
C14 C 0.33806 0.06895 0.716 0.0
C15 C 0.47376 0.11789 0.63487 0.0
H16 H 0.03209 0.15498 0.53246 0.0
H17 H 0.51607 0.08959 0.48558 0.0
H18 H 0.87308 0.75474 0.38729 0.0
H19 H 0.38888 0.82969 0.43525 0.0
H20 H 0.28872 0.00234 0.63045 0.0
H21 H 0.61648 0.24383 0.65556 0.0
H22 H 0.62795 0.91332 0.2956 0.0
H23 H 0.20634 0.2973 0.77298 0.0
H24 H 0.57398 0.37224 0.95224 0.0
H25 H 0.46195 0.42278 0.28552 0.0
H26 H 0.65973 0.62235 0.12881 0.0
H27 H 0.41837 0.39539 0.64257 0.0
H28 H 0.26252 0.67746 0.2523 0.0
N29 N 0.70015 0.74954 0.6227 0.0
C30 C 0.55612 0.70227 0.68804 0.0
C31 C 0.63736 0.64315 0.28799 0.0
C32 C 0.46583 0.61918 0.56341 0.0
C33 C 0.74539 0.72124 0.42752 0.0
C34 C 0.49716 0.59149 0.35618 0.0
N35 N 0.62233 0.81093 0.01603 0.0
C36 C 0.57021 0.8476 0.20601 0.0
C37 C 0.38995 0.67995 -0.02716 0.0
C38 C 0.51854 0.73262 0.89176 0.0
C39 C 0.34632 0.71543 0.17319 0.0
C40 C 0.42666 0.80114 0.28353 0.0
H41 H 0.41428 0.53142 0.24638 0.0
H42 H 0.36528 0.4985 0.58609 0.0
H43 H 0.27074 0.54681 0.93523 0.0
O44 O 0.92073 0.76495 0.06254 0.0
O45 O 0.62396 0.89081 0.84331 0.0
O46 O 0.69913 0.02261 0.08187 0.0
O47 O 0.0131 0.74439 0.76635 0.0
O48 O 0.03968 0.90932 0.21571 0.0
O49 O 0.91591 0.01888 0.29357 0.0
O50 O -0.01689 0.15279 0.86874 0.0
O51 O 0.2817 0.02284 0.07204 0.0
O52 O 0.20624 0.88901 0.83899 0.0
O53 O 0.86314 0.15749 0.14589 0.0
O54 O 0.87126 0.00109 0.69872 0.0
O55 O -0.00131 0.89251 0.62554 0.0
C56 C 0.56371 -0.04258 0.95622 0.0
C57 C 0.91315 0.62078 0.86543 0.0
C58 C 0.89813 0.48293 0.92377 0.0
C59 C 0.7971 0.44221 0.72256 0.0
C60 C 0.84407 0.5749 0.65833 0.0
C61 C 0.77329 0.48871 0.59434 0.0
C62 C 0.93583 0.57388 0.00215 0.0
C63 C -0.02547 -0.0379 0.35347 0.0
C64 C -0.01193 0.71511 0.9207 0.0
C65 C 0.37778 0.56348 0.66067 0.0
C66 C 0.33393 0.59249 0.86237 0.0
C67 C 0.34158 0.95567 0.96102 0.0
C68 C -0.05118 0.28882 0.08136 0.0
C69 C -0.03848 0.42986 0.04292 0.0
C70 C 0.03791 0.46714 0.2541 0.0
C71 C -0.018 0.32932 0.29499 0.0
C72 C 0.9385 0.33996 0.95321 0.0
C73 C 0.04646 0.41595 0.37606 0.0
C74 C -0.05878 0.94925 0.56393 0.0
C75 C 0.89434 0.19365 0.00467 0.0
H76 H 0.75394 0.37425 0.65126 0.0
H77 H 0.85262 0.60449 0.54016 0.0
H78 H 0.7379 0.45826 0.43233 0.0
H79 H -0.01962 0.60806 0.16549 0.0
H80 H 0.07455 0.53489 0.3325 0.0
H81 H -0.04128 0.29467 0.40313 0.0
H82 H 0.90809 0.30897 0.787 0.0
H83 H 0.07966 0.44211 0.54193 0.0
loop_
_geom_bond_atom_site_label_1
_geom_bond_atom_site_label_2
_geom_bond_distance
_geom_bond_site_symmetry_2
_ccdc_geom_bond_type
Tb0 N29 2.617 . S
Tb0 N35 2.572 . S
Tb0 O44 2.465 . S
Tb0 O45 2.387 . S
Tb0 O47 2.428 . S
Tb0 O48 2.308 1_556 S
Tb0 O52 2.349 1_655 S
Tb0 O55 2.393 . S
Tb0 C64 2.802 . S
C1 N2 1.379 . S
C1 C4 1.416 . S
C1 C8 1.424 . S
N2 C1 1.379 . S
N2 C5 1.334 . S
N2 Tb11 2.617 . S
C3 C5 1.390 . S
C3 C6 1.339 . S
C3 H23 0.930 1_556 S
C4 C1 1.416 . S
C4 C6 1.416 . S
C4 C10 1.448 1_655 S
C5 N2 1.334 . S
C5 C3 1.390 . S
C5 H16 0.930 . S
C6 C3 1.339 . S
C6 C4 1.416 . S
C6 H27 0.930 1_556 S
C7 C8 1.413 . S
C7 C9 1.427 1_655 S
C7 C13 1.416 . S
C8 C1 1.424 . S
C8 C7 1.413 . S
C8 N12 1.361 . S
C9 C7 1.427 1_455 S
C9 C10 1.328 . S
C9 H24 0.929 . S
C10 C4 1.448 1_455 S
C10 C9 1.328 . S
C10 H25 0.930 . S
Tb11 N2 2.617 . S
Tb11 N12 2.572 . S
Tb11 O46 2.349 1_455 S
Tb11 O49 2.393 . S
Tb11 O50 2.465 . S
Tb11 O51 2.387 . S
Tb11 O53 2.428 . S
Tb11 O54 2.308 1_554 S
Tb11 C75 2.802 . S
N12 C8 1.361 . S
N12 Tb11 2.572 . S
N12 C14 1.340 1_554 S
C13 C7 1.416 . S
C13 C15 1.332 1_554 S
C13 H21 0.931 1_654 S
C14 N12 1.340 1_556 S
C14 C15 1.407 . S
C14 H20 0.930 . S
C15 C13 1.332 1_556 S
C15 C14 1.407 . S
C15 H17 0.929 . S
H16 C5 0.930 . S
H17 C15 0.929 . S
H18 C33 0.930 . S
H19 C40 0.929 . S
H20 C14 0.930 . S
H21 C13 0.931 1_456 S
H22 C36 0.930 . S
H23 C3 0.930 1_554 S
H24 C9 0.929 . S
H25 C10 0.930 . S
H26 C31 0.930 1_556 S
H27 C6 0.930 1_554 S
H28 C39 0.931 1_654 S
N29 Tb0 2.617 . S
N29 C30 1.379 . S
N29 C33 1.334 . S
C30 N29 1.379 . S
C30 C32 1.416 . S
C30 C38 1.424 . S
C31 H26 0.930 1_554 S
C31 C33 1.390 . S
C31 C34 1.339 . S
C32 C30 1.416 . S
C32 C34 1.416 . S
C32 C65 1.448 1_455 S
C33 H18 0.930 . S
C33 N29 1.334 . S
C33 C31 1.390 . S
C34 C31 1.339 . S
C34 C32 1.416 . S
C34 H41 0.930 1_554 S
N35 Tb0 2.572 . S
N35 C36 1.340 1_556 S
N35 C38 1.361 . S
C36 H22 0.930 . S
C36 N35 1.340 1_554 S
C36 C40 1.407 . S
C37 C38 1.413 . S
C37 C39 1.416 . S
C37 C66 1.427 1_455 S
C38 C30 1.424 . S
C38 N35 1.361 . S
C38 C37 1.413 . S
C39 H28 0.931 1_456 S
C39 C37 1.416 . S
C39 C40 1.332 1_556 S
C40 H19 0.929 . S
C40 C36 1.407 . S
C40 C39 1.332 1_554 S
H41 C34 0.930 1_556 S
H42 C65 0.930 . S
H43 C66 0.929 . S
O44 Tb0 2.465 . S
O44 C64 1.264 . S
O45 Tb0 2.387 . S
O45 C56 1.257 1_565 S
O46 Tb11 2.349 1_655 S
O46 C56 1.247 1_554 S
O47 Tb0 2.428 . S
O47 C64 1.256 . S
O48 Tb0 2.308 1_554 S
O48 C63 1.266 1_565 S
O49 Tb11 2.393 . S
O49 C63 1.248 1_455 S
O50 Tb11 2.465 . S
O50 C75 1.264 . S
O51 Tb11 2.387 . S
O51 C67 1.259 1_545 S
O52 Tb0 2.349 1_455 S
O52 C67 1.246 1_556 S
O53 Tb11 2.428 . S
O53 C75 1.256 . S
O54 Tb11 2.308 1_556 S
O54 C74 1.266 1_545 S
O55 Tb0 2.393 . S
O55 C74 1.248 1_655 S
C56 O45 1.257 1_545 S
C56 O46 1.247 1_556 S
C57 C60 1.399 . S
C57 C62 1.383 . S
C57 C64 1.496 . S
C58 C59 1.399 . S
C58 C62 1.389 . S
C59 C58 1.399 . S
C59 C61 1.380 . S
C59 H76 0.929 . S
C60 C57 1.399 . S
C60 C61 1.392 . S
C60 H77 0.929 . S
C61 C59 1.380 . S
C61 C60 1.392 . S
C61 H78 0.929 . S
C62 C57 1.383 . S
C62 C58 1.389 . S
C62 H79 0.931 1_556 S
C63 O48 1.266 1_545 S
C63 O49 1.248 1_655 S
C64 Tb0 2.802 . S
C64 O44 1.264 . S
C64 O47 1.256 . S
C64 C57 1.496 . S
C65 C32 1.448 1_655 S
C65 H42 0.930 . S
C65 C66 1.328 . S
C66 C37 1.427 1_655 S
C66 H43 0.929 . S
C66 C65 1.328 . S
C67 O51 1.259 1_565 S
C67 O52 1.246 1_554 S
C68 C71 1.399 . S
C68 C72 1.383 . S
C68 C75 1.496 . S
C69 C70 1.399 . S
C69 C72 1.389 . S
C70 C69 1.399 . S
C70 C73 1.380 . S
C70 H80 0.929 . S
C71 C68 1.399 . S
C71 C73 1.392 . S
C71 H81 0.929 . S
C72 C68 1.383 . S
C72 C69 1.389 . S
C72 H82 0.931 1_554 S
C73 C70 1.380 . S
C73 C71 1.392 . S
C73 H83 0.929 . S
C74 O54 1.266 1_565 S
C74 O55 1.248 1_455 S
C75 Tb11 2.802 . S
C75 O50 1.264 . S
C75 O53 1.256 . S
C75 C68 1.496 . S
H76 C59 0.929 . S
H77 C60 0.929 . S
H78 C61 0.929 . S
H79 C62 0.931 1_554 S
H80 C70 0.929 . S
H81 C71 0.929 . S
H82 C72 0.931 1_556 S
H83 C73 0.929 . S
C63 C74 1.500 1_645 S
C67 C56 1.505 1_564 S
C58 C69 1.500 1_656 S
