# Generated by pormake.
# Topology gis, (4)-cn, num edge types: 1
# Building blocks:
#     Node 0, Type 0, BuildingBlock: GALJAG_clean_sbu_0, # of connection points: 4
#     Node 1, Type 0, BuildingBlock: GALJAG_clean_sbu_0, # of connection points: 4
#     Node 2, Type 0, BuildingBlock: GALJAG_clean_sbu_0, # of connection points: 4
#     Node 3, Type 0, BuildingBlock: GALJAG_clean_sbu_0, # of connection points: 4
#     Node 4, Type 0, BuildingBlock: GALJAG_clean_sbu_0, # of connection points: 4
#     Node 5, Type 0, BuildingBlock: GALJAG_clean_sbu_0, # of connection points: 4
#     Node 6, Type 0, BuildingBlock: GALJAG_clean_sbu_0, # of connection points: 4
#     Node 7, Type 0, BuildingBlock: GALJAG_clean_sbu_0, # of connection points: 4
#     Node 8, Type 0, BuildingBlock: GALJAG_clean_sbu_0, # of connection points: 4
#     Node 9, Type 0, BuildingBlock: GALJAG_clean_sbu_0, # of connection points: 4
#     Node 10, Type 0, BuildingBlock: GALJAG_clean_sbu_0, # of connection points: 4
#     Node 11, Type 0, BuildingBlock: GALJAG_clean_sbu_0, # of connection points: 4
#     Node 12, Type 0, BuildingBlock: GALJAG_clean_sbu_0, # of connection points: 4
#     Node 13, Type 0, BuildingBlock: GALJAG_clean_sbu_0, # of connection points: 4
#     Node 14, Type 0, BuildingBlock: GALJAG_clean_sbu_0, # of connection points: 4
#     Node 15, Type 0, BuildingBlock: GALJAG_clean_sbu_0, # of connection points: 4
#     Edge 16, Type (0, 0), None
#     Edge 17, Type (0, 0), None
#     Edge 18, Type (0, 0), None
#     Edge 19, Type (0, 0), None
#     Edge 20, Type (0, 0), None
#     Edge 21, Type (0, 0), None
#     Edge 22, Type (0, 0), None
#     Edge 23, Type (0, 0), None
#     Edge 24, Type (0, 0), None
#     Edge 25, Type (0, 0), None
#     Edge 26, Type (0, 0), None
#     Edge 27, Type (0, 0), None
#     Edge 28, Type (0, 0), None
#     Edge 29, Type (0, 0), None
#     Edge 30, Type (0, 0), None
#     Edge 31, Type (0, 0), None
#     Edge 32, Type (0, 0), None
#     Edge 33, Type (0, 0), None
#     Edge 34, Type (0, 0), None
#     Edge 35, Type (0, 0), None
#     Edge 36, Type (0, 0), None
#     Edge 37, Type (0, 0), None
#     Edge 38, Type (0, 0), None
#     Edge 39, Type (0, 0), None
#     Edge 40, Type (0, 0), None
#     Edge 41, Type (0, 0), None
#     Edge 42, Type (0, 0), None
#     Edge 43, Type (0, 0), None
#     Edge 44, Type (0, 0), None
#     Edge 45, Type (0, 0), None
#     Edge 46, Type (0, 0), None
#     Edge 47, Type (0, 0), None
# Relax obj value: 0.052
# Max RMSD: 0.089
# Mean RMSD: 0.088
data_MOF--net-gis--node1-GALJAG_clean_sbu_0--edge1-none
_symmetry_space_group_name_H-M    P1
_symmetry_Int_Tables_number       1
_symmetry_cell_setting            triclinic
loop_
_symmetry_equiv_pos_as_xyz
'x, y, z'
_cell_length_a     23.617762
_cell_length_b     23.615132
_cell_length_c     18.306127
_cell_angle_alpha  90.038749
_cell_angle_beta   90.038698
_cell_angle_gamma 90.000022
loop_
_atom_site_label
_atom_site_type_symbol
_atom_site_fract_x
_atom_site_fract_y
_atom_site_fract_z
_atom_type_partial_charge
In0 In 0.15378 0.6147 0.08042 0.0
O1 O 0.18486 0.59555 0.19556 0.0
O2 O 0.24653 0.60715 0.1115 0.0
C3 C 0.04023 0.60649 0.08534 0.0
C4 C 0.1619 0.72826 0.07548 0.0
C5 C 0.17054 0.53185 -0.01736 0.0
O6 O 0.07051 0.58911 0.13782 0.0
O7 O 0.06709 0.62675 0.03201 0.0
O8 O 0.17294 0.58364 -0.03471 0.0
O9 O 0.16136 0.52194 0.04933 0.0
C10 C 0.23663 0.59797 0.17819 0.0
O11 O 0.1793 0.69798 0.023 0.0
O12 O 0.14167 0.70139 0.12882 0.0
In13 In 0.65374 0.9036 0.33031 0.0
O14 O 0.67942 0.82032 0.38767 0.0
O15 O 0.64159 0.8169 0.28191 0.0
C16 C 0.67042 0.98645 0.42814 0.0
C17 C 0.73653 0.92039 0.23259 0.0
C18 C 0.54019 0.91182 0.32538 0.0
O19 O 0.67288 0.93466 0.44549 0.0
O20 O 0.66127 0.99635 0.36142 0.0
O21 O 0.57042 0.9292 0.27291 0.0
O22 O 0.5671 0.89151 0.37869 0.0
C23 C 0.66196 0.79004 0.3352 0.0
O24 O 0.68474 0.92275 0.21519 0.0
O25 O 0.74647 0.91125 0.2993 0.0
In26 In 0.36471 0.40386 0.58044 0.0
O27 O 0.34548 0.43489 0.46533 0.0
O28 O 0.35723 0.49661 0.54942 0.0
C29 C 0.35648 0.2903 0.57553 0.0
C30 C 0.47827 0.41196 0.58529 0.0
C31 C 0.28192 0.4206 0.67819 0.0
O32 O 0.33904 0.32053 0.52305 0.0
O33 O 0.37684 0.31722 0.62884 0.0
O34 O 0.33371 0.42303 0.69559 0.0
O35 O 0.27199 0.41144 0.61146 0.0
C36 C 0.34799 0.48668 0.48271 0.0
O37 O 0.44808 0.42946 0.63777 0.0
O38 O 0.45132 0.39162 0.53201 0.0
In39 In 0.86461 0.1145 0.83043 0.0
O40 O 0.94789 0.08888 0.77303 0.0
O41 O 0.9513 0.12667 0.87882 0.0
C42 C 0.78172 0.09778 0.73269 0.0
C43 C 0.84785 0.03172 0.92817 0.0
C44 C 0.85652 0.22807 0.83529 0.0
O45 O 0.83349 0.09524 0.71532 0.0
O46 O 0.77185 0.10705 0.79938 0.0
O47 O 0.83914 0.19787 0.8878 0.0
O48 O 0.87673 0.20111 0.78196 0.0
C49 C 0.97816 0.10636 0.82549 0.0
O50 O 0.84544 0.08351 0.94555 0.0
O51 O 0.85704 0.02177 0.86147 0.0
In52 In 0.15389 0.40374 0.83033 0.0
O53 O 0.17949 0.32044 0.8877 0.0
O54 O 0.14172 0.31707 0.78189 0.0
C55 C 0.17056 0.4866 0.92814 0.0
C56 C 0.2367 0.42053 0.73265 0.0
C57 C 0.04034 0.41186 0.8254 0.0
O58 O 0.17309 0.43482 0.94548 0.0
O59 O 0.16135 0.4965 0.86144 0.0
O60 O 0.07055 0.42925 0.77291 0.0
O61 O 0.06727 0.39163 0.87874 0.0
C62 C 0.16201 0.29018 0.83522 0.0
O63 O 0.18491 0.42297 0.71525 0.0
O64 O 0.24663 0.41131 0.79934 0.0
In65 In 0.86456 0.90371 0.0804 0.0
O66 O 0.83896 0.82035 0.02303 0.0
O67 O 0.87677 0.81708 0.12881 0.0
C68 C 0.84784 0.9865 -0.01735 0.0
C69 C 0.78175 0.9204 0.17813 0.0
C70 C 0.97811 0.91192 0.08528 0.0
O71 O 0.84536 0.93471 -0.03474 0.0
O72 O 0.857 0.99645 0.04936 0.0
O73 O 0.9479 0.92938 0.13776 0.0
O74 O 0.95118 0.89155 0.03199 0.0
C75 C 0.85643 0.79014 0.0755 0.0
O76 O 0.83354 0.92291 0.19553 0.0
O77 O 0.77182 0.91122 0.11141 0.0
In78 In 0.36476 0.61465 0.33045 0.0
O79 O 0.34567 0.58369 0.44561 0.0
O80 O 0.35711 0.52193 0.36152 0.0
C81 C 0.35657 0.72821 0.33532 0.0
C82 C 0.4783 0.60641 0.32549 0.0
C83 C 0.28189 0.59795 0.23268 0.0
O84 O 0.33919 0.698 0.38782 0.0
O85 O 0.37685 0.70128 0.28202 0.0
O86 O 0.33366 0.59546 0.21531 0.0
O87 O 0.272 0.60713 0.29939 0.0
C88 C 0.34803 0.5319 0.42823 0.0
O89 O 0.448 0.58894 0.27305 0.0
O90 O 0.45146 0.62679 0.37879 0.0
In91 In 0.65363 0.11455 0.58042 0.0
O92 O 0.57034 0.08904 0.63781 0.0
O93 O 0.56696 0.12669 0.532 0.0
C94 C 0.73647 0.09781 0.6782 0.0
C95 C 0.67035 0.03169 0.48264 0.0
C96 C 0.66187 0.2281 0.57546 0.0
O97 O 0.68469 0.09542 0.69557 0.0
O98 O 0.74637 0.10694 0.6115 0.0
O99 O 0.67923 0.1978 0.52299 0.0
O100 O 0.64161 0.20126 0.6288 0.0
C101 C 0.54008 0.10645 0.58533 0.0
O102 O 0.67281 0.08348 0.46529 0.0
O103 O 0.66115 0.02179 0.54933 0.0
In104 In 0.8648 0.40363 0.83031 0.0
O105 O 0.84566 0.43469 0.94545 0.0
O106 O 0.85721 0.49638 0.8614 0.0
C107 C 0.85658 0.29007 0.83527 0.0
C108 C 0.97834 0.41182 0.82539 0.0
C109 C 0.78196 0.42036 0.73252 0.0
O110 O 0.83919 0.32037 0.88773 0.0
O111 O 0.87685 0.31692 0.78193 0.0
O112 O 0.83374 0.42273 0.71515 0.0
O113 O 0.77206 0.41124 0.79922 0.0
C114 C 0.84805 0.48647 0.9281 0.0
O115 O 0.94807 0.42922 0.77292 0.0
O116 O 0.95148 0.39154 0.87871 0.0
In117 In 0.36453 0.11473 0.58042 0.0
O118 O 0.33893 0.19804 0.52307 0.0
O119 O 0.37674 0.20141 0.62884 0.0
C120 C 0.34784 0.03188 0.4826 0.0
C121 C 0.28173 0.09795 0.67811 0.0
C122 C 0.47808 0.10651 0.58535 0.0
O123 O 0.34537 0.08367 0.46524 0.0
O124 O 0.35701 0.02198 0.5493 0.0
O125 O 0.44785 0.08914 0.63783 0.0
O126 O 0.45117 0.12679 0.53202 0.0
C127 C 0.35643 0.2283 0.57553 0.0
O128 O 0.33351 0.09553 0.69551 0.0
O129 O 0.2718 0.10716 0.61141 0.0
In130 In 0.65386 0.61447 0.33031 0.0
O131 O 0.57049 0.58888 0.27296 0.0
O132 O 0.56726 0.62668 0.37875 0.0
C133 C 0.73667 0.59774 0.23259 0.0
C134 C 0.6706 0.53165 0.42803 0.0
C135 C 0.66198 0.72803 0.33521 0.0
O136 O 0.68488 0.59525 0.21518 0.0
O137 O 0.74659 0.60696 0.2993 0.0
O138 O 0.67946 0.69782 0.38768 0.0
O139 O 0.64167 0.7011 0.28189 0.0
C140 C 0.5403 0.60637 0.32545 0.0
O141 O 0.67311 0.58344 0.44542 0.0
O142 O 0.66135 0.52172 0.36133 0.0
In143 In 0.15366 0.90382 0.08031 0.0
O144 O 0.07039 0.92945 0.1377 0.0
O145 O 0.06698 0.89161 0.03194 0.0
C146 C 0.23653 0.92055 0.17807 0.0
C147 C 0.17041 0.9866 -0.01744 0.0
C148 C 0.16186 0.79026 0.07544 0.0
O149 O 0.18476 0.92303 0.19545 0.0
O150 O 0.24642 0.91135 0.11137 0.0
O151 O 0.17922 0.82047 0.02293 0.0
O152 O 0.1416 0.81719 0.12876 0.0
C153 C 0.04011 0.91195 0.08525 0.0
O154 O 0.17281 0.93481 -0.03482 0.0
O155 O 0.16124 0.99656 0.04926 0.0
In156 In 0.86468 0.61458 0.08041 0.0
O157 O 0.83368 0.5954 0.19552 0.0
O158 O 0.77195 0.60694 0.11142 0.0
C159 C 0.97823 0.60648 0.08535 0.0
C160 C 0.85646 0.72813 0.07551 0.0
C161 C 0.84803 0.53172 -0.0174 0.0
O162 O 0.94802 0.58906 0.13782 0.0
O163 O 0.9513 0.62673 0.03202 0.0
O164 O 0.84551 0.5835 -0.03474 0.0
O165 O 0.85723 0.52182 0.04931 0.0
C166 C 0.78189 0.59779 0.17812 0.0
O167 O 0.839 0.69785 0.02304 0.0
O168 O 0.87679 0.70127 0.12883 0.0
In169 In 0.15372 0.11461 0.83032 0.0
O170 O 0.07038 0.08894 0.77297 0.0
O171 O 0.06709 0.1268 0.87872 0.0
C172 C 0.2365 0.09792 0.73257 0.0
C173 C 0.17042 0.03182 0.92808 0.0
C174 C 0.16193 0.22817 0.83524 0.0
O175 O 0.18472 0.09547 0.71517 0.0
O176 O 0.24644 0.10704 0.7993 0.0
O177 O 0.1794 0.19794 0.8877 0.0
O178 O 0.14155 0.20126 0.78194 0.0
C179 C 0.04016 0.10642 0.82544 0.0
O180 O 0.17289 0.08362 0.94547 0.0
O181 O 0.16127 0.02187 0.86136 0.0
In182 In 0.65382 0.40368 0.58028 0.0
O183 O 0.57058 0.42938 0.6377 0.0
O184 O 0.56711 0.39156 0.53193 0.0
C185 C 0.7367 0.42036 0.67803 0.0
C186 C 0.67056 0.48643 0.48251 0.0
C187 C 0.66189 0.29011 0.57542 0.0
O188 O 0.68493 0.42291 0.6954 0.0
O189 O 0.74658 0.41112 0.61133 0.0
O190 O 0.6793 0.3203 0.52292 0.0
O191 O 0.64166 0.31706 0.62873 0.0
C192 C 0.54027 0.41192 0.58525 0.0
O193 O 0.67293 0.43464 0.46513 0.0
O194 O 0.66146 0.4964 0.54922 0.0
In195 In 0.36464 0.90378 0.33032 0.0
O196 O 0.34544 0.93485 0.44544 0.0
O197 O 0.35713 0.99654 0.36141 0.0
C198 C 0.35652 0.79022 0.33528 0.0
C199 C 0.4782 0.91188 0.3254 0.0
C200 C 0.28179 0.9205 0.23256 0.0
O201 O 0.33913 0.8205 0.38775 0.0
O202 O 0.37673 0.81709 0.28192 0.0
O203 O 0.33357 0.92295 0.2152 0.0
O204 O 0.2719 0.91131 0.29925 0.0
C205 C 0.34791 0.98663 0.42809 0.0
O206 O 0.44793 0.92929 0.27292 0.0
O207 O 0.45132 0.89167 0.37875 0.0
loop_
_geom_bond_atom_site_label_1
_geom_bond_atom_site_label_2
_geom_bond_distance
_geom_bond_site_symmetry_2
_ccdc_geom_bond_type
In0 O1 2.294 . S
In0 O2 2.326 . S
In0 O6 2.266 . S
In0 O7 2.326 . S
In0 O8 2.278 . S
In0 O9 2.326 . S
In0 O11 2.294 . S
In0 O12 2.326 . S
O1 In0 2.294 . S
O1 C10 1.240 . S
O2 In0 2.326 . S
O2 C10 1.252 . S
C3 O6 1.252 . S
C3 O7 1.260 . S
C4 O11 1.240 . S
C4 O12 1.252 . S
C5 O8 1.256 . S
C5 O9 1.260 . S
O6 In0 2.266 . S
O6 C3 1.252 . S
O7 In0 2.326 . S
O7 C3 1.260 . S
O8 In0 2.278 . S
O8 C5 1.256 . S
O9 In0 2.326 . S
O9 C5 1.260 . S
C10 O1 1.240 . S
C10 O2 1.252 . S
O11 In0 2.294 . S
O11 C4 1.240 . S
O12 In0 2.326 . S
O12 C4 1.252 . S
In13 O14 2.294 . S
In13 O15 2.326 . S
In13 O19 2.266 . S
In13 O20 2.326 . S
In13 O21 2.266 . S
In13 O22 2.326 . S
In13 O24 2.294 . S
In13 O25 2.326 . S
O14 In13 2.294 . S
O14 C23 1.240 . S
O15 In13 2.326 . S
O15 C23 1.252 . S
C16 O19 1.252 . S
C16 O20 1.260 . S
C17 O24 1.240 . S
C17 O25 1.252 . S
C18 O21 1.252 . S
C18 O22 1.260 . S
O19 In13 2.266 . S
O19 C16 1.252 . S
O20 In13 2.326 . S
O20 C16 1.260 . S
O21 In13 2.266 . S
O21 C18 1.252 . S
O22 In13 2.326 . S
O22 C18 1.260 . S
C23 O14 1.240 . S
C23 O15 1.252 . S
O24 In13 2.294 . S
O24 C17 1.240 . S
O25 In13 2.326 . S
O25 C17 1.252 . S
In26 O27 2.294 . S
In26 O28 2.326 . S
In26 O32 2.266 . S
In26 O33 2.326 . S
In26 O34 2.266 . S
In26 O35 2.326 . S
In26 O37 2.294 . S
In26 O38 2.326 . S
O27 In26 2.294 . S
O27 C36 1.240 . S
O28 In26 2.326 . S
O28 C36 1.252 . S
C29 O32 1.252 . S
C29 O33 1.260 . S
C30 O37 1.240 . S
C30 O38 1.252 . S
C31 O34 1.252 . S
C31 O35 1.260 . S
O32 In26 2.266 . S
O32 C29 1.252 . S
O33 In26 2.326 . S
O33 C29 1.260 . S
O34 In26 2.266 . S
O34 C31 1.252 . S
O35 In26 2.326 . S
O35 C31 1.260 . S
C36 O27 1.240 . S
C36 O28 1.252 . S
O37 In26 2.294 . S
O37 C30 1.240 . S
O38 In26 2.326 . S
O38 C30 1.252 . S
In39 O40 2.294 . S
In39 O41 2.326 . S
In39 O45 2.266 . S
In39 O46 2.326 . S
In39 O47 2.266 . S
In39 O48 2.326 . S
In39 O50 2.289 1_556 S
In39 O51 2.326 . S
O40 In39 2.294 . S
O40 C49 1.240 . S
O41 In39 2.326 . S
O41 C49 1.252 . S
C42 O45 1.252 . S
C42 O46 1.260 . S
C43 O50 1.238 1_556 S
C43 O51 1.252 . S
C44 O47 1.252 . S
C44 O48 1.260 . S
O45 In39 2.266 . S
O45 C42 1.252 . S
O46 In39 2.326 . S
O46 C42 1.260 . S
O47 In39 2.266 . S
O47 C44 1.252 . S
O48 In39 2.326 . S
O48 C44 1.260 . S
C49 O40 1.240 . S
C49 O41 1.252 . S
O50 In39 2.289 1_554 S
O50 C43 1.238 1_554 S
O51 In39 2.326 . S
O51 C43 1.252 . S
In52 O53 2.294 . S
In52 O54 2.326 . S
In52 O58 2.266 . S
In52 O59 2.326 . S
In52 O60 2.266 . S
In52 O61 2.326 . S
In52 O63 2.294 . S
In52 O64 2.326 . S
O53 In52 2.294 . S
O53 C62 1.240 . S
O54 In52 2.326 . S
O54 C62 1.252 . S
C55 O58 1.252 . S
C55 O59 1.260 . S
C56 O63 1.240 . S
C56 O64 1.252 . S
C57 O60 1.252 . S
C57 O61 1.260 . S
O58 In52 2.266 . S
O58 C55 1.252 . S
O59 In52 2.326 . S
O59 C55 1.260 . S
O60 In52 2.266 . S
O60 C57 1.252 . S
O61 In52 2.326 . S
O61 C57 1.260 . S
C62 O53 1.240 . S
C62 O54 1.252 . S
O63 In52 2.294 . S
O63 C56 1.240 . S
O64 In52 2.326 . S
O64 C56 1.252 . S
In65 O66 2.294 . S
In65 O67 2.326 . S
In65 O71 2.279 . S
In65 O72 2.326 . S
In65 O73 2.266 . S
In65 O74 2.326 . S
In65 O76 2.294 . S
In65 O77 2.326 . S
O66 In65 2.294 . S
O66 C75 1.240 . S
O67 In65 2.326 . S
O67 C75 1.252 . S
C68 O71 1.256 . S
C68 O72 1.260 . S
C69 O76 1.240 . S
C69 O77 1.252 . S
C70 O73 1.252 . S
C70 O74 1.260 . S
O71 In65 2.279 . S
O71 C68 1.256 . S
O72 In65 2.326 . S
O72 C68 1.260 . S
O73 In65 2.266 . S
O73 C70 1.252 . S
O74 In65 2.326 . S
O74 C70 1.260 . S
C75 O66 1.240 . S
C75 O67 1.252 . S
O76 In65 2.294 . S
O76 C69 1.240 . S
O77 In65 2.326 . S
O77 C69 1.252 . S
In78 O79 2.294 . S
In78 O80 2.326 . S
In78 O84 2.266 . S
In78 O85 2.326 . S
In78 O86 2.266 . S
In78 O87 2.326 . S
In78 O89 2.294 . S
In78 O90 2.326 . S
O79 In78 2.294 . S
O79 C88 1.240 . S
O80 In78 2.326 . S
O80 C88 1.252 . S
C81 O84 1.252 . S
C81 O85 1.260 . S
C82 O89 1.240 . S
C82 O90 1.252 . S
C83 O86 1.252 . S
C83 O87 1.260 . S
O84 In78 2.266 . S
O84 C81 1.252 . S
O85 In78 2.326 . S
O85 C81 1.260 . S
O86 In78 2.266 . S
O86 C83 1.252 . S
O87 In78 2.326 . S
O87 C83 1.260 . S
C88 O79 1.240 . S
C88 O80 1.252 . S
O89 In78 2.294 . S
O89 C82 1.240 . S
O90 In78 2.326 . S
O90 C82 1.252 . S
In91 O92 2.294 . S
In91 O93 2.326 . S
In91 O97 2.266 . S
In91 O98 2.326 . S
In91 O99 2.266 . S
In91 O100 2.326 . S
In91 O102 2.294 . S
In91 O103 2.326 . S
O92 In91 2.294 . S
O92 C101 1.240 . S
O93 In91 2.326 . S
O93 C101 1.252 . S
C94 O97 1.252 . S
C94 O98 1.260 . S
C95 O102 1.240 . S
C95 O103 1.252 . S
C96 O99 1.252 . S
C96 O100 1.260 . S
O97 In91 2.266 . S
O97 C94 1.252 . S
O98 In91 2.326 . S
O98 C94 1.260 . S
O99 In91 2.266 . S
O99 C96 1.252 . S
O100 In91 2.326 . S
O100 C96 1.260 . S
C101 O92 1.240 . S
C101 O93 1.252 . S
O102 In91 2.294 . S
O102 C95 1.240 . S
O103 In91 2.326 . S
O103 C95 1.252 . S
In104 O105 2.290 1_556 S
In104 O106 2.326 . S
In104 O110 2.266 . S
In104 O111 2.326 . S
In104 O112 2.266 . S
In104 O113 2.326 . S
In104 O115 2.294 . S
In104 O116 2.326 . S
O105 In104 2.290 1_554 S
O105 C114 1.238 1_554 S
O106 In104 2.326 . S
O106 C114 1.252 . S
C107 O110 1.252 . S
C107 O111 1.260 . S
C108 O115 1.240 . S
C108 O116 1.252 . S
C109 O112 1.252 . S
C109 O113 1.260 . S
O110 In104 2.266 . S
O110 C107 1.252 . S
O111 In104 2.326 . S
O111 C107 1.260 . S
O112 In104 2.266 . S
O112 C109 1.252 . S
O113 In104 2.326 . S
O113 C109 1.260 . S
C114 O105 1.238 1_556 S
C114 O106 1.252 . S
O115 In104 2.294 . S
O115 C108 1.240 . S
O116 In104 2.326 . S
O116 C108 1.252 . S
In117 O118 2.294 . S
In117 O119 2.326 . S
In117 O123 2.266 . S
In117 O124 2.326 . S
In117 O125 2.266 . S
In117 O126 2.326 . S
In117 O128 2.294 . S
In117 O129 2.326 . S
O118 In117 2.294 . S
O118 C127 1.240 . S
O119 In117 2.326 . S
O119 C127 1.252 . S
C120 O123 1.252 . S
C120 O124 1.260 . S
C121 O128 1.240 . S
C121 O129 1.252 . S
C122 O125 1.252 . S
C122 O126 1.260 . S
O123 In117 2.266 . S
O123 C120 1.252 . S
O124 In117 2.326 . S
O124 C120 1.260 . S
O125 In117 2.266 . S
O125 C122 1.252 . S
O126 In117 2.326 . S
O126 C122 1.260 . S
C127 O118 1.240 . S
C127 O119 1.252 . S
O128 In117 2.294 . S
O128 C121 1.240 . S
O129 In117 2.326 . S
O129 C121 1.252 . S
In130 O131 2.294 . S
In130 O132 2.326 . S
In130 O136 2.266 . S
In130 O137 2.326 . S
In130 O138 2.266 . S
In130 O139 2.326 . S
In130 O141 2.294 . S
In130 O142 2.326 . S
O131 In130 2.294 . S
O131 C140 1.240 . S
O132 In130 2.326 . S
O132 C140 1.252 . S
C133 O136 1.252 . S
C133 O137 1.260 . S
C134 O141 1.240 . S
C134 O142 1.252 . S
C135 O138 1.252 . S
C135 O139 1.260 . S
O136 In130 2.266 . S
O136 C133 1.252 . S
O137 In130 2.326 . S
O137 C133 1.260 . S
O138 In130 2.266 . S
O138 C135 1.252 . S
O139 In130 2.326 . S
O139 C135 1.260 . S
C140 O131 1.240 . S
C140 O132 1.252 . S
O141 In130 2.294 . S
O141 C134 1.240 . S
O142 In130 2.326 . S
O142 C134 1.252 . S
In143 O144 2.294 . S
In143 O145 2.326 . S
In143 O149 2.266 . S
In143 O150 2.326 . S
In143 O151 2.266 . S
In143 O152 2.326 . S
In143 O154 2.283 1_554 S
In143 O155 2.326 . S
O144 In143 2.294 . S
O144 C153 1.240 . S
O145 In143 2.326 . S
O145 C153 1.252 . S
C146 O149 1.252 . S
C146 O150 1.260 . S
C147 O154 1.236 1_554 S
C147 O155 1.252 . S
C148 O151 1.252 . S
C148 O152 1.260 . S
O149 In143 2.266 . S
O149 C146 1.252 . S
O150 In143 2.326 . S
O150 C146 1.260 . S
O151 In143 2.266 . S
O151 C148 1.252 . S
O152 In143 2.326 . S
O152 C148 1.260 . S
C153 O144 1.240 . S
C153 O145 1.252 . S
O154 In143 2.283 1_556 S
O154 C147 1.236 1_556 S
O155 In143 2.326 . S
O155 C147 1.252 . S
In156 O157 2.294 . S
In156 O158 2.326 . S
In156 O162 2.266 . S
In156 O163 2.326 . S
In156 O164 2.279 . S
In156 O165 2.326 . S
In156 O167 2.294 . S
In156 O168 2.326 . S
O157 In156 2.294 . S
O157 C166 1.240 . S
O158 In156 2.326 . S
O158 C166 1.252 . S
C159 O162 1.252 . S
C159 O163 1.260 . S
C160 O167 1.240 . S
C160 O168 1.252 . S
C161 O164 1.257 . S
C161 O165 1.260 . S
O162 In156 2.266 . S
O162 C159 1.252 . S
O163 In156 2.326 . S
O163 C159 1.260 . S
O164 In156 2.279 . S
O164 C161 1.257 . S
O165 In156 2.326 . S
O165 C161 1.260 . S
C166 O157 1.240 . S
C166 O158 1.252 . S
O167 In156 2.294 . S
O167 C160 1.240 . S
O168 In156 2.326 . S
O168 C160 1.252 . S
In169 O170 2.294 . S
In169 O171 2.326 . S
In169 O175 2.266 . S
In169 O176 2.326 . S
In169 O177 2.266 . S
In169 O178 2.326 . S
In169 O180 2.291 1_556 S
In169 O181 2.326 . S
O170 In169 2.294 . S
O170 C179 1.240 . S
O171 In169 2.326 . S
O171 C179 1.252 . S
C172 O175 1.252 . S
C172 O176 1.260 . S
C173 O180 1.239 1_556 S
C173 O181 1.252 . S
C174 O177 1.252 . S
C174 O178 1.260 . S
O175 In169 2.266 . S
O175 C172 1.252 . S
O176 In169 2.326 . S
O176 C172 1.260 . S
O177 In169 2.266 . S
O177 C174 1.252 . S
O178 In169 2.326 . S
O178 C174 1.260 . S
C179 O170 1.240 . S
C179 O171 1.252 . S
O180 In169 2.291 1_554 S
O180 C173 1.239 1_554 S
O181 In169 2.326 . S
O181 C173 1.252 . S
In182 O183 2.294 . S
In182 O184 2.326 . S
In182 O188 2.266 . S
In182 O189 2.326 . S
In182 O190 2.266 . S
In182 O191 2.326 . S
In182 O193 2.294 . S
In182 O194 2.326 . S
O183 In182 2.294 . S
O183 C192 1.240 . S
O184 In182 2.326 . S
O184 C192 1.252 . S
C185 O188 1.252 . S
C185 O189 1.260 . S
C186 O193 1.240 . S
C186 O194 1.252 . S
C187 O190 1.252 . S
C187 O191 1.260 . S
O188 In182 2.266 . S
O188 C185 1.252 . S
O189 In182 2.326 . S
O189 C185 1.260 . S
O190 In182 2.266 . S
O190 C187 1.252 . S
O191 In182 2.326 . S
O191 C187 1.260 . S
C192 O183 1.240 . S
C192 O184 1.252 . S
O193 In182 2.294 . S
O193 C186 1.240 . S
O194 In182 2.326 . S
O194 C186 1.252 . S
In195 O196 2.294 . S
In195 O197 2.326 . S
In195 O201 2.266 . S
In195 O202 2.326 . S
In195 O203 2.266 . S
In195 O204 2.326 . S
In195 O206 2.294 . S
In195 O207 2.326 . S
O196 In195 2.294 . S
O196 C205 1.240 . S
O197 In195 2.326 . S
O197 C205 1.252 . S
C198 O201 1.252 . S
C198 O202 1.260 . S
C199 O206 1.240 . S
C199 O207 1.252 . S
C200 O203 1.252 . S
C200 O204 1.260 . S
O201 In195 2.266 . S
O201 C198 1.252 . S
O202 In195 2.326 . S
O202 C198 1.260 . S
O203 In195 2.266 . S
O203 C200 1.252 . S
O204 In195 2.326 . S
O204 C200 1.260 . S
C205 O196 1.240 . S
C205 O197 1.252 . S
O206 In195 2.294 . S
O206 C199 1.240 . S
O207 In195 2.326 . S
O207 C199 1.252 . S
C148 C4 1.513 . S
C199 C18 1.519 . S
C29 C127 1.512 . S
C179 C49 1.510 1_455 S
C62 C174 1.512 . S
C70 C153 1.518 1_655 S
C81 C198 1.521 . S
C101 C122 1.519 . S
C44 C107 1.515 . S
C135 C23 1.517 . S
C160 C75 1.509 . S
C187 C96 1.515 . S
C57 C108 1.513 1_455 S
C140 C82 1.515 . S
C192 C30 1.515 . S
C3 C159 1.521 1_455 S
C5 C55 1.415 1_554 S
C17 C69 1.396 . S
C36 C88 1.402 . S
C94 C42 1.409 . S
C114 C161 1.399 1_556 S
C172 C121 1.401 . S
C134 C186 1.407 . S
C200 C146 1.415 . S
C95 C16 1.405 1_545 S
C31 C56 1.406 . S
C43 C68 1.411 1_546 S
C10 C83 1.399 . S
C120 C205 1.410 1_545 S
C166 C133 1.411 . S
C147 C173 1.397 1_564 S
C185 C109 1.404 . S
