# Generated by pormake.
# Topology wjg, (4)-cn, num edge types: 1
# Building blocks:
#     Node 0, Type 0, BuildingBlock: QUQFOY_clean_sbu_1, # of connection points: 4
#     Node 1, Type 0, BuildingBlock: QUQFOY_clean_sbu_1, # of connection points: 4
#     Node 2, Type 0, BuildingBlock: QUQFOY_clean_sbu_1, # of connection points: 4
#     Node 3, Type 0, BuildingBlock: QUQFOY_clean_sbu_1, # of connection points: 4
#     Node 4, Type 0, BuildingBlock: QUQFOY_clean_sbu_1, # of connection points: 4
#     Node 5, Type 0, BuildingBlock: QUQFOY_clean_sbu_1, # of connection points: 4
#     Node 6, Type 0, BuildingBlock: QUQFOY_clean_sbu_1, # of connection points: 4
#     Node 7, Type 0, BuildingBlock: QUQFOY_clean_sbu_1, # of connection points: 4
#     Node 8, Type 0, BuildingBlock: QUQFOY_clean_sbu_1, # of connection points: 4
#     Node 9, Type 0, BuildingBlock: QUQFOY_clean_sbu_1, # of connection points: 4
#     Node 10, Type 0, BuildingBlock: QUQFOY_clean_sbu_1, # of connection points: 4
#     Node 11, Type 0, BuildingBlock: QUQFOY_clean_sbu_1, # of connection points: 4
#     Edge 12, Type (0, 0), None
#     Edge 13, Type (0, 0), None
#     Edge 14, Type (0, 0), None
#     Edge 15, Type (0, 0), None
#     Edge 16, Type (0, 0), None
#     Edge 17, Type (0, 0), None
#     Edge 18, Type (0, 0), None
#     Edge 19, Type (0, 0), None
#     Edge 20, Type (0, 0), None
#     Edge 21, Type (0, 0), None
#     Edge 22, Type (0, 0), None
#     Edge 23, Type (0, 0), None
#     Edge 24, Type (0, 0), None
#     Edge 25, Type (0, 0), None
#     Edge 26, Type (0, 0), None
#     Edge 27, Type (0, 0), None
#     Edge 28, Type (0, 0), None
#     Edge 29, Type (0, 0), None
#     Edge 30, Type (0, 0), None
#     Edge 31, Type (0, 0), None
#     Edge 32, Type (0, 0), None
#     Edge 33, Type (0, 0), None
#     Edge 34, Type (0, 0), None
#     Edge 35, Type (0, 0), None
# Relax obj value: 0.268
# Max RMSD: 0.159
# Mean RMSD: 0.157
data_MOF--net-wjg--node1-QUQFOY_clean_sbu_1--edge1-none
_symmetry_space_group_name_H-M    P1
_symmetry_Int_Tables_number       1
_symmetry_cell_setting            triclinic
loop_
_symmetry_equiv_pos_as_xyz
'x, y, z'
_cell_length_a     21.283027
_cell_length_b     20.772752
_cell_length_c     16.306149
_cell_angle_alpha  90.000047
_cell_angle_beta   89.99998
_cell_angle_gamma 120.79288
loop_
_atom_site_label
_atom_site_type_symbol
_atom_site_fract_x
_atom_site_fract_y
_atom_site_fract_z
_atom_type_partial_charge
O0 O 0.02098 0.11978 0.34324 0.0
Cd1 Cd -0.03954 0.16866 0.36958 0.0
Cd2 Cd 0.16248 0.3117 0.43254 0.0
O3 O 0.10302 0.23788 0.3457 0.0
O4 O 0.85491 0.08856 0.34738 0.0
O5 O -0.08939 0.19564 0.27969 0.0
C6 C 0.85293 0.13032 0.29002 0.0
C7 C 0.27554 0.4199 0.43031 0.0
C8 C 0.08623 0.17045 0.35705 0.0
C9 C 0.03341 0.24363 0.54804 0.0
O10 O 0.10198 0.27836 0.53463 0.0
O11 O -0.0171 0.21139 0.49287 0.0
O12 O 0.26954 0.35561 0.44313 0.0
O13 O 0.21709 0.42261 0.41588 0.0
O14 O 0.82191 0.09649 0.70584 0.0
Cd15 Cd 0.70951 0.03315 0.70519 0.0
Cd16 Cd 0.77377 0.23629 0.7969 0.0
O17 O 0.80633 0.192 0.70807 0.0
O18 O 0.67655 -0.07685 0.68418 0.0
O19 O 0.65614 -0.00903 0.59641 0.0
C20 C 0.65054 -0.07234 0.61441 0.0
C21 C 0.77572 0.34934 0.80855 0.0
C22 C 0.84187 0.16155 0.73234 0.0
C23 C 0.67974 0.08427 0.88242 0.0
O24 O 0.71975 0.15536 0.88051 0.0
O25 O 0.66758 0.03969 0.82158 0.0
O26 O 0.8289 0.34268 0.83713 0.0
O27 O 0.7226 0.29246 0.77121 0.0
O28 O 0.43324 0.77436 0.23047 0.0
Cd29 Cd 0.39295 0.81223 0.14461 0.0
Cd30 Cd 0.53564 0.76871 1.0452 0.0
O31 O 0.49706 0.72846 0.16578 0.0
O32 O 0.35162 0.87302 0.18538 0.0
O33 O 0.28473 0.75622 0.13768 0.0
C34 C 0.28808 0.81478 0.1703 0.0
C35 C 0.59062 0.71772 0.95659 0.0
C36 C 0.46772 0.73933 0.22957 0.0
C37 C 0.52616 0.89473 1.06884 0.0
O38 O 0.57578 0.88257 1.0447 0.0
O39 O 0.46091 0.84783 1.04785 0.0
O40 O 0.62113 0.75203 1.02389 0.0
O41 O 0.52833 0.71084 0.93896 0.0
O42 O 0.73472 0.68505 0.3614 0.0
Cd43 Cd 0.78617 0.6279 0.39204 0.0
Cd44 Cd 0.59238 0.49289 0.44506 0.0
O45 O 0.65179 0.5671 0.35729 0.0
O46 O -0.10814 0.68653 0.35504 0.0
O47 O 0.80845 0.58217 0.29417 0.0
C48 C -0.1257 0.63966 0.29495 0.0
C49 C 0.48077 0.38195 0.44022 0.0
C50 C 0.66838 0.63469 0.36862 0.0
C51 C 0.71022 0.5743 0.57134 0.0
O52 O 0.64283 0.53826 0.55173 0.0
O53 O 0.76395 0.59715 0.51984 0.0
O54 O 0.48458 0.44594 0.44404 0.0
O55 O 0.54093 0.38067 0.43684 0.0
O56 O -0.05425 0.76107 0.76837 0.0
Cd57 Cd 0.05443 0.80349 0.73365 0.0
Cd58 Cd 0.0124 0.64308 0.77155 0.0
O59 O -0.07651 0.64891 0.80918 0.0
O60 O 0.09964 -0.08739 0.69391 0.0
O61 O 0.08843 0.82317 0.6127 0.0
C62 C 0.10891 0.89294 0.62204 0.0
C63 C -0.00939 0.52189 0.74509 0.0
C64 C -0.09431 0.69863 0.80527 0.0
C65 C 0.10944 0.75723 0.88534 0.0
O66 O 0.09328 0.69523 0.8536 0.0
O67 O 0.10624 0.80772 0.84393 0.0
O68 O -0.0136 0.54329 0.81725 0.0
O69 O 0.00601 0.56829 0.68556 0.0
O70 O 0.21665 0.01087 0.16776 0.0
Cd71 Cd 0.20853 -0.00161 1.04461 0.0
Cd72 Cd 0.15896 0.09537 1.06826 0.0
O73 O 0.2469 0.12831 0.14991 0.0
O74 O 0.25587 -0.06047 1.01837 0.0
O75 O 0.309 0.0613 0.99483 0.0
C76 C 0.31388 0.00188 1.00054 0.0
C77 C 0.12783 0.15526 0.96748 0.0
C78 C 0.2469 0.07718 0.19425 0.0
C79 C 0.05737 -0.06177 1.06621 0.0
O80 O 0.07317 -0.00408 0.10793 0.0
O81 O 0.10017 -0.05507 1.00764 0.0
O82 O 0.12565 0.16878 1.04458 0.0
O83 O 0.15403 0.11326 0.94741 0.0
O84 O 0.63169 0.71947 0.41311 0.0
Cd85 Cd 0.56782 0.76144 0.45918 0.0
Cd86 Cd 0.46353 0.59692 0.41584 0.0
O87 O 0.55756 0.59797 0.43677 0.0
O88 O 0.63385 0.8741 0.47875 0.0
O89 O 0.57497 0.79551 0.57917 0.0
C90 C 0.61834 0.86368 0.55569 0.0
C91 C 0.34797 0.48769 0.42746 0.0
C92 C 0.61799 0.65201 0.41107 0.0
C93 C 0.4785 0.7145 0.30796 0.0
O94 O 0.47358 0.65158 0.31136 0.0
O95 O 0.49594 0.75735 0.3704 0.0
O96 O 0.39647 0.49148 0.37782 0.0
O97 O 0.36518 0.54473 0.47368 0.0
O98 O 0.81696 0.72949 0.8426 0.0
Cd99 Cd 0.70679 0.66437 0.82091 0.0
Cd100 Cd 0.78155 0.53481 0.7994 0.0
O101 O 0.79347 0.61772 0.87421 0.0
O102 O 0.6578 0.72669 0.83258 0.0
O103 O 0.63998 0.63844 0.92094 0.0
C104 C 0.62851 0.6917 0.90027 0.0
C105 C 0.77784 0.42145 0.81325 0.0
C106 C 0.8391 0.68374 0.84924 0.0
C107 C 0.72556 0.58493 0.65873 0.0
O108 O 0.76778 0.56326 0.68579 0.0
O109 O 0.69172 0.609 0.70406 0.0
O110 O 0.83943 0.48408 0.8085 0.0
O111 O 0.71816 0.4237 0.81682 0.0
O112 O 0.12602 0.8224 1.00779 0.0
Cd113 Cd 0.12428 0.82596 0.13153 0.0
Cd114 Cd -0.00697 0.71739 0.10382 0.0
O115 O 0.05555 0.70019 1.01408 0.0
O116 O 0.22707 0.88362 0.16869 0.0
O117 O 0.15773 0.75908 0.17448 0.0
C118 C 0.22183 0.81926 0.17682 0.0
C119 C -0.07658 0.65919 0.22244 0.0
C120 C 0.10215 0.75923 0.97475 0.0
C121 C 0.0224 0.8672 0.11055 0.0
O122 O -0.01204 0.80893 1.06685 0.0
O123 O 0.05785 0.86414 0.1719 0.0
O124 O -0.10363 0.63591 0.14986 0.0
O125 O -0.00779 0.70972 0.22764 0.0
O126 O 0.1179 0.08364 0.40668 0.0
Cd127 Cd 0.18082 0.03839 0.44137 0.0
Cd128 Cd 0.29382 0.20234 0.41446 0.0
O129 O 0.19912 0.20529 0.42063 0.0
O130 O 0.11298 -0.07078 0.47917 0.0
O131 O 0.18971 0.01683 0.56316 0.0
C132 C 0.1389 -0.05217 0.55243 0.0
C133 C 0.40916 0.31308 0.43353 0.0
C134 C 0.13584 0.15214 0.40018 0.0
C135 C 0.2627 0.09055 0.28195 0.0
O136 O 0.28972 0.15755 0.30492 0.0
O137 O 0.23201 0.0357 0.33263 0.0
O138 O 0.36163 0.3102 0.38334 0.0
O139 O 0.39135 0.25424 0.47654 0.0
O140 O -0.09456 0.14429 0.83909 0.0
Cd141 Cd 0.01639 0.20124 0.81691 0.0
Cd142 Cd -0.0503 0.32406 0.73364 0.0
O143 O -0.08296 0.25342 0.82965 0.0
O144 O 0.05567 0.13336 0.84565 0.0
O145 O 0.0867 0.23683 0.91442 0.0
C146 C 0.09126 0.17754 0.90568 0.0
C147 C -0.02265 0.44642 0.73337 0.0
C148 C -0.11873 0.18437 0.81137 0.0
C149 C 0.01273 0.24918 0.63065 0.0
O150 O -0.02292 0.28251 0.63847 0.0
O151 O 0.03727 0.22798 0.69061 0.0
O152 O -0.08452 0.39414 0.70445 0.0
O153 O 0.02308 0.42884 0.76266 0.0
O154 O 0.57267 0.0329 0.95584 0.0
Cd155 Cd 0.49128 0.00712 1.03775 0.0
Cd156 Cd 0.68069 0.04734 0.15203 0.0
O157 O 0.67817 0.06393 1.02358 0.0
O158 O 0.38802 -0.05428 1.00015 0.0
O159 O 0.44259 0.06749 1.02879 0.0
C160 C 0.38485 0.00621 1.00528 0.0
C161 C 0.78853 0.10138 0.23461 0.0
C162 C 0.64061 0.05469 0.958 0.0
C163 C 0.53805 -0.0627 0.14577 0.0
O164 O 0.59132 -0.05041 0.19099 0.0
O165 O 0.51704 -0.01561 0.14858 0.0
O166 O 0.76968 0.04339 0.1892 0.0
O167 O 0.74788 0.13091 0.23182 0.0
loop_
_geom_bond_atom_site_label_1
_geom_bond_atom_site_label_2
_geom_bond_distance
_geom_bond_site_symmetry_2
_ccdc_geom_bond_type
O0 Cd1 2.223 . S
O0 C8 1.315 . S
Cd1 O0 2.223 . S
Cd1 O4 2.297 1_455 S
Cd1 O5 2.439 . S
Cd1 O11 2.240 . S
Cd2 O3 2.240 . S
Cd2 O10 2.223 . S
Cd2 O12 2.297 . S
Cd2 O13 2.439 . S
O3 Cd2 2.240 . S
O3 C8 1.279 . S
O4 Cd1 2.297 1_655 S
O4 C6 1.247 . S
O5 Cd1 2.439 . S
O5 C6 1.208 1_455 S
C6 O4 1.247 . S
C6 O5 1.208 1_655 S
C7 O12 1.247 . S
C7 O13 1.208 . S
C8 O0 1.315 . S
C8 O3 1.279 . S
C9 O10 1.315 . S
C9 O11 1.279 . S
O10 Cd2 2.223 . S
O10 C9 1.315 . S
O11 Cd1 2.240 . S
O11 C9 1.279 . S
O12 Cd2 2.297 . S
O12 C7 1.247 . S
O13 Cd2 2.439 . S
O13 C7 1.208 . S
O14 Cd15 2.223 . S
O14 C22 1.315 . S
Cd15 O14 2.223 . S
Cd15 O18 2.297 1_545 S
Cd15 O19 2.439 . S
Cd15 O25 2.240 . S
Cd16 O17 2.240 . S
Cd16 O24 2.223 . S
Cd16 O26 2.297 . S
Cd16 O27 2.439 . S
O17 Cd16 2.240 . S
O17 C22 1.279 . S
O18 Cd15 2.297 1_565 S
O18 C20 1.247 . S
O19 Cd15 2.439 . S
O19 C20 1.208 1_545 S
C20 O18 1.247 . S
C20 O19 1.208 1_565 S
C21 O26 1.247 . S
C21 O27 1.208 . S
C22 O14 1.315 . S
C22 O17 1.279 . S
C23 O24 1.315 . S
C23 O25 1.279 . S
O24 Cd16 2.223 . S
O24 C23 1.315 . S
O25 Cd15 2.240 . S
O25 C23 1.279 . S
O26 Cd16 2.297 . S
O26 C21 1.247 . S
O27 Cd16 2.439 . S
O27 C21 1.208 . S
O28 Cd29 2.223 . S
O28 C36 1.315 . S
Cd29 O28 2.223 . S
Cd29 O32 2.297 . S
Cd29 O33 2.439 1_554 S
Cd29 O39 2.240 1_554 S
Cd30 O31 2.240 . S
Cd30 O38 2.223 . S
Cd30 O40 2.297 1_554 S
Cd30 O41 2.439 1_554 S
O31 Cd30 2.240 . S
O31 C36 1.279 . S
O32 Cd29 2.297 . S
O32 C34 1.247 . S
O33 Cd29 2.439 1_556 S
O33 C34 1.208 1_556 S
C34 O32 1.247 . S
C34 O33 1.208 1_554 S
C35 O40 1.247 . S
C35 O41 1.208 . S
C36 O28 1.315 . S
C36 O31 1.279 . S
C37 O38 1.321 . S
C37 O39 1.272 1_554 S
O38 Cd30 2.223 . S
O38 C37 1.321 . S
O39 Cd29 2.240 1_556 S
O39 C37 1.272 1_556 S
O40 Cd30 2.297 1_556 S
O40 C35 1.247 . S
O41 Cd30 2.439 1_556 S
O41 C35 1.208 . S
O42 Cd43 2.223 . S
O42 C50 1.315 . S
Cd43 O42 2.223 . S
Cd43 O46 2.297 1_655 S
Cd43 O47 2.439 . S
Cd43 O53 2.240 . S
Cd44 O45 2.240 . S
Cd44 O52 2.223 . S
Cd44 O54 2.297 . S
Cd44 O55 2.439 . S
O45 Cd44 2.240 . S
O45 C50 1.279 . S
O46 Cd43 2.297 1_455 S
O46 C48 1.247 . S
O47 Cd43 2.439 . S
O47 C48 1.208 1_655 S
C48 O46 1.247 . S
C48 O47 1.208 1_455 S
C49 O54 1.247 . S
C49 O55 1.208 . S
C50 O42 1.315 . S
C50 O45 1.279 . S
C51 O52 1.315 . S
C51 O53 1.279 . S
O52 Cd44 2.223 . S
O52 C51 1.315 . S
O53 Cd43 2.240 . S
O53 C51 1.279 . S
O54 Cd44 2.297 . S
O54 C49 1.247 . S
O55 Cd44 2.439 . S
O55 C49 1.208 . S
O56 Cd57 2.223 . S
O56 C64 1.315 . S
Cd57 O56 2.223 . S
Cd57 O60 2.297 1_565 S
Cd57 O61 2.439 . S
Cd57 O67 2.240 . S
Cd58 O59 2.240 . S
Cd58 O66 2.223 . S
Cd58 O68 2.297 . S
Cd58 O69 2.439 . S
O59 Cd58 2.240 . S
O59 C64 1.279 . S
O60 Cd57 2.297 1_545 S
O60 C62 1.247 . S
O61 Cd57 2.439 . S
O61 C62 1.208 1_565 S
C62 O60 1.247 . S
C62 O61 1.208 1_545 S
C63 O68 1.247 . S
C63 O69 1.208 . S
C64 O56 1.315 . S
C64 O59 1.279 . S
C65 O66 1.315 . S
C65 O67 1.279 . S
O66 Cd58 2.223 . S
O66 C65 1.315 . S
O67 Cd57 2.240 . S
O67 C65 1.279 . S
O68 Cd58 2.297 . S
O68 C63 1.247 . S
O69 Cd58 2.439 . S
O69 C63 1.208 . S
O70 Cd71 2.223 . S
O70 C78 1.315 . S
Cd71 O70 2.223 . S
Cd71 O74 2.297 . S
Cd71 O75 2.439 1_554 S
Cd71 O81 2.240 1_554 S
Cd72 O73 2.240 . S
Cd72 O80 2.223 . S
Cd72 O82 2.297 1_554 S
Cd72 O83 2.439 1_554 S
O73 Cd72 2.240 . S
O73 C78 1.279 . S
O74 Cd71 2.297 . S
O74 C76 1.247 . S
O75 Cd71 2.439 1_556 S
O75 C76 1.208 1_556 S
C76 O74 1.247 . S
C76 O75 1.208 1_554 S
C77 O82 1.247 . S
C77 O83 1.208 . S
C78 O70 1.315 . S
C78 O73 1.279 . S
C79 O80 1.321 . S
C79 O81 1.272 1_554 S
O80 Cd72 2.223 . S
O80 C79 1.321 . S
O81 Cd71 2.240 1_556 S
O81 C79 1.272 1_556 S
O82 Cd72 2.297 1_556 S
O82 C77 1.247 . S
O83 Cd72 2.439 1_556 S
O83 C77 1.208 . S
O84 Cd85 2.223 . S
O84 C92 1.315 . S
Cd85 O84 2.223 . S
Cd85 O88 2.297 1_565 S
Cd85 O89 2.439 . S
Cd85 O95 2.240 . S
Cd86 O87 2.240 . S
Cd86 O94 2.223 . S
Cd86 O96 2.297 . S
Cd86 O97 2.439 . S
O87 Cd86 2.240 . S
O87 C92 1.279 . S
O88 Cd85 2.297 1_545 S
O88 C90 1.247 . S
O89 Cd85 2.439 . S
O89 C90 1.208 1_565 S
C90 O88 1.247 . S
C90 O89 1.208 1_545 S
C91 O96 1.247 . S
C91 O97 1.208 . S
C92 O84 1.315 . S
C92 O87 1.279 . S
C93 O94 1.315 . S
C93 O95 1.279 . S
O94 Cd86 2.223 . S
O94 C93 1.315 . S
O95 Cd85 2.240 . S
O95 C93 1.279 . S
O96 Cd86 2.297 . S
O96 C91 1.247 . S
O97 Cd86 2.439 . S
O97 C91 1.208 . S
O98 Cd99 2.223 . S
O98 C106 1.315 . S
Cd99 O98 2.223 . S
Cd99 O102 2.297 . S
Cd99 O103 2.439 . S
Cd99 O109 2.240 . S
Cd100 O101 2.240 . S
Cd100 O108 2.223 . S
Cd100 O110 2.297 . S
Cd100 O111 2.439 . S
O101 Cd100 2.240 . S
O101 C106 1.279 . S
O102 Cd99 2.297 . S
O102 C104 1.247 . S
O103 Cd99 2.439 . S
O103 C104 1.208 . S
C104 O102 1.247 . S
C104 O103 1.208 . S
C105 O110 1.247 . S
C105 O111 1.208 . S
C106 O98 1.315 . S
C106 O101 1.279 . S
C107 O108 1.315 . S
C107 O109 1.279 . S
O108 Cd100 2.223 . S
O108 C107 1.315 . S
O109 Cd99 2.240 . S
O109 C107 1.279 . S
O110 Cd100 2.297 . S
O110 C105 1.247 . S
O111 Cd100 2.439 . S
O111 C105 1.208 . S
O112 Cd113 2.223 . S
O112 C120 1.315 . S
Cd113 O112 2.223 . S
Cd113 O116 2.297 . S
Cd113 O117 2.439 1_556 S
Cd113 O123 2.240 1_556 S
Cd114 O115 2.240 . S
Cd114 O122 2.223 . S
Cd114 O124 2.297 1_456 S
Cd114 O125 2.439 1_556 S
O115 Cd114 2.240 . S
O115 C120 1.279 . S
O116 Cd113 2.297 . S
O116 C118 1.247 . S
O117 Cd113 2.439 1_554 S
O117 C118 1.208 1_554 S
C118 O116 1.247 . S
C118 O117 1.208 1_556 S
C119 O124 1.247 . S
C119 O125 1.208 1_655 S
C120 O112 1.315 . S
C120 O115 1.279 . S
C121 O122 1.321 . S
C121 O123 1.272 1_556 S
O122 Cd114 2.223 . S
O122 C121 1.321 . S
O123 Cd113 2.240 1_554 S
O123 C121 1.272 1_554 S
O124 Cd114 2.297 1_654 S
O124 C119 1.247 . S
O125 Cd114 2.439 1_554 S
O125 C119 1.208 1_455 S
O126 Cd127 2.223 . S
O126 C134 1.315 . S
Cd127 O126 2.223 . S
Cd127 O130 2.297 1_545 S
Cd127 O131 2.439 . S
Cd127 O137 2.240 . S
Cd128 O129 2.240 . S
Cd128 O136 2.223 . S
Cd128 O138 2.297 . S
Cd128 O139 2.439 . S
O129 Cd128 2.240 . S
O129 C134 1.279 . S
O130 Cd127 2.297 1_565 S
O130 C132 1.247 . S
O131 Cd127 2.439 . S
O131 C132 1.208 1_545 S
C132 O130 1.247 . S
C132 O131 1.208 1_565 S
C133 O138 1.247 . S
C133 O139 1.208 . S
C134 O126 1.315 . S
C134 O129 1.279 . S
C135 O136 1.315 . S
C135 O137 1.279 . S
O136 Cd128 2.223 . S
O136 C135 1.315 . S
O137 Cd127 2.240 . S
O137 C135 1.279 . S
O138 Cd128 2.297 . S
O138 C133 1.247 . S
O139 Cd128 2.439 . S
O139 C133 1.208 . S
O140 Cd141 2.223 . S
O140 C148 1.315 . S
Cd141 O140 2.223 . S
Cd141 O144 2.297 . S
Cd141 O145 2.439 . S
Cd141 O151 2.240 . S
Cd142 O143 2.240 . S
Cd142 O150 2.223 . S
Cd142 O152 2.297 . S
Cd142 O153 2.439 . S
O143 Cd142 2.240 . S
O143 C148 1.279 . S
O144 Cd141 2.297 . S
O144 C146 1.247 . S
O145 Cd141 2.439 . S
O145 C146 1.208 . S
C146 O144 1.247 . S
C146 O145 1.208 . S
C147 O152 1.247 . S
C147 O153 1.208 . S
C148 O140 1.315 . S
C148 O143 1.279 . S
C149 O150 1.315 . S
C149 O151 1.279 . S
O150 Cd142 2.223 . S
O150 C149 1.315 . S
O151 Cd141 2.240 . S
O151 C149 1.279 . S
O152 Cd142 2.297 . S
O152 C147 1.247 . S
O153 Cd142 2.439 . S
O153 C147 1.208 . S
O154 Cd155 2.223 . S
O154 C162 1.315 . S
Cd155 O154 2.223 . S
Cd155 O158 2.297 . S
Cd155 O159 2.439 1_556 S
Cd155 O165 2.240 1_556 S
Cd156 O157 2.240 . S
Cd156 O164 2.223 . S
Cd156 O166 2.297 1_656 S
Cd156 O167 2.439 1_556 S
O157 Cd156 2.240 . S
O157 C162 1.279 . S
O158 Cd155 2.297 . S
O158 C160 1.247 . S
O159 Cd155 2.439 1_554 S
O159 C160 1.208 1_554 S
C160 O158 1.247 . S
C160 O159 1.208 1_556 S
C161 O166 1.247 . S
C161 O167 1.208 1_455 S
C162 O154 1.315 . S
C162 O157 1.279 . S
C163 O164 1.321 . S
C163 O165 1.272 1_556 S
O164 Cd156 2.223 . S
O164 C163 1.321 . S
O165 Cd155 2.240 1_554 S
O165 C163 1.272 1_554 S
O166 Cd156 2.297 1_454 S
O166 C161 1.247 . S
O167 Cd156 2.439 1_554 S
O167 C161 1.208 1_655 S
C7 C91 1.778 . S
C21 C105 1.778 . S
C34 C118 1.559 1_554 S
C133 C49 1.778 . S
C63 C147 1.778 . S
C160 C76 1.559 1_556 S
C8 C134 2.019 . S
C22 C148 2.019 1_655 S
C163 C37 1.823 1_546 S
C92 C50 2.019 . S
C64 C106 2.019 1_455 S
C79 C121 1.823 1_544 S
C161 C6 1.770 1_455 S
C20 C90 2.068 1_565 S
C35 C104 1.771 . S
C119 C48 1.770 1_655 S
C132 C62 2.068 1_565 S
C77 C146 1.771 . S
C9 C149 1.060 . S
C162 C23 1.297 . S
C93 C36 1.297 . S
C51 C107 1.060 . S
C120 C65 1.297 . S
C135 C78 1.297 . S
