# Generated by pormake.
# Topology umf, (4)-cn, num edge types: 1
# Building blocks:
#     Node 0, Type 0, BuildingBlock: NAWXER_clean_sbu_0, # of connection points: 4
#     Node 1, Type 0, BuildingBlock: NAWXER_clean_sbu_0, # of connection points: 4
#     Node 2, Type 0, BuildingBlock: NAWXER_clean_sbu_0, # of connection points: 4
#     Node 3, Type 0, BuildingBlock: NAWXER_clean_sbu_0, # of connection points: 4
#     Node 4, Type 0, BuildingBlock: NAWXER_clean_sbu_0, # of connection points: 4
#     Node 5, Type 0, BuildingBlock: NAWXER_clean_sbu_0, # of connection points: 4
#     Node 6, Type 0, BuildingBlock: NAWXER_clean_sbu_0, # of connection points: 4
#     Node 7, Type 0, BuildingBlock: NAWXER_clean_sbu_0, # of connection points: 4
#     Edge 8, Type (0, 0), None
#     Edge 9, Type (0, 0), None
#     Edge 10, Type (0, 0), None
#     Edge 11, Type (0, 0), None
#     Edge 12, Type (0, 0), None
#     Edge 13, Type (0, 0), None
#     Edge 14, Type (0, 0), None
#     Edge 15, Type (0, 0), None
#     Edge 16, Type (0, 0), None
#     Edge 17, Type (0, 0), None
#     Edge 18, Type (0, 0), None
#     Edge 19, Type (0, 0), None
#     Edge 20, Type (0, 0), None
#     Edge 21, Type (0, 0), None
#     Edge 22, Type (0, 0), None
#     Edge 23, Type (0, 0), None
# Relax obj value: 0.064
# Max RMSD: 0.167
# Mean RMSD: 0.166
data_MOF--net-umf--node1-NAWXER_clean_sbu_0--edge1-none
_symmetry_space_group_name_H-M    P1
_symmetry_Int_Tables_number       1
_symmetry_cell_setting            triclinic
loop_
_symmetry_equiv_pos_as_xyz
'x, y, z'
_cell_length_a     12.897999
_cell_length_b     12.897999
_cell_length_c     22.490307
_cell_angle_alpha  89.999261
_cell_angle_beta   90.000121
_cell_angle_gamma 89.999988
loop_
_atom_site_label
_atom_site_type_symbol
_atom_site_fract_x
_atom_site_fract_y
_atom_site_fract_z
_atom_type_partial_charge
C0 C 0.20191 0.24657 0.27307 0.0
C1 C 0.01547 0.24447 0.07943 0.0
O2 O 0.10312 0.24602 0.27399 0.0
Zn3 Zn 0.97395 0.24391 0.21736 0.0
O4 O 0.24955 0.24235 0.22325 0.0
Zn5 Zn 0.12478 0.24299 0.17363 0.0
O6 O 0.07193 0.39237 0.19575 0.0
O7 O 0.91697 0.37973 0.23721 0.0
O8 O 0.11375 0.24357 0.08614 0.0
O9 O 0.95717 0.24487 0.12505 0.0
O10 O 0.9181 0.10471 0.23614 0.0
O11 O 0.07284 0.09179 0.19538 0.0
C12 C -0.00619 0.43489 0.22035 0.0
C13 C -0.00575 0.04865 0.21928 0.0
C14 C 0.73629 0.20191 0.77307 0.0
C15 C 0.73839 0.01547 0.57943 0.0
O16 O 0.73684 0.10312 0.77399 0.0
Zn17 Zn 0.73895 0.97395 0.71736 0.0
O18 O 0.74051 0.24955 0.72325 0.0
Zn19 Zn 0.73987 0.12478 0.67363 0.0
O20 O 0.59049 0.07193 0.69575 0.0
O21 O 0.60314 0.91697 0.73721 0.0
O22 O 0.73929 0.11376 0.58614 0.0
O23 O 0.738 0.95717 0.62505 0.0
O24 O 0.87815 0.9181 0.73614 0.0
O25 O 0.89107 0.07284 0.69538 0.0
C26 C 0.54797 -0.00619 0.72035 0.0
C27 C 0.93421 -0.00575 0.71928 0.0
C28 C 0.98905 0.54797 0.22035 0.0
C29 C 0.98862 0.93419 0.21928 0.0
O30 O 0.91093 0.59048 0.19575 0.0
Zn31 Zn 0.85808 0.73986 0.17363 0.0
O32 O 0.06589 0.60312 0.23721 0.0
Zn33 Zn 0.00892 0.73894 0.21736 0.0
O34 O 0.87975 0.73683 0.27399 0.0
O35 O 0.73332 0.74051 0.22325 0.0
O36 O 0.06478 0.87814 0.23614 0.0
O37 O 0.91002 0.89106 0.19538 0.0
O38 O 0.86911 0.73929 0.08615 0.0
O39 O 0.02569 0.73799 0.12506 0.0
C40 C 0.78096 0.73628 0.27308 0.0
C41 C 0.96739 0.73839 0.07943 0.0
C42 C 0.43489 0.98906 0.72035 0.0
C43 C 0.04867 0.98862 0.71928 0.0
O44 O 0.39238 0.91093 0.69575 0.0
Zn45 Zn 0.243 0.85809 0.67363 0.0
O46 O 0.37974 0.06589 0.73721 0.0
Zn47 Zn 0.24392 0.00892 0.71736 0.0
O48 O 0.24603 0.87975 0.77399 0.0
O49 O 0.24235 0.73332 0.72325 0.0
O50 O 0.10472 0.06478 0.73614 0.0
O51 O 0.0918 0.91003 0.69538 0.0
O52 O 0.24358 0.86911 0.58615 0.0
O53 O 0.24487 0.02569 0.62505 0.0
C54 C 0.24658 0.78096 0.77307 0.0
C55 C 0.24448 0.96739 0.57943 0.0
C56 C -0.00575 0.93421 0.88003 0.0
C57 C -0.0062 0.54798 0.879 0.0
O58 O 0.07285 0.89108 0.90392 0.0
Zn59 Zn 0.12481 0.73989 0.92567 0.0
O60 O 0.91808 0.87815 0.86319 0.0
Zn61 Zn 0.97393 0.73895 0.88197 0.0
O62 O 0.95721 0.738 0.97427 0.0
O63 O 0.1138 0.73932 1.01317 0.0
O64 O 0.91696 0.60313 0.86214 0.0
O65 O 0.07194 0.5905 0.90358 0.0
O66 O 0.24957 0.74054 0.87604 0.0
O67 O 0.10305 0.73681 0.82531 0.0
C68 C 0.01552 0.7384 1.01989 0.0
C69 C 0.20185 0.73628 0.82625 0.0
C70 C 0.04866 -0.00576 0.38003 0.0
C71 C 0.4349 -0.0062 0.379 0.0
O72 O 0.09179 0.07285 0.40392 0.0
Zn73 Zn 0.24298 0.12481 0.42567 0.0
O74 O 0.10472 0.91808 0.36319 0.0
Zn75 Zn 0.24392 0.97393 0.38196 0.0
O76 O 0.24487 0.95721 0.47427 0.0
O77 O 0.24355 0.1138 0.51316 0.0
O78 O 0.37975 0.91695 0.36214 0.0
O79 O 0.39237 0.07194 0.40357 0.0
O80 O 0.24233 0.24957 0.37604 0.0
O81 O 0.24606 0.10305 0.32531 0.0
C82 C 0.24447 0.01552 0.51989 0.0
C83 C 0.24659 0.20184 0.32624 0.0
C84 C 0.98862 0.04867 0.88003 0.0
C85 C 0.98906 0.4349 0.879 0.0
O86 O 0.91001 0.0918 0.90392 0.0
Zn87 Zn 0.85805 0.24298 0.92567 0.0
O88 O 0.06479 0.10473 0.86319 0.0
Zn89 Zn 0.00893 0.24393 0.88196 0.0
O90 O 0.02565 0.24488 0.97427 0.0
O91 O 0.86906 0.24355 1.01316 0.0
O92 O 0.0659 0.37975 0.86214 0.0
O93 O 0.91091 0.39237 0.90357 0.0
O94 O 0.73329 0.24233 0.87604 0.0
O95 O 0.87981 0.24606 0.82531 0.0
C96 C 0.96734 0.24447 1.01989 0.0
C97 C 0.78102 0.24659 0.82624 0.0
C98 C 0.9342 0.98862 0.38003 0.0
C99 C 0.54798 0.98905 0.379 0.0
O100 O 0.89108 0.91001 0.40393 0.0
Zn101 Zn 0.73989 0.85805 0.42567 0.0
O102 O 0.87815 0.06479 0.36319 0.0
Zn103 Zn 0.73895 0.00893 0.38196 0.0
O104 O 0.73799 0.02565 0.47427 0.0
O105 O 0.73932 0.86906 0.51317 0.0
O106 O 0.60312 0.0659 0.36214 0.0
O107 O 0.5905 0.91091 0.40358 0.0
O108 O 0.74054 0.73329 0.37604 0.0
O109 O 0.73681 0.8798 0.32531 0.0
C110 C 0.7384 0.96734 0.51989 0.0
C111 C 0.73629 0.78101 0.32625 0.0
loop_
_geom_bond_atom_site_label_1
_geom_bond_atom_site_label_2
_geom_bond_distance
_geom_bond_site_symmetry_2
_ccdc_geom_bond_type
C0 O2 1.247 . S
C0 O4 1.258 . S
C1 O8 1.247 . S
C1 O9 1.258 1_455 S
O2 C0 1.247 . S
O2 Zn3 2.028 1_455 S
Zn3 O2 2.028 1_655 S
Zn3 O7 2.035 . S
Zn3 O9 2.035 . S
Zn3 O10 2.028 . S
O4 C0 1.258 . S
O4 Zn5 2.035 . S
Zn5 O4 2.035 . S
Zn5 O6 2.028 . S
Zn5 O8 2.028 . S
Zn5 O11 2.035 . S
O6 Zn5 2.028 . S
O6 C12 1.247 . S
O7 Zn3 2.035 . S
O7 C12 1.258 1_655 S
O8 C1 1.247 . S
O8 Zn5 2.028 . S
O9 C1 1.258 1_655 S
O9 Zn3 2.035 . S
O10 Zn3 2.028 . S
O10 C13 1.247 1_655 S
O11 Zn5 2.035 . S
O11 C13 1.258 . S
C12 O6 1.247 . S
C12 O7 1.258 1_455 S
C13 O10 1.247 1_455 S
C13 O11 1.258 . S
C14 O16 1.247 . S
C14 O18 1.258 . S
C15 O22 1.247 . S
C15 O23 1.258 1_545 S
O16 C14 1.247 . S
O16 Zn17 2.028 1_545 S
Zn17 O16 2.028 1_565 S
Zn17 O21 2.035 . S
Zn17 O23 2.035 . S
Zn17 O24 2.028 . S
O18 C14 1.258 . S
O18 Zn19 2.035 . S
Zn19 O18 2.035 . S
Zn19 O20 2.028 . S
Zn19 O22 2.028 . S
Zn19 O25 2.035 . S
O20 Zn19 2.028 . S
O20 C26 1.247 . S
O21 Zn17 2.035 . S
O21 C26 1.258 1_565 S
O22 C15 1.247 . S
O22 Zn19 2.028 . S
O23 C15 1.258 1_565 S
O23 Zn17 2.035 . S
O24 Zn17 2.028 . S
O24 C27 1.247 1_565 S
O25 Zn19 2.035 . S
O25 C27 1.258 . S
C26 O20 1.247 . S
C26 O21 1.258 1_545 S
C27 O24 1.247 1_545 S
C27 O25 1.258 . S
C28 O30 1.247 . S
C28 O32 1.258 1_655 S
C29 O36 1.247 1_655 S
C29 O37 1.258 . S
O30 C28 1.247 . S
O30 Zn31 2.028 . S
Zn31 O30 2.028 . S
Zn31 O35 2.035 . S
Zn31 O37 2.035 . S
Zn31 O38 2.028 . S
O32 C28 1.258 1_455 S
O32 Zn33 2.035 . S
Zn33 O32 2.035 . S
Zn33 O34 2.028 1_455 S
Zn33 O36 2.028 . S
Zn33 O39 2.035 . S
O34 Zn33 2.028 1_655 S
O34 C40 1.247 . S
O35 Zn31 2.035 . S
O35 C40 1.258 . S
O36 C29 1.247 1_455 S
O36 Zn33 2.028 . S
O37 C29 1.258 . S
O37 Zn31 2.035 . S
O38 Zn31 2.028 . S
O38 C41 1.247 . S
O39 Zn33 2.035 . S
O39 C41 1.258 1_455 S
C40 O34 1.247 . S
C40 O35 1.258 . S
C41 O38 1.247 . S
C41 O39 1.258 1_655 S
C42 O44 1.247 . S
C42 O46 1.258 1_565 S
C43 O50 1.247 1_565 S
C43 O51 1.258 . S
O44 C42 1.247 . S
O44 Zn45 2.028 . S
Zn45 O44 2.028 . S
Zn45 O49 2.035 . S
Zn45 O51 2.035 . S
Zn45 O52 2.028 . S
O46 C42 1.258 1_545 S
O46 Zn47 2.035 . S
Zn47 O46 2.035 . S
Zn47 O48 2.028 1_545 S
Zn47 O50 2.028 . S
Zn47 O53 2.035 . S
O48 Zn47 2.028 1_565 S
O48 C54 1.247 . S
O49 Zn45 2.035 . S
O49 C54 1.258 . S
O50 C43 1.247 1_545 S
O50 Zn47 2.028 . S
O51 C43 1.258 . S
O51 Zn45 2.035 . S
O52 Zn45 2.028 . S
O52 C55 1.247 . S
O53 Zn47 2.035 . S
O53 C55 1.258 1_545 S
C54 O48 1.247 . S
C54 O49 1.258 . S
C55 O52 1.247 . S
C55 O53 1.258 1_565 S
C56 O58 1.247 . S
C56 O60 1.258 1_455 S
C57 O64 1.247 1_455 S
C57 O65 1.258 . S
O58 C56 1.247 . S
O58 Zn59 2.028 . S
Zn59 O58 2.028 . S
Zn59 O63 2.035 . S
Zn59 O65 2.035 . S
Zn59 O66 2.028 . S
O60 C56 1.258 1_655 S
O60 Zn61 2.035 . S
Zn61 O60 2.035 . S
Zn61 O62 2.028 . S
Zn61 O64 2.028 . S
Zn61 O67 2.035 1_655 S
O62 Zn61 2.028 . S
O62 C68 1.247 1_655 S
O63 Zn59 2.035 . S
O63 C68 1.258 . S
O64 C57 1.247 1_655 S
O64 Zn61 2.028 . S
O65 C57 1.258 . S
O65 Zn59 2.035 . S
O66 Zn59 2.028 . S
O66 C69 1.247 . S
O67 Zn61 2.035 1_455 S
O67 C69 1.258 . S
C68 O62 1.247 1_455 S
C68 O63 1.258 . S
C69 O66 1.247 . S
C69 O67 1.258 . S
C70 O72 1.247 . S
C70 O74 1.258 1_545 S
C71 O78 1.247 1_545 S
C71 O79 1.258 . S
O72 C70 1.247 . S
O72 Zn73 2.028 . S
Zn73 O72 2.028 . S
Zn73 O77 2.035 . S
Zn73 O79 2.035 . S
Zn73 O80 2.028 . S
O74 C70 1.258 1_565 S
O74 Zn75 2.035 . S
Zn75 O74 2.035 . S
Zn75 O76 2.028 . S
Zn75 O78 2.028 . S
Zn75 O81 2.035 1_565 S
O76 Zn75 2.028 . S
O76 C82 1.247 1_565 S
O77 Zn73 2.035 . S
O77 C82 1.258 . S
O78 C71 1.247 1_565 S
O78 Zn75 2.028 . S
O79 C71 1.258 . S
O79 Zn73 2.035 . S
O80 Zn73 2.028 . S
O80 C83 1.247 . S
O81 Zn75 2.035 1_545 S
O81 C83 1.258 . S
C82 O76 1.247 1_545 S
C82 O77 1.258 . S
C83 O80 1.247 . S
C83 O81 1.258 . S
C84 O86 1.247 . S
C84 O88 1.258 1_655 S
C85 O92 1.247 1_655 S
C85 O93 1.258 . S
O86 C84 1.247 . S
O86 Zn87 2.028 . S
Zn87 O86 2.028 . S
Zn87 O91 2.035 . S
Zn87 O93 2.035 . S
Zn87 O94 2.028 . S
O88 C84 1.258 1_455 S
O88 Zn89 2.035 . S
Zn89 O88 2.035 . S
Zn89 O90 2.028 . S
Zn89 O92 2.028 . S
Zn89 O95 2.035 1_455 S
O90 Zn89 2.028 . S
O90 C96 1.247 1_455 S
O91 Zn87 2.035 . S
O91 C96 1.258 . S
O92 C85 1.247 1_455 S
O92 Zn89 2.028 . S
O93 C85 1.258 . S
O93 Zn87 2.035 . S
O94 Zn87 2.028 . S
O94 C97 1.247 . S
O95 Zn89 2.035 1_655 S
O95 C97 1.258 . S
C96 O90 1.247 1_655 S
C96 O91 1.258 . S
C97 O94 1.247 . S
C97 O95 1.258 . S
C98 O100 1.247 . S
C98 O102 1.258 1_565 S
C99 O106 1.247 1_565 S
C99 O107 1.258 . S
O100 C98 1.247 . S
O100 Zn101 2.028 . S
Zn101 O100 2.028 . S
Zn101 O105 2.035 . S
Zn101 O107 2.035 . S
Zn101 O108 2.028 . S
O102 C98 1.258 1_545 S
O102 Zn103 2.035 . S
Zn103 O102 2.035 . S
Zn103 O104 2.028 . S
Zn103 O106 2.028 . S
Zn103 O109 2.035 1_545 S
O104 Zn103 2.028 . S
O104 C110 1.247 1_545 S
O105 Zn101 2.035 . S
O105 C110 1.258 . S
O106 C99 1.247 1_545 S
O106 Zn103 2.028 . S
O107 C99 1.258 . S
O107 Zn101 2.035 . S
O108 Zn101 2.028 . S
O108 C111 1.247 . S
O109 Zn103 2.035 1_565 S
O109 C111 1.258 . S
C110 O104 1.247 1_565 S
C110 O105 1.258 . S
C111 O108 1.247 . S
C111 O109 1.258 . S
C12 C28 2.363 1_455 S
C42 C26 2.363 1_565 S
C85 C57 2.348 1_655 S
C71 C99 2.348 1_545 S
C96 C1 1.606 1_656 S
C15 C110 1.606 1_545 S
C41 C68 1.606 1_654 S
C82 C55 1.606 1_545 S
C0 C83 1.911 . S
C97 C14 1.911 . S
C111 C40 1.911 . S
C54 C69 1.911 . S
C13 C29 1.968 1_445 S
C43 C27 1.968 1_465 S
C84 C56 1.983 1_645 S
C98 C70 1.983 1_665 S
