# Generated by pormake.
# Topology pcu, (6)-cn, num edge types: 1
# Building blocks:
#     Node 0, Type 0, BuildingBlock: BETDAH_clean_sbu_0, # of connection points: 6
#     Edge 1, Type (0, 0), BuildingBlock: CIFDUS_clean_linker_0, # of connection points: 2
#     Edge 2, Type (0, 0), BuildingBlock: CIFDUS_clean_linker_0, # of connection points: 2
#     Edge 3, Type (0, 0), BuildingBlock: CIFDUS_clean_linker_0, # of connection points: 2
# Relax obj value: 0.000
# Max RMSD: 0.000
# Mean RMSD: 0.000
data_MOF--net-pcu--node1-BETDAH_clean_sbu_0--edge1-CIFDUS_clean_linker_0
_symmetry_space_group_name_H-M    P1
_symmetry_Int_Tables_number       1
_symmetry_cell_setting            triclinic
loop_
_symmetry_equiv_pos_as_xyz
'x, y, z'
_cell_length_a     23.375561
_cell_length_b     13.565225
_cell_length_c     12.23557
_cell_angle_alpha  86.950483
_cell_angle_beta   98.733996
_cell_angle_gamma 124.71786
loop_
_atom_site_label
_atom_site_type_symbol
_atom_site_fract_x
_atom_site_fract_y
_atom_site_fract_z
_atom_type_partial_charge
Ho0 Ho 0.9588 0.91279 0.04616 0.0
Ho1 Ho 0.11275 0.05262 1.01723 0.0
C2 C 0.04733 0.20164 1.01263 0.0
C3 C 0.83845 0.83575 0.10478 0.0
C4 C 0.78939 0.87276 0.09218 0.0
C5 C 0.81174 -0.01079 0.12319 0.0
C6 C 0.76424 0.02208 0.10883 0.0
C7 C 0.69339 0.93921 0.06324 0.0
C8 C 0.67131 0.82269 0.03265 0.0
C9 C 0.71878 0.78991 0.04719 0.0
C10 C 0.98254 0.91796 0.8359 0.0
C11 C 1.02419 0.76374 0.05043 0.0
C12 C 0.2333 0.12999 0.9592 0.0
C13 C 0.28232 0.09292 0.97165 0.0
C14 C 0.25992 0.97646 0.94057 0.0
C15 C 0.30739 0.94353 0.95482 0.0
C16 C 0.37826 0.02634 1.00038 0.0
C17 C 0.40038 0.14287 1.03105 0.0
C18 C 0.35294 0.17571 1.01663 0.0
C19 C 0.08863 0.04736 0.2274 0.0
O20 O 0.99384 0.10623 0.05268 0.0
O21 O 0.09601 0.19734 0.97527 0.0
O22 O 0.84497 0.79862 1.01408 0.0
O23 O 0.89865 0.90355 0.16921 0.0
O24 O 0.93033 0.82631 0.87679 0.0
O25 O 1.01703 0.00477 0.90595 0.0
O26 O 0.07766 0.85917 1.01039 0.0
O27 O 0.97554 0.76805 0.08792 0.0
O28 O 0.22656 0.16652 0.05005 0.0
O29 O 0.17321 0.06259 0.89437 0.0
O30 O 0.14079 0.13919 0.18656 0.0
O31 O 0.05456 0.96064 0.15731 0.0
H32 H 0.86583 0.05491 0.15861 0.0
H33 H 0.78291 0.11209 0.13459 0.0
H34 H 0.6175 0.75712 0.99578 0.0
H35 H 0.70036 0.69969 1.02247 0.0
H36 H 0.20582 0.91081 0.90517 0.0
H37 H 0.28869 0.85352 0.92901 0.0
H38 H 0.4542 0.20839 0.06792 0.0
H39 H 0.37138 0.26593 0.04141 0.0
H40 H 0.99054 0.85456 0.33149 0.0
H41 H 0.16066 0.22912 0.38374 0.0
H42 H 0.14372 0.22276 0.57686 0.0
H43 H 0.08055 0.11057 0.73172 0.0
H44 H 0.91036 0.73606 0.67954 0.0
H45 H 0.9273 0.74236 0.48639 0.0
C46 C 1.02374 0.93468 0.38525 0.0
C47 C 0.07679 0.04206 0.34355 0.0
C48 C 1.01378 0.93035 0.49645 0.0
C49 C 0.11951 0.14525 0.41402 0.0
C50 C 0.10989 0.14174 0.52451 0.0
C51 C 0.04733 0.03044 0.67798 0.0
C52 C 0.99427 0.92309 0.71971 0.0
C53 C 0.05727 0.03476 0.56678 0.0
C54 C 0.95152 0.8199 0.64924 0.0
C55 C 0.96114 0.82339 0.53874 0.0
H56 H 0.5152 0.1599 0.96486 0.0
H57 H 0.35513 0.81368 0.07305 0.0
H58 H 0.43795 0.75631 0.10117 0.0
H59 H 0.55642 0.80559 0.09865 0.0
H60 H 0.71649 0.15183 0.99046 0.0
H61 H 0.63365 0.20917 0.9623 0.0
C62 C 0.49853 0.07228 0.99561 0.0
C63 C 0.42886 -0.00863 1.01671 0.0
C64 C 0.54663 0.04013 1.01261 0.0
C65 C 0.40803 0.87732 0.05464 0.0
C66 C 0.45554 0.84466 0.07152 0.0
C67 C 0.57309 0.89322 0.06788 0.0
C68 C 0.64276 0.97414 0.04682 0.0
C69 C 0.52498 0.92535 0.05086 0.0
C70 C 0.66359 0.08817 1.00886 0.0
C71 C 0.61607 0.12082 0.99195 0.0
H72 H 0.11436 0.72238 0.98192 0.0
H73 H 0.92186 0.5479 0.12357 0.0
H74 H 0.91164 0.35859 0.12241 0.0
H75 H 0.95712 0.24298 0.08101 0.0
H76 H 0.14963 0.41746 0.9394 0.0
H77 H 0.15983 0.60675 0.9405 0.0
C78 C 0.0702 0.64324 1.01282 0.0
C79 C 1.01904 0.64973 0.05287 0.0
C80 C 0.0645 0.53461 1.01163 0.0
C81 C 0.96215 0.54583 0.09247 0.0
C82 C 0.95616 0.43736 0.09168 0.0
C83 C 1.00127 0.32212 0.0501 0.0
C84 C 0.05244 0.31563 1.01009 0.0
C85 C 1.00697 0.43075 0.05127 0.0
C86 C 0.10933 0.41952 0.97047 0.0
C87 C 0.11531 0.52799 0.97123 0.0
loop_
_geom_bond_atom_site_label_1
_geom_bond_atom_site_label_2
_geom_bond_distance
_geom_bond_site_symmetry_2
_ccdc_geom_bond_type
Ho0 C3 2.811 . S
Ho0 O20 2.322 1_565 S
Ho0 O22 2.378 . S
Ho0 O23 2.524 1_556 S
Ho0 O24 2.381 . S
Ho0 O25 2.669 1_665 S
Ho0 O27 2.346 . S
Ho0 O31 2.305 1_556 S
Ho1 C12 2.811 . S
Ho1 O21 2.346 . S
Ho1 O25 2.305 1_554 S
Ho1 O26 2.322 1_545 S
Ho1 O28 2.378 . S
Ho1 O29 2.524 1_554 S
Ho1 O30 2.381 . S
Ho1 O31 2.669 1_445 S
C2 O20 1.259 1_455 S
C2 O21 1.268 1_556 S
C3 Ho0 2.811 . S
C3 C4 1.488 . S
C3 O22 1.215 . S
C3 O23 1.289 1_556 S
C4 C3 1.488 . S
C4 C5 1.348 1_566 S
C4 C9 1.413 . S
C5 C4 1.348 1_544 S
C5 C6 1.442 . S
C5 H32 0.930 . S
C6 C5 1.442 . S
C6 C7 1.381 1_544 S
C6 H33 0.931 . S
C7 C6 1.381 1_566 S
C7 C8 1.321 . S
C8 C7 1.321 . S
C8 C9 1.403 . S
C8 H34 0.934 . S
C9 C4 1.413 . S
C9 C8 1.403 . S
C9 H35 0.930 . S
C10 O24 1.275 . S
C10 O25 1.256 1_665 S
C11 O26 1.259 1_655 S
C11 O27 1.268 1_554 S
C12 Ho1 2.811 . S
C12 C13 1.488 . S
C12 O28 1.215 . S
C12 O29 1.289 1_554 S
C13 C12 1.488 . S
C13 C14 1.348 1_544 S
C13 C18 1.413 . S
C14 C13 1.348 1_566 S
C14 C15 1.442 . S
C14 H36 0.930 . S
C15 C14 1.442 . S
C15 C16 1.381 1_566 S
C15 H37 0.931 . S
C16 C15 1.381 1_544 S
C16 C17 1.321 . S
C17 C16 1.321 . S
C17 C18 1.403 . S
C17 H38 0.934 . S
C18 C13 1.413 . S
C18 C17 1.403 . S
C18 H39 0.930 . S
C19 O30 1.275 . S
C19 O31 1.256 1_445 S
O20 Ho0 2.322 1_545 S
O20 C2 1.259 1_655 S
O21 Ho1 2.346 . S
O21 C2 1.268 1_554 S
O22 Ho0 2.378 . S
O22 C3 1.215 . S
O23 Ho0 2.524 1_554 S
O23 C3 1.289 1_554 S
O24 Ho0 2.381 . S
O24 C10 1.275 . S
O25 Ho0 2.669 1_445 S
O25 Ho1 2.305 1_556 S
O25 C10 1.256 1_445 S
O26 Ho1 2.322 1_565 S
O26 C11 1.259 1_455 S
O27 Ho0 2.346 . S
O27 C11 1.268 1_556 S
O28 Ho1 2.378 . S
O28 C12 1.215 . S
O29 Ho1 2.524 1_556 S
O29 C12 1.289 1_556 S
O30 Ho1 2.381 . S
O30 C19 1.275 . S
O31 Ho0 2.305 1_554 S
O31 Ho1 2.669 1_665 S
O31 C19 1.256 1_665 S
H32 C5 0.930 . S
H33 C6 0.931 . S
H34 C8 0.934 . S
H35 C9 0.930 . S
H36 C14 0.930 . S
H37 C15 0.931 . S
H38 C17 0.934 . S
H39 C18 0.930 . S
H40 C46 0.930 . S
H41 C49 0.930 . S
H42 C50 0.930 . S
H43 C51 0.930 . S
H44 C54 0.930 . S
H45 C55 0.930 . S
C46 H40 0.930 . S
C46 C47 1.355 1_665 S
C46 C48 1.415 . S
C47 C46 1.355 1_445 S
C47 C49 1.419 . S
C48 C46 1.415 . S
C48 C53 1.425 1_665 S
C48 C55 1.409 . S
C49 H41 0.930 . S
C49 C47 1.419 . S
C49 C50 1.362 . S
C50 H42 0.930 . S
C50 C49 1.362 . S
C50 C53 1.409 . S
C51 H43 0.930 . S
C51 C52 1.355 1_445 S
C51 C53 1.415 . S
C52 C51 1.355 1_665 S
C52 C54 1.419 . S
C53 C48 1.425 1_445 S
C53 C50 1.409 . S
C53 C51 1.415 . S
C54 H44 0.930 . S
C54 C52 1.419 . S
C54 C55 1.362 . S
C55 H45 0.930 . S
C55 C48 1.409 . S
C55 C54 1.362 . S
H56 C62 0.930 . S
H57 C65 0.930 . S
H58 C66 0.930 . S
H59 C67 0.930 . S
H60 C70 0.930 . S
H61 C71 0.930 . S
C62 H56 0.930 . S
C62 C63 1.355 1_544 S
C62 C64 1.415 . S
C63 C62 1.355 1_566 S
C63 C65 1.419 . S
C64 C62 1.415 . S
C64 C69 1.425 1_544 S
C64 C71 1.409 . S
C65 H57 0.930 . S
C65 C63 1.419 . S
C65 C66 1.362 . S
C66 H58 0.930 . S
C66 C65 1.362 . S
C66 C69 1.409 . S
C67 H59 0.930 . S
C67 C68 1.355 1_566 S
C67 C69 1.415 . S
C68 C67 1.355 1_544 S
C68 C70 1.419 . S
C69 C64 1.425 1_566 S
C69 C66 1.409 . S
C69 C67 1.415 . S
C70 H60 0.930 . S
C70 C68 1.419 . S
C70 C71 1.362 . S
C71 H61 0.930 . S
C71 C64 1.409 . S
C71 C70 1.362 . S
H72 C78 0.930 . S
H73 C81 0.930 . S
H74 C82 0.930 . S
H75 C83 0.930 . S
H76 C86 0.930 . S
H77 C87 0.930 . S
C78 H72 0.930 . S
C78 C79 1.355 1_656 S
C78 C80 1.415 . S
C79 C78 1.355 1_454 S
C79 C81 1.419 . S
C80 C78 1.415 . S
C80 C85 1.425 1_656 S
C80 C87 1.409 . S
C81 H73 0.930 . S
C81 C79 1.419 . S
C81 C82 1.362 . S
C82 H74 0.930 . S
C82 C81 1.362 . S
C82 C85 1.409 . S
C83 H75 0.930 . S
C83 C84 1.355 1_454 S
C83 C85 1.415 . S
C84 C83 1.355 1_656 S
C84 C86 1.419 . S
C85 C80 1.425 1_454 S
C85 C82 1.409 . S
C85 C83 1.415 . S
C86 H76 0.930 . S
C86 C84 1.419 . S
C86 C87 1.362 . S
C87 H77 0.930 . S
C87 C80 1.409 . S
C87 C86 1.362 . S
C47 C19 1.424 . S
C52 C10 1.424 . S
C63 C16 1.497 1_566 S
C68 C7 1.497 1_544 S
C79 C11 1.474 1_455 S
C84 C2 1.474 1_655 S
