# Generated by pormake.
# Topology pcu, (6)-cn, num edge types: 1
# Building blocks:
#     Node 0, Type 0, BuildingBlock: KUMBUR_clean_sbu_0, # of connection points: 6
#     Edge 1, Type (0, 0), BuildingBlock: UVAHIK_clean_linker_0, # of connection points: 2
#     Edge 2, Type (0, 0), BuildingBlock: UVAHIK_clean_linker_0, # of connection points: 2
#     Edge 3, Type (0, 0), BuildingBlock: UVAHIK_clean_linker_0, # of connection points: 2
# Relax obj value: 0.000
# Max RMSD: 0.000
# Mean RMSD: 0.000
data_MOF--net-pcu--node1-KUMBUR_clean_sbu_0--edge1-UVAHIK_clean_linker_0
_symmetry_space_group_name_H-M    P1
_symmetry_Int_Tables_number       1
_symmetry_cell_setting            triclinic
loop_
_symmetry_equiv_pos_as_xyz
'x, y, z'
_cell_length_a     18.416015
_cell_length_b     28.711141
_cell_length_c     19.686128
_cell_angle_alpha  115.33589
_cell_angle_beta   74.297654
_cell_angle_gamma 117.32311
loop_
_atom_site_label
_atom_site_type_symbol
_atom_site_fract_x
_atom_site_fract_y
_atom_site_fract_z
_atom_type_partial_charge
Tb0 Tb 0.08296 0.08003 0.02387 0.0
C1 C 0.82429 0.85429 0.85512 0.0
C2 C 0.69611 0.85326 0.93008 0.0
C3 C 0.69737 0.80302 0.79447 0.0
C4 C 0.78209 0.87124 0.924 0.0
C5 C 0.78249 0.81897 0.78962 0.0
C6 C 0.6542 0.8202 0.86466 0.0
C7 C 0.91085 0.81417 0.72124 0.0
N8 N 0.9062 0.87031 0.85317 0.0
C9 C 0.94939 0.84907 0.78794 0.0
C10 C 0.82719 0.79958 0.72183 0.0
Tb11 Tb 0.96477 0.9292 0.96451 0.0
N12 N 0.8249 0.90251 0.98571 0.0
C13 C 0.78406 0.91368 0.05627 0.0
C14 C 0.65473 0.8676 0.00188 0.0
C15 C 0.6988 0.89717 0.06531 0.0
H16 H 1.01418 0.86039 0.78675 0.0
H17 H 0.66722 0.90752 0.12125 0.0
H18 H 0.58826 0.80646 0.86802 0.0
H19 H 0.94571 0.7986 0.66942 0.0
H20 H 0.81681 0.93676 0.10607 0.0
H21 H 0.38046 0.1018 0.86698 0.0
H22 H 0.58873 0.85485 0.00905 0.0
H23 H 0.03362 0.14878 0.2017 0.0
H24 H 0.23088 0.07253 0.88224 0.0
H25 H 0.10215 0.21053 0.319 0.0
H26 H 0.66411 0.77632 0.74469 0.0
H27 H 0.45902 0.15444 0.97914 0.0
H28 H 0.45956 0.20277 0.12017 0.0
H29 H 0.79741 0.77239 0.67017 0.0
H30 H 0.38375 0.23285 0.24356 0.0
N31 N 0.22284 0.10675 0.0026 0.0
C32 C 0.26365 0.0956 0.93202 0.0
C33 C 0.39302 0.14168 0.98635 0.0
C34 C 0.35167 0.15599 0.05816 0.0
C35 C 0.34891 0.11213 0.92294 0.0
C36 C 0.26568 0.13801 0.06429 0.0
H37 H 0.25046 0.23674 0.31816 0.0
N38 N 0.14159 0.13888 0.1352 0.0
C39 C 0.13699 0.19498 0.26716 0.0
C40 C 0.22351 0.15491 0.1332 0.0
C41 C 0.09841 0.1601 0.20046 0.0
C42 C 0.22066 0.20957 0.26651 0.0
C43 C 0.26534 0.19021 0.19869 0.0
O44 O 0.04552 0.14618 0.05434 0.0
O45 O 0.96568 0.0113 -0.00234 0.0
O46 O 0.96743 0.956 0.87527 0.0
O47 O 0.08417 0.03973 0.89956 0.0
O48 O 0.96446 0.08232 0.08421 0.0
O49 O 0.12705 0.12825 0.95448 0.0
O50 O 1.00214 0.86303 0.93412 0.0
O51 O 0.08196 0.99792 0.99059 0.0
O52 O 0.08038 0.05319 0.11304 0.0
O53 O 0.96356 0.96952 0.08881 0.0
O54 O 0.08334 0.92688 0.90431 0.0
O55 O 0.92063 0.88104 0.03397 0.0
C56 C 0.91801 0.03295 0.04482 0.0
C57 C 0.14088 0.22258 0.01739 0.0
C58 C 0.15893 0.3148 0.02555 0.0
C59 C 0.11147 0.25678 0.0082 0.0
C60 C 0.23578 0.33791 0.05307 0.0
C61 C 0.21785 0.24668 0.04444 0.0
C62 C 0.26481 0.30402 0.06235 0.0
C63 C 0.02697 0.99754 0.85494 0.0
C64 C 0.09074 0.16199 -0.00152 0.0
C65 C 0.35047 0.20617 0.19379 0.0
C66 C 0.39361 0.18903 0.12357 0.0
C67 C 0.12975 0.97631 0.9436 0.0
C68 C 0.90673 0.78669 0.97114 0.0
C69 C 0.93613 0.75248 0.98032 0.0
C70 C 0.88863 0.69445 0.963 0.0
C71 C 0.81176 0.67137 0.93553 0.0
C72 C 0.82973 0.7626 0.94414 0.0
C73 C 0.78274 0.70526 0.92627 0.0
C74 C 1.02083 0.01167 0.13339 0.0
C75 C 0.95691 0.84726 0.99 0.0
H76 H 0.05235 0.238 0.98647 0.0
H77 H 0.27323 0.3824 0.06828 0.0
H78 H 0.24185 0.2213 0.05154 0.0
H79 H 0.32401 0.32231 0.08356 0.0
H80 H 0.99527 0.77124 0.00201 0.0
H81 H 0.77429 0.62688 0.92034 0.0
H82 H 0.80573 0.78799 0.93707 0.0
H83 H 0.72352 0.68699 0.90511 0.0
C84 C 0.08684 0.04895 0.25197 0.0
C85 C 1.01961 0.01148 0.20879 0.0
C86 C 0.08719 0.04769 0.32201 0.0
C87 C 0.99358 0.95486 0.43323 0.0
H88 H 0.07684 0.09336 0.60181 0.0
C89 C 0.96102 0.96021 0.7363 0.0
C90 C 0.02823 0.99771 0.77952 0.0
C91 C 0.9607 0.96147 0.66625 0.0
C92 C 0.05432 0.05431 0.55504 0.0
H93 H 0.89977 0.94331 0.20572 0.0
H94 H 0.90027 0.94135 0.32817 0.0
H95 H 0.07344 0.09687 0.48116 0.0
H96 H 0.14803 0.06592 0.78264 0.0
H97 H 0.14757 0.06786 0.66016 0.0
H98 H 0.97446 0.9123 0.50712 0.0
C99 C 0.95307 0.97142 0.30745 0.0
C100 C 0.05227 0.05632 0.48592 0.0
C101 C 0.95262 0.97275 0.2374 0.0
C102 C 0.0952 0.03646 0.75093 0.0
C103 C 0.09479 0.03778 0.68087 0.0
C104 C 0.99563 0.95285 0.50235 0.0
C105 C 1.02049 0.00875 0.35045 0.0
C106 C 1.02187 0.00662 0.4242 0.0
C107 C 0.02739 1.00043 0.63784 0.0
C108 C 0.02603 1.00255 0.56408 0.0
H109 H 0.14016 0.07866 0.2312 0.0
H110 H 0.14064 0.07645 0.35312 0.0
H111 H 0.97106 0.91581 0.38647 0.0
H112 H 0.90771 0.93049 0.75705 0.0
H113 H 0.90727 0.93269 0.63512 0.0
C114 C 0.23849 0.01009 0.02784 0.0
C115 C 0.21343 0.9878 0.95513 0.0
C116 C 0.31513 0.01588 0.03767 0.0
C117 C 0.51855 0.0186 0.9364 0.0
H118 H 0.53159 0.97925 0.09693 0.0
C119 C 0.80923 0.99925 0.9607 0.0
C120 C 0.83435 0.02157 0.03338 0.0
C121 C 0.7326 0.99352 0.95091 0.0
C122 C 0.52929 0.99093 0.05226 0.0
H123 H 0.24742 0.95224 0.83601 0.0
H124 H 0.38107 0.96198 0.85281 0.0
H125 H 0.40143 0.97503 0.08144 0.0
H126 H 0.80051 0.05722 0.15252 0.0
H127 H 0.66687 0.04757 0.13579 0.0
H128 H 0.64641 0.03449 0.90722 0.0
C129 C 0.34268 0.97646 0.9023 0.0
C130 C 0.4546 0.98864 0.04346 0.0
C131 C 0.26601 0.97062 0.89259 0.0
C132 C 0.78186 0.03883 0.09595 0.0
C133 C 0.70521 0.03304 0.08628 0.0
C134 C 0.59324 0.02089 0.9452 0.0
C135 C 0.36806 0.99876 0.97503 0.0
C136 C 0.44818 1.00242 0.98538 0.0
C137 C 0.67976 0.01072 0.01358 0.0
C138 C 0.59966 0.0071 0.00327 0.0
H139 H 0.19851 0.02213 0.07728 0.0
H140 H 0.33279 0.03365 0.09447 0.0
H141 H 0.51626 0.03028 0.89173 0.0
H142 H 0.84913 0.98713 0.91123 0.0
H143 H 0.71488 0.97573 0.89413 0.0
C144 C 0.86386 0.61517 0.00203 0.0
C145 C 0.91841 0.65766 0.97314 0.0
C146 C 0.89023 0.57873 0.00832 0.0
C147 C 0.05233 0.52243 0.93254 0.0
H148 H 0.97339 0.47442 0.10502 0.0
C149 C 0.18371 0.39408 0.98652 0.0
C150 C 0.12915 0.35159 0.01539 0.0
C151 C 0.15733 0.43052 0.98022 0.0
C152 C 0.99521 0.4868 0.05597 0.0
H153 H 0.04411 0.69536 0.92906 0.0
H154 H 0.0906 0.63232 0.94124 0.0
H155 H 0.93082 0.54115 0.09854 0.0
H156 H 1.00344 0.31387 0.05943 0.0
H157 H 0.95695 0.37689 0.04723 0.0
H158 H 0.11673 0.46808 0.88997 0.0
C159 C 0.02695 0.62678 0.95815 0.0
C160 C 0.9709 0.52521 0.0523 0.0
C161 C 1.00056 0.66338 0.95199 0.0
C162 C 0.047 0.34586 0.03652 0.0
C163 C 1.0206 0.38245 0.03035 0.0
C164 C 0.07665 0.48402 0.93621 0.0
C165 C 0.97196 0.58371 0.98593 0.0
C166 C 0.9991 0.54355 0.99053 0.0
C167 C 0.07559 0.42553 0.00258 0.0
C168 C 0.04845 0.46568 -0.00202 0.0
H169 H 0.80042 0.60996 0.01981 0.0
H170 H 0.84593 0.54584 0.02934 0.0
H171 H 0.07416 0.53481 0.88349 0.0
H172 H 0.24716 0.39931 0.96876 0.0
H173 H 0.20163 0.46341 0.9592 0.0
loop_
_geom_bond_atom_site_label_1
_geom_bond_atom_site_label_2
_geom_bond_distance
_geom_bond_site_symmetry_2
_ccdc_geom_bond_type
Tb0 N31 2.660 1_554 S
Tb0 N38 2.600 . S
Tb0 O44 2.546 . S
Tb0 O45 2.610 1_444 S
Tb0 O47 2.320 1_554 S
Tb0 O48 2.552 1_455 S
Tb0 O49 2.413 . S
Tb0 O51 2.362 . S
Tb0 O52 2.422 1_455 S
Tb0 C64 2.833 . S
C1 C4 1.432 . S
C1 C5 1.414 . S
C1 N8 1.359 . S
C2 C4 1.417 . S
C2 C6 1.432 . S
C2 C14 1.410 1_556 S
C3 C5 1.444 . S
C3 C6 1.317 . S
C3 H26 0.929 . S
C4 C1 1.432 . S
C4 C2 1.417 . S
C4 N12 1.360 1_556 S
C5 C1 1.414 . S
C5 C3 1.444 . S
C5 C10 1.385 . S
C6 C2 1.432 . S
C6 C3 1.317 . S
C6 H18 0.930 . S
C7 C9 1.392 . S
C7 C10 1.370 . S
C7 H19 0.931 . S
N8 C1 1.359 . S
N8 C9 1.327 . S
N8 Tb11 2.600 . S
C9 C7 1.392 . S
C9 N8 1.327 . S
C9 H16 0.930 . S
C10 C5 1.385 . S
C10 C7 1.370 . S
C10 H29 0.930 . S
Tb11 N8 2.600 . S
Tb11 N12 2.660 1_556 S
Tb11 O45 2.362 . S
Tb11 O46 2.422 1_655 S
Tb11 O50 2.546 . S
Tb11 O51 2.610 1_666 S
Tb11 O53 2.320 1_556 S
Tb11 O54 2.552 1_655 S
Tb11 O55 2.413 . S
Tb11 C75 2.833 . S
N12 C4 1.360 1_554 S
N12 Tb11 2.660 1_554 S
N12 C13 1.305 . S
C13 N12 1.305 . S
C13 C15 1.407 . S
C13 H20 0.930 . S
C14 C2 1.410 1_554 S
C14 C15 1.345 . S
C14 H22 0.930 . S
C15 C13 1.407 . S
C15 C14 1.345 . S
C15 H17 0.930 . S
H16 C9 0.930 . S
H17 C15 0.930 . S
H18 C6 0.930 . S
H19 C7 0.931 . S
H20 C13 0.930 . S
H21 C35 0.930 . S
H22 C14 0.930 . S
H23 C41 0.930 . S
H24 C32 0.930 . S
H25 C39 0.931 . S
H26 C3 0.929 . S
H27 C33 0.930 . S
H28 C66 0.930 . S
H29 C10 0.930 . S
H30 C65 0.929 . S
N31 Tb0 2.660 1_556 S
N31 C32 1.305 . S
N31 C36 1.360 1_556 S
C32 H24 0.930 . S
C32 N31 1.305 . S
C32 C35 1.407 . S
C33 H27 0.930 . S
C33 C34 1.410 1_556 S
C33 C35 1.345 . S
C34 C33 1.410 1_554 S
C34 C36 1.417 . S
C34 C66 1.432 . S
C35 H21 0.930 . S
C35 C32 1.407 . S
C35 C33 1.345 . S
C36 N31 1.360 1_554 S
C36 C34 1.417 . S
C36 C40 1.432 . S
H37 C42 0.930 . S
N38 Tb0 2.600 . S
N38 C40 1.359 . S
N38 C41 1.327 . S
C39 H25 0.931 . S
C39 C41 1.392 . S
C39 C42 1.370 . S
C40 C36 1.432 . S
C40 N38 1.359 . S
C40 C43 1.414 . S
C41 H23 0.930 . S
C41 N38 1.327 . S
C41 C39 1.392 . S
C42 H37 0.930 . S
C42 C39 1.370 . S
C42 C43 1.385 . S
C43 C40 1.414 . S
C43 C42 1.385 . S
C43 C65 1.444 . S
O44 Tb0 2.546 . S
O44 C64 1.251 . S
O45 Tb0 2.610 1_666 S
O45 Tb11 2.362 . S
O45 C56 1.283 1_566 S
O46 Tb11 2.422 1_455 S
O46 C63 1.257 . S
O47 Tb0 2.320 1_556 S
O47 C63 1.260 1_545 S
O48 Tb0 2.552 1_655 S
O48 C56 1.243 . S
O49 Tb0 2.413 . S
O49 C64 1.256 . S
O50 Tb11 2.546 . S
O50 C75 1.251 . S
O51 Tb0 2.362 . S
O51 Tb11 2.610 1_444 S
O51 C67 1.283 1_544 S
O52 Tb0 2.422 1_655 S
O52 C74 1.259 . S
O53 Tb11 2.320 1_554 S
O53 C74 1.260 1_565 S
O54 Tb11 2.552 1_455 S
O54 C67 1.243 . S
O55 Tb11 2.413 . S
O55 C75 1.256 . S
C56 O45 1.283 1_544 S
C56 O48 1.243 . S
C57 C59 1.382 . S
C57 C61 1.393 . S
C57 C64 1.500 . S
C58 C59 1.400 . S
C58 C60 1.384 . S
C59 C57 1.382 . S
C59 C58 1.400 . S
C59 H76 0.930 1_554 S
C60 C58 1.384 . S
C60 C62 1.392 . S
C60 H77 0.931 . S
C61 C57 1.393 . S
C61 C62 1.401 . S
C61 H78 0.930 . S
C62 C60 1.392 . S
C62 C61 1.401 . S
C62 H79 0.930 . S
C63 O46 1.257 . S
C63 O47 1.260 1_565 S
C64 Tb0 2.833 . S
C64 O44 1.251 . S
C64 O49 1.256 . S
C64 C57 1.500 . S
C65 H30 0.929 . S
C65 C43 1.444 . S
C65 C66 1.317 . S
C66 H28 0.930 . S
C66 C34 1.432 . S
C66 C65 1.317 . S
C67 O51 1.283 1_566 S
C67 O54 1.243 . S
C68 C69 1.382 . S
C68 C72 1.393 . S
C68 C75 1.500 . S
C69 C68 1.382 . S
C69 C70 1.400 . S
C69 H80 0.930 1_556 S
C70 C69 1.400 . S
C70 C71 1.384 . S
C71 C70 1.384 . S
C71 C73 1.392 . S
C71 H81 0.931 . S
C72 C68 1.393 . S
C72 C73 1.401 . S
C72 H82 0.930 . S
C73 C71 1.392 . S
C73 C72 1.401 . S
C73 H83 0.930 . S
C74 O52 1.259 . S
C74 O53 1.260 1_545 S
C75 Tb11 2.833 . S
C75 O50 1.251 . S
C75 O55 1.256 . S
C75 C68 1.500 . S
H76 C59 0.930 1_556 S
H77 C60 0.931 . S
H78 C61 0.930 . S
H79 C62 0.930 . S
H80 C69 0.930 1_554 S
H81 C71 0.931 . S
H82 C72 0.930 . S
H83 C73 0.930 . S
C84 C85 1.349 1_655 S
C84 C86 1.327 . S
C84 H109 0.950 . S
C85 C84 1.349 1_455 S
C85 C101 1.349 1_545 S
C86 C84 1.327 . S
C86 C105 1.429 1_655 S
C86 H110 0.950 . S
C87 C104 1.574 . S
C87 C106 1.368 1_565 S
C87 H111 0.949 . S
H88 C92 0.949 . S
C89 C90 1.349 1_565 S
C89 C91 1.327 . S
C89 H112 0.950 . S
C90 C89 1.349 1_545 S
C90 C102 1.349 1_455 S
C91 C89 1.327 . S
C91 C107 1.429 1_565 S
C91 H113 0.950 . S
C92 H88 0.949 . S
C92 C100 1.574 . S
C92 C108 1.368 1_655 S
H93 C101 0.950 . S
H94 C99 0.950 . S
H95 C100 0.949 . S
H96 C102 0.950 . S
H97 C103 0.950 . S
H98 C104 0.949 . S
C99 H94 0.950 . S
C99 C101 1.327 . S
C99 C105 1.429 1_565 S
C100 C92 1.574 . S
C100 H95 0.949 . S
C100 C106 1.368 1_655 S
C101 C85 1.349 1_565 S
C101 H93 0.950 . S
C101 C99 1.327 . S
C102 C90 1.349 1_655 S
C102 H96 0.950 . S
C102 C103 1.327 . S
C103 H97 0.950 . S
C103 C102 1.327 . S
C103 C107 1.429 1_655 S
C104 C87 1.574 . S
C104 H98 0.949 . S
C104 C108 1.368 1_565 S
C105 C86 1.429 1_455 S
C105 C99 1.429 1_545 S
C105 C106 1.523 . S
C106 C87 1.368 1_545 S
C106 C100 1.368 1_455 S
C106 C105 1.523 . S
C107 C91 1.429 1_545 S
C107 C103 1.429 1_455 S
C107 C108 1.523 . S
C108 C92 1.368 1_455 S
C108 C104 1.368 1_545 S
C108 C107 1.523 . S
H109 C84 0.950 . S
H110 C86 0.950 . S
H111 C87 0.949 . S
H112 C89 0.950 . S
H113 C91 0.950 . S
C114 C115 1.349 1_565 S
C114 C116 1.327 . S
C114 H139 0.950 . S
C115 C114 1.349 1_545 S
C115 C131 1.349 1_554 S
C116 C114 1.327 . S
C116 C135 1.429 1_565 S
C116 H140 0.950 . S
C117 C134 1.574 . S
C117 C136 1.368 1_556 S
C117 H141 0.949 . S
H118 C122 0.949 . S
C119 C120 1.349 1_556 S
C119 C121 1.327 . S
C119 H142 0.950 . S
C120 C119 1.349 1_554 S
C120 C132 1.349 1_545 S
C121 C119 1.327 . S
C121 C137 1.429 1_556 S
C121 H143 0.950 . S
C122 H118 0.949 . S
C122 C130 1.574 . S
C122 C138 1.368 1_565 S
H123 C131 0.950 . S
H124 C129 0.950 . S
H125 C130 0.949 . S
H126 C132 0.950 . S
H127 C133 0.950 . S
H128 C134 0.949 . S
C129 H124 0.950 . S
C129 C131 1.327 . S
C129 C135 1.429 1_556 S
C130 C122 1.574 . S
C130 H125 0.949 . S
C130 C136 1.368 1_565 S
C131 C115 1.349 1_556 S
C131 H123 0.950 . S
C131 C129 1.327 . S
C132 C120 1.349 1_565 S
C132 H126 0.950 . S
C132 C133 1.327 . S
C133 H127 0.950 . S
C133 C132 1.327 . S
C133 C137 1.429 1_565 S
C134 C117 1.574 . S
C134 H128 0.949 . S
C134 C138 1.368 1_556 S
C135 C116 1.429 1_545 S
C135 C129 1.429 1_554 S
C135 C136 1.523 . S
C136 C117 1.368 1_554 S
C136 C130 1.368 1_545 S
C136 C135 1.523 . S
C137 C121 1.429 1_554 S
C137 C133 1.429 1_545 S
C137 C138 1.523 . S
C138 C122 1.368 1_545 S
C138 C134 1.368 1_554 S
C138 C137 1.523 . S
H139 C114 0.950 . S
H140 C116 0.950 . S
H141 C117 0.949 . S
H142 C119 0.950 . S
H143 C121 0.950 . S
C144 C145 1.349 1_655 S
C144 C146 1.327 . S
C144 H169 0.950 . S
C145 C144 1.349 1_455 S
C145 C161 1.349 1_554 S
C146 C144 1.327 . S
C146 C165 1.429 1_655 S
C146 H170 0.950 . S
C147 C164 1.574 . S
C147 C166 1.368 1_556 S
C147 H171 0.949 . S
H148 C152 0.949 . S
C149 C150 1.349 1_556 S
C149 C151 1.327 . S
C149 H172 0.950 . S
C150 C149 1.349 1_554 S
C150 C162 1.349 1_455 S
C151 C149 1.327 . S
C151 C167 1.429 1_556 S
C151 H173 0.950 . S
C152 H148 0.949 . S
C152 C160 1.574 . S
C152 C168 1.368 1_655 S
H153 C161 0.950 . S
H154 C159 0.950 . S
H155 C160 0.949 . S
H156 C162 0.950 . S
H157 C163 0.950 . S
H158 C164 0.949 . S
C159 H154 0.950 . S
C159 C161 1.327 . S
C159 C165 1.429 1_556 S
C160 C152 1.574 . S
C160 H155 0.949 . S
C160 C166 1.368 1_655 S
C161 C145 1.349 1_556 S
C161 H153 0.950 . S
C161 C159 1.327 . S
C162 C150 1.349 1_655 S
C162 H156 0.950 . S
C162 C163 1.327 . S
C163 H157 0.950 . S
C163 C162 1.327 . S
C163 C167 1.429 1_655 S
C164 C147 1.574 . S
C164 H158 0.949 . S
C164 C168 1.368 1_556 S
C165 C146 1.429 1_455 S
C165 C159 1.429 1_554 S
C165 C166 1.523 . S
C166 C147 1.368 1_554 S
C166 C160 1.368 1_455 S
C166 C165 1.523 . S
C167 C151 1.429 1_554 S
C167 C163 1.429 1_455 S
C167 C168 1.523 . S
C168 C152 1.368 1_455 S
C168 C164 1.368 1_554 S
C168 C167 1.523 . S
H169 C144 0.950 . S
H170 C146 0.950 . S
H171 C147 0.949 . S
H172 C149 0.950 . S
H173 C151 0.950 . S
C85 C74 1.472 1_455 S
C90 C63 1.472 1_545 S
C115 C67 1.435 1_544 S
C120 C56 1.435 . S
C145 C70 1.321 1_454 S
C150 C58 1.321 . S
