# Generated by pormake.
# Topology pcu, (6)-cn, num edge types: 1
# Building blocks:
#     Node 0, Type 0, BuildingBlock: BETFAJ_clean_sbu_0, # of connection points: 6
#     Edge 1, Type (0, 0), BuildingBlock: MIFKUJ_clean_linker_0, # of connection points: 2
#     Edge 2, Type (0, 0), BuildingBlock: MIFKUJ_clean_linker_0, # of connection points: 2
#     Edge 3, Type (0, 0), BuildingBlock: MIFKUJ_clean_linker_0, # of connection points: 2
# Relax obj value: 0.000
# Max RMSD: 0.000
# Mean RMSD: 0.000
data_MOF--net-pcu--node1-BETFAJ_clean_sbu_0--edge1-MIFKUJ_clean_linker_0
_symmetry_space_group_name_H-M    P1
_symmetry_Int_Tables_number       1
_symmetry_cell_setting            triclinic
loop_
_symmetry_equiv_pos_as_xyz
'x, y, z'
_cell_length_a     29.975884
_cell_length_b     20.025912
_cell_length_c     19.09192
_cell_angle_alpha  86.558969
_cell_angle_beta   95.123136
_cell_angle_gamma 124.47747
loop_
_atom_site_label
_atom_site_type_symbol
_atom_site_fract_x
_atom_site_fract_y
_atom_site_fract_z
_atom_type_partial_charge
Sm0 Sm 0.96319 0.93376 0.01765 0.0
Sm1 Sm 0.08317 0.03645 0.99588 0.0
C2 C 0.8644 0.87466 0.05739 0.0
C3 C 0.82243 0.89286 0.04933 0.0
C4 C 0.82464 0.94907 0.09291 0.0
C5 C 0.78367 0.96322 0.08662 0.0
C6 C 0.73925 0.92123 0.03689 0.0
C7 C 0.73725 0.86524 0.99327 0.0
C8 C 0.77813 0.85106 0.99959 0.0
C9 C 0.98699 0.94612 0.8794 0.0
C10 C 0.02678 0.13152 0.99332 0.0
C11 C 0.18212 0.09576 0.95661 0.0
C12 C 0.22404 0.07747 0.9646 0.0
C13 C 0.22173 0.02115 0.92107 0.0
C14 C 0.26268 0.00694 0.92731 0.0
C15 C 0.30716 0.04897 0.97696 0.0
C16 C 0.30924 0.10505 0.02054 0.0
C17 C 0.26838 0.11929 0.01426 0.0
C18 C 0.05901 0.02393 0.13409 0.0
C19 C 1.01956 0.83868 0.01988 0.0
O20 O 0.90887 0.92316 0.09623 0.0
O21 O 0.87346 0.85028 1.00159 0.0
O22 O 1.01059 0.00382 0.92242 0.0
O23 O 0.94804 0.88031 0.90789 0.0
O24 O 0.98615 0.06449 0.02089 0.0
O25 O 0.06751 0.13428 0.96875 0.0
O26 O 0.13776 0.04764 0.91743 0.0
O27 O 0.17288 0.11969 0.01254 0.0
O28 O 0.03581 0.9663 0.09105 0.0
O29 O 0.09786 0.08989 0.10562 0.0
O30 O 0.06017 0.90573 0.99233 0.0
O31 O 0.97886 0.83591 0.04457 0.0
H32 H 0.85774 0.98166 0.13247 0.0
H33 H 0.78627 0.00589 0.12184 0.0
H34 H 0.70414 0.83248 0.95377 0.0
H35 H 0.77483 0.80683 0.96562 0.0
H36 H 0.18859 -0.01147 0.88156 0.0
H37 H 0.26001 0.9642 0.89212 0.0
H38 H 0.34238 0.13784 0.05999 0.0
H39 H 0.27174 0.1636 0.04821 0.0
H40 H 0.98937 0.88562 0.20769 0.0
H41 H 0.97761 0.87199 0.33442 0.0
H42 H 0.09681 0.12882 0.35851 0.0
H43 H 0.10939 0.14234 0.23239 0.0
H44 H 0.11352 0.04743 0.46085 0.0
H45 H 0.95997 0.04476 0.35922 0.0
H46 H 0.87891 -0.00364 0.27812 0.0
H47 H 0.80145 0.75918 0.37256 0.0
H48 H 0.88244 0.80583 0.4535 0.0
H49 H 0.05672 0.08424 0.80566 0.0
H50 H 0.06839 0.09768 0.67892 0.0
H51 H 0.94888 0.8409 0.65505 0.0
H52 H 0.93635 0.82759 0.78118 0.0
H53 H 0.93231 0.92212 0.55259 0.0
H54 H 0.08581 0.92477 0.65428 0.0
H55 H 0.16687 0.97312 0.73537 0.0
H56 H 0.24444 0.21025 0.6408 0.0
H57 H 0.16345 0.16365 0.55987 0.0
C58 C 1.01295 0.9391 0.24009 0.0
C59 C 0.05026 0.01504 0.21016 0.0
C60 C 1.00613 0.93135 0.31249 0.0
C61 C 0.03603 -0.00046 0.35617 0.0
C62 C 0.07337 0.07531 0.32613 0.0
C63 C 0.08034 0.083 0.25393 0.0
C64 C 0.02846 -0.00772 0.43309 0.0
C65 C 0.07398 0.02092 0.48084 0.0
C66 C 0.97675 0.9563 0.45949 0.0
C67 C 0.92748 0.92862 0.41202 0.0
C68 C 0.92576 0.98216 0.36245 0.0
C69 C 0.87983 0.95506 0.3165 0.0
C70 C 0.83512 0.8747 0.32006 0.0
C71 C 0.83615 0.82139 0.3698 0.0
C72 C 0.88205 0.84814 0.41577 0.0
C73 C 0.03305 0.03073 0.77331 0.0
C74 C 0.99566 0.95487 0.8033 0.0
C75 C 0.03983 0.03837 0.70091 0.0
C76 C 1.00983 0.97014 0.65727 0.0
C77 C 0.9724 0.89445 0.68738 0.0
C78 C 0.96546 0.88687 0.75958 0.0
C79 C 1.01738 0.97729 0.58035 0.0
C80 C 0.97186 0.94863 0.5326 0.0
C81 C 0.06909 0.01324 0.55395 0.0
C82 C 0.11835 0.04089 0.60141 0.0
C83 C 0.12004 -0.01265 0.65101 0.0
C84 C 0.16597 0.01442 0.69696 0.0
C85 C 0.21072 0.09475 0.69336 0.0
C86 C 0.20971 0.14806 0.64359 0.0
C87 C 0.16382 0.12134 0.59763 0.0
H88 H 0.24619 0.11562 0.72906 0.0
H89 H 0.79964 0.8538 0.28435 0.0
H90 H 0.41681 0.16176 0.99935 0.0
H91 H 0.48925 0.13953 0.01017 0.0
H92 H 0.37154 0.88406 0.97619 0.0
H93 H 0.29848 0.90536 0.96792 0.0
H94 H 0.44428 0.90723 0.08045 0.0
H95 H 0.45272 0.01105 0.84552 0.0
H96 H 0.45891 0.10771 0.75398 0.0
H97 H 0.6132 0.29609 0.84828 0.0
H98 H 0.60758 0.20078 0.94099 0.0
H99 H 0.62961 0.8084 0.01435 0.0
H100 H 0.55714 0.83056 1.00348 0.0
H101 H 0.67478 0.08602 0.03759 0.0
H102 H 0.74786 0.06479 0.04594 0.0
H103 H 0.60205 0.06281 0.93323 0.0
H104 H 0.59359 0.95898 0.16818 0.0
H105 H 0.58739 0.8623 0.2597 0.0
H106 H 0.43313 0.67392 0.16533 0.0
H107 H 0.43876 0.76924 0.07264 0.0
C108 C 0.40611 0.10062 0.99485 0.0
C109 C 0.35157 0.03538 0.98271 0.0
C110 C 0.44778 0.08813 1.00028 0.0
C111 C 0.43611 0.01023 0.9931 0.0
C112 C 0.38171 0.94482 0.98164 0.0
C113 C 0.33995 0.95723 0.97629 0.0
C114 C 0.48057 -0.00303 0.99811 0.0
C115 C 0.47837 0.94046 0.04752 0.0
C116 C 0.52587 0.0416 0.95644 0.0
C117 C 0.52947 0.09895 0.90058 0.0
C118 C 0.48778 0.07324 0.84704 0.0
C119 C 0.49121 0.12776 0.79489 0.0
C120 C 0.53635 0.20804 0.79542 0.0
C121 C 0.57823 0.23391 0.84799 0.0
C122 C 0.57496 0.17965 0.90032 0.0
C123 C 0.64029 0.86952 0.01887 0.0
C124 C 0.69482 0.93478 0.03108 0.0
C125 C 0.5986 0.88197 0.01341 0.0
C126 C 0.61024 0.95986 0.02061 0.0
C127 C 0.66463 0.02528 0.03213 0.0
C128 C 0.7064 0.0129 0.03752 0.0
C129 C 0.56577 0.97308 0.01557 0.0
C130 C 0.56796 0.02958 0.96616 0.0
C131 C 0.52045 0.92843 0.05723 0.0
C132 C 0.51685 0.87108 0.11309 0.0
C133 C 0.55854 0.89678 0.16664 0.0
C134 C 0.5551 0.84225 0.21878 0.0
C135 C 0.50996 0.76197 0.21823 0.0
C136 C 0.4681 0.7361 0.16564 0.0
C137 C 0.47137 0.79037 0.11332 0.0
H138 H 0.50738 0.71984 0.25864 0.0
H139 H 0.53894 0.25016 0.755 0.0
H140 H 0.93555 0.68154 0.04228 0.0
H141 H 0.93676 0.56069 0.038 0.0
H142 H 0.1069 0.71103 0.99954 0.0
H143 H 0.10569 0.83147 1.0018 0.0
H144 H 0.05464 0.58945 0.91169 0.0
H145 H 0.06154 0.61936 0.16154 0.0
H146 H 0.03061 0.63378 0.2716 0.0
H147 H 0.87833 0.40475 0.23665 0.0
H148 H 0.90808 0.38946 0.12586 0.0
H149 H 0.11077 0.28864 0.97081 0.0
H150 H 0.10954 0.40948 0.97495 0.0
H151 H 0.93938 0.25914 0.01333 0.0
H152 H 0.94061 0.13871 0.01121 0.0
H153 H 0.99165 0.38073 0.10122 0.0
H154 H 0.98477 0.35081 0.85137 0.0
H155 H 1.01572 0.3364 0.74131 0.0
H156 H 0.16799 0.56544 0.77628 0.0
H157 H 0.13821 0.58072 0.88706 0.0
C158 C 0.97327 0.68875 0.03353 0.0
C159 C 1.02046 0.76582 0.02228 0.0
C160 C 0.97395 0.61976 0.03125 0.0
C161 C 1.02205 0.62705 0.01896 0.0
C162 C 0.06934 0.70409 0.00885 0.0
C163 C 0.06856 0.77284 0.01033 0.0
C164 C 1.02298 0.55443 0.01435 0.0
C165 C 0.04153 0.54428 0.95353 0.0
C166 C 1.00467 0.49473 0.06824 0.0
C167 C 0.98687 0.50365 0.13508 0.0
C168 C 1.02132 0.57235 0.17707 0.0
C169 C 1.00402 0.58063 0.23963 0.0
C170 C 0.95249 0.52032 0.26102 0.0
C171 C 0.91821 0.45147 0.21998 0.0
C172 C 0.93529 0.44293 0.15734 0.0
C173 C 0.07304 0.28143 0.97951 0.0
C174 C 0.02586 0.20436 0.99079 0.0
C175 C 0.07235 0.35041 0.98171 0.0
C176 C 0.02424 0.34312 0.99395 0.0
C177 C 0.97695 0.26608 1.00406 0.0
C178 C 0.97775 0.19734 1.00265 0.0
C179 C 0.02331 0.41574 0.99855 0.0
C180 C 1.00476 0.42589 0.05937 0.0
C181 C 0.04162 0.47544 0.94467 0.0
C182 C 0.05944 0.46653 0.87784 0.0
C183 C 0.025 0.39783 0.83584 0.0
C184 C 0.0423 0.38955 0.77329 0.0
C185 C 0.09383 0.44987 0.75191 0.0
C186 C 0.12811 0.51872 0.79294 0.0
C187 C 0.11102 0.52726 0.85558 0.0
H188 H 0.10716 0.44334 0.70347 0.0
H189 H 0.93917 0.52685 0.30946 0.0
loop_
_geom_bond_atom_site_label_1
_geom_bond_atom_site_label_2
_geom_bond_distance
_geom_bond_site_symmetry_2
_ccdc_geom_bond_type
Sm0 C2 2.846 . S
Sm0 O20 2.543 1_556 S
Sm0 O21 2.450 . S
Sm0 O22 2.681 1_665 S
Sm0 O23 2.464 . S
Sm0 O24 2.396 1_565 S
Sm0 O28 2.386 1_566 S
Sm0 O31 2.408 . S
Sm1 C11 2.846 . S
Sm1 O22 2.386 1_554 S
Sm1 O25 2.408 . S
Sm1 O26 2.543 1_554 S
Sm1 O27 2.450 . S
Sm1 O28 2.681 1_455 S
Sm1 O29 2.464 . S
Sm1 O30 2.396 1_545 S
C2 Sm0 2.846 . S
C2 C3 1.506 . S
C2 O20 1.261 1_556 S
C2 O21 1.242 . S
C3 C2 1.506 . S
C3 C4 1.358 1_566 S
C3 C8 1.382 . S
C4 C3 1.358 1_544 S
C4 C5 1.385 . S
C4 H32 0.930 . S
C5 C4 1.385 . S
C5 C6 1.395 1_544 S
C5 H33 0.929 . S
C6 C5 1.395 1_566 S
C6 C7 1.335 . S
C7 C6 1.335 . S
C7 C8 1.398 . S
C7 H34 0.930 . S
C8 C3 1.382 . S
C8 C7 1.398 . S
C8 H35 0.929 . S
C9 O22 1.271 1_665 S
C9 O23 1.251 . S
C10 O24 1.252 1_455 S
C10 O25 1.272 1_556 S
C11 Sm1 2.846 . S
C11 C12 1.506 . S
C11 O26 1.261 1_554 S
C11 O27 1.242 . S
C12 C11 1.506 . S
C12 C13 1.358 1_544 S
C12 C17 1.382 . S
C13 C12 1.358 1_566 S
C13 C14 1.385 . S
C13 H36 0.930 . S
C14 C13 1.385 . S
C14 C15 1.395 1_566 S
C14 H37 0.929 . S
C15 C14 1.395 1_544 S
C15 C16 1.335 . S
C16 C15 1.335 . S
C16 C17 1.398 . S
C16 H38 0.930 . S
C17 C12 1.382 . S
C17 C16 1.398 . S
C17 H39 0.929 . S
C18 O28 1.271 1_455 S
C18 O29 1.251 . S
C19 O30 1.252 1_655 S
C19 O31 1.272 1_554 S
O20 Sm0 2.543 1_554 S
O20 C2 1.261 1_554 S
O21 Sm0 2.450 . S
O21 C2 1.242 . S
O22 Sm0 2.681 1_445 S
O22 Sm1 2.386 1_556 S
O22 C9 1.271 1_445 S
O23 Sm0 2.464 . S
O23 C9 1.251 . S
O24 Sm0 2.396 1_545 S
O24 C10 1.252 1_655 S
O25 Sm1 2.408 . S
O25 C10 1.272 1_554 S
O26 Sm1 2.543 1_556 S
O26 C11 1.261 1_556 S
O27 Sm1 2.450 . S
O27 C11 1.242 . S
O28 Sm0 2.386 1_544 S
O28 Sm1 2.681 1_655 S
O28 C18 1.271 1_655 S
O29 Sm1 2.464 . S
O29 C18 1.251 . S
O30 Sm1 2.396 1_565 S
O30 C19 1.252 1_455 S
O31 Sm0 2.408 . S
O31 C19 1.272 1_556 S
H32 C4 0.930 . S
H33 C5 0.929 . S
H34 C7 0.930 . S
H35 C8 0.929 . S
H36 C13 0.930 . S
H37 C14 0.929 . S
H38 C16 0.930 . S
H39 C17 0.929 . S
H40 C58 0.951 . S
H41 C60 0.951 . S
H42 C62 0.950 . S
H43 C63 0.950 . S
H44 C65 0.950 . S
H45 C68 0.950 1_545 S
H46 C69 0.950 . S
H47 C71 0.950 . S
H48 C72 0.950 . S
H49 C73 0.951 . S
H50 C75 0.951 . S
H51 C77 0.950 . S
H52 C78 0.950 . S
H53 C80 0.950 . S
H54 C83 0.950 1_565 S
H55 C84 0.950 . S
H56 C86 0.950 . S
H57 C87 0.950 . S
C58 H40 0.951 . S
C58 C59 1.365 1_665 S
C58 C60 1.388 . S
C59 C58 1.365 1_445 S
C59 C63 1.385 . S
C60 H41 0.951 . S
C60 C58 1.388 . S
C60 C61 1.360 1_565 S
C61 C60 1.360 1_545 S
C61 C62 1.418 1_655 S
C61 C64 1.499 . S
C62 H42 0.950 . S
C62 C61 1.418 1_455 S
C62 C63 1.374 . S
C63 H43 0.950 . S
C63 C59 1.385 . S
C63 C62 1.374 . S
C64 C61 1.499 . S
C64 C65 1.373 1_655 S
C64 C66 1.389 1_545 S
C65 H44 0.950 . S
C65 C64 1.373 1_455 S
C65 C81 1.377 . S
C66 C64 1.389 1_565 S
C66 C67 1.524 . S
C66 C80 1.377 . S
C67 C66 1.524 . S
C67 C68 1.397 . S
C67 C72 1.363 . S
C68 H45 0.950 1_565 S
C68 C67 1.397 . S
C68 C69 1.334 . S
C69 H46 0.950 . S
C69 C68 1.334 . S
C69 C70 1.287 . S
C70 C69 1.287 . S
C70 C71 1.524 . S
C70 H89 0.913 . S
C71 H47 0.950 . S
C71 C70 1.524 . S
C71 C72 1.415 . S
C72 H48 0.950 . S
C72 C67 1.363 . S
C72 C71 1.415 . S
C73 H49 0.951 . S
C73 C74 1.365 . S
C73 C75 1.388 . S
C74 C73 1.365 . S
C74 C78 1.385 1_445 S
C75 H50 0.951 . S
C75 C73 1.388 . S
C75 C76 1.363 1_545 S
C76 C75 1.363 1_565 S
C76 C77 1.416 1_455 S
C76 C79 1.499 . S
C77 H51 0.950 . S
C77 C76 1.416 1_655 S
C77 C78 1.374 . S
C78 H52 0.950 . S
C78 C74 1.385 1_665 S
C78 C77 1.374 . S
C79 C76 1.499 . S
C79 C80 1.373 1_455 S
C79 C81 1.389 1_565 S
C80 H53 0.950 . S
C80 C66 1.377 . S
C80 C79 1.373 1_655 S
C81 C65 1.377 . S
C81 C79 1.389 1_545 S
C81 C82 1.524 . S
C82 C81 1.524 . S
C82 C83 1.397 . S
C82 C87 1.363 . S
C83 H54 0.950 1_545 S
C83 C82 1.397 . S
C83 C84 1.334 . S
C84 H55 0.950 . S
C84 C83 1.334 . S
C84 C85 1.287 . S
C85 C84 1.287 . S
C85 C86 1.524 . S
C85 H88 0.999 . S
C86 H56 0.950 . S
C86 C85 1.524 . S
C86 C87 1.415 . S
C87 H57 0.950 . S
C87 C82 1.363 . S
C87 C86 1.415 . S
H88 C85 0.999 . S
H89 C70 0.913 . S
H90 C108 0.951 . S
H91 C110 0.951 . S
H92 C112 0.950 . S
H93 C113 0.950 . S
H94 C115 0.950 . S
H95 C118 0.950 . S
H96 C119 0.950 . S
H97 C121 0.950 . S
H98 C122 0.950 . S
H99 C123 0.951 . S
H100 C125 0.951 . S
H101 C127 0.950 . S
H102 C128 0.950 . S
H103 C130 0.950 . S
H104 C133 0.950 . S
H105 C134 0.950 . S
H106 C136 0.950 . S
H107 C137 0.950 . S
C108 H90 0.951 . S
C108 C109 1.365 . S
C108 C110 1.388 . S
C109 C108 1.365 . S
C109 C113 1.385 1_544 S
C110 H91 0.951 . S
C110 C108 1.388 . S
C110 C111 1.372 1_554 S
C111 C110 1.372 1_556 S
C111 C112 1.411 1_545 S
C111 C114 1.495 1_545 S
C112 H92 0.950 . S
C112 C111 1.411 1_565 S
C112 C113 1.374 . S
C113 H93 0.950 . S
C113 C109 1.385 1_566 S
C113 C112 1.374 . S
C114 C111 1.495 1_565 S
C114 C115 1.373 1_556 S
C114 C116 1.389 1_565 S
C115 H94 0.950 . S
C115 C114 1.373 1_554 S
C115 C131 1.377 . S
C116 C114 1.389 1_545 S
C116 C117 1.524 . S
C116 C130 1.377 . S
C117 C116 1.524 . S
C117 C118 1.397 . S
C117 C122 1.363 . S
C118 H95 0.950 . S
C118 C117 1.397 . S
C118 C119 1.334 . S
C119 H96 0.950 . S
C119 C118 1.334 . S
C119 C120 1.287 . S
C120 C119 1.287 . S
C120 C121 1.524 . S
C120 H139 0.913 . S
C121 H97 0.950 . S
C121 C120 1.524 . S
C121 C122 1.415 . S
C122 H98 0.950 . S
C122 C117 1.363 . S
C122 C121 1.415 . S
C123 H99 0.951 . S
C123 C124 1.365 1_565 S
C123 C125 1.388 . S
C124 C123 1.365 1_545 S
C124 C128 1.386 1_556 S
C125 H100 0.951 . S
C125 C123 1.388 . S
C125 C126 1.368 1_556 S
C126 C125 1.368 1_554 S
C126 C127 1.413 1_565 S
C126 C129 1.497 1_565 S
C127 H101 0.950 . S
C127 C126 1.413 1_545 S
C127 C128 1.374 . S
C128 H102 0.950 . S
C128 C124 1.386 1_554 S
C128 C127 1.374 . S
C129 C126 1.497 1_545 S
C129 C130 1.373 1_554 S
C129 C131 1.389 1_545 S
C130 H103 0.950 . S
C130 C116 1.377 . S
C130 C129 1.373 1_556 S
C131 C115 1.377 . S
C131 C129 1.389 1_565 S
C131 C132 1.524 . S
C132 C131 1.524 . S
C132 C133 1.397 . S
C132 C137 1.363 . S
C133 H104 0.950 . S
C133 C132 1.397 . S
C133 C134 1.334 . S
C134 H105 0.950 . S
C134 C133 1.334 . S
C134 C135 1.287 . S
C135 C134 1.287 . S
C135 C136 1.524 . S
C135 H138 0.999 . S
C136 H106 0.950 . S
C136 C135 1.524 . S
C136 C137 1.415 . S
C137 H107 0.950 . S
C137 C132 1.363 . S
C137 C136 1.415 . S
H138 C135 0.999 . S
H139 C120 0.913 . S
H140 C158 0.951 . S
H141 C160 0.951 . S
H142 C162 0.950 . S
H143 C163 0.950 . S
H144 C165 0.950 . S
H145 C168 0.950 1_455 S
H146 C169 0.953 . S
H147 C171 0.950 . S
H148 C172 0.950 . S
H149 C173 0.951 . S
H150 C175 0.951 . S
H151 C177 0.950 . S
H152 C178 0.950 . S
H153 C180 0.950 . S
H154 C183 0.950 1_655 S
H155 C184 0.950 . S
H156 C186 0.950 . S
H157 C187 0.950 . S
C158 H140 0.951 . S
C158 C159 1.366 1_654 S
C158 C160 1.388 . S
C159 C158 1.366 1_456 S
C159 C163 1.384 . S
C160 H141 0.951 . S
C160 C158 1.388 . S
C160 C161 1.344 1_655 S
C161 C160 1.344 1_455 S
C161 C162 1.422 1_554 S
C161 C164 1.512 . S
C162 H142 0.950 . S
C162 C161 1.422 1_556 S
C162 C163 1.374 . S
C163 H143 0.950 . S
C163 C159 1.384 . S
C163 C162 1.374 . S
C164 C161 1.512 . S
C164 C165 1.373 1_554 S
C164 C166 1.389 1_455 S
C165 H144 0.950 . S
C165 C164 1.373 1_556 S
C165 C181 1.377 . S
C166 C164 1.389 1_655 S
C166 C167 1.524 . S
C166 C180 1.377 . S
C167 C166 1.524 . S
C167 C168 1.397 . S
C167 C172 1.363 . S
C168 H145 0.950 1_655 S
C168 C167 1.397 . S
C168 C169 1.334 . S
C169 H146 0.953 . S
C169 C168 1.334 . S
C169 C170 1.287 . S
C170 C169 1.287 . S
C170 C171 1.524 . S
C170 H189 0.913 . S
C171 H147 0.950 . S
C171 C170 1.524 . S
C171 C172 1.415 . S
C172 H148 0.950 . S
C172 C167 1.363 . S
C172 C171 1.415 . S
C173 H149 0.951 . S
C173 C174 1.365 1_556 S
C173 C175 1.388 . S
C174 C173 1.365 1_554 S
C174 C178 1.385 1_455 S
C175 H150 0.951 . S
C175 C173 1.388 . S
C175 C176 1.350 1_455 S
C176 C175 1.350 1_655 S
C176 C177 1.420 1_556 S
C176 C179 1.508 . S
C177 H151 0.950 . S
C177 C176 1.420 1_554 S
C177 C178 1.374 . S
C178 H152 0.950 . S
C178 C174 1.385 1_655 S
C178 C177 1.374 . S
C179 C176 1.508 . S
C179 C180 1.373 1_556 S
C179 C181 1.389 1_655 S
C180 H153 0.950 . S
C180 C166 1.377 . S
C180 C179 1.373 1_554 S
C181 C165 1.377 . S
C181 C179 1.389 1_455 S
C181 C182 1.524 . S
C182 C181 1.524 . S
C182 C183 1.397 . S
C182 C187 1.363 . S
C183 H154 0.950 1_455 S
C183 C182 1.397 . S
C183 C184 1.334 . S
C184 H155 0.950 . S
C184 C183 1.334 . S
C184 C185 1.287 . S
C185 C184 1.287 . S
C185 C186 1.524 . S
C185 H188 0.999 . S
C186 H156 0.950 . S
C186 C185 1.524 . S
C186 C187 1.415 . S
C187 H157 0.950 . S
C187 C182 1.363 . S
C187 C186 1.415 . S
H188 C185 0.999 . S
H189 C170 0.913 . S
C59 C18 1.454 . S
C74 C9 1.454 1_445 S
C109 C15 1.499 . S
C124 C6 1.498 1_545 S
C159 C19 1.490 1_456 S
C174 C10 1.490 1_554 S
