# Generated by pormake.
# Topology mok, (4)-cn, num edge types: 1
# Building blocks:
#     Node 0, Type 0, BuildingBlock: TATPOV_clean_sbu_0, # of connection points: 4
#     Node 1, Type 0, BuildingBlock: TATPOV_clean_sbu_0, # of connection points: 4
#     Node 2, Type 0, BuildingBlock: TATPOV_clean_sbu_0, # of connection points: 4
#     Node 3, Type 0, BuildingBlock: TATPOV_clean_sbu_0, # of connection points: 4
#     Node 4, Type 0, BuildingBlock: TATPOV_clean_sbu_0, # of connection points: 4
#     Node 5, Type 0, BuildingBlock: TATPOV_clean_sbu_0, # of connection points: 4
#     Node 6, Type 0, BuildingBlock: TATPOV_clean_sbu_0, # of connection points: 4
#     Node 7, Type 0, BuildingBlock: TATPOV_clean_sbu_0, # of connection points: 4
#     Edge 8, Type (0, 0), None
#     Edge 9, Type (0, 0), None
#     Edge 10, Type (0, 0), None
#     Edge 11, Type (0, 0), None
#     Edge 12, Type (0, 0), None
#     Edge 13, Type (0, 0), None
#     Edge 14, Type (0, 0), None
#     Edge 15, Type (0, 0), None
#     Edge 16, Type (0, 0), None
#     Edge 17, Type (0, 0), None
#     Edge 18, Type (0, 0), None
#     Edge 19, Type (0, 0), None
#     Edge 20, Type (0, 0), None
#     Edge 21, Type (0, 0), None
#     Edge 22, Type (0, 0), None
#     Edge 23, Type (0, 0), None
# Relax obj value: 0.019
# Max RMSD: 0.045
# Mean RMSD: 0.045
data_MOF--net-mok--node1-TATPOV_clean_sbu_0--edge1-none
_symmetry_space_group_name_H-M    P1
_symmetry_Int_Tables_number       1
_symmetry_cell_setting            triclinic
loop_
_symmetry_equiv_pos_as_xyz
'x, y, z'
_cell_length_a     21.962258
_cell_length_b     9.7702991
_cell_length_c     12.554287
_cell_angle_alpha  90.004507
_cell_angle_beta   90.001103
_cell_angle_gamma 89.999728
loop_
_atom_site_label
_atom_site_type_symbol
_atom_site_fract_x
_atom_site_fract_y
_atom_site_fract_z
_atom_type_partial_charge
Zn0 Zn 0.61714 0.50415 -0.01711 0.0
Zn1 Zn 0.56595 0.26316 -0.01894 0.0
O2 O 0.55079 0.35319 0.12983 0.0
O3 O 0.58113 0.56695 0.12195 0.0
O4 O 0.51169 0.09695 -0.02296 0.0
O5 O 0.58129 0.56599 0.84356 0.0
O6 O 0.55179 0.35175 0.83325 0.0
C7 C 0.55755 0.46982 0.17396 0.0
C8 C 0.69973 0.25967 -0.01721 0.0
O9 O 0.65124 0.18878 -0.01793 0.0
O10 O 0.69716 0.38978 -0.01686 0.0
C11 C 0.49972 0.03464 0.06315 0.0
O12 O 0.5237 0.07824 0.15255 0.0
C13 C 0.55837 0.46901 0.79045 0.0
Zn14 Zn 0.34165 0.44607 -0.0171 0.0
Zn15 Zn 0.39283 0.68707 -0.0189 0.0
O16 O 0.40799 0.59704 0.12987 0.0
O17 O 0.37764 0.38328 0.12196 0.0
O18 O 0.44709 0.8533 -0.02291 0.0
O19 O 0.37751 0.38421 0.84357 0.0
O20 O 0.40699 0.59846 0.83329 0.0
C21 C 0.40122 0.48041 0.17399 0.0
C22 C 0.25906 0.69055 -0.01721 0.0
O23 O 0.30754 0.76144 -0.0179 0.0
O24 O 0.26163 0.56043 -0.01687 0.0
C25 C 0.45925 0.91543 0.0632 0.0
O26 O 0.43548 0.87164 0.1527 0.0
C27 C 0.40043 0.4812 0.79047 0.0
Zn28 Zn 0.61718 0.446 0.48174 0.0
Zn29 Zn 0.56595 0.68703 0.48357 0.0
O30 O 0.55077 0.59701 0.3348 0.0
O31 O 0.58116 0.38324 0.34268 0.0
O32 O 0.51169 0.85326 0.48759 0.0
O33 O 0.58131 0.38418 0.62106 0.0
O34 O 0.55178 0.59842 0.63137 0.0
C35 C 0.55755 0.48037 0.2907 0.0
C36 C 0.69973 0.69053 0.48185 0.0
O37 O 0.65124 0.7614 0.48257 0.0
O38 O 0.69717 0.56042 0.4815 0.0
C39 C 0.49973 0.91559 0.4015 0.0
O40 O 0.5237 0.87199 0.31209 0.0
C41 C 0.55836 0.48115 0.67414 0.0
Zn42 Zn 0.34161 0.50422 0.48177 0.0
Zn43 Zn 0.39284 0.26317 0.48356 0.0
O44 O 0.408 0.35322 0.33481 0.0
O45 O 0.37762 0.56699 0.34272 0.0
O46 O 0.44709 0.09692 0.48757 0.0
O47 O 0.37748 0.56603 0.62109 0.0
O48 O 0.40701 0.35178 0.63138 0.0
C49 C 0.40123 0.46986 0.29072 0.0
C50 C 0.25905 0.25969 0.48186 0.0
O51 O 0.30755 0.18882 0.48255 0.0
O52 O 0.26161 0.3898 0.48153 0.0
C53 C 0.45926 0.03481 0.40145 0.0
O54 O 0.43549 0.07863 0.31195 0.0
C55 C 0.40043 0.46905 0.67417 0.0
Zn56 Zn 0.11714 0.00415 -0.01711 0.0
Zn57 Zn 0.06595 0.76316 -0.01894 0.0
O58 O 0.05079 0.85319 0.12983 0.0
O59 O 0.08113 0.06695 0.12195 0.0
O60 O 0.01169 0.59695 -0.02296 0.0
O61 O 0.08129 0.06599 0.84356 0.0
O62 O 0.05179 0.85175 0.83325 0.0
C63 C 0.05755 0.96982 0.17396 0.0
C64 C 0.19973 0.75967 -0.01721 0.0
O65 O 0.15124 0.68878 -0.01793 0.0
O66 O 0.19716 0.88978 -0.01686 0.0
C67 C -0.00028 0.53464 0.06315 0.0
O68 O 0.0237 0.57824 0.15255 0.0
C69 C 0.05837 0.96901 0.79045 0.0
Zn70 Zn 0.84165 0.94607 -0.0171 0.0
Zn71 Zn 0.89283 0.18707 -0.0189 0.0
O72 O 0.90799 0.09704 0.12987 0.0
O73 O 0.87764 0.88328 0.12196 0.0
O74 O 0.94709 0.3533 -0.02291 0.0
O75 O 0.87751 0.88421 0.84357 0.0
O76 O 0.90699 0.09846 0.83329 0.0
C77 C 0.90122 -0.01959 0.17399 0.0
C78 C 0.75906 0.19055 -0.01721 0.0
O79 O 0.80754 0.26144 -0.0179 0.0
O80 O 0.76163 0.06043 -0.01687 0.0
C81 C 0.95925 0.41543 0.0632 0.0
O82 O 0.93548 0.37164 0.1527 0.0
C83 C 0.90043 -0.0188 0.79047 0.0
Zn84 Zn 0.11718 0.946 0.48174 0.0
Zn85 Zn 0.06595 0.18703 0.48357 0.0
O86 O 0.05077 0.09701 0.3348 0.0
O87 O 0.08116 0.88324 0.34268 0.0
O88 O 0.01169 0.35326 0.48759 0.0
O89 O 0.08131 0.88418 0.62106 0.0
O90 O 0.05178 0.09842 0.63137 0.0
C91 C 0.05755 -0.01963 0.2907 0.0
C92 C 0.19973 0.19053 0.48185 0.0
O93 O 0.15124 0.2614 0.48257 0.0
O94 O 0.19717 0.06042 0.4815 0.0
C95 C -0.00027 0.41559 0.4015 0.0
O96 O 0.0237 0.37199 0.31209 0.0
C97 C 0.05836 -0.01885 0.67414 0.0
Zn98 Zn 0.84161 0.00422 0.48177 0.0
Zn99 Zn 0.89284 0.76317 0.48356 0.0
O100 O 0.908 0.85322 0.33481 0.0
O101 O 0.87762 0.06699 0.34272 0.0
O102 O 0.94709 0.59692 0.48757 0.0
O103 O 0.87748 0.06603 0.62109 0.0
O104 O 0.90701 0.85178 0.63138 0.0
C105 C 0.90123 0.96986 0.29072 0.0
C106 C 0.75905 0.75969 0.48186 0.0
O107 O 0.80755 0.68882 0.48255 0.0
O108 O 0.76161 0.8898 0.48153 0.0
C109 C 0.95926 0.53481 0.40145 0.0
O110 O 0.93549 0.57863 0.31195 0.0
C111 C 0.90043 0.96905 0.67417 0.0
loop_
_geom_bond_atom_site_label_1
_geom_bond_atom_site_label_2
_geom_bond_distance
_geom_bond_site_symmetry_2
_ccdc_geom_bond_type
Zn0 O3 2.027 1_556 S
Zn0 O5 2.054 . S
Zn0 O10 2.068 . S
Zn1 O2 1.962 . S
Zn1 O4 1.986 1_554 S
Zn1 O6 1.996 1_554 S
Zn1 O9 1.943 . S
O2 Zn1 1.962 . S
O2 C7 1.254 . S
O3 Zn0 2.027 1_554 S
O3 C7 1.269 . S
O4 Zn1 1.986 1_556 S
O4 C11 1.262 1_556 S
O5 Zn0 2.054 . S
O5 C13 1.260 . S
O6 Zn1 1.996 1_556 S
O6 C13 1.257 . S
C7 O2 1.254 . S
C7 O3 1.269 . S
C8 O9 1.249 . S
C8 O10 1.270 1_554 S
O9 Zn1 1.943 . S
O9 C8 1.249 . S
O10 Zn0 2.068 . S
O10 C8 1.270 1_556 S
C11 O4 1.262 1_554 S
C11 O12 1.232 . S
O12 C11 1.232 . S
C13 O5 1.260 . S
C13 O6 1.257 . S
Zn14 O17 2.027 1_556 S
Zn14 O19 2.054 . S
Zn14 O24 2.068 . S
Zn15 O16 1.962 . S
Zn15 O18 1.986 1_554 S
Zn15 O20 1.996 1_554 S
Zn15 O23 1.943 . S
O16 Zn15 1.962 . S
O16 C21 1.254 . S
O17 Zn14 2.027 1_554 S
O17 C21 1.269 . S
O18 Zn15 1.986 1_556 S
O18 C25 1.262 1_556 S
O19 Zn14 2.054 . S
O19 C27 1.260 . S
O20 Zn15 1.996 1_556 S
O20 C27 1.257 . S
C21 O16 1.254 . S
C21 O17 1.269 . S
C22 O23 1.249 . S
C22 O24 1.270 1_554 S
O23 Zn15 1.943 . S
O23 C22 1.249 . S
O24 Zn14 2.068 . S
O24 C22 1.270 1_556 S
C25 O18 1.262 1_554 S
C25 O26 1.232 . S
O26 C25 1.232 . S
C27 O19 1.260 . S
C27 O20 1.257 . S
Zn28 O31 2.031 . S
Zn28 O33 2.049 . S
Zn28 O38 2.067 . S
Zn29 O30 1.962 . S
Zn29 O32 1.986 . S
Zn29 O34 1.996 . S
Zn29 O37 1.943 . S
O30 Zn29 1.962 . S
O30 C35 1.254 . S
O31 Zn28 2.031 . S
O31 C35 1.269 . S
O32 Zn29 1.986 . S
O32 C39 1.262 . S
O33 Zn28 2.049 . S
O33 C41 1.260 . S
O34 Zn29 1.996 . S
O34 C41 1.257 . S
C35 O30 1.254 . S
C35 O31 1.269 . S
C36 O37 1.249 . S
C36 O38 1.270 . S
O37 Zn29 1.943 . S
O37 C36 1.249 . S
O38 Zn28 2.067 . S
O38 C36 1.270 . S
C39 O32 1.262 . S
C39 O40 1.232 . S
O40 C39 1.232 . S
C41 O33 1.260 . S
C41 O34 1.257 . S
Zn42 O45 2.031 . S
Zn42 O47 2.049 . S
Zn42 O52 2.067 . S
Zn43 O44 1.962 . S
Zn43 O46 1.986 . S
Zn43 O48 1.996 . S
Zn43 O51 1.943 . S
O44 Zn43 1.962 . S
O44 C49 1.254 . S
O45 Zn42 2.031 . S
O45 C49 1.269 . S
O46 Zn43 1.986 . S
O46 C53 1.262 . S
O47 Zn42 2.049 . S
O47 C55 1.260 . S
O48 Zn43 1.996 . S
O48 C55 1.257 . S
C49 O44 1.254 . S
C49 O45 1.269 . S
C50 O51 1.249 . S
C50 O52 1.270 . S
O51 Zn43 1.943 . S
O51 C50 1.249 . S
O52 Zn42 2.067 . S
O52 C50 1.270 . S
C53 O46 1.262 . S
C53 O54 1.232 . S
O54 C53 1.232 . S
C55 O47 1.260 . S
C55 O48 1.257 . S
Zn56 O59 2.027 1_556 S
Zn56 O61 2.054 . S
Zn56 O66 2.068 1_545 S
Zn57 O58 1.962 . S
Zn57 O60 1.986 1_554 S
Zn57 O62 1.996 1_554 S
Zn57 O65 1.943 . S
O58 Zn57 1.962 . S
O58 C63 1.254 . S
O59 Zn56 2.027 1_554 S
O59 C63 1.269 1_545 S
O60 Zn57 1.986 1_556 S
O60 C67 1.262 1_556 S
O61 Zn56 2.054 . S
O61 C69 1.260 . S
O62 Zn57 1.996 1_556 S
O62 C69 1.257 1_565 S
C63 O58 1.254 . S
C63 O59 1.269 1_565 S
C64 O65 1.249 . S
C64 O66 1.270 1_554 S
O65 Zn57 1.943 . S
O65 C64 1.249 . S
O66 Zn56 2.068 1_565 S
O66 C64 1.270 1_556 S
C67 O60 1.262 1_554 S
C67 O68 1.232 . S
O68 C67 1.232 . S
C69 O61 1.260 . S
C69 O62 1.257 1_545 S
Zn70 O73 2.027 1_556 S
Zn70 O75 2.054 . S
Zn70 O80 2.068 1_565 S
Zn71 O72 1.962 . S
Zn71 O74 1.986 1_554 S
Zn71 O76 1.996 1_554 S
Zn71 O79 1.943 . S
O72 Zn71 1.962 . S
O72 C77 1.254 . S
O73 Zn70 2.027 1_554 S
O73 C77 1.269 1_565 S
O74 Zn71 1.986 1_556 S
O74 C81 1.262 1_556 S
O75 Zn70 2.054 . S
O75 C83 1.260 . S
O76 Zn71 1.996 1_556 S
O76 C83 1.257 1_545 S
C77 O72 1.254 . S
C77 O73 1.269 1_545 S
C78 O79 1.249 . S
C78 O80 1.270 1_554 S
O79 Zn71 1.943 . S
O79 C78 1.249 . S
O80 Zn70 2.068 1_545 S
O80 C78 1.270 1_556 S
C81 O74 1.262 1_554 S
C81 O82 1.232 . S
O82 C81 1.232 . S
C83 O75 1.260 . S
C83 O76 1.257 1_565 S
Zn84 O87 2.031 . S
Zn84 O89 2.049 . S
Zn84 O94 2.067 1_565 S
Zn85 O86 1.962 . S
Zn85 O88 1.986 . S
Zn85 O90 1.996 . S
Zn85 O93 1.943 . S
O86 Zn85 1.962 . S
O86 C91 1.254 . S
O87 Zn84 2.031 . S
O87 C91 1.269 1_565 S
O88 Zn85 1.986 . S
O88 C95 1.262 . S
O89 Zn84 2.049 . S
O89 C97 1.260 . S
O90 Zn85 1.996 . S
O90 C97 1.257 1_545 S
C91 O86 1.254 . S
C91 O87 1.269 1_545 S
C92 O93 1.249 . S
C92 O94 1.270 . S
O93 Zn85 1.943 . S
O93 C92 1.249 . S
O94 Zn84 2.067 1_545 S
O94 C92 1.270 . S
C95 O88 1.262 . S
C95 O96 1.232 . S
O96 C95 1.232 . S
C97 O89 1.260 . S
C97 O90 1.257 1_565 S
Zn98 O101 2.031 . S
Zn98 O103 2.049 . S
Zn98 O108 2.067 1_545 S
Zn99 O100 1.962 . S
Zn99 O102 1.986 . S
Zn99 O104 1.996 . S
Zn99 O107 1.943 . S
O100 Zn99 1.962 . S
O100 C105 1.254 . S
O101 Zn98 2.031 . S
O101 C105 1.269 1_545 S
O102 Zn99 1.986 . S
O102 C109 1.262 . S
O103 Zn98 2.049 . S
O103 C111 1.260 . S
O104 Zn99 1.996 . S
O104 C111 1.257 1_565 S
C105 O100 1.254 . S
C105 O101 1.269 1_565 S
C106 O107 1.249 . S
C106 O108 1.270 . S
O107 Zn99 1.943 . S
O107 C106 1.249 . S
O108 Zn98 2.067 1_565 S
O108 C106 1.270 . S
C109 O102 1.262 . S
C109 O110 1.232 . S
O110 C109 1.232 . S
C111 O103 1.260 . S
C111 O104 1.257 1_545 S
C78 C8 1.365 . S
C64 C22 1.365 . S
C106 C36 1.365 . S
C92 C50 1.365 . S
C7 C35 1.458 . S
C21 C49 1.458 . S
C27 C55 1.444 . S
C13 C41 1.444 . S
C63 C91 1.458 1_565 S
C105 C77 1.458 1_565 S
C111 C83 1.444 1_545 S
C69 C97 1.444 1_545 S
C25 C11 1.515 1_565 S
C39 C53 1.515 1_565 S
C67 C81 1.515 1_455 S
C95 C109 1.515 1_455 S
