# Generated by pormake.
# Topology pcu, (6)-cn, num edge types: 1
# Building blocks:
#     Node 0, Type 0, BuildingBlock: BETDEL_clean_sbu_0, # of connection points: 6
#     Edge 1, Type (0, 0), BuildingBlock: OJICUG_clean_linker_0, # of connection points: 2
#     Edge 2, Type (0, 0), BuildingBlock: OJICUG_clean_linker_0, # of connection points: 2
#     Edge 3, Type (0, 0), BuildingBlock: OJICUG_clean_linker_0, # of connection points: 2
# Relax obj value: 0.000
# Max RMSD: 0.000
# Mean RMSD: 0.000
data_MOF--net-pcu--node1-BETDEL_clean_sbu_0--edge1-OJICUG_clean_linker_0
_symmetry_space_group_name_H-M    P1
_symmetry_Int_Tables_number       1
_symmetry_cell_setting            triclinic
loop_
_symmetry_equiv_pos_as_xyz
'x, y, z'
_cell_length_a     11.415343
_cell_length_b     14.21806
_cell_length_c     10.16134
_cell_angle_alpha  108.81836
_cell_angle_beta   82.117959
_cell_angle_gamma 97.934066
loop_
_atom_site_label
_atom_site_type_symbol
_atom_site_fract_x
_atom_site_fract_y
_atom_site_fract_z
_atom_type_partial_charge
Dy0 Dy -0.00943 0.07656 0.07927 0.0
C1 C 0.9557 0.66004 1.043 0.0
C2 C -0.01095 0.26577 0.0689 0.0
Dy3 Dy 0.9543 0.84932 1.03286 0.0
O4 O 0.95702 0.23754 0.17898 0.0
O5 O 0.0235 0.19084 0.96444 0.0
O6 O 0.04883 0.1018 0.29096 0.0
O7 O 0.92194 -0.01832 0.20904 0.0
C8 C -0.01461 0.0227 0.30854 0.0
C9 C 0.95932 0.90361 0.80383 0.0
O10 O 0.76414 0.87969 0.07373 0.0
O11 O 0.79775 0.03618 1.04109 0.0
O12 O -0.01222 0.68832 0.93297 0.0
O13 O 0.92127 0.73494 0.14751 0.0
O14 O 0.8958 0.82449 0.82124 0.0
O15 O 0.02287 0.94412 0.90329 0.0
O16 O 0.18073 0.04621 1.03856 0.0
O17 O 0.14709 0.88972 0.07118 0.0
C18 C 0.7251 0.95838 0.05704 0.0
C19 C 0.21976 -0.03247 1.05529 0.0
C20 C 0.05741 0.03965 0.53693 0.0
C21 C -0.02104 -0.00811 0.43481 0.0
H22 H 0.11339 0.04837 0.73376 0.0
C23 C 0.89377 0.91536 0.4552 0.0
H24 H 0.12405 0.09882 0.52359 0.0
C25 C 0.88737 0.88685 0.57558 0.0
C26 C 0.96583 0.93459 0.67769 0.0
H27 H 0.83145 0.87804 0.37873 0.0
H28 H 0.82073 0.82767 0.58889 0.0
C29 C 0.05104 0.01111 0.65731 0.0
C30 C 0.43024 0.04447 1.03564 0.0
C31 C 0.34906 -0.03455 1.05594 0.0
H32 H 0.61206 0.10424 1.01976 0.0
C33 C 0.39269 0.88392 0.07653 0.0
H34 H 0.39987 0.10838 1.01932 0.0
C35 C 0.51461 0.88145 0.07676 0.0
C36 C 0.59579 0.96046 0.05645 0.0
H37 H 0.33278 0.82169 0.09264 0.0
H38 H 0.54498 0.81755 0.09308 0.0
C39 C 0.55216 0.042 1.03587 0.0
C40 C 0.93037 0.53672 0.17515 0.0
C41 C 0.96294 0.55899 1.04941 0.0
H42 H 0.91371 0.42592 0.27978 0.0
C43 C 0.00502 0.48445 0.93024 0.0
H44 H 0.898 0.59302 0.26858 0.0
C45 C 0.01434 0.38906 0.93668 0.0
C46 C -0.01822 0.3668 0.06243 0.0
H47 H 0.03101 0.49987 0.83205 0.0
H48 H 0.04672 0.33275 0.84326 0.0
C49 C 0.93969 0.44133 0.18159 0.0
loop_
_geom_bond_atom_site_label_1
_geom_bond_atom_site_label_2
_geom_bond_distance
_geom_bond_site_symmetry_2
_ccdc_geom_bond_type
Dy0 O4 2.398 . S
Dy0 O5 2.491 1_554 S
Dy0 O6 2.403 . S
Dy0 O7 2.664 1_545 S
Dy0 O11 2.326 1_455 S
Dy0 O15 2.309 1_454 S
Dy0 O16 2.351 . S
C1 O12 1.185 . S
C1 O13 1.355 1_556 S
C2 O4 1.185 . S
C2 O5 1.355 1_554 S
Dy3 O7 2.310 1_656 S
Dy3 O10 2.351 . S
Dy3 O12 2.398 . S
Dy3 O13 2.491 1_556 S
Dy3 O14 2.403 . S
Dy3 O15 2.663 1_565 S
Dy3 O17 2.326 1_655 S
O4 Dy0 2.398 . S
O4 C2 1.185 . S
O5 Dy0 2.491 1_556 S
O5 C2 1.355 1_556 S
O6 Dy0 2.403 . S
O6 C8 1.254 . S
O7 Dy0 2.664 1_565 S
O7 Dy3 2.310 1_454 S
O7 C8 1.268 1_565 S
C8 O6 1.254 . S
C8 O7 1.268 1_545 S
C9 O14 1.254 . S
C9 O15 1.267 1_565 S
O10 Dy3 2.351 . S
O10 C18 1.249 1_556 S
O11 Dy0 2.326 1_655 S
O11 C18 1.267 1_545 S
O12 C1 1.185 . S
O12 Dy3 2.398 . S
O13 C1 1.355 1_554 S
O13 Dy3 2.491 1_554 S
O14 Dy3 2.403 . S
O14 C9 1.254 . S
O15 Dy0 2.309 1_656 S
O15 Dy3 2.663 1_545 S
O15 C9 1.267 1_545 S
O16 Dy0 2.351 . S
O16 C19 1.249 1_554 S
O17 Dy3 2.326 1_455 S
O17 C19 1.267 1_565 S
C18 O10 1.249 1_554 S
C18 O11 1.267 1_565 S
C19 O16 1.249 1_556 S
C19 O17 1.267 1_545 S
C20 C21 1.389 1_545 S
C20 H24 0.950 . S
C20 C29 1.390 . S
C21 C20 1.389 1_565 S
C21 C23 1.386 1_455 S
H22 C29 0.950 . S
C23 C21 1.386 1_655 S
C23 C25 1.390 . S
C23 H27 0.950 . S
H24 C20 0.950 . S
C25 C23 1.390 . S
C25 C26 1.387 1_565 S
C25 H28 0.950 . S
C26 C25 1.387 1_545 S
C26 C29 1.388 1_655 S
H27 C23 0.950 . S
H28 C25 0.950 . S
C29 C20 1.390 . S
C29 H22 0.950 . S
C29 C26 1.388 1_455 S
C30 C31 1.388 1_556 S
C30 H34 0.950 . S
C30 C39 1.390 . S
C31 C30 1.388 1_554 S
C31 C33 1.389 1_565 S
H32 C39 0.950 . S
C33 C31 1.389 1_545 S
C33 C35 1.390 . S
C33 H37 0.950 . S
H34 C30 0.950 . S
C35 C33 1.390 . S
C35 C36 1.391 1_554 S
C35 H38 0.950 . S
C36 C35 1.391 1_556 S
C36 C39 1.387 1_545 S
H37 C33 0.950 . S
H38 C35 0.950 . S
C39 C30 1.390 . S
C39 H32 0.950 . S
C39 C36 1.387 1_565 S
C40 C41 1.392 1_655 S
C40 H44 0.952 . S
C40 C49 1.386 . S
C41 C40 1.392 1_455 S
C41 C43 1.389 1_554 S
H42 C49 0.950 . S
C43 C41 1.389 1_556 S
C43 C45 1.390 . S
C43 H47 0.950 . S
H44 C40 0.952 . S
C45 C43 1.390 . S
C45 C46 1.389 1_456 S
C45 H48 0.950 . S
C46 C45 1.389 1_654 S
C46 C49 1.389 . S
H47 C43 0.950 . S
H48 C45 0.950 . S
C49 C40 1.386 . S
C49 H42 0.950 . S
C49 C46 1.389 . S
C21 C8 1.458 1_565 S
C26 C9 1.457 1_545 S
C31 C19 1.489 1_564 S
C36 C18 1.488 1_546 S
C41 C1 1.479 1_454 S
C46 C2 1.480 1_655 S
