# Generated by pormake.
# Topology lon, (4)-cn, num edge types: 1
# Building blocks:
#     Node 0, Type 0, BuildingBlock: CEKHIL_clean_sbu_0, # of connection points: 4
#     Node 1, Type 0, BuildingBlock: CEKHIL_clean_sbu_0, # of connection points: 4
#     Node 2, Type 0, BuildingBlock: CEKHIL_clean_sbu_0, # of connection points: 4
#     Node 3, Type 0, BuildingBlock: CEKHIL_clean_sbu_0, # of connection points: 4
#     Edge 4, Type (0, 0), BuildingBlock: KIFKEQ_clean_linker_1, # of connection points: 2
#     Edge 5, Type (0, 0), BuildingBlock: KIFKEQ_clean_linker_1, # of connection points: 2
#     Edge 6, Type (0, 0), BuildingBlock: KIFKEQ_clean_linker_1, # of connection points: 2
#     Edge 7, Type (0, 0), BuildingBlock: KIFKEQ_clean_linker_1, # of connection points: 2
#     Edge 8, Type (0, 0), BuildingBlock: KIFKEQ_clean_linker_1, # of connection points: 2
#     Edge 9, Type (0, 0), BuildingBlock: KIFKEQ_clean_linker_1, # of connection points: 2
#     Edge 10, Type (0, 0), BuildingBlock: KIFKEQ_clean_linker_1, # of connection points: 2
#     Edge 11, Type (0, 0), BuildingBlock: KIFKEQ_clean_linker_1, # of connection points: 2
# Relax obj value: 0.141
# Max RMSD: 0.174
# Mean RMSD: 0.173
data_MOF--net-lon--node1-CEKHIL_clean_sbu_0--edge1-KIFKEQ_clean_linker_1
_symmetry_space_group_name_H-M    P1
_symmetry_Int_Tables_number       1
_symmetry_cell_setting            triclinic
loop_
_symmetry_equiv_pos_as_xyz
'x, y, z'
_cell_length_a     22.903716
_cell_length_b     24.874697
_cell_length_c     40.986996
_cell_angle_alpha  91.429252
_cell_angle_beta   89.841564
_cell_angle_gamma 117.35614
loop_
_atom_site_label
_atom_site_type_symbol
_atom_site_fract_x
_atom_site_fract_y
_atom_site_fract_z
_atom_type_partial_charge
Co0 Co 0.37645 0.71454 0.08635 0.0
O1 O 0.34511 0.74554 0.12291 0.0
O2 O 0.37555 0.67354 0.12594 0.0
C3 C 0.44603 0.80633 0.06642 0.0
O4 O 0.41504 0.67187 0.05663 0.0
Co5 Co 0.36247 0.73554 1.01308 0.0
O6 O 0.42187 0.6988 1.0044 0.0
C7 C 0.24642 0.64987 0.04993 0.0
C8 C 0.35525 0.70829 0.14098 0.0
C9 C 0.43322 0.67048 0.02696 0.0
O10 O 0.28305 0.65203 0.07438 0.0
O11 O 0.26857 0.68381 0.02524 0.0
O12 O 0.46371 0.78516 0.09112 0.0
O13 O 0.38668 0.77369 0.05603 0.0
Co14 Co 0.65479 0.33889 0.58845 0.0
O15 O 0.59554 0.30409 0.62485 0.0
O16 O 0.7028 0.33663 0.62675 0.0
C17 C 0.61172 0.40069 0.57348 0.0
O18 O 0.734 0.38032 0.55848 0.0
Co19 Co 0.61218 0.33326 0.51589 0.0
O20 O 0.70507 0.39049 0.50765 0.0
C21 C 0.619 0.22758 0.5446 0.0
C22 C 0.64733 0.31444 0.64216 0.0
C23 C 0.74875 0.3997 0.52922 0.0
O24 O 0.64092 0.25588 0.57226 0.0
O25 O 0.6024 0.24983 0.52064 0.0
O26 O 0.65397 0.41656 0.59744 0.0
O27 O 0.59493 0.34784 0.56057 0.0
Co28 Co 0.32646 0.68168 0.44254 0.0
O29 O 0.30205 0.71656 0.40629 0.0
O30 O 0.37681 0.68399 0.40411 0.0
C31 C 0.22162 0.61985 0.45759 0.0
O32 O 0.36417 0.64019 0.4724 0.0
Co33 Co 0.28903 0.68728 0.51516 0.0
O34 O 0.32475 0.63004 0.52327 0.0
C35 C 0.40158 0.79292 0.4864 0.0
C36 C 0.34349 0.7062 0.38883 0.0
C37 C 0.35938 0.62082 0.50166 0.0
O38 O 0.39537 0.76465 0.45872 0.0
O39 O 0.36263 0.77068 0.51039 0.0
O40 O 0.24818 0.60403 0.43357 0.0
O41 O 0.25749 0.67268 0.47052 0.0
Co42 Co 0.67341 0.30518 0.94452 0.0
O43 O 0.61072 0.27587 0.90824 0.0
O44 O 0.71436 0.34487 0.90472 0.0
C45 C 0.64772 0.21272 0.96464 0.0
O46 O 0.75515 0.34565 0.97392 0.0
Co47 Co 0.63892 0.28598 0.01798 0.0
O48 O 0.73454 0.31862 0.02612 0.0
C49 C 0.62279 0.38159 0.98287 0.0
C50 C 0.65873 0.3117 0.88994 0.0
C51 C 0.77454 0.34615 1.00349 0.0
O52 O 0.64696 0.37091 0.95642 0.0
O53 O 0.61302 0.3508 1.0087 0.0
O54 O 0.68646 0.23265 0.93974 0.0
O55 O 0.6228 0.24696 0.97515 0.0
H56 H 0.36882 0.63165 0.18327 0.0
H57 H 0.32812 0.78459 0.18089 0.0
H58 H 0.36625 0.63438 0.24259 0.0
H59 H 0.32701 0.78835 0.24062 0.0
H60 H 0.26823 0.7368 0.34854 0.0
H61 H 0.26869 0.73785 0.28889 0.0
H62 H 0.43032 0.6936 0.28793 0.0
H63 H 0.42868 0.69114 0.34727 0.0
C64 C 0.35918 0.6659 0.19541 0.0
C65 C 0.34877 0.70795 0.1772 0.0
C66 C 0.35832 0.66786 0.22958 0.0
C67 C 0.3473 0.71211 0.24669 0.0
C68 C 0.3353 0.75338 0.22843 0.0
C69 C 0.33605 0.75132 0.19412 0.0
C70 C 0.30428 0.72789 0.33558 0.0
C71 C 0.34825 0.71364 0.35279 0.0
C72 C 0.30465 0.7286 0.3013 0.0
C73 C 0.34901 0.71507 0.28332 0.0
C74 C 0.39437 0.70286 0.30073 0.0
C75 C 0.39388 0.70201 0.3349 0.0
H76 H 0.74711 0.32747 0.68316 0.0
H77 H 0.54216 0.28563 0.68296 0.0
H78 H 0.74668 0.32482 0.74248 0.0
H79 H 0.542 0.28452 0.74262 0.0
H80 H 0.5541 0.23729 0.85043 0.0
H81 H 0.54872 0.23365 0.79072 0.0
H82 H 0.74389 0.38434 0.78807 0.0
H83 H 0.74971 0.38683 0.84735 0.0
C84 C 0.70177 0.31743 0.69578 0.0
C85 C 0.64472 0.3069 0.67819 0.0
C86 C 0.70164 0.31648 0.72994 0.0
C87 C 0.64455 0.30533 0.74765 0.0
C88 C 0.58684 0.29292 0.72997 0.0
C89 C 0.58693 0.29367 0.69569 0.0
C90 C 0.59564 0.26985 0.83705 0.0
C91 C 0.65243 0.3122 0.85377 0.0
C92 C 0.59254 0.26788 0.80275 0.0
C93 C 0.64617 0.30824 0.78429 0.0
C94 C 0.70216 0.35152 0.80122 0.0
C95 C 0.7053 0.35336 0.83537 0.0
H96 H 0.48852 0.66132 0.96858 0.0
H97 H 0.45182 0.59249 0.06629 0.0
H98 H 0.54102 0.5974 0.95531 0.0
H99 H 0.50202 0.52781 0.05281 0.0
H100 H 0.64527 0.45835 0.03429 0.0
H101 H 0.60576 0.53285 0.04288 0.0
H102 H 0.52023 0.49317 0.9459 0.0
H103 H 0.56281 0.41956 0.9369 0.0
C104 C 0.49154 0.6326 0.98724 0.0
C105 C 0.46623 0.63252 0.01863 0.0
C106 C 0.52132 0.59565 0.97953 0.0
C107 C 0.52645 0.55768 1.00301 0.0
C108 C 0.50058 0.55742 0.03426 0.0
C109 C 0.47128 0.59443 0.04199 0.0
C110 C 0.61878 0.46609 1.0146 0.0
C111 C 0.60649 0.4327 0.98505 0.0
C112 C 0.59556 0.5085 0.01962 0.0
C113 C 0.55817 0.51807 0.99545 0.0
C114 C 0.54883 0.48702 0.96509 0.0
C115 C 0.57315 0.44487 0.95987 0.0
H116 H 0.16684 0.6371 0.51316 0.0
H117 H 0.12396 0.51676 0.42891 0.0
H118 H 0.05374 0.58113 0.53098 0.0
H119 H 1.00989 0.46011 0.44697 0.0
H120 H 0.79877 0.43317 0.46802 0.0
H121 H 0.91353 0.48077 0.45169 0.0
H122 H 0.97324 0.48255 0.5517 0.0
H123 H 0.85828 0.43522 0.56825 0.0
C124 C 0.13339 0.59817 0.4986 0.0
C125 C 0.15433 0.58146 0.46953 0.0
C126 C 0.06852 0.56588 0.50895 0.0
C127 C 0.02269 0.51629 0.49037 0.0
C128 C 0.04393 0.49855 0.46165 0.0
C129 C 0.10927 0.53066 0.45142 0.0
C130 C 0.83622 0.4438 0.48664 0.0
C131 C 0.81903 0.43058 0.51955 0.0
C132 C 0.90208 0.47054 0.47716 0.0
C133 C 0.95254 0.48518 0.50034 0.0
C134 C 0.93551 0.47216 0.53326 0.0
C135 C 0.86956 0.44499 0.54274 0.0
H136 H 0.65659 0.11413 0.93862 0.0
H137 H 0.60342 0.18028 0.02633 0.0
H138 H 0.61916 0.01479 0.96324 0.0
H139 H 0.5676 0.08196 0.05101 0.0
H140 H 0.54971 0.90629 0.0938 0.0
H141 H 0.61056 1.00624 0.06953 0.0
H142 H 0.50065 0.93626 0.97972 0.0
H143 H 0.43926 0.8375 1.00401 0.0
C144 C 0.63814 0.10782 0.96332 0.0
C145 C 0.63257 0.15487 0.98045 0.0
C146 C 0.61661 0.05102 0.97737 0.0
C147 C 0.5906 0.04071 1.00908 0.0
C148 C 0.58803 0.0887 0.0267 0.0
C149 C 0.60816 0.14491 1.01244 0.0
C150 C 0.5395 0.91214 0.06871 0.0
C151 C 0.48954 0.8642 0.05087 0.0
C152 C 0.57405 0.96929 0.05489 0.0
C153 C 0.56033 0.97898 0.02272 0.0
C154 C 0.51275 0.93007 1.00442 0.0
C155 C 0.47733 0.87357 0.01844 0.0
H156 H 0.54026 0.38338 0.51791 0.0
H157 H 0.61685 0.50394 0.60207 0.0
H158 H 0.48333 0.43941 0.50001 0.0
H159 H 0.55962 0.56065 0.58393 0.0
H160 H 0.37557 0.58753 0.56287 0.0
H161 H 0.44271 0.54002 0.57922 0.0
H162 H 0.50142 0.53795 0.4792 0.0
H163 H 0.43379 0.58522 0.46262 0.0
C164 C 0.54559 0.42237 0.53243 0.0
C165 C 0.58293 0.43912 0.5615 0.0
C166 C 0.51313 0.4547 0.52204 0.0
C167 C 0.51669 0.50437 0.54057 0.0
C168 C 0.55537 0.52214 0.56929 0.0
C169 C 0.5885 0.49 0.57957 0.0
C170 C 0.40255 0.57686 0.54425 0.0
C171 C 0.39879 0.58998 0.51133 0.0
C172 C 0.44166 0.55017 0.55375 0.0
C173 C 0.47769 0.53547 0.53057 0.0
C174 C 0.47391 0.54839 0.49764 0.0
C175 C 0.43514 0.57552 0.48814 0.0
H176 H 0.18148 0.5413 0.08174 0.0
H177 H 0.15074 0.65714 1.01448 0.0
H178 H 0.06754 0.46308 0.07199 0.0
H179 H 0.03854 0.58034 1.00516 0.0
H180 H 0.87528 0.41163 0.96232 0.0
H181 H 0.98842 0.48188 0.97656 0.0
H182 H 0.9482 0.4388 0.07818 0.0
H183 H 0.83453 0.36737 0.06393 0.0
C184 C 0.15031 0.55048 0.06535 0.0
C185 C 0.17561 0.60514 0.04854 0.0
C186 C 0.08518 0.50569 0.0597 0.0
C187 C 0.04448 0.51494 0.03716 0.0
C188 C 0.06904 0.57091 0.02187 0.0
C189 C 0.13348 0.6152 0.02743 0.0
C190 C 0.89039 0.4165 0.98769 0.0
C191 C 0.84527 0.38414 1.01196 0.0
C192 C 0.95534 0.45714 0.9959 0.0
C193 C 0.97711 0.46676 0.02861 0.0
C194 C 0.93303 0.43243 0.05277 0.0
C195 C 0.86777 0.39164 0.04456 0.0
H196 H 0.65043 0.18333 0.49027 0.0
H197 H 0.56597 0.13194 0.58567 0.0
H198 H 0.61504 0.07754 0.47515 0.0
H199 H 0.52775 0.02543 0.57028 0.0
H200 H 0.4768 0.837 0.5407 0.0
H201 H 0.54722 0.94271 0.55581 0.0
H202 H 0.5129 0.99507 0.46074 0.0
H203 H 0.44458 0.88862 0.44536 0.0
C204 C 0.62516 0.14917 0.50822 0.0
C205 C 0.61054 0.16557 0.53908 0.0
C206 C 0.60428 0.0885 0.49943 0.0
C207 C 0.56729 0.04258 0.52114 0.0
C208 C 0.55656 0.05942 0.55291 0.0
C209 C 0.57842 0.12047 0.56187 0.0
C210 C 0.48586 0.87119 0.52276 0.0
C211 C 0.45508 0.85488 0.49192 0.0
C212 C 0.52567 0.93182 0.53154 0.0
C213 C 0.53487 0.97779 0.50984 0.0
C214 C 0.50752 0.96103 0.4781 0.0
C215 C 0.46831 0.90002 0.46915 0.0
loop_
_geom_bond_atom_site_label_1
_geom_bond_atom_site_label_2
_geom_bond_distance
_geom_bond_site_symmetry_2
_ccdc_geom_bond_type
Co0 O1 2.216 . S
Co0 O2 2.091 . S
Co0 O4 2.004 . S
Co0 O10 2.021 . S
Co0 O12 2.137 . S
Co0 O13 2.244 . S
O1 Co0 2.216 . S
O1 C8 1.247 . S
O2 Co0 2.091 . S
O2 C8 1.261 . S
C3 O12 1.247 . S
C3 O13 1.272 . S
O4 Co0 2.004 . S
O4 C9 1.259 . S
Co5 O6 2.061 1_556 S
Co5 O11 2.052 1_556 S
Co5 O13 2.135 1_556 S
O6 Co5 2.061 1_554 S
O6 C9 1.235 . S
C7 O10 1.238 . S
C7 O11 1.241 . S
C8 O1 1.247 . S
C8 O2 1.261 . S
C9 O4 1.259 . S
C9 O6 1.235 . S
O10 Co0 2.021 . S
O10 C7 1.238 . S
O11 Co5 2.052 1_554 S
O11 C7 1.241 . S
O12 Co0 2.137 . S
O12 C3 1.247 . S
O13 Co0 2.244 . S
O13 C3 1.272 . S
O13 Co5 2.135 1_554 S
Co14 O15 2.216 . S
Co14 O16 2.091 . S
Co14 O18 2.004 . S
Co14 O24 2.021 . S
Co14 O26 2.137 . S
Co14 O27 2.244 . S
O15 Co14 2.216 . S
O15 C22 1.247 . S
O16 Co14 2.091 . S
O16 C22 1.261 . S
C17 O26 1.247 . S
C17 O27 1.272 . S
O18 Co14 2.004 . S
O18 C23 1.259 . S
Co19 O20 2.061 . S
Co19 O25 2.052 . S
Co19 O27 2.135 . S
O20 Co19 2.061 . S
O20 C23 1.235 . S
C21 O24 1.238 . S
C21 O25 1.241 . S
C22 O15 1.247 . S
C22 O16 1.261 . S
C23 O18 1.259 . S
C23 O20 1.235 . S
O24 Co14 2.021 . S
O24 C21 1.238 . S
O25 Co19 2.052 . S
O25 C21 1.241 . S
O26 Co14 2.137 . S
O26 C17 1.247 . S
O27 Co14 2.244 . S
O27 C17 1.272 . S
O27 Co19 2.135 . S
Co28 O29 2.216 . S
Co28 O30 2.091 . S
Co28 O32 2.004 . S
Co28 O38 2.021 . S
Co28 O40 2.137 . S
Co28 O41 2.244 . S
O29 Co28 2.216 . S
O29 C36 1.247 . S
O30 Co28 2.091 . S
O30 C36 1.261 . S
C31 O40 1.247 . S
C31 O41 1.272 . S
O32 Co28 2.004 . S
O32 C37 1.259 . S
Co33 O34 2.061 . S
Co33 O39 2.052 . S
Co33 O41 2.135 . S
O34 Co33 2.061 . S
O34 C37 1.235 . S
C35 O38 1.238 . S
C35 O39 1.241 . S
C36 O29 1.247 . S
C36 O30 1.261 . S
C37 O32 1.259 . S
C37 O34 1.235 . S
O38 Co28 2.021 . S
O38 C35 1.238 . S
O39 Co33 2.052 . S
O39 C35 1.241 . S
O40 Co28 2.137 . S
O40 C31 1.247 . S
O41 Co28 2.244 . S
O41 C31 1.272 . S
O41 Co33 2.135 . S
Co42 O43 2.216 . S
Co42 O44 2.091 . S
Co42 O46 2.004 . S
Co42 O52 2.021 . S
Co42 O54 2.137 . S
Co42 O55 2.244 . S
O43 Co42 2.216 . S
O43 C50 1.247 . S
O44 Co42 2.091 . S
O44 C50 1.261 . S
C45 O54 1.247 . S
C45 O55 1.272 . S
O46 Co42 2.004 . S
O46 C51 1.259 . S
Co47 O48 2.061 1_554 S
Co47 O53 2.052 1_554 S
Co47 O55 2.135 1_554 S
O48 Co47 2.061 1_556 S
O48 C51 1.235 . S
C49 O52 1.238 . S
C49 O53 1.241 . S
C50 O43 1.247 . S
C50 O44 1.261 . S
C51 O46 1.259 . S
C51 O48 1.235 . S
O52 Co42 2.021 . S
O52 C49 1.238 . S
O53 Co47 2.052 1_556 S
O53 C49 1.241 . S
O54 Co42 2.137 . S
O54 C45 1.247 . S
O55 Co42 2.244 . S
O55 C45 1.272 . S
O55 Co47 2.135 1_556 S
H56 C64 0.950 . S
H57 C69 0.950 . S
H58 C66 0.950 . S
H59 C68 0.950 . S
H60 C70 0.950 . S
H61 C72 0.950 . S
H62 C74 0.950 . S
H63 C75 0.950 . S
C64 H56 0.950 . S
C64 C65 1.386 . S
C64 C66 1.391 . S
C65 C64 1.386 . S
C65 C69 1.393 . S
C66 H58 0.950 . S
C66 C64 1.391 . S
C66 C67 1.400 . S
C67 C66 1.400 . S
C67 C68 1.398 . S
C67 C73 1.491 . S
C68 H59 0.950 . S
C68 C67 1.398 . S
C68 C69 1.391 . S
C69 H57 0.950 . S
C69 C65 1.393 . S
C69 C68 1.391 . S
C70 H60 0.950 . S
C70 C71 1.386 . S
C70 C72 1.391 . S
C71 C70 1.386 . S
C71 C75 1.393 . S
C72 H61 0.950 . S
C72 C70 1.391 . S
C72 C73 1.400 . S
C73 C67 1.491 . S
C73 C72 1.400 . S
C73 C74 1.398 . S
C74 H62 0.950 . S
C74 C73 1.398 . S
C74 C75 1.391 . S
C75 H63 0.950 . S
C75 C71 1.393 . S
C75 C74 1.391 . S
H76 C84 0.950 . S
H77 C89 0.950 . S
H78 C86 0.950 . S
H79 C88 0.950 . S
H80 C90 0.950 . S
H81 C92 0.950 . S
H82 C94 0.950 . S
H83 C95 0.950 . S
C84 H76 0.950 . S
C84 C85 1.386 . S
C84 C86 1.391 . S
C85 C84 1.386 . S
C85 C89 1.393 . S
C86 H78 0.950 . S
C86 C84 1.391 . S
C86 C87 1.400 . S
C87 C86 1.400 . S
C87 C88 1.398 . S
C87 C93 1.491 . S
C88 H79 0.950 . S
C88 C87 1.398 . S
C88 C89 1.391 . S
C89 H77 0.950 . S
C89 C85 1.393 . S
C89 C88 1.391 . S
C90 H80 0.950 . S
C90 C91 1.386 . S
C90 C92 1.391 . S
C91 C90 1.386 . S
C91 C95 1.393 . S
C92 H81 0.950 . S
C92 C90 1.391 . S
C92 C93 1.400 . S
C93 C87 1.491 . S
C93 C92 1.400 . S
C93 C94 1.398 . S
C94 H82 0.950 . S
C94 C93 1.398 . S
C94 C95 1.391 . S
C95 H83 0.950 . S
C95 C91 1.393 . S
C95 C94 1.391 . S
H96 C104 0.950 . S
H97 C109 0.950 . S
H98 C106 0.950 . S
H99 C108 0.950 . S
H100 C110 0.944 1_554 S
H101 C112 0.921 1_554 S
H102 C114 0.950 . S
H103 C115 0.950 . S
C104 H96 0.950 . S
C104 C105 1.386 1_556 S
C104 C106 1.391 . S
C105 C104 1.386 1_554 S
C105 C109 1.393 . S
C106 H98 0.950 . S
C106 C104 1.391 . S
C106 C107 1.400 . S
C107 C106 1.400 . S
C107 C108 1.398 1_556 S
C107 C113 1.491 . S
C108 H99 0.950 . S
C108 C107 1.398 1_554 S
C108 C109 1.391 . S
C109 H97 0.950 . S
C109 C105 1.393 . S
C109 C108 1.391 . S
C110 H100 0.944 1_556 S
C110 C111 1.386 . S
C110 C112 1.402 . S
C111 C110 1.386 . S
C111 C115 1.393 . S
C112 H101 0.921 1_556 S
C112 C110 1.402 . S
C112 C113 1.418 . S
C113 C107 1.491 . S
C113 C112 1.418 . S
C113 C114 1.398 . S
C114 H102 0.950 . S
C114 C113 1.398 . S
C114 C115 1.391 . S
C115 H103 0.950 . S
C115 C111 1.393 . S
C115 C114 1.391 . S
H116 C124 0.950 . S
H117 C129 0.950 . S
H118 C126 0.950 . S
H119 C128 0.950 . S
H120 C130 0.950 . S
H121 C132 0.950 . S
H122 C134 0.950 . S
H123 C135 0.950 . S
C124 H116 0.950 . S
C124 C125 1.386 . S
C124 C126 1.391 . S
C125 C124 1.386 . S
C125 C129 1.393 . S
C126 H118 0.950 . S
C126 C124 1.391 . S
C126 C127 1.400 . S
C127 C126 1.400 . S
C127 C128 1.398 . S
C127 C133 1.491 1_455 S
C128 H119 0.950 . S
C128 C127 1.398 . S
C128 C129 1.391 . S
C129 H117 0.950 . S
C129 C125 1.393 . S
C129 C128 1.391 . S
C130 H120 0.950 . S
C130 C131 1.386 . S
C130 C132 1.391 . S
C131 C130 1.386 . S
C131 C135 1.393 . S
C132 H121 0.950 . S
C132 C130 1.391 . S
C132 C133 1.400 . S
C133 C127 1.491 1_655 S
C133 C132 1.400 . S
C133 C134 1.398 . S
C134 H122 0.950 . S
C134 C133 1.398 . S
C134 C135 1.391 . S
C135 H123 0.950 . S
C135 C131 1.393 . S
C135 C134 1.391 . S
H136 C144 0.950 . S
H137 C149 0.950 1_554 S
H138 C146 0.950 . S
H139 C148 0.950 . S
H140 C150 0.950 . S
H141 C152 0.950 . S
H142 C154 0.950 . S
H143 C155 0.950 1_556 S
C144 H136 0.950 . S
C144 C145 1.386 . S
C144 C146 1.391 . S
C145 C144 1.386 . S
C145 C149 1.393 . S
C146 H138 0.950 . S
C146 C144 1.391 . S
C146 C147 1.400 . S
C147 C146 1.400 . S
C147 C148 1.398 1_556 S
C147 C153 1.491 1_546 S
C148 H139 0.950 . S
C148 C147 1.398 1_554 S
C148 C149 1.391 1_554 S
C149 H137 0.950 1_556 S
C149 C145 1.393 . S
C149 C148 1.391 1_556 S
C150 H140 0.950 . S
C150 C151 1.386 . S
C150 C152 1.391 . S
C151 C150 1.386 . S
C151 C155 1.393 . S
C152 H141 0.950 . S
C152 C150 1.391 . S
C152 C153 1.400 . S
C153 C147 1.491 1_564 S
C153 C152 1.400 . S
C153 C154 1.398 1_554 S
C154 H142 0.950 . S
C154 C153 1.398 1_556 S
C154 C155 1.391 1_556 S
C155 H143 0.950 1_554 S
C155 C151 1.393 . S
C155 C154 1.391 1_554 S
H156 C164 0.950 . S
H157 C169 0.950 . S
H158 C166 0.950 . S
H159 C168 0.950 . S
H160 C170 0.950 . S
H161 C172 0.950 . S
H162 C174 0.950 . S
H163 C175 0.950 . S
C164 H156 0.950 . S
C164 C165 1.386 . S
C164 C166 1.391 . S
C165 C164 1.386 . S
C165 C169 1.393 . S
C166 H158 0.950 . S
C166 C164 1.391 . S
C166 C167 1.400 . S
C167 C166 1.400 . S
C167 C168 1.398 . S
C167 C173 1.491 . S
C168 H159 0.950 . S
C168 C167 1.398 . S
C168 C169 1.391 . S
C169 H157 0.950 . S
C169 C165 1.393 . S
C169 C168 1.391 . S
C170 H160 0.950 . S
C170 C171 1.386 . S
C170 C172 1.391 . S
C171 C170 1.386 . S
C171 C175 1.393 . S
C172 H161 0.950 . S
C172 C170 1.391 . S
C172 C173 1.400 . S
C173 C167 1.491 . S
C173 C172 1.400 . S
C173 C174 1.398 . S
C174 H162 0.950 . S
C174 C173 1.398 . S
C174 C175 1.391 . S
C175 H163 0.950 . S
C175 C171 1.393 . S
C175 C174 1.391 . S
H176 C184 0.950 . S
H177 C189 0.932 1_556 S
H178 C186 0.950 . S
H179 C188 0.950 1_556 S
H180 C190 0.950 . S
H181 C192 0.950 . S
H182 C194 0.950 . S
H183 C195 0.950 . S
C184 H176 0.950 . S
C184 C185 1.386 . S
C184 C186 1.391 . S
C185 C184 1.386 . S
C185 C189 1.393 . S
C186 H178 0.950 . S
C186 C184 1.391 . S
C186 C187 1.400 . S
C187 C186 1.400 . S
C187 C188 1.398 . S
C187 C193 1.491 1_455 S
C188 H179 0.950 1_554 S
C188 C187 1.398 . S
C188 C189 1.391 . S
C189 H177 0.932 1_554 S
C189 C185 1.393 . S
C189 C188 1.391 . S
C190 H180 0.950 . S
C190 C191 1.386 . S
C190 C192 1.391 . S
C191 C190 1.386 . S
C191 C195 1.393 1_556 S
C192 H181 0.950 . S
C192 C190 1.391 . S
C192 C193 1.400 1_556 S
C193 C187 1.491 1_655 S
C193 C192 1.400 1_554 S
C193 C194 1.398 . S
C194 H182 0.950 . S
C194 C193 1.398 . S
C194 C195 1.391 . S
C195 H183 0.950 . S
C195 C191 1.393 1_554 S
C195 C194 1.391 . S
H196 C204 0.950 . S
H197 C209 0.950 . S
H198 C206 0.950 . S
H199 C208 0.950 . S
H200 C210 0.950 . S
H201 C212 0.950 . S
H202 C214 0.950 . S
H203 C215 0.950 . S
C204 H196 0.950 . S
C204 C205 1.386 . S
C204 C206 1.391 . S
C205 C204 1.386 . S
C205 C209 1.393 . S
C206 H198 0.950 . S
C206 C204 1.391 . S
C206 C207 1.400 . S
C207 C206 1.400 . S
C207 C208 1.398 . S
C207 C213 1.491 1_545 S
C208 H199 0.950 . S
C208 C207 1.398 . S
C208 C209 1.391 . S
C209 H197 0.950 . S
C209 C205 1.393 . S
C209 C208 1.391 . S
C210 H200 0.950 . S
C210 C211 1.386 . S
C210 C212 1.391 . S
C211 C210 1.386 . S
C211 C215 1.393 . S
C212 H201 0.950 . S
C212 C210 1.391 . S
C212 C213 1.400 . S
C213 C207 1.491 1_565 S
C213 C212 1.400 . S
C213 C214 1.398 . S
C214 H202 0.950 . S
C214 C213 1.398 . S
C214 C215 1.391 . S
C215 H203 0.950 . S
C215 C211 1.393 . S
C215 C214 1.391 . S
C65 C8 1.569 . S
C71 C36 1.563 . S
C85 C22 1.564 . S
C91 C50 1.567 . S
C105 C9 1.542 . S
C111 C49 1.495 . S
C125 C31 1.568 . S
C131 C23 1.567 . S
C145 C45 1.590 . S
C151 C3 1.586 . S
C165 C17 1.568 . S
C171 C37 1.567 . S
C185 C7 1.504 . S
C191 C51 1.543 . S
C205 C21 1.473 . S
C211 C35 1.464 . S
