# Generated by pormake.
# Topology rac, (4)-cn, num edge types: 1
# Building blocks:
#     Node 0, Type 0, BuildingBlock: AZAVOO_clean_sbu_0, # of connection points: 4
#     Node 1, Type 0, BuildingBlock: AZAVOO_clean_sbu_0, # of connection points: 4
#     Node 2, Type 0, BuildingBlock: AZAVOO_clean_sbu_0, # of connection points: 4
#     Node 3, Type 0, BuildingBlock: AZAVOO_clean_sbu_0, # of connection points: 4
#     Node 4, Type 0, BuildingBlock: AZAVOO_clean_sbu_0, # of connection points: 4
#     Node 5, Type 0, BuildingBlock: AZAVOO_clean_sbu_0, # of connection points: 4
#     Node 6, Type 0, BuildingBlock: AZAVOO_clean_sbu_0, # of connection points: 4
#     Node 7, Type 0, BuildingBlock: AZAVOO_clean_sbu_0, # of connection points: 4
#     Edge 8, Type (0, 0), BuildingBlock: EYOCIG_clean_linker_4, # of connection points: 2
#     Edge 9, Type (0, 0), BuildingBlock: EYOCIG_clean_linker_4, # of connection points: 2
#     Edge 10, Type (0, 0), BuildingBlock: EYOCIG_clean_linker_4, # of connection points: 2
#     Edge 11, Type (0, 0), BuildingBlock: EYOCIG_clean_linker_4, # of connection points: 2
#     Edge 12, Type (0, 0), BuildingBlock: EYOCIG_clean_linker_4, # of connection points: 2
#     Edge 13, Type (0, 0), BuildingBlock: EYOCIG_clean_linker_4, # of connection points: 2
#     Edge 14, Type (0, 0), BuildingBlock: EYOCIG_clean_linker_4, # of connection points: 2
#     Edge 15, Type (0, 0), BuildingBlock: EYOCIG_clean_linker_4, # of connection points: 2
#     Edge 16, Type (0, 0), BuildingBlock: EYOCIG_clean_linker_4, # of connection points: 2
#     Edge 17, Type (0, 0), BuildingBlock: EYOCIG_clean_linker_4, # of connection points: 2
#     Edge 18, Type (0, 0), BuildingBlock: EYOCIG_clean_linker_4, # of connection points: 2
#     Edge 19, Type (0, 0), BuildingBlock: EYOCIG_clean_linker_4, # of connection points: 2
#     Edge 20, Type (0, 0), BuildingBlock: EYOCIG_clean_linker_4, # of connection points: 2
#     Edge 21, Type (0, 0), BuildingBlock: EYOCIG_clean_linker_4, # of connection points: 2
#     Edge 22, Type (0, 0), BuildingBlock: EYOCIG_clean_linker_4, # of connection points: 2
#     Edge 23, Type (0, 0), BuildingBlock: EYOCIG_clean_linker_4, # of connection points: 2
# Relax obj value: 0.231
# Max RMSD: 0.130
# Mean RMSD: 0.130
data_MOF--net-rac--node1-AZAVOO_clean_sbu_0--edge1-EYOCIG_clean_linker_4
_symmetry_space_group_name_H-M    P1
_symmetry_Int_Tables_number       1
_symmetry_cell_setting            triclinic
loop_
_symmetry_equiv_pos_as_xyz
'x, y, z'
_cell_length_a     31.936701
_cell_length_b     15.410197
_cell_length_c     36.232124
_cell_angle_alpha  89.977591
_cell_angle_beta   90.039645
_cell_angle_gamma 89.974216
loop_
_atom_site_label
_atom_site_type_symbol
_atom_site_fract_x
_atom_site_fract_y
_atom_site_fract_z
_atom_type_partial_charge
Mg0 Mg 0.37233 0.20794 0.07669 0.0
O1 O 0.32025 0.30926 0.08047 0.0
O2 O 0.26536 0.25331 0.11052 0.0
Mg3 Mg 0.28371 0.11527 0.12765 0.0
C4 C 0.2833 0.31519 0.09336 0.0
C5 C 0.44276 0.31216 0.03326 0.0
O6 O 0.45179 0.23678 0.01843 0.0
O7 O 0.38924 0.23234 0.13731 0.0
O8 O 0.33425 0.17187 0.16591 0.0
O9 O 0.34216 0.15607 0.02527 0.0
O10 O 0.3284 0.10855 0.08164 0.0
C11 C 0.36943 0.21111 0.16655 0.0
C12 C 0.31979 0.10834 0.04702 0.0
O13 O 0.41438 0.31811 0.05756 0.0
Mg14 Mg 0.09109 0.79643 0.07681 0.0
O15 O 0.14401 0.69711 0.08083 0.0
O16 O 0.19845 0.75505 0.11089 0.0
Mg17 Mg 0.17884 0.89242 0.12788 0.0
C18 C 0.18102 0.69252 0.09375 0.0
C19 C 0.02072 0.6895 0.0343 0.0
O20 O 0.01 0.76479 0.02024 0.0
O21 O 0.07423 0.77182 0.13739 0.0
O22 O 0.12867 0.83424 0.16608 0.0
O23 O 0.12093 0.84889 0.02539 0.0
O24 O 0.13421 0.8974 0.0817 0.0
C25 C 0.0938 0.79385 0.16666 0.0
C26 C 0.14292 0.89749 0.0471 0.0
O27 O 0.05007 0.6845 0.05777 0.0
Mg28 Mg 0.37279 0.29653 0.43058 0.0
O29 O 0.32005 0.19678 0.42689 0.0
O30 O 0.26545 0.25414 0.39681 0.0
Mg31 Mg 0.2847 0.39146 0.37949 0.0
C32 C 0.28303 0.19186 0.41404 0.0
C33 C 0.44172 0.19016 0.47491 0.0
O34 O 0.4502 0.26494 0.49051 0.0
O35 O 0.38946 0.27124 0.37 0.0
O36 O 0.33482 0.33306 0.34131 0.0
O37 O 0.343 0.34947 0.48194 0.0
O38 O 0.32946 0.39714 0.42553 0.0
C39 C 0.36974 0.2928 0.34073 0.0
C40 C 0.32086 0.39766 0.46014 0.0
O41 O 0.41417 0.18521 0.4498 0.0
Mg42 Mg 0.09131 0.70872 0.43065 0.0
O43 O 0.14358 0.80949 0.42684 0.0
O44 O 0.19829 0.75317 0.39664 0.0
Mg45 Mg 0.17957 0.6155 0.37938 0.0
C46 C 0.18052 0.8151 0.41391 0.0
C47 C 0.02189 0.8137 0.47491 0.0
O48 O 0.01344 0.73862 0.49027 0.0
O49 O 0.0742 0.73369 0.37012 0.0
O50 O 0.12899 0.67292 0.34132 0.0
O51 O 0.12158 0.65637 0.48196 0.0
O52 O 0.13507 0.60892 0.42554 0.0
C53 C 0.09388 0.71248 0.34081 0.0
C54 C 0.14382 0.60857 0.46013 0.0
O55 O 0.04958 0.81924 0.44997 0.0
Mg56 Mg 0.59127 0.79618 0.93098 0.0
O57 O 0.6443 0.69707 0.92728 0.0
O58 O 0.69874 0.75504 0.89729 0.0
Mg59 Mg 0.67906 0.89218 0.88002 0.0
C60 C 0.68133 0.69255 0.91448 0.0
C61 C 0.52144 0.68904 0.97399 0.0
O62 O 0.51125 0.76416 0.98847 0.0
O63 O 0.57463 0.77091 0.87038 0.0
O64 O 0.62909 0.83334 0.84176 0.0
O65 O 0.62094 0.84926 0.9824 0.0
O66 O 0.6343 0.8973 0.92603 0.0
C67 C 0.59428 0.79273 0.84114 0.0
C68 C 0.64293 0.89775 0.96065 0.0
O69 O 0.5503 0.6842 0.95008 0.0
Mg70 Mg 0.87254 0.2078 0.93105 0.0
O71 O 0.82053 0.30922 0.92731 0.0
O72 O 0.76555 0.25357 0.89724 0.0
Mg73 Mg 0.78381 0.11559 0.88002 0.0
C74 C 0.78356 0.31531 0.91444 0.0
C75 C 0.94247 0.31228 0.97502 0.0
O76 O 0.95099 0.23718 0.99037 0.0
O77 O 0.88944 0.23233 0.87046 0.0
O78 O 0.83438 0.17215 0.84181 0.0
O79 O 0.84234 0.15593 0.98245 0.0
O80 O 0.82852 0.10853 0.92607 0.0
C81 C 0.86959 0.21124 0.8412 0.0
C82 C 0.81991 0.10834 0.96068 0.0
O83 O 0.9146 0.31793 0.95021 0.0
Mg84 Mg 0.59128 0.70789 0.57704 0.0
O85 O 0.64364 0.80845 0.58078 0.0
O86 O 0.69849 0.75178 0.61075 0.0
Mg87 Mg 0.67979 0.61402 0.62792 0.0
C88 C 0.68066 0.81388 0.5936 0.0
C89 C 0.52042 0.81318 0.53432 0.0
O90 O 0.51039 0.73773 0.52006 0.0
O91 O 0.57458 0.73241 0.63767 0.0
O92 O 0.62948 0.67122 0.66623 0.0
O93 O 0.62123 0.65576 0.52559 0.0
O94 O 0.63497 0.60791 0.58194 0.0
C95 C 0.5944 0.71088 0.66689 0.0
C96 C 0.64354 0.60774 0.54732 0.0
O97 O 0.54954 0.81878 0.55798 0.0
Mg98 Mg 0.87254 0.29593 0.57713 0.0
O99 O 0.81989 0.19602 0.58085 0.0
O100 O 0.76529 0.25316 0.61092 0.0
Mg101 Mg 0.78447 0.39055 0.62819 0.0
C102 C 0.7829 0.19096 0.5937 0.0
C103 C 0.94341 0.19029 0.53469 0.0
O104 O 0.95408 0.26591 0.52095 0.0
O105 O 0.88937 0.27073 0.63771 0.0
O106 O 0.83473 0.33239 0.66639 0.0
O107 O 0.84264 0.34871 0.52575 0.0
O108 O 0.82914 0.39642 0.58213 0.0
C109 C 0.86969 0.29227 0.66698 0.0
C110 C 0.8205 0.39686 0.54751 0.0
O111 O 0.9139 0.18468 0.55794 0.0
C112 C 0.25038 0.02629 0.02911 0.0
C113 C 0.2825 0.06557 0.03436 0.0
C114 C 0.21207 0.98042 0.02917 0.0
C115 C 0.18008 0.94075 0.0345 0.0
C116 C 0.2133 0.52641 0.47793 0.0
C117 C 0.18116 0.56571 0.47267 0.0
C118 C 0.25165 0.48059 0.47795 0.0
C119 C 0.28367 0.44094 0.47271 0.0
C120 C 0.71205 0.98091 0.97854 0.0
C121 C 0.68007 0.94115 0.97325 0.0
C122 C 0.75039 0.02668 0.97856 0.0
C123 C 0.78256 0.06577 0.9733 0.0
C124 C 0.71291 0.5255 0.52944 0.0
C125 C 0.68081 0.56487 0.53467 0.0
C126 C 0.75126 0.47966 0.52954 0.0
C127 C 0.78329 0.44008 0.53489 0.0
C128 C 0.39364 0.24513 0.23436 0.0
C129 C 0.38611 0.23321 0.20213 0.0
C130 C 0.39369 0.2577 0.27297 0.0
C131 C 0.38626 0.27001 0.30518 0.0
C132 C 0.06959 0.74697 0.27306 0.0
C133 C 0.07711 0.73491 0.30528 0.0
C134 C 0.06963 0.75941 0.23443 0.0
C135 C 0.07718 0.77141 0.20222 0.0
C136 C 0.57038 0.75756 0.77334 0.0
C137 C 0.57781 0.76988 0.80556 0.0
C138 C 0.57038 0.74501 0.73472 0.0
C139 C 0.57784 0.73308 0.70249 0.0
C140 C 0.89381 0.2575 0.73476 0.0
C141 C 0.88631 0.26966 0.70254 0.0
C142 C 0.89381 0.2451 0.7734 0.0
C143 C 0.8863 0.23326 0.80563 0.0
C144 C 0.47522 0.45908 0.0093 0.0
C145 C 0.46134 0.39028 0.01931 0.0
C146 C 0.48975 0.54114 0.99768 0.0
C147 C 0.50331 0.61025 0.98771 0.0
C148 C -0.01096 0.5416 0.01061 0.0
C149 C 0.00255 0.61075 0.02057 0.0
C150 C 0.97464 0.45945 0.999 0.0
C151 C 0.96086 0.39056 0.989 0.0
C152 C 0.48813 0.96049 0.51051 0.0
C153 C 0.50191 0.89154 0.52049 0.0
C154 C 0.47358 0.04256 0.49887 0.0
C155 C 0.45987 0.11152 0.48882 0.0
C156 C 0.97543 0.04292 0.51077 0.0
C157 C 0.9618 0.11191 0.52081 0.0
C158 C -0.01012 0.96088 0.49905 0.0
C159 C 0.00362 0.89203 0.48896 0.0
C160 C 0.22191 0.54447 0.08735 0.0
C161 C 0.20319 0.61201 0.09024 0.0
C162 C 0.24336 0.46444 0.0872 0.0
C163 C 0.2618 0.3965 0.0899 0.0
C164 C 0.24234 0.04366 0.42043 0.0
C165 C 0.26105 0.11119 0.41758 0.0
C166 C 0.2208 0.96377 0.42039 0.0
C167 C 0.20224 0.89606 0.41753 0.0
C168 C 0.72225 0.54454 0.9209 0.0
C169 C 0.7035 0.61205 0.918 0.0
C170 C 0.74369 0.46451 0.9209 0.0
C171 C 0.76208 0.39658 0.91806 0.0
C172 C 0.72089 0.96263 0.58721 0.0
C173 C 0.70237 0.89487 0.59004 0.0
C174 C 0.74233 0.04262 0.58723 0.0
C175 C 0.76097 0.11023 0.59012 0.0
loop_
_geom_bond_atom_site_label_1
_geom_bond_atom_site_label_2
_geom_bond_distance
_geom_bond_site_symmetry_2
_ccdc_geom_bond_type
Mg0 O1 2.028 . S
Mg0 O7 1.986 . S
Mg0 O9 2.114 . S
Mg0 O10 2.251 . S
Mg0 O13 2.010 . S
O1 Mg0 2.028 . S
O1 C4 1.250 . S
O2 Mg3 2.028 . S
O2 C4 1.248 . S
Mg3 O2 2.028 . S
Mg3 O8 2.032 . S
Mg3 O10 2.079 . S
C4 O1 1.250 . S
C4 O2 1.248 . S
C5 O6 1.264 . S
C5 O13 1.249 . S
O6 C5 1.264 . S
O7 Mg0 1.986 . S
O7 C11 1.246 . S
O8 Mg3 2.032 . S
O8 C11 1.259 . S
O9 Mg0 2.114 . S
O9 C12 1.252 . S
O10 Mg0 2.251 . S
O10 Mg3 2.079 . S
O10 C12 1.273 . S
C11 O7 1.246 . S
C11 O8 1.259 . S
C12 O9 1.252 . S
C12 O10 1.273 . S
O13 Mg0 2.010 . S
O13 C5 1.249 . S
Mg14 O15 2.028 . S
Mg14 O21 1.986 . S
Mg14 O23 2.114 . S
Mg14 O24 2.251 . S
Mg14 O27 2.010 . S
O15 Mg14 2.028 . S
O15 C18 1.250 . S
O16 Mg17 2.028 . S
O16 C18 1.248 . S
Mg17 O16 2.028 . S
Mg17 O22 2.032 . S
Mg17 O24 2.079 . S
C18 O15 1.250 . S
C18 O16 1.248 . S
C19 O20 1.264 . S
C19 O27 1.249 . S
O20 C19 1.264 . S
O21 Mg14 1.986 . S
O21 C25 1.246 . S
O22 Mg17 2.032 . S
O22 C25 1.259 . S
O23 Mg14 2.114 . S
O23 C26 1.252 . S
O24 Mg14 2.251 . S
O24 Mg17 2.079 . S
O24 C26 1.273 . S
C25 O21 1.246 . S
C25 O22 1.259 . S
C26 O23 1.252 . S
C26 O24 1.273 . S
O27 Mg14 2.010 . S
O27 C19 1.249 . S
Mg28 O29 2.028 . S
Mg28 O35 1.986 . S
Mg28 O37 2.114 . S
Mg28 O38 2.251 . S
Mg28 O41 2.010 . S
O29 Mg28 2.028 . S
O29 C32 1.250 . S
O30 Mg31 2.028 . S
O30 C32 1.248 . S
Mg31 O30 2.028 . S
Mg31 O36 2.032 . S
Mg31 O38 2.079 . S
C32 O29 1.250 . S
C32 O30 1.248 . S
C33 O34 1.264 . S
C33 O41 1.249 . S
O34 C33 1.264 . S
O35 Mg28 1.986 . S
O35 C39 1.246 . S
O36 Mg31 2.032 . S
O36 C39 1.259 . S
O37 Mg28 2.114 . S
O37 C40 1.252 . S
O38 Mg28 2.251 . S
O38 Mg31 2.079 . S
O38 C40 1.273 . S
C39 O35 1.246 . S
C39 O36 1.259 . S
C40 O37 1.252 . S
C40 O38 1.273 . S
O41 Mg28 2.010 . S
O41 C33 1.249 . S
Mg42 O43 2.028 . S
Mg42 O49 1.986 . S
Mg42 O51 2.114 . S
Mg42 O52 2.251 . S
Mg42 O55 2.010 . S
O43 Mg42 2.028 . S
O43 C46 1.250 . S
O44 Mg45 2.028 . S
O44 C46 1.248 . S
Mg45 O44 2.028 . S
Mg45 O50 2.032 . S
Mg45 O52 2.079 . S
C46 O43 1.250 . S
C46 O44 1.248 . S
C47 O48 1.264 . S
C47 O55 1.249 . S
O48 C47 1.264 . S
O49 Mg42 1.986 . S
O49 C53 1.246 . S
O50 Mg45 2.032 . S
O50 C53 1.259 . S
O51 Mg42 2.114 . S
O51 C54 1.252 . S
O52 Mg42 2.251 . S
O52 Mg45 2.079 . S
O52 C54 1.273 . S
C53 O49 1.246 . S
C53 O50 1.259 . S
C54 O51 1.252 . S
C54 O52 1.273 . S
O55 Mg42 2.010 . S
O55 C47 1.249 . S
Mg56 O57 2.028 . S
Mg56 O63 1.986 . S
Mg56 O65 2.114 . S
Mg56 O66 2.251 . S
Mg56 O69 2.010 . S
O57 Mg56 2.028 . S
O57 C60 1.250 . S
O58 Mg59 2.028 . S
O58 C60 1.248 . S
Mg59 O58 2.028 . S
Mg59 O64 2.032 . S
Mg59 O66 2.079 . S
C60 O57 1.250 . S
C60 O58 1.248 . S
C61 O62 1.264 . S
C61 O69 1.249 . S
O62 C61 1.264 . S
O63 Mg56 1.986 . S
O63 C67 1.246 . S
O64 Mg59 2.032 . S
O64 C67 1.259 . S
O65 Mg56 2.114 . S
O65 C68 1.252 . S
O66 Mg56 2.251 . S
O66 Mg59 2.079 . S
O66 C68 1.273 . S
C67 O63 1.246 . S
C67 O64 1.259 . S
C68 O65 1.252 . S
C68 O66 1.273 . S
O69 Mg56 2.010 . S
O69 C61 1.249 . S
Mg70 O71 2.028 . S
Mg70 O77 1.986 . S
Mg70 O79 2.114 . S
Mg70 O80 2.251 . S
Mg70 O83 2.010 . S
O71 Mg70 2.028 . S
O71 C74 1.250 . S
O72 Mg73 2.028 . S
O72 C74 1.248 . S
Mg73 O72 2.028 . S
Mg73 O78 2.032 . S
Mg73 O80 2.079 . S
C74 O71 1.250 . S
C74 O72 1.248 . S
C75 O76 1.264 . S
C75 O83 1.249 . S
O76 C75 1.264 . S
O77 Mg70 1.986 . S
O77 C81 1.246 . S
O78 Mg73 2.032 . S
O78 C81 1.259 . S
O79 Mg70 2.114 . S
O79 C82 1.252 . S
O80 Mg70 2.251 . S
O80 Mg73 2.079 . S
O80 C82 1.273 . S
C81 O77 1.246 . S
C81 O78 1.259 . S
C82 O79 1.252 . S
C82 O80 1.273 . S
O83 Mg70 2.010 . S
O83 C75 1.249 . S
Mg84 O85 2.028 . S
Mg84 O91 1.986 . S
Mg84 O93 2.114 . S
Mg84 O94 2.251 . S
Mg84 O97 2.010 . S
O85 Mg84 2.028 . S
O85 C88 1.250 . S
O86 Mg87 2.028 . S
O86 C88 1.248 . S
Mg87 O86 2.028 . S
Mg87 O92 2.032 . S
Mg87 O94 2.079 . S
C88 O85 1.250 . S
C88 O86 1.248 . S
C89 O90 1.264 . S
C89 O97 1.249 . S
O90 C89 1.264 . S
O91 Mg84 1.986 . S
O91 C95 1.246 . S
O92 Mg87 2.032 . S
O92 C95 1.259 . S
O93 Mg84 2.114 . S
O93 C96 1.252 . S
O94 Mg84 2.251 . S
O94 Mg87 2.079 . S
O94 C96 1.273 . S
C95 O91 1.246 . S
C95 O92 1.259 . S
C96 O93 1.252 . S
C96 O94 1.273 . S
O97 Mg84 2.010 . S
O97 C89 1.249 . S
Mg98 O99 2.028 . S
Mg98 O105 1.986 . S
Mg98 O107 2.114 . S
Mg98 O108 2.251 . S
Mg98 O111 2.010 . S
O99 Mg98 2.028 . S
O99 C102 1.250 . S
O100 Mg101 2.028 . S
O100 C102 1.248 . S
Mg101 O100 2.028 . S
Mg101 O106 2.032 . S
Mg101 O108 2.079 . S
C102 O99 1.250 . S
C102 O100 1.248 . S
C103 O104 1.264 . S
C103 O111 1.249 . S
O104 C103 1.264 . S
O105 Mg98 1.986 . S
O105 C109 1.246 . S
O106 Mg101 2.032 . S
O106 C109 1.259 . S
O107 Mg98 2.114 . S
O107 C110 1.252 . S
O108 Mg98 2.251 . S
O108 Mg101 2.079 . S
O108 C110 1.273 . S
C109 O105 1.246 . S
C109 O106 1.259 . S
C110 O107 1.252 . S
C110 O108 1.273 . S
O111 Mg98 2.010 . S
O111 C103 1.249 . S
C112 C113 1.170 . S
C112 C114 1.380 1_545 S
C113 C112 1.170 . S
C114 C112 1.380 1_565 S
C114 C115 1.170 . S
C115 C114 1.170 . S
C116 C117 1.170 . S
C116 C118 1.380 . S
C117 C116 1.170 . S
C118 C116 1.380 . S
C118 C119 1.170 . S
C119 C118 1.170 . S
C120 C121 1.170 . S
C120 C122 1.380 1_565 S
C121 C120 1.170 . S
C122 C120 1.380 1_545 S
C122 C123 1.170 . S
C123 C122 1.170 . S
C124 C125 1.170 . S
C124 C126 1.380 . S
C125 C124 1.170 . S
C126 C124 1.380 . S
C126 C127 1.170 . S
C127 C126 1.170 . S
C128 C129 1.170 . S
C128 C130 1.380 . S
C129 C128 1.170 . S
C130 C128 1.380 . S
C130 C131 1.170 . S
C131 C130 1.170 . S
C132 C133 1.170 . S
C132 C134 1.380 . S
C133 C132 1.170 . S
C134 C132 1.380 . S
C134 C135 1.170 . S
C135 C134 1.170 . S
C136 C137 1.170 . S
C136 C138 1.380 . S
C137 C136 1.170 . S
C138 C136 1.380 . S
C138 C139 1.170 . S
C139 C138 1.170 . S
C140 C141 1.170 . S
C140 C142 1.380 . S
C141 C140 1.170 . S
C142 C140 1.380 . S
C142 C143 1.170 . S
C143 C142 1.170 . S
C144 C145 1.170 . S
C144 C146 1.380 1_554 S
C145 C144 1.170 . S
C146 C144 1.380 1_556 S
C146 C147 1.170 . S
C147 C146 1.170 . S
C148 C149 1.170 . S
C148 C150 1.380 1_454 S
C149 C148 1.170 . S
C150 C148 1.380 1_656 S
C150 C151 1.170 . S
C151 C150 1.170 . S
C152 C153 1.170 . S
C152 C154 1.380 1_565 S
C153 C152 1.170 . S
C154 C152 1.380 1_545 S
C154 C155 1.170 . S
C155 C154 1.170 . S
C156 C157 1.170 . S
C156 C158 1.380 1_645 S
C157 C156 1.170 . S
C158 C156 1.380 1_465 S
C158 C159 1.170 . S
C159 C158 1.170 . S
C160 C161 1.170 . S
C160 C162 1.380 . S
C161 C160 1.170 . S
C162 C160 1.380 . S
C162 C163 1.170 . S
C163 C162 1.170 . S
C164 C165 1.170 . S
C164 C166 1.380 1_545 S
C165 C164 1.170 . S
C166 C164 1.380 1_565 S
C166 C167 1.170 . S
C167 C166 1.170 . S
C168 C169 1.170 . S
C168 C170 1.380 . S
C169 C168 1.170 . S
C170 C168 1.380 . S
C170 C171 1.170 . S
C171 C170 1.170 . S
C172 C173 1.170 . S
C172 C174 1.380 1_565 S
C173 C172 1.170 . S
C174 C172 1.380 1_545 S
C174 C175 1.170 . S
C175 C174 1.170 . S
C113 C12 1.356 . S
C115 C26 1.379 . S
C117 C54 1.335 . S
C119 C40 1.367 . S
C121 C68 1.376 . S
C123 C82 1.332 . S
C125 C96 1.354 . S
C127 C110 1.346 . S
C129 C11 1.435 . S
C131 C39 1.435 . S
C133 C53 1.470 . S
C135 C25 1.474 . S
C137 C67 1.445 . S
C139 C95 1.435 . S
C141 C109 1.441 . S
C143 C81 1.434 . S
C145 C5 1.597 . S
C147 C61 1.603 . S
C149 C19 1.580 . S
C151 C75 1.598 . S
C153 C89 1.583 . S
C155 C33 1.612 . S
C157 C103 1.579 . S
C159 C47 1.613 . S
C161 C18 0.976 . S
C163 C4 1.018 . S
C165 C32 0.983 . S
C167 C46 1.003 . S
C169 C60 0.978 . S
C171 C74 1.000 . S
C173 C88 0.989 . S
C175 C102 0.976 . S
