# Generated by pormake.
# Topology dmp, (4)-cn, num edge types: 1
# Building blocks:
#     Node 0, Type 0, BuildingBlock: QUQFOY_clean_sbu_1, # of connection points: 4
#     Node 1, Type 0, BuildingBlock: QUQFOY_clean_sbu_1, # of connection points: 4
#     Node 2, Type 0, BuildingBlock: QUQFOY_clean_sbu_1, # of connection points: 4
#     Node 3, Type 0, BuildingBlock: QUQFOY_clean_sbu_1, # of connection points: 4
#     Edge 4, Type (0, 0), None
#     Edge 5, Type (0, 0), None
#     Edge 6, Type (0, 0), None
#     Edge 7, Type (0, 0), None
#     Edge 8, Type (0, 0), None
#     Edge 9, Type (0, 0), None
#     Edge 10, Type (0, 0), None
#     Edge 11, Type (0, 0), None
# Relax obj value: 0.001
# Max RMSD: 0.021
# Mean RMSD: 0.021
data_MOF--net-dmp--node1-QUQFOY_clean_sbu_1--edge1-none
_symmetry_space_group_name_H-M    P1
_symmetry_Int_Tables_number       1
_symmetry_cell_setting            triclinic
loop_
_symmetry_equiv_pos_as_xyz
'x, y, z'
_cell_length_a     16.205477
_cell_length_b     9.2435879
_cell_length_c     11.401168
_cell_angle_alpha  89.999156
_cell_angle_beta   90.0
_cell_angle_gamma 90.0
loop_
_atom_site_label
_atom_site_type_symbol
_atom_site_fract_x
_atom_site_fract_y
_atom_site_fract_z
_atom_type_partial_charge
O0 O 0.26942 0.37229 0.24474 0.0
Cd1 Cd 0.19839 0.25935 0.35858 0.0
Cd2 Cd 0.19839 0.16345 0.1079 0.0
O3 O 0.2624 0.34674 0.05274 0.0
O4 O 0.18096 0.40146 0.48918 0.0
O5 O 0.08004 0.32129 0.37507 0.0
C6 C 0.10487 0.40861 0.4564 0.0
C7 C 0.10487 0.01419 0.01008 0.0
C8 C 0.29344 0.40722 0.1427 0.0
C9 C 0.29344 0.01558 0.32378 0.0
O10 O 0.26942 0.05051 0.22174 0.0
O11 O 0.2624 0.07607 0.41374 0.0
O12 O 0.18096 0.02135 0.9773 0.0
O13 O 0.08004 0.10151 0.09141 0.0
O14 O 0.38357 0.8723 0.22173 0.0
Cd15 Cd 0.45461 0.75936 0.10791 0.0
Cd16 Cd 0.45461 0.66345 0.35857 0.0
O17 O 0.3906 0.84673 0.41374 0.0
O18 O 0.47205 0.90145 0.9773 0.0
O19 O 0.57296 0.8213 0.09142 0.0
C20 C 0.54814 0.90861 0.01008 0.0
C21 C 0.54814 0.51419 0.4564 0.0
C22 C 0.35956 0.90722 0.32378 0.0
C23 C 0.35956 0.51558 0.1427 0.0
O24 O 0.38357 0.5505 0.24475 0.0
O25 O 0.3906 0.57607 0.05274 0.0
O26 O 0.47205 0.52135 0.48918 0.0
O27 O 0.57296 0.6015 0.37506 0.0
O28 O 0.88358 0.55051 0.72174 0.0
Cd29 Cd 0.95461 0.66345 0.6079 0.0
Cd30 Cd 0.95461 0.75935 0.85858 0.0
O31 O 0.8906 0.57607 0.91374 0.0
O32 O 0.97205 0.52135 0.4773 0.0
O33 O 1.07297 0.60151 0.59141 0.0
C34 C 1.04814 0.51419 0.51008 0.0
C35 C 1.04814 0.90861 0.9564 0.0
C36 C 0.85956 0.51558 0.82378 0.0
C37 C 0.85956 0.90722 0.6427 0.0
O38 O 0.88358 0.87229 0.74474 0.0
O39 O 0.8906 0.84674 0.55274 0.0
O40 O 0.97205 0.90146 -0.01082 0.0
O41 O 1.07297 0.82129 0.87507 0.0
O42 O 0.76943 0.0505 0.74475 0.0
Cd43 Cd 0.69839 0.16345 0.85857 0.0
Cd44 Cd 0.69839 0.25936 0.60791 0.0
O45 O 0.7624 0.07607 0.55274 0.0
O46 O 0.68096 0.02135 -0.01082 0.0
O47 O 0.58004 0.1015 0.87506 0.0
C48 C 0.60487 0.01419 0.9564 0.0
C49 C 0.60487 0.40862 0.51008 0.0
C50 C 0.79344 0.01558 0.6427 0.0
C51 C 0.79344 0.40722 0.82378 0.0
O52 O 0.76943 0.3723 0.72173 0.0
O53 O 0.7624 0.34673 0.91374 0.0
O54 O 0.68096 0.40145 0.4773 0.0
O55 O 0.58004 0.3213 0.59142 0.0
loop_
_geom_bond_atom_site_label_1
_geom_bond_atom_site_label_2
_geom_bond_distance
_geom_bond_site_symmetry_2
_ccdc_geom_bond_type
O0 Cd1 2.223 . S
O0 C8 1.315 . S
Cd1 O0 2.223 . S
Cd1 O4 2.297 . S
Cd1 O5 2.439 . S
Cd1 O11 2.240 . S
Cd2 O3 2.240 . S
Cd2 O10 2.223 . S
Cd2 O12 2.297 1_554 S
Cd2 O13 2.439 . S
O3 Cd2 2.240 . S
O3 C8 1.279 . S
O4 Cd1 2.297 . S
O4 C6 1.247 . S
O5 Cd1 2.439 . S
O5 C6 1.208 . S
C6 O4 1.247 . S
C6 O5 1.208 . S
C7 O12 1.247 1_554 S
C7 O13 1.208 . S
C8 O0 1.315 . S
C8 O3 1.279 . S
C9 O10 1.315 . S
C9 O11 1.279 . S
O10 Cd2 2.223 . S
O10 C9 1.315 . S
O11 Cd1 2.240 . S
O11 C9 1.279 . S
O12 Cd2 2.297 1_556 S
O12 C7 1.247 1_556 S
O13 Cd2 2.439 . S
O13 C7 1.208 . S
O14 Cd15 2.223 . S
O14 C22 1.315 . S
Cd15 O14 2.223 . S
Cd15 O18 2.297 1_554 S
Cd15 O19 2.439 . S
Cd15 O25 2.240 . S
Cd16 O17 2.240 . S
Cd16 O24 2.223 . S
Cd16 O26 2.297 . S
Cd16 O27 2.439 . S
O17 Cd16 2.240 . S
O17 C22 1.279 . S
O18 Cd15 2.297 1_556 S
O18 C20 1.247 1_556 S
O19 Cd15 2.439 . S
O19 C20 1.208 . S
C20 O18 1.247 1_554 S
C20 O19 1.208 . S
C21 O26 1.247 . S
C21 O27 1.208 . S
C22 O14 1.315 . S
C22 O17 1.279 . S
C23 O24 1.315 . S
C23 O25 1.279 . S
O24 Cd16 2.223 . S
O24 C23 1.315 . S
O25 Cd15 2.240 . S
O25 C23 1.279 . S
O26 Cd16 2.297 . S
O26 C21 1.247 . S
O27 Cd16 2.439 . S
O27 C21 1.208 . S
O28 Cd29 2.223 . S
O28 C36 1.315 . S
Cd29 O28 2.223 . S
Cd29 O32 2.297 . S
Cd29 O33 2.439 . S
Cd29 O39 2.240 . S
Cd30 O31 2.240 . S
Cd30 O38 2.223 . S
Cd30 O40 2.297 1_556 S
Cd30 O41 2.439 . S
O31 Cd30 2.240 . S
O31 C36 1.279 . S
O32 Cd29 2.297 . S
O32 C34 1.247 . S
O33 Cd29 2.439 . S
O33 C34 1.208 . S
C34 O32 1.247 . S
C34 O33 1.208 . S
C35 O40 1.247 1_556 S
C35 O41 1.208 . S
C36 O28 1.315 . S
C36 O31 1.279 . S
C37 O38 1.315 . S
C37 O39 1.279 . S
O38 Cd30 2.223 . S
O38 C37 1.315 . S
O39 Cd29 2.240 . S
O39 C37 1.279 . S
O40 Cd30 2.297 1_554 S
O40 C35 1.247 1_554 S
O41 Cd30 2.439 . S
O41 C35 1.208 . S
O42 Cd43 2.223 . S
O42 C50 1.315 . S
Cd43 O42 2.223 . S
Cd43 O46 2.297 1_556 S
Cd43 O47 2.439 . S
Cd43 O53 2.240 . S
Cd44 O45 2.240 . S
Cd44 O52 2.223 . S
Cd44 O54 2.297 . S
Cd44 O55 2.439 . S
O45 Cd44 2.240 . S
O45 C50 1.279 . S
O46 Cd43 2.297 1_554 S
O46 C48 1.247 1_554 S
O47 Cd43 2.439 . S
O47 C48 1.208 . S
C48 O46 1.247 1_556 S
C48 O47 1.208 . S
C49 O54 1.247 . S
C49 O55 1.208 . S
C50 O42 1.315 . S
C50 O45 1.279 . S
C51 O52 1.315 . S
C51 O53 1.279 . S
O52 Cd44 2.223 . S
O52 C51 1.315 . S
O53 Cd43 2.240 . S
O53 C51 1.279 . S
O54 Cd44 2.297 . S
O54 C49 1.247 . S
O55 Cd44 2.439 . S
O55 C49 1.208 . S
C22 C9 1.337 1_565 S
C8 C23 1.337 . S
C50 C37 1.337 1_545 S
C36 C51 1.337 . S
C7 C35 1.531 1_444 S
C48 C20 1.531 1_546 S
C34 C6 1.531 1_655 S
C21 C49 1.531 . S
