# Generated by pormake.
# Topology unh, (4)-cn, num edge types: 1
# Building blocks:
#     Node 0, Type 0, BuildingBlock: NAWXER_clean_sbu_0, # of connection points: 4
#     Node 1, Type 0, BuildingBlock: NAWXER_clean_sbu_0, # of connection points: 4
#     Node 2, Type 0, BuildingBlock: NAWXER_clean_sbu_0, # of connection points: 4
#     Node 3, Type 0, BuildingBlock: NAWXER_clean_sbu_0, # of connection points: 4
#     Node 4, Type 0, BuildingBlock: NAWXER_clean_sbu_0, # of connection points: 4
#     Node 5, Type 0, BuildingBlock: NAWXER_clean_sbu_0, # of connection points: 4
#     Edge 6, Type (0, 0), BuildingBlock: AJUNOK_clean_linker_0, # of connection points: 2
#     Edge 7, Type (0, 0), BuildingBlock: AJUNOK_clean_linker_0, # of connection points: 2
#     Edge 8, Type (0, 0), BuildingBlock: AJUNOK_clean_linker_0, # of connection points: 2
#     Edge 9, Type (0, 0), BuildingBlock: AJUNOK_clean_linker_0, # of connection points: 2
#     Edge 10, Type (0, 0), BuildingBlock: AJUNOK_clean_linker_0, # of connection points: 2
#     Edge 11, Type (0, 0), BuildingBlock: AJUNOK_clean_linker_0, # of connection points: 2
#     Edge 12, Type (0, 0), BuildingBlock: AJUNOK_clean_linker_0, # of connection points: 2
#     Edge 13, Type (0, 0), BuildingBlock: AJUNOK_clean_linker_0, # of connection points: 2
#     Edge 14, Type (0, 0), BuildingBlock: AJUNOK_clean_linker_0, # of connection points: 2
#     Edge 15, Type (0, 0), BuildingBlock: AJUNOK_clean_linker_0, # of connection points: 2
#     Edge 16, Type (0, 0), BuildingBlock: AJUNOK_clean_linker_0, # of connection points: 2
#     Edge 17, Type (0, 0), BuildingBlock: AJUNOK_clean_linker_0, # of connection points: 2
# Relax obj value: 0.020
# Max RMSD: 0.247
# Mean RMSD: 0.247
data_MOF--net-unh--node1-NAWXER_clean_sbu_0--edge1-AJUNOK_clean_linker_0
_symmetry_space_group_name_H-M    P1
_symmetry_Int_Tables_number       1
_symmetry_cell_setting            triclinic
loop_
_symmetry_equiv_pos_as_xyz
'x, y, z'
_cell_length_a     32.70344
_cell_length_b     32.634703
_cell_length_c     15.851302
_cell_angle_alpha  89.914236
_cell_angle_beta   90.071703
_cell_angle_gamma 119.96661
loop_
_atom_site_label
_atom_site_type_symbol
_atom_site_fract_x
_atom_site_fract_y
_atom_site_fract_z
_atom_type_partial_charge
C0 C 0.09536 0.56195 0.21218 0.0
C1 C 0.21782 0.65899 0.01301 0.0
O2 O 0.1165 0.60612 0.19888 0.0
Zn3 Zn 0.15581 0.6086 0.10851 0.0
O4 O 0.10628 0.53598 0.16763 0.0
Zn5 Zn 0.15576 0.54884 0.0657 0.0
O6 O 0.19494 0.52663 0.11131 0.0
O7 O 0.20759 0.59383 0.1675 0.0
O8 O 0.20745 0.61558 0.00646 0.0
O9 O 0.19462 0.66991 0.06314 0.0
O10 O 0.10628 0.57201 0.00675 0.0
O11 O 0.11606 0.51189 0.97515 0.0
C12 C 0.21816 0.56095 0.16119 0.0
C13 C 0.09511 0.53512 0.96203 0.0
C14 C 0.56697 0.20976 0.17874 0.0
C15 C 0.54099 0.0905 0.38545 0.0
O16 O 0.53378 0.18786 0.23107 0.0
Zn17 Zn 0.55613 0.14968 0.2782 0.0
O18 O 0.60008 0.19946 0.17319 0.0
Zn19 Zn 0.61482 0.14816 0.23701 0.0
O20 O 0.61201 0.10708 0.14931 0.0
O21 O 0.54238 0.09826 0.17873 0.0
O22 O 0.57759 0.09982 0.34134 0.0
O23 O 0.51917 0.11251 0.36964 0.0
O24 O 0.62287 0.20183 0.33612 0.0
O25 O 0.67632 0.18731 0.28141 0.0
C26 C 0.56798 0.08622 0.13572 0.0
C27 C 0.666 0.21154 0.33017 0.0
C28 C 0.49692 0.5652 0.29474 0.0
C29 C 0.47144 0.66368 0.4914 0.0
O30 O 0.51995 0.60947 0.30694 0.0
Zn31 Zn 0.48329 0.61269 0.3972 0.0
O32 O 0.46028 0.53962 0.33999 0.0
Zn33 Zn 0.424 0.55325 0.44155 0.0
O34 O 0.36256 0.53016 0.39678 0.0
O35 O 0.41633 0.5968 0.33781 0.0
O36 O 0.43866 0.62026 0.49872 0.0
O37 O 0.50549 0.67448 0.44121 0.0
O38 O 0.49685 0.57685 0.50007 0.0
O39 O 0.4271 0.51715 0.533 0.0
C40 C 0.37309 0.56368 0.34517 0.0
C41 C 0.47123 0.54029 0.54567 0.0
C42 C 0.82342 0.46566 0.66106 0.0
C43 C 0.94431 0.48742 0.46177 0.0
O44 O 0.84652 0.49867 0.60877 0.0
Zn45 Zn 0.88408 0.47468 0.56465 0.0
O46 O 0.83255 0.43178 0.66853 0.0
Zn47 Zn 0.88286 0.41475 0.60913 0.0
O48 O 0.92216 0.41667 0.69953 0.0
O49 O 0.93362 0.48714 0.66669 0.0
O50 O 0.93284 0.45054 0.50696 0.0
O51 O 0.92363 0.51092 0.47415 0.0
O52 O 0.83151 0.40827 0.5063 0.0
O53 O 0.84291 0.35337 0.56469 0.0
C54 C 0.94404 0.46093 0.71189 0.0
C55 C 0.82032 0.36466 0.51366 0.0
C56 C 0.37118 0.81307 0.82974 0.0
C57 C 0.46648 0.93907 0.63542 0.0
O58 O 0.35999 0.83616 0.77969 0.0
Zn59 Zn 0.421 0.87615 0.73543 0.0
O60 O 0.41467 0.82396 0.83625 0.0
Zn61 Zn 0.48101 0.8769 0.77719 0.0
O62 O 0.51755 0.91562 0.86897 0.0
O63 O 0.45697 0.92483 0.83904 0.0
O64 O 0.49319 0.92821 0.67794 0.0
O65 O 0.42237 0.91628 0.64787 0.0
O66 O 0.43694 0.82602 0.67307 0.0
O67 O 0.50407 0.83896 0.72921 0.0
C68 C 0.49388 0.93595 0.88358 0.0
C69 C 0.47026 0.81608 0.67827 0.0
C70 C 0.54709 0.46453 0.79526 0.0
C71 C 0.56933 0.3639 0.99116 0.0
O72 O 0.52432 0.42018 0.80621 0.0
Zn73 Zn 0.5604 0.41665 0.89655 0.0
O74 O 0.58347 0.48991 0.84141 0.0
Zn75 Zn 0.61902 0.47487 0.94375 0.0
O76 O 0.68074 0.49804 0.90136 0.0
O77 O 0.62764 0.43274 0.83827 0.0
O78 O 0.60262 0.40695 1.00086 0.0
O79 O 0.53704 0.35458 0.93776 0.0
O80 O 0.54619 0.45222 0.99964 0.0
O81 O 0.6161 0.51089 0.03495 0.0
C82 C 0.67076 0.46578 0.84748 0.0
C83 C 0.57186 0.4884 0.04607 0.0
C84 C 0.03765 0.4719 0.86625 0.0
C85 C 0.05694 0.51817 0.89788 0.0
C86 C 1.00109 0.45396 0.80697 0.0
C87 C 0.98239 0.48158 0.77574 0.0
H88 H 0.05052 0.4489 0.88795 0.0
H89 H 0.98771 0.41807 0.78498 0.0
S90 S 0.02053 0.60528 0.83733 0.0
N91 N 0.05457 0.59151 0.89341 0.0
N92 N 0.98599 0.55783 0.78092 0.0
C93 C 1.00142 0.52808 0.80629 0.0
C94 C 0.03856 0.54631 0.86762 0.0
C95 C 0.55596 0.99134 0.98341 0.0
C96 C 0.51048 0.97347 0.9491 0.0
C97 C 0.57385 0.02762 0.04324 0.0
C98 C 0.547 0.04757 0.07237 0.0
H99 H 0.57845 0.97762 0.96329 0.0
H100 H 0.60918 0.03996 0.06706 0.0
S101 S 0.42539 0.01318 0.00414 0.0
N102 N 0.43858 0.97831 0.94939 0.0
N103 N 0.47219 0.04643 0.06287 0.0
C104 C 0.5012 0.02981 0.03954 0.0
C105 C 0.48299 0.9929 0.97767 0.0
C106 C 0.56025 0.57068 0.20013 0.0
C107 C 0.51393 0.54381 0.2311 0.0
C108 C 0.57834 0.55209 0.14119 0.0
C109 C 0.55083 0.50587 0.10957 0.0
H110 H 0.5832 0.60647 0.2221 0.0
H111 H 0.61427 0.57457 0.11978 0.0
S112 S 0.42703 0.42062 0.1693 0.0
N113 N 0.44064 0.46832 0.22562 0.0
N114 N 0.47461 0.43345 0.11356 0.0
C115 C 0.50427 0.47849 0.1394 0.0
C116 C 0.48588 0.49738 0.2005 0.0
C117 C 1.00193 0.55066 0.36647 0.0
C118 C 0.98262 0.50434 0.39807 0.0
C119 C 0.03844 0.56869 0.30733 0.0
C120 C 0.05717 0.54114 0.27618 0.0
H121 H 0.98905 0.57365 0.38803 0.0
H122 H 0.05175 0.6046 0.28536 0.0
S123 S 0.01914 0.4174 0.33791 0.0
N124 N 0.98506 0.43106 0.39388 0.0
N125 N 0.05366 0.46491 0.2815 0.0
C126 C 0.03821 0.4946 0.3068 0.0
C127 C 1.00106 0.47627 0.36805 0.0
C128 C 0.54686 0.02864 0.4716 0.0
C129 C 0.52298 0.05342 0.45215 0.0
C130 C 0.52905 0.99221 0.53215 0.0
C131 C 0.48642 0.97885 0.57451 0.0
H132 H 0.57934 0.0371 0.43939 0.0
H133 H 0.54825 0.97373 0.54445 0.0
S134 S 0.4119 0.03452 0.55185 0.0
N135 N 0.4555 0.06327 0.48447 0.0
N136 N 0.42226 0.99499 0.59672 0.0
C137 C 0.46279 1.00396 0.55708 0.0
C138 C 0.481 0.04117 0.49637 0.0
C139 C 0.48344 0.45883 0.70118 0.0
C140 C 0.52979 0.48596 0.73207 0.0
C141 C 0.46511 0.4771 0.64198 0.0
C142 C 0.49235 0.52327 0.61001 0.0
H143 H 0.46068 0.423 0.72327 0.0
H144 H 0.42921 0.45438 0.62054 0.0
S145 S 0.61597 0.6093 0.66995 0.0
N146 N 0.60272 0.56173 0.7266 0.0
N147 N 0.5683 0.59609 0.614 0.0
C148 C 0.53888 0.55101 0.64005 0.0
C149 C 0.55753 0.53241 0.70143 0.0
C150 C 0.25663 0.521 0.23265 0.0
C151 C 0.25795 0.56321 0.20929 0.0
C152 C 0.29422 0.52168 0.27609 0.0
C153 C 0.33508 0.56457 0.29616 0.0
H154 H 0.22605 0.48707 0.21797 0.0
H155 H 0.29135 0.48823 0.29359 0.0
S156 S 0.35664 0.68499 0.24738 0.0
N157 N 0.30355 0.64918 0.20867 0.0
N158 N 0.3748 0.65044 0.28921 0.0
C159 C 0.3372 0.60711 0.27232 0.0
C160 C 0.29843 0.60643 0.22934 0.0
C161 C 0.74453 0.24878 0.40047 0.0
C162 C 0.70404 0.25098 0.37816 0.0
C163 C 0.78193 0.28588 0.44385 0.0
C164 C 0.78083 0.32714 0.46498 0.0
H165 H 0.74721 0.21788 0.385 0.0
H166 H 0.81217 0.28232 0.46041 0.0
S167 S 0.6833 0.35097 0.41982 0.0
N168 N 0.66499 0.2978 0.38015 0.0
N169 N 0.73597 0.36819 0.46047 0.0
C170 C 0.74081 0.33015 0.44235 0.0
C171 C 0.70219 0.29185 0.39944 0.0
C172 C 0.51152 0.77751 0.61182 0.0
C173 C 0.46911 0.7773 0.62799 0.0
C174 C 0.5118 0.74057 0.56757 0.0
C175 C 0.46961 0.70144 0.53946 0.0
H176 H 0.54494 0.80661 0.63316 0.0
H177 H 0.54535 0.74242 0.55618 0.0
S178 S 0.3491 0.68376 0.56404 0.0
N179 N 0.38373 0.73488 0.61081 0.0
N180 N 0.38433 0.66488 0.52891 0.0
C181 C 0.42689 0.70058 0.55505 0.0
C182 C 0.42664 0.73871 0.59882 0.0
C183 C 0.7066 0.42341 0.77368 0.0
C184 C 0.70918 0.46609 0.79799 0.0
C185 C 0.74431 0.42333 0.73139 0.0
C186 C 0.78532 0.46597 0.71051 0.0
H187 H 0.67565 0.38985 0.78883 0.0
H188 H 0.74095 0.38975 0.71354 0.0
S189 S 0.8091 0.58717 0.75879 0.0
N190 N 0.756 0.55199 0.79776 0.0
N191 N 0.82621 0.55186 0.71717 0.0
C192 C 0.78806 0.50881 0.73383 0.0
C193 C 0.75015 0.50887 0.77787 0.0
C194 C 0.29179 0.77409 0.89663 0.0
C195 C 0.3336 0.77352 0.87838 0.0
C196 C 0.25455 0.73669 0.93973 0.0
C197 C 0.25718 0.69675 0.96469 0.0
H198 H 0.28786 0.8039 0.87802 0.0
H199 H 0.22324 0.73894 0.953 0.0
S200 S 0.35874 0.67763 0.9325 0.0
N201 N 0.37565 0.72978 0.88922 0.0
N202 N 0.30499 0.65884 0.96924 0.0
C203 C 0.29859 0.69543 0.9466 0.0
C204 C 0.33702 0.73404 0.9039 0.0
C205 C 0.61085 0.32716 0.06586 0.0
C206 C 0.56855 0.32481 0.03983 0.0
C207 C 0.61039 0.28905 0.10824 0.0
C208 C 0.56758 0.24785 0.12736 0.0
H209 H 0.64451 0.35834 0.05237 0.0
H210 H 0.64363 0.29233 0.12794 0.0
S211 S 0.44728 0.22419 0.07335 0.0
N212 N 0.48283 0.27773 0.03606 0.0
N213 N 0.48202 0.20678 0.11651 0.0
C214 C 0.52517 0.24519 0.10178 0.0
C215 C 0.52564 0.2835 0.05781 0.0
loop_
_geom_bond_atom_site_label_1
_geom_bond_atom_site_label_2
_geom_bond_distance
_geom_bond_site_symmetry_2
_ccdc_geom_bond_type
C0 O2 1.247 . S
C0 O4 1.258 . S
C1 O8 1.247 . S
C1 O9 1.258 1_556 S
O2 C0 1.247 . S
O2 Zn3 2.028 . S
Zn3 O2 2.028 . S
Zn3 O7 2.035 . S
Zn3 O9 2.035 . S
Zn3 O10 2.028 . S
O4 C0 1.258 . S
O4 Zn5 2.035 . S
Zn5 O4 2.035 . S
Zn5 O6 2.028 . S
Zn5 O8 2.028 1_554 S
Zn5 O11 2.035 1_554 S
O6 Zn5 2.028 . S
O6 C12 1.247 . S
O7 Zn3 2.035 . S
O7 C12 1.258 . S
O8 C1 1.247 . S
O8 Zn5 2.028 1_556 S
O9 C1 1.258 1_554 S
O9 Zn3 2.035 . S
O10 Zn3 2.028 . S
O10 C13 1.247 1_554 S
O11 Zn5 2.035 1_556 S
O11 C13 1.258 . S
C12 O6 1.247 . S
C12 O7 1.258 . S
C13 O10 1.247 1_556 S
C13 O11 1.258 . S
C14 O16 1.247 . S
C14 O18 1.258 . S
C15 O22 1.247 . S
C15 O23 1.258 . S
O16 C14 1.247 . S
O16 Zn17 2.028 . S
Zn17 O16 2.028 . S
Zn17 O21 2.035 . S
Zn17 O23 2.035 . S
Zn17 O24 2.028 . S
O18 C14 1.258 . S
O18 Zn19 2.035 . S
Zn19 O18 2.035 . S
Zn19 O20 2.028 . S
Zn19 O22 2.028 . S
Zn19 O25 2.035 . S
O20 Zn19 2.028 . S
O20 C26 1.247 . S
O21 Zn17 2.035 . S
O21 C26 1.258 . S
O22 C15 1.247 . S
O22 Zn19 2.028 . S
O23 C15 1.258 . S
O23 Zn17 2.035 . S
O24 Zn17 2.028 . S
O24 C27 1.247 . S
O25 Zn19 2.035 . S
O25 C27 1.258 . S
C26 O20 1.247 . S
C26 O21 1.258 . S
C27 O24 1.247 . S
C27 O25 1.258 . S
C28 O30 1.247 . S
C28 O32 1.258 . S
C29 O36 1.247 . S
C29 O37 1.258 . S
O30 C28 1.247 . S
O30 Zn31 2.028 . S
Zn31 O30 2.028 . S
Zn31 O35 2.035 . S
Zn31 O37 2.035 . S
Zn31 O38 2.028 . S
O32 C28 1.258 . S
O32 Zn33 2.035 . S
Zn33 O32 2.035 . S
Zn33 O34 2.028 . S
Zn33 O36 2.028 . S
Zn33 O39 2.035 . S
O34 Zn33 2.028 . S
O34 C40 1.247 . S
O35 Zn31 2.035 . S
O35 C40 1.258 . S
O36 C29 1.247 . S
O36 Zn33 2.028 . S
O37 C29 1.258 . S
O37 Zn31 2.035 . S
O38 Zn31 2.028 . S
O38 C41 1.247 . S
O39 Zn33 2.035 . S
O39 C41 1.258 . S
C40 O34 1.247 . S
C40 O35 1.258 . S
C41 O38 1.247 . S
C41 O39 1.258 . S
C42 O44 1.247 . S
C42 O46 1.258 . S
C43 O50 1.247 . S
C43 O51 1.258 . S
O44 C42 1.247 . S
O44 Zn45 2.028 . S
Zn45 O44 2.028 . S
Zn45 O49 2.035 . S
Zn45 O51 2.035 . S
Zn45 O52 2.028 . S
O46 C42 1.258 . S
O46 Zn47 2.035 . S
Zn47 O46 2.035 . S
Zn47 O48 2.028 . S
Zn47 O50 2.028 . S
Zn47 O53 2.035 . S
O48 Zn47 2.028 . S
O48 C54 1.247 . S
O49 Zn45 2.035 . S
O49 C54 1.258 . S
O50 C43 1.247 . S
O50 Zn47 2.028 . S
O51 C43 1.258 . S
O51 Zn45 2.035 . S
O52 Zn45 2.028 . S
O52 C55 1.247 . S
O53 Zn47 2.035 . S
O53 C55 1.258 . S
C54 O48 1.247 . S
C54 O49 1.258 . S
C55 O52 1.247 . S
C55 O53 1.258 . S
C56 O58 1.247 . S
C56 O60 1.258 . S
C57 O64 1.247 . S
C57 O65 1.258 . S
O58 C56 1.247 . S
O58 Zn59 2.028 . S
Zn59 O58 2.028 . S
Zn59 O63 2.035 . S
Zn59 O65 2.035 . S
Zn59 O66 2.028 . S
O60 C56 1.258 . S
O60 Zn61 2.035 . S
Zn61 O60 2.035 . S
Zn61 O62 2.028 . S
Zn61 O64 2.028 . S
Zn61 O67 2.035 . S
O62 Zn61 2.028 . S
O62 C68 1.247 . S
O63 Zn59 2.035 . S
O63 C68 1.258 . S
O64 C57 1.247 . S
O64 Zn61 2.028 . S
O65 C57 1.258 . S
O65 Zn59 2.035 . S
O66 Zn59 2.028 . S
O66 C69 1.247 . S
O67 Zn61 2.035 . S
O67 C69 1.258 . S
C68 O62 1.247 . S
C68 O63 1.258 . S
C69 O66 1.247 . S
C69 O67 1.258 . S
C70 O72 1.247 . S
C70 O74 1.258 . S
C71 O78 1.247 . S
C71 O79 1.258 1_554 S
O72 C70 1.247 . S
O72 Zn73 2.028 . S
Zn73 O72 2.028 . S
Zn73 O77 2.035 . S
Zn73 O79 2.035 . S
Zn73 O80 2.028 . S
O74 C70 1.258 . S
O74 Zn75 2.035 . S
Zn75 O74 2.035 . S
Zn75 O76 2.028 . S
Zn75 O78 2.028 1_556 S
Zn75 O81 2.035 1_556 S
O76 Zn75 2.028 . S
O76 C82 1.247 . S
O77 Zn73 2.035 . S
O77 C82 1.258 . S
O78 C71 1.247 . S
O78 Zn75 2.028 1_554 S
O79 C71 1.258 1_556 S
O79 Zn73 2.035 . S
O80 Zn73 2.028 . S
O80 C83 1.247 1_556 S
O81 Zn75 2.035 1_554 S
O81 C83 1.258 . S
C82 O76 1.247 . S
C82 O77 1.258 . S
C83 O80 1.247 1_554 S
C83 O81 1.258 . S
C84 C85 1.369 1_655 S
C84 C86 1.419 . S
C84 H88 0.930 . S
C85 C84 1.369 1_455 S
C85 C94 1.429 . S
C86 C84 1.419 . S
C86 C87 1.363 . S
C86 H89 0.929 . S
C87 C86 1.363 . S
C87 C93 1.428 1_655 S
H88 C84 0.930 . S
H89 C86 0.929 . S
S90 N91 1.613 . S
S90 N92 1.610 . S
N91 S90 1.613 . S
N91 C94 1.350 . S
N92 S90 1.610 . S
N92 C93 1.351 . S
C93 C87 1.428 1_455 S
C93 N92 1.351 . S
C93 C94 1.434 . S
C94 C85 1.429 . S
C94 N91 1.350 . S
C94 C93 1.434 . S
C95 C96 1.369 1_554 S
C95 C97 1.419 . S
C95 H99 0.930 . S
C96 C95 1.369 1_556 S
C96 C105 1.429 1_565 S
C97 C95 1.419 . S
C97 C98 1.363 1_565 S
C97 H100 0.929 . S
C98 C97 1.363 1_545 S
C98 C104 1.428 1_554 S
H99 C95 0.930 . S
H100 C97 0.929 . S
S101 N102 1.613 . S
S101 N103 1.610 . S
N102 S101 1.613 . S
N102 C105 1.350 . S
N103 S101 1.610 . S
N103 C104 1.351 . S
C104 C98 1.428 1_556 S
C104 N103 1.351 . S
C104 C105 1.434 . S
C105 C96 1.429 1_545 S
C105 N102 1.350 . S
C105 C104 1.434 . S
C106 C107 1.369 . S
C106 C108 1.419 . S
C106 H110 0.930 . S
C107 C106 1.369 . S
C107 C116 1.429 . S
C108 C106 1.419 . S
C108 C109 1.363 . S
C108 H111 0.929 . S
C109 C108 1.363 . S
C109 C115 1.428 . S
H110 C106 0.930 . S
H111 C108 0.929 . S
S112 N113 1.613 . S
S112 N114 1.610 . S
N113 S112 1.613 . S
N113 C116 1.350 . S
N114 S112 1.610 . S
N114 C115 1.351 . S
C115 C109 1.428 . S
C115 N114 1.351 . S
C115 C116 1.434 . S
C116 C107 1.429 . S
C116 N113 1.350 . S
C116 C115 1.434 . S
C117 C118 1.369 . S
C117 C119 1.419 . S
C117 H121 0.930 . S
C118 C117 1.369 . S
C118 C127 1.429 1_655 S
C119 C117 1.419 . S
C119 C120 1.363 1_655 S
C119 H122 0.929 . S
C120 C119 1.363 1_455 S
C120 C126 1.428 . S
H121 C117 0.930 . S
H122 C119 0.929 . S
S123 N124 1.613 . S
S123 N125 1.610 . S
N124 S123 1.613 . S
N124 C127 1.350 . S
N125 S123 1.610 . S
N125 C126 1.351 . S
C126 C120 1.428 . S
C126 N125 1.351 . S
C126 C127 1.434 . S
C127 C118 1.429 1_455 S
C127 N124 1.350 . S
C127 C126 1.434 . S
C128 C129 1.369 1_565 S
C128 C130 1.419 . S
C128 H132 0.930 . S
C129 C128 1.369 1_545 S
C129 C138 1.429 . S
C130 C128 1.419 . S
C130 C131 1.363 . S
C130 H133 0.929 . S
C131 C130 1.363 . S
C131 C137 1.428 1_565 S
H132 C128 0.930 . S
H133 C130 0.929 . S
S134 N135 1.613 . S
S134 N136 1.610 . S
N135 S134 1.613 . S
N135 C138 1.350 . S
N136 S134 1.610 . S
N136 C137 1.351 . S
C137 C131 1.428 1_545 S
C137 N136 1.351 . S
C137 C138 1.434 . S
C138 C129 1.429 . S
C138 N135 1.350 . S
C138 C137 1.434 . S
C139 C140 1.369 . S
C139 C141 1.419 . S
C139 H143 0.930 . S
C140 C139 1.369 . S
C140 C149 1.429 . S
C141 C139 1.419 . S
C141 C142 1.363 . S
C141 H144 0.929 . S
C142 C141 1.363 . S
C142 C148 1.428 . S
H143 C139 0.930 . S
H144 C141 0.929 . S
S145 N146 1.613 . S
S145 N147 1.610 . S
N146 S145 1.613 . S
N146 C149 1.350 . S
N147 S145 1.610 . S
N147 C148 1.351 . S
C148 C142 1.428 . S
C148 N147 1.351 . S
C148 C149 1.434 . S
C149 C140 1.429 . S
C149 N146 1.350 . S
C149 C148 1.434 . S
C150 C151 1.369 . S
C150 C152 1.419 . S
C150 H154 0.930 . S
C151 C150 1.369 . S
C151 C160 1.429 . S
C152 C150 1.419 . S
C152 C153 1.363 . S
C152 H155 0.929 . S
C153 C152 1.363 . S
C153 C159 1.428 . S
H154 C150 0.930 . S
H155 C152 0.929 . S
S156 N157 1.613 . S
S156 N158 1.610 . S
N157 S156 1.613 . S
N157 C160 1.350 . S
N158 S156 1.610 . S
N158 C159 1.351 . S
C159 C153 1.428 . S
C159 N158 1.351 . S
C159 C160 1.434 . S
C160 C151 1.429 . S
C160 N157 1.350 . S
C160 C159 1.434 . S
C161 C162 1.369 . S
C161 C163 1.419 . S
C161 H165 0.930 . S
C162 C161 1.369 . S
C162 C171 1.429 . S
C163 C161 1.419 . S
C163 C164 1.363 . S
C163 H166 0.929 . S
C164 C163 1.363 . S
C164 C170 1.428 . S
H165 C161 0.930 . S
H166 C163 0.929 . S
S167 N168 1.613 . S
S167 N169 1.610 . S
N168 S167 1.613 . S
N168 C171 1.350 . S
N169 S167 1.610 . S
N169 C170 1.351 . S
C170 C164 1.428 . S
C170 N169 1.351 . S
C170 C171 1.434 . S
C171 C162 1.429 . S
C171 N168 1.350 . S
C171 C170 1.434 . S
C172 C173 1.369 . S
C172 C174 1.419 . S
C172 H176 0.930 . S
C173 C172 1.369 . S
C173 C182 1.429 . S
C174 C172 1.419 . S
C174 C175 1.363 . S
C174 H177 0.929 . S
C175 C174 1.363 . S
C175 C181 1.428 . S
H176 C172 0.930 . S
H177 C174 0.929 . S
S178 N179 1.613 . S
S178 N180 1.610 . S
N179 S178 1.613 . S
N179 C182 1.350 . S
N180 S178 1.610 . S
N180 C181 1.351 . S
C181 C175 1.428 . S
C181 N180 1.351 . S
C181 C182 1.434 . S
C182 C173 1.429 . S
C182 N179 1.350 . S
C182 C181 1.434 . S
C183 C184 1.369 . S
C183 C185 1.419 . S
C183 H187 0.930 . S
C184 C183 1.369 . S
C184 C193 1.429 . S
C185 C183 1.419 . S
C185 C186 1.363 . S
C185 H188 0.929 . S
C186 C185 1.363 . S
C186 C192 1.428 . S
H187 C183 0.930 . S
H188 C185 0.929 . S
S189 N190 1.613 . S
S189 N191 1.610 . S
N190 S189 1.613 . S
N190 C193 1.350 . S
N191 S189 1.610 . S
N191 C192 1.351 . S
C192 C186 1.428 . S
C192 N191 1.351 . S
C192 C193 1.434 . S
C193 C184 1.429 . S
C193 N190 1.350 . S
C193 C192 1.434 . S
C194 C195 1.369 . S
C194 C196 1.419 . S
C194 H198 0.930 . S
C195 C194 1.369 . S
C195 C204 1.429 . S
C196 C194 1.419 . S
C196 C197 1.363 . S
C196 H199 0.929 . S
C197 C196 1.363 . S
C197 C203 1.428 . S
H198 C194 0.930 . S
H199 C196 0.929 . S
S200 N201 1.613 . S
S200 N202 1.610 . S
N201 S200 1.613 . S
N201 C204 1.350 1_554 S
N202 S200 1.610 . S
N202 C203 1.351 1_554 S
C203 C197 1.428 . S
C203 N202 1.351 1_556 S
C203 C204 1.434 . S
C204 C195 1.429 . S
C204 N201 1.350 1_556 S
C204 C203 1.434 . S
C205 C206 1.369 . S
C205 C207 1.419 . S
C205 H209 0.930 . S
C206 C205 1.369 . S
C206 C215 1.429 . S
C207 C205 1.419 . S
C207 C208 1.363 . S
C207 H210 0.929 . S
C208 C207 1.363 . S
C208 C214 1.428 . S
H209 C205 0.930 . S
H210 C207 0.929 . S
S211 N212 1.613 . S
S211 N213 1.610 . S
N212 S211 1.613 . S
N212 C215 1.350 . S
N213 S211 1.610 . S
N213 C214 1.351 . S
C214 C208 1.428 . S
C214 N213 1.351 . S
C214 C215 1.434 . S
C215 C206 1.429 . S
C215 N212 1.350 . S
C215 C214 1.434 . S
C85 C13 1.763 . S
C87 C54 1.764 . S
C96 C68 1.764 . S
C98 C26 1.761 . S
C107 C28 1.765 . S
C109 C83 1.764 . S
C118 C43 1.766 . S
C120 C0 1.761 . S
C129 C15 1.761 . S
C131 C57 1.765 . S
C140 C70 1.765 . S
C142 C41 1.763 . S
C151 C12 1.639 . S
C153 C40 1.636 . S
C162 C27 1.641 . S
C164 C55 1.636 . S
C173 C69 1.641 . S
C175 C29 1.637 . S
C184 C82 1.637 . S
C186 C42 1.634 . S
C195 C56 1.639 . S
C197 C1 1.638 . S
C206 C71 1.637 . S
C208 C14 1.634 . S
