# Generated by pormake.
# Topology sqp, (5)-cn, num edge types: 1
# Building blocks:
#     Node 0, Type 0, BuildingBlock: XOMCOT_clean_sbu_1, # of connection points: 5
#     Node 1, Type 0, BuildingBlock: XOMCOT_clean_sbu_1, # of connection points: 5
#     Node 2, Type 0, BuildingBlock: XOMCOT_clean_sbu_1, # of connection points: 5
#     Node 3, Type 0, BuildingBlock: XOMCOT_clean_sbu_1, # of connection points: 5
#     Edge 4, Type (0, 0), None
#     Edge 5, Type (0, 0), None
#     Edge 6, Type (0, 0), None
#     Edge 7, Type (0, 0), None
#     Edge 8, Type (0, 0), None
#     Edge 9, Type (0, 0), None
#     Edge 10, Type (0, 0), None
#     Edge 11, Type (0, 0), None
#     Edge 12, Type (0, 0), None
#     Edge 13, Type (0, 0), None
# Relax obj value: 0.085
# Max RMSD: 0.166
# Mean RMSD: 0.166
data_MOF--net-sqp--node1-XOMCOT_clean_sbu_1--edge1-none
_symmetry_space_group_name_H-M    P1
_symmetry_Int_Tables_number       1
_symmetry_cell_setting            triclinic
loop_
_symmetry_equiv_pos_as_xyz
'x, y, z'
_cell_length_a     10.206484
_cell_length_b     10.89858
_cell_length_c     26.48118
_cell_angle_alpha  89.999949
_cell_angle_beta   107.57252
_cell_angle_gamma 90.000008
loop_
_atom_site_label
_atom_site_type_symbol
_atom_site_fract_x
_atom_site_fract_y
_atom_site_fract_z
_atom_type_partial_charge
C0 C 1.08051 0.24525 0.32924 0.0
C1 C 0.96649 0.31893 0.30899 0.0
N2 N 0.87895 0.25967 0.26777 0.0
N3 N 1.06431 0.14097 0.30061 0.0
C4 C 0.9403 0.1526 0.26371 0.0
H5 H 0.17116 0.2678 0.36153 0.0
Co6 Co 0.19098 0.01558 0.30492 0.0
C7 C 1.01136 0.8019 0.26164 0.0
O8 O 1.08573 0.73038 0.29951 0.0
N9 N 0.31837 0.88724 0.30728 0.0
C10 C 0.47624 0.73801 0.32669 0.0
C11 C 0.41452 0.83019 0.34715 0.0
C12 C 0.32581 0.8288 0.2632 0.0
N13 N 0.41941 0.7376 0.27386 0.0
O14 O 0.22724 0.08229 0.24393 0.0
H15 H 0.43979 0.85209 0.38866 0.0
H16 H 0.26172 0.852 0.22369 0.0
O17 O 1.04473 0.91413 0.26003 0.0
C18 C 0.32013 0.16441 0.25772 0.0
O19 O 0.38162 0.18179 0.30851 0.0
N20 N 0.16234 0.96327 0.36813 0.0
C21 C 0.1425 0.93883 0.47057 0.0
C22 C 1.03221 0.90551 0.42627 0.0
C23 C 1.0432 0.92066 0.37518 0.0
C24 C 0.26759 0.00054 0.41063 0.0
C25 C 0.26151 0.98637 0.46211 0.0
H26 H 0.95353 0.90444 0.34174 0.0
H27 H 0.35592 0.04526 0.40426 0.0
H28 H 0.89836 0.08749 0.23222 0.0
H29 H 0.95074 0.40962 0.32279 0.0
H30 H 0.55687 0.67692 0.34884 0.0
H31 H 0.93662 0.87217 0.43098 0.0
H32 H 0.34645 0.01887 0.4948 0.0
C33 C 0.19046 0.24525 0.66613 0.0
C34 C 0.30449 0.31893 0.68638 0.0
N35 N 0.39202 0.25967 0.7276 0.0
N36 N 0.20666 0.14097 0.69476 0.0
C37 C 0.33067 0.1526 0.73166 0.0
H38 H 1.09981 0.2678 0.63384 0.0
Co39 Co 1.07999 0.01558 0.69045 0.0
C40 C 0.25961 0.8019 0.73373 0.0
O41 O 0.18524 0.73038 0.69586 0.0
N42 N 0.9526 0.88724 0.68809 0.0
C43 C 0.79473 0.73801 0.66868 0.0
C44 C 0.85645 0.83019 0.64821 0.0
C45 C 0.94516 0.8288 0.73217 0.0
N46 N 0.85156 0.7376 0.72151 0.0
O47 O 1.04373 0.08229 0.75144 0.0
H48 H 0.83118 0.85209 0.6067 0.0
H49 H 1.00925 0.852 0.77168 0.0
O50 O 0.22624 0.91413 0.73534 0.0
C51 C 0.95084 0.16441 0.73765 0.0
O52 O 0.88935 0.18179 0.68686 0.0
N53 N 1.10863 0.96327 0.62724 0.0
C54 C 0.12848 0.93884 0.5248 0.0
C55 C 0.23876 0.90551 0.5691 0.0
C56 C 0.22778 0.92065 0.62019 0.0
C57 C 1.00338 0.00054 0.58474 0.0
C58 C 1.00947 0.98637 0.53325 0.0
H59 H 0.31744 0.90444 0.65363 0.0
H60 H 0.91506 0.04526 0.59111 0.0
H61 H 0.37261 0.08749 0.76315 0.0
H62 H 0.32023 0.40962 0.67258 0.0
H63 H 0.7141 0.67692 0.64653 0.0
H64 H 0.33436 0.87216 0.56439 0.0
H65 H 0.92453 0.01887 0.50056 0.0
C66 C 0.58053 0.74521 0.82927 0.0
C67 C 0.46653 0.81891 0.809 0.0
N68 N 0.37907 0.75971 0.76775 0.0
N69 N 0.56437 0.64096 0.80062 0.0
C70 C 0.4404 0.65263 0.76369 0.0
H71 H 0.67113 0.76772 0.86158 0.0
Co72 Co 0.69104 0.51557 0.80493 0.0
C73 C 0.51144 0.30189 0.76163 0.0
O74 O 0.58581 0.23036 0.79951 0.0
N75 N 0.81843 0.38723 0.8073 0.0
C76 C 0.97629 0.23799 0.8267 0.0
C77 C 0.91455 0.33017 0.84717 0.0
C78 C 0.82589 0.32882 0.76321 0.0
N79 N 0.9195 0.23763 0.77387 0.0
O80 O 0.72731 0.58229 0.74394 0.0
H81 H 0.93979 0.35204 0.88868 0.0
H82 H 0.76182 0.35202 0.7237 0.0
O83 O 0.54479 0.41412 0.76003 0.0
C84 C 0.8202 0.66441 0.75773 0.0
O85 O 0.88169 0.68178 0.80853 0.0
N86 N 0.66238 0.46326 0.86814 0.0
C87 C 0.64251 0.4388 0.97057 0.0
C88 C 0.53223 0.40548 0.92627 0.0
C89 C 0.54323 0.42062 0.87518 0.0
C90 C 0.76761 0.50052 0.91064 0.0
C91 C 0.76152 0.48635 0.96212 0.0
H92 H 0.45357 0.40441 0.84174 0.0
H93 H 0.85594 0.54525 0.90427 0.0
H94 H 0.39849 0.58753 0.7322 0.0
H95 H 0.45074 0.90957 0.82283 0.0
H96 H 1.05689 0.17689 0.84885 0.0
H97 H 0.43663 0.37213 0.93098 0.0
H98 H 0.84645 0.51885 0.99481 0.0
C99 C 0.69045 0.74521 0.1661 0.0
C100 C 0.80445 0.81891 0.18637 0.0
N101 N 0.8919 0.75971 0.22762 0.0
N102 N 0.70661 0.64096 0.19475 0.0
C103 C 0.83057 0.65263 0.23168 0.0
H104 H 0.59984 0.76772 0.13379 0.0
Co105 Co 0.57994 0.51557 0.19044 0.0
C106 C 0.75953 0.30189 0.23374 0.0
O107 O 0.68516 0.23036 0.19587 0.0
N108 N 0.45254 0.38723 0.18807 0.0
C109 C 0.29468 0.23799 0.16867 0.0
C110 C 0.35642 0.33017 0.1482 0.0
C111 C 0.44508 0.32882 0.23216 0.0
N112 N 0.35147 0.23763 0.2215 0.0
O113 O 0.54366 0.58229 0.25143 0.0
H114 H 0.33119 0.35204 0.10669 0.0
H115 H 0.50915 0.35202 0.27167 0.0
O116 O 0.72618 0.41412 0.23534 0.0
C117 C 0.45077 0.66441 0.23764 0.0
O118 O 0.38928 0.68178 0.18684 0.0
N119 N 0.6086 0.46325 0.12723 0.0
C120 C 0.62848 0.43881 0.0248 0.0
C121 C 0.73874 0.40548 0.0691 0.0
C122 C 0.72774 0.42062 0.12019 0.0
C123 C 0.50336 0.50052 0.08473 0.0
C124 C 0.50945 0.48635 0.03325 0.0
H125 H 0.8174 0.4044 0.15363 0.0
H126 H 0.41503 0.54525 0.0911 0.0
H127 H 0.87248 0.58753 0.26318 0.0
H128 H 0.82023 0.90957 0.17254 0.0
H129 H 0.21408 0.17688 0.14651 0.0
H130 H 0.83434 0.37212 0.0644 0.0
H131 H 0.42453 0.51885 0.00055 0.0
loop_
_geom_bond_atom_site_label_1
_geom_bond_atom_site_label_2
_geom_bond_distance
_geom_bond_site_symmetry_2
_ccdc_geom_bond_type
C0 C1 1.351 . S
C0 N3 1.368 . S
C0 H5 0.931 1_655 S
C1 C0 1.351 . S
C1 N2 1.373 . S
C1 H29 0.930 . S
N2 C1 1.373 . S
N2 C4 1.340 . S
N3 C0 1.368 . S
N3 C4 1.321 . S
N3 Co6 2.135 1_655 S
C4 N2 1.340 . S
C4 N3 1.321 . S
C4 H28 0.930 . S
H5 C0 0.931 1_455 S
Co6 N3 2.135 1_455 S
Co6 N9 2.121 1_545 S
Co6 O14 2.055 . S
Co6 O17 2.039 1_445 S
Co6 N20 2.140 . S
C7 O8 1.227 . S
C7 O17 1.265 . S
O8 C7 1.227 . S
N9 Co6 2.121 1_565 S
N9 C11 1.375 . S
N9 C12 1.313 . S
C10 C11 1.338 . S
C10 N13 1.377 . S
C10 H30 0.930 . S
C11 N9 1.375 . S
C11 C10 1.338 . S
C11 H15 0.931 . S
C12 N9 1.313 . S
C12 N13 1.344 . S
C12 H16 0.930 . S
N13 C10 1.377 . S
N13 C12 1.344 . S
O14 Co6 2.055 . S
O14 C18 1.253 . S
H15 C11 0.931 . S
H16 C12 0.930 . S
O17 Co6 2.039 1_665 S
O17 C7 1.265 . S
C18 O14 1.253 . S
C18 O19 1.227 . S
O19 C18 1.227 . S
N20 Co6 2.140 . S
N20 C23 1.346 1_455 S
N20 C24 1.345 1_545 S
C21 C22 1.387 1_465 S
C21 C25 1.391 . S
C22 C21 1.387 1_645 S
C22 C23 1.369 . S
C22 H31 0.929 . S
C23 N20 1.346 1_655 S
C23 C22 1.369 . S
C23 H26 0.928 . S
C24 N20 1.345 1_565 S
C24 C25 1.371 . S
C24 H27 0.931 . S
C25 C21 1.391 . S
C25 C24 1.371 . S
C25 H32 0.930 . S
H26 C23 0.928 . S
H27 C24 0.931 . S
H28 C4 0.930 . S
H29 C1 0.930 . S
H30 C10 0.930 . S
H31 C22 0.929 . S
H32 C25 0.930 . S
C33 C34 1.351 . S
C33 N36 1.368 . S
C33 H38 0.931 . S
C34 C33 1.351 . S
C34 N35 1.373 . S
C34 H62 0.930 . S
N35 C34 1.373 . S
N35 C37 1.340 . S
N36 C33 1.368 . S
N36 C37 1.321 . S
N36 Co39 2.135 . S
C37 N35 1.340 . S
C37 N36 1.321 . S
C37 H61 0.930 . S
H38 C33 0.931 . S
Co39 N36 2.135 . S
Co39 N42 2.121 1_445 S
Co39 O47 2.055 1_455 S
Co39 O50 2.039 1_545 S
Co39 N53 2.140 . S
C40 O41 1.227 . S
C40 O50 1.265 . S
O41 C40 1.227 . S
N42 Co39 2.121 1_665 S
N42 C44 1.375 . S
N42 C45 1.313 . S
C43 C44 1.338 . S
C43 N46 1.377 . S
C43 H63 0.930 . S
C44 N42 1.375 . S
C44 C43 1.338 . S
C44 H48 0.931 1_655 S
C45 N42 1.313 . S
C45 N46 1.344 . S
C45 H49 0.930 . S
N46 C43 1.377 . S
N46 C45 1.344 . S
O47 Co39 2.055 1_655 S
O47 C51 1.253 . S
H48 C44 0.931 1_455 S
H49 C45 0.930 . S
O50 Co39 2.039 1_565 S
O50 C40 1.265 . S
C51 O47 1.253 . S
C51 O52 1.227 . S
O52 C51 1.227 . S
N53 Co39 2.140 . S
N53 C56 1.346 . S
N53 C57 1.345 1_445 S
C54 C55 1.387 1_565 S
C54 C58 1.391 1_455 S
C55 C54 1.387 1_545 S
C55 C56 1.369 . S
C55 H64 0.929 . S
C56 N53 1.346 . S
C56 C55 1.369 . S
C56 H59 0.928 . S
C57 N53 1.345 1_665 S
C57 C58 1.371 . S
C57 H60 0.931 . S
C58 C54 1.391 1_655 S
C58 C57 1.371 . S
C58 H65 0.930 . S
H59 C56 0.928 . S
H60 C57 0.931 . S
H61 C37 0.930 . S
H62 C34 0.930 . S
H63 C43 0.930 . S
H64 C55 0.929 . S
H65 C58 0.930 . S
C66 C67 1.351 . S
C66 N69 1.368 . S
C66 H71 0.931 . S
C67 C66 1.351 . S
C67 N68 1.373 . S
C67 H95 0.930 . S
N68 C67 1.373 . S
N68 C70 1.340 . S
N69 C66 1.368 . S
N69 C70 1.321 . S
N69 Co72 2.135 . S
C70 N68 1.340 . S
C70 N69 1.321 . S
C70 H94 0.930 . S
H71 C66 0.931 . S
Co72 N69 2.135 . S
Co72 N75 2.121 . S
Co72 O80 2.055 . S
Co72 O83 2.039 . S
Co72 N86 2.140 . S
C73 O74 1.227 . S
C73 O83 1.265 . S
O74 C73 1.227 . S
N75 Co72 2.121 . S
N75 C77 1.375 . S
N75 C78 1.313 . S
C76 C77 1.338 . S
C76 N79 1.377 . S
C76 H96 0.930 . S
C77 N75 1.375 . S
C77 C76 1.338 . S
C77 H81 0.931 . S
C78 N75 1.313 . S
C78 N79 1.344 . S
C78 H82 0.930 . S
N79 C76 1.377 . S
N79 C78 1.344 . S
O80 Co72 2.055 . S
O80 C84 1.253 . S
H81 C77 0.931 . S
H82 C78 0.930 . S
O83 Co72 2.039 . S
O83 C73 1.265 . S
C84 O80 1.253 . S
C84 O85 1.227 . S
O85 C84 1.227 . S
N86 Co72 2.140 . S
N86 C89 1.346 . S
N86 C90 1.345 . S
C87 C88 1.387 . S
C87 C91 1.391 . S
C88 C87 1.387 . S
C88 C89 1.369 . S
C88 H97 0.929 . S
C89 N86 1.346 . S
C89 C88 1.369 . S
C89 H92 0.928 . S
C90 N86 1.345 . S
C90 C91 1.371 . S
C90 H93 0.931 . S
C91 C87 1.391 . S
C91 C90 1.371 . S
C91 H98 0.930 . S
H92 C89 0.928 . S
H93 C90 0.931 . S
H94 C70 0.930 . S
H95 C67 0.930 . S
H96 C76 0.930 . S
H97 C88 0.929 . S
H98 C91 0.930 . S
C99 C100 1.351 . S
C99 N102 1.368 . S
C99 H104 0.931 . S
C100 C99 1.351 . S
C100 N101 1.373 . S
C100 H128 0.930 . S
N101 C100 1.373 . S
N101 C103 1.340 . S
N102 C99 1.368 . S
N102 C103 1.321 . S
N102 Co105 2.135 . S
C103 N101 1.340 . S
C103 N102 1.321 . S
C103 H127 0.930 . S
H104 C99 0.931 . S
Co105 N102 2.135 . S
Co105 N108 2.121 . S
Co105 O113 2.055 . S
Co105 O116 2.039 . S
Co105 N119 2.140 . S
C106 O107 1.227 . S
C106 O116 1.265 . S
O107 C106 1.227 . S
N108 Co105 2.121 . S
N108 C110 1.375 . S
N108 C111 1.313 . S
C109 C110 1.338 . S
C109 N112 1.377 . S
C109 H129 0.930 . S
C110 N108 1.375 . S
C110 C109 1.338 . S
C110 H114 0.931 . S
C111 N108 1.313 . S
C111 N112 1.344 . S
C111 H115 0.930 . S
N112 C109 1.377 . S
N112 C111 1.344 . S
O113 Co105 2.055 . S
O113 C117 1.253 . S
H114 C110 0.931 . S
H115 C111 0.930 . S
O116 Co105 2.039 . S
O116 C106 1.265 . S
C117 O113 1.253 . S
C117 O118 1.227 . S
O118 C117 1.227 . S
N119 Co105 2.140 . S
N119 C122 1.346 . S
N119 C123 1.345 . S
C120 C121 1.387 . S
C120 C124 1.391 . S
C121 C120 1.387 . S
C121 C122 1.369 . S
C121 H130 0.929 . S
C122 N119 1.346 . S
C122 C121 1.369 . S
C122 H125 0.928 . S
C123 N119 1.345 . S
C123 C124 1.371 . S
C123 H126 0.931 . S
C124 C120 1.391 . S
C124 C123 1.371 . S
C124 H131 0.930 . S
H125 C122 0.928 . S
H126 C123 0.931 . S
H127 C103 0.930 . S
H128 C100 0.930 . S
H129 C109 0.930 . S
H130 C121 0.929 . S
H131 C124 0.930 . S
C21 C54 1.493 . S
C120 C87 1.493 1_554 S
C18 N112 1.529 . S
N2 C106 1.407 . S
N101 C7 1.408 . S
N13 C117 1.530 . S
N68 C40 1.408 . S
N35 C73 1.407 . S
C51 N79 1.529 . S
C84 N46 1.530 . S
