# Generated by pormake.
# Topology pcu, (6)-cn, num edge types: 1
# Building blocks:
#     Node 0, Type 0, BuildingBlock: HISSIN_clean_sbu_0, # of connection points: 6
#     Edge 1, Type (0, 0), BuildingBlock: ZUJKAS_clean_linker_0, # of connection points: 2
#     Edge 2, Type (0, 0), BuildingBlock: ZUJKAS_clean_linker_0, # of connection points: 2
#     Edge 3, Type (0, 0), BuildingBlock: ZUJKAS_clean_linker_0, # of connection points: 2
# Relax obj value: 0.000
# Max RMSD: 0.000
# Mean RMSD: 0.000
data_MOF--net-pcu--node1-HISSIN_clean_sbu_0--edge1-ZUJKAS_clean_linker_0
_symmetry_space_group_name_H-M    P1
_symmetry_Int_Tables_number       1
_symmetry_cell_setting            triclinic
loop_
_symmetry_equiv_pos_as_xyz
'x, y, z'
_cell_length_a     19.791959
_cell_length_b     29.903917
_cell_length_c     19.881434
_cell_angle_alpha  123.41652
_cell_angle_beta   91.041742
_cell_angle_gamma 96.94765
loop_
_atom_site_label
_atom_site_type_symbol
_atom_site_fract_x
_atom_site_fract_y
_atom_site_fract_z
_atom_type_partial_charge
Eu0 Eu 0.97191 0.95191 0.93117 0.0
Eu1 Eu -0.00294 0.08704 0.03921 0.0
C2 C 0.12161 1.01989 0.98716 0.0
C3 C 0.96246 0.80525 0.86926 0.0
C4 C 0.00229 0.82 0.93962 0.0
C5 C 0.94009 0.71227 0.83203 0.0
C6 C 0.01103 0.78101 0.95605 0.0
C7 C 0.93155 0.75123 0.81565 0.0
C8 C 0.97986 0.72661 0.90251 0.0
C9 C 0.95067 0.84598 0.85244 0.0
O10 O 0.96885 0.06033 0.91106 0.0
O11 O -0.00489 0.97365 0.8411 0.0
C12 C 0.98238 1.01685 0.84409 0.0
O13 O 0.87305 0.97885 0.92103 0.0
O14 O 0.06361 0.16605 0.10331 0.0
O15 O 0.95365 0.16184 0.09613 0.0
O16 O 0.88928 0.05723 0.04673 0.0
C17 C 0.8483 1.01806 0.98364 0.0
O18 O 0.96216 0.97915 0.06047 0.0
O19 O 0.01881 0.06717 0.1306 0.0
O20 O 0.09603 0.05903 0.98902 0.0
O21 O 0.90537 0.87648 0.89301 0.0
O22 O 0.00486 0.8737 0.84845 0.0
O23 O 0.08184 0.98038 0.98443 0.0
C24 C 0.01848 0.23327 0.09574 0.0
C25 C 0.98649 0.22077 0.02246 0.0
C26 C 0.05655 0.32535 0.13371 0.0
C27 C 0.98861 0.26052 0.0055 0.0
C28 C 0.05411 0.2856 0.15073 0.0
C29 C 0.02307 0.31356 0.06132 0.0
C30 C 0.01272 0.19292 0.11694 0.0
C31 C 0.99235 0.02353 0.12765 0.0
H32 H 0.0263 0.86168 0.98196 0.0
H33 H 0.91435 0.67109 0.79017 0.0
H34 H 0.04258 0.79344 0.01039 0.0
H35 H 0.9001 0.73926 0.76143 0.0
H36 H 0.95869 0.18055 0.97902 0.0
H37 H 0.08463 0.36537 0.17743 0.0
H38 H 0.96162 0.25001 0.9496 0.0
H39 H 0.0794 0.29596 0.20742 0.0
H40 H 0.96687 0.93686 0.14047 0.0
H41 H 0.969 0.93777 0.26416 0.0
H42 H 0.02718 0.11157 0.40764 0.0
H43 H 0.02549 0.11131 0.28411 0.0
H44 H 0.08833 0.98888 0.39733 0.0
H45 H 0.84538 0.07317 0.49156 0.0
H46 H 0.86547 0.03856 0.38776 0.0
H47 H 0.90792 0.10608 0.46136 0.0
C48 C 0.98011 0.97537 0.19825 0.0
C49 C -0.00442 0.02412 0.2025 0.0
C50 C 0.98151 0.9757 0.26873 0.0
C51 C -0.00229 0.02474 0.34461 0.0
C52 C 0.01408 0.0734 0.34934 0.0
H53 H 0.98532 0.10422 0.83335 0.0
H54 H 0.99214 0.10589 0.71239 0.0
C55 C 0.01325 0.07312 0.27878 0.0
C56 C -0.00338 0.02483 0.41887 0.0
H57 H 0.90399 0.05705 0.5784 0.0
C58 C 0.04819 1.00378 0.43716 0.0
C59 C 0.94421 0.0445 0.47034 0.0
C60 C 0.88719 0.06665 0.45202 0.0
C61 C 0.04915 1.00242 0.50661 0.0
C62 C -0.00405 1.02122 0.55755 0.0
C63 C 0.94458 0.04251 0.53917 0.0
C64 C 0.99271 1.01965 0.63064 0.0
C65 C 0.10794 0.98202 0.52561 0.0
C66 C 0.98988 0.97044 0.62474 0.0
C67 C 0.98652 0.96936 0.69402 0.0
C68 C 0.98474 1.01738 0.77022 0.0
C69 C 0.98633 0.06643 0.77561 0.0
C70 C 0.99035 0.06752 0.70652 0.0
H71 H 0.15338 0.98445 0.4951 0.0
H72 H 0.12306 1.00551 0.59185 0.0
H73 H 0.09216 0.93885 0.50361 0.0
H74 H 0.98976 0.93278 0.56648 0.0
H75 H 0.98479 0.93088 0.68773 0.0
H76 H 0.19264 0.94458 0.98015 0.0
H77 H 0.31614 0.94483 0.98 0.0
H78 H 0.34383 0.09552 -0.00477 0.0
H79 H 0.22025 0.09539 -0.00564 0.0
H80 H 0.41645 1.01876 0.87905 0.0
H81 H 0.46081 0.04213 0.17405 0.0
H82 H 0.39641 0.98603 0.10387 0.0
H83 H 0.38253 0.05418 0.14293 0.0
C84 C 0.22491 0.97792 0.98374 0.0
C85 C 0.19649 1.0201 0.98761 0.0
C86 C 0.29557 0.9781 0.98407 0.0
C87 C 0.33918 1.0206 0.98883 0.0
C88 C 0.31102 0.06248 -0.00808 0.0
H89 H 0.78011 0.09542 0.09943 0.0
H90 H 0.65677 0.09605 0.09868 0.0
C91 C 0.24037 0.06234 -0.00848 0.0
C92 C 0.4141 1.02089 0.989 0.0
H93 H 0.55413 1.02267 0.09378 0.0
C94 C 0.44666 1.01975 0.92606 0.0
C95 C 0.4534 1.02286 0.05097 0.0
C96 C 0.42175 0.02689 0.12225 0.0
C97 C 0.51745 1.01975 0.92278 0.0
C98 C 0.55641 1.02001 0.98339 0.0
C99 C 0.52399 1.02193 0.04696 0.0
C100 C 0.63115 1.01931 0.98288 0.0
C101 C 0.55006 1.02048 0.85529 0.0
C102 C 0.6576 0.97563 0.91837 0.0
C103 C 0.72817 0.97518 0.91843 0.0
C104 C 0.77352 1.01824 0.98342 0.0
C105 C 0.7467 0.06162 0.04838 0.0
C106 C 0.67619 0.06207 0.04813 0.0
H107 H 0.517 0.03441 0.82681 0.0
H108 H 0.60044 0.04732 0.87783 0.0
H109 H 0.55837 0.97882 0.80774 0.0
H110 H 0.62363 0.94166 0.86822 0.0
H111 H 0.74706 0.94098 0.86772 0.0
H112 H -0.00289 0.62068 0.79599 0.0
H113 H 0.00524 0.55162 0.82447 0.0
H114 H 0.99185 0.66939 0.07787 0.0
H115 H 0.98096 0.73823 0.0496 0.0
H116 H 0.10113 0.54882 0.92484 0.0
H117 H 0.84225 0.54553 0.02637 0.0
H118 H 0.86741 0.57781 0.97425 0.0
H119 H 0.89369 0.6115 0.08044 0.0
C120 C -0.00495 0.63183 0.8577 0.0
C121 C 0.98777 0.68504 0.92036 0.0
C122 C 0.00023 0.59234 0.87394 0.0
C123 C -0.00199 0.60505 0.95306 0.0
C124 C 0.99229 0.65834 0.01607 0.0
H125 H 0.01141 0.42053 0.16933 0.0
H126 H 0.00913 0.491 0.14281 0.0
C127 C 0.98695 0.69786 -0.0001 0.0
C128 C 0.00239 0.5626 0.96955 0.0
H129 H 0.91617 0.49498 0.04332 0.0
C130 C 0.06061 0.53689 0.9505 0.0
C131 C 0.94947 0.54708 0.00304 0.0
C132 C 0.88437 0.5715 0.02159 0.0
C133 C 0.06794 0.49679 0.96535 0.0
C134 C 0.01499 0.48124 -0.00121 0.0
C135 C 0.95678 0.50698 0.01784 0.0
C136 C 0.01881 0.43842 0.01465 0.0
C137 C 0.13302 0.47235 0.94675 0.0
C138 C 0.02463 0.38523 0.95134 0.0
C139 C 0.02681 0.34488 0.96647 0.0
C140 C 0.02252 0.35672 0.04518 0.0
C141 C 0.01619 0.41005 0.10829 0.0
C142 C 0.01427 0.45037 0.09313 0.0
H143 H 0.17536 0.49874 0.94312 0.0
H144 H 0.14949 0.46527 -0.00661 0.0
H145 H 0.12395 0.43276 0.88727 0.0
H146 H 0.02677 0.37472 0.88996 0.0
H147 H 0.03216 0.30445 0.91645 0.0
loop_
_geom_bond_atom_site_label_1
_geom_bond_atom_site_label_2
_geom_bond_distance
_geom_bond_site_symmetry_2
_ccdc_geom_bond_type
Eu0 C9 2.828 . S
Eu0 O11 2.392 . S
Eu0 O13 2.418 . S
Eu0 O18 2.373 1_556 S
Eu0 O21 2.488 . S
Eu0 O22 2.471 1_655 S
Eu0 O23 2.349 1_655 S
Eu1 O10 2.373 1_554 S
Eu1 O14 2.488 . S
Eu1 O15 2.471 1_455 S
Eu1 O16 2.349 1_455 S
Eu1 O19 2.392 . S
Eu1 O20 2.418 . S
Eu1 C30 2.828 . S
C2 O20 1.244 . S
C2 O23 1.265 1_544 S
C3 C4 1.379 1_656 S
C3 C7 1.373 . S
C3 C9 1.505 . S
C4 C3 1.379 1_454 S
C4 C6 1.369 . S
C4 H32 0.930 . S
C5 C7 1.383 . S
C5 C8 1.382 . S
C5 H33 0.930 . S
C6 C4 1.369 . S
C6 C8 1.392 1_454 S
C6 H34 0.930 . S
C7 C3 1.373 . S
C7 C5 1.383 . S
C7 H35 0.931 . S
C8 C5 1.382 . S
C8 C6 1.392 1_656 S
C9 Eu0 2.828 . S
C9 C3 1.505 . S
C9 O21 1.249 . S
C9 O22 1.244 1_655 S
O10 Eu1 2.373 1_556 S
O10 C12 1.258 1_545 S
O11 Eu0 2.392 . S
O11 C12 1.242 1_655 S
C12 O10 1.258 1_565 S
C12 O11 1.242 1_455 S
O13 Eu0 2.418 . S
O13 C17 1.244 . S
O14 Eu1 2.488 . S
O14 C30 1.249 . S
O15 Eu1 2.471 1_655 S
O15 C30 1.244 1_655 S
O16 Eu1 2.349 1_655 S
O16 C17 1.265 1_544 S
C17 O13 1.244 . S
C17 O16 1.265 1_566 S
O18 Eu0 2.373 1_554 S
O18 C31 1.258 1_665 S
O19 Eu1 2.392 . S
O19 C31 1.242 . S
O20 Eu1 2.418 . S
O20 C2 1.244 . S
O21 Eu0 2.488 . S
O21 C9 1.249 . S
O22 Eu0 2.471 1_455 S
O22 C9 1.244 1_455 S
O23 Eu0 2.349 1_455 S
O23 C2 1.265 1_566 S
C24 C25 1.379 1_454 S
C24 C28 1.373 . S
C24 C30 1.505 . S
C25 C24 1.379 1_656 S
C25 C27 1.369 . S
C25 H36 0.930 . S
C26 C28 1.383 . S
C26 C29 1.382 . S
C26 H37 0.930 . S
C27 C25 1.369 . S
C27 C29 1.392 1_656 S
C27 H38 0.930 . S
C28 C24 1.373 . S
C28 C26 1.383 . S
C28 H39 0.931 . S
C29 C26 1.382 . S
C29 C27 1.392 1_454 S
C30 Eu1 2.828 . S
C30 O14 1.249 . S
C30 O15 1.244 1_455 S
C30 C24 1.505 . S
C31 O18 1.258 1_445 S
C31 O19 1.242 . S
H32 C4 0.930 . S
H33 C5 0.930 . S
H34 C6 0.930 . S
H35 C7 0.931 . S
H36 C25 0.930 . S
H37 C26 0.930 . S
H38 C27 0.930 . S
H39 C28 0.931 . S
H40 C48 0.929 . S
H41 C50 0.930 . S
H42 C52 0.930 . S
H43 C55 0.929 . S
H44 C58 0.930 . S
H45 C60 0.960 . S
H46 C60 0.960 1_655 S
H47 C60 0.960 . S
C48 H40 0.929 . S
C48 C49 1.383 1_565 S
C48 C50 1.384 . S
C49 C48 1.383 1_545 S
C49 C55 1.379 1_655 S
C50 H41 0.930 . S
C50 C48 1.384 . S
C50 C51 1.370 . S
C51 C50 1.370 . S
C51 C52 1.387 1_665 S
C51 C56 1.505 . S
C52 H42 0.930 . S
C52 C51 1.387 1_445 S
C52 C55 1.386 . S
H53 C69 0.930 . S
H54 C70 0.931 . S
C55 H43 0.929 . S
C55 C49 1.379 1_455 S
C55 C52 1.386 . S
C56 C51 1.505 . S
C56 C58 1.395 . S
C56 C59 1.403 1_665 S
H57 C63 0.930 . S
C58 H44 0.930 . S
C58 C56 1.395 . S
C58 C61 1.403 . S
C59 C56 1.403 1_445 S
C59 C60 1.524 . S
C59 C63 1.400 . S
C60 H45 0.960 . S
C60 H46 0.960 1_455 S
C60 H47 0.960 . S
C60 C59 1.524 . S
C61 C58 1.403 . S
C61 C62 1.392 . S
C61 C65 1.495 . S
C62 C61 1.392 . S
C62 C63 1.385 1_665 S
C62 C64 1.478 . S
C63 H57 0.930 . S
C63 C59 1.400 . S
C63 C62 1.385 1_445 S
C64 C62 1.478 . S
C64 C66 1.381 . S
C64 C70 1.383 1_665 S
C65 C61 1.495 . S
C65 H71 0.959 . S
C65 H72 0.961 1_655 S
C65 H73 0.960 . S
C66 C64 1.381 . S
C66 C67 1.394 . S
C66 H74 0.930 . S
C67 C66 1.394 . S
C67 C68 1.387 . S
C67 H75 0.929 . S
C68 C67 1.387 . S
C68 C69 1.373 1_665 S
C69 H53 0.930 . S
C69 C68 1.373 1_445 S
C69 C70 1.379 . S
C70 H54 0.931 . S
C70 C64 1.383 1_445 S
C70 C69 1.379 . S
H71 C65 0.959 . S
H72 C65 0.961 1_455 S
H73 C65 0.960 . S
H74 C66 0.930 . S
H75 C67 0.929 . S
H76 C84 0.929 . S
H77 C86 0.930 . S
H78 C88 0.930 . S
H79 C91 0.929 . S
H80 C94 0.930 . S
H81 C96 0.960 . S
H82 C96 0.960 . S
H83 C96 0.960 1_545 S
C84 H76 0.929 . S
C84 C85 1.386 . S
C84 C86 1.384 . S
C85 C84 1.386 . S
C85 C91 1.384 1_566 S
C86 H77 0.930 . S
C86 C84 1.384 . S
C86 C87 1.372 . S
C87 C86 1.372 . S
C87 C88 1.400 1_566 S
C87 C92 1.490 . S
C88 H78 0.930 . S
C88 C87 1.400 1_544 S
C88 C91 1.386 . S
H89 C105 0.930 . S
H90 C106 0.931 . S
C91 H79 0.929 . S
C91 C85 1.384 1_544 S
C91 C88 1.386 . S
C92 C87 1.490 . S
C92 C94 1.395 1_565 S
C92 C95 1.403 1_556 S
H93 C99 0.930 . S
C94 H80 0.930 . S
C94 C92 1.395 1_545 S
C94 C97 1.403 . S
C95 C92 1.403 1_554 S
C95 C96 1.524 . S
C95 C99 1.400 . S
C96 H81 0.960 . S
C96 H82 0.960 . S
C96 H83 0.960 1_565 S
C96 C95 1.524 . S
C97 C94 1.403 . S
C97 C98 1.394 . S
C97 C101 1.495 . S
C98 C97 1.394 . S
C98 C99 1.383 1_546 S
C98 C100 1.477 . S
C99 H93 0.930 . S
C99 C95 1.400 . S
C99 C98 1.383 1_564 S
C100 C98 1.477 . S
C100 C102 1.381 1_545 S
C100 C106 1.383 1_556 S
C101 C97 1.495 . S
C101 H107 0.959 . S
C101 H108 0.961 . S
C101 H109 0.960 1_545 S
C102 C100 1.381 1_565 S
C102 C103 1.394 . S
C102 H110 0.930 . S
C103 C102 1.394 . S
C103 C104 1.383 1_565 S
C103 H111 0.929 . S
C104 C103 1.383 1_545 S
C104 C105 1.377 1_556 S
C105 H89 0.930 . S
C105 C104 1.377 1_554 S
C105 C106 1.379 . S
C106 H90 0.931 . S
C106 C100 1.383 1_554 S
C106 C105 1.379 . S
H107 C101 0.959 . S
H108 C101 0.961 . S
H109 C101 0.960 1_565 S
H110 C102 0.930 . S
H111 C103 0.929 . S
H112 C120 0.929 . S
H113 C122 0.930 . S
H114 C124 0.930 . S
H115 C127 0.929 . S
H116 C130 0.930 . S
H117 C132 0.960 . S
H118 C132 0.960 . S
H119 C132 0.960 . S
C120 H112 0.929 . S
C120 C121 1.382 . S
C120 C122 1.384 . S
C121 C120 1.382 . S
C121 C127 1.379 1_656 S
C122 H113 0.930 . S
C122 C120 1.384 . S
C122 C123 1.372 . S
C123 C122 1.372 . S
C123 C124 1.400 1_656 S
C123 C128 1.490 . S
C124 H114 0.930 . S
C124 C123 1.400 1_454 S
C124 C127 1.386 . S
H125 C141 0.930 . S
H126 C142 0.931 . S
C127 H115 0.929 . S
C127 C121 1.379 1_454 S
C127 C124 1.386 . S
C128 C123 1.490 . S
C128 C130 1.393 1_655 S
C128 C131 1.404 1_556 S
H129 C135 0.930 . S
C130 H116 0.930 . S
C130 C128 1.393 1_455 S
C130 C133 1.403 . S
C131 C128 1.404 1_554 S
C131 C132 1.524 . S
C131 C135 1.400 . S
C132 H117 0.960 . S
C132 H118 0.960 . S
C132 H119 0.960 . S
C132 C131 1.524 . S
C133 C130 1.403 . S
C133 C134 1.392 . S
C133 C137 1.495 . S
C134 C133 1.392 . S
C134 C135 1.385 1_456 S
C134 C136 1.478 . S
C135 H129 0.930 . S
C135 C131 1.400 . S
C135 C134 1.385 1_654 S
C136 C134 1.478 . S
C136 C138 1.381 1_455 S
C136 C142 1.383 1_556 S
C137 C133 1.495 . S
C137 H143 0.959 . S
C137 H144 0.961 . S
C137 H145 0.960 . S
C138 C136 1.381 1_655 S
C138 C139 1.394 . S
C138 H146 0.930 . S
C139 C138 1.394 . S
C139 C140 1.383 1_655 S
C139 H147 0.929 . S
C140 C139 1.383 1_455 S
C140 C141 1.377 1_556 S
C141 H125 0.930 . S
C141 C140 1.377 1_554 S
C141 C142 1.379 . S
C142 H126 0.931 . S
C142 C136 1.383 1_554 S
C142 C141 1.379 . S
H143 C137 0.959 . S
H144 C137 0.961 . S
H145 C137 0.960 . S
H146 C138 0.930 . S
H147 C139 0.929 . S
C49 C31 1.505 1_655 S
C68 C12 1.495 1_655 S
C85 C2 1.464 1_566 S
C104 C17 1.470 1_545 S
C121 C8 1.499 . S
C140 C29 1.493 1_556 S
