# Generated by pormake.
# Topology sxc, (6)-cn, num edge types: 1
# Building blocks:
#     Node 0, Type 0, BuildingBlock: BETDEL_clean_sbu_0, # of connection points: 6
#     Node 1, Type 0, BuildingBlock: BETDEL_clean_sbu_0, # of connection points: 6
#     Node 2, Type 0, BuildingBlock: BETDEL_clean_sbu_0, # of connection points: 6
#     Edge 3, Type (0, 0), BuildingBlock: CIFDUS_clean_linker_0, # of connection points: 2
#     Edge 4, Type (0, 0), BuildingBlock: CIFDUS_clean_linker_0, # of connection points: 2
#     Edge 5, Type (0, 0), BuildingBlock: CIFDUS_clean_linker_0, # of connection points: 2
#     Edge 6, Type (0, 0), BuildingBlock: CIFDUS_clean_linker_0, # of connection points: 2
#     Edge 7, Type (0, 0), BuildingBlock: CIFDUS_clean_linker_0, # of connection points: 2
#     Edge 8, Type (0, 0), BuildingBlock: CIFDUS_clean_linker_0, # of connection points: 2
#     Edge 9, Type (0, 0), BuildingBlock: CIFDUS_clean_linker_0, # of connection points: 2
#     Edge 10, Type (0, 0), BuildingBlock: CIFDUS_clean_linker_0, # of connection points: 2
#     Edge 11, Type (0, 0), BuildingBlock: CIFDUS_clean_linker_0, # of connection points: 2
# Relax obj value: 0.059
# Max RMSD: 0.054
# Mean RMSD: 0.041
data_MOF--net-sxc--node1-BETDEL_clean_sbu_0--edge1-CIFDUS_clean_linker_0
_symmetry_space_group_name_H-M    P1
_symmetry_Int_Tables_number       1
_symmetry_cell_setting            triclinic
loop_
_symmetry_equiv_pos_as_xyz
'x, y, z'
_cell_length_a     14.038197
_cell_length_b     13.678974
_cell_length_c     37.447485
_cell_angle_alpha  91.840703
_cell_angle_beta   95.398695
_cell_angle_gamma 114.95184
loop_
_atom_site_label
_atom_site_type_symbol
_atom_site_fract_x
_atom_site_fract_y
_atom_site_fract_z
_atom_type_partial_charge
Dy0 Dy 0.20231 0.05604 0.03112 0.0
C1 C 0.75375 0.81617 0.03677 0.0
C2 C 0.39005 0.18831 1.00895 0.0
Dy3 Dy 0.95453 0.96387 0.03082 0.0
O4 O 0.37974 0.13558 0.03776 0.0
O5 O 0.29767 0.1589 0.99072 0.0
O6 O 0.24819 0.08893 0.09149 0.0
O7 O 0.09156 1.02596 0.06968 0.0
C8 C 0.15144 0.0564 0.09885 0.0
C9 C 1.02737 1.01292 0.96721 0.0
O10 O 0.99306 0.13825 0.04483 0.0
O11 O 0.16278 0.1989 0.02757 0.0
O12 O 0.79115 0.85135 1.00701 0.0
O13 O 0.82377 0.87092 0.06382 0.0
O14 O 0.94506 1.02336 0.97659 0.0
O15 O 0.06344 0.97092 0.99152 0.0
O16 O 0.16904 0.88037 0.02698 0.0
O17 O 0.99217 0.82029 0.03708 0.0
C18 C 0.08301 0.21735 0.0374 0.0
C19 C 0.07647 0.80223 0.03282 0.0
Dy20 Dy 0.92338 0.99355 0.36279 0.0
C21 C 0.33073 0.13575 0.3264 0.0
C22 C 0.74113 0.94245 0.39212 0.0
Dy23 Dy 0.14057 0.08259 0.35042 0.0
O24 O 0.7519 0.89223 0.36392 0.0
O25 O 0.83182 1.02034 0.40442 0.0
O26 O 0.86866 0.91248 0.30637 0.0
O27 O 1.00064 0.06196 0.31568 0.0
C28 C 0.94662 0.98523 0.29247 0.0
C29 C 0.11391 0.08536 0.42099 0.0
O30 O 0.11245 0.22566 0.33758 0.0
O31 O 0.96418 0.17362 0.36682 0.0
O32 O 0.31246 0.18766 0.35242 0.0
O33 O 0.24241 0.05709 0.31251 0.0
O34 O 0.18842 0.16244 0.40726 0.0
O35 O 0.06322 1.01007 0.39707 0.0
O36 O 0.95046 0.84865 0.37361 0.0
O37 O 0.09962 0.90254 0.34478 0.0
C38 C 1.04195 0.2491 0.35202 0.0
C39 C 1.02112 0.82598 0.35895 0.0
Dy40 Dy 0.07843 0.99572 0.69868 0.0
C41 C 0.31198 0.43803 0.69628 0.0
C42 C 0.93218 0.7898 0.7057 0.0
Dy43 Dy 0.16509 0.23124 0.70136 0.0
O44 O 0.95934 0.83168 0.67567 0.0
O45 O 0.99394 0.85741 0.73217 0.0
O46 O 0.13485 0.98659 0.64576 0.0
O47 O 0.08367 0.10774 0.65714 0.0
C48 C 0.12452 0.07086 0.6345 0.0
C49 C 0.11073 0.15543 0.76429 0.0
O50 O 0.99363 0.2081 0.69067 0.0
O51 O 0.93331 0.0288 0.70241 0.0
O52 O 0.28611 0.3924 0.72585 0.0
O53 O 0.24867 0.37374 0.66937 0.0
O54 O 0.10033 0.23887 0.75235 0.0
O55 O 0.15655 0.1194 0.74323 0.0
O56 O 0.24951 1.01823 0.70864 0.0
O57 O 0.3092 0.19709 0.69664 0.0
C58 C 0.91418 0.11434 0.69613 0.0
C59 C 0.32857 0.11173 0.70291 0.0
H60 H 0.93469 0.29822 0.04236 0.0
H61 H 0.26712 0.39661 0.03453 0.0
H62 H 0.29507 0.58376 0.03228 0.0
H63 H 0.22588 0.72186 0.03121 0.0
H64 H 0.89344 0.62388 0.03901 0.0
H65 H 0.86608 0.43719 0.04252 0.0
C66 C 1.01329 0.36062 0.04043 0.0
C67 C 0.09802 0.33212 0.03847 0.0
C68 C 1.02947 0.46951 0.03892 0.0
C69 C 0.19952 0.4149 0.03585 0.0
C70 C 0.21606 0.52275 0.03455 0.0
C71 C 0.14749 0.6598 0.03365 0.0
C72 C 0.0624 0.68816 0.03475 0.0
C73 C 0.13158 0.55121 0.03575 0.0
C74 C 0.96124 0.60573 0.03808 0.0
C75 C 0.94503 0.4981 0.04012 0.0
H76 H 0.34421 0.94842 0.31966 0.0
H77 H 0.52897 0.29108 0.34601 0.0
H78 H 0.66605 0.25548 0.38073 0.0
H79 H 0.72545 0.12648 0.40573 0.0
H80 H 0.54165 0.78438 0.37836 0.0
H81 H 0.40119 0.8196 0.346 0.0
C82 C 0.41604 1.01561 0.33203 0.0
C83 C 0.42773 0.12218 0.33041 0.0
C84 C 0.48862 0.99409 0.35421 0.0
C85 C 0.52026 0.20858 0.34663 0.0
C86 C 0.59626 0.18805 0.3674 0.0
C87 C 0.65289 0.05935 0.3938 0.0
C88 C 0.64353 0.95329 0.39358 0.0
C89 C 0.57889 0.081 0.37239 0.0
C90 C 0.54931 0.86664 0.37865 0.0
C91 C 0.47134 0.88704 0.35914 0.0
H92 H 0.76628 0.71399 0.65349 0.0
H93 H 0.85207 0.69506 0.76588 0.0
H94 H 0.66489 0.59333 0.77357 0.0
H95 H 0.47766 0.51447 0.7486 0.0
H96 H 0.39191 0.534 0.63624 0.0
H97 H 0.57904 0.63582 0.62858 0.0
C98 C 0.74428 0.68582 0.67955 0.0
C99 C 0.82303 0.71049 0.70903 0.0
C100 C 0.63668 0.6311 0.68398 0.0
C101 C 0.79301 0.67546 0.74272 0.0
C102 C 0.68604 0.6187 0.74719 0.0
C103 C 0.49966 0.54279 0.72255 0.0
C104 C 0.42093 0.51805 0.69307 0.0
C105 C 0.60726 0.59776 0.71815 0.0
C106 C 0.45094 0.55355 0.65941 0.0
C107 C 0.5579 0.61034 0.65495 0.0
H108 H 0.82812 0.26742 0.69539 0.0
H109 H 0.73786 0.9249 0.69839 0.0
H110 H 0.55489 0.89225 0.70146 0.0
H111 H 0.41459 0.95861 0.70356 0.0
H112 H 0.50482 0.30112 0.70052 0.0
H113 H 0.6878 0.33375 0.69744 0.0
C114 C 0.76869 0.18552 0.69654 0.0
C115 C 0.79992 0.09943 0.69657 0.0
C116 C 0.66071 0.16617 0.69851 0.0
C117 C 0.71921 0.99408 0.69833 0.0
C118 C 0.61299 0.9747 0.70014 0.0
C119 C 0.47401 0.0405 0.70238 0.0
C120 C 0.44278 0.12661 0.70233 0.0
C121 C 0.58198 0.05984 0.70039 0.0
C122 C 0.52347 0.23194 0.70056 0.0
C123 C 0.62969 0.25131 0.69875 0.0
H124 H 0.64597 0.67244 0.9802 0.0
H125 H 0.69077 0.70655 0.09628 0.0
H126 H 0.59361 0.51038 0.09771 0.0
H127 H 0.50014 0.32956 0.06579 0.0
H128 H 0.45266 0.29661 0.94981 0.0
H129 H 0.55206 0.49255 0.94839 0.0
C130 C 0.63283 0.63724 1.00585 0.0
C131 C 0.6746 0.70388 0.03812 0.0
C132 C 0.58043 0.52463 1.0064 0.0
C133 C 0.65795 0.65701 0.07111 0.0
C134 C 0.60401 0.54482 0.07191 0.0
C135 C 0.51441 0.36503 0.04021 0.0
C136 C 0.47198 0.2989 1.00786 0.0
C137 C 0.5669 0.47781 0.03971 0.0
C138 C 0.48726 0.34603 0.97493 0.0
C139 C 0.54227 0.45795 0.97418 0.0
H140 H 0.9099 0.33193 0.3754 0.0
H141 H 0.19619 0.41912 0.32509 0.0
H142 H 0.21611 0.60412 0.32282 0.0
H143 H 0.15309 0.74323 0.33512 0.0
H144 H 0.86657 0.65544 0.38538 0.0
H145 H 0.84668 0.47061 0.3875 0.0
C146 C 0.97651 0.3913 0.3639 0.0
C147 C 1.05104 0.36099 0.35045 0.0
C148 C 0.98794 0.49843 0.36261 0.0
C149 C 0.13703 0.43948 0.33563 0.0
C150 C 0.14885 0.54584 0.33431 0.0
C151 C 0.08639 0.68371 0.34653 0.0
C152 C 1.01183 0.71392 0.36004 0.0
C153 C 0.07488 0.57648 0.34773 0.0
C154 C 0.92574 0.63524 0.37477 0.0
C155 C 0.91392 0.52894 0.37603 0.0
H156 H 0.11698 0.12253 0.26341 0.0
H157 H 0.81589 0.84823 0.23557 0.0
H158 H 0.84826 0.84944 0.17225 0.0
H159 H 0.96656 0.92634 0.12492 0.0
H160 H 0.27226 0.19238 0.15521 0.0
H161 H 0.23401 0.19687 0.21725 0.0
C162 C 0.05829 0.0631 0.24348 0.0
C163 C 0.96416 0.98558 0.25409 0.0
C164 C 0.07847 0.06299 0.20747 0.0
C165 C 0.88906 0.90876 0.22801 0.0
C166 C 0.90755 0.90951 0.19182 0.0
C167 C 1.02383 0.98582 0.14511 0.0
C168 C 0.12172 0.05948 0.13554 0.0
C169 C 1.00238 0.98601 0.18121 0.0
C170 C 0.19638 0.13493 0.16199 0.0
C171 C 0.17464 0.13757 0.19748 0.0
H172 H 0.15012 0.23395 0.47729 0.0
H173 H 0.07713 0.89854 0.45137 0.0
H174 H 0.07795 0.86623 0.51503 0.0
H175 H 0.09847 0.93189 0.57792 0.0
H176 H 0.15251 0.26104 0.60506 0.0
H177 H 0.1599 0.29768 0.54131 0.0
C178 C 0.13475 0.15414 0.48579 0.0
C179 C 0.11458 0.06894 0.4598 0.0
C180 C 0.1318 0.1351 0.5226 0.0
C181 C 0.09295 0.96534 0.4709 0.0
C182 C 0.09352 0.94679 0.5073 0.0
C183 C 0.11211 1.01183 0.56993 0.0
C184 C 0.12632 0.09414 0.59616 0.0
C185 C 0.11274 0.03089 0.53334 0.0
C186 C 0.14196 0.19664 0.58533 0.0
C187 C 0.14619 0.21746 0.5489 0.0
H188 H 0.20261 0.06802 0.81484 0.0
H189 H 0.94456 0.15834 0.79252 0.0
H190 H 0.89616 0.12085 0.85292 0.0
H191 H 0.9321 0.074 0.91288 0.0
H192 H 0.18841 0.98349 0.93816 0.0
H193 H 0.23371 1.01077 0.8762 0.0
C194 C 0.13492 0.07752 0.8232 0.0
C195 C 0.07724 0.11613 0.79935 0.0
C196 C 0.10847 0.05783 0.85865 0.0
C197 C 0.99039 0.12932 0.8105 0.0
C198 C 0.96278 0.10825 0.84506 0.0
C199 C 0.99791 0.05991 0.90494 0.0
C200 C 0.05746 0.02788 0.93017 0.0
C201 C 1.02241 0.07475 0.86954 0.0
C202 C 0.14196 1.0093 0.91929 0.0
C203 C 0.16748 1.02444 0.88383 0.0
loop_
_geom_bond_atom_site_label_1
_geom_bond_atom_site_label_2
_geom_bond_distance
_geom_bond_site_symmetry_2
_ccdc_geom_bond_type
Dy0 O4 2.398 . S
Dy0 O5 2.491 1_554 S
Dy0 O6 2.403 . S
Dy0 O7 2.664 1_545 S
Dy0 O11 2.326 . S
Dy0 O15 2.310 1_554 S
Dy0 O16 2.351 1_545 S
C1 O12 1.185 1_554 S
C1 O13 1.355 . S
C2 O4 1.185 . S
C2 O5 1.355 1_554 S
Dy3 O7 2.310 1_655 S
Dy3 O10 2.351 1_565 S
Dy3 O12 2.398 1_554 S
Dy3 O13 2.491 . S
Dy3 O14 2.403 1_554 S
Dy3 O15 2.664 1_664 S
Dy3 O17 2.326 1_554 S
O4 Dy0 2.398 . S
O4 C2 1.185 . S
O5 Dy0 2.491 1_556 S
O5 C2 1.355 1_556 S
O6 Dy0 2.403 . S
O6 C8 1.254 . S
O7 Dy0 2.664 1_565 S
O7 Dy3 2.310 1_455 S
O7 C8 1.268 1_565 S
C8 O6 1.254 . S
C8 O7 1.268 1_545 S
C9 O14 1.254 1_445 S
C9 O15 1.268 . S
O10 Dy3 2.351 1_545 S
O10 C18 1.249 1_655 S
O11 Dy0 2.326 . S
O11 C18 1.267 . S
O12 C1 1.185 1_556 S
O12 Dy3 2.398 1_556 S
O13 C1 1.355 . S
O13 Dy3 2.491 . S
O14 Dy3 2.403 1_556 S
O14 C9 1.254 1_665 S
O15 Dy0 2.310 1_556 S
O15 Dy3 2.664 1_446 S
O15 C9 1.268 . S
O16 Dy0 2.351 1_565 S
O16 C19 1.249 . S
O17 Dy3 2.326 1_556 S
O17 C19 1.267 1_656 S
C18 O10 1.249 1_455 S
C18 O11 1.267 . S
C19 O16 1.249 . S
C19 O17 1.267 1_454 S
Dy20 O24 2.398 . S
Dy20 O25 2.491 1_565 S
Dy20 O26 2.403 . S
Dy20 O27 2.664 1_665 S
Dy20 O31 2.326 1_565 S
Dy20 O35 2.310 1_565 S
Dy20 O36 2.351 . S
C21 O32 1.185 . S
C21 O33 1.355 . S
C22 O24 1.185 1_545 S
C22 O25 1.355 . S
Dy23 O27 2.310 . S
Dy23 O30 2.351 . S
Dy23 O32 2.398 . S
Dy23 O33 2.491 . S
Dy23 O34 2.403 . S
Dy23 O35 2.664 1_455 S
Dy23 O37 2.326 1_545 S
O24 Dy20 2.398 . S
O24 C22 1.185 1_565 S
O25 Dy20 2.491 1_545 S
O25 C22 1.355 . S
O26 Dy20 2.403 . S
O26 C28 1.254 . S
O27 Dy20 2.664 1_445 S
O27 Dy23 2.310 . S
O27 C28 1.268 1_445 S
C28 O26 1.254 . S
C28 O27 1.268 1_665 S
C29 O34 1.254 . S
C29 O35 1.268 1_455 S
O30 Dy23 2.351 . S
O30 C38 1.249 . S
O31 Dy20 2.326 1_545 S
O31 C38 1.267 1_655 S
O32 C21 1.185 . S
O32 Dy23 2.398 . S
O33 C21 1.355 . S
O33 Dy23 2.491 . S
O34 Dy23 2.403 . S
O34 C29 1.254 . S
O35 Dy20 2.310 1_545 S
O35 Dy23 2.664 1_655 S
O35 C29 1.268 1_655 S
O36 Dy20 2.351 . S
O36 C39 1.249 1_655 S
O37 Dy23 2.326 1_565 S
O37 C39 1.267 . S
C38 O30 1.249 . S
C38 O31 1.267 1_455 S
C39 O36 1.249 1_455 S
C39 O37 1.267 . S
Dy40 O44 2.398 . S
Dy40 O45 2.491 . S
Dy40 O46 2.403 . S
Dy40 O47 2.664 1_665 S
Dy40 O51 2.326 . S
Dy40 O55 2.310 1_565 S
Dy40 O56 2.351 1_655 S
C41 O52 1.185 . S
C41 O53 1.355 . S
C42 O44 1.185 . S
C42 O45 1.355 . S
Dy43 O47 2.310 . S
Dy43 O50 2.351 1_455 S
Dy43 O52 2.398 . S
Dy43 O53 2.491 . S
Dy43 O54 2.403 . S
Dy43 O55 2.664 1_455 S
Dy43 O57 2.326 . S
O44 Dy40 2.398 . S
O44 C42 1.185 . S
O45 Dy40 2.491 . S
O45 C42 1.355 . S
O46 Dy40 2.403 . S
O46 C48 1.254 1_665 S
O47 Dy40 2.664 1_445 S
O47 Dy43 2.310 . S
O47 C48 1.268 . S
C48 O46 1.254 1_445 S
C48 O47 1.268 . S
C49 O54 1.254 . S
C49 O55 1.268 1_455 S
O50 Dy43 2.351 1_655 S
O50 C58 1.249 . S
O51 Dy40 2.326 . S
O51 C58 1.267 1_565 S
O52 C41 1.185 . S
O52 Dy43 2.398 . S
O53 C41 1.355 . S
O53 Dy43 2.491 . S
O54 Dy43 2.403 . S
O54 C49 1.254 . S
O55 Dy40 2.310 1_545 S
O55 Dy43 2.664 1_655 S
O55 C49 1.268 1_655 S
O56 Dy40 2.351 1_455 S
O56 C59 1.249 1_565 S
O57 Dy43 2.326 . S
O57 C59 1.267 . S
C58 O50 1.249 . S
C58 O51 1.267 1_545 S
C59 O56 1.249 1_545 S
C59 O57 1.267 . S
H60 C66 0.930 . S
H61 C69 0.930 . S
H62 C70 0.930 . S
H63 C71 0.933 . S
H64 C74 0.930 . S
H65 C75 0.930 . S
C66 H60 0.930 . S
C66 C67 1.355 1_655 S
C66 C68 1.415 . S
C67 C66 1.355 1_455 S
C67 C69 1.419 1_554 S
C68 C66 1.415 . S
C68 C73 1.425 1_655 S
C68 C75 1.409 . S
C69 H61 0.930 . S
C69 C67 1.419 1_556 S
C69 C70 1.362 . S
C70 H62 0.930 . S
C70 C69 1.362 . S
C70 C73 1.409 1_556 S
C71 H63 0.933 . S
C71 C72 1.352 1_556 S
C71 C73 1.414 1_556 S
C72 C71 1.352 1_554 S
C72 C74 1.419 1_455 S
C73 C68 1.425 1_455 S
C73 C70 1.409 1_554 S
C73 C71 1.414 1_554 S
C74 H64 0.930 . S
C74 C72 1.419 1_655 S
C74 C75 1.362 . S
C75 H65 0.930 . S
C75 C68 1.409 . S
C75 C74 1.362 . S
H76 C82 0.930 . S
H77 C85 0.930 . S
H78 C86 0.930 . S
H79 C87 0.930 . S
H80 C90 0.930 . S
H81 C91 0.930 . S
C82 H76 0.930 . S
C82 C83 1.355 1_565 S
C82 C84 1.415 . S
C83 C82 1.355 1_545 S
C83 C85 1.419 . S
C84 C82 1.415 . S
C84 C89 1.425 1_565 S
C84 C91 1.409 . S
C85 H77 0.930 . S
C85 C83 1.419 . S
C85 C86 1.362 . S
C86 H78 0.930 . S
C86 C85 1.362 . S
C86 C89 1.409 . S
C87 H79 0.930 . S
C87 C88 1.355 . S
C87 C89 1.415 . S
C88 C87 1.355 . S
C88 C90 1.419 1_545 S
C89 C84 1.425 1_545 S
C89 C86 1.409 . S
C89 C87 1.415 . S
C90 H80 0.930 . S
C90 C88 1.419 1_565 S
C90 C91 1.362 . S
C91 H81 0.930 . S
C91 C84 1.409 . S
C91 C90 1.362 . S
H92 C98 0.930 . S
H93 C101 0.930 . S
H94 C102 0.930 . S
H95 C103 0.930 . S
H96 C106 0.930 . S
H97 C107 0.930 . S
C98 H92 0.930 . S
C98 C99 1.355 . S
C98 C100 1.415 . S
C99 C98 1.355 . S
C99 C101 1.419 . S
C100 C98 1.415 . S
C100 C105 1.425 . S
C100 C107 1.409 . S
C101 H93 0.930 . S
C101 C99 1.419 . S
C101 C102 1.362 . S
C102 H94 0.930 . S
C102 C101 1.362 . S
C102 C105 1.409 . S
C103 H95 0.930 . S
C103 C104 1.355 . S
C103 C105 1.415 . S
C104 C103 1.355 . S
C104 C106 1.419 . S
C105 C100 1.425 . S
C105 C102 1.409 . S
C105 C103 1.415 . S
C106 H96 0.930 . S
C106 C104 1.419 . S
C106 C107 1.362 . S
C107 H97 0.930 . S
C107 C100 1.409 . S
C107 C106 1.362 . S
H108 C114 0.930 . S
H109 C117 0.930 . S
H110 C118 0.930 . S
H111 C119 0.930 . S
H112 C122 0.930 . S
H113 C123 0.930 . S
C114 H108 0.930 . S
C114 C115 1.355 . S
C114 C116 1.415 . S
C115 C114 1.355 . S
C115 C117 1.419 1_545 S
C116 C114 1.415 . S
C116 C121 1.425 1_545 S
C116 C123 1.409 . S
C117 H109 0.930 . S
C117 C115 1.419 1_565 S
C117 C118 1.362 . S
C118 H110 0.930 . S
C118 C117 1.362 . S
C118 C121 1.409 . S
C119 H111 0.930 . S
C119 C120 1.355 1_565 S
C119 C121 1.415 . S
C120 C119 1.355 1_545 S
C120 C122 1.419 . S
C121 C116 1.425 1_565 S
C121 C118 1.409 . S
C121 C119 1.415 . S
C122 H112 0.930 . S
C122 C120 1.419 . S
C122 C123 1.362 . S
C123 H113 0.930 . S
C123 C116 1.409 . S
C123 C122 1.362 . S
H124 C130 0.930 . S
H125 C133 0.930 . S
H126 C134 0.930 . S
H127 C135 0.930 . S
H128 C138 0.930 . S
H129 C139 0.930 . S
C130 H124 0.930 . S
C130 C131 1.355 . S
C130 C132 1.415 . S
C131 C130 1.355 . S
C131 C133 1.419 . S
C132 C130 1.415 . S
C132 C137 1.425 . S
C132 C139 1.409 . S
C133 H125 0.930 . S
C133 C131 1.419 . S
C133 C134 1.362 . S
C134 H126 0.930 . S
C134 C133 1.362 . S
C134 C137 1.409 . S
C135 H127 0.930 . S
C135 C136 1.355 . S
C135 C137 1.415 . S
C136 C135 1.355 . S
C136 C138 1.419 . S
C137 C132 1.425 . S
C137 C134 1.409 . S
C137 C135 1.415 . S
C138 H128 0.930 . S
C138 C136 1.419 . S
C138 C139 1.362 . S
C139 H129 0.930 . S
C139 C132 1.409 . S
C139 C138 1.362 . S
H140 C146 0.930 . S
H141 C149 0.931 1_655 S
H142 C150 0.930 . S
H143 C151 0.930 . S
H144 C154 0.930 . S
H145 C155 0.930 . S
C146 H140 0.930 . S
C146 C147 1.355 . S
C146 C148 1.415 . S
C147 C146 1.355 . S
C147 C149 1.419 . S
C148 C146 1.415 . S
C148 C153 1.425 . S
C148 C155 1.409 . S
C149 H141 0.931 1_455 S
C149 C147 1.419 . S
C149 C150 1.361 . S
C150 H142 0.930 . S
C150 C149 1.361 . S
C150 C153 1.409 . S
C151 H143 0.930 . S
C151 C152 1.355 . S
C151 C153 1.415 . S
C152 C151 1.355 . S
C152 C154 1.419 . S
C153 C148 1.425 . S
C153 C150 1.409 . S
C153 C151 1.415 . S
C154 H144 0.930 . S
C154 C152 1.419 . S
C154 C155 1.362 . S
C155 H145 0.930 . S
C155 C148 1.409 . S
C155 C154 1.362 . S
H156 C162 0.930 . S
H157 C165 0.930 . S
H158 C166 0.930 . S
H159 C167 0.930 . S
H160 C170 0.930 . S
H161 C171 0.930 . S
C162 H156 0.930 . S
C162 C163 1.355 . S
C162 C164 1.415 . S
C163 C162 1.355 . S
C163 C165 1.419 1_445 S
C164 C162 1.415 . S
C164 C169 1.425 1_445 S
C164 C171 1.409 . S
C165 H157 0.930 . S
C165 C163 1.419 1_665 S
C165 C166 1.362 . S
C166 H158 0.930 . S
C166 C165 1.362 . S
C166 C169 1.409 . S
C167 H159 0.930 . S
C167 C168 1.355 1_665 S
C167 C169 1.415 . S
C168 C167 1.355 1_445 S
C168 C170 1.419 . S
C169 C164 1.425 1_665 S
C169 C166 1.409 . S
C169 C167 1.415 . S
C170 H160 0.930 . S
C170 C168 1.419 . S
C170 C171 1.362 . S
C171 H161 0.930 . S
C171 C164 1.409 . S
C171 C170 1.362 . S
H172 C178 0.930 . S
H173 C181 0.930 . S
H174 C182 0.930 . S
H175 C183 0.930 . S
H176 C186 0.930 . S
H177 C187 0.930 . S
C178 H172 0.930 . S
C178 C179 1.355 . S
C178 C180 1.415 . S
C179 C178 1.355 . S
C179 C181 1.419 1_445 S
C180 C178 1.415 . S
C180 C185 1.425 1_445 S
C180 C187 1.409 . S
C181 H173 0.930 . S
C181 C179 1.419 1_665 S
C181 C182 1.362 . S
C182 H174 0.930 . S
C182 C181 1.362 . S
C182 C185 1.408 . S
C183 H175 0.930 . S
C183 C184 1.355 1_665 S
C183 C185 1.416 . S
C184 C183 1.355 1_445 S
C184 C186 1.419 . S
C185 C180 1.425 1_665 S
C185 C182 1.408 . S
C185 C183 1.416 . S
C186 H176 0.930 . S
C186 C184 1.419 . S
C186 C187 1.362 . S
C187 H177 0.930 . S
C187 C180 1.409 . S
C187 C186 1.362 . S
H188 C194 0.930 1_565 S
H189 C197 0.930 . S
H190 C198 0.930 . S
H191 C199 0.930 . S
H192 C202 0.930 . S
H193 C203 0.930 . S
C194 H188 0.930 1_545 S
C194 C195 1.355 . S
C194 C196 1.415 . S
C195 C194 1.355 . S
C195 C197 1.419 1_455 S
C196 C194 1.415 . S
C196 C201 1.425 1_455 S
C196 C203 1.409 1_545 S
C197 H189 0.930 . S
C197 C195 1.419 1_655 S
C197 C198 1.362 . S
C198 H190 0.930 . S
C198 C197 1.362 . S
C198 C201 1.409 . S
C199 H191 0.930 . S
C199 C200 1.355 1_655 S
C199 C201 1.415 . S
C200 C199 1.355 1_455 S
C200 C202 1.419 1_545 S
C201 C196 1.425 1_655 S
C201 C198 1.409 . S
C201 C199 1.415 . S
C202 H192 0.930 . S
C202 C200 1.419 1_565 S
C202 C203 1.362 . S
C203 H193 0.930 . S
C203 C196 1.409 1_565 S
C203 C202 1.362 . S
C67 C18 1.870 . S
C72 C19 1.870 . S
C83 C21 0.615 . S
C88 C22 0.615 . S
C99 C42 1.177 . S
C104 C41 1.177 . S
C115 C58 2.425 . S
C120 C59 2.425 . S
C131 C1 1.171 . S
C136 C2 1.171 . S
C147 C38 1.853 . S
C152 C39 1.853 . S
C163 C28 1.434 1_445 S
C168 C8 1.434 . S
C179 C29 1.460 . S
C184 C48 1.479 . S
C195 C49 1.460 . S
C200 C9 1.482 . S
