# Generated by pormake.
# Topology uou, (4)-cn, num edge types: 1
# Building blocks:
#     Node 0, Type 0, BuildingBlock: QUQFOY_clean_sbu_1, # of connection points: 4
#     Node 1, Type 0, BuildingBlock: QUQFOY_clean_sbu_1, # of connection points: 4
#     Node 2, Type 0, BuildingBlock: QUQFOY_clean_sbu_1, # of connection points: 4
#     Node 3, Type 0, BuildingBlock: QUQFOY_clean_sbu_1, # of connection points: 4
#     Node 4, Type 0, BuildingBlock: QUQFOY_clean_sbu_1, # of connection points: 4
#     Node 5, Type 0, BuildingBlock: QUQFOY_clean_sbu_1, # of connection points: 4
#     Node 6, Type 0, BuildingBlock: QUQFOY_clean_sbu_1, # of connection points: 4
#     Node 7, Type 0, BuildingBlock: QUQFOY_clean_sbu_1, # of connection points: 4
#     Node 8, Type 0, BuildingBlock: QUQFOY_clean_sbu_1, # of connection points: 4
#     Node 9, Type 0, BuildingBlock: QUQFOY_clean_sbu_1, # of connection points: 4
#     Node 10, Type 0, BuildingBlock: QUQFOY_clean_sbu_1, # of connection points: 4
#     Node 11, Type 0, BuildingBlock: QUQFOY_clean_sbu_1, # of connection points: 4
#     Node 12, Type 0, BuildingBlock: QUQFOY_clean_sbu_1, # of connection points: 4
#     Node 13, Type 0, BuildingBlock: QUQFOY_clean_sbu_1, # of connection points: 4
#     Node 14, Type 0, BuildingBlock: QUQFOY_clean_sbu_1, # of connection points: 4
#     Node 15, Type 0, BuildingBlock: QUQFOY_clean_sbu_1, # of connection points: 4
#     Edge 16, Type (0, 0), None
#     Edge 17, Type (0, 0), None
#     Edge 18, Type (0, 0), None
#     Edge 19, Type (0, 0), None
#     Edge 20, Type (0, 0), None
#     Edge 21, Type (0, 0), None
#     Edge 22, Type (0, 0), None
#     Edge 23, Type (0, 0), None
#     Edge 24, Type (0, 0), None
#     Edge 25, Type (0, 0), None
#     Edge 26, Type (0, 0), None
#     Edge 27, Type (0, 0), None
#     Edge 28, Type (0, 0), None
#     Edge 29, Type (0, 0), None
#     Edge 30, Type (0, 0), None
#     Edge 31, Type (0, 0), None
#     Edge 32, Type (0, 0), None
#     Edge 33, Type (0, 0), None
#     Edge 34, Type (0, 0), None
#     Edge 35, Type (0, 0), None
#     Edge 36, Type (0, 0), None
#     Edge 37, Type (0, 0), None
#     Edge 38, Type (0, 0), None
#     Edge 39, Type (0, 0), None
#     Edge 40, Type (0, 0), None
#     Edge 41, Type (0, 0), None
#     Edge 42, Type (0, 0), None
#     Edge 43, Type (0, 0), None
#     Edge 44, Type (0, 0), None
#     Edge 45, Type (0, 0), None
#     Edge 46, Type (0, 0), None
#     Edge 47, Type (0, 0), None
# Relax obj value: 0.060
# Max RMSD: 0.081
# Mean RMSD: 0.081
data_MOF--net-uou--node1-QUQFOY_clean_sbu_1--edge1-none
_symmetry_space_group_name_H-M    P1
_symmetry_Int_Tables_number       1
_symmetry_cell_setting            triclinic
loop_
_symmetry_equiv_pos_as_xyz
'x, y, z'
_cell_length_a     18.762902
_cell_length_b     17.368096
_cell_length_c     25.680849
_cell_angle_alpha  89.999951
_cell_angle_beta   90.000006
_cell_angle_gamma 89.999987
loop_
_atom_site_label
_atom_site_type_symbol
_atom_site_fract_x
_atom_site_fract_y
_atom_site_fract_z
_atom_type_partial_charge
O0 O 1.02322 0.13759 0.15682 0.0
Cd1 Cd 1.04759 0.02306 0.16079 0.0
Cd2 Cd 0.16924 0.06663 0.12379 0.0
O3 O 0.13665 0.17071 0.15658 0.0
O4 O 0.99665 -0.02027 0.22258 0.0
O5 O 0.11385 -0.00378 0.21849 0.0
C6 C 1.05808 0.97927 0.24548 0.0
C7 C 0.27759 0.00241 0.13628 0.0
C8 C 0.07097 0.18896 0.16012 0.0
C9 C 0.07127 -0.00757 0.0499 0.0
O10 O 0.12129 0.04123 0.05414 0.0
O11 O 1.04007 0.96606 0.09027 0.0
O12 O 0.2752 0.06786 0.11258 0.0
O13 O 0.2194 0.97501 0.1553 0.0
O14 O 0.5976 0.82164 0.15682 0.0
Cd15 Cd 0.57324 0.93617 0.16079 0.0
Cd16 Cd 0.45159 0.8926 0.12379 0.0
O17 O 0.48417 0.78852 0.15658 0.0
O18 O 0.62418 0.9795 0.22258 0.0
O19 O 0.50697 0.96301 0.21849 0.0
C20 C 0.56275 -0.02004 0.24548 0.0
C21 C 0.34324 0.95683 0.13628 0.0
C22 C 0.54986 0.77027 0.16012 0.0
C23 C 0.54955 0.9668 0.0499 0.0
O24 O 0.49954 0.918 0.05414 0.0
O25 O 0.58076 -0.00683 0.09027 0.0
O26 O 0.34563 0.89138 0.11258 0.0
O27 O 0.40143 -0.01578 0.1553 0.0
O28 O 0.52322 0.82164 0.39108 0.0
Cd29 Cd 0.54758 0.93617 0.38711 0.0
Cd30 Cd 0.66924 0.8926 0.42411 0.0
O31 O 0.63665 0.78852 0.39132 0.0
O32 O 0.49664 0.9795 0.32533 0.0
O33 O 0.61385 0.96301 0.32942 0.0
C34 C 0.55807 -0.02004 0.30243 0.0
C35 C 0.77759 0.95682 0.41162 0.0
C36 C 0.57097 0.77027 0.38778 0.0
C37 C 0.57127 0.9668 0.498 0.0
O38 O 0.62129 0.918 0.49376 0.0
O39 O 0.54006 -0.00683 0.45764 0.0
O40 O 0.7752 0.89137 0.43532 0.0
O41 O 0.7194 -0.01578 0.3926 0.0
O42 O 0.0976 0.13759 0.39108 0.0
Cd43 Cd 0.07324 0.02306 0.38711 0.0
Cd44 Cd 0.95159 0.06663 0.42412 0.0
O45 O 0.98417 0.17071 0.39132 0.0
O46 O 0.12419 -0.02027 0.32533 0.0
O47 O 1.00697 -0.00378 0.32942 0.0
C48 C 0.06276 0.97927 0.30243 0.0
C49 C 0.84324 0.0024 0.41162 0.0
C50 C 1.04986 0.18896 0.38778 0.0
C51 C 1.04956 -0.00757 0.498 0.0
O52 O 0.99954 0.04123 0.49376 0.0
O53 O 0.08077 0.96606 0.45764 0.0
O54 O 0.84563 0.06785 0.43532 0.0
O55 O 0.90143 0.97501 0.3926 0.0
O56 O 0.99954 0.918 0.99376 0.0
Cd57 Cd 0.95159 0.8926 0.92412 0.0
Cd58 Cd 0.07324 0.93617 0.88711 0.0
O59 O 0.08076 -0.00683 0.95764 0.0
O60 O 0.84563 0.89137 0.93532 0.0
O61 O 0.90143 -0.01578 0.8926 0.0
C62 C 0.84324 0.95682 0.91162 0.0
C63 C 0.06275 -0.02004 0.80242 0.0
C64 C 1.04956 0.9668 0.998 0.0
C65 C 1.04986 0.77027 0.88778 0.0
O66 O 0.09761 0.82164 0.89108 0.0
O67 O 0.98418 0.78852 0.89132 0.0
O68 O 0.12418 0.9795 0.82532 0.0
O69 O 1.00697 0.96301 0.82942 0.0
O70 O 0.62129 0.04123 0.99376 0.0
Cd71 Cd 0.66924 0.06663 0.92412 0.0
Cd72 Cd 0.54759 0.02306 0.88711 0.0
O73 O 0.54007 0.96606 0.95764 0.0
O74 O 0.7752 0.06785 0.93532 0.0
O75 O 0.7194 0.97501 0.8926 0.0
C76 C 0.77759 0.0024 0.91162 0.0
C77 C 0.55808 0.97927 0.80242 0.0
C78 C 0.57127 -0.00757 0.998 0.0
C79 C 0.57097 0.18896 0.88778 0.0
O80 O 0.52323 0.13759 0.89108 0.0
O81 O 0.63666 0.17071 0.89132 0.0
O82 O 0.49665 -0.02027 0.82532 0.0
O83 O 0.61386 -0.00378 0.82942 0.0
O84 O 0.49954 0.04123 0.55414 0.0
Cd85 Cd 0.45159 0.06663 0.62379 0.0
Cd86 Cd 0.57324 0.02306 0.66079 0.0
O87 O 0.58077 0.96606 0.59027 0.0
O88 O 0.34563 0.06786 0.61258 0.0
O89 O 0.40143 0.97501 0.6553 0.0
C90 C 0.34324 0.00241 0.63628 0.0
C91 C 0.56276 0.97927 0.74547 0.0
C92 C 0.54956 -0.00757 0.5499 0.0
C93 C 0.54986 0.18896 0.66012 0.0
O94 O 0.59761 0.13759 0.65682 0.0
O95 O 0.48418 0.17071 0.65658 0.0
O96 O 0.62419 -0.02027 0.72258 0.0
O97 O 0.50697 -0.00378 0.71848 0.0
O98 O 0.12129 0.918 0.55414 0.0
Cd99 Cd 0.16924 0.8926 0.62379 0.0
Cd100 Cd 1.04759 0.93617 0.66079 0.0
O101 O 1.04006 -0.00683 0.59027 0.0
O102 O 0.2752 0.89138 0.61258 0.0
O103 O 0.2194 -0.01578 0.6553 0.0
C104 C 0.27759 0.95683 0.63628 0.0
C105 C 1.05807 -0.02004 0.74548 0.0
C106 C 0.07127 0.9668 0.5499 0.0
C107 C 0.07097 0.77027 0.66012 0.0
O108 O 1.02323 0.82164 0.65682 0.0
O109 O 0.13666 0.78852 0.65658 0.0
O110 O 0.99664 0.9795 0.72258 0.0
O111 O 0.11385 0.96301 0.71848 0.0
O112 O 0.52322 0.63759 0.15682 0.0
Cd113 Cd 0.54759 0.52306 0.16079 0.0
Cd114 Cd 0.66924 0.56663 0.12379 0.0
O115 O 0.63665 0.67071 0.15658 0.0
O116 O 0.49665 0.47972 0.22258 0.0
O117 O 0.61385 0.49622 0.21848 0.0
C118 C 0.55808 0.47927 0.24548 0.0
C119 C 0.77759 0.50241 0.13628 0.0
C120 C 0.57097 0.68896 0.16012 0.0
C121 C 0.57127 0.49243 0.0499 0.0
O122 O 0.62129 0.54123 0.05414 0.0
O123 O 0.54006 0.46606 0.09027 0.0
O124 O 0.7752 0.56786 0.11258 0.0
O125 O 0.7194 0.47501 0.1553 0.0
O126 O 0.0976 0.32164 0.15682 0.0
Cd127 Cd 0.07324 0.43617 0.16079 0.0
Cd128 Cd 0.95159 0.3926 0.12379 0.0
O129 O 0.98417 0.28852 0.15658 0.0
O130 O 0.12418 0.47951 0.22258 0.0
O131 O 1.00698 0.46301 0.21849 0.0
C132 C 0.06275 0.47996 0.24548 0.0
C133 C 0.84324 0.45683 0.13628 0.0
C134 C 1.04986 0.27028 0.16012 0.0
C135 C 1.04956 0.4668 0.0499 0.0
O136 O 0.99954 0.418 0.05414 0.0
O137 O 0.08076 0.49317 0.09027 0.0
O138 O 0.84563 0.39138 0.11258 0.0
O139 O 0.90143 0.48422 0.1553 0.0
O140 O 1.02322 0.32164 0.39108 0.0
Cd141 Cd 1.04758 0.43617 0.38711 0.0
Cd142 Cd 0.16924 0.3926 0.42411 0.0
O143 O 0.13665 0.28852 0.39132 0.0
O144 O 0.99664 0.47951 0.32533 0.0
O145 O 0.11385 0.46301 0.32942 0.0
C146 C 1.05807 0.47996 0.30243 0.0
C147 C 0.27759 0.45682 0.41162 0.0
C148 C 0.07097 0.27028 0.38778 0.0
C149 C 0.07127 0.4668 0.498 0.0
O150 O 0.12129 0.418 0.49376 0.0
O151 O 1.04006 0.49317 0.45764 0.0
O152 O 0.2752 0.39137 0.43532 0.0
O153 O 0.2194 0.48422 0.3926 0.0
O154 O 0.59761 0.63759 0.39108 0.0
Cd155 Cd 0.57325 0.52306 0.38711 0.0
Cd156 Cd 0.45159 0.56663 0.42412 0.0
O157 O 0.48417 0.67071 0.39132 0.0
O158 O 0.62419 0.47972 0.32533 0.0
O159 O 0.50698 0.49622 0.32942 0.0
C160 C 0.56276 0.47927 0.30243 0.0
C161 C 0.34324 0.5024 0.41162 0.0
C162 C 0.54986 0.68895 0.38778 0.0
C163 C 0.54956 0.49243 0.498 0.0
O164 O 0.49954 0.54123 0.49376 0.0
O165 O 0.58077 0.46606 0.45764 0.0
O166 O 0.34563 0.56785 0.43532 0.0
O167 O 0.40143 0.47501 0.3926 0.0
O168 O 0.49954 0.418 0.99376 0.0
Cd169 Cd 0.45159 0.3926 0.92412 0.0
Cd170 Cd 0.57324 0.43617 0.88711 0.0
O171 O 0.58077 0.49317 0.95764 0.0
O172 O 0.34563 0.39137 0.93532 0.0
O173 O 0.40143 0.48422 0.8926 0.0
C174 C 0.34324 0.45682 0.91162 0.0
C175 C 0.56275 0.47996 0.80242 0.0
C176 C 0.54956 0.4668 0.998 0.0
C177 C 0.54986 0.27027 0.88778 0.0
O178 O 0.59761 0.32164 0.89108 0.0
O179 O 0.48418 0.28852 0.89132 0.0
O180 O 0.62418 0.47951 0.82532 0.0
O181 O 0.50698 0.46301 0.82942 0.0
O182 O 0.12129 0.54123 0.99376 0.0
Cd183 Cd 0.16924 0.56663 0.92412 0.0
Cd184 Cd 1.04759 0.52306 0.88711 0.0
O185 O 1.04006 0.46606 0.95764 0.0
O186 O 0.2752 0.56785 0.93532 0.0
O187 O 0.2194 0.47501 0.8926 0.0
C188 C 0.27759 0.5024 0.91162 0.0
C189 C 1.05808 0.47926 0.80242 0.0
C190 C 0.07127 0.49243 0.998 0.0
C191 C 0.07097 0.68895 0.88778 0.0
O192 O 1.02322 0.63759 0.89108 0.0
O193 O 0.13666 0.67071 0.89132 0.0
O194 O 0.99665 0.47972 0.82532 0.0
O195 O 0.11385 0.49622 0.82942 0.0
O196 O 0.99954 0.54123 0.55414 0.0
Cd197 Cd 0.95159 0.56663 0.62379 0.0
Cd198 Cd 0.07325 0.52306 0.66079 0.0
O199 O 0.08077 0.46606 0.59027 0.0
O200 O 0.84563 0.56786 0.61258 0.0
O201 O 0.90143 0.47501 0.6553 0.0
C202 C 0.84324 0.50241 0.63629 0.0
C203 C 0.06276 0.47927 0.74547 0.0
C204 C 1.04956 0.49243 0.5499 0.0
C205 C 1.04986 0.68895 0.66012 0.0
O206 O 0.09761 0.63759 0.65682 0.0
O207 O 0.98418 0.67071 0.65658 0.0
O208 O 0.12419 0.47972 0.72258 0.0
O209 O 1.00698 0.49622 0.71848 0.0
O210 O 0.62129 0.418 0.55414 0.0
Cd211 Cd 0.66924 0.3926 0.62379 0.0
Cd212 Cd 0.54758 0.43617 0.66079 0.0
O213 O 0.54006 0.49317 0.59027 0.0
O214 O 0.7752 0.39138 0.61258 0.0
O215 O 0.7194 0.48422 0.6553 0.0
C216 C 0.77759 0.45683 0.63628 0.0
C217 C 0.55807 0.47996 0.74548 0.0
C218 C 0.57127 0.4668 0.5499 0.0
C219 C 0.57097 0.27028 0.66012 0.0
O220 O 0.52322 0.32164 0.65682 0.0
O221 O 0.63666 0.28852 0.65658 0.0
O222 O 0.49664 0.47951 0.72258 0.0
O223 O 0.61385 0.46301 0.71848 0.0
loop_
_geom_bond_atom_site_label_1
_geom_bond_atom_site_label_2
_geom_bond_distance
_geom_bond_site_symmetry_2
_ccdc_geom_bond_type
O0 Cd1 2.223 . S
O0 C8 1.315 . S
Cd1 O0 2.223 . S
Cd1 O4 2.297 . S
Cd1 O5 2.439 1_655 S
Cd1 O11 2.240 1_655 S
Cd2 O3 2.240 . S
Cd2 O10 2.223 1_554 S
Cd2 O12 2.297 . S
Cd2 O13 2.439 . S
O3 Cd2 2.240 . S
O3 C8 1.279 1_455 S
O4 Cd1 2.297 . S
O4 C6 1.247 . S
O5 Cd1 2.439 1_455 S
O5 C6 1.208 1_455 S
C6 O4 1.247 . S
C6 O5 1.208 1_655 S
C7 O12 1.247 . S
C7 O13 1.208 . S
C8 O0 1.315 . S
C8 O3 1.279 1_655 S
C9 O10 1.315 1_554 S
C9 O11 1.279 . S
O10 Cd2 2.223 1_556 S
O10 C9 1.315 1_556 S
O11 Cd1 2.240 1_455 S
O11 C9 1.279 . S
O12 Cd2 2.297 . S
O12 C7 1.247 . S
O13 Cd2 2.439 . S
O13 C7 1.208 . S
O14 Cd15 2.223 . S
O14 C22 1.315 . S
Cd15 O14 2.223 . S
Cd15 O18 2.297 . S
Cd15 O19 2.439 . S
Cd15 O25 2.240 . S
Cd16 O17 2.240 . S
Cd16 O24 2.223 1_554 S
Cd16 O26 2.297 . S
Cd16 O27 2.439 . S
O17 Cd16 2.240 . S
O17 C22 1.279 . S
O18 Cd15 2.297 . S
O18 C20 1.247 . S
O19 Cd15 2.439 . S
O19 C20 1.208 . S
C20 O18 1.247 . S
C20 O19 1.208 . S
C21 O26 1.247 . S
C21 O27 1.208 . S
C22 O14 1.315 . S
C22 O17 1.279 . S
C23 O24 1.315 1_554 S
C23 O25 1.279 . S
O24 Cd16 2.223 1_556 S
O24 C23 1.315 1_556 S
O25 Cd15 2.240 . S
O25 C23 1.279 . S
O26 Cd16 2.297 . S
O26 C21 1.247 . S
O27 Cd16 2.439 . S
O27 C21 1.208 . S
O28 Cd29 2.223 . S
O28 C36 1.315 . S
Cd29 O28 2.223 . S
Cd29 O32 2.297 . S
Cd29 O33 2.439 . S
Cd29 O39 2.240 . S
Cd30 O31 2.240 . S
Cd30 O38 2.223 . S
Cd30 O40 2.297 . S
Cd30 O41 2.439 . S
O31 Cd30 2.240 . S
O31 C36 1.279 . S
O32 Cd29 2.297 . S
O32 C34 1.247 . S
O33 Cd29 2.439 . S
O33 C34 1.208 . S
C34 O32 1.247 . S
C34 O33 1.208 . S
C35 O40 1.247 . S
C35 O41 1.208 . S
C36 O28 1.315 . S
C36 O31 1.279 . S
C37 O38 1.315 . S
C37 O39 1.279 . S
O38 Cd30 2.223 . S
O38 C37 1.315 . S
O39 Cd29 2.240 . S
O39 C37 1.279 . S
O40 Cd30 2.297 . S
O40 C35 1.247 . S
O41 Cd30 2.439 . S
O41 C35 1.208 . S
O42 Cd43 2.223 . S
O42 C50 1.315 . S
Cd43 O42 2.223 . S
Cd43 O46 2.297 . S
Cd43 O47 2.439 1_455 S
Cd43 O53 2.240 1_455 S
Cd44 O45 2.240 . S
Cd44 O52 2.223 . S
Cd44 O54 2.297 . S
Cd44 O55 2.439 . S
O45 Cd44 2.240 . S
O45 C50 1.279 1_655 S
O46 Cd43 2.297 . S
O46 C48 1.247 . S
O47 Cd43 2.439 1_655 S
O47 C48 1.208 1_655 S
C48 O46 1.247 . S
C48 O47 1.208 1_455 S
C49 O54 1.247 . S
C49 O55 1.208 . S
C50 O42 1.315 . S
C50 O45 1.279 1_455 S
C51 O52 1.315 . S
C51 O53 1.279 . S
O52 Cd44 2.223 . S
O52 C51 1.315 . S
O53 Cd43 2.240 1_655 S
O53 C51 1.279 . S
O54 Cd44 2.297 . S
O54 C49 1.247 . S
O55 Cd44 2.439 . S
O55 C49 1.208 . S
O56 Cd57 2.223 1_554 S
O56 C64 1.315 1_554 S
Cd57 O56 2.223 1_556 S
Cd57 O60 2.297 . S
Cd57 O61 2.439 . S
Cd57 O67 2.240 . S
Cd58 O59 2.240 1_455 S
Cd58 O66 2.223 . S
Cd58 O68 2.297 . S
Cd58 O69 2.439 1_455 S
O59 Cd58 2.240 1_655 S
O59 C64 1.279 . S
O60 Cd57 2.297 . S
O60 C62 1.247 . S
O61 Cd57 2.439 . S
O61 C62 1.208 . S
C62 O60 1.247 . S
C62 O61 1.208 . S
C63 O68 1.247 . S
C63 O69 1.208 1_455 S
C64 O56 1.315 1_556 S
C64 O59 1.279 . S
C65 O66 1.315 . S
C65 O67 1.279 1_455 S
O66 Cd58 2.223 . S
O66 C65 1.315 . S
O67 Cd57 2.240 . S
O67 C65 1.279 1_655 S
O68 Cd58 2.297 . S
O68 C63 1.247 . S
O69 Cd58 2.439 1_655 S
O69 C63 1.208 1_655 S
O70 Cd71 2.223 1_554 S
O70 C78 1.315 1_554 S
Cd71 O70 2.223 1_556 S
Cd71 O74 2.297 . S
Cd71 O75 2.439 . S
Cd71 O81 2.240 . S
Cd72 O73 2.240 . S
Cd72 O80 2.223 . S
Cd72 O82 2.297 . S
Cd72 O83 2.439 . S
O73 Cd72 2.240 . S
O73 C78 1.279 . S
O74 Cd71 2.297 . S
O74 C76 1.247 . S
O75 Cd71 2.439 . S
O75 C76 1.208 . S
C76 O74 1.247 . S
C76 O75 1.208 . S
C77 O82 1.247 . S
C77 O83 1.208 . S
C78 O70 1.315 1_556 S
C78 O73 1.279 . S
C79 O80 1.315 . S
C79 O81 1.279 . S
O80 Cd72 2.223 . S
O80 C79 1.315 . S
O81 Cd71 2.240 . S
O81 C79 1.279 . S
O82 Cd72 2.297 . S
O82 C77 1.247 . S
O83 Cd72 2.439 . S
O83 C77 1.208 . S
O84 Cd85 2.223 . S
O84 C92 1.315 . S
Cd85 O84 2.223 . S
Cd85 O88 2.297 . S
Cd85 O89 2.439 . S
Cd85 O95 2.240 . S
Cd86 O87 2.240 . S
Cd86 O94 2.223 . S
Cd86 O96 2.297 . S
Cd86 O97 2.439 . S
O87 Cd86 2.240 . S
O87 C92 1.279 . S
O88 Cd85 2.297 . S
O88 C90 1.247 . S
O89 Cd85 2.439 . S
O89 C90 1.208 . S
C90 O88 1.247 . S
C90 O89 1.208 . S
C91 O96 1.247 . S
C91 O97 1.208 . S
C92 O84 1.315 . S
C92 O87 1.279 . S
C93 O94 1.315 . S
C93 O95 1.279 . S
O94 Cd86 2.223 . S
O94 C93 1.315 . S
O95 Cd85 2.240 . S
O95 C93 1.279 . S
O96 Cd86 2.297 . S
O96 C91 1.247 . S
O97 Cd86 2.439 . S
O97 C91 1.208 . S
O98 Cd99 2.223 . S
O98 C106 1.315 . S
Cd99 O98 2.223 . S
Cd99 O102 2.297 . S
Cd99 O103 2.439 . S
Cd99 O109 2.240 . S
Cd100 O101 2.240 1_655 S
Cd100 O108 2.223 . S
Cd100 O110 2.297 . S
Cd100 O111 2.439 1_655 S
O101 Cd100 2.240 1_455 S
O101 C106 1.279 . S
O102 Cd99 2.297 . S
O102 C104 1.247 . S
O103 Cd99 2.439 . S
O103 C104 1.208 . S
C104 O102 1.247 . S
C104 O103 1.208 . S
C105 O110 1.247 . S
C105 O111 1.208 1_655 S
C106 O98 1.315 . S
C106 O101 1.279 . S
C107 O108 1.315 . S
C107 O109 1.279 1_655 S
O108 Cd100 2.223 . S
O108 C107 1.315 . S
O109 Cd99 2.240 . S
O109 C107 1.279 1_455 S
O110 Cd100 2.297 . S
O110 C105 1.247 . S
O111 Cd100 2.439 1_455 S
O111 C105 1.208 1_455 S
O112 Cd113 2.223 . S
O112 C120 1.315 . S
Cd113 O112 2.223 . S
Cd113 O116 2.297 . S
Cd113 O117 2.439 . S
Cd113 O123 2.240 . S
Cd114 O115 2.240 . S
Cd114 O122 2.223 1_554 S
Cd114 O124 2.297 . S
Cd114 O125 2.439 . S
O115 Cd114 2.240 . S
O115 C120 1.279 . S
O116 Cd113 2.297 . S
O116 C118 1.247 . S
O117 Cd113 2.439 . S
O117 C118 1.208 . S
C118 O116 1.247 . S
C118 O117 1.208 . S
C119 O124 1.247 . S
C119 O125 1.208 . S
C120 O112 1.315 . S
C120 O115 1.279 . S
C121 O122 1.315 1_554 S
C121 O123 1.279 . S
O122 Cd114 2.223 1_556 S
O122 C121 1.315 1_556 S
O123 Cd113 2.240 . S
O123 C121 1.279 . S
O124 Cd114 2.297 . S
O124 C119 1.247 . S
O125 Cd114 2.439 . S
O125 C119 1.208 . S
O126 Cd127 2.223 . S
O126 C134 1.315 . S
Cd127 O126 2.223 . S
Cd127 O130 2.297 . S
Cd127 O131 2.439 1_455 S
Cd127 O137 2.240 1_455 S
Cd128 O129 2.240 . S
Cd128 O136 2.223 1_554 S
Cd128 O138 2.297 . S
Cd128 O139 2.439 . S
O129 Cd128 2.240 . S
O129 C134 1.279 1_655 S
O130 Cd127 2.297 . S
O130 C132 1.247 . S
O131 Cd127 2.439 1_655 S
O131 C132 1.208 1_655 S
C132 O130 1.247 . S
C132 O131 1.208 1_455 S
C133 O138 1.247 . S
C133 O139 1.208 . S
C134 O126 1.315 . S
C134 O129 1.279 1_455 S
C135 O136 1.315 1_554 S
C135 O137 1.279 . S
O136 Cd128 2.223 1_556 S
O136 C135 1.315 1_556 S
O137 Cd127 2.240 1_655 S
O137 C135 1.279 . S
O138 Cd128 2.297 . S
O138 C133 1.247 . S
O139 Cd128 2.439 . S
O139 C133 1.208 . S
O140 Cd141 2.223 . S
O140 C148 1.315 . S
Cd141 O140 2.223 . S
Cd141 O144 2.297 . S
Cd141 O145 2.439 1_655 S
Cd141 O151 2.240 1_655 S
Cd142 O143 2.240 . S
Cd142 O150 2.223 . S
Cd142 O152 2.297 . S
Cd142 O153 2.439 . S
O143 Cd142 2.240 . S
O143 C148 1.279 1_455 S
O144 Cd141 2.297 . S
O144 C146 1.247 . S
O145 Cd141 2.439 1_455 S
O145 C146 1.208 1_455 S
C146 O144 1.247 . S
C146 O145 1.208 1_655 S
C147 O152 1.247 . S
C147 O153 1.208 . S
C148 O140 1.315 . S
C148 O143 1.279 1_655 S
C149 O150 1.315 . S
C149 O151 1.279 . S
O150 Cd142 2.223 . S
O150 C149 1.315 . S
O151 Cd141 2.240 1_455 S
O151 C149 1.279 . S
O152 Cd142 2.297 . S
O152 C147 1.247 . S
O153 Cd142 2.439 . S
O153 C147 1.208 . S
O154 Cd155 2.223 . S
O154 C162 1.315 . S
Cd155 O154 2.223 . S
Cd155 O158 2.297 . S
Cd155 O159 2.439 . S
Cd155 O165 2.240 . S
Cd156 O157 2.240 . S
Cd156 O164 2.223 . S
Cd156 O166 2.297 . S
Cd156 O167 2.439 . S
O157 Cd156 2.240 . S
O157 C162 1.279 . S
O158 Cd155 2.297 . S
O158 C160 1.247 . S
O159 Cd155 2.439 . S
O159 C160 1.208 . S
C160 O158 1.247 . S
C160 O159 1.208 . S
C161 O166 1.247 . S
C161 O167 1.208 . S
C162 O154 1.315 . S
C162 O157 1.279 . S
C163 O164 1.315 . S
C163 O165 1.279 . S
O164 Cd156 2.223 . S
O164 C163 1.315 . S
O165 Cd155 2.240 . S
O165 C163 1.279 . S
O166 Cd156 2.297 . S
O166 C161 1.247 . S
O167 Cd156 2.439 . S
O167 C161 1.208 . S
O168 Cd169 2.223 1_554 S
O168 C176 1.315 1_554 S
Cd169 O168 2.223 1_556 S
Cd169 O172 2.297 . S
Cd169 O173 2.439 . S
Cd169 O179 2.240 . S
Cd170 O171 2.240 . S
Cd170 O178 2.223 . S
Cd170 O180 2.297 . S
Cd170 O181 2.439 . S
O171 Cd170 2.240 . S
O171 C176 1.279 . S
O172 Cd169 2.297 . S
O172 C174 1.247 . S
O173 Cd169 2.439 . S
O173 C174 1.208 . S
C174 O172 1.247 . S
C174 O173 1.208 . S
C175 O180 1.247 . S
C175 O181 1.208 . S
C176 O168 1.315 1_556 S
C176 O171 1.279 . S
C177 O178 1.315 . S
C177 O179 1.279 . S
O178 Cd170 2.223 . S
O178 C177 1.315 . S
O179 Cd169 2.240 . S
O179 C177 1.279 . S
O180 Cd170 2.297 . S
O180 C175 1.247 . S
O181 Cd170 2.439 . S
O181 C175 1.208 . S
O182 Cd183 2.223 1_554 S
O182 C190 1.315 1_554 S
Cd183 O182 2.223 1_556 S
Cd183 O186 2.297 . S
Cd183 O187 2.439 . S
Cd183 O193 2.240 . S
Cd184 O185 2.240 1_655 S
Cd184 O192 2.223 . S
Cd184 O194 2.297 . S
Cd184 O195 2.439 1_655 S
O185 Cd184 2.240 1_455 S
O185 C190 1.279 . S
O186 Cd183 2.297 . S
O186 C188 1.247 . S
O187 Cd183 2.439 . S
O187 C188 1.208 . S
C188 O186 1.247 . S
C188 O187 1.208 . S
C189 O194 1.247 . S
C189 O195 1.208 1_655 S
C190 O182 1.315 1_556 S
C190 O185 1.279 . S
C191 O192 1.315 . S
C191 O193 1.279 1_655 S
O192 Cd184 2.223 . S
O192 C191 1.315 . S
O193 Cd183 2.240 . S
O193 C191 1.279 1_455 S
O194 Cd184 2.297 . S
O194 C189 1.247 . S
O195 Cd184 2.439 1_455 S
O195 C189 1.208 1_455 S
O196 Cd197 2.223 . S
O196 C204 1.315 . S
Cd197 O196 2.223 . S
Cd197 O200 2.297 . S
Cd197 O201 2.439 . S
Cd197 O207 2.240 . S
Cd198 O199 2.240 1_455 S
Cd198 O206 2.223 . S
Cd198 O208 2.297 . S
Cd198 O209 2.439 1_455 S
O199 Cd198 2.240 1_655 S
O199 C204 1.279 . S
O200 Cd197 2.297 . S
O200 C202 1.247 . S
O201 Cd197 2.439 . S
O201 C202 1.208 . S
C202 O200 1.247 . S
C202 O201 1.208 . S
C203 O208 1.247 . S
C203 O209 1.208 1_455 S
C204 O196 1.315 . S
C204 O199 1.279 . S
C205 O206 1.315 . S
C205 O207 1.279 1_455 S
O206 Cd198 2.223 . S
O206 C205 1.315 . S
O207 Cd197 2.240 . S
O207 C205 1.279 1_655 S
O208 Cd198 2.297 . S
O208 C203 1.247 . S
O209 Cd198 2.439 1_655 S
O209 C203 1.208 1_655 S
O210 Cd211 2.223 . S
O210 C218 1.315 . S
Cd211 O210 2.223 . S
Cd211 O214 2.297 . S
Cd211 O215 2.439 . S
Cd211 O221 2.240 . S
Cd212 O213 2.240 . S
Cd212 O220 2.223 . S
Cd212 O222 2.297 . S
Cd212 O223 2.439 . S
O213 Cd212 2.240 . S
O213 C218 1.279 . S
O214 Cd211 2.297 . S
O214 C216 1.247 . S
O215 Cd211 2.439 . S
O215 C216 1.208 . S
C216 O214 1.247 . S
C216 O215 1.208 . S
C217 O222 1.247 . S
C217 O223 1.208 . S
C218 O210 1.315 . S
C218 O213 1.279 . S
C219 O220 1.315 . S
C219 O221 1.279 . S
O220 Cd212 2.223 . S
O220 C219 1.315 . S
O221 Cd211 2.240 . S
O221 C219 1.279 . S
O222 Cd212 2.297 . S
O222 C217 1.247 . S
O223 Cd212 2.439 . S
O223 C217 1.208 . S
C21 C7 1.499 1_565 S
C35 C49 1.499 1_565 S
C62 C76 1.499 1_565 S
C104 C90 1.499 1_565 S
C133 C119 1.499 . S
C161 C147 1.499 . S
C188 C174 1.499 . S
C216 C202 1.499 . S
C48 C6 1.552 1_455 S
C20 C34 1.552 . S
C105 C63 1.552 1_655 S
C91 C77 1.552 . S
C118 C160 1.552 . S
C146 C132 1.552 1_655 S
C217 C175 1.552 . S
C189 C203 1.552 1_655 S
C8 C134 1.654 1_655 S
C22 C120 1.654 . S
C162 C36 1.654 . S
C148 C50 1.654 1_655 S
C191 C65 1.654 1_655 S
C177 C79 1.654 . S
C93 C219 1.654 . S
C107 C205 1.654 1_655 S
C64 C9 1.900 1_666 S
C78 C23 1.900 1_546 S
C92 C37 1.900 1_545 S
C106 C51 1.900 1_465 S
C121 C176 1.900 1_554 S
C135 C190 1.900 1_654 S
C204 C149 1.900 1_655 S
C218 C163 1.900 . S
