# Generated by pormake.
# Topology lcy, (6)-cn, num edge types: 1
# Building blocks:
#     Node 0, Type 0, BuildingBlock: IZENUY_clean_sbu_0, # of connection points: 6
#     Node 1, Type 0, BuildingBlock: IZENUY_clean_sbu_0, # of connection points: 6
#     Node 2, Type 0, BuildingBlock: IZENUY_clean_sbu_0, # of connection points: 6
#     Node 3, Type 0, BuildingBlock: IZENUY_clean_sbu_0, # of connection points: 6
#     Edge 4, Type (0, 0), BuildingBlock: EYOCIG_clean_linker_4, # of connection points: 2
#     Edge 5, Type (0, 0), BuildingBlock: EYOCIG_clean_linker_4, # of connection points: 2
#     Edge 6, Type (0, 0), BuildingBlock: EYOCIG_clean_linker_4, # of connection points: 2
#     Edge 7, Type (0, 0), BuildingBlock: EYOCIG_clean_linker_4, # of connection points: 2
#     Edge 8, Type (0, 0), BuildingBlock: EYOCIG_clean_linker_4, # of connection points: 2
#     Edge 9, Type (0, 0), BuildingBlock: EYOCIG_clean_linker_4, # of connection points: 2
#     Edge 10, Type (0, 0), BuildingBlock: EYOCIG_clean_linker_4, # of connection points: 2
#     Edge 11, Type (0, 0), BuildingBlock: EYOCIG_clean_linker_4, # of connection points: 2
#     Edge 12, Type (0, 0), BuildingBlock: EYOCIG_clean_linker_4, # of connection points: 2
#     Edge 13, Type (0, 0), BuildingBlock: EYOCIG_clean_linker_4, # of connection points: 2
#     Edge 14, Type (0, 0), BuildingBlock: EYOCIG_clean_linker_4, # of connection points: 2
#     Edge 15, Type (0, 0), BuildingBlock: EYOCIG_clean_linker_4, # of connection points: 2
# Relax obj value: 0.232
# Max RMSD: 0.227
# Mean RMSD: 0.227
data_MOF--net-lcy--node1-IZENUY_clean_sbu_0--edge1-EYOCIG_clean_linker_4
_symmetry_space_group_name_H-M    P1
_symmetry_Int_Tables_number       1
_symmetry_cell_setting            triclinic
loop_
_symmetry_equiv_pos_as_xyz
'x, y, z'
_cell_length_a     20.430246
_cell_length_b     20.436088
_cell_length_c     20.431972
_cell_angle_alpha  89.98689
_cell_angle_beta   89.995863
_cell_angle_gamma 90.024052
loop_
_atom_site_label
_atom_site_type_symbol
_atom_site_fract_x
_atom_site_fract_y
_atom_site_fract_z
_atom_type_partial_charge
Fe0 Fe 0.44313 0.38094 0.32112 0.0
Fe1 Fe 0.3813 0.32069 0.44314 0.0
O2 O 0.38184 0.38144 0.38187 0.0
Fe3 Fe 0.32105 0.44264 0.3813 0.0
O4 O 0.29249 0.41696 0.30209 0.0
O5 O 0.38986 0.41705 0.25651 0.0
O6 O 0.41748 0.30174 0.29253 0.0
C7 C 0.42148 0.25171 0.32789 0.0
C8 C 0.4373 0.51039 0.3418 0.0
O9 O 0.41749 0.25614 0.38988 0.0
C10 C 0.34167 0.43689 0.5108 0.0
O11 O 0.50696 0.34482 0.37531 0.0
O12 O 0.46045 0.34594 0.47226 0.0
O13 O 0.37522 0.50651 0.34514 0.0
O14 O 0.4722 0.4601 0.34632 0.0
C15 C 0.25206 0.32734 0.4214 0.0
O16 O 0.34509 0.37482 0.50697 0.0
O17 O 0.34619 0.47176 0.46046 0.0
C18 C 0.5108 0.34145 0.43739 0.0
O19 O 0.30213 0.29204 0.41745 0.0
O20 O 0.25647 0.38932 0.41742 0.0
C21 C 0.32785 0.421 0.25206 0.0
Fe22 Fe 0.82098 0.07255 0.63474 0.0
Fe23 Fe 0.8814 0.19447 0.57291 0.0
O24 O 0.88182 0.13375 0.63421 0.0
Fe25 Fe 0.94305 0.13425 0.69501 0.0
O26 O 0.97208 0.05508 0.66988 0.0
O27 O 0.87506 0.00868 0.67098 0.0
O28 O 0.8462 0.0434 0.55562 0.0
C29 C 0.84181 0.07825 0.50526 0.0
C30 C 0.82767 0.09427 0.76396 0.0
O31 O 0.84522 0.14032 0.50908 0.0
C32 C 0.92153 0.26348 0.68817 0.0
O33 O 0.75647 0.12585 0.59853 0.0
O34 O 0.80221 0.22315 0.59851 0.0
O35 O 0.88968 0.09819 0.75958 0.0
O36 O 0.79236 0.09828 0.7139 0.0
C37 C 0.01086 0.17367 0.57879 0.0
O38 O 0.91758 0.25904 0.62617 0.0
O39 O 0.91745 0.21346 0.72355 0.0
C40 C 0.75213 0.18784 0.59451 0.0
O41 O 0.96055 0.1692 0.54388 0.0
O42 O 1.00697 0.17035 0.64086 0.0
C43 C 0.93713 1.00479 0.67437 0.0
Fe44 Fe 0.07284 0.63424 0.8211 0.0
Fe45 Fe 0.19489 0.57257 0.88136 0.0
O46 O 0.13409 0.63376 0.88187 0.0
Fe47 Fe 0.13457 0.69451 0.94313 0.0
O48 O 0.0554 0.66924 0.9722 0.0
O49 O 0.00896 0.67035 0.87524 0.0
O50 O 0.04378 0.55507 0.84631 0.0
C51 C 0.07868 0.50478 0.84183 0.0
C52 C 0.09443 0.76347 0.82781 0.0
O53 O 0.14076 0.50869 0.8452 0.0
C54 C 0.26383 0.68789 0.92151 0.0
O55 O 0.12616 0.59814 0.75652 0.0
O56 O 0.22351 0.59826 0.80216 0.0
O57 O 0.09841 0.75905 0.88981 0.0
O58 O 0.09848 0.71344 0.79248 0.0
C59 C 0.17417 0.57832 0.01085 0.0
O60 O 0.25945 0.62591 0.91751 0.0
O61 O 0.21377 0.72318 0.91747 0.0
C62 C 0.18817 0.59418 0.75211 0.0
O63 O 0.1697 0.54345 0.96053 0.0
O64 O 0.17075 0.64038 1.00699 0.0
C65 C 1.00508 0.67374 0.93731 0.0
Fe66 Fe 0.57293 0.88092 0.19507 0.0
Fe67 Fe 0.69491 0.94274 0.13472 0.0
O68 O 0.63412 0.8815 0.13423 0.0
Fe69 Fe 0.63454 0.8208 0.07293 0.0
O70 O 0.55535 0.84603 0.04396 0.0
O71 O 0.50899 0.8448 0.14098 0.0
O72 O 0.54382 0.96009 0.16997 0.0
C73 C 0.57873 0.01041 0.17443 0.0
C74 C 0.59454 0.75172 0.18822 0.0
O75 O 0.64081 1.00655 0.17099 0.0
C76 C 0.76382 0.8275 0.09443 0.0
O77 O 0.62631 0.91701 0.25961 0.0
O78 O 0.7236 0.91701 0.21387 0.0
O79 O 0.59844 0.75619 0.12622 0.0
O80 O 0.59862 0.80172 0.22359 0.0
C81 C 0.67403 0.93707 1.00526 0.0
O82 O 0.75944 0.88949 0.09847 0.0
O83 O 0.71376 0.79217 0.09847 0.0
C84 C 0.68832 0.92099 0.26395 0.0
O85 O 0.66963 0.9719 0.05561 0.0
O86 O 0.67065 0.875 0.00908 0.0
C87 C 0.50506 0.8415 0.0789 0.0
C88 C 0.23017 0.51561 0.10864 0.0
C89 C 0.20446 0.54815 0.06661 0.0
C90 C 0.26674 0.47818 0.15394 0.0
C91 C 0.29858 0.45188 0.19615 0.0
C92 C 0.7495 0.97804 0.36208 0.0
C93 C 0.71765 0.95179 0.31986 0.0
C94 C 0.78602 0.01547 0.40742 0.0
C95 C 0.81164 0.04804 0.44948 0.0
C96 C 0.24926 0.53702 0.65398 0.0
C97 C 0.21745 0.56331 0.69621 0.0
C98 C 0.28577 0.49959 0.60864 0.0
C99 C 0.31144 0.46705 0.56658 0.0
C100 C 0.72988 0.99987 0.90744 0.0
C101 C 0.70423 0.96729 0.9495 0.0
C102 C 0.76644 0.03728 0.86212 0.0
C103 C 0.79833 0.0635 0.81989 0.0
C104 C 0.10869 0.22957 0.51602 0.0
C105 C 0.06664 0.2039 0.5486 0.0
C106 C 0.15396 0.26614 0.47855 0.0
C107 C 0.19616 0.29802 0.45226 0.0
C108 C 0.03724 0.86159 0.76674 0.0
C109 C 0.06354 0.81936 0.79854 0.0
C110 C 0.9998 0.90693 0.73025 0.0
C111 C 0.96727 0.949 0.70459 0.0
C112 C 0.36192 0.74904 0.97873 0.0
C113 C 0.31972 0.71719 0.9524 0.0
C114 C 0.40721 0.78558 0.0162 0.0
C115 C 0.44927 0.81125 0.04875 0.0
C116 C 0.47864 0.15357 0.26684 0.0
C117 C 0.45235 0.19581 0.29863 0.0
C118 C 0.51605 0.10823 0.23033 0.0
C119 C 0.54858 0.06617 0.20466 0.0
C120 C 0.65397 0.249 0.53749 0.0
C121 C 0.6962 0.21715 0.56373 0.0
C122 C 0.60863 0.28555 0.50011 0.0
C123 C 0.56656 0.31121 0.46758 0.0
C124 C 0.01601 0.40696 0.78584 0.0
C125 C 0.04853 0.44903 0.81155 0.0
C126 C 0.97862 0.36164 0.74928 0.0
C127 C 0.95236 0.31941 0.71744 0.0
C128 C 0.90729 0.72978 0.99997 0.0
C129 C 0.94934 0.70405 0.96747 0.0
C130 C 0.86197 0.76638 0.03734 0.0
C131 C 0.81976 0.79823 0.06361 0.0
C132 C 0.53746 0.65355 0.24934 0.0
C133 C 0.56372 0.69579 0.21749 0.0
C134 C 0.50003 0.60822 0.28589 0.0
C135 C 0.46748 0.56616 0.31156 0.0
loop_
_geom_bond_atom_site_label_1
_geom_bond_atom_site_label_2
_geom_bond_distance
_geom_bond_site_symmetry_2
_ccdc_geom_bond_type
Fe0 O2 1.918 . S
Fe0 O5 1.997 . S
Fe0 O6 2.002 . S
Fe0 O11 1.976 . S
Fe0 O14 1.996 . S
Fe1 O2 1.918 . S
Fe1 O9 1.997 . S
Fe1 O12 1.996 . S
Fe1 O16 1.976 . S
Fe1 O19 2.002 . S
O2 Fe0 1.918 . S
O2 Fe1 1.918 . S
O2 Fe3 1.918 . S
Fe3 O2 1.918 . S
Fe3 O4 2.002 . S
Fe3 O13 1.976 . S
Fe3 O17 1.996 . S
Fe3 O20 1.997 . S
O4 Fe3 2.002 . S
O4 C21 1.295 . S
O5 Fe0 1.997 . S
O5 C21 1.235 . S
O6 Fe0 2.002 . S
O6 C7 1.295 . S
C7 O6 1.295 . S
C7 O9 1.235 . S
C8 O13 1.287 . S
C8 O14 1.255 . S
O9 Fe1 1.997 . S
O9 C7 1.235 . S
C10 O16 1.287 . S
C10 O17 1.255 . S
O11 Fe0 1.976 . S
O11 C18 1.287 . S
O12 Fe1 1.996 . S
O12 C18 1.255 . S
O13 Fe3 1.976 . S
O13 C8 1.287 . S
O14 Fe0 1.996 . S
O14 C8 1.255 . S
C15 O19 1.295 . S
C15 O20 1.235 . S
O16 Fe1 1.976 . S
O16 C10 1.287 . S
O17 Fe3 1.996 . S
O17 C10 1.255 . S
C18 O11 1.287 . S
C18 O12 1.255 . S
O19 Fe1 2.002 . S
O19 C15 1.295 . S
O20 Fe3 1.997 . S
O20 C15 1.235 . S
C21 O4 1.295 . S
C21 O5 1.235 . S
Fe22 O24 1.918 . S
Fe22 O27 1.997 1_545 S
Fe22 O28 2.002 . S
Fe22 O33 1.976 . S
Fe22 O36 1.996 . S
Fe23 O24 1.918 . S
Fe23 O31 1.997 . S
Fe23 O34 1.996 . S
Fe23 O38 1.976 . S
Fe23 O41 2.002 . S
O24 Fe22 1.918 . S
O24 Fe23 1.918 . S
O24 Fe25 1.918 . S
Fe25 O24 1.918 . S
Fe25 O26 2.002 . S
Fe25 O35 1.976 . S
Fe25 O39 1.996 . S
Fe25 O42 1.997 1_655 S
O26 Fe25 2.002 . S
O26 C43 1.295 1_545 S
O27 Fe22 1.997 1_565 S
O27 C43 1.235 . S
O28 Fe22 2.002 . S
O28 C29 1.295 . S
C29 O28 1.295 . S
C29 O31 1.235 . S
C30 O35 1.287 . S
C30 O36 1.255 . S
O31 Fe23 1.997 . S
O31 C29 1.235 . S
C32 O38 1.287 . S
C32 O39 1.255 . S
O33 Fe22 1.976 . S
O33 C40 1.287 . S
O34 Fe23 1.996 . S
O34 C40 1.255 . S
O35 Fe25 1.976 . S
O35 C30 1.287 . S
O36 Fe22 1.996 . S
O36 C30 1.255 . S
C37 O41 1.295 1_455 S
C37 O42 1.235 . S
O38 Fe23 1.976 . S
O38 C32 1.287 . S
O39 Fe25 1.996 . S
O39 C32 1.255 . S
C40 O33 1.287 . S
C40 O34 1.255 . S
O41 Fe23 2.002 . S
O41 C37 1.295 1_655 S
O42 Fe25 1.997 1_455 S
O42 C37 1.235 . S
C43 O26 1.295 1_565 S
C43 O27 1.235 . S
Fe44 O46 1.918 . S
Fe44 O49 1.997 1_455 S
Fe44 O50 2.002 . S
Fe44 O55 1.976 . S
Fe44 O58 1.996 . S
Fe45 O46 1.918 . S
Fe45 O53 1.997 . S
Fe45 O56 1.996 . S
Fe45 O60 1.976 . S
Fe45 O63 2.002 . S
O46 Fe44 1.918 . S
O46 Fe45 1.918 . S
O46 Fe47 1.918 . S
Fe47 O46 1.918 . S
Fe47 O48 2.002 . S
Fe47 O57 1.976 . S
Fe47 O61 1.996 . S
Fe47 O64 1.997 1_556 S
O48 Fe47 2.002 . S
O48 C65 1.295 1_455 S
O49 Fe44 1.997 1_655 S
O49 C65 1.235 . S
O50 Fe44 2.002 . S
O50 C51 1.295 . S
C51 O50 1.295 . S
C51 O53 1.235 . S
C52 O57 1.287 . S
C52 O58 1.255 . S
O53 Fe45 1.997 . S
O53 C51 1.235 . S
C54 O60 1.287 . S
C54 O61 1.255 . S
O55 Fe44 1.976 . S
O55 C62 1.287 . S
O56 Fe45 1.996 . S
O56 C62 1.255 . S
O57 Fe47 1.976 . S
O57 C52 1.287 . S
O58 Fe44 1.996 . S
O58 C52 1.255 . S
C59 O63 1.295 1_554 S
C59 O64 1.235 . S
O60 Fe45 1.976 . S
O60 C54 1.287 . S
O61 Fe47 1.996 . S
O61 C54 1.255 . S
C62 O55 1.287 . S
C62 O56 1.255 . S
O63 Fe45 2.002 . S
O63 C59 1.295 1_556 S
O64 Fe47 1.997 1_554 S
O64 C59 1.235 . S
C65 O48 1.295 1_655 S
C65 O49 1.235 . S
Fe66 O68 1.918 . S
Fe66 O71 1.997 . S
Fe66 O72 2.002 . S
Fe66 O77 1.976 . S
Fe66 O80 1.996 . S
Fe67 O68 1.918 . S
Fe67 O75 1.997 1_565 S
Fe67 O78 1.996 . S
Fe67 O82 1.976 . S
Fe67 O85 2.002 . S
O68 Fe66 1.918 . S
O68 Fe67 1.918 . S
O68 Fe69 1.918 . S
Fe69 O68 1.918 . S
Fe69 O70 2.002 . S
Fe69 O79 1.976 . S
Fe69 O83 1.996 . S
Fe69 O86 1.997 1_554 S
O70 Fe69 2.002 . S
O70 C87 1.295 . S
O71 Fe66 1.997 . S
O71 C87 1.235 . S
O72 Fe66 2.002 . S
O72 C73 1.295 1_565 S
C73 O72 1.295 1_545 S
C73 O75 1.235 . S
C74 O79 1.287 . S
C74 O80 1.255 . S
O75 Fe67 1.997 1_545 S
O75 C73 1.235 . S
C76 O82 1.287 . S
C76 O83 1.255 . S
O77 Fe66 1.976 . S
O77 C84 1.287 . S
O78 Fe67 1.996 . S
O78 C84 1.255 . S
O79 Fe69 1.976 . S
O79 C74 1.287 . S
O80 Fe66 1.996 . S
O80 C74 1.255 . S
C81 O85 1.295 1_556 S
C81 O86 1.235 . S
O82 Fe67 1.976 . S
O82 C76 1.287 . S
O83 Fe69 1.996 . S
O83 C76 1.255 . S
C84 O77 1.287 . S
C84 O78 1.255 . S
O85 Fe67 2.002 . S
O85 C81 1.295 1_554 S
O86 Fe69 1.997 1_556 S
O86 C81 1.235 . S
C87 O70 1.295 . S
C87 O71 1.235 . S
C88 C89 1.170 . S
C88 C90 1.380 . S
C89 C88 1.170 . S
C90 C88 1.380 . S
C90 C91 1.170 . S
C91 C90 1.170 . S
C92 C93 1.170 . S
C92 C94 1.380 1_565 S
C93 C92 1.170 . S
C94 C92 1.380 1_545 S
C94 C95 1.170 . S
C95 C94 1.170 . S
C96 C97 1.170 . S
C96 C98 1.380 . S
C97 C96 1.170 . S
C98 C96 1.380 . S
C98 C99 1.170 . S
C99 C98 1.170 . S
C100 C101 1.170 . S
C100 C102 1.380 1_565 S
C101 C100 1.170 . S
C102 C100 1.380 1_545 S
C102 C103 1.170 . S
C103 C102 1.170 . S
C104 C105 1.170 . S
C104 C106 1.380 . S
C105 C104 1.170 . S
C106 C104 1.380 . S
C106 C107 1.170 . S
C107 C106 1.170 . S
C108 C109 1.170 . S
C108 C110 1.380 1_455 S
C109 C108 1.170 . S
C110 C108 1.380 1_655 S
C110 C111 1.170 . S
C111 C110 1.170 . S
C112 C113 1.170 . S
C112 C114 1.380 1_556 S
C113 C112 1.170 . S
C114 C112 1.380 1_554 S
C114 C115 1.170 . S
C115 C114 1.170 . S
C116 C117 1.170 . S
C116 C118 1.380 . S
C117 C116 1.170 . S
C118 C116 1.380 . S
C118 C119 1.170 . S
C119 C118 1.170 . S
C120 C121 1.170 . S
C120 C122 1.380 . S
C121 C120 1.170 . S
C122 C120 1.380 . S
C122 C123 1.170 . S
C123 C122 1.170 . S
C124 C125 1.170 . S
C124 C126 1.380 1_455 S
C125 C124 1.170 . S
C126 C124 1.380 1_655 S
C126 C127 1.170 . S
C127 C126 1.170 . S
C128 C129 1.170 . S
C128 C130 1.380 1_556 S
C129 C128 1.170 . S
C130 C128 1.380 1_554 S
C130 C131 1.170 . S
C131 C130 1.170 . S
C132 C133 1.170 . S
C132 C134 1.380 . S
C133 C132 1.170 . S
C134 C132 1.380 . S
C134 C135 1.170 . S
C135 C134 1.170 . S
C89 C59 1.463 . S
C91 C21 1.454 . S
C93 C84 1.420 . S
C95 C29 1.438 . S
C97 C62 1.409 . S
C99 C10 1.380 . S
C101 C81 1.400 . S
C103 C30 1.460 . S
C105 C37 1.491 . S
C107 C15 1.436 . S
C109 C52 1.432 . S
C111 C43 1.421 . S
C113 C54 1.431 . S
C115 C87 1.423 . S
C117 C7 1.454 . S
C119 C73 1.463 . S
C121 C40 1.413 . S
C123 C18 1.377 . S
C125 C51 1.438 . S
C127 C32 1.420 . S
C129 C65 1.430 . S
C131 C76 1.425 . S
C133 C74 1.408 . S
C135 C8 1.384 . S
