# Generated by pormake.
# Topology bcg, (8)-cn, num edge types: 1
# Building blocks:
#     Node 0, Type 0, BuildingBlock: EBIMEJ_clean_sbu_0, # of connection points: 8
#     Node 1, Type 0, BuildingBlock: EBIMEJ_clean_sbu_0, # of connection points: 8
#     Node 2, Type 0, BuildingBlock: EBIMEJ_clean_sbu_0, # of connection points: 8
#     Node 3, Type 0, BuildingBlock: EBIMEJ_clean_sbu_0, # of connection points: 8
#     Edge 4, Type (0, 0), BuildingBlock: EYOCIG_clean_linker_4, # of connection points: 2
#     Edge 5, Type (0, 0), BuildingBlock: EYOCIG_clean_linker_4, # of connection points: 2
#     Edge 6, Type (0, 0), BuildingBlock: EYOCIG_clean_linker_4, # of connection points: 2
#     Edge 7, Type (0, 0), BuildingBlock: EYOCIG_clean_linker_4, # of connection points: 2
#     Edge 8, Type (0, 0), BuildingBlock: EYOCIG_clean_linker_4, # of connection points: 2
#     Edge 9, Type (0, 0), BuildingBlock: EYOCIG_clean_linker_4, # of connection points: 2
#     Edge 10, Type (0, 0), BuildingBlock: EYOCIG_clean_linker_4, # of connection points: 2
#     Edge 11, Type (0, 0), BuildingBlock: EYOCIG_clean_linker_4, # of connection points: 2
#     Edge 12, Type (0, 0), BuildingBlock: EYOCIG_clean_linker_4, # of connection points: 2
#     Edge 13, Type (0, 0), BuildingBlock: EYOCIG_clean_linker_4, # of connection points: 2
#     Edge 14, Type (0, 0), BuildingBlock: EYOCIG_clean_linker_4, # of connection points: 2
#     Edge 15, Type (0, 0), BuildingBlock: EYOCIG_clean_linker_4, # of connection points: 2
#     Edge 16, Type (0, 0), BuildingBlock: EYOCIG_clean_linker_4, # of connection points: 2
#     Edge 17, Type (0, 0), BuildingBlock: EYOCIG_clean_linker_4, # of connection points: 2
#     Edge 18, Type (0, 0), BuildingBlock: EYOCIG_clean_linker_4, # of connection points: 2
#     Edge 19, Type (0, 0), BuildingBlock: EYOCIG_clean_linker_4, # of connection points: 2
# Relax obj value: 0.040
# Max RMSD: 0.091
# Mean RMSD: 0.091
data_MOF--net-bcg--node1-EBIMEJ_clean_sbu_0--edge1-EYOCIG_clean_linker_4
_symmetry_space_group_name_H-M    P1
_symmetry_Int_Tables_number       1
_symmetry_cell_setting            triclinic
loop_
_symmetry_equiv_pos_as_xyz
'x, y, z'
_cell_length_a     14.179681
_cell_length_b     22.4649
_cell_length_c     28.392608
_cell_angle_alpha  82.770646
_cell_angle_beta   90.001039
_cell_angle_gamma 89.99414
loop_
_atom_site_label
_atom_site_type_symbol
_atom_site_fract_x
_atom_site_fract_y
_atom_site_fract_z
_atom_type_partial_charge
Co0 Co 0.13182 0.24021 0.93312 0.0
Co1 Co 0.32733 0.25291 0.99474 0.0
Co2 Co 0.14038 0.25741 0.04288 0.0
H3 H 0.15855 0.25946 0.98749 0.0
O4 O 0.20144 0.2854 0.97824 0.0
H5 H 0.30918 0.25071 0.05013 0.0
O6 O 0.26624 0.22479 0.05937 0.0
Co7 Co 0.33608 0.26988 0.1045 0.0
O8 O 0.47128 0.26524 0.07967 0.0
O9 O 0.45399 0.22197 1.01334 0.0
O10 O 0.22144 0.27095 0.14837 0.0
O11 O 0.09531 0.24175 0.10918 0.0
O12 O 0.06385 0.20128 0.88094 0.0
O13 O 0.09686 0.29251 0.87051 0.0
O14 O 0.3512 0.35512 0.07622 0.0
O15 O 0.37095 0.33748 1.00126 0.0
C16 C 0.96268 0.26998 0.99237 0.0
C17 C 0.33287 0.25448 0.89121 0.0
C18 C 0.40922 0.26038 0.18415 0.0
C19 C 0.09269 0.13818 1.00413 0.0
C20 C 0.50522 0.24117 0.04496 0.0
C21 C 0.13511 0.25538 0.14653 0.0
C22 C 0.05929 0.24935 0.85337 0.0
C23 C 0.37364 0.37223 0.03357 0.0
O24 O -0.00344 0.2459 0.95764 0.0
O25 O 0.01386 0.28858 0.02428 0.0
O26 O 0.37239 0.26869 0.92845 0.0
O27 O 0.2467 0.23852 0.88947 0.0
O28 O 0.40493 0.30848 0.1566 0.0
O29 O 0.3711 0.21738 0.16704 0.0
O30 O 0.11496 0.15514 0.96143 0.0
O31 O 0.09622 0.17292 0.03643 0.0
Co32 Co 0.63132 0.74077 0.93297 0.0
Co33 Co 0.82692 0.75314 0.99458 0.0
Co34 Co 0.64003 0.75744 0.04281 0.0
H35 H 0.65814 0.75976 0.9874 0.0
O36 O 0.70104 0.78573 0.9782 0.0
H37 H 0.80883 0.7507 0.05 0.0
O38 O 0.7659 0.72475 0.05918 0.0
Co39 Co 0.83578 0.76961 0.10445 0.0
O40 O 0.97092 0.76504 0.07955 0.0
O41 O 0.95358 0.7221 1.01307 0.0
O42 O 0.72123 0.77019 0.14842 0.0
O43 O 0.59499 0.74144 0.10908 0.0
O44 O 0.56373 0.70205 0.88058 0.0
O45 O 0.59587 0.79342 0.8706 0.0
O46 O 0.85102 0.85492 0.07638 0.0
O47 O 0.87065 0.83762 1.00133 0.0
C48 C 0.46228 0.77029 0.99236 0.0
C49 C 0.8323 0.75514 0.891 0.0
C50 C 0.90901 0.76002 0.18409 0.0
C51 C 0.59216 0.63846 1.00371 0.0
C52 C 0.00483 0.74113 0.04475 0.0
C53 C 0.63488 0.7547 0.14653 0.0
C54 C 0.5587 0.7503 0.85325 0.0
C55 C 0.87344 0.8722 0.03375 0.0
O56 O 0.49611 0.74639 0.95753 0.0
O57 O 0.5135 0.7887 0.02433 0.0
O58 O 0.87191 0.76918 0.92828 0.0
O59 O 0.74613 0.73921 0.88925 0.0
O60 O 0.90477 0.80813 0.15655 0.0
O61 O 0.87079 0.71706 0.16697 0.0
O62 O 0.61424 0.65562 0.96102 0.0
O63 O 0.59587 0.67302 0.03613 0.0
Co64 Co 0.13153 0.76968 0.60444 0.0
Co65 Co 0.32724 0.7573 0.54285 0.0
Co66 Co 0.14034 0.75276 0.49466 0.0
H67 H 0.15846 0.75053 0.55006 0.0
O68 O 0.20142 0.72462 0.55929 0.0
H69 H 0.30914 0.7594 0.48745 0.0
O70 O 0.2662 0.78531 0.4782 0.0
Co71 Co 0.33604 0.74025 0.43307 0.0
O72 O 0.47122 0.74603 0.45762 0.0
O73 O 0.45373 0.78856 0.52431 0.0
O74 O 0.22128 0.73905 0.38926 0.0
O75 O 0.09528 0.76859 0.42837 0.0
O76 O 0.06322 0.80824 0.65672 0.0
O77 O 0.09588 0.71697 0.66678 0.0
O78 O 0.35332 0.65518 0.46132 0.0
O79 O 0.37149 0.67282 0.53639 0.0
C80 C 0.96245 0.74107 0.54483 0.0
C81 C 0.33243 0.75523 0.64649 0.0
C82 C 0.40871 0.74936 0.35336 0.0
C83 C 0.094 0.87203 0.53352 0.0
C84 C 0.50499 0.77009 0.49238 0.0
C85 C 0.13503 0.75481 0.39104 0.0
C86 C 0.05832 0.76001 0.68408 0.0
C87 C 0.37531 0.63815 0.50404 0.0
O88 O -0.00362 0.76515 0.57954 0.0
O89 O 0.01369 0.7218 0.51324 0.0
O90 O 0.37225 0.7416 0.60914 0.0
O91 O 0.24611 0.77081 0.64832 0.0
O92 O 0.40409 0.70129 0.38093 0.0
O93 O 0.3711 0.79253 0.37047 0.0
O94 O 0.11654 0.85493 0.57616 0.0
O95 O 0.09663 0.83728 0.50121 0.0
Co96 Co 0.63188 0.26907 0.60469 0.0
Co97 Co 0.82747 0.25689 0.54297 0.0
Co98 Co 0.64055 0.25275 0.49476 0.0
H99 H 0.65868 0.25026 0.55019 0.0
O100 O 0.70159 0.22428 0.55933 0.0
H101 H 0.80934 0.25939 0.48755 0.0
O102 O 0.76643 0.28538 0.4784 0.0
Co103 Co 0.83623 0.24054 0.43309 0.0
O104 O 0.97142 0.24519 0.45793 0.0
O105 O 0.95411 0.28795 0.5245 0.0
O106 O 0.72151 0.23956 0.38925 0.0
O107 O 0.59551 0.26889 0.42847 0.0
O108 O 0.56399 0.30757 0.65713 0.0
O109 O 0.59663 0.21628 0.66705 0.0
O110 O 0.85264 0.15528 0.46103 0.0
O111 O 0.87125 0.17244 0.53619 0.0
C112 C 0.4628 0.23988 0.54522 0.0
C113 C 0.8329 0.25441 0.64661 0.0
C114 C 0.90904 0.25035 0.35338 0.0
C115 C 0.59333 0.37166 0.53409 0.0
C116 C 0.00534 0.26901 0.49277 0.0
C117 C 0.63524 0.25528 0.39108 0.0
C118 C 0.5592 0.2593 0.68444 0.0
C119 C 0.87467 0.13796 0.50371 0.0
O120 O 0.49666 0.26367 0.5801 0.0
O121 O 0.51398 0.22154 0.51321 0.0
O122 O 0.87252 0.24071 0.60923 0.0
O123 O 0.74668 0.27022 0.64846 0.0
O124 O 0.90437 0.20209 0.38071 0.0
O125 O 0.87144 0.29334 0.37073 0.0
O126 O 0.61555 0.35434 0.57674 0.0
O127 O 0.5966 0.33717 0.5016 0.0
C128 C 0.68633 0.25202 0.02533 0.0
C129 C 0.60392 0.24763 0.03522 0.0
C130 C 0.78125 0.26027 1.01145 0.0
C131 C 0.86379 0.26413 1.00178 0.0
C132 C 0.18592 0.75215 0.02517 0.0
C133 C 0.1035 0.74767 0.03501 0.0
C134 C 0.28085 0.76052 1.01137 0.0
C135 C 0.36341 0.76443 1.00175 0.0
C136 C 0.68645 0.76053 0.51138 0.0
C137 C 0.60388 0.76435 0.50178 0.0
C138 C 0.78139 0.7522 0.52518 0.0
C139 C 0.8638 0.74766 0.53504 0.0
C140 C 0.18644 0.258 0.51236 0.0
C141 C 0.10403 0.26247 0.50249 0.0
C142 C 0.28136 0.24966 0.5262 0.0
C143 C 0.36391 0.24575 0.53585 0.0
C144 C 0.50703 0.53307 1.01739 0.0
C145 C 0.5454 0.58143 1.01334 0.0
C146 C 0.4581 0.47784 0.0199 0.0
C147 C 0.42005 0.42937 0.02397 0.0
C148 C 0.50894 0.47734 0.52054 0.0
C149 C 0.54698 0.42886 0.52457 0.0
C150 C 0.46017 0.53265 0.51798 0.0
C151 C 0.42191 0.58107 0.51384 0.0
C152 C 0.0073 0.03289 1.0179 0.0
C153 C 0.04578 0.08122 1.01385 0.0
C154 C 0.95821 0.97773 0.02034 0.0
C155 C 0.92001 0.92931 0.0243 0.0
C156 C 0.95989 0.0326 0.51728 0.0
C157 C 0.92146 0.08094 0.51323 0.0
C158 C 0.00906 0.97747 0.51983 0.0
C159 C 0.04733 0.92908 0.52394 0.0
C160 C 0.5363 0.25583 0.31226 0.0
C161 C 0.57961 0.25601 0.34878 0.0
C162 C 0.4893 0.2551 0.26849 0.0
C163 C 0.45214 0.25581 0.23023 0.0
C164 C 0.53589 0.75387 0.22533 0.0
C165 C 0.57929 0.75384 0.18883 0.0
C166 C 0.4888 0.75449 0.26907 0.0
C167 C 0.45168 0.75378 0.30732 0.0
C168 C 0.43147 0.75491 0.72524 0.0
C169 C 0.38805 0.75465 0.68877 0.0
C170 C 0.47859 0.75567 0.76895 0.0
C171 C 0.51573 0.75493 0.8072 0.0
C172 C 0.43203 0.25454 0.81251 0.0
C173 C 0.38857 0.25494 0.84896 0.0
C174 C 0.47915 0.25375 0.76879 0.0
C175 C 0.51629 0.25454 0.73052 0.0
C176 C 0.03615 0.75528 0.3122 0.0
C177 C 0.07946 0.75549 0.34872 0.0
C178 C -0.01086 0.75461 0.26842 0.0
C179 C 0.95196 0.75539 0.23016 0.0
C180 C -0.01095 0.25588 0.26903 0.0
C181 C 0.95193 0.25511 0.3073 0.0
C182 C 0.0361 0.25511 0.22529 0.0
C183 C 0.07949 0.25482 0.18881 0.0
C184 C 0.97924 0.25447 0.76906 0.0
C185 C 0.01636 0.25379 0.80732 0.0
C186 C 0.9321 0.25379 0.72534 0.0
C187 C 0.88862 0.25365 0.68887 0.0
C188 C 0.9782 0.7546 0.76842 0.0
C189 C 0.01536 0.75534 0.73015 0.0
C190 C 0.93123 0.75537 0.81219 0.0
C191 C 0.88792 0.7557 0.8487 0.0
loop_
_geom_bond_atom_site_label_1
_geom_bond_atom_site_label_2
_geom_bond_distance
_geom_bond_site_symmetry_2
_ccdc_geom_bond_type
Co0 H3 2.400 . S
Co0 O4 2.009 . S
Co0 O12 2.115 . S
Co0 O13 2.315 . S
Co0 O24 2.053 1_455 S
Co0 O27 2.094 . S
Co0 O30 2.122 . S
Co1 O4 2.126 . S
Co1 H5 2.388 1_556 S
Co1 O6 2.053 1_556 S
Co1 O9 2.047 . S
Co1 O15 2.113 . S
Co1 O26 2.063 . S
Co2 H3 2.388 1_554 S
Co2 O4 2.053 1_554 S
Co2 O6 2.126 . S
Co2 O11 2.063 . S
Co2 O25 2.047 . S
Co2 O31 2.113 . S
H3 Co0 2.400 . S
H3 Co2 2.388 1_556 S
H3 O4 0.760 . S
O4 Co0 2.009 . S
O4 Co1 2.126 . S
O4 Co2 2.053 1_556 S
O4 H3 0.760 . S
H5 Co1 2.388 1_554 S
H5 O6 0.760 . S
H5 Co7 2.400 . S
O6 Co1 2.053 1_554 S
O6 Co2 2.126 . S
O6 H5 0.760 . S
O6 Co7 2.009 . S
Co7 H5 2.400 . S
Co7 O6 2.009 . S
Co7 O8 2.053 . S
Co7 O10 2.094 . S
Co7 O14 2.122 . S
Co7 O28 2.115 . S
Co7 O29 2.315 . S
O8 Co7 2.053 . S
O8 C20 1.259 . S
O9 Co1 2.047 . S
O9 C20 1.257 1_556 S
O10 Co7 2.094 . S
O10 C21 1.253 . S
O11 Co2 2.063 . S
O11 C21 1.268 . S
O12 Co0 2.115 . S
O12 C22 1.281 . S
O13 Co0 2.315 . S
O13 C22 1.252 . S
O14 Co7 2.122 . S
O14 C23 1.272 . S
O15 Co1 2.113 . S
O15 C23 1.245 1_556 S
C16 O24 1.259 . S
C16 O25 1.257 1_656 S
C17 O26 1.268 . S
C17 O27 1.253 . S
C18 O28 1.281 . S
C18 O29 1.252 . S
C19 O30 1.272 . S
C19 O31 1.245 1_556 S
C20 O8 1.259 . S
C20 O9 1.257 1_554 S
C21 O10 1.253 . S
C21 O11 1.268 . S
C22 O12 1.281 . S
C22 O13 1.252 . S
C23 O14 1.272 . S
C23 O15 1.245 1_554 S
O24 Co0 2.053 1_655 S
O24 C16 1.259 . S
O25 Co2 2.047 . S
O25 C16 1.257 1_454 S
O26 Co1 2.063 . S
O26 C17 1.268 . S
O27 Co0 2.094 . S
O27 C17 1.253 . S
O28 Co7 2.115 . S
O28 C18 1.281 . S
O29 Co7 2.315 . S
O29 C18 1.252 . S
O30 Co0 2.122 . S
O30 C19 1.272 . S
O31 Co2 2.113 . S
O31 C19 1.245 1_554 S
Co32 H35 2.400 . S
Co32 O36 2.009 . S
Co32 O44 2.115 . S
Co32 O45 2.315 . S
Co32 O56 2.053 . S
Co32 O59 2.094 . S
Co32 O62 2.122 . S
Co33 O36 2.126 . S
Co33 H37 2.388 1_556 S
Co33 O38 2.053 1_556 S
Co33 O41 2.047 . S
Co33 O47 2.113 . S
Co33 O58 2.063 . S
Co34 H35 2.388 1_554 S
Co34 O36 2.053 1_554 S
Co34 O38 2.126 . S
Co34 O43 2.063 . S
Co34 O57 2.047 . S
Co34 O63 2.113 . S
H35 Co32 2.400 . S
H35 Co34 2.388 1_556 S
H35 O36 0.760 . S
O36 Co32 2.009 . S
O36 Co33 2.126 . S
O36 Co34 2.053 1_556 S
O36 H35 0.760 . S
H37 Co33 2.388 1_554 S
H37 O38 0.760 . S
H37 Co39 2.400 . S
O38 Co33 2.053 1_554 S
O38 Co34 2.126 . S
O38 H37 0.760 . S
O38 Co39 2.009 . S
Co39 H37 2.400 . S
Co39 O38 2.009 . S
Co39 O40 2.053 1_655 S
Co39 O42 2.094 . S
Co39 O46 2.122 . S
Co39 O60 2.115 . S
Co39 O61 2.315 . S
O40 Co39 2.053 1_455 S
O40 C52 1.259 . S
O41 Co33 2.047 . S
O41 C52 1.257 1_656 S
O42 Co39 2.094 . S
O42 C53 1.253 . S
O43 Co34 2.063 . S
O43 C53 1.268 . S
O44 Co32 2.115 . S
O44 C54 1.281 . S
O45 Co32 2.315 . S
O45 C54 1.252 . S
O46 Co39 2.122 . S
O46 C55 1.272 . S
O47 Co33 2.113 . S
O47 C55 1.245 1_556 S
C48 O56 1.259 . S
C48 O57 1.257 1_556 S
C49 O58 1.268 . S
C49 O59 1.253 . S
C50 O60 1.281 . S
C50 O61 1.252 . S
C51 O62 1.272 . S
C51 O63 1.245 1_556 S
C52 O40 1.259 . S
C52 O41 1.257 1_454 S
C53 O42 1.253 . S
C53 O43 1.268 . S
C54 O44 1.281 . S
C54 O45 1.252 . S
C55 O46 1.272 . S
C55 O47 1.245 1_554 S
O56 Co32 2.053 . S
O56 C48 1.259 . S
O57 Co34 2.047 . S
O57 C48 1.257 1_554 S
O58 Co33 2.063 . S
O58 C49 1.268 . S
O59 Co32 2.094 . S
O59 C49 1.253 . S
O60 Co39 2.115 . S
O60 C50 1.281 . S
O61 Co39 2.315 . S
O61 C50 1.252 . S
O62 Co32 2.122 . S
O62 C51 1.272 . S
O63 Co34 2.113 . S
O63 C51 1.245 1_554 S
Co64 H67 2.400 . S
Co64 O68 2.009 . S
Co64 O76 2.115 . S
Co64 O77 2.315 . S
Co64 O88 2.053 1_455 S
Co64 O91 2.094 . S
Co64 O94 2.122 . S
Co65 O68 2.126 . S
Co65 H69 2.388 . S
Co65 O70 2.053 . S
Co65 O73 2.047 . S
Co65 O79 2.113 . S
Co65 O90 2.063 . S
Co66 H67 2.388 . S
Co66 O68 2.053 . S
Co66 O70 2.126 . S
Co66 O75 2.063 . S
Co66 O89 2.047 . S
Co66 O95 2.113 . S
H67 Co64 2.400 . S
H67 Co66 2.388 . S
H67 O68 0.760 . S
O68 Co64 2.009 . S
O68 Co65 2.126 . S
O68 Co66 2.053 . S
O68 H67 0.760 . S
H69 Co65 2.388 . S
H69 O70 0.760 . S
H69 Co71 2.400 . S
O70 Co65 2.053 . S
O70 Co66 2.126 . S
O70 H69 0.760 . S
O70 Co71 2.009 . S
Co71 H69 2.400 . S
Co71 O70 2.009 . S
Co71 O72 2.053 . S
Co71 O74 2.094 . S
Co71 O78 2.122 . S
Co71 O92 2.115 . S
Co71 O93 2.315 . S
O72 Co71 2.053 . S
O72 C84 1.259 . S
O73 Co65 2.047 . S
O73 C84 1.257 . S
O74 Co71 2.094 . S
O74 C85 1.253 . S
O75 Co66 2.063 . S
O75 C85 1.268 . S
O76 Co64 2.115 . S
O76 C86 1.281 . S
O77 Co64 2.315 . S
O77 C86 1.252 . S
O78 Co71 2.122 . S
O78 C87 1.272 . S
O79 Co65 2.113 . S
O79 C87 1.245 . S
C80 O88 1.259 . S
C80 O89 1.257 1_655 S
C81 O90 1.268 . S
C81 O91 1.253 . S
C82 O92 1.281 . S
C82 O93 1.252 . S
C83 O94 1.272 . S
C83 O95 1.245 . S
C84 O72 1.259 . S
C84 O73 1.257 . S
C85 O74 1.253 . S
C85 O75 1.268 . S
C86 O76 1.281 . S
C86 O77 1.252 . S
C87 O78 1.272 . S
C87 O79 1.245 . S
O88 Co64 2.053 1_655 S
O88 C80 1.259 . S
O89 Co66 2.047 . S
O89 C80 1.257 1_455 S
O90 Co65 2.063 . S
O90 C81 1.268 . S
O91 Co64 2.094 . S
O91 C81 1.253 . S
O92 Co71 2.115 . S
O92 C82 1.281 . S
O93 Co71 2.315 . S
O93 C82 1.252 . S
O94 Co64 2.122 . S
O94 C83 1.272 . S
O95 Co66 2.113 . S
O95 C83 1.245 . S
Co96 H99 2.400 . S
Co96 O100 2.009 . S
Co96 O108 2.115 . S
Co96 O109 2.315 . S
Co96 O120 2.053 . S
Co96 O123 2.094 . S
Co96 O126 2.122 . S
Co97 O100 2.126 . S
Co97 H101 2.388 . S
Co97 O102 2.053 . S
Co97 O105 2.047 . S
Co97 O111 2.113 . S
Co97 O122 2.063 . S
Co98 H99 2.388 . S
Co98 O100 2.053 . S
Co98 O102 2.126 . S
Co98 O107 2.063 . S
Co98 O121 2.047 . S
Co98 O127 2.113 . S
H99 Co96 2.400 . S
H99 Co98 2.388 . S
H99 O100 0.760 . S
O100 Co96 2.009 . S
O100 Co97 2.126 . S
O100 Co98 2.053 . S
O100 H99 0.760 . S
H101 Co97 2.388 . S
H101 O102 0.760 . S
H101 Co103 2.400 . S
O102 Co97 2.053 . S
O102 Co98 2.126 . S
O102 H101 0.760 . S
O102 Co103 2.009 . S
Co103 H101 2.400 . S
Co103 O102 2.009 . S
Co103 O104 2.053 1_655 S
Co103 O106 2.094 . S
Co103 O110 2.122 . S
Co103 O124 2.115 . S
Co103 O125 2.315 . S
O104 Co103 2.053 1_455 S
O104 C116 1.259 . S
O105 Co97 2.047 . S
O105 C116 1.257 1_655 S
O106 Co103 2.094 . S
O106 C117 1.253 . S
O107 Co98 2.063 . S
O107 C117 1.268 . S
O108 Co96 2.115 . S
O108 C118 1.281 . S
O109 Co96 2.315 . S
O109 C118 1.252 . S
O110 Co103 2.122 . S
O110 C119 1.272 . S
O111 Co97 2.113 . S
O111 C119 1.245 . S
C112 O120 1.259 . S
C112 O121 1.257 . S
C113 O122 1.268 . S
C113 O123 1.253 . S
C114 O124 1.281 . S
C114 O125 1.252 . S
C115 O126 1.272 . S
C115 O127 1.245 . S
C116 O104 1.259 . S
C116 O105 1.257 1_455 S
C117 O106 1.253 . S
C117 O107 1.268 . S
C118 O108 1.281 . S
C118 O109 1.252 . S
C119 O110 1.272 . S
C119 O111 1.245 . S
O120 Co96 2.053 . S
O120 C112 1.259 . S
O121 Co98 2.047 . S
O121 C112 1.257 . S
O122 Co97 2.063 . S
O122 C113 1.268 . S
O123 Co96 2.094 . S
O123 C113 1.253 . S
O124 Co103 2.115 . S
O124 C114 1.281 . S
O125 Co103 2.315 . S
O125 C114 1.252 . S
O126 Co96 2.122 . S
O126 C115 1.272 . S
O127 Co98 2.113 . S
O127 C115 1.245 . S
C128 C129 1.170 . S
C128 C130 1.380 1_554 S
C129 C128 1.170 . S
C130 C128 1.380 1_556 S
C130 C131 1.170 . S
C131 C130 1.170 . S
C132 C133 1.170 . S
C132 C134 1.380 1_554 S
C133 C132 1.170 . S
C134 C132 1.380 1_556 S
C134 C135 1.170 . S
C135 C134 1.170 . S
C136 C137 1.170 . S
C136 C138 1.380 . S
C137 C136 1.170 . S
C138 C136 1.380 . S
C138 C139 1.170 . S
C139 C138 1.170 . S
C140 C141 1.170 . S
C140 C142 1.380 . S
C141 C140 1.170 . S
C142 C140 1.380 . S
C142 C143 1.170 . S
C143 C142 1.170 . S
C144 C145 1.170 . S
C144 C146 1.380 . S
C145 C144 1.170 . S
C146 C144 1.380 . S
C146 C147 1.167 1_554 S
C147 C146 1.167 1_556 S
C148 C149 1.170 . S
C148 C150 1.380 . S
C149 C148 1.170 . S
C150 C148 1.380 . S
C150 C151 1.170 . S
C151 C150 1.170 . S
C152 C153 1.171 . S
C152 C154 1.380 1_445 S
C153 C152 1.171 . S
C154 C152 1.380 1_665 S
C154 C155 1.170 . S
C155 C154 1.170 . S
C156 C157 1.170 . S
C156 C158 1.380 1_645 S
C157 C156 1.170 . S
C158 C156 1.380 1_465 S
C158 C159 1.170 . S
C159 C158 1.170 . S
C160 C161 1.170 . S
C160 C162 1.380 . S
C161 C160 1.170 . S
C162 C160 1.380 . S
C162 C163 1.170 . S
C163 C162 1.170 . S
C164 C165 1.170 . S
C164 C166 1.380 . S
C165 C164 1.170 . S
C166 C164 1.380 . S
C166 C167 1.170 . S
C167 C166 1.170 . S
C168 C169 1.170 . S
C168 C170 1.380 . S
C169 C168 1.170 . S
C170 C168 1.380 . S
C170 C171 1.170 . S
C171 C170 1.170 . S
C172 C173 1.170 . S
C172 C174 1.380 . S
C173 C172 1.170 . S
C174 C172 1.380 . S
C174 C175 1.170 . S
C175 C174 1.170 . S
C176 C177 1.170 . S
C176 C178 1.380 . S
C177 C176 1.170 . S
C178 C176 1.380 . S
C178 C179 1.170 1_455 S
C179 C178 1.170 1_655 S
C180 C181 1.170 1_455 S
C180 C182 1.380 . S
C181 C180 1.170 1_655 S
C182 C180 1.380 . S
C182 C183 1.170 . S
C183 C182 1.170 . S
C184 C185 1.170 1_655 S
C184 C186 1.380 . S
C185 C184 1.170 1_455 S
C186 C184 1.380 . S
C186 C187 1.170 . S
C187 C186 1.170 . S
C188 C189 1.170 1_655 S
C188 C190 1.380 . S
C189 C188 1.170 1_455 S
C190 C188 1.380 . S
C190 C191 1.170 . S
C191 C190 1.170 . S
C129 C20 1.041 . S
C131 C16 1.059 . S
C133 C52 1.043 . S
C135 C48 1.059 . S
C137 C84 1.057 . S
C139 C80 1.040 . S
C141 C116 1.052 . S
C143 C112 1.054 . S
C145 C51 1.435 1_554 S
C147 C23 1.456 1_556 S
C149 C115 1.471 . S
C151 C87 1.437 . S
C153 C19 1.431 . S
C155 C55 1.471 1_556 S
C157 C119 1.440 . S
C159 C83 1.470 . S
C161 C117 1.669 . S
C163 C18 1.641 . S
C165 C53 1.666 . S
C167 C82 1.647 . S
C169 C81 1.666 . S
C171 C54 1.650 . S
C173 C17 1.665 . S
C175 C118 1.650 . S
C177 C85 1.669 . S
C179 C50 1.640 . S
C181 C114 1.650 . S
C183 C21 1.661 . S
C185 C22 1.635 . S
C187 C113 1.670 . S
C189 C86 1.625 . S
C191 C49 1.673 . S
