# Generated by pormake.
# Topology reo, (8)-cn, num edge types: 1
# Building blocks:
#     Node 0, Type 0, BuildingBlock: TAGTUT_clean_sbu_1, # of connection points: 8
#     Node 1, Type 0, BuildingBlock: TAGTUT_clean_sbu_1, # of connection points: 8
#     Node 2, Type 0, BuildingBlock: TAGTUT_clean_sbu_1, # of connection points: 8
#     Edge 3, Type (0, 0), BuildingBlock: EYOCIG_clean_linker_4, # of connection points: 2
#     Edge 4, Type (0, 0), BuildingBlock: EYOCIG_clean_linker_4, # of connection points: 2
#     Edge 5, Type (0, 0), BuildingBlock: EYOCIG_clean_linker_4, # of connection points: 2
#     Edge 6, Type (0, 0), BuildingBlock: EYOCIG_clean_linker_4, # of connection points: 2
#     Edge 7, Type (0, 0), BuildingBlock: EYOCIG_clean_linker_4, # of connection points: 2
#     Edge 8, Type (0, 0), BuildingBlock: EYOCIG_clean_linker_4, # of connection points: 2
#     Edge 9, Type (0, 0), BuildingBlock: EYOCIG_clean_linker_4, # of connection points: 2
#     Edge 10, Type (0, 0), BuildingBlock: EYOCIG_clean_linker_4, # of connection points: 2
#     Edge 11, Type (0, 0), BuildingBlock: EYOCIG_clean_linker_4, # of connection points: 2
#     Edge 12, Type (0, 0), BuildingBlock: EYOCIG_clean_linker_4, # of connection points: 2
#     Edge 13, Type (0, 0), BuildingBlock: EYOCIG_clean_linker_4, # of connection points: 2
#     Edge 14, Type (0, 0), BuildingBlock: EYOCIG_clean_linker_4, # of connection points: 2
# Relax obj value: 0.212
# Max RMSD: 0.238
# Mean RMSD: 0.180
data_MOF--net-reo--node1-TAGTUT_clean_sbu_1--edge1-EYOCIG_clean_linker_4
_symmetry_space_group_name_H-M    P1
_symmetry_Int_Tables_number       1
_symmetry_cell_setting            triclinic
loop_
_symmetry_equiv_pos_as_xyz
'x, y, z'
_cell_length_a     16.715204
_cell_length_b     19.864934
_cell_length_c     23.811232
_cell_angle_alpha  90.379121
_cell_angle_beta   88.417389
_cell_angle_gamma 91.142495
loop_
_atom_site_label
_atom_site_type_symbol
_atom_site_fract_x
_atom_site_fract_y
_atom_site_fract_z
_atom_type_partial_charge
C0 C 0.03575 0.74935 0.53909 0.0
C1 C 0.97236 0.78826 0.36338 0.0
C2 C 0.1735 -0.00779 0.36541 0.0
Mg3 Mg 0.92054 0.8405 0.47756 0.0
O4 O 0.01378 0.89383 0.48172 0.0
Mg5 Mg 0.11396 0.86046 0.44489 0.0
Mg6 Mg 1.0092 0.98199 0.44636 0.0
O7 O 1.00426 0.07003 0.4109 0.0
Mg8 Mg 0.09672 0.12421 0.41436 0.0
Mg9 Mg 0.90317 0.10315 0.44663 0.0
C10 C 0.84526 0.97236 0.52775 0.0
C11 C 0.8609 0.97961 0.36177 0.0
O12 O 0.09661 0.77356 0.511 0.0
O13 O 0.96368 0.76592 0.53091 0.0
O14 O 0.04458 0.80038 0.37737 0.0
O15 O 0.91212 0.80452 0.39388 0.0
O16 O 0.83785 0.90929 0.51722 0.0
O17 O 0.90288 0.00872 0.50623 0.0
C18 C 0.15781 -0.01705 0.53061 0.0
O19 O 0.0991 0.01597 0.51233 0.0
O20 O 0.17588 0.92477 0.5114 0.0
O21 O 0.91971 0.18868 0.37926 0.0
O22 O 0.05267 0.19687 0.35958 0.0
O23 O 0.97105 0.16513 0.51373 0.0
C24 C 0.98046 0.21257 0.35087 0.0
O25 O 0.10367 0.16181 0.49769 0.0
O26 O 0.18044 0.05536 0.37575 0.0
C27 C 0.04303 0.17814 0.52779 0.0
O28 O 0.11552 0.95589 0.38656 0.0
O29 O 0.91996 0.94743 0.38034 0.0
O30 O 0.84197 0.03768 0.38065 0.0
C31 C 0.62585 0.94329 0.14858 0.0
C32 C 0.38634 -0.00723 0.12629 0.0
C33 C 0.41178 0.83955 0.93023 0.0
Mg34 Mg 0.54412 0.04651 0.07358 0.0
O35 O 0.55095 0.97374 0.02354 0.0
Mg36 Mg 0.50135 0.88559 0.04826 0.0
Mg37 Mg 0.50973 -0.01751 -0.05371 0.0
O38 O 0.4685 -0.00904 0.86905 0.0
Mg39 Mg 0.47709 0.91777 0.81945 0.0
Mg40 Mg 0.51817 0.07899 0.84419 0.0
C41 C 0.60814 0.12516 -0.03749 0.0
C42 C 0.38923 0.11324 0.94436 0.0
O43 O 0.58656 0.89483 0.12505 0.0
O44 O 0.62079 0.00498 0.13421 0.0
O45 O 0.40492 0.9358 0.10509 0.0
O46 O 0.4267 0.04654 0.11502 0.0
O47 O 0.59311 0.12273 0.0157 0.0
O48 O 0.59086 0.07629 0.92854 0.0
C49 C 0.63021 0.8517 -0.05202 0.0
O50 O 0.60933 0.90371 0.9202 0.0
O51 O 0.59804 0.83665 -0.0045 0.0
O52 O 0.43324 0.06878 0.76709 0.0
O53 O 0.40108 0.95822 0.7579 0.0
O54 O 0.61517 0.02892 0.78798 0.0
C55 C 0.39504 0.01978 0.74341 0.0
O56 O 0.59533 0.91788 0.77923 0.0
O57 O 0.42757 0.84156 0.87712 0.0
C58 C 0.635 0.97187 0.76761 0.0
O59 O 0.42866 0.88871 -0.03601 0.0
O60 O 0.41024 0.0614 -0.02768 0.0
O61 O 0.42119 0.12802 0.8967 0.0
C62 C 0.05907 0.38322 0.74466 0.0
C63 C 1.0018 0.58496 0.7777 0.0
C64 C 0.1778 0.56959 -0.03707 0.0
Mg65 Mg 0.93532 0.45373 0.82277 0.0
O66 O 0.02152 0.4445 0.87019 0.0
Mg67 Mg 0.12789 0.48426 0.84682 0.0
Mg68 Mg 0.00972 0.48249 -0.05365 0.0
O69 O 0.99799 0.52045 0.02253 0.0
Mg70 Mg 0.08409 0.51117 0.07012 0.0
Mg71 Mg 0.89148 0.48075 0.04571 0.0
C72 C 0.84161 0.39537 0.92979 0.0
C73 C 0.8642 0.59211 -0.0513 0.0
O74 O 0.11763 0.41264 0.76948 0.0
O75 O 0.98543 0.39176 0.75823 0.0
O76 O 0.06965 0.56518 0.79369 0.0
O77 O 0.9363 0.55453 0.79124 0.0
O78 O 0.84364 0.40795 0.87705 0.0
O79 O 0.8972 0.41567 -0.03729 0.0
C80 C 0.15548 0.3731 0.94402 0.0
O81 O 0.09419 0.39539 -0.02848 0.0
O82 O 0.18013 0.39956 0.89779 0.0
O83 O 0.90156 0.55237 0.12287 0.0
O84 O 0.03365 0.57344 0.13444 0.0
O85 O 0.94938 0.39942 0.09836 0.0
C86 C 0.95991 0.58204 0.1477 0.0
O87 O 0.08271 0.41004 0.10128 0.0
O88 O 0.17577 0.55702 0.01569 0.0
C89 C 0.01715 0.37929 0.11417 0.0
O90 O 0.12218 0.5492 0.93005 0.0
O91 O 0.92538 0.56969 0.92118 0.0
O92 O 0.83945 0.56564 -0.0051 0.0
C93 C 0.99991 0.30112 0.20174 0.0
C94 C 0.01532 0.33592 0.16168 0.0
C95 C 0.97865 0.27216 0.25392 0.0
C96 C 0.96873 0.24621 0.29909 0.0
C97 C 0.77584 0.93616 0.27694 0.0
C98 C 0.81737 0.95236 0.31552 0.0
C99 C 0.72409 0.92734 0.23156 0.0
C100 C 0.67808 0.92906 0.19355 0.0
C101 C 0.94766 0.71721 0.27215 0.0
C102 C 0.95853 0.74971 0.31391 0.0
C103 C 0.94045 0.67189 0.22722 0.0
C104 C 0.94305 0.63018 0.19067 0.0
C105 C 0.29076 -0.01689 0.21668 0.0
C106 C 0.33448 -0.00862 0.17579 0.0
C107 C 0.24876 0.97239 0.2687 0.0
C108 C 0.21184 0.97203 0.3132 0.0
C109 C 0.03792 0.68815 0.63535 0.0
C110 C 0.04748 0.7147 0.59039 0.0
C111 C 0.01779 0.65989 0.688 0.0
C112 C 1.00336 0.62645 0.72901 0.0
C113 C 0.29643 0.03429 0.66036 0.0
C114 C 0.34252 0.0332 0.69837 0.0
C115 C 0.24429 0.02531 0.61517 0.0
C116 C 0.20224 0.00951 0.57674 0.0
C117 C 0.07653 0.29482 0.66383 0.0
C118 C 0.07532 0.33587 0.70094 0.0
C119 C 0.06767 0.24999 0.61868 0.0
C120 C 0.05623 0.21715 0.57715 0.0
C121 C 0.73137 0.98147 0.67772 0.0
C122 C 0.68738 0.97309 0.71843 0.0
C123 C 0.77276 -0.00791 0.62549 0.0
C124 C 0.80848 -0.00773 0.58055 0.0
C125 C 0.23383 0.26305 -0.02969 0.0
C126 C 0.19465 0.3127 -0.03805 0.0
C127 C 0.28295 0.20515 -0.02797 0.0
C128 C 0.3291 0.15904 -0.03428 0.0
C129 C 0.27797 0.67109 0.94569 0.0
C130 C 0.23061 0.62434 -0.05352 0.0
C131 C 0.32702 0.72975 -0.0495 0.0
C132 C 0.36553 0.78185 -0.05108 0.0
C133 C 0.69254 0.23514 0.94225 0.0
C134 C 0.6541 0.18302 0.94384 0.0
C135 C 0.74154 0.29382 -0.05297 0.0
C136 C 0.78886 0.34059 -0.05379 0.0
C137 C 0.78613 0.7023 0.92238 0.0
C138 C 0.82518 0.65258 0.93078 0.0
C139 C 0.73698 0.76016 0.92051 0.0
C140 C 0.69066 0.80617 0.92669 0.0
loop_
_geom_bond_atom_site_label_1
_geom_bond_atom_site_label_2
_geom_bond_distance
_geom_bond_site_symmetry_2
_ccdc_geom_bond_type
C0 O12 1.241 . S
C0 O13 1.280 1_455 S
C1 O14 1.277 1_655 S
C1 O15 1.245 . S
C2 O26 1.247 . S
C2 O28 1.289 1_545 S
Mg3 O4 1.926 . S
Mg3 O13 1.984 . S
Mg3 O15 1.988 . S
Mg3 O16 2.061 . S
O4 Mg3 1.926 . S
O4 Mg5 1.986 1_655 S
O4 Mg6 1.917 1_665 S
Mg5 O4 1.986 1_455 S
Mg5 O12 2.042 . S
Mg5 O14 2.041 . S
Mg5 O20 2.038 . S
Mg5 O28 2.238 . S
Mg6 O4 1.917 1_445 S
Mg6 O7 1.917 . S
Mg6 O17 2.106 1_455 S
Mg6 O19 2.079 . S
Mg6 O28 2.106 1_545 S
Mg6 O29 2.079 1_445 S
O7 Mg6 1.917 . S
O7 Mg8 1.926 . S
O7 Mg9 1.986 1_455 S
Mg8 O7 1.926 . S
Mg8 O22 1.984 . S
Mg8 O25 1.988 . S
Mg8 O26 2.061 . S
Mg9 O7 1.986 1_655 S
Mg9 O17 2.238 . S
Mg9 O21 2.042 . S
Mg9 O23 2.041 . S
Mg9 O30 2.038 . S
C10 O16 1.247 . S
C10 O17 1.289 1_565 S
C11 O29 1.245 1_545 S
C11 O30 1.274 . S
O12 C0 1.241 . S
O12 Mg5 2.042 . S
O13 C0 1.280 1_655 S
O13 Mg3 1.984 . S
O14 C1 1.277 1_455 S
O14 Mg5 2.041 . S
O15 C1 1.245 . S
O15 Mg3 1.988 . S
O16 Mg3 2.061 . S
O16 C10 1.247 . S
O17 Mg6 2.106 1_655 S
O17 Mg9 2.238 . S
O17 C10 1.289 1_545 S
C18 O19 1.245 1_565 S
C18 O20 1.274 . S
O19 Mg6 2.079 . S
O19 C18 1.245 1_545 S
O20 Mg5 2.038 . S
O20 C18 1.274 . S
O21 Mg9 2.042 . S
O21 C24 1.241 . S
O22 Mg8 1.984 . S
O22 C24 1.280 1_455 S
O23 Mg9 2.041 . S
O23 C27 1.277 1_655 S
C24 O21 1.241 . S
C24 O22 1.280 1_655 S
O25 Mg8 1.988 . S
O25 C27 1.245 . S
O26 C2 1.247 . S
O26 Mg8 2.061 . S
C27 O23 1.277 1_455 S
C27 O25 1.245 . S
O28 C2 1.289 1_565 S
O28 Mg5 2.238 . S
O28 Mg6 2.106 1_565 S
O29 Mg6 2.079 1_665 S
O29 C11 1.245 1_565 S
O30 Mg9 2.038 . S
O30 C11 1.274 . S
C31 O43 1.241 . S
C31 O44 1.280 1_565 S
C32 O45 1.277 1_545 S
C32 O46 1.245 . S
C33 O57 1.247 . S
C33 O59 1.289 1_556 S
Mg34 O35 1.926 . S
Mg34 O44 1.984 . S
Mg34 O46 1.988 . S
Mg34 O47 2.061 . S
O35 Mg34 1.926 . S
O35 Mg36 1.986 1_545 S
O35 Mg37 1.917 . S
Mg36 O35 1.986 1_565 S
Mg36 O43 2.042 . S
Mg36 O45 2.041 . S
Mg36 O51 2.038 . S
Mg36 O59 2.238 . S
Mg37 O35 1.917 . S
Mg37 O38 1.917 1_544 S
Mg37 O48 2.106 1_554 S
Mg37 O50 2.079 1_544 S
Mg37 O59 2.106 1_545 S
Mg37 O60 2.079 . S
O38 Mg37 1.917 1_566 S
O38 Mg39 1.926 . S
O38 Mg40 1.986 1_565 S
Mg39 O38 1.926 . S
Mg39 O53 1.984 . S
Mg39 O56 1.988 . S
Mg39 O57 2.061 . S
Mg40 O38 1.986 1_545 S
Mg40 O48 2.238 . S
Mg40 O52 2.042 . S
Mg40 O54 2.041 . S
Mg40 O61 2.038 . S
C41 O47 1.247 . S
C41 O48 1.289 1_554 S
C42 O60 1.245 1_556 S
C42 O61 1.274 . S
O43 C31 1.241 . S
O43 Mg36 2.042 . S
O44 C31 1.280 1_545 S
O44 Mg34 1.984 . S
O45 C32 1.277 1_565 S
O45 Mg36 2.041 . S
O46 C32 1.245 . S
O46 Mg34 1.988 . S
O47 Mg34 2.061 . S
O47 C41 1.247 . S
O48 Mg37 2.106 1_556 S
O48 Mg40 2.238 . S
O48 C41 1.289 1_556 S
C49 O50 1.245 1_554 S
C49 O51 1.274 . S
O50 Mg37 2.079 1_566 S
O50 C49 1.245 1_556 S
O51 Mg36 2.038 . S
O51 C49 1.274 . S
O52 Mg40 2.042 . S
O52 C55 1.241 . S
O53 Mg39 1.984 . S
O53 C55 1.280 1_565 S
O54 Mg40 2.041 . S
O54 C58 1.277 1_545 S
C55 O52 1.241 . S
C55 O53 1.280 1_545 S
O56 Mg39 1.988 . S
O56 C58 1.245 . S
O57 C33 1.247 . S
O57 Mg39 2.061 . S
C58 O54 1.277 1_565 S
C58 O56 1.245 . S
O59 C33 1.289 1_554 S
O59 Mg36 2.238 . S
O59 Mg37 2.106 1_565 S
O60 Mg37 2.079 . S
O60 C42 1.245 1_554 S
O61 Mg40 2.038 . S
O61 C42 1.274 . S
C62 O74 1.241 . S
C62 O75 1.280 1_455 S
C63 O76 1.277 1_655 S
C63 O77 1.245 . S
C64 O88 1.247 . S
C64 O90 1.289 1_554 S
Mg65 O66 1.926 . S
Mg65 O75 1.984 . S
Mg65 O77 1.988 . S
Mg65 O78 2.061 . S
O66 Mg65 1.926 . S
O66 Mg67 1.986 1_655 S
O66 Mg68 1.917 1_656 S
Mg67 O66 1.986 1_455 S
Mg67 O74 2.042 . S
Mg67 O76 2.041 . S
Mg67 O82 2.038 . S
Mg67 O90 2.238 . S
Mg68 O66 1.917 1_454 S
Mg68 O69 1.917 . S
Mg68 O79 2.106 1_455 S
Mg68 O81 2.079 . S
Mg68 O90 2.106 1_554 S
Mg68 O91 2.079 1_454 S
O69 Mg68 1.917 . S
O69 Mg70 1.926 . S
O69 Mg71 1.986 1_455 S
Mg70 O69 1.926 . S
Mg70 O84 1.984 . S
Mg70 O87 1.988 . S
Mg70 O88 2.061 . S
Mg71 O69 1.986 1_655 S
Mg71 O79 2.238 . S
Mg71 O83 2.042 . S
Mg71 O85 2.041 . S
Mg71 O92 2.038 . S
C72 O78 1.247 . S
C72 O79 1.289 1_556 S
C73 O91 1.245 1_554 S
C73 O92 1.274 . S
O74 C62 1.241 . S
O74 Mg67 2.042 . S
O75 C62 1.280 1_655 S
O75 Mg65 1.984 . S
O76 C63 1.277 1_455 S
O76 Mg67 2.041 . S
O77 C63 1.245 . S
O77 Mg65 1.988 . S
O78 Mg65 2.061 . S
O78 C72 1.247 . S
O79 Mg68 2.106 1_655 S
O79 Mg71 2.238 . S
O79 C72 1.289 1_554 S
C80 O81 1.245 1_556 S
C80 O82 1.274 . S
O81 Mg68 2.079 . S
O81 C80 1.245 1_554 S
O82 Mg67 2.038 . S
O82 C80 1.274 . S
O83 Mg71 2.042 . S
O83 C86 1.241 . S
O84 Mg70 1.984 . S
O84 C86 1.280 1_455 S
O85 Mg71 2.041 . S
O85 C89 1.277 1_655 S
C86 O83 1.241 . S
C86 O84 1.280 1_655 S
O87 Mg70 1.988 . S
O87 C89 1.245 . S
O88 C64 1.247 . S
O88 Mg70 2.061 . S
C89 O85 1.277 1_455 S
C89 O87 1.245 . S
O90 C64 1.289 1_556 S
O90 Mg67 2.238 . S
O90 Mg68 2.106 1_556 S
O91 Mg68 2.079 1_656 S
O91 C73 1.245 1_556 S
O92 Mg71 2.038 . S
O92 C73 1.274 . S
C93 C94 1.170 1_655 S
C93 C95 1.380 . S
C94 C93 1.170 1_455 S
C95 C93 1.380 . S
C95 C96 1.170 . S
C96 C95 1.170 . S
C97 C98 1.170 . S
C97 C99 1.380 . S
C98 C97 1.170 . S
C99 C97 1.380 . S
C99 C100 1.170 . S
C100 C99 1.170 . S
C101 C102 1.170 . S
C101 C103 1.380 . S
C102 C101 1.170 . S
C103 C101 1.380 . S
C103 C104 1.170 . S
C104 C103 1.170 . S
C105 C106 1.170 . S
C105 C107 1.380 . S
C106 C105 1.170 . S
C107 C105 1.380 . S
C107 C108 1.170 . S
C108 C107 1.170 . S
C109 C110 1.170 . S
C109 C111 1.380 1_455 S
C110 C109 1.170 . S
C111 C109 1.380 1_655 S
C111 C112 1.170 . S
C112 C111 1.170 . S
C113 C114 1.170 . S
C113 C115 1.380 . S
C114 C113 1.170 . S
C115 C113 1.380 . S
C115 C116 1.170 1_545 S
C116 C115 1.170 1_565 S
C117 C118 1.170 . S
C117 C119 1.380 . S
C118 C117 1.170 . S
C119 C117 1.380 . S
C119 C120 1.170 . S
C120 C119 1.170 . S
C121 C122 1.170 . S
C121 C123 1.380 . S
C122 C121 1.170 . S
C123 C121 1.380 . S
C123 C124 1.170 1_565 S
C124 C123 1.170 1_545 S
C125 C126 1.170 . S
C125 C127 1.380 . S
C126 C125 1.170 . S
C127 C125 1.380 . S
C127 C128 1.170 . S
C128 C127 1.170 . S
C129 C130 1.170 1_554 S
C129 C131 1.380 . S
C130 C129 1.170 1_556 S
C131 C129 1.380 . S
C131 C132 1.170 . S
C132 C131 1.170 . S
C133 C134 1.170 . S
C133 C135 1.380 . S
C134 C133 1.170 . S
C135 C133 1.380 . S
C135 C136 1.170 1_556 S
C136 C135 1.170 1_554 S
C137 C138 1.170 . S
C137 C139 1.380 . S
C138 C137 1.170 . S
C139 C137 1.380 . S
C139 C140 1.170 . S
C140 C139 1.170 . S
C94 C89 1.124 . S
C96 C24 1.126 . S
C98 C11 1.317 1_565 S
C100 C31 1.330 . S
C102 C1 0.980 . S
C104 C86 0.955 . S
C106 C32 1.276 . S
C108 C2 1.265 . S
C110 C0 1.102 . S
C112 C63 1.114 . S
C114 C55 1.307 . S
C116 C18 1.293 . S
C118 C62 0.934 . S
C120 C27 0.977 . S
C122 C58 1.302 . S
C124 C10 1.295 1_545 S
C126 C80 1.937 . S
C128 C42 1.867 . S
C130 C64 1.352 1_556 S
C132 C33 1.362 1_554 S
C134 C41 1.361 1_556 S
C136 C72 1.364 1_554 S
C138 C73 1.933 . S
C140 C49 1.874 . S
