# Generated by pormake.
# Topology unh, (4)-cn, num edge types: 1
# Building blocks:
#     Node 0, Type 0, BuildingBlock: GALJAG_clean_sbu_0, # of connection points: 4
#     Node 1, Type 0, BuildingBlock: GALJAG_clean_sbu_0, # of connection points: 4
#     Node 2, Type 0, BuildingBlock: GALJAG_clean_sbu_0, # of connection points: 4
#     Node 3, Type 0, BuildingBlock: GALJAG_clean_sbu_0, # of connection points: 4
#     Node 4, Type 0, BuildingBlock: GALJAG_clean_sbu_0, # of connection points: 4
#     Node 5, Type 0, BuildingBlock: GALJAG_clean_sbu_0, # of connection points: 4
#     Edge 6, Type (0, 0), BuildingBlock: OJICUG_clean_linker_0, # of connection points: 2
#     Edge 7, Type (0, 0), BuildingBlock: OJICUG_clean_linker_0, # of connection points: 2
#     Edge 8, Type (0, 0), BuildingBlock: OJICUG_clean_linker_0, # of connection points: 2
#     Edge 9, Type (0, 0), BuildingBlock: OJICUG_clean_linker_0, # of connection points: 2
#     Edge 10, Type (0, 0), BuildingBlock: OJICUG_clean_linker_0, # of connection points: 2
#     Edge 11, Type (0, 0), BuildingBlock: OJICUG_clean_linker_0, # of connection points: 2
#     Edge 12, Type (0, 0), BuildingBlock: OJICUG_clean_linker_0, # of connection points: 2
#     Edge 13, Type (0, 0), BuildingBlock: OJICUG_clean_linker_0, # of connection points: 2
#     Edge 14, Type (0, 0), BuildingBlock: OJICUG_clean_linker_0, # of connection points: 2
#     Edge 15, Type (0, 0), BuildingBlock: OJICUG_clean_linker_0, # of connection points: 2
#     Edge 16, Type (0, 0), BuildingBlock: OJICUG_clean_linker_0, # of connection points: 2
#     Edge 17, Type (0, 0), BuildingBlock: OJICUG_clean_linker_0, # of connection points: 2
# Relax obj value: 0.030
# Max RMSD: 0.133
# Mean RMSD: 0.133
data_MOF--net-unh--node1-GALJAG_clean_sbu_0--edge1-OJICUG_clean_linker_0
_symmetry_space_group_name_H-M    P1
_symmetry_Int_Tables_number       1
_symmetry_cell_setting            triclinic
loop_
_symmetry_equiv_pos_as_xyz
'x, y, z'
_cell_length_a     33.074048
_cell_length_b     33.118131
_cell_length_c     14.932802
_cell_angle_alpha  89.99848
_cell_angle_beta   90.030415
_cell_angle_gamma 119.5807
loop_
_atom_site_label
_atom_site_type_symbol
_atom_site_fract_x
_atom_site_fract_y
_atom_site_fract_z
_atom_type_partial_charge
In0 In 0.13999 0.55951 0.07755 0.0
O1 O 0.09862 0.50212 0.97455 0.0
O2 O 0.08947 0.56172 0.98208 0.0
C3 C 0.2012 0.54452 0.16944 0.0
C4 C 0.07252 0.53439 0.19928 0.0
C5 C 0.20175 0.63713 -0.00622 0.0
O6 O 0.18181 0.5216 0.09901 0.0
O7 O 0.18916 0.57379 0.19198 0.0
O8 O 0.1826 0.63841 0.06644 0.0
O9 O 0.18968 0.597 0.96425 0.0
C10 C 0.07769 0.52302 0.94579 0.0
O11 O 0.09662 0.57636 0.17462 0.0
O12 O 0.08388 0.50663 0.16462 0.0
In13 In 0.55234 0.13864 0.25229 0.0
O14 O 0.57296 0.10039 0.15002 0.0
O15 O 0.50135 0.08093 0.16487 0.0
C16 C 0.63425 0.20167 0.32258 0.0
C17 C 0.51922 0.07379 0.38049 0.0
C18 C 0.52429 0.19527 0.17995 0.0
O19 O 0.63113 0.18723 0.243 0.0
O20 O 0.59645 0.18475 0.36506 0.0
O21 O 0.51501 0.18181 0.26046 0.0
O22 O 0.54685 0.17994 0.1377 0.0
C23 C 0.53117 0.07352 0.12683 0.0
O24 O 0.49614 0.09288 0.35439 0.0
O25 O 0.55832 0.08856 0.3436 0.0
In26 In 0.44467 0.5729 0.404 0.0
O27 O 0.51385 0.59407 0.3343 0.0
O28 O 0.45307 0.56846 0.25409 0.0
C29 C 0.4762 0.65355 0.49542 0.0
C30 C 0.44942 0.50594 0.49979 0.0
C31 C 0.35788 0.54966 0.34842 0.0
O32 O 0.47735 0.65173 0.41107 0.0
O33 O 0.46111 0.61486 0.53397 0.0
O34 O 0.3766 0.52563 0.32823 0.0
O35 O 0.38214 0.58378 0.39858 0.0
C36 C 0.49598 0.58186 0.25746 0.0
O37 O 0.41545 0.51308 0.50749 0.0
O38 O 0.47985 0.53217 0.44495 0.0
In39 In 0.8562 0.42759 0.57744 0.0
O40 O 0.89919 0.41008 0.67458 0.0
O41 O 0.9126 0.48004 0.6644 0.0
C42 C 0.79314 0.35118 0.4923 0.0
C43 C 0.91855 0.46336 0.44586 0.0
C44 C 0.79603 0.44361 0.67037 0.0
O45 O 0.81214 0.34889 0.56448 0.0
O46 O 0.80613 0.39169 0.46384 0.0
O47 O 0.81644 0.46735 0.60135 0.0
O48 O 0.80656 0.41298 0.69104 0.0
C49 C 0.92366 0.45206 0.69907 0.0
O50 O 0.89773 0.48447 0.47405 0.0
O51 O 0.90659 0.42469 0.48254 0.0
In52 In 0.43725 0.85552 0.75202 0.0
O53 O 0.41596 0.89365 0.65044 0.0
O54 O 0.4877 0.91351 0.665 0.0
C55 C 0.35666 0.79073 0.82366 0.0
C56 C 0.46956 0.92022 0.88053 0.0
C57 C 0.46676 0.80077 0.67659 0.0
O58 O 0.35867 0.80556 0.7447 0.0
O59 O 0.39488 0.80825 0.86491 0.0
O60 O 0.47731 0.81496 0.75652 0.0
O61 O 0.44203 0.81429 0.63657 0.0
C62 C 0.4577 0.92074 0.62722 0.0
O63 O 0.49293 0.90141 0.85462 0.0
O64 O 0.43044 0.90518 0.8434 0.0
In65 In 0.55762 0.42706 0.90677 0.0
O66 O 0.48934 0.40663 0.83387 0.0
O67 O 0.55142 0.43458 0.75718 0.0
C68 C 0.52291 0.34707 0.00128 0.0
C69 C 0.55461 0.49522 0.00158 0.0
C70 C 0.64273 0.44469 0.85108 0.0
O71 O 0.51951 0.34808 0.91719 0.0
O72 O 0.54205 0.38646 0.0383 0.0
O73 O 0.62842 0.47324 0.83859 0.0
O74 O 0.61498 0.40874 0.89364 0.0
C75 C 0.50834 0.42045 0.75834 0.0
O76 O 0.58733 0.4863 0.01153 0.0
O77 O 0.52454 0.47011 0.945 0.0
C78 C 0.02566 0.53335 0.84087 0.0
C79 C 0.04032 0.50385 0.87818 0.0
H80 H 0.97759 0.54005 0.75619 0.0
C81 C 0.01685 0.45654 0.85493 0.0
H82 H 0.04311 0.57001 0.85712 0.0
C83 C 0.97852 0.43903 0.79666 0.0
C84 C 0.96354 0.46874 0.76095 0.0
H85 H 0.02736 0.43304 0.88329 0.0
H86 H 0.96054 0.40242 0.78007 0.0
C87 C 0.98788 0.51608 0.78308 0.0
C88 C 0.53311 0.98293 0.9735 0.0
C89 C 0.4864 0.95849 0.946 0.0
H90 H 0.58447 0.03947 0.05206 0.0
C91 C 0.45528 0.97243 0.97792 0.0
H92 H 0.55786 0.97304 0.94931 0.0
C93 C 0.47031 0.01001 0.03575 0.0
C94 C 0.51695 0.03485 0.06298 0.0
H95 H 0.41905 0.95437 0.95796 0.0
H96 H 0.44519 0.01962 0.059 0.0
C97 C 0.54836 0.02105 0.03151 0.0
C98 C 0.49762 0.55911 0.0996 0.0
C99 C 0.51971 0.5727 0.18313 0.0
H100 H 0.49202 0.52441 0.97593 0.0
C101 C 0.55922 0.56824 0.19973 0.0
H102 H 0.46732 0.56243 0.0847 0.0
C103 C 0.57325 0.54599 0.13742 0.0
C104 C 0.548 0.52814 0.05784 0.0
H105 H 0.57691 0.5784 0.26371 0.0
H106 H 0.6016 0.53984 0.15441 0.0
C107 C 0.51167 0.5371 0.03751 0.0
C108 C 0.97148 0.45314 0.34306 0.0
C109 C 0.95606 0.4824 0.37861 0.0
H110 H 0.02014 0.44672 0.25962 0.0
C111 C 0.97883 0.52947 0.3538 0.0
H112 H 0.95462 0.41666 0.36065 0.0
C113 C 0.01711 0.54702 0.29557 0.0
C114 C 0.03278 0.51757 0.26141 0.0
H115 H 0.96775 0.5528 0.38077 0.0
H116 H 0.03447 0.58345 0.27766 0.0
C117 C 0.00924 0.47045 0.28523 0.0
C118 C 0.45551 0.01114 0.47343 0.0
C119 C 0.50225 0.03561 0.44614 0.0
H120 H 0.40417 0.95459 0.552 0.0
C121 C 0.53341 0.02179 0.47849 0.0
H122 H 0.43075 0.02095 0.44892 0.0
C123 C 0.5184 0.98429 0.53639 0.0
C124 C 0.47176 0.95939 0.5634 0.0
H125 H 0.56965 0.03988 0.45877 0.0
H126 H 0.54359 0.97479 0.55984 0.0
C127 C 0.44029 0.97307 0.53161 0.0
C128 C 0.50853 0.44481 0.60103 0.0
C129 C 0.48525 0.42985 0.68316 0.0
H130 H 0.51479 0.48014 0.4779 0.0
C131 C 0.4447 0.43271 0.69769 0.0
H132 H 0.53965 0.44273 0.58774 0.0
C133 C 0.43054 0.45457 0.63472 0.0
C134 C 0.45672 0.47364 0.5566 0.0
H135 H 0.4261 0.42146 0.76056 0.0
H136 H 0.40118 0.45938 0.65011 0.0
C137 C 0.49437 0.46645 0.53832 0.0
C138 C 0.25599 0.56712 0.29798 0.0
C139 C 0.23739 0.54032 0.22021 0.0
H140 H 0.30814 0.59054 0.39965 0.0
C141 C 0.2558 0.51254 0.18986 0.0
H142 H 0.24241 0.58864 0.32369 0.0
C143 C 0.29368 0.51345 0.23424 0.0
C144 C 0.31368 0.54229 0.30927 0.0
H145 H 0.24205 0.49144 0.13026 0.0
H146 H 0.30852 0.49321 0.20761 0.0
C147 C 0.29369 0.56817 0.34179 0.0
C148 C 0.6852 0.23564 0.4558 0.0
C149 C 0.67809 0.2369 0.36331 0.0
H150 H 0.72843 0.2705 0.56894 0.0
C151 C 0.71127 0.274 0.31222 0.0
H152 H 0.66002 0.20722 0.49641 0.0
C153 C 0.74962 0.31074 0.35407 0.0
C154 C 0.75605 0.31008 0.44701 0.0
H155 H 0.7063 0.27575 0.2409 0.0
H156 H 0.77377 0.34012 0.31411 0.0
C157 C 0.72431 0.27162 0.49715 0.0
C158 C 0.4811 0.73321 0.68234 0.0
C159 C 0.47898 0.76823 0.63315 0.0
H160 H 0.48168 0.66871 0.67679 0.0
C161 C 0.48269 0.76854 0.53947 0.0
H162 H 0.47809 0.73216 0.75465 0.0
C163 C 0.4856 0.73297 0.49516 0.0
C164 C 0.48382 0.69578 0.54357 0.0
H165 H 0.48141 0.79537 0.50007 0.0
H166 H 0.48625 0.73316 0.42263 0.0
C167 C 0.48303 0.69693 0.63776 0.0
C168 C 0.709 0.48102 0.74134 0.0
C169 C 0.686 0.44976 0.81177 0.0
H170 H 0.7621 0.50359 0.64028 0.0
C171 C 0.70198 0.41958 0.83917 0.0
H172 H 0.69723 0.50455 0.71866 0.0
C173 C 0.73882 0.41913 0.79494 0.0
C174 C 0.76047 0.44862 0.72164 0.0
H175 H 0.68512 0.39522 0.89343 0.0
H176 H 0.74934 0.39448 0.81671 0.0
C177 C 0.74593 0.48034 0.69632 0.0
C178 C 0.28103 0.71685 0.81357 0.0
C179 C 0.31366 0.75429 0.86478 0.0
H180 H 0.22002 0.64954 0.81534 0.0
C181 C 0.30702 0.75475 0.95761 0.0
H182 H 0.28567 0.71569 0.74198 0.0
C183 C 0.26891 0.71771 -0.00089 0.0
C184 C 0.23779 0.67901 0.94872 0.0
H185 H 0.33182 0.78342 -0.00168 0.0
H186 H 0.26514 0.71829 0.07109 0.0
C187 C 0.24373 0.67908 0.85551 0.0
C188 C 0.50648 0.26511 0.00158 0.0
C189 C 0.51303 0.30425 0.04995 0.0
H190 H 0.50508 0.19984 0.0056 0.0
C191 C 0.51631 0.30398 0.14391 0.0
H192 H 0.50379 0.26419 0.92922 0.0
C193 C 0.51612 0.26649 0.18796 0.0
C194 C 0.51361 0.22931 0.13835 0.0
H195 H 0.52133 0.33369 0.18291 0.0
H196 H 0.52126 0.26813 0.25981 0.0
C197 C 0.50731 0.22828 0.04525 0.0
loop_
_geom_bond_atom_site_label_1
_geom_bond_atom_site_label_2
_geom_bond_distance
_geom_bond_site_symmetry_2
_ccdc_geom_bond_type
In0 O1 2.294 1_554 S
In0 O2 2.326 1_554 S
In0 O6 2.266 . S
In0 O7 2.326 . S
In0 O8 2.266 . S
In0 O9 2.326 1_554 S
In0 O11 2.294 . S
In0 O12 2.326 . S
O1 In0 2.294 1_556 S
O1 C10 1.240 . S
O2 In0 2.326 1_556 S
O2 C10 1.252 . S
C3 O6 1.252 . S
C3 O7 1.260 . S
C4 O11 1.240 . S
C4 O12 1.252 . S
C5 O8 1.252 . S
C5 O9 1.260 1_554 S
O6 In0 2.266 . S
O6 C3 1.252 . S
O7 In0 2.326 . S
O7 C3 1.260 . S
O8 In0 2.266 . S
O8 C5 1.252 . S
O9 In0 2.326 1_556 S
O9 C5 1.260 1_556 S
C10 O1 1.240 . S
C10 O2 1.252 . S
O11 In0 2.294 . S
O11 C4 1.240 . S
O12 In0 2.326 . S
O12 C4 1.252 . S
In13 O14 2.294 . S
In13 O15 2.326 . S
In13 O19 2.266 . S
In13 O20 2.326 . S
In13 O21 2.266 . S
In13 O22 2.326 . S
In13 O24 2.294 . S
In13 O25 2.326 . S
O14 In13 2.294 . S
O14 C23 1.240 . S
O15 In13 2.326 . S
O15 C23 1.252 . S
C16 O19 1.252 . S
C16 O20 1.260 . S
C17 O24 1.240 . S
C17 O25 1.252 . S
C18 O21 1.252 . S
C18 O22 1.260 . S
O19 In13 2.266 . S
O19 C16 1.252 . S
O20 In13 2.326 . S
O20 C16 1.260 . S
O21 In13 2.266 . S
O21 C18 1.252 . S
O22 In13 2.326 . S
O22 C18 1.260 . S
C23 O14 1.240 . S
C23 O15 1.252 . S
O24 In13 2.294 . S
O24 C17 1.240 . S
O25 In13 2.326 . S
O25 C17 1.252 . S
In26 O27 2.294 . S
In26 O28 2.326 . S
In26 O32 2.266 . S
In26 O33 2.326 . S
In26 O34 2.266 . S
In26 O35 2.326 . S
In26 O37 2.294 . S
In26 O38 2.326 . S
O27 In26 2.294 . S
O27 C36 1.240 . S
O28 In26 2.326 . S
O28 C36 1.252 . S
C29 O32 1.252 . S
C29 O33 1.260 . S
C30 O37 1.240 . S
C30 O38 1.252 . S
C31 O34 1.252 . S
C31 O35 1.260 . S
O32 In26 2.266 . S
O32 C29 1.252 . S
O33 In26 2.326 . S
O33 C29 1.260 . S
O34 In26 2.266 . S
O34 C31 1.252 . S
O35 In26 2.326 . S
O35 C31 1.260 . S
C36 O27 1.240 . S
C36 O28 1.252 . S
O37 In26 2.294 . S
O37 C30 1.240 . S
O38 In26 2.326 . S
O38 C30 1.252 . S
In39 O40 2.294 . S
In39 O41 2.326 . S
In39 O45 2.266 . S
In39 O46 2.326 . S
In39 O47 2.266 . S
In39 O48 2.326 . S
In39 O50 2.294 . S
In39 O51 2.326 . S
O40 In39 2.294 . S
O40 C49 1.240 . S
O41 In39 2.326 . S
O41 C49 1.252 . S
C42 O45 1.252 . S
C42 O46 1.260 . S
C43 O50 1.240 . S
C43 O51 1.252 . S
C44 O47 1.252 . S
C44 O48 1.260 . S
O45 In39 2.266 . S
O45 C42 1.252 . S
O46 In39 2.326 . S
O46 C42 1.260 . S
O47 In39 2.266 . S
O47 C44 1.252 . S
O48 In39 2.326 . S
O48 C44 1.260 . S
C49 O40 1.240 . S
C49 O41 1.252 . S
O50 In39 2.294 . S
O50 C43 1.240 . S
O51 In39 2.326 . S
O51 C43 1.252 . S
In52 O53 2.294 . S
In52 O54 2.326 . S
In52 O58 2.266 . S
In52 O59 2.326 . S
In52 O60 2.266 . S
In52 O61 2.326 . S
In52 O63 2.294 . S
In52 O64 2.326 . S
O53 In52 2.294 . S
O53 C62 1.240 . S
O54 In52 2.326 . S
O54 C62 1.252 . S
C55 O58 1.252 . S
C55 O59 1.260 . S
C56 O63 1.240 . S
C56 O64 1.252 . S
C57 O60 1.252 . S
C57 O61 1.260 . S
O58 In52 2.266 . S
O58 C55 1.252 . S
O59 In52 2.326 . S
O59 C55 1.260 . S
O60 In52 2.266 . S
O60 C57 1.252 . S
O61 In52 2.326 . S
O61 C57 1.260 . S
C62 O53 1.240 . S
C62 O54 1.252 . S
O63 In52 2.294 . S
O63 C56 1.240 . S
O64 In52 2.326 . S
O64 C56 1.252 . S
In65 O66 2.294 . S
In65 O67 2.326 . S
In65 O71 2.266 . S
In65 O72 2.326 1_556 S
In65 O73 2.266 . S
In65 O74 2.326 . S
In65 O76 2.294 1_556 S
In65 O77 2.326 1_556 S
O66 In65 2.294 . S
O66 C75 1.240 . S
O67 In65 2.326 . S
O67 C75 1.252 . S
C68 O71 1.252 . S
C68 O72 1.260 1_556 S
C69 O76 1.240 . S
C69 O77 1.252 . S
C70 O73 1.252 . S
C70 O74 1.260 . S
O71 In65 2.266 . S
O71 C68 1.252 . S
O72 In65 2.326 1_554 S
O72 C68 1.260 1_554 S
O73 In65 2.266 . S
O73 C70 1.252 . S
O74 In65 2.326 . S
O74 C70 1.260 . S
C75 O66 1.240 . S
C75 O67 1.252 . S
O76 In65 2.294 1_554 S
O76 C69 1.240 . S
O77 In65 2.326 1_554 S
O77 C69 1.252 . S
C78 C79 1.387 . S
C78 H82 0.950 . S
C78 C87 1.390 . S
C79 C78 1.387 . S
C79 C81 1.387 1_455 S
H80 C87 0.950 . S
C81 C79 1.387 1_655 S
C81 C83 1.390 . S
C81 H85 0.950 . S
H82 C78 0.950 . S
C83 C81 1.390 . S
C83 C84 1.387 . S
C83 H86 0.950 . S
C84 C83 1.387 . S
C84 C87 1.387 1_655 S
H85 C81 0.950 . S
H86 C83 0.950 . S
C87 C78 1.390 . S
C87 H80 0.950 . S
C87 C84 1.387 1_455 S
C88 C89 1.387 . S
C88 H92 0.950 . S
C88 C97 1.390 1_566 S
C89 C88 1.387 . S
C89 C91 1.387 . S
H90 C97 0.950 . S
C91 C89 1.387 . S
C91 C93 1.390 1_566 S
C91 H95 0.950 . S
H92 C88 0.950 . S
C93 C91 1.390 1_544 S
C93 C94 1.387 . S
C93 H96 0.950 . S
C94 C93 1.387 . S
C94 C97 1.387 . S
H95 C91 0.950 . S
H96 C93 0.950 . S
C97 C88 1.390 1_544 S
C97 H90 0.950 . S
C97 C94 1.387 . S
C98 C99 1.387 . S
C98 H102 0.950 . S
C98 C107 1.390 . S
C99 C98 1.387 . S
C99 C101 1.387 . S
H100 C107 0.950 . S
C101 C99 1.387 . S
C101 C103 1.390 . S
C101 H105 0.950 . S
H102 C98 0.950 . S
C103 C101 1.390 . S
C103 C104 1.387 . S
C103 H106 0.950 . S
C104 C103 1.387 . S
C104 C107 1.387 . S
H105 C101 0.950 . S
H106 C103 0.950 . S
C107 C98 1.390 . S
C107 H100 0.950 . S
C107 C104 1.387 . S
C108 C109 1.387 . S
C108 H112 0.950 . S
C108 C117 1.390 . S
C109 C108 1.387 . S
C109 C111 1.387 1_655 S
H110 C117 0.950 . S
C111 C109 1.387 1_455 S
C111 C113 1.390 . S
C111 H115 0.950 . S
H112 C108 0.950 . S
C113 C111 1.390 . S
C113 C114 1.387 . S
C113 H116 0.950 . S
C114 C113 1.387 . S
C114 C117 1.387 1_455 S
H115 C111 0.950 . S
H116 C113 0.950 . S
C117 C108 1.390 . S
C117 H110 0.950 . S
C117 C114 1.387 1_655 S
C118 C119 1.387 . S
C118 H122 0.950 . S
C118 C127 1.390 1_545 S
C119 C118 1.387 . S
C119 C121 1.387 . S
H120 C127 0.950 . S
C121 C119 1.387 . S
C121 C123 1.390 1_545 S
C121 H125 0.950 . S
H122 C118 0.950 . S
C123 C121 1.390 1_565 S
C123 C124 1.387 . S
C123 H126 0.950 . S
C124 C123 1.387 . S
C124 C127 1.387 . S
H125 C121 0.950 . S
H126 C123 0.950 . S
C127 C118 1.390 1_565 S
C127 H120 0.950 . S
C127 C124 1.387 . S
C128 C129 1.387 . S
C128 H132 0.950 . S
C128 C137 1.390 . S
C129 C128 1.387 . S
C129 C131 1.387 . S
H130 C137 0.950 . S
C131 C129 1.387 . S
C131 C133 1.390 . S
C131 H135 0.950 . S
H132 C128 0.950 . S
C133 C131 1.390 . S
C133 C134 1.387 . S
C133 H136 0.950 . S
C134 C133 1.387 . S
C134 C137 1.387 . S
H135 C131 0.950 . S
H136 C133 0.950 . S
C137 C128 1.390 . S
C137 H130 0.950 . S
C137 C134 1.387 . S
C138 C139 1.387 . S
C138 H142 0.950 . S
C138 C147 1.390 . S
C139 C138 1.387 . S
C139 C141 1.387 . S
H140 C147 0.950 . S
C141 C139 1.387 . S
C141 C143 1.390 . S
C141 H145 0.950 . S
H142 C138 0.950 . S
C143 C141 1.390 . S
C143 C144 1.387 . S
C143 H146 0.950 . S
C144 C143 1.387 . S
C144 C147 1.387 . S
H145 C141 0.950 . S
H146 C143 0.950 . S
C147 C138 1.390 . S
C147 H140 0.950 . S
C147 C144 1.387 . S
C148 C149 1.387 . S
C148 H152 0.950 . S
C148 C157 1.390 . S
C149 C148 1.387 . S
C149 C151 1.387 . S
H150 C157 0.950 . S
C151 C149 1.387 . S
C151 C153 1.390 . S
C151 H155 0.950 . S
H152 C148 0.950 . S
C153 C151 1.390 . S
C153 C154 1.387 . S
C153 H156 0.950 . S
C154 C153 1.387 . S
C154 C157 1.387 . S
H155 C151 0.950 . S
H156 C153 0.950 . S
C157 C148 1.390 . S
C157 H150 0.950 . S
C157 C154 1.387 . S
C158 C159 1.387 . S
C158 H162 0.950 . S
C158 C167 1.390 . S
C159 C158 1.387 . S
C159 C161 1.387 . S
H160 C167 0.950 . S
C161 C159 1.387 . S
C161 C163 1.390 . S
C161 H165 0.950 . S
H162 C158 0.950 . S
C163 C161 1.390 . S
C163 C164 1.387 . S
C163 H166 0.950 . S
C164 C163 1.387 . S
C164 C167 1.387 . S
H165 C161 0.950 . S
H166 C163 0.950 . S
C167 C158 1.390 . S
C167 H160 0.950 . S
C167 C164 1.387 . S
C168 C169 1.387 . S
C168 H172 0.950 . S
C168 C177 1.390 . S
C169 C168 1.387 . S
C169 C171 1.387 . S
H170 C177 0.950 . S
C171 C169 1.387 . S
C171 C173 1.390 . S
C171 H175 0.950 . S
H172 C168 0.950 . S
C173 C171 1.390 . S
C173 C174 1.387 . S
C173 H176 0.950 . S
C174 C173 1.387 . S
C174 C177 1.387 . S
H175 C171 0.950 . S
H176 C173 0.950 . S
C177 C168 1.390 . S
C177 H170 0.950 . S
C177 C174 1.387 . S
C178 C179 1.387 . S
C178 H182 0.950 . S
C178 C187 1.390 . S
C179 C178 1.387 . S
C179 C181 1.387 . S
H180 C187 0.950 . S
C181 C179 1.387 . S
C181 C183 1.390 . S
C181 H185 0.950 . S
H182 C178 0.950 . S
C183 C181 1.390 . S
C183 C184 1.387 . S
C183 H186 0.950 1_556 S
C184 C183 1.387 . S
C184 C187 1.387 . S
H185 C181 0.950 . S
H186 C183 0.950 1_554 S
C187 C178 1.390 . S
C187 H180 0.950 . S
C187 C184 1.387 . S
C188 C189 1.387 . S
C188 H192 0.950 1_554 S
C188 C197 1.390 . S
C189 C188 1.387 . S
C189 C191 1.387 . S
H190 C197 0.950 . S
C191 C189 1.387 . S
C191 C193 1.390 . S
C191 H195 0.950 . S
H192 C188 0.950 1_556 S
C193 C191 1.390 . S
C193 C194 1.387 . S
C193 H196 0.950 . S
C194 C193 1.387 . S
C194 C197 1.387 . S
H195 C191 0.950 . S
H196 C193 0.950 . S
C197 C188 1.390 . S
C197 H190 0.950 . S
C197 C194 1.387 . S
C79 C10 1.394 . S
C84 C49 1.395 . S
C89 C56 1.395 . S
C94 C23 1.395 . S
C99 C36 1.394 . S
C104 C69 1.395 . S
C109 C43 1.394 . S
C114 C4 1.394 . S
C119 C17 1.395 . S
C124 C62 1.395 . S
C129 C75 1.394 . S
C134 C30 1.394 . S
C139 C3 1.395 . S
C144 C31 1.395 . S
C149 C16 1.394 . S
C154 C42 1.395 . S
C159 C57 1.395 . S
C164 C29 1.394 . S
C169 C70 1.394 . S
C174 C44 1.394 . S
C179 C55 1.395 . S
C184 C5 1.395 1_556 S
C189 C68 1.395 1_554 S
C194 C18 1.394 . S
