# Generated by pormake.
# Topology hcp, (12)-cn, num edge types: 1
# Building blocks:
#     Node 0, Type 0, BuildingBlock: ZALLEG_clean_sbu_0, # of connection points: 12
#     Node 1, Type 0, BuildingBlock: ZALLEG_clean_sbu_0, # of connection points: 12
#     Edge 2, Type (0, 0), BuildingBlock: OJICUG_clean_linker_0, # of connection points: 2
#     Edge 3, Type (0, 0), BuildingBlock: OJICUG_clean_linker_0, # of connection points: 2
#     Edge 4, Type (0, 0), BuildingBlock: OJICUG_clean_linker_0, # of connection points: 2
#     Edge 5, Type (0, 0), BuildingBlock: OJICUG_clean_linker_0, # of connection points: 2
#     Edge 6, Type (0, 0), BuildingBlock: OJICUG_clean_linker_0, # of connection points: 2
#     Edge 7, Type (0, 0), BuildingBlock: OJICUG_clean_linker_0, # of connection points: 2
#     Edge 8, Type (0, 0), BuildingBlock: OJICUG_clean_linker_0, # of connection points: 2
#     Edge 9, Type (0, 0), BuildingBlock: OJICUG_clean_linker_0, # of connection points: 2
#     Edge 10, Type (0, 0), BuildingBlock: OJICUG_clean_linker_0, # of connection points: 2
#     Edge 11, Type (0, 0), BuildingBlock: OJICUG_clean_linker_0, # of connection points: 2
#     Edge 12, Type (0, 0), BuildingBlock: OJICUG_clean_linker_0, # of connection points: 2
#     Edge 13, Type (0, 0), BuildingBlock: OJICUG_clean_linker_0, # of connection points: 2
# Relax obj value: 0.186
# Max RMSD: 0.270
# Mean RMSD: 0.270
data_MOF--net-hcp--node1-ZALLEG_clean_sbu_0--edge1-OJICUG_clean_linker_0
_symmetry_space_group_name_H-M    P1
_symmetry_Int_Tables_number       1
_symmetry_cell_setting            triclinic
loop_
_symmetry_equiv_pos_as_xyz
'x, y, z'
_cell_length_a     14.603401
_cell_length_b     14.603099
_cell_length_c     21.685926
_cell_angle_alpha  89.997859
_cell_angle_beta   90.006196
_cell_angle_gamma 119.99775
loop_
_atom_site_label
_atom_site_type_symbol
_atom_site_fract_x
_atom_site_fract_y
_atom_site_fract_z
_atom_type_partial_charge
H0 H 0.53681 0.09772 0.27268 0.0
O1 O 0.575 0.17246 0.28536 0.0
Tb2 Tb 0.50532 0.26117 0.25148 0.0
Tb3 Tb 0.58723 0.17469 0.38168 0.0
Tb4 Tb 0.72599 0.24157 0.25149 0.0
O5 O 0.50111 0.24814 0.34902 0.0
O6 O 0.65896 0.32819 0.21426 0.0
O7 O 0.5872 0.41216 0.28536 0.0
O8 O 0.65897 0.32818 0.41595 0.0
O9 O 0.81469 0.39994 0.28538 0.0
O10 O 0.73901 0.25038 0.34903 0.0
H11 H 0.42847 0.21315 0.36574 0.0
H12 H 0.65896 0.32819 0.1686 0.0
Tb13 Tb 0.57721 0.39992 0.38169 0.0
Tb14 Tb 0.74558 0.48182 0.2515 0.0
H15 H 0.55066 0.45035 0.27269 0.0
H16 H 0.65896 0.32817 0.46117 0.0
Tb17 Tb 0.81245 0.40993 0.3817 0.0
H18 H 0.88942 0.43649 0.27271 0.0
H19 H 0.77399 0.21272 0.36576 0.0
O20 O 0.73677 0.48603 0.34903 0.0
H21 H 0.77442 0.55867 0.36576 0.0
O22 O 0.37105 0.10223 0.27301 0.0
O23 O 0.94683 0.56842 0.36466 0.0
O24 O 0.85095 0.34297 0.45495 0.0
O25 O 0.50252 0.37568 0.1785 0.0
O26 O 0.61135 0.04032 0.36464 0.0
O27 O 0.72093 0.6161 0.27302 0.0
O28 O 0.86288 0.48463 0.17852 0.0
O29 O 0.48177 0.13617 0.45492 0.0
O30 O 0.61149 0.12428 0.1785 0.0
O31 O 0.64413 0.50536 0.45494 0.0
O32 O 0.41874 0.37582 0.36464 0.0
O33 O 0.88491 0.26621 0.27303 0.0
O34 O 0.42741 0.04371 0.36118 0.0
O35 O 0.90039 0.61688 0.27047 0.0
O36 O 0.68144 0.51275 0.17157 0.0
O37 O 0.68315 0.18939 0.47083 0.0
O38 O 0.37026 0.28093 0.27044 0.0
O39 O 0.94343 0.38108 0.36121 0.0
O40 O 0.79772 0.49115 0.47084 0.0
O41 O 0.4744 0.16611 0.17156 0.0
O42 O 0.49599 0.30396 0.47082 0.0
O43 O 0.82107 0.30572 0.17158 0.0
O44 O 0.70623 0.08675 0.27045 0.0
O45 O 0.60606 0.55974 0.36119 0.0
C46 C 0.35697 0.0315 0.31733 0.0
C47 C 0.96572 0.63483 0.31765 0.0
C48 C 0.78423 0.26231 0.48843 0.0
C49 C 0.58085 0.47036 0.15603 0.0
C50 C 0.65886 0.02143 0.31764 0.0
C51 C 0.66429 0.63018 0.31734 0.0
C52 C 0.87924 0.40631 0.15604 0.0
C53 C 0.46782 0.20288 0.48841 0.0
C54 C 0.51681 0.10793 0.15602 0.0
C55 C 0.72479 0.5193 0.48843 0.0
C56 C 0.35232 0.32831 0.31763 0.0
C57 C 0.95564 0.32286 0.31735 0.0
H58 H 0.09515 0.53935 0.77268 0.0
O59 O 0.16989 0.57754 0.78535 0.0
Tb60 Tb 0.17213 0.58979 0.88168 0.0
Tb61 Tb 0.25858 0.50786 0.75149 0.0
Tb62 Tb 0.239 0.72853 0.75148 0.0
O63 O 0.24556 0.50366 0.84902 0.0
O64 O 0.24782 0.74157 0.84901 0.0
O65 O 0.32563 0.66152 0.91593 0.0
O66 O 0.40957 0.58973 0.78537 0.0
O67 O 0.39737 0.81724 0.78535 0.0
O68 O 0.3256 0.6615 0.71425 0.0
H69 H 0.21058 0.43102 0.86575 0.0
H70 H 0.21017 0.77655 0.86574 0.0
Tb71 Tb 0.39734 0.57974 0.88169 0.0
Tb72 Tb 0.40739 0.815 0.88168 0.0
H73 H 0.32563 0.66152 0.96115 0.0
H74 H 0.44776 0.55318 0.7727 0.0
Tb75 Tb 0.47924 0.74811 0.75149 0.0
H76 H 0.43392 0.89197 0.77268 0.0
H77 H 0.3256 0.6615 0.6686 0.0
O78 O 0.48347 0.7393 0.84903 0.0
H79 H 0.55611 0.77695 0.86575 0.0
O80 O 0.04115 0.42996 0.86118 0.0
O81 O 0.61431 0.90292 0.77045 0.0
O82 O 0.51016 0.68395 0.67157 0.0
O83 O 0.18686 0.68575 0.97081 0.0
O84 O 0.16353 0.47695 0.67156 0.0
O85 O 0.48863 0.8003 0.97082 0.0
O86 O 0.37854 0.94598 0.86118 0.0
O87 O 0.27833 0.3728 0.77045 0.0
O88 O 0.08418 0.70879 0.77044 0.0
O89 O 0.55717 0.60858 0.86119 0.0
O90 O 0.3014 0.49853 0.97083 0.0
O91 O 0.30314 0.8236 0.67155 0.0
O92 O 0.09966 0.37359 0.77301 0.0
O93 O 0.56586 0.94937 0.86463 0.0
O94 O 0.34048 0.85353 0.95492 0.0
O95 O 0.37308 0.50504 0.67851 0.0
O96 O 0.13361 0.48436 0.95493 0.0
O97 O 0.48205 0.8654 0.6785 0.0
O98 O 0.61351 0.72345 0.77302 0.0
O99 O 0.03777 0.6139 0.86463 0.0
O100 O 0.37323 0.42125 0.86465 0.0
O101 O 0.26365 0.88746 0.773 0.0
O102 O 0.12168 0.61403 0.67849 0.0
O103 O 0.50278 0.64667 0.95495 0.0
C104 C 0.02894 0.35952 0.81733 0.0
C105 C 0.63227 0.96826 0.81763 0.0
C106 C 0.46774 0.58337 0.65602 0.0
C107 C 0.25985 0.78679 0.98843 0.0
C108 C 0.10535 0.51936 0.65601 0.0
C109 C 0.51668 0.72731 0.98844 0.0
C110 C 0.3203 0.95819 0.81732 0.0
C111 C 0.32571 0.35485 0.81764 0.0
C112 C 0.01886 0.66141 0.81762 0.0
C113 C 0.6276 0.6668 0.81734 0.0
C114 C 0.20035 0.47047 0.98844 0.0
C115 C 0.40373 0.88175 0.656 0.0
C116 C 0.36451 0.82921 0.08404 0.0
C117 C 0.28028 0.83081 1.05213 0.0
H118 H 0.50781 0.91351 0.13789 0.0
C119 C 0.27211 0.92178 1.06007 0.0
H120 H 0.378 0.76412 0.07727 0.0
C121 C 0.35091 0.01084 0.09132 0.0
C122 C 0.44054 0.01259 0.11832 0.0
H123 H 0.21216 0.9296 1.03501 0.0
H124 H 0.34236 0.08032 0.09244 0.0
C125 C 0.44343 0.91814 0.1162 0.0
C126 C 0.63367 0.65219 0.59137 0.0
C127 C 0.54403 0.5643 0.61834 0.0
H128 H 0.77241 0.70974 0.53508 0.0
C129 C 0.54113 0.46696 0.61618 0.0
H130 H 0.64223 0.73023 0.5925 0.0
C131 C 0.62006 0.45696 0.58402 0.0
C132 C 0.7043 0.54281 0.55215 0.0
H133 H 0.47675 0.39794 0.63785 0.0
H134 H 0.60655 0.37837 0.57725 0.0
C135 C 0.71248 0.64194 0.56012 0.0
C136 C 0.06904 0.52272 0.11627 0.0
C137 C 0.97458 0.4254 0.11834 0.0
H138 H 0.22306 0.61134 0.07738 0.0
C139 C 0.97631 0.33755 0.09129 0.0
H140 H 0.07368 0.5917 0.13799 0.0
C141 C 0.06536 0.34783 1.06003 0.0
C142 C 0.15637 0.44696 1.05216 0.0
H143 H 0.9068 0.25953 0.09237 0.0
H144 H 0.05751 0.28007 1.03494 0.0
C145 C 0.15798 0.53274 0.08412 0.0
C146 C 0.52013 0.07156 0.61623 0.0
C147 C 0.42281 0.9771 0.61831 0.0
H148 H 0.60875 0.22558 0.57734 0.0
C149 C 0.33495 0.97883 0.59126 0.0
H150 H 0.58912 0.07619 0.63795 0.0
C151 C 0.34522 0.06789 0.56001 0.0
C152 C 0.44436 0.15889 0.55212 0.0
H153 H 0.25693 0.90933 0.59234 0.0
H154 H 0.27746 0.06004 0.53492 0.0
C155 C 0.53015 0.1605 0.58408 0.0
C156 C 0.64966 0.63626 0.09135 0.0
C157 C 0.56178 0.54663 0.11833 0.0
H158 H 0.70718 0.77499 1.03504 0.0
C159 C 0.46445 0.54375 0.11621 0.0
H160 H 0.72769 0.6448 0.09247 0.0
C161 C 0.45444 0.62268 0.08405 0.0
C162 C 0.54027 0.7069 1.05215 0.0
H163 H 0.39545 0.47938 0.1379 0.0
H164 H 0.37585 0.60918 0.07729 0.0
C165 C 0.6394 0.71507 1.0601 0.0
C166 C 0.82662 0.36705 0.58401 0.0
C167 C 0.82821 0.28278 0.55215 0.0
H168 H 0.91094 0.51039 0.63783 0.0
C169 C 0.91915 0.27458 0.56013 0.0
H170 H 0.76154 0.38054 0.57722 0.0
C171 C 0.00821 0.35339 0.59138 0.0
C172 C 0.00998 0.44306 0.61833 0.0
H173 H 0.92696 0.21459 0.53511 0.0
H174 H 0.07767 0.34481 0.59253 0.0
C175 C 0.91556 0.44598 0.61618 0.0
C176 C 0.69936 0.8927 0.2664 0.0
C177 C 0.66035 0.92138 0.31775 0.0
H178 H 0.73083 0.77805 0.22582 0.0
C179 C 0.62327 0.85377 0.36901 0.0
H180 H 0.72799 0.94267 0.22591 0.0
C181 C 0.62518 0.7594 0.36895 0.0
C182 C 0.66415 0.73079 0.31759 0.0
H183 H 0.59312 0.87368 0.40939 0.0
H184 H 0.59649 0.70928 0.40938 0.0
C185 C 0.70129 0.79835 0.26634 0.0
C186 C 0.89016 0.702 0.76641 0.0
C187 C 0.91882 0.6629 0.81774 0.0
H188 H 0.77554 0.73354 0.72586 0.0
C189 C 0.85117 0.6257 0.86898 0.0
H190 H 0.94016 0.73073 0.72594 0.0
C191 C 0.75679 0.62759 0.86891 0.0
C192 C 0.72821 0.66667 0.81759 0.0
H193 H 0.87104 0.59547 0.90934 0.0
H194 H 0.70663 0.59881 0.90933 0.0
C195 C 0.7958 0.70391 0.76636 0.0
C196 C 0.22784 0.8631 0.36891 0.0
C197 C 0.25636 0.93075 0.31758 0.0
H198 H 0.11365 0.71671 0.40933 0.0
C199 C 0.18871 0.9004 0.26637 0.0
H200 H 0.27804 0.88447 0.40931 0.0
C201 C 0.09436 0.80413 0.26644 0.0
C202 C 0.06576 0.73637 0.31776 0.0
H203 H 0.20892 0.9503 0.22588 0.0
H204 H 0.04431 0.78285 0.22599 0.0
C205 C 0.13347 0.76682 0.36898 0.0
C206 C 0.36134 0.2228 0.86901 0.0
C207 C 0.32421 0.25331 0.81776 0.0
H208 H 0.38816 0.1051 0.90936 0.0
C209 C 0.28517 0.18561 0.7664 0.0
H210 H 0.39152 0.27287 0.90938 0.0
C211 C 0.28325 0.08933 0.76633 0.0
C212 C 0.32043 0.05893 0.81758 0.0
H213 H 0.2565 0.20693 0.72592 0.0
H214 H 0.25368 0.03948 0.72582 0.0
C215 C 0.35944 0.12652 0.86893 0.0
C216 C 0.18305 0.28773 0.26641 0.0
C217 C 0.25078 0.32681 0.31775 0.0
H218 H 0.03689 0.25619 0.22586 0.0
C219 C 0.22031 0.36397 0.369 0.0
H220 H 0.20434 0.25904 0.22594 0.0
C221 C 0.12402 0.36205 0.36893 0.0
C222 C 0.05639 0.323 0.3176 0.0
H223 H 0.2704 0.39418 0.40936 0.0
H224 H 0.10263 0.3908 0.40936 0.0
C225 C 0.08676 0.2858 0.26636 0.0
C226 C 0.89785 0.19125 0.76637 0.0
C227 C 0.92819 0.25891 0.81758 0.0
H228 H 0.78032 0.04684 0.72598 0.0
C229 C 0.86052 0.23039 0.86889 0.0
H230 H 0.94776 0.21146 0.72589 0.0
C231 C 0.76424 0.13601 0.86896 0.0
C232 C 0.73381 0.0683 0.81774 0.0
H233 H 0.88187 0.28059 0.90929 0.0
H234 H 0.71412 0.11619 0.9093 0.0
C235 C 0.80158 0.09689 0.76643 0.0
loop_
_geom_bond_atom_site_label_1
_geom_bond_atom_site_label_2
_geom_bond_distance
_geom_bond_site_symmetry_2
_ccdc_geom_bond_type
H0 O1 0.850 . S
O1 H0 0.850 . S
O1 Tb2 2.341 . S
O1 Tb3 2.341 . S
O1 Tb4 2.341 . S
Tb2 O1 2.341 . S
Tb2 O5 2.341 . S
Tb2 O6 2.341 . S
Tb2 O7 2.341 . S
Tb2 O22 2.344 . S
Tb2 O25 2.344 . S
Tb2 O38 2.344 . S
Tb2 O41 2.344 . S
Tb3 O1 2.341 . S
Tb3 O5 2.341 . S
Tb3 O8 2.341 . S
Tb3 O10 2.341 . S
Tb3 O26 2.344 . S
Tb3 O29 2.344 . S
Tb3 O34 2.344 . S
Tb3 O37 2.344 . S
Tb4 O1 2.341 . S
Tb4 O6 2.341 . S
Tb4 O9 2.341 . S
Tb4 O10 2.341 . S
Tb4 O30 2.344 . S
Tb4 O33 2.344 . S
Tb4 O43 2.344 . S
Tb4 O44 2.344 . S
O5 Tb2 2.341 . S
O5 Tb3 2.341 . S
O5 H11 0.850 . S
O5 Tb13 2.341 . S
O6 Tb2 2.341 . S
O6 Tb4 2.341 . S
O6 H12 0.850 . S
O6 Tb14 2.341 . S
O7 Tb2 2.341 . S
O7 Tb13 2.341 . S
O7 Tb14 2.341 . S
O7 H15 0.850 . S
O8 Tb3 2.341 . S
O8 Tb13 2.341 . S
O8 H16 0.850 . S
O8 Tb17 2.341 . S
O9 Tb4 2.341 . S
O9 Tb14 2.341 . S
O9 Tb17 2.341 . S
O9 H18 0.850 . S
O10 Tb3 2.341 . S
O10 Tb4 2.341 . S
O10 Tb17 2.341 . S
O10 H19 0.850 . S
H11 O5 0.850 . S
H12 O6 0.850 . S
Tb13 O5 2.341 . S
Tb13 O7 2.341 . S
Tb13 O8 2.341 . S
Tb13 O20 2.341 . S
Tb13 O31 2.344 . S
Tb13 O32 2.344 . S
Tb13 O42 2.344 . S
Tb13 O45 2.344 . S
Tb14 O6 2.341 . S
Tb14 O7 2.341 . S
Tb14 O9 2.341 . S
Tb14 O20 2.341 . S
Tb14 O27 2.344 . S
Tb14 O28 2.344 . S
Tb14 O35 2.344 . S
Tb14 O36 2.344 . S
H15 O7 0.850 . S
H16 O8 0.850 . S
Tb17 O8 2.341 . S
Tb17 O9 2.341 . S
Tb17 O10 2.341 . S
Tb17 O20 2.341 . S
Tb17 O23 2.344 . S
Tb17 O24 2.344 . S
Tb17 O39 2.344 . S
Tb17 O40 2.344 . S
H18 O9 0.850 . S
H19 O10 0.850 . S
O20 Tb13 2.341 . S
O20 Tb14 2.341 . S
O20 Tb17 2.341 . S
O20 H21 0.850 . S
H21 O20 0.850 . S
O22 Tb2 2.344 . S
O22 C46 1.272 1_545 S
O23 Tb17 2.344 . S
O23 C47 1.272 . S
O24 Tb17 2.344 . S
O24 C48 1.272 . S
O25 Tb2 2.344 . S
O25 C49 1.272 . S
O26 Tb3 2.344 . S
O26 C50 1.272 . S
O27 Tb14 2.344 . S
O27 C51 1.272 . S
O28 Tb14 2.344 . S
O28 C52 1.272 . S
O29 Tb3 2.344 . S
O29 C53 1.272 . S
O30 Tb4 2.344 . S
O30 C54 1.272 . S
O31 Tb13 2.344 . S
O31 C55 1.272 . S
O32 Tb13 2.344 . S
O32 C56 1.272 . S
O33 Tb4 2.344 . S
O33 C57 1.272 1_655 S
O34 Tb3 2.344 . S
O34 C46 1.272 1_545 S
O35 Tb14 2.344 . S
O35 C47 1.272 . S
O36 Tb14 2.344 . S
O36 C49 1.272 . S
O37 Tb3 2.344 . S
O37 C48 1.272 . S
O38 Tb2 2.344 . S
O38 C56 1.272 . S
O39 Tb17 2.344 . S
O39 C57 1.272 1_655 S
O40 Tb17 2.344 . S
O40 C55 1.272 . S
O41 Tb2 2.344 . S
O41 C54 1.272 . S
O42 Tb13 2.344 . S
O42 C53 1.272 . S
O43 Tb4 2.344 . S
O43 C52 1.272 . S
O44 Tb4 2.344 . S
O44 C50 1.272 . S
O45 Tb13 2.344 . S
O45 C51 1.272 . S
C46 O22 1.272 1_565 S
C46 O34 1.272 1_565 S
C47 O23 1.272 . S
C47 O35 1.272 . S
C48 O24 1.272 . S
C48 O37 1.272 . S
C49 O25 1.272 . S
C49 O36 1.272 . S
C50 O26 1.272 . S
C50 O44 1.272 . S
C51 O27 1.272 . S
C51 O45 1.272 . S
C52 O28 1.272 . S
C52 O43 1.272 . S
C53 O29 1.272 . S
C53 O42 1.272 . S
C54 O30 1.272 . S
C54 O41 1.272 . S
C55 O31 1.272 . S
C55 O40 1.272 . S
C56 O32 1.272 . S
C56 O38 1.272 . S
C57 O33 1.272 1_455 S
C57 O39 1.272 1_455 S
H58 O59 0.850 . S
O59 H58 0.850 . S
O59 Tb60 2.341 . S
O59 Tb61 2.341 . S
O59 Tb62 2.341 . S
Tb60 O59 2.341 . S
Tb60 O63 2.341 . S
Tb60 O64 2.341 . S
Tb60 O65 2.341 . S
Tb60 O80 2.344 . S
Tb60 O83 2.344 . S
Tb60 O96 2.344 . S
Tb60 O99 2.344 . S
Tb61 O59 2.341 . S
Tb61 O63 2.341 . S
Tb61 O66 2.341 . S
Tb61 O68 2.341 . S
Tb61 O84 2.344 . S
Tb61 O87 2.344 . S
Tb61 O92 2.344 . S
Tb61 O95 2.344 . S
Tb62 O59 2.341 . S
Tb62 O64 2.341 . S
Tb62 O67 2.341 . S
Tb62 O68 2.341 . S
Tb62 O88 2.344 . S
Tb62 O91 2.344 . S
Tb62 O101 2.344 . S
Tb62 O102 2.344 . S
O63 Tb60 2.341 . S
O63 Tb61 2.341 . S
O63 H69 0.850 . S
O63 Tb71 2.341 . S
O64 Tb60 2.341 . S
O64 Tb62 2.341 . S
O64 H70 0.850 . S
O64 Tb72 2.341 . S
O65 Tb60 2.341 . S
O65 Tb71 2.341 . S
O65 Tb72 2.341 . S
O65 H73 0.850 . S
O66 Tb61 2.341 . S
O66 Tb71 2.341 . S
O66 H74 0.850 . S
O66 Tb75 2.341 . S
O67 Tb62 2.341 . S
O67 Tb72 2.341 . S
O67 Tb75 2.341 . S
O67 H76 0.850 . S
O68 Tb61 2.341 . S
O68 Tb62 2.341 . S
O68 Tb75 2.341 . S
O68 H77 0.850 . S
H69 O63 0.850 . S
H70 O64 0.850 . S
Tb71 O63 2.341 . S
Tb71 O65 2.341 . S
Tb71 O66 2.341 . S
Tb71 O78 2.341 . S
Tb71 O89 2.344 . S
Tb71 O90 2.344 . S
Tb71 O100 2.344 . S
Tb71 O103 2.344 . S
Tb72 O64 2.341 . S
Tb72 O65 2.341 . S
Tb72 O67 2.341 . S
Tb72 O78 2.341 . S
Tb72 O85 2.344 . S
Tb72 O86 2.344 . S
Tb72 O93 2.344 . S
Tb72 O94 2.344 . S
H73 O65 0.850 . S
H74 O66 0.850 . S
Tb75 O66 2.341 . S
Tb75 O67 2.341 . S
Tb75 O68 2.341 . S
Tb75 O78 2.341 . S
Tb75 O81 2.344 . S
Tb75 O82 2.344 . S
Tb75 O97 2.344 . S
Tb75 O98 2.344 . S
H76 O67 0.850 . S
H77 O68 0.850 . S
O78 Tb71 2.341 . S
O78 Tb72 2.341 . S
O78 Tb75 2.341 . S
O78 H79 0.850 . S
H79 O78 0.850 . S
O80 Tb60 2.344 . S
O80 C104 1.272 1_455 S
O81 Tb75 2.344 . S
O81 C105 1.272 . S
O82 Tb75 2.344 . S
O82 C106 1.272 . S
O83 Tb60 2.344 . S
O83 C107 1.272 . S
O84 Tb61 2.344 . S
O84 C108 1.272 . S
O85 Tb72 2.344 . S
O85 C109 1.272 . S
O86 Tb72 2.344 . S
O86 C110 1.272 1_565 S
O87 Tb61 2.344 . S
O87 C111 1.272 . S
O88 Tb62 2.344 . S
O88 C112 1.272 . S
O89 Tb71 2.344 . S
O89 C113 1.272 . S
O90 Tb71 2.344 . S
O90 C114 1.272 . S
O91 Tb62 2.344 . S
O91 C115 1.272 . S
O92 Tb61 2.344 . S
O92 C104 1.272 1_455 S
O93 Tb72 2.344 . S
O93 C105 1.272 . S
O94 Tb72 2.344 . S
O94 C107 1.272 . S
O95 Tb61 2.344 . S
O95 C106 1.272 . S
O96 Tb60 2.344 . S
O96 C114 1.272 . S
O97 Tb75 2.344 . S
O97 C115 1.272 . S
O98 Tb75 2.344 . S
O98 C113 1.272 . S
O99 Tb60 2.344 . S
O99 C112 1.272 . S
O100 Tb71 2.344 . S
O100 C111 1.272 . S
O101 Tb62 2.344 . S
O101 C110 1.272 1_565 S
O102 Tb62 2.344 . S
O102 C108 1.272 . S
O103 Tb71 2.344 . S
O103 C109 1.272 . S
C104 O80 1.272 1_655 S
C104 O92 1.272 1_655 S
C105 O81 1.272 . S
C105 O93 1.272 . S
C106 O82 1.272 . S
C106 O95 1.272 . S
C107 O83 1.272 . S
C107 O94 1.272 . S
C108 O84 1.272 . S
C108 O102 1.272 . S
C109 O85 1.272 . S
C109 O103 1.272 . S
C110 O86 1.272 1_545 S
C110 O101 1.272 1_545 S
C111 O87 1.272 . S
C111 O100 1.272 . S
C112 O88 1.272 . S
C112 O99 1.272 . S
C113 O89 1.272 . S
C113 O98 1.272 . S
C114 O90 1.272 . S
C114 O96 1.272 . S
C115 O91 1.272 . S
C115 O97 1.272 . S
C116 C117 1.387 1_554 S
C116 H120 0.950 . S
C116 C125 1.390 . S
C117 C116 1.387 1_556 S
C117 C119 1.387 . S
H118 C125 0.950 . S
C119 C117 1.387 . S
C119 C121 1.390 1_565 S
C119 H123 0.950 1_565 S
H120 C116 0.950 . S
C121 C119 1.390 1_545 S
C121 C122 1.387 1_556 S
C121 H124 0.950 . S
C122 C121 1.387 1_554 S
C122 C125 1.387 1_545 S
H123 C119 0.950 1_545 S
H124 C121 0.950 . S
C125 C116 1.390 . S
C125 H118 0.950 . S
C125 C122 1.387 1_565 S
C126 C127 1.387 . S
C126 H130 0.950 . S
C126 C135 1.390 . S
C127 C126 1.387 . S
C127 C129 1.387 . S
H128 C135 0.950 . S
C129 C127 1.387 . S
C129 C131 1.390 . S
C129 H133 0.950 . S
H130 C126 0.950 . S
C131 C129 1.390 . S
C131 C132 1.387 . S
C131 H134 0.950 . S
C132 C131 1.387 . S
C132 C135 1.387 . S
H133 C129 0.950 . S
H134 C131 0.950 . S
C135 C126 1.390 . S
C135 H128 0.950 . S
C135 C132 1.387 . S
C136 C137 1.387 1_455 S
C136 H140 0.950 . S
C136 C145 1.390 1_554 S
C137 C136 1.387 1_655 S
C137 C139 1.387 . S
H138 C145 0.950 . S
C139 C137 1.387 . S
C139 C141 1.390 1_654 S
C139 H143 0.950 . S
H140 C136 0.950 . S
C141 C139 1.390 1_456 S
C141 C142 1.387 . S
C141 H144 0.950 . S
C142 C141 1.387 . S
C142 C145 1.387 . S
H143 C139 0.950 . S
H144 C141 0.950 . S
C145 C136 1.390 1_556 S
C145 H138 0.950 . S
C145 C142 1.387 . S
C146 C147 1.387 1_545 S
C146 H150 0.950 . S
C146 C155 1.390 . S
C147 C146 1.387 1_565 S
C147 C149 1.387 . S
H148 C155 0.950 . S
C149 C147 1.387 . S
C149 C151 1.390 1_565 S
C149 H153 0.950 . S
H150 C146 0.950 . S
C151 C149 1.390 1_545 S
C151 C152 1.387 . S
C151 H154 0.950 1_545 S
C152 C151 1.387 . S
C152 C155 1.387 . S
H153 C149 0.950 . S
H154 C151 0.950 1_565 S
C155 C146 1.390 . S
C155 H148 0.950 . S
C155 C152 1.387 . S
C156 C157 1.387 1_556 S
C156 H160 0.950 . S
C156 C165 1.390 . S
C157 C156 1.387 1_554 S
C157 C159 1.387 . S
H158 C165 0.950 . S
C159 C157 1.387 . S
C159 C161 1.390 . S
C159 H163 0.950 . S
H160 C156 0.950 . S
C161 C159 1.390 . S
C161 C162 1.387 1_554 S
C161 H164 0.950 . S
C162 C161 1.387 1_556 S
C162 C165 1.387 . S
H163 C159 0.950 . S
H164 C161 0.950 . S
C165 C156 1.390 . S
C165 H158 0.950 . S
C165 C162 1.387 . S
C166 C167 1.387 . S
C166 H170 0.950 . S
C166 C175 1.390 . S
C167 C166 1.387 . S
C167 C169 1.387 . S
H168 C175 0.950 . S
C169 C167 1.387 . S
C169 C171 1.390 1_655 S
C169 H173 0.950 1_655 S
H170 C166 0.950 . S
C171 C169 1.390 1_455 S
C171 C172 1.387 . S
C171 H174 0.950 . S
C172 C171 1.387 . S
C172 C175 1.387 1_455 S
H173 C169 0.950 1_455 S
H174 C171 0.950 . S
C175 C166 1.390 . S
C175 H168 0.950 . S
C175 C172 1.387 1_655 S
C176 C177 1.387 . S
C176 H180 0.950 . S
C176 C185 1.390 . S
C177 C176 1.387 . S
C177 C179 1.387 . S
H178 C185 0.950 . S
C179 C177 1.387 . S
C179 C181 1.390 . S
C179 H183 0.950 . S
H180 C176 0.950 . S
C181 C179 1.390 . S
C181 C182 1.387 . S
C181 H184 0.950 . S
C182 C181 1.387 . S
C182 C185 1.387 . S
H183 C179 0.950 . S
H184 C181 0.950 . S
C185 C176 1.390 . S
C185 H178 0.950 . S
C185 C182 1.387 . S
C186 C187 1.387 . S
C186 H190 0.950 . S
C186 C195 1.390 . S
C187 C186 1.387 . S
C187 C189 1.387 . S
H188 C195 0.950 . S
C189 C187 1.387 . S
C189 C191 1.390 . S
C189 H193 0.950 . S
H190 C186 0.950 . S
C191 C189 1.390 . S
C191 C192 1.387 . S
C191 H194 0.950 . S
C192 C191 1.387 . S
C192 C195 1.387 . S
H193 C189 0.950 . S
H194 C191 0.950 . S
C195 C186 1.390 . S
C195 H188 0.950 . S
C195 C192 1.387 . S
C196 C197 1.387 . S
C196 H200 0.950 . S
C196 C205 1.390 . S
C197 C196 1.387 . S
C197 C199 1.387 . S
H198 C205 0.950 . S
C199 C197 1.387 . S
C199 C201 1.390 . S
C199 H203 0.950 . S
H200 C196 0.950 . S
C201 C199 1.390 . S
C201 C202 1.387 . S
C201 H204 0.950 . S
C202 C201 1.387 . S
C202 C205 1.387 . S
H203 C199 0.950 . S
H204 C201 0.950 . S
C205 C196 1.390 . S
C205 H198 0.950 . S
C205 C202 1.387 . S
C206 C207 1.387 . S
C206 H210 0.950 . S
C206 C215 1.390 . S
C207 C206 1.387 . S
C207 C209 1.387 . S
H208 C215 0.950 . S
C209 C207 1.387 . S
C209 C211 1.390 . S
C209 H213 0.950 . S
H210 C206 0.950 . S
C211 C209 1.390 . S
C211 C212 1.387 . S
C211 H214 0.950 . S
C212 C211 1.387 . S
C212 C215 1.387 . S
H213 C209 0.950 . S
H214 C211 0.950 . S
C215 C206 1.390 . S
C215 H208 0.950 . S
C215 C212 1.387 . S
C216 C217 1.387 . S
C216 H220 0.950 . S
C216 C225 1.390 . S
C217 C216 1.387 . S
C217 C219 1.387 . S
H218 C225 0.950 . S
C219 C217 1.387 . S
C219 C221 1.390 . S
C219 H223 0.950 . S
H220 C216 0.950 . S
C221 C219 1.390 . S
C221 C222 1.387 . S
C221 H224 0.950 . S
C222 C221 1.387 . S
C222 C225 1.387 . S
H223 C219 0.950 . S
H224 C221 0.950 . S
C225 C216 1.390 . S
C225 H218 0.950 . S
C225 C222 1.387 . S
C226 C227 1.387 . S
C226 H230 0.950 . S
C226 C235 1.390 . S
C227 C226 1.387 . S
C227 C229 1.387 . S
H228 C235 0.950 . S
C229 C227 1.387 . S
C229 C231 1.390 . S
C229 H233 0.950 . S
H230 C226 0.950 . S
C231 C229 1.390 . S
C231 C232 1.387 . S
C231 H234 0.950 . S
C232 C231 1.387 . S
C232 C235 1.387 . S
H233 C229 0.950 . S
H234 C231 0.950 . S
C235 C226 1.390 . S
C235 H228 0.950 . S
C235 C232 1.387 . S
C117 C107 1.918 . S
C122 C54 2.101 . S
C127 C106 2.100 . S
C132 C55 1.917 . S
C137 C52 2.100 . S
C142 C114 1.917 . S
C147 C115 2.099 . S
C152 C53 1.915 . S
C157 C49 2.099 . S
C162 C109 1.914 . S
C167 C48 1.915 . S
C172 C108 2.099 . S
C177 C50 1.250 1_565 S
C182 C51 1.250 . S
C187 C112 1.253 1_655 S
C192 C113 1.253 . S
C197 C46 1.253 . S
C202 C47 1.253 1_455 S
C207 C111 1.250 . S
C212 C110 1.250 . S
C217 C56 1.250 . S
C222 C57 1.250 . S
C227 C104 1.253 . S
C232 C105 1.253 1_545 S
