# Generated by pormake.
# Topology bnn, (5)-cn, num edge types: 1
# Building blocks:
#     Node 0, Type 0, BuildingBlock: XOMCOT_clean_sbu_1, # of connection points: 5
#     Node 1, Type 0, BuildingBlock: XOMCOT_clean_sbu_1, # of connection points: 5
#     Edge 2, Type (0, 0), BuildingBlock: FUNLAD_clean_linker_1, # of connection points: 2
#     Edge 3, Type (0, 0), BuildingBlock: FUNLAD_clean_linker_1, # of connection points: 2
#     Edge 4, Type (0, 0), BuildingBlock: FUNLAD_clean_linker_1, # of connection points: 2
#     Edge 5, Type (0, 0), BuildingBlock: FUNLAD_clean_linker_1, # of connection points: 2
#     Edge 6, Type (0, 0), BuildingBlock: FUNLAD_clean_linker_1, # of connection points: 2
# Relax obj value: 0.039
# Max RMSD: 0.098
# Mean RMSD: 0.098
data_MOF--net-bnn--node1-XOMCOT_clean_sbu_1--edge1-FUNLAD_clean_linker_1
_symmetry_space_group_name_H-M    P1
_symmetry_Int_Tables_number       1
_symmetry_cell_setting            triclinic
loop_
_symmetry_equiv_pos_as_xyz
'x, y, z'
_cell_length_a     31.322983
_cell_length_b     27.875174
_cell_length_c     18.33452
_cell_angle_alpha  95.674783
_cell_angle_beta   90.420267
_cell_angle_gamma 124.47487
loop_
_atom_site_label
_atom_site_type_symbol
_atom_site_fract_x
_atom_site_fract_y
_atom_site_fract_z
_atom_type_partial_charge
C0 C 0.3225 0.6377 0.95487 0.0
C1 C 0.32225 0.63798 0.87978 0.0
N2 N 0.33461 0.6908 0.8655 0.0
N3 N 0.33538 0.69021 0.98751 0.0
C4 C 0.34192 0.7213 0.93156 0.0
H5 H 0.3133 0.60134 0.98375 0.0
Co6 Co 0.34019 0.71313 0.0875 0.0
C7 C 0.43382 0.83572 0.11011 0.0
O8 O 0.45012 0.82345 0.16695 0.0
N9 N 0.34388 0.73694 0.18933 0.0
C10 C 0.34151 0.78634 0.29096 0.0
C11 C 0.34101 0.78204 0.21556 0.0
C12 C 0.34537 0.71408 0.25042 0.0
N13 N 0.34424 0.74337 0.31261 0.0
O14 O 0.28405 0.72062 0.07102 0.0
H15 H 0.33799 0.8098 0.18169 0.0
H16 H 0.34603 0.67587 0.2506 0.0
O17 O 0.39144 0.79563 0.07264 0.0
C18 C 0.24244 0.67228 0.08196 0.0
O19 O 0.2463 0.63181 0.10578 0.0
N20 N 0.39031 0.69721 0.10142 0.0
C21 C 0.4425 0.64259 0.103 0.0
C22 C 0.46478 0.69611 0.07385 0.0
C23 C 0.43751 0.72235 0.07251 0.0
C24 C 0.36789 0.64444 0.12727 0.0
C25 C 0.39386 0.61749 0.13089 0.0
H26 H 0.45304 0.76067 0.0445 0.0
H27 H 0.3281 0.62138 0.14169 0.0
H28 H 0.3514 0.76543 0.93889 0.0
H29 H 0.31253 0.60164 0.83924 0.0
H30 H 0.33909 0.81798 0.32642 0.0
H31 H 0.50207 0.7168 0.05068 0.0
H32 H 0.37456 0.57541 0.15163 0.0
C33 C 0.72847 0.46599 0.10018 0.0
C34 C 0.72882 0.46806 0.17559 0.0
N35 N 0.68812 0.41602 0.19194 0.0
N36 N 0.68805 0.41282 0.06941 0.0
C37 C 0.66382 0.38371 0.1268 0.0
H38 H 0.756 0.50094 0.06968 0.0
Co39 Co 0.67132 0.38727 0.96934 0.0
C40 C 0.62541 0.25901 0.95881 0.0
O41 O 0.6534 0.26283 0.90373 0.0
N42 N 0.65318 0.36154 0.86731 0.0
C43 C 0.60277 0.31588 0.76291 0.0
C44 C 0.60449 0.31922 0.83829 0.0
C45 C 0.68012 0.38383 0.80795 0.0
N46 N 0.6505 0.35683 0.74405 0.0
O47 O 0.61254 0.39137 0.97628 0.0
H48 H 0.57161 0.29371 0.87017 0.0
H49 H 0.72005 0.42099 0.81055 0.0
O50 O 0.62962 0.30492 0.98954 0.0
C51 C 0.624 0.43869 0.95305 0.0
O52 O 0.66882 0.47154 0.92497 0.0
N53 N 0.73327 0.39184 0.96422 0.0
C54 C 0.83833 0.4333 0.97843 0.0
C55 C 0.80002 0.3807 1.00472 0.0
C56 C 0.7477 0.3612 0.99845 0.0
C57 C 0.77005 0.44332 0.9397 0.0
C58 C 0.82231 0.46436 0.94494 0.0
H59 H 0.7199 0.32412 0.02561 0.0
H60 H 0.75918 0.47081 0.92091 0.0
H61 H 0.62912 0.3394 0.12132 0.0
H62 H 0.75652 0.50517 0.21492 0.0
H63 H 0.56853 0.28696 0.72562 0.0
H64 H 0.81074 0.35636 0.03331 0.0
H65 H 0.84941 0.50638 0.92651 0.0
H66 H 0.45321 0.57667 0.13983 0.0
C67 C 0.46638 0.60923 0.10183 0.0
H68 H 0.50841 0.63985 1.00819 0.0
H69 H 0.59913 0.49689 0.14321 0.0
H70 H 0.63371 0.57082 0.24966 0.0
H71 H 0.61371 0.64492 0.26243 0.0
H72 H 0.55887 0.6454 0.16899 0.0
C73 C 0.4979 0.61149 0.05092 0.0
C74 C 0.51121 0.56766 0.04359 0.0
C75 C 0.54361 0.5682 0.09869 0.0
C76 C 0.55585 0.526 0.09073 0.0
C77 C 0.58862 0.52788 0.14628 0.0
C78 C 0.6088 0.57013 0.20771 0.0
C79 C 0.59747 0.61178 0.21496 0.0
C80 C 0.56555 0.61127 0.1611 0.0
H81 H 0.59922 0.49453 0.92656 0.0
C82 C 0.59087 0.46046 0.96007 0.0
H83 H 0.55164 0.41739 0.05046 0.0
H84 H 0.44542 0.55182 0.92983 0.0
H85 H 0.41001 0.47691 0.8244 0.0
H86 H 0.43113 0.40376 0.81119 0.0
H87 H 0.48794 0.40521 0.90353 0.0
C88 C 0.55757 0.44781 1.0124 0.0
C89 C 0.53673 0.48425 0.02694 0.0
C90 C 0.50287 0.4824 0.97323 0.0
C91 C 0.49039 0.52434 0.98126 0.0
C92 C 0.45657 0.5214 0.92646 0.0
C93 C 0.43579 0.47847 0.86569 0.0
C94 C 0.44772 0.43732 0.85821 0.0
C95 C 0.48068 0.43891 0.91129 0.0
H96 H 0.90379 0.43519 0.02957 0.0
C97 C 0.89437 0.45723 0.99355 0.0
H98 H 0.92724 0.5299 0.93227 0.0
H99 H 0.13368 0.68414 0.1414 0.0
H100 H 0.08947 0.72976 0.18005 0.0
H101 H 0.99911 0.68627 0.13352 0.0
H102 H 0.95223 0.59647 0.04862 0.0
C103 C 0.93395 0.50589 0.96818 0.0
C104 C 0.98905 0.53266 0.99371 0.0
C105 C 1.01648 0.58612 0.04174 0.0
C106 C 0.06897 0.61185 0.06752 0.0
C107 C 0.09438 0.66357 0.11837 0.0
C108 C 0.06932 0.69007 0.14142 0.0
C109 C 1.01843 0.66556 0.11529 0.0
C110 C 0.99203 0.61406 0.06636 0.0
H111 H 0.1876 0.68795 0.03053 0.0
C112 C 0.19055 0.65833 0.06105 0.0
H113 H 0.15079 0.5774 0.10419 0.0
H114 H 0.94916 0.43306 0.8968 0.0
H115 H 0.99387 0.38848 0.8554 0.0
H116 H 0.08508 0.43336 0.89882 0.0
H117 H 0.13214 0.52307 0.98372 0.0
C118 C 0.14735 0.60734 0.07508 0.0
C119 C 0.0943 0.58471 0.04372 0.0
C120 C 0.06723 0.53211 0.99393 0.0
C121 C 1.0146 0.50609 0.96891 0.0
C122 C 0.98888 0.45414 0.91844 0.0
C123 C 1.01416 0.42823 0.89393 0.0
C124 C 0.0655 0.45349 0.91839 0.0
C125 C 0.09197 0.50487 0.96753 0.0
H126 H 0.50674 0.92322 0.11111 0.0
C127 C 0.46635 0.8958 0.08934 0.0
H128 H 0.40736 0.89135 0.02653 0.0
H129 H 0.60819 0.17619 0.10892 0.0
H130 H 0.59369 0.1611 0.2365 0.0
H131 H 0.52534 0.06412 0.27051 0.0
H132 H 0.47235 0.9812 0.17694 0.0
C133 C 0.44772 0.91853 0.04838 0.0
C134 C 0.48195 0.97972 0.0283 0.0
C135 C 0.50981 1.02895 0.08346 0.0
C136 C 0.54632 0.08609 0.06357 0.0
C137 C 0.57744 0.13284 0.12028 0.0
C138 C 0.56994 0.12465 0.194 0.0
C139 C 0.53168 0.06999 0.21316 0.0
C140 C 0.50188 1.02258 0.15883 0.0
H141 H 0.56004 0.19789 0.02178 0.0
C142 C 0.58861 0.20157 0.98515 0.0
H143 H 0.61829 0.15834 0.92834 0.0
H144 H 0.43368 0.89606 0.90822 0.0
H145 H 0.44182 0.91255 0.7805 0.0
H146 H 0.49921 1.01237 0.74591 0.0
H147 H 0.54892 0.09639 0.83902 0.0
C148 C 0.58999 0.15454 0.96563 0.0
C149 C 0.55158 0.09508 0.98825 0.0
C150 C 0.52148 1.04628 0.93317 0.0
C151 C 0.48729 0.98867 0.95312 0.0
C152 C 0.45937 0.94084 0.89658 0.0
C153 C 0.46383 0.94961 0.82281 0.0
C154 C 0.49615 1.0058 0.80337 0.0
C155 C 0.52467 0.05367 0.85754 0.0
H156 H 0.33943 0.75143 0.79388 0.0
C157 C 0.33763 0.71141 0.79544 0.0
H158 H 0.3372 0.64342 0.73245 0.0
H159 H 0.24808 0.6624 0.43587 0.0
H160 H 0.17462 0.57018 0.46786 0.0
H161 H 0.1756 0.53782 0.58793 0.0
H162 H 0.24995 0.59769 0.67686 0.0
C163 C 0.33925 0.68358 0.73243 0.0
C164 C 0.33954 0.70368 0.65998 0.0
C165 C 0.29613 0.66762 0.608 0.0
C166 C 0.29588 0.68583 0.5383 0.0
C167 C 0.25111 0.64995 0.48868 0.0
C168 C 0.20842 0.59706 0.50657 0.0
C169 C 0.20895 0.57888 0.57419 0.0
C170 C 0.25203 0.61365 0.62465 0.0
H171 H 0.34464 0.69028 0.3919 0.0
C172 C 0.34358 0.72799 0.38558 0.0
H173 H 0.34121 0.79642 0.44205 0.0
H174 H 0.43078 0.78173 0.74463 0.0
H175 H 0.50342 0.87477 0.71336 0.0
H176 H 0.50193 0.90741 0.59373 0.0
H177 H 0.42789 0.84676 0.50427 0.0
C178 C 0.34072 0.75755 0.44579 0.0
C179 C 0.33952 0.73962 0.52008 0.0
C180 C 0.38252 0.77623 0.57252 0.0
C181 C 0.38289 0.75795 0.6422 0.0
C182 C 0.42754 0.79414 0.69193 0.0
C183 C 0.46979 0.84753 0.67442 0.0
C184 C 0.46898 0.86588 0.60704 0.0
C185 C 0.42614 0.83068 0.55627 0.0
H186 H 0.63367 0.35744 0.26627 0.0
C187 C 0.67222 0.39695 0.26301 0.0
H188 H 0.7426 0.46436 0.32298 0.0
H189 H 0.64449 0.44679 0.62695 0.0
H190 H 0.66595 0.54074 0.59846 0.0
H191 H 0.69709 0.5738 0.47814 0.0
H192 H 0.70672 0.51293 0.38547 0.0
C193 C 0.704 0.42483 0.32473 0.0
C194 C 0.68657 0.40491 0.39794 0.0
C195 C 0.68213 0.44155 0.45214 0.0
C196 C 0.66482 0.42281 0.52193 0.0
C197 C 0.65882 0.45939 0.57384 0.0
C198 C 0.67066 0.51334 0.55801 0.0
C199 C 0.68813 0.53192 0.49025 0.0
C200 C 0.69364 0.49656 0.43762 0.0
H201 H 0.70724 0.41003 0.6681 0.0
C202 C 0.66718 0.37378 0.67229 0.0
H203 H 0.59504 0.31057 0.61252 0.0
H204 H 0.69605 0.3264 0.3097 0.0
H205 H 0.67367 0.23202 0.33785 0.0
H206 H 0.64115 0.19836 0.45743 0.0
H207 H 0.6314 0.25932 0.54997 0.0
C208 C 0.6348 0.3479 0.61087 0.0
C209 C 0.65277 0.3678 0.53787 0.0
C210 C 0.65709 0.3311 0.48368 0.0
C211 C 0.67471 0.34996 0.41402 0.0
C212 C 0.68106 0.31352 0.36243 0.0
C213 C 0.66877 0.25935 0.37811 0.0
C214 C 0.65056 0.24045 0.44549 0.0
C215 C 0.645 0.27584 0.49803 0.0
loop_
_geom_bond_atom_site_label_1
_geom_bond_atom_site_label_2
_geom_bond_distance
_geom_bond_site_symmetry_2
_ccdc_geom_bond_type
C0 C1 1.351 . S
C0 N3 1.368 . S
C0 H5 0.931 . S
C1 C0 1.351 . S
C1 N2 1.373 . S
C1 H29 0.930 . S
N2 C1 1.373 . S
N2 C4 1.340 . S
N3 C0 1.368 . S
N3 C4 1.321 . S
N3 Co6 2.135 1_556 S
C4 N2 1.340 . S
C4 N3 1.321 . S
C4 H28 0.930 . S
H5 C0 0.931 . S
Co6 N3 2.135 1_554 S
Co6 N9 2.121 . S
Co6 O14 2.055 . S
Co6 O17 2.039 . S
Co6 N20 2.140 . S
C7 O8 1.227 1_554 S
C7 O17 1.265 . S
O8 C7 1.227 1_556 S
N9 Co6 2.121 . S
N9 C11 1.375 . S
N9 C12 1.313 . S
C10 C11 1.338 . S
C10 N13 1.377 . S
C10 H30 0.930 . S
C11 N9 1.375 . S
C11 C10 1.338 . S
C11 H15 0.931 . S
C12 N9 1.313 . S
C12 N13 1.344 . S
C12 H16 0.930 . S
N13 C10 1.377 . S
N13 C12 1.344 . S
O14 Co6 2.055 . S
O14 C18 1.253 . S
H15 C11 0.931 . S
H16 C12 0.930 . S
O17 Co6 2.039 . S
O17 C7 1.265 . S
C18 O14 1.253 . S
C18 O19 1.227 . S
O19 C18 1.227 . S
N20 Co6 2.140 . S
N20 C23 1.346 1_554 S
N20 C24 1.345 . S
C21 C22 1.387 . S
C21 C25 1.391 1_556 S
C22 C21 1.387 . S
C22 C23 1.369 . S
C22 H31 0.929 . S
C23 N20 1.346 1_556 S
C23 C22 1.369 . S
C23 H26 0.928 . S
C24 N20 1.345 . S
C24 C25 1.371 . S
C24 H27 0.931 . S
C25 C21 1.391 1_554 S
C25 C24 1.371 . S
C25 H32 0.930 . S
H26 C23 0.928 . S
H27 C24 0.931 . S
H28 C4 0.930 . S
H29 C1 0.930 . S
H30 C10 0.930 . S
H31 C22 0.929 . S
H32 C25 0.930 . S
C33 C34 1.351 . S
C33 N36 1.368 . S
C33 H38 0.931 . S
C34 C33 1.351 . S
C34 N35 1.373 . S
C34 H62 0.930 . S
N35 C34 1.373 . S
N35 C37 1.340 . S
N36 C33 1.368 . S
N36 C37 1.321 . S
N36 Co39 2.135 . S
C37 N35 1.340 . S
C37 N36 1.321 . S
C37 H61 0.930 . S
H38 C33 0.931 . S
Co39 N36 2.135 . S
Co39 N42 2.121 1_554 S
Co39 O47 2.055 . S
Co39 O50 2.039 . S
Co39 N53 2.140 . S
C40 O41 1.227 . S
C40 O50 1.265 . S
O41 C40 1.227 . S
N42 Co39 2.121 1_556 S
N42 C44 1.375 . S
N42 C45 1.313 . S
C43 C44 1.338 . S
C43 N46 1.377 . S
C43 H63 0.930 . S
C44 N42 1.375 . S
C44 C43 1.338 . S
C44 H48 0.931 . S
C45 N42 1.313 . S
C45 N46 1.344 . S
C45 H49 0.930 . S
N46 C43 1.377 . S
N46 C45 1.344 . S
O47 Co39 2.055 . S
O47 C51 1.254 . S
H48 C44 0.931 . S
H49 C45 0.930 . S
O50 Co39 2.039 . S
O50 C40 1.265 . S
C51 O47 1.254 . S
C51 O52 1.226 1_554 S
O52 C51 1.226 1_556 S
N53 Co39 2.140 . S
N53 C56 1.346 . S
N53 C57 1.345 1_554 S
C54 C55 1.387 . S
C54 C58 1.391 1_554 S
C55 C54 1.387 . S
C55 C56 1.369 . S
C55 H64 0.929 . S
C56 N53 1.346 . S
C56 C55 1.369 . S
C56 H59 0.928 . S
C57 N53 1.345 1_556 S
C57 C58 1.371 . S
C57 H60 0.931 . S
C58 C54 1.391 1_556 S
C58 C57 1.371 . S
C58 H65 0.930 . S
H59 C56 0.928 . S
H60 C57 0.931 . S
H61 C37 0.930 . S
H62 C34 0.930 . S
H63 C43 0.930 . S
H64 C55 0.929 . S
H65 C58 0.930 . S
H66 C67 0.951 . S
C67 H66 0.951 . S
C67 C73 1.265 1_556 S
H68 C73 0.950 . S
H69 C77 0.949 . S
H70 C78 0.950 . S
H71 C79 0.951 . S
H72 C80 0.951 . S
C73 C67 1.265 1_554 S
C73 H68 0.950 . S
C73 C74 1.478 . S
C74 C73 1.478 . S
C74 C75 1.407 . S
C74 C91 1.385 1_554 S
C75 C74 1.407 . S
C75 C76 1.438 . S
C75 C80 1.429 . S
C76 C75 1.438 . S
C76 C77 1.428 . S
C76 C89 1.394 1_554 S
C77 H69 0.949 . S
C77 C76 1.428 . S
C77 C78 1.345 . S
C78 H70 0.950 . S
C78 C77 1.345 . S
C78 C79 1.424 . S
C79 H71 0.951 . S
C79 C78 1.424 . S
C79 C80 1.347 . S
C80 H72 0.951 . S
C80 C75 1.429 . S
C80 C79 1.347 . S
H81 C82 0.951 . S
C82 H81 0.951 . S
C82 C88 1.263 1_554 S
H83 C88 0.950 . S
H84 C92 0.949 . S
H85 C93 0.950 . S
H86 C94 0.951 . S
H87 C95 0.951 . S
C88 C82 1.263 1_556 S
C88 H83 0.950 . S
C88 C89 1.478 . S
C89 C76 1.394 1_556 S
C89 C88 1.478 . S
C89 C90 1.397 . S
C90 C89 1.397 . S
C90 C91 1.438 . S
C90 C95 1.429 . S
C91 C74 1.385 1_556 S
C91 C90 1.438 . S
C91 C92 1.428 . S
C92 H84 0.949 . S
C92 C91 1.428 . S
C92 C93 1.345 . S
C93 H85 0.950 . S
C93 C92 1.345 . S
C93 C94 1.424 . S
C94 H86 0.951 . S
C94 C93 1.424 . S
C94 C95 1.347 . S
C95 H87 0.951 . S
C95 C90 1.429 . S
C95 C94 1.347 . S
H96 C97 0.951 . S
C97 H96 0.951 . S
C97 C103 1.265 1_554 S
H98 C103 0.950 . S
H99 C107 0.949 . S
H100 C108 0.950 . S
H101 C109 0.951 1_655 S
H102 C110 0.951 . S
C103 C97 1.265 1_556 S
C103 H98 0.950 . S
C103 C104 1.478 1_556 S
C104 C103 1.478 1_554 S
C104 C105 1.397 1_554 S
C104 C121 1.394 . S
C105 C104 1.397 1_556 S
C105 C106 1.438 1_655 S
C105 C110 1.429 . S
C106 C105 1.438 1_455 S
C106 C107 1.428 . S
C106 C119 1.394 1_556 S
C107 H99 0.949 . S
C107 C106 1.428 . S
C107 C108 1.345 . S
C108 H100 0.950 . S
C108 C107 1.345 . S
C108 C109 1.424 . S
C109 H101 0.951 1_455 S
C109 C108 1.424 . S
C109 C110 1.347 1_455 S
C110 H102 0.951 . S
C110 C105 1.429 . S
C110 C109 1.347 1_655 S
H111 C112 0.951 1_556 S
C112 H111 0.951 1_554 S
C112 C118 1.265 . S
H113 C118 0.950 . S
H114 C122 0.949 . S
H115 C123 0.950 . S
H116 C124 0.951 . S
H117 C125 0.951 . S
C118 C112 1.265 . S
C118 H113 0.950 . S
C118 C119 1.478 . S
C119 C106 1.394 1_554 S
C119 C118 1.478 . S
C119 C120 1.397 . S
C120 C119 1.397 . S
C120 C121 1.438 1_455 S
C120 C125 1.429 . S
C121 C104 1.394 . S
C121 C120 1.438 1_655 S
C121 C122 1.428 . S
C122 H114 0.949 . S
C122 C121 1.428 . S
C122 C123 1.345 . S
C123 H115 0.950 . S
C123 C122 1.345 . S
C123 C124 1.424 1_655 S
C124 H116 0.951 . S
C124 C123 1.424 1_455 S
C124 C125 1.347 . S
C125 H117 0.951 . S
C125 C120 1.429 . S
C125 C124 1.347 . S
H126 C127 0.951 . S
C127 H126 0.951 . S
C127 C133 1.265 . S
H128 C133 0.950 . S
H129 C137 0.949 . S
H130 C138 0.950 . S
H131 C139 0.951 1_565 S
H132 C140 0.951 . S
C133 C127 1.265 . S
C133 H128 0.950 . S
C133 C134 1.478 . S
C134 C133 1.478 . S
C134 C135 1.397 . S
C134 C151 1.394 1_554 S
C135 C134 1.397 . S
C135 C136 1.438 1_565 S
C135 C140 1.429 . S
C136 C135 1.438 1_545 S
C136 C137 1.428 . S
C136 C149 1.394 . S
C137 H129 0.949 . S
C137 C136 1.428 . S
C137 C138 1.345 . S
C138 H130 0.950 . S
C138 C137 1.345 . S
C138 C139 1.424 . S
C139 H131 0.951 1_545 S
C139 C138 1.424 . S
C139 C140 1.347 1_545 S
C140 H132 0.951 . S
C140 C135 1.429 . S
C140 C139 1.347 1_565 S
H141 C142 0.951 . S
C142 H141 0.951 . S
C142 C148 1.265 . S
H143 C148 0.950 1_556 S
H144 C152 0.949 . S
H145 C153 0.950 . S
H146 C154 0.951 1_545 S
H147 C155 0.951 . S
C148 C142 1.265 . S
C148 H143 0.950 1_554 S
C148 C149 1.478 . S
C149 C136 1.394 . S
C149 C148 1.478 . S
C149 C150 1.397 1_554 S
C150 C149 1.397 1_556 S
C150 C151 1.438 1_545 S
C150 C155 1.429 . S
C151 C134 1.394 1_556 S
C151 C150 1.438 1_565 S
C151 C152 1.428 . S
C152 H144 0.949 . S
C152 C151 1.428 . S
C152 C153 1.345 . S
C153 H145 0.950 . S
C153 C152 1.345 . S
C153 C154 1.424 . S
C154 H146 0.951 1_565 S
C154 C153 1.424 . S
C154 C155 1.347 1_565 S
C155 H147 0.951 . S
C155 C150 1.429 . S
C155 C154 1.347 1_545 S
H156 C157 0.951 . S
C157 H156 0.951 . S
C157 C163 1.265 . S
H158 C163 0.950 . S
H159 C167 0.949 . S
H160 C168 0.950 . S
H161 C169 0.951 . S
H162 C170 0.951 . S
C163 C157 1.265 . S
C163 H158 0.950 . S
C163 C164 1.478 . S
C164 C163 1.478 . S
C164 C165 1.397 . S
C164 C181 1.394 . S
C165 C164 1.397 . S
C165 C166 1.438 . S
C165 C170 1.429 . S
C166 C165 1.438 . S
C166 C167 1.428 . S
C166 C179 1.394 . S
C167 H159 0.949 . S
C167 C166 1.428 . S
C167 C168 1.345 . S
C168 H160 0.950 . S
C168 C167 1.345 . S
C168 C169 1.424 . S
C169 H161 0.951 . S
C169 C168 1.424 . S
C169 C170 1.347 . S
C170 H162 0.951 . S
C170 C165 1.429 . S
C170 C169 1.347 . S
H171 C172 0.951 . S
C172 H171 0.951 . S
C172 C178 1.265 . S
H173 C178 0.950 . S
H174 C182 0.949 . S
H175 C183 0.950 . S
H176 C184 0.951 . S
H177 C185 0.951 . S
C178 C172 1.265 . S
C178 H173 0.950 . S
C178 C179 1.478 . S
C179 C166 1.394 . S
C179 C178 1.478 . S
C179 C180 1.397 . S
C180 C179 1.397 . S
C180 C181 1.438 . S
C180 C185 1.429 . S
C181 C164 1.394 . S
C181 C180 1.438 . S
C181 C182 1.428 . S
C182 H174 0.949 . S
C182 C181 1.428 . S
C182 C183 1.345 . S
C183 H175 0.950 . S
C183 C182 1.345 . S
C183 C184 1.424 . S
C184 H176 0.951 . S
C184 C183 1.424 . S
C184 C185 1.347 . S
C185 H177 0.951 . S
C185 C180 1.429 . S
C185 C184 1.347 . S
H186 C187 0.951 . S
C187 H186 0.951 . S
C187 C193 1.265 . S
H188 C193 0.950 . S
H189 C197 0.949 . S
H190 C198 0.950 . S
H191 C199 0.951 . S
H192 C200 0.951 . S
C193 C187 1.265 . S
C193 H188 0.950 . S
C193 C194 1.478 . S
C194 C193 1.478 . S
C194 C195 1.397 . S
C194 C211 1.394 . S
C195 C194 1.397 . S
C195 C196 1.438 . S
C195 C200 1.429 . S
C196 C195 1.438 . S
C196 C197 1.428 . S
C196 C209 1.394 . S
C197 H189 0.949 . S
C197 C196 1.428 . S
C197 C198 1.345 . S
C198 H190 0.950 . S
C198 C197 1.345 . S
C198 C199 1.424 . S
C199 H191 0.951 . S
C199 C198 1.424 . S
C199 C200 1.347 . S
C200 H192 0.951 . S
C200 C195 1.429 . S
C200 C199 1.347 . S
H201 C202 0.951 . S
C202 H201 0.951 . S
C202 C208 1.265 . S
H203 C208 0.950 . S
H204 C212 0.949 . S
H205 C213 0.950 . S
H206 C214 0.951 . S
H207 C215 0.951 . S
C208 C202 1.265 . S
C208 H203 0.950 . S
C208 C209 1.478 . S
C209 C196 1.394 . S
C209 C208 1.478 . S
C209 C210 1.397 . S
C210 C209 1.397 . S
C210 C211 1.438 . S
C210 C215 1.429 . S
C211 C194 1.394 . S
C211 C210 1.438 . S
C211 C212 1.428 . S
C212 H204 0.949 . S
C212 C211 1.428 . S
C212 C213 1.345 . S
C213 H205 0.950 . S
C213 C212 1.345 . S
C213 C214 1.424 . S
C214 H206 0.951 . S
C214 C213 1.424 . S
C214 C215 1.347 . S
C215 H207 0.951 . S
C215 C210 1.429 . S
C215 C214 1.347 . S
C67 C21 1.495 . S
C82 C51 1.499 . S
C97 C54 1.500 . S
C112 C18 1.497 . S
C127 C7 1.481 . S
C142 C40 1.488 . S
C157 N2 1.413 . S
C172 N13 1.417 . S
C187 N35 1.422 . S
C202 N46 1.425 . S
