# Generated by pormake.
# Topology sxc, (6)-cn, num edge types: 1
# Building blocks:
#     Node 0, Type 0, BuildingBlock: BETDEL_clean_sbu_0, # of connection points: 6
#     Node 1, Type 0, BuildingBlock: BETDEL_clean_sbu_0, # of connection points: 6
#     Node 2, Type 0, BuildingBlock: BETDEL_clean_sbu_0, # of connection points: 6
#     Edge 3, Type (0, 0), BuildingBlock: KIFKEQ_clean_linker_1, # of connection points: 2
#     Edge 4, Type (0, 0), BuildingBlock: KIFKEQ_clean_linker_1, # of connection points: 2
#     Edge 5, Type (0, 0), BuildingBlock: KIFKEQ_clean_linker_1, # of connection points: 2
#     Edge 6, Type (0, 0), BuildingBlock: KIFKEQ_clean_linker_1, # of connection points: 2
#     Edge 7, Type (0, 0), BuildingBlock: KIFKEQ_clean_linker_1, # of connection points: 2
#     Edge 8, Type (0, 0), BuildingBlock: KIFKEQ_clean_linker_1, # of connection points: 2
#     Edge 9, Type (0, 0), BuildingBlock: KIFKEQ_clean_linker_1, # of connection points: 2
#     Edge 10, Type (0, 0), BuildingBlock: KIFKEQ_clean_linker_1, # of connection points: 2
#     Edge 11, Type (0, 0), BuildingBlock: KIFKEQ_clean_linker_1, # of connection points: 2
# Relax obj value: 0.045
# Max RMSD: 0.048
# Mean RMSD: 0.037
data_MOF--net-sxc--node1-BETDEL_clean_sbu_0--edge1-KIFKEQ_clean_linker_1
_symmetry_space_group_name_H-M    P1
_symmetry_Int_Tables_number       1
_symmetry_cell_setting            triclinic
loop_
_symmetry_equiv_pos_as_xyz
'x, y, z'
_cell_length_a     16.105068
_cell_length_b     15.768089
_cell_length_c     43.928772
_cell_angle_alpha  92.716871
_cell_angle_beta   95.664079
_cell_angle_gamma 113.98558
loop_
_atom_site_label
_atom_site_type_symbol
_atom_site_fract_x
_atom_site_fract_y
_atom_site_fract_z
_atom_type_partial_charge
Dy0 Dy 0.18678 0.06529 0.03018 0.0
C1 C 0.79617 0.84848 0.02876 0.0
C2 C 0.34431 0.18258 1.01043 0.0
Dy3 Dy 0.97201 0.97457 0.02813 0.0
O4 O 0.34072 0.13364 0.03377 0.0
O5 O 0.26205 0.16119 0.99691 0.0
O6 O 0.22472 0.08925 0.08196 0.0
O7 O 0.08926 0.03268 0.06233 0.0
C8 C 0.14011 0.05738 0.08762 0.0
C9 C 1.03815 0.02498 0.97523 0.0
O10 O 0.99545 0.12143 0.04265 0.0
O11 O 0.14257 0.18368 0.02837 0.0
O12 O 0.83136 0.88551 1.00479 0.0
O13 O 0.856 0.88537 0.05313 0.0
O14 O 0.96587 0.03294 0.98311 0.0
O15 O 0.06974 0.98727 0.99532 0.0
O16 O 0.16759 0.91645 0.02507 0.0
O17 O 1.01254 0.85374 0.03189 0.0
C18 C 0.06942 0.19337 0.03657 0.0
C19 C 0.09011 0.84487 0.02883 0.0
Dy20 Dy 0.94472 1.01878 0.36288 0.0
C21 C 0.31638 0.17961 0.34509 0.0
C22 C 0.78853 0.97181 0.38895 0.0
Dy23 Dy 0.13974 0.11142 0.35664 0.0
O24 O 0.79316 0.94123 0.36142 0.0
O25 O 0.86967 0.02756 0.4019 0.0
O26 O 0.91003 0.95062 0.31437 0.0
O27 O 1.01778 0.08383 0.32501 0.0
C28 C 0.97781 1.01713 0.30437 0.0
C29 C 0.10237 0.10725 0.41516 0.0
O30 O 0.10277 0.22765 0.34468 0.0
O31 O 0.9678 0.17123 0.366 0.0
O32 O 0.28501 0.21426 0.36607 0.0
O33 O 0.24928 0.1085 0.32953 0.0
O34 O 0.16615 0.17726 0.40538 0.0
O35 O 0.06649 0.04229 0.39393 0.0
O36 O 0.97896 0.89787 0.36994 0.0
O37 O 0.11604 0.95939 0.34967 0.0
C38 C 1.03464 0.24054 0.35535 0.0
C39 C 1.04855 0.88794 0.35922 0.0
Dy40 Dy 1.03797 0.94279 0.69451 0.0
C41 C 0.24761 0.31732 0.68382 0.0
C42 C 0.91199 0.76556 0.69979 0.0
Dy43 Dy 0.12262 0.14585 0.69506 0.0
O44 O 0.95038 0.79487 0.67552 0.0
O45 O 0.94848 0.83163 0.72218 0.0
O46 O 0.07931 0.92816 0.64838 0.0
O47 O 1.03979 0.03698 0.6589 0.0
C48 C 0.07016 1.00084 0.63888 0.0
C49 C 0.08926 0.08926 0.75058 0.0
O50 O 0.97638 0.13235 0.68531 0.0
O51 O 0.91842 0.98223 0.69938 0.0
O52 O 0.20993 0.2987 0.70892 0.0
O53 O 0.21065 0.24397 0.66415 0.0
O54 O 0.08117 0.16241 0.74092 0.0
O55 O 0.12052 0.0524 0.73101 0.0
O56 O 0.18322 0.95392 0.70404 0.0
O57 O 0.24425 0.10766 0.6934 0.0
C58 C 0.90633 0.05776 0.69233 0.0
C59 C 0.25477 0.03037 0.69906 0.0
H60 H 0.19343 0.34463 1.01385 0.0
H61 H 0.95035 0.259 0.05947 0.0
H62 H 0.19789 0.49931 1.01229 0.0
H63 H 0.95689 0.41679 0.05899 0.0
H64 H 0.93957 0.67849 0.02375 0.0
H65 H 0.93422 0.52297 0.02665 0.0
H66 H 0.23033 0.63974 0.04121 0.0
H67 H 0.23549 0.79543 0.03708 0.0
C68 C 0.14125 0.35895 0.02397 0.0
C69 C 0.07142 0.28873 0.03688 0.0
C70 C 0.14432 0.44861 0.02324 0.0
C71 C 0.07824 0.4717 0.03566 0.0
C72 C 1.00846 0.40164 0.0488 0.0
C73 C 1.00486 0.31111 0.04927 0.0
C74 C 1.00375 0.67119 0.0275 0.0
C75 C 0.08813 0.74986 0.03003 0.0
C76 C 1.00058 0.58161 0.02945 0.0
C77 C 0.0817 0.56788 0.03427 0.0
C78 C 0.1662 0.64683 0.03696 0.0
C79 C 0.16936 0.7365 0.03468 0.0
H80 H 0.39733 0.10574 0.30682 0.0
H81 H 0.44121 0.25999 0.39523 0.0
H82 H 0.50976 0.04769 0.32544 0.0
H83 H 0.54548 0.19498 0.41488 0.0
H84 H 0.78274 0.10317 0.42925 0.0
H85 H 0.6768 0.17357 0.41833 0.0
H86 H 0.49939 0.92962 0.3571 0.0
H87 H 0.61159 0.86376 0.36579 0.0
C88 C 0.43323 0.12938 0.3299 0.0
C89 C 0.40894 0.18447 0.34992 0.0
C90 C 0.4952 0.09386 0.34096 0.0
C91 C 0.53165 0.1117 0.37225 0.0
C92 C 0.51723 0.17796 0.39086 0.0
C93 C 0.4579 0.21606 0.37945 0.0
C94 C 0.71934 0.06293 0.41437 0.0
C95 C 0.70686 0.98073 0.397 0.0
C96 C 0.65864 0.10378 0.40789 0.0
C97 C 0.58275 0.0598 0.38524 0.0
C98 C 0.56076 0.96792 0.3731 0.0
C99 C 0.62334 0.92875 0.37873 0.0
H100 H 0.80533 0.65878 0.64882 0.0
H101 H 0.80933 0.70186 0.74677 0.0
H102 H 0.64351 0.55801 0.64344 0.0
H103 H 0.6474 0.59483 0.74191 0.0
H104 H 0.33846 0.47785 0.72224 0.0
H105 H 0.50082 0.58271 0.72618 0.0
H106 H 0.52984 0.41832 0.64957 0.0
H107 H 0.36752 0.31913 0.64448 0.0
C108 C 0.77208 0.64409 0.66942 0.0
C109 C 0.82019 0.68808 0.69825 0.0
C110 C 0.67867 0.58588 0.66636 0.0
C111 C 0.63091 0.56816 0.69217 0.0
C112 C 0.68066 0.60844 0.72132 0.0
C113 C 0.77406 0.66844 0.72428 0.0
C114 C 0.37944 0.46628 0.70575 0.0
C115 C 0.34011 0.39112 0.68284 0.0
C116 C 0.47305 0.52518 0.70834 0.0
C117 C 0.52986 0.5089 0.68849 0.0
C118 C 0.48909 0.43485 0.66504 0.0
C119 C 0.39542 0.37759 0.66204 0.0
H120 H 0.75942 0.92741 0.71521 0.0
H121 H 0.83579 0.18277 0.67153 0.0
H122 H 0.60719 0.92076 0.71756 0.0
H123 H 0.68101 0.17437 0.67253 0.0
H124 H 0.41835 0.18319 0.69999 0.0
H125 H 0.57144 0.19079 0.69864 0.0
H126 H 0.46267 0.89031 0.69503 0.0
H127 H 0.30929 0.88366 0.6978 0.0
C128 C 0.74377 0.98223 0.70578 0.0
C129 C 0.81158 0.05587 0.69317 0.0
C130 C 0.65492 0.97791 0.7069 0.0
C131 C 0.62883 0.04656 0.69517 0.0
C132 C 0.69688 0.12033 0.68241 0.0
C133 C 0.78648 0.12514 0.68159 0.0
C134 C 0.42665 0.11834 0.69909 0.0
C135 C 0.34992 0.03263 0.69917 0.0
C136 C 0.51555 0.1227 0.69798 0.0
C137 C 0.5322 0.04139 0.69653 0.0
C138 C 0.45507 0.95538 0.69665 0.0
C139 C 0.36596 0.95117 0.69811 0.0
H140 H 0.73203 0.73708 0.07465 0.0
H141 H 0.68755 0.7518 0.97687 0.0
H142 H 0.6257 0.57237 0.06795 0.0
H143 H 0.58634 0.58742 0.96982 0.0
H144 H 0.34328 0.30951 0.97132 0.0
H145 H 0.44547 0.47345 0.9765 0.0
H146 H 0.61961 0.42619 0.04898 0.0
H147 H 0.51314 0.26178 0.04486 0.0
C148 C 0.69821 0.70545 0.05184 0.0
C149 C 0.71769 0.75707 0.02631 0.0
C150 C 0.6388 0.6107 0.04786 0.0
C151 C 0.59868 0.56581 0.01824 0.0
C152 C 0.61512 0.61925 0.99299 0.0
C153 C 0.67322 0.71386 0.99703 0.0
C154 C 0.40453 0.33359 0.98789 0.0
C155 C 0.42015 0.27299 1.00778 0.0
C156 C 0.46327 0.428 0.99093 0.0
C157 C 0.5402 0.46383 1.01356 0.0
C158 C 0.55953 0.40157 0.03192 0.0
C159 C 0.4997 0.30701 0.02917 0.0
H160 H 0.89242 0.29099 0.36201 0.0
H161 H 0.17774 0.4027 0.34813 0.0
H162 H 0.89567 0.44714 0.36157 0.0
H163 H 0.18241 0.55835 0.34911 0.0
H164 H 0.14367 0.81802 0.32473 0.0
H165 H 0.13677 0.66015 0.32216 0.0
H166 H 0.95213 0.59131 0.39126 0.0
H167 H 0.95607 0.74685 0.39272 0.0
C168 C 0.95584 0.34888 0.35902 0.0
C169 C 1.03457 0.33433 0.35498 0.0
C170 C 0.95807 0.43863 0.35896 0.0
C171 C 1.03949 0.51596 0.35533 0.0
C172 C 0.11802 0.50078 0.35133 0.0
C173 C 0.11542 0.41121 0.35097 0.0
C174 C 0.10196 0.76904 0.33939 0.0
C175 C 0.05021 0.79478 0.3588 0.0
C176 C 0.09804 0.67851 0.33802 0.0
C177 C 1.04332 0.61224 0.35639 0.0
C178 C 0.99317 0.6392 0.37621 0.0
C179 C 0.99611 0.72896 0.37725 0.0
H180 H 0.11227 0.15665 0.2809 0.0
H181 H 0.88777 0.88737 0.25519 0.0
H182 H 0.14662 0.16522 0.22809 0.0
H183 H 0.92311 0.89508 0.20209 0.0
H184 H 0.96579 0.99258 0.10385 0.0
H185 H 0.92266 0.98095 0.15609 0.0
H186 H 0.20875 0.08958 0.19332 0.0
H187 H 0.2511 0.10197 0.14157 0.0
C188 C 0.07026 0.09917 0.26391 0.0
C189 C 0.99738 0.02131 0.27215 0.0
C190 C 0.09023 0.10381 0.23365 0.0
C191 C 1.03791 0.03061 0.21084 0.0
C192 C 0.9642 0.95301 0.21903 0.0
C193 C 0.94431 0.9483 0.24944 0.0
C194 C 1.01903 1.01352 0.12328 0.0
C195 C 0.11166 0.04818 0.1187 0.0
C196 C 0.9945 1.00664 0.15315 0.0
C197 C 0.06232 0.03489 0.17892 0.0
C198 C 0.1548 0.06873 0.17409 0.0
C199 C 0.17909 0.07534 0.14439 0.0
H200 H 0.17895 0.24006 0.464 0.0
H201 H 0.99746 0.94998 0.44004 0.0
H202 H 0.16697 0.2186 0.51856 0.0
H203 H 0.98566 0.92854 0.4944 0.0
H204 H 0.09832 0.902 0.59203 0.0
H205 H 0.10001 0.93119 0.53818 0.0
H206 H 0.05214 0.17713 0.55811 0.0
H207 H 0.04973 0.14726 0.61255 0.0
C208 C 0.13596 0.172 0.47041 0.0
C209 C 0.08986 0.09645 0.44786 0.0
C210 C 0.12872 0.15988 0.50158 0.0
C211 C 0.07599 0.07175 0.51076 0.0
C212 C 1.02775 0.997 0.48805 0.0
C213 C 1.03427 1.00931 0.45694 0.0
C214 C 0.08801 0.96234 0.58501 0.0
C215 C 0.07345 0.02215 0.60648 0.0
C216 C 0.08844 0.97869 0.55409 0.0
C217 C 0.07531 0.05589 0.54385 0.0
C218 C 0.06249 0.11707 0.56539 0.0
C219 C 0.06092 0.09995 0.59645 0.0
H220 H 0.18899 1.01788 0.78735 0.0
H221 H 0.97388 0.11445 0.78636 0.0
H222 H 0.18882 1.00583 0.84286 0.0
H223 H 0.96903 0.09735 0.8408 0.0
H224 H 1.03285 0.16 0.941 0.0
H225 H 0.05259 0.17371 0.88709 0.0
H226 H 0.11449 0.93112 0.88431 0.0
H227 H 0.10045 0.92205 0.93927 0.0
C228 C 0.14044 0.03456 0.79895 0.0
C229 C 0.08209 0.06802 0.7828 0.0
C230 C 0.14018 0.02772 0.83073 0.0
C231 C 0.08048 0.05284 0.84672 0.0
C232 C 1.01868 0.08096 0.8298 0.0
C233 C 1.02042 0.08965 0.79842 0.0
C234 C 0.05236 0.11076 0.92893 0.0
C235 C 0.0646 0.03976 0.94409 0.0
C236 C 0.06249 0.1176 0.89787 0.0
C237 C 0.08222 0.05164 0.88082 0.0
C238 C 0.09919 0.98318 0.89652 0.0
C239 C 0.0912 0.97782 0.92801 0.0
loop_
_geom_bond_atom_site_label_1
_geom_bond_atom_site_label_2
_geom_bond_distance
_geom_bond_site_symmetry_2
_ccdc_geom_bond_type
Dy0 O4 2.398 . S
Dy0 O5 2.491 1_554 S
Dy0 O6 2.403 . S
Dy0 O7 2.664 1_545 S
Dy0 O11 2.326 . S
Dy0 O15 2.310 1_554 S
Dy0 O16 2.351 1_545 S
C1 O12 1.185 1_554 S
C1 O13 1.355 . S
C2 O4 1.185 . S
C2 O5 1.355 1_554 S
Dy3 O7 2.310 1_655 S
Dy3 O10 2.351 1_565 S
Dy3 O12 2.398 1_554 S
Dy3 O13 2.491 . S
Dy3 O14 2.403 1_554 S
Dy3 O15 2.664 1_664 S
Dy3 O17 2.326 1_554 S
O4 Dy0 2.398 . S
O4 C2 1.185 . S
O5 Dy0 2.491 1_556 S
O5 C2 1.355 1_556 S
O6 Dy0 2.403 . S
O6 C8 1.254 . S
O7 Dy0 2.664 1_565 S
O7 Dy3 2.310 1_455 S
O7 C8 1.268 1_565 S
C8 O6 1.254 . S
C8 O7 1.268 1_545 S
C9 O14 1.254 1_445 S
C9 O15 1.268 . S
O10 Dy3 2.351 1_545 S
O10 C18 1.249 1_655 S
O11 Dy0 2.326 . S
O11 C18 1.267 . S
O12 C1 1.185 1_556 S
O12 Dy3 2.398 1_556 S
O13 C1 1.355 . S
O13 Dy3 2.491 . S
O14 Dy3 2.403 1_556 S
O14 C9 1.254 1_665 S
O15 Dy0 2.310 1_556 S
O15 Dy3 2.664 1_446 S
O15 C9 1.268 . S
O16 Dy0 2.351 1_565 S
O16 C19 1.249 . S
O17 Dy3 2.326 1_556 S
O17 C19 1.267 1_656 S
C18 O10 1.249 1_455 S
C18 O11 1.267 . S
C19 O16 1.249 . S
C19 O17 1.267 1_454 S
Dy20 O24 2.398 . S
Dy20 O25 2.491 1_565 S
Dy20 O26 2.403 . S
Dy20 O27 2.664 1_665 S
Dy20 O31 2.326 1_565 S
Dy20 O35 2.310 1_565 S
Dy20 O36 2.351 . S
C21 O32 1.185 . S
C21 O33 1.355 . S
C22 O24 1.185 1_545 S
C22 O25 1.355 . S
Dy23 O27 2.310 . S
Dy23 O30 2.351 . S
Dy23 O32 2.398 . S
Dy23 O33 2.491 . S
Dy23 O34 2.403 . S
Dy23 O35 2.664 1_455 S
Dy23 O37 2.326 1_545 S
O24 Dy20 2.398 . S
O24 C22 1.185 1_565 S
O25 Dy20 2.491 1_545 S
O25 C22 1.355 . S
O26 Dy20 2.403 . S
O26 C28 1.255 . S
O27 Dy20 2.664 1_445 S
O27 Dy23 2.310 . S
O27 C28 1.268 1_445 S
C28 O26 1.255 . S
C28 O27 1.268 1_665 S
C29 O34 1.254 . S
C29 O35 1.268 1_455 S
O30 Dy23 2.351 . S
O30 C38 1.249 . S
O31 Dy20 2.326 1_545 S
O31 C38 1.267 1_655 S
O32 C21 1.185 . S
O32 Dy23 2.398 . S
O33 C21 1.355 . S
O33 Dy23 2.491 . S
O34 Dy23 2.403 . S
O34 C29 1.254 . S
O35 Dy20 2.310 1_545 S
O35 Dy23 2.664 1_655 S
O35 C29 1.268 1_655 S
O36 Dy20 2.351 . S
O36 C39 1.249 1_655 S
O37 Dy23 2.326 1_565 S
O37 C39 1.267 . S
C38 O30 1.249 . S
C38 O31 1.267 1_455 S
C39 O36 1.249 1_455 S
C39 O37 1.267 . S
Dy40 O44 2.398 . S
Dy40 O45 2.491 . S
Dy40 O46 2.403 . S
Dy40 O47 2.664 1_665 S
Dy40 O51 2.326 . S
Dy40 O55 2.310 1_565 S
Dy40 O56 2.351 1_655 S
C41 O52 1.185 . S
C41 O53 1.355 . S
C42 O44 1.185 . S
C42 O45 1.355 . S
Dy43 O47 2.310 . S
Dy43 O50 2.351 1_455 S
Dy43 O52 2.398 . S
Dy43 O53 2.491 . S
Dy43 O54 2.403 . S
Dy43 O55 2.664 1_455 S
Dy43 O57 2.326 . S
O44 Dy40 2.398 . S
O44 C42 1.185 . S
O45 Dy40 2.491 . S
O45 C42 1.355 . S
O46 Dy40 2.403 . S
O46 C48 1.254 1_665 S
O47 Dy40 2.664 1_445 S
O47 Dy43 2.310 . S
O47 C48 1.268 . S
C48 O46 1.254 1_445 S
C48 O47 1.268 . S
C49 O54 1.254 . S
C49 O55 1.268 1_455 S
O50 Dy43 2.351 1_655 S
O50 C58 1.249 . S
O51 Dy40 2.326 . S
O51 C58 1.267 1_565 S
O52 C41 1.185 . S
O52 Dy43 2.398 . S
O53 C41 1.355 . S
O53 Dy43 2.491 . S
O54 Dy43 2.403 . S
O54 C49 1.254 . S
O55 Dy40 2.310 1_545 S
O55 Dy43 2.664 1_655 S
O55 C49 1.268 1_655 S
O56 Dy40 2.351 1_455 S
O56 C59 1.249 1_565 S
O57 Dy43 2.326 . S
O57 C59 1.267 . S
C58 O50 1.249 . S
C58 O51 1.267 1_545 S
C59 O56 1.249 1_545 S
C59 O57 1.267 . S
H60 C68 0.950 . S
H61 C73 0.950 . S
H62 C70 0.950 . S
H63 C72 0.950 . S
H64 C74 0.950 . S
H65 C76 0.950 . S
H66 C78 0.950 . S
H67 C79 0.950 . S
C68 H60 0.950 . S
C68 C69 1.386 . S
C68 C70 1.391 . S
C69 C68 1.386 . S
C69 C73 1.393 1_455 S
C70 H62 0.950 . S
C70 C68 1.391 . S
C70 C71 1.400 . S
C71 C70 1.400 . S
C71 C72 1.398 1_455 S
C71 C77 1.491 . S
C72 H63 0.950 . S
C72 C71 1.398 1_655 S
C72 C73 1.391 . S
C73 H61 0.950 . S
C73 C69 1.393 1_655 S
C73 C72 1.391 . S
C74 H64 0.950 . S
C74 C75 1.386 1_655 S
C74 C76 1.391 . S
C75 C74 1.386 1_455 S
C75 C79 1.393 . S
C76 H65 0.950 . S
C76 C74 1.391 . S
C76 C77 1.400 1_655 S
C77 C71 1.491 . S
C77 C76 1.400 1_455 S
C77 C78 1.398 . S
C78 H66 0.950 . S
C78 C77 1.398 . S
C78 C79 1.391 . S
C79 H67 0.950 . S
C79 C75 1.393 . S
C79 C78 1.391 . S
H80 C88 0.950 . S
H81 C93 0.950 . S
H82 C90 0.950 . S
H83 C92 0.950 . S
H84 C94 0.950 . S
H85 C96 0.950 . S
H86 C98 0.950 . S
H87 C99 0.950 . S
C88 H80 0.950 . S
C88 C89 1.389 . S
C88 C90 1.391 . S
C89 C88 1.389 . S
C89 C93 1.386 1_545 S
C90 H82 0.950 . S
C90 C88 1.391 . S
C90 C91 1.400 . S
C91 C90 1.400 . S
C91 C92 1.398 1_545 S
C91 C97 1.491 . S
C92 H83 0.950 . S
C92 C91 1.398 1_565 S
C92 C93 1.391 . S
C93 H81 0.950 . S
C93 C89 1.386 1_565 S
C93 C92 1.391 . S
C94 H84 0.950 . S
C94 C95 1.386 1_565 S
C94 C96 1.391 . S
C95 C94 1.386 1_545 S
C95 C99 1.393 . S
C96 H85 0.950 . S
C96 C94 1.391 . S
C96 C97 1.400 1_565 S
C97 C91 1.491 . S
C97 C96 1.400 1_545 S
C97 C98 1.398 . S
C98 H86 0.950 . S
C98 C97 1.398 . S
C98 C99 1.391 . S
C99 H87 0.950 . S
C99 C95 1.393 . S
C99 C98 1.391 . S
H100 C108 0.950 . S
H101 C113 0.950 . S
H102 C110 0.950 . S
H103 C112 0.950 . S
H104 C114 0.950 . S
H105 C116 0.950 . S
H106 C118 0.950 . S
H107 C119 0.950 . S
C108 H100 0.950 . S
C108 C109 1.386 . S
C108 C110 1.391 . S
C109 C108 1.386 . S
C109 C113 1.393 . S
C110 H102 0.950 . S
C110 C108 1.391 . S
C110 C111 1.400 . S
C111 C110 1.400 . S
C111 C112 1.398 . S
C111 C117 1.491 . S
C112 H103 0.950 . S
C112 C111 1.398 . S
C112 C113 1.391 . S
C113 H101 0.950 . S
C113 C109 1.393 . S
C113 C112 1.391 . S
C114 H104 0.950 . S
C114 C115 1.386 . S
C114 C116 1.391 . S
C115 C114 1.386 . S
C115 C119 1.393 . S
C116 H105 0.950 . S
C116 C114 1.391 . S
C116 C117 1.400 . S
C117 C111 1.491 . S
C117 C116 1.400 . S
C117 C118 1.398 . S
C118 H106 0.950 . S
C118 C117 1.398 . S
C118 C119 1.391 . S
C119 H107 0.950 . S
C119 C115 1.393 . S
C119 C118 1.391 . S
H120 C128 0.950 . S
H121 C133 0.950 . S
H122 C130 0.950 . S
H123 C132 0.950 . S
H124 C134 0.950 . S
H125 C136 0.950 . S
H126 C138 0.950 . S
H127 C139 0.950 . S
C128 H120 0.950 . S
C128 C129 1.386 1_565 S
C128 C130 1.391 . S
C129 C128 1.386 1_545 S
C129 C133 1.393 . S
C130 H122 0.950 . S
C130 C128 1.391 . S
C130 C131 1.400 1_565 S
C131 C130 1.400 1_545 S
C131 C132 1.398 . S
C131 C137 1.491 . S
C132 H123 0.950 . S
C132 C131 1.398 . S
C132 C133 1.391 . S
C133 H121 0.950 . S
C133 C129 1.393 . S
C133 C132 1.391 . S
C134 H124 0.950 . S
C134 C135 1.386 . S
C134 C136 1.391 . S
C135 C134 1.386 . S
C135 C139 1.393 1_545 S
C136 H125 0.950 . S
C136 C134 1.391 . S
C136 C137 1.400 . S
C137 C131 1.491 . S
C137 C136 1.400 . S
C137 C138 1.398 1_545 S
C138 H126 0.950 . S
C138 C137 1.398 1_565 S
C138 C139 1.391 . S
C139 H127 0.950 . S
C139 C135 1.393 1_565 S
C139 C138 1.391 . S
H140 C148 0.950 . S
H141 C153 0.950 1_556 S
H142 C150 0.950 . S
H143 C152 0.950 1_556 S
H144 C154 0.950 1_556 S
H145 C156 0.950 1_556 S
H146 C158 0.950 . S
H147 C159 0.950 . S
C148 H140 0.950 . S
C148 C149 1.386 . S
C148 C150 1.391 . S
C149 C148 1.386 . S
C149 C153 1.393 . S
C150 H142 0.950 . S
C150 C148 1.391 . S
C150 C151 1.400 . S
C151 C150 1.400 . S
C151 C152 1.398 . S
C151 C157 1.491 . S
C152 H143 0.950 1_554 S
C152 C151 1.398 . S
C152 C153 1.391 . S
C153 H141 0.950 1_554 S
C153 C149 1.393 . S
C153 C152 1.391 . S
C154 H144 0.950 1_554 S
C154 C155 1.386 . S
C154 C156 1.391 . S
C155 C154 1.386 . S
C155 C159 1.393 . S
C156 H145 0.950 1_554 S
C156 C154 1.391 . S
C156 C157 1.400 . S
C157 C151 1.491 . S
C157 C156 1.400 . S
C157 C158 1.398 . S
C158 H146 0.950 . S
C158 C157 1.398 . S
C158 C159 1.391 . S
C159 H147 0.950 . S
C159 C155 1.393 . S
C159 C158 1.391 . S
H160 C168 0.950 . S
H161 C173 0.950 . S
H162 C170 0.950 . S
H163 C172 0.950 . S
H164 C174 0.950 . S
H165 C176 0.950 . S
H166 C178 0.950 . S
H167 C179 0.950 . S
C168 H160 0.950 . S
C168 C169 1.386 1_655 S
C168 C170 1.391 . S
C169 C168 1.386 1_455 S
C169 C173 1.393 . S
C170 H162 0.950 . S
C170 C168 1.391 . S
C170 C171 1.400 1_655 S
C171 C170 1.400 1_455 S
C171 C172 1.398 . S
C171 C177 1.491 . S
C172 H163 0.950 . S
C172 C171 1.398 . S
C172 C173 1.391 . S
C173 H161 0.950 . S
C173 C169 1.393 . S
C173 C172 1.391 . S
C174 H164 0.950 . S
C174 C175 1.386 . S
C174 C176 1.391 . S
C175 C174 1.386 . S
C175 C179 1.393 1_455 S
C176 H165 0.950 . S
C176 C174 1.391 . S
C176 C177 1.400 . S
C177 C171 1.491 . S
C177 C176 1.400 . S
C177 C178 1.398 1_455 S
C178 H166 0.950 . S
C178 C177 1.398 1_655 S
C178 C179 1.391 . S
C179 H167 0.950 . S
C179 C175 1.393 1_655 S
C179 C178 1.391 . S
H180 C188 0.950 . S
H181 C193 0.950 . S
H182 C190 0.950 . S
H183 C192 0.950 . S
H184 C194 0.950 . S
H185 C196 0.950 . S
H186 C198 0.950 . S
H187 C199 0.950 . S
C188 H180 0.950 . S
C188 C189 1.386 . S
C188 C190 1.391 . S
C189 C188 1.386 . S
C189 C193 1.393 1_445 S
C190 H182 0.950 . S
C190 C188 1.391 . S
C190 C191 1.400 . S
C191 C190 1.400 . S
C191 C192 1.398 1_445 S
C191 C197 1.491 . S
C192 H183 0.950 . S
C192 C191 1.398 1_665 S
C192 C193 1.391 . S
C193 H181 0.950 . S
C193 C189 1.393 1_665 S
C193 C192 1.391 . S
C194 H184 0.950 . S
C194 C195 1.386 1_665 S
C194 C196 1.391 . S
C195 C194 1.386 1_445 S
C195 C199 1.393 . S
C196 H185 0.950 . S
C196 C194 1.391 . S
C196 C197 1.400 1_665 S
C197 C191 1.491 . S
C197 C196 1.400 1_445 S
C197 C198 1.398 . S
C198 H186 0.950 . S
C198 C197 1.398 . S
C198 C199 1.391 . S
C199 H187 0.950 . S
C199 C195 1.393 . S
C199 C198 1.391 . S
H200 C208 0.950 . S
H201 C213 0.950 . S
H202 C210 0.950 . S
H203 C212 0.950 . S
H204 C214 0.950 . S
H205 C216 0.950 . S
H206 C218 0.950 . S
H207 C219 0.950 . S
C208 H200 0.950 . S
C208 C209 1.386 1_655 S
C208 C210 1.391 . S
C209 C208 1.386 1_455 S
C209 C213 1.393 . S
C210 H202 0.950 . S
C210 C208 1.391 . S
C210 C211 1.400 1_655 S
C211 C210 1.400 1_455 S
C211 C212 1.398 . S
C211 C217 1.491 . S
C212 H203 0.950 . S
C212 C211 1.398 . S
C212 C213 1.391 . S
C213 H201 0.950 . S
C213 C209 1.393 . S
C213 C212 1.391 . S
C214 H204 0.950 . S
C214 C215 1.386 . S
C214 C216 1.391 . S
C215 C214 1.386 . S
C215 C219 1.393 1_455 S
C216 H205 0.950 . S
C216 C214 1.391 . S
C216 C217 1.400 . S
C217 C211 1.491 . S
C217 C216 1.400 . S
C217 C218 1.398 1_455 S
C218 H206 0.950 . S
C218 C217 1.398 1_655 S
C218 C219 1.391 . S
C219 H207 0.950 . S
C219 C215 1.393 1_655 S
C219 C218 1.391 . S
H220 C228 0.950 . S
H221 C233 0.950 . S
H222 C230 0.950 . S
H223 C232 0.950 . S
H224 C234 0.950 . S
H225 C236 0.950 . S
H226 C238 0.950 1_565 S
H227 C239 0.950 1_565 S
C228 H220 0.950 . S
C228 C229 1.386 . S
C228 C230 1.391 . S
C229 C228 1.386 . S
C229 C233 1.393 1_455 S
C230 H222 0.950 . S
C230 C228 1.391 . S
C230 C231 1.400 . S
C231 C230 1.400 . S
C231 C232 1.398 1_455 S
C231 C237 1.491 . S
C232 H223 0.950 . S
C232 C231 1.398 1_655 S
C232 C233 1.391 . S
C233 H221 0.950 . S
C233 C229 1.393 1_655 S
C233 C232 1.391 . S
C234 H224 0.950 . S
C234 C235 1.386 1_655 S
C234 C236 1.391 . S
C235 C234 1.386 1_455 S
C235 C239 1.393 . S
C236 H225 0.950 . S
C236 C234 1.391 . S
C236 C237 1.400 1_655 S
C237 C231 1.491 . S
C237 C236 1.400 1_455 S
C237 C238 1.398 . S
C238 H226 0.950 1_545 S
C238 C237 1.398 . S
C238 C239 1.391 . S
C239 H227 0.950 1_545 S
C239 C235 1.393 . S
C239 C238 1.391 . S
C69 C18 1.866 . S
C75 C19 1.866 . S
C89 C21 0.657 . S
C95 C22 0.649 . S
C109 C42 1.163 . S
C115 C41 1.163 . S
C129 C58 2.426 . S
C135 C59 2.426 . S
C149 C1 1.144 . S
C155 C2 1.144 . S
C169 C38 1.863 . S
C175 C39 1.863 . S
C189 C28 1.466 1_445 S
C195 C8 1.467 . S
C209 C29 1.464 . S
C215 C48 1.464 . S
C229 C49 1.455 . S
C235 C9 1.453 . S
