# Generated by pormake.
# Topology pcu, (6)-cn, num edge types: 1
# Building blocks:
#     Node 0, Type 0, BuildingBlock: LEVNOQ01_clean_sbu_1, # of connection points: 6
#     Edge 1, Type (0, 0), BuildingBlock: ZUJKAS_clean_linker_0, # of connection points: 2
#     Edge 2, Type (0, 0), BuildingBlock: ZUJKAS_clean_linker_0, # of connection points: 2
#     Edge 3, Type (0, 0), BuildingBlock: ZUJKAS_clean_linker_0, # of connection points: 2
# Relax obj value: 0.007
# Max RMSD: 0.050
# Mean RMSD: 0.050
data_MOF--net-pcu--node1-LEVNOQ01_clean_sbu_1--edge1-ZUJKAS_clean_linker_0
_symmetry_space_group_name_H-M    P1
_symmetry_Int_Tables_number       1
_symmetry_cell_setting            triclinic
loop_
_symmetry_equiv_pos_as_xyz
'x, y, z'
_cell_length_a     20.677517
_cell_length_b     20.616524
_cell_length_c     19.9998
_cell_angle_alpha  78.790314
_cell_angle_beta   101.15405
_cell_angle_gamma 101.83188
loop_
_atom_site_label
_atom_site_type_symbol
_atom_site_fract_x
_atom_site_fract_y
_atom_site_fract_z
_atom_type_partial_charge
O0 O 0.83169 0.03831 0.91422 0.0
Mg1 Mg 0.92041 0.08193 0.87476 0.0
O2 O 0.88067 0.98164 0.01038 0.0
Mg3 Mg -0.00535 -0.00562 0.00207 0.0
O4 O 0.97647 0.01011 0.883 0.0
O5 O 0.93112 0.06299 0.78177 0.0
O6 O 0.10967 0.0067 0.99635 0.0
O7 O 0.97617 0.88081 0.99107 0.0
Mg8 Mg 0.07755 0.90764 0.13486 0.0
O9 O 0.01614 0.97644 0.11952 0.0
O10 O 0.16282 0.97113 0.10144 0.0
O11 O 0.03703 0.82723 0.08041 0.0
O12 O 0.0249 0.90325 0.21464 0.0
C13 C 0.00898 0.16549 0.97214 0.0
C14 C 0.82856 0.0001 0.97177 0.0
C15 C 0.96632 0.01885 0.81605 0.0
C16 C 0.16363 0.00079 0.03949 0.0
C17 C -0.00355 0.82742 0.0243 0.0
C18 C -0.00556 0.94922 0.17648 0.0
O19 O 0.97891 0.16722 0.91059 0.0
O20 O 0.01396 0.10974 0.01243 0.0
H21 H 0.87542 0.90531 0.22136 0.0
H22 H 0.86287 0.92005 0.33611 0.0
H23 H 0.0351 0.07893 0.33709 0.0
H24 H 0.0446 0.06683 0.22115 0.0
H25 H 0.96004 0.88372 0.4306 0.0
H26 H 0.93966 0.13928 0.45985 0.0
H27 H 0.92157 0.1124 0.37654 0.0
H28 H 0.00661 0.14219 0.41385 0.0
C29 C 0.90703 0.94697 0.24391 0.0
C30 C 0.96132 0.98454 0.21303 0.0
C31 C 0.90074 0.95455 0.31015 0.0
C32 C 0.94899 -0.00049 0.34617 0.0
C33 C -0.00328 0.04432 0.31061 0.0
H34 H 0.0847 0.04577 0.76964 0.0
H35 H 0.09283 0.02502 0.65548 0.0
C36 C 0.00182 0.0378 0.24365 0.0
C37 C 0.95861 0.98943 0.42285 0.0
H38 H 0.98817 0.07121 0.56128 0.0
C39 C 0.96526 0.92469 0.45912 0.0
C40 C 0.96681 0.04283 0.46032 0.0
C41 C 0.95762 0.11285 0.42547 0.0
C42 C 0.98033 0.91212 0.53146 0.0
C43 C 0.9892 0.96569 0.56861 0.0
C44 C 0.98268 0.03033 0.53254 0.0
C45 C -0.00132 0.95599 0.645 0.0
C46 C 0.9873 0.84186 0.56733 0.0
C47 C 0.94624 0.91928 0.67931 0.0
C48 C 0.94228 0.93034 0.745 0.0
C49 C 0.99024 0.97868 0.77641 0.0
C50 C 0.04769 0.00756 0.7467 0.0
C51 C 0.05187 -0.00366 0.68108 0.0
H52 H -0.00075 0.81188 0.53221 0.0
H53 H 0.02688 0.84255 0.61358 0.0
H54 H 0.93919 0.81619 0.58438 0.0
H55 H 0.90425 0.88854 0.6523 0.0
H56 H 0.89696 0.90847 0.76657 0.0
H57 H 0.19992 0.97566 0.92424 0.0
H58 H 0.31524 0.97585 0.90931 0.0
H59 H 0.39049 0.06938 0.09068 0.0
H60 H 0.27583 0.06753 0.10674 0.0
H61 H 0.43932 0.07213 0.9038 0.0
H62 H 0.4465 0.88198 0.14231 0.0
H63 H 0.36976 0.90714 0.09456 0.0
H64 H 0.42485 0.95946 0.15152 0.0
C65 C 0.24125 -0.00151 0.95926 0.0
C66 C 0.22945 0.02099 0.017 0.0
C67 C 0.30694 -0.00184 0.95102 0.0
C68 C 0.36104 0.02086 1.00012 0.0
C69 C 0.34925 0.05019 0.05325 0.0
H70 H 0.78752 0.02797 0.08295 0.0
H71 H 0.67033 0.02485 0.09379 0.0
C72 C 0.2839 0.04964 0.06204 0.0
C73 C 0.42877 0.00745 1.00074 0.0
H74 H 0.54888 0.92179 0.09857 0.0
C75 C 0.46321 0.03903 0.94607 0.0
C76 C 0.45943 0.96373 0.05589 0.0
C77 C 0.42312 0.92556 0.11414 0.0
C78 C 0.52862 0.02972 0.94617 0.0
C79 C 0.55967 0.98685 0.0019 0.0
C80 C 0.52492 0.95468 0.05615 0.0
C81 C 0.62872 0.97605 0.00455 0.0
C82 C 0.56474 0.06717 0.88753 0.0
C83 C 0.64352 0.94599 0.95351 0.0
C84 C 0.7099 0.94803 0.94722 0.0
C85 C 0.76232 0.97888 0.99272 0.0
C86 C 0.74769 0.00306 0.048 0.0
C87 C 0.68097 0.00174 0.05382 0.0
H88 H 0.53972 0.1088 0.85693 0.0
H89 H 0.61734 0.08817 0.90728 0.0
H90 H 0.56563 0.03196 0.85234 0.0
H91 H 0.60379 0.92482 0.91586 0.0
H92 H 0.72036 0.92946 0.90402 0.0
H93 H 0.02999 0.79132 0.91361 0.0
H94 H 0.02817 0.67504 0.89974 0.0
H95 H 0.9178 0.60269 0.06964 0.0
H96 H 0.91967 0.71826 0.08328 0.0
H97 H 0.09289 0.59478 0.01111 0.0
H98 H 0.83127 0.47011 0.93717 0.0
H99 H 0.85663 0.56028 0.92267 0.0
H100 H 0.84186 0.5166 0.00683 0.0
C101 C 0.0024 0.75046 0.9454 0.0
C102 C 0.97423 0.76315 0.99893 0.0
C103 C 0.00195 0.6842 0.938 0.0
C104 C 0.97276 0.63025 0.98364 0.0
C105 C 0.93955 0.64335 0.03312 0.0
H106 H 0.97819 0.20183 0.08458 0.0
H107 H 0.97897 0.31799 0.09815 0.0
C108 C 0.94048 0.70935 0.04081 0.0
C109 C 0.98638 0.56169 0.98769 0.0
H110 H 0.91131 0.39838 0.9854 0.0
C111 C 0.05324 0.55187 0.00478 0.0
C112 C 0.93454 0.50577 0.98066 0.0
C113 C 0.86206 0.5136 0.96022 0.0
C114 C 0.06963 0.48745 0.01577 0.0
C115 C 0.01781 0.43153 0.00877 0.0
C116 C 0.95093 0.44131 0.99176 0.0
C117 C 0.03162 0.36314 0.0123 0.0
C118 C 0.14213 0.47965 0.0358 0.0
C119 C 0.06367 0.35039 0.96175 0.0
C120 C 0.06319 0.28451 0.95404 0.0
C121 C 0.03094 0.23032 0.99693 0.0
C122 C 0.00441 0.24284 0.05174 0.0
C123 C 0.0042 0.30905 0.05898 0.0
H124 H 0.17317 0.52336 0.05826 0.0
H125 H 0.14771 0.43322 0.07369 0.0
H126 H 0.16188 0.47605 0.98911 0.0
H127 H 0.08425 0.3912 0.92459 0.0
H128 H 0.08321 0.27592 0.91091 0.0
loop_
_geom_bond_atom_site_label_1
_geom_bond_atom_site_label_2
_geom_bond_distance
_geom_bond_site_symmetry_2
_ccdc_geom_bond_type
O0 Mg1 1.990 . S
O0 C14 1.253 . S
Mg1 O0 1.990 . S
Mg1 O4 2.180 . S
Mg1 O5 2.117 . S
Mg1 O19 2.030 . S
O2 Mg3 2.072 1_665 S
O2 C14 1.260 1_564 S
Mg3 O2 2.072 1_445 S
Mg3 O4 2.099 1_454 S
Mg3 O6 2.079 1_554 S
Mg3 O7 2.072 1_444 S
Mg3 O9 2.099 1_545 S
Mg3 O20 2.079 . S
O4 Mg1 2.180 . S
O4 Mg3 2.099 1_656 S
O4 C15 1.279 . S
O5 Mg1 2.117 . S
O5 C15 1.250 . S
O6 Mg3 2.079 1_556 S
O6 C16 1.264 1_546 S
O7 Mg3 2.072 1_666 S
O7 C17 1.260 1_656 S
Mg8 O9 2.180 . S
Mg8 O10 2.030 . S
Mg8 O11 1.990 . S
Mg8 O12 2.117 . S
O9 Mg3 2.099 1_565 S
O9 Mg8 2.180 . S
O9 C18 1.279 . S
O10 Mg8 2.030 . S
O10 C16 1.248 . S
O11 Mg8 1.990 . S
O11 C17 1.253 . S
O12 Mg8 2.117 . S
O12 C18 1.250 . S
C13 O19 1.248 . S
C13 O20 1.264 1_656 S
C14 O0 1.253 . S
C14 O2 1.260 1_546 S
C15 O4 1.279 . S
C15 O5 1.250 . S
C16 O6 1.264 1_564 S
C16 O10 1.248 . S
C17 O7 1.260 1_454 S
C17 O11 1.253 . S
C18 O9 1.279 . S
C18 O12 1.250 . S
O19 Mg1 2.030 . S
O19 C13 1.248 . S
O20 Mg3 2.079 . S
O20 C13 1.264 1_454 S
H21 C29 0.929 . S
H22 C31 0.930 . S
H23 C33 0.930 . S
H24 C36 0.929 . S
H25 C39 0.930 . S
H26 C41 0.960 . S
H27 C41 0.960 . S
H28 C41 0.960 1_455 S
C29 H21 0.929 . S
C29 C30 1.377 . S
C29 C31 1.384 . S
C30 C29 1.377 . S
C30 C36 1.390 1_665 S
C31 H22 0.930 . S
C31 C29 1.384 . S
C31 C32 1.372 . S
C32 C31 1.372 . S
C32 C33 1.400 1_665 S
C32 C37 1.490 . S
C33 H23 0.930 . S
C33 C32 1.400 1_445 S
C33 C36 1.386 . S
H34 C50 0.930 . S
H35 C51 0.931 . S
C36 H24 0.929 . S
C36 C30 1.390 1_445 S
C36 C33 1.386 . S
C37 C32 1.490 . S
C37 C39 1.395 . S
C37 C40 1.403 1_565 S
H38 C44 0.930 . S
C39 H25 0.930 . S
C39 C37 1.395 . S
C39 C42 1.403 . S
C40 C37 1.403 1_545 S
C40 C41 1.524 . S
C40 C44 1.400 . S
C41 H26 0.960 . S
C41 H27 0.960 . S
C41 H28 0.960 1_655 S
C41 C40 1.524 . S
C42 C39 1.403 . S
C42 C43 1.392 . S
C42 C46 1.495 . S
C43 C42 1.392 . S
C43 C44 1.385 1_565 S
C43 C45 1.478 . S
C44 H38 0.930 . S
C44 C40 1.400 . S
C44 C43 1.385 1_545 S
C45 C43 1.478 . S
C45 C47 1.381 . S
C45 C51 1.383 1_665 S
C46 C42 1.495 . S
C46 H52 0.959 . S
C46 H53 0.961 1_655 S
C46 H54 0.960 . S
C47 C45 1.381 . S
C47 C48 1.394 . S
C47 H55 0.930 . S
C48 C47 1.394 . S
C48 C49 1.383 . S
C48 H56 0.929 . S
C49 C48 1.383 . S
C49 C50 1.377 1_665 S
C50 H34 0.930 . S
C50 C49 1.377 1_445 S
C50 C51 1.379 . S
C51 H35 0.931 . S
C51 C45 1.383 1_445 S
C51 C50 1.379 . S
H52 C46 0.959 . S
H53 C46 0.961 1_455 S
H54 C46 0.960 . S
H55 C47 0.930 . S
H56 C48 0.929 . S
H57 C65 0.929 . S
H58 C67 0.930 . S
H59 C69 0.930 . S
H60 C72 0.929 . S
H61 C75 0.930 . S
H62 C77 0.960 . S
H63 C77 0.960 . S
H64 C77 0.960 . S
C65 H57 0.929 . S
C65 C66 1.377 1_566 S
C65 C67 1.384 . S
C66 C65 1.377 1_544 S
C66 C72 1.390 . S
C67 H58 0.930 . S
C67 C65 1.384 . S
C67 C68 1.367 1_566 S
C68 C67 1.367 1_544 S
C68 C69 1.407 . S
C68 C73 1.487 1_554 S
C69 H59 0.930 . S
C69 C68 1.407 . S
C69 C72 1.386 . S
H70 C86 0.930 . S
H71 C87 0.931 . S
C72 H60 0.929 . S
C72 C66 1.390 . S
C72 C69 1.386 . S
C73 C68 1.487 1_556 S
C73 C75 1.395 . S
C73 C76 1.403 1_546 S
H74 C80 0.930 . S
C75 H61 0.930 . S
C75 C73 1.395 . S
C75 C78 1.403 . S
C76 C73 1.403 1_564 S
C76 C77 1.524 . S
C76 C80 1.400 . S
C77 H62 0.960 . S
C77 H63 0.960 . S
C77 H64 0.960 . S
C77 C76 1.524 . S
C78 C75 1.403 . S
C78 C79 1.392 . S
C78 C82 1.495 . S
C79 C78 1.392 . S
C79 C80 1.385 1_546 S
C79 C81 1.478 . S
C80 H74 0.930 . S
C80 C76 1.400 . S
C80 C79 1.385 1_564 S
C81 C79 1.478 . S
C81 C83 1.381 1_545 S
C81 C87 1.383 1_556 S
C82 C78 1.495 . S
C82 H88 0.959 . S
C82 H89 0.961 . S
C82 H90 0.960 . S
C83 C81 1.381 1_565 S
C83 C84 1.394 . S
C83 H91 0.930 . S
C84 C83 1.394 . S
C84 C85 1.383 1_565 S
C84 H92 0.929 . S
C85 C84 1.383 1_545 S
C85 C86 1.377 1_556 S
C86 H70 0.930 . S
C86 C85 1.377 1_554 S
C86 C87 1.379 . S
C87 H71 0.931 . S
C87 C81 1.383 1_554 S
C87 C86 1.379 . S
H88 C82 0.959 . S
H89 C82 0.961 . S
H90 C82 0.960 . S
H91 C83 0.930 . S
H92 C84 0.929 . S
H93 C101 0.929 . S
H94 C103 0.930 . S
H95 C105 0.930 . S
H96 C108 0.929 . S
H97 C111 0.930 . S
H98 C113 0.960 . S
H99 C113 0.960 . S
H100 C113 0.960 1_554 S
C101 H93 0.929 . S
C101 C102 1.377 . S
C101 C103 1.384 . S
C102 C101 1.377 . S
C102 C108 1.390 1_456 S
C103 H94 0.930 . S
C103 C101 1.384 . S
C103 C104 1.372 . S
C104 C103 1.372 . S
C104 C105 1.400 1_456 S
C104 C109 1.490 . S
C105 H95 0.930 . S
C105 C104 1.400 1_654 S
C105 C108 1.386 . S
H106 C122 0.930 . S
H107 C123 0.931 . S
C108 H96 0.929 . S
C108 C102 1.390 1_654 S
C108 C105 1.386 . S
C109 C104 1.490 . S
C109 C111 1.395 1_556 S
C109 C112 1.403 1_455 S
H110 C116 0.930 . S
C111 H97 0.930 . S
C111 C109 1.395 1_554 S
C111 C114 1.403 . S
C112 C109 1.403 1_655 S
C112 C113 1.524 . S
C112 C116 1.400 . S
C113 H98 0.960 . S
C113 H99 0.960 . S
C113 H100 0.960 1_556 S
C113 C112 1.524 . S
C114 C111 1.403 . S
C114 C115 1.392 1_554 S
C114 C118 1.495 . S
C115 C114 1.392 1_556 S
C115 C116 1.385 1_455 S
C115 C117 1.478 . S
C116 H110 0.930 . S
C116 C112 1.400 . S
C116 C115 1.385 1_655 S
C117 C115 1.478 . S
C117 C119 1.380 . S
C117 C123 1.383 1_456 S
C118 C114 1.495 . S
C118 H124 0.959 . S
C118 H125 0.961 . S
C118 H126 0.960 1_554 S
C119 C117 1.380 . S
C119 C120 1.394 . S
C119 H127 0.930 . S
C120 C119 1.394 . S
C120 C121 1.383 . S
C120 H128 0.929 . S
C121 C120 1.383 . S
C121 C122 1.377 1_456 S
C122 H106 0.930 . S
C122 C121 1.377 1_654 S
C122 C123 1.379 . S
C123 H107 0.931 . S
C123 C117 1.383 1_654 S
C123 C122 1.379 . S
H124 C118 0.959 . S
H125 C118 0.961 . S
H126 C118 0.960 1_556 S
H127 C119 0.930 . S
H128 C120 0.929 . S
C30 C18 1.307 1_655 S
C49 C15 1.333 1_565 S
C66 C16 1.448 1_545 S
C85 C14 1.417 . S
C102 C17 1.451 1_556 S
C121 C13 1.467 1_455 S
