# Generated by pormake.
# Topology lon, (4)-cn, num edge types: 1
# Building blocks:
#     Node 0, Type 0, BuildingBlock: AZAVOO_clean_sbu_0, # of connection points: 4
#     Node 1, Type 0, BuildingBlock: AZAVOO_clean_sbu_0, # of connection points: 4
#     Node 2, Type 0, BuildingBlock: AZAVOO_clean_sbu_0, # of connection points: 4
#     Node 3, Type 0, BuildingBlock: AZAVOO_clean_sbu_0, # of connection points: 4
#     Edge 4, Type (0, 0), BuildingBlock: XIVTED_clean_linker_0, # of connection points: 2
#     Edge 5, Type (0, 0), BuildingBlock: XIVTED_clean_linker_0, # of connection points: 2
#     Edge 6, Type (0, 0), BuildingBlock: XIVTED_clean_linker_0, # of connection points: 2
#     Edge 7, Type (0, 0), BuildingBlock: XIVTED_clean_linker_0, # of connection points: 2
#     Edge 8, Type (0, 0), BuildingBlock: XIVTED_clean_linker_0, # of connection points: 2
#     Edge 9, Type (0, 0), BuildingBlock: XIVTED_clean_linker_0, # of connection points: 2
#     Edge 10, Type (0, 0), BuildingBlock: XIVTED_clean_linker_0, # of connection points: 2
#     Edge 11, Type (0, 0), BuildingBlock: XIVTED_clean_linker_0, # of connection points: 2
# Relax obj value: 0.020
# Max RMSD: 0.071
# Mean RMSD: 0.063
data_MOF--net-lon--node1-AZAVOO_clean_sbu_0--edge1-XIVTED_clean_linker_0
_symmetry_space_group_name_H-M    P1
_symmetry_Int_Tables_number       1
_symmetry_cell_setting            triclinic
loop_
_symmetry_equiv_pos_as_xyz
'x, y, z'
_cell_length_a     24.436338
_cell_length_b     23.811863
_cell_length_c     43.051628
_cell_angle_alpha  96.96168
_cell_angle_beta   89.676574
_cell_angle_gamma 120.81087
loop_
_atom_site_label
_atom_site_type_symbol
_atom_site_fract_x
_atom_site_fract_y
_atom_site_fract_z
_atom_type_partial_charge
Mg0 Mg 0.49063 0.69959 0.06946 0.0
O1 O 0.38568 0.64577 0.04929 0.0
O2 O 0.34156 0.70158 0.07173 0.0
Mg3 Mg 0.41591 0.78946 0.10563 0.0
C4 C 0.338 0.65386 0.05291 0.0
C5 C 0.57023 0.64824 0.03432 0.0
O6 O 0.61022 0.69015 0.05763 0.0
O7 O 0.51745 0.78136 0.03928 0.0
O8 O 0.4728 0.83477 0.06384 0.0
O9 O 0.46267 0.6414 0.10985 0.0
O10 O 0.46566 0.73571 0.11013 0.0
C11 C 0.50587 0.82825 0.04219 0.0
C12 C 0.45274 0.68607 0.12423 0.0
O13 O 0.51489 0.64063 0.03179 0.0
Mg14 Mg 0.64018 0.39602 0.56127 0.0
O15 O 0.57924 0.28599 0.54149 0.0
O16 O 0.50095 0.23654 0.57337 0.0
Mg17 Mg 0.50986 0.31627 0.61227 0.0
C18 C 0.53023 0.23448 0.549 0.0
C19 C 0.7237 0.47527 0.50992 0.0
O20 O 0.71509 0.52036 0.526 0.0
O21 O 0.56429 0.41369 0.54278 0.0
O22 O 0.48705 0.36623 0.57567 0.0
O23 O 0.69889 0.37575 0.59185 0.0
O24 O 0.61295 0.37798 0.60661 0.0
C25 C 0.50951 0.39857 0.55248 0.0
C26 C 0.65927 0.36934 0.61317 0.0
O27 O 0.69434 0.41699 0.51701 0.0
Mg28 Mg 0.26279 0.63971 0.39493 0.0
O29 O 0.31382 0.75001 0.41492 0.0
O30 O 0.28734 0.80069 0.38288 0.0
Mg31 Mg 0.21864 0.72275 0.3432 0.0
C32 C 0.31736 0.80199 0.4074 0.0
C33 C 0.26264 0.55745 0.44552 0.0
O34 O 0.21062 0.51275 0.42841 0.0
O35 O 0.16944 0.62519 0.41245 0.0
O36 O 0.14227 0.6729 0.3788 0.0
O37 O 0.3421 0.65528 0.36522 0.0
O38 O 0.25875 0.66009 0.34956 0.0
C39 C 0.1307 0.64063 0.4021 0.0
C40 C 0.31262 0.66487 0.34348 0.0
O41 O 0.29152 0.61647 0.43943 0.0
Mg42 Mg 0.80279 0.31872 0.88165 0.0
O43 O 0.74921 0.37008 0.9018 0.0
O44 O 0.65174 0.31705 0.87746 0.0
Mg45 Mg 0.64158 0.23056 0.84306 0.0
C46 C 0.69419 0.36305 0.8974 0.0
C47 C 0.92999 0.3679 0.91803 0.0
O48 O 0.92777 0.32501 0.89501 0.0
O49 O 0.74621 0.23448 0.9104 0.0
O50 O 0.64967 0.1834 0.88485 0.0
O51 O 0.83319 0.38018 0.84238 0.0
O52 O 0.74533 0.28204 0.84034 0.0
C53 C 0.68759 0.18824 0.90674 0.0
C54 C 0.78108 0.33325 0.82708 0.0
O55 O 0.88317 0.37717 0.92016 0.0
H56 H 0.38302 0.73768 0.15095 0.0
H57 H 0.41164 0.65355 0.32112 0.0
H58 H 0.46713 0.62313 0.16957 0.0
H59 H 0.26882 0.69682 0.29385 0.0
H60 H 0.44449 0.65757 0.26737 0.0
H61 H 0.35081 0.73612 0.20469 0.0
C62 C 0.39488 0.71232 0.1663 0.0
C63 C 0.42829 0.68094 0.15581 0.0
C64 C 0.40613 0.66642 0.27321 0.0
C65 C 0.39187 0.67934 0.21747 0.0
C66 C 0.38767 0.66473 0.30394 0.0
C67 C 0.33734 0.67487 0.312 0.0
C68 C 0.37459 0.67913 0.25044 0.0
C69 C 0.30784 0.68875 0.28869 0.0
C70 C 0.37615 0.71118 0.19697 0.0
C71 C 0.44125 0.64776 0.17671 0.0
N72 N 0.32697 0.69056 0.25892 0.0
N73 N 0.42355 0.64835 0.20668 0.0
H74 H 0.63293 0.41602 0.66842 0.0
H75 H 0.72059 0.23309 0.77948 0.0
H76 H 0.71197 0.29913 0.6296 0.0
H77 H 0.79726 0.4423 0.80345 0.0
H78 H 0.68785 0.23905 0.72678 0.0
H79 H 0.66293 0.40802 0.72141 0.0
C80 C 0.65556 0.38773 0.67111 0.0
C81 C 0.67004 0.35804 0.64479 0.0
C82 C 0.71176 0.28345 0.74367 0.0
C83 C 0.70339 0.34832 0.70478 0.0
C84 C 0.73022 0.28019 0.77362 0.0
C85 C 0.76182 0.33744 0.79559 0.0
C86 C 0.72311 0.34389 0.73613 0.0
C87 C 0.77341 0.3973 0.78697 0.0
C88 C 0.67309 0.38383 0.70119 0.0
C89 C 0.70013 0.32269 0.6494 0.0
N90 N 0.75327 0.39892 0.75786 0.0
N91 N 0.71538 0.31823 0.67895 0.0
H92 H 0.49858 0.55351 -0.0154 0.0
H93 H 0.76931 0.46579 0.94356 0.0
H94 H 0.68444 0.65284 0.03404 0.0
H95 H 0.58254 0.36423 0.89481 0.0
H96 H 0.74041 0.53751 0.9756 0.0
H97 H 0.52979 0.4865 0.95012 0.0
C98 C 0.54601 0.56143 -0.01185 0.0
C99 C 0.58885 0.6088 0.01235 0.0
C100 C 0.7058 0.49963 0.95783 0.0
C101 C 0.62489 0.53209 0.97297 0.0
C102 C 0.72231 0.45861 0.93948 0.0
C103 C 0.67831 0.40858 0.91643 0.0
C104 C 0.64481 0.49074 0.95319 0.0
C105 C 0.61809 0.4019 0.9123 0.0
C106 C 0.5638 0.52309 0.96846 0.0
C107 C 0.64972 0.61686 0.01578 0.0
N108 N 0.60313 0.44231 0.93052 0.0
N109 N 0.66581 0.57884 -0.0036 0.0
H110 H 0.04939 0.68781 0.39951 0.0
H111 H 0.77648 0.40352 0.48573 0.0
H112 H 0.07042 0.5391 0.43686 0.0
H113 H 0.79154 0.59234 0.48593 0.0
H114 H 0.87353 0.44297 0.45737 0.0
H115 H 0.94523 0.64489 0.42219 0.0
C116 C 0.03216 0.64622 0.41246 0.0
C117 C 0.06881 0.6172 0.41645 0.0
C118 C 0.85524 0.47553 0.46342 0.0
C119 C 0.94958 0.56735 0.44178 0.0
C120 C 0.79955 0.45292 0.47939 0.0
C121 C 0.77613 0.49494 0.48848 0.0
C122 C 0.88738 0.54031 0.45612 0.0
C123 C 0.80822 0.5585 0.47959 0.0
C124 C 0.97284 0.62186 0.42537 0.0
C125 C 0.04412 0.5634 0.43344 0.0
N126 N 0.86243 0.57941 0.46396 0.0
N127 N 0.98592 0.53999 0.44531 0.0
H128 H 0.56447 0.11482 0.92163 0.0
H129 H 0.61337 0.86709 0.00929 0.0
H130 H 0.75191 0.14462 0.93918 0.0
H131 H 0.45964 0.90408 0.02648 0.0
H132 H 0.66001 0.95672 -0.02337 0.0
H133 H 0.52038 0.02554 0.95379 0.0
C134 C 0.59639 0.10262 0.93234 0.0
C135 C 0.66195 0.13717 0.92781 0.0
C136 C 0.61605 0.94492 -0.01241 0.0
C137 C 0.61158 0.03443 0.96424 0.0
C138 C 0.58919 0.89359 0.00595 0.0
C139 C 0.53266 0.87833 0.02061 0.0
C140 C 0.58534 0.97999 -0.01652 0.0
C141 C 0.50347 0.91447 0.01574 0.0
C142 C 0.5712 0.05177 0.95072 0.0
C143 C 0.70115 0.11944 0.94232 0.0
N144 N 0.52997 0.96339 -0.00252 0.0
N145 N 0.67523 0.06872 0.95973 0.0
H146 H 0.5526 0.49936 0.51706 0.0
H147 H 0.2125 0.43935 0.46853 0.0
H148 H 0.38116 0.35176 0.5541 0.0
H149 H 0.38652 0.62798 0.46964 0.0
H150 H 0.2716 0.40086 0.49647 0.0
H151 H 0.49074 0.54068 0.49446 0.0
C152 C 0.50188 0.47536 0.52028 0.0
C153 C 0.47198 0.42199 0.53748 0.0
C154 C 0.2965 0.4509 0.49089 0.0
C155 C 0.40103 0.4691 0.51169 0.0
C156 C 0.26286 0.47293 0.47502 0.0
C157 C 0.29467 0.53686 0.46661 0.0
C158 C 0.36252 0.4927 0.49781 0.0
C159 C 0.35999 0.57831 0.47562 0.0
C160 C 0.46675 0.49935 0.50761 0.0
C161 C 0.40615 0.39316 0.54109 0.0
N162 N 0.39192 0.55519 0.49032 0.0
N163 N 0.37272 0.4168 0.52811 0.0
H164 H 0.30995 0.54842 0.008 0.0
H165 H 0.95374 0.46452 0.96704 0.0
H166 H 0.22587 0.65381 0.05527 0.0
H167 H 0.03794 0.36028 0.91884 0.0
H168 H 0.05161 0.53123 0.00116 0.0
H169 H 0.20926 0.47588 -0.02342 0.0
C170 C 0.27038 0.55625 0.01189 0.0
C171 C 0.27672 0.60762 0.0343 0.0
C172 C 0.0486 0.4936 -0.01682 0.0
C173 C 0.16116 0.52466 -0.00168 0.0
C174 C 0.99265 0.45543 0.9637 0.0
C175 C 0.98762 0.40684 0.93994 0.0
C176 C 0.1 0.48322 -0.02111 0.0
C177 C 0.03966 0.39728 0.93676 0.0
C178 C 0.21285 0.51479 -0.00609 0.0
C179 C 0.22355 0.61515 0.03825 0.0
N180 N 0.09366 0.43521 0.95592 0.0
N181 N 0.16824 0.57434 0.02041 0.0
H182 H 0.54899 0.21468 0.48679 0.0
H183 H 0.35128 0.82108 0.47008 0.0
H184 H 0.45387 0.10925 0.56374 0.0
H185 H 0.36913 0.92736 0.39258 0.0
H186 H 0.40776 0.92645 0.50495 0.0
H187 H 0.50196 0.10921 0.45215 0.0
C188 C 0.51871 0.16936 0.49648 0.0
C189 C 0.50509 0.17083 0.52821 0.0
C190 C 0.39949 0.92653 0.48027 0.0
C191 C 0.45175 0.05016 0.48874 0.0
C192 C 0.36762 0.86655 0.46033 0.0
C193 C 0.35519 0.86539 0.42837 0.0
C194 C 0.42019 0.98584 0.46808 0.0
C195 C 0.37724 0.92589 0.41708 0.0
C196 C 0.4917 0.1093 0.47666 0.0
C197 C 0.46527 0.11049 0.53941 0.0
N198 N 0.40885 0.98366 0.43688 0.0
N199 N 0.44018 0.05258 0.51973 0.0
loop_
_geom_bond_atom_site_label_1
_geom_bond_atom_site_label_2
_geom_bond_distance
_geom_bond_site_symmetry_2
_ccdc_geom_bond_type
Mg0 O1 2.028 . S
Mg0 O7 1.986 . S
Mg0 O9 2.114 . S
Mg0 O10 2.251 . S
Mg0 O13 2.010 . S
O1 Mg0 2.028 . S
O1 C4 1.250 . S
O2 Mg3 2.028 . S
O2 C4 1.248 . S
Mg3 O2 2.028 . S
Mg3 O8 2.032 . S
Mg3 O10 2.079 . S
C4 O1 1.250 . S
C4 O2 1.248 . S
C5 O6 1.264 . S
C5 O13 1.249 . S
O6 C5 1.264 . S
O7 Mg0 1.986 . S
O7 C11 1.246 . S
O8 Mg3 2.032 . S
O8 C11 1.259 . S
O9 Mg0 2.114 . S
O9 C12 1.252 . S
O10 Mg0 2.251 . S
O10 Mg3 2.079 . S
O10 C12 1.273 . S
C11 O7 1.246 . S
C11 O8 1.259 . S
C12 O9 1.252 . S
C12 O10 1.273 . S
O13 Mg0 2.010 . S
O13 C5 1.249 . S
Mg14 O15 2.028 . S
Mg14 O21 1.986 . S
Mg14 O23 2.114 . S
Mg14 O24 2.251 . S
Mg14 O27 2.010 . S
O15 Mg14 2.028 . S
O15 C18 1.250 . S
O16 Mg17 2.028 . S
O16 C18 1.248 . S
Mg17 O16 2.028 . S
Mg17 O22 2.032 . S
Mg17 O24 2.079 . S
C18 O15 1.250 . S
C18 O16 1.248 . S
C19 O20 1.264 . S
C19 O27 1.249 . S
O20 C19 1.264 . S
O21 Mg14 1.986 . S
O21 C25 1.246 . S
O22 Mg17 2.032 . S
O22 C25 1.259 . S
O23 Mg14 2.114 . S
O23 C26 1.252 . S
O24 Mg14 2.251 . S
O24 Mg17 2.079 . S
O24 C26 1.273 . S
C25 O21 1.246 . S
C25 O22 1.259 . S
C26 O23 1.252 . S
C26 O24 1.273 . S
O27 Mg14 2.010 . S
O27 C19 1.249 . S
Mg28 O29 2.028 . S
Mg28 O35 1.986 . S
Mg28 O37 2.114 . S
Mg28 O38 2.251 . S
Mg28 O41 2.010 . S
O29 Mg28 2.028 . S
O29 C32 1.250 . S
O30 Mg31 2.028 . S
O30 C32 1.248 . S
Mg31 O30 2.028 . S
Mg31 O36 2.032 . S
Mg31 O38 2.079 . S
C32 O29 1.250 . S
C32 O30 1.248 . S
C33 O34 1.264 . S
C33 O41 1.249 . S
O34 C33 1.264 . S
O35 Mg28 1.986 . S
O35 C39 1.246 . S
O36 Mg31 2.032 . S
O36 C39 1.259 . S
O37 Mg28 2.114 . S
O37 C40 1.252 . S
O38 Mg28 2.251 . S
O38 Mg31 2.079 . S
O38 C40 1.273 . S
C39 O35 1.246 . S
C39 O36 1.259 . S
C40 O37 1.252 . S
C40 O38 1.273 . S
O41 Mg28 2.010 . S
O41 C33 1.249 . S
Mg42 O43 2.028 . S
Mg42 O49 1.986 . S
Mg42 O51 2.114 . S
Mg42 O52 2.251 . S
Mg42 O55 2.010 . S
O43 Mg42 2.028 . S
O43 C46 1.250 . S
O44 Mg45 2.028 . S
O44 C46 1.248 . S
Mg45 O44 2.028 . S
Mg45 O50 2.032 . S
Mg45 O52 2.079 . S
C46 O43 1.250 . S
C46 O44 1.248 . S
C47 O48 1.264 . S
C47 O55 1.249 . S
O48 C47 1.264 . S
O49 Mg42 1.986 . S
O49 C53 1.246 . S
O50 Mg45 2.032 . S
O50 C53 1.259 . S
O51 Mg42 2.114 . S
O51 C54 1.252 . S
O52 Mg42 2.251 . S
O52 Mg45 2.079 . S
O52 C54 1.273 . S
C53 O49 1.246 . S
C53 O50 1.259 . S
C54 O51 1.252 . S
C54 O52 1.273 . S
O55 Mg42 2.010 . S
O55 C47 1.249 . S
H56 C62 0.930 . S
H57 C66 0.930 . S
H58 C71 0.929 . S
H59 C69 0.929 . S
H60 C64 0.929 . S
H61 C70 0.929 . S
C62 H56 0.930 . S
C62 C63 1.367 . S
C62 C70 1.378 . S
C63 C62 1.367 . S
C63 C71 1.433 . S
C64 H60 0.929 . S
C64 C66 1.378 . S
C64 C68 1.350 . S
C65 C68 1.463 . S
C65 C70 1.350 . S
C65 N73 1.427 . S
C66 H57 0.930 . S
C66 C64 1.378 . S
C66 C67 1.367 . S
C67 C66 1.367 . S
C67 C69 1.433 . S
C68 C64 1.350 . S
C68 C65 1.463 . S
C68 N72 1.427 . S
C69 H59 0.929 . S
C69 C67 1.433 . S
C69 N72 1.384 . S
C70 H61 0.929 . S
C70 C62 1.378 . S
C70 C65 1.350 . S
C71 H58 0.929 . S
C71 C63 1.433 . S
C71 N73 1.384 . S
N72 C68 1.427 . S
N72 C69 1.384 . S
N73 C65 1.427 . S
N73 C71 1.384 . S
H74 C80 0.930 . S
H75 C84 0.930 . S
H76 C89 0.929 . S
H77 C87 0.929 . S
H78 C82 0.929 . S
H79 C88 0.929 . S
C80 H74 0.930 . S
C80 C81 1.367 . S
C80 C88 1.378 . S
C81 C80 1.367 . S
C81 C89 1.433 . S
C82 H78 0.929 . S
C82 C84 1.378 . S
C82 C86 1.350 . S
C83 C86 1.463 . S
C83 C88 1.350 . S
C83 N91 1.427 . S
C84 H75 0.930 . S
C84 C82 1.378 . S
C84 C85 1.367 . S
C85 C84 1.367 . S
C85 C87 1.433 . S
C86 C82 1.350 . S
C86 C83 1.463 . S
C86 N90 1.427 . S
C87 H77 0.929 . S
C87 C85 1.433 . S
C87 N90 1.384 . S
C88 H79 0.929 . S
C88 C80 1.378 . S
C88 C83 1.350 . S
C89 H76 0.929 . S
C89 C81 1.433 . S
C89 N91 1.384 . S
N90 C86 1.427 . S
N90 C87 1.384 . S
N91 C83 1.427 . S
N91 C89 1.384 . S
H92 C98 0.930 . S
H93 C102 0.930 . S
H94 C107 0.929 . S
H95 C105 0.929 . S
H96 C100 0.929 . S
H97 C106 0.929 1_556 S
C98 H92 0.930 . S
C98 C99 1.367 . S
C98 C106 1.378 . S
C99 C98 1.367 . S
C99 C107 1.433 . S
C100 H96 0.929 . S
C100 C102 1.378 . S
C100 C104 1.350 . S
C101 C104 1.459 1_554 S
C101 C106 1.351 . S
C101 N109 1.430 . S
C102 H93 0.930 . S
C102 C100 1.378 . S
C102 C103 1.367 . S
C103 C102 1.367 . S
C103 C105 1.433 . S
C104 C100 1.350 . S
C104 C101 1.459 1_556 S
C104 N108 1.427 . S
C105 H95 0.929 . S
C105 C103 1.433 . S
C105 N108 1.384 . S
C106 H97 0.929 1_554 S
C106 C98 1.378 . S
C106 C101 1.351 . S
C107 H94 0.929 . S
C107 C99 1.433 . S
C107 N109 1.384 . S
N108 C104 1.427 . S
N108 C105 1.384 . S
N109 C101 1.430 . S
N109 C107 1.384 . S
H110 C116 0.930 . S
H111 C120 0.930 . S
H112 C125 0.929 . S
H113 C123 0.929 . S
H114 C118 0.929 . S
H115 C124 0.929 . S
C116 H110 0.930 . S
C116 C117 1.367 . S
C116 C124 1.378 . S
C117 C116 1.367 . S
C117 C125 1.433 . S
C118 H114 0.929 . S
C118 C120 1.378 . S
C118 C122 1.350 . S
C119 C122 1.463 1_455 S
C119 C124 1.350 . S
C119 N127 1.427 . S
C120 H111 0.930 . S
C120 C118 1.378 . S
C120 C121 1.367 . S
C121 C120 1.367 . S
C121 C123 1.433 . S
C122 C118 1.350 . S
C122 C119 1.463 1_655 S
C122 N126 1.427 . S
C123 H113 0.929 . S
C123 C121 1.433 . S
C123 N126 1.384 . S
C124 H115 0.929 . S
C124 C116 1.378 . S
C124 C119 1.350 . S
C125 H112 0.929 . S
C125 C117 1.433 . S
C125 N127 1.384 . S
N126 C122 1.427 . S
N126 C123 1.384 . S
N127 C119 1.427 . S
N127 C125 1.384 . S
H128 C134 0.930 1_554 S
H129 C138 0.930 1_556 S
H130 C143 0.929 . S
H131 C141 0.929 . S
H132 C136 0.929 . S
H133 C142 0.929 . S
C134 H128 0.930 1_556 S
C134 C135 1.367 . S
C134 C142 1.378 1_556 S
C135 C134 1.367 . S
C135 C143 1.433 . S
C136 H132 0.929 . S
C136 C138 1.378 1_556 S
C136 C140 1.350 1_556 S
C137 C140 1.463 1_546 S
C137 C142 1.350 1_556 S
C137 N145 1.427 . S
C138 H129 0.930 1_554 S
C138 C136 1.378 1_554 S
C138 C139 1.367 . S
C139 C138 1.367 . S
C139 C141 1.433 . S
C140 C136 1.350 1_554 S
C140 C137 1.463 1_564 S
C140 N144 1.427 . S
C141 H131 0.929 . S
C141 C139 1.433 . S
C141 N144 1.384 . S
C142 H133 0.929 . S
C142 C134 1.378 1_554 S
C142 C137 1.350 1_554 S
C143 H130 0.929 . S
C143 C135 1.433 . S
C143 N145 1.384 . S
N144 C140 1.427 . S
N144 C141 1.384 . S
N145 C137 1.427 . S
N145 C143 1.384 . S
H146 C152 0.930 . S
H147 C156 0.930 . S
H148 C161 0.929 . S
H149 C159 0.929 . S
H150 C154 0.929 . S
H151 C160 0.929 . S
C152 H146 0.930 . S
C152 C153 1.367 . S
C152 C160 1.378 . S
C153 C152 1.367 . S
C153 C161 1.433 . S
C154 H150 0.929 . S
C154 C156 1.378 . S
C154 C158 1.350 . S
C155 C158 1.463 . S
C155 C160 1.350 . S
C155 N163 1.427 . S
C156 H147 0.930 . S
C156 C154 1.378 . S
C156 C157 1.367 . S
C157 C156 1.367 . S
C157 C159 1.433 . S
C158 C154 1.350 . S
C158 C155 1.463 . S
C158 N162 1.427 . S
C159 H149 0.929 . S
C159 C157 1.433 . S
C159 N162 1.384 . S
C160 H151 0.929 . S
C160 C152 1.378 . S
C160 C155 1.350 . S
C161 H148 0.929 . S
C161 C153 1.433 . S
C161 N163 1.384 . S
N162 C158 1.427 . S
N162 C159 1.384 . S
N163 C155 1.427 . S
N163 C161 1.384 . S
H164 C170 0.930 . S
H165 C174 0.930 . S
H166 C179 0.929 . S
H167 C177 0.929 . S
H168 C172 0.929 . S
H169 C178 0.929 . S
C170 H164 0.930 . S
C170 C171 1.367 1_556 S
C170 C178 1.378 . S
C171 C170 1.367 1_554 S
C171 C179 1.433 . S
C172 H168 0.929 . S
C172 C174 1.378 . S
C172 C176 1.358 . S
C173 C176 1.466 1_455 S
C173 C178 1.350 1_554 S
C173 N181 1.427 . S
C174 H165 0.930 . S
C174 C172 1.378 . S
C174 C175 1.367 1_554 S
C175 C174 1.367 1_556 S
C175 C177 1.433 . S
C176 C172 1.358 . S
C176 C173 1.466 1_655 S
C176 N180 1.415 1_554 S
C177 H167 0.929 . S
C177 C175 1.433 . S
C177 N180 1.384 . S
C178 H169 0.929 . S
C178 C170 1.378 . S
C178 C173 1.350 1_556 S
C179 H166 0.929 . S
C179 C171 1.433 . S
C179 N181 1.384 . S
N180 C176 1.415 1_556 S
N180 C177 1.384 . S
N181 C173 1.427 . S
N181 C179 1.384 . S
H182 C188 0.930 . S
H183 C192 0.930 . S
H184 C197 0.929 . S
H185 C195 0.929 . S
H186 C190 0.929 . S
H187 C196 0.929 . S
C188 H182 0.930 . S
C188 C189 1.367 . S
C188 C196 1.378 . S
C189 C188 1.367 . S
C189 C197 1.433 . S
C190 H186 0.929 . S
C190 C192 1.378 . S
C190 C194 1.350 . S
C191 C194 1.463 1_545 S
C191 C196 1.350 . S
C191 N199 1.427 . S
C192 H183 0.930 . S
C192 C190 1.378 . S
C192 C193 1.367 . S
C193 C192 1.367 . S
C193 C195 1.433 . S
C194 C190 1.350 . S
C194 C191 1.463 1_565 S
C194 N198 1.427 . S
C195 H185 0.929 . S
C195 C193 1.433 . S
C195 N198 1.384 . S
C196 H187 0.929 . S
C196 C188 1.378 . S
C196 C191 1.350 . S
C197 H184 0.929 . S
C197 C189 1.433 . S
C197 N199 1.384 . S
N198 C194 1.427 . S
N198 C195 1.384 . S
N199 C191 1.427 . S
N199 C197 1.384 . S
C63 C12 1.504 . S
C67 C40 1.502 . S
C81 C26 1.503 . S
C85 C54 1.502 . S
C99 C5 1.315 . S
C103 C46 1.566 . S
C117 C39 1.394 . S
C121 C19 1.156 . S
C135 C53 1.287 . S
C139 C11 1.293 . S
C153 C25 1.398 . S
C157 C33 1.122 . S
C171 C4 1.565 . S
C175 C47 1.311 . S
C189 C18 1.675 . S
C193 C32 1.667 . S
