# Generated by pormake.
# Topology kag, (6)-cn, num edge types: 1
# Building blocks:
#     Node 0, Type 0, BuildingBlock: UKALOJ_clean_sbu_0, # of connection points: 6
#     Node 1, Type 0, BuildingBlock: UKALOJ_clean_sbu_0, # of connection points: 6
#     Node 2, Type 0, BuildingBlock: UKALOJ_clean_sbu_0, # of connection points: 6
#     Edge 3, Type (0, 0), BuildingBlock: CIFDUS_clean_linker_0, # of connection points: 2
#     Edge 4, Type (0, 0), BuildingBlock: CIFDUS_clean_linker_0, # of connection points: 2
#     Edge 5, Type (0, 0), BuildingBlock: CIFDUS_clean_linker_0, # of connection points: 2
#     Edge 6, Type (0, 0), BuildingBlock: CIFDUS_clean_linker_0, # of connection points: 2
#     Edge 7, Type (0, 0), BuildingBlock: CIFDUS_clean_linker_0, # of connection points: 2
#     Edge 8, Type (0, 0), BuildingBlock: CIFDUS_clean_linker_0, # of connection points: 2
#     Edge 9, Type (0, 0), BuildingBlock: CIFDUS_clean_linker_0, # of connection points: 2
#     Edge 10, Type (0, 0), BuildingBlock: CIFDUS_clean_linker_0, # of connection points: 2
#     Edge 11, Type (0, 0), BuildingBlock: CIFDUS_clean_linker_0, # of connection points: 2
# Relax obj value: 0.119
# Max RMSD: 0.168
# Mean RMSD: 0.168
data_MOF--net-kag--node1-UKALOJ_clean_sbu_0--edge1-CIFDUS_clean_linker_0
_symmetry_space_group_name_H-M    P1
_symmetry_Int_Tables_number       1
_symmetry_cell_setting            triclinic
loop_
_symmetry_equiv_pos_as_xyz
'x, y, z'
_cell_length_a     25.624321
_cell_length_b     25.683828
_cell_length_c     18.325686
_cell_angle_alpha  89.261543
_cell_angle_beta   90.118239
_cell_angle_gamma 119.78494
loop_
_atom_site_label
_atom_site_type_symbol
_atom_site_fract_x
_atom_site_fract_y
_atom_site_fract_z
_atom_type_partial_charge
Zn0 Zn -0.0093 0.45857 0.96496 0.0
O1 O 0.05606 0.54524 0.9403 0.0
C2 C 0.07881 0.42874 1.01913 0.0
Zn3 Zn 0.00113 0.4733 0.08473 0.0
C4 C 0.08228 0.58095 0.99206 0.0
O5 O 0.06894 0.56257 0.05789 0.0
C6 C 0.90701 0.3512 0.05407 0.0
O7 O 0.93958 0.50336 0.09146 0.0
O8 O 0.92783 0.48895 0.9733 0.0
N9 N 0.02203 0.48969 0.19246 0.0
C10 C -0.01136 0.48041 0.25309 0.0
C11 C 0.07924 0.51326 0.28699 0.0
N12 N 0.07829 0.51036 0.21369 0.0
N13 N 0.02361 0.49495 0.31311 0.0
C14 C 0.003 0.45088 0.79665 0.0
C15 C 0.91231 0.41775 0.76296 0.0
N16 N 0.96972 0.44185 0.85732 0.0
N17 N 0.91341 0.42102 0.83622 0.0
N18 N 0.96789 0.43598 0.73674 0.0
H19 H 0.09081 0.50203 0.84625 0.0
H20 H 0.09017 0.5075 0.74793 0.0
H21 H 0.08047 0.44023 0.79191 0.0
C22 C 0.06998 0.47713 0.79588 0.0
C23 C 0.92168 0.45427 0.2537 0.0
H24 H 0.90098 0.43007 0.20288 0.0
H25 H 0.91127 0.49117 0.25858 0.0
H26 H 0.90132 0.42332 0.30113 0.0
O27 O 0.93259 0.38446 0.10837 0.0
O28 O 0.92415 0.37179 0.98996 0.0
C29 C 0.91525 0.50599 0.03228 0.0
O30 O 0.05477 0.43009 0.95895 0.0
O31 O 0.06334 0.44372 0.07735 0.0
Zn32 Zn 0.45826 0.00435 0.93353 0.0
O33 O 0.48341 0.93963 0.91692 0.0
C34 C 0.3401 0.91638 0.98501 0.0
Zn35 Zn 0.45936 -0.00258 0.05386 0.0
C36 C 0.49191 0.91609 0.97359 0.0
O37 O 0.48351 0.93133 0.03626 0.0
C38 C 0.42843 0.08777 1.01239 0.0
O39 O 0.55009 0.06028 0.06345 0.0
O40 O 0.55013 0.0689 0.94417 0.0
N41 N 0.45244 0.97755 0.16182 0.0
C42 C 0.47607 0.01085 0.22175 0.0
C43 C 0.4196 0.92022 0.25723 0.0
N44 N 0.41758 0.9213 0.18394 0.0
N45 N 0.45622 0.97577 0.28227 0.0
C46 C 0.44119 -0.00913 0.76578 0.0
C47 C 0.49733 0.08155 0.73027 0.0
N48 N 0.46491 0.02419 0.82567 0.0
N49 N 0.49957 0.08047 0.80354 0.0
N50 N 0.46076 0.02597 0.70526 0.0
H51 H 0.40849 0.90349 0.81646 0.0
H52 H 0.41015 0.9041 0.7179 0.0
H53 H 0.35384 0.91299 0.76574 0.0
C54 C 0.40153 0.92398 0.76662 0.0
C55 C 0.516 0.07771 0.22098 0.0
H56 H 0.51019 0.09826 0.17049 0.0
H57 H 0.56357 0.08844 0.22352 0.0
H58 H 0.5066 0.09772 0.26898 0.0
O59 O 0.43624 0.06412 0.06957 0.0
O60 O 0.43412 0.06999 0.95021 0.0
C61 C 0.57819 0.08346 1.00438 0.0
O62 O 0.36687 0.93863 0.92479 0.0
O63 O 0.36872 0.93413 0.04431 0.0
Zn64 Zn 0.52397 0.53735 0.10796 0.0
O65 O 0.49853 0.44747 0.12148 0.0
C66 C 0.64656 0.56738 0.07821 0.0
Zn67 Zn 0.53711 0.53583 0.98643 0.0
C68 C 0.49583 0.41818 0.06505 0.0
O69 O 0.51005 0.44431 1.00284 0.0
C70 C 0.56275 0.65452 0.03071 0.0
O71 O 0.44964 0.51134 0.96053 0.0
O72 O 0.43355 0.51104 0.07852 0.0
N73 N 0.55728 0.53045 0.87822 0.0
C74 C 0.53977 0.54296 0.81377 0.0
C75 C 0.60206 0.51337 0.78969 0.0
N76 N 0.5959 0.51201 0.86278 0.0
N77 N 0.56714 0.53236 0.75727 0.0
C78 C 0.52216 0.53085 0.28053 0.0
C79 C 0.45939 0.55978 0.30481 0.0
N80 N 0.50414 0.54287 0.21615 0.0
N81 N 0.46523 0.5609 0.2317 0.0
N82 N 0.49481 0.54136 0.33714 0.0
H83 H 0.55216 0.47598 0.33612 0.0
H84 H 0.61047 0.54338 0.29337 0.0
H85 H 0.56194 0.48048 0.23805 0.0
C86 C 0.56376 0.50581 0.28735 0.0
C87 C 0.49867 0.56856 0.80672 0.0
H88 H 0.4999 0.59321 0.85641 0.0
H89 H 0.45198 0.53133 0.79934 0.0
H90 H 0.51122 0.59911 0.75854 0.0
O91 O 0.56228 0.62654 0.97379 0.0
O92 O 0.54932 0.62767 0.09233 0.0
C93 C 0.41414 0.50273 1.01317 0.0
O94 O 0.61369 0.56182 0.13295 0.0
O95 O 0.6248 0.55973 1.01437 0.0
H96 H 0.92958 0.48197 0.63217 0.0
H97 H 0.04154 0.40327 0.67114 0.0
H98 H 0.06984 0.41586 0.54193 0.0
H99 H 0.06174 0.44868 0.41761 0.0
H100 H 0.9499 0.52754 0.37876 0.0
H101 H 0.92145 0.51476 0.50789 0.0
C102 C 0.96007 0.46757 0.61202 0.0
C103 C -0.01554 0.44288 0.66093 0.0
C104 C 0.97556 0.47452 0.53779 0.0
C105 C 0.02372 0.42403 0.63471 0.0
C106 C 0.03941 0.43073 0.56084 0.0
C107 C 0.03123 0.46306 0.43776 0.0
C108 C 0.0069 0.48784 0.38888 0.0
C109 C 0.0157 0.45606 0.51199 0.0
C110 C 0.96763 0.50667 0.41513 0.0
C111 C 0.95188 0.49988 0.48897 0.0
H112 H 0.37404 0.93635 0.38836 0.0
H113 H 0.56332 0.04914 0.34499 0.0
H114 H 0.58134 0.07566 0.47394 0.0
H115 H 0.54286 0.06545 0.59915 0.0
H116 H 0.35365 0.95247 0.6427 0.0
H117 H 0.33555 0.92606 0.51366 0.0
C118 C 0.41911 0.96669 0.40753 0.0
C119 C 0.46712 -0.00811 0.35759 0.0
C120 C 0.429 0.98098 0.48155 0.0
C121 C 0.52553 0.03086 0.38236 0.0
C122 C 0.53585 0.04546 0.45603 0.0
C123 C 0.49778 0.03509 0.58 0.0
C124 C 0.4498 0.00986 0.62996 0.0
C125 C 0.48788 0.02081 0.50599 0.0
C126 C 0.39139 0.97084 0.60524 0.0
C127 C 0.38104 0.95629 0.53155 0.0
H128 H 0.46683 0.50006 0.6774 0.0
H129 H 0.6591 0.57885 0.66164 0.0
H130 H 0.65434 0.58754 0.52891 0.0
H131 H 0.59528 0.5738 0.41695 0.0
H132 H 0.40297 0.49488 0.43285 0.0
H133 H 0.4078 0.48631 0.56554 0.0
C134 C 0.5077 0.52023 0.64503 0.0
C135 C 0.5634 0.53993 0.67951 0.0
C136 C 0.5045 0.52474 0.56856 0.0
C137 C 0.61579 0.56382 0.63634 0.0
C138 C 0.61306 0.56873 0.56048 0.0
C139 C 0.55442 0.55364 0.44935 0.0
C140 C 0.49867 0.53388 0.4149 0.0
C141 C 0.55763 0.54915 0.52584 0.0
C142 C 0.44631 0.50998 0.45811 0.0
C143 C 0.44907 0.50512 0.53395 0.0
H144 H 0.15946 0.45211 0.91104 0.0
H145 H 0.11684 0.3894 0.13424 0.0
H146 H 0.21737 0.40317 0.15069 0.0
H147 H 0.32093 0.44648 0.1071 0.0
H148 H 0.36514 0.51257 0.88528 0.0
H149 H 0.26043 0.48431 0.8628 0.0
C150 C 0.17165 0.43968 0.96244 0.0
C151 C 0.13136 0.42036 0.02154 0.0
C152 C 0.23019 0.44983 0.97235 0.0
C153 C 0.14757 0.40476 0.08815 0.0
C154 C 0.20511 0.4131 0.09781 0.0
C155 C 0.30752 0.45443 0.05379 0.0
C156 C 0.3506 0.48253 0.9984 0.0
C157 C 0.24749 0.43813 0.04131 0.0
C158 C 0.33265 0.49143 0.92901 0.0
C159 C 0.27285 0.47522 0.91606 0.0
H160 H 0.64738 0.14121 0.12132 0.0
H161 H 0.65451 0.12042 0.88856 0.0
H162 H 0.76108 0.19464 0.88701 0.0
H163 H 0.84854 0.27163 0.94854 0.0
H164 H 0.84128 0.30022 0.17909 0.0
H165 H 0.73873 0.2148 0.18532 0.0
C166 C 0.67246 0.15264 0.07045 0.0
C167 C 0.64308 0.12614 1.005 0.0
C168 C 0.73356 0.19623 0.06965 0.0
C169 C 0.67599 0.14099 0.93946 0.0
C170 C 0.73694 0.18313 0.93854 0.0
C171 C 0.825 0.25878 1.00055 0.0
C172 C 0.85199 0.29265 0.06302 0.0
C173 C 0.76568 0.21192 1.00292 0.0
C174 C 0.82127 0.27486 0.13014 0.0
C175 C 0.7625 0.22648 0.13355 0.0
H176 H 0.54372 0.88354 0.07883 0.0
H177 H 0.48682 0.85109 0.85416 0.0
H178 H 0.514 0.77237 0.84828 0.0
H179 H 0.54277 0.70562 0.9118 0.0
H180 H 0.5955 0.73654 0.13803 0.0
H181 H 0.5826 0.82442 0.13795 0.0
C182 C 0.5375 0.85941 0.02845 0.0
C183 C 0.51223 0.872 0.96751 0.0
C184 C 0.55285 0.81438 0.02566 0.0
C185 C 0.50567 0.84155 0.90204 0.0
C186 C 0.52122 0.79667 0.89864 0.0
C187 C 0.55298 0.73259 0.96042 0.0
C188 C 0.56941 0.71454 0.02503 0.0
C189 C 0.54347 0.78177 0.96071 0.0
C190 C 0.58228 0.74951 0.08785 0.0
C191 C 0.57457 0.79945 0.08799 0.0
H192 H 0.85938 0.52212 0.14854 0.0
H193 H 0.87756 0.54263 0.91403 0.0
H194 H 0.80329 0.57543 0.91057 0.0
H195 H 0.72632 0.58739 0.97154 0.0
H196 H 0.69983 0.55807 0.20428 0.0
H197 H 0.78628 0.54204 0.21154 0.0
C198 C 0.84743 0.53434 0.09683 0.0
C199 C 0.8731 0.52913 0.03152 0.0
C200 C 0.80372 0.55197 0.09502 0.0
C201 C 0.85759 0.54533 0.96489 0.0
C202 C 0.81543 0.56439 0.96287 0.0
C203 C 0.7399 0.57843 0.02421 0.0
C204 C 0.7062 0.57289 0.0871 0.0
C205 C 0.78721 0.56633 0.0273 0.0
C206 C 0.72499 0.56232 0.15501 0.0
C207 C 0.77395 0.55251 0.15902 0.0
H208 H 0.11668 0.67626 0.07929 0.0
H209 H 0.14545 0.62581 0.8658 0.0
H210 H 0.22168 0.72962 0.83888 0.0
H211 H 0.28739 0.83209 0.88152 0.0
H212 H 0.25984 0.88135 0.0963 0.0
H213 H 0.17432 0.78101 0.11633 0.0
C214 C 0.13964 0.68812 0.0269 0.0
C215 C 0.12663 0.64364 0.97522 0.0
C216 C 0.18296 0.74769 1.01168 0.0
C217 C 0.15542 0.65949 0.90678 0.0
C218 C 0.19879 0.71876 0.89123 0.0
C219 C 0.26141 0.82131 0.93167 0.0
C220 C 0.27988 0.86347 0.9876 0.0
C221 C 0.21374 0.76299 0.94385 0.0
C222 C 0.24637 0.84914 0.05269 0.0
C223 C 0.19791 0.79174 0.06445 0.0
H224 H 0.44689 0.3362 0.95932 0.0
H225 H 0.49943 0.35679 0.18561 0.0
H226 H 0.47382 0.25153 0.19269 0.0
H227 H 0.44739 0.15769 0.13026 0.0
H228 H 0.39643 0.13869 0.90317 0.0
H229 H 0.40902 0.23911 0.90128 0.0
C230 C 0.45243 0.31749 1.01024 0.0
C231 C 0.47607 0.35406 0.07136 0.0
C232 C 0.43761 0.25734 1.01388 0.0
C233 C 0.48176 0.32928 0.13763 0.0
C234 C 0.46714 0.26925 0.14171 0.0
C235 C 0.43765 0.17499 0.0809 0.0
C236 C 0.42201 0.14138 1.01668 0.0
C237 C 0.44641 0.23331 0.07963 0.0
C238 C 0.40928 0.16414 0.95312 0.0
C239 C 0.41676 0.22163 0.95181 0.0
loop_
_geom_bond_atom_site_label_1
_geom_bond_atom_site_label_2
_geom_bond_distance
_geom_bond_site_symmetry_2
_ccdc_geom_bond_type
Zn0 O1 2.055 . S
Zn0 O8 2.046 1_455 S
Zn0 N16 2.036 . S
Zn0 O28 2.053 1_455 S
Zn0 O30 2.066 . S
O1 Zn0 2.055 . S
O1 C4 1.259 . S
C2 O30 1.256 . S
C2 O31 1.244 1_556 S
Zn3 O5 2.046 . S
Zn3 O7 2.055 1_455 S
Zn3 N9 2.036 . S
Zn3 O27 2.066 1_455 S
Zn3 O31 2.053 . S
C4 O1 1.259 . S
C4 O5 1.254 1_556 S
O5 Zn3 2.046 . S
O5 C4 1.254 1_554 S
C6 O27 1.256 . S
C6 O28 1.244 1_554 S
O7 Zn3 2.055 1_655 S
O7 C29 1.259 . S
O8 Zn0 2.046 1_655 S
O8 C29 1.254 1_556 S
N9 Zn3 2.036 . S
N9 C10 1.298 1_455 S
N9 N12 1.398 . S
C10 N9 1.298 1_655 S
C10 N13 1.367 1_655 S
C10 C23 1.481 . S
C11 N12 1.299 . S
C11 N13 1.379 . S
N12 N9 1.398 . S
N12 C11 1.299 . S
N13 C10 1.367 1_455 S
N13 C11 1.379 . S
C14 N16 1.298 . S
C14 N18 1.367 . S
C14 C22 1.481 . S
C15 N17 1.299 . S
C15 N18 1.379 1_655 S
N16 Zn0 2.036 . S
N16 C14 1.298 . S
N16 N17 1.398 1_455 S
N17 C15 1.299 . S
N17 N16 1.398 1_655 S
N18 C14 1.367 . S
N18 C15 1.379 1_455 S
H19 C22 0.980 . S
H20 C22 0.981 . S
H21 C22 0.981 . S
C22 C14 1.481 . S
C22 H19 0.980 . S
C22 H20 0.981 . S
C22 H21 0.981 . S
C23 C10 1.481 . S
C23 H24 0.980 . S
C23 H25 0.981 . S
C23 H26 0.981 . S
H24 C23 0.980 . S
H25 C23 0.981 . S
H26 C23 0.981 . S
O27 Zn3 2.066 1_655 S
O27 C6 1.256 . S
O28 Zn0 2.053 1_655 S
O28 C6 1.244 1_556 S
C29 O7 1.259 . S
C29 O8 1.254 1_554 S
O30 Zn0 2.066 . S
O30 C2 1.256 . S
O31 C2 1.244 1_554 S
O31 Zn3 2.053 . S
Zn32 O33 2.055 1_545 S
Zn32 O40 2.046 . S
Zn32 N48 2.036 . S
Zn32 O60 2.053 . S
Zn32 O62 2.066 1_545 S
O33 Zn32 2.055 1_565 S
O33 C36 1.259 . S
C34 O62 1.256 . S
C34 O63 1.244 1_556 S
Zn35 O37 2.046 1_545 S
Zn35 O39 2.055 . S
Zn35 N41 2.036 . S
Zn35 O59 2.066 . S
Zn35 O63 2.053 1_545 S
C36 O33 1.259 . S
C36 O37 1.254 1_556 S
O37 Zn35 2.046 1_565 S
O37 C36 1.254 1_554 S
C38 O59 1.256 . S
C38 O60 1.244 1_554 S
O39 Zn35 2.055 . S
O39 C61 1.259 . S
O40 Zn32 2.046 . S
O40 C61 1.254 1_556 S
N41 Zn35 2.036 . S
N41 C42 1.298 . S
N41 N44 1.398 1_545 S
C42 N41 1.298 . S
C42 N45 1.367 . S
C42 C55 1.481 . S
C43 N44 1.299 . S
C43 N45 1.379 1_565 S
N44 N41 1.398 1_565 S
N44 C43 1.299 . S
N45 C42 1.367 . S
N45 C43 1.379 1_545 S
C46 N48 1.298 1_565 S
C46 N50 1.367 1_565 S
C46 C54 1.481 . S
C47 N49 1.299 . S
C47 N50 1.379 . S
N48 Zn32 2.036 . S
N48 C46 1.298 1_545 S
N48 N49 1.398 . S
N49 C47 1.299 . S
N49 N48 1.398 . S
N50 C46 1.367 1_545 S
N50 C47 1.379 . S
H51 C54 0.980 . S
H52 C54 0.981 . S
H53 C54 0.981 . S
C54 C46 1.481 . S
C54 H51 0.980 . S
C54 H52 0.981 . S
C54 H53 0.981 . S
C55 C42 1.481 . S
C55 H56 0.980 . S
C55 H57 0.981 . S
C55 H58 0.981 . S
H56 C55 0.980 . S
H57 C55 0.981 . S
H58 C55 0.981 . S
O59 Zn35 2.066 . S
O59 C38 1.256 . S
O60 Zn32 2.053 . S
O60 C38 1.244 1_556 S
C61 O39 1.259 . S
C61 O40 1.254 1_554 S
O62 Zn32 2.066 1_565 S
O62 C34 1.256 . S
O63 C34 1.244 1_554 S
O63 Zn35 2.053 1_565 S
Zn64 O65 2.055 . S
Zn64 O72 2.046 . S
Zn64 N80 2.036 . S
Zn64 O92 2.053 . S
Zn64 O94 2.066 . S
O65 Zn64 2.055 . S
O65 C68 1.259 . S
C66 O94 1.256 . S
C66 O95 1.244 1_554 S
Zn67 O69 2.046 . S
Zn67 O71 2.055 . S
Zn67 N73 2.036 . S
Zn67 O91 2.066 . S
Zn67 O95 2.053 . S
C68 O65 1.259 . S
C68 O69 1.254 1_554 S
O69 Zn67 2.046 . S
O69 C68 1.254 1_556 S
C70 O91 1.256 . S
C70 O92 1.244 1_556 S
O71 Zn67 2.055 . S
O71 C93 1.259 . S
O72 Zn64 2.046 . S
O72 C93 1.254 1_554 S
N73 Zn67 2.036 . S
N73 C74 1.298 . S
N73 N76 1.398 . S
C74 N73 1.298 . S
C74 N77 1.367 . S
C74 C87 1.481 . S
C75 N76 1.299 . S
C75 N77 1.379 . S
N76 N73 1.398 . S
N76 C75 1.299 . S
N77 C74 1.367 . S
N77 C75 1.379 . S
C78 N80 1.298 . S
C78 N82 1.367 . S
C78 C86 1.481 . S
C79 N81 1.299 . S
C79 N82 1.379 . S
N80 Zn64 2.036 . S
N80 C78 1.298 . S
N80 N81 1.398 . S
N81 C79 1.299 . S
N81 N80 1.398 . S
N82 C78 1.367 . S
N82 C79 1.379 . S
H83 C86 0.980 . S
H84 C86 0.981 . S
H85 C86 0.981 . S
C86 C78 1.481 . S
C86 H83 0.980 . S
C86 H84 0.981 . S
C86 H85 0.981 . S
C87 C74 1.481 . S
C87 H88 0.980 . S
C87 H89 0.981 . S
C87 H90 0.981 . S
H88 C87 0.980 . S
H89 C87 0.981 . S
H90 C87 0.981 . S
O91 Zn67 2.066 . S
O91 C70 1.256 . S
O92 Zn64 2.053 . S
O92 C70 1.244 1_554 S
C93 O71 1.259 . S
C93 O72 1.254 1_556 S
O94 Zn64 2.066 . S
O94 C66 1.256 . S
O95 C66 1.244 1_556 S
O95 Zn67 2.053 . S
H96 C102 0.930 . S
H97 C105 0.930 . S
H98 C106 0.930 . S
H99 C107 0.930 . S
H100 C110 0.930 . S
H101 C111 0.930 . S
C102 H96 0.930 . S
C102 C103 1.355 1_655 S
C102 C104 1.415 . S
C103 C102 1.355 1_455 S
C103 C105 1.419 . S
C104 C102 1.415 . S
C104 C109 1.425 1_655 S
C104 C111 1.409 . S
C105 H97 0.930 . S
C105 C103 1.419 . S
C105 C106 1.362 . S
C106 H98 0.930 . S
C106 C105 1.362 . S
C106 C109 1.409 . S
C107 H99 0.930 . S
C107 C108 1.355 1_455 S
C107 C109 1.415 . S
C108 C107 1.355 1_655 S
C108 C110 1.419 . S
C109 C104 1.425 1_455 S
C109 C106 1.409 . S
C109 C107 1.415 . S
C110 H100 0.930 . S
C110 C108 1.419 . S
C110 C111 1.362 . S
C111 H101 0.930 . S
C111 C104 1.409 . S
C111 C110 1.362 . S
H112 C118 0.930 1_565 S
H113 C121 0.930 . S
H114 C122 0.930 . S
H115 C123 0.930 . S
H116 C126 0.930 . S
H117 C127 0.930 . S
C118 H112 0.930 1_545 S
C118 C119 1.355 . S
C118 C120 1.415 1_545 S
C119 C118 1.355 . S
C119 C121 1.419 . S
C120 C118 1.415 1_565 S
C120 C125 1.425 1_565 S
C120 C127 1.409 . S
C121 H113 0.930 . S
C121 C119 1.419 . S
C121 C122 1.362 . S
C122 H114 0.930 . S
C122 C121 1.362 . S
C122 C125 1.409 . S
C123 H115 0.930 . S
C123 C124 1.355 1_545 S
C123 C125 1.415 . S
C124 C123 1.355 1_565 S
C124 C126 1.419 . S
C125 C120 1.425 1_545 S
C125 C122 1.409 . S
C125 C123 1.415 . S
C126 H116 0.930 . S
C126 C124 1.419 . S
C126 C127 1.362 . S
C127 H117 0.930 . S
C127 C120 1.409 . S
C127 C126 1.362 . S
H128 C134 0.930 . S
H129 C137 0.930 . S
H130 C138 0.930 . S
H131 C139 0.930 . S
H132 C142 0.930 . S
H133 C143 0.930 . S
C134 H128 0.930 . S
C134 C135 1.355 . S
C134 C136 1.415 . S
C135 C134 1.355 . S
C135 C137 1.419 . S
C136 C134 1.415 . S
C136 C141 1.425 . S
C136 C143 1.409 . S
C137 H129 0.930 . S
C137 C135 1.419 . S
C137 C138 1.362 . S
C138 H130 0.930 . S
C138 C137 1.362 . S
C138 C141 1.409 . S
C139 H131 0.930 . S
C139 C140 1.355 . S
C139 C141 1.415 . S
C140 C139 1.355 . S
C140 C142 1.419 . S
C141 C136 1.425 . S
C141 C138 1.409 . S
C141 C139 1.415 . S
C142 H132 0.930 . S
C142 C140 1.419 . S
C142 C143 1.362 . S
C143 H133 0.930 . S
C143 C136 1.409 . S
C143 C142 1.362 . S
H144 C150 0.930 . S
H145 C153 0.930 . S
H146 C154 0.930 . S
H147 C155 0.930 . S
H148 C158 0.930 . S
H149 C159 0.930 . S
C150 H144 0.930 . S
C150 C151 1.355 . S
C150 C152 1.415 . S
C151 C150 1.355 . S
C151 C153 1.419 1_556 S
C152 C150 1.415 . S
C152 C157 1.425 1_556 S
C152 C159 1.409 . S
C153 H145 0.930 . S
C153 C151 1.419 1_554 S
C153 C154 1.362 . S
C154 H146 0.930 . S
C154 C153 1.362 . S
C154 C157 1.409 . S
C155 H147 0.930 . S
C155 C156 1.355 1_554 S
C155 C157 1.415 . S
C156 C155 1.355 1_556 S
C156 C158 1.419 . S
C157 C152 1.425 1_554 S
C157 C154 1.409 . S
C157 C155 1.415 . S
C158 H148 0.930 . S
C158 C156 1.419 . S
C158 C159 1.362 . S
C159 H149 0.930 . S
C159 C152 1.409 . S
C159 C158 1.362 . S
H160 C166 0.930 . S
H161 C169 0.930 . S
H162 C170 0.930 . S
H163 C171 0.930 . S
H164 C174 0.930 . S
H165 C175 0.930 . S
C166 H160 0.930 . S
C166 C167 1.355 1_554 S
C166 C168 1.415 . S
C167 C166 1.355 1_556 S
C167 C169 1.419 . S
C168 C166 1.415 . S
C168 C173 1.425 1_554 S
C168 C175 1.409 . S
C169 H161 0.930 . S
C169 C167 1.419 . S
C169 C170 1.362 . S
C170 H162 0.930 . S
C170 C169 1.362 . S
C170 C173 1.409 . S
C171 H163 0.930 . S
C171 C172 1.355 1_556 S
C171 C173 1.415 . S
C172 C171 1.355 1_554 S
C172 C174 1.419 . S
C173 C168 1.425 1_556 S
C173 C170 1.409 . S
C173 C171 1.415 . S
C174 H164 0.930 . S
C174 C172 1.419 . S
C174 C175 1.362 . S
C175 H165 0.930 . S
C175 C168 1.409 . S
C175 C174 1.362 . S
H176 C182 0.930 . S
H177 C185 0.930 . S
H178 C186 0.930 . S
H179 C187 0.930 . S
H180 C190 0.930 . S
H181 C191 0.930 . S
C182 H176 0.930 . S
C182 C183 1.355 1_554 S
C182 C184 1.415 . S
C183 C182 1.355 1_556 S
C183 C185 1.419 . S
C184 C182 1.415 . S
C184 C189 1.425 1_554 S
C184 C191 1.409 . S
C185 H177 0.930 . S
C185 C183 1.419 . S
C185 C186 1.362 . S
C186 H178 0.930 . S
C186 C185 1.362 . S
C186 C189 1.409 . S
C187 H179 0.930 . S
C187 C188 1.355 . S
C187 C189 1.415 . S
C188 C187 1.355 . S
C188 C190 1.419 1_556 S
C189 C184 1.425 1_556 S
C189 C186 1.409 . S
C189 C187 1.415 . S
C190 H180 0.930 . S
C190 C188 1.419 1_554 S
C190 C191 1.362 . S
C191 H181 0.930 . S
C191 C184 1.409 . S
C191 C190 1.362 . S
H192 C198 0.930 . S
H193 C201 0.930 . S
H194 C202 0.930 . S
H195 C203 0.930 . S
H196 C206 0.930 . S
H197 C207 0.930 . S
C198 H192 0.930 . S
C198 C199 1.355 . S
C198 C200 1.415 . S
C199 C198 1.355 . S
C199 C201 1.419 . S
C200 C198 1.415 . S
C200 C205 1.425 . S
C200 C207 1.409 . S
C201 H193 0.930 . S
C201 C199 1.419 . S
C201 C202 1.362 . S
C202 H194 0.930 . S
C202 C201 1.362 . S
C202 C205 1.409 . S
C203 H195 0.930 . S
C203 C204 1.355 . S
C203 C205 1.415 . S
C204 C203 1.355 . S
C204 C206 1.419 . S
C205 C200 1.425 . S
C205 C202 1.409 . S
C205 C203 1.415 . S
C206 H196 0.930 . S
C206 C204 1.419 . S
C206 C207 1.362 . S
C207 H197 0.930 . S
C207 C200 1.409 . S
C207 C206 1.362 . S
H208 C214 0.930 . S
H209 C217 0.930 . S
H210 C218 0.930 . S
H211 C219 0.930 . S
H212 C222 0.930 . S
H213 C223 0.930 . S
C214 H208 0.930 . S
C214 C215 1.355 1_554 S
C214 C216 1.415 . S
C215 C214 1.355 1_556 S
C215 C217 1.419 . S
C216 C214 1.415 . S
C216 C221 1.425 1_554 S
C216 C223 1.409 . S
C217 H209 0.930 . S
C217 C215 1.419 . S
C217 C218 1.362 . S
C218 H210 0.930 . S
C218 C217 1.362 . S
C218 C221 1.409 . S
C219 H211 0.930 . S
C219 C220 1.355 . S
C219 C221 1.415 . S
C220 C219 1.355 . S
C220 C222 1.419 1_556 S
C221 C216 1.425 1_556 S
C221 C218 1.409 . S
C221 C219 1.415 . S
C222 H212 0.930 . S
C222 C220 1.419 1_554 S
C222 C223 1.362 . S
C223 H213 0.930 . S
C223 C216 1.409 . S
C223 C222 1.362 . S
H224 C230 0.930 . S
H225 C233 0.930 . S
H226 C234 0.930 . S
H227 C235 0.930 . S
H228 C238 0.930 . S
H229 C239 0.930 . S
C230 H224 0.930 . S
C230 C231 1.355 1_556 S
C230 C232 1.415 1_556 S
C231 C230 1.355 1_554 S
C231 C233 1.419 . S
C232 C230 1.415 1_554 S
C232 C237 1.426 . S
C232 C239 1.409 1_554 S
C233 H225 0.930 . S
C233 C231 1.419 . S
C233 C234 1.362 . S
C234 H226 0.930 . S
C234 C233 1.362 . S
C234 C237 1.409 . S
C235 H227 0.930 . S
C235 C236 1.355 . S
C235 C237 1.415 . S
C236 C235 1.355 . S
C236 C238 1.419 1_554 S
C237 C232 1.426 . S
C237 C234 1.409 . S
C237 C235 1.415 . S
C238 H228 0.930 . S
C238 C236 1.419 1_556 S
C238 C239 1.362 . S
C239 H229 0.930 . S
C239 C232 1.409 1_556 S
C239 C238 1.362 . S
C103 N18 1.509 . S
C108 N13 1.500 1_655 S
C119 N45 1.510 . S
C124 N50 1.515 1_565 S
C135 N77 1.426 . S
C140 N82 1.425 . S
C151 C2 1.213 . S
C156 C93 1.232 . S
C167 C61 1.230 1_556 S
C172 C6 1.231 . S
C183 C36 1.234 . S
C188 C70 1.230 . S
C199 C29 1.234 . S
C204 C66 1.239 . S
C215 C4 1.232 . S
C220 C34 1.216 . S
C231 C68 1.234 . S
C236 C38 1.237 . S
