# Generated by pormake.
# Topology uog, (4)-cn, num edge types: 1
# Building blocks:
#     Node 0, Type 0, BuildingBlock: QUQFOY_clean_sbu_3, # of connection points: 4
#     Node 1, Type 0, BuildingBlock: QUQFOY_clean_sbu_3, # of connection points: 4
#     Node 2, Type 0, BuildingBlock: QUQFOY_clean_sbu_3, # of connection points: 4
#     Node 3, Type 0, BuildingBlock: QUQFOY_clean_sbu_3, # of connection points: 4
#     Node 4, Type 0, BuildingBlock: QUQFOY_clean_sbu_3, # of connection points: 4
#     Node 5, Type 0, BuildingBlock: QUQFOY_clean_sbu_3, # of connection points: 4
#     Edge 6, Type (0, 0), None
#     Edge 7, Type (0, 0), None
#     Edge 8, Type (0, 0), None
#     Edge 9, Type (0, 0), None
#     Edge 10, Type (0, 0), None
#     Edge 11, Type (0, 0), None
#     Edge 12, Type (0, 0), None
#     Edge 13, Type (0, 0), None
#     Edge 14, Type (0, 0), None
#     Edge 15, Type (0, 0), None
#     Edge 16, Type (0, 0), None
#     Edge 17, Type (0, 0), None
# Relax obj value: 0.081
# Max RMSD: 0.171
# Mean RMSD: 0.171
data_MOF--net-uog--node1-QUQFOY_clean_sbu_3--edge1-none
_symmetry_space_group_name_H-M    P1
_symmetry_Int_Tables_number       1
_symmetry_cell_setting            triclinic
loop_
_symmetry_equiv_pos_as_xyz
'x, y, z'
_cell_length_a     14.626018
_cell_length_b     14.626032
_cell_length_c     21.0732
_cell_angle_alpha  90.000593
_cell_angle_beta   90.000777
_cell_angle_gamma 120.00132
loop_
_atom_site_label
_atom_site_type_symbol
_atom_site_fract_x
_atom_site_fract_y
_atom_site_fract_z
_atom_type_partial_charge
C0 C 0.64955 0.32867 0.24188 0.0
O1 O 0.72616 0.3962 0.20888 0.0
Cd2 Cd 0.69448 0.43159 0.10114 0.0
O3 O 0.56271 0.26622 0.2155 0.0
Cd4 Cd 0.51294 0.23083 0.10401 0.0
C5 C 0.46848 0.4321 0.12563 0.0
O6 O 0.63374 0.30711 0.01347 0.0
O7 O 0.47097 0.27389 0.00356 0.0
O8 O 0.54746 0.08537 0.10452 0.0
C9 C 0.55906 0.29941 -0.02211 0.0
O10 O 0.56663 0.48843 0.11418 0.0
C11 C 0.4511 0.01348 0.10277 0.0
O12 O 0.42398 0.33149 0.12858 0.0
O13 O 0.38172 0.04221 0.10154 0.0
C14 C 0.27846 0.67075 0.57522 0.0
O15 O 0.28754 0.74736 0.54221 0.0
Cd16 Cd 0.22048 0.71569 0.43447 0.0
O17 O 0.25406 0.58392 0.54884 0.0
Cd18 Cd 0.23969 0.53415 0.43735 0.0
C19 C -0.00605 0.48968 0.45897 0.0
O20 O 0.2842 0.65494 0.3468 0.0
O21 O 0.15466 0.49218 0.3369 0.0
O22 O 0.41967 0.56867 0.43786 0.0
C23 C 0.21722 0.58027 0.31122 0.0
O24 O 0.03577 0.58784 0.44751 0.0
C25 C 0.39518 0.4723 0.4361 0.0
O26 O 0.05005 0.44518 0.46191 0.0
O27 O 0.29708 0.40293 0.43487 0.0
C28 C 0.56527 0.29968 0.90854 0.0
O29 O 0.49772 0.30874 0.87554 0.0
Cd30 Cd 0.46233 0.24167 0.7678 0.0
O31 O 0.62772 0.27529 0.88217 0.0
Cd32 Cd 0.6631 0.26089 0.77068 0.0
C33 C 0.46185 0.01516 0.79231 0.0
O34 O 0.58682 0.30541 0.68014 0.0
O35 O 0.62003 0.17586 0.67023 0.0
O36 O 0.80857 0.44087 0.77119 0.0
C37 C 0.59451 0.23843 0.64455 0.0
O38 O 0.40549 0.05697 0.78085 0.0
C39 C 0.88045 0.41639 0.76943 0.0
O40 O 0.56243 0.07126 0.79525 0.0
O41 O 0.85172 0.31828 0.76821 0.0
C42 C 0.22316 0.58648 0.24187 0.0
O43 O 0.14655 0.51893 0.20887 0.0
Cd44 Cd 0.17822 0.48354 0.10113 0.0
O45 O 0.31 0.64893 0.21551 0.0
Cd46 Cd 0.35978 0.68432 0.10402 0.0
C47 C 0.40422 0.48304 0.12564 0.0
O48 O 0.23898 0.60803 0.01347 0.0
O49 O 0.40175 0.64125 0.00357 0.0
O50 O 0.32527 0.82978 0.10452 0.0
C51 C 0.31366 0.61573 -0.02211 0.0
O52 O 0.30608 0.4267 0.11418 0.0
C53 C 0.42163 0.90167 0.10277 0.0
O54 O 0.44874 0.58365 0.12858 0.0
O55 O 0.49101 0.87294 0.10154 0.0
C56 C 0.59424 0.24436 0.57521 0.0
O57 O 0.58517 0.16776 0.5422 0.0
Cd58 Cd 0.65223 0.19943 0.43446 0.0
O59 O 0.61863 0.3312 0.54884 0.0
Cd60 Cd 0.63303 0.38099 0.43735 0.0
C61 C 0.87875 0.42543 0.45898 0.0
O62 O 0.5885 0.26019 0.3468 0.0
O63 O 0.71806 0.42297 0.33691 0.0
O64 O 0.45305 0.34647 0.43786 0.0
C65 C 0.65547 0.33488 0.31123 0.0
O66 O 0.83694 0.32728 0.44751 0.0
C67 C 0.47753 0.44284 0.43611 0.0
O68 O 0.82266 0.46994 0.46192 0.0
O69 O 0.57564 0.51221 0.43488 0.0
C70 C 0.30745 0.61545 0.90855 0.0
O71 O 0.37499 0.60638 0.87554 0.0
Cd72 Cd 0.41037 0.67344 0.7678 0.0
O73 O 0.245 0.63984 0.88217 0.0
Cd74 Cd 0.20961 0.65423 0.77069 0.0
C75 C 0.41087 0.89995 0.79231 0.0
O76 O 0.28588 0.6097 0.68014 0.0
O77 O 0.25267 0.73926 0.67024 0.0
O78 O 0.06415 0.47425 0.77119 0.0
C79 C 0.27817 0.67668 0.64456 0.0
O80 O 0.46723 0.85815 0.78085 0.0
C81 C -0.00774 0.49873 0.76944 0.0
O82 O 0.31029 0.84386 0.79525 0.0
O83 O 0.021 0.59684 0.76821 0.0
loop_
_geom_bond_atom_site_label_1
_geom_bond_atom_site_label_2
_geom_bond_distance
_geom_bond_site_symmetry_2
_ccdc_geom_bond_type
C0 O1 1.306 . S
C0 O3 1.160 . S
O1 C0 1.306 . S
O1 Cd2 2.228 . S
Cd2 O1 2.228 . S
Cd2 O6 2.273 . S
Cd2 O10 2.277 . S
O3 C0 1.160 . S
O3 Cd4 2.203 . S
Cd4 O3 2.203 . S
Cd4 O6 2.411 . S
Cd4 O7 2.333 . S
Cd4 O8 2.352 . S
Cd4 O12 2.277 . S
Cd4 O13 2.356 . S
C5 O10 1.209 . S
C5 O12 1.226 . S
O6 Cd2 2.273 . S
O6 Cd4 2.411 . S
O6 C9 1.320 . S
O7 Cd4 2.333 . S
O7 C9 1.214 . S
O8 Cd4 2.352 . S
O8 C11 1.258 . S
C9 O6 1.320 . S
C9 O7 1.214 . S
O10 Cd2 2.277 . S
O10 C5 1.209 . S
C11 O8 1.258 . S
C11 O13 1.282 . S
O12 Cd4 2.277 . S
O12 C5 1.226 . S
O13 Cd4 2.356 . S
O13 C11 1.282 . S
C14 O15 1.306 . S
C14 O17 1.160 . S
O15 C14 1.306 . S
O15 Cd16 2.228 . S
Cd16 O15 2.228 . S
Cd16 O20 2.273 . S
Cd16 O24 2.277 . S
O17 C14 1.160 . S
O17 Cd18 2.203 . S
Cd18 O17 2.203 . S
Cd18 O20 2.411 . S
Cd18 O21 2.333 . S
Cd18 O22 2.352 . S
Cd18 O26 2.277 . S
Cd18 O27 2.356 . S
C19 O24 1.209 . S
C19 O26 1.226 . S
O20 Cd16 2.273 . S
O20 Cd18 2.411 . S
O20 C23 1.320 . S
O21 Cd18 2.333 . S
O21 C23 1.214 . S
O22 Cd18 2.352 . S
O22 C25 1.258 . S
C23 O20 1.320 . S
C23 O21 1.214 . S
O24 Cd16 2.277 . S
O24 C19 1.209 . S
C25 O22 1.258 . S
C25 O27 1.282 . S
O26 Cd18 2.277 . S
O26 C19 1.226 . S
O27 Cd18 2.356 . S
O27 C25 1.282 . S
C28 O29 1.306 . S
C28 O31 1.160 . S
O29 C28 1.306 . S
O29 Cd30 2.228 . S
Cd30 O29 2.228 . S
Cd30 O34 2.273 . S
Cd30 O38 2.277 . S
O31 C28 1.160 . S
O31 Cd32 2.203 . S
Cd32 O31 2.203 . S
Cd32 O34 2.411 . S
Cd32 O35 2.333 . S
Cd32 O36 2.352 . S
Cd32 O40 2.277 . S
Cd32 O41 2.356 . S
C33 O38 1.209 . S
C33 O40 1.226 . S
O34 Cd30 2.273 . S
O34 Cd32 2.411 . S
O34 C37 1.320 . S
O35 Cd32 2.333 . S
O35 C37 1.214 . S
O36 Cd32 2.352 . S
O36 C39 1.258 . S
C37 O34 1.320 . S
C37 O35 1.214 . S
O38 Cd30 2.277 . S
O38 C33 1.209 . S
C39 O36 1.258 . S
C39 O41 1.282 . S
O40 Cd32 2.277 . S
O40 C33 1.226 . S
O41 Cd32 2.356 . S
O41 C39 1.282 . S
C42 O43 1.306 . S
C42 O45 1.160 . S
O43 C42 1.306 . S
O43 Cd44 2.228 . S
Cd44 O43 2.228 . S
Cd44 O48 2.273 . S
Cd44 O52 2.277 . S
O45 C42 1.160 . S
O45 Cd46 2.203 . S
Cd46 O45 2.203 . S
Cd46 O48 2.411 . S
Cd46 O49 2.333 . S
Cd46 O50 2.352 . S
Cd46 O54 2.277 . S
Cd46 O55 2.356 . S
C47 O52 1.209 . S
C47 O54 1.226 . S
O48 Cd44 2.273 . S
O48 Cd46 2.411 . S
O48 C51 1.320 . S
O49 Cd46 2.333 . S
O49 C51 1.214 . S
O50 Cd46 2.352 . S
O50 C53 1.258 . S
C51 O48 1.320 . S
C51 O49 1.214 . S
O52 Cd44 2.277 . S
O52 C47 1.209 . S
C53 O50 1.258 . S
C53 O55 1.282 . S
O54 Cd46 2.277 . S
O54 C47 1.226 . S
O55 Cd46 2.356 . S
O55 C53 1.282 . S
C56 O57 1.306 . S
C56 O59 1.160 . S
O57 C56 1.306 . S
O57 Cd58 2.228 . S
Cd58 O57 2.228 . S
Cd58 O62 2.273 . S
Cd58 O66 2.277 . S
O59 C56 1.160 . S
O59 Cd60 2.203 . S
Cd60 O59 2.203 . S
Cd60 O62 2.411 . S
Cd60 O63 2.333 . S
Cd60 O64 2.352 . S
Cd60 O68 2.277 . S
Cd60 O69 2.356 . S
C61 O66 1.209 . S
C61 O68 1.226 . S
O62 Cd58 2.273 . S
O62 Cd60 2.411 . S
O62 C65 1.320 . S
O63 Cd60 2.333 . S
O63 C65 1.214 . S
O64 Cd60 2.352 . S
O64 C67 1.258 . S
C65 O62 1.320 . S
C65 O63 1.214 . S
O66 Cd58 2.277 . S
O66 C61 1.209 . S
C67 O64 1.258 . S
C67 O69 1.282 . S
O68 Cd60 2.277 . S
O68 C61 1.226 . S
O69 Cd60 2.356 . S
O69 C67 1.282 . S
C70 O71 1.306 . S
C70 O73 1.160 . S
O71 C70 1.306 . S
O71 Cd72 2.228 . S
Cd72 O71 2.228 . S
Cd72 O76 2.273 . S
Cd72 O80 2.277 . S
O73 C70 1.160 . S
O73 Cd74 2.203 . S
Cd74 O73 2.203 . S
Cd74 O76 2.411 . S
Cd74 O77 2.333 . S
Cd74 O78 2.352 . S
Cd74 O82 2.277 . S
Cd74 O83 2.356 . S
C75 O80 1.209 . S
C75 O82 1.226 . S
O76 Cd72 2.273 . S
O76 Cd74 2.411 . S
O76 C79 1.320 . S
O77 Cd74 2.333 . S
O77 C79 1.214 . S
O78 Cd74 2.352 . S
O78 C81 1.258 . S
C79 O76 1.320 . S
C79 O77 1.214 . S
O80 Cd72 2.277 . S
O80 C75 1.209 . S
C81 O78 1.258 . S
C81 O83 1.282 . S
O82 Cd74 2.277 . S
O82 C75 1.226 . S
O83 Cd74 2.356 . S
O83 C81 1.282 . S
C11 C53 1.423 1_545 S
C25 C67 1.423 . S
C39 C81 1.423 1_655 S
C19 C61 1.589 1_455 S
C75 C33 1.589 1_565 S
C47 C5 1.589 . S
C28 C9 1.894 1_556 S
C42 C23 1.894 . S
C37 C56 1.894 . S
C70 C51 1.894 1_556 S
C65 C0 1.894 . S
C79 C14 1.894 . S
