# Generated by pormake.
# Topology wjf, (4)-cn, num edge types: 1
# Building blocks:
#     Node 0, Type 0, BuildingBlock: GALJAG_clean_sbu_0, # of connection points: 4
#     Node 1, Type 0, BuildingBlock: GALJAG_clean_sbu_0, # of connection points: 4
#     Node 2, Type 0, BuildingBlock: GALJAG_clean_sbu_0, # of connection points: 4
#     Node 3, Type 0, BuildingBlock: GALJAG_clean_sbu_0, # of connection points: 4
#     Node 4, Type 0, BuildingBlock: GALJAG_clean_sbu_0, # of connection points: 4
#     Node 5, Type 0, BuildingBlock: GALJAG_clean_sbu_0, # of connection points: 4
#     Node 6, Type 0, BuildingBlock: GALJAG_clean_sbu_0, # of connection points: 4
#     Node 7, Type 0, BuildingBlock: GALJAG_clean_sbu_0, # of connection points: 4
#     Node 8, Type 0, BuildingBlock: GALJAG_clean_sbu_0, # of connection points: 4
#     Node 9, Type 0, BuildingBlock: GALJAG_clean_sbu_0, # of connection points: 4
#     Node 10, Type 0, BuildingBlock: GALJAG_clean_sbu_0, # of connection points: 4
#     Node 11, Type 0, BuildingBlock: GALJAG_clean_sbu_0, # of connection points: 4
#     Edge 12, Type (0, 0), None
#     Edge 13, Type (0, 0), None
#     Edge 14, Type (0, 0), None
#     Edge 15, Type (0, 0), None
#     Edge 16, Type (0, 0), None
#     Edge 17, Type (0, 0), None
#     Edge 18, Type (0, 0), None
#     Edge 19, Type (0, 0), None
#     Edge 20, Type (0, 0), None
#     Edge 21, Type (0, 0), None
#     Edge 22, Type (0, 0), None
#     Edge 23, Type (0, 0), None
#     Edge 24, Type (0, 0), None
#     Edge 25, Type (0, 0), None
#     Edge 26, Type (0, 0), None
#     Edge 27, Type (0, 0), None
#     Edge 28, Type (0, 0), None
#     Edge 29, Type (0, 0), None
#     Edge 30, Type (0, 0), None
#     Edge 31, Type (0, 0), None
#     Edge 32, Type (0, 0), None
#     Edge 33, Type (0, 0), None
#     Edge 34, Type (0, 0), None
#     Edge 35, Type (0, 0), None
# Relax obj value: 0.086
# Max RMSD: 0.104
# Mean RMSD: 0.104
data_MOF--net-wjf--node1-GALJAG_clean_sbu_0--edge1-none
_symmetry_space_group_name_H-M    P1
_symmetry_Int_Tables_number       1
_symmetry_cell_setting            triclinic
loop_
_symmetry_equiv_pos_as_xyz
'x, y, z'
_cell_length_a     22.864571
_cell_length_b     22.867312
_cell_length_c     12.605991
_cell_angle_alpha  90.000279
_cell_angle_beta   89.99986
_cell_angle_gamma 120.00831
loop_
_atom_site_label
_atom_site_type_symbol
_atom_site_fract_x
_atom_site_fract_y
_atom_site_fract_z
_atom_type_partial_charge
In0 In 0.31291 0.37207 0.09225 0.0
O1 O 0.25847 0.43106 0.05592 0.0
O2 O 0.20385 0.32301 0.04522 0.0
C3 C 0.44356 0.46188 0.12382 0.0
C4 C 0.32556 0.34348 0.89312 0.0
C5 C 0.29356 0.31394 0.28439 0.0
O6 O 0.39864 0.47913 0.12438 0.0
O7 O 0.42225 0.39981 0.10942 0.0
O8 O 0.3094 0.29176 0.20387 0.0
O9 O 0.28258 0.362 0.26609 0.0
C10 C 0.20464 0.37791 0.02908 0.0
O11 O 0.29293 0.29634 0.95929 0.0
O12 O 0.35428 0.40265 0.92937 0.0
In13 In 0.92734 0.31969 0.42558 0.0
O14 O -0.01689 0.29975 0.29262 0.0
O15 O 0.93809 0.36103 0.26268 0.0
C16 C 0.96612 0.30035 0.61771 0.0
C17 C 0.81324 0.2114 0.36241 0.0
C18 C 0.96818 0.45032 0.45713 0.0
O19 O 0.00415 0.31619 0.5372 0.0
O20 O 0.90707 0.28936 0.59941 0.0
O21 O 0.906 0.4054 0.4577 0.0
O22 O 0.00895 0.42902 0.44274 0.0
C23 C 0.96858 0.33235 0.22644 0.0
O24 O 0.81389 0.26521 0.38925 0.0
O25 O 0.86737 0.21064 0.37855 0.0
In26 In 0.59414 0.93408 0.75889 0.0
O27 O 0.53515 0.82064 0.72257 0.0
O28 O 0.64322 0.87411 0.71187 0.0
C29 C 0.50436 0.97493 0.79043 0.0
C30 C 0.62273 0.97531 0.55975 0.0
C31 C 0.65227 0.97286 0.95103 0.0
O32 O 0.48708 0.91276 0.791 0.0
O33 O 0.56644 0.01569 0.77604 0.0
O34 O 0.67447 0.01087 0.87051 0.0
O35 O 0.60419 0.91381 0.93272 0.0
C36 C 0.58832 0.81998 0.69573 0.0
O37 O 0.66987 -0.01016 0.62593 0.0
O38 O 0.56355 0.94482 0.59599 0.0
In39 In 0.64657 0.60093 0.09224 0.0
O40 O 0.66656 0.67665 0.95928 0.0
O41 O 0.60521 0.57035 0.92936 0.0
C42 C 0.66592 0.65906 0.28438 0.0
C43 C 0.75485 0.59509 0.02907 0.0
C44 C 0.51593 0.51112 0.12378 0.0
O45 O 0.65008 0.68124 0.20386 0.0
O46 O 0.67691 0.611 0.26608 0.0
O47 O 0.56085 0.49387 0.12438 0.0
O48 O 0.53723 0.57319 0.10941 0.0
C49 C 0.63392 0.62952 0.89311 0.0
O50 O 0.70101 0.54194 0.05591 0.0
O51 O 0.75564 0.64999 0.04522 0.0
In52 In 0.03215 0.6533 0.42557 0.0
O53 O 0.14559 0.70779 0.38924 0.0
O54 O 0.09212 0.76236 0.37854 0.0
C55 C -0.00869 0.52268 0.45709 0.0
C56 C -0.00909 0.64065 0.22643 0.0
C57 C -0.00664 0.67265 0.6177 0.0
O58 O 0.05349 0.5676 0.45769 0.0
O59 O 0.95053 0.54397 0.44272 0.0
O60 O 0.95534 0.6568 0.53719 0.0
O61 O 0.05242 0.68364 0.59939 0.0
C62 C 0.14625 0.7616 0.3624 0.0
O63 O 0.97637 0.67325 0.29261 0.0
O64 O 0.0214 0.61197 0.26267 0.0
In65 In 0.36535 0.03892 0.75888 0.0
O66 O 0.28961 0.98316 0.62591 0.0
O67 O 0.39593 0.02818 0.59598 0.0
C68 C 0.30721 0.00014 0.95102 0.0
C69 C 0.37117 0.15302 0.69573 0.0
C70 C 0.45513 -0.00193 0.79039 0.0
O71 O 0.28501 0.96212 0.87049 0.0
O72 O 0.35529 0.05918 0.93271 0.0
O73 O 0.47241 0.06024 0.79099 0.0
O74 O 0.39304 0.95731 0.77602 0.0
C75 C 0.33675 -0.0023 0.55974 0.0
O76 O 0.42433 0.15236 0.72256 0.0
O77 O 0.31626 0.09889 0.71186 0.0
In78 In 0.59415 0.65333 0.58483 0.0
O79 O 0.53516 0.70776 0.62118 0.0
O80 O 0.64322 0.76238 0.63184 0.0
C81 C 0.50436 0.52268 0.55329 0.0
C82 C 0.62276 0.64067 0.78395 0.0
C83 C 0.65225 0.67264 0.39271 0.0
O84 O 0.48709 0.56758 0.55273 0.0
O85 O 0.56644 0.54401 0.56767 0.0
O86 O 0.67449 0.65687 0.47324 0.0
O87 O 0.60419 0.68362 0.41098 0.0
C88 C 0.58832 0.76159 0.648 0.0
O89 O 0.66989 0.67332 0.71778 0.0
O90 O 0.56358 0.61197 0.74772 0.0
In91 In 0.92733 0.60089 0.91816 0.0
O92 O 0.81389 0.54193 0.95451 0.0
O93 O 0.86737 0.64998 0.96517 0.0
C94 C 0.96818 0.51111 0.88661 0.0
C95 C 0.9686 0.62949 0.11727 0.0
C96 C 0.96612 0.65898 0.72604 0.0
O97 O 0.906 0.49384 0.88605 0.0
O98 O 0.00895 0.57319 0.90099 0.0
O99 O 0.00414 0.68122 0.80655 0.0
O100 O 0.90706 0.61092 0.74431 0.0
C101 C 0.81323 0.59508 0.98133 0.0
O102 O -0.01689 0.67662 0.0511 0.0
O103 O 0.93809 0.57032 0.08105 0.0
In104 In 0.31292 0.93411 0.25146 0.0
O105 O 0.25847 0.82068 0.28782 0.0
O106 O 0.20385 0.87411 0.29849 0.0
C107 C 0.44356 0.97494 0.2199 0.0
C108 C 0.3256 0.97539 0.45058 0.0
C109 C 0.29362 0.9729 0.05935 0.0
O110 O 0.39864 0.91277 0.21934 0.0
O111 O 0.42226 0.01571 0.23429 0.0
O112 O 0.30941 0.01091 0.13987 0.0
O113 O 0.2826 0.91384 0.07762 0.0
C114 C 0.20464 0.81999 0.31465 0.0
O115 O 0.29294 -0.01015 0.38442 0.0
O116 O 0.3543 0.94492 0.41434 0.0
In117 In 0.36533 0.31967 0.58484 0.0
O118 O 0.42432 0.26524 0.62118 0.0
O119 O 0.31626 0.21062 0.63185 0.0
C120 C 0.45513 0.45031 0.55333 0.0
C121 C 0.33672 0.33233 0.78396 0.0
C122 C 0.30723 0.30036 0.39272 0.0
O123 O 0.4724 0.40542 0.55273 0.0
O124 O 0.39304 0.42899 0.56769 0.0
O125 O 0.28499 0.31613 0.47325 0.0
O126 O 0.35529 0.28938 0.41099 0.0
C127 C 0.37116 0.2114 0.648 0.0
O128 O 0.28959 0.29968 0.7178 0.0
O129 O 0.39591 0.36102 0.74773 0.0
In130 In 0.03215 0.37211 0.91817 0.0
O131 O 0.97637 0.29638 0.05111 0.0
O132 O 0.02139 0.40268 0.08106 0.0
C133 C -0.00664 0.31401 0.72605 0.0
C134 C 0.14625 0.37791 0.98134 0.0
C135 C -0.00869 0.46189 0.88665 0.0
O136 O 0.95534 0.29178 0.80657 0.0
O137 O 0.05242 0.36207 0.74432 0.0
O138 O 0.05349 0.47916 0.88605 0.0
O139 O 0.95054 0.39981 0.90101 0.0
C140 C -0.00911 0.34351 0.11728 0.0
O141 O 0.1456 0.43107 0.95452 0.0
O142 O 0.09212 0.32302 0.96518 0.0
In143 In 0.64656 0.03889 0.25148 0.0
O144 O 0.70101 0.15232 0.28783 0.0
O145 O 0.75563 0.09889 0.29849 0.0
C146 C 0.51593 -0.00193 0.21994 0.0
C147 C 0.63389 -0.00238 0.45059 0.0
C148 C 0.66586 0.0001 0.05936 0.0
O149 O 0.56085 0.06023 0.21934 0.0
O150 O 0.53722 0.95729 0.23431 0.0
O151 O 0.65007 0.96209 0.13988 0.0
O152 O 0.67688 0.05916 0.07763 0.0
C153 C 0.75485 0.153 0.31466 0.0
O154 O 0.66654 0.98314 0.38443 0.0
O155 O 0.60519 0.02809 0.41436 0.0
loop_
_geom_bond_atom_site_label_1
_geom_bond_atom_site_label_2
_geom_bond_distance
_geom_bond_site_symmetry_2
_ccdc_geom_bond_type
In0 O1 2.294 . S
In0 O2 2.326 . S
In0 O6 2.266 . S
In0 O7 2.326 . S
In0 O8 2.266 . S
In0 O9 2.326 . S
In0 O11 2.294 1_554 S
In0 O12 2.326 1_554 S
O1 In0 2.294 . S
O1 C10 1.240 . S
O2 In0 2.326 . S
O2 C10 1.252 . S
C3 O6 1.252 . S
C3 O7 1.260 . S
C4 O11 1.240 . S
C4 O12 1.252 . S
C5 O8 1.252 . S
C5 O9 1.260 . S
O6 In0 2.266 . S
O6 C3 1.252 . S
O7 In0 2.326 . S
O7 C3 1.260 . S
O8 In0 2.266 . S
O8 C5 1.252 . S
O9 In0 2.326 . S
O9 C5 1.260 . S
C10 O1 1.240 . S
C10 O2 1.252 . S
O11 In0 2.294 1_556 S
O11 C4 1.240 . S
O12 In0 2.326 1_556 S
O12 C4 1.252 . S
In13 O14 2.294 1_655 S
In13 O15 2.326 . S
In13 O19 2.266 1_655 S
In13 O20 2.326 . S
In13 O21 2.266 . S
In13 O22 2.326 1_655 S
In13 O24 2.294 . S
In13 O25 2.326 . S
O14 In13 2.294 1_455 S
O14 C23 1.240 . S
O15 In13 2.326 . S
O15 C23 1.252 1_655 S
C16 O19 1.252 . S
C16 O20 1.260 1_455 S
C17 O24 1.240 . S
C17 O25 1.252 . S
C18 O21 1.252 . S
C18 O22 1.260 1_655 S
O19 In13 2.266 1_455 S
O19 C16 1.252 . S
O20 In13 2.326 . S
O20 C16 1.260 1_655 S
O21 In13 2.266 . S
O21 C18 1.252 . S
O22 In13 2.326 1_455 S
O22 C18 1.260 1_455 S
C23 O14 1.240 . S
C23 O15 1.252 1_455 S
O24 In13 2.294 . S
O24 C17 1.240 . S
O25 In13 2.326 . S
O25 C17 1.252 . S
In26 O27 2.294 . S
In26 O28 2.326 . S
In26 O32 2.266 . S
In26 O33 2.326 1_565 S
In26 O34 2.266 1_565 S
In26 O35 2.326 . S
In26 O37 2.294 1_565 S
In26 O38 2.326 . S
O27 In26 2.294 . S
O27 C36 1.240 . S
O28 In26 2.326 . S
O28 C36 1.252 . S
C29 O32 1.252 . S
C29 O33 1.260 1_565 S
C30 O37 1.240 . S
C30 O38 1.252 1_545 S
C31 O34 1.252 . S
C31 O35 1.260 1_545 S
O32 In26 2.266 . S
O32 C29 1.252 . S
O33 In26 2.326 1_545 S
O33 C29 1.260 1_545 S
O34 In26 2.266 1_545 S
O34 C31 1.252 . S
O35 In26 2.326 . S
O35 C31 1.260 1_565 S
C36 O27 1.240 . S
C36 O28 1.252 . S
O37 In26 2.294 1_545 S
O37 C30 1.240 . S
O38 In26 2.326 . S
O38 C30 1.252 1_565 S
In39 O40 2.294 1_554 S
In39 O41 2.326 1_554 S
In39 O45 2.266 . S
In39 O46 2.326 . S
In39 O47 2.266 . S
In39 O48 2.326 . S
In39 O50 2.294 . S
In39 O51 2.326 . S
O40 In39 2.294 1_556 S
O40 C49 1.240 . S
O41 In39 2.326 1_556 S
O41 C49 1.252 . S
C42 O45 1.252 . S
C42 O46 1.260 . S
C43 O50 1.240 . S
C43 O51 1.252 . S
C44 O47 1.252 . S
C44 O48 1.260 . S
O45 In39 2.266 . S
O45 C42 1.252 . S
O46 In39 2.326 . S
O46 C42 1.260 . S
O47 In39 2.266 . S
O47 C44 1.252 . S
O48 In39 2.326 . S
O48 C44 1.260 . S
C49 O40 1.240 . S
C49 O41 1.252 . S
O50 In39 2.294 . S
O50 C43 1.240 . S
O51 In39 2.326 . S
O51 C43 1.252 . S
In52 O53 2.294 . S
In52 O54 2.326 . S
In52 O58 2.266 . S
In52 O59 2.326 1_455 S
In52 O60 2.266 1_455 S
In52 O61 2.326 . S
In52 O63 2.294 1_455 S
In52 O64 2.326 . S
O53 In52 2.294 . S
O53 C62 1.240 . S
O54 In52 2.326 . S
O54 C62 1.252 . S
C55 O58 1.252 . S
C55 O59 1.260 1_455 S
C56 O63 1.240 . S
C56 O64 1.252 1_655 S
C57 O60 1.252 . S
C57 O61 1.260 1_655 S
O58 In52 2.266 . S
O58 C55 1.252 . S
O59 In52 2.326 1_655 S
O59 C55 1.260 1_655 S
O60 In52 2.266 1_655 S
O60 C57 1.252 . S
O61 In52 2.326 . S
O61 C57 1.260 1_455 S
C62 O53 1.240 . S
C62 O54 1.252 . S
O63 In52 2.294 1_655 S
O63 C56 1.240 . S
O64 In52 2.326 . S
O64 C56 1.252 1_455 S
In65 O66 2.294 1_545 S
In65 O67 2.326 . S
In65 O71 2.266 1_545 S
In65 O72 2.326 . S
In65 O73 2.266 . S
In65 O74 2.326 1_545 S
In65 O76 2.294 . S
In65 O77 2.326 . S
O66 In65 2.294 1_565 S
O66 C75 1.240 . S
O67 In65 2.326 . S
O67 C75 1.252 1_545 S
C68 O71 1.252 . S
C68 O72 1.260 1_565 S
C69 O76 1.240 . S
C69 O77 1.252 . S
C70 O73 1.252 . S
C70 O74 1.260 1_545 S
O71 In65 2.266 1_565 S
O71 C68 1.252 . S
O72 In65 2.326 . S
O72 C68 1.260 1_545 S
O73 In65 2.266 . S
O73 C70 1.252 . S
O74 In65 2.326 1_565 S
O74 C70 1.260 1_565 S
C75 O66 1.240 . S
C75 O67 1.252 1_565 S
O76 In65 2.294 . S
O76 C69 1.240 . S
O77 In65 2.326 . S
O77 C69 1.252 . S
In78 O79 2.294 . S
In78 O80 2.326 . S
In78 O84 2.266 . S
In78 O85 2.326 . S
In78 O86 2.266 . S
In78 O87 2.326 . S
In78 O89 2.294 . S
In78 O90 2.326 . S
O79 In78 2.294 . S
O79 C88 1.240 . S
O80 In78 2.326 . S
O80 C88 1.252 . S
C81 O84 1.252 . S
C81 O85 1.260 . S
C82 O89 1.240 . S
C82 O90 1.252 . S
C83 O86 1.252 . S
C83 O87 1.260 . S
O84 In78 2.266 . S
O84 C81 1.252 . S
O85 In78 2.326 . S
O85 C81 1.260 . S
O86 In78 2.266 . S
O86 C83 1.252 . S
O87 In78 2.326 . S
O87 C83 1.260 . S
C88 O79 1.240 . S
C88 O80 1.252 . S
O89 In78 2.294 . S
O89 C82 1.240 . S
O90 In78 2.326 . S
O90 C82 1.252 . S
In91 O92 2.294 . S
In91 O93 2.326 . S
In91 O97 2.266 . S
In91 O98 2.326 1_655 S
In91 O99 2.266 1_655 S
In91 O100 2.326 . S
In91 O102 2.294 1_656 S
In91 O103 2.326 1_556 S
O92 In91 2.294 . S
O92 C101 1.240 . S
O93 In91 2.326 . S
O93 C101 1.252 . S
C94 O97 1.252 . S
C94 O98 1.260 1_655 S
C95 O102 1.240 . S
C95 O103 1.252 1_455 S
C96 O99 1.252 . S
C96 O100 1.260 1_455 S
O97 In91 2.266 . S
O97 C94 1.252 . S
O98 In91 2.326 1_455 S
O98 C94 1.260 1_455 S
O99 In91 2.266 1_455 S
O99 C96 1.252 . S
O100 In91 2.326 . S
O100 C96 1.260 1_655 S
C101 O92 1.240 . S
C101 O93 1.252 . S
O102 In91 2.294 1_454 S
O102 C95 1.240 . S
O103 In91 2.326 1_554 S
O103 C95 1.252 1_655 S
In104 O105 2.294 . S
In104 O106 2.326 . S
In104 O110 2.266 . S
In104 O111 2.326 1_565 S
In104 O112 2.266 1_565 S
In104 O113 2.326 . S
In104 O115 2.294 1_565 S
In104 O116 2.326 . S
O105 In104 2.294 . S
O105 C114 1.240 . S
O106 In104 2.326 . S
O106 C114 1.252 . S
C107 O110 1.252 . S
C107 O111 1.260 1_565 S
C108 O115 1.240 . S
C108 O116 1.252 1_545 S
C109 O112 1.252 . S
C109 O113 1.260 1_545 S
O110 In104 2.266 . S
O110 C107 1.252 . S
O111 In104 2.326 1_545 S
O111 C107 1.260 1_545 S
O112 In104 2.266 1_545 S
O112 C109 1.252 . S
O113 In104 2.326 . S
O113 C109 1.260 1_565 S
C114 O105 1.240 . S
C114 O106 1.252 . S
O115 In104 2.294 1_545 S
O115 C108 1.240 . S
O116 In104 2.326 . S
O116 C108 1.252 1_565 S
In117 O118 2.294 . S
In117 O119 2.326 . S
In117 O123 2.266 . S
In117 O124 2.326 . S
In117 O125 2.266 . S
In117 O126 2.326 . S
In117 O128 2.294 . S
In117 O129 2.326 . S
O118 In117 2.294 . S
O118 C127 1.240 . S
O119 In117 2.326 . S
O119 C127 1.252 . S
C120 O123 1.252 . S
C120 O124 1.260 . S
C121 O128 1.240 . S
C121 O129 1.252 . S
C122 O125 1.252 . S
C122 O126 1.260 . S
O123 In117 2.266 . S
O123 C120 1.252 . S
O124 In117 2.326 . S
O124 C120 1.260 . S
O125 In117 2.266 . S
O125 C122 1.252 . S
O126 In117 2.326 . S
O126 C122 1.260 . S
C127 O118 1.240 . S
C127 O119 1.252 . S
O128 In117 2.294 . S
O128 C121 1.240 . S
O129 In117 2.326 . S
O129 C121 1.252 . S
In130 O131 2.294 1_456 S
In130 O132 2.326 1_556 S
In130 O136 2.266 1_455 S
In130 O137 2.326 . S
In130 O138 2.266 . S
In130 O139 2.326 1_455 S
In130 O141 2.294 . S
In130 O142 2.326 . S
O131 In130 2.294 1_654 S
O131 C140 1.240 . S
O132 In130 2.326 1_554 S
O132 C140 1.252 1_455 S
C133 O136 1.252 . S
C133 O137 1.260 1_655 S
C134 O141 1.240 . S
C134 O142 1.252 . S
C135 O138 1.252 . S
C135 O139 1.260 1_455 S
O136 In130 2.266 1_655 S
O136 C133 1.252 . S
O137 In130 2.326 . S
O137 C133 1.260 1_455 S
O138 In130 2.266 . S
O138 C135 1.252 . S
O139 In130 2.326 1_655 S
O139 C135 1.260 1_655 S
C140 O131 1.240 . S
C140 O132 1.252 1_655 S
O141 In130 2.294 . S
O141 C134 1.240 . S
O142 In130 2.326 . S
O142 C134 1.252 . S
In143 O144 2.294 . S
In143 O145 2.326 . S
In143 O149 2.266 . S
In143 O150 2.326 1_545 S
In143 O151 2.266 1_545 S
In143 O152 2.326 . S
In143 O154 2.294 1_545 S
In143 O155 2.326 . S
O144 In143 2.294 . S
O144 C153 1.240 . S
O145 In143 2.326 . S
O145 C153 1.252 . S
C146 O149 1.252 . S
C146 O150 1.260 1_545 S
C147 O154 1.240 . S
C147 O155 1.252 1_565 S
C148 O151 1.252 . S
C148 O152 1.260 1_565 S
O149 In143 2.266 . S
O149 C146 1.252 . S
O150 In143 2.326 1_565 S
O150 C146 1.260 1_565 S
O151 In143 2.266 1_565 S
O151 C148 1.252 . S
O152 In143 2.326 . S
O152 C148 1.260 1_545 S
C153 O144 1.240 . S
C153 O145 1.252 . S
O154 In143 2.294 1_565 S
O154 C147 1.240 . S
O155 In143 2.326 . S
O155 C147 1.252 1_545 S
C5 C122 1.524 . S
C16 C133 1.524 1_455 S
C31 C148 1.524 1_546 S
C42 C83 1.524 . S
C96 C57 1.524 1_455 S
C109 C68 1.524 1_544 S
C134 C10 1.677 1_556 S
C17 C153 1.677 . S
C36 C88 1.677 . S
C43 C101 1.677 1_554 S
C62 C114 1.677 . S
C69 C127 1.677 . S
C121 C4 1.411 . S
C23 C140 1.411 1_455 S
C30 C147 1.411 1_545 S
C82 C49 1.411 . S
C56 C95 1.411 1_655 S
C108 C75 1.411 1_545 S
C3 C44 1.634 . S
C55 C18 1.634 1_455 S
C29 C70 1.634 1_565 S
C81 C120 1.634 . S
C94 C135 1.634 1_655 S
C146 C107 1.634 1_545 S
