# Generated by pormake.
# Topology pcu, (6)-cn, num edge types: 1
# Building blocks:
#     Node 0, Type 0, BuildingBlock: BETDIP_clean_sbu_0, # of connection points: 6
#     Edge 1, Type (0, 0), BuildingBlock: FUNLAD_clean_linker_0, # of connection points: 2
#     Edge 2, Type (0, 0), BuildingBlock: FUNLAD_clean_linker_0, # of connection points: 2
#     Edge 3, Type (0, 0), BuildingBlock: FUNLAD_clean_linker_0, # of connection points: 2
# Relax obj value: 0.000
# Max RMSD: 0.000
# Mean RMSD: 0.000
data_MOF--net-pcu--node1-BETDIP_clean_sbu_0--edge1-FUNLAD_clean_linker_0
_symmetry_space_group_name_H-M    P1
_symmetry_Int_Tables_number       1
_symmetry_cell_setting            triclinic
loop_
_symmetry_equiv_pos_as_xyz
'x, y, z'
_cell_length_a     27.593664
_cell_length_b     17.932316
_cell_length_c     16.743938
_cell_angle_alpha  88.343197
_cell_angle_beta   100.31094
_cell_angle_gamma 125.85094
loop_
_atom_site_label
_atom_site_type_symbol
_atom_site_fract_x
_atom_site_fract_y
_atom_site_fract_z
_atom_type_partial_charge
Tb0 Tb 0.96642 0.93227 0.02553 0.0
Tb1 Tb 0.10096 0.04725 0.02194 0.0
C2 C 0.86499 0.86631 0.0631 0.0
C3 C 0.82277 0.89183 0.05766 0.0
C4 C 0.77472 0.84459 0.09984 0.0
C5 C 0.73298 0.86588 0.09378 0.0
C6 C 0.73853 0.93492 0.04523 0.0
C7 C 0.78751 0.98314 1.00389 0.0
C8 C 0.8293 0.96175 1.01008 0.0
C9 C 0.99276 0.95258 0.87937 0.0
C10 C 0.04351 0.15279 0.025 0.0
C11 C 0.20256 0.11339 0.98484 0.0
C12 C 0.2447 0.08773 0.99014 0.0
C13 C 0.29279 0.13505 0.94802 0.0
C14 C 0.33448 0.11368 0.95399 0.0
C15 C 0.32885 0.04448 1.00238 0.0
C16 C 0.27982 -0.00384 0.04362 0.0
C17 C 0.23808 0.01763 0.03753 0.0
C18 C 0.07429 0.02677 0.16801 0.0
C19 C 1.02385 0.82673 0.02224 0.0
O20 O 0.91738 0.91984 0.11374 0.0
O21 O 0.87102 0.84401 0.99371 0.0
O22 O 1.02131 0.01279 0.9393 0.0
O23 O 0.94418 0.87959 0.8979 0.0
O24 O 0.99453 0.07475 0.04168 0.0
O25 O 0.08817 0.15529 1.00314 0.0
O26 O 0.15028 0.06027 0.93389 0.0
O27 O 0.19634 0.13519 0.05431 0.0
O28 O 0.0461 0.96674 0.10801 0.0
O29 O 0.12285 0.09993 0.1496 0.0
O30 O 0.07281 0.90477 1.00552 0.0
O31 O 0.97924 0.82423 0.04422 0.0
H32 H 0.76927 0.79079 0.13724 0.0
H33 H 0.69652 0.82853 0.12755 0.0
H34 H 0.79287 0.03609 0.96542 0.0
H35 H 0.86625 -0.00099 0.97708 0.0
H36 H 0.29831 0.18898 0.91077 0.0
H37 H 0.37097 0.15109 0.92028 0.0
H38 H 0.27439 0.94309 0.08197 0.0
H39 H 0.20109 0.98031 0.07047 0.0
C40 C 0.09317 0.08446 0.31218 0.0
C41 C 0.05888 0.01183 0.24966 0.0
C42 C 0.07917 0.07028 0.38997 0.0
C43 C 1.03069 0.98265 0.40688 0.0
C44 C 0.99595 0.91059 0.34365 0.0
C45 C 1.01006 0.92481 0.26597 0.0
C46 C 1.01382 0.964 0.48856 0.0
C47 C 0.05279 0.01459 0.55856 0.0
C48 C 0.03597 -0.00392 0.64027 0.0
C49 C 0.07097 0.06812 0.70349 0.0
C50 C 0.05697 0.05409 0.78123 0.0
C51 C 1.00798 0.96727 0.79761 0.0
H52 H 0.96039 0.85028 0.61135 0.0
C53 C 0.97342 0.89464 0.73508 0.0
C54 C 0.98731 0.90864 0.65722 0.0
H55 H 0.93575 0.82675 0.74642 0.0
H56 H 0.1307 0.15251 0.30089 0.0
H57 H 0.10586 0.12865 0.43583 0.0
H58 H 0.95807 0.84265 0.35458 0.0
H59 H 0.98291 0.86751 0.21884 0.0
H60 H 0.96754 0.90532 0.49038 0.0
H61 H 0.09907 0.07322 0.55669 0.0
H62 H 0.10898 0.13592 0.69253 0.0
H63 H 0.08433 0.1114 0.82835 0.0
C64 C 0.43688 0.09592 1.01761 0.0
C65 C 0.37446 0.02389 1.01042 0.0
C66 C 0.47991 0.07706 0.02482 0.0
C67 C 0.46148 0.98535 0.02455 0.0
C68 C 0.39922 0.91356 0.01864 0.0
C69 C 0.35618 0.93245 1.01138 0.0
C70 C 0.50559 0.96167 0.03273 0.0
C71 C 0.56169 0.01756 1.01473 0.0
C72 C 0.60582 -0.00609 0.02293 0.0
C73 C 0.66807 0.06571 0.02872 0.0
C74 C 0.71114 0.04687 0.03602 0.0
C75 C 0.69289 0.95545 0.03712 0.0
H76 H 0.53987 0.84436 1.01543 0.0
C77 C 0.63048 0.8834 0.03005 0.0
C78 C 0.58743 0.90222 0.0228 0.0
H79 H 0.61464 0.81201 0.02866 0.0
H80 H 0.45276 0.16733 0.01912 0.0
H81 H 0.52749 0.1349 0.03229 0.0
H82 H 0.38365 0.84232 0.01887 0.0
H83 H 0.30846 0.87521 1.00539 0.0
H84 H 0.49039 0.89479 0.05369 0.0
H85 H 0.57688 0.08443 0.99375 0.0
H86 H 0.68361 0.13694 0.02839 0.0
H87 H 0.75884 0.10412 0.04191 0.0
C88 C 0.06873 0.74287 1.00139 0.0
C89 C 1.02076 0.74155 0.02082 0.0
C90 C 0.06586 0.66246 1.00033 0.0
C91 C 1.01497 0.5789 0.01921 0.0
C92 C 0.96673 0.57747 0.03739 0.0
C93 C 0.96963 0.65786 0.03857 0.0
C94 C 1.00952 0.49137 0.0184 0.0
C95 C 0.05781 0.48813 0.02855 0.0
C96 C 0.05236 0.4006 0.02778 0.0
C97 C 0.1006 0.40201 1.00964 0.0
C98 C 0.09771 0.32163 1.00854 0.0
C99 C 0.04659 0.23796 0.02631 0.0
H100 H 0.96417 0.31334 0.06376 0.0
C101 C 0.9986 0.23664 0.04569 0.0
C102 C 1.00146 0.31705 0.04667 0.0
H103 H 0.95879 0.17357 0.06051 0.0
H104 H 0.10854 0.80596 0.98658 0.0
H105 H 0.10314 0.66617 0.98321 0.0
H106 H 0.92674 0.51398 0.0514 0.0
H107 H 0.93168 0.65417 0.05336 0.0
H108 H 0.96374 0.42759 1.0102 0.0
H109 H 0.10358 0.55191 0.03675 0.0
H110 H 0.14059 0.4655 0.99562 0.0
H111 H 0.13567 0.32532 0.99379 0.0
loop_
_geom_bond_atom_site_label_1
_geom_bond_atom_site_label_2
_geom_bond_distance
_geom_bond_site_symmetry_2
_ccdc_geom_bond_type
Tb0 C2 2.809 . S
Tb0 O20 2.484 1_556 S
Tb0 O21 2.440 . S
Tb0 O22 2.658 1_655 S
Tb0 O23 2.409 . S
Tb0 O24 2.378 1_565 S
Tb0 O28 2.325 1_566 S
Tb0 O31 2.341 . S
Tb1 C11 2.809 . S
Tb1 O22 2.325 1_544 S
Tb1 O25 2.341 . S
Tb1 O26 2.484 1_554 S
Tb1 O27 2.440 . S
Tb1 O28 2.658 1_455 S
Tb1 O29 2.409 . S
Tb1 O30 2.378 1_545 S
C2 Tb0 2.809 . S
C2 C3 1.514 . S
C2 O20 1.248 1_556 S
C2 O21 1.266 . S
C3 C2 1.514 . S
C3 C4 1.355 1_566 S
C3 C8 1.348 . S
C4 C3 1.355 1_544 S
C4 C5 1.386 . S
C4 H32 0.927 . S
C5 C4 1.386 . S
C5 C6 1.340 1_544 S
C5 H33 0.931 . S
C6 C5 1.340 1_566 S
C6 C7 1.377 . S
C7 C6 1.377 . S
C7 C8 1.408 . S
C7 H34 0.930 . S
C8 C3 1.348 . S
C8 C7 1.408 . S
C8 H35 0.930 . S
C9 O22 1.281 1_655 S
C9 O23 1.254 . S
C10 O24 1.236 1_455 S
C10 O25 1.266 1_556 S
C11 Tb1 2.809 . S
C11 C12 1.514 . S
C11 O26 1.248 1_554 S
C11 O27 1.266 . S
C12 C11 1.514 . S
C12 C13 1.356 1_544 S
C12 C17 1.348 . S
C13 C12 1.356 1_566 S
C13 C14 1.384 . S
C13 H36 0.927 . S
C14 C13 1.384 . S
C14 C15 1.337 1_566 S
C14 H37 0.931 . S
C15 C14 1.337 1_544 S
C15 C16 1.380 . S
C16 C15 1.380 . S
C16 C17 1.408 . S
C16 H38 0.930 . S
C17 C12 1.348 . S
C17 C16 1.408 . S
C17 H39 0.930 . S
C18 O28 1.281 1_455 S
C18 O29 1.254 . S
C19 O30 1.236 1_655 S
C19 O31 1.266 1_554 S
O20 Tb0 2.484 1_554 S
O20 C2 1.248 1_554 S
O21 Tb0 2.440 . S
O21 C2 1.266 . S
O22 Tb0 2.658 1_455 S
O22 Tb1 2.325 1_566 S
O22 C9 1.281 1_455 S
O23 Tb0 2.409 . S
O23 C9 1.254 . S
O24 Tb0 2.378 1_545 S
O24 C10 1.236 1_655 S
O25 Tb1 2.341 . S
O25 C10 1.266 1_554 S
O26 Tb1 2.484 1_556 S
O26 C11 1.248 1_556 S
O27 Tb1 2.440 . S
O27 C11 1.266 . S
O28 Tb0 2.325 1_544 S
O28 Tb1 2.658 1_655 S
O28 C18 1.281 1_655 S
O29 Tb1 2.409 . S
O29 C18 1.254 . S
O30 Tb1 2.378 1_565 S
O30 C19 1.236 1_455 S
O31 Tb0 2.341 . S
O31 C19 1.266 1_556 S
H32 C4 0.927 . S
H33 C5 0.931 . S
H34 C7 0.930 . S
H35 C8 0.930 . S
H36 C13 0.927 . S
H37 C14 0.931 . S
H38 C16 0.930 . S
H39 C17 0.930 . S
C40 C41 1.399 1_545 S
C40 C42 1.383 . S
C40 H56 0.951 . S
C41 C40 1.399 1_565 S
C41 C45 1.370 1_655 S
C42 C40 1.383 . S
C42 C43 1.402 1_545 S
C42 H57 0.951 . S
C43 C42 1.402 1_565 S
C43 C44 1.375 1_655 S
C43 C46 1.481 . S
C44 C43 1.375 1_455 S
C44 C45 1.367 . S
C44 H58 0.951 . S
C45 C41 1.370 1_455 S
C45 C44 1.367 . S
C45 H59 0.950 . S
C46 C43 1.481 . S
C46 C47 1.297 . S
C46 H60 0.950 1_655 S
C47 C46 1.297 . S
C47 C48 1.479 . S
C47 H61 0.950 . S
C48 C47 1.479 . S
C48 C49 1.375 1_565 S
C48 C54 1.387 1_655 S
C49 C48 1.375 1_545 S
C49 C50 1.369 . S
C49 H62 0.950 . S
C50 C49 1.369 . S
C50 C51 1.392 1_545 S
C50 H63 0.951 . S
C51 C50 1.392 1_565 S
C51 C53 1.384 1_655 S
H52 C54 0.966 . S
C53 C51 1.384 1_455 S
C53 C54 1.385 . S
C53 H55 0.950 . S
C54 C48 1.387 1_455 S
C54 H52 0.966 . S
C54 C53 1.385 . S
H55 C53 0.950 . S
H56 C40 0.951 . S
H57 C42 0.951 . S
H58 C44 0.951 . S
H59 C45 0.950 . S
H60 C46 0.950 1_455 S
H61 C47 0.950 . S
H62 C49 0.950 . S
H63 C50 0.951 . S
C64 C65 1.386 1_546 S
C64 C66 1.383 . S
C64 H80 0.951 . S
C65 C64 1.386 1_564 S
C65 C69 1.383 . S
C66 C64 1.383 . S
C66 C67 1.402 1_546 S
C66 H81 0.951 . S
C67 C66 1.402 1_564 S
C67 C68 1.375 . S
C67 C70 1.481 . S
C68 C67 1.375 . S
C68 C69 1.367 . S
C68 H82 0.951 . S
C69 C65 1.383 . S
C69 C68 1.367 . S
C69 H83 0.950 . S
C70 C67 1.481 . S
C70 C71 1.297 1_565 S
C70 H84 0.950 . S
C71 C70 1.297 1_545 S
C71 C72 1.479 . S
C71 H85 0.950 . S
C72 C71 1.479 . S
C72 C73 1.375 1_554 S
C72 C78 1.404 1_545 S
C73 C72 1.375 1_556 S
C73 C74 1.369 . S
C73 H86 0.950 . S
C74 C73 1.369 . S
C74 C75 1.392 1_556 S
C74 H87 0.951 . S
C75 C74 1.392 1_554 S
C75 C77 1.384 1_545 S
H76 C78 0.949 . S
C77 C75 1.384 1_565 S
C77 C78 1.385 . S
C77 H79 0.950 . S
C78 C72 1.404 1_565 S
C78 H76 0.949 . S
C78 C77 1.385 . S
H79 C77 0.950 . S
H80 C64 0.951 . S
H81 C66 0.951 . S
H82 C68 0.951 . S
H83 C69 0.950 . S
H84 C70 0.950 . S
H85 C71 0.950 . S
H86 C73 0.950 . S
H87 C74 0.951 . S
C88 C89 1.384 1_556 S
C88 C90 1.386 . S
C88 H104 0.949 1_455 S
C89 C88 1.384 1_554 S
C89 C93 1.383 . S
C90 C88 1.386 . S
C90 C91 1.402 1_556 S
C90 H105 0.951 . S
C91 C90 1.402 1_554 S
C91 C92 1.375 . S
C91 C94 1.481 . S
C92 C91 1.375 . S
C92 C93 1.367 . S
C92 H106 0.951 . S
C93 C89 1.383 . S
C93 C92 1.367 . S
C93 H107 0.950 . S
C94 C91 1.481 . S
C94 C95 1.297 1_554 S
C94 H108 0.950 . S
C95 C94 1.297 1_556 S
C95 C96 1.479 . S
C95 H109 0.950 . S
C96 C95 1.479 . S
C96 C97 1.375 . S
C96 C102 1.404 1_556 S
C97 C96 1.375 . S
C97 C98 1.369 . S
C97 H110 0.950 . S
C98 C97 1.369 . S
C98 C99 1.406 . S
C98 H111 0.951 1_455 S
C99 C98 1.406 . S
C99 C101 1.372 1_556 S
H100 C102 0.949 . S
C101 C99 1.372 1_554 S
C101 C102 1.385 . S
C101 H103 0.950 . S
C102 C96 1.404 1_554 S
C102 H100 0.949 . S
C102 C101 1.385 . S
H103 C101 0.950 . S
H104 C88 0.949 1_655 S
H105 C90 0.951 . S
H106 C92 0.951 . S
H107 C93 0.950 . S
H108 C94 0.950 . S
H109 C95 0.950 . S
H110 C97 0.950 . S
H111 C98 0.951 1_655 S
C41 C18 1.451 1_665 S
C51 C9 1.395 . S
C65 C15 1.495 1_565 S
C75 C6 1.490 1_544 S
C89 C19 1.480 1_455 S
C99 C10 1.469 . S
