# Generated by pormake.
# Topology acs, (6)-cn, num edge types: 1
# Building blocks:
#     Node 0, Type 0, BuildingBlock: IZENUY_clean_sbu_0, # of connection points: 6
#     Node 1, Type 0, BuildingBlock: IZENUY_clean_sbu_0, # of connection points: 6
#     Edge 2, Type (0, 0), BuildingBlock: EZIPEK_clean_linker_0, # of connection points: 2
#     Edge 3, Type (0, 0), BuildingBlock: EZIPEK_clean_linker_0, # of connection points: 2
#     Edge 4, Type (0, 0), BuildingBlock: EZIPEK_clean_linker_0, # of connection points: 2
#     Edge 5, Type (0, 0), BuildingBlock: EZIPEK_clean_linker_0, # of connection points: 2
#     Edge 6, Type (0, 0), BuildingBlock: EZIPEK_clean_linker_0, # of connection points: 2
#     Edge 7, Type (0, 0), BuildingBlock: EZIPEK_clean_linker_0, # of connection points: 2
# Relax obj value: 0.000
# Max RMSD: 0.012
# Mean RMSD: 0.012
data_MOF--net-acs--node1-IZENUY_clean_sbu_0--edge1-EZIPEK_clean_linker_0
_symmetry_space_group_name_H-M    P1
_symmetry_Int_Tables_number       1
_symmetry_cell_setting            triclinic
loop_
_symmetry_equiv_pos_as_xyz
'x, y, z'
_cell_length_a     15.639702
_cell_length_b     15.955955
_cell_length_c     14.780983
_cell_angle_alpha  89.788878
_cell_angle_beta   90.405753
_cell_angle_gamma 118.98597
loop_
_atom_site_label
_atom_site_type_symbol
_atom_site_fract_x
_atom_site_fract_y
_atom_site_fract_z
_atom_type_partial_charge
Fe0 Fe 0.58113 0.28354 0.25578 0.0
Fe1 Fe 0.78135 0.28692 0.25503 0.0
O2 O 0.71155 0.34827 0.25503 0.0
Fe3 Fe 0.77239 0.4759 0.25228 0.0
O4 O 0.71738 0.48208 0.35871 0.0
O5 O 0.56724 0.37169 0.32466 0.0
O6 O 0.57867 0.21954 0.35948 0.0
C7 C 0.62388 0.17244 0.37211 0.0
C8 C 0.61619 0.42731 0.13158 0.0
O9 O 0.69892 0.18985 0.32756 0.0
C10 C 0.8844 0.44049 0.13199 0.0
O11 O 0.56904 0.1844 0.18769 0.0
O12 O 0.71923 0.21837 0.15388 0.0
O13 O 0.67785 0.48488 0.18712 0.0
O14 O 0.57312 0.3391 0.14998 0.0
C15 C 0.89428 0.43792 0.36786 0.0
O16 O 0.87859 0.37376 0.1823 0.0
O17 O 0.83138 0.47879 0.14552 0.0
C18 C 0.62764 0.16892 0.14253 0.0
O19 O 0.84795 0.34831 0.35718 0.0
O20 O 0.87946 0.49319 0.31715 0.0
C21 C 0.62637 0.44109 0.37322 0.0
Fe22 Fe 0.50982 0.75152 0.75577 0.0
Fe23 Fe 0.31464 0.75756 0.75739 0.0
O24 O 0.37931 0.69128 0.75433 0.0
Fe25 Fe 0.31441 0.56363 0.75049 0.0
O26 O 0.40472 0.54806 0.81749 0.0
O27 O 0.51159 0.69162 0.86021 0.0
O28 O 0.52599 0.85149 0.82484 0.0
C29 C 0.4695 0.86872 0.87118 0.0
C30 C 0.46327 0.59883 0.63313 0.0
O31 O 0.37774 0.82131 0.86043 0.0
C32 C 0.19926 0.61365 0.6378 0.0
O33 O 0.51667 0.81853 0.65326 0.0
O34 O 0.40083 0.85442 0.68659 0.0
O35 O 0.37214 0.56199 0.64414 0.0
O36 O 0.52193 0.66265 0.68658 0.0
C37 C 0.20258 0.59812 0.87265 0.0
O38 O 0.24695 0.70218 0.65394 0.0
O39 O 0.21175 0.55385 0.6836 0.0
C40 C 0.47446 0.86853 0.64115 0.0
O41 O 0.21532 0.67121 0.82842 0.0
O42 O 0.25071 0.55534 0.8556 0.0
C43 C 0.46562 0.60275 0.8756 0.0
C44 C 0.58497 0.04066 0.91688 0.0
C45 C 0.51365 0.9454 0.9407 0.0
C46 C 0.51567 0.99639 0.09708 0.0
C47 C 0.58617 0.09194 0.07321 0.0
N48 N 0.66183 0.20899 0.95516 0.0
N49 N 0.44258 0.82836 0.05912 0.0
C50 C 0.61449 0.11509 0.98182 0.0
C51 C 0.48702 0.92211 0.03226 0.0
N52 N 0.62862 0.06029 0.83396 0.0
N53 N 0.47211 0.97609 0.18006 0.0
H54 H 0.42751 0.7722 0.01462 0.0
H55 H 0.43157 0.80706 0.12667 0.0
H56 H 0.48944 0.0261 0.2314 0.0
H57 H 0.41172 0.91038 0.19562 0.0
H58 H 0.68966 0.12544 0.81826 0.0
H59 H 0.61076 1.01001 0.78278 0.0
H60 H 0.67395 0.23045 0.88769 0.0
H61 H 0.67911 0.26575 0.99955 0.0
C62 C 0.57081 0.61805 0.4988 0.0
C63 C 0.50344 0.55785 0.56547 0.0
C64 C 0.52387 0.42301 0.51095 0.0
C65 C 0.58555 0.48172 0.44046 0.0
N66 N 0.64883 0.62894 0.35526 0.0
N67 N 0.41167 0.40054 0.63254 0.0
C68 C 0.60424 0.57766 0.43134 0.0
C69 C 0.47823 0.45945 0.57029 0.0
N70 N 0.60427 0.71454 0.49991 0.0
N71 N 0.51244 0.3334 0.52395 0.0
H72 H 0.38546 0.42495 0.68499 0.0
H73 H 0.37877 0.32613 0.63036 0.0
H74 H 0.5419 0.30324 0.48067 0.0
H75 H 0.48007 0.2913 0.58068 0.0
H76 H 0.66292 0.76319 0.46121 0.0
H77 H 0.57857 0.74735 0.54415 0.0
H78 H 0.65301 0.69444 0.33924 0.0
H79 H 0.67326 0.60236 0.30316 0.0
C80 C 0.96797 0.42318 0.99342 0.0
C81 C 0.96424 0.48188 0.06388 0.0
C82 C 0.12232 0.61365 0.01406 0.0
C83 C 0.12193 0.55717 0.9398 0.0
N84 N 1.03337 0.41572 0.84779 0.0
N85 N 1.035 0.63656 0.13763 0.0
C86 C 1.04199 0.46385 0.92665 0.0
C87 C 1.04021 0.57838 0.07266 0.0
N88 N 0.90131 0.3279 0.99024 0.0
N89 N 0.20351 0.69952 0.03119 0.0
H90 H 0.98263 0.61253 0.1883 0.0
H91 H 0.08 0.71053 0.13891 0.0
H92 H 0.26397 0.72823 0.98911 0.0
H93 H 0.21465 0.73887 0.09028 0.0
H94 H 0.90813 0.27923 0.94821 0.0
H95 H 0.84255 0.29571 0.034 0.0
H96 H 0.97055 0.35313 0.82926 0.0
H97 H 0.08491 0.44259 0.7964 0.0
C98 C 0.52461 0.92517 0.48209 0.0
C99 C 0.51139 0.94636 0.57225 0.0
C100 C 0.57882 0.11626 0.53176 0.0
C101 C 0.58973 0.09487 0.44127 0.0
N102 N 0.60155 0.9828 0.33773 0.0
N103 N 0.50213 0.06003 0.67602 0.0
C104 C 0.57119 1.00063 0.4184 0.0
C105 C 0.5313 0.04105 0.59523 0.0
N106 N 0.48403 0.83177 0.4547 0.0
N107 N 0.62326 0.20956 0.55971 0.0
H108 H 0.47044 1.01079 0.72799 0.0
H109 H 0.50266 0.12439 0.68928 0.0
H110 H 0.66515 0.26641 0.51657 0.0
H111 H 0.62878 0.23004 0.62729 0.0
H112 H 0.48002 0.81116 0.38733 0.0
H113 H 0.44407 0.77407 0.49769 0.0
H114 H 0.60235 0.91918 0.32404 0.0
H115 H 0.63348 0.03288 0.28641 0.0
C116 C 0.44445 0.4588 0.96731 0.0
C117 C 0.49718 0.5594 0.95095 0.0
C118 C 0.63484 0.56808 0.03788 0.0
C119 C 0.58218 0.46787 0.05563 0.0
N120 N 0.45511 0.31571 0.99917 0.0
N121 N 0.62175 0.7103 0.01248 0.0
C122 C 0.49184 0.41212 0.00987 0.0
C123 C 0.58653 0.61462 0.99804 0.0
N124 N 0.34642 0.40879 0.94984 0.0
N125 N 0.73347 0.61821 0.05201 0.0
H126 H 0.58081 0.74459 0.99926 0.0
H127 H 0.68349 0.75135 0.05215 0.0
H128 H 0.7744 0.58471 0.06852 0.0
H129 H 0.77597 0.68977 0.03318 0.0
H130 H 0.30291 0.33719 0.96791 0.0
H131 H 0.30613 0.44232 0.93094 0.0
H132 H 0.39322 0.2736 0.96015 0.0
H133 H 0.49479 0.28079 0.01526 0.0
C134 C 1.02378 0.54418 0.59123 0.0
C135 C 0.12248 0.57622 0.56686 0.0
C136 C 0.07179 0.52009 0.41127 0.0
C137 C 0.97251 0.48158 0.43722 0.0
N138 N 0.85162 0.45298 0.55067 0.0
N139 N 0.24133 0.58673 0.45815 0.0
C140 C 0.94785 0.49245 0.52706 0.0
C141 C 0.14679 0.56238 0.47793 0.0
N142 N 1.00328 0.56528 0.67526 0.0
N143 N 0.09446 0.51796 0.32241 0.0
H144 H 0.29863 0.62092 0.5043 0.0
H145 H 0.26251 0.56811 0.39825 0.0
H146 H 1.04172 0.48348 0.27237 0.0
H147 H 0.16509 0.55528 0.29692 0.0
H148 H 0.93429 0.55174 0.69576 0.0
H149 H 0.05721 0.60283 0.72362 0.0
H150 H 0.82721 0.44836 0.61671 0.0
H151 H 0.79472 0.42018 0.50394 0.0
loop_
_geom_bond_atom_site_label_1
_geom_bond_atom_site_label_2
_geom_bond_distance
_geom_bond_site_symmetry_2
_ccdc_geom_bond_type
Fe0 O2 1.918 . S
Fe0 O5 1.997 . S
Fe0 O6 2.002 . S
Fe0 O11 1.976 . S
Fe0 O14 1.996 . S
Fe1 O2 1.918 . S
Fe1 O9 1.997 . S
Fe1 O12 1.996 . S
Fe1 O16 1.976 . S
Fe1 O19 2.002 . S
O2 Fe0 1.918 . S
O2 Fe1 1.918 . S
O2 Fe3 1.918 . S
Fe3 O2 1.918 . S
Fe3 O4 2.002 . S
Fe3 O13 1.976 . S
Fe3 O17 1.996 . S
Fe3 O20 1.997 . S
O4 Fe3 2.002 . S
O4 C21 1.295 . S
O5 Fe0 1.997 . S
O5 C21 1.235 . S
O6 Fe0 2.002 . S
O6 C7 1.295 . S
C7 O6 1.295 . S
C7 O9 1.235 . S
C8 O13 1.287 . S
C8 O14 1.255 . S
O9 Fe1 1.997 . S
O9 C7 1.235 . S
C10 O16 1.287 . S
C10 O17 1.255 . S
O11 Fe0 1.976 . S
O11 C18 1.287 . S
O12 Fe1 1.996 . S
O12 C18 1.255 . S
O13 Fe3 1.976 . S
O13 C8 1.287 . S
O14 Fe0 1.996 . S
O14 C8 1.255 . S
C15 O19 1.295 . S
C15 O20 1.235 . S
O16 Fe1 1.976 . S
O16 C10 1.287 . S
O17 Fe3 1.996 . S
O17 C10 1.255 . S
C18 O11 1.287 . S
C18 O12 1.255 . S
O19 Fe1 2.002 . S
O19 C15 1.295 . S
O20 Fe3 1.997 . S
O20 C15 1.235 . S
C21 O4 1.295 . S
C21 O5 1.235 . S
Fe22 O24 1.918 . S
Fe22 O27 1.997 . S
Fe22 O28 2.002 . S
Fe22 O33 1.976 . S
Fe22 O36 1.996 . S
Fe23 O24 1.918 . S
Fe23 O31 1.997 . S
Fe23 O34 1.996 . S
Fe23 O38 1.976 . S
Fe23 O41 2.002 . S
O24 Fe22 1.918 . S
O24 Fe23 1.918 . S
O24 Fe25 1.918 . S
Fe25 O24 1.918 . S
Fe25 O26 2.002 . S
Fe25 O35 1.976 . S
Fe25 O39 1.996 . S
Fe25 O42 1.997 . S
O26 Fe25 2.002 . S
O26 C43 1.295 . S
O27 Fe22 1.997 . S
O27 C43 1.235 . S
O28 Fe22 2.002 . S
O28 C29 1.295 . S
C29 O28 1.295 . S
C29 O31 1.235 . S
C30 O35 1.287 . S
C30 O36 1.255 . S
O31 Fe23 1.997 . S
O31 C29 1.235 . S
C32 O38 1.287 . S
C32 O39 1.255 . S
O33 Fe22 1.976 . S
O33 C40 1.287 . S
O34 Fe23 1.996 . S
O34 C40 1.255 . S
O35 Fe25 1.976 . S
O35 C30 1.287 . S
O36 Fe22 1.996 . S
O36 C30 1.255 . S
C37 O41 1.295 . S
C37 O42 1.235 . S
O38 Fe23 1.976 . S
O38 C32 1.287 . S
O39 Fe25 1.996 . S
O39 C32 1.255 . S
C40 O33 1.287 . S
C40 O34 1.255 . S
O41 Fe23 2.002 . S
O41 C37 1.295 . S
O42 Fe25 1.997 . S
O42 C37 1.235 . S
C43 O26 1.295 . S
C43 O27 1.235 . S
C44 C45 1.363 . S
C44 C50 1.379 1_565 S
C44 N52 1.356 . S
C45 C44 1.363 . S
C45 C51 1.363 1_556 S
C46 C47 1.363 1_565 S
C46 C51 1.379 . S
C46 N53 1.356 1_565 S
C47 C46 1.363 1_545 S
C47 C50 1.363 1_554 S
N48 C50 1.356 . S
N48 H60 0.984 . S
N48 H61 0.985 1_556 S
N49 C51 1.356 . S
N49 H54 0.984 1_554 S
N49 H55 0.985 . S
C50 C44 1.379 1_545 S
C50 C47 1.363 1_556 S
C50 N48 1.356 . S
C51 C45 1.363 1_554 S
C51 C46 1.379 . S
C51 N49 1.356 . S
N52 C44 1.356 . S
N52 H58 0.984 1_565 S
N52 H59 0.984 . S
N53 C46 1.356 1_545 S
N53 H56 0.984 . S
N53 H57 0.985 1_545 S
H54 N49 0.984 1_556 S
H55 N49 0.985 . S
H56 N53 0.984 . S
H57 N53 0.985 1_565 S
H58 N52 0.984 1_545 S
H59 N52 0.984 . S
H60 N48 0.984 . S
H61 N48 0.985 1_554 S
C62 C63 1.363 . S
C62 C68 1.379 . S
C62 N70 1.356 . S
C63 C62 1.363 . S
C63 C69 1.363 . S
C64 C65 1.363 . S
C64 C69 1.379 . S
C64 N71 1.356 . S
C65 C64 1.363 . S
C65 C68 1.363 . S
N66 C68 1.356 . S
N66 H78 0.984 . S
N66 H79 0.985 . S
N67 C69 1.356 . S
N67 H72 0.984 . S
N67 H73 0.985 . S
C68 C62 1.379 . S
C68 C65 1.363 . S
C68 N66 1.356 . S
C69 C63 1.363 . S
C69 C64 1.379 . S
C69 N67 1.356 . S
N70 C62 1.356 . S
N70 H76 0.984 . S
N70 H77 0.984 . S
N71 C64 1.356 . S
N71 H74 0.984 . S
N71 H75 0.985 . S
H72 N67 0.984 . S
H73 N67 0.985 . S
H74 N71 0.984 . S
H75 N71 0.985 . S
H76 N70 0.984 . S
H77 N70 0.984 . S
H78 N66 0.984 . S
H79 N66 0.985 . S
C80 C81 1.363 . S
C80 C86 1.379 1_654 S
C80 N88 1.356 . S
C81 C80 1.363 . S
C81 C87 1.363 . S
C82 C83 1.363 . S
C82 C87 1.379 1_456 S
C82 N89 1.356 . S
C83 C82 1.363 . S
C83 C86 1.363 . S
N84 C86 1.356 . S
N84 H96 0.984 . S
N84 H97 0.985 . S
N85 C87 1.356 . S
N85 H90 0.984 . S
N85 H91 0.985 . S
C86 C80 1.379 1_456 S
C86 C83 1.363 . S
C86 N84 1.356 . S
C87 C81 1.363 . S
C87 C82 1.379 1_654 S
C87 N85 1.356 . S
N88 C80 1.356 . S
N88 H94 0.984 . S
N88 H95 0.984 . S
N89 C82 1.356 . S
N89 H92 0.984 . S
N89 H93 0.985 . S
H90 N85 0.984 . S
H91 N85 0.985 . S
H92 N89 0.984 . S
H93 N89 0.985 . S
H94 N88 0.984 . S
H95 N88 0.984 . S
H96 N84 0.984 . S
H97 N84 0.985 . S
C98 C99 1.363 . S
C98 C104 1.379 . S
C98 N106 1.356 . S
C99 C98 1.363 . S
C99 C105 1.363 1_565 S
C100 C101 1.363 . S
C100 C105 1.379 . S
C100 N107 1.356 . S
C101 C100 1.363 . S
C101 C104 1.363 1_545 S
N102 C104 1.356 1_545 S
N102 H114 0.984 1_545 S
N102 H115 0.985 . S
N103 C105 1.355 1_565 S
N103 H108 0.996 . S
N103 H109 0.975 1_565 S
C104 C98 1.379 . S
C104 C101 1.363 1_565 S
C104 N102 1.356 1_565 S
C105 C99 1.363 1_545 S
C105 C100 1.379 . S
C105 N103 1.355 1_545 S
N106 C98 1.356 . S
N106 H112 0.984 . S
N106 H113 0.984 . S
N107 C100 1.356 . S
N107 H110 0.984 . S
N107 H111 0.985 . S
H108 N103 0.996 . S
H109 N103 0.975 1_545 S
H110 N107 0.984 . S
H111 N107 0.985 . S
H112 N106 0.984 . S
H113 N106 0.984 . S
H114 N102 0.984 1_565 S
H115 N102 0.985 . S
C116 C117 1.363 . S
C116 C122 1.379 1_556 S
C116 N124 1.356 . S
C117 C116 1.363 . S
C117 C123 1.363 . S
C118 C119 1.363 . S
C118 C123 1.379 1_554 S
C118 N125 1.356 . S
C119 C118 1.363 . S
C119 C122 1.363 . S
N120 C122 1.356 . S
N120 H132 0.984 . S
N120 H133 0.985 . S
N121 C123 1.356 . S
N121 H126 0.984 . S
N121 H127 0.985 . S
C122 C116 1.379 1_554 S
C122 C119 1.363 . S
C122 N120 1.356 . S
C123 C117 1.363 . S
C123 C118 1.379 1_556 S
C123 N121 1.356 . S
N124 C116 1.356 . S
N124 H130 0.984 . S
N124 H131 0.984 . S
N125 C118 1.356 . S
N125 H128 0.984 . S
N125 H129 0.985 . S
H126 N121 0.984 . S
H127 N121 0.985 . S
H128 N125 0.984 . S
H129 N125 0.985 . S
H130 N124 0.984 . S
H131 N124 0.984 . S
H132 N120 0.984 . S
H133 N120 0.985 . S
C134 C135 1.363 1_655 S
C134 C140 1.379 . S
C134 N142 1.356 1_655 S
C135 C134 1.363 1_455 S
C135 C141 1.363 . S
C136 C137 1.363 . S
C136 C141 1.379 1_655 S
C136 N143 1.356 . S
C137 C136 1.363 . S
C137 C140 1.363 . S
N138 C140 1.356 . S
N138 H150 0.984 . S
N138 H151 0.985 . S
N139 C141 1.356 . S
N139 H144 0.984 . S
N139 H145 0.985 . S
C140 C134 1.379 . S
C140 C137 1.363 . S
C140 N138 1.356 . S
C141 C135 1.363 . S
C141 C136 1.379 1_455 S
C141 N139 1.356 . S
N142 C134 1.356 1_455 S
N142 H148 0.984 1_455 S
N142 H149 0.984 . S
N143 C136 1.356 . S
N143 H146 0.984 . S
N143 H147 0.985 1_655 S
H144 N139 0.984 . S
H145 N139 0.985 . S
H146 N143 0.984 . S
H147 N143 0.985 1_455 S
H148 N142 0.984 1_655 S
H149 N142 0.984 . S
H150 N138 0.984 . S
H151 N138 0.985 . S
C45 C29 1.488 . S
C47 C18 1.498 . S
C63 C30 1.498 . S
C65 C21 1.488 . S
C81 C10 1.498 . S
C83 C37 1.488 . S
C99 C40 1.498 . S
C101 C7 1.488 . S
C117 C43 1.488 . S
C119 C8 1.498 . S
C135 C32 1.498 . S
C137 C15 1.488 . S
