# Generated by pormake.
# Topology sxc, (6)-cn, num edge types: 1
# Building blocks:
#     Node 0, Type 0, BuildingBlock: JUFBIX_clean_sbu_0, # of connection points: 6
#     Node 1, Type 0, BuildingBlock: JUFBIX_clean_sbu_0, # of connection points: 6
#     Node 2, Type 0, BuildingBlock: JUFBIX_clean_sbu_0, # of connection points: 6
#     Edge 3, Type (0, 0), BuildingBlock: EZIPEK_clean_linker_0, # of connection points: 2
#     Edge 4, Type (0, 0), BuildingBlock: EZIPEK_clean_linker_0, # of connection points: 2
#     Edge 5, Type (0, 0), BuildingBlock: EZIPEK_clean_linker_0, # of connection points: 2
#     Edge 6, Type (0, 0), BuildingBlock: EZIPEK_clean_linker_0, # of connection points: 2
#     Edge 7, Type (0, 0), BuildingBlock: EZIPEK_clean_linker_0, # of connection points: 2
#     Edge 8, Type (0, 0), BuildingBlock: EZIPEK_clean_linker_0, # of connection points: 2
#     Edge 9, Type (0, 0), BuildingBlock: EZIPEK_clean_linker_0, # of connection points: 2
#     Edge 10, Type (0, 0), BuildingBlock: EZIPEK_clean_linker_0, # of connection points: 2
#     Edge 11, Type (0, 0), BuildingBlock: EZIPEK_clean_linker_0, # of connection points: 2
# Relax obj value: 0.705
# Max RMSD: 0.153
# Mean RMSD: 0.152
data_MOF--net-sxc--node1-JUFBIX_clean_sbu_0--edge1-EZIPEK_clean_linker_0
_symmetry_space_group_name_H-M    P1
_symmetry_Int_Tables_number       1
_symmetry_cell_setting            triclinic
loop_
_symmetry_equiv_pos_as_xyz
'x, y, z'
_cell_length_a     11.463662
_cell_length_b     11.384528
_cell_length_c     32.71915
_cell_angle_alpha  94.520966
_cell_angle_beta   87.881015
_cell_angle_gamma 120.2429
loop_
_atom_site_label
_atom_site_type_symbol
_atom_site_fract_x
_atom_site_fract_y
_atom_site_fract_z
_atom_type_partial_charge
Co0 Co 0.21031 1.03833 1.00526 0.0
C1 C 0.14699 1.06744 0.92798 0.0
Co2 Co 1.07983 0.12251 0.00726 0.0
C3 C 0.31497 0.87737 0.02481 0.0
C4 C 0.43389 1.00928 0.97874 0.0
N5 N 0.32858 0.9787 1.0041 0.0
N6 N 0.38973 0.8247 0.00844 0.0
C7 C 0.47293 0.91463 0.98173 0.0
H8 H 0.22869 0.82345 0.04455 0.0
H9 H 0.46899 1.08469 0.95624 0.0
C10 C 0.14822 1.09433 0.08458 0.0
N11 N 0.96471 0.18688 0.00789 0.0
C12 C 0.98937 0.29041 0.98626 0.0
C13 C 0.8705 0.17609 0.03552 0.0
N14 N 0.93818 0.36459 1.00434 0.0
C15 C 0.85202 0.28547 0.03281 0.0
C16 C 0.92051 0.83374 1.0048 0.0
O17 O 0.21102 1.04601 0.06344 0.0
O18 O 1.08192 0.13592 0.06611 0.0
O19 O 0.91928 0.94465 0.00755 0.0
O20 O 1.03882 0.84524 1.0032 0.0
O21 O 1.07683 0.10956 0.94805 0.0
H22 H 0.83342 0.10636 0.05968 0.0
H23 H 1.0725 0.33073 0.9647 0.0
O24 O 0.21412 1.0296 0.94729 0.0
O25 O 0.37054 0.21751 0.00704 0.0
O26 O 0.24962 0.31449 0.00733 0.0
C27 C 0.3678 0.32716 0.00737 0.0
H28 H 0.53983 0.8996 0.96071 0.0
H29 H 0.79842 0.31629 0.05494 0.0
Co30 Co 0.28234 0.19543 0.34057 0.0
C31 C 0.178 0.1183 0.26191 0.0
Co32 Co 1.07148 1.05778 0.33981 0.0
C33 C 0.56301 0.29204 0.37343 0.0
C34 C 0.549 0.42808 0.29891 0.0
N35 N 0.45746 0.31944 0.34091 0.0
N36 N 0.73256 0.37687 0.352 0.0
C37 C 0.74533 0.46919 0.30668 0.0
H38 H 0.52492 0.2088 0.39336 0.0
H39 H 0.50428 0.43966 0.27207 0.0
C40 C 0.18023 0.1393 0.41848 0.0
N41 N 0.89579 0.93285 0.33877 0.0
C42 C 0.79274 0.96084 0.30531 0.0
C43 C 0.79984 0.81786 0.37908 0.0
N44 N 0.62018 0.86986 0.32444 0.0
C45 C 0.60324 0.77288 0.36897 0.0
C46 C 0.20188 0.90395 0.33834 0.0
O47 O 0.28797 0.19956 0.39828 0.0
O48 O 1.0698 1.07185 0.39876 0.0
O49 O 1.09038 0.90059 0.3407 0.0
O50 O 0.30768 1.02415 0.33682 0.0
O51 O 1.0706 1.042 0.28079 0.0
H52 H 0.84061 0.80076 0.40569 0.0
H53 H 0.83187 1.04556 0.28592 0.0
O54 O 0.28353 0.19548 0.28253 0.0
O55 O 0.26161 0.35432 0.34454 0.0
O56 O 1.04463 0.22586 0.33911 0.0
C57 C 0.14864 0.34756 0.342 0.0
H58 H 0.8198 0.49489 0.28282 0.0
H59 H 0.52091 0.73493 0.39062 0.0
Co60 Co 1.12768 1.00711 0.66861 0.0
C61 C 0.17834 0.136 0.59661 0.0
Co62 Co 0.20714 0.22282 0.67959 0.0
C63 C 0.95974 0.73589 0.68062 0.0
C64 C 1.07542 0.75331 0.62673 0.0
N65 N 1.06068 0.82596 0.65895 0.0
N66 N 0.89347 0.61262 0.66026 0.0
C67 C 0.97191 0.62062 0.62759 0.0
H68 H 0.91598 0.76828 0.70574 0.0
H69 H 0.14542 0.79645 0.60177 0.0
C70 C 0.15581 1.0917 0.75149 0.0
N71 N 0.27466 0.4043 0.68905 0.0
C72 C 0.37504 0.4926 0.66686 0.0
C73 C 0.26409 0.4786 0.72155 0.0
N74 N 0.44582 0.61535 0.68714 0.0
C75 C 0.36978 0.61019 0.72021 0.0
C76 C 0.92288 0.09658 0.67422 0.0
O77 O 1.11725 0.98835 0.72645 0.0
O78 O 0.19955 0.20696 0.73737 0.0
O79 O 1.03103 0.20939 0.68084 0.0
O80 O 0.93678 0.99041 0.66827 0.0
O81 O 0.21297 0.24007 0.62117 0.0
H82 H 0.19576 0.43702 0.74698 0.0
H83 H 0.41591 0.45816 0.64151 0.0
O84 O 0.13988 1.02316 0.61148 0.0
O85 O 0.3034 1.02029 0.66867 0.0
O86 O 0.3983 0.24021 0.6783 0.0
C87 C 0.41187 0.13374 0.67351 0.0
H88 H 0.9446 0.54309 0.60268 0.0
H89 H 0.39983 0.68885 0.74492 0.0
C90 C 1.08279 0.57326 0.97516 0.0
C91 C 1.03821 0.50515 0.01149 0.0
C92 C 0.27297 0.60929 0.0346 0.0
C93 C 0.31456 0.68117 0.99918 0.0
N94 N 0.26913 0.67537 0.92776 0.0
N95 N 1.08877 0.50028 0.0822 0.0
C96 C 0.22214 0.64116 0.96636 0.0
C97 C 1.13312 0.53639 0.04347 0.0
N98 N 0.98929 0.55947 0.94779 0.0
N99 N 0.3695 0.63091 0.06202 0.0
H100 H 0.98796 0.46041 0.09041 0.0
H101 H 0.15273 0.52554 0.10716 0.0
H102 H 0.47192 0.69294 0.05544 0.0
H103 H 0.34947 0.58231 0.08912 0.0
H104 H 1.01436 0.61168 0.92116 0.0
H105 H 0.88614 0.5041 0.95433 0.0
H106 H 0.20637 0.645 0.90219 0.0
H107 H 0.37197 0.72184 0.92116 0.0
C108 C 0.76311 0.19272 0.3719 0.0
C109 C 0.74595 0.26316 0.34192 0.0
C110 C 0.58338 1.05111 0.30558 0.0
C111 C 0.60219 0.98054 0.33512 0.0
N112 N 0.76275 0.98054 0.37043 0.0
N113 N 0.58297 0.26365 0.30809 0.0
C114 C 0.69568 1.0495 0.36573 0.0
C115 C 0.64992 0.19405 0.31208 0.0
N116 N 0.84257 0.26105 0.40514 0.0
N117 N 0.50387 0.98339 0.27232 0.0
H118 H 0.62976 0.45457 0.34911 0.0
H119 H 0.50306 0.20816 0.28665 0.0
H120 H 0.4523 0.87694 0.26877 0.0
H121 H 0.49456 1.03471 0.2487 0.0
H122 H 0.85106 0.21051 0.42913 0.0
H123 H 0.89485 0.36753 0.40838 0.0
H124 H 0.83897 1.0344 0.39308 0.0
H125 H 0.72592 0.79568 0.32802 0.0
C126 C 0.70826 0.61942 0.63204 0.0
C127 C 0.75073 0.55663 0.65901 0.0
C128 C 0.62776 0.59878 0.71452 0.0
C129 C 0.58759 0.66437 0.6877 0.0
N130 N 0.6245 0.77523 0.62581 0.0
N131 N 0.71471 0.44542 0.72066 0.0
C132 C 0.6465 0.69314 0.6486 0.0
C133 C 0.691 0.52643 0.69792 0.0
N134 N 0.72871 0.60863 0.59098 0.0
N135 N 0.60629 0.60788 0.75558 0.0
H136 H 0.77246 0.40302 0.70893 0.0
H137 H 0.66967 0.41305 0.74893 0.0
H138 H 0.5719 0.67159 0.76839 0.0
H139 H 0.63751 0.56646 0.77704 0.0
H140 H 0.69619 0.64857 0.56941 0.0
H141 H 0.76411 0.54532 0.57851 0.0
H142 H 0.66923 0.8062 0.59741 0.0
H143 H 0.56887 0.81994 0.6376 0.0
C144 C 0.68475 1.0401 0.70303 0.0
C145 C 0.78644 0.09703 0.67227 0.0
C146 C 0.64669 0.18542 0.64291 0.0
C147 C 0.54842 0.13385 0.67483 0.0
N148 N 0.48416 1.02242 0.73795 0.0
N149 N 0.86452 0.23166 0.61365 0.0
C150 C 0.57083 1.06362 0.70543 0.0
C151 C 0.76696 0.17232 0.64263 0.0
N152 N 0.69642 0.96127 0.73004 0.0
N153 N 0.62226 0.2429 0.61165 0.0
H154 H 0.94598 0.2151 0.61003 0.0
H155 H 0.86793 0.3002 0.59379 0.0
H156 H 0.5394 0.25715 0.61161 0.0
H157 H 0.67883 0.27046 0.58492 0.0
H158 H 0.62449 0.90734 0.75178 0.0
H159 H 0.77524 0.94094 0.72843 0.0
H160 H 0.49821 0.98304 0.76371 0.0
H161 H 0.40127 1.03679 0.74076 0.0
C162 C 0.74526 0.59873 0.03277 0.0
C163 C 0.78157 0.69734 1.00313 0.0
C164 C 0.54237 0.55586 0.97641 0.0
C165 C 0.50452 0.46394 0.00804 0.0
N166 N 0.56793 0.41766 0.07141 0.0
N167 N 0.70333 0.77126 0.94826 0.0
C168 C 0.60609 0.49143 0.03749 0.0
C169 C 0.67624 0.67592 0.97559 0.0
N170 N 0.84427 0.60616 0.05652 0.0
N171 N 0.45151 0.52623 0.94591 0.0
H172 H 0.79846 0.8557 0.94459 0.0
H173 H 0.63058 0.77058 0.93005 0.0
H174 H 0.35166 0.44714 0.94677 0.0
H175 H 0.47653 0.57359 0.91845 0.0
H176 H 0.82842 0.53535 0.07739 0.0
H177 H 0.94578 0.67604 0.05239 0.0
H178 H 0.63067 0.43964 0.09647 0.0
H179 H 0.46828 0.34276 0.07661 0.0
C180 C 1.099 0.51974 0.30845 0.0
C181 C 0.14753 0.48453 0.34232 0.0
C182 C 0.24654 0.7284 0.37116 0.0
C183 C 0.19779 0.76429 0.33752 0.0
N184 N 1.07079 0.68808 0.27447 0.0
N185 N 0.23663 0.54986 0.41066 0.0
C186 C 1.12164 0.65732 0.30644 0.0
C187 C 0.21392 0.58842 0.37471 0.0
N188 N 1.02698 0.41959 0.27864 0.0
N189 N 0.32351 0.82852 0.40034 0.0
H190 H 0.20228 0.44797 0.41529 0.0
H191 H 0.27426 0.61392 0.43717 0.0
H192 H 0.3456 0.92901 0.39942 0.0
H193 H 0.37353 0.81532 0.42386 0.0
H194 H 0.98645 0.43215 0.25261 0.0
H195 H 1.00412 0.31919 0.28017 0.0
H196 H 1.02878 0.62562 0.24799 0.0
H197 H 1.06979 0.77874 0.27421 0.0
C198 C 0.16663 1.0038 0.19256 0.0
C199 C 0.18055 0.11875 0.21651 0.0
C200 C 0.19432 0.22836 0.15338 0.0
C201 C 0.15503 0.10294 0.1302 0.0
N202 N 1.08002 0.86277 0.12991 0.0
N203 N 0.209 0.34401 0.22016 0.0
C204 C 1.13431 0.98809 0.15044 0.0
C205 C 0.19472 0.23231 0.19705 0.0
N206 N 0.19471 0.91492 0.20932 0.0
N207 N 0.23966 0.34536 0.13386 0.0
H208 H 0.21969 0.35451 0.25194 0.0
H209 H 0.20313 0.4228 0.20805 0.0
H210 H 0.24604 0.34793 0.10207 0.0
H211 H 0.28377 0.44176 0.14916 0.0
H212 H 0.19587 0.83408 0.19233 0.0
H213 H 0.23569 0.93478 0.2387 0.0
H214 H 1.0524 0.77399 0.14436 0.0
H215 H 1.04908 0.84618 0.09951 0.0
C216 C 0.27607 0.26112 0.48836 0.0
C217 C 0.1842 0.1417 0.46415 0.0
C218 C 1.07663 1.03192 0.52696 0.0
C219 C 0.17908 0.14281 0.55119 0.0
N220 N 0.39967 0.34672 0.55215 0.0
N221 N 1.03566 0.89766 0.46299 0.0
C222 C 0.28544 0.25341 0.53121 0.0
C223 C 1.09525 1.02229 0.48412 0.0
N224 N 0.35309 0.38279 0.47124 0.0
N225 N 0.9594 0.93745 0.54424 0.0
H226 H 1.0598 0.88392 0.43261 0.0
H227 H 0.97774 0.80708 0.47734 0.0
H228 H 0.93514 0.94628 0.57493 0.0
H229 H 0.87948 0.86031 0.52671 0.0
H230 H 0.40954 0.47429 0.48878 0.0
H231 H 0.35188 0.39596 0.44024 0.0
H232 H 0.48493 0.42105 0.53782 0.0
H233 H 0.41621 0.33947 0.58259 0.0
C234 C 1.03966 0.97924 0.81635 0.0
C235 C 0.15655 1.07941 0.79653 0.0
C236 C 0.27139 0.16741 0.86333 0.0
C237 C 0.15468 1.06647 0.88263 0.0
N238 N 0.94991 0.84954 0.87633 0.0
N239 N 0.39535 0.24512 0.80017 0.0
C240 C 1.04513 0.96446 0.8588 0.0
C241 C 0.27591 0.16724 0.81976 0.0
N242 N 0.92145 0.90133 0.79524 0.0
N243 N 0.37792 0.2638 0.88669 0.0
H244 H 0.40488 0.24494 0.76838 0.0
H245 H 0.48828 0.30006 0.81508 0.0
H246 H 0.38265 0.26072 0.91829 0.0
H247 H 0.45858 0.35038 0.87515 0.0
H248 H 0.8297 0.83915 0.80933 0.0
H249 H 0.91234 0.90713 0.76415 0.0
H250 H 0.87364 0.76544 0.85975 0.0
H251 H 0.95748 0.83185 0.90666 0.0
loop_
_geom_bond_atom_site_label_1
_geom_bond_atom_site_label_2
_geom_bond_distance
_geom_bond_site_symmetry_2
_ccdc_geom_bond_type
Co0 N5 2.057 1_554 S
Co0 O17 2.021 . S
Co0 O20 2.062 1_455 S
Co0 O24 2.117 1_554 S
Co0 O25 2.020 1_565 S
C1 O21 1.259 1_455 S
C1 O24 1.258 1_545 S
Co2 N11 2.057 1_556 S
Co2 O18 2.117 1_556 S
Co2 O19 2.020 1_545 S
Co2 O21 2.021 . S
Co2 O26 2.062 1_655 S
C3 N5 1.316 1_554 S
C3 N6 1.347 1_554 S
C3 H8 0.931 . S
C4 N5 1.375 . S
C4 C7 1.350 . S
C4 H9 0.930 . S
N5 Co0 2.057 1_556 S
N5 C3 1.316 1_556 S
N5 C4 1.375 . S
N6 C3 1.347 1_556 S
N6 C7 1.373 . S
C7 C4 1.350 . S
C7 N6 1.373 . S
C7 H28 0.931 . S
H8 C3 0.931 . S
H9 C4 0.930 . S
C10 O17 1.259 1_545 S
C10 O18 1.258 1_455 S
N11 Co2 2.057 1_554 S
N11 C12 1.316 1_554 S
N11 C13 1.375 . S
C12 N11 1.316 1_556 S
C12 N14 1.347 1_556 S
C12 H23 0.931 . S
C13 N11 1.375 . S
C13 C15 1.350 . S
C13 H22 0.930 . S
N14 C12 1.347 1_554 S
N14 C15 1.373 . S
C15 C13 1.350 . S
C15 N14 1.373 . S
C15 H29 0.931 . S
C16 O19 1.254 1_554 S
C16 O20 1.255 . S
O17 Co0 2.021 . S
O17 C10 1.259 1_565 S
O18 Co2 2.117 1_554 S
O18 C10 1.258 1_655 S
O19 Co2 2.020 1_565 S
O19 C16 1.254 1_556 S
O20 Co0 2.062 1_655 S
O20 C16 1.255 . S
O21 C1 1.259 1_655 S
O21 Co2 2.021 . S
H22 C13 0.930 . S
H23 C12 0.931 . S
O24 Co0 2.117 1_556 S
O24 C1 1.258 1_565 S
O25 Co0 2.020 1_545 S
O25 C27 1.255 1_554 S
O26 Co2 2.062 1_455 S
O26 C27 1.255 . S
C27 O25 1.255 1_556 S
C27 O26 1.255 . S
H28 C7 0.931 . S
H29 C15 0.931 . S
Co30 N35 2.057 . S
Co30 O47 2.021 . S
Co30 O50 2.062 1_545 S
Co30 O54 2.117 . S
Co30 O55 2.020 . S
C31 O51 1.259 1_445 S
C31 O54 1.258 . S
Co32 N41 2.057 . S
Co32 O48 2.117 . S
Co32 O49 2.020 . S
Co32 O51 2.021 . S
Co32 O56 2.062 1_565 S
C33 N35 1.316 . S
C33 N36 1.347 . S
C33 H38 0.931 . S
C34 N35 1.375 . S
C34 C37 1.350 . S
C34 H39 0.930 . S
N35 Co30 2.057 . S
N35 C33 1.316 . S
N35 C34 1.375 . S
N36 C33 1.347 . S
N36 C37 1.373 . S
C37 C34 1.350 . S
C37 N36 1.373 . S
C37 H58 0.931 . S
H38 C33 0.931 . S
H39 C34 0.930 . S
C40 O47 1.259 . S
C40 O48 1.259 1_445 S
N41 Co32 2.057 . S
N41 C42 1.316 . S
N41 C43 1.375 . S
C42 N41 1.316 . S
C42 N44 1.347 . S
C42 H53 0.931 . S
C43 N41 1.375 . S
C43 C45 1.350 . S
C43 H52 0.930 . S
N44 C42 1.347 . S
N44 C45 1.373 . S
C45 C43 1.350 . S
C45 N44 1.373 . S
C45 H59 0.931 . S
C46 O49 1.256 1_455 S
C46 O50 1.255 . S
O47 Co30 2.021 . S
O47 C40 1.259 . S
O48 Co32 2.117 . S
O48 C40 1.259 1_665 S
O49 Co32 2.020 . S
O49 C46 1.256 1_655 S
O50 Co30 2.062 1_565 S
O50 C46 1.255 . S
O51 C31 1.259 1_665 S
O51 Co32 2.021 . S
H52 C43 0.930 . S
H53 C42 0.931 . S
O54 Co30 2.117 . S
O54 C31 1.258 . S
O55 Co30 2.020 . S
O55 C57 1.256 . S
O56 Co32 2.062 1_545 S
O56 C57 1.255 1_655 S
C57 O55 1.256 . S
C57 O56 1.255 1_455 S
H58 C37 0.931 . S
H59 C45 0.931 . S
Co60 N65 2.057 . S
Co60 O77 2.021 . S
Co60 O80 2.062 . S
Co60 O84 2.117 . S
Co60 O85 2.020 1_655 S
C61 O81 1.259 . S
C61 O84 1.258 1_445 S
Co62 N71 2.057 . S
Co62 O78 2.117 . S
Co62 O79 2.020 1_455 S
Co62 O81 2.021 . S
Co62 O86 2.062 . S
C63 N65 1.316 . S
C63 N66 1.347 . S
C63 H68 0.931 . S
C64 N65 1.375 . S
C64 C67 1.350 . S
C64 H69 0.930 . S
N65 Co60 2.057 . S
N65 C63 1.316 . S
N65 C64 1.375 . S
N66 C63 1.347 . S
N66 C67 1.373 . S
C67 C64 1.350 . S
C67 N66 1.373 . S
C67 H88 0.931 . S
H68 C63 0.931 . S
H69 C64 0.930 . S
C70 O77 1.259 1_445 S
C70 O78 1.258 . S
N71 Co62 2.057 . S
N71 C72 1.316 . S
N71 C73 1.375 . S
C72 N71 1.316 . S
C72 N74 1.347 . S
C72 H83 0.931 . S
C73 N71 1.375 . S
C73 C75 1.350 . S
C73 H82 0.930 . S
N74 C72 1.347 . S
N74 C75 1.373 . S
C75 C73 1.350 . S
C75 N74 1.373 . S
C75 H89 0.931 . S
C76 O79 1.256 . S
C76 O80 1.255 1_545 S
O77 Co60 2.021 . S
O77 C70 1.259 1_665 S
O78 Co62 2.117 . S
O78 C70 1.258 . S
O79 Co62 2.020 1_655 S
O79 C76 1.256 . S
O80 Co60 2.062 . S
O80 C76 1.255 1_565 S
O81 C61 1.259 . S
O81 Co62 2.021 . S
H82 C73 0.930 . S
H83 C72 0.931 . S
O84 Co60 2.117 . S
O84 C61 1.258 1_665 S
O85 Co60 2.020 1_455 S
O85 C87 1.256 . S
O86 Co62 2.062 . S
O86 C87 1.255 1_545 S
C87 O85 1.256 . S
C87 O86 1.255 1_565 S
H88 C67 0.931 . S
H89 C75 0.931 . S
C90 C91 1.363 1_556 S
C90 C96 1.379 1_655 S
C90 N98 1.356 . S
C91 C90 1.363 1_554 S
C91 C97 1.363 . S
C92 C93 1.363 . S
C92 C97 1.379 1_455 S
C92 N99 1.356 . S
C93 C92 1.363 . S
C93 C96 1.363 1_554 S
N94 C96 1.356 . S
N94 H106 0.984 . S
N94 H107 0.985 . S
N95 C97 1.356 . S
N95 H100 0.984 . S
N95 H101 0.985 . S
C96 C90 1.379 1_455 S
C96 C93 1.363 1_556 S
C96 N94 1.356 . S
C97 C91 1.363 . S
C97 C92 1.379 1_655 S
C97 N95 1.356 . S
N98 C90 1.356 . S
N98 H104 0.984 . S
N98 H105 0.984 . S
N99 C92 1.356 . S
N99 H102 0.984 . S
N99 H103 0.985 . S
H100 N95 0.984 . S
H101 N95 0.985 . S
H102 N99 0.984 . S
H103 N99 0.985 . S
H104 N98 0.984 . S
H105 N98 0.984 . S
H106 N94 0.984 . S
H107 N94 0.985 . S
C108 C109 1.363 . S
C108 C114 1.379 1_545 S
C108 N116 1.356 . S
C109 C108 1.363 . S
C109 C115 1.363 . S
C110 C111 1.363 . S
C110 C115 1.379 1_565 S
C110 N117 1.356 . S
C111 C110 1.363 . S
C111 C114 1.363 . S
N112 C114 1.356 . S
N112 H124 0.984 . S
N112 H125 0.985 . S
N113 C115 1.356 . S
N113 H118 0.984 . S
N113 H119 0.985 . S
C114 C108 1.379 1_565 S
C114 C111 1.363 . S
C114 N112 1.356 . S
C115 C109 1.363 . S
C115 C110 1.379 1_545 S
C115 N113 1.356 . S
N116 C108 1.356 . S
N116 H122 0.984 . S
N116 H123 0.984 . S
N117 C110 1.356 . S
N117 H120 0.984 . S
N117 H121 0.985 . S
H118 N113 0.984 . S
H119 N113 0.985 . S
H120 N117 0.984 . S
H121 N117 0.985 . S
H122 N116 0.984 . S
H123 N116 0.984 . S
H124 N112 0.984 . S
H125 N112 0.985 . S
C126 C127 1.363 . S
C126 C132 1.379 . S
C126 N134 1.356 . S
C127 C126 1.363 . S
C127 C133 1.363 . S
C128 C129 1.363 . S
C128 C133 1.379 . S
C128 N135 1.356 . S
C129 C128 1.363 . S
C129 C132 1.363 . S
N130 C132 1.356 . S
N130 H142 0.984 . S
N130 H143 0.985 . S
N131 C133 1.356 . S
N131 H136 0.984 . S
N131 H137 0.985 . S
C132 C126 1.379 . S
C132 C129 1.363 . S
C132 N130 1.356 . S
C133 C127 1.363 . S
C133 C128 1.379 . S
C133 N131 1.356 . S
N134 C126 1.356 . S
N134 H140 0.984 . S
N134 H141 0.984 . S
N135 C128 1.356 . S
N135 H138 0.984 . S
N135 H139 0.985 . S
H136 N131 0.984 . S
H137 N131 0.985 . S
H138 N135 0.984 . S
H139 N135 0.985 . S
H140 N134 0.984 . S
H141 N134 0.984 . S
H142 N130 0.984 . S
H143 N130 0.985 . S
C144 C145 1.363 1_565 S
C144 C150 1.379 . S
C144 N152 1.356 . S
C145 C144 1.363 1_545 S
C145 C151 1.363 . S
C146 C147 1.363 1_545 S
C146 C151 1.379 . S
C146 N153 1.356 . S
C147 C146 1.363 1_565 S
C147 C150 1.363 . S
N148 C150 1.356 . S
N148 H160 0.984 . S
N148 H161 0.985 . S
N149 C151 1.356 . S
N149 H154 0.984 . S
N149 H155 0.985 . S
C150 C144 1.379 . S
C150 C147 1.363 . S
C150 N148 1.356 . S
C151 C145 1.363 . S
C151 C146 1.379 . S
C151 N149 1.356 . S
N152 C144 1.356 . S
N152 H158 0.984 . S
N152 H159 0.984 . S
N153 C146 1.356 . S
N153 H156 0.984 . S
N153 H157 0.985 . S
H154 N149 0.984 . S
H155 N149 0.985 . S
H156 N153 0.984 . S
H157 N153 0.985 . S
H158 N152 0.984 . S
H159 N152 0.984 . S
H160 N148 0.984 . S
H161 N148 0.985 . S
C162 C163 1.363 . S
C162 C168 1.379 . S
C162 N170 1.356 . S
C163 C162 1.363 . S
C163 C169 1.363 1_554 S
C164 C165 1.347 1_556 S
C164 C169 1.379 . S
C164 N171 1.356 . S
C165 C164 1.347 1_554 S
C165 C168 1.379 . S
N166 C168 1.356 . S
N166 H178 0.984 . S
N166 H179 0.985 . S
N167 C169 1.356 . S
N167 H172 0.984 . S
N167 H173 0.985 . S
C168 C162 1.379 . S
C168 C165 1.379 . S
C168 N166 1.356 . S
C169 C163 1.363 1_556 S
C169 C164 1.379 . S
C169 N167 1.356 . S
N170 C162 1.356 . S
N170 H176 0.984 . S
N170 H177 0.984 . S
N171 C164 1.356 . S
N171 H174 0.984 . S
N171 H175 0.985 . S
H172 N167 0.984 . S
H173 N167 0.985 . S
H174 N171 0.984 . S
H175 N171 0.985 . S
H176 N170 0.984 . S
H177 N170 0.984 . S
H178 N166 0.984 . S
H179 N166 0.985 . S
C180 C181 1.363 1_655 S
C180 C186 1.379 . S
C180 N188 1.356 . S
C181 C180 1.363 1_455 S
C181 C187 1.363 . S
C182 C183 1.363 . S
C182 C187 1.379 . S
C182 N189 1.356 . S
C183 C182 1.363 . S
C183 C186 1.363 1_455 S
N184 C186 1.356 . S
N184 H196 0.984 . S
N184 H197 0.985 . S
N185 C187 1.356 . S
N185 H190 0.984 . S
N185 H191 0.985 . S
C186 C180 1.379 . S
C186 C183 1.363 1_655 S
C186 N184 1.356 . S
C187 C181 1.363 . S
C187 C182 1.379 . S
C187 N185 1.356 . S
N188 C180 1.356 . S
N188 H194 0.984 . S
N188 H195 0.984 . S
N189 C182 1.356 . S
N189 H192 0.984 . S
N189 H193 0.985 . S
H190 N185 0.984 . S
H191 N185 0.985 . S
H192 N189 0.984 . S
H193 N189 0.985 . S
H194 N188 0.984 . S
H195 N188 0.984 . S
H196 N184 0.984 . S
H197 N184 0.985 . S
C198 C199 1.363 1_565 S
C198 C204 1.379 . S
C198 N206 1.356 . S
C199 C198 1.363 1_545 S
C199 C205 1.363 . S
C200 C201 1.363 . S
C200 C205 1.379 . S
C200 N207 1.356 1_455 S
C201 C200 1.363 . S
C201 C204 1.363 1_545 S
N202 C204 1.356 . S
N202 H214 0.984 . S
N202 H215 0.985 . S
N203 C205 1.356 . S
N203 H208 0.984 . S
N203 H209 0.985 . S
C204 C198 1.379 . S
C204 C201 1.363 1_565 S
C204 N202 1.356 . S
C205 C199 1.363 . S
C205 C200 1.379 . S
C205 N203 1.356 . S
N206 C198 1.356 . S
N206 H212 0.984 . S
N206 H213 0.984 . S
N207 C200 1.356 1_655 S
N207 H210 0.984 . S
N207 H211 0.985 . S
H208 N203 0.984 . S
H209 N203 0.985 . S
H210 N207 0.984 . S
H211 N207 0.985 . S
H212 N206 0.984 . S
H213 N206 0.984 . S
H214 N202 0.984 . S
H215 N202 0.985 . S
C216 C217 1.363 . S
C216 C222 1.379 . S
C216 N224 1.356 . S
C217 C216 1.363 . S
C217 C223 1.363 1_445 S
C218 C219 1.363 1_665 S
C218 C223 1.379 . S
C218 N225 1.356 . S
C219 C218 1.363 1_445 S
C219 C222 1.363 . S
N220 C222 1.356 . S
N220 H232 0.984 . S
N220 H233 0.985 . S
N221 C223 1.356 . S
N221 H226 0.984 . S
N221 H227 0.985 . S
C222 C216 1.379 . S
C222 C219 1.363 . S
C222 N220 1.356 . S
C223 C217 1.363 1_665 S
C223 C218 1.379 . S
C223 N221 1.356 . S
N224 C216 1.356 . S
N224 H230 0.984 . S
N224 H231 0.984 . S
N225 C218 1.356 . S
N225 H228 0.984 . S
N225 H229 0.985 . S
H226 N221 0.984 . S
H227 N221 0.985 . S
H228 N225 0.984 . S
H229 N225 0.985 . S
H230 N224 0.984 . S
H231 N224 0.984 . S
H232 N220 0.984 . S
H233 N220 0.985 . S
C234 C235 1.363 1_665 S
C234 C240 1.379 . S
C234 N242 1.356 . S
C235 C234 1.363 1_445 S
C235 C241 1.363 . S
C236 C237 1.363 . S
C236 C241 1.379 . S
C236 N243 1.356 . S
C237 C236 1.363 . S
C237 C240 1.363 1_445 S
N238 C240 1.356 . S
N238 H250 0.984 . S
N238 H251 0.985 . S
N239 C241 1.356 . S
N239 H244 0.984 . S
N239 H245 0.985 . S
C240 C234 1.379 . S
C240 C237 1.363 1_665 S
C240 N238 1.356 . S
C241 C235 1.363 . S
C241 C236 1.379 . S
C241 N239 1.356 . S
N242 C234 1.356 . S
N242 H248 0.984 . S
N242 H249 0.984 . S
N243 C236 1.356 . S
N243 H246 0.984 . S
N243 H247 0.985 . S
H244 N239 0.984 . S
H245 N239 0.985 . S
H246 N243 0.984 . S
H247 N243 0.985 . S
H248 N242 0.984 . S
H249 N242 0.984 . S
H250 N238 0.984 . S
H251 N238 0.985 . S
C91 N14 0.705 . S
C93 N6 0.705 1_554 S
C109 N36 0.710 . S
C111 N44 0.710 . S
C127 N66 0.706 . S
C129 N74 0.706 . S
C145 C76 2.829 . S
C147 C87 2.829 . S
C163 C16 2.828 . S
C165 C27 2.829 1_554 S
C181 C57 2.828 . S
C183 C46 2.828 . S
C199 C31 1.498 . S
C201 C10 1.496 . S
C217 C40 1.501 . S
C219 C61 1.497 . S
C235 C70 1.497 . S
C237 C1 1.500 . S
