# Generated by pormake.
# Topology pcu, (6)-cn, num edge types: 1
# Building blocks:
#     Node 0, Type 0, BuildingBlock: UKALOJ_clean_sbu_0, # of connection points: 6
#     Edge 1, Type (0, 0), BuildingBlock: XUDNAN_clean_linker_2, # of connection points: 2
#     Edge 2, Type (0, 0), BuildingBlock: XUDNAN_clean_linker_2, # of connection points: 2
#     Edge 3, Type (0, 0), BuildingBlock: XUDNAN_clean_linker_2, # of connection points: 2
# Relax obj value: 0.010
# Max RMSD: 0.054
# Mean RMSD: 0.054
data_MOF--net-pcu--node1-UKALOJ_clean_sbu_0--edge1-XUDNAN_clean_linker_2
_symmetry_space_group_name_H-M    P1
_symmetry_Int_Tables_number       1
_symmetry_cell_setting            triclinic
loop_
_symmetry_equiv_pos_as_xyz
'x, y, z'
_cell_length_a     15.355575
_cell_length_b     15.325926
_cell_length_c     20.139381
_cell_angle_alpha  97.120857
_cell_angle_beta   82.02128
_cell_angle_gamma 97.878029
loop_
_atom_site_label
_atom_site_type_symbol
_atom_site_fract_x
_atom_site_fract_y
_atom_site_fract_z
_atom_type_partial_charge
Zn0 Zn 0.97647 0.00259 0.07602 0.0
O1 O 0.96938 0.86628 0.07953 0.0
C2 C 0.16479 0.00791 0.02508 0.0
Zn3 Zn -0.00712 0.98451 0.96368 0.0
C4 C 0.97687 0.81342 0.02584 0.0
O5 O -0.01577 0.84366 0.969 0.0
C6 C -0.00203 0.17411 1.01638 0.0
O7 O 0.85012 0.97463 0.96306 0.0
O8 O 0.84211 -0.00826 0.0733 0.0
N9 N 0.01531 0.96162 0.86106 0.0
C10 C 0.97604 0.98294 0.81038 0.0
C11 C 0.07417 0.89988 0.76645 0.0
N12 N 0.07656 0.91055 0.83352 0.0
N13 N 0.01195 0.94489 0.75059 0.0
C14 C 0.97495 0.98411 0.22929 0.0
C15 C 0.89986 0.08722 0.27596 0.0
N16 N 0.95394 0.0255 0.17946 0.0
N17 N 0.90759 0.08981 0.2087 0.0
N18 N 0.94113 0.02101 0.29017 0.0
H19 H -0.01144 0.8465 0.2163 0.0
H20 H 0.07128 0.91382 0.26134 0.0
H21 H 0.07733 0.9135 0.17106 0.0
C22 C 0.03191 0.91058 0.21867 0.0
C23 C 0.89763 0.03361 0.82018 0.0
H24 H 0.8362 0.98618 0.82479 0.0
H25 H 0.89669 0.07071 0.77649 0.0
H26 H 0.89796 0.08028 0.86682 0.0
O27 O 0.00306 0.12587 0.96008 0.0
O28 O -0.01399 0.13793 0.07079 0.0
C29 C 0.80371 0.98199 1.02063 0.0
O30 O 0.11052 0.0146 0.07839 0.0
O31 O 0.13543 -0.00499 0.96801 0.0
H32 H 0.97576 0.12669 0.40379 0.0
H33 H 0.90337 0.85411 0.32538 0.0
H34 H 0.90642 0.80613 0.43757 0.0
H35 H 0.12594 0.0835 0.51218 0.0
H36 H 0.09472 0.16729 0.57896 0.0
H37 H 0.08369 0.18041 0.49304 0.0
H38 H 0.91753 0.19804 0.52748 0.0
H39 H 0.92798 0.18443 0.61353 0.0
H40 H 0.84608 0.113 0.56974 0.0
H41 H 0.92436 0.78688 0.55582 0.0
H42 H 0.95625 0.7978 0.67401 0.0
H43 H 0.01365 0.08265 0.67782 0.0
C44 C 0.96022 0.05709 0.41071 0.0
C45 C 0.94151 -0.00636 0.35585 0.0
C46 C 0.92086 0.90315 0.36632 0.0
C47 C 0.92133 0.87554 0.42999 0.0
C48 C 0.94156 0.93948 0.48285 0.0
C49 C 0.96041 0.02843 0.4741 0.0
C50 C -0.01755 0.08311 0.53903 0.0
C51 C 0.07734 0.13139 0.53026 0.0
C52 C 0.91444 0.14851 0.5639 0.0
C53 C 0.97423 0.0108 0.58531 0.0
C54 C 0.95006 0.92852 0.55184 0.0
C55 C 0.94218 0.85098 0.58284 0.0
C56 C 0.96031 0.85763 0.64965 0.0
C57 C -0.01466 0.94101 0.68473 0.0
C58 C -0.00803 0.01857 0.65233 0.0
H59 H 0.30757 0.97723 0.92615 0.0
H60 H 0.23812 0.04922 0.14106 0.0
H61 H 0.39156 0.04854 0.1595 0.0
H62 H 0.46528 0.83072 0.94263 0.0
H63 H 0.54373 0.86382 0.87235 0.0
H64 H 0.42763 0.87181 0.87285 0.0
H65 H 0.46354 0.0384 0.8566 0.0
H66 H 0.57985 0.03077 0.85554 0.0
H67 H 0.52666 0.11114 0.9148 0.0
H68 H 0.54477 0.0332 0.15911 0.0
H69 H 0.70171 0.01613 0.13895 0.0
H70 H 0.68563 0.95887 0.92345 0.0
C71 C 0.32517 -0.00633 0.97682 0.0
C72 C 0.26016 0.01286 0.03212 0.0
C73 C 0.28588 0.0338 0.09775 0.0
C74 C 0.37321 0.03363 0.10899 0.0
C75 C 0.43499 0.01299 0.05418 0.0
C76 C 0.41335 -0.00566 0.98923 0.0
C77 C 0.49499 0.97443 0.94022 0.0
C78 C 0.48211 0.87954 0.90493 0.0
C79 C 0.51759 0.04278 0.88874 0.0
C80 C 0.56481 0.98433 0.98839 0.0
C81 C 0.52738 0.00607 0.05373 0.0
C82 C 0.57543 0.01694 0.10817 0.0
C83 C 0.66498 0.00665 0.09589 0.0
C84 C 0.70683 0.98628 0.02943 0.0
C85 C 0.65575 0.97458 0.97474 0.0
H86 H 0.939 0.6633 0.93639 0.0
H87 H 0.0455 0.75378 0.12513 0.0
H88 H 0.06843 0.60241 0.13783 0.0
H89 H 0.82232 0.45791 0.98853 0.0
H90 H 0.8465 0.39349 0.90852 0.0
H91 H 0.84031 0.51048 0.91168 0.0
H92 H -0.00165 0.53166 0.84693 0.0
H93 H 0.00514 0.41469 0.84387 0.0
H94 H 0.08853 0.49403 0.87964 0.0
H95 H 0.07663 0.44566 0.1343 0.0
H96 H 0.06584 0.28369 0.11625 0.0
H97 H 0.95635 0.28483 0.9287 0.0
C98 C 0.96717 0.65079 0.98019 0.0
C99 C -0.0114 0.72037 0.03071 0.0
C100 C 0.02575 0.70162 0.08708 0.0
C101 C 0.04027 0.61578 0.09432 0.0
C102 C 0.01772 0.54872 0.04452 0.0
C103 C 0.98182 0.56432 0.98853 0.0
C104 C 0.96133 0.47801 0.94415 0.0
C105 C 0.86168 0.45886 0.93788 0.0
C106 C 0.01665 0.47973 0.87451 0.0
C107 C -0.00954 0.41218 0.98477 0.0
C108 C 0.02328 0.45548 0.04213 0.0
C109 C 0.05155 0.41069 0.08947 0.0
C110 C 0.04484 0.3186 0.07878 0.0
C111 C 0.01026 0.27177 1.02115 0.0
C112 C -0.01599 0.3192 0.97276 0.0
loop_
_geom_bond_atom_site_label_1
_geom_bond_atom_site_label_2
_geom_bond_distance
_geom_bond_site_symmetry_2
_ccdc_geom_bond_type
Zn0 O1 2.055 . S
Zn0 O8 2.046 . S
Zn0 N16 2.036 1_565 S
Zn0 O28 2.053 1_565 S
Zn0 O30 2.066 1_665 S
O1 Zn0 2.055 . S
O1 C4 1.259 1_554 S
C2 O30 1.256 1_565 S
C2 O31 1.244 1_554 S
Zn3 O5 2.046 . S
Zn3 O7 2.055 . S
Zn3 N9 2.036 1_655 S
Zn3 O27 2.066 1_665 S
Zn3 O31 2.053 1_655 S
C4 O1 1.259 1_556 S
C4 O5 1.254 . S
O5 Zn3 2.046 . S
O5 C4 1.254 . S
C6 O27 1.256 1_655 S
C6 O28 1.244 1_556 S
O7 Zn3 2.055 . S
O7 C29 1.259 1_556 S
O8 Zn0 2.046 . S
O8 C29 1.254 . S
N9 Zn3 2.036 1_455 S
N9 C10 1.298 1_465 S
N9 N12 1.398 . S
C10 N9 1.298 1_645 S
C10 N13 1.367 1_655 S
C10 C23 1.481 . S
C11 N12 1.299 . S
C11 N13 1.379 1_565 S
N12 N9 1.398 . S
N12 C11 1.299 . S
N13 C10 1.367 1_455 S
N13 C11 1.379 1_545 S
C14 N16 1.298 1_465 S
C14 N18 1.367 1_565 S
C14 C22 1.481 . S
C15 N17 1.299 . S
C15 N18 1.379 1_655 S
N16 Zn0 2.036 1_545 S
N16 C14 1.298 1_645 S
N16 N17 1.398 . S
N17 C15 1.299 . S
N17 N16 1.398 . S
N18 C14 1.367 1_545 S
N18 C15 1.379 1_455 S
H19 C22 0.980 . S
H20 C22 0.981 . S
H21 C22 0.981 . S
C22 C14 1.481 . S
C22 H19 0.980 . S
C22 H20 0.981 . S
C22 H21 0.981 . S
C23 C10 1.481 . S
C23 H24 0.980 . S
C23 H25 0.981 . S
C23 H26 0.981 . S
H24 C23 0.980 . S
H25 C23 0.981 . S
H26 C23 0.981 . S
O27 Zn3 2.066 1_445 S
O27 C6 1.256 1_455 S
O28 Zn0 2.053 1_545 S
O28 C6 1.244 1_554 S
C29 O7 1.259 1_554 S
C29 O8 1.254 . S
O30 Zn0 2.066 1_445 S
O30 C2 1.256 1_545 S
O31 C2 1.244 1_556 S
O31 Zn3 2.053 1_455 S
H32 C44 0.930 . S
H33 C46 0.930 . S
H34 C47 0.930 . S
H35 C51 0.959 . S
H36 C51 0.959 . S
H37 C51 0.961 . S
H38 C52 0.961 1_455 S
H39 C52 0.959 1_455 S
H40 C52 0.964 . S
H41 C55 0.929 . S
H42 C56 0.931 . S
H43 C58 0.930 . S
C44 H32 0.930 . S
C44 C45 1.399 . S
C44 C49 1.399 . S
C45 C44 1.399 . S
C45 C46 1.376 1_445 S
C46 H33 0.930 . S
C46 C45 1.376 1_665 S
C46 C47 1.388 . S
C47 H34 0.930 . S
C47 C46 1.388 . S
C47 C48 1.390 . S
C48 C47 1.390 . S
C48 C49 1.394 1_665 S
C48 C54 1.465 . S
C49 C44 1.399 . S
C49 C48 1.394 1_445 S
C49 C50 1.516 . S
C50 C49 1.516 . S
C50 C51 1.502 . S
C50 C52 1.557 1_455 S
C50 C53 1.526 . S
C51 H35 0.959 . S
C51 H36 0.959 . S
C51 H37 0.961 . S
C51 C50 1.502 . S
C52 H38 0.961 1_655 S
C52 H39 0.959 1_655 S
C52 H40 0.964 . S
C52 C50 1.557 1_655 S
C53 C50 1.526 . S
C53 C54 1.396 1_445 S
C53 C58 1.390 . S
C54 C48 1.465 . S
C54 C53 1.396 1_665 S
C54 C55 1.399 . S
C55 H41 0.929 . S
C55 C54 1.399 . S
C55 C56 1.385 . S
C56 H42 0.931 . S
C56 C55 1.385 . S
C56 C57 1.389 1_665 S
C57 C56 1.389 1_445 S
C57 C58 1.387 . S
C58 H43 0.930 . S
C58 C53 1.390 . S
C58 C57 1.387 . S
H59 C71 0.930 . S
H60 C73 0.930 . S
H61 C74 0.930 . S
H62 C78 0.959 . S
H63 C78 0.959 . S
H64 C78 0.961 . S
H65 C79 0.961 1_565 S
H66 C79 0.961 1_565 S
H67 C79 0.959 . S
H68 C82 0.929 . S
H69 C83 0.931 . S
H70 C85 0.930 . S
C71 H59 0.930 . S
C71 C72 1.399 1_566 S
C71 C76 1.399 . S
C72 C71 1.399 1_544 S
C72 C73 1.376 . S
C73 H60 0.930 . S
C73 C72 1.376 . S
C73 C74 1.388 . S
C74 H61 0.930 . S
C74 C73 1.388 . S
C74 C75 1.390 . S
C75 C74 1.390 . S
C75 C76 1.394 1_544 S
C75 C81 1.465 . S
C76 C71 1.399 . S
C76 C75 1.394 1_566 S
C76 C77 1.516 . S
C77 C76 1.516 . S
C77 C78 1.502 . S
C77 C79 1.561 1_565 S
C77 C80 1.526 . S
C78 H62 0.959 . S
C78 H63 0.959 . S
C78 H64 0.961 . S
C78 C77 1.502 . S
C79 H65 0.961 1_545 S
C79 H66 0.961 1_545 S
C79 H67 0.959 . S
C79 C77 1.561 1_545 S
C80 C77 1.526 . S
C80 C81 1.396 1_566 S
C80 C85 1.390 . S
C81 C75 1.465 . S
C81 C80 1.396 1_544 S
C81 C82 1.399 . S
C82 H68 0.929 . S
C82 C81 1.399 . S
C82 C83 1.385 . S
C83 H69 0.931 . S
C83 C82 1.385 . S
C83 C84 1.389 1_545 S
C84 C83 1.389 1_565 S
C84 C85 1.387 1_554 S
C85 H70 0.930 . S
C85 C80 1.390 . S
C85 C84 1.387 1_556 S
H86 C98 0.930 . S
H87 C100 0.930 . S
H88 C101 0.930 . S
H89 C105 0.959 . S
H90 C105 0.959 . S
H91 C105 0.961 . S
H92 C106 0.960 . S
H93 C106 0.961 . S
H94 C106 0.959 . S
H95 C109 0.929 . S
H96 C110 0.931 . S
H97 C112 0.930 . S
C98 H86 0.930 . S
C98 C99 1.409 . S
C98 C103 1.399 . S
C99 C98 1.409 . S
C99 C100 1.361 1_656 S
C100 H87 0.930 . S
C100 C99 1.361 1_454 S
C100 C101 1.388 . S
C101 H88 0.930 . S
C101 C100 1.388 . S
C101 C102 1.390 . S
C102 C101 1.390 . S
C102 C103 1.394 1_454 S
C102 C108 1.465 . S
C103 C98 1.399 . S
C103 C102 1.394 1_656 S
C103 C104 1.516 . S
C104 C103 1.516 . S
C104 C105 1.502 . S
C104 C106 1.561 1_655 S
C104 C107 1.526 . S
C105 H89 0.959 . S
C105 H90 0.959 . S
C105 H91 0.961 . S
C105 C104 1.502 . S
C106 H92 0.960 . S
C106 H93 0.961 . S
C106 H94 0.959 . S
C106 C104 1.561 1_455 S
C107 C104 1.526 . S
C107 C108 1.396 1_656 S
C107 C112 1.390 . S
C108 C102 1.465 . S
C108 C107 1.396 1_454 S
C108 C109 1.399 . S
C109 H95 0.929 . S
C109 C108 1.399 . S
C109 C110 1.385 . S
C110 H96 0.931 . S
C110 C109 1.385 . S
C110 C111 1.389 1_455 S
C111 C110 1.389 1_655 S
C111 C112 1.387 1_554 S
C112 H97 0.930 . S
C112 C107 1.390 . S
C112 C111 1.387 1_556 S
C45 N18 1.443 . S
C57 N13 1.438 . S
C72 C2 1.486 1_545 S
C84 C29 1.493 . S
C99 C4 1.499 . S
C111 C6 1.491 1_554 S
