# Generated by pormake.
# Topology nbo, (4)-cn, num edge types: 1
# Building blocks:
#     Node 0, Type 0, BuildingBlock: NAWXER_clean_sbu_0, # of connection points: 4
#     Node 1, Type 0, BuildingBlock: NAWXER_clean_sbu_0, # of connection points: 4
#     Node 2, Type 0, BuildingBlock: NAWXER_clean_sbu_0, # of connection points: 4
#     Node 3, Type 0, BuildingBlock: NAWXER_clean_sbu_0, # of connection points: 4
#     Node 4, Type 0, BuildingBlock: NAWXER_clean_sbu_0, # of connection points: 4
#     Node 5, Type 0, BuildingBlock: NAWXER_clean_sbu_0, # of connection points: 4
#     Edge 6, Type (0, 0), BuildingBlock: AJUNOK_clean_linker_0, # of connection points: 2
#     Edge 7, Type (0, 0), BuildingBlock: AJUNOK_clean_linker_0, # of connection points: 2
#     Edge 8, Type (0, 0), BuildingBlock: AJUNOK_clean_linker_0, # of connection points: 2
#     Edge 9, Type (0, 0), BuildingBlock: AJUNOK_clean_linker_0, # of connection points: 2
#     Edge 10, Type (0, 0), BuildingBlock: AJUNOK_clean_linker_0, # of connection points: 2
#     Edge 11, Type (0, 0), BuildingBlock: AJUNOK_clean_linker_0, # of connection points: 2
#     Edge 12, Type (0, 0), BuildingBlock: AJUNOK_clean_linker_0, # of connection points: 2
#     Edge 13, Type (0, 0), BuildingBlock: AJUNOK_clean_linker_0, # of connection points: 2
#     Edge 14, Type (0, 0), BuildingBlock: AJUNOK_clean_linker_0, # of connection points: 2
#     Edge 15, Type (0, 0), BuildingBlock: AJUNOK_clean_linker_0, # of connection points: 2
#     Edge 16, Type (0, 0), BuildingBlock: AJUNOK_clean_linker_0, # of connection points: 2
#     Edge 17, Type (0, 0), BuildingBlock: AJUNOK_clean_linker_0, # of connection points: 2
# Relax obj value: 0.000
# Max RMSD: 0.000
# Mean RMSD: 0.000
data_MOF--net-nbo--node1-NAWXER_clean_sbu_0--edge1-AJUNOK_clean_linker_0
_symmetry_space_group_name_H-M    P1
_symmetry_Int_Tables_number       1
_symmetry_cell_setting            triclinic
loop_
_symmetry_equiv_pos_as_xyz
'x, y, z'
_cell_length_a     21.212425
_cell_length_b     21.191369
_cell_length_c     21.18925
_cell_angle_alpha  97.03808
_cell_angle_beta   96.737661
_cell_angle_gamma 97.116385
loop_
_atom_site_label
_atom_site_type_symbol
_atom_site_fract_x
_atom_site_fract_y
_atom_site_fract_z
_atom_type_partial_charge
C0 C 0.11242 0.21824 0.48765 0.0
C1 C 0.09536 0.98891 0.49984 0.0
O2 O 0.09865 0.17197 0.44207 0.0
Zn3 Zn 0.10293 0.10286 0.49348 0.0
O4 O 0.1225 0.20656 0.54559 0.0
Zn5 Zn 0.12285 0.12421 0.59467 0.0
O6 O 0.20935 0.13649 0.63797 0.0
O7 O 0.20275 0.11073 0.53288 0.0
O8 O 0.10894 0.02283 0.55551 0.0
O9 O 0.08654 1.01633 0.45008 0.0
O10 O 1.02041 0.10567 0.54224 0.0
O11 O 0.0533 0.13205 0.64592 0.0
C12 C 0.2365 0.12392 0.58845 0.0
C13 C 1.00781 0.11771 0.59979 0.0
C14 C 0.47496 0.06585 0.08174 0.0
C15 C 0.46607 0.83407 0.07417 0.0
O16 O 0.53105 0.04846 0.08725 0.0
Zn17 Zn 0.57132 0.95934 0.09306 0.0
O18 O 0.4256 0.02446 0.079 0.0
Zn19 Zn 0.47031 0.95096 0.0807 0.0
O20 O 0.51447 0.96475 0.17922 0.0
O21 O 0.61893 0.97084 0.17797 0.0
O22 O 0.41985 0.86657 0.06823 0.0
O23 O 0.5238 0.8629 0.08413 0.0
O24 O 0.61863 0.95541 0.0204 0.0
O25 O 0.51432 0.95234 0.9937 0.0
C26 C 0.57149 0.97121 0.20931 0.0
C27 C 0.5709 0.95376 0.97767 0.0
C28 C 0.03912 0.43951 0.9229 0.0
C29 C 0.81182 0.45767 0.91991 0.0
O30 O 0.99251 0.39441 0.9167 0.0
Zn31 Zn 0.92537 0.44855 0.92047 0.0
O32 O 0.02876 0.49809 0.93028 0.0
Zn33 Zn 0.94774 0.54917 0.93764 0.0
O34 O 0.96758 0.59481 0.0231 0.0
O35 O 0.94117 0.49035 0.02057 0.0
O36 O 0.84689 0.51279 0.9314 0.0
O37 O 0.83787 0.40729 0.90928 0.0
O38 O 0.92959 0.49518 0.83534 0.0
O39 O 0.95224 0.59928 0.86855 0.0
C40 C 0.9578 0.54662 0.0526 0.0
C41 C 0.94082 0.55301 0.8229 0.0
C42 C 0.43881 0.5559 0.04379 0.0
C43 C 0.44046 0.32652 0.04404 0.0
O44 O 0.43078 0.52525 0.98667 0.0
Zn45 Zn 0.42471 0.42665 0.94267 0.0
O46 O 0.44596 0.52554 0.09164 0.0
Zn47 Zn 0.43751 0.44093 0.04382 0.0
O48 O 0.5249 0.44613 0.99982 0.0
O49 O 0.49652 0.42837 0.89474 0.0
O50 O 0.44266 0.36958 0.09178 0.0
O51 O 0.43368 0.34126 0.98694 0.0
O52 O 0.33991 0.41164 0.89486 0.0
O53 O 0.33894 0.42517 0.99968 0.0
C54 C 0.54016 0.4398 0.94274 0.0
C55 C 0.30875 0.41492 0.94248 0.0
C56 C 0.073 0.71064 0.47322 0.0
C57 C 0.0867 0.48208 0.45856 0.0
O58 O 0.12245 0.68283 0.48104 0.0
Zn59 Zn 0.0794 0.59657 0.46478 0.0
O60 O 1.01727 0.67697 0.45899 0.0
Zn61 Zn 0.97893 0.57538 0.44483 0.0
O62 O 0.92678 0.56711 0.5131 0.0
O63 O 0.03023 0.5919 0.54754 0.0
O64 O 0.02856 0.49293 0.44766 0.0
O65 O 0.13183 0.52887 0.4705 0.0
O66 O 0.04076 0.58557 0.36421 0.0
O67 O 0.93576 0.56111 0.3586 0.0
C68 C 0.97233 0.58005 0.55923 0.0
C69 C 0.98508 0.57179 0.33079 0.0
C70 C 0.73709 0.0923 0.62634 0.0
C71 C 0.50673 0.09653 0.61065 0.0
O72 O 0.70469 0.03613 0.61277 0.0
Zn73 Zn 0.607 0.99346 0.60176 0.0
O74 O 0.70815 0.14068 0.63704 0.0
Zn75 Zn 0.62131 0.09486 0.62118 0.0
O76 O 0.61244 0.04696 0.70376 0.0
O77 O 0.6036 0.94281 0.67183 0.0
O78 O 0.55122 0.144 0.62452 0.0
O79 O 0.52077 0.03917 0.60064 0.0
O80 O 0.59797 0.94888 0.51596 0.0
O81 O 0.60883 0.0546 0.52015 0.0
C82 C 0.6064 0.98916 0.71654 0.0
C83 C 0.60109 0.99832 0.48745 0.0
C84 C 0.06653 0.30025 0.42804 0.0
C85 C 0.11246 0.28532 0.47525 0.0
C86 C 0.05971 0.36426 0.42171 0.0
C87 C 0.09977 0.41547 0.46116 0.0
H88 H 0.03357 0.2623 0.39786 0.0
H89 H 1.02203 0.37374 0.38645 0.0
S90 S 0.23102 0.40157 0.58855 0.0
N91 N 0.20066 0.32656 0.55994 0.0
N92 N 0.18922 0.44685 0.54669 0.0
C93 C 0.14804 0.40109 0.5063 0.0
C94 C 0.15398 0.33598 0.51375 0.0
C95 C 0.89617 0.06222 0.57381 0.0
C96 C 0.94013 0.11164 0.61107 0.0
C97 C 0.83102 0.05593 0.58047 0.0
C98 C 0.80689 0.09979 0.62354 0.0
H99 H 0.91228 0.0279 0.53914 0.0
H100 H 0.79905 1.01716 0.55034 0.0
S101 S 0.90222 0.23793 0.73233 0.0
N102 N 0.95565 0.20471 0.69348 0.0
N103 N 0.83217 0.1942 0.70459 0.0
C104 C 0.85028 0.14957 0.66125 0.0
C105 C 0.91721 0.15507 0.6555 0.0
C106 C 0.03878 0.81217 0.44111 0.0
C107 C 0.07948 0.78149 0.48082 0.0
C108 C 0.04483 0.87942 0.44688 0.0
C109 C 0.09049 0.9182 0.4938 0.0
H110 H 1.0027 0.78402 0.40465 0.0
H111 H 1.01285 0.90118 0.41504 0.0
S112 S 0.20763 0.86136 0.61038 0.0
N113 N 0.16698 0.79488 0.56853 0.0
N114 N 0.17696 0.92114 0.58068 0.0
C115 C 0.13092 0.88809 0.53428 0.0
C116 C 0.1258 0.81974 0.5274 0.0
C117 C 0.39381 0.06676 0.55845 0.0
C118 C 0.43876 0.10652 0.60519 0.0
C119 C 0.32874 0.07392 0.55265 0.0
C120 C 0.30595 0.12 0.5945 0.0
H121 H 0.40911 0.03002 0.52575 0.0
H122 H 0.2958 0.04207 0.51601 0.0
S123 S 0.40407 0.23552 0.7256 0.0
N124 N 0.45634 0.19402 0.69375 0.0
N125 N 0.33339 0.20613 0.68423 0.0
C126 C 0.35031 0.15991 0.64171 0.0
C127 C 0.41694 0.15362 0.64663 0.0
C128 C 0.55316 0.02546 0.3827 0.0
C129 C 0.59517 0.99135 0.4168 0.0
C130 C 0.54548 1.01832 0.31539 0.0
C131 C 0.58128 0.97862 0.28015 0.0
H132 H 0.52504 0.0568 0.40818 0.0
H133 H 0.5118 0.04457 0.29076 0.0
S134 S 0.69921 0.88082 0.34716 0.0
N135 N 0.6731 0.91673 0.41076 0.0
N136 N 0.66087 0.90553 0.28433 0.0
C137 C 0.62444 0.94537 0.31382 0.0
C138 C 0.63078 0.95112 0.38219 0.0
C139 C 0.92539 0.51457 0.1549 0.0
C140 C 0.96517 0.55489 0.12347 0.0
C141 C 0.93135 0.52121 0.22207 0.0
C142 C 0.97849 0.56721 0.26015 0.0
H143 H 0.88887 0.47804 0.12738 0.0
H144 H 0.89961 0.48925 0.24433 0.0
S145 S 0.09491 0.68416 0.20137 0.0
N146 N 0.05285 0.64285 0.13544 0.0
N147 N 0.06538 0.65395 0.26174 0.0
C148 C 1.01883 0.60756 0.22937 0.0
C149 C 1.01177 0.60181 0.16099 0.0
C150 C 0.55517 1.01039 0.81495 0.0
C151 C 0.59787 0.97735 0.78232 0.0
C152 C 0.54571 1.0009 0.87757 0.0
C153 C 0.58034 0.9598 0.91065 0.0
H154 H 0.52826 0.04332 0.79158 0.0
H155 H 0.512 0.02706 0.90076 0.0
S156 S 0.69826 0.86253 0.8466 0.0
N157 N 0.67417 0.90098 0.78684 0.0
N158 N 0.65886 0.88561 0.90625 0.0
C159 C 0.62361 0.92683 0.87882 0.0
C160 C 0.63169 0.93492 0.81412 0.0
C161 C 0.91408 0.53045 0.6408 0.0
C162 C 0.95991 0.57838 0.62615 0.0
C163 C 0.90726 0.52325 0.70473 0.0
C164 C 0.94477 0.56485 0.75604 0.0
H165 H 0.88523 0.49659 0.60273 0.0
H166 H 0.8729 0.48436 0.71406 0.0
S167 S 0.06855 0.70081 0.74263 0.0
N168 N 0.04161 0.6695 0.66764 0.0
N169 N 0.0275 0.65735 0.78764 0.0
C170 C 0.98884 0.61467 0.74182 0.0
C171 C 0.99677 0.62102 0.67687 0.0
C172 C 0.14581 0.45757 0.88513 0.0
C173 C 0.10557 0.42578 0.92299 0.0
C174 C 0.21103 0.45071 0.88907 0.0
C175 C 0.23854 0.41358 0.93263 0.0
H176 H 0.12689 0.48874 0.85294 0.0
H177 H 0.24071 0.47715 0.86012 0.0
S178 S 0.15343 0.3198 0.04145 0.0
N179 N 0.09705 0.35381 1.00332 0.0
N180 N 0.22045 0.34331 1.01304 0.0
C181 C 0.19862 0.38078 0.97 0.0
C182 C 0.13182 0.3862 0.96454 0.0
C183 C 0.4164 0.22862 0.09702 0.0
C184 C 0.44986 0.26048 0.05393 0.0
C185 C 0.42433 0.16523 0.10569 0.0
C186 C 0.46778 0.13283 0.0734 0.0
H187 H 0.38298 0.25237 0.12312 0.0
H188 H 0.39689 0.14168 0.13834 0.0
S189 S 0.56808 0.19613 0.95686 0.0
N190 N 0.52775 0.25519 0.9787 0.0
N191 N 0.545 0.13747 0.99733 0.0
C192 C 0.5024 0.16478 0.03125 0.0
C193 C 0.49281 0.2283 0.02088 0.0
C194 C 0.7185 0.49824 0.96496 0.0
C195 C 0.74196 0.4531 0.92257 0.0
C196 C 0.65303 0.49357 0.97109 0.0
C197 C 0.60843 0.4448 0.93363 0.0
H198 H 0.75118 0.53657 0.9949 0.0
H199 H 0.63714 0.52858 1.00521 0.0
S200 S 0.64459 0.31527 0.81483 0.0
N201 N 0.71517 0.35785 0.84263 0.0
N202 N 0.59174 0.35063 0.85258 0.0
C203 C 0.63087 0.40008 0.89018 0.0
C204 C 0.69777 0.4038 0.88511 0.0
C205 C 0.48753 0.66403 0.101 0.0
C206 C 0.44171 0.62646 0.05348 0.0
C207 C 0.4945 0.7313 0.10779 0.0
C208 C 0.45453 0.76328 0.06866 0.0
H209 H 0.51969 0.64133 0.13171 0.0
H210 H 0.53162 0.75852 0.14382 0.0
S211 S 0.32458 0.68663 0.93961 0.0
N212 N 0.35466 0.62579 0.9678 0.0
N213 N 0.3661 0.75231 0.98226 0.0
C214 C 0.407 0.72623 0.02252 0.0
C215 C 0.40107 0.65775 1.01443 0.0
loop_
_geom_bond_atom_site_label_1
_geom_bond_atom_site_label_2
_geom_bond_distance
_geom_bond_site_symmetry_2
_ccdc_geom_bond_type
C0 O2 1.247 1_455 S
C0 O4 1.258 . S
C1 O8 1.247 1_655 S
C1 O9 1.258 . S
O2 C0 1.247 1_655 S
O2 Zn3 2.028 1_545 S
Zn3 O2 2.028 1_565 S
Zn3 O7 2.035 1_655 S
Zn3 O9 2.035 . S
Zn3 O10 2.028 . S
O4 C0 1.258 . S
O4 Zn5 2.035 . S
Zn5 O4 2.035 . S
Zn5 O6 2.028 . S
Zn5 O8 2.028 1_545 S
Zn5 O11 2.035 1_455 S
O6 Zn5 2.028 . S
O6 C12 1.247 . S
O7 Zn3 2.035 1_455 S
O7 C12 1.258 1_565 S
O8 C1 1.247 1_455 S
O8 Zn5 2.028 1_565 S
O9 C1 1.258 . S
O9 Zn3 2.035 . S
O10 Zn3 2.028 . S
O10 C13 1.247 . S
O11 Zn5 2.035 1_655 S
O11 C13 1.258 1_545 S
C12 O6 1.247 . S
C12 O7 1.258 1_545 S
C13 O10 1.247 . S
C13 O11 1.258 1_565 S
C14 O16 1.247 . S
C14 O18 1.258 1_554 S
C15 O22 1.247 . S
C15 O23 1.258 1_556 S
O16 C14 1.247 . S
O16 Zn17 2.028 . S
Zn17 O16 2.028 . S
Zn17 O21 2.035 . S
Zn17 O23 2.035 1_545 S
Zn17 O24 2.028 1_554 S
O18 C14 1.258 1_556 S
O18 Zn19 2.035 1_545 S
Zn19 O18 2.035 1_565 S
Zn19 O20 2.028 1_556 S
Zn19 O22 2.028 . S
Zn19 O25 2.035 . S
O20 Zn19 2.028 1_554 S
O20 C26 1.247 1_565 S
O21 Zn17 2.035 . S
O21 C26 1.258 . S
O22 C15 1.247 . S
O22 Zn19 2.028 . S
O23 C15 1.258 1_554 S
O23 Zn17 2.035 1_565 S
O24 Zn17 2.028 1_556 S
O24 C27 1.247 1_545 S
O25 Zn19 2.035 . S
O25 C27 1.258 . S
C26 O20 1.247 1_545 S
C26 O21 1.258 . S
C27 O24 1.247 1_565 S
C27 O25 1.258 . S
C28 O30 1.247 1_554 S
C28 O32 1.258 . S
C29 O36 1.247 1_556 S
C29 O37 1.258 . S
O30 C28 1.247 1_556 S
O30 Zn31 2.028 1_455 S
Zn31 O30 2.028 1_655 S
Zn31 O35 2.035 1_556 S
Zn31 O37 2.035 . S
Zn31 O38 2.028 . S
O32 C28 1.258 . S
O32 Zn33 2.035 . S
Zn33 O32 2.035 . S
Zn33 O34 2.028 . S
Zn33 O36 2.028 1_455 S
Zn33 O39 2.035 1_554 S
O34 Zn33 2.028 . S
O34 C40 1.247 . S
O35 Zn31 2.035 1_554 S
O35 C40 1.258 1_655 S
O36 C29 1.247 1_554 S
O36 Zn33 2.028 1_655 S
O37 C29 1.258 . S
O37 Zn31 2.035 . S
O38 Zn31 2.028 . S
O38 C41 1.247 . S
O39 Zn33 2.035 1_556 S
O39 C41 1.258 1_455 S
C40 O34 1.247 . S
C40 O35 1.258 1_455 S
C41 O38 1.247 . S
C41 O39 1.258 1_655 S
C42 O44 1.247 . S
C42 O46 1.258 1_556 S
C43 O50 1.251 . S
C43 O51 1.254 1_554 S
O44 C42 1.247 . S
O44 Zn45 2.028 . S
Zn45 O44 2.028 . S
Zn45 O49 2.035 . S
Zn45 O51 2.035 . S
Zn45 O52 2.028 . S
O46 C42 1.258 1_554 S
O46 Zn47 2.035 . S
Zn47 O46 2.035 . S
Zn47 O48 2.028 . S
Zn47 O50 2.028 . S
Zn47 O53 2.035 . S
O48 Zn47 2.028 . S
O48 C54 1.251 . S
O49 Zn45 2.035 . S
O49 C54 1.254 1_556 S
O50 C43 1.251 . S
O50 Zn47 2.028 . S
O51 C43 1.254 1_556 S
O51 Zn45 2.035 . S
O52 Zn45 2.028 . S
O52 C55 1.247 . S
O53 Zn47 2.035 . S
O53 C55 1.258 1_554 S
C54 O48 1.251 . S
C54 O49 1.254 1_554 S
C55 O52 1.247 . S
C55 O53 1.258 1_556 S
C56 O58 1.251 . S
C56 O60 1.254 1_455 S
C57 O64 1.247 . S
C57 O65 1.258 1_655 S
O58 C56 1.251 . S
O58 Zn59 2.028 . S
Zn59 O58 2.028 . S
Zn59 O63 2.035 . S
Zn59 O65 2.035 . S
Zn59 O66 2.028 . S
O60 C56 1.254 1_655 S
O60 Zn61 2.035 . S
Zn61 O60 2.035 . S
Zn61 O62 2.028 . S
Zn61 O64 2.028 . S
Zn61 O67 2.035 . S
O62 Zn61 2.028 . S
O62 C68 1.247 . S
O63 Zn59 2.035 . S
O63 C68 1.258 1_455 S
O64 C57 1.247 . S
O64 Zn61 2.028 . S
O65 C57 1.258 1_455 S
O65 Zn59 2.035 . S
O66 Zn59 2.028 . S
O66 C69 1.251 . S
O67 Zn61 2.035 . S
O67 C69 1.254 1_655 S
C68 O62 1.247 . S
C68 O63 1.258 1_655 S
C69 O66 1.251 . S
C69 O67 1.254 1_455 S
C70 O72 1.247 . S
C70 O74 1.258 1_565 S
C71 O78 1.251 . S
C71 O79 1.254 1_545 S
O72 C70 1.247 . S
O72 Zn73 2.028 . S
Zn73 O72 2.028 . S
Zn73 O77 2.035 . S
Zn73 O79 2.035 . S
Zn73 O80 2.028 . S
O74 C70 1.258 1_545 S
O74 Zn75 2.035 . S
Zn75 O74 2.035 . S
Zn75 O76 2.028 . S
Zn75 O78 2.028 . S
Zn75 O81 2.035 . S
O76 Zn75 2.028 . S
O76 C82 1.251 . S
O77 Zn73 2.035 . S
O77 C82 1.254 1_565 S
O78 C71 1.251 . S
O78 Zn75 2.028 . S
O79 C71 1.254 1_565 S
O79 Zn73 2.035 . S
O80 Zn73 2.028 . S
O80 C83 1.247 . S
O81 Zn75 2.035 . S
O81 C83 1.258 1_545 S
C82 O76 1.251 . S
C82 O77 1.254 1_545 S
C83 O80 1.247 . S
C83 O81 1.258 1_565 S
C84 C85 1.363 1_655 S
C84 C86 1.419 . S
C84 H88 0.930 . S
C85 C84 1.363 1_455 S
C85 C94 1.433 . S
C86 C84 1.419 . S
C86 C87 1.359 1_655 S
C86 H89 0.929 . S
C87 C86 1.359 1_455 S
C87 C93 1.434 . S
H88 C84 0.930 . S
H89 C86 0.929 . S
S90 N91 1.613 . S
S90 N92 1.610 . S
N91 S90 1.613 . S
N91 C94 1.350 . S
N92 S90 1.610 . S
N92 C93 1.351 . S
C93 C87 1.434 . S
C93 N92 1.351 . S
C93 C94 1.434 . S
C94 C85 1.433 . S
C94 N91 1.350 . S
C94 C93 1.434 . S
C95 C96 1.369 1_565 S
C95 C97 1.419 . S
C95 H99 0.930 . S
C96 C95 1.369 1_545 S
C96 C105 1.429 . S
C97 C95 1.419 . S
C97 C98 1.362 1_565 S
C97 H100 0.929 . S
C98 C97 1.362 1_545 S
C98 C104 1.429 . S
H99 C95 0.930 . S
H100 C97 0.929 . S
S101 N102 1.613 . S
S101 N103 1.610 . S
N102 S101 1.613 . S
N102 C105 1.350 . S
N103 S101 1.610 . S
N103 C104 1.351 . S
C104 C98 1.429 . S
C104 N103 1.351 . S
C104 C105 1.434 . S
C105 C96 1.429 . S
C105 N102 1.350 . S
C105 C104 1.434 . S
C106 C107 1.364 1_655 S
C106 C108 1.419 . S
C106 H110 0.930 . S
C107 C106 1.364 1_455 S
C107 C116 1.433 . S
C108 C106 1.419 . S
C108 C109 1.359 1_655 S
C108 H111 0.929 . S
C109 C108 1.359 1_455 S
C109 C115 1.433 . S
H110 C106 0.930 . S
H111 C108 0.929 . S
S112 N113 1.613 . S
S112 N114 1.610 . S
N113 S112 1.613 . S
N113 C116 1.350 . S
N114 S112 1.610 . S
N114 C115 1.351 . S
C115 C109 1.433 . S
C115 N114 1.351 . S
C115 C116 1.434 . S
C116 C107 1.433 . S
C116 N113 1.350 . S
C116 C115 1.434 . S
C117 C118 1.366 1_565 S
C117 C119 1.419 . S
C117 H121 0.930 . S
C118 C117 1.366 1_545 S
C118 C127 1.433 . S
C119 C117 1.419 . S
C119 C120 1.359 1_565 S
C119 H122 0.929 . S
C120 C119 1.359 1_545 S
C120 C126 1.432 . S
H121 C117 0.930 . S
H122 C119 0.929 . S
S123 N124 1.613 . S
S123 N125 1.610 . S
N124 S123 1.613 . S
N124 C127 1.350 . S
N125 S123 1.610 . S
N125 C126 1.351 . S
C126 C120 1.432 . S
C126 N125 1.351 . S
C126 C127 1.434 . S
C127 C118 1.433 . S
C127 N124 1.350 . S
C127 C126 1.434 . S
C128 C129 1.369 . S
C128 C130 1.419 . S
C128 H132 0.930 . S
C129 C128 1.369 . S
C129 C138 1.428 1_545 S
C130 C128 1.419 . S
C130 C131 1.363 . S
C130 H133 0.929 . S
C131 C130 1.363 . S
C131 C137 1.429 1_545 S
H132 C128 0.930 . S
H133 C130 0.929 . S
S134 N135 1.613 . S
S134 N136 1.610 . S
N135 S134 1.613 . S
N135 C138 1.350 . S
N136 S134 1.610 . S
N136 C137 1.351 . S
C137 C131 1.429 1_565 S
C137 N136 1.351 . S
C137 C138 1.434 . S
C138 C129 1.428 1_565 S
C138 N135 1.350 . S
C138 C137 1.434 . S
C139 C140 1.368 1_655 S
C139 C141 1.419 . S
C139 H143 0.930 . S
C140 C139 1.368 1_455 S
C140 C149 1.429 . S
C141 C139 1.419 . S
C141 C142 1.363 1_655 S
C141 H144 0.929 . S
C142 C141 1.363 1_455 S
C142 C148 1.429 . S
H143 C139 0.930 . S
H144 C141 0.929 . S
S145 N146 1.613 . S
S145 N147 1.610 . S
N146 S145 1.613 . S
N146 C149 1.350 . S
N147 S145 1.610 . S
N147 C148 1.351 . S
C148 C142 1.429 . S
C148 N147 1.351 . S
C148 C149 1.434 . S
C149 C140 1.429 . S
C149 N146 1.350 . S
C149 C148 1.434 . S
C150 C151 1.360 1_545 S
C150 C152 1.419 . S
C150 H154 0.930 . S
C151 C150 1.360 1_565 S
C151 C160 1.440 . S
C152 C150 1.419 . S
C152 C153 1.356 1_545 S
C152 H155 0.929 . S
C153 C152 1.356 1_565 S
C153 C159 1.435 . S
H154 C150 0.930 . S
H155 C152 0.929 . S
S156 N157 1.613 . S
S156 N158 1.610 . S
N157 S156 1.613 . S
N157 C160 1.350 . S
N158 S156 1.610 . S
N158 C159 1.351 . S
C159 C153 1.435 . S
C159 N158 1.351 . S
C159 C160 1.434 . S
C160 C151 1.440 . S
C160 N157 1.350 . S
C160 C159 1.434 . S
C161 C162 1.369 1_655 S
C161 C163 1.419 . S
C161 H165 0.930 . S
C162 C161 1.369 1_455 S
C162 C171 1.427 . S
C163 C161 1.419 . S
C163 C164 1.364 1_655 S
C163 H166 0.929 . S
C164 C163 1.364 1_455 S
C164 C170 1.428 . S
H165 C161 0.930 . S
H166 C163 0.929 . S
S167 N168 1.613 . S
S167 N169 1.610 . S
N168 S167 1.613 . S
N168 C171 1.350 . S
N169 S167 1.610 . S
N169 C170 1.351 . S
C170 C164 1.428 . S
C170 N169 1.351 . S
C170 C171 1.434 . S
C171 C162 1.427 . S
C171 N168 1.350 . S
C171 C170 1.434 . S
C172 C173 1.366 1_556 S
C172 C174 1.419 . S
C172 H176 0.930 . S
C173 C172 1.366 1_554 S
C173 C182 1.430 . S
C174 C172 1.419 . S
C174 C175 1.362 1_556 S
C174 H177 0.929 . S
C175 C174 1.362 1_554 S
C175 C181 1.430 . S
H176 C172 0.930 . S
H177 C174 0.929 . S
S178 N179 1.613 . S
S178 N180 1.610 . S
N179 S178 1.613 . S
N179 C182 1.350 . S
N180 S178 1.610 . S
N180 C181 1.351 . S
C181 C175 1.430 . S
C181 N180 1.351 . S
C181 C182 1.434 . S
C182 C173 1.430 . S
C182 N179 1.350 . S
C182 C181 1.434 . S
C183 C184 1.365 1_554 S
C183 C185 1.419 . S
C183 H187 0.930 . S
C184 C183 1.365 1_556 S
C184 C193 1.431 . S
C185 C183 1.419 . S
C185 C186 1.362 1_554 S
C185 H188 0.929 . S
C186 C185 1.362 1_556 S
C186 C192 1.430 . S
H187 C183 0.930 . S
H188 C185 0.929 . S
S189 N190 1.613 . S
S189 N191 1.610 . S
N190 S189 1.613 . S
N190 C193 1.350 . S
N191 S189 1.610 . S
N191 C192 1.351 . S
C192 C186 1.430 . S
C192 N191 1.351 . S
C192 C193 1.434 . S
C193 C184 1.431 . S
C193 N190 1.350 . S
C193 C192 1.434 . S
C194 C195 1.365 1_554 S
C194 C196 1.419 . S
C194 H198 0.930 . S
C195 C194 1.365 1_556 S
C195 C204 1.431 . S
C196 C194 1.419 . S
C196 C197 1.362 1_554 S
C196 H199 0.929 . S
C197 C196 1.362 1_556 S
C197 C203 1.431 . S
H198 C194 0.930 . S
H199 C196 0.929 . S
S200 N201 1.613 . S
S200 N202 1.610 . S
N201 S200 1.613 . S
N201 C204 1.350 . S
N202 S200 1.610 . S
N202 C203 1.351 . S
C203 C197 1.431 . S
C203 N202 1.351 . S
C203 C204 1.434 . S
C204 C195 1.431 . S
C204 N201 1.350 . S
C204 C203 1.434 . S
C205 C206 1.370 1_554 S
C205 C207 1.419 . S
C205 H209 0.930 . S
C206 C205 1.370 1_556 S
C206 C215 1.429 . S
C207 C205 1.419 . S
C207 C208 1.363 1_554 S
C207 H210 0.929 . S
C208 C207 1.363 1_556 S
C208 C214 1.428 . S
H209 C205 0.930 . S
H210 C207 0.929 . S
S211 N212 1.613 . S
S211 N213 1.610 . S
N212 S211 1.613 . S
N212 C215 1.350 . S
N213 S211 1.610 . S
N213 C214 1.351 . S
C214 C208 1.428 . S
C214 N213 1.351 . S
C214 C215 1.434 . S
C215 C206 1.429 . S
C215 N212 1.350 . S
C215 C214 1.434 . S
C85 C0 1.500 . S
C87 C57 1.496 1_455 S
C96 C13 1.498 1_545 S
C98 C70 1.500 1_545 S
C107 C56 1.498 . S
C109 C1 1.499 1_455 S
C118 C71 1.499 . S
C120 C12 1.497 . S
C129 C83 1.499 1_545 S
C131 C26 1.496 . S
C140 C40 1.500 . S
C142 C69 1.496 . S
C151 C82 1.496 1_565 S
C153 C27 1.502 . S
C162 C68 1.499 1_455 S
C164 C41 1.500 1_455 S
C173 C28 1.499 . S
C175 C55 1.495 1_554 S
C184 C43 1.500 1_556 S
C186 C14 1.496 1_556 S
C195 C29 1.500 . S
C197 C54 1.500 1_556 S
C206 C42 1.498 . S
C208 C15 1.501 . S
