# Generated by pormake.
# Topology sxa, (6)-cn, num edge types: 1
# Building blocks:
#     Node 0, Type 0, BuildingBlock: MIDCAF_clean_sbu_0, # of connection points: 6
#     Node 1, Type 0, BuildingBlock: MIDCAF_clean_sbu_0, # of connection points: 6
#     Node 2, Type 0, BuildingBlock: MIDCAF_clean_sbu_0, # of connection points: 6
#     Node 3, Type 0, BuildingBlock: MIDCAF_clean_sbu_0, # of connection points: 6
#     Edge 4, Type (0, 0), None
#     Edge 5, Type (0, 0), None
#     Edge 6, Type (0, 0), None
#     Edge 7, Type (0, 0), None
#     Edge 8, Type (0, 0), None
#     Edge 9, Type (0, 0), None
#     Edge 10, Type (0, 0), None
#     Edge 11, Type (0, 0), None
#     Edge 12, Type (0, 0), None
#     Edge 13, Type (0, 0), None
#     Edge 14, Type (0, 0), None
#     Edge 15, Type (0, 0), None
# Relax obj value: 0.192
# Max RMSD: 0.179
# Mean RMSD: 0.179
data_MOF--net-sxa--node1-MIDCAF_clean_sbu_0--edge1-none
_symmetry_space_group_name_H-M    P1
_symmetry_Int_Tables_number       1
_symmetry_cell_setting            triclinic
loop_
_symmetry_equiv_pos_as_xyz
'x, y, z'
_cell_length_a     10.483352
_cell_length_b     13.535906
_cell_length_c     8.7346714
_cell_angle_alpha  89.053699
_cell_angle_beta   89.787756
_cell_angle_gamma 88.783417
loop_
_atom_site_label
_atom_site_type_symbol
_atom_site_fract_x
_atom_site_fract_y
_atom_site_fract_z
_atom_type_partial_charge
Zn0 Zn 0.81833 0.96635 0.15006 0.0
Zn1 Zn 0.01319 0.59374 0.32217 0.0
Zn2 Zn 0.95642 0.73654 0.22962 0.0
C3 C 0.16322 0.69099 0.0651 0.0
C4 C 0.88943 0.50608 0.1236 0.0
O5 O 0.79925 0.77857 0.3951 0.0
O6 O 0.68962 0.90659 0.29638 0.0
C7 C 0.06551 0.96513 0.1387 0.0
O8 O 0.12402 0.7736 0.12054 0.0
O9 O 0.13248 0.61077 0.13059 0.0
O10 O 0.92006 0.47305 0.2555 0.0
O11 O 0.89394 0.60021 0.09546 0.0
O12 O -0.00902 1.00027 0.23914 0.0
O13 O 0.0713 0.86983 0.12509 0.0
O14 O 0.86352 0.68736 0.01775 0.0
O15 O 0.84762 0.8385 0.07398 0.0
C16 C 0.82148 0.77359 0.98207 0.0
O17 O 0.14513 0.74018 0.36119 0.0
O18 O 0.11292 0.61344 0.51548 0.0
C19 C 0.69959 0.83633 0.39269 0.0
C20 C 0.17965 0.68702 0.47769 0.0
Zn21 Zn 0.62272 0.04853 0.16894 0.0
Zn22 Zn 0.35305 0.50967 0.21378 0.0
Zn23 Zn 0.49453 0.28112 0.22493 0.0
C24 C 0.33278 0.3249 0.98556 0.0
C25 C 0.58892 0.51076 0.13847 0.0
O26 O 0.65728 0.23415 0.38778 0.0
O27 O 0.74818 0.0908 0.32433 0.0
C28 C 0.39197 0.05701 0.12743 0.0
O29 O 0.38494 0.24231 0.02708 0.0
O30 O 0.34093 0.39631 0.0743 0.0
O31 O 0.53563 0.545 0.25723 0.0
O32 O 0.57998 0.41745 0.11316 0.0
O33 O 0.44443 0.023 0.24751 0.0
O34 O 0.397 0.15123 0.10152 0.0
O35 O 0.61672 0.33291 0.03265 0.0
O36 O 0.62564 0.17943 0.08852 0.0
C37 C 0.66068 0.24676 0.00164 0.0
O38 O 0.32412 0.30695 0.37294 0.0
O39 O 0.23281 0.45654 0.36999 0.0
C40 C 0.74665 0.16756 0.40444 0.0
C41 C 0.23435 0.36682 0.41459 0.0
Zn42 Zn 0.96143 0.08787 0.75904 0.0
Zn43 Zn -0.00212 0.40069 0.74609 0.0
Zn44 Zn 0.00461 0.23892 0.81954 0.0
C45 C 0.23597 0.33426 0.86854 0.0
C46 C 0.88874 0.43955 0.99111 0.0
O47 O 0.85884 0.23678 0.62282 0.0
O48 O 0.91643 0.0907 0.53942 0.0
C49 C 0.07291 0.02612 0.99519 0.0
O50 O 0.20224 0.26063 0.79101 0.0
O51 O 0.16202 0.40905 0.87175 0.0
O52 O 0.8641 0.47734 0.86003 0.0
O53 O 0.94573 0.35402 -0.00107 0.0
O54 O 0.07303 0.98376 0.86683 0.0
O55 O 0.04297 0.11877 0.99859 0.0
O56 O 0.81444 0.28762 0.81061 0.0
O57 O 0.80756 0.13507 0.89697 0.0
C58 C 0.76035 0.22248 0.89294 0.0
O59 O 0.14325 0.26907 0.62186 0.0
O60 O 0.03264 0.39499 0.52394 0.0
C61 C 0.84735 0.16829 0.52431 0.0
C62 C 0.12825 0.3362 0.51631 0.0
Zn63 Zn 0.50906 0.92827 0.7509 0.0
Zn64 Zn 0.46007 0.61866 0.76182 0.0
Zn65 Zn 0.47148 0.78074 0.83765 0.0
C66 C 0.25309 0.68581 0.93973 0.0
C67 C 0.58734 0.57532 -0.00066 0.0
O68 O 0.59821 0.77477 0.62527 0.0
O69 O 0.53272 0.91644 0.52634 0.0
C70 C 0.40145 0.99206 0.99156 0.0
O71 O 0.27619 0.76031 0.85468 0.0
O72 O 0.31802 0.6076 0.92168 0.0
O73 O 0.59654 0.53574 0.86804 0.0
O74 O 0.541 0.66406 0.00823 0.0
O75 O 0.39345 0.02905 0.85775 0.0
O76 O 0.44293 0.90246 0.00664 0.0
O77 O 0.65913 0.72884 0.81002 0.0
O78 O 0.67362 0.88407 0.87393 0.0
C79 C 0.7207 0.79649 0.87455 0.0
O80 O 0.31043 0.7603 0.66941 0.0
O81 O 0.38634 0.63038 0.54761 0.0
C82 C 0.60192 0.83881 0.51611 0.0
C83 C 0.30294 0.69971 0.55748 0.0
loop_
_geom_bond_atom_site_label_1
_geom_bond_atom_site_label_2
_geom_bond_distance
_geom_bond_site_symmetry_2
_ccdc_geom_bond_type
Zn0 O6 1.920 . S
Zn0 O12 1.898 . S
Zn0 O15 1.905 . S
Zn1 O9 1.905 . S
Zn1 O10 1.898 . S
Zn1 O18 1.920 . S
Zn2 O5 2.080 1_455 S
Zn2 O8 2.114 1_554 S
Zn2 O11 2.120 1_455 S
Zn2 O13 2.120 . S
Zn2 O14 2.114 1_454 S
Zn2 O17 2.080 . S
C3 O8 1.166 . S
C3 O9 1.182 1_556 S
C4 O10 1.167 . S
C4 O11 1.299 1_455 S
O5 Zn2 2.080 1_655 S
O5 C19 1.305 . S
O6 Zn0 1.920 . S
O6 C19 1.234 . S
C7 O12 1.167 . S
C7 O13 1.299 1_655 S
O8 Zn2 2.114 1_556 S
O8 C3 1.166 . S
O9 Zn1 1.905 . S
O9 C3 1.182 1_554 S
O10 Zn1 1.898 . S
O10 C4 1.167 . S
O11 Zn2 2.120 1_655 S
O11 C4 1.299 1_655 S
O12 Zn0 1.898 . S
O12 C7 1.167 . S
O13 Zn2 2.120 . S
O13 C7 1.299 1_455 S
O14 Zn2 2.114 1_656 S
O14 C16 1.166 . S
O15 Zn0 1.905 . S
O15 C16 1.182 1_554 S
C16 O14 1.166 . S
C16 O15 1.182 1_556 S
O17 Zn2 2.080 . S
O17 C20 1.305 . S
O18 Zn1 1.920 . S
O18 C20 1.234 . S
C19 O5 1.305 . S
C19 O6 1.234 . S
C20 O17 1.305 . S
C20 O18 1.234 . S
Zn21 O27 1.920 . S
Zn21 O33 1.898 . S
Zn21 O36 1.905 . S
Zn22 O30 1.905 . S
Zn22 O31 1.898 . S
Zn22 O39 1.920 . S
Zn23 O26 2.080 . S
Zn23 O29 2.114 1_554 S
Zn23 O32 2.120 . S
Zn23 O34 2.120 . S
Zn23 O35 2.114 1_554 S
Zn23 O38 2.080 . S
C24 O29 1.166 . S
C24 O30 1.182 1_556 S
C25 O31 1.167 . S
C25 O32 1.299 . S
O26 Zn23 2.080 . S
O26 C40 1.305 . S
O27 Zn21 1.920 . S
O27 C40 1.234 . S
C28 O33 1.167 . S
C28 O34 1.299 . S
O29 Zn23 2.114 1_556 S
O29 C24 1.166 . S
O30 Zn22 1.905 . S
O30 C24 1.182 1_554 S
O31 Zn22 1.898 . S
O31 C25 1.167 . S
O32 Zn23 2.120 . S
O32 C25 1.299 . S
O33 Zn21 1.898 . S
O33 C28 1.167 . S
O34 Zn23 2.120 . S
O34 C28 1.299 . S
O35 Zn23 2.114 1_556 S
O35 C37 1.166 . S
O36 Zn21 1.905 . S
O36 C37 1.182 1_554 S
C37 O35 1.166 . S
C37 O36 1.182 1_556 S
O38 Zn23 2.080 . S
O38 C41 1.305 . S
O39 Zn22 1.920 . S
O39 C41 1.234 . S
C40 O26 1.305 . S
C40 O27 1.234 . S
C41 O38 1.305 . S
C41 O39 1.234 . S
Zn42 O48 1.920 . S
Zn42 O54 1.898 . S
Zn42 O57 1.905 . S
Zn43 O51 1.905 . S
Zn43 O52 1.898 . S
Zn43 O60 1.920 . S
Zn44 O47 2.080 1_455 S
Zn44 O50 2.114 1_556 S
Zn44 O53 2.120 1_455 S
Zn44 O55 2.120 . S
Zn44 O56 2.114 1_456 S
Zn44 O59 2.080 . S
C45 O50 1.166 . S
C45 O51 1.182 1_554 S
C46 O52 1.167 . S
C46 O53 1.299 1_455 S
O47 Zn44 2.080 1_655 S
O47 C61 1.305 . S
O48 Zn42 1.920 . S
O48 C61 1.234 . S
C49 O54 1.167 . S
C49 O55 1.299 1_655 S
O50 Zn44 2.114 1_554 S
O50 C45 1.166 . S
O51 Zn43 1.905 . S
O51 C45 1.182 1_556 S
O52 Zn43 1.898 . S
O52 C46 1.167 . S
O53 Zn44 2.120 1_655 S
O53 C46 1.299 1_655 S
O54 Zn42 1.898 . S
O54 C49 1.167 . S
O55 Zn44 2.120 . S
O55 C49 1.299 1_455 S
O56 Zn44 2.114 1_654 S
O56 C58 1.166 . S
O57 Zn42 1.905 . S
O57 C58 1.182 1_556 S
C58 O56 1.166 . S
C58 O57 1.182 1_554 S
O59 Zn44 2.080 . S
O59 C62 1.305 . S
O60 Zn43 1.920 . S
O60 C62 1.234 . S
C61 O47 1.305 . S
C61 O48 1.234 . S
C62 O59 1.305 . S
C62 O60 1.234 . S
Zn63 O69 1.920 . S
Zn63 O75 1.898 . S
Zn63 O78 1.905 . S
Zn64 O72 1.905 . S
Zn64 O73 1.898 . S
Zn64 O81 1.920 . S
Zn65 O68 2.080 . S
Zn65 O71 2.114 1_556 S
Zn65 O74 2.120 . S
Zn65 O76 2.120 . S
Zn65 O77 2.114 1_556 S
Zn65 O80 2.080 . S
C66 O71 1.166 . S
C66 O72 1.182 1_554 S
C67 O73 1.167 . S
C67 O74 1.299 . S
O68 Zn65 2.080 . S
O68 C82 1.305 . S
O69 Zn63 1.920 . S
O69 C82 1.234 . S
C70 O75 1.167 . S
C70 O76 1.299 . S
O71 Zn65 2.114 1_554 S
O71 C66 1.166 . S
O72 Zn64 1.905 . S
O72 C66 1.182 1_556 S
O73 Zn64 1.898 . S
O73 C67 1.167 . S
O74 Zn65 2.120 . S
O74 C67 1.299 . S
O75 Zn63 1.898 . S
O75 C70 1.167 . S
O76 Zn65 2.120 . S
O76 C70 1.299 . S
O77 Zn65 2.114 1_554 S
O77 C79 1.166 . S
O78 Zn63 1.905 . S
O78 C79 1.182 1_556 S
C79 O77 1.166 . S
C79 O78 1.182 1_554 S
O80 Zn65 2.080 . S
O80 C83 1.305 . S
O81 Zn64 1.920 . S
O81 C83 1.234 . S
C82 O68 1.305 . S
C82 O69 1.234 . S
C83 O80 1.305 . S
C83 O81 1.234 . S
C46 C4 2.112 1_556 S
C25 C67 2.112 1_554 S
C70 C28 2.112 1_566 S
C7 C49 2.112 1_564 S
C83 C20 1.394 . S
C62 C41 1.394 . S
C61 C40 1.395 . S
C19 C82 1.395 . S
C66 C3 0.280 1_554 S
C45 C24 0.280 1_554 S
C37 C58 0.279 1_556 S
C16 C79 0.279 1_556 S
