# Generated by pormake.
# Topology upa, (4)-cn, num edge types: 1
# Building blocks:
#     Node 0, Type 0, BuildingBlock: CEKHIL_clean_sbu_0, # of connection points: 4
#     Node 1, Type 0, BuildingBlock: CEKHIL_clean_sbu_0, # of connection points: 4
#     Node 2, Type 0, BuildingBlock: CEKHIL_clean_sbu_0, # of connection points: 4
#     Node 3, Type 0, BuildingBlock: CEKHIL_clean_sbu_0, # of connection points: 4
#     Node 4, Type 0, BuildingBlock: CEKHIL_clean_sbu_0, # of connection points: 4
#     Node 5, Type 0, BuildingBlock: CEKHIL_clean_sbu_0, # of connection points: 4
#     Node 6, Type 0, BuildingBlock: CEKHIL_clean_sbu_0, # of connection points: 4
#     Node 7, Type 0, BuildingBlock: CEKHIL_clean_sbu_0, # of connection points: 4
#     Edge 8, Type (0, 0), BuildingBlock: EYOCIG_clean_linker_4, # of connection points: 2
#     Edge 9, Type (0, 0), BuildingBlock: EYOCIG_clean_linker_4, # of connection points: 2
#     Edge 10, Type (0, 0), BuildingBlock: EYOCIG_clean_linker_4, # of connection points: 2
#     Edge 11, Type (0, 0), BuildingBlock: EYOCIG_clean_linker_4, # of connection points: 2
#     Edge 12, Type (0, 0), BuildingBlock: EYOCIG_clean_linker_4, # of connection points: 2
#     Edge 13, Type (0, 0), BuildingBlock: EYOCIG_clean_linker_4, # of connection points: 2
#     Edge 14, Type (0, 0), BuildingBlock: EYOCIG_clean_linker_4, # of connection points: 2
#     Edge 15, Type (0, 0), BuildingBlock: EYOCIG_clean_linker_4, # of connection points: 2
#     Edge 16, Type (0, 0), BuildingBlock: EYOCIG_clean_linker_4, # of connection points: 2
#     Edge 17, Type (0, 0), BuildingBlock: EYOCIG_clean_linker_4, # of connection points: 2
#     Edge 18, Type (0, 0), BuildingBlock: EYOCIG_clean_linker_4, # of connection points: 2
#     Edge 19, Type (0, 0), BuildingBlock: EYOCIG_clean_linker_4, # of connection points: 2
#     Edge 20, Type (0, 0), BuildingBlock: EYOCIG_clean_linker_4, # of connection points: 2
#     Edge 21, Type (0, 0), BuildingBlock: EYOCIG_clean_linker_4, # of connection points: 2
#     Edge 22, Type (0, 0), BuildingBlock: EYOCIG_clean_linker_4, # of connection points: 2
#     Edge 23, Type (0, 0), BuildingBlock: EYOCIG_clean_linker_4, # of connection points: 2
# Relax obj value: 0.237
# Max RMSD: 0.138
# Mean RMSD: 0.138
data_MOF--net-upa--node1-CEKHIL_clean_sbu_0--edge1-EYOCIG_clean_linker_4
_symmetry_space_group_name_H-M    P1
_symmetry_Int_Tables_number       1
_symmetry_cell_setting            triclinic
loop_
_symmetry_equiv_pos_as_xyz
'x, y, z'
_cell_length_a     20.306512
_cell_length_b     20.309139
_cell_length_c     33.364063
_cell_angle_alpha  89.997214
_cell_angle_beta   89.994378
_cell_angle_gamma 89.978707
loop_
_atom_site_label
_atom_site_type_symbol
_atom_site_fract_x
_atom_site_fract_y
_atom_site_fract_z
_atom_type_partial_charge
Co0 Co 0.1728 0.24342 0.33871 0.0
O1 O 0.23893 0.30303 0.31694 0.0
O2 O 0.25206 0.19567 0.32517 0.0
C3 C 0.08282 0.27501 0.30334 0.0
O4 O 0.11857 0.16622 0.35728 0.0
Co5 Co 0.05171 0.29388 0.38811 0.0
O6 O 0.02035 0.20278 0.37979 0.0
C7 C 0.17827 0.27064 0.42912 0.0
C8 C 0.27621 0.25127 0.31305 0.0
C9 C 0.05948 0.157 0.36945 0.0
O10 O 0.20618 0.25579 0.39562 0.0
O11 O 0.11823 0.28869 0.43232 0.0
O12 O 0.12768 0.23829 0.287 0.0
O13 O 0.09869 0.30045 0.33762 0.0
Co14 Co 0.26556 0.67224 0.83892 0.0
O15 O 0.20676 0.73857 0.81653 0.0
O16 O 0.3138 0.7516 0.8261 0.0
C17 C 0.23491 0.5826 0.80292 0.0
O18 O 0.34196 0.61764 0.85853 0.0
Co19 Co 0.21255 0.55113 0.88735 0.0
O20 O 0.30434 0.52017 0.8816 0.0
C21 C 0.23566 0.67717 0.92899 0.0
C22 C 0.25859 0.77587 0.81336 0.0
C23 C 0.35061 0.55903 0.87172 0.0
O24 O 0.25135 0.70533 0.89572 0.0
O25 O 0.21722 0.61721 0.93182 0.0
O26 O 0.27243 0.62734 0.78719 0.0
O27 O 0.20834 0.59838 0.83689 0.0
Co28 Co 0.83455 0.76524 0.33844 0.0
O29 O 0.76836 0.70543 0.31686 0.0
O30 O 0.75507 0.81275 0.32508 0.0
C31 C 0.92436 0.73369 0.3028 0.0
O32 O 0.8886 0.8427 0.35679 0.0
Co33 Co 0.95634 0.71542 0.38743 0.0
O34 O 0.98714 0.8067 0.37908 0.0
C35 C 0.83009 0.73836 0.42892 0.0
C36 C 0.73096 0.75712 0.31301 0.0
C37 C 0.94768 0.85227 0.36885 0.0
O38 O 0.8017 0.75286 0.3955 0.0
O39 O 0.89027 0.72065 0.43189 0.0
O40 O 0.87932 0.77034 0.28658 0.0
O41 O 0.90883 0.7084 0.33717 0.0
Co42 Co 0.74145 0.3359 0.83919 0.0
O43 O 0.80044 0.26971 0.81679 0.0
O44 O 0.69342 0.25646 0.82634 0.0
C45 C 0.77201 0.42569 0.80324 0.0
O46 O 0.66479 0.39011 0.85876 0.0
Co47 Co 0.79365 0.45728 0.88768 0.0
O48 O 0.70168 0.48774 0.88197 0.0
C49 C 0.77132 0.33102 0.92926 0.0
C50 C 0.74867 0.23231 0.81359 0.0
C51 C 0.65571 0.44861 0.87199 0.0
O52 O 0.75571 0.3028 0.89599 0.0
O53 O 0.78944 0.39107 0.9321 0.0
O54 O 0.73458 0.3809 0.78747 0.0
O55 O 0.79845 0.40997 0.83725 0.0
Co56 Co 0.67302 0.26629 0.20006 0.0
O57 O 0.73883 0.20673 0.22232 0.0
O58 O 0.75242 0.31386 0.2134 0.0
C59 C 0.58282 0.23563 0.23555 0.0
O60 O 0.61932 0.34351 0.18087 0.0
Co61 Co 0.55172 0.21562 0.15092 0.0
O62 O 0.52138 0.3074 0.15772 0.0
C63 C 0.67842 0.23798 0.10982 0.0
C64 C 0.7763 0.25838 0.22592 0.0
C65 C 0.56072 0.35303 0.16795 0.0
O66 O 0.7065 0.25281 0.14327 0.0
O67 O 0.61826 0.22033 0.10671 0.0
O68 O 0.62771 0.27251 0.25168 0.0
O69 O 0.59866 0.20962 0.20143 0.0
Co70 Co 0.24187 0.1725 0.69968 0.0
O71 O 0.3012 0.23842 0.72196 0.0
O72 O 0.19417 0.2521 0.7126 0.0
C73 C 0.27229 0.08259 0.73557 0.0
O74 O 0.1649 0.11868 0.6803 0.0
Co75 Co 0.29324 0.05085 0.6511 0.0
O76 O 0.20123 0.02074 0.65723 0.0
C77 C 0.27139 0.17724 0.60956 0.0
C78 C 0.24957 0.27601 0.72524 0.0
C79 C 0.15548 0.06014 0.66726 0.0
O80 O 0.25598 0.20552 0.64285 0.0
O81 O 0.28924 0.1171 0.60669 0.0
O82 O 0.2351 0.12754 0.75141 0.0
O83 O 0.29859 0.09818 0.70149 0.0
Co84 Co 0.33476 0.74236 0.19965 0.0
O85 O 0.26822 0.80115 0.22182 0.0
O86 O 0.25567 0.69394 0.21275 0.0
C87 C 0.42447 0.7736 0.23538 0.0
O88 O 0.38963 0.66599 0.18041 0.0
Co89 Co 0.45547 0.79508 0.15076 0.0
O90 O 0.48728 0.70382 0.15775 0.0
C91 C 0.32937 0.77103 0.10941 0.0
C92 C 0.23117 0.74919 0.22525 0.0
C93 C 0.44857 0.6575 0.16776 0.0
O94 O 0.30143 0.75567 0.14281 0.0
O95 O 0.38926 0.78963 0.10638 0.0
O96 O 0.37979 0.73629 0.25136 0.0
O97 O 0.4085 0.7998 0.20133 0.0
Co98 Co 0.76547 0.83608 0.69986 0.0
O99 O 0.70666 0.76958 0.72201 0.0
O100 O 0.81382 0.75681 0.7128 0.0
C101 C 0.73424 0.92565 0.73581 0.0
O102 O 0.84184 0.89089 0.68056 0.0
Co103 Co 0.71258 0.95713 0.65131 0.0
O104 O 0.8041 0.98849 0.65772 0.0
C105 C 0.73648 0.83123 0.60965 0.0
C106 C 0.75856 0.7324 0.72535 0.0
C107 C 0.85041 0.94968 0.66766 0.0
O108 O 0.75193 0.80304 0.64296 0.0
O109 O 0.7179 0.89115 0.6068 0.0
O110 O 0.77171 0.88094 0.75165 0.0
O111 O 0.70802 0.90984 0.70175 0.0
C112 C 0.01526 0.03676 0.37187 0.0
C113 C 0.03585 0.09167 0.37068 0.0
C114 C 0.99083 0.97287 0.3717 0.0
C115 C 0.97076 0.91778 0.37032 0.0
C116 C 0.47098 0.51554 0.87716 0.0
C117 C 0.41592 0.53554 0.87465 0.0
C118 C 0.5351 0.49153 0.87722 0.0
C119 C 0.59022 0.47167 0.87478 0.0
C120 C 0.51797 0.47371 0.16374 0.0
C121 C 0.53786 0.41859 0.16574 0.0
C122 C 0.49343 0.53758 0.16367 0.0
C123 C 0.47261 0.59236 0.16561 0.0
C124 C 0.03467 0.01776 0.66259 0.0
C125 C 0.08988 0.03739 0.66478 0.0
C126 C 0.97057 0.99376 0.66271 0.0
C127 C 0.91565 0.97337 0.66503 0.0
C128 C 0.23507 0.25033 0.49925 0.0
C129 C 0.21309 0.25853 0.46597 0.0
C130 C 0.25198 0.23341 0.53914 0.0
C131 C 0.25979 0.21164 0.57251 0.0
C132 C 0.25578 0.73325 0.99937 0.0
C133 C 0.24766 0.7114 0.96605 0.0
C134 C 0.27289 0.75037 0.0392 0.0
C135 C 0.29488 0.75872 0.07247 0.0
C136 C 0.75696 0.77541 0.5392 0.0
C137 C 0.74871 0.79704 0.57258 0.0
C138 C 0.77391 0.75859 0.49929 0.0
C139 C 0.79562 0.7504 0.46592 0.0
C140 C 0.75183 0.27491 0.9997 0.0
C141 C 0.75966 0.29669 0.96633 0.0
C142 C 0.73501 0.25799 0.0396 0.0
C143 C 0.71314 0.24991 0.07292 0.0
C144 C 0.46002 0.24352 0.26348 0.0
C145 C 0.51525 0.23858 0.24974 0.0
C146 C 0.39576 0.25068 0.2803 0.0
C147 C 0.34109 0.25401 0.29495 0.0
C148 C 0.25921 0.89566 0.78083 0.0
C149 C 0.25625 0.84089 0.79539 0.0
C150 C 0.26559 0.96001 0.764 0.0
C151 C 0.26987 0.0152 0.75012 0.0
C152 C 0.61143 0.75793 0.28022 0.0
C153 C 0.6661 0.75437 0.29488 0.0
C154 C 0.54724 0.76547 0.26334 0.0
C155 C 0.49207 0.77062 0.24953 0.0
C156 C 0.74785 0.11259 0.78097 0.0
C157 C 0.75105 0.16734 0.79556 0.0
C158 C 0.74112 0.04829 0.76412 0.0
C159 C 0.73665 0.99312 0.75024 0.0
C160 C 0.95995 0.26679 0.2756 0.0
C161 C 0.01519 0.27191 0.2893 0.0
C162 C 0.89572 0.25928 0.25881 0.0
C163 C 0.84109 0.25572 0.24412 0.0
C164 C 0.24901 0.39569 0.75784 0.0
C165 C 0.2522 0.34095 0.74327 0.0
C166 C 0.24215 0.45998 0.77466 0.0
C167 C 0.23752 0.51515 0.78851 0.0
C168 C 0.11141 0.74806 0.25783 0.0
C169 C 0.16616 0.75139 0.24325 0.0
C170 C 0.04708 0.74113 0.27463 0.0
C171 C 0.99186 0.73648 0.28844 0.0
C172 C 0.76553 0.54828 0.77478 0.0
C173 C 0.76975 0.49309 0.78868 0.0
C174 C 0.7592 0.61261 0.7579 0.0
C175 C 0.75625 0.66737 0.74332 0.0
loop_
_geom_bond_atom_site_label_1
_geom_bond_atom_site_label_2
_geom_bond_distance
_geom_bond_site_symmetry_2
_ccdc_geom_bond_type
Co0 O1 2.216 . S
Co0 O2 2.091 . S
Co0 O4 2.004 . S
Co0 O10 2.021 . S
Co0 O12 2.137 . S
Co0 O13 2.244 . S
O1 Co0 2.216 . S
O1 C8 1.247 . S
O2 Co0 2.091 . S
O2 C8 1.261 . S
C3 O12 1.247 . S
C3 O13 1.272 . S
O4 Co0 2.004 . S
O4 C9 1.259 . S
Co5 O6 2.061 . S
Co5 O11 2.052 . S
Co5 O13 2.135 . S
O6 Co5 2.061 . S
O6 C9 1.235 . S
C7 O10 1.238 . S
C7 O11 1.241 . S
C8 O1 1.247 . S
C8 O2 1.261 . S
C9 O4 1.259 . S
C9 O6 1.235 . S
O10 Co0 2.021 . S
O10 C7 1.238 . S
O11 Co5 2.052 . S
O11 C7 1.241 . S
O12 Co0 2.137 . S
O12 C3 1.247 . S
O13 Co0 2.244 . S
O13 C3 1.272 . S
O13 Co5 2.135 . S
Co14 O15 2.216 . S
Co14 O16 2.091 . S
Co14 O18 2.004 . S
Co14 O24 2.021 . S
Co14 O26 2.137 . S
Co14 O27 2.244 . S
O15 Co14 2.216 . S
O15 C22 1.247 . S
O16 Co14 2.091 . S
O16 C22 1.261 . S
C17 O26 1.247 . S
C17 O27 1.272 . S
O18 Co14 2.004 . S
O18 C23 1.259 . S
Co19 O20 2.061 . S
Co19 O25 2.052 . S
Co19 O27 2.135 . S
O20 Co19 2.061 . S
O20 C23 1.235 . S
C21 O24 1.238 . S
C21 O25 1.241 . S
C22 O15 1.247 . S
C22 O16 1.261 . S
C23 O18 1.259 . S
C23 O20 1.235 . S
O24 Co14 2.021 . S
O24 C21 1.238 . S
O25 Co19 2.052 . S
O25 C21 1.241 . S
O26 Co14 2.137 . S
O26 C17 1.247 . S
O27 Co14 2.244 . S
O27 C17 1.272 . S
O27 Co19 2.135 . S
Co28 O29 2.216 . S
Co28 O30 2.091 . S
Co28 O32 2.004 . S
Co28 O38 2.021 . S
Co28 O40 2.137 . S
Co28 O41 2.244 . S
O29 Co28 2.216 . S
O29 C36 1.247 . S
O30 Co28 2.091 . S
O30 C36 1.261 . S
C31 O40 1.247 . S
C31 O41 1.272 . S
O32 Co28 2.004 . S
O32 C37 1.259 . S
Co33 O34 2.061 . S
Co33 O39 2.052 . S
Co33 O41 2.135 . S
O34 Co33 2.061 . S
O34 C37 1.235 . S
C35 O38 1.238 . S
C35 O39 1.241 . S
C36 O29 1.247 . S
C36 O30 1.261 . S
C37 O32 1.259 . S
C37 O34 1.235 . S
O38 Co28 2.021 . S
O38 C35 1.238 . S
O39 Co33 2.052 . S
O39 C35 1.241 . S
O40 Co28 2.137 . S
O40 C31 1.247 . S
O41 Co28 2.244 . S
O41 C31 1.272 . S
O41 Co33 2.135 . S
Co42 O43 2.216 . S
Co42 O44 2.091 . S
Co42 O46 2.004 . S
Co42 O52 2.021 . S
Co42 O54 2.137 . S
Co42 O55 2.244 . S
O43 Co42 2.216 . S
O43 C50 1.247 . S
O44 Co42 2.091 . S
O44 C50 1.261 . S
C45 O54 1.247 . S
C45 O55 1.272 . S
O46 Co42 2.004 . S
O46 C51 1.259 . S
Co47 O48 2.061 . S
Co47 O53 2.052 . S
Co47 O55 2.135 . S
O48 Co47 2.061 . S
O48 C51 1.235 . S
C49 O52 1.238 . S
C49 O53 1.241 . S
C50 O43 1.247 . S
C50 O44 1.261 . S
C51 O46 1.259 . S
C51 O48 1.235 . S
O52 Co42 2.021 . S
O52 C49 1.238 . S
O53 Co47 2.052 . S
O53 C49 1.241 . S
O54 Co42 2.137 . S
O54 C45 1.247 . S
O55 Co42 2.244 . S
O55 C45 1.272 . S
O55 Co47 2.135 . S
Co56 O57 2.216 . S
Co56 O58 2.091 . S
Co56 O60 2.004 . S
Co56 O66 2.021 . S
Co56 O68 2.137 . S
Co56 O69 2.244 . S
O57 Co56 2.216 . S
O57 C64 1.247 . S
O58 Co56 2.091 . S
O58 C64 1.261 . S
C59 O68 1.247 . S
C59 O69 1.272 . S
O60 Co56 2.004 . S
O60 C65 1.259 . S
Co61 O62 2.061 . S
Co61 O67 2.052 . S
Co61 O69 2.135 . S
O62 Co61 2.061 . S
O62 C65 1.235 . S
C63 O66 1.238 . S
C63 O67 1.241 . S
C64 O57 1.247 . S
C64 O58 1.261 . S
C65 O60 1.259 . S
C65 O62 1.235 . S
O66 Co56 2.021 . S
O66 C63 1.238 . S
O67 Co61 2.052 . S
O67 C63 1.241 . S
O68 Co56 2.137 . S
O68 C59 1.247 . S
O69 Co56 2.244 . S
O69 C59 1.272 . S
O69 Co61 2.135 . S
Co70 O71 2.216 . S
Co70 O72 2.091 . S
Co70 O74 2.004 . S
Co70 O80 2.021 . S
Co70 O82 2.137 . S
Co70 O83 2.244 . S
O71 Co70 2.216 . S
O71 C78 1.247 . S
O72 Co70 2.091 . S
O72 C78 1.261 . S
C73 O82 1.247 . S
C73 O83 1.272 . S
O74 Co70 2.004 . S
O74 C79 1.259 . S
Co75 O76 2.061 . S
Co75 O81 2.052 . S
Co75 O83 2.135 . S
O76 Co75 2.061 . S
O76 C79 1.235 . S
C77 O80 1.238 . S
C77 O81 1.241 . S
C78 O71 1.247 . S
C78 O72 1.261 . S
C79 O74 1.259 . S
C79 O76 1.235 . S
O80 Co70 2.021 . S
O80 C77 1.238 . S
O81 Co75 2.052 . S
O81 C77 1.241 . S
O82 Co70 2.137 . S
O82 C73 1.247 . S
O83 Co70 2.244 . S
O83 C73 1.272 . S
O83 Co75 2.135 . S
Co84 O85 2.216 . S
Co84 O86 2.091 . S
Co84 O88 2.004 . S
Co84 O94 2.021 . S
Co84 O96 2.137 . S
Co84 O97 2.244 . S
O85 Co84 2.216 . S
O85 C92 1.247 . S
O86 Co84 2.091 . S
O86 C92 1.261 . S
C87 O96 1.247 . S
C87 O97 1.272 . S
O88 Co84 2.004 . S
O88 C93 1.259 . S
Co89 O90 2.061 . S
Co89 O95 2.052 . S
Co89 O97 2.135 . S
O90 Co89 2.061 . S
O90 C93 1.235 . S
C91 O94 1.238 . S
C91 O95 1.241 . S
C92 O85 1.247 . S
C92 O86 1.261 . S
C93 O88 1.259 . S
C93 O90 1.235 . S
O94 Co84 2.021 . S
O94 C91 1.238 . S
O95 Co89 2.052 . S
O95 C91 1.241 . S
O96 Co84 2.137 . S
O96 C87 1.247 . S
O97 Co84 2.244 . S
O97 C87 1.272 . S
O97 Co89 2.135 . S
Co98 O99 2.216 . S
Co98 O100 2.091 . S
Co98 O102 2.004 . S
Co98 O108 2.021 . S
Co98 O110 2.137 . S
Co98 O111 2.244 . S
O99 Co98 2.216 . S
O99 C106 1.247 . S
O100 Co98 2.091 . S
O100 C106 1.261 . S
C101 O110 1.247 . S
C101 O111 1.272 . S
O102 Co98 2.004 . S
O102 C107 1.259 . S
Co103 O104 2.061 . S
Co103 O109 2.052 . S
Co103 O111 2.135 . S
O104 Co103 2.061 . S
O104 C107 1.235 . S
C105 O108 1.238 . S
C105 O109 1.241 . S
C106 O99 1.247 . S
C106 O100 1.261 . S
C107 O102 1.259 . S
C107 O104 1.235 . S
O108 Co98 2.021 . S
O108 C105 1.238 . S
O109 Co103 2.052 . S
O109 C105 1.241 . S
O110 Co98 2.137 . S
O110 C101 1.247 . S
O111 Co98 2.244 . S
O111 C101 1.272 . S
O111 Co103 2.135 . S
C112 C113 1.170 . S
C112 C114 1.380 1_445 S
C113 C112 1.170 . S
C114 C112 1.380 1_665 S
C114 C115 1.170 . S
C115 C114 1.170 . S
C116 C117 1.170 . S
C116 C118 1.380 . S
C117 C116 1.170 . S
C118 C116 1.380 . S
C118 C119 1.170 . S
C119 C118 1.170 . S
C120 C121 1.170 . S
C120 C122 1.380 . S
C121 C120 1.170 . S
C122 C120 1.380 . S
C122 C123 1.170 . S
C123 C122 1.170 . S
C124 C125 1.170 . S
C124 C126 1.380 1_445 S
C125 C124 1.170 . S
C126 C124 1.380 1_665 S
C126 C127 1.170 . S
C127 C126 1.170 . S
C128 C129 1.170 . S
C128 C130 1.380 . S
C129 C128 1.170 . S
C130 C128 1.380 . S
C130 C131 1.170 . S
C131 C130 1.170 . S
C132 C133 1.170 . S
C132 C134 1.380 1_556 S
C133 C132 1.170 . S
C134 C132 1.380 1_554 S
C134 C135 1.170 . S
C135 C134 1.170 . S
C136 C137 1.170 . S
C136 C138 1.380 . S
C137 C136 1.170 . S
C138 C136 1.380 . S
C138 C139 1.170 . S
C139 C138 1.170 . S
C140 C141 1.170 . S
C140 C142 1.380 1_556 S
C141 C140 1.170 . S
C142 C140 1.380 1_554 S
C142 C143 1.170 . S
C143 C142 1.170 . S
C144 C145 1.170 . S
C144 C146 1.380 . S
C145 C144 1.170 . S
C146 C144 1.380 . S
C146 C147 1.170 . S
C147 C146 1.170 . S
C148 C149 1.170 . S
C148 C150 1.380 . S
C149 C148 1.170 . S
C150 C148 1.380 . S
C150 C151 1.170 . S
C151 C150 1.170 . S
C152 C153 1.170 . S
C152 C154 1.380 . S
C153 C152 1.170 . S
C154 C152 1.380 . S
C154 C155 1.170 . S
C155 C154 1.170 . S
C156 C157 1.170 . S
C156 C158 1.380 . S
C157 C156 1.170 . S
C158 C156 1.380 . S
C158 C159 1.170 . S
C159 C158 1.170 . S
C160 C161 1.170 . S
C160 C162 1.380 . S
C161 C160 1.170 . S
C162 C160 1.380 . S
C162 C163 1.170 . S
C163 C162 1.170 . S
C164 C165 1.170 . S
C164 C166 1.380 . S
C165 C164 1.170 . S
C166 C164 1.380 . S
C166 C167 1.170 . S
C167 C166 1.170 . S
C168 C169 1.170 . S
C168 C170 1.380 . S
C169 C168 1.170 . S
C170 C168 1.380 . S
C170 C171 1.170 . S
C171 C170 1.170 . S
C172 C173 1.170 . S
C172 C174 1.380 . S
C173 C172 1.170 . S
C174 C172 1.380 . S
C174 C175 1.170 . S
C175 C174 1.170 . S
C113 C9 0.721 . S
C115 C37 0.742 . S
C117 C23 0.693 . S
C119 C51 0.711 . S
C121 C65 0.753 . S
C123 C93 0.683 . S
C125 C79 0.745 . S
C127 C107 0.677 . S
C129 C7 1.427 . S
C131 C77 1.419 . S
C133 C21 1.417 . S
C135 C91 1.426 . S
C137 C105 1.384 . S
C139 C35 1.391 . S
C141 C49 1.398 . S
C143 C63 1.414 . S
C145 C59 1.715 . S
C147 C8 1.795 . S
C149 C22 1.791 . S
C151 C73 1.709 1_565 S
C153 C36 1.795 . S
C155 C87 1.714 . S
C157 C50 1.788 . S
C159 C101 1.711 1_545 S
C161 C3 1.747 1_655 S
C163 C64 1.771 . S
C165 C78 1.771 . S
C167 C17 1.732 . S
C169 C92 1.792 . S
C171 C31 1.708 1_455 S
C173 C45 1.712 . S
C175 C106 1.796 . S
