# Generated by pormake.
# Topology umf, (4)-cn, num edge types: 1
# Building blocks:
#     Node 0, Type 0, BuildingBlock: CEKHIL_clean_sbu_0, # of connection points: 4
#     Node 1, Type 0, BuildingBlock: CEKHIL_clean_sbu_0, # of connection points: 4
#     Node 2, Type 0, BuildingBlock: CEKHIL_clean_sbu_0, # of connection points: 4
#     Node 3, Type 0, BuildingBlock: CEKHIL_clean_sbu_0, # of connection points: 4
#     Node 4, Type 0, BuildingBlock: CEKHIL_clean_sbu_0, # of connection points: 4
#     Node 5, Type 0, BuildingBlock: CEKHIL_clean_sbu_0, # of connection points: 4
#     Node 6, Type 0, BuildingBlock: CEKHIL_clean_sbu_0, # of connection points: 4
#     Node 7, Type 0, BuildingBlock: CEKHIL_clean_sbu_0, # of connection points: 4
#     Edge 8, Type (0, 0), None
#     Edge 9, Type (0, 0), None
#     Edge 10, Type (0, 0), None
#     Edge 11, Type (0, 0), None
#     Edge 12, Type (0, 0), None
#     Edge 13, Type (0, 0), None
#     Edge 14, Type (0, 0), None
#     Edge 15, Type (0, 0), None
#     Edge 16, Type (0, 0), None
#     Edge 17, Type (0, 0), None
#     Edge 18, Type (0, 0), None
#     Edge 19, Type (0, 0), None
#     Edge 20, Type (0, 0), None
#     Edge 21, Type (0, 0), None
#     Edge 22, Type (0, 0), None
#     Edge 23, Type (0, 0), None
# Relax obj value: 0.163
# Max RMSD: 0.295
# Mean RMSD: 0.283
data_MOF--net-umf--node1-CEKHIL_clean_sbu_0--edge1-none
_symmetry_space_group_name_H-M    P1
_symmetry_Int_Tables_number       1
_symmetry_cell_setting            triclinic
loop_
_symmetry_equiv_pos_as_xyz
'x, y, z'
_cell_length_a     13.019257
_cell_length_b     12.161514
_cell_length_c     22.046878
_cell_angle_alpha  89.999407
_cell_angle_beta   89.999988
_cell_angle_gamma 89.998408
loop_
_atom_site_label
_atom_site_type_symbol
_atom_site_fract_x
_atom_site_fract_y
_atom_site_fract_z
_atom_type_partial_charge
Co0 Co 0.08463 0.25829 0.20072 0.0
O1 O 0.11079 0.27227 0.28529 0.0
O2 O 0.224 0.21477 0.21721 0.0
C3 C 0.01142 0.41918 0.19286 0.0
O4 O 0.06397 0.24172 0.1079 0.0
Co5 Co 0.85898 0.22658 0.1788 0.0
O6 O 0.89189 0.25201 0.09291 0.0
C7 C 0.97763 0.03275 0.20985 0.0
C8 C 0.19916 0.23135 0.27419 0.0
C9 C 0.98322 0.24736 0.07281 0.0
O10 O 0.0536 0.09794 0.21115 0.0
O11 O 0.8861 0.06748 0.20102 0.0
O12 O 0.10987 0.41139 0.18945 0.0
O13 O 0.96043 0.33189 0.21003 0.0
Co14 Co 0.70694 0.03894 0.68852 0.0
O15 O 0.57015 0.08708 0.67158 0.0
O16 O 0.61499 0.91449 0.69117 0.0
C17 C 0.73097 0.17054 0.75648 0.0
O18 O 0.85173 0.97146 0.709 0.0
Co19 Co 0.87939 0.1822 0.64989 0.0
O20 O 0.9652 0.1107 0.71093 0.0
C21 C 0.81093 0.00749 0.56743 0.0
C22 C 0.54304 -0.01321 0.67993 0.0
C23 C 0.94397 0.01047 0.71951 0.0
O24 O 0.7302 0.00555 0.60025 0.0
O25 O 0.88479 0.07378 0.57888 0.0
O26 O 0.68683 0.07984 0.77125 0.0
O27 O 0.753 0.18444 0.69886 0.0
Co28 Co 0.89322 0.68763 0.20073 0.0
O29 O 0.86704 0.67365 0.2853 0.0
O30 O 0.75386 0.73117 0.21721 0.0
C31 C 0.9664 0.52674 0.19288 0.0
O32 O 0.9139 0.7042 0.10791 0.0
Co33 Co 0.11888 0.71931 0.17882 0.0
O34 O 0.08598 0.69389 0.09292 0.0
C35 C 0.00025 0.91315 0.20986 0.0
C36 C 0.77868 0.71458 0.27419 0.0
C37 C -0.00535 0.69856 0.07282 0.0
O38 O 0.92427 0.84797 0.21117 0.0
O39 O 0.09177 0.87842 0.20102 0.0
O40 O 0.86796 0.53453 0.18945 0.0
O41 O 0.01742 0.61402 0.21005 0.0
Co42 Co 0.27094 0.90699 0.68853 0.0
O43 O 0.40772 0.85885 0.67158 0.0
O44 O 0.3629 0.03144 0.69118 0.0
C45 C 0.24691 0.77539 0.75649 0.0
O46 O 0.12616 -0.02551 0.70901 0.0
Co47 Co 0.09846 0.76375 0.64992 0.0
O48 O 0.01268 0.83523 0.71097 0.0
C49 C 0.16693 0.93846 0.56745 0.0
C50 C 0.43485 0.95913 0.67994 0.0
C51 C 0.03395 0.93545 0.71956 0.0
O52 O 0.24767 0.94038 0.60026 0.0
O53 O 0.09307 0.87218 0.5789 0.0
O54 O 0.29106 0.86609 0.77126 0.0
O55 O 0.22486 0.7615 0.69887 0.0
Co56 Co 0.08464 0.68764 0.87847 0.0
O57 O 0.1108 0.67365 0.79389 0.0
O58 O 0.22402 0.73115 0.86201 0.0
C59 C 0.01143 0.52675 0.88632 0.0
O60 O 0.06397 0.7042 0.97129 0.0
Co61 Co 0.85899 0.71936 0.90038 0.0
O62 O 0.89189 0.69392 0.98628 0.0
C63 C 0.97764 0.91318 0.86934 0.0
C64 C 0.19916 0.71457 0.80503 0.0
C65 C 0.98322 0.69857 1.00637 0.0
O66 O 0.05361 0.84798 0.86803 0.0
O67 O 0.88611 0.87845 0.87816 0.0
O68 O 0.10988 0.53453 0.88974 0.0
O69 O 0.96044 0.61404 0.86915 0.0
Co70 Co 0.27091 0.03894 0.39069 0.0
O71 O 0.4077 0.08708 0.40763 0.0
O72 O 0.36287 0.91449 0.38805 0.0
C73 C 0.24685 0.17048 0.32273 0.0
O74 O 0.12613 0.97145 0.37022 0.0
Co75 Co 0.09845 0.18217 0.42932 0.0
O76 O 0.01265 0.1107 0.36827 0.0
C77 C 0.16692 0.00746 0.51178 0.0
C78 C 0.43482 -0.01321 0.39928 0.0
C79 C 0.03389 0.01046 0.3597 0.0
O80 O 0.24766 0.00558 0.47897 0.0
O81 O 0.09304 0.07373 0.50033 0.0
O82 O 0.29101 0.0798 0.30796 0.0
O83 O 0.22483 0.18444 0.38035 0.0
Co84 Co 0.89323 0.25831 0.87845 0.0
O85 O 0.86706 0.27229 0.79388 0.0
O86 O 0.75386 0.21478 0.862 0.0
C87 C 0.96641 0.41919 0.8863 0.0
O88 O 0.91391 0.24174 0.97127 0.0
Co89 Co 0.11889 0.22661 0.90037 0.0
O90 O 0.08598 0.25203 0.98627 0.0
C91 C 0.00026 0.03278 0.86933 0.0
C92 C 0.77871 0.23137 0.80502 0.0
C93 C -0.00535 0.24737 1.00636 0.0
O94 O 0.92428 0.09797 0.86802 0.0
O95 O 0.09178 0.06751 0.87817 0.0
O96 O 0.86797 0.41141 0.88973 0.0
O97 O 0.01744 0.33191 0.86913 0.0
Co98 Co 0.70692 0.90699 0.39068 0.0
O99 O 0.57014 0.85885 0.40763 0.0
O100 O 0.61496 0.03144 0.38805 0.0
C101 C 0.73099 0.77545 0.32273 0.0
O102 O 0.8517 -0.02551 0.37021 0.0
Co103 Co 0.87942 0.76378 0.42931 0.0
O104 O 0.96518 0.83523 0.36823 0.0
C105 C 0.81094 0.93849 0.51176 0.0
C106 C 0.54301 0.95913 0.39928 0.0
C107 C 0.94391 0.93545 0.35965 0.0
O108 O 0.73018 0.94036 0.47896 0.0
O109 O 0.88481 0.87222 0.50031 0.0
O110 O 0.68681 0.86613 0.30795 0.0
O111 O 0.75302 0.7615 0.38035 0.0
loop_
_geom_bond_atom_site_label_1
_geom_bond_atom_site_label_2
_geom_bond_distance
_geom_bond_site_symmetry_2
_ccdc_geom_bond_type
Co0 O1 2.216 . S
Co0 O2 2.091 . S
Co0 O4 2.004 . S
Co0 O10 2.021 . S
Co0 O12 2.137 . S
Co0 O13 2.244 1_455 S
O1 Co0 2.216 . S
O1 C8 1.247 . S
O2 Co0 2.091 . S
O2 C8 1.261 . S
C3 O12 1.247 . S
C3 O13 1.272 1_455 S
O4 Co0 2.004 . S
O4 C9 1.259 . S
Co5 O6 2.061 . S
Co5 O11 2.052 . S
Co5 O13 2.135 . S
O6 Co5 2.061 . S
O6 C9 1.235 1_655 S
C7 O10 1.238 1_655 S
C7 O11 1.241 . S
C8 O1 1.247 . S
C8 O2 1.261 . S
C9 O4 1.259 . S
C9 O6 1.235 1_455 S
O10 Co0 2.021 . S
O10 C7 1.238 1_455 S
O11 Co5 2.052 . S
O11 C7 1.241 . S
O12 Co0 2.137 . S
O12 C3 1.247 . S
O13 Co0 2.244 1_655 S
O13 C3 1.272 1_655 S
O13 Co5 2.135 . S
Co14 O15 2.216 . S
Co14 O16 2.091 1_545 S
Co14 O18 2.004 1_545 S
Co14 O24 2.021 . S
Co14 O26 2.137 . S
Co14 O27 2.244 . S
O15 Co14 2.216 . S
O15 C22 1.247 . S
O16 Co14 2.091 1_565 S
O16 C22 1.261 1_565 S
C17 O26 1.247 . S
C17 O27 1.272 . S
O18 Co14 2.004 1_565 S
O18 C23 1.259 1_565 S
Co19 O20 2.061 . S
Co19 O25 2.052 . S
Co19 O27 2.135 . S
O20 Co19 2.061 . S
O20 C23 1.235 . S
C21 O24 1.238 . S
C21 O25 1.241 . S
C22 O15 1.247 . S
C22 O16 1.261 1_545 S
C23 O18 1.259 1_545 S
C23 O20 1.235 . S
O24 Co14 2.021 . S
O24 C21 1.238 . S
O25 Co19 2.052 . S
O25 C21 1.241 . S
O26 Co14 2.137 . S
O26 C17 1.247 . S
O27 Co14 2.244 . S
O27 C17 1.272 . S
O27 Co19 2.135 . S
Co28 O29 2.216 . S
Co28 O30 2.091 . S
Co28 O32 2.004 . S
Co28 O38 2.021 . S
Co28 O40 2.137 . S
Co28 O41 2.244 1_655 S
O29 Co28 2.216 . S
O29 C36 1.247 . S
O30 Co28 2.091 . S
O30 C36 1.261 . S
C31 O40 1.247 . S
C31 O41 1.272 1_655 S
O32 Co28 2.004 . S
O32 C37 1.259 . S
Co33 O34 2.061 . S
Co33 O39 2.052 . S
Co33 O41 2.135 . S
O34 Co33 2.061 . S
O34 C37 1.235 1_455 S
C35 O38 1.238 1_455 S
C35 O39 1.241 . S
C36 O29 1.247 . S
C36 O30 1.261 . S
C37 O32 1.259 . S
C37 O34 1.235 1_655 S
O38 Co28 2.021 . S
O38 C35 1.238 1_655 S
O39 Co33 2.052 . S
O39 C35 1.241 . S
O40 Co28 2.137 . S
O40 C31 1.247 . S
O41 Co28 2.244 1_455 S
O41 C31 1.272 1_455 S
O41 Co33 2.135 . S
Co42 O43 2.216 . S
Co42 O44 2.091 1_565 S
Co42 O46 2.004 1_565 S
Co42 O52 2.021 . S
Co42 O54 2.137 . S
Co42 O55 2.244 . S
O43 Co42 2.216 . S
O43 C50 1.247 . S
O44 Co42 2.091 1_545 S
O44 C50 1.261 1_545 S
C45 O54 1.247 . S
C45 O55 1.272 . S
O46 Co42 2.004 1_545 S
O46 C51 1.259 1_545 S
Co47 O48 2.061 . S
Co47 O53 2.052 . S
Co47 O55 2.135 . S
O48 Co47 2.061 . S
O48 C51 1.235 . S
C49 O52 1.238 . S
C49 O53 1.241 . S
C50 O43 1.247 . S
C50 O44 1.261 1_565 S
C51 O46 1.259 1_565 S
C51 O48 1.235 . S
O52 Co42 2.021 . S
O52 C49 1.238 . S
O53 Co47 2.052 . S
O53 C49 1.241 . S
O54 Co42 2.137 . S
O54 C45 1.247 . S
O55 Co42 2.244 . S
O55 C45 1.272 . S
O55 Co47 2.135 . S
Co56 O57 2.216 . S
Co56 O58 2.091 . S
Co56 O60 2.004 . S
Co56 O66 2.021 . S
Co56 O68 2.137 . S
Co56 O69 2.244 1_455 S
O57 Co56 2.216 . S
O57 C64 1.247 . S
O58 Co56 2.091 . S
O58 C64 1.261 . S
C59 O68 1.247 . S
C59 O69 1.272 1_455 S
O60 Co56 2.004 . S
O60 C65 1.259 . S
Co61 O62 2.061 . S
Co61 O67 2.052 . S
Co61 O69 2.135 . S
O62 Co61 2.061 . S
O62 C65 1.235 1_655 S
C63 O66 1.238 1_655 S
C63 O67 1.241 . S
C64 O57 1.247 . S
C64 O58 1.261 . S
C65 O60 1.259 . S
C65 O62 1.235 1_455 S
O66 Co56 2.021 . S
O66 C63 1.238 1_455 S
O67 Co61 2.052 . S
O67 C63 1.241 . S
O68 Co56 2.137 . S
O68 C59 1.247 . S
O69 Co56 2.244 1_655 S
O69 C59 1.272 1_655 S
O69 Co61 2.135 . S
Co70 O71 2.216 . S
Co70 O72 2.091 1_545 S
Co70 O74 2.004 1_545 S
Co70 O80 2.021 . S
Co70 O82 2.137 . S
Co70 O83 2.244 . S
O71 Co70 2.216 . S
O71 C78 1.247 . S
O72 Co70 2.091 1_565 S
O72 C78 1.261 1_565 S
C73 O82 1.247 . S
C73 O83 1.272 . S
O74 Co70 2.004 1_565 S
O74 C79 1.259 1_565 S
Co75 O76 2.061 . S
Co75 O81 2.052 . S
Co75 O83 2.135 . S
O76 Co75 2.061 . S
O76 C79 1.235 . S
C77 O80 1.238 . S
C77 O81 1.241 . S
C78 O71 1.247 . S
C78 O72 1.261 1_545 S
C79 O74 1.259 1_545 S
C79 O76 1.235 . S
O80 Co70 2.021 . S
O80 C77 1.238 . S
O81 Co75 2.052 . S
O81 C77 1.241 . S
O82 Co70 2.137 . S
O82 C73 1.247 . S
O83 Co70 2.244 . S
O83 C73 1.272 . S
O83 Co75 2.135 . S
Co84 O85 2.216 . S
Co84 O86 2.091 . S
Co84 O88 2.004 . S
Co84 O94 2.021 . S
Co84 O96 2.137 . S
Co84 O97 2.244 1_655 S
O85 Co84 2.216 . S
O85 C92 1.247 . S
O86 Co84 2.091 . S
O86 C92 1.261 . S
C87 O96 1.247 . S
C87 O97 1.272 1_655 S
O88 Co84 2.004 . S
O88 C93 1.259 . S
Co89 O90 2.061 . S
Co89 O95 2.052 . S
Co89 O97 2.135 . S
O90 Co89 2.061 . S
O90 C93 1.235 1_455 S
C91 O94 1.238 1_455 S
C91 O95 1.241 . S
C92 O85 1.247 . S
C92 O86 1.261 . S
C93 O88 1.259 . S
C93 O90 1.235 1_655 S
O94 Co84 2.021 . S
O94 C91 1.238 1_655 S
O95 Co89 2.052 . S
O95 C91 1.241 . S
O96 Co84 2.137 . S
O96 C87 1.247 . S
O97 Co84 2.244 1_455 S
O97 C87 1.272 1_455 S
O97 Co89 2.135 . S
Co98 O99 2.216 . S
Co98 O100 2.091 1_565 S
Co98 O102 2.004 1_565 S
Co98 O108 2.021 . S
Co98 O110 2.137 . S
Co98 O111 2.244 . S
O99 Co98 2.216 . S
O99 C106 1.247 . S
O100 Co98 2.091 1_545 S
O100 C106 1.261 1_545 S
C101 O110 1.247 . S
C101 O111 1.272 . S
O102 Co98 2.004 1_545 S
O102 C107 1.259 1_545 S
Co103 O104 2.061 . S
Co103 O109 2.052 . S
Co103 O111 2.135 . S
O104 Co103 2.061 . S
O104 C107 1.235 . S
C105 O108 1.238 . S
C105 O109 1.241 . S
C106 O99 1.247 . S
C106 O100 1.261 1_565 S
C107 O102 1.259 1_565 S
C107 O104 1.235 . S
O108 Co98 2.021 . S
O108 C105 1.238 . S
O109 Co103 2.052 . S
O109 C105 1.241 . S
O110 Co98 2.137 . S
O110 C101 1.247 . S
O111 Co98 2.244 . S
O111 C101 1.272 . S
O111 Co103 2.135 . S
C3 C31 1.421 1_455 S
C50 C22 1.472 1_565 S
C87 C59 1.421 1_655 S
C78 C106 1.472 1_545 S
C93 C9 2.475 1_656 S
C21 C105 3.247 1_545 S
C37 C65 2.475 1_654 S
C77 C49 3.247 1_545 S
C8 C73 1.964 . S
C92 C17 1.964 . S
C101 C36 1.964 . S
C45 C64 1.964 . S
C7 C35 1.386 1_645 S
C51 C23 0.920 1_465 S
C91 C63 1.386 1_445 S
C107 C79 0.920 1_665 S
