# Generated by pormake.
# Topology qzd, (4)-cn, num edge types: 1
# Building blocks:
#     Node 0, Type 0, BuildingBlock: NAWXER_clean_sbu_0, # of connection points: 4
#     Node 1, Type 0, BuildingBlock: NAWXER_clean_sbu_0, # of connection points: 4
#     Node 2, Type 0, BuildingBlock: NAWXER_clean_sbu_0, # of connection points: 4
#     Edge 3, Type (0, 0), BuildingBlock: UVAHIK_clean_linker_0, # of connection points: 2
#     Edge 4, Type (0, 0), BuildingBlock: UVAHIK_clean_linker_0, # of connection points: 2
#     Edge 5, Type (0, 0), BuildingBlock: UVAHIK_clean_linker_0, # of connection points: 2
#     Edge 6, Type (0, 0), BuildingBlock: UVAHIK_clean_linker_0, # of connection points: 2
#     Edge 7, Type (0, 0), BuildingBlock: UVAHIK_clean_linker_0, # of connection points: 2
#     Edge 8, Type (0, 0), BuildingBlock: UVAHIK_clean_linker_0, # of connection points: 2
# Relax obj value: 0.000
# Max RMSD: 0.038
# Mean RMSD: 0.038
data_MOF--net-qzd--node1-NAWXER_clean_sbu_0--edge1-UVAHIK_clean_linker_0
_symmetry_space_group_name_H-M    P1
_symmetry_Int_Tables_number       1
_symmetry_cell_setting            triclinic
loop_
_symmetry_equiv_pos_as_xyz
'x, y, z'
_cell_length_a     19.224828
_cell_length_b     19.224096
_cell_length_c     57.566949
_cell_angle_alpha  94.85186
_cell_angle_beta   94.834605
_cell_angle_gamma 120.01924
loop_
_atom_site_label
_atom_site_type_symbol
_atom_site_fract_x
_atom_site_fract_y
_atom_site_fract_z
_atom_type_partial_charge
C0 C 0.30547 0.2123 0.03857 0.0
C1 C 0.05016 0.21083 0.03551 0.0
O2 O 0.24297 0.14045 0.03511 0.0
Zn3 Zn 0.11347 0.08399 0.03118 0.0
O4 O 0.29588 0.2732 0.04056 0.0
Zn5 Zn 0.1782 0.21283 0.03664 0.0
O6 O 0.15244 0.15615 0.0681 0.0
O7 O 0.08756 0.0233 0.05737 0.0
O8 O 0.12165 0.27219 0.0381 0.0
O9 O 0.03984 0.13913 0.03276 0.0
O10 O 0.07984 0.02462 0.9997 0.0
O11 O 0.14549 0.15741 1.00034 0.0
C12 C 0.11784 0.08406 0.07355 0.0
C13 C 0.10848 0.08549 0.98869 0.0
C14 C 0.0682 0.05717 0.40447 0.0
C15 C 0.05001 0.04035 0.31899 0.0
O16 O 0.0298 0.09008 0.39592 0.0
Zn17 Zn 0.99623 0.11249 0.362 0.0
O18 O 0.0979 0.02692 0.3908 0.0
Zn19 Zn 0.05959 0.04837 0.36168 0.0
O20 O 0.1343 0.17797 0.36395 0.0
O21 O 0.05487 0.22993 0.36491 0.0
O22 O 0.08034 0.01017 0.33245 0.0
O23 O 0.01756 0.07891 0.32779 0.0
O24 O 0.87888 0.0546 0.35918 0.0
O25 O 0.92979 0.97412 0.35901 0.0
C26 C 0.12546 0.23999 0.36497 0.0
C27 C 0.86814 0.98353 0.35828 0.0
C28 C 0.02876 1.00237 0.73498 0.0
C29 C 0.02991 0.99168 0.65007 0.0
O30 O 0.95686 0.96522 0.72332 0.0
Zn31 Zn 0.90135 0.93192 0.68705 0.0
O32 O 0.08965 0.03075 0.72397 0.0
Zn33 Zn 0.03025 0.99671 0.69248 0.0
O34 O 0.97503 0.07025 0.6908 0.0
O35 O 0.84198 0.98843 0.68549 0.0
O36 O 0.09077 0.02224 0.66622 0.0
O37 O 0.95789 0.95719 0.65558 0.0
O38 O 0.84105 0.81427 0.68326 0.0
O39 O 0.97381 0.86722 0.68867 0.0
C40 C 0.90334 0.05991 0.68804 0.0
C41 C 0.90196 0.80471 0.68527 0.0
C42 C 0.98713 0.29817 0.03907 0.0
C43 C 0.97879 0.2208 0.03643 0.0
C44 C 0.9192 0.30637 0.04077 0.0
C45 C 0.71269 0.19646 0.05656 0.0
H46 H 0.67006 0.33509 0.02003 0.0
C47 C 0.39584 0.15391 0.03922 0.0
C48 C 0.38752 0.22264 0.04012 0.0
C49 C 0.47228 0.16197 0.04051 0.0
C50 C 0.68179 0.29712 0.03063 0.0
H51 H 0.89222 0.09144 0.03313 0.0
H52 H 0.77467 0.10583 0.036 0.0
H53 H 0.79671 0.33431 0.01886 0.0
H54 H 0.45344 0.35405 0.04303 0.0
H55 H 0.58791 0.36813 0.04533 0.0
H56 H 0.59779 0.15825 0.0681 0.0
C57 C 0.83364 0.16022 0.03706 0.0
C58 C 0.75422 0.29662 0.02994 0.0
C59 C 0.9011 0.152 0.03525 0.0
C60 C 0.4578 0.29991 0.04231 0.0
C61 C 0.5347 0.30796 0.04352 0.0
C62 C 0.64067 0.19705 0.05729 0.0
C63 C 0.84189 0.23741 0.04005 0.0
C64 C 0.76944 0.24477 0.04247 0.0
C65 C 0.54267 0.23897 0.04274 0.0
C66 C 0.62343 0.24586 0.0439 0.0
H67 H 0.04613 0.35238 0.04002 0.0
H68 H 0.9274 0.36665 0.04312 0.0
H69 H 0.72353 0.15725 0.06684 0.0
H70 H 0.34313 0.0934 0.03745 0.0
H71 H 0.4761 0.10747 0.03942 0.0
C72 C 0.71735 0.91932 0.35848 0.0
C73 C 0.78582 0.91147 0.35697 0.0
C74 C 0.6405 0.85046 0.35803 0.0
C75 C 0.5267 0.62718 0.3405 0.0
H76 H 0.38869 0.62494 0.3862 0.0
C77 C 0.2733 0.32962 0.36319 0.0
C78 C 0.19713 0.32154 0.36485 0.0
C79 C 0.34041 0.40477 0.36146 0.0
C80 C 0.42608 0.62503 0.37313 0.0
H81 H 0.82694 0.82496 0.35365 0.0
H82 H 0.69411 0.70601 0.353 0.0
H83 H 0.5145 0.75127 0.38386 0.0
H84 H 0.13244 0.387 0.36662 0.0
H85 H 0.25071 0.51922 0.36371 0.0
H86 H 0.43968 0.50095 0.3301 0.0
C87 C 0.69918 0.76496 0.35425 0.0
C88 C 0.49802 0.69733 0.37176 0.0
C89 C 0.77563 0.83342 0.35478 0.0
C90 C 0.19025 0.39115 0.36535 0.0
C91 C 0.25791 0.46684 0.36374 0.0
C92 C 0.45523 0.55519 0.34192 0.0
C93 C 0.63066 0.77247 0.35588 0.0
C94 C 0.55002 0.69867 0.35577 0.0
C95 C 0.33339 0.47404 0.3614 0.0
C96 C 0.40503 0.55279 0.35859 0.0
H97 H 0.72316 0.97861 0.36022 0.0
H98 H 0.58877 0.85818 0.35919 0.0
H99 H 0.5644 0.62656 0.32762 0.0
H100 H 0.28112 0.27754 0.36287 0.0
H101 H 0.39809 0.40862 0.36015 0.0
C102 C 0.81438 0.65239 0.68154 0.0
C103 C 0.89164 0.72267 0.68375 0.0
C104 C 0.80631 0.57548 0.6803 0.0
C105 C 0.91715 0.46956 0.66641 0.0
H106 H 0.77996 0.31328 0.70479 0.0
C107 C 0.96215 0.20894 0.68824 0.0
C108 C 0.89337 0.13127 0.68708 0.0
C109 C 0.95394 0.27641 0.68644 0.0
C110 C 0.81762 0.35584 0.69372 0.0
H111 H 0.02088 0.76707 0.68643 0.0
H112 H 0.00679 0.63408 0.68441 0.0
H113 H 0.77922 0.43999 0.70373 0.0
H114 H 0.7618 0.06394 0.68355 0.0
H115 H 0.74755 0.18269 0.68048 0.0
H116 H 0.95687 0.3867 0.65675 0.0
C117 C 0.95231 0.63791 0.68332 0.0
C118 C 0.81715 0.4283 0.69309 0.0
C119 C 0.96037 0.71436 0.68465 0.0
C120 C 0.81601 0.12294 0.68448 0.0
C121 C 0.80781 0.19088 0.6828 0.0
C122 C 0.9177 0.39749 0.66707 0.0
C123 C 0.87531 0.56752 0.68107 0.0
C124 C 0.86839 0.48674 0.67984 0.0
C125 C 0.87677 0.26818 0.6835 0.0
C126 C 0.86942 0.34066 0.68114 0.0
H127 H 0.76023 0.65675 0.68081 0.0
H128 H 0.74614 0.52226 0.67847 0.0
H129 H 0.95594 0.51251 0.65561 0.0
H130 H 0.02272 0.21781 0.69033 0.0
H131 H 0.00834 0.33537 0.68749 0.0
C132 C 0.07009 0.97764 0.2819 0.0
C133 C 0.05572 0.03562 0.29351 0.0
C134 C 0.07785 0.97595 0.2579 0.0
C135 C 0.14375 0.10789 0.21336 0.0
H136 H 1.00228 0.91993 0.16641 0.0
C137 C 0.12517 0.13716 0.11529 0.0
C138 C 0.11246 0.07284 0.09858 0.0
C139 C 0.12039 0.12788 0.13897 0.0
C140 C 0.0434 0.97253 0.1793 0.0
H141 H 0.03827 0.13715 0.2891 0.0
H142 H 0.05396 0.13535 0.24751 0.0
H143 H 0.99079 0.91081 0.20822 0.0
H144 H 0.08491 0.94813 0.09362 0.0
H145 H 0.07921 0.93255 0.13525 0.0
H146 H 0.1978 0.16968 0.18494 0.0
C147 C 0.05835 0.09083 0.25691 0.0
C148 C 0.03647 0.96722 0.2032 0.0
C149 C 0.04899 0.09151 0.28067 0.0
C150 C 0.09476 0.99875 0.1061 0.0
C151 C 0.0911 0.98976 0.12994 0.0
C152 C 0.15168 0.11287 0.18961 0.0
C153 C 0.07317 0.03337 0.24534 0.0
C154 C 0.08541 0.03547 0.22034 0.0
C155 C 0.10413 0.0544 0.14671 0.0
C156 C 0.10026 0.04596 0.17216 0.0
H157 H 0.07534 0.9337 0.29135 0.0
H158 H 0.08938 0.93117 0.24928 0.0
H159 H 0.18292 0.16101 0.22633 0.0
H160 H 0.13785 0.19472 0.11004 0.0
H161 H 0.12852 0.17835 0.15114 0.0
C162 C 0.97619 0.98312 0.60831 0.0
C163 C 0.04085 0.99657 0.62501 0.0
C164 C 0.98511 0.98731 0.5846 0.0
C165 C 0.13959 0.06415 0.54404 0.0
H166 H 0.95071 0.92296 0.4973 0.0
C167 C 0.1318 0.03669 0.44129 0.0
C168 C 0.07348 0.05105 0.42992 0.0
C169 C 0.13419 0.02884 0.46529 0.0
C170 C 1.00395 0.96256 0.51019 0.0
H171 H 0.1658 0.02489 0.62991 0.0
H172 H 0.18079 0.02965 0.58822 0.0
H173 H 0.94309 0.90863 0.53877 0.0
H174 H 0.97204 0.06829 0.43472 0.0
H175 H 0.97505 0.05237 0.47628 0.0
H176 H 0.20034 0.11671 0.51497 0.0
C177 C 0.12357 0.01756 0.59356 0.0
C178 C 0.99957 0.95495 0.53398 0.0
C179 C 0.11492 0.01446 0.61745 0.0
C180 C 0.01792 0.05758 0.44297 0.0
C181 C 0.01929 0.0481 0.46672 0.0
C182 C 0.14431 0.07076 0.5201 0.0
C183 C 0.05856 1.00375 0.5768 0.0
C184 C 0.06658 0.00705 0.55132 0.0
C185 C 0.07714 0.03338 0.47807 0.0
C186 C 0.07588 0.02123 0.50308 0.0
H187 H 0.91863 0.97027 0.61359 0.0
H188 H 0.93436 0.97861 0.57243 0.0
H189 H 0.19225 0.10576 0.55684 0.0
H190 H 0.17549 0.0316 0.43168 0.0
H191 H 0.17927 0.01739 0.47374 0.0
C192 C 0.97244 0.98738 0.77307 0.0
C193 C 0.03974 0.01085 0.76105 0.0
C194 C 0.98177 0.99393 0.79761 0.0
C195 C 0.1355 0.09737 0.85102 0.0
H196 H 0.96771 0.93137 0.88063 0.0
C197 C 0.0704 0.99733 0.94958 0.0
C198 C 0.10056 0.07441 0.96263 0.0
C199 C 0.0648 0.98787 0.92499 0.0
C200 C 0.01562 0.97785 0.87269 0.0
H201 H 0.16978 0.05948 0.76545 0.0
H202 H 0.18594 0.06961 0.80833 0.0
H203 H 0.95627 0.91704 0.83786 0.0
H204 H 0.14741 0.20183 0.96005 0.0
H205 H 0.13591 0.18508 0.91732 0.0
H206 H 0.19584 0.15719 0.88586 0.0
C207 C 0.12603 0.04735 0.79877 0.0
C208 C 0.00851 0.97019 0.84811 0.0
C209 C 0.11675 0.04123 0.77417 0.0
C210 C 0.12437 0.14162 0.95056 0.0
C211 C 0.11833 0.13211 0.92602 0.0
C212 C 0.14281 0.10483 0.8756 0.0
C213 C 0.05857 0.02361 0.81079 0.0
C214 C 0.06796 0.03024 0.83696 0.0
C215 C 0.08882 0.05521 0.91291 0.0
C216 C 0.08258 0.04556 0.88675 0.0
H217 H 0.91228 0.9642 0.76353 0.0
H218 H 0.92872 0.97658 0.80626 0.0
H219 H 0.18211 0.14513 0.84307 0.0
H220 H 0.05192 0.94436 0.95835 0.0
H221 H 0.04269 0.9279 0.9155 0.0
loop_
_geom_bond_atom_site_label_1
_geom_bond_atom_site_label_2
_geom_bond_distance
_geom_bond_site_symmetry_2
_ccdc_geom_bond_type
C0 O2 1.248 . S
C0 O4 1.256 1_565 S
C1 O8 1.250 . S
C1 O9 1.253 1_545 S
O2 C0 1.248 . S
O2 Zn3 2.028 1_455 S
Zn3 O2 2.028 1_655 S
Zn3 O7 2.035 . S
Zn3 O9 2.035 . S
Zn3 O10 2.028 1_554 S
O4 C0 1.256 1_545 S
O4 Zn5 2.035 . S
Zn5 O4 2.035 . S
Zn5 O6 2.028 . S
Zn5 O8 2.028 1_455 S
Zn5 O11 2.035 1_554 S
O6 Zn5 2.028 . S
O6 C12 1.250 . S
O7 Zn3 2.035 . S
O7 C12 1.255 1_665 S
O8 C1 1.250 . S
O8 Zn5 2.028 1_655 S
O9 C1 1.253 1_565 S
O9 Zn3 2.035 . S
O10 Zn3 2.028 1_556 S
O10 C13 1.247 1_655 S
O11 Zn5 2.035 1_556 S
O11 C13 1.258 1_545 S
C12 O6 1.250 . S
C12 O7 1.255 1_445 S
C13 O10 1.247 1_455 S
C13 O11 1.258 1_565 S
C14 O16 1.247 1_455 S
C14 O18 1.258 . S
C15 O22 1.247 . S
C15 O23 1.258 1_455 S
O16 C14 1.247 1_655 S
O16 Zn17 2.028 . S
Zn17 O16 2.028 . S
Zn17 O21 2.035 1_655 S
Zn17 O23 2.035 . S
Zn17 O24 2.028 . S
O18 C14 1.258 . S
O18 Zn19 2.035 . S
Zn19 O18 2.035 . S
Zn19 O20 2.028 . S
Zn19 O22 2.028 . S
Zn19 O25 2.035 1_445 S
O20 Zn19 2.028 . S
O20 C26 1.247 . S
O21 Zn17 2.035 1_455 S
O21 C26 1.258 . S
O22 C15 1.247 . S
O22 Zn19 2.028 . S
O23 C15 1.258 1_655 S
O23 Zn17 2.035 . S
O24 Zn17 2.028 . S
O24 C27 1.247 1_545 S
O25 Zn19 2.035 1_665 S
O25 C27 1.258 . S
C26 O20 1.247 . S
C26 O21 1.258 . S
C27 O24 1.247 1_565 S
C27 O25 1.258 . S
C28 O30 1.247 . S
C28 O32 1.258 . S
C29 O36 1.247 . S
C29 O37 1.258 . S
O30 C28 1.247 . S
O30 Zn31 2.028 . S
Zn31 O30 2.028 . S
Zn31 O35 2.035 . S
Zn31 O37 2.035 . S
Zn31 O38 2.028 1_545 S
O32 C28 1.258 . S
O32 Zn33 2.035 . S
Zn33 O32 2.035 . S
Zn33 O34 2.028 . S
Zn33 O36 2.028 . S
Zn33 O39 2.035 . S
O34 Zn33 2.028 . S
O34 C40 1.247 . S
O35 Zn31 2.035 . S
O35 C40 1.258 . S
O36 C29 1.247 . S
O36 Zn33 2.028 . S
O37 C29 1.258 . S
O37 Zn31 2.035 . S
O38 Zn31 2.028 1_565 S
O38 C41 1.247 . S
O39 Zn33 2.035 . S
O39 C41 1.258 1_545 S
C40 O34 1.247 . S
C40 O35 1.258 . S
C41 O38 1.247 . S
C41 O39 1.258 1_565 S
C42 C43 1.349 . S
C42 C44 1.327 . S
C42 H67 0.950 . S
C43 C42 1.349 . S
C43 C59 1.349 1_545 S
C44 C42 1.327 . S
C44 C63 1.429 . S
C44 H68 0.950 . S
C45 C62 1.574 . S
C45 C64 1.368 1_565 S
C45 H69 0.949 . S
H46 C50 0.949 . S
C47 C48 1.349 1_565 S
C47 C49 1.327 . S
C47 H70 0.950 . S
C48 C47 1.349 1_545 S
C48 C60 1.349 . S
C49 C47 1.327 . S
C49 C65 1.429 1_565 S
C49 H71 0.950 . S
C50 H46 0.949 . S
C50 C58 1.574 . S
C50 C66 1.368 . S
H51 C59 0.950 . S
H52 C57 0.950 . S
H53 C58 0.949 . S
H54 C60 0.950 . S
H55 C61 0.950 . S
H56 C62 0.949 . S
C57 H52 0.950 . S
C57 C59 1.327 . S
C57 C63 1.429 1_565 S
C58 C50 1.574 . S
C58 H53 0.949 . S
C58 C64 1.368 . S
C59 C43 1.349 1_565 S
C59 H51 0.950 . S
C59 C57 1.327 . S
C60 C48 1.349 . S
C60 H54 0.950 . S
C60 C61 1.327 . S
C61 H55 0.950 . S
C61 C60 1.327 . S
C61 C65 1.429 . S
C62 C45 1.574 . S
C62 H56 0.949 . S
C62 C66 1.368 1_565 S
C63 C44 1.429 . S
C63 C57 1.429 1_545 S
C63 C64 1.523 . S
C64 C45 1.368 1_545 S
C64 C58 1.368 . S
C64 C63 1.523 . S
C65 C49 1.429 1_545 S
C65 C61 1.429 . S
C65 C66 1.523 . S
C66 C50 1.368 . S
C66 C62 1.368 1_545 S
C66 C65 1.523 . S
H67 C42 0.950 . S
H68 C44 0.950 . S
H69 C45 0.949 . S
H70 C47 0.950 . S
H71 C49 0.950 . S
C72 C73 1.349 . S
C72 C74 1.327 . S
C72 H97 0.950 . S
C73 C72 1.349 . S
C73 C89 1.349 . S
C74 C72 1.327 . S
C74 C93 1.429 . S
C74 H98 0.950 . S
C75 C92 1.574 . S
C75 C94 1.368 . S
C75 H99 0.949 . S
H76 C80 0.949 . S
C77 C78 1.349 . S
C77 C79 1.327 . S
C77 H100 0.950 . S
C78 C77 1.349 . S
C78 C90 1.349 . S
C79 C77 1.327 . S
C79 C95 1.429 . S
C79 H101 0.950 . S
C80 H76 0.949 . S
C80 C88 1.574 . S
C80 C96 1.368 . S
H81 C89 0.950 . S
H82 C87 0.950 . S
H83 C88 0.949 . S
H84 C90 0.950 . S
H85 C91 0.950 . S
H86 C92 0.949 . S
C87 H82 0.950 . S
C87 C89 1.327 . S
C87 C93 1.429 . S
C88 C80 1.574 . S
C88 H83 0.949 . S
C88 C94 1.368 . S
C89 C73 1.349 . S
C89 H81 0.950 . S
C89 C87 1.327 . S
C90 C78 1.349 . S
C90 H84 0.950 . S
C90 C91 1.327 . S
C91 H85 0.950 . S
C91 C90 1.327 . S
C91 C95 1.429 . S
C92 C75 1.574 . S
C92 H86 0.949 . S
C92 C96 1.368 . S
C93 C74 1.429 . S
C93 C87 1.429 . S
C93 C94 1.523 . S
C94 C75 1.368 . S
C94 C88 1.368 . S
C94 C93 1.523 . S
C95 C79 1.429 . S
C95 C91 1.429 . S
C95 C96 1.523 . S
C96 C80 1.368 . S
C96 C92 1.368 . S
C96 C95 1.523 . S
H97 C72 0.950 . S
H98 C74 0.950 . S
H99 C75 0.949 . S
H100 C77 0.950 . S
H101 C79 0.950 . S
C102 C103 1.349 . S
C102 C104 1.327 . S
C102 H127 0.950 1_455 S
C103 C102 1.349 . S
C103 C119 1.349 . S
C104 C102 1.327 . S
C104 C123 1.429 . S
C104 H128 0.950 1_455 S
C105 C122 1.574 . S
C105 C124 1.368 . S
C105 H129 0.949 . S
H106 C110 0.949 1_655 S
C107 C108 1.349 . S
C107 C109 1.327 . S
C107 H130 0.950 . S
C108 C107 1.349 . S
C108 C120 1.349 . S
C109 C107 1.327 . S
C109 C125 1.429 . S
C109 H131 0.950 . S
C110 H106 0.949 1_455 S
C110 C118 1.574 . S
C110 C126 1.368 . S
H111 C119 0.950 . S
H112 C117 0.950 . S
H113 C118 0.949 1_655 S
H114 C120 0.950 1_655 S
H115 C121 0.950 1_655 S
H116 C122 0.949 . S
C117 H112 0.950 . S
C117 C119 1.327 . S
C117 C123 1.429 . S
C118 C110 1.574 . S
C118 H113 0.949 1_455 S
C118 C124 1.368 . S
C119 C103 1.349 . S
C119 H111 0.950 . S
C119 C117 1.327 . S
C120 C108 1.349 . S
C120 H114 0.950 1_455 S
C120 C121 1.327 . S
C121 H115 0.950 1_455 S
C121 C120 1.327 . S
C121 C125 1.429 . S
C122 C105 1.574 . S
C122 H116 0.949 . S
C122 C126 1.368 . S
C123 C104 1.429 . S
C123 C117 1.429 . S
C123 C124 1.523 . S
C124 C105 1.368 . S
C124 C118 1.368 . S
C124 C123 1.523 . S
C125 C109 1.429 . S
C125 C121 1.429 . S
C125 C126 1.523 . S
C126 C110 1.368 . S
C126 C122 1.368 . S
C126 C125 1.523 . S
H127 C102 0.950 1_655 S
H128 C104 0.950 1_655 S
H129 C105 0.949 . S
H130 C107 0.950 . S
H131 C109 0.950 . S
C132 C133 1.349 1_655 S
C132 C134 1.327 . S
C132 H157 0.950 1_545 S
C133 C132 1.349 1_455 S
C133 C149 1.349 . S
C134 C132 1.327 . S
C134 C153 1.429 1_655 S
C134 H158 0.950 1_545 S
C135 C152 1.574 . S
C135 C154 1.368 . S
C135 H159 0.949 . S
H136 C140 0.949 . S
C137 C138 1.349 . S
C137 C139 1.327 . S
C137 H160 0.950 . S
C138 C137 1.349 . S
C138 C150 1.349 1_445 S
C139 C137 1.327 . S
C139 C155 1.429 . S
C139 H161 0.950 . S
C140 H136 0.949 . S
C140 C148 1.574 . S
C140 C156 1.368 1_665 S
H141 C149 0.950 . S
H142 C147 0.950 . S
H143 C148 0.949 . S
H144 C150 0.950 . S
H145 C151 0.950 . S
H146 C152 0.949 . S
C147 H142 0.950 . S
C147 C149 1.327 . S
C147 C153 1.429 . S
C148 C140 1.574 . S
C148 H143 0.949 . S
C148 C154 1.368 1_665 S
C149 C133 1.349 . S
C149 H141 0.950 . S
C149 C147 1.327 . S
C150 C138 1.349 1_665 S
C150 H144 0.950 . S
C150 C151 1.327 . S
C151 H145 0.950 . S
C151 C150 1.327 . S
C151 C155 1.429 1_665 S
C152 C135 1.574 . S
C152 H146 0.949 . S
C152 C156 1.368 . S
C153 C134 1.429 1_455 S
C153 C147 1.429 . S
C153 C154 1.523 . S
C154 C135 1.368 . S
C154 C148 1.368 1_445 S
C154 C153 1.523 . S
C155 C139 1.429 . S
C155 C151 1.429 1_445 S
C155 C156 1.523 . S
C156 C140 1.368 1_445 S
C156 C152 1.368 . S
C156 C155 1.523 . S
H157 C132 0.950 1_565 S
H158 C134 0.950 1_565 S
H159 C135 0.949 . S
H160 C137 0.950 . S
H161 C139 0.950 . S
C162 C163 1.349 . S
C162 C164 1.327 . S
C162 H187 0.950 1_445 S
C163 C162 1.349 . S
C163 C179 1.349 . S
C164 C162 1.327 . S
C164 C183 1.429 . S
C164 H188 0.950 1_445 S
C165 C182 1.574 . S
C165 C184 1.368 . S
C165 H189 0.949 . S
H166 C170 0.949 1_565 S
C167 C168 1.349 . S
C167 C169 1.327 . S
C167 H190 0.950 . S
C168 C167 1.349 . S
C168 C180 1.349 1_455 S
C169 C167 1.327 . S
C169 C185 1.429 . S
C169 H191 0.950 . S
C170 H166 0.949 1_545 S
C170 C178 1.574 . S
C170 C186 1.368 1_655 S
H171 C179 0.950 . S
H172 C177 0.950 . S
H173 C178 0.949 1_565 S
H174 C180 0.950 1_565 S
H175 C181 0.950 1_565 S
H176 C182 0.949 . S
C177 H172 0.950 . S
C177 C179 1.327 . S
C177 C183 1.429 . S
C178 C170 1.574 . S
C178 H173 0.949 1_545 S
C178 C184 1.368 1_655 S
C179 C163 1.349 . S
C179 H171 0.950 . S
C179 C177 1.327 . S
C180 C168 1.349 1_655 S
C180 H174 0.950 1_545 S
C180 C181 1.327 . S
C181 H175 0.950 1_545 S
C181 C180 1.327 . S
C181 C185 1.429 1_655 S
C182 C165 1.574 . S
C182 H176 0.949 . S
C182 C186 1.368 . S
C183 C164 1.429 . S
C183 C177 1.429 . S
C183 C184 1.523 . S
C184 C165 1.368 . S
C184 C178 1.368 1_455 S
C184 C183 1.523 . S
C185 C169 1.429 . S
C185 C181 1.429 1_455 S
C185 C186 1.523 . S
C186 C170 1.368 1_455 S
C186 C182 1.368 . S
C186 C185 1.523 . S
H187 C162 0.950 1_665 S
H188 C164 0.950 1_665 S
H189 C165 0.949 . S
H190 C167 0.950 . S
H191 C169 0.950 . S
C192 C193 1.349 . S
C192 C194 1.327 . S
C192 H217 0.950 . S
C193 C192 1.349 . S
C193 C209 1.349 . S
C194 C192 1.327 . S
C194 C213 1.429 . S
C194 H218 0.950 . S
C195 C212 1.574 . S
C195 C214 1.368 1_565 S
C195 H219 0.949 . S
H196 C200 0.949 . S
C197 C198 1.349 1_565 S
C197 C199 1.327 . S
C197 H220 0.950 . S
C198 C197 1.349 1_545 S
C198 C210 1.349 . S
C199 C197 1.327 . S
C199 C215 1.429 1_565 S
C199 H221 0.950 . S
C200 H196 0.949 . S
C200 C208 1.574 . S
C200 C216 1.368 . S
H201 C209 0.950 1_565 S
H202 C207 0.950 1_565 S
H203 C208 0.949 . S
H204 C210 0.950 . S
H205 C211 0.950 . S
H206 C212 0.949 . S
C207 H202 0.950 1_545 S
C207 C209 1.327 . S
C207 C213 1.429 . S
C208 C200 1.574 . S
C208 H203 0.949 . S
C208 C214 1.368 . S
C209 C193 1.349 . S
C209 H201 0.950 1_545 S
C209 C207 1.327 . S
C210 C198 1.349 . S
C210 H204 0.950 . S
C210 C211 1.327 . S
C211 H205 0.950 . S
C211 C210 1.327 . S
C211 C215 1.429 . S
C212 C195 1.574 . S
C212 H206 0.949 . S
C212 C216 1.368 1_565 S
C213 C194 1.429 . S
C213 C207 1.429 . S
C213 C214 1.523 . S
C214 C195 1.368 1_545 S
C214 C208 1.368 . S
C214 C213 1.523 . S
C215 C199 1.429 1_545 S
C215 C211 1.429 . S
C215 C216 1.523 . S
C216 C200 1.368 . S
C216 C212 1.368 1_545 S
C216 C215 1.523 . S
H217 C192 0.950 . S
H218 C194 0.950 . S
H219 C195 0.949 . S
H220 C197 0.950 . S
H221 C199 0.950 . S
C43 C1 1.501 . S
C48 C0 1.499 1_545 S
C73 C27 1.499 . S
C78 C26 1.499 . S
C103 C41 1.499 . S
C108 C40 1.499 . S
C133 C15 1.527 . S
C138 C12 1.528 . S
C163 C29 1.528 . S
C168 C14 1.527 . S
C193 C28 1.529 . S
C198 C13 1.529 1_545 S
