# Generated by pormake.
# Topology unc, (4)-cn, num edge types: 1
# Building blocks:
#     Node 0, Type 0, BuildingBlock: AZAVOO_clean_sbu_0, # of connection points: 4
#     Node 1, Type 0, BuildingBlock: AZAVOO_clean_sbu_0, # of connection points: 4
#     Node 2, Type 0, BuildingBlock: AZAVOO_clean_sbu_0, # of connection points: 4
#     Node 3, Type 0, BuildingBlock: AZAVOO_clean_sbu_0, # of connection points: 4
#     Edge 4, Type (0, 0), BuildingBlock: OJICUG_clean_linker_0, # of connection points: 2
#     Edge 5, Type (0, 0), BuildingBlock: OJICUG_clean_linker_0, # of connection points: 2
#     Edge 6, Type (0, 0), BuildingBlock: OJICUG_clean_linker_0, # of connection points: 2
#     Edge 7, Type (0, 0), BuildingBlock: OJICUG_clean_linker_0, # of connection points: 2
#     Edge 8, Type (0, 0), BuildingBlock: OJICUG_clean_linker_0, # of connection points: 2
#     Edge 9, Type (0, 0), BuildingBlock: OJICUG_clean_linker_0, # of connection points: 2
#     Edge 10, Type (0, 0), BuildingBlock: OJICUG_clean_linker_0, # of connection points: 2
#     Edge 11, Type (0, 0), BuildingBlock: OJICUG_clean_linker_0, # of connection points: 2
# Relax obj value: 0.169
# Max RMSD: 0.210
# Mean RMSD: 0.210
data_MOF--net-unc--node1-AZAVOO_clean_sbu_0--edge1-OJICUG_clean_linker_0
_symmetry_space_group_name_H-M    P1
_symmetry_Int_Tables_number       1
_symmetry_cell_setting            triclinic
loop_
_symmetry_equiv_pos_as_xyz
'x, y, z'
_cell_length_a     19.598654
_cell_length_b     19.402786
_cell_length_c     19.172867
_cell_angle_alpha  91.713605
_cell_angle_beta   88.277362
_cell_angle_gamma 104.09024
loop_
_atom_site_label
_atom_site_type_symbol
_atom_site_fract_x
_atom_site_fract_y
_atom_site_fract_z
_atom_type_partial_charge
Mg0 Mg 1.03551 0.7099 -0.04483 0.0
O1 O 0.14099 0.77996 -0.00497 0.0
O2 O 0.20158 0.70328 0.02917 0.0
Mg3 Mg 0.13691 0.58896 0.01788 0.0
C4 C 0.19625 0.76666 0.01986 0.0
C5 C 0.97888 0.78264 0.83979 0.0
O6 O 0.97065 0.71617 0.81854 0.0
O7 O 0.09256 0.67762 0.85915 0.0
O8 O 0.14601 0.59754 0.8988 0.0
O9 O 0.98779 0.71102 0.06256 0.0
O10 O 1.04242 0.63054 0.02219 0.0
C11 C 0.12948 0.63217 0.84901 0.0
C12 C 1.0126 0.65634 0.07383 0.0
O13 O 1.00827 0.80181 0.89788 0.0
Mg14 Mg 0.50007 0.15288 0.17313 0.0
O15 O 0.42615 0.04971 0.13067 0.0
O16 O 0.49612 0.98283 0.08676 0.0
Mg17 Mg 0.61142 1.0422 0.09608 0.0
C18 C 0.43499 0.99264 0.10071 0.0
C19 C 0.36588 0.21138 0.21336 0.0
O20 O 0.36746 0.22284 0.14608 0.0
O21 O 0.52868 0.09381 0.26395 0.0
O22 O 0.6026 1.03384 0.21513 0.0
O23 O 0.50187 0.20165 0.06846 0.0
O24 O 0.57776 0.14209 0.10107 0.0
C25 C 0.57069 0.05318 0.26847 0.0
C26 C 0.55424 0.17375 0.05268 0.0
O27 O 0.41059 0.18147 0.23796 0.0
Mg28 Mg 0.15549 0.4954 0.44374 0.0
O29 O 1.05268 0.42137 0.48571 0.0
O30 O 0.98765 0.49293 0.53025 0.0
Mg31 Mg 1.04787 0.6091 0.52196 0.0
C32 C 0.99646 0.43093 0.51581 0.0
C33 C 0.21408 0.36111 0.40217 0.0
O34 O 0.2264 0.36346 0.46929 0.0
O35 O 0.09744 0.52612 0.35348 0.0
O36 O 1.03927 0.60164 0.40275 0.0
O37 O 0.20366 0.49513 0.54812 0.0
O38 O 0.14582 0.57326 0.51682 0.0
C39 C 0.05792 0.56929 0.34922 0.0
C40 C 0.17674 0.54829 0.56477 0.0
O41 O 0.1831 0.4053 0.37784 0.0
Mg42 Mg 0.71359 1.02911 0.66142 0.0
O43 O 0.78317 0.13574 0.62189 0.0
O44 O 0.70802 0.19802 0.58834 0.0
Mg45 Mg 0.59459 0.13392 0.60123 0.0
C46 C 0.77057 0.19185 0.59716 0.0
C47 C 0.82246 0.94456 0.68968 0.0
O48 O 0.78933 0.91304 0.63448 0.0
O49 O 0.6834 0.08521 0.75951 0.0
O50 O 0.60573 0.14137 0.71984 0.0
O51 O 0.71265 0.98255 0.55316 0.0
O52 O 0.63376 1.03747 0.59564 0.0
C53 C 0.63925 0.1236 0.76965 0.0
C54 C 0.65843 1.00771 0.5432 0.0
O55 O 0.80613 1.00001 0.71484 0.0
C56 C 0.99984 0.66817 0.20369 0.0
C57 C 1.0152 0.62962 0.14468 0.0
H58 H 1.0009 0.67906 0.315 0.0
C59 C 1.03772 0.5671 0.15387 0.0
H60 H 0.98194 0.71629 0.19823 0.0
C61 C 1.04915 0.54603 0.2205 0.0
C62 C 1.03749 0.58659 0.27949 0.0
H63 H 1.0482 0.53513 0.10948 0.0
H64 H 0.06871 0.49883 0.22558 0.0
C65 C 1.01074 0.64675 0.27056 0.0
C66 C 0.54896 0.04663 0.39757 0.0
C67 C 0.58765 1.03267 0.33827 0.0
H68 H 0.53982 0.04755 0.50875 0.0
C69 C 0.64606 1.00377 0.34685 0.0
H70 H 0.50314 0.06792 0.39276 0.0
C71 C 0.66772 0.99306 0.41353 0.0
C72 C 0.63118 1.01071 0.47279 0.0
H73 H 0.67689 0.99209 0.3022 0.0
H74 H 0.71448 0.97337 0.41858 0.0
C75 C 0.57028 1.03535 0.46412 0.0
C76 C 0.13685 0.65574 0.72118 0.0
C77 C 0.14972 0.61544 0.77671 0.0
H78 H 0.13727 0.66715 0.61085 0.0
C79 C 0.17797 0.55631 0.762 0.0
H80 H 0.11599 0.7021 0.73062 0.0
C81 C 0.18948 0.53576 0.69302 0.0
C82 C 0.17313 0.57408 0.6376 0.0
H83 H 0.18884 0.52426 0.80361 0.0
H84 H 0.20875 0.4885 0.68317 0.0
C85 C 0.14875 0.63545 0.65242 0.0
C86 C 0.54377 0.18654 -0.07577 0.0
C87 C 0.5806 0.16954 -0.01979 0.0
H88 H 0.53363 0.18569 0.81357 0.0
C89 C 0.64086 0.14374 -0.03369 0.0
H90 H 0.49743 0.20693 -0.06665 0.0
C91 C 0.6614 0.13095 0.89784 0.0
C92 C 0.6225 0.14442 0.84176 0.0
H93 H 0.67147 0.13181 0.00837 0.0
H94 H 0.70681 0.109 0.88903 0.0
C95 C 0.56459 0.17422 0.85561 0.0
C96 C 0.38083 0.86661 0.06596 0.0
C97 C 0.37295 0.93567 0.08056 0.0
H98 H 0.3317 0.7598 0.03559 0.0
C99 C 0.30615 0.94937 0.07414 0.0
H100 H 0.43141 0.85406 0.07044 0.0
C101 C 0.24862 0.89503 0.05308 0.0
C102 C 0.25668 0.82581 0.03926 0.0
H103 H 0.29848 1.00217 0.08463 0.0
H104 H 0.19775 0.90694 0.04865 0.0
C105 C 0.32346 0.81239 0.04605 0.0
C106 C 0.32232 0.23497 0.33405 0.0
C107 C 0.31922 0.24148 0.26139 0.0
H108 H 0.29114 0.26705 0.43545 0.0
C109 C 0.27531 0.28184 0.23555 0.0
H110 H 0.35521 0.20391 0.3558 0.0
C111 C 0.23846 0.31805 0.28133 0.0
C112 C 0.24472 0.31476 0.354 0.0
H113 H 0.27131 0.28764 0.17992 0.0
H114 H 0.20713 0.35073 0.25961 0.0
C115 C 0.2855 0.27121 0.37981 0.0
C116 C 0.89782 0.2433 0.56346 0.0
C117 C 0.8296 0.25231 0.57736 0.0
H118 H 1.00417 0.2925 0.53179 0.0
C119 C 0.81712 0.32008 0.57037 0.0
H120 H 0.909 0.19165 0.56803 0.0
C121 C 0.87132 0.37752 0.55031 0.0
C122 C 0.93941 0.36872 0.53575 0.0
H123 H 0.76531 0.32906 0.58084 0.0
H124 H 0.85954 0.42891 0.54575 0.0
C125 C 0.95213 0.30089 0.54225 0.0
C126 C 0.89676 0.93316 0.79224 0.0
C127 C 0.87119 0.91024 0.7255 0.0
H128 H 0.95166 0.911 0.8811 0.0
C129 C 0.8879 0.8496 0.69471 0.0
H130 H 0.88495 0.97979 0.81735 0.0
C131 C 0.92558 0.81043 0.73102 0.0
C132 C 0.94795 0.83086 0.79911 0.0
H133 H 0.86983 0.83071 0.64314 0.0
H134 H 0.93537 0.76273 0.70624 0.0
C135 C 0.93499 0.89383 0.82873 0.0
loop_
_geom_bond_atom_site_label_1
_geom_bond_atom_site_label_2
_geom_bond_distance
_geom_bond_site_symmetry_2
_ccdc_geom_bond_type
Mg0 O1 2.030 . S
Mg0 O7 1.977 1_554 S
Mg0 O9 2.123 1_455 S
Mg0 O10 2.257 . S
Mg0 O13 2.007 1_454 S
O1 Mg0 2.030 . S
O1 C4 1.250 . S
O2 Mg3 2.028 . S
O2 C4 1.248 . S
Mg3 O2 2.028 . S
Mg3 O8 2.032 1_554 S
Mg3 O10 2.079 . S
C4 O1 1.250 . S
C4 O2 1.248 . S
C5 O6 1.264 . S
C5 O13 1.249 . S
O6 C5 1.264 . S
O7 Mg0 1.977 1_556 S
O7 C11 1.246 . S
O8 Mg3 2.032 1_556 S
O8 C11 1.259 . S
O9 Mg0 2.123 1_655 S
O9 C12 1.252 1_655 S
O10 Mg0 2.257 . S
O10 Mg3 2.079 . S
O10 C12 1.273 . S
C11 O7 1.246 . S
C11 O8 1.259 . S
C12 O9 1.252 1_455 S
C12 O10 1.273 . S
O13 Mg0 2.007 1_656 S
O13 C5 1.249 . S
Mg14 O15 2.028 . S
Mg14 O21 1.986 . S
Mg14 O23 2.114 . S
Mg14 O24 2.251 . S
Mg14 O27 2.010 . S
O15 Mg14 2.028 . S
O15 C18 1.250 1_545 S
O16 Mg17 2.028 . S
O16 C18 1.248 . S
Mg17 O16 2.028 . S
Mg17 O22 2.032 . S
Mg17 O24 2.079 1_565 S
C18 O15 1.250 1_565 S
C18 O16 1.248 . S
C19 O20 1.264 . S
C19 O27 1.249 . S
O20 C19 1.264 . S
O21 Mg14 1.986 . S
O21 C25 1.246 . S
O22 Mg17 2.032 . S
O22 C25 1.259 1_565 S
O23 Mg14 2.114 . S
O23 C26 1.252 . S
O24 Mg14 2.251 . S
O24 Mg17 2.079 1_545 S
O24 C26 1.273 . S
C25 O21 1.246 . S
C25 O22 1.259 1_545 S
C26 O23 1.252 . S
C26 O24 1.273 . S
O27 Mg14 2.010 . S
O27 C19 1.249 . S
Mg28 O29 2.028 . S
Mg28 O35 1.986 . S
Mg28 O37 2.114 . S
Mg28 O38 2.251 . S
Mg28 O41 2.010 . S
O29 Mg28 2.028 . S
O29 C32 1.250 1_455 S
O30 Mg31 2.028 . S
O30 C32 1.248 . S
Mg31 O30 2.028 . S
Mg31 O36 2.032 . S
Mg31 O38 2.079 1_655 S
C32 O29 1.250 1_655 S
C32 O30 1.248 . S
C33 O34 1.264 . S
C33 O41 1.249 . S
O34 C33 1.264 . S
O35 Mg28 1.986 . S
O35 C39 1.246 . S
O36 Mg31 2.032 . S
O36 C39 1.259 1_655 S
O37 Mg28 2.114 . S
O37 C40 1.252 . S
O38 Mg28 2.251 . S
O38 Mg31 2.079 1_455 S
O38 C40 1.273 . S
C39 O35 1.246 . S
C39 O36 1.259 1_455 S
C40 O37 1.252 . S
C40 O38 1.273 . S
O41 Mg28 2.010 . S
O41 C33 1.249 . S
Mg42 O43 2.028 . S
Mg42 O49 1.986 . S
Mg42 O51 2.114 1_545 S
Mg42 O52 2.251 . S
Mg42 O55 2.010 1_545 S
O43 Mg42 2.028 . S
O43 C46 1.250 . S
O44 Mg45 2.028 . S
O44 C46 1.248 . S
Mg45 O44 2.028 . S
Mg45 O50 2.032 . S
Mg45 O52 2.079 . S
C46 O43 1.250 . S
C46 O44 1.248 . S
C47 O48 1.264 . S
C47 O55 1.249 . S
O48 C47 1.264 . S
O49 Mg42 1.986 . S
O49 C53 1.246 . S
O50 Mg45 2.032 . S
O50 C53 1.259 . S
O51 Mg42 2.114 1_565 S
O51 C54 1.252 1_565 S
O52 Mg42 2.251 . S
O52 Mg45 2.079 . S
O52 C54 1.273 . S
C53 O49 1.246 . S
C53 O50 1.259 . S
C54 O51 1.252 1_545 S
C54 O52 1.273 . S
O55 Mg42 2.010 1_565 S
O55 C47 1.249 . S
C56 C57 1.387 1_655 S
C56 H60 0.950 . S
C56 C65 1.390 . S
C57 C56 1.387 1_455 S
C57 C59 1.387 . S
H58 C65 0.950 . S
C59 C57 1.387 . S
C59 C61 1.390 . S
C59 H63 0.950 . S
H60 C56 0.950 . S
C61 C59 1.390 . S
C61 C62 1.387 . S
C61 H64 0.950 . S
C62 C61 1.387 . S
C62 C65 1.387 1_455 S
H63 C59 0.950 . S
H64 C61 0.950 . S
C65 C56 1.390 . S
C65 H58 0.950 . S
C65 C62 1.387 1_655 S
C66 C67 1.387 . S
C66 H70 0.950 . S
C66 C75 1.390 . S
C67 C66 1.387 . S
C67 C69 1.387 1_545 S
H68 C75 0.950 . S
C69 C67 1.387 1_565 S
C69 C71 1.390 . S
C69 H73 0.950 . S
H70 C66 0.950 . S
C71 C69 1.390 . S
C71 C72 1.387 1_565 S
C71 H74 0.950 . S
C72 C71 1.387 1_545 S
C72 C75 1.387 . S
H73 C69 0.950 . S
H74 C71 0.950 . S
C75 C66 1.390 . S
C75 H68 0.950 . S
C75 C72 1.387 . S
C76 C77 1.387 . S
C76 H80 0.950 1_455 S
C76 C85 1.390 . S
C77 C76 1.387 . S
C77 C79 1.387 . S
H78 C85 0.950 1_655 S
C79 C77 1.387 . S
C79 C81 1.390 . S
C79 H83 0.950 . S
H80 C76 0.950 1_655 S
C81 C79 1.390 . S
C81 C82 1.387 . S
C81 H84 0.950 . S
C82 C81 1.387 . S
C82 C85 1.387 . S
H83 C79 0.950 . S
H84 C81 0.950 . S
C85 C76 1.390 . S
C85 H78 0.950 1_455 S
C85 C82 1.387 . S
C86 C87 1.387 . S
C86 H90 0.950 . S
C86 C95 1.390 1_554 S
C87 C86 1.387 . S
C87 C89 1.387 . S
H88 C95 0.950 . S
C89 C87 1.387 . S
C89 C91 1.390 . S
C89 H93 0.950 . S
H90 C86 0.950 . S
C91 C89 1.390 . S
C91 C92 1.387 1_554 S
C91 H94 0.950 1_545 S
C92 C91 1.387 1_556 S
C92 C95 1.387 . S
H93 C89 0.950 . S
H94 C91 0.950 1_565 S
C95 C86 1.390 1_556 S
C95 H88 0.950 . S
C95 C92 1.387 . S
C96 C97 1.387 . S
C96 H100 0.950 . S
C96 C105 1.390 . S
C97 C96 1.387 . S
C97 C99 1.387 . S
H98 C105 0.950 1_556 S
C99 C97 1.387 . S
C99 C101 1.390 . S
C99 H103 0.950 . S
H100 C96 0.950 . S
C101 C99 1.390 . S
C101 C102 1.387 . S
C101 H104 0.950 . S
C102 C101 1.387 . S
C102 C105 1.387 . S
H103 C99 0.950 . S
H104 C101 0.950 . S
C105 C96 1.390 . S
C105 H98 0.950 1_554 S
C105 C102 1.387 . S
C106 C107 1.387 . S
C106 H110 0.950 . S
C106 C115 1.390 . S
C107 C106 1.387 . S
C107 C109 1.387 . S
H108 C115 0.950 . S
C109 C107 1.387 . S
C109 C111 1.390 . S
C109 H113 0.950 . S
H110 C106 0.950 . S
C111 C109 1.390 . S
C111 C112 1.387 . S
C111 H114 0.950 . S
C112 C111 1.387 . S
C112 C115 1.387 . S
H113 C109 0.950 . S
H114 C111 0.950 . S
C115 C106 1.390 . S
C115 H108 0.950 . S
C115 C112 1.387 . S
C116 C117 1.387 . S
C116 H120 0.950 . S
C116 C125 1.390 . S
C117 C116 1.387 . S
C117 C119 1.387 . S
H118 C125 0.950 . S
C119 C117 1.387 . S
C119 C121 1.390 . S
C119 H123 0.950 . S
H120 C116 0.950 . S
C121 C119 1.390 . S
C121 C122 1.387 . S
C121 H124 0.950 . S
C122 C121 1.387 . S
C122 C125 1.387 . S
H123 C119 0.950 . S
H124 C121 0.950 . S
C125 C116 1.390 . S
C125 H118 0.950 . S
C125 C122 1.387 . S
C126 C127 1.387 . S
C126 H130 0.950 . S
C126 C135 1.390 . S
C127 C126 1.387 . S
C127 C129 1.387 . S
H128 C135 0.950 . S
C129 C127 1.387 . S
C129 C131 1.390 . S
C129 H133 0.950 . S
H130 C126 0.950 . S
C131 C129 1.390 . S
C131 C132 1.387 . S
C131 H134 0.950 . S
C132 C131 1.387 . S
C132 C135 1.387 . S
H133 C129 0.950 . S
H134 C131 0.950 . S
C135 C126 1.390 . S
C135 H128 0.950 . S
C135 C132 1.387 . S
C57 C12 1.201 . S
C62 C39 1.185 . S
C67 C25 1.182 . S
C72 C54 1.199 . S
C77 C11 1.182 . S
C82 C40 1.199 . S
C87 C26 1.200 . S
C92 C53 1.185 . S
C97 C18 1.513 . S
C102 C4 1.511 . S
C107 C19 1.342 . S
C112 C33 1.337 . S
C117 C46 1.513 . S
C122 C32 1.511 . S
C127 C47 1.340 . S
C132 C5 1.340 . S
