# Generated by pormake.
# Topology snp, (6)-cn, num edge types: 1
# Building blocks:
#     Node 0, Type 0, BuildingBlock: LEVNOQ01_clean_sbu_1, # of connection points: 6
#     Node 1, Type 0, BuildingBlock: LEVNOQ01_clean_sbu_1, # of connection points: 6
#     Node 2, Type 0, BuildingBlock: LEVNOQ01_clean_sbu_1, # of connection points: 6
#     Node 3, Type 0, BuildingBlock: LEVNOQ01_clean_sbu_1, # of connection points: 6
#     Edge 4, Type (0, 0), None
#     Edge 5, Type (0, 0), None
#     Edge 6, Type (0, 0), None
#     Edge 7, Type (0, 0), None
#     Edge 8, Type (0, 0), None
#     Edge 9, Type (0, 0), None
#     Edge 10, Type (0, 0), None
#     Edge 11, Type (0, 0), None
#     Edge 12, Type (0, 0), None
#     Edge 13, Type (0, 0), None
#     Edge 14, Type (0, 0), None
#     Edge 15, Type (0, 0), None
# Relax obj value: 0.503
# Max RMSD: 0.251
# Mean RMSD: 0.247
data_MOF--net-snp--node1-LEVNOQ01_clean_sbu_1--edge1-none
_symmetry_space_group_name_H-M    P1
_symmetry_Int_Tables_number       1
_symmetry_cell_setting            triclinic
loop_
_symmetry_equiv_pos_as_xyz
'x, y, z'
_cell_length_a     13.785009
_cell_length_b     13.770657
_cell_length_c     11.511614
_cell_angle_alpha  92.494461
_cell_angle_beta   92.465759
_cell_angle_gamma 96.218424
loop_
_atom_site_label
_atom_site_type_symbol
_atom_site_fract_x
_atom_site_fract_y
_atom_site_fract_z
_atom_type_partial_charge
O0 O 0.0566 0.1152 0.91669 0.0
Mg1 Mg 0.00661 -0.01696 0.819 0.0
O2 O 0.20752 0.08293 0.90215 0.0
Mg3 Mg 0.18033 -0.0548 0.02965 0.0
O4 O 0.03542 0.92791 0.96644 0.0
O5 O 0.88648 0.90693 0.90206 0.0
O6 O 0.14272 0.81232 0.15269 0.0
O7 O 0.14737 0.06278 0.17251 0.0
Mg8 Mg 0.32453 -0.03479 0.27794 0.0
O9 O 0.32901 -0.04375 0.09894 0.0
O10 O 0.22772 0.83409 0.32195 0.0
O11 O 0.25472 0.0983 0.3215 0.0
O12 O 0.46629 -0.04036 0.19726 0.0
C13 C 0.13944 0.82299 0.78953 0.0
C14 C 0.14289 0.1439 0.89254 0.0
C15 C -0.05004 0.89363 0.98187 0.0
C16 C 0.16113 0.78514 0.25576 0.0
C17 C 0.17665 0.11456 0.26536 0.0
C18 C 0.42076 -0.04577 0.09694 0.0
O19 O 0.12287 0.90545 0.75074 0.0
O20 O 0.19319 0.82418 0.88342 0.0
O21 O 0.85595 0.22824 0.84381 0.0
Mg22 Mg -0.02906 0.33738 0.78517 0.0
O23 O 0.86333 0.13106 0.68668 0.0
Mg24 Mg -0.01045 0.18278 0.55495 0.0
O25 O -0.03639 0.32959 0.60484 0.0
O26 O -0.05913 0.46685 0.69271 0.0
O27 O 0.11839 0.21208 0.42293 0.0
O28 O 0.86251 0.17971 0.39456 0.0
Mg29 Mg -0.04606 0.0363 0.38657 0.0
O30 O 0.0408 0.04131 0.52406 0.0
O31 O 0.01796 0.14912 0.28203 0.0
O32 O 0.79974 0.03594 0.42938 0.0
O33 O 0.02478 0.91317 0.39726 0.0
C34 C 0.1417 0.21606 0.80189 0.0
C35 C 0.82595 0.14935 0.78469 0.0
C36 C -0.05584 0.41702 0.59605 0.0
C37 C 0.10492 0.17593 0.31782 0.0
C38 C 0.79417 0.10931 0.36969 0.0
C39 C -0.01364 -0.02937 0.47015 0.0
O40 O 0.11584 0.29845 0.83596 0.0
O41 O 0.10422 0.17571 0.70631 0.0
O42 O 0.67699 0.03915 0.76853 0.0
Mg43 Mg 0.56228 0.9217 0.80809 0.0
O44 O 0.76913 0.03751 0.93232 0.0
Mg45 Mg 0.70404 0.90068 0.04618 0.0
O46 O 0.55834 0.92411 0.98437 0.0
O47 O 0.42538 -0.05284 0.88707 0.0
O48 O 0.66487 0.76478 0.16463 0.0
O49 O 0.6965 0.01993 0.21263 0.0
Mg50 Mg 0.8628 0.92971 0.26322 0.0
O51 O 0.8364 0.86506 0.11373 0.0
O52 O 0.72477 0.85693 0.31546 0.0
O53 O 0.84677 0.07008 0.19222 0.0
O54 O -0.01634 0.87703 0.17948 0.0
C55 C 0.68075 0.74625 0.78979 0.0
C56 C 0.75198 0.07362 0.8327 0.0
C57 C 0.4695 -0.05877 0.98685 0.0
C58 C 0.70073 0.77162 0.27022 0.0
C59 C 0.77071 0.08246 0.24366 0.0
C60 C -0.07671 0.86221 0.09209 0.0
O61 O 0.59989 0.77654 0.75774 0.0
O62 O 0.72656 0.7855 0.88288 0.0
O63 O 0.78034 0.6224 0.25327 0.0
Mg64 Mg 0.91141 0.54724 0.29484 0.0
O65 O 0.81484 0.7237 0.40805 0.0
Mg66 Mg -0.06407 0.69503 0.54396 0.0
O67 O -0.07792 0.54888 0.47473 0.0
O68 O 0.92004 0.40857 0.38514 0.0
O69 O 0.06072 0.68741 0.67815 0.0
O70 O 0.81337 0.66298 0.70007 0.0
Mg71 Mg 0.86129 0.83662 0.7078 0.0
O72 O -0.0402 0.84415 0.59337 0.0
O73 O -0.02562 0.76097 0.80434 0.0
O74 O 0.73654 0.76276 0.6069 0.0
O75 O 0.87583 -0.03506 0.62009 0.0
C76 C 0.0875 0.71211 0.30735 0.0
C77 C 0.7637 0.69808 0.3143 0.0
C78 C -0.07325 0.45847 0.4827 0.0
C79 C 0.05814 0.7423 0.7702 0.0
C80 C 0.73701 0.70858 0.69055 0.0
C81 C -0.06962 0.91998 0.55506 0.0
O82 O 0.0429 0.64081 0.24435 0.0
O83 O 0.05712 0.73338 0.40797 0.0
loop_
_geom_bond_atom_site_label_1
_geom_bond_atom_site_label_2
_geom_bond_distance
_geom_bond_site_symmetry_2
_ccdc_geom_bond_type
O0 Mg1 1.990 . S
O0 C14 1.253 . S
Mg1 O0 1.990 . S
Mg1 O4 2.180 1_546 S
Mg1 O5 2.117 1_455 S
Mg1 O19 2.030 1_545 S
O2 Mg3 2.072 1_546 S
O2 C14 1.260 . S
Mg3 O2 2.072 1_564 S
Mg3 O4 2.099 . S
Mg3 O6 2.079 . S
Mg3 O7 2.072 1_565 S
Mg3 O9 2.099 . S
Mg3 O20 2.079 1_554 S
O4 Mg1 2.180 1_564 S
O4 Mg3 2.099 . S
O4 C15 1.279 1_465 S
O5 Mg1 2.117 1_655 S
O5 C15 1.250 1_556 S
O6 Mg3 2.079 . S
O6 C16 1.264 . S
O7 Mg3 2.072 1_545 S
O7 C17 1.260 . S
Mg8 O9 2.180 1_545 S
Mg8 O10 2.030 1_545 S
Mg8 O11 1.990 . S
Mg8 O12 2.117 . S
O9 Mg3 2.099 . S
O9 Mg8 2.180 1_565 S
O9 C18 1.279 1_565 S
O10 Mg8 2.030 1_565 S
O10 C16 1.248 . S
O11 Mg8 1.990 . S
O11 C17 1.253 . S
O12 Mg8 2.117 . S
O12 C18 1.250 . S
C13 O19 1.248 . S
C13 O20 1.264 . S
C14 O0 1.253 . S
C14 O2 1.260 . S
C15 O4 1.279 1_645 S
C15 O5 1.250 1_554 S
C16 O6 1.264 . S
C16 O10 1.248 . S
C17 O7 1.260 . S
C17 O11 1.253 . S
C18 O9 1.279 1_545 S
C18 O12 1.250 . S
O19 Mg1 2.030 1_565 S
O19 C13 1.248 . S
O20 Mg3 2.079 1_556 S
O20 C13 1.264 . S
O21 Mg22 1.990 1_655 S
O21 C35 1.253 . S
Mg22 O21 1.990 1_455 S
Mg22 O25 2.180 . S
Mg22 O26 2.117 1_455 S
Mg22 O40 2.030 . S
O23 Mg24 2.072 1_655 S
O23 C35 1.260 . S
Mg24 O23 2.072 1_455 S
Mg24 O25 2.099 . S
Mg24 O27 2.079 . S
Mg24 O28 2.072 1_455 S
Mg24 O30 2.099 . S
Mg24 O41 2.079 . S
O25 Mg22 2.180 . S
O25 Mg24 2.099 . S
O25 C36 1.279 . S
O26 Mg22 2.117 1_655 S
O26 C36 1.250 1_655 S
O27 Mg24 2.079 . S
O27 C37 1.264 . S
O28 Mg24 2.072 1_655 S
O28 C38 1.260 . S
Mg29 O30 2.180 . S
Mg29 O31 2.030 . S
Mg29 O32 1.990 1_455 S
Mg29 O33 2.117 1_445 S
O30 Mg24 2.099 . S
O30 Mg29 2.180 . S
O30 C39 1.278 1_445 S
O31 Mg29 2.030 . S
O31 C37 1.248 . S
O32 Mg29 1.990 1_655 S
O32 C38 1.253 . S
O33 Mg29 2.117 1_665 S
O33 C39 1.251 . S
C34 O40 1.248 . S
C34 O41 1.264 . S
C35 O21 1.253 . S
C35 O23 1.260 . S
C36 O25 1.279 . S
C36 O26 1.250 1_455 S
C37 O27 1.264 . S
C37 O31 1.248 . S
C38 O28 1.260 . S
C38 O32 1.253 . S
C39 O30 1.278 1_665 S
C39 O33 1.251 . S
O40 Mg22 2.030 . S
O40 C34 1.248 . S
O41 Mg24 2.079 . S
O41 C34 1.264 . S
O42 Mg43 1.990 1_545 S
O42 C56 1.253 . S
Mg43 O42 1.990 1_565 S
Mg43 O46 2.180 . S
Mg43 O47 2.117 1_565 S
Mg43 O61 2.030 . S
O44 Mg45 2.072 1_546 S
O44 C56 1.260 . S
Mg45 O44 2.072 1_564 S
Mg45 O46 2.099 1_554 S
Mg45 O48 2.079 . S
Mg45 O49 2.072 1_565 S
Mg45 O51 2.099 . S
Mg45 O62 2.079 1_554 S
O46 Mg43 2.180 . S
O46 Mg45 2.099 1_556 S
O46 C57 1.279 1_565 S
O47 Mg43 2.117 1_545 S
O47 C57 1.250 . S
O48 Mg45 2.079 . S
O48 C58 1.264 . S
O49 Mg45 2.072 1_545 S
O49 C59 1.260 . S
Mg50 O51 2.180 1_445 S
Mg50 O52 2.030 1_445 S
Mg50 O53 1.990 1_455 S
Mg50 O54 2.117 . S
O51 Mg45 2.099 . S
O51 Mg50 2.180 1_665 S
O51 C60 1.279 1_665 S
O52 Mg50 2.030 1_665 S
O52 C58 1.248 . S
O53 Mg50 1.990 1_655 S
O53 C59 1.253 . S
O54 Mg50 2.117 . S
O54 C60 1.250 . S
C55 O61 1.248 . S
C55 O62 1.264 . S
C56 O42 1.253 . S
C56 O44 1.260 . S
C57 O46 1.279 1_545 S
C57 O47 1.250 . S
C58 O48 1.264 . S
C58 O52 1.248 . S
C59 O49 1.260 . S
C59 O53 1.253 . S
C60 O51 1.279 1_445 S
C60 O54 1.250 . S
O61 Mg43 2.030 . S
O61 C55 1.248 . S
O62 Mg45 2.079 1_556 S
O62 C55 1.264 . S
O63 Mg64 1.990 1_655 S
O63 C77 1.253 . S
Mg64 O63 1.990 1_455 S
Mg64 O67 2.180 . S
Mg64 O68 2.117 1_455 S
Mg64 O82 2.030 . S
O65 Mg66 2.072 1_655 S
O65 C77 1.260 . S
Mg66 O65 2.072 1_455 S
Mg66 O67 2.099 . S
Mg66 O69 2.079 . S
Mg66 O70 2.072 1_455 S
Mg66 O72 2.099 . S
Mg66 O83 2.079 . S
O67 Mg64 2.180 . S
O67 Mg66 2.099 . S
O67 C78 1.279 1_455 S
O68 Mg64 2.117 1_655 S
O68 C78 1.250 . S
O69 Mg66 2.079 . S
O69 C79 1.264 . S
O70 Mg66 2.072 1_655 S
O70 C80 1.260 . S
Mg71 O72 2.180 . S
Mg71 O73 2.030 . S
Mg71 O74 1.990 1_455 S
Mg71 O75 2.117 1_465 S
O72 Mg66 2.099 . S
O72 Mg71 2.180 . S
O72 C81 1.279 1_465 S
O73 Mg71 2.030 . S
O73 C79 1.248 . S
O74 Mg71 1.990 1_655 S
O74 C80 1.253 . S
O75 Mg71 2.117 1_645 S
O75 C81 1.250 . S
C76 O82 1.248 . S
C76 O83 1.264 . S
C77 O63 1.253 . S
C77 O65 1.260 . S
C78 O67 1.279 1_655 S
C78 O68 1.250 . S
C79 O69 1.264 . S
C79 O73 1.248 . S
C80 O70 1.260 . S
C80 O74 1.253 . S
C81 O72 1.279 1_645 S
C81 O75 1.250 . S
O82 Mg64 2.030 . S
O82 C76 1.248 . S
O83 Mg66 2.079 . S
O83 C76 1.264 . S
C60 C15 1.039 1_455 S
C81 C39 1.040 1_545 S
C57 C18 1.711 1_556 S
C36 C78 1.711 1_455 S
C37 C17 1.619 . S
C35 C56 2.191 . S
C77 C58 1.620 . S
C79 C13 0.890 . S
C55 C80 1.635 . S
C16 C76 1.953 . S
C34 C14 1.634 . S
C59 C38 1.195 . S
