# Generated by pormake.
# Topology sma, (6)-cn, num edge types: 1
# Building blocks:
#     Node 0, Type 0, BuildingBlock: BETDEL_clean_sbu_0, # of connection points: 6
#     Node 1, Type 0, BuildingBlock: BETDEL_clean_sbu_0, # of connection points: 6
#     Node 2, Type 0, BuildingBlock: BETDEL_clean_sbu_0, # of connection points: 6
#     Edge 3, Type (0, 0), BuildingBlock: EYOCIG_clean_linker_4, # of connection points: 2
#     Edge 4, Type (0, 0), BuildingBlock: EYOCIG_clean_linker_4, # of connection points: 2
#     Edge 5, Type (0, 0), BuildingBlock: EYOCIG_clean_linker_4, # of connection points: 2
#     Edge 6, Type (0, 0), BuildingBlock: EYOCIG_clean_linker_4, # of connection points: 2
#     Edge 7, Type (0, 0), BuildingBlock: EYOCIG_clean_linker_4, # of connection points: 2
#     Edge 8, Type (0, 0), BuildingBlock: EYOCIG_clean_linker_4, # of connection points: 2
#     Edge 9, Type (0, 0), BuildingBlock: EYOCIG_clean_linker_4, # of connection points: 2
#     Edge 10, Type (0, 0), BuildingBlock: EYOCIG_clean_linker_4, # of connection points: 2
#     Edge 11, Type (0, 0), BuildingBlock: EYOCIG_clean_linker_4, # of connection points: 2
# Relax obj value: 0.117
# Max RMSD: 0.198
# Mean RMSD: 0.198
data_MOF--net-sma--node1-BETDEL_clean_sbu_0--edge1-EYOCIG_clean_linker_4
_symmetry_space_group_name_H-M    P1
_symmetry_Int_Tables_number       1
_symmetry_cell_setting            triclinic
loop_
_symmetry_equiv_pos_as_xyz
'x, y, z'
_cell_length_a     25.609953
_cell_length_b     25.587966
_cell_length_c     11.429918
_cell_angle_alpha  90.083606
_cell_angle_beta   90.001482
_cell_angle_gamma 119.99449
loop_
_atom_site_label
_atom_site_type_symbol
_atom_site_fract_x
_atom_site_fract_y
_atom_site_fract_z
_atom_type_partial_charge
Dy0 Dy 0.09455 0.51321 0.10784 0.0
C1 C 0.91379 0.57908 0.07854 0.0
C2 C 0.183 0.49483 0.01924 0.0
Dy3 Dy 1.00682 0.55675 0.11029 0.0
O4 O 0.16829 0.48997 0.12901 0.0
O5 O 0.1495 0.50918 -0.04199 0.0
O6 O 0.07628 0.4789 0.28944 0.0
O7 O 0.06734 0.55488 0.24506 0.0
C8 C 0.05903 0.51642 0.3236 0.0
C9 C 1.04725 0.54784 0.89964 0.0
O10 O 0.08566 0.64322 0.17045 0.0
O11 O 0.15499 0.6153 0.11159 0.0
O12 O 0.9553 0.58914 0.00374 0.0
O13 O 0.92338 0.5582 0.17511 0.0
O14 O 1.04475 0.59441 0.93434 0.0
O15 O 1.03037 0.50899 -0.02045 0.0
O16 O 1.01053 0.42277 0.11546 0.0
O17 O 0.94787 0.46057 0.16607 0.0
C18 C 0.14177 0.65667 0.14828 0.0
C19 C 0.95874 0.4154 0.15564 0.0
Dy20 Dy 0.48955 0.99338 0.43788 0.0
C21 C 0.73632 0.17495 0.42278 0.0
C22 C 0.38263 0.90534 0.34851 0.0
Dy23 Dy 0.62027 0.0812 0.44305 0.0
O24 O 0.39252 0.91974 0.45844 0.0
O25 O 0.43049 0.93893 0.28747 0.0
O26 O 0.472 1.01077 0.61923 0.0
O27 O 0.5576 1.02076 0.57735 0.0
C28 C 0.52659 1.02851 0.65482 0.0
C29 C 0.57272 0.04389 0.22914 0.0
O30 O 0.6256 1.0021 0.51055 0.0
O31 O 0.53114 0.933 0.43979 0.0
O32 O 0.71745 0.11992 0.3907 0.0
O33 O 0.69284 0.17816 0.47426 0.0
O34 O 0.62347 0.05013 0.26151 0.0
O35 O 0.54973 0.05834 0.3108 0.0
O36 O 0.4838 0.07794 0.446 0.0
O37 O 0.58295 0.13894 0.5061 0.0
C38 C 0.58453 0.9461 0.48263 0.0
C39 C 0.52747 0.12892 0.4911 0.0
Dy40 Dy 0.57374 0.59852 0.77201 0.0
C41 C 0.50972 0.35188 0.75769 0.0
C42 C 0.59268 0.70547 0.68288 0.0
Dy43 Dy 0.53102 0.46771 0.77699 0.0
O44 O 0.59724 0.69566 0.79274 0.0
O45 O 0.57835 0.65751 0.62173 0.0
O46 O 0.60836 0.6165 -0.04638 0.0
O47 O 0.53314 0.53054 0.91137 0.0
C48 C 0.57169 0.56182 -0.01095 0.0
C49 C 0.54105 0.51489 0.56299 0.0
O50 O 0.44653 0.46235 0.8442 0.0
O51 O 0.47184 0.55687 0.77406 0.0
O52 O 0.47101 0.36899 0.73559 0.0
O53 O 0.55866 0.39709 0.79901 0.0
O54 O 0.49687 0.46388 0.59517 0.0
O55 O 0.57841 0.53817 0.64469 0.0
O56 O 0.6639 0.60405 0.78105 0.0
O57 O 0.6253 0.5053 0.84407 0.0
C58 C 0.43159 0.50342 0.8167 0.0
C59 C 0.67091 0.56062 0.82817 0.0
C60 C 0.27484 0.48782 0.93177 0.0
C61 C 0.23307 0.49087 -0.02703 0.0
C62 C 0.32697 0.48937 0.88657 0.0
C63 C 0.37449 0.49496 0.85527 0.0
C64 C 0.83097 0.26667 0.3226 0.0
C65 C 0.78752 0.22563 0.36944 0.0
C66 C 0.87768 0.31491 0.25897 0.0
C67 C 0.91657 0.3591 0.20989 0.0
C68 C 0.59852 0.85529 0.55131 0.0
C69 C 0.59301 0.89736 0.52059 0.0
C70 C 0.59994 0.80451 0.59576 0.0
C71 C 0.59674 0.75954 0.63653 0.0
C72 C 0.77109 0.58096 0.93408 0.0
C73 C 0.72727 0.57555 0.8832 0.0
C74 C 0.81889 0.58223 -0.00106 0.0
C75 C 0.8597 0.57936 0.04577 0.0
C76 C 0.2835 0.8138 0.26076 0.0
C77 C 0.3285 0.85546 0.30186 0.0
C78 C 0.23261 0.76171 0.21609 0.0
C79 C 0.19038 0.71411 0.18578 0.0
C80 C 0.5053 0.25659 0.65622 0.0
C81 C 0.50756 0.30014 0.70269 0.0
C82 C 0.50713 0.20978 0.59323 0.0
C83 C 0.5128 0.17098 0.54434 0.0
C84 C 1.04992 0.53093 0.67331 0.0
C85 C 1.04824 0.53526 0.77791 0.0
C86 C 1.05105 0.52854 0.55024 0.0
C87 C 0.05423 0.5259 0.44556 0.0
C88 C 0.55058 0.03969 0.00413 0.0
C89 C 0.55745 0.04185 0.1084 0.0
C90 C 0.54638 0.03781 0.88135 0.0
C91 C 0.54041 1.034 0.77684 0.0
C92 C 0.55895 0.53735 0.33813 0.0
C93 C 0.5542 0.53031 0.44233 0.0
C94 C 0.56132 0.54179 0.21541 0.0
C95 C 0.56348 0.5479 0.11096 0.0
loop_
_geom_bond_atom_site_label_1
_geom_bond_atom_site_label_2
_geom_bond_distance
_geom_bond_site_symmetry_2
_ccdc_geom_bond_type
Dy0 O4 2.398 . S
Dy0 O5 2.491 . S
Dy0 O6 2.403 . S
Dy0 O7 2.664 1_455 S
Dy0 O11 2.326 . S
Dy0 O15 2.310 . S
Dy0 O16 2.351 1_455 S
C1 O12 1.185 . S
C1 O13 1.355 . S
C2 O4 1.185 . S
C2 O5 1.355 . S
Dy3 O7 2.310 . S
Dy3 O10 2.351 1_655 S
Dy3 O12 2.398 . S
Dy3 O13 2.491 . S
Dy3 O14 2.403 1_554 S
Dy3 O15 2.664 1_655 S
Dy3 O17 2.326 . S
O4 Dy0 2.398 . S
O4 C2 1.185 . S
O5 Dy0 2.491 . S
O5 C2 1.355 . S
O6 Dy0 2.403 . S
O6 C8 1.254 . S
O7 Dy0 2.664 1_655 S
O7 Dy3 2.310 . S
O7 C8 1.268 1_655 S
C8 O6 1.254 . S
C8 O7 1.268 1_455 S
C9 O14 1.254 . S
C9 O15 1.268 1_656 S
O10 Dy3 2.351 1_455 S
O10 C18 1.249 . S
O11 Dy0 2.326 . S
O11 C18 1.267 . S
O12 C1 1.185 . S
O12 Dy3 2.398 . S
O13 C1 1.355 . S
O13 Dy3 2.491 . S
O14 Dy3 2.403 1_556 S
O14 C9 1.254 . S
O15 Dy0 2.310 . S
O15 Dy3 2.664 1_455 S
O15 C9 1.268 1_454 S
O16 Dy0 2.351 1_655 S
O16 C19 1.249 . S
O17 Dy3 2.326 . S
O17 C19 1.267 . S
C18 O10 1.249 . S
C18 O11 1.267 . S
C19 O16 1.249 . S
C19 O17 1.267 . S
Dy20 O24 2.398 . S
Dy20 O25 2.491 . S
Dy20 O26 2.403 . S
Dy20 O27 2.664 1_565 S
Dy20 O31 2.326 . S
Dy20 O35 2.310 . S
Dy20 O36 2.351 1_565 S
C21 O32 1.185 . S
C21 O33 1.355 . S
C22 O24 1.185 . S
C22 O25 1.355 . S
Dy23 O27 2.310 . S
Dy23 O30 2.351 1_545 S
Dy23 O32 2.398 . S
Dy23 O33 2.491 . S
Dy23 O34 2.403 . S
Dy23 O35 2.664 1_545 S
Dy23 O37 2.326 . S
O24 Dy20 2.398 . S
O24 C22 1.185 . S
O25 Dy20 2.491 . S
O25 C22 1.355 . S
O26 Dy20 2.403 . S
O26 C28 1.254 . S
O27 Dy20 2.664 1_545 S
O27 Dy23 2.310 . S
O27 C28 1.268 1_545 S
C28 O26 1.254 . S
C28 O27 1.268 1_565 S
C29 O34 1.254 . S
C29 O35 1.268 1_545 S
O30 Dy23 2.351 1_565 S
O30 C38 1.249 . S
O31 Dy20 2.326 . S
O31 C38 1.267 . S
O32 C21 1.185 . S
O32 Dy23 2.398 . S
O33 C21 1.355 . S
O33 Dy23 2.491 . S
O34 Dy23 2.403 . S
O34 C29 1.254 . S
O35 Dy20 2.310 . S
O35 Dy23 2.664 1_565 S
O35 C29 1.268 1_565 S
O36 Dy20 2.351 1_545 S
O36 C39 1.249 . S
O37 Dy23 2.326 . S
O37 C39 1.267 . S
C38 O30 1.249 . S
C38 O31 1.267 . S
C39 O36 1.249 . S
C39 O37 1.267 . S
Dy40 O44 2.398 . S
Dy40 O45 2.491 . S
Dy40 O46 2.403 1_556 S
Dy40 O47 2.664 . S
Dy40 O51 2.326 . S
Dy40 O55 2.310 . S
Dy40 O56 2.351 . S
C41 O52 1.185 . S
C41 O53 1.355 . S
C42 O44 1.185 . S
C42 O45 1.355 . S
Dy43 O47 2.310 . S
Dy43 O50 2.351 . S
Dy43 O52 2.398 . S
Dy43 O53 2.491 . S
Dy43 O54 2.403 . S
Dy43 O55 2.664 . S
Dy43 O57 2.326 . S
O44 Dy40 2.398 . S
O44 C42 1.185 . S
O45 Dy40 2.491 . S
O45 C42 1.355 . S
O46 Dy40 2.403 1_554 S
O46 C48 1.254 . S
O47 Dy40 2.664 . S
O47 Dy43 2.310 . S
O47 C48 1.268 1_556 S
C48 O46 1.254 . S
C48 O47 1.268 1_554 S
C49 O54 1.254 . S
C49 O55 1.268 . S
O50 Dy43 2.351 . S
O50 C58 1.249 . S
O51 Dy40 2.326 . S
O51 C58 1.267 . S
O52 C41 1.185 . S
O52 Dy43 2.398 . S
O53 C41 1.355 . S
O53 Dy43 2.491 . S
O54 Dy43 2.403 . S
O54 C49 1.254 . S
O55 Dy40 2.310 . S
O55 Dy43 2.664 . S
O55 C49 1.268 . S
O56 Dy40 2.351 . S
O56 C59 1.249 . S
O57 Dy43 2.326 . S
O57 C59 1.267 . S
C58 O50 1.249 . S
C58 O51 1.267 . S
C59 O56 1.249 . S
C59 O57 1.267 . S
C60 C61 1.170 . S
C60 C62 1.380 1_554 S
C61 C60 1.170 . S
C62 C60 1.380 1_556 S
C62 C63 1.170 . S
C63 C62 1.170 . S
C64 C65 1.170 . S
C64 C66 1.380 . S
C65 C64 1.170 . S
C66 C64 1.380 . S
C66 C67 1.170 . S
C67 C66 1.170 . S
C68 C69 1.170 . S
C68 C70 1.380 . S
C69 C68 1.170 . S
C70 C68 1.380 . S
C70 C71 1.170 . S
C71 C70 1.170 . S
C72 C73 1.170 . S
C72 C74 1.380 1_556 S
C73 C72 1.170 . S
C74 C72 1.380 1_554 S
C74 C75 1.170 . S
C75 C74 1.170 . S
C76 C77 1.170 . S
C76 C78 1.380 . S
C77 C76 1.170 . S
C78 C76 1.380 . S
C78 C79 1.170 . S
C79 C78 1.170 . S
C80 C81 1.170 . S
C80 C82 1.380 . S
C81 C80 1.170 . S
C82 C80 1.380 . S
C82 C83 1.170 . S
C83 C82 1.170 . S
C84 C85 1.170 . S
C84 C86 1.380 1_455 S
C85 C84 1.170 . S
C86 C84 1.380 1_655 S
C86 C87 1.170 . S
C87 C86 1.170 . S
C88 C89 1.170 1_545 S
C88 C90 1.380 1_554 S
C89 C88 1.170 1_565 S
C90 C88 1.380 1_556 S
C90 C91 1.170 . S
C91 C90 1.170 . S
C92 C93 1.170 . S
C92 C94 1.380 . S
C93 C92 1.170 . S
C94 C92 1.380 . S
C94 C95 1.170 . S
C95 C94 1.170 . S
C61 C2 1.850 . S
C63 C58 1.749 . S
C65 C21 1.841 . S
C67 C19 1.949 . S
C69 C38 1.765 . S
C71 C42 1.836 . S
C73 C59 1.939 . S
C75 C1 1.820 . S
C77 C22 1.835 . S
C79 C18 1.765 . S
C81 C41 1.820 . S
C83 C39 1.938 . S
C85 C9 0.711 1_455 S
C87 C8 0.768 1_655 S
C89 C29 0.690 1_565 S
C91 C28 0.765 1_545 S
C93 C49 0.709 . S
C95 C48 0.731 . S
