# Generated by pormake.
# Topology uop, (4)-cn, num edge types: 1
# Building blocks:
#     Node 0, Type 0, BuildingBlock: CEKHIL_clean_sbu_0, # of connection points: 4
#     Node 1, Type 0, BuildingBlock: CEKHIL_clean_sbu_0, # of connection points: 4
#     Node 2, Type 0, BuildingBlock: CEKHIL_clean_sbu_0, # of connection points: 4
#     Node 3, Type 0, BuildingBlock: CEKHIL_clean_sbu_0, # of connection points: 4
#     Node 4, Type 0, BuildingBlock: CEKHIL_clean_sbu_0, # of connection points: 4
#     Node 5, Type 0, BuildingBlock: CEKHIL_clean_sbu_0, # of connection points: 4
#     Node 6, Type 0, BuildingBlock: CEKHIL_clean_sbu_0, # of connection points: 4
#     Node 7, Type 0, BuildingBlock: CEKHIL_clean_sbu_0, # of connection points: 4
#     Node 8, Type 0, BuildingBlock: CEKHIL_clean_sbu_0, # of connection points: 4
#     Node 9, Type 0, BuildingBlock: CEKHIL_clean_sbu_0, # of connection points: 4
#     Node 10, Type 0, BuildingBlock: CEKHIL_clean_sbu_0, # of connection points: 4
#     Node 11, Type 0, BuildingBlock: CEKHIL_clean_sbu_0, # of connection points: 4
#     Edge 12, Type (0, 0), None
#     Edge 13, Type (0, 0), None
#     Edge 14, Type (0, 0), None
#     Edge 15, Type (0, 0), None
#     Edge 16, Type (0, 0), None
#     Edge 17, Type (0, 0), None
#     Edge 18, Type (0, 0), None
#     Edge 19, Type (0, 0), None
#     Edge 20, Type (0, 0), None
#     Edge 21, Type (0, 0), None
#     Edge 22, Type (0, 0), None
#     Edge 23, Type (0, 0), None
#     Edge 24, Type (0, 0), None
#     Edge 25, Type (0, 0), None
#     Edge 26, Type (0, 0), None
#     Edge 27, Type (0, 0), None
#     Edge 28, Type (0, 0), None
#     Edge 29, Type (0, 0), None
#     Edge 30, Type (0, 0), None
#     Edge 31, Type (0, 0), None
#     Edge 32, Type (0, 0), None
#     Edge 33, Type (0, 0), None
#     Edge 34, Type (0, 0), None
#     Edge 35, Type (0, 0), None
# Relax obj value: 0.157
# Max RMSD: 0.173
# Mean RMSD: 0.164
data_MOF--net-uop--node1-CEKHIL_clean_sbu_0--edge1-none
_symmetry_space_group_name_H-M    P1
_symmetry_Int_Tables_number       1
_symmetry_cell_setting            triclinic
loop_
_symmetry_equiv_pos_as_xyz
'x, y, z'
_cell_length_a     15.010569
_cell_length_b     14.062516
_cell_length_c     19.66879
_cell_angle_alpha  89.999113
_cell_angle_beta   90.001319
_cell_angle_gamma 122.22563
loop_
_atom_site_label
_atom_site_type_symbol
_atom_site_fract_x
_atom_site_fract_y
_atom_site_fract_z
_atom_type_partial_charge
Co0 Co 0.21131 0.36104 0.22187 0.0
O1 O 0.06554 0.28898 0.24445 0.0
O2 O 0.12766 0.26519 0.14768 0.0
C3 C 0.26437 0.32851 0.31852 0.0
O4 O 0.36292 0.4228 0.1894 0.0
Co5 Co 0.34809 0.57774 0.3007 0.0
O6 O 0.46367 0.5834 0.24827 0.0
C7 C 0.22137 0.58136 0.19368 0.0
C8 C 0.04698 0.24156 0.18574 0.0
C9 C 0.45367 0.50919 0.20641 0.0
O10 O 0.2088 0.4877 0.17531 0.0
O11 O 0.26353 0.62726 0.25041 0.0
O12 O 0.22166 0.25093 0.27261 0.0
O13 O 0.25587 0.41513 0.31035 0.0
Co14 Co 0.8627 0.24647 0.53369 0.0
O15 O 0.99466 0.26215 0.5556 0.0
O16 O 0.91091 0.3205 0.6196 0.0
C17 C 0.77425 0.06481 0.50245 0.0
O18 O 0.72517 0.24152 0.52852 0.0
Co19 Co 0.80026 0.22309 0.38648 0.0
O20 O 0.66862 0.20837 0.4203 0.0
C21 C 0.96324 0.44343 0.43035 0.0
C22 C 0.99237 0.3125 0.61018 0.0
C23 C 0.65686 0.22346 0.48266 0.0
O24 O 0.94138 0.39799 0.4893 0.0
O25 O 0.92043 0.38619 0.37647 0.0
O26 O 0.78439 0.09254 0.56603 0.0
O27 O 0.8298 0.14698 0.45959 0.0
Co28 Co 0.64918 0.86953 0.86747 0.0
O29 O 0.72121 0.79517 0.88798 0.0
O30 O 0.73078 0.8772 0.78939 0.0
C31 C 0.69007 0.97111 0.96224 0.0
O32 O 0.58519 0.9576 0.8365 0.0
Co33 Co 0.45889 0.78904 0.95974 0.0
O34 O 0.43686 0.8867 0.89875 0.0
C35 C 0.43112 0.6517 0.8448 0.0
C36 C 0.75909 0.82151 0.82742 0.0
C37 C 0.50083 0.95398 0.854 0.0
O38 O 0.52457 0.72851 0.82673 0.0
O39 O 0.39291 0.651 0.90277 0.0
O40 O 0.75658 0.00502 0.91255 0.0
O41 O 0.61145 0.86762 0.95876 0.0
Co42 Co 0.78844 0.64796 0.2216 0.0
O43 O 0.93419 0.72019 0.24414 0.0
O44 O 0.87194 0.7436 0.14729 0.0
C45 C 0.73554 0.68079 0.31818 0.0
O46 O 0.63673 0.58591 0.18922 0.0
Co47 Co 0.65206 0.43153 0.30067 0.0
O48 O 0.53628 0.42526 0.24815 0.0
C49 C 0.77881 0.42783 0.19374 0.0
C50 C 0.95266 0.76741 0.18538 0.0
C51 C 0.5461 0.49936 0.20626 0.0
O52 O 0.79107 0.52128 0.17522 0.0
O53 O 0.73682 0.38213 0.25054 0.0
O54 O 0.77805 0.75818 0.27215 0.0
O55 O 0.74413 0.59421 0.31016 0.0
Co56 Co 0.13855 0.76364 0.53394 0.0
O57 O 0.0065 0.74758 0.55602 0.0
O58 O 0.0906 0.68936 0.61978 0.0
C59 C 0.22676 0.94536 0.50283 0.0
O60 O 0.27617 0.76891 0.52862 0.0
Co61 Co 0.20084 0.7875 0.38664 0.0
O62 O 0.33259 0.80237 0.42037 0.0
C63 C 0.03807 0.56698 0.43041 0.0
C64 C 0.00899 0.69712 0.61049 0.0
C65 C 0.34444 0.7872 0.48271 0.0
O66 O 0.06004 0.61223 0.48941 0.0
O67 O 0.08069 0.62441 0.37656 0.0
O68 O 0.2167 0.91755 0.56639 0.0
O69 O 0.17122 0.86322 0.45995 0.0
Co70 Co 0.35202 0.13922 0.86737 0.0
O71 O 0.27989 0.21356 0.88765 0.0
O72 O 0.27073 0.13167 0.78909 0.0
C73 C 0.31062 0.03732 0.96209 0.0
O74 O 0.41612 0.05109 0.83674 0.0
Co75 Co 0.54182 0.21896 0.95924 0.0
O76 O 0.56815 0.12768 0.89533 0.0
C77 C 0.57006 0.35715 0.84488 0.0
C78 C 0.24227 0.18733 0.82702 0.0
C79 C 0.5023 0.05736 0.85253 0.0
O80 O 0.4767 0.28028 0.82671 0.0
O81 O 0.60808 0.35763 0.90288 0.0
O82 O 0.24445 1.00368 0.91222 0.0
O83 O 0.38925 0.14086 0.95889 0.0
Co84 Co 0.62097 0.76368 0.45136 0.0
O85 O 0.7369 0.74751 0.42923 0.0
O86 O 0.59458 0.68943 0.3655 0.0
C87 C 0.71454 0.94538 0.48249 0.0
O88 O 0.48868 0.76906 0.45673 0.0
Co89 Co 0.5826 0.78755 0.59866 0.0
O90 O 0.46559 0.80229 0.565 0.0
C91 C 0.52486 0.56698 0.55486 0.0
C92 C 0.68392 0.69713 0.37477 0.0
C93 C 0.43862 0.78722 0.50266 0.0
O94 O 0.54813 0.61224 0.49586 0.0
O95 O 0.53968 0.62442 0.60872 0.0
O96 O 0.69669 0.91759 0.41893 0.0
O97 O 0.68792 0.86321 0.52536 0.0
Co98 Co 0.85574 0.64831 0.76377 0.0
O99 O 0.78217 0.72065 0.74142 0.0
O100 O 0.8681 0.74395 0.83813 0.0
C101 C 0.94111 0.68097 0.66708 0.0
O102 O 0.94545 0.58615 0.79597 0.0
Co103 Co 0.77533 0.43174 0.6848 0.0
O104 O 0.88543 0.42577 0.7368 0.0
C105 C 0.64539 0.42832 0.79198 0.0
C106 C 0.81098 0.76772 0.80022 0.0
C107 C 0.94972 0.49975 0.77871 0.0
O108 O 0.72663 0.5218 0.81031 0.0
O109 O 0.64143 0.38228 0.73526 0.0
O110 O 0.97611 0.75841 0.71309 0.0
O111 O 0.84599 0.59444 0.6752 0.0
Co112 Co 0.21701 0.8708 0.1191 0.0
O113 O 0.07088 0.79659 0.09786 0.0
O114 O 0.14208 0.87722 0.19699 0.0
C115 C 0.27857 0.97357 0.02478 0.0
O116 O 0.36849 0.9584 0.15105 0.0
Co117 Co 0.32824 0.79184 0.02664 0.0
O118 O 0.44773 0.89103 0.08728 0.0
C119 C 0.21745 0.65285 0.14088 0.0
C120 C 0.05857 0.82187 0.15854 0.0
C121 C 0.4498 0.95608 0.13322 0.0
O122 O 0.20032 0.72925 0.1592 0.0
O123 O 0.25589 0.65314 0.08306 0.0
O124 O 0.24551 0.00693 0.07452 0.0
O125 O 0.25394 0.87012 0.02799 0.0
Co126 Co 0.37988 0.24645 0.4516 0.0
O127 O 0.26368 0.26225 0.4296 0.0
O128 O 0.4058 0.32046 0.36566 0.0
C129 C 0.28658 0.06479 0.48286 0.0
O130 O 0.51239 0.24138 0.45684 0.0
Co131 Co 0.41885 0.22304 0.59881 0.0
O132 O 0.5359 0.20844 0.56509 0.0
C133 C 0.47619 0.44343 0.55492 0.0
C134 C 0.31637 0.31252 0.37504 0.0
C135 C 0.5627 0.22344 0.50272 0.0
O136 O 0.45265 0.39798 0.49597 0.0
O137 O 0.46173 0.38616 0.6088 0.0
O138 O 0.3043 0.0925 0.41929 0.0
O139 O 0.31322 0.147 0.52571 0.0
Co140 Co 0.14563 0.36059 0.76339 0.0
O141 O 0.21922 0.28824 0.74098 0.0
O142 O 0.13319 0.26478 0.83766 0.0
C143 C 0.0603 0.32828 0.66669 0.0
O144 O 0.05592 0.42269 0.79572 0.0
Co145 Co 0.22606 0.57744 0.68465 0.0
O146 O 0.11618 0.58347 0.7369 0.0
C147 C 0.35592 0.5806 0.79181 0.0
C148 C 0.19036 0.24108 0.79976 0.0
C149 C 0.05188 0.50934 0.77873 0.0
O150 O 0.27471 0.48701 0.81004 0.0
O151 O 0.35991 0.62679 0.73514 0.0
O152 O 0.02528 0.25066 0.71259 0.0
O153 O 0.15542 0.41476 0.6749 0.0
Co154 Co 0.78269 0.13805 0.11916 0.0
O155 O 0.92891 0.2125 0.09816 0.0
O156 O 0.85746 0.13163 0.19718 0.0
C157 C 0.72117 0.03493 0.0249 0.0
O158 O 0.63092 0.0499 0.15049 0.0
Co159 Co 0.66989 0.21516 0.02859 0.0
O160 O 0.55733 0.13299 0.09733 0.0
C161 C 0.78273 0.35623 0.14104 0.0
C162 C 0.94109 0.18714 0.15885 0.0
C163 C 0.55179 0.05901 0.13743 0.0
O164 O 0.79928 0.27948 0.15947 0.0
O165 O 0.74411 0.3556 0.08326 0.0
O166 O 0.75453 1.00211 0.07474 0.0
O167 O 0.74568 0.1384 0.02768 0.0
loop_
_geom_bond_atom_site_label_1
_geom_bond_atom_site_label_2
_geom_bond_distance
_geom_bond_site_symmetry_2
_ccdc_geom_bond_type
Co0 O1 2.216 . S
Co0 O2 2.091 . S
Co0 O4 2.004 . S
Co0 O10 2.021 . S
Co0 O12 2.137 . S
Co0 O13 2.244 . S
O1 Co0 2.216 . S
O1 C8 1.247 . S
O2 Co0 2.091 . S
O2 C8 1.261 . S
C3 O12 1.247 . S
C3 O13 1.272 . S
O4 Co0 2.004 . S
O4 C9 1.259 . S
Co5 O6 2.061 . S
Co5 O11 2.052 . S
Co5 O13 2.135 . S
O6 Co5 2.061 . S
O6 C9 1.235 . S
C7 O10 1.238 . S
C7 O11 1.241 . S
C8 O1 1.247 . S
C8 O2 1.261 . S
C9 O4 1.259 . S
C9 O6 1.235 . S
O10 Co0 2.021 . S
O10 C7 1.238 . S
O11 Co5 2.052 . S
O11 C7 1.241 . S
O12 Co0 2.137 . S
O12 C3 1.247 . S
O13 Co0 2.244 . S
O13 C3 1.272 . S
O13 Co5 2.135 . S
Co14 O15 2.216 1_655 S
Co14 O16 2.091 . S
Co14 O18 2.004 . S
Co14 O24 2.021 . S
Co14 O26 2.137 . S
Co14 O27 2.244 . S
O15 Co14 2.216 1_455 S
O15 C22 1.247 1_455 S
O16 Co14 2.091 . S
O16 C22 1.261 . S
C17 O26 1.247 . S
C17 O27 1.272 . S
O18 Co14 2.004 . S
O18 C23 1.259 . S
Co19 O20 2.061 . S
Co19 O25 2.052 . S
Co19 O27 2.135 . S
O20 Co19 2.061 . S
O20 C23 1.235 . S
C21 O24 1.238 . S
C21 O25 1.241 . S
C22 O15 1.247 1_655 S
C22 O16 1.261 . S
C23 O18 1.259 . S
C23 O20 1.235 . S
O24 Co14 2.021 . S
O24 C21 1.238 . S
O25 Co19 2.052 . S
O25 C21 1.241 . S
O26 Co14 2.137 . S
O26 C17 1.247 . S
O27 Co14 2.244 . S
O27 C17 1.272 . S
O27 Co19 2.135 . S
Co28 O29 2.216 . S
Co28 O30 2.091 . S
Co28 O32 2.004 . S
Co28 O38 2.021 . S
Co28 O40 2.137 1_565 S
Co28 O41 2.244 . S
O29 Co28 2.216 . S
O29 C36 1.247 . S
O30 Co28 2.091 . S
O30 C36 1.261 . S
C31 O40 1.247 1_565 S
C31 O41 1.272 . S
O32 Co28 2.004 . S
O32 C37 1.259 1_565 S
Co33 O34 2.061 . S
Co33 O39 2.052 . S
Co33 O41 2.135 . S
O34 Co33 2.061 . S
O34 C37 1.235 1_565 S
C35 O38 1.238 . S
C35 O39 1.241 . S
C36 O29 1.247 . S
C36 O30 1.261 . S
C37 O32 1.259 1_545 S
C37 O34 1.235 1_545 S
O38 Co28 2.021 . S
O38 C35 1.238 . S
O39 Co33 2.052 . S
O39 C35 1.241 . S
O40 Co28 2.137 1_545 S
O40 C31 1.247 1_545 S
O41 Co28 2.244 . S
O41 C31 1.272 . S
O41 Co33 2.135 . S
Co42 O43 2.216 . S
Co42 O44 2.091 . S
Co42 O46 2.004 . S
Co42 O52 2.021 . S
Co42 O54 2.137 . S
Co42 O55 2.244 . S
O43 Co42 2.216 . S
O43 C50 1.247 . S
O44 Co42 2.091 . S
O44 C50 1.261 . S
C45 O54 1.247 . S
C45 O55 1.272 . S
O46 Co42 2.004 . S
O46 C51 1.259 . S
Co47 O48 2.061 . S
Co47 O53 2.052 . S
Co47 O55 2.135 . S
O48 Co47 2.061 . S
O48 C51 1.235 . S
C49 O52 1.238 . S
C49 O53 1.241 . S
C50 O43 1.247 . S
C50 O44 1.261 . S
C51 O46 1.259 . S
C51 O48 1.235 . S
O52 Co42 2.021 . S
O52 C49 1.238 . S
O53 Co47 2.052 . S
O53 C49 1.241 . S
O54 Co42 2.137 . S
O54 C45 1.247 . S
O55 Co42 2.244 . S
O55 C45 1.272 . S
O55 Co47 2.135 . S
Co56 O57 2.216 1_455 S
Co56 O58 2.091 . S
Co56 O60 2.004 . S
Co56 O66 2.021 . S
Co56 O68 2.137 . S
Co56 O69 2.244 . S
O57 Co56 2.216 1_655 S
O57 C64 1.247 1_655 S
O58 Co56 2.091 . S
O58 C64 1.261 . S
C59 O68 1.247 . S
C59 O69 1.272 . S
O60 Co56 2.004 . S
O60 C65 1.259 . S
Co61 O62 2.061 . S
Co61 O67 2.052 . S
Co61 O69 2.135 . S
O62 Co61 2.061 . S
O62 C65 1.235 . S
C63 O66 1.238 . S
C63 O67 1.241 . S
C64 O57 1.247 1_455 S
C64 O58 1.261 . S
C65 O60 1.259 . S
C65 O62 1.235 . S
O66 Co56 2.021 . S
O66 C63 1.238 . S
O67 Co61 2.052 . S
O67 C63 1.241 . S
O68 Co56 2.137 . S
O68 C59 1.247 . S
O69 Co56 2.244 . S
O69 C59 1.272 . S
O69 Co61 2.135 . S
Co70 O71 2.216 . S
Co70 O72 2.091 . S
Co70 O74 2.004 . S
Co70 O80 2.021 . S
Co70 O82 2.137 1_545 S
Co70 O83 2.244 . S
O71 Co70 2.216 . S
O71 C78 1.247 . S
O72 Co70 2.091 . S
O72 C78 1.261 . S
C73 O82 1.247 1_545 S
C73 O83 1.272 . S
O74 Co70 2.004 . S
O74 C79 1.259 1_545 S
Co75 O76 2.061 . S
Co75 O81 2.052 . S
Co75 O83 2.135 . S
O76 Co75 2.061 . S
O76 C79 1.235 1_545 S
C77 O80 1.238 . S
C77 O81 1.241 . S
C78 O71 1.247 . S
C78 O72 1.261 . S
C79 O74 1.259 1_565 S
C79 O76 1.235 1_565 S
O80 Co70 2.021 . S
O80 C77 1.238 . S
O81 Co75 2.052 . S
O81 C77 1.241 . S
O82 Co70 2.137 1_565 S
O82 C73 1.247 1_565 S
O83 Co70 2.244 . S
O83 C73 1.272 . S
O83 Co75 2.135 . S
Co84 O85 2.216 . S
Co84 O86 2.091 . S
Co84 O88 2.004 . S
Co84 O94 2.021 . S
Co84 O96 2.137 . S
Co84 O97 2.244 . S
O85 Co84 2.216 . S
O85 C92 1.247 . S
O86 Co84 2.091 . S
O86 C92 1.261 . S
C87 O96 1.247 . S
C87 O97 1.272 . S
O88 Co84 2.004 . S
O88 C93 1.259 . S
Co89 O90 2.061 . S
Co89 O95 2.052 . S
Co89 O97 2.135 . S
O90 Co89 2.061 . S
O90 C93 1.235 . S
C91 O94 1.238 . S
C91 O95 1.241 . S
C92 O85 1.247 . S
C92 O86 1.261 . S
C93 O88 1.259 . S
C93 O90 1.235 . S
O94 Co84 2.021 . S
O94 C91 1.238 . S
O95 Co89 2.052 . S
O95 C91 1.241 . S
O96 Co84 2.137 . S
O96 C87 1.247 . S
O97 Co84 2.244 . S
O97 C87 1.272 . S
O97 Co89 2.135 . S
Co98 O99 2.216 . S
Co98 O100 2.091 . S
Co98 O102 2.004 . S
Co98 O108 2.021 . S
Co98 O110 2.137 . S
Co98 O111 2.244 . S
O99 Co98 2.216 . S
O99 C106 1.247 . S
O100 Co98 2.091 . S
O100 C106 1.261 . S
C101 O110 1.247 . S
C101 O111 1.272 . S
O102 Co98 2.004 . S
O102 C107 1.252 1_655 S
Co103 O104 2.061 . S
Co103 O109 2.052 . S
Co103 O111 2.135 . S
O104 Co103 2.061 . S
O104 C107 1.234 1_655 S
C105 O108 1.238 . S
C105 O109 1.241 . S
C106 O99 1.247 . S
C106 O100 1.261 . S
C107 O102 1.252 1_455 S
C107 O104 1.234 1_455 S
O108 Co98 2.021 . S
O108 C105 1.238 . S
O109 Co103 2.052 . S
O109 C105 1.241 . S
O110 Co98 2.137 . S
O110 C101 1.247 . S
O111 Co98 2.244 . S
O111 C101 1.272 . S
O111 Co103 2.135 . S
Co112 O113 2.216 . S
Co112 O114 2.091 . S
Co112 O116 2.004 . S
Co112 O122 2.021 . S
Co112 O124 2.137 1_565 S
Co112 O125 2.244 . S
O113 Co112 2.216 . S
O113 C120 1.247 . S
O114 Co112 2.091 . S
O114 C120 1.261 . S
C115 O124 1.247 1_565 S
C115 O125 1.272 . S
O116 Co112 2.004 . S
O116 C121 1.259 1_565 S
Co117 O118 2.061 . S
Co117 O123 2.052 . S
Co117 O125 2.135 . S
O118 Co117 2.061 . S
O118 C121 1.235 1_565 S
C119 O122 1.238 . S
C119 O123 1.241 . S
C120 O113 1.247 . S
C120 O114 1.261 . S
C121 O116 1.259 1_545 S
C121 O118 1.235 1_545 S
O122 Co112 2.021 . S
O122 C119 1.238 . S
O123 Co117 2.052 . S
O123 C119 1.241 . S
O124 Co112 2.137 1_545 S
O124 C115 1.247 1_545 S
O125 Co112 2.244 . S
O125 C115 1.272 . S
O125 Co117 2.135 . S
Co126 O127 2.216 . S
Co126 O128 2.091 . S
Co126 O130 2.004 . S
Co126 O136 2.021 . S
Co126 O138 2.137 . S
Co126 O139 2.244 . S
O127 Co126 2.216 . S
O127 C134 1.247 . S
O128 Co126 2.091 . S
O128 C134 1.261 . S
C129 O138 1.247 . S
C129 O139 1.272 . S
O130 Co126 2.004 . S
O130 C135 1.259 . S
Co131 O132 2.061 . S
Co131 O137 2.052 . S
Co131 O139 2.135 . S
O132 Co131 2.061 . S
O132 C135 1.235 . S
C133 O136 1.238 . S
C133 O137 1.241 . S
C134 O127 1.247 . S
C134 O128 1.261 . S
C135 O130 1.259 . S
C135 O132 1.235 . S
O136 Co126 2.021 . S
O136 C133 1.238 . S
O137 Co131 2.052 . S
O137 C133 1.241 . S
O138 Co126 2.137 . S
O138 C129 1.247 . S
O139 Co126 2.244 . S
O139 C129 1.272 . S
O139 Co131 2.135 . S
Co140 O141 2.216 . S
Co140 O142 2.091 . S
Co140 O144 2.004 . S
Co140 O150 2.021 . S
Co140 O152 2.137 . S
Co140 O153 2.244 . S
O141 Co140 2.216 . S
O141 C148 1.247 . S
O142 Co140 2.091 . S
O142 C148 1.261 . S
C143 O152 1.247 . S
C143 O153 1.272 . S
O144 Co140 2.004 . S
O144 C149 1.252 1_455 S
Co145 O146 2.061 . S
Co145 O151 2.052 . S
Co145 O153 2.135 . S
O146 Co145 2.061 . S
O146 C149 1.234 1_455 S
C147 O150 1.238 . S
C147 O151 1.241 . S
C148 O141 1.247 . S
C148 O142 1.261 . S
C149 O144 1.252 1_655 S
C149 O146 1.234 1_655 S
O150 Co140 2.021 . S
O150 C147 1.238 . S
O151 Co145 2.052 . S
O151 C147 1.241 . S
O152 Co140 2.137 . S
O152 C143 1.247 . S
O153 Co140 2.244 . S
O153 C143 1.272 . S
O153 Co145 2.135 . S
Co154 O155 2.216 . S
Co154 O156 2.091 . S
Co154 O158 2.004 . S
Co154 O164 2.021 . S
Co154 O166 2.137 1_545 S
Co154 O167 2.244 . S
O155 Co154 2.216 . S
O155 C162 1.247 . S
O156 Co154 2.091 . S
O156 C162 1.261 . S
C157 O166 1.247 1_545 S
C157 O167 1.272 . S
O158 Co154 2.004 . S
O158 C163 1.259 1_545 S
Co159 O160 2.061 . S
Co159 O165 2.052 . S
Co159 O167 2.135 . S
O160 Co159 2.061 . S
O160 C163 1.235 1_545 S
C161 O164 1.238 . S
C161 O165 1.241 . S
C162 O155 1.247 . S
C162 O156 1.261 . S
C163 O158 1.259 1_565 S
C163 O160 1.235 1_565 S
O164 Co154 2.021 . S
O164 C161 1.238 . S
O165 Co159 2.052 . S
O165 C161 1.241 . S
O166 Co154 2.137 1_565 S
O166 C157 1.247 1_565 S
O167 Co154 2.244 . S
O167 C157 1.272 . S
O167 Co159 2.135 . S
C119 C7 1.668 . S
C23 C135 2.032 . S
C35 C147 1.668 . S
C49 C161 1.668 . S
C93 C65 2.032 . S
C77 C105 1.668 . S
C51 C9 1.222 . S
C63 C21 1.634 1_455 S
C79 C37 1.106 1_565 S
C91 C133 1.634 . S
C107 C149 1.233 1_455 S
C121 C163 1.106 1_545 S
C3 C134 1.615 . S
C22 C143 1.616 1_655 S
C31 C157 1.597 1_566 S
C92 C45 1.616 . S
C64 C101 1.616 1_455 S
C115 C73 1.597 1_564 S
C162 C8 1.783 1_655 S
C17 C87 1.738 1_545 S
C106 C36 1.783 . S
C50 C120 1.783 1_655 S
C59 C129 1.738 1_565 S
C148 C78 1.783 . S
