# Generated by pormake.
# Topology pcu, (6)-cn, num edge types: 1
# Building blocks:
#     Node 0, Type 0, BuildingBlock: GEDQOX_clean_sbu_0, # of connection points: 6
#     Edge 1, Type (0, 0), BuildingBlock: FUNLAD_clean_linker_0, # of connection points: 2
#     Edge 2, Type (0, 0), BuildingBlock: FUNLAD_clean_linker_0, # of connection points: 2
#     Edge 3, Type (0, 0), BuildingBlock: FUNLAD_clean_linker_0, # of connection points: 2
# Relax obj value: 0.000
# Max RMSD: 0.000
# Mean RMSD: 0.000
data_MOF--net-pcu--node1-GEDQOX_clean_sbu_0--edge1-FUNLAD_clean_linker_0
_symmetry_space_group_name_H-M    P1
_symmetry_Int_Tables_number       1
_symmetry_cell_setting            triclinic
loop_
_symmetry_equiv_pos_as_xyz
'x, y, z'
_cell_length_a     18.134616
_cell_length_b     27.545361
_cell_length_c     17.032599
_cell_angle_alpha  82.935423
_cell_angle_beta   94.474631
_cell_angle_gamma 123.90022
loop_
_atom_site_label
_atom_site_type_symbol
_atom_site_fract_x
_atom_site_fract_y
_atom_site_fract_z
_atom_type_partial_charge
Nd0 Nd 0.06074 0.07855 0.02002 0.0
Nd1 Nd 0.93805 0.9475 1.00016 0.0
C2 C 0.13569 0.18554 0.06431 0.0
C3 C 0.11369 0.2298 0.05991 0.0
C4 C 0.16133 0.27703 0.10649 0.0
C5 C 0.14112 0.3194 0.10313 0.0
C6 C 0.07279 0.31534 0.05293 0.0
C7 C 0.02495 0.26764 1.00642 0.0
C8 C 0.0451 0.22518 0.01003 0.0
C9 C 0.03605 0.0512 0.86662 0.0
C10 C 0.84323 1.01623 1.00172 0.0
C11 C 0.86291 0.84034 0.95642 0.0
C12 C 0.88506 0.79616 0.96071 0.0
C13 C 0.83732 0.74886 0.91424 0.0
C14 C 0.85764 0.70654 0.91753 0.0
C15 C 0.92616 0.71072 0.96754 0.0
C16 C 0.97411 0.75849 0.01392 0.0
C17 C 0.95387 0.8009 0.01038 0.0
C18 C 0.96294 0.97524 0.15349 0.0
C19 C 0.15556 1.00984 0.01813 0.0
O20 O 0.08637 0.13759 0.11098 0.0
O21 O 0.15233 0.17517 0.99717 0.0
O22 O 0.11127 0.09286 0.89419 0.0
O23 O 0.97617 0.02791 0.918 0.0
O24 O 0.92014 0.0591 0.02873 0.0
O25 O 0.83472 0.97024 0.97534 0.0
O26 O 0.91177 0.88817 0.90939 0.0
O27 O 0.84681 0.85091 0.02365 0.0
O28 O 0.88756 0.9337 0.12598 0.0
O29 O 0.02269 0.99809 0.10207 0.0
O30 O 0.07864 0.96699 0.99111 0.0
O31 O 0.16407 0.0558 0.04464 0.0
H32 H 0.21442 0.28124 0.14539 0.0
H33 H 0.17989 0.35583 0.13907 0.0
H34 H 0.97117 0.26272 0.96797 0.0
H35 H 0.00712 0.18871 0.974 0.0
H36 H 0.78407 0.74456 0.87551 0.0
H37 H 0.81878 0.67006 0.88169 0.0
H38 H 0.02804 0.7635 0.05222 0.0
H39 H 0.99192 0.83742 0.04632 0.0
C40 C 0.90767 0.96022 0.28991 0.0
C41 C 0.97829 0.98966 0.23637 0.0
C42 C 0.92178 0.97317 0.36871 0.0
C43 C 0.00727 1.01575 0.39582 0.0
C44 C 0.07742 0.04582 0.34161 0.0
C45 C 0.06325 0.03279 0.26281 0.0
C46 C 0.0257 0.03131 0.47911 0.0
C47 C 0.97396 0.99552 0.54083 0.0
C48 C 0.99228 1.01104 0.62415 0.0
C49 C 0.92214 0.98066 0.67836 0.0
C50 C 0.93614 0.99359 0.7572 0.0
C51 C 0.02093 0.03694 0.78367 0.0
H52 H 0.13431 0.07698 0.61264 0.0
C53 C 0.09154 0.06671 0.73013 0.0
C54 C 0.0776 0.05386 0.65128 0.0
H55 H 0.15787 0.0999 0.74921 0.0
H56 H 0.84121 0.92722 0.27085 0.0
H57 H 0.86508 0.95032 0.40735 0.0
H58 H 0.14375 0.07923 0.36043 0.0
H59 H 0.11886 0.0564 0.22268 0.0
H60 H 0.08509 0.07385 0.48929 0.0
H61 H 0.91462 0.95296 0.53061 0.0
H62 H 0.85594 0.94706 0.65953 0.0
H63 H 0.88053 0.96972 0.79732 0.0
C64 C 0.318 0.05179 0.04067 0.0
C65 C 0.23313 1.00525 0.01911 0.0
C66 C 0.3913 0.0476 0.03975 0.0
C67 C 0.38116 0.99671 0.01694 0.0
C68 C 0.29601 0.94981 0.99717 0.0
C69 C 0.22291 0.95408 0.99776 0.0
C70 C 0.45691 0.99013 0.01475 0.0
C71 C 0.54187 0.03596 1.00477 0.0
C72 C 0.61762 0.02939 1.00262 0.0
C73 C 0.70276 0.0763 0.02238 0.0
C74 C 0.77587 0.07203 0.02186 0.0
C75 C 0.76566 0.02084 1.00061 0.0
H76 H 0.54363 0.9421 0.96153 0.0
C77 C 0.68081 0.97429 0.97904 0.0
C78 C 0.6075 0.97849 0.97988 0.0
H79 H 0.67079 0.93445 0.9617 0.0
H80 H 0.32803 0.09161 0.05808 0.0
H81 H 0.45518 0.08397 0.05811 0.0
H82 H 0.28608 0.90987 0.98024 0.0
H83 H 0.15839 0.91714 0.98134 0.0
H84 H 0.4411 0.94563 0.0202 0.0
H85 H 0.55767 0.08046 0.99931 0.0
H86 H 0.71269 0.11625 0.03925 0.0
H87 H 0.84038 0.10897 0.03829 0.0
C88 C 0.96572 0.64381 0.04402 0.0
C89 C 0.9472 0.66533 0.97123 0.0
C90 C 0.98407 0.60047 0.0475 0.0
C91 C 0.9841 0.57745 0.97804 0.0
C92 C 0.96712 0.5998 0.90529 0.0
C93 C 0.94848 0.64292 0.90187 0.0
C94 C 1.00384 0.53156 0.97821 0.0
C95 C 0.99529 0.4946 0.04214 0.0
C96 C 0.01501 0.4487 0.04233 0.0
C97 C 0.03178 0.42626 0.11511 0.0
C98 C 0.05037 0.38311 0.11856 0.0
C99 C 0.05183 0.36077 0.0492 0.0
H100 H 1.00009 0.44026 0.91569 0.0
C101 C 0.03352 0.38239 0.97637 0.0
C102 C 0.01521 0.42574 0.97286 0.0
H103 H 0.03433 0.36626 0.92178 0.0
H104 H 0.96506 0.65999 0.09862 0.0
H105 H 0.99937 0.58602 0.10465 0.0
H106 H 0.96773 0.58357 0.85069 0.0
H107 H 0.93602 0.6592 0.84465 0.0
H108 H 0.02522 0.52808 0.92264 0.0
H109 H 0.97388 0.49808 0.0977 0.0
H110 H 0.03103 0.44243 0.16971 0.0
H111 H 0.06266 0.36677 0.1758 0.0
loop_
_geom_bond_atom_site_label_1
_geom_bond_atom_site_label_2
_geom_bond_distance
_geom_bond_site_symmetry_2
_ccdc_geom_bond_type
Nd0 C2 2.836 . S
Nd0 O20 2.500 1_556 S
Nd0 O21 2.492 . S
Nd0 O22 2.487 . S
Nd0 O23 2.682 1_445 S
Nd0 O24 2.410 1_455 S
Nd0 O29 2.414 1_556 S
Nd0 O31 2.424 . S
Nd1 C11 2.836 . S
Nd1 O23 2.414 1_554 S
Nd1 O25 2.424 . S
Nd1 O26 2.500 1_554 S
Nd1 O27 2.492 . S
Nd1 O28 2.487 . S
Nd1 O29 2.682 1_665 S
Nd1 O30 2.410 1_655 S
C2 Nd0 2.836 . S
C2 C3 1.498 . S
C2 O20 1.258 1_556 S
C2 O21 1.239 . S
C3 C2 1.498 . S
C3 C4 1.366 1_456 S
C3 C8 1.407 . S
C4 C3 1.366 1_654 S
C4 C5 1.392 . S
C4 H32 0.930 . S
C5 C4 1.392 . S
C5 C6 1.398 1_654 S
C5 H33 0.929 . S
C6 C5 1.398 1_456 S
C6 C7 1.352 . S
C7 C6 1.352 . S
C7 C8 1.384 . S
C7 H34 0.930 . S
C8 C3 1.407 . S
C8 C7 1.384 . S
C8 H35 0.929 . S
C9 O22 1.241 . S
C9 O23 1.273 1_445 S
C10 O24 1.251 1_565 S
C10 O25 1.268 1_556 S
C11 Nd1 2.836 . S
C11 C12 1.498 . S
C11 O26 1.258 1_554 S
C11 O27 1.239 . S
C12 C11 1.498 . S
C12 C13 1.366 1_654 S
C12 C17 1.407 . S
C13 C12 1.366 1_456 S
C13 C14 1.392 . S
C13 H36 0.930 . S
C14 C13 1.392 . S
C14 C15 1.398 1_456 S
C14 H37 0.929 . S
C15 C14 1.398 1_654 S
C15 C16 1.352 . S
C16 C15 1.352 . S
C16 C17 1.384 . S
C16 H38 0.930 . S
C17 C12 1.407 . S
C17 C16 1.384 . S
C17 H39 0.929 . S
C18 O28 1.241 . S
C18 O29 1.273 1_665 S
C19 O30 1.251 1_545 S
C19 O31 1.268 1_554 S
O20 Nd0 2.500 1_554 S
O20 C2 1.258 1_554 S
O21 Nd0 2.492 . S
O21 C2 1.239 . S
O22 Nd0 2.487 . S
O22 C9 1.241 . S
O23 Nd0 2.682 1_665 S
O23 Nd1 2.414 1_556 S
O23 C9 1.273 1_665 S
O24 Nd0 2.410 1_655 S
O24 C10 1.251 1_545 S
O25 Nd1 2.424 . S
O25 C10 1.268 1_554 S
O26 Nd1 2.500 1_556 S
O26 C11 1.258 1_556 S
O27 Nd1 2.492 . S
O27 C11 1.239 . S
O28 Nd1 2.487 . S
O28 C18 1.241 . S
O29 Nd0 2.414 1_554 S
O29 Nd1 2.682 1_445 S
O29 C18 1.273 1_445 S
O30 Nd1 2.410 1_455 S
O30 C19 1.251 1_565 S
O31 Nd0 2.424 . S
O31 C19 1.268 1_556 S
H32 C4 0.930 . S
H33 C5 0.929 . S
H34 C7 0.930 . S
H35 C8 0.929 . S
H36 C13 0.930 . S
H37 C14 0.929 . S
H38 C16 0.930 . S
H39 C17 0.929 . S
C40 C41 1.390 1_545 S
C40 C42 1.383 . S
C40 H56 0.951 . S
C41 C40 1.390 1_565 S
C41 C45 1.379 1_655 S
C42 C40 1.383 . S
C42 C43 1.402 1_545 S
C42 H57 0.951 . S
C43 C42 1.402 1_565 S
C43 C44 1.375 1_655 S
C43 C46 1.481 1_655 S
C44 C43 1.375 1_455 S
C44 C45 1.367 . S
C44 H58 0.951 . S
C45 C41 1.379 1_455 S
C45 C44 1.367 . S
C45 H59 0.950 . S
C46 C43 1.481 1_455 S
C46 C47 1.285 1_455 S
C46 H60 0.963 . S
C47 C46 1.285 1_655 S
C47 C48 1.479 . S
C47 H61 0.950 . S
C48 C47 1.479 . S
C48 C49 1.377 1_565 S
C48 C54 1.404 1_655 S
C49 C48 1.377 1_545 S
C49 C50 1.368 . S
C49 H62 0.949 . S
C50 C49 1.368 . S
C50 C51 1.392 1_545 S
C50 H63 0.951 . S
C51 C50 1.392 1_565 S
C51 C53 1.384 1_655 S
H52 C54 0.949 . S
C53 C51 1.384 1_455 S
C53 C54 1.385 . S
C53 H55 0.950 . S
C54 C48 1.404 1_455 S
C54 H52 0.949 . S
C54 C53 1.385 . S
H55 C53 0.950 . S
H56 C40 0.951 . S
H57 C42 0.951 . S
H58 C44 0.951 . S
H59 C45 0.950 . S
H60 C46 0.963 . S
H61 C47 0.950 . S
H62 C49 0.949 . S
H63 C50 0.951 . S
C64 C65 1.386 1_545 S
C64 C66 1.383 . S
C64 H80 0.951 . S
C65 C64 1.386 1_565 S
C65 C69 1.383 . S
C66 C64 1.383 . S
C66 C67 1.402 1_545 S
C66 H81 0.951 . S
C67 C66 1.402 1_565 S
C67 C68 1.375 . S
C67 C70 1.481 . S
C68 C67 1.375 . S
C68 C69 1.367 . S
C68 H82 0.951 . S
C69 C65 1.383 . S
C69 C68 1.367 . S
C69 H83 0.950 . S
C70 C67 1.481 . S
C70 C71 1.297 1_565 S
C70 H84 0.950 . S
C71 C70 1.297 1_545 S
C71 C72 1.479 . S
C71 H85 0.950 . S
C72 C71 1.479 . S
C72 C73 1.375 . S
C72 C78 1.404 1_545 S
C73 C72 1.375 . S
C73 C74 1.369 . S
C73 H86 0.950 . S
C74 C73 1.369 . S
C74 C75 1.407 . S
C74 H87 0.951 . S
C75 C74 1.407 . S
C75 C77 1.379 1_545 S
H76 C78 0.949 . S
C77 C75 1.379 1_565 S
C77 C78 1.385 . S
C77 H79 0.950 . S
C78 C72 1.404 1_565 S
C78 H76 0.949 . S
C78 C77 1.385 . S
H79 C77 0.950 . S
H80 C64 0.951 . S
H81 C66 0.951 . S
H82 C68 0.951 . S
H83 C69 0.950 . S
H84 C70 0.950 . S
H85 C71 0.950 . S
H86 C73 0.950 . S
H87 C74 0.951 . S
C88 C89 1.386 1_554 S
C88 C90 1.383 . S
C88 H104 0.951 . S
C89 C88 1.386 1_556 S
C89 C93 1.380 1_655 S
C90 C88 1.383 . S
C90 C91 1.402 1_554 S
C90 H105 0.951 . S
C91 C90 1.402 1_556 S
C91 C92 1.375 1_655 S
C91 C94 1.481 1_655 S
C92 C91 1.375 1_455 S
C92 C93 1.367 . S
C92 H106 0.951 . S
C93 C89 1.380 1_455 S
C93 C92 1.367 . S
C93 H107 0.950 . S
C94 C91 1.481 1_455 S
C94 C95 1.297 1_455 S
C94 H108 0.950 . S
C95 C94 1.297 1_655 S
C95 C96 1.479 . S
C95 H109 0.950 1_556 S
C96 C95 1.479 . S
C96 C97 1.375 1_556 S
C96 C102 1.404 1_655 S
C97 C96 1.375 1_554 S
C97 C98 1.369 . S
C97 H110 0.950 . S
C98 C97 1.369 . S
C98 C99 1.392 1_554 S
C98 H111 0.951 . S
C99 C98 1.392 1_556 S
C99 C101 1.384 1_655 S
H100 C102 0.949 . S
C101 C99 1.384 1_455 S
C101 C102 1.385 . S
C101 H103 0.950 . S
C102 C96 1.404 1_455 S
C102 H100 0.949 . S
C102 C101 1.385 . S
H103 C101 0.950 . S
H104 C88 0.951 . S
H105 C90 0.951 . S
H106 C92 0.951 . S
H107 C93 0.950 . S
H108 C94 0.950 . S
H109 C95 0.950 1_554 S
H110 C97 0.950 . S
H111 C98 0.951 . S
C41 C18 1.423 . S
C51 C9 1.481 1_665 S
C65 C19 1.486 1_565 S
C75 C10 1.488 1_544 S
C89 C15 1.498 1_556 S
C99 C6 1.492 1_655 S
