# Generated by pormake.
# Topology pcu, (6)-cn, num edge types: 1
# Building blocks:
#     Node 0, Type 0, BuildingBlock: LEVNOQ01_clean_sbu_1, # of connection points: 6
#     Edge 1, Type (0, 0), BuildingBlock: CIFDUS_clean_linker_0, # of connection points: 2
#     Edge 2, Type (0, 0), BuildingBlock: CIFDUS_clean_linker_0, # of connection points: 2
#     Edge 3, Type (0, 0), BuildingBlock: CIFDUS_clean_linker_0, # of connection points: 2
# Relax obj value: 0.007
# Max RMSD: 0.050
# Mean RMSD: 0.050
data_MOF--net-pcu--node1-LEVNOQ01_clean_sbu_1--edge1-CIFDUS_clean_linker_0
_symmetry_space_group_name_H-M    P1
_symmetry_Int_Tables_number       1
_symmetry_cell_setting            triclinic
loop_
_symmetry_equiv_pos_as_xyz
'x, y, z'
_cell_length_a     14.58053
_cell_length_b     14.375488
_cell_length_c     13.918465
_cell_angle_alpha  78.284647
_cell_angle_beta   112.44018
_cell_angle_gamma 95.231995
loop_
_atom_site_label
_atom_site_type_symbol
_atom_site_fract_x
_atom_site_fract_y
_atom_site_fract_z
_atom_type_partial_charge
O0 O 0.71625 -0.01977 0.87657 0.0
Mg1 Mg 0.83661 0.06167 0.86439 0.0
O2 O 0.82576 0.96891 0.03742 0.0
Mg3 Mg 0.98474 0.97395 0.02238 0.0
O4 O 0.94024 0.00162 0.83188 0.0
O5 O 0.81448 0.09266 0.71158 0.0
O6 O 0.14378 -0.021 1.00745 0.0
O7 O 0.95991 0.81413 1.01039 0.0
Mg8 Mg 0.1329 0.88627 0.1803 0.0
O9 O 0.02929 0.94633 0.21286 0.0
O10 O 0.25325 0.96783 0.16833 0.0
O11 O 0.10346 0.75758 0.12457 0.0
O12 O 0.15456 0.85462 0.33299 0.0
C13 C 0.9499 0.20288 0.98968 0.0
C14 C 0.73547 0.96386 0.97434 0.0
C15 C 0.88957 0.04034 0.73372 0.0
C16 C 0.23406 -0.01588 0.07055 0.0
C17 C 0.01965 0.74515 0.0548 0.0
C18 C 0.07961 0.90711 0.31093 0.0
O19 O 0.86618 0.19053 0.91973 0.0
O20 O 0.00952 0.13381 0.03432 0.0
H21 H 0.93429 0.01857 0.3048 0.0
H22 H 0.16884 0.82845 0.51883 0.0
H23 H 0.13281 0.85333 0.66813 0.0
H24 H 0.03494 0.9289 0.7399 0.0
H25 H 0.80036 0.11896 0.52583 0.0
H26 H 0.83641 0.09409 0.37654 0.0
C27 C 0.97728 -0.01752 0.38399 0.0
C28 C 0.05404 0.92199 0.39995 0.0
C29 C 0.95648 -0.00298 0.47049 0.0
C30 C 0.10915 0.87575 0.50355 0.0
C31 C 0.0888 0.88981 0.58957 0.0
C32 C -0.00805 0.96498 0.66069 0.0
C33 C 0.91518 0.02545 0.64473 0.0
C34 C 0.01276 0.95042 0.57419 0.0
C35 C 0.86006 0.07167 0.54112 0.0
C36 C 0.88042 0.05762 0.45511 0.0
H37 H 0.43022 -0.02553 0.19152 0.0
H38 H 0.22485 0.00372 0.86702 0.0
H39 H 0.36246 -0.00649 0.81027 0.0
H40 H 0.53931 0.97351 0.8534 0.0
H41 H 0.7447 0.94427 0.17789 0.0
H42 H 0.60709 0.95448 0.23466 0.0
C43 C 0.41528 -0.02046 0.1081 0.0
C44 C 0.31722 -0.00977 0.03346 0.0
C45 C 0.49418 0.9717 0.0765 0.0
C46 C 0.29955 -0.0038 0.92593 0.0
C47 C 0.37807 -0.01045 0.89362 0.0
C48 C 0.55426 0.96845 0.93682 0.0
C49 C 0.65232 0.95776 1.01145 0.0
C50 C 0.47536 -0.02371 0.96842 0.0
C51 C 0.67 0.95179 0.11898 0.0
C52 C 0.59147 0.95844 0.1513 0.0
H53 H 0.12898 0.58582 0.14298 0.0
H54 H 0.84733 0.68975 0.9081 0.0
H55 H 0.8011 0.53004 0.86868 0.0
H56 H 0.84062 0.36223 0.90145 0.0
H57 H 0.12226 0.25828 0.13636 0.0
H58 H 0.1685 0.418 0.17575 0.0
C59 C 0.05745 0.57385 0.08292 0.0
C60 C -0.00837 0.64962 0.02846 0.0
C61 C 0.03136 0.4822 0.06107 0.0
C62 C 0.8993 0.63267 0.95108 0.0
C63 C 0.87283 0.54144 0.92863 0.0
C64 C 0.91216 0.37419 0.96151 0.0
C65 C 0.97797 0.29841 1.01599 0.0
C66 C 0.93825 0.46584 0.98336 0.0
C67 C 0.0703 0.31537 0.09337 0.0
C68 C 0.09678 0.4066 0.1158 0.0
loop_
_geom_bond_atom_site_label_1
_geom_bond_atom_site_label_2
_geom_bond_distance
_geom_bond_site_symmetry_2
_ccdc_geom_bond_type
O0 Mg1 1.990 . S
O0 C14 1.253 . S
Mg1 O0 1.990 . S
Mg1 O4 2.180 . S
Mg1 O5 2.117 . S
Mg1 O19 2.030 . S
O2 Mg3 2.072 1_665 S
O2 C14 1.260 1_564 S
Mg3 O2 2.072 1_445 S
Mg3 O4 2.099 1_454 S
Mg3 O6 2.079 1_554 S
Mg3 O7 2.072 1_444 S
Mg3 O9 2.099 1_545 S
Mg3 O20 2.079 . S
O4 Mg1 2.180 . S
O4 Mg3 2.099 1_656 S
O4 C15 1.279 . S
O5 Mg1 2.117 . S
O5 C15 1.250 . S
O6 Mg3 2.079 1_556 S
O6 C16 1.264 1_546 S
O7 Mg3 2.072 1_666 S
O7 C17 1.260 1_656 S
Mg8 O9 2.180 . S
Mg8 O10 2.030 . S
Mg8 O11 1.990 . S
Mg8 O12 2.117 . S
O9 Mg3 2.099 1_565 S
O9 Mg8 2.180 . S
O9 C18 1.279 . S
O10 Mg8 2.030 . S
O10 C16 1.248 . S
O11 Mg8 1.990 . S
O11 C17 1.253 . S
O12 Mg8 2.117 . S
O12 C18 1.250 . S
C13 O19 1.248 . S
C13 O20 1.264 1_656 S
C14 O0 1.253 . S
C14 O2 1.260 1_546 S
C15 O4 1.279 . S
C15 O5 1.250 . S
C16 O6 1.264 1_564 S
C16 O10 1.248 . S
C17 O7 1.260 1_454 S
C17 O11 1.253 . S
C18 O9 1.279 . S
C18 O12 1.250 . S
O19 Mg1 2.030 . S
O19 C13 1.248 . S
O20 Mg3 2.079 . S
O20 C13 1.264 1_454 S
H21 C27 0.930 . S
H22 C30 0.930 . S
H23 C31 0.930 . S
H24 C32 0.930 . S
H25 C35 0.930 . S
H26 C36 0.930 . S
C27 H21 0.930 . S
C27 C28 1.355 1_545 S
C27 C29 1.415 . S
C28 C27 1.355 1_565 S
C28 C30 1.419 1_655 S
C29 C27 1.415 . S
C29 C34 1.425 1_645 S
C29 C36 1.409 . S
C30 H22 0.930 . S
C30 C28 1.419 1_455 S
C30 C31 1.362 . S
C31 H23 0.930 . S
C31 C30 1.362 . S
C31 C34 1.409 . S
C32 H24 0.930 . S
C32 C33 1.355 1_455 S
C32 C34 1.415 . S
C33 C32 1.355 1_655 S
C33 C35 1.419 1_565 S
C34 C29 1.425 1_465 S
C34 C31 1.409 . S
C34 C32 1.415 . S
C35 H25 0.930 . S
C35 C33 1.419 1_545 S
C35 C36 1.362 . S
C36 H26 0.930 . S
C36 C29 1.409 . S
C36 C35 1.362 . S
H37 C43 0.930 . S
H38 C46 0.930 . S
H39 C47 0.930 . S
H40 C48 0.930 . S
H41 C51 0.930 . S
H42 C52 0.930 . S
C43 H37 0.930 . S
C43 C44 1.355 1_546 S
C43 C45 1.415 . S
C44 C43 1.355 1_564 S
C44 C46 1.419 . S
C45 C43 1.415 . S
C45 C50 1.425 1_546 S
C45 C52 1.409 . S
C46 H38 0.930 . S
C46 C44 1.419 . S
C46 C47 1.362 . S
C47 H39 0.930 . S
C47 C46 1.362 . S
C47 C50 1.409 . S
C48 H40 0.930 . S
C48 C49 1.358 1_565 S
C48 C50 1.415 . S
C49 C48 1.358 1_545 S
C49 C51 1.416 1_554 S
C50 C45 1.425 1_564 S
C50 C47 1.409 . S
C50 C48 1.415 . S
C51 H41 0.930 . S
C51 C49 1.416 1_556 S
C51 C52 1.362 . S
C52 H42 0.930 . S
C52 C45 1.409 . S
C52 C51 1.362 . S
H53 C59 0.930 . S
H54 C62 0.930 . S
H55 C63 0.930 . S
H56 C64 0.930 . S
H57 C67 0.930 . S
H58 C68 0.930 . S
C59 H53 0.930 . S
C59 C60 1.351 1_454 S
C59 C61 1.415 . S
C60 C59 1.351 1_656 S
C60 C62 1.422 . S
C61 C59 1.415 . S
C61 C66 1.425 1_454 S
C61 C68 1.409 . S
C62 H54 0.930 . S
C62 C60 1.422 . S
C62 C63 1.362 . S
C63 H55 0.930 . S
C63 C62 1.362 . S
C63 C66 1.409 . S
C64 H56 0.930 . S
C64 C65 1.355 1_656 S
C64 C66 1.415 . S
C65 C64 1.355 1_454 S
C65 C67 1.419 . S
C66 C61 1.425 1_656 S
C66 C63 1.409 . S
C66 C64 1.415 . S
C67 H57 0.930 . S
C67 C65 1.419 . S
C67 C68 1.362 . S
C68 H58 0.930 . S
C68 C61 1.409 . S
C68 C67 1.362 . S
C28 C18 1.231 1_655 S
C33 C15 1.232 1_565 S
C44 C16 1.418 . S
C49 C14 1.419 1_554 S
C60 C17 1.476 1_656 S
C65 C13 1.479 1_454 S
