# Generated by pormake.
# Topology cdl, (4)-cn, num edge types: 1
# Building blocks:
#     Node 0, Type 0, BuildingBlock: MUDLON_clean_sbu_0, # of connection points: 4
#     Node 1, Type 0, BuildingBlock: MUDLON_clean_sbu_0, # of connection points: 4
#     Node 2, Type 0, BuildingBlock: MUDLON_clean_sbu_0, # of connection points: 4
#     Node 3, Type 0, BuildingBlock: MUDLON_clean_sbu_0, # of connection points: 4
#     Edge 4, Type (0, 0), BuildingBlock: EYOCIG_clean_linker_4, # of connection points: 2
#     Edge 5, Type (0, 0), BuildingBlock: EYOCIG_clean_linker_4, # of connection points: 2
#     Edge 6, Type (0, 0), BuildingBlock: EYOCIG_clean_linker_4, # of connection points: 2
#     Edge 7, Type (0, 0), BuildingBlock: EYOCIG_clean_linker_4, # of connection points: 2
#     Edge 8, Type (0, 0), BuildingBlock: EYOCIG_clean_linker_4, # of connection points: 2
#     Edge 9, Type (0, 0), BuildingBlock: EYOCIG_clean_linker_4, # of connection points: 2
#     Edge 10, Type (0, 0), BuildingBlock: EYOCIG_clean_linker_4, # of connection points: 2
#     Edge 11, Type (0, 0), BuildingBlock: EYOCIG_clean_linker_4, # of connection points: 2
# Relax obj value: 0.001
# Max RMSD: 0.021
# Mean RMSD: 0.019
data_MOF--net-cdl--node1-MUDLON_clean_sbu_0--edge1-EYOCIG_clean_linker_4
_symmetry_space_group_name_H-M    P1
_symmetry_Int_Tables_number       1
_symmetry_cell_setting            triclinic
loop_
_symmetry_equiv_pos_as_xyz
'x, y, z'
_cell_length_a     12.538496
_cell_length_b     12.534747
_cell_length_c     50.166426
_cell_angle_alpha  90.406923
_cell_angle_beta   90.779684
_cell_angle_gamma 90.059844
loop_
_atom_site_label
_atom_site_type_symbol
_atom_site_fract_x
_atom_site_fract_y
_atom_site_fract_z
_atom_type_partial_charge
Mg0 Mg 0.97108 0.0008 0.12356 0.0
C1 C 0.05665 0.23455 0.12634 0.0
O2 O 0.14791 0.1844 0.12895 0.0
C3 C 0.05661 0.76761 0.12512 0.0
O4 O 0.14782 0.81848 0.12735 0.0
C5 C 0.04968 0.01035 0.06426 0.0
O6 O 0.14364 0.01858 0.07593 0.0
O7 O 0.96636 0.00133 0.07813 0.0
O8 O 0.97044 0.18218 0.12383 0.0
O9 O 0.97039 0.00072 0.16905 0.0
C10 C 0.05436 0.01214 0.1832 0.0
O11 O 0.14725 0.02349 0.17184 0.0
O12 O 0.97005 0.81942 0.12317 0.0
Mg13 Mg 0.00057 0.11073 0.624 0.0
C14 C 0.23443 0.0254 0.62616 0.0
O15 O 0.18439 0.93394 0.62818 0.0
C16 C 0.76727 0.02542 0.62495 0.0
O17 O 0.81783 0.93406 0.62654 0.0
C18 C 0.00728 0.02928 0.56474 0.0
O19 O 0.01514 0.93661 0.57661 0.0
O20 O 0.99984 0.11422 0.5785 0.0
O21 O 0.18199 0.11156 0.62427 0.0
O22 O 0.00077 0.11019 0.66956 0.0
C23 C 0.01043 0.0246 0.68275 0.0
O24 O 0.02181 0.93304 0.6703 0.0
O25 O 0.81932 0.11196 0.62359 0.0
Mg26 Mg 0.99689 0.01073 0.8736 0.0
C27 C 0.0298 0.24545 0.87671 0.0
O28 O 0.12787 0.21074 0.87976 0.0
C29 C 0.02983 0.77632 0.87497 0.0
O30 O 0.12825 0.81153 0.87689 0.0
C31 C 0.03073 0.02241 0.81583 0.0
O32 O 0.12825 0.02992 0.82546 0.0
O33 O 0.95329 0.01259 0.83166 0.0
O34 O 0.95388 0.17895 0.87382 0.0
O35 O 0.95862 0.01066 0.9156 0.0
C36 C 0.03806 0.02197 0.93131 0.0
O37 O 0.13378 0.0336 0.92151 0.0
O38 O 0.9534 0.84249 0.87319 0.0
Mg39 Mg 0.0095 0.02669 0.37374 0.0
C40 C 0.24482 0.99698 0.37773 0.0
O41 O 0.21134 0.89898 0.38128 0.0
C42 C 0.77468 0.99673 0.37555 0.0
O43 O 0.80842 0.89827 0.37816 0.0
C44 C 0.02052 0.98698 0.31583 0.0
O45 O 0.02679 0.88993 0.32534 0.0
O46 O 0.01155 0.06559 0.33173 0.0
O47 O 0.17743 0.07133 0.37418 0.0
O48 O 0.00839 0.0774 0.41513 0.0
C49 C 0.01927 0.00331 0.43205 0.0
O50 O 0.03195 0.90465 0.4238 0.0
O51 O 0.84189 0.07175 0.373 0.0
C52 C 0.0532 0.44482 0.12561 0.0
C53 C 0.05438 0.34879 0.12593 0.0
C54 C 0.05329 0.55725 0.12529 0.0
C55 C 0.0545 0.65331 0.1252 0.0
C56 C 0.44462 0.02915 0.62542 0.0
C57 C 0.34863 0.02794 0.62575 0.0
C58 C 0.55701 0.029 0.62511 0.0
C59 C 0.65303 0.02769 0.62503 0.0
C60 C 0.00255 0.45439 0.87565 0.0
C61 C 0.01025 0.3584 0.87598 0.0
C62 C 0.00253 0.56724 0.87524 0.0
C63 C 0.01016 0.66326 0.87502 0.0
C64 C 0.45339 0.02663 0.37674 0.0
C65 C 0.3575 0.01803 0.377 0.0
C66 C 0.56617 0.02666 0.37621 0.0
C67 C 0.66203 0.01811 0.37576 0.0
C68 C 0.02454 0.01759 0.98368 0.0
C69 C 0.0254 0.01893 0.95967 0.0
C70 C 0.03163 0.01523 0.01178 0.0
C71 C 0.04035 0.01305 0.03573 0.0
C72 C 0.01241 0.03472 0.48403 0.0
C73 C 0.01488 0.02538 0.46011 0.0
C74 C 0.00987 0.03717 0.51216 0.0
C75 C 0.00858 0.03478 0.53617 0.0
C76 C 0.03184 0.00995 0.2637 0.0
C77 C 0.02634 0.00312 0.2876 0.0
C78 C 0.04002 0.01266 0.23567 0.0
C79 C 0.04726 0.01251 0.21173 0.0
C80 C 0.00586 0.02853 0.73537 0.0
C81 C 0.00782 0.02778 0.71135 0.0
C82 C 0.00679 0.02714 0.76352 0.0
C83 C 0.01329 0.02457 0.78751 0.0
loop_
_geom_bond_atom_site_label_1
_geom_bond_atom_site_label_2
_geom_bond_distance
_geom_bond_site_symmetry_2
_ccdc_geom_bond_type
Mg0 O7 2.141 1_545 S
Mg0 O8 2.048 . S
Mg0 O9 2.048 1_545 S
Mg0 O12 2.141 1_545 S
C1 O2 1.313 . S
C1 O8 1.195 1_455 S
O2 C1 1.313 . S
C3 O4 1.245 . S
C3 O12 1.289 1_455 S
O4 C3 1.245 . S
C5 O6 1.245 . S
C5 O7 1.289 1_445 S
O6 C5 1.245 . S
O7 Mg0 2.141 1_565 S
O7 C5 1.289 1_665 S
O8 Mg0 2.048 . S
O8 C1 1.195 1_655 S
O9 Mg0 2.048 1_565 S
O9 C10 1.195 1_665 S
C10 O9 1.195 1_445 S
C10 O11 1.313 . S
O11 C10 1.313 . S
O12 Mg0 2.141 1_565 S
O12 C3 1.289 1_655 S
Mg13 O20 2.141 1_455 S
Mg13 O21 2.048 . S
Mg13 O22 2.048 1_455 S
Mg13 O25 2.141 1_455 S
C14 O15 1.313 1_545 S
C14 O21 1.195 . S
O15 C14 1.313 1_565 S
C16 O17 1.245 1_545 S
C16 O25 1.289 . S
O17 C16 1.245 1_565 S
C18 O19 1.245 1_545 S
C18 O20 1.289 1_455 S
O19 C18 1.245 1_565 S
O20 Mg13 2.141 1_655 S
O20 C18 1.289 1_655 S
O21 Mg13 2.048 . S
O21 C14 1.195 . S
O22 Mg13 2.048 1_655 S
O22 C23 1.195 1_655 S
C23 O22 1.195 1_455 S
C23 O24 1.313 1_545 S
O24 C23 1.313 1_565 S
O25 Mg13 2.141 1_655 S
O25 C16 1.289 . S
Mg26 O33 2.141 . S
Mg26 O34 2.048 . S
Mg26 O35 2.048 . S
Mg26 O38 2.141 1_545 S
C27 O28 1.313 . S
C27 O34 1.195 1_455 S
O28 C27 1.313 . S
C29 O30 1.245 . S
C29 O38 1.289 1_455 S
O30 C29 1.245 . S
C31 O32 1.245 . S
C31 O33 1.289 1_455 S
O32 C31 1.245 . S
O33 Mg26 2.141 . S
O33 C31 1.289 1_655 S
O34 Mg26 2.048 . S
O34 C27 1.195 1_655 S
O35 Mg26 2.048 . S
O35 C36 1.195 1_655 S
C36 O35 1.195 1_455 S
C36 O37 1.313 . S
O37 C36 1.313 . S
O38 Mg26 2.141 1_565 S
O38 C29 1.289 1_655 S
Mg39 O46 2.141 . S
Mg39 O47 2.048 . S
Mg39 O48 2.048 . S
Mg39 O51 2.141 1_455 S
C40 O41 1.313 1_545 S
C40 O47 1.195 . S
O41 C40 1.313 1_565 S
C42 O43 1.245 . S
C42 O51 1.289 1_565 S
O43 C42 1.245 . S
C44 O45 1.245 . S
C44 O46 1.289 1_565 S
O45 C44 1.245 . S
O46 Mg39 2.141 . S
O46 C44 1.289 1_545 S
O47 Mg39 2.048 . S
O47 C40 1.195 . S
O48 Mg39 2.048 . S
O48 C49 1.195 . S
C49 O48 1.195 . S
C49 O50 1.313 1_545 S
O50 C49 1.313 1_565 S
O51 Mg39 2.141 1_655 S
O51 C42 1.289 1_545 S
C52 C53 1.170 . S
C52 C54 1.380 . S
C53 C52 1.170 . S
C54 C52 1.380 . S
C54 C55 1.170 . S
C55 C54 1.170 . S
C56 C57 1.170 . S
C56 C58 1.380 . S
C57 C56 1.170 . S
C58 C56 1.380 . S
C58 C59 1.170 . S
C59 C58 1.170 . S
C60 C61 1.170 . S
C60 C62 1.380 . S
C61 C60 1.170 . S
C62 C60 1.380 . S
C62 C63 1.170 . S
C63 C62 1.170 . S
C64 C65 1.170 . S
C64 C66 1.380 . S
C65 C64 1.170 . S
C66 C64 1.380 . S
C66 C67 1.170 . S
C67 C66 1.170 . S
C68 C69 1.170 . S
C68 C70 1.380 1_556 S
C69 C68 1.170 . S
C70 C68 1.380 1_554 S
C70 C71 1.170 . S
C71 C70 1.170 . S
C72 C73 1.170 . S
C72 C74 1.380 . S
C73 C72 1.170 . S
C74 C72 1.380 . S
C74 C75 1.170 . S
C75 C74 1.170 . S
C76 C77 1.170 1_565 S
C76 C78 1.380 . S
C77 C76 1.170 1_545 S
C78 C76 1.380 . S
C78 C79 1.170 1_565 S
C79 C78 1.170 1_545 S
C80 C81 1.170 . S
C80 C82 1.380 . S
C81 C80 1.170 . S
C82 C80 1.380 . S
C82 C83 1.170 . S
C83 C82 1.170 . S
C53 C1 1.492 . S
C55 C3 1.479 . S
C57 C14 1.494 . S
C59 C16 1.480 . S
C61 C27 1.487 . S
C63 C29 1.479 . S
C65 C40 1.489 . S
C67 C42 1.493 1_545 S
C69 C36 1.488 . S
C71 C5 1.490 . S
C73 C49 1.501 . S
C75 C18 1.495 . S
C77 C44 1.483 1_545 S
C79 C10 1.494 . S
C81 C23 1.491 . S
C83 C31 1.478 . S
