# Generated by pormake.
# Topology pcu, (6)-cn, num edge types: 1
# Building blocks:
#     Node 0, Type 0, BuildingBlock: KUMJIN_clean_sbu_1, # of connection points: 6
#     Edge 1, Type (0, 0), BuildingBlock: MIFKUJ_clean_linker_0, # of connection points: 2
#     Edge 2, Type (0, 0), BuildingBlock: MIFKUJ_clean_linker_0, # of connection points: 2
#     Edge 3, Type (0, 0), BuildingBlock: MIFKUJ_clean_linker_0, # of connection points: 2
# Relax obj value: 0.000
# Max RMSD: 0.000
# Mean RMSD: 0.000
data_MOF--net-pcu--node1-KUMJIN_clean_sbu_1--edge1-MIFKUJ_clean_linker_0
_symmetry_space_group_name_H-M    P1
_symmetry_Int_Tables_number       1
_symmetry_cell_setting            triclinic
loop_
_symmetry_equiv_pos_as_xyz
'x, y, z'
_cell_length_a     19.468394
_cell_length_b     29.34006
_cell_length_c     19.445126
_cell_angle_alpha  114.27012
_cell_angle_beta   89.369783
_cell_angle_gamma 115.80626
loop_
_atom_site_label
_atom_site_type_symbol
_atom_site_fract_x
_atom_site_fract_y
_atom_site_fract_z
_atom_type_partial_charge
Eu0 Eu 0.96498 0.92368 0.95134 0.0
C1 C 0.22978 0.17812 0.14462 0.0
N2 N 0.15598 0.15384 0.15593 0.0
C3 C 0.20303 0.20275 0.29267 0.0
C4 C 0.29355 0.21547 0.20764 0.0
C5 C 0.14156 0.16621 0.22849 0.0
C6 C 0.27938 0.22733 0.28223 0.0
C7 C 0.31756 0.19023 0.05628 0.0
C8 C 0.24178 0.16537 0.06965 0.0
C9 C 0.3811 0.22749 0.11898 0.0
C10 C 0.36919 0.23988 0.19437 0.0
Eu11 Eu 0.05696 0.09315 0.04383 0.0
N12 N 0.17946 0.12777 0.00975 0.0
C13 C 0.32715 0.17704 0.98022 0.0
C14 C 0.18819 0.11605 0.93573 0.0
C15 C 0.2622 0.13986 0.91973 0.0
H16 H 0.08255 0.14878 0.23713 0.0
H17 H 0.26902 0.13003 0.86083 0.0
H18 H 0.93939 0.86805 0.75805 0.0
H19 H 0.75292 0.88682 0.13435 0.0
H20 H 0.13828 0.0891 0.88904 0.0
H21 H 0.38416 0.19604 0.96766 0.0
H22 H 0.88367 0.92774 0.10614 0.0
H23 H 0.19142 0.2123 0.35016 0.0
H24 H 0.43972 0.24706 0.10985 0.0
H25 H 0.41887 0.26868 0.24209 0.0
H26 H 0.83052 0.80454 0.64502 0.0
H27 H 0.32684 0.25577 0.33212 0.0
H28 H 0.63778 0.8208 0.02753 0.0
N29 N 0.86596 0.86299 0.83925 0.0
C30 C 0.79216 0.83871 0.85056 0.0
C31 C 0.81891 0.81408 0.70251 0.0
C32 C 0.72838 0.80137 0.78754 0.0
C33 C 0.88038 0.85062 0.76669 0.0
C34 C 0.74256 0.78951 0.71295 0.0
N35 N 0.84248 0.88905 0.98543 0.0
C36 C 0.83375 0.90078 0.05945 0.0
C37 C 0.70438 0.82661 0.9389 0.0
C38 C 0.78016 0.85146 0.92553 0.0
C39 C 0.69479 0.8398 0.01496 0.0
C40 C 0.75974 0.87698 0.07545 0.0
H41 H 0.69509 0.76107 0.66306 0.0
H42 H 0.60306 0.74817 0.75309 0.0
H43 H 0.58222 0.76979 0.88533 0.0
O44 O 0.98009 0.8763 0.00649 0.0
O45 O 0.88255 0.96043 0.952 0.0
O46 O 0.9346 0.04696 0.05994 0.0
O47 O 0.96728 0.84384 0.88296 0.0
O48 O 0.02761 0.97862 0.07722 0.0
O49 O 1.00435 0.05543 0.12403 0.0
O50 O 0.04185 0.14053 0.98869 0.0
O51 O 0.13939 0.0564 0.04318 0.0
O52 O 0.08734 0.96986 0.93524 0.0
O53 O 0.05466 0.17299 0.11221 0.0
O54 O 0.99433 0.03821 0.91795 0.0
O55 O 0.0176 0.9614 0.87115 0.0
C56 C 0.87504 1.00208 0.00672 0.0
C57 C 0.04299 0.82235 0.94639 0.0
C58 C 0.08698 0.75972 0.96015 0.0
C59 C 0.16333 0.79647 0.95986 0.0
C60 C 0.11935 0.85846 0.9466 0.0
C61 C 0.17919 0.84548 0.953 0.0
C62 C 0.02687 0.77301 0.95307 0.0
C63 C 0.0172 0.01781 0.13372 0.0
C64 C 0.98047 0.83704 0.94271 0.0
C65 C 0.65275 0.77696 0.80081 0.0
C66 C 0.64083 0.78935 0.8762 0.0
C67 C 0.1469 0.01475 0.98846 0.0
C68 C 0.97895 0.19448 0.04878 0.0
C69 C 0.93496 0.2571 0.03501 0.0
C70 C 0.85861 0.22035 0.03531 0.0
C71 C 0.90259 0.15837 0.04857 0.0
C72 C 0.99507 0.24382 0.0421 0.0
C73 C 0.84276 0.17135 0.04216 0.0
C74 C 1.00474 0.99902 0.86145 0.0
C75 C 0.04148 0.17979 0.05246 0.0
H76 H 0.21065 0.7871 0.96428 0.0
H77 H 0.13237 0.89673 0.94234 0.0
H78 H 0.23801 0.87357 0.95293 0.0
H79 H 0.96792 0.74572 0.95444 0.0
H80 H 0.81129 0.22972 0.03089 0.0
H81 H 0.88957 0.1201 0.05283 0.0
H82 H 0.05402 0.27111 0.04073 0.0
H83 H 0.78393 0.14326 0.04224 0.0
H84 H 0.07464 0.96494 0.18475 0.0
H85 H 0.0732 0.96268 0.30879 0.0
H86 H 0.96288 0.06965 0.37986 0.0
H87 H 0.96493 0.07272 0.25589 0.0
H88 H 0.07532 0.10155 0.49522 0.0
H89 H 0.85684 0.92705 0.31679 0.0
H90 H 0.79203 0.83763 0.19652 0.0
H91 H 0.93473 0.77695 0.25774 0.0
H92 H 1.00107 0.86627 0.37806 0.0
H93 H 0.94731 0.05189 0.81043 0.0
H94 H 0.94874 0.05416 0.68639 0.0
H95 H 0.05906 0.94718 0.61532 0.0
H96 H 0.05701 0.94411 0.73928 0.0
H97 H 0.94663 0.91528 0.49995 0.0
H98 H 0.1651 0.08979 0.67838 0.0
H99 H 0.22992 0.1792 0.79865 0.0
H100 H 0.08722 0.23988 0.73744 0.0
H101 H 0.02087 0.15056 0.61712 0.0
C102 C 0.0503 0.9882 0.22681 0.0
C103 C 0.01982 0.019 0.21046 0.0
C104 C 0.04934 0.98672 0.29764 0.0
C105 C 0.01688 0.0153 0.35314 0.0
C106 C 0.98813 0.04724 0.33779 0.0
C107 C 0.98943 0.049 0.26698 0.0
C108 C 0.01169 0.01091 0.42655 0.0
C109 C 0.0463 0.06088 0.49631 0.0
C110 C 0.97522 0.95774 0.42785 0.0
C111 C 0.93438 0.90356 0.35617 0.0
C112 C 0.87471 0.89477 0.30443 0.0
C113 C 0.83769 0.84412 0.23625 0.0
C114 C 0.85943 0.80175 0.21938 0.0
C115 C 0.91801 0.80984 0.27085 0.0
C116 C 0.95527 0.86043 0.33911 0.0
C117 C 0.97165 0.02863 0.76837 0.0
C118 C 1.00213 0.99783 0.78471 0.0
C119 C 0.9726 0.03011 0.69754 0.0
C120 C 1.00506 1.00153 0.64204 0.0
C121 C 0.03381 0.96959 0.65739 0.0
C122 C 0.03251 0.96783 0.7282 0.0
C123 C 1.01025 1.00592 0.56863 0.0
C124 C 0.97564 0.95595 0.49887 0.0
C125 C 0.04671 0.05909 0.56733 0.0
C126 C 0.08756 0.11327 0.63901 0.0
C127 C 0.14723 0.12206 0.69075 0.0
C128 C 0.18425 0.17272 0.75893 0.0
C129 C 0.16251 0.21508 0.77579 0.0
C130 C 0.10393 0.20699 0.72433 0.0
C131 C 0.06667 0.1564 0.65607 0.0
H132 H 0.19119 0.25424 0.82865 0.0
H133 H 0.83076 0.76259 0.16652 0.0
H134 H 0.27682 0.08424 0.10459 0.0
H135 H 0.40256 0.08449 0.10475 0.0
H136 H 0.32037 0.95399 0.86931 0.0
H137 H 0.19518 0.95462 0.86791 0.0
H138 H 0.38007 0.92599 0.96393 0.0
H139 H 0.46465 0.08223 0.90327 0.0
H140 H 0.48974 0.17518 0.91453 0.0
H141 H 0.62152 0.25761 0.14485 0.0
H142 H 0.59825 0.16505 0.13442 0.0
H143 H 0.74512 0.93259 0.89059 0.0
H144 H 0.61938 0.93234 0.89043 0.0
H145 H 0.70157 0.06284 0.12587 0.0
H146 H 0.82676 0.06222 0.12727 0.0
H147 H 0.64188 0.09084 0.03125 0.0
H148 H 0.55729 0.93461 0.09192 0.0
H149 H 0.5322 0.84166 0.08067 0.0
H150 H 0.40041 0.75922 0.85035 0.0
H151 H 0.42368 0.85177 0.86076 0.0
C152 C 0.28591 0.05635 0.05231 0.0
C153 C 0.22548 0.01876 0.98657 0.0
C154 C 0.35794 0.05659 0.0525 0.0
C155 C 0.37079 0.01911 0.9871 0.0
C156 C 0.31159 0.98308 0.92051 0.0
C157 C 0.24 0.98339 0.91993 0.0
C158 C 0.44343 0.01431 0.99023 0.0
C159 C 0.43729 0.96183 0.97737 0.0
C160 C 0.51817 0.0614 0.01014 0.0
C161 C 0.52892 0.11671 0.01838 0.0
C162 C 0.49825 0.12011 0.95661 0.0
C163 C 0.51263 0.17275 0.96265 0.0
C164 C 0.55688 0.22224 0.03049 0.0
C165 C 0.58718 0.21922 0.09237 0.0
C166 C 0.57374 0.16672 0.08629 0.0
C167 C 0.73603 0.96047 0.94287 0.0
C168 C 0.79647 0.99806 0.00861 0.0
C169 C 0.66401 0.96024 0.94267 0.0
C170 C 0.65116 0.99772 0.00808 0.0
C171 C 0.71035 0.03375 0.07467 0.0
C172 C 0.78194 0.03344 0.07525 0.0
C173 C 0.57852 1.00252 0.00495 0.0
C174 C 0.58465 0.055 0.0178 0.0
C175 C 0.50378 0.95543 0.98503 0.0
C176 C 0.49302 0.90012 0.97681 0.0
C177 C 0.52369 0.89672 0.03857 0.0
C178 C 0.5093 0.84409 0.03254 0.0
C179 C 0.46505 0.79459 0.96471 0.0
C180 C 0.43476 0.79761 0.90283 0.0
C181 C 0.4482 0.85011 0.90889 0.0
H182 H 0.45427 0.75392 0.96012 0.0
H183 H 0.56766 0.26292 0.03509 0.0
H184 H 0.17177 0.74983 0.05934 0.0
H185 H 0.14566 0.66453 0.0719 0.0
H186 H 0.93889 0.56749 0.89283 0.0
H187 H 0.96445 0.65287 0.88038 0.0
H188 H 0.91078 0.5405 0.00924 0.0
H189 H 0.10844 0.56046 0.85745 0.0
H190 H 0.23493 0.61092 0.82785 0.0
H191 H 0.355 0.63225 0.03153 0.0
H192 H 0.22915 0.58261 0.06298 0.0
H193 H 0.85017 0.267 0.93582 0.0
H194 H 0.87628 0.35229 0.92325 0.0
H195 H 0.08305 0.44934 0.10233 0.0
H196 H 0.05749 0.36395 0.11478 0.0
H197 H 0.11116 0.47632 0.98591 0.0
H198 H 0.9135 0.45637 0.13771 0.0
H199 H 0.78702 0.40591 0.16731 0.0
H200 H 0.66694 0.38458 0.96364 0.0
H201 H 0.79278 0.43421 0.93217 0.0
C202 C 0.12103 0.71023 0.02226 0.0
C203 C 0.07042 0.70801 0.96851 0.0
C204 C 0.10614 0.66151 0.02953 0.0
C205 C 0.0409 0.60938 0.98253 0.0
C206 C 0.9896 0.60722 0.92968 0.0
C207 C 1.0042 0.65604 0.9227 0.0
C208 C 0.02623 0.55714 0.98846 0.0
C209 C 0.9542 0.52604 0.0031 0.0
C210 C 0.08355 0.53895 0.98219 0.0
C211 C 0.15933 0.56824 0.96292 0.0
C212 C 0.1618 0.57624 0.8962 0.0
C213 C 0.23339 0.60466 0.87907 0.0
C214 C 0.30294 0.62488 0.92786 0.0
C215 C 0.30106 0.6166 0.99382 0.0
C216 C 0.22962 0.58828 0.0113 0.0
C217 C 0.90091 0.30659 0.9729 0.0
C218 C 0.95152 0.30881 0.02665 0.0
C219 C 0.9158 0.35531 0.96562 0.0
C220 C 0.98104 0.40744 0.01262 0.0
C221 C 0.03235 0.40961 0.06548 0.0
C222 C 0.01774 0.36078 0.07246 0.0
C223 C 0.9957 0.45968 0.00669 0.0
C224 C 0.06774 0.49078 0.99205 0.0
C225 C 0.93839 0.47787 0.01296 0.0
C226 C 0.86261 0.44858 0.03224 0.0
C227 C 0.86014 0.44059 0.09895 0.0
C228 C 0.78856 0.41217 0.11609 0.0
C229 C 0.719 0.39195 0.0673 0.0
C230 C 0.72088 0.40022 0.00134 0.0
C231 C 0.79231 0.42854 0.98386 0.0
H232 H 0.66366 0.37003 0.08073 0.0
H233 H 0.35828 0.6468 0.91443 0.0
loop_
_geom_bond_atom_site_label_1
_geom_bond_atom_site_label_2
_geom_bond_distance
_geom_bond_site_symmetry_2
_ccdc_geom_bond_type
Eu0 N29 2.600 . S
Eu0 N35 2.562 . S
Eu0 O44 2.462 . S
Eu0 O45 2.373 . S
Eu0 O47 2.432 . S
Eu0 O48 2.291 1_556 S
Eu0 O52 2.335 1_655 S
Eu0 O55 2.372 . S
Eu0 C64 2.787 . S
C1 N2 1.365 . S
C1 C4 1.405 . S
C1 C8 1.448 . S
N2 C1 1.365 . S
N2 C5 1.319 . S
N2 Eu11 2.600 . S
C3 C5 1.397 . S
C3 C6 1.367 . S
C3 H23 0.931 . S
C4 C1 1.405 . S
C4 C6 1.403 . S
C4 C10 1.439 . S
C5 N2 1.319 . S
C5 C3 1.397 . S
C5 H16 0.930 . S
C6 C3 1.367 . S
C6 C4 1.403 . S
C6 H27 0.929 . S
C7 C8 1.430 . S
C7 C9 1.387 . S
C7 C13 1.404 . S
C8 C1 1.448 . S
C8 C7 1.430 . S
C8 N12 1.351 . S
C9 C7 1.387 . S
C9 C10 1.374 . S
C9 H24 0.931 . S
C10 C4 1.439 . S
C10 C9 1.374 . S
C10 H25 0.931 . S
Eu11 N2 2.600 . S
Eu11 N12 2.562 . S
Eu11 O46 2.335 1_455 S
Eu11 O49 2.372 . S
Eu11 O50 2.462 . S
Eu11 O51 2.373 . S
Eu11 O53 2.432 . S
Eu11 O54 2.291 1_554 S
Eu11 C75 2.787 . S
N12 C8 1.351 . S
N12 Eu11 2.562 . S
N12 C14 1.325 1_554 S
C13 C7 1.404 . S
C13 C15 1.366 1_554 S
C13 H21 0.930 1_554 S
C14 N12 1.325 1_556 S
C14 C15 1.416 . S
C14 H20 0.929 . S
C15 C13 1.366 1_556 S
C15 C14 1.416 . S
C15 H17 0.930 . S
H16 C5 0.930 . S
H17 C15 0.930 . S
H18 C33 0.930 . S
H19 C40 0.930 . S
H20 C14 0.929 . S
H21 C13 0.930 1_556 S
H22 C36 0.929 . S
H23 C3 0.931 . S
H24 C9 0.931 . S
H25 C10 0.931 . S
H26 C31 0.931 . S
H27 C6 0.929 . S
H28 C39 0.930 1_554 S
N29 Eu0 2.600 . S
N29 C30 1.365 . S
N29 C33 1.319 . S
C30 N29 1.365 . S
C30 C32 1.405 . S
C30 C38 1.448 . S
C31 H26 0.931 . S
C31 C33 1.397 . S
C31 C34 1.367 . S
C32 C30 1.405 . S
C32 C34 1.403 . S
C32 C65 1.439 . S
C33 H18 0.930 . S
C33 N29 1.319 . S
C33 C31 1.397 . S
C34 C31 1.367 . S
C34 C32 1.403 . S
C34 H41 0.929 . S
N35 Eu0 2.562 . S
N35 C36 1.325 1_556 S
N35 C38 1.351 . S
C36 H22 0.929 . S
C36 N35 1.325 1_554 S
C36 C40 1.416 . S
C37 C38 1.430 . S
C37 C39 1.404 . S
C37 C66 1.387 . S
C38 C30 1.448 . S
C38 N35 1.351 . S
C38 C37 1.430 . S
C39 H28 0.930 1_556 S
C39 C37 1.404 . S
C39 C40 1.366 1_556 S
C40 H19 0.930 . S
C40 C36 1.416 . S
C40 C39 1.366 1_554 S
H41 C34 0.929 . S
H42 C65 0.931 . S
H43 C66 0.931 . S
O44 Eu0 2.462 . S
O44 C64 1.252 . S
O45 Eu0 2.373 . S
O45 C56 1.247 . S
O46 Eu11 2.335 1_655 S
O46 C56 1.265 1_544 S
O47 Eu0 2.432 . S
O47 C64 1.268 . S
O48 Eu0 2.291 1_554 S
O48 C63 1.255 1_565 S
O49 Eu11 2.372 . S
O49 C63 1.257 1_455 S
O50 Eu11 2.462 . S
O50 C75 1.252 . S
O51 Eu11 2.373 . S
O51 C67 1.252 . S
O52 Eu0 2.335 1_455 S
O52 C67 1.262 1_566 S
O53 Eu11 2.432 . S
O53 C75 1.268 . S
O54 Eu11 2.291 1_556 S
O54 C74 1.255 1_545 S
O55 Eu0 2.372 . S
O55 C74 1.257 1_655 S
C56 O45 1.247 . S
C56 O46 1.265 1_566 S
C57 C60 1.382 . S
C57 C62 1.390 . S
C57 C64 1.506 . S
C58 C59 1.398 . S
C58 C62 1.392 . S
C59 C58 1.398 . S
C59 C61 1.372 . S
C59 H76 0.931 . S
C60 C57 1.382 . S
C60 C61 1.390 . S
C60 H77 0.931 . S
C61 C59 1.372 . S
C61 C60 1.390 . S
C61 H78 0.929 . S
C62 C57 1.390 . S
C62 C58 1.392 . S
C62 H79 0.930 1_556 S
C63 O48 1.255 1_545 S
C63 O49 1.257 1_655 S
C64 Eu0 2.787 . S
C64 O44 1.252 . S
C64 O47 1.268 . S
C64 C57 1.506 . S
C65 C32 1.439 . S
C65 H42 0.931 . S
C65 C66 1.374 . S
C66 C37 1.387 . S
C66 H43 0.931 . S
C66 C65 1.374 . S
C67 O51 1.252 . S
C67 O52 1.262 1_544 S
C68 C71 1.382 . S
C68 C72 1.390 . S
C68 C75 1.506 . S
C69 C70 1.398 . S
C69 C72 1.392 . S
C70 C69 1.398 . S
C70 C73 1.372 . S
C70 H80 0.931 . S
C71 C68 1.382 . S
C71 C73 1.390 . S
C71 H81 0.931 . S
C72 C68 1.390 . S
C72 C69 1.392 . S
C72 H82 0.930 1_554 S
C73 C70 1.372 . S
C73 C71 1.390 . S
C73 H83 0.929 . S
C74 O54 1.255 1_565 S
C74 O55 1.257 1_455 S
C75 Eu11 2.787 . S
C75 O50 1.252 . S
C75 O53 1.268 . S
C75 C68 1.506 . S
H76 C59 0.931 . S
H77 C60 0.931 . S
H78 C61 0.929 . S
H79 C62 0.930 1_554 S
H80 C70 0.931 . S
H81 C71 0.931 . S
H82 C72 0.930 1_556 S
H83 C73 0.929 . S
H84 C102 0.951 . S
H85 C104 0.951 . S
H86 C106 0.950 . S
H87 C107 0.950 . S
H88 C109 0.950 . S
H89 C112 0.950 . S
H90 C113 0.950 . S
H91 C115 0.950 . S
H92 C116 0.950 . S
H93 C117 0.951 . S
H94 C119 0.951 . S
H95 C121 0.950 . S
H96 C122 0.950 . S
H97 C124 0.950 . S
H98 C127 0.950 . S
H99 C128 0.950 . S
H100 C130 0.950 . S
H101 C131 0.950 . S
C102 H84 0.951 . S
C102 C103 1.365 1_565 S
C102 C104 1.388 . S
C103 C102 1.365 1_545 S
C103 C107 1.385 1_455 S
C104 H85 0.951 . S
C104 C102 1.388 . S
C104 C105 1.366 1_455 S
C105 C104 1.366 1_655 S
C105 C106 1.414 1_565 S
C105 C108 1.498 . S
C106 H86 0.950 . S
C106 C105 1.414 1_545 S
C106 C107 1.374 . S
C107 H87 0.950 . S
C107 C103 1.385 1_655 S
C107 C106 1.374 . S
C108 C105 1.498 . S
C108 C109 1.372 1_665 S
C108 C110 1.392 . S
C109 H88 0.950 . S
C109 C108 1.372 1_445 S
C109 C125 1.377 . S
C110 C108 1.392 . S
C110 C111 1.524 . S
C110 C124 1.377 . S
C111 C110 1.524 . S
C111 C112 1.397 . S
C111 C116 1.363 . S
C112 H89 0.950 . S
C112 C111 1.397 . S
C112 C113 1.334 . S
C113 H90 0.950 . S
C113 C112 1.334 . S
C113 C114 1.287 . S
C114 C113 1.287 . S
C114 C115 1.524 . S
C114 H133 0.913 . S
C115 H91 0.950 . S
C115 C114 1.524 . S
C115 C116 1.415 . S
C116 H92 0.950 . S
C116 C111 1.363 . S
C116 C115 1.415 . S
C117 H93 0.951 . S
C117 C118 1.363 . S
C117 C119 1.388 . S
C118 C117 1.363 . S
C118 C122 1.387 1_645 S
C119 H94 0.951 . S
C119 C117 1.388 . S
C119 C120 1.366 1_655 S
C120 C119 1.366 1_455 S
C120 C121 1.414 1_545 S
C120 C123 1.495 . S
C121 H95 0.950 . S
C121 C120 1.414 1_565 S
C121 C122 1.374 . S
C122 H96 0.950 . S
C122 C118 1.387 1_465 S
C122 C121 1.374 . S
C123 C120 1.495 . S
C123 C124 1.370 1_445 S
C123 C125 1.396 . S
C124 H97 0.950 . S
C124 C110 1.377 . S
C124 C123 1.370 1_665 S
C125 C109 1.377 . S
C125 C123 1.396 . S
C125 C126 1.524 . S
C126 C125 1.524 . S
C126 C127 1.397 . S
C126 C131 1.363 . S
C127 H98 0.950 . S
C127 C126 1.397 . S
C127 C128 1.334 . S
C128 H99 0.950 . S
C128 C127 1.334 . S
C128 C129 1.287 . S
C129 C128 1.287 . S
C129 C130 1.524 . S
C129 H132 0.999 . S
C130 H100 0.950 . S
C130 C129 1.524 . S
C130 C131 1.415 . S
C131 H101 0.950 . S
C131 C126 1.363 . S
C131 C130 1.415 . S
H132 C129 0.999 . S
H133 C114 0.913 . S
H134 C152 0.951 . S
H135 C154 0.951 . S
H136 C156 0.950 . S
H137 C157 0.950 . S
H138 C159 0.950 . S
H139 C162 0.950 . S
H140 C163 0.950 . S
H141 C165 0.950 . S
H142 C166 0.950 . S
H143 C167 0.951 . S
H144 C169 0.951 . S
H145 C171 0.950 . S
H146 C172 0.950 . S
H147 C174 0.950 . S
H148 C177 0.950 . S
H149 C178 0.950 . S
H150 C180 0.950 . S
H151 C181 0.950 . S
C152 H134 0.951 . S
C152 C153 1.366 . S
C152 C154 1.388 . S
C153 C152 1.366 . S
C153 C157 1.386 1_544 S
C154 H135 0.951 . S
C154 C152 1.388 . S
C154 C155 1.366 . S
C155 C154 1.366 . S
C155 C156 1.414 1_544 S
C155 C158 1.499 1_554 S
C156 H136 0.950 . S
C156 C155 1.414 1_566 S
C156 C157 1.374 . S
C157 H137 0.950 . S
C157 C153 1.386 1_566 S
C157 C156 1.374 . S
C158 C155 1.499 1_556 S
C158 C159 1.376 1_545 S
C158 C160 1.386 1_556 S
C159 H138 0.950 . S
C159 C158 1.376 1_565 S
C159 C175 1.377 . S
C160 C158 1.386 1_554 S
C160 C161 1.524 . S
C160 C174 1.377 . S
C161 C160 1.524 . S
C161 C162 1.397 . S
C161 C166 1.363 . S
C162 H139 0.950 . S
C162 C161 1.397 . S
C162 C163 1.334 . S
C163 H140 0.950 . S
C163 C162 1.334 . S
C163 C164 1.287 . S
C164 C163 1.287 . S
C164 C165 1.524 . S
C164 H183 0.913 . S
C165 H141 0.950 . S
C165 C164 1.524 . S
C165 C166 1.415 . S
C166 H142 0.950 . S
C166 C161 1.363 . S
C166 C165 1.415 . S
C167 H143 0.951 . S
C167 C168 1.366 1_566 S
C167 C169 1.388 . S
C168 C167 1.366 1_544 S
C168 C172 1.386 . S
C169 H144 0.951 . S
C169 C167 1.388 . S
C169 C170 1.366 . S
C170 C169 1.366 . S
C170 C171 1.414 1_566 S
C170 C173 1.499 1_556 S
C171 H145 0.950 . S
C171 C170 1.414 1_544 S
C171 C172 1.374 . S
C172 H146 0.950 . S
C172 C168 1.386 . S
C172 C171 1.374 . S
C173 C170 1.499 1_554 S
C173 C174 1.378 1_565 S
C173 C175 1.384 1_554 S
C174 H147 0.950 . S
C174 C160 1.377 . S
C174 C173 1.378 1_545 S
C175 C159 1.377 . S
C175 C173 1.384 1_556 S
C175 C176 1.524 . S
C176 C175 1.524 . S
C176 C177 1.397 . S
C176 C181 1.363 . S
C177 H148 0.950 . S
C177 C176 1.397 . S
C177 C178 1.334 . S
C178 H149 0.950 . S
C178 C177 1.334 . S
C178 C179 1.287 . S
C179 C178 1.287 . S
C179 C180 1.524 . S
C179 H182 0.999 . S
C180 H150 0.950 . S
C180 C179 1.524 . S
C180 C181 1.415 . S
C181 H151 0.950 . S
C181 C176 1.363 . S
C181 C180 1.415 . S
H182 C179 0.999 . S
H183 C164 0.913 . S
H184 C202 0.951 . S
H185 C204 0.951 . S
H186 C206 0.950 . S
H187 C207 0.950 . S
H188 C209 0.950 . S
H189 C212 0.950 . S
H190 C213 0.950 . S
H191 C215 0.950 . S
H192 C216 0.950 . S
H193 C217 0.951 . S
H194 C219 0.951 . S
H195 C221 0.950 . S
H196 C222 0.950 . S
H197 C224 0.950 . S
H198 C227 0.950 . S
H199 C228 0.950 . S
H200 C230 0.950 . S
H201 C231 0.950 . S
C202 H184 0.951 . S
C202 C203 1.367 1_455 S
C202 C204 1.388 . S
C203 C202 1.367 1_655 S
C203 C207 1.384 1_554 S
C204 H185 0.951 . S
C204 C202 1.388 . S
C204 C205 1.366 1_554 S
C205 C204 1.366 1_556 S
C205 C206 1.414 1_455 S
C205 C208 1.499 . S
C206 H186 0.950 . S
C206 C205 1.414 1_655 S
C206 C207 1.374 . S
C207 H187 0.950 . S
C207 C203 1.384 1_556 S
C207 C206 1.374 . S
C208 C205 1.499 . S
C208 C209 1.373 1_455 S
C208 C210 1.389 1_556 S
C209 H188 0.950 . S
C209 C208 1.373 1_655 S
C209 C225 1.377 . S
C210 C208 1.389 1_554 S
C210 C211 1.524 . S
C210 C224 1.377 . S
C211 C210 1.524 . S
C211 C212 1.397 1_554 S
C211 C216 1.363 . S
C212 H189 0.950 . S
C212 C211 1.397 1_556 S
C212 C213 1.334 . S
C213 H190 0.950 . S
C213 C212 1.334 . S
C213 C214 1.287 1_556 S
C214 C213 1.287 1_554 S
C214 C215 1.524 . S
C214 H233 0.913 . S
C215 H191 0.950 . S
C215 C214 1.524 . S
C215 C216 1.415 . S
C216 H192 0.950 . S
C216 C211 1.363 . S
C216 C215 1.415 . S
C217 H193 0.951 . S
C217 C218 1.365 1_656 S
C217 C219 1.388 . S
C218 C217 1.365 1_454 S
C218 C222 1.385 . S
C219 H194 0.951 . S
C219 C217 1.388 . S
C219 C220 1.366 1_556 S
C220 C219 1.366 1_554 S
C220 C221 1.414 1_655 S
C220 C223 1.499 . S
C221 H195 0.950 . S
C221 C220 1.414 1_455 S
C221 C222 1.374 . S
C222 H196 0.950 . S
C222 C218 1.385 . S
C222 C221 1.374 . S
C223 C220 1.499 . S
C223 C224 1.373 1_655 S
C223 C225 1.389 1_554 S
C224 H197 0.950 . S
C224 C210 1.377 . S
C224 C223 1.373 1_455 S
C225 C209 1.377 . S
C225 C223 1.389 1_556 S
C225 C226 1.524 . S
C226 C225 1.524 . S
C226 C227 1.397 1_556 S
C226 C231 1.363 . S
C227 H198 0.950 . S
C227 C226 1.397 1_554 S
C227 C228 1.334 . S
C228 H199 0.950 . S
C228 C227 1.334 . S
C228 C229 1.287 1_554 S
C229 C228 1.287 1_556 S
C229 C230 1.524 . S
C229 H232 0.999 . S
C230 H200 0.950 . S
C230 C229 1.524 . S
C230 C231 1.415 . S
C231 H201 0.950 . S
C231 C226 1.363 . S
C231 C230 1.415 . S
H232 C229 0.999 . S
H233 C214 0.913 . S
C103 C63 1.482 1_455 S
C118 C74 1.482 1_645 S
C153 C67 1.492 . S
C168 C56 1.494 1_544 S
C203 C58 1.358 1_554 S
C218 C69 1.360 . S
