# Generated by pormake.
# Topology bcu, (8)-cn, num edge types: 1
# Building blocks:
#     Node 0, Type 0, BuildingBlock: LIZSOE_clean_sbu_0, # of connection points: 8
#     Node 1, Type 0, BuildingBlock: LIZSOE_clean_sbu_0, # of connection points: 8
#     Edge 2, Type (0, 0), None
#     Edge 3, Type (0, 0), None
#     Edge 4, Type (0, 0), None
#     Edge 5, Type (0, 0), None
#     Edge 6, Type (0, 0), None
#     Edge 7, Type (0, 0), None
#     Edge 8, Type (0, 0), None
#     Edge 9, Type (0, 0), None
# Relax obj value: 0.097
# Max RMSD: 0.135
# Mean RMSD: 0.135
data_MOF--net-bcu--node1-LIZSOE_clean_sbu_0--edge1-none
_symmetry_space_group_name_H-M    P1
_symmetry_Int_Tables_number       1
_symmetry_cell_setting            triclinic
loop_
_symmetry_equiv_pos_as_xyz
'x, y, z'
_cell_length_a     11.399084
_cell_length_b     11.394636
_cell_length_c     12.048075
_cell_angle_alpha  128.47533
_cell_angle_beta   51.539353
_cell_angle_gamma 131.2272
loop_
_atom_site_label
_atom_site_type_symbol
_atom_site_fract_x
_atom_site_fract_y
_atom_site_fract_z
_atom_type_partial_charge
Co0 Co 0.16827 0.85523 0.02987 0.0
N1 N 0.21356 0.86183 0.15044 0.0
C2 C 0.11338 0.84934 0.28848 0.0
N3 N 0.35711 0.8985 0.24194 0.0
C4 C 0.36454 0.90101 0.1291 0.0
C5 C 0.20129 0.87349 0.34564 0.0
Co6 Co 0.89205 0.13189 0.92225 0.0
N7 N 0.89873 0.17719 0.80161 0.0
N8 N 0.93524 0.3208 0.71023 0.0
C9 C 0.91044 0.16493 0.6064 0.0
C10 C 0.88642 0.077 0.66347 0.0
C11 C 0.93778 0.32823 0.82305 0.0
Co12 Co 1.02927 0.99268 -0.02392 0.0
C13 C 0.81384 0.20899 0.14477 0.0
H14 H 0.85596 0.94716 0.60857 0.0
O15 O 0.15501 0.86112 0.89026 0.0
O16 O 0.21518 0.13469 0.82611 0.0
O17 O 0.17128 0.17868 0.12609 0.0
O18 O 0.84059 0.85912 0.12437 0.0
O19 O 1.0102 0.92545 0.20207 0.0
O20 O 0.10819 0.29218 0.89726 0.0
O21 O 0.89786 0.11857 0.06189 0.0
O22 O 0.96212 0.97364 0.75009 0.0
O23 O 0.32853 0.07146 0.05493 0.0
O24 O 0.29894 0.77262 0.8701 0.0
O25 O 0.89565 0.80392 0.82778 0.0
O26 O 0.80955 0.26269 0.08203 0.0
C27 C 0.28973 0.19 0.13503 0.0
C28 C 0.94684 0.47967 0.9675 0.0
H29 H 1.03729 0.51631 0.00535 0.0
H30 H 0.97991 0.58552 0.95331 0.0
H31 H 0.82157 0.45551 0.05762 0.0
C32 C 0.2266 0.25326 0.81719 0.0
C33 C 0.8664 0.838 0.20017 0.0
H34 H 0.98358 0.81868 0.34324 0.0
H35 H 0.4921 0.78518 0.89447 0.0
H36 H 0.62186 0.94365 -0.00095 0.0
H37 H 0.55254 1.00098 0.9471 0.0
C38 C 0.51603 0.91043 -0.01522 0.0
C39 C 0.24544 0.77711 0.80733 0.0
C40 C 0.87448 0.82982 0.75208 0.0
H41 H 0.1463 0.84467 0.44285 0.0
H42 H 0.88176 0.10997 0.50911 0.0
Co43 Co 0.66829 0.35525 0.52989 0.0
N44 N 0.7136 0.36183 0.65043 0.0
C45 C 0.61337 0.34914 0.78842 0.0
N46 N 0.85699 0.3981 0.74172 0.0
C47 C 0.86458 0.40091 0.62899 0.0
C48 C 0.7012 0.37301 0.84549 0.0
Co49 Co 0.39208 0.6319 0.42223 0.0
N50 N 0.39873 0.67723 0.30163 0.0
N51 N 0.43484 0.82068 0.21045 0.0
C52 C 0.40996 0.66484 0.10655 0.0
C53 C 0.38621 0.57699 0.16353 0.0
C54 C 0.43768 0.82827 0.32315 0.0
Co55 Co 0.52927 0.49269 0.47608 0.0
C56 C 0.31386 0.70899 0.64475 0.0
H57 H 0.35577 0.44714 0.10863 0.0
O58 O 0.655 0.36114 0.39029 0.0
O59 O 0.71518 0.63467 0.32609 0.0
O60 O 0.67126 0.67869 0.62611 0.0
O61 O 0.34061 0.35913 0.62438 0.0
O62 O 0.51021 0.42546 0.70213 0.0
O63 O 0.60823 0.79219 0.39723 0.0
O64 O 0.39788 0.61856 0.56186 0.0
O65 O 0.46213 0.47366 0.25003 0.0
O66 O 0.82854 0.5715 0.55497 0.0
O67 O 0.79896 0.27265 0.3701 0.0
O68 O 0.39567 0.30394 0.32777 0.0
O69 O 0.30958 0.76271 0.58202 0.0
C70 C 0.7897 0.69002 0.63506 0.0
C71 C 0.44685 0.97974 0.46758 0.0
H72 H 0.53731 1.01632 0.50538 0.0
H73 H 0.47994 0.08561 0.45341 0.0
H74 H 0.3216 0.95562 0.55773 0.0
C75 C 0.72661 0.75323 0.31716 0.0
C76 C 0.3664 0.33812 0.70028 0.0
H77 H 0.48357 0.31849 0.84318 0.0
H78 H 0.99221 0.28521 0.39436 0.0
H79 H 0.12195 0.44369 0.49896 0.0
H80 H 1.05256 0.501 0.44706 0.0
C81 C 1.0161 0.41044 0.4847 0.0
C82 C 0.74544 0.27713 0.30735 0.0
C83 C 0.3746 0.32982 0.25198 0.0
H84 H 0.64623 0.34399 0.94256 0.0
H85 H 0.38108 0.6099 0.00939 0.0
loop_
_geom_bond_atom_site_label_1
_geom_bond_atom_site_label_2
_geom_bond_distance
_geom_bond_site_symmetry_2
_ccdc_geom_bond_type
Co0 N1 2.034 . S
Co0 O15 2.262 1_554 S
Co0 O19 1.958 1_455 S
Co0 O23 1.950 1_565 S
Co0 O24 2.057 1_554 S
N1 Co0 2.034 . S
N1 C2 1.366 . S
N1 C4 1.332 . S
C2 N1 1.366 . S
C2 C5 1.377 . S
C2 H34 0.931 1_455 S
N3 C4 1.346 . S
N3 C5 1.337 . S
C4 N1 1.332 . S
C4 N3 1.346 . S
C4 C38 1.361 . S
C5 C2 1.377 . S
C5 N3 1.337 . S
C5 H41 0.930 . S
Co6 N7 2.034 . S
Co6 O20 1.950 1_655 S
Co6 O21 2.262 1_556 S
Co6 O22 1.958 1_545 S
Co6 O26 2.057 1_556 S
N7 Co6 2.034 . S
N7 C10 1.366 . S
N7 C11 1.332 . S
N8 C9 1.337 . S
N8 C11 1.346 . S
C9 N8 1.337 . S
C9 C10 1.377 . S
C9 H42 0.930 . S
C10 N7 1.366 . S
C10 C9 1.377 . S
C10 H14 0.931 1_545 S
C11 N7 1.332 . S
C11 N8 1.346 . S
C11 C28 1.361 . S
Co12 O15 2.097 1_654 S
Co12 O16 2.065 1_664 S
Co12 O17 2.065 1_665 S
Co12 O18 2.042 . S
Co12 O21 2.097 1_565 S
Co12 O25 2.042 1_554 S
C13 O21 1.253 . S
C13 O26 1.263 . S
H14 C10 0.931 1_565 S
O15 Co0 2.262 1_556 S
O15 Co12 2.097 1_456 S
O15 C39 1.253 . S
O16 Co12 2.065 1_446 S
O16 C32 1.221 . S
O17 Co12 2.065 1_445 S
O17 C27 1.221 . S
O18 Co12 2.042 . S
O18 C33 1.237 . S
O19 Co0 1.958 1_655 S
O19 C33 1.278 . S
O20 Co6 1.950 1_455 S
O20 C32 1.277 . S
O21 Co6 2.262 1_554 S
O21 Co12 2.097 1_545 S
O21 C13 1.253 . S
O22 Co6 1.958 1_565 S
O22 C40 1.278 . S
O23 Co0 1.950 1_545 S
O23 C27 1.277 . S
O24 Co0 2.057 1_556 S
O24 C39 1.263 . S
O25 Co12 2.042 1_556 S
O25 C40 1.237 . S
O26 Co6 2.057 1_554 S
O26 C13 1.263 . S
C27 O17 1.221 . S
C27 O23 1.277 . S
C28 C11 1.361 . S
C28 H29 0.960 . S
C28 H30 0.961 1_655 S
C28 H31 0.961 . S
H29 C28 0.960 . S
H30 C28 0.961 1_455 S
H31 C28 0.961 . S
C32 O16 1.221 . S
C32 O20 1.277 . S
C33 O18 1.237 . S
C33 O19 1.278 . S
H34 C2 0.931 1_655 S
H35 C38 0.961 . S
H36 C38 0.961 1_545 S
H37 C38 0.960 . S
C38 C4 1.361 . S
C38 H35 0.961 . S
C38 H36 0.961 1_565 S
C38 H37 0.960 . S
C39 O15 1.253 . S
C39 O24 1.263 . S
C40 O22 1.278 . S
C40 O25 1.237 . S
H41 C5 0.930 . S
H42 C9 0.930 . S
Co43 N44 2.034 . S
Co43 O58 2.262 . S
Co43 O62 1.958 . S
Co43 O66 1.950 . S
Co43 O67 2.057 . S
N44 Co43 2.034 . S
N44 C45 1.366 . S
N44 C47 1.332 . S
C45 N44 1.366 . S
C45 C48 1.377 . S
C45 H77 0.931 . S
N46 C47 1.346 . S
N46 C48 1.337 . S
C47 N44 1.332 . S
C47 N46 1.346 . S
C47 C81 1.361 . S
C48 C45 1.377 . S
C48 N46 1.337 . S
C48 H84 0.930 . S
Co49 N50 2.034 . S
Co49 O63 1.950 . S
Co49 O64 2.262 . S
Co49 O65 1.958 . S
Co49 O69 2.057 . S
N50 Co49 2.034 . S
N50 C53 1.366 . S
N50 C54 1.332 . S
N51 C52 1.337 . S
N51 C54 1.346 . S
C52 N51 1.337 . S
C52 C53 1.377 . S
C52 H85 0.930 . S
C53 N50 1.366 . S
C53 C52 1.377 . S
C53 H57 0.931 . S
C54 N50 1.332 . S
C54 N51 1.346 . S
C54 C71 1.361 . S
Co55 O58 2.097 . S
Co55 O59 2.065 . S
Co55 O60 2.065 . S
Co55 O61 2.042 . S
Co55 O64 2.097 . S
Co55 O68 2.042 . S
C56 O64 1.253 . S
C56 O69 1.263 . S
H57 C53 0.931 . S
O58 Co43 2.262 . S
O58 Co55 2.097 . S
O58 C82 1.253 . S
O59 Co55 2.065 . S
O59 C75 1.221 . S
O60 Co55 2.065 . S
O60 C70 1.221 . S
O61 Co55 2.042 . S
O61 C76 1.237 . S
O62 Co43 1.958 . S
O62 C76 1.278 . S
O63 Co49 1.950 . S
O63 C75 1.277 . S
O64 Co49 2.262 . S
O64 Co55 2.097 . S
O64 C56 1.253 . S
O65 Co49 1.958 . S
O65 C83 1.278 . S
O66 Co43 1.950 . S
O66 C70 1.277 . S
O67 Co43 2.057 . S
O67 C82 1.263 . S
O68 Co55 2.042 . S
O68 C83 1.237 . S
O69 Co49 2.057 . S
O69 C56 1.263 . S
C70 O60 1.221 . S
C70 O66 1.277 . S
C71 C54 1.361 . S
C71 H72 0.960 . S
C71 H73 0.961 . S
C71 H74 0.961 . S
H72 C71 0.960 . S
H73 C71 0.961 . S
H74 C71 0.961 . S
C75 O59 1.221 . S
C75 O63 1.277 . S
C76 O61 1.237 . S
C76 O62 1.278 . S
H77 C45 0.931 . S
H78 C81 0.961 . S
H79 C81 0.961 . S
H80 C81 0.960 . S
C81 C47 1.361 . S
C81 H78 0.961 . S
C81 H79 0.961 . S
C81 H80 0.960 . S
C82 O58 1.253 . S
C82 O67 1.263 . S
C83 O65 1.278 . S
C83 O68 1.237 . S
H84 C48 0.930 . S
H85 C52 0.930 . S
C27 C83 1.729 . S
C13 C82 1.431 . S
C33 C75 1.730 . S
N3 N51 0.459 . S
C39 C56 1.431 . S
C76 C32 1.731 . S
N8 N46 0.461 . S
C70 C40 1.732 . S
