# Generated by pormake.
# Topology cds, (4)-cn, num edge types: 1
# Building blocks:
#     Node 0, Type 0, BuildingBlock: NAWXER_clean_sbu_0, # of connection points: 4
#     Node 1, Type 0, BuildingBlock: NAWXER_clean_sbu_0, # of connection points: 4
#     Edge 2, Type (0, 0), BuildingBlock: UVAHIK_clean_linker_0, # of connection points: 2
#     Edge 3, Type (0, 0), BuildingBlock: UVAHIK_clean_linker_0, # of connection points: 2
#     Edge 4, Type (0, 0), BuildingBlock: UVAHIK_clean_linker_0, # of connection points: 2
#     Edge 5, Type (0, 0), BuildingBlock: UVAHIK_clean_linker_0, # of connection points: 2
# Relax obj value: 0.000
# Max RMSD: 0.000
# Mean RMSD: 0.000
data_MOF--net-cds--node1-NAWXER_clean_sbu_0--edge1-UVAHIK_clean_linker_0
_symmetry_space_group_name_H-M    P1
_symmetry_Int_Tables_number       1
_symmetry_cell_setting            triclinic
loop_
_symmetry_equiv_pos_as_xyz
'x, y, z'
_cell_length_a     19.238129
_cell_length_b     19.235779
_cell_length_c     38.334528
_cell_angle_alpha  96.625192
_cell_angle_beta   96.414655
_cell_angle_gamma 88.858146
loop_
_atom_site_label
_atom_site_type_symbol
_atom_site_fract_x
_atom_site_fract_y
_atom_site_fract_z
_atom_type_partial_charge
C0 C 0.08157 0.89545 0.99131 0.0
C1 C 0.82708 0.89551 0.98857 0.0
O2 O 0.04135 0.84281 0.98705 0.0
Zn3 Zn 0.95442 0.89441 0.99045 0.0
O4 O 0.05536 0.95723 0.99602 0.0
Zn5 Zn 0.954 0.00519 0.99873 0.0
O6 O 0.95964 0.05366 0.04586 0.0
O7 O 0.96436 0.93876 0.04508 0.0
O8 O 0.85284 0.95732 0.99319 0.0
O9 O 0.86784 0.84282 0.98583 0.0
O10 O 0.94417 0.94656 0.94304 0.0
O11 O 0.94807 0.06041 0.95962 0.0
C12 C 0.96501 0.99997 0.06243 0.0
C13 C 0.94306 0.00968 0.93514 0.0
C14 C 0.10787 0.18593 0.51663 0.0
C15 C 0.1081 0.93124 0.51304 0.0
O16 O 0.1605 0.14518 0.51951 0.0
Zn17 Zn 0.10901 0.05841 0.51432 0.0
O18 O 0.04612 0.1601 0.51165 0.0
Zn19 Zn 0.99844 0.05886 0.50558 0.0
O20 O 0.94217 0.06441 0.5443 0.0
O21 O 0.05564 0.06755 0.56149 0.0
O22 O 0.04638 0.95739 0.50818 0.0
O23 O 0.16069 0.97155 0.51758 0.0
O24 O 0.06591 0.04851 0.45952 0.0
O25 O 0.95097 0.05332 0.45837 0.0
C26 C 0.99222 0.06857 0.56903 0.0
C27 C 0.00501 0.04791 0.44198 0.0
C28 C 0.94153 0.06543 0.12036 0.0
C29 C 0.97065 0.00728 0.10144 0.0
C30 C 0.94374 0.07017 0.15717 0.0
C31 C 0.97749 0.9607 0.2323 0.0
H32 H 0.98575 0.1417 0.28877 0.0
C33 C 0.05119 0.0087 0.38445 0.0
C34 C 0.99834 0.04187 0.40297 0.0
C35 C 0.04568 0.00378 0.34757 0.0
C36 C 0.98312 0.09092 0.27318 0.0
H37 H 0.02717 0.90973 0.10617 0.0
H38 H 0.03488 0.91962 0.17026 0.0
H39 H 0.98364 0.13552 0.22471 0.0
H40 H 0.89877 0.09656 0.39754 0.0
H41 H 0.89057 0.09006 0.33288 0.0
H42 H 0.98063 0.91662 0.28141 0.0
C43 C 0.00736 0.96032 0.1569 0.0
C44 C 0.98141 0.08716 0.23643 0.0
C45 C 0.0036 0.95484 0.12007 0.0
C46 C 0.94006 0.07039 0.38392 0.0
C47 C 0.93547 0.067 0.34706 0.0
C48 C 0.98089 0.96454 0.26908 0.0
C49 C 0.97663 0.01758 0.17605 0.0
C50 C 0.97848 0.02193 0.21536 0.0
C51 C 0.98814 0.03345 0.32866 0.0
C52 C 0.98353 0.02963 0.28976 0.0
H53 H 0.91523 0.10636 0.10661 0.0
H54 H 0.91829 0.11447 0.17064 0.0
H55 H 0.97344 0.90952 0.21722 0.0
H56 H 0.09656 0.98607 0.39845 0.0
H57 H 0.08693 0.97779 0.33383 0.0
C58 C 0.90394 0.97432 0.87135 0.0
C59 C 0.93802 0.02251 0.89768 0.0
C60 C 0.90205 0.9842 0.83571 0.0
C61 C 0.94113 0.11562 0.77527 0.0
H62 H 0.94572 0.94931 0.70791 0.0
C63 C 0.02724 0.10153 0.63356 0.0
C64 C 0.97817 0.07162 0.60631 0.0
C65 C 0.01609 0.10079 0.66894 0.0
C66 C 0.94388 0.99613 0.72645 0.0
H67 H 0.99676 0.11893 0.90753 0.0
H68 H 0.99716 0.13442 0.84541 0.0
H69 H 0.93983 0.93723 0.76998 0.0
H70 H 0.87885 0.01789 0.59465 0.0
H71 H 0.86076 0.01433 0.65674 0.0
H72 H 0.94964 0.17383 0.73137 0.0
C73 C 0.96934 0.09024 0.85201 0.0
C74 C 0.93995 0.98945 0.76209 0.0
C75 C 0.9696 0.08124 0.88774 0.0
C76 C 0.91734 0.04166 0.61511 0.0
C77 C 0.90707 0.03938 0.65052 0.0
C78 C 0.94677 0.12212 0.7397 0.0
C79 C 0.93597 0.04154 0.82538 0.0
C80 C 0.93846 0.04909 0.78712 0.0
C81 C 0.95653 0.06865 0.67768 0.0
C82 C 0.94808 0.06241 0.71505 0.0
H83 H 0.87843 0.92896 0.87833 0.0
H84 H 0.874 0.94651 0.81632 0.0
H85 H 0.93868 0.16292 0.79336 0.0
H86 H 0.07449 0.12515 0.62752 0.0
H87 H 0.05507 0.12333 0.68951 0.0
C88 C 0.71979 0.82021 0.98316 0.0
C89 C 0.75028 0.88684 0.98644 0.0
C90 C 0.64699 0.81335 0.98127 0.0
C91 C 0.48274 0.91065 0.96018 0.0
H92 H 0.39998 0.78702 0.01692 0.0
C93 C 0.20018 0.94633 0.99194 0.0
C94 C 0.15798 0.88685 0.9899 0.0
C95 C 0.27177 0.93951 0.98944 0.0
C96 C 0.42232 0.82102 1.00054 0.0
H97 H 0.72806 0.99843 0.99047 0.0
H98 H 0.60222 0.98645 0.9874 0.0
H99 H 0.52705 0.787 0.01586 0.0
H100 H 0.15846 0.77333 0.9842 0.0
H101 H 0.28445 0.76147 0.97996 0.0
H102 H 0.37865 0.94576 0.94537 0.0
C103 C 0.63414 0.9394 0.9858 0.0
C104 C 0.49502 0.82098 0.99991 0.0
C105 C 0.70651 0.94625 0.98781 0.0
C106 C 0.18949 0.82019 0.98583 0.0
C107 C 0.26159 0.81337 0.98352 0.0
C108 C 0.41041 0.91076 0.96085 0.0
C109 C 0.6034 0.87297 0.98238 0.0
C110 C 0.52609 0.86703 0.98034 0.0
C111 C 0.30329 0.87307 0.98492 0.0
C112 C 0.37947 0.86716 0.98166 0.0
H113 H 0.75206 0.77339 0.98207 0.0
H114 H 0.6248 0.76144 0.9785 0.0
H115 H 0.50488 0.94557 0.94418 0.0
H116 H 0.17789 0.99852 0.99521 0.0
H117 H 0.30265 0.98655 0.99128 0.0
C118 C 0.05721 0.81255 0.51213 0.0
C119 C 0.11668 0.85482 0.51441 0.0
C120 C 0.06398 0.741 0.51474 0.0
C121 C 0.18277 0.59038 0.50444 0.0
H122 H 0.05702 0.50881 0.56061 0.0
C123 C 0.18316 0.2933 0.52234 0.0
C124 C 0.11654 0.26276 0.51889 0.0
C125 C 0.19001 0.36611 0.52418 0.0
C126 C 0.09227 0.53067 0.54467 0.0
H127 H 0.23016 0.85451 0.52059 0.0
H128 H 0.24193 0.72859 0.52501 0.0
H129 H 0.05682 0.63496 0.55909 0.0
H130 H 0.00498 0.28494 0.51457 0.0
H131 H 0.01696 0.4108 0.51757 0.0
H132 H 0.21712 0.48545 0.48949 0.0
C133 C 0.19008 0.75136 0.52119 0.0
C134 C 0.09217 0.60295 0.54381 0.0
C135 C 0.1833 0.82342 0.51878 0.0
C136 C 0.05715 0.30652 0.51736 0.0
C137 C 0.06399 0.37891 0.51933 0.0
C138 C 0.18279 0.51773 0.50525 0.0
C139 C 0.13037 0.7096 0.51961 0.0
C140 C 0.13621 0.63352 0.52307 0.0
C141 C 0.1304 0.40968 0.52287 0.0
C142 C 0.13633 0.487 0.52475 0.0
H143 H 0.00506 0.83475 0.50863 0.0
H144 H 0.01696 0.71006 0.51275 0.0
H145 H 0.21712 0.61244 0.48812 0.0
H146 H 0.22996 0.26103 0.52355 0.0
H147 H 0.2419 0.38833 0.52706 0.0
loop_
_geom_bond_atom_site_label_1
_geom_bond_atom_site_label_2
_geom_bond_distance
_geom_bond_site_symmetry_2
_ccdc_geom_bond_type
C0 O2 1.250 1_554 S
C0 O4 1.257 1_565 S
C1 O8 1.255 1_556 S
C1 O9 1.254 1_545 S
O2 C0 1.250 1_556 S
O2 Zn3 2.025 . S
Zn3 O2 2.025 . S
Zn3 O7 2.035 1_556 S
Zn3 O9 2.036 1_455 S
Zn3 O10 2.028 1_455 S
O4 C0 1.257 1_545 S
O4 Zn5 2.036 . S
Zn5 O4 2.036 . S
Zn5 O6 2.028 . S
Zn5 O8 2.025 1_455 S
Zn5 O11 2.035 1_454 S
O6 Zn5 2.028 . S
O6 C12 1.251 . S
O7 Zn3 2.035 1_554 S
O7 C12 1.254 1_565 S
O8 C1 1.255 1_554 S
O8 Zn5 2.025 1_655 S
O9 C1 1.254 1_565 S
O9 Zn3 2.036 1_655 S
O10 Zn3 2.028 1_655 S
O10 C13 1.248 . S
O11 Zn5 2.035 1_656 S
O11 C13 1.257 1_545 S
C12 O6 1.251 . S
C12 O7 1.254 1_545 S
C13 O10 1.248 . S
C13 O11 1.257 1_565 S
C14 O16 1.251 . S
C14 O18 1.254 1_455 S
C15 O22 1.248 . S
C15 O23 1.257 1_655 S
O16 C14 1.251 . S
O16 Zn17 2.043 . S
Zn17 O16 2.043 . S
Zn17 O21 2.034 . S
Zn17 O23 2.020 1_545 S
Zn17 O24 2.029 1_545 S
O18 C14 1.254 1_655 S
O18 Zn19 2.024 1_545 S
Zn19 O18 2.024 1_565 S
Zn19 O20 2.029 1_565 S
Zn19 O22 2.039 . S
Zn19 O25 2.034 . S
O20 Zn19 2.029 1_545 S
O20 C26 1.248 . S
O21 Zn17 2.034 . S
O21 C26 1.257 1_455 S
O22 C15 1.248 . S
O22 Zn19 2.039 . S
O23 C15 1.257 1_455 S
O23 Zn17 2.020 1_565 S
O24 Zn17 2.029 1_565 S
O24 C27 1.251 . S
O25 Zn19 2.034 . S
O25 C27 1.254 1_655 S
C26 O20 1.248 . S
C26 O21 1.257 1_655 S
C27 O24 1.251 . S
C27 O25 1.254 1_455 S
C28 C29 1.349 1_655 S
C28 C30 1.327 . S
C28 H53 0.950 . S
C29 C28 1.349 1_455 S
C29 C45 1.349 1_545 S
C30 C28 1.327 . S
C30 C49 1.429 1_655 S
C30 H54 0.950 . S
C31 C48 1.574 . S
C31 C50 1.368 1_565 S
C31 H55 0.949 . S
H32 C36 0.949 . S
C33 C34 1.349 1_565 S
C33 C35 1.327 . S
C33 H56 0.950 . S
C34 C33 1.349 1_545 S
C34 C46 1.349 1_455 S
C35 C33 1.327 . S
C35 C51 1.429 1_565 S
C35 H57 0.950 . S
C36 H32 0.949 . S
C36 C44 1.574 . S
C36 C52 1.368 1_655 S
H37 C45 0.950 . S
H38 C43 0.950 . S
H39 C44 0.949 . S
H40 C46 0.950 . S
H41 C47 0.950 . S
H42 C48 0.949 . S
C43 H38 0.950 . S
C43 C45 1.327 . S
C43 C49 1.429 1_565 S
C44 C36 1.574 . S
C44 H39 0.949 . S
C44 C50 1.368 1_655 S
C45 C29 1.349 1_565 S
C45 H37 0.950 . S
C45 C43 1.327 . S
C46 C34 1.349 1_655 S
C46 H40 0.950 . S
C46 C47 1.327 . S
C47 H41 0.950 . S
C47 C46 1.327 . S
C47 C51 1.429 1_655 S
C48 C31 1.574 . S
C48 H42 0.949 . S
C48 C52 1.368 1_565 S
C49 C30 1.429 1_455 S
C49 C43 1.429 1_545 S
C49 C50 1.523 . S
C50 C31 1.368 1_545 S
C50 C44 1.368 1_455 S
C50 C49 1.523 . S
C51 C35 1.429 1_545 S
C51 C47 1.429 1_455 S
C51 C52 1.523 . S
C52 C36 1.368 1_455 S
C52 C48 1.368 1_545 S
C52 C51 1.523 . S
H53 C28 0.950 . S
H54 C30 0.950 . S
H55 C31 0.949 . S
H56 C33 0.950 . S
H57 C35 0.950 . S
C58 C59 1.349 1_665 S
C58 C60 1.327 . S
C58 H83 0.950 . S
C59 C58 1.349 1_445 S
C59 C75 1.349 . S
C60 C58 1.327 . S
C60 C79 1.429 1_665 S
C60 H84 0.950 . S
C61 C78 1.574 . S
C61 C80 1.368 . S
C61 H85 0.949 . S
H62 C66 0.949 . S
C63 C64 1.349 . S
C63 C65 1.327 . S
C63 H86 0.950 . S
C64 C63 1.349 . S
C64 C76 1.349 1_445 S
C65 C63 1.327 . S
C65 C81 1.429 . S
C65 H87 0.950 . S
C66 H62 0.949 . S
C66 C74 1.574 . S
C66 C82 1.368 1_665 S
H67 C75 0.950 . S
H68 C73 0.950 . S
H69 C74 0.949 . S
H70 C76 0.950 . S
H71 C77 0.950 . S
H72 C78 0.949 . S
C73 H68 0.950 . S
C73 C75 1.327 . S
C73 C79 1.429 . S
C74 C66 1.574 . S
C74 H69 0.949 . S
C74 C80 1.368 1_665 S
C75 C59 1.349 . S
C75 H67 0.950 . S
C75 C73 1.327 . S
C76 C64 1.349 1_665 S
C76 H70 0.950 . S
C76 C77 1.327 . S
C77 H71 0.950 . S
C77 C76 1.327 . S
C77 C81 1.429 1_665 S
C78 C61 1.574 . S
C78 H72 0.949 . S
C78 C82 1.368 . S
C79 C60 1.429 1_445 S
C79 C73 1.429 . S
C79 C80 1.523 . S
C80 C61 1.368 . S
C80 C74 1.368 1_445 S
C80 C79 1.523 . S
C81 C65 1.429 . S
C81 C77 1.429 1_445 S
C81 C82 1.523 . S
C82 C66 1.368 1_445 S
C82 C78 1.368 . S
C82 C81 1.523 . S
H83 C58 0.950 . S
H84 C60 0.950 . S
H85 C61 0.949 . S
H86 C63 0.950 . S
H87 C65 0.950 . S
C88 C89 1.349 1_565 S
C88 C90 1.327 . S
C88 H113 0.950 . S
C89 C88 1.349 1_545 S
C89 C105 1.349 1_554 S
C90 C88 1.327 . S
C90 C109 1.429 1_565 S
C90 H114 0.950 . S
C91 C108 1.574 . S
C91 C110 1.368 1_556 S
C91 H115 0.949 . S
H92 C96 0.949 . S
C93 C94 1.349 1_556 S
C93 C95 1.327 . S
C93 H116 0.950 . S
C94 C93 1.349 1_554 S
C94 C106 1.349 1_545 S
C95 C93 1.327 . S
C95 C111 1.429 1_556 S
C95 H117 0.950 . S
C96 H92 0.949 . S
C96 C104 1.574 . S
C96 C112 1.368 1_565 S
H97 C105 0.950 . S
H98 C103 0.950 . S
H99 C104 0.949 . S
H100 C106 0.950 . S
H101 C107 0.950 . S
H102 C108 0.949 . S
C103 H98 0.950 . S
C103 C105 1.327 . S
C103 C109 1.429 1_556 S
C104 C96 1.574 . S
C104 H99 0.949 . S
C104 C110 1.368 1_565 S
C105 C89 1.349 1_556 S
C105 H97 0.950 . S
C105 C103 1.327 . S
C106 C94 1.349 1_565 S
C106 H100 0.950 . S
C106 C107 1.327 . S
C107 H101 0.950 . S
C107 C106 1.327 . S
C107 C111 1.429 1_565 S
C108 C91 1.574 . S
C108 H102 0.949 . S
C108 C112 1.368 1_556 S
C109 C90 1.429 1_545 S
C109 C103 1.429 1_554 S
C109 C110 1.523 . S
C110 C91 1.368 1_554 S
C110 C104 1.368 1_545 S
C110 C109 1.523 . S
C111 C95 1.429 1_554 S
C111 C107 1.429 1_545 S
C111 C112 1.523 . S
C112 C96 1.368 1_545 S
C112 C108 1.368 1_554 S
C112 C111 1.523 . S
H113 C88 0.950 . S
H114 C90 0.950 . S
H115 C91 0.949 . S
H116 C93 0.950 . S
H117 C95 0.950 . S
C118 C119 1.349 1_655 S
C118 C120 1.327 . S
C118 H143 0.950 . S
C119 C118 1.349 1_455 S
C119 C135 1.349 . S
C120 C118 1.327 . S
C120 C139 1.429 1_655 S
C120 H144 0.950 . S
C121 C138 1.574 . S
C121 C140 1.368 . S
C121 H145 0.949 . S
H122 C126 0.949 . S
C123 C124 1.349 . S
C123 C125 1.327 . S
C123 H146 0.950 . S
C124 C123 1.349 . S
C124 C136 1.349 1_455 S
C125 C123 1.327 . S
C125 C141 1.429 . S
C125 H147 0.950 . S
C126 H122 0.949 . S
C126 C134 1.574 . S
C126 C142 1.368 1_655 S
H127 C135 0.950 . S
H128 C133 0.950 . S
H129 C134 0.949 . S
H130 C136 0.950 . S
H131 C137 0.950 . S
H132 C138 0.949 . S
C133 H128 0.950 . S
C133 C135 1.327 . S
C133 C139 1.429 . S
C134 C126 1.574 . S
C134 H129 0.949 . S
C134 C140 1.368 1_655 S
C135 C119 1.349 . S
C135 H127 0.950 . S
C135 C133 1.327 . S
C136 C124 1.349 1_655 S
C136 H130 0.950 . S
C136 C137 1.327 . S
C137 H131 0.950 . S
C137 C136 1.327 . S
C137 C141 1.429 1_655 S
C138 C121 1.574 . S
C138 H132 0.949 . S
C138 C142 1.368 . S
C139 C120 1.429 1_455 S
C139 C133 1.429 . S
C139 C140 1.523 . S
C140 C121 1.368 . S
C140 C134 1.368 1_455 S
C140 C139 1.523 . S
C141 C125 1.429 . S
C141 C137 1.429 1_455 S
C141 C142 1.523 . S
C142 C126 1.368 1_455 S
C142 C138 1.368 . S
C142 C141 1.523 . S
H143 C118 0.950 . S
H144 C120 0.950 . S
H145 C121 0.949 . S
H146 C123 0.950 . S
H147 C125 0.950 . S
C29 C12 1.498 . S
C34 C27 1.495 1_545 S
C59 C13 1.498 1_445 S
C64 C26 1.502 1_455 S
C89 C1 1.498 1_554 S
C94 C0 1.498 1_545 S
C119 C15 1.498 1_455 S
C124 C14 1.499 . S
