# Generated by pormake.
# Topology qtz-a, (4)-cn, num edge types: 1
# Building blocks:
#     Node 0, Type 0, BuildingBlock: QUQFOY_clean_sbu_3, # of connection points: 4
#     Node 1, Type 0, BuildingBlock: QUQFOY_clean_sbu_3, # of connection points: 4
#     Node 2, Type 0, BuildingBlock: QUQFOY_clean_sbu_3, # of connection points: 4
#     Node 3, Type 0, BuildingBlock: QUQFOY_clean_sbu_3, # of connection points: 4
#     Node 4, Type 0, BuildingBlock: QUQFOY_clean_sbu_3, # of connection points: 4
#     Node 5, Type 0, BuildingBlock: QUQFOY_clean_sbu_3, # of connection points: 4
#     Node 6, Type 0, BuildingBlock: QUQFOY_clean_sbu_3, # of connection points: 4
#     Node 7, Type 0, BuildingBlock: QUQFOY_clean_sbu_3, # of connection points: 4
#     Node 8, Type 0, BuildingBlock: QUQFOY_clean_sbu_3, # of connection points: 4
#     Node 9, Type 0, BuildingBlock: QUQFOY_clean_sbu_3, # of connection points: 4
#     Node 10, Type 0, BuildingBlock: QUQFOY_clean_sbu_3, # of connection points: 4
#     Node 11, Type 0, BuildingBlock: QUQFOY_clean_sbu_3, # of connection points: 4
#     Edge 12, Type (0, 0), None
#     Edge 13, Type (0, 0), None
#     Edge 14, Type (0, 0), None
#     Edge 15, Type (0, 0), None
#     Edge 16, Type (0, 0), None
#     Edge 17, Type (0, 0), None
#     Edge 18, Type (0, 0), None
#     Edge 19, Type (0, 0), None
#     Edge 20, Type (0, 0), None
#     Edge 21, Type (0, 0), None
#     Edge 22, Type (0, 0), None
#     Edge 23, Type (0, 0), None
#     Edge 24, Type (0, 0), None
#     Edge 25, Type (0, 0), None
#     Edge 26, Type (0, 0), None
#     Edge 27, Type (0, 0), None
#     Edge 28, Type (0, 0), None
#     Edge 29, Type (0, 0), None
#     Edge 30, Type (0, 0), None
#     Edge 31, Type (0, 0), None
#     Edge 32, Type (0, 0), None
#     Edge 33, Type (0, 0), None
#     Edge 34, Type (0, 0), None
#     Edge 35, Type (0, 0), None
# Relax obj value: 0.731
# Max RMSD: 0.699
# Mean RMSD: 0.699
data_MOF--net-qtz-a--node1-QUQFOY_clean_sbu_3--edge1-none
_symmetry_space_group_name_H-M    P1
_symmetry_Int_Tables_number       1
_symmetry_cell_setting            triclinic
loop_
_symmetry_equiv_pos_as_xyz
'x, y, z'
_cell_length_a     12.499959
_cell_length_b     12.499988
_cell_length_c     34.419871
_cell_angle_alpha  89.774729
_cell_angle_beta   89.765041
_cell_angle_gamma 119.98177
loop_
_atom_site_label
_atom_site_type_symbol
_atom_site_fract_x
_atom_site_fract_y
_atom_site_fract_z
_atom_type_partial_charge
C0 C 0.83488 0.2399 -0.03511 0.0
O1 O 0.93372 0.2339 -0.03483 0.0
Cd2 Cd 1.12518 0.3796 -0.07667 0.0
O3 O 0.83859 0.33291 -0.05096 0.0
Cd4 Cd 1.04766 0.43638 -0.06928 0.0
C5 C 0.9808 1.17418 -0.1267 0.0
O6 O 1.14122 0.53554 -0.12849 0.0
O7 O 1.0273 0.5951 -0.09823 0.0
O8 O 1.05419 0.57246 -0.02186 0.0
C9 C 1.08448 0.59689 -0.12885 0.0
O10 O 1.09557 0.21446 -0.12286 0.0
C11 C 1.11738 0.55616 0.00363 0.0
O12 O 0.93483 0.23214 -0.10946 0.0
O13 O 1.15866 0.48339 -0.00478 0.0
C14 C 0.7793 0.74625 0.29954 0.0
O15 O 0.88413 0.84511 0.29947 0.0
Cd16 Cd 0.92933 1.0355 0.25694 0.0
O17 O 0.68996 0.74954 0.28381 0.0
Cd18 Cd 0.79758 0.95778 0.26465 0.0
C19 C 0.99583 0.89336 0.20734 0.0
O20 O 0.78905 1.04985 0.20556 0.0
O21 O 0.6165 0.93222 0.23613 0.0
O22 O 0.6722 0.97389 0.31221 0.0
C23 C 0.67096 0.99102 0.20553 0.0
O24 O 1.06655 1.00914 0.21007 0.0
C25 C 0.75251 1.03325 0.33775 0.0
O26 O 0.89265 0.84523 0.22531 0.0
O27 O 0.86539 1.06878 0.32915 0.0
C28 C 1.21964 0.68936 0.63222 0.0
O29 O 1.22621 0.79446 0.63229 0.0
Cd30 Cd 1.08163 0.8412 0.59085 0.0
O31 O 1.12643 0.60016 0.61682 0.0
Cd32 Cd 1.02476 0.70713 0.59835 0.0
C33 C 0.28813 0.90281 0.54037 0.0
O34 O 0.92701 0.702 0.53933 0.0
O35 O 0.86746 0.52821 0.56968 0.0
O36 O 0.88362 0.57968 0.64578 0.0
C37 C 0.86598 0.58391 0.53909 0.0
O38 O 1.24787 0.97734 0.54435 0.0
C39 C 0.90303 0.6594 0.67145 0.0
O40 O 1.22974 0.79867 0.55771 0.0
O41 O 0.97957 0.77275 0.66304 0.0
C42 C 0.71609 1.12587 -0.03475 0.0
O43 O 0.61736 1.13207 -0.03402 0.0
Cd44 Cd 0.42545 0.98725 -0.07484 0.0
O45 O 0.71223 1.03299 -0.05048 0.0
Cd46 Cd 0.50308 0.93045 -0.06783 0.0
C47 C 0.56922 0.19365 -0.12559 0.0
O48 O 0.40899 0.83217 -0.12654 0.0
O49 O 0.52344 0.77234 -0.09691 0.0
O50 O 0.49427 0.79272 -0.02012 0.0
C51 C 0.46585 0.77094 -0.12722 0.0
O52 O 0.45447 1.15321 -0.12116 0.0
C53 C 0.43218 0.81025 0.00561 0.0
O54 O 0.61539 1.13544 -0.1086 0.0
O55 O 0.39241 0.88429 -0.00281 0.0
C56 C 0.77474 0.62753 0.30005 0.0
O57 O 0.66989 0.52874 0.30035 0.0
Cd58 Cd 0.62577 0.33741 0.25945 0.0
O59 O 0.86482 0.624 0.28476 0.0
Cd60 Cd 0.75902 0.41573 0.26651 0.0
C61 C 0.56137 0.47911 0.2088 0.0
O62 O 0.76699 0.32331 0.20775 0.0
O63 O 0.93979 0.44175 0.23734 0.0
O64 O 0.8858 0.40103 0.31347 0.0
C65 C 0.88511 0.38246 0.20716 0.0
O66 O 0.48834 0.36405 0.21312 0.0
C67 C 0.8059 0.34109 0.33947 0.0
O68 O 0.66529 0.5265 0.22588 0.0
O69 O 0.6927 0.30469 0.33147 0.0
C70 C 0.33342 0.68404 0.63224 0.0
O71 O 0.32683 0.57894 0.63277 0.0
Cd72 Cd 0.47279 0.53252 0.5916 0.0
O73 O 0.42698 0.77333 0.61649 0.0
Cd74 Cd 0.52926 0.66651 0.59859 0.0
C75 C 1.2677 0.4707 0.54126 0.0
O76 O 0.62908 0.67209 0.53964 0.0
O77 O 0.68755 0.84573 0.56927 0.0
O78 O 0.66763 0.79335 0.64593 0.0
C79 C 0.69004 0.79018 0.53893 0.0
O80 O 0.30813 0.39637 0.54554 0.0
C81 C 0.64793 0.71309 0.67174 0.0
O82 O 0.32536 0.57472 0.55823 0.0
O83 O 0.57249 0.59979 0.66349 0.0
C84 C 1.21653 0.6359 0.42076 0.0
O85 O 1.19372 0.52612 0.41726 0.0
Cd86 Cd 1.00053 0.44614 0.4562 0.0
O87 O 1.13333 0.6509 0.43615 0.0
Cd88 Cd 0.97141 0.42969 0.45295 0.0
C89 C 1.16204 0.44596 0.5157 0.0
O90 O 0.91796 0.57861 0.47411 0.0
O91 O 0.8267 0.40586 0.50551 0.0
O92 O 0.78647 0.31356 0.40912 0.0
C93 C 0.85101 0.51781 0.50285 0.0
O94 O 1.11854 0.51744 0.51683 0.0
C95 C 0.85229 0.34019 0.3786 0.0
O96 O 1.11897 0.36469 0.48917 0.0
O97 O 0.96792 0.39233 0.38337 0.0
C98 C 0.76235 1.12197 0.75383 0.0
O99 O 0.84932 1.09922 0.74992 0.0
Cd100 Cd 0.73691 0.90622 0.78899 0.0
O101 O 0.66437 1.03878 0.76947 0.0
Cd102 Cd 0.72419 0.87703 0.78558 0.0
C103 C 0.89943 1.06828 0.84795 0.0
O104 O 0.52205 0.82306 0.80765 0.0
O105 O 0.60431 0.73198 0.83837 0.0
O106 O 0.65538 0.69261 0.74134 0.0
C107 C 0.51648 0.7561 0.83623 0.0
O108 O 0.78447 1.02469 0.84959 0.0
C109 C 0.69448 0.75893 0.7109 0.0
O110 O 0.93715 1.02503 0.82116 0.0
O111 O 0.75765 0.87446 0.71584 0.0
C112 C 0.82977 0.67184 0.08968 0.0
O113 O 0.93991 0.75943 0.08815 0.0
Cd114 Cd 1.02728 0.64851 0.12577 0.0
O115 O 0.81279 0.57037 0.10291 0.0
Cd116 Cd 1.03099 0.63403 0.11758 0.0
C117 C 1.02411 0.81298 0.18261 0.0
O118 O 0.89143 0.43085 0.14105 0.0
O119 O 1.06237 0.52156 0.17255 0.0
O120 O 1.14995 0.56889 0.07303 0.0
C121 C 0.95179 0.43124 0.1706 0.0
O122 O 0.96704 0.69809 0.18846 0.0
C123 C 1.11776 0.6034 0.04273 0.0
O124 O 1.09084 0.84945 0.15204 0.0
O125 O 1.06101 0.66238 0.04794 0.0
C126 C 0.34263 0.73782 0.42056 0.0
O127 O 0.36543 0.84757 0.41661 0.0
Cd128 Cd 0.55753 0.92752 0.45529 0.0
O129 O 0.42544 0.72281 0.43603 0.0
Cd130 Cd 0.5868 0.9441 0.45197 0.0
C131 C 0.39444 0.92747 0.51475 0.0
O132 O 0.64015 0.79553 0.47385 0.0
O133 O 0.73017 0.96826 0.50454 0.0
O134 O 0.7723 1.05857 0.40732 0.0
C135 C 0.70612 0.85635 0.50238 0.0
O136 O 0.43749 0.85562 0.5161 0.0
C137 C 0.7067 1.03429 0.37709 0.0
O138 O 0.43861 1.00912 0.488 0.0
O139 O 0.59125 0.98409 0.38238 0.0
C140 C 0.78649 0.24806 0.7538 0.0
O141 O 0.69955 0.27095 0.75028 0.0
Cd142 Cd 0.81234 0.46317 0.78882 0.0
O143 O 0.88457 0.33087 0.76897 0.0
Cd144 Cd 0.82509 0.49244 0.78542 0.0
C145 C 0.65034 0.30004 0.84864 0.0
O146 O 1.0273 0.54563 0.80636 0.0
O147 O 0.94559 0.6364 0.83755 0.0
O148 O 0.8946 0.67807 0.74104 0.0
C149 C 1.03332 0.61222 0.8349 0.0
O150 O 0.7653 0.34351 0.84964 0.0
C151 C 0.85529 0.61267 0.71072 0.0
O152 O 0.61238 0.34387 0.82209 0.0
O153 O 0.79137 0.49703 0.71586 0.0
C154 C 0.72777 0.69599 0.08947 0.0
O155 O 0.61833 0.60967 0.08476 0.0
Cd156 Cd 0.53502 0.72078 0.12285 0.0
O157 O 0.74157 0.79311 0.10507 0.0
Cd158 Cd 0.51892 0.73295 0.11989 0.0
C159 C 0.53544 0.55924 0.18298 0.0
O160 O 0.66543 0.93597 0.14053 0.0
O161 O 0.493 0.85221 0.17215 0.0
O162 O 0.40151 0.79929 0.07519 0.0
C163 C 0.6045 0.94076 0.16935 0.0
O164 O 0.60557 0.67441 0.18402 0.0
C165 C 0.43163 0.76299 0.04486 0.0
O166 O 0.45477 0.52035 0.15627 0.0
O167 O 0.48663 0.70228 0.05001 0.0
loop_
_geom_bond_atom_site_label_1
_geom_bond_atom_site_label_2
_geom_bond_distance
_geom_bond_site_symmetry_2
_ccdc_geom_bond_type
C0 O1 1.306 . S
C0 O3 1.160 . S
O1 C0 1.306 . S
O1 Cd2 2.228 . S
Cd2 O1 2.228 . S
Cd2 O6 2.273 . S
Cd2 O10 2.277 . S
O3 C0 1.160 . S
O3 Cd4 2.203 . S
Cd4 O3 2.203 . S
Cd4 O6 2.411 . S
Cd4 O7 2.333 . S
Cd4 O8 2.352 . S
Cd4 O12 2.277 . S
Cd4 O13 2.356 . S
C5 O10 1.209 . S
C5 O12 1.226 . S
O6 Cd2 2.273 . S
O6 Cd4 2.411 . S
O6 C9 1.320 . S
O7 Cd4 2.333 . S
O7 C9 1.214 . S
O8 Cd4 2.352 . S
O8 C11 1.258 . S
C9 O6 1.320 . S
C9 O7 1.214 . S
O10 Cd2 2.277 . S
O10 C5 1.209 . S
C11 O8 1.258 . S
C11 O13 1.282 . S
O12 Cd4 2.277 . S
O12 C5 1.226 . S
O13 Cd4 2.356 . S
O13 C11 1.282 . S
C14 O15 1.306 . S
C14 O17 1.160 . S
O15 C14 1.306 . S
O15 Cd16 2.228 . S
Cd16 O15 2.228 . S
Cd16 O20 2.273 . S
Cd16 O24 2.277 . S
O17 C14 1.160 . S
O17 Cd18 2.203 . S
Cd18 O17 2.203 . S
Cd18 O20 2.411 . S
Cd18 O21 2.333 . S
Cd18 O22 2.352 . S
Cd18 O26 2.277 . S
Cd18 O27 2.356 . S
C19 O24 1.209 . S
C19 O26 1.226 . S
O20 Cd16 2.273 . S
O20 Cd18 2.411 . S
O20 C23 1.320 . S
O21 Cd18 2.333 . S
O21 C23 1.214 . S
O22 Cd18 2.352 . S
O22 C25 1.258 . S
C23 O20 1.320 . S
C23 O21 1.214 . S
O24 Cd16 2.277 . S
O24 C19 1.209 . S
C25 O22 1.258 . S
C25 O27 1.282 . S
O26 Cd18 2.277 . S
O26 C19 1.226 . S
O27 Cd18 2.356 . S
O27 C25 1.282 . S
C28 O29 1.306 . S
C28 O31 1.160 . S
O29 C28 1.306 . S
O29 Cd30 2.228 . S
Cd30 O29 2.228 . S
Cd30 O34 2.273 . S
Cd30 O38 2.277 . S
O31 C28 1.160 . S
O31 Cd32 2.203 . S
Cd32 O31 2.203 . S
Cd32 O34 2.411 . S
Cd32 O35 2.333 . S
Cd32 O36 2.352 . S
Cd32 O40 2.277 . S
Cd32 O41 2.356 . S
C33 O38 1.209 . S
C33 O40 1.226 . S
O34 Cd30 2.273 . S
O34 Cd32 2.411 . S
O34 C37 1.320 . S
O35 Cd32 2.333 . S
O35 C37 1.214 . S
O36 Cd32 2.352 . S
O36 C39 1.258 . S
C37 O34 1.320 . S
C37 O35 1.214 . S
O38 Cd30 2.277 . S
O38 C33 1.209 . S
C39 O36 1.258 . S
C39 O41 1.282 . S
O40 Cd32 2.277 . S
O40 C33 1.226 . S
O41 Cd32 2.356 . S
O41 C39 1.282 . S
C42 O43 1.306 . S
C42 O45 1.160 . S
O43 C42 1.306 . S
O43 Cd44 2.228 . S
Cd44 O43 2.228 . S
Cd44 O48 2.273 . S
Cd44 O52 2.277 . S
O45 C42 1.160 . S
O45 Cd46 2.203 . S
Cd46 O45 2.203 . S
Cd46 O48 2.411 . S
Cd46 O49 2.333 . S
Cd46 O50 2.352 . S
Cd46 O54 2.277 . S
Cd46 O55 2.356 . S
C47 O52 1.209 . S
C47 O54 1.226 . S
O48 Cd44 2.273 . S
O48 Cd46 2.411 . S
O48 C51 1.320 . S
O49 Cd46 2.333 . S
O49 C51 1.214 . S
O50 Cd46 2.352 . S
O50 C53 1.258 . S
C51 O48 1.320 . S
C51 O49 1.214 . S
O52 Cd44 2.277 . S
O52 C47 1.209 . S
C53 O50 1.258 . S
C53 O55 1.282 . S
O54 Cd46 2.277 . S
O54 C47 1.226 . S
O55 Cd46 2.356 . S
O55 C53 1.282 . S
C56 O57 1.306 . S
C56 O59 1.160 . S
O57 C56 1.306 . S
O57 Cd58 2.228 . S
Cd58 O57 2.228 . S
Cd58 O62 2.273 . S
Cd58 O66 2.277 . S
O59 C56 1.160 . S
O59 Cd60 2.203 . S
Cd60 O59 2.203 . S
Cd60 O62 2.411 . S
Cd60 O63 2.333 . S
Cd60 O64 2.352 . S
Cd60 O68 2.277 . S
Cd60 O69 2.356 . S
C61 O66 1.209 . S
C61 O68 1.226 . S
O62 Cd58 2.273 . S
O62 Cd60 2.411 . S
O62 C65 1.320 . S
O63 Cd60 2.333 . S
O63 C65 1.214 . S
O64 Cd60 2.352 . S
O64 C67 1.258 . S
C65 O62 1.320 . S
C65 O63 1.214 . S
O66 Cd58 2.277 . S
O66 C61 1.209 . S
C67 O64 1.258 . S
C67 O69 1.282 . S
O68 Cd60 2.277 . S
O68 C61 1.226 . S
O69 Cd60 2.356 . S
O69 C67 1.282 . S
C70 O71 1.306 . S
C70 O73 1.160 . S
O71 C70 1.306 . S
O71 Cd72 2.228 . S
Cd72 O71 2.228 . S
Cd72 O76 2.273 . S
Cd72 O80 2.277 . S
O73 C70 1.160 . S
O73 Cd74 2.203 . S
Cd74 O73 2.203 . S
Cd74 O76 2.411 . S
Cd74 O77 2.333 . S
Cd74 O78 2.352 . S
Cd74 O82 2.277 . S
Cd74 O83 2.356 . S
C75 O80 1.209 . S
C75 O82 1.226 . S
O76 Cd72 2.273 . S
O76 Cd74 2.411 . S
O76 C79 1.320 . S
O77 Cd74 2.333 . S
O77 C79 1.214 . S
O78 Cd74 2.352 . S
O78 C81 1.258 . S
C79 O76 1.320 . S
C79 O77 1.214 . S
O80 Cd72 2.277 . S
O80 C75 1.209 . S
C81 O78 1.258 . S
C81 O83 1.282 . S
O82 Cd74 2.277 . S
O82 C75 1.226 . S
O83 Cd74 2.356 . S
O83 C81 1.282 . S
C84 O85 1.306 . S
C84 O87 1.160 . S
O85 C84 1.306 . S
O85 Cd86 2.228 . S
Cd86 O85 2.228 . S
Cd86 O90 2.273 . S
Cd86 O94 2.277 . S
O87 C84 1.160 . S
O87 Cd88 2.203 . S
Cd88 O87 2.203 . S
Cd88 O90 2.411 . S
Cd88 O91 2.333 . S
Cd88 O92 2.352 . S
Cd88 O96 2.277 . S
Cd88 O97 2.356 . S
C89 O94 1.209 . S
C89 O96 1.226 . S
O90 Cd86 2.273 . S
O90 Cd88 2.411 . S
O90 C93 1.320 . S
O91 Cd88 2.333 . S
O91 C93 1.214 . S
O92 Cd88 2.352 . S
O92 C95 1.258 . S
C93 O90 1.320 . S
C93 O91 1.214 . S
O94 Cd86 2.277 . S
O94 C89 1.209 . S
C95 O92 1.258 . S
C95 O97 1.282 . S
O96 Cd88 2.277 . S
O96 C89 1.226 . S
O97 Cd88 2.356 . S
O97 C95 1.282 . S
C98 O99 1.306 . S
C98 O101 1.160 . S
O99 C98 1.306 . S
O99 Cd100 2.228 . S
Cd100 O99 2.228 . S
Cd100 O104 2.273 . S
Cd100 O108 2.277 . S
O101 C98 1.160 . S
O101 Cd102 2.203 . S
Cd102 O101 2.203 . S
Cd102 O104 2.411 . S
Cd102 O105 2.333 . S
Cd102 O106 2.352 . S
Cd102 O110 2.277 . S
Cd102 O111 2.356 . S
C103 O108 1.209 . S
C103 O110 1.226 . S
O104 Cd100 2.273 . S
O104 Cd102 2.411 . S
O104 C107 1.320 . S
O105 Cd102 2.333 . S
O105 C107 1.214 . S
O106 Cd102 2.352 . S
O106 C109 1.258 . S
C107 O104 1.320 . S
C107 O105 1.214 . S
O108 Cd100 2.277 . S
O108 C103 1.209 . S
C109 O106 1.258 . S
C109 O111 1.282 . S
O110 Cd102 2.277 . S
O110 C103 1.226 . S
O111 Cd102 2.356 . S
O111 C109 1.282 . S
C112 O113 1.306 . S
C112 O115 1.160 . S
O113 C112 1.306 . S
O113 Cd114 2.228 . S
Cd114 O113 2.228 . S
Cd114 O118 2.273 . S
Cd114 O122 2.277 . S
O115 C112 1.160 . S
O115 Cd116 2.203 . S
Cd116 O115 2.203 . S
Cd116 O118 2.411 . S
Cd116 O119 2.333 . S
Cd116 O120 2.352 . S
Cd116 O124 2.277 . S
Cd116 O125 2.356 . S
C117 O122 1.209 . S
C117 O124 1.226 . S
O118 Cd114 2.273 . S
O118 Cd116 2.411 . S
O118 C121 1.320 . S
O119 Cd116 2.333 . S
O119 C121 1.214 . S
O120 Cd116 2.352 . S
O120 C123 1.258 . S
C121 O118 1.320 . S
C121 O119 1.214 . S
O122 Cd114 2.277 . S
O122 C117 1.209 . S
C123 O120 1.258 . S
C123 O125 1.282 . S
O124 Cd116 2.277 . S
O124 C117 1.226 . S
O125 Cd116 2.356 . S
O125 C123 1.282 . S
C126 O127 1.306 . S
C126 O129 1.160 . S
O127 C126 1.306 . S
O127 Cd128 2.228 . S
Cd128 O127 2.228 . S
Cd128 O132 2.273 . S
Cd128 O136 2.277 . S
O129 C126 1.160 . S
O129 Cd130 2.203 . S
Cd130 O129 2.203 . S
Cd130 O132 2.411 . S
Cd130 O133 2.333 . S
Cd130 O134 2.352 . S
Cd130 O138 2.277 . S
Cd130 O139 2.356 . S
C131 O136 1.209 . S
C131 O138 1.226 . S
O132 Cd128 2.273 . S
O132 Cd130 2.411 . S
O132 C135 1.320 . S
O133 Cd130 2.333 . S
O133 C135 1.214 . S
O134 Cd130 2.352 . S
O134 C137 1.258 . S
C135 O132 1.320 . S
C135 O133 1.214 . S
O136 Cd128 2.277 . S
O136 C131 1.209 . S
C137 O134 1.258 . S
C137 O139 1.282 . S
O138 Cd130 2.277 . S
O138 C131 1.226 . S
O139 Cd130 2.356 . S
O139 C137 1.282 . S
C140 O141 1.306 . S
C140 O143 1.160 . S
O141 C140 1.306 . S
O141 Cd142 2.228 . S
Cd142 O141 2.228 . S
Cd142 O146 2.273 . S
Cd142 O150 2.277 . S
O143 C140 1.160 . S
O143 Cd144 2.203 . S
Cd144 O143 2.203 . S
Cd144 O146 2.411 . S
Cd144 O147 2.333 . S
Cd144 O148 2.352 . S
Cd144 O152 2.277 . S
Cd144 O153 2.356 . S
C145 O150 1.209 . S
C145 O152 1.226 . S
O146 Cd142 2.273 . S
O146 Cd144 2.411 . S
O146 C149 1.320 . S
O147 Cd144 2.333 . S
O147 C149 1.214 . S
O148 Cd144 2.352 . S
O148 C151 1.258 . S
C149 O146 1.320 . S
C149 O147 1.214 . S
O150 Cd142 2.277 . S
O150 C145 1.209 . S
C151 O148 1.258 . S
C151 O153 1.282 . S
O152 Cd144 2.277 . S
O152 C145 1.226 . S
O153 Cd144 2.356 . S
O153 C151 1.282 . S
C154 O155 1.306 . S
C154 O157 1.160 . S
O155 C154 1.306 . S
O155 Cd156 2.228 . S
Cd156 O155 2.228 . S
Cd156 O160 2.273 . S
Cd156 O164 2.277 . S
O157 C154 1.160 . S
O157 Cd158 2.203 . S
Cd158 O157 2.203 . S
Cd158 O160 2.411 . S
Cd158 O161 2.333 . S
Cd158 O162 2.352 . S
Cd158 O166 2.277 . S
Cd158 O167 2.356 . S
C159 O164 1.209 . S
C159 O166 1.226 . S
O160 Cd156 2.273 . S
O160 Cd158 2.411 . S
O160 C163 1.320 . S
O161 Cd158 2.333 . S
O161 C163 1.214 . S
O162 Cd158 2.352 . S
O162 C165 1.258 . S
C163 O160 1.320 . S
C163 O161 1.214 . S
O164 Cd156 2.277 . S
O164 C159 1.209 . S
C165 O162 1.258 . S
C165 O167 1.282 . S
O166 Cd158 2.277 . S
O166 C159 1.226 . S
O167 Cd158 2.356 . S
O167 C165 1.282 . S
C9 C149 5.037 1_554 S
C163 C23 5.037 . S
C93 C37 5.037 . S
C51 C107 5.037 1_554 S
C65 C121 5.037 . S
C135 C79 5.037 . S
C5 C103 1.122 1_544 S
C117 C19 1.123 . S
C131 C33 1.123 1_455 S
C47 C145 1.122 1_564 S
C159 C61 1.123 . S
C75 C89 1.122 1_455 S
C42 C0 5.514 1_565 S
C56 C14 5.514 . S
C70 C28 5.514 1_455 S
C84 C126 5.514 1_655 S
C98 C140 5.514 1_565 S
C112 C154 5.514 . S
C123 C11 1.390 . S
C137 C25 1.390 . S
C151 C39 1.390 . S
C165 C53 1.390 . S
C95 C67 1.390 . S
C81 C109 1.390 . S
