# Generated by pormake.
# Topology lon, (4)-cn, num edge types: 1
# Building blocks:
#     Node 0, Type 0, BuildingBlock: QUQFOY_clean_sbu_3, # of connection points: 4
#     Node 1, Type 0, BuildingBlock: QUQFOY_clean_sbu_3, # of connection points: 4
#     Node 2, Type 0, BuildingBlock: QUQFOY_clean_sbu_3, # of connection points: 4
#     Node 3, Type 0, BuildingBlock: QUQFOY_clean_sbu_3, # of connection points: 4
#     Edge 4, Type (0, 0), None
#     Edge 5, Type (0, 0), None
#     Edge 6, Type (0, 0), None
#     Edge 7, Type (0, 0), None
#     Edge 8, Type (0, 0), None
#     Edge 9, Type (0, 0), None
#     Edge 10, Type (0, 0), None
#     Edge 11, Type (0, 0), None
# Relax obj value: 0.140
# Max RMSD: 0.175
# Mean RMSD: 0.169
data_MOF--net-lon--node1-QUQFOY_clean_sbu_3--edge1-none
_symmetry_space_group_name_H-M    P1
_symmetry_Int_Tables_number       1
_symmetry_cell_setting            triclinic
loop_
_symmetry_equiv_pos_as_xyz
'x, y, z'
_cell_length_a     12.144924
_cell_length_b     12.449789
_cell_length_c     20.384239
_cell_angle_alpha  92.767521
_cell_angle_beta   90.002386
_cell_angle_gamma 119.18704
loop_
_atom_site_label
_atom_site_type_symbol
_atom_site_fract_x
_atom_site_fract_y
_atom_site_fract_z
_atom_type_partial_charge
C0 C -0.0487 0.54295 0.00845 0.0
O1 O -0.0419 0.63918 0.03687 0.0
Cd2 Cd 0.15527 0.82016 0.06812 0.0
O3 O 0.04998 0.53373 -0.0014 0.0
Cd4 Cd 0.28088 0.64929 0.02223 0.0
C5 C 0.26092 0.7073 0.18735 0.0
O6 O 0.29117 0.83305 -0.0207 0.0
O7 O 0.47124 0.84449 -0.00166 0.0
O8 O 0.25153 0.48643 0.94027 0.0
C9 C 0.41025 0.89714 -0.01924 0.0
O10 O 0.21728 0.77776 0.17286 0.0
C11 C 0.34515 0.47705 0.96039 0.0
O12 O 0.28679 0.64824 0.14292 0.0
O13 O 0.4119 0.55053 0.0076 0.0
C14 C 0.49371 0.42914 0.46412 0.0
O15 O 0.51424 0.39211 0.40876 0.0
Cd16 Cd 0.60048 0.25593 0.39822 0.0
O17 O 0.52029 0.39594 0.51732 0.0
Cd18 Cd 0.60641 0.25976 0.54942 0.0
C19 C 0.88791 0.41493 0.47596 0.0
O20 O 0.47678 0.09398 0.47036 0.0
O21 O 0.62104 0.07143 0.51988 0.0
O22 O 0.46232 0.18956 0.64063 0.0
C23 C 0.52315 0.02558 0.48284 0.0
O24 O 0.82906 0.37223 0.42105 0.0
C25 C 0.54742 0.22959 0.68549 0.0
O26 O 0.82873 0.3933 0.52938 0.0
O27 O 0.66108 0.28349 0.66759 0.0
C28 C 0.02563 0.49298 0.47815 0.0
O29 O 0.08319 0.53002 0.53351 0.0
Cd30 Cd 0.30559 0.6662 0.54403 0.0
O31 O 0.08539 0.52617 0.42494 0.0
Cd32 Cd 0.30767 0.66236 0.39285 0.0
C33 C 0.43403 0.50719 0.46631 0.0
O34 O 0.34385 0.82817 0.47189 0.0
O35 O 0.51064 0.85062 0.4224 0.0
O36 O 0.23381 0.73261 0.30164 0.0
C37 C 0.45861 0.89654 0.45941 0.0
O38 O 0.41789 0.5499 0.52121 0.0
C39 C 0.27886 0.69255 0.25678 0.0
O40 O 0.39645 0.52881 0.41288 0.0
O41 O 0.3386 0.63862 0.27468 0.0
C42 C 0.36949 0.37931 0.9338 0.0
O43 O 0.28007 0.28308 0.90538 0.0
Cd44 Cd 0.29624 0.10207 0.87414 0.0
O45 O 0.47738 0.38852 0.94365 0.0
Cd46 Cd 0.59273 0.27294 0.92004 0.0
C47 C 0.51473 0.21486 0.75492 0.0
O48 O 0.41928 0.08923 0.96297 0.0
O49 O 0.58789 0.07774 0.94399 0.0
O50 O 0.72625 0.43585 0.00198 0.0
C51 C 0.47425 0.02512 0.96154 0.0
O52 O 0.40065 0.14444 0.76941 0.0
C53 C 0.82923 0.44522 -0.01814 0.0
O54 O 0.59967 0.27393 0.79935 0.0
O55 O 0.8225 0.37169 0.93467 0.0
loop_
_geom_bond_atom_site_label_1
_geom_bond_atom_site_label_2
_geom_bond_distance
_geom_bond_site_symmetry_2
_ccdc_geom_bond_type
C0 O1 1.306 . S
C0 O3 1.160 . S
O1 C0 1.306 . S
O1 Cd2 2.228 . S
Cd2 O1 2.228 . S
Cd2 O6 2.273 . S
Cd2 O10 2.277 . S
O3 C0 1.160 . S
O3 Cd4 2.203 . S
Cd4 O3 2.203 . S
Cd4 O6 2.411 . S
Cd4 O7 2.333 . S
Cd4 O8 2.352 1_554 S
Cd4 O12 2.277 . S
Cd4 O13 2.356 . S
C5 O10 1.209 . S
C5 O12 1.226 . S
O6 Cd2 2.273 . S
O6 Cd4 2.411 . S
O6 C9 1.320 . S
O7 Cd4 2.333 . S
O7 C9 1.214 . S
O8 Cd4 2.352 1_556 S
O8 C11 1.258 . S
C9 O6 1.320 . S
C9 O7 1.214 . S
O10 Cd2 2.277 . S
O10 C5 1.209 . S
C11 O8 1.258 . S
C11 O13 1.282 1_556 S
O12 Cd4 2.277 . S
O12 C5 1.226 . S
O13 Cd4 2.356 . S
O13 C11 1.282 1_554 S
C14 O15 1.306 . S
C14 O17 1.160 . S
O15 C14 1.306 . S
O15 Cd16 2.228 . S
Cd16 O15 2.228 . S
Cd16 O20 2.273 . S
Cd16 O24 2.277 . S
O17 C14 1.160 . S
O17 Cd18 2.203 . S
Cd18 O17 2.203 . S
Cd18 O20 2.411 . S
Cd18 O21 2.333 . S
Cd18 O22 2.352 . S
Cd18 O26 2.277 . S
Cd18 O27 2.356 . S
C19 O24 1.209 . S
C19 O26 1.226 . S
O20 Cd16 2.273 . S
O20 Cd18 2.411 . S
O20 C23 1.320 . S
O21 Cd18 2.333 . S
O21 C23 1.214 . S
O22 Cd18 2.352 . S
O22 C25 1.258 . S
C23 O20 1.320 . S
C23 O21 1.214 . S
O24 Cd16 2.277 . S
O24 C19 1.209 . S
C25 O22 1.258 . S
C25 O27 1.282 . S
O26 Cd18 2.277 . S
O26 C19 1.226 . S
O27 Cd18 2.356 . S
O27 C25 1.282 . S
C28 O29 1.306 . S
C28 O31 1.160 . S
O29 C28 1.306 . S
O29 Cd30 2.228 . S
Cd30 O29 2.228 . S
Cd30 O34 2.273 . S
Cd30 O38 2.277 . S
O31 C28 1.160 . S
O31 Cd32 2.203 . S
Cd32 O31 2.203 . S
Cd32 O34 2.411 . S
Cd32 O35 2.333 . S
Cd32 O36 2.352 . S
Cd32 O40 2.277 . S
Cd32 O41 2.356 . S
C33 O38 1.209 . S
C33 O40 1.226 . S
O34 Cd30 2.273 . S
O34 Cd32 2.411 . S
O34 C37 1.320 . S
O35 Cd32 2.333 . S
O35 C37 1.214 . S
O36 Cd32 2.352 . S
O36 C39 1.258 . S
C37 O34 1.320 . S
C37 O35 1.214 . S
O38 Cd30 2.277 . S
O38 C33 1.209 . S
C39 O36 1.258 . S
C39 O41 1.282 . S
O40 Cd32 2.277 . S
O40 C33 1.226 . S
O41 Cd32 2.356 . S
O41 C39 1.282 . S
C42 O43 1.306 . S
C42 O45 1.160 . S
O43 C42 1.306 . S
O43 Cd44 2.228 . S
Cd44 O43 2.228 . S
Cd44 O48 2.273 . S
Cd44 O52 2.277 . S
O45 C42 1.160 . S
O45 Cd46 2.203 . S
Cd46 O45 2.203 . S
Cd46 O48 2.411 . S
Cd46 O49 2.333 . S
Cd46 O50 2.352 1_556 S
Cd46 O54 2.277 . S
Cd46 O55 2.356 . S
C47 O52 1.209 . S
C47 O54 1.226 . S
O48 Cd44 2.273 . S
O48 Cd46 2.411 . S
O48 C51 1.320 . S
O49 Cd46 2.333 . S
O49 C51 1.214 . S
O50 Cd46 2.352 1_554 S
O50 C53 1.258 . S
C51 O48 1.320 . S
C51 O49 1.214 . S
O52 Cd44 2.277 . S
O52 C47 1.209 . S
C53 O50 1.258 . S
C53 O55 1.282 1_554 S
O54 Cd46 2.277 . S
O54 C47 1.226 . S
O55 Cd46 2.356 . S
O55 C53 1.282 1_556 S
C5 C39 1.620 . S
C25 C47 1.620 . S
C11 C42 1.474 . S
C28 C19 1.767 1_455 S
C51 C9 1.600 1_546 S
C14 C33 1.767 . S
C0 C53 1.474 1_455 S
C23 C37 1.744 1_545 S
