# Generated by pormake.
# Topology qtz, (4)-cn, num edge types: 1
# Building blocks:
#     Node 0, Type 0, BuildingBlock: CEKHIL_clean_sbu_0, # of connection points: 4
#     Node 1, Type 0, BuildingBlock: CEKHIL_clean_sbu_0, # of connection points: 4
#     Node 2, Type 0, BuildingBlock: CEKHIL_clean_sbu_0, # of connection points: 4
#     Edge 3, Type (0, 0), BuildingBlock: FUNLAD_clean_linker_1, # of connection points: 2
#     Edge 4, Type (0, 0), BuildingBlock: FUNLAD_clean_linker_1, # of connection points: 2
#     Edge 5, Type (0, 0), BuildingBlock: FUNLAD_clean_linker_1, # of connection points: 2
#     Edge 6, Type (0, 0), BuildingBlock: FUNLAD_clean_linker_1, # of connection points: 2
#     Edge 7, Type (0, 0), BuildingBlock: FUNLAD_clean_linker_1, # of connection points: 2
#     Edge 8, Type (0, 0), BuildingBlock: FUNLAD_clean_linker_1, # of connection points: 2
# Relax obj value: 0.004
# Max RMSD: 0.040
# Mean RMSD: 0.037
data_MOF--net-qtz--node1-CEKHIL_clean_sbu_0--edge1-FUNLAD_clean_linker_1
_symmetry_space_group_name_H-M    P1
_symmetry_Int_Tables_number       1
_symmetry_cell_setting            triclinic
loop_
_symmetry_equiv_pos_as_xyz
'x, y, z'
_cell_length_a     23.817652
_cell_length_b     24.117854
_cell_length_c     29.737617
_cell_angle_alpha  91.972622
_cell_angle_beta   89.752559
_cell_angle_gamma 120.43579
loop_
_atom_site_label
_atom_site_type_symbol
_atom_site_fract_x
_atom_site_fract_y
_atom_site_fract_z
_atom_type_partial_charge
Co0 Co 0.01077 0.5019 0.15533 0.0
O1 O 0.07775 0.54359 0.11078 0.0
O2 O 0.05257 0.45233 0.14254 0.0
C3 C 0.93337 0.5118 0.11838 0.0
O4 O 0.94406 0.44159 0.2005 0.0
Co5 Co 0.95241 0.57185 0.20899 0.0
O6 O 0.89194 0.48711 0.2342 0.0
C7 C 0.08452 0.59914 0.23231 0.0
C8 C 0.08789 0.49576 0.11403 0.0
C9 C 0.90075 0.43963 0.22762 0.0
O10 O 0.07653 0.55283 0.20522 0.0
O11 O 0.04275 0.6175 0.23614 0.0
O12 O 0.94425 0.46543 0.10768 0.0
O13 O 0.97203 0.55311 0.14877 0.0
Co14 Co 0.51161 0.02478 0.51959 0.0
O15 O 0.4809 0.95888 0.56371 0.0
O16 O 0.56458 0.98451 0.51931 0.0
C17 C 0.50907 0.09935 0.56669 0.0
O18 O 0.56025 0.09203 0.47169 0.0
Co19 Co 0.42803 0.08286 0.48924 0.0
O20 O 0.50924 0.14766 0.46067 0.0
C21 C 0.3967 0.95365 0.45415 0.0
C22 C 0.52858 0.95034 0.552 0.0
C23 C 0.55678 0.13845 0.45407 0.0
O24 O 0.449 0.96011 0.47228 0.0
O25 O 0.37806 0.99463 0.46006 0.0
O26 O 0.5587 0.09081 0.56731 0.0
O27 O 0.4617 0.06064 0.54011 0.0
Co28 Co 0.5328 0.54626 0.81267 0.0
O29 O 0.48568 0.55955 0.76588 0.0
O30 O 0.56912 0.63817 0.804 0.0
C31 C 0.54515 0.47108 0.77377 0.0
O32 O 0.5948 0.54932 0.86203 0.0
Co33 Co 0.46928 0.4136 0.85559 0.0
O34 O 0.55372 0.44943 0.88786 0.0
C35 C 0.42295 0.50184 0.88141 0.0
C36 C 0.52509 0.62069 0.77231 0.0
C37 C 0.59815 0.5085 0.88729 0.0
O38 O 0.46961 0.5459 0.85889 0.0
O39 O 0.4111 0.44384 0.88165 0.0
O40 O 0.58469 0.53187 0.7683 0.0
O41 O 0.49555 0.45709 0.79901 0.0
H42 H 0.39227 0.56915 0.90832 0.0
C43 C 0.38244 0.52001 0.90921 0.0
H44 H 0.32684 0.42977 0.93876 0.0
H45 H 0.25771 0.53452 0.11463 0.0
H46 H 0.34136 0.51572 0.14347 0.0
H47 H 0.40574 0.48807 0.09201 0.0
H48 H 0.38738 0.47989 0.01131 0.0
C49 C 0.33543 0.47828 0.93621 0.0
C50 C 0.29778 0.49761 0.96675 0.0
C51 C 0.30792 0.50077 0.01397 0.0
C52 C 0.26954 0.51505 0.04377 0.0
C53 C 0.28333 0.52113 0.09056 0.0
C54 C 0.33174 0.51111 0.10758 0.0
C55 C 0.36807 0.49566 0.07861 0.0
C56 C 0.35679 0.49085 0.03234 0.0
H57 H 0.13725 0.44503 0.0879 0.0
C58 C 0.13554 0.48905 0.08579 0.0
H59 H 0.17278 0.57773 0.05429 0.0
H60 H 0.265 0.49478 0.87818 0.0
H61 H 0.18213 0.51462 0.84922 0.0
H62 H 0.1152 0.53874 0.9007 0.0
H63 H 0.13057 0.54299 0.98146 0.0
C64 C 0.17535 0.5343 0.05734 0.0
C65 C 0.21937 0.52407 0.02642 0.0
C66 C 0.21054 0.52278 0.9791 0.0
C67 C 0.24954 0.50929 0.94928 0.0
C68 C 0.23786 0.50608 0.90234 0.0
C69 C 0.19015 0.51703 0.88522 0.0
C70 C 0.15244 0.53058 0.91421 0.0
C71 C 0.162 0.5331 0.96057 0.0
H72 H 0.86472 0.33816 0.24484 0.0
C73 C 0.86114 0.38046 0.25324 0.0
H74 H 0.82136 0.42161 0.29747 0.0
H75 H 0.59122 0.12983 0.33489 0.0
H76 H 0.5552 0.12837 0.25836 0.0
H77 H 0.6238 0.21531 0.20742 0.0
H78 H 0.72915 0.30389 0.23245 0.0
C79 C 0.82311 0.37875 0.28754 0.0
C80 C 0.78559 0.3212 0.31555 0.0
C81 C 0.72406 0.26986 0.30047 0.0
C82 C 0.68374 0.22044 0.33026 0.0
C83 C 0.62295 0.16938 0.31406 0.0
C84 C 0.60187 0.16778 0.27016 0.0
C85 C 0.64055 0.21668 0.24144 0.0
C86 C 0.70094 0.26727 0.25624 0.0
H87 H 0.60088 0.22028 0.40937 0.0
C88 C 0.60724 0.18238 0.42282 0.0
H89 H 0.66716 0.14092 0.42199 0.0
H90 H 0.90327 0.40843 0.35362 0.0
H91 H 0.94018 0.40861 0.42969 0.0
H92 H 0.86986 0.32375 0.48148 0.0
H93 H 0.76211 0.23808 0.4576 0.0
C94 C 0.65817 0.17717 0.40872 0.0
C95 C 0.70436 0.22297 0.37542 0.0
C96 C 0.76754 0.27204 0.38954 0.0
C97 C 0.80803 0.32125 0.35967 0.0
C98 C 0.87043 0.37027 0.37504 0.0
C99 C 0.89225 0.37082 0.41854 0.0
C100 C 0.85265 0.32301 0.4477 0.0
C101 C 0.79094 0.27415 0.4336 0.0
H102 H 0.58736 0.90549 0.56751 0.0
C103 C 0.5445 0.90781 0.57709 0.0
H104 H 0.46862 0.88033 0.6235 0.0
H105 H 0.56706 0.67062 0.66095 0.0
H106 H 0.54083 0.63563 0.58259 0.0
H107 H 0.50619 0.69163 0.53162 0.0
H108 H 0.49932 0.78393 0.55835 0.0
C109 C 0.50991 0.87577 0.613 0.0
C110 C 0.53022 0.84032 0.64322 0.0
C111 C 0.53106 0.78449 0.62749 0.0
C112 C 0.5471 0.74962 0.65764 0.0
C113 C 0.55178 0.69672 0.64023 0.0
C114 C 0.53741 0.67645 0.59519 0.0
C115 C 0.51821 0.70817 0.56645 0.0
C116 C 0.51491 0.76149 0.58221 0.0
H117 H 0.47417 0.64678 0.72357 0.0
C118 C 0.51892 0.66605 0.74335 0.0
H119 H 0.61187 0.74727 0.75653 0.0
H120 H 0.53868 0.94787 0.68407 0.0
H121 H 0.56176 0.9807 0.76292 0.0
H122 H 0.5828 0.91654 0.81585 0.0
H123 H 0.58148 0.8194 0.79016 0.0
C124 C 0.56675 0.72689 0.73712 0.0
C125 C 0.55819 0.76798 0.70419 0.0
C126 C 0.55879 0.82455 0.71965 0.0
C127 C 0.54529 0.86088 0.68919 0.0
C128 C 0.54717 0.91763 0.70573 0.0
C129 C 0.56064 0.93724 0.75093 0.0
C130 C 0.57259 0.90118 0.78072 0.0
C131 C 0.57171 0.84548 0.76548 0.0
H132 H 0.70438 0.56381 0.90276 0.0
C133 C 0.65712 0.52887 0.91556 0.0
H134 H 0.60438 0.46545 0.96647 0.0
H135 H 0.78646 0.37734 0.03921 0.0
H136 H 0.6968 0.27888 0.00692 0.0
H137 H 0.61327 0.28092 0.95949 0.0
H138 H 0.61823 0.38119 0.94484 0.0
C139 C 0.65258 0.4996 0.95445 0.0
C140 C 0.70904 0.5016 0.97821 0.0
C141 C 0.70714 0.44258 0.98497 0.0
C142 C 0.75694 0.44163 0.01069 0.0
C143 C 0.75143 0.38143 0.01871 0.0
C144 C 0.69993 0.32429 1.00055 0.0
C145 C 0.65281 0.32541 0.974 0.0
C146 C 0.65611 0.38355 0.96615 0.0
H147 H 0.86231 0.545 0.11285 0.0
C148 C 0.8829 0.51939 0.0952 0.0
H149 H 0.88619 0.47264 0.03515 0.0
H150 H 0.7249 0.62228 0.97703 0.0
H151 H 0.81936 0.72187 1.00374 0.0
H152 H 0.91279 0.7217 0.039 0.0
H153 H 0.91141 0.62182 0.04916 0.0
C154 C 0.86437 0.49744 0.0524 0.0
C155 C 0.8107 0.49995 0.02805 0.0
C156 C 0.81412 0.55933 0.01971 0.0
C157 C 0.7621 0.5599 0.99634 0.0
C158 C 0.76441 0.61929 0.99212 0.0
C159 C 0.81818 0.67683 0.00765 0.0
C160 C 0.87065 0.6767 0.02772 0.0
C161 C 0.86895 0.61885 0.03372 0.0
H162 H 0.31324 0.89785 0.40851 0.0
C163 C 0.35545 0.89853 0.42309 0.0
H164 H 0.40749 0.8487 0.42466 0.0
H165 H 0.13273 0.60288 0.35567 0.0
H166 H 0.14 0.5718 0.43142 0.0
H167 H 0.23105 0.64496 0.48252 0.0
H168 H 0.3155 0.74982 0.45825 0.0
C169 C 0.36696 0.85123 0.41044 0.0
C170 C 0.32201 0.80093 0.37667 0.0
C171 C 0.27429 0.7393 0.39082 0.0
C172 C 0.22174 0.69707 0.36129 0.0
C173 C 0.1735 0.63669 0.37682 0.0
C174 C 0.17719 0.6183 0.42013 0.0
C175 C 0.22848 0.65951 0.44891 0.0
C176 C 0.27651 0.7195 0.43466 0.0
H177 H 0.18202 0.61943 0.25523 0.0
C178 C 0.14515 0.63287 0.26012 0.0
H179 H 0.11938 0.69371 0.29602 0.0
H180 H 0.4129 0.90941 0.336 0.0
H181 H 0.40817 0.9388 0.25929 0.0
H182 H 0.3162 0.8666 0.20853 0.0
H183 H 0.22861 0.76441 0.23401 0.0
C184 C 0.1558 0.67981 0.2907 0.0
C185 C 0.21744 0.71643 0.31758 0.0
C186 C 0.26844 0.77555 0.30206 0.0
C187 C 0.32102 0.81758 0.33151 0.0
C188 C 0.37127 0.87641 0.31519 0.0
C189 C 0.36928 0.89364 0.27123 0.0
C190 C 0.31752 0.85295 0.24264 0.0
C191 C 0.26752 0.79454 0.25769 0.0
H192 H 0.59953 0.44011 0.73008 0.0
C193 C 0.55449 0.42272 0.74852 0.0
H194 H 0.46316 0.34166 0.76236 0.0
H195 H 0.56141 0.27038 0.56854 0.0
H196 H 0.54829 0.3549 0.53772 0.0
H197 H 0.51755 0.41997 0.58631 0.0
H198 H 0.50143 0.40195 0.66614 0.0
C199 C 0.50832 0.36033 0.74394 0.0
C200 C 0.51806 0.31542 0.71344 0.0
C201 C 0.52367 0.32419 0.66627 0.0
C202 C 0.53743 0.28404 0.63773 0.0
C203 C 0.54761 0.29714 0.59139 0.0
C204 C 0.54076 0.34591 0.57328 0.0
C205 C 0.52377 0.38273 0.60066 0.0
C206 C 0.5152 0.37219 0.64658 0.0
H207 H 0.46154 0.15237 0.59105 0.0
C208 C 0.50485 0.14859 0.59489 0.0
H209 H 0.59267 0.1816 0.63125 0.0
H210 H 0.5094 0.28495 0.80188 0.0
H211 H 0.51722 0.19694 0.83221 0.0
H212 H 0.5351 0.12366 0.78228 0.0
H213 H 0.54594 0.13822 0.70181 0.0
C214 C 0.55049 0.18675 0.62571 0.0
C215 C 0.54133 0.23237 0.65586 0.0
C216 C 0.53452 0.22289 0.70287 0.0
C217 C 0.52313 0.26455 0.73165 0.0
C218 C 0.51742 0.25438 0.77847 0.0
C219 C 0.52184 0.20406 0.79633 0.0
C220 C 0.53197 0.16284 0.76823 0.0
C221 C 0.53821 0.17185 0.72205 0.0
loop_
_geom_bond_atom_site_label_1
_geom_bond_atom_site_label_2
_geom_bond_distance
_geom_bond_site_symmetry_2
_ccdc_geom_bond_type
Co0 O1 2.216 . S
Co0 O2 2.091 . S
Co0 O4 2.004 1_455 S
Co0 O10 2.021 . S
Co0 O12 2.137 1_455 S
Co0 O13 2.244 1_455 S
O1 Co0 2.216 . S
O1 C8 1.247 . S
O2 Co0 2.091 . S
O2 C8 1.261 . S
C3 O12 1.247 . S
C3 O13 1.272 . S
O4 Co0 2.004 1_655 S
O4 C9 1.259 . S
Co5 O6 2.061 . S
Co5 O11 2.052 1_655 S
Co5 O13 2.135 . S
O6 Co5 2.061 . S
O6 C9 1.235 . S
C7 O10 1.238 . S
C7 O11 1.241 . S
C8 O1 1.247 . S
C8 O2 1.261 . S
C9 O4 1.259 . S
C9 O6 1.235 . S
O10 Co0 2.021 . S
O10 C7 1.238 . S
O11 Co5 2.052 1_455 S
O11 C7 1.241 . S
O12 Co0 2.137 1_655 S
O12 C3 1.247 . S
O13 Co0 2.244 1_655 S
O13 C3 1.272 . S
O13 Co5 2.135 . S
Co14 O15 2.216 1_545 S
Co14 O16 2.091 1_545 S
Co14 O18 2.004 . S
Co14 O24 2.021 1_545 S
Co14 O26 2.137 . S
Co14 O27 2.244 . S
O15 Co14 2.216 1_565 S
O15 C22 1.247 . S
O16 Co14 2.091 1_565 S
O16 C22 1.261 . S
C17 O26 1.247 . S
C17 O27 1.272 . S
O18 Co14 2.004 . S
O18 C23 1.259 . S
Co19 O20 2.061 . S
Co19 O25 2.052 1_545 S
Co19 O27 2.135 . S
O20 Co19 2.061 . S
O20 C23 1.235 . S
C21 O24 1.238 . S
C21 O25 1.241 . S
C22 O15 1.247 . S
C22 O16 1.261 . S
C23 O18 1.259 . S
C23 O20 1.235 . S
O24 Co14 2.021 1_565 S
O24 C21 1.238 . S
O25 Co19 2.052 1_565 S
O25 C21 1.241 . S
O26 Co14 2.137 . S
O26 C17 1.247 . S
O27 Co14 2.244 . S
O27 C17 1.272 . S
O27 Co19 2.135 . S
Co28 O29 2.216 . S
Co28 O30 2.091 . S
Co28 O32 2.004 . S
Co28 O38 2.021 . S
Co28 O40 2.137 . S
Co28 O41 2.244 . S
O29 Co28 2.216 . S
O29 C36 1.247 . S
O30 Co28 2.091 . S
O30 C36 1.261 . S
C31 O40 1.247 . S
C31 O41 1.272 . S
O32 Co28 2.004 . S
O32 C37 1.259 . S
Co33 O34 2.061 . S
Co33 O39 2.052 . S
Co33 O41 2.135 . S
O34 Co33 2.061 . S
O34 C37 1.235 . S
C35 O38 1.238 . S
C35 O39 1.241 . S
C36 O29 1.247 . S
C36 O30 1.261 . S
C37 O32 1.259 . S
C37 O34 1.235 . S
O38 Co28 2.021 . S
O38 C35 1.238 . S
O39 Co33 2.052 . S
O39 C35 1.241 . S
O40 Co28 2.137 . S
O40 C31 1.247 . S
O41 Co28 2.244 . S
O41 C31 1.272 . S
O41 Co33 2.135 . S
H42 C43 0.951 . S
C43 H42 0.951 . S
C43 C49 1.265 . S
H44 C49 0.950 . S
H45 C53 0.949 . S
H46 C54 0.950 . S
H47 C55 0.951 . S
H48 C56 0.951 . S
C49 C43 1.265 . S
C49 H44 0.950 . S
C49 C50 1.478 . S
C50 C49 1.478 . S
C50 C51 1.397 . S
C50 C67 1.394 . S
C51 C50 1.397 . S
C51 C52 1.438 1_556 S
C51 C56 1.429 . S
C52 C51 1.438 1_554 S
C52 C53 1.428 . S
C52 C65 1.394 . S
C53 H45 0.949 . S
C53 C52 1.428 . S
C53 C54 1.345 . S
C54 H46 0.950 . S
C54 C53 1.345 . S
C54 C55 1.424 1_554 S
C55 H47 0.951 . S
C55 C54 1.424 1_556 S
C55 C56 1.347 . S
C56 H48 0.951 . S
C56 C51 1.429 . S
C56 C55 1.347 . S
H57 C58 0.951 . S
C58 H57 0.951 . S
C58 C64 1.265 . S
H59 C64 0.950 . S
H60 C68 0.949 . S
H61 C69 0.950 . S
H62 C70 0.949 1_554 S
H63 C71 0.951 . S
C64 C58 1.265 . S
C64 H59 0.950 . S
C64 C65 1.478 . S
C65 C52 1.394 . S
C65 C64 1.478 . S
C65 C66 1.397 . S
C66 C65 1.397 . S
C66 C67 1.438 1_554 S
C66 C71 1.429 . S
C67 C50 1.394 . S
C67 C66 1.438 1_556 S
C67 C68 1.428 . S
C68 H60 0.949 . S
C68 C67 1.428 . S
C68 C69 1.345 . S
C69 H61 0.950 . S
C69 C68 1.345 . S
C69 C70 1.424 . S
C70 H62 0.949 1_556 S
C70 C69 1.424 . S
C70 C71 1.347 1_556 S
C71 H63 0.951 . S
C71 C66 1.429 . S
C71 C70 1.347 1_554 S
H72 C73 0.951 . S
C73 H72 0.951 . S
C73 C79 1.265 . S
H74 C79 0.950 . S
H75 C83 0.949 . S
H76 C84 0.950 . S
H77 C85 0.951 . S
H78 C86 0.951 . S
C79 C73 1.265 . S
C79 H74 0.950 . S
C79 C80 1.478 . S
C80 C79 1.478 . S
C80 C81 1.397 . S
C80 C97 1.394 . S
C81 C80 1.397 . S
C81 C82 1.438 . S
C81 C86 1.429 . S
C82 C81 1.438 . S
C82 C83 1.428 . S
C82 C95 1.394 . S
C83 H75 0.949 . S
C83 C82 1.428 . S
C83 C84 1.345 . S
C84 H76 0.950 . S
C84 C83 1.345 . S
C84 C85 1.424 . S
C85 H77 0.951 . S
C85 C84 1.424 . S
C85 C86 1.347 . S
C86 H78 0.951 . S
C86 C81 1.429 . S
C86 C85 1.347 . S
H87 C88 0.951 . S
C88 H87 0.951 . S
C88 C94 1.265 . S
H89 C94 0.950 . S
H90 C98 0.949 . S
H91 C99 0.950 . S
H92 C100 0.951 . S
H93 C101 0.951 . S
C94 C88 1.265 . S
C94 H89 0.950 . S
C94 C95 1.478 . S
C95 C82 1.394 . S
C95 C94 1.478 . S
C95 C96 1.397 . S
C96 C95 1.397 . S
C96 C97 1.438 . S
C96 C101 1.429 . S
C97 C80 1.394 . S
C97 C96 1.438 . S
C97 C98 1.428 . S
C98 H90 0.949 . S
C98 C97 1.428 . S
C98 C99 1.345 . S
C99 H91 0.950 . S
C99 C98 1.345 . S
C99 C100 1.424 . S
C100 H92 0.951 . S
C100 C99 1.424 . S
C100 C101 1.347 . S
C101 H93 0.951 . S
C101 C96 1.429 . S
C101 C100 1.347 . S
H102 C103 0.951 . S
C103 H102 0.951 . S
C103 C109 1.265 . S
H104 C109 0.950 . S
H105 C113 0.949 . S
H106 C114 0.950 . S
H107 C115 0.951 . S
H108 C116 0.951 . S
C109 C103 1.265 . S
C109 H104 0.950 . S
C109 C110 1.478 . S
C110 C109 1.478 . S
C110 C111 1.397 . S
C110 C127 1.394 . S
C111 C110 1.397 . S
C111 C112 1.438 . S
C111 C116 1.429 . S
C112 C111 1.438 . S
C112 C113 1.428 . S
C112 C125 1.394 . S
C113 H105 0.949 . S
C113 C112 1.428 . S
C113 C114 1.345 . S
C114 H106 0.950 . S
C114 C113 1.345 . S
C114 C115 1.424 . S
C115 H107 0.951 . S
C115 C114 1.424 . S
C115 C116 1.347 . S
C116 H108 0.951 . S
C116 C111 1.429 . S
C116 C115 1.347 . S
H117 C118 0.951 . S
C118 H117 0.951 . S
C118 C124 1.265 . S
H119 C124 0.950 . S
H120 C128 0.949 . S
H121 C129 0.950 . S
H122 C130 0.951 . S
H123 C131 0.951 . S
C124 C118 1.265 . S
C124 H119 0.950 . S
C124 C125 1.478 . S
C125 C112 1.394 . S
C125 C124 1.478 . S
C125 C126 1.397 . S
C126 C125 1.397 . S
C126 C127 1.438 . S
C126 C131 1.429 . S
C127 C110 1.394 . S
C127 C126 1.438 . S
C127 C128 1.428 . S
C128 H120 0.949 . S
C128 C127 1.428 . S
C128 C129 1.345 . S
C129 H121 0.950 . S
C129 C128 1.345 . S
C129 C130 1.424 . S
C130 H122 0.951 . S
C130 C129 1.424 . S
C130 C131 1.347 . S
C131 H123 0.951 . S
C131 C126 1.429 . S
C131 C130 1.347 . S
H132 C133 0.951 . S
C133 H132 0.951 . S
C133 C139 1.265 . S
H134 C139 0.950 . S
H135 C143 0.949 . S
H136 C144 0.950 . S
H137 C145 0.951 . S
H138 C146 0.951 1_556 S
C139 C133 1.265 . S
C139 H134 0.950 . S
C139 C140 1.478 . S
C140 C139 1.478 . S
C140 C141 1.397 1_556 S
C140 C157 1.394 . S
C141 C140 1.397 1_554 S
C141 C142 1.438 . S
C141 C146 1.429 . S
C142 C141 1.438 . S
C142 C143 1.428 . S
C142 C155 1.394 . S
C143 H135 0.949 . S
C143 C142 1.428 . S
C143 C144 1.345 . S
C144 H136 0.950 . S
C144 C143 1.345 . S
C144 C145 1.424 . S
C145 H137 0.951 . S
C145 C144 1.424 . S
C145 C146 1.347 . S
C146 H138 0.951 1_554 S
C146 C141 1.429 . S
C146 C145 1.347 . S
H147 C148 0.951 . S
C148 H147 0.951 . S
C148 C154 1.265 . S
H149 C154 0.950 . S
H150 C158 0.949 . S
H151 C159 0.950 . S
H152 C160 0.951 . S
H153 C161 0.951 1_554 S
C154 C148 1.265 . S
C154 H149 0.950 . S
C154 C155 1.478 . S
C155 C142 1.394 . S
C155 C154 1.478 . S
C155 C156 1.397 . S
C156 C155 1.397 . S
C156 C157 1.438 1_554 S
C156 C161 1.429 1_554 S
C157 C140 1.394 . S
C157 C156 1.438 1_556 S
C157 C158 1.428 . S
C158 H150 0.949 . S
C158 C157 1.428 . S
C158 C159 1.345 . S
C159 H151 0.950 . S
C159 C158 1.345 . S
C159 C160 1.424 . S
C160 H152 0.951 . S
C160 C159 1.424 . S
C160 C161 1.347 . S
C161 H153 0.951 1_556 S
C161 C156 1.429 1_556 S
C161 C160 1.347 . S
H162 C163 0.951 . S
C163 H162 0.951 . S
C163 C169 1.265 . S
H164 C169 0.950 . S
H165 C173 0.949 . S
H166 C174 0.950 . S
H167 C175 0.951 . S
H168 C176 0.951 . S
C169 C163 1.265 . S
C169 H164 0.950 . S
C169 C170 1.478 . S
C170 C169 1.478 . S
C170 C171 1.397 . S
C170 C187 1.394 . S
C171 C170 1.397 . S
C171 C172 1.438 . S
C171 C176 1.429 . S
C172 C171 1.438 . S
C172 C173 1.428 . S
C172 C185 1.394 . S
C173 H165 0.949 . S
C173 C172 1.428 . S
C173 C174 1.345 . S
C174 H166 0.950 . S
C174 C173 1.345 . S
C174 C175 1.424 . S
C175 H167 0.951 . S
C175 C174 1.424 . S
C175 C176 1.347 . S
C176 H168 0.951 . S
C176 C171 1.429 . S
C176 C175 1.347 . S
H177 C178 0.951 . S
C178 H177 0.951 . S
C178 C184 1.265 . S
H179 C184 0.950 . S
H180 C188 0.949 . S
H181 C189 0.950 . S
H182 C190 0.951 . S
H183 C191 0.951 . S
C184 C178 1.265 . S
C184 H179 0.950 . S
C184 C185 1.478 . S
C185 C172 1.394 . S
C185 C184 1.478 . S
C185 C186 1.397 . S
C186 C185 1.397 . S
C186 C187 1.438 . S
C186 C191 1.429 . S
C187 C170 1.394 . S
C187 C186 1.438 . S
C187 C188 1.428 . S
C188 H180 0.949 . S
C188 C187 1.428 . S
C188 C189 1.345 . S
C189 H181 0.950 . S
C189 C188 1.345 . S
C189 C190 1.424 . S
C190 H182 0.951 . S
C190 C189 1.424 . S
C190 C191 1.347 . S
C191 H183 0.951 . S
C191 C186 1.429 . S
C191 C190 1.347 . S
H192 C193 0.951 . S
C193 H192 0.951 . S
C193 C199 1.265 . S
H194 C199 0.950 . S
H195 C203 0.949 . S
H196 C204 0.950 . S
H197 C205 0.951 . S
H198 C206 0.951 . S
C199 C193 1.265 . S
C199 H194 0.950 . S
C199 C200 1.478 . S
C200 C199 1.478 . S
C200 C201 1.397 . S
C200 C217 1.394 . S
C201 C200 1.397 . S
C201 C202 1.438 . S
C201 C206 1.429 . S
C202 C201 1.438 . S
C202 C203 1.428 . S
C202 C215 1.394 . S
C203 H195 0.949 . S
C203 C202 1.428 . S
C203 C204 1.345 . S
C204 H196 0.950 . S
C204 C203 1.345 . S
C204 C205 1.424 . S
C205 H197 0.951 . S
C205 C204 1.424 . S
C205 C206 1.347 . S
C206 H198 0.951 . S
C206 C201 1.429 . S
C206 C205 1.347 . S
H207 C208 0.951 . S
C208 H207 0.951 . S
C208 C214 1.265 . S
H209 C214 0.950 . S
H210 C218 0.949 . S
H211 C219 0.950 . S
H212 C220 0.951 . S
H213 C221 0.951 . S
C214 C208 1.265 . S
C214 H209 0.950 . S
C214 C215 1.478 . S
C215 C202 1.394 . S
C215 C214 1.478 . S
C215 C216 1.397 . S
C216 C215 1.397 . S
C216 C217 1.438 . S
C216 C221 1.429 . S
C217 C200 1.394 . S
C217 C216 1.438 . S
C217 C218 1.428 . S
C218 H210 0.949 . S
C218 C217 1.428 . S
C218 C219 1.345 . S
C219 H211 0.950 . S
C219 C218 1.345 . S
C219 C220 1.424 . S
C220 H212 0.951 . S
C220 C219 1.424 . S
C220 C221 1.347 . S
C221 H213 0.951 . S
C221 C216 1.429 . S
C221 C220 1.347 . S
C43 C35 1.414 . S
C58 C8 1.429 . S
C73 C9 1.505 . S
C88 C23 1.454 . S
C103 C22 1.442 . S
C118 C36 1.450 . S
C133 C37 1.450 . S
C148 C3 1.467 . S
C163 C21 1.377 . S
C178 C7 1.426 . S
C193 C31 1.418 . S
C208 C17 1.440 . S
