# Generated by pormake.
# Topology pcu, (6)-cn, num edge types: 1
# Building blocks:
#     Node 0, Type 0, BuildingBlock: MIDCAF_clean_sbu_0, # of connection points: 6
#     Edge 1, Type (0, 0), BuildingBlock: EZIPEK_clean_linker_0, # of connection points: 2
#     Edge 2, Type (0, 0), BuildingBlock: EZIPEK_clean_linker_0, # of connection points: 2
#     Edge 3, Type (0, 0), BuildingBlock: EZIPEK_clean_linker_0, # of connection points: 2
# Relax obj value: 0.148
# Max RMSD: 0.201
# Mean RMSD: 0.201
data_MOF--net-pcu--node1-MIDCAF_clean_sbu_0--edge1-EZIPEK_clean_linker_0
_symmetry_space_group_name_H-M    P1
_symmetry_Int_Tables_number       1
_symmetry_cell_setting            triclinic
loop_
_symmetry_equiv_pos_as_xyz
'x, y, z'
_cell_length_a     11.163983
_cell_length_b     11.47049
_cell_length_c     11.721209
_cell_angle_alpha  89.501159
_cell_angle_beta   104.59468
_cell_angle_gamma 105.13252
loop_
_atom_site_label
_atom_site_type_symbol
_atom_site_fract_x
_atom_site_fract_y
_atom_site_fract_z
_atom_type_partial_charge
Zn0 Zn 0.80414 0.84269 0.86605 0.0
Zn1 Zn 0.30832 0.15043 0.21128 0.0
Zn2 Zn 0.99289 0.99199 0.9742 0.0
C3 C 0.23767 0.08559 0.95761 0.0
C4 C 0.11694 0.97556 0.27771 0.0
O5 O 0.84077 0.08132 0.96626 0.0
O6 O 0.68245 0.91399 0.91641 0.0
C7 C 0.94278 0.92396 0.70241 0.0
O8 O 0.14117 0.02986 0.87634 0.0
O9 O 0.21155 0.11643 0.04838 0.0
O10 O 0.23866 0.01602 0.31019 0.0
O11 O 0.05744 0.97695 0.16831 0.0
O12 O 0.82828 0.87316 0.70384 0.0
O13 O 0.02728 0.96759 0.79971 0.0
O14 O 0.01916 0.83359 0.07226 0.0
O15 O 0.8608 0.70537 0.94583 0.0
C16 C 0.95908 0.72447 0.03237 0.0
O17 O 0.98047 0.16821 0.0272 0.0
O18 O 0.17655 0.25614 0.14756 0.0
C19 C 0.72134 0.02538 0.94753 0.0
C20 C 0.06387 0.26008 0.08935 0.0
C21 C 0.08952 0.07028 0.45975 0.0
C22 C 0.0479 0.97217 0.3724 0.0
C23 C 0.93259 0.84512 0.49901 0.0
C24 C 0.97596 0.94139 0.58756 0.0
N25 N 0.05073 0.15774 0.62973 0.0
N26 N 0.87159 0.79859 0.28882 0.0
C27 C 0.04177 0.05789 0.56182 0.0
C28 C 0.95116 0.86914 0.38507 0.0
N29 N 0.17202 0.17672 0.4442 0.0
N30 N 0.8784 0.72981 0.52381 0.0
H31 H 0.87331 0.82239 0.20339 0.0
H32 H 0.79385 0.72687 0.29419 0.0
H33 H 0.86948 0.70604 0.60793 0.0
H34 H 0.85537 0.65619 0.46323 0.0
H35 H 0.22038 0.24333 0.51203 0.0
H36 H 0.19367 0.19771 0.36387 0.0
H37 H 0.08666 0.24607 0.60825 0.0
H38 H 1.00898 0.15346 0.70036 0.0
C39 C 0.43292 0.1496 0.87726 0.0
C40 C 0.37098 0.08555 0.95996 0.0
C41 C 0.57136 0.0396 0.06318 0.0
C42 C 0.62481 0.08273 0.96907 0.0
N43 N 0.61073 0.17989 0.78567 0.0
N44 N 0.37563 0.95008 0.11946 0.0
C45 C 0.55754 0.13994 0.87649 0.0
C46 C 0.43915 0.02663 0.05095 0.0
N47 N 0.37368 0.22055 0.80121 0.0
N48 N 0.64681 1.00671 0.16226 0.0
H49 H 0.27646 0.92953 0.10681 0.0
H50 H 0.4188 0.89648 0.17975 0.0
H51 H 0.74447 0.01559 0.17184 0.0
H52 H 0.61609 0.98313 0.23828 0.0
H53 H 0.41811 0.27739 0.74553 0.0
H54 H 0.283 0.2297 0.80055 0.0
H55 H 0.5611 0.20944 0.70827 0.0
H56 H 0.70427 0.17886 0.78678 0.0
C57 C 0.039 0.56151 0.96278 0.0
C58 C 0.0177 0.62095 0.05904 0.0
C59 C 0.02355 0.44213 0.1739 0.0
C60 C 0.04049 0.38128 0.07671 0.0
N61 N 0.0921 0.38973 0.88828 0.0
N62 N 0.04219 0.63584 0.26764 0.0
C63 C 0.05619 0.44295 0.97368 0.0
C64 C 0.02535 0.56659 0.16835 0.0
N65 N 0.04205 0.61924 0.86045 0.0
N66 N 1.0031 0.38022 0.27038 0.0
H67 H 0.06151 0.72934 0.26567 0.0
H68 H 0.05622 0.60421 0.35223 0.0
H69 H 0.99994 0.28868 0.27631 0.0
H70 H 0.9784 0.41657 0.3395 0.0
H71 H 0.0381 0.57665 0.78105 0.0
H72 H 0.04576 0.71092 0.85443 0.0
H73 H 0.11886 0.4341 0.81716 0.0
H74 H 0.10338 0.30224 0.89176 0.0
loop_
_geom_bond_atom_site_label_1
_geom_bond_atom_site_label_2
_geom_bond_distance
_geom_bond_site_symmetry_2
_ccdc_geom_bond_type
Zn0 O6 1.920 . S
Zn0 O12 1.898 . S
Zn0 O15 1.905 . S
Zn1 O9 1.905 . S
Zn1 O10 1.898 . S
Zn1 O18 1.920 . S
Zn2 O5 2.075 1_455 S
Zn2 O8 2.120 . S
Zn2 O11 2.119 1_465 S
Zn2 O13 2.120 1_464 S
Zn2 O14 2.118 1_554 S
Zn2 O17 2.077 1_564 S
C3 O8 1.166 1_545 S
C3 O9 1.182 . S
C4 O10 1.167 . S
C4 O11 1.299 1_455 S
O5 Zn2 2.075 1_655 S
O5 C19 1.305 1_554 S
O6 Zn0 1.920 . S
O6 C19 1.234 . S
C7 O12 1.167 . S
C7 O13 1.299 1_565 S
O8 Zn2 2.120 . S
O8 C3 1.166 1_565 S
O9 Zn1 1.905 . S
O9 C3 1.182 . S
O10 Zn1 1.898 . S
O10 C4 1.167 . S
O11 Zn2 2.119 1_645 S
O11 C4 1.299 1_655 S
O12 Zn0 1.898 . S
O12 C7 1.167 . S
O13 Zn2 2.120 1_646 S
O13 C7 1.299 1_545 S
O14 Zn2 2.118 1_556 S
O14 C16 1.166 1_455 S
O15 Zn0 1.905 . S
O15 C16 1.182 . S
C16 O14 1.166 1_655 S
C16 O15 1.182 . S
O17 Zn2 2.077 1_546 S
O17 C20 1.305 1_556 S
O18 Zn1 1.920 . S
O18 C20 1.234 . S
C19 O5 1.305 1_556 S
C19 O6 1.234 . S
C20 O17 1.305 1_554 S
C20 O18 1.234 . S
C21 C22 1.363 1_545 S
C21 C27 1.379 . S
C21 N29 1.356 . S
C22 C21 1.363 1_565 S
C22 C28 1.363 1_455 S
C23 C24 1.363 1_655 S
C23 C28 1.379 . S
C23 N30 1.356 . S
C24 C23 1.363 1_455 S
C24 C27 1.363 1_565 S
N25 C27 1.356 . S
N25 H37 0.984 . S
N25 H38 0.985 . S
N26 C28 1.356 . S
N26 H31 0.984 . S
N26 H32 0.985 . S
C27 C21 1.379 . S
C27 C24 1.363 1_545 S
C27 N25 1.356 . S
C28 C22 1.363 1_655 S
C28 C23 1.379 . S
C28 N26 1.356 . S
N29 C21 1.356 . S
N29 H35 0.984 . S
N29 H36 0.984 . S
N30 C23 1.356 . S
N30 H33 0.984 . S
N30 H34 0.985 . S
H31 N26 0.984 . S
H32 N26 0.985 . S
H33 N30 0.984 . S
H34 N30 0.985 . S
H35 N29 0.984 . S
H36 N29 0.984 . S
H37 N25 0.984 . S
H38 N25 0.985 . S
C39 C40 1.363 . S
C39 C45 1.379 . S
C39 N47 1.356 . S
C40 C39 1.363 . S
C40 C46 1.363 1_556 S
C41 C42 1.363 1_554 S
C41 C46 1.379 . S
C41 N48 1.356 . S
C42 C41 1.363 1_556 S
C42 C45 1.363 . S
N43 C45 1.356 . S
N43 H55 0.984 . S
N43 H56 0.985 . S
N44 C46 1.356 . S
N44 H49 0.984 . S
N44 H50 0.985 . S
C45 C39 1.379 . S
C45 C42 1.363 . S
C45 N43 1.356 . S
C46 C40 1.363 1_554 S
C46 C41 1.379 . S
C46 N44 1.356 . S
N47 C39 1.356 . S
N47 H53 0.984 . S
N47 H54 0.984 . S
N48 C41 1.356 . S
N48 H51 0.984 . S
N48 H52 0.985 . S
H49 N44 0.984 . S
H50 N44 0.985 . S
H51 N48 0.984 . S
H52 N48 0.985 . S
H53 N47 0.984 . S
H54 N47 0.984 . S
H55 N43 0.984 . S
H56 N43 0.985 . S
C57 C58 1.363 1_556 S
C57 C63 1.379 . S
C57 N65 1.356 . S
C58 C57 1.363 1_554 S
C58 C64 1.363 1_655 S
C59 C60 1.363 1_455 S
C59 C64 1.379 . S
C59 N66 1.356 . S
C60 C59 1.363 1_655 S
C60 C63 1.363 1_554 S
N61 C63 1.356 . S
N61 H73 0.984 . S
N61 H74 0.985 . S
N62 C64 1.356 . S
N62 H67 0.984 . S
N62 H68 0.985 . S
C63 C57 1.379 . S
C63 C60 1.363 1_556 S
C63 N61 1.356 . S
C64 C58 1.363 1_455 S
C64 C59 1.379 . S
C64 N62 1.356 . S
N65 C57 1.356 . S
N65 H71 0.984 . S
N65 H72 0.984 . S
N66 C59 1.356 . S
N66 H69 0.984 . S
N66 H70 0.985 . S
H67 N62 0.984 . S
H68 N62 0.985 . S
H69 N66 0.984 . S
H70 N66 0.985 . S
H71 N65 0.984 . S
H72 N65 0.984 . S
H73 N61 0.984 . S
H74 N61 0.985 . S
C22 C4 1.342 1_565 S
C24 C7 1.342 1_455 S
C40 C3 1.354 1_556 S
C42 C19 1.351 1_545 S
C58 C16 1.354 1_554 S
C60 C20 1.351 1_655 S
