# Generated by pormake.
# Topology umf, (4)-cn, num edge types: 1
# Building blocks:
#     Node 0, Type 0, BuildingBlock: ESEHIV_clean_sbu_0, # of connection points: 4
#     Node 1, Type 0, BuildingBlock: ESEHIV_clean_sbu_0, # of connection points: 4
#     Node 2, Type 0, BuildingBlock: ESEHIV_clean_sbu_0, # of connection points: 4
#     Node 3, Type 0, BuildingBlock: ESEHIV_clean_sbu_0, # of connection points: 4
#     Node 4, Type 0, BuildingBlock: ESEHIV_clean_sbu_0, # of connection points: 4
#     Node 5, Type 0, BuildingBlock: ESEHIV_clean_sbu_0, # of connection points: 4
#     Node 6, Type 0, BuildingBlock: ESEHIV_clean_sbu_0, # of connection points: 4
#     Node 7, Type 0, BuildingBlock: ESEHIV_clean_sbu_0, # of connection points: 4
#     Edge 8, Type (0, 0), None
#     Edge 9, Type (0, 0), None
#     Edge 10, Type (0, 0), None
#     Edge 11, Type (0, 0), None
#     Edge 12, Type (0, 0), None
#     Edge 13, Type (0, 0), None
#     Edge 14, Type (0, 0), None
#     Edge 15, Type (0, 0), None
#     Edge 16, Type (0, 0), None
#     Edge 17, Type (0, 0), None
#     Edge 18, Type (0, 0), None
#     Edge 19, Type (0, 0), None
#     Edge 20, Type (0, 0), None
#     Edge 21, Type (0, 0), None
#     Edge 22, Type (0, 0), None
#     Edge 23, Type (0, 0), None
# Relax obj value: 0.082
# Max RMSD: 0.120
# Mean RMSD: 0.120
data_MOF--net-umf--node1-ESEHIV_clean_sbu_0--edge1-none
_symmetry_space_group_name_H-M    P1
_symmetry_Int_Tables_number       1
_symmetry_cell_setting            triclinic
loop_
_symmetry_equiv_pos_as_xyz
'x, y, z'
_cell_length_a     17.045427
_cell_length_b     17.045708
_cell_length_c     21.338887
_cell_angle_alpha  90.053523
_cell_angle_beta   89.980107
_cell_angle_gamma 90.000643
loop_
_atom_site_label
_atom_site_type_symbol
_atom_site_fract_x
_atom_site_fract_y
_atom_site_fract_z
_atom_type_partial_charge
Cu0 Cu 0.13661 0.29261 0.19066 0.0
N1 N 0.07226 0.21174 0.2193 0.0
N2 N 1.03973 0.08497 0.22278 0.0
C3 C 0.09871 0.13718 0.21978 0.0
C4 C 0.9731 0.12764 0.22367 0.0
C5 C 0.99347 0.20619 0.22235 0.0
O6 O 0.24221 0.25654 0.21105 0.0
C7 C 0.04994 0.30753 0.0782 0.0
O8 O 0.99052 0.31754 0.11635 0.0
H9 H 0.15971 0.12157 0.21375 0.0
H10 H 0.95338 0.25522 0.22007 0.0
N11 N 0.12163 0.39443 0.22102 0.0
N12 N 0.07013 0.51289 0.23776 0.0
C13 C 0.05497 0.43568 0.22911 0.0
C14 C 0.17999 0.44775 0.22376 0.0
C15 C 0.1486 0.52072 0.2348 0.0
C16 C 0.27378 0.24326 0.26452 0.0
O17 O 0.34164 0.20752 0.26501 0.0
H18 H 0.99703 0.41066 0.22404 0.0
H19 H 0.24114 0.43476 0.21496 0.0
O20 O 0.11893 0.29741 0.10026 0.0
H21 H 0.91417 0.10411 0.22451 0.0
H22 H 0.18058 0.57548 0.23669 0.0
Cu23 Cu 0.79335 0.13547 0.69063 0.0
N24 N 0.8742 0.07086 0.71893 0.0
N25 N 1.00096 1.03829 0.7226 0.0
C26 C 0.94876 0.0973 0.71987 0.0
C27 C 0.95827 0.97165 0.72282 0.0
C28 C 0.87974 0.99204 0.72137 0.0
O29 O 0.82967 0.24096 0.71124 0.0
C30 C 0.77748 0.04944 0.57778 0.0
O31 O 0.76734 0.98982 0.61565 0.0
H32 H 0.9644 0.15836 0.7144 0.0
H33 H 0.83072 0.95197 0.71864 0.0
N34 N 0.69163 0.12047 0.72115 0.0
N35 N 0.57321 0.06891 0.73784 0.0
C36 C 0.6504 0.05378 0.72904 0.0
C37 C 0.63833 0.17882 0.7242 0.0
C38 C 0.56538 0.14739 0.73521 0.0
C39 C 0.84317 0.27246 0.76474 0.0
O40 O 0.8791 0.34022 0.76529 0.0
H41 H 0.67539 0.99586 0.72369 0.0
H42 H 0.6513 0.24 0.71561 0.0
O43 O 0.78811 0.11822 0.60018 0.0
H44 H 0.9818 0.91272 0.72332 0.0
H45 H 0.51063 0.17936 0.73729 0.0
Cu46 Cu 0.9494 0.79488 0.18951 0.0
N47 N 1.01405 0.87558 0.21817 0.0
N48 N 0.04664 1.00231 0.22239 0.0
C49 C 0.98762 0.95014 0.21937 0.0
C50 C 0.11327 0.95962 0.22258 0.0
C51 C 0.09286 0.88109 0.22075 0.0
O52 O 0.84388 0.83153 0.20975 0.0
C53 C 1.03604 0.77817 0.0771 0.0
O54 O 0.09531 0.76761 0.11526 0.0
H55 H 0.92657 0.96583 0.21388 0.0
H56 H 0.13293 0.83209 0.2179 0.0
N57 N 0.96391 0.6931 0.21992 0.0
N58 N 1.01507 0.57469 0.23725 0.0
C59 C 1.03041 0.65189 0.22881 0.0
C60 C 0.90549 0.63979 0.22201 0.0
C61 C 0.93667 0.56685 0.23344 0.0
C62 C 0.81209 0.84486 0.26316 0.0
O63 O 0.74464 0.88138 0.26359 0.0
H64 H 0.08845 0.67691 0.22449 0.0
H65 H 0.84451 0.65278 0.21257 0.0
O66 O 0.96721 0.78947 0.09915 0.0
H67 H 0.1722 0.98314 0.2233 0.0
H68 H 0.90464 0.51212 0.23508 0.0
Cu69 Cu 0.29108 0.94826 0.68954 0.0
N70 N 0.21036 1.01264 0.71855 0.0
N71 N 0.08361 0.0452 0.72259 0.0
C72 C 0.1358 0.98621 0.71928 0.0
C73 C 0.12631 0.11181 0.72346 0.0
C74 C 0.20485 0.09142 0.72175 0.0
O75 O 0.25467 0.84264 0.70955 0.0
C76 C 0.30682 1.03554 0.57751 0.0
O77 O 0.31724 0.09462 0.61596 0.0
H78 H 0.12014 0.92522 0.71323 0.0
H79 H 0.25387 0.13151 0.71935 0.0
N80 N 0.39296 0.96274 0.71979 0.0
N81 N 0.51141 1.01385 0.73717 0.0
C82 C 0.43418 1.02922 0.72888 0.0
C83 C 0.44629 0.90433 0.72157 0.0
C84 C 0.51925 0.93547 0.73302 0.0
C85 C 0.24155 0.81077 0.76293 0.0
O86 O 0.20522 0.74322 0.76329 0.0
H87 H 0.40914 0.08726 0.72483 0.0
H88 H 0.43328 0.84339 0.71192 0.0
O89 O 0.29604 0.9665 0.59923 0.0
H90 H 0.1028 0.17074 0.72454 0.0
H91 H 0.574 0.90344 0.73448 0.0
Cu92 Cu 0.13647 0.79272 0.89666 0.0
N93 N 0.0721 0.8736 0.8681 0.0
N94 N 1.03958 1.00036 0.86466 0.0
C95 C 0.09856 0.94815 0.86758 0.0
C96 C 0.97294 0.95769 0.86387 0.0
C97 C 0.99331 0.87914 0.86516 0.0
O98 O 0.24206 0.82878 0.87618 0.0
C99 C 0.0499 0.77776 1.00923 0.0
O100 O 0.99044 0.76776 0.97114 0.0
H101 H 0.15957 0.96376 0.87353 0.0
H102 H 0.95322 0.83011 0.8675 0.0
N103 N 0.12146 0.6909 0.8663 0.0
N104 N 0.06993 0.57244 0.84962 0.0
C105 C 0.05478 0.64966 0.85831 0.0
C106 C 0.17982 0.63759 0.86343 0.0
C107 C 0.1484 0.56462 0.85244 0.0
C108 C 0.2736 0.84208 0.82268 0.0
O109 O 0.34146 0.87781 0.82213 0.0
H110 H 0.99685 0.67466 0.8635 0.0
H111 H 0.24098 0.65058 0.87213 0.0
O112 O 0.11887 0.78788 0.98708 0.0
H113 H 0.91402 0.98122 0.8631 0.0
H114 H 0.18038 0.50987 0.85048 0.0
Cu115 Cu 0.29128 0.13717 0.39768 0.0
N116 N 0.21053 0.07282 0.36871 0.0
N117 N 0.08378 1.04028 0.36476 0.0
C118 C 0.13597 0.09926 0.36807 0.0
C119 C 0.12648 0.97366 0.36384 0.0
C120 C 0.20502 0.99404 0.36547 0.0
O121 O 0.25493 0.24279 0.37767 0.0
C122 C 0.30685 0.04988 0.50972 0.0
O123 O 0.31717 0.99078 0.47127 0.0
H124 H 0.12032 0.16024 0.37419 0.0
H125 H 0.25404 0.95395 0.3678 0.0
N126 N 0.39316 0.12262 0.36737 0.0
N127 N 0.51161 0.07145 0.35004 0.0
C128 C 0.43438 0.05612 0.35841 0.0
C129 C 0.44649 0.18102 0.36548 0.0
C130 C 0.51946 0.14984 0.35409 0.0
C131 C 0.24181 0.27465 0.32429 0.0
O132 O 0.20552 0.34222 0.32393 0.0
H133 H 0.40934 0.99809 0.36265 0.0
H134 H 0.43349 0.24198 0.37507 0.0
O135 O 0.2962 0.11894 0.48799 0.0
H136 H 0.10295 0.91474 0.36277 0.0
H137 H 0.57421 0.18185 0.35266 0.0
Cu138 Cu 0.94927 0.29044 0.89803 0.0
N139 N 1.0139 0.20975 0.86929 0.0
N140 N 0.04649 0.08302 0.86503 0.0
C141 C 0.98747 0.13519 0.86813 0.0
C142 C 0.11312 0.12571 0.86475 0.0
C143 C 0.09271 0.20424 0.8666 0.0
O144 O 0.84375 0.25379 0.87789 0.0
C145 C 1.03601 0.30712 1.01035 0.0
O146 O 0.09525 0.31769 0.97211 0.0
H147 H 0.92643 0.1195 0.8737 0.0
H148 H 0.13278 0.25325 0.8694 0.0
N149 N 0.96374 0.39223 0.86763 0.0
N150 N 1.01488 0.51064 0.85023 0.0
C151 C 1.03023 0.43344 0.85862 0.0
C152 C 0.90532 0.44554 0.86566 0.0
C153 C 0.93648 0.51848 0.85419 0.0
C154 C 0.81191 0.24049 0.82451 0.0
O155 O 0.74449 0.20391 0.82413 0.0
H156 H 0.08827 0.40842 0.86283 0.0
H157 H 0.84436 0.43254 0.87521 0.0
O158 O 0.96716 0.29583 0.98837 0.0
H159 H 0.17205 0.1022 0.86395 0.0
H160 H 0.90445 0.57322 0.85261 0.0
Cu161 Cu 0.79355 0.94996 0.39702 0.0
N162 N 0.87438 1.0146 0.36868 0.0
N163 N 1.00113 0.04719 0.36491 0.0
C164 C 0.94893 0.98817 0.36764 0.0
C165 C 0.95844 0.11382 0.36475 0.0
C166 C 0.8799 0.09342 0.36627 0.0
O167 O 0.82993 0.84447 0.37641 0.0
C168 C 0.77751 1.03599 0.50986 0.0
O169 O 0.76727 0.09558 0.47199 0.0
H170 H 0.96459 0.9271 0.37305 0.0
H171 H 0.83089 0.13349 0.36907 0.0
N172 N 0.69182 0.96489 0.36656 0.0
N173 N 0.57341 1.01639 0.34981 0.0
C174 C 0.6506 1.03156 0.35853 0.0
C175 C 0.63853 0.90652 0.36361 0.0
C176 C 0.56559 0.93791 0.35254 0.0
C177 C 0.8434 0.81294 0.32291 0.0
O178 O 0.87943 0.74524 0.32234 0.0
H179 H 0.6756 0.0895 0.36368 0.0
H180 H 0.65151 0.84536 0.37227 0.0
O181 O 0.78826 0.96722 0.48747 0.0
H182 H 0.98196 0.17275 0.36424 0.0
H183 H 0.51085 0.90592 0.35043 0.0
loop_
_geom_bond_atom_site_label_1
_geom_bond_atom_site_label_2
_geom_bond_distance
_geom_bond_site_symmetry_2
_ccdc_geom_bond_type
Cu0 N1 1.999 . S
Cu0 O6 1.974 . S
Cu0 N11 1.985 . S
Cu0 O20 1.959 1_455 S
N1 Cu0 1.999 . S
N1 C3 1.263 . S
N1 C5 1.389 1_455 S
N2 C3 1.358 . S
N2 C4 1.400 1_455 S
C3 N1 1.263 . S
C3 N2 1.358 . S
C3 H9 0.930 . S
C4 N2 1.400 1_655 S
C4 C5 1.351 . S
C4 H21 0.930 . S
C5 N1 1.389 1_655 S
C5 C4 1.351 . S
C5 H10 0.930 . S
O6 Cu0 1.974 . S
O6 C16 1.282 . S
C7 O8 1.261 . S
C7 O20 1.251 1_455 S
O8 C7 1.261 . S
H9 C3 0.930 . S
H10 C5 0.930 . S
N11 Cu0 1.985 . S
N11 C13 1.335 . S
N11 C14 1.390 . S
N12 C13 1.345 . S
N12 C15 1.336 . S
C13 N11 1.335 . S
C13 N12 1.345 . S
C13 H18 0.930 1_455 S
C14 N11 1.390 . S
C14 C15 1.346 . S
C14 H19 0.930 . S
C15 N12 1.336 . S
C15 C14 1.346 . S
C15 H22 0.929 . S
C16 O6 1.282 . S
C16 O17 1.216 . S
O17 C16 1.216 . S
H18 C13 0.930 1_655 S
H19 C14 0.930 . S
O20 Cu0 1.959 1_655 S
O20 C7 1.251 1_655 S
H21 C4 0.930 . S
H22 C15 0.929 . S
Cu23 N24 1.999 . S
Cu23 O29 1.974 . S
Cu23 N34 1.985 . S
Cu23 O43 1.959 1_545 S
N24 Cu23 1.999 . S
N24 C26 1.263 . S
N24 C28 1.389 1_545 S
N25 C26 1.358 . S
N25 C27 1.400 1_545 S
C26 N24 1.263 . S
C26 N25 1.358 . S
C26 H32 0.930 . S
C27 N25 1.400 1_565 S
C27 C28 1.351 . S
C27 H44 0.930 . S
C28 N24 1.389 1_565 S
C28 C27 1.351 . S
C28 H33 0.930 . S
O29 Cu23 1.974 . S
O29 C39 1.282 . S
C30 O31 1.261 . S
C30 O43 1.251 1_545 S
O31 C30 1.261 . S
H32 C26 0.930 . S
H33 C28 0.930 . S
N34 Cu23 1.985 . S
N34 C36 1.335 . S
N34 C37 1.390 . S
N35 C36 1.345 . S
N35 C38 1.336 . S
C36 N34 1.335 . S
C36 N35 1.345 . S
C36 H41 0.930 1_545 S
C37 N34 1.390 . S
C37 C38 1.346 . S
C37 H42 0.930 . S
C38 N35 1.336 . S
C38 C37 1.346 . S
C38 H45 0.929 . S
C39 O29 1.282 . S
C39 O40 1.216 . S
O40 C39 1.216 . S
H41 C36 0.930 1_565 S
H42 C37 0.930 . S
O43 Cu23 1.959 1_565 S
O43 C30 1.251 1_565 S
H44 C27 0.930 . S
H45 C38 0.929 . S
Cu46 N47 1.999 . S
Cu46 O52 1.974 . S
Cu46 N57 1.985 . S
Cu46 O66 1.959 1_655 S
N47 Cu46 1.999 . S
N47 C49 1.263 . S
N47 C51 1.389 1_655 S
N48 C49 1.358 . S
N48 C50 1.400 1_655 S
C49 N47 1.263 . S
C49 N48 1.358 . S
C49 H55 0.930 . S
C50 N48 1.400 1_455 S
C50 C51 1.351 . S
C50 H67 0.930 . S
C51 N47 1.389 1_455 S
C51 C50 1.351 . S
C51 H56 0.930 . S
O52 Cu46 1.974 . S
O52 C62 1.282 . S
C53 O54 1.261 . S
C53 O66 1.251 1_655 S
O54 C53 1.261 . S
H55 C49 0.930 . S
H56 C51 0.930 . S
N57 Cu46 1.985 . S
N57 C59 1.335 . S
N57 C60 1.390 . S
N58 C59 1.345 . S
N58 C61 1.336 . S
C59 N57 1.335 . S
C59 N58 1.345 . S
C59 H64 0.930 1_655 S
C60 N57 1.390 . S
C60 C61 1.346 . S
C60 H65 0.930 . S
C61 N58 1.336 . S
C61 C60 1.346 . S
C61 H68 0.929 . S
C62 O52 1.282 . S
C62 O63 1.216 . S
O63 C62 1.216 . S
H64 C59 0.930 1_455 S
H65 C60 0.930 . S
O66 Cu46 1.959 1_455 S
O66 C53 1.251 1_455 S
H67 C50 0.930 . S
H68 C61 0.929 . S
Cu69 N70 1.999 . S
Cu69 O75 1.974 . S
Cu69 N80 1.985 . S
Cu69 O89 1.959 1_565 S
N70 Cu69 1.999 . S
N70 C72 1.263 . S
N70 C74 1.389 1_565 S
N71 C72 1.358 . S
N71 C73 1.400 1_565 S
C72 N70 1.263 . S
C72 N71 1.358 . S
C72 H78 0.930 . S
C73 N71 1.400 1_545 S
C73 C74 1.351 . S
C73 H90 0.930 . S
C74 N70 1.389 1_545 S
C74 C73 1.351 . S
C74 H79 0.930 . S
O75 Cu69 1.974 . S
O75 C85 1.282 . S
C76 O77 1.261 . S
C76 O89 1.251 1_565 S
O77 C76 1.261 . S
H78 C72 0.930 . S
H79 C74 0.930 . S
N80 Cu69 1.985 . S
N80 C82 1.335 . S
N80 C83 1.390 . S
N81 C82 1.345 . S
N81 C84 1.336 . S
C82 N80 1.335 . S
C82 N81 1.345 . S
C82 H87 0.930 1_565 S
C83 N80 1.390 . S
C83 C84 1.346 . S
C83 H88 0.930 . S
C84 N81 1.336 . S
C84 C83 1.346 . S
C84 H91 0.929 . S
C85 O75 1.282 . S
C85 O86 1.216 . S
O86 C85 1.216 . S
H87 C82 0.930 1_545 S
H88 C83 0.930 . S
O89 Cu69 1.959 1_545 S
O89 C76 1.251 1_545 S
H90 C73 0.930 . S
H91 C84 0.929 . S
Cu92 N93 1.999 . S
Cu92 O98 1.974 . S
Cu92 N103 1.985 . S
Cu92 O112 1.959 1_455 S
N93 Cu92 1.999 . S
N93 C95 1.263 . S
N93 C97 1.389 1_455 S
N94 C95 1.358 . S
N94 C96 1.400 1_455 S
C95 N93 1.263 . S
C95 N94 1.358 . S
C95 H101 0.930 . S
C96 N94 1.400 1_655 S
C96 C97 1.351 . S
C96 H113 0.930 . S
C97 N93 1.389 1_655 S
C97 C96 1.351 . S
C97 H102 0.930 . S
O98 Cu92 1.974 . S
O98 C108 1.282 . S
C99 O100 1.261 . S
C99 O112 1.251 1_455 S
O100 C99 1.261 . S
H101 C95 0.930 . S
H102 C97 0.930 . S
N103 Cu92 1.985 . S
N103 C105 1.335 . S
N103 C106 1.390 . S
N104 C105 1.345 . S
N104 C107 1.336 . S
C105 N103 1.335 . S
C105 N104 1.345 . S
C105 H110 0.930 1_455 S
C106 N103 1.390 . S
C106 C107 1.346 . S
C106 H111 0.930 . S
C107 N104 1.336 . S
C107 C106 1.346 . S
C107 H114 0.929 . S
C108 O98 1.282 . S
C108 O109 1.216 . S
O109 C108 1.216 . S
H110 C105 0.930 1_655 S
H111 C106 0.930 . S
O112 Cu92 1.959 1_655 S
O112 C99 1.251 1_655 S
H113 C96 0.930 . S
H114 C107 0.929 . S
Cu115 N116 1.999 . S
Cu115 O121 1.974 . S
Cu115 N126 1.985 . S
Cu115 O135 1.959 1_545 S
N116 Cu115 1.999 . S
N116 C118 1.263 . S
N116 C120 1.389 1_545 S
N117 C118 1.358 . S
N117 C119 1.400 1_545 S
C118 N116 1.263 . S
C118 N117 1.358 . S
C118 H124 0.930 . S
C119 N117 1.400 1_565 S
C119 C120 1.351 . S
C119 H136 0.930 . S
C120 N116 1.389 1_565 S
C120 C119 1.351 . S
C120 H125 0.930 . S
O121 Cu115 1.974 . S
O121 C131 1.282 . S
C122 O123 1.261 . S
C122 O135 1.251 1_545 S
O123 C122 1.261 . S
H124 C118 0.930 . S
H125 C120 0.930 . S
N126 Cu115 1.985 . S
N126 C128 1.335 . S
N126 C129 1.390 . S
N127 C128 1.345 . S
N127 C130 1.336 . S
C128 N126 1.335 . S
C128 N127 1.345 . S
C128 H133 0.930 1_545 S
C129 N126 1.390 . S
C129 C130 1.346 . S
C129 H134 0.930 . S
C130 N127 1.336 . S
C130 C129 1.346 . S
C130 H137 0.929 . S
C131 O121 1.282 . S
C131 O132 1.216 . S
O132 C131 1.216 . S
H133 C128 0.930 1_565 S
H134 C129 0.930 . S
O135 Cu115 1.959 1_565 S
O135 C122 1.251 1_565 S
H136 C119 0.930 . S
H137 C130 0.929 . S
Cu138 N139 1.999 . S
Cu138 O144 1.974 . S
Cu138 N149 1.985 . S
Cu138 O158 1.959 1_655 S
N139 Cu138 1.999 . S
N139 C141 1.263 . S
N139 C143 1.389 1_655 S
N140 C141 1.358 . S
N140 C142 1.400 1_655 S
C141 N139 1.263 . S
C141 N140 1.358 . S
C141 H147 0.930 . S
C142 N140 1.400 1_455 S
C142 C143 1.351 . S
C142 H159 0.930 . S
C143 N139 1.389 1_455 S
C143 C142 1.351 . S
C143 H148 0.930 . S
O144 Cu138 1.974 . S
O144 C154 1.282 . S
C145 O146 1.261 . S
C145 O158 1.251 1_655 S
O146 C145 1.261 . S
H147 C141 0.930 . S
H148 C143 0.930 . S
N149 Cu138 1.985 . S
N149 C151 1.335 . S
N149 C152 1.390 . S
N150 C151 1.345 . S
N150 C153 1.336 . S
C151 N149 1.335 . S
C151 N150 1.345 . S
C151 H156 0.930 1_655 S
C152 N149 1.390 . S
C152 C153 1.346 . S
C152 H157 0.930 . S
C153 N150 1.336 . S
C153 C152 1.346 . S
C153 H160 0.929 . S
C154 O144 1.282 . S
C154 O155 1.216 . S
O155 C154 1.216 . S
H156 C151 0.930 1_455 S
H157 C152 0.930 . S
O158 Cu138 1.959 1_455 S
O158 C145 1.251 1_455 S
H159 C142 0.930 . S
H160 C153 0.929 . S
Cu161 N162 1.999 . S
Cu161 O167 1.974 . S
Cu161 N172 1.985 . S
Cu161 O181 1.959 1_565 S
N162 Cu161 1.999 . S
N162 C164 1.263 . S
N162 C166 1.389 1_565 S
N163 C164 1.358 . S
N163 C165 1.400 1_565 S
C164 N162 1.263 . S
C164 N163 1.358 . S
C164 H170 0.930 . S
C165 N163 1.400 1_545 S
C165 C166 1.351 . S
C165 H182 0.930 . S
C166 N162 1.389 1_545 S
C166 C165 1.351 . S
C166 H171 0.930 . S
O167 Cu161 1.974 . S
O167 C177 1.282 . S
C168 O169 1.261 . S
C168 O181 1.251 1_565 S
O169 C168 1.261 . S
H170 C164 0.930 . S
H171 C166 0.930 . S
N172 Cu161 1.985 . S
N172 C174 1.335 . S
N172 C175 1.390 . S
N173 C174 1.345 . S
N173 C176 1.336 . S
C174 N172 1.335 . S
C174 N173 1.345 . S
C174 H179 0.930 1_565 S
C175 N172 1.390 . S
C175 C176 1.346 . S
C175 H180 0.930 . S
C176 N173 1.336 . S
C176 C175 1.346 . S
C176 H183 0.929 . S
C177 O167 1.282 . S
C177 O178 1.216 . S
O178 C177 1.216 . S
H179 C174 0.930 1_545 S
H180 C175 0.930 . S
O181 Cu161 1.959 1_545 S
O181 C168 1.251 1_545 S
H182 C165 0.930 . S
H183 C176 0.929 . S
N12 N58 2.619 1_455 S
N81 N35 2.619 1_565 S
N150 N104 2.619 1_655 S
N127 N173 2.619 1_545 S
C145 C7 1.752 1_656 S
C30 C168 1.752 1_545 S
C53 C99 1.752 1_654 S
C122 C76 1.752 1_545 S
C16 C131 1.823 . S
C154 C39 1.823 . S
C177 C62 1.823 . S
C85 C108 1.823 . S
N2 N48 1.326 1_445 S
N71 N25 1.326 1_465 S
N140 N94 1.326 1_645 S
N163 N117 1.326 1_665 S
