# Generated by pormake.
# Topology pcu, (6)-cn, num edge types: 1
# Building blocks:
#     Node 0, Type 0, BuildingBlock: GEDQOX_clean_sbu_0, # of connection points: 6
#     Edge 1, Type (0, 0), BuildingBlock: AJUNOK_clean_linker_0, # of connection points: 2
#     Edge 2, Type (0, 0), BuildingBlock: AJUNOK_clean_linker_0, # of connection points: 2
#     Edge 3, Type (0, 0), BuildingBlock: AJUNOK_clean_linker_0, # of connection points: 2
# Relax obj value: 0.000
# Max RMSD: 0.000
# Mean RMSD: 0.000
data_MOF--net-pcu--node1-GEDQOX_clean_sbu_0--edge1-AJUNOK_clean_linker_0
_symmetry_space_group_name_H-M    P1
_symmetry_Int_Tables_number       1
_symmetry_cell_setting            triclinic
loop_
_symmetry_equiv_pos_as_xyz
'x, y, z'
_cell_length_a     11.450497
_cell_length_b     21.658531
_cell_length_c     10.592657
_cell_angle_alpha  84.13842
_cell_angle_beta   95.999051
_cell_angle_gamma 122.72361
loop_
_atom_site_label
_atom_site_type_symbol
_atom_site_fract_x
_atom_site_fract_y
_atom_site_fract_z
_atom_type_partial_charge
Nd0 Nd 0.09745 0.10058 0.0244 0.0
Nd1 Nd 0.91331 0.91484 1.016 0.0
C2 C 0.20178 0.23634 0.09229 0.0
C3 C 0.16194 0.29223 0.07612 0.0
C4 C 0.07919 0.29353 0.16391 0.0
C5 C 0.04338 0.34648 0.15069 0.0
C6 C 0.09091 0.40061 0.05021 0.0
C7 C 0.17338 0.39935 0.96196 0.0
C8 C 0.20891 0.34611 0.97502 0.0
C9 C 0.02377 0.05099 0.77836 0.0
C10 C 0.75261 1.00303 1.00607 0.0
C11 C 0.81579 0.78134 0.9412 0.0
C12 C 0.85676 0.72597 0.95932 0.0
C13 C 0.94205 0.72531 0.87341 0.0
C14 C 0.98067 0.67342 0.88958 0.0
C15 C 0.9349 0.62048 0.9919 0.0
C16 C 0.84767 0.62027 0.0766 0.0
C17 C 0.80911 0.67224 0.06054 0.0
C18 C 0.98123 0.96285 0.26298 0.0
C19 C 0.25868 0.01337 0.02564 0.0
O20 O 0.12718 0.1775 0.16566 0.0
O21 O 0.23879 0.2217 0.99183 0.0
O22 O 0.09302 0.12005 0.80293 0.0
O23 O 0.99439 0.01414 0.88299 0.0
O24 O 0.87123 0.06495 0.03293 0.0
O25 O 0.74276 0.94123 0.98136 0.0
O26 O 0.89566 0.84178 0.87328 0.0
O27 O 0.77009 0.79332 0.03883 0.0
O28 O 0.9124 0.89397 0.23694 0.0
O29 O 0.01447 1.00083 0.15908 0.0
O30 O 0.13892 0.9509 1.00636 0.0
O31 O 0.27043 0.07557 0.0508 0.0
H32 H 0.04207 0.25367 0.24355 0.0
H33 H 0.9773 0.34459 0.219 0.0
H34 H 0.21236 0.44034 0.8837 0.0
H35 H 0.27397 0.34751 0.90615 0.0
H36 H 0.97942 0.76508 0.79331 0.0
H37 H 0.04783 0.67526 0.82249 0.0
H38 H 0.80751 0.57921 0.15463 0.0
H39 H 0.74144 0.67008 0.1274 0.0
C40 C 0.02738 0.95343 0.49921 0.0
C41 C 0.99545 0.98789 0.393 0.0
C42 C 0.03161 0.9717 0.62456 0.0
C43 C 1.00219 0.02449 0.6485 0.0
H44 H 0.05065 0.9124 0.48518 0.0
H45 H 0.06221 0.94602 0.70262 0.0
S46 S 0.8879 0.12046 0.40698 0.0
N47 N 0.91595 0.06997 0.32298 0.0
N48 N 0.92768 0.10585 0.55674 0.0
C49 C 0.9657 0.05741 0.54367 0.0
C50 C 0.96096 0.03865 0.41648 0.0
C51 C 0.51039 0.06163 0.08002 0.0
C52 C 0.38471 0.01163 1.01605 0.0
C53 C 0.62842 0.05812 0.07592 0.0
C54 C 0.62529 1.00452 1.00755 0.0
H55 H 0.5172 0.10291 0.13555 0.0
H56 H 0.7225 0.0974 0.12834 0.0
S57 S 0.32505 0.86536 0.8131 0.0
N58 N 0.26645 0.90995 0.87428 0.0
N59 N 0.48838 0.90338 0.86828 0.0
C60 C 0.50112 0.95518 0.94096 0.0
C61 C 0.38095 0.95883 0.94459 0.0
C62 C 0.96844 0.52706 0.90476 0.0
C63 C 0.97678 0.56524 1.00889 0.0
C64 C 1.00615 0.47455 0.91861 0.0
C65 C 0.054 0.45784 0.03723 0.0
H66 H 0.93034 0.53699 0.81187 0.0
H67 H 0.99552 0.44592 0.83594 0.0
S68 S 0.10877 0.54756 0.33728 0.0
N69 N 0.04556 0.58588 0.23309 0.0
N70 N 0.11646 0.48782 0.25903 0.0
C71 C 0.06553 0.49673 0.14155 0.0
C72 C 0.027 0.55011 0.12746 0.0
loop_
_geom_bond_atom_site_label_1
_geom_bond_atom_site_label_2
_geom_bond_distance
_geom_bond_site_symmetry_2
_ccdc_geom_bond_type
Nd0 C2 2.836 . S
Nd0 O20 2.500 1_556 S
Nd0 O21 2.492 . S
Nd0 O22 2.487 . S
Nd0 O23 2.682 1_445 S
Nd0 O24 2.410 1_455 S
Nd0 O29 2.414 1_556 S
Nd0 O31 2.424 . S
Nd1 C11 2.836 . S
Nd1 O23 2.414 1_554 S
Nd1 O25 2.424 . S
Nd1 O26 2.500 1_554 S
Nd1 O27 2.492 . S
Nd1 O28 2.487 . S
Nd1 O29 2.682 1_665 S
Nd1 O30 2.410 1_655 S
C2 Nd0 2.836 . S
C2 C3 1.498 . S
C2 O20 1.258 1_556 S
C2 O21 1.239 . S
C3 C2 1.498 . S
C3 C4 1.366 1_456 S
C3 C8 1.407 . S
C4 C3 1.366 1_654 S
C4 C5 1.392 . S
C4 H32 0.930 . S
C5 C4 1.392 . S
C5 C6 1.398 1_654 S
C5 H33 0.929 . S
C6 C5 1.398 1_456 S
C6 C7 1.352 . S
C7 C6 1.352 . S
C7 C8 1.384 . S
C7 H34 0.930 . S
C8 C3 1.407 . S
C8 C7 1.384 . S
C8 H35 0.929 . S
C9 O22 1.241 . S
C9 O23 1.273 1_445 S
C10 O24 1.251 1_565 S
C10 O25 1.268 1_556 S
C11 Nd1 2.836 . S
C11 C12 1.498 . S
C11 O26 1.258 1_554 S
C11 O27 1.239 . S
C12 C11 1.498 . S
C12 C13 1.366 1_654 S
C12 C17 1.407 . S
C13 C12 1.366 1_456 S
C13 C14 1.392 . S
C13 H36 0.930 . S
C14 C13 1.392 . S
C14 C15 1.398 1_456 S
C14 H37 0.929 . S
C15 C14 1.398 1_654 S
C15 C16 1.352 . S
C16 C15 1.352 . S
C16 C17 1.384 . S
C16 H38 0.930 . S
C17 C12 1.407 . S
C17 C16 1.384 . S
C17 H39 0.929 . S
C18 O28 1.241 . S
C18 O29 1.273 1_665 S
C19 O30 1.251 1_545 S
C19 O31 1.268 1_554 S
O20 Nd0 2.500 1_554 S
O20 C2 1.258 1_554 S
O21 Nd0 2.492 . S
O21 C2 1.239 . S
O22 Nd0 2.487 . S
O22 C9 1.241 . S
O23 Nd0 2.682 1_665 S
O23 Nd1 2.414 1_556 S
O23 C9 1.273 1_665 S
O24 Nd0 2.410 1_655 S
O24 C10 1.251 1_545 S
O25 Nd1 2.424 . S
O25 C10 1.268 1_554 S
O26 Nd1 2.500 1_556 S
O26 C11 1.258 1_556 S
O27 Nd1 2.492 . S
O27 C11 1.239 . S
O28 Nd1 2.487 . S
O28 C18 1.241 . S
O29 Nd0 2.414 1_554 S
O29 Nd1 2.682 1_445 S
O29 C18 1.273 1_445 S
O30 Nd1 2.410 1_455 S
O30 C19 1.251 1_565 S
O31 Nd0 2.424 . S
O31 C19 1.268 1_556 S
H32 C4 0.930 . S
H33 C5 0.929 . S
H34 C7 0.930 . S
H35 C8 0.929 . S
H36 C13 0.930 . S
H37 C14 0.929 . S
H38 C16 0.930 . S
H39 C17 0.929 . S
C40 C41 1.358 1_465 S
C40 C42 1.419 . S
C40 H44 0.930 . S
C41 C40 1.358 1_645 S
C41 C50 1.442 . S
C42 C40 1.419 . S
C42 C43 1.354 1_465 S
C42 H45 0.929 . S
C43 C42 1.354 1_645 S
C43 C49 1.437 . S
H44 C40 0.930 . S
H45 C42 0.929 . S
S46 N47 1.613 . S
S46 N48 1.610 . S
N47 S46 1.613 . S
N47 C50 1.350 . S
N48 S46 1.610 . S
N48 C49 1.351 . S
C49 C43 1.437 . S
C49 N48 1.351 . S
C49 C50 1.434 . S
C50 C41 1.442 . S
C50 N47 1.350 . S
C50 C49 1.434 . S
C51 C52 1.365 1_544 S
C51 C53 1.419 . S
C51 H55 0.930 . S
C52 C51 1.365 1_566 S
C52 C61 1.444 . S
C53 C51 1.419 . S
C53 C54 1.352 1_544 S
C53 H56 0.929 . S
C54 C53 1.352 1_566 S
C54 C60 1.432 . S
H55 C51 0.930 . S
H56 C53 0.929 . S
S57 N58 1.613 . S
S57 N59 1.610 . S
N58 S57 1.613 . S
N58 C61 1.350 . S
N59 S57 1.610 . S
N59 C60 1.351 . S
C60 C54 1.432 . S
C60 N59 1.351 . S
C60 C61 1.434 . S
C61 C52 1.444 . S
C61 N58 1.350 . S
C61 C60 1.434 . S
C62 C63 1.369 1_656 S
C62 C64 1.419 . S
C62 H66 0.930 . S
C63 C62 1.369 1_454 S
C63 C72 1.429 . S
C64 C62 1.419 . S
C64 C65 1.361 1_656 S
C64 H67 0.929 . S
C65 C64 1.361 1_454 S
C65 C71 1.426 . S
H66 C62 0.930 . S
H67 C64 0.929 . S
S68 N69 1.613 . S
S68 N70 1.610 . S
N69 S68 1.613 . S
N69 C72 1.350 . S
N70 S68 1.610 . S
N70 C71 1.351 . S
C71 C65 1.426 . S
C71 N70 1.351 . S
C71 C72 1.434 . S
C72 C63 1.429 . S
C72 N69 1.350 . S
C72 C71 1.434 . S
C41 C18 1.450 1_545 S
C43 C9 1.453 1_655 S
C52 C19 1.482 1_566 S
C54 C10 1.498 . S
C63 C15 1.498 1_455 S
C65 C6 1.503 1_554 S
