# Generated by pormake.
# Topology pcu, (6)-cn, num edge types: 1
# Building blocks:
#     Node 0, Type 0, BuildingBlock: NUHQIS_clean_sbu_0, # of connection points: 6
#     Edge 1, Type (0, 0), BuildingBlock: TEMPAE_clean_linker_10, # of connection points: 2
#     Edge 2, Type (0, 0), BuildingBlock: TEMPAE_clean_linker_10, # of connection points: 2
#     Edge 3, Type (0, 0), BuildingBlock: TEMPAE_clean_linker_10, # of connection points: 2
# Relax obj value: 0.000
# Max RMSD: 0.000
# Mean RMSD: 0.000
data_MOF--net-pcu--node1-NUHQIS_clean_sbu_0--edge1-TEMPAE_clean_linker_10
_symmetry_space_group_name_H-M    P1
_symmetry_Int_Tables_number       1
_symmetry_cell_setting            triclinic
loop_
_symmetry_equiv_pos_as_xyz
'x, y, z'
_cell_length_a     25.504044
_cell_length_b     15.497407
_cell_length_c     15.397554
_cell_angle_alpha  91.218862
_cell_angle_beta   97.425486
_cell_angle_gamma 122.96945
loop_
_atom_site_label
_atom_site_type_symbol
_atom_site_fract_x
_atom_site_fract_y
_atom_site_fract_z
_atom_type_partial_charge
Tb0 Tb 0.94879 0.91162 0.95813 0.0
Eu1 Eu 0.10592 0.04728 -0.00732 0.0
C2 C 1.02324 0.97641 0.80234 0.0
C3 C 1.0224 0.80025 0.96794 0.0
C4 C 0.78316 0.84177 0.94858 0.0
C5 C 0.67433 0.79497 0.92905 0.0
C6 C 0.7185 0.77065 0.9171 0.0
C7 C 0.80327 0.93769 -0.00736 0.0
C8 C 0.75909 0.96214 0.00475 0.0
C9 C 0.694 0.89113 0.97285 0.0
C10 C 0.82911 0.8162 0.93245 0.0
O11 O 0.98167 0.98114 0.09426 0.0
O12 O 0.07087 0.9785 0.11651 0.0
O13 O 0.08079 0.16212 0.02198 0.0
O14 O 0.97982 0.07069 0.94117 0.0
C15 C 1.02533 0.97865 0.1473 0.0
O16 O 0.19741 0.12031 0.08077 0.0
O17 O 0.1943 0.12524 0.94012 0.0
O18 O 0.07029 0.05696 0.85432 0.0
O19 O 0.97839 0.89701 0.83524 0.0
O20 O 0.97364 0.79987 0.9881 0.0
O21 O 0.07274 0.88412 0.94889 0.0
C22 C 0.03008 0.15715 0.98279 0.0
O23 O 0.86425 0.86607 0.87396 0.0
O24 O 0.86234 0.81172 0.0019 0.0
C25 C 0.27533 0.11288 0.0186 0.0
C26 C 0.36543 0.06038 0.01678 0.0
C27 C 0.38247 0.15454 0.06146 0.0
C28 C 0.33784 0.18058 0.06211 0.0
C29 C 0.25765 0.01772 0.97562 0.0
C30 C 0.30233 -0.00809 0.97443 0.0
C31 C 0.22964 0.14354 0.01615 0.0
H32 H 0.62485 0.73909 0.90238 0.0
H33 H 0.70219 0.69657 0.88234 0.0
H34 H 0.85314 -0.00624 0.01722 0.0
H35 H 0.77589 0.03639 0.03955 0.0
H36 H 0.43074 0.2093 0.0941 0.0
H37 H 0.35238 0.25434 0.0956 0.0
H38 H 0.20947 0.96388 0.94212 0.0
H39 H 0.28746 0.91821 0.94049 0.0
C40 C 0.9821 -0.0055 0.27946 0.0
C41 C 1.02333 0.97636 0.24295 0.0
C42 C 0.98019 -0.00666 0.37017 0.0
C43 C 1.01999 0.97253 0.42548 0.0
C44 C 0.06116 0.95297 0.38887 0.0
C45 C 0.06256 0.95563 0.29814 0.0
C46 C 0.93611 0.01554 0.40697 0.0
C47 C 0.10391 0.92961 0.44565 0.0
C48 C 0.06289 0.0658 0.66964 0.0
C49 C 1.02143 0.97522 0.7058 0.0
C50 C 0.06234 0.0662 0.57845 0.0
C51 C 1.01972 0.97354 0.52202 0.0
C52 C 0.97762 0.88184 0.55797 0.0
C53 C 0.97875 0.88388 0.64946 0.0
C54 C 0.10756 0.16578 0.54252 0.0
C55 C 0.93187 0.78136 0.49986 0.0
H56 H 0.95172 0.01077 0.23732 0.0
H57 H 0.09426 0.94084 0.2704 0.0
H58 H 0.9032 0.94979 0.44138 0.0
H59 H 0.96389 0.08485 0.45633 0.0
H60 H 0.90772 0.02917 0.35496 0.0
H61 H 0.13181 0.91317 0.40658 0.0
H62 H 0.13732 -0.00378 0.496 0.0
H63 H 0.07531 0.86184 0.48132 0.0
H64 H 0.09577 0.13691 0.7126 0.0
H65 H 0.94669 0.81351 0.67689 0.0
H66 H 0.08076 0.18539 0.49355 0.0
H67 H 0.13988 0.1561 0.50791 0.0
H68 H 0.13664 0.23174 0.59507 0.0
H69 H 0.90042 0.79103 0.45006 0.0
H70 H 0.90196 0.71705 0.53805 0.0
H71 H 0.95844 0.75931 0.46351 0.0
C72 C 0.45696 0.05238 0.08807 0.0
C73 C 0.41363 0.03478 0.01268 0.0
C74 C 0.50313 0.0297 0.08462 0.0
C75 C 0.50645 -0.01086 0.00369 0.0
C76 C 0.46288 0.97135 0.92736 0.0
C77 C 0.41695 -0.00598 0.93284 0.0
C78 C 0.5483 0.04897 0.16765 0.0
C79 C 0.46506 0.92893 0.83965 0.0
C80 C 0.66038 0.01676 0.97156 0.0
C81 C 0.64676 0.91746 0.98376 0.0
C82 C 0.61551 0.04149 0.97882 0.0
C83 C 0.55538 0.96512 -0.00133 0.0
C84 C 0.54157 0.86515 0.01209 0.0
C85 C 0.58735 0.84261 0.00458 0.0
C86 C 0.63211 0.14894 0.96386 0.0
C87 C 0.47817 0.78164 0.03372 0.0
H88 H 0.45428 0.08286 0.15017 0.0
H89 H 0.38421 0.98152 0.87406 0.0
H90 H 0.54397 0.97585 0.1826 0.0
H91 H 0.59788 0.10449 0.15806 0.0
H92 H 0.53934 0.08034 0.22539 0.0
H93 H 0.42789 0.91958 0.7865 0.0
H94 H 0.51211 0.98142 0.82029 0.0
H95 H 0.45871 0.85263 0.84507 0.0
H96 H 0.70575 0.07477 0.95434 0.0
H97 H 0.57666 0.76618 0.01551 0.0
H98 H 0.62641 0.18462 0.02208 0.0
H99 H 0.59919 0.14464 0.90663 0.0
H100 H 0.68147 0.20031 0.95133 0.0
H101 H 0.4693 0.80832 0.09426 0.0
H102 H 0.47525 0.70848 0.04387 0.0
H103 H 0.43972 0.76528 0.97955 0.0
C104 C 0.98144 0.62442 0.01633 0.0
C105 C 1.02208 0.70464 0.96961 0.0
C106 C 0.98306 0.53555 0.02165 0.0
C107 C 1.02552 0.52611 0.97789 0.0
C108 C 0.06615 0.60637 0.92984 0.0
C109 C 0.06429 0.69501 0.92689 0.0
C110 C 0.93969 0.45211 0.07458 0.0
C111 C 0.11127 0.5983 0.88097 0.0
C112 C 0.07073 0.33739 0.04523 0.0
C113 C 1.02942 0.25192 0.98238 0.0
C114 C 0.06933 0.42677 0.04553 0.0
C115 C 1.02645 0.43117 0.9804 0.0
C116 C 0.98499 0.34535 0.91648 0.0
C117 C 0.98658 0.25648 0.91874 0.0
C118 C 0.11349 0.51628 0.11564 0.0
C119 C 0.93938 0.34777 0.84504 0.0
H120 H 0.94919 0.63191 0.05024 0.0
H121 H 0.0957 0.7566 0.89039 0.0
H122 H 0.90715 0.37847 0.03123 0.0
H123 H 0.96801 0.43788 0.12606 0.0
H124 H 0.91086 0.47273 0.10691 0.0
H125 H 0.13963 0.66756 0.84656 0.0
H126 H 0.14425 0.58857 0.92748 0.0
H127 H 0.08431 0.52897 0.83159 0.0
H128 H 0.10355 0.33391 0.09497 0.0
H129 H 0.95475 0.19092 0.86957 0.0
H130 H 0.08578 0.53529 0.15249 0.0
H131 H 0.14577 0.58606 0.08459 0.0
H132 H 0.14259 0.49937 0.16315 0.0
H133 H 0.90668 0.36101 0.87488 0.0
H134 H 0.91072 0.27479 0.79977 0.0
H135 H 0.96595 0.41295 0.8058 0.0
loop_
_geom_bond_atom_site_label_1
_geom_bond_atom_site_label_2
_geom_bond_distance
_geom_bond_site_symmetry_2
_ccdc_geom_bond_type
Tb0 C10 2.825 . S
Tb0 O11 2.347 1_556 S
Tb0 O14 2.366 1_565 S
Tb0 O19 2.418 . S
Tb0 O20 2.384 . S
Tb0 O23 2.479 . S
Tb0 O24 2.471 1_556 S
Eu1 O12 2.418 . S
Eu1 O13 2.384 . S
Eu1 O16 2.479 . S
Eu1 O17 2.471 1_554 S
Eu1 O18 2.347 1_554 S
Eu1 O21 2.366 1_545 S
Eu1 C31 2.825 . S
C2 O18 1.259 1_665 S
C2 O19 1.265 . S
C3 O20 1.255 1_554 S
C3 O21 1.265 1_655 S
C4 C6 1.380 . S
C4 C7 1.374 1_566 S
C4 C10 1.507 . S
C5 C6 1.384 . S
C5 C9 1.387 . S
C5 H32 0.930 . S
C6 C4 1.380 . S
C6 C5 1.384 . S
C6 H33 0.931 . S
C7 C4 1.374 1_544 S
C7 C8 1.390 . S
C7 H34 0.930 . S
C8 C7 1.390 . S
C8 C9 1.391 1_544 S
C8 H35 0.930 . S
C9 C5 1.387 . S
C9 C8 1.391 1_566 S
C10 Tb0 2.825 . S
C10 C4 1.507 . S
C10 O23 1.238 . S
C10 O24 1.247 1_556 S
O11 Tb0 2.347 1_554 S
O11 C15 1.259 1_665 S
O12 Eu1 2.418 . S
O12 C15 1.265 . S
O13 Eu1 2.384 . S
O13 C22 1.255 . S
O14 Tb0 2.366 1_545 S
O14 C22 1.265 1_656 S
C15 O11 1.259 1_445 S
C15 O12 1.265 . S
O16 Eu1 2.479 . S
O16 C31 1.238 . S
O17 Eu1 2.471 1_556 S
O17 C31 1.247 1_556 S
O18 Eu1 2.347 1_556 S
O18 C2 1.259 1_445 S
O19 Tb0 2.418 . S
O19 C2 1.265 . S
O20 Tb0 2.384 . S
O20 C3 1.255 1_556 S
O21 Eu1 2.366 1_565 S
O21 C3 1.265 1_455 S
C22 O13 1.255 . S
C22 O14 1.265 1_454 S
O23 Tb0 2.479 . S
O23 C10 1.238 . S
O24 Tb0 2.471 1_554 S
O24 C10 1.247 1_554 S
C25 C28 1.380 . S
C25 C29 1.374 1_544 S
C25 C31 1.507 . S
C26 C27 1.387 . S
C26 C30 1.391 1_544 S
C27 C26 1.387 . S
C27 C28 1.384 . S
C27 H36 0.930 . S
C28 C25 1.380 . S
C28 C27 1.384 . S
C28 H37 0.931 . S
C29 C25 1.374 1_566 S
C29 C30 1.390 . S
C29 H38 0.930 . S
C30 C26 1.391 1_566 S
C30 C29 1.390 . S
C30 H39 0.930 . S
C31 Eu1 2.825 . S
C31 O16 1.238 . S
C31 O17 1.247 1_554 S
C31 C25 1.507 . S
H32 C5 0.930 . S
H33 C6 0.931 . S
H34 C7 0.930 . S
H35 C8 0.930 . S
H36 C27 0.930 . S
H37 C28 0.931 . S
H38 C29 0.930 . S
H39 C30 0.930 . S
C40 C41 1.376 1_655 S
C40 C42 1.394 . S
C40 H56 0.931 . S
C41 C40 1.376 1_455 S
C41 C45 1.389 1_565 S
C42 C40 1.394 . S
C42 C43 1.369 1_655 S
C42 C46 1.531 . S
C43 C42 1.369 1_455 S
C43 C44 1.410 1_565 S
C43 C51 1.503 . S
C44 C43 1.410 1_545 S
C44 C45 1.392 . S
C44 C47 1.511 . S
C45 C41 1.389 1_545 S
C45 C44 1.392 . S
C45 H57 0.929 . S
C46 C42 1.531 . S
C46 H58 0.960 . S
C46 H59 0.962 . S
C46 H60 0.960 . S
C47 C44 1.511 . S
C47 H61 0.961 . S
C47 H62 0.961 . S
C47 H63 0.961 . S
C48 C49 1.360 1_645 S
C48 C50 1.363 . S
C48 H64 0.931 . S
C49 C48 1.360 1_465 S
C49 C53 1.422 . S
C50 C48 1.363 . S
C50 C51 1.370 1_645 S
C50 C54 1.524 . S
C51 C43 1.503 . S
C51 C50 1.370 1_465 S
C51 C52 1.403 . S
C52 C51 1.403 . S
C52 C53 1.404 . S
C52 C55 1.539 . S
C53 C49 1.422 . S
C53 C52 1.404 . S
C53 H65 0.930 . S
C54 C50 1.524 . S
C54 H66 0.956 . S
C54 H67 0.961 1_655 S
C54 H68 0.961 . S
C55 C52 1.539 . S
C55 H69 0.958 1_455 S
C55 H70 0.961 . S
C55 H71 0.960 . S
H56 C40 0.931 . S
H57 C45 0.929 . S
H58 C46 0.960 . S
H59 C46 0.962 . S
H60 C46 0.960 . S
H61 C47 0.961 . S
H62 C47 0.961 . S
H63 C47 0.961 . S
H64 C48 0.931 . S
H65 C53 0.930 . S
H66 C54 0.956 . S
H67 C54 0.961 1_455 S
H68 C54 0.961 . S
H69 C55 0.958 1_655 S
H70 C55 0.961 . S
H71 C55 0.960 . S
C72 C73 1.391 1_554 S
C72 C74 1.394 . S
C72 H88 0.931 . S
C73 C72 1.391 1_556 S
C73 C77 1.376 1_565 S
C74 C72 1.394 . S
C74 C75 1.369 1_554 S
C74 C78 1.531 . S
C75 C74 1.369 1_556 S
C75 C76 1.410 1_565 S
C75 C83 1.503 . S
C76 C75 1.410 1_545 S
C76 C77 1.392 . S
C76 C79 1.511 . S
C77 C73 1.376 1_545 S
C77 C76 1.392 . S
C77 H89 0.929 . S
C78 C74 1.531 . S
C78 H90 0.960 . S
C78 H91 0.962 . S
C78 H92 0.960 . S
C79 C76 1.511 . S
C79 H93 0.961 . S
C79 H94 0.961 . S
C79 H95 0.961 . S
C80 C81 1.370 1_544 S
C80 C82 1.363 . S
C80 H96 0.931 . S
C81 C80 1.370 1_566 S
C81 C85 1.408 . S
C82 C80 1.363 . S
C82 C83 1.370 1_544 S
C82 C86 1.524 . S
C83 C75 1.503 . S
C83 C82 1.370 1_566 S
C83 C84 1.403 . S
C84 C83 1.403 . S
C84 C85 1.404 . S
C84 C87 1.539 . S
C85 C81 1.408 . S
C85 C84 1.404 . S
C85 H97 0.930 . S
C86 C82 1.524 . S
C86 H98 0.956 . S
C86 H99 0.961 . S
C86 H100 0.961 . S
C87 C84 1.539 . S
C87 H101 0.958 . S
C87 H102 0.961 . S
C87 H103 0.960 . S
H88 C72 0.931 . S
H89 C77 0.929 . S
H90 C78 0.960 . S
H91 C78 0.962 . S
H92 C78 0.960 . S
H93 C79 0.961 . S
H94 C79 0.961 . S
H95 C79 0.961 . S
H96 C80 0.931 . S
H97 C85 0.930 . S
H98 C86 0.956 . S
H99 C86 0.961 . S
H100 C86 0.961 . S
H101 C87 0.958 . S
H102 C87 0.961 . S
H103 C87 0.960 . S
C104 C105 1.391 1_554 S
C104 C106 1.394 . S
C104 H120 0.931 . S
C105 C104 1.391 1_556 S
C105 C109 1.376 1_655 S
C106 C104 1.394 . S
C106 C107 1.369 1_554 S
C106 C110 1.531 . S
C107 C106 1.369 1_556 S
C107 C108 1.410 1_655 S
C107 C115 1.503 . S
C108 C107 1.410 1_455 S
C108 C109 1.392 . S
C108 C111 1.511 . S
C109 C105 1.376 1_455 S
C109 C108 1.392 . S
C109 H121 0.929 . S
C110 C106 1.531 . S
C110 H122 0.960 . S
C110 H123 0.962 . S
C110 H124 0.960 . S
C111 C108 1.511 . S
C111 H125 0.961 . S
C111 H126 0.961 . S
C111 H127 0.961 . S
C112 C113 1.370 1_454 S
C112 C114 1.363 . S
C112 H128 0.931 . S
C113 C112 1.370 1_656 S
C113 C117 1.408 . S
C114 C112 1.363 . S
C114 C115 1.370 1_454 S
C114 C118 1.524 . S
C115 C107 1.503 . S
C115 C114 1.370 1_656 S
C115 C116 1.403 . S
C116 C115 1.403 . S
C116 C117 1.404 . S
C116 C119 1.539 . S
C117 C113 1.408 . S
C117 C116 1.404 . S
C117 H129 0.930 . S
C118 C114 1.524 . S
C118 H130 0.956 . S
C118 H131 0.961 . S
C118 H132 0.961 . S
C119 C116 1.539 . S
C119 H133 0.958 . S
C119 H134 0.961 . S
C119 H135 0.960 . S
H120 C104 0.931 . S
H121 C109 0.929 . S
H122 C110 0.960 . S
H123 C110 0.962 . S
H124 C110 0.960 . S
H125 C111 0.961 . S
H126 C111 0.961 . S
H127 C111 0.961 . S
H128 C112 0.931 . S
H129 C117 0.930 . S
H130 C118 0.956 . S
H131 C118 0.961 . S
H132 C118 0.961 . S
H133 C119 0.958 . S
H134 C119 0.961 . S
H135 C119 0.960 . S
C41 C15 1.465 1_565 S
C49 C2 1.466 1_455 S
C73 C26 1.499 1_566 S
C81 C9 1.489 . S
C105 C3 1.493 1_556 S
C113 C22 1.500 1_656 S
