# Generated by pormake.
# Topology uon, (4)-cn, num edge types: 1
# Building blocks:
#     Node 0, Type 0, BuildingBlock: GALJAG_clean_sbu_0, # of connection points: 4
#     Node 1, Type 0, BuildingBlock: GALJAG_clean_sbu_0, # of connection points: 4
#     Node 2, Type 0, BuildingBlock: GALJAG_clean_sbu_0, # of connection points: 4
#     Node 3, Type 0, BuildingBlock: GALJAG_clean_sbu_0, # of connection points: 4
#     Node 4, Type 0, BuildingBlock: GALJAG_clean_sbu_0, # of connection points: 4
#     Node 5, Type 0, BuildingBlock: GALJAG_clean_sbu_0, # of connection points: 4
#     Edge 6, Type (0, 0), BuildingBlock: OJICUG_clean_linker_0, # of connection points: 2
#     Edge 7, Type (0, 0), BuildingBlock: OJICUG_clean_linker_0, # of connection points: 2
#     Edge 8, Type (0, 0), BuildingBlock: OJICUG_clean_linker_0, # of connection points: 2
#     Edge 9, Type (0, 0), BuildingBlock: OJICUG_clean_linker_0, # of connection points: 2
#     Edge 10, Type (0, 0), BuildingBlock: OJICUG_clean_linker_0, # of connection points: 2
#     Edge 11, Type (0, 0), BuildingBlock: OJICUG_clean_linker_0, # of connection points: 2
#     Edge 12, Type (0, 0), BuildingBlock: OJICUG_clean_linker_0, # of connection points: 2
#     Edge 13, Type (0, 0), BuildingBlock: OJICUG_clean_linker_0, # of connection points: 2
#     Edge 14, Type (0, 0), BuildingBlock: OJICUG_clean_linker_0, # of connection points: 2
#     Edge 15, Type (0, 0), BuildingBlock: OJICUG_clean_linker_0, # of connection points: 2
#     Edge 16, Type (0, 0), BuildingBlock: OJICUG_clean_linker_0, # of connection points: 2
#     Edge 17, Type (0, 0), BuildingBlock: OJICUG_clean_linker_0, # of connection points: 2
# Relax obj value: 0.155
# Max RMSD: 0.288
# Mean RMSD: 0.287
data_MOF--net-uon--node1-GALJAG_clean_sbu_0--edge1-OJICUG_clean_linker_0
_symmetry_space_group_name_H-M    P1
_symmetry_Int_Tables_number       1
_symmetry_cell_setting            triclinic
loop_
_symmetry_equiv_pos_as_xyz
'x, y, z'
_cell_length_a     23.805512
_cell_length_b     23.699395
_cell_length_c     16.145501
_cell_angle_alpha  90.029248
_cell_angle_beta   90.314349
_cell_angle_gamma 119.75878
loop_
_atom_site_label
_atom_site_type_symbol
_atom_site_fract_x
_atom_site_fract_y
_atom_site_fract_z
_atom_type_partial_charge
In0 In 0.24036 0.41066 0.13418 0.0
O1 O 0.30713 0.37002 0.16855 0.0
O2 O 0.22232 0.3118 0.09607 0.0
C3 C 0.27774 0.52801 0.20269 0.0
C4 C 0.29463 0.45247 0.98588 0.0
C5 C 0.12135 0.34609 0.19965 0.0
O6 O 0.29011 0.48725 0.23737 0.0
O7 O 0.24793 0.50953 0.13443 0.0
O8 O 0.13019 0.35956 0.12308 0.0
O9 O 0.17241 0.36449 0.242 0.0
C10 C 0.27436 0.31843 0.12627 0.0
O11 O 0.23447 0.43091 0.99632 0.0
O12 O 0.32589 0.45393 0.05007 0.0
In13 In 0.74862 0.1635 0.41478 0.0
O14 O 0.85877 0.22237 0.42643 0.0
O15 O 0.81684 0.18565 0.3072 0.0
C16 C 0.69382 0.15035 0.5629 0.0
C17 C 0.71228 0.24449 0.3467 0.0
C18 C 0.71454 0.0373 0.42112 0.0
O19 O 0.75411 0.18847 0.55302 0.0
O20 O 0.6627 0.12141 0.49825 0.0
O21 O 0.68172 0.05647 0.3795 0.0
O22 O 0.76665 0.08237 0.45146 0.0
C23 C 0.86779 0.21816 0.34978 0.0
O24 O 0.69978 0.19148 0.31158 0.0
O25 O 0.74149 0.25509 0.41535 0.0
In26 In 0.53295 0.76752 0.77664 0.0
O27 O 0.44317 0.77018 0.81747 0.0
O28 O 0.52149 0.85773 0.7736 0.0
C29 C 0.60055 0.77727 0.91681 0.0
C30 C 0.59684 0.82155 0.63402 0.0
C31 C 0.45805 0.63741 0.7605 0.0
O32 O 0.62479 0.78738 0.84542 0.0
O33 O 0.5427 0.76539 0.9184 0.0
O34 O 0.43961 0.67677 0.73963 0.0
O35 O 0.51723 0.66415 0.77983 0.0
C36 C 0.46293 0.82784 0.79522 0.0
O37 O 0.62358 0.83554 0.70442 0.0
O38 O 0.53822 0.77746 0.63458 0.0
In39 In 0.75171 0.58344 0.1313 0.0
O40 O 0.68627 0.62505 0.16719 0.0
O41 O 0.77102 0.68312 0.09593 0.0
C42 C 0.7141 0.46553 0.19745 0.0
C43 C 0.69665 0.54392 0.9821 0.0
C44 C 0.87083 0.64662 0.19811 0.0
O45 O 0.70185 0.50614 0.23262 0.0
O46 O 0.74375 0.48433 0.12962 0.0
O47 O 0.86169 0.63352 0.12129 0.0
O48 O 0.82 0.62849 0.24 0.0
C49 C 0.71946 0.67698 0.12629 0.0
O50 O 0.75677 0.56481 0.99282 0.0
O51 O 0.66577 0.54178 0.0465 0.0
In52 In 0.24393 0.83091 0.41756 0.0
O53 O 0.13397 0.77124 0.428 0.0
O54 O 0.17543 0.80699 0.30899 0.0
C55 C 0.29947 0.84726 0.5666 0.0
C56 C 0.28075 0.74971 0.3519 0.0
C57 C 0.27597 0.95656 0.42087 0.0
O58 O 0.23925 0.80845 0.55634 0.0
O59 O 0.33022 0.87522 0.50185 0.0
O60 O 0.30931 0.93751 0.38068 0.0
O61 O 0.22441 0.91147 0.45143 0.0
C62 C 0.1247 0.7746 0.35109 0.0
O63 O 0.29313 0.80242 0.31634 0.0
O64 O 0.25155 0.73956 0.42001 0.0
In65 In 0.45911 0.23127 0.77164 0.0
O66 O 0.36767 0.1614 0.70066 0.0
O67 O 0.45127 0.22048 0.62972 0.0
C68 C 0.53197 0.36131 0.75423 0.0
C69 C 0.5313 0.17301 0.7889 0.0
C70 C 0.39362 0.22172 0.91275 0.0
O71 O 0.55068 0.32236 0.73266 0.0
O72 O 0.47323 0.334 0.77491 0.0
O73 O 0.36801 0.21034 0.84169 0.0
O74 O 0.4519 0.23489 0.91357 0.0
C75 C 0.39305 0.17547 0.62989 0.0
O76 O 0.47235 0.14211 0.76819 0.0
O77 O 0.55066 0.23075 0.81082 0.0
C78 C 0.26446 0.22733 0.03893 0.0
C79 C 0.30192 0.2789 0.09371 0.0
H80 H 0.26454 0.16857 0.93824 0.0
C81 C 0.36858 0.30099 0.10057 0.0
H82 H 0.21288 0.20876 0.03255 0.0
C83 C 0.39814 0.27713 0.04682 0.0
C84 C 0.36148 0.23142 0.9851 0.0
H85 H 0.39878 0.3407 0.14202 0.0
H86 H 0.45033 0.29894 0.04851 0.0
C87 C 0.29402 0.20429 0.98463 0.0
C88 C 0.9889 0.27809 0.3611 0.0
C89 C 0.93275 0.24992 0.31168 0.0
H90 H 0.09252 0.33005 0.3643 0.0
C91 C 0.93908 0.25307 0.22496 0.0
H92 H 0.98557 0.27642 0.42803 0.0
C93 C 0.00027 0.28432 0.1884 0.0
C94 C 0.05642 0.31241 0.23781 0.0
H95 H 0.89666 0.23197 0.18518 0.0
H96 H 0.00358 0.28635 0.12148 0.0
C97 C 0.05011 0.30869 0.32453 0.0
C98 C 0.72493 0.95534 0.50614 0.0
C99 C 0.68704 0.9701 0.45292 0.0
H100 H 0.72567 0.89601 0.60559 0.0
C101 C 0.62021 0.9261 0.44725 0.0
H102 H 0.77663 0.98789 0.51154 0.0
C103 C 0.59103 0.87269 0.50087 0.0
C104 C 0.62825 0.86304 0.56123 0.0
H105 H 0.58967 0.93612 0.40702 0.0
H106 H 0.53879 0.84284 0.50028 0.0
C107 C 0.69576 0.9027 0.56027 0.0
C108 C 0.73006 0.76908 0.04083 0.0
C109 C 0.69267 0.71768 0.09519 0.0
H110 H 0.72976 0.8285 0.94121 0.0
C111 C 0.6264 0.69687 0.10287 0.0
H112 H 0.78136 0.7867 0.03388 0.0
C113 C 0.59691 0.72171 0.05013 0.0
C114 C 0.63325 0.7671 0.98862 0.0
H115 H 0.59626 0.65734 0.14406 0.0
H116 H 0.54485 0.70081 0.0523 0.0
C117 C 0.70053 0.79306 0.9875 0.0
C118 C 0.9424 0.68375 0.32377 0.0
C119 C 0.93584 0.67989 0.23698 0.0
H120 H 0.00724 0.71629 0.42802 0.0
C121 C 0.99181 0.70765 0.1882 0.0
H122 H 0.90011 0.66261 0.36305 0.0
C123 C 0.05309 0.73889 0.22547 0.0
C124 C 0.05966 0.74236 0.31226 0.0
H125 H 0.98828 0.70547 0.12124 0.0
H126 H 0.09538 0.75986 0.18618 0.0
C127 C 0.0037 0.71436 0.36105 0.0
C128 C 0.29373 0.09232 0.5572 0.0
C129 C 0.36109 0.13305 0.55751 0.0
H130 H 0.21321 0.00547 0.50995 0.0
C131 C 0.39804 0.12351 0.49722 0.0
H132 H 0.26405 0.09893 0.6025 0.0
C133 C 0.36899 0.06918 0.44455 0.0
C134 C 0.30255 0.02418 0.4511 0.0
H135 H 0.45017 0.15421 0.49616 0.0
H136 H 0.39951 0.05934 0.40452 0.0
C137 C 0.26465 0.03878 0.50394 0.0
C138 C 0.2949 0.69474 0.22756 0.0
C139 C 0.29245 0.69956 0.31394 0.0
H140 H 0.29177 0.63603 0.12463 0.0
C141 C 0.29331 0.65118 0.36364 0.0
H142 H 0.294 0.73106 0.18774 0.0
C143 C 0.29326 0.59734 0.32761 0.0
C144 C 0.29085 0.59018 0.24118 0.0
H145 H 0.2916 0.65375 0.43051 0.0
H146 H 0.29112 0.55952 0.36736 0.0
C147 C 0.29336 0.6402 0.19153 0.0
C148 C 0.64421 0.19946 0.75824 0.0
C149 C 0.57762 0.15348 0.75859 0.0
H150 H 0.73427 0.23468 0.69449 0.0
C151 C 0.55481 0.09787 0.70849 0.0
H152 H 0.66341 0.24255 0.79687 0.0
C153 C 0.59529 0.09378 0.64957 0.0
C154 C 0.65926 0.14484 0.64064 0.0
H155 H 0.50401 0.06121 0.70797 0.0
H156 H 0.5748 0.05338 0.6063 0.0
C157 C 0.68485 0.19523 0.6993 0.0
C158 C 0.43322 0.53791 0.83956 0.0
C159 C 0.41102 0.57191 0.7907 0.0
H160 H 0.41266 0.47241 0.94056 0.0
C161 C 0.34472 0.55267 0.79202 0.0
H162 H 0.48377 0.55097 0.83929 0.0
C163 C 0.30389 0.50779 0.85068 0.0
C164 C 0.32901 0.48164 0.90814 0.0
H165 H 0.32599 0.57754 0.75437 0.0
H166 H 0.2548 0.49881 0.85631 0.0
C167 C 0.39256 0.49334 0.89821 0.0
C168 C 0.69806 0.39578 0.32167 0.0
C169 C 0.70136 0.40336 0.23534 0.0
H170 H 0.69928 0.33928 0.42464 0.0
C171 C 0.70008 0.35389 0.18564 0.0
H172 H 0.69924 0.43316 0.3615 0.0
C173 C 0.69883 0.29949 0.22166 0.0
C174 C 0.70036 0.29433 0.30811 0.0
H175 H 0.7024 0.35838 0.1188 0.0
H176 H 0.70068 0.26361 0.18193 0.0
C177 C 0.69831 0.34214 0.35772 0.0
C178 C 0.39849 0.90556 0.65374 0.0
C179 C 0.3344 0.85444 0.64507 0.0
H180 H 0.49018 0.93884 0.71278 0.0
C181 C 0.30903 0.80534 0.70499 0.0
H182 H 0.41879 0.94507 0.60954 0.0
C183 C 0.35 0.80209 0.76489 0.0
C184 C 0.4167 0.84768 0.76481 0.0
H185 H 0.25949 0.76596 0.70047 0.0
H186 H 0.33092 0.75973 0.80447 0.0
C187 C 0.43931 0.90242 0.71359 0.0
C188 C 0.55716 0.46055 0.83449 0.0
C189 C 0.57903 0.42705 0.7844 0.0
H190 H 0.57844 0.52487 0.93743 0.0
C191 C 0.64544 0.44667 0.78512 0.0
H192 H 0.50655 0.44728 0.8346 0.0
C193 C 0.6867 0.49091 0.84474 0.0
C194 C 0.66188 0.51612 0.9036 0.0
H195 H 0.66394 0.42228 0.74641 0.0
H196 H 0.73587 0.49994 0.84997 0.0
C197 C 0.59827 0.50454 0.89405 0.0
loop_
_geom_bond_atom_site_label_1
_geom_bond_atom_site_label_2
_geom_bond_distance
_geom_bond_site_symmetry_2
_ccdc_geom_bond_type
In0 O1 2.294 . S
In0 O2 2.326 . S
In0 O6 2.266 . S
In0 O7 2.326 . S
In0 O8 2.266 . S
In0 O9 2.326 . S
In0 O11 2.294 . S
In0 O12 2.326 . S
O1 In0 2.294 . S
O1 C10 1.240 . S
O2 In0 2.326 . S
O2 C10 1.252 . S
C3 O6 1.252 . S
C3 O7 1.260 . S
C4 O11 1.240 . S
C4 O12 1.252 . S
C5 O8 1.252 . S
C5 O9 1.260 . S
O6 In0 2.266 . S
O6 C3 1.252 . S
O7 In0 2.326 . S
O7 C3 1.260 . S
O8 In0 2.266 . S
O8 C5 1.252 . S
O9 In0 2.326 . S
O9 C5 1.260 . S
C10 O1 1.240 . S
C10 O2 1.252 . S
O11 In0 2.294 . S
O11 C4 1.240 . S
O12 In0 2.326 . S
O12 C4 1.252 . S
In13 O14 2.294 . S
In13 O15 2.326 . S
In13 O19 2.266 . S
In13 O20 2.326 . S
In13 O21 2.266 . S
In13 O22 2.326 . S
In13 O24 2.294 . S
In13 O25 2.326 . S
O14 In13 2.294 . S
O14 C23 1.240 . S
O15 In13 2.326 . S
O15 C23 1.252 . S
C16 O19 1.252 . S
C16 O20 1.260 . S
C17 O24 1.240 . S
C17 O25 1.252 . S
C18 O21 1.252 . S
C18 O22 1.260 . S
O19 In13 2.266 . S
O19 C16 1.252 . S
O20 In13 2.326 . S
O20 C16 1.260 . S
O21 In13 2.266 . S
O21 C18 1.252 . S
O22 In13 2.326 . S
O22 C18 1.260 . S
C23 O14 1.240 . S
C23 O15 1.252 . S
O24 In13 2.294 . S
O24 C17 1.240 . S
O25 In13 2.326 . S
O25 C17 1.252 . S
In26 O27 2.294 . S
In26 O28 2.326 . S
In26 O32 2.266 . S
In26 O33 2.326 . S
In26 O34 2.266 1_556 S
In26 O35 2.326 . S
In26 O37 2.294 . S
In26 O38 2.326 . S
O27 In26 2.294 . S
O27 C36 1.240 . S
O28 In26 2.326 . S
O28 C36 1.252 . S
C29 O32 1.252 . S
C29 O33 1.260 . S
C30 O37 1.240 . S
C30 O38 1.252 . S
C31 O34 1.252 . S
C31 O35 1.260 1_554 S
O32 In26 2.266 . S
O32 C29 1.252 . S
O33 In26 2.326 . S
O33 C29 1.260 . S
O34 In26 2.266 1_554 S
O34 C31 1.252 . S
O35 In26 2.326 . S
O35 C31 1.260 1_556 S
C36 O27 1.240 . S
C36 O28 1.252 . S
O37 In26 2.294 . S
O37 C30 1.240 . S
O38 In26 2.326 . S
O38 C30 1.252 . S
In39 O40 2.294 . S
In39 O41 2.326 1_554 S
In39 O45 2.266 . S
In39 O46 2.326 . S
In39 O47 2.266 1_554 S
In39 O48 2.326 . S
In39 O50 2.294 1_554 S
In39 O51 2.326 1_554 S
O40 In39 2.294 . S
O40 C49 1.240 1_554 S
O41 In39 2.326 1_556 S
O41 C49 1.252 . S
C42 O45 1.252 . S
C42 O46 1.260 . S
C43 O50 1.240 . S
C43 O51 1.252 . S
C44 O47 1.252 1_554 S
C44 O48 1.260 . S
O45 In39 2.266 . S
O45 C42 1.252 . S
O46 In39 2.326 . S
O46 C42 1.260 . S
O47 In39 2.266 1_556 S
O47 C44 1.252 1_556 S
O48 In39 2.326 . S
O48 C44 1.260 . S
C49 O40 1.240 1_556 S
C49 O41 1.252 . S
O50 In39 2.294 1_556 S
O50 C43 1.240 . S
O51 In39 2.326 1_556 S
O51 C43 1.252 . S
In52 O53 2.294 . S
In52 O54 2.326 . S
In52 O58 2.266 . S
In52 O59 2.326 . S
In52 O60 2.266 . S
In52 O61 2.326 . S
In52 O63 2.294 . S
In52 O64 2.326 . S
O53 In52 2.294 . S
O53 C62 1.240 . S
O54 In52 2.326 . S
O54 C62 1.252 . S
C55 O58 1.252 . S
C55 O59 1.260 . S
C56 O63 1.240 . S
C56 O64 1.252 . S
C57 O60 1.252 . S
C57 O61 1.260 . S
O58 In52 2.266 . S
O58 C55 1.252 . S
O59 In52 2.326 . S
O59 C55 1.260 . S
O60 In52 2.266 . S
O60 C57 1.252 . S
O61 In52 2.326 . S
O61 C57 1.260 . S
C62 O53 1.240 . S
C62 O54 1.252 . S
O63 In52 2.294 . S
O63 C56 1.240 . S
O64 In52 2.326 . S
O64 C56 1.252 . S
In65 O66 2.294 . S
In65 O67 2.326 . S
In65 O71 2.266 . S
In65 O72 2.326 . S
In65 O73 2.266 . S
In65 O74 2.326 . S
In65 O76 2.294 . S
In65 O77 2.326 . S
O66 In65 2.294 . S
O66 C75 1.240 . S
O67 In65 2.326 . S
O67 C75 1.252 . S
C68 O71 1.252 . S
C68 O72 1.260 . S
C69 O76 1.240 . S
C69 O77 1.252 . S
C70 O73 1.252 . S
C70 O74 1.260 . S
O71 In65 2.266 . S
O71 C68 1.252 . S
O72 In65 2.326 . S
O72 C68 1.260 . S
O73 In65 2.266 . S
O73 C70 1.252 . S
O74 In65 2.326 . S
O74 C70 1.260 . S
C75 O66 1.240 . S
C75 O67 1.252 . S
O76 In65 2.294 . S
O76 C69 1.240 . S
O77 In65 2.326 . S
O77 C69 1.252 . S
C78 C79 1.387 1_556 S
C78 H82 0.950 1_556 S
C78 C87 1.390 . S
C79 C78 1.387 1_554 S
C79 C81 1.387 1_554 S
H80 C87 0.950 . S
C81 C79 1.387 1_556 S
C81 C83 1.390 . S
C81 H85 0.950 1_556 S
H82 C78 0.950 1_554 S
C83 C81 1.390 . S
C83 C84 1.387 . S
C83 H86 0.950 . S
C84 C83 1.387 . S
C84 C87 1.387 . S
H85 C81 0.950 1_554 S
H86 C83 0.950 . S
C87 C78 1.390 . S
C87 H80 0.950 . S
C87 C84 1.387 . S
C88 C89 1.387 . S
C88 H92 0.950 . S
C88 C97 1.390 1_655 S
C89 C88 1.387 . S
C89 C91 1.387 . S
H90 C97 0.950 . S
C91 C89 1.387 . S
C91 C93 1.390 1_655 S
C91 H95 0.950 . S
H92 C88 0.950 . S
C93 C91 1.390 1_455 S
C93 C94 1.387 . S
C93 H96 0.950 . S
C94 C93 1.387 . S
C94 C97 1.387 . S
H95 C91 0.950 . S
H96 C93 0.950 . S
C97 C88 1.390 1_455 S
C97 H90 0.950 . S
C97 C94 1.387 . S
C98 C99 1.387 . S
C98 H102 0.950 . S
C98 C107 1.390 . S
C99 C98 1.387 . S
C99 C101 1.387 1_545 S
H100 C107 0.950 . S
C101 C99 1.387 1_565 S
C101 C103 1.390 . S
C101 H105 0.950 . S
H102 C98 0.950 . S
C103 C101 1.390 . S
C103 C104 1.387 . S
C103 H106 0.950 . S
C104 C103 1.387 . S
C104 C107 1.387 1_565 S
H105 C101 0.950 . S
H106 C103 0.950 . S
C107 C98 1.390 . S
C107 H100 0.950 . S
C107 C104 1.387 1_545 S
C108 C109 1.387 . S
C108 H112 0.950 . S
C108 C117 1.390 . S
C109 C108 1.387 . S
C109 C111 1.387 1_556 S
H110 C117 0.950 . S
C111 C109 1.387 1_554 S
C111 C113 1.390 1_554 S
C111 H115 0.950 . S
H112 C108 0.950 . S
C113 C111 1.390 1_556 S
C113 C114 1.387 . S
C113 H116 0.950 1_556 S
C114 C113 1.387 . S
C114 C117 1.387 . S
H115 C111 0.950 . S
H116 C113 0.950 1_554 S
C117 C108 1.390 . S
C117 H110 0.950 . S
C117 C114 1.387 . S
C118 C119 1.387 . S
C118 H122 0.950 . S
C118 C127 1.390 . S
C119 C118 1.387 . S
C119 C121 1.387 1_655 S
H120 C127 0.950 . S
C121 C119 1.387 1_455 S
C121 C123 1.390 . S
C121 H125 0.950 . S
H122 C118 0.950 . S
C123 C121 1.390 . S
C123 C124 1.387 . S
C123 H126 0.950 . S
C124 C123 1.387 . S
C124 C127 1.387 1_455 S
H125 C121 0.950 . S
H126 C123 0.950 . S
C127 C118 1.390 . S
C127 H120 0.950 . S
C127 C124 1.387 1_655 S
C128 C129 1.387 . S
C128 H132 0.950 . S
C128 C137 1.390 1_545 S
C129 C128 1.387 . S
C129 C131 1.387 . S
H130 C137 0.950 . S
C131 C129 1.387 . S
C131 C133 1.390 1_545 S
C131 H135 0.950 . S
H132 C128 0.950 . S
C133 C131 1.390 1_565 S
C133 C134 1.387 . S
C133 H136 0.950 . S
C134 C133 1.387 . S
C134 C137 1.387 . S
H135 C131 0.950 . S
H136 C133 0.950 . S
C137 C128 1.390 1_565 S
C137 H130 0.950 . S
C137 C134 1.387 . S
C138 C139 1.387 . S
C138 H142 0.950 . S
C138 C147 1.390 . S
C139 C138 1.387 . S
C139 C141 1.387 . S
H140 C147 0.950 . S
C141 C139 1.387 . S
C141 C143 1.390 . S
C141 H145 0.950 . S
H142 C138 0.950 . S
C143 C141 1.390 . S
C143 C144 1.387 . S
C143 H146 0.950 . S
C144 C143 1.387 . S
C144 C147 1.387 . S
H145 C141 0.950 . S
H146 C143 0.950 . S
C147 C138 1.390 . S
C147 H140 0.950 . S
C147 C144 1.387 . S
C148 C149 1.387 . S
C148 H152 0.950 . S
C148 C157 1.390 . S
C149 C148 1.387 . S
C149 C151 1.387 . S
H150 C157 0.950 . S
C151 C149 1.387 . S
C151 C153 1.390 . S
C151 H155 0.950 . S
H152 C148 0.950 . S
C153 C151 1.390 . S
C153 C154 1.387 . S
C153 H156 0.950 . S
C154 C153 1.387 . S
C154 C157 1.387 . S
H155 C151 0.950 . S
H156 C153 0.950 . S
C157 C148 1.390 . S
C157 H150 0.950 . S
C157 C154 1.387 . S
C158 C159 1.387 . S
C158 H162 0.950 . S
C158 C167 1.390 . S
C159 C158 1.387 . S
C159 C161 1.387 . S
H160 C167 0.950 . S
C161 C159 1.387 . S
C161 C163 1.390 . S
C161 H165 0.950 1_554 S
H162 C158 0.950 . S
C163 C161 1.390 . S
C163 C164 1.387 . S
C163 H166 0.950 1_554 S
C164 C163 1.387 . S
C164 C167 1.387 . S
H165 C161 0.950 1_556 S
H166 C163 0.950 1_556 S
C167 C158 1.390 . S
C167 H160 0.950 . S
C167 C164 1.387 . S
C168 C169 1.387 . S
C168 H172 0.950 . S
C168 C177 1.390 . S
C169 C168 1.387 . S
C169 C171 1.387 . S
H170 C177 0.950 . S
C171 C169 1.387 . S
C171 C173 1.390 . S
C171 H175 0.950 . S
H172 C168 0.950 . S
C173 C171 1.390 . S
C173 C174 1.387 . S
C173 H176 0.950 . S
C174 C173 1.387 . S
C174 C177 1.387 . S
H175 C171 0.950 . S
H176 C173 0.950 . S
C177 C168 1.390 . S
C177 H170 0.950 . S
C177 C174 1.387 . S
C178 C179 1.387 . S
C178 H182 0.950 . S
C178 C187 1.390 . S
C179 C178 1.387 . S
C179 C181 1.387 . S
H180 C187 0.950 . S
C181 C179 1.387 . S
C181 C183 1.390 . S
C181 H185 0.950 . S
H182 C178 0.950 . S
C183 C181 1.390 . S
C183 C184 1.387 . S
C183 H186 0.950 . S
C184 C183 1.387 . S
C184 C187 1.387 . S
H185 C181 0.950 . S
H186 C183 0.950 . S
C187 C178 1.390 . S
C187 H180 0.950 . S
C187 C184 1.387 . S
C188 C189 1.387 . S
C188 H192 0.950 . S
C188 C197 1.390 . S
C189 C188 1.387 . S
C189 C191 1.387 . S
H190 C197 0.950 . S
C191 C189 1.387 . S
C191 C193 1.390 . S
C191 H195 0.950 . S
H192 C188 0.950 . S
C193 C191 1.390 . S
C193 C194 1.387 . S
C193 H196 0.950 . S
C194 C193 1.387 . S
C194 C197 1.387 . S
H195 C191 0.950 . S
H196 C193 0.950 . S
C197 C188 1.390 . S
C197 H190 0.950 . S
C197 C194 1.387 . S
C79 C10 2.084 . S
C84 C70 2.079 . S
C89 C23 1.392 . S
C94 C5 1.396 . S
C99 C18 2.083 . S
C104 C30 2.087 . S
C109 C49 1.392 . S
C114 C29 1.395 . S
C119 C44 2.083 . S
C124 C62 2.086 . S
C129 C75 1.394 . S
C134 C57 1.397 . S
C139 C56 1.706 . S
C144 C3 1.517 . S
C149 C69 1.529 . S
C154 C16 1.693 . S
C159 C31 1.515 . S
C164 C4 1.705 . S
C169 C42 1.693 . S
C174 C17 1.530 . S
C179 C55 1.516 . S
C184 C36 1.705 . S
C189 C68 1.692 . S
C194 C43 1.529 . S
