# Generated by pormake.
# Topology uog, (4)-cn, num edge types: 1
# Building blocks:
#     Node 0, Type 0, BuildingBlock: CEKHIL_clean_sbu_0, # of connection points: 4
#     Node 1, Type 0, BuildingBlock: CEKHIL_clean_sbu_0, # of connection points: 4
#     Node 2, Type 0, BuildingBlock: CEKHIL_clean_sbu_0, # of connection points: 4
#     Node 3, Type 0, BuildingBlock: CEKHIL_clean_sbu_0, # of connection points: 4
#     Node 4, Type 0, BuildingBlock: CEKHIL_clean_sbu_0, # of connection points: 4
#     Node 5, Type 0, BuildingBlock: CEKHIL_clean_sbu_0, # of connection points: 4
#     Edge 6, Type (0, 0), BuildingBlock: AJUNOK_clean_linker_0, # of connection points: 2
#     Edge 7, Type (0, 0), BuildingBlock: AJUNOK_clean_linker_0, # of connection points: 2
#     Edge 8, Type (0, 0), BuildingBlock: AJUNOK_clean_linker_0, # of connection points: 2
#     Edge 9, Type (0, 0), BuildingBlock: AJUNOK_clean_linker_0, # of connection points: 2
#     Edge 10, Type (0, 0), BuildingBlock: AJUNOK_clean_linker_0, # of connection points: 2
#     Edge 11, Type (0, 0), BuildingBlock: AJUNOK_clean_linker_0, # of connection points: 2
#     Edge 12, Type (0, 0), BuildingBlock: AJUNOK_clean_linker_0, # of connection points: 2
#     Edge 13, Type (0, 0), BuildingBlock: AJUNOK_clean_linker_0, # of connection points: 2
#     Edge 14, Type (0, 0), BuildingBlock: AJUNOK_clean_linker_0, # of connection points: 2
#     Edge 15, Type (0, 0), BuildingBlock: AJUNOK_clean_linker_0, # of connection points: 2
#     Edge 16, Type (0, 0), BuildingBlock: AJUNOK_clean_linker_0, # of connection points: 2
#     Edge 17, Type (0, 0), BuildingBlock: AJUNOK_clean_linker_0, # of connection points: 2
# Relax obj value: 0.070
# Max RMSD: 0.166
# Mean RMSD: 0.166
data_MOF--net-uog--node1-CEKHIL_clean_sbu_0--edge1-AJUNOK_clean_linker_0
_symmetry_space_group_name_H-M    P1
_symmetry_Int_Tables_number       1
_symmetry_cell_setting            triclinic
loop_
_symmetry_equiv_pos_as_xyz
'x, y, z'
_cell_length_a     20.953933
_cell_length_b     20.980246
_cell_length_c     30.786336
_cell_angle_alpha  89.805224
_cell_angle_beta   89.962597
_cell_angle_gamma 119.9085
loop_
_atom_site_label
_atom_site_type_symbol
_atom_site_fract_x
_atom_site_fract_y
_atom_site_fract_z
_atom_type_partial_charge
Co0 Co 0.5931 0.26771 0.17509 0.0
O1 O 0.61525 0.18963 0.17217 0.0
O2 O 0.50934 0.17801 0.15163 0.0
C3 C 0.63272 0.2982 0.24376 0.0
O4 O 0.55588 0.34281 0.17539 0.0
Co5 Co 0.72601 0.42017 0.18038 0.0
O6 O 0.65384 0.45117 0.19374 0.0
C7 C 0.68471 0.35205 0.09537 0.0
C8 C 0.55081 0.14817 0.15616 0.0
C9 C 0.58555 0.41189 0.18566 0.0
O10 O 0.63142 0.29755 0.11468 0.0
O11 O 0.73279 0.4088 0.11571 0.0
O12 O 0.56644 0.24675 0.23518 0.0
O13 O 0.67689 0.32549 0.21055 0.0
Co14 Co 0.32521 0.60123 0.49879 0.0
O15 O 0.42594 0.62432 0.49554 0.0
O16 O 0.33188 0.5151 0.48088 0.0
C17 C 0.33495 0.65123 0.56407 0.0
O18 O 0.21278 0.56198 0.50055 0.0
Co19 Co 0.30032 0.73222 0.49633 0.0
O20 O 0.19925 0.65992 0.51419 0.0
C21 C 0.32071 0.67605 0.41403 0.0
C22 C 0.4032 0.55744 0.48397 0.0
C23 C 0.17209 0.59099 0.50933 0.0
O24 O 0.32844 0.62887 0.43637 0.0
O25 O 0.31169 0.72613 0.43165 0.0
O26 O 0.32295 0.5848 0.56023 0.0
O27 O 0.35034 0.68984 0.52853 0.0
Co28 Co 0.7416 0.33518 0.84138 0.0
O29 O 0.81945 0.43571 0.84142 0.0
O30 O 0.83308 0.34403 0.81838 0.0
C31 C 0.70452 0.33541 0.9095 0.0
O32 O 0.6681 0.22293 0.83884 0.0
Co33 Co 0.58688 0.31265 0.84522 0.0
O34 O 0.55505 0.20761 0.85115 0.0
C35 C 0.65951 0.34424 0.76104 0.0
C36 C 0.86245 0.41464 0.82505 0.0
C37 C 0.59757 0.18159 0.84473 0.0
O38 O 0.71483 0.34802 0.78091 0.0
O39 O 0.60102 0.33266 0.78082 0.0
O40 O 0.75837 0.32371 0.9014 0.0
O41 O 0.68005 0.35643 0.87681 0.0
Co42 Co 0.41454 0.71522 0.16596 0.0
O43 O 0.39259 0.79353 0.16453 0.0
O44 O 0.50192 0.8086 0.14951 0.0
C45 C 0.36233 0.67199 0.23074 0.0
O46 O 0.45237 0.64082 0.16637 0.0
Co47 Co 0.28241 0.56293 0.15939 0.0
O48 O 0.35192 0.52828 0.17258 0.0
C49 C 0.33838 0.64657 0.07967 0.0
C50 C 0.45971 0.83776 0.15323 0.0
C51 C 0.42141 0.56997 0.17112 0.0
O52 O 0.38853 0.69617 0.1032 0.0
O53 O 0.28593 0.58727 0.09576 0.0
O54 O 0.42956 0.72505 0.22733 0.0
O55 O 0.32419 0.65167 0.19504 0.0
Co56 Co 0.699 0.42167 0.50604 0.0
O57 O 0.59918 0.40087 0.50381 0.0
O58 O 0.69318 0.50527 0.48136 0.0
C59 C 0.69254 0.38459 0.57523 0.0
O60 O 0.81054 0.45676 0.50541 0.0
Co61 Co 0.71442 0.2852 0.51471 0.0
O62 O 0.82012 0.35676 0.52126 0.0
C63 C 0.68754 0.32503 0.42862 0.0
C64 C 0.62202 0.46475 0.48684 0.0
C65 C 0.84924 0.42508 0.5128 0.0
O66 O 0.68938 0.38108 0.44613 0.0
O67 O 0.69086 0.27506 0.45076 0.0
O68 O 0.70745 0.45075 0.56597 0.0
O69 O 0.6728 0.33924 0.54281 0.0
Co70 Co 0.29505 0.70984 0.83168 0.0
O71 O 0.2162 0.61013 0.82879 0.0
O72 O 0.20284 0.70557 0.81402 0.0
C73 C 0.33425 0.69791 0.897 0.0
O74 O 0.37051 0.8217 0.8332 0.0
Co75 Co 0.44874 0.72942 0.82895 0.0
O76 O 0.47985 0.8304 0.84775 0.0
C77 C 0.37001 0.70469 0.74729 0.0
C78 C 0.17311 0.63416 0.81697 0.0
C79 C 0.43992 0.85986 0.84314 0.0
O80 O 0.31825 0.70457 0.76931 0.0
O81 O 0.42823 0.71122 0.76489 0.0
O82 O 0.28155 0.71266 0.89309 0.0
O83 O 0.35652 0.68167 0.86149 0.0
C84 C 0.45278 0.01563 0.15097 0.0
C85 C 0.52691 0.06999 0.14693 0.0
C86 C 0.43188 0.94079 0.1511 0.0
C87 C 0.48419 0.91716 0.14704 0.0
H88 H 0.41109 0.03089 0.15647 0.0
H89 H 0.37415 0.90124 0.15606 0.0
S90 S 0.68415 0.03807 0.12812 0.0
N91 N 0.65199 0.09528 0.13324 0.0
N92 N 0.61233 0.95467 0.13366 0.0
C93 C 0.5578 0.9709 0.13981 0.0
C94 C 0.5792 0.04722 0.13973 0.0
C95 C 0.53403 0.58472 0.47994 0.0
C96 C 0.45795 0.53266 0.47745 0.0
C97 C 0.58781 0.56332 0.47989 0.0
C98 C 0.56766 0.48892 0.47756 0.0
H99 H 0.55245 0.64267 0.48359 0.0
H100 H 0.64501 0.60495 0.48413 0.0
S101 S 0.37743 0.33164 0.46392 0.0
N102 N 0.36649 0.4041 0.46779 0.0
N103 N 0.46692 0.36352 0.46752 0.0
C104 C 0.49225 0.43672 0.47205 0.0
C105 C 0.43758 0.45861 0.47202 0.0
C106 C 0.96535 0.54559 0.82382 0.0
C107 C 0.94099 0.47033 0.81641 0.0
C108 C 0.04008 0.59967 0.82092 0.0
C109 C 0.09362 0.58068 0.81068 0.0
H110 H 0.92667 0.56297 0.83347 0.0
H111 H 0.05628 0.65591 0.8291 0.0
S112 S 0.05865 0.39399 0.78176 0.0
N113 N 0.97634 0.38158 0.79362 0.0
N114 N 0.11658 0.48274 0.78808 0.0
C115 C 0.06968 0.50653 0.80036 0.0
C116 C 0.99352 0.4515 0.80323 0.0
C117 C 0.0483 0.57927 0.52382 0.0
C118 C 0.08983 0.54574 0.51132 0.0
C119 C 0.97092 0.54102 0.52325 0.0
C120 C 0.93129 0.46713 0.51069 0.0
H121 H 0.07565 0.63616 0.53405 0.0
H122 H 0.94202 0.56921 0.53348 0.0
S123 S 0.01188 0.35365 0.47331 0.0
N124 N 0.08409 0.43414 0.48483 0.0
N125 N 0.93918 0.36196 0.48403 0.0
C126 C 0.97177 0.43272 0.498 0.0
C127 C 0.05066 0.47189 0.49834 0.0
C128 C 0.45075 0.98228 0.82511 0.0
C129 C 0.47882 0.94194 0.8461 0.0
C130 C 0.49082 0.0596 0.82394 0.0
C131 C 0.56097 0.10001 0.84333 0.0
H132 H 0.3981 0.95406 0.80872 0.0
H133 H 0.46664 0.08815 0.80745 0.0
S134 S 0.65647 0.02201 0.90624 0.0
N135 N 0.57967 0.94948 0.88976 0.0
N136 N 0.65451 0.09425 0.88647 0.0
C137 C 0.58929 0.06078 0.86497 0.0
C138 C 0.54829 0.98207 0.86672 0.0
C139 C 0.43558 0.4592 0.1598 0.0
C140 C 0.4657 0.53239 0.17454 0.0
C141 C 0.47317 0.4197 0.16457 0.0
C142 C 0.54244 0.45136 0.18467 0.0
H143 H 0.38239 0.43208 0.14398 0.0
H144 H 0.44818 0.36445 0.15171 0.0
S145 S 0.64269 0.63961 0.23234 0.0
N146 N 0.56714 0.63356 0.21183 0.0
N147 N 0.63772 0.56014 0.22188 0.0
C148 C 0.5724 0.52425 0.20053 0.0
C149 C 0.53429 0.56456 0.19509 0.0
C150 C 0.70855 0.40527 0.97558 0.0
C151 C 0.68514 0.33742 0.95505 0.0
C152 C 0.70984 0.41037 0.02119 0.0
C153 C 0.68731 0.34762 0.04746 0.0
H154 H 0.72949 0.45512 0.95638 0.0
H155 H 0.72861 0.4636 0.03592 0.0
S156 S 0.62152 0.15732 0.00866 0.0
N157 N 0.63958 0.20688 0.96383 0.0
N158 N 0.64027 0.21544 0.04913 0.0
C159 C 0.6623 0.27929 0.02695 0.0
C160 C 0.66172 0.27448 0.98083 0.0
C161 C 0.349 0.61653 0.30272 0.0
C162 C 0.32973 0.65618 0.27419 0.0
C163 C 0.34412 0.62229 0.34769 0.0
C164 C 0.32116 0.66928 0.36597 0.0
H165 H 0.3725 0.58443 0.29024 0.0
H166 H 0.36172 0.59186 0.36818 0.0
S167 S 0.26088 0.78207 0.30405 0.0
N168 N 0.28386 0.7413 0.26633 0.0
N169 N 0.27427 0.75255 0.35112 0.0
C170 C 0.29861 0.70686 0.33747 0.0
C171 C 0.30297 0.70018 0.29152 0.0
C172 C 0.73524 0.3937 0.69393 0.0
C173 C 0.6652 0.35139 0.7131 0.0
C174 C 0.74406 0.39987 0.6488 0.0
C175 C 0.68365 0.36229 0.62104 0.0
H176 H 0.78367 0.42382 0.71399 0.0
H177 H 0.79837 0.436 0.63546 0.0
S178 S 0.48918 0.2425 0.65402 0.0
N179 N 0.53438 0.26994 0.70042 0.0
N180 N 0.55165 0.28105 0.61521 0.0
C181 C 0.61362 0.31831 0.63941 0.0
C182 C 0.60421 0.31305 0.68555 0.0
C183 C 0.31487 0.61287 0.9578 0.0
C184 C 0.35248 0.68456 0.94065 0.0
C185 C 0.3107 0.60058 0.00286 0.0
C186 C 0.34404 0.65974 0.03208 0.0
H187 H 0.28465 0.56638 0.93642 0.0
H188 H 0.27997 0.54459 0.01484 0.0
S189 S 0.45037 0.8582 0.00231 0.0
N190 N 0.4243 0.81495 0.95538 0.0
N191 N 0.41803 0.79309 0.03984 0.0
C192 C 0.38416 0.73171 0.01484 0.0
C193 C 0.3879 0.7438 0.96915 0.0
C194 C 0.64379 0.25052 0.36074 0.0
C195 C 0.68182 0.3196 0.38066 0.0
C196 C 0.63133 0.24466 0.31588 0.0
C197 C 0.65788 0.30753 0.28915 0.0
H198 H 0.62071 0.20068 0.38011 0.0
H199 H 0.59895 0.19025 0.3021 0.0
S200 S 0.76718 0.50099 0.32444 0.0
N201 N 0.75064 0.45253 0.36967 0.0
N202 N 0.72783 0.4405 0.28506 0.0
C203 C 0.69948 0.37675 0.30809 0.0
C204 C 0.71117 0.38301 0.35396 0.0
C205 C 0.42187 0.7288 0.67157 0.0
C206 C 0.36046 0.6974 0.69956 0.0
C207 C 0.41302 0.72086 0.62631 0.0
C208 C 0.34261 0.68116 0.6078 0.0
H209 H 0.47707 0.7585 0.6847 0.0
H210 H 0.46158 0.74185 0.60591 0.0
S211 S 0.16429 0.58875 0.66618 0.0
N212 N 0.22654 0.62635 0.70488 0.0
N213 N 0.21097 0.61084 0.6201 0.0
C214 C 0.28098 0.65143 0.63514 0.0
C215 C 0.28961 0.65976 0.68099 0.0
loop_
_geom_bond_atom_site_label_1
_geom_bond_atom_site_label_2
_geom_bond_distance
_geom_bond_site_symmetry_2
_ccdc_geom_bond_type
Co0 O1 2.216 . S
Co0 O2 2.091 . S
Co0 O4 2.004 . S
Co0 O10 2.021 . S
Co0 O12 2.137 . S
Co0 O13 2.244 . S
O1 Co0 2.216 . S
O1 C8 1.247 . S
O2 Co0 2.091 . S
O2 C8 1.261 . S
C3 O12 1.247 . S
C3 O13 1.272 . S
O4 Co0 2.004 . S
O4 C9 1.259 . S
Co5 O6 2.061 . S
Co5 O11 2.052 . S
Co5 O13 2.135 . S
O6 Co5 2.061 . S
O6 C9 1.235 . S
C7 O10 1.238 . S
C7 O11 1.241 . S
C8 O1 1.247 . S
C8 O2 1.261 . S
C9 O4 1.259 . S
C9 O6 1.235 . S
O10 Co0 2.021 . S
O10 C7 1.238 . S
O11 Co5 2.052 . S
O11 C7 1.241 . S
O12 Co0 2.137 . S
O12 C3 1.247 . S
O13 Co0 2.244 . S
O13 C3 1.272 . S
O13 Co5 2.135 . S
Co14 O15 2.216 . S
Co14 O16 2.091 . S
Co14 O18 2.004 . S
Co14 O24 2.021 . S
Co14 O26 2.137 . S
Co14 O27 2.244 . S
O15 Co14 2.216 . S
O15 C22 1.247 . S
O16 Co14 2.091 . S
O16 C22 1.261 . S
C17 O26 1.247 . S
C17 O27 1.272 . S
O18 Co14 2.004 . S
O18 C23 1.259 . S
Co19 O20 2.061 . S
Co19 O25 2.052 . S
Co19 O27 2.135 . S
O20 Co19 2.061 . S
O20 C23 1.235 . S
C21 O24 1.238 . S
C21 O25 1.241 . S
C22 O15 1.247 . S
C22 O16 1.261 . S
C23 O18 1.259 . S
C23 O20 1.235 . S
O24 Co14 2.021 . S
O24 C21 1.238 . S
O25 Co19 2.052 . S
O25 C21 1.241 . S
O26 Co14 2.137 . S
O26 C17 1.247 . S
O27 Co14 2.244 . S
O27 C17 1.272 . S
O27 Co19 2.135 . S
Co28 O29 2.216 . S
Co28 O30 2.091 . S
Co28 O32 2.004 . S
Co28 O38 2.021 . S
Co28 O40 2.137 . S
Co28 O41 2.244 . S
O29 Co28 2.216 . S
O29 C36 1.247 . S
O30 Co28 2.091 . S
O30 C36 1.261 . S
C31 O40 1.247 . S
C31 O41 1.272 . S
O32 Co28 2.004 . S
O32 C37 1.259 . S
Co33 O34 2.061 . S
Co33 O39 2.052 . S
Co33 O41 2.135 . S
O34 Co33 2.061 . S
O34 C37 1.235 . S
C35 O38 1.238 . S
C35 O39 1.241 . S
C36 O29 1.247 . S
C36 O30 1.261 . S
C37 O32 1.259 . S
C37 O34 1.235 . S
O38 Co28 2.021 . S
O38 C35 1.238 . S
O39 Co33 2.052 . S
O39 C35 1.241 . S
O40 Co28 2.137 . S
O40 C31 1.247 . S
O41 Co28 2.244 . S
O41 C31 1.272 . S
O41 Co33 2.135 . S
Co42 O43 2.216 . S
Co42 O44 2.091 . S
Co42 O46 2.004 . S
Co42 O52 2.021 . S
Co42 O54 2.137 . S
Co42 O55 2.244 . S
O43 Co42 2.216 . S
O43 C50 1.247 . S
O44 Co42 2.091 . S
O44 C50 1.261 . S
C45 O54 1.247 . S
C45 O55 1.272 . S
O46 Co42 2.004 . S
O46 C51 1.259 . S
Co47 O48 2.061 . S
Co47 O53 2.052 . S
Co47 O55 2.135 . S
O48 Co47 2.061 . S
O48 C51 1.235 . S
C49 O52 1.238 . S
C49 O53 1.241 . S
C50 O43 1.247 . S
C50 O44 1.261 . S
C51 O46 1.259 . S
C51 O48 1.235 . S
O52 Co42 2.021 . S
O52 C49 1.238 . S
O53 Co47 2.052 . S
O53 C49 1.241 . S
O54 Co42 2.137 . S
O54 C45 1.247 . S
O55 Co42 2.244 . S
O55 C45 1.272 . S
O55 Co47 2.135 . S
Co56 O57 2.216 . S
Co56 O58 2.091 . S
Co56 O60 2.004 . S
Co56 O66 2.021 . S
Co56 O68 2.137 . S
Co56 O69 2.244 . S
O57 Co56 2.216 . S
O57 C64 1.247 . S
O58 Co56 2.091 . S
O58 C64 1.261 . S
C59 O68 1.247 . S
C59 O69 1.272 . S
O60 Co56 2.004 . S
O60 C65 1.259 . S
Co61 O62 2.061 . S
Co61 O67 2.052 . S
Co61 O69 2.135 . S
O62 Co61 2.061 . S
O62 C65 1.235 . S
C63 O66 1.238 . S
C63 O67 1.241 . S
C64 O57 1.247 . S
C64 O58 1.261 . S
C65 O60 1.259 . S
C65 O62 1.235 . S
O66 Co56 2.021 . S
O66 C63 1.238 . S
O67 Co61 2.052 . S
O67 C63 1.241 . S
O68 Co56 2.137 . S
O68 C59 1.247 . S
O69 Co56 2.244 . S
O69 C59 1.272 . S
O69 Co61 2.135 . S
Co70 O71 2.216 . S
Co70 O72 2.091 . S
Co70 O74 2.004 . S
Co70 O80 2.021 . S
Co70 O82 2.137 . S
Co70 O83 2.244 . S
O71 Co70 2.216 . S
O71 C78 1.247 . S
O72 Co70 2.091 . S
O72 C78 1.261 . S
C73 O82 1.247 . S
C73 O83 1.272 . S
O74 Co70 2.004 . S
O74 C79 1.259 . S
Co75 O76 2.061 . S
Co75 O81 2.052 . S
Co75 O83 2.135 . S
O76 Co75 2.061 . S
O76 C79 1.235 . S
C77 O80 1.238 . S
C77 O81 1.241 . S
C78 O71 1.247 . S
C78 O72 1.261 . S
C79 O74 1.259 . S
C79 O76 1.235 . S
O80 Co70 2.021 . S
O80 C77 1.238 . S
O81 Co75 2.052 . S
O81 C77 1.241 . S
O82 Co70 2.137 . S
O82 C73 1.247 . S
O83 Co70 2.244 . S
O83 C73 1.272 . S
O83 Co75 2.135 . S
C84 C85 1.369 . S
C84 C86 1.419 1_545 S
C84 H88 0.930 . S
C85 C84 1.369 . S
C85 C94 1.429 . S
C86 C84 1.419 1_565 S
C86 C87 1.363 . S
C86 H89 0.929 . S
C87 C86 1.363 . S
C87 C93 1.428 . S
H88 C84 0.930 . S
H89 C86 0.929 . S
S90 N91 1.613 . S
S90 N92 1.610 1_545 S
N91 S90 1.613 . S
N91 C94 1.350 . S
N92 S90 1.610 1_565 S
N92 C93 1.351 . S
C93 C87 1.428 . S
C93 N92 1.351 . S
C93 C94 1.434 1_565 S
C94 C85 1.429 . S
C94 N91 1.350 . S
C94 C93 1.434 1_545 S
C95 C96 1.369 . S
C95 C97 1.419 . S
C95 H99 0.930 . S
C96 C95 1.369 . S
C96 C105 1.429 . S
C97 C95 1.419 . S
C97 C98 1.363 . S
C97 H100 0.929 . S
C98 C97 1.363 . S
C98 C104 1.428 . S
H99 C95 0.930 . S
H100 C97 0.929 . S
S101 N102 1.613 . S
S101 N103 1.610 . S
N102 S101 1.613 . S
N102 C105 1.350 . S
N103 S101 1.610 . S
N103 C104 1.351 . S
C104 C98 1.428 . S
C104 N103 1.351 . S
C104 C105 1.434 . S
C105 C96 1.429 . S
C105 N102 1.350 . S
C105 C104 1.434 . S
C106 C107 1.369 . S
C106 C108 1.419 1_655 S
C106 H110 0.930 . S
C107 C106 1.369 . S
C107 C116 1.429 . S
C108 C106 1.419 1_455 S
C108 C109 1.363 . S
C108 H111 0.929 . S
C109 C108 1.363 . S
C109 C115 1.428 . S
H110 C106 0.930 . S
H111 C108 0.929 . S
S112 N113 1.613 1_455 S
S112 N114 1.610 . S
N113 S112 1.613 1_655 S
N113 C116 1.350 . S
N114 S112 1.610 . S
N114 C115 1.351 . S
C115 C109 1.428 . S
C115 N114 1.351 . S
C115 C116 1.434 1_455 S
C116 C107 1.429 . S
C116 N113 1.350 . S
C116 C115 1.434 1_655 S
C117 C118 1.369 . S
C117 C119 1.419 1_455 S
C117 H121 0.930 . S
C118 C117 1.369 . S
C118 C127 1.429 . S
C119 C117 1.419 1_655 S
C119 C120 1.363 . S
C119 H122 0.929 . S
C120 C119 1.363 . S
C120 C126 1.428 . S
H121 C117 0.930 . S
H122 C119 0.929 . S
S123 N124 1.613 1_655 S
S123 N125 1.610 . S
N124 S123 1.613 1_455 S
N124 C127 1.350 . S
N125 S123 1.610 . S
N125 C126 1.351 . S
C126 C120 1.428 . S
C126 N125 1.351 . S
C126 C127 1.434 1_655 S
C127 C118 1.429 . S
C127 N124 1.350 . S
C127 C126 1.434 1_455 S
C128 C129 1.369 . S
C128 C130 1.419 1_565 S
C128 H132 0.930 . S
C129 C128 1.369 . S
C129 C138 1.429 . S
C130 C128 1.419 1_545 S
C130 C131 1.363 . S
C130 H133 0.929 . S
C131 C130 1.363 . S
C131 C137 1.428 . S
H132 C128 0.930 . S
H133 C130 0.929 . S
S134 N135 1.613 . S
S134 N136 1.610 1_565 S
N135 S134 1.613 . S
N135 C138 1.350 . S
N136 S134 1.610 1_545 S
N136 C137 1.351 . S
C137 C131 1.428 . S
C137 N136 1.351 . S
C137 C138 1.434 1_545 S
C138 C129 1.429 . S
C138 N135 1.350 . S
C138 C137 1.434 1_565 S
C139 C140 1.369 . S
C139 C141 1.419 . S
C139 H143 0.930 . S
C140 C139 1.369 . S
C140 C149 1.429 . S
C141 C139 1.419 . S
C141 C142 1.363 . S
C141 H144 0.929 . S
C142 C141 1.363 . S
C142 C148 1.428 . S
H143 C139 0.930 . S
H144 C141 0.929 . S
S145 N146 1.613 . S
S145 N147 1.610 . S
N146 S145 1.613 . S
N146 C149 1.350 . S
N147 S145 1.610 . S
N147 C148 1.351 . S
C148 C142 1.428 . S
C148 N147 1.351 . S
C148 C149 1.434 . S
C149 C140 1.429 . S
C149 N146 1.350 . S
C149 C148 1.434 . S
C150 C151 1.369 . S
C150 C152 1.419 1_556 S
C150 H154 0.930 . S
C151 C150 1.369 . S
C151 C160 1.429 . S
C152 C150 1.419 1_554 S
C152 C153 1.363 . S
C152 H155 0.929 . S
C153 C152 1.363 . S
C153 C159 1.428 . S
H154 C150 0.930 . S
H155 C152 0.929 . S
S156 N157 1.613 . S
S156 N158 1.610 1_556 S
N157 S156 1.613 . S
N157 C160 1.350 . S
N158 S156 1.610 1_554 S
N158 C159 1.351 . S
C159 C153 1.428 . S
C159 N158 1.351 . S
C159 C160 1.434 1_554 S
C160 C151 1.429 . S
C160 N157 1.350 . S
C160 C159 1.434 1_556 S
C161 C162 1.369 . S
C161 C163 1.419 . S
C161 H165 0.930 . S
C162 C161 1.369 . S
C162 C171 1.429 . S
C163 C161 1.419 . S
C163 C164 1.363 . S
C163 H166 0.929 . S
C164 C163 1.363 . S
C164 C170 1.428 . S
H165 C161 0.930 . S
H166 C163 0.929 . S
S167 N168 1.613 . S
S167 N169 1.610 . S
N168 S167 1.613 . S
N168 C171 1.350 . S
N169 S167 1.610 . S
N169 C170 1.351 . S
C170 C164 1.428 . S
C170 N169 1.351 . S
C170 C171 1.434 . S
C171 C162 1.429 . S
C171 N168 1.350 . S
C171 C170 1.434 . S
C172 C173 1.369 . S
C172 C174 1.419 . S
C172 H176 0.930 . S
C173 C172 1.369 . S
C173 C182 1.429 . S
C174 C172 1.419 . S
C174 C175 1.363 . S
C174 H177 0.929 . S
C175 C174 1.363 . S
C175 C181 1.428 . S
H176 C172 0.930 . S
H177 C174 0.929 . S
S178 N179 1.613 . S
S178 N180 1.610 . S
N179 S178 1.613 . S
N179 C182 1.350 . S
N180 S178 1.610 . S
N180 C181 1.351 . S
C181 C175 1.428 . S
C181 N180 1.351 . S
C181 C182 1.434 . S
C182 C173 1.429 . S
C182 N179 1.350 . S
C182 C181 1.434 . S
C183 C184 1.369 . S
C183 C185 1.419 1_556 S
C183 H187 0.930 . S
C184 C183 1.369 . S
C184 C193 1.429 . S
C185 C183 1.419 1_554 S
C185 C186 1.363 . S
C185 H188 0.929 . S
C186 C185 1.363 . S
C186 C192 1.428 . S
H187 C183 0.930 . S
H188 C185 0.929 . S
S189 N190 1.613 1_554 S
S189 N191 1.610 . S
N190 S189 1.613 1_556 S
N190 C193 1.350 . S
N191 S189 1.610 . S
N191 C192 1.351 . S
C192 C186 1.428 . S
C192 N191 1.351 . S
C192 C193 1.434 1_554 S
C193 C184 1.429 . S
C193 N190 1.350 . S
C193 C192 1.434 1_556 S
C194 C195 1.369 . S
C194 C196 1.419 . S
C194 H198 0.930 . S
C195 C194 1.369 . S
C195 C204 1.429 . S
C196 C194 1.419 . S
C196 C197 1.363 . S
C196 H199 0.929 . S
C197 C196 1.363 . S
C197 C203 1.428 . S
H198 C194 0.930 . S
H199 C196 0.929 . S
S200 N201 1.613 . S
S200 N202 1.610 . S
N201 S200 1.613 . S
N201 C204 1.350 . S
N202 S200 1.610 . S
N202 C203 1.351 . S
C203 C197 1.428 . S
C203 N202 1.351 . S
C203 C204 1.434 . S
C204 C195 1.429 . S
C204 N201 1.350 . S
C204 C203 1.434 . S
C205 C206 1.369 . S
C205 C207 1.419 . S
C205 H209 0.930 . S
C206 C205 1.369 . S
C206 C215 1.429 . S
C207 C205 1.419 . S
C207 C208 1.363 . S
C207 H210 0.929 . S
C208 C207 1.363 . S
C208 C214 1.428 . S
H209 C205 0.930 . S
H210 C207 0.929 . S
S211 N212 1.613 . S
S211 N213 1.610 . S
N212 S211 1.613 . S
N212 C215 1.350 . S
N213 S211 1.610 . S
N213 C214 1.351 . S
C214 C208 1.428 . S
C214 N213 1.351 . S
C214 C215 1.434 . S
C215 C206 1.429 . S
C215 N212 1.350 . S
C215 C214 1.434 . S
C85 C8 1.438 . S
C87 C50 1.439 . S
C96 C22 1.439 . S
C98 C64 1.439 . S
C107 C36 1.439 . S
C109 C78 1.438 . S
C118 C23 1.482 . S
C120 C65 1.478 . S
C129 C79 1.479 . S
C131 C37 1.478 . S
C140 C51 1.482 . S
C142 C9 1.476 . S
C151 C31 1.366 . S
C153 C7 1.413 . S
C162 C45 1.367 . S
C164 C21 1.412 . S
C173 C35 1.409 . S
C175 C59 1.371 . S
C184 C73 1.370 . S
C186 C49 1.411 . S
C195 C63 1.407 . S
C197 C3 1.374 . S
C206 C77 1.414 . S
C208 C17 1.366 . S
