# Generated by pormake.
# Topology qzd, (4)-cn, num edge types: 1
# Building blocks:
#     Node 0, Type 0, BuildingBlock: ESEHIV_clean_sbu_0, # of connection points: 4
#     Node 1, Type 0, BuildingBlock: ESEHIV_clean_sbu_0, # of connection points: 4
#     Node 2, Type 0, BuildingBlock: ESEHIV_clean_sbu_0, # of connection points: 4
#     Edge 3, Type (0, 0), BuildingBlock: TEMPAE_clean_linker_10, # of connection points: 2
#     Edge 4, Type (0, 0), BuildingBlock: TEMPAE_clean_linker_10, # of connection points: 2
#     Edge 5, Type (0, 0), BuildingBlock: TEMPAE_clean_linker_10, # of connection points: 2
#     Edge 6, Type (0, 0), BuildingBlock: TEMPAE_clean_linker_10, # of connection points: 2
#     Edge 7, Type (0, 0), BuildingBlock: TEMPAE_clean_linker_10, # of connection points: 2
#     Edge 8, Type (0, 0), BuildingBlock: TEMPAE_clean_linker_10, # of connection points: 2
# Relax obj value: 0.000
# Max RMSD: 0.158
# Mean RMSD: 0.076
data_MOF--net-qzd--node1-ESEHIV_clean_sbu_0--edge1-TEMPAE_clean_linker_10
_symmetry_space_group_name_H-M    P1
_symmetry_Int_Tables_number       1
_symmetry_cell_setting            triclinic
loop_
_symmetry_equiv_pos_as_xyz
'x, y, z'
_cell_length_a     15.245261
_cell_length_b     17.775423
_cell_length_c     47.191949
_cell_angle_alpha  100.2393
_cell_angle_beta   99.634296
_cell_angle_gamma 115.59425
loop_
_atom_site_label
_atom_site_type_symbol
_atom_site_fract_x
_atom_site_fract_y
_atom_site_fract_z
_atom_type_partial_charge
Cu0 Cu 0.17941 0.17995 0.03899 0.0
N1 N 0.14767 0.1155 0.06733 0.0
N2 N 0.12441 0.0877 0.11103 0.0
C3 C 0.14976 0.14835 0.09579 0.0
C4 C 0.10608 1.01392 0.09142 0.0
C5 C 0.1211 0.03125 0.06474 0.0
O6 O 0.10498 0.2473 0.04216 0.0
C7 C 0.36974 0.19484 0.04868 0.0
O8 O 0.31078 0.11128 0.0439 0.0
H9 H 0.16863 0.21544 0.10505 0.0
H10 H 0.11548 0.98561 0.0452 0.0
N11 N 0.13604 0.11223 0.99844 0.0
N12 N 0.11389 0.07988 0.94839 0.0
C13 C 0.15706 0.14343 0.97483 0.0
C14 C 0.07742 0.02594 0.98652 0.0
C15 C 0.06414 1.00592 0.956 0.0
C16 C 1.00964 0.20299 0.0297 0.0
O17 O 0.97233 0.12076 0.01521 0.0
H18 H 0.2014 0.21193 0.97709 0.0
H19 H 0.044 0.98043 0.99884 0.0
O20 O 0.32843 0.244 0.04822 0.0
H21 H 0.08546 0.95211 0.09624 0.0
H22 H 0.02046 0.94121 0.94073 0.0
Cu23 Cu 0.14432 0.11192 0.35658 0.0
N24 N 0.2722 0.17178 0.34916 0.0
N25 N 0.41327 0.2793 0.34421 0.0
C26 C 0.3212 0.25641 0.34932 0.0
C27 C 0.42143 0.20561 0.34051 0.0
C28 C 0.33518 0.14009 0.34361 0.0
O29 O 0.05818 0.16074 0.34235 0.0
C30 C 0.10052 0.1332 0.41346 0.0
O31 O 0.01888 0.13007 0.3976 0.0
H32 H 0.2906 0.30067 0.35371 0.0
H33 H 0.31976 0.07392 0.3421 0.0
N34 N 0.07284 0.9893 0.3394 0.0
N35 N 0.95734 0.84867 0.3309 0.0
C36 C 0.9947 0.93211 0.3475 0.0
C37 C 0.08562 0.94017 0.31695 0.0
C38 C 1.01498 0.85412 0.31167 0.0
C39 C 0.0238 0.17742 0.31891 0.0
O40 O 0.96425 0.21258 0.32139 0.0
H41 H 0.96498 0.95173 0.36503 0.0
H42 H 0.14235 0.96495 0.30519 0.0
O43 O 0.16578 0.12929 0.40028 0.0
H44 H 0.48508 0.19893 0.33571 0.0
H45 H 1.00794 0.79966 0.29515 0.0
Cu46 Cu 0.99899 0.06604 0.67264 0.0
N47 N 0.92194 0.12643 0.6691 0.0
N48 N 0.88556 0.23665 0.66788 0.0
C49 C 0.95731 0.21047 0.6685 0.0
C50 C 0.8018 0.1658 0.66785 0.0
C51 C 0.8242 0.09857 0.66856 0.0
O52 O 0.07649 0.09175 0.64268 0.0
C53 C 0.02196 0.09812 0.7339 0.0
O54 O 0.92512 0.07204 0.72334 0.0
H55 H 0.03509 0.25231 0.66938 0.0
H56 H 0.77309 0.03452 0.66947 0.0
N57 N 0.92207 0.94256 0.66343 0.0
N58 N 0.8857 0.80252 0.65857 0.0
C59 C 0.95743 0.88738 0.66971 0.0
C60 C 0.82436 0.89053 0.64801 0.0
C61 C 0.80196 0.80495 0.64498 0.0
C62 C 0.02377 0.05351 0.61535 0.0
O63 O 0.92691 1.00013 0.60993 0.0
H64 H 0.03517 0.90913 0.68152 0.0
H65 H 0.77326 0.91284 0.63882 0.0
O66 O 0.07532 0.1034 0.71532 0.0
H67 H 0.72896 0.16247 0.66736 0.0
H68 H 0.72912 0.74875 0.63357 0.0
C69 C 0.84601 0.20033 0.01025 0.0
C70 C 0.93698 0.23706 0.03297 0.0
C71 C 0.76449 0.21386 0.01466 0.0
C72 C 0.77304 0.26514 0.04267 0.0
C73 C 0.86759 0.30828 0.06493 0.0
C74 C 0.94868 0.29383 0.05981 0.0
C75 C 0.66619 0.16691 0.99007 0.0
C76 C 0.88087 0.36443 0.09496 0.0
C77 C 0.54086 0.29832 0.04369 0.0
C78 C 0.48008 0.22591 0.05242 0.0
C79 C 0.63982 0.31616 0.04232 0.0
C80 C 0.67859 0.26035 0.04984 0.0
C81 C 0.61969 0.19105 0.06066 0.0
C82 C 0.5219 0.17488 0.06178 0.0
C83 C 0.70028 0.39155 0.03112 0.0
C84 C 0.65701 0.12978 0.06913 0.0
H85 H 0.8366 0.15694 0.98933 0.0
H86 H 0.01843 0.32213 0.07755 0.0
H87 H 0.60949 0.11372 0.99676 0.0
H88 H 0.63547 0.21177 0.98642 0.0
H89 H 0.67524 0.13825 0.96854 0.0
H90 H 0.96204 0.40699 0.10722 0.0
H91 H 0.84387 0.4055 0.09234 0.0
H92 H 0.84443 0.32232 0.10879 0.0
H93 H 0.5094 0.33815 0.0364 0.0
H94 H 0.47625 0.11946 0.06898 0.0
H95 H 0.6982 0.36681 1.00758 0.0
H96 H 0.78068 0.42669 0.04453 0.0
H97 H 0.66956 0.43808 0.03189 0.0
H98 H 0.66189 0.09112 0.0488 0.0
H99 H 0.60629 0.08412 0.07967 0.0
H100 H 0.73395 0.16683 0.0849 0.0
C101 C 0.84713 0.76539 0.36002 0.0
C102 C 0.8744 0.76998 0.33309 0.0
C103 C 0.76951 0.68812 0.3626 0.0
C104 C 0.71661 0.61284 0.33763 0.0
C105 C 0.74237 0.61766 0.31024 0.0
C106 C 0.82042 0.69549 0.30833 0.0
C107 C 0.74555 0.68653 0.39231 0.0
C108 C 0.68825 0.53991 0.28291 0.0
C109 C 0.59194 0.38646 0.34996 0.0
C110 C 0.48875 0.36408 0.34344 0.0
C111 C 0.66618 0.46701 0.34857 0.0
C112 C 0.63778 0.52803 0.3404 0.0
C113 C 0.53394 0.50648 0.33411 0.0
C114 C 0.46107 0.4253 0.33577 0.0
C115 C 0.77542 0.48649 0.35566 0.0
C116 C 0.4995 0.56879 0.32515 0.0
H117 H 0.88816 0.82167 0.37942 0.0
H118 H 0.83884 0.69793 0.28723 0.0
H119 H 0.66386 0.66534 0.38939 0.0
H120 H 0.7619 0.6387 0.4011 0.0
H121 H 0.79006 0.75106 0.40923 0.0
H122 H 0.71393 0.55482 0.26295 0.0
H123 H 0.70141 0.48597 0.28748 0.0
H124 H 0.60548 0.51639 0.27761 0.0
H125 H 0.61529 0.34105 0.35643 0.0
H126 H 0.38198 0.40908 0.33042 0.0
H127 H 0.82252 0.54762 0.37404 0.0
H128 H 0.80409 0.49633 0.33578 0.0
H129 H 0.78588 0.43346 0.36238 0.0
H130 H 0.54074 0.63248 0.34251 0.0
H131 H 0.41695 0.54406 0.3219 0.0
H132 H 0.51747 0.58035 0.30398 0.0
C133 C 0.83309 0.64594 0.63742 0.0
C134 C 0.89521 0.72491 0.65993 0.0
C135 C 0.83773 0.569 0.63882 0.0
C136 C 0.90574 0.56959 0.66348 0.0
C137 C 0.96998 0.64936 0.68608 0.0
C138 C 0.96438 0.72578 0.68397 0.0
C139 C 0.76842 0.48644 0.61396 0.0
C140 C 0.04312 0.65357 0.71293 0.0
C141 C 0.83345 0.35046 0.68056 0.0
C142 C 0.89512 0.32203 0.66802 0.0
C143 C 0.83815 0.43121 0.6799 0.0
C144 C 0.90571 0.48592 0.66613 0.0
C145 C 0.96948 0.45839 0.65384 0.0
C146 C 0.96387 0.37741 0.65507 0.0
C147 C 0.7694 0.45744 0.69365 0.0
C148 C 0.04209 0.51363 0.63869 0.0
H149 H 0.78062 0.64418 0.61844 0.0
H150 H 1.01234 0.7858 0.70162 0.0
H151 H 0.81318 0.45844 0.60445 0.0
H152 H 0.71557 0.43749 0.62302 0.0
H153 H 0.72335 0.49728 0.59561 0.0
H154 H 0.09096 0.72078 0.72793 0.0
H155 H 1.00065 0.61161 0.72594 0.0
H156 H 0.09306 0.6283 0.70557 0.0
H157 H 0.7813 0.30952 0.69113 0.0
H158 H 1.01148 0.35637 0.64513 0.0
H159 H 0.71626 0.46313 0.67607 0.0
H160 H 0.81455 0.52213 0.71039 0.0
H161 H 0.72466 0.40995 0.70479 0.0
H162 H 0.99921 0.52076 0.61882 0.0
H163 H 0.08956 0.4853 0.63135 0.0
H164 H 0.0924 0.57981 0.6541 0.0
C165 C 1.00527 0.18597 0.26602 0.0
C166 C 0.04642 0.16091 0.28931 0.0
C167 C 0.02233 0.17231 0.23765 0.0
C168 C 0.08437 0.13408 0.23209 0.0
C169 C 0.12722 0.10914 0.25543 0.0
C170 C 0.10602 0.12126 0.28348 0.0
C171 C 0.97279 0.19831 0.21349 0.0
C172 C 0.19492 0.06913 0.25079 0.0
C173 C 0.04397 0.03068 0.14947 0.0
C174 C 0.11764 0.09836 0.14167 0.0
C175 C 0.03442 0.04032 0.17893 0.0
C176 C 0.10143 0.11911 0.20154 0.0
C177 C 0.17824 0.18665 0.19401 0.0
C178 C 0.1846 0.17591 0.16417 0.0
C179 C 0.94997 0.96723 0.18557 0.0
C180 C 0.25283 0.27094 0.21743 0.0
H181 H 0.95826 0.21617 0.26975 0.0
H182 H 0.13553 0.09912 0.30062 0.0
H183 H 0.03139 0.24778 0.20606 0.0
H184 H 0.92518 0.14113 0.19368 0.0
H185 H 0.92461 0.22537 0.22115 0.0
H186 H 0.23474 0.06608 0.27219 0.0
H187 H 0.14899 1.00213 0.23562 0.0
H188 H 0.25211 0.10679 0.24002 0.0
H189 H 0.99149 0.97081 0.13223 0.0
H190 H 0.24271 0.22798 0.15848 0.0
H191 H 0.89651 0.98917 0.19223 0.0
H192 H 0.9807 0.94891 0.20463 0.0
H193 H 0.90725 0.90862 0.16598 0.0
H194 H 0.21297 0.30672 0.2251 0.0
H195 H 0.314 0.31348 0.2088 0.0
H196 H 0.28746 0.25766 0.23727 0.0
C197 C 0.13608 0.15298 0.58933 0.0
C198 C 0.06467 0.06996 0.58919 0.0
C199 C 0.15797 0.17061 0.56248 0.0
C200 C 0.10813 0.10349 0.53497 0.0
C201 C 0.04117 1.01847 0.53529 0.0
C202 C 0.01991 1.00309 0.56219 0.0
C203 C 0.22975 0.26219 0.5633 0.0
C204 C 0.98705 0.94432 0.50683 0.0
C205 C 0.04309 0.14762 0.46011 0.0
C206 C 0.11127 0.1349 0.44575 0.0
C207 C 0.04495 0.14198 0.48957 0.0
C208 C 0.11646 0.12258 0.5054 0.0
C209 C 0.18818 0.11293 0.49152 0.0
C210 C 0.1849 0.11936 0.46195 0.0
C211 C 0.96722 0.1533 0.5033 0.0
C212 C 0.26569 0.09216 0.50743 0.0
H213 H 0.17024 0.20523 0.60999 0.0
H214 H 0.96501 0.93859 0.56188 0.0
H215 H 0.28402 0.26235 0.55028 0.0
H216 H 0.18625 0.29125 0.55275 0.0
H217 H 0.27277 0.30392 0.58655 0.0
H218 H 0.94547 0.88065 0.51124 0.0
H219 H 0.93206 0.95557 0.49199 0.0
H220 H 0.04166 0.94079 0.49449 0.0
H221 H 0.98628 0.16035 0.44806 0.0
H222 H 0.23809 0.10946 0.45121 0.0
H223 H 1.0046 0.20114 0.52576 0.0
H224 H 0.9143 0.09058 0.5063 0.0
H225 H 0.92254 0.17545 0.48921 0.0
H226 H 0.30472 0.13707 0.53037 0.0
H227 H 0.32321 0.0965 0.4952 0.0
H228 H 0.22728 0.02528 0.50966 0.0
C229 C 0.1339 0.0908 0.77837 0.0
C230 C 0.06215 0.11491 0.76675 0.0
C231 C 0.15557 0.09116 0.80879 0.0
C232 C 0.1053 0.11726 0.82809 0.0
C233 C 0.0378 0.14684 0.81673 0.0
C234 C 0.01666 0.14464 0.78634 0.0
C235 C 0.22767 0.05872 0.81979 0.0
C236 C 0.98329 0.17647 0.83628 0.0
C237 C 0.04544 0.02047 0.89289 0.0
C238 C 0.11589 0.08849 0.91828 0.0
C239 C 0.04424 0.02796 0.86363 0.0
C240 C 0.11445 0.10583 0.85913 0.0
C241 C 0.18697 0.17436 0.88447 0.0
C242 C 0.18705 0.16487 0.9136 0.0
C243 C 0.96538 0.95292 0.83745 0.0
C244 C 0.26303 0.25868 0.88084 0.0
H245 H 0.16856 0.06685 0.76336 0.0
H246 H 0.96144 0.16379 0.7776 0.0
H247 H 0.2826 0.10381 0.84145 0.0
H248 H 0.18458 0.99468 0.82372 0.0
H249 H 0.26996 0.05116 0.80344 0.0
H250 H 0.94136 0.20573 0.82499 0.0
H251 H 0.92856 0.12022 0.84221 0.0
H252 H 0.0377 0.22493 0.85749 0.0
H253 H 0.98895 0.96138 0.89568 0.0
H254 H 0.24297 0.21773 0.93267 0.0
H255 H 1.0018 0.93525 0.82083 0.0
H256 H 0.91216 0.97239 0.82603 0.0
H257 H 0.92118 0.89443 0.84443 0.0
H258 H 0.30414 0.2458 0.86491 0.0
H259 H 0.31897 0.30343 0.90245 0.0
H260 H 0.22318 0.2918 0.87128 0.0
loop_
_geom_bond_atom_site_label_1
_geom_bond_atom_site_label_2
_geom_bond_distance
_geom_bond_site_symmetry_2
_ccdc_geom_bond_type
Cu0 N1 1.999 . S
Cu0 O6 1.974 1_455 S
Cu0 N11 1.985 1_554 S
Cu0 O20 1.959 . S
N1 Cu0 1.999 . S
N1 C3 1.263 1_455 S
N1 C5 1.389 . S
N2 C3 1.358 1_455 S
N2 C4 1.400 . S
C3 N1 1.263 1_655 S
C3 N2 1.358 1_655 S
C3 H9 0.930 1_545 S
C4 N2 1.400 . S
C4 C5 1.351 . S
C4 H21 0.930 . S
C5 N1 1.389 . S
C5 C4 1.351 . S
C5 H10 0.930 . S
O6 Cu0 1.974 1_655 S
O6 C16 1.282 1_544 S
C7 O8 1.260 . S
C7 O20 1.251 1_566 S
O8 C7 1.260 . S
H9 C3 0.930 1_565 S
H10 C5 0.930 . S
N11 Cu0 1.985 1_556 S
N11 C13 1.335 . S
N11 C14 1.390 1_445 S
N12 C13 1.345 . S
N12 C15 1.336 1_445 S
C13 N11 1.335 . S
C13 N12 1.345 . S
C13 H18 0.930 . S
C14 N11 1.390 1_665 S
C14 C15 1.346 . S
C14 H19 0.930 . S
C15 N12 1.336 1_665 S
C15 C14 1.346 . S
C15 H22 0.929 . S
C16 O6 1.282 1_566 S
C16 O17 1.216 . S
O17 C16 1.216 . S
H18 C13 0.930 . S
H19 C14 0.930 . S
O20 Cu0 1.959 . S
O20 C7 1.251 1_544 S
H21 C4 0.930 . S
H22 C15 0.929 . S
Cu23 N24 1.999 . S
Cu23 O29 1.974 . S
Cu23 N34 1.985 1_445 S
Cu23 O43 1.959 . S
N24 Cu23 1.999 . S
N24 C26 1.263 . S
N24 C28 1.389 . S
N25 C26 1.358 . S
N25 C27 1.400 . S
C26 N24 1.263 . S
C26 N25 1.358 . S
C26 H32 0.930 . S
C27 N25 1.400 . S
C27 C28 1.351 . S
C27 H44 0.930 . S
C28 N24 1.389 . S
C28 C27 1.351 . S
C28 H33 0.930 . S
O29 Cu23 1.974 . S
O29 C39 1.282 1_455 S
C30 O31 1.261 1_455 S
C30 O43 1.251 . S
O31 C30 1.261 1_655 S
H32 C26 0.930 . S
H33 C28 0.930 . S
N34 Cu23 1.985 1_665 S
N34 C36 1.335 . S
N34 C37 1.390 . S
N35 C36 1.345 . S
N35 C38 1.336 . S
C36 N34 1.335 . S
C36 N35 1.345 . S
C36 H41 0.930 . S
C37 N34 1.390 . S
C37 C38 1.346 . S
C37 H42 0.930 . S
C38 N35 1.336 . S
C38 C37 1.346 . S
C38 H45 0.929 . S
C39 O29 1.282 1_655 S
C39 O40 1.216 . S
O40 C39 1.216 . S
H41 C36 0.930 . S
H42 C37 0.930 . S
O43 Cu23 1.959 . S
O43 C30 1.251 . S
H44 C27 0.930 . S
H45 C38 0.929 . S
Cu46 N47 1.999 . S
Cu46 O52 1.974 . S
Cu46 N57 1.985 . S
Cu46 O66 1.959 . S
N47 Cu46 1.999 . S
N47 C49 1.263 . S
N47 C51 1.389 . S
N48 C49 1.358 . S
N48 C50 1.400 . S
C49 N47 1.263 . S
C49 N48 1.358 . S
C49 H55 0.930 . S
C50 N48 1.400 . S
C50 C51 1.351 . S
C50 H67 0.930 . S
C51 N47 1.389 . S
C51 C50 1.351 . S
C51 H56 0.930 . S
O52 Cu46 1.974 . S
O52 C62 1.282 . S
C53 O54 1.261 . S
C53 O66 1.251 . S
O54 C53 1.261 . S
H55 C49 0.930 . S
H56 C51 0.930 . S
N57 Cu46 1.985 . S
N57 C59 1.335 1_545 S
N57 C60 1.390 1_545 S
N58 C59 1.345 . S
N58 C61 1.336 . S
C59 N57 1.335 1_565 S
C59 N58 1.345 . S
C59 H64 0.930 1_565 S
C60 N57 1.390 1_565 S
C60 C61 1.346 . S
C60 H65 0.930 . S
C61 N58 1.336 . S
C61 C60 1.346 . S
C61 H68 0.929 . S
C62 O52 1.282 . S
C62 O63 1.216 . S
O63 C62 1.216 . S
H64 C59 0.930 1_545 S
H65 C60 0.930 . S
O66 Cu46 1.959 . S
O66 C53 1.251 . S
H67 C50 0.930 . S
H68 C61 0.929 . S
C69 C70 1.391 . S
C69 C71 1.394 . S
C69 H85 0.931 . S
C70 C69 1.391 . S
C70 C74 1.376 1_556 S
C71 C69 1.394 . S
C71 C72 1.369 . S
C71 C75 1.531 . S
C72 C71 1.369 . S
C72 C73 1.410 1_556 S
C72 C80 1.503 . S
C73 C72 1.410 1_554 S
C73 C74 1.392 . S
C73 C76 1.511 . S
C74 C70 1.376 1_554 S
C74 C73 1.392 . S
C74 H86 0.929 . S
C75 C71 1.531 . S
C75 H87 0.960 . S
C75 H88 0.962 1_565 S
C75 H89 0.960 . S
C76 C73 1.511 . S
C76 H90 0.961 . S
C76 H91 0.961 . S
C76 H92 0.961 . S
C77 C78 1.370 1_544 S
C77 C79 1.363 . S
C77 H93 0.931 . S
C78 C77 1.370 1_566 S
C78 C82 1.408 . S
C79 C77 1.363 . S
C79 C80 1.370 1_544 S
C79 C83 1.524 . S
C80 C72 1.503 . S
C80 C79 1.370 1_566 S
C80 C81 1.403 . S
C81 C80 1.403 . S
C81 C82 1.404 . S
C81 C84 1.539 . S
C82 C78 1.408 . S
C82 C81 1.404 . S
C82 H94 0.930 . S
C83 C79 1.524 . S
C83 H95 0.956 . S
C83 H96 0.961 . S
C83 H97 0.961 . S
C84 C81 1.539 . S
C84 H98 0.958 . S
C84 H99 0.961 . S
C84 H100 0.960 . S
H85 C69 0.931 . S
H86 C74 0.929 . S
H87 C75 0.960 . S
H88 C75 0.962 1_545 S
H89 C75 0.960 . S
H90 C76 0.961 . S
H91 C76 0.961 . S
H92 C76 0.961 . S
H93 C77 0.931 . S
H94 C82 0.930 . S
H95 C83 0.956 . S
H96 C83 0.961 . S
H97 C83 0.961 . S
H98 C84 0.958 . S
H99 C84 0.961 . S
H100 C84 0.960 . S
C101 C102 1.391 . S
C101 C103 1.394 . S
C101 H117 0.931 . S
C102 C101 1.391 . S
C102 C106 1.376 . S
C103 C101 1.394 . S
C103 C104 1.369 . S
C103 C107 1.531 . S
C104 C103 1.369 . S
C104 C105 1.410 . S
C104 C112 1.503 . S
C105 C104 1.410 . S
C105 C106 1.392 . S
C105 C108 1.511 . S
C106 C102 1.376 . S
C106 C105 1.392 . S
C106 H118 0.929 . S
C107 C103 1.531 . S
C107 H119 0.960 . S
C107 H120 0.962 . S
C107 H121 0.960 . S
C108 C105 1.511 . S
C108 H122 0.961 . S
C108 H123 0.961 . S
C108 H124 0.961 . S
C109 C110 1.370 . S
C109 C111 1.363 . S
C109 H125 0.931 . S
C110 C109 1.370 . S
C110 C114 1.408 . S
C111 C109 1.363 . S
C111 C112 1.370 . S
C111 C115 1.524 . S
C112 C104 1.503 . S
C112 C111 1.370 . S
C112 C113 1.403 . S
C113 C112 1.403 . S
C113 C114 1.404 . S
C113 C116 1.539 . S
C114 C110 1.408 . S
C114 C113 1.404 . S
C114 H126 0.930 . S
C115 C111 1.524 . S
C115 H127 0.956 . S
C115 H128 0.961 . S
C115 H129 0.961 . S
C116 C113 1.539 . S
C116 H130 0.958 . S
C116 H131 0.961 . S
C116 H132 0.960 . S
H117 C101 0.931 . S
H118 C106 0.929 . S
H119 C107 0.960 . S
H120 C107 0.962 . S
H121 C107 0.960 . S
H122 C108 0.961 . S
H123 C108 0.961 . S
H124 C108 0.961 . S
H125 C109 0.931 . S
H126 C114 0.930 . S
H127 C115 0.956 . S
H128 C115 0.961 . S
H129 C115 0.961 . S
H130 C116 0.958 . S
H131 C116 0.961 . S
H132 C116 0.960 . S
C133 C134 1.391 . S
C133 C135 1.394 . S
C133 H149 0.931 . S
C134 C133 1.391 . S
C134 C138 1.376 . S
C135 C133 1.394 . S
C135 C136 1.369 . S
C135 C139 1.531 . S
C136 C135 1.369 . S
C136 C137 1.410 . S
C136 C144 1.503 . S
C137 C136 1.410 . S
C137 C138 1.392 . S
C137 C140 1.511 . S
C138 C134 1.376 . S
C138 C137 1.392 . S
C138 H150 0.929 . S
C139 C135 1.531 . S
C139 H151 0.960 . S
C139 H152 0.962 . S
C139 H153 0.960 1_455 S
C140 C137 1.511 . S
C140 H154 0.961 . S
C140 H155 0.961 . S
C140 H156 0.961 . S
C141 C142 1.370 . S
C141 C143 1.363 . S
C141 H157 0.931 . S
C142 C141 1.370 . S
C142 C146 1.408 . S
C143 C141 1.363 . S
C143 C144 1.370 . S
C143 C147 1.524 . S
C144 C136 1.503 . S
C144 C143 1.370 . S
C144 C145 1.403 . S
C145 C144 1.403 . S
C145 C146 1.404 . S
C145 C148 1.539 . S
C146 C142 1.408 . S
C146 C145 1.404 . S
C146 H158 0.930 . S
C147 C143 1.524 . S
C147 H159 0.956 . S
C147 H160 0.961 . S
C147 H161 0.961 . S
C148 C145 1.539 . S
C148 H162 0.958 . S
C148 H163 0.961 . S
C148 H164 0.960 . S
H149 C133 0.931 . S
H150 C138 0.929 . S
H151 C139 0.960 . S
H152 C139 0.962 . S
H153 C139 0.960 1_655 S
H154 C140 0.961 . S
H155 C140 0.961 . S
H156 C140 0.961 . S
H157 C141 0.931 . S
H158 C146 0.930 . S
H159 C147 0.956 . S
H160 C147 0.961 . S
H161 C147 0.961 . S
H162 C148 0.958 . S
H163 C148 0.961 . S
H164 C148 0.960 . S
C165 C166 1.391 . S
C165 C167 1.394 . S
C165 H181 0.931 . S
C166 C165 1.391 . S
C166 C170 1.376 1_655 S
C167 C165 1.394 . S
C167 C168 1.369 . S
C167 C171 1.531 . S
C168 C167 1.369 . S
C168 C169 1.410 1_655 S
C168 C176 1.503 1_655 S
C169 C168 1.410 1_455 S
C169 C170 1.392 . S
C169 C172 1.511 . S
C170 C166 1.376 1_455 S
C170 C169 1.392 . S
C170 H182 0.929 . S
C171 C167 1.531 . S
C171 H183 0.960 . S
C171 H184 0.962 . S
C171 H185 0.960 . S
C172 C169 1.511 . S
C172 H186 0.961 . S
C172 H187 0.961 . S
C172 H188 0.961 . S
C173 C174 1.370 1_665 S
C173 C175 1.363 . S
C173 H189 0.931 . S
C174 C173 1.370 1_445 S
C174 C178 1.408 . S
C175 C173 1.363 . S
C175 C176 1.370 1_665 S
C175 C179 1.524 . S
C176 C168 1.503 1_455 S
C176 C175 1.370 1_445 S
C176 C177 1.403 . S
C177 C176 1.403 . S
C177 C178 1.404 . S
C177 C180 1.539 . S
C178 C174 1.408 . S
C178 C177 1.404 . S
C178 H190 0.930 . S
C179 C175 1.524 . S
C179 H191 0.956 . S
C179 H192 0.961 . S
C179 H193 0.961 . S
C180 C177 1.539 . S
C180 H194 0.958 . S
C180 H195 0.961 . S
C180 H196 0.960 . S
H181 C165 0.931 . S
H182 C170 0.929 . S
H183 C171 0.960 . S
H184 C171 0.962 . S
H185 C171 0.960 . S
H186 C172 0.961 . S
H187 C172 0.961 . S
H188 C172 0.961 . S
H189 C173 0.931 . S
H190 C178 0.930 . S
H191 C179 0.956 . S
H192 C179 0.961 . S
H193 C179 0.961 . S
H194 C180 0.958 . S
H195 C180 0.961 . S
H196 C180 0.960 . S
C197 C198 1.391 . S
C197 C199 1.394 . S
C197 H213 0.931 . S
C198 C197 1.391 . S
C198 C202 1.376 . S
C199 C197 1.394 . S
C199 C200 1.369 . S
C199 C203 1.531 . S
C200 C199 1.369 . S
C200 C201 1.410 . S
C200 C208 1.503 . S
C201 C200 1.410 . S
C201 C202 1.392 . S
C201 C204 1.511 . S
C202 C198 1.376 . S
C202 C201 1.392 . S
C202 H214 0.929 . S
C203 C199 1.531 . S
C203 H215 0.960 . S
C203 H216 0.962 . S
C203 H217 0.960 . S
C204 C201 1.511 . S
C204 H218 0.961 1_545 S
C204 H219 0.961 . S
C204 H220 0.961 . S
C205 C206 1.370 1_655 S
C205 C207 1.363 . S
C205 H221 0.931 . S
C206 C205 1.370 1_455 S
C206 C210 1.408 . S
C207 C205 1.363 . S
C207 C208 1.370 1_655 S
C207 C211 1.524 . S
C208 C200 1.503 . S
C208 C207 1.370 1_455 S
C208 C209 1.403 . S
C209 C208 1.403 . S
C209 C210 1.404 . S
C209 C212 1.539 . S
C210 C206 1.408 . S
C210 C209 1.404 . S
C210 H222 0.930 . S
C211 C207 1.524 . S
C211 H223 0.956 . S
C211 H224 0.961 . S
C211 H225 0.961 . S
C212 C209 1.539 . S
C212 H226 0.958 . S
C212 H227 0.961 . S
C212 H228 0.960 . S
H213 C197 0.931 . S
H214 C202 0.929 . S
H215 C203 0.960 . S
H216 C203 0.962 . S
H217 C203 0.960 . S
H218 C204 0.961 1_565 S
H219 C204 0.961 . S
H220 C204 0.961 . S
H221 C205 0.931 . S
H222 C210 0.930 . S
H223 C211 0.956 . S
H224 C211 0.961 . S
H225 C211 0.961 . S
H226 C212 0.958 . S
H227 C212 0.961 . S
H228 C212 0.960 . S
C229 C230 1.391 . S
C229 C231 1.394 . S
C229 H245 0.931 . S
C230 C229 1.391 . S
C230 C234 1.376 . S
C231 C229 1.394 . S
C231 C232 1.369 . S
C231 C235 1.531 . S
C232 C231 1.369 . S
C232 C233 1.410 . S
C232 C240 1.503 . S
C233 C232 1.410 . S
C233 C234 1.392 . S
C233 C236 1.511 1_455 S
C234 C230 1.376 . S
C234 C233 1.392 . S
C234 H246 0.929 . S
C235 C231 1.531 . S
C235 H247 0.960 . S
C235 H248 0.962 . S
C235 H249 0.960 . S
C236 C233 1.511 1_655 S
C236 H250 0.961 . S
C236 H251 0.961 . S
C236 H252 0.961 1_655 S
C237 C238 1.370 1_565 S
C237 C239 1.363 . S
C237 H253 0.931 1_455 S
C238 C237 1.370 1_545 S
C238 C242 1.408 . S
C239 C237 1.363 . S
C239 C240 1.370 1_565 S
C239 C243 1.524 . S
C240 C232 1.503 . S
C240 C239 1.370 1_545 S
C240 C241 1.403 . S
C241 C240 1.403 . S
C241 C242 1.404 . S
C241 C244 1.539 . S
C242 C238 1.408 . S
C242 C241 1.404 . S
C242 H254 0.930 . S
C243 C239 1.524 . S
C243 H255 0.956 . S
C243 H256 0.961 1_455 S
C243 H257 0.961 1_455 S
C244 C241 1.539 . S
C244 H258 0.958 . S
C244 H259 0.961 . S
C244 H260 0.960 . S
H245 C229 0.931 . S
H246 C234 0.929 . S
H247 C235 0.960 . S
H248 C235 0.962 . S
H249 C235 0.960 . S
H250 C236 0.961 . S
H251 C236 0.961 . S
H252 C236 0.961 1_455 S
H253 C237 0.931 1_655 S
H254 C242 0.930 . S
H255 C243 0.956 . S
H256 C243 0.961 1_655 S
H257 C243 0.961 1_655 S
H258 C244 0.958 . S
H259 C244 0.961 . S
H260 C244 0.960 . S
C70 C16 1.467 . S
C78 C7 1.490 . S
C102 N35 1.472 . S
C110 N25 1.460 . S
C134 N58 1.431 . S
C142 N48 1.467 . S
C166 C39 1.588 . S
C174 N2 1.517 . S
C198 C62 1.589 . S
C206 C30 1.583 . S
C230 C53 1.520 . S
C238 N12 1.498 . S
