# Generated by pormake.
# Topology sxc, (6)-cn, num edge types: 1
# Building blocks:
#     Node 0, Type 0, BuildingBlock: BETGAK_clean_sbu_0, # of connection points: 6
#     Node 1, Type 0, BuildingBlock: BETGAK_clean_sbu_0, # of connection points: 6
#     Node 2, Type 0, BuildingBlock: BETGAK_clean_sbu_0, # of connection points: 6
#     Edge 3, Type (0, 0), BuildingBlock: AJUNOK_clean_linker_0, # of connection points: 2
#     Edge 4, Type (0, 0), BuildingBlock: AJUNOK_clean_linker_0, # of connection points: 2
#     Edge 5, Type (0, 0), BuildingBlock: AJUNOK_clean_linker_0, # of connection points: 2
#     Edge 6, Type (0, 0), BuildingBlock: AJUNOK_clean_linker_0, # of connection points: 2
#     Edge 7, Type (0, 0), BuildingBlock: AJUNOK_clean_linker_0, # of connection points: 2
#     Edge 8, Type (0, 0), BuildingBlock: AJUNOK_clean_linker_0, # of connection points: 2
#     Edge 9, Type (0, 0), BuildingBlock: AJUNOK_clean_linker_0, # of connection points: 2
#     Edge 10, Type (0, 0), BuildingBlock: AJUNOK_clean_linker_0, # of connection points: 2
#     Edge 11, Type (0, 0), BuildingBlock: AJUNOK_clean_linker_0, # of connection points: 2
# Relax obj value: 0.518
# Max RMSD: 0.187
# Mean RMSD: 0.103
data_MOF--net-sxc--node1-BETGAK_clean_sbu_0--edge1-AJUNOK_clean_linker_0
_symmetry_space_group_name_H-M    P1
_symmetry_Int_Tables_number       1
_symmetry_cell_setting            triclinic
loop_
_symmetry_equiv_pos_as_xyz
'x, y, z'
_cell_length_a     12.415125
_cell_length_b     11.531467
_cell_length_c     32.041505
_cell_angle_alpha  93.824464
_cell_angle_beta   92.67572
_cell_angle_gamma 81.471628
loop_
_atom_site_label
_atom_site_type_symbol
_atom_site_fract_x
_atom_site_fract_y
_atom_site_fract_z
_atom_type_partial_charge
La0 La 0.38728 0.17548 1.00403 0.0
La1 La 1.16569 0.23172 0.02254 0.0
C2 C 0.57587 0.16396 0.97712 0.0
C3 C 0.65478 0.24463 0.98627 0.0
C4 C 0.64798 0.31447 0.02382 0.0
C5 C 0.70606 0.40836 0.02972 0.0
C6 C 0.77193 0.43402 0.99817 0.0
C7 C 0.78313 0.36037 0.96138 0.0
C8 C 0.72455 0.26577 0.95546 0.0
C9 C 0.35181 0.17487 0.0854 0.0
C10 C 0.28119 0.44768 0.01846 0.0
C11 C 0.97806 0.22956 0.04731 0.0
C12 C 0.91459 0.13539 0.03475 0.0
C13 C 0.93623 1.07281 0.99618 0.0
C14 C 0.90652 0.962 0.98843 0.0
C15 C 0.85446 0.91202 0.01905 0.0
C16 C 0.82307 0.97921 0.05595 0.0
C17 C 0.85405 1.09039 0.06396 0.0
C18 C 1.20021 0.2379 0.94147 0.0
C19 C 0.2703 0.96037 1.00692 0.0
O20 O 0.55338 1.10753 1.00882 0.0
O21 O 0.48776 0.2093 0.95673 0.0
O22 O 0.41962 1.09879 0.06499 0.0
O23 O 0.30784 0.25022 0.06073 0.0
O24 O 0.359 0.37021 1.00115 0.0
O25 O 1.20137 0.40958 0.03682 0.0
O26 O 0.99832 0.29229 0.01699 0.0
O27 O 1.06603 0.19545 0.0699 0.0
O28 O 1.13067 0.30995 0.96256 0.0
O29 O 0.24511 0.16003 0.96528 0.0
O30 O 1.19444 1.03646 0.02575 0.0
O31 O 0.34756 1.00067 0.98799 0.0
H32 H 0.59255 0.30095 0.0476 0.0
H33 H 0.69314 0.46568 0.05777 0.0
H34 H 0.8334 0.37905 0.93663 0.0
H35 H 0.72945 0.21304 0.92615 0.0
H36 H 0.9842 1.10515 0.97329 0.0
H37 H 0.93146 0.91219 0.95974 0.0
H38 H 0.77977 0.9433 0.07945 0.0
H39 H 0.83735 0.13737 0.09392 0.0
La40 La 1.11044 0.21151 0.3217 0.0
La41 La 0.30651 0.19921 0.35685 0.0
C42 C 0.91097 0.22531 0.30927 0.0
C43 C 0.85979 0.13535 0.32807 0.0
C44 C 0.78818 1.07043 0.30487 0.0
C45 C 0.7562 0.97211 0.32164 0.0
C46 C 0.79987 0.93493 0.36068 0.0
C47 C 0.87789 0.99443 0.38197 0.0
C48 C 0.90336 1.09625 0.36684 0.0
C49 C 0.25352 0.16312 0.26148 0.0
C50 C 1.22079 0.44631 0.33286 0.0
C51 C 0.48299 0.14081 0.39631 0.0
C52 C 0.49835 1.05562 0.43024 0.0
C53 C 0.69494 0.96154 0.48393 0.0
C54 C 0.66204 0.84551 0.50643 0.0
C55 C 0.54982 0.79445 0.48305 0.0
C56 C 0.41955 0.85833 0.46792 0.0
C57 C 0.39827 0.97478 0.43776 0.0
C58 C 1.15223 0.23489 0.4141 0.0
C59 C 1.21775 0.96038 0.33686 0.0
O60 O 0.95363 0.29828 0.33603 0.0
O61 O 0.97881 0.1823 0.28037 0.0
O62 O 1.16752 1.11504 0.26476 0.0
O63 O 0.26004 0.23744 0.29225 0.0
O64 O 1.12762 0.40206 0.33109 0.0
O65 O 0.31236 0.37281 0.33552 0.0
O66 O 0.41879 0.23814 0.40501 0.0
O67 O 0.46096 1.09585 0.35896 0.0
O68 O 0.22441 0.3014 0.40959 0.0
O69 O 1.16033 0.16049 0.38345 0.0
O70 O 0.30597 1.01115 0.33731 0.0
O71 O 1.12425 1.02946 0.33875 0.0
H72 H 0.75608 1.09664 0.27436 0.0
H73 H 0.69257 0.92964 0.3055 0.0
H74 H 0.90939 0.97008 0.41281 0.0
H75 H 0.9588 0.14362 0.38565 0.0
H76 H 0.77603 0.98795 0.48796 0.0
H77 H 0.72231 0.78982 0.52439 0.0
H78 H 0.35283 0.80911 0.47076 0.0
H79 H 0.32028 0.99609 0.42184 0.0
La80 La 1.18605 1.12088 0.67175 0.0
La81 La 1.17652 0.23508 0.67533 0.0
C82 C 1.1804 0.90766 0.68682 0.0
C83 C 1.10799 0.81945 0.67804 0.0
C84 C 1.04737 0.81362 0.64008 0.0
C85 C 0.96164 0.74748 0.63621 0.0
C86 C 0.9347 0.68946 0.67055 0.0
C87 C 1.00124 0.68733 0.70711 0.0
C88 C 1.0882 0.75132 0.71068 0.0
C89 C 1.14186 0.13844 0.58923 0.0
C90 C 0.93052 0.13249 0.66426 0.0
C91 C 1.20099 0.43981 0.65603 0.0
C92 C 0.29008 0.50959 0.66295 0.0
C93 C 0.34926 0.51102 0.70135 0.0
C94 C 0.45054 0.55005 0.704 0.0
C95 C 0.49448 0.58505 0.66811 0.0
C96 C 0.43124 0.59283 0.63071 0.0
C97 C 0.3292 0.55583 0.62822 0.0
C98 C 1.19855 0.23747 0.75825 0.0
C99 C 0.43445 0.20916 0.68716 0.0
O100 O 0.22932 0.93999 0.65569 0.0
O101 O 1.1406 0.9977 0.71057 0.0
O102 O 0.22888 1.07971 0.60521 0.0
O103 O 1.08864 0.19166 0.61878 0.0
O104 O 1.00445 0.19586 0.68084 0.0
O105 O 0.99929 0.20251 0.68274 0.0
O106 O 1.1495 0.41895 0.68838 0.0
O107 O 0.22606 0.34482 0.63248 0.0
O108 O 1.12171 0.30025 0.73783 0.0
O109 O 0.25659 0.17174 0.73234 0.0
O110 O 0.3579 0.15631 0.66648 0.0
O111 O 0.3627 0.15152 0.66462 0.0
H112 H 1.06145 0.86598 0.61456 0.0
H113 H 0.91065 0.75017 0.60781 0.0
H114 H 0.98158 0.64249 0.73381 0.0
H115 H 1.13494 0.75452 0.74005 0.0
H116 H 0.32086 0.47502 0.7285 0.0
H117 H 0.49771 0.54521 0.7333 0.0
H118 H 0.4628 0.62269 0.60299 0.0
H119 H 0.28434 0.55534 0.59838 0.0
C120 C 1.19571 0.66061 0.03254 0.0
C121 C 0.28087 0.57806 0.01574 0.0
C122 C 1.19165 0.78297 0.02914 0.0
C123 C 0.27241 0.82929 1.00855 0.0
H124 H 1.13104 0.63054 0.04845 0.0
H125 H 1.1246 0.8416 0.04295 0.0
S126 S 0.51127 0.65166 0.95768 0.0
N127 N 0.44694 0.55312 0.9769 0.0
N128 N 0.43962 0.78035 0.97031 0.0
C129 C 0.35745 0.74748 0.99124 0.0
C130 C 0.36164 0.62316 0.99487 0.0
C131 C 0.68066 0.70338 0.421 0.0
C132 C 0.58953 0.77003 0.44055 0.0
C133 C 0.74278 0.7539 0.3916 0.0
C134 C 0.73303 0.87762 0.38662 0.0
H135 H 0.7012 0.61127 0.42687 0.0
H136 H 0.80478 0.69596 0.37464 0.0
S137 S 0.59688 0.15303 0.48291 0.0
N138 N 0.52858 1.00009 0.49034 0.0
N139 N 0.67737 1.08343 0.4304 0.0
C140 C 0.66513 0.95147 0.41255 0.0
C141 C 0.58463 0.88443 0.44068 0.0
C142 C 0.75206 0.71025 0.70021 0.0
C143 C 0.82664 0.65263 0.67123 0.0
C144 C 0.64461 0.68734 0.6992 0.0
C145 C 0.60857 0.60638 0.66908 0.0
H146 H 0.77615 0.77624 0.723 0.0
H147 H 0.58876 0.73507 0.72148 0.0
S148 S 0.7759 0.42355 0.5893 0.0
N149 N 0.86019 0.50626 0.61355 0.0
N150 N 0.65766 0.46126 0.61181 0.0
C151 C 0.6834 0.54536 0.64076 0.0
C152 C 0.79277 0.56909 0.64176 0.0
C153 C 0.74679 0.24986 0.69475 0.0
C154 C 0.80406 0.15442 0.67065 0.0
C155 C 0.6302 0.26459 0.69923 0.0
C156 C 0.56054 0.18705 0.6796 0.0
H157 H 0.79214 0.31422 0.71057 0.0
H158 H 0.59395 0.33879 0.71879 0.0
S159 S 0.66718 0.91947 0.61415 0.0
N160 N 0.77792 0.9788 0.62767 0.0
N161 N 0.56447 1.00704 0.63565 0.0
C162 C 0.61702 1.09131 0.65551 0.0
C163 C 0.73572 1.07557 0.65125 0.0
C164 C 0.80126 0.74211 0.97498 0.0
C165 C 0.84164 0.78696 1.01348 0.0
C166 C 0.7884 0.62394 0.96896 0.0
C167 C 0.81351 0.54744 1.00149 0.0
H168 H 0.77641 0.79947 0.94975 0.0
H169 H 0.7522 0.59423 0.9395 0.0
S170 S 0.94111 0.61636 0.10531 0.0
N171 N 0.92196 0.74225 0.08237 0.0
N172 N 0.89457 0.51999 0.07131 0.0
C173 C 0.86098 0.58917 0.03908 0.0
C174 C 0.87513 0.70925 0.04511 0.0
C175 C 1.12462 0.65638 0.33248 0.0
C176 C 1.22257 0.57686 0.33259 0.0
C177 C 1.12426 0.77907 0.33374 0.0
C178 C 1.22179 0.82898 0.33527 0.0
H179 H 1.04701 0.62387 0.33169 0.0
H180 H 1.04623 0.83524 0.33354 0.0
S181 S 0.50106 0.66089 0.3352 0.0
N182 N 0.42063 0.55871 0.33364 0.0
N183 N 0.41946 0.78771 0.33619 0.0
C184 C 0.32037 0.75072 0.33512 0.0
C185 C 0.32086 0.6256 0.33375 0.0
C186 C 0.2877 0.2759 0.19942 0.0
C187 C 0.29564 0.16877 0.21897 0.0
C188 C 0.30512 0.27819 0.15612 0.0
C189 C 0.33327 0.1736 0.13111 0.0
H190 H 0.26287 0.358 0.21719 0.0
H191 H 0.29611 0.36222 0.14214 0.0
S192 S 0.36286 0.871 0.16725 0.0
N193 N 0.33122 0.95631 0.20968 0.0
N194 N 0.36794 0.96051 0.12947 0.0
C195 C 0.34367 1.06662 0.15066 0.0
C196 C 0.32378 1.06429 0.19422 0.0
C197 C 1.1359 1.09422 0.46996 0.0
C198 C 1.12421 0.21026 0.45717 0.0
C199 C 1.13902 1.07095 0.51275 0.0
C200 C 1.12332 0.16269 0.54412 0.0
H201 H 1.14895 1.02076 0.44704 0.0
H202 H 1.15572 0.98061 0.52138 0.0
S203 S 1.06898 0.48124 0.5266 0.0
N204 N 1.08667 0.41727 0.47922 0.0
N205 N 1.08142 0.37358 0.55879 0.0
C206 C 1.10047 0.27848 0.53135 0.0
C207 C 1.1031 0.30224 0.48811 0.0
C208 C 0.26533 0.14547 0.82656 0.0
C209 C 1.21038 0.24116 0.80501 0.0
C210 C 0.26462 0.14476 0.8708 0.0
C211 C 1.20918 0.23988 0.89503 0.0
H212 H 0.30594 1.06904 0.80909 0.0
H213 H 0.30536 1.0682 0.88596 0.0
S214 S 1.06366 0.51704 0.85402 0.0
N215 N 1.10666 0.43681 0.81184 0.0
N216 N 1.1059 0.43626 0.89384 0.0
C217 C 1.15832 0.33778 0.87375 0.0
C218 C 1.15873 0.33821 0.82912 0.0
loop_
_geom_bond_atom_site_label_1
_geom_bond_atom_site_label_2
_geom_bond_distance
_geom_bond_site_symmetry_2
_ccdc_geom_bond_type
La0 C2 2.928 . S
La0 O20 2.521 . S
La0 O21 2.628 1_554 S
La0 O22 2.554 . S
La0 O23 2.757 1_545 S
La0 O24 2.470 . S
La0 O29 2.482 1_554 S
La0 O31 2.503 1_545 S
La1 C11 2.928 . S
La1 O23 2.482 1_656 S
La1 O25 2.503 1_565 S
La1 O26 2.521 . S
La1 O27 2.628 1_556 S
La1 O28 2.554 . S
La1 O29 2.757 1_665 S
La1 O30 2.470 . S
C2 La0 2.928 . S
C2 C3 1.503 . S
C2 O20 1.261 . S
C2 O21 1.243 1_554 S
C3 C2 1.503 . S
C3 C4 1.394 . S
C3 C8 1.373 1_554 S
C4 C3 1.394 . S
C4 C5 1.380 . S
C4 H32 0.930 . S
C5 C4 1.380 . S
C5 C6 1.376 . S
C5 H33 0.930 . S
C6 C5 1.376 . S
C6 C7 1.370 1_554 S
C7 C6 1.370 1_556 S
C7 C8 1.396 . S
C7 H34 0.929 . S
C8 C3 1.373 1_556 S
C8 C7 1.396 . S
C8 H35 0.929 . S
C9 O22 1.240 . S
C9 O23 1.289 1_545 S
C10 O24 1.258 . S
C10 O25 1.256 1_454 S
C11 La1 2.928 . S
C11 C12 1.503 . S
C11 O26 1.261 . S
C11 O27 1.243 1_556 S
C12 C11 1.503 . S
C12 C13 1.394 . S
C12 C17 1.373 1_556 S
C13 C12 1.394 . S
C13 C14 1.380 . S
C13 H36 0.930 . S
C14 C13 1.380 . S
C14 C15 1.376 . S
C14 H37 0.930 . S
C15 C14 1.376 . S
C15 C16 1.370 1_556 S
C16 C15 1.370 1_554 S
C16 C17 1.396 . S
C16 H38 0.929 . S
C17 C12 1.373 1_554 S
C17 C16 1.396 . S
C17 H39 0.929 . S
C18 O28 1.240 1_545 S
C18 O29 1.289 1_655 S
C19 O30 1.258 1_455 S
C19 O31 1.256 1_556 S
O20 La0 2.521 . S
O20 C2 1.261 . S
O21 La0 2.628 1_556 S
O21 C2 1.243 1_556 S
O22 La0 2.554 . S
O22 C9 1.240 . S
O23 La0 2.757 1_565 S
O23 La1 2.482 1_454 S
O23 C9 1.289 1_565 S
O24 La0 2.470 . S
O24 C10 1.258 . S
O25 La1 2.503 1_545 S
O25 C10 1.256 1_656 S
O26 La1 2.521 . S
O26 C11 1.261 . S
O27 La1 2.628 1_554 S
O27 C11 1.243 1_554 S
O28 La1 2.554 . S
O28 C18 1.240 1_565 S
O29 La0 2.482 1_556 S
O29 La1 2.757 1_445 S
O29 C18 1.289 1_455 S
O30 La1 2.470 . S
O30 C19 1.258 1_655 S
O31 La0 2.503 1_565 S
O31 C19 1.256 1_554 S
H32 C4 0.930 . S
H33 C5 0.930 . S
H34 C7 0.929 . S
H35 C8 0.929 . S
H36 C13 0.930 . S
H37 C14 0.930 . S
H38 C16 0.929 . S
H39 C17 0.929 . S
La40 C42 2.928 1_565 S
La40 O60 2.519 1_565 S
La40 O61 2.628 1_565 S
La40 O62 2.554 . S
La40 O63 2.757 1_665 S
La40 O64 2.470 1_565 S
La40 O69 2.482 1_565 S
La40 O71 2.503 . S
La41 C51 2.928 1_545 S
La41 O63 2.482 . S
La41 O65 2.503 . S
La41 O66 2.521 . S
La41 O67 2.628 1_545 S
La41 O68 2.554 . S
La41 O69 2.757 1_455 S
La41 O70 2.470 1_545 S
C42 La40 2.928 1_545 S
C42 C43 1.503 . S
C42 O60 1.264 . S
C42 O61 1.243 . S
C43 C42 1.503 . S
C43 C44 1.394 . S
C43 C48 1.373 . S
C44 C43 1.394 . S
C44 C45 1.380 . S
C44 H72 0.930 . S
C45 C44 1.380 . S
C45 C46 1.376 . S
C45 H73 0.930 . S
C46 C45 1.376 . S
C46 C47 1.370 . S
C47 C46 1.370 . S
C47 C48 1.396 . S
C47 H74 0.929 . S
C48 C43 1.373 . S
C48 C47 1.396 . S
C48 H75 0.929 . S
C49 O62 1.240 1_545 S
C49 O63 1.290 1_655 S
C50 O64 1.258 . S
C50 O65 1.256 1_655 S
C51 La41 2.928 1_565 S
C51 C52 1.503 . S
C51 O66 1.261 1_565 S
C51 O67 1.243 . S
C52 C51 1.503 . S
C52 C53 1.394 . S
C52 C57 1.373 . S
C53 C52 1.394 . S
C53 C54 1.380 . S
C53 H76 0.930 1_565 S
C54 C53 1.380 . S
C54 C55 1.376 . S
C54 H77 0.930 . S
C55 C54 1.376 . S
C55 C56 1.370 . S
C56 C55 1.370 . S
C56 C57 1.396 . S
C56 H78 0.929 . S
C57 C52 1.373 . S
C57 C56 1.396 . S
C57 H79 0.929 . S
C58 O68 1.240 . S
C58 O69 1.289 1_455 S
C59 O70 1.258 . S
C59 O71 1.256 1_455 S
O60 La40 2.519 1_545 S
O60 C42 1.264 . S
O61 La40 2.628 1_545 S
O61 C42 1.243 . S
O62 La40 2.554 . S
O62 C49 1.240 1_565 S
O63 La40 2.757 1_445 S
O63 La41 2.482 . S
O63 C49 1.290 1_455 S
O64 La40 2.470 1_545 S
O64 C50 1.258 . S
O65 La41 2.503 . S
O65 C50 1.256 1_455 S
O66 La41 2.521 . S
O66 C51 1.261 1_545 S
O67 La41 2.628 1_565 S
O67 C51 1.243 . S
O68 La41 2.554 . S
O68 C58 1.240 . S
O69 La40 2.482 1_545 S
O69 La41 2.757 1_655 S
O69 C58 1.289 1_655 S
O70 La41 2.470 1_565 S
O70 C59 1.258 . S
O71 La40 2.503 . S
O71 C59 1.256 1_655 S
H72 C44 0.930 . S
H73 C45 0.930 . S
H74 C47 0.929 . S
H75 C48 0.929 . S
H76 C53 0.930 1_545 S
H77 C54 0.930 . S
H78 C56 0.929 . S
H79 C57 0.929 . S
La80 C82 2.928 . S
La80 O100 2.521 . S
La80 O101 2.628 . S
La80 O102 2.554 . S
La80 O103 2.757 1_665 S
La80 O104 2.470 . S
La80 O109 2.482 1_565 S
La80 O111 2.503 1_655 S
La81 C91 2.928 . S
La81 O103 2.482 . S
La81 O105 2.503 1_455 S
La81 O106 2.521 . S
La81 O107 2.628 . S
La81 O108 2.554 . S
La81 O109 2.757 1_455 S
La81 O110 2.470 . S
C82 La80 2.928 . S
C82 C83 1.503 . S
C82 O100 1.261 . S
C82 O101 1.243 . S
C83 C82 1.503 . S
C83 C84 1.394 . S
C83 C88 1.373 . S
C84 C83 1.394 . S
C84 C85 1.380 . S
C84 H112 0.930 . S
C85 C84 1.380 . S
C85 C86 1.376 . S
C85 H113 0.930 . S
C86 C85 1.376 . S
C86 C87 1.370 . S
C87 C86 1.370 . S
C87 C88 1.396 . S
C87 H114 0.929 . S
C88 C83 1.373 . S
C88 C87 1.396 . S
C88 H115 0.929 . S
C89 O102 1.240 1_545 S
C89 O103 1.289 1_655 S
C90 O104 1.258 1_545 S
C90 O105 1.256 . S
C91 La81 2.928 . S
C91 C92 1.503 . S
C91 O106 1.261 . S
C91 O107 1.243 . S
C92 C91 1.503 . S
C92 C93 1.394 . S
C92 C97 1.373 . S
C93 C92 1.394 . S
C93 C94 1.380 . S
C93 H116 0.930 . S
C94 C93 1.380 . S
C94 C95 1.376 . S
C94 H117 0.930 . S
C95 C94 1.376 . S
C95 C96 1.370 . S
C96 C95 1.370 . S
C96 C97 1.396 . S
C96 H118 0.929 . S
C97 C92 1.373 . S
C97 C96 1.396 . S
C97 H119 0.929 . S
C98 O108 1.240 . S
C98 O109 1.289 1_455 S
C99 O110 1.258 . S
C99 O111 1.256 1_545 S
O100 La80 2.521 . S
O100 C82 1.261 . S
O101 La80 2.628 . S
O101 C82 1.243 . S
O102 La80 2.554 . S
O102 C89 1.240 1_565 S
O103 La80 2.757 1_445 S
O103 La81 2.482 . S
O103 C89 1.289 1_455 S
O104 La80 2.470 . S
O104 C90 1.258 1_565 S
O105 La81 2.503 1_655 S
O105 C90 1.256 . S
O106 La81 2.521 . S
O106 C91 1.261 . S
O107 La81 2.628 . S
O107 C91 1.243 . S
O108 La81 2.554 . S
O108 C98 1.240 . S
O109 La80 2.482 1_545 S
O109 La81 2.757 1_655 S
O109 C98 1.289 1_655 S
O110 La81 2.470 . S
O110 C99 1.258 . S
O111 La80 2.503 1_455 S
O111 C99 1.256 1_565 S
H112 C84 0.930 . S
H113 C85 0.930 . S
H114 C87 0.929 . S
H115 C88 0.929 . S
H116 C93 0.930 . S
H117 C94 0.930 . S
H118 C96 0.929 . S
H119 C97 0.929 . S
C120 C121 1.368 1_656 S
C120 C122 1.419 . S
C120 H124 0.930 . S
C121 C120 1.368 1_454 S
C121 C130 1.429 . S
C122 C120 1.419 . S
C122 C123 1.363 1_656 S
C122 H125 0.929 . S
C123 C122 1.363 1_454 S
C123 C129 1.428 . S
H124 C120 0.930 . S
H125 C122 0.929 . S
S126 N127 1.613 . S
S126 N128 1.610 . S
N127 S126 1.613 . S
N127 C130 1.350 . S
N128 S126 1.610 . S
N128 C129 1.351 . S
C129 C123 1.428 . S
C129 N128 1.351 . S
C129 C130 1.434 . S
C130 C121 1.429 . S
C130 N127 1.350 . S
C130 C129 1.434 . S
C131 C132 1.369 . S
C131 C133 1.419 1_565 S
C131 H135 0.930 . S
C132 C131 1.369 . S
C132 C141 1.429 . S
C133 C131 1.419 1_545 S
C133 C134 1.363 . S
C133 H136 0.929 . S
C134 C133 1.363 . S
C134 C140 1.428 . S
H135 C131 0.930 . S
H136 C133 0.929 . S
S137 N138 1.613 1_545 S
S137 N139 1.610 . S
N138 S137 1.613 1_565 S
N138 C141 1.350 . S
N139 S137 1.610 . S
N139 C140 1.351 . S
C140 C134 1.428 . S
C140 N139 1.351 . S
C140 C141 1.434 1_545 S
C141 C132 1.429 . S
C141 N138 1.350 . S
C141 C140 1.434 1_565 S
C142 C143 1.369 . S
C142 C144 1.419 . S
C142 H146 0.930 . S
C143 C142 1.369 . S
C143 C152 1.429 . S
C144 C142 1.419 . S
C144 C145 1.363 . S
C144 H147 0.929 . S
C145 C144 1.363 . S
C145 C151 1.428 . S
H146 C142 0.930 . S
H147 C144 0.929 . S
S148 N149 1.613 . S
S148 N150 1.610 . S
N149 S148 1.613 . S
N149 C152 1.350 . S
N150 S148 1.610 . S
N150 C151 1.351 . S
C151 C145 1.428 . S
C151 N150 1.351 . S
C151 C152 1.434 . S
C152 C143 1.429 . S
C152 N149 1.350 . S
C152 C151 1.434 . S
C153 C154 1.369 . S
C153 C155 1.419 . S
C153 H157 0.930 . S
C154 C153 1.369 . S
C154 C163 1.429 1_545 S
C155 C153 1.419 . S
C155 C156 1.363 . S
C155 H158 0.929 . S
C156 C155 1.363 . S
C156 C162 1.428 1_545 S
H157 C153 0.930 . S
H158 C155 0.929 . S
S159 N160 1.613 . S
S159 N161 1.610 . S
N160 S159 1.613 . S
N160 C163 1.350 . S
N161 S159 1.610 . S
N161 C162 1.351 . S
C162 C156 1.428 1_565 S
C162 N161 1.351 . S
C162 C163 1.434 . S
C163 C154 1.429 1_565 S
C163 N160 1.350 . S
C163 C162 1.434 . S
C164 C165 1.369 . S
C164 C166 1.419 . S
C164 H168 0.930 . S
C165 C164 1.369 . S
C165 C174 1.429 1_556 S
C166 C164 1.419 . S
C166 C167 1.363 1_556 S
C166 H169 0.929 . S
C167 C166 1.363 1_554 S
C167 C173 1.428 . S
H168 C164 0.930 . S
H169 C166 0.929 . S
S170 N171 1.613 . S
S170 N172 1.610 . S
N171 S170 1.613 . S
N171 C174 1.350 . S
N172 S170 1.610 . S
N172 C173 1.351 . S
C173 C167 1.428 . S
C173 N172 1.351 . S
C173 C174 1.434 . S
C174 C165 1.429 1_554 S
C174 N171 1.350 . S
C174 C173 1.434 . S
C175 C176 1.369 . S
C175 C177 1.419 . S
C175 H179 0.930 . S
C176 C175 1.369 . S
C176 C185 1.429 1_655 S
C177 C175 1.419 . S
C177 C178 1.363 1_655 S
C177 H180 0.929 . S
C178 C177 1.363 1_455 S
C178 C184 1.428 . S
H179 C175 0.930 . S
H180 C177 0.929 . S
S181 N182 1.613 . S
S181 N183 1.610 . S
N182 S181 1.613 . S
N182 C185 1.350 . S
N183 S181 1.610 . S
N183 C184 1.351 . S
C184 C178 1.428 . S
C184 N183 1.351 . S
C184 C185 1.434 . S
C185 C176 1.429 1_455 S
C185 N182 1.350 . S
C185 C184 1.434 . S
C186 C187 1.369 . S
C186 C188 1.419 . S
C186 H190 0.930 . S
C187 C186 1.369 . S
C187 C196 1.429 1_445 S
C188 C186 1.419 . S
C188 C189 1.363 . S
C188 H191 0.929 . S
C189 C188 1.363 . S
C189 C195 1.428 1_445 S
H190 C186 0.930 . S
H191 C188 0.929 . S
S192 N193 1.613 . S
S192 N194 1.610 . S
N193 S192 1.613 . S
N193 C196 1.350 . S
N194 S192 1.610 . S
N194 C195 1.351 . S
C195 C189 1.428 1_665 S
C195 N194 1.351 . S
C195 C196 1.434 . S
C196 C187 1.429 1_665 S
C196 N193 1.350 . S
C196 C195 1.434 . S
C197 C198 1.374 1_565 S
C197 C199 1.419 . S
C197 H201 0.930 . S
C198 C197 1.374 1_545 S
C198 C207 1.422 1_455 S
C199 C197 1.419 . S
C199 C200 1.362 1_465 S
C199 H202 0.929 . S
C200 C199 1.362 1_645 S
C200 C206 1.429 . S
H201 C197 0.930 . S
H202 C199 0.929 . S
S203 N204 1.613 . S
S203 N205 1.610 . S
N204 S203 1.613 . S
N204 C207 1.350 . S
N205 S203 1.610 . S
N205 C206 1.351 . S
C206 C200 1.429 . S
C206 N205 1.351 . S
C206 C207 1.434 . S
C207 C198 1.422 1_655 S
C207 N204 1.350 . S
C207 C206 1.434 . S
C208 C209 1.369 1_565 S
C208 C210 1.419 . S
C208 H212 0.930 . S
C209 C208 1.369 1_545 S
C209 C218 1.429 1_455 S
C210 C208 1.419 . S
C210 C211 1.363 1_565 S
C210 H213 0.929 . S
C211 C210 1.363 1_545 S
C211 C217 1.428 1_455 S
H212 C208 0.930 . S
H213 C210 0.929 . S
S214 N215 1.613 . S
S214 N216 1.610 . S
N215 S214 1.613 . S
N215 C218 1.350 . S
N216 S214 1.610 . S
N216 C217 1.351 . S
C217 C211 1.428 1_655 S
C217 N216 1.351 . S
C217 C218 1.434 . S
C218 C209 1.429 1_655 S
C218 N215 1.350 . S
C218 C217 1.434 . S
C121 C10 3.009 . S
C123 C19 3.008 1_554 S
C132 C55 0.832 . S
C134 C46 0.858 . S
C143 C86 0.925 . S
C145 C95 0.914 . S
C154 C90 4.975 . S
C156 C99 4.976 . S
C165 C15 0.553 . S
C167 C6 0.547 . S
C176 C50 3.098 . S
C178 C59 3.100 . S
C187 C49 1.465 1_455 S
C189 C9 1.471 . S
C198 C58 1.457 . S
C200 C89 1.445 . S
C209 C98 1.466 . S
C211 C18 1.446 1_455 S
