# Generated by pormake.
# Topology rob, (6)-cn, num edge types: 1
# Building blocks:
#     Node 0, Type 0, BuildingBlock: UKALOJ_clean_sbu_0, # of connection points: 6
#     Node 1, Type 0, BuildingBlock: UKALOJ_clean_sbu_0, # of connection points: 6
#     Node 2, Type 0, BuildingBlock: UKALOJ_clean_sbu_0, # of connection points: 6
#     Node 3, Type 0, BuildingBlock: UKALOJ_clean_sbu_0, # of connection points: 6
#     Edge 4, Type (0, 0), None
#     Edge 5, Type (0, 0), None
#     Edge 6, Type (0, 0), None
#     Edge 7, Type (0, 0), None
#     Edge 8, Type (0, 0), None
#     Edge 9, Type (0, 0), None
#     Edge 10, Type (0, 0), None
#     Edge 11, Type (0, 0), None
#     Edge 12, Type (0, 0), None
#     Edge 13, Type (0, 0), None
#     Edge 14, Type (0, 0), None
#     Edge 15, Type (0, 0), None
# Relax obj value: 0.082
# Max RMSD: 0.168
# Mean RMSD: 0.168
data_MOF--net-rob--node1-UKALOJ_clean_sbu_0--edge1-none
_symmetry_space_group_name_H-M    P1
_symmetry_Int_Tables_number       1
_symmetry_cell_setting            triclinic
loop_
_symmetry_equiv_pos_as_xyz
'x, y, z'
_cell_length_a     9.2947253
_cell_length_b     21.860876
_cell_length_c     10.153121
_cell_angle_alpha  93.993693
_cell_angle_beta   90.243286
_cell_angle_gamma 90.39029
loop_
_atom_site_label
_atom_site_type_symbol
_atom_site_fract_x
_atom_site_fract_y
_atom_site_fract_z
_atom_type_partial_charge
Zn0 Zn 0.11366 0.36065 0.00852 0.0
O1 O 0.25708 0.3425 0.85124 0.0
C2 C -0.09909 0.32905 0.81248 0.0
Zn3 Zn 0.0944 0.25806 0.9928 0.0
C4 C 0.29733 0.29122 0.79842 0.0
O5 O 0.24908 0.24193 0.84113 0.0
C6 C -0.0909 0.32844 0.20177 0.0
O7 O 0.24932 0.24077 0.13854 0.0
O8 O 0.27066 0.34144 0.14977 0.0
N9 N 0.02995 0.16704 0.97198 0.0
C10 C -0.05831 0.1334 0.0443 0.0
C11 C -0.01575 0.07963 0.86551 0.0
N12 N 0.05676 0.13317 0.86133 0.0
N13 N -0.08795 0.07903 0.97984 0.0
C14 C 0.30999 0.47537 0.99537 0.0
C15 C 0.16758 0.54955 0.04534 0.0
N16 N 0.17989 0.45069 0.02003 0.0
N17 N 0.09187 0.49688 0.05151 0.0
N18 N 0.30437 0.53675 0.01095 0.0
H19 H 0.44297 0.39479 1.00271 0.0
H20 H 0.54039 0.46631 0.99955 0.0
H21 H 0.45378 0.43412 0.85234 0.0
C22 C 0.44427 0.44028 0.9613 0.0
C23 C -0.10957 0.15139 0.18031 0.0
H24 H -0.02526 0.17846 0.23583 0.0
H25 H -0.13488 0.10995 0.23316 0.0
H26 H 0.79086 0.17874 0.17435 0.0
O27 O -0.05749 0.27734 0.14325 0.0
O28 O -0.03471 0.37759 0.16536 0.0
C29 C 0.30669 0.28981 0.18964 0.0
O30 O -0.04612 0.37806 0.86778 0.0
O31 O -0.05889 0.27721 0.84823 0.0
Zn32 Zn 0.61364 0.86065 0.00843 0.0
O33 O 0.75707 0.84246 0.85115 0.0
C34 C 0.40092 0.82906 0.81236 0.0
Zn35 Zn 0.5944 0.75806 0.9927 0.0
C36 C 0.79733 0.79119 0.79834 0.0
O37 O 0.74907 0.74189 0.84103 0.0
C38 C 0.40908 0.82847 0.20167 0.0
O39 O 0.7493 0.74075 0.13845 0.0
O40 O 0.7706 0.84142 0.1497 0.0
N41 N 0.52983 0.66705 0.97189 0.0
C42 C 0.44154 0.63347 0.04432 0.0
C43 C 0.48365 0.57968 0.86543 0.0
N44 N 0.55637 0.63317 0.8612 0.0
N45 N 0.41145 0.57917 0.97977 0.0
C46 C 0.81014 0.9753 0.9952 0.0
C47 C 0.66783 1.04955 0.04491 0.0
N48 N 0.67998 0.95068 0.01986 0.0
N49 N 0.59202 0.99691 0.05119 0.0
N50 N 0.80458 1.03668 0.01049 0.0
H51 H -0.05706 0.89467 1.00276 0.0
H52 H 0.04051 0.96615 0.99979 0.0
H53 H -0.04585 0.93401 0.85242 0.0
C54 C -0.05559 0.94015 0.96137 0.0
C55 C 0.39073 0.65143 0.18048 0.0
H56 H 0.47516 0.67852 0.23578 0.0
H57 H 0.36572 0.60997 0.23335 0.0
H58 H 0.29106 0.67873 0.17482 0.0
O59 O 0.4425 0.77737 0.14314 0.0
O60 O 0.46527 0.87762 0.16526 0.0
C61 C 0.80664 0.7898 0.18957 0.0
O62 O 0.45388 0.87807 0.86767 0.0
O63 O 0.44113 0.77722 0.84812 0.0
Zn64 Zn 0.09613 0.86108 0.50828 0.0
O65 O 0.25447 0.8773 0.36464 0.0
C66 C -0.08975 0.78966 0.29821 0.0
Zn67 Zn 0.11157 0.75849 0.49423 0.0
C68 C 0.30655 0.82815 0.3109 0.0
O69 O 0.26677 0.77661 0.34951 0.0
C70 C -0.09917 0.79145 0.69032 0.0
O71 O 0.25709 0.77835 0.64981 0.0
O72 O 0.2478 0.87902 0.66318 0.0
N73 N 0.17595 0.66815 0.48806 0.0
C74 C 0.30773 0.64367 0.50455 0.0
C75 C 0.15787 0.56948 0.47796 0.0
N76 N 0.08339 0.62193 0.47151 0.0
N77 N 0.29874 0.58172 0.49941 0.0
C78 C -0.09975 0.97647 0.50705 0.0
C79 C 0.05204 1.05012 0.52619 0.0
N80 N 0.03244 0.95149 0.51674 0.0
N81 N 0.12623 0.99742 0.52907 0.0
N82 N -0.08991 1.03836 0.51183 0.0
H83 H 0.71243 0.94682 0.39645 0.0
H84 H 0.68599 0.95761 0.57199 0.0
H85 H 0.77754 0.89111 0.50385 0.0
C86 C 0.76207 0.94051 0.49417 0.0
C87 C 0.4443 0.68043 0.52428 0.0
H88 H 0.43041 0.72866 0.5018 0.0
H89 H 0.53045 0.6612 0.45919 0.0
H90 H 0.48095 0.67893 0.62797 0.0
O91 O -0.04668 0.74229 0.63718 0.0
O92 O -0.05875 0.84299 0.65237 0.0
C93 C 0.29697 0.82967 0.70423 0.0
O94 O -0.0505 0.8412 0.35249 0.0
O95 O -0.03989 0.74043 0.3394 0.0
Zn96 Zn 0.59616 0.36108 0.50837 0.0
O97 O 0.75452 0.37729 0.36474 0.0
C98 C 0.41029 0.28967 0.29828 0.0
Zn99 Zn 0.61156 0.25849 0.49433 0.0
C100 C 0.80657 0.32813 0.311 0.0
O101 O 0.76677 0.27659 0.3496 0.0
C102 C 0.40083 0.29148 0.6904 0.0
O103 O 0.75709 0.27835 0.64991 0.0
O104 O 0.74781 0.37902 0.66329 0.0
N105 N 0.67591 0.16815 0.48816 0.0
C106 C 0.80769 0.14367 0.50459 0.0
C107 C 0.65782 0.06948 0.47806 0.0
N108 N 0.58334 0.12193 0.47163 0.0
N109 N 0.79869 0.08171 0.49944 0.0
C110 C 0.4003 0.47648 0.50703 0.0
C111 C 0.55209 0.55013 0.52621 0.0
N112 N 0.53249 0.4515 0.51679 0.0
N113 N 0.62627 0.49743 0.52915 0.0
N114 N 0.41014 0.53836 0.51175 0.0
H115 H 0.2125 0.44682 0.39641 0.0
H116 H 0.18603 0.45763 0.57194 0.0
H117 H 0.27758 0.39112 0.50388 0.0
C118 C 0.26212 0.44052 0.49415 0.0
C119 C -0.05572 0.18042 0.52432 0.0
H120 H -0.06961 0.22865 0.50193 0.0
H121 H 0.03039 0.1612 0.45917 0.0
H122 H -0.01903 0.17888 0.62799 0.0
O123 O 0.4533 0.24232 0.63727 0.0
O124 O 0.44125 0.34301 0.65244 0.0
C125 C 0.79696 0.32966 0.70433 0.0
O126 O 0.44955 0.34121 0.35256 0.0
O127 O 0.46011 0.24044 0.33949 0.0
loop_
_geom_bond_atom_site_label_1
_geom_bond_atom_site_label_2
_geom_bond_distance
_geom_bond_site_symmetry_2
_ccdc_geom_bond_type
Zn0 O1 2.055 1_554 S
Zn0 O8 2.046 . S
Zn0 N16 2.036 . S
Zn0 O28 2.053 . S
Zn0 O30 2.066 1_554 S
O1 Zn0 2.055 1_556 S
O1 C4 1.259 . S
C2 O30 1.256 . S
C2 O31 1.244 . S
Zn3 O5 2.046 . S
Zn3 O7 2.055 1_556 S
Zn3 N9 2.036 . S
Zn3 O27 2.066 1_556 S
Zn3 O31 2.053 . S
C4 O1 1.259 . S
C4 O5 1.254 . S
O5 Zn3 2.046 . S
O5 C4 1.254 . S
C6 O27 1.256 . S
C6 O28 1.244 . S
O7 Zn3 2.055 1_554 S
O7 C29 1.259 . S
O8 Zn0 2.046 . S
O8 C29 1.254 . S
N9 Zn3 2.036 . S
N9 C10 1.298 1_556 S
N9 N12 1.398 . S
C10 N9 1.298 1_554 S
C10 N13 1.367 1_554 S
C10 C23 1.481 . S
C11 N12 1.299 . S
C11 N13 1.379 . S
N12 N9 1.398 . S
N12 C11 1.299 . S
N13 C10 1.367 1_556 S
N13 C11 1.379 . S
C14 N16 1.298 1_556 S
C14 N18 1.367 1_556 S
C14 C22 1.481 . S
C15 N17 1.299 . S
C15 N18 1.379 . S
N16 Zn0 2.036 . S
N16 C14 1.298 1_554 S
N16 N17 1.398 . S
N17 C15 1.299 . S
N17 N16 1.398 . S
N18 C14 1.367 1_554 S
N18 C15 1.379 . S
H19 C22 0.980 . S
H20 C22 0.981 . S
H21 C22 0.981 . S
C22 C14 1.481 . S
C22 H19 0.980 . S
C22 H20 0.981 . S
C22 H21 0.981 . S
C23 C10 1.481 . S
C23 H24 0.980 . S
C23 H25 0.981 . S
C23 H26 0.981 . S
H24 C23 0.980 . S
H25 C23 0.981 . S
H26 C23 0.981 . S
O27 Zn3 2.066 1_554 S
O27 C6 1.256 . S
O28 Zn0 2.053 . S
O28 C6 1.244 . S
C29 O7 1.259 . S
C29 O8 1.254 . S
O30 Zn0 2.066 1_556 S
O30 C2 1.256 . S
O31 C2 1.244 . S
O31 Zn3 2.053 . S
Zn32 O33 2.055 1_654 S
Zn32 O40 2.046 1_655 S
Zn32 N48 2.036 . S
Zn32 O60 2.053 . S
Zn32 O62 2.066 1_554 S
O33 Zn32 2.055 1_456 S
O33 C36 1.259 . S
C34 O62 1.256 . S
C34 O63 1.244 . S
Zn35 O37 2.046 . S
Zn35 O39 2.055 1_556 S
Zn35 N41 2.036 . S
Zn35 O59 2.066 1_556 S
Zn35 O63 2.053 . S
C36 O33 1.259 . S
C36 O37 1.254 1_455 S
O37 Zn35 2.046 . S
O37 C36 1.254 1_655 S
C38 O59 1.256 . S
C38 O60 1.244 . S
O39 Zn35 2.055 1_554 S
O39 C61 1.259 1_655 S
O40 Zn32 2.046 1_455 S
O40 C61 1.254 . S
N41 Zn35 2.036 . S
N41 C42 1.298 1_556 S
N41 N44 1.398 . S
C42 N41 1.298 1_554 S
C42 N45 1.367 1_554 S
C42 C55 1.481 . S
C43 N44 1.299 . S
C43 N45 1.379 . S
N44 N41 1.398 . S
N44 C43 1.299 . S
N45 C42 1.367 1_556 S
N45 C43 1.379 . S
C46 N48 1.298 1_556 S
C46 N50 1.367 1_556 S
C46 C54 1.481 . S
C47 N49 1.299 . S
C47 N50 1.379 . S
N48 Zn32 2.036 . S
N48 C46 1.298 1_554 S
N48 N49 1.398 . S
N49 C47 1.299 . S
N49 N48 1.398 . S
N50 C46 1.367 1_554 S
N50 C47 1.379 . S
H51 C54 0.980 1_455 S
H52 C54 0.981 1_455 S
H53 C54 0.981 . S
C54 C46 1.481 . S
C54 H51 0.980 1_655 S
C54 H52 0.981 1_655 S
C54 H53 0.981 . S
C55 C42 1.481 . S
C55 H56 0.980 . S
C55 H57 0.981 . S
C55 H58 0.981 . S
H56 C55 0.980 . S
H57 C55 0.981 . S
H58 C55 0.981 . S
O59 Zn35 2.066 1_554 S
O59 C38 1.256 . S
O60 Zn32 2.053 . S
O60 C38 1.244 . S
C61 O39 1.259 1_455 S
C61 O40 1.254 . S
O62 Zn32 2.066 1_556 S
O62 C34 1.256 . S
O63 C34 1.244 . S
O63 Zn35 2.053 . S
Zn64 O65 2.055 . S
Zn64 O72 2.046 . S
Zn64 N80 2.036 . S
Zn64 O92 2.053 . S
Zn64 O94 2.066 . S
O65 Zn64 2.055 . S
O65 C68 1.259 . S
C66 O94 1.256 . S
C66 O95 1.244 . S
Zn67 O69 2.046 . S
Zn67 O71 2.055 . S
Zn67 N73 2.036 . S
Zn67 O91 2.066 . S
Zn67 O95 2.053 . S
C68 O65 1.259 . S
C68 O69 1.254 . S
O69 Zn67 2.046 . S
O69 C68 1.254 . S
C70 O91 1.256 . S
C70 O92 1.244 . S
O71 Zn67 2.055 . S
O71 C93 1.259 . S
O72 Zn64 2.046 . S
O72 C93 1.254 . S
N73 Zn67 2.036 . S
N73 C74 1.298 . S
N73 N76 1.398 . S
C74 N73 1.298 . S
C74 N77 1.367 . S
C74 C87 1.481 . S
C75 N76 1.299 . S
C75 N77 1.379 . S
N76 N73 1.398 . S
N76 C75 1.299 . S
N77 C74 1.367 . S
N77 C75 1.379 . S
C78 N80 1.298 . S
C78 N82 1.367 . S
C78 C86 1.481 . S
C79 N81 1.299 . S
C79 N82 1.379 . S
N80 Zn64 2.036 . S
N80 C78 1.298 . S
N80 N81 1.398 . S
N81 C79 1.299 . S
N81 N80 1.398 . S
N82 C78 1.367 . S
N82 C79 1.379 . S
H83 C86 0.980 . S
H84 C86 0.981 . S
H85 C86 0.981 . S
C86 C78 1.481 . S
C86 H83 0.980 . S
C86 H84 0.981 . S
C86 H85 0.981 . S
C87 C74 1.481 . S
C87 H88 0.980 . S
C87 H89 0.981 . S
C87 H90 0.981 . S
H88 C87 0.980 . S
H89 C87 0.981 . S
H90 C87 0.981 . S
O91 Zn67 2.066 . S
O91 C70 1.256 . S
O92 Zn64 2.053 . S
O92 C70 1.244 . S
C93 O71 1.259 . S
C93 O72 1.254 . S
O94 Zn64 2.066 . S
O94 C66 1.256 . S
O95 C66 1.244 . S
O95 Zn67 2.053 . S
Zn96 O97 2.055 . S
Zn96 O104 2.046 . S
Zn96 N112 2.036 . S
Zn96 O124 2.053 . S
Zn96 O126 2.066 . S
O97 Zn96 2.055 . S
O97 C100 1.259 1_655 S
C98 O126 1.256 . S
C98 O127 1.244 . S
Zn99 O101 2.046 1_655 S
Zn99 O103 2.055 1_655 S
Zn99 N105 2.036 . S
Zn99 O123 2.066 . S
Zn99 O127 2.053 . S
C100 O97 1.259 1_455 S
C100 O101 1.254 . S
O101 Zn99 2.046 1_455 S
O101 C100 1.254 . S
C102 O123 1.256 . S
C102 O124 1.244 . S
O103 Zn99 2.055 1_455 S
O103 C125 1.259 . S
O104 Zn96 2.046 . S
O104 C125 1.254 1_655 S
N105 Zn99 2.036 . S
N105 C106 1.298 . S
N105 N108 1.398 . S
C106 N105 1.298 . S
C106 N109 1.367 . S
C106 C119 1.481 . S
C107 N108 1.299 . S
C107 N109 1.379 . S
N108 N105 1.398 . S
N108 C107 1.299 . S
N109 C106 1.367 . S
N109 C107 1.379 . S
C110 N112 1.298 . S
C110 N114 1.367 . S
C110 C118 1.481 . S
C111 N113 1.299 . S
C111 N114 1.379 . S
N112 Zn96 2.036 . S
N112 C110 1.298 . S
N112 N113 1.398 . S
N113 C111 1.299 . S
N113 N112 1.398 . S
N114 C110 1.367 . S
N114 C111 1.379 . S
H115 C118 0.980 . S
H116 C118 0.981 . S
H117 C118 0.981 . S
C118 C110 1.481 . S
C118 H115 0.980 . S
C118 H116 0.981 . S
C118 H117 0.981 . S
C119 C106 1.481 . S
C119 H120 0.980 1_655 S
C119 H121 0.981 1_655 S
C119 H122 0.981 . S
H120 C119 0.980 1_455 S
H121 C119 0.981 1_455 S
H122 C119 0.981 . S
O123 Zn99 2.066 . S
O123 C102 1.256 . S
O124 Zn96 2.053 . S
O124 C102 1.244 . S
C125 O103 1.259 . S
C125 O104 1.254 1_455 S
O126 Zn96 2.066 . S
O126 C98 1.256 . S
O127 C98 1.244 . S
O127 Zn99 2.053 . S
N45 N18 1.930 1_556 S
N77 N114 1.930 . S
N13 N50 1.930 1_446 S
N109 N82 1.930 1_645 S
C98 C29 1.428 . S
C38 C68 1.428 . S
C34 C93 1.424 . S
C102 C4 1.424 . S
C61 C66 1.428 . S
C100 C6 1.428 . S
C125 C2 1.424 . S
C70 C36 1.424 . S
