# Generated by pormake.
# Topology bnn, (5)-cn, num edge types: 1
# Building blocks:
#     Node 0, Type 0, BuildingBlock: XOMCOT_clean_sbu_0, # of connection points: 5
#     Node 1, Type 0, BuildingBlock: XOMCOT_clean_sbu_0, # of connection points: 5
#     Edge 2, Type (0, 0), BuildingBlock: AJUNOK_clean_linker_0, # of connection points: 2
#     Edge 3, Type (0, 0), BuildingBlock: AJUNOK_clean_linker_0, # of connection points: 2
#     Edge 4, Type (0, 0), BuildingBlock: AJUNOK_clean_linker_0, # of connection points: 2
#     Edge 5, Type (0, 0), BuildingBlock: AJUNOK_clean_linker_0, # of connection points: 2
#     Edge 6, Type (0, 0), BuildingBlock: AJUNOK_clean_linker_0, # of connection points: 2
# Relax obj value: 0.023
# Max RMSD: 0.077
# Mean RMSD: 0.077
data_MOF--net-bnn--node1-XOMCOT_clean_sbu_0--edge1-AJUNOK_clean_linker_0
_symmetry_space_group_name_H-M    P1
_symmetry_Int_Tables_number       1
_symmetry_cell_setting            triclinic
loop_
_symmetry_equiv_pos_as_xyz
'x, y, z'
_cell_length_a     23.144178
_cell_length_b     20.060033
_cell_length_c     13.611528
_cell_angle_alpha  105.42633
_cell_angle_beta   87.265464
_cell_angle_gamma 124.87474
loop_
_atom_site_label
_atom_site_type_symbol
_atom_site_fract_x
_atom_site_fract_y
_atom_site_fract_z
_atom_type_partial_charge
Co0 Co 0.33567 0.72598 0.05555 0.0
C1 C 0.33379 0.72496 0.27236 0.0
C2 C 0.35409 0.8402 0.25737 0.0
C3 C 0.3525 0.84354 0.35982 0.0
N4 N 0.34305 0.76628 0.203 0.0
N5 N 0.3392 0.77079 0.36881 0.0
H6 H 0.32326 0.66271 0.25258 0.0
H7 H 0.36068 0.8872 0.22457 0.0
C8 C 0.46775 0.87045 0.99947 0.0
O9 O 0.4756 0.81574 0.93379 0.0
N10 N 0.32674 0.68561 0.9064 0.0
C11 C 0.31092 0.61002 0.84739 0.0
C12 C 0.30562 0.60604 0.74564 0.0
C13 C 0.3286 0.72533 0.83881 0.0
N14 N 0.31645 0.67836 0.74025 0.0
C15 C 0.36452 0.60603 0.05811 0.0
C16 C 0.50827 0.71835 0.12568 0.0
C17 C 0.47613 0.63087 0.10302 0.0
C18 C 0.40324 0.57477 0.06949 0.0
C19 C 0.46714 0.74718 0.11282 0.0
N20 N 0.39668 0.69081 0.07401 0.0
H21 H 0.30802 0.56086 1.03616 0.0
H22 H 0.492 0.81464 0.13627 0.0
H23 H 0.30207 0.5595 0.87422 0.0
H24 H 0.33811 0.78714 0.86133 0.0
O25 O 0.24488 0.62234 0.05403 0.0
O26 O 0.26001 0.73887 0.04091 0.0
O27 O 0.41767 0.84442 0.05557 0.0
C28 C 0.21665 0.6608 0.04394 0.0
H29 H 0.35851 0.89432 0.42252 0.0
H30 H 0.29551 0.55418 0.68066 0.0
H31 H 0.56429 0.76393 0.15452 0.0
H32 H 0.37605 0.5067 0.0509 0.0
Co33 Co 0.67221 0.3992 0.05848 0.0
C34 C 0.67115 0.3957 0.83664 0.0
C35 C 0.57797 0.28566 0.86419 0.0
C36 C 0.57178 0.27881 0.76123 0.0
N37 N 0.64107 0.35811 0.91135 0.0
N38 N 0.63057 0.34807 0.74439 0.0
H39 H 0.72073 0.457 0.84797 0.0
H40 H 0.53852 0.24132 0.90253 0.0
C41 C 0.64007 0.22447 0.9932 0.0
O42 O 0.67654 0.24331 0.91579 0.0
N43 N 0.70057 0.43841 0.20471 0.0
C44 C 0.75804 0.51399 0.25963 0.0
C45 C 0.75861 0.51549 0.36142 0.0
C46 C 0.66666 0.3953 0.27314 0.0
N47 N 0.70138 0.44058 0.36951 0.0
C48 C 0.81175 0.50245 1.0054 0.0
C49 C 0.86805 0.42995 0.07188 0.0
C50 C 0.91237 0.49936 1.03336 0.0
C51 C 0.88308 0.53536 0.99967 0.0
C52 C 0.79626 0.39786 0.07441 0.0
N53 N 0.76814 0.43223 1.03801 0.0
H54 H 0.79279 0.53666 0.98814 0.0
H55 H 0.76459 0.34847 0.11099 0.0
H56 H 0.79692 0.5642 0.22783 0.0
H57 H 0.61689 0.33285 0.25294 0.0
O58 O 0.68589 0.50484 0.06475 0.0
O59 O 0.5854 0.38996 0.08339 0.0
O60 O 0.63658 0.28076 0.05844 0.0
C61 C 0.62009 0.46838 0.08153 0.0
H62 H 0.52667 0.2283 0.70399 0.0
H63 H 0.79852 0.5672 0.42445 0.0
H64 H 0.88917 0.40296 0.10402 0.0
H65 H 0.9155 0.59028 0.97165 0.0
C66 C 0.57914 0.62296 0.06236 0.0
C67 C 0.51756 0.59658 0.11069 0.0
C68 C 0.61311 0.58248 0.05557 0.0
C69 C 0.58632 0.5138 0.09612 0.0
H70 H 0.59951 0.67283 1.02581 0.0
H71 H 0.6592 0.60322 1.01504 0.0
S72 S 0.43302 0.42905 0.24368 0.0
N73 N 0.43621 0.50434 0.21037 0.0
N74 N 0.49897 0.427 0.19533 0.0
C75 C 0.52686 0.48954 0.14887 0.0
C76 C 0.49281 0.53132 0.15682 0.0
C77 C 0.0389 0.62765 0.06803 0.0
C78 C 0.9898 0.53853 1.03475 0.0
C79 C 0.11208 0.66668 0.06917 0.0
C80 C 0.13913 0.61814 0.03859 0.0
H81 H 1.02077 0.66782 0.0947 0.0
H82 H 0.14775 0.73537 0.09613 0.0
S83 S 0.03365 0.38314 0.93957 0.0
N84 N 0.97371 0.40319 0.96548 0.0
N85 N 0.11151 0.47652 0.97089 0.0
C86 C 0.09093 0.52911 1.00491 0.0
C87 C 1.01626 0.48932 1.00239 0.0
C88 C 0.56572 0.99045 0.93661 0.0
C89 C 0.51477 0.96235 1.00488 0.0
C90 C 0.60698 0.07543 0.93489 0.0
C91 C 0.5993 0.13621 1.00153 0.0
H92 H 0.57302 0.94619 0.88235 0.0
H93 H 0.64452 0.09316 0.87966 0.0
S94 S 0.47453 0.09642 0.19706 0.0
N95 N 0.46048 1.00358 0.14284 0.0
N96 N 0.53724 0.16212 0.13924 0.0
C97 C 0.54963 0.10942 0.07175 0.0
C98 C 0.50765 1.02297 0.07347 0.0
C99 C 0.37004 0.78534 0.64503 0.0
C100 C 0.31861 0.70179 0.64809 0.0
C101 C 0.37614 0.80762 0.5537 0.0
C102 C 0.3312 0.74708 0.46223 0.0
H103 H 0.40704 0.83316 0.71296 0.0
H104 H 0.41735 0.87217 0.55393 0.0
S105 S 0.18176 0.5229 0.43315 0.0
N106 N 0.21765 0.56052 0.55421 0.0
N107 N 0.22952 0.60235 0.38279 0.0
C108 C 0.27812 0.66415 0.46517 0.0
C109 C 0.27171 0.64154 0.55805 0.0
C110 C 0.69455 0.47565 0.55588 0.0
C111 C 0.68174 0.41534 0.4623 0.0
C112 C 0.67725 0.4531 0.6475 0.0
C113 C 0.64623 0.36932 0.64894 0.0
H114 H 0.71767 0.5407 0.55813 0.0
H115 H 0.68765 0.50139 0.7177 0.0
S116 S 0.60749 0.18914 0.42704 0.0
N117 N 0.64004 0.26925 0.3782 0.0
N118 N 0.60674 0.22687 0.55037 0.0
C119 C 0.63347 0.30846 0.55627 0.0
C120 C 0.65141 0.33145 0.46296 0.0
loop_
_geom_bond_atom_site_label_1
_geom_bond_atom_site_label_2
_geom_bond_distance
_geom_bond_site_symmetry_2
_ccdc_geom_bond_type
Co0 N4 2.148 . S
Co0 N10 2.128 1_554 S
Co0 N20 2.194 . S
Co0 O25 2.351 . S
Co0 O26 2.155 . S
Co0 O27 2.096 . S
C1 N4 1.301 . S
C1 N5 1.328 . S
C1 H6 0.930 . S
C2 C3 1.333 . S
C2 N4 1.317 . S
C2 H7 0.930 . S
C3 C2 1.333 . S
C3 N5 1.350 . S
C3 H29 0.931 . S
N4 Co0 2.148 . S
N4 C1 1.301 . S
N4 C2 1.317 . S
N5 C1 1.328 . S
N5 C3 1.350 . S
H6 C1 0.930 . S
H7 C2 0.930 . S
C8 O9 1.224 . S
C8 O27 1.247 . S
O9 C8 1.224 . S
N10 Co0 2.128 1_556 S
N10 C11 1.355 . S
N10 C13 1.311 . S
C11 N10 1.355 . S
C11 C12 1.363 . S
C11 H23 0.929 . S
C12 C11 1.363 . S
C12 N14 1.375 . S
C12 H30 0.931 . S
C13 N10 1.311 . S
C13 N14 1.347 . S
C13 H24 0.929 . S
N14 C12 1.375 . S
N14 C13 1.347 . S
C15 C18 1.365 . S
C15 N20 1.328 . S
C15 H21 0.929 . S
C16 C17 1.362 . S
C16 C19 1.378 . S
C16 H31 0.929 . S
C17 C16 1.362 . S
C17 C18 1.366 . S
C18 C15 1.365 . S
C18 C17 1.366 . S
C18 H32 0.930 . S
C19 C16 1.378 . S
C19 N20 1.315 . S
C19 H22 0.930 . S
N20 Co0 2.194 . S
N20 C15 1.328 . S
N20 C19 1.315 . S
H21 C15 0.929 . S
H22 C19 0.930 . S
H23 C11 0.929 . S
H24 C13 0.929 . S
O25 Co0 2.351 . S
O25 C28 1.244 . S
O26 Co0 2.155 . S
O26 C28 1.240 . S
O27 Co0 2.096 . S
O27 C8 1.247 . S
C28 O25 1.244 . S
C28 O26 1.240 . S
H29 C3 0.931 . S
H30 C12 0.931 . S
H31 C16 0.929 . S
H32 C18 0.930 . S
Co33 N37 2.148 1_554 S
Co33 N43 2.128 . S
Co33 N53 2.194 . S
Co33 O58 2.351 . S
Co33 O59 2.155 . S
Co33 O60 2.096 . S
C34 N37 1.301 . S
C34 N38 1.328 . S
C34 H39 0.930 . S
C35 C36 1.333 . S
C35 N37 1.317 . S
C35 H40 0.930 . S
C36 C35 1.333 . S
C36 N38 1.350 . S
C36 H62 0.931 . S
N37 Co33 2.148 1_556 S
N37 C34 1.301 . S
N37 C35 1.317 . S
N38 C34 1.328 . S
N38 C36 1.350 . S
H39 C34 0.930 . S
H40 C35 0.930 . S
C41 O42 1.224 . S
C41 O60 1.247 . S
O42 C41 1.224 . S
N43 Co33 2.128 . S
N43 C44 1.355 . S
N43 C46 1.311 . S
C44 N43 1.355 . S
C44 C45 1.363 . S
C44 H56 0.929 . S
C45 C44 1.363 . S
C45 N47 1.375 . S
C45 H63 0.931 . S
C46 N43 1.311 . S
C46 N47 1.347 . S
C46 H57 0.929 . S
N47 C45 1.375 . S
N47 C46 1.347 . S
C48 C51 1.365 1_556 S
C48 N53 1.328 1_556 S
C48 H54 0.929 . S
C49 C50 1.362 . S
C49 C52 1.378 . S
C49 H64 0.929 . S
C50 C49 1.362 . S
C50 C51 1.366 . S
C51 C48 1.365 1_554 S
C51 C50 1.366 . S
C51 H65 0.930 . S
C52 C49 1.378 . S
C52 N53 1.315 . S
C52 H55 0.930 . S
N53 Co33 2.194 . S
N53 C48 1.328 1_554 S
N53 C52 1.315 . S
H54 C48 0.929 . S
H55 C52 0.930 . S
H56 C44 0.929 . S
H57 C46 0.929 . S
O58 Co33 2.351 . S
O58 C61 1.244 . S
O59 Co33 2.155 . S
O59 C61 1.240 . S
O60 Co33 2.096 . S
O60 C41 1.247 . S
C61 O58 1.244 . S
C61 O59 1.240 . S
H62 C36 0.931 . S
H63 C45 0.931 . S
H64 C49 0.929 . S
H65 C51 0.930 . S
C66 C67 1.369 1_556 S
C66 C68 1.419 . S
C66 H70 0.930 . S
C67 C66 1.369 1_554 S
C67 C76 1.429 . S
C68 C66 1.419 . S
C68 C69 1.363 1_556 S
C68 H71 0.929 . S
C69 C68 1.363 1_554 S
C69 C75 1.428 . S
H70 C66 0.930 . S
H71 C68 0.929 . S
S72 N73 1.613 . S
S72 N74 1.610 . S
N73 S72 1.613 . S
N73 C76 1.350 . S
N74 S72 1.610 . S
N74 C75 1.351 . S
C75 C69 1.428 . S
C75 N74 1.351 . S
C75 C76 1.434 . S
C76 C67 1.429 . S
C76 N73 1.350 . S
C76 C75 1.434 . S
C77 C78 1.369 1_455 S
C77 C79 1.419 . S
C77 H81 0.930 1_455 S
C78 C77 1.369 1_655 S
C78 C87 1.429 . S
C79 C77 1.419 . S
C79 C80 1.363 . S
C79 H82 0.929 . S
C80 C79 1.363 . S
C80 C86 1.428 . S
H81 C77 0.930 1_655 S
H82 C79 0.929 . S
S83 N84 1.613 1_455 S
S83 N85 1.610 . S
N84 S83 1.613 1_655 S
N84 C87 1.350 1_556 S
N85 S83 1.610 . S
N85 C86 1.351 1_556 S
C86 C80 1.428 . S
C86 N85 1.351 1_554 S
C86 C87 1.434 1_455 S
C87 C78 1.429 . S
C87 N84 1.350 1_554 S
C87 C86 1.434 1_655 S
C88 C89 1.369 . S
C88 C90 1.419 1_565 S
C88 H92 0.930 . S
C89 C88 1.369 . S
C89 C98 1.429 1_554 S
C90 C88 1.419 1_545 S
C90 C91 1.363 . S
C90 H93 0.929 . S
C91 C90 1.363 . S
C91 C97 1.428 1_554 S
H92 C88 0.930 . S
H93 C90 0.929 . S
S94 N95 1.613 . S
S94 N96 1.610 1_565 S
N95 S94 1.613 . S
N95 C98 1.350 . S
N96 S94 1.610 1_545 S
N96 C97 1.351 . S
C97 C91 1.428 1_556 S
C97 N96 1.351 . S
C97 C98 1.434 1_545 S
C98 C89 1.429 1_556 S
C98 N95 1.350 . S
C98 C97 1.434 1_565 S
C99 C100 1.369 . S
C99 C101 1.419 . S
C99 H103 0.930 . S
C100 C99 1.369 . S
C100 C109 1.429 . S
C101 C99 1.419 . S
C101 C102 1.363 . S
C101 H104 0.929 . S
C102 C101 1.363 . S
C102 C108 1.428 . S
H103 C99 0.930 . S
H104 C101 0.929 . S
S105 N106 1.613 . S
S105 N107 1.610 . S
N106 S105 1.613 . S
N106 C109 1.350 . S
N107 S105 1.610 . S
N107 C108 1.351 . S
C108 C102 1.428 . S
C108 N107 1.351 . S
C108 C109 1.434 . S
C109 C100 1.429 . S
C109 N106 1.350 . S
C109 C108 1.434 . S
C110 C111 1.369 . S
C110 C112 1.419 . S
C110 H114 0.930 . S
C111 C110 1.369 . S
C111 C120 1.429 . S
C112 C110 1.419 . S
C112 C113 1.363 . S
C112 H115 0.929 . S
C113 C112 1.363 . S
C113 C119 1.428 . S
H114 C110 0.930 . S
H115 C112 0.929 . S
S116 N117 1.613 . S
S116 N118 1.610 . S
N117 S116 1.613 . S
N117 C120 1.350 . S
N118 S116 1.610 . S
N118 C119 1.351 . S
C119 C113 1.428 . S
C119 N118 1.351 . S
C119 C120 1.434 . S
C120 C111 1.429 . S
C120 N117 1.350 . S
C120 C119 1.434 . S
C67 C17 1.498 . S
C69 C61 1.500 . S
C78 C50 1.499 . S
C80 C28 1.501 . S
C89 C8 1.501 . S
C91 C41 1.501 . S
C100 N14 1.473 . S
C102 N5 1.483 . S
C111 N47 1.480 . S
C113 N38 1.478 . S
