# Generated by pormake.
# Topology sra, (4)-cn, num edge types: 1
# Building blocks:
#     Node 0, Type 0, BuildingBlock: QUQFOY_clean_sbu_3, # of connection points: 4
#     Node 1, Type 0, BuildingBlock: QUQFOY_clean_sbu_3, # of connection points: 4
#     Node 2, Type 0, BuildingBlock: QUQFOY_clean_sbu_3, # of connection points: 4
#     Node 3, Type 0, BuildingBlock: QUQFOY_clean_sbu_3, # of connection points: 4
#     Node 4, Type 0, BuildingBlock: QUQFOY_clean_sbu_3, # of connection points: 4
#     Node 5, Type 0, BuildingBlock: QUQFOY_clean_sbu_3, # of connection points: 4
#     Node 6, Type 0, BuildingBlock: QUQFOY_clean_sbu_3, # of connection points: 4
#     Node 7, Type 0, BuildingBlock: QUQFOY_clean_sbu_3, # of connection points: 4
#     Edge 8, Type (0, 0), None
#     Edge 9, Type (0, 0), None
#     Edge 10, Type (0, 0), None
#     Edge 11, Type (0, 0), None
#     Edge 12, Type (0, 0), None
#     Edge 13, Type (0, 0), None
#     Edge 14, Type (0, 0), None
#     Edge 15, Type (0, 0), None
#     Edge 16, Type (0, 0), None
#     Edge 17, Type (0, 0), None
#     Edge 18, Type (0, 0), None
#     Edge 19, Type (0, 0), None
#     Edge 20, Type (0, 0), None
#     Edge 21, Type (0, 0), None
#     Edge 22, Type (0, 0), None
#     Edge 23, Type (0, 0), None
# Relax obj value: 0.027
# Max RMSD: 0.064
# Mean RMSD: 0.064
data_MOF--net-sra--node1-QUQFOY_clean_sbu_3--edge1-none
_symmetry_space_group_name_H-M    P1
_symmetry_Int_Tables_number       1
_symmetry_cell_setting            triclinic
loop_
_symmetry_equiv_pos_as_xyz
'x, y, z'
_cell_length_a     13.228268
_cell_length_b     22.119559
_cell_length_c     20.462951
_cell_angle_alpha  89.999627
_cell_angle_beta   90.0
_cell_angle_gamma 90.001224
loop_
_atom_site_label
_atom_site_type_symbol
_atom_site_fract_x
_atom_site_fract_y
_atom_site_fract_z
_atom_type_partial_charge
C0 C 0.17913 0.10952 0.12666 0.0
O1 O 0.13521 0.11371 0.1817 0.0
Cd2 Cd 0.96181 0.14406 0.1946 0.0
O3 O 0.12991 0.11526 0.07346 0.0
Cd4 Cd 0.95626 0.13015 0.03063 0.0
C5 C -0.02145 0.27195 0.09432 0.0
O6 O 0.86441 0.08632 0.12073 0.0
O7 O 0.77235 0.13272 0.04968 0.0
O8 O -0.02892 1.04162 -0.03981 0.0
C9 C 0.77731 0.10347 0.10288 0.0
O10 O -0.02883 0.24595 0.14974 0.0
C11 C 0.96119 0.07067 -0.0929 0.0
O12 O -0.02288 0.2417 0.04112 0.0
O13 O 0.94989 0.12766 -0.089 0.0
C14 C 0.79001 0.50058 0.12666 0.0
O15 O 0.83393 0.49639 0.1817 0.0
Cd16 Cd 0.00734 0.46604 0.1946 0.0
O17 O 0.83923 0.49484 0.07346 0.0
Cd18 Cd 0.01288 0.47995 0.03063 0.0
C19 C -0.00941 0.33815 0.09432 0.0
O20 O 0.10473 0.52378 0.12073 0.0
O21 O 0.19679 0.47738 0.04968 0.0
O22 O -0.00194 0.56848 -0.03981 0.0
C23 C 0.19184 0.50663 0.10288 0.0
O24 O -0.00203 0.36415 0.14974 0.0
C25 C 0.00795 0.53944 -0.0929 0.0
O26 O -0.00798 0.3684 0.04112 0.0
O27 O 0.01925 0.48245 -0.08899 0.0
C28 C 0.17914 1.00059 0.62436 0.0
O29 O 0.13523 0.9964 0.56932 0.0
Cd30 Cd 0.96182 0.96604 0.55642 0.0
O31 O 0.12993 0.99484 0.67755 0.0
Cd32 Cd 0.95627 0.97995 0.72038 0.0
C33 C -0.02144 0.83815 0.65669 0.0
O34 O 0.86443 1.02378 0.63028 0.0
O35 O 0.77236 0.97738 0.70133 0.0
O36 O -0.02891 0.06848 0.79082 0.0
C37 C 0.77732 1.00663 0.64813 0.0
O38 O -0.02882 0.86416 0.60128 0.0
C39 C 0.96119 1.03944 0.84392 0.0
O40 O -0.02287 0.8684 0.7099 0.0
O41 O 0.94989 0.98245 0.84001 0.0
C42 C 0.79 0.60952 0.62436 0.0
O43 O 0.83391 0.61371 0.56932 0.0
Cd44 Cd 0.00732 0.64406 0.55642 0.0
O45 O 0.83922 0.61526 0.67755 0.0
Cd46 Cd 0.01287 0.63015 0.72038 0.0
C47 C -0.00941 0.77195 0.65669 0.0
O48 O 0.10471 0.58632 0.63028 0.0
O49 O 0.19678 0.63272 0.70133 0.0
O50 O -0.00195 0.54162 0.79082 0.0
C51 C 0.19182 0.60348 0.64813 0.0
O52 O -0.00203 0.74595 0.60128 0.0
C53 C 0.00795 0.57067 0.84392 0.0
O54 O -0.00798 0.7417 0.70989 0.0
O55 O 0.01925 0.62766 0.84001 0.0
C56 C 0.67913 0.60951 0.62664 0.0
O57 O 0.63524 0.61371 0.68169 0.0
Cd58 Cd 0.46184 0.64406 0.69461 0.0
O59 O 0.62992 0.61526 0.57344 0.0
Cd60 Cd 0.45625 0.63015 0.53063 0.0
C61 C 0.47856 0.77195 0.59433 0.0
O62 O 0.36444 0.58633 0.62075 0.0
O63 O 0.27234 0.63272 0.54969 0.0
O64 O 0.47106 0.54162 0.46019 0.0
C65 C 0.27734 0.6035 0.60291 0.0
O66 O 0.47119 0.74595 0.64974 0.0
C67 C 0.46116 0.57067 0.4071 0.0
O68 O 0.47712 0.7417 0.54113 0.0
O69 O 0.44987 0.62766 0.41101 0.0
C70 C 0.29001 1.0006 0.62664 0.0
O71 O 0.33391 0.9964 0.68169 0.0
Cd72 Cd 0.5073 0.96604 0.69461 0.0
O73 O 0.33922 0.99484 0.57344 0.0
Cd74 Cd 0.51289 0.97995 0.53063 0.0
C75 C 0.49059 0.83815 0.59433 0.0
O76 O 0.6047 1.02378 0.62075 0.0
O77 O 0.69681 0.97739 0.54969 0.0
O78 O 0.49809 0.06848 0.46019 0.0
C79 C 0.6918 1.00661 0.60291 0.0
O80 O 0.49796 0.86415 0.64974 0.0
C81 C 0.50798 1.03944 0.4071 0.0
O82 O 0.49203 0.8684 0.54113 0.0
O83 O 0.51928 0.98245 0.41101 0.0
C84 C 0.67915 0.5006 0.12438 0.0
O85 O 0.63525 0.4964 0.06933 0.0
Cd86 Cd 0.46185 0.46604 0.05641 0.0
O87 O 0.62993 0.49484 0.17758 0.0
Cd88 Cd 0.45626 0.47995 0.22038 0.0
C89 C 0.47856 0.33816 0.15669 0.0
O90 O 0.36446 0.52378 0.13027 0.0
O91 O 0.27235 0.47739 0.20132 0.0
O92 O 0.47106 0.56848 0.29082 0.0
C93 C 0.27735 0.5066 0.1481 0.0
O94 O 0.47119 0.36416 0.10127 0.0
C95 C 0.46116 0.53944 0.34392 0.0
O96 O 0.47712 0.3684 0.20989 0.0
O97 O 0.44987 0.48245 0.34001 0.0
C98 C 0.28999 0.10951 0.12438 0.0
O99 O 0.33389 0.11371 0.06933 0.0
Cd100 Cd 0.50729 0.14406 0.05641 0.0
O101 O 0.33921 0.11526 0.17757 0.0
Cd102 Cd 0.51288 0.13015 0.22038 0.0
C103 C 0.49059 0.27195 0.15669 0.0
O104 O 0.60469 0.08633 0.13027 0.0
O105 O 0.6968 0.13272 0.20132 0.0
O106 O 0.49808 1.04162 0.29082 0.0
C107 C 0.69179 0.1035 0.1481 0.0
O108 O 0.49795 0.24595 0.10127 0.0
C109 C 0.50798 0.07067 0.34392 0.0
O110 O 0.49202 0.2417 0.20989 0.0
O111 O 0.51928 0.12766 0.34001 0.0
loop_
_geom_bond_atom_site_label_1
_geom_bond_atom_site_label_2
_geom_bond_distance
_geom_bond_site_symmetry_2
_ccdc_geom_bond_type
C0 O1 1.306 . S
C0 O3 1.160 . S
O1 C0 1.306 . S
O1 Cd2 2.226 1_455 S
Cd2 O1 2.226 1_655 S
Cd2 O6 2.274 . S
Cd2 O10 2.277 1_655 S
O3 C0 1.160 . S
O3 Cd4 2.203 . S
Cd4 O3 2.203 . S
Cd4 O6 2.411 1_455 S
Cd4 O7 2.333 1_455 S
Cd4 O8 2.352 . S
Cd4 O12 2.277 . S
Cd4 O13 2.356 1_454 S
C5 O10 1.209 . S
C5 O12 1.226 . S
O6 Cd2 2.274 . S
O6 Cd4 2.411 1_655 S
O6 C9 1.320 . S
O7 Cd4 2.333 1_655 S
O7 C9 1.214 . S
O8 Cd4 2.352 . S
O8 C11 1.258 . S
C9 O6 1.320 . S
C9 O7 1.214 . S
O10 Cd2 2.277 1_455 S
O10 C5 1.209 . S
C11 O8 1.258 . S
C11 O13 1.282 1_454 S
O12 Cd4 2.277 . S
O12 C5 1.226 . S
O13 Cd4 2.356 1_656 S
O13 C11 1.282 1_656 S
C14 O15 1.306 . S
C14 O17 1.160 . S
O15 C14 1.306 . S
O15 Cd16 2.228 1_655 S
Cd16 O15 2.228 1_455 S
Cd16 O20 2.273 . S
Cd16 O24 2.277 . S
O17 C14 1.160 . S
O17 Cd18 2.203 1_655 S
Cd18 O17 2.203 1_455 S
Cd18 O20 2.411 . S
Cd18 O21 2.333 . S
Cd18 O22 2.352 . S
Cd18 O26 2.277 . S
Cd18 O27 2.356 1_554 S
C19 O24 1.209 . S
C19 O26 1.226 . S
O20 Cd16 2.273 . S
O20 Cd18 2.411 . S
O20 C23 1.320 . S
O21 Cd18 2.333 . S
O21 C23 1.214 . S
O22 Cd18 2.352 . S
O22 C25 1.258 . S
C23 O20 1.320 . S
C23 O21 1.214 . S
O24 Cd16 2.277 . S
O24 C19 1.209 . S
C25 O22 1.258 . S
C25 O27 1.282 1_554 S
O26 Cd18 2.277 . S
O26 C19 1.226 . S
O27 Cd18 2.356 1_556 S
O27 C25 1.282 1_556 S
C28 O29 1.306 . S
C28 O31 1.160 . S
O29 C28 1.306 . S
O29 Cd30 2.226 1_455 S
Cd30 O29 2.226 1_655 S
Cd30 O34 2.274 . S
Cd30 O38 2.277 1_655 S
O31 C28 1.160 . S
O31 Cd32 2.203 . S
Cd32 O31 2.203 . S
Cd32 O34 2.411 1_455 S
Cd32 O35 2.333 1_455 S
Cd32 O36 2.352 . S
Cd32 O40 2.277 . S
Cd32 O41 2.356 1_456 S
C33 O38 1.209 . S
C33 O40 1.226 . S
O34 Cd30 2.274 . S
O34 Cd32 2.411 1_655 S
O34 C37 1.320 . S
O35 Cd32 2.333 1_655 S
O35 C37 1.214 . S
O36 Cd32 2.352 . S
O36 C39 1.258 . S
C37 O34 1.320 . S
C37 O35 1.214 . S
O38 Cd30 2.277 1_455 S
O38 C33 1.209 . S
C39 O36 1.258 . S
C39 O41 1.282 1_456 S
O40 Cd32 2.277 . S
O40 C33 1.226 . S
O41 Cd32 2.356 1_654 S
O41 C39 1.282 1_654 S
C42 O43 1.306 . S
C42 O45 1.160 . S
O43 C42 1.306 . S
O43 Cd44 2.228 1_655 S
Cd44 O43 2.228 1_455 S
Cd44 O48 2.273 . S
Cd44 O52 2.277 . S
O45 C42 1.160 . S
O45 Cd46 2.203 1_655 S
Cd46 O45 2.203 1_455 S
Cd46 O48 2.411 . S
Cd46 O49 2.333 . S
Cd46 O50 2.352 . S
Cd46 O54 2.277 . S
Cd46 O55 2.356 1_556 S
C47 O52 1.209 . S
C47 O54 1.226 . S
O48 Cd44 2.273 . S
O48 Cd46 2.411 . S
O48 C51 1.320 . S
O49 Cd46 2.333 . S
O49 C51 1.214 . S
O50 Cd46 2.352 . S
O50 C53 1.258 . S
C51 O48 1.320 . S
C51 O49 1.214 . S
O52 Cd44 2.277 . S
O52 C47 1.209 . S
C53 O50 1.258 . S
C53 O55 1.282 1_556 S
O54 Cd46 2.277 . S
O54 C47 1.226 . S
O55 Cd46 2.356 1_554 S
O55 C53 1.282 1_554 S
C56 O57 1.306 . S
C56 O59 1.160 . S
O57 C56 1.306 . S
O57 Cd58 2.228 . S
Cd58 O57 2.228 . S
Cd58 O62 2.273 . S
Cd58 O66 2.277 . S
O59 C56 1.160 . S
O59 Cd60 2.203 . S
Cd60 O59 2.203 . S
Cd60 O62 2.411 . S
Cd60 O63 2.333 . S
Cd60 O64 2.352 . S
Cd60 O68 2.277 . S
Cd60 O69 2.356 . S
C61 O66 1.209 . S
C61 O68 1.226 . S
O62 Cd58 2.273 . S
O62 Cd60 2.411 . S
O62 C65 1.320 . S
O63 Cd60 2.333 . S
O63 C65 1.214 . S
O64 Cd60 2.352 . S
O64 C67 1.258 . S
C65 O62 1.320 . S
C65 O63 1.214 . S
O66 Cd58 2.277 . S
O66 C61 1.209 . S
C67 O64 1.258 . S
C67 O69 1.282 . S
O68 Cd60 2.277 . S
O68 C61 1.226 . S
O69 Cd60 2.356 . S
O69 C67 1.282 . S
C70 O71 1.306 . S
C70 O73 1.160 . S
O71 C70 1.306 . S
O71 Cd72 2.228 . S
Cd72 O71 2.228 . S
Cd72 O76 2.273 . S
Cd72 O80 2.277 . S
O73 C70 1.160 . S
O73 Cd74 2.203 . S
Cd74 O73 2.203 . S
Cd74 O76 2.411 . S
Cd74 O77 2.333 . S
Cd74 O78 2.352 . S
Cd74 O82 2.277 . S
Cd74 O83 2.356 . S
C75 O80 1.209 . S
C75 O82 1.226 . S
O76 Cd72 2.273 . S
O76 Cd74 2.411 . S
O76 C79 1.320 . S
O77 Cd74 2.333 . S
O77 C79 1.214 . S
O78 Cd74 2.352 . S
O78 C81 1.258 . S
C79 O76 1.320 . S
C79 O77 1.214 . S
O80 Cd72 2.277 . S
O80 C75 1.209 . S
C81 O78 1.258 . S
C81 O83 1.282 . S
O82 Cd74 2.277 . S
O82 C75 1.226 . S
O83 Cd74 2.356 . S
O83 C81 1.282 . S
C84 O85 1.306 . S
C84 O87 1.160 . S
O85 C84 1.306 . S
O85 Cd86 2.228 . S
Cd86 O85 2.228 . S
Cd86 O90 2.273 . S
Cd86 O94 2.277 . S
O87 C84 1.160 . S
O87 Cd88 2.203 . S
Cd88 O87 2.203 . S
Cd88 O90 2.411 . S
Cd88 O91 2.333 . S
Cd88 O92 2.352 . S
Cd88 O96 2.277 . S
Cd88 O97 2.356 . S
C89 O94 1.209 . S
C89 O96 1.226 . S
O90 Cd86 2.273 . S
O90 Cd88 2.411 . S
O90 C93 1.320 . S
O91 Cd88 2.333 . S
O91 C93 1.214 . S
O92 Cd88 2.352 . S
O92 C95 1.258 . S
C93 O90 1.320 . S
C93 O91 1.214 . S
O94 Cd86 2.277 . S
O94 C89 1.209 . S
C95 O92 1.258 . S
C95 O97 1.282 . S
O96 Cd88 2.277 . S
O96 C89 1.226 . S
O97 Cd88 2.356 . S
O97 C95 1.282 . S
C98 O99 1.306 . S
C98 O101 1.160 . S
O99 C98 1.306 . S
O99 Cd100 2.228 . S
Cd100 O99 2.228 . S
Cd100 O104 2.273 . S
Cd100 O108 2.277 . S
O101 C98 1.160 . S
O101 Cd102 2.203 . S
Cd102 O101 2.203 . S
Cd102 O104 2.411 . S
Cd102 O105 2.333 . S
Cd102 O106 2.352 . S
Cd102 O110 2.277 . S
Cd102 O111 2.356 . S
C103 O108 1.209 . S
C103 O110 1.226 . S
O104 Cd100 2.273 . S
O104 Cd102 2.411 . S
O104 C107 1.320 . S
O105 Cd102 2.333 . S
O105 C107 1.214 . S
O106 Cd102 2.352 . S
O106 C109 1.258 . S
C107 O104 1.320 . S
C107 O105 1.214 . S
O108 Cd100 2.277 . S
O108 C103 1.209 . S
C109 O106 1.258 . S
C109 O111 1.282 . S
O110 Cd102 2.277 . S
O110 C103 1.226 . S
O111 Cd102 2.356 . S
O111 C109 1.282 . S
C19 C5 1.451 . S
C33 C47 1.451 . S
C61 C75 1.451 . S
C89 C103 1.451 . S
C98 C0 1.465 . S
C84 C14 1.465 . S
C28 C70 1.465 . S
C56 C42 1.465 . S
C79 C37 1.435 . S
C65 C51 1.435 . S
C107 C9 1.435 . S
C23 C93 1.435 . S
C11 C39 1.410 1_544 S
C53 C25 1.410 1_556 S
C95 C67 1.410 . S
C81 C109 1.410 1_565 S
