# Generated by pormake.
# Topology hex, (8)-cn, num edge types: 1
# Building blocks:
#     Node 0, Type 0, BuildingBlock: XADDAJ01_clean_sbu_3, # of connection points: 8
#     Edge 1, Type (0, 0), BuildingBlock: FUNLAD_clean_linker_0, # of connection points: 2
#     Edge 2, Type (0, 0), BuildingBlock: FUNLAD_clean_linker_0, # of connection points: 2
#     Edge 3, Type (0, 0), BuildingBlock: FUNLAD_clean_linker_0, # of connection points: 2
#     Edge 4, Type (0, 0), BuildingBlock: FUNLAD_clean_linker_0, # of connection points: 2
# Relax obj value: 0.036
# Max RMSD: 0.100
# Mean RMSD: 0.100
data_MOF--net-hex--node1-XADDAJ01_clean_sbu_3--edge1-FUNLAD_clean_linker_0
_symmetry_space_group_name_H-M    P1
_symmetry_Int_Tables_number       1
_symmetry_cell_setting            triclinic
loop_
_symmetry_equiv_pos_as_xyz
'x, y, z'
_cell_length_a     24.296423
_cell_length_b     20.414112
_cell_length_c     17.317989
_cell_angle_alpha  113.43718
_cell_angle_beta   100.62353
_cell_angle_gamma 112.70806
loop_
_atom_site_label
_atom_site_type_symbol
_atom_site_fract_x
_atom_site_fract_y
_atom_site_fract_z
_atom_type_partial_charge
C0 C 0.8155 0.86009 0.95989 0.0
C1 C 0.7901 0.79188 0.9726 0.0
C2 C 0.74018 0.77782 0.00519 0.0
C3 C 0.71663 0.83264 0.02575 0.0
C4 C 0.73958 0.89872 0.01079 0.0
C5 C 0.78902 0.91239 0.97768 0.0
O6 O 0.03573 0.93989 0.0808 0.0
Tb7 Tb 0.97318 0.88236 0.93899 0.0
Tb8 Tb 0.08284 0.09799 0.05673 0.0
O9 O 0.96874 0.76822 0.91939 0.0
O10 O 0.04159 0.06519 0.14572 0.0
O11 O 0.87168 0.81083 0.87321 0.0
C12 C 0.18986 0.10432 0.07403 0.0
O13 O 0.92191 0.94445 0.97412 0.0
O14 O 1.02011 0.04089 0.91515 0.0
O15 O 1.01397 0.91539 0.84977 0.0
C16 C 0.86565 0.87456 0.92128 0.0
C17 C 0.03519 0.21737 0.0676 0.0
O18 O 0.98219 0.15516 0.05475 0.0
C19 C 0.03509 -0.00091 0.14798 0.0
C20 C 1.02022 0.98144 0.84755 0.0
O21 O 0.08827 0.21265 0.07657 0.0
C22 C 0.24009 0.11844 0.03552 0.0
C23 C 0.31567 0.07902 0.98461 0.0
C24 C 0.26616 0.06568 0.01759 0.0
C25 C 0.26596 0.18673 0.02305 0.0
C26 C 0.31595 0.20046 0.99057 0.0
C27 C 0.3391 0.14521 0.96989 0.0
C28 C 1.02223 0.76442 0.92935 0.0
O29 O 0.07516 0.82724 0.94301 0.0
O30 O 0.18436 0.16841 0.12255 0.0
O31 O 0.13333 0.03488 0.0209 0.0
H32 H 0.80801 0.74912 0.95567 0.0
H33 H 0.67632 0.82019 0.04718 0.0
H34 H 0.806 0.96269 0.96429 0.0
H35 H 0.2488 0.0153 0.0308 0.0
H36 H 0.24835 0.22981 0.04007 0.0
H37 H 0.37946 0.15738 0.94855 0.0
C38 C 0.08401 0.34416 0.05515 0.0
C39 C 0.0326 0.28675 0.06178 0.0
C40 C 0.07888 0.40532 0.04192 0.0
C41 C 1.02207 0.41031 0.035 0.0
C42 C 0.97183 0.35471 0.04496 0.0
C43 C 0.97679 0.29337 0.05757 0.0
C44 C 1.01345 0.47301 0.01907 0.0
C45 C 0.04521 0.50964 0.97847 0.0
C46 C 0.03639 0.57218 0.96244 0.0
C47 C 0.08678 0.62848 0.95341 0.0
C48 C 0.08153 0.68963 0.94066 0.0
C49 C 1.02525 0.69531 0.93535 0.0
H50 H 0.93821 0.53236 0.95773 0.0
C51 C 0.97373 0.6372 0.94106 0.0
C52 C 0.97916 0.57626 0.95443 0.0
H53 H 0.92957 0.6396 0.93681 0.0
H54 H 0.12782 0.34102 0.05854 0.0
H55 H 0.11973 0.44863 0.03786 0.0
H56 H 0.92788 0.35761 0.04112 0.0
H57 H 0.93638 0.25046 0.0629 0.0
H58 H 0.97838 0.48785 0.04021 0.0
H59 H 0.08034 0.49493 0.9574 0.0
H60 H 0.13106 0.62628 0.95809 0.0
H61 H 0.12204 0.73311 0.93608 0.0
C62 C 0.66565 0.93608 0.94192 0.0
C63 C 0.7048 0.94523 0.02035 0.0
C64 C 0.61847 0.95925 0.94555 0.0
C65 C 0.60991 -0.0078 0.02796 0.0
C66 C 0.65277 0.0074 0.10779 0.0
C67 C 0.69925 0.98328 0.10386 0.0
C68 C 0.55627 0.00985 0.03312 0.0
C69 C 0.49813 0.96662 0.96206 0.0
C70 C 0.44455 0.98439 0.96721 0.0
C71 C 0.40179 0.96935 0.88741 0.0
C72 C 0.3555 -0.0062 0.8914 0.0
C73 C 0.35004 0.03202 0.97494 0.0
H74 H 0.46649 0.02709 0.11181 0.0
C75 C 0.38903 0.04092 0.05331 0.0
C76 C 0.43602 0.01743 0.04963 0.0
H77 H 0.38613 0.07106 0.11869 0.0
H78 H 0.6686 0.90605 0.87656 0.0
H79 H 0.5879 0.94945 0.88334 0.0
H80 H 0.64796 0.03384 0.17242 0.0
H81 H 0.72854 -0.00984 0.16501 0.0
H82 H 0.56443 0.058 0.09892 0.0
H83 H 0.48998 0.91847 0.89626 0.0
H84 H 0.40659 0.94285 0.82278 0.0
H85 H 0.32635 0.9871 0.83028 0.0
C86 C 0.36845 0.27175 0.91382 0.0
C87 C 0.35151 0.27704 0.98861 0.0
C88 C 0.41735 0.34172 0.92146 0.0
C89 C 0.45033 0.41864 0.00424 0.0
C90 C 0.42894 0.42552 0.07571 0.0
C91 C 0.38016 0.35524 0.06823 0.0
C92 C 0.50791 0.49206 0.01897 0.0
C93 C 0.54912 0.48606 0.97733 0.0
C94 C 0.60663 0.55951 0.99198 0.0
C95 C 0.62786 0.5527 0.92038 0.0
C96 C 0.67644 0.62306 0.92773 0.0
C97 C 0.70505 0.70124 0.00736 0.0
H98 H 0.62686 0.64336 0.13306 0.0
C99 C 0.68834 0.70646 0.0823 0.0
C100 C 0.63964 0.63642 0.07477 0.0
H101 H 0.7103 0.76591 0.14497 0.0
H102 H 0.34647 0.21229 0.85114 0.0
H103 H 0.43025 0.33471 0.86327 0.0
H104 H 0.45265 0.48446 0.13957 0.0
H105 H 0.36841 0.3611 0.12715 0.0
H106 H 0.5176 0.55277 0.06821 0.0
H107 H 0.53944 0.42535 0.92808 0.0
H108 H 0.60413 0.49377 0.85651 0.0
H109 H 0.68802 0.61725 0.8687 0.0
C110 C 1.01726 0.92358 0.6883 0.0
C111 C 1.02587 -0.01039 0.76822 0.0
C112 C 1.02267 0.93272 0.6138 0.0
C113 C 0.03678 0.0082 0.61827 0.0
C114 C 0.0469 0.07455 0.69897 0.0
C115 C 0.04112 0.06531 0.77298 0.0
C116 C 0.04265 0.02087 0.54121 0.0
C117 C 1.01009 0.95884 0.45308 0.0
C118 C 1.01625 0.97154 0.37611 0.0
C119 C 1.00653 0.90532 0.29565 0.0
C120 C 1.013 0.91479 0.22198 0.0
C121 C 0.02856 -0.00941 0.22685 0.0
H122 H 0.03608 0.09858 0.44044 0.0
C123 C 0.03664 0.05643 0.30644 0.0
C124 C 0.03053 0.04706 0.38059 0.0
H125 H 0.04779 0.11515 0.31159 0.0
H126 H 1.00628 0.86492 0.68318 0.0
H127 H 1.0168 0.88109 0.55373 0.0
H128 H 0.05855 0.13353 0.70444 0.0
H129 H 0.04893 0.1179 0.83411 0.0
H130 H 0.07371 0.08389 0.55815 0.0
H131 H 0.97904 0.89581 0.43611 0.0
H132 H 0.99475 0.84631 0.29017 0.0
H133 H 1.00555 0.86233 0.16106 0.0
loop_
_geom_bond_atom_site_label_1
_geom_bond_atom_site_label_2
_geom_bond_distance
_geom_bond_site_symmetry_2
_ccdc_geom_bond_type
C0 C1 1.386 . S
C0 C5 1.384 . S
C0 C16 1.497 . S
C1 C0 1.386 . S
C1 C2 1.393 1_556 S
C1 H32 0.932 . S
C2 C1 1.393 1_554 S
C2 C3 1.387 . S
C3 C2 1.387 . S
C3 C4 1.392 1_554 S
C3 H33 0.930 . S
C4 C3 1.392 1_556 S
C4 C5 1.402 . S
C5 C0 1.384 . S
C5 C4 1.402 . S
C5 H34 0.930 . S
O6 Tb7 2.288 1_554 S
O6 C19 1.257 1_665 S
Tb7 O6 2.288 1_556 S
Tb7 O9 2.303 . S
Tb7 O11 2.430 . S
Tb7 O13 2.459 . S
Tb7 O15 2.301 . S
Tb7 C16 2.808 . S
Tb8 O10 2.301 . S
Tb8 C12 2.808 . S
Tb8 O14 2.288 1_554 S
Tb8 O21 2.303 . S
Tb8 O30 2.430 . S
Tb8 O31 2.459 . S
O9 Tb7 2.303 . S
O9 C28 1.255 1_655 S
O10 Tb8 2.301 . S
O10 C19 1.237 . S
O11 Tb7 2.430 . S
O11 C16 1.248 . S
C12 Tb8 2.808 . S
C12 C22 1.497 . S
C12 O30 1.248 . S
C12 O31 1.260 . S
O13 Tb7 2.459 . S
O13 C16 1.260 . S
O14 Tb8 2.288 1_556 S
O14 C20 1.257 1_445 S
O15 Tb7 2.301 . S
O15 C20 1.237 . S
C16 C0 1.497 . S
C16 Tb7 2.808 . S
C16 O11 1.248 . S
C16 O13 1.260 . S
C17 O18 1.255 . S
C17 O21 1.255 1_655 S
O18 C17 1.255 . S
C19 O6 1.257 1_445 S
C19 O10 1.237 . S
C20 O14 1.257 1_665 S
C20 O15 1.237 . S
O21 Tb8 2.303 . S
O21 C17 1.255 1_455 S
C22 C12 1.497 . S
C22 C24 1.384 . S
C22 C25 1.386 . S
C23 C24 1.402 . S
C23 C27 1.392 1_554 S
C24 C22 1.384 . S
C24 C23 1.402 . S
C24 H35 0.930 . S
C25 C22 1.386 . S
C25 C26 1.393 1_554 S
C25 H36 0.932 . S
C26 C25 1.393 1_556 S
C26 C27 1.387 . S
C27 C23 1.392 1_556 S
C27 C26 1.387 . S
C27 H37 0.930 . S
C28 O9 1.255 1_455 S
C28 O29 1.255 . S
O29 C28 1.255 . S
O30 Tb8 2.430 . S
O30 C12 1.248 . S
O31 Tb8 2.459 . S
O31 C12 1.260 . S
H32 C1 0.932 . S
H33 C3 0.930 . S
H34 C5 0.930 . S
H35 C24 0.930 . S
H36 C25 0.932 . S
H37 C27 0.930 . S
C38 C39 1.386 1_455 S
C38 C40 1.383 . S
C38 H54 0.951 . S
C39 C38 1.386 1_655 S
C39 C43 1.383 1_554 S
C40 C38 1.383 . S
C40 C41 1.402 1_454 S
C40 H55 0.951 . S
C41 C40 1.402 1_656 S
C41 C42 1.375 . S
C41 C44 1.481 . S
C42 C41 1.375 . S
C42 C43 1.367 . S
C42 H56 0.951 . S
C43 C39 1.383 1_556 S
C43 C42 1.367 . S
C43 H57 0.950 . S
C44 C41 1.481 . S
C44 C45 1.297 1_656 S
C44 H58 0.950 . S
C45 C44 1.297 1_454 S
C45 C46 1.479 1_554 S
C45 H59 0.950 . S
C46 C45 1.479 1_556 S
C46 C47 1.375 1_556 S
C46 C52 1.404 1_455 S
C47 C46 1.375 1_554 S
C47 C48 1.369 . S
C47 H60 0.950 . S
C48 C47 1.369 . S
C48 C49 1.392 1_554 S
C48 H61 0.951 . S
C49 C48 1.392 1_556 S
C49 C51 1.384 1_455 S
H50 C52 0.949 . S
C51 C49 1.384 1_655 S
C51 C52 1.385 . S
C51 H53 0.950 . S
C52 C46 1.404 1_655 S
C52 H50 0.949 . S
C52 C51 1.385 . S
H53 C51 0.950 . S
H54 C38 0.951 . S
H55 C40 0.951 . S
H56 C42 0.951 . S
H57 C43 0.950 . S
H58 C44 0.950 . S
H59 C45 0.950 . S
H60 C47 0.950 . S
H61 C48 0.951 . S
C62 C63 1.386 . S
C62 C64 1.383 . S
C62 H78 0.951 1_565 S
C63 C62 1.386 . S
C63 C67 1.383 1_556 S
C64 C62 1.383 . S
C64 C65 1.402 . S
C64 H79 0.951 1_565 S
C65 C64 1.402 . S
C65 C66 1.375 1_556 S
C65 C68 1.481 1_556 S
C66 C65 1.375 1_554 S
C66 C67 1.367 . S
C66 H80 0.951 . S
C67 C63 1.383 1_554 S
C67 C66 1.367 . S
C67 H81 0.950 . S
C68 C65 1.481 1_554 S
C68 C69 1.297 1_554 S
C68 H82 0.950 . S
C69 C68 1.297 1_556 S
C69 C70 1.479 . S
C69 H83 0.950 . S
C70 C69 1.479 . S
C70 C71 1.375 1_565 S
C70 C76 1.404 1_556 S
C71 C70 1.375 1_545 S
C71 C72 1.369 . S
C71 H84 0.950 . S
C72 C71 1.369 . S
C72 C73 1.392 1_556 S
C72 H85 0.951 . S
C73 C72 1.392 1_554 S
C73 C75 1.384 1_545 S
H74 C76 0.949 . S
C75 C73 1.384 1_565 S
C75 C76 1.385 . S
C75 H77 0.950 . S
C76 C70 1.404 1_554 S
C76 H74 0.949 . S
C76 C75 1.385 . S
H77 C75 0.950 . S
H78 C62 0.951 1_545 S
H79 C64 0.951 1_545 S
H80 C66 0.951 . S
H81 C67 0.950 . S
H82 C68 0.950 . S
H83 C69 0.950 . S
H84 C71 0.950 . S
H85 C72 0.951 . S
C86 C87 1.386 . S
C86 C88 1.383 . S
C86 H102 0.951 . S
C87 C86 1.386 . S
C87 C91 1.383 1_556 S
C88 C86 1.383 . S
C88 C89 1.402 1_556 S
C88 H103 0.951 . S
C89 C88 1.402 1_554 S
C89 C90 1.375 . S
C89 C92 1.481 . S
C90 C89 1.375 . S
C90 C91 1.367 . S
C90 H104 0.951 . S
C91 C87 1.383 1_554 S
C91 C90 1.367 . S
C91 H105 0.950 . S
C92 C89 1.481 . S
C92 C93 1.297 . S
C92 H106 0.950 . S
C93 C92 1.297 . S
C93 C94 1.479 . S
C93 H107 0.950 . S
C94 C93 1.479 . S
C94 C95 1.375 . S
C94 C100 1.404 . S
C95 C94 1.375 . S
C95 C96 1.369 1_554 S
C95 H108 0.950 1_554 S
C96 C95 1.369 1_556 S
C96 C97 1.392 1_556 S
C96 H109 0.951 . S
C97 C96 1.392 1_554 S
C97 C99 1.384 . S
H98 C100 0.949 . S
C99 C97 1.384 . S
C99 C100 1.385 . S
C99 H101 0.950 . S
C100 C94 1.404 . S
C100 H98 0.949 . S
C100 C99 1.385 . S
H101 C99 0.950 . S
H102 C86 0.951 . S
H103 C88 0.951 . S
H104 C90 0.951 . S
H105 C91 0.950 . S
H106 C92 0.950 . S
H107 C93 0.950 . S
H108 C95 0.950 1_556 S
H109 C96 0.951 . S
C110 C111 1.386 1_665 S
C110 C112 1.383 . S
C110 H126 0.951 . S
C111 C110 1.386 1_445 S
C111 C115 1.383 . S
C112 C110 1.383 . S
C112 C113 1.402 1_665 S
C112 H127 0.951 . S
C113 C112 1.402 1_445 S
C113 C114 1.375 . S
C113 C116 1.481 . S
C114 C113 1.375 . S
C114 C115 1.367 . S
C114 H128 0.951 . S
C115 C111 1.383 . S
C115 C114 1.367 . S
C115 H129 0.950 . S
C116 C113 1.481 . S
C116 C117 1.297 1_455 S
C116 H130 0.950 . S
C117 C116 1.297 1_655 S
C117 C118 1.479 . S
C117 H131 0.950 1_545 S
C118 C117 1.479 . S
C118 C119 1.375 1_545 S
C118 C124 1.404 1_655 S
C119 C118 1.375 1_565 S
C119 C120 1.369 . S
C119 H132 0.950 . S
C120 C119 1.369 . S
C120 C121 1.392 1_565 S
C120 H133 0.951 . S
C121 C120 1.392 1_545 S
C121 C123 1.384 1_655 S
H122 C124 0.949 . S
C123 C121 1.384 1_455 S
C123 C124 1.385 . S
C123 H125 0.950 . S
C124 C118 1.404 1_455 S
C124 H122 0.949 . S
C124 C123 1.385 . S
H125 C123 0.950 . S
H126 C110 0.951 . S
H127 C112 0.951 . S
H128 C114 0.951 . S
H129 C115 0.950 . S
H130 C116 0.950 . S
H131 C117 0.950 1_565 S
H132 C119 0.950 . S
H133 C120 0.951 . S
C39 C17 0.509 . S
C49 C28 0.329 . S
C63 C4 2.088 . S
C73 C23 2.130 . S
C87 C26 1.849 . S
C97 C2 1.870 . S
C111 C20 1.498 1_445 S
C121 C19 1.476 1_655 S
