# Generated by pormake.
# Topology sma, (6)-cn, num edge types: 1
# Building blocks:
#     Node 0, Type 0, BuildingBlock: HISSIN_clean_sbu_0, # of connection points: 6
#     Node 1, Type 0, BuildingBlock: HISSIN_clean_sbu_0, # of connection points: 6
#     Node 2, Type 0, BuildingBlock: HISSIN_clean_sbu_0, # of connection points: 6
#     Edge 3, Type (0, 0), None
#     Edge 4, Type (0, 0), None
#     Edge 5, Type (0, 0), None
#     Edge 6, Type (0, 0), None
#     Edge 7, Type (0, 0), None
#     Edge 8, Type (0, 0), None
#     Edge 9, Type (0, 0), None
#     Edge 10, Type (0, 0), None
#     Edge 11, Type (0, 0), None
# Relax obj value: 0.030
# Max RMSD: 0.139
# Mean RMSD: 0.133
data_MOF--net-sma--node1-HISSIN_clean_sbu_0--edge1-none
_symmetry_space_group_name_H-M    P1
_symmetry_Int_Tables_number       1
_symmetry_cell_setting            triclinic
loop_
_symmetry_equiv_pos_as_xyz
'x, y, z'
_cell_length_a     24.157413
_cell_length_b     24.205568
_cell_length_c     6.8661418
_cell_angle_alpha  91.968791
_cell_angle_beta   89.318104
_cell_angle_gamma 120.1489
loop_
_atom_site_label
_atom_site_type_symbol
_atom_site_fract_x
_atom_site_fract_y
_atom_site_fract_z
_atom_type_partial_charge
Eu0 Eu 1.00898 0.47536 -0.01651 0.0
Eu1 Eu 0.11883 0.63448 -0.00115 0.0
C2 C 0.06363 0.55504 0.39532 0.0
C3 C 0.87291 0.30443 0.08544 0.0
C4 C 0.82959 0.32022 0.17274 0.0
C5 C 0.80269 0.19351 0.16409 0.0
C6 C 0.77223 0.27245 0.25119 0.0
C7 C 0.85976 0.24117 0.08576 0.0
C8 C 0.75743 0.20821 0.24331 0.0
C9 C 0.93015 0.35202 -0.01638 0.0
O10 O 0.17788 0.58736 0.02502 0.0
O11 O 0.10508 0.48692 0.90346 0.0
C12 C 0.16389 0.53109 -0.04886 0.0
O13 O 1.01979 0.5032 0.6713 0.0
O14 O 0.14755 0.72992 0.1206 0.0
O15 O 0.20357 0.7177 0.89111 0.0
O16 O 0.10743 0.60597 0.68104 0.0
C17 C 0.06352 0.5547 0.58707 0.0
O18 O 0.94872 0.52177 0.01317 0.0
O19 O 1.02323 0.62442 -0.06993 0.0
O20 O 0.10616 0.60706 0.31132 0.0
O21 O 0.92297 0.39087 0.87341 0.0
O22 O 0.98361 0.38068 0.083 0.0
O23 O 1.02112 0.50317 0.30127 0.0
C24 C 0.2585 0.80562 0.11137 0.0
C25 C 0.30384 0.79036 0.1773 0.0
C26 C 0.33142 0.91731 0.19497 0.0
C27 C 0.36345 0.83875 0.24736 0.0
C28 C 0.27206 0.86902 0.12515 0.0
C29 C 0.37849 0.90304 0.25199 0.0
C30 C 0.19901 0.75751 0.01413 0.0
C31 C 0.96387 0.57931 -0.03956 0.0
H32 H 0.83921 0.36905 0.17492 0.0
H33 H 0.79322 0.14474 0.15618 0.0
H34 H 0.73857 0.28555 0.31109 0.0
H35 H 0.89284 0.22822 0.01985 0.0
H36 H 0.29399 0.74145 0.16845 0.0
H37 H 0.34104 0.96613 0.19782 0.0
H38 H 0.39847 0.82601 0.29048 0.0
H39 H 0.23747 0.88155 0.07547 0.0
Eu40 Eu 0.59376 1.00108 0.32568 0.0
Eu41 Eu 0.54409 0.11042 0.3409 0.0
C42 C 0.56913 0.05595 0.73743 0.0
C43 C 0.62634 0.86431 0.42621 0.0
C44 C 0.56596 0.82038 0.4995 0.0
C45 C 0.66629 0.79447 0.51442 0.0
C46 C 0.55541 0.76289 0.57537 0.0
C47 C 0.67666 0.85165 0.43857 0.0
C48 C 0.60514 0.74856 0.57898 0.0
C49 C 0.63721 0.92169 0.3264 0.0
O50 O 0.65094 0.1705 0.36767 0.0
O51 O 0.67846 0.0968 0.25418 0.0
C52 C 0.693 0.15595 0.29753 0.0
O53 O 0.57619 1.01165 0.01251 0.0
O54 O 0.47775 0.13927 0.46164 0.0
O55 O 0.54352 0.19338 0.23221 0.0
O56 O 0.56122 0.0991 0.02423 0.0
C57 C 0.56884 0.05551 -0.07077 0.0
O58 O 0.4872 0.94129 0.35456 0.0
O59 O 0.45842 1.01431 0.26427 0.0
O60 O 0.55993 0.09854 0.65413 0.0
O61 O 0.5915 0.91506 0.21123 0.0
O62 O 0.66273 0.97522 0.42947 0.0
O63 O 0.57866 1.01367 0.64265 0.0
C64 C 0.50998 0.24917 0.44568 0.0
C65 C 0.56992 0.29509 0.52211 0.0
C66 C 0.47057 0.32258 0.50736 0.0
C67 C 0.5805 0.35511 0.58713 0.0
C68 C 0.46013 0.26277 0.44281 0.0
C69 C 0.53129 0.37005 0.5759 0.0
C70 C 0.49955 0.1891 0.35299 0.0
C71 C 0.44428 0.95553 0.29821 0.0
H72 H 0.52654 0.82959 0.49247 0.0
H73 H 0.70587 0.7854 0.5158 0.0
H74 H 0.50776 0.72874 0.62384 0.0
H75 H 0.72365 0.8852 0.38375 0.0
H76 H 0.609 0.28527 0.52554 0.0
H77 H 0.43146 0.33214 0.49769 0.0
H78 H 0.62781 0.39045 0.63942 0.0
H79 H 0.41355 0.22779 0.38429 0.0
Eu80 Eu 0.48849 0.53475 0.65727 0.0
Eu81 Eu 0.64799 0.58506 0.65743 0.0
C82 C 0.56835 0.56048 0.06158 0.0
C83 C 0.31555 0.49901 0.75814 0.0
C84 C 0.33025 0.55803 0.84628 0.0
C85 C 0.20285 0.45892 0.82026 0.0
C86 C 0.28117 0.56785 -0.08256 0.0
C87 C 0.25183 0.44925 0.74946 0.0
C88 C 0.21671 0.51878 0.90095 0.0
C89 C 0.3648 0.48936 0.66182 0.0
O90 O 0.60078 0.47901 0.68658 0.0
O91 O 0.49977 0.44977 0.57629 0.0
C92 C 0.54411 0.43585 0.62015 0.0
O93 O 0.5166 0.55177 0.34341 0.0
O94 O 0.74351 0.65288 0.77162 0.0
O95 O 0.73127 0.58278 0.54447 0.0
O96 O 0.6195 0.56747 0.34144 0.0
C97 C 0.56817 0.55997 0.25334 0.0
O98 O 0.53501 0.64159 0.68804 0.0
O99 O 0.63762 0.67006 0.59287 0.0
O100 O 0.62051 0.57057 -0.02813 0.0
O101 O 0.40415 0.53428 0.54784 0.0
O102 O 0.39336 0.46683 0.76606 0.0
O103 O 0.51636 0.55088 -0.02672 0.0
C104 C 0.81745 0.61575 0.7646 0.0
C105 C 0.80078 0.55469 0.82719 0.0
C106 C 0.92762 0.65446 0.85907 0.0
C107 C 0.8478 0.54323 0.90075 0.0
C108 C 0.88072 0.66576 0.78555 0.0
C109 C 0.91213 0.5927 -0.08741 0.0
C110 C 0.77095 0.62764 0.66589 0.0
C111 C 0.59238 0.68404 0.62892 0.0
H112 H 0.37935 0.597 0.85461 0.0
H113 H 0.15393 0.41993 0.80592 0.0
H114 H 0.29363 0.61452 -0.02114 0.0
H115 H 0.2397 0.40335 0.68214 0.0
H116 H 0.75191 0.51549 0.81332 0.0
H117 H 0.97649 0.69386 0.86732 0.0
H118 H 0.83412 0.49514 -0.05922 0.0
H119 H 0.89433 0.71324 0.73898 0.0
loop_
_geom_bond_atom_site_label_1
_geom_bond_atom_site_label_2
_geom_bond_distance
_geom_bond_site_symmetry_2
_ccdc_geom_bond_type
Eu0 C9 2.828 . S
Eu0 O11 2.392 1_655 S
Eu0 O13 2.418 1_554 S
Eu0 O18 2.373 . S
Eu0 O21 2.488 1_554 S
Eu0 O22 2.471 . S
Eu0 O23 2.349 . S
Eu1 O10 2.373 . S
Eu1 O14 2.488 . S
Eu1 O15 2.471 . S
Eu1 O16 2.349 1_554 S
Eu1 O19 2.392 1_455 S
Eu1 O20 2.418 . S
Eu1 C30 2.828 . S
C2 O20 1.244 . S
C2 O23 1.265 1_455 S
C3 C4 1.379 . S
C3 C7 1.373 1_554 S
C3 C9 1.505 . S
C4 C3 1.379 . S
C4 C6 1.369 . S
C4 H32 0.930 . S
C5 C7 1.383 1_554 S
C5 C8 1.382 . S
C5 H33 0.930 1_554 S
C6 C4 1.369 . S
C6 C8 1.392 . S
C6 H34 0.930 . S
C7 C3 1.373 1_556 S
C7 C5 1.383 1_556 S
C7 H35 0.931 . S
C8 C5 1.382 . S
C8 C6 1.392 . S
C9 Eu0 2.828 . S
C9 C3 1.505 . S
C9 O21 1.249 1_554 S
C9 O22 1.244 . S
O10 Eu1 2.373 . S
O10 C12 1.258 . S
O11 Eu0 2.392 1_455 S
O11 C12 1.242 . S
C12 O10 1.258 . S
C12 O11 1.242 . S
O13 Eu0 2.418 1_556 S
O13 C17 1.244 1_655 S
O14 Eu1 2.488 . S
O14 C30 1.249 . S
O15 Eu1 2.471 . S
O15 C30 1.244 . S
O16 Eu1 2.349 1_556 S
O16 C17 1.265 . S
C17 O13 1.244 1_455 S
C17 O16 1.265 . S
O18 Eu0 2.373 . S
O18 C31 1.258 . S
O19 Eu1 2.392 1_655 S
O19 C31 1.242 . S
O20 Eu1 2.418 . S
O20 C2 1.244 . S
O21 Eu0 2.488 1_556 S
O21 C9 1.249 1_556 S
O22 Eu0 2.471 . S
O22 C9 1.244 . S
O23 Eu0 2.349 . S
O23 C2 1.265 1_655 S
C24 C25 1.379 1_554 S
C24 C28 1.373 . S
C24 C30 1.505 . S
C25 C24 1.379 1_556 S
C25 C27 1.369 . S
C25 H36 0.930 . S
C26 C28 1.383 . S
C26 C29 1.382 . S
C26 H37 0.930 . S
C27 C25 1.369 . S
C27 C29 1.392 1_556 S
C27 H38 0.930 . S
C28 C24 1.373 . S
C28 C26 1.383 . S
C28 H39 0.931 . S
C29 C26 1.382 . S
C29 C27 1.392 1_554 S
C30 Eu1 2.828 . S
C30 O14 1.249 . S
C30 O15 1.244 . S
C30 C24 1.505 . S
C31 O18 1.258 . S
C31 O19 1.242 . S
H32 C4 0.930 . S
H33 C5 0.930 1_556 S
H34 C6 0.930 . S
H35 C7 0.931 . S
H36 C25 0.930 . S
H37 C26 0.930 . S
H38 C27 0.930 . S
H39 C28 0.931 . S
Eu40 C49 2.828 . S
Eu40 O51 2.392 1_565 S
Eu40 O53 2.418 . S
Eu40 O58 2.373 . S
Eu40 O61 2.488 . S
Eu40 O62 2.471 . S
Eu40 O63 2.349 1_565 S
Eu41 O50 2.373 . S
Eu41 O54 2.488 . S
Eu41 O55 2.471 . S
Eu41 O56 2.349 . S
Eu41 O59 2.392 1_545 S
Eu41 O60 2.418 . S
Eu41 C70 2.828 . S
C42 O60 1.244 . S
C42 O63 1.265 . S
C43 C44 1.379 . S
C43 C47 1.373 . S
C43 C49 1.505 . S
C44 C43 1.379 . S
C44 C46 1.369 . S
C44 H72 0.930 . S
C45 C47 1.383 . S
C45 C48 1.382 . S
C45 H73 0.930 . S
C46 C44 1.369 . S
C46 C48 1.392 . S
C46 H74 0.930 . S
C47 C43 1.373 . S
C47 C45 1.383 . S
C47 H75 0.931 . S
C48 C45 1.382 . S
C48 C46 1.392 . S
C49 Eu40 2.828 . S
C49 C43 1.505 . S
C49 O61 1.249 . S
C49 O62 1.244 . S
O50 Eu41 2.373 . S
O50 C52 1.258 . S
O51 Eu40 2.392 1_545 S
O51 C52 1.242 . S
C52 O50 1.258 . S
C52 O51 1.242 . S
O53 Eu40 2.418 . S
O53 C57 1.244 1_565 S
O54 Eu41 2.488 . S
O54 C70 1.249 . S
O55 Eu41 2.471 . S
O55 C70 1.244 . S
O56 Eu41 2.349 . S
O56 C57 1.265 . S
C57 O53 1.244 1_545 S
C57 O56 1.265 . S
O58 Eu40 2.373 . S
O58 C71 1.258 . S
O59 Eu41 2.392 1_565 S
O59 C71 1.242 . S
O60 Eu41 2.418 . S
O60 C42 1.244 . S
O61 Eu40 2.488 . S
O61 C49 1.249 . S
O62 Eu40 2.471 . S
O62 C49 1.244 . S
O63 Eu40 2.349 1_545 S
O63 C42 1.265 . S
C64 C65 1.379 . S
C64 C68 1.373 . S
C64 C70 1.505 . S
C65 C64 1.379 . S
C65 C67 1.369 . S
C65 H76 0.930 . S
C66 C68 1.383 . S
C66 C69 1.382 . S
C66 H77 0.930 . S
C67 C65 1.369 . S
C67 C69 1.392 . S
C67 H78 0.930 . S
C68 C64 1.373 . S
C68 C66 1.383 . S
C68 H79 0.931 . S
C69 C66 1.382 . S
C69 C67 1.392 . S
C70 Eu41 2.828 . S
C70 O54 1.249 . S
C70 O55 1.244 . S
C70 C64 1.505 . S
C71 O58 1.258 . S
C71 O59 1.242 . S
H72 C44 0.930 . S
H73 C45 0.930 . S
H74 C46 0.930 . S
H75 C47 0.931 . S
H76 C65 0.930 . S
H77 C66 0.930 . S
H78 C67 0.930 . S
H79 C68 0.931 . S
Eu80 C89 2.828 . S
Eu80 O91 2.392 . S
Eu80 O93 2.418 . S
Eu80 O98 2.373 . S
Eu80 O101 2.488 . S
Eu80 O102 2.469 1_556 S
Eu80 O103 2.349 1_556 S
Eu81 O90 2.373 . S
Eu81 O94 2.488 1_556 S
Eu81 O95 2.471 . S
Eu81 O96 2.349 . S
Eu81 O99 2.392 . S
Eu81 O100 2.418 1_556 S
Eu81 C110 2.828 . S
C82 O100 1.244 . S
C82 O103 1.265 . S
C83 C84 1.379 1_556 S
C83 C87 1.373 . S
C83 C89 1.505 . S
C84 C83 1.379 1_554 S
C84 C86 1.369 . S
C84 H112 0.930 . S
C85 C87 1.383 . S
C85 C88 1.382 . S
C85 H113 0.930 . S
C86 C84 1.369 . S
C86 C88 1.392 1_554 S
C86 H114 0.930 . S
C87 C83 1.373 . S
C87 C85 1.383 . S
C87 H115 0.931 . S
C88 C85 1.382 . S
C88 C86 1.392 1_556 S
C89 Eu80 2.828 . S
C89 C83 1.505 . S
C89 O101 1.249 . S
C89 O102 1.241 1_556 S
O90 Eu81 2.373 . S
O90 C92 1.258 . S
O91 Eu80 2.392 . S
O91 C92 1.242 . S
C92 O90 1.258 . S
C92 O91 1.242 . S
O93 Eu80 2.418 . S
O93 C97 1.244 . S
O94 Eu81 2.488 1_554 S
O94 C110 1.249 1_554 S
O95 Eu81 2.471 . S
O95 C110 1.244 . S
O96 Eu81 2.349 . S
O96 C97 1.265 . S
C97 O93 1.244 . S
C97 O96 1.265 . S
O98 Eu80 2.373 . S
O98 C111 1.258 . S
O99 Eu81 2.392 . S
O99 C111 1.242 . S
O100 Eu81 2.418 1_554 S
O100 C82 1.244 . S
O101 Eu80 2.488 . S
O101 C89 1.249 . S
O102 Eu80 2.469 1_554 S
O102 C89 1.241 1_554 S
O103 Eu80 2.349 1_554 S
O103 C82 1.265 . S
C104 C105 1.379 . S
C104 C108 1.373 . S
C104 C110 1.505 . S
C105 C104 1.379 . S
C105 C107 1.369 . S
C105 H116 0.930 . S
C106 C108 1.383 . S
C106 C109 1.382 . S
C106 H117 0.930 1_556 S
C107 C105 1.369 . S
C107 C109 1.392 . S
C107 H118 0.930 . S
C108 C104 1.373 . S
C108 C106 1.383 . S
C108 H119 0.931 1_556 S
C109 C106 1.382 . S
C109 C107 1.392 . S
C110 Eu81 2.828 . S
C110 O94 1.249 1_556 S
C110 O95 1.244 . S
C110 C104 1.505 . S
C111 O98 1.258 . S
C111 O99 1.242 . S
H112 C84 0.930 . S
H113 C85 0.930 . S
H114 C86 0.930 . S
H115 C87 0.931 . S
H116 C105 0.930 . S
H117 C106 0.930 1_554 S
H118 C107 0.930 . S
H119 C108 0.931 1_554 S
C12 C88 2.271 1_554 S
C52 C8 2.448 . S
C48 C111 2.151 . S
C109 C31 2.706 1_556 S
C71 C29 2.511 . S
C92 C69 2.860 . S
C17 C2 0.635 . S
C57 C42 0.596 1_554 S
C97 C82 0.585 . S
