# Generated by pormake.
# Topology qzd, (4)-cn, num edge types: 1
# Building blocks:
#     Node 0, Type 0, BuildingBlock: NAWXER_clean_sbu_0, # of connection points: 4
#     Node 1, Type 0, BuildingBlock: NAWXER_clean_sbu_0, # of connection points: 4
#     Node 2, Type 0, BuildingBlock: NAWXER_clean_sbu_0, # of connection points: 4
#     Edge 3, Type (0, 0), BuildingBlock: KIFKEQ_clean_linker_1, # of connection points: 2
#     Edge 4, Type (0, 0), BuildingBlock: KIFKEQ_clean_linker_1, # of connection points: 2
#     Edge 5, Type (0, 0), BuildingBlock: KIFKEQ_clean_linker_1, # of connection points: 2
#     Edge 6, Type (0, 0), BuildingBlock: KIFKEQ_clean_linker_1, # of connection points: 2
#     Edge 7, Type (0, 0), BuildingBlock: KIFKEQ_clean_linker_1, # of connection points: 2
#     Edge 8, Type (0, 0), BuildingBlock: KIFKEQ_clean_linker_1, # of connection points: 2
# Relax obj value: 0.000
# Max RMSD: 0.038
# Mean RMSD: 0.038
data_MOF--net-qzd--node1-NAWXER_clean_sbu_0--edge1-KIFKEQ_clean_linker_1
_symmetry_space_group_name_H-M    P1
_symmetry_Int_Tables_number       1
_symmetry_cell_setting            triclinic
loop_
_symmetry_equiv_pos_as_xyz
'x, y, z'
_cell_length_a     14.971501
_cell_length_b     14.972341
_cell_length_c     44.430775
_cell_angle_alpha  94.133162
_cell_angle_beta   94.13392
_cell_angle_gamma 120.00127
loop_
_atom_site_label
_atom_site_type_symbol
_atom_site_fract_x
_atom_site_fract_y
_atom_site_fract_z
_atom_type_partial_charge
C0 C 1.0178 0.87665 0.02013 0.0
C1 C 0.69155 0.87639 0.02251 0.0
O2 O 0.92642 0.79773 0.01602 0.0
Zn3 Zn 0.85345 0.87386 0.02112 0.0
O4 O 0.03048 0.96766 0.02607 0.0
Zn5 Zn 0.9377 0.03821 0.03185 0.0
O6 O 0.98088 0.10206 0.07353 0.0
O7 O 0.89444 0.9307 0.06913 0.0
O8 O 0.77242 0.96734 0.02846 0.0
O9 O 0.70216 0.79823 0.01634 0.0
O10 O 0.88871 0.96041 0.98244 0.0
O11 O 0.97399 0.12717 1.00011 0.0
C12 C 0.94275 0.01889 0.08595 0.0
C13 C 0.93506 0.05604 0.97762 0.0
C14 C 0.08957 0.09033 0.42569 0.0
C15 C 0.04199 0.04259 0.31453 0.0
O16 O 0.04409 0.12201 0.40786 0.0
Zn17 Zn 0.06515 0.06707 0.37011 0.0
O18 O 0.13047 0.03974 0.41451 0.0
Zn19 Zn 0.14723 0.98503 0.37013 0.0
O20 O 0.29738 0.05966 0.37025 0.0
O21 O 0.22921 0.16054 0.36922 0.0
O22 O 0.09259 1.00173 0.32573 0.0
O23 O 1.01026 0.08806 0.33233 0.0
O24 O 0.97169 0.90303 0.37102 0.0
O25 O 0.07261 0.83489 0.37003 0.0
C26 C 0.30875 0.1494 0.36928 0.0
C27 C 0.98285 0.82351 0.37098 0.0
C28 C 0.0766 0.19809 0.7626 0.0
C29 C 0.11353 0.19035 0.65426 0.0
O30 O 1.00542 0.15918 0.74012 0.0
Zn31 Zn 0.09431 0.19546 0.70836 0.0
O32 O 0.17222 0.24445 0.75777 0.0
Zn33 Zn 0.25869 0.2797 0.71907 0.0
O34 O 0.3343 0.431 0.72384 0.0
O35 O 0.16517 0.36072 0.71175 0.0
O36 O 0.20174 0.23867 0.67106 0.0
O37 O 0.03038 0.15225 0.66669 0.0
O38 O 0.16488 0.10268 0.71413 0.0
O39 O 0.33483 0.20673 0.72415 0.0
C40 C 0.25613 0.4416 0.71768 0.0
C41 C 0.2559 0.11536 0.72004 0.0
H42 H 0.50056 0.71224 0.99696 0.0
H43 H 0.64784 0.01542 0.04965 0.0
H44 H 0.33234 0.70415 0.99511 0.0
H45 H 0.48146 1.00606 0.0487 0.0
H46 H 0.21041 0.02773 0.01172 0.0
H47 H 0.3672 0.01842 0.01149 0.0
H48 H 0.19492 0.6941 0.02465 0.0
H49 H 0.03529 0.70279 0.02386 0.0
C50 C 0.49681 0.77643 1.00841 0.0
C51 C 0.58767 0.86515 0.02304 0.0
C52 C 0.40055 0.77169 1.00745 0.0
C53 C 0.39366 0.85533 0.02126 0.0
C54 C 0.48416 0.94158 0.037 0.0
C55 C 0.57974 0.94673 0.03769 0.0
C56 C 0.20548 0.95415 0.0145 0.0
C57 C 0.1106 0.86632 0.01821 0.0
C58 C 0.29575 0.94893 0.01453 0.0
C59 C 0.29432 0.85609 0.01871 0.0
C60 C 0.19869 0.76682 0.02136 0.0
C61 C 0.10743 0.77183 0.02102 0.0
H62 H 0.79953 0.78494 0.38921 0.0
H63 H 0.95692 0.62922 0.35603 0.0
H64 H 0.64265 0.61878 0.38908 0.0
H65 H 0.79679 0.46076 0.3549 0.0
H66 H 0.50306 0.17539 0.38427 0.0
H67 H 0.67152 0.33553 0.38541 0.0
H68 H 0.51347 0.48955 0.35115 0.0
H69 H 0.34732 0.33266 0.35101 0.0
C70 C 0.80046 0.71497 0.3817 0.0
C71 C 0.89033 0.72037 0.37224 0.0
C72 C 0.71008 0.61943 0.38147 0.0
C73 C 0.70622 0.52629 0.37135 0.0
C74 C 0.79717 0.53106 0.36285 0.0
C75 C 0.88867 0.6274 0.36338 0.0
C76 C 0.50487 0.24361 0.37691 0.0
C77 C 0.4119 0.24192 0.36802 0.0
C78 C 0.60121 0.33512 0.37745 0.0
C79 C 0.60597 0.42604 0.36892 0.0
C80 C 0.51283 0.42214 0.35877 0.0
C81 C 0.41729 0.33176 0.35854 0.0
H82 H 0.42973 0.09782 0.71628 0.0
H83 H 0.10483 0.92278 0.7285 0.0
H84 H 0.4384 0.93819 0.7155 0.0
H85 H 0.11412 0.766 0.72873 0.0
H86 H 0.11699 0.48528 0.69059 0.0
H87 H 0.12635 0.65164 0.69154 0.0
H88 H 0.42844 0.80083 0.74503 0.0
H89 H 0.42034 0.63261 0.74318 0.0
C90 C 0.36069 0.0257 0.71914 0.0
C91 C 0.26622 0.02255 0.72197 0.0
C92 C 0.36569 0.93443 0.7188 0.0
C93 C 0.27643 0.83883 0.72147 0.0
C94 C 0.1836 0.83743 0.72567 0.0
C95 C 0.1784 0.9277 0.7257 0.0
C96 C 0.18572 0.55338 0.70253 0.0
C97 C 0.26735 0.54548 0.71716 0.0
C98 C 0.19087 0.64896 0.70321 0.0
C99 C 0.27717 0.73947 0.71893 0.0
C100 C 0.36086 0.73261 0.73272 0.0
C101 C 0.35611 0.63635 0.73176 0.0
H102 H 0.07928 0.93226 0.27071 0.0
H103 H 0.96282 0.14309 0.28254 0.0
H104 H 0.05322 0.92752 0.21576 0.0
H105 H 0.93617 0.13767 0.22732 0.0
H106 H 0.02249 0.1899 0.12889 0.0
H107 H 0.04297 0.19518 0.18419 0.0
H108 H 0.90813 0.86194 0.17424 0.0
H109 H 0.8882 0.85645 0.11913 0.0
C110 C 0.04773 0.97736 0.2616 0.0
C111 C 0.02307 0.03802 0.28107 0.0
C112 C 0.03231 0.97417 0.23007 0.0
C113 C 0.9925 0.0321 0.21718 0.0
C114 C 0.96781 0.09288 0.23659 0.0
C115 C 0.98246 0.09543 0.2682 0.0
C116 C 0.99711 0.11776 0.1385 0.0
C117 C 0.95403 0.0228 0.11954 0.0
C118 C 1.00826 0.12075 0.17018 0.0
C119 C 0.97739 0.029 0.18358 0.0
C120 C 0.93378 0.93412 0.16462 0.0
C121 C 0.92194 0.93099 0.13301 0.0
H122 H 0.94244 0.11049 0.61134 0.0
H123 H 0.27592 0.24484 0.62106 0.0
H124 H 0.93708 0.08981 0.55603 0.0
H125 H 0.27034 0.22473 0.56595 0.0
H126 H 0.19993 0.05321 0.46954 0.0
H127 H 0.20471 0.07947 0.52448 0.0
H128 H 0.99449 0.19641 0.51285 0.0
H129 H 0.98903 0.16956 0.45763 0.0
C130 C 1.01457 0.13584 0.60171 0.0
C131 C 0.10956 0.17899 0.62066 0.0
C132 C 1.01152 0.12458 0.57003 0.0
C133 C 0.10325 0.15541 0.55662 0.0
C134 C 0.19817 0.19911 0.57558 0.0
C135 C 0.20135 0.21106 0.60719 0.0
C136 C 0.15483 0.08477 0.47863 0.0
C137 C 0.09413 0.10934 0.45914 0.0
C138 C 0.15803 0.10031 0.51016 0.0
C139 C 0.10011 0.14015 0.52303 0.0
C140 C 0.03929 0.16475 0.5036 0.0
C141 C 0.03671 0.14998 0.47198 0.0
H142 H 0.20938 0.28533 0.81549 0.0
H143 H 0.88449 0.08334 0.78128 0.0
H144 H 0.16874 0.25613 0.86726 0.0
H145 H 0.84383 0.05496 0.83325 0.0
H146 H 0.04974 0.24821 0.95898 0.0
H147 H 0.07799 0.289 0.90701 0.0
H148 H 0.87687 0.96415 0.87295 0.0
H149 H 0.8478 0.92337 0.92471 0.0
C150 C 0.12909 0.23547 0.81901 0.0
C151 C 0.05027 0.18626 0.79418 0.0
C152 C 0.10574 0.21927 0.84875 0.0
C153 C 1.00308 0.15302 0.85439 0.0
C154 C 0.92386 0.10557 0.82962 0.0
C155 C 0.94712 0.1223 0.79986 0.0
C156 C 1.01077 0.18562 0.94038 0.0
C157 C 0.94685 0.08244 0.94605 0.0
C158 C 0.02742 0.20896 0.91062 0.0
C159 C 0.97995 0.12979 0.88585 0.0
C160 C 0.91375 0.02711 0.89147 0.0
C161 C 0.89762 1.00368 0.9212 0.0
loop_
_geom_bond_atom_site_label_1
_geom_bond_atom_site_label_2
_geom_bond_distance
_geom_bond_site_symmetry_2
_ccdc_geom_bond_type
C0 O2 1.248 . S
C0 O4 1.256 1_565 S
C1 O8 1.250 . S
C1 O9 1.253 1_545 S
O2 C0 1.248 . S
O2 Zn3 2.028 1_455 S
Zn3 O2 2.028 1_655 S
Zn3 O7 2.035 . S
Zn3 O9 2.035 . S
Zn3 O10 2.028 1_554 S
O4 C0 1.256 1_545 S
O4 Zn5 2.035 . S
Zn5 O4 2.035 . S
Zn5 O6 2.028 . S
Zn5 O8 2.028 1_455 S
Zn5 O11 2.035 1_554 S
O6 Zn5 2.028 . S
O6 C12 1.250 . S
O7 Zn3 2.035 . S
O7 C12 1.255 1_665 S
O8 C1 1.250 . S
O8 Zn5 2.028 1_655 S
O9 C1 1.253 1_565 S
O9 Zn3 2.035 . S
O10 Zn3 2.028 1_556 S
O10 C13 1.247 1_655 S
O11 Zn5 2.035 1_556 S
O11 C13 1.258 1_545 S
C12 O6 1.250 . S
C12 O7 1.255 1_445 S
C13 O10 1.247 1_455 S
C13 O11 1.258 1_565 S
C14 O16 1.247 1_455 S
C14 O18 1.258 . S
C15 O22 1.245 1_655 S
C15 O23 1.260 . S
O16 C14 1.247 1_655 S
O16 Zn17 2.028 . S
Zn17 O16 2.028 . S
Zn17 O21 2.035 1_655 S
Zn17 O23 2.035 . S
Zn17 O24 2.028 1_545 S
O18 C14 1.258 . S
O18 Zn19 2.035 . S
Zn19 O18 2.035 . S
Zn19 O20 2.028 . S
Zn19 O22 2.028 . S
Zn19 O25 2.035 1_445 S
O20 Zn19 2.028 . S
O20 C26 1.247 . S
O21 Zn17 2.035 1_455 S
O21 C26 1.258 . S
O22 C15 1.245 1_455 S
O22 Zn19 2.028 . S
O23 C15 1.260 . S
O23 Zn17 2.035 . S
O24 Zn17 2.028 1_565 S
O24 C27 1.247 . S
O25 Zn19 2.035 1_665 S
O25 C27 1.258 . S
C26 O20 1.247 . S
C26 O21 1.258 . S
C27 O24 1.247 . S
C27 O25 1.258 . S
C28 O30 1.247 . S
C28 O32 1.258 . S
C29 O36 1.247 . S
C29 O37 1.258 . S
O30 C28 1.247 . S
O30 Zn31 2.028 1_455 S
Zn31 O30 2.028 1_655 S
Zn31 O35 2.035 1_655 S
Zn31 O37 2.035 1_655 S
Zn31 O38 2.028 1_645 S
O32 C28 1.258 . S
O32 Zn33 2.035 . S
Zn33 O32 2.035 . S
Zn33 O34 2.028 . S
Zn33 O36 2.028 . S
Zn33 O39 2.035 . S
O34 Zn33 2.028 . S
O34 C40 1.247 . S
O35 Zn31 2.035 1_455 S
O35 C40 1.258 . S
O36 C29 1.247 . S
O36 Zn33 2.028 . S
O37 C29 1.258 . S
O37 Zn31 2.035 1_455 S
O38 Zn31 2.028 1_465 S
O38 C41 1.247 . S
O39 Zn33 2.035 . S
O39 C41 1.258 1_545 S
C40 O34 1.247 . S
C40 O35 1.258 . S
C41 O38 1.247 . S
C41 O39 1.258 1_565 S
H42 C50 0.950 1_556 S
H43 C55 0.950 . S
H44 C52 0.925 1_556 S
H45 C54 0.950 . S
H46 C56 0.950 . S
H47 C58 0.950 . S
H48 C60 0.961 . S
H49 C61 0.960 . S
C50 H42 0.950 1_554 S
C50 C51 1.386 . S
C50 C52 1.389 . S
C51 C50 1.386 . S
C51 C55 1.393 1_565 S
C52 H44 0.925 1_554 S
C52 C50 1.389 . S
C52 C53 1.429 . S
C53 C52 1.429 . S
C53 C54 1.398 1_565 S
C53 C59 1.491 1_565 S
C54 H45 0.950 . S
C54 C53 1.398 1_545 S
C54 C55 1.391 . S
C55 H43 0.950 . S
C55 C51 1.393 1_545 S
C55 C54 1.391 . S
C56 H46 0.950 . S
C56 C57 1.386 . S
C56 C58 1.391 . S
C57 C56 1.386 . S
C57 C61 1.381 1_544 S
C58 H47 0.950 . S
C58 C56 1.391 . S
C58 C59 1.400 . S
C59 C53 1.491 1_545 S
C59 C58 1.400 . S
C59 C60 1.389 1_544 S
C60 H48 0.961 . S
C60 C59 1.389 1_566 S
C60 C61 1.391 . S
C61 H49 0.960 . S
C61 C57 1.381 1_566 S
C61 C60 1.391 . S
H62 C70 0.950 . S
H63 C75 0.950 . S
H64 C72 0.950 . S
H65 C74 0.950 . S
H66 C76 0.950 . S
H67 C78 0.950 . S
H68 C80 0.950 . S
H69 C81 0.950 . S
C70 H62 0.950 . S
C70 C71 1.386 . S
C70 C72 1.391 . S
C71 C70 1.386 . S
C71 C75 1.393 . S
C72 H64 0.950 . S
C72 C70 1.391 . S
C72 C73 1.400 . S
C73 C72 1.400 . S
C73 C74 1.398 . S
C73 C79 1.491 . S
C74 H65 0.950 . S
C74 C73 1.398 . S
C74 C75 1.391 . S
C75 H63 0.950 . S
C75 C71 1.393 . S
C75 C74 1.391 . S
C76 H66 0.950 . S
C76 C77 1.386 . S
C76 C78 1.391 . S
C77 C76 1.386 . S
C77 C81 1.393 . S
C78 H67 0.950 . S
C78 C76 1.391 . S
C78 C79 1.400 . S
C79 C73 1.491 . S
C79 C78 1.400 . S
C79 C80 1.398 . S
C80 H68 0.950 . S
C80 C79 1.398 . S
C80 C81 1.391 . S
C81 H69 0.950 . S
C81 C77 1.393 . S
C81 C80 1.391 . S
H82 C90 0.950 . S
H83 C95 0.950 1_655 S
H84 C92 0.950 . S
H85 C94 0.950 1_655 S
H86 C96 0.950 1_655 S
H87 C98 0.950 1_655 S
H88 C100 0.950 . S
H89 C101 0.950 . S
C90 H82 0.950 . S
C90 C91 1.386 . S
C90 C92 1.391 . S
C91 C90 1.386 . S
C91 C95 1.393 . S
C92 H84 0.950 . S
C92 C90 1.391 . S
C92 C93 1.400 . S
C93 C92 1.400 . S
C93 C94 1.398 . S
C93 C99 1.491 . S
C94 H85 0.950 1_455 S
C94 C93 1.398 . S
C94 C95 1.391 . S
C95 H83 0.950 1_455 S
C95 C91 1.393 . S
C95 C94 1.391 . S
C96 H86 0.950 1_455 S
C96 C97 1.386 . S
C96 C98 1.391 . S
C97 C96 1.386 . S
C97 C101 1.393 . S
C98 H87 0.950 1_455 S
C98 C96 1.391 . S
C98 C99 1.400 . S
C99 C93 1.491 . S
C99 C98 1.400 . S
C99 C100 1.398 . S
C100 H88 0.950 . S
C100 C99 1.398 . S
C100 C101 1.391 . S
C101 H89 0.950 . S
C101 C97 1.393 . S
C101 C100 1.391 . S
H102 C110 0.950 . S
H103 C115 0.950 . S
H104 C112 0.950 . S
H105 C114 0.950 . S
H106 C116 0.950 . S
H107 C118 0.950 . S
H108 C120 0.950 1_565 S
H109 C121 0.950 . S
C110 H102 0.950 . S
C110 C111 1.386 1_455 S
C110 C112 1.391 . S
C111 C110 1.386 1_655 S
C111 C115 1.393 . S
C112 H104 0.950 . S
C112 C110 1.391 . S
C112 C113 1.399 1_455 S
C113 C112 1.399 1_655 S
C113 C114 1.399 . S
C113 C119 1.490 1_655 S
C114 H105 0.950 . S
C114 C113 1.399 . S
C114 C115 1.391 . S
C115 H103 0.950 . S
C115 C111 1.393 . S
C115 C114 1.391 . S
C116 H106 0.950 . S
C116 C117 1.386 1_655 S
C116 C118 1.391 . S
C117 C116 1.386 1_455 S
C117 C121 1.393 1_545 S
C118 H107 0.950 . S
C118 C116 1.391 . S
C118 C119 1.400 1_655 S
C119 C113 1.490 1_455 S
C119 C118 1.400 1_455 S
C119 C120 1.398 . S
C120 H108 0.950 1_545 S
C120 C119 1.398 . S
C120 C121 1.391 1_545 S
C121 H109 0.950 . S
C121 C117 1.393 1_565 S
C121 C120 1.391 1_565 S
H122 C130 0.950 1_655 S
H123 C135 0.950 . S
H124 C132 0.950 1_655 S
H125 C134 0.950 . S
H126 C136 0.950 . S
H127 C138 0.950 . S
H128 C140 0.950 . S
H129 C141 0.950 . S
C130 H122 0.950 1_455 S
C130 C131 1.386 . S
C130 C132 1.391 . S
C131 C130 1.386 . S
C131 C135 1.393 . S
C132 H124 0.950 1_455 S
C132 C130 1.391 . S
C132 C133 1.400 . S
C133 C132 1.400 . S
C133 C134 1.398 . S
C133 C139 1.491 . S
C134 H125 0.950 . S
C134 C133 1.398 . S
C134 C135 1.391 . S
C135 H123 0.950 . S
C135 C131 1.393 . S
C135 C134 1.391 . S
C136 H126 0.950 . S
C136 C137 1.386 . S
C136 C138 1.391 . S
C137 C136 1.386 . S
C137 C141 1.393 1_455 S
C138 H127 0.950 . S
C138 C136 1.391 . S
C138 C139 1.400 . S
C139 C133 1.491 . S
C139 C138 1.400 . S
C139 C140 1.398 1_455 S
C140 H128 0.950 . S
C140 C139 1.398 1_655 S
C140 C141 1.391 . S
C141 H129 0.950 . S
C141 C137 1.393 1_655 S
C141 C140 1.391 . S
H142 C150 0.950 . S
H143 C155 0.950 . S
H144 C152 0.950 . S
H145 C154 0.950 . S
H146 C156 0.950 . S
H147 C158 0.950 . S
H148 C160 0.950 . S
H149 C161 0.950 . S
C150 H142 0.950 . S
C150 C151 1.386 1_565 S
C150 C152 1.391 . S
C151 C150 1.386 1_545 S
C151 C155 1.393 . S
C152 H144 0.950 . S
C152 C150 1.391 . S
C152 C153 1.400 1_565 S
C153 C152 1.400 1_545 S
C153 C154 1.398 . S
C153 C159 1.491 . S
C154 H145 0.950 . S
C154 C153 1.398 . S
C154 C155 1.391 . S
C155 H143 0.950 . S
C155 C151 1.393 . S
C155 C154 1.391 . S
C156 H146 0.950 . S
C156 C157 1.386 . S
C156 C158 1.391 . S
C157 C156 1.386 . S
C157 C161 1.393 1_545 S
C158 H147 0.950 . S
C158 C156 1.391 . S
C158 C159 1.400 . S
C159 C153 1.491 . S
C159 C158 1.400 . S
C159 C160 1.398 1_545 S
C160 H148 0.950 . S
C160 C159 1.398 1_565 S
C160 C161 1.391 . S
C161 H149 0.950 . S
C161 C157 1.393 1_565 S
C161 C160 1.391 . S
C51 C1 1.502 1_565 S
C57 C0 1.501 1_545 S
C71 C27 1.497 . S
C77 C26 1.497 . S
C91 C41 1.500 . S
C97 C40 1.500 . S
C111 C15 1.519 . S
C117 C12 1.521 . S
C131 C29 1.528 . S
C137 C14 1.526 . S
C151 C28 1.528 . S
C157 C13 1.526 1_545 S
