# Generated by pormake.
# Topology cdl, (4)-cn, num edge types: 1
# Building blocks:
#     Node 0, Type 0, BuildingBlock: ESEHIV_clean_sbu_0, # of connection points: 4
#     Node 1, Type 0, BuildingBlock: ESEHIV_clean_sbu_0, # of connection points: 4
#     Node 2, Type 0, BuildingBlock: ESEHIV_clean_sbu_0, # of connection points: 4
#     Node 3, Type 0, BuildingBlock: ESEHIV_clean_sbu_0, # of connection points: 4
#     Edge 4, Type (0, 0), BuildingBlock: AJUNOK_clean_linker_0, # of connection points: 2
#     Edge 5, Type (0, 0), BuildingBlock: AJUNOK_clean_linker_0, # of connection points: 2
#     Edge 6, Type (0, 0), BuildingBlock: AJUNOK_clean_linker_0, # of connection points: 2
#     Edge 7, Type (0, 0), BuildingBlock: AJUNOK_clean_linker_0, # of connection points: 2
#     Edge 8, Type (0, 0), BuildingBlock: AJUNOK_clean_linker_0, # of connection points: 2
#     Edge 9, Type (0, 0), BuildingBlock: AJUNOK_clean_linker_0, # of connection points: 2
#     Edge 10, Type (0, 0), BuildingBlock: AJUNOK_clean_linker_0, # of connection points: 2
#     Edge 11, Type (0, 0), BuildingBlock: AJUNOK_clean_linker_0, # of connection points: 2
# Relax obj value: 0.000
# Max RMSD: 0.147
# Mean RMSD: 0.095
data_MOF--net-cdl--node1-ESEHIV_clean_sbu_0--edge1-AJUNOK_clean_linker_0
_symmetry_space_group_name_H-M    P1
_symmetry_Int_Tables_number       1
_symmetry_cell_setting            triclinic
loop_
_symmetry_equiv_pos_as_xyz
'x, y, z'
_cell_length_a     10.731624
_cell_length_b     12.949362
_cell_length_c     47.201351
_cell_angle_alpha  101.11961
_cell_angle_beta   99.581399
_cell_angle_gamma 87.920938
loop_
_atom_site_label
_atom_site_type_symbol
_atom_site_fract_x
_atom_site_fract_y
_atom_site_fract_z
_atom_type_partial_charge
Cu0 Cu 0.04001 0.17619 0.13806 0.0
N1 N 0.93536 0.05814 0.12789 0.0
N2 N 0.87465 0.89206 0.12333 0.0
C3 C 0.95384 0.96875 0.13869 0.0
C4 C 0.80409 0.93375 0.10189 0.0
C5 C 0.84163 1.03666 0.10481 0.0
O6 O 0.14236 0.17211 0.17621 0.0
C7 C 0.08724 0.19996 0.08277 0.0
O8 O 0.97947 0.25118 0.08246 0.0
H9 H 1.02857 0.958 0.15635 0.0
H10 H 0.80752 0.09039 0.0903 0.0
N11 N 0.94408 0.30045 0.14173 0.0
N12 N 0.88472 0.46723 0.14126 0.0
C13 C 0.97676 0.3948 0.13722 0.0
C14 C 0.82826 0.31447 0.14933 0.0
C15 C 0.79158 0.41768 0.1492 0.0
C16 C 0.0825 0.16038 0.19657 0.0
O17 O 0.95878 0.15278 0.19083 0.0
H18 H 0.06558 0.40972 0.13074 0.0
H19 H 0.77382 0.25352 0.15431 0.0
O20 O 0.13559 0.16463 0.10563 0.0
H21 H 0.73339 0.89182 0.08492 0.0
H22 H 0.70231 0.45294 0.15378 0.0
Cu23 Cu 0.27464 0.26222 0.67236 0.0
N24 N 0.28488 0.1803 0.70145 0.0
N25 N 0.25535 0.13001 0.74265 0.0
C26 C 0.24542 0.20912 0.72748 0.0
C27 C 0.30579 1.04853 0.72578 0.0
C28 C 0.32351 0.07967 0.70031 0.0
O29 O 0.10917 0.33074 0.66922 0.0
C30 C 0.52679 0.29634 0.67637 0.0
O31 O 0.51926 0.1933 0.66941 0.0
H32 H 0.20862 0.28622 0.73511 0.0
H33 H 0.35844 1.03136 0.68189 0.0
N34 N 0.2694 0.17582 0.63544 0.0
N35 N 0.28249 0.12716 0.58792 0.0
C36 C 0.32129 0.1961 0.61296 0.0
C37 C 0.19458 0.09173 0.62413 0.0
C38 C 0.20224 0.06166 0.59478 0.0
C39 C 0.05455 0.39245 0.68787 0.0
O40 O 0.12077 0.43736 0.71288 0.0
H41 H 0.38069 0.26344 0.61453 0.0
H42 H 0.13419 0.05784 0.63611 0.0
O43 O 0.42614 0.34955 0.67978 0.0
H44 H 0.32307 0.97077 0.73089 0.0
H45 H 0.15069 0.99827 0.57949 0.0
Cu46 Cu 1.02203 0.09255 0.90322 0.0
N47 N 0.92074 0.97172 0.89242 0.0
N48 N 0.85309 0.80673 0.88778 0.0
C49 C 0.95105 0.8742 0.89748 0.0
C50 C 0.75891 0.86375 0.87537 0.0
C51 C 0.80054 0.9653 0.87848 0.0
O52 O 0.12191 0.09967 0.94236 0.0
C53 C 0.05183 0.10475 0.84726 0.0
O54 O 0.92828 0.10418 0.84512 0.0
H55 H 0.04178 0.85434 0.90906 0.0
H56 H 0.74665 1.03023 0.87119 0.0
N57 N 0.9201 0.21285 0.9065 0.0
N58 N 0.85479 0.37829 0.90523 0.0
C59 C 0.93574 0.30109 0.89635 0.0
C60 C 0.82707 0.23491 0.92262 0.0
C61 C 0.78676 0.33687 0.92195 0.0
C62 C 0.07688 0.06128 0.96147 0.0
O63 O 0.96875 1.01131 0.95392 0.0
H64 H 1.00725 0.30921 0.88326 0.0
H65 H 0.79474 0.18203 0.935 0.0
O66 O 0.11879 0.09697 0.87177 0.0
H67 H 0.66671 0.83458 0.86448 0.0
H68 H 0.71751 0.37849 0.93418 0.0
Cu69 Cu 0.36734 0.26476 0.40131 0.0
N70 N 0.35006 0.18099 0.36374 0.0
N71 N 0.30125 0.13277 0.31512 0.0
C72 C 0.31443 0.21383 0.33813 0.0
C73 C 0.3272 1.04541 0.32664 0.0
C74 C 0.35797 0.0754 0.35662 0.0
O75 O 0.52206 0.34585 0.40977 0.0
C76 C 0.11608 0.29229 0.4031 0.0
O77 O 0.12759 0.18976 0.40062 0.0
H78 H 0.29318 0.29504 0.33649 0.0
H79 H 0.38016 1.02348 0.37217 0.0
N80 N 0.38929 0.18136 0.43017 0.0
N81 N 0.39156 0.13386 0.47336 0.0
C82 C 0.33706 0.19585 0.45477 0.0
C83 C 0.48007 0.10812 0.4335 0.0
C84 C 0.48136 0.07833 0.46006 0.0
C85 C 0.58431 0.36884 0.39117 0.0
O86 O 0.53 0.35987 0.36377 0.0
H87 H 0.26585 0.25488 0.45975 0.0
H88 H 0.54505 0.08214 0.41831 0.0
O89 O 0.21324 0.34688 0.40391 0.0
H90 H 0.32159 0.96561 0.31428 0.0
H91 H 0.54532 1.02224 0.46922 0.0
C92 C 0.85249 0.6573 0.15806 0.0
C93 C 0.88274 0.57362 0.13646 0.0
C94 C 0.8509 0.7617 0.15373 0.0
C95 C 0.87555 0.78496 0.12733 0.0
H96 H 0.83199 0.64176 0.17854 0.0
H97 H 0.82909 0.8247 0.17092 0.0
S98 S 0.95699 0.59426 0.06384 0.0
N99 N 0.93778 0.52099 0.08784 0.0
N100 N 0.93079 0.71701 0.07942 0.0
C101 C 0.9043 0.70207 0.10548 0.0
C102 C 0.90895 0.5963 0.11013 0.0
C103 C 0.71906 0.30848 0.65476 0.0
C104 C 0.6503 0.34532 0.67754 0.0
C105 C 0.84714 0.33224 0.65745 0.0
C106 C 0.91333 0.39204 0.68341 0.0
H107 H 0.67482 0.25642 0.63512 0.0
H108 H 0.89608 0.29764 0.63956 0.0
S109 S 0.77103 0.51734 0.74836 0.0
N110 N 0.65257 0.45311 0.72572 0.0
N111 N 0.89495 0.49688 0.73134 0.0
C112 C 0.84295 0.43578 0.70564 0.0
C113 C 0.71111 0.41247 0.70261 0.0
C114 C 0.96164 0.5329 0.8965 0.0
C115 C 0.85089 0.48499 0.90003 0.0
C116 C 0.96109 0.63713 0.89221 0.0
C117 C 0.84987 0.69829 0.89128 0.0
H118 H 0.05039 0.4903 0.89758 0.0
H119 H 0.04878 0.66997 0.88955 0.0
S120 S 0.53352 0.60973 0.8989 0.0
N121 N 0.62564 0.50585 0.9012 0.0
N122 N 0.62571 0.70297 0.89466 0.0
C123 C 0.73813 0.65127 0.89466 0.0
C124 C 0.73848 0.54461 0.89873 0.0
C125 C 0.79522 0.40102 0.37819 0.0
C126 C 0.72439 0.37641 0.39863 0.0
C127 C 0.92637 0.38337 0.38119 0.0
C128 C 0.99035 0.33976 0.40458 0.0
H129 H 0.7481 0.42803 0.35879 0.0
H130 H 0.97596 0.3962 0.36397 0.0
S131 S 0.855 0.27495 0.46617 0.0
N132 N 0.73357 0.31816 0.44517 0.0
N133 N 0.97839 0.28236 0.44995 0.0
C134 C 0.92332 0.32237 0.42626 0.0
C135 C 0.79067 0.34179 0.42358 0.0
C136 C 0.13571 0.20044 1.00567 0.0
C137 C 0.12508 0.09286 0.99308 0.0
C138 C 0.13638 0.23502 0.03582 0.0
C139 C 0.13046 0.16302 0.05441 0.0
H140 H 0.13046 0.2587 0.99183 0.0
H141 H 0.13214 0.31883 0.04427 0.0
S142 S 0.1183 0.87256 0.03263 0.0
N143 N 0.11977 0.91438 1.00175 0.0
N144 N 0.12635 0.97921 0.05851 0.0
C145 C 0.13256 1.05504 0.0425 0.0
C146 C 0.12847 1.01998 1.01175 0.0
C147 C 0.2408 0.12405 0.50695 0.0
C148 C 0.36565 0.13314 0.50229 0.0
C149 C 0.21425 0.12065 0.53493 0.0
C150 C 0.31139 0.12913 0.5593 0.0
H151 H 0.16367 0.11789 0.48872 0.0
H152 H 0.11703 0.11294 0.53766 0.0
S153 S 0.65317 0.1584 0.55885 0.0
N154 N 0.5868 0.15241 0.52437 0.0
N155 N 0.53651 0.14841 0.577 0.0
C156 C 0.43617 0.14005 0.55497 0.0
C157 C 0.46345 0.14134 0.52645 0.0
C158 C 0.15175 0.07326 0.26977 0.0
C159 C 0.25347 0.13728 0.28502 0.0
C160 C 0.09894 0.08042 0.24098 0.0
C161 C 0.14805 0.14986 0.22607 0.0
H162 H 0.11043 1.01953 0.28054 0.0
H163 H 1.01845 1.03137 0.23033 0.0
S164 S 0.41852 0.33041 0.25595 0.0
N165 N 0.40377 0.27035 0.2831 0.0
N166 N 0.30711 0.28153 0.22849 0.0
C167 C 0.25254 0.21187 0.24076 0.0
C168 C 0.3044 0.20635 0.27039 0.0
C169 C 0.27498 0.07812 0.79114 0.0
C170 C 0.20733 0.12868 0.7694 0.0
C171 C 0.22695 0.07359 0.8169 0.0
C172 C 0.10836 0.1176 0.82147 0.0
H173 H 0.36557 1.04188 0.78815 0.0
H174 H 0.28124 1.03282 0.8329 0.0
S175 S 0.89444 0.25928 0.77124 0.0
N176 N 1.01619 0.22382 0.75429 0.0
N177 N 0.92642 0.21606 0.80236 0.0
C178 C 0.04084 0.16945 0.8 0.0
C179 C 0.0901 0.17482 0.77405 0.0
loop_
_geom_bond_atom_site_label_1
_geom_bond_atom_site_label_2
_geom_bond_distance
_geom_bond_site_symmetry_2
_ccdc_geom_bond_type
Cu0 N1 1.999 1_545 S
Cu0 O6 1.974 . S
Cu0 N11 1.985 . S
Cu0 O20 1.959 . S
N1 Cu0 1.999 1_565 S
N1 C3 1.263 . S
N1 C5 1.389 . S
N2 C3 1.358 . S
N2 C4 1.400 . S
C3 N1 1.263 . S
C3 N2 1.358 . S
C3 H9 0.930 . S
C4 N2 1.400 . S
C4 C5 1.351 . S
C4 H21 0.930 . S
C5 N1 1.389 . S
C5 C4 1.351 . S
C5 H10 0.930 . S
O6 Cu0 1.974 . S
O6 C16 1.282 . S
C7 O8 1.261 . S
C7 O20 1.251 . S
O8 C7 1.261 . S
H9 C3 0.930 . S
H10 C5 0.930 . S
N11 Cu0 1.985 . S
N11 C13 1.335 . S
N11 C14 1.390 . S
N12 C13 1.345 . S
N12 C15 1.336 . S
C13 N11 1.335 . S
C13 N12 1.345 . S
C13 H18 0.930 . S
C14 N11 1.390 . S
C14 C15 1.346 . S
C14 H19 0.930 . S
C15 N12 1.336 . S
C15 C14 1.346 . S
C15 H22 0.929 . S
C16 O6 1.282 . S
C16 O17 1.216 . S
O17 C16 1.216 . S
H18 C13 0.930 . S
H19 C14 0.930 . S
O20 Cu0 1.959 . S
O20 C7 1.251 . S
H21 C4 0.930 . S
H22 C15 0.929 . S
Cu23 N24 1.999 . S
Cu23 O29 1.974 1_455 S
Cu23 N34 1.985 . S
Cu23 O43 1.959 . S
N24 Cu23 1.999 . S
N24 C26 1.263 . S
N24 C28 1.389 . S
N25 C26 1.358 . S
N25 C27 1.400 . S
C26 N24 1.263 . S
C26 N25 1.358 . S
C26 H32 0.930 1_455 S
C27 N25 1.400 . S
C27 C28 1.351 . S
C27 H44 0.930 . S
C28 N24 1.389 . S
C28 C27 1.351 . S
C28 H33 0.930 . S
O29 Cu23 1.974 1_655 S
O29 C39 1.282 . S
C30 O31 1.261 . S
C30 O43 1.251 . S
O31 C30 1.261 . S
H32 C26 0.930 1_655 S
H33 C28 0.930 . S
N34 Cu23 1.985 . S
N34 C36 1.335 . S
N34 C37 1.390 1_455 S
N35 C36 1.345 . S
N35 C38 1.336 1_455 S
C36 N34 1.335 . S
C36 N35 1.345 . S
C36 H41 0.930 . S
C37 N34 1.390 1_655 S
C37 C38 1.346 . S
C37 H42 0.930 . S
C38 N35 1.336 1_655 S
C38 C37 1.346 . S
C38 H45 0.929 . S
C39 O29 1.282 . S
C39 O40 1.216 . S
O40 C39 1.216 . S
H41 C36 0.930 . S
H42 C37 0.930 . S
O43 Cu23 1.959 . S
O43 C30 1.251 . S
H44 C27 0.930 . S
H45 C38 0.929 . S
Cu46 N47 1.999 1_545 S
Cu46 O52 1.974 . S
Cu46 N57 1.985 . S
Cu46 O66 1.959 . S
N47 Cu46 1.999 1_565 S
N47 C49 1.263 . S
N47 C51 1.389 . S
N48 C49 1.358 . S
N48 C50 1.400 . S
C49 N47 1.263 . S
C49 N48 1.358 . S
C49 H55 0.930 1_455 S
C50 N48 1.400 . S
C50 C51 1.351 . S
C50 H67 0.930 . S
C51 N47 1.389 . S
C51 C50 1.351 . S
C51 H56 0.930 . S
O52 Cu46 1.974 . S
O52 C62 1.282 1_455 S
C53 O54 1.261 . S
C53 O66 1.251 1_655 S
O54 C53 1.261 . S
H55 C49 0.930 1_655 S
H56 C51 0.930 . S
N57 Cu46 1.985 . S
N57 C59 1.335 . S
N57 C60 1.390 1_455 S
N58 C59 1.345 . S
N58 C61 1.336 1_455 S
C59 N57 1.335 . S
C59 N58 1.345 . S
C59 H64 0.930 . S
C60 N57 1.390 1_655 S
C60 C61 1.346 . S
C60 H65 0.930 . S
C61 N58 1.336 1_655 S
C61 C60 1.346 . S
C61 H68 0.929 . S
C62 O52 1.282 1_655 S
C62 O63 1.216 . S
O63 C62 1.216 . S
H64 C59 0.930 . S
H65 C60 0.930 . S
O66 Cu46 1.959 . S
O66 C53 1.251 1_455 S
H67 C50 0.930 . S
H68 C61 0.929 . S
Cu69 N70 1.999 . S
Cu69 O75 1.974 . S
Cu69 N80 1.985 . S
Cu69 O89 1.959 1_455 S
N70 Cu69 1.999 . S
N70 C72 1.263 . S
N70 C74 1.389 . S
N71 C72 1.358 . S
N71 C73 1.400 . S
C72 N70 1.263 . S
C72 N71 1.358 . S
C72 H78 0.930 . S
C73 N71 1.400 . S
C73 C74 1.351 . S
C73 H90 0.930 1_455 S
C74 N70 1.389 . S
C74 C73 1.351 . S
C74 H79 0.930 1_455 S
O75 Cu69 1.974 . S
O75 C85 1.282 . S
C76 O77 1.261 1_545 S
C76 O89 1.251 . S
O77 C76 1.261 1_565 S
H78 C72 0.930 . S
H79 C74 0.930 1_655 S
N80 Cu69 1.985 . S
N80 C82 1.335 . S
N80 C83 1.390 . S
N81 C82 1.345 . S
N81 C84 1.336 . S
C82 N80 1.335 . S
C82 N81 1.345 . S
C82 H87 0.930 . S
C83 N80 1.390 . S
C83 C84 1.346 . S
C83 H88 0.930 . S
C84 N81 1.336 . S
C84 C83 1.346 . S
C84 H91 0.929 . S
C85 O75 1.282 . S
C85 O86 1.216 1_545 S
O86 C85 1.216 1_565 S
H87 C82 0.930 . S
H88 C83 0.930 . S
O89 Cu69 1.959 1_655 S
O89 C76 1.251 . S
H90 C73 0.930 1_655 S
H91 C84 0.929 . S
C92 C93 1.369 . S
C92 C94 1.419 . S
C92 H96 0.930 . S
C93 C92 1.369 . S
C93 C102 1.429 . S
C94 C92 1.419 . S
C94 C95 1.363 . S
C94 H97 0.929 . S
C95 C94 1.363 . S
C95 C101 1.428 . S
H96 C92 0.930 . S
H97 C94 0.929 . S
S98 N99 1.613 1_655 S
S98 N100 1.610 1_655 S
N99 S98 1.613 1_455 S
N99 C102 1.350 . S
N100 S98 1.610 1_455 S
N100 C101 1.351 . S
C101 C95 1.428 . S
C101 N100 1.351 . S
C101 C102 1.434 . S
C102 C93 1.429 . S
C102 N99 1.350 . S
C102 C101 1.434 . S
C103 C104 1.369 . S
C103 C105 1.419 . S
C103 H107 0.930 . S
C104 C103 1.369 . S
C104 C113 1.429 . S
C105 C103 1.419 . S
C105 C106 1.363 . S
C105 H108 0.929 . S
C106 C105 1.363 . S
C106 C112 1.428 . S
H107 C103 0.930 . S
H108 C105 0.929 . S
S109 N110 1.613 . S
S109 N111 1.610 . S
N110 S109 1.613 . S
N110 C113 1.350 . S
N111 S109 1.610 . S
N111 C112 1.351 . S
C112 C106 1.428 . S
C112 N111 1.351 . S
C112 C113 1.434 . S
C113 C104 1.429 . S
C113 N110 1.350 . S
C113 C112 1.434 . S
C114 C115 1.369 . S
C114 C116 1.419 . S
C114 H118 0.930 . S
C115 C114 1.369 . S
C115 C124 1.429 1_455 S
C116 C114 1.419 . S
C116 C117 1.363 . S
C116 H119 0.929 . S
C117 C116 1.363 . S
C117 C123 1.428 1_455 S
H118 C114 0.930 . S
H119 C116 0.929 . S
S120 N121 1.613 . S
S120 N122 1.610 . S
N121 S120 1.613 . S
N121 C124 1.350 . S
N122 S120 1.610 . S
N122 C123 1.351 . S
C123 C117 1.428 1_655 S
C123 N122 1.351 . S
C123 C124 1.434 . S
C124 C115 1.429 1_655 S
C124 N121 1.350 . S
C124 C123 1.434 . S
C125 C126 1.369 . S
C125 C127 1.419 . S
C125 H129 0.930 . S
C126 C125 1.369 . S
C126 C135 1.429 1_545 S
C127 C125 1.419 . S
C127 C128 1.363 . S
C127 H130 0.929 . S
C128 C127 1.363 . S
C128 C134 1.428 1_545 S
H129 C125 0.930 . S
H130 C127 0.929 . S
S131 N132 1.613 . S
S131 N133 1.610 . S
N132 S131 1.613 . S
N132 C135 1.350 . S
N133 S131 1.610 . S
N133 C134 1.351 . S
C134 C128 1.428 1_565 S
C134 N133 1.351 . S
C134 C135 1.434 . S
C135 C126 1.429 1_565 S
C135 N132 1.350 . S
C135 C134 1.434 . S
C136 C137 1.369 1_655 S
C136 C138 1.419 1_656 S
C136 H140 0.930 . S
C137 C136 1.369 1_455 S
C137 C146 1.429 . S
C138 C136 1.419 1_454 S
C138 C139 1.363 . S
C138 H141 0.929 . S
C139 C138 1.363 . S
C139 C145 1.428 . S
H140 C136 0.930 . S
H141 C138 0.929 . S
S142 N143 1.613 . S
S142 N144 1.610 1_556 S
N143 S142 1.613 . S
N143 C146 1.350 1_565 S
N144 S142 1.610 1_554 S
N144 C145 1.351 1_565 S
C145 C139 1.428 . S
C145 N144 1.351 1_545 S
C145 C146 1.434 1_554 S
C146 C137 1.429 . S
C146 N143 1.350 1_545 S
C146 C145 1.434 1_556 S
C147 C148 1.369 . S
C147 C149 1.419 1_455 S
C147 H151 0.930 1_455 S
C148 C147 1.369 . S
C148 C157 1.429 . S
C149 C147 1.419 1_655 S
C149 C150 1.363 1_655 S
C149 H152 0.929 . S
C150 C149 1.363 1_455 S
C150 C156 1.428 . S
H151 C147 0.930 1_655 S
H152 C149 0.929 . S
S153 N154 1.613 . S
S153 N155 1.610 . S
N154 S153 1.613 . S
N154 C157 1.350 . S
N155 S153 1.610 . S
N155 C156 1.351 . S
C156 C150 1.428 . S
C156 N155 1.351 . S
C156 C157 1.434 . S
C157 C148 1.429 . S
C157 N154 1.350 . S
C157 C156 1.434 . S
C158 C159 1.369 . S
C158 C160 1.419 . S
C158 H162 0.930 1_455 S
C159 C158 1.369 . S
C159 C168 1.429 . S
C160 C158 1.419 . S
C160 C161 1.363 . S
C160 H163 0.929 1_455 S
C161 C160 1.363 . S
C161 C167 1.428 . S
H162 C158 0.930 1_655 S
H163 C160 0.929 1_655 S
S164 N165 1.613 . S
S164 N166 1.610 . S
N165 S164 1.613 . S
N165 C168 1.350 . S
N166 S164 1.610 . S
N166 C167 1.351 . S
C167 C161 1.428 . S
C167 N166 1.351 . S
C167 C168 1.434 . S
C168 C159 1.429 . S
C168 N165 1.350 . S
C168 C167 1.434 . S
C169 C170 1.369 . S
C169 C171 1.419 . S
C169 H173 0.930 . S
C170 C169 1.369 . S
C170 C179 1.429 1_455 S
C171 C169 1.419 . S
C171 C172 1.363 1_455 S
C171 H174 0.929 . S
C172 C171 1.363 1_655 S
C172 C178 1.428 . S
H173 C169 0.930 . S
H174 C171 0.929 . S
S175 N176 1.613 . S
S175 N177 1.610 . S
N176 S175 1.613 . S
N176 C179 1.350 . S
N177 S175 1.610 . S
N177 C178 1.351 . S
C178 C172 1.428 . S
C178 N177 1.351 . S
C178 C179 1.434 . S
C179 C170 1.429 1_655 S
C179 N176 1.350 . S
C179 C178 1.434 . S
C93 N12 1.469 . S
C95 N2 1.462 . S
C104 C30 1.496 . S
C106 C39 1.491 . S
C115 N58 1.464 . S
C117 N48 1.464 . S
C126 C85 1.488 . S
C128 C76 1.497 . S
C137 C62 1.574 1_455 S
C139 C7 1.561 . S
C148 N81 1.522 . S
C150 N35 1.499 . S
C159 N71 1.452 . S
C161 C16 1.487 . S
C170 N25 1.617 . S
C172 C53 1.610 . S
