# Generated by pormake.
# Topology uov, (4)-cn, num edge types: 1
# Building blocks:
#     Node 0, Type 0, BuildingBlock: CEKHIL_clean_sbu_0, # of connection points: 4
#     Node 1, Type 0, BuildingBlock: CEKHIL_clean_sbu_0, # of connection points: 4
#     Node 2, Type 0, BuildingBlock: CEKHIL_clean_sbu_0, # of connection points: 4
#     Node 3, Type 0, BuildingBlock: CEKHIL_clean_sbu_0, # of connection points: 4
#     Node 4, Type 0, BuildingBlock: CEKHIL_clean_sbu_0, # of connection points: 4
#     Node 5, Type 0, BuildingBlock: CEKHIL_clean_sbu_0, # of connection points: 4
#     Node 6, Type 0, BuildingBlock: CEKHIL_clean_sbu_0, # of connection points: 4
#     Node 7, Type 0, BuildingBlock: CEKHIL_clean_sbu_0, # of connection points: 4
#     Edge 8, Type (0, 0), BuildingBlock: EYOCIG_clean_linker_4, # of connection points: 2
#     Edge 9, Type (0, 0), BuildingBlock: EYOCIG_clean_linker_4, # of connection points: 2
#     Edge 10, Type (0, 0), BuildingBlock: EYOCIG_clean_linker_4, # of connection points: 2
#     Edge 11, Type (0, 0), BuildingBlock: EYOCIG_clean_linker_4, # of connection points: 2
#     Edge 12, Type (0, 0), BuildingBlock: EYOCIG_clean_linker_4, # of connection points: 2
#     Edge 13, Type (0, 0), BuildingBlock: EYOCIG_clean_linker_4, # of connection points: 2
#     Edge 14, Type (0, 0), BuildingBlock: EYOCIG_clean_linker_4, # of connection points: 2
#     Edge 15, Type (0, 0), BuildingBlock: EYOCIG_clean_linker_4, # of connection points: 2
#     Edge 16, Type (0, 0), BuildingBlock: EYOCIG_clean_linker_4, # of connection points: 2
#     Edge 17, Type (0, 0), BuildingBlock: EYOCIG_clean_linker_4, # of connection points: 2
#     Edge 18, Type (0, 0), BuildingBlock: EYOCIG_clean_linker_4, # of connection points: 2
#     Edge 19, Type (0, 0), BuildingBlock: EYOCIG_clean_linker_4, # of connection points: 2
#     Edge 20, Type (0, 0), BuildingBlock: EYOCIG_clean_linker_4, # of connection points: 2
#     Edge 21, Type (0, 0), BuildingBlock: EYOCIG_clean_linker_4, # of connection points: 2
#     Edge 22, Type (0, 0), BuildingBlock: EYOCIG_clean_linker_4, # of connection points: 2
#     Edge 23, Type (0, 0), BuildingBlock: EYOCIG_clean_linker_4, # of connection points: 2
# Relax obj value: 0.153
# Max RMSD: 0.151
# Mean RMSD: 0.151
data_MOF--net-uov--node1-CEKHIL_clean_sbu_0--edge1-EYOCIG_clean_linker_4
_symmetry_space_group_name_H-M    P1
_symmetry_Int_Tables_number       1
_symmetry_cell_setting            triclinic
loop_
_symmetry_equiv_pos_as_xyz
'x, y, z'
_cell_length_a     23.714177
_cell_length_b     23.719374
_cell_length_c     33.090603
_cell_angle_alpha  89.99033
_cell_angle_beta   90.010166
_cell_angle_gamma 89.991723
loop_
_atom_site_label
_atom_site_type_symbol
_atom_site_fract_x
_atom_site_fract_y
_atom_site_fract_z
_atom_type_partial_charge
Co0 Co 0.03352 0.27062 0.60393 0.0
O1 O 0.99524 0.3244 0.63769 0.0
O2 O 0.06704 0.34412 0.59694 0.0
C3 C 0.95518 0.23125 0.57828 0.0
O4 O 0.08102 0.22726 0.56293 0.0
Co5 Co 0.01866 0.14149 0.61751 0.0
O6 O 0.05435 0.13603 0.56358 0.0
C7 C 0.09571 0.20652 0.67004 0.0
C8 C 0.02849 0.36169 0.62186 0.0
C9 C 0.08156 0.17702 0.54829 0.0
O10 O 0.08809 0.25149 0.64897 0.0
O11 O 0.06948 0.16019 0.66402 0.0
O12 O 0.97444 0.27796 0.56341 0.0
O13 O 0.98015 0.21263 0.6103 0.0
Co14 Co 0.27086 0.96326 0.38836 0.0
O15 O 0.32439 0.00146 0.35433 0.0
O16 O 0.34449 0.92994 0.39524 0.0
C17 C 0.23136 0.04159 0.41391 0.0
O18 O 0.22784 0.91591 0.42962 0.0
Co19 Co 0.14159 0.97772 0.37504 0.0
O20 O 0.13656 0.94252 0.42917 0.0
C21 C 0.20659 0.90059 0.32258 0.0
C22 C 0.36184 0.96837 0.37016 0.0
C23 C 0.17769 0.91548 0.44445 0.0
O24 O 0.25163 0.90841 0.34353 0.0
O25 O 0.1602 0.92673 0.32863 0.0
O26 O 0.27824 0.02256 0.42868 0.0
O27 O 0.21267 0.01643 0.382 0.0
Co28 Co 0.96396 0.72654 0.6042 0.0
O29 O 0.0022 0.67276 0.638 0.0
O30 O 0.93081 0.65294 0.5969 0.0
C31 C 0.04231 0.76639 0.57896 0.0
O32 O 0.9166 0.76992 0.5631 0.0
Co33 Co 0.97816 0.85566 0.61818 0.0
O34 O 0.94291 0.86125 0.56409 0.0
C35 C 0.901 0.79 0.67021 0.0
C36 C 0.96923 0.63541 0.62194 0.0
C37 C 0.916 0.82024 0.54857 0.0
O38 O 0.90896 0.7452 0.64905 0.0
O39 O 0.92707 0.83648 0.66443 0.0
O40 O 0.02337 0.71966 0.56391 0.0
O41 O 0.01703 0.78473 0.61092 0.0
Co42 Co 0.72649 0.03341 0.3881 0.0
O43 O 0.67305 0.99477 0.35427 0.0
O44 O 0.65272 0.06639 0.395 0.0
C45 C 0.76647 0.95541 0.41381 0.0
O46 O 0.76943 0.08119 0.42916 0.0
Co47 Co 0.85579 0.01952 0.37461 0.0
O48 O 0.86086 0.05513 0.42859 0.0
C49 C 0.79021 0.09609 0.32206 0.0
C50 C 0.63548 0.02776 0.37004 0.0
C51 C 0.81965 0.08203 0.44387 0.0
O52 O 0.74528 0.08813 0.3431 0.0
O53 O 0.83674 0.07021 0.3281 0.0
O54 O 0.71955 0.97428 0.42861 0.0
O55 O 0.78493 0.9805 0.3818 0.0
Co56 Co 0.96355 0.27023 0.10384 0.0
O57 O 0.00181 0.32389 0.1377 0.0
O58 O 0.93032 0.34384 0.09672 0.0
C59 C 0.04187 0.23051 0.07844 0.0
O60 O 0.91614 0.227 0.06271 0.0
Co61 Co 0.97788 0.14105 0.11756 0.0
O62 O 0.94253 0.13568 0.06351 0.0
C63 C 0.90078 0.20646 0.1698 0.0
C64 C 0.96877 0.36129 0.12176 0.0
C65 C 0.91555 0.17674 0.04809 0.0
O66 O 0.90865 0.25135 0.14871 0.0
O67 O 0.92688 0.16002 0.1639 0.0
O68 O 0.02288 0.2773 0.0635 0.0
O69 O 0.01667 0.21204 0.11039 0.0
Co70 Co 0.27051 0.0329 0.8882 0.0
O71 O 0.32409 0.99454 0.85431 0.0
O72 O 0.34413 0.06619 0.89509 0.0
C73 C 0.23094 0.95468 0.91388 0.0
O74 O 0.22742 0.08042 0.92932 0.0
Co75 Co 0.14126 0.01847 0.87478 0.0
O76 O 0.13612 0.05393 0.9288 0.0
C77 C 0.20638 0.09543 0.82226 0.0
C78 C 0.36152 0.02766 0.8701 0.0
C79 C 0.17723 0.081 0.94407 0.0
O80 O 0.25139 0.08761 0.84325 0.0
O81 O 0.15997 0.06935 0.82832 0.0
O82 O 0.2778 0.97374 0.92866 0.0
O83 O 0.21232 0.97974 0.8819 0.0
Co84 Co 0.0333 0.72605 0.10425 0.0
O85 O 0.99494 0.67231 0.138 0.0
O86 O 0.06665 0.65248 0.09721 0.0
C87 C 0.95504 0.76566 0.07864 0.0
O88 O 0.08085 0.76934 0.06324 0.0
Co89 Co 0.01876 0.8552 0.1179 0.0
O90 O 0.05432 0.86061 0.06392 0.0
C91 C 0.09569 0.78989 0.17037 0.0
C92 C 0.02809 0.63496 0.12212 0.0
C93 C 0.08143 0.81959 0.04859 0.0
O94 O 0.08796 0.74498 0.14927 0.0
O95 O 0.06957 0.8363 0.16438 0.0
O96 O 0.97417 0.71891 0.06375 0.0
O97 O 0.98007 0.78417 0.11066 0.0
Co98 Co 0.72626 0.963 0.88819 0.0
O99 O 0.67269 0.00138 0.85429 0.0
O100 O 0.65258 0.9299 0.89522 0.0
C101 C 0.76607 0.04121 0.91367 0.0
O102 O 0.76935 0.91549 0.92935 0.0
Co103 Co 0.85551 0.9771 0.87461 0.0
O104 O 0.86073 0.94172 0.92867 0.0
C105 C 0.79005 0.9002 0.82226 0.0
C106 C 0.63522 0.96839 0.87017 0.0
C107 C 0.81959 0.91481 0.94403 0.0
O108 O 0.74513 0.90813 0.84332 0.0
O109 O 0.83652 0.92621 0.82822 0.0
O110 O 0.71922 0.0223 0.92855 0.0
O111 O 0.78456 0.01601 0.88172 0.0
C112 C 0.99142 0.52731 0.63156 0.0
C113 C 0.98087 0.57655 0.62693 0.0
C114 C 0.00649 0.46981 0.63155 0.0
C115 C 0.01698 0.42057 0.62688 0.0
C116 C 0.52745 0.00538 0.36015 0.0
C117 C 0.57668 0.01596 0.36487 0.0
C118 C 0.46993 0.99036 0.36018 0.0
C119 C 0.42069 0.97993 0.36495 0.0
C120 C 0.99087 0.46935 0.13161 0.0
C121 C 0.98035 0.42013 0.12688 0.0
C122 C 0.00593 0.52685 0.13171 0.0
C123 C 0.01646 0.5761 0.1271 0.0
C124 C 0.46962 0.00558 0.86025 0.0
C125 C 0.42037 0.01605 0.86496 0.0
C126 C 0.52715 0.99057 0.86027 0.0
C127 C 0.57639 0.98006 0.86501 0.0
C128 C 0.17259 0.11406 0.45705 0.0
C129 C 0.19776 0.08094 0.4362 0.0
C130 C 0.14273 0.14564 0.48609 0.0
C131 C 0.11643 0.16472 0.51405 0.0
C132 C 0.14666 0.85488 0.507 0.0
C133 C 0.16564 0.88091 0.47888 0.0
C134 C 0.11502 0.82526 0.53613 0.0
C135 C 0.0818 0.80015 0.55693 0.0
C136 C 0.82549 0.88318 0.45702 0.0
C137 C 0.80025 0.91618 0.4361 0.0
C138 C 0.85526 0.85165 0.48614 0.0
C139 C 0.8814 0.83257 0.51419 0.0
C140 C 0.85068 0.14306 0.50618 0.0
C141 C 0.83166 0.11683 0.47818 0.0
C142 C 0.88237 0.17277 0.53524 0.0
C143 C 0.91563 0.19779 0.55607 0.0
C144 C 0.82496 0.11376 0.95665 0.0
C145 C 0.79978 0.08061 0.93584 0.0
C146 C 0.85472 0.14541 0.98571 0.0
C147 C 0.88088 0.1645 0.01374 0.0
C148 C 0.14612 0.14192 0.00643 0.0
C149 C 0.16512 0.11573 0.9784 0.0
C150 C 0.1145 0.17168 0.0355 0.0
C151 C 0.08132 0.19682 0.05631 0.0
C152 C 0.14241 0.85084 0.98626 0.0
C153 C 0.11618 0.83182 0.01428 0.0
C154 C 0.17218 0.88235 0.95713 0.0
C155 C 0.19732 0.91539 0.93621 0.0
C156 C 0.85074 0.85402 0.00647 0.0
C157 C 0.8317 0.88015 0.97841 0.0
C158 C 0.88238 0.82434 0.03558 0.0
C159 C 0.91557 0.79926 0.05644 0.0
C160 C 0.1671 0.19391 0.72976 0.0
C161 C 0.13667 0.20642 0.70198 0.0
C162 C 0.19391 0.16697 0.76261 0.0
C163 C 0.20634 0.13644 0.79035 0.0
C164 C 0.16711 0.80222 0.2301 0.0
C165 C 0.13665 0.78983 0.20231 0.0
C166 C 0.19399 0.82906 0.26295 0.0
C167 C 0.20649 0.85957 0.29069 0.0
C168 C 0.82924 0.80197 0.72975 0.0
C169 C 0.85985 0.78971 0.70202 0.0
C170 C 0.8023 0.82872 0.7626 0.0
C171 C 0.7899 0.8592 0.79036 0.0
C172 C 0.80233 0.16745 0.26229 0.0
C173 C 0.79 0.137 0.29009 0.0
C174 C 0.82917 0.19425 0.22941 0.0
C175 C 0.85971 0.2066 0.20166 0.0
loop_
_geom_bond_atom_site_label_1
_geom_bond_atom_site_label_2
_geom_bond_distance
_geom_bond_site_symmetry_2
_ccdc_geom_bond_type
Co0 O1 2.216 . S
Co0 O2 2.091 . S
Co0 O4 2.004 . S
Co0 O10 2.021 . S
Co0 O12 2.137 . S
Co0 O13 2.244 . S
O1 Co0 2.216 . S
O1 C8 1.247 . S
O2 Co0 2.091 . S
O2 C8 1.261 . S
C3 O12 1.247 . S
C3 O13 1.272 . S
O4 Co0 2.004 . S
O4 C9 1.259 . S
Co5 O6 2.061 . S
Co5 O11 2.052 . S
Co5 O13 2.135 . S
O6 Co5 2.061 . S
O6 C9 1.235 . S
C7 O10 1.238 . S
C7 O11 1.241 . S
C8 O1 1.247 . S
C8 O2 1.261 . S
C9 O4 1.259 . S
C9 O6 1.235 . S
O10 Co0 2.021 . S
O10 C7 1.238 . S
O11 Co5 2.052 . S
O11 C7 1.241 . S
O12 Co0 2.137 . S
O12 C3 1.247 . S
O13 Co0 2.244 . S
O13 C3 1.272 . S
O13 Co5 2.135 . S
Co14 O15 2.216 . S
Co14 O16 2.091 . S
Co14 O18 2.004 . S
Co14 O24 2.021 . S
Co14 O26 2.137 . S
Co14 O27 2.244 . S
O15 Co14 2.216 . S
O15 C22 1.247 . S
O16 Co14 2.091 . S
O16 C22 1.261 . S
C17 O26 1.247 . S
C17 O27 1.272 . S
O18 Co14 2.004 . S
O18 C23 1.259 . S
Co19 O20 2.061 . S
Co19 O25 2.052 . S
Co19 O27 2.135 . S
O20 Co19 2.061 . S
O20 C23 1.235 . S
C21 O24 1.238 . S
C21 O25 1.241 . S
C22 O15 1.247 . S
C22 O16 1.261 . S
C23 O18 1.259 . S
C23 O20 1.235 . S
O24 Co14 2.021 . S
O24 C21 1.238 . S
O25 Co19 2.052 . S
O25 C21 1.241 . S
O26 Co14 2.137 . S
O26 C17 1.247 . S
O27 Co14 2.244 . S
O27 C17 1.272 . S
O27 Co19 2.135 . S
Co28 O29 2.216 . S
Co28 O30 2.091 . S
Co28 O32 2.004 . S
Co28 O38 2.021 . S
Co28 O40 2.137 . S
Co28 O41 2.244 . S
O29 Co28 2.216 . S
O29 C36 1.247 . S
O30 Co28 2.091 . S
O30 C36 1.261 . S
C31 O40 1.247 . S
C31 O41 1.272 . S
O32 Co28 2.004 . S
O32 C37 1.259 . S
Co33 O34 2.061 . S
Co33 O39 2.052 . S
Co33 O41 2.135 . S
O34 Co33 2.061 . S
O34 C37 1.235 . S
C35 O38 1.238 . S
C35 O39 1.241 . S
C36 O29 1.247 . S
C36 O30 1.261 . S
C37 O32 1.259 . S
C37 O34 1.235 . S
O38 Co28 2.021 . S
O38 C35 1.238 . S
O39 Co33 2.052 . S
O39 C35 1.241 . S
O40 Co28 2.137 . S
O40 C31 1.247 . S
O41 Co28 2.244 . S
O41 C31 1.272 . S
O41 Co33 2.135 . S
Co42 O43 2.216 . S
Co42 O44 2.091 . S
Co42 O46 2.004 . S
Co42 O52 2.021 . S
Co42 O54 2.137 . S
Co42 O55 2.244 . S
O43 Co42 2.216 . S
O43 C50 1.247 . S
O44 Co42 2.091 . S
O44 C50 1.261 . S
C45 O54 1.247 . S
C45 O55 1.272 . S
O46 Co42 2.004 . S
O46 C51 1.259 . S
Co47 O48 2.061 . S
Co47 O53 2.052 . S
Co47 O55 2.135 . S
O48 Co47 2.061 . S
O48 C51 1.235 . S
C49 O52 1.238 . S
C49 O53 1.241 . S
C50 O43 1.247 . S
C50 O44 1.261 . S
C51 O46 1.259 . S
C51 O48 1.235 . S
O52 Co42 2.021 . S
O52 C49 1.238 . S
O53 Co47 2.052 . S
O53 C49 1.241 . S
O54 Co42 2.137 . S
O54 C45 1.247 . S
O55 Co42 2.244 . S
O55 C45 1.272 . S
O55 Co47 2.135 . S
Co56 O57 2.216 . S
Co56 O58 2.091 . S
Co56 O60 2.004 . S
Co56 O66 2.021 . S
Co56 O68 2.137 . S
Co56 O69 2.244 . S
O57 Co56 2.216 . S
O57 C64 1.247 . S
O58 Co56 2.091 . S
O58 C64 1.261 . S
C59 O68 1.247 . S
C59 O69 1.272 . S
O60 Co56 2.004 . S
O60 C65 1.259 . S
Co61 O62 2.061 . S
Co61 O67 2.052 . S
Co61 O69 2.135 . S
O62 Co61 2.061 . S
O62 C65 1.235 . S
C63 O66 1.238 . S
C63 O67 1.241 . S
C64 O57 1.247 . S
C64 O58 1.261 . S
C65 O60 1.259 . S
C65 O62 1.235 . S
O66 Co56 2.021 . S
O66 C63 1.238 . S
O67 Co61 2.052 . S
O67 C63 1.241 . S
O68 Co56 2.137 . S
O68 C59 1.247 . S
O69 Co56 2.244 . S
O69 C59 1.272 . S
O69 Co61 2.135 . S
Co70 O71 2.216 . S
Co70 O72 2.091 . S
Co70 O74 2.004 . S
Co70 O80 2.021 . S
Co70 O82 2.137 . S
Co70 O83 2.244 . S
O71 Co70 2.216 . S
O71 C78 1.247 . S
O72 Co70 2.091 . S
O72 C78 1.261 . S
C73 O82 1.247 . S
C73 O83 1.272 . S
O74 Co70 2.004 . S
O74 C79 1.259 . S
Co75 O76 2.061 . S
Co75 O81 2.052 . S
Co75 O83 2.135 . S
O76 Co75 2.061 . S
O76 C79 1.235 . S
C77 O80 1.238 . S
C77 O81 1.241 . S
C78 O71 1.247 . S
C78 O72 1.261 . S
C79 O74 1.259 . S
C79 O76 1.235 . S
O80 Co70 2.021 . S
O80 C77 1.238 . S
O81 Co75 2.052 . S
O81 C77 1.241 . S
O82 Co70 2.137 . S
O82 C73 1.247 . S
O83 Co70 2.244 . S
O83 C73 1.272 . S
O83 Co75 2.135 . S
Co84 O85 2.216 . S
Co84 O86 2.091 . S
Co84 O88 2.004 . S
Co84 O94 2.021 . S
Co84 O96 2.137 . S
Co84 O97 2.244 . S
O85 Co84 2.216 . S
O85 C92 1.247 . S
O86 Co84 2.091 . S
O86 C92 1.261 . S
C87 O96 1.247 . S
C87 O97 1.272 . S
O88 Co84 2.004 . S
O88 C93 1.259 . S
Co89 O90 2.061 . S
Co89 O95 2.052 . S
Co89 O97 2.135 . S
O90 Co89 2.061 . S
O90 C93 1.235 . S
C91 O94 1.238 . S
C91 O95 1.241 . S
C92 O85 1.247 . S
C92 O86 1.261 . S
C93 O88 1.259 . S
C93 O90 1.235 . S
O94 Co84 2.021 . S
O94 C91 1.238 . S
O95 Co89 2.052 . S
O95 C91 1.241 . S
O96 Co84 2.137 . S
O96 C87 1.247 . S
O97 Co84 2.244 . S
O97 C87 1.272 . S
O97 Co89 2.135 . S
Co98 O99 2.216 . S
Co98 O100 2.091 . S
Co98 O102 2.004 . S
Co98 O108 2.021 . S
Co98 O110 2.137 . S
Co98 O111 2.244 . S
O99 Co98 2.216 . S
O99 C106 1.247 . S
O100 Co98 2.091 . S
O100 C106 1.261 . S
C101 O110 1.247 . S
C101 O111 1.272 . S
O102 Co98 2.004 . S
O102 C107 1.259 . S
Co103 O104 2.061 . S
Co103 O109 2.052 . S
Co103 O111 2.135 . S
O104 Co103 2.061 . S
O104 C107 1.235 . S
C105 O108 1.238 . S
C105 O109 1.241 . S
C106 O99 1.247 . S
C106 O100 1.261 . S
C107 O102 1.259 . S
C107 O104 1.235 . S
O108 Co98 2.021 . S
O108 C105 1.238 . S
O109 Co103 2.052 . S
O109 C105 1.241 . S
O110 Co98 2.137 . S
O110 C101 1.247 . S
O111 Co98 2.244 . S
O111 C101 1.272 . S
O111 Co103 2.135 . S
C112 C113 1.170 . S
C112 C114 1.380 1_655 S
C113 C112 1.170 . S
C114 C112 1.380 1_455 S
C114 C115 1.170 . S
C115 C114 1.170 . S
C116 C117 1.170 . S
C116 C118 1.380 1_545 S
C117 C116 1.170 . S
C118 C116 1.380 1_565 S
C118 C119 1.170 . S
C119 C118 1.170 . S
C120 C121 1.170 . S
C120 C122 1.380 1_655 S
C121 C120 1.170 . S
C122 C120 1.380 1_455 S
C122 C123 1.170 . S
C123 C122 1.170 . S
C124 C125 1.170 . S
C124 C126 1.380 1_545 S
C125 C124 1.170 . S
C126 C124 1.380 1_565 S
C126 C127 1.170 . S
C127 C126 1.170 . S
C128 C129 1.170 . S
C128 C130 1.380 . S
C129 C128 1.170 . S
C130 C128 1.380 . S
C130 C131 1.170 . S
C131 C130 1.170 . S
C132 C133 1.170 . S
C132 C134 1.380 . S
C133 C132 1.170 . S
C134 C132 1.380 . S
C134 C135 1.170 . S
C135 C134 1.170 . S
C136 C137 1.170 . S
C136 C138 1.380 . S
C137 C136 1.170 . S
C138 C136 1.380 . S
C138 C139 1.170 . S
C139 C138 1.170 . S
C140 C141 1.170 . S
C140 C142 1.380 . S
C141 C140 1.170 . S
C142 C140 1.380 . S
C142 C143 1.170 . S
C143 C142 1.170 . S
C144 C145 1.170 . S
C144 C146 1.380 1_556 S
C145 C144 1.170 . S
C146 C144 1.380 1_554 S
C146 C147 1.170 . S
C147 C146 1.170 . S
C148 C149 1.170 . S
C148 C150 1.380 1_556 S
C149 C148 1.170 . S
C150 C148 1.380 1_554 S
C150 C151 1.170 . S
C151 C150 1.170 . S
C152 C153 1.170 . S
C152 C154 1.380 1_554 S
C153 C152 1.170 . S
C154 C152 1.380 1_556 S
C154 C155 1.170 . S
C155 C154 1.170 . S
C156 C157 1.170 . S
C156 C158 1.380 1_556 S
C157 C156 1.170 . S
C158 C156 1.380 1_554 S
C158 C159 1.170 . S
C159 C158 1.170 . S
C160 C161 1.170 . S
C160 C162 1.380 . S
C161 C160 1.170 . S
C162 C160 1.380 . S
C162 C163 1.170 . S
C163 C162 1.170 . S
C164 C165 1.170 . S
C164 C166 1.380 . S
C165 C164 1.170 . S
C166 C164 1.380 . S
C166 C167 1.170 . S
C167 C166 1.170 . S
C168 C169 1.170 . S
C168 C170 1.380 . S
C169 C168 1.170 . S
C170 C168 1.380 . S
C170 C171 1.170 . S
C171 C170 1.170 . S
C172 C173 1.170 . S
C172 C174 1.380 . S
C173 C172 1.170 . S
C174 C172 1.380 . S
C174 C175 1.170 . S
C175 C174 1.170 . S
C113 C36 1.543 . S
C115 C8 1.559 . S
C117 C50 1.541 . S
C119 C22 1.581 . S
C121 C64 1.546 . S
C123 C92 1.578 . S
C125 C78 1.540 . S
C127 C106 1.572 . S
C129 C17 1.221 1_545 S
C131 C9 1.170 . S
C133 C23 1.156 . S
C135 C31 1.243 1_455 S
C137 C45 1.221 1_565 S
C139 C37 1.137 . S
C141 C51 1.187 . S
C143 C3 1.229 1_655 S
C145 C101 1.238 1_545 S
C147 C65 1.133 . S
C149 C79 1.127 . S
C151 C59 1.228 1_455 S
C153 C93 1.175 . S
C155 C73 1.221 1_565 S
C157 C107 1.193 . S
C159 C87 1.235 1_655 S
C161 C7 1.597 . S
C163 C77 1.579 . S
C165 C91 1.612 . S
C167 C21 1.576 . S
C169 C35 1.614 . S
C171 C105 1.615 . S
C173 C49 1.617 . S
C175 C63 1.586 . S
