# Generated by pormake.
# Topology kag, (6)-cn, num edge types: 1
# Building blocks:
#     Node 0, Type 0, BuildingBlock: BETDEL_clean_sbu_0, # of connection points: 6
#     Node 1, Type 0, BuildingBlock: BETDEL_clean_sbu_0, # of connection points: 6
#     Node 2, Type 0, BuildingBlock: BETDEL_clean_sbu_0, # of connection points: 6
#     Edge 3, Type (0, 0), BuildingBlock: KIFKEQ_clean_linker_1, # of connection points: 2
#     Edge 4, Type (0, 0), BuildingBlock: KIFKEQ_clean_linker_1, # of connection points: 2
#     Edge 5, Type (0, 0), BuildingBlock: KIFKEQ_clean_linker_1, # of connection points: 2
#     Edge 6, Type (0, 0), BuildingBlock: KIFKEQ_clean_linker_1, # of connection points: 2
#     Edge 7, Type (0, 0), BuildingBlock: KIFKEQ_clean_linker_1, # of connection points: 2
#     Edge 8, Type (0, 0), BuildingBlock: KIFKEQ_clean_linker_1, # of connection points: 2
#     Edge 9, Type (0, 0), BuildingBlock: KIFKEQ_clean_linker_1, # of connection points: 2
#     Edge 10, Type (0, 0), BuildingBlock: KIFKEQ_clean_linker_1, # of connection points: 2
#     Edge 11, Type (0, 0), BuildingBlock: KIFKEQ_clean_linker_1, # of connection points: 2
# Relax obj value: 0.012
# Max RMSD: 0.058
# Mean RMSD: 0.043
data_MOF--net-kag--node1-BETDEL_clean_sbu_0--edge1-KIFKEQ_clean_linker_1
_symmetry_space_group_name_H-M    P1
_symmetry_Int_Tables_number       1
_symmetry_cell_setting            triclinic
loop_
_symmetry_equiv_pos_as_xyz
'x, y, z'
_cell_length_a     31.385194
_cell_length_b     33.705499
_cell_length_c     14.737902
_cell_angle_alpha  95.978061
_cell_angle_beta   91.515234
_cell_angle_gamma 113.44991
loop_
_atom_site_label
_atom_site_type_symbol
_atom_site_fract_x
_atom_site_fract_y
_atom_site_fract_z
_atom_type_partial_charge
Dy0 Dy 0.9938 0.46834 1.00338 0.0
C1 C 0.09737 0.6508 1.00849 0.0
C2 C 0.93647 0.3832 0.01456 0.0
Dy3 Dy 0.04005 0.56531 0.01592 0.0
O4 O 0.95799 0.39804 0.94363 0.0
O5 O 0.94709 0.41483 0.08103 0.0
O6 O 0.02251 0.46208 0.86927 0.0
O7 O 1.00319 0.51455 0.90281 0.0
C8 C 0.02117 0.49723 0.84365 0.0
C9 C 1.01277 0.53493 0.17496 0.0
O10 O 0.96864 0.55948 0.97637 0.0
O11 O 0.9332 0.48817 1.00822 0.0
O12 O 0.07745 0.6348 0.07994 0.0
O13 O 0.08523 0.62017 0.93963 0.0
O14 O 1.00977 0.56959 0.15032 0.0
O15 O 0.03155 0.51906 0.11516 0.0
O16 O 0.06555 0.47472 0.04277 0.0
O17 O 0.10052 0.54547 1.00762 0.0
C18 C 0.93095 0.52491 0.98899 0.0
C19 C 0.10307 0.509 0.02785 0.0
Dy20 Dy 0.56778 0.04144 1.01052 0.0
C21 C 0.37653 0.93446 0.03198 0.0
C22 C 0.65641 0.09998 0.99105 0.0
Dy23 Dy 0.46498 0.99303 1.01143 0.0
O24 O 0.64299 0.07884 0.06076 0.0
O25 O 0.62158 0.08817 0.93006 0.0
O26 O 0.57697 0.01717 0.14196 0.0
O27 O 0.51901 0.03209 0.11838 0.0
C28 C 0.53886 0.01739 0.17334 0.0
C29 C 0.49324 0.01731 0.8484 0.0
O30 O 0.46697 0.05864 0.05976 0.0
O31 O 0.54161 0.09501 0.01607 0.0
O32 O 0.38975 0.95524 0.96173 0.0
O33 O 0.41146 0.94659 0.0928 0.0
O34 O 0.45486 0.0165 0.88032 0.0
O35 O 0.51371 1.00282 0.90281 0.0
O36 O 0.56539 0.97543 0.96228 0.0
O37 O 0.49146 0.94004 1.00961 0.0
C38 C 0.50168 0.09495 0.04373 0.0
C39 C 0.53094 0.93951 0.98104 0.0
Dy40 Dy 0.53366 0.56444 1.01207 0.0
C41 C 0.4842 0.38591 0.05042 0.0
C42 C 0.54906 0.6492 0.99601 0.0
Dy43 Dy 0.49887 0.46784 1.01208 0.0
O44 O 0.54076 0.63104 0.07047 0.0
O45 O 0.54927 0.621 0.92893 0.0
O46 O 0.56779 0.5727 0.15257 0.0
O47 O 0.50322 0.52058 0.11512 0.0
C48 C 0.53536 0.53847 0.17801 0.0
C49 C 0.49772 0.49159 0.84378 0.0
O50 O 0.43392 0.47651 0.04508 0.0
O51 O 0.4562 0.54102 0.98205 0.0
O52 O 0.46339 0.39465 0.98291 0.0
O53 O 0.51254 0.42194 0.09778 0.0
O54 O 0.46814 0.45544 0.86801 0.0
O55 O 0.52884 0.51134 0.90797 0.0
O56 O 0.60132 0.55964 0.98774 0.0
O57 O 0.5768 0.4891 0.02485 0.0
C58 C 0.42367 0.50706 0.01263 0.0
C59 C 0.61014 0.52593 1.00629 0.0
H60 H 0.01765 0.56701 0.76877 0.0
H61 H 0.02783 0.44356 0.69996 0.0
H62 H 1.01626 0.5762 0.60638 0.0
H63 H 0.02353 0.45109 0.53888 0.0
H64 H 0.05774 0.49298 0.25953 0.0
H65 H 0.06304 0.48671 0.42194 0.0
H66 H 0.96908 0.5509 0.46921 0.0
H67 H 0.96635 0.5594 0.30707 0.0
C68 C 0.01952 0.54189 0.71883 0.0
C69 C 0.02292 0.50468 0.7468 0.0
C70 C 0.01822 0.54683 0.62574 0.0
C71 C 0.01955 0.51427 0.55888 0.0
C72 C 0.02334 0.47728 0.58781 0.0
C73 C 0.0255 0.4728 0.68051 0.0
C74 C 0.03798 0.50541 0.30472 0.0
C75 C 1.01162 0.52663 0.2711 0.0
C76 C 0.04086 0.50175 0.39798 0.0
C77 C 0.01657 0.5184 0.45942 0.0
C78 C 0.98913 0.53857 0.42471 0.0
C79 C 0.98703 0.54297 0.33164 0.0
H80 H 0.57068 0.97812 0.2941 0.0
H81 H 0.48753 0.05282 0.27178 0.0
H82 H 0.56004 0.9783 0.45744 0.0
H83 H 0.47904 0.0555 0.43567 0.0
H84 H 0.43341 0.0177 0.71306 0.0
H85 H 0.44299 1.01561 0.55039 0.0
H86 H 0.58205 0.02145 0.59946 0.0
H87 H 0.5709 0.02078 0.76302 0.0
C88 C 0.55018 0.99466 0.32451 0.0
C89 C 0.52974 1.01527 0.27061 0.0
C90 C 0.54451 0.99525 0.41833 0.0
C91 C 0.51891 0.01717 0.46059 0.0
C92 C 0.49828 0.03759 0.40582 0.0
C93 C 0.50322 0.03624 0.31174 0.0
C94 C 0.46611 0.01865 0.68917 0.0
C95 C 0.50142 0.01931 0.75059 0.0
C96 C 0.47178 0.01776 0.5956 0.0
C97 C 0.51336 0.01844 0.56097 0.0
C98 C 0.54917 0.02004 0.62307 0.0
C99 C 0.54309 0.02011 0.71692 0.0
H100 H 0.45004 0.43601 0.69373 0.0
H101 H 0.55718 0.56449 0.7751 0.0
H102 H 0.46044 0.44604 0.53399 0.0
H103 H 0.56593 0.57599 0.6144 0.0
H104 H 0.60292 0.56883 0.31838 0.0
H105 H 0.59429 0.55755 0.47892 0.0
H106 H 0.44693 0.48017 0.41585 0.0
H107 H 0.45652 0.48952 0.25516 0.0
C108 C 0.47544 0.46676 0.6773 0.0
C109 C 0.50282 0.49948 0.74695 0.0
C110 C 0.48123 0.47271 0.58532 0.0
C111 C 0.51398 0.51194 0.56022 0.0
C112 C 0.54094 0.545 0.63044 0.0
C113 C 0.53566 0.53869 0.72275 0.0
C114 C 0.56884 0.54908 0.33911 0.0
C115 C 0.53045 0.52993 0.27439 0.0
C116 C 0.5637 0.54296 0.43139 0.0
C117 C 0.51982 0.51807 0.46142 0.0
C118 C 0.48148 0.49885 0.39586 0.0
C119 C 0.48684 0.50436 0.30346 0.0
H120 H 0.12323 0.43675 0.02599 0.0
H121 H 0.18777 0.57709 0.03983 0.0
H122 H 0.19996 0.43424 0.02152 0.0
H123 H 0.264 0.57475 0.03836 0.0
H124 H 0.38723 0.55563 0.92706 0.0
H125 H 0.30928 0.55392 0.93237 0.0
H126 H 0.27311 0.452 0.10786 0.0
H127 H 0.3511 0.45278 0.1001 0.0
C128 C 0.15378 0.46706 0.02924 0.0
C129 C 0.14936 0.50707 0.03241 0.0
C130 C 0.19777 0.46565 0.02695 0.0
C131 C 0.23819 0.50426 0.02838 0.0
C132 C 0.23363 0.54427 0.03469 0.0
C133 C 0.18983 0.54564 0.03617 0.0
C134 C 0.36269 0.53275 0.96664 0.0
C135 C 0.37551 0.50453 0.0136 0.0
C136 C 0.31798 0.53195 0.9702 0.0
C137 C 0.285 0.50322 0.02157 0.0
C138 C 0.2975 0.47433 0.06713 0.0
C139 C 0.34227 0.4749 0.06299 0.0
H140 H 0.68716 0.15219 0.85613 0.0
H141 H 0.7274 0.13199 0.12407 0.0
H142 H 0.75826 0.21877 0.86292 0.0
H143 H 0.79863 0.19823 0.13072 0.0
H144 H 0.88294 0.34855 0.15318 0.0
H145 H 0.81793 0.27716 0.14532 0.0
H146 H 0.84369 0.24626 0.86577 0.0
H147 H 0.90821 0.31765 0.87355 0.0
C148 C 0.71162 0.16161 0.91572 0.0
C149 C 0.70182 0.13699 0.98952 0.0
C150 C 0.75237 0.19968 0.91965 0.0
C151 C 0.784 0.21394 0.99768 0.0
C152 C 0.77471 0.18847 0.07025 0.0
C153 C 0.73411 0.15035 0.06609 0.0
C154 C 0.87502 0.32622 0.0906 0.0
C155 C 0.90052 0.33859 0.01402 0.0
C156 C 0.83791 0.2853 0.08606 0.0
C157 C 0.82549 0.25609 1.00468 0.0
C158 C 0.85195 0.26819 0.92899 0.0
C159 C 0.8891 0.30895 0.9337 0.0
H160 H 0.60217 0.92 0.9113 0.0
H161 H 0.47135 0.86355 0.03514 0.0
H162 H 0.61097 0.85058 0.90936 0.0
H163 H 0.48049 0.79541 0.03344 0.0
H164 H 0.54144 0.70551 0.13227 0.0
H165 H 0.5407 0.77683 0.12239 0.0
H166 H 0.56532 0.76616 0.83592 0.0
H167 H 0.56575 0.69379 0.84559 0.0
C168 C 0.57528 0.89291 0.93752 0.0
C169 C 0.53621 0.8975 0.97384 0.0
C170 C 0.58026 0.85324 0.93605 0.0
C171 C 0.54661 0.8179 0.97207 0.0
C172 C 0.50724 0.82232 1.00631 0.0
C173 C 0.502 0.86145 1.00688 0.0
C174 C 0.54713 0.71842 0.06724 0.0
C175 C 0.55324 0.69398 0.98946 0.0
C176 C 0.54661 0.75922 0.06162 0.0
C177 C 0.55252 0.77675 0.97824 0.0
C178 C 0.56078 0.75331 0.90103 0.0
C179 C 0.56085 0.71199 0.90647 0.0
H180 H 0.84638 0.45668 0.96164 0.0
H181 H 0.91099 0.5974 1.00359 0.0
H182 H 0.76997 0.45872 0.96198 0.0
H183 H 0.8341 0.59954 1.00756 0.0
H184 H 0.68455 0.58529 0.93169 0.0
H185 H 0.76257 0.58626 0.92181 0.0
H186 H 0.72243 0.47399 0.06923 0.0
H187 H 0.64455 0.47212 0.07603 0.0
C188 C 0.84425 0.48812 0.97125 0.0
C189 C 0.88474 0.52688 0.98323 0.0
C190 C 0.80036 0.48931 0.9721 0.0
C191 C 0.79573 0.52928 0.98636 0.0
C192 C 0.83628 0.56818 0.99582 0.0
C193 C 0.88037 0.56698 0.99384 0.0
C194 C 0.69253 0.5609 0.96206 0.0
C195 C 0.65823 0.52839 1.00389 0.0
C196 C 0.7373 0.56155 0.95672 0.0
C197 C 0.74875 0.5299 0.99376 0.0
C198 C 0.71463 0.49819 0.03772 0.0
C199 C 0.66993 0.49728 0.04219 0.0
H200 H 0.12762 0.7147 0.15275 0.0
H201 H 0.14837 0.68741 0.86855 0.0
H202 H 0.19173 0.78635 0.16112 0.0
H203 H 0.21308 0.75897 0.87699 0.0
H204 H 0.30406 0.90369 0.90222 0.0
H205 H 0.23286 0.8375 0.89634 0.0
H206 H 0.27647 0.81458 0.15927 0.0
H207 H 0.3474 0.88121 0.16549 0.0
C208 C 0.14567 0.72424 0.09179 0.0
C209 C 0.1331 0.69556 1.00996 0.0
C210 C 0.1826 0.76515 0.09678 0.0
C211 C 0.20772 0.77833 0.01994 0.0
C212 C 0.19414 0.75004 0.93722 0.0
C213 C 0.15721 0.70901 0.93232 0.0
C214 C 0.29805 0.88481 0.95935 0.0
C215 C 0.33119 0.89752 0.03436 0.0
C216 C 0.25746 0.84672 0.95562 0.0
C217 C 0.2491 0.82056 0.02696 0.0
C218 C 0.2816 0.8342 0.10354 0.0
C219 C 0.32227 0.87229 0.10714 0.0
H220 H 0.42533 0.30809 0.95756 0.0
H221 H 0.53645 0.36504 0.17173 0.0
H222 H 0.42656 0.23649 0.96664 0.0
H223 H 0.53772 0.2935 0.18088 0.0
H224 H 0.57043 0.17675 0.05825 0.0
H225 H 0.56223 0.24589 0.07097 0.0
H226 H 0.41301 0.17772 0.07057 0.0
H227 H 0.42113 0.10805 0.05788 0.0
C228 C 0.44948 0.30512 1.00754 0.0
C229 C 0.48096 0.34204 0.06363 0.0
C230 C 0.45006 0.26415 0.01301 0.0
C231 C 0.48245 0.25948 0.07406 0.0
C232 C 0.51273 0.29623 0.13251 0.0
C233 C 0.51185 0.33709 0.12761 0.0
C234 C 0.53584 0.17639 0.06146 0.0
C235 C 0.4964 0.13686 0.05679 0.0
C236 C 0.5312 0.21608 0.06944 0.0
C237 C 0.48699 0.21722 0.072 0.0
C238 C 0.4475 0.17777 0.06837 0.0
C239 C 0.45219 0.13795 0.06154 0.0
loop_
_geom_bond_atom_site_label_1
_geom_bond_atom_site_label_2
_geom_bond_distance
_geom_bond_site_symmetry_2
_ccdc_geom_bond_type
Dy0 O4 2.398 . S
Dy0 O5 2.491 1_556 S
Dy0 O6 2.403 . S
Dy0 O7 2.664 1_655 S
Dy0 O11 2.326 . S
Dy0 O15 2.310 1_556 S
Dy0 O16 2.351 1_655 S
C1 O12 1.185 . S
C1 O13 1.355 1_554 S
C2 O4 1.185 . S
C2 O5 1.355 1_556 S
Dy3 O7 2.310 1_554 S
Dy3 O10 2.351 1_455 S
Dy3 O12 2.398 . S
Dy3 O13 2.491 1_554 S
Dy3 O14 2.403 . S
Dy3 O15 2.664 1_455 S
Dy3 O17 2.326 . S
O4 Dy0 2.398 . S
O4 C2 1.185 . S
O5 Dy0 2.491 1_554 S
O5 C2 1.355 1_554 S
O6 Dy0 2.403 . S
O6 C8 1.254 . S
O7 Dy0 2.664 1_455 S
O7 Dy3 2.310 1_556 S
O7 C8 1.268 1_455 S
C8 O6 1.254 . S
C8 O7 1.268 1_655 S
C9 O14 1.254 . S
C9 O15 1.268 1_455 S
O10 Dy3 2.351 1_655 S
O10 C18 1.249 1_554 S
O11 Dy0 2.326 . S
O11 C18 1.267 . S
O12 C1 1.185 . S
O12 Dy3 2.398 . S
O13 C1 1.355 1_556 S
O13 Dy3 2.491 1_556 S
O14 Dy3 2.403 . S
O14 C9 1.254 . S
O15 Dy0 2.310 1_554 S
O15 Dy3 2.664 1_655 S
O15 C9 1.268 1_655 S
O16 Dy0 2.351 1_455 S
O16 C19 1.249 1_556 S
O17 Dy3 2.326 . S
O17 C19 1.267 . S
C18 O10 1.249 1_556 S
C18 O11 1.267 . S
C19 O16 1.249 1_554 S
C19 O17 1.267 . S
Dy20 O24 2.398 . S
Dy20 O25 2.491 1_554 S
Dy20 O26 2.403 . S
Dy20 O27 2.664 1_545 S
Dy20 O31 2.326 . S
Dy20 O35 2.310 1_554 S
Dy20 O36 2.351 1_545 S
C21 O32 1.185 . S
C21 O33 1.355 1_556 S
C22 O24 1.185 . S
C22 O25 1.355 1_554 S
Dy23 O27 2.310 1_556 S
Dy23 O30 2.351 1_565 S
Dy23 O32 2.398 . S
Dy23 O33 2.491 1_556 S
Dy23 O34 2.403 . S
Dy23 O35 2.664 1_565 S
Dy23 O37 2.326 . S
O24 Dy20 2.398 . S
O24 C22 1.185 . S
O25 Dy20 2.491 1_556 S
O25 C22 1.355 1_556 S
O26 Dy20 2.403 . S
O26 C28 1.254 . S
O27 Dy20 2.664 1_565 S
O27 Dy23 2.310 1_554 S
O27 C28 1.268 1_565 S
C28 O26 1.254 . S
C28 O27 1.268 1_545 S
C29 O34 1.254 . S
C29 O35 1.268 1_565 S
O30 Dy23 2.351 1_545 S
O30 C38 1.249 1_556 S
O31 Dy20 2.326 . S
O31 C38 1.267 . S
O32 C21 1.185 . S
O32 Dy23 2.398 . S
O33 C21 1.355 1_554 S
O33 Dy23 2.491 1_554 S
O34 Dy23 2.403 . S
O34 C29 1.254 . S
O35 Dy20 2.310 1_556 S
O35 Dy23 2.664 1_545 S
O35 C29 1.268 1_545 S
O36 Dy20 2.351 1_565 S
O36 C39 1.249 1_554 S
O37 Dy23 2.326 . S
O37 C39 1.267 . S
C38 O30 1.249 1_554 S
C38 O31 1.267 . S
C39 O36 1.249 1_556 S
C39 O37 1.267 . S
Dy40 O44 2.398 . S
Dy40 O45 2.491 1_554 S
Dy40 O46 2.403 . S
Dy40 O47 2.664 . S
Dy40 O51 2.326 . S
Dy40 O55 2.310 1_554 S
Dy40 O56 2.351 . S
C41 O52 1.185 . S
C41 O53 1.355 1_556 S
C42 O44 1.185 . S
C42 O45 1.355 1_554 S
Dy43 O47 2.310 1_556 S
Dy43 O50 2.351 . S
Dy43 O52 2.398 . S
Dy43 O53 2.491 1_556 S
Dy43 O54 2.403 . S
Dy43 O55 2.664 . S
Dy43 O57 2.326 . S
O44 Dy40 2.398 . S
O44 C42 1.185 . S
O45 Dy40 2.491 1_556 S
O45 C42 1.355 1_556 S
O46 Dy40 2.403 . S
O46 C48 1.254 . S
O47 Dy40 2.664 . S
O47 Dy43 2.310 1_554 S
O47 C48 1.268 . S
C48 O46 1.254 . S
C48 O47 1.268 . S
C49 O54 1.254 . S
C49 O55 1.268 . S
O50 Dy43 2.351 . S
O50 C58 1.249 1_556 S
O51 Dy40 2.326 . S
O51 C58 1.267 . S
O52 C41 1.185 . S
O52 Dy43 2.398 . S
O53 C41 1.355 1_554 S
O53 Dy43 2.491 1_554 S
O54 Dy43 2.403 . S
O54 C49 1.254 . S
O55 Dy40 2.310 1_556 S
O55 Dy43 2.664 . S
O55 C49 1.268 . S
O56 Dy40 2.351 . S
O56 C59 1.249 1_554 S
O57 Dy43 2.326 . S
O57 C59 1.267 . S
C58 O50 1.249 1_554 S
C58 O51 1.267 . S
C59 O56 1.249 1_556 S
C59 O57 1.267 . S
H60 C68 0.950 . S
H61 C73 0.950 . S
H62 C70 0.950 . S
H63 C72 0.950 . S
H64 C74 0.950 . S
H65 C76 0.950 . S
H66 C78 0.950 . S
H67 C79 0.950 . S
C68 H60 0.950 . S
C68 C69 1.386 1_655 S
C68 C70 1.391 . S
C69 C68 1.386 1_455 S
C69 C73 1.393 . S
C70 H62 0.950 . S
C70 C68 1.391 . S
C70 C71 1.383 1_655 S
C71 C70 1.383 1_455 S
C71 C72 1.416 . S
C71 C77 1.491 . S
C72 H63 0.950 . S
C72 C71 1.416 . S
C72 C73 1.391 . S
C73 H61 0.950 . S
C73 C69 1.393 . S
C73 C72 1.391 . S
C74 H64 0.950 . S
C74 C75 1.386 1_455 S
C74 C76 1.391 . S
C75 C74 1.386 1_655 S
C75 C79 1.393 . S
C76 H65 0.950 . S
C76 C74 1.391 . S
C76 C77 1.405 . S
C77 C71 1.491 . S
C77 C76 1.405 . S
C77 C78 1.394 1_455 S
C78 H66 0.950 . S
C78 C77 1.394 1_655 S
C78 C79 1.391 . S
C79 H67 0.950 . S
C79 C75 1.393 . S
C79 C78 1.391 . S
H80 C88 0.950 . S
H81 C93 0.950 . S
H82 C90 0.950 . S
H83 C92 0.950 . S
H84 C94 0.950 . S
H85 C96 0.950 . S
H86 C98 0.950 . S
H87 C99 0.950 . S
C88 H80 0.950 . S
C88 C89 1.386 1_565 S
C88 C90 1.391 . S
C89 C88 1.386 1_545 S
C89 C93 1.393 . S
C90 H82 0.950 . S
C90 C88 1.391 . S
C90 C91 1.400 1_565 S
C91 C90 1.400 1_545 S
C91 C92 1.398 . S
C91 C97 1.492 . S
C92 H83 0.950 . S
C92 C91 1.398 . S
C92 C93 1.391 . S
C93 H81 0.950 . S
C93 C89 1.393 . S
C93 C92 1.391 . S
C94 H84 0.950 . S
C94 C95 1.386 1_545 S
C94 C96 1.391 . S
C95 C94 1.386 1_565 S
C95 C99 1.392 . S
C96 H85 0.950 . S
C96 C94 1.391 . S
C96 C97 1.415 . S
C97 C91 1.492 . S
C97 C96 1.415 . S
C97 C98 1.382 1_545 S
C98 H86 0.950 . S
C98 C97 1.382 1_565 S
C98 C99 1.391 . S
C99 H87 0.950 . S
C99 C95 1.392 . S
C99 C98 1.391 . S
H100 C108 0.950 . S
H101 C113 0.950 . S
H102 C110 0.950 . S
H103 C112 0.950 . S
H104 C114 0.950 . S
H105 C116 0.950 . S
H106 C118 0.950 . S
H107 C119 0.950 . S
C108 H100 0.950 . S
C108 C109 1.386 . S
C108 C110 1.391 . S
C109 C108 1.386 . S
C109 C113 1.393 . S
C110 H102 0.950 . S
C110 C108 1.391 . S
C110 C111 1.400 . S
C111 C110 1.400 . S
C111 C112 1.398 . S
C111 C117 1.491 . S
C112 H103 0.950 . S
C112 C111 1.398 . S
C112 C113 1.391 . S
C113 H101 0.950 . S
C113 C109 1.393 . S
C113 C112 1.391 . S
C114 H104 0.950 . S
C114 C115 1.386 . S
C114 C116 1.391 . S
C115 C114 1.386 . S
C115 C119 1.393 . S
C116 H105 0.950 . S
C116 C114 1.391 . S
C116 C117 1.400 . S
C117 C111 1.491 . S
C117 C116 1.400 . S
C117 C118 1.398 . S
C118 H106 0.950 . S
C118 C117 1.398 . S
C118 C119 1.391 . S
C119 H107 0.950 . S
C119 C115 1.393 . S
C119 C118 1.391 . S
H120 C128 0.950 . S
H121 C133 0.950 . S
H122 C130 0.950 . S
H123 C132 0.950 . S
H124 C134 0.950 . S
H125 C136 0.950 . S
H126 C138 0.950 . S
H127 C139 0.950 . S
C128 H120 0.950 . S
C128 C129 1.386 . S
C128 C130 1.391 . S
C129 C128 1.386 . S
C129 C133 1.393 1_556 S
C130 H122 0.950 . S
C130 C128 1.391 . S
C130 C131 1.400 . S
C131 C130 1.400 . S
C131 C132 1.398 1_556 S
C131 C137 1.491 . S
C132 H123 0.950 . S
C132 C131 1.398 1_554 S
C132 C133 1.391 . S
C133 H121 0.950 . S
C133 C129 1.393 1_554 S
C133 C132 1.391 . S
C134 H124 0.950 . S
C134 C135 1.386 1_554 S
C134 C136 1.391 . S
C135 C134 1.386 1_556 S
C135 C139 1.393 . S
C136 H125 0.950 . S
C136 C134 1.391 . S
C136 C137 1.400 1_554 S
C137 C131 1.491 . S
C137 C136 1.400 1_556 S
C137 C138 1.398 . S
C138 H126 0.950 . S
C138 C137 1.398 . S
C138 C139 1.391 . S
C139 H127 0.950 . S
C139 C135 1.393 . S
C139 C138 1.391 . S
H140 C148 0.950 . S
H141 C153 0.950 . S
H142 C150 0.950 . S
H143 C152 0.950 . S
H144 C154 0.950 . S
H145 C156 0.950 . S
H146 C158 0.950 . S
H147 C159 0.950 . S
C148 H140 0.950 . S
C148 C149 1.386 . S
C148 C150 1.391 . S
C149 C148 1.386 . S
C149 C153 1.393 1_556 S
C150 H142 0.950 . S
C150 C148 1.391 . S
C150 C151 1.400 . S
C151 C150 1.400 . S
C151 C152 1.398 1_556 S
C151 C157 1.491 . S
C152 H143 0.950 . S
C152 C151 1.398 1_554 S
C152 C153 1.391 . S
C153 H141 0.950 . S
C153 C149 1.393 1_554 S
C153 C152 1.391 . S
C154 H144 0.950 . S
C154 C155 1.377 1_554 S
C154 C156 1.391 . S
C155 C154 1.377 1_556 S
C155 C159 1.400 . S
C156 H145 0.950 . S
C156 C154 1.391 . S
C156 C157 1.400 1_554 S
C157 C151 1.491 . S
C157 C156 1.400 1_556 S
C157 C158 1.398 . S
C158 H146 0.950 . S
C158 C157 1.398 . S
C158 C159 1.391 . S
C159 H147 0.950 . S
C159 C155 1.400 . S
C159 C158 1.391 . S
H160 C168 0.950 . S
H161 C173 0.950 . S
H162 C170 0.950 . S
H163 C172 0.950 . S
H164 C174 0.950 . S
H165 C176 0.950 . S
H166 C178 0.950 . S
H167 C179 0.950 . S
C168 H160 0.950 . S
C168 C169 1.387 . S
C168 C170 1.391 . S
C169 C168 1.387 . S
C169 C173 1.391 1_556 S
C170 H162 0.950 . S
C170 C168 1.391 . S
C170 C171 1.401 1_556 S
C171 C170 1.401 1_554 S
C171 C172 1.397 . S
C171 C177 1.491 1_554 S
C172 H163 0.950 . S
C172 C171 1.397 . S
C172 C173 1.391 . S
C173 H161 0.950 . S
C173 C169 1.391 1_554 S
C173 C172 1.391 . S
C174 H164 0.950 . S
C174 C175 1.379 1_554 S
C174 C176 1.391 . S
C175 C174 1.379 1_556 S
C175 C179 1.400 . S
C176 H165 0.950 . S
C176 C174 1.391 . S
C176 C177 1.390 1_554 S
C177 C171 1.491 1_556 S
C177 C176 1.390 1_556 S
C177 C178 1.408 . S
C178 H166 0.950 . S
C178 C177 1.408 . S
C178 C179 1.391 . S
C179 H167 0.950 . S
C179 C175 1.400 . S
C179 C178 1.391 . S
H180 C188 0.950 . S
H181 C193 0.950 . S
H182 C190 0.950 . S
H183 C192 0.950 . S
H184 C194 0.950 . S
H185 C196 0.950 . S
H186 C198 0.950 . S
H187 C199 0.950 . S
C188 H180 0.950 . S
C188 C189 1.386 . S
C188 C190 1.391 . S
C189 C188 1.386 . S
C189 C193 1.393 1_554 S
C190 H182 0.950 . S
C190 C188 1.391 . S
C190 C191 1.400 . S
C191 C190 1.400 . S
C191 C192 1.398 1_554 S
C191 C197 1.491 . S
C192 H183 0.950 . S
C192 C191 1.398 1_556 S
C192 C193 1.391 . S
C193 H181 0.950 . S
C193 C189 1.393 1_556 S
C193 C192 1.391 . S
C194 H184 0.950 . S
C194 C195 1.386 1_556 S
C194 C196 1.391 . S
C195 C194 1.386 1_554 S
C195 C199 1.393 . S
C196 H185 0.950 . S
C196 C194 1.391 . S
C196 C197 1.400 1_556 S
C197 C191 1.491 . S
C197 C196 1.400 1_554 S
C197 C198 1.398 . S
C198 H186 0.950 . S
C198 C197 1.398 . S
C198 C199 1.391 . S
C199 H187 0.950 . S
C199 C195 1.393 . S
C199 C198 1.391 . S
H200 C208 0.950 . S
H201 C213 0.950 . S
H202 C210 0.950 . S
H203 C212 0.950 . S
H204 C214 0.950 . S
H205 C216 0.950 . S
H206 C218 0.950 . S
H207 C219 0.950 . S
C208 H200 0.950 . S
C208 C209 1.386 1_554 S
C208 C210 1.391 . S
C209 C208 1.386 1_556 S
C209 C213 1.393 . S
C210 H202 0.950 . S
C210 C208 1.391 . S
C210 C211 1.401 . S
C211 C210 1.401 . S
C211 C212 1.398 1_554 S
C211 C217 1.491 . S
C212 H203 0.950 . S
C212 C211 1.398 1_556 S
C212 C213 1.391 . S
C213 H201 0.950 . S
C213 C209 1.393 . S
C213 C212 1.391 . S
C214 H204 0.950 . S
C214 C215 1.386 1_556 S
C214 C216 1.391 . S
C215 C214 1.386 1_554 S
C215 C219 1.393 . S
C216 H205 0.950 . S
C216 C214 1.391 . S
C216 C217 1.400 1_556 S
C217 C211 1.491 . S
C217 C216 1.400 1_554 S
C217 C218 1.398 . S
C218 H206 0.950 . S
C218 C217 1.398 . S
C218 C219 1.391 . S
C219 H207 0.950 . S
C219 C215 1.393 . S
C219 C218 1.391 . S
H220 C228 0.950 . S
H221 C233 0.950 . S
H222 C230 0.950 . S
H223 C232 0.950 . S
H224 C234 0.950 . S
H225 C236 0.950 . S
H226 C238 0.950 . S
H227 C239 0.950 . S
C228 H220 0.950 . S
C228 C229 1.386 . S
C228 C230 1.391 . S
C229 C228 1.386 . S
C229 C233 1.393 1_556 S
C230 H222 0.950 . S
C230 C228 1.391 . S
C230 C231 1.405 . S
C231 C230 1.405 . S
C231 C232 1.394 1_556 S
C231 C237 1.490 1_556 S
C232 H223 0.950 . S
C232 C231 1.394 1_554 S
C232 C233 1.391 . S
C233 H221 0.950 . S
C233 C229 1.393 1_554 S
C233 C232 1.391 . S
C234 H224 0.950 . S
C234 C235 1.386 . S
C234 C236 1.391 . S
C235 C234 1.386 . S
C235 C239 1.393 1_554 S
C236 H225 0.950 . S
C236 C234 1.391 . S
C236 C237 1.400 . S
C237 C231 1.490 1_554 S
C237 C236 1.400 . S
C237 C238 1.398 1_554 S
C238 H226 0.950 . S
C238 C237 1.398 1_556 S
C238 C239 1.391 . S
C239 H227 0.950 . S
C239 C235 1.393 1_556 S
C239 C238 1.391 . S
C69 C8 1.469 1_455 S
C75 C9 1.469 1_655 S
C89 C28 1.444 . S
C95 C29 1.444 . S
C109 C49 1.454 . S
C115 C48 1.454 . S
C129 C19 1.774 1_556 S
C135 C58 1.758 1_556 S
C149 C22 1.246 1_556 S
C155 C2 1.222 . S
C169 C39 1.525 . S
C175 C42 1.503 1_556 S
C189 C18 1.772 1_554 S
C195 C59 1.765 1_554 S
C209 C1 1.235 1_556 S
C215 C21 1.240 1_554 S
C229 C41 1.500 . S
C235 C38 1.519 . S
