# Generated by pormake.
# Topology bcu, (8)-cn, num edge types: 1
# Building blocks:
#     Node 0, Type 0, BuildingBlock: GIZVER_clean_sbu_0, # of connection points: 8
#     Node 1, Type 0, BuildingBlock: GIZVER_clean_sbu_0, # of connection points: 8
#     Edge 2, Type (0, 0), BuildingBlock: EZIPEK_clean_linker_0, # of connection points: 2
#     Edge 3, Type (0, 0), BuildingBlock: EZIPEK_clean_linker_0, # of connection points: 2
#     Edge 4, Type (0, 0), BuildingBlock: EZIPEK_clean_linker_0, # of connection points: 2
#     Edge 5, Type (0, 0), BuildingBlock: EZIPEK_clean_linker_0, # of connection points: 2
#     Edge 6, Type (0, 0), BuildingBlock: EZIPEK_clean_linker_0, # of connection points: 2
#     Edge 7, Type (0, 0), BuildingBlock: EZIPEK_clean_linker_0, # of connection points: 2
#     Edge 8, Type (0, 0), BuildingBlock: EZIPEK_clean_linker_0, # of connection points: 2
#     Edge 9, Type (0, 0), BuildingBlock: EZIPEK_clean_linker_0, # of connection points: 2
# Relax obj value: 0.001
# Max RMSD: 0.025
# Mean RMSD: 0.025
data_MOF--net-bcu--node1-GIZVER_clean_sbu_0--edge1-EZIPEK_clean_linker_0
_symmetry_space_group_name_H-M    P1
_symmetry_Int_Tables_number       1
_symmetry_cell_setting            triclinic
loop_
_symmetry_equiv_pos_as_xyz
'x, y, z'
_cell_length_a     17.818647
_cell_length_b     18.743524
_cell_length_c     10.327091
_cell_angle_alpha  87.905589
_cell_angle_beta   95.762485
_cell_angle_gamma 114.40424
loop_
_atom_site_label
_atom_site_type_symbol
_atom_site_fract_x
_atom_site_fract_y
_atom_site_fract_z
_atom_type_partial_charge
Co0 Co 0.09739 0.92611 0.89233 0.0
Co1 Co 0.07968 0.93431 0.12142 0.0
Co2 Co 0.01381 0.05402 0.97977 0.0
O3 O 0.10011 1.01013 -0.00067 0.0
H4 H 0.15535 1.05054 0.01713 0.0
O5 O 0.92905 0.09886 0.95972 0.0
Co6 Co 0.93898 0.19126 0.04885 0.0
Co7 Co 0.93656 0.15618 0.81033 0.0
H8 H 0.87328 0.05922 0.95855 0.0
O9 O 0.16282 0.93763 0.23663 0.0
O10 O 0.10954 0.86476 0.05007 0.0
O11 O 0.97076 0.88179 0.16026 0.0
O12 O 0.93571 0.98065 0.10749 0.0
O13 O 0.07858 0.13032 0.1197 0.0
O14 O 0.9407 0.27356 0.1326 0.0
O15 O 0.82996 0.16353 0.06819 0.0
O16 O 0.05463 0.23295 0.04756 0.0
O17 O 0.09242 0.12919 0.8559 0.0
O18 O 0.03754 0.19746 0.73326 0.0
O19 O 0.92461 0.23902 0.87705 0.0
O20 O 0.84249 0.15077 0.72031 0.0
C21 C 0.1801 0.89455 0.81148 0.0
C22 C 0.92925 0.90413 0.84142 0.0
C23 C 0.91876 0.9116 0.15298 0.0
C24 C 0.16095 0.88492 0.15619 0.0
C25 C 0.86134 0.23232 0.12543 0.0
C26 C 0.10156 0.20423 0.10793 0.0
C27 C 0.09841 0.18102 0.76813 0.0
C28 C 0.86007 0.21274 0.79066 0.0
O29 O 0.10093 0.85324 0.79493 0.0
O30 O 0.2081 0.95977 0.87915 0.0
O31 O 0.94762 0.97767 0.83866 0.0
O32 O 0.98193 0.87816 0.88628 0.0
Co33 Co 0.58544 0.41133 0.42469 0.0
Co34 Co 0.58784 0.44638 0.6632 0.0
Co35 Co 0.51061 0.54856 0.49379 0.0
O36 O 0.59536 0.50372 0.51384 0.0
H37 H 0.65113 0.54336 0.51503 0.0
O38 O 0.42431 0.59245 0.47423 0.0
Co39 Co 0.42703 0.67647 0.58123 0.0
Co40 Co 0.44474 0.66827 0.35214 0.0
H41 H 0.36907 0.55204 0.45643 0.0
O42 O 0.68191 0.45179 0.75325 0.0
O43 O 0.59981 0.36355 0.59647 0.0
O44 O 0.48684 0.40508 0.74024 0.0
O45 O 0.43199 0.4734 0.61766 0.0
O46 O 0.5768 0.62491 0.6349 0.0
O47 O 0.42349 0.74935 0.67863 0.0
O48 O 0.31632 0.64282 0.59441 0.0
O49 O 0.54249 0.72442 0.58728 0.0
O50 O 0.5887 0.62193 0.36607 0.0
O51 O 0.55366 0.72079 0.3133 0.0
O52 O 0.41488 0.73782 0.42349 0.0
O53 O 0.3616 0.66496 0.23693 0.0
C54 C 0.6631 0.37029 0.34811 0.0
C55 C 0.42286 0.39836 0.36562 0.0
C56 C 0.42599 0.42155 0.70541 0.0
C57 C 0.66434 0.38984 0.68288 0.0
C58 C 0.34432 0.70804 0.66208 0.0
C59 C 0.59517 0.69846 0.63214 0.0
C60 C 0.60566 0.69098 0.32057 0.0
C61 C 0.36347 0.71767 0.31737 0.0
O62 O 0.58373 0.32904 0.34092 0.0
O63 O 0.69446 0.43907 0.40536 0.0
O64 O 0.44584 0.47227 0.35386 0.0
O65 O 0.46979 0.36964 0.42596 0.0
C66 C 0.20432 0.238 0.30357 0.0
C67 C 0.18233 0.25704 0.17506 0.0
C68 C 0.3201 0.36458 0.16997 0.0
C69 C 0.34209 0.34554 0.29849 0.0
N70 N 0.31047 0.25358 0.47799 0.0
N71 N 0.21395 0.349 -0.00445 0.0
C72 C 0.28613 0.27895 0.3622 0.0
C73 C 0.23829 0.32363 0.11134 0.0
N74 N 0.14452 0.1855 0.37455 0.0
N75 N 0.3799 0.41709 0.099 0.0
H76 H 0.15928 0.31777 0.93873 0.0
H77 H 0.24627 0.4046 0.95845 0.0
H78 H 0.44271 0.44106 0.13137 0.0
H79 H 0.36985 0.43031 0.00193 0.0
H80 H 0.15458 0.17229 0.47162 0.0
H81 H 0.08171 0.16151 0.34219 0.0
H82 H 0.27815 0.19797 0.51508 0.0
H83 H 0.36514 0.2848 0.5348 0.0
C84 C 0.8112 0.33987 0.13362 0.0
C85 C 0.8084 0.26623 0.17999 0.0
C86 C 0.71324 0.26274 0.33993 0.0
C87 C 0.71604 0.33638 0.29356 0.0
N88 N 0.76983 0.44741 0.15177 0.0
N89 N 0.75464 0.15521 0.32182 0.0
C90 C 0.76588 0.37565 0.19215 0.0
C91 C 0.75857 0.22696 0.28141 0.0
N92 N 0.85387 0.37359 0.02854 0.0
N93 N 0.67055 0.229 0.44499 0.0
H94 H 0.79228 0.1303 0.29053 0.0
H95 H 0.71219 0.11811 0.38274 0.0
H96 H 0.63573 0.25215 0.48971 0.0
H97 H 0.67294 0.18061 0.4945 0.0
H98 H 0.85146 0.42198 0.97902 0.0
H99 H 0.88869 0.35045 0.98381 0.0
H100 H 0.81229 0.48451 0.09087 0.0
H101 H 0.7322 0.47232 0.18305 0.0
C102 C 0.76139 0.84626 0.12278 0.0
C103 C 0.83695 0.86216 0.20152 0.0
C104 C 0.76303 0.75632 0.35078 0.0
C105 C 0.68746 0.74042 0.27204 0.0
N106 N 0.61763 0.75782 0.06934 0.0
N107 N 0.90679 0.84476 0.40422 0.0
C108 C 0.68755 0.78268 0.15488 0.0
C109 C 0.83687 0.8199 0.31868 0.0
N110 N 0.75957 0.89132 0.01669 0.0
N111 N 0.76485 0.71126 0.45687 0.0
H112 H 0.95922 0.89589 0.39043 0.0
H113 H 0.91087 0.82095 0.49579 0.0
H114 H 0.71232 0.67089 0.49464 0.0
H115 H 0.81883 0.71117 0.50554 0.0
H116 H 0.70559 0.89141 0.96803 0.0
H117 H 0.81209 0.93169 0.97892 0.0
H118 H 0.61355 0.78164 0.97777 0.0
H119 H 0.56518 0.7067 0.08313 0.0
C120 C 0.17462 0.75955 0.21373 0.0
C121 C 0.21283 0.84173 0.19419 0.0
C122 C 0.34981 0.84305 0.25984 0.0
C123 C 0.31159 0.76086 0.27937 0.0
N124 N 0.18991 0.6385 0.26158 0.0
N125 N 0.33451 0.96409 0.21198 0.0
C126 C 0.22471 0.71844 0.25157 0.0
C127 C 0.29971 0.88415 0.222 0.0
N128 N 0.09008 0.72193 0.20777 0.0
N129 N 0.43434 0.88067 0.26581 0.0
H130 H 0.30269 0.99604 0.16918 0.0
H131 H 0.3944 0.99953 0.24994 0.0
H132 H 0.47367 0.85246 0.28706 0.0
H133 H 0.46626 0.93849 0.23792 0.0
H134 H 0.05817 0.6641 0.23566 0.0
H135 H 0.05075 0.75013 0.18651 0.0
H136 H 0.13003 0.60307 0.22361 0.0
H137 H 0.22173 0.60655 0.30439 0.0
C138 C 0.20137 0.81125 0.64894 0.0
C139 C 0.23353 0.85936 0.76203 0.0
C140 C 0.32305 0.79134 0.82462 0.0
C141 C 0.29089 0.74323 0.71153 0.0
N142 N 0.17786 0.68973 0.544 0.0
N143 N 0.34656 0.91285 0.92957 0.0
C144 C 0.22401 0.74811 0.63096 0.0
C145 C 0.30042 0.85448 0.8426 0.0
N146 N 0.15178 0.82877 0.55534 0.0
N147 N 0.37265 0.77383 0.91822 0.0
H148 H 0.33776 0.964 0.93634 0.0
H149 H 0.40102 0.91591 0.98152 0.0
H150 H 0.38594 0.7249 0.91101 0.0
H151 H 0.39229 0.80178 0.00845 0.0
H152 H 0.13214 0.80081 0.46511 0.0
H153 H 0.13847 0.87769 0.56254 0.0
H154 H 0.12339 0.68668 0.49208 0.0
H155 H 0.18665 0.63858 0.5372 0.0
C156 C 0.26982 0.3746 0.68516 0.0
C157 C 0.34136 0.36622 0.74299 0.0
C158 C 0.25458 0.22797 0.78838 0.0
C159 C 0.18304 0.23634 0.73055 0.0
N160 N 0.13363 0.30971 0.57296 0.0
N161 N 0.39078 0.29285 0.90057 0.0
C162 C 0.19363 0.30745 0.66418 0.0
C163 C 0.33077 0.29511 0.80936 0.0
N164 N 0.27265 0.44764 0.66036 0.0
N165 N 0.25176 0.15493 0.81321 0.0
H166 H 0.44233 0.34302 0.93275 0.0
H167 H 0.38285 0.24415 0.95891 0.0
H168 H 0.20034 0.10434 0.78183 0.0
H169 H 0.30389 0.14497 0.84568 0.0
H170 H 0.2205 0.45758 0.6279 0.0
H171 H 0.32406 0.49824 0.69169 0.0
H172 H 0.14159 0.35842 0.51462 0.0
H173 H 0.08206 0.25956 0.54077 0.0
C174 C 0.72672 0.22594 0.79493 0.0
C175 C 0.80985 0.25783 0.76276 0.0
C176 C 0.79769 0.37663 0.67862 0.0
C177 C 0.71456 0.34474 0.71079 0.0
N178 N 0.60402 0.24776 0.82072 0.0
N179 N 0.92039 0.35481 0.65282 0.0
C180 C 0.67988 0.27149 0.77409 0.0
C181 C 0.84453 0.33108 0.69945 0.0
N182 N 0.69186 0.15117 0.84157 0.0
N183 N 0.83256 0.4514 0.63198 0.0
H184 H 0.95652 0.32281 0.66576 0.0
H185 H 0.94519 0.40281 0.59221 0.0
H186 H 0.7999 0.48622 0.61241 0.0
H187 H 0.89535 0.48155 0.62104 0.0
H188 H 0.62906 0.12102 0.85251 0.0
H189 H 0.72451 0.11636 0.86116 0.0
H190 H 0.57923 0.19977 0.88133 0.0
H191 H 0.56789 0.27976 0.80778 0.0
C192 C 0.71544 0.73128 0.80222 0.0
C193 C 0.67889 0.75424 0.68898 0.0
C194 C 0.80898 0.87131 0.67134 0.0
C195 C 0.84553 0.84834 0.78458 0.0
N196 N 0.83727 0.74537 0.9415 0.0
N197 N 0.68715 0.85721 0.53205 0.0
C198 C 0.80037 0.77492 0.84445 0.0
C199 C 0.72405 0.82767 0.6291 0.0
N200 N 0.66659 0.67203 0.87809 0.0
N201 N 0.85783 0.93055 0.59547 0.0
H202 H 0.62947 0.82677 0.48313 0.0
H203 H 0.71248 0.91576 0.50415 0.0
H204 H 0.92212 0.95764 0.61228 0.0
H205 H 0.83732 0.94554 0.50494 0.0
H206 H 0.68711 0.65707 0.96862 0.0
H207 H 0.6023 0.64492 0.86128 0.0
H208 H 0.81195 0.68682 0.96938 0.0
H209 H 0.89496 0.7758 -0.00958 0.0
loop_
_geom_bond_atom_site_label_1
_geom_bond_atom_site_label_2
_geom_bond_distance
_geom_bond_site_symmetry_2
_ccdc_geom_bond_type
Co0 O3 2.042 1_556 S
Co0 O10 2.264 1_556 S
Co0 O29 2.286 . S
Co0 O30 2.069 . S
Co0 O32 2.015 1_455 S
Co1 O3 2.122 . S
Co1 O9 2.073 . S
Co1 O10 2.327 . S
Co1 O11 1.976 1_455 S
Co2 O3 2.087 1_545 S
Co2 O5 2.087 1_454 S
Co2 O12 2.111 1_445 S
Co2 O13 2.143 . S
Co2 O17 2.111 1_554 S
Co2 O31 2.143 1_444 S
O3 Co0 2.042 1_554 S
O3 Co1 2.122 . S
O3 Co2 2.087 1_565 S
O3 H4 0.980 . S
H4 O3 0.980 . S
O5 Co2 2.087 1_656 S
O5 Co6 2.042 1_556 S
O5 Co7 2.122 . S
O5 H8 0.980 . S
Co6 O5 2.042 1_554 S
Co6 O14 2.286 . S
Co6 O15 2.069 . S
Co6 O16 2.015 1_655 S
Co6 O19 2.264 1_554 S
Co7 O5 2.122 . S
Co7 O18 1.976 1_655 S
Co7 O19 2.327 . S
Co7 O20 2.073 . S
H8 O5 0.980 . S
O9 Co1 2.073 . S
O9 C24 1.245 . S
O10 Co0 2.264 1_554 S
O10 Co1 2.327 . S
O10 C24 1.257 . S
O11 Co1 1.976 1_655 S
O11 C23 1.251 . S
O12 Co2 2.111 1_665 S
O12 C23 1.274 . S
O13 Co2 2.143 . S
O13 C26 1.246 . S
O14 Co6 2.286 . S
O14 C25 1.259 . S
O15 Co6 2.069 . S
O15 C25 1.289 . S
O16 Co6 2.015 1_455 S
O16 C26 1.257 . S
O17 Co2 2.111 1_556 S
O17 C27 1.274 . S
O18 Co7 1.976 1_455 S
O18 C27 1.251 . S
O19 Co6 2.264 1_556 S
O19 Co7 2.327 . S
O19 C28 1.257 . S
O20 Co7 2.073 . S
O20 C28 1.245 . S
C21 O29 1.259 . S
C21 O30 1.289 . S
C22 O31 1.246 . S
C22 O32 1.257 . S
C23 O11 1.251 . S
C23 O12 1.274 . S
C24 O9 1.245 . S
C24 O10 1.257 . S
C25 O14 1.259 . S
C25 O15 1.289 . S
C26 O13 1.246 . S
C26 O16 1.257 . S
C27 O17 1.274 . S
C27 O18 1.251 . S
C28 O19 1.257 . S
C28 O20 1.245 . S
O29 Co0 2.286 . S
O29 C21 1.259 . S
O30 Co0 2.069 . S
O30 C21 1.289 . S
O31 Co2 2.143 1_666 S
O31 C22 1.246 . S
O32 Co0 2.015 1_655 S
O32 C22 1.257 . S
Co33 O36 2.042 . S
Co33 O43 2.264 . S
Co33 O62 2.286 . S
Co33 O63 2.069 . S
Co33 O65 2.015 . S
Co34 O36 2.122 . S
Co34 O42 2.073 . S
Co34 O43 2.327 . S
Co34 O44 1.976 . S
Co35 O36 2.087 . S
Co35 O38 2.087 . S
Co35 O45 2.111 . S
Co35 O46 2.143 . S
Co35 O50 2.111 . S
Co35 O64 2.143 . S
O36 Co33 2.042 . S
O36 Co34 2.122 . S
O36 Co35 2.087 . S
O36 H37 0.980 . S
H37 O36 0.980 . S
O38 Co35 2.087 . S
O38 Co39 2.042 . S
O38 Co40 2.122 . S
O38 H41 0.980 . S
Co39 O38 2.042 . S
Co39 O47 2.286 . S
Co39 O48 2.069 . S
Co39 O49 2.015 . S
Co39 O52 2.264 . S
Co40 O38 2.122 . S
Co40 O51 1.976 . S
Co40 O52 2.327 . S
Co40 O53 2.073 . S
H41 O38 0.980 . S
O42 Co34 2.073 . S
O42 C57 1.245 . S
O43 Co33 2.264 . S
O43 Co34 2.327 . S
O43 C57 1.257 . S
O44 Co34 1.976 . S
O44 C56 1.251 . S
O45 Co35 2.111 . S
O45 C56 1.274 . S
O46 Co35 2.143 . S
O46 C59 1.246 . S
O47 Co39 2.286 . S
O47 C58 1.259 . S
O48 Co39 2.069 . S
O48 C58 1.289 . S
O49 Co39 2.015 . S
O49 C59 1.257 . S
O50 Co35 2.111 . S
O50 C60 1.274 . S
O51 Co40 1.976 . S
O51 C60 1.251 . S
O52 Co39 2.264 . S
O52 Co40 2.327 . S
O52 C61 1.257 . S
O53 Co40 2.073 . S
O53 C61 1.245 . S
C54 O62 1.259 . S
C54 O63 1.289 . S
C55 O64 1.246 . S
C55 O65 1.257 . S
C56 O44 1.251 . S
C56 O45 1.274 . S
C57 O42 1.245 . S
C57 O43 1.257 . S
C58 O47 1.259 . S
C58 O48 1.289 . S
C59 O46 1.246 . S
C59 O49 1.257 . S
C60 O50 1.274 . S
C60 O51 1.251 . S
C61 O52 1.257 . S
C61 O53 1.245 . S
O62 Co33 2.286 . S
O62 C54 1.259 . S
O63 Co33 2.069 . S
O63 C54 1.289 . S
O64 Co35 2.143 . S
O64 C55 1.246 . S
O65 Co33 2.015 . S
O65 C55 1.257 . S
C66 C67 1.363 . S
C66 C72 1.379 . S
C66 N74 1.356 . S
C67 C66 1.363 . S
C67 C73 1.363 . S
C68 C69 1.363 . S
C68 C73 1.379 . S
C68 N75 1.356 . S
C69 C68 1.363 . S
C69 C72 1.363 . S
N70 C72 1.356 . S
N70 H82 0.984 . S
N70 H83 0.985 . S
N71 C73 1.356 . S
N71 H76 0.984 1_554 S
N71 H77 0.985 1_554 S
C72 C66 1.379 . S
C72 C69 1.363 . S
C72 N70 1.356 . S
C73 C67 1.363 . S
C73 C68 1.379 . S
C73 N71 1.356 . S
N74 C66 1.356 . S
N74 H80 0.984 . S
N74 H81 0.984 . S
N75 C68 1.356 . S
N75 H78 0.984 . S
N75 H79 0.985 . S
H76 N71 0.984 1_556 S
H77 N71 0.985 1_556 S
H78 N75 0.984 . S
H79 N75 0.985 . S
H80 N74 0.984 . S
H81 N74 0.984 . S
H82 N70 0.984 . S
H83 N70 0.985 . S
C84 C85 1.363 . S
C84 C90 1.379 . S
C84 N92 1.356 . S
C85 C84 1.363 . S
C85 C91 1.363 . S
C86 C87 1.363 . S
C86 C91 1.379 . S
C86 N93 1.356 . S
C87 C86 1.363 . S
C87 C90 1.363 . S
N88 C90 1.356 . S
N88 H100 0.984 . S
N88 H101 0.985 . S
N89 C91 1.356 . S
N89 H94 0.984 . S
N89 H95 0.985 . S
C90 C84 1.379 . S
C90 C87 1.363 . S
C90 N88 1.356 . S
C91 C85 1.363 . S
C91 C86 1.379 . S
C91 N89 1.356 . S
N92 C84 1.356 . S
N92 H98 0.984 . S
N92 H99 0.984 . S
N93 C86 1.356 . S
N93 H96 0.984 . S
N93 H97 0.985 . S
H94 N89 0.984 . S
H95 N89 0.985 . S
H96 N93 0.984 . S
H97 N93 0.985 . S
H98 N92 0.984 . S
H99 N92 0.984 . S
H100 N88 0.984 . S
H101 N88 0.985 . S
C102 C103 1.363 . S
C102 C108 1.379 . S
C102 N110 1.356 1_554 S
C103 C102 1.363 . S
C103 C109 1.363 . S
C104 C105 1.363 . S
C104 C109 1.379 . S
C104 N111 1.356 . S
C105 C104 1.363 . S
C105 C108 1.363 . S
N106 C108 1.356 . S
N106 H118 0.984 . S
N106 H119 0.985 . S
N107 C109 1.356 . S
N107 H112 0.984 . S
N107 H113 0.985 . S
C108 C102 1.379 . S
C108 C105 1.363 . S
C108 N106 1.356 . S
C109 C103 1.363 . S
C109 C104 1.379 . S
C109 N107 1.356 . S
N110 C102 1.356 1_556 S
N110 H116 0.984 . S
N110 H117 0.984 . S
N111 C104 1.356 . S
N111 H114 0.984 . S
N111 H115 0.985 . S
H112 N107 0.984 . S
H113 N107 0.985 . S
H114 N111 0.984 . S
H115 N111 0.985 . S
H116 N110 0.984 . S
H117 N110 0.984 . S
H118 N106 0.984 . S
H119 N106 0.985 . S
C120 C121 1.363 . S
C120 C126 1.379 . S
C120 N128 1.356 . S
C121 C120 1.363 . S
C121 C127 1.363 . S
C122 C123 1.363 . S
C122 C127 1.379 . S
C122 N129 1.356 . S
C123 C122 1.363 . S
C123 C126 1.363 . S
N124 C126 1.356 . S
N124 H136 0.984 . S
N124 H137 0.985 . S
N125 C127 1.356 . S
N125 H130 0.984 . S
N125 H131 0.985 . S
C126 C120 1.379 . S
C126 C123 1.363 . S
C126 N124 1.356 . S
C127 C121 1.363 . S
C127 C122 1.379 . S
C127 N125 1.356 . S
N128 C120 1.356 . S
N128 H134 0.984 . S
N128 H135 0.984 . S
N129 C122 1.356 . S
N129 H132 0.984 . S
N129 H133 0.985 . S
H130 N125 0.984 . S
H131 N125 0.985 . S
H132 N129 0.984 . S
H133 N129 0.985 . S
H134 N128 0.984 . S
H135 N128 0.984 . S
H136 N124 0.984 . S
H137 N124 0.985 . S
C138 C139 1.363 . S
C138 C144 1.379 . S
C138 N146 1.356 . S
C139 C138 1.363 . S
C139 C145 1.363 . S
C140 C141 1.363 . S
C140 C145 1.379 . S
C140 N147 1.356 . S
C141 C140 1.363 . S
C141 C144 1.363 . S
N142 C144 1.356 . S
N142 H154 0.984 . S
N142 H155 0.985 . S
N143 C145 1.356 . S
N143 H148 0.984 . S
N143 H149 0.985 1_556 S
C144 C138 1.379 . S
C144 C141 1.363 . S
C144 N142 1.356 . S
C145 C139 1.363 . S
C145 C140 1.379 . S
C145 N143 1.356 . S
N146 C138 1.356 . S
N146 H152 0.984 . S
N146 H153 0.984 . S
N147 C140 1.356 . S
N147 H150 0.984 . S
N147 H151 0.985 . S
H148 N143 0.984 . S
H149 N143 0.985 1_554 S
H150 N147 0.984 . S
H151 N147 0.985 . S
H152 N146 0.984 . S
H153 N146 0.984 . S
H154 N142 0.984 . S
H155 N142 0.985 . S
C156 C157 1.363 . S
C156 C162 1.379 . S
C156 N164 1.356 . S
C157 C156 1.363 . S
C157 C163 1.363 . S
C158 C159 1.363 . S
C158 C163 1.379 . S
C158 N165 1.356 . S
C159 C158 1.363 . S
C159 C162 1.363 . S
N160 C162 1.356 . S
N160 H172 0.984 . S
N160 H173 0.985 . S
N161 C163 1.356 . S
N161 H166 0.984 . S
N161 H167 0.985 . S
C162 C156 1.379 . S
C162 C159 1.363 . S
C162 N160 1.356 . S
C163 C157 1.363 . S
C163 C158 1.379 . S
C163 N161 1.356 . S
N164 C156 1.356 . S
N164 H170 0.984 . S
N164 H171 0.984 . S
N165 C158 1.356 . S
N165 H168 0.984 . S
N165 H169 0.985 . S
H166 N161 0.984 . S
H167 N161 0.985 . S
H168 N165 0.984 . S
H169 N165 0.985 . S
H170 N164 0.984 . S
H171 N164 0.984 . S
H172 N160 0.984 . S
H173 N160 0.985 . S
C174 C175 1.363 . S
C174 C180 1.379 . S
C174 N182 1.356 . S
C175 C174 1.363 . S
C175 C181 1.363 . S
C176 C177 1.363 . S
C176 C181 1.379 . S
C176 N183 1.356 . S
C177 C176 1.363 . S
C177 C180 1.363 . S
N178 C180 1.356 . S
N178 H190 0.984 . S
N178 H191 0.985 . S
N179 C181 1.356 . S
N179 H184 0.984 . S
N179 H185 0.985 . S
C180 C174 1.379 . S
C180 C177 1.363 . S
C180 N178 1.356 . S
C181 C175 1.363 . S
C181 C176 1.379 . S
C181 N179 1.356 . S
N182 C174 1.356 . S
N182 H188 0.984 1_556 S
N182 H189 0.985 1_556 S
N183 C176 1.356 . S
N183 H186 0.984 . S
N183 H187 0.985 . S
H184 N179 0.984 . S
H185 N179 0.985 . S
H186 N183 0.984 . S
H187 N183 0.985 . S
H188 N182 0.984 1_554 S
H189 N182 0.985 1_554 S
H190 N178 0.984 . S
H191 N178 0.985 . S
C192 C193 1.363 . S
C192 C198 1.379 . S
C192 N200 1.356 . S
C193 C192 1.363 . S
C193 C199 1.363 . S
C194 C195 1.363 . S
C194 C199 1.379 . S
C194 N201 1.356 . S
C195 C194 1.363 . S
C195 C198 1.363 . S
N196 C198 1.356 . S
N196 H208 0.984 1_556 S
N196 H209 0.985 1_556 S
N197 C199 1.356 . S
N197 H202 0.984 . S
N197 H203 0.985 . S
C198 C192 1.379 . S
C198 C195 1.363 . S
C198 N196 1.356 . S
C199 C193 1.363 . S
C199 C194 1.379 . S
C199 N197 1.356 . S
N200 C192 1.356 . S
N200 H206 0.984 . S
N200 H207 0.984 . S
N201 C194 1.356 . S
N201 H204 0.984 . S
N201 H205 0.985 . S
H202 N197 0.984 . S
H203 N197 0.985 . S
H204 N201 0.984 . S
H205 N201 0.985 . S
H206 N200 0.984 . S
H207 N200 0.984 . S
H208 N196 0.984 1_554 S
H209 N196 0.985 1_554 S
C67 C26 1.399 . S
C69 C55 1.397 . S
C85 C25 1.591 . S
C87 C54 1.590 . S
C103 C23 1.349 . S
C105 C60 1.351 . S
C121 C24 1.417 . S
C123 C61 1.418 . S
C139 C21 1.591 . S
C141 C58 1.591 . S
C157 C56 1.349 . S
C159 C27 1.347 . S
C175 C28 1.417 . S
C177 C57 1.417 . S
C193 C59 1.399 . S
C195 C22 1.401 . S
