# Generated by pormake.
# Topology pcu, (6)-cn, num edge types: 1
# Building blocks:
#     Node 0, Type 0, BuildingBlock: PAMTUU_clean_sbu_0, # of connection points: 6
#     Edge 1, Type (0, 0), BuildingBlock: FUNLAD_clean_linker_0, # of connection points: 2
#     Edge 2, Type (0, 0), BuildingBlock: FUNLAD_clean_linker_0, # of connection points: 2
#     Edge 3, Type (0, 0), BuildingBlock: FUNLAD_clean_linker_0, # of connection points: 2
# Relax obj value: 0.000
# Max RMSD: 0.000
# Mean RMSD: 0.000
data_MOF--net-pcu--node1-PAMTUU_clean_sbu_0--edge1-FUNLAD_clean_linker_0
_symmetry_space_group_name_H-M    P1
_symmetry_Int_Tables_number       1
_symmetry_cell_setting            triclinic
loop_
_symmetry_equiv_pos_as_xyz
'x, y, z'
_cell_length_a     28.198921
_cell_length_b     17.802113
_cell_length_c     17.620418
_cell_angle_alpha  86.205998
_cell_angle_beta   97.515356
_cell_angle_gamma 118.0286
loop_
_atom_site_label
_atom_site_type_symbol
_atom_site_fract_x
_atom_site_fract_y
_atom_site_fract_z
_atom_type_partial_charge
Tb0 Tb 0.08924 0.03287 0.98712 0.0
Tb1 Tb 0.95535 0.9433 0.97502 0.0
C2 C 0.02771 -0.01079 0.13091 0.0
C3 C 0.23465 0.07469 0.01313 0.0
C4 C 0.32239 0.03723 0.03655 0.0
C5 C 0.32964 0.11828 0.05372 0.0
C6 C 0.2862 0.13677 0.04194 0.0
C7 C 0.22665 -0.00728 -0.00163 0.0
C8 C 0.27019 0.97424 0.0098 0.0
C9 C 0.19114 0.09886 -0.00608 0.0
O10 O 0.06135 0.89876 0.96738 0.0
O11 O 0.97549 0.84025 0.00435 0.0
O12 O 0.97903 0.92644 0.86773 0.0
O13 O 0.05778 0.05017 0.8717 0.0
O14 O 0.88251 0.8715 0.02337 0.0
O15 O 0.88253 0.91485 0.90584 0.0
O16 O 0.9817 0.0782 0.95399 0.0
O17 O 0.07123 0.1358 0.00504 0.0
O18 O 0.06471 0.98128 0.09901 0.0
O19 O 0.98751 -0.0047 0.08918 0.0
C20 C 1.01714 0.83302 0.98691 0.0
O21 O 0.15801 0.06468 0.93264 0.0
O22 O 0.16584 0.10109 0.04987 0.0
C23 C 1.01701 0.98812 0.83257 0.0
C24 C 0.80966 0.89834 0.96969 0.0
C25 C 0.72322 0.93404 0.9813 0.0
C26 C 0.72312 0.88998 0.91789 0.0
C27 C 0.7658 0.87229 0.91229 0.0
C28 C 0.81028 0.94273 0.03321 0.0
C29 C 0.76725 0.96011 0.03909 0.0
C30 C 0.85328 0.8768 0.96144 0.0
C31 C 0.02772 0.14339 0.97942 0.0
H32 H 0.36932 0.1685 0.07361 0.0
H33 H 0.29322 0.20046 0.05339 0.0
H34 H 0.18708 0.94362 0.97643 0.0
H35 H 0.26309 0.91087 -0.00298 0.0
H36 H 0.68953 0.8678 0.87297 0.0
H37 H 0.76438 0.83763 0.86302 0.0
H38 H 0.84383 0.96383 0.07817 0.0
H39 H 0.76869 -0.00528 0.08836 0.0
C40 C 0.991 -0.00334 0.25066 0.0
C41 C 0.03164 -0.0075 0.2154 0.0
C42 C 0.99485 0.00084 0.33029 0.0
C43 C 0.03941 0.00058 0.3766 0.0
C44 C 0.08031 -0.00249 0.34132 0.0
C45 C 0.07637 -0.007 0.26164 0.0
C46 C 0.04527 0.00608 0.46145 0.0
C47 C 1.00272 0.97796 0.50211 0.0
C48 C 1.00804 0.98193 0.58697 0.0
C49 C 0.96465 0.92363 0.62562 0.0
C50 C 0.96767 0.92554 0.70527 0.0
C51 C 1.01398 0.9867 0.74813 0.0
H52 H 0.08791 0.09144 0.60186 0.0
C53 C 0.05717 0.04605 0.70946 0.0
C54 C 0.05428 0.04377 0.62971 0.0
H55 H 0.0933 0.09432 0.74074 0.0
H56 H 0.95621 -0.00284 0.2168 0.0
H57 H 0.96333 0.00593 0.35501 0.0
H58 H 0.11531 -0.00196 0.37555 0.0
H59 H 0.1086 -0.00956 0.23638 0.0
H60 H 0.08581 0.02999 0.49126 0.0
H61 H 0.96199 0.94641 0.47273 0.0
H62 H 0.92836 0.87588 0.59411 0.0
H63 H 0.9335 0.87917 0.73313 0.0
C64 C 0.37562 0.97544 0.98519 0.0
C65 C 0.3697 0.02023 0.04298 0.0
C66 C 0.4217 0.96414 -0.01155 0.0
C67 C 0.46319 -0.00226 0.04956 0.0
C68 C 0.45639 0.03989 0.10858 0.0
C69 C 0.41039 0.05153 0.10516 0.0
C70 C 0.51355 -0.01099 0.05396 0.0
C71 C 0.53412 0.9821 -0.00866 0.0
C72 C 0.58462 0.97418 -0.00708 0.0
C73 C 0.60834 0.98845 0.92458 0.0
C74 C 0.65395 0.97751 0.92146 0.0
C75 C 0.67705 0.95153 0.98666 0.0
H76 H 0.59077 0.93582 0.11223 0.0
C77 C 0.6541 0.93868 0.05562 0.0
C78 C 0.60823 0.94946 0.05875 0.0
H79 H 0.67049 0.91749 0.10659 0.0
H80 H 0.34517 0.95073 0.93635 0.0
H81 H 0.42441 0.9287 0.9431 0.0
H82 H 0.48725 0.06532 0.15691 0.0
H83 H 0.40673 0.08519 0.15122 0.0
H84 H 0.53554 -0.00666 0.11019 0.0
H85 H 0.51408 0.98544 0.93519 0.0
H86 H 0.59125 0.00756 0.87295 0.0
H87 H 0.67102 -0.01096 0.86765 0.0
C88 C 0.05578 0.73633 0.96381 0.0
C89 C 1.01373 0.74732 0.98751 0.0
C90 C 0.05212 0.65538 0.96237 0.0
C91 C 1.00645 0.58337 0.98547 0.0
C92 C 0.96438 0.59439 0.00877 0.0
C93 C 0.96797 0.67535 0.01001 0.0
C94 C 1.00036 0.49575 0.98357 0.0
C95 C 0.04244 0.47911 0.98496 0.0
C96 C 0.0368 0.3918 0.98331 0.0
C97 C 0.08204 0.37991 0.00923 0.0
C98 C 0.07908 0.29947 0.00793 0.0
C99 C 0.03074 0.22877 0.9801 0.0
H100 H 0.95314 0.32788 0.9317 0.0
C101 C 0.98551 0.24065 0.95327 0.0
C102 C 0.9885 0.32127 0.95455 0.0
H103 H 0.94774 0.18777 0.93089 0.0
H104 H 0.0914 0.79015 0.94529 0.0
H105 H 0.08471 0.64982 0.9415 0.0
H106 H 0.92853 0.54011 0.02625 0.0
H107 H 0.9347 0.6813 0.02835 0.0
H108 H 0.9598 0.4434 0.98443 0.0
H109 H 0.08333 0.53124 -0.00887 0.0
H110 H 0.1199 0.43309 0.03103 0.0
H111 H 0.11482 0.29294 0.02889 0.0
loop_
_geom_bond_atom_site_label_1
_geom_bond_atom_site_label_2
_geom_bond_distance
_geom_bond_site_symmetry_2
_ccdc_geom_bond_type
Tb0 C9 2.764 . S
Tb0 O10 2.325 1_545 S
Tb0 O13 2.303 1_554 S
Tb0 O17 2.322 . S
Tb0 O18 2.349 . S
Tb0 O21 2.415 1_554 S
Tb0 O22 2.399 . S
Tb1 O11 2.322 . S
Tb1 O12 2.349 . S
Tb1 O14 2.415 1_556 S
Tb1 O15 2.399 . S
Tb1 O16 2.325 1_565 S
Tb1 O19 2.303 1_556 S
Tb1 C30 2.764 . S
C2 O18 1.261 . S
C2 O19 1.257 1_445 S
C3 C6 1.358 . S
C3 C7 1.332 1_544 S
C3 C9 1.504 . S
C4 C5 1.373 1_566 S
C4 C8 1.308 . S
C5 C4 1.373 1_544 S
C5 C6 1.429 . S
C5 H32 0.932 . S
C6 C3 1.358 . S
C6 C5 1.429 . S
C6 H33 0.930 . S
C7 C3 1.332 1_566 S
C7 C8 1.394 . S
C7 H34 0.932 . S
C8 C4 1.308 . S
C8 C7 1.394 . S
C8 H35 0.929 . S
C9 Tb0 2.764 . S
C9 C3 1.504 . S
C9 O21 1.239 1_554 S
C9 O22 1.263 . S
O10 Tb0 2.325 1_565 S
O10 C20 1.232 1_455 S
O11 Tb1 2.322 . S
O11 C20 1.266 1_556 S
O12 Tb1 2.349 . S
O12 C23 1.261 . S
O13 Tb0 2.303 1_556 S
O13 C23 1.257 1_445 S
O14 Tb1 2.415 1_554 S
O14 C30 1.239 1_554 S
O15 Tb1 2.399 . S
O15 C30 1.263 . S
O16 Tb1 2.325 1_545 S
O16 C31 1.229 1_655 S
O17 Tb0 2.322 . S
O17 C31 1.271 1_554 S
O18 Tb0 2.349 . S
O18 C2 1.261 . S
O19 Tb1 2.303 1_554 S
O19 C2 1.257 1_665 S
C20 O10 1.232 1_655 S
C20 O11 1.266 1_554 S
O21 Tb0 2.415 1_556 S
O21 C9 1.239 1_556 S
O22 Tb0 2.399 . S
O22 C9 1.263 . S
C23 O12 1.261 . S
C23 O13 1.257 1_665 S
C24 C27 1.358 . S
C24 C28 1.332 1_566 S
C24 C30 1.504 . S
C25 C26 1.373 1_544 S
C25 C29 1.308 . S
C26 C25 1.373 1_566 S
C26 C27 1.429 . S
C26 H36 0.932 . S
C27 C24 1.358 . S
C27 C26 1.429 . S
C27 H37 0.930 . S
C28 C24 1.332 1_544 S
C28 C29 1.394 . S
C28 H38 0.932 . S
C29 C25 1.308 . S
C29 C28 1.394 . S
C29 H39 0.929 . S
C30 Tb1 2.764 . S
C30 O14 1.239 1_556 S
C30 O15 1.263 . S
C30 C24 1.504 . S
C31 O16 1.229 1_455 S
C31 O17 1.271 1_556 S
H32 C5 0.932 . S
H33 C6 0.930 . S
H34 C7 0.932 . S
H35 C8 0.929 . S
H36 C26 0.932 . S
H37 C27 0.930 . S
H38 C28 0.932 . S
H39 C29 0.929 . S
C40 C41 1.386 1_655 S
C40 C42 1.383 . S
C40 H56 0.951 . S
C41 C40 1.386 1_455 S
C41 C45 1.383 1_565 S
C42 C40 1.383 . S
C42 C43 1.402 1_655 S
C42 H57 0.951 . S
C43 C42 1.402 1_455 S
C43 C44 1.375 1_565 S
C43 C46 1.481 . S
C44 C43 1.375 1_545 S
C44 C45 1.367 . S
C44 H58 0.951 . S
C45 C41 1.383 1_545 S
C45 C44 1.367 . S
C45 H59 0.950 . S
C46 C43 1.481 . S
C46 C47 1.297 1_455 S
C46 H60 0.950 1_565 S
C47 C46 1.297 1_655 S
C47 C48 1.479 . S
C47 H61 0.950 . S
C48 C47 1.479 . S
C48 C49 1.375 . S
C48 C54 1.404 1_655 S
C49 C48 1.375 . S
C49 C50 1.369 . S
C49 H62 0.950 . S
C50 C49 1.369 . S
C50 C51 1.392 . S
C50 H63 0.951 . S
C51 C50 1.392 . S
C51 C53 1.384 1_655 S
H52 C54 0.949 . S
C53 C51 1.384 1_455 S
C53 C54 1.385 . S
C53 H55 0.950 1_565 S
C54 C48 1.404 1_455 S
C54 H52 0.949 . S
C54 C53 1.385 . S
H55 C53 0.950 1_545 S
H56 C40 0.951 . S
H57 C42 0.951 . S
H58 C44 0.951 . S
H59 C45 0.950 . S
H60 C46 0.950 1_545 S
H61 C47 0.950 . S
H62 C49 0.950 . S
H63 C50 0.951 . S
C64 C65 1.386 1_556 S
C64 C66 1.383 . S
C64 H80 0.951 1_545 S
C65 C64 1.386 1_554 S
C65 C69 1.383 . S
C66 C64 1.383 . S
C66 C67 1.402 1_556 S
C66 H81 0.951 . S
C67 C66 1.402 1_554 S
C67 C68 1.375 . S
C67 C70 1.481 . S
C68 C67 1.375 . S
C68 C69 1.367 . S
C68 H82 0.951 . S
C69 C65 1.383 . S
C69 C68 1.367 . S
C69 H83 0.950 . S
C70 C67 1.481 . S
C70 C71 1.297 1_554 S
C70 H84 0.950 . S
C71 C70 1.297 1_556 S
C71 C72 1.479 . S
C71 H85 0.950 . S
C72 C71 1.479 . S
C72 C73 1.375 . S
C72 C78 1.404 1_556 S
C73 C72 1.375 . S
C73 C74 1.369 . S
C73 H86 0.950 . S
C74 C73 1.369 . S
C74 C75 1.392 . S
C74 H87 0.951 1_545 S
C75 C74 1.392 . S
C75 C77 1.384 1_556 S
H76 C78 0.949 . S
C77 C75 1.384 1_554 S
C77 C78 1.385 . S
C77 H79 0.950 . S
C78 C72 1.404 1_554 S
C78 H76 0.949 . S
C78 C77 1.385 . S
H79 C77 0.950 . S
H80 C64 0.951 1_565 S
H81 C66 0.951 . S
H82 C68 0.951 . S
H83 C69 0.950 . S
H84 C70 0.950 . S
H85 C71 0.950 . S
H86 C73 0.950 . S
H87 C74 0.951 1_565 S
C88 C89 1.386 1_455 S
C88 C90 1.383 . S
C88 H104 0.951 . S
C89 C88 1.386 1_655 S
C89 C93 1.383 1_554 S
C90 C88 1.383 . S
C90 C91 1.402 1_455 S
C90 H105 0.951 . S
C91 C90 1.402 1_655 S
C91 C92 1.375 1_554 S
C91 C94 1.481 . S
C92 C91 1.375 1_556 S
C92 C93 1.367 . S
C92 H106 0.951 . S
C93 C89 1.383 1_556 S
C93 C92 1.367 . S
C93 H107 0.950 . S
C94 C91 1.481 . S
C94 C95 1.297 1_655 S
C94 H108 0.950 1_554 S
C95 C94 1.297 1_455 S
C95 C96 1.471 . S
C95 H109 0.950 . S
C96 C95 1.471 . S
C96 C97 1.395 . S
C96 C102 1.394 1_455 S
C97 C96 1.395 . S
C97 C98 1.369 . S
C97 H110 0.950 . S
C98 C97 1.369 . S
C98 C99 1.381 1_455 S
C98 H111 0.951 . S
C99 C98 1.381 1_655 S
C99 C101 1.408 1_554 S
H100 C102 0.949 . S
C101 C99 1.408 1_556 S
C101 C102 1.384 1_556 S
C101 H103 0.951 . S
C102 C96 1.394 1_655 S
C102 H100 0.949 . S
C102 C101 1.384 1_554 S
H103 C101 0.951 . S
H104 C88 0.951 . S
H105 C90 0.951 . S
H106 C92 0.951 . S
H107 C93 0.950 . S
H108 C94 0.950 1_556 S
H109 C95 0.950 . S
H110 C97 0.950 . S
H111 C98 0.951 . S
C41 C2 1.443 1_565 S
C51 C23 1.453 . S
C65 C4 1.498 1_544 S
C75 C25 1.485 1_556 S
C89 C20 1.486 . S
C99 C31 1.476 1_654 S
