# Generated by pormake.
# Topology pcu, (6)-cn, num edge types: 1
# Building blocks:
#     Node 0, Type 0, BuildingBlock: KUMBOL_clean_sbu_0, # of connection points: 6
#     Edge 1, Type (0, 0), BuildingBlock: XIVTED_clean_linker_0, # of connection points: 2
#     Edge 2, Type (0, 0), BuildingBlock: XIVTED_clean_linker_0, # of connection points: 2
#     Edge 3, Type (0, 0), BuildingBlock: XIVTED_clean_linker_0, # of connection points: 2
# Relax obj value: 0.000
# Max RMSD: 0.000
# Mean RMSD: 0.000
data_MOF--net-pcu--node1-KUMBOL_clean_sbu_0--edge1-XIVTED_clean_linker_0
_symmetry_space_group_name_H-M    P1
_symmetry_Int_Tables_number       1
_symmetry_cell_setting            triclinic
loop_
_symmetry_equiv_pos_as_xyz
'x, y, z'
_cell_length_a     24.449034
_cell_length_b     14.095039
_cell_length_c     15.404395
_cell_angle_alpha  74.749223
_cell_angle_beta   115.70746
_cell_angle_gamma 115.99306
loop_
_atom_site_label
_atom_site_type_symbol
_atom_site_fract_x
_atom_site_fract_y
_atom_site_fract_z
_atom_type_partial_charge
Gd0 Gd 0.10931 0.08198 0.03141 0.0
Gd1 Gd 0.92987 0.93276 0.95404 0.0
C2 C 0.83783 0.58263 0.90202 0.0
C3 C 0.7768 0.58777 0.72849 0.0
C4 C 0.83847 0.75052 0.80883 0.0
C5 C 0.85909 0.69387 0.89639 0.0
C6 C 0.796 0.69804 0.72414 0.0
C7 C 0.79773 0.53017 0.8173 0.0
C8 C 0.85617 0.52731 -0.00707 0.0
C9 C 0.89285 0.58264 0.07548 0.0
N10 N 0.89735 0.74705 0.97683 0.0
C11 C 0.91237 0.69295 0.06619 0.0
H12 H 0.94089 0.7346 0.1306 0.0
C13 C 0.83265 0.91455 0.72498 0.0
N14 N 0.85761 0.8567 0.80741 0.0
C15 C 0.79069 0.86623 0.63893 0.0
C16 C 0.77285 0.75766 0.6382 0.0
H17 H 0.84662 0.99862 0.72519 0.0
H18 H 0.78141 0.44486 0.82003 0.0
H19 H 0.0984 0.2801 0.85477 0.0
H20 H 0.84107 0.44188 0.00035 0.0
H21 H 0.9063 0.54044 0.14631 0.0
H22 H 0.74464 0.54606 0.66406 0.0
H23 H 0.19248 0.01618 0.26034 0.0
H24 H 0.19821 0.57289 0.98492 0.0
H25 H 0.13303 0.47427 0.83898 0.0
H26 H 0.29449 0.4688 0.32128 0.0
H27 H 0.77217 0.91271 0.57327 0.0
H28 H 0.74016 0.72032 0.57154 0.0
H29 H 0.25779 0.56996 0.16524 0.0
H30 H 0.26689 0.10214 0.41224 0.0
N31 N 0.14188 0.2677 0.00855 0.0
C32 C 0.18309 0.48745 0.99237 0.0
C33 C 0.14644 0.43209 0.90983 0.0
C34 C 0.20138 0.43215 0.0833 0.0
C35 C 0.1801 0.32091 0.08897 0.0
C36 C 0.1269 0.32177 0.91917 0.0
N37 N 0.18152 0.15809 0.17804 0.0
C38 C 0.20068 0.26428 0.17656 0.0
C39 C 0.2484 0.1486 0.34655 0.0
C40 C 0.26624 0.25719 0.34722 0.0
C41 C 0.20645 0.10026 0.2605 0.0
C42 C 0.24312 0.31678 0.26125 0.0
H43 H 0.29891 0.29454 0.41388 0.0
O44 O 0.1882 0.0288 0.0668 0.0
O45 O 0.02735 0.92844 -0.00631 0.0
O46 O 0.98105 0.9274 0.11843 0.0
O47 O 0.07879 0.07548 0.15164 0.0
O48 O 0.11054 0.92101 0.10724 0.0
O49 O 0.16701 0.13928 0.94079 0.0
O50 O 0.85097 0.98588 0.91873 0.0
O51 O 1.01182 0.08618 0.99158 0.0
O52 O 0.05816 0.08733 0.867 0.0
O53 O 0.96035 0.93936 0.83372 0.0
O54 O 0.92863 0.09382 0.87834 0.0
O55 O 0.87223 0.87542 0.04475 0.0
C56 C 0.05273 0.8651 0.05322 0.0
C57 C 0.26235 0.42706 0.25685 0.0
C58 C 0.24146 0.48464 0.16801 0.0
C59 C 0.206 0.08911 -0.0039 0.0
C60 C 0.27654 0.14999 0.02079 0.0
C61 C 0.30617 0.24938 0.05676 0.0
C62 C 0.31484 0.10732 0.00893 0.0
C63 C 0.38267 0.16348 0.0326 0.0
C64 C 0.37332 0.30553 0.08055 0.0
C65 C 0.41143 0.26314 0.06864 0.0
C66 C 0.03034 1.00017 0.1764 0.0
C67 C 0.98651 0.14968 0.93224 0.0
C68 C 0.83322 0.92556 0.98947 0.0
C69 C 0.76268 0.86464 0.96483 0.0
C70 C 0.73307 0.76522 0.92891 0.0
C71 C 0.72437 0.9073 0.97668 0.0
C72 C 0.65655 0.85111 0.95305 0.0
C73 C 0.66592 0.70905 0.90515 0.0
C74 C 0.62781 0.75143 0.91706 0.0
C75 C 1.00882 0.01465 0.80899 0.0
H76 H 0.27753 0.28357 0.06633 0.0
H77 H 0.29152 0.03094 0.98007 0.0
H78 H 0.39598 0.3821 0.10859 0.0
H79 H 0.46355 0.30783 0.08887 0.0
H80 H 0.76171 0.73104 0.91935 0.0
H81 H 0.74769 0.9837 0.0055 0.0
H82 H 0.64328 0.63246 0.87715 0.0
H83 H 0.57569 0.70672 0.89685 0.0
H84 H 0.11178 0.15028 0.30606 0.0
H85 H 0.92731 0.86464 0.67924 0.0
H86 H 0.94619 0.85286 0.26382 0.0
H87 H 0.093 0.16193 0.72159 0.0
H88 H 0.93278 0.86008 0.52633 0.0
H89 H 0.10629 0.15486 0.45895 0.0
C90 C 0.07466 0.0852 0.32925 0.0
C91 C 0.02966 1.00055 0.27196 0.0
C92 C 0.96779 0.92656 0.56882 0.0
C93 C 0.02242 1.00651 0.44688 0.0
C94 C 0.96444 0.9297 0.65607 0.0
C95 C 1.00948 0.0143 0.7134 0.0
C96 C 1.0167 0.00837 0.53846 0.0
C97 C 0.05716 0.0952 0.67993 0.0
C98 C 0.07131 0.08835 0.41649 0.0
C99 C 0.982 0.91963 0.30545 0.0
N100 N 0.05955 0.09012 0.59478 0.0
N101 N 0.9796 0.92472 0.39059 0.0
H102 H 0.48297 0.26682 0.96429 0.0
H103 H 0.55627 0.74778 0.02139 0.0
H104 H 0.3753 0.95726 0.07199 0.0
H105 H 0.66389 0.05732 0.91359 0.0
H106 H 0.48921 0.82287 0.03969 0.0
H107 H 0.55002 0.19173 0.94597 0.0
C108 C 0.47359 0.18313 0.98458 0.0
C109 C 0.42335 0.1184 0.01992 0.0
C110 C 0.52751 0.87443 0.01207 0.0
C111 C 0.49974 0.03148 -0.00189 0.0
C112 C 0.56564 0.83147 0.00107 0.0
C113 C 0.61586 0.8962 0.96571 0.0
C114 C 0.53947 0.98311 0.98751 0.0
C115 C 0.62633 1.00452 0.94222 0.0
C116 C 0.51171 0.14016 0.97357 0.0
C117 C 0.41287 0.01006 0.04338 0.0
N118 N 0.58846 0.04444 0.9534 0.0
N119 N 0.45074 0.97015 0.0322 0.0
H120 H 0.99304 0.78087 0.8784 0.0
H121 H 0.04615 0.23379 0.10716 0.0
H122 H 0.08445 0.70774 0.18408 0.0
H123 H 0.95504 0.3072 0.80145 0.0
H124 H 0.06175 0.4072 0.13675 0.0
H125 H 0.97752 0.60751 0.84885 0.0
C126 C 1.00884 0.72763 0.93954 0.0
C127 C 0.03838 0.75755 0.03418 0.0
C128 C 0.03872 0.38592 0.06305 0.0
C129 C 0.02312 0.5599 0.00063 0.0
C130 C 0.03045 0.2871 0.04602 0.0
C131 C 1.00096 0.25725 0.95136 0.0
C132 C 1.0163 0.45493 0.98496 0.0
C133 C 0.97904 0.32811 0.87535 0.0
C134 C 1.00062 0.62883 0.92253 0.0
C135 C 0.0604 0.68678 0.1102 0.0
N136 N 0.9873 0.42377 0.89369 0.0
N137 N 0.05218 0.59113 0.09187 0.0
loop_
_geom_bond_atom_site_label_1
_geom_bond_atom_site_label_2
_geom_bond_distance
_geom_bond_site_symmetry_2
_ccdc_geom_bond_type
Gd0 N31 2.661 1_554 S
Gd0 N37 2.601 . S
Gd0 O44 2.545 . S
Gd0 O45 2.606 1_444 S
Gd0 O47 2.429 1_545 S
Gd0 O48 2.545 1_545 S
Gd0 O49 2.412 . S
Gd0 O51 2.362 . S
Gd0 O52 2.324 1_554 S
Gd0 C59 2.828 . S
Gd1 N10 2.661 1_556 S
Gd1 N14 2.601 . S
Gd1 O45 2.362 . S
Gd1 O46 2.324 1_556 S
Gd1 O50 2.545 . S
Gd1 O51 2.606 1_666 S
Gd1 O53 2.429 1_565 S
Gd1 O54 2.545 1_565 S
Gd1 O55 2.412 . S
Gd1 C68 2.828 . S
C2 C5 1.417 . S
C2 C7 1.431 . S
C2 C8 1.412 1_556 S
C3 C6 1.437 . S
C3 C7 1.317 . S
C3 H22 0.929 . S
C4 C5 1.426 . S
C4 C6 1.413 . S
C4 N14 1.359 . S
C5 C2 1.417 . S
C5 C4 1.426 . S
C5 N10 1.350 1_556 S
C6 C3 1.437 . S
C6 C4 1.413 . S
C6 C16 1.391 . S
C7 C2 1.431 . S
C7 C3 1.317 . S
C7 H18 0.930 . S
C8 C2 1.412 1_554 S
C8 C9 1.355 . S
C8 H20 0.930 . S
C9 C8 1.355 . S
C9 C11 1.402 . S
C9 H21 0.930 . S
N10 Gd1 2.661 1_554 S
N10 C5 1.350 1_554 S
N10 C11 1.307 . S
C11 C9 1.402 . S
C11 N10 1.307 . S
C11 H12 0.930 . S
H12 C11 0.930 . S
C13 N14 1.334 . S
C13 C15 1.394 . S
C13 H17 0.930 . S
N14 Gd1 2.601 . S
N14 C4 1.359 . S
N14 C13 1.334 . S
C15 C13 1.394 . S
C15 C16 1.359 . S
C15 H27 0.930 . S
C16 C6 1.391 . S
C16 C15 1.359 . S
C16 H28 0.929 . S
H17 C13 0.930 . S
H18 C7 0.930 . S
H19 C36 0.930 . S
H20 C8 0.930 . S
H21 C9 0.930 . S
H22 C3 0.929 . S
H23 C41 0.930 . S
H24 C32 0.930 . S
H25 C33 0.930 . S
H26 C57 0.929 . S
H27 C15 0.930 . S
H28 C16 0.929 . S
H29 C58 0.930 . S
H30 C39 0.930 . S
N31 Gd0 2.661 1_556 S
N31 C35 1.350 1_556 S
N31 C36 1.307 . S
C32 H24 0.930 . S
C32 C33 1.355 . S
C32 C34 1.412 1_556 S
C33 H25 0.930 . S
C33 C32 1.355 . S
C33 C36 1.402 . S
C34 C32 1.412 1_554 S
C34 C35 1.417 . S
C34 C58 1.431 . S
C35 N31 1.350 1_554 S
C35 C34 1.417 . S
C35 C38 1.426 . S
C36 H19 0.930 . S
C36 N31 1.307 . S
C36 C33 1.402 . S
N37 Gd0 2.601 . S
N37 C38 1.359 . S
N37 C41 1.334 . S
C38 C35 1.426 . S
C38 N37 1.359 . S
C38 C42 1.413 . S
C39 H30 0.930 . S
C39 C40 1.359 . S
C39 C41 1.394 . S
C40 C39 1.359 . S
C40 C42 1.391 . S
C40 H43 0.929 . S
C41 H23 0.930 . S
C41 N37 1.334 . S
C41 C39 1.394 . S
C42 C38 1.413 . S
C42 C40 1.391 . S
C42 C57 1.437 . S
H43 C40 0.929 . S
O44 Gd0 2.545 . S
O44 C59 1.258 . S
O45 Gd0 2.606 1_666 S
O45 Gd1 2.362 . S
O45 C56 1.284 1_656 S
O46 Gd1 2.324 1_554 S
O46 C66 1.254 1_655 S
O47 Gd0 2.429 1_565 S
O47 C66 1.268 . S
O48 Gd0 2.545 1_565 S
O48 C56 1.250 . S
O49 Gd0 2.412 . S
O49 C59 1.252 . S
O50 Gd1 2.545 . S
O50 C68 1.258 . S
O51 Gd0 2.362 . S
O51 Gd1 2.606 1_444 S
O51 C67 1.284 1_454 S
O52 Gd0 2.324 1_556 S
O52 C75 1.254 1_455 S
O53 Gd1 2.429 1_545 S
O53 C75 1.268 . S
O54 Gd1 2.545 1_545 S
O54 C67 1.250 . S
O55 Gd1 2.412 . S
O55 C68 1.252 . S
C56 O45 1.284 1_454 S
C56 O48 1.250 . S
C57 H26 0.929 . S
C57 C42 1.437 . S
C57 C58 1.317 . S
C58 H29 0.930 . S
C58 C34 1.431 . S
C58 C57 1.317 . S
C59 Gd0 2.828 . S
C59 O44 1.258 . S
C59 O49 1.252 . S
C59 C60 1.497 . S
C60 C59 1.497 . S
C60 C61 1.395 . S
C60 C62 1.380 . S
C61 C60 1.395 . S
C61 C64 1.398 . S
C61 H76 0.930 . S
C62 C60 1.380 . S
C62 C63 1.391 . S
C62 H77 0.930 1_554 S
C63 C62 1.391 . S
C63 C65 1.387 . S
C64 C61 1.398 . S
C64 C65 1.380 . S
C64 H78 0.930 . S
C65 C63 1.387 . S
C65 C64 1.380 . S
C65 H79 0.930 . S
C66 O46 1.254 1_455 S
C66 O47 1.268 . S
C67 O51 1.284 1_656 S
C67 O54 1.250 . S
C68 Gd1 2.828 . S
C68 O50 1.258 . S
C68 O55 1.252 . S
C68 C69 1.497 . S
C69 C68 1.497 . S
C69 C70 1.395 . S
C69 C71 1.380 . S
C70 C69 1.395 . S
C70 C73 1.398 . S
C70 H80 0.930 . S
C71 C69 1.380 . S
C71 C72 1.391 . S
C71 H81 0.930 1_556 S
C72 C71 1.391 . S
C72 C74 1.387 . S
C73 C70 1.398 . S
C73 C74 1.380 . S
C73 H82 0.930 . S
C74 C72 1.387 . S
C74 C73 1.380 . S
C74 H83 0.930 . S
C75 O52 1.254 1_655 S
C75 O53 1.268 . S
H76 C61 0.930 . S
H77 C62 0.930 1_556 S
H78 C64 0.930 . S
H79 C65 0.930 . S
H80 C70 0.930 . S
H81 C71 0.930 1_554 S
H82 C73 0.930 . S
H83 C74 0.930 . S
H84 C90 0.930 . S
H85 C94 0.930 . S
H86 C99 0.929 . S
H87 C97 0.929 . S
H88 C92 0.929 . S
H89 C98 0.929 . S
C90 H84 0.930 . S
C90 C91 1.367 . S
C90 C98 1.378 . S
C91 C90 1.367 . S
C91 C99 1.433 1_465 S
C92 H88 0.929 . S
C92 C94 1.378 . S
C92 C96 1.352 . S
C93 C96 1.461 1_465 S
C93 C98 1.351 . S
C93 N101 1.427 1_465 S
C94 H85 0.930 . S
C94 C92 1.378 . S
C94 C95 1.367 . S
C95 C94 1.367 . S
C95 C97 1.432 1_645 S
C96 C92 1.352 . S
C96 C93 1.461 1_645 S
C96 N100 1.426 1_645 S
C97 H87 0.929 . S
C97 C95 1.432 1_465 S
C97 N100 1.384 . S
C98 H89 0.929 . S
C98 C90 1.378 . S
C98 C93 1.351 . S
C99 H86 0.929 . S
C99 C91 1.433 1_645 S
C99 N101 1.384 . S
N100 C96 1.426 1_465 S
N100 C97 1.384 . S
N101 C93 1.427 1_645 S
N101 C99 1.384 . S
H102 C108 0.930 . S
H103 C112 0.930 . S
H104 C117 0.929 . S
H105 C115 0.929 . S
H106 C110 0.929 . S
H107 C116 0.929 . S
C108 H102 0.930 . S
C108 C109 1.367 . S
C108 C116 1.378 . S
C109 C108 1.367 . S
C109 C117 1.433 1_546 S
C110 H106 0.929 . S
C110 C112 1.378 . S
C110 C114 1.350 . S
C111 C114 1.463 1_546 S
C111 C116 1.350 . S
C111 N119 1.427 1_546 S
C112 H103 0.930 . S
C112 C110 1.378 . S
C112 C113 1.367 . S
C113 C112 1.367 . S
C113 C115 1.433 1_564 S
C114 C110 1.350 . S
C114 C111 1.463 1_564 S
C114 N118 1.427 1_564 S
C115 H105 0.929 . S
C115 C113 1.433 1_546 S
C115 N118 1.384 . S
C116 H107 0.929 . S
C116 C108 1.378 . S
C116 C111 1.350 . S
C117 H104 0.929 . S
C117 C109 1.433 1_564 S
C117 N119 1.384 . S
N118 C114 1.427 1_546 S
N118 C115 1.384 . S
N119 C111 1.427 1_564 S
N119 C117 1.384 . S
H120 C126 0.930 . S
H121 C130 0.930 . S
H122 C135 0.929 . S
H123 C133 0.929 . S
H124 C128 0.929 . S
H125 C134 0.929 . S
C126 H120 0.930 . S
C126 C127 1.367 . S
C126 C134 1.378 . S
C127 C126 1.367 . S
C127 C135 1.434 1_656 S
C128 H124 0.929 . S
C128 C130 1.378 . S
C128 C132 1.348 . S
C129 C132 1.465 1_656 S
C129 C134 1.349 . S
C129 N137 1.427 1_656 S
C130 H121 0.930 . S
C130 C128 1.378 . S
C130 C131 1.367 . S
C131 C130 1.367 . S
C131 C133 1.435 1_454 S
C132 C128 1.348 . S
C132 C129 1.465 1_454 S
C132 N136 1.428 1_454 S
C133 H123 0.929 . S
C133 C131 1.435 1_656 S
C133 N136 1.384 . S
C134 H125 0.929 . S
C134 C126 1.378 . S
C134 C129 1.349 . S
C135 H122 0.929 . S
C135 C127 1.434 1_454 S
C135 N137 1.384 . S
N136 C132 1.428 1_656 S
N136 C133 1.384 . S
N137 C129 1.427 1_454 S
N137 C135 1.384 . S
C91 C66 1.468 . S
C95 C75 1.469 . S
C109 C63 1.327 1_556 S
C113 C72 1.327 1_554 S
C127 C56 1.442 1_656 S
C131 C67 1.441 1_454 S
