# Generated by pormake.
# Topology cds, (4)-cn, num edge types: 1
# Building blocks:
#     Node 0, Type 0, BuildingBlock: NAWXER_clean_sbu_0, # of connection points: 4
#     Node 1, Type 0, BuildingBlock: NAWXER_clean_sbu_0, # of connection points: 4
#     Edge 2, Type (0, 0), BuildingBlock: CIFDUS_clean_linker_0, # of connection points: 2
#     Edge 3, Type (0, 0), BuildingBlock: CIFDUS_clean_linker_0, # of connection points: 2
#     Edge 4, Type (0, 0), BuildingBlock: CIFDUS_clean_linker_0, # of connection points: 2
#     Edge 5, Type (0, 0), BuildingBlock: CIFDUS_clean_linker_0, # of connection points: 2
# Relax obj value: 0.000
# Max RMSD: 0.000
# Mean RMSD: 0.000
data_MOF--net-cds--node1-NAWXER_clean_sbu_0--edge1-CIFDUS_clean_linker_0
_symmetry_space_group_name_H-M    P1
_symmetry_Int_Tables_number       1
_symmetry_cell_setting            triclinic
loop_
_symmetry_equiv_pos_as_xyz
'x, y, z'
_cell_length_a     12.861235
_cell_length_b     12.855614
_cell_length_c     25.511337
_cell_angle_alpha  96.587793
_cell_angle_beta   96.764509
_cell_angle_gamma 89.693758
loop_
_atom_site_label
_atom_site_type_symbol
_atom_site_fract_x
_atom_site_fract_y
_atom_site_fract_z
_atom_type_partial_charge
C0 C 0.28011 0.90592 1.0105 0.0
C1 C 0.8982 0.87204 1.0005 0.0
O2 O 0.22804 0.82054 1.00231 0.0
Zn3 Zn 0.08916 0.88411 1.00344 0.0
O4 O 0.23159 0.99306 0.01586 0.0
Zn5 Zn 0.07682 0.05075 0.0167 0.0
O6 O 0.08374 0.12296 0.08718 0.0
O7 O 0.0904 0.95057 0.08564 0.0
O8 O 0.93295 0.9664 1.00915 0.0
O9 O 0.96192 0.7971 0.99319 0.0
O10 O 0.07447 0.96336 0.93284 0.0
O11 O 0.05735 0.13238 0.95772 0.0
C12 C 0.08854 0.04211 0.11166 0.0
C13 C 0.06217 0.05744 0.9211 0.0
C14 C 0.88079 0.25679 0.51521 0.0
C15 C 0.84487 0.8754 0.50701 0.0
O16 O 0.96753 0.20731 0.51651 0.0
Zn17 Zn 0.02373 0.05173 0.51222 0.0
O18 O 0.79518 0.20554 0.51024 0.0
Zn19 Zn 0.85768 0.06577 0.50909 0.0
O20 O 0.94327 0.06935 0.58798 0.0
O21 O 0.11122 0.05 0.57829 0.0
O22 O 0.76994 0.94055 0.50582 0.0
O23 O 0.93917 0.9085 0.50874 0.0
O24 O 0.08978 0.03852 0.44805 0.0
O25 O 0.91711 0.0433 0.43293 0.0
C26 C 0.03886 0.06133 0.6083 0.0
C27 C 1.00684 0.03531 0.41559 0.0
H28 H 0.97689 0.92643 0.16707 0.0
H29 H 0.19736 0.18292 0.18543 0.0
H30 H 0.19668 0.19963 0.28214 0.0
H31 H 0.13087 0.14202 0.3614 0.0
H32 H 0.89461 0.89976 0.34149 0.0
H33 H 0.90352 0.87603 0.24545 0.0
C34 C 0.02503 0.98554 0.19245 0.0
C35 C 0.08797 0.05265 0.16968 0.0
C36 C 0.02109 0.99705 0.24756 0.0
C37 C 0.14851 0.13046 0.20245 0.0
C38 C 0.1482 0.13984 0.25759 0.0
C39 C 0.08191 0.08388 0.33583 0.0
C40 C 1.01303 0.02182 0.35803 0.0
C41 C 0.0846 0.07368 0.28057 0.0
C42 C 0.94823 0.94806 0.32488 0.0
C43 C 0.95342 0.93449 0.27015 0.0
H44 H 0.1684 0.9644 0.84351 0.0
H45 H 0.93212 0.19542 0.87359 0.0
H46 H 0.90441 0.2187 0.77897 0.0
H47 H 0.94235 0.16678 0.68701 0.0
H48 H 0.18932 0.94679 0.65847 0.0
H49 H 0.21887 0.92616 0.75318 0.0
C50 C 0.1113 0.02015 0.82921 0.0
C51 C 0.05147 0.07733 0.865 0.0
C52 C 0.09788 0.03495 0.77516 0.0
C53 C 0.97893 0.15065 0.84651 0.0
C54 C 0.9629 0.16367 0.7925 0.0
C55 C 1.00309 0.11503 0.70176 0.0
C56 C 0.06306 0.05772 0.66601 0.0
C57 C 0.02112 0.10534 0.75637 0.0
C58 C 0.14249 0.99191 0.68541 0.0
C59 C 0.15902 0.9797 0.73945 0.0
H60 H 0.75945 0.01348 0.03406 0.0
H61 H 0.78098 0.69073 0.96831 0.0
H62 H 0.59065 0.66972 0.96717 0.0
H63 H 0.41644 0.74745 0.98243 0.0
H64 H 0.40506 0.07216 0.04809 0.0
H65 H 0.59312 0.08736 0.05159 0.0
C66 C 0.72313 0.93817 0.01928 0.0
C67 C 0.78441 0.85413 1.00077 0.0
C68 C 0.61501 0.92705 0.01869 0.0
C69 C 0.73554 0.75693 0.98262 0.0
C70 C 0.62674 0.74502 0.98192 0.0
C71 C 0.45547 0.8211 0.99776 0.0
C72 C 0.39603 0.90868 0.01451 0.0
C73 C 0.56532 0.83006 0.99952 0.0
C74 C 0.448 1.00362 0.03435 0.0
C75 C 0.55596 1.01265 0.03651 0.0
H76 H 0.99103 0.73506 0.53332 0.0
H77 H 0.66009 0.76053 0.48456 0.0
H78 H 0.63937 0.57037 0.48461 0.0
H79 H 0.71913 0.39517 0.49566 0.0
H80 H 0.05182 0.37977 0.54471 0.0
H81 H 0.06737 0.56772 0.54736 0.0
C82 C 0.91399 0.69957 0.5225 0.0
C83 C 0.82746 0.76186 0.50835 0.0
C84 C 0.90301 0.59157 0.52266 0.0
C85 C 0.72816 0.71423 0.49543 0.0
C86 C 0.71642 0.60554 0.49539 0.0
C87 C 0.79466 0.43329 0.50724 0.0
C88 C 0.88423 0.37275 0.51947 0.0
C89 C 0.80373 0.54307 0.50856 0.0
C90 C 0.98158 0.42357 0.5345 0.0
C91 C 0.99085 0.53146 0.53614 0.0
loop_
_geom_bond_atom_site_label_1
_geom_bond_atom_site_label_2
_geom_bond_distance
_geom_bond_site_symmetry_2
_ccdc_geom_bond_type
C0 O2 1.249 1_554 S
C0 O4 1.256 1_565 S
C1 O8 1.251 1_556 S
C1 O9 1.254 1_545 S
O2 C0 1.249 1_556 S
O2 Zn3 2.029 1_455 S
Zn3 O2 2.029 1_655 S
Zn3 O7 2.035 1_656 S
Zn3 O9 2.034 . S
Zn3 O10 2.028 . S
O4 C0 1.256 1_545 S
O4 Zn5 2.036 . S
Zn5 O4 2.036 . S
Zn5 O6 2.028 . S
Zn5 O8 2.027 1_455 S
Zn5 O11 2.035 1_454 S
O6 Zn5 2.028 . S
O6 C12 1.251 . S
O7 Zn3 2.035 1_454 S
O7 C12 1.254 1_565 S
O8 C1 1.251 1_554 S
O8 Zn5 2.027 1_655 S
O9 C1 1.254 1_565 S
O9 Zn3 2.034 . S
O10 Zn3 2.028 . S
O10 C13 1.249 . S
O11 Zn5 2.035 1_656 S
O11 C13 1.256 1_545 S
C12 O6 1.251 . S
C12 O7 1.254 1_545 S
C13 O10 1.249 . S
C13 O11 1.256 1_565 S
C14 O16 1.251 . S
C14 O18 1.254 1_455 S
C15 O22 1.249 . S
C15 O23 1.256 1_655 S
O16 C14 1.251 . S
O16 Zn17 2.028 . S
Zn17 O16 2.028 . S
Zn17 O21 2.035 . S
Zn17 O23 2.035 1_545 S
Zn17 O24 2.028 1_545 S
O18 C14 1.254 1_655 S
O18 Zn19 2.035 1_545 S
Zn19 O18 2.035 1_565 S
Zn19 O20 2.028 1_565 S
Zn19 O22 2.028 . S
Zn19 O25 2.035 . S
O20 Zn19 2.028 1_545 S
O20 C26 1.249 . S
O21 Zn17 2.035 . S
O21 C26 1.256 1_455 S
O22 C15 1.249 . S
O22 Zn19 2.028 . S
O23 C15 1.256 1_455 S
O23 Zn17 2.035 1_565 S
O24 Zn17 2.028 1_565 S
O24 C27 1.251 . S
O25 Zn19 2.035 . S
O25 C27 1.254 1_655 S
C26 O20 1.249 . S
C26 O21 1.256 1_655 S
C27 O24 1.251 . S
C27 O25 1.254 1_455 S
H28 C34 0.930 . S
H29 C37 0.930 . S
H30 C38 0.930 . S
H31 C39 0.930 . S
H32 C42 0.930 . S
H33 C43 0.930 . S
C34 H28 0.930 . S
C34 C35 1.355 1_665 S
C34 C36 1.415 . S
C35 C34 1.355 1_445 S
C35 C37 1.419 . S
C36 C34 1.415 . S
C36 C41 1.425 1_665 S
C36 C43 1.409 . S
C37 H29 0.930 . S
C37 C35 1.419 . S
C37 C38 1.362 . S
C38 H30 0.930 . S
C38 C37 1.362 . S
C38 C41 1.409 . S
C39 H31 0.930 . S
C39 C40 1.355 1_445 S
C39 C41 1.415 . S
C40 C39 1.355 1_665 S
C40 C42 1.419 . S
C41 C36 1.425 1_445 S
C41 C38 1.409 . S
C41 C39 1.415 . S
C42 H32 0.930 . S
C42 C40 1.419 . S
C42 C43 1.362 . S
C43 H33 0.930 . S
C43 C36 1.409 . S
C43 C42 1.362 . S
H44 C50 0.930 . S
H45 C53 0.930 . S
H46 C54 0.930 . S
H47 C55 0.930 . S
H48 C58 0.930 . S
H49 C59 0.930 . S
C50 H44 0.930 . S
C50 C51 1.355 1_465 S
C50 C52 1.415 . S
C51 C50 1.355 1_645 S
C51 C53 1.419 . S
C52 C50 1.415 . S
C52 C57 1.425 1_465 S
C52 C59 1.409 . S
C53 H45 0.930 . S
C53 C51 1.419 . S
C53 C54 1.362 . S
C54 H46 0.930 . S
C54 C53 1.362 . S
C54 C57 1.409 . S
C55 H47 0.930 . S
C55 C56 1.355 1_645 S
C55 C57 1.415 . S
C56 C55 1.355 1_465 S
C56 C58 1.419 . S
C57 C52 1.425 1_645 S
C57 C54 1.409 . S
C57 C55 1.415 . S
C58 H48 0.930 . S
C58 C56 1.419 . S
C58 C59 1.362 . S
C59 H49 0.930 . S
C59 C52 1.409 . S
C59 C58 1.362 . S
H60 C66 0.930 . S
H61 C69 0.930 . S
H62 C70 0.930 . S
H63 C71 0.930 . S
H64 C74 0.930 . S
H65 C75 0.930 . S
C66 H60 0.930 . S
C66 C67 1.355 1_544 S
C66 C68 1.415 . S
C67 C66 1.355 1_566 S
C67 C69 1.419 . S
C68 C66 1.415 . S
C68 C73 1.425 1_544 S
C68 C75 1.409 . S
C69 H61 0.930 . S
C69 C67 1.419 . S
C69 C70 1.362 . S
C70 H62 0.930 . S
C70 C69 1.362 . S
C70 C73 1.409 . S
C71 H63 0.930 . S
C71 C72 1.355 1_566 S
C71 C73 1.415 . S
C72 C71 1.355 1_544 S
C72 C74 1.419 . S
C73 C68 1.425 1_566 S
C73 C70 1.409 . S
C73 C71 1.415 . S
C74 H64 0.930 . S
C74 C72 1.419 . S
C74 C75 1.362 . S
C75 H65 0.930 . S
C75 C68 1.409 . S
C75 C74 1.362 . S
H76 C82 0.930 . S
H77 C85 0.930 . S
H78 C86 0.930 . S
H79 C87 0.930 . S
H80 C90 0.930 . S
H81 C91 0.930 . S
C82 H76 0.930 . S
C82 C83 1.356 . S
C82 C84 1.415 . S
C83 C82 1.356 . S
C83 C85 1.418 1_455 S
C84 C82 1.415 . S
C84 C89 1.425 1_455 S
C84 C91 1.409 . S
C85 H77 0.930 . S
C85 C83 1.418 1_655 S
C85 C86 1.362 . S
C86 H78 0.930 . S
C86 C85 1.362 . S
C86 C89 1.409 . S
C87 H79 0.930 . S
C87 C88 1.355 . S
C87 C89 1.415 . S
C88 C87 1.355 . S
C88 C90 1.418 1_655 S
C89 C84 1.425 1_655 S
C89 C86 1.409 . S
C89 C87 1.415 . S
C90 H80 0.930 . S
C90 C88 1.418 1_455 S
C90 C91 1.362 . S
C91 H81 0.930 . S
C91 C84 1.409 . S
C91 C90 1.362 . S
C35 C12 1.486 . S
C40 C27 1.488 1_655 S
C51 C13 1.491 1_545 S
C56 C26 1.501 1_465 S
C67 C1 1.488 1_565 S
C72 C0 1.488 1_545 S
C83 C15 1.486 1_455 S
C88 C14 1.486 1_655 S
