# Generated by pormake.
# Topology dmp, (4)-cn, num edge types: 1
# Building blocks:
#     Node 0, Type 0, BuildingBlock: CEKHIL_clean_sbu_0, # of connection points: 4
#     Node 1, Type 0, BuildingBlock: CEKHIL_clean_sbu_0, # of connection points: 4
#     Node 2, Type 0, BuildingBlock: CEKHIL_clean_sbu_0, # of connection points: 4
#     Node 3, Type 0, BuildingBlock: CEKHIL_clean_sbu_0, # of connection points: 4
#     Edge 4, Type (0, 0), BuildingBlock: OJICUG_clean_linker_0, # of connection points: 2
#     Edge 5, Type (0, 0), BuildingBlock: OJICUG_clean_linker_0, # of connection points: 2
#     Edge 6, Type (0, 0), BuildingBlock: OJICUG_clean_linker_0, # of connection points: 2
#     Edge 7, Type (0, 0), BuildingBlock: OJICUG_clean_linker_0, # of connection points: 2
#     Edge 8, Type (0, 0), BuildingBlock: OJICUG_clean_linker_0, # of connection points: 2
#     Edge 9, Type (0, 0), BuildingBlock: OJICUG_clean_linker_0, # of connection points: 2
#     Edge 10, Type (0, 0), BuildingBlock: OJICUG_clean_linker_0, # of connection points: 2
#     Edge 11, Type (0, 0), BuildingBlock: OJICUG_clean_linker_0, # of connection points: 2
# Relax obj value: 0.087
# Max RMSD: 0.195
# Mean RMSD: 0.195
data_MOF--net-dmp--node1-CEKHIL_clean_sbu_0--edge1-OJICUG_clean_linker_0
_symmetry_space_group_name_H-M    P1
_symmetry_Int_Tables_number       1
_symmetry_cell_setting            triclinic
loop_
_symmetry_equiv_pos_as_xyz
'x, y, z'
_cell_length_a     27.391097
_cell_length_b     14.447845
_cell_length_c     10.521096
_cell_angle_alpha  89.997131
_cell_angle_beta   89.860695
_cell_angle_gamma 91.349777
loop_
_atom_site_label
_atom_site_type_symbol
_atom_site_fract_x
_atom_site_fract_y
_atom_site_fract_z
_atom_type_partial_charge
Co0 Co 0.11615 0.23197 0.24475 0.0
O1 O 0.06792 0.32658 0.23973 0.0
O2 O 0.1104 0.28947 0.41022 0.0
C3 C 0.07063 0.12397 0.14079 0.0
O4 O 0.16832 0.13805 0.28564 0.0
Co5 Co 0.15912 0.15394 0.99313 0.0
O6 O 0.18267 0.0559 0.10839 0.0
C7 C 0.19715 0.33203 0.09627 0.0
C8 C 0.07703 0.34028 0.35921 0.0
C9 C 0.18803 0.07025 0.22706 0.0
O10 O 0.16937 0.32337 0.19466 0.0
O11 O 0.19593 0.2758 1.00208 0.0
O12 O 0.06474 0.13645 0.26213 0.0
O13 O 0.10047 0.18153 0.08559 0.0
Co14 Co 0.42963 0.71651 0.24476 0.0
O15 O 0.47845 0.62299 0.24 0.0
O16 O 0.43522 0.65901 0.41019 0.0
C17 C 0.47482 0.82554 0.1411 0.0
O18 O 0.37672 0.8091 0.28552 0.0
Co19 Co 0.38687 0.79349 0.99282 0.0
O20 O 0.36138 0.88998 0.10788 0.0
C21 C 0.34964 0.61467 0.09584 0.0
C22 C 0.46901 0.60891 0.35935 0.0
C23 C 0.35615 0.87572 0.22668 0.0
O24 O 0.3771 0.62397 0.19436 0.0
O25 O 0.35079 0.67085 1.00157 0.0
O26 O 0.48041 0.81316 0.26249 0.0
O27 O 0.44546 0.76739 0.0857 0.0
Co28 Co 0.92973 0.71732 0.76118 0.0
O29 O 0.97797 0.62273 0.76619 0.0
O30 O 0.93548 0.65981 0.59571 0.0
C31 C 0.97523 0.82534 0.86512 0.0
O32 O 0.87754 0.8112 0.72029 0.0
Co33 Co 0.88675 0.79532 0.01281 0.0
O34 O 0.86317 0.89334 0.89755 0.0
C35 C 0.84875 0.61722 0.90969 0.0
C36 C 0.96886 0.60903 0.64671 0.0
C37 C 0.85781 0.87899 0.77888 0.0
O38 O 0.87652 0.62589 0.81128 0.0
O39 O 0.84997 0.67344 0.00388 0.0
O40 O 0.98112 0.81287 0.74378 0.0
O41 O 0.9454 0.76777 0.92033 0.0
Co42 Co 0.61625 0.23277 0.76128 0.0
O43 O 0.56744 0.32632 0.76607 0.0
O44 O 0.61065 0.29027 0.59585 0.0
C45 C 0.57105 0.12376 0.86496 0.0
O46 O 0.66914 0.14015 0.7205 0.0
Co47 Co 0.65901 0.15576 0.0132 0.0
O48 O 0.68446 0.05925 0.89812 0.0
C49 C 0.69626 0.33457 0.91016 0.0
C50 C 0.57687 0.34039 0.6467 0.0
C51 C 0.68969 0.07351 0.77932 0.0
O52 O 0.66879 0.32528 0.81166 0.0
O53 O 0.69511 0.27838 0.00443 0.0
O54 O 0.56545 0.13615 0.74357 0.0
O55 O 0.60041 0.1819 0.92035 0.0
C56 C 0.31676 0.01982 0.29724 0.0
C57 C 0.31536 0.92307 0.28702 0.0
H58 H 0.2752 0.14354 0.2944 0.0
C59 C 0.27016 0.87529 0.29365 0.0
H60 H 0.35121 0.0579 0.28996 0.0
C61 C 0.2267 0.92416 0.29143 0.0
C62 C 0.22817 0.02115 0.28731 0.0
H63 H 0.26832 0.80063 0.28344 0.0
H64 H 0.19238 0.88635 0.27958 0.0
C65 C 0.27326 0.06862 0.29986 0.0
C66 C 0.2547 0.43974 0.98055 0.0
C67 C 0.23508 0.40637 0.09572 0.0
H68 H 0.30634 0.53202 0.89021 0.0
C69 C 0.25437 0.4402 0.21081 0.0
H70 H 0.24069 0.41458 0.89043 0.0
C71 C 0.29275 0.5056 0.21068 0.0
C72 C 0.31197 0.53981 0.09547 0.0
H73 H 0.24044 0.41485 0.30111 0.0
H74 H 0.30666 0.53077 0.30091 0.0
C75 C 0.29239 0.5066 0.98043 0.0
C76 C 0.72907 0.92938 0.70885 0.0
C77 C 0.73048 0.02613 0.71896 0.0
H78 H 0.77063 0.80566 0.71176 0.0
C79 C 0.77567 0.0739 0.71221 0.0
H80 H 0.69462 0.8913 0.71623 0.0
C81 C 0.81913 0.02505 0.71441 0.0
C82 C 0.81766 0.92805 0.71864 0.0
H83 H 0.77751 0.14858 0.72234 0.0
H84 H 0.85345 0.06286 0.72617 0.0
C85 C 0.77257 0.88058 0.70621 0.0
C86 C 0.79153 0.50902 0.79517 0.0
C87 C 0.81082 0.54285 0.91025 0.0
H88 H 0.73924 0.41845 0.70508 0.0
C89 C 0.79121 0.50948 0.02543 0.0
H90 H 0.80546 0.53438 0.70486 0.0
C91 C 0.75352 0.44262 0.02556 0.0
C92 C 0.73393 0.40941 0.91052 0.0
H93 H 0.80522 0.53464 0.11555 0.0
H94 H 0.73957 0.4172 0.11578 0.0
C95 C 0.75315 0.44363 0.79531 0.0
C96 C 1.01466 -0.01538 0.1335 0.0
C97 C 0.04632 0.04733 0.07067 0.0
H98 H 0.9673 0.86528 0.11754 0.0
C99 C 0.05437 0.03668 0.93949 0.0
H100 H 1.00773 -0.00889 0.23447 0.0
C101 C 0.03119 0.9647 0.87241 0.0
C102 C 0.99953 0.90199 0.93524 0.0
H103 H 0.07856 0.08404 0.88837 0.0
H104 H 0.03812 0.95821 0.77143 0.0
C105 C 0.99149 0.91264 0.06642 0.0
C106 C 0.55419 0.03679 0.0665 0.0
C107 C 0.54659 0.04714 0.93517 0.0
H108 H 0.53735 0.95874 0.23478 0.0
C109 C 0.51511 -0.0157 0.87235 0.0
H110 H 0.57821 0.08426 0.11763 0.0
C111 C 0.49167 0.91252 0.93957 0.0
C112 C 0.49927 0.90218 0.07089 0.0
H113 H 0.50851 -0.00943 0.77128 0.0
H114 H 0.46765 0.86505 0.88844 0.0
C115 C 0.53075 0.96501 0.13371 0.0
C116 C 0.0315 0.48589 0.63285 0.0
C117 C 0.99615 0.53987 0.57294 0.0
H118 H 0.08485 0.38069 0.61258 0.0
C119 C 0.98788 0.52795 0.4423 0.0
H120 H 0.03879 0.49344 0.7335 0.0
C121 C 1.01439 0.46342 0.37307 0.0
C122 C 0.04974 0.40944 0.43298 0.0
H123 H 0.96104 0.56862 0.39334 0.0
H124 H 1.0071 0.45587 0.27242 0.0
C125 C 0.05801 0.42136 0.56362 0.0
C126 C 0.48724 0.52691 0.56333 0.0
C127 C 0.49628 0.5399 0.4331 0.0
H128 H 0.50575 0.45395 0.73284 0.0
C129 C 0.53226 0.48696 0.37355 0.0
H130 H 0.45988 0.56672 0.612 0.0
C131 C 0.55864 0.4224 0.44273 0.0
C132 C 0.54961 0.40941 0.57296 0.0
H133 H 0.54014 0.49536 0.27322 0.0
H134 H 0.58601 0.38259 0.39406 0.0
C135 C 0.51363 0.46235 0.63251 0.0
loop_
_geom_bond_atom_site_label_1
_geom_bond_atom_site_label_2
_geom_bond_distance
_geom_bond_site_symmetry_2
_ccdc_geom_bond_type
Co0 O1 2.216 . S
Co0 O2 2.091 . S
Co0 O4 2.004 . S
Co0 O10 2.021 . S
Co0 O12 2.137 . S
Co0 O13 2.244 . S
O1 Co0 2.216 . S
O1 C8 1.247 . S
O2 Co0 2.091 . S
O2 C8 1.261 . S
C3 O12 1.247 . S
C3 O13 1.272 . S
O4 Co0 2.004 . S
O4 C9 1.259 . S
Co5 O6 2.061 . S
Co5 O11 2.052 . S
Co5 O13 2.135 . S
O6 Co5 2.061 . S
O6 C9 1.235 . S
C7 O10 1.238 . S
C7 O11 1.241 . S
C8 O1 1.247 . S
C8 O2 1.261 . S
C9 O4 1.259 . S
C9 O6 1.235 . S
O10 Co0 2.021 . S
O10 C7 1.238 . S
O11 Co5 2.052 . S
O11 C7 1.241 . S
O12 Co0 2.137 . S
O12 C3 1.247 . S
O13 Co0 2.244 . S
O13 C3 1.272 . S
O13 Co5 2.135 . S
Co14 O15 2.216 . S
Co14 O16 2.091 . S
Co14 O18 2.004 . S
Co14 O24 2.021 . S
Co14 O26 2.137 . S
Co14 O27 2.244 . S
O15 Co14 2.216 . S
O15 C22 1.247 . S
O16 Co14 2.091 . S
O16 C22 1.261 . S
C17 O26 1.247 . S
C17 O27 1.272 . S
O18 Co14 2.004 . S
O18 C23 1.259 . S
Co19 O20 2.061 . S
Co19 O25 2.052 . S
Co19 O27 2.135 . S
O20 Co19 2.061 . S
O20 C23 1.235 . S
C21 O24 1.238 . S
C21 O25 1.241 . S
C22 O15 1.247 . S
C22 O16 1.261 . S
C23 O18 1.259 . S
C23 O20 1.235 . S
O24 Co14 2.021 . S
O24 C21 1.238 . S
O25 Co19 2.052 . S
O25 C21 1.241 . S
O26 Co14 2.137 . S
O26 C17 1.247 . S
O27 Co14 2.244 . S
O27 C17 1.272 . S
O27 Co19 2.135 . S
Co28 O29 2.216 . S
Co28 O30 2.091 . S
Co28 O32 2.004 . S
Co28 O38 2.021 . S
Co28 O40 2.137 . S
Co28 O41 2.244 . S
O29 Co28 2.216 . S
O29 C36 1.247 . S
O30 Co28 2.091 . S
O30 C36 1.261 . S
C31 O40 1.247 . S
C31 O41 1.272 . S
O32 Co28 2.004 . S
O32 C37 1.259 . S
Co33 O34 2.061 . S
Co33 O39 2.052 . S
Co33 O41 2.135 . S
O34 Co33 2.061 . S
O34 C37 1.235 . S
C35 O38 1.238 . S
C35 O39 1.241 . S
C36 O29 1.247 . S
C36 O30 1.261 . S
C37 O32 1.259 . S
C37 O34 1.235 . S
O38 Co28 2.021 . S
O38 C35 1.238 . S
O39 Co33 2.052 . S
O39 C35 1.241 . S
O40 Co28 2.137 . S
O40 C31 1.247 . S
O41 Co28 2.244 . S
O41 C31 1.272 . S
O41 Co33 2.135 . S
Co42 O43 2.216 . S
Co42 O44 2.091 . S
Co42 O46 2.004 . S
Co42 O52 2.021 . S
Co42 O54 2.137 . S
Co42 O55 2.244 . S
O43 Co42 2.216 . S
O43 C50 1.247 . S
O44 Co42 2.091 . S
O44 C50 1.261 . S
C45 O54 1.247 . S
C45 O55 1.272 . S
O46 Co42 2.004 . S
O46 C51 1.259 . S
Co47 O48 2.061 . S
Co47 O53 2.052 . S
Co47 O55 2.135 . S
O48 Co47 2.061 . S
O48 C51 1.235 . S
C49 O52 1.238 . S
C49 O53 1.241 . S
C50 O43 1.247 . S
C50 O44 1.261 . S
C51 O46 1.259 . S
C51 O48 1.235 . S
O52 Co42 2.021 . S
O52 C49 1.238 . S
O53 Co47 2.052 . S
O53 C49 1.241 . S
O54 Co42 2.137 . S
O54 C45 1.247 . S
O55 Co42 2.244 . S
O55 C45 1.272 . S
O55 Co47 2.135 . S
C56 C57 1.387 . S
C56 H60 0.950 . S
C56 C65 1.390 1_565 S
C57 C56 1.387 . S
C57 C59 1.387 . S
H58 C65 0.950 . S
C59 C57 1.387 . S
C59 C61 1.390 1_565 S
C59 H63 0.950 . S
H60 C56 0.950 . S
C61 C59 1.390 1_545 S
C61 C62 1.387 . S
C61 H64 0.950 . S
C62 C61 1.387 . S
C62 C65 1.387 . S
H63 C59 0.950 . S
H64 C61 0.950 . S
C65 C56 1.390 1_545 S
C65 H58 0.950 . S
C65 C62 1.387 . S
C66 C67 1.387 . S
C66 H70 0.950 1_554 S
C66 C75 1.390 . S
C67 C66 1.387 . S
C67 C69 1.387 . S
H68 C75 0.950 1_556 S
C69 C67 1.387 . S
C69 C71 1.390 . S
C69 H73 0.950 . S
H70 C66 0.950 1_556 S
C71 C69 1.390 . S
C71 C72 1.387 . S
C71 H74 0.950 . S
C72 C71 1.387 . S
C72 C75 1.387 . S
H73 C69 0.950 . S
H74 C71 0.950 . S
C75 C66 1.390 . S
C75 H68 0.950 1_554 S
C75 C72 1.387 . S
C76 C77 1.387 . S
C76 H80 0.950 . S
C76 C85 1.390 1_545 S
C77 C76 1.387 . S
C77 C79 1.387 . S
H78 C85 0.950 . S
C79 C77 1.387 . S
C79 C81 1.390 1_545 S
C79 H83 0.950 . S
H80 C76 0.950 . S
C81 C79 1.390 1_565 S
C81 C82 1.387 . S
C81 H84 0.950 . S
C82 C81 1.387 . S
C82 C85 1.387 . S
H83 C79 0.950 . S
H84 C81 0.950 . S
C85 C76 1.390 1_565 S
C85 H78 0.950 . S
C85 C82 1.387 . S
C86 C87 1.387 . S
C86 H90 0.950 . S
C86 C95 1.390 . S
C87 C86 1.387 . S
C87 C89 1.387 . S
H88 C95 0.950 . S
C89 C87 1.387 . S
C89 C91 1.390 . S
C89 H93 0.950 1_556 S
H90 C86 0.950 . S
C91 C89 1.390 . S
C91 C92 1.387 . S
C91 H94 0.950 1_556 S
C92 C91 1.387 . S
C92 C95 1.387 . S
H93 C89 0.950 1_554 S
H94 C91 0.950 1_554 S
C95 C86 1.390 . S
C95 H88 0.950 . S
C95 C92 1.387 . S
C96 C97 1.387 . S
C96 H100 0.950 . S
C96 C105 1.390 1_445 S
C97 C96 1.387 . S
C97 C99 1.387 1_554 S
H98 C105 0.950 . S
C99 C97 1.387 1_556 S
C99 C101 1.390 1_445 S
C99 H103 0.950 . S
H100 C96 0.950 . S
C101 C99 1.390 1_665 S
C101 C102 1.387 . S
C101 H104 0.950 . S
C102 C101 1.387 . S
C102 C105 1.387 1_556 S
H103 C99 0.950 . S
H104 C101 0.950 . S
C105 C96 1.390 1_665 S
C105 H98 0.950 . S
C105 C102 1.387 1_554 S
C106 C107 1.387 1_554 S
C106 H110 0.950 . S
C106 C115 1.390 . S
C107 C106 1.387 1_556 S
C107 C109 1.387 1_545 S
H108 C115 0.950 . S
C109 C107 1.387 1_565 S
C109 C111 1.390 . S
C109 H113 0.950 . S
H110 C106 0.950 . S
C111 C109 1.390 . S
C111 C112 1.387 1_556 S
C111 H114 0.950 . S
C112 C111 1.387 1_554 S
C112 C115 1.387 1_565 S
H113 C109 0.950 . S
H114 C111 0.950 . S
C115 C106 1.390 . S
C115 H108 0.950 . S
C115 C112 1.387 1_545 S
C116 C117 1.387 . S
C116 H120 0.950 . S
C116 C125 1.379 1_655 S
C117 C116 1.387 . S
C117 C119 1.397 . S
H118 C125 0.951 . S
C119 C117 1.397 . S
C119 C121 1.379 1_655 S
C119 H123 0.951 . S
H120 C116 0.950 . S
C121 C119 1.379 1_455 S
C121 C122 1.387 . S
C121 H124 0.950 . S
C122 C121 1.387 . S
C122 C125 1.397 . S
H123 C119 0.951 . S
H124 C121 0.950 . S
C125 C116 1.379 1_455 S
C125 H118 0.951 . S
C125 C122 1.397 . S
C126 C127 1.387 . S
C126 H130 0.950 . S
C126 C135 1.390 . S
C127 C126 1.387 . S
C127 C129 1.387 . S
H128 C135 0.950 . S
C129 C127 1.387 . S
C129 C131 1.390 . S
C129 H133 0.950 . S
H130 C126 0.950 . S
C131 C129 1.390 . S
C131 C132 1.387 . S
C131 H134 0.950 . S
C132 C131 1.387 . S
C132 C135 1.387 . S
H133 C129 0.950 . S
H134 C131 0.950 . S
C135 C126 1.390 . S
C135 H128 0.950 . S
C135 C132 1.387 . S
C57 C23 1.205 . S
C62 C9 1.205 . S
C67 C7 1.136 . S
C72 C21 1.136 . S
C77 C51 1.207 . S
C82 C37 1.207 . S
C87 C35 1.136 . S
C92 C49 1.136 . S
C97 C3 1.549 . S
C102 C31 1.549 . S
C107 C45 1.551 . S
C112 C17 1.551 . S
C117 C36 1.571 . S
C122 C8 1.571 . S
C127 C22 1.571 . S
C132 C50 1.571 . S
