# Generated by pormake.
# Topology lon, (4)-cn, num edge types: 1
# Building blocks:
#     Node 0, Type 0, BuildingBlock: NAHDIM_clean_sbu_0, # of connection points: 4
#     Node 1, Type 0, BuildingBlock: NAHDIM_clean_sbu_0, # of connection points: 4
#     Node 2, Type 0, BuildingBlock: NAHDIM_clean_sbu_0, # of connection points: 4
#     Node 3, Type 0, BuildingBlock: NAHDIM_clean_sbu_0, # of connection points: 4
#     Edge 4, Type (0, 0), BuildingBlock: XIVTED_clean_linker_0, # of connection points: 2
#     Edge 5, Type (0, 0), BuildingBlock: XIVTED_clean_linker_0, # of connection points: 2
#     Edge 6, Type (0, 0), BuildingBlock: XIVTED_clean_linker_0, # of connection points: 2
#     Edge 7, Type (0, 0), BuildingBlock: XIVTED_clean_linker_0, # of connection points: 2
#     Edge 8, Type (0, 0), BuildingBlock: XIVTED_clean_linker_0, # of connection points: 2
#     Edge 9, Type (0, 0), BuildingBlock: XIVTED_clean_linker_0, # of connection points: 2
#     Edge 10, Type (0, 0), BuildingBlock: XIVTED_clean_linker_0, # of connection points: 2
#     Edge 11, Type (0, 0), BuildingBlock: XIVTED_clean_linker_0, # of connection points: 2
# Relax obj value: 0.020
# Max RMSD: 0.061
# Mean RMSD: 0.060
data_MOF--net-lon--node1-NAHDIM_clean_sbu_0--edge1-XIVTED_clean_linker_0
_symmetry_space_group_name_H-M    P1
_symmetry_Int_Tables_number       1
_symmetry_cell_setting            triclinic
loop_
_symmetry_equiv_pos_as_xyz
'x, y, z'
_cell_length_a     25.218607
_cell_length_b     24.973611
_cell_length_c     41.32271
_cell_angle_alpha  88.154439
_cell_angle_beta   90.378803
_cell_angle_gamma 119.9602
loop_
_atom_site_label
_atom_site_type_symbol
_atom_site_fract_x
_atom_site_fract_y
_atom_site_fract_z
_atom_type_partial_charge
C0 C 0.37613 0.61353 0.01925 0.0
O1 O 0.3427 0.62764 0.00017 0.0
O2 O 0.37192 0.75294 0.04881 0.0
Zn3 Zn 0.33184 0.6642 0.06549 0.0
O4 O 0.24598 0.6144 0.04878 0.0
C5 C 0.3299 0.70279 0.13049 0.0
O6 O 0.32827 0.74865 0.11493 0.0
O7 O 0.37957 0.62572 0.04908 0.0
C8 C 0.2021 0.62322 0.05597 0.0
O9 O 0.21178 0.66727 0.07576 0.0
C10 C 0.35285 0.77006 0.02423 0.0
O11 O 0.30484 0.72878 0.00872 0.0
O12 O 0.33129 0.66097 0.11437 0.0
C13 C 0.78556 0.41336 0.54189 0.0
O14 O 0.7553 0.44331 0.54413 0.0
O15 O 0.62508 0.34939 0.54853 0.0
Zn16 Zn 0.67125 0.30723 0.56465 0.0
O17 O 0.63563 0.22345 0.5454 0.0
C18 C 0.68396 0.34644 0.63029 0.0
O19 O 0.7012 0.4001 0.61553 0.0
O20 O 0.75901 0.35609 0.54968 0.0
C21 C 0.58525 0.17708 0.55476 0.0
O22 O 0.55393 0.18324 0.57819 0.0
C23 C 0.5782 0.34353 0.56316 0.0
O24 O 0.5584 0.30846 0.58968 0.0
O25 O 0.66844 0.29928 0.61341 0.0
C26 C 0.3646 0.56929 0.48208 0.0
O27 O 0.32538 0.57455 0.50058 0.0
O28 O 0.2449 0.59322 0.45197 0.0
Zn29 Zn 0.33342 0.63975 0.43777 0.0
O30 O 0.37249 0.72305 0.45794 0.0
C31 C 0.33365 0.69066 0.37372 0.0
O32 O 0.32669 0.73094 0.39015 0.0
O33 O 0.37572 0.5937 0.45367 0.0
C34 C 0.42547 0.76751 0.45059 0.0
O35 O 0.45826 0.75994 0.42855 0.0
C36 C 0.21618 0.62257 0.45513 0.0
O37 O 0.24458 0.68229 0.44831 0.0
O38 O 0.33825 0.64814 0.38896 0.0
C39 C 0.79108 0.37397 0.95334 0.0
O40 O 0.78132 0.32967 0.9337 0.0
O41 O 0.62186 0.25073 0.95433 0.0
Zn42 Zn 0.66518 0.33988 0.93861 0.0
O43 O 0.61768 0.37973 0.95359 0.0
C44 C 0.67271 0.30446 0.87309 0.0
O45 O 0.66858 0.25517 0.88791 0.0
O46 O 0.74842 0.38567 0.95867 0.0
C47 C 0.58485 0.39254 0.93506 0.0
O48 O 0.58011 0.37851 0.90441 0.0
C49 C 0.56799 0.2138 0.94481 0.0
O50 O 0.54157 0.23453 0.92448 0.0
O51 O 0.67286 0.34642 0.88979 0.0
H52 H 0.33596 0.61621 0.17047 0.0
H53 H 0.32629 0.77616 0.33364 0.0
H54 H 0.32582 0.78364 0.17225 0.0
H55 H 0.34286 0.61234 0.33202 0.0
H56 H 0.32577 0.77941 0.27452 0.0
H57 H 0.33788 0.61355 0.22962 0.0
C58 C 0.3341 0.65242 0.18327 0.0
C59 C 0.33072 0.70024 0.16633 0.0
C60 C 0.3296 0.74278 0.28708 0.0
C61 C 0.33294 0.69747 0.23412 0.0
C62 C 0.32992 0.74089 0.32088 0.0
C63 C 0.33458 0.69386 0.33787 0.0
C64 C 0.33386 0.69725 0.27006 0.0
C65 C 0.33918 0.64946 0.31997 0.0
C66 C 0.33526 0.65089 0.21707 0.0
C67 C 0.32846 0.74589 0.18426 0.0
N68 N 0.33861 0.6522 0.28707 0.0
N69 N 0.32958 0.74334 0.21714 0.0
H70 H 0.7066 0.43606 0.67355 0.0
H71 H 0.66396 0.21958 0.82986 0.0
H72 H 0.65862 0.24463 0.66868 0.0
H73 H 0.68778 0.40277 0.83468 0.0
H74 H 0.66704 0.22967 0.77079 0.0
H75 H 0.70478 0.42637 0.7326 0.0
C76 C 0.69569 0.39196 0.68488 0.0
C77 C 0.68272 0.34107 0.6661 0.0
C78 C 0.6716 0.26767 0.78477 0.0
C79 C 0.68072 0.32972 0.73378 0.0
C80 C 0.66998 0.262 0.81852 0.0
C81 C 0.6756 0.3104 0.83729 0.0
C82 C 0.67917 0.32224 0.76961 0.0
C83 C 0.6832 0.36423 0.82121 0.0
C84 C 0.6946 0.38646 0.71862 0.0
C85 C 0.66884 0.28508 0.68216 0.0
N86 N 0.68482 0.36871 0.78832 0.0
N87 N 0.66831 0.28095 0.71505 0.0
H88 H 0.37662 0.57946 0.957 0.0
H89 H 0.58527 0.42797 0.99711 0.0
H90 H 0.44721 0.5757 0.05202 0.0
H91 H 0.51363 0.43008 0.90217 0.0
H92 H 0.53514 0.48227 0.01757 0.0
H93 H 0.42706 0.5255 0.93636 0.0
C94 C 0.40282 0.56741 0.97354 0.0
C95 C 0.40764 0.58212 0.00632 0.0
C96 C 0.53032 0.47084 0.99226 0.0
C97 C 0.46544 0.52015 0.98281 0.0
C98 C 0.55892 0.43976 0.98054 0.0
C99 C 0.55369 0.42443 0.94784 0.0
C100 C 0.4962 0.48683 0.97116 0.0
C101 C 0.51892 0.44094 0.92755 0.0
C102 C 0.43157 0.53652 0.96172 0.0
C103 C 0.44222 0.56531 0.02658 0.0
N104 N 0.49155 0.47129 0.93954 0.0
N105 N 0.46973 0.53519 0.0145 0.0
H106 H 0.14466 0.50043 0.47371 0.0
H107 H 0.8564 0.53503 0.52238 0.0
H108 H 0.14226 0.67193 0.46456 0.0
H109 H 0.86 0.3643 0.53302 0.0
H110 H 0.96103 0.58597 0.50095 0.0
H111 H 0.03993 0.44948 0.495 0.0
C112 C 0.12209 0.52736 0.4761 0.0
C113 C 0.15232 0.59057 0.46734 0.0
C114 C 0.93894 0.53737 0.508 0.0
C115 C 0.03245 0.53256 0.49178 0.0
C116 C 0.87919 0.50826 0.52027 0.0
C117 C 0.84933 0.44528 0.52951 0.0
C118 C 0.9691 0.50328 0.5049 0.0
C119 C 0.88118 0.41293 0.52621 0.0
C120 C 0.0623 0.49825 0.48831 0.0
C121 C 0.12079 0.62313 0.47101 0.0
N122 N 0.93926 0.44228 0.51415 0.0
N123 N 0.06263 0.59377 0.48296 0.0
H124 H 0.45611 0.1208 0.92603 0.0
H125 H 0.45825 0.86595 0.04783 0.0
H126 H 0.60597 0.15745 0.98984 0.0
H127 H 0.3203 0.824 0.97516 0.0
H128 H 0.51059 0.97398 0.02867 0.0
H129 H 0.40334 0.0129 0.94545 0.0
C130 C 0.47795 0.10621 0.94413 0.0
C131 C 0.5356 0.14829 0.95631 0.0
C132 C 0.4689 0.94115 0.0169 0.0
C133 C 0.4753 0.02474 0.9787 0.0
C134 C 0.4389 0.87943 0.02786 0.0
C135 C 0.3848 0.83576 0.01305 0.0
C136 C 0.44453 0.95953 0.99103 0.0
C137 C 0.36193 0.85598 0.98727 0.0
C138 C 0.44779 0.04453 0.95518 0.0
C139 C 0.56163 0.12665 0.97973 0.0
N140 N 0.39186 0.91639 0.97711 0.0
N141 N 0.53125 0.06643 0.99019 0.0
H142 H 0.60352 0.41508 0.50747 0.0
H143 H 0.34579 0.50553 0.53996 0.0
H144 H 0.48147 0.34743 0.59039 0.0
H145 H 0.45371 0.55598 0.45192 0.0
H146 H 0.39732 0.45022 0.55965 0.0
H147 H 0.55149 0.46976 0.48754 0.0
C148 C 0.56575 0.41166 0.52149 0.0
C149 C 0.54682 0.37653 0.55066 0.0
C150 C 0.40969 0.47332 0.536 0.0
C151 C 0.48711 0.43925 0.52798 0.0
C152 C 0.38033 0.50502 0.52475 0.0
C153 C 0.39541 0.53547 0.49422 0.0
C154 C 0.45473 0.47222 0.51668 0.0
C155 C 0.44053 0.53311 0.47559 0.0
C156 C 0.53601 0.44288 0.51007 0.0
C157 C 0.49759 0.37386 0.56777 0.0
N158 N 0.46864 0.50214 0.48714 0.0
N159 N 0.46954 0.40488 0.55621 0.0
H160 H 0.16767 0.52951 0.01372 0.0
H161 H 0.82516 0.4669 0.99608 0.0
H162 H 0.09793 0.63006 0.06474 0.0
H163 H 0.89387 0.36391 0.94655 0.0
H164 H 0.92456 0.52678 0.02159 0.0
H165 H 0.06761 0.46812 0.98913 0.0
C166 C 0.13129 0.53866 0.01982 0.0
C167 C 0.14128 0.58511 0.04135 0.0
C168 C 0.91793 0.49107 0.00517 0.0
C169 C 0.02642 0.51486 0.01315 0.0
C170 C 0.86113 0.45681 0.99056 0.0
C171 C 0.85111 0.41027 0.96908 0.0
C172 C 0.96525 0.47886 0.99828 0.0
C173 C 0.89948 0.39932 0.96292 0.0
C174 C 0.07412 0.50353 0.00573 0.0
C175 C 0.09237 0.59479 0.04828 0.0
N176 N 0.95445 0.4334 0.97742 0.0
N177 N 0.03709 0.56002 0.0342 0.0
H178 H 0.64047 0.1483 0.50689 0.0
H179 H 0.36941 0.79726 0.49749 0.0
H180 H 0.47825 0.0686 0.56746 0.0
H181 H 0.53506 0.87437 0.43979 0.0
H182 H 0.40826 0.89652 0.52303 0.0
H183 H 0.60228 0.04872 0.48171 0.0
C184 C 0.59678 0.10987 0.51492 0.0
C185 C 0.56249 0.11688 0.53936 0.0
C186 C 0.43619 0.89177 0.50482 0.0
C187 C 0.51847 0.00257 0.51054 0.0
C188 C 0.41404 0.83505 0.49019 0.0
C189 C 0.44906 0.82742 0.46643 0.0
C190 C 0.49379 0.94146 0.49563 0.0
C191 C 0.50651 0.8781 0.45799 0.0
C192 C 0.57503 0.05296 0.50052 0.0
C193 C 0.50624 0.06538 0.54874 0.0
N194 N 0.52704 0.93299 0.47255 0.0
N195 N 0.48599 0.01044 0.53429 0.0
loop_
_geom_bond_atom_site_label_1
_geom_bond_atom_site_label_2
_geom_bond_distance
_geom_bond_site_symmetry_2
_ccdc_geom_bond_type
C0 O1 1.160 . S
C0 O7 1.185 . S
O1 C0 1.160 . S
O2 Zn3 1.899 . S
O2 C10 1.284 . S
Zn3 O2 1.899 . S
Zn3 O4 2.032 . S
Zn3 O7 2.086 . S
Zn3 O12 1.977 . S
O4 Zn3 2.032 . S
O4 C8 1.278 . S
C5 O6 1.203 . S
C5 O12 1.267 . S
O6 C5 1.203 . S
O7 C0 1.185 . S
O7 Zn3 2.086 . S
C8 O4 1.278 . S
C8 O9 1.211 . S
O9 C8 1.211 . S
C10 O2 1.284 . S
C10 O11 1.273 . S
O11 C10 1.273 . S
O12 Zn3 1.977 . S
O12 C5 1.267 . S
C13 O14 1.160 . S
C13 O20 1.185 . S
O14 C13 1.160 . S
O15 Zn16 1.899 . S
O15 C23 1.284 . S
Zn16 O15 1.899 . S
Zn16 O17 2.032 . S
Zn16 O20 2.086 . S
Zn16 O25 1.977 . S
O17 Zn16 2.032 . S
O17 C21 1.278 . S
C18 O19 1.203 . S
C18 O25 1.267 . S
O19 C18 1.203 . S
O20 C13 1.185 . S
O20 Zn16 2.086 . S
C21 O17 1.278 . S
C21 O22 1.211 . S
O22 C21 1.211 . S
C23 O15 1.284 . S
C23 O24 1.273 . S
O24 C23 1.273 . S
O25 Zn16 1.977 . S
O25 C18 1.267 . S
C26 O27 1.160 . S
C26 O33 1.185 . S
O27 C26 1.160 . S
O28 Zn29 1.899 . S
O28 C36 1.284 . S
Zn29 O28 1.899 . S
Zn29 O30 2.032 . S
Zn29 O33 2.086 . S
Zn29 O38 1.977 . S
O30 Zn29 2.032 . S
O30 C34 1.278 . S
C31 O32 1.203 . S
C31 O38 1.267 . S
O32 C31 1.203 . S
O33 C26 1.185 . S
O33 Zn29 2.086 . S
C34 O30 1.278 . S
C34 O35 1.211 . S
O35 C34 1.211 . S
C36 O28 1.284 . S
C36 O37 1.273 . S
O37 C36 1.273 . S
O38 Zn29 1.977 . S
O38 C31 1.267 . S
C39 O40 1.160 . S
C39 O46 1.185 . S
O40 C39 1.160 . S
O41 Zn42 1.899 . S
O41 C49 1.284 . S
Zn42 O41 1.899 . S
Zn42 O43 2.032 . S
Zn42 O46 2.086 . S
Zn42 O51 1.977 . S
O43 Zn42 2.032 . S
O43 C47 1.278 . S
C44 O45 1.203 . S
C44 O51 1.267 . S
O45 C44 1.203 . S
O46 C39 1.185 . S
O46 Zn42 2.086 . S
C47 O43 1.278 . S
C47 O48 1.211 . S
O48 C47 1.211 . S
C49 O41 1.284 . S
C49 O50 1.273 . S
O50 C49 1.273 . S
O51 Zn42 1.977 . S
O51 C44 1.267 . S
H52 C58 0.930 . S
H53 C62 0.930 . S
H54 C67 0.929 . S
H55 C65 0.929 . S
H56 C60 0.929 . S
H57 C66 0.929 . S
C58 H52 0.930 . S
C58 C59 1.367 . S
C58 C66 1.378 . S
C59 C58 1.367 . S
C59 C67 1.433 . S
C60 H56 0.929 . S
C60 C62 1.378 . S
C60 C64 1.350 . S
C61 C64 1.463 . S
C61 C66 1.350 . S
C61 N69 1.427 . S
C62 H53 0.930 . S
C62 C60 1.378 . S
C62 C63 1.367 . S
C63 C62 1.367 . S
C63 C65 1.433 . S
C64 C60 1.350 . S
C64 C61 1.463 . S
C64 N68 1.427 . S
C65 H55 0.929 . S
C65 C63 1.433 . S
C65 N68 1.384 . S
C66 H57 0.929 . S
C66 C58 1.378 . S
C66 C61 1.350 . S
C67 H54 0.929 . S
C67 C59 1.433 . S
C67 N69 1.384 . S
N68 C64 1.427 . S
N68 C65 1.384 . S
N69 C61 1.427 . S
N69 C67 1.384 . S
H70 C76 0.930 . S
H71 C80 0.930 . S
H72 C85 0.929 . S
H73 C83 0.929 . S
H74 C78 0.929 . S
H75 C84 0.929 . S
C76 H70 0.930 . S
C76 C77 1.367 . S
C76 C84 1.378 . S
C77 C76 1.367 . S
C77 C85 1.433 . S
C78 H74 0.929 . S
C78 C80 1.378 . S
C78 C82 1.350 . S
C79 C82 1.463 . S
C79 C84 1.350 . S
C79 N87 1.427 . S
C80 H71 0.930 . S
C80 C78 1.378 . S
C80 C81 1.367 . S
C81 C80 1.367 . S
C81 C83 1.433 . S
C82 C78 1.350 . S
C82 C79 1.463 . S
C82 N86 1.427 . S
C83 H73 0.929 . S
C83 C81 1.433 . S
C83 N86 1.384 . S
C84 H75 0.929 . S
C84 C76 1.378 . S
C84 C79 1.350 . S
C85 H72 0.929 . S
C85 C77 1.433 . S
C85 N87 1.384 . S
N86 C82 1.427 . S
N86 C83 1.384 . S
N87 C79 1.427 . S
N87 C85 1.384 . S
H88 C94 0.930 . S
H89 C98 0.930 . S
H90 C103 0.929 . S
H91 C101 0.929 . S
H92 C96 0.929 . S
H93 C102 0.929 . S
C94 H88 0.930 . S
C94 C95 1.367 1_556 S
C94 C102 1.378 . S
C95 C94 1.367 1_554 S
C95 C103 1.433 . S
C96 H92 0.929 . S
C96 C98 1.378 . S
C96 C100 1.350 1_554 S
C97 C100 1.472 . S
C97 C102 1.373 . S
C97 N105 1.393 1_556 S
C98 H89 0.930 . S
C98 C96 1.378 . S
C98 C99 1.367 1_554 S
C99 C98 1.367 1_556 S
C99 C101 1.433 . S
C100 C96 1.350 1_556 S
C100 C97 1.472 . S
C100 N104 1.427 . S
C101 H91 0.929 . S
C101 C99 1.433 . S
C101 N104 1.384 . S
C102 H93 0.929 . S
C102 C94 1.378 . S
C102 C97 1.373 . S
C103 H90 0.929 . S
C103 C95 1.433 . S
C103 N105 1.384 . S
N104 C100 1.427 . S
N104 C101 1.384 . S
N105 C97 1.393 1_554 S
N105 C103 1.384 . S
H106 C112 0.930 . S
H107 C116 0.930 . S
H108 C121 0.929 . S
H109 C119 0.929 . S
H110 C114 0.929 . S
H111 C120 0.929 . S
C112 H106 0.930 . S
C112 C113 1.367 . S
C112 C120 1.378 . S
C113 C112 1.367 . S
C113 C121 1.433 . S
C114 H110 0.929 . S
C114 C116 1.378 . S
C114 C118 1.350 . S
C115 C118 1.463 1_455 S
C115 C120 1.350 . S
C115 N123 1.427 . S
C116 H107 0.930 . S
C116 C114 1.378 . S
C116 C117 1.367 . S
C117 C116 1.367 . S
C117 C119 1.433 . S
C118 C114 1.350 . S
C118 C115 1.463 1_655 S
C118 N122 1.427 . S
C119 H109 0.929 . S
C119 C117 1.433 . S
C119 N122 1.384 . S
C120 H111 0.929 . S
C120 C112 1.378 . S
C120 C115 1.350 . S
C121 H108 0.929 . S
C121 C113 1.433 . S
C121 N123 1.384 . S
N122 C118 1.427 . S
N122 C119 1.384 . S
N123 C115 1.427 . S
N123 C121 1.384 . S
H124 C130 0.930 1_554 S
H125 C134 0.930 1_556 S
H126 C139 0.929 . S
H127 C137 0.929 . S
H128 C132 0.929 . S
H129 C138 0.929 . S
C130 H124 0.930 1_556 S
C130 C131 1.367 . S
C130 C138 1.378 1_556 S
C131 C130 1.367 . S
C131 C139 1.433 . S
C132 H128 0.929 . S
C132 C134 1.378 1_556 S
C132 C136 1.350 1_556 S
C133 C136 1.463 1_546 S
C133 C138 1.350 1_556 S
C133 N141 1.427 . S
C134 H125 0.930 1_554 S
C134 C132 1.378 1_554 S
C134 C135 1.367 . S
C135 C134 1.367 . S
C135 C137 1.433 . S
C136 C132 1.350 1_554 S
C136 C133 1.463 1_564 S
C136 N140 1.427 . S
C137 H127 0.929 . S
C137 C135 1.433 . S
C137 N140 1.384 . S
C138 H129 0.929 . S
C138 C130 1.378 1_554 S
C138 C133 1.350 1_554 S
C139 H126 0.929 . S
C139 C131 1.433 . S
C139 N141 1.384 . S
N140 C136 1.427 . S
N140 C137 1.384 . S
N141 C133 1.427 . S
N141 C139 1.384 . S
H142 C148 0.930 . S
H143 C152 0.930 . S
H144 C157 0.929 . S
H145 C155 0.929 . S
H146 C150 0.929 . S
H147 C156 0.929 . S
C148 H142 0.930 . S
C148 C149 1.367 . S
C148 C156 1.378 . S
C149 C148 1.367 . S
C149 C157 1.433 . S
C150 H146 0.929 . S
C150 C152 1.378 . S
C150 C154 1.350 . S
C151 C154 1.463 . S
C151 C156 1.350 . S
C151 N159 1.427 . S
C152 H143 0.930 . S
C152 C150 1.378 . S
C152 C153 1.367 . S
C153 C152 1.367 . S
C153 C155 1.433 . S
C154 C150 1.350 . S
C154 C151 1.463 . S
C154 N158 1.427 . S
C155 H145 0.929 . S
C155 C153 1.433 . S
C155 N158 1.384 . S
C156 H147 0.929 . S
C156 C148 1.378 . S
C156 C151 1.350 . S
C157 H144 0.929 . S
C157 C149 1.433 . S
C157 N159 1.384 . S
N158 C154 1.427 . S
N158 C155 1.384 . S
N159 C151 1.427 . S
N159 C157 1.384 . S
H160 C166 0.930 . S
H161 C170 0.930 . S
H162 C175 0.929 . S
H163 C173 0.929 . S
H164 C168 0.929 . S
H165 C174 0.929 . S
C166 H160 0.930 . S
C166 C167 1.367 . S
C166 C174 1.378 . S
C167 C166 1.367 . S
C167 C175 1.433 . S
C168 H164 0.929 . S
C168 C170 1.378 . S
C168 C172 1.350 . S
C169 C172 1.462 1_454 S
C169 C174 1.350 . S
C169 N177 1.427 . S
C170 H161 0.930 . S
C170 C168 1.378 . S
C170 C171 1.367 . S
C171 C170 1.367 . S
C171 C173 1.433 . S
C172 C168 1.350 . S
C172 C169 1.462 1_656 S
C172 N176 1.427 . S
C173 H163 0.929 . S
C173 C171 1.433 . S
C173 N176 1.384 . S
C174 H165 0.929 . S
C174 C166 1.378 . S
C174 C169 1.350 . S
C175 H162 0.929 . S
C175 C167 1.433 . S
C175 N177 1.384 . S
N176 C172 1.427 . S
N176 C173 1.384 . S
N177 C169 1.427 . S
N177 C175 1.384 . S
H178 C184 0.930 . S
H179 C188 0.930 . S
H180 C193 0.929 . S
H181 C191 0.929 . S
H182 C186 0.929 . S
H183 C192 0.929 . S
C184 H178 0.930 . S
C184 C185 1.367 . S
C184 C192 1.378 . S
C185 C184 1.367 . S
C185 C193 1.433 . S
C186 H182 0.929 . S
C186 C188 1.378 . S
C186 C190 1.350 . S
C187 C190 1.463 1_545 S
C187 C192 1.350 . S
C187 N195 1.427 . S
C188 H179 0.930 . S
C188 C186 1.378 . S
C188 C189 1.367 . S
C189 C188 1.367 . S
C189 C191 1.433 . S
C190 C186 1.350 . S
C190 C187 1.463 1_565 S
C190 N194 1.427 . S
C191 H181 0.929 . S
C191 C189 1.433 . S
C191 N194 1.384 . S
C192 H183 0.929 . S
C192 C184 1.378 . S
C192 C187 1.350 . S
C193 H180 0.929 . S
C193 C185 1.433 . S
C193 N195 1.384 . S
N194 C190 1.427 . S
N194 C191 1.384 . S
N195 C187 1.427 . S
N195 C193 1.384 . S
C59 C5 1.503 . S
C63 C31 1.497 . S
C77 C18 1.495 . S
C81 C44 1.496 . S
C95 C0 1.517 . S
C99 C47 1.524 . S
C113 C36 1.458 . S
C117 C13 1.427 . S
C131 C49 1.398 . S
C135 C10 1.402 . S
C149 C23 1.456 . S
C153 C26 1.426 . S
C167 C8 1.520 . S
C171 C39 1.524 . S
C185 C21 1.568 . S
C189 C34 1.566 . S
