# Generated by pormake.
# Topology lon, (4)-cn, num edge types: 1
# Building blocks:
#     Node 0, Type 0, BuildingBlock: NAHDIM_clean_sbu_0, # of connection points: 4
#     Node 1, Type 0, BuildingBlock: NAHDIM_clean_sbu_0, # of connection points: 4
#     Node 2, Type 0, BuildingBlock: NAHDIM_clean_sbu_0, # of connection points: 4
#     Node 3, Type 0, BuildingBlock: NAHDIM_clean_sbu_0, # of connection points: 4
#     Edge 4, Type (0, 0), BuildingBlock: XUDNAN_clean_linker_2, # of connection points: 2
#     Edge 5, Type (0, 0), BuildingBlock: XUDNAN_clean_linker_2, # of connection points: 2
#     Edge 6, Type (0, 0), BuildingBlock: XUDNAN_clean_linker_2, # of connection points: 2
#     Edge 7, Type (0, 0), BuildingBlock: XUDNAN_clean_linker_2, # of connection points: 2
#     Edge 8, Type (0, 0), BuildingBlock: XUDNAN_clean_linker_2, # of connection points: 2
#     Edge 9, Type (0, 0), BuildingBlock: XUDNAN_clean_linker_2, # of connection points: 2
#     Edge 10, Type (0, 0), BuildingBlock: XUDNAN_clean_linker_2, # of connection points: 2
#     Edge 11, Type (0, 0), BuildingBlock: XUDNAN_clean_linker_2, # of connection points: 2
# Relax obj value: 0.020
# Max RMSD: 0.061
# Mean RMSD: 0.060
data_MOF--net-lon--node1-NAHDIM_clean_sbu_0--edge1-XUDNAN_clean_linker_2
_symmetry_space_group_name_H-M    P1
_symmetry_Int_Tables_number       1
_symmetry_cell_setting            triclinic
loop_
_symmetry_equiv_pos_as_xyz
'x, y, z'
_cell_length_a     24.656712
_cell_length_b     24.520777
_cell_length_c     40.820512
_cell_angle_alpha  88.061187
_cell_angle_beta   89.853587
_cell_angle_gamma 120.12122
loop_
_atom_site_label
_atom_site_type_symbol
_atom_site_fract_x
_atom_site_fract_y
_atom_site_fract_z
_atom_type_partial_charge
C0 C 0.39189 0.63357 0.02159 0.0
O1 O 0.35755 0.65163 1.00511 0.0
O2 O 0.36979 0.75965 0.05356 0.0
Zn3 Zn 0.34249 0.67179 0.07311 0.0
O4 O 0.25165 0.61193 0.06306 0.0
C5 C 0.3912 0.72428 0.13615 0.0
O6 O 0.42697 0.77541 0.11794 0.0
O7 O 0.39432 0.63823 0.05254 0.0
C8 C 0.2074 0.62169 0.07095 0.0
O9 O 0.22044 0.6724 0.08688 0.0
C10 C 0.34054 0.76836 0.03018 0.0
O11 O 0.29152 0.71943 0.01827 0.0
O12 O 0.35207 0.67424 0.12232 0.0
C13 C 0.79726 0.38924 0.52698 0.0
O14 O 0.74549 0.38205 0.51399 0.0
O15 O 0.67038 0.38073 0.56764 0.0
Zn16 Zn 0.71284 0.33183 0.58196 0.0
O17 O 0.65996 0.23987 0.57173 0.0
C18 C 0.70269 0.35077 0.65228 0.0
O19 O 0.66095 0.36634 0.64337 0.0
O20 O 0.79541 0.37004 0.55653 0.0
C21 C 0.62805 0.21991 0.54598 0.0
O22 O 0.62799 0.26066 0.52427 0.0
C23 C 0.61245 0.36337 0.56994 0.0
O24 O 0.5733 0.3089 0.58466 0.0
O25 O 0.72998 0.33645 0.63055 0.0
C26 C 0.38948 0.57325 0.48164 0.0
O27 O 0.33594 0.55305 0.49752 0.0
O28 O 0.26748 0.60998 0.45624 0.0
Zn29 Zn 0.36092 0.66299 0.44684 0.0
O30 O 0.39662 0.74138 0.47314 0.0
C31 C 0.35509 0.65065 0.37578 0.0
O32 O 0.31689 0.59057 0.38328 0.0
O33 O 0.40681 0.61695 0.45955 0.0
C34 C 0.40197 0.79282 0.46176 0.0
O35 O 0.38222 0.79493 0.43214 0.0
C36 C 0.23057 0.62163 0.43969 0.0
O37 O 0.25419 0.66706 0.41684 0.0
O38 O 0.37876 0.68916 0.39869 0.0
C39 C 0.77646 0.41789 0.99099 0.0
O40 O 0.75321 0.45535 0.9942 0.0
O41 O 0.60321 0.24646 0.9691 0.0
Zn42 Zn 0.66207 0.33721 0.95443 0.0
O43 O 0.62389 0.39153 0.9652 0.0
C44 C 0.7109 0.32137 0.89298 0.0
O45 O 0.73813 0.29908 0.9125 0.0
O46 O 0.74551 0.36702 0.97591 0.0
C47 C 0.59895 0.4073 0.94228 0.0
O48 O 0.59867 0.38791 0.91265 0.0
C49 C 0.5522 0.21452 0.95415 0.0
O50 O 0.53843 0.2421 0.93006 0.0
O51 O 0.67638 0.34045 0.90541 0.0
H52 H 0.32578 0.62598 0.18115 0.0
H53 H 0.46647 0.82507 0.17315 0.0
H54 H 0.47288 0.82765 0.23345 0.0
H55 H 0.24589 0.63409 0.25273 0.0
H56 H 0.23089 0.55926 0.27035 0.0
H57 H 0.23777 0.57281 0.22651 0.0
H58 H 0.32558 0.54419 0.22449 0.0
H59 H 0.31893 0.53049 0.26832 0.0
H60 H 0.39369 0.58582 0.24935 0.0
H61 H 0.4628 0.80915 0.29463 0.0
H62 H 0.4383 0.77042 0.35237 0.0
H63 H 0.30501 0.58308 0.32056 0.0
C64 C 0.35806 0.67013 0.19204 0.0
C65 C 0.39564 0.72536 0.17235 0.0
C66 C 0.43723 0.78212 0.18765 0.0
C67 C 0.4412 0.7841 0.22191 0.0
C68 C 0.4034 0.7289 0.24055 0.0
C69 C 0.36274 0.67293 0.22619 0.0
C70 C 0.3272 0.62034 0.25184 0.0
C71 C 0.25623 0.59517 0.25026 0.0
C72 C 0.34228 0.56708 0.24828 0.0
C73 C 0.35417 0.65554 0.28289 0.0
C74 C 0.39796 0.71812 0.27582 0.0
C75 C 0.42873 0.76019 0.30046 0.0
C76 C 0.41443 0.73772 0.33321 0.0
C77 C 0.36985 0.67365 0.34106 0.0
C78 C 0.33949 0.63222 0.31543 0.0
H79 H 0.65221 0.37714 0.70547 0.0
H80 H 0.78164 0.31373 0.6788 0.0
H81 H 0.7994 0.3015 0.73735 0.0
H82 H 0.738 0.46551 0.77575 0.0
H83 H 0.66782 0.44352 0.79955 0.0
H84 H 0.66687 0.44936 0.75547 0.0
H85 H 0.57403 0.33438 0.75494 0.0
H86 H 0.57485 0.32813 0.79898 0.0
H87 H 0.58186 0.27186 0.77468 0.0
H88 H 0.80018 0.29225 0.79879 0.0
H89 H 0.78567 0.28901 0.85882 0.0
H90 H 0.65641 0.35918 0.84553 0.0
C91 C 0.68465 0.36113 0.71189 0.0
C92 C 0.71553 0.34643 0.68746 0.0
C93 C 0.75747 0.32542 0.697 0.0
C94 C 0.76789 0.31827 0.73023 0.0
C95 C 0.73625 0.33257 0.75366 0.0
C96 C 0.69573 0.35386 0.74495 0.0
C97 C 0.66694 0.36505 0.77499 0.0
C98 C 0.68607 0.43503 0.77652 0.0
C99 C 0.59517 0.32229 0.77594 0.0
C100 C 0.69705 0.34602 0.80192 0.0
C101 C 0.73697 0.32756 0.78909 0.0
C102 C 0.7693 0.30692 0.80914 0.0
C103 C 0.76066 0.30516 0.84322 0.0
C104 C 0.72002 0.32394 0.85695 0.0
C105 C 0.688 0.34473 0.83587 0.0
H106 H 0.45639 0.57787 0.04802 0.0
H107 H 0.40154 0.62683 0.95553 0.0
H108 H 0.45181 0.57776 0.92573 0.0
H109 H 0.60822 0.6035 0.01885 0.0
H110 H 0.60219 0.53745 0.04278 0.0
H111 H 0.56442 0.5791 0.05716 0.0
H112 H 0.45813 0.47428 0.06122 0.0
H113 H 0.49551 0.43236 0.04679 0.0
H114 H 0.42909 0.42712 0.02561 0.0
H115 H 0.50327 0.52012 0.9058 0.0
H116 H 0.55433 0.4576 0.89666 0.0
H117 H 0.57728 0.44508 1.00164 0.0
C118 C 0.45552 0.5788 0.02149 0.0
C119 C 0.425 0.60633 1.00413 0.0
C120 C 0.4245 0.60608 0.96942 0.0
C121 C 0.45304 0.57838 0.95222 0.0
C122 C 0.48208 0.55113 0.97001 0.0
C123 C 0.4838 0.55116 1.00383 0.0
C124 C 0.51675 0.51687 0.01685 0.0
C125 C 0.57644 0.56193 0.03498 0.0
C126 C 0.47219 0.45924 0.03892 0.0
C127 C 0.53252 0.49705 0.98504 0.0
C128 C 0.51219 0.5176 0.95838 0.0
C129 C 0.51976 0.50404 0.92645 0.0
C130 C 0.54875 0.46831 0.92153 0.0
C131 C 0.56995 0.44641 0.9484 0.0
C132 C 0.56194 0.46141 0.98058 0.0
H133 H 0.16716 0.54633 0.49406 0.0
H134 H 0.13923 0.61687 0.40037 0.0
H135 H 0.0252 0.56089 0.41165 0.0
H136 H 0.0248 0.3917 0.49461 0.0
H137 H 0.00997 0.39062 0.53796 0.0
H138 H 0.08927 0.433 0.52177 0.0
H139 H 0.10574 0.53487 0.54797 0.0
H140 H 0.02654 0.49286 0.56419 0.0
H141 H 0.05263 0.56335 0.53862 0.0
H142 H 0.91517 0.50034 0.43337 0.0
H143 H 0.81575 0.44151 0.46496 0.0
H144 H 0.91415 0.41185 0.5455 0.0
C145 C 0.13694 0.54935 0.47577 0.0
C146 C 0.16206 0.58575 0.44625 0.0
C147 C 0.12108 0.58931 0.42315 0.0
C148 C 0.0562 0.55753 0.42928 0.0
C149 C 0.03298 0.52258 0.45869 0.0
C150 C 0.07197 0.51837 0.48164 0.0
C151 C 0.035 0.48 0.51195 0.0
C152 C 0.04006 0.42028 0.51684 0.0
C153 C 0.05625 0.52019 0.54248 0.0
C154 C 0.96928 0.46378 0.50251 0.0
C155 C 0.96925 0.48842 0.47157 0.0
C156 C 0.9145 0.48062 0.45759 0.0
C157 C 0.85821 0.44707 0.47578 0.0
C158 C 0.85701 0.422 0.50775 0.0
C159 C 0.91343 0.43028 0.52112 0.0
H160 H 0.56988 0.14031 1.00013 0.0
H161 H 0.4391 0.1349 0.92744 0.0
H162 H 0.37002 0.02115 0.9401 0.0
H163 H 0.55368 0.99103 0.9834 0.0
H164 H 0.55883 0.97037 0.02561 0.0
H165 H 0.59718 0.05205 0.01184 0.0
H166 H 0.53725 0.07439 0.05676 0.0
H167 H 0.49877 0.99275 0.07072 0.0
H168 H 0.45281 0.02851 0.05913 0.0
H169 H 0.31673 0.90778 0.95915 0.0
H170 H 0.28193 0.8019 0.98377 0.0
H171 H 0.44669 0.88006 0.04444 0.0
C172 C 0.5265 0.11534 0.98703 0.0
C173 C 0.50991 0.14667 0.96279 0.0
C174 C 0.45288 0.11208 0.94611 0.0
C175 C 0.41325 0.0474 0.95314 0.0
C176 C 0.43119 0.01791 0.97696 0.0
C177 C 0.48633 0.05065 0.99373 0.0
C178 C 0.49509 0.00722 0.01773 0.0
C179 C 0.55473 0.00505 0.00911 0.0
C180 C 0.49602 0.0269 0.05319 0.0
C181 C 0.43644 0.9449 0.01163 0.0
C182 C 0.40026 0.95226 0.98804 0.0
C183 C 0.34451 0.90144 0.97775 0.0
C184 C 0.3252 0.84141 0.99187 0.0
C185 C 0.36148 0.83255 0.01609 0.0
C186 C 0.41775 0.88525 0.02611 0.0
H187 H 0.49601 0.35237 0.57692 0.0
H188 H 0.67668 0.46346 0.52666 0.0
H189 H 0.63838 0.5274 0.49827 0.0
H190 H 0.4008 0.35044 0.51002 0.0
H191 H 0.34546 0.35837 0.53543 0.0
H192 H 0.38664 0.32072 0.55203 0.0
H193 H 0.42776 0.3995 0.59889 0.0
H194 H 0.38647 0.43722 0.58252 0.0
H195 H 0.46967 0.4831 0.58893 0.0
H196 H 0.58061 0.57768 0.47425 0.0
H197 H 0.5086 0.61563 0.45835 0.0
H198 H 0.36563 0.47463 0.52506 0.0
C199 C 0.5275 0.3902 0.55997 0.0
C200 C 0.58936 0.4028 0.55401 0.0
C201 C 0.6292 0.45297 0.53177 0.0
C202 C 0.60783 0.48949 0.5154 0.0
C203 C 0.54663 0.47567 0.52168 0.0
C204 C 0.50711 0.42766 0.54361 0.0
C205 C 0.44381 0.42367 0.54624 0.0
C206 C 0.39107 0.35949 0.53527 0.0
C207 C 0.43121 0.43666 0.58122 0.0
C208 C 0.45393 0.47665 0.52219 0.0
C209 C 0.5135 0.50572 0.50822 0.0
C210 C 0.53389 0.55549 0.48509 0.0
C211 C 0.4925 0.5766 0.47617 0.0
C212 C 0.43141 0.54826 0.49048 0.0
C213 C 0.412 0.49741 0.51372 0.0
H214 H 0.10643 0.64031 0.07271 0.0
H215 H 0.16278 0.50687 0.0437 0.0
H216 H 0.05698 0.43794 0.02261 0.0
H217 H 0.94489 0.52399 0.09721 0.0
H218 H 0.91386 0.57193 0.08117 0.0
H219 H 0.99275 0.60881 0.09603 0.0
H220 H 0.03477 0.66959 0.0401 0.0
H221 H 0.95612 0.63282 0.02504 0.0
H222 H 0.01593 0.62624 1.00304 0.0
H223 H 0.94686 0.38564 1.00267 0.0
H224 H 0.84029 0.35417 0.98432 0.0
H225 H 0.85565 0.52238 0.02538 0.0
C226 C 0.0963 0.5962 0.06233 0.0
C227 C 0.14286 0.57885 0.06001 0.0
C228 C 0.12789 0.52112 0.04582 0.0
C229 C 0.06788 0.48157 0.03382 0.0
C230 C 0.02333 0.5004 0.03615 0.0
C231 C 0.03672 0.5563 0.05005 0.0
C232 C 0.9812 0.5668 0.0482 0.0
C233 C 0.95673 0.56793 0.08271 0.0
C234 C 0.99803 0.62745 0.02788 0.0
C235 C 0.93483 0.50847 0.03069 0.0
C236 C 0.95993 0.47058 0.02423 0.0
C237 C 0.92656 0.41475 0.00774 0.0
C238 C 0.866 0.3973 0.99741 0.0
C239 C 0.83944 0.43573 1.00341 0.0
C240 C 0.87444 0.49186 0.02047 0.0
H241 H 0.56103 0.16133 0.49171 0.0
H242 H 0.61579 0.12349 0.58703 0.0
H243 H 0.56011 0.00968 0.57677 0.0
H244 H 0.40587 0.02099 0.49211 0.0
H245 H 0.40975 0.00955 0.44897 0.0
H246 H 0.45154 0.08786 0.46441 0.0
H247 H 0.55511 0.104 0.43879 0.0
H248 H 0.51369 0.02579 0.4233 0.0
H249 H 0.58033 0.0482 0.44906 0.0
H250 H 0.50202 0.9005 0.55536 0.0
H251 H 0.44598 0.80365 0.52417 0.0
H252 H 0.42902 0.91257 0.44282 0.0
C253 C 0.56092 0.12912 0.51056 0.0
C254 C 0.59276 0.15142 0.54021 0.0
C255 C 0.59174 0.10762 0.56413 0.0
C256 C 0.56015 0.04282 0.55856 0.0
C257 C 0.52967 0.02251 0.52899 0.0
C258 C 0.52968 0.06429 0.5054 0.0
C259 C 0.49484 0.03034 0.47532 0.0
C260 C 0.43706 0.03762 0.4699 0.0
C261 C 0.53862 0.05346 0.44482 0.0
C262 C 0.47593 0.96305 0.48553 0.0
C263 C 0.4962 0.95953 0.51664 0.0
C264 C 0.4856 0.9026 0.53105 0.0
C265 C 0.45375 0.84784 0.51311 0.0
C266 C 0.43296 0.8504 0.48106 0.0
C267 C 0.44396 0.90888 0.46731 0.0
loop_
_geom_bond_atom_site_label_1
_geom_bond_atom_site_label_2
_geom_bond_distance
_geom_bond_site_symmetry_2
_ccdc_geom_bond_type
C0 O1 1.160 . S
C0 O7 1.185 . S
O1 C0 1.160 . S
O2 Zn3 1.899 . S
O2 C10 1.284 . S
Zn3 O2 1.899 . S
Zn3 O4 2.032 . S
Zn3 O7 2.086 . S
Zn3 O12 1.977 . S
O4 Zn3 2.032 . S
O4 C8 1.278 . S
C5 O6 1.203 . S
C5 O12 1.267 . S
O6 C5 1.203 . S
O7 C0 1.185 . S
O7 Zn3 2.086 . S
C8 O4 1.278 . S
C8 O9 1.211 . S
O9 C8 1.211 . S
C10 O2 1.284 . S
C10 O11 1.273 . S
O11 C10 1.273 . S
O12 Zn3 1.977 . S
O12 C5 1.267 . S
C13 O14 1.160 . S
C13 O20 1.185 . S
O14 C13 1.160 . S
O15 Zn16 1.899 . S
O15 C23 1.284 . S
Zn16 O15 1.899 . S
Zn16 O17 2.032 . S
Zn16 O20 2.086 . S
Zn16 O25 1.977 . S
O17 Zn16 2.032 . S
O17 C21 1.278 . S
C18 O19 1.203 . S
C18 O25 1.267 . S
O19 C18 1.203 . S
O20 C13 1.185 . S
O20 Zn16 2.086 . S
C21 O17 1.278 . S
C21 O22 1.211 . S
O22 C21 1.211 . S
C23 O15 1.284 . S
C23 O24 1.273 . S
O24 C23 1.273 . S
O25 Zn16 1.977 . S
O25 C18 1.267 . S
C26 O27 1.160 . S
C26 O33 1.185 . S
O27 C26 1.160 . S
O28 Zn29 1.899 . S
O28 C36 1.284 . S
Zn29 O28 1.899 . S
Zn29 O30 2.032 . S
Zn29 O33 2.086 . S
Zn29 O38 1.977 . S
O30 Zn29 2.032 . S
O30 C34 1.278 . S
C31 O32 1.203 . S
C31 O38 1.267 . S
O32 C31 1.203 . S
O33 C26 1.185 . S
O33 Zn29 2.086 . S
C34 O30 1.278 . S
C34 O35 1.211 . S
O35 C34 1.211 . S
C36 O28 1.284 . S
C36 O37 1.273 . S
O37 C36 1.273 . S
O38 Zn29 1.977 . S
O38 C31 1.267 . S
C39 O40 1.160 . S
C39 O46 1.185 . S
O40 C39 1.160 . S
O41 Zn42 1.899 . S
O41 C49 1.284 . S
Zn42 O41 1.899 . S
Zn42 O43 2.032 . S
Zn42 O46 2.086 . S
Zn42 O51 1.977 . S
O43 Zn42 2.032 . S
O43 C47 1.278 . S
C44 O45 1.203 . S
C44 O51 1.267 . S
O45 C44 1.203 . S
O46 C39 1.185 . S
O46 Zn42 2.086 . S
C47 O43 1.278 . S
C47 O48 1.211 . S
O48 C47 1.211 . S
C49 O41 1.284 . S
C49 O50 1.273 . S
O50 C49 1.273 . S
O51 Zn42 1.977 . S
O51 C44 1.267 . S
H52 C64 0.930 . S
H53 C66 0.930 . S
H54 C67 0.930 . S
H55 C71 0.959 . S
H56 C71 0.959 . S
H57 C71 0.961 . S
H58 C72 0.960 . S
H59 C72 0.961 . S
H60 C72 0.959 . S
H61 C75 0.929 . S
H62 C76 0.931 . S
H63 C78 0.930 . S
C64 H52 0.930 . S
C64 C65 1.399 . S
C64 C69 1.399 . S
C65 C64 1.399 . S
C65 C66 1.376 . S
C66 H53 0.930 . S
C66 C65 1.376 . S
C66 C67 1.388 . S
C67 H54 0.930 . S
C67 C66 1.388 . S
C67 C68 1.390 . S
C68 C67 1.390 . S
C68 C69 1.394 . S
C68 C74 1.465 . S
C69 C64 1.399 . S
C69 C68 1.394 . S
C69 C70 1.516 . S
C70 C69 1.516 . S
C70 C71 1.502 . S
C70 C72 1.561 . S
C70 C73 1.526 . S
C71 H55 0.959 . S
C71 H56 0.959 . S
C71 H57 0.961 . S
C71 C70 1.502 . S
C72 H58 0.960 . S
C72 H59 0.961 . S
C72 H60 0.959 . S
C72 C70 1.561 . S
C73 C70 1.526 . S
C73 C74 1.396 . S
C73 C78 1.390 . S
C74 C68 1.465 . S
C74 C73 1.396 . S
C74 C75 1.399 . S
C75 H61 0.929 . S
C75 C74 1.399 . S
C75 C76 1.385 . S
C76 H62 0.931 . S
C76 C75 1.385 . S
C76 C77 1.389 . S
C77 C76 1.389 . S
C77 C78 1.387 . S
C78 H63 0.930 . S
C78 C73 1.390 . S
C78 C77 1.387 . S
H79 C91 0.930 . S
H80 C93 0.930 . S
H81 C94 0.930 . S
H82 C98 0.959 . S
H83 C98 0.959 . S
H84 C98 0.961 . S
H85 C99 0.960 . S
H86 C99 0.961 . S
H87 C99 0.959 . S
H88 C102 0.929 . S
H89 C103 0.931 . S
H90 C105 0.930 . S
C91 H79 0.930 . S
C91 C92 1.399 . S
C91 C96 1.399 . S
C92 C91 1.399 . S
C92 C93 1.376 . S
C93 H80 0.930 . S
C93 C92 1.376 . S
C93 C94 1.388 . S
C94 H81 0.930 . S
C94 C93 1.388 . S
C94 C95 1.390 . S
C95 C94 1.390 . S
C95 C96 1.394 . S
C95 C101 1.465 . S
C96 C91 1.399 . S
C96 C95 1.394 . S
C96 C97 1.516 . S
C97 C96 1.516 . S
C97 C98 1.502 . S
C97 C99 1.561 . S
C97 C100 1.526 . S
C98 H82 0.959 . S
C98 H83 0.959 . S
C98 H84 0.961 . S
C98 C97 1.502 . S
C99 H85 0.960 . S
C99 H86 0.961 . S
C99 H87 0.959 . S
C99 C97 1.561 . S
C100 C97 1.526 . S
C100 C101 1.396 . S
C100 C105 1.390 . S
C101 C95 1.465 . S
C101 C100 1.396 . S
C101 C102 1.399 . S
C102 H88 0.929 . S
C102 C101 1.399 . S
C102 C103 1.385 . S
C103 H89 0.931 . S
C103 C102 1.385 . S
C103 C104 1.389 . S
C104 C103 1.389 . S
C104 C105 1.387 . S
C105 H90 0.930 . S
C105 C100 1.390 . S
C105 C104 1.387 . S
H106 C118 0.930 . S
H107 C120 0.930 . S
H108 C121 0.930 . S
H109 C125 0.959 . S
H110 C125 0.959 . S
H111 C125 0.961 . S
H112 C126 0.960 . S
H113 C126 0.961 . S
H114 C126 0.959 . S
H115 C129 0.929 . S
H116 C130 0.931 . S
H117 C132 0.930 1_554 S
C118 H106 0.930 . S
C118 C119 1.399 . S
C118 C123 1.399 . S
C119 C118 1.399 . S
C119 C120 1.376 1_554 S
C120 H107 0.930 . S
C120 C119 1.376 1_556 S
C120 C121 1.388 . S
C121 H108 0.930 . S
C121 C120 1.388 . S
C121 C122 1.390 . S
C122 C121 1.390 . S
C122 C123 1.394 1_556 S
C122 C128 1.465 . S
C123 C118 1.399 . S
C123 C122 1.394 1_554 S
C123 C124 1.516 . S
C124 C123 1.516 . S
C124 C125 1.502 . S
C124 C126 1.561 . S
C124 C127 1.526 1_554 S
C125 H109 0.959 . S
C125 H110 0.959 . S
C125 H111 0.961 . S
C125 C124 1.502 . S
C126 H112 0.960 . S
C126 H113 0.961 . S
C126 H114 0.959 . S
C126 C124 1.561 . S
C127 C124 1.526 1_556 S
C127 C128 1.396 . S
C127 C132 1.390 . S
C128 C122 1.465 . S
C128 C127 1.396 . S
C128 C129 1.399 . S
C129 H115 0.929 . S
C129 C128 1.399 . S
C129 C130 1.385 . S
C130 H116 0.931 . S
C130 C129 1.385 . S
C130 C131 1.389 . S
C131 C130 1.389 . S
C131 C132 1.387 . S
C132 H117 0.930 1_556 S
C132 C127 1.390 . S
C132 C131 1.387 . S
H133 C145 0.930 . S
H134 C147 0.930 . S
H135 C148 0.930 . S
H136 C152 0.959 . S
H137 C152 0.959 1_655 S
H138 C152 0.961 . S
H139 C153 0.960 . S
H140 C153 0.961 . S
H141 C153 0.959 . S
H142 C156 0.929 . S
H143 C157 0.931 . S
H144 C159 0.930 . S
C145 H133 0.930 . S
C145 C146 1.399 . S
C145 C150 1.399 . S
C146 C145 1.399 . S
C146 C147 1.376 . S
C147 H134 0.930 . S
C147 C146 1.376 . S
C147 C148 1.388 . S
C148 H135 0.930 . S
C148 C147 1.388 . S
C148 C149 1.390 . S
C149 C148 1.390 . S
C149 C150 1.394 . S
C149 C155 1.465 1_455 S
C150 C145 1.399 . S
C150 C149 1.394 . S
C150 C151 1.516 . S
C151 C150 1.516 . S
C151 C152 1.502 . S
C151 C153 1.561 . S
C151 C154 1.526 1_455 S
C152 H136 0.959 . S
C152 H137 0.959 1_455 S
C152 H138 0.961 . S
C152 C151 1.502 . S
C153 H139 0.960 . S
C153 H140 0.961 . S
C153 H141 0.959 . S
C153 C151 1.561 . S
C154 C151 1.526 1_655 S
C154 C155 1.396 . S
C154 C159 1.390 . S
C155 C149 1.465 1_655 S
C155 C154 1.396 . S
C155 C156 1.399 . S
C156 H142 0.929 . S
C156 C155 1.399 . S
C156 C157 1.385 . S
C157 H143 0.931 . S
C157 C156 1.385 . S
C157 C158 1.389 . S
C158 C157 1.389 . S
C158 C159 1.387 . S
C159 H144 0.930 . S
C159 C154 1.390 . S
C159 C158 1.387 . S
H160 C172 0.930 1_554 S
H161 C174 0.930 . S
H162 C175 0.930 . S
H163 C179 0.959 . S
H164 C179 0.959 1_565 S
H165 C179 0.961 . S
H166 C180 0.960 . S
H167 C180 0.961 . S
H168 C180 0.959 . S
H169 C183 0.929 . S
H170 C184 0.925 1_556 S
H171 C186 0.930 . S
C172 H160 0.930 1_556 S
C172 C173 1.399 . S
C172 C177 1.399 1_556 S
C173 C172 1.399 . S
C173 C174 1.376 . S
C174 H161 0.930 . S
C174 C173 1.376 . S
C174 C175 1.388 . S
C175 H162 0.930 . S
C175 C174 1.388 . S
C175 C176 1.390 . S
C176 C175 1.390 . S
C176 C177 1.394 1_556 S
C176 C182 1.465 1_545 S
C177 C172 1.399 1_554 S
C177 C176 1.394 1_554 S
C177 C178 1.516 . S
C178 C177 1.516 . S
C178 C179 1.502 . S
C178 C180 1.561 . S
C178 C181 1.526 1_545 S
C179 H163 0.959 . S
C179 H164 0.959 1_545 S
C179 H165 0.961 . S
C179 C178 1.502 . S
C180 H166 0.960 . S
C180 H167 0.961 . S
C180 H168 0.959 . S
C180 C178 1.561 . S
C181 C178 1.526 1_565 S
C181 C182 1.396 1_554 S
C181 C186 1.390 . S
C182 C176 1.465 1_565 S
C182 C181 1.396 1_556 S
C182 C183 1.399 . S
C183 H169 0.929 . S
C183 C182 1.399 . S
C183 C184 1.385 1_556 S
C184 H170 0.925 1_554 S
C184 C183 1.385 1_554 S
C184 C185 1.389 . S
C185 C184 1.389 . S
C185 C186 1.387 . S
C186 H171 0.930 . S
C186 C181 1.390 . S
C186 C185 1.387 . S
H187 C199 0.930 . S
H188 C201 0.930 . S
H189 C202 0.930 . S
H190 C206 0.959 . S
H191 C206 0.959 . S
H192 C206 0.961 . S
H193 C207 0.960 . S
H194 C207 0.961 . S
H195 C207 0.959 . S
H196 C210 0.929 . S
H197 C211 0.931 . S
H198 C213 0.930 . S
C199 H187 0.930 . S
C199 C200 1.399 . S
C199 C204 1.399 . S
C200 C199 1.399 . S
C200 C201 1.376 . S
C201 H188 0.930 . S
C201 C200 1.376 . S
C201 C202 1.388 . S
C202 H189 0.930 . S
C202 C201 1.388 . S
C202 C203 1.390 . S
C203 C202 1.390 . S
C203 C204 1.394 . S
C203 C209 1.465 . S
C204 C199 1.399 . S
C204 C203 1.394 . S
C204 C205 1.516 . S
C205 C204 1.516 . S
C205 C206 1.502 . S
C205 C207 1.561 . S
C205 C208 1.526 . S
C206 H190 0.959 . S
C206 H191 0.959 . S
C206 H192 0.961 . S
C206 C205 1.502 . S
C207 H193 0.960 . S
C207 H194 0.961 . S
C207 H195 0.959 . S
C207 C205 1.561 . S
C208 C205 1.526 . S
C208 C209 1.396 . S
C208 C213 1.390 . S
C209 C203 1.465 . S
C209 C208 1.396 . S
C209 C210 1.399 . S
C210 H196 0.929 . S
C210 C209 1.399 . S
C210 C211 1.385 . S
C211 H197 0.931 . S
C211 C210 1.385 . S
C211 C212 1.389 . S
C212 C211 1.389 . S
C212 C213 1.387 . S
C213 H198 0.930 . S
C213 C208 1.390 . S
C213 C212 1.387 . S
H214 C226 0.930 . S
H215 C228 0.930 . S
H216 C229 0.930 . S
H217 C233 0.959 . S
H218 C233 0.959 . S
H219 C233 0.961 . S
H220 C234 0.960 1_455 S
H221 C234 0.961 . S
H222 C234 0.959 . S
H223 C237 0.929 . S
H224 C238 0.931 . S
H225 C240 0.930 . S
C226 H214 0.930 . S
C226 C227 1.399 . S
C226 C231 1.399 . S
C227 C226 1.399 . S
C227 C228 1.376 1_554 S
C228 H215 0.930 . S
C228 C227 1.376 1_556 S
C228 C229 1.388 . S
C229 H216 0.930 . S
C229 C228 1.388 . S
C229 C230 1.390 . S
C230 C229 1.390 . S
C230 C231 1.394 1_556 S
C230 C236 1.465 1_455 S
C231 C226 1.399 . S
C231 C230 1.394 1_554 S
C231 C232 1.516 1_455 S
C232 C231 1.516 1_655 S
C232 C233 1.502 . S
C232 C234 1.561 . S
C232 C235 1.526 . S
C233 H217 0.959 . S
C233 H218 0.959 . S
C233 H219 0.961 . S
C233 C232 1.502 . S
C234 H220 0.960 1_655 S
C234 H221 0.961 . S
C234 H222 0.959 . S
C234 C232 1.561 . S
C235 C232 1.526 . S
C235 C236 1.396 1_554 S
C235 C240 1.390 . S
C236 C230 1.465 1_655 S
C236 C235 1.396 1_556 S
C236 C237 1.399 . S
C237 H223 0.929 . S
C237 C236 1.399 . S
C237 C238 1.385 . S
C238 H224 0.931 . S
C238 C237 1.385 . S
C238 C239 1.389 . S
C239 C238 1.389 . S
C239 C240 1.387 1_556 S
C240 H225 0.930 . S
C240 C235 1.390 . S
C240 C239 1.387 1_554 S
H241 C253 0.930 . S
H242 C255 0.930 . S
H243 C256 0.930 . S
H244 C260 0.959 1_565 S
H245 C260 0.959 1_565 S
H246 C260 0.961 . S
H247 C261 0.960 . S
H248 C261 0.961 . S
H249 C261 0.959 . S
H250 C264 0.929 . S
H251 C265 0.931 . S
H252 C267 0.930 . S
C253 H241 0.930 . S
C253 C254 1.399 . S
C253 C258 1.399 . S
C254 C253 1.399 . S
C254 C255 1.376 . S
C255 H242 0.930 . S
C255 C254 1.376 . S
C255 C256 1.388 . S
C256 H243 0.930 . S
C256 C255 1.388 . S
C256 C257 1.390 . S
C257 C256 1.390 . S
C257 C258 1.394 . S
C257 C263 1.465 1_545 S
C258 C253 1.399 . S
C258 C257 1.394 . S
C258 C259 1.516 . S
C259 C258 1.516 . S
C259 C260 1.502 . S
C259 C261 1.561 . S
C259 C262 1.526 1_545 S
C260 H244 0.959 1_545 S
C260 H245 0.959 1_545 S
C260 H246 0.961 . S
C260 C259 1.502 . S
C261 H247 0.960 . S
C261 H248 0.961 . S
C261 H249 0.959 . S
C261 C259 1.561 . S
C262 C259 1.526 1_565 S
C262 C263 1.396 . S
C262 C267 1.390 . S
C263 C257 1.465 1_565 S
C263 C262 1.396 . S
C263 C264 1.399 . S
C264 H250 0.929 . S
C264 C263 1.399 . S
C264 C265 1.385 . S
C265 H251 0.931 . S
C265 C264 1.385 . S
C265 C266 1.389 . S
C266 C265 1.389 . S
C266 C267 1.387 . S
C267 H252 0.930 . S
C267 C262 1.390 . S
C267 C266 1.387 . S
C65 C5 1.487 . S
C77 C31 1.506 . S
C92 C18 1.502 . S
C104 C44 1.482 . S
C119 C0 1.531 . S
C131 C47 1.488 . S
C146 C36 1.434 . S
C158 C13 1.395 . S
C173 C49 1.384 . S
C185 C10 1.374 . S
C200 C23 1.459 . S
C212 C26 1.455 . S
C227 C8 1.538 . S
C239 C39 1.511 . S
C254 C21 1.558 . S
C266 C34 1.576 . S
