# Generated by pormake.
# Topology upb, (4)-cn, num edge types: 1
# Building blocks:
#     Node 0, Type 0, BuildingBlock: TATPOV_clean_sbu_0, # of connection points: 4
#     Node 1, Type 0, BuildingBlock: TATPOV_clean_sbu_0, # of connection points: 4
#     Node 2, Type 0, BuildingBlock: TATPOV_clean_sbu_0, # of connection points: 4
#     Node 3, Type 0, BuildingBlock: TATPOV_clean_sbu_0, # of connection points: 4
#     Node 4, Type 0, BuildingBlock: TATPOV_clean_sbu_0, # of connection points: 4
#     Node 5, Type 0, BuildingBlock: TATPOV_clean_sbu_0, # of connection points: 4
#     Node 6, Type 0, BuildingBlock: TATPOV_clean_sbu_0, # of connection points: 4
#     Node 7, Type 0, BuildingBlock: TATPOV_clean_sbu_0, # of connection points: 4
#     Node 8, Type 0, BuildingBlock: TATPOV_clean_sbu_0, # of connection points: 4
#     Node 9, Type 0, BuildingBlock: TATPOV_clean_sbu_0, # of connection points: 4
#     Node 10, Type 0, BuildingBlock: TATPOV_clean_sbu_0, # of connection points: 4
#     Node 11, Type 0, BuildingBlock: TATPOV_clean_sbu_0, # of connection points: 4
#     Node 12, Type 0, BuildingBlock: TATPOV_clean_sbu_0, # of connection points: 4
#     Node 13, Type 0, BuildingBlock: TATPOV_clean_sbu_0, # of connection points: 4
#     Node 14, Type 0, BuildingBlock: TATPOV_clean_sbu_0, # of connection points: 4
#     Node 15, Type 0, BuildingBlock: TATPOV_clean_sbu_0, # of connection points: 4
#     Edge 16, Type (0, 0), None
#     Edge 17, Type (0, 0), None
#     Edge 18, Type (0, 0), None
#     Edge 19, Type (0, 0), None
#     Edge 20, Type (0, 0), None
#     Edge 21, Type (0, 0), None
#     Edge 22, Type (0, 0), None
#     Edge 23, Type (0, 0), None
#     Edge 24, Type (0, 0), None
#     Edge 25, Type (0, 0), None
#     Edge 26, Type (0, 0), None
#     Edge 27, Type (0, 0), None
#     Edge 28, Type (0, 0), None
#     Edge 29, Type (0, 0), None
#     Edge 30, Type (0, 0), None
#     Edge 31, Type (0, 0), None
#     Edge 32, Type (0, 0), None
#     Edge 33, Type (0, 0), None
#     Edge 34, Type (0, 0), None
#     Edge 35, Type (0, 0), None
#     Edge 36, Type (0, 0), None
#     Edge 37, Type (0, 0), None
#     Edge 38, Type (0, 0), None
#     Edge 39, Type (0, 0), None
#     Edge 40, Type (0, 0), None
#     Edge 41, Type (0, 0), None
#     Edge 42, Type (0, 0), None
#     Edge 43, Type (0, 0), None
#     Edge 44, Type (0, 0), None
#     Edge 45, Type (0, 0), None
#     Edge 46, Type (0, 0), None
#     Edge 47, Type (0, 0), None
# Relax obj value: 0.235
# Max RMSD: 0.123
# Mean RMSD: 0.123
data_MOF--net-upb--node1-TATPOV_clean_sbu_0--edge1-none
_symmetry_space_group_name_H-M    P1
_symmetry_Int_Tables_number       1
_symmetry_cell_setting            triclinic
loop_
_symmetry_equiv_pos_as_xyz
'x, y, z'
_cell_length_a     18.31852
_cell_length_b     18.376378
_cell_length_c     20.412041
_cell_angle_alpha  90.133878
_cell_angle_beta   90.070731
_cell_angle_gamma 89.52567
loop_
_atom_site_label
_atom_site_type_symbol
_atom_site_fract_x
_atom_site_fract_y
_atom_site_fract_z
_atom_type_partial_charge
Zn0 Zn 0.99653 0.17526 0.38027 0.0
Zn1 Zn 0.01057 0.28526 0.33239 0.0
O2 O 0.03029 0.29938 0.43216 0.0
O3 O 0.93946 0.22818 0.4522 0.0
O4 O 0.03533 0.37905 0.28804 0.0
O5 O 0.1076 0.16918 0.38718 0.0
O6 O 0.0849 0.21153 0.29056 0.0
C7 C 0.98434 0.27457 0.47308 0.0
C8 C 0.89139 0.18857 0.29738 0.0
O9 O 0.90219 0.25301 0.31837 0.0
O10 O 0.94693 0.14784 0.29348 0.0
C11 C 0.02396 0.38706 0.22715 0.0
O12 O 0.98243 0.34022 0.19625 0.0
C13 C 0.12654 0.17459 0.32798 0.0
Zn14 Zn 0.83406 0.02157 0.37057 0.0
Zn15 Zn 0.72458 0.02676 0.3191 0.0
O16 O 0.70441 0.04078 0.41935 0.0
O17 O 0.78739 0.95903 0.44023 0.0
O18 O 0.63024 0.04165 0.26939 0.0
O19 O 0.82756 0.13272 0.3792 0.0
O20 O 0.79441 0.10632 0.28075 0.0
C21 C 0.73325 0.99602 0.4596 0.0
C22 C 0.83381 0.91564 0.28629 0.0
O23 O 0.76747 0.92247 0.30428 0.0
O24 O 0.87197 0.97254 0.28696 0.0
C25 C 0.57238 0.06584 0.29647 0.0
O26 O 0.56953 0.0711 0.36055 0.0
C27 C 0.82624 0.15021 0.31953 0.0
Zn28 Zn 0.0012 0.84122 0.36133 0.0
Zn29 Zn 0.99214 0.74011 0.29917 0.0
O30 O 0.96982 0.70881 0.39543 0.0
O31 O 0.05671 0.77976 0.42793 0.0
O32 O 0.97762 0.65508 0.23857 0.0
O33 O 0.89006 0.84614 0.36529 0.0
O34 O 0.91735 0.81884 0.26511 0.0
C35 C 0.0138 0.72829 0.44051 0.0
C36 C 0.10995 0.84313 0.28116 0.0
O37 O 0.09935 0.77619 0.29361 0.0
O38 O 0.05472 0.88452 0.28277 0.0
C39 C 0.95268 0.59399 0.25654 0.0
O40 O 0.94402 0.58064 0.3192 0.0
C41 C 0.87393 0.84984 0.30528 0.0
Zn42 Zn 0.17177 0.99467 0.374 0.0
Zn43 Zn 0.27762 -0.00085 0.31695 0.0
O44 O 0.30282 0.96819 0.41325 0.0
O45 O 0.223 0.04662 0.44863 0.0
O46 O 0.36689 0.98947 0.25998 0.0
O47 O 0.17956 0.88352 0.3668 0.0
O48 O 0.20534 0.92743 0.27186 0.0
C49 C 0.2767 0.00536 0.46064 0.0
C50 C 0.16687 0.11194 0.30232 0.0
O51 O 0.23417 0.10435 0.31701 0.0
O52 O 0.12935 0.05479 0.29876 0.0
C53 C 0.41726 0.94593 0.27794 0.0
O54 O 0.41816 0.92256 0.33865 0.0
C55 C 0.17646 0.87707 0.30534 0.0
Zn56 Zn 0.01018 0.81944 0.60337 0.0
Zn57 Zn 0.01429 0.70835 0.65043 0.0
O58 O 0.03556 0.69332 0.55067 0.0
O59 O 0.95197 0.77406 0.52911 0.0
O60 O 0.03284 0.61329 0.69561 0.0
O61 O 0.12211 0.81467 0.60044 0.0
O62 O 0.0901 0.77655 0.69578 0.0
C63 C 0.99267 0.72295 0.50915 0.0
C64 C 0.90003 0.81341 0.68338 0.0
O65 O 0.9079 0.74835 0.66247 0.0
O66 O 0.95714 0.85113 0.6872 0.0
C67 C 0.02145 0.6092 0.75679 0.0
O68 O 0.98177 0.65991 0.78539 0.0
C69 C 0.1363 0.80996 0.66077 0.0
Zn70 Zn 0.17203 0.98479 0.6121 0.0
Zn71 Zn 0.2775 0.98978 0.6704 0.0
O72 O 0.30129 0.01791 0.57366 0.0
O73 O 0.22963 0.93219 0.54053 0.0
O74 O 0.36614 0.00563 0.72712 0.0
O75 O 0.17033 0.09587 0.6139 0.0
O76 O 0.20087 0.06142 0.71136 0.0
C77 C 0.27911 0.97719 0.52729 0.0
C78 C 0.17403 0.8728 0.68805 0.0
O79 O 0.24074 0.88259 0.67307 0.0
O80 O 0.13412 0.92886 0.69161 0.0
C81 C 0.41329 0.05107 0.7077 0.0
O82 O 0.41068 0.0743 0.64698 0.0
C83 C 0.16883 0.10769 0.6748 0.0
Zn84 Zn 0.98921 0.15448 0.62209 0.0
Zn85 Zn 0.99054 0.25631 0.68377 0.0
O86 O 0.96575 0.28891 0.58784 0.0
O87 O 0.0445 0.20923 0.5522 0.0
O88 O 0.98262 0.34199 0.7449 0.0
O89 O 0.87751 0.15973 0.6238 0.0
O90 O 0.91492 0.18231 0.72187 0.0
C91 C 0.00578 0.26498 0.54133 0.0
C92 C 0.10334 0.14521 0.69803 0.0
O93 O 0.09563 0.21284 0.68614 0.0
O94 O 0.04654 0.1068 0.69664 0.0
C95 C 0.95576 0.40313 0.72812 0.0
O96 O 0.94256 0.41607 0.66598 0.0
C97 C 0.86674 0.15464 0.68462 0.0
Zn98 Zn 0.83533 0.98762 0.61752 0.0
Zn99 Zn 0.72682 0.97381 0.66909 0.0
O100 O 0.70698 0.96199 0.56885 0.0
O101 O 0.78194 0.05038 0.55057 0.0
O102 O 0.63347 0.95356 0.71809 0.0
O103 O 0.83793 0.87742 0.60442 0.0
O104 O 0.80116 0.89481 0.70378 0.0
C105 C 0.73156 0.00995 0.52984 0.0
C106 C 0.82945 0.08829 0.70479 0.0
O107 O 0.76355 0.07949 0.68648 0.0
O108 O 0.87007 0.03253 0.70404 0.0
C109 C 0.5753 0.93228 0.69008 0.0
O110 O 0.57126 0.9325 0.62589 0.0
C111 C 0.83566 0.85514 0.66277 0.0
Zn112 Zn 0.49599 0.67497 0.87999 0.0
Zn113 Zn 0.51089 0.78508 0.83243 0.0
O114 O 0.53038 0.79879 0.93227 0.0
O115 O 0.43915 0.72799 0.95201 0.0
O116 O 0.53619 0.87892 0.78839 0.0
O117 O 0.60695 0.6681 0.88721 0.0
O118 O 0.58509 0.71114 0.79066 0.0
C119 C 0.48422 0.7741 0.97305 0.0
C120 C 0.39124 0.68917 0.79698 0.0
O121 O 0.40236 0.75347 0.81817 0.0
O122 O 0.4466 0.64824 0.79291 0.0
C123 C 0.52422 0.88779 0.72769 0.0
O124 O 0.48193 0.84175 0.69664 0.0
C125 C 0.62632 0.67383 0.82816 0.0
Zn126 Zn 0.33436 0.52259 0.87046 0.0
Zn127 Zn 0.22472 0.52722 0.81913 0.0
O128 O 0.20457 0.54114 0.91941 0.0
O129 O 0.28815 0.45996 0.94026 0.0
O130 O 0.13029 0.54178 0.76951 0.0
O131 O 0.32729 0.63374 0.87895 0.0
O132 O 0.29427 0.6069 0.78059 0.0
C133 C 0.23373 0.49654 0.95962 0.0
C134 C 0.33427 0.41643 0.78632 0.0
O135 O 0.26793 0.42309 0.80434 0.0
O136 O 0.37229 0.47344 0.78691 0.0
C137 C 0.07251 0.56613 0.7966 0.0
O138 O 0.06979 0.57171 0.86066 0.0
C139 C 0.32601 0.65101 0.81923 0.0
Zn140 Zn 0.50189 0.34152 0.86137 0.0
Zn141 Zn 0.49231 0.24052 0.79916 0.0
O142 O 0.46981 0.20921 0.89537 0.0
O143 O 0.55698 0.27975 0.92803 0.0
O144 O 0.47744 0.15564 0.73846 0.0
O145 O 0.39082 0.34718 0.86536 0.0
O146 O 0.4178 0.31955 0.76516 0.0
C147 C 0.51381 0.22846 0.94051 0.0
C148 C 0.61063 0.34297 0.7812 0.0
O149 O 0.59972 0.27608 0.79365 0.0
O150 O 0.55559 0.3846 0.7828 0.0
C151 C 0.45263 0.09447 0.75633 0.0
O152 O 0.44421 0.08082 0.81896 0.0
C153 C 0.37456 0.35076 0.80537 0.0
Zn154 Zn 0.67203 0.49402 0.8741 0.0
Zn155 Zn 0.77806 0.49899 0.81727 0.0
O156 O 0.80315 0.46812 0.91362 0.0
O157 O 0.72285 0.54617 0.94881 0.0
O158 O 0.86745 0.48967 0.76043 0.0
O159 O 0.68047 0.38288 0.86683 0.0
O160 O 0.70609 0.42712 0.772 0.0
C161 C 0.77671 0.50517 0.96094 0.0
C162 C 0.66693 0.61137 0.80246 0.0
O163 O 0.73422 0.60402 0.81727 0.0
O164 O 0.62963 0.55407 0.7988 0.0
C165 C 0.91778 0.44606 0.77834 0.0
O166 O 0.91856 0.42241 0.83897 0.0
C167 C 0.67729 0.37661 0.80536 0.0
Zn168 Zn 0.5098 0.31946 0.10348 0.0
Zn169 Zn 0.51405 0.20833 0.15046 0.0
O170 O 0.53543 0.19346 0.0507 0.0
O171 O 0.45178 0.27413 0.02907 0.0
O172 O 0.53274 0.11324 0.19555 0.0
O173 O 0.62173 0.31489 0.10062 0.0
O174 O 0.58974 0.27658 0.19591 0.0
C175 C 0.49258 0.22308 0.00913 0.0
C176 C 0.3996 0.31318 0.18341 0.0
O177 O 0.40757 0.24816 0.16245 0.0
O178 O 0.45667 0.35095 0.18733 0.0
C179 C 0.5213 0.10897 0.25672 0.0
O180 O 0.48152 0.15952 0.28544 0.0
C181 C 0.63592 0.31007 0.16094 0.0
Zn182 Zn 0.67189 0.48482 0.11237 0.0
Zn183 Zn 0.77736 0.48966 0.1707 0.0
O184 O 0.80126 0.51777 0.07397 0.0
O185 O 0.72951 0.43213 0.04086 0.0
O186 O 0.86599 0.50538 0.22745 0.0
O187 O 0.67036 0.59591 0.11417 0.0
O188 O 0.70076 0.56136 0.21163 0.0
C189 C 0.77906 0.47705 0.02761 0.0
C190 C 0.67373 0.37281 0.1883 0.0
O191 O 0.74046 0.38252 0.17334 0.0
O192 O 0.6339 0.42894 0.19187 0.0
C193 C 0.91346 0.55045 0.20795 0.0
O194 O 0.91123 0.57335 0.14712 0.0
C195 C 0.66878 0.60766 0.17508 0.0
Zn196 Zn 0.48903 0.65398 0.12234 0.0
Zn197 Zn 0.49019 0.75596 0.18381 0.0
O198 O 0.46544 0.78835 0.08782 0.0
O199 O 0.5441 0.70852 0.05222 0.0
O200 O 0.48215 0.84181 0.24474 0.0
O201 O 0.37733 0.65902 0.12403 0.0
O202 O 0.41464 0.68196 0.22207 0.0
C203 C 0.50546 0.76433 0.04133 0.0
C204 C 0.60321 0.64509 0.19827 0.0
O205 O 0.59536 0.71268 0.18627 0.0
O206 O 0.54649 0.60656 0.19694 0.0
C207 C 0.45523 0.90286 0.22781 0.0
O208 O 0.44194 0.91562 0.16564 0.0
C209 C 0.3665 0.65416 0.18485 0.0
Zn210 Zn 0.33524 0.4875 0.11784 0.0
Zn211 Zn 0.22644 0.47362 0.16901 0.0
O212 O 0.20697 0.46216 0.06868 0.0
O213 O 0.28215 0.5505 0.0509 0.0
O214 O 0.13287 0.4534 0.2177 0.0
O215 O 0.33767 0.37733 0.10444 0.0
O216 O 0.3006 0.39446 0.20374 0.0
C217 C 0.23178 0.51022 0.0299 0.0
C218 C 0.32905 0.58795 0.20519 0.0
O219 O 0.26321 0.57922 0.1867 0.0
O220 O 0.36958 0.53212 0.20463 0.0
C221 C 0.07507 0.43146 0.1895 0.0
O222 O 0.07158 0.43087 0.12527 0.0
C223 C 0.33523 0.35489 0.16274 0.0
loop_
_geom_bond_atom_site_label_1
_geom_bond_atom_site_label_2
_geom_bond_distance
_geom_bond_site_symmetry_2
_ccdc_geom_bond_type
Zn0 O3 2.031 1_455 S
Zn0 O5 2.049 . S
Zn0 O10 2.067 1_455 S
Zn1 O2 1.962 . S
Zn1 O4 1.986 . S
Zn1 O6 1.996 . S
Zn1 O9 1.943 1_455 S
O2 Zn1 1.962 . S
O2 C7 1.254 . S
O3 Zn0 2.031 1_655 S
O3 C7 1.269 1_655 S
O4 Zn1 1.986 . S
O4 C11 1.262 . S
O5 Zn0 2.049 . S
O5 C13 1.260 . S
O6 Zn1 1.996 . S
O6 C13 1.257 . S
C7 O2 1.254 . S
C7 O3 1.269 1_455 S
C8 O9 1.249 . S
C8 O10 1.270 . S
O9 Zn1 1.943 1_655 S
O9 C8 1.249 . S
O10 Zn0 2.067 1_655 S
O10 C8 1.270 . S
C11 O4 1.262 . S
C11 O12 1.232 . S
O12 C11 1.232 . S
C13 O5 1.260 . S
C13 O6 1.257 . S
Zn14 O17 2.031 1_545 S
Zn14 O19 2.049 . S
Zn14 O24 2.067 1_545 S
Zn15 O16 1.962 . S
Zn15 O18 1.986 . S
Zn15 O20 1.996 . S
Zn15 O23 1.943 1_545 S
O16 Zn15 1.962 . S
O16 C21 1.254 . S
O17 Zn14 2.031 1_565 S
O17 C21 1.269 1_565 S
O18 Zn15 1.986 . S
O18 C25 1.262 . S
O19 Zn14 2.049 . S
O19 C27 1.260 . S
O20 Zn15 1.996 . S
O20 C27 1.257 . S
C21 O16 1.254 . S
C21 O17 1.269 1_545 S
C22 O23 1.249 . S
C22 O24 1.270 . S
O23 Zn15 1.943 1_565 S
O23 C22 1.249 . S
O24 Zn14 2.067 1_565 S
O24 C22 1.270 . S
C25 O18 1.262 . S
C25 O26 1.232 . S
O26 C25 1.232 . S
C27 O19 1.260 . S
C27 O20 1.257 . S
Zn28 O31 2.031 1_655 S
Zn28 O33 2.049 . S
Zn28 O38 2.067 1_655 S
Zn29 O30 1.962 . S
Zn29 O32 1.986 . S
Zn29 O34 1.996 . S
Zn29 O37 1.943 1_655 S
O30 Zn29 1.962 . S
O30 C35 1.254 . S
O31 Zn28 2.031 1_455 S
O31 C35 1.269 1_455 S
O32 Zn29 1.986 . S
O32 C39 1.262 . S
O33 Zn28 2.049 . S
O33 C41 1.260 . S
O34 Zn29 1.996 . S
O34 C41 1.257 . S
C35 O30 1.254 . S
C35 O31 1.269 1_655 S
C36 O37 1.249 . S
C36 O38 1.270 . S
O37 Zn29 1.943 1_455 S
O37 C36 1.249 . S
O38 Zn28 2.067 1_455 S
O38 C36 1.270 . S
C39 O32 1.262 . S
C39 O40 1.232 . S
O40 C39 1.232 . S
C41 O33 1.260 . S
C41 O34 1.257 . S
Zn42 O45 2.031 1_565 S
Zn42 O47 2.049 . S
Zn42 O52 2.067 1_565 S
Zn43 O44 1.962 . S
Zn43 O46 1.986 . S
Zn43 O48 1.996 . S
Zn43 O51 1.943 1_565 S
O44 Zn43 1.962 . S
O44 C49 1.254 . S
O45 Zn42 2.031 1_545 S
O45 C49 1.269 1_545 S
O46 Zn43 1.986 . S
O46 C53 1.262 . S
O47 Zn42 2.049 . S
O47 C55 1.260 . S
O48 Zn43 1.996 . S
O48 C55 1.257 . S
C49 O44 1.254 . S
C49 O45 1.269 1_565 S
C50 O51 1.249 . S
C50 O52 1.270 . S
O51 Zn43 1.943 1_545 S
O51 C50 1.249 . S
O52 Zn42 2.067 1_545 S
O52 C50 1.270 . S
C53 O46 1.262 . S
C53 O54 1.232 . S
O54 C53 1.232 . S
C55 O47 1.260 . S
C55 O48 1.257 . S
Zn56 O59 2.031 1_455 S
Zn56 O61 2.049 . S
Zn56 O66 2.067 1_455 S
Zn57 O58 1.962 . S
Zn57 O60 1.986 . S
Zn57 O62 1.996 . S
Zn57 O65 1.943 1_455 S
O58 Zn57 1.962 . S
O58 C63 1.254 . S
O59 Zn56 2.031 1_655 S
O59 C63 1.269 1_655 S
O60 Zn57 1.986 . S
O60 C67 1.262 . S
O61 Zn56 2.049 . S
O61 C69 1.260 . S
O62 Zn57 1.996 . S
O62 C69 1.257 . S
C63 O58 1.254 . S
C63 O59 1.269 1_455 S
C64 O65 1.249 . S
C64 O66 1.270 . S
O65 Zn57 1.943 1_655 S
O65 C64 1.249 . S
O66 Zn56 2.067 1_655 S
O66 C64 1.270 . S
C67 O60 1.262 . S
C67 O68 1.232 . S
O68 C67 1.232 . S
C69 O61 1.260 . S
C69 O62 1.257 . S
Zn70 O73 2.031 1_545 S
Zn70 O75 2.049 . S
Zn70 O80 2.067 1_545 S
Zn71 O72 1.962 . S
Zn71 O74 1.986 . S
Zn71 O76 1.996 . S
Zn71 O79 1.943 1_545 S
O72 Zn71 1.962 . S
O72 C77 1.254 . S
O73 Zn70 2.031 1_565 S
O73 C77 1.269 1_565 S
O74 Zn71 1.986 . S
O74 C81 1.262 . S
O75 Zn70 2.049 . S
O75 C83 1.260 . S
O76 Zn71 1.996 . S
O76 C83 1.257 . S
C77 O72 1.254 . S
C77 O73 1.269 1_545 S
C78 O79 1.249 . S
C78 O80 1.270 . S
O79 Zn71 1.943 1_565 S
O79 C78 1.249 . S
O80 Zn70 2.067 1_565 S
O80 C78 1.270 . S
C81 O74 1.262 . S
C81 O82 1.232 . S
O82 C81 1.232 . S
C83 O75 1.260 . S
C83 O76 1.257 . S
Zn84 O87 2.031 1_655 S
Zn84 O89 2.049 . S
Zn84 O94 2.067 1_655 S
Zn85 O86 1.962 . S
Zn85 O88 1.986 . S
Zn85 O90 1.996 . S
Zn85 O93 1.943 1_655 S
O86 Zn85 1.962 . S
O86 C91 1.254 . S
O87 Zn84 2.031 1_455 S
O87 C91 1.269 1_455 S
O88 Zn85 1.986 . S
O88 C95 1.262 . S
O89 Zn84 2.049 . S
O89 C97 1.260 . S
O90 Zn85 1.996 . S
O90 C97 1.257 . S
C91 O86 1.254 . S
C91 O87 1.269 1_655 S
C92 O93 1.249 . S
C92 O94 1.270 . S
O93 Zn85 1.943 1_455 S
O93 C92 1.249 . S
O94 Zn84 2.067 1_455 S
O94 C92 1.270 . S
C95 O88 1.262 . S
C95 O96 1.232 . S
O96 C95 1.232 . S
C97 O89 1.260 . S
C97 O90 1.257 . S
Zn98 O101 2.031 1_565 S
Zn98 O103 2.049 . S
Zn98 O108 2.067 1_565 S
Zn99 O100 1.962 . S
Zn99 O102 1.986 . S
Zn99 O104 1.996 . S
Zn99 O107 1.943 1_565 S
O100 Zn99 1.962 . S
O100 C105 1.254 . S
O101 Zn98 2.031 1_545 S
O101 C105 1.269 1_545 S
O102 Zn99 1.986 . S
O102 C109 1.262 . S
O103 Zn98 2.049 . S
O103 C111 1.260 . S
O104 Zn99 1.996 . S
O104 C111 1.257 . S
C105 O100 1.254 . S
C105 O101 1.269 1_565 S
C106 O107 1.249 . S
C106 O108 1.270 . S
O107 Zn99 1.943 1_545 S
O107 C106 1.249 . S
O108 Zn98 2.067 1_545 S
O108 C106 1.270 . S
C109 O102 1.262 . S
C109 O110 1.232 . S
O110 C109 1.232 . S
C111 O103 1.260 . S
C111 O104 1.257 . S
Zn112 O115 2.031 . S
Zn112 O117 2.049 . S
Zn112 O122 2.067 . S
Zn113 O114 1.962 . S
Zn113 O116 1.986 . S
Zn113 O118 1.996 . S
Zn113 O121 1.943 . S
O114 Zn113 1.962 . S
O114 C119 1.254 . S
O115 Zn112 2.031 . S
O115 C119 1.269 . S
O116 Zn113 1.986 . S
O116 C123 1.262 . S
O117 Zn112 2.049 . S
O117 C125 1.260 . S
O118 Zn113 1.996 . S
O118 C125 1.257 . S
C119 O114 1.254 . S
C119 O115 1.269 . S
C120 O121 1.249 . S
C120 O122 1.270 . S
O121 Zn113 1.943 . S
O121 C120 1.249 . S
O122 Zn112 2.067 . S
O122 C120 1.270 . S
C123 O116 1.262 . S
C123 O124 1.232 . S
O124 C123 1.232 . S
C125 O117 1.260 . S
C125 O118 1.257 . S
Zn126 O129 2.031 . S
Zn126 O131 2.049 . S
Zn126 O136 2.067 . S
Zn127 O128 1.962 . S
Zn127 O130 1.986 . S
Zn127 O132 1.996 . S
Zn127 O135 1.943 . S
O128 Zn127 1.962 . S
O128 C133 1.254 . S
O129 Zn126 2.031 . S
O129 C133 1.269 . S
O130 Zn127 1.986 . S
O130 C137 1.262 . S
O131 Zn126 2.049 . S
O131 C139 1.260 . S
O132 Zn127 1.996 . S
O132 C139 1.257 . S
C133 O128 1.254 . S
C133 O129 1.269 . S
C134 O135 1.249 . S
C134 O136 1.270 . S
O135 Zn127 1.943 . S
O135 C134 1.249 . S
O136 Zn126 2.067 . S
O136 C134 1.270 . S
C137 O130 1.262 . S
C137 O138 1.232 . S
O138 C137 1.232 . S
C139 O131 1.260 . S
C139 O132 1.257 . S
Zn140 O143 2.031 . S
Zn140 O145 2.049 . S
Zn140 O150 2.067 . S
Zn141 O142 1.962 . S
Zn141 O144 1.986 . S
Zn141 O146 1.996 . S
Zn141 O149 1.943 . S
O142 Zn141 1.962 . S
O142 C147 1.254 . S
O143 Zn140 2.031 . S
O143 C147 1.269 . S
O144 Zn141 1.986 . S
O144 C151 1.262 . S
O145 Zn140 2.049 . S
O145 C153 1.260 . S
O146 Zn141 1.996 . S
O146 C153 1.257 . S
C147 O142 1.254 . S
C147 O143 1.269 . S
C148 O149 1.249 . S
C148 O150 1.270 . S
O149 Zn141 1.943 . S
O149 C148 1.249 . S
O150 Zn140 2.067 . S
O150 C148 1.270 . S
C151 O144 1.262 . S
C151 O152 1.232 . S
O152 C151 1.232 . S
C153 O145 1.260 . S
C153 O146 1.257 . S
Zn154 O157 2.031 . S
Zn154 O159 2.049 . S
Zn154 O164 2.067 . S
Zn155 O156 1.962 . S
Zn155 O158 1.986 . S
Zn155 O160 1.996 . S
Zn155 O163 1.943 . S
O156 Zn155 1.962 . S
O156 C161 1.254 . S
O157 Zn154 2.031 . S
O157 C161 1.269 . S
O158 Zn155 1.986 . S
O158 C165 1.262 . S
O159 Zn154 2.049 . S
O159 C167 1.260 . S
O160 Zn155 1.996 . S
O160 C167 1.257 . S
C161 O156 1.254 . S
C161 O157 1.269 . S
C162 O163 1.249 . S
C162 O164 1.270 . S
O163 Zn155 1.943 . S
O163 C162 1.249 . S
O164 Zn154 2.067 . S
O164 C162 1.270 . S
C165 O158 1.262 . S
C165 O166 1.232 . S
O166 C165 1.232 . S
C167 O159 1.260 . S
C167 O160 1.257 . S
Zn168 O171 2.031 . S
Zn168 O173 2.049 . S
Zn168 O178 2.067 . S
Zn169 O170 1.962 . S
Zn169 O172 1.986 . S
Zn169 O174 1.996 . S
Zn169 O177 1.943 . S
O170 Zn169 1.962 . S
O170 C175 1.254 . S
O171 Zn168 2.031 . S
O171 C175 1.269 . S
O172 Zn169 1.986 . S
O172 C179 1.262 . S
O173 Zn168 2.049 . S
O173 C181 1.260 . S
O174 Zn169 1.996 . S
O174 C181 1.257 . S
C175 O170 1.254 . S
C175 O171 1.269 . S
C176 O177 1.249 . S
C176 O178 1.270 . S
O177 Zn169 1.943 . S
O177 C176 1.249 . S
O178 Zn168 2.067 . S
O178 C176 1.270 . S
C179 O172 1.262 . S
C179 O180 1.232 . S
O180 C179 1.232 . S
C181 O173 1.260 . S
C181 O174 1.257 . S
Zn182 O185 2.031 . S
Zn182 O187 2.049 . S
Zn182 O192 2.067 . S
Zn183 O184 1.962 . S
Zn183 O186 1.986 . S
Zn183 O188 1.996 . S
Zn183 O191 1.943 . S
O184 Zn183 1.962 . S
O184 C189 1.254 . S
O185 Zn182 2.031 . S
O185 C189 1.269 . S
O186 Zn183 1.986 . S
O186 C193 1.262 . S
O187 Zn182 2.049 . S
O187 C195 1.260 . S
O188 Zn183 1.996 . S
O188 C195 1.257 . S
C189 O184 1.254 . S
C189 O185 1.269 . S
C190 O191 1.249 . S
C190 O192 1.270 . S
O191 Zn183 1.943 . S
O191 C190 1.249 . S
O192 Zn182 2.067 . S
O192 C190 1.270 . S
C193 O186 1.262 . S
C193 O194 1.232 . S
O194 C193 1.232 . S
C195 O187 1.260 . S
C195 O188 1.257 . S
Zn196 O199 2.031 . S
Zn196 O201 2.049 . S
Zn196 O206 2.067 . S
Zn197 O198 1.962 . S
Zn197 O200 1.986 . S
Zn197 O202 1.996 . S
Zn197 O205 1.943 . S
O198 Zn197 1.962 . S
O198 C203 1.254 . S
O199 Zn196 2.031 . S
O199 C203 1.269 . S
O200 Zn197 1.986 . S
O200 C207 1.262 . S
O201 Zn196 2.049 . S
O201 C209 1.260 . S
O202 Zn197 1.996 . S
O202 C209 1.257 . S
C203 O198 1.254 . S
C203 O199 1.269 . S
C204 O205 1.249 . S
C204 O206 1.270 . S
O205 Zn197 1.943 . S
O205 C204 1.249 . S
O206 Zn196 2.067 . S
O206 C204 1.270 . S
C207 O200 1.262 . S
C207 O208 1.232 . S
O208 C207 1.232 . S
C209 O201 1.260 . S
C209 O202 1.257 . S
Zn210 O213 2.031 . S
Zn210 O215 2.049 . S
Zn210 O220 2.067 . S
Zn211 O212 1.962 . S
Zn211 O214 1.986 . S
Zn211 O216 1.996 . S
Zn211 O219 1.943 . S
O212 Zn211 1.962 . S
O212 C217 1.254 . S
O213 Zn210 2.031 . S
O213 C217 1.269 . S
O214 Zn211 1.986 . S
O214 C221 1.262 . S
O215 Zn210 2.049 . S
O215 C223 1.260 . S
O216 Zn211 1.996 . S
O216 C223 1.257 . S
C217 O212 1.254 . S
C217 O213 1.269 . S
C218 O219 1.249 . S
C218 O220 1.270 . S
O219 Zn211 1.943 . S
O219 C218 1.249 . S
O220 Zn210 2.067 . S
O220 C218 1.270 . S
C221 O214 1.262 . S
C221 O222 1.232 . S
O222 C221 1.232 . S
C223 O215 1.260 . S
C223 O216 1.257 . S
C13 C50 1.275 . S
C8 C27 1.275 . S
C22 C41 1.275 . S
C36 C55 1.275 . S
C69 C78 1.275 . S
C83 C92 1.275 . S
C97 C106 1.275 . S
C111 C64 1.275 . S
C125 C162 1.275 . S
C120 C139 1.275 . S
C134 C153 1.275 . S
C167 C148 1.275 . S
C190 C181 1.275 . S
C204 C195 1.275 . S
C209 C218 1.275 . S
C223 C176 1.275 . S
C11 C221 1.256 . S
C25 C179 1.256 . S
C193 C39 1.256 . S
C53 C207 1.256 . S
C137 C67 1.256 . S
C151 C81 1.256 . S
C95 C165 1.256 . S
C109 C123 1.256 . S
C7 C91 1.401 1_455 S
C105 C21 1.401 1_565 S
C63 C35 1.401 1_455 S
C77 C49 1.401 1_545 S
C119 C203 1.401 1_556 S
C133 C217 1.401 1_556 S
C175 C147 1.401 1_554 S
C161 C189 1.401 1_556 S
