# Generated by pormake.
# Topology sqp, (5)-cn, num edge types: 1
# Building blocks:
#     Node 0, Type 0, BuildingBlock: XOMCOT_clean_sbu_1, # of connection points: 5
#     Node 1, Type 0, BuildingBlock: XOMCOT_clean_sbu_1, # of connection points: 5
#     Node 2, Type 0, BuildingBlock: XOMCOT_clean_sbu_1, # of connection points: 5
#     Node 3, Type 0, BuildingBlock: XOMCOT_clean_sbu_1, # of connection points: 5
#     Edge 4, Type (0, 0), BuildingBlock: OJICUG_clean_linker_0, # of connection points: 2
#     Edge 5, Type (0, 0), BuildingBlock: OJICUG_clean_linker_0, # of connection points: 2
#     Edge 6, Type (0, 0), BuildingBlock: OJICUG_clean_linker_0, # of connection points: 2
#     Edge 7, Type (0, 0), BuildingBlock: OJICUG_clean_linker_0, # of connection points: 2
#     Edge 8, Type (0, 0), BuildingBlock: OJICUG_clean_linker_0, # of connection points: 2
#     Edge 9, Type (0, 0), BuildingBlock: OJICUG_clean_linker_0, # of connection points: 2
#     Edge 10, Type (0, 0), BuildingBlock: OJICUG_clean_linker_0, # of connection points: 2
#     Edge 11, Type (0, 0), BuildingBlock: OJICUG_clean_linker_0, # of connection points: 2
#     Edge 12, Type (0, 0), BuildingBlock: OJICUG_clean_linker_0, # of connection points: 2
#     Edge 13, Type (0, 0), BuildingBlock: OJICUG_clean_linker_0, # of connection points: 2
# Relax obj value: 0.084
# Max RMSD: 0.167
# Mean RMSD: 0.167
data_MOF--net-sqp--node1-XOMCOT_clean_sbu_1--edge1-OJICUG_clean_linker_0
_symmetry_space_group_name_H-M    P1
_symmetry_Int_Tables_number       1
_symmetry_cell_setting            triclinic
loop_
_symmetry_equiv_pos_as_xyz
'x, y, z'
_cell_length_a     17.158534
_cell_length_b     13.817088
_cell_length_c     39.683322
_cell_angle_alpha  90.068059
_cell_angle_beta   102.97394
_cell_angle_gamma 90.051098
loop_
_atom_site_label
_atom_site_type_symbol
_atom_site_fract_x
_atom_site_fract_y
_atom_site_fract_z
_atom_type_partial_charge
C0 C 0.03377 0.22863 0.31075 0.0
C1 C 0.96702 0.28534 0.29902 0.0
N2 N 0.92954 0.25355 0.26737 0.0
N3 N 0.03807 0.16119 0.28666 0.0
C4 C 0.97459 0.17925 0.26045 0.0
H5 H 0.07557 0.23501 0.33549 0.0
Co6 Co 0.11245 1.06146 0.28856 0.0
C7 C 1.00967 0.89215 0.26047 0.0
O8 O 0.05148 0.83411 0.28386 0.0
N9 N 0.18875 0.95903 0.28977 0.0
C10 C 0.26782 0.82945 0.30283 0.0
C11 C 0.21461 0.88952 0.31377 0.0
C12 C 0.22765 0.93808 0.26446 0.0
N13 N 0.27601 0.86005 0.27168 0.0
O14 O 0.13986 0.11369 0.24832 0.0
H15 H 0.19388 0.87867 0.33722 0.0
H16 H 0.22027 0.9787 0.24078 0.0
O17 O 1.02867 0.98147 0.26022 0.0
C18 C 0.19394 0.17728 0.25839 0.0
O19 O 0.21635 0.1951 0.29172 0.0
N20 N 0.09048 1.02095 0.33021 0.0
C21 C 0.07276 1.00422 0.3978 0.0
C22 C 1.0086 0.98266 0.37004 0.0
C23 C 1.01862 0.99184 0.3361 0.0
C24 C 0.15216 1.04492 0.35707 0.0
C25 C 0.14532 1.03462 0.3911 0.0
H26 H 0.96764 0.98142 0.31483 0.0
H27 H 0.20685 0.07385 0.35184 0.0
H28 H 0.96209 0.13901 0.23648 0.0
H29 H 0.94672 0.3437 0.31311 0.0
H30 H 0.2956 0.76586 0.31625 0.0
H31 H 0.95072 0.96291 0.37458 0.0
H32 H 0.1949 1.05525 0.41199 0.0
C33 C 0.10673 0.29609 0.62923 0.0
C34 C 0.17375 0.35239 0.64101 0.0
N35 N 0.21199 0.31916 0.67229 0.0
N36 N 0.10292 0.22735 0.65289 0.0
C37 C 0.16714 0.24422 0.67894 0.0
H38 H 0.06398 0.30431 0.60485 0.0
Co39 Co 1.0267 0.12941 0.65062 0.0
C40 C 0.12389 0.95703 0.6805 0.0
O41 O 0.07739 0.89719 0.65929 0.0
N42 N 0.94829 1.02936 0.64881 0.0
C43 C 0.85936 0.91024 0.63289 0.0
C44 C 0.915 0.9682 0.62279 0.0
C45 C 0.91201 1.00479 0.67462 0.0
N46 N 0.85712 0.9335 0.66554 0.0
O47 O 0.99934 0.18224 0.69088 0.0
H48 H 0.93023 0.96304 0.59795 0.0
H49 H 0.92668 1.03731 0.70002 0.0
O50 O 0.1089 1.04763 0.67889 0.0
C51 C 0.94607 0.24663 0.68079 0.0
O52 O 0.92397 0.26425 0.64746 0.0
N53 N 0.0481 0.08824 0.60893 0.0
C54 C 0.05592 1.05475 0.54041 0.0
C55 C 0.1183 1.02463 0.56792 0.0
C56 C 0.11359 1.04294 0.60221 0.0
C57 C 0.98943 0.12205 0.58262 0.0
C58 C 0.99082 0.10371 0.54839 0.0
H59 H 0.16322 1.02321 0.62298 0.0
H60 H 0.93957 0.16125 0.5885 0.0
H61 H 0.18004 0.20317 0.70268 0.0
H62 H 0.19345 0.41187 0.62726 0.0
H63 H 0.8231 0.85568 0.61712 0.0
H64 H 0.17115 0.98969 0.56306 0.0
H65 H 0.94062 0.12752 0.52846 0.0
C66 C 0.52416 0.79643 0.81029 0.0
C67 C 0.45645 0.8517 0.79891 0.0
N68 N 0.41856 0.81937 0.7674 0.0
N69 N 0.52882 0.72941 0.78611 0.0
C70 C 0.46429 0.7461 0.76021 0.0
H71 H 0.56668 0.80384 0.8348 0.0
Co72 Co 0.60564 0.63244 0.7876 0.0
C73 C 0.50476 0.45959 0.7602 0.0
O74 O 0.54845 0.40112 0.78283 0.0
N75 N 0.68405 0.53257 0.78853 0.0
C76 C 0.76319 0.40302 0.80138 0.0
C77 C 0.70901 0.4618 0.81213 0.0
C78 C 0.72488 0.51395 0.76368 0.0
N79 N 0.77314 0.4357 0.77075 0.0
O80 O 0.62956 0.68461 0.74652 0.0
H81 H 0.68662 0.44882 0.83505 0.0
H82 H 0.71867 0.55609 0.74039 0.0
O83 O 0.52245 0.54941 0.76029 0.0
C84 C 0.67565 0.75757 0.75444 0.0
O85 O 0.69424 0.78584 0.7869 0.0
N86 N 0.58774 0.59179 0.82992 0.0
C87 C 0.5845 0.55631 0.89882 0.0
C88 C 0.51782 0.53441 0.87193 0.0
C89 C 0.52042 0.55345 0.83747 0.0
C90 C 0.65083 0.61828 0.85567 0.0
C91 C 0.65165 0.5984 0.89002 0.0
H92 H 0.46792 0.54008 0.81721 0.0
H93 H 0.70217 0.65279 0.84919 0.0
H94 H 0.45167 0.70597 0.73622 0.0
H95 H 0.43592 0.90968 0.8131 0.0
H96 H 0.79 0.33846 0.81443 0.0
H97 H 0.46337 0.5054 0.87739 0.0
H98 H 0.70506 0.61581 0.90937 0.0
C99 C 0.61164 0.72907 0.12933 0.0
C100 C 0.67856 0.7858 0.14095 0.0
N101 N 0.71657 0.7537 0.17244 0.0
N102 N 0.60778 0.66137 0.15334 0.0
C103 C 0.67168 0.67927 0.17939 0.0
H104 H 0.56946 0.7355 0.1047 0.0
Co105 Co 0.53366 0.56128 0.15147 0.0
C106 C 0.63765 0.39269 0.17886 0.0
O107 O 0.59684 0.33523 0.1549 0.0
N108 N 0.45761 0.45834 0.15032 0.0
C109 C 0.37975 0.32732 0.1376 0.0
C110 C 0.43308 0.38731 0.12668 0.0
C111 C 0.41779 0.43838 0.17538 0.0
N112 N 0.3702 0.35951 0.16837 0.0
O113 O 0.50641 0.61354 0.1918 0.0
H114 H 0.45492 0.37534 0.10355 0.0
H115 H 0.42395 0.48025 0.19877 0.0
O116 O 0.61776 0.48156 0.17968 0.0
C117 C 0.45218 0.6768 0.18172 0.0
O118 O 0.42966 0.69413 0.14837 0.0
N119 N 0.55539 0.52094 0.10971 0.0
C120 C 0.57264 0.50449 0.042 0.0
C121 C 0.63762 0.48585 0.06971 0.0
C122 C 0.62778 0.49466 0.1037 0.0
C123 C 0.49292 0.54249 0.08291 0.0
C124 C 0.49948 0.53192 0.04884 0.0
H125 H 0.67916 0.48627 0.12492 0.0
H126 H 0.43774 0.56957 0.08821 0.0
H127 H 0.68465 0.63877 0.20326 0.0
H128 H 0.69865 0.84432 0.12689 0.0
H129 H 0.35295 0.26268 0.12449 0.0
H130 H 0.69583 0.46818 0.0651 0.0
H131 H 0.44911 0.55031 0.02802 0.0
C132 C 1.02602 0.09295 0.44357 0.0
C133 C 0.06194 1.01038 0.43344 0.0
H134 H 0.99956 0.17423 0.48515 0.0
C135 C 0.0963 0.94163 0.45832 0.0
H136 H 1.00128 0.14806 0.4248 0.0
C137 C 0.09398 0.95513 0.49307 0.0
C138 C 0.05871 1.03871 0.50353 0.0
H139 H 0.12563 0.87825 0.4509 0.0
H140 H 0.11973 0.90014 0.51165 0.0
C141 C 1.02508 0.10752 0.47822 0.0
C142 C 0.62657 0.58584 -0.00345 0.0
C143 C 0.58255 0.50956 0.00616 0.0
H144 H 0.65824 0.6638 0.95543 0.0
C145 C 0.53974 0.44724 -0.01933 0.0
H146 H 0.65812 0.63629 0.0158 0.0
C147 C 0.54125 0.46102 0.94587 0.0
C148 C 0.58399 0.53899 0.9359 0.0
H149 H 0.50441 0.38872 -0.01233 0.0
H150 H 0.50869 0.41075 0.92688 0.0
C151 C 0.62656 0.60117 0.96184 0.0
C152 C 0.21705 0.20662 0.1987 0.0
C153 C 0.23589 0.22597 0.23436 0.0
H154 H 0.24415 0.23516 0.14954 0.0
C155 C 0.29818 0.29106 0.24767 0.0
H156 H 0.16934 0.15677 0.18769 0.0
C157 C 0.34153 0.33478 0.22609 0.0
C158 C 0.32359 0.31542 0.19041 0.0
H159 H 0.31468 0.30749 0.27505 0.0
H160 H 0.39034 0.38212 0.23777 0.0
C161 C 0.26038 0.2511 0.17692 0.0
C162 C 0.82962 0.38387 0.2489 0.0
C163 C 0.85545 0.28831 0.24586 0.0
H164 H 0.74072 0.4916 0.2305 0.0
C165 C 0.80749 0.22689 0.22135 0.0
H166 H 0.86512 0.43334 0.26733 0.0
C167 C 0.73644 0.26046 0.20007 0.0
C168 C 0.71124 0.35639 0.20271 0.0
H169 H 0.82436 0.15233 0.2187 0.0
H170 H 0.70158 0.21108 0.18137 0.0
C171 C 0.75837 0.41747 0.2276 0.0
C172 C 0.8167 0.884 0.19101 0.0
C173 C 0.79103 0.78824 0.19379 0.0
H174 H 0.90575 0.99174 0.20953 0.0
C175 C 0.83946 0.72639 0.21787 0.0
H176 H 0.78084 0.93375 0.1729 0.0
C177 C 0.91082 0.75978 0.23903 0.0
C178 C 0.93583 0.85594 0.2367 0.0
H179 H 0.82268 0.65166 0.22028 0.0
H180 H 0.94604 0.71011 0.25743 0.0
C181 C 0.88824 0.91743 0.2122 0.0
C182 C 0.30391 0.83356 0.21388 0.0
C183 C 0.32243 0.81551 0.24963 0.0
H184 H 0.33033 0.8051 0.1649 0.0
C185 C 0.38616 0.75217 0.2632 0.0
H186 H 0.25473 0.8801 0.20213 0.0
C187 C 0.42946 0.70743 0.24143 0.0
C188 C 0.41011 0.72557 0.20572 0.0
H189 H 0.40288 0.73723 0.29062 0.0
H190 H 0.4776 0.65841 0.25252 0.0
C191 C 0.34725 0.78963 0.19232 0.0
C192 C 0.29493 0.7914 0.72229 0.0
C193 C 0.34391 0.85355 0.74617 0.0
H194 H 0.18729 0.77469 0.6832 0.0
C195 C 0.31857 0.9494 0.74894 0.0
H196 H 0.31171 0.71668 0.71985 0.0
C197 C 0.24675 0.9826 0.72802 0.0
C198 C 0.19832 0.92078 0.70383 0.0
H199 H 0.35488 0.9994 0.76687 0.0
H200 H 0.22947 1.05692 0.73079 0.0
C201 C 0.22304 0.82451 0.70145 0.0
C202 C 0.31119 0.45025 0.69113 0.0
C203 C 0.28607 0.3542 0.69384 0.0
H204 H 0.39974 0.55853 0.70954 0.0
C205 C 0.33478 0.29266 0.71795 0.0
H206 H 0.2751 0.49989 0.67307 0.0
C207 C 0.40609 0.32654 0.73907 0.0
C208 C 0.43068 0.4229 0.73669 0.0
H209 H 0.31832 0.21781 0.72036 0.0
H210 H 0.44165 0.27709 0.75744 0.0
C211 C 0.3826 0.48413 0.71227 0.0
C212 C 0.84467 0.36458 0.69151 0.0
C213 C 0.90537 0.29761 0.70481 0.0
H214 H 0.75466 0.45908 0.70143 0.0
C215 C 0.92399 0.2789 0.74048 0.0
H216 H 0.82852 0.38079 0.66413 0.0
C217 C 0.88174 0.32542 0.76225 0.0
C218 C 0.81974 0.39119 0.74876 0.0
H219 H 0.97059 0.22784 0.75151 0.0
H220 H 0.89771 0.3096 0.78962 0.0
C221 C 0.80237 0.41043 0.7131 0.0
C222 C 0.7247 0.75762 0.69934 0.0
C223 C 0.7145 0.80553 0.72924 0.0
H224 H 0.77989 0.7592 0.65614 0.0
C225 C 0.74828 0.89786 0.73682 0.0
H226 H 0.69975 0.68613 0.69297 0.0
C227 C 0.79338 0.94039 0.71561 0.0
C228 C 0.80685 0.89121 0.68642 0.0
H229 H 0.74076 0.93709 0.75953 0.0
H230 H 0.81791 1.01177 0.72234 0.0
C231 C 0.77081 0.79977 0.67825 0.0
loop_
_geom_bond_atom_site_label_1
_geom_bond_atom_site_label_2
_geom_bond_distance
_geom_bond_site_symmetry_2
_ccdc_geom_bond_type
C0 C1 1.351 . S
C0 N3 1.368 . S
C0 H5 0.931 1_655 S
C1 C0 1.351 . S
C1 N2 1.373 . S
C1 H29 0.930 . S
N2 C1 1.373 . S
N2 C4 1.340 . S
N3 C0 1.368 . S
N3 C4 1.321 . S
N3 Co6 2.135 1_655 S
C4 N2 1.340 . S
C4 N3 1.321 . S
C4 H28 0.930 . S
H5 C0 0.931 1_455 S
Co6 N3 2.135 1_455 S
Co6 N9 2.121 1_545 S
Co6 O14 2.055 . S
Co6 O17 2.039 1_445 S
Co6 N20 2.140 . S
C7 O8 1.227 . S
C7 O17 1.265 . S
O8 C7 1.227 . S
N9 Co6 2.121 1_565 S
N9 C11 1.375 . S
N9 C12 1.313 . S
C10 C11 1.338 . S
C10 N13 1.377 . S
C10 H30 0.930 . S
C11 N9 1.375 . S
C11 C10 1.338 . S
C11 H15 0.931 . S
C12 N9 1.313 . S
C12 N13 1.344 . S
C12 H16 0.930 . S
N13 C10 1.377 . S
N13 C12 1.344 . S
O14 Co6 2.055 . S
O14 C18 1.253 . S
H15 C11 0.931 . S
H16 C12 0.930 . S
O17 Co6 2.039 1_665 S
O17 C7 1.265 . S
C18 O14 1.253 . S
C18 O19 1.227 . S
O19 C18 1.227 . S
N20 Co6 2.140 . S
N20 C23 1.346 1_455 S
N20 C24 1.345 1_545 S
C21 C22 1.387 1_465 S
C21 C25 1.391 . S
C22 C21 1.387 1_645 S
C22 C23 1.369 . S
C22 H31 0.929 . S
C23 N20 1.346 1_655 S
C23 C22 1.369 . S
C23 H26 0.928 . S
C24 N20 1.345 1_565 S
C24 C25 1.371 . S
C24 H27 0.931 . S
C25 C21 1.391 . S
C25 C24 1.371 . S
C25 H32 0.930 . S
H26 C23 0.928 . S
H27 C24 0.931 . S
H28 C4 0.930 . S
H29 C1 0.930 . S
H30 C10 0.930 . S
H31 C22 0.929 . S
H32 C25 0.930 . S
C33 C34 1.351 . S
C33 N36 1.368 . S
C33 H38 0.931 . S
C34 C33 1.351 . S
C34 N35 1.373 . S
C34 H62 0.930 . S
N35 C34 1.373 . S
N35 C37 1.340 . S
N36 C33 1.368 . S
N36 C37 1.321 . S
N36 Co39 2.135 . S
C37 N35 1.340 . S
C37 N36 1.321 . S
C37 H61 0.930 . S
H38 C33 0.931 . S
Co39 N36 2.135 . S
Co39 N42 2.121 1_445 S
Co39 O47 2.055 1_455 S
Co39 O50 2.039 1_545 S
Co39 N53 2.140 . S
C40 O41 1.227 . S
C40 O50 1.265 . S
O41 C40 1.227 . S
N42 Co39 2.121 1_665 S
N42 C44 1.375 . S
N42 C45 1.313 . S
C43 C44 1.338 . S
C43 N46 1.377 . S
C43 H63 0.930 . S
C44 N42 1.375 . S
C44 C43 1.338 . S
C44 H48 0.931 1_655 S
C45 N42 1.313 . S
C45 N46 1.344 . S
C45 H49 0.930 . S
N46 C43 1.377 . S
N46 C45 1.344 . S
O47 Co39 2.055 1_655 S
O47 C51 1.253 . S
H48 C44 0.931 1_455 S
H49 C45 0.930 . S
O50 Co39 2.039 1_565 S
O50 C40 1.265 . S
C51 O47 1.253 . S
C51 O52 1.227 . S
O52 C51 1.227 . S
N53 Co39 2.140 . S
N53 C56 1.346 . S
N53 C57 1.345 1_445 S
C54 C55 1.387 1_565 S
C54 C58 1.391 1_455 S
C55 C54 1.387 1_545 S
C55 C56 1.369 . S
C55 H64 0.929 . S
C56 N53 1.346 . S
C56 C55 1.369 . S
C56 H59 0.928 . S
C57 N53 1.345 1_665 S
C57 C58 1.371 . S
C57 H60 0.931 . S
C58 C54 1.391 1_655 S
C58 C57 1.371 . S
C58 H65 0.930 . S
H59 C56 0.928 . S
H60 C57 0.931 . S
H61 C37 0.930 . S
H62 C34 0.930 . S
H63 C43 0.930 . S
H64 C55 0.929 . S
H65 C58 0.930 . S
C66 C67 1.351 . S
C66 N69 1.368 . S
C66 H71 0.931 . S
C67 C66 1.351 . S
C67 N68 1.373 . S
C67 H95 0.930 . S
N68 C67 1.373 . S
N68 C70 1.340 . S
N69 C66 1.368 . S
N69 C70 1.321 . S
N69 Co72 2.135 . S
C70 N68 1.340 . S
C70 N69 1.321 . S
C70 H94 0.930 . S
H71 C66 0.931 . S
Co72 N69 2.135 . S
Co72 N75 2.121 . S
Co72 O80 2.055 . S
Co72 O83 2.039 . S
Co72 N86 2.140 . S
C73 O74 1.227 . S
C73 O83 1.265 . S
O74 C73 1.227 . S
N75 Co72 2.121 . S
N75 C77 1.375 . S
N75 C78 1.313 . S
C76 C77 1.338 . S
C76 N79 1.377 . S
C76 H96 0.930 . S
C77 N75 1.375 . S
C77 C76 1.338 . S
C77 H81 0.931 . S
C78 N75 1.313 . S
C78 N79 1.344 . S
C78 H82 0.930 . S
N79 C76 1.377 . S
N79 C78 1.344 . S
O80 Co72 2.055 . S
O80 C84 1.253 . S
H81 C77 0.931 . S
H82 C78 0.930 . S
O83 Co72 2.039 . S
O83 C73 1.265 . S
C84 O80 1.253 . S
C84 O85 1.227 . S
O85 C84 1.227 . S
N86 Co72 2.140 . S
N86 C89 1.346 . S
N86 C90 1.345 . S
C87 C88 1.387 . S
C87 C91 1.391 . S
C88 C87 1.387 . S
C88 C89 1.369 . S
C88 H97 0.929 . S
C89 N86 1.346 . S
C89 C88 1.369 . S
C89 H92 0.928 . S
C90 N86 1.345 . S
C90 C91 1.371 . S
C90 H93 0.931 . S
C91 C87 1.391 . S
C91 C90 1.371 . S
C91 H98 0.930 . S
H92 C89 0.928 . S
H93 C90 0.931 . S
H94 C70 0.930 . S
H95 C67 0.930 . S
H96 C76 0.930 . S
H97 C88 0.929 . S
H98 C91 0.930 . S
C99 C100 1.351 . S
C99 N102 1.368 . S
C99 H104 0.931 . S
C100 C99 1.351 . S
C100 N101 1.373 . S
C100 H128 0.930 . S
N101 C100 1.373 . S
N101 C103 1.340 . S
N102 C99 1.368 . S
N102 C103 1.321 . S
N102 Co105 2.135 . S
C103 N101 1.340 . S
C103 N102 1.321 . S
C103 H127 0.930 . S
H104 C99 0.931 . S
Co105 N102 2.135 . S
Co105 N108 2.121 . S
Co105 O113 2.055 . S
Co105 O116 2.039 . S
Co105 N119 2.140 . S
C106 O107 1.227 . S
C106 O116 1.265 . S
O107 C106 1.227 . S
N108 Co105 2.121 . S
N108 C110 1.375 . S
N108 C111 1.313 . S
C109 C110 1.338 . S
C109 N112 1.377 . S
C109 H129 0.930 . S
C110 N108 1.375 . S
C110 C109 1.338 . S
C110 H114 0.931 . S
C111 N108 1.313 . S
C111 N112 1.344 . S
C111 H115 0.930 . S
N112 C109 1.377 . S
N112 C111 1.344 . S
O113 Co105 2.055 . S
O113 C117 1.253 . S
H114 C110 0.931 . S
H115 C111 0.930 . S
O116 Co105 2.039 . S
O116 C106 1.265 . S
C117 O113 1.253 . S
C117 O118 1.227 . S
O118 C117 1.227 . S
N119 Co105 2.140 . S
N119 C122 1.346 . S
N119 C123 1.345 . S
C120 C121 1.387 . S
C120 C124 1.391 . S
C121 C120 1.387 . S
C121 C122 1.369 . S
C121 H130 0.929 . S
C122 N119 1.346 . S
C122 C121 1.369 . S
C122 H125 0.928 . S
C123 N119 1.345 . S
C123 C124 1.371 . S
C123 H126 0.931 . S
C124 C120 1.391 . S
C124 C123 1.371 . S
C124 H131 0.930 . S
H125 C122 0.928 . S
H126 C123 0.931 . S
H127 C103 0.930 . S
H128 C100 0.930 . S
H129 C109 0.930 . S
H130 C121 0.929 . S
H131 C124 0.930 . S
C132 C133 1.387 1_545 S
C132 H136 0.950 . S
C132 C141 1.390 . S
C133 C132 1.387 1_565 S
C133 C135 1.387 . S
H134 C141 0.950 . S
C135 C133 1.387 . S
C135 C137 1.390 . S
C135 H139 0.950 . S
H136 C132 0.950 . S
C137 C135 1.390 . S
C137 C138 1.387 . S
C137 H140 0.950 . S
C138 C137 1.387 . S
C138 C141 1.387 1_565 S
H139 C135 0.950 . S
H140 C137 0.950 . S
C141 C132 1.390 . S
C141 H134 0.950 . S
C141 C138 1.387 1_545 S
C142 C143 1.387 . S
C142 H146 0.950 . S
C142 C151 1.390 1_554 S
C143 C142 1.387 . S
C143 C145 1.387 . S
H144 C151 0.950 . S
C145 C143 1.387 . S
C145 C147 1.390 1_554 S
C145 H149 0.950 . S
H146 C142 0.950 . S
C147 C145 1.390 1_556 S
C147 C148 1.387 . S
C147 H150 0.950 . S
C148 C147 1.387 . S
C148 C151 1.387 . S
H149 C145 0.950 . S
H150 C147 0.950 . S
C151 C142 1.390 1_556 S
C151 H144 0.950 . S
C151 C148 1.387 . S
C152 C153 1.387 . S
C152 H156 0.950 . S
C152 C161 1.390 . S
C153 C152 1.387 . S
C153 C155 1.387 . S
H154 C161 0.950 . S
C155 C153 1.387 . S
C155 C157 1.390 . S
C155 H159 0.950 . S
H156 C152 0.950 . S
C157 C155 1.390 . S
C157 C158 1.387 . S
C157 H160 0.950 . S
C158 C157 1.387 . S
C158 C161 1.387 . S
H159 C155 0.950 . S
H160 C157 0.950 . S
C161 C152 1.390 . S
C161 H154 0.950 . S
C161 C158 1.387 . S
C162 C163 1.387 . S
C162 H166 0.950 . S
C162 C171 1.390 . S
C163 C162 1.387 . S
C163 C165 1.387 . S
H164 C171 0.950 . S
C165 C163 1.387 . S
C165 C167 1.390 . S
C165 H169 0.950 . S
H166 C162 0.950 . S
C167 C165 1.390 . S
C167 C168 1.387 . S
C167 H170 0.950 . S
C168 C167 1.387 . S
C168 C171 1.387 . S
H169 C165 0.950 . S
H170 C167 0.950 . S
C171 C162 1.390 . S
C171 H164 0.950 . S
C171 C168 1.387 . S
C172 C173 1.387 . S
C172 H176 0.950 . S
C172 C181 1.390 . S
C173 C172 1.387 . S
C173 C175 1.387 . S
H174 C181 0.950 . S
C175 C173 1.387 . S
C175 C177 1.390 . S
C175 H179 0.950 . S
H176 C172 0.950 . S
C177 C175 1.390 . S
C177 C178 1.387 . S
C177 H180 0.950 . S
C178 C177 1.387 . S
C178 C181 1.387 . S
H179 C175 0.950 . S
H180 C177 0.950 . S
C181 C172 1.390 . S
C181 H174 0.950 . S
C181 C178 1.387 . S
C182 C183 1.387 . S
C182 H186 0.950 . S
C182 C191 1.390 . S
C183 C182 1.387 . S
C183 C185 1.387 . S
H184 C191 0.950 . S
C185 C183 1.387 . S
C185 C187 1.390 . S
C185 H189 0.950 . S
H186 C182 0.950 . S
C187 C185 1.390 . S
C187 C188 1.387 . S
C187 H190 0.950 . S
C188 C187 1.387 . S
C188 C191 1.387 . S
H189 C185 0.950 . S
H190 C187 0.950 . S
C191 C182 1.390 . S
C191 H184 0.950 . S
C191 C188 1.387 . S
C192 C193 1.387 . S
C192 H196 0.950 . S
C192 C201 1.390 . S
C193 C192 1.387 . S
C193 C195 1.387 . S
H194 C201 0.950 . S
C195 C193 1.387 . S
C195 C197 1.390 . S
C195 H199 0.950 . S
H196 C192 0.950 . S
C197 C195 1.390 . S
C197 C198 1.387 . S
C197 H200 0.950 . S
C198 C197 1.387 . S
C198 C201 1.387 . S
H199 C195 0.950 . S
H200 C197 0.950 . S
C201 C192 1.390 . S
C201 H194 0.950 . S
C201 C198 1.387 . S
C202 C203 1.387 . S
C202 H206 0.950 . S
C202 C211 1.390 . S
C203 C202 1.387 . S
C203 C205 1.387 . S
H204 C211 0.950 . S
C205 C203 1.387 . S
C205 C207 1.390 . S
C205 H209 0.950 . S
H206 C202 0.950 . S
C207 C205 1.390 . S
C207 C208 1.387 . S
C207 H210 0.950 . S
C208 C207 1.387 . S
C208 C211 1.387 . S
H209 C205 0.950 . S
H210 C207 0.950 . S
C211 C202 1.390 . S
C211 H204 0.950 . S
C211 C208 1.387 . S
C212 C213 1.387 . S
C212 H216 0.950 . S
C212 C221 1.390 . S
C213 C212 1.387 . S
C213 C215 1.387 . S
H214 C221 0.950 . S
C215 C213 1.387 . S
C215 C217 1.390 . S
C215 H219 0.950 . S
H216 C212 0.950 . S
C217 C215 1.390 . S
C217 C218 1.387 . S
C217 H220 0.950 . S
C218 C217 1.387 . S
C218 C221 1.387 . S
H219 C215 0.950 . S
H220 C217 0.950 . S
C221 C212 1.390 . S
C221 H214 0.950 . S
C221 C218 1.387 . S
C222 C223 1.387 . S
C222 H226 0.950 . S
C222 C231 1.390 . S
C223 C222 1.387 . S
C223 C225 1.387 . S
H224 C231 0.950 . S
C225 C223 1.387 . S
C225 C227 1.390 . S
C225 H229 0.950 . S
H226 C222 0.950 . S
C227 C225 1.390 . S
C227 C228 1.387 . S
C227 H230 0.950 . S
C228 C227 1.387 . S
C228 C231 1.387 . S
H229 C225 0.950 . S
H230 C227 0.950 . S
C231 C222 1.390 . S
C231 H224 0.950 . S
C231 C228 1.387 . S
C133 C21 1.494 . S
C138 C54 1.494 . S
C143 C120 1.495 . S
C148 C87 1.495 . S
C153 C18 1.544 . S
C158 N112 1.496 . S
C163 N2 1.419 . S
C168 C106 1.468 . S
C173 N101 1.419 . S
C178 C7 1.470 . S
C183 N13 1.494 . S
C188 C117 1.546 . S
C193 N68 1.416 . S
C198 C40 1.472 . S
C203 N35 1.419 . S
C208 C73 1.468 . S
C213 C51 1.544 . S
C218 N79 1.494 . S
C223 C84 1.544 . S
C228 N46 1.498 . S
