# Generated by pormake.
# Topology noy, (5)-cn, num edge types: 1
# Building blocks:
#     Node 0, Type 0, BuildingBlock: XOMCOT_clean_sbu_1, # of connection points: 5
#     Node 1, Type 0, BuildingBlock: XOMCOT_clean_sbu_1, # of connection points: 5
#     Node 2, Type 0, BuildingBlock: XOMCOT_clean_sbu_1, # of connection points: 5
#     Node 3, Type 0, BuildingBlock: XOMCOT_clean_sbu_1, # of connection points: 5
#     Node 4, Type 0, BuildingBlock: XOMCOT_clean_sbu_1, # of connection points: 5
#     Node 5, Type 0, BuildingBlock: XOMCOT_clean_sbu_1, # of connection points: 5
#     Node 6, Type 0, BuildingBlock: XOMCOT_clean_sbu_1, # of connection points: 5
#     Node 7, Type 0, BuildingBlock: XOMCOT_clean_sbu_1, # of connection points: 5
#     Edge 8, Type (0, 0), None
#     Edge 9, Type (0, 0), None
#     Edge 10, Type (0, 0), None
#     Edge 11, Type (0, 0), None
#     Edge 12, Type (0, 0), None
#     Edge 13, Type (0, 0), None
#     Edge 14, Type (0, 0), None
#     Edge 15, Type (0, 0), None
#     Edge 16, Type (0, 0), None
#     Edge 17, Type (0, 0), None
#     Edge 18, Type (0, 0), None
#     Edge 19, Type (0, 0), None
#     Edge 20, Type (0, 0), None
#     Edge 21, Type (0, 0), None
#     Edge 22, Type (0, 0), None
#     Edge 23, Type (0, 0), None
#     Edge 24, Type (0, 0), None
#     Edge 25, Type (0, 0), None
#     Edge 26, Type (0, 0), None
#     Edge 27, Type (0, 0), None
# Relax obj value: 0.177
# Max RMSD: 0.175
# Mean RMSD: 0.175
data_MOF--net-noy--node1-XOMCOT_clean_sbu_1--edge1-none
_symmetry_space_group_name_H-M    P1
_symmetry_Int_Tables_number       1
_symmetry_cell_setting            triclinic
loop_
_symmetry_equiv_pos_as_xyz
'x, y, z'
_cell_length_a     27.749701
_cell_length_b     20.645681
_cell_length_c     10.612493
_cell_angle_alpha  89.999921
_cell_angle_beta   89.990348
_cell_angle_gamma 90.000387
loop_
_atom_site_label
_atom_site_type_symbol
_atom_site_fract_x
_atom_site_fract_y
_atom_site_fract_z
_atom_type_partial_charge
C0 C 0.28621 0.46404 0.06491 0.0
C1 C 0.28342 0.51191 0.97441 0.0
N2 N 0.28725 0.56937 0.03349 0.0
N3 N 0.29132 0.49166 0.1796 0.0
C4 C 0.29259 0.55596 0.15643 0.0
H5 H 0.28389 0.41248 0.04814 0.0
Co6 Co 0.29276 0.45059 0.33658 0.0
C7 C 0.25361 0.57445 0.48104 0.0
O8 O 0.21261 0.55489 0.52949 0.0
N9 N 0.29376 0.40841 0.49624 0.0
C10 C 0.30697 0.33388 0.64563 0.0
C11 C 0.32528 0.36339 0.5387 0.0
C12 C 0.25713 0.406 0.58025 0.0
N13 N 0.26383 0.36056 0.67088 0.0
O14 O 0.2262 0.42693 0.31207 0.0
H15 H 0.35787 0.34918 0.49038 0.0
H16 H 0.22383 0.4324 0.56765 0.0
O17 O 0.27971 0.53535 0.41689 0.0
C18 C 0.22864 0.37054 0.26079 0.0
O19 O 0.26933 0.33837 0.27032 0.0
N20 N 0.35848 0.46501 0.34225 0.0
C21 C 0.45526 0.47111 0.27506 0.0
C22 C 0.43434 0.52088 0.34752 0.0
C23 C 0.38522 0.51703 0.38018 0.0
C24 C 0.37854 0.4168 0.27269 0.0
C25 C 0.42646 0.41896 0.23768 0.0
H26 H 0.36875 0.5562 0.43209 0.0
H27 H 0.35637 0.37731 0.23973 0.0
H28 H 0.29712 0.59261 0.22756 0.0
H29 H 0.27825 0.50491 0.87428 0.0
H30 H 0.32269 0.29331 0.69554 0.0
H31 H 0.45561 0.56185 0.3786 0.0
H32 H 0.44075 0.38014 0.17999 0.0
C33 C 0.66355 0.72571 0.56506 0.0
C34 C 0.66635 0.67784 0.47456 0.0
N35 N 0.66242 0.62038 0.5336 0.0
N36 N 0.65835 0.69809 0.67972 0.0
C37 C 0.65702 0.6338 0.65653 0.0
H38 H 0.66593 0.77727 0.54831 0.0
Co39 Co 0.65688 0.73914 0.83673 0.0
C40 C 0.69604 0.61526 0.98103 0.0
O41 O 0.73708 0.63482 0.02925 0.0
N42 N 0.65585 0.78128 0.99643 0.0
C43 C 0.64264 0.85581 0.14583 0.0
C44 C 0.62435 0.82632 0.03889 0.0
C45 C 0.69248 0.78367 0.08045 0.0
N46 N 0.68577 0.82911 0.17108 0.0
O47 O 0.72344 0.76278 0.81227 0.0
H48 H 0.59176 0.84056 0.99056 0.0
H49 H 0.72577 0.75725 0.06784 0.0
O50 O 0.66991 0.65435 0.91699 0.0
C51 C 0.72103 0.81918 0.76104 0.0
O52 O 0.68035 0.85138 0.77066 0.0
N53 N 0.59115 0.72473 0.84236 0.0
C54 C 0.4944 0.71865 0.77503 0.0
C55 C 0.51529 0.66887 0.84748 0.0
C56 C 0.5644 0.6727 0.8802 0.0
C57 C 0.57112 0.77296 0.77282 0.0
C58 C 0.5232 0.77082 0.73774 0.0
H59 H 0.58085 0.63352 0.9321 0.0
H60 H 0.59331 0.81246 0.73991 0.0
H61 H 0.6524 0.59715 0.72764 0.0
H62 H 0.6716 0.68484 0.37445 0.0
H63 H 0.62693 0.89639 0.19574 0.0
H64 H 0.49401 0.62789 0.87848 0.0
H65 H 0.50894 0.80965 0.68006 0.0
C66 C 0.28298 0.73724 0.95146 0.0
C67 C 0.28551 0.68883 0.04051 0.0
N68 N 0.2839 0.63164 0.97959 0.0
N69 N 0.2795 0.71035 0.8359 0.0
C70 C 0.28016 0.64573 0.8564 0.0
H71 H 0.28504 0.78869 0.96963 0.0
Co72 Co 0.28104 0.75411 0.68301 0.0
C73 C 0.2707 0.64202 0.50193 0.0
O74 O 0.30518 0.66539 0.43034 0.0
N75 N 0.28276 0.80036 0.52639 0.0
C76 C 0.29578 0.87883 0.38413 0.0
C77 C 0.31307 0.84858 0.49101 0.0
C78 C 0.24777 0.8019 0.43757 0.0
N79 N 0.25448 0.84962 0.35109 0.0
O80 O 0.21638 0.78504 0.71572 0.0
H81 H 0.34414 0.86466 0.54329 0.0
H82 H 0.21562 0.77229 0.4431 0.0
O83 O 0.25696 0.67403 0.59885 0.0
C84 C 0.22027 0.8392 0.77416 0.0
O85 O 0.2623 0.86851 0.77245 0.0
N86 N 0.34605 0.73135 0.67073 0.0
C87 C 0.44249 0.72028 0.74217 0.0
C88 C 0.41776 0.66659 0.69274 0.0
C89 C 0.36889 0.6728 0.65952 0.0
C90 C 0.36953 0.78256 0.72288 0.0
C91 C 0.41742 0.77843 0.7579 0.0
H92 H 0.34938 0.62975 0.63333 0.0
H93 H 0.34988 0.82624 0.74494 0.0
H94 H 0.27976 0.6096 0.78284 0.0
H95 H 0.28916 0.6954 0.14118 0.0
H96 H 0.31079 0.92144 0.33938 0.0
H97 H 0.43569 0.62032 0.68194 0.0
H98 H 0.43437 0.82033 0.80051 0.0
C99 C 0.66664 0.45252 0.45158 0.0
C100 C 0.66411 0.50093 0.54063 0.0
N101 N 0.66576 0.55812 0.47971 0.0
N102 N 0.67017 0.4794 0.33602 0.0
C103 C 0.66953 0.54402 0.35652 0.0
H104 H 0.66454 0.40107 0.46974 0.0
Co105 Co 0.66862 0.43563 0.18315 0.0
C106 C 0.67896 0.54768 1.002 0.0
O107 O 0.64448 0.5243 0.93048 0.0
N108 N 0.6669 0.38936 0.02656 0.0
C109 C 0.65387 0.31089 0.88432 0.0
C110 C 0.63659 0.34115 0.99119 0.0
C111 C 0.70191 0.38779 0.93772 0.0
N112 N 0.69519 0.34007 0.85126 0.0
O113 O 0.73328 0.40468 0.21584 0.0
H114 H 0.6055 0.3251 0.04348 0.0
H115 H 0.73407 0.41738 0.94324 0.0
O116 O 0.69272 0.51569 0.09892 0.0
C117 C 0.72938 0.35052 0.27431 0.0
O118 O 0.68733 0.32124 0.27265 0.0
N119 N 0.60362 0.4584 0.1709 0.0
C120 C 0.50717 0.46949 0.24229 0.0
C121 C 0.53191 0.52318 0.19288 0.0
C122 C 0.5808 0.51696 0.15969 0.0
C123 C 0.58014 0.4072 0.22306 0.0
C124 C 0.53224 0.41134 0.25805 0.0
H125 H 0.60031 0.56 0.13352 0.0
H126 H 0.59977 0.36352 0.24513 0.0
H127 H 0.66997 0.58015 0.28295 0.0
H128 H 0.66042 0.49436 0.64129 0.0
H129 H 0.63886 0.26828 0.83957 0.0
H130 H 0.51399 0.56945 0.18206 0.0
H131 H 0.51527 0.36944 0.30066 0.0
C132 C 0.78291 0.95245 0.07559 0.0
C133 C 0.78542 1.00086 0.98653 0.0
N134 N 0.78382 1.05805 0.04745 0.0
N135 N 0.77945 0.97934 0.19116 0.0
C136 C 0.78011 1.04396 0.17065 0.0
H137 H 0.78496 0.901 0.05742 0.0
Co138 Co 0.78101 0.93558 0.34403 0.0
C139 C 0.77067 1.04767 0.52513 0.0
O140 O 0.80514 1.02429 0.59669 0.0
N141 N 0.78274 0.88934 0.50065 0.0
C142 C 0.79579 0.81088 0.64292 0.0
C143 C 0.81307 0.84115 0.53604 0.0
C144 C 0.74774 0.88775 0.58947 0.0
N145 N 0.75445 0.84002 0.67589 0.0
O146 O 0.71635 0.90464 0.3114 0.0
H147 H 0.84417 0.82513 0.48379 0.0
H148 H 0.71558 0.91735 0.58397 0.0
O149 O 0.75693 1.01566 0.42823 0.0
C150 C 0.72024 0.85046 0.25299 0.0
O151 O 0.76227 0.82114 0.25468 0.0
N152 N 0.84601 0.95836 0.35624 0.0
C153 C 0.94246 0.96944 0.2848 0.0
C154 C 0.91773 1.02312 0.33425 0.0
C155 C 0.86885 1.01691 0.36747 0.0
C156 C 0.86949 0.90715 0.30406 0.0
C157 C 0.91739 0.91129 0.26903 0.0
H158 H 0.84935 1.05995 0.39368 0.0
H159 H 0.84985 0.86347 0.282 0.0
H160 H 0.77973 1.08009 0.24422 0.0
H161 H 0.78905 0.99429 0.88586 0.0
H162 H 0.81083 0.76831 0.68774 0.0
H163 H 0.93566 1.06938 0.34508 0.0
H164 H 0.93435 0.86939 0.22641 0.0
C165 C 0.16664 0.2372 0.57554 0.0
C166 C 0.16412 0.18879 0.48649 0.0
N167 N 0.16578 0.1316 0.5474 0.0
N168 N 0.17015 0.21031 0.69109 0.0
C169 C 0.16952 0.14569 0.67059 0.0
H170 H 0.16454 0.28865 0.55738 0.0
Co171 Co 0.1686 0.25408 0.84397 0.0
C172 C 0.17895 0.14201 0.02508 0.0
O173 O 0.14448 0.16538 0.09665 0.0
N174 N 0.16688 0.30032 1.00058 0.0
C175 C 0.15383 0.37877 0.14289 0.0
C176 C 0.13653 0.34848 0.03607 0.0
C177 C 0.20192 0.30195 0.08928 0.0
N178 N 0.19521 0.34968 0.17572 0.0
O179 O 0.23326 0.28502 0.81123 0.0
H180 H 0.1054 0.36446 0.98393 0.0
H181 H 0.23409 0.27239 0.08368 0.0
O182 O 0.1927 0.174 0.92815 0.0
C183 C 0.22936 0.33919 0.7528 0.0
O184 O 0.18733 0.3685 0.75451 0.0
N185 N 0.1036 0.2313 0.85626 0.0
C186 C 0.00717 0.2202 0.78481 0.0
C187 C 0.0319 0.16652 0.83424 0.0
C188 C 0.08077 0.17274 0.86747 0.0
C189 C 0.08013 0.2825 0.8041 0.0
C190 C 0.03224 0.27836 0.76907 0.0
H191 H 0.10028 0.1297 0.89365 0.0
H192 H 0.09977 0.32619 0.78206 0.0
H193 H 0.16995 0.10956 0.74415 0.0
H194 H 0.16044 0.19536 0.38583 0.0
H195 H 0.13878 0.42132 0.18777 0.0
H196 H 0.01397 0.12025 0.84506 0.0
H197 H 0.01528 0.32026 0.72645 0.0
C198 C 0.78625 0.22565 0.96215 0.0
C199 C 0.78342 0.17778 0.05265 0.0
N200 N 0.78718 0.12032 0.99355 0.0
N201 N 0.79132 0.19803 0.84745 0.0
C202 C 0.79253 0.13372 0.87062 0.0
H203 H 0.78397 0.27722 0.97892 0.0
Co204 Co 0.79277 0.2391 0.69047 0.0
C205 C 0.75361 0.11526 0.54602 0.0
O206 O 0.71262 0.13485 0.49758 0.0
N207 N 0.79378 0.28128 0.53081 0.0
C208 C 0.80701 0.35578 0.38137 0.0
C209 C 0.82532 0.32624 0.48823 0.0
C210 C 0.75711 0.28375 0.44693 0.0
N211 N 0.76382 0.32921 0.35633 0.0
O212 O 0.72622 0.26276 0.71505 0.0
H213 H 0.85796 0.34038 0.53641 0.0
H214 H 0.7238 0.25738 0.45961 0.0
O215 O 0.77971 0.15434 0.61016 0.0
C216 C 0.72865 0.31915 0.76631 0.0
O217 O 0.76934 0.35134 0.75673 0.0
N218 N 0.8585 0.22467 0.68476 0.0
C219 C 0.95526 0.21858 0.75199 0.0
C220 C 0.93434 0.16879 0.67962 0.0
C221 C 0.88523 0.17263 0.64694 0.0
C222 C 0.87854 0.27291 0.75425 0.0
C223 C 0.92646 0.27076 0.78929 0.0
H224 H 0.86877 0.13343 0.5951 0.0
H225 H 0.85637 0.31242 0.78715 0.0
H226 H 0.79703 0.09706 0.79948 0.0
H227 H 0.77827 0.18479 0.15279 0.0
H228 H 0.82276 0.3963 0.33134 0.0
H229 H 0.95561 0.1278 0.64862 0.0
H230 H 0.94074 0.3096 0.84693 0.0
C231 C 0.16346 0.964 0.46209 0.0
C232 C 0.16628 1.01188 0.55258 0.0
N233 N 0.16244 1.06933 0.49351 0.0
N234 N 0.15832 0.99162 0.34741 0.0
C235 C 0.15705 1.05592 0.37058 0.0
H236 H 0.16579 0.91244 0.47885 0.0
Co237 Co 0.15687 0.95056 0.19042 0.0
C238 C 0.19603 1.07442 0.04599 0.0
O239 O 0.23704 1.05485 0.99758 0.0
N240 N 0.15587 0.9084 0.03075 0.0
C241 C 0.14265 0.83389 0.88132 0.0
C242 C 0.12433 0.86342 0.98822 0.0
C243 C 0.19253 0.90595 0.94682 0.0
N244 N 0.18583 0.8605 0.85622 0.0
O245 O 0.22343 0.92692 0.21491 0.0
H246 H 0.09171 0.84925 0.03645 0.0
H247 H 0.22583 0.93235 0.95945 0.0
O248 O 0.16992 1.03534 0.11012 0.0
C249 C 0.22101 0.87052 0.26616 0.0
O250 O 0.18033 0.83831 0.25661 0.0
N251 N 0.09115 0.96498 0.18477 0.0
C252 C -0.00562 0.97106 0.25198 0.0
C253 C 0.01529 1.02084 0.17957 0.0
C254 C 0.06441 1.01701 0.1469 0.0
C255 C 0.07109 0.91675 0.2543 0.0
C256 C 0.02317 0.91889 0.28932 0.0
H257 H 0.08087 1.05619 0.09502 0.0
H258 H 0.09327 0.87725 0.28722 0.0
H259 H 0.15249 1.09258 0.29946 0.0
H260 H 0.17148 1.00487 0.6527 0.0
H261 H 0.12691 0.79337 0.83131 0.0
H262 H -0.00598 1.06182 0.14854 0.0
H263 H 0.00888 0.88006 0.34698 0.0
loop_
_geom_bond_atom_site_label_1
_geom_bond_atom_site_label_2
_geom_bond_distance
_geom_bond_site_symmetry_2
_ccdc_geom_bond_type
C0 C1 1.351 1_554 S
C0 N3 1.368 . S
C0 H5 0.931 . S
C1 C0 1.351 1_556 S
C1 N2 1.373 1_556 S
C1 H29 0.930 . S
N2 C1 1.373 1_554 S
N2 C4 1.340 . S
N3 C0 1.368 . S
N3 C4 1.321 . S
N3 Co6 2.135 . S
C4 N2 1.340 . S
C4 N3 1.321 . S
C4 H28 0.930 . S
H5 C0 0.931 . S
Co6 N3 2.135 . S
Co6 N9 2.121 . S
Co6 O14 2.055 . S
Co6 O17 2.039 . S
Co6 N20 2.140 . S
C7 O8 1.227 . S
C7 O17 1.265 . S
O8 C7 1.227 . S
N9 Co6 2.121 . S
N9 C11 1.375 . S
N9 C12 1.313 . S
C10 C11 1.338 . S
C10 N13 1.377 . S
C10 H30 0.930 . S
C11 N9 1.375 . S
C11 C10 1.338 . S
C11 H15 0.931 . S
C12 N9 1.313 . S
C12 N13 1.344 . S
C12 H16 0.930 . S
N13 C10 1.377 . S
N13 C12 1.344 . S
O14 Co6 2.055 . S
O14 C18 1.253 . S
H15 C11 0.931 . S
H16 C12 0.930 . S
O17 Co6 2.039 . S
O17 C7 1.265 . S
C18 O14 1.253 . S
C18 O19 1.227 . S
O19 C18 1.227 . S
N20 Co6 2.140 . S
N20 C23 1.346 . S
N20 C24 1.345 . S
C21 C22 1.387 . S
C21 C25 1.391 . S
C22 C21 1.387 . S
C22 C23 1.369 . S
C22 H31 0.929 . S
C23 N20 1.346 . S
C23 C22 1.369 . S
C23 H26 0.928 . S
C24 N20 1.345 . S
C24 C25 1.371 . S
C24 H27 0.931 . S
C25 C21 1.391 . S
C25 C24 1.371 . S
C25 H32 0.930 . S
H26 C23 0.928 . S
H27 C24 0.931 . S
H28 C4 0.930 . S
H29 C1 0.930 . S
H30 C10 0.930 . S
H31 C22 0.929 . S
H32 C25 0.930 . S
C33 C34 1.351 . S
C33 N36 1.368 . S
C33 H38 0.931 . S
C34 C33 1.351 . S
C34 N35 1.373 . S
C34 H62 0.930 . S
N35 C34 1.373 . S
N35 C37 1.340 . S
N36 C33 1.368 . S
N36 C37 1.321 . S
N36 Co39 2.135 . S
C37 N35 1.340 . S
C37 N36 1.321 . S
C37 H61 0.930 . S
H38 C33 0.931 . S
Co39 N36 2.135 . S
Co39 N42 2.121 . S
Co39 O47 2.055 . S
Co39 O50 2.039 . S
Co39 N53 2.140 . S
C40 O41 1.227 . S
C40 O50 1.265 . S
O41 C40 1.227 . S
N42 Co39 2.121 . S
N42 C44 1.375 1_556 S
N42 C45 1.313 . S
C43 C44 1.338 . S
C43 N46 1.377 . S
C43 H63 0.930 . S
C44 N42 1.375 1_554 S
C44 C43 1.338 . S
C44 H48 0.931 . S
C45 N42 1.313 . S
C45 N46 1.344 1_556 S
C45 H49 0.930 . S
N46 C43 1.377 . S
N46 C45 1.344 1_554 S
O47 Co39 2.055 . S
O47 C51 1.253 . S
H48 C44 0.931 . S
H49 C45 0.930 . S
O50 Co39 2.039 . S
O50 C40 1.265 . S
C51 O47 1.253 . S
C51 O52 1.227 . S
O52 C51 1.227 . S
N53 Co39 2.140 . S
N53 C56 1.346 . S
N53 C57 1.345 . S
C54 C55 1.387 . S
C54 C58 1.391 . S
C55 C54 1.387 . S
C55 C56 1.369 . S
C55 H64 0.929 . S
C56 N53 1.346 . S
C56 C55 1.369 . S
C56 H59 0.928 . S
C57 N53 1.345 . S
C57 C58 1.371 . S
C57 H60 0.931 . S
C58 C54 1.391 . S
C58 C57 1.371 . S
C58 H65 0.930 . S
H59 C56 0.928 . S
H60 C57 0.931 . S
H61 C37 0.930 . S
H62 C34 0.930 . S
H63 C43 0.930 . S
H64 C55 0.929 . S
H65 C58 0.930 . S
C66 C67 1.351 1_556 S
C66 N69 1.368 . S
C66 H71 0.931 . S
C67 C66 1.351 1_554 S
C67 N68 1.373 1_554 S
C67 H95 0.930 . S
N68 C67 1.373 1_556 S
N68 C70 1.340 . S
N69 C66 1.368 . S
N69 C70 1.321 . S
N69 Co72 2.135 . S
C70 N68 1.340 . S
C70 N69 1.321 . S
C70 H94 0.930 . S
H71 C66 0.931 . S
Co72 N69 2.135 . S
Co72 N75 2.121 . S
Co72 O80 2.055 . S
Co72 O83 2.039 . S
Co72 N86 2.140 . S
C73 O74 1.227 . S
C73 O83 1.265 . S
O74 C73 1.227 . S
N75 Co72 2.121 . S
N75 C77 1.375 . S
N75 C78 1.313 . S
C76 C77 1.338 . S
C76 N79 1.377 . S
C76 H96 0.930 . S
C77 N75 1.375 . S
C77 C76 1.338 . S
C77 H81 0.931 . S
C78 N75 1.313 . S
C78 N79 1.344 . S
C78 H82 0.930 . S
N79 C76 1.377 . S
N79 C78 1.344 . S
O80 Co72 2.055 . S
O80 C84 1.253 . S
H81 C77 0.931 . S
H82 C78 0.930 . S
O83 Co72 2.039 . S
O83 C73 1.265 . S
C84 O80 1.253 . S
C84 O85 1.227 . S
O85 C84 1.227 . S
N86 Co72 2.140 . S
N86 C89 1.346 . S
N86 C90 1.345 . S
C87 C88 1.387 . S
C87 C91 1.391 . S
C88 C87 1.387 . S
C88 C89 1.369 . S
C88 H97 0.929 . S
C89 N86 1.346 . S
C89 C88 1.369 . S
C89 H92 0.928 . S
C90 N86 1.345 . S
C90 C91 1.371 . S
C90 H93 0.931 . S
C91 C87 1.391 . S
C91 C90 1.371 . S
C91 H98 0.930 . S
H92 C89 0.928 . S
H93 C90 0.931 . S
H94 C70 0.930 . S
H95 C67 0.930 . S
H96 C76 0.930 . S
H97 C88 0.929 . S
H98 C91 0.930 . S
C99 C100 1.351 . S
C99 N102 1.368 . S
C99 H104 0.931 . S
C100 C99 1.351 . S
C100 N101 1.373 . S
C100 H128 0.930 . S
N101 C100 1.373 . S
N101 C103 1.340 . S
N102 C99 1.368 . S
N102 C103 1.321 . S
N102 Co105 2.135 . S
C103 N101 1.340 . S
C103 N102 1.321 . S
C103 H127 0.930 . S
H104 C99 0.931 . S
Co105 N102 2.135 . S
Co105 N108 2.121 . S
Co105 O113 2.055 . S
Co105 O116 2.039 . S
Co105 N119 2.140 . S
C106 O107 1.227 . S
C106 O116 1.265 . S
O107 C106 1.227 . S
N108 Co105 2.121 . S
N108 C110 1.375 1_554 S
N108 C111 1.313 . S
C109 C110 1.338 . S
C109 N112 1.377 . S
C109 H129 0.930 . S
C110 N108 1.375 1_556 S
C110 C109 1.338 . S
C110 H114 0.931 . S
C111 N108 1.313 . S
C111 N112 1.344 1_554 S
C111 H115 0.930 . S
N112 C109 1.377 . S
N112 C111 1.344 1_556 S
O113 Co105 2.055 . S
O113 C117 1.253 . S
H114 C110 0.931 . S
H115 C111 0.930 . S
O116 Co105 2.039 . S
O116 C106 1.265 . S
C117 O113 1.253 . S
C117 O118 1.227 . S
O118 C117 1.227 . S
N119 Co105 2.140 . S
N119 C122 1.346 . S
N119 C123 1.345 . S
C120 C121 1.387 . S
C120 C124 1.391 . S
C121 C120 1.387 . S
C121 C122 1.369 . S
C121 H130 0.929 . S
C122 N119 1.346 . S
C122 C121 1.369 . S
C122 H125 0.928 . S
C123 N119 1.345 . S
C123 C124 1.371 . S
C123 H126 0.931 . S
C124 C120 1.391 . S
C124 C123 1.371 . S
C124 H131 0.930 . S
H125 C122 0.928 . S
H126 C123 0.931 . S
H127 C103 0.930 . S
H128 C100 0.930 . S
H129 C109 0.930 . S
H130 C121 0.929 . S
H131 C124 0.930 . S
C132 C133 1.351 1_554 S
C132 N135 1.368 . S
C132 H137 0.931 . S
C133 C132 1.351 1_556 S
C133 N134 1.373 1_556 S
C133 H161 0.930 . S
N134 C133 1.373 1_554 S
N134 C136 1.340 . S
N135 C132 1.368 . S
N135 C136 1.321 . S
N135 Co138 2.135 . S
C136 N134 1.340 . S
C136 N135 1.321 . S
C136 H160 0.930 . S
H137 C132 0.931 . S
Co138 N135 2.135 . S
Co138 N141 2.121 . S
Co138 O146 2.055 . S
Co138 O149 2.039 . S
Co138 N152 2.140 . S
C139 O140 1.227 . S
C139 O149 1.265 . S
O140 C139 1.227 . S
N141 Co138 2.121 . S
N141 C143 1.375 . S
N141 C144 1.313 . S
C142 C143 1.338 . S
C142 N145 1.377 . S
C142 H162 0.930 . S
C143 N141 1.375 . S
C143 C142 1.338 . S
C143 H147 0.931 . S
C144 N141 1.313 . S
C144 N145 1.344 . S
C144 H148 0.930 . S
N145 C142 1.377 . S
N145 C144 1.344 . S
O146 Co138 2.055 . S
O146 C150 1.253 . S
H147 C143 0.931 . S
H148 C144 0.930 . S
O149 Co138 2.039 . S
O149 C139 1.265 . S
C150 O146 1.253 . S
C150 O151 1.227 . S
O151 C150 1.227 . S
N152 Co138 2.140 . S
N152 C155 1.346 . S
N152 C156 1.345 . S
C153 C154 1.387 . S
C153 C157 1.391 . S
C154 C153 1.387 . S
C154 C155 1.369 . S
C154 H163 0.929 . S
C155 N152 1.346 . S
C155 C154 1.369 . S
C155 H158 0.928 . S
C156 N152 1.345 . S
C156 C157 1.371 . S
C156 H159 0.931 . S
C157 C153 1.391 . S
C157 C156 1.371 . S
C157 H164 0.930 . S
H158 C155 0.928 . S
H159 C156 0.931 . S
H160 C136 0.930 . S
H161 C133 0.930 . S
H162 C142 0.930 . S
H163 C154 0.929 . S
H164 C157 0.930 . S
C165 C166 1.351 . S
C165 N168 1.368 . S
C165 H170 0.931 . S
C166 C165 1.351 . S
C166 N167 1.373 . S
C166 H194 0.930 . S
N167 C166 1.373 . S
N167 C169 1.340 . S
N168 C165 1.368 . S
N168 C169 1.321 . S
N168 Co171 2.135 . S
C169 N167 1.340 . S
C169 N168 1.321 . S
C169 H193 0.930 . S
H170 C165 0.931 . S
Co171 N168 2.135 . S
Co171 N174 2.121 . S
Co171 O179 2.055 . S
Co171 O182 2.039 . S
Co171 N185 2.140 . S
C172 O173 1.227 . S
C172 O182 1.265 . S
O173 C172 1.227 . S
N174 Co171 2.121 . S
N174 C176 1.375 1_556 S
N174 C177 1.313 . S
C175 C176 1.338 . S
C175 N178 1.377 . S
C175 H195 0.930 . S
C176 N174 1.375 1_554 S
C176 C175 1.338 . S
C176 H180 0.931 . S
C177 N174 1.313 . S
C177 N178 1.344 1_556 S
C177 H181 0.930 . S
N178 C175 1.377 . S
N178 C177 1.344 1_554 S
O179 Co171 2.055 . S
O179 C183 1.253 . S
H180 C176 0.931 . S
H181 C177 0.930 . S
O182 Co171 2.039 . S
O182 C172 1.265 . S
C183 O179 1.253 . S
C183 O184 1.227 . S
O184 C183 1.227 . S
N185 Co171 2.140 . S
N185 C188 1.346 . S
N185 C189 1.345 . S
C186 C187 1.387 . S
C186 C190 1.391 . S
C187 C186 1.387 . S
C187 C188 1.369 . S
C187 H196 0.929 . S
C188 N185 1.346 . S
C188 C187 1.369 . S
C188 H191 0.928 . S
C189 N185 1.345 . S
C189 C190 1.371 . S
C189 H192 0.931 . S
C190 C186 1.391 . S
C190 C189 1.371 . S
C190 H197 0.930 . S
H191 C188 0.928 . S
H192 C189 0.931 . S
H193 C169 0.930 . S
H194 C166 0.930 . S
H195 C175 0.930 . S
H196 C187 0.929 . S
H197 C190 0.930 . S
C198 C199 1.351 1_556 S
C198 N201 1.368 . S
C198 H203 0.931 . S
C199 C198 1.351 1_554 S
C199 N200 1.373 1_554 S
C199 H227 0.930 . S
N200 C199 1.373 1_556 S
N200 C202 1.340 . S
N201 C198 1.368 . S
N201 C202 1.321 . S
N201 Co204 2.135 . S
C202 N200 1.340 . S
C202 N201 1.321 . S
C202 H226 0.930 . S
H203 C198 0.931 . S
Co204 N201 2.135 . S
Co204 N207 2.121 . S
Co204 O212 2.055 . S
Co204 O215 2.039 . S
Co204 N218 2.140 . S
C205 O206 1.227 . S
C205 O215 1.265 . S
O206 C205 1.227 . S
N207 Co204 2.121 . S
N207 C209 1.375 . S
N207 C210 1.313 . S
C208 C209 1.338 . S
C208 N211 1.377 . S
C208 H228 0.930 . S
C209 N207 1.375 . S
C209 C208 1.338 . S
C209 H213 0.931 . S
C210 N207 1.313 . S
C210 N211 1.344 . S
C210 H214 0.930 . S
N211 C208 1.377 . S
N211 C210 1.344 . S
O212 Co204 2.055 . S
O212 C216 1.253 . S
H213 C209 0.931 . S
H214 C210 0.930 . S
O215 Co204 2.039 . S
O215 C205 1.265 . S
C216 O212 1.253 . S
C216 O217 1.227 . S
O217 C216 1.227 . S
N218 Co204 2.140 . S
N218 C221 1.346 . S
N218 C222 1.345 . S
C219 C220 1.387 . S
C219 C223 1.391 . S
C220 C219 1.387 . S
C220 C221 1.369 . S
C220 H229 0.929 . S
C221 N218 1.346 . S
C221 C220 1.369 . S
C221 H224 0.928 . S
C222 N218 1.345 . S
C222 C223 1.371 . S
C222 H225 0.931 . S
C223 C219 1.391 . S
C223 C222 1.371 . S
C223 H230 0.930 . S
H224 C221 0.928 . S
H225 C222 0.931 . S
H226 C202 0.930 . S
H227 C199 0.930 . S
H228 C208 0.930 . S
H229 C220 0.929 . S
H230 C223 0.930 . S
C231 C232 1.351 . S
C231 N234 1.368 . S
C231 H236 0.931 . S
C232 C231 1.351 . S
C232 N233 1.373 . S
C232 H260 0.930 . S
N233 C232 1.373 . S
N233 C235 1.340 . S
N234 C231 1.368 . S
N234 C235 1.321 . S
N234 Co237 2.135 . S
C235 N233 1.340 . S
C235 N234 1.321 . S
C235 H259 0.930 . S
H236 C231 0.931 . S
Co237 N234 2.135 . S
Co237 N240 2.121 . S
Co237 O245 2.055 . S
Co237 O248 2.039 . S
Co237 N251 2.140 . S
C238 O239 1.227 . S
C238 O248 1.265 . S
O239 C238 1.227 . S
N240 Co237 2.121 . S
N240 C242 1.375 1_554 S
N240 C243 1.313 . S
C241 C242 1.338 . S
C241 N244 1.377 . S
C241 H261 0.930 . S
C242 N240 1.375 1_556 S
C242 C241 1.338 . S
C242 H246 0.931 . S
C243 N240 1.313 . S
C243 N244 1.344 1_554 S
C243 H247 0.930 . S
N244 C241 1.377 . S
N244 C243 1.344 1_556 S
O245 Co237 2.055 . S
O245 C249 1.253 . S
H246 C242 0.931 . S
H247 C243 0.930 . S
O248 Co237 2.039 . S
O248 C238 1.265 . S
C249 O245 1.253 . S
C249 O250 1.227 . S
O250 C249 1.227 . S
N251 Co237 2.140 . S
N251 C254 1.346 . S
N251 C255 1.345 . S
C252 C253 1.387 . S
C252 C256 1.391 . S
C253 C252 1.387 . S
C253 C254 1.369 . S
C253 H262 0.929 . S
C254 N251 1.346 . S
C254 C253 1.369 . S
C254 H257 0.928 . S
C255 N251 1.345 . S
C255 C256 1.371 . S
C255 H258 0.931 . S
C256 C252 1.391 . S
C256 C255 1.371 . S
C256 H263 0.930 . S
H257 C254 0.928 . S
H258 C255 0.931 . S
H259 C235 0.930 . S
H260 C232 0.930 . S
H261 C241 0.930 . S
H262 C253 0.929 . S
H263 C256 0.930 . S
C21 C120 1.813 . S
C54 C87 1.813 . S
C252 C153 1.813 1_455 S
C186 C219 1.813 1_455 S
N68 N2 0.701 1_556 S
N101 N35 0.701 . S
C40 C106 2.029 1_556 S
C7 C73 2.029 . S
N200 N134 0.701 1_546 S
N167 N233 0.701 1_545 S
C172 C238 2.029 1_546 S
C205 C139 2.029 1_545 S
C18 N178 1.472 . S
C51 N145 1.472 . S
N244 C84 1.472 . S
C117 N211 1.472 . S
N46 C150 1.472 . S
C183 N13 1.472 . S
C216 N112 1.472 . S
C249 N79 1.472 . S
