# Generated by pormake.
# Topology bnn, (5)-cn, num edge types: 1
# Building blocks:
#     Node 0, Type 0, BuildingBlock: XOMCOT_clean_sbu_1, # of connection points: 5
#     Node 1, Type 0, BuildingBlock: XOMCOT_clean_sbu_1, # of connection points: 5
#     Edge 2, Type (0, 0), BuildingBlock: EYOCIG_clean_linker_4, # of connection points: 2
#     Edge 3, Type (0, 0), BuildingBlock: EYOCIG_clean_linker_4, # of connection points: 2
#     Edge 4, Type (0, 0), BuildingBlock: EYOCIG_clean_linker_4, # of connection points: 2
#     Edge 5, Type (0, 0), BuildingBlock: EYOCIG_clean_linker_4, # of connection points: 2
#     Edge 6, Type (0, 0), BuildingBlock: EYOCIG_clean_linker_4, # of connection points: 2
# Relax obj value: 0.039
# Max RMSD: 0.098
# Mean RMSD: 0.098
data_MOF--net-bnn--node1-XOMCOT_clean_sbu_1--edge1-EYOCIG_clean_linker_4
_symmetry_space_group_name_H-M    P1
_symmetry_Int_Tables_number       1
_symmetry_cell_setting            triclinic
loop_
_symmetry_equiv_pos_as_xyz
'x, y, z'
_cell_length_a     25.5216
_cell_length_b     21.607657
_cell_length_c     14.315831
_cell_angle_alpha  100.61087
_cell_angle_beta   89.991616
_cell_angle_gamma 126.19509
loop_
_atom_site_label
_atom_site_type_symbol
_atom_site_fract_x
_atom_site_fract_y
_atom_site_fract_z
_atom_type_partial_charge
C0 C 0.25689 0.60322 0.90779 0.0
C1 C 0.24768 0.59663 0.81062 0.0
N2 N 0.27304 0.6686 0.79681 0.0
N3 N 0.28831 0.6792 0.95416 0.0
C4 C 0.29692 0.7176 0.88424 0.0
H5 H 0.24372 0.55626 0.94237 0.0
Co6 Co 0.31613 0.7181 0.08604 0.0
C7 C 0.43628 0.87885 0.06727 0.0
O8 O 0.47881 0.86498 0.08164 0.0
N9 N 0.34237 0.75662 0.21991 0.0
C10 C 0.39938 0.81945 0.36639 0.0
C11 C 0.40218 0.81572 0.26982 0.0
C12 C 0.30418 0.72525 0.28835 0.0
N13 N 0.33783 0.76254 0.37721 0.0
O14 O 0.24725 0.72868 0.09818 0.0
H15 H 0.44621 0.85202 0.23942 0.0
H16 H 0.25346 0.67392 0.27344 0.0
O17 O 0.37506 0.82682 0.06802 0.0
C18 C 0.19369 0.66207 0.0989 0.0
O19 O 0.19383 0.60101 0.0949 0.0
N20 N 0.37857 0.69757 0.07285 0.0
C21 C 0.43872 0.62371 1.03716 0.0
C22 C 0.44396 0.67124 0.97779 0.0
C23 C 0.41267 0.70704 0.99618 0.0
C24 C 0.37368 0.65128 0.13095 0.0
C25 C 0.4043 0.61491 0.11529 0.0
H26 H 0.41323 0.73914 0.94606 0.0
H27 H 0.34236 0.63786 0.18643 0.0
H28 H 0.32236 0.78052 0.89638 0.0
H29 H 0.22637 0.54391 0.75438 0.0
H30 H 0.43989 0.85866 0.42388 0.0
H31 H 0.46966 0.67808 0.91576 0.0
H32 H 0.39851 0.57727 0.1614 0.0
C33 C 0.71699 0.5235 0.18619 0.0
C34 C 0.71436 0.53008 0.28335 0.0
N35 N 0.66776 0.4581 0.29716 0.0
N36 N 0.67246 0.44752 0.13981 0.0
C37 C 0.64267 0.40911 0.20972 0.0
H38 H 0.75078 0.57047 0.15162 0.0
Co39 Co 0.66141 0.40864 1.00792 0.0
C40 C 0.62081 0.24787 1.02666 0.0
O41 O 0.67722 0.26175 1.01231 0.0
N42 N 0.64917 0.37014 0.87405 0.0
C43 C 0.64341 0.30734 0.72757 0.0
C44 C 0.64994 0.31107 0.82414 0.0
C45 C 0.6423 0.40146 0.80561 0.0
N46 N 0.6387 0.36419 0.71675 0.0
O47 O 0.58195 0.39805 0.99578 0.0
H48 H 0.65773 0.27483 0.85455 0.0
H49 H 0.64285 0.45276 0.82051 0.0
O50 O 0.61162 0.29991 1.02591 0.0
C51 C 0.59499 0.46466 0.99507 0.0
O52 O 0.6562 0.52573 0.99908 0.0
N53 N 0.74437 0.42917 1.02112 0.0
C54 C 0.87838 0.50302 0.0568 0.0
C55 C 0.83608 0.45549 0.11617 0.0
C56 C 0.76899 0.41969 0.09778 0.0
C57 C 0.78579 0.47547 0.96303 0.0
C58 C 0.85277 0.51184 0.97868 0.0
H59 H 0.73744 0.38758 0.14788 0.0
H60 H 0.7679 0.4889 0.90756 0.0
H61 H 0.60521 0.34619 0.19758 0.0
H62 H 0.74576 0.5828 0.3396 0.0
H63 H 0.64475 0.26815 0.67009 0.0
H64 H 0.85493 0.44864 0.17818 0.0
H65 H 0.88463 0.54949 0.93258 0.0
C66 C 0.48616 0.54239 1.00406 0.0
C67 C 0.46538 0.5805 1.01633 0.0
C68 C 0.51403 0.50177 0.99624 0.0
C69 C 0.54548 0.47664 0.99511 0.0
C70 C 1.00713 0.58434 0.0899 0.0
C71 C 0.94824 0.54623 0.07762 0.0
C72 C 0.07562 0.62496 0.09772 0.0
C73 C 0.13219 0.65009 0.09885 0.0
C74 C 0.48828 1.02352 0.0504 0.0
C75 C 0.46057 0.95635 0.05746 0.0
C76 C 0.52813 0.10321 0.04351 0.0
C77 C 0.5676 0.17038 1.03646 0.0
C78 C 0.28769 0.70654 0.63099 0.0
C79 C 0.28125 0.68984 0.70815 0.0
C80 C 0.30033 0.7251 0.54019 0.0
C81 C 0.316 0.74079 0.4636 0.0
C82 C 0.64448 0.42014 0.46297 0.0
C83 C 0.65474 0.43685 0.38581 0.0
C84 C 0.63858 0.40158 0.55377 0.0
C85 C 0.63859 0.38591 0.63036 0.0
loop_
_geom_bond_atom_site_label_1
_geom_bond_atom_site_label_2
_geom_bond_distance
_geom_bond_site_symmetry_2
_ccdc_geom_bond_type
C0 C1 1.351 . S
C0 N3 1.368 . S
C0 H5 0.931 . S
C1 C0 1.351 . S
C1 N2 1.373 . S
C1 H29 0.930 . S
N2 C1 1.373 . S
N2 C4 1.340 . S
N3 C0 1.368 . S
N3 C4 1.321 . S
N3 Co6 2.135 1_556 S
C4 N2 1.340 . S
C4 N3 1.321 . S
C4 H28 0.930 . S
H5 C0 0.931 . S
Co6 N3 2.135 1_554 S
Co6 N9 2.121 . S
Co6 O14 2.055 . S
Co6 O17 2.039 . S
Co6 N20 2.140 . S
C7 O8 1.227 1_554 S
C7 O17 1.265 . S
O8 C7 1.227 1_556 S
N9 Co6 2.121 . S
N9 C11 1.375 . S
N9 C12 1.313 . S
C10 C11 1.338 . S
C10 N13 1.377 . S
C10 H30 0.930 . S
C11 N9 1.375 . S
C11 C10 1.338 . S
C11 H15 0.931 . S
C12 N9 1.313 . S
C12 N13 1.344 . S
C12 H16 0.930 . S
N13 C10 1.377 . S
N13 C12 1.344 . S
O14 Co6 2.055 . S
O14 C18 1.253 . S
H15 C11 0.931 . S
H16 C12 0.930 . S
O17 Co6 2.039 . S
O17 C7 1.265 . S
C18 O14 1.253 . S
C18 O19 1.227 . S
O19 C18 1.227 . S
N20 Co6 2.140 . S
N20 C23 1.346 1_554 S
N20 C24 1.345 . S
C21 C22 1.387 . S
C21 C25 1.391 1_556 S
C22 C21 1.387 . S
C22 C23 1.369 . S
C22 H31 0.929 . S
C23 N20 1.346 1_556 S
C23 C22 1.369 . S
C23 H26 0.928 . S
C24 N20 1.345 . S
C24 C25 1.371 . S
C24 H27 0.931 . S
C25 C21 1.391 1_554 S
C25 C24 1.371 . S
C25 H32 0.930 . S
H26 C23 0.928 . S
H27 C24 0.931 . S
H28 C4 0.930 . S
H29 C1 0.930 . S
H30 C10 0.930 . S
H31 C22 0.929 . S
H32 C25 0.930 . S
C33 C34 1.351 . S
C33 N36 1.368 . S
C33 H38 0.931 . S
C34 C33 1.351 . S
C34 N35 1.373 . S
C34 H62 0.930 . S
N35 C34 1.373 . S
N35 C37 1.340 . S
N36 C33 1.368 . S
N36 C37 1.321 . S
N36 Co39 2.135 . S
C37 N35 1.340 . S
C37 N36 1.321 . S
C37 H61 0.930 . S
H38 C33 0.931 . S
Co39 N36 2.135 . S
Co39 N42 2.121 1_554 S
Co39 O47 2.055 . S
Co39 O50 2.039 . S
Co39 N53 2.140 . S
C40 O41 1.227 . S
C40 O50 1.265 . S
O41 C40 1.227 . S
N42 Co39 2.121 1_556 S
N42 C44 1.375 . S
N42 C45 1.313 . S
C43 C44 1.338 . S
C43 N46 1.377 . S
C43 H63 0.930 . S
C44 N42 1.375 . S
C44 C43 1.338 . S
C44 H48 0.931 . S
C45 N42 1.313 . S
C45 N46 1.344 . S
C45 H49 0.930 . S
N46 C43 1.377 . S
N46 C45 1.344 . S
O47 Co39 2.055 . S
O47 C51 1.253 1_554 S
H48 C44 0.931 . S
H49 C45 0.930 . S
O50 Co39 2.039 . S
O50 C40 1.265 . S
C51 O47 1.253 1_556 S
C51 O52 1.227 . S
O52 C51 1.227 . S
N53 Co39 2.140 . S
N53 C56 1.346 . S
N53 C57 1.345 1_554 S
C54 C55 1.387 . S
C54 C58 1.391 1_554 S
C55 C54 1.387 . S
C55 C56 1.369 . S
C55 H64 0.929 . S
C56 N53 1.346 . S
C56 C55 1.369 . S
C56 H59 0.928 . S
C57 N53 1.345 1_556 S
C57 C58 1.371 . S
C57 H60 0.931 . S
C58 C54 1.391 1_556 S
C58 C57 1.371 . S
C58 H65 0.930 . S
H59 C56 0.928 . S
H60 C57 0.931 . S
H61 C37 0.930 . S
H62 C34 0.930 . S
H63 C43 0.930 . S
H64 C55 0.929 . S
H65 C58 0.930 . S
C66 C67 1.170 . S
C66 C68 1.380 . S
C67 C66 1.170 . S
C68 C66 1.380 . S
C68 C69 1.170 . S
C69 C68 1.170 . S
C70 C71 1.170 . S
C70 C72 1.380 1_655 S
C71 C70 1.170 . S
C72 C70 1.380 1_455 S
C72 C73 1.170 . S
C73 C72 1.170 . S
C74 C75 1.170 . S
C74 C76 1.380 1_565 S
C75 C74 1.170 . S
C76 C74 1.380 1_545 S
C76 C77 1.170 . S
C77 C76 1.170 . S
C78 C79 1.170 . S
C78 C80 1.380 . S
C79 C78 1.170 . S
C80 C78 1.380 . S
C80 C81 1.170 . S
C81 C80 1.170 . S
C82 C83 1.170 . S
C82 C84 1.380 . S
C83 C82 1.170 . S
C84 C82 1.380 . S
C84 C85 1.170 . S
C85 C84 1.170 . S
C67 C21 1.506 . S
C69 C51 1.505 . S
C71 C54 1.506 . S
C73 C18 1.505 . S
C75 C7 1.489 . S
C77 C40 1.500 . S
C79 N2 1.464 . S
C81 N13 1.453 . S
C83 N35 1.478 . S
C85 N46 1.458 . S
