# Generated by pormake.
# Topology pcu, (6)-cn, num edge types: 1
# Building blocks:
#     Node 0, Type 0, BuildingBlock: MIFKUJ_clean_sbu_0, # of connection points: 6
#     Edge 1, Type (0, 0), BuildingBlock: FUNLAD_clean_linker_0, # of connection points: 2
#     Edge 2, Type (0, 0), BuildingBlock: FUNLAD_clean_linker_0, # of connection points: 2
#     Edge 3, Type (0, 0), BuildingBlock: FUNLAD_clean_linker_0, # of connection points: 2
# Relax obj value: 0.000
# Max RMSD: 0.000
# Mean RMSD: 0.000
data_MOF--net-pcu--node1-MIFKUJ_clean_sbu_0--edge1-FUNLAD_clean_linker_0
_symmetry_space_group_name_H-M    P1
_symmetry_Int_Tables_number       1
_symmetry_cell_setting            triclinic
loop_
_symmetry_equiv_pos_as_xyz
'x, y, z'
_cell_length_a     19.744495
_cell_length_b     21.296932
_cell_length_c     16.541319
_cell_angle_alpha  100.55106
_cell_angle_beta   89.972661
_cell_angle_gamma 109.07306
loop_
_atom_site_label
_atom_site_type_symbol
_atom_site_fract_x
_atom_site_fract_y
_atom_site_fract_z
_atom_type_partial_charge
Zn0 Zn 0.03111 0.88538 0.98283 0.0
Zn1 Zn 0.97371 0.04476 -0.00034 0.0
C2 C 0.17224 0.903 0.92933 0.0
O3 O 0.13639 0.84912 0.87459 0.0
C4 C 0.83206 0.0437 -0.00347 0.0
O5 O 0.86245 0.09181 0.06037 0.0
O6 O 0.01516 0.78714 0.98188 0.0
O7 O -0.00212 0.92437 0.09026 0.0
O8 O 0.97218 0.0203 0.11176 0.0
C9 C 0.04536 0.77229 0.04005 0.0
O10 O 0.08339 0.82123 0.09933 0.0
O11 O 0.13793 0.92986 0.98202 0.0
C12 C 0.9928 0.16843 0.94805 0.0
O13 O 0.9547 0.12489 0.8843 0.0
O14 O 0.01062 0.14619 0.00813 0.0
O15 O 0.03201 0.00207 0.92432 0.0
O16 O 0.98385 0.89344 0.88005 0.0
O17 O 0.87008 0.01232 0.95631 0.0
C18 C 0.97887 0.96945 0.13706 0.0
C19 C 0.99622 0.95319 0.86844 0.0
C20 C 0.94866 0.01255 0.27968 0.0
C21 C 0.96543 0.96241 0.2236 0.0
C22 C 0.93753 0.00585 0.36169 0.0
C23 C 0.94318 0.94886 0.38919 0.0
C24 C 0.95788 0.89807 0.33251 0.0
C25 C 0.96918 0.9048 0.2509 0.0
C26 C 0.93529 0.94037 0.4762 0.0
C27 C 0.94778 -0.00757 0.54062 0.0
C28 C 0.95236 -0.01647 0.62719 0.0
C29 C -0.00116 0.03673 0.68512 0.0
C30 C 0.01129 0.0276 0.76454 0.0
C31 C 0.97664 0.9653 0.78797 0.0
H32 H 0.87628 0.88106 0.61004 0.0
C33 C 0.92701 0.91326 0.73156 0.0
C34 C 0.91461 0.92236 0.65204 0.0
H35 H 0.89879 0.865 0.74831 0.0
H36 H 0.94446 0.05716 0.26045 0.0
H37 H 0.92415 0.04517 0.40284 0.0
H38 H 0.96201 0.8534 0.35177 0.0
H39 H 0.98123 0.86477 0.20937 0.0
H40 H 0.92614 0.88973 0.48768 0.0
H41 H 0.96356 0.04392 0.52998 0.0
H42 H 0.02812 0.08455 0.66785 0.0
H43 H 0.0502 0.06854 0.8065 0.0
C44 C 0.28985 0.89475 0.88075 0.0
C45 C 0.25172 0.92832 0.93408 0.0
C46 C 0.36482 0.91544 0.88923 0.0
C47 C 0.4034 0.97061 0.95113 0.0
C48 C 0.36512 0.00481 0.00324 0.0
C49 C 0.29026 -0.0159 -0.00521 0.0
C50 C 0.48269 -0.00792 0.96702 0.0
C51 C 0.52794 -0.02608 0.91382 0.0
C52 C 0.6066 -0.00583 0.93379 0.0
C53 C 0.64519 0.95429 0.89266 0.0
C54 C 0.7187 0.97048 0.91204 0.0
C55 C 0.75506 0.02712 0.97289 0.0
H56 H 0.61723 0.08622 0.02315 0.0
C57 C 0.71697 0.06818 0.01215 0.0
C58 C 0.64384 0.05228 0.9925 0.0
H59 H 0.74366 0.11295 0.05823 0.0
H60 H 0.26174 0.85133 0.83357 0.0
H61 H 0.3915 0.88649 0.84871 0.0
H62 H 0.3932 0.04734 0.0516 0.0
H63 H 0.2626 0.01111 0.03694 0.0
H64 H 0.50411 0.02369 0.02668 0.0
H65 H 0.50721 0.9414 0.85454 0.0
H66 H 0.61814 0.90974 0.84641 0.0
H67 H 0.7467 0.93813 0.88022 0.0
C68 C 0.00736 0.65012 0.97104 0.0
C69 C 0.04087 0.70143 0.03899 0.0
C70 C 0.00547 0.58367 0.96868 0.0
C71 C 0.03733 0.56711 0.03426 0.0
C72 C 0.06913 0.61803 0.10304 0.0
C73 C 0.07137 0.68461 0.10522 0.0
C74 C 0.03605 0.49694 0.03406 0.0
C75 C 0.03433 0.4523 0.96422 0.0
C76 C 0.02836 0.38054 0.96171 0.0
C77 C 0.00146 0.33371 0.88812 0.0
C78 C 0.99147 0.26516 0.88336 0.0
C79 C 0.00886 0.24183 0.95202 0.0
H80 H 0.07142 0.39227 0.08682 0.0
C81 C 0.03846 0.2889 0.02489 0.0
C82 C 0.04821 0.35764 0.02978 0.0
H83 H 0.05296 0.27255 0.07866 0.0
H84 H 0.98282 0.66128 0.91931 0.0
H85 H 0.97803 0.5454 0.91593 0.0
H86 H 0.09319 0.60647 0.15482 0.0
H87 H 0.09722 0.72288 0.15875 0.0
H88 H 0.03682 0.4824 0.09348 0.0
H89 H 0.03457 0.46799 0.90531 0.0
H90 H 0.98647 0.34994 0.83445 0.0
H91 H 0.96909 0.23034 0.82602 0.0
loop_
_geom_bond_atom_site_label_1
_geom_bond_atom_site_label_2
_geom_bond_distance
_geom_bond_site_symmetry_2
_ccdc_geom_bond_type
Zn0 O6 1.969 . S
Zn0 O7 1.965 1_456 S
Zn0 O11 2.024 1_556 S
Zn0 O16 1.969 . S
Zn1 O8 1.969 . S
Zn1 O14 1.969 . S
Zn1 O15 1.965 1_654 S
Zn1 O17 2.024 1_554 S
C2 O3 1.229 . S
C2 O11 1.058 1_556 S
O3 C2 1.229 . S
C4 O5 1.229 . S
C4 O17 1.058 1_554 S
O5 C4 1.229 . S
O6 Zn0 1.969 . S
O6 C9 1.267 1_556 S
O7 Zn0 1.965 1_654 S
O7 C18 1.266 . S
O8 Zn1 1.969 . S
O8 C18 1.249 1_545 S
C9 O6 1.267 1_554 S
C9 O10 1.228 . S
O10 C9 1.228 . S
O11 Zn0 2.024 1_554 S
O11 C2 1.058 1_554 S
C12 O13 1.228 . S
C12 O14 1.267 1_556 S
O13 C12 1.228 . S
O14 Zn1 1.969 . S
O14 C12 1.267 1_554 S
O15 Zn1 1.965 1_456 S
O15 C19 1.269 . S
O16 Zn0 1.969 . S
O16 C19 1.245 1_565 S
O17 Zn1 2.024 1_556 S
O17 C4 1.058 1_556 S
C18 O7 1.266 . S
C18 O8 1.249 1_565 S
C19 O15 1.269 . S
C19 O16 1.245 1_545 S
C20 C21 1.386 1_545 S
C20 C22 1.383 . S
C20 H36 0.951 . S
C21 C20 1.386 1_565 S
C21 C25 1.383 1_655 S
C22 C20 1.383 . S
C22 C23 1.402 1_545 S
C22 H37 0.951 . S
C23 C22 1.402 1_565 S
C23 C24 1.375 1_655 S
C23 C26 1.481 . S
C24 C23 1.375 1_455 S
C24 C25 1.367 . S
C24 H38 0.951 . S
C25 C21 1.383 1_455 S
C25 C24 1.367 . S
C25 H39 0.950 . S
C26 C23 1.481 . S
C26 C27 1.297 . S
C26 H40 0.950 1_655 S
C27 C26 1.297 . S
C27 C28 1.479 . S
C27 H41 0.950 1_565 S
C28 C27 1.479 . S
C28 C29 1.375 1_565 S
C28 C34 1.410 . S
C29 C28 1.375 1_545 S
C29 C30 1.369 . S
C29 H42 0.950 . S
C30 C29 1.369 . S
C30 C31 1.392 1_545 S
C30 H43 0.951 . S
C31 C30 1.392 1_565 S
C31 C33 1.384 1_655 S
H32 C34 0.943 1_455 S
C33 C31 1.384 1_455 S
C33 C34 1.384 1_455 S
C33 H35 0.950 . S
C34 C28 1.410 . S
C34 H32 0.943 1_655 S
C34 C33 1.384 1_655 S
H35 C33 0.950 . S
H36 C20 0.951 . S
H37 C22 0.951 . S
H38 C24 0.951 . S
H39 C25 0.950 . S
H40 C26 0.950 1_455 S
H41 C27 0.950 1_545 S
H42 C29 0.950 . S
H43 C30 0.951 . S
C44 C45 1.386 1_565 S
C44 C46 1.383 . S
C44 H60 0.951 . S
C45 C44 1.386 1_545 S
C45 C49 1.383 1_556 S
C46 C44 1.383 . S
C46 C47 1.402 1_565 S
C46 H61 0.951 . S
C47 C46 1.402 1_545 S
C47 C48 1.375 1_556 S
C47 C50 1.481 . S
C48 C47 1.375 1_554 S
C48 C49 1.367 . S
C48 H62 0.951 . S
C49 C45 1.383 1_554 S
C49 C48 1.367 . S
C49 H63 0.950 . S
C50 C47 1.481 . S
C50 C51 1.297 1_545 S
C50 H64 0.950 1_556 S
C51 C50 1.297 1_565 S
C51 C52 1.479 . S
C51 H65 0.950 . S
C52 C51 1.479 . S
C52 C53 1.375 . S
C52 C58 1.404 1_565 S
C53 C52 1.375 . S
C53 C54 1.369 . S
C53 H66 0.950 . S
C54 C53 1.369 . S
C54 C55 1.387 1_565 S
C54 H67 0.951 . S
C55 C54 1.387 1_545 S
C55 C57 1.394 . S
H56 C58 0.949 . S
C57 C55 1.394 . S
C57 C58 1.385 . S
C57 H59 0.950 1_556 S
C58 C52 1.404 1_545 S
C58 H56 0.949 . S
C58 C57 1.385 . S
H59 C57 0.950 1_554 S
H60 C44 0.951 . S
H61 C46 0.951 . S
H62 C48 0.951 . S
H63 C49 0.950 . S
H64 C50 0.950 1_554 S
H65 C51 0.950 . S
H66 C53 0.950 . S
H67 C54 0.951 . S
C68 C69 1.379 1_656 S
C68 C70 1.383 . S
C68 H84 0.951 . S
C69 C68 1.379 1_454 S
C69 C73 1.392 . S
C70 C68 1.383 . S
C70 C71 1.402 1_656 S
C70 H85 0.951 . S
C71 C70 1.402 1_454 S
C71 C72 1.375 . S
C71 C74 1.481 . S
C72 C71 1.375 . S
C72 C73 1.367 . S
C72 H86 0.951 . S
C73 C69 1.392 . S
C73 C72 1.367 . S
C73 H87 0.950 . S
C74 C71 1.481 . S
C74 C75 1.297 1_554 S
C74 H88 0.950 . S
C75 C74 1.297 1_556 S
C75 C76 1.479 . S
C75 H89 0.950 1_455 S
C76 C75 1.479 . S
C76 C77 1.375 1_455 S
C76 C82 1.404 1_556 S
C77 C76 1.375 1_655 S
C77 C78 1.369 . S
C77 H90 0.950 . S
C78 C77 1.369 . S
C78 C79 1.392 1_655 S
C78 H91 0.951 . S
C79 C78 1.392 1_455 S
C79 C81 1.384 1_556 S
H80 C82 0.949 . S
C81 C79 1.384 1_554 S
C81 C82 1.385 . S
C81 H83 0.950 . S
C82 C76 1.404 1_554 S
C82 H80 0.949 . S
C82 C81 1.385 . S
H83 C81 0.950 . S
H84 C68 0.951 . S
H85 C70 0.951 . S
H86 C72 0.951 . S
H87 C73 0.950 . S
H88 C74 0.950 . S
H89 C75 0.950 1_655 S
H90 C77 0.950 . S
H91 C78 0.951 . S
C21 C18 1.482 . S
C31 C19 1.492 1_665 S
C45 C2 1.440 1_545 S
C55 C4 1.406 1_556 S
C69 C9 1.428 . S
C79 C12 1.460 1_455 S
