# Generated by pormake.
# Topology pcu, (6)-cn, num edge types: 1
# Building blocks:
#     Node 0, Type 0, BuildingBlock: BETGAK_clean_sbu_0, # of connection points: 6
#     Edge 1, Type (0, 0), BuildingBlock: EYOCIG_clean_linker_4, # of connection points: 2
#     Edge 2, Type (0, 0), BuildingBlock: EYOCIG_clean_linker_4, # of connection points: 2
#     Edge 3, Type (0, 0), BuildingBlock: EYOCIG_clean_linker_4, # of connection points: 2
# Relax obj value: 0.000
# Max RMSD: 0.000
# Mean RMSD: 0.000
data_MOF--net-pcu--node1-BETGAK_clean_sbu_0--edge1-EYOCIG_clean_linker_4
_symmetry_space_group_name_H-M    P1
_symmetry_Int_Tables_number       1
_symmetry_cell_setting            triclinic
loop_
_symmetry_equiv_pos_as_xyz
'x, y, z'
_cell_length_a     11.981233
_cell_length_b     22.286645
_cell_length_c     11.242288
_cell_angle_alpha  97.572445
_cell_angle_beta   85.697613
_cell_angle_gamma 119.09103
loop_
_atom_site_label
_atom_site_type_symbol
_atom_site_fract_x
_atom_site_fract_y
_atom_site_fract_z
_atom_type_partial_charge
La0 La 0.08769 0.08746 0.03094 0.0
La1 La 0.95072 0.93432 0.02877 0.0
C2 C 0.16316 0.21051 0.99153 0.0
C3 C 0.11799 0.26241 1.006 0.0
C4 C 0.1514 0.31126 0.10834 0.0
C5 C 0.12309 0.36559 0.11604 0.0
C6 C 0.06156 0.37219 1.0215 0.0
C7 C 0.0241 0.32262 0.92106 0.0
C8 C 0.05228 0.26815 0.91315 0.0
C9 C 0.0576 0.04378 0.2431 0.0
C10 C 0.78234 1.0044 0.04018 0.0
C11 C 0.87515 0.81107 0.06698 0.0
C12 C 0.92103 0.75948 0.0533 0.0
C13 C 0.88767 0.71031 0.95145 0.0
C14 C 0.91667 0.65625 0.94434 0.0
C15 C 0.97885 0.65025 0.03901 0.0
C16 C 1.01628 0.70017 0.13896 0.0
C17 C 0.98743 0.75437 0.14627 0.0
C18 C 0.98096 0.9785 0.81684 0.0
C19 C 0.25595 0.01736 1.0201 0.0
O20 O 0.18708 0.19334 0.08957 0.0
O21 O 0.10773 0.1571 0.91093 0.0
O22 O 0.15568 0.0989 0.21151 0.0
O23 O 0.97603 0.01756 0.16106 0.0
O24 O 0.88693 0.06098 1.01491 0.0
O25 O 0.78543 0.9495 0.06787 0.0
O26 O 0.85306 0.82861 0.96846 0.0
O27 O 0.92867 0.86416 0.14855 0.0
O28 O 0.8825 0.92351 0.84836 0.0
O29 O 0.06243 1.00417 0.89889 0.0
O30 O 0.15138 0.96089 0.04574 0.0
O31 O 0.25282 0.07213 0.9918 0.0
H32 H 0.20298 0.3088 0.18103 0.0
H33 H 0.15257 0.40354 0.19433 0.0
H34 H 0.97632 0.32707 0.84725 0.0
H35 H 0.02597 0.23183 0.83278 0.0
H36 H 0.8356 0.7123 0.8787 0.0
H37 H 0.8872 0.61803 0.86642 0.0
H38 H 0.06457 0.69618 0.21286 0.0
H39 H 1.01378 0.79097 0.22626 0.0
C40 C 0.0239 0.01607 0.46854 0.0
C41 C 0.03419 0.02638 0.36448 0.0
C42 C 1.01514 1.00637 0.59149 0.0
C43 C 1.00472 0.99601 0.69552 0.0
C44 C 0.47182 0.01359 1.02728 0.0
C45 C 0.37584 0.0179 1.02271 0.0
C46 C 0.56646 1.00817 0.03324 0.0
C47 C 0.66244 1.00386 0.03768 0.0
C48 C 1.01304 0.54103 0.0326 0.0
C49 C 0.99783 0.59094 0.03623 0.0
C50 C 0.02825 0.48175 0.02877 0.0
C51 C 0.04315 0.43173 1.02493 0.0
loop_
_geom_bond_atom_site_label_1
_geom_bond_atom_site_label_2
_geom_bond_distance
_geom_bond_site_symmetry_2
_ccdc_geom_bond_type
La0 C2 2.928 . S
La0 O20 2.521 . S
La0 O21 2.628 1_554 S
La0 O22 2.554 . S
La0 O23 2.757 1_545 S
La0 O24 2.470 1_455 S
La0 O29 2.482 1_454 S
La0 O31 2.503 . S
La1 C11 2.928 . S
La1 O23 2.482 1_656 S
La1 O25 2.503 . S
La1 O26 2.521 . S
La1 O27 2.628 1_556 S
La1 O28 2.554 . S
La1 O29 2.757 1_565 S
La1 O30 2.470 1_655 S
C2 La0 2.928 . S
C2 C3 1.503 . S
C2 O20 1.261 . S
C2 O21 1.243 1_554 S
C3 C2 1.503 . S
C3 C4 1.394 . S
C3 C8 1.373 1_454 S
C4 C3 1.394 . S
C4 C5 1.380 . S
C4 H32 0.930 . S
C5 C4 1.380 . S
C5 C6 1.376 . S
C5 H33 0.930 . S
C6 C5 1.376 . S
C6 C7 1.370 1_454 S
C7 C6 1.370 1_656 S
C7 C8 1.396 . S
C7 H34 0.929 . S
C8 C3 1.373 1_656 S
C8 C7 1.396 . S
C8 H35 0.929 . S
C9 O22 1.240 . S
C9 O23 1.289 1_545 S
C10 O24 1.258 1_565 S
C10 O25 1.255 1_554 S
C11 La1 2.928 . S
C11 C12 1.503 . S
C11 O26 1.261 . S
C11 O27 1.243 1_556 S
C12 C11 1.503 . S
C12 C13 1.394 . S
C12 C17 1.373 1_656 S
C13 C12 1.394 . S
C13 C14 1.380 . S
C13 H36 0.930 . S
C14 C13 1.380 . S
C14 C15 1.385 . S
C14 H37 0.930 . S
C15 C14 1.385 . S
C15 C16 1.363 1_656 S
C16 C15 1.363 1_454 S
C16 C17 1.396 . S
C16 H38 0.929 . S
C17 C12 1.373 1_454 S
C17 C16 1.396 . S
C17 H39 0.929 . S
C18 O28 1.240 . S
C18 O29 1.289 1_565 S
C19 O30 1.258 1_545 S
C19 O31 1.256 1_556 S
O20 La0 2.521 . S
O20 C2 1.261 . S
O21 La0 2.628 1_556 S
O21 C2 1.243 1_556 S
O22 La0 2.554 . S
O22 C9 1.240 . S
O23 La0 2.757 1_565 S
O23 La1 2.482 1_454 S
O23 C9 1.289 1_565 S
O24 La0 2.470 1_655 S
O24 C10 1.258 1_545 S
O25 La1 2.503 . S
O25 C10 1.255 1_556 S
O26 La1 2.521 . S
O26 C11 1.261 . S
O27 La1 2.628 1_554 S
O27 C11 1.243 1_554 S
O28 La1 2.554 . S
O28 C18 1.240 . S
O29 La0 2.482 1_656 S
O29 La1 2.757 1_545 S
O29 C18 1.289 1_545 S
O30 La1 2.470 1_455 S
O30 C19 1.258 1_565 S
O31 La0 2.503 . S
O31 C19 1.256 1_554 S
H32 C4 0.930 . S
H33 C5 0.930 . S
H34 C7 0.929 . S
H35 C8 0.929 . S
H36 C13 0.930 . S
H37 C14 0.930 . S
H38 C16 0.929 . S
H39 C17 0.929 . S
C40 C41 1.170 . S
C40 C42 1.380 . S
C41 C40 1.170 . S
C42 C40 1.380 . S
C42 C43 1.170 . S
C43 C42 1.170 . S
C44 C45 1.183 1_545 S
C44 C46 1.383 . S
C45 C44 1.183 1_565 S
C46 C44 1.383 . S
C46 C47 1.166 . S
C47 C46 1.166 . S
C48 C49 1.170 . S
C48 C50 1.380 . S
C49 C48 1.170 . S
C50 C48 1.380 . S
C50 C51 1.170 . S
C51 C50 1.170 . S
C41 C9 1.464 1_665 S
C43 C18 1.441 . S
C45 C19 1.481 1_564 S
C47 C10 1.474 1_545 S
C49 C15 1.497 1_454 S
C51 C6 1.496 . S
