# Generated by pormake.
# Topology qtz-x, (6)-cn, num edge types: 1
# Building blocks:
#     Node 0, Type 0, BuildingBlock: UKALOJ_clean_sbu_0, # of connection points: 6
#     Node 1, Type 0, BuildingBlock: UKALOJ_clean_sbu_0, # of connection points: 6
#     Node 2, Type 0, BuildingBlock: UKALOJ_clean_sbu_0, # of connection points: 6
#     Edge 3, Type (0, 0), BuildingBlock: CIFDUS_clean_linker_0, # of connection points: 2
#     Edge 4, Type (0, 0), BuildingBlock: CIFDUS_clean_linker_0, # of connection points: 2
#     Edge 5, Type (0, 0), BuildingBlock: CIFDUS_clean_linker_0, # of connection points: 2
#     Edge 6, Type (0, 0), BuildingBlock: CIFDUS_clean_linker_0, # of connection points: 2
#     Edge 7, Type (0, 0), BuildingBlock: CIFDUS_clean_linker_0, # of connection points: 2
#     Edge 8, Type (0, 0), BuildingBlock: CIFDUS_clean_linker_0, # of connection points: 2
#     Edge 9, Type (0, 0), BuildingBlock: CIFDUS_clean_linker_0, # of connection points: 2
#     Edge 10, Type (0, 0), BuildingBlock: CIFDUS_clean_linker_0, # of connection points: 2
#     Edge 11, Type (0, 0), BuildingBlock: CIFDUS_clean_linker_0, # of connection points: 2
# Relax obj value: 0.317
# Max RMSD: 0.259
# Mean RMSD: 0.257
data_MOF--net-qtz-x--node1-UKALOJ_clean_sbu_0--edge1-CIFDUS_clean_linker_0
_symmetry_space_group_name_H-M    P1
_symmetry_Int_Tables_number       1
_symmetry_cell_setting            triclinic
loop_
_symmetry_equiv_pos_as_xyz
'x, y, z'
_cell_length_a     17.910845
_cell_length_b     18.110992
_cell_length_c     27.728393
_cell_angle_alpha  93.61671
_cell_angle_beta   93.814699
_cell_angle_gamma 119.98404
loop_
_atom_site_label
_atom_site_type_symbol
_atom_site_fract_x
_atom_site_fract_y
_atom_site_fract_z
_atom_type_partial_charge
Zn0 Zn 0.02826 0.55854 0.21724 0.0
O1 O 0.10018 0.60272 0.15462 0.0
C2 C 0.86441 0.44796 0.14996 0.0
Zn3 Zn 0.0073 0.42933 0.19578 0.0
C4 C 0.11103 0.54986 0.12782 0.0
O5 O 0.07884 0.47315 0.13747 0.0
C6 C 0.92176 0.43153 0.28368 0.0
O7 O 0.12931 0.4712 0.24305 0.0
O8 O 0.14377 0.59837 0.25867 0.0
N9 N 0.99282 0.31206 0.17806 0.0
C10 C 0.99135 0.25347 0.20616 0.0
C11 C 0.97946 0.20441 0.13233 0.0
N12 N 0.98519 0.28145 0.13221 0.0
N13 N 0.98243 0.18522 0.17829 0.0
C14 C 0.04151 0.73329 0.20706 0.0
C15 C 0.05514 0.78279 0.28101 0.0
N16 N 0.04166 0.67527 0.23506 0.0
N17 N 0.05026 0.70609 0.28098 0.0
N18 N 0.05052 0.80145 0.23506 0.0
H19 H 0.99106 0.6526 0.13818 0.0
H20 H 0.09151 0.75133 0.1382 0.0
H21 H 0.99172 0.75241 0.1388 0.0
C22 C 0.02752 0.72121 0.15248 0.0
C23 C 0.00348 0.26502 0.26075 0.0
H24 H 0.03907 0.23395 0.27495 0.0
H25 H 0.93885 0.23449 0.27431 0.0
H26 H 0.03925 0.33355 0.27523 0.0
O27 O 0.93198 0.38321 0.25317 0.0
O28 O 0.95813 0.51152 0.27967 0.0
C29 C 0.17273 0.54809 0.26376 0.0
O30 O 0.91067 0.51934 0.17585 0.0
O31 O 0.88933 0.39322 0.1488 0.0
Zn32 Zn 0.60187 0.02048 0.54192 0.0
O33 O 0.56767 0.90825 0.48961 0.0
C34 C 0.60921 0.11644 0.45944 0.0
Zn35 Zn 0.47071 0.99797 0.51954 0.0
C36 C 0.49075 0.86445 0.46783 0.0
O37 O 0.43677 0.88867 0.47442 0.0
C38 C 0.57325 0.1521 0.59296 0.0
O39 O 0.41728 0.91738 0.57803 0.0
O40 O 0.54798 0.93682 0.59343 0.0
N41 N 0.35462 0.98634 0.49671 0.0
C42 C 0.2944 0.99196 0.52077 0.0
C43 C 0.25732 0.98296 0.44496 0.0
N44 N 0.33113 0.98016 0.44965 0.0
N45 N 0.2327 0.98997 0.48905 0.0
C46 C 0.7746 0.02061 0.54022 0.0
C47 C 0.82261 0.04796 0.61557 0.0
N48 N 0.71862 0.03333 0.56453 0.0
N49 N 0.74876 0.05082 0.61126 0.0
N50 N 0.84032 0.02947 0.5715 0.0
H51 H 0.72542 0.91871 0.48249 0.0
H52 H 0.82073 0.01384 0.47058 0.0
H53 H 0.71845 0.01032 0.46693 0.0
C54 C 0.75924 0.98983 0.487 0.0
C55 C 0.29885 0.00493 0.57511 0.0
H56 H 0.36331 0.02311 0.59334 0.0
H57 H 0.25056 0.94411 0.58807 0.0
H58 H 0.2826 0.05485 0.5859 0.0
O59 O 0.50387 0.1085 0.56441 0.0
O60 O 0.62999 0.12921 0.59413 0.0
C61 C 0.46952 0.9009 0.60197 0.0
O62 O 0.65756 0.10574 0.49018 0.0
O63 O 0.52747 0.07652 0.46128 0.0
Zn64 Zn 0.56625 0.58154 0.88309 0.0
O65 O 0.6238 0.53147 0.83324 0.0
C66 C 0.46435 0.60263 0.80006 0.0
Zn67 Zn 0.43951 0.46508 0.86045 0.0
C68 C 0.57395 0.46258 0.80548 0.0
O69 O 0.49324 0.42324 0.80884 0.0
C70 C 0.42723 0.57991 0.93757 0.0
O71 O 0.47677 0.40311 0.91466 0.0
O72 O 0.59611 0.52579 0.93825 0.0
N73 N 0.32414 0.35633 0.84135 0.0
C74 C 0.26092 0.30749 0.86814 0.0
C75 C 0.22209 0.24734 0.79507 0.0
N76 N 0.29992 0.31913 0.79595 0.0
N77 N 0.19611 0.23933 0.83985 0.0
C78 C 0.74671 0.73756 0.87604 0.0
C79 C 0.78181 0.80065 0.94841 0.0
N80 N 0.68171 0.69017 0.90221 0.0
N81 N 0.70366 0.72917 0.94719 0.0
N82 N 0.81039 0.80672 0.90433 0.0
H83 H 0.6793 0.67826 0.80404 0.0
H84 H 0.78207 0.68491 0.81663 0.0
H85 H 0.77814 0.77957 0.80521 0.0
C86 C 0.74588 0.71907 0.82239 0.0
C87 C 0.26464 0.32353 0.92227 0.0
H88 H 0.23134 0.26209 0.93848 0.0
H89 H 0.23099 0.35957 0.93028 0.0
H90 H 0.33221 0.36162 0.93973 0.0
O91 O 0.38436 0.50828 0.91149 0.0
O92 O 0.50751 0.62751 0.93342 0.0
C93 C 0.54729 0.44716 0.94279 0.0
O94 O 0.53614 0.63899 0.827 0.0
O95 O 0.40665 0.52678 0.80604 0.0
H96 H 0.95422 0.86413 0.2674 0.0
H97 H 0.14574 0.90427 0.17033 0.0
H98 H 0.13931 0.02685 0.14245 0.0
H99 H 0.07873 0.1225 0.14615 0.0
H100 H 0.88695 0.08229 0.24306 0.0
H101 H 0.89349 0.95981 0.27104 0.0
C102 C 0.99463 0.90036 0.24036 0.0
C103 C 0.0494 0.87528 0.22029 0.0
C104 C 0.99035 0.97031 0.22467 0.0
C105 C 0.10186 0.92195 0.18533 0.0
C106 C 0.09841 0.99195 0.16962 0.0
C107 C 0.03826 0.08629 0.17317 0.0
C108 C 0.98346 0.11138 0.19317 0.0
C109 C 0.04252 0.01635 0.18887 0.0
C110 C 0.93093 0.06469 0.22812 0.0
C111 C 0.93442 0.99471 0.24388 0.0
H112 H 0.11379 0.91378 0.55093 0.0
H113 H 0.19583 0.09928 0.44737 0.0
H114 H 0.08106 0.12994 0.46441 0.0
H115 H 0.9596 0.10612 0.51056 0.0
H116 H 0.87608 0.91955 0.61331 0.0
H117 H 0.99165 0.88932 0.59678 0.0
C118 C 0.10712 0.96173 0.53278 0.0
C119 C 0.16365 0.00541 0.49865 0.0
C120 C 0.04137 0.97906 0.54296 0.0
C121 C 0.15274 0.06519 0.47386 0.0
C122 C 0.08762 0.08295 0.48375 0.0
C123 C 0.96619 0.0579 0.52853 0.0
C124 C 0.90896 0.01349 0.56214 0.0
C125 C 0.03176 0.04044 0.51833 0.0
C126 C 0.91957 0.95367 0.58699 0.0
C127 C 0.98516 0.93631 0.57741 0.0
H128 H 0.86189 0.97198 0.92416 0.0
H129 H 0.92961 0.7985 0.85354 0.0
H130 H 0.05518 0.91903 0.82491 0.0
H131 H 0.14501 0.07422 0.82012 0.0
H132 H 0.07835 0.2478 0.89159 0.0
H133 H 0.95249 0.12719 0.92009 0.0
C134 C 0.90487 0.96123 0.90282 0.0
C135 C 0.88678 0.87733 0.89024 0.0
C136 C 0.97633 0.03057 0.88666 0.0
C137 C 0.94206 0.86296 0.86262 0.0
C138 C 0.01363 0.93162 0.84647 0.0
C139 C 0.10217 0.08489 0.84163 0.0
C140 C 0.12018 0.16873 0.85422 0.0
C141 C 0.03093 0.01558 0.85798 0.0
C142 C 0.06544 0.18322 0.88224 0.0
C143 C 0.99385 0.11457 0.89837 0.0
H144 H 0.25611 0.52346 0.93441 0.0
H145 H 0.49986 0.68797 1.02266 0.0
H146 H 0.42274 0.7057 0.08826 0.0
H147 H 0.28397 0.65692 0.12434 0.0
H148 H 0.04233 0.4881 1.03546 0.0
H149 H 0.12022 0.4907 0.96598 0.0
C150 C 0.29255 0.56431 0.96772 0.0
C151 C 0.38344 0.60336 0.97396 0.0
C152 C 0.24785 0.57341 1.00517 0.0
C153 C 0.4298 0.65705 1.01703 0.0
C154 C 0.38564 0.66685 0.05462 0.0
C155 C 0.24878 0.62358 0.08917 0.0
C156 C 0.15771 0.57329 0.08453 0.0
C157 C 0.29444 0.6232 0.04966 0.0
C158 C 0.11241 0.52813 0.03938 0.0
C159 C 0.15694 0.52892 0.99987 0.0
H160 H 0.75596 0.27177 0.47116 0.0
H161 H 0.55212 0.08765 0.36287 0.0
H162 H 0.62961 0.17235 0.29847 0.0
H163 H 0.76164 0.29231 0.27295 0.0
H164 H 0.96028 0.48241 0.38123 0.0
H165 H 0.8783 0.40263 0.44607 0.0
C166 C 0.72813 0.25105 0.43345 0.0
C167 C 0.64904 0.17336 0.42149 0.0
C168 C 0.77223 0.30097 0.39688 0.0
C169 C 0.61281 0.14735 0.37276 0.0
C170 C 0.65732 0.1955 0.33602 0.0
C171 C 0.78602 0.31682 0.31084 0.0
C172 C 0.86684 0.39258 0.32261 0.0
C173 C 0.73788 0.27142 0.34762 0.0
C174 C 0.89794 0.42444 0.37156 0.0
C175 C 0.85138 0.37853 0.40849 0.0
H176 H 0.36247 0.67286 0.77735 0.0
H177 H 0.55579 0.6218 0.72555 0.0
H178 H 0.56721 0.70297 0.65687 0.0
H179 H 0.53321 0.79817 0.61601 0.0
H180 H 0.34457 0.85761 0.66596 0.0
H181 H 0.31873 0.76237 0.73047 0.0
C182 C 0.40559 0.6785 0.75034 0.0
C183 C 0.4583 0.64162 0.75611 0.0
C184 C 0.41306 0.72712 0.71107 0.0
C185 C 0.51479 0.64976 0.72152 0.0
C186 C 0.52148 0.69626 0.68241 0.0
C187 C 0.48589 0.79006 0.64082 0.0
C188 C 0.4419 0.83585 0.63686 0.0
C189 C 0.47268 0.73681 0.67756 0.0
C190 C 0.37943 0.82316 0.66848 0.0
C191 C 0.36517 0.76915 0.70544 0.0
H192 H 0.58009 0.49599 0.03819 0.0
H193 H 0.58759 0.32103 0.92899 0.0
H194 H 0.68046 0.29543 0.98662 0.0
H195 H 0.77913 0.34299 0.06427 0.0
H196 H 0.77048 0.52179 0.17115 0.0
H197 H 0.658 0.52468 0.1189 0.0
C198 C 0.59953 0.44981 1.02772 0.0
C199 C 0.57689 0.4099 0.97987 0.0
C200 C 0.65424 0.4374 0.06051 0.0
C201 C 0.6032 0.3512 0.9661 0.0
C202 C 0.65728 0.33761 0.99886 0.0
C203 C 0.75091 0.38072 0.07646 0.0
C204 C 0.78446 0.43335 0.12118 0.0
C205 C 0.68626 0.38323 0.04562 0.0
C206 C 0.74712 0.4819 0.13655 0.0
C207 C 0.68258 0.48365 0.10671 0.0
H208 H 0.20833 0.52467 0.35627 0.0
H209 H 0.32619 0.66 0.23536 0.0
H210 H 0.4531 0.76668 0.28982 0.0
H211 H 0.51103 0.83941 0.37328 0.0
H212 H 0.38951 0.70743 0.49437 0.0
H213 H 0.28545 0.58108 0.43914 0.0
C214 C 0.26402 0.57485 0.34174 0.0
C215 C 0.25854 0.58422 0.29194 0.0
C216 C 0.33562 0.63789 0.37369 0.0
C217 C 0.32983 0.65097 0.27354 0.0
C218 C 0.4019 0.71273 0.30481 0.0
C219 C 0.46475 0.78117 0.38751 0.0
C220 C 0.45826 0.78212 0.4377 0.0
C221 C 0.40311 0.70966 0.35524 0.0
C222 C 0.39639 0.70737 0.45582 0.0
C223 C 0.33606 0.63552 0.42416 0.0
H224 H 0.51414 0.42063 0.71157 0.0
H225 H 0.70177 0.42119 0.81706 0.0
H226 H 0.7266 0.33016 0.75821 0.0
H227 H 0.67876 0.23453 0.67959 0.0
H228 H 0.4889 0.23781 0.57646 0.0
H229 H 0.48195 0.34343 0.63103 0.0
C230 C 0.56208 0.40248 0.72117 0.0
C231 C 0.606 0.42705 0.76826 0.0
C232 C 0.5747 0.3497 0.68765 0.0
C233 C 0.66792 0.40346 0.78064 0.0
C234 C 0.6813 0.35072 0.74716 0.0
C235 C 0.63735 0.25978 0.66883 0.0
C236 C 0.58327 0.22682 0.62428 0.0
C237 C 0.63278 0.32097 0.70096 0.0
C238 C 0.53012 0.26057 0.6108 0.0
C239 C 0.52601 0.32128 0.64198 0.0
loop_
_geom_bond_atom_site_label_1
_geom_bond_atom_site_label_2
_geom_bond_distance
_geom_bond_site_symmetry_2
_ccdc_geom_bond_type
Zn0 O1 2.055 . S
Zn0 O8 2.046 . S
Zn0 N16 2.036 . S
Zn0 O28 2.053 1_455 S
Zn0 O30 2.066 1_455 S
O1 Zn0 2.055 . S
O1 C4 1.259 . S
C2 O30 1.256 . S
C2 O31 1.244 . S
Zn3 O5 2.046 . S
Zn3 O7 2.055 . S
Zn3 N9 2.036 . S
Zn3 O27 2.066 1_455 S
Zn3 O31 2.053 1_455 S
C4 O1 1.259 . S
C4 O5 1.254 . S
O5 Zn3 2.046 . S
O5 C4 1.254 . S
C6 O27 1.256 . S
C6 O28 1.244 . S
O7 Zn3 2.055 . S
O7 C29 1.259 . S
O8 Zn0 2.046 . S
O8 C29 1.254 . S
N9 Zn3 2.036 . S
N9 C10 1.298 . S
N9 N12 1.398 1_455 S
C10 N9 1.298 . S
C10 N13 1.367 1_455 S
C10 C23 1.481 . S
C11 N12 1.299 . S
C11 N13 1.379 . S
N12 N9 1.398 1_655 S
N12 C11 1.299 . S
N13 C10 1.367 1_655 S
N13 C11 1.379 . S
C14 N16 1.298 . S
C14 N18 1.367 1_455 S
C14 C22 1.481 . S
C15 N17 1.299 . S
C15 N18 1.379 . S
N16 Zn0 2.036 . S
N16 C14 1.298 . S
N16 N17 1.398 1_455 S
N17 C15 1.299 . S
N17 N16 1.398 1_655 S
N18 C14 1.367 1_655 S
N18 C15 1.379 . S
H19 C22 0.980 . S
H20 C22 0.981 . S
H21 C22 0.981 1_655 S
C22 C14 1.481 . S
C22 H19 0.980 . S
C22 H20 0.981 . S
C22 H21 0.981 1_455 S
C23 C10 1.481 . S
C23 H24 0.980 . S
C23 H25 0.981 . S
C23 H26 0.981 . S
H24 C23 0.980 . S
H25 C23 0.981 . S
H26 C23 0.981 . S
O27 Zn3 2.066 1_655 S
O27 C6 1.256 . S
O28 Zn0 2.053 1_655 S
O28 C6 1.244 . S
C29 O7 1.259 . S
C29 O8 1.254 . S
O30 Zn0 2.066 1_655 S
O30 C2 1.256 . S
O31 C2 1.244 . S
O31 Zn3 2.053 1_655 S
Zn32 O33 2.058 . S
Zn32 O40 2.049 . S
Zn32 N48 2.039 1_565 S
Zn32 O60 2.048 1_565 S
Zn32 O62 2.062 1_565 S
O33 Zn32 2.058 . S
O33 C36 1.259 . S
C34 O62 1.256 . S
C34 O63 1.244 . S
Zn35 O37 2.046 . S
Zn35 O39 2.055 . S
Zn35 N41 2.036 1_565 S
Zn35 O59 2.066 1_565 S
Zn35 O63 2.053 1_565 S
C36 O33 1.259 . S
C36 O37 1.254 . S
O37 Zn35 2.046 . S
O37 C36 1.254 . S
C38 O59 1.256 . S
C38 O60 1.244 . S
O39 Zn35 2.055 . S
O39 C61 1.259 . S
O40 Zn32 2.049 . S
O40 C61 1.254 . S
N41 Zn35 2.036 1_545 S
N41 C42 1.298 . S
N41 N44 1.398 . S
C42 N41 1.298 . S
C42 N45 1.367 . S
C42 C55 1.481 1_545 S
C43 N44 1.299 . S
C43 N45 1.379 . S
N44 N41 1.398 . S
N44 C43 1.299 . S
N45 C42 1.367 . S
N45 C43 1.379 . S
C46 N48 1.298 . S
C46 N50 1.367 . S
C46 C54 1.481 1_545 S
C47 N49 1.299 . S
C47 N50 1.379 . S
N48 Zn32 2.039 1_545 S
N48 C46 1.298 . S
N48 N49 1.398 . S
N49 C47 1.299 . S
N49 N48 1.398 . S
N50 C46 1.367 . S
N50 C47 1.379 . S
H51 C54 0.980 . S
H52 C54 0.981 . S
H53 C54 0.981 1_545 S
C54 C46 1.481 1_565 S
C54 H51 0.980 . S
C54 H52 0.981 . S
C54 H53 0.981 1_565 S
C55 C42 1.481 1_565 S
C55 H56 0.980 . S
C55 H57 0.981 . S
C55 H58 0.981 1_565 S
H56 C55 0.980 . S
H57 C55 0.981 . S
H58 C55 0.981 1_545 S
O59 Zn35 2.066 1_545 S
O59 C38 1.256 . S
O60 Zn32 2.048 1_545 S
O60 C38 1.244 . S
C61 O39 1.259 . S
C61 O40 1.254 . S
O62 Zn32 2.062 1_545 S
O62 C34 1.256 . S
O63 C34 1.244 . S
O63 Zn35 2.053 1_545 S
Zn64 O65 2.055 . S
Zn64 O72 2.046 . S
Zn64 N80 2.036 . S
Zn64 O92 2.053 . S
Zn64 O94 2.066 . S
O65 Zn64 2.055 . S
O65 C68 1.259 . S
C66 O94 1.256 . S
C66 O95 1.244 . S
Zn67 O69 2.046 . S
Zn67 O71 2.055 . S
Zn67 N73 2.036 . S
Zn67 O91 2.066 . S
Zn67 O95 2.053 . S
C68 O65 1.259 . S
C68 O69 1.254 . S
O69 Zn67 2.046 . S
O69 C68 1.254 . S
C70 O91 1.256 . S
C70 O92 1.244 . S
O71 Zn67 2.055 . S
O71 C93 1.259 . S
O72 Zn64 2.046 . S
O72 C93 1.254 . S
N73 Zn67 2.036 . S
N73 C74 1.298 . S
N73 N76 1.398 . S
C74 N73 1.298 . S
C74 N77 1.367 . S
C74 C87 1.481 . S
C75 N76 1.299 . S
C75 N77 1.379 . S
N76 N73 1.398 . S
N76 C75 1.299 . S
N77 C74 1.367 . S
N77 C75 1.379 . S
C78 N80 1.298 . S
C78 N82 1.367 . S
C78 C86 1.481 . S
C79 N81 1.299 . S
C79 N82 1.379 . S
N80 Zn64 2.036 . S
N80 C78 1.298 . S
N80 N81 1.398 . S
N81 C79 1.299 . S
N81 N80 1.398 . S
N82 C78 1.367 . S
N82 C79 1.379 . S
H83 C86 0.980 . S
H84 C86 0.981 . S
H85 C86 0.981 . S
C86 C78 1.481 . S
C86 H83 0.980 . S
C86 H84 0.981 . S
C86 H85 0.981 . S
C87 C74 1.481 . S
C87 H88 0.980 . S
C87 H89 0.981 . S
C87 H90 0.981 . S
H88 C87 0.980 . S
H89 C87 0.981 . S
H90 C87 0.981 . S
O91 Zn67 2.066 . S
O91 C70 1.256 . S
O92 Zn64 2.053 . S
O92 C70 1.244 . S
C93 O71 1.259 . S
C93 O72 1.254 . S
O94 Zn64 2.066 . S
O94 C66 1.256 . S
O95 C66 1.244 . S
O95 Zn67 2.053 . S
H96 C102 0.930 . S
H97 C105 0.930 . S
H98 C106 0.930 . S
H99 C107 0.930 . S
H100 C110 0.930 . S
H101 C111 0.930 . S
C102 H96 0.930 . S
C102 C103 1.355 . S
C102 C104 1.415 . S
C103 C102 1.355 . S
C103 C105 1.419 1_655 S
C104 C102 1.415 . S
C104 C109 1.425 1_655 S
C104 C111 1.409 . S
C105 H97 0.930 . S
C105 C103 1.419 1_455 S
C105 C106 1.362 . S
C106 H98 0.930 . S
C106 C105 1.362 . S
C106 C109 1.409 . S
C107 H99 0.930 . S
C107 C108 1.355 1_455 S
C107 C109 1.415 1_545 S
C108 C107 1.355 1_655 S
C108 C110 1.419 . S
C109 C104 1.425 1_455 S
C109 C106 1.409 . S
C109 C107 1.415 1_565 S
C110 H100 0.930 . S
C110 C108 1.419 . S
C110 C111 1.362 1_545 S
C111 H101 0.930 . S
C111 C104 1.409 . S
C111 C110 1.362 1_565 S
H112 C118 0.930 1_565 S
H113 C121 0.930 . S
H114 C122 0.930 . S
H115 C123 0.930 . S
H116 C126 0.930 . S
H117 C127 0.930 . S
C118 H112 0.930 1_545 S
C118 C119 1.355 . S
C118 C120 1.415 . S
C119 C118 1.355 . S
C119 C121 1.419 . S
C120 C118 1.415 . S
C120 C125 1.425 . S
C120 C127 1.409 1_445 S
C121 H113 0.930 . S
C121 C119 1.419 . S
C121 C122 1.362 . S
C122 H114 0.930 . S
C122 C121 1.362 . S
C122 C125 1.409 . S
C123 H115 0.930 . S
C123 C124 1.355 . S
C123 C125 1.415 1_655 S
C124 C123 1.355 . S
C124 C126 1.419 1_545 S
C125 C120 1.425 . S
C125 C122 1.409 . S
C125 C123 1.415 1_455 S
C126 H116 0.930 . S
C126 C124 1.419 1_565 S
C126 C127 1.362 . S
C127 H117 0.930 . S
C127 C120 1.409 1_665 S
C127 C126 1.362 . S
H128 C134 0.930 . S
H129 C137 0.930 . S
H130 C138 0.930 . S
H131 C139 0.930 . S
H132 C142 0.930 . S
H133 C143 0.930 1_655 S
C134 H128 0.930 . S
C134 C135 1.355 . S
C134 C136 1.415 1_565 S
C135 C134 1.355 . S
C135 C137 1.419 . S
C136 C134 1.415 1_545 S
C136 C141 1.427 . S
C136 C143 1.409 1_655 S
C137 H129 0.930 . S
C137 C135 1.419 . S
C137 C138 1.362 . S
C138 H130 0.930 . S
C138 C137 1.362 . S
C138 C141 1.410 1_565 S
C139 H131 0.930 . S
C139 C140 1.355 . S
C139 C141 1.413 1_455 S
C140 C139 1.355 . S
C140 C142 1.419 . S
C141 C136 1.427 . S
C141 C138 1.410 1_545 S
C141 C139 1.413 1_655 S
C142 H132 0.930 . S
C142 C140 1.419 . S
C142 C143 1.362 . S
C143 H133 0.930 1_455 S
C143 C136 1.409 1_455 S
C143 C142 1.362 . S
H144 C150 0.930 . S
H145 C153 0.930 . S
H146 C154 0.930 . S
H147 C155 0.930 . S
H148 C158 0.930 . S
H149 C159 0.930 . S
C150 H144 0.930 . S
C150 C151 1.355 . S
C150 C152 1.415 . S
C151 C150 1.355 . S
C151 C153 1.419 . S
C152 C150 1.415 . S
C152 C157 1.425 1_556 S
C152 C159 1.409 1_556 S
C153 H145 0.930 . S
C153 C151 1.419 . S
C153 C154 1.362 . S
C154 H146 0.930 . S
C154 C153 1.362 . S
C154 C157 1.409 1_556 S
C155 H147 0.930 . S
C155 C156 1.355 . S
C155 C157 1.415 . S
C156 C155 1.355 . S
C156 C158 1.419 . S
C157 C152 1.425 1_554 S
C157 C154 1.409 1_554 S
C157 C155 1.415 . S
C158 H148 0.930 . S
C158 C156 1.419 . S
C158 C159 1.362 . S
C159 H149 0.930 . S
C159 C152 1.409 1_554 S
C159 C158 1.362 . S
H160 C166 0.930 . S
H161 C169 0.930 . S
H162 C170 0.930 . S
H163 C171 0.930 . S
H164 C174 0.930 . S
H165 C175 0.930 . S
C166 H160 0.930 . S
C166 C167 1.355 . S
C166 C168 1.415 . S
C167 C166 1.355 . S
C167 C169 1.419 . S
C168 C166 1.415 . S
C168 C173 1.425 . S
C168 C175 1.409 . S
C169 H161 0.930 . S
C169 C167 1.419 . S
C169 C170 1.362 . S
C170 H162 0.930 . S
C170 C169 1.362 . S
C170 C173 1.409 . S
C171 H163 0.930 . S
C171 C172 1.355 . S
C171 C173 1.415 . S
C172 C171 1.355 . S
C172 C174 1.419 . S
C173 C168 1.425 . S
C173 C170 1.409 . S
C173 C171 1.415 . S
C174 H164 0.930 . S
C174 C172 1.419 . S
C174 C175 1.362 . S
C175 H165 0.930 . S
C175 C168 1.409 . S
C175 C174 1.362 . S
H176 C182 0.930 . S
H177 C185 0.930 . S
H178 C186 0.930 . S
H179 C187 0.930 . S
H180 C190 0.930 . S
H181 C191 0.930 . S
C182 H176 0.930 . S
C182 C183 1.355 . S
C182 C184 1.415 . S
C183 C182 1.355 . S
C183 C185 1.419 . S
C184 C182 1.415 . S
C184 C189 1.425 . S
C184 C191 1.409 . S
C185 H177 0.930 . S
C185 C183 1.419 . S
C185 C186 1.362 . S
C186 H178 0.930 . S
C186 C185 1.362 . S
C186 C189 1.409 . S
C187 H179 0.930 . S
C187 C188 1.355 . S
C187 C189 1.415 . S
C188 C187 1.355 . S
C188 C190 1.419 . S
C189 C184 1.425 . S
C189 C186 1.409 . S
C189 C187 1.415 . S
C190 H180 0.930 . S
C190 C188 1.419 . S
C190 C191 1.362 . S
C191 H181 0.930 . S
C191 C184 1.409 . S
C191 C190 1.362 . S
H192 C198 0.920 1_554 S
H193 C201 0.930 . S
H194 C202 0.930 . S
H195 C203 0.920 1_556 S
H196 C206 0.930 . S
H197 C207 0.930 . S
C198 H192 0.920 1_556 S
C198 C199 1.355 . S
C198 C200 1.415 1_556 S
C199 C198 1.355 . S
C199 C201 1.419 . S
C200 C198 1.415 1_554 S
C200 C205 1.425 1_554 S
C200 C207 1.409 . S
C201 H193 0.930 . S
C201 C199 1.419 . S
C201 C202 1.362 . S
C202 H194 0.930 . S
C202 C201 1.362 . S
C202 C205 1.409 . S
C203 H195 0.920 1_554 S
C203 C204 1.355 . S
C203 C205 1.415 1_554 S
C204 C203 1.355 . S
C204 C206 1.419 . S
C205 C200 1.425 1_556 S
C205 C202 1.409 . S
C205 C203 1.415 1_556 S
C206 H196 0.930 . S
C206 C204 1.419 . S
C206 C207 1.362 . S
C207 H197 0.930 . S
C207 C200 1.409 . S
C207 C206 1.362 . S
H208 C214 0.930 . S
H209 C217 0.930 . S
H210 C218 0.930 . S
H211 C219 0.930 . S
H212 C222 0.930 . S
H213 C223 0.930 . S
C214 H208 0.930 . S
C214 C215 1.355 . S
C214 C216 1.415 . S
C215 C214 1.355 . S
C215 C217 1.419 . S
C216 C214 1.415 . S
C216 C221 1.425 . S
C216 C223 1.409 . S
C217 H209 0.930 . S
C217 C215 1.419 . S
C217 C218 1.362 . S
C218 H210 0.930 . S
C218 C217 1.362 . S
C218 C221 1.409 . S
C219 H211 0.930 . S
C219 C220 1.355 . S
C219 C221 1.415 . S
C220 C219 1.355 . S
C220 C222 1.419 . S
C221 C216 1.425 . S
C221 C218 1.409 . S
C221 C219 1.415 . S
C222 H212 0.930 . S
C222 C220 1.419 . S
C222 C223 1.362 . S
C223 H213 0.930 . S
C223 C216 1.409 . S
C223 C222 1.362 . S
H224 C230 0.930 . S
H225 C233 0.930 . S
H226 C234 0.930 . S
H227 C235 0.930 . S
H228 C238 0.930 . S
H229 C239 0.930 . S
C230 H224 0.930 . S
C230 C231 1.355 . S
C230 C232 1.415 . S
C231 C230 1.355 . S
C231 C233 1.419 . S
C232 C230 1.415 . S
C232 C237 1.425 . S
C232 C239 1.409 . S
C233 H225 0.930 . S
C233 C231 1.419 . S
C233 C234 1.362 . S
C234 H226 0.930 . S
C234 C233 1.362 . S
C234 C237 1.409 . S
C235 H227 0.930 . S
C235 C236 1.355 . S
C235 C237 1.415 . S
C236 C235 1.355 . S
C236 C238 1.419 . S
C237 C232 1.425 . S
C237 C234 1.409 . S
C237 C235 1.415 . S
C238 H228 0.930 . S
C238 C236 1.419 . S
C238 C239 1.362 . S
C239 H229 0.930 . S
C239 C232 1.409 . S
C239 C238 1.362 . S
C103 N18 0.931 . S
C108 N13 0.937 . S
C119 N45 0.818 . S
C124 N50 0.810 . S
C135 N82 0.917 . S
C140 N77 0.918 . S
C151 C70 1.746 . S
C156 C4 1.712 . S
C167 C34 2.049 . S
C172 C6 2.055 . S
C183 C66 1.725 . S
C188 C61 1.754 . S
C199 C93 1.731 . S
C204 C2 1.756 . S
C215 C29 1.430 . S
C220 C36 1.450 . S
C231 C68 1.752 . S
C236 C38 1.736 . S
