# Generated by pormake.
# Topology sod, (4)-cn, num edge types: 1
# Building blocks:
#     Node 0, Type 0, BuildingBlock: CEKHIL_clean_sbu_0, # of connection points: 4
#     Node 1, Type 0, BuildingBlock: CEKHIL_clean_sbu_0, # of connection points: 4
#     Node 2, Type 0, BuildingBlock: CEKHIL_clean_sbu_0, # of connection points: 4
#     Node 3, Type 0, BuildingBlock: CEKHIL_clean_sbu_0, # of connection points: 4
#     Node 4, Type 0, BuildingBlock: CEKHIL_clean_sbu_0, # of connection points: 4
#     Node 5, Type 0, BuildingBlock: CEKHIL_clean_sbu_0, # of connection points: 4
#     Node 6, Type 0, BuildingBlock: CEKHIL_clean_sbu_0, # of connection points: 4
#     Node 7, Type 0, BuildingBlock: CEKHIL_clean_sbu_0, # of connection points: 4
#     Node 8, Type 0, BuildingBlock: CEKHIL_clean_sbu_0, # of connection points: 4
#     Node 9, Type 0, BuildingBlock: CEKHIL_clean_sbu_0, # of connection points: 4
#     Node 10, Type 0, BuildingBlock: CEKHIL_clean_sbu_0, # of connection points: 4
#     Node 11, Type 0, BuildingBlock: CEKHIL_clean_sbu_0, # of connection points: 4
#     Edge 12, Type (0, 0), None
#     Edge 13, Type (0, 0), None
#     Edge 14, Type (0, 0), None
#     Edge 15, Type (0, 0), None
#     Edge 16, Type (0, 0), None
#     Edge 17, Type (0, 0), None
#     Edge 18, Type (0, 0), None
#     Edge 19, Type (0, 0), None
#     Edge 20, Type (0, 0), None
#     Edge 21, Type (0, 0), None
#     Edge 22, Type (0, 0), None
#     Edge 23, Type (0, 0), None
#     Edge 24, Type (0, 0), None
#     Edge 25, Type (0, 0), None
#     Edge 26, Type (0, 0), None
#     Edge 27, Type (0, 0), None
#     Edge 28, Type (0, 0), None
#     Edge 29, Type (0, 0), None
#     Edge 30, Type (0, 0), None
#     Edge 31, Type (0, 0), None
#     Edge 32, Type (0, 0), None
#     Edge 33, Type (0, 0), None
#     Edge 34, Type (0, 0), None
#     Edge 35, Type (0, 0), None
# Relax obj value: 0.141
# Max RMSD: 0.179
# Mean RMSD: 0.169
data_MOF--net-sod--node1-CEKHIL_clean_sbu_0--edge1-none
_symmetry_space_group_name_H-M    P1
_symmetry_Int_Tables_number       1
_symmetry_cell_setting            triclinic
loop_
_symmetry_equiv_pos_as_xyz
'x, y, z'
_cell_length_a     17.915765
_cell_length_b     18.562592
_cell_length_c     18.549565
_cell_angle_alpha  91.079603
_cell_angle_beta   90.795122
_cell_angle_gamma 89.921696
loop_
_atom_site_label
_atom_site_type_symbol
_atom_site_fract_x
_atom_site_fract_y
_atom_site_fract_z
_atom_type_partial_charge
Co0 Co 0.04178 0.30438 0.52048 0.0
O1 O 0.99317 0.38345 0.47114 0.0
O2 O 0.11262 0.35551 0.46257 0.0
C3 C 0.94867 0.22103 0.50373 0.0
O4 O 0.11755 0.23216 0.55149 0.0
Co5 Co 1.00233 0.19896 0.63959 0.0
O6 O 0.06422 0.1315 0.57846 0.0
C7 C 0.03216 0.35646 0.67072 0.0
C8 C 0.0585 0.39688 0.44367 0.0
C9 C 0.11345 0.16433 0.543 0.0
O10 O 0.06113 0.36693 0.60838 0.0
O11 O 1.00525 0.29589 0.69006 0.0
O12 O 0.99375 0.23493 0.4509 0.0
O13 O 0.96101 0.25593 0.56224 0.0
Co14 Co 0.80154 0.03796 0.51435 0.0
O15 O 0.86729 0.95576 0.4771 0.0
O16 O 0.85031 0.97043 0.58638 0.0
C17 C 0.69865 0.04522 0.43552 0.0
O18 O 0.74515 0.02892 0.60814 0.0
Co19 Co 0.72527 0.16661 0.52615 0.0
O20 O 0.67783 0.12868 0.61557 0.0
C21 C 0.88369 0.17226 0.50107 0.0
C22 C 0.88186 0.93249 0.53977 0.0
C23 C 0.69607 0.06713 0.63981 0.0
O24 O 0.8842 0.11131 0.5342 0.0
O25 O 0.82182 0.20276 0.48614 0.0
O26 O 0.7141 0.98628 0.46998 0.0
O27 O 0.74416 0.09647 0.44815 0.0
Co28 Co 1.01563 0.77594 0.55922 0.0
O29 O 0.96228 0.69674 0.60491 0.0
O30 O 0.07892 0.72728 0.62776 0.0
C31 C 0.92594 0.86592 0.55546 0.0
O32 O 0.09705 0.84514 0.54305 0.0
Co33 Co 0.99358 0.8676 0.42261 0.0
O34 O 0.08102 0.92618 0.45793 0.0
C35 C 1.0139 0.71007 0.41563 0.0
C36 C 0.02521 0.68404 0.63952 0.0
C37 C 0.11746 0.90108 0.51125 0.0
O38 O 0.04746 0.71032 0.47767 0.0
O39 O 0.97676 0.76418 0.39289 0.0
O40 O 0.96041 0.85126 0.61622 0.0
O41 O 0.94298 0.82458 0.50291 0.0
Co42 Co 0.27866 0.05053 0.53042 0.0
O43 O 0.19579 0.08597 0.47255 0.0
O44 O 0.23231 0.12746 0.58091 0.0
C45 C 0.36895 0.03273 0.44919 0.0
O46 O 0.35444 0.03683 0.60906 0.0
Co47 Co 0.35597 0.9007 0.52404 0.0
O48 O 0.43746 0.95399 0.57794 0.0
C49 C 0.19335 0.92419 0.52768 0.0
C50 C 0.18329 0.1268 0.52956 0.0
C51 C 0.42162 0.0151 0.60613 0.0
O52 O 0.20611 0.98018 0.5674 0.0
O53 O 0.24617 0.88424 0.50391 0.0
O54 O 0.35543 0.09817 0.47335 0.0
O55 O 0.32352 0.98394 0.46842 0.0
Co56 Co 0.54448 0.05426 0.29232 0.0
O57 O 0.5964 0.09434 0.20925 0.0
O58 O 0.48226 0.12199 0.24149 0.0
C59 C 0.63892 0.05283 0.37909 0.0
O60 O 0.46459 0.0469 0.36597 0.0
Co61 Co 0.56296 0.91998 0.38636 0.0
O62 O 0.47094 0.95192 0.43646 0.0
C63 C 0.54174 0.90889 0.22938 0.0
C64 C 0.53452 0.12998 0.19627 0.0
C65 C 0.43987 0.01024 0.41717 0.0
O66 O 0.50879 0.9709 0.22932 0.0
O67 O 0.57411 0.88369 0.28525 0.0
O68 O 0.60593 0.11324 0.36175 0.0
O69 O 0.6174 0.99805 0.34216 0.0
Co70 Co 0.06931 0.52321 0.29007 0.0
O71 O 0.12403 0.49072 0.37606 0.0
O72 O 1.01776 0.44571 0.33361 0.0
C73 C 0.16237 0.54277 0.20838 0.0
O74 O 0.99393 0.5234 0.21033 0.0
Co75 Co 0.07139 0.66406 0.20282 0.0
O76 O 1.00393 0.61273 0.13252 0.0
C77 C 0.03798 0.66215 0.35785 0.0
C78 C 0.0676 0.44665 0.38375 0.0
C79 C 0.9768 0.55274 0.15131 0.0
O80 O 1.01597 0.59619 0.35241 0.0
O81 O 0.06966 0.69473 0.3065 0.0
O82 O 0.14091 0.4769 0.22153 0.0
O83 O 0.1328 0.59102 0.24844 0.0
Co84 Co 0.56909 0.02345 0.79003 0.0
O85 O 0.62393 0.99093 0.87597 0.0
O86 O 0.51757 0.94599 0.83367 0.0
C87 C 0.66204 0.04292 0.70821 0.0
O88 O 0.49351 0.02359 0.71044 0.0
Co89 Co 0.5711 0.16411 0.70248 0.0
O90 O 0.50408 0.11236 0.63208 0.0
C91 C 0.53775 0.16252 0.8576 0.0
C92 C 0.56748 0.9469 0.88374 0.0
C93 C 0.47673 0.05255 0.65114 0.0
O94 O 0.51591 0.09649 0.85242 0.0
O95 O 0.56926 0.195 0.80609 0.0
O96 O 0.64059 0.97706 0.72142 0.0
O97 O 0.63253 0.09121 0.74826 0.0
Co98 Co 0.04445 0.55425 0.79237 0.0
O99 O 0.09643 0.59437 0.70935 0.0
O100 O 0.98224 0.62197 0.74153 0.0
C101 C 0.13883 0.55285 0.87918 0.0
O102 O 0.96451 0.54681 0.86595 0.0
Co103 Co 0.0629 0.41998 0.88642 0.0
O104 O 0.9708 0.45183 0.93645 0.0
C105 C 0.04183 0.40891 0.72942 0.0
C106 C 0.03455 0.63001 0.69637 0.0
C107 C 0.93972 0.51013 0.91711 0.0
O108 O 1.00882 0.4709 0.72933 0.0
O109 O 0.07415 0.38371 0.78531 0.0
O110 O 0.10582 0.61325 0.86183 0.0
O111 O 0.11736 0.49806 0.84224 0.0
Co112 Co 0.30154 0.53811 0.01432 0.0
O113 O 0.36721 0.45579 0.97721 0.0
O114 O 0.35034 0.47064 0.08646 0.0
C115 C 0.19861 0.5453 0.93555 0.0
O116 O 0.24537 0.52885 0.1082 0.0
Co117 Co 0.22532 0.66657 0.0263 0.0
O118 O 0.178 0.62857 0.11576 0.0
C119 C 0.38367 0.67241 1.00099 0.0
C120 C 0.38183 0.43259 0.03989 0.0
C121 C 0.1963 0.56702 0.13995 0.0
O122 O 0.38423 0.61144 0.0341 0.0
O123 O 0.32174 0.70284 0.98615 0.0
O124 O 0.21408 0.48639 0.97007 0.0
O125 O 0.24409 0.59659 0.94813 0.0
Co126 Co 0.51561 0.276 0.05919 0.0
O127 O 0.46224 0.19678 0.10485 0.0
O128 O 0.5789 0.22724 0.12765 0.0
C129 C 0.42588 0.366 0.05558 0.0
O130 O 0.59711 0.34516 0.04313 0.0
Co131 Co 0.49366 0.36816 0.92293 0.0
O132 O 0.58083 0.42686 0.95872 0.0
C133 C 0.5139 0.21052 0.91542 0.0
C134 C 0.52517 0.18404 0.13943 0.0
C135 C 0.61739 0.4014 0.01178 0.0
O136 O 0.54733 0.21047 0.97752 0.0
O137 O 0.47712 0.26486 0.89265 0.0
O138 O 0.46041 0.3513 0.1163 0.0
O139 O 0.44297 0.32476 1.00297 0.0
Co140 Co 0.77862 0.55074 0.03031 0.0
O141 O 0.69557 0.58583 0.97243 0.0
O142 O 0.7323 0.62785 0.08052 0.0
C143 C 0.86882 0.53266 0.94911 0.0
O144 O 0.85459 0.53757 0.10887 0.0
Co145 Co 0.85587 0.40084 0.02438 0.0
O146 O 0.93733 0.4542 0.07822 0.0
C147 C 0.69331 0.42441 0.02821 0.0
C148 C 0.68316 0.62691 0.02928 0.0
C149 C 0.92164 0.51542 0.10625 0.0
O150 O 0.7062 0.48052 0.06773 0.0
O151 O 0.74606 0.38436 1.00447 0.0
O152 O 0.85523 0.59821 0.97292 0.0
O153 O 0.82342 0.48392 0.96853 0.0
Co154 Co 0.54174 0.80454 0.02038 0.0
O155 O 0.49311 0.88367 0.97116 0.0
O156 O 0.61256 0.85571 0.96248 0.0
C157 C 0.44859 0.72124 1.00361 0.0
O158 O 0.61749 0.73225 0.05126 0.0
Co159 Co 0.5023 0.69898 0.13941 0.0
O160 O 0.56412 0.63154 0.07818 0.0
C161 C 0.53209 0.85648 0.17064 0.0
C162 C 0.55843 0.8971 0.94365 0.0
C163 C 0.61331 0.66443 0.04272 0.0
O164 O 0.56113 0.86698 0.10834 0.0
O165 O 0.5052 0.79589 0.18995 0.0
O166 O 0.49364 0.73516 0.95077 0.0
O167 O 0.46099 0.75606 0.06215 0.0
loop_
_geom_bond_atom_site_label_1
_geom_bond_atom_site_label_2
_geom_bond_distance
_geom_bond_site_symmetry_2
_ccdc_geom_bond_type
Co0 O1 2.216 1_455 S
Co0 O2 2.091 . S
Co0 O4 2.004 . S
Co0 O10 2.021 . S
Co0 O12 2.137 1_455 S
Co0 O13 2.244 1_455 S
O1 Co0 2.216 1_655 S
O1 C8 1.247 . S
O2 Co0 2.091 . S
O2 C8 1.261 1_455 S
C3 O12 1.247 . S
C3 O13 1.272 . S
O4 Co0 2.004 . S
O4 C9 1.259 . S
Co5 O6 2.061 1_655 S
Co5 O11 2.052 . S
Co5 O13 2.135 . S
O6 Co5 2.061 1_455 S
O6 C9 1.235 . S
C7 O10 1.238 . S
C7 O11 1.241 1_455 S
C8 O1 1.247 . S
C8 O2 1.261 1_655 S
C9 O4 1.259 . S
C9 O6 1.235 . S
O10 Co0 2.021 . S
O10 C7 1.238 . S
O11 Co5 2.052 . S
O11 C7 1.241 1_655 S
O12 Co0 2.137 1_655 S
O12 C3 1.247 . S
O13 Co0 2.244 1_655 S
O13 C3 1.272 . S
O13 Co5 2.135 . S
Co14 O15 2.215 1_545 S
Co14 O16 2.087 1_545 S
Co14 O18 2.005 . S
Co14 O24 2.024 . S
Co14 O26 2.136 1_545 S
Co14 O27 2.247 . S
O15 Co14 2.215 1_565 S
O15 C22 1.247 . S
O16 Co14 2.087 1_565 S
O16 C22 1.261 . S
C17 O26 1.252 . S
C17 O27 1.267 1_565 S
O18 Co14 2.005 . S
O18 C23 1.259 . S
Co19 O20 2.061 . S
Co19 O25 2.052 . S
Co19 O27 2.135 . S
O20 Co19 2.061 . S
O20 C23 1.235 . S
C21 O24 1.238 . S
C21 O25 1.241 . S
C22 O15 1.247 . S
C22 O16 1.261 . S
C23 O18 1.259 . S
C23 O20 1.235 . S
O24 Co14 2.024 . S
O24 C21 1.238 . S
O25 Co19 2.052 . S
O25 C21 1.241 . S
O26 Co14 2.136 1_565 S
O26 C17 1.252 . S
O27 Co14 2.247 . S
O27 C17 1.267 1_545 S
O27 Co19 2.135 . S
Co28 O29 2.216 1_455 S
Co28 O30 2.091 . S
Co28 O32 2.004 . S
Co28 O38 2.021 . S
Co28 O40 2.137 1_455 S
Co28 O41 2.244 1_455 S
O29 Co28 2.216 1_655 S
O29 C36 1.247 . S
O30 Co28 2.091 . S
O30 C36 1.261 1_455 S
C31 O40 1.247 . S
C31 O41 1.272 . S
O32 Co28 2.004 . S
O32 C37 1.259 . S
Co33 O34 2.061 1_655 S
Co33 O39 2.052 1_655 S
Co33 O41 2.135 . S
O34 Co33 2.061 1_455 S
O34 C37 1.235 . S
C35 O38 1.238 . S
C35 O39 1.241 . S
C36 O29 1.247 . S
C36 O30 1.261 1_655 S
C37 O32 1.259 . S
C37 O34 1.235 . S
O38 Co28 2.021 . S
O38 C35 1.238 . S
O39 Co33 2.052 1_455 S
O39 C35 1.241 . S
O40 Co28 2.137 1_655 S
O40 C31 1.247 . S
O41 Co28 2.244 1_655 S
O41 C31 1.272 . S
O41 Co33 2.135 . S
Co42 O43 2.216 . S
Co42 O44 2.091 . S
Co42 O46 2.004 . S
Co42 O52 2.021 1_545 S
Co42 O54 2.137 . S
Co42 O55 2.244 1_545 S
O43 Co42 2.216 . S
O43 C50 1.247 . S
O44 Co42 2.091 . S
O44 C50 1.261 . S
C45 O54 1.247 . S
C45 O55 1.272 1_545 S
O46 Co42 2.004 . S
O46 C51 1.259 . S
Co47 O48 2.061 . S
Co47 O53 2.052 . S
Co47 O55 2.135 . S
O48 Co47 2.061 . S
O48 C51 1.235 1_565 S
C49 O52 1.238 . S
C49 O53 1.241 . S
C50 O43 1.247 . S
C50 O44 1.261 . S
C51 O46 1.259 . S
C51 O48 1.235 1_545 S
O52 Co42 2.021 1_565 S
O52 C49 1.238 . S
O53 Co47 2.052 . S
O53 C49 1.241 . S
O54 Co42 2.137 . S
O54 C45 1.247 . S
O55 Co42 2.244 1_565 S
O55 C45 1.272 1_565 S
O55 Co47 2.135 . S
Co56 O57 2.216 . S
Co56 O58 2.091 . S
Co56 O60 2.004 . S
Co56 O66 2.021 1_545 S
Co56 O68 2.137 . S
Co56 O69 2.244 1_545 S
O57 Co56 2.216 . S
O57 C64 1.247 . S
O58 Co56 2.091 . S
O58 C64 1.261 . S
C59 O68 1.247 . S
C59 O69 1.272 1_545 S
O60 Co56 2.004 . S
O60 C65 1.259 1_545 S
Co61 O62 2.061 . S
Co61 O67 2.052 . S
Co61 O69 2.135 . S
O62 Co61 2.061 . S
O62 C65 1.235 . S
C63 O66 1.238 . S
C63 O67 1.241 . S
C64 O57 1.247 . S
C64 O58 1.261 . S
C65 O60 1.259 1_565 S
C65 O62 1.235 . S
O66 Co56 2.021 1_565 S
O66 C63 1.238 . S
O67 Co61 2.052 . S
O67 C63 1.241 . S
O68 Co56 2.137 . S
O68 C59 1.247 . S
O69 Co56 2.244 1_565 S
O69 C59 1.272 1_565 S
O69 Co61 2.135 . S
Co70 O71 2.216 . S
Co70 O72 2.091 1_455 S
Co70 O74 2.004 1_455 S
Co70 O80 2.021 1_455 S
Co70 O82 2.137 . S
Co70 O83 2.244 . S
O71 Co70 2.216 . S
O71 C78 1.247 . S
O72 Co70 2.091 1_655 S
O72 C78 1.261 1_655 S
C73 O82 1.247 . S
C73 O83 1.272 . S
O74 Co70 2.004 1_655 S
O74 C79 1.259 . S
Co75 O76 2.061 1_455 S
Co75 O81 2.052 . S
Co75 O83 2.135 . S
O76 Co75 2.061 1_655 S
O76 C79 1.235 . S
C77 O80 1.238 1_455 S
C77 O81 1.241 . S
C78 O71 1.247 . S
C78 O72 1.261 1_455 S
C79 O74 1.259 . S
C79 O76 1.235 . S
O80 Co70 2.021 1_655 S
O80 C77 1.238 1_655 S
O81 Co75 2.052 . S
O81 C77 1.241 . S
O82 Co70 2.137 . S
O82 C73 1.247 . S
O83 Co70 2.244 . S
O83 C73 1.272 . S
O83 Co75 2.135 . S
Co84 O85 2.216 1_545 S
Co84 O86 2.091 1_545 S
Co84 O88 2.004 . S
Co84 O94 2.021 . S
Co84 O96 2.137 1_545 S
Co84 O97 2.244 . S
O85 Co84 2.216 1_565 S
O85 C92 1.247 . S
O86 Co84 2.091 1_565 S
O86 C92 1.261 . S
C87 O96 1.247 1_545 S
C87 O97 1.272 . S
O88 Co84 2.004 . S
O88 C93 1.259 . S
Co89 O90 2.061 . S
Co89 O95 2.052 . S
Co89 O97 2.135 . S
O90 Co89 2.061 . S
O90 C93 1.235 . S
C91 O94 1.238 . S
C91 O95 1.241 . S
C92 O85 1.247 . S
C92 O86 1.261 . S
C93 O88 1.259 . S
C93 O90 1.235 . S
O94 Co84 2.021 . S
O94 C91 1.238 . S
O95 Co89 2.052 . S
O95 C91 1.241 . S
O96 Co84 2.137 1_565 S
O96 C87 1.247 1_565 S
O97 Co84 2.244 . S
O97 C87 1.272 . S
O97 Co89 2.135 . S
Co98 O99 2.216 . S
Co98 O100 2.091 1_455 S
Co98 O102 2.004 1_455 S
Co98 O108 2.021 1_455 S
Co98 O110 2.137 . S
Co98 O111 2.244 . S
O99 Co98 2.216 . S
O99 C106 1.247 . S
O100 Co98 2.091 1_655 S
O100 C106 1.261 1_655 S
C101 O110 1.247 . S
C101 O111 1.272 . S
O102 Co98 2.004 1_655 S
O102 C107 1.259 . S
Co103 O104 2.061 1_455 S
Co103 O109 2.052 . S
Co103 O111 2.135 . S
O104 Co103 2.061 1_655 S
O104 C107 1.235 . S
C105 O108 1.238 . S
C105 O109 1.241 1_655 S
C106 O99 1.247 . S
C106 O100 1.261 1_455 S
C107 O102 1.259 . S
C107 O104 1.235 . S
O108 Co98 2.021 1_655 S
O108 C105 1.238 . S
O109 Co103 2.052 . S
O109 C105 1.241 1_455 S
O110 Co98 2.137 . S
O110 C101 1.247 . S
O111 Co98 2.244 . S
O111 C101 1.272 . S
O111 Co103 2.135 . S
Co112 O113 2.216 1_554 S
Co112 O114 2.091 . S
Co112 O116 2.004 . S
Co112 O122 2.021 . S
Co112 O124 2.137 1_554 S
Co112 O125 2.244 1_554 S
O113 Co112 2.216 1_556 S
O113 C120 1.252 . S
O114 Co112 2.091 . S
O114 C120 1.256 1_554 S
C115 O124 1.247 . S
C115 O125 1.272 . S
O116 Co112 2.004 . S
O116 C121 1.259 . S
Co117 O118 2.061 . S
Co117 O123 2.052 . S
Co117 O125 2.135 1_554 S
O118 Co117 2.061 . S
O118 C121 1.235 . S
C119 O122 1.238 . S
C119 O123 1.241 . S
C120 O113 1.252 . S
C120 O114 1.256 1_556 S
C121 O116 1.259 . S
C121 O118 1.235 . S
O122 Co112 2.021 . S
O122 C119 1.238 . S
O123 Co117 2.052 . S
O123 C119 1.241 . S
O124 Co112 2.137 1_556 S
O124 C115 1.247 . S
O125 Co112 2.244 1_556 S
O125 C115 1.272 . S
O125 Co117 2.135 1_556 S
Co126 O127 2.216 . S
Co126 O128 2.091 . S
Co126 O130 2.004 . S
Co126 O136 2.021 1_554 S
Co126 O138 2.137 . S
Co126 O139 2.244 1_554 S
O127 Co126 2.216 . S
O127 C134 1.247 . S
O128 Co126 2.091 . S
O128 C134 1.261 . S
C129 O138 1.247 . S
C129 O139 1.272 1_554 S
O130 Co126 2.004 . S
O130 C135 1.259 1_554 S
Co131 O132 2.061 . S
Co131 O137 2.052 . S
Co131 O139 2.135 . S
O132 Co131 2.061 . S
O132 C135 1.235 . S
C133 O136 1.238 . S
C133 O137 1.241 . S
C134 O127 1.247 . S
C134 O128 1.261 . S
C135 O130 1.259 1_556 S
C135 O132 1.235 . S
O136 Co126 2.021 1_556 S
O136 C133 1.238 . S
O137 Co131 2.052 . S
O137 C133 1.241 . S
O138 Co126 2.137 . S
O138 C129 1.247 . S
O139 Co126 2.244 1_556 S
O139 C129 1.272 1_556 S
O139 Co131 2.135 . S
Co140 O141 2.216 1_554 S
Co140 O142 2.091 . S
Co140 O144 2.004 . S
Co140 O150 2.021 . S
Co140 O152 2.137 1_554 S
Co140 O153 2.244 1_554 S
O141 Co140 2.216 1_556 S
O141 C148 1.247 1_556 S
O142 Co140 2.091 . S
O142 C148 1.261 . S
C143 O152 1.247 . S
C143 O153 1.272 . S
O144 Co140 2.004 . S
O144 C149 1.259 . S
Co145 O146 2.061 1_556 S
Co145 O151 2.052 1_556 S
Co145 O153 2.135 . S
O146 Co145 2.061 1_554 S
O146 C149 1.235 . S
C147 O150 1.238 . S
C147 O151 1.241 . S
C148 O141 1.247 1_554 S
C148 O142 1.261 . S
C149 O144 1.259 . S
C149 O146 1.235 . S
O150 Co140 2.021 . S
O150 C147 1.238 . S
O151 Co145 2.052 1_554 S
O151 C147 1.241 . S
O152 Co140 2.137 1_556 S
O152 C143 1.247 . S
O153 Co140 2.244 1_556 S
O153 C143 1.272 . S
O153 Co145 2.135 . S
Co154 O155 2.216 1_554 S
Co154 O156 2.091 1_554 S
Co154 O158 2.004 . S
Co154 O164 2.021 . S
Co154 O166 2.137 1_554 S
Co154 O167 2.244 . S
O155 Co154 2.216 1_556 S
O155 C162 1.247 . S
O156 Co154 2.091 1_556 S
O156 C162 1.261 . S
C157 O166 1.247 1_554 S
C157 O167 1.272 . S
O158 Co154 2.004 . S
O158 C163 1.259 . S
Co159 O160 2.061 . S
Co159 O165 2.052 . S
Co159 O167 2.135 . S
O160 Co159 2.061 . S
O160 C163 1.235 . S
C161 O164 1.238 . S
C161 O165 1.241 . S
C162 O155 1.247 . S
C162 O156 1.261 . S
C163 O158 1.259 . S
C163 O160 1.235 . S
O164 Co154 2.021 . S
O164 C161 1.238 . S
O165 Co159 2.052 . S
O165 C161 1.241 . S
O166 Co154 2.137 1_556 S
O166 C157 1.247 1_556 S
O167 Co154 2.244 . S
O167 C157 1.272 . S
O167 Co159 2.135 . S
C8 C78 1.756 1_655 S
C17 C59 1.898 1_565 S
C77 C35 1.476 . S
C45 C65 1.805 1_545 S
C106 C36 1.807 1_455 S
C93 C51 1.749 . S
C7 C105 1.536 1_455 S
C87 C23 1.847 . S
C129 C120 1.853 1_554 S
C119 C157 1.728 . S
C135 C147 1.656 1_556 S
C148 C163 1.768 . S
C162 C92 1.756 . S
C115 C101 1.901 . S
C91 C133 1.476 . S
C107 C143 1.805 . S
C64 C134 1.807 . S
C79 C149 1.749 . S
C161 C63 1.536 . S
C121 C73 1.847 . S
C22 C31 1.857 . S
C3 C21 1.728 . S
C37 C49 1.656 . S
C9 C50 1.768 . S
