# Generated by pormake.
# Topology dmp, (4)-cn, num edge types: 1
# Building blocks:
#     Node 0, Type 0, BuildingBlock: NAHDIM_clean_sbu_0, # of connection points: 4
#     Node 1, Type 0, BuildingBlock: NAHDIM_clean_sbu_0, # of connection points: 4
#     Node 2, Type 0, BuildingBlock: NAHDIM_clean_sbu_0, # of connection points: 4
#     Node 3, Type 0, BuildingBlock: NAHDIM_clean_sbu_0, # of connection points: 4
#     Edge 4, Type (0, 0), BuildingBlock: FUNLAD_clean_linker_0, # of connection points: 2
#     Edge 5, Type (0, 0), BuildingBlock: FUNLAD_clean_linker_0, # of connection points: 2
#     Edge 6, Type (0, 0), BuildingBlock: FUNLAD_clean_linker_0, # of connection points: 2
#     Edge 7, Type (0, 0), BuildingBlock: FUNLAD_clean_linker_0, # of connection points: 2
#     Edge 8, Type (0, 0), BuildingBlock: FUNLAD_clean_linker_0, # of connection points: 2
#     Edge 9, Type (0, 0), BuildingBlock: FUNLAD_clean_linker_0, # of connection points: 2
#     Edge 10, Type (0, 0), BuildingBlock: FUNLAD_clean_linker_0, # of connection points: 2
#     Edge 11, Type (0, 0), BuildingBlock: FUNLAD_clean_linker_0, # of connection points: 2
# Relax obj value: 0.249
# Max RMSD: 0.271
# Mean RMSD: 0.271
data_MOF--net-dmp--node1-NAHDIM_clean_sbu_0--edge1-FUNLAD_clean_linker_0
_symmetry_space_group_name_H-M    P1
_symmetry_Int_Tables_number       1
_symmetry_cell_setting            triclinic
loop_
_symmetry_equiv_pos_as_xyz
'x, y, z'
_cell_length_a     43.386265
_cell_length_b     20.061948
_cell_length_c     21.983877
_cell_angle_alpha  89.977784
_cell_angle_beta   89.936894
_cell_angle_gamma 94.999402
loop_
_atom_site_label
_atom_site_type_symbol
_atom_site_fract_x
_atom_site_fract_y
_atom_site_fract_z
_atom_type_partial_charge
C0 C 0.07562 0.33212 0.3299 0.0
O1 O 0.08891 0.35729 0.28031 0.0
O2 O 0.07857 0.15636 0.23559 0.0
Zn3 Zn 0.10446 0.21341 0.29422 0.0
O4 O 0.13713 0.26895 0.24746 0.0
C5 C 0.11914 0.09408 0.3599 0.0
O6 O 0.09407 0.06564 0.33403 0.0
O7 O 0.07879 0.27171 0.34414 0.0
C8 C 0.13385 0.29231 0.19432 0.0
O9 O 0.10708 0.2819 0.16653 0.0
C10 C 0.05292 0.17226 0.21476 0.0
O11 O 0.04198 0.22786 0.23316 0.0
O12 O 0.12699 0.15563 0.35016 0.0
C13 C 0.4331 0.68544 0.32383 0.0
O14 O 0.43926 0.67933 0.26569 0.0
O15 O 0.40875 0.82608 0.22463 0.0
Zn16 Zn 0.38453 0.75797 0.27687 0.0
O17 O 0.36521 0.68296 0.22582 0.0
C18 C 0.35331 0.84267 0.36015 0.0
O19 O 0.38135 0.86432 0.37771 0.0
O20 O 0.41107 0.71932 0.33978 0.0
C21 C 0.34579 0.69413 0.18465 0.0
O22 O 0.33953 0.75601 0.17413 0.0
C23 C 0.42013 0.80896 0.1743 0.0
O24 O 0.41652 0.74594 0.15751 0.0
O25 O 0.34983 0.79906 0.31833 0.0
C26 C 0.92 0.64692 0.68402 0.0
O27 O 0.90747 0.62283 0.73475 0.0
O28 O 0.91988 0.82003 0.77868 0.0
Zn29 Zn 0.89229 0.7653 0.72129 0.0
O30 O 0.86113 0.70896 0.77053 0.0
C31 C 0.87126 0.88697 0.66978 0.0
O32 O 0.89261 0.91741 0.70476 0.0
O33 O 0.91678 0.70716 0.66928 0.0
C34 C 0.8425 0.73744 0.80442 0.0
O35 O 0.84459 0.80311 0.8072 0.0
C36 C 0.93008 0.79186 0.82537 0.0
O37 O 0.92323 0.72735 0.83327 0.0
O38 O 0.86814 0.82347 0.66845 0.0
C39 C 0.56019 0.29787 0.65859 0.0
O40 O 0.54123 0.25093 0.6834 0.0
O41 O 0.57735 0.17304 0.76803 0.0
Zn42 Zn 0.60859 0.23549 0.7242 0.0
O43 O 0.63553 0.28761 0.78483 0.0
C44 C 0.633 0.12143 0.66411 0.0
O45 O 0.60857 0.08673 0.68675 0.0
O46 O 0.58894 0.29975 0.66982 0.0
C47 C 0.62991 0.34496 0.80424 0.0
O48 O 0.60483 0.37117 0.7858 0.0
C49 C 0.56118 0.19357 0.81124 0.0
O50 O 0.5643 0.25717 0.82613 0.0
O51 O 0.63684 0.18402 0.67369 0.0
C52 C 0.29611 0.84067 0.37305 0.0
C53 C 0.32582 0.87063 0.38629 0.0
C54 C 0.26985 0.86987 0.39268 0.0
C55 C 0.2727 0.92983 0.42619 0.0
C56 C 0.30241 0.95857 0.44114 0.0
C57 C 0.32876 0.92899 0.42183 0.0
C58 C 0.24558 0.96813 0.4382 0.0
C59 C 0.21626 0.93973 0.4405 0.0
C60 C 0.18894 0.97861 0.43228 0.0
C61 C 0.16217 0.94645 0.40588 0.0
C62 C 0.13832 0.98347 0.38576 0.0
C63 C 0.14086 0.0534 0.39182 0.0
H64 H 0.20948 0.07403 0.46672 0.0
C65 C 0.16626 0.08478 0.42341 0.0
C66 C 0.18998 0.04774 0.44387 0.0
H67 H 0.16847 0.13847 0.43016 0.0
H68 H 0.29306 0.79555 0.34586 0.0
H69 H 0.24752 0.84706 0.37844 0.0
H70 H 0.30525 0.00515 0.46627 0.0
H71 H 0.35135 0.95323 0.43278 0.0
H72 H 0.2501 0.02214 0.43918 0.0
H73 H 0.21212 0.88556 0.44029 0.0
H74 H 0.16053 0.89309 0.39719 0.0
H75 H 0.11885 0.95771 0.36221 0.0
C76 C 0.18971 0.3325 0.18892 0.0
C77 C 0.15957 0.3346 0.16636 0.0
C78 C 0.21377 0.37663 0.1671 0.0
C79 C 0.20819 0.42412 0.12221 0.0
C80 C 0.17821 0.42501 0.09842 0.0
C81 C 0.15414 0.38007 0.11977 0.0
C82 C 0.2321 0.4788 0.10651 0.0
C83 C 0.26261 0.47151 0.11034 0.0
C84 C 0.2864 0.5288 0.1175 0.0
C85 C 0.31357 0.51773 0.14912 0.0
C86 C 0.33384 0.57144 0.16811 0.0
C87 C 0.32748 0.63746 0.15536 0.0
H88 H 0.26145 0.60508 0.07352 0.0
C89 C 0.30181 0.64839 0.1189 0.0
C90 C 0.28145 0.59455 0.09999 0.0
H91 H 0.29661 0.69867 0.1073 0.0
H92 H 0.19461 0.2979 0.22478 0.0
H93 H 0.23628 0.37569 0.1881 0.0
H94 H 0.17324 0.46174 0.06447 0.0
H95 H 0.13107 0.38293 0.10169 0.0
H96 H 0.22396 0.52756 0.09809 0.0
H97 H 0.27006 0.42177 0.11746 0.0
H98 H 0.31822 0.46759 0.16256 0.0
H99 H 0.35372 0.56123 0.19526 0.0
C100 C 0.68291 0.12508 0.60681 0.0
C101 C 0.65803 0.08742 0.63499 0.0
C102 C 0.70891 0.09443 0.58763 0.0
C103 C 0.71072 0.02552 0.59712 0.0
C104 C 0.6848 0.98716 0.62073 0.0
C105 C 0.65869 0.01776 0.63954 0.0
C106 C 0.73983 0.99278 0.58815 0.0
C107 C 0.76812 0.02628 0.59188 0.0
C108 C 0.79682 0.99234 0.60147 0.0
C109 C 0.79935 0.92543 0.58449 0.0
C110 C 0.82452 0.89212 0.60395 0.0
C111 C 0.84779 0.92515 0.64016 0.0
H112 H 0.82027 0.07864 0.64612 0.0
C113 C 0.8466 0.99354 0.6525 0.0
C114 C 0.82138 0.02678 0.6332 0.0
H115 H 0.86432 0.02067 0.67969 0.0
H116 H 0.68276 0.17872 0.60135 0.0
H117 H 0.72777 0.12534 0.56703 0.0
H118 H 0.68536 0.9338 0.62773 0.0
H119 H 0.63975 0.98723 0.66045 0.0
H120 H 0.73777 0.93848 0.58767 0.0
H121 H 0.77009 0.08023 0.59739 0.0
H122 H 0.7816 0.89794 0.55775 0.0
H123 H 0.82511 0.83972 0.59254 0.0
C124 C 0.81618 0.62728 0.83615 0.0
C125 C 0.81673 0.69733 0.83461 0.0
C126 C 0.79002 0.58856 0.85697 0.0
C127 C 0.76379 0.61921 0.87677 0.0
C128 C 0.76496 0.68933 0.878 0.0
C129 C 0.79128 0.72811 0.85762 0.0
C130 C 0.73363 0.57987 0.8865 0.0
C131 C 0.73111 0.51449 0.90142 0.0
C132 C 0.70281 0.46938 0.88899 0.0
C133 C 0.70634 0.40164 0.87759 0.0
C134 C 0.68202 0.35999 0.85325 0.0
C135 C 0.65356 0.38525 0.84008 0.0
H136 H 0.66928 0.544 0.89211 0.0
C137 C 0.64907 0.45128 0.85681 0.0
C138 C 0.67342 0.49296 0.88133 0.0
H139 H 0.62717 0.47176 0.84856 0.0
H140 H 0.83549 0.60211 0.81889 0.0
H141 H 0.78985 0.53474 0.85359 0.0
H142 H 0.74499 0.71415 0.89244 0.0
H143 H 0.79102 0.78205 0.85708 0.0
H144 H 0.71325 0.60448 0.87416 0.0
H145 H 0.75172 0.49111 0.91477 0.0
H146 H 0.72857 0.38181 0.88384 0.0
H147 H 0.6861 0.30897 0.84186 0.0
C148 C 0.0496 0.07331 0.14538 0.0
C149 C 0.03657 0.13014 0.16779 0.0
C150 C 0.03488 0.03459 0.09948 0.0
C151 C 0.00655 0.05145 0.07537 0.0
C152 C -0.00641 0.10837 0.09764 0.0
C153 C 0.00837 0.14725 0.14354 0.0
C154 C 0.99053 0.01246 0.02552 0.0
C155 C -0.0053 0.94789 0.01414 0.0
C156 C 0.97862 0.90905 0.96435 0.0
C157 C 0.97403 0.8392 0.96972 0.0
C158 C 0.9586 0.80097 0.92423 0.0
C159 C 0.94773 0.83187 0.87208 0.0
H160 H 0.97258 0.9933 0.9045 0.0
C161 C 0.95311 0.90162 0.86582 0.0
C162 C 0.96847 0.93986 0.91137 0.0
H163 H 0.94526 0.92688 0.82589 0.0
H164 H 0.07148 0.05914 0.16263 0.0
H165 H 0.04624 0.99256 0.08226 0.0
H166 H 0.97194 0.12283 0.0795 0.0
H167 H -0.0022 0.19093 0.15963 0.0
H168 H 0.97375 0.0373 0.99912 0.0
H169 H 0.0091 0.92097 0.04419 0.0
H170 H 0.98198 0.81417 0.00971 0.0
H171 H 0.95498 0.74728 0.93028 0.0
C172 C 0.52461 0.16719 0.89771 0.0
C173 C 0.54037 0.14574 0.84642 0.0
C174 C 0.50651 0.12124 0.93327 0.0
C175 C 0.5039 0.0528 0.91829 0.0
C176 C 0.51861 0.03187 0.86566 0.0
C177 C 0.53682 0.07774 0.83023 0.0
C178 C 0.4862 0.00181 0.95638 0.0
C179 C 0.48253 0.00871 0.01685 0.0
C180 C 0.46644 0.95635 0.05604 0.0
C181 C 0.45439 0.97525 0.11211 0.0
C182 C 0.43943 0.92747 0.15072 0.0
C183 C 0.43644 0.85957 0.13419 0.0
H184 H 0.47385 0.87098 0.99833 0.0
C185 C 0.44894 0.84042 0.07856 0.0
C186 C 0.46389 0.88817 0.03997 0.0
H187 H 0.4473 0.7884 0.06476 0.0
H188 H 0.52657 0.21938 0.91095 0.0
H189 H 0.49456 0.1397 0.97219 0.0
H190 H 0.51666 0.97956 0.85272 0.0
H191 H 0.54845 0.05968 0.79067 0.0
H192 H 0.47712 0.95616 0.93384 0.0
H193 H 0.49172 0.05446 0.03916 0.0
H194 H 0.45635 0.02729 0.12592 0.0
H195 H 0.43014 0.94384 0.1934 0.0
C196 C 0.94959 0.6293 0.58853 0.0
C197 C 0.93714 0.60414 0.6438 0.0
C198 C 0.96545 0.58877 0.55005 0.0
C199 C 0.96945 0.52221 0.56635 0.0
C200 C 0.95667 0.49691 0.62123 0.0
C201 C 0.94078 0.53747 0.65973 0.0
C202 C 0.98599 0.47717 0.52673 0.0
C203 C 0.0076 0.49948 0.48576 0.0
C204 C 0.02434 0.45469 0.44622 0.0
C205 C 0.03781 0.4808 0.39222 0.0
C206 C 0.05421 0.44087 0.3541 0.0
C207 C 0.05769 0.37399 0.36949 0.0
H208 H 0.01896 0.3662 0.50398 0.0
C209 C 0.0444 0.34786 0.42371 0.0
C210 C 0.02801 0.38779 0.46185 0.0
H211 H 0.04693 0.29668 0.43718 0.0
H212 H 0.94686 0.68025 0.57459 0.0
H213 H 0.97392 0.60962 0.50721 0.0
H214 H 0.95916 0.44567 0.63462 0.0
H215 H 0.93133 0.51645 0.70187 0.0
H216 H 0.98028 0.42383 0.53259 0.0
H217 H 0.01332 0.55286 0.48009 0.0
H218 H 0.03556 0.53229 0.37933 0.0
H219 H 0.06428 0.46262 0.31274 0.0
C220 C 0.47295 0.6081 0.35202 0.0
C221 C 0.44928 0.64751 0.36966 0.0
C222 C 0.48628 0.56734 0.39428 0.0
C223 C 0.47627 0.56548 0.45525 0.0
C224 C 0.45305 0.6059 0.47304 0.0
C225 C 0.4398 0.64682 0.43084 0.0
C226 C 0.48792 0.51869 0.50027 0.0
C227 C 0.5157 0.49412 0.4957 0.0
C228 C 0.52638 0.44447 0.53902 0.0
C229 C 0.55824 0.44213 0.54819 0.0
C230 C 0.56918 0.39486 0.5874 0.0
C231 C 0.54845 0.34823 0.61764 0.0
H232 H 0.4809 0.39655 0.56154 0.0
C233 C 0.51654 0.35004 0.60799 0.0
C234 C 0.50559 0.39764 0.56902 0.0
H235 H 0.5 0.31452 0.63029 0.0
H236 H 0.48066 0.60727 0.30516 0.0
H237 H 0.50352 0.53562 0.3783 0.0
H238 H 0.44481 0.60512 0.51961 0.0
H239 H 0.42154 0.6765 0.4459 0.0
H240 H 0.47324 0.50528 0.53923 0.0
H241 H 0.53176 0.51251 0.46035 0.0
H242 H 0.57472 0.47719 0.52514 0.0
H243 H 0.59393 0.39465 0.59363 0.0
loop_
_geom_bond_atom_site_label_1
_geom_bond_atom_site_label_2
_geom_bond_distance
_geom_bond_site_symmetry_2
_ccdc_geom_bond_type
C0 O1 1.160 . S
C0 O7 1.185 . S
O1 C0 1.160 . S
O2 Zn3 1.899 . S
O2 C10 1.284 . S
Zn3 O2 1.899 . S
Zn3 O4 2.032 . S
Zn3 O7 2.086 . S
Zn3 O12 1.977 . S
O4 Zn3 2.032 . S
O4 C8 1.278 . S
C5 O6 1.203 . S
C5 O12 1.267 . S
O6 C5 1.203 . S
O7 C0 1.185 . S
O7 Zn3 2.086 . S
C8 O4 1.278 . S
C8 O9 1.211 . S
O9 C8 1.211 . S
C10 O2 1.284 . S
C10 O11 1.273 . S
O11 C10 1.273 . S
O12 Zn3 1.977 . S
O12 C5 1.267 . S
C13 O14 1.160 . S
C13 O20 1.185 . S
O14 C13 1.160 . S
O15 Zn16 1.899 . S
O15 C23 1.284 . S
Zn16 O15 1.899 . S
Zn16 O17 2.032 . S
Zn16 O20 2.086 . S
Zn16 O25 1.977 . S
O17 Zn16 2.032 . S
O17 C21 1.278 . S
C18 O19 1.203 . S
C18 O25 1.267 . S
O19 C18 1.203 . S
O20 C13 1.185 . S
O20 Zn16 2.086 . S
C21 O17 1.278 . S
C21 O22 1.211 . S
O22 C21 1.211 . S
C23 O15 1.284 . S
C23 O24 1.273 . S
O24 C23 1.273 . S
O25 Zn16 1.977 . S
O25 C18 1.267 . S
C26 O27 1.160 . S
C26 O33 1.185 . S
O27 C26 1.160 . S
O28 Zn29 1.899 . S
O28 C36 1.284 . S
Zn29 O28 1.899 . S
Zn29 O30 2.032 . S
Zn29 O33 2.086 . S
Zn29 O38 1.977 . S
O30 Zn29 2.032 . S
O30 C34 1.278 . S
C31 O32 1.203 . S
C31 O38 1.267 . S
O32 C31 1.203 . S
O33 C26 1.185 . S
O33 Zn29 2.086 . S
C34 O30 1.278 . S
C34 O35 1.211 . S
O35 C34 1.211 . S
C36 O28 1.284 . S
C36 O37 1.273 . S
O37 C36 1.273 . S
O38 Zn29 1.977 . S
O38 C31 1.267 . S
C39 O40 1.160 . S
C39 O46 1.185 . S
O40 C39 1.160 . S
O41 Zn42 1.899 . S
O41 C49 1.284 . S
Zn42 O41 1.899 . S
Zn42 O43 2.032 . S
Zn42 O46 2.086 . S
Zn42 O51 1.977 . S
O43 Zn42 2.032 . S
O43 C47 1.278 . S
C44 O45 1.203 . S
C44 O51 1.267 . S
O45 C44 1.203 . S
O46 C39 1.185 . S
O46 Zn42 2.086 . S
C47 O43 1.278 . S
C47 O48 1.211 . S
O48 C47 1.211 . S
C49 O41 1.284 . S
C49 O50 1.273 . S
O50 C49 1.273 . S
O51 Zn42 1.977 . S
O51 C44 1.267 . S
C52 C53 1.386 . S
C52 C54 1.383 . S
C52 H68 0.951 . S
C53 C52 1.386 . S
C53 C57 1.383 . S
C54 C52 1.383 . S
C54 C55 1.402 . S
C54 H69 0.951 . S
C55 C54 1.402 . S
C55 C56 1.375 . S
C55 C58 1.481 1_565 S
C56 C55 1.375 . S
C56 C57 1.367 . S
C56 H70 0.951 1_565 S
C57 C53 1.383 . S
C57 C56 1.367 . S
C57 H71 0.950 . S
C58 C55 1.481 1_545 S
C58 C59 1.297 1_545 S
C58 H72 0.950 . S
C59 C58 1.297 1_565 S
C59 C60 1.479 1_565 S
C59 H73 0.950 . S
C60 C59 1.479 1_545 S
C60 C61 1.375 . S
C60 C66 1.404 . S
C61 C60 1.375 . S
C61 C62 1.369 . S
C61 H74 0.950 1_545 S
C62 C61 1.369 . S
C62 C63 1.392 . S
C62 H75 0.951 . S
C63 C62 1.392 . S
C63 C65 1.384 . S
H64 C66 0.949 . S
C65 C63 1.384 . S
C65 C66 1.385 . S
C65 H67 0.950 . S
C66 C60 1.404 . S
C66 H64 0.949 . S
C66 C65 1.385 . S
H67 C65 0.950 . S
H68 C52 0.951 . S
H69 C54 0.951 . S
H70 C56 0.951 1_545 S
H71 C57 0.950 . S
H72 C58 0.950 . S
H73 C59 0.950 . S
H74 C61 0.950 1_565 S
H75 C62 0.951 . S
C76 C77 1.386 . S
C76 C78 1.383 . S
C76 H92 0.951 . S
C77 C76 1.386 . S
C77 C81 1.383 . S
C78 C76 1.383 . S
C78 C79 1.402 . S
C78 H93 0.951 . S
C79 C78 1.402 . S
C79 C80 1.375 . S
C79 C82 1.481 . S
C80 C79 1.375 . S
C80 C81 1.367 . S
C80 H94 0.951 . S
C81 C77 1.383 . S
C81 C80 1.367 . S
C81 H95 0.950 . S
C82 C79 1.481 . S
C82 C83 1.297 . S
C82 H96 0.950 . S
C83 C82 1.297 . S
C83 C84 1.479 . S
C83 H97 0.950 . S
C84 C83 1.479 . S
C84 C85 1.375 . S
C84 C90 1.404 . S
C85 C84 1.375 . S
C85 C86 1.369 . S
C85 H98 0.950 . S
C86 C85 1.369 . S
C86 C87 1.392 . S
C86 H99 0.951 . S
C87 C86 1.392 . S
C87 C89 1.384 . S
H88 C90 0.949 . S
C89 C87 1.384 . S
C89 C90 1.385 . S
C89 H91 0.950 . S
C90 C84 1.404 . S
C90 H88 0.949 . S
C90 C89 1.385 . S
H91 C89 0.950 . S
H92 C76 0.951 . S
H93 C78 0.951 . S
H94 C80 0.951 . S
H95 C81 0.950 . S
H96 C82 0.950 . S
H97 C83 0.950 . S
H98 C85 0.950 . S
H99 C86 0.951 . S
C100 C101 1.386 . S
C100 C102 1.383 . S
C100 H116 0.951 . S
C101 C100 1.386 . S
C101 C105 1.383 . S
C102 C100 1.383 . S
C102 C103 1.402 . S
C102 H117 0.951 . S
C103 C102 1.402 . S
C103 C104 1.375 . S
C103 C106 1.481 . S
C104 C103 1.375 . S
C104 C105 1.367 . S
C104 H118 0.951 . S
C105 C101 1.383 . S
C105 C104 1.367 . S
C105 H119 0.950 . S
C106 C103 1.481 . S
C106 C107 1.297 . S
C106 H120 0.950 1_545 S
C107 C106 1.297 . S
C107 C108 1.479 1_545 S
C107 H121 0.950 . S
C108 C107 1.479 1_565 S
C108 C109 1.375 . S
C108 C114 1.404 . S
C109 C108 1.375 . S
C109 C110 1.369 . S
C109 H122 0.950 . S
C110 C109 1.369 . S
C110 C111 1.392 . S
C110 H123 0.951 . S
C111 C110 1.392 . S
C111 C113 1.384 . S
H112 C114 0.949 . S
C113 C111 1.384 . S
C113 C114 1.385 . S
C113 H115 0.950 . S
C114 C108 1.404 . S
C114 H112 0.949 . S
C114 C113 1.385 . S
H115 C113 0.950 . S
H116 C100 0.951 . S
H117 C102 0.951 . S
H118 C104 0.951 . S
H119 C105 0.950 . S
H120 C106 0.950 1_565 S
H121 C107 0.950 . S
H122 C109 0.950 . S
H123 C110 0.951 . S
C124 C125 1.386 . S
C124 C126 1.383 . S
C124 H140 0.951 . S
C125 C124 1.386 . S
C125 C129 1.383 . S
C126 C124 1.383 . S
C126 C127 1.402 . S
C126 H141 0.951 . S
C127 C126 1.402 . S
C127 C128 1.375 . S
C127 C130 1.481 . S
C128 C127 1.375 . S
C128 C129 1.367 . S
C128 H142 0.951 . S
C129 C125 1.383 . S
C129 C128 1.367 . S
C129 H143 0.950 . S
C130 C127 1.481 . S
C130 C131 1.297 . S
C130 H144 0.950 . S
C131 C130 1.297 . S
C131 C132 1.479 . S
C131 H145 0.950 . S
C132 C131 1.479 . S
C132 C133 1.375 . S
C132 C138 1.404 . S
C133 C132 1.375 . S
C133 C134 1.369 . S
C133 H146 0.950 . S
C134 C133 1.369 . S
C134 C135 1.392 . S
C134 H147 0.951 . S
C135 C134 1.392 . S
C135 C137 1.384 . S
H136 C138 0.949 . S
C137 C135 1.384 . S
C137 C138 1.385 . S
C137 H139 0.950 . S
C138 C132 1.404 . S
C138 H136 0.949 . S
C138 C137 1.385 . S
H139 C137 0.950 . S
H140 C124 0.951 . S
H141 C126 0.951 . S
H142 C128 0.951 . S
H143 C129 0.950 . S
H144 C130 0.950 . S
H145 C131 0.950 . S
H146 C133 0.950 . S
H147 C134 0.951 . S
C148 C149 1.386 . S
C148 C150 1.383 . S
C148 H164 0.951 . S
C149 C148 1.386 . S
C149 C153 1.383 . S
C150 C148 1.383 . S
C150 C151 1.402 . S
C150 H165 0.951 . S
C151 C150 1.402 . S
C151 C152 1.375 . S
C151 C154 1.473 1_454 S
C152 C151 1.375 . S
C152 C153 1.367 . S
C152 H166 0.951 1_554 S
C153 C149 1.383 . S
C153 C152 1.367 . S
C153 H167 0.950 . S
C154 C151 1.473 1_656 S
C154 C155 1.305 1_546 S
C154 H168 0.950 . S
C155 C154 1.305 1_564 S
C155 C156 1.479 1_554 S
C155 H169 0.950 . S
C156 C155 1.479 1_556 S
C156 C157 1.375 . S
C156 C162 1.404 . S
C157 C156 1.375 . S
C157 C158 1.369 . S
C157 H170 0.950 1_556 S
C158 C157 1.369 . S
C158 C159 1.392 . S
C158 H171 0.951 . S
C159 C158 1.392 . S
C159 C161 1.384 . S
H160 C162 0.949 1_545 S
C161 C159 1.384 . S
C161 C162 1.385 . S
C161 H163 0.950 . S
C162 C156 1.404 . S
C162 H160 0.949 1_565 S
C162 C161 1.385 . S
H163 C161 0.950 . S
H164 C148 0.951 . S
H165 C150 0.951 . S
H166 C152 0.951 1_556 S
H167 C153 0.950 . S
H168 C154 0.950 . S
H169 C155 0.950 . S
H170 C157 0.950 1_554 S
H171 C158 0.951 . S
C172 C173 1.386 . S
C172 C174 1.383 . S
C172 H188 0.951 . S
C173 C172 1.386 . S
C173 C177 1.383 . S
C174 C172 1.383 . S
C174 C175 1.402 . S
C174 H189 0.935 1_556 S
C175 C174 1.402 . S
C175 C176 1.375 . S
C175 C178 1.482 . S
C176 C175 1.375 . S
C176 C177 1.367 . S
C176 H190 0.951 . S
C177 C173 1.383 . S
C177 C176 1.367 . S
C177 H191 0.950 . S
C178 C175 1.482 . S
C178 C179 1.297 1_556 S
C178 H192 0.949 1_545 S
C179 C178 1.297 1_554 S
C179 C180 1.479 1_545 S
C179 H193 0.950 . S
C180 C179 1.479 1_565 S
C180 C181 1.375 . S
C180 C186 1.404 . S
C181 C180 1.375 . S
C181 C182 1.369 . S
C181 H194 0.950 1_565 S
C182 C181 1.369 . S
C182 C183 1.392 . S
C182 H195 0.951 . S
C183 C182 1.392 . S
C183 C185 1.384 . S
H184 C186 0.949 1_556 S
C185 C183 1.384 . S
C185 C186 1.385 . S
C185 H187 0.950 . S
C186 C180 1.404 . S
C186 H184 0.949 1_554 S
C186 C185 1.385 . S
H187 C185 0.950 . S
H188 C172 0.951 . S
H189 C174 0.935 1_554 S
H190 C176 0.951 . S
H191 C177 0.950 . S
H192 C178 0.949 1_565 S
H193 C179 0.950 . S
H194 C181 0.950 1_545 S
H195 C182 0.951 . S
C196 C197 1.386 . S
C196 C198 1.383 . S
C196 H212 0.951 . S
C197 C196 1.386 . S
C197 C201 1.383 . S
C198 C196 1.383 . S
C198 C199 1.402 . S
C198 H213 0.951 1_655 S
C199 C198 1.402 . S
C199 C200 1.375 . S
C199 C202 1.481 . S
C200 C199 1.375 . S
C200 C201 1.367 . S
C200 H214 0.951 . S
C201 C197 1.383 . S
C201 C200 1.367 . S
C201 H215 0.950 . S
C202 C199 1.481 . S
C202 C203 1.297 1_655 S
C202 H216 0.950 . S
C203 C202 1.297 1_455 S
C203 C204 1.479 . S
C203 H217 0.950 . S
C204 C203 1.479 . S
C204 C205 1.375 . S
C204 C210 1.404 . S
C205 C204 1.375 . S
C205 C206 1.369 . S
C205 H218 0.950 . S
C206 C205 1.369 . S
C206 C207 1.392 . S
C206 H219 0.951 . S
C207 C206 1.392 . S
C207 C209 1.384 . S
H208 C210 0.949 1_655 S
C209 C207 1.384 . S
C209 C210 1.385 . S
C209 H211 0.950 . S
C210 C204 1.404 . S
C210 H208 0.949 1_455 S
C210 C209 1.385 . S
H211 C209 0.950 . S
H212 C196 0.951 . S
H213 C198 0.951 1_455 S
H214 C200 0.951 . S
H215 C201 0.950 . S
H216 C202 0.950 . S
H217 C203 0.950 . S
H218 C205 0.950 . S
H219 C206 0.951 . S
C220 C221 1.386 . S
C220 C222 1.383 . S
C220 H236 0.951 . S
C221 C220 1.386 . S
C221 C225 1.383 . S
C222 C220 1.383 . S
C222 C223 1.402 . S
C222 H237 0.951 . S
C223 C222 1.402 . S
C223 C224 1.375 . S
C223 C226 1.481 . S
C224 C223 1.375 . S
C224 C225 1.367 . S
C224 H238 0.951 . S
C225 C221 1.383 . S
C225 C224 1.367 . S
C225 H239 0.950 . S
C226 C223 1.481 . S
C226 C227 1.297 . S
C226 H240 0.950 . S
C227 C226 1.297 . S
C227 C228 1.479 . S
C227 H241 0.950 . S
C228 C227 1.479 . S
C228 C229 1.375 . S
C228 C234 1.404 . S
C229 C228 1.375 . S
C229 C230 1.369 . S
C229 H242 0.950 . S
C230 C229 1.369 . S
C230 C231 1.392 . S
C230 H243 0.951 . S
C231 C230 1.392 . S
C231 C233 1.384 . S
H232 C234 0.949 . S
C233 C231 1.384 . S
C233 C234 1.385 . S
C233 H235 0.950 . S
C234 C228 1.404 . S
C234 H232 0.949 . S
C234 C233 1.385 . S
H235 C233 0.950 . S
H236 C220 0.951 . S
H237 C222 0.951 . S
H238 C224 0.951 . S
H239 C225 0.950 . S
H240 C226 0.950 . S
H241 C227 0.950 . S
H242 C229 0.950 . S
H243 C230 0.951 . S
C53 C18 0.819 . S
C63 C5 0.865 . S
C77 C8 0.586 . S
C87 C21 0.747 . S
C101 C44 0.685 . S
C111 C31 0.777 . S
C125 C34 0.613 . S
C135 C47 0.548 . S
C149 C10 1.562 . S
C159 C36 1.531 . S
C173 C49 1.552 . S
C183 C23 1.531 . S
C197 C26 1.507 . S
C207 C0 1.559 . S
C221 C13 1.548 . S
C231 C39 1.497 . S
