# Generated by pormake.
# Topology uoc, (4)-cn, num edge types: 1
# Building blocks:
#     Node 0, Type 0, BuildingBlock: CEKHIL_clean_sbu_0, # of connection points: 4
#     Node 1, Type 0, BuildingBlock: CEKHIL_clean_sbu_0, # of connection points: 4
#     Node 2, Type 0, BuildingBlock: CEKHIL_clean_sbu_0, # of connection points: 4
#     Node 3, Type 0, BuildingBlock: CEKHIL_clean_sbu_0, # of connection points: 4
#     Node 4, Type 0, BuildingBlock: CEKHIL_clean_sbu_0, # of connection points: 4
#     Node 5, Type 0, BuildingBlock: CEKHIL_clean_sbu_0, # of connection points: 4
#     Node 6, Type 0, BuildingBlock: CEKHIL_clean_sbu_0, # of connection points: 4
#     Node 7, Type 0, BuildingBlock: CEKHIL_clean_sbu_0, # of connection points: 4
#     Edge 8, Type (0, 0), None
#     Edge 9, Type (0, 0), None
#     Edge 10, Type (0, 0), None
#     Edge 11, Type (0, 0), None
#     Edge 12, Type (0, 0), None
#     Edge 13, Type (0, 0), None
#     Edge 14, Type (0, 0), None
#     Edge 15, Type (0, 0), None
#     Edge 16, Type (0, 0), None
#     Edge 17, Type (0, 0), None
#     Edge 18, Type (0, 0), None
#     Edge 19, Type (0, 0), None
#     Edge 20, Type (0, 0), None
#     Edge 21, Type (0, 0), None
#     Edge 22, Type (0, 0), None
#     Edge 23, Type (0, 0), None
# Relax obj value: 0.098
# Max RMSD: 0.105
# Mean RMSD: 0.105
data_MOF--net-uoc--node1-CEKHIL_clean_sbu_0--edge1-none
_symmetry_space_group_name_H-M    P1
_symmetry_Int_Tables_number       1
_symmetry_cell_setting            triclinic
loop_
_symmetry_equiv_pos_as_xyz
'x, y, z'
_cell_length_a     12.413898
_cell_length_b     12.414366
_cell_length_c     22.868918
_cell_angle_alpha  90.000001
_cell_angle_beta   90.000001
_cell_angle_gamma 92.168655
loop_
_atom_site_label
_atom_site_type_symbol
_atom_site_fract_x
_atom_site_fract_y
_atom_site_fract_z
_atom_type_partial_charge
Co0 Co 0.0943 0.28212 0.11953 0.0
O1 O 0.12442 0.43541 0.11349 0.0
O2 O 0.96495 0.35722 0.1342 0.0
C3 C 0.18029 0.23128 0.03702 0.0
O4 O 0.02215 0.13501 0.12681 0.0
Co5 Co 0.26252 0.10358 0.13044 0.0
O6 O 0.13774 0.00169 0.11798 0.0
C7 C 0.21959 0.24773 0.23111 0.0
C8 C 0.02207 0.44452 0.12464 0.0
C9 C 0.04243 0.03539 0.12197 0.0
O10 O 0.13665 0.28625 0.20556 0.0
O11 O 0.28217 0.18173 0.20645 0.0
O12 O 0.08492 0.27073 0.03405 0.0
O13 O 0.22383 0.23149 0.08813 0.0
Co14 Co 0.78241 0.59403 0.40422 0.0
O15 O 0.9357 0.62414 0.41026 0.0
O16 O 0.85749 0.46467 0.38955 0.0
C17 C 0.73156 0.68001 0.48673 0.0
O18 O 0.63529 0.52187 0.39694 0.0
Co19 Co 0.60386 0.76223 0.39331 0.0
O20 O 0.50196 0.63745 0.40577 0.0
C21 C 0.74801 0.71931 0.29264 0.0
C22 C 0.9448 0.52179 0.39911 0.0
C23 C 0.53567 0.54215 0.40178 0.0
O24 O 0.78653 0.63637 0.31819 0.0
O25 O 0.682 0.78188 0.31729 0.0
O26 O 0.77101 0.58464 0.4897 0.0
O27 O 0.73177 0.72355 0.43562 0.0
Co28 Co 0.39932 0.21094 0.61953 0.0
O29 O 0.3692 0.05765 0.61349 0.0
O30 O 0.52868 0.13585 0.6342 0.0
C31 C 0.31333 0.26178 0.53702 0.0
O32 O 0.47148 0.35805 0.62681 0.0
Co33 Co 0.23111 0.38948 0.63044 0.0
O34 O 0.35588 0.49137 0.61798 0.0
C35 C 0.27403 0.24534 0.73111 0.0
C36 C 0.47155 0.04855 0.62464 0.0
C37 C 0.45119 0.45767 0.62197 0.0
O38 O 0.35697 0.20682 0.70556 0.0
O39 O 0.21146 0.31133 0.70645 0.0
O40 O 0.40871 0.22233 0.53405 0.0
O41 O 0.2698 0.26157 0.58813 0.0
Co42 Co 0.71122 0.89904 0.90422 0.0
O43 O 0.55793 0.86892 0.91026 0.0
O44 O 0.63613 0.02839 0.88955 0.0
C45 C 0.76206 0.81305 0.98673 0.0
O46 O 0.85833 0.97119 0.89694 0.0
Co47 Co 0.88977 0.73083 0.89331 0.0
O48 O 0.99166 0.85561 0.90577 0.0
C49 C 0.74562 0.77376 0.79264 0.0
C50 C 0.54883 0.97127 0.89911 0.0
C51 C 0.95796 0.95091 0.90178 0.0
O52 O 0.7071 0.85669 0.81819 0.0
O53 O 0.81162 0.71118 0.81729 0.0
O54 O 0.72261 0.90842 0.9897 0.0
O55 O 0.76185 0.76952 0.93562 0.0
Co56 Co 0.59431 0.78209 0.61953 0.0
O57 O 0.62443 0.93537 0.6135 0.0
O58 O 0.46495 0.85718 0.6342 0.0
C59 C 0.68031 0.73121 0.53704 0.0
O60 O 0.52215 0.63497 0.62681 0.0
Co61 Co 0.76252 0.60355 0.63047 0.0
O62 O 0.63775 0.50165 0.61799 0.0
C63 C 0.71959 0.74772 0.73112 0.0
C64 C 0.52208 0.94448 0.62463 0.0
C65 C 0.54244 0.53535 0.62197 0.0
O66 O 0.63664 0.78622 0.70557 0.0
O67 O 0.78217 0.68172 0.70647 0.0
O68 O 0.58494 0.77069 0.53405 0.0
O69 O 0.72384 0.73145 0.58815 0.0
Co70 Co 0.28237 0.09404 0.90421 0.0
O71 O 0.43566 0.12415 0.91025 0.0
O72 O 0.35745 0.96468 0.88955 0.0
C73 C 0.23149 0.18003 0.98671 0.0
O74 O 0.13526 0.02188 0.89693 0.0
Co75 Co 0.10382 0.26224 0.89328 0.0
O76 O 0.00193 0.13746 0.90576 0.0
C77 C 0.248 0.21931 0.79262 0.0
C78 C 0.44476 0.0218 0.89911 0.0
C79 C 0.03563 0.04216 0.90178 0.0
O80 O 0.2865 0.13637 0.81818 0.0
O81 O 0.18199 0.28188 0.81728 0.0
O82 O 0.27097 0.08467 0.9897 0.0
O83 O 0.23173 0.22356 0.9356 0.0
Co84 Co 0.89931 0.71098 0.11953 0.0
O85 O 0.86919 0.55769 0.1135 0.0
O86 O 0.02867 0.63589 0.1342 0.0
C87 C 0.81331 0.76185 0.03704 0.0
O88 O 0.97147 0.85809 0.12681 0.0
Co89 Co 0.7311 0.88952 0.13047 0.0
O90 O 0.85587 0.99141 0.11799 0.0
C91 C 0.77403 0.74535 0.23112 0.0
C92 C 0.97154 0.54859 0.12463 0.0
C93 C 0.95118 0.95771 0.12197 0.0
O94 O 0.85698 0.70685 0.20557 0.0
O95 O 0.71145 0.81135 0.20647 0.0
O96 O 0.90868 0.72237 0.03405 0.0
O97 O 0.76978 0.76161 0.08815 0.0
Co98 Co 0.21126 0.39902 0.40421 0.0
O99 O 0.05797 0.36891 0.41025 0.0
O100 O 0.13617 0.52838 0.38955 0.0
C101 C 0.26213 0.31303 0.48671 0.0
O102 O 0.35837 0.47118 0.39693 0.0
Co103 Co 0.3898 0.23083 0.39328 0.0
O104 O 0.4917 0.3556 0.40576 0.0
C105 C 0.24563 0.27375 0.29262 0.0
C106 C 0.04887 0.47126 0.39911 0.0
C107 C 0.45799 0.4509 0.40178 0.0
O108 O 0.20713 0.3567 0.31818 0.0
O109 O 0.31163 0.21118 0.31728 0.0
O110 O 0.22265 0.4084 0.4897 0.0
O111 O 0.26189 0.2695 0.4356 0.0
loop_
_geom_bond_atom_site_label_1
_geom_bond_atom_site_label_2
_geom_bond_distance
_geom_bond_site_symmetry_2
_ccdc_geom_bond_type
Co0 O1 2.216 . S
Co0 O2 2.091 1_455 S
Co0 O4 2.004 . S
Co0 O10 2.021 . S
Co0 O12 2.137 . S
Co0 O13 2.244 . S
O1 Co0 2.216 . S
O1 C8 1.247 . S
O2 Co0 2.091 1_655 S
O2 C8 1.261 1_655 S
C3 O12 1.247 . S
C3 O13 1.272 . S
O4 Co0 2.004 . S
O4 C9 1.259 . S
Co5 O6 2.061 . S
Co5 O11 2.052 . S
Co5 O13 2.135 . S
O6 Co5 2.061 . S
O6 C9 1.235 . S
C7 O10 1.238 . S
C7 O11 1.241 . S
C8 O1 1.247 . S
C8 O2 1.261 1_455 S
C9 O4 1.259 . S
C9 O6 1.235 . S
O10 Co0 2.021 . S
O10 C7 1.238 . S
O11 Co5 2.052 . S
O11 C7 1.241 . S
O12 Co0 2.137 . S
O12 C3 1.247 . S
O13 Co0 2.244 . S
O13 C3 1.272 . S
O13 Co5 2.135 . S
Co14 O15 2.216 . S
Co14 O16 2.091 . S
Co14 O18 2.004 . S
Co14 O24 2.021 . S
Co14 O26 2.137 . S
Co14 O27 2.244 . S
O15 Co14 2.216 . S
O15 C22 1.247 . S
O16 Co14 2.091 . S
O16 C22 1.261 . S
C17 O26 1.247 . S
C17 O27 1.272 . S
O18 Co14 2.004 . S
O18 C23 1.259 . S
Co19 O20 2.061 . S
Co19 O25 2.052 . S
Co19 O27 2.135 . S
O20 Co19 2.061 . S
O20 C23 1.235 . S
C21 O24 1.238 . S
C21 O25 1.241 . S
C22 O15 1.247 . S
C22 O16 1.261 . S
C23 O18 1.259 . S
C23 O20 1.235 . S
O24 Co14 2.021 . S
O24 C21 1.238 . S
O25 Co19 2.052 . S
O25 C21 1.241 . S
O26 Co14 2.137 . S
O26 C17 1.247 . S
O27 Co14 2.244 . S
O27 C17 1.272 . S
O27 Co19 2.135 . S
Co28 O29 2.216 . S
Co28 O30 2.091 . S
Co28 O32 2.004 . S
Co28 O38 2.021 . S
Co28 O40 2.137 . S
Co28 O41 2.244 . S
O29 Co28 2.216 . S
O29 C36 1.247 . S
O30 Co28 2.091 . S
O30 C36 1.261 . S
C31 O40 1.247 . S
C31 O41 1.272 . S
O32 Co28 2.004 . S
O32 C37 1.259 . S
Co33 O34 2.061 . S
Co33 O39 2.052 . S
Co33 O41 2.135 . S
O34 Co33 2.061 . S
O34 C37 1.235 . S
C35 O38 1.238 . S
C35 O39 1.241 . S
C36 O29 1.247 . S
C36 O30 1.261 . S
C37 O32 1.259 . S
C37 O34 1.235 . S
O38 Co28 2.021 . S
O38 C35 1.238 . S
O39 Co33 2.052 . S
O39 C35 1.241 . S
O40 Co28 2.137 . S
O40 C31 1.247 . S
O41 Co28 2.244 . S
O41 C31 1.272 . S
O41 Co33 2.135 . S
Co42 O43 2.216 . S
Co42 O44 2.091 1_565 S
Co42 O46 2.004 . S
Co42 O52 2.021 . S
Co42 O54 2.137 . S
Co42 O55 2.244 . S
O43 Co42 2.216 . S
O43 C50 1.247 . S
O44 Co42 2.091 1_545 S
O44 C50 1.261 1_545 S
C45 O54 1.247 . S
C45 O55 1.272 . S
O46 Co42 2.004 . S
O46 C51 1.259 . S
Co47 O48 2.061 . S
Co47 O53 2.052 . S
Co47 O55 2.135 . S
O48 Co47 2.061 . S
O48 C51 1.235 . S
C49 O52 1.238 . S
C49 O53 1.241 . S
C50 O43 1.247 . S
C50 O44 1.261 1_565 S
C51 O46 1.259 . S
C51 O48 1.235 . S
O52 Co42 2.021 . S
O52 C49 1.238 . S
O53 Co47 2.052 . S
O53 C49 1.241 . S
O54 Co42 2.137 . S
O54 C45 1.247 . S
O55 Co42 2.244 . S
O55 C45 1.272 . S
O55 Co47 2.135 . S
Co56 O57 2.216 . S
Co56 O58 2.091 . S
Co56 O60 2.004 . S
Co56 O66 2.021 . S
Co56 O68 2.137 . S
Co56 O69 2.244 . S
O57 Co56 2.216 . S
O57 C64 1.247 . S
O58 Co56 2.091 . S
O58 C64 1.261 . S
C59 O68 1.247 . S
C59 O69 1.272 . S
O60 Co56 2.004 . S
O60 C65 1.259 . S
Co61 O62 2.061 . S
Co61 O67 2.052 . S
Co61 O69 2.135 . S
O62 Co61 2.061 . S
O62 C65 1.235 . S
C63 O66 1.238 . S
C63 O67 1.241 . S
C64 O57 1.247 . S
C64 O58 1.261 . S
C65 O60 1.259 . S
C65 O62 1.235 . S
O66 Co56 2.021 . S
O66 C63 1.238 . S
O67 Co61 2.052 . S
O67 C63 1.241 . S
O68 Co56 2.137 . S
O68 C59 1.247 . S
O69 Co56 2.244 . S
O69 C59 1.272 . S
O69 Co61 2.135 . S
Co70 O71 2.216 . S
Co70 O72 2.091 1_545 S
Co70 O74 2.004 . S
Co70 O80 2.021 . S
Co70 O82 2.137 . S
Co70 O83 2.244 . S
O71 Co70 2.216 . S
O71 C78 1.247 . S
O72 Co70 2.091 1_565 S
O72 C78 1.261 1_565 S
C73 O82 1.247 . S
C73 O83 1.272 . S
O74 Co70 2.004 . S
O74 C79 1.259 . S
Co75 O76 2.061 . S
Co75 O81 2.052 . S
Co75 O83 2.135 . S
O76 Co75 2.061 . S
O76 C79 1.235 . S
C77 O80 1.238 . S
C77 O81 1.241 . S
C78 O71 1.247 . S
C78 O72 1.261 1_545 S
C79 O74 1.259 . S
C79 O76 1.235 . S
O80 Co70 2.021 . S
O80 C77 1.238 . S
O81 Co75 2.052 . S
O81 C77 1.241 . S
O82 Co70 2.137 . S
O82 C73 1.247 . S
O83 Co70 2.244 . S
O83 C73 1.272 . S
O83 Co75 2.135 . S
Co84 O85 2.216 . S
Co84 O86 2.091 1_655 S
Co84 O88 2.004 . S
Co84 O94 2.021 . S
Co84 O96 2.137 . S
Co84 O97 2.244 . S
O85 Co84 2.216 . S
O85 C92 1.247 . S
O86 Co84 2.091 1_455 S
O86 C92 1.261 1_455 S
C87 O96 1.247 . S
C87 O97 1.272 . S
O88 Co84 2.004 . S
O88 C93 1.259 . S
Co89 O90 2.061 . S
Co89 O95 2.052 . S
Co89 O97 2.135 . S
O90 Co89 2.061 . S
O90 C93 1.235 . S
C91 O94 1.238 . S
C91 O95 1.241 . S
C92 O85 1.247 . S
C92 O86 1.261 1_655 S
C93 O88 1.259 . S
C93 O90 1.235 . S
O94 Co84 2.021 . S
O94 C91 1.238 . S
O95 Co89 2.052 . S
O95 C91 1.241 . S
O96 Co84 2.137 . S
O96 C87 1.247 . S
O97 Co84 2.244 . S
O97 C87 1.272 . S
O97 Co89 2.135 . S
Co98 O99 2.216 . S
Co98 O100 2.091 . S
Co98 O102 2.004 . S
Co98 O108 2.021 . S
Co98 O110 2.137 . S
Co98 O111 2.244 . S
O99 Co98 2.216 . S
O99 C106 1.247 . S
O100 Co98 2.091 . S
O100 C106 1.261 . S
C101 O110 1.247 . S
C101 O111 1.272 . S
O102 Co98 2.004 . S
O102 C107 1.259 . S
Co103 O104 2.061 . S
Co103 O109 2.052 . S
Co103 O111 2.135 . S
O104 Co103 2.061 . S
O104 C107 1.235 . S
C105 O108 1.238 . S
C105 O109 1.241 . S
C106 O99 1.247 . S
C106 O100 1.261 . S
C107 O102 1.259 . S
C107 O104 1.235 . S
O108 Co98 2.021 . S
O108 C105 1.238 . S
O109 Co103 2.052 . S
O109 C105 1.241 . S
O110 Co98 2.137 . S
O110 C101 1.247 . S
O111 Co98 2.244 . S
O111 C101 1.272 . S
O111 Co103 2.135 . S
C3 C73 1.320 1_554 S
C21 C91 1.407 . S
C31 C101 1.320 . S
C49 C63 1.407 . S
C105 C7 1.407 . S
C59 C17 1.320 . S
C35 C77 1.407 . S
C87 C45 1.320 1_554 S
C9 C93 1.853 1_445 S
C106 C22 1.659 1_455 S
C37 C65 1.853 . S
C50 C78 1.659 1_565 S
C92 C8 1.659 1_655 S
C107 C23 1.853 . S
C36 C64 1.659 1_545 S
C51 C79 1.853 1_665 S
