# Generated by pormake.
# Topology bcu, (8)-cn, num edge types: 1
# Building blocks:
#     Node 0, Type 0, BuildingBlock: AJUNOK_clean_sbu_0, # of connection points: 8
#     Node 1, Type 0, BuildingBlock: AJUNOK_clean_sbu_0, # of connection points: 8
#     Edge 2, Type (0, 0), BuildingBlock: OJICUG_clean_linker_0, # of connection points: 2
#     Edge 3, Type (0, 0), BuildingBlock: OJICUG_clean_linker_0, # of connection points: 2
#     Edge 4, Type (0, 0), BuildingBlock: OJICUG_clean_linker_0, # of connection points: 2
#     Edge 5, Type (0, 0), BuildingBlock: OJICUG_clean_linker_0, # of connection points: 2
#     Edge 6, Type (0, 0), BuildingBlock: OJICUG_clean_linker_0, # of connection points: 2
#     Edge 7, Type (0, 0), BuildingBlock: OJICUG_clean_linker_0, # of connection points: 2
#     Edge 8, Type (0, 0), BuildingBlock: OJICUG_clean_linker_0, # of connection points: 2
#     Edge 9, Type (0, 0), BuildingBlock: OJICUG_clean_linker_0, # of connection points: 2
# Relax obj value: 0.049
# Max RMSD: 0.161
# Mean RMSD: 0.161
data_MOF--net-bcu--node1-AJUNOK_clean_sbu_0--edge1-OJICUG_clean_linker_0
_symmetry_space_group_name_H-M    P1
_symmetry_Int_Tables_number       1
_symmetry_cell_setting            triclinic
loop_
_symmetry_equiv_pos_as_xyz
'x, y, z'
_cell_length_a     18.860918
_cell_length_b     18.903366
_cell_length_c     13.547375
_cell_angle_alpha  106.48354
_cell_angle_beta   104.82886
_cell_angle_gamma 110.36439
loop_
_atom_site_label
_atom_site_type_symbol
_atom_site_fract_x
_atom_site_fract_y
_atom_site_fract_z
_atom_type_partial_charge
Cd0 Cd 0.95382 0.90897 0.11929 0.0
Cd1 Cd 0.02116 0.05227 0.91739 0.0
C2 C 0.14095 0.92871 0.20686 0.0
N3 N 0.0653 0.87897 0.12219 0.0
C4 C 0.10693 0.77432 0.05889 0.0
C5 C 0.18413 0.82243 0.149 0.0
C6 C 0.2017 0.90197 0.22104 0.0
C7 C 0.04831 0.80384 0.04727 0.0
H8 H 0.15358 -0.01234 0.26692 0.0
H9 H -0.01242 0.76434 0.98229 0.0
C10 C 0.89063 0.87994 0.82647 0.0
C11 C 0.96055 0.19068 0.9414 0.0
C12 C 0.90845 0.22743 0.92772 0.0
C13 C 0.82325 0.17955 0.89111 0.0
C14 C 0.79316 0.0957 0.87318 0.0
C15 C 0.84767 0.06125 0.88709 0.0
N16 N 0.92955 0.10884 0.91973 0.0
H17 H 0.02553 0.22689 0.96458 0.0
H18 H 0.82415 -0.00406 0.8674 0.0
C19 C 0.07232 0.91941 0.79391 0.0
N20 N 0.09283 0.97376 0.89909 0.0
C21 C 0.19839 0.93821 0.97382 0.0
C22 C 0.17608 0.87925 0.86647 0.0
C23 C 0.11256 0.87075 0.77585 0.0
C24 C 0.1553 -0.01509 0.98845 0.0
H25 H 0.02505 0.91424 0.72341 0.0
H26 H 0.17188 0.0303 0.07079 0.0
C27 C 0.06978 0.08524 0.20279 0.0
C28 C 0.87316 0.77848 0.17126 0.0
N29 N 0.86768 0.97094 0.14502 0.0
C30 C 0.88239 0.0196 0.25087 0.0
C31 C 0.83382 0.05915 0.26932 0.0
C32 C 0.76853 0.0478 0.17813 0.0
C33 C 0.75313 -0.00501 0.06994 0.0
C34 C 0.80342 0.95655 0.05538 0.0
C35 C 0.11884 0.1651 0.85596 0.0
O36 O 0.93033 0.91214 0.93184 0.0
O37 O 0.90801 0.92456 0.77365 0.0
O38 O 0.02972 0.04685 0.09803 0.0
O39 O 0.0545 0.04595 0.26249 0.0
O40 O 0.84951 0.77296 0.07163 0.0
O41 O 0.93432 0.84518 0.24589 0.0
O42 O 0.14095 0.17497 0.95783 0.0
O43 O 0.05184 0.10267 0.78508 0.0
H44 H 0.93231 0.02824 0.32132 0.0
H45 H 0.79124 0.91521 0.97254 0.0
H46 H 0.08965 0.71221 1.00187 0.0
H47 H 0.26081 0.94219 0.29035 0.0
H48 H 0.93451 0.29173 0.94027 0.0
H49 H 0.72803 0.05658 0.84582 0.0
H50 H 0.24776 0.94733 0.04559 0.0
H51 H 0.09515 0.82799 0.69116 0.0
H52 H 0.8485 0.09959 0.35412 0.0
H53 H 0.70254 -0.01691 0.99737 0.0
Cd54 Cd 0.43757 0.46395 0.63921 0.0
Cd55 Cd 0.52775 0.48708 0.35301 0.0
C56 C 0.56014 0.42669 0.80176 0.0
N57 N 0.52098 0.40425 0.69053 0.0
C58 C 0.57576 0.30891 0.64442 0.0
C59 C 0.61621 0.32995 0.75904 0.0
C60 C 0.60789 0.38989 0.83803 0.0
C61 C 0.5277 0.34669 0.61186 0.0
H62 H 0.55343 0.47265 0.86236 0.0
H63 H 0.49544 0.33 0.52398 0.0
C64 C 0.36225 0.37541 0.33949 0.0
C65 C 0.42245 0.58834 0.37127 0.0
C66 C 0.38102 0.63358 0.34642 0.0
C67 C 0.3782 0.65302 0.25291 0.0
C68 C 0.41676 0.62453 0.18579 0.0
C69 C 0.45628 0.5782 0.21276 0.0
N70 N 0.45868 0.56141 0.30445 0.0
H71 H 0.42573 0.57452 0.44395 0.0
H72 H 0.48548 0.55622 0.16063 0.0
C73 C 0.51318 0.31017 0.2131 0.0
N74 N 0.54763 0.36899 0.31965 0.0
C75 C 0.63101 0.3067 0.38028 0.0
C76 C 0.59945 0.24725 0.26986 0.0
C77 C 0.53816 0.24826 0.18627 0.0
C78 C 0.6046 0.36778 0.40319 0.0
H79 H 0.46944 0.3139 0.14779 0.0
H80 H 0.63259 0.41677 0.48645 0.0
C81 C 0.60032 0.58167 0.65301 0.0
C82 C 0.32432 0.37664 0.71011 0.0
N83 N 0.40608 0.57362 0.68551 0.0
C84 C 0.43939 0.62814 0.79455 0.0
C85 C 0.40791 0.68319 0.82936 0.0
C86 C 0.34113 0.68119 0.75109 0.0
C87 C 0.31065 0.62663 0.63807 0.0
C88 C 0.34381 0.5726 0.6071 0.0
C89 C 0.65655 0.56077 0.29419 0.0
O90 O 0.41153 0.42365 0.43951 0.0
O91 O 0.38555 0.38263 0.26147 0.0
O92 O 0.55379 0.53252 0.5523 0.0
O93 O 0.57433 0.57434 0.72869 0.0
O94 O 0.30809 0.35779 0.60637 0.0
O95 O 0.39294 0.43729 0.77966 0.0
O96 O 0.66474 0.58417 0.39592 0.0
O97 O 0.58798 0.502 0.22048 0.0
H98 H 0.48724 0.62562 0.85556 0.0
H99 H 0.31719 0.52694 0.52167 0.0
H100 H 0.5815 0.26419 0.5805 0.0
H101 H 0.63674 0.4073 0.92701 0.0
H102 H 0.35087 0.65221 0.3996 0.0
H103 H 0.41749 0.63862 0.11388 0.0
H104 H 0.67911 0.30905 0.44708 0.0
H105 H 0.51173 0.2033 0.10033 0.0
H106 H 0.43253 0.72354 0.91737 0.0
H107 H 0.25989 0.62385 0.57482 0.0
C108 C 0.20873 0.18917 0.34418 0.0
C109 C 0.13965 0.16667 0.24999 0.0
H110 H 0.33572 0.27346 0.44408 0.0
C111 C 0.14156 0.21813 0.19303 0.0
H112 H 0.20852 0.14986 0.38891 0.0
C113 C 0.21383 0.2886 0.22465 0.0
C114 C 0.28404 0.30853 0.3149 0.0
H115 H 0.088 0.20198 0.12167 0.0
H116 H 0.21555 0.32618 0.1771 0.0
C117 C 0.28104 0.25963 0.37585 0.0
C118 C 0.69772 0.10445 0.29023 0.0
C119 C 0.71863 0.09269 0.19629 0.0
H120 H 0.64261 0.1611 0.38617 0.0
C121 C 0.695 0.12772 0.12289 0.0
H122 H 0.71356 0.07709 0.34739 0.0
C123 C 0.65392 0.17549 0.14487 0.0
C124 C 0.63552 0.18954 0.24087 0.0
H125 H 0.71101 0.12097 0.05063 0.0
H126 H 0.63959 0.20421 0.08891 0.0
C127 C 0.65686 0.15242 0.31238 0.0
C128 C 0.75684 0.64229 0.11793 0.0
C129 C 0.82673 0.71379 0.20101 0.0
H130 H 0.64789 0.53647 0.08297 0.0
C131 C 0.84687 0.72712 0.31405 0.0
H132 H 0.74059 0.63006 0.02999 0.0
C133 C 0.79382 0.67367 0.34434 0.0
C134 C 0.72028 0.60616 0.26183 0.0
H135 H 0.90106 0.78133 0.37965 0.0
H136 H 0.80823 0.6879 0.43254 0.0
C137 C 0.70393 0.58865 0.14823 0.0
C138 C 0.24703 0.72837 0.08854 0.0
C139 C 0.24164 0.78621 0.17463 0.0
H140 H 0.29198 0.63965 0.04472 0.0
C141 C 0.28645 0.80397 0.28643 0.0
H142 H 0.21469 0.71411 1.00148 0.0
C143 C 0.33279 0.76299 0.31144 0.0
C144 C 0.33464 0.70184 0.22551 0.0
H145 H 0.28341 0.84728 0.35534 0.0
H146 H 0.36617 0.77862 0.39868 0.0
C147 C 0.29245 0.6863 0.11358 0.0
C148 C 0.30537 0.86223 0.89507 0.0
C149 C 0.21905 0.82749 0.84667 0.0
H150 H 0.41205 0.84353 0.90146 0.0
C151 C 0.17359 0.74341 0.77275 0.0
H152 H 0.34204 0.92694 0.95208 0.0
C153 C 0.21342 0.69606 0.74347 0.0
C154 C 0.29977 0.73152 0.78753 0.0
H155 H 0.10693 0.71435 0.73633 0.0
H156 H 0.17642 0.63151 0.68582 0.0
C157 C 0.34541 0.8146 0.86577 0.0
C158 C 0.29132 0.34485 0.86318 0.0
C159 C 0.2684 0.32705 0.74847 0.0
H160 H 0.26147 0.30675 0.98752 0.0
C161 C 0.19413 0.25845 0.6703 0.0
H162 H 0.3484 0.39765 0.92517 0.0
C163 C 0.14461 0.20671 0.70597 0.0
C164 C 0.16885 0.22277 0.82021 0.0
H165 H 0.17512 0.24357 0.58141 0.0
H166 H 0.08825 0.15318 0.64365 0.0
C167 C 0.24184 0.29286 0.89886 0.0
C168 C 0.69252 0.1695 0.76724 0.0
C169 C 0.76645 0.21576 0.86321 0.0
H170 H 0.58669 0.16856 0.6601 0.0
C171 C 0.78868 0.29883 0.92716 0.0
H172 H 0.67387 0.10566 0.71514 0.0
C173 C 0.73986 0.33562 0.89376 0.0
C174 C 0.66691 0.28997 0.79626 0.0
H175 H 0.84465 0.33602 1.00235 0.0
H176 H 0.76059 0.40054 0.9431 0.0
C177 C 0.64322 0.20608 0.73441 0.0
C178 C 0.74533 0.66871 0.77851 0.0
C179 C 0.67936 0.64902 0.6826 0.0
H180 H 0.86648 0.75745 0.8957 0.0
C181 C 0.68642 0.70061 0.62541 0.0
H182 H 0.74062 0.62878 0.82282 0.0
C183 C 0.75772 0.77491 0.66899 0.0
C184 C 0.82154 0.79735 0.76985 0.0
H185 H 0.63506 0.68624 0.55181 0.0
H186 H 0.76089 0.81658 0.62758 0.0
C187 C 0.81646 0.7422 0.82092 0.0
loop_
_geom_bond_atom_site_label_1
_geom_bond_atom_site_label_2
_geom_bond_distance
_geom_bond_site_symmetry_2
_ccdc_geom_bond_type
Cd0 N3 2.334 1_655 S
Cd0 N29 2.304 1_565 S
Cd0 O36 2.268 1_554 S
Cd0 O39 2.273 1_665 S
Cd0 O40 2.417 . S
Cd0 O41 2.330 . S
Cd1 N16 2.304 1_455 S
Cd1 N20 2.334 1_545 S
Cd1 O37 2.273 1_445 S
Cd1 O38 2.268 1_556 S
Cd1 O42 2.417 . S
Cd1 O43 2.330 . S
C2 N3 1.332 . S
C2 C6 1.381 . S
C2 H8 0.931 . S
N3 Cd0 2.334 1_455 S
N3 C2 1.332 . S
N3 C7 1.328 . S
C4 C5 1.396 . S
C4 C7 1.378 . S
C4 H46 0.931 1_554 S
C5 C4 1.396 . S
C5 C6 1.382 . S
C6 C2 1.381 . S
C6 C5 1.382 . S
C6 H47 0.930 . S
C7 N3 1.328 . S
C7 C4 1.378 . S
C7 H9 0.930 1_454 S
H8 C2 0.931 . S
H9 C7 0.930 1_656 S
C10 O36 1.238 . S
C10 O37 1.253 . S
C11 C12 1.379 . S
C11 N16 1.337 . S
C11 H17 0.929 . S
C12 C11 1.379 . S
C12 C13 1.380 . S
C12 H48 0.929 . S
C13 C12 1.380 . S
C13 C14 1.399 . S
C14 C13 1.399 . S
C14 C15 1.376 . S
C14 H49 0.931 1_556 S
C15 C14 1.376 . S
C15 N16 1.338 . S
C15 H18 0.930 1_656 S
N16 Cd1 2.304 1_655 S
N16 C11 1.337 . S
N16 C15 1.338 . S
H17 C11 0.929 . S
H18 C15 0.930 1_454 S
C19 N20 1.332 . S
C19 C23 1.381 . S
C19 H25 0.931 . S
N20 Cd1 2.334 1_565 S
N20 C19 1.332 . S
N20 C24 1.328 . S
C21 C22 1.396 . S
C21 C24 1.378 . S
C21 H50 0.931 1_556 S
C22 C21 1.396 . S
C22 C23 1.382 . S
C23 C19 1.381 . S
C23 C22 1.382 . S
C23 H51 0.930 . S
C24 N20 1.328 . S
C24 C21 1.378 . S
C24 H26 0.930 1_566 S
H25 C19 0.931 . S
H26 C24 0.930 1_544 S
C27 O38 1.238 . S
C27 O39 1.253 . S
C28 O40 1.239 . S
C28 O41 1.230 . S
N29 Cd0 2.304 1_545 S
N29 C30 1.337 . S
N29 C34 1.338 . S
C30 N29 1.337 . S
C30 C31 1.379 . S
C30 H44 0.929 . S
C31 C30 1.379 . S
C31 C32 1.380 . S
C31 H52 0.929 . S
C32 C31 1.380 . S
C32 C33 1.399 . S
C33 C32 1.399 . S
C33 C34 1.376 . S
C33 H53 0.931 1_554 S
C34 N29 1.338 . S
C34 C33 1.376 . S
C34 H45 0.930 1_544 S
C35 O42 1.239 . S
C35 O43 1.230 . S
O36 Cd0 2.268 1_556 S
O36 C10 1.238 . S
O37 Cd1 2.273 1_665 S
O37 C10 1.253 . S
O38 Cd1 2.268 1_554 S
O38 C27 1.238 . S
O39 Cd0 2.273 1_445 S
O39 C27 1.253 . S
O40 Cd0 2.417 . S
O40 C28 1.239 . S
O41 Cd0 2.330 . S
O41 C28 1.230 . S
O42 Cd1 2.417 . S
O42 C35 1.239 . S
O43 Cd1 2.330 . S
O43 C35 1.230 . S
H44 C30 0.929 . S
H45 C34 0.930 1_566 S
H46 C4 0.931 1_556 S
H47 C6 0.930 . S
H48 C12 0.929 . S
H49 C14 0.931 1_554 S
H50 C21 0.931 1_554 S
H51 C23 0.930 . S
H52 C31 0.929 . S
H53 C33 0.931 1_556 S
Cd54 N57 2.334 . S
Cd54 N83 2.304 . S
Cd54 O90 2.268 . S
Cd54 O93 2.273 . S
Cd54 O94 2.417 . S
Cd54 O95 2.330 . S
Cd55 N70 2.304 . S
Cd55 N74 2.334 . S
Cd55 O91 2.273 . S
Cd55 O92 2.268 . S
Cd55 O96 2.417 . S
Cd55 O97 2.330 . S
C56 N57 1.332 . S
C56 C60 1.381 . S
C56 H62 0.931 . S
N57 Cd54 2.334 . S
N57 C56 1.332 . S
N57 C61 1.328 . S
C58 C59 1.396 . S
C58 C61 1.378 . S
C58 H100 0.931 . S
C59 C58 1.396 . S
C59 C60 1.382 . S
C60 C56 1.381 . S
C60 C59 1.382 . S
C60 H101 0.930 . S
C61 N57 1.328 . S
C61 C58 1.378 . S
C61 H63 0.930 . S
H62 C56 0.931 . S
H63 C61 0.930 . S
C64 O90 1.238 . S
C64 O91 1.253 . S
C65 C66 1.379 . S
C65 N70 1.337 . S
C65 H71 0.929 . S
C66 C65 1.379 . S
C66 C67 1.380 . S
C66 H102 0.929 . S
C67 C66 1.380 . S
C67 C68 1.399 . S
C68 C67 1.399 . S
C68 C69 1.376 . S
C68 H103 0.931 . S
C69 C68 1.376 . S
C69 N70 1.338 . S
C69 H72 0.930 . S
N70 Cd55 2.304 . S
N70 C65 1.337 . S
N70 C69 1.338 . S
H71 C65 0.929 . S
H72 C69 0.930 . S
C73 N74 1.332 . S
C73 C77 1.381 . S
C73 H79 0.931 . S
N74 Cd55 2.334 . S
N74 C73 1.332 . S
N74 C78 1.328 . S
C75 C76 1.396 . S
C75 C78 1.378 . S
C75 H104 0.931 . S
C76 C75 1.396 . S
C76 C77 1.382 . S
C77 C73 1.381 . S
C77 C76 1.382 . S
C77 H105 0.930 . S
C78 N74 1.328 . S
C78 C75 1.378 . S
C78 H80 0.930 . S
H79 C73 0.931 . S
H80 C78 0.930 . S
C81 O92 1.238 . S
C81 O93 1.253 . S
C82 O94 1.239 . S
C82 O95 1.230 . S
N83 Cd54 2.304 . S
N83 C84 1.337 . S
N83 C88 1.338 . S
C84 N83 1.337 . S
C84 C85 1.379 . S
C84 H98 0.929 . S
C85 C84 1.379 . S
C85 C86 1.380 . S
C85 H106 0.929 . S
C86 C85 1.380 . S
C86 C87 1.399 . S
C87 C86 1.399 . S
C87 C88 1.376 . S
C87 H107 0.931 . S
C88 N83 1.338 . S
C88 C87 1.376 . S
C88 H99 0.930 . S
C89 O96 1.239 . S
C89 O97 1.230 . S
O90 Cd54 2.268 . S
O90 C64 1.238 . S
O91 Cd55 2.273 . S
O91 C64 1.253 . S
O92 Cd55 2.268 . S
O92 C81 1.238 . S
O93 Cd54 2.273 . S
O93 C81 1.253 . S
O94 Cd54 2.417 . S
O94 C82 1.239 . S
O95 Cd54 2.330 . S
O95 C82 1.230 . S
O96 Cd55 2.417 . S
O96 C89 1.239 . S
O97 Cd55 2.330 . S
O97 C89 1.230 . S
H98 C84 0.929 . S
H99 C88 0.930 . S
H100 C58 0.931 . S
H101 C60 0.930 . S
H102 C66 0.929 . S
H103 C68 0.931 . S
H104 C75 0.931 . S
H105 C77 0.930 . S
H106 C85 0.929 . S
H107 C87 0.931 . S
C108 C109 1.387 . S
C108 H112 0.950 . S
C108 C117 1.390 . S
C109 C108 1.387 . S
C109 C111 1.387 . S
H110 C117 0.950 . S
C111 C109 1.387 . S
C111 C113 1.390 . S
C111 H115 0.950 . S
H112 C108 0.950 . S
C113 C111 1.390 . S
C113 C114 1.387 . S
C113 H116 0.950 . S
C114 C113 1.387 . S
C114 C117 1.387 . S
H115 C111 0.950 . S
H116 C113 0.950 . S
C117 C108 1.390 . S
C117 H110 0.950 . S
C117 C114 1.387 . S
C118 C119 1.387 . S
C118 H122 0.950 . S
C118 C127 1.390 . S
C119 C118 1.387 . S
C119 C121 1.387 . S
H120 C127 0.950 . S
C121 C119 1.387 . S
C121 C123 1.390 . S
C121 H125 0.950 . S
H122 C118 0.950 . S
C123 C121 1.390 . S
C123 C124 1.387 . S
C123 H126 0.950 . S
C124 C123 1.387 . S
C124 C127 1.387 . S
H125 C121 0.950 . S
H126 C123 0.950 . S
C127 C118 1.390 . S
C127 H120 0.950 . S
C127 C124 1.387 . S
C128 C129 1.387 . S
C128 H132 0.950 . S
C128 C137 1.390 . S
C129 C128 1.387 . S
C129 C131 1.387 . S
H130 C137 0.950 . S
C131 C129 1.387 . S
C131 C133 1.390 . S
C131 H135 0.950 . S
H132 C128 0.950 . S
C133 C131 1.390 . S
C133 C134 1.387 . S
C133 H136 0.950 . S
C134 C133 1.387 . S
C134 C137 1.387 . S
H135 C131 0.950 . S
H136 C133 0.950 . S
C137 C128 1.390 . S
C137 H130 0.950 . S
C137 C134 1.387 . S
C138 C139 1.387 . S
C138 H142 0.950 . S
C138 C147 1.390 . S
C139 C138 1.387 . S
C139 C141 1.387 . S
H140 C147 0.950 . S
C141 C139 1.387 . S
C141 C143 1.390 . S
C141 H145 0.950 . S
H142 C138 0.950 . S
C143 C141 1.390 . S
C143 C144 1.387 . S
C143 H146 0.950 . S
C144 C143 1.387 . S
C144 C147 1.387 . S
H145 C141 0.950 . S
H146 C143 0.950 . S
C147 C138 1.390 . S
C147 H140 0.950 . S
C147 C144 1.387 . S
C148 C149 1.387 . S
C148 H152 0.950 . S
C148 C157 1.390 . S
C149 C148 1.387 . S
C149 C151 1.387 . S
H150 C157 0.950 . S
C151 C149 1.387 . S
C151 C153 1.390 . S
C151 H155 0.950 . S
H152 C148 0.950 . S
C153 C151 1.390 . S
C153 C154 1.387 . S
C153 H156 0.950 . S
C154 C153 1.387 . S
C154 C157 1.387 . S
H155 C151 0.950 . S
H156 C153 0.950 . S
C157 C148 1.390 . S
C157 H150 0.950 . S
C157 C154 1.387 . S
C158 C159 1.387 . S
C158 H162 0.950 . S
C158 C167 1.390 . S
C159 C158 1.387 . S
C159 C161 1.387 . S
H160 C167 0.950 . S
C161 C159 1.387 . S
C161 C163 1.390 . S
C161 H165 0.950 . S
H162 C158 0.950 . S
C163 C161 1.390 . S
C163 C164 1.387 . S
C163 H166 0.950 . S
C164 C163 1.387 . S
C164 C167 1.387 . S
H165 C161 0.950 . S
H166 C163 0.950 . S
C167 C158 1.390 . S
C167 H160 0.950 . S
C167 C164 1.387 . S
C168 C169 1.387 . S
C168 H172 0.950 . S
C168 C177 1.390 . S
C169 C168 1.387 . S
C169 C171 1.387 . S
H170 C177 0.950 . S
C171 C169 1.387 . S
C171 C173 1.390 . S
C171 H175 0.950 . S
H172 C168 0.950 . S
C173 C171 1.390 . S
C173 C174 1.387 . S
C173 H176 0.950 . S
C174 C173 1.387 . S
C174 C177 1.387 . S
H175 C171 0.950 . S
H176 C173 0.950 . S
C177 C168 1.390 . S
C177 H170 0.950 . S
C177 C174 1.387 . S
C178 C179 1.387 . S
C178 H182 0.950 . S
C178 C187 1.390 . S
C179 C178 1.387 . S
C179 C181 1.387 . S
H180 C187 0.950 . S
C181 C179 1.387 . S
C181 C183 1.390 . S
C181 H185 0.950 . S
H182 C178 0.950 . S
C183 C181 1.390 . S
C183 C184 1.387 . S
C183 H186 0.950 . S
C184 C183 1.387 . S
C184 C187 1.387 . S
H185 C181 0.950 . S
H186 C183 0.950 . S
C187 C178 1.390 . S
C187 H180 0.950 . S
C187 C184 1.387 . S
C109 C27 0.805 . S
C114 C64 0.803 . S
C119 C32 1.877 . S
C124 C76 1.872 . S
C129 C28 1.430 . S
C134 C89 1.431 . S
C139 C5 1.871 . S
C144 C67 1.875 . S
C149 C22 1.870 . S
C154 C86 1.875 . S
C159 C82 1.430 . S
C164 C35 1.429 . S
C169 C13 1.875 . S
C174 C59 1.871 . S
C179 C81 0.805 . S
C184 C10 0.807 . S
