# Generated by pormake.
# Topology smu, (6)-cn, num edge types: 1
# Building blocks:
#     Node 0, Type 0, BuildingBlock: JUFBIX_clean_sbu_0, # of connection points: 6
#     Node 1, Type 0, BuildingBlock: JUFBIX_clean_sbu_0, # of connection points: 6
#     Node 2, Type 0, BuildingBlock: JUFBIX_clean_sbu_0, # of connection points: 6
#     Node 3, Type 0, BuildingBlock: JUFBIX_clean_sbu_0, # of connection points: 6
#     Node 4, Type 0, BuildingBlock: JUFBIX_clean_sbu_0, # of connection points: 6
#     Node 5, Type 0, BuildingBlock: JUFBIX_clean_sbu_0, # of connection points: 6
#     Edge 6, Type (0, 0), None
#     Edge 7, Type (0, 0), None
#     Edge 8, Type (0, 0), None
#     Edge 9, Type (0, 0), None
#     Edge 10, Type (0, 0), None
#     Edge 11, Type (0, 0), None
#     Edge 12, Type (0, 0), None
#     Edge 13, Type (0, 0), None
#     Edge 14, Type (0, 0), None
#     Edge 15, Type (0, 0), None
#     Edge 16, Type (0, 0), None
#     Edge 17, Type (0, 0), None
#     Edge 18, Type (0, 0), None
#     Edge 19, Type (0, 0), None
#     Edge 20, Type (0, 0), None
#     Edge 21, Type (0, 0), None
#     Edge 22, Type (0, 0), None
#     Edge 23, Type (0, 0), None
# Relax obj value: 0.490
# Max RMSD: 0.331
# Mean RMSD: 0.330
data_MOF--net-smu--node1-JUFBIX_clean_sbu_0--edge1-none
_symmetry_space_group_name_H-M    P1
_symmetry_Int_Tables_number       1
_symmetry_cell_setting            triclinic
loop_
_symmetry_equiv_pos_as_xyz
'x, y, z'
_cell_length_a     16.172372
_cell_length_b     15.759861
_cell_length_c     12.524855
_cell_angle_alpha  90.319974
_cell_angle_beta   91.160314
_cell_angle_gamma 119.34109
loop_
_atom_site_label
_atom_site_type_symbol
_atom_site_fract_x
_atom_site_fract_y
_atom_site_fract_z
_atom_type_partial_charge
Co0 Co 0.31828 0.96837 0.25448 0.0
C1 C 0.37682 1.03531 0.07112 0.0
Co2 Co 0.46006 0.2185 0.24607 0.0
C3 C 0.12285 0.90219 0.30271 0.0
C4 C 0.14553 0.90966 0.13565 0.0
N5 N 0.18559 0.9056 0.23056 0.0
N6 N 1.05013 0.91035 0.25789 0.0
C7 C 0.06415 0.91398 0.15242 0.0
H8 H 0.13117 0.89671 0.38796 0.0
H9 H 0.17593 0.91637 0.05815 0.0
C10 C 0.35473 0.0507 0.44069 0.0
N11 N 0.51112 0.33202 0.33104 0.0
C12 C 0.57437 0.41179 0.27976 0.0
C13 C 0.46659 0.36646 0.39441 0.0
N14 N 0.5709 0.4939 0.30532 0.0
C15 C 0.50362 0.4661 0.37917 0.0
C16 C 0.28605 0.15748 0.23532 0.0
O17 O 0.30615 0.97186 0.39116 0.0
O18 O 0.40619 0.13272 0.39065 0.0
O19 O 0.3615 0.23505 0.22839 0.0
O20 O 0.28805 0.07784 0.24302 0.0
O21 O 0.41486 0.11703 0.12295 0.0
H22 H 0.404 0.32088 0.43905 0.0
H23 H 0.61679 0.40761 0.2162 0.0
O24 O 0.33231 0.95771 0.11873 0.0
O25 O 0.46925 1.04103 0.27655 0.0
O26 O 0.5606 0.20344 0.26224 0.0
C27 C 0.55219 0.11993 0.27579 0.0
H28 H 1.01528 0.91241 0.09092 0.0
H29 H 0.48231 0.51341 0.41853 0.0
Co30 Co 0.82247 0.69183 0.28345 0.0
C31 C 0.79315 0.76391 0.08038 0.0
Co32 Co 0.76436 0.7838 0.28124 0.0
C33 C 0.89863 0.55376 0.32158 0.0
C34 C 0.97475 0.66366 0.20977 0.0
N35 N 0.89479 0.62593 0.26748 0.0
N36 N 0.97758 0.54611 0.3006 0.0
C37 C 1.02618 0.61689 0.23125 0.0
H38 H 0.84319 0.50563 0.37404 0.0
H39 H 0.99461 0.72143 0.15368 0.0
C40 C 0.76586 0.70838 0.47702 0.0
N41 N 0.73715 0.88893 0.30063 0.0
C42 C 0.79575 0.97012 0.24505 0.0
C43 C 0.7456 0.92643 0.40048 0.0
N44 N 0.85578 0.04641 0.30918 0.0
C45 C 0.82223 1.01923 0.40721 0.0
C46 C 0.63682 0.58482 0.27349 0.0
O47 O 0.78776 0.65054 0.42861 0.0
O48 O 0.78006 0.78423 0.43014 0.0
O49 O 0.6362 0.66486 0.29971 0.0
O50 O 0.71158 0.59044 0.23568 0.0
O51 O 0.73975 0.78277 0.13489 0.0
H52 H 0.70788 0.88449 0.46872 0.0
H53 H 0.80856 0.96739 0.16085 0.0
O54 O 0.84572 0.73483 0.12959 0.0
O55 O 0.93516 0.78996 0.34014 0.0
O56 O 0.89886 0.88586 0.25967 0.0
C57 C 0.96277 0.8701 0.29864 0.0
H58 H 0.08822 0.62686 0.18941 0.0
H59 H 0.84635 0.06475 0.47724 0.0
Co60 Co 0.0934 0.34254 0.27445 0.0
C61 C 0.98535 0.32853 0.07158 0.0
Co62 Co 0.92347 0.29113 0.2613 0.0
C63 C 0.19858 0.23417 0.28701 0.0
C64 C 0.10758 0.19669 0.14964 0.0
N65 N 0.13803 0.25691 0.23688 0.0
N66 N 0.20539 0.16172 0.23603 0.0
C67 C 0.14909 0.13957 0.14875 0.0
H68 H 0.24116 0.27356 0.35676 0.0
H69 H 0.05961 0.19455 0.08723 0.0
C70 C 0.07213 0.34918 0.47307 0.0
N71 N 0.79508 0.21047 0.29959 0.0
C72 C 0.71445 0.17568 0.23921 0.0
C73 C 0.76419 0.17525 0.39731 0.0
N74 N 0.63436 0.11809 0.29385 0.0
C75 C 0.66673 0.11779 0.3937 0.0
C76 C 0.92656 0.13495 0.2768 0.0
O77 O 0.14074 0.36309 0.41459 0.0
O78 O 0.98506 0.31395 0.42936 0.0
O79 O 0.912 0.17154 0.19989 0.0
O80 O 0.99259 0.19764 0.33428 0.0
O81 O 0.90344 0.30477 0.11135 0.0
H82 H 0.80918 0.19324 0.46823 0.0
H83 H 0.71354 0.1985 0.15796 0.0
O84 O 1.05237 0.33553 0.13155 0.0
O85 O 0.05698 0.45456 0.29902 0.0
O86 O 0.90411 0.38611 0.29721 0.0
C87 C 0.98082 0.46149 0.3058 0.0
H88 H 0.14868 0.09634 0.08105 0.0
H89 H 0.6225 0.08911 0.46267 0.0
Co90 Co 0.21284 0.43172 0.836 0.0
C91 C 1.00629 0.33595 0.95664 0.0
Co92 Co 0.98396 0.3037 0.7555 0.0
C93 C 0.41664 0.52864 0.84281 0.0
C94 C 0.36543 0.44685 0.69829 0.0
N95 N 0.3364 0.47856 0.7822 0.0
N96 N 0.4958 0.53279 0.80033 0.0
C97 C 0.46181 0.47957 0.70912 0.0
H98 H 0.41831 0.56671 0.91584 0.0
H99 H 0.32029 0.40344 0.63233 0.0
C100 C 0.08486 0.36284 0.59273 0.0
N101 N 0.93042 0.16825 0.72268 0.0
C102 C 0.90099 0.09171 0.78837 0.0
C103 C 0.9583 0.13671 0.63634 0.0
N104 N 0.90731 1.01509 0.74577 0.0
C105 C 0.94693 0.04629 0.6514 0.0
C106 C 0.13728 0.54201 0.79133 0.0
O107 O 0.16049 0.39629 0.65798 0.0
O108 O 1.00514 0.3261 0.62941 0.0
O109 O 1.05604 0.46144 0.77516 0.0
O110 O 0.21241 0.53988 0.81463 0.0
O111 O 0.94358 0.27919 0.89263 0.0
H112 H 0.98845 0.17647 0.56519 0.0
H113 H 0.87228 0.09025 0.86612 0.0
O114 O 0.09257 0.38085 0.92489 0.0
O115 O 0.21762 0.3261 0.87263 0.0
O116 O 0.08846 0.26723 0.77812 0.0
C117 C 0.16042 0.2611 0.81229 0.0
H118 H 0.50534 0.47439 0.64754 0.0
H119 H 0.95369 1.00147 0.58998 0.0
Co120 Co 0.31665 0.93357 0.76178 0.0
C121 C 0.3691 1.02661 0.95589 0.0
Co122 Co 0.38664 0.10996 0.75533 0.0
C123 C 0.22842 0.71835 0.80098 0.0
C124 C 0.15775 0.75486 0.68054 0.0
N125 N 0.23541 0.79545 0.74678 0.0
N126 N 0.14937 0.63257 0.7722 0.0
C127 C 0.1039 0.65606 0.6975 0.0
H128 H 0.2813 0.72462 0.85975 0.0
H129 H 0.14177 0.79429 0.62121 0.0
C130 C 0.35445 1.04046 0.55722 0.0
N131 N 0.31217 0.17486 0.73309 0.0
C132 C 0.26184 0.19225 0.8066 0.0
C133 C 0.28148 0.19426 0.63861 0.0
N134 N 0.19414 0.20895 0.76205 0.0
C135 C 0.20599 0.20959 0.65616 0.0
C136 C 0.48735 0.98728 0.75988 0.0
O137 O 0.30032 0.95681 0.60282 0.0
O138 O 0.40782 0.11601 0.61245 0.0
O139 O 0.48644 0.06594 0.78356 0.0
O140 O 0.4149 0.92116 0.71522 0.0
O141 O 0.3672 0.09584 0.90375 0.0
H142 H 0.30612 0.18901 0.56071 0.0
H143 H 0.2718 0.18871 0.89194 0.0
O144 O 0.35167 0.94446 0.9101 0.0
O145 O 0.20927 0.92198 0.82639 0.0
O146 O 0.24231 1.03228 0.72096 0.0
C147 C 0.17995 0.96645 0.77519 0.0
H148 H 1.04174 0.6048 0.65132 0.0
H149 H 0.16981 0.2298 0.5964 0.0
Co150 Co 0.6642 0.80442 0.76357 0.0
C151 C 0.78802 0.76683 0.96209 0.0
Co152 Co 0.81359 0.70736 0.77567 0.0
C153 C 0.54703 0.876 0.78651 0.0
C154 C 0.65695 0.9481 0.90451 0.0
N155 N 0.6127 0.86548 0.8438 0.0
N156 N 0.54991 0.96215 0.80463 0.0
C157 C 0.61808 1.00768 0.88069 0.0
H158 H 0.50501 0.8256 0.72263 0.0
H159 H 0.72101 0.9696 0.95198 0.0
C160 C 0.74696 0.70119 0.59134 0.0
N161 N 0.9447 0.78121 0.7424 0.0
C162 C 1.01853 0.84605 0.8042 0.0
C163 C 0.97263 0.81516 0.64208 0.0
N164 N 0.08724 0.91838 0.7467 0.0
C165 C 0.05671 0.90032 0.64505 0.0
C166 C 0.57962 0.61792 0.80233 0.0
O167 O 0.71008 0.74643 0.64095 0.0
O168 O 0.79038 0.66838 0.64282 0.0
O169 O 0.66273 0.62268 0.79889 0.0
O170 O 0.57091 0.69201 0.7886 0.0
O171 O 0.83621 0.73632 0.91436 0.0
H172 H 0.93455 0.78303 0.56861 0.0
H173 H 1.02178 0.84168 0.89034 0.0
O174 O 0.73015 0.78847 0.90927 0.0
O175 O 0.75375 0.91743 0.73962 0.0
O176 O 0.84132 0.84842 0.75925 0.0
C177 C 0.83323 0.92493 0.74957 0.0
H178 H 0.64016 0.07938 0.91407 0.0
H179 H 0.09742 0.93893 0.57661 0.0
loop_
_geom_bond_atom_site_label_1
_geom_bond_atom_site_label_2
_geom_bond_distance
_geom_bond_site_symmetry_2
_ccdc_geom_bond_type
Co0 N5 2.057 1_545 S
Co0 O17 2.021 . S
Co0 O20 2.062 . S
Co0 O24 2.117 . S
Co0 O25 2.020 1_545 S
C1 O21 1.259 . S
C1 O24 1.258 . S
Co2 N11 2.057 . S
Co2 O18 2.117 . S
Co2 O19 2.020 . S
Co2 O21 2.021 . S
Co2 O26 2.062 . S
C3 N5 1.316 . S
C3 N6 1.347 . S
C3 H8 0.931 . S
C4 N5 1.375 . S
C4 C7 1.350 . S
C4 H9 0.930 . S
N5 Co0 2.057 1_565 S
N5 C3 1.316 . S
N5 C4 1.375 . S
N6 C3 1.347 . S
N6 C7 1.373 . S
C7 C4 1.350 . S
C7 N6 1.373 . S
C7 H28 0.931 . S
H8 C3 0.931 . S
H9 C4 0.930 . S
C10 O17 1.259 . S
C10 O18 1.258 . S
N11 Co2 2.057 . S
N11 C12 1.316 . S
N11 C13 1.375 . S
C12 N11 1.316 . S
C12 N14 1.347 . S
C12 H23 0.931 . S
C13 N11 1.375 . S
C13 C15 1.350 . S
C13 H22 0.930 . S
N14 C12 1.347 . S
N14 C15 1.373 . S
C15 C13 1.350 . S
C15 N14 1.373 . S
C15 H29 0.931 . S
C16 O19 1.256 . S
C16 O20 1.255 . S
O17 Co0 2.021 . S
O17 C10 1.259 . S
O18 Co2 2.117 . S
O18 C10 1.258 . S
O19 Co2 2.020 . S
O19 C16 1.256 . S
O20 Co0 2.062 . S
O20 C16 1.255 . S
O21 C1 1.259 . S
O21 Co2 2.021 . S
H22 C13 0.930 . S
H23 C12 0.931 . S
O24 Co0 2.117 . S
O24 C1 1.258 . S
O25 Co0 2.020 1_565 S
O25 C27 1.256 1_565 S
O26 Co2 2.062 . S
O26 C27 1.255 . S
C27 O25 1.256 1_545 S
C27 O26 1.255 . S
H28 C7 0.931 . S
H29 C15 0.931 . S
Co30 N35 2.057 . S
Co30 O47 2.021 . S
Co30 O50 2.062 . S
Co30 O54 2.117 . S
Co30 O55 2.020 . S
C31 O51 1.259 . S
C31 O54 1.258 . S
Co32 N41 2.057 . S
Co32 O48 2.117 . S
Co32 O49 2.020 . S
Co32 O51 2.021 . S
Co32 O56 2.062 . S
C33 N35 1.316 . S
C33 N36 1.347 . S
C33 H38 0.931 . S
C34 N35 1.375 . S
C34 C37 1.350 . S
C34 H39 0.930 . S
N35 Co30 2.057 . S
N35 C33 1.316 . S
N35 C34 1.375 . S
N36 C33 1.347 . S
N36 C37 1.373 . S
C37 C34 1.350 . S
C37 N36 1.373 . S
C37 H58 0.931 . S
H38 C33 0.931 . S
H39 C34 0.930 . S
C40 O47 1.259 . S
C40 O48 1.258 . S
N41 Co32 2.057 . S
N41 C42 1.316 . S
N41 C43 1.375 . S
C42 N41 1.316 . S
C42 N44 1.347 . S
C42 H53 0.931 . S
C43 N41 1.375 . S
C43 C45 1.350 . S
C43 H52 0.930 . S
N44 C42 1.347 . S
N44 C45 1.373 . S
C45 C43 1.350 . S
C45 N44 1.373 . S
C45 H59 0.931 . S
C46 O49 1.256 . S
C46 O50 1.255 . S
O47 Co30 2.021 . S
O47 C40 1.259 . S
O48 Co32 2.117 . S
O48 C40 1.258 . S
O49 Co32 2.020 . S
O49 C46 1.256 . S
O50 Co30 2.062 . S
O50 C46 1.255 . S
O51 C31 1.259 . S
O51 Co32 2.021 . S
H52 C43 0.930 . S
H53 C42 0.931 . S
O54 Co30 2.117 . S
O54 C31 1.258 . S
O55 Co30 2.020 . S
O55 C57 1.256 . S
O56 Co32 2.062 . S
O56 C57 1.255 . S
C57 O55 1.256 . S
C57 O56 1.255 . S
H58 C37 0.931 . S
H59 C45 0.931 . S
Co60 N65 2.057 1_655 S
Co60 O77 2.021 . S
Co60 O80 2.062 . S
Co60 O84 2.117 . S
Co60 O85 2.020 1_655 S
C61 O81 1.259 . S
C61 O84 1.258 . S
Co62 N71 2.057 . S
Co62 O78 2.117 . S
Co62 O79 2.020 . S
Co62 O81 2.021 . S
Co62 O86 2.062 . S
C63 N65 1.316 . S
C63 N66 1.347 . S
C63 H68 0.931 . S
C64 N65 1.375 . S
C64 C67 1.350 . S
C64 H69 0.930 . S
N65 Co60 2.057 1_455 S
N65 C63 1.316 . S
N65 C64 1.375 . S
N66 C63 1.347 . S
N66 C67 1.373 . S
C67 C64 1.350 . S
C67 N66 1.373 . S
C67 H88 0.931 . S
H68 C63 0.931 . S
H69 C64 0.930 . S
C70 O77 1.259 . S
C70 O78 1.258 . S
N71 Co62 2.057 . S
N71 C72 1.316 . S
N71 C73 1.375 . S
C72 N71 1.316 . S
C72 N74 1.347 . S
C72 H83 0.931 . S
C73 N71 1.375 . S
C73 C75 1.350 . S
C73 H82 0.930 . S
N74 C72 1.347 . S
N74 C75 1.373 . S
C75 C73 1.350 . S
C75 N74 1.373 . S
C75 H89 0.931 . S
C76 O79 1.256 . S
C76 O80 1.255 . S
O77 Co60 2.021 . S
O77 C70 1.259 . S
O78 Co62 2.117 . S
O78 C70 1.258 . S
O79 Co62 2.020 . S
O79 C76 1.256 . S
O80 Co60 2.062 . S
O80 C76 1.255 . S
O81 C61 1.259 . S
O81 Co62 2.021 . S
H82 C73 0.930 . S
H83 C72 0.931 . S
O84 Co60 2.117 . S
O84 C61 1.258 . S
O85 Co60 2.020 1_455 S
O85 C87 1.256 1_455 S
O86 Co62 2.062 . S
O86 C87 1.255 . S
C87 O85 1.256 1_655 S
C87 O86 1.255 . S
H88 C67 0.931 . S
H89 C75 0.931 . S
Co90 N95 2.057 . S
Co90 O107 2.021 . S
Co90 O110 2.062 . S
Co90 O114 2.117 . S
Co90 O115 2.020 . S
C91 O111 1.259 . S
C91 O114 1.258 . S
Co92 N101 2.057 1_455 S
Co92 O108 2.117 . S
Co92 O109 2.020 1_455 S
Co92 O111 2.021 . S
Co92 O116 2.062 . S
C93 N95 1.316 . S
C93 N96 1.347 . S
C93 H98 0.931 . S
C94 N95 1.375 . S
C94 C97 1.350 . S
C94 H99 0.930 . S
N95 Co90 2.057 . S
N95 C93 1.316 . S
N95 C94 1.375 . S
N96 C93 1.347 . S
N96 C97 1.373 . S
C97 C94 1.350 . S
C97 N96 1.373 . S
C97 H118 0.931 . S
H98 C93 0.931 . S
H99 C94 0.930 . S
C100 O107 1.259 . S
C100 O108 1.258 . S
N101 Co92 2.057 1_655 S
N101 C102 1.316 . S
N101 C103 1.375 . S
C102 N101 1.316 . S
C102 N104 1.347 . S
C102 H113 0.931 . S
C103 N101 1.375 . S
C103 C105 1.350 . S
C103 H112 0.930 . S
N104 C102 1.347 . S
N104 C105 1.373 . S
C105 C103 1.350 . S
C105 N104 1.373 . S
C105 H119 0.931 . S
C106 O109 1.256 1_455 S
C106 O110 1.255 . S
O107 Co90 2.021 . S
O107 C100 1.259 . S
O108 Co92 2.117 . S
O108 C100 1.258 . S
O109 Co92 2.020 1_655 S
O109 C106 1.256 1_655 S
O110 Co90 2.062 . S
O110 C106 1.255 . S
O111 C91 1.259 . S
O111 Co92 2.021 . S
H112 C103 0.930 . S
H113 C102 0.931 . S
O114 Co90 2.117 . S
O114 C91 1.258 . S
O115 Co90 2.020 . S
O115 C117 1.256 . S
O116 Co92 2.062 . S
O116 C117 1.255 . S
C117 O115 1.256 . S
C117 O116 1.255 . S
H118 C97 0.931 . S
H119 C105 0.931 . S
Co120 N125 2.057 . S
Co120 O137 2.021 . S
Co120 O140 2.062 . S
Co120 O144 2.117 . S
Co120 O145 2.020 . S
C121 O141 1.259 . S
C121 O144 1.258 . S
Co122 N131 2.057 1_565 S
Co122 O138 2.117 . S
Co122 O139 2.020 1_565 S
Co122 O141 2.021 . S
Co122 O146 2.062 . S
C123 N125 1.316 . S
C123 N126 1.347 . S
C123 H128 0.931 . S
C124 N125 1.375 . S
C124 C127 1.350 . S
C124 H129 0.930 . S
N125 Co120 2.057 . S
N125 C123 1.316 . S
N125 C124 1.375 . S
N126 C123 1.347 . S
N126 C127 1.373 . S
C127 C124 1.350 . S
C127 N126 1.373 . S
C127 H148 0.931 . S
H128 C123 0.931 . S
H129 C124 0.930 . S
C130 O137 1.259 . S
C130 O138 1.258 . S
N131 Co122 2.057 1_545 S
N131 C132 1.316 . S
N131 C133 1.375 . S
C132 N131 1.316 . S
C132 N134 1.347 . S
C132 H143 0.931 . S
C133 N131 1.375 . S
C133 C135 1.350 . S
C133 H142 0.930 . S
N134 C132 1.347 . S
N134 C135 1.373 . S
C135 C133 1.350 . S
C135 N134 1.373 . S
C135 H149 0.931 . S
C136 O139 1.256 1_565 S
C136 O140 1.255 . S
O137 Co120 2.021 . S
O137 C130 1.259 . S
O138 Co122 2.117 . S
O138 C130 1.258 . S
O139 Co122 2.020 1_545 S
O139 C136 1.256 1_545 S
O140 Co120 2.062 . S
O140 C136 1.255 . S
O141 C121 1.259 . S
O141 Co122 2.021 . S
H142 C133 0.930 . S
H143 C132 0.931 . S
O144 Co120 2.117 . S
O144 C121 1.258 . S
O145 Co120 2.020 . S
O145 C147 1.256 . S
O146 Co122 2.062 . S
O146 C147 1.255 . S
C147 O145 1.256 . S
C147 O146 1.255 . S
H148 C127 0.931 . S
H149 C135 0.931 . S
Co150 N155 2.057 . S
Co150 O167 2.021 . S
Co150 O170 2.062 . S
Co150 O174 2.117 . S
Co150 O175 2.020 . S
C151 O171 1.259 . S
C151 O174 1.258 . S
Co152 N161 2.057 . S
Co152 O168 2.117 . S
Co152 O169 2.020 . S
Co152 O171 2.021 . S
Co152 O176 2.062 . S
C153 N155 1.316 . S
C153 N156 1.347 . S
C153 H158 0.931 . S
C154 N155 1.375 . S
C154 C157 1.350 . S
C154 H159 0.930 . S
N155 Co150 2.057 . S
N155 C153 1.316 . S
N155 C154 1.375 . S
N156 C153 1.347 . S
N156 C157 1.373 . S
C157 C154 1.350 . S
C157 N156 1.373 . S
C157 H178 0.931 . S
H158 C153 0.931 . S
H159 C154 0.930 . S
C160 O167 1.259 . S
C160 O168 1.258 . S
N161 Co152 2.057 . S
N161 C162 1.316 . S
N161 C163 1.375 . S
C162 N161 1.316 . S
C162 N164 1.347 . S
C162 H173 0.931 . S
C163 N161 1.375 . S
C163 C165 1.350 . S
C163 H172 0.930 . S
N164 C162 1.347 . S
N164 C165 1.373 . S
C165 C163 1.350 . S
C165 N164 1.373 . S
C165 H179 0.931 . S
C166 O169 1.256 . S
C166 O170 1.255 . S
O167 Co150 2.021 . S
O167 C160 1.259 . S
O168 Co152 2.117 . S
O168 C160 1.258 . S
O169 Co152 2.020 . S
O169 C166 1.256 . S
O170 Co150 2.062 . S
O170 C166 1.255 . S
O171 C151 1.259 . S
O171 Co152 2.021 . S
H172 C163 0.930 . S
H173 C162 0.931 . S
O174 Co150 2.117 . S
O174 C151 1.258 . S
O175 Co150 2.020 . S
O175 C177 1.256 . S
O176 Co152 2.062 . S
O176 C177 1.255 . S
C177 O175 1.256 . S
C177 O176 1.255 . S
H178 C157 0.931 . S
H179 C165 0.931 . S
C121 C1 3.130 1_566 S
C160 C40 3.471 . S
C61 C91 3.278 1_654 S
C10 C130 3.329 1_545 S
C151 C31 2.988 1_556 S
C70 C100 3.175 1_655 S
C27 N74 1.569 . S
C46 N14 1.572 . S
C87 N36 1.569 . S
C106 N126 1.560 . S
C136 N156 1.581 . S
N96 C166 1.593 . S
C16 N66 2.453 . S
C57 N6 2.443 1_655 S
C76 N44 2.444 1_545 S
C117 N134 2.445 . S
C147 N164 2.448 1_455 S
N104 C177 2.459 1_545 S
