# Generated by pormake.
# Topology unc, (4)-cn, num edge types: 1
# Building blocks:
#     Node 0, Type 0, BuildingBlock: NAHDIM_clean_sbu_0, # of connection points: 4
#     Node 1, Type 0, BuildingBlock: NAHDIM_clean_sbu_0, # of connection points: 4
#     Node 2, Type 0, BuildingBlock: NAHDIM_clean_sbu_0, # of connection points: 4
#     Node 3, Type 0, BuildingBlock: NAHDIM_clean_sbu_0, # of connection points: 4
#     Edge 4, Type (0, 0), None
#     Edge 5, Type (0, 0), None
#     Edge 6, Type (0, 0), None
#     Edge 7, Type (0, 0), None
#     Edge 8, Type (0, 0), None
#     Edge 9, Type (0, 0), None
#     Edge 10, Type (0, 0), None
#     Edge 11, Type (0, 0), None
# Relax obj value: 0.110
# Max RMSD: 0.173
# Mean RMSD: 0.173
data_MOF--net-unc--node1-NAHDIM_clean_sbu_0--edge1-none
_symmetry_space_group_name_H-M    P1
_symmetry_Int_Tables_number       1
_symmetry_cell_setting            triclinic
loop_
_symmetry_equiv_pos_as_xyz
'x, y, z'
_cell_length_a     13.976484
_cell_length_b     13.976988
_cell_length_c     10.315438
_cell_angle_alpha  89.999914
_cell_angle_beta   89.999906
_cell_angle_gamma 100.34814
loop_
_atom_site_label
_atom_site_type_symbol
_atom_site_fract_x
_atom_site_fract_y
_atom_site_fract_z
_atom_type_partial_charge
C0 C 0.87585 0.81205 0.85096 0.0
O1 O 0.9168 0.78033 0.74893 0.0
O2 O 0.01266 0.63019 0.82673 0.0
Zn3 Zn 0.00269 0.70566 -0.00735 0.0
O4 O 0.12554 0.79957 0.04147 0.0
C5 C 0.00501 0.5429 0.16518 0.0
O6 O 0.07508 0.52705 0.0882 0.0
O7 O 0.8996 0.78841 0.96405 0.0
C8 C 0.20784 0.78007 0.07312 0.0
O9 O 0.2223 0.68998 0.07158 0.0
C10 C 0.07729 0.5849 0.78404 0.0
O11 O 0.15698 0.58327 0.85044 0.0
O12 O 0.96164 0.61364 0.14258 0.0
C13 C 0.25448 0.19068 0.33458 0.0
O14 O 0.28623 0.14976 0.43661 0.0
O15 O 0.43633 0.05387 0.35881 0.0
Zn16 Zn 0.36086 0.06383 0.19289 0.0
O17 O 0.26695 0.94098 0.14407 0.0
C18 C 0.52363 0.06152 0.02036 0.0
O19 O 0.53949 -0.00855 0.09735 0.0
O20 O 0.2781 0.16692 0.22149 0.0
C21 C 0.28646 0.85869 0.11241 0.0
O22 O 0.37655 0.84423 0.11395 0.0
C23 C 0.48162 -0.01076 0.4015 0.0
O24 O 0.48326 0.90955 0.3351 0.0
O25 O 0.45288 0.10488 0.04296 0.0
C26 C 0.18661 0.25854 0.35096 0.0
O27 O 0.14566 0.29026 0.24893 0.0
O28 O 0.04981 0.4404 0.32672 0.0
Zn29 Zn 0.05978 0.36493 0.49265 0.0
O30 O 0.93692 0.27102 0.54147 0.0
C31 C 0.05745 0.52769 0.66518 0.0
O32 O -0.01262 0.54355 0.5882 0.0
O33 O 0.16287 0.28219 0.46404 0.0
C34 C 0.85463 0.29052 0.57312 0.0
O35 O 0.84016 0.38061 0.57158 0.0
C36 C -0.01483 0.48568 0.28404 0.0
O37 O 0.90549 0.48733 0.35044 0.0
O38 O 0.10082 0.45695 0.64258 0.0
C39 C 0.80799 0.87991 0.83458 0.0
O40 O 0.77624 0.92084 0.93661 0.0
O41 O 0.62613 0.01673 0.85882 0.0
Zn42 Zn 0.70161 0.00676 0.6929 0.0
O43 O 0.79552 0.12961 0.64407 0.0
C44 C 0.53883 0.00907 0.52037 0.0
O45 O 0.52298 0.07914 0.59735 0.0
O46 O 0.78436 0.90367 0.7215 0.0
C47 C 0.77601 0.2119 0.61241 0.0
O48 O 0.68591 0.22636 0.61395 0.0
C49 C 0.58085 0.08136 0.9015 0.0
O50 O 0.5792 0.16104 0.8351 0.0
O51 O 0.60958 0.96571 0.54296 0.0
loop_
_geom_bond_atom_site_label_1
_geom_bond_atom_site_label_2
_geom_bond_distance
_geom_bond_site_symmetry_2
_ccdc_geom_bond_type
C0 O1 1.160 . S
C0 O7 1.185 1_556 S
O1 C0 1.160 . S
O2 Zn3 1.899 1_556 S
O2 C10 1.284 . S
Zn3 O2 1.899 1_554 S
Zn3 O4 2.032 . S
Zn3 O7 2.086 1_455 S
Zn3 O12 1.977 1_455 S
O4 Zn3 2.032 . S
O4 C8 1.278 . S
C5 O6 1.203 . S
C5 O12 1.267 1_455 S
O6 C5 1.203 . S
O7 C0 1.185 1_554 S
O7 Zn3 2.086 1_655 S
C8 O4 1.278 . S
C8 O9 1.211 . S
O9 C8 1.211 . S
C10 O2 1.284 . S
C10 O11 1.273 . S
O11 C10 1.273 . S
O12 Zn3 1.977 1_655 S
O12 C5 1.267 1_655 S
C13 O14 1.160 . S
C13 O20 1.185 . S
O14 C13 1.160 . S
O15 Zn16 1.899 . S
O15 C23 1.284 . S
Zn16 O15 1.899 . S
Zn16 O17 2.032 1_545 S
Zn16 O20 2.086 . S
Zn16 O25 1.977 . S
O17 Zn16 2.032 1_565 S
O17 C21 1.278 . S
C18 O19 1.203 . S
C18 O25 1.267 . S
O19 C18 1.203 . S
O20 C13 1.185 . S
O20 Zn16 2.086 . S
C21 O17 1.278 . S
C21 O22 1.211 . S
O22 C21 1.211 . S
C23 O15 1.284 . S
C23 O24 1.273 1_545 S
O24 C23 1.273 1_565 S
O25 Zn16 1.977 . S
O25 C18 1.267 . S
C26 O27 1.160 . S
C26 O33 1.185 . S
O27 C26 1.160 . S
O28 Zn29 1.899 . S
O28 C36 1.284 . S
Zn29 O28 1.899 . S
Zn29 O30 2.032 1_455 S
Zn29 O33 2.086 . S
Zn29 O38 1.977 . S
O30 Zn29 2.032 1_655 S
O30 C34 1.278 . S
C31 O32 1.203 . S
C31 O38 1.267 . S
O32 C31 1.203 . S
O33 C26 1.185 . S
O33 Zn29 2.086 . S
C34 O30 1.278 . S
C34 O35 1.211 . S
O35 C34 1.211 . S
C36 O28 1.284 . S
C36 O37 1.273 1_455 S
O37 C36 1.273 1_655 S
O38 Zn29 1.977 . S
O38 C31 1.267 . S
C39 O40 1.160 . S
C39 O46 1.185 . S
O40 C39 1.160 . S
O41 Zn42 1.899 . S
O41 C49 1.284 . S
Zn42 O41 1.899 . S
Zn42 O43 2.032 . S
Zn42 O46 2.086 1_545 S
Zn42 O51 1.977 1_545 S
O43 Zn42 2.032 . S
O43 C47 1.278 . S
C44 O45 1.203 . S
C44 O51 1.267 1_545 S
O45 C44 1.203 . S
O46 C39 1.185 . S
O46 Zn42 2.086 1_565 S
C47 O43 1.278 . S
C47 O48 1.211 . S
O48 C47 1.211 . S
C49 O41 1.284 . S
C49 O50 1.273 . S
O50 C49 1.273 . S
O51 Zn42 1.977 1_565 S
O51 C44 1.267 1_565 S
C5 C36 1.153 . S
C23 C44 1.153 . S
C10 C31 1.153 . S
C18 C49 1.153 1_554 S
C21 C8 1.401 . S
C13 C26 1.381 . S
C47 C34 1.401 . S
C39 C0 1.381 . S
