# Generated by pormake.
# Topology pcu, (6)-cn, num edge types: 1
# Building blocks:
#     Node 0, Type 0, BuildingBlock: BETFAJ_clean_sbu_0, # of connection points: 6
#     Edge 1, Type (0, 0), BuildingBlock: FUNLAD_clean_linker_0, # of connection points: 2
#     Edge 2, Type (0, 0), BuildingBlock: FUNLAD_clean_linker_0, # of connection points: 2
#     Edge 3, Type (0, 0), BuildingBlock: FUNLAD_clean_linker_0, # of connection points: 2
# Relax obj value: 0.000
# Max RMSD: 0.000
# Mean RMSD: 0.000
data_MOF--net-pcu--node1-BETFAJ_clean_sbu_0--edge1-FUNLAD_clean_linker_0
_symmetry_space_group_name_H-M    P1
_symmetry_Int_Tables_number       1
_symmetry_cell_setting            triclinic
loop_
_symmetry_equiv_pos_as_xyz
'x, y, z'
_cell_length_a     27.919789
_cell_length_b     18.066018
_cell_length_c     16.896527
_cell_angle_alpha  87.57139
_cell_angle_beta   96.697792
_cell_angle_gamma 124.74923
loop_
_atom_site_label
_atom_site_type_symbol
_atom_site_fract_x
_atom_site_fract_y
_atom_site_fract_z
_atom_type_partial_charge
Sm0 Sm 0.96019 0.92529 0.03027 0.0
Sm1 Sm 0.08926 0.03615 1.00622 0.0
C2 C 0.85519 0.86084 0.07416 0.0
C3 C 0.81128 0.88274 0.06539 0.0
C4 C 0.82704 0.97015 0.08119 0.0
C5 C 0.78462 -0.01085 0.0719 0.0
C6 C 0.72551 0.92115 0.04666 0.0
C7 C 0.71002 0.83374 0.03098 0.0
C8 C 0.75244 0.81484 0.04032 0.0
C9 C 0.98171 0.92992 0.87481 0.0
C10 C 0.03011 0.1442 1.00111 0.0
C11 C 0.19446 0.10088 0.96288 0.0
C12 C 0.23832 0.0789 0.97158 0.0
C13 C 0.22252 -0.00849 0.95556 0.0
C14 C 0.2649 0.97242 0.96479 0.0
C15 C 0.32401 0.04031 0.99018 0.0
C16 C 0.33952 0.1277 1.00609 0.0
C17 C 0.29714 0.14669 0.99681 0.0
C18 C 0.06735 0.03134 0.16162 0.0
C19 C 1.0193 0.8172 0.03502 0.0
O20 O 0.90435 0.91504 0.11945 0.0
O21 O 0.86282 0.83322 1.00953 0.0
O22 O 1.00876 -0.00346 0.92315 0.0
O23 O 0.93995 0.85868 0.9066 0.0
O24 O 0.98679 0.0721 0.033 0.0
O25 O 0.07218 0.14366 0.97347 0.0
O26 O 0.14542 0.04705 0.91723 0.0
O27 O 0.18662 0.12799 0.02764 0.0
O28 O 0.04074 0.96479 0.11326 0.0
O29 O 0.109 0.10277 0.12986 0.0
O30 O 0.06262 0.88933 1.00315 0.0
O31 O 0.97728 0.81774 0.06279 0.0
H32 H 0.87208 0.0238 0.10089 0.0
H33 H 0.79806 0.05694 0.08545 0.0
H34 H 0.66519 0.78002 1.0103 0.0
H35 H 0.73929 0.74699 0.02758 0.0
H36 H 0.17749 0.93795 0.93574 0.0
H37 H 0.25144 0.90466 0.95107 0.0
H38 H 0.38435 0.18134 0.0269 0.0
H39 H 0.31032 0.21451 1.00972 0.0
C40 C 1.01552 0.94457 0.27864 0.0
C41 C 0.05769 0.02653 0.24631 0.0
C42 C 1.00762 0.94029 0.35946 0.0
C43 C 0.042 0.01811 0.4096 0.0
C44 C 0.08318 0.10021 0.37642 0.0
C45 C 0.09115 0.10437 0.29582 0.0
C46 C 0.03552 0.01747 0.49599 0.0
C47 C 1.0131 0.94321 0.54031 0.0
C48 C 1.00669 0.94267 0.62671 0.0
C49 C 0.96533 0.86073 0.65992 0.0
C50 C 0.95746 0.85671 0.74055 0.0
C51 C 0.99122 0.93454 0.79006 0.0
H52 H 0.07515 0.08439 0.65458 0.0
C53 C 0.03357 0.01633 0.75769 0.0
C54 C 0.04136 0.02047 0.67684 0.0
H55 H 0.06065 0.07718 0.7948 0.0
H56 H 0.98867 0.8837 0.24152 0.0
H57 H 0.97398 0.87622 0.38169 0.0
H58 H 0.10982 0.16138 0.41321 0.0
H59 H 0.12371 0.16864 0.27236 0.0
H60 H 0.05088 0.08151 0.52384 0.0
H61 H 0.99771 0.87915 0.51249 0.0
H62 H 0.93847 0.79958 0.62313 0.0
H63 H 0.92475 0.79257 0.76404 0.0
C64 C 0.42583 0.08251 0.9783 0.0
C65 C 0.36924 0.02014 1.00051 0.0
C66 C 0.46861 0.06431 0.98914 0.0
C67 C 0.45574 0.98269 0.02209 0.0
C68 C 0.39927 0.92071 0.0446 0.0
C69 C 0.35652 0.93892 0.03375 0.0
C70 C 0.49999 0.96053 0.03654 0.0
C71 C 0.5494 0.00069 1.00017 0.0
C72 C 0.59368 0.97857 0.01463 0.0
C73 C 0.6501 0.0405 0.99197 0.0
C74 C 0.69288 0.02235 1.00286 0.0
C75 C 0.68023 0.94124 0.03627 0.0
H76 H 0.53774 0.84605 0.06421 0.0
C77 C 0.62368 0.87891 0.05863 0.0
C78 C 0.58087 0.89706 0.04776 0.0
H79 H 0.61244 0.81598 0.08501 0.0
H80 H 0.43713 0.14554 0.95206 0.0
H81 H 0.51177 0.11535 0.97282 0.0
H82 H 0.38808 0.85769 0.07084 0.0
H83 H 0.31377 0.88991 0.05278 0.0
H84 H 0.49064 0.90819 0.07874 0.0
H85 H 0.55873 0.05302 0.95796 0.0
H86 H 0.66125 0.10344 0.96561 0.0
H87 H 0.7356 0.07132 0.98371 0.0
C88 C 0.06439 0.73443 0.01359 0.0
C89 C 1.01827 0.73442 0.0392 0.0
C90 C 0.06286 0.65585 0.01475 0.0
C91 C 1.01478 0.57508 0.04101 0.0
C92 C 0.96945 0.57564 0.06859 0.0
C93 C 0.971 0.65436 0.06744 0.0
C94 C 1.01094 0.48966 0.04212 0.0
C95 C 0.0384 0.47169 0.99362 0.0
C96 C 0.03457 0.38626 0.99477 0.0
C97 C 0.07994 0.38572 0.96733 0.0
C98 C 0.07841 0.30701 0.96858 0.0
C99 C 0.03111 0.22695 0.99677 0.0
H100 H 0.94945 0.30192 0.0396 0.0
C101 C 0.98494 0.22691 0.0222 0.0
C102 C 0.98646 0.30548 0.02095 0.0
H103 H 0.94742 0.16615 0.04319 0.0
H104 H 0.10189 0.79519 0.99255 0.0
H105 H 0.09983 0.6594 0.99599 0.0
H106 H 0.93225 0.5146 0.09002 0.0
H107 H 0.93487 0.65211 0.08796 0.0
H108 H 0.98363 0.4397 0.08374 0.0
H109 H 0.06573 0.52164 0.952 0.0
H110 H 0.11717 0.44677 0.94596 0.0
H111 H 0.11458 0.30928 0.94818 0.0
loop_
_geom_bond_atom_site_label_1
_geom_bond_atom_site_label_2
_geom_bond_distance
_geom_bond_site_symmetry_2
_ccdc_geom_bond_type
Sm0 C2 2.846 . S
Sm0 O20 2.543 1_556 S
Sm0 O21 2.450 . S
Sm0 O22 2.681 1_665 S
Sm0 O23 2.464 . S
Sm0 O24 2.396 1_565 S
Sm0 O28 2.386 1_566 S
Sm0 O31 2.408 . S
Sm1 C11 2.846 . S
Sm1 O22 2.386 1_554 S
Sm1 O25 2.408 . S
Sm1 O26 2.543 1_554 S
Sm1 O27 2.450 . S
Sm1 O28 2.681 1_455 S
Sm1 O29 2.464 . S
Sm1 O30 2.396 1_545 S
C2 Sm0 2.846 . S
C2 C3 1.506 . S
C2 O20 1.261 1_556 S
C2 O21 1.242 . S
C3 C2 1.506 . S
C3 C4 1.358 1_566 S
C3 C8 1.382 . S
C4 C3 1.358 1_544 S
C4 C5 1.385 . S
C4 H32 0.930 . S
C5 C4 1.385 . S
C5 C6 1.395 1_544 S
C5 H33 0.929 . S
C6 C5 1.395 1_566 S
C6 C7 1.335 . S
C7 C6 1.335 . S
C7 C8 1.398 . S
C7 H34 0.930 . S
C8 C3 1.382 . S
C8 C7 1.398 . S
C8 H35 0.929 . S
C9 O22 1.271 1_665 S
C9 O23 1.251 . S
C10 O24 1.252 1_455 S
C10 O25 1.272 1_556 S
C11 Sm1 2.846 . S
C11 C12 1.506 . S
C11 O26 1.261 1_554 S
C11 O27 1.242 . S
C12 C11 1.506 . S
C12 C13 1.358 1_544 S
C12 C17 1.382 . S
C13 C12 1.358 1_566 S
C13 C14 1.385 . S
C13 H36 0.930 . S
C14 C13 1.385 . S
C14 C15 1.395 1_566 S
C14 H37 0.929 . S
C15 C14 1.395 1_544 S
C15 C16 1.335 . S
C16 C15 1.335 . S
C16 C17 1.398 . S
C16 H38 0.930 . S
C17 C12 1.382 . S
C17 C16 1.398 . S
C17 H39 0.929 . S
C18 O28 1.271 1_455 S
C18 O29 1.251 . S
C19 O30 1.252 1_655 S
C19 O31 1.272 1_554 S
O20 Sm0 2.543 1_554 S
O20 C2 1.261 1_554 S
O21 Sm0 2.450 . S
O21 C2 1.242 . S
O22 Sm0 2.681 1_445 S
O22 Sm1 2.386 1_556 S
O22 C9 1.271 1_445 S
O23 Sm0 2.464 . S
O23 C9 1.251 . S
O24 Sm0 2.396 1_545 S
O24 C10 1.252 1_655 S
O25 Sm1 2.408 . S
O25 C10 1.272 1_554 S
O26 Sm1 2.543 1_556 S
O26 C11 1.261 1_556 S
O27 Sm1 2.450 . S
O27 C11 1.242 . S
O28 Sm0 2.386 1_544 S
O28 Sm1 2.681 1_655 S
O28 C18 1.271 1_655 S
O29 Sm1 2.464 . S
O29 C18 1.251 . S
O30 Sm1 2.396 1_565 S
O30 C19 1.252 1_455 S
O31 Sm0 2.408 . S
O31 C19 1.272 1_556 S
H32 C4 0.930 . S
H33 C5 0.929 . S
H34 C7 0.930 . S
H35 C8 0.929 . S
H36 C13 0.930 . S
H37 C14 0.929 . S
H38 C16 0.930 . S
H39 C17 0.929 . S
C40 C41 1.386 1_665 S
C40 C42 1.382 . S
C40 H56 0.951 . S
C41 C40 1.386 1_445 S
C41 C45 1.383 . S
C42 C40 1.382 . S
C42 C43 1.404 1_665 S
C42 H57 0.949 . S
C43 C42 1.404 1_445 S
C43 C44 1.375 . S
C43 C46 1.481 . S
C44 C43 1.375 . S
C44 C45 1.367 . S
C44 H58 0.951 . S
C45 C41 1.383 . S
C45 C44 1.367 . S
C45 H59 0.950 . S
C46 C43 1.481 . S
C46 C47 1.297 1_545 S
C46 H60 0.950 . S
C47 C46 1.297 1_565 S
C47 C48 1.479 1_565 S
C47 H61 0.950 . S
C48 C47 1.479 1_545 S
C48 C49 1.375 1_545 S
C48 C54 1.404 . S
C49 C48 1.375 1_565 S
C49 C50 1.369 1_455 S
C49 H62 0.950 1_455 S
C50 C49 1.369 1_655 S
C50 C51 1.392 1_665 S
C50 H63 0.951 . S
C51 C50 1.392 1_445 S
C51 C53 1.384 . S
H52 C54 0.949 . S
C53 C51 1.384 . S
C53 C54 1.385 . S
C53 H55 0.950 . S
C54 C48 1.404 . S
C54 H52 0.949 . S
C54 C53 1.385 . S
H55 C53 0.950 . S
H56 C40 0.951 . S
H57 C42 0.949 . S
H58 C44 0.951 . S
H59 C45 0.950 . S
H60 C46 0.950 . S
H61 C47 0.950 . S
H62 C49 0.950 1_655 S
H63 C50 0.951 . S
C64 C65 1.386 1_545 S
C64 C66 1.383 . S
C64 H80 0.951 . S
C65 C64 1.386 1_565 S
C65 C69 1.383 1_554 S
C66 C64 1.383 . S
C66 C67 1.402 1_545 S
C66 H81 0.951 . S
C67 C66 1.402 1_565 S
C67 C68 1.375 1_554 S
C67 C70 1.481 . S
C68 C67 1.375 1_556 S
C68 C69 1.367 . S
C68 H82 0.951 . S
C69 C65 1.383 1_556 S
C69 C68 1.367 . S
C69 H83 0.950 . S
C70 C67 1.481 . S
C70 C71 1.297 1_565 S
C70 H84 0.950 1_554 S
C71 C70 1.297 1_545 S
C71 C72 1.479 1_545 S
C71 H85 0.950 . S
C72 C71 1.479 1_565 S
C72 C73 1.375 1_565 S
C72 C78 1.404 . S
C73 C72 1.375 1_545 S
C73 C74 1.369 . S
C73 H86 0.950 . S
C74 C73 1.369 . S
C74 C75 1.392 1_545 S
C74 H87 0.951 . S
C75 C74 1.392 1_565 S
C75 C77 1.384 . S
H76 C78 0.949 . S
C77 C75 1.384 . S
C77 C78 1.385 . S
C77 H79 0.950 1_554 S
C78 C72 1.404 . S
C78 H76 0.949 . S
C78 C77 1.385 . S
H79 C77 0.950 1_556 S
H80 C64 0.951 . S
H81 C66 0.951 . S
H82 C68 0.951 . S
H83 C69 0.950 . S
H84 C70 0.950 1_556 S
H85 C71 0.950 . S
H86 C73 0.950 . S
H87 C74 0.951 . S
C88 C89 1.386 1_454 S
C88 C90 1.383 . S
C88 H104 0.951 . S
C89 C88 1.386 1_656 S
C89 C93 1.383 . S
C90 C88 1.383 . S
C90 C91 1.402 1_454 S
C90 H105 0.951 . S
C91 C90 1.402 1_656 S
C91 C92 1.375 . S
C91 C94 1.481 . S
C92 C91 1.375 . S
C92 C93 1.367 . S
C92 H106 0.951 . S
C93 C89 1.383 . S
C93 C92 1.367 . S
C93 H107 0.950 . S
C94 C91 1.481 . S
C94 C95 1.297 1_556 S
C94 H108 0.950 . S
C95 C94 1.297 1_554 S
C95 C96 1.479 . S
C95 H109 0.950 . S
C96 C95 1.479 . S
C96 C97 1.375 1_655 S
C96 C102 1.404 1_554 S
C97 C96 1.375 1_455 S
C97 C98 1.369 . S
C97 H110 0.950 . S
C98 C97 1.369 . S
C98 C99 1.392 1_455 S
C98 H111 0.951 . S
C99 C98 1.392 1_655 S
C99 C101 1.384 1_554 S
H100 C102 0.949 . S
C101 C99 1.384 1_556 S
C101 C102 1.385 . S
C101 H103 0.950 . S
C102 C96 1.404 1_556 S
C102 H100 0.949 . S
C102 C101 1.385 . S
H103 C101 0.950 . S
H104 C88 0.951 . S
H105 C90 0.951 . S
H106 C92 0.951 . S
H107 C93 0.950 . S
H108 C94 0.950 . S
H109 C95 0.950 . S
H110 C97 0.950 . S
H111 C98 0.951 . S
C41 C18 1.427 . S
C51 C9 1.485 1_445 S
C65 C15 1.498 1_565 S
C75 C6 1.489 1_554 S
C89 C19 1.486 1_556 S
C99 C10 1.496 1_654 S
