# Generated by pormake.
# Topology sml, (6)-cn, num edge types: 1
# Building blocks:
#     Node 0, Type 0, BuildingBlock: LEVNOQ01_clean_sbu_1, # of connection points: 6
#     Node 1, Type 0, BuildingBlock: LEVNOQ01_clean_sbu_1, # of connection points: 6
#     Node 2, Type 0, BuildingBlock: LEVNOQ01_clean_sbu_1, # of connection points: 6
#     Node 3, Type 0, BuildingBlock: LEVNOQ01_clean_sbu_1, # of connection points: 6
#     Node 4, Type 0, BuildingBlock: LEVNOQ01_clean_sbu_1, # of connection points: 6
#     Node 5, Type 0, BuildingBlock: LEVNOQ01_clean_sbu_1, # of connection points: 6
#     Edge 6, Type (0, 0), None
#     Edge 7, Type (0, 0), None
#     Edge 8, Type (0, 0), None
#     Edge 9, Type (0, 0), None
#     Edge 10, Type (0, 0), None
#     Edge 11, Type (0, 0), None
#     Edge 12, Type (0, 0), None
#     Edge 13, Type (0, 0), None
#     Edge 14, Type (0, 0), None
#     Edge 15, Type (0, 0), None
#     Edge 16, Type (0, 0), None
#     Edge 17, Type (0, 0), None
#     Edge 18, Type (0, 0), None
#     Edge 19, Type (0, 0), None
#     Edge 20, Type (0, 0), None
#     Edge 21, Type (0, 0), None
#     Edge 22, Type (0, 0), None
#     Edge 23, Type (0, 0), None
# Relax obj value: 0.142
# Max RMSD: 0.172
# Mean RMSD: 0.172
data_MOF--net-sml--node1-LEVNOQ01_clean_sbu_1--edge1-none
_symmetry_space_group_name_H-M    P1
_symmetry_Int_Tables_number       1
_symmetry_cell_setting            triclinic
loop_
_symmetry_equiv_pos_as_xyz
'x, y, z'
_cell_length_a     19.556745
_cell_length_b     19.555573
_cell_length_c     7.7082008
_cell_angle_alpha  89.993581
_cell_angle_beta   90.009632
_cell_angle_gamma 120.00233
loop_
_atom_site_label
_atom_site_type_symbol
_atom_site_fract_x
_atom_site_fract_y
_atom_site_fract_z
_atom_type_partial_charge
O0 O 0.12995 0.29813 0.56163 0.0
Mg1 Mg 0.07005 0.2226 0.77664 0.0
O2 O 0.18351 0.41622 0.68566 0.0
Mg3 Mg 0.19164 0.3898 -0.02969 0.0
O4 O 0.07329 0.28013 0.0023 0.0
O5 O -0.03677 0.21491 0.86619 0.0
O6 O 0.20011 0.3647 0.25736 0.0
O7 O 0.13283 0.46116 0.07764 0.0
Mg8 Mg 0.30239 0.55562 0.15942 0.0
O9 O 0.31366 0.49858 0.95118 0.0
O10 O 0.25351 0.48311 0.38204 0.0
O11 O 0.22032 0.58653 0.055 0.0
O12 O 0.41677 0.60283 0.06211 0.0
C13 C 0.22025 0.23983 0.82905 0.0
C14 C 0.1735 0.37246 0.55453 0.0
C15 C -0.00056 0.25673 -0.0007 0.0
C16 C 0.21194 0.4085 0.38985 0.0
C17 C 0.15141 0.53332 0.09809 0.0
C18 C 0.38242 0.56014 0.92772 0.0
O19 O 0.1508 0.19038 0.87928 0.0
O20 O 0.24592 0.3138 0.85221 0.0
O21 O 0.80491 0.14352 0.89505 0.0
Mg22 Mg 0.82054 0.08362 0.11008 0.0
O23 O 0.74036 0.19706 0.01903 0.0
Mg24 Mg 0.77491 0.20519 0.30368 0.0
O25 O 0.76621 0.08682 0.33571 0.0
O26 O 0.7214 -0.02322 0.19955 0.0
O27 O 0.80846 0.21365 0.59073 0.0
O28 O 0.64474 0.14637 0.41098 0.0
Mg29 Mg 0.71985 0.31594 0.49274 0.0
O30 O 0.78816 0.32722 0.28451 0.0
O31 O 0.74347 0.26706 0.71538 0.0
O32 O 0.60686 0.23387 0.38831 0.0
O33 O 0.78704 0.43033 0.39544 0.0
C34 C 0.95351 0.2338 0.16271 0.0
C35 C 0.77411 0.18705 0.88792 0.0
C36 C 0.71575 0.01296 0.33264 0.0
C37 C 0.77651 0.22549 0.72322 0.0
C38 C 0.59115 0.16495 0.43142 0.0
C39 C 0.79537 0.39598 0.26106 0.0
O40 O 0.93352 0.16432 0.21275 0.0
O41 O 0.90521 0.25949 0.18565 0.0
O42 O 0.63436 0.81841 0.22829 0.0
Mg43 Mg 0.70988 0.83401 0.44332 0.0
O44 O 0.51627 0.75385 0.35227 0.0
Mg45 Mg 0.54268 0.78837 0.6369 0.0
O46 O 0.65234 0.77966 0.66894 0.0
O47 O 0.71754 0.73484 0.5328 0.0
O48 O 0.56778 0.82191 0.92393 0.0
O49 O 0.4713 0.65816 0.74411 0.0
Mg50 Mg 0.37688 0.73334 0.826 0.0
O51 O 0.43392 0.80164 0.61773 0.0
O52 O 0.44939 0.75698 0.04863 0.0
O53 O 0.34586 0.6203 0.72167 0.0
O54 O 0.3297 0.80054 0.7287 0.0
C55 C 0.69271 0.967 0.49603 0.0
C56 C 0.56003 0.78761 0.22116 0.0
C57 C 0.67573 0.7292 0.6659 0.0
C58 C 0.52399 0.79 0.05645 0.0
C59 C 0.39911 0.60461 0.76445 0.0
C60 C 0.37237 0.80886 0.5943 0.0
O61 O 0.74217 0.94698 0.54607 0.0
O62 O 0.61872 0.9187 0.51893 0.0
O63 O 0.78898 0.64792 0.56158 0.0
Mg64 Mg 0.84887 0.72347 0.77658 0.0
O65 O 0.73546 0.52982 0.6856 0.0
Mg66 Mg 0.72735 0.55622 -0.02978 0.0
O67 O 0.84569 0.66591 0.00216 0.0
O68 O 0.95573 0.73124 0.8661 0.0
O69 O 0.71892 0.58131 0.25724 0.0
O70 O 0.78622 0.48487 0.07744 0.0
Mg71 Mg 0.61662 0.39039 0.15939 0.0
O72 O 0.60534 0.44744 0.95113 0.0
O73 O 0.66548 0.46292 0.38198 0.0
O74 O 0.69865 0.35942 0.05501 0.0
O75 O 0.50223 0.34319 0.06207 0.0
C76 C 0.69867 0.70619 0.82929 0.0
C77 C 0.74547 0.57358 0.55447 0.0
C78 C 0.91956 0.68936 -0.00085 0.0
C79 C 0.70705 0.53753 0.38977 0.0
C80 C 0.7676 0.41268 0.09778 0.0
C81 C 0.53658 0.38587 0.92768 0.0
O82 O 0.76815 0.75569 0.87932 0.0
O83 O 0.67301 0.6322 0.85222 0.0
O84 O 0.11408 0.80255 0.89486 0.0
Mg85 Mg 0.09845 0.86245 0.10988 0.0
O86 O 0.17864 0.74902 0.0189 0.0
Mg87 Mg 0.14411 0.7409 0.30352 0.0
O88 O 0.15279 0.85925 0.33553 0.0
O89 O 0.19758 0.9693 0.19941 0.0
O90 O 0.11056 0.73245 0.59054 0.0
O91 O 0.27432 0.79973 0.41074 0.0
Mg92 Mg 0.19914 0.63017 0.4926 0.0
O93 O 0.13083 0.61887 0.28428 0.0
O94 O 0.17554 0.67904 0.71527 0.0
O95 O 0.31218 0.71215 0.38827 0.0
O96 O 0.13193 0.51573 0.39565 0.0
C97 C -0.03451 0.71228 0.16257 0.0
C98 C 0.14488 0.75903 0.88776 0.0
C99 C 0.20323 0.93311 0.3325 0.0
C100 C 0.14251 0.72061 0.72307 0.0
C101 C 0.32788 0.7811 0.43105 0.0
C102 C 0.1236 0.55007 0.26121 0.0
O103 O -0.0145 0.78176 0.2126 0.0
O104 O 0.01379 0.68659 0.18551 0.0
O105 O 0.28462 0.12764 0.22824 0.0
Mg106 Mg 0.20915 0.11207 0.44331 0.0
O107 O 0.4027 0.19221 0.35225 0.0
Mg108 Mg 0.37628 0.15765 0.63688 0.0
O109 O 0.26663 0.16635 0.66908 0.0
O110 O 0.20145 0.21124 0.53256 0.0
O111 O 0.35118 0.12408 0.92393 0.0
O112 O 0.44768 0.28785 0.74409 0.0
Mg113 Mg 0.54202 0.21265 0.82592 0.0
O114 O 0.48502 0.14437 0.61756 0.0
O115 O 0.46958 0.18906 0.04863 0.0
O116 O 0.57311 0.32572 0.72164 0.0
O117 O 0.58924 0.14545 0.72898 0.0
C118 C 0.22625 -0.02095 0.49591 0.0
C119 C 0.35894 0.15843 0.22112 0.0
C120 C 0.24321 0.21679 0.66575 0.0
C121 C 0.39498 0.15603 0.05644 0.0
C122 C 0.51987 0.34141 0.76441 0.0
C123 C 0.54659 0.13713 0.59453 0.0
O124 O 0.17678 -0.00094 0.54589 0.0
O125 O 0.30023 0.02734 0.51888 0.0
loop_
_geom_bond_atom_site_label_1
_geom_bond_atom_site_label_2
_geom_bond_distance
_geom_bond_site_symmetry_2
_ccdc_geom_bond_type
O0 Mg1 1.990 . S
O0 C14 1.253 . S
Mg1 O0 1.990 . S
Mg1 O4 2.180 1_556 S
Mg1 O5 2.117 1_455 S
Mg1 O19 2.030 . S
O2 Mg3 2.072 1_556 S
O2 C14 1.260 . S
Mg3 O2 2.072 1_554 S
Mg3 O4 2.099 . S
Mg3 O6 2.079 . S
Mg3 O7 2.072 . S
Mg3 O9 2.099 . S
Mg3 O20 2.079 1_554 S
O4 Mg1 2.180 1_554 S
O4 Mg3 2.099 . S
O4 C15 1.279 . S
O5 Mg1 2.117 1_655 S
O5 C15 1.250 1_656 S
O6 Mg3 2.079 . S
O6 C16 1.264 . S
O7 Mg3 2.072 . S
O7 C17 1.260 . S
Mg8 O9 2.180 . S
Mg8 O10 2.030 . S
Mg8 O11 1.990 . S
Mg8 O12 2.117 1_554 S
O9 Mg3 2.099 . S
O9 Mg8 2.180 . S
O9 C18 1.279 1_554 S
O10 Mg8 2.030 . S
O10 C16 1.248 . S
O11 Mg8 1.990 . S
O11 C17 1.253 . S
O12 Mg8 2.117 1_556 S
O12 C18 1.250 . S
C13 O19 1.248 . S
C13 O20 1.264 . S
C14 O0 1.253 . S
C14 O2 1.260 . S
C15 O4 1.279 . S
C15 O5 1.250 1_454 S
C16 O6 1.264 . S
C16 O10 1.248 . S
C17 O7 1.260 . S
C17 O11 1.253 . S
C18 O9 1.279 1_556 S
C18 O12 1.250 . S
O19 Mg1 2.030 . S
O19 C13 1.248 . S
O20 Mg3 2.079 1_556 S
O20 C13 1.264 . S
O21 Mg22 1.990 1_556 S
O21 C35 1.253 . S
Mg22 O21 1.990 1_554 S
Mg22 O25 2.180 . S
Mg22 O26 2.117 1_545 S
Mg22 O40 2.030 . S
O23 Mg24 2.072 . S
O23 C35 1.260 1_554 S
Mg24 O23 2.072 . S
Mg24 O25 2.099 . S
Mg24 O27 2.079 . S
Mg24 O28 2.072 . S
Mg24 O30 2.099 . S
Mg24 O41 2.079 . S
O25 Mg22 2.180 . S
O25 Mg24 2.099 . S
O25 C36 1.279 . S
O26 Mg22 2.117 1_565 S
O26 C36 1.250 1_565 S
O27 Mg24 2.079 . S
O27 C37 1.264 . S
O28 Mg24 2.072 . S
O28 C38 1.260 . S
Mg29 O30 2.180 . S
Mg29 O31 2.030 . S
Mg29 O32 1.990 . S
Mg29 O33 2.117 . S
O30 Mg24 2.099 . S
O30 Mg29 2.180 . S
O30 C39 1.279 . S
O31 Mg29 2.030 . S
O31 C37 1.248 . S
O32 Mg29 1.990 . S
O32 C38 1.253 . S
O33 Mg29 2.117 . S
O33 C39 1.250 . S
C34 O40 1.248 . S
C34 O41 1.264 . S
C35 O21 1.253 . S
C35 O23 1.260 1_556 S
C36 O25 1.279 . S
C36 O26 1.250 1_545 S
C37 O27 1.264 . S
C37 O31 1.248 . S
C38 O28 1.260 . S
C38 O32 1.253 . S
C39 O30 1.279 . S
C39 O33 1.250 . S
O40 Mg22 2.030 . S
O40 C34 1.248 . S
O41 Mg24 2.079 . S
O41 C34 1.264 . S
O42 Mg43 1.990 . S
O42 C56 1.253 . S
Mg43 O42 1.990 . S
Mg43 O46 2.180 . S
Mg43 O47 2.117 . S
Mg43 O61 2.030 . S
O44 Mg45 2.072 . S
O44 C56 1.260 . S
Mg45 O44 2.072 . S
Mg45 O46 2.099 . S
Mg45 O48 2.079 . S
Mg45 O49 2.072 . S
Mg45 O51 2.099 . S
Mg45 O62 2.079 . S
O46 Mg43 2.180 . S
O46 Mg45 2.099 . S
O46 C57 1.279 . S
O47 Mg43 2.117 . S
O47 C57 1.250 . S
O48 Mg45 2.079 . S
O48 C58 1.264 1_556 S
O49 Mg45 2.072 . S
O49 C59 1.260 . S
Mg50 O51 2.180 . S
Mg50 O52 2.030 1_556 S
Mg50 O53 1.990 . S
Mg50 O54 2.117 . S
O51 Mg45 2.099 . S
O51 Mg50 2.180 . S
O51 C60 1.279 . S
O52 Mg50 2.030 1_554 S
O52 C58 1.248 . S
O53 Mg50 1.990 . S
O53 C59 1.253 . S
O54 Mg50 2.117 . S
O54 C60 1.250 . S
C55 O61 1.248 . S
C55 O62 1.264 . S
C56 O42 1.253 . S
C56 O44 1.260 . S
C57 O46 1.279 . S
C57 O47 1.250 . S
C58 O48 1.264 1_554 S
C58 O52 1.248 . S
C59 O49 1.260 . S
C59 O53 1.253 . S
C60 O51 1.279 . S
C60 O54 1.250 . S
O61 Mg43 2.030 . S
O61 C55 1.248 . S
O62 Mg45 2.079 . S
O62 C55 1.264 . S
O63 Mg64 1.990 . S
O63 C77 1.253 . S
Mg64 O63 1.990 . S
Mg64 O67 2.180 1_556 S
Mg64 O68 2.117 1_655 S
Mg64 O82 2.030 . S
O65 Mg66 2.072 1_556 S
O65 C77 1.260 . S
Mg66 O65 2.072 1_554 S
Mg66 O67 2.099 . S
Mg66 O69 2.079 . S
Mg66 O70 2.072 . S
Mg66 O72 2.099 . S
Mg66 O83 2.079 1_554 S
O67 Mg64 2.180 1_554 S
O67 Mg66 2.099 . S
O67 C78 1.279 . S
O68 Mg64 2.117 1_455 S
O68 C78 1.250 1_456 S
O69 Mg66 2.079 . S
O69 C79 1.264 . S
O70 Mg66 2.072 . S
O70 C80 1.260 . S
Mg71 O72 2.180 . S
Mg71 O73 2.030 . S
Mg71 O74 1.990 . S
Mg71 O75 2.117 1_554 S
O72 Mg66 2.099 . S
O72 Mg71 2.180 . S
O72 C81 1.279 1_554 S
O73 Mg71 2.030 . S
O73 C79 1.248 . S
O74 Mg71 1.990 . S
O74 C80 1.253 . S
O75 Mg71 2.117 1_556 S
O75 C81 1.250 . S
C76 O82 1.248 . S
C76 O83 1.264 . S
C77 O63 1.253 . S
C77 O65 1.260 . S
C78 O67 1.279 . S
C78 O68 1.250 1_654 S
C79 O69 1.264 . S
C79 O73 1.248 . S
C80 O70 1.260 . S
C80 O74 1.253 . S
C81 O72 1.279 1_556 S
C81 O75 1.250 . S
O82 Mg64 2.030 . S
O82 C76 1.248 . S
O83 Mg66 2.079 1_556 S
O83 C76 1.264 . S
O84 Mg85 1.990 1_556 S
O84 C98 1.253 . S
Mg85 O84 1.990 1_554 S
Mg85 O88 2.180 . S
Mg85 O89 2.117 1_565 S
Mg85 O103 2.030 . S
O86 Mg87 2.072 . S
O86 C98 1.260 1_554 S
Mg87 O86 2.072 . S
Mg87 O88 2.099 . S
Mg87 O90 2.079 . S
Mg87 O91 2.072 . S
Mg87 O93 2.099 . S
Mg87 O104 2.079 . S
O88 Mg85 2.180 . S
O88 Mg87 2.099 . S
O88 C99 1.279 . S
O89 Mg85 2.117 1_545 S
O89 C99 1.250 1_545 S
O90 Mg87 2.079 . S
O90 C100 1.264 . S
O91 Mg87 2.072 . S
O91 C101 1.260 . S
Mg92 O93 2.180 . S
Mg92 O94 2.030 . S
Mg92 O95 1.990 . S
Mg92 O96 2.117 . S
O93 Mg87 2.099 . S
O93 Mg92 2.180 . S
O93 C102 1.279 . S
O94 Mg92 2.030 . S
O94 C100 1.248 . S
O95 Mg92 1.990 . S
O95 C101 1.253 . S
O96 Mg92 2.117 . S
O96 C102 1.250 . S
C97 O103 1.248 . S
C97 O104 1.264 . S
C98 O84 1.253 . S
C98 O86 1.260 1_556 S
C99 O88 1.279 . S
C99 O89 1.250 1_565 S
C100 O90 1.264 . S
C100 O94 1.248 . S
C101 O91 1.260 . S
C101 O95 1.253 . S
C102 O93 1.279 . S
C102 O96 1.250 . S
O103 Mg85 2.030 . S
O103 C97 1.248 . S
O104 Mg87 2.079 . S
O104 C97 1.264 . S
O105 Mg106 1.990 . S
O105 C119 1.253 . S
Mg106 O105 1.990 . S
Mg106 O109 2.180 . S
Mg106 O110 2.117 . S
Mg106 O124 2.030 . S
O107 Mg108 2.072 . S
O107 C119 1.260 . S
Mg108 O107 2.072 . S
Mg108 O109 2.099 . S
Mg108 O111 2.079 . S
Mg108 O112 2.072 . S
Mg108 O114 2.099 . S
Mg108 O125 2.079 . S
O109 Mg106 2.180 . S
O109 Mg108 2.099 . S
O109 C120 1.279 . S
O110 Mg106 2.117 . S
O110 C120 1.250 . S
O111 Mg108 2.079 . S
O111 C121 1.264 1_556 S
O112 Mg108 2.072 . S
O112 C122 1.260 . S
Mg113 O114 2.180 . S
Mg113 O115 2.030 1_556 S
Mg113 O116 1.990 . S
Mg113 O117 2.117 . S
O114 Mg108 2.099 . S
O114 Mg113 2.180 . S
O114 C123 1.279 . S
O115 Mg113 2.030 1_554 S
O115 C121 1.248 . S
O116 Mg113 1.990 . S
O116 C122 1.253 . S
O117 Mg113 2.117 . S
O117 C123 1.250 . S
C118 O124 1.248 . S
C118 O125 1.264 . S
C119 O105 1.253 . S
C119 O107 1.260 . S
C120 O109 1.279 . S
C120 O110 1.250 . S
C121 O111 1.264 1_554 S
C121 O115 1.248 . S
C122 O112 1.260 . S
C122 O116 1.253 . S
C123 O114 1.279 . S
C123 O117 1.250 . S
O124 Mg106 2.030 . S
O124 C118 1.248 . S
O125 Mg108 2.079 . S
O125 C118 1.264 . S
C120 C13 1.476 . S
C15 C34 1.476 1_455 S
C36 C55 1.476 1_545 S
C57 C76 1.476 . S
C97 C78 1.476 1_455 S
C118 C99 1.476 1_545 S
C14 C16 1.685 . S
C35 C37 1.685 . S
C56 C58 1.685 . S
C77 C79 1.685 . S
C100 C98 1.685 . S
C119 C121 1.685 . S
C17 C102 1.132 . S
C38 C123 1.132 . S
C18 C59 1.132 . S
C39 C80 1.132 . S
C101 C60 1.132 . S
C81 C122 1.132 . S
