# Generated by pormake.
# Topology dmp, (4)-cn, num edge types: 1
# Building blocks:
#     Node 0, Type 0, BuildingBlock: QUQFOY_clean_sbu_1, # of connection points: 4
#     Node 1, Type 0, BuildingBlock: QUQFOY_clean_sbu_1, # of connection points: 4
#     Node 2, Type 0, BuildingBlock: QUQFOY_clean_sbu_1, # of connection points: 4
#     Node 3, Type 0, BuildingBlock: QUQFOY_clean_sbu_1, # of connection points: 4
#     Edge 4, Type (0, 0), BuildingBlock: FUNLAD_clean_linker_0, # of connection points: 2
#     Edge 5, Type (0, 0), BuildingBlock: FUNLAD_clean_linker_0, # of connection points: 2
#     Edge 6, Type (0, 0), BuildingBlock: FUNLAD_clean_linker_0, # of connection points: 2
#     Edge 7, Type (0, 0), BuildingBlock: FUNLAD_clean_linker_0, # of connection points: 2
#     Edge 8, Type (0, 0), BuildingBlock: FUNLAD_clean_linker_0, # of connection points: 2
#     Edge 9, Type (0, 0), BuildingBlock: FUNLAD_clean_linker_0, # of connection points: 2
#     Edge 10, Type (0, 0), BuildingBlock: FUNLAD_clean_linker_0, # of connection points: 2
#     Edge 11, Type (0, 0), BuildingBlock: FUNLAD_clean_linker_0, # of connection points: 2
# Relax obj value: 0.007
# Max RMSD: 0.062
# Mean RMSD: 0.062
data_MOF--net-dmp--node1-QUQFOY_clean_sbu_1--edge1-FUNLAD_clean_linker_0
_symmetry_space_group_name_H-M    P1
_symmetry_Int_Tables_number       1
_symmetry_cell_setting            triclinic
loop_
_symmetry_equiv_pos_as_xyz
'x, y, z'
_cell_length_a     46.878048
_cell_length_b     21.649297
_cell_length_c     22.896532
_cell_angle_alpha  90.035931
_cell_angle_beta   90.149232
_cell_angle_gamma 89.990627
loop_
_atom_site_label
_atom_site_type_symbol
_atom_site_fract_x
_atom_site_fract_y
_atom_site_fract_z
_atom_type_partial_charge
O0 O 0.13636 0.34652 0.26133 0.0
Cd1 Cd 0.11381 0.28277 0.30893 0.0
Cd2 Cd 0.11277 0.2281 0.19745 0.0
O3 O 0.1344 0.30708 0.17239 0.0
O4 O 0.10793 0.32689 0.38441 0.0
O5 O 0.07235 0.30042 0.32617 0.0
C6 C 0.08102 0.32783 0.37311 0.0
C7 C 0.07681 0.18519 0.13912 0.0
C8 C 0.14249 0.34925 0.20737 0.0
C9 C 0.14324 0.16112 0.29639 0.0
O10 O 0.13626 0.16393 0.2428 0.0
O11 O 0.13561 0.20318 0.33185 0.0
O12 O 0.1032 0.18369 0.12364 0.0
O13 O 0.07053 0.21385 0.18693 0.0
O14 O 0.35806 0.84444 0.25052 0.0
Cd15 Cd 0.382 0.78526 0.20012 0.0
Cd16 Cd 0.38269 0.72405 0.30773 0.0
O17 O 0.362 0.80209 0.3378 0.0
O18 O 0.38734 0.83408 0.12712 0.0
O19 O 0.42326 0.80618 0.18375 0.0
C20 C 0.41427 0.83541 0.13811 0.0
C21 C 0.41831 0.67678 0.36397 0.0
C22 C 0.35263 0.84481 0.30489 0.0
C23 C 0.35217 0.6638 0.20495 0.0
O24 O 0.35805 0.66427 0.25918 0.0
O25 O 0.36135 0.70638 0.17174 0.0
O26 O 0.39187 0.67497 0.37904 0.0
O27 O 0.42481 0.70754 0.31752 0.0
O28 O 0.86103 0.66566 0.74309 0.0
Cd29 Cd 0.8836 0.72856 0.6942 0.0
Cd30 Cd 0.8822 0.78714 0.80362 0.0
O31 O 0.86204 0.70748 0.83108 0.0
O32 O 0.88944 0.68199 0.62001 0.0
O33 O 0.9251 0.71057 0.67702 0.0
C34 C 0.91638 0.68169 0.63093 0.0
C35 C 0.9176 0.8346 0.86016 0.0
C36 C 0.85461 0.66401 0.79696 0.0
C37 C 0.85169 0.84794 0.7015 0.0
O38 O 0.85737 0.84676 0.75579 0.0
O39 O 0.86148 0.80653 0.66763 0.0
O40 O 0.8912 0.83512 0.87573 0.0
O41 O 0.92419 0.80472 0.8132 0.0
O42 O 0.6358 0.16577 0.76533 0.0
Cd43 Cd 0.61329 0.2294 0.81363 0.0
Cd44 Cd 0.61477 0.28698 0.70398 0.0
O45 O 0.63511 0.20724 0.67724 0.0
O46 O 0.60729 0.18375 0.88822 0.0
O47 O 0.57173 0.21235 0.83098 0.0
C48 C 0.58034 0.18393 0.87737 0.0
C49 C 0.57916 0.33285 0.64689 0.0
C50 C 0.6424 0.16386 0.71155 0.0
C51 C 0.64519 0.3488 0.80565 0.0
O52 O 0.63945 0.3474 0.75139 0.0
O53 O 0.63549 0.30745 0.83964 0.0
O54 O 0.60557 0.33388 0.63142 0.0
O55 O 0.5727 0.30354 0.69421 0.0
C56 C 0.32226 0.93805 0.29021 0.0
C57 C 0.33218 0.89115 0.32752 0.0
C58 C 0.2989 0.9741 0.30583 0.0
C59 C 0.28495 0.96433 0.35922 0.0
C60 C 0.2963 0.92155 0.39896 0.0
C61 C 0.31969 0.88482 0.3831 0.0
C62 C 0.25747 0.99569 0.371 0.0
C63 C 0.23706 0.99614 0.32948 0.0
C64 C 0.21006 0.0319 0.33154 0.0
C65 C 0.18955 0.01968 0.2883 0.0
C66 C 0.16651 0.05935 0.27994 0.0
C67 C 0.16337 0.11226 0.31478 0.0
H68 H 0.2212 0.09352 0.40311 0.0
C69 C 0.18248 0.12193 0.36135 0.0
C70 C 0.20578 0.08222 0.36955 0.0
H71 H 0.18064 0.16252 0.38877 0.0
H72 H 0.33162 0.94502 0.24751 0.0
H73 H 0.29101 0.00813 0.27509 0.0
H74 H 0.28604 0.91392 0.44068 0.0
H75 H 0.32695 0.84938 0.41301 0.0
H76 H 0.25395 0.01644 0.41351 0.0
H77 H 0.24087 0.9698 0.28973 0.0
H78 H 0.19217 0.98108 0.25863 0.0
H79 H 0.15198 0.0503 0.24405 0.0
C80 C 0.18195 0.3875 0.14308 0.0
C81 C 0.16218 0.39833 0.18801 0.0
C82 C 0.20509 0.42763 0.13508 0.0
C83 C 0.20851 0.47954 0.17159 0.0
C84 C 0.18725 0.49289 0.21276 0.0
C85 C 0.16441 0.45274 0.22103 0.0
C86 C 0.23532 0.51594 0.17467 0.0
C87 C 0.25681 0.51389 0.13579 0.0
C88 C 0.2841 0.54533 0.14945 0.0
C89 C 0.29686 0.58523 0.10898 0.0
C90 C 0.32027 0.62163 0.12561 0.0
C91 C 0.33141 0.61776 0.1827 0.0
H92 H 0.28757 0.50629 0.23631 0.0
C93 C 0.31999 0.57376 0.22123 0.0
C94 C 0.29657 0.53813 0.20484 0.0
H95 H 0.32823 0.56876 0.26521 0.0
H96 H 0.18079 0.3457 0.11717 0.0
H97 H 0.22104 0.41544 0.10306 0.0
H98 H 0.18918 0.53273 0.2412 0.0
H99 H 0.14935 0.4626 0.25562 0.0
H100 H 0.23813 0.5446 0.21336 0.0
H101 H 0.25446 0.49054 0.09413 0.0
H102 H 0.28776 0.59081 0.06577 0.0
H103 H 0.3287 0.65478 0.09473 0.0
C104 C 0.68123 0.12475 0.64603 0.0
C105 C 0.66183 0.1144 0.69173 0.0
C106 C 0.70411 0.08414 0.6371 0.0
C107 C 0.70766 0.03222 0.67346 0.0
C108 C 0.68676 0.01939 0.71552 0.0
C109 C 0.66416 0.06 0.72468 0.0
C110 C 0.73436 0.99533 0.67543 0.0
C111 C 0.75545 0.99691 0.63562 0.0
C112 C 0.78285 0.96551 0.64832 0.0
C113 C 0.79532 0.92556 0.60744 0.0
C114 C 0.81895 0.88941 0.62324 0.0
C115 C 0.8306 0.89359 0.67989 0.0
H116 H 0.78706 1.00492 0.73493 0.0
C117 C 0.81943 0.93762 0.71876 0.0
C118 C 0.79581 0.973 0.7032 0.0
H119 H 0.82807 0.9429 0.7624 0.0
H120 H 0.68 0.16649 0.62008 0.0
H121 H 0.7198 0.09597 0.60443 0.0
H122 H 0.68879 0.97956 0.74389 0.0
H123 H 0.64938 0.05045 0.75984 0.0
H124 H 0.73748 0.96682 0.71408 0.0
H125 H 0.75272 0.02009 0.59398 0.0
H126 H 0.78585 0.91978 0.56458 0.0
H127 H 0.82717 0.85621 0.59213 0.0
C128 C 0.81558 0.62563 0.86229 0.0
C129 C 0.8352 0.61471 0.81709 0.0
C130 C 0.79266 0.58512 0.87116 0.0
C131 C 0.7893 0.53273 0.83526 0.0
C132 C 0.81043 0.51935 0.79381 0.0
C133 C 0.83306 0.55987 0.78468 0.0
C134 C 0.76261 0.49585 0.83302 0.0
C135 C 0.74124 0.49817 0.87215 0.0
C136 C 0.71391 0.46666 0.85906 0.0
C137 C 0.70112 0.42747 0.90011 0.0
C138 C 0.67754 0.39123 0.88415 0.0
C139 C 0.66626 0.39457 0.82714 0.0
H140 H 0.71033 0.50464 0.77179 0.0
C141 C 0.67776 0.43785 0.78798 0.0
C142 C 0.70133 0.47331 0.80371 0.0
H143 H 0.66941 0.44246 0.74404 0.0
H144 H 0.81666 0.66773 0.88779 0.0
H145 H 0.77681 0.59737 0.90337 0.0
H146 H 0.80855 0.47916 0.76581 0.0
H147 H 0.84801 0.54991 0.74991 0.0
H148 H 0.75975 0.46671 0.79467 0.0
H149 H 0.74367 0.52204 0.91353 0.0
H150 H 0.71029 0.42235 0.94331 0.0
H151 H 0.66906 0.35864 0.91549 0.0
C152 C 0.06279 0.11925 0.05392 0.0
C153 C 0.05496 0.15132 0.10485 0.0
C154 C 0.04302 0.08256 0.02408 0.0
C155 C 0.01489 0.07673 0.0447 0.0
C156 C 0.00679 0.11073 0.09429 0.0
C157 C 0.02661 0.14742 0.12425 0.0
C158 C 0.99338 0.03653 0.01537 0.0
C159 C 0.00023 0.98719 0.98206 0.0
C160 C 0.97879 0.94669 0.95287 0.0
C161 C 0.98715 0.91171 0.90406 0.0
C162 C 0.96753 0.87414 0.87455 0.0
C163 C 0.93912 0.87032 0.89359 0.0
H164 H 0.94342 0.96536 0.01165 0.0
C165 C 0.93099 0.90366 0.94358 0.0
C166 C 0.95056 0.94124 0.973 0.0
H167 H 0.90933 0.90132 0.9598 0.0
H168 H 0.08439 0.12173 0.03739 0.0
H169 H 0.04994 0.05927 0.9848 0.0
H170 H 0.98517 0.10782 0.11074 0.0
H171 H 0.01985 0.17165 0.16323 0.0
H172 H 0.97113 0.04779 0.02275 0.0
H173 H 0.0225 0.97596 0.97481 0.0
H174 H 0.00883 0.91433 0.88798 0.0
H175 H 0.97452 0.84894 0.83629 0.0
C176 C 0.53228 0.13739 0.89779 0.0
C177 C 0.56052 0.14905 0.91532 0.0
C178 C 0.51463 0.09916 0.93133 0.0
C179 C 0.52493 0.07187 0.98315 0.0
C180 C 0.55273 0.08581 1.00172 0.0
C181 C 0.57039 0.12355 0.96808 0.0
C182 C 0.50745 0.02922 0.01938 0.0
C183 C 0.48597 0.99462 0.9978 0.0
C184 C 0.46866 0.95155 0.03393 0.0
C185 C 0.44085 0.9374 0.01554 0.0
C186 C 0.42349 0.89863 0.04878 0.0
C187 C 0.43367 0.87229 0.10093 0.0
H188 H 0.50087 0.93164 0.09988 0.0
C189 C 0.46188 0.88446 0.11838 0.0
C190 C 0.47923 0.92371 0.08525 0.0
H191 H 0.4704 0.86458 0.15817 0.0
H192 H 0.524 0.15664 0.85752 0.0
H193 H 0.493 0.09142 0.91651 0.0
H194 H 0.56112 0.06618 0.04177 0.0
H195 H 0.59198 0.1319 0.98308 0.0
H196 H 0.51319 0.02523 0.06518 0.0
H197 H 0.48021 0.9986 0.95201 0.0
H198 H 0.43227 0.95747 0.97586 0.0
H199 H 0.40191 0.88995 0.03386 0.0
C200 C 0.964 0.63241 0.61191 0.0
C201 C 0.93604 0.64566 0.59355 0.0
C202 C 0.98137 0.59292 0.57902 0.0
C203 C 0.97108 0.566 0.527 0.0
C204 C 0.9436 0.58153 0.50757 0.0
C205 C 0.9262 0.62048 0.5406 0.0
C206 C 0.98829 0.52225 0.49136 0.0
C207 C 0.00906 0.48615 0.5137 0.0
C208 C 0.02625 0.44242 0.47799 0.0
C209 C 0.05373 0.42675 0.49735 0.0
C210 C 0.07114 0.38804 0.46409 0.0
C211 C 0.06132 0.36327 0.41094 0.0
H212 H 0.99453 0.42481 0.41045 0.0
C213 C 0.03334 0.37657 0.39271 0.0
C214 C 0.01596 0.41576 0.42585 0.0
H215 H 0.0251 0.35793 0.35213 0.0
H216 H 0.97224 0.65134 0.65236 0.0
H217 H 0.0028 0.5839 0.59446 0.0
H218 H 0.93525 0.56221 0.46734 0.0
H219 H 0.90482 0.63003 0.52498 0.0
H220 H 0.98299 0.51885 0.44529 0.0
H221 H 0.01437 0.48957 0.55977 0.0
H222 H 0.06208 0.44585 0.53768 0.0
H223 H 0.09253 0.37844 0.47962 0.0
C224 C 0.43203 0.60849 0.44763 0.0
C225 C 0.44003 0.64189 0.39763 0.0
C226 C 0.45186 0.5721 0.4776 0.0
C227 C 0.48023 0.56785 0.458 0.0
C228 C 0.48842 0.6028 0.40909 0.0
C229 C 0.46854 0.63923 0.37905 0.0
C230 C 0.50197 0.52872 0.48792 0.0
C231 C 0.49547 0.47949 0.5216 0.0
C232 C 0.5172 0.44053 0.55172 0.0
C233 C 0.50903 0.40613 0.60098 0.0
C234 C 0.52893 0.37007 0.63137 0.0
C235 C 0.55743 0.36718 0.61276 0.0
H236 H 0.55257 0.45973 0.49313 0.0
C237 C 0.5654 0.39995 0.56236 0.0
C238 C 0.54555 0.43603 0.53208 0.0
H239 H 0.58713 0.39828 0.54645 0.0
H240 H 0.4103 0.60999 0.46353 0.0
H241 H 0.44481 0.54801 0.5163 0.0
H242 H 0.51019 0.60109 0.3934 0.0
H243 H 0.47542 0.66451 0.34079 0.0
H244 H 0.52415 0.54091 0.48093 0.0
H245 H 0.4733 0.46727 0.52861 0.0
H246 H 0.48727 0.40806 0.61672 0.0
H247 H 0.52206 0.34526 0.66991 0.0
loop_
_geom_bond_atom_site_label_1
_geom_bond_atom_site_label_2
_geom_bond_distance
_geom_bond_site_symmetry_2
_ccdc_geom_bond_type
O0 Cd1 2.223 . S
O0 C8 1.315 . S
Cd1 O0 2.223 . S
Cd1 O4 2.297 . S
Cd1 O5 2.439 . S
Cd1 O11 2.240 . S
Cd2 O3 2.240 . S
Cd2 O10 2.223 . S
Cd2 O12 2.297 . S
Cd2 O13 2.439 . S
O3 Cd2 2.240 . S
O3 C8 1.279 . S
O4 Cd1 2.297 . S
O4 C6 1.247 . S
O5 Cd1 2.439 . S
O5 C6 1.208 . S
C6 O4 1.247 . S
C6 O5 1.208 . S
C7 O12 1.247 . S
C7 O13 1.208 . S
C8 O0 1.315 . S
C8 O3 1.279 . S
C9 O10 1.315 . S
C9 O11 1.279 . S
O10 Cd2 2.223 . S
O10 C9 1.315 . S
O11 Cd1 2.240 . S
O11 C9 1.279 . S
O12 Cd2 2.297 . S
O12 C7 1.247 . S
O13 Cd2 2.439 . S
O13 C7 1.208 . S
O14 Cd15 2.223 . S
O14 C22 1.315 . S
Cd15 O14 2.223 . S
Cd15 O18 2.297 . S
Cd15 O19 2.439 . S
Cd15 O25 2.240 . S
Cd16 O17 2.240 . S
Cd16 O24 2.223 . S
Cd16 O26 2.297 . S
Cd16 O27 2.439 . S
O17 Cd16 2.240 . S
O17 C22 1.279 . S
O18 Cd15 2.297 . S
O18 C20 1.247 . S
O19 Cd15 2.439 . S
O19 C20 1.208 . S
C20 O18 1.247 . S
C20 O19 1.208 . S
C21 O26 1.247 . S
C21 O27 1.208 . S
C22 O14 1.315 . S
C22 O17 1.279 . S
C23 O24 1.315 . S
C23 O25 1.279 . S
O24 Cd16 2.223 . S
O24 C23 1.315 . S
O25 Cd15 2.240 . S
O25 C23 1.279 . S
O26 Cd16 2.297 . S
O26 C21 1.247 . S
O27 Cd16 2.439 . S
O27 C21 1.208 . S
O28 Cd29 2.223 . S
O28 C36 1.315 . S
Cd29 O28 2.223 . S
Cd29 O32 2.297 . S
Cd29 O33 2.439 . S
Cd29 O39 2.240 . S
Cd30 O31 2.240 . S
Cd30 O38 2.223 . S
Cd30 O40 2.297 . S
Cd30 O41 2.439 . S
O31 Cd30 2.240 . S
O31 C36 1.279 . S
O32 Cd29 2.297 . S
O32 C34 1.247 . S
O33 Cd29 2.439 . S
O33 C34 1.208 . S
C34 O32 1.247 . S
C34 O33 1.208 . S
C35 O40 1.247 . S
C35 O41 1.208 . S
C36 O28 1.315 . S
C36 O31 1.279 . S
C37 O38 1.315 . S
C37 O39 1.279 . S
O38 Cd30 2.223 . S
O38 C37 1.315 . S
O39 Cd29 2.240 . S
O39 C37 1.279 . S
O40 Cd30 2.297 . S
O40 C35 1.247 . S
O41 Cd30 2.439 . S
O41 C35 1.208 . S
O42 Cd43 2.223 . S
O42 C50 1.315 . S
Cd43 O42 2.223 . S
Cd43 O46 2.297 . S
Cd43 O47 2.439 . S
Cd43 O53 2.240 . S
Cd44 O45 2.240 . S
Cd44 O52 2.223 . S
Cd44 O54 2.297 . S
Cd44 O55 2.439 . S
O45 Cd44 2.240 . S
O45 C50 1.279 . S
O46 Cd43 2.297 . S
O46 C48 1.247 . S
O47 Cd43 2.439 . S
O47 C48 1.208 . S
C48 O46 1.247 . S
C48 O47 1.208 . S
C49 O54 1.247 . S
C49 O55 1.208 . S
C50 O42 1.315 . S
C50 O45 1.279 . S
C51 O52 1.315 . S
C51 O53 1.279 . S
O52 Cd44 2.223 . S
O52 C51 1.315 . S
O53 Cd43 2.240 . S
O53 C51 1.279 . S
O54 Cd44 2.297 . S
O54 C49 1.247 . S
O55 Cd44 2.439 . S
O55 C49 1.208 . S
C56 C57 1.386 . S
C56 C58 1.383 . S
C56 H72 0.951 . S
C57 C56 1.386 . S
C57 C61 1.383 . S
C58 C56 1.383 . S
C58 C59 1.402 . S
C58 H73 0.951 . S
C59 C58 1.402 . S
C59 C60 1.375 . S
C59 C62 1.481 . S
C60 C59 1.375 . S
C60 C61 1.367 . S
C60 H74 0.951 . S
C61 C57 1.383 . S
C61 C60 1.367 . S
C61 H75 0.950 . S
C62 C59 1.481 . S
C62 C63 1.297 . S
C62 H76 0.950 . S
C63 C62 1.297 . S
C63 C64 1.479 1_565 S
C63 H77 0.950 . S
C64 C63 1.479 1_545 S
C64 C65 1.375 . S
C64 C70 1.404 . S
C65 C64 1.375 . S
C65 C66 1.369 . S
C65 H78 0.950 . S
C66 C65 1.369 . S
C66 C67 1.392 . S
C66 H79 0.951 . S
C67 C66 1.392 . S
C67 C69 1.384 . S
H68 C70 0.949 . S
C69 C67 1.384 . S
C69 C70 1.385 . S
C69 H71 0.950 . S
C70 C64 1.404 . S
C70 H68 0.949 . S
C70 C69 1.385 . S
H71 C69 0.950 . S
H72 C56 0.951 . S
H73 C58 0.951 . S
H74 C60 0.951 . S
H75 C61 0.950 . S
H76 C62 0.950 . S
H77 C63 0.950 . S
H78 C65 0.950 . S
H79 C66 0.951 . S
C80 C81 1.386 . S
C80 C82 1.383 . S
C80 H96 0.951 . S
C81 C80 1.386 . S
C81 C85 1.383 . S
C82 C80 1.383 . S
C82 C83 1.402 . S
C82 H97 0.951 . S
C83 C82 1.402 . S
C83 C84 1.375 . S
C83 C86 1.481 . S
C84 C83 1.375 . S
C84 C85 1.367 . S
C84 H98 0.951 . S
C85 C81 1.383 . S
C85 C84 1.367 . S
C85 H99 0.950 . S
C86 C83 1.481 . S
C86 C87 1.297 . S
C86 H100 0.950 . S
C87 C86 1.297 . S
C87 C88 1.479 . S
C87 H101 0.950 . S
C88 C87 1.479 . S
C88 C89 1.375 . S
C88 C94 1.404 . S
C89 C88 1.375 . S
C89 C90 1.369 . S
C89 H102 0.950 . S
C90 C89 1.369 . S
C90 C91 1.392 . S
C90 H103 0.951 . S
C91 C90 1.392 . S
C91 C93 1.384 . S
H92 C94 0.949 . S
C93 C91 1.384 . S
C93 C94 1.385 . S
C93 H95 0.950 . S
C94 C88 1.404 . S
C94 H92 0.949 . S
C94 C93 1.385 . S
H95 C93 0.950 . S
H96 C80 0.951 . S
H97 C82 0.951 . S
H98 C84 0.951 . S
H99 C85 0.950 . S
H100 C86 0.950 . S
H101 C87 0.950 . S
H102 C89 0.950 . S
H103 C90 0.951 . S
C104 C105 1.386 . S
C104 C106 1.383 . S
C104 H120 0.951 . S
C105 C104 1.386 . S
C105 C109 1.383 . S
C106 C104 1.383 . S
C106 C107 1.402 . S
C106 H121 0.951 . S
C107 C106 1.402 . S
C107 C108 1.375 . S
C107 C110 1.481 . S
C108 C107 1.375 . S
C108 C109 1.367 . S
C108 H122 0.951 . S
C109 C105 1.383 . S
C109 C108 1.367 . S
C109 H123 0.950 . S
C110 C107 1.481 . S
C110 C111 1.297 . S
C110 H124 0.950 1_545 S
C111 C110 1.297 . S
C111 C112 1.479 1_545 S
C111 H125 0.950 . S
C112 C111 1.479 1_565 S
C112 C113 1.375 . S
C112 C118 1.404 . S
C113 C112 1.375 . S
C113 C114 1.369 . S
C113 H126 0.950 1_565 S
C114 C113 1.369 . S
C114 C115 1.392 . S
C114 H127 0.951 . S
C115 C114 1.392 . S
C115 C117 1.384 . S
H116 C118 0.949 . S
C117 C115 1.384 . S
C117 C118 1.385 . S
C117 H119 0.950 . S
C118 C112 1.404 . S
C118 H116 0.949 . S
C118 C117 1.385 . S
H119 C117 0.950 . S
H120 C104 0.951 . S
H121 C106 0.951 . S
H122 C108 0.951 . S
H123 C109 0.950 . S
H124 C110 0.950 1_565 S
H125 C111 0.950 . S
H126 C113 0.950 1_545 S
H127 C114 0.951 . S
C128 C129 1.386 . S
C128 C130 1.383 . S
C128 H144 0.951 . S
C129 C128 1.386 . S
C129 C133 1.383 . S
C130 C128 1.383 . S
C130 C131 1.402 . S
C130 H145 0.951 . S
C131 C130 1.402 . S
C131 C132 1.375 . S
C131 C134 1.481 . S
C132 C131 1.375 . S
C132 C133 1.367 . S
C132 H146 0.951 . S
C133 C129 1.383 . S
C133 C132 1.367 . S
C133 H147 0.950 . S
C134 C131 1.481 . S
C134 C135 1.297 . S
C134 H148 0.950 . S
C135 C134 1.297 . S
C135 C136 1.479 . S
C135 H149 0.950 . S
C136 C135 1.479 . S
C136 C137 1.375 . S
C136 C142 1.404 . S
C137 C136 1.375 . S
C137 C138 1.369 . S
C137 H150 0.950 . S
C138 C137 1.369 . S
C138 C139 1.392 . S
C138 H151 0.951 . S
C139 C138 1.392 . S
C139 C141 1.384 . S
H140 C142 0.949 . S
C141 C139 1.384 . S
C141 C142 1.385 . S
C141 H143 0.950 . S
C142 C136 1.404 . S
C142 H140 0.949 . S
C142 C141 1.385 . S
H143 C141 0.950 . S
H144 C128 0.951 . S
H145 C130 0.951 . S
H146 C132 0.951 . S
H147 C133 0.950 . S
H148 C134 0.950 . S
H149 C135 0.950 . S
H150 C137 0.950 . S
H151 C138 0.951 . S
C152 C153 1.386 . S
C152 C154 1.383 . S
C152 H168 0.951 . S
C153 C152 1.386 . S
C153 C157 1.383 . S
C154 C152 1.383 . S
C154 C155 1.402 . S
C154 H169 0.951 . S
C155 C154 1.402 . S
C155 C156 1.375 . S
C155 C158 1.481 1_545 S
C156 C155 1.375 . S
C156 C157 1.367 . S
C156 H170 0.951 1_545 S
C157 C153 1.383 . S
C157 C156 1.367 . S
C157 H171 0.950 . S
C158 C155 1.481 1_565 S
C158 C159 1.312 1_564 S
C158 H172 0.950 . S
C159 C158 1.312 1_546 S
C159 C160 1.459 1_445 S
C159 H173 0.957 1_455 S
C160 C159 1.459 1_665 S
C160 C161 1.375 . S
C160 C166 1.404 . S
C161 C160 1.375 . S
C161 C162 1.369 . S
C161 H174 0.950 1_565 S
C162 C161 1.369 . S
C162 C163 1.392 . S
C162 H175 0.951 . S
C163 C162 1.392 . S
C163 C165 1.384 . S
H164 C166 0.949 1_455 S
C165 C163 1.384 . S
C165 C166 1.385 . S
C165 H167 0.950 . S
C166 C160 1.404 . S
C166 H164 0.949 1_655 S
C166 C165 1.385 . S
H167 C165 0.950 . S
H168 C152 0.951 . S
H169 C154 0.951 . S
H170 C156 0.951 1_565 S
H171 C157 0.950 . S
H172 C158 0.950 . S
H173 C159 0.957 1_655 S
H174 C161 0.950 1_545 S
H175 C162 0.951 . S
C176 C177 1.386 . S
C176 C178 1.383 . S
C176 H192 0.951 . S
C177 C176 1.386 . S
C177 C181 1.383 . S
C178 C176 1.383 . S
C178 C179 1.402 . S
C178 H193 0.951 1_545 S
C179 C178 1.402 . S
C179 C180 1.375 . S
C179 C182 1.481 1_556 S
C180 C179 1.375 . S
C180 C181 1.367 . S
C180 H194 0.951 1_556 S
C181 C177 1.383 . S
C181 C180 1.367 . S
C181 H195 0.950 . S
C182 C179 1.481 1_554 S
C182 C183 1.297 1_545 S
C182 H196 0.950 . S
C183 C182 1.297 1_565 S
C183 C184 1.479 . S
C183 H197 0.950 1_554 S
C184 C183 1.479 . S
C184 C185 1.375 . S
C184 C190 1.404 . S
C185 C184 1.375 . S
C185 C186 1.369 . S
C185 H198 0.950 1_554 S
C186 C185 1.369 . S
C186 C187 1.392 . S
C186 H199 0.951 . S
C187 C186 1.392 . S
C187 C189 1.384 . S
H188 C190 0.949 . S
C189 C187 1.384 . S
C189 C190 1.385 . S
C189 H191 0.950 . S
C190 C184 1.404 . S
C190 H188 0.949 . S
C190 C189 1.385 . S
H191 C189 0.950 . S
H192 C176 0.951 . S
H193 C178 0.951 1_565 S
H194 C180 0.951 1_554 S
H195 C181 0.950 . S
H196 C182 0.950 . S
H197 C183 0.950 1_556 S
H198 C185 0.950 1_556 S
H199 C186 0.951 . S
C200 C201 1.386 . S
C200 C202 1.383 . S
C200 H216 0.951 . S
C201 C200 1.386 . S
C201 C205 1.383 . S
C202 C200 1.383 . S
C202 C203 1.402 . S
C202 H217 0.951 . S
C203 C202 1.402 . S
C203 C204 1.375 . S
C203 C206 1.481 . S
C204 C203 1.375 . S
C204 C205 1.367 . S
C204 H218 0.951 . S
C205 C201 1.383 . S
C205 C204 1.367 . S
C205 H219 0.950 . S
C206 C203 1.481 . S
C206 C207 1.297 . S
C206 H220 0.950 . S
C207 C206 1.297 . S
C207 C208 1.479 1_655 S
C207 H221 0.950 . S
C208 C207 1.479 1_455 S
C208 C209 1.375 . S
C208 C214 1.404 . S
C209 C208 1.375 . S
C209 C210 1.369 . S
C209 H222 0.950 . S
C210 C209 1.369 . S
C210 C211 1.392 . S
C210 H223 0.951 . S
C211 C210 1.392 . S
C211 C213 1.384 . S
H212 C214 0.949 . S
C213 C211 1.384 . S
C213 C214 1.385 . S
C213 H215 0.950 . S
C214 C208 1.404 . S
C214 H212 0.949 . S
C214 C213 1.385 . S
H215 C213 0.950 . S
H216 C200 0.951 . S
H217 C202 0.951 . S
H218 C204 0.951 . S
H219 C205 0.950 . S
H220 C206 0.950 . S
H221 C207 0.950 . S
H222 C209 0.950 . S
H223 C210 0.951 . S
C224 C225 1.386 . S
C224 C226 1.383 . S
C224 H240 0.951 . S
C225 C224 1.386 . S
C225 C229 1.383 . S
C226 C224 1.383 . S
C226 C227 1.402 . S
C226 H241 0.951 . S
C227 C226 1.402 . S
C227 C228 1.375 . S
C227 C230 1.481 . S
C228 C227 1.375 . S
C228 C229 1.367 . S
C228 H242 0.951 . S
C229 C225 1.383 . S
C229 C228 1.367 . S
C229 H243 0.950 . S
C230 C227 1.481 . S
C230 C231 1.297 . S
C230 H244 0.950 . S
C231 C230 1.297 . S
C231 C232 1.479 . S
C231 H245 0.950 . S
C232 C231 1.479 . S
C232 C233 1.375 . S
C232 C238 1.404 . S
C233 C232 1.375 . S
C233 C234 1.369 . S
C233 H246 0.950 . S
C234 C233 1.369 . S
C234 C235 1.392 . S
C234 H247 0.951 . S
C235 C234 1.392 . S
C235 C237 1.384 . S
H236 C238 0.949 . S
C237 C235 1.384 . S
C237 C238 1.385 . S
C237 H239 0.950 . S
C238 C232 1.404 . S
C238 H236 0.949 . S
C238 C237 1.385 . S
H239 C237 0.950 . S
H240 C224 0.951 . S
H241 C226 0.951 . S
H242 C228 0.951 . S
H243 C229 0.950 . S
H244 C230 0.950 . S
H245 C231 0.950 . S
H246 C233 0.950 . S
H247 C234 0.951 . S
C57 C22 1.294 . S
C67 C9 1.257 . S
C81 C8 1.276 . S
C91 C23 1.301 . S
C105 C50 1.258 . S
C115 C37 1.245 . S
C129 C36 1.257 . S
C139 C51 1.248 . S
C153 C7 1.460 . S
C163 C35 1.496 . S
C177 C48 1.455 . S
C187 C20 1.492 . S
C201 C34 1.455 . S
C211 C6 1.490 . S
C225 C21 1.491 . S
C235 C49 1.446 . S
