# Generated by pormake.
# Topology crb, (4)-cn, num edge types: 1
# Building blocks:
#     Node 0, Type 0, BuildingBlock: NAHDIM_clean_sbu_0, # of connection points: 4
#     Node 1, Type 0, BuildingBlock: NAHDIM_clean_sbu_0, # of connection points: 4
#     Node 2, Type 0, BuildingBlock: NAHDIM_clean_sbu_0, # of connection points: 4
#     Node 3, Type 0, BuildingBlock: NAHDIM_clean_sbu_0, # of connection points: 4
#     Node 4, Type 0, BuildingBlock: NAHDIM_clean_sbu_0, # of connection points: 4
#     Node 5, Type 0, BuildingBlock: NAHDIM_clean_sbu_0, # of connection points: 4
#     Node 6, Type 0, BuildingBlock: NAHDIM_clean_sbu_0, # of connection points: 4
#     Node 7, Type 0, BuildingBlock: NAHDIM_clean_sbu_0, # of connection points: 4
#     Edge 8, Type (0, 0), None
#     Edge 9, Type (0, 0), None
#     Edge 10, Type (0, 0), None
#     Edge 11, Type (0, 0), None
#     Edge 12, Type (0, 0), None
#     Edge 13, Type (0, 0), None
#     Edge 14, Type (0, 0), None
#     Edge 15, Type (0, 0), None
#     Edge 16, Type (0, 0), None
#     Edge 17, Type (0, 0), None
#     Edge 18, Type (0, 0), None
#     Edge 19, Type (0, 0), None
#     Edge 20, Type (0, 0), None
#     Edge 21, Type (0, 0), None
#     Edge 22, Type (0, 0), None
#     Edge 23, Type (0, 0), None
# Relax obj value: 0.033
# Max RMSD: 0.066
# Mean RMSD: 0.066
data_MOF--net-crb--node1-NAHDIM_clean_sbu_0--edge1-none
_symmetry_space_group_name_H-M    P1
_symmetry_Int_Tables_number       1
_symmetry_cell_setting            triclinic
loop_
_symmetry_equiv_pos_as_xyz
'x, y, z'
_cell_length_a     19.404071
_cell_length_b     19.391322
_cell_length_c     11.011757
_cell_angle_alpha  90.003214
_cell_angle_beta   90.00178
_cell_angle_gamma 86.796756
loop_
_atom_site_label
_atom_site_type_symbol
_atom_site_fract_x
_atom_site_fract_y
_atom_site_fract_z
_atom_type_partial_charge
C0 C 0.23098 0.23852 0.20798 0.0
O1 O 0.24763 0.20024 0.11295 0.0
O2 O 0.39786 0.31603 0.09642 0.0
Zn3 Zn 0.29676 0.33891 0.06767 0.0
O4 O 0.26562 0.29444 0.9131 0.0
C5 C 0.3082 0.48062 0.13379 0.0
O6 O 0.34208 0.45183 0.22558 0.0
O7 O 0.24525 0.30167 0.20941 0.0
C8 C 0.25826 0.32871 0.81525 0.0
O9 O 0.2726 0.39406 0.81302 0.0
C10 C 0.44186 0.33551 0.02043 0.0
O11 O 0.42072 0.36854 0.92198 0.0
O12 O 0.28154 0.44258 0.05484 0.0
C13 C 0.6825 0.25619 0.80663 0.0
O14 O 0.62833 0.23212 0.86006 0.0
O15 O 0.55888 0.3493 0.97247 0.0
Zn16 Zn 0.66151 0.35069 0.99919 0.0
O17 O 0.69323 0.29676 0.14883 0.0
C18 C 0.65159 0.48007 0.11629 0.0
O19 O 0.61762 0.44251 0.19257 0.0
O20 O 0.70918 0.30929 0.8502 0.0
C21 C 0.74928 0.31392 0.19697 0.0
O22 O 0.78284 0.36389 0.14803 0.0
C23 C 0.51582 0.32604 0.04653 0.0
O24 O 0.53739 0.2981 0.14929 0.0
O25 O 0.6791 0.45164 0.02263 0.0
C26 C 0.72853 0.79716 0.20799 0.0
O27 O 0.71188 0.83544 0.11296 0.0
O28 O 0.56165 0.71967 0.0964 0.0
Zn29 Zn 0.66275 0.69678 0.06766 0.0
O30 O 0.69389 0.74124 0.9131 0.0
C31 C 0.6513 0.55508 0.13378 0.0
O32 O 0.61744 0.58387 0.22558 0.0
O33 O 0.71426 0.73402 0.2094 0.0
C34 C 0.70126 0.70697 0.81523 0.0
O35 O 0.68691 0.64163 0.813 0.0
C36 C 0.51764 0.70017 0.02042 0.0
O37 O 0.53878 0.66713 0.92198 0.0
O38 O 0.67796 0.5931 0.05482 0.0
C39 C 0.277 0.7795 0.80665 0.0
O40 O 0.33116 0.80357 0.8601 0.0
O41 O 0.40063 0.68637 0.97247 0.0
Zn42 Zn 0.298 0.68499 0.99919 0.0
O43 O 0.26627 0.73893 0.14882 0.0
C44 C 0.30792 0.55562 0.11629 0.0
O45 O 0.34189 0.59319 0.19257 0.0
O46 O 0.25032 0.72639 0.8502 0.0
C47 C 0.21022 0.72177 0.19694 0.0
O48 O 0.17666 0.67181 0.14798 0.0
C49 C 0.44369 0.70965 0.04651 0.0
O50 O 0.42212 0.7376 0.14927 0.0
O51 O 0.28041 0.58404 0.02263 0.0
C52 C 0.73097 0.73853 0.70798 0.0
O53 O 0.74762 0.70025 0.61295 0.0
O54 O 0.89785 0.81603 0.59642 0.0
Zn55 Zn 0.79676 0.83891 0.56767 0.0
O56 O 0.76561 0.79445 0.4131 0.0
C57 C 0.8082 0.98063 0.63379 0.0
O58 O 0.84208 0.95184 0.72558 0.0
O59 O 0.74525 0.80168 0.70941 0.0
C60 C 0.75825 0.82872 0.31525 0.0
O61 O 0.77259 0.89406 0.31302 0.0
C62 C 0.94186 0.83551 0.52043 0.0
O63 O 0.92072 0.86854 0.42198 0.0
O64 O 0.78153 0.94259 0.55484 0.0
C65 C 0.1825 0.75618 0.30663 0.0
O66 O 0.12833 0.73212 0.36006 0.0
O67 O 0.05887 0.8493 0.47247 0.0
Zn68 Zn 0.16151 0.85068 0.49919 0.0
O69 O 0.19323 0.79675 0.64883 0.0
C70 C 0.15159 0.98007 0.61629 0.0
O71 O 0.11762 0.9425 0.69257 0.0
O72 O 0.20918 0.80928 0.3502 0.0
C73 C 0.24928 0.81391 0.69697 0.0
O74 O 0.28284 0.86388 0.64803 0.0
C75 C 0.01582 0.82604 0.54653 0.0
O76 O 0.03739 0.7981 0.64929 0.0
O77 O 0.17909 0.95164 0.52263 0.0
C78 C 0.22854 0.29716 0.70798 0.0
O79 O 0.21189 0.33544 0.61296 0.0
O80 O 0.06166 0.21967 0.5964 0.0
Zn81 Zn 0.16275 0.19678 0.56765 0.0
O82 O 0.1939 0.24123 0.4131 0.0
C83 C 0.1513 0.05507 0.63378 0.0
O84 O 0.11744 0.08387 0.72558 0.0
O85 O 0.21426 0.23401 0.7094 0.0
C86 C 0.20126 0.20696 0.31523 0.0
O87 O 0.18692 0.14162 0.313 0.0
C88 C 0.01765 0.20017 0.52042 0.0
O89 O 0.03878 0.16713 0.42198 0.0
O90 O 0.17797 0.0931 0.55482 0.0
C91 C 0.777 0.2795 0.30665 0.0
O92 O 0.83116 0.30357 0.3601 0.0
O93 O 0.90063 0.18638 0.47247 0.0
Zn94 Zn 0.798 0.185 0.49919 0.0
O95 O 0.76628 0.23893 0.64882 0.0
C96 C 0.80792 0.05563 0.61629 0.0
O97 O 0.84189 0.09319 0.69257 0.0
O98 O 0.75033 0.2264 0.3502 0.0
C99 C 0.71022 0.22178 0.69694 0.0
O100 O 0.67666 0.17182 0.64798 0.0
C101 C 0.94369 0.20965 0.54651 0.0
O102 O 0.92212 0.2376 0.64927 0.0
O103 O 0.78041 0.08404 0.52263 0.0
loop_
_geom_bond_atom_site_label_1
_geom_bond_atom_site_label_2
_geom_bond_distance
_geom_bond_site_symmetry_2
_ccdc_geom_bond_type
C0 O1 1.160 . S
C0 O7 1.185 . S
O1 C0 1.160 . S
O2 Zn3 1.899 . S
O2 C10 1.284 . S
Zn3 O2 1.899 . S
Zn3 O4 2.032 1_554 S
Zn3 O7 2.086 . S
Zn3 O12 1.977 . S
O4 Zn3 2.032 1_556 S
O4 C8 1.278 . S
C5 O6 1.203 1_554 S
C5 O12 1.267 . S
O6 C5 1.203 1_556 S
O7 C0 1.185 . S
O7 Zn3 2.086 . S
C8 O4 1.278 . S
C8 O9 1.211 . S
O9 C8 1.211 . S
C10 O2 1.284 . S
C10 O11 1.273 1_554 S
O11 C10 1.273 1_556 S
O12 Zn3 1.977 . S
O12 C5 1.267 . S
C13 O14 1.160 . S
C13 O20 1.185 . S
O14 C13 1.160 . S
O15 Zn16 1.899 . S
O15 C23 1.284 1_556 S
Zn16 O15 1.899 . S
Zn16 O17 2.032 1_556 S
Zn16 O20 2.086 . S
Zn16 O25 1.977 . S
O17 Zn16 2.032 1_554 S
O17 C21 1.278 . S
C18 O19 1.203 . S
C18 O25 1.267 1_554 S
O19 C18 1.203 . S
O20 C13 1.185 . S
O20 Zn16 2.086 . S
C21 O17 1.278 . S
C21 O22 1.211 . S
O22 C21 1.211 . S
C23 O15 1.284 1_554 S
C23 O24 1.273 . S
O24 C23 1.273 . S
O25 Zn16 1.977 . S
O25 C18 1.267 1_556 S
C26 O27 1.160 . S
C26 O33 1.185 . S
O27 C26 1.160 . S
O28 Zn29 1.899 . S
O28 C36 1.284 . S
Zn29 O28 1.899 . S
Zn29 O30 2.032 1_554 S
Zn29 O33 2.086 . S
Zn29 O38 1.977 . S
O30 Zn29 2.032 1_556 S
O30 C34 1.278 . S
C31 O32 1.203 1_554 S
C31 O38 1.267 . S
O32 C31 1.203 1_556 S
O33 C26 1.185 . S
O33 Zn29 2.086 . S
C34 O30 1.278 . S
C34 O35 1.211 . S
O35 C34 1.211 . S
C36 O28 1.284 . S
C36 O37 1.273 1_554 S
O37 C36 1.273 1_556 S
O38 Zn29 1.977 . S
O38 C31 1.267 . S
C39 O40 1.160 . S
C39 O46 1.185 . S
O40 C39 1.160 . S
O41 Zn42 1.899 . S
O41 C49 1.284 1_556 S
Zn42 O41 1.899 . S
Zn42 O43 2.032 1_556 S
Zn42 O46 2.086 . S
Zn42 O51 1.977 . S
O43 Zn42 2.032 1_554 S
O43 C47 1.278 . S
C44 O45 1.203 . S
C44 O51 1.267 1_554 S
O45 C44 1.203 . S
O46 C39 1.185 . S
O46 Zn42 2.086 . S
C47 O43 1.278 . S
C47 O48 1.211 . S
O48 C47 1.211 . S
C49 O41 1.284 1_554 S
C49 O50 1.273 . S
O50 C49 1.273 . S
O51 Zn42 1.977 . S
O51 C44 1.267 1_556 S
C52 O53 1.160 . S
C52 O59 1.185 . S
O53 C52 1.160 . S
O54 Zn55 1.899 . S
O54 C62 1.284 . S
Zn55 O54 1.899 . S
Zn55 O56 2.032 . S
Zn55 O59 2.086 . S
Zn55 O64 1.977 . S
O56 Zn55 2.032 . S
O56 C60 1.278 . S
C57 O58 1.203 . S
C57 O64 1.267 . S
O58 C57 1.203 . S
O59 C52 1.185 . S
O59 Zn55 2.086 . S
C60 O56 1.278 . S
C60 O61 1.211 . S
O61 C60 1.211 . S
C62 O54 1.284 . S
C62 O63 1.273 . S
O63 C62 1.273 . S
O64 Zn55 1.977 . S
O64 C57 1.267 . S
C65 O66 1.160 . S
C65 O72 1.185 . S
O66 C65 1.160 . S
O67 Zn68 1.899 . S
O67 C75 1.284 . S
Zn68 O67 1.899 . S
Zn68 O69 2.032 . S
Zn68 O72 2.086 . S
Zn68 O77 1.977 . S
O69 Zn68 2.032 . S
O69 C73 1.278 . S
C70 O71 1.203 . S
C70 O77 1.267 . S
O71 C70 1.203 . S
O72 C65 1.185 . S
O72 Zn68 2.086 . S
C73 O69 1.278 . S
C73 O74 1.211 . S
O74 C73 1.211 . S
C75 O67 1.284 . S
C75 O76 1.273 . S
O76 C75 1.273 . S
O77 Zn68 1.977 . S
O77 C70 1.267 . S
C78 O79 1.160 . S
C78 O85 1.185 . S
O79 C78 1.160 . S
O80 Zn81 1.899 . S
O80 C88 1.284 . S
Zn81 O80 1.899 . S
Zn81 O82 2.032 . S
Zn81 O85 2.086 . S
Zn81 O90 1.977 . S
O82 Zn81 2.032 . S
O82 C86 1.278 . S
C83 O84 1.203 . S
C83 O90 1.267 . S
O84 C83 1.203 . S
O85 C78 1.185 . S
O85 Zn81 2.086 . S
C86 O82 1.278 . S
C86 O87 1.211 . S
O87 C86 1.211 . S
C88 O80 1.284 . S
C88 O89 1.273 . S
O89 C88 1.273 . S
O90 Zn81 1.977 . S
O90 C83 1.267 . S
C91 O92 1.160 . S
C91 O98 1.185 . S
O92 C91 1.160 . S
O93 Zn94 1.899 . S
O93 C101 1.284 . S
Zn94 O93 1.899 . S
Zn94 O95 2.032 . S
Zn94 O98 2.086 . S
Zn94 O103 1.977 . S
O95 Zn94 2.032 . S
O95 C99 1.278 . S
C96 O97 1.203 . S
C96 O103 1.267 . S
O97 C96 1.203 . S
O98 C91 1.185 . S
O98 Zn94 2.086 . S
C99 O95 1.278 . S
C99 O100 1.211 . S
O100 C99 1.211 . S
C101 O93 1.284 . S
C101 O102 1.273 . S
O102 C101 1.273 . S
O103 Zn94 1.977 . S
O103 C96 1.267 . S
C5 C44 1.428 . S
C10 C23 1.461 . S
C18 C31 1.428 . S
C49 C36 1.461 . S
C57 C96 1.428 1_565 S
C75 C62 1.461 1_455 S
C83 C70 1.428 1_545 S
C101 C88 1.461 1_655 S
C86 C0 1.350 . S
C21 C91 1.350 . S
C60 C26 1.350 . S
C65 C47 1.350 . S
C73 C39 1.350 . S
C8 C78 1.350 . S
C13 C99 1.350 . S
C34 C52 1.350 . S
