# Generated by pormake.
# Topology bcu, (8)-cn, num edge types: 1
# Building blocks:
#     Node 0, Type 0, BuildingBlock: TAGTUT_clean_sbu_1, # of connection points: 8
#     Node 1, Type 0, BuildingBlock: TAGTUT_clean_sbu_1, # of connection points: 8
#     Edge 2, Type (0, 0), BuildingBlock: KIFKEQ_clean_linker_1, # of connection points: 2
#     Edge 3, Type (0, 0), BuildingBlock: KIFKEQ_clean_linker_1, # of connection points: 2
#     Edge 4, Type (0, 0), BuildingBlock: KIFKEQ_clean_linker_1, # of connection points: 2
#     Edge 5, Type (0, 0), BuildingBlock: KIFKEQ_clean_linker_1, # of connection points: 2
#     Edge 6, Type (0, 0), BuildingBlock: KIFKEQ_clean_linker_1, # of connection points: 2
#     Edge 7, Type (0, 0), BuildingBlock: KIFKEQ_clean_linker_1, # of connection points: 2
#     Edge 8, Type (0, 0), BuildingBlock: KIFKEQ_clean_linker_1, # of connection points: 2
#     Edge 9, Type (0, 0), BuildingBlock: KIFKEQ_clean_linker_1, # of connection points: 2
# Relax obj value: 0.017
# Max RMSD: 0.077
# Mean RMSD: 0.077
data_MOF--net-bcu--node1-TAGTUT_clean_sbu_1--edge1-KIFKEQ_clean_linker_1
_symmetry_space_group_name_H-M    P1
_symmetry_Int_Tables_number       1
_symmetry_cell_setting            triclinic
loop_
_symmetry_equiv_pos_as_xyz
'x, y, z'
_cell_length_a     19.633826
_cell_length_b     18.697196
_cell_length_c     22.376041
_cell_angle_alpha  90.213692
_cell_angle_beta   92.252639
_cell_angle_gamma 107.95993
loop_
_atom_site_label
_atom_site_type_symbol
_atom_site_fract_x
_atom_site_fract_y
_atom_site_fract_z
_atom_type_partial_charge
C0 C 0.8604 0.1321 0.0712 0.0
C1 C 0.87486 0.12807 0.88022 0.0
C2 C 0.90341 0.84713 0.91965 0.0
Mg3 Mg 0.98567 0.15992 -0.01421 0.0
O4 O 0.96613 0.05763 0.00038 0.0
Mg5 Mg 0.86736 0.99004 -0.01997 0.0
Mg6 Mg 0.02497 0.00065 0.96516 0.0
O7 O 0.08335 0.94319 0.93022 0.0
Mg8 Mg 0.06288 0.84245 0.95206 0.0
Mg9 Mg 0.18253 0.01051 0.94998 0.0
C10 C 0.14641 0.15398 0.01219 0.0
C11 C 0.10983 0.09781 0.85519 0.0
O12 O 0.83155 0.06635 0.04723 0.0
O13 O 0.9201 0.17709 0.05495 0.0
O14 O 0.84745 0.06247 0.90135 0.0
O15 O 0.93237 0.17417 0.90306 0.0
O16 O 0.10156 0.19101 0.00285 0.0
O17 O 0.12769 0.0818 0.00729 0.0
C18 C 0.9411 0.90563 0.07633 0.0
O19 O 1.00098 0.92615 0.05021 0.0
O20 O 0.88656 0.92293 0.05685 0.0
O21 O 0.21658 0.9303 0.884 0.0
O22 O 0.12699 0.82028 0.884 0.0
O23 O 0.20212 0.94049 0.02928 0.0
C24 C 0.18556 0.86287 0.86369 0.0
O25 O 0.11456 0.83269 0.03752 0.0
O26 O 0.94734 0.8102 0.93313 0.0
C27 C 0.17444 0.87878 0.05603 0.0
O28 O 0.92244 0.91946 0.9226 0.0
O29 O 0.04962 0.07603 0.88079 0.0
O30 O 0.16409 0.07915 0.87357 0.0
C31 C 0.37429 0.67676 0.5045 0.0
C32 C 0.46795 0.66748 0.33642 0.0
C33 C 0.41236 0.36959 0.38236 0.0
Mg34 Mg 0.52393 0.6744 0.4662 0.0
O35 O 0.47585 0.57193 0.47701 0.0
Mg36 Mg 0.38595 0.52481 0.42783 0.0
Mg37 Mg 0.52724 0.49763 0.46445 0.0
O38 O 0.57723 0.42199 0.45244 0.0
Mg39 Mg 0.52503 0.32166 0.46893 0.0
Mg40 Mg 0.66678 0.46832 0.50177 0.0
C41 C 0.64154 0.62642 0.54691 0.0
C42 C 0.6702 0.57622 0.38895 0.0
O43 O 0.34427 0.61326 0.47717 0.0
O44 O 0.44208 0.70956 0.50578 0.0
O45 O 0.42112 0.60677 0.35125 0.0
O46 O 0.51923 0.70293 0.3727 0.0
O47 O 0.61903 0.67787 0.52263 0.0
O48 O 0.61198 0.55608 0.535 0.0
C49 C 0.38381 0.41231 0.53716 0.0
O50 O 0.45155 0.42386 0.53425 0.0
O51 O 0.35028 0.44446 0.502 0.0
O52 O 0.7053 0.37457 0.45662 0.0
O53 O 0.60437 0.28001 0.43263 0.0
O54 O 0.62948 0.39195 0.58019 0.0
C55 C 0.67254 0.30975 0.43223 0.0
O56 O 0.52793 0.29867 0.5643 0.0
O57 O 0.43189 0.318 0.40966 0.0
C58 C 0.58107 0.33481 0.59861 0.0
O59 O 0.44294 0.43999 0.39315 0.0
O60 O 0.6038 0.57059 0.3946 0.0
O61 O 0.70259 0.54272 0.42404 0.0
H62 H 0.23764 0.09377 0.07521 0.0
H63 H 0.2054 0.30547 0.02829 0.0
H64 H 0.31092 0.15387 0.16249 0.0
H65 H 0.27449 0.36408 0.11704 0.0
H66 H 0.41736 0.45377 0.28269 0.0
H67 H 0.37464 0.40673 0.18234 0.0
H68 H 0.26949 0.18733 0.2536 0.0
H69 H 0.31545 0.23364 0.35357 0.0
C70 C 0.24797 0.15358 0.08233 0.0
C71 C 0.21319 0.19413 0.04633 0.0
C72 C 0.28884 0.18775 0.13306 0.0
C73 C 0.29518 0.26268 0.14846 0.0
C74 C 0.2697 0.30593 0.10732 0.0
C75 C 0.22988 0.27212 0.0562 0.0
C76 C 0.38374 0.3959 0.27709 0.0
C77 C 0.36982 0.34718 0.32596 0.0
C78 C 0.35985 0.36872 0.21938 0.0
C79 C 0.32046 0.29265 0.20957 0.0
C80 C 0.30226 0.24548 0.25916 0.0
C81 C 0.32712 0.27232 0.31667 0.0
H82 H 0.87015 0.27325 0.10966 0.0
H83 H 0.78487 0.03927 0.15538 0.0
H84 H 0.83286 0.30977 0.20443 0.0
H85 H 0.75078 0.07545 0.25168 0.0
H86 H 0.80911 0.36733 0.39224 0.0
H87 H 0.85833 0.31893 0.30833 0.0
H88 H 0.6695 0.12374 0.29646 0.0
H89 H 0.62285 0.16953 0.38177 0.0
C90 C 0.8431 0.22965 0.14003 0.0
C91 C 0.8295 0.15346 0.12487 0.0
C92 C 0.82282 0.25052 0.19486 0.0
C93 C 0.78966 0.19571 0.23638 0.0
C94 C 0.77541 0.1193 0.22072 0.0
C95 C 0.79455 0.09842 0.16534 0.0
C96 C 0.77934 0.31292 0.37294 0.0
C97 C 0.71146 0.27306 0.39311 0.0
C98 C 0.80695 0.28568 0.32413 0.0
C99 C 0.76697 0.21841 0.29431 0.0
C100 C 0.70204 0.17565 0.31797 0.0
C101 C 0.67499 0.20231 0.36702 0.0
H102 H 0.93929 0.76046 0.08999 0.0
H103 H 0.91158 0.95129 0.18294 0.0
H104 H 0.8745 0.67732 0.16753 0.0
H105 H 0.84752 0.86913 0.26042 0.0
H106 H 0.64593 0.69361 0.32675 0.0
H107 H 0.72523 0.77487 0.25574 0.0
H108 H 0.87119 0.64375 0.27502 0.0
H109 H 0.79235 0.56266 0.34484 0.0
C110 C 0.92256 0.78485 0.12861 0.0
C111 C 0.93112 0.86202 0.13127 0.0
C112 C 0.88457 0.73738 0.1725 0.0
C113 C 0.85435 0.76669 0.21915 0.0
C114 C 0.86864 0.84479 0.22426 0.0
C115 C 0.90661 0.89195 0.1807 0.0
C116 C 0.6945 0.68185 0.31528 0.0
C117 C 0.71297 0.62214 0.34175 0.0
C118 C 0.74033 0.72871 0.27521 0.0
C119 C 0.80495 0.71611 0.26049 0.0
C120 C 0.82195 0.65488 0.28543 0.0
C121 C 0.7767 0.60867 0.32567 0.0
H122 H 0.3097 0.95751 0.09828 0.0
H123 H 0.1427 0.74601 0.11694 0.0
H124 H 0.39231 0.91041 0.15787 0.0
H125 H 0.22484 0.69987 0.17848 0.0
H126 H 0.39513 0.60213 0.23429 0.0
H127 H 0.3271 0.65827 0.16606 0.0
H128 H 0.42275 0.87388 0.25456 0.0
H129 H 0.49249 0.81797 0.32138 0.0
C130 C 0.29 0.90141 0.11608 0.0
C131 C 0.21941 0.85533 0.10223 0.0
C132 C 0.33767 0.87437 0.15031 0.0
C133 C 0.31596 0.80068 0.17197 0.0
C134 C 0.24421 0.75612 0.16095 0.0
C135 C 0.1966 0.783 0.12641 0.0
C136 C 0.40362 0.66212 0.23763 0.0
C137 C 0.44897 0.70551 0.28337 0.0
C138 C 0.36355 0.69408 0.19931 0.0
C139 C 0.36739 0.77008 0.20611 0.0
C140 C 0.41802 0.8151 0.2481 0.0
C141 C 0.45872 0.78318 0.28614 0.0
H142 H 0.10966 0.75207 0.78659 0.0
H143 H 0.31961 0.91374 0.81717 0.0
H144 H 0.1464 0.71261 0.69362 0.0
H145 H 0.3583 0.87082 0.72488 0.0
H146 H 0.39715 0.82353 0.53551 0.0
H147 H 0.34813 0.87078 0.62004 0.0
H148 H 0.21426 0.64442 0.65413 0.0
H149 H 0.26053 0.59856 0.56785 0.0
C150 C 0.16441 0.77826 0.77408 0.0
C151 C 0.21202 0.83571 0.80976 0.0
C152 C 0.18554 0.75537 0.72048 0.0
C153 C 0.25543 0.78814 0.70138 0.0
C154 C 0.30354 0.84517 0.73743 0.0
C155 C 0.28181 0.86924 0.79078 0.0
C156 C 0.3556 0.78445 0.56015 0.0
C157 C 0.33244 0.70745 0.54506 0.0
C158 C 0.32836 0.81125 0.60923 0.0
C159 C 0.27828 0.76139 0.64498 0.0
C160 C 0.2522 0.6849 0.62757 0.0
C161 C 0.27849 0.6584 0.5778 0.0
H162 H 0.42514 0.37906 0.65001 0.0
H163 H 0.2442 0.33044 0.52346 0.0
H164 H 0.34626 0.30601 0.72559 0.0
H165 H 0.16625 0.25812 0.59828 0.0
H166 H 0.08253 0.06325 0.73727 0.0
H167 H 0.14874 0.13909 0.65686 0.0
H168 H 0.24127 0.32242 0.78258 0.0
H169 H 0.17465 0.24648 0.86249 0.0
C170 C 0.36897 0.35207 0.6382 0.0
C171 C 0.34071 0.36092 0.58117 0.0
C172 C 0.32369 0.3111 0.68145 0.0
C173 C 0.2499 0.27743 0.6679 0.0
C174 C 0.22267 0.28358 0.61003 0.0
C175 C 0.26744 0.32515 0.56731 0.0
C176 C 0.114 0.12115 0.74674 0.0
C177 C 0.12226 0.15001 0.80541 0.0
C178 C 0.15284 0.16412 0.70112 0.0
C179 C 0.20133 0.23599 0.71392 0.0
C180 C 0.20533 0.26668 0.77178 0.0
C181 C 0.16601 0.22403 0.81711 0.0
H182 H 0.84607 0.25811 0.89455 0.0
H183 H 0.79525 0.06183 0.77942 0.0
H184 H 0.75751 0.30132 0.84094 0.0
H185 H 0.71096 0.10881 0.72039 0.0
H186 H 0.53996 0.18661 0.6326 0.0
H187 H 0.60418 0.13313 0.70671 0.0
H188 H 0.7348 0.35818 0.75983 0.0
H189 H 0.66692 0.40991 0.69065 0.0
C190 C 0.8176 0.22564 0.85598 0.0
C191 C 0.829 0.15778 0.84 0.0
C192 C 0.76639 0.25042 0.82491 0.0
C193 C 0.72684 0.2097 0.77509 0.0
C194 C 0.73895 0.14163 0.75885 0.0
C195 C 0.78844 0.11522 0.79176 0.0
C196 C 0.58008 0.22428 0.66236 0.0
C197 C 0.59889 0.30251 0.65524 0.0
C198 C 0.61844 0.19368 0.70393 0.0
C199 C 0.67691 0.24072 0.7386 0.0
C200 C 0.69047 0.31907 0.73496 0.0
C201 C 0.6513 0.3493 0.69471 0.0
H202 H 0.63883 0.54272 0.64645 0.0
H203 H 0.7416 0.76105 0.57307 0.0
H204 H 0.68333 0.59107 0.74621 0.0
H205 H 0.78932 0.80871 0.67237 0.0
H206 H 0.81557 0.90582 0.85074 0.0
H207 H 0.74662 0.84432 0.76195 0.0
H208 H 0.78236 0.63539 0.81259 0.0
H209 H 0.84707 0.69536 0.90275 0.0
C210 C 0.67329 0.60034 0.65136 0.0
C211 C 0.68666 0.64834 0.60205 0.0
C212 C 0.69817 0.62833 0.70873 0.0
C213 C 0.73795 0.70449 0.71767 0.0
C214 C 0.75624 0.7506 0.6675 0.0
C215 C 0.7304 0.72296 0.61037 0.0
C216 C 0.80611 0.84604 0.84427 0.0
C217 C 0.83921 0.8062 0.88258 0.0
C218 C 0.76779 0.81106 0.7927 0.0
C219 C 0.76232 0.73597 0.77859 0.0
C220 C 0.78652 0.69361 0.82133 0.0
C221 C 0.82378 0.72821 0.87327 0.0
loop_
_geom_bond_atom_site_label_1
_geom_bond_atom_site_label_2
_geom_bond_distance
_geom_bond_site_symmetry_2
_ccdc_geom_bond_type
C0 O12 1.241 . S
C0 O13 1.280 . S
C1 O14 1.277 . S
C1 O15 1.245 . S
C2 O26 1.247 . S
C2 O28 1.289 . S
Mg3 O4 1.926 . S
Mg3 O13 1.984 . S
Mg3 O15 1.988 1_554 S
Mg3 O16 2.061 1_655 S
O4 Mg3 1.926 . S
O4 Mg5 1.986 1_554 S
O4 Mg6 1.917 1_655 S
Mg5 O4 1.986 1_556 S
Mg5 O12 2.042 1_556 S
Mg5 O14 2.041 . S
Mg5 O20 2.038 1_546 S
Mg5 O28 2.238 1_545 S
Mg6 O4 1.917 1_455 S
Mg6 O7 1.917 1_544 S
Mg6 O17 2.106 . S
Mg6 O19 2.079 1_445 S
Mg6 O28 2.106 1_444 S
Mg6 O29 2.079 1_554 S
O7 Mg6 1.917 1_566 S
O7 Mg8 1.926 . S
O7 Mg9 1.986 1_556 S
Mg8 O7 1.926 . S
Mg8 O22 1.984 . S
Mg8 O25 1.988 1_556 S
Mg8 O26 2.061 1_455 S
Mg9 O7 1.986 1_554 S
Mg9 O17 2.238 1_565 S
Mg9 O21 2.042 1_554 S
Mg9 O23 2.041 . S
Mg9 O30 2.038 1_564 S
C10 O16 1.247 . S
C10 O17 1.289 . S
C11 O29 1.245 . S
C11 O30 1.274 . S
O12 C0 1.241 . S
O12 Mg5 2.042 1_554 S
O13 C0 1.280 . S
O13 Mg3 1.984 . S
O14 C1 1.277 . S
O14 Mg5 2.041 . S
O15 C1 1.245 . S
O15 Mg3 1.988 1_556 S
O16 Mg3 2.061 1_455 S
O16 C10 1.247 . S
O17 Mg6 2.106 . S
O17 Mg9 2.238 1_545 S
O17 C10 1.289 . S
C18 O19 1.245 . S
C18 O20 1.274 . S
O19 Mg6 2.079 1_665 S
O19 C18 1.245 . S
O20 Mg5 2.038 1_564 S
O20 C18 1.274 . S
O21 Mg9 2.042 1_556 S
O21 C24 1.241 . S
O22 Mg8 1.984 . S
O22 C24 1.280 . S
O23 Mg9 2.041 . S
O23 C27 1.277 . S
C24 O21 1.241 . S
C24 O22 1.280 . S
O25 Mg8 1.988 1_554 S
O25 C27 1.245 . S
O26 C2 1.247 . S
O26 Mg8 2.061 1_655 S
C27 O23 1.277 . S
C27 O25 1.245 . S
O28 C2 1.289 . S
O28 Mg5 2.238 1_565 S
O28 Mg6 2.106 1_666 S
O29 Mg6 2.079 1_556 S
O29 C11 1.245 . S
O30 Mg9 2.038 1_546 S
O30 C11 1.274 . S
C31 O43 1.241 . S
C31 O44 1.280 . S
C32 O45 1.277 . S
C32 O46 1.245 . S
C33 O57 1.247 . S
C33 O59 1.289 . S
Mg34 O35 1.926 . S
Mg34 O44 1.984 . S
Mg34 O46 1.988 . S
Mg34 O47 2.061 . S
O35 Mg34 1.926 . S
O35 Mg36 1.986 . S
O35 Mg37 1.917 . S
Mg36 O35 1.986 . S
Mg36 O43 2.042 . S
Mg36 O45 2.041 . S
Mg36 O51 2.038 . S
Mg36 O59 2.238 . S
Mg37 O35 1.917 . S
Mg37 O38 1.917 . S
Mg37 O48 2.106 . S
Mg37 O50 2.079 . S
Mg37 O59 2.106 . S
Mg37 O60 2.079 . S
O38 Mg37 1.917 . S
O38 Mg39 1.926 . S
O38 Mg40 1.986 . S
Mg39 O38 1.926 . S
Mg39 O53 1.984 . S
Mg39 O56 1.988 . S
Mg39 O57 2.061 . S
Mg40 O38 1.986 . S
Mg40 O48 2.238 . S
Mg40 O52 2.042 . S
Mg40 O54 2.041 . S
Mg40 O61 2.038 . S
C41 O47 1.247 . S
C41 O48 1.289 . S
C42 O60 1.245 . S
C42 O61 1.274 . S
O43 C31 1.241 . S
O43 Mg36 2.042 . S
O44 C31 1.280 . S
O44 Mg34 1.984 . S
O45 C32 1.277 . S
O45 Mg36 2.041 . S
O46 C32 1.245 . S
O46 Mg34 1.988 . S
O47 Mg34 2.061 . S
O47 C41 1.247 . S
O48 Mg37 2.106 . S
O48 Mg40 2.238 . S
O48 C41 1.289 . S
C49 O50 1.245 . S
C49 O51 1.274 . S
O50 Mg37 2.079 . S
O50 C49 1.245 . S
O51 Mg36 2.038 . S
O51 C49 1.274 . S
O52 Mg40 2.042 . S
O52 C55 1.241 . S
O53 Mg39 1.984 . S
O53 C55 1.280 . S
O54 Mg40 2.041 . S
O54 C58 1.277 . S
C55 O52 1.241 . S
C55 O53 1.280 . S
O56 Mg39 1.988 . S
O56 C58 1.245 . S
O57 C33 1.247 . S
O57 Mg39 2.061 . S
C58 O54 1.277 . S
C58 O56 1.245 . S
O59 C33 1.289 . S
O59 Mg36 2.238 . S
O59 Mg37 2.106 . S
O60 Mg37 2.079 . S
O60 C42 1.245 . S
O61 Mg40 2.038 . S
O61 C42 1.274 . S
H62 C70 0.950 . S
H63 C75 0.950 . S
H64 C72 0.950 . S
H65 C74 0.950 . S
H66 C76 0.950 . S
H67 C78 0.950 . S
H68 C80 0.950 . S
H69 C81 0.950 . S
C70 H62 0.950 . S
C70 C71 1.386 . S
C70 C72 1.391 . S
C71 C70 1.386 . S
C71 C75 1.393 . S
C72 H64 0.950 . S
C72 C70 1.391 . S
C72 C73 1.400 . S
C73 C72 1.400 . S
C73 C74 1.398 . S
C73 C79 1.491 . S
C74 H65 0.950 . S
C74 C73 1.398 . S
C74 C75 1.391 . S
C75 H63 0.950 . S
C75 C71 1.393 . S
C75 C74 1.391 . S
C76 H66 0.950 . S
C76 C77 1.386 . S
C76 C78 1.391 . S
C77 C76 1.386 . S
C77 C81 1.393 . S
C78 H67 0.950 . S
C78 C76 1.391 . S
C78 C79 1.400 . S
C79 C73 1.491 . S
C79 C78 1.400 . S
C79 C80 1.398 . S
C80 H68 0.950 . S
C80 C79 1.398 . S
C80 C81 1.391 . S
C81 H69 0.950 . S
C81 C77 1.393 . S
C81 C80 1.391 . S
H82 C90 0.950 . S
H83 C95 0.950 . S
H84 C92 0.950 . S
H85 C94 0.950 . S
H86 C96 0.950 . S
H87 C98 0.950 . S
H88 C100 0.950 . S
H89 C101 0.950 . S
C90 H82 0.950 . S
C90 C91 1.386 . S
C90 C92 1.391 . S
C91 C90 1.386 . S
C91 C95 1.393 . S
C92 H84 0.950 . S
C92 C90 1.391 . S
C92 C93 1.400 . S
C93 C92 1.400 . S
C93 C94 1.398 . S
C93 C99 1.491 . S
C94 H85 0.950 . S
C94 C93 1.398 . S
C94 C95 1.391 . S
C95 H83 0.950 . S
C95 C91 1.393 . S
C95 C94 1.391 . S
C96 H86 0.950 . S
C96 C97 1.386 . S
C96 C98 1.391 . S
C97 C96 1.386 . S
C97 C101 1.393 . S
C98 H87 0.950 . S
C98 C96 1.391 . S
C98 C99 1.400 . S
C99 C93 1.491 . S
C99 C98 1.400 . S
C99 C100 1.398 . S
C100 H88 0.950 . S
C100 C99 1.398 . S
C100 C101 1.391 . S
C101 H89 0.950 . S
C101 C97 1.393 . S
C101 C100 1.391 . S
H102 C110 0.950 . S
H103 C115 0.950 . S
H104 C112 0.950 . S
H105 C114 0.950 . S
H106 C116 0.950 . S
H107 C118 0.950 . S
H108 C120 0.950 . S
H109 C121 0.950 . S
C110 H102 0.950 . S
C110 C111 1.386 . S
C110 C112 1.391 . S
C111 C110 1.386 . S
C111 C115 1.393 . S
C112 H104 0.950 . S
C112 C110 1.391 . S
C112 C113 1.400 . S
C113 C112 1.400 . S
C113 C114 1.398 . S
C113 C119 1.491 . S
C114 H105 0.950 . S
C114 C113 1.398 . S
C114 C115 1.391 . S
C115 H103 0.950 . S
C115 C111 1.393 . S
C115 C114 1.391 . S
C116 H106 0.950 . S
C116 C117 1.386 . S
C116 C118 1.391 . S
C117 C116 1.386 . S
C117 C121 1.393 . S
C118 H107 0.950 . S
C118 C116 1.391 . S
C118 C119 1.400 . S
C119 C113 1.491 . S
C119 C118 1.400 . S
C119 C120 1.398 . S
C120 H108 0.950 . S
C120 C119 1.398 . S
C120 C121 1.391 . S
C121 H109 0.950 . S
C121 C117 1.393 . S
C121 C120 1.391 . S
H122 C130 0.950 . S
H123 C135 0.950 . S
H124 C132 0.950 . S
H125 C134 0.950 . S
H126 C136 0.950 . S
H127 C138 0.950 . S
H128 C140 0.950 . S
H129 C141 0.950 . S
C130 H122 0.950 . S
C130 C131 1.386 . S
C130 C132 1.391 . S
C131 C130 1.386 . S
C131 C135 1.393 . S
C132 H124 0.950 . S
C132 C130 1.391 . S
C132 C133 1.400 . S
C133 C132 1.400 . S
C133 C134 1.398 . S
C133 C139 1.491 . S
C134 H125 0.950 . S
C134 C133 1.398 . S
C134 C135 1.391 . S
C135 H123 0.950 . S
C135 C131 1.393 . S
C135 C134 1.391 . S
C136 H126 0.950 . S
C136 C137 1.386 . S
C136 C138 1.391 . S
C137 C136 1.386 . S
C137 C141 1.393 . S
C138 H127 0.950 . S
C138 C136 1.391 . S
C138 C139 1.400 . S
C139 C133 1.491 . S
C139 C138 1.400 . S
C139 C140 1.398 . S
C140 H128 0.950 . S
C140 C139 1.398 . S
C140 C141 1.391 . S
C141 H129 0.950 . S
C141 C137 1.393 . S
C141 C140 1.391 . S
H142 C150 0.950 . S
H143 C155 0.950 . S
H144 C152 0.950 . S
H145 C154 0.950 . S
H146 C156 0.950 . S
H147 C158 0.950 . S
H148 C160 0.950 . S
H149 C161 0.950 . S
C150 H142 0.950 . S
C150 C151 1.386 . S
C150 C152 1.391 . S
C151 C150 1.386 . S
C151 C155 1.393 . S
C152 H144 0.950 . S
C152 C150 1.391 . S
C152 C153 1.400 . S
C153 C152 1.400 . S
C153 C154 1.398 . S
C153 C159 1.491 . S
C154 H145 0.950 . S
C154 C153 1.398 . S
C154 C155 1.391 . S
C155 H143 0.950 . S
C155 C151 1.393 . S
C155 C154 1.391 . S
C156 H146 0.950 . S
C156 C157 1.386 . S
C156 C158 1.391 . S
C157 C156 1.386 . S
C157 C161 1.393 . S
C158 H147 0.950 . S
C158 C156 1.391 . S
C158 C159 1.400 . S
C159 C153 1.491 . S
C159 C158 1.400 . S
C159 C160 1.398 . S
C160 H148 0.950 . S
C160 C159 1.398 . S
C160 C161 1.391 . S
C161 H149 0.950 . S
C161 C157 1.393 . S
C161 C160 1.391 . S
H162 C170 0.950 . S
H163 C175 0.950 . S
H164 C172 0.950 . S
H165 C174 0.950 . S
H166 C176 0.950 . S
H167 C178 0.950 . S
H168 C180 0.950 . S
H169 C181 0.950 . S
C170 H162 0.950 . S
C170 C171 1.386 . S
C170 C172 1.391 . S
C171 C170 1.386 . S
C171 C175 1.393 . S
C172 H164 0.950 . S
C172 C170 1.391 . S
C172 C173 1.400 . S
C173 C172 1.400 . S
C173 C174 1.398 . S
C173 C179 1.491 . S
C174 H165 0.950 . S
C174 C173 1.398 . S
C174 C175 1.391 . S
C175 H163 0.950 . S
C175 C171 1.393 . S
C175 C174 1.391 . S
C176 H166 0.950 . S
C176 C177 1.386 . S
C176 C178 1.391 . S
C177 C176 1.386 . S
C177 C181 1.393 . S
C178 H167 0.950 . S
C178 C176 1.391 . S
C178 C179 1.400 . S
C179 C173 1.491 . S
C179 C178 1.400 . S
C179 C180 1.398 . S
C180 H168 0.950 . S
C180 C179 1.398 . S
C180 C181 1.391 . S
C181 H169 0.950 . S
C181 C177 1.393 . S
C181 C180 1.391 . S
H182 C190 0.950 . S
H183 C195 0.950 . S
H184 C192 0.950 . S
H185 C194 0.950 . S
H186 C196 0.950 . S
H187 C198 0.950 . S
H188 C200 0.950 . S
H189 C201 0.950 . S
C190 H182 0.950 . S
C190 C191 1.386 . S
C190 C192 1.391 . S
C191 C190 1.386 . S
C191 C195 1.393 . S
C192 H184 0.950 . S
C192 C190 1.391 . S
C192 C193 1.400 . S
C193 C192 1.400 . S
C193 C194 1.398 . S
C193 C199 1.491 . S
C194 H185 0.950 . S
C194 C193 1.398 . S
C194 C195 1.391 . S
C195 H183 0.950 . S
C195 C191 1.393 . S
C195 C194 1.391 . S
C196 H186 0.950 . S
C196 C197 1.386 . S
C196 C198 1.391 . S
C197 C196 1.386 . S
C197 C201 1.393 . S
C198 H187 0.950 . S
C198 C196 1.391 . S
C198 C199 1.400 . S
C199 C193 1.491 . S
C199 C198 1.400 . S
C199 C200 1.398 . S
C200 H188 0.950 . S
C200 C199 1.398 . S
C200 C201 1.391 . S
C201 H189 0.950 . S
C201 C197 1.393 . S
C201 C200 1.391 . S
H202 C210 0.950 . S
H203 C215 0.950 . S
H204 C212 0.950 . S
H205 C214 0.950 . S
H206 C216 0.950 . S
H207 C218 0.950 . S
H208 C220 0.950 . S
H209 C221 0.950 . S
C210 H202 0.950 . S
C210 C211 1.386 . S
C210 C212 1.391 . S
C211 C210 1.386 . S
C211 C215 1.393 . S
C212 H204 0.950 . S
C212 C210 1.391 . S
C212 C213 1.400 . S
C213 C212 1.400 . S
C213 C214 1.398 . S
C213 C219 1.491 . S
C214 H205 0.950 . S
C214 C213 1.398 . S
C214 C215 1.391 . S
C215 H203 0.950 . S
C215 C211 1.393 . S
C215 C214 1.391 . S
C216 H206 0.950 . S
C216 C217 1.386 . S
C216 C218 1.391 . S
C217 C216 1.386 . S
C217 C221 1.393 . S
C218 H207 0.950 . S
C218 C216 1.391 . S
C218 C219 1.400 . S
C219 C213 1.491 . S
C219 C218 1.400 . S
C219 C220 1.398 . S
C220 H208 0.950 . S
C220 C219 1.398 . S
C220 C221 1.391 . S
C221 H209 0.950 . S
C221 C217 1.393 . S
C221 C220 1.391 . S
C71 C10 0.878 . S
C77 C33 0.875 . S
C91 C0 1.577 . S
C97 C55 1.576 . S
C111 C18 1.548 . S
C117 C42 1.548 . S
C131 C27 1.738 . S
C137 C32 1.736 . S
C151 C24 1.580 . S
C157 C31 1.581 . S
C171 C49 1.533 . S
C177 C11 1.533 . S
C191 C1 1.732 . S
C197 C58 1.734 . S
C211 C41 0.881 . S
C217 C2 0.884 . S
