# Generated by pormake.
# Topology dia, (4)-cn, num edge types: 1
# Building blocks:
#     Node 0, Type 0, BuildingBlock: NAHDIM_clean_sbu_0, # of connection points: 4
#     Node 1, Type 0, BuildingBlock: NAHDIM_clean_sbu_0, # of connection points: 4
#     Node 2, Type 0, BuildingBlock: NAHDIM_clean_sbu_0, # of connection points: 4
#     Node 3, Type 0, BuildingBlock: NAHDIM_clean_sbu_0, # of connection points: 4
#     Node 4, Type 0, BuildingBlock: NAHDIM_clean_sbu_0, # of connection points: 4
#     Node 5, Type 0, BuildingBlock: NAHDIM_clean_sbu_0, # of connection points: 4
#     Node 6, Type 0, BuildingBlock: NAHDIM_clean_sbu_0, # of connection points: 4
#     Node 7, Type 0, BuildingBlock: NAHDIM_clean_sbu_0, # of connection points: 4
#     Edge 8, Type (0, 0), BuildingBlock: EYOCIG_clean_linker_4, # of connection points: 2
#     Edge 9, Type (0, 0), BuildingBlock: EYOCIG_clean_linker_4, # of connection points: 2
#     Edge 10, Type (0, 0), BuildingBlock: EYOCIG_clean_linker_4, # of connection points: 2
#     Edge 11, Type (0, 0), BuildingBlock: EYOCIG_clean_linker_4, # of connection points: 2
#     Edge 12, Type (0, 0), BuildingBlock: EYOCIG_clean_linker_4, # of connection points: 2
#     Edge 13, Type (0, 0), BuildingBlock: EYOCIG_clean_linker_4, # of connection points: 2
#     Edge 14, Type (0, 0), BuildingBlock: EYOCIG_clean_linker_4, # of connection points: 2
#     Edge 15, Type (0, 0), BuildingBlock: EYOCIG_clean_linker_4, # of connection points: 2
#     Edge 16, Type (0, 0), BuildingBlock: EYOCIG_clean_linker_4, # of connection points: 2
#     Edge 17, Type (0, 0), BuildingBlock: EYOCIG_clean_linker_4, # of connection points: 2
#     Edge 18, Type (0, 0), BuildingBlock: EYOCIG_clean_linker_4, # of connection points: 2
#     Edge 19, Type (0, 0), BuildingBlock: EYOCIG_clean_linker_4, # of connection points: 2
#     Edge 20, Type (0, 0), BuildingBlock: EYOCIG_clean_linker_4, # of connection points: 2
#     Edge 21, Type (0, 0), BuildingBlock: EYOCIG_clean_linker_4, # of connection points: 2
#     Edge 22, Type (0, 0), BuildingBlock: EYOCIG_clean_linker_4, # of connection points: 2
#     Edge 23, Type (0, 0), BuildingBlock: EYOCIG_clean_linker_4, # of connection points: 2
# Relax obj value: 0.005
# Max RMSD: 0.033
# Mean RMSD: 0.033
data_MOF--net-dia--node1-NAHDIM_clean_sbu_0--edge1-EYOCIG_clean_linker_4
_symmetry_space_group_name_H-M    P1
_symmetry_Int_Tables_number       1
_symmetry_cell_setting            triclinic
loop_
_symmetry_equiv_pos_as_xyz
'x, y, z'
_cell_length_a     29.051344
_cell_length_b     27.49811
_cell_length_c     27.492193
_cell_angle_alpha  86.971696
_cell_angle_beta   95.355097
_cell_angle_gamma 95.357855
loop_
_atom_site_label
_atom_site_type_symbol
_atom_site_fract_x
_atom_site_fract_y
_atom_site_fract_z
_atom_type_partial_charge
C0 C 0.0698 0.158 0.69256 0.0
O1 O 0.06181 0.11023 0.69586 0.0
O2 O 0.17294 0.09372 0.67147 0.0
Zn3 Zn 0.1335 0.13564 0.62487 0.0
O4 O 0.08629 0.09331 0.58313 0.0
C5 C 0.2134 0.1686 0.57151 0.0
O6 O 0.22862 0.12681 0.58781 0.0
O7 O 0.09918 0.17771 0.66447 0.0
C8 C 0.09358 0.08102 0.54082 0.0
O9 O 0.13297 0.09547 0.5226 0.0
C10 C 0.17978 0.05025 0.66257 0.0
O11 O 0.16109 0.03087 0.62198 0.0
O12 O 0.17428 0.17991 0.58223 0.0
C13 C 0.95505 0.29305 0.82796 0.0
O14 O 0.96276 0.28937 0.87574 0.0
O15 O 0.85221 0.31431 0.89235 0.0
Zn16 Zn 0.89162 0.36096 0.85042 0.0
O17 O 0.93882 0.40271 0.89276 0.0
C18 C 0.81165 0.41425 0.81755 0.0
O19 O 0.79645 0.39787 0.85932 0.0
O20 O 0.92593 0.32145 0.80828 0.0
C21 C 0.93147 0.44495 0.90515 0.0
O22 O 0.89201 0.46308 0.89081 0.0
C23 C 0.84545 0.32312 0.93588 0.0
O24 O 0.86421 0.36364 0.95532 0.0
O25 O 0.85079 0.4036 0.80622 0.0
C26 C 0.56994 0.1578 0.193 0.0
O27 O 0.56224 0.11002 0.19675 0.0
O28 O 0.67273 0.09341 0.17164 0.0
Zn29 Zn 0.63328 0.13528 0.12499 0.0
O30 O 0.58604 0.09292 0.08331 0.0
C31 C 0.71317 0.16811 0.07157 0.0
O32 O 0.72837 0.12633 0.08791 0.0
O33 O 0.59901 0.17745 0.16453 0.0
C34 C 0.59335 0.08051 0.04105 0.0
O35 O 0.63279 0.09484 0.02288 0.0
C36 C 0.6795 0.04989 0.16285 0.0
O37 O 0.66072 0.03041 0.12235 0.0
O38 O 0.67407 0.17946 0.08228 0.0
C39 C 0.95514 0.79297 0.32827 0.0
O40 O 0.9627 0.7891 0.37606 0.0
O41 O 0.85257 0.81459 0.3927 0.0
Zn42 Zn 0.89198 0.86118 0.35073 0.0
O43 O 0.93924 0.90293 0.39301 0.0
C44 C 0.81205 0.91451 0.31789 0.0
O45 O 0.79689 0.89822 0.35972 0.0
O46 O 0.92623 0.82159 0.30859 0.0
C47 C 0.93193 0.94521 0.40535 0.0
O48 O 0.89249 0.96336 0.39099 0.0
C49 C 0.84583 0.82342 0.43623 0.0
O50 O 0.86462 0.86394 0.45567 0.0
O51 O 0.85115 0.9038 0.30652 0.0
C52 C 0.06959 0.65771 0.19277 0.0
O53 O 0.06178 0.60994 0.19631 0.0
O54 O 0.1725 0.59342 0.17135 0.0
Zn55 Zn 0.13302 0.63533 0.12478 0.0
O56 O 0.08577 0.593 0.08307 0.0
C57 C 0.21287 0.66825 0.07136 0.0
O58 O 0.22806 0.62644 0.08762 0.0
O59 O 0.09875 0.67741 0.16442 0.0
C60 C 0.09306 0.58068 0.04077 0.0
O61 O 0.13246 0.59509 0.02256 0.0
C62 C 0.1793 0.54992 0.16249 0.0
O63 O 0.16051 0.53049 0.12197 0.0
O64 O 0.17378 0.67959 0.08212 0.0
C65 C 0.45531 0.29331 0.32806 0.0
O66 O 0.46301 0.28971 0.37585 0.0
O67 O 0.3525 0.31474 0.39236 0.0
Zn68 Zn 0.39191 0.36132 0.35038 0.0
O69 O 0.43912 0.4031 0.39267 0.0
C70 C 0.31196 0.41459 0.31746 0.0
O71 O 0.29681 0.39832 0.35929 0.0
O72 O 0.42622 0.32171 0.30831 0.0
C73 C 0.43183 0.44541 0.40494 0.0
O74 O 0.39242 0.46359 0.39048 0.0
C75 C 0.34572 0.32362 0.43586 0.0
O76 O 0.36446 0.36418 0.45525 0.0
O77 O 0.35108 0.40389 0.30611 0.0
C78 C 0.45522 0.79309 0.8282 0.0
O79 O 0.46299 0.78952 0.87599 0.0
O80 O 0.35225 0.81443 0.89244 0.0
Zn81 Zn 0.39177 0.86102 0.85058 0.0
O82 O 0.43899 0.90269 0.89298 0.0
C83 C 0.31195 0.91449 0.81762 0.0
O84 O 0.2967 0.89819 0.8594 0.0
O85 O 0.42608 0.82144 0.80849 0.0
C86 C 0.4317 0.94496 0.90535 0.0
O87 O 0.3923 0.96317 0.89094 0.0
C88 C 0.34541 0.82327 0.93594 0.0
O89 O 0.36416 0.86378 0.9554 0.0
O90 O 0.35106 0.90373 0.80632 0.0
C91 C 0.56993 0.65787 0.69294 0.0
O92 O 0.56229 0.61009 0.69664 0.0
O93 O 0.67264 0.5935 0.67147 0.0
Zn94 Zn 0.63328 0.6355 0.62487 0.0
O95 O 0.58606 0.59326 0.58304 0.0
C96 C 0.71328 0.66841 0.57165 0.0
O97 O 0.72843 0.6266 0.58794 0.0
O98 O 0.59897 0.67758 0.66446 0.0
C99 C 0.59339 0.581 0.54073 0.0
O100 O 0.63282 0.59542 0.52259 0.0
C101 C 0.67939 0.55 0.66259 0.0
O102 O 0.66064 0.53063 0.62202 0.0
O103 O 0.67415 0.67975 0.58231 0.0
C104 C 0.29273 0.26156 0.48769 0.0
C105 C 0.31686 0.28963 0.46369 0.0
C106 C 0.26471 0.22914 0.51647 0.0
C107 C 0.24115 0.20164 0.54159 0.0
C108 C 0.73233 0.49813 0.72465 0.0
C109 C 0.70822 0.52215 0.69659 0.0
C110 C 0.76033 0.46932 0.75707 0.0
C111 C 0.78389 0.44419 0.78455 0.0
C112 C 0.52945 0.02563 0.98908 0.0
C113 C 0.55843 0.05068 0.01306 0.0
C114 C 0.49559 -0.00312 0.9603 0.0
C115 C 0.46661 0.97293 0.93522 0.0
C116 C 1.00021 0.74077 0.27357 0.0
C117 C 0.97951 0.76471 0.2983 0.0
C118 C 0.02451 0.71231 0.24506 0.0
C119 C 0.04522 0.68762 0.22108 0.0
C120 C 0.26073 0.96961 0.75708 0.0
C121 C 0.28425 0.94446 0.78458 0.0
C122 C 0.23274 -0.00158 0.72466 0.0
C123 C 0.20862 0.02243 0.69659 0.0
C124 C 0.99533 0.49697 0.96005 0.0
C125 C 0.96636 0.47298 0.93499 0.0
C126 C 0.02917 0.52576 0.98881 0.0
C127 C 0.05814 0.55082 0.01278 0.0
C128 C 0.50046 0.24103 0.27352 0.0
C129 C 0.47972 0.26501 0.29818 0.0
C130 C 0.5248 0.21252 0.24511 0.0
C131 C 0.54554 0.18777 0.22121 0.0
C132 C 0.79278 0.76137 0.48799 0.0
C133 C 0.81693 0.78944 0.46403 0.0
C134 C 0.7647 0.72895 0.51672 0.0
C135 C 0.74109 0.70144 0.54178 0.0
C136 C 0.23243 0.49822 0.22451 0.0
C137 C 0.20824 0.52216 0.19646 0.0
C138 C 0.26054 0.46951 0.25692 0.0
C139 C 0.28416 0.44445 0.28442 0.0
C140 C 0.79248 0.261 0.98766 0.0
C141 C 0.8166 0.28909 0.96367 0.0
C142 C 0.76448 0.22858 0.01646 0.0
C143 C 0.74092 0.2011 0.04161 0.0
C144 C 0.76064 0.96947 0.25738 0.0
C145 C 0.78425 0.94439 0.28487 0.0
C146 C 0.73258 -0.0018 0.22495 0.0
C147 C 0.70841 0.02214 0.19687 0.0
C148 C 0.99585 -0.00275 0.46015 0.0
C149 C 0.96686 0.97324 0.43514 0.0
C150 C 0.02971 0.02606 0.48887 0.0
C151 C 0.05868 0.05114 0.51283 0.0
C152 C 1.00024 0.24095 0.77328 0.0
C153 C 0.97948 0.26484 0.798 0.0
C154 C 0.02461 0.21254 0.7448 0.0
C155 C 0.04537 0.18788 0.72084 0.0
C156 C 0.52476 0.71245 0.74514 0.0
C157 C 0.54551 0.68777 0.7212 0.0
C158 C 0.5004 0.7409 0.7736 0.0
C159 C 0.47965 0.76484 0.79829 0.0
C160 C 0.26422 0.72879 0.01636 0.0
C161 C 0.24064 0.70129 0.04145 0.0
C162 C 0.29229 0.76121 0.98762 0.0
C163 C 0.31648 0.78927 0.96368 0.0
C164 C 0.49568 0.49741 0.45985 0.0
C165 C 0.46672 0.47343 0.43479 0.0
C166 C 0.52953 0.52617 0.48865 0.0
C167 C 0.55849 0.55119 0.51267 0.0
loop_
_geom_bond_atom_site_label_1
_geom_bond_atom_site_label_2
_geom_bond_distance
_geom_bond_site_symmetry_2
_ccdc_geom_bond_type
C0 O1 1.160 . S
C0 O7 1.185 . S
O1 C0 1.160 . S
O2 Zn3 1.899 . S
O2 C10 1.284 . S
Zn3 O2 1.899 . S
Zn3 O4 2.032 . S
Zn3 O7 2.086 . S
Zn3 O12 1.977 . S
O4 Zn3 2.032 . S
O4 C8 1.278 . S
C5 O6 1.203 . S
C5 O12 1.267 . S
O6 C5 1.203 . S
O7 C0 1.185 . S
O7 Zn3 2.086 . S
C8 O4 1.278 . S
C8 O9 1.211 . S
O9 C8 1.211 . S
C10 O2 1.284 . S
C10 O11 1.273 . S
O11 C10 1.273 . S
O12 Zn3 1.977 . S
O12 C5 1.267 . S
C13 O14 1.160 . S
C13 O20 1.185 . S
O14 C13 1.160 . S
O15 Zn16 1.899 . S
O15 C23 1.284 . S
Zn16 O15 1.899 . S
Zn16 O17 2.032 . S
Zn16 O20 2.086 . S
Zn16 O25 1.977 . S
O17 Zn16 2.032 . S
O17 C21 1.278 . S
C18 O19 1.203 . S
C18 O25 1.267 . S
O19 C18 1.203 . S
O20 C13 1.185 . S
O20 Zn16 2.086 . S
C21 O17 1.278 . S
C21 O22 1.211 . S
O22 C21 1.211 . S
C23 O15 1.284 . S
C23 O24 1.273 . S
O24 C23 1.273 . S
O25 Zn16 1.977 . S
O25 C18 1.267 . S
C26 O27 1.160 . S
C26 O33 1.185 . S
O27 C26 1.160 . S
O28 Zn29 1.899 . S
O28 C36 1.284 . S
Zn29 O28 1.899 . S
Zn29 O30 2.032 . S
Zn29 O33 2.086 . S
Zn29 O38 1.977 . S
O30 Zn29 2.032 . S
O30 C34 1.278 . S
C31 O32 1.203 . S
C31 O38 1.267 . S
O32 C31 1.203 . S
O33 C26 1.185 . S
O33 Zn29 2.086 . S
C34 O30 1.278 . S
C34 O35 1.211 . S
O35 C34 1.211 . S
C36 O28 1.284 . S
C36 O37 1.273 . S
O37 C36 1.273 . S
O38 Zn29 1.977 . S
O38 C31 1.267 . S
C39 O40 1.160 . S
C39 O46 1.185 . S
O40 C39 1.160 . S
O41 Zn42 1.899 . S
O41 C49 1.284 . S
Zn42 O41 1.899 . S
Zn42 O43 2.032 . S
Zn42 O46 2.086 . S
Zn42 O51 1.977 . S
O43 Zn42 2.032 . S
O43 C47 1.278 . S
C44 O45 1.203 . S
C44 O51 1.267 . S
O45 C44 1.203 . S
O46 C39 1.185 . S
O46 Zn42 2.086 . S
C47 O43 1.278 . S
C47 O48 1.211 . S
O48 C47 1.211 . S
C49 O41 1.284 . S
C49 O50 1.273 . S
O50 C49 1.273 . S
O51 Zn42 1.977 . S
O51 C44 1.267 . S
C52 O53 1.160 . S
C52 O59 1.185 . S
O53 C52 1.160 . S
O54 Zn55 1.899 . S
O54 C62 1.284 . S
Zn55 O54 1.899 . S
Zn55 O56 2.032 . S
Zn55 O59 2.086 . S
Zn55 O64 1.977 . S
O56 Zn55 2.032 . S
O56 C60 1.278 . S
C57 O58 1.203 . S
C57 O64 1.267 . S
O58 C57 1.203 . S
O59 C52 1.185 . S
O59 Zn55 2.086 . S
C60 O56 1.278 . S
C60 O61 1.211 . S
O61 C60 1.211 . S
C62 O54 1.284 . S
C62 O63 1.273 . S
O63 C62 1.273 . S
O64 Zn55 1.977 . S
O64 C57 1.267 . S
C65 O66 1.160 . S
C65 O72 1.185 . S
O66 C65 1.160 . S
O67 Zn68 1.899 . S
O67 C75 1.284 . S
Zn68 O67 1.899 . S
Zn68 O69 2.032 . S
Zn68 O72 2.086 . S
Zn68 O77 1.977 . S
O69 Zn68 2.032 . S
O69 C73 1.278 . S
C70 O71 1.203 . S
C70 O77 1.267 . S
O71 C70 1.203 . S
O72 C65 1.185 . S
O72 Zn68 2.086 . S
C73 O69 1.278 . S
C73 O74 1.211 . S
O74 C73 1.211 . S
C75 O67 1.284 . S
C75 O76 1.273 . S
O76 C75 1.273 . S
O77 Zn68 1.977 . S
O77 C70 1.267 . S
C78 O79 1.160 . S
C78 O85 1.185 . S
O79 C78 1.160 . S
O80 Zn81 1.899 . S
O80 C88 1.284 . S
Zn81 O80 1.899 . S
Zn81 O82 2.032 . S
Zn81 O85 2.086 . S
Zn81 O90 1.977 . S
O82 Zn81 2.032 . S
O82 C86 1.278 . S
C83 O84 1.203 . S
C83 O90 1.267 . S
O84 C83 1.203 . S
O85 C78 1.185 . S
O85 Zn81 2.086 . S
C86 O82 1.278 . S
C86 O87 1.211 . S
O87 C86 1.211 . S
C88 O80 1.284 . S
C88 O89 1.273 . S
O89 C88 1.273 . S
O90 Zn81 1.977 . S
O90 C83 1.267 . S
C91 O92 1.160 . S
C91 O98 1.185 . S
O92 C91 1.160 . S
O93 Zn94 1.899 . S
O93 C101 1.284 . S
Zn94 O93 1.899 . S
Zn94 O95 2.032 . S
Zn94 O98 2.086 . S
Zn94 O103 1.977 . S
O95 Zn94 2.032 . S
O95 C99 1.278 . S
C96 O97 1.203 . S
C96 O103 1.267 . S
O97 C96 1.203 . S
O98 C91 1.185 . S
O98 Zn94 2.086 . S
C99 O95 1.278 . S
C99 O100 1.211 . S
O100 C99 1.211 . S
C101 O93 1.284 . S
C101 O102 1.273 . S
O102 C101 1.273 . S
O103 Zn94 1.977 . S
O103 C96 1.267 . S
C104 C105 1.170 . S
C104 C106 1.380 . S
C105 C104 1.170 . S
C106 C104 1.380 . S
C106 C107 1.170 . S
C107 C106 1.170 . S
C108 C109 1.170 . S
C108 C110 1.380 . S
C109 C108 1.170 . S
C110 C108 1.380 . S
C110 C111 1.170 . S
C111 C110 1.170 . S
C112 C113 1.170 . S
C112 C114 1.380 1_544 S
C113 C112 1.170 . S
C114 C112 1.380 1_566 S
C114 C115 1.170 . S
C115 C114 1.170 . S
C116 C117 1.170 . S
C116 C118 1.380 1_655 S
C117 C116 1.170 . S
C118 C116 1.380 1_455 S
C118 C119 1.170 . S
C119 C118 1.170 . S
C120 C121 1.170 . S
C120 C122 1.380 1_565 S
C121 C120 1.170 . S
C122 C120 1.380 1_545 S
C122 C123 1.170 . S
C123 C122 1.170 . S
C124 C125 1.170 . S
C124 C126 1.380 1_656 S
C125 C124 1.170 . S
C126 C124 1.380 1_454 S
C126 C127 1.170 . S
C127 C126 1.170 . S
C128 C129 1.170 . S
C128 C130 1.380 . S
C129 C128 1.170 . S
C130 C128 1.380 . S
C130 C131 1.170 . S
C131 C130 1.170 . S
C132 C133 1.170 . S
C132 C134 1.380 . S
C133 C132 1.170 . S
C134 C132 1.380 . S
C134 C135 1.170 . S
C135 C134 1.170 . S
C136 C137 1.170 . S
C136 C138 1.380 . S
C137 C136 1.170 . S
C138 C136 1.380 . S
C138 C139 1.170 . S
C139 C138 1.170 . S
C140 C141 1.170 . S
C140 C142 1.380 1_556 S
C141 C140 1.170 . S
C142 C140 1.380 1_554 S
C142 C143 1.170 . S
C143 C142 1.170 . S
C144 C145 1.170 . S
C144 C146 1.380 1_565 S
C145 C144 1.170 . S
C146 C144 1.380 1_545 S
C146 C147 1.170 . S
C147 C146 1.170 . S
C148 C149 1.170 . S
C148 C150 1.380 1_665 S
C149 C148 1.170 . S
C150 C148 1.380 1_445 S
C150 C151 1.170 . S
C151 C150 1.170 . S
C152 C153 1.170 . S
C152 C154 1.380 1_655 S
C153 C152 1.170 . S
C154 C152 1.380 1_455 S
C154 C155 1.170 . S
C155 C154 1.170 . S
C156 C157 1.170 . S
C156 C158 1.380 . S
C157 C156 1.170 . S
C158 C156 1.380 . S
C158 C159 1.170 . S
C159 C158 1.170 . S
C160 C161 1.170 . S
C160 C162 1.380 1_554 S
C161 C160 1.170 . S
C162 C160 1.380 1_556 S
C162 C163 1.170 . S
C163 C162 1.170 . S
C164 C165 1.170 . S
C164 C166 1.380 . S
C165 C164 1.170 . S
C166 C164 1.380 . S
C166 C167 1.170 . S
C167 C166 1.170 . S
C105 C75 1.480 . S
C107 C5 1.485 . S
C109 C101 1.474 . S
C111 C18 1.471 . S
C113 C34 1.478 . S
C115 C86 1.485 . S
C117 C39 1.467 . S
C119 C52 1.473 . S
C121 C83 1.488 . S
C123 C10 1.493 . S
C125 C21 1.480 . S
C127 C60 1.486 . S
C129 C65 1.467 . S
C131 C26 1.466 . S
C133 C49 1.475 . S
C135 C96 1.476 . S
C137 C62 1.477 . S
C139 C70 1.464 . S
C141 C23 1.484 . S
C143 C31 1.465 . S
C145 C44 1.468 . S
C147 C36 1.474 . S
C149 C47 1.467 . S
C151 C8 1.480 . S
C153 C13 1.485 . S
C155 C0 1.490 . S
C157 C91 1.466 . S
C159 C78 1.468 . S
C161 C57 1.465 . S
C163 C88 1.484 . S
C165 C73 1.458 . S
C167 C99 1.465 . S
