# Generated by pormake.
# Topology lcy, (6)-cn, num edge types: 1
# Building blocks:
#     Node 0, Type 0, BuildingBlock: UKALOJ_clean_sbu_0, # of connection points: 6
#     Node 1, Type 0, BuildingBlock: UKALOJ_clean_sbu_0, # of connection points: 6
#     Node 2, Type 0, BuildingBlock: UKALOJ_clean_sbu_0, # of connection points: 6
#     Node 3, Type 0, BuildingBlock: UKALOJ_clean_sbu_0, # of connection points: 6
#     Edge 4, Type (0, 0), BuildingBlock: OJICUG_clean_linker_0, # of connection points: 2
#     Edge 5, Type (0, 0), BuildingBlock: OJICUG_clean_linker_0, # of connection points: 2
#     Edge 6, Type (0, 0), BuildingBlock: OJICUG_clean_linker_0, # of connection points: 2
#     Edge 7, Type (0, 0), BuildingBlock: OJICUG_clean_linker_0, # of connection points: 2
#     Edge 8, Type (0, 0), BuildingBlock: OJICUG_clean_linker_0, # of connection points: 2
#     Edge 9, Type (0, 0), BuildingBlock: OJICUG_clean_linker_0, # of connection points: 2
#     Edge 10, Type (0, 0), BuildingBlock: OJICUG_clean_linker_0, # of connection points: 2
#     Edge 11, Type (0, 0), BuildingBlock: OJICUG_clean_linker_0, # of connection points: 2
#     Edge 12, Type (0, 0), BuildingBlock: OJICUG_clean_linker_0, # of connection points: 2
#     Edge 13, Type (0, 0), BuildingBlock: OJICUG_clean_linker_0, # of connection points: 2
#     Edge 14, Type (0, 0), BuildingBlock: OJICUG_clean_linker_0, # of connection points: 2
#     Edge 15, Type (0, 0), BuildingBlock: OJICUG_clean_linker_0, # of connection points: 2
# Relax obj value: 0.372
# Max RMSD: 0.307
# Mean RMSD: 0.268
data_MOF--net-lcy--node1-UKALOJ_clean_sbu_0--edge1-OJICUG_clean_linker_0
_symmetry_space_group_name_H-M    P1
_symmetry_Int_Tables_number       1
_symmetry_cell_setting            triclinic
loop_
_symmetry_equiv_pos_as_xyz
'x, y, z'
_cell_length_a     20.418667
_cell_length_b     19.704715
_cell_length_c     20.416311
_cell_angle_alpha  87.945583
_cell_angle_beta   102.34203
_cell_angle_gamma 100.34329
loop_
_atom_site_label
_atom_site_type_symbol
_atom_site_fract_x
_atom_site_fract_y
_atom_site_fract_z
_atom_type_partial_charge
Zn0 Zn 0.33515 0.46983 0.32841 0.0
O1 O 0.29308 0.51326 0.39857 0.0
C2 C 0.43401 0.59837 0.33163 0.0
Zn3 Zn 0.42853 0.46704 0.40748 0.0
C4 C 0.33003 0.53259 0.45578 0.0
O5 O 0.39095 0.5212 0.47263 0.0
C6 C 0.43143 0.40309 0.27897 0.0
O7 O 0.37852 0.37383 0.4464 0.0
O8 O 0.29532 0.37217 0.35829 0.0
N9 N 0.52072 0.46306 0.47317 0.0
C10 C 0.56008 0.41387 0.47807 0.0
C11 C 0.62236 0.50298 0.52855 0.0
N12 N 0.55971 0.51836 0.50472 0.0
N13 N 0.62433 0.43811 0.51119 0.0
C14 C 0.25023 0.49446 0.1913 0.0
C15 C 0.19053 0.3942 0.17158 0.0
N16 N 0.25078 0.46298 0.25114 0.0
N17 N 0.21298 0.40086 0.23848 0.0
N18 N 0.21506 0.45162 0.14069 0.0
H19 H 0.26821 0.59825 0.22722 0.0
H20 H 0.24337 0.59018 0.13753 0.0
H21 H 0.32807 0.57982 0.17897 0.0
C22 C 0.27395 0.57015 0.18329 0.0
C23 C 0.53524 0.34097 0.45351 0.0
H24 H 0.47939 0.32663 0.44586 0.0
H25 H 0.55922 0.3048 0.48992 0.0
H26 H 0.55 0.33481 0.4053 0.0
O27 O 0.46341 0.41255 0.33913 0.0
O28 O 0.37709 0.42674 0.25959 0.0
C29 C 0.32061 0.34551 0.41305 0.0
O30 O 0.37474 0.56915 0.30344 0.0
O31 O 0.47227 0.56414 0.37211 0.0
Zn32 Zn 0.93091 0.17885 0.6137 0.0
O33 O 0.87789 0.25828 0.55928 0.0
C34 C 0.96118 0.27659 0.72573 0.0
Zn35 Zn 0.85118 0.15292 0.67499 0.0
C36 C 0.82494 0.26783 0.57932 0.0
O37 O 0.80443 0.22981 0.6248 0.0
C38 C 0.95372 0.05786 0.70945 0.0
O39 O 0.78802 0.07929 0.59862 0.0
O40 O 0.87224 0.10578 0.54591 0.0
N41 N 0.7813 0.14163 0.73718 0.0
C42 C 0.76498 0.09466 0.78364 0.0
C43 C 0.72286 0.18295 0.79791 0.0
N44 N 0.75445 0.1961 0.74614 0.0
N45 N 0.7293 0.11987 0.82335 0.0
C46 C 0.05823 0.2327 0.54747 0.0
C47 C 0.06024 0.14006 0.49757 0.0
N48 N 0.00352 0.18649 0.55642 0.0
N49 N 0.00526 0.12917 0.5253 0.0
N50 N 0.09503 0.20437 0.51136 0.0
H51 H 0.02327 0.32497 0.56392 0.0
H52 H 0.10503 0.33949 0.54049 0.0
H53 H 0.0978 0.30953 0.6238 0.0
C54 C 0.07219 0.30619 0.57002 0.0
C55 C 0.78069 0.02321 0.78718 0.0
H56 H 0.78297 1.00578 0.73676 0.0
H57 H 0.74145 0.98668 0.80687 0.0
H58 H 0.83077 0.02329 0.82134 0.0
O59 O 0.90081 0.07158 0.72597 0.0
O60 O 0.9799 0.0975 0.66762 0.0
C61 C 0.81371 0.07261 0.54768 0.0
O62 O 0.98767 0.25826 0.6796 0.0
O63 O 0.91175 0.23524 0.74241 0.0
Zn64 Zn 0.07445 0.67835 0.88265 0.0
O65 O 0.16052 0.74998 0.9383 0.0
C66 C 0.04182 0.79285 0.78729 0.0
Zn67 Zn 0.12646 0.67758 0.7992 0.0
C68 C 0.2134 0.76269 0.91278 0.0
O69 O 0.20972 0.74127 0.85432 0.0
C70 C 0.00246 0.57293 0.77483 0.0
O71 O 0.17176 0.59 0.8436 0.0
O72 O 0.12017 0.60043 0.92568 0.0
N73 N 0.17695 0.68499 0.72397 0.0
C74 C 0.18553 0.63863 0.68125 0.0
C75 C 0.2422 0.73594 0.66009 0.0
N76 N 0.21193 0.74544 0.71064 0.0
N77 N 0.22565 0.66953 0.64057 0.0
C78 C 0.99758 0.71598 0.98819 0.0
C79 C 0.95413 0.61576 0.01697 0.0
N80 N 0.022 0.66984 0.95736 0.0
N81 N 0.9955 0.60768 0.97583 0.0
N82 N 0.95376 0.68323 0.02522 0.0
H83 H 0.07283 0.8048 0.97642 0.0
H84 H 0.01768 0.81787 0.03148 0.0
H85 H 0.98668 0.81364 0.94179 0.0
C86 C 0.02015 0.79249 0.98463 0.0
C87 C 0.1586 0.56266 0.68164 0.0
H88 H 0.19888 0.53329 0.67669 0.0
H89 H 0.11603 0.54964 0.63772 0.0
H90 H 0.14006 0.54634 0.72771 0.0
O91 O 0.04541 0.60691 0.74383 0.0
O92 O 0.99649 0.59739 0.82976 0.0
C93 C 0.15697 0.56938 0.89934 0.0
O94 O 0.02543 0.76171 0.83861 0.0
O95 O 0.08222 0.76829 0.75854 0.0
Zn96 Zn 0.61677 0.90334 0.15919 0.0
O97 O 0.53324 0.85119 0.08012 0.0
C98 C 0.64823 1.01502 0.06668 0.0
Zn99 Zn 0.55613 0.98319 0.16773 0.0
C100 C 0.47988 0.87885 0.06681 0.0
O101 O 0.4805 0.93517 0.09431 0.0
C102 C 0.68039 1.00228 0.27408 0.0
O103 O 0.50587 0.92356 0.23967 0.0
O104 O 0.5715 0.84941 0.22797 0.0
N105 N 0.50175 0.06011 0.16024 0.0
C106 C 0.50174 0.11202 0.201 0.0
C107 C 0.44893 0.13574 0.10326 0.0
N108 N 0.4686 0.07474 0.09968 0.0
N109 N 0.47008 0.16066 0.16611 0.0
C110 C 0.70312 0.80869 0.11265 0.0
C111 C 0.75193 0.77041 0.20591 0.0
N112 N 0.67511 0.82969 0.16061 0.0
N113 N 0.70502 0.80536 0.21843 0.0
N114 N 0.75254 0.77243 0.13999 0.0
H115 H 0.62461 0.8246 0.02728 0.0
H116 H 0.68725 0.77821 0.00915 0.0
H117 H 0.70803 0.86991 0.02415 0.0
C118 C 0.67925 0.82075 0.03909 0.0
C119 C 0.52868 0.11255 0.27515 0.0
H120 H 0.52433 0.0589 0.29432 0.0
H121 H 0.50007 0.14187 0.30112 0.0
H122 H 0.58306 0.13748 0.28625 0.0
O123 O 0.62988 0.03073 0.24833 0.0
O124 O 0.6925 0.95262 0.24284 0.0
C125 C 0.5273 0.86691 0.25558 0.0
O126 O 0.66508 0.95834 0.08824 0.0
O127 O 0.60561 0.0391 0.09238 0.0
C128 C 0.24863 0.52704 0.97813 0.0
C129 C 0.18278 0.5127 0.93843 0.0
H130 H 0.31125 0.51681 0.07514 0.0
C131 C 0.13369 0.46263 0.96017 0.0
H132 H 0.28728 0.5655 0.96249 0.0
C133 C 0.14598 0.43803 0.02582 0.0
C134 C 0.20803 0.4622 0.0696 0.0
H135 H 0.08236 0.45093 0.93019 0.0
H136 H 0.10484 0.40597 0.04418 0.0
C137 C 0.26139 0.50128 0.04343 0.0
C138 C 0.77824 0.99921 0.37296 0.0
C139 C 0.71439 1.01678 0.34561 0.0
H140 H 0.85928 1.00166 0.45975 0.0
C141 C 0.67932 0.04243 0.38917 0.0
H142 H 0.80596 0.97784 0.34142 0.0
C143 C 0.70851 0.05348 0.45741 0.0
C144 C 0.77399 0.03988 0.4838 0.0
H145 H 0.62898 0.05413 0.3707 0.0
H146 H 0.68164 0.07687 0.48841 0.0
C147 C 0.80806 1.01151 0.44104 0.0
C148 C 0.2068 0.59919 0.53961 0.0
C149 C 0.25156 0.63816 0.59207 0.0
H150 H 0.19682 0.53491 0.45459 0.0
C151 C 0.32195 0.64397 0.59868 0.0
H152 H 0.15227 0.59511 0.53378 0.0
C153 C 0.34755 0.60927 0.55432 0.0
C154 C 0.30286 0.56933 0.50214 0.0
H155 H 0.35683 0.67391 0.63924 0.0
H156 H 0.40223 0.61382 0.56081 0.0
C157 C 0.23228 0.56521 0.49456 0.0
C158 C 0.63346 0.08865 0.96323 0.0
C159 C 0.67222 0.04722 0.0072 0.0
H160 H 0.62035 0.1423 0.86926 0.0
C161 C 0.73073 0.03082 0.99013 0.0
H162 H 0.58779 0.10176 0.9746 0.0
C163 C 0.74952 0.05433 0.93012 0.0
C164 C 0.70927 0.0933 0.88457 0.0
H165 H 0.76215 0.99963 0.02329 0.0
H166 H 0.79631 0.04287 0.92037 0.0
C167 C 0.65171 0.11124 0.90259 0.0
C168 C 0.16305 0.22021 0.42455 0.0
C169 C 0.1569 0.23288 0.48996 0.0
H170 H 0.22179 0.24491 0.34908 0.0
C171 C 0.21223 0.27183 0.53384 0.0
H172 H 0.12152 0.18921 0.39028 0.0
C173 C 0.27054 0.30239 0.51082 0.0
C174 C 0.27393 0.29462 0.4435 0.0
H175 H 0.20955 0.28011 0.58526 0.0
H176 H 0.31035 0.33645 0.54411 0.0
C177 C 0.22074 0.2512 0.40135 0.0
C178 C 0.04838 0.90451 0.72028 0.0
C179 C 0.01846 0.85999 0.76556 0.0
H180 H 0.05288 1.00156 0.66819 0.0
C181 C 0.96877 0.8826 0.79367 0.0
H182 H 0.08724 0.88956 0.69793 0.0
C183 C 0.9495 0.94714 0.7771 0.0
C184 C 0.97924 0.99182 0.73191 0.0
H185 H 0.94423 0.85017 0.82854 0.0
H186 H 0.91059 0.96158 0.79946 0.0
C187 C 0.02917 0.96938 0.70381 0.0
C188 C 0.2891 0.82536 0.01387 0.0
C189 C 0.28162 0.7931 0.95218 0.0
H190 H 0.35814 0.87692 0.09825 0.0
C191 C 0.3409 0.78551 0.92964 0.0
H192 H 0.24489 0.83112 0.03311 0.0
C193 C 0.40612 0.81036 0.96767 0.0
C194 C 0.41318 0.84437 0.0283 0.0
H195 H 0.33705 0.7597 0.88266 0.0
H196 H 0.45061 0.80483 0.94882 0.0
C197 C 0.35407 0.85118 0.05115 0.0
C198 C 0.39519 0.31445 0.18945 0.0
C199 C 0.44761 0.35158 0.23786 0.0
H200 H 0.36133 0.22252 0.13001 0.0
C201 C 0.51077 0.32983 0.25527 0.0
H202 H 0.34596 0.33027 0.17475 0.0
C203 C 0.51911 0.26808 0.2298 0.0
C204 C 0.46423 0.22729 0.18717 0.0
H205 H 0.55256 0.3588 0.2909 0.0
H206 H 0.56782 0.25144 0.24468 0.0
C207 C 0.40351 0.25255 0.16438 0.0
C208 C 0.77626 0.36753 0.60424 0.0
C209 C 0.78759 0.32457 0.55569 0.0
H210 H 0.71508 0.43737 0.62778 0.0
C211 C 0.74966 0.32574 0.4899 0.0
H212 H 0.80452 0.36692 0.65561 0.0
C213 C 0.69791 0.36566 0.47429 0.0
C214 C 0.68295 0.40425 0.52441 0.0
H215 H 0.75678 0.29241 0.4519 0.0
H216 H 0.66828 0.36472 0.42355 0.0
C217 C 0.72486 0.40737 0.58863 0.0
C218 C 0.96075 0.44937 0.80802 0.0
C219 C 0.97961 0.49738 0.75922 0.0
H220 H 0.94078 0.34222 0.83682 0.0
C221 C 0.99088 0.47116 0.70032 0.0
H222 H 0.95247 0.46727 0.85462 0.0
C223 C 0.98761 0.40038 0.69191 0.0
C224 C 0.97126 0.35223 0.7412 0.0
H225 H 0.00463 0.50577 0.66115 0.0
H226 H 0.99668 0.38345 0.6455 0.0
C227 C 0.95566 0.37762 0.79865 0.0
C228 C 0.87844 0.7671 0.03169 0.0
C229 C 0.90668 0.70914 0.05703 0.0
H230 H 0.81152 0.8355 0.04092 0.0
C231 C 0.88273 0.67208 0.10989 0.0
H232 H 0.8927 0.79529 0.98918 0.0
C233 C 0.8315 0.69232 0.13635 0.0
C234 C 0.80329 0.7502 0.11068 0.0
H235 H 0.90306 0.62678 0.13008 0.0
H236 H 0.81353 0.66253 0.17663 0.0
C237 C 0.82892 0.78849 0.05948 0.0
C238 C 0.42887 0.78179 0.27143 0.0
C239 C 0.49611 0.8136 0.29634 0.0
H240 H 0.357 0.68816 0.26187 0.0
C241 C 0.54009 0.77717 0.3407 0.0
H242 H 0.39458 0.80837 0.23602 0.0
C243 C 0.51969 0.70742 0.35344 0.0
C244 C 0.45474 0.67325 0.32238 0.0
H245 H 0.59271 0.80071 0.35964 0.0
H246 H 0.55594 0.67965 0.38473 0.0
C247 C 0.40834 0.71207 0.28437 0.0
loop_
_geom_bond_atom_site_label_1
_geom_bond_atom_site_label_2
_geom_bond_distance
_geom_bond_site_symmetry_2
_ccdc_geom_bond_type
Zn0 O1 2.055 . S
Zn0 O8 2.046 . S
Zn0 N16 2.036 . S
Zn0 O28 2.053 . S
Zn0 O30 2.066 . S
O1 Zn0 2.055 . S
O1 C4 1.259 . S
C2 O30 1.256 . S
C2 O31 1.244 . S
Zn3 O5 2.046 . S
Zn3 O7 2.055 . S
Zn3 N9 2.036 . S
Zn3 O27 2.066 . S
Zn3 O31 2.053 . S
C4 O1 1.259 . S
C4 O5 1.254 . S
O5 Zn3 2.046 . S
O5 C4 1.254 . S
C6 O27 1.256 . S
C6 O28 1.244 . S
O7 Zn3 2.055 . S
O7 C29 1.259 . S
O8 Zn0 2.046 . S
O8 C29 1.254 . S
N9 Zn3 2.036 . S
N9 C10 1.298 . S
N9 N12 1.398 . S
C10 N9 1.298 . S
C10 N13 1.367 . S
C10 C23 1.481 . S
C11 N12 1.299 . S
C11 N13 1.379 . S
N12 N9 1.398 . S
N12 C11 1.299 . S
N13 C10 1.367 . S
N13 C11 1.379 . S
C14 N16 1.298 . S
C14 N18 1.367 . S
C14 C22 1.481 . S
C15 N17 1.299 . S
C15 N18 1.379 . S
N16 Zn0 2.036 . S
N16 C14 1.298 . S
N16 N17 1.398 . S
N17 C15 1.299 . S
N17 N16 1.398 . S
N18 C14 1.367 . S
N18 C15 1.379 . S
H19 C22 0.980 . S
H20 C22 0.981 . S
H21 C22 0.981 . S
C22 C14 1.481 . S
C22 H19 0.980 . S
C22 H20 0.981 . S
C22 H21 0.981 . S
C23 C10 1.481 . S
C23 H24 0.980 . S
C23 H25 0.981 . S
C23 H26 0.981 . S
H24 C23 0.980 . S
H25 C23 0.981 . S
H26 C23 0.981 . S
O27 Zn3 2.066 . S
O27 C6 1.256 . S
O28 Zn0 2.053 . S
O28 C6 1.244 . S
C29 O7 1.259 . S
C29 O8 1.254 . S
O30 Zn0 2.066 . S
O30 C2 1.256 . S
O31 C2 1.244 . S
O31 Zn3 2.053 . S
Zn32 O33 2.055 . S
Zn32 O40 2.046 . S
Zn32 N48 2.036 . S
Zn32 O60 2.053 . S
Zn32 O62 2.066 . S
O33 Zn32 2.055 . S
O33 C36 1.259 . S
C34 O62 1.256 . S
C34 O63 1.244 . S
Zn35 O37 2.046 . S
Zn35 O39 2.055 . S
Zn35 N41 2.036 . S
Zn35 O59 2.066 . S
Zn35 O63 2.053 . S
C36 O33 1.259 . S
C36 O37 1.254 . S
O37 Zn35 2.046 . S
O37 C36 1.254 . S
C38 O59 1.256 . S
C38 O60 1.244 . S
O39 Zn35 2.055 . S
O39 C61 1.259 . S
O40 Zn32 2.046 . S
O40 C61 1.254 . S
N41 Zn35 2.036 . S
N41 C42 1.298 . S
N41 N44 1.398 . S
C42 N41 1.298 . S
C42 N45 1.367 . S
C42 C55 1.481 1_545 S
C43 N44 1.299 . S
C43 N45 1.379 . S
N44 N41 1.398 . S
N44 C43 1.299 . S
N45 C42 1.367 . S
N45 C43 1.379 . S
C46 N48 1.298 1_455 S
C46 N50 1.367 . S
C46 C54 1.481 1_455 S
C47 N49 1.299 . S
C47 N50 1.379 . S
N48 Zn32 2.036 . S
N48 C46 1.298 1_655 S
N48 N49 1.398 1_655 S
N49 C47 1.299 . S
N49 N48 1.398 1_455 S
N50 C46 1.367 . S
N50 C47 1.379 . S
H51 C54 0.980 . S
H52 C54 0.981 . S
H53 C54 0.981 1_455 S
C54 C46 1.481 1_655 S
C54 H51 0.980 . S
C54 H52 0.981 . S
C54 H53 0.981 1_655 S
C55 C42 1.481 1_565 S
C55 H56 0.980 . S
C55 H57 0.981 . S
C55 H58 0.981 . S
H56 C55 0.980 . S
H57 C55 0.981 . S
H58 C55 0.981 . S
O59 Zn35 2.066 . S
O59 C38 1.256 . S
O60 Zn32 2.053 . S
O60 C38 1.244 . S
C61 O39 1.259 . S
C61 O40 1.254 . S
O62 Zn32 2.066 . S
O62 C34 1.256 . S
O63 C34 1.244 . S
O63 Zn35 2.053 . S
Zn64 O65 2.055 . S
Zn64 O72 2.046 . S
Zn64 N80 2.036 . S
Zn64 O92 2.053 . S
Zn64 O94 2.066 . S
O65 Zn64 2.055 . S
O65 C68 1.259 . S
C66 O94 1.256 . S
C66 O95 1.244 . S
Zn67 O69 2.046 . S
Zn67 O71 2.055 . S
Zn67 N73 2.036 . S
Zn67 O91 2.066 . S
Zn67 O95 2.053 . S
C68 O65 1.259 . S
C68 O69 1.254 . S
O69 Zn67 2.046 . S
O69 C68 1.254 . S
C70 O91 1.256 . S
C70 O92 1.244 . S
O71 Zn67 2.055 . S
O71 C93 1.259 . S
O72 Zn64 2.046 . S
O72 C93 1.254 . S
N73 Zn67 2.036 . S
N73 C74 1.298 . S
N73 N76 1.398 . S
C74 N73 1.298 . S
C74 N77 1.367 . S
C74 C87 1.481 . S
C75 N76 1.299 . S
C75 N77 1.379 . S
N76 N73 1.398 . S
N76 C75 1.299 . S
N77 C74 1.367 . S
N77 C75 1.379 . S
C78 N80 1.298 . S
C78 N82 1.367 1_455 S
C78 C86 1.481 . S
C79 N81 1.299 . S
C79 N82 1.379 . S
N80 Zn64 2.036 . S
N80 C78 1.298 . S
N80 N81 1.398 1_455 S
N81 C79 1.299 . S
N81 N80 1.398 1_655 S
N82 C78 1.367 1_655 S
N82 C79 1.379 . S
H83 C86 0.980 . S
H84 C86 0.970 1_554 S
H85 C86 0.981 . S
C86 C78 1.481 . S
C86 H83 0.980 . S
C86 H84 0.970 1_556 S
C86 H85 0.981 . S
C87 C74 1.481 . S
C87 H88 0.980 . S
C87 H89 0.981 . S
C87 H90 0.981 . S
H88 C87 0.980 . S
H89 C87 0.981 . S
H90 C87 0.981 . S
O91 Zn67 2.066 . S
O91 C70 1.256 . S
O92 Zn64 2.053 . S
O92 C70 1.244 . S
C93 O71 1.259 . S
C93 O72 1.254 . S
O94 Zn64 2.066 . S
O94 C66 1.256 . S
O95 C66 1.244 . S
O95 Zn67 2.053 . S
Zn96 O97 2.055 . S
Zn96 O104 2.046 . S
Zn96 N112 2.036 . S
Zn96 O124 2.053 . S
Zn96 O126 2.066 . S
O97 Zn96 2.055 . S
O97 C100 1.259 . S
C98 O126 1.256 . S
C98 O127 1.244 . S
Zn99 O101 2.046 . S
Zn99 O103 2.055 . S
Zn99 N105 2.036 1_565 S
Zn99 O123 2.066 . S
Zn99 O127 2.053 . S
C100 O97 1.259 . S
C100 O101 1.254 . S
O101 Zn99 2.046 . S
O101 C100 1.254 . S
C102 O123 1.256 . S
C102 O124 1.244 . S
O103 Zn99 2.055 . S
O103 C125 1.259 . S
O104 Zn96 2.046 . S
O104 C125 1.254 . S
N105 Zn99 2.036 1_545 S
N105 C106 1.298 . S
N105 N108 1.398 . S
C106 N105 1.298 . S
C106 N109 1.367 . S
C106 C119 1.481 1_545 S
C107 N108 1.299 . S
C107 N109 1.379 . S
N108 N105 1.398 . S
N108 C107 1.299 . S
N109 C106 1.367 . S
N109 C107 1.379 . S
C110 N112 1.298 . S
C110 N114 1.367 . S
C110 C118 1.481 . S
C111 N113 1.299 . S
C111 N114 1.379 . S
N112 Zn96 2.036 . S
N112 C110 1.298 . S
N112 N113 1.398 . S
N113 C111 1.299 . S
N113 N112 1.398 . S
N114 C110 1.367 . S
N114 C111 1.379 . S
H115 C118 0.980 . S
H116 C118 0.981 1_556 S
H117 C118 0.981 1_556 S
C118 C110 1.481 . S
C118 H115 0.980 . S
C118 H116 0.981 1_554 S
C118 H117 0.981 1_554 S
C119 C106 1.481 1_565 S
C119 H120 0.980 . S
C119 H121 0.981 . S
C119 H122 0.981 1_565 S
H120 C119 0.980 . S
H121 C119 0.981 . S
H122 C119 0.981 1_545 S
O123 Zn99 2.066 . S
O123 C102 1.256 . S
O124 Zn96 2.053 . S
O124 C102 1.244 . S
C125 O103 1.259 . S
C125 O104 1.254 . S
O126 Zn96 2.066 . S
O126 C98 1.256 . S
O127 C98 1.244 . S
O127 Zn99 2.053 . S
C128 C129 1.387 1_554 S
C128 H132 0.950 1_554 S
C128 C137 1.390 . S
C129 C128 1.387 1_556 S
C129 C131 1.387 . S
H130 C137 0.950 . S
C131 C129 1.387 . S
C131 C133 1.390 1_556 S
C131 H135 0.950 . S
H132 C128 0.950 1_556 S
C133 C131 1.390 1_554 S
C133 C134 1.387 . S
C133 H136 0.950 . S
C134 C133 1.387 . S
C134 C137 1.387 . S
H135 C131 0.950 . S
H136 C133 0.950 . S
C137 C128 1.390 . S
C137 H130 0.950 . S
C137 C134 1.387 . S
C138 C139 1.387 . S
C138 H142 0.950 . S
C138 C147 1.390 . S
C139 C138 1.387 . S
C139 C141 1.387 1_565 S
H140 C147 0.950 . S
C141 C139 1.387 1_545 S
C141 C143 1.390 . S
C141 H145 0.950 . S
H142 C138 0.950 . S
C143 C141 1.390 . S
C143 C144 1.387 1_545 S
C143 H146 0.950 . S
C144 C143 1.387 1_565 S
C144 C147 1.387 . S
H145 C141 0.950 . S
H146 C143 0.950 . S
C147 C138 1.390 . S
C147 H140 0.950 . S
C147 C144 1.387 . S
C148 C149 1.387 . S
C148 H152 0.950 . S
C148 C157 1.390 . S
C149 C148 1.387 . S
C149 C151 1.387 . S
H150 C157 0.950 . S
C151 C149 1.387 . S
C151 C153 1.390 . S
C151 H155 0.950 . S
H152 C148 0.950 . S
C153 C151 1.390 . S
C153 C154 1.387 . S
C153 H156 0.950 . S
C154 C153 1.387 . S
C154 C157 1.387 . S
H155 C151 0.950 . S
H156 C153 0.950 . S
C157 C148 1.390 . S
C157 H150 0.950 . S
C157 C154 1.387 . S
C158 C159 1.387 1_546 S
C158 H162 0.950 . S
C158 C167 1.390 . S
C159 C158 1.387 1_564 S
C159 C161 1.387 1_554 S
H160 C167 0.950 . S
C161 C159 1.387 1_556 S
C161 C163 1.390 . S
C161 H165 0.950 1_556 S
H162 C158 0.950 . S
C163 C161 1.390 . S
C163 C164 1.397 . S
C163 H166 0.950 . S
C164 C163 1.397 . S
C164 C167 1.378 1_565 S
H165 C161 0.950 1_554 S
H166 C163 0.950 . S
C167 C158 1.390 . S
C167 H160 0.950 . S
C167 C164 1.378 1_545 S
C168 C169 1.387 . S
C168 H172 0.950 . S
C168 C177 1.390 . S
C169 C168 1.387 . S
C169 C171 1.387 . S
H170 C177 0.950 . S
C171 C169 1.387 . S
C171 C173 1.390 . S
C171 H175 0.950 . S
H172 C168 0.950 . S
C173 C171 1.390 . S
C173 C174 1.387 . S
C173 H176 0.950 . S
C174 C173 1.387 . S
C174 C177 1.387 . S
H175 C171 0.950 . S
H176 C173 0.950 . S
C177 C168 1.390 . S
C177 H170 0.950 . S
C177 C174 1.387 . S
C178 C179 1.387 . S
C178 H182 0.950 1_455 S
C178 C187 1.390 1_455 S
C179 C178 1.387 . S
C179 C181 1.387 . S
H180 C187 0.950 . S
C181 C179 1.387 . S
C181 C183 1.390 . S
C181 H185 0.950 . S
H182 C178 0.950 1_655 S
C183 C181 1.390 . S
C183 C184 1.387 1_455 S
C183 H186 0.950 . S
C184 C183 1.387 1_655 S
C184 C187 1.387 . S
H185 C181 0.950 . S
H186 C183 0.950 . S
C187 C178 1.390 1_655 S
C187 H180 0.950 . S
C187 C184 1.387 . S
C188 C189 1.387 . S
C188 H192 0.950 . S
C188 C197 1.390 . S
C189 C188 1.387 . S
C189 C191 1.387 . S
H190 C197 0.950 . S
C191 C189 1.387 . S
C191 C193 1.390 . S
C191 H195 0.950 . S
H192 C188 0.950 . S
C193 C191 1.390 . S
C193 C194 1.384 1_556 S
C193 H196 0.950 . S
C194 C193 1.384 1_554 S
C194 C197 1.383 1_554 S
H195 C191 0.950 . S
H196 C193 0.950 . S
C197 C188 1.390 . S
C197 H190 0.950 . S
C197 C194 1.383 1_556 S
C198 C199 1.387 . S
C198 H202 0.950 . S
C198 C207 1.390 . S
C199 C198 1.387 . S
C199 C201 1.387 . S
H200 C207 0.950 . S
C201 C199 1.387 . S
C201 C203 1.390 . S
C201 H205 0.950 . S
H202 C198 0.950 . S
C203 C201 1.390 . S
C203 C204 1.387 . S
C203 H206 0.950 . S
C204 C203 1.387 . S
C204 C207 1.387 . S
H205 C201 0.950 . S
H206 C203 0.950 . S
C207 C198 1.390 . S
C207 H200 0.950 . S
C207 C204 1.387 . S
C208 C209 1.387 . S
C208 H212 0.950 . S
C208 C217 1.390 . S
C209 C208 1.387 . S
C209 C211 1.387 . S
H210 C217 0.950 . S
C211 C209 1.387 . S
C211 C213 1.390 . S
C211 H215 0.950 . S
H212 C208 0.950 . S
C213 C211 1.390 . S
C213 C214 1.387 . S
C213 H216 0.950 . S
C214 C213 1.387 . S
C214 C217 1.387 . S
H215 C211 0.950 . S
H216 C213 0.950 . S
C217 C208 1.390 . S
C217 H210 0.950 . S
C217 C214 1.387 . S
C218 C219 1.387 . S
C218 H222 0.950 . S
C218 C227 1.390 1_455 S
C219 C218 1.387 . S
C219 C221 1.387 . S
H220 C227 0.950 . S
C221 C219 1.387 . S
C221 C223 1.390 1_455 S
C221 H225 0.950 . S
H222 C218 0.950 . S
C223 C221 1.390 1_655 S
C223 C224 1.387 . S
C223 H226 0.950 . S
C224 C223 1.387 . S
C224 C227 1.387 . S
H225 C221 0.950 . S
H226 C223 0.950 . S
C227 C218 1.390 1_655 S
C227 H220 0.950 . S
C227 C224 1.387 . S
C228 C229 1.387 1_554 S
C228 H232 0.950 . S
C228 C237 1.390 . S
C229 C228 1.387 1_556 S
C229 C231 1.387 . S
H230 C237 0.950 . S
C231 C229 1.387 . S
C231 C233 1.390 1_556 S
C231 H235 0.950 . S
H232 C228 0.950 . S
C233 C231 1.390 1_554 S
C233 C234 1.387 . S
C233 H236 0.950 . S
C234 C233 1.387 . S
C234 C237 1.387 . S
H235 C231 0.950 . S
H236 C233 0.950 . S
C237 C228 1.390 . S
C237 H230 0.950 . S
C237 C234 1.387 . S
C238 C239 1.387 . S
C238 H242 0.950 . S
C238 C247 1.390 . S
C239 C238 1.387 . S
C239 C241 1.387 . S
H240 C247 0.950 . S
C241 C239 1.387 . S
C241 C243 1.390 . S
C241 H245 0.950 . S
H242 C238 0.950 . S
C243 C241 1.390 . S
C243 C244 1.387 . S
C243 H246 0.950 . S
C244 C243 1.387 . S
C244 C247 1.387 . S
H245 C241 0.950 . S
H246 C243 0.950 . S
C247 C238 1.390 . S
C247 H240 0.950 . S
C247 C244 1.387 . S
C129 C93 1.315 . S
C134 N18 1.322 . S
C139 C102 1.851 . S
C144 C61 1.713 1_565 S
C149 N77 1.116 . S
C154 C4 1.084 . S
C159 C98 1.613 . S
C164 N45 1.544 1_565 S
C169 N50 1.279 . S
C174 C29 1.261 . S
C179 C66 2.035 . S
C184 C38 2.092 1_565 S
C189 C68 1.389 . S
C194 C100 1.542 . S
C199 C6 1.572 . S
C204 N109 1.475 . S
C209 C36 1.420 . S
C214 N13 1.398 . S
C219 C70 2.244 . S
C224 C34 2.225 . S
C229 N82 1.114 . S
C234 N114 1.163 . S
C239 C125 1.574 . S
C244 C2 1.606 . S
