# Generated by pormake.
# Topology pcu, (6)-cn, num edge types: 1
# Building blocks:
#     Node 0, Type 0, BuildingBlock: CUKXOW_clean_sbu_0, # of connection points: 6
#     Edge 1, Type (0, 0), BuildingBlock: UVAHIK_clean_linker_0, # of connection points: 2
#     Edge 2, Type (0, 0), BuildingBlock: UVAHIK_clean_linker_0, # of connection points: 2
#     Edge 3, Type (0, 0), BuildingBlock: UVAHIK_clean_linker_0, # of connection points: 2
# Relax obj value: 0.000
# Max RMSD: 0.000
# Mean RMSD: 0.000
data_MOF--net-pcu--node1-CUKXOW_clean_sbu_0--edge1-UVAHIK_clean_linker_0
_symmetry_space_group_name_H-M    P1
_symmetry_Int_Tables_number       1
_symmetry_cell_setting            triclinic
loop_
_symmetry_equiv_pos_as_xyz
'x, y, z'
_cell_length_a     18.264512
_cell_length_b     22.693685
_cell_length_c     19.923907
_cell_angle_alpha  84.383069
_cell_angle_beta   104.25802
_cell_angle_gamma 125.12139
loop_
_atom_site_label
_atom_site_type_symbol
_atom_site_fract_x
_atom_site_fract_y
_atom_site_fract_z
_atom_type_partial_charge
Tb0 Tb 0.03873 0.07174 0.98377 0.0
C1 C 1.00736 0.99361 0.84864 0.0
Tb2 Tb 0.99402 0.91868 -0.00586 0.0
O3 O 0.17135 0.11276 0.96128 0.0
O4 O 0.1115 0.0248 0.02328 0.0
O5 O 1.00585 0.04474 0.87409 0.0
C6 C 0.99825 0.80313 -0.00681 0.0
O7 O 1.01074 0.94365 0.88744 0.0
C8 C 0.85568 0.92814 0.98417 0.0
C9 C 0.02551 -0.00315 0.12929 0.0
O10 O 0.06886 0.86823 0.01364 0.0
O11 O 0.92482 0.80285 0.97335 0.0
O12 O 0.86141 0.87791 0.0167 0.0
O13 O 0.92143 0.96562 0.95466 0.0
O14 O 0.02698 0.9457 0.10383 0.0
O15 O 0.0221 0.0468 0.09049 0.0
C16 C 0.0343 0.18719 0.98475 0.0
O17 O 0.96375 0.12208 0.96429 0.0
O18 O 0.10779 0.18754 0.00458 0.0
C19 C 0.17722 0.06257 -0.00625 0.0
C20 C 0.02958 0.94596 0.24663 0.0
C21 C 0.02665 -0.00207 0.20374 0.0
C22 C 0.028 0.94578 0.3164 0.0
C23 C 0.96062 0.00875 0.43808 0.0
H24 H 0.11732 0.9723 0.57858 0.0
C25 C 1.00335 0.04452 0.73131 0.0
C26 C 1.00627 0.99254 0.77419 0.0
C27 C 1.00496 0.04471 0.66154 0.0
C28 C 0.07236 0.98174 0.53987 0.0
H29 H 0.02065 0.091 0.20101 0.0
H30 H 0.01887 0.091 0.32279 0.0
H31 H 0.12332 0.97438 0.4574 0.0
H32 H 1.01228 0.89948 0.77694 0.0
H33 H 1.01411 0.89949 0.65516 0.0
H34 H 0.90965 0.01611 0.52054 0.0
C35 C 0.02117 0.04981 0.30218 0.0
C36 C 0.07585 0.98297 0.47045 0.0
C37 C 0.02282 0.05005 0.23242 0.0
C38 C 1.01012 0.94043 0.74553 0.0
C39 C 1.01179 0.94068 0.67577 0.0
C40 C 0.95713 0.00752 0.5075 0.0
C41 C 0.02337 -0.0025 0.3449 0.0
C42 C 0.02002 -0.0035 0.41876 0.0
C43 C 1.00961 0.99299 0.63305 0.0
C44 C 1.01295 0.99399 0.55919 0.0
H45 H 0.03227 0.90486 0.22629 0.0
H46 H 0.0287 0.90424 0.34773 0.0
H47 H 0.91565 0.01819 0.39937 0.0
H48 H 1.00065 0.08561 0.75164 0.0
H49 H 1.00426 0.08625 0.63021 0.0
C50 C 0.26302 0.00742 0.0433 0.0
C51 C 0.24828 0.05027 -0.00603 0.0
C52 C 0.32863 0.99417 0.04218 0.0
C53 C 0.53669 0.06459 0.97716 0.0
H54 H 0.47862 0.8722 0.00824 0.0
C55 C 0.76998 0.98333 0.93433 0.0
C56 C 0.78476 0.94061 0.98384 0.0
C57 C 0.7044 -0.00335 0.93533 0.0
C58 C 0.49634 0.92641 0.0002 0.0
H59 H 0.29136 0.11415 0.90563 0.0
H60 H 0.40603 0.09111 0.9034 0.0
H61 H 0.36526 0.89619 0.01099 0.0
H62 H 0.74177 0.87705 0.07236 0.0
H63 H 0.62713 0.9002 0.07435 0.0
H64 H 0.66777 0.09479 0.96635 0.0
C65 C 0.36734 0.06789 0.94324 0.0
C66 C 0.43134 0.94018 0.00181 0.0
C67 C 0.30154 0.08094 0.94433 0.0
C68 C 0.73157 0.91016 0.03353 0.0
C69 C 0.66579 0.92327 0.03449 0.0
C70 C 0.60169 0.05081 0.97554 0.0
C71 C 0.38142 0.02405 -0.00804 0.0
C72 C 0.45071 0.00945 -0.00966 0.0
C73 C 0.65166 0.96696 0.98558 0.0
C74 C 0.58233 0.98155 0.98705 0.0
H75 H 0.22421 0.98447 0.08308 0.0
H76 H 0.3388 0.96123 0.08122 0.0
H77 H 0.55442 0.11881 0.96914 0.0
H78 H 0.80872 0.00608 0.8945 0.0
H79 H 0.6942 0.02949 0.89617 0.0
C80 C 0.08639 0.74817 0.01149 0.0
C81 C 1.00158 0.73994 -0.00773 0.0
C82 C 0.08993 0.68838 0.01061 0.0
C83 C 0.95602 0.50196 0.93553 0.0
H84 H 0.1222 0.4834 0.08509 0.0
C85 C 0.94602 0.24203 0.96649 0.0
C86 C 0.03087 0.25034 0.98569 0.0
C87 C 0.9424 0.30178 0.9674 0.0
C88 C 0.07617 0.48818 0.04254 0.0
H89 H 0.85407 0.66335 0.95723 0.0
H90 H 0.85988 0.55849 0.95649 0.0
H91 H 0.11586 0.58766 0.08642 0.0
H92 H 0.17836 0.327 0.02073 0.0
H93 H 0.1724 0.43177 0.02153 0.0
H94 H 0.91633 0.40247 0.89164 0.0
C95 C 0.92381 0.61117 0.97132 0.0
C96 C 0.07253 0.54793 0.0433 0.0
C97 C 0.92034 0.67105 0.9721 0.0
C98 C 0.11206 0.31925 0.00588 0.0
C99 C 0.10851 0.37907 0.00669 0.0
C100 C 0.95966 0.4422 0.93477 0.0
C101 C 1.00866 0.61915 -0.00942 0.0
C102 C 1.01242 0.55554 -0.0102 0.0
C103 C 0.02362 0.37103 0.98745 0.0
C104 C 0.01978 0.4346 0.98826 0.0
H105 H 0.15012 0.8009 0.0269 0.0
H106 H 0.15647 0.69655 0.02478 0.0
H107 H 0.91 0.50673 0.89297 0.0
H108 H 0.88232 0.18928 0.95107 0.0
H109 H 0.87583 0.29356 0.95325 0.0
loop_
_geom_bond_atom_site_label_1
_geom_bond_atom_site_label_2
_geom_bond_distance
_geom_bond_site_symmetry_2
_ccdc_geom_bond_type
Tb0 O3 2.453 . S
Tb0 O4 2.596 1_545 S
Tb0 O5 2.374 1_554 S
Tb0 O13 2.343 1_454 S
Tb0 O15 2.353 . S
Tb0 O17 2.427 . S
Tb0 O18 2.513 1_554 S
C1 O5 1.251 1_655 S
C1 O7 1.263 1_545 S
Tb2 O4 2.343 1_656 S
Tb2 O7 2.353 . S
Tb2 O10 2.427 . S
Tb2 O11 2.513 1_556 S
Tb2 O12 2.453 . S
Tb2 O13 2.596 1_565 S
Tb2 O14 2.374 1_556 S
O3 Tb0 2.453 . S
O3 C19 1.245 . S
O4 Tb0 2.596 1_565 S
O4 Tb2 2.343 1_454 S
O4 C19 1.259 1_565 S
O5 Tb0 2.374 1_556 S
O5 C1 1.251 1_455 S
C6 O10 1.273 1_554 S
C6 O11 1.247 . S
O7 C1 1.263 1_565 S
O7 Tb2 2.353 . S
C8 O12 1.245 . S
C8 O13 1.259 1_565 S
C9 O14 1.250 1_455 S
C9 O15 1.263 1_565 S
O10 Tb2 2.427 . S
O10 C6 1.273 1_556 S
O11 Tb2 2.513 1_554 S
O11 C6 1.247 . S
O12 Tb2 2.453 . S
O12 C8 1.245 . S
O13 Tb0 2.343 1_656 S
O13 Tb2 2.596 1_545 S
O13 C8 1.259 1_545 S
O14 Tb2 2.374 1_554 S
O14 C9 1.250 1_655 S
O15 Tb0 2.353 . S
O15 C9 1.263 1_545 S
C16 O17 1.273 . S
C16 O18 1.247 1_554 S
O17 Tb0 2.427 . S
O17 C16 1.273 . S
O18 Tb0 2.513 1_556 S
O18 C16 1.247 1_556 S
C19 O3 1.245 . S
C19 O4 1.259 1_545 S
C20 C21 1.349 1_565 S
C20 C22 1.327 . S
C20 H45 0.950 . S
C21 C20 1.349 1_545 S
C21 C37 1.349 1_455 S
C22 C20 1.327 . S
C22 C41 1.429 1_565 S
C22 H46 0.950 . S
C23 C40 1.574 . S
C23 C42 1.368 1_655 S
C23 H47 0.949 . S
H24 C28 0.949 . S
C25 C26 1.349 1_655 S
C25 C27 1.327 . S
C25 H48 0.950 . S
C26 C25 1.349 1_455 S
C26 C38 1.349 1_545 S
C27 C25 1.327 . S
C27 C43 1.429 1_655 S
C27 H49 0.950 . S
C28 H24 0.949 . S
C28 C36 1.574 . S
C28 C44 1.368 1_565 S
H29 C37 0.950 . S
H30 C35 0.950 . S
H31 C36 0.949 . S
H32 C38 0.950 . S
H33 C39 0.950 . S
H34 C40 0.949 . S
C35 H30 0.950 . S
C35 C37 1.327 . S
C35 C41 1.429 1_655 S
C36 C28 1.574 . S
C36 H31 0.949 . S
C36 C42 1.368 1_565 S
C37 C21 1.349 1_655 S
C37 H29 0.950 . S
C37 C35 1.327 . S
C38 C26 1.349 1_565 S
C38 H32 0.950 . S
C38 C39 1.327 . S
C39 H33 0.950 . S
C39 C38 1.327 . S
C39 C43 1.429 1_565 S
C40 C23 1.574 . S
C40 H34 0.949 . S
C40 C44 1.368 1_655 S
C41 C22 1.429 1_545 S
C41 C35 1.429 1_455 S
C41 C42 1.523 . S
C42 C23 1.368 1_455 S
C42 C36 1.368 1_545 S
C42 C41 1.523 . S
C43 C27 1.429 1_455 S
C43 C39 1.429 1_545 S
C43 C44 1.523 . S
C44 C28 1.368 1_545 S
C44 C40 1.368 1_455 S
C44 C43 1.523 . S
H45 C20 0.950 . S
H46 C22 0.950 . S
H47 C23 0.949 . S
H48 C25 0.950 . S
H49 C27 0.950 . S
C50 C51 1.349 1_565 S
C50 C52 1.327 . S
C50 H75 0.950 . S
C51 C50 1.349 1_545 S
C51 C67 1.349 1_554 S
C52 C50 1.327 . S
C52 C71 1.429 1_565 S
C52 H76 0.950 . S
C53 C70 1.574 . S
C53 C72 1.368 1_556 S
C53 H77 0.949 . S
H54 C58 0.949 . S
C55 C56 1.349 1_556 S
C55 C57 1.327 . S
C55 H78 0.950 . S
C56 C55 1.349 1_554 S
C56 C68 1.349 1_545 S
C57 C55 1.327 . S
C57 C73 1.429 1_556 S
C57 H79 0.950 . S
C58 H54 0.949 . S
C58 C66 1.574 . S
C58 C74 1.368 1_565 S
H59 C67 0.950 . S
H60 C65 0.950 . S
H61 C66 0.949 . S
H62 C68 0.950 . S
H63 C69 0.950 . S
H64 C70 0.949 . S
C65 H60 0.950 . S
C65 C67 1.327 . S
C65 C71 1.429 1_556 S
C66 C58 1.574 . S
C66 H61 0.949 . S
C66 C72 1.368 1_565 S
C67 C51 1.349 1_556 S
C67 H59 0.950 . S
C67 C65 1.327 . S
C68 C56 1.349 1_565 S
C68 H62 0.950 . S
C68 C69 1.327 . S
C69 H63 0.950 . S
C69 C68 1.327 . S
C69 C73 1.429 1_565 S
C70 C53 1.574 . S
C70 H64 0.949 . S
C70 C74 1.368 1_556 S
C71 C52 1.429 1_545 S
C71 C65 1.429 1_554 S
C71 C72 1.523 . S
C72 C53 1.368 1_554 S
C72 C66 1.368 1_545 S
C72 C71 1.523 . S
C73 C57 1.429 1_554 S
C73 C69 1.429 1_545 S
C73 C74 1.523 . S
C74 C58 1.368 1_545 S
C74 C70 1.368 1_554 S
C74 C73 1.523 . S
H75 C50 0.950 . S
H76 C52 0.950 . S
H77 C53 0.949 . S
H78 C55 0.950 . S
H79 C57 0.950 . S
C80 C81 1.349 1_556 S
C80 C82 1.327 . S
C80 H105 0.950 . S
C81 C80 1.349 1_554 S
C81 C97 1.349 1_455 S
C82 C80 1.327 . S
C82 C101 1.429 1_556 S
C82 H106 0.950 . S
C83 C100 1.574 . S
C83 C102 1.368 1_655 S
C83 H107 0.949 . S
H84 C88 0.949 . S
C85 C86 1.349 1_655 S
C85 C87 1.327 . S
C85 H108 0.950 . S
C86 C85 1.349 1_455 S
C86 C98 1.349 1_554 S
C87 C85 1.327 . S
C87 C103 1.429 1_655 S
C87 H109 0.950 . S
C88 H84 0.949 . S
C88 C96 1.574 . S
C88 C104 1.368 1_556 S
H89 C97 0.950 . S
H90 C95 0.950 . S
H91 C96 0.949 . S
H92 C98 0.950 . S
H93 C99 0.950 . S
H94 C100 0.949 . S
C95 H90 0.950 . S
C95 C97 1.327 . S
C95 C101 1.429 1_655 S
C96 C88 1.574 . S
C96 H91 0.949 . S
C96 C102 1.368 1_556 S
C97 C81 1.349 1_655 S
C97 H89 0.950 . S
C97 C95 1.327 . S
C98 C86 1.349 1_556 S
C98 H92 0.950 . S
C98 C99 1.327 . S
C99 H93 0.950 . S
C99 C98 1.327 . S
C99 C103 1.429 1_556 S
C100 C83 1.574 . S
C100 H94 0.949 . S
C100 C104 1.368 1_655 S
C101 C82 1.429 1_554 S
C101 C95 1.429 1_455 S
C101 C102 1.523 . S
C102 C83 1.368 1_455 S
C102 C96 1.368 1_554 S
C102 C101 1.523 . S
C103 C87 1.429 1_455 S
C103 C99 1.429 1_554 S
C103 C104 1.523 . S
C104 C88 1.368 1_554 S
C104 C100 1.368 1_455 S
C104 C103 1.523 . S
H105 C80 0.950 . S
H106 C82 0.950 . S
H107 C83 0.949 . S
H108 C85 0.950 . S
H109 C87 0.950 . S
C21 C9 1.488 1_545 S
C26 C1 1.488 1_455 S
C51 C19 1.445 . S
C56 C8 1.445 1_544 S
C81 C6 1.477 1_455 S
C86 C16 1.477 . S
