# Generated by pormake.
# Topology sne, (6)-cn, num edge types: 1
# Building blocks:
#     Node 0, Type 0, BuildingBlock: IZENUY_clean_sbu_0, # of connection points: 6
#     Node 1, Type 0, BuildingBlock: IZENUY_clean_sbu_0, # of connection points: 6
#     Node 2, Type 0, BuildingBlock: IZENUY_clean_sbu_0, # of connection points: 6
#     Node 3, Type 0, BuildingBlock: IZENUY_clean_sbu_0, # of connection points: 6
#     Node 4, Type 0, BuildingBlock: IZENUY_clean_sbu_0, # of connection points: 6
#     Node 5, Type 0, BuildingBlock: IZENUY_clean_sbu_0, # of connection points: 6
#     Node 6, Type 0, BuildingBlock: IZENUY_clean_sbu_0, # of connection points: 6
#     Node 7, Type 0, BuildingBlock: IZENUY_clean_sbu_0, # of connection points: 6
#     Edge 8, Type (0, 0), None
#     Edge 9, Type (0, 0), None
#     Edge 10, Type (0, 0), None
#     Edge 11, Type (0, 0), None
#     Edge 12, Type (0, 0), None
#     Edge 13, Type (0, 0), None
#     Edge 14, Type (0, 0), None
#     Edge 15, Type (0, 0), None
#     Edge 16, Type (0, 0), None
#     Edge 17, Type (0, 0), None
#     Edge 18, Type (0, 0), None
#     Edge 19, Type (0, 0), None
#     Edge 20, Type (0, 0), None
#     Edge 21, Type (0, 0), None
#     Edge 22, Type (0, 0), None
#     Edge 23, Type (0, 0), None
#     Edge 24, Type (0, 0), None
#     Edge 25, Type (0, 0), None
#     Edge 26, Type (0, 0), None
#     Edge 27, Type (0, 0), None
#     Edge 28, Type (0, 0), None
#     Edge 29, Type (0, 0), None
#     Edge 30, Type (0, 0), None
#     Edge 31, Type (0, 0), None
# Relax obj value: 0.265
# Max RMSD: 0.253
# Mean RMSD: 0.252
data_MOF--net-sne--node1-IZENUY_clean_sbu_0--edge1-none
_symmetry_space_group_name_H-M    P1
_symmetry_Int_Tables_number       1
_symmetry_cell_setting            triclinic
loop_
_symmetry_equiv_pos_as_xyz
'x, y, z'
_cell_length_a     16.088916
_cell_length_b     16.088593
_cell_length_c     12.423761
_cell_angle_alpha  90.001148
_cell_angle_beta   90.00023
_cell_angle_gamma 89.9999
loop_
_atom_site_label
_atom_site_type_symbol
_atom_site_fract_x
_atom_site_fract_y
_atom_site_fract_z
_atom_type_partial_charge
Fe0 Fe 0.28493 0.28975 0.37776 0.0
Fe1 Fe 0.20021 0.12395 0.32073 0.0
O2 O 0.28493 0.17962 0.37778 0.0
Fe3 Fe 0.36965 0.12396 0.43484 0.0
O4 O 0.39683 0.20549 0.53993 0.0
O5 O 0.29838 0.29713 0.51876 0.0
O6 O 0.17023 0.29543 0.407 0.0
C7 C 0.12011 0.23805 0.4381 0.0
C8 C 0.44976 0.23806 0.31747 0.0
O9 O 0.13158 0.16381 0.41692 0.0
C10 C 0.31743 1.02448 0.25196 0.0
O11 O 0.27148 0.29708 0.23675 0.0
O12 O 0.173 0.20548 0.21565 0.0
O13 O 0.4383 0.16382 0.33866 0.0
O14 O 0.39963 0.29544 0.34852 0.0
C15 C 0.25245 1.02447 0.5036 0.0
O16 O 0.2637 0.07547 0.2218 0.0
O17 O 0.35784 0.03463 0.33975 0.0
C18 C 0.21084 0.27141 0.18446 0.0
O19 O 0.21204 0.03462 0.41582 0.0
O20 O 0.30616 0.07547 0.53377 0.0
C21 C 0.35896 0.27141 0.57111 0.0
Fe22 Fe 0.28883 0.78586 0.62782 0.0
Fe23 Fe 0.12303 0.87058 0.68484 0.0
O24 O 0.1787 0.78586 0.62779 0.0
Fe25 Fe 0.12304 0.70114 0.57072 0.0
O26 O 0.1629 0.63249 0.6669 0.0
O27 O 0.29452 0.67116 0.65705 0.0
O28 O 0.29616 0.79931 0.76883 0.0
C29 C 0.27049 0.85995 0.82111 0.0
C30 C 0.27049 0.71183 0.43446 0.0
O31 O 0.20456 0.89779 0.78992 0.0
C32 C 1.02356 0.81835 0.50197 0.0
O33 O 0.29452 0.90056 0.59858 0.0
O34 O 0.1629 0.93922 0.58865 0.0
O35 O 0.20457 0.67396 0.46564 0.0
O36 O 0.29622 0.77241 0.48682 0.0
C37 C 1.02356 0.75337 0.75361 0.0
O38 O 0.03371 0.85876 0.58976 0.0
O39 O 0.07455 0.76464 0.4718 0.0
C40 C 0.23714 0.95068 0.56748 0.0
O41 O 0.07455 0.80709 0.78377 0.0
O42 O 0.03371 0.71295 0.66582 0.0
C43 C 0.23714 0.62103 0.6881 0.0
Fe44 Fe 0.78493 0.78196 0.37782 0.0
Fe45 Fe 0.70021 0.94776 0.43484 0.0
O46 O 0.78493 0.89208 0.37779 0.0
Fe47 Fe 0.86965 0.94775 0.32073 0.0
O48 O 0.89683 0.86621 0.21565 0.0
O49 O 0.79838 0.77457 0.23682 0.0
O50 O 0.67023 0.77628 0.34857 0.0
C51 C 0.62011 0.83366 0.31748 0.0
C52 C 0.94976 0.83365 0.4381 0.0
O53 O 0.63158 0.90789 0.33865 0.0
C54 C 0.81743 0.04723 0.50361 0.0
O55 O 0.77148 0.77463 0.51883 0.0
O56 O 0.673 0.86623 0.53992 0.0
O57 O 0.93829 0.90788 0.41691 0.0
O58 O 0.89962 0.77627 0.40706 0.0
C59 C 0.75244 0.04723 0.25197 0.0
O60 O 0.76371 0.99624 0.53377 0.0
O61 O 0.85784 0.03708 0.41582 0.0
C62 C 0.71083 0.8003 0.57111 0.0
O63 O 0.71204 0.03709 0.33976 0.0
O64 O 0.80615 0.99623 0.22181 0.0
C65 C 0.85896 0.80029 0.18446 0.0
Fe66 Fe 0.94684 0.37058 0.57073 0.0
Fe67 Fe 0.94683 0.20114 0.68485 0.0
O68 O 0.89117 0.28586 0.62778 0.0
Fe69 Fe 0.78104 0.28586 0.62776 0.0
O70 O 0.77371 0.29931 0.48675 0.0
O71 O 0.86532 0.39779 0.46566 0.0
O72 O 0.99533 0.30708 0.4718 0.0
C73 C 0.04631 0.25336 0.50196 0.0
C74 C 0.83274 0.45068 0.6881 0.0
O75 O 0.03616 0.21295 0.58975 0.0
C76 C 0.79938 0.21183 0.82111 0.0
O77 O 0.03617 0.35875 0.66582 0.0
O78 O 0.99532 0.26463 0.78377 0.0
O79 O 0.77536 0.40056 0.657 0.0
O80 O 0.90698 0.43921 0.66693 0.0
C81 C 0.83273 0.12103 0.56748 0.0
O82 O 0.8653 0.17396 0.78993 0.0
O83 O 0.77366 0.27241 0.76876 0.0
C84 C 0.04632 0.31834 0.75361 0.0
O85 O 0.90697 0.13249 0.58867 0.0
O86 O 0.77535 0.17116 0.59852 0.0
C87 C 0.79938 0.35995 0.43446 0.0
Fe88 Fe 0.36965 0.44775 0.82072 0.0
Fe89 Fe 0.28493 0.28194 0.87782 0.0
O90 O 0.28493 0.39208 0.87779 0.0
Fe91 Fe 0.20021 0.44776 0.93485 0.0
O92 O 0.21203 0.53708 0.83976 0.0
O93 O 0.30615 0.49624 0.7218 0.0
O94 O 0.39683 0.36623 0.71562 0.0
C95 C 0.35896 0.3003 0.68448 0.0
C96 C 0.31743 0.54723 0.00361 0.0
O97 O 0.29839 0.27455 0.73682 0.0
C98 C 0.21084 0.3003 0.07109 0.0
O99 O 0.4383 0.40788 0.91689 0.0
O100 O 0.39963 0.27626 0.90706 0.0
O101 O 0.26371 0.49624 0.03377 0.0
O102 O 0.35784 0.53707 0.91582 0.0
C103 C 0.12011 0.33365 0.81749 0.0
O104 O 0.27148 0.27461 0.01882 0.0
O105 O 0.173 0.36624 0.03994 0.0
C106 C 0.44976 0.33365 0.9381 0.0
O107 O 0.17023 0.27626 0.84856 0.0
O108 O 0.13157 0.40789 0.83867 0.0
C109 C 0.25244 0.54723 0.75197 0.0
Fe110 Fe 0.28103 0.78586 0.12776 0.0
Fe111 Fe 0.44684 0.87058 0.07073 0.0
O112 O 0.39116 0.78586 0.12778 0.0
Fe113 Fe 0.44683 0.70114 0.18485 0.0
O114 O 0.40696 0.63249 0.08868 0.0
O115 O 0.27535 0.67116 0.09851 0.0
O116 O 0.27369 0.79931 0.98675 0.0
C117 C 0.29938 0.85995 0.93449 0.0
C118 C 0.29938 0.71183 0.32109 0.0
O119 O 0.36533 0.89779 0.96563 0.0
C120 C 0.54631 0.81835 0.25361 0.0
O121 O 0.27535 0.90056 0.157 0.0
O122 O 0.40697 0.93922 0.16691 0.0
O123 O 0.36531 0.67396 0.28995 0.0
O124 O 0.27364 0.77241 0.26875 0.0
C125 C 0.54631 0.75336 1.00197 0.0
O126 O 0.53616 0.85876 0.16582 0.0
O127 O 0.49532 0.76464 0.28377 0.0
C128 C 0.33273 0.95068 0.18808 0.0
O129 O 0.49533 0.80708 0.9718 0.0
O130 O 0.53616 0.71295 0.08975 0.0
C131 C 0.33273 0.62103 0.06748 0.0
Fe132 Fe 0.86966 0.62396 0.93485 0.0
Fe133 Fe 0.78493 0.78976 0.87776 0.0
O134 O 0.78493 0.67963 0.87778 0.0
Fe135 Fe 0.70021 0.62395 0.82073 0.0
O136 O 0.71204 0.53462 0.91582 0.0
O137 O 0.80616 0.57547 0.03377 0.0
O138 O 0.89683 0.70548 0.03995 0.0
C139 C 0.85896 0.77141 0.07109 0.0
C140 C 0.81744 0.52448 0.75197 0.0
O141 O 0.79838 0.79716 0.01876 0.0
C142 C 0.71084 0.77141 0.68449 0.0
O143 O 0.9383 0.66383 0.83868 0.0
O144 O 0.89962 0.79545 0.84852 0.0
O145 O 0.76371 0.57546 0.72181 0.0
O146 O 0.85784 0.53464 0.83975 0.0
C147 C 0.62011 0.73806 0.93809 0.0
O148 O 0.77147 0.7971 0.73676 0.0
O149 O 0.673 0.70546 0.71564 0.0
C150 C 0.94976 0.73807 0.81748 0.0
O151 O 0.67023 0.79544 0.90701 0.0
O152 O 0.63158 0.66382 0.91691 0.0
C153 C 0.75245 0.52447 0.00361 0.0
Fe154 Fe 0.78884 0.28586 0.12782 0.0
Fe155 Fe 0.62303 0.37058 0.18485 0.0
O156 O 0.67871 0.28586 0.12779 0.0
Fe157 Fe 0.62304 0.20114 0.07071 0.0
O158 O 0.66291 0.13249 0.16688 0.0
O159 O 0.79453 0.17116 0.15706 0.0
O160 O 0.79618 0.29931 0.26882 0.0
C161 C 0.77049 0.35995 0.32109 0.0
C162 C 0.77049 0.21183 0.93448 0.0
O163 O 0.70455 0.39779 0.28994 0.0
C164 C 0.52356 0.31835 1.00197 0.0
O165 O 0.79452 0.40056 0.09857 0.0
O166 O 0.6629 0.43922 0.08867 0.0
O167 O 0.70456 0.17396 0.96562 0.0
O168 O 0.79624 0.27241 0.98682 0.0
C169 C 0.52356 0.25336 0.2536 0.0
O170 O 0.53371 0.35876 0.08976 0.0
O171 O 0.57455 0.26464 0.9718 0.0
C172 C 0.73714 0.45068 0.06749 0.0
O173 O 0.57454 0.30708 0.28377 0.0
O174 O 0.53372 0.21295 0.16581 0.0
C175 C 0.73715 0.12103 0.18809 0.0
loop_
_geom_bond_atom_site_label_1
_geom_bond_atom_site_label_2
_geom_bond_distance
_geom_bond_site_symmetry_2
_ccdc_geom_bond_type
Fe0 O2 1.918 . S
Fe0 O5 1.997 . S
Fe0 O6 2.002 . S
Fe0 O11 1.976 . S
Fe0 O14 1.996 . S
Fe1 O2 1.918 . S
Fe1 O9 1.997 . S
Fe1 O12 1.996 . S
Fe1 O16 1.976 . S
Fe1 O19 2.002 . S
O2 Fe0 1.918 . S
O2 Fe1 1.918 . S
O2 Fe3 1.918 . S
Fe3 O2 1.918 . S
Fe3 O4 2.002 . S
Fe3 O13 1.976 . S
Fe3 O17 1.996 . S
Fe3 O20 1.997 . S
O4 Fe3 2.002 . S
O4 C21 1.295 . S
O5 Fe0 1.997 . S
O5 C21 1.235 . S
O6 Fe0 2.002 . S
O6 C7 1.295 . S
C7 O6 1.295 . S
C7 O9 1.235 . S
C8 O13 1.287 . S
C8 O14 1.255 . S
O9 Fe1 1.997 . S
O9 C7 1.235 . S
C10 O16 1.287 1_565 S
C10 O17 1.255 1_565 S
O11 Fe0 1.976 . S
O11 C18 1.287 . S
O12 Fe1 1.996 . S
O12 C18 1.255 . S
O13 Fe3 1.976 . S
O13 C8 1.287 . S
O14 Fe0 1.996 . S
O14 C8 1.255 . S
C15 O19 1.295 1_565 S
C15 O20 1.235 1_565 S
O16 Fe1 1.976 . S
O16 C10 1.287 1_545 S
O17 Fe3 1.996 . S
O17 C10 1.255 1_545 S
C18 O11 1.287 . S
C18 O12 1.255 . S
O19 Fe1 2.002 . S
O19 C15 1.295 1_545 S
O20 Fe3 1.997 . S
O20 C15 1.235 1_545 S
C21 O4 1.295 . S
C21 O5 1.235 . S
Fe22 O24 1.918 . S
Fe22 O27 1.997 . S
Fe22 O28 2.002 . S
Fe22 O33 1.976 . S
Fe22 O36 1.996 . S
Fe23 O24 1.918 . S
Fe23 O31 1.997 . S
Fe23 O34 1.996 . S
Fe23 O38 1.976 . S
Fe23 O41 2.002 . S
O24 Fe22 1.918 . S
O24 Fe23 1.918 . S
O24 Fe25 1.918 . S
Fe25 O24 1.918 . S
Fe25 O26 2.002 . S
Fe25 O35 1.976 . S
Fe25 O39 1.998 . S
Fe25 O42 1.997 . S
O26 Fe25 2.002 . S
O26 C43 1.295 . S
O27 Fe22 1.997 . S
O27 C43 1.235 . S
O28 Fe22 2.002 . S
O28 C29 1.295 . S
C29 O28 1.295 . S
C29 O31 1.235 . S
C30 O35 1.287 . S
C30 O36 1.255 . S
O31 Fe23 1.997 . S
O31 C29 1.235 . S
C32 O38 1.287 1_655 S
C32 O39 1.253 1_655 S
O33 Fe22 1.976 . S
O33 C40 1.287 . S
O34 Fe23 1.996 . S
O34 C40 1.255 . S
O35 Fe25 1.976 . S
O35 C30 1.287 . S
O36 Fe22 1.996 . S
O36 C30 1.255 . S
C37 O41 1.295 1_655 S
C37 O42 1.235 1_655 S
O38 Fe23 1.976 . S
O38 C32 1.287 1_455 S
O39 Fe25 1.998 . S
O39 C32 1.253 1_455 S
C40 O33 1.287 . S
C40 O34 1.255 . S
O41 Fe23 2.002 . S
O41 C37 1.295 1_455 S
O42 Fe25 1.997 . S
O42 C37 1.235 1_455 S
C43 O26 1.295 . S
C43 O27 1.235 . S
Fe44 O46 1.918 . S
Fe44 O49 1.997 . S
Fe44 O50 2.002 . S
Fe44 O55 1.976 . S
Fe44 O58 1.996 . S
Fe45 O46 1.918 . S
Fe45 O53 1.997 . S
Fe45 O56 1.996 . S
Fe45 O60 1.976 . S
Fe45 O63 2.002 1_565 S
O46 Fe44 1.918 . S
O46 Fe45 1.918 . S
O46 Fe47 1.918 . S
Fe47 O46 1.918 . S
Fe47 O48 2.002 . S
Fe47 O57 1.976 . S
Fe47 O61 1.996 1_565 S
Fe47 O64 1.989 1_565 S
O48 Fe47 2.002 . S
O48 C65 1.295 . S
O49 Fe44 1.997 . S
O49 C65 1.235 . S
O50 Fe44 2.002 . S
O50 C51 1.295 . S
C51 O50 1.295 . S
C51 O53 1.235 . S
C52 O57 1.287 . S
C52 O58 1.255 . S
O53 Fe45 1.997 . S
O53 C51 1.235 . S
C54 O60 1.286 1_545 S
C54 O61 1.255 . S
O55 Fe44 1.976 . S
O55 C62 1.287 . S
O56 Fe45 1.996 . S
O56 C62 1.255 . S
O57 Fe47 1.976 . S
O57 C52 1.287 . S
O58 Fe44 1.996 . S
O58 C52 1.255 . S
C59 O63 1.295 . S
C59 O64 1.239 . S
O60 Fe45 1.976 . S
O60 C54 1.286 1_565 S
O61 Fe47 1.996 1_545 S
O61 C54 1.255 . S
C62 O55 1.287 . S
C62 O56 1.255 . S
O63 Fe45 2.002 1_545 S
O63 C59 1.295 . S
O64 Fe47 1.989 1_545 S
O64 C59 1.239 . S
C65 O48 1.295 . S
C65 O49 1.235 . S
Fe66 O68 1.918 . S
Fe66 O71 1.997 . S
Fe66 O72 1.998 1_655 S
Fe66 O77 1.976 . S
Fe66 O80 1.996 . S
Fe67 O68 1.918 . S
Fe67 O75 1.996 1_655 S
Fe67 O78 1.996 1_655 S
Fe67 O82 1.976 . S
Fe67 O85 2.002 . S
O68 Fe66 1.918 . S
O68 Fe67 1.918 . S
O68 Fe69 1.918 . S
Fe69 O68 1.918 . S
Fe69 O70 2.002 . S
Fe69 O79 1.976 . S
Fe69 O83 1.996 . S
Fe69 O86 1.997 . S
O70 Fe69 2.002 . S
O70 C87 1.295 . S
O71 Fe66 1.997 . S
O71 C87 1.235 . S
O72 Fe66 1.998 1_455 S
O72 C73 1.297 . S
C73 O72 1.297 . S
C73 O75 1.236 . S
C74 O79 1.287 . S
C74 O80 1.255 . S
O75 Fe67 1.996 1_455 S
O75 C73 1.236 . S
C76 O82 1.287 . S
C76 O83 1.255 . S
O77 Fe66 1.976 . S
O77 C84 1.287 1_655 S
O78 Fe67 1.996 1_455 S
O78 C84 1.255 . S
O79 Fe69 1.976 . S
O79 C74 1.287 . S
O80 Fe66 1.996 . S
O80 C74 1.255 . S
C81 O85 1.295 . S
C81 O86 1.235 . S
O82 Fe67 1.976 . S
O82 C76 1.287 . S
O83 Fe69 1.996 . S
O83 C76 1.255 . S
C84 O77 1.287 1_455 S
C84 O78 1.255 . S
O85 Fe67 2.002 . S
O85 C81 1.295 . S
O86 Fe69 1.997 . S
O86 C81 1.235 . S
C87 O70 1.295 . S
C87 O71 1.235 . S
Fe88 O90 1.918 . S
Fe88 O93 1.997 . S
Fe88 O94 2.002 . S
Fe88 O99 1.976 . S
Fe88 O102 1.996 . S
Fe89 O90 1.918 . S
Fe89 O97 1.997 . S
Fe89 O100 1.996 . S
Fe89 O104 1.976 1_556 S
Fe89 O107 2.002 . S
O90 Fe88 1.918 . S
O90 Fe89 1.918 . S
O90 Fe91 1.918 . S
Fe91 O90 1.918 . S
Fe91 O92 2.002 . S
Fe91 O101 1.976 1_556 S
Fe91 O105 1.996 1_556 S
Fe91 O108 1.997 . S
O92 Fe91 2.002 . S
O92 C109 1.295 . S
O93 Fe88 1.997 . S
O93 C109 1.235 . S
O94 Fe88 2.002 . S
O94 C95 1.295 . S
C95 O94 1.295 . S
C95 O97 1.235 . S
C96 O101 1.287 . S
C96 O102 1.255 1_554 S
O97 Fe89 1.997 . S
O97 C95 1.235 . S
C98 O104 1.287 . S
C98 O105 1.255 . S
O99 Fe88 1.976 . S
O99 C106 1.287 . S
O100 Fe89 1.996 . S
O100 C106 1.255 . S
O101 Fe91 1.976 1_554 S
O101 C96 1.287 . S
O102 Fe88 1.996 . S
O102 C96 1.255 1_556 S
C103 O107 1.295 . S
C103 O108 1.235 . S
O104 Fe89 1.976 1_554 S
O104 C98 1.287 . S
O105 Fe91 1.996 1_554 S
O105 C98 1.255 . S
C106 O99 1.287 . S
C106 O100 1.255 . S
O107 Fe89 2.002 . S
O107 C103 1.295 . S
O108 Fe91 1.997 . S
O108 C103 1.235 . S
C109 O92 1.295 . S
C109 O93 1.235 . S
Fe110 O112 1.918 . S
Fe110 O115 1.997 . S
Fe110 O116 2.002 1_554 S
Fe110 O121 1.976 . S
Fe110 O124 1.996 . S
Fe111 O112 1.918 . S
Fe111 O119 1.997 1_554 S
Fe111 O122 1.996 . S
Fe111 O126 1.976 . S
Fe111 O129 2.002 1_554 S
O112 Fe110 1.918 . S
O112 Fe111 1.918 . S
O112 Fe113 1.918 . S
Fe113 O112 1.918 . S
Fe113 O114 2.002 . S
Fe113 O123 1.976 . S
Fe113 O127 1.996 . S
Fe113 O130 1.997 . S
O114 Fe113 2.002 . S
O114 C131 1.295 . S
O115 Fe110 1.997 . S
O115 C131 1.235 . S
O116 Fe110 2.002 1_556 S
O116 C117 1.295 . S
C117 O116 1.295 . S
C117 O119 1.235 . S
C118 O123 1.287 . S
C118 O124 1.255 . S
O119 Fe111 1.997 1_556 S
O119 C117 1.235 . S
C120 O126 1.287 . S
C120 O127 1.255 . S
O121 Fe110 1.976 . S
O121 C128 1.287 . S
O122 Fe111 1.996 . S
O122 C128 1.255 . S
O123 Fe113 1.976 . S
O123 C118 1.287 . S
O124 Fe110 1.996 . S
O124 C118 1.255 . S
C125 O129 1.295 . S
C125 O130 1.235 1_556 S
O126 Fe111 1.976 . S
O126 C120 1.287 . S
O127 Fe113 1.996 . S
O127 C120 1.255 . S
C128 O121 1.287 . S
C128 O122 1.255 . S
O129 Fe111 2.002 1_556 S
O129 C125 1.295 . S
O130 Fe113 1.997 . S
O130 C125 1.235 1_554 S
C131 O114 1.295 . S
C131 O115 1.235 . S
Fe132 O134 1.918 . S
Fe132 O137 1.997 1_556 S
Fe132 O138 2.002 1_556 S
Fe132 O143 1.976 . S
Fe132 O146 1.996 . S
Fe133 O134 1.918 . S
Fe133 O141 1.997 1_556 S
Fe133 O144 1.996 . S
Fe133 O148 1.976 . S
Fe133 O151 2.002 . S
O134 Fe132 1.918 . S
O134 Fe133 1.918 . S
O134 Fe135 1.918 . S
Fe135 O134 1.918 . S
Fe135 O136 2.002 . S
Fe135 O145 1.976 . S
Fe135 O149 1.996 . S
Fe135 O152 1.997 . S
O136 Fe135 2.002 . S
O136 C153 1.295 1_556 S
O137 Fe132 1.997 1_554 S
O137 C153 1.235 . S
O138 Fe132 2.002 1_554 S
O138 C139 1.295 . S
C139 O138 1.295 . S
C139 O141 1.235 . S
C140 O145 1.287 . S
C140 O146 1.255 . S
O141 Fe133 1.997 1_554 S
O141 C139 1.235 . S
C142 O148 1.287 . S
C142 O149 1.255 . S
O143 Fe132 1.976 . S
O143 C150 1.287 . S
O144 Fe133 1.996 . S
O144 C150 1.255 . S
O145 Fe135 1.976 . S
O145 C140 1.287 . S
O146 Fe132 1.996 . S
O146 C140 1.255 . S
C147 O151 1.295 . S
C147 O152 1.235 . S
O148 Fe133 1.976 . S
O148 C142 1.287 . S
O149 Fe135 1.996 . S
O149 C142 1.255 . S
C150 O143 1.287 . S
C150 O144 1.255 . S
O151 Fe133 2.002 . S
O151 C147 1.295 . S
O152 Fe135 1.997 . S
O152 C147 1.235 . S
C153 O136 1.295 1_554 S
C153 O137 1.235 . S
Fe154 O156 1.918 . S
Fe154 O159 1.997 . S
Fe154 O160 2.002 . S
Fe154 O165 1.976 . S
Fe154 O168 1.996 1_554 S
Fe155 O156 1.918 . S
Fe155 O163 1.997 . S
Fe155 O166 1.996 . S
Fe155 O170 1.976 . S
Fe155 O173 2.002 . S
O156 Fe154 1.918 . S
O156 Fe155 1.918 . S
O156 Fe157 1.918 . S
Fe157 O156 1.918 . S
Fe157 O158 2.002 . S
Fe157 O167 1.976 1_554 S
Fe157 O171 1.996 1_554 S
Fe157 O174 1.997 . S
O158 Fe157 2.002 . S
O158 C175 1.295 . S
O159 Fe154 1.997 . S
O159 C175 1.235 . S
O160 Fe154 2.002 . S
O160 C161 1.295 . S
C161 O160 1.295 . S
C161 O163 1.235 . S
C162 O167 1.287 . S
C162 O168 1.255 . S
O163 Fe155 1.997 . S
O163 C161 1.235 . S
C164 O170 1.287 1_556 S
C164 O171 1.255 . S
O165 Fe154 1.976 . S
O165 C172 1.287 . S
O166 Fe155 1.996 . S
O166 C172 1.255 . S
O167 Fe157 1.976 1_556 S
O167 C162 1.287 . S
O168 Fe154 1.996 1_556 S
O168 C162 1.255 . S
C169 O173 1.295 . S
C169 O174 1.235 . S
O170 Fe155 1.976 . S
O170 C164 1.287 1_554 S
O171 Fe157 1.996 1_556 S
O171 C164 1.255 . S
C172 O165 1.287 . S
C172 O166 1.255 . S
O173 Fe155 2.002 . S
O173 C169 1.295 . S
O174 Fe157 1.997 . S
O174 C169 1.235 . S
C175 O158 1.295 . S
C175 O159 1.235 . S
C10 C128 1.522 . S
C37 C150 1.578 . S
C59 C175 1.596 . S
C103 C84 1.496 . S
C131 C96 1.520 . S
C147 C125 1.577 . S
C172 C153 1.596 . S
C164 C106 1.499 . S
C140 C74 1.522 . S
C169 C8 1.578 . S
C43 C109 1.596 . S
C51 C120 1.496 . S
C81 C54 1.520 . S
C7 C73 1.577 . S
C40 C15 1.597 . S
C32 C52 1.499 . S
C98 C18 1.540 . S
C117 C29 1.515 . S
C65 C139 1.585 . S
C76 C162 1.459 . S
C62 C142 1.540 . S
C87 C161 1.515 . S
C95 C21 1.585 . S
C118 C30 1.459 . S
