# Generated by pormake.
# Topology hex, (8)-cn, num edge types: 1
# Building blocks:
#     Node 0, Type 0, BuildingBlock: LIZSOE_clean_sbu_0, # of connection points: 8
#     Edge 1, Type (0, 0), BuildingBlock: EZIPEK_clean_linker_0, # of connection points: 2
#     Edge 2, Type (0, 0), BuildingBlock: EZIPEK_clean_linker_0, # of connection points: 2
#     Edge 3, Type (0, 0), BuildingBlock: EZIPEK_clean_linker_0, # of connection points: 2
#     Edge 4, Type (0, 0), BuildingBlock: EZIPEK_clean_linker_0, # of connection points: 2
# Relax obj value: 0.198
# Max RMSD: 0.247
# Mean RMSD: 0.247
data_MOF--net-hex--node1-LIZSOE_clean_sbu_0--edge1-EZIPEK_clean_linker_0
_symmetry_space_group_name_H-M    P1
_symmetry_Int_Tables_number       1
_symmetry_cell_setting            triclinic
loop_
_symmetry_equiv_pos_as_xyz
'x, y, z'
_cell_length_a     11.709741
_cell_length_b     16.944731
_cell_length_c     11.567037
_cell_angle_alpha  98.405383
_cell_angle_beta   84.299868
_cell_angle_gamma 136.31208
loop_
_atom_site_label
_atom_site_type_symbol
_atom_site_fract_x
_atom_site_fract_y
_atom_site_fract_z
_atom_type_partial_charge
Co0 Co 0.20217 0.91828 0.09594 0.0
N1 N 0.12976 0.79071 0.16091 0.0
C2 C 0.97735 0.7153 0.20851 0.0
N3 N 0.9881 0.61166 0.07789 0.0
C4 C 0.13707 0.72203 0.09405 0.0
C5 C 0.88798 0.60683 0.15267 0.0
Co6 Co 1.00418 0.15228 0.90369 0.0
N7 N 1.018 0.23766 0.80687 0.0
N8 N 0.97763 0.34015 0.76011 0.0
C9 C 0.89929 0.24846 0.67998 0.0
C10 C 0.9243 0.18598 0.70864 0.0
C11 C 1.05416 0.33425 0.83313 0.0
Co12 Co 0.11885 0.05084 0.01225 0.0
C13 C 0.93094 0.1198 0.05957 0.0
H14 H 0.85823 0.1001 0.66957 0.0
O15 O 0.28125 0.03864 0.02869 0.0
O16 O 0.32106 0.22644 0.03198 0.0
O17 O 0.09164 0.0515 0.18858 0.0
O18 O 0.90256 0.87874 -0.01468 0.0
O19 O 0.9869 0.81638 0.05235 0.0
O20 O 0.23493 0.26615 0.9115 0.0
O21 O 0.96604 0.06677 0.00025 0.0
O22 O 1.0067 0.07645 0.77616 0.0
O23 O 0.1612 0.96496 0.23647 0.0
O24 O 0.22437 0.87853 0.9548 0.0
O25 O 0.1472 0.04577 0.83625 0.0
O26 O 1.01261 0.2223 0.03781 0.0
C27 C 0.11774 1.01614 0.26351 0.0
C28 C 0.14936 0.41826 0.9399 0.0
H29 H 0.2397 0.42068 0.96697 0.0
H30 H 0.21672 0.50586 0.92214 0.0
H31 H 1.06258 0.39357 0.0125 0.0
C32 C 0.347 0.29779 0.9742 0.0
C33 C 0.8731 0.79557 0.01148 0.0
H34 H 0.92171 0.73976 0.25797 0.0
H35 H 0.31886 0.77778 0.962 0.0
H36 H 0.28745 0.69215 0.06073 0.0
H37 H 0.39985 0.83949 0.11 0.0
C38 C 0.29579 0.76098 0.05459 0.0
C39 C 0.31974 0.98002 0.01113 0.0
C40 C 0.08027 0.04674 0.75567 0.0
H41 H 0.75587 0.53355 0.15763 0.0
H42 H 0.81117 0.21998 0.61597 0.0
C43 C 1.0284 0.50929 0.78581 0.0
C44 C 0.92369 0.39321 0.79822 0.0
C45 C 0.82505 0.41193 -0.01623 0.0
C46 C 0.9407 0.53113 0.97702 0.0
N47 N 1.04986 0.66191 0.83503 0.0
N48 N 0.6551 0.22952 0.86475 0.0
C49 C 1.01292 0.57175 0.86646 0.0
C50 C 0.79844 0.34235 0.88271 0.0
N51 N 0.14337 0.55972 0.69989 0.0
N52 N 0.74959 0.36532 0.0856 0.0
H53 H 0.63336 0.1807 0.78683 0.0
H54 H 0.55268 0.1937 0.91704 0.0
H55 H 0.78074 0.41413 0.16568 0.0
H56 H 0.6678 0.27789 0.09068 0.0
H57 H 0.23157 0.648 0.69413 0.0
H58 H 0.15186 0.51239 0.63854 0.0
H59 H 0.09642 0.69171 0.75313 0.0
H60 H 1.00477 0.69058 0.88505 0.0
C61 C 0.70824 0.09796 0.15436 0.0
C62 C 0.75429 0.05823 0.06517 0.0
C63 C 0.55095 1.00459 0.93294 0.0
C64 C 0.49391 0.03566 0.02388 0.0
N65 N 0.52117 0.11256 0.22319 0.0
N66 N 0.68483 0.9422 0.88645 0.0
C67 C 0.57349 0.08229 0.13542 0.0
C68 C 0.66334 1.00123 0.95946 0.0
N69 N 0.79958 0.15558 0.25537 0.0
N70 N 0.49752 0.97856 0.82061 0.0
H71 H 0.61515 0.88982 0.81074 0.0
H72 H 0.61515 0.88982 0.81074 0.0
H73 H 0.41808 0.98268 0.79758 0.0
H74 H 0.5466 0.96653 0.74894 0.0
H75 H 0.78831 0.19972 0.31916 0.0
H76 H 0.8916 0.16166 0.27316 0.0
H77 H 0.55275 0.12926 0.31083 0.0
H78 H 0.44963 0.12451 0.20557 0.0
C79 C 0.50078 0.49177 0.08806 0.0
C80 C 0.49528 0.42649 -0.00882 0.0
C81 C 0.69607 0.60363 0.8902 0.0
C82 C 0.7125 0.66983 -0.00872 0.0
N83 N 0.61549 0.67366 0.18236 0.0
N84 N 0.60256 0.4243 0.80435 0.0
C85 C 0.61009 0.61239 0.08836 0.0
C86 C 0.59686 0.484 0.89312 0.0
N87 N 0.40181 0.4412 0.18238 0.0
N88 N 0.77461 0.65582 0.79068 0.0
H89 H 0.53697 0.33898 0.80772 0.0
H90 H 0.68306 0.46124 0.73417 0.0
H91 H 0.84662 0.74258 0.78759 0.0
H92 H 0.75884 0.61231 0.7101 0.0
H93 H 0.31917 0.35395 0.19145 0.0
H94 H 0.31917 0.35395 0.19145 0.0
H95 H 0.5462 0.63703 0.2576 0.0
H96 H 0.6845 0.75984 0.18088 0.0
C97 C 0.94512 0.9451 0.56349 0.0
C98 C 0.09356 0.0217 0.63038 0.0
C99 C 0.25474 0.11521 0.45652 0.0
C100 C 0.10667 0.03814 0.39002 0.0
N101 N 0.81238 0.9031 0.38298 0.0
N102 N 0.3904 0.16079 0.63663 0.0
C103 C 0.9517 0.959 0.44424 0.0
C104 C 0.24908 0.10119 0.57566 0.0
N105 N 0.79852 0.85841 0.6152 0.0
N106 N 0.39911 0.20588 0.40635 0.0
H107 H 0.38892 0.14781 0.72219 0.0
H108 H 0.50721 0.21356 0.5993 0.0
H109 H 0.40177 0.2217 0.32166 0.0
H110 H 0.51094 0.27142 0.45143 0.0
H111 H 0.68631 0.79382 0.57037 0.0
H112 H 0.79261 0.84567 0.70215 0.0
H113 H 0.6944 0.84894 0.41842 0.0
H114 H 0.81903 0.92247 0.29947 0.0
loop_
_geom_bond_atom_site_label_1
_geom_bond_atom_site_label_2
_geom_bond_distance
_geom_bond_site_symmetry_2
_ccdc_geom_bond_type
Co0 N1 2.034 . S
Co0 O15 2.262 1_654 S
Co0 O19 1.958 1_554 S
Co0 O23 1.950 1_655 S
Co0 O24 2.057 1_654 S
N1 Co0 2.034 . S
N1 C2 1.366 . S
N1 C4 1.332 1_655 S
C2 N1 1.366 . S
C2 C5 1.377 . S
C2 H34 0.931 . S
N3 C4 1.346 . S
N3 C5 1.337 1_455 S
C4 N1 1.332 1_455 S
C4 N3 1.346 . S
C4 C38 1.361 . S
C5 C2 1.377 . S
C5 N3 1.337 1_655 S
C5 H41 0.930 . S
Co6 N7 2.034 1_655 S
Co6 O20 1.950 1_655 S
Co6 O21 2.260 1_556 S
Co6 O22 1.958 . S
Co6 O26 2.057 . S
N7 Co6 2.034 1_455 S
N7 C10 1.366 . S
N7 C11 1.332 . S
N8 C9 1.337 . S
N8 C11 1.346 . S
C9 N8 1.337 . S
C9 C10 1.377 . S
C9 H42 0.930 . S
C10 N7 1.366 . S
C10 C9 1.377 . S
C10 H14 0.931 . S
C11 N7 1.332 . S
C11 N8 1.346 . S
C11 C28 1.361 1_556 S
Co12 O15 2.097 1_655 S
Co12 O16 2.065 1_666 S
Co12 O17 2.065 1_566 S
Co12 O18 2.042 . S
Co12 O21 2.098 1_566 S
Co12 O25 2.042 1_655 S
C13 O21 1.253 . S
C13 O26 1.263 1_554 S
H14 C10 0.931 . S
O15 Co0 2.262 1_456 S
O15 Co12 2.097 1_455 S
O15 C39 1.253 . S
O16 Co12 2.065 1_444 S
O16 C32 1.221 . S
O17 Co12 2.065 1_544 S
O17 C27 1.221 1_545 S
O18 Co12 2.042 . S
O18 C33 1.237 . S
O19 Co0 1.958 1_556 S
O19 C33 1.278 . S
O20 Co6 1.950 1_455 S
O20 C32 1.277 1_556 S
O21 Co6 2.260 1_554 S
O21 Co12 2.098 1_544 S
O21 C13 1.253 . S
O22 Co6 1.958 . S
O22 C40 1.278 1_545 S
O23 Co0 1.950 1_455 S
O23 C27 1.277 1_455 S
O24 Co0 2.057 1_456 S
O24 C39 1.263 . S
O25 Co12 2.042 1_455 S
O25 C40 1.237 1_455 S
O26 Co6 2.057 . S
O26 C13 1.263 1_556 S
C27 O17 1.221 1_565 S
C27 O23 1.277 1_655 S
C28 C11 1.361 1_554 S
C28 H29 0.960 . S
C28 H30 0.961 . S
C28 H31 0.961 1_455 S
H29 C28 0.960 . S
H30 C28 0.961 . S
H31 C28 0.961 1_655 S
C32 O16 1.221 . S
C32 O20 1.277 1_554 S
C33 O18 1.237 . S
C33 O19 1.278 . S
H34 C2 0.931 . S
H35 C38 0.961 . S
H36 C38 0.961 . S
H37 C38 0.960 . S
C38 C4 1.361 . S
C38 H35 0.961 . S
C38 H36 0.961 . S
C38 H37 0.960 . S
C39 O15 1.253 . S
C39 O24 1.263 . S
C40 O22 1.278 1_565 S
C40 O25 1.237 1_655 S
H41 C5 0.930 . S
H42 C9 0.930 . S
C43 C44 1.363 . S
C43 C49 1.379 1_556 S
C43 N51 1.356 . S
C44 C43 1.363 . S
C44 C50 1.363 1_456 S
C45 C46 1.363 1_655 S
C45 C50 1.379 . S
C45 N52 1.356 . S
C46 C45 1.363 1_455 S
C46 C49 1.363 . S
N47 C49 1.356 . S
N47 H59 0.984 . S
N47 H60 0.985 . S
N48 C50 1.356 1_556 S
N48 H53 0.984 . S
N48 H54 0.985 1_556 S
C49 C43 1.379 1_554 S
C49 C46 1.363 . S
C49 N47 1.356 . S
C50 C44 1.363 1_654 S
C50 C45 1.379 . S
C50 N48 1.356 1_554 S
N51 C43 1.356 . S
N51 H57 0.984 . S
N51 H58 0.984 . S
N52 C45 1.356 . S
N52 H55 0.984 . S
N52 H56 0.985 . S
H53 N48 0.984 . S
H54 N48 0.985 1_554 S
H55 N52 0.984 . S
H56 N52 0.985 . S
H57 N51 0.984 . S
H58 N51 0.984 . S
H59 N47 0.984 . S
H60 N47 0.985 . S
C61 C62 1.363 . S
C61 C67 1.379 . S
C61 N69 1.356 . S
C62 C61 1.363 . S
C62 C68 1.363 1_564 S
C63 C64 1.363 . S
C63 C68 1.379 . S
C63 N70 1.356 . S
C64 C63 1.363 . S
C64 C67 1.363 1_546 S
N65 C67 1.356 . S
N65 H77 0.984 . S
N65 H78 0.985 . S
N66 C68 1.356 . S
N66 H71 0.984 . S
N66 H72 0.985 . S
C67 C61 1.379 . S
C67 C64 1.363 1_564 S
C67 N65 1.356 . S
C68 C62 1.363 1_546 S
C68 C63 1.379 . S
C68 N66 1.356 . S
N69 C61 1.356 . S
N69 H75 0.984 . S
N69 H76 0.984 . S
N70 C63 1.356 . S
N70 H73 0.984 . S
N70 H74 0.985 . S
H71 N66 0.984 . S
H72 N66 0.985 . S
H73 N70 0.984 . S
H74 N70 0.985 . S
H75 N69 0.984 . S
H76 N69 0.984 . S
H77 N65 0.984 . S
H78 N65 0.985 . S
C79 C80 1.363 . S
C79 C85 1.379 1_554 S
C79 N87 1.356 . S
C80 C79 1.363 . S
C80 C86 1.363 . S
C81 C82 1.363 . S
C81 C86 1.379 1_556 S
C81 N88 1.356 . S
C82 C81 1.363 . S
C82 C85 1.363 . S
N83 C85 1.356 . S
N83 H95 0.984 . S
N83 H96 0.985 . S
N84 C86 1.356 . S
N84 H89 0.984 . S
N84 H90 0.985 . S
C85 C79 1.379 1_556 S
C85 C82 1.363 . S
C85 N83 1.356 . S
C86 C80 1.363 . S
C86 C81 1.379 1_554 S
C86 N84 1.356 . S
N87 C79 1.356 . S
N87 H93 0.984 . S
N87 H94 0.984 . S
N88 C81 1.356 . S
N88 H91 0.984 . S
N88 H92 0.985 . S
H89 N84 0.984 . S
H90 N84 0.985 . S
H91 N88 0.984 . S
H92 N88 0.985 . S
H93 N87 0.984 . S
H94 N87 0.984 . S
H95 N83 0.984 . S
H96 N83 0.985 . S
C97 C98 1.363 . S
C97 C103 1.379 . S
C97 N105 1.356 . S
C98 C97 1.363 . S
C98 C104 1.364 1_665 S
C99 C100 1.363 . S
C99 C104 1.379 . S
C99 N106 1.356 . S
C100 C99 1.363 . S
C100 C103 1.363 1_445 S
N101 C103 1.356 . S
N101 H113 0.984 . S
N101 H114 0.985 . S
N102 C104 1.356 . S
N102 H107 0.984 . S
N102 H108 0.985 . S
C103 C97 1.379 . S
C103 C100 1.363 1_665 S
C103 N101 1.356 . S
C104 C98 1.364 1_445 S
C104 C99 1.379 . S
C104 N102 1.356 . S
N105 C97 1.356 . S
N105 H111 0.984 . S
N105 H112 0.984 . S
N106 C99 1.356 . S
N106 H109 0.984 . S
N106 H110 0.985 . S
H107 N102 0.984 . S
H108 N102 0.985 . S
H109 N106 0.984 . S
H110 N106 0.985 . S
H111 N105 0.984 . S
H112 N105 0.984 . S
H113 N101 0.984 . S
H114 N101 0.985 . S
C44 N8 1.876 . S
C46 N3 1.651 . S
C62 C13 1.763 1_565 S
C64 C39 1.785 1_545 S
C80 C32 1.821 . S
C82 C33 1.840 . S
C98 C40 1.415 . S
C100 C27 1.417 1_445 S
