# Generated by pormake.
# Topology pcu, (6)-cn, num edge types: 1
# Building blocks:
#     Node 0, Type 0, BuildingBlock: BETGAK_clean_sbu_0, # of connection points: 6
#     Edge 1, Type (0, 0), BuildingBlock: KIFKEQ_clean_linker_1, # of connection points: 2
#     Edge 2, Type (0, 0), BuildingBlock: KIFKEQ_clean_linker_1, # of connection points: 2
#     Edge 3, Type (0, 0), BuildingBlock: KIFKEQ_clean_linker_1, # of connection points: 2
# Relax obj value: 0.000
# Max RMSD: 0.000
# Mean RMSD: 0.000
data_MOF--net-pcu--node1-BETGAK_clean_sbu_0--edge1-KIFKEQ_clean_linker_1
_symmetry_space_group_name_H-M    P1
_symmetry_Int_Tables_number       1
_symmetry_cell_setting            triclinic
loop_
_symmetry_equiv_pos_as_xyz
'x, y, z'
_cell_length_a     15.643529
_cell_length_b     25.323694
_cell_length_c     14.525908
_cell_angle_alpha  96.755281
_cell_angle_beta   87.980536
_cell_angle_gamma 122.67703
loop_
_atom_site_label
_atom_site_type_symbol
_atom_site_fract_x
_atom_site_fract_y
_atom_site_fract_z
_atom_type_partial_charge
La0 La 0.09154 0.10165 1.01684 0.0
La1 La 0.96689 0.96307 0.03424 0.0
C2 C 0.15973 0.20895 0.96507 0.0
C3 C 0.13385 0.25755 0.97563 0.0
C4 C 0.10892 0.27643 0.06187 0.0
C5 C 0.08932 0.3246 0.07078 0.0
C6 C 0.09357 0.35475 0.99359 0.0
C7 C 0.11657 0.33467 0.90705 0.0
C8 C 0.13669 0.28676 0.89833 0.0
C9 C 0.07406 0.07361 0.18874 0.0
C10 C 0.84947 1.0299 0.03476 0.0
C11 C 0.89509 0.85372 0.08042 0.0
C12 C 0.92338 0.80658 0.07514 0.0
C13 C 0.99997 0.81075 1.01707 0.0
C14 C 1.02167 0.76346 1.00972 0.0
C15 C 0.96714 0.71115 0.06034 0.0
C16 C 0.89207 0.70822 0.11992 0.0
C17 C 0.87046 0.7554 0.12708 0.0
C18 C 0.98492 0.9933 0.86349 0.0
C19 C 0.20839 0.03484 1.01959 0.0
O20 O 0.19262 0.19994 0.03959 0.0
O21 O 0.09613 0.15569 0.91476 0.0
O22 O 0.15246 0.12246 0.15876 0.0
O23 O 1.00557 0.04568 0.12559 0.0
O24 O 0.93503 0.07938 1.0097 0.0
O25 O 0.84675 0.98084 0.06135 0.0
O26 O 0.87369 0.86474 1.0015 0.0
O27 O 0.95107 0.90583 0.13591 0.0
O28 O 0.90418 0.9459 0.89342 0.0
O29 O 0.0535 1.01908 0.92623 0.0
O30 O 0.12349 0.98668 0.04798 0.0
O31 O 0.21001 0.08232 0.98826 0.0
H32 H 0.1058 0.25455 0.12272 0.0
H33 H 0.07297 0.3391 0.13871 0.0
H34 H 0.11862 0.35576 0.84568 0.0
H35 H 0.15514 0.27274 0.83103 0.0
H36 H 0.0418 0.85001 0.97641 0.0
H37 H 0.07939 0.7671 0.96266 0.0
H38 H 0.84993 0.66944 0.16131 0.0
H39 H 0.81148 0.75156 0.17268 0.0
H40 H 0.20202 0.14782 0.33561 0.0
H41 H 0.91405 0.97379 0.26483 0.0
H42 H 0.17962 0.1313 0.49832 0.0
H43 H 0.89455 0.95401 0.42671 0.0
H44 H 0.83756 0.95883 0.73379 0.0
H45 H 0.85785 0.97989 0.57257 0.0
H46 H 0.18417 0.0772 0.61134 0.0
H47 H 0.16282 0.05957 0.77417 0.0
C48 C 0.1344 0.10542 0.35487 0.0
C49 C 0.06013 0.06186 0.28731 0.0
C50 C 0.12181 0.0955 0.44845 0.0
C51 C 0.03543 0.04097 0.47704 0.0
C52 C 0.96138 0.99717 0.40865 0.0
C53 C 0.97304 1.00792 0.31521 0.0
C54 C 0.91354 0.9851 0.7076 0.0
C55 C 0.99858 1.00759 0.76628 0.0
C56 C 0.92542 0.99672 0.61468 0.0
C57 C 1.02279 1.02999 0.57733 0.0
C58 C 0.10791 0.05249 0.63695 0.0
C59 C 0.09592 0.04205 0.73048 0.0
H60 H 0.38556 0.10806 0.93192 0.0
H61 H 0.24315 0.9597 0.11062 0.0
H62 H 0.53932 0.10592 0.93451 0.0
H63 H 0.39787 0.95945 0.11688 0.0
H64 H 0.6534 0.92976 0.03756 0.0
H65 H 0.49877 0.93049 0.03087 0.0
H66 H 0.67945 0.13325 0.02914 0.0
H67 H 0.83363 0.13188 0.03149 0.0
C68 C 0.3874 0.07535 0.97234 0.0
C69 C 0.30215 0.03402 1.0209 0.0
C70 C 0.47585 0.07436 0.97441 0.0
C71 C 0.48155 1.03259 1.02612 0.0
C72 C 0.39604 0.99146 0.07491 0.0
C73 C 0.30729 0.99188 0.07182 0.0
C74 C 0.65995 0.97447 0.03603 0.0
C75 C 0.75566 1.0307 0.03503 0.0
C76 C 0.57124 0.97501 0.03261 0.0
C77 C 0.57615 1.03196 0.02943 0.0
C78 C 0.67231 0.08832 0.02965 0.0
C79 C 0.76092 0.08762 0.03175 0.0
H80 H 0.15053 0.72055 0.04488 0.0
H81 H 0.82787 0.58368 0.05182 0.0
H82 H 0.18151 0.63529 0.02924 0.0
H83 H 0.8587 0.49864 0.03602 0.0
H84 H 0.95476 0.36588 0.10138 0.0
H85 H 0.92726 0.45241 0.11921 0.0
H86 H 0.16016 0.54829 0.92274 0.0
H87 H 0.1912 0.46328 0.90838 0.0
C88 C 0.08609 0.67229 0.04234 0.0
C89 C 0.9867 0.65919 0.05006 0.0
C90 C 0.10384 0.6233 0.03332 0.0
C91 C 1.02267 0.55987 0.03162 0.0
C92 C 0.92331 0.54685 0.03882 0.0
C93 C 0.90559 0.59576 0.04789 0.0
C94 C 1.00102 0.4057 0.06272 0.0
C95 C 0.07529 0.40731 1.0034 0.0
C96 C 0.98432 0.45509 0.07208 0.0
C97 C 0.04124 0.50748 1.02225 0.0
C98 C 0.11558 0.50914 0.96302 0.0
C99 C 0.13242 0.45982 0.9538 0.0
loop_
_geom_bond_atom_site_label_1
_geom_bond_atom_site_label_2
_geom_bond_distance
_geom_bond_site_symmetry_2
_ccdc_geom_bond_type
La0 C2 2.928 . S
La0 O20 2.521 . S
La0 O21 2.628 1_554 S
La0 O22 2.554 . S
La0 O23 2.757 1_545 S
La0 O24 2.470 1_455 S
La0 O29 2.482 1_454 S
La0 O31 2.503 . S
La1 C11 2.928 . S
La1 O23 2.482 1_656 S
La1 O25 2.503 . S
La1 O26 2.521 . S
La1 O27 2.628 1_556 S
La1 O28 2.554 . S
La1 O29 2.757 1_565 S
La1 O30 2.470 1_655 S
C2 La0 2.928 . S
C2 C3 1.503 . S
C2 O20 1.261 . S
C2 O21 1.243 1_554 S
C3 C2 1.503 . S
C3 C4 1.394 . S
C3 C8 1.373 1_454 S
C4 C3 1.394 . S
C4 C5 1.380 . S
C4 H32 0.930 . S
C5 C4 1.380 . S
C5 C6 1.387 . S
C5 H33 0.930 . S
C6 C5 1.387 . S
C6 C7 1.361 1_454 S
C7 C6 1.361 1_656 S
C7 C8 1.396 . S
C7 H34 0.929 . S
C8 C3 1.373 1_656 S
C8 C7 1.396 . S
C8 H35 0.929 . S
C9 O22 1.240 . S
C9 O23 1.289 1_545 S
C10 O24 1.258 1_565 S
C10 O25 1.255 1_554 S
C11 La1 2.928 . S
C11 C12 1.503 . S
C11 O26 1.261 . S
C11 O27 1.243 1_556 S
C12 C11 1.503 . S
C12 C13 1.394 . S
C12 C17 1.373 1_656 S
C13 C12 1.394 . S
C13 C14 1.380 . S
C13 H36 0.930 . S
C14 C13 1.380 . S
C14 C15 1.384 . S
C14 H37 0.930 . S
C15 C14 1.384 . S
C15 C16 1.363 1_656 S
C16 C15 1.363 1_454 S
C16 C17 1.396 . S
C16 H38 0.929 . S
C17 C12 1.373 1_454 S
C17 C16 1.396 . S
C17 H39 0.929 . S
C18 O28 1.240 . S
C18 O29 1.289 1_565 S
C19 O30 1.258 1_545 S
C19 O31 1.255 1_556 S
O20 La0 2.521 . S
O20 C2 1.261 . S
O21 La0 2.628 1_556 S
O21 C2 1.243 1_556 S
O22 La0 2.554 . S
O22 C9 1.240 . S
O23 La0 2.757 1_565 S
O23 La1 2.482 1_454 S
O23 C9 1.289 1_565 S
O24 La0 2.470 1_655 S
O24 C10 1.258 1_545 S
O25 La1 2.503 . S
O25 C10 1.255 1_556 S
O26 La1 2.521 . S
O26 C11 1.261 . S
O27 La1 2.628 1_554 S
O27 C11 1.243 1_554 S
O28 La1 2.554 . S
O28 C18 1.240 . S
O29 La0 2.482 1_656 S
O29 La1 2.757 1_545 S
O29 C18 1.289 1_545 S
O30 La1 2.470 1_455 S
O30 C19 1.258 1_565 S
O31 La0 2.503 . S
O31 C19 1.255 1_554 S
H32 C4 0.930 . S
H33 C5 0.930 . S
H34 C7 0.929 . S
H35 C8 0.929 . S
H36 C13 0.930 . S
H37 C14 0.930 . S
H38 C16 0.929 . S
H39 C17 0.929 . S
H40 C48 0.950 . S
H41 C53 0.950 . S
H42 C50 0.950 . S
H43 C52 0.950 . S
H44 C54 0.950 . S
H45 C56 0.950 . S
H46 C58 0.950 . S
H47 C59 0.950 . S
C48 H40 0.950 . S
C48 C49 1.386 1_565 S
C48 C50 1.391 . S
C49 C48 1.386 1_545 S
C49 C53 1.393 1_455 S
C50 H42 0.950 . S
C50 C48 1.391 . S
C50 C51 1.400 1_565 S
C51 C50 1.400 1_545 S
C51 C52 1.398 1_455 S
C51 C57 1.491 1_445 S
C52 H43 0.950 . S
C52 C51 1.398 1_655 S
C52 C53 1.391 . S
C53 H41 0.950 . S
C53 C49 1.393 1_655 S
C53 C52 1.391 . S
C54 H44 0.950 . S
C54 C55 1.386 1_545 S
C54 C56 1.391 . S
C55 C54 1.386 1_565 S
C55 C59 1.393 1_655 S
C56 H45 0.950 . S
C56 C54 1.391 . S
C56 C57 1.400 1_545 S
C57 C51 1.491 1_665 S
C57 C56 1.400 1_565 S
C57 C58 1.398 1_655 S
C58 H46 0.950 . S
C58 C57 1.398 1_455 S
C58 C59 1.391 . S
C59 H47 0.950 . S
C59 C55 1.393 1_455 S
C59 C58 1.391 . S
H60 C68 0.950 . S
H61 C73 0.950 . S
H62 C70 0.950 . S
H63 C72 0.950 . S
H64 C74 0.950 . S
H65 C76 0.950 . S
H66 C78 0.950 . S
H67 C79 0.950 . S
C68 H60 0.950 . S
C68 C69 1.386 1_545 S
C68 C70 1.391 . S
C69 C68 1.386 1_565 S
C69 C73 1.393 1_554 S
C70 H62 0.950 . S
C70 C68 1.391 . S
C70 C71 1.388 1_545 S
C71 C70 1.388 1_565 S
C71 C72 1.402 1_554 S
C71 C77 1.511 1_564 S
C72 H63 0.950 . S
C72 C71 1.402 1_556 S
C72 C73 1.391 . S
C73 H61 0.950 . S
C73 C69 1.393 1_556 S
C73 C72 1.391 . S
C74 H64 0.950 . S
C74 C75 1.386 1_565 S
C74 C76 1.391 . S
C75 C74 1.386 1_545 S
C75 C79 1.393 1_556 S
C76 H65 0.950 . S
C76 C74 1.391 . S
C76 C77 1.383 1_565 S
C77 C71 1.511 1_546 S
C77 C76 1.383 1_545 S
C77 C78 1.404 1_556 S
C78 H66 0.950 . S
C78 C77 1.404 1_554 S
C78 C79 1.391 . S
C79 H67 0.950 . S
C79 C75 1.393 1_554 S
C79 C78 1.391 . S
H80 C88 0.950 . S
H81 C93 0.950 . S
H82 C90 0.950 . S
H83 C92 0.950 . S
H84 C94 0.950 . S
H85 C96 0.950 . S
H86 C98 0.950 . S
H87 C99 0.950 . S
C88 H80 0.950 . S
C88 C89 1.386 1_556 S
C88 C90 1.391 . S
C89 C88 1.386 1_554 S
C89 C93 1.393 1_455 S
C90 H82 0.950 . S
C90 C88 1.391 . S
C90 C91 1.400 1_556 S
C91 C90 1.400 1_554 S
C91 C92 1.398 1_455 S
C91 C97 1.491 1_454 S
C92 H83 0.950 . S
C92 C91 1.398 1_655 S
C92 C93 1.391 . S
C93 H81 0.950 . S
C93 C89 1.393 1_655 S
C93 C92 1.391 . S
C94 H84 0.950 . S
C94 C95 1.386 1_554 S
C94 C96 1.391 . S
C95 C94 1.386 1_556 S
C95 C99 1.393 1_655 S
C96 H85 0.950 . S
C96 C94 1.391 . S
C96 C97 1.400 1_554 S
C97 C91 1.491 1_656 S
C97 C96 1.400 1_556 S
C97 C98 1.398 1_655 S
C98 H86 0.950 . S
C98 C97 1.398 1_455 S
C98 C99 1.391 . S
C99 H87 0.950 . S
C99 C95 1.393 1_455 S
C99 C98 1.391 . S
C49 C9 1.436 . S
C55 C18 1.436 . S
C69 C19 1.490 1_564 S
C75 C10 1.490 1_546 S
C89 C15 1.499 1_454 S
C95 C6 1.498 1_656 S
