# Generated by pormake.
# Topology pcu, (6)-cn, num edge types: 1
# Building blocks:
#     Node 0, Type 0, BuildingBlock: VOLQOD_clean_sbu_1, # of connection points: 6
#     Edge 1, Type (0, 0), BuildingBlock: TEMPAE_clean_linker_10, # of connection points: 2
#     Edge 2, Type (0, 0), BuildingBlock: TEMPAE_clean_linker_10, # of connection points: 2
#     Edge 3, Type (0, 0), BuildingBlock: TEMPAE_clean_linker_10, # of connection points: 2
# Relax obj value: 0.082
# Max RMSD: 0.143
# Mean RMSD: 0.143
data_MOF--net-pcu--node1-VOLQOD_clean_sbu_1--edge1-TEMPAE_clean_linker_10
_symmetry_space_group_name_H-M    P1
_symmetry_Int_Tables_number       1
_symmetry_cell_setting            triclinic
loop_
_symmetry_equiv_pos_as_xyz
'x, y, z'
_cell_length_a     17.529716
_cell_length_b     17.528579
_cell_length_c     17.532399
_cell_angle_alpha  90.29737
_cell_angle_beta   89.854462
_cell_angle_gamma 91.610731
loop_
_atom_site_label
_atom_site_type_symbol
_atom_site_fract_x
_atom_site_fract_y
_atom_site_fract_z
_atom_type_partial_charge
O0 O 0.02121 0.02179 0.16489 0.0
Zn1 Zn 0.04139 0.04202 0.05345 0.0
O2 O 0.97592 0.97621 0.98892 0.0
Zn3 Zn 0.03944 0.91258 0.92402 0.0
Zn4 Zn 0.91007 0.91084 0.0531 0.0
Zn5 Zn 0.91268 0.03948 0.92448 0.0
O6 O 0.0202 0.93143 0.81244 0.0
O7 O 0.93213 0.01986 0.81292 0.0
O8 O 0.15289 0.02346 0.03366 0.0
O9 O 0.15103 0.93372 0.9439 0.0
O10 O 0.01866 0.801 0.94405 0.0
O11 O 0.92869 0.79933 0.03332 0.0
O12 O 0.79862 0.92947 0.03375 0.0
O13 O 0.02275 0.1535 0.03437 0.0
O14 O 0.80101 0.01875 0.94446 0.0
O15 O 0.93369 0.1511 0.94462 0.0
C16 C 0.97572 0.97645 0.20044 0.0
C17 C 0.97616 0.97558 0.77696 0.0
C18 C 0.97358 0.76445 0.98872 0.0
C19 C 0.18767 -0.02125 0.98876 0.0
C20 C 0.7641 0.97404 0.98913 0.0
C21 C 0.97833 0.18802 -0.01043 0.0
O22 O 0.93021 0.93116 0.16461 0.0
C23 C 0.02603 0.02502 0.32591 0.0
C24 C 0.97584 0.97625 0.2851 0.0
C25 C 0.02681 0.02533 0.40596 0.0
C26 C 0.97619 0.97572 0.44628 0.0
C27 C 0.92542 0.92636 0.40561 0.0
C28 C 0.92585 0.92719 0.32556 0.0
C29 C 0.0818 0.07879 0.44741 0.0
C30 C 0.87057 0.87267 0.44667 0.0
C31 C 0.0237 0.9268 0.65128 0.0
C32 C 0.97617 0.97552 0.6923 0.0
C33 C 0.02426 0.92626 0.57122 0.0
C34 C 0.97619 0.97563 0.53112 0.0
C35 C 0.9281 0.02492 0.57202 0.0
C36 C 0.92864 0.02428 0.65205 0.0
C37 C 0.07631 0.87286 0.52951 0.0
C38 C 0.87606 0.07839 0.5312 0.0
H39 H 0.06492 0.06313 0.29533 0.0
H40 H 0.88683 0.88927 0.29472 0.0
H41 H 0.04984 0.11777 0.48505 0.0
H42 H 0.1199 0.0457 0.48439 0.0
H43 H 0.11758 0.11369 0.40765 0.0
H44 H 0.83485 0.83779 0.40665 0.0
H45 H 0.90261 0.83368 0.48365 0.0
H46 H 0.83239 0.9056 0.48426 0.0
H47 H 0.06063 0.88889 0.6817 0.0
H48 H 0.89171 0.06217 0.68306 0.0
H49 H 0.11623 0.906 0.49233 0.0
H50 H 0.04223 0.83382 0.49206 0.0
H51 H 0.11018 0.83803 0.56912 0.0
H52 H 0.91016 0.11752 0.49408 0.0
H53 H 0.84214 0.11313 0.57138 0.0
H54 H 0.83618 0.04532 0.49378 0.0
C55 C 0.31434 0.02705 0.03823 0.0
C56 C 0.27233 -0.02156 0.98909 0.0
C57 C 0.39442 0.0268 0.03935 0.0
C58 C 0.43347 0.97677 -0.00981 0.0
C59 C 0.39155 0.92759 0.94048 0.0
C60 C 0.31157 0.92901 0.94051 0.0
C61 C 0.43725 0.08012 0.09311 0.0
C62 C 0.43123 0.87347 0.88718 0.0
C63 C 0.64054 0.02354 0.94093 0.0
C64 C 0.67944 0.97448 0.98945 0.0
C65 C 0.56056 0.02499 0.94076 0.0
C66 C 0.5183 0.97621 -0.00972 0.0
C67 C 0.55702 0.92657 0.03941 0.0
C68 C 0.6371 0.92628 0.03842 0.0
C69 C 0.52125 0.07869 0.8875 0.0
C70 C 0.51381 0.87369 0.09298 0.0
H71 H 0.2847 0.06542 0.07602 0.0
H72 H 0.2798 0.89117 0.90234 0.0
H73 H 0.47322 0.0469 0.1321 0.0
H74 H 0.47605 0.11885 0.06028 0.0
H75 H 0.39838 0.11528 0.12793 0.0
H76 H 0.39031 0.83867 0.8523 0.0
H77 H 0.46984 0.90605 0.84821 0.0
H78 H 0.46702 0.83441 0.92034 0.0
H79 H 0.67256 0.06107 0.90288 0.0
H80 H 0.66649 0.8882 0.07617 0.0
H81 H 0.4852 0.118 0.92067 0.0
H82 H 0.48294 0.0458 0.84836 0.0
H83 H 0.56241 0.11323 0.85281 0.0
H84 H 0.47755 0.90724 0.13194 0.0
H85 H 0.55244 0.83885 0.12783 0.0
H86 H 0.47526 0.83468 0.06 0.0
C87 C 0.92454 0.63789 0.03731 0.0
C88 C 0.97406 0.6798 0.98922 0.0
C89 C 0.92487 0.55782 0.03855 0.0
C90 C 0.97596 0.51867 -0.00938 0.0
C91 C 0.02612 0.56049 0.94205 0.0
C92 C 0.02456 0.64048 0.94189 0.0
C93 C 0.87045 0.51509 0.09105 0.0
C94 C 0.08141 0.52071 0.89012 0.0
C95 C 0.02524 0.31506 0.04 0.0
C96 C 0.97801 0.27268 -0.01009 0.0
C97 C 0.02501 0.39516 0.041 0.0
C98 C 0.97647 0.43384 -0.0093 0.0
C99 C 0.92871 0.39153 0.94003 0.0
C100 C 0.93003 0.31155 0.94025 0.0
C101 C 0.07675 0.43842 0.09585 0.0
C102 C 0.87622 0.43079 0.88548 0.0
H103 H 0.88533 0.6676 0.07412 0.0
H104 H 0.06315 0.67217 0.90458 0.0
H105 H 0.83237 0.47628 0.0573 0.0
H106 H 0.90284 0.47914 0.13076 0.0
H107 H 0.83463 0.55403 0.12509 0.0
H108 H 0.117 0.56157 0.85614 0.0
H109 H 0.11969 0.48496 0.92425 0.0
H110 H 0.04972 0.48205 0.85032 0.0
H111 H 0.06247 0.2857 0.07865 0.0
H112 H 0.89329 0.27949 0.90131 0.0
H113 H 0.04241 0.47475 0.13403 0.0
H114 H 0.11647 0.47692 0.06383 0.0
H115 H 0.11083 0.39983 0.1315 0.0
H116 H 0.83624 0.46693 0.9177 0.0
H117 H 0.84241 0.3896 0.84993 0.0
H118 H 0.90999 0.46902 0.84716 0.0
loop_
_geom_bond_atom_site_label_1
_geom_bond_atom_site_label_2
_geom_bond_distance
_geom_bond_site_symmetry_2
_ccdc_geom_bond_type
O0 Zn1 1.953 . S
O0 C16 1.225 . S
Zn1 O0 1.953 . S
Zn1 O2 1.940 1_454 S
Zn1 O8 1.919 . S
Zn1 O13 1.924 . S
O2 Zn1 1.940 1_656 S
O2 Zn3 1.932 1_645 S
O2 Zn4 1.941 1_546 S
O2 Zn5 1.953 . S
Zn3 O2 1.932 1_465 S
Zn3 O6 1.933 . S
Zn3 O9 1.941 . S
Zn3 O10 1.965 . S
Zn4 O2 1.941 1_564 S
Zn4 O11 1.938 . S
Zn4 O12 1.906 . S
Zn4 O22 1.953 . S
Zn5 O2 1.953 . S
Zn5 O7 1.932 . S
Zn5 O14 1.977 . S
Zn5 O15 1.910 . S
O6 Zn3 1.933 . S
O6 C17 1.231 . S
O7 Zn5 1.932 . S
O7 C17 1.302 1_645 S
O8 Zn1 1.919 . S
O8 C19 1.253 1_544 S
O9 Zn3 1.941 . S
O9 C19 1.283 . S
O10 Zn3 1.965 . S
O10 C18 1.303 1_456 S
O11 Zn4 1.938 . S
O11 C18 1.247 . S
O12 Zn4 1.906 . S
O12 C20 1.304 1_564 S
O13 Zn1 1.924 . S
O13 C21 1.311 . S
O14 Zn5 1.977 . S
O14 C20 1.272 . S
O15 Zn5 1.910 . S
O15 C21 1.231 1_656 S
C16 O0 1.225 . S
C16 O22 1.298 1_445 S
C17 O6 1.231 . S
C17 O7 1.302 1_465 S
C18 O10 1.303 1_654 S
C18 O11 1.247 . S
C19 O8 1.253 1_566 S
C19 O9 1.283 . S
C20 O12 1.304 1_546 S
C20 O14 1.272 . S
C21 O13 1.311 . S
C21 O15 1.231 1_454 S
O22 Zn4 1.953 . S
O22 C16 1.298 1_665 S
C23 C24 1.391 . S
C23 C25 1.394 . S
C23 H39 0.931 . S
C24 C23 1.391 . S
C24 C28 1.376 1_545 S
C25 C23 1.394 . S
C25 C26 1.369 . S
C25 C29 1.531 . S
C26 C25 1.369 . S
C26 C27 1.410 1_545 S
C26 C34 1.503 . S
C27 C26 1.410 1_565 S
C27 C28 1.392 . S
C27 C30 1.511 . S
C28 C24 1.376 1_565 S
C28 C27 1.392 . S
C28 H40 0.929 1_655 S
C29 C25 1.531 . S
C29 H41 0.960 . S
C29 H42 0.962 1_655 S
C29 H43 0.960 . S
C30 C27 1.511 . S
C30 H44 0.961 1_655 S
C30 H45 0.961 1_655 S
C30 H46 0.961 . S
C31 C32 1.366 1_455 S
C31 C33 1.363 . S
C31 H47 0.931 . S
C32 C31 1.366 1_655 S
C32 C36 1.413 1_545 S
C33 C31 1.363 . S
C33 C34 1.370 1_455 S
C33 C37 1.524 . S
C34 C26 1.503 . S
C34 C33 1.370 1_655 S
C34 C35 1.403 1_545 S
C35 C34 1.403 1_565 S
C35 C36 1.404 . S
C35 C38 1.539 . S
C36 C32 1.413 1_565 S
C36 C35 1.404 . S
C36 H48 0.930 . S
C37 C33 1.524 . S
C37 H49 0.956 . S
C37 H50 0.961 1_545 S
C37 H51 0.961 . S
C38 C35 1.539 . S
C38 H52 0.958 1_565 S
C38 H53 0.961 . S
C38 H54 0.960 . S
H39 C23 0.931 . S
H40 C28 0.929 1_455 S
H41 C29 0.960 . S
H42 C29 0.962 1_455 S
H43 C29 0.960 . S
H44 C30 0.961 1_455 S
H45 C30 0.961 1_455 S
H46 C30 0.961 . S
H47 C31 0.931 . S
H48 C36 0.930 . S
H49 C37 0.956 . S
H50 C37 0.961 1_565 S
H51 C37 0.961 . S
H52 C38 0.958 1_545 S
H53 C38 0.961 . S
H54 C38 0.960 . S
C55 C56 1.391 1_545 S
C55 C57 1.394 . S
C55 H71 0.931 1_556 S
C56 C55 1.391 1_565 S
C56 C60 1.376 . S
C57 C55 1.394 . S
C57 C58 1.369 1_545 S
C57 C61 1.531 1_556 S
C58 C57 1.369 1_565 S
C58 C59 1.410 . S
C58 C66 1.503 . S
C59 C58 1.410 . S
C59 C60 1.392 . S
C59 C62 1.511 . S
C60 C56 1.376 . S
C60 C59 1.392 . S
C60 H72 0.929 . S
C61 C57 1.531 1_554 S
C61 H73 0.960 . S
C61 H74 0.962 1_554 S
C61 H75 0.960 . S
C62 C59 1.511 . S
C62 H76 0.961 . S
C62 H77 0.961 . S
C62 H78 0.961 . S
C63 C64 1.370 1_545 S
C63 C65 1.363 . S
C63 H79 0.931 . S
C64 C63 1.370 1_565 S
C64 C68 1.408 1_556 S
C65 C63 1.363 . S
C65 C66 1.370 1_545 S
C65 C69 1.524 . S
C66 C58 1.503 . S
C66 C65 1.370 1_565 S
C66 C67 1.403 1_556 S
C67 C66 1.403 1_554 S
C67 C68 1.404 . S
C67 C70 1.539 . S
C68 C64 1.408 1_554 S
C68 C67 1.404 . S
C68 H80 0.930 . S
C69 C65 1.524 . S
C69 H81 0.956 . S
C69 H82 0.961 1_545 S
C69 H83 0.961 . S
C70 C67 1.539 . S
C70 H84 0.958 . S
C70 H85 0.961 . S
C70 H86 0.960 . S
H71 C55 0.931 1_554 S
H72 C60 0.929 . S
H73 C61 0.960 . S
H74 C61 0.962 1_556 S
H75 C61 0.960 . S
H76 C62 0.961 . S
H77 C62 0.961 . S
H78 C62 0.961 . S
H79 C63 0.931 . S
H80 C68 0.930 . S
H81 C69 0.956 . S
H82 C69 0.961 1_565 S
H83 C69 0.961 . S
H84 C70 0.958 . S
H85 C70 0.961 . S
H86 C70 0.960 . S
C87 C88 1.391 1_655 S
C87 C89 1.394 . S
C87 H103 0.933 . S
C88 C87 1.391 1_455 S
C88 C92 1.376 . S
C89 C87 1.394 . S
C89 C90 1.369 1_655 S
C89 C93 1.531 1_554 S
C90 C89 1.369 1_455 S
C90 C91 1.410 . S
C90 C98 1.503 . S
C91 C90 1.410 . S
C91 C92 1.392 . S
C91 C94 1.511 . S
C92 C88 1.376 . S
C92 C91 1.392 . S
C92 H104 0.929 . S
C93 C89 1.531 1_556 S
C93 H105 0.960 . S
C93 H106 0.962 1_556 S
C93 H107 0.960 . S
C94 C91 1.511 . S
C94 H108 0.961 . S
C94 H109 0.961 . S
C94 H110 0.961 . S
C95 C96 1.370 1_655 S
C95 C97 1.363 . S
C95 H111 0.931 . S
C96 C95 1.370 1_455 S
C96 C100 1.408 1_554 S
C97 C95 1.363 . S
C97 C98 1.370 1_655 S
C97 C101 1.524 . S
C98 C90 1.503 . S
C98 C97 1.370 1_455 S
C98 C99 1.403 1_554 S
C99 C98 1.403 1_556 S
C99 C100 1.404 . S
C99 C102 1.539 . S
C100 C96 1.408 1_556 S
C100 C99 1.404 . S
C100 H112 0.930 . S
C101 C97 1.524 . S
C101 H113 0.956 . S
C101 H114 0.961 1_655 S
C101 H115 0.961 . S
C102 C99 1.539 . S
C102 H116 0.958 . S
C102 H117 0.961 . S
C102 H118 0.960 . S
H103 C87 0.933 . S
H104 C92 0.929 . S
H105 C93 0.960 . S
H106 C93 0.962 1_554 S
H107 C93 0.960 . S
H108 C94 0.961 . S
H109 C94 0.961 . S
H110 C94 0.961 . S
H111 C95 0.931 . S
H112 C100 0.930 . S
H113 C101 0.956 . S
H114 C101 0.961 1_455 S
H115 C101 0.961 . S
H116 C102 0.958 . S
H117 C102 0.961 . S
H118 C102 0.960 . S
C24 C16 1.497 1_655 S
C32 C17 1.497 1_645 S
C56 C19 1.404 . S
C64 C20 1.440 1_565 S
C88 C18 1.414 1_455 S
C96 C21 1.428 . S
