# Generated by pormake.
# Topology hcp, (12)-cn, num edge types: 1
# Building blocks:
#     Node 0, Type 0, BuildingBlock: ENOWUB_clean_sbu_0, # of connection points: 12
#     Node 1, Type 0, BuildingBlock: ENOWUB_clean_sbu_0, # of connection points: 12
#     Edge 2, Type (0, 0), BuildingBlock: AJUNOK_clean_linker_0, # of connection points: 2
#     Edge 3, Type (0, 0), BuildingBlock: AJUNOK_clean_linker_0, # of connection points: 2
#     Edge 4, Type (0, 0), BuildingBlock: AJUNOK_clean_linker_0, # of connection points: 2
#     Edge 5, Type (0, 0), BuildingBlock: AJUNOK_clean_linker_0, # of connection points: 2
#     Edge 6, Type (0, 0), BuildingBlock: AJUNOK_clean_linker_0, # of connection points: 2
#     Edge 7, Type (0, 0), BuildingBlock: AJUNOK_clean_linker_0, # of connection points: 2
#     Edge 8, Type (0, 0), BuildingBlock: AJUNOK_clean_linker_0, # of connection points: 2
#     Edge 9, Type (0, 0), BuildingBlock: AJUNOK_clean_linker_0, # of connection points: 2
#     Edge 10, Type (0, 0), BuildingBlock: AJUNOK_clean_linker_0, # of connection points: 2
#     Edge 11, Type (0, 0), BuildingBlock: AJUNOK_clean_linker_0, # of connection points: 2
#     Edge 12, Type (0, 0), BuildingBlock: AJUNOK_clean_linker_0, # of connection points: 2
#     Edge 13, Type (0, 0), BuildingBlock: AJUNOK_clean_linker_0, # of connection points: 2
# Relax obj value: 0.186
# Max RMSD: 0.270
# Mean RMSD: 0.270
data_MOF--net-hcp--node1-ENOWUB_clean_sbu_0--edge1-AJUNOK_clean_linker_0
_symmetry_space_group_name_H-M    P1
_symmetry_Int_Tables_number       1
_symmetry_cell_setting            triclinic
loop_
_symmetry_equiv_pos_as_xyz
'x, y, z'
_cell_length_a     14.851836
_cell_length_b     14.8447
_cell_length_c     24.184377
_cell_angle_alpha  90.445942
_cell_angle_beta   89.597754
_cell_angle_gamma 119.70701
loop_
_atom_site_label
_atom_site_type_symbol
_atom_site_fract_x
_atom_site_fract_y
_atom_site_fract_z
_atom_type_partial_charge
O0 O 0.74418 0.24073 0.10234 0.0
O1 O 0.67721 0.18689 0.22231 0.0
O2 O 0.74104 0.46894 0.22547 0.0
O3 O 0.62665 0.3055 0.15418 0.0
O4 O 0.78858 0.35062 0.28626 0.0
Zr5 Zr 0.78891 0.35241 0.18907 0.0
Zr6 Zr 0.67555 0.18552 0.31981 0.0
Zr7 Zr 0.51347 0.14179 0.18825 0.0
O8 O 0.62297 0.29737 0.35822 0.0
O9 O 0.46174 0.25407 0.22418 0.0
O10 O 0.51151 0.13602 0.28512 0.0
Zr11 Zr 0.73465 0.46166 0.32258 0.0
Zr12 Zr 0.57771 0.41959 0.19092 0.0
Zr13 Zr 0.46047 0.2494 0.3212 0.0
O14 O 0.57249 0.41459 0.28789 0.0
O15 O 0.48527 0.38309 0.39311 0.0
O16 O 0.30851 0.0824 0.29198 0.0
O17 O 0.93938 0.52655 0.21287 0.0
O18 O 0.71021 0.61273 0.30258 0.0
O19 O 0.53098 -0.01275 0.209 0.0
O20 O 0.45226 0.19424 0.10306 0.0
O21 O 0.84126 0.43378 0.39263 0.0
O22 O 0.54022 0.0756 0.38978 0.0
O23 O 0.69474 0.4951 0.10606 0.0
O24 O 0.40856 0.40587 0.21562 0.0
O25 O 0.84885 0.20883 0.29451 0.0
O26 O 0.65851 0.49963 0.39965 0.0
O27 O 0.58322 0.09817 0.11306 0.0
O28 O 0.33626 0.03472 0.20604 0.0
O29 O 0.90183 0.58111 0.29417 0.0
O30 O 0.89814 0.28473 0.20916 0.0
O31 O 0.3456 0.30527 0.29337 0.0
O32 O 0.41904 0.12782 0.39486 0.0
O33 O 0.82654 0.45713 0.111 0.0
C34 C 0.66677 0.15174 0.08612 0.0
O35 O 0.78931 0.26063 0.39746 0.0
O36 O 0.62204 0.01506 0.28987 0.0
C37 C 0.56409 0.46547 0.41431 0.0
C38 C 0.28063 0.0213 0.24894 0.0
C39 C -0.03871 0.59244 0.25349 0.0
C40 C 0.67962 0.64448 0.26045 0.0
C41 C 0.57235 0.96016 0.24807 0.0
C42 C 0.43047 0.26724 0.09167 0.0
C43 C 0.84682 0.35543 0.41277 0.0
C44 C 0.45519 0.06905 0.40971 0.0
C45 C 0.77935 0.49803 0.08727 0.0
C46 C 0.34018 0.36018 0.25457 0.0
C47 C 0.9117 0.2439 0.25231 0.0
O48 O 0.44864 0.34259 0.12365 0.0
O49 O 0.64311 0.59471 0.21534 0.0
O50 O 0.3801 0.85699 0.89237 0.0
O51 O 0.29665 0.63968 0.85873 0.0
O52 O 0.24215 0.75568 0.72564 0.0
O53 O 0.40779 0.8015 0.78758 0.0
O54 O 0.12905 0.58809 0.78894 0.0
Zr55 Zr 0.24364 0.75197 0.82298 0.0
Zr56 Zr 0.18272 0.47599 0.82271 0.0
Zr57 Zr 0.45938 0.6873 0.8203 0.0
O58 O 0.17658 0.47333 0.7255 0.0
O59 O 0.45779 0.68615 0.72307 0.0
O60 O 0.34501 0.52378 0.78547 0.0
Zr61 Zr 0.12837 0.59007 0.69189 0.0
Zr62 Zr 0.40698 0.80087 0.69085 0.0
Zr63 Zr 0.33877 0.52237 0.68847 0.0
O64 O 0.2909 0.63854 0.65594 0.0
O65 O 0.22319 0.45517 0.60348 0.0
O66 O 0.51154 0.5398 0.70912 0.0
O67 O 0.06883 0.72849 0.8015 0.0
O68 O 0.17849 0.6986 0.60435 0.0
O69 O 0.43203 0.55193 0.89004 0.0
O70 O 0.61142 0.85686 0.79384 0.0
O71 O -0.02097 0.41476 0.71439 0.0
O72 O 0.224 0.33614 0.80017 0.0
O73 O 0.40176 0.95954 0.71956 0.0
O74 O 0.47454 0.75617 0.60405 0.0
O75 O 0.07524 0.5055 0.89374 0.0
O76 O 0.08243 0.47772 0.61612 0.0
O77 O 0.50149 0.80483 0.89667 0.0
O78 O 0.57513 0.63156 0.79026 0.0
O79 O 0.01813 0.65687 0.71485 0.0
O80 O 0.13374 0.67986 0.90199 0.0
O81 O 0.44655 0.59025 0.61157 0.0
O82 O 0.25024 0.34351 0.7077 0.0
O83 O 0.30157 0.92478 0.79762 0.0
C84 C 0.46476 0.86336 0.91183 0.0
O85 O 0.01651 0.35355 0.79287 0.0
O86 O 0.25882 0.43616 0.8984 0.0
C87 C 0.13365 0.44456 0.58872 0.0
C88 C 0.58079 0.58243 0.74798 0.0
C89 C 0.00578 0.69593 0.75956 0.0
C90 C 0.25507 0.78867 0.58895 0.0
C91 C 0.35382 0.46924 0.91118 0.0
C92 C 0.64005 0.91828 0.75126 0.0
C93 C 0.95742 0.34584 0.75287 0.0
C94 C 0.24599 0.30391 0.75464 0.0
C95 C 0.35849 -0.01505 0.7591 0.0
C96 C 0.48146 0.67618 0.58638 0.0
C97 C 0.07311 0.58516 0.91573 0.0
O98 O 0.58524 0.90529 0.70837 0.0
O99 O 0.33488 0.84568 0.61784 0.0
C100 C 0.60507 0.94179 0.9846 0.0
C101 C 0.53004 0.94815 0.95167 0.0
C102 C 0.66625 0.02022 0.02297 0.0
C103 C 0.65629 0.10915 0.02967 0.0
H104 H 0.6136 0.87349 0.98259 0.0
H105 H 0.71462 0.00656 0.05113 0.0
S106 S 0.47957 0.16796 0.94937 0.0
N107 N 0.45779 0.05559 0.92442 0.0
N108 N 0.56843 0.19987 0.99778 0.0
C109 C 0.58648 0.11896 0.9943 0.0
C110 C 0.52417 0.03928 0.95544 0.0
C111 C 0.43922 0.5987 0.49432 0.0
C112 C 0.5176 0.66771 0.53052 0.0
C113 C 0.45325 0.5321 0.45803 0.0
C114 C 0.54816 0.53325 0.45497 0.0
H115 H 0.36228 0.58699 0.49899 0.0
H116 H 0.38848 0.47814 0.43298 0.0
S117 S 0.78337 0.7065 0.53738 0.0
N118 N 0.69586 0.73705 0.55843 0.0
N119 N 0.72585 0.61627 0.48944 0.0
C120 C 0.63027 0.60741 0.48823 0.0
C121 C 0.61465 0.67409 0.52556 0.0
C122 C 0.93706 0.62757 0.03983 0.0
C123 C 0.83282 0.54801 0.03462 0.0
C124 C 0.01414 0.63832 0.00178 0.0
C125 C -0.00921 0.56987 0.95655 0.0
H126 H -0.03875 0.67524 0.07682 0.0
H127 H 0.09353 0.69819 0.00918 0.0
S128 S 0.72734 0.37251 0.91299 0.0
N129 N 0.70921 0.41517 0.97297 0.0
N130 N 0.85334 0.43689 0.90155 0.0
C131 C 0.8861 0.49823 0.94725 0.0
C132 C 0.80754 0.48756 0.98589 0.0
C133 C 0.35031 0.82727 0.50093 0.0
C134 C 0.26965 0.82846 0.53179 0.0
C135 C 0.40857 0.90347 0.46128 0.0
C136 C 0.39008 -0.01401 0.45094 0.0
H137 H 0.37426 0.77125 0.51077 0.0
H138 H 0.47088 0.89932 0.44005 0.0
S139 S 0.17999 0.01913 0.51682 0.0
N140 N 0.16975 0.91464 0.54644 0.0
N141 N 0.27695 0.05802 0.47237 0.0
C142 C 0.30543 -0.01517 0.4795 0.0
C143 C 0.24599 0.90633 0.51957 0.0
C144 C 0.49156 0.38117 0.01113 0.0
C145 C 0.41133 0.29003 0.03501 0.0
C146 C 0.47338 0.43627 0.97012 0.0
C147 C 0.37262 0.40422 0.95169 0.0
H148 H 0.56825 0.4158 0.02833 0.0
H149 H 0.53846 0.50756 0.9551 0.0
S150 S 0.13392 0.16556 0.99848 0.0
N151 N 0.22765 0.16729 0.0356 0.0
N152 N 0.19044 0.26808 0.95793 0.0
C153 C 0.29123 0.30938 0.97319 0.0
C154 C 0.311 0.25331 0.01505 0.0
C155 C 0.91357 0.2969 0.49285 0.0
C156 C 0.92886 0.37395 0.45405 0.0
C157 C -0.00998 0.31299 0.53213 0.0
C158 C 0.08582 0.40606 0.53389 0.0
H159 H 0.84016 0.22519 0.49452 0.0
H160 H -0.02951 0.25581 0.56432 0.0
S161 S 0.1719 0.62249 0.4346 0.0
N162 N 0.05332 0.5389 0.41444 0.0
N163 N 0.19346 0.57174 0.48987 0.0
C164 C 0.10378 0.48018 0.49301 0.0
C165 C 0.0264 0.46382 0.45298 0.0
C166 C 0.66549 0.87494 0.21239 0.0
C167 C 0.58147 0.86721 0.24314 0.0
C168 C 0.70547 0.80887 0.22275 0.0
C169 C 0.66374 0.73383 0.26475 0.0
H170 H 0.70365 0.93568 0.18191 0.0
H171 H 0.76764 0.81434 0.19668 0.0
S172 S 0.43898 0.67911 0.35432 0.0
N173 N 0.45627 0.77819 0.31613 0.0
N174 N 0.52924 0.65124 0.33459 0.0
C175 C 0.57878 0.72459 0.29521 0.0
C176 C 0.53799 0.79166 0.28451 0.0
C177 C 0.82433 0.58536 0.7874 0.0
C178 C 0.90045 0.67946 0.76432 0.0
C179 C 0.71861 0.54629 0.77668 0.0
C180 C 0.68564 0.59861 0.74117 0.0
H181 H 0.84716 0.53975 0.81221 0.0
H182 H 0.6621 0.47653 0.79766 0.0
S183 S 0.85398 0.85098 0.67301 0.0
N184 N 0.93581 0.82475 0.70542 0.0
N185 N 0.73699 0.75293 0.68616 0.0
C186 C 0.76115 0.69298 0.71806 0.0
C187 C 0.86844 0.73294 0.72935 0.0
C188 C 0.15313 0.85797 0.20158 0.0
C189 C 0.18908 0.91661 0.25113 0.0
C190 C 0.08647 0.75057 0.20218 0.0
C191 C 0.05212 0.69781 0.2523 0.0
H192 H 0.17882 0.8951 0.1617 0.0
H193 H 0.05885 0.70956 0.1633 0.0
S194 S 0.11587 0.81574 0.39331 0.0
N195 N 0.18063 0.91417 0.35123 0.0
N196 N 0.05606 0.7129 0.35306 0.0
C197 C 0.08666 0.75593 0.30214 0.0
C198 C 0.15359 0.86509 0.30138 0.0
C199 C 0.29339 0.18762 0.80571 0.0
C200 C 0.28365 0.22814 0.75546 0.0
C201 C 0.33021 0.11748 0.80697 0.0
C202 C 0.35763 0.08384 0.75802 0.0
H203 H 0.27061 0.20837 0.84429 0.0
H204 H 0.33082 0.08419 0.84655 0.0
S205 S 0.36803 0.18273 0.61694 0.0
N206 N 0.32115 0.24173 0.65582 0.0
N207 N 0.3877 0.10782 0.65932 0.0
C208 C 0.35732 0.13041 0.70819 0.0
C209 C 0.32016 0.2023 0.70658 0.0
C210 C 0.17982 0.31505 0.20382 0.0
C211 C 0.23767 0.35141 0.25242 0.0
C212 C 0.07191 0.2703 0.20528 0.0
C213 C 0.01788 0.26065 0.25534 0.0
H214 H 0.21729 0.31596 0.16503 0.0
H215 H 0.03029 0.24478 0.16652 0.0
S216 S 0.13534 0.33824 0.39421 0.0
N217 N 0.23456 0.37312 0.352 0.0
N218 N 0.03123 0.28733 0.35474 0.0
C219 C 0.07511 0.29564 0.30421 0.0
C220 C 0.18501 0.34276 0.30259 0.0
C221 C 0.844 0.1823 0.70221 0.0
C222 C 0.86511 0.24228 0.75035 0.0
C223 C 0.77815 0.07458 0.70399 0.0
C224 C 0.73125 0.02306 0.75396 0.0
H225 H 0.88191 0.21794 0.6636 0.0
H226 H 0.76183 0.03124 0.66558 0.0
S227 S 0.76654 0.14627 0.89158 0.0
N228 N 0.83653 0.24308 0.84941 0.0
N229 N 0.71327 0.04098 0.85257 0.0
C230 C 0.75316 0.08234 0.80232 0.0
C231 C 0.81885 0.19175 0.8004 0.0
loop_
_geom_bond_atom_site_label_1
_geom_bond_atom_site_label_2
_geom_bond_distance
_geom_bond_site_symmetry_2
_ccdc_geom_bond_type
O0 Zr5 2.207 . S
O0 C34 1.295 . S
O1 Zr5 2.133 . S
O1 Zr6 2.133 . S
O1 Zr7 2.133 . S
O2 Zr5 2.133 . S
O2 Zr11 2.133 . S
O2 Zr12 2.133 . S
O3 Zr5 2.133 . S
O3 Zr7 2.133 . S
O3 Zr12 2.133 . S
O4 Zr5 2.133 . S
O4 Zr6 2.133 . S
O4 Zr11 2.133 . S
Zr5 O0 2.207 . S
Zr5 O1 2.133 . S
Zr5 O2 2.133 . S
Zr5 O3 2.133 . S
Zr5 O4 2.133 . S
Zr5 O17 2.207 . S
Zr5 O30 2.207 . S
Zr5 O33 2.207 . S
Zr6 O1 2.133 . S
Zr6 O4 2.133 . S
Zr6 O8 2.133 . S
Zr6 O10 2.133 . S
Zr6 O22 2.207 . S
Zr6 O25 2.207 . S
Zr6 O35 2.207 . S
Zr6 O36 2.207 . S
Zr7 O1 2.133 . S
Zr7 O3 2.133 . S
Zr7 O9 2.133 . S
Zr7 O10 2.133 . S
Zr7 O19 2.207 . S
Zr7 O20 2.207 . S
Zr7 O27 2.207 . S
Zr7 O28 2.207 . S
O8 Zr6 2.133 . S
O8 Zr11 2.133 . S
O8 Zr13 2.133 . S
O9 Zr7 2.133 . S
O9 Zr12 2.133 . S
O9 Zr13 2.133 . S
O10 Zr6 2.133 . S
O10 Zr7 2.133 . S
O10 Zr13 2.133 . S
Zr11 O2 2.133 . S
Zr11 O4 2.133 . S
Zr11 O8 2.133 . S
Zr11 O14 2.133 . S
Zr11 O18 2.207 . S
Zr11 O21 2.207 . S
Zr11 O26 2.207 . S
Zr11 O29 2.207 . S
Zr12 O2 2.133 . S
Zr12 O3 2.133 . S
Zr12 O9 2.133 . S
Zr12 O14 2.133 . S
Zr12 O23 2.207 . S
Zr12 O24 2.207 . S
Zr12 O48 2.207 . S
Zr12 O49 2.207 . S
Zr13 O8 2.133 . S
Zr13 O9 2.133 . S
Zr13 O10 2.133 . S
Zr13 O14 2.133 . S
Zr13 O15 2.207 . S
Zr13 O16 2.207 . S
Zr13 O31 2.207 . S
Zr13 O32 2.207 . S
O14 Zr11 2.133 . S
O14 Zr12 2.133 . S
O14 Zr13 2.133 . S
O15 Zr13 2.207 . S
O15 C37 1.295 . S
O16 Zr13 2.207 . S
O16 C38 1.295 . S
O17 Zr5 2.207 . S
O17 C39 1.295 . S
O18 Zr11 2.207 . S
O18 C40 1.295 . S
O19 Zr7 2.207 . S
O19 C41 1.297 . S
O20 Zr7 2.207 . S
O20 C42 1.295 . S
O21 Zr11 2.207 . S
O21 C43 1.295 . S
O22 Zr6 2.207 . S
O22 C44 1.295 . S
O23 Zr12 2.207 . S
O23 C45 1.295 . S
O24 Zr12 2.207 . S
O24 C46 1.295 . S
O25 Zr6 2.207 . S
O25 C47 1.295 . S
O26 Zr11 2.207 . S
O26 C37 1.295 . S
O27 Zr7 2.207 . S
O27 C34 1.295 . S
O28 Zr7 2.207 . S
O28 C38 1.295 . S
O29 Zr11 2.207 . S
O29 C39 1.298 . S
O30 Zr5 2.207 . S
O30 C47 1.295 . S
O31 Zr13 2.207 . S
O31 C46 1.295 . S
O32 Zr13 2.207 . S
O32 C44 1.295 . S
O33 Zr5 2.207 . S
O33 C45 1.295 . S
C34 O0 1.295 . S
C34 O27 1.295 . S
O35 Zr6 2.207 . S
O35 C43 1.295 . S
O36 Zr6 2.207 . S
O36 C41 1.297 . S
C37 O15 1.295 . S
C37 O26 1.295 . S
C38 O16 1.295 . S
C38 O28 1.295 . S
C39 O17 1.295 . S
C39 O29 1.298 . S
C40 O18 1.295 . S
C40 O49 1.295 . S
C41 O19 1.297 . S
C41 O36 1.297 . S
C42 O20 1.295 . S
C42 O48 1.295 . S
C43 O21 1.295 . S
C43 O35 1.295 . S
C44 O22 1.295 . S
C44 O32 1.295 . S
C45 O23 1.295 . S
C45 O33 1.295 . S
C46 O24 1.295 . S
C46 O31 1.295 . S
C47 O25 1.295 . S
C47 O30 1.295 . S
O48 Zr12 2.207 . S
O48 C42 1.295 . S
O49 Zr12 2.207 . S
O49 C40 1.295 . S
O50 Zr55 2.207 . S
O50 C84 1.295 . S
O51 Zr55 2.133 . S
O51 Zr56 2.133 . S
O51 Zr57 2.133 . S
O52 Zr55 2.133 . S
O52 Zr61 2.133 . S
O52 Zr62 2.133 . S
O53 Zr55 2.133 . S
O53 Zr57 2.133 . S
O53 Zr62 2.133 . S
O54 Zr55 2.133 . S
O54 Zr56 2.133 . S
O54 Zr61 2.133 . S
Zr55 O50 2.207 . S
Zr55 O51 2.133 . S
Zr55 O52 2.133 . S
Zr55 O53 2.133 . S
Zr55 O54 2.133 . S
Zr55 O67 2.207 . S
Zr55 O80 2.207 . S
Zr55 O83 2.207 . S
Zr56 O51 2.133 . S
Zr56 O54 2.133 . S
Zr56 O58 2.133 . S
Zr56 O60 2.133 . S
Zr56 O72 2.207 . S
Zr56 O75 2.207 . S
Zr56 O85 2.207 . S
Zr56 O86 2.207 . S
Zr57 O51 2.133 . S
Zr57 O53 2.133 . S
Zr57 O59 2.133 . S
Zr57 O60 2.133 . S
Zr57 O69 2.207 . S
Zr57 O70 2.207 . S
Zr57 O77 2.207 . S
Zr57 O78 2.207 . S
O58 Zr56 2.133 . S
O58 Zr61 2.133 . S
O58 Zr63 2.133 . S
O59 Zr57 2.133 . S
O59 Zr62 2.133 . S
O59 Zr63 2.133 . S
O60 Zr56 2.133 . S
O60 Zr57 2.133 . S
O60 Zr63 2.133 . S
Zr61 O52 2.133 . S
Zr61 O54 2.133 . S
Zr61 O58 2.133 . S
Zr61 O64 2.133 . S
Zr61 O68 2.207 . S
Zr61 O71 2.207 . S
Zr61 O76 2.207 . S
Zr61 O79 2.207 . S
Zr62 O52 2.133 . S
Zr62 O53 2.133 . S
Zr62 O59 2.133 . S
Zr62 O64 2.133 . S
Zr62 O73 2.207 . S
Zr62 O74 2.207 . S
Zr62 O98 2.207 . S
Zr62 O99 2.207 . S
Zr63 O58 2.133 . S
Zr63 O59 2.133 . S
Zr63 O60 2.133 . S
Zr63 O64 2.133 . S
Zr63 O65 2.207 . S
Zr63 O66 2.207 . S
Zr63 O81 2.207 . S
Zr63 O82 2.207 . S
O64 Zr61 2.133 . S
O64 Zr62 2.133 . S
O64 Zr63 2.133 . S
O65 Zr63 2.207 . S
O65 C87 1.295 . S
O66 Zr63 2.207 . S
O66 C88 1.295 . S
O67 Zr55 2.207 . S
O67 C89 1.295 . S
O68 Zr61 2.207 . S
O68 C90 1.295 . S
O69 Zr57 2.207 . S
O69 C91 1.295 . S
O70 Zr57 2.207 . S
O70 C92 1.295 . S
O71 Zr61 2.207 . S
O71 C93 1.295 . S
O72 Zr56 2.207 . S
O72 C94 1.295 . S
O73 Zr62 2.207 . S
O73 C95 1.297 . S
O74 Zr62 2.207 . S
O74 C96 1.295 . S
O75 Zr56 2.207 . S
O75 C97 1.295 . S
O76 Zr61 2.207 . S
O76 C87 1.295 . S
O77 Zr57 2.207 . S
O77 C84 1.295 . S
O78 Zr57 2.207 . S
O78 C88 1.295 . S
O79 Zr61 2.207 . S
O79 C89 1.295 . S
O80 Zr55 2.207 . S
O80 C97 1.295 . S
O81 Zr63 2.207 . S
O81 C96 1.295 . S
O82 Zr63 2.207 . S
O82 C94 1.295 . S
O83 Zr55 2.207 . S
O83 C95 1.297 . S
C84 O50 1.295 . S
C84 O77 1.295 . S
O85 Zr56 2.207 . S
O85 C93 1.298 . S
O86 Zr56 2.207 . S
O86 C91 1.295 . S
C87 O65 1.295 . S
C87 O76 1.295 . S
C88 O66 1.295 . S
C88 O78 1.295 . S
C89 O67 1.295 . S
C89 O79 1.295 . S
C90 O68 1.295 . S
C90 O99 1.295 . S
C91 O69 1.295 . S
C91 O86 1.295 . S
C92 O70 1.295 . S
C92 O98 1.295 . S
C93 O71 1.295 . S
C93 O85 1.298 . S
C94 O72 1.295 . S
C94 O82 1.295 . S
C95 O73 1.297 . S
C95 O83 1.297 . S
C96 O74 1.295 . S
C96 O81 1.295 . S
C97 O75 1.295 . S
C97 O80 1.295 . S
O98 Zr62 2.207 . S
O98 C92 1.295 . S
O99 Zr62 2.207 . S
O99 C90 1.295 . S
C100 C101 1.369 . S
C100 C102 1.419 1_566 S
C100 H104 0.930 . S
C101 C100 1.369 . S
C101 C110 1.429 1_565 S
C102 C100 1.419 1_544 S
C102 C103 1.363 . S
C102 H105 0.929 . S
C103 C102 1.363 . S
C103 C109 1.428 . S
H104 C100 0.930 . S
H105 C102 0.929 . S
S106 N107 1.613 1_554 S
S106 N108 1.610 . S
N107 S106 1.613 1_556 S
N107 C110 1.350 . S
N108 S106 1.610 . S
N108 C109 1.351 . S
C109 C103 1.428 . S
C109 N108 1.351 . S
C109 C110 1.434 1_554 S
C110 C101 1.429 1_545 S
C110 N107 1.350 . S
C110 C109 1.434 1_556 S
C111 C112 1.369 . S
C111 C113 1.419 . S
C111 H115 0.930 . S
C112 C111 1.369 . S
C112 C121 1.429 . S
C113 C111 1.419 . S
C113 C114 1.363 . S
C113 H116 0.929 . S
C114 C113 1.363 . S
C114 C120 1.428 . S
H115 C111 0.930 . S
H116 C113 0.929 . S
S117 N118 1.613 . S
S117 N119 1.610 . S
N118 S117 1.613 . S
N118 C121 1.350 . S
N119 S117 1.610 . S
N119 C120 1.351 . S
C120 C114 1.428 . S
C120 N119 1.351 . S
C120 C121 1.434 . S
C121 C112 1.429 . S
C121 N118 1.350 . S
C121 C120 1.434 . S
C122 C123 1.369 . S
C122 C124 1.419 1_655 S
C122 H126 0.930 1_655 S
C123 C122 1.369 . S
C123 C132 1.429 1_554 S
C124 C122 1.419 1_455 S
C124 C125 1.363 1_554 S
C124 H127 0.929 . S
C125 C124 1.363 1_556 S
C125 C131 1.428 1_455 S
H126 C122 0.930 1_455 S
H127 C124 0.929 . S
S128 N129 1.613 . S
S128 N130 1.610 . S
N129 S128 1.613 . S
N129 C132 1.350 . S
N130 S128 1.610 . S
N130 C131 1.351 . S
C131 C125 1.428 1_655 S
C131 N130 1.351 . S
C131 C132 1.434 . S
C132 C123 1.429 1_556 S
C132 N129 1.350 . S
C132 C131 1.434 . S
C133 C134 1.369 . S
C133 C135 1.419 . S
C133 H137 0.930 . S
C134 C133 1.369 . S
C134 C143 1.429 . S
C135 C133 1.419 . S
C135 C136 1.363 1_565 S
C135 H138 0.929 . S
C136 C135 1.363 1_545 S
C136 C142 1.428 . S
H137 C133 0.930 . S
H138 C135 0.929 . S
S139 N140 1.613 . S
S139 N141 1.610 . S
N140 S139 1.613 . S
N140 C143 1.350 1_545 S
N141 S139 1.610 . S
N141 C142 1.351 . S
C142 C136 1.428 . S
C142 N141 1.351 . S
C142 C143 1.434 1_545 S
C143 C134 1.429 . S
C143 N140 1.350 1_565 S
C143 C142 1.434 1_565 S
C144 C145 1.369 . S
C144 C146 1.419 . S
C144 H148 0.930 . S
C145 C144 1.369 . S
C145 C154 1.429 1_554 S
C146 C144 1.419 . S
C146 C147 1.363 1_554 S
C146 H149 0.929 . S
C147 C146 1.363 1_556 S
C147 C153 1.428 . S
H148 C144 0.930 . S
H149 C146 0.929 . S
S150 N151 1.613 . S
S150 N152 1.610 . S
N151 S150 1.613 . S
N151 C154 1.350 . S
N152 S150 1.610 . S
N152 C153 1.351 . S
C153 C147 1.428 . S
C153 N152 1.351 . S
C153 C154 1.434 . S
C154 C145 1.429 1_556 S
C154 N151 1.350 . S
C154 C153 1.434 . S
C155 C156 1.369 . S
C155 C157 1.419 1_655 S
C155 H159 0.930 . S
C156 C155 1.369 . S
C156 C165 1.429 1_655 S
C157 C155 1.419 1_455 S
C157 C158 1.363 . S
C157 H160 0.929 1_455 S
C158 C157 1.363 . S
C158 C164 1.428 . S
H159 C155 0.930 . S
H160 C157 0.929 1_655 S
S161 N162 1.613 . S
S161 N163 1.610 . S
N162 S161 1.613 . S
N162 C165 1.350 . S
N163 S161 1.610 . S
N163 C164 1.351 . S
C164 C158 1.428 . S
C164 N163 1.351 . S
C164 C165 1.434 . S
C165 C156 1.429 1_455 S
C165 N162 1.350 . S
C165 C164 1.434 . S
C166 C167 1.369 . S
C166 C168 1.419 . S
C166 H170 0.930 1_565 S
C167 C166 1.369 . S
C167 C176 1.429 . S
C168 C166 1.419 . S
C168 C169 1.363 . S
C168 H171 0.929 . S
C169 C168 1.363 . S
C169 C175 1.428 . S
H170 C166 0.930 1_545 S
H171 C168 0.929 . S
S172 N173 1.613 . S
S172 N174 1.610 . S
N173 S172 1.613 . S
N173 C176 1.350 . S
N174 S172 1.610 . S
N174 C175 1.351 . S
C175 C169 1.428 . S
C175 N174 1.351 . S
C175 C176 1.434 . S
C176 C167 1.429 . S
C176 N173 1.350 . S
C176 C175 1.434 . S
C177 C178 1.369 . S
C177 C179 1.419 . S
C177 H181 0.930 . S
C178 C177 1.369 . S
C178 C187 1.429 . S
C179 C177 1.419 . S
C179 C180 1.363 . S
C179 H182 0.929 . S
C180 C179 1.363 . S
C180 C186 1.428 . S
H181 C177 0.930 . S
H182 C179 0.929 . S
S183 N184 1.613 . S
S183 N185 1.610 . S
N184 S183 1.613 . S
N184 C187 1.350 . S
N185 S183 1.610 . S
N185 C186 1.351 . S
C186 C180 1.428 . S
C186 N185 1.351 . S
C186 C187 1.434 . S
C187 C178 1.429 . S
C187 N184 1.350 . S
C187 C186 1.434 . S
C188 C189 1.369 . S
C188 C190 1.419 . S
C188 H192 0.930 . S
C189 C188 1.369 . S
C189 C198 1.429 . S
C190 C188 1.419 . S
C190 C191 1.363 . S
C190 H193 0.929 . S
C191 C190 1.363 . S
C191 C197 1.428 . S
H192 C188 0.930 . S
H193 C190 0.929 . S
S194 N195 1.613 . S
S194 N196 1.610 . S
N195 S194 1.613 . S
N195 C198 1.350 . S
N196 S194 1.610 . S
N196 C197 1.351 . S
C197 C191 1.428 . S
C197 N196 1.351 . S
C197 C198 1.434 . S
C198 C189 1.429 . S
C198 N195 1.350 . S
C198 C197 1.434 . S
C199 C200 1.369 . S
C199 C201 1.419 . S
C199 H203 0.930 . S
C200 C199 1.369 . S
C200 C209 1.429 . S
C201 C199 1.419 . S
C201 C202 1.363 . S
C201 H204 0.929 1_545 S
C202 C201 1.363 . S
C202 C208 1.428 . S
H203 C199 0.930 . S
H204 C201 0.929 1_565 S
S205 N206 1.613 . S
S205 N207 1.610 . S
N206 S205 1.613 . S
N206 C209 1.350 . S
N207 S205 1.610 . S
N207 C208 1.351 . S
C208 C202 1.428 . S
C208 N207 1.351 . S
C208 C209 1.434 . S
C209 C200 1.429 . S
C209 N206 1.350 . S
C209 C208 1.434 . S
C210 C211 1.369 . S
C210 C212 1.419 . S
C210 H214 0.930 . S
C211 C210 1.369 . S
C211 C220 1.429 . S
C212 C210 1.419 . S
C212 C213 1.363 . S
C212 H215 0.929 . S
C213 C212 1.363 . S
C213 C219 1.428 . S
H214 C210 0.930 . S
H215 C212 0.929 . S
S216 N217 1.613 . S
S216 N218 1.610 . S
N217 S216 1.613 . S
N217 C220 1.350 . S
N218 S216 1.610 . S
N218 C219 1.351 . S
C219 C213 1.428 . S
C219 N218 1.351 . S
C219 C220 1.434 . S
C220 C211 1.429 . S
C220 N217 1.350 . S
C220 C219 1.434 . S
C221 C222 1.369 . S
C221 C223 1.419 . S
C221 H225 0.930 . S
C222 C221 1.369 . S
C222 C231 1.429 . S
C223 C221 1.419 . S
C223 C224 1.363 . S
C223 H226 0.929 . S
C224 C223 1.363 . S
C224 C230 1.428 . S
H225 C221 0.930 . S
H226 C223 0.929 . S
S227 N228 1.613 . S
S227 N229 1.610 . S
N228 S227 1.613 . S
N228 C231 1.350 . S
N229 S227 1.610 . S
N229 C230 1.351 . S
C230 C224 1.428 . S
C230 N229 1.351 . S
C230 C231 1.434 . S
C231 C222 1.429 . S
C231 N228 1.350 . S
C231 C230 1.434 . S
C101 C84 1.960 . S
C103 C34 1.782 . S
C112 C96 1.787 . S
C114 C37 1.958 . S
C123 C45 1.784 . S
C125 C97 1.959 . S
C134 C90 1.786 . S
C136 C44 1.958 . S
C145 C42 1.791 . S
C147 C91 1.957 . S
C156 C43 1.958 . S
C158 C87 1.786 . S
C167 C41 1.250 1_565 S
C169 C40 1.247 . S
C178 C89 1.252 1_655 S
C180 C88 1.249 . S
C189 C38 1.251 1_565 S
C191 C39 1.248 1_455 S
C200 C94 1.247 . S
C202 C95 1.249 1_545 S
C211 C46 1.246 . S
C213 C47 1.253 1_455 S
C222 C93 1.250 1_655 S
C224 C92 1.248 1_545 S
