# Generated by pormake.
# Topology pcu, (6)-cn, num edge types: 1
# Building blocks:
#     Node 0, Type 0, BuildingBlock: HISSIN_clean_sbu_0, # of connection points: 6
#     Edge 1, Type (0, 0), BuildingBlock: XUDNAN_clean_linker_2, # of connection points: 2
#     Edge 2, Type (0, 0), BuildingBlock: XUDNAN_clean_linker_2, # of connection points: 2
#     Edge 3, Type (0, 0), BuildingBlock: XUDNAN_clean_linker_2, # of connection points: 2
# Relax obj value: 0.000
# Max RMSD: 0.000
# Mean RMSD: 0.000
data_MOF--net-pcu--node1-HISSIN_clean_sbu_0--edge1-XUDNAN_clean_linker_2
_symmetry_space_group_name_H-M    P1
_symmetry_Int_Tables_number       1
_symmetry_cell_setting            triclinic
loop_
_symmetry_equiv_pos_as_xyz
'x, y, z'
_cell_length_a     15.098664
_cell_length_b     25.426962
_cell_length_c     15.289141
_cell_angle_alpha  122.86831
_cell_angle_beta   90.606515
_cell_angle_gamma 97.154581
loop_
_atom_site_label
_atom_site_type_symbol
_atom_site_fract_x
_atom_site_fract_y
_atom_site_fract_z
_atom_type_partial_charge
Eu0 Eu 0.97265 0.94172 0.91263 0.0
Eu1 Eu 0.9877 0.0981 0.04212 0.0
C2 C 0.16013 0.02989 0.98209 0.0
C3 C 0.9772 0.77769 0.85886 0.0
C4 C 0.04616 0.79771 0.93766 0.0
C5 C 0.93651 0.68085 0.85501 0.0
C6 C 0.06007 0.75964 0.97501 0.0
C7 C 0.92289 0.71891 0.81745 0.0
C8 C 0.00486 0.70095 0.93491 0.0
C9 C 0.95798 0.81915 0.82373 0.0
O10 O 0.9691 0.06425 0.87109 0.0
O11 O 0.00838 0.96437 0.79375 0.0
C12 C 0.99277 1.01287 0.79001 0.0
O13 O 0.8443 0.96608 0.87773 0.0
O14 O 0.06047 0.19492 0.14172 0.0
O15 O 0.91928 0.17897 0.09168 0.0
O16 O 0.84807 0.05424 0.04092 0.0
C17 C 0.80285 1.00819 0.95322 0.0
O18 O 0.9484 0.97556 0.07794 0.0
O19 O 0.0211 0.07832 0.16515 0.0
O20 O 0.12048 0.07191 0.97879 0.0
O21 O 0.89251 0.85126 0.86575 0.0
O22 O 0.02685 0.8534 0.81804 0.0
O23 O 0.11425 0.98452 0.98734 0.0
C24 C 0.0079 0.27136 0.11762 0.0
C25 C 0.95201 0.27145 0.04348 0.0
C26 C 0.08706 0.37448 0.16722 0.0
C27 C 0.96245 0.32314 0.0329 0.0
C28 C 0.07622 0.32298 0.17824 0.0
C29 C 0.02914 0.37586 0.09593 0.0
C30 C 0.99184 0.22055 0.13824 0.0
C31 C 0.98888 1.02713 0.16295 0.0
H32 H 0.08869 0.84311 0.97116 0.0
H33 H 0.89184 0.63649 0.82336 0.0
H34 H 0.11412 0.77631 0.03547 0.0
H35 H 0.86876 0.70294 0.75732 0.0
H36 H 0.89856 0.2324 -0.00457 0.0
H37 H 0.14029 0.41361 0.21561 0.0
H38 H 0.91599 0.32266 0.97795 0.0
H39 H 0.1202 0.32411 0.23589 0.0
H40 H 0.95917 0.1085 0.37003 0.0
H41 H 0.05882 0.93317 0.15502 0.0
H42 H 0.07977 0.91524 0.29613 0.0
H43 H 0.10321 0.15437 0.60744 0.0
H44 H 0.01485 0.18354 0.69222 0.0
H45 H 0.01752 0.18738 0.57794 0.0
H46 H 0.85605 0.1252 0.51426 0.0
H47 H 0.8532 0.12078 0.62783 0.0
H48 H 0.8316 0.04922 0.49888 0.0
H49 H 0.08002 0.91112 0.45181 0.0
H50 H 0.05948 0.9202 0.61794 0.0
H51 H 0.95493 0.09683 0.73742 0.0
C52 C 0.98736 0.06733 0.3541 0.0
C53 C 0.00821 1.02233 0.25244 0.0
C54 C 0.04271 0.96803 0.23276 0.0
C55 C 0.05512 0.95758 0.31234 0.0
C56 C 0.0321 1.00175 0.41118 0.0
C57 C 0.999 0.05559 0.433 0.0
C58 C 0.97315 0.09238 0.54454 0.0
C59 C 0.03064 0.15833 0.60936 0.0
C60 C 0.87253 0.09715 0.54643 0.0
C61 C 0.99567 0.0501 0.58064 0.0
C62 C 0.03033 0.99854 0.5023 0.0
C63 C 0.05357 0.95148 0.51429 0.0
C64 C 0.0411 0.95702 0.60911 0.0
C65 C 0.00524 1.00915 0.69103 0.0
C66 C 0.98272 0.05653 0.67655 0.0
H67 H 0.29954 0.03954 0.10802 0.0
H68 H 0.23131 1.01288 0.80908 0.0
H69 H 0.38838 1.00105 0.7664 0.0
H70 H 0.51657 0.13561 0.15726 0.0
H71 H 0.56943 0.104 0.22153 0.0
H72 H 0.45112 0.10783 0.22638 0.0
H73 H 0.41792 0.98732 0.14945 0.0
H74 H 0.5361 0.98305 0.14372 0.0
H75 H 0.45992 0.93268 0.02724 0.0
H76 H 0.54963 0.98523 0.75217 0.0
H77 H 0.71069 0.982 0.77717 0.0
H78 H 0.67828 0.03095 0.0931 0.0
C79 C 0.31829 0.03139 0.03391 0.0
C80 C 0.25441 1.02676 0.96126 0.0
C81 C 0.28026 1.01669 0.86538 0.0
C82 C 0.36885 1.00962 0.84044 0.0
C83 C 0.43067 1.01413 0.91341 0.0
C84 C 0.40712 1.02611 0.00911 0.0
C85 C 0.48767 0.03209 0.07557 0.0
C86 C 0.50735 0.09886 0.17612 0.0
C87 C 0.47459 0.98071 0.10042 0.0
C88 C 0.55985 1.02089 0.00185 0.0
C89 C 0.52516 1.00947 0.90802 0.0
C90 C 0.57788 0.99488 0.82572 0.0
C91 C 0.66889 0.99281 0.84031 0.0
C92 C 0.70623 1.00669 0.93711 0.0
C93 C 0.6511 1.02089 0.01878 0.0
H94 H 0.98953 0.57067 0.82895 0.0
H95 H 0.0456 0.74252 0.14008 0.0
H96 H 0.06351 0.67835 0.21329 0.0
H97 H 0.8578 0.47802 0.90732 0.0
H98 H 0.89853 0.40549 0.81487 0.0
H99 H 0.89385 0.465 0.78592 0.0
H100 H 0.06304 0.46792 0.7586 0.0
H101 H 0.06822 0.40844 0.78756 0.0
H102 H 0.14267 0.48298 0.8613 0.0
H103 H 0.07051 0.59573 0.25396 0.0
H104 H 0.06512 0.50041 0.25957 0.0
H105 H 0.00479 0.38177 0.92209 0.0
C106 C 0.00525 0.59491 0.91255 0.0
C107 C 0.01678 0.66188 0.97848 0.0
C108 C 0.03815 0.69149 0.08743 0.0
C109 C 0.04789 0.6554 0.12998 0.0
C110 C 0.03591 0.58964 0.06281 0.0
C111 C 0.01497 0.55961 0.95646 0.0
C112 C 0.00374 0.48816 0.90191 0.0
C113 C 0.90778 0.45737 0.84943 0.0
C114 C 0.07361 0.46025 0.82267 0.0
C115 C 0.02144 0.48278 -0.00567 0.0
C116 C 0.03997 0.5419 0.08631 0.0
C117 C 0.05683 0.54917 0.1823 0.0
C118 C 0.0543 0.49459 0.18449 0.0
C119 C 0.03527 0.43327 0.09124 0.0
C120 C 0.01901 0.42772 -0.00504 0.0
loop_
_geom_bond_atom_site_label_1
_geom_bond_atom_site_label_2
_geom_bond_distance
_geom_bond_site_symmetry_2
_ccdc_geom_bond_type
Eu0 C9 2.828 . S
Eu0 O11 2.392 . S
Eu0 O13 2.418 . S
Eu0 O18 2.373 1_556 S
Eu0 O21 2.488 . S
Eu0 O22 2.471 1_655 S
Eu0 O23 2.349 1_655 S
Eu1 O10 2.373 1_554 S
Eu1 O14 2.488 . S
Eu1 O15 2.471 1_455 S
Eu1 O16 2.349 1_455 S
Eu1 O19 2.392 . S
Eu1 O20 2.418 . S
Eu1 C30 2.828 . S
C2 O20 1.244 . S
C2 O23 1.265 1_544 S
C3 C4 1.379 1_656 S
C3 C7 1.373 . S
C3 C9 1.505 . S
C4 C3 1.379 1_454 S
C4 C6 1.369 . S
C4 H32 0.930 . S
C5 C7 1.383 . S
C5 C8 1.382 . S
C5 H33 0.930 . S
C6 C4 1.369 . S
C6 C8 1.392 1_454 S
C6 H34 0.930 . S
C7 C3 1.373 . S
C7 C5 1.383 . S
C7 H35 0.931 . S
C8 C5 1.382 . S
C8 C6 1.392 1_656 S
C9 Eu0 2.828 . S
C9 C3 1.505 . S
C9 O21 1.249 . S
C9 O22 1.244 1_655 S
O10 Eu1 2.373 1_556 S
O10 C12 1.258 1_545 S
O11 Eu0 2.392 . S
O11 C12 1.242 1_655 S
C12 O10 1.258 1_565 S
C12 O11 1.242 1_455 S
O13 Eu0 2.418 . S
O13 C17 1.244 . S
O14 Eu1 2.488 . S
O14 C30 1.249 . S
O15 Eu1 2.471 1_655 S
O15 C30 1.244 1_655 S
O16 Eu1 2.349 1_655 S
O16 C17 1.265 1_544 S
C17 O13 1.244 . S
C17 O16 1.265 1_566 S
O18 Eu0 2.373 1_554 S
O18 C31 1.258 1_665 S
O19 Eu1 2.392 . S
O19 C31 1.242 . S
O20 Eu1 2.418 . S
O20 C2 1.244 . S
O21 Eu0 2.488 . S
O21 C9 1.249 . S
O22 Eu0 2.471 1_455 S
O22 C9 1.244 1_455 S
O23 Eu0 2.349 1_455 S
O23 C2 1.265 1_566 S
C24 C25 1.379 1_454 S
C24 C28 1.373 . S
C24 C30 1.505 . S
C25 C24 1.379 1_656 S
C25 C27 1.369 . S
C25 H36 0.930 . S
C26 C28 1.383 . S
C26 C29 1.382 . S
C26 H37 0.930 . S
C27 C25 1.369 . S
C27 C29 1.392 1_656 S
C27 H38 0.930 . S
C28 C24 1.373 . S
C28 C26 1.383 . S
C28 H39 0.931 . S
C29 C26 1.382 . S
C29 C27 1.392 1_454 S
C30 Eu1 2.828 . S
C30 O14 1.249 . S
C30 O15 1.244 1_455 S
C30 C24 1.505 . S
C31 O18 1.258 1_445 S
C31 O19 1.242 . S
H32 C4 0.930 . S
H33 C5 0.930 . S
H34 C6 0.930 . S
H35 C7 0.931 . S
H36 C25 0.930 . S
H37 C26 0.930 . S
H38 C27 0.930 . S
H39 C28 0.931 . S
H40 C52 0.930 . S
H41 C54 0.930 . S
H42 C55 0.930 . S
H43 C59 0.959 . S
H44 C59 0.959 1_655 S
H45 C59 0.961 . S
H46 C60 0.960 . S
H47 C60 0.961 . S
H48 C60 0.959 . S
H49 C63 0.929 . S
H50 C64 0.931 . S
H51 C66 0.930 . S
C52 H40 0.930 . S
C52 C53 1.399 1_545 S
C52 C57 1.399 . S
C53 C52 1.399 1_565 S
C53 C54 1.376 1_655 S
C54 H41 0.930 . S
C54 C53 1.376 1_455 S
C54 C55 1.388 . S
C55 H42 0.930 . S
C55 C54 1.388 . S
C55 C56 1.390 . S
C56 C55 1.390 . S
C56 C57 1.394 1_465 S
C56 C62 1.465 . S
C57 C52 1.399 . S
C57 C56 1.394 1_645 S
C57 C58 1.516 . S
C58 C57 1.516 . S
C58 C59 1.502 1_655 S
C58 C60 1.561 . S
C58 C61 1.526 . S
C59 H43 0.959 . S
C59 H44 0.959 1_455 S
C59 H45 0.961 . S
C59 C58 1.502 1_455 S
C60 H46 0.960 . S
C60 H47 0.961 . S
C60 H48 0.959 . S
C60 C58 1.561 . S
C61 C58 1.526 . S
C61 C62 1.396 1_645 S
C61 C66 1.390 . S
C62 C56 1.465 . S
C62 C61 1.396 1_465 S
C62 C63 1.399 . S
C63 H49 0.929 . S
C63 C62 1.399 . S
C63 C64 1.385 . S
C64 H50 0.931 . S
C64 C63 1.385 . S
C64 C65 1.389 . S
C65 C64 1.389 . S
C65 C66 1.387 1_465 S
C66 H51 0.930 . S
C66 C61 1.390 . S
C66 C65 1.387 1_645 S
H67 C79 0.930 . S
H68 C81 0.930 . S
H69 C82 0.930 . S
H70 C86 0.959 . S
H71 C86 0.959 . S
H72 C86 0.961 . S
H73 C87 0.960 . S
H74 C87 0.961 . S
H75 C87 0.959 . S
H76 C90 0.929 . S
H77 C91 0.931 . S
H78 C93 0.930 . S
C79 H67 0.930 . S
C79 C80 1.399 1_544 S
C79 C84 1.399 . S
C80 C79 1.399 1_566 S
C80 C81 1.376 . S
C81 H68 0.930 . S
C81 C80 1.376 . S
C81 C82 1.388 . S
C82 H69 0.930 . S
C82 C81 1.388 . S
C82 C83 1.390 . S
C83 C82 1.390 . S
C83 C84 1.394 1_566 S
C83 C89 1.465 . S
C84 C79 1.399 . S
C84 C83 1.394 1_544 S
C84 C85 1.516 . S
C85 C84 1.516 . S
C85 C86 1.502 . S
C85 C87 1.561 1_545 S
C85 C88 1.526 . S
C86 H70 0.959 . S
C86 H71 0.959 . S
C86 H72 0.961 . S
C86 C85 1.502 . S
C87 H73 0.960 . S
C87 H74 0.961 . S
C87 H75 0.959 . S
C87 C85 1.561 1_565 S
C88 C85 1.526 . S
C88 C89 1.396 1_544 S
C88 C93 1.390 . S
C89 C83 1.465 . S
C89 C88 1.396 1_566 S
C89 C90 1.399 . S
C90 H76 0.929 . S
C90 C89 1.399 . S
C90 C91 1.385 . S
C91 H77 0.931 . S
C91 C90 1.385 . S
C91 C92 1.389 . S
C92 C91 1.389 . S
C92 C93 1.387 1_566 S
C93 H78 0.930 . S
C93 C88 1.390 . S
C93 C92 1.387 1_544 S
H94 C106 0.930 . S
H95 C108 0.930 . S
H96 C109 0.930 . S
H97 C113 0.959 . S
H98 C113 0.959 . S
H99 C113 0.961 . S
H100 C114 0.960 . S
H101 C114 0.961 . S
H102 C114 0.959 . S
H103 C117 0.929 . S
H104 C118 0.931 . S
H105 C120 0.930 . S
C106 H94 0.930 . S
C106 C107 1.399 1_656 S
C106 C111 1.399 . S
C107 C106 1.399 1_454 S
C107 C108 1.376 . S
C108 H95 0.930 . S
C108 C107 1.376 . S
C108 C109 1.388 . S
C109 H96 0.930 . S
C109 C108 1.388 . S
C109 C110 1.390 . S
C110 C109 1.390 . S
C110 C111 1.394 1_454 S
C110 C116 1.465 . S
C111 C106 1.399 . S
C111 C110 1.394 1_656 S
C111 C112 1.516 . S
C112 C111 1.516 . S
C112 C113 1.502 . S
C112 C114 1.561 1_655 S
C112 C115 1.526 . S
C113 H97 0.959 . S
C113 H98 0.959 . S
C113 H99 0.961 . S
C113 C112 1.502 . S
C114 H100 0.960 . S
C114 H101 0.961 . S
C114 H102 0.959 . S
C114 C112 1.561 1_455 S
C115 C112 1.526 . S
C115 C116 1.396 1_656 S
C115 C120 1.390 . S
C116 C110 1.465 . S
C116 C115 1.396 1_454 S
C116 C117 1.399 . S
C117 H103 0.929 . S
C117 C116 1.399 . S
C117 C118 1.385 . S
C118 H104 0.931 . S
C118 C117 1.385 . S
C118 C119 1.389 . S
C119 C118 1.389 . S
C119 C120 1.387 1_454 S
C120 H105 0.930 . S
C120 C115 1.390 . S
C120 C119 1.387 1_656 S
C53 C31 1.495 1_665 S
C65 C12 1.490 . S
C80 C2 1.477 1_566 S
C92 C17 1.450 . S
C107 C8 1.500 1_454 S
C119 C29 1.472 . S
