# Generated by pormake.
# Topology rac, (4)-cn, num edge types: 1
# Building blocks:
#     Node 0, Type 0, BuildingBlock: CEKHIL_clean_sbu_0, # of connection points: 4
#     Node 1, Type 0, BuildingBlock: CEKHIL_clean_sbu_0, # of connection points: 4
#     Node 2, Type 0, BuildingBlock: CEKHIL_clean_sbu_0, # of connection points: 4
#     Node 3, Type 0, BuildingBlock: CEKHIL_clean_sbu_0, # of connection points: 4
#     Node 4, Type 0, BuildingBlock: CEKHIL_clean_sbu_0, # of connection points: 4
#     Node 5, Type 0, BuildingBlock: CEKHIL_clean_sbu_0, # of connection points: 4
#     Node 6, Type 0, BuildingBlock: CEKHIL_clean_sbu_0, # of connection points: 4
#     Node 7, Type 0, BuildingBlock: CEKHIL_clean_sbu_0, # of connection points: 4
#     Edge 8, Type (0, 0), None
#     Edge 9, Type (0, 0), None
#     Edge 10, Type (0, 0), None
#     Edge 11, Type (0, 0), None
#     Edge 12, Type (0, 0), None
#     Edge 13, Type (0, 0), None
#     Edge 14, Type (0, 0), None
#     Edge 15, Type (0, 0), None
#     Edge 16, Type (0, 0), None
#     Edge 17, Type (0, 0), None
#     Edge 18, Type (0, 0), None
#     Edge 19, Type (0, 0), None
#     Edge 20, Type (0, 0), None
#     Edge 21, Type (0, 0), None
#     Edge 22, Type (0, 0), None
#     Edge 23, Type (0, 0), None
# Relax obj value: 0.202
# Max RMSD: 0.078
# Mean RMSD: 0.078
data_MOF--net-rac--node1-CEKHIL_clean_sbu_0--edge1-none
_symmetry_space_group_name_H-M    P1
_symmetry_Int_Tables_number       1
_symmetry_cell_setting            triclinic
loop_
_symmetry_equiv_pos_as_xyz
'x, y, z'
_cell_length_a     16.984476
_cell_length_b     10.268839
_cell_length_c     15.661061
_cell_angle_alpha  95.565636
_cell_angle_beta   89.996784
_cell_angle_gamma 89.998577
loop_
_atom_site_label
_atom_site_type_symbol
_atom_site_fract_x
_atom_site_fract_y
_atom_site_fract_z
_atom_type_partial_charge
Co0 Co 0.44285 0.27192 0.0682 0.0
O1 O 0.49028 0.44659 0.08358 0.0
O2 O 0.52622 0.29661 0.98257 0.0
C3 C 0.44412 0.23299 0.20601 0.0
O4 O 0.39468 0.08528 0.04302 0.0
Co5 Co 0.27517 0.26987 0.15209 0.0
O6 O 0.26655 0.09744 0.08689 0.0
C7 C 0.31591 0.41434 0.00715 0.0
C8 C 0.5335 0.41726 0.01734 0.0
C9 C 0.32412 0.03513 0.05065 0.0
O10 O 0.36751 0.32986 0.9861 0.0
O11 O 0.28084 0.41866 0.07902 0.0
O12 O 0.50714 0.21431 0.15975 0.0
O13 O 0.38735 0.29297 0.17147 0.0
Co14 Co 0.19433 0.65876 0.06004 0.0
O15 O 0.14124 0.49099 0.07117 0.0
O16 O 0.09751 0.63336 0.98862 0.0
C17 C 0.21409 0.71247 0.20322 0.0
O18 O 0.24293 0.84104 0.0416 0.0
Co19 Co 0.37329 0.66231 0.1134 0.0
O20 O 0.37445 0.83389 0.06948 0.0
C21 C 0.31941 0.52963 0.96265 0.0
C22 C 0.0901 0.51735 0.01569 0.0
C23 C 0.31377 0.89258 0.04546 0.0
O24 O 0.25395 0.58581 0.95707 0.0
O25 O 0.37745 0.601 0.9873 0.0
O26 O 0.14774 0.73264 0.16595 0.0
O27 O 0.2644 0.6437 0.15549 0.0
Co28 Co 0.44285 0.16349 0.43233 0.0
O29 O 0.49028 -0.01118 0.41698 0.0
O30 O 0.52621 0.13883 0.51796 0.0
C31 C 0.44412 0.2023 0.2945 0.0
O32 O 0.39468 0.35014 0.45748 0.0
Co33 Co 0.27516 0.16555 0.34844 0.0
O34 O 0.26656 0.338 0.41362 0.0
C35 C 0.3159 0.02111 0.4934 0.0
C36 C 0.5335 0.01817 0.48322 0.0
C37 C 0.32412 0.4003 0.44985 0.0
O38 O 0.3675 0.10559 0.51445 0.0
O39 O 0.28083 0.0168 0.42154 0.0
O40 O 0.50714 0.22104 0.34076 0.0
O41 O 0.38735 0.14239 0.32908 0.0
Co42 Co 0.19433 0.77669 0.44048 0.0
O43 O 0.14124 0.94447 0.42939 0.0
O44 O 0.09751 0.80207 0.51192 0.0
C45 C 0.21407 0.72312 0.29733 0.0
O46 O 0.24293 0.59439 0.4589 0.0
Co47 Co 0.3733 0.77313 0.38712 0.0
O48 O 0.37445 0.60154 0.43102 0.0
C49 C 0.31941 0.9058 0.53788 0.0
C50 C 0.0901 0.91809 0.48487 0.0
C51 C 0.31378 0.54285 0.45504 0.0
O52 O 0.25395 0.84961 0.54346 0.0
O53 O 0.37746 0.83445 0.51322 0.0
O54 O 0.14772 0.70284 0.33458 0.0
O55 O 0.26442 0.7918 0.34504 0.0
Co56 Co 0.67635 0.66352 0.93236 0.0
O57 O 0.62892 0.48886 0.91698 0.0
O58 O 0.59299 0.63883 0.018 0.0
C59 C 0.67508 0.70245 0.79455 0.0
O60 O 0.72452 0.85016 0.95754 0.0
Co61 Co 0.84403 0.66557 0.84847 0.0
O62 O 0.85265 0.838 0.91367 0.0
C63 C 0.80329 0.5211 0.9934 0.0
C64 C 0.58571 0.51819 0.98323 0.0
C65 C 0.79508 0.90031 0.94991 0.0
O66 O 0.7517 0.60559 0.01446 0.0
O67 O 0.83835 0.51678 0.92153 0.0
O68 O 0.61206 0.72113 0.84081 0.0
O69 O 0.73184 0.64247 0.82909 0.0
Co70 Co 0.92487 0.27669 0.94052 0.0
O71 O 0.97795 0.44447 0.9294 0.0
O72 O 1.02169 0.30209 0.01196 0.0
C73 C 0.90513 0.22298 0.79735 0.0
O74 O 0.87628 0.0944 0.95896 0.0
Co75 Co 0.74591 0.27313 0.88715 0.0
O76 O 0.74476 0.10155 0.93108 0.0
C77 C 0.79978 0.40581 0.0379 0.0
C78 C 1.02909 0.41811 0.98489 0.0
C79 C 0.80543 0.04286 0.9551 0.0
O80 O 0.86524 0.34963 0.04349 0.0
O81 O 0.74174 0.33444 0.01324 0.0
O82 O 0.97148 0.20282 0.83461 0.0
O83 O 0.8548 0.29173 0.84506 0.0
Co84 Co 0.67635 0.77194 0.56823 0.0
O85 O 0.62892 0.94661 0.58358 0.0
O86 O 0.59299 0.7966 0.4826 0.0
C87 C 0.67507 0.73313 0.70606 0.0
O88 O 0.72452 0.58529 0.54308 0.0
Co89 Co 0.84403 0.76989 0.65213 0.0
O90 O 0.85265 0.59743 0.58695 0.0
C91 C 0.8033 0.91433 0.50717 0.0
C92 C 0.58571 0.91726 0.51734 0.0
C93 C 0.79508 0.53513 0.55071 0.0
O94 O 0.75171 0.82984 0.48611 0.0
O95 O 0.83836 0.91864 0.57904 0.0
O96 O 0.61206 0.71439 0.6598 0.0
O97 O 0.73185 0.79304 0.67149 0.0
Co98 Co 0.92487 0.15874 0.56008 0.0
O99 O 0.97795 -0.00905 0.57116 0.0
O100 O 1.02168 0.13335 0.48863 0.0
C101 C 0.90514 0.21231 0.70323 0.0
O102 O 0.87627 0.34104 0.54166 0.0
Co103 Co 0.7459 0.16231 0.61346 0.0
O104 O 0.74475 0.3339 0.56955 0.0
C105 C 0.79978 0.02964 0.46269 0.0
C106 C 1.02909 0.01732 0.51568 0.0
C107 C 0.80543 0.39258 0.54553 0.0
O108 O 0.86523 0.08583 0.45711 0.0
O109 O 0.74173 0.10099 0.48736 0.0
O110 O 0.97149 0.23258 0.66598 0.0
O111 O 0.85479 0.14364 0.65552 0.0
loop_
_geom_bond_atom_site_label_1
_geom_bond_atom_site_label_2
_geom_bond_distance
_geom_bond_site_symmetry_2
_ccdc_geom_bond_type
Co0 O1 2.216 . S
Co0 O2 2.091 1_554 S
Co0 O4 2.004 1_554 S
Co0 O10 2.021 1_554 S
Co0 O12 2.137 . S
Co0 O13 2.244 . S
O1 Co0 2.216 . S
O1 C8 1.247 1_554 S
O2 Co0 2.091 1_556 S
O2 C8 1.261 . S
C3 O12 1.247 . S
C3 O13 1.272 . S
O4 Co0 2.004 1_556 S
O4 C9 1.259 1_556 S
Co5 O6 2.061 . S
Co5 O11 2.052 . S
Co5 O13 2.135 . S
O6 Co5 2.061 . S
O6 C9 1.235 . S
C7 O10 1.238 1_554 S
C7 O11 1.241 . S
C8 O1 1.247 1_556 S
C8 O2 1.261 . S
C9 O4 1.259 1_554 S
C9 O6 1.235 . S
O10 Co0 2.021 1_556 S
O10 C7 1.238 1_556 S
O11 Co5 2.052 . S
O11 C7 1.241 . S
O12 Co0 2.137 . S
O12 C3 1.247 . S
O13 Co0 2.244 . S
O13 C3 1.272 . S
O13 Co5 2.135 . S
Co14 O15 2.216 . S
Co14 O16 2.091 1_554 S
Co14 O18 2.004 1_554 S
Co14 O24 2.021 1_554 S
Co14 O26 2.137 . S
Co14 O27 2.244 . S
O15 Co14 2.216 . S
O15 C22 1.247 1_554 S
O16 Co14 2.091 1_556 S
O16 C22 1.261 . S
C17 O26 1.247 . S
C17 O27 1.272 . S
O18 Co14 2.004 1_556 S
O18 C23 1.259 1_556 S
Co19 O20 2.061 . S
Co19 O25 2.052 . S
Co19 O27 2.135 . S
O20 Co19 2.061 . S
O20 C23 1.235 . S
C21 O24 1.238 1_554 S
C21 O25 1.241 . S
C22 O15 1.247 1_556 S
C22 O16 1.261 . S
C23 O18 1.259 1_554 S
C23 O20 1.235 . S
O24 Co14 2.021 1_556 S
O24 C21 1.238 1_556 S
O25 Co19 2.052 . S
O25 C21 1.241 . S
O26 Co14 2.137 . S
O26 C17 1.247 . S
O27 Co14 2.244 . S
O27 C17 1.272 . S
O27 Co19 2.135 . S
Co28 O29 2.216 . S
Co28 O30 2.091 . S
Co28 O32 2.004 . S
Co28 O38 2.021 . S
Co28 O40 2.137 . S
Co28 O41 2.244 . S
O29 Co28 2.216 . S
O29 C36 1.247 . S
O30 Co28 2.091 . S
O30 C36 1.261 . S
C31 O40 1.247 . S
C31 O41 1.272 . S
O32 Co28 2.004 . S
O32 C37 1.259 . S
Co33 O34 2.061 . S
Co33 O39 2.052 . S
Co33 O41 2.135 . S
O34 Co33 2.061 . S
O34 C37 1.235 . S
C35 O38 1.238 . S
C35 O39 1.241 . S
C36 O29 1.247 . S
C36 O30 1.261 . S
C37 O32 1.259 . S
C37 O34 1.235 . S
O38 Co28 2.021 . S
O38 C35 1.238 . S
O39 Co33 2.052 . S
O39 C35 1.241 . S
O40 Co28 2.137 . S
O40 C31 1.247 . S
O41 Co28 2.244 . S
O41 C31 1.272 . S
O41 Co33 2.135 . S
Co42 O43 2.216 . S
Co42 O44 2.091 . S
Co42 O46 2.004 . S
Co42 O52 2.021 . S
Co42 O54 2.137 . S
Co42 O55 2.244 . S
O43 Co42 2.216 . S
O43 C50 1.247 . S
O44 Co42 2.091 . S
O44 C50 1.261 . S
C45 O54 1.247 . S
C45 O55 1.272 . S
O46 Co42 2.004 . S
O46 C51 1.259 . S
Co47 O48 2.061 . S
Co47 O53 2.052 . S
Co47 O55 2.135 . S
O48 Co47 2.061 . S
O48 C51 1.235 . S
C49 O52 1.238 . S
C49 O53 1.241 . S
C50 O43 1.247 . S
C50 O44 1.261 . S
C51 O46 1.259 . S
C51 O48 1.235 . S
O52 Co42 2.021 . S
O52 C49 1.238 . S
O53 Co47 2.052 . S
O53 C49 1.241 . S
O54 Co42 2.137 . S
O54 C45 1.247 . S
O55 Co42 2.244 . S
O55 C45 1.272 . S
O55 Co47 2.135 . S
Co56 O57 2.216 . S
Co56 O58 2.091 1_556 S
Co56 O60 2.004 1_556 S
Co56 O66 2.021 1_556 S
Co56 O68 2.137 . S
Co56 O69 2.244 . S
O57 Co56 2.216 . S
O57 C64 1.247 1_556 S
O58 Co56 2.091 1_554 S
O58 C64 1.261 . S
C59 O68 1.247 . S
C59 O69 1.272 . S
O60 Co56 2.004 1_554 S
O60 C65 1.259 1_554 S
Co61 O62 2.061 . S
Co61 O67 2.052 . S
Co61 O69 2.135 . S
O62 Co61 2.061 . S
O62 C65 1.235 . S
C63 O66 1.238 1_556 S
C63 O67 1.241 . S
C64 O57 1.247 1_554 S
C64 O58 1.261 . S
C65 O60 1.259 1_556 S
C65 O62 1.235 . S
O66 Co56 2.021 1_554 S
O66 C63 1.238 1_554 S
O67 Co61 2.052 . S
O67 C63 1.241 . S
O68 Co56 2.137 . S
O68 C59 1.247 . S
O69 Co56 2.244 . S
O69 C59 1.272 . S
O69 Co61 2.135 . S
Co70 O71 2.216 . S
Co70 O72 2.091 1_556 S
Co70 O74 2.004 1_556 S
Co70 O80 2.021 1_556 S
Co70 O82 2.137 . S
Co70 O83 2.244 . S
O71 Co70 2.216 . S
O71 C78 1.247 1_556 S
O72 Co70 2.091 1_554 S
O72 C78 1.261 . S
C73 O82 1.247 . S
C73 O83 1.272 . S
O74 Co70 2.004 1_554 S
O74 C79 1.259 1_554 S
Co75 O76 2.061 . S
Co75 O81 2.052 . S
Co75 O83 2.135 . S
O76 Co75 2.061 . S
O76 C79 1.235 . S
C77 O80 1.238 1_556 S
C77 O81 1.241 . S
C78 O71 1.247 1_554 S
C78 O72 1.261 . S
C79 O74 1.259 1_556 S
C79 O76 1.235 . S
O80 Co70 2.021 1_554 S
O80 C77 1.238 1_554 S
O81 Co75 2.052 . S
O81 C77 1.241 . S
O82 Co70 2.137 . S
O82 C73 1.247 . S
O83 Co70 2.244 . S
O83 C73 1.272 . S
O83 Co75 2.135 . S
Co84 O85 2.216 . S
Co84 O86 2.091 . S
Co84 O88 2.004 . S
Co84 O94 2.021 . S
Co84 O96 2.137 . S
Co84 O97 2.244 . S
O85 Co84 2.216 . S
O85 C92 1.247 . S
O86 Co84 2.091 . S
O86 C92 1.261 . S
C87 O96 1.247 . S
C87 O97 1.272 . S
O88 Co84 2.004 . S
O88 C93 1.259 . S
Co89 O90 2.061 . S
Co89 O95 2.052 . S
Co89 O97 2.135 . S
O90 Co89 2.061 . S
O90 C93 1.235 . S
C91 O94 1.238 . S
C91 O95 1.241 . S
C92 O85 1.247 . S
C92 O86 1.261 . S
C93 O88 1.259 . S
C93 O90 1.235 . S
O94 Co84 2.021 . S
O94 C91 1.238 . S
O95 Co89 2.052 . S
O95 C91 1.241 . S
O96 Co84 2.137 . S
O96 C87 1.247 . S
O97 Co84 2.244 . S
O97 C87 1.272 . S
O97 Co89 2.135 . S
Co98 O99 2.216 . S
Co98 O100 2.091 . S
Co98 O102 2.004 . S
Co98 O108 2.021 . S
Co98 O110 2.137 . S
Co98 O111 2.244 . S
O99 Co98 2.216 . S
O99 C106 1.247 . S
O100 Co98 2.091 . S
O100 C106 1.261 . S
C101 O110 1.247 . S
C101 O111 1.272 . S
O102 Co98 2.004 . S
O102 C107 1.259 . S
Co103 O104 2.061 . S
Co103 O109 2.052 . S
Co103 O111 2.135 . S
O104 Co103 2.061 . S
O104 C107 1.235 . S
C105 O108 1.238 . S
C105 O109 1.241 . S
C106 O99 1.247 . S
C106 O100 1.261 . S
C107 O102 1.259 . S
C107 O104 1.235 . S
O108 Co98 2.021 . S
O108 C105 1.238 . S
O109 Co103 2.052 . S
O109 C105 1.241 . S
O110 Co98 2.137 . S
O110 C101 1.247 . S
O111 Co98 2.244 . S
O111 C101 1.272 . S
O111 Co103 2.135 . S
C9 C23 1.536 1_545 S
C51 C37 1.536 . S
C65 C79 1.536 1_565 S
C93 C107 1.536 . S
C3 C31 1.941 . S
C45 C17 1.941 . S
C59 C87 1.941 . S
C101 C73 1.941 . S
C8 C64 2.020 1_556 S
C22 C78 2.020 1_456 S
C92 C36 2.020 1_565 S
C106 C50 2.020 1_645 S
C21 C7 1.133 . S
C35 C49 1.133 1_545 S
C63 C77 1.133 . S
C91 C105 1.133 1_565 S
