# Generated by pormake.
# Topology bnn, (5)-cn, num edge types: 1
# Building blocks:
#     Node 0, Type 0, BuildingBlock: XOMCOT_clean_sbu_0, # of connection points: 5
#     Node 1, Type 0, BuildingBlock: XOMCOT_clean_sbu_0, # of connection points: 5
#     Edge 2, Type (0, 0), BuildingBlock: ZUJKAS_clean_linker_0, # of connection points: 2
#     Edge 3, Type (0, 0), BuildingBlock: ZUJKAS_clean_linker_0, # of connection points: 2
#     Edge 4, Type (0, 0), BuildingBlock: ZUJKAS_clean_linker_0, # of connection points: 2
#     Edge 5, Type (0, 0), BuildingBlock: ZUJKAS_clean_linker_0, # of connection points: 2
#     Edge 6, Type (0, 0), BuildingBlock: ZUJKAS_clean_linker_0, # of connection points: 2
# Relax obj value: 0.022
# Max RMSD: 0.079
# Mean RMSD: 0.079
data_MOF--net-bnn--node1-XOMCOT_clean_sbu_0--edge1-ZUJKAS_clean_linker_0
_symmetry_space_group_name_H-M    P1
_symmetry_Int_Tables_number       1
_symmetry_cell_setting            triclinic
loop_
_symmetry_equiv_pos_as_xyz
'x, y, z'
_cell_length_a     37.400327
_cell_length_b     34.880219
_cell_length_c     22.081361
_cell_angle_alpha  100.83921
_cell_angle_beta   89.24484
_cell_angle_gamma 122.1773
loop_
_atom_site_label
_atom_site_type_symbol
_atom_site_fract_x
_atom_site_fract_y
_atom_site_fract_z
_atom_type_partial_charge
Co0 Co 0.3348 0.69162 0.04964 0.0
C1 C 0.33555 0.69963 0.18576 0.0
C2 C 0.34242 0.75891 0.15823 0.0
C3 C 0.34315 0.76559 0.22171 0.0
N4 N 0.33794 0.71778 0.13589 0.0
N5 N 0.33889 0.72836 0.23904 0.0
H6 H 0.33183 0.66638 0.18306 0.0
H7 H 0.34457 0.78222 0.13019 0.0
C8 C 0.41118 0.76929 1.00431 0.0
O9 O 0.41796 0.7395 0.96884 0.0
N10 N 0.33093 0.66571 0.96214 0.0
C11 C 0.32421 0.62394 0.93568 0.0
C12 C 0.32058 0.61836 0.87234 0.0
C13 C 0.32995 0.68425 0.91411 0.0
N14 N 0.3243 0.65632 0.85872 0.0
C15 C 0.3581 0.62949 0.07257 0.0
C16 C 0.44443 0.69213 0.10043 0.0
C17 C 0.42795 0.64489 0.0968 0.0
C18 C 0.38401 0.61373 0.08407 0.0
C19 C 0.41702 0.70658 0.089 0.0
N20 N 0.37466 0.6749 0.07126 0.0
H21 H 0.32443 0.60436 0.06341 0.0
H22 H 0.43014 0.7432 0.09522 0.0
H23 H 0.3209 0.59826 0.95968 0.0
H24 H 0.33278 0.71729 0.91976 0.0
O25 O 0.28235 0.63555 0.05692 0.0
O26 O 0.28669 0.69626 0.03181 0.0
O27 O 0.3811 0.75541 0.03923 0.0
C28 C 0.26288 0.65458 0.04196 0.0
H29 H 0.34577 0.79523 0.25255 0.0
H30 H 0.3158 0.5886 0.83895 0.0
H31 H 0.47806 0.71768 0.11248 0.0
H32 H 0.36959 0.57696 0.0812 0.0
Co33 Co 0.66286 0.34939 0.02332 0.0
C34 C 0.65516 0.33961 0.88449 0.0
C35 C 0.59928 0.28831 0.91795 0.0
C36 C 0.59184 0.28049 0.85469 0.0
N37 N 0.63917 0.32502 0.9368 0.0
N38 N 0.62699 0.31281 0.83374 0.0
H39 H 0.68649 0.36875 0.88254 0.0
H40 H 0.57701 0.26854 0.94842 0.0
C41 C 0.64742 0.25483 0.99142 0.0
O42 O 0.66714 0.26692 0.94211 0.0
N43 N 0.68472 0.37297 0.10966 0.0
C44 C 0.71982 0.41438 0.13445 0.0
C45 C 0.72348 0.41909 0.19769 0.0
C46 C 0.66726 0.35309 0.15786 0.0
N47 N 0.69036 0.38063 0.21249 0.0
C48 C 0.74341 0.40216 0.97732 0.0
C49 C 0.78198 0.36376 0.02522 0.0
C50 C 0.80648 0.40133 0.99681 0.0
C51 C 0.78647 0.4202 0.97213 0.0
C52 C 0.73885 0.3466 0.02917 0.0
N53 N 0.71959 0.36491 1.00388 0.0
H54 H 0.72996 0.42018 0.9631 0.0
H55 H 0.72177 0.32043 0.05598 0.0
H56 H 0.74108 0.43956 0.10839 0.0
H57 H 0.63772 0.31979 0.15302 0.0
O58 O 0.66912 0.40753 0.01994 0.0
O59 O 0.61144 0.3475 0.0441 0.0
O60 O 0.64428 0.28447 0.03123 0.0
C61 C 0.6308 0.38986 0.03592 0.0
H62 H 0.56252 0.25368 0.82651 0.0
H63 H 0.74876 0.4486 0.23012 0.0
H64 H 0.79626 0.34864 0.04605 0.0
H65 H 0.80445 0.45049 0.95218 0.0
H66 H 0.41458 0.57842 0.15938 0.0
H67 H 0.4531 0.53941 0.15513 0.0
H68 H 0.54246 0.63135 0.0457 0.0
H69 H 0.50353 0.67015 0.04864 0.0
H70 H 0.46458 0.49604 0.03528 0.0
H71 H 0.61655 0.62641 0.18265 0.0
H72 H 0.56901 0.62767 0.19076 0.0
H73 H 0.59928 0.64635 0.12684 0.0
C74 C 0.44268 0.5907 0.13489 0.0
C75 C 0.45572 0.62709 0.10374 0.0
C76 C 0.46472 0.56847 0.13274 0.0
C77 C 0.50057 0.5825 0.10015 0.0
C78 C 0.5151 0.62035 0.0717 0.0
H79 H 0.66075 0.47411 1.00812 0.0
H80 H 0.62842 0.51991 0.02329 0.0
C81 C 0.49291 0.64257 0.0736 0.0
C82 C 0.5202 0.55476 0.09132 0.0
H83 H 0.6101 0.5576 0.12773 0.0
C84 C 0.49635 0.50936 0.05563 0.0
C85 C 0.56171 0.57248 0.11749 0.0
C86 C 0.58824 0.6208 0.15697 0.0
C87 C 0.51309 0.48127 0.0447 0.0
C88 C 0.55443 0.49864 0.07171 0.0
C89 C 0.57835 0.54421 0.10729 0.0
C90 C 0.57372 0.4704 0.06273 0.0
C91 C 0.48672 0.43378 1.00287 0.0
C92 C 0.55392 0.4274 0.08032 0.0
C93 C 0.57213 0.40085 0.07106 0.0
C94 C 0.61081 0.41717 0.04493 0.0
C95 C 0.63087 0.46051 0.02826 0.0
C96 C 0.61249 0.48681 0.03704 0.0
H97 H 0.46184 0.43116 0.97221 0.0
H98 H 0.50683 0.42516 0.97344 0.0
H99 H 0.47053 0.40748 0.0317 0.0
H100 H 0.52452 0.41451 0.10163 0.0
H101 H 0.55616 0.36783 0.08497 0.0
H102 H 0.85615 0.43479 0.90391 0.0
H103 H 0.93374 0.47743 0.90897 0.0
H104 H 0.94021 0.46112 0.09652 0.0
H105 H 0.8628 0.41956 0.09248 0.0
H106 H 0.99485 0.55258 0.08106 0.0
H107 H 1.01145 0.42704 0.9068 0.0
H108 H 0.9768 0.44288 0.88038 0.0
H109 H 0.96272 0.41128 0.94137 0.0
C110 C 0.87409 0.44011 0.94614 0.0
C111 C 0.85325 0.42358 0.99769 0.0
C112 C 0.91839 0.46417 0.94878 0.0
C113 C 0.94267 0.47202 1.0029 0.0
C114 C 0.922 0.45519 0.05419 0.0
H115 H 0.20733 0.56751 0.05983 0.0
H116 H 0.12986 0.52506 0.0499 0.0
C117 C 0.87773 0.43106 0.05158 0.0
C118 C 0.98971 0.49939 1.00709 0.0
H119 H 0.07426 0.50036 0.94523 0.0
C120 C 1.01227 0.54122 0.0514 0.0
C121 C 1.01226 0.48425 0.96861 0.0
C122 C 0.9897 0.43872 0.92192 0.0
C123 C 0.05686 0.56846 0.05813 0.0
C124 C 0.0794 0.55371 0.01893 0.0
C125 C 0.05684 0.51178 0.9748 0.0
C126 C 0.12647 0.58017 0.02487 0.0
C127 C 0.07949 0.6122 0.10807 0.0
C128 C 0.15029 0.62522 1.01368 0.0
C129 C 0.19474 0.64972 0.01942 0.0
C130 C 0.21599 0.62941 0.0362 0.0
C131 C 0.19195 0.5842 0.04697 0.0
C132 C 0.14765 0.55981 0.0412 0.0
H133 H 0.05807 0.61322 0.14278 0.0
H134 H 0.10708 0.61549 0.13247 0.0
H135 H 0.09154 0.64266 0.08658 0.0
H136 H 0.13451 0.64128 1.00005 0.0
H137 H 0.2124 0.68439 1.0105 0.0
H138 H 0.41021 0.84036 0.07999 0.0
H139 H 0.45369 0.9229 0.07962 0.0
H140 H 0.51867 0.89555 0.9316 0.0
H141 H 0.47489 0.81249 0.93111 0.0
H142 H 0.54303 0.98465 0.09768 0.0
H143 H 0.47605 0.96827 0.86422 0.0
H144 H 0.45102 0.92226 0.9064 0.0
H145 H 0.49667 0.93236 0.86711 0.0
C146 C 0.43371 0.85173 0.04724 0.0
C147 C 0.43884 0.81963 1.00528 0.0
C148 C 0.45863 0.89904 0.04726 0.0
C149 C 0.48904 0.91534 1.0051 0.0
C150 C 0.49488 0.88361 0.96388 0.0
H151 H 0.65423 0.18646 0.92034 0.0
H152 H 0.61811 0.10529 0.92733 0.0
C153 C 0.46999 0.83618 0.96389 0.0
C154 C 0.51427 0.96552 1.00426 0.0
H155 H 0.53285 0.04264 0.91417 0.0
C156 C 0.54085 0.99741 0.0576 0.0
C157 C 0.51127 0.98205 0.95198 0.0
C158 C 0.48197 0.9496 0.89429 0.0
C159 C 0.56503 0.04536 0.05973 0.0
C160 C 0.56186 0.06192 1.00751 0.0
C161 C 0.53532 0.02995 0.95416 0.0
C162 C 0.58586 0.11217 1.00671 0.0
C163 C 0.59437 0.07773 0.11737 0.0
C164 C 0.57998 0.14331 0.04928 0.0
C165 C 0.60087 0.19004 0.04565 0.0
C166 C 0.62765 0.20637 0.9989 0.0
C167 C 0.63382 0.17516 0.95691 0.0
C168 C 0.61313 0.12863 0.96075 0.0
H169 H 0.60193 0.05925 0.14562 0.0
H170 H 0.62454 0.10648 0.10551 0.0
H171 H 0.57869 0.09298 0.14636 0.0
H172 H 0.55841 0.13126 0.08435 0.0
H173 H 0.59519 0.21306 0.07845 0.0
H174 H 0.28405 0.59254 0.75175 0.0
H175 H 0.28703 0.60694 0.64729 0.0
H176 H 0.36427 0.75427 0.72174 0.0
H177 H 0.36263 0.74007 0.82658 0.0
H178 H 0.26133 0.65629 0.59584 0.0
H179 H 0.435 0.7339 0.59198 0.0
H180 H 0.40571 0.70267 0.6502 0.0
H181 H 0.42044 0.76147 0.65563 0.0
C182 C 0.30198 0.62802 0.74602 0.0
C183 C 0.32352 0.66514 0.7976 0.0
C184 C 0.30339 0.6362 0.68624 0.0
C185 C 0.32648 0.68161 0.6766 0.0
C186 C 0.34695 0.71888 0.72803 0.0
H187 H 0.37553 0.79436 0.34494 0.0
H188 H 0.37136 0.78247 0.45096 0.0
C189 C 0.34555 0.71073 0.788 0.0
C190 C 0.32908 0.68961 0.61256 0.0
H191 H 0.39855 0.73434 0.50558 0.0
C192 C 0.29131 0.6733 0.57603 0.0
C193 C 0.36824 0.7117 0.58681 0.0
C194 C 0.40966 0.72812 0.62287 0.0
C195 C 0.29167 0.679 0.51468 0.0
C196 C 0.33081 0.70094 0.4889 0.0
C197 C 0.3686 0.71747 0.52549 0.0
C198 C 0.33329 0.70762 0.42424 0.0
C199 C 0.25027 0.66226 0.47833 0.0
C200 C 0.31382 0.66942 0.3739 0.0
C201 C 0.31599 0.6761 0.31307 0.0
C202 C 0.33774 0.72114 0.30148 0.0
C203 C 0.35786 0.75924 0.35213 0.0
C204 C 0.35576 0.75253 0.41281 0.0
H205 H 0.22487 0.65656 0.50906 0.0
H206 H 0.25421 0.68749 0.45059 0.0
H207 H 0.23964 0.62883 0.44587 0.0
H208 H 0.29693 0.63443 0.38167 0.0
H209 H 0.3 0.64602 0.27527 0.0
H210 H 0.64354 0.29679 0.24436 0.0
H211 H 0.62902 0.28241 0.34899 0.0
H212 H 0.70359 0.42963 0.42487 0.0
H213 H 0.71687 0.44437 0.32086 0.0
H214 H 0.68621 0.30687 0.44908 0.0
H215 H 0.59441 0.38942 0.5057 0.0
H216 H 0.60538 0.37533 0.42764 0.0
H217 H 0.64514 0.42711 0.48078 0.0
C218 C 0.6563 0.32613 0.28318 0.0
C219 C 0.68133 0.37177 0.27395 0.0
C220 C 0.6482 0.31783 0.343 0.0
C221 C 0.66468 0.35497 0.39464 0.0
C222 C 0.68982 0.40046 0.38563 0.0
H223 H 0.67698 0.39246 0.79347 0.0
H224 H 0.68601 0.40084 0.68571 0.0
C225 C 0.69787 0.40879 0.32601 0.0
C226 C 0.65693 0.34639 0.45825 0.0
H227 H 0.61868 0.3725 0.59041 0.0
C228 C 0.67107 0.3208 0.47981 0.0
C229 C 0.63716 0.36462 0.49825 0.0
C230 C 0.61926 0.39026 0.47679 0.0
C231 C 0.6671 0.31415 0.54094 0.0
C232 C 0.64813 0.3332 0.5812 0.0
C233 C 0.63348 0.35823 0.55945 0.0
C234 C 0.6433 0.32771 0.64626 0.0
C235 C 0.68424 0.28789 0.56257 0.0
C236 C 0.61611 0.28385 0.65964 0.0
C237 C 0.61092 0.27896 0.72111 0.0
C238 C 0.63285 0.31786 0.77038 0.0
C239 C 0.66012 0.36176 0.7567 0.0
C240 C 0.6651 0.36664 0.69518 0.0
H241 H 0.70562 0.28386 0.53027 0.0
H242 H 0.70192 0.30577 0.60944 0.0
H243 H 0.65736 0.25278 0.56551 0.0
H244 H 0.59861 0.25345 0.62249 0.0
H245 H 0.58999 0.24466 0.73007 0.0
loop_
_geom_bond_atom_site_label_1
_geom_bond_atom_site_label_2
_geom_bond_distance
_geom_bond_site_symmetry_2
_ccdc_geom_bond_type
Co0 N4 2.148 . S
Co0 N10 2.128 1_554 S
Co0 N20 2.194 . S
Co0 O25 2.351 . S
Co0 O26 2.155 . S
Co0 O27 2.096 . S
C1 N4 1.301 . S
C1 N5 1.328 . S
C1 H6 0.930 . S
C2 C3 1.333 . S
C2 N4 1.317 . S
C2 H7 0.930 . S
C3 C2 1.333 . S
C3 N5 1.350 . S
C3 H29 0.931 . S
N4 Co0 2.148 . S
N4 C1 1.301 . S
N4 C2 1.317 . S
N5 C1 1.328 . S
N5 C3 1.350 . S
H6 C1 0.930 . S
H7 C2 0.930 . S
C8 O9 1.224 . S
C8 O27 1.247 . S
O9 C8 1.224 . S
N10 Co0 2.128 1_556 S
N10 C11 1.355 . S
N10 C13 1.311 . S
C11 N10 1.355 . S
C11 C12 1.363 . S
C11 H23 0.929 . S
C12 C11 1.363 . S
C12 N14 1.375 . S
C12 H30 0.931 . S
C13 N10 1.311 . S
C13 N14 1.347 . S
C13 H24 0.929 . S
N14 C12 1.375 . S
N14 C13 1.347 . S
C15 C18 1.365 . S
C15 N20 1.328 . S
C15 H21 0.929 . S
C16 C17 1.362 . S
C16 C19 1.378 . S
C16 H31 0.929 . S
C17 C16 1.362 . S
C17 C18 1.366 . S
C18 C15 1.365 . S
C18 C17 1.366 . S
C18 H32 0.930 . S
C19 C16 1.378 . S
C19 N20 1.315 . S
C19 H22 0.930 . S
N20 Co0 2.194 . S
N20 C15 1.328 . S
N20 C19 1.315 . S
H21 C15 0.929 . S
H22 C19 0.930 . S
H23 C11 0.929 . S
H24 C13 0.929 . S
O25 Co0 2.351 . S
O25 C28 1.244 . S
O26 Co0 2.155 . S
O26 C28 1.240 . S
O27 Co0 2.096 . S
O27 C8 1.247 . S
C28 O25 1.244 . S
C28 O26 1.240 . S
H29 C3 0.931 . S
H30 C12 0.931 . S
H31 C16 0.929 . S
H32 C18 0.930 . S
Co33 N37 2.148 1_554 S
Co33 N43 2.128 . S
Co33 N53 2.194 . S
Co33 O58 2.351 . S
Co33 O59 2.155 . S
Co33 O60 2.096 . S
C34 N37 1.301 . S
C34 N38 1.328 . S
C34 H39 0.930 . S
C35 C36 1.333 . S
C35 N37 1.317 . S
C35 H40 0.930 . S
C36 C35 1.333 . S
C36 N38 1.350 . S
C36 H62 0.931 . S
N37 Co33 2.148 1_556 S
N37 C34 1.301 . S
N37 C35 1.317 . S
N38 C34 1.328 . S
N38 C36 1.350 . S
H39 C34 0.930 . S
H40 C35 0.930 . S
C41 O42 1.224 . S
C41 O60 1.247 . S
O42 C41 1.224 . S
N43 Co33 2.128 . S
N43 C44 1.355 . S
N43 C46 1.311 . S
C44 N43 1.355 . S
C44 C45 1.363 . S
C44 H56 0.929 . S
C45 C44 1.363 . S
C45 N47 1.375 . S
C45 H63 0.931 . S
C46 N43 1.311 . S
C46 N47 1.347 . S
C46 H57 0.929 . S
N47 C45 1.375 . S
N47 C46 1.347 . S
C48 C51 1.365 . S
C48 N53 1.328 . S
C48 H54 0.934 . S
C49 C50 1.362 . S
C49 C52 1.378 . S
C49 H64 0.929 . S
C50 C49 1.362 . S
C50 C51 1.366 . S
C51 C48 1.365 . S
C51 C50 1.366 . S
C51 H65 0.930 . S
C52 C49 1.378 . S
C52 N53 1.315 . S
C52 H55 0.930 . S
N53 Co33 2.194 . S
N53 C48 1.328 . S
N53 C52 1.315 . S
H54 C48 0.934 . S
H55 C52 0.930 . S
H56 C44 0.929 . S
H57 C46 0.929 . S
O58 Co33 2.351 . S
O58 C61 1.244 . S
O59 Co33 2.155 . S
O59 C61 1.240 . S
O60 Co33 2.096 . S
O60 C41 1.247 . S
C61 O58 1.244 . S
C61 O59 1.240 . S
H62 C36 0.931 . S
H63 C45 0.931 . S
H64 C49 0.929 . S
H65 C51 0.930 . S
H66 C74 0.929 . S
H67 C76 0.930 . S
H68 C78 0.930 . S
H69 C81 0.929 . S
H70 C84 0.930 . S
H71 C86 0.960 . S
H72 C86 0.960 . S
H73 C86 0.960 . S
C74 H66 0.929 . S
C74 C75 1.377 . S
C74 C76 1.384 . S
C75 C74 1.377 . S
C75 C81 1.390 1_554 S
C76 H67 0.930 . S
C76 C74 1.384 . S
C76 C77 1.372 . S
C77 C76 1.372 . S
C77 C78 1.400 1_554 S
C77 C82 1.490 . S
C78 H68 0.930 . S
C78 C77 1.400 1_556 S
C78 C81 1.386 . S
H79 C95 0.930 . S
H80 C96 0.931 . S
C81 H69 0.929 . S
C81 C75 1.390 1_556 S
C81 C78 1.386 . S
C82 C77 1.490 . S
C82 C84 1.395 1_554 S
C82 C85 1.403 . S
H83 C89 0.930 . S
C84 H70 0.930 . S
C84 C82 1.395 1_556 S
C84 C87 1.403 . S
C85 C82 1.403 . S
C85 C86 1.524 . S
C85 C89 1.400 . S
C86 H71 0.960 . S
C86 H72 0.960 . S
C86 H73 0.960 . S
C86 C85 1.524 . S
C87 C84 1.403 . S
C87 C88 1.392 1_556 S
C87 C91 1.495 . S
C88 C87 1.392 1_554 S
C88 C89 1.385 . S
C88 C90 1.478 . S
C89 H83 0.930 . S
C89 C85 1.400 . S
C89 C88 1.385 . S
C90 C88 1.478 . S
C90 C92 1.381 . S
C90 C96 1.383 1_554 S
C91 C87 1.495 . S
C91 H97 0.959 . S
C91 H98 0.961 . S
C91 H99 0.960 . S
C92 C90 1.381 . S
C92 C93 1.394 . S
C92 H100 0.930 . S
C93 C92 1.394 . S
C93 C94 1.383 . S
C93 H101 0.929 . S
C94 C93 1.383 . S
C94 C95 1.377 1_554 S
C95 H79 0.930 . S
C95 C94 1.377 1_556 S
C95 C96 1.379 . S
C96 H80 0.931 . S
C96 C90 1.383 1_556 S
C96 C95 1.379 . S
H97 C91 0.959 . S
H98 C91 0.961 . S
H99 C91 0.960 . S
H100 C92 0.930 . S
H101 C93 0.929 . S
H102 C110 0.929 . S
H103 C112 0.930 . S
H104 C114 0.930 . S
H105 C117 0.929 . S
H106 C120 0.931 . S
H107 C122 0.960 1_455 S
H108 C122 0.960 . S
H109 C122 0.960 . S
C110 H102 0.929 . S
C110 C111 1.377 1_556 S
C110 C112 1.384 . S
C111 C110 1.377 1_554 S
C111 C117 1.390 . S
C112 H103 0.930 . S
C112 C110 1.384 . S
C112 C113 1.372 1_556 S
C113 C112 1.372 1_554 S
C113 C114 1.400 . S
C113 C118 1.490 . S
C114 H104 0.930 . S
C114 C113 1.400 . S
C114 C117 1.386 . S
H115 C131 0.930 . S
H116 C132 0.931 . S
C117 H105 0.929 . S
C117 C111 1.390 . S
C117 C114 1.386 . S
C118 C113 1.490 . S
C118 C120 1.393 1_554 S
C118 C121 1.403 1_655 S
H119 C125 0.930 . S
C120 H106 0.931 . S
C120 C118 1.393 1_556 S
C120 C123 1.404 1_655 S
C121 C118 1.403 1_455 S
C121 C122 1.524 1_455 S
C121 C125 1.400 . S
C122 H107 0.960 1_655 S
C122 H108 0.960 . S
C122 H109 0.960 . S
C122 C121 1.524 1_655 S
C123 C120 1.404 1_455 S
C123 C124 1.392 1_556 S
C123 C127 1.495 . S
C124 C123 1.392 1_554 S
C124 C125 1.385 . S
C124 C126 1.478 . S
C125 H119 0.930 . S
C125 C121 1.400 . S
C125 C124 1.385 . S
C126 C124 1.478 . S
C126 C128 1.381 1_554 S
C126 C132 1.383 . S
C127 C123 1.495 . S
C127 H133 0.959 . S
C127 H134 0.961 1_556 S
C127 H135 0.960 . S
C128 C126 1.381 1_556 S
C128 C129 1.394 . S
C128 H136 0.930 . S
C129 C128 1.394 . S
C129 C130 1.383 1_556 S
C129 H137 0.929 . S
C130 C129 1.383 1_554 S
C130 C131 1.377 . S
C131 H115 0.930 . S
C131 C130 1.377 . S
C131 C132 1.379 . S
C132 H116 0.931 . S
C132 C126 1.383 . S
C132 C131 1.379 . S
H133 C127 0.959 . S
H134 C127 0.961 1_554 S
H135 C127 0.960 . S
H136 C128 0.930 . S
H137 C129 0.929 . S
H138 C146 0.932 . S
H139 C148 0.939 . S
H140 C150 0.930 . S
H141 C153 0.929 . S
H142 C156 0.930 . S
H143 C158 0.960 . S
H144 C158 0.960 . S
H145 C158 0.960 . S
C146 H138 0.932 . S
C146 C147 1.372 1_556 S
C146 C148 1.382 . S
C147 C146 1.372 1_554 S
C147 C153 1.390 . S
C148 H139 0.939 . S
C148 C146 1.382 . S
C148 C149 1.368 1_556 S
C149 C148 1.368 1_554 S
C149 C150 1.400 . S
C149 C154 1.490 . S
C150 H140 0.930 . S
C150 C149 1.400 . S
C150 C153 1.386 . S
H151 C167 0.930 . S
H152 C168 0.931 . S
C153 H141 0.929 . S
C153 C147 1.390 . S
C153 C150 1.386 . S
C154 C149 1.490 . S
C154 C156 1.395 . S
C154 C157 1.403 1_554 S
H155 C161 0.930 . S
C156 H142 0.930 . S
C156 C154 1.395 . S
C156 C159 1.403 1_565 S
C157 C154 1.403 1_556 S
C157 C158 1.524 . S
C157 C161 1.400 1_565 S
C158 H143 0.960 . S
C158 H144 0.960 . S
C158 H145 0.960 . S
C158 C157 1.524 . S
C159 C156 1.403 1_545 S
C159 C160 1.392 . S
C159 C163 1.495 . S
C160 C159 1.392 . S
C160 C161 1.385 1_554 S
C160 C162 1.478 . S
C161 H155 0.930 . S
C161 C157 1.400 1_545 S
C161 C160 1.385 1_556 S
C162 C160 1.478 . S
C162 C164 1.381 . S
C162 C168 1.383 . S
C163 C159 1.495 . S
C163 H169 0.959 . S
C163 H170 0.961 . S
C163 H171 0.960 . S
C164 C162 1.381 . S
C164 C165 1.394 1_554 S
C164 H172 0.930 1_554 S
C165 C164 1.394 1_556 S
C165 C166 1.383 1_556 S
C165 H173 0.929 . S
C166 C165 1.383 1_554 S
C166 C167 1.377 . S
C167 H151 0.930 . S
C167 C166 1.377 . S
C167 C168 1.379 . S
C168 H152 0.931 . S
C168 C162 1.383 . S
C168 C167 1.379 . S
H169 C163 0.959 . S
H170 C163 0.961 . S
H171 C163 0.960 . S
H172 C164 0.930 1_556 S
H173 C165 0.929 . S
H174 C182 0.929 . S
H175 C184 0.930 . S
H176 C186 0.930 . S
H177 C189 0.929 . S
H178 C192 0.930 . S
H179 C194 0.960 . S
H180 C194 0.960 . S
H181 C194 0.960 . S
C182 H174 0.929 . S
C182 C183 1.377 . S
C182 C184 1.384 . S
C183 C182 1.377 . S
C183 C189 1.390 . S
C184 H175 0.930 . S
C184 C182 1.384 . S
C184 C185 1.372 . S
C185 C184 1.372 . S
C185 C186 1.400 . S
C185 C190 1.490 . S
C186 H176 0.930 . S
C186 C185 1.400 . S
C186 C189 1.386 . S
H187 C203 0.930 . S
H188 C204 0.931 . S
C189 H177 0.929 . S
C189 C183 1.390 . S
C189 C186 1.386 . S
C190 C185 1.490 . S
C190 C192 1.395 . S
C190 C193 1.403 . S
H191 C197 0.930 . S
C192 H178 0.930 . S
C192 C190 1.395 . S
C192 C195 1.403 . S
C193 C190 1.403 . S
C193 C194 1.524 . S
C193 C197 1.400 . S
C194 H179 0.960 . S
C194 H180 0.960 . S
C194 H181 0.960 . S
C194 C193 1.524 . S
C195 C192 1.403 . S
C195 C196 1.392 . S
C195 C199 1.495 . S
C196 C195 1.392 . S
C196 C197 1.385 . S
C196 C198 1.478 . S
C197 H191 0.930 . S
C197 C193 1.400 . S
C197 C196 1.385 . S
C198 C196 1.478 . S
C198 C200 1.381 . S
C198 C204 1.383 . S
C199 C195 1.495 . S
C199 H205 0.959 . S
C199 H206 0.961 . S
C199 H207 0.960 . S
C200 C198 1.381 . S
C200 C201 1.394 . S
C200 H208 0.930 . S
C201 C200 1.394 . S
C201 C202 1.383 . S
C201 H209 0.929 . S
C202 C201 1.383 . S
C202 C203 1.377 . S
C203 H187 0.930 . S
C203 C202 1.377 . S
C203 C204 1.379 . S
C204 H188 0.931 . S
C204 C198 1.383 . S
C204 C203 1.379 . S
H205 C199 0.959 . S
H206 C199 0.961 . S
H207 C199 0.960 . S
H208 C200 0.930 . S
H209 C201 0.929 . S
H210 C218 0.929 . S
H211 C220 0.930 . S
H212 C222 0.930 . S
H213 C225 0.929 . S
H214 C228 0.930 . S
H215 C230 0.960 . S
H216 C230 0.960 . S
H217 C230 0.960 . S
C218 H210 0.929 . S
C218 C219 1.377 . S
C218 C220 1.384 . S
C219 C218 1.377 . S
C219 C225 1.390 . S
C220 H211 0.930 . S
C220 C218 1.384 . S
C220 C221 1.372 . S
C221 C220 1.372 . S
C221 C222 1.400 . S
C221 C226 1.490 . S
C222 H212 0.930 . S
C222 C221 1.400 . S
C222 C225 1.386 . S
H223 C239 0.930 . S
H224 C240 0.931 . S
C225 H213 0.929 . S
C225 C219 1.390 . S
C225 C222 1.386 . S
C226 C221 1.490 . S
C226 C228 1.395 . S
C226 C229 1.403 . S
H227 C233 0.930 . S
C228 H214 0.930 . S
C228 C226 1.395 . S
C228 C231 1.403 . S
C229 C226 1.403 . S
C229 C230 1.524 . S
C229 C233 1.400 . S
C230 H215 0.960 . S
C230 H216 0.960 . S
C230 H217 0.960 . S
C230 C229 1.524 . S
C231 C228 1.403 . S
C231 C232 1.392 . S
C231 C235 1.495 . S
C232 C231 1.392 . S
C232 C233 1.385 . S
C232 C234 1.478 . S
C233 H227 0.930 . S
C233 C229 1.400 . S
C233 C232 1.385 . S
C234 C232 1.478 . S
C234 C236 1.381 . S
C234 C240 1.383 . S
C235 C231 1.495 . S
C235 H241 0.959 . S
C235 H242 0.961 . S
C235 H243 0.960 . S
C236 C234 1.381 . S
C236 C237 1.394 . S
C236 H244 0.930 . S
C237 C236 1.394 . S
C237 C238 1.383 . S
C237 H245 0.929 . S
C238 C237 1.383 . S
C238 C239 1.377 . S
C239 H223 0.930 . S
C239 C238 1.377 . S
C239 C240 1.379 . S
C240 H224 0.931 . S
C240 C234 1.383 . S
C240 C239 1.379 . S
H241 C235 0.959 . S
H242 C235 0.961 . S
H243 C235 0.960 . S
H244 C236 0.930 . S
H245 C237 0.929 . S
C75 C17 1.497 . S
C94 C61 1.495 . S
C111 C50 1.498 . S
C130 C28 1.491 . S
C147 C8 1.500 . S
C166 C41 1.498 . S
C183 N14 1.453 . S
C202 N5 1.466 . S
C219 N47 1.458 . S
C238 N38 1.445 . S
