# Generated by pormake.
# Topology sma, (6)-cn, num edge types: 1
# Building blocks:
#     Node 0, Type 0, BuildingBlock: PAMTOO_clean_sbu_0, # of connection points: 6
#     Node 1, Type 0, BuildingBlock: PAMTOO_clean_sbu_0, # of connection points: 6
#     Node 2, Type 0, BuildingBlock: PAMTOO_clean_sbu_0, # of connection points: 6
#     Edge 3, Type (0, 0), BuildingBlock: AJUNOK_clean_linker_0, # of connection points: 2
#     Edge 4, Type (0, 0), BuildingBlock: AJUNOK_clean_linker_0, # of connection points: 2
#     Edge 5, Type (0, 0), BuildingBlock: AJUNOK_clean_linker_0, # of connection points: 2
#     Edge 6, Type (0, 0), BuildingBlock: AJUNOK_clean_linker_0, # of connection points: 2
#     Edge 7, Type (0, 0), BuildingBlock: AJUNOK_clean_linker_0, # of connection points: 2
#     Edge 8, Type (0, 0), BuildingBlock: AJUNOK_clean_linker_0, # of connection points: 2
#     Edge 9, Type (0, 0), BuildingBlock: AJUNOK_clean_linker_0, # of connection points: 2
#     Edge 10, Type (0, 0), BuildingBlock: AJUNOK_clean_linker_0, # of connection points: 2
#     Edge 11, Type (0, 0), BuildingBlock: AJUNOK_clean_linker_0, # of connection points: 2
# Relax obj value: 0.190
# Max RMSD: 0.249
# Mean RMSD: 0.214
data_MOF--net-sma--node1-PAMTOO_clean_sbu_0--edge1-AJUNOK_clean_linker_0
_symmetry_space_group_name_H-M    P1
_symmetry_Int_Tables_number       1
_symmetry_cell_setting            triclinic
loop_
_symmetry_equiv_pos_as_xyz
'x, y, z'
_cell_length_a     22.644117
_cell_length_b     33.352722
_cell_length_c     10.401495
_cell_angle_alpha  89.669799
_cell_angle_beta   100.2243
_cell_angle_gamma 91.884124
loop_
_atom_site_label
_atom_site_type_symbol
_atom_site_fract_x
_atom_site_fract_y
_atom_site_fract_z
_atom_type_partial_charge
Dy0 Dy 0.10579 0.58144 -0.03876 0.0
Dy1 Dy 0.10064 0.48123 0.00977 0.0
C2 C 1.0692 0.51704 0.72736 0.0
O3 O 1.00931 0.56319 0.90379 0.0
O4 O 1.00886 0.50434 0.02176 0.0
O5 O 0.14498 0.6322 0.8727 0.0
O6 O 0.07976 0.64126 -0.00137 0.0
O7 O 0.14993 0.51626 0.17484 0.0
O8 O 0.09118 0.56921 0.16098 0.0
O9 O 0.18912 0.49615 0.94387 0.0
O10 O 0.19989 0.56136 0.01657 0.0
O11 O 0.10484 0.43771 0.16376 0.0
O12 O 0.09611 0.41744 -0.03633 0.0
C13 C 0.98046 0.53435 -0.04343 0.0
O14 O 0.09298 0.55211 0.76879 0.0
O15 O 1.06107 0.48657 0.80237 0.0
C16 C 0.15963 0.68943 0.00773 0.0
C17 C 0.23082 0.75274 0.13833 0.0
C18 C 0.22214 0.74965 0.00145 0.0
C19 C 0.18652 0.7184 0.93674 0.0
C20 C 0.17127 0.691 0.14501 0.0
C21 C 0.20651 0.72248 0.20976 0.0
C22 C 0.11954 0.65807 0.937 0.0
C23 C 0.11952 0.54102 0.2307 0.0
C24 C 0.2224 0.52943 -0.02747 0.0
C25 C 1.05017 0.37621 0.11112 0.0
C26 C 0.97715 0.31221 0.18247 0.0
C27 C 0.98503 0.3481 0.25445 0.0
C28 C 1.02116 0.37969 0.21949 0.0
C29 C 1.0399 0.34106 0.03541 0.0
C30 C 1.00344 0.30946 0.07025 0.0
C31 C 0.09536 0.40708 0.08472 0.0
H32 H 0.24182 0.77195 0.94421 0.0
H33 H 0.17909 0.71725 0.83098 0.0
H34 H 0.15206 0.66846 0.2022 0.0
H35 H 0.2128 0.724 0.31534 0.0
H36 H 0.96447 0.35133 0.3401 0.0
H37 H 1.02778 0.40631 0.2802 0.0
H38 H 1.06177 0.33743 0.95184 0.0
H39 H 0.9981 0.28214 0.01294 0.0
Dy40 Dy 0.54063 0.02331 0.58844 0.0
Dy41 Dy 0.68567 0.04161 0.57193 0.0
C42 C 0.64491 0.02261 0.83558 0.0
O43 O 0.55667 0.08904 0.64029 0.0
O44 O 0.65786 0.10056 0.63461 0.0
O45 O 0.47983 0.98963 0.6894 0.0
O46 O 0.44497 0.02974 0.53044 0.0
O47 O 0.61953 0.07058 0.42134 0.0
O48 O 0.54814 0.02264 0.37986 0.0
O49 O 0.67104 0.97407 0.5868 0.0
O50 O 0.57104 0.9693 0.49914 0.0
O51 O 0.7417 0.04219 0.42359 0.0
O52 O 0.77971 0.05831 0.62445 0.0
C53 C 0.60556 0.11271 0.65527 0.0
O54 O 0.60126 1.00171 0.76451 0.0
O55 O 0.68456 0.04344 0.78332 0.0
C56 C 0.39946 0.96476 0.53439 0.0
C57 C 0.347 0.89427 0.40887 0.0
C58 C 0.34789 0.89988 0.54295 0.0
C59 C 0.37379 0.93497 0.60521 0.0
C60 C 0.39941 0.95866 0.40074 0.0
C61 C 0.37327 0.92386 0.33866 0.0
C62 C 0.43333 0.99924 0.6029 0.0
C63 C 0.58396 0.04865 0.33688 0.0
C64 C 0.62193 0.95226 0.54279 0.0
C65 C 0.81183 0.09713 0.4548 0.0
C66 C 0.85871 0.16938 0.36197 0.0
C67 C 0.85265 0.13425 0.28588 0.0
C68 C 0.82953 0.09849 0.33196 0.0
C69 C 0.81613 0.13259 0.52892 0.0
C70 C 0.83901 0.16827 0.48281 0.0
C71 C 0.78697 0.05922 0.50233 0.0
H72 H 0.32805 0.87733 0.59904 0.0
H73 H 0.37477 0.93855 0.70904 0.0
H74 H 0.42062 0.9804 0.34432 0.0
H75 H 0.37411 0.91984 0.23571 0.0
H76 H 0.86716 0.13417 0.1921 0.0
H77 H 0.8258 0.07179 0.27186 0.0
H78 H 0.80199 0.13283 0.62296 0.0
H79 H 0.84152 0.19505 0.54223 0.0
Dy80 Dy 0.59996 0.5908 0.88218 0.0
Dy81 Dy 0.58934 0.48758 0.8482 0.0
C82 C 0.59944 0.53313 0.12041 0.0
O83 O 0.69439 0.57111 0.92472 0.0
O84 O 0.686 0.50575 0.84988 0.0
O85 O 0.56387 0.64887 0.9187 0.0
O86 O 0.65218 0.64516 0.86831 0.0
O87 O 0.53323 0.51546 0.67899 0.0
O88 O 0.58754 0.57409 0.67658 0.0
O89 O 0.49633 0.50303 0.86833 0.0
O90 O 0.50461 0.57215 0.90185 0.0
O91 O 0.58984 0.4372 0.71785 0.0
O92 O 0.58407 0.42707 0.92457 0.0
C93 C 0.71823 0.53803 0.89317 0.0
O94 O 0.62474 0.56501 0.07719 0.0
O95 O 0.58536 0.50034 0.05235 0.0
C96 C 0.6043 0.70732 0.82188 0.0
C97 C 0.60826 0.78477 0.70794 0.0
C98 C 0.58794 0.77913 0.82724 0.0
C99 C 0.58625 0.74094 0.88363 0.0
C100 C 0.62286 0.71258 0.7004 0.0
C101 C 0.62484 0.75092 0.6441 0.0
C102 C 0.61131 0.66878 0.89455 0.0
C103 C 0.5481 0.54757 0.61898 0.0
C104 C 0.47357 0.53747 0.89324 0.0
C105 C 0.58396 0.36738 0.7886 0.0
C106 C 0.58608 0.28361 0.7519 0.0
C107 C 0.60681 0.31028 0.6635 0.0
C108 C 0.60541 0.35175 0.68117 0.0
C109 C 0.56229 0.3407 0.876 0.0
C110 C 0.5629 0.29912 0.85717 0.0
C111 C 0.58582 0.41124 0.81081 0.0
H112 H 0.57504 0.80455 0.87919 0.0
H113 H 0.57269 0.7379 -0.02188 0.0
H114 H 0.63734 0.68725 0.65057 0.0
H115 H 0.63966 0.75413 0.55104 0.0
H116 H 0.62463 0.29895 0.58124 0.0
H117 H 0.62235 0.37156 0.61223 0.0
H118 H 0.54529 0.35195 -0.0406 0.0
H119 H 0.54684 0.27909 0.92668 0.0
C120 C 0.31247 0.49968 0.90012 0.0
C121 C 0.28697 0.53171 -0.04382 0.0
C122 C 0.37235 0.50197 0.87981 0.0
C123 C 0.40966 0.53647 0.91387 0.0
H124 H 0.2859 0.47262 0.87056 0.0
H125 H 0.3893 0.47636 0.83598 0.0
S126 S 0.36585 0.62855 0.06772 0.0
N127 N 0.30498 0.59909 0.04815 0.0
N128 N 0.41661 0.60311 0.00976 0.0
C129 C 0.38491 0.56866 -0.0293 0.0
C130 C 0.32402 0.56634 -0.0081 0.0
C131 C 0.87128 0.22097 0.18948 0.0
C132 C 0.88781 0.20658 0.31814 0.0
C133 C 0.89974 0.25536 0.14619 0.0
C134 C 0.94557 0.27673 0.23012 0.0
H135 H 0.83597 0.20561 0.12188 0.0
H136 H 0.88568 0.26539 0.04653 0.0
S137 S 1.00847 0.24995 0.57273 0.0
N138 N 0.95515 0.21543 0.52646 0.0
N139 N 1.00789 0.27994 0.44575 0.0
C140 C 0.96257 0.26256 0.35856 0.0
C141 C 0.9339 0.22758 0.40236 0.0
C142 C 0.56589 0.89106 0.6019 0.0
C143 C 0.61915 0.9083 0.56974 0.0
C144 C 0.56258 0.85107 0.64332 0.0
C145 C 0.61198 0.82609 0.65232 0.0
H146 H 0.52675 0.90903 0.60022 0.0
H147 H 0.52106 0.83974 0.67023 0.0
S148 S 0.76043 0.85527 0.56941 0.0
N149 N 0.72159 0.89653 0.54372 0.0
N150 N 0.71511 0.82095 0.6189 0.0
C151 C 0.66481 0.84232 0.61526 0.0
C152 C 0.66851 0.88348 0.57511 0.0
C153 C 0.81573 0.50187 0.94278 0.0
C154 C 0.78485 0.53736 0.90727 0.0
C155 C 0.87886 0.5012 -0.03951 0.0
C156 C 0.91363 0.53582 0.94088 0.0
H157 H 0.79103 0.4745 -0.04088 0.0
H158 H 0.90044 0.47318 -0.01159 0.0
S159 S 0.85398 0.6362 0.84257 0.0
N160 N 0.79371 0.60781 0.85087 0.0
N161 N 0.91147 0.60667 0.88212 0.0
C162 C 0.88298 0.57141 0.90388 0.0
C163 C 0.81894 0.57216 0.88769 0.0
C164 C 0.3335 0.81952 0.38403 0.0
C165 C 0.3172 0.85828 0.34029 0.0
C166 C 0.30597 0.78534 0.31763 0.0
C167 C 0.26124 0.7889 0.20562 0.0
H168 H 0.36817 0.81564 0.46905 0.0
H169 H 0.32 0.75597 0.35357 0.0
S170 S 0.19931 0.88378 0.05948 0.0
N171 N 0.25175 0.89825 0.18309 0.0
N172 N 0.19959 0.8343 0.05939 0.0
C173 C 0.24411 0.82755 0.16265 0.0
C174 C 0.27218 0.86216 0.22974 0.0
C175 C 0.54052 0.21388 0.71562 0.0
C176 C 0.59161 0.23974 0.73688 0.0
C177 C 0.54535 0.17268 0.69229 0.0
C178 C 0.60154 0.1558 0.69055 0.0
H179 H 0.49642 0.22579 0.71341 0.0
H180 H 0.50454 0.15419 0.67275 0.0
S181 S 0.74959 0.21082 0.75865 0.0
N182 N 0.70009 0.24559 0.7657 0.0
N183 N 0.71002 0.16856 0.72521 0.0
C184 C 0.65319 0.18143 0.71814 0.0
C185 C 0.648 0.22326 0.74033 0.0
C186 C 1.03337 0.53838 0.50627 0.0
C187 C 1.06462 0.51033 0.59006 0.0
C188 C 1.0509 0.54759 0.38815 0.0
C189 C 0.10031 0.529 0.35186 0.0
H190 H 0.99921 0.55603 0.53794 0.0
H191 H 1.02718 0.57069 0.32824 0.0
S192 S 0.1908 0.44921 0.53366 0.0
N193 N 0.1414 0.46045 0.62585 0.0
N194 N 0.17599 0.4781 0.40327 0.0
C195 C 0.1284 0.49821 0.4305 0.0
C196 C 0.10963 0.48846 0.54975 0.0
C197 C 0.58927 1.00553 0.14778 0.0
C198 C 0.60048 0.04304 0.20904 0.0
C199 C 0.60924 0.99798 0.03177 0.0
C200 C 0.64048 0.0278 -0.02759 0.0
H201 H 0.56527 0.98163 0.18986 0.0
H202 H 0.59806 0.96902 -0.01453 0.0
S203 S 0.68207 0.13088 0.09537 0.0
N204 N 0.64618 0.11008 0.2051 0.0
N205 N 0.68293 0.09599 -0.01617 0.0
C206 C 0.65363 0.06511 0.03436 0.0
C207 C 0.63341 0.0728 0.15322 0.0
C208 C 0.55856 0.58044 0.41499 0.0
C209 C 0.53659 0.54736 0.47754 0.0
C210 C 0.57907 0.57528 0.29909 0.0
C211 C 0.57578 0.53726 0.24029 0.0
H212 H 0.56645 0.60942 0.46278 0.0
H213 H 0.59955 0.60112 0.25864 0.0
S214 S 0.4967 0.44586 0.33906 0.0
N215 N 0.49461 0.47897 0.45518 0.0
N216 N 0.53239 0.46901 0.23343 0.0
C217 C 0.54379 0.50573 0.29041 0.0
C218 C 0.5232 0.51109 0.40942 0.0
loop_
_geom_bond_atom_site_label_1
_geom_bond_atom_site_label_2
_geom_bond_distance
_geom_bond_site_symmetry_2
_ccdc_geom_bond_type
Dy0 O3 2.307 1_455 S
Dy0 O5 2.395 . S
Dy0 O6 2.379 . S
Dy0 O8 2.339 . S
Dy0 O10 2.298 . S
Dy0 O14 2.275 1_554 S
Dy0 C22 2.738 . S
Dy1 O4 2.298 1_455 S
Dy1 O7 2.275 . S
Dy1 O9 2.307 . S
Dy1 O11 2.395 1_455 S
Dy1 O12 2.379 1_454 S
Dy1 O15 2.339 1_554 S
Dy1 C31 2.738 1_455 S
C2 O14 1.254 . S
C2 O15 1.257 . S
O3 Dy0 2.307 1_655 S
O3 C13 1.266 . S
O4 Dy1 2.298 1_655 S
O4 C13 1.236 . S
O5 Dy0 2.395 . S
O5 C22 1.255 . S
O6 Dy0 2.379 . S
O6 C22 1.249 . S
O7 Dy1 2.275 . S
O7 C23 1.254 . S
O8 Dy0 2.339 . S
O8 C23 1.257 . S
O9 Dy1 2.307 . S
O9 C24 1.266 . S
O10 Dy0 2.298 . S
O10 C24 1.236 . S
O11 Dy1 2.395 1_655 S
O11 C31 1.255 . S
O12 Dy1 2.379 1_656 S
O12 C31 1.249 1_556 S
C13 O3 1.266 . S
C13 O4 1.236 . S
O14 Dy0 2.275 1_556 S
O14 C2 1.254 . S
O15 Dy1 2.339 1_556 S
O15 C2 1.257 . S
C16 C19 1.350 . S
C16 C20 1.328 . S
C16 C22 1.516 . S
C17 C18 1.304 1_554 S
C17 C21 1.323 . S
C18 C17 1.304 1_556 S
C18 C19 1.369 1_556 S
C18 H32 0.930 . S
C19 C16 1.350 . S
C19 C18 1.369 1_554 S
C19 H33 0.927 1_554 S
C20 C16 1.328 . S
C20 C21 1.433 . S
C20 H34 0.931 . S
C21 C17 1.323 . S
C21 C20 1.433 . S
C21 H35 0.933 . S
C22 Dy0 2.738 . S
C22 O5 1.255 . S
C22 O6 1.249 . S
C22 C16 1.516 . S
C23 O7 1.254 . S
C23 O8 1.257 . S
C24 O9 1.266 . S
C24 O10 1.236 . S
C25 C28 1.344 . S
C25 C29 1.328 . S
C25 C31 1.516 . S
C26 C27 1.304 . S
C26 C30 1.323 . S
C27 C26 1.304 . S
C27 C28 1.371 . S
C27 H36 0.930 . S
C28 C25 1.344 . S
C28 C27 1.371 . S
C28 H37 0.931 . S
C29 C25 1.328 . S
C29 C30 1.433 . S
C29 H38 0.931 1_554 S
C30 C26 1.323 . S
C30 C29 1.433 . S
C30 H39 0.933 1_554 S
C31 Dy1 2.738 1_655 S
C31 O11 1.255 . S
C31 O12 1.249 1_554 S
C31 C25 1.516 . S
H32 C18 0.930 . S
H33 C19 0.927 1_556 S
H34 C20 0.931 . S
H35 C21 0.933 . S
H36 C27 0.930 . S
H37 C28 0.931 . S
H38 C29 0.931 1_556 S
H39 C30 0.933 1_556 S
Dy40 O43 2.302 1_565 S
Dy40 O45 2.398 . S
Dy40 O46 2.382 . S
Dy40 O48 2.338 1_565 S
Dy40 O50 2.302 . S
Dy40 O54 2.275 1_565 S
Dy40 C62 2.742 . S
Dy41 O44 2.298 . S
Dy41 O47 2.275 . S
Dy41 O49 2.307 1_545 S
Dy41 O51 2.395 . S
Dy41 O52 2.379 . S
Dy41 O55 2.339 . S
Dy41 C71 2.738 . S
C42 O54 1.254 . S
C42 O55 1.257 . S
O43 Dy40 2.302 1_545 S
O43 C53 1.266 . S
O44 Dy41 2.298 . S
O44 C53 1.236 . S
O45 Dy40 2.398 . S
O45 C62 1.255 . S
O46 Dy40 2.382 . S
O46 C62 1.249 . S
O47 Dy41 2.275 . S
O47 C63 1.254 . S
O48 Dy40 2.338 1_545 S
O48 C63 1.257 . S
O49 Dy41 2.307 1_565 S
O49 C64 1.266 . S
O50 Dy40 2.302 . S
O50 C64 1.236 . S
O51 Dy41 2.395 . S
O51 C71 1.255 . S
O52 Dy41 2.379 . S
O52 C71 1.249 . S
C53 O43 1.266 . S
C53 O44 1.236 . S
O54 Dy40 2.275 1_545 S
O54 C42 1.254 . S
O55 Dy41 2.339 . S
O55 C42 1.257 . S
C56 C59 1.344 . S
C56 C60 1.328 . S
C56 C62 1.516 . S
C57 C58 1.304 . S
C57 C61 1.323 . S
C58 C57 1.304 . S
C58 C59 1.371 . S
C58 H72 0.930 . S
C59 C56 1.344 . S
C59 C58 1.371 . S
C59 H73 0.931 . S
C60 C56 1.328 . S
C60 C61 1.433 . S
C60 H74 0.931 . S
C61 C57 1.323 . S
C61 C60 1.433 . S
C61 H75 0.933 . S
C62 Dy40 2.742 . S
C62 O45 1.255 . S
C62 O46 1.249 . S
C62 C56 1.516 . S
C63 O47 1.254 . S
C63 O48 1.257 . S
C64 O49 1.266 . S
C64 O50 1.236 . S
C65 C68 1.344 . S
C65 C69 1.328 . S
C65 C71 1.516 . S
C66 C67 1.304 . S
C66 C70 1.323 . S
C67 C66 1.304 . S
C67 C68 1.371 . S
C67 H76 0.930 . S
C68 C65 1.344 . S
C68 C67 1.371 . S
C68 H77 0.931 . S
C69 C65 1.328 . S
C69 C70 1.433 . S
C69 H78 0.931 . S
C70 C66 1.323 . S
C70 C69 1.433 . S
C70 H79 0.933 . S
C71 Dy41 2.738 . S
C71 O51 1.255 . S
C71 O52 1.249 . S
C71 C65 1.516 . S
H72 C58 0.930 . S
H73 C59 0.931 . S
H74 C60 0.931 . S
H75 C61 0.933 . S
H76 C67 0.930 . S
H77 C68 0.931 . S
H78 C69 0.931 . S
H79 C70 0.933 . S
Dy80 O83 2.307 . S
Dy80 O85 2.395 . S
Dy80 O86 2.379 . S
Dy80 O88 2.339 . S
Dy80 O90 2.298 . S
Dy80 O94 2.275 1_556 S
Dy80 C102 2.738 . S
Dy81 O84 2.298 . S
Dy81 O87 2.275 . S
Dy81 O89 2.307 . S
Dy81 O91 2.395 . S
Dy81 O92 2.379 . S
Dy81 O95 2.339 1_556 S
Dy81 C111 2.738 . S
C82 O94 1.254 . S
C82 O95 1.257 . S
O83 Dy80 2.307 . S
O83 C93 1.266 . S
O84 Dy81 2.298 . S
O84 C93 1.236 . S
O85 Dy80 2.395 . S
O85 C102 1.255 . S
O86 Dy80 2.379 . S
O86 C102 1.249 . S
O87 Dy81 2.275 . S
O87 C103 1.254 . S
O88 Dy80 2.339 . S
O88 C103 1.257 . S
O89 Dy81 2.307 . S
O89 C104 1.266 . S
O90 Dy80 2.298 . S
O90 C104 1.236 . S
O91 Dy81 2.395 . S
O91 C111 1.255 . S
O92 Dy81 2.379 . S
O92 C111 1.249 . S
C93 O83 1.266 . S
C93 O84 1.236 . S
O94 Dy80 2.275 1_554 S
O94 C82 1.254 . S
O95 Dy81 2.339 1_554 S
O95 C82 1.257 . S
C96 C99 1.344 1_556 S
C96 C100 1.328 . S
C96 C102 1.516 . S
C97 C98 1.304 1_556 S
C97 C101 1.323 . S
C98 C97 1.304 1_554 S
C98 C99 1.371 . S
C98 H112 0.930 . S
C99 C96 1.344 1_554 S
C99 C98 1.371 . S
C99 H113 0.931 . S
C100 C96 1.328 . S
C100 C101 1.433 . S
C100 H114 0.931 . S
C101 C97 1.323 . S
C101 C100 1.433 . S
C101 H115 0.933 . S
C102 Dy80 2.738 . S
C102 O85 1.255 . S
C102 O86 1.249 . S
C102 C96 1.516 . S
C103 O87 1.254 . S
C103 O88 1.257 . S
C104 O89 1.266 . S
C104 O90 1.236 . S
C105 C108 1.344 . S
C105 C109 1.328 . S
C105 C111 1.516 . S
C106 C107 1.304 . S
C106 C110 1.323 . S
C107 C106 1.304 . S
C107 C108 1.371 . S
C107 H116 0.930 . S
C108 C105 1.344 . S
C108 C107 1.371 . S
C108 H117 0.931 . S
C109 C105 1.328 . S
C109 C110 1.433 . S
C109 H118 0.931 1_556 S
C110 C106 1.323 . S
C110 C109 1.433 . S
C110 H119 0.933 . S
C111 Dy81 2.738 . S
C111 O91 1.255 . S
C111 O92 1.249 . S
C111 C105 1.516 . S
H112 C98 0.930 . S
H113 C99 0.931 . S
H114 C100 0.931 . S
H115 C101 0.933 . S
H116 C107 0.930 . S
H117 C108 0.931 . S
H118 C109 0.931 1_554 S
H119 C110 0.933 . S
C120 C121 1.369 1_556 S
C120 C122 1.419 . S
C120 H124 0.930 . S
C121 C120 1.369 1_554 S
C121 C130 1.429 . S
C122 C120 1.419 . S
C122 C123 1.363 . S
C122 H125 0.929 . S
C123 C122 1.363 . S
C123 C129 1.428 1_556 S
H124 C120 0.930 . S
H125 C122 0.929 . S
S126 N127 1.613 . S
S126 N128 1.610 . S
N127 S126 1.613 . S
N127 C130 1.350 . S
N128 S126 1.610 . S
N128 C129 1.351 . S
C129 C123 1.428 1_554 S
C129 N128 1.351 . S
C129 C130 1.434 . S
C130 C121 1.429 . S
C130 N127 1.350 . S
C130 C129 1.434 . S
C131 C132 1.369 . S
C131 C133 1.419 . S
C131 H135 0.930 . S
C132 C131 1.369 . S
C132 C141 1.429 . S
C133 C131 1.419 . S
C133 C134 1.363 . S
C133 H136 0.929 . S
C134 C133 1.363 . S
C134 C140 1.428 . S
H135 C131 0.930 . S
H136 C133 0.929 . S
S137 N138 1.613 . S
S137 N139 1.610 . S
N138 S137 1.613 . S
N138 C141 1.350 . S
N139 S137 1.610 . S
N139 C140 1.351 . S
C140 C134 1.428 . S
C140 N139 1.351 . S
C140 C141 1.434 . S
C141 C132 1.429 . S
C141 N138 1.350 . S
C141 C140 1.434 . S
C142 C143 1.369 . S
C142 C144 1.419 . S
C142 H146 0.930 . S
C143 C142 1.369 . S
C143 C152 1.429 . S
C144 C142 1.419 . S
C144 C145 1.363 . S
C144 H147 0.929 . S
C145 C144 1.363 . S
C145 C151 1.428 . S
H146 C142 0.930 . S
H147 C144 0.929 . S
S148 N149 1.613 . S
S148 N150 1.610 . S
N149 S148 1.613 . S
N149 C152 1.350 . S
N150 S148 1.610 . S
N150 C151 1.351 . S
C151 C145 1.428 . S
C151 N150 1.351 . S
C151 C152 1.434 . S
C152 C143 1.429 . S
C152 N149 1.350 . S
C152 C151 1.434 . S
C153 C154 1.369 1_554 S
C153 C155 1.419 . S
C153 H157 0.930 . S
C154 C153 1.369 1_556 S
C154 C163 1.429 . S
C155 C153 1.419 . S
C155 C156 1.363 . S
C155 H158 0.929 . S
C156 C155 1.363 . S
C156 C162 1.428 1_554 S
H157 C153 0.930 . S
H158 C155 0.929 . S
S159 N160 1.613 . S
S159 N161 1.610 . S
N160 S159 1.613 . S
N160 C163 1.350 . S
N161 S159 1.610 . S
N161 C162 1.351 . S
C162 C156 1.428 1_556 S
C162 N161 1.351 . S
C162 C163 1.434 . S
C163 C154 1.429 . S
C163 N160 1.350 . S
C163 C162 1.434 . S
C164 C165 1.369 . S
C164 C166 1.419 . S
C164 H168 0.930 . S
C165 C164 1.369 . S
C165 C174 1.429 . S
C166 C164 1.419 . S
C166 C167 1.363 . S
C166 H169 0.929 . S
C167 C166 1.363 . S
C167 C173 1.428 . S
H168 C164 0.930 . S
H169 C166 0.929 . S
S170 N171 1.613 . S
S170 N172 1.610 . S
N171 S170 1.613 . S
N171 C174 1.350 . S
N172 S170 1.610 . S
N172 C173 1.351 . S
C173 C167 1.428 . S
C173 N172 1.351 . S
C173 C174 1.434 . S
C174 C165 1.429 . S
C174 N171 1.350 . S
C174 C173 1.434 . S
C175 C176 1.369 . S
C175 C177 1.419 . S
C175 H179 0.930 . S
C176 C175 1.369 . S
C176 C185 1.429 . S
C177 C175 1.419 . S
C177 C178 1.363 . S
C177 H180 0.929 . S
C178 C177 1.363 . S
C178 C184 1.428 . S
H179 C175 0.930 . S
H180 C177 0.929 . S
S181 N182 1.613 . S
S181 N183 1.610 . S
N182 S181 1.613 . S
N182 C185 1.350 . S
N183 S181 1.610 . S
N183 C184 1.351 . S
C184 C178 1.428 . S
C184 N183 1.351 . S
C184 C185 1.434 . S
C185 C176 1.429 . S
C185 N182 1.350 . S
C185 C184 1.434 . S
C186 C187 1.369 . S
C186 C188 1.419 . S
C186 H190 0.930 . S
C187 C186 1.369 . S
C187 C196 1.429 . S
C188 C186 1.419 . S
C188 C189 1.363 . S
C188 H191 0.929 . S
C189 C188 1.363 . S
C189 C195 1.428 . S
H190 C186 0.930 . S
H191 C188 0.929 . S
S192 N193 1.613 1_655 S
S192 N194 1.610 1_655 S
N193 S192 1.613 1_455 S
N193 C196 1.350 . S
N194 S192 1.610 1_455 S
N194 C195 1.351 . S
C195 C189 1.428 . S
C195 N194 1.351 . S
C195 C196 1.434 . S
C196 C187 1.429 . S
C196 N193 1.350 . S
C196 C195 1.434 . S
C197 C198 1.369 1_565 S
C197 C199 1.419 1_554 S
C197 H201 0.930 . S
C198 C197 1.369 1_545 S
C198 C207 1.429 . S
C199 C197 1.419 1_556 S
C199 C200 1.363 1_565 S
C199 H202 0.929 . S
C200 C199 1.363 1_545 S
C200 C206 1.428 . S
H201 C197 0.930 . S
H202 C199 0.929 . S
S203 N204 1.613 . S
S203 N205 1.610 1_554 S
N204 S203 1.613 . S
N204 C207 1.350 . S
N205 S203 1.610 1_556 S
N205 C206 1.351 . S
C206 C200 1.428 . S
C206 N205 1.351 . S
C206 C207 1.434 1_556 S
C207 C198 1.429 . S
C207 N204 1.350 . S
C207 C206 1.434 1_554 S
C208 C209 1.369 . S
C208 C210 1.419 . S
C208 H212 0.930 . S
C209 C208 1.369 . S
C209 C218 1.429 . S
C210 C208 1.419 . S
C210 C211 1.363 . S
C210 H213 0.929 . S
C211 C210 1.363 . S
C211 C217 1.428 . S
H212 C208 0.930 . S
H213 C210 0.929 . S
S214 N215 1.613 . S
S214 N216 1.610 . S
N215 S214 1.613 . S
N215 C218 1.350 . S
N216 S214 1.610 . S
N216 C217 1.351 . S
C217 C211 1.428 . S
C217 N216 1.351 . S
C217 C218 1.434 . S
C218 C209 1.429 . S
C218 N215 1.350 . S
C218 C217 1.434 . S
C121 C24 2.925 . S
C123 C104 2.891 . S
C132 C66 1.591 . S
C134 C26 1.642 . S
C143 C64 2.658 . S
C145 C97 2.598 . S
C154 C93 2.519 . S
C156 C13 2.543 . S
C165 C57 1.665 . S
C167 C17 1.711 . S
C176 C106 2.075 . S
C178 C53 2.033 . S
C187 C2 0.767 . S
C189 C23 0.779 . S
C198 C63 0.796 . S
C200 C42 0.782 . S
C209 C103 0.806 . S
C211 C82 0.788 . S
