# Generated by pormake.
# Topology pcu, (6)-cn, num edge types: 1
# Building blocks:
#     Node 0, Type 0, BuildingBlock: GEDQOX_clean_sbu_0, # of connection points: 6
#     Edge 1, Type (0, 0), BuildingBlock: XUDNAN_clean_linker_2, # of connection points: 2
#     Edge 2, Type (0, 0), BuildingBlock: XUDNAN_clean_linker_2, # of connection points: 2
#     Edge 3, Type (0, 0), BuildingBlock: XUDNAN_clean_linker_2, # of connection points: 2
# Relax obj value: 0.000
# Max RMSD: 0.000
# Mean RMSD: 0.000
data_MOF--net-pcu--node1-GEDQOX_clean_sbu_0--edge1-XUDNAN_clean_linker_2
_symmetry_space_group_name_H-M    P1
_symmetry_Int_Tables_number       1
_symmetry_cell_setting            triclinic
loop_
_symmetry_equiv_pos_as_xyz
'x, y, z'
_cell_length_a     15.439617
_cell_length_b     25.191027
_cell_length_c     14.403443
_cell_angle_alpha  84.419921
_cell_angle_beta   94.164969
_cell_angle_gamma 123.21723
loop_
_atom_site_label
_atom_site_type_symbol
_atom_site_fract_x
_atom_site_fract_y
_atom_site_fract_z
_atom_type_partial_charge
Nd0 Nd 0.08558 0.08497 0.0212 0.0
Nd1 Nd 0.95936 0.94418 0.99048 0.0
C2 C 0.15772 0.19851 0.08164 0.0
C3 C 0.1222 0.2422 0.08472 0.0
C4 C 0.01835 0.21929 0.10102 0.0
C5 C 0.98647 0.26163 0.10289 0.0
C6 C 0.05747 0.32771 0.08786 0.0
C7 C 0.16113 0.35028 0.07055 0.0
C8 C 0.19308 0.30795 0.06918 0.0
C9 C 0.07545 0.06101 0.83855 0.0
C10 C 0.83462 1.01085 0.98161 0.0
C11 C 0.88257 0.82633 0.94534 0.0
C12 C 0.89636 0.7729 0.97086 0.0
C13 C 0.99368 0.78063 0.96882 0.0
C14 C 1.00377 0.72882 0.9917 0.0
C15 C 0.917 0.66833 0.01771 0.0
C16 C 0.81991 0.66093 0.01956 0.0
C17 C 0.80978 0.71254 0.99622 0.0
C18 C 0.99416 0.97477 0.17464 0.0
C19 C 0.21403 0.02303 0.99604 0.0
O20 O 0.11107 0.14567 0.13523 0.0
O21 O 0.17634 0.19028 0.99896 0.0
O22 O 0.15508 0.10797 0.87866 0.0
O23 O 0.99899 0.03015 0.89255 0.0
O24 O 0.91523 0.0556 0.02736 0.0
O25 O 0.83831 0.96642 0.9445 0.0
O26 O 0.95707 0.87693 0.90026 0.0
O27 O 0.84173 0.84015 1.00771 0.0
O28 O 0.90589 0.92905 0.14355 0.0
O29 O 0.05861 1.00025 0.11075 0.0
O30 O 0.1255 0.97483 0.96519 0.0
O31 O 0.21872 0.0688 0.03848 0.0
H32 H 0.96176 0.16872 0.11217 0.0
H33 H 0.90589 0.24257 0.11521 0.0
H34 H 0.2181 0.40081 0.05965 0.0
H35 H 0.27347 0.32664 0.05612 0.0
H36 H 0.06207 0.82665 0.94973 0.0
H37 H 0.07981 0.73636 0.99042 0.0
H38 H 0.75121 0.61492 0.03796 0.0
H39 H 0.73386 0.70521 0.99769 0.0
H40 H 0.86574 0.92978 0.32715 0.0
H41 H 0.1847 0.05934 0.2427 0.0
H42 H 0.23666 0.09063 0.40349 0.0
H43 H 0.86878 0.03139 0.4895 0.0
H44 H 0.78935 0.9678 0.5744 0.0
H45 H 0.77518 0.95274 0.45271 0.0
H46 H 0.80822 0.86273 0.49293 0.0
H47 H 0.82271 0.87762 0.61478 0.0
H48 H 0.92448 0.87982 0.55706 0.0
H49 H 0.25678 0.1092 0.56832 0.0
H50 H 0.2444 0.11874 0.73355 0.0
H51 H 0.91254 0.97957 0.72034 0.0
C52 C 0.94641 0.96448 0.34304 0.0
C53 C 0.02138 0.99197 0.27249 0.0
C54 C 0.12604 0.03756 0.29547 0.0
C55 C 0.15646 0.0556 0.38673 0.0
C56 C 0.08136 0.0278 0.45462 0.0
C57 C 0.97844 0.98349 0.43461 0.0
C58 C 0.91416 0.96288 0.52182 0.0
C59 C 0.83201 0.97972 0.5088 0.0
C60 C 0.86445 0.89151 0.54818 0.0
C61 C 0.99734 1.00305 0.59317 0.0
C62 C 0.093 0.03958 0.55205 0.0
C63 C 0.18243 0.08101 0.6015 0.0
C64 C 0.17431 0.08611 0.69552 0.0
C65 C 0.07741 0.05029 0.73981 0.0
C66 C 0.98755 1.00753 0.6882 0.0
H67 H 0.40006 0.07421 0.09634 0.0
H68 H 0.23909 0.97732 0.84627 0.0
H69 H 0.38562 0.9704 0.81182 0.0
H70 H 0.66624 0.16394 1.00006 0.0
H71 H 0.72272 0.15384 0.1089 0.0
H72 H 0.60979 0.15789 0.10902 0.0
H73 H 0.51501 0.04972 0.20676 0.0
H74 H 0.62742 0.04535 0.2049 0.0
H75 H 0.50394 0.98154 0.16289 0.0
H76 H 0.53639 0.96305 0.81097 0.0
H77 H 0.69385 0.96132 0.83959 0.0
H78 H 0.76501 0.06481 0.08764 0.0
C79 C 0.39717 0.05286 0.03351 0.0
C80 C 0.30828 0.026 0.97425 0.0
C81 C 0.30606 0.99753 0.89323 0.0
C82 C 0.38909 0.99364 0.87262 0.0
C83 C 0.47425 0.01868 0.93344 0.0
C84 C 0.47997 0.04824 1.01182 0.0
C85 C 0.57892 0.06753 0.06781 0.0
C86 C 0.64853 0.14015 0.07159 0.0
C87 C 0.55483 0.03402 0.16641 0.0
C88 C 0.62609 0.04303 1.00926 0.0
C89 C 0.56401 1.01516 0.93211 0.0
C90 C 0.58675 0.98551 0.87033 0.0
C91 C 0.67588 0.98437 0.88755 0.0
C92 C 0.74145 1.01306 0.96555 0.0
C93 C 0.71669 0.04323 0.02681 0.0
H94 H 0.0321 0.63385 0.93246 0.0
H95 H 0.8251 0.57775 0.16221 0.0
H96 H 0.83769 0.48482 0.20413 0.0
H97 H 0.9339 0.47569 0.86774 0.0
H98 H 0.05892 0.49269 0.83955 0.0
H99 H 0.03429 0.55517 0.82758 0.0
H100 H 0.19226 0.62264 0.93634 0.0
H101 H 0.21749 0.56042 0.94849 0.0
H102 H 0.20005 0.58924 0.05076 0.0
H103 H 0.87169 0.39741 0.22089 0.0
H104 H 0.92693 0.32276 0.21273 0.0
H105 H 0.11224 0.43518 0.97238 0.0
C106 C 0.99018 0.60236 0.99213 0.0
C107 C 0.92723 0.61315 0.04381 0.0
C108 C 0.87261 0.57015 0.12067 0.0
C109 C 0.87968 0.51734 0.14536 0.0
C110 C 0.94169 0.5079 0.0926 0.0
C111 C 0.99613 0.5492 0.01765 0.0
C112 C 0.05653 0.52773 0.97208 0.0
C113 C 0.01862 0.51188 0.87074 0.0
C114 C 0.17352 0.578 0.97727 0.0
C115 C 0.02822 0.46824 0.03361 0.0
C116 C 0.96153 0.45755 0.10245 0.0
C117 C 0.92379 0.40527 0.16717 0.0
C118 C 0.95515 0.36286 0.1616 0.0
C119 C 0.02389 0.37286 0.0919 0.0
C120 C 0.06062 0.42646 0.02717 0.0
loop_
_geom_bond_atom_site_label_1
_geom_bond_atom_site_label_2
_geom_bond_distance
_geom_bond_site_symmetry_2
_ccdc_geom_bond_type
Nd0 C2 2.836 . S
Nd0 O20 2.500 1_556 S
Nd0 O21 2.492 . S
Nd0 O22 2.487 . S
Nd0 O23 2.682 1_445 S
Nd0 O24 2.410 1_455 S
Nd0 O29 2.414 1_556 S
Nd0 O31 2.424 . S
Nd1 C11 2.836 . S
Nd1 O23 2.414 1_554 S
Nd1 O25 2.424 . S
Nd1 O26 2.500 1_554 S
Nd1 O27 2.492 . S
Nd1 O28 2.487 . S
Nd1 O29 2.682 1_665 S
Nd1 O30 2.410 1_655 S
C2 Nd0 2.836 . S
C2 C3 1.498 . S
C2 O20 1.258 1_556 S
C2 O21 1.239 . S
C3 C2 1.498 . S
C3 C4 1.366 1_456 S
C3 C8 1.407 . S
C4 C3 1.366 1_654 S
C4 C5 1.392 . S
C4 H32 0.930 . S
C5 C4 1.392 . S
C5 C6 1.398 1_654 S
C5 H33 0.929 . S
C6 C5 1.398 1_456 S
C6 C7 1.352 . S
C7 C6 1.352 . S
C7 C8 1.384 . S
C7 H34 0.930 . S
C8 C3 1.407 . S
C8 C7 1.384 . S
C8 H35 0.929 . S
C9 O22 1.241 . S
C9 O23 1.273 1_445 S
C10 O24 1.251 1_565 S
C10 O25 1.268 1_556 S
C11 Nd1 2.836 . S
C11 C12 1.498 . S
C11 O26 1.258 1_554 S
C11 O27 1.239 . S
C12 C11 1.498 . S
C12 C13 1.366 1_654 S
C12 C17 1.407 . S
C13 C12 1.366 1_456 S
C13 C14 1.392 . S
C13 H36 0.930 . S
C14 C13 1.392 . S
C14 C15 1.398 1_456 S
C14 H37 0.929 . S
C15 C14 1.398 1_654 S
C15 C16 1.352 . S
C16 C15 1.352 . S
C16 C17 1.384 . S
C16 H38 0.930 . S
C17 C12 1.407 . S
C17 C16 1.384 . S
C17 H39 0.929 . S
C18 O28 1.241 . S
C18 O29 1.273 1_665 S
C19 O30 1.251 1_545 S
C19 O31 1.268 1_554 S
O20 Nd0 2.500 1_554 S
O20 C2 1.258 1_554 S
O21 Nd0 2.492 . S
O21 C2 1.239 . S
O22 Nd0 2.487 . S
O22 C9 1.241 . S
O23 Nd0 2.682 1_665 S
O23 Nd1 2.414 1_556 S
O23 C9 1.273 1_665 S
O24 Nd0 2.410 1_655 S
O24 C10 1.251 1_545 S
O25 Nd1 2.424 . S
O25 C10 1.268 1_554 S
O26 Nd1 2.500 1_556 S
O26 C11 1.258 1_556 S
O27 Nd1 2.492 . S
O27 C11 1.239 . S
O28 Nd1 2.487 . S
O28 C18 1.241 . S
O29 Nd0 2.414 1_554 S
O29 Nd1 2.682 1_445 S
O29 C18 1.273 1_445 S
O30 Nd1 2.410 1_455 S
O30 C19 1.251 1_565 S
O31 Nd0 2.424 . S
O31 C19 1.268 1_556 S
H32 C4 0.930 . S
H33 C5 0.929 . S
H34 C7 0.930 . S
H35 C8 0.929 . S
H36 C13 0.930 . S
H37 C14 0.929 . S
H38 C16 0.930 . S
H39 C17 0.929 . S
H40 C52 0.930 . S
H41 C54 0.930 . S
H42 C55 0.930 . S
H43 C59 0.959 . S
H44 C59 0.959 . S
H45 C59 0.961 . S
H46 C60 0.960 . S
H47 C60 0.961 1_655 S
H48 C60 0.959 . S
H49 C63 0.929 . S
H50 C64 0.931 . S
H51 C66 0.930 . S
C52 H40 0.930 . S
C52 C53 1.399 1_665 S
C52 C57 1.399 . S
C53 C52 1.399 1_445 S
C53 C54 1.376 . S
C54 H41 0.930 . S
C54 C53 1.376 . S
C54 C55 1.388 . S
C55 H42 0.930 . S
C55 C54 1.388 . S
C55 C56 1.390 . S
C56 C55 1.390 . S
C56 C57 1.394 1_445 S
C56 C62 1.465 . S
C57 C52 1.399 . S
C57 C56 1.394 1_665 S
C57 C58 1.516 . S
C58 C57 1.516 . S
C58 C59 1.502 . S
C58 C60 1.561 1_655 S
C58 C61 1.526 . S
C59 H43 0.959 . S
C59 H44 0.959 . S
C59 H45 0.961 . S
C59 C58 1.502 . S
C60 H46 0.960 . S
C60 H47 0.961 1_455 S
C60 H48 0.959 . S
C60 C58 1.561 1_455 S
C61 C58 1.526 . S
C61 C62 1.396 1_665 S
C61 C66 1.390 . S
C62 C56 1.465 . S
C62 C61 1.396 1_445 S
C62 C63 1.399 . S
C63 H49 0.929 . S
C63 C62 1.399 . S
C63 C64 1.385 . S
C64 H50 0.931 . S
C64 C63 1.385 . S
C64 C65 1.389 . S
C65 C64 1.389 . S
C65 C66 1.387 1_445 S
C66 H51 0.930 . S
C66 C61 1.390 . S
C66 C65 1.387 1_665 S
H67 C79 0.930 . S
H68 C81 0.930 . S
H69 C82 0.930 . S
H70 C86 0.959 . S
H71 C86 0.959 1_565 S
H72 C86 0.961 1_565 S
H73 C87 0.960 . S
H74 C87 0.961 . S
H75 C87 0.959 . S
H76 C90 0.929 . S
H77 C91 0.931 . S
H78 C93 0.930 . S
C79 H67 0.930 . S
C79 C80 1.411 1_554 S
C79 C84 1.399 . S
C80 C79 1.411 1_556 S
C80 C81 1.378 1_565 S
C81 H68 0.930 . S
C81 C80 1.378 1_545 S
C81 C82 1.388 . S
C82 H69 0.930 . S
C82 C81 1.388 . S
C82 C83 1.390 . S
C83 C82 1.390 . S
C83 C84 1.394 1_546 S
C83 C89 1.465 . S
C84 C79 1.399 . S
C84 C83 1.394 1_564 S
C84 C85 1.516 . S
C85 C84 1.516 . S
C85 C86 1.502 1_565 S
C85 C87 1.561 . S
C85 C88 1.526 . S
C86 H70 0.959 . S
C86 H71 0.959 1_545 S
C86 H72 0.961 1_545 S
C86 C85 1.502 1_545 S
C87 H73 0.960 . S
C87 H74 0.961 . S
C87 H75 0.959 . S
C87 C85 1.561 . S
C88 C85 1.526 . S
C88 C89 1.396 1_564 S
C88 C93 1.390 . S
C89 C83 1.465 . S
C89 C88 1.396 1_546 S
C89 C90 1.399 . S
C90 H76 0.929 . S
C90 C89 1.399 . S
C90 C91 1.385 . S
C91 H77 0.931 . S
C91 C90 1.385 . S
C91 C92 1.389 . S
C92 C91 1.389 . S
C92 C93 1.387 1_546 S
C93 H78 0.930 . S
C93 C88 1.390 . S
C93 C92 1.387 1_564 S
H94 C106 0.930 . S
H95 C108 0.930 . S
H96 C109 0.930 . S
H97 C113 0.959 . S
H98 C113 0.959 1_455 S
H99 C113 0.961 1_455 S
H100 C114 0.960 . S
H101 C114 0.961 . S
H102 C114 0.959 . S
H103 C117 0.929 . S
H104 C118 0.931 . S
H105 C120 0.930 . S
C106 H94 0.930 . S
C106 C107 1.399 1_556 S
C106 C111 1.399 . S
C107 C106 1.399 1_554 S
C107 C108 1.376 1_455 S
C108 H95 0.930 . S
C108 C107 1.376 1_655 S
C108 C109 1.388 . S
C109 H96 0.930 . S
C109 C108 1.388 . S
C109 C110 1.390 . S
C110 C109 1.390 . S
C110 C111 1.394 1_654 S
C110 C116 1.465 . S
C111 C106 1.399 . S
C111 C110 1.394 1_456 S
C111 C112 1.516 . S
C112 C111 1.516 . S
C112 C113 1.502 1_455 S
C112 C114 1.561 . S
C112 C115 1.526 . S
C113 H97 0.959 . S
C113 H98 0.959 1_655 S
C113 H99 0.961 1_655 S
C113 C112 1.502 1_655 S
C114 H100 0.960 . S
C114 H101 0.961 . S
C114 H102 0.959 . S
C114 C112 1.561 . S
C115 C112 1.526 . S
C115 C116 1.396 1_456 S
C115 C120 1.390 . S
C116 C110 1.465 . S
C116 C115 1.396 1_654 S
C116 C117 1.399 . S
C117 H103 0.929 . S
C117 C116 1.399 . S
C117 C118 1.385 . S
C118 H104 0.931 . S
C118 C117 1.385 . S
C118 C119 1.389 . S
C119 C118 1.389 . S
C119 C120 1.387 1_654 S
C120 H105 0.930 . S
C120 C115 1.390 . S
C120 C119 1.387 1_456 S
C53 C18 1.478 1_445 S
C65 C9 1.410 . S
C80 C19 1.484 1_566 S
C92 C10 1.473 1_545 S
C107 C15 1.489 1_455 S
C119 C6 1.495 1_654 S
