# Generated by pormake.
# Topology ths, (3)-cn, num edge types: 1
# Building blocks:
#     Node 0, Type 0, BuildingBlock: OLANEW_clean_sbu_2, # of connection points: 3
#     Node 1, Type 0, BuildingBlock: OLANEW_clean_sbu_2, # of connection points: 3
#     Node 2, Type 0, BuildingBlock: OLANEW_clean_sbu_2, # of connection points: 3
#     Node 3, Type 0, BuildingBlock: OLANEW_clean_sbu_2, # of connection points: 3
#     Node 4, Type 0, BuildingBlock: OLANEW_clean_sbu_2, # of connection points: 3
#     Node 5, Type 0, BuildingBlock: OLANEW_clean_sbu_2, # of connection points: 3
#     Node 6, Type 0, BuildingBlock: OLANEW_clean_sbu_2, # of connection points: 3
#     Node 7, Type 0, BuildingBlock: OLANEW_clean_sbu_2, # of connection points: 3
#     Edge 8, Type (0, 0), BuildingBlock: OJICUG_clean_linker_0, # of connection points: 2
#     Edge 9, Type (0, 0), BuildingBlock: OJICUG_clean_linker_0, # of connection points: 2
#     Edge 10, Type (0, 0), BuildingBlock: OJICUG_clean_linker_0, # of connection points: 2
#     Edge 11, Type (0, 0), BuildingBlock: OJICUG_clean_linker_0, # of connection points: 2
#     Edge 12, Type (0, 0), BuildingBlock: OJICUG_clean_linker_0, # of connection points: 2
#     Edge 13, Type (0, 0), BuildingBlock: OJICUG_clean_linker_0, # of connection points: 2
#     Edge 14, Type (0, 0), BuildingBlock: OJICUG_clean_linker_0, # of connection points: 2
#     Edge 15, Type (0, 0), BuildingBlock: OJICUG_clean_linker_0, # of connection points: 2
#     Edge 16, Type (0, 0), BuildingBlock: OJICUG_clean_linker_0, # of connection points: 2
#     Edge 17, Type (0, 0), BuildingBlock: OJICUG_clean_linker_0, # of connection points: 2
#     Edge 18, Type (0, 0), BuildingBlock: OJICUG_clean_linker_0, # of connection points: 2
#     Edge 19, Type (0, 0), BuildingBlock: OJICUG_clean_linker_0, # of connection points: 2
# Relax obj value: 0.000
# Max RMSD: 0.047
# Mean RMSD: 0.039
data_MOF--net-ths--node1-OLANEW_clean_sbu_2--edge1-OJICUG_clean_linker_0
_symmetry_space_group_name_H-M    P1
_symmetry_Int_Tables_number       1
_symmetry_cell_setting            triclinic
loop_
_symmetry_equiv_pos_as_xyz
'x, y, z'
_cell_length_a     24.736848
_cell_length_b     22.860317
_cell_length_c     57.259644
_cell_angle_alpha  96.701802
_cell_angle_beta   90.633711
_cell_angle_gamma 90.284182
loop_
_atom_site_label
_atom_site_type_symbol
_atom_site_fract_x
_atom_site_fract_y
_atom_site_fract_z
_atom_type_partial_charge
O0 O 0.07283 0.87784 0.08745 0.0
Cd1 Cd 0.06032 0.84447 0.04547 0.0
O2 O 0.15184 0.83441 0.08886 0.0
Cd3 Cd 0.14157 0.77874 0.05552 0.0
O4 O 0.14028 0.69183 0.03518 0.0
C5 C 0.09602 0.66473 0.02994 0.0
O6 O 0.05017 0.69108 0.03569 0.0
C7 C 0.11594 0.8682 0.09865 0.0
C8 C 0.05919 0.94089 0.01947 0.0
O9 O 0.01522 0.9199 0.02684 0.0
O10 O 0.10364 0.91589 0.02416 0.0
O11 O 0.69161 0.57425 0.27003 0.0
Cd12 Cd 0.71061 0.55369 0.22811 0.0
O13 O 0.61384 0.61272 0.26165 0.0
Cd14 Cd 0.54132 0.66563 0.26946 0.0
O15 O 0.47192 0.72466 0.2706 0.0
C16 C 0.47988 0.77867 0.26835 0.0
O17 O 0.52965 0.79738 0.26606 0.0
C18 C 0.64826 0.60002 0.27691 0.0
C19 C 0.79702 0.62422 0.21721 0.0
O20 O 0.74817 0.64223 0.2161 0.0
O21 O 0.80486 0.57246 0.22304 0.0
O22 O 0.56834 0.28294 0.55574 0.0
Cd23 Cd 0.55393 0.28536 0.51337 0.0
O24 O 0.65336 0.25708 0.55092 0.0
Cd25 Cd 0.64614 0.23828 0.5129 0.0
O26 O 0.64148 0.15852 0.48807 0.0
C27 C 0.60078 0.12488 0.48928 0.0
O28 O 0.56169 0.14211 0.5038 0.0
C29 C 0.61391 0.27083 0.56447 0.0
C30 C 0.55759 0.39666 0.49765 0.0
O31 O 0.51285 0.3746 0.50373 0.0
O32 O 0.60078 0.36673 0.49956 0.0
O33 O 0.1662 0.39414 0.814 0.0
Cd34 Cd 0.16608 0.44565 0.77891 0.0
O35 O 0.10178 0.33734 0.79755 0.0
Cd36 Cd 0.04104 0.26727 0.79336 0.0
O37 O 0.97204 0.21659 0.77795 0.0
C38 C 0.9253 0.23904 0.78049 0.0
O39 O 0.92013 0.29016 0.79335 0.0
C40 C 0.1329 0.35206 0.81508 0.0
C41 C 0.24768 0.40515 0.74819 0.0
O42 O 0.25591 0.44869 0.76409 0.0
O43 O 0.20069 0.38102 0.74677 0.0
O44 O 0.07019 0.2664 0.91549 0.0
Cd45 Cd 0.05492 0.26497 0.95772 0.0
O46 O 0.15456 0.29558 0.92151 0.0
Cd47 Cd 0.14625 0.31524 0.95939 0.0
O48 O 0.14062 0.3943 0.98447 0.0
C49 C 0.0988 0.42609 0.98358 0.0
O50 O 0.05902 0.40745 0.96917 0.0
C51 C 0.11573 0.27988 0.9074 0.0
C52 C 0.05714 0.15425 0.97399 0.0
O53 O 0.01274 0.17602 0.96725 0.0
O54 O 0.10068 0.18418 0.97248 0.0
O55 O 0.19222 0.98147 0.20344 0.0
Cd56 Cd 0.21312 1.00312 0.24535 0.0
O57 O 0.11388 0.94434 0.21172 0.0
Cd58 Cd 0.04017 0.89198 0.2039 0.0
O59 O 0.97016 0.833 0.20292 0.0
C60 C 0.97782 0.77912 0.2054 0.0
O61 O 0.02756 0.76061 0.2078 0.0
C62 C 0.14816 0.95603 0.19651 0.0
C63 C 0.29959 0.93314 0.25656 0.0
O64 O 0.25066 0.91501 0.25767 0.0
O65 O 0.3075 0.98481 0.25061 0.0
O66 O 0.57638 0.6762 0.38571 0.0
Cd67 Cd 0.56492 0.70874 0.42768 0.0
O68 O 0.65686 0.71749 0.38516 0.0
Cd69 Cd 0.64773 0.77282 0.41851 0.0
O70 O 0.64575 0.85997 0.43859 0.0
C71 C 0.60119 0.88524 0.44393 0.0
O72 O 0.55566 0.85682 0.43845 0.0
C73 C 0.61984 0.68491 0.37493 0.0
C74 C 0.5625 0.61158 0.45324 0.0
O75 O 0.5188 0.63301 0.44563 0.0
O76 O 0.6073 0.6365 0.44902 0.0
O77 O 0.66214 0.15337 0.65765 0.0
Cd78 Cd 0.66209 0.10113 0.69253 0.0
O79 O 0.5979 0.20927 0.67362 0.0
Cd80 Cd 0.53772 0.27906 0.67749 0.0
O81 O 0.47003 0.32955 0.69306 0.0
C82 C 0.42303 0.30679 0.69079 0.0
O83 O 0.41675 0.25548 0.67807 0.0
C84 C 0.62908 0.19528 0.6564 0.0
C85 C 0.74558 0.14079 0.72341 0.0
O86 O 0.75248 0.09733 0.70747 0.0
O87 O 0.69899 0.16515 0.72484 0.0
C88 C 0.04919 0.5185 -0.00217 0.0
C89 C 0.09736 0.48596 -0.00345 0.0
H90 H 0.01092 0.60045 0.00945 0.0
C91 C 0.14484 0.51243 0.00662 0.0
H92 H 0.01193 0.49934 -0.00977 0.0
C93 C 0.14442 0.57059 0.0173 0.0
C94 C 0.09636 0.60331 0.01843 0.0
H95 H 0.18268 0.48868 0.00582 0.0
H96 H 0.18181 0.58983 0.02472 0.0
C97 C 0.04862 0.57646 0.0088 0.0
C98 C 0.87804 0.75846 0.20508 0.0
C99 C 0.93144 0.73858 0.20697 0.0
H100 H 0.79372 0.73792 0.20672 0.0
C101 C 0.94013 0.68 0.21121 0.0
H102 H 0.86992 0.80328 0.20177 0.0
C103 C 0.89648 0.64256 0.21407 0.0
C104 C 0.84311 0.66281 0.21272 0.0
H105 H 0.98074 0.66319 0.21271 0.0
H106 H 0.90464 0.59798 0.2177 0.0
C107 C 0.83435 0.72095 0.20791 0.0
C108 C 0.60851 0.47904 0.48225 0.0
C109 C 0.559 0.45375 0.48774 0.0
H110 H 0.6485 0.54882 0.46723 0.0
C111 C 0.51074 0.48225 0.4827 0.0
H112 H 0.64644 0.4583 0.48594 0.0
C113 C 0.5119 0.53397 0.47184 0.0
C114 C 0.56137 0.5586 0.46591 0.0
H115 H 0.4719 0.46396 0.48669 0.0
H116 H 0.47394 0.55424 0.46784 0.0
C117 C 0.60969 0.53098 0.47153 0.0
C118 C 0.88493 0.15991 0.75143 0.0
C119 C 0.87833 0.21102 0.76731 0.0
H120 H 0.84821 0.09764 0.72511 0.0
C121 C 0.82698 0.23698 0.76952 0.0
H122 H 0.92394 0.13875 0.74933 0.0
C123 C 0.78355 0.21338 0.75564 0.0
C124 C 0.79058 0.16337 0.73922 0.0
H125 H 0.82048 0.27628 0.78164 0.0
H126 H 0.74475 0.23509 0.75745 0.0
C127 C 0.84153 0.13638 0.73751 0.0
C128 C 0.32549 0.30867 0.70205 0.0
C129 C 0.37715 0.33474 0.70409 0.0
H130 H 0.24404 0.31053 0.7143 0.0
C131 C 0.38516 0.38591 0.71993 0.0
H132 H 0.31791 0.26932 0.68997 0.0
C133 C 0.34283 0.40942 0.73395 0.0
C134 C 0.29157 0.38238 0.73237 0.0
H135 H 0.42446 0.40713 0.72192 0.0
H136 H 0.35059 0.44825 0.74629 0.0
C137 C 0.28313 0.33228 0.71602 0.0
C138 C 0.3367 0.83654 0.2659 0.0
C139 C 0.34563 0.89473 0.26113 0.0
H140 H 0.37199 0.75425 0.27197 0.0
C141 C 0.39907 0.91516 0.25983 0.0
H142 H 0.29601 0.81944 0.26704 0.0
C143 C 0.44261 0.87782 0.26269 0.0
C144 C 0.43371 0.81916 0.26685 0.0
H145 H 0.40736 0.95979 0.25625 0.0
H146 H 0.48326 0.89474 0.26122 0.0
C147 C 0.38027 0.79913 0.26871 0.0
C148 C 0.55304 0.97184 0.46493 0.0
C149 C 0.60071 0.94688 0.45519 0.0
H150 H 0.51566 0.04774 0.48334 0.0
C151 C 0.64785 0.98168 0.45597 0.0
H152 H 0.51602 0.94622 0.46456 0.0
C153 C 0.64745 0.04006 0.46641 0.0
C154 C 0.60006 0.06469 0.47657 0.0
H155 H 0.68515 0.96391 0.44845 0.0
H156 H 0.68461 0.06547 0.46693 0.0
C157 C 0.55281 0.03004 0.47565 0.0
C158 C 0.10745 1.02082 0.00129 0.0
C159 C 0.05876 0.99346 0.00655 0.0
H160 H 0.14517 0.09294 -0.01311 0.0
C161 C 0.00963 1.01795 1e-05 0.0
H162 H 0.14602 1.00309 0.00606 0.0
C163 C 0.00916 0.06928 -0.01112 0.0
C164 C 0.0578 0.09753 0.98419 0.0
H165 H 0.9714 0.99786 0.00373 0.0
H166 H 0.97057 0.08746 0.98441 0.0
C167 C 0.10697 0.07238 -0.0097 0.0
C168 C 0.08769 0.93589 0.16097 0.0
C169 C 0.1395 0.93632 0.17127 0.0
H170 H 0.03957 0.91477 0.12971 0.0
C171 C 0.18365 0.91714 0.15727 0.0
H172 H 0.05318 0.95185 0.17124 0.0
C173 C 0.17594 0.89578 0.13363 0.0
C174 C 0.12403 0.89418 0.12334 0.0
H175 H 0.22406 0.91722 0.16477 0.0
H176 H 0.21072 0.88017 0.12343 0.0
C177 C 0.08004 0.91531 0.13715 0.0
C178 C 0.67865 0.65746 0.34021 0.0
C179 C 0.62695 0.65948 0.3502 0.0
H180 H 0.72569 0.63647 0.30924 0.0
C181 C 0.58224 0.63944 0.33605 0.0
H182 H 0.71396 0.67223 0.35066 0.0
C183 C 0.58898 0.61958 0.31221 0.0
C184 C 0.64057 0.61883 0.30219 0.0
H185 H 0.54192 0.64031 0.34327 0.0
H186 H 0.55393 0.60444 0.30168 0.0
C187 C 0.68542 0.63684 0.31651 0.0
C188 C 0.66933 0.24682 0.59882 0.0
C189 C 0.61934 0.26344 0.58977 0.0
H190 H 0.71135 0.21243 0.62704 0.0
C191 C 0.57357 0.26433 0.60417 0.0
H192 H 0.7055 0.24584 0.58829 0.0
C193 C 0.57706 0.24506 0.62648 0.0
C194 C 0.62639 0.22481 0.63479 0.0
H195 H 0.53439 0.27652 0.59771 0.0
H196 H 0.5404 0.24233 0.63643 0.0
C197 C 0.67272 0.22743 0.62101 0.0
C198 C 0.07625 0.28438 0.86704 0.0
C199 C 0.12172 0.28643 0.8821 0.0
H200 H 0.04375 0.30479 0.83418 0.0
C201 C 0.1719 0.30336 0.87364 0.0
H202 H 0.03692 0.27196 0.87305 0.0
C203 C 0.17578 0.32188 0.85133 0.0
C204 C 0.12975 0.32335 0.83687 0.0
H205 H 0.20784 0.30522 0.88469 0.0
H206 H 0.21457 0.33712 0.84574 0.0
C207 C 0.08021 0.30285 0.84464 0.0
loop_
_geom_bond_atom_site_label_1
_geom_bond_atom_site_label_2
_geom_bond_distance
_geom_bond_site_symmetry_2
_ccdc_geom_bond_type
O0 Cd1 2.300 . S
O0 C7 1.275 . S
Cd1 O0 2.300 . S
Cd1 O9 2.381 . S
Cd1 O10 2.378 . S
O2 Cd3 2.385 . S
O2 C7 1.255 . S
Cd3 O2 2.385 . S
Cd3 O4 2.317 . S
O4 Cd3 2.317 . S
O4 C5 1.232 . S
C5 O4 1.232 . S
C5 O6 1.218 . S
O6 C5 1.218 . S
C7 O0 1.275 . S
C7 O2 1.255 . S
C8 O9 1.258 . S
C8 O10 1.256 . S
O9 Cd1 2.381 . S
O9 C8 1.258 . S
O10 Cd1 2.378 . S
O10 C8 1.256 . S
O11 Cd12 2.300 . S
O11 C18 1.275 . S
Cd12 O11 2.300 . S
Cd12 O20 2.381 . S
Cd12 O21 2.378 . S
O13 Cd14 2.385 . S
O13 C18 1.255 . S
Cd14 O13 2.385 . S
Cd14 O15 2.317 . S
O15 Cd14 2.317 . S
O15 C16 1.232 . S
C16 O15 1.232 . S
C16 O17 1.218 . S
O17 C16 1.218 . S
C18 O11 1.275 . S
C18 O13 1.255 . S
C19 O20 1.258 . S
C19 O21 1.256 . S
O20 Cd12 2.381 . S
O20 C19 1.258 . S
O21 Cd12 2.378 . S
O21 C19 1.256 . S
O22 Cd23 2.300 . S
O22 C29 1.275 . S
Cd23 O22 2.300 . S
Cd23 O31 2.381 . S
Cd23 O32 2.378 . S
O24 Cd25 2.385 . S
O24 C29 1.255 . S
Cd25 O24 2.385 . S
Cd25 O26 2.317 . S
O26 Cd25 2.317 . S
O26 C27 1.232 . S
C27 O26 1.232 . S
C27 O28 1.218 . S
O28 C27 1.218 . S
C29 O22 1.275 . S
C29 O24 1.255 . S
C30 O31 1.258 . S
C30 O32 1.256 . S
O31 Cd23 2.381 . S
O31 C30 1.258 . S
O32 Cd23 2.378 . S
O32 C30 1.256 . S
O33 Cd34 2.300 . S
O33 C40 1.275 . S
Cd34 O33 2.300 . S
Cd34 O42 2.381 . S
Cd34 O43 2.378 . S
O35 Cd36 2.385 . S
O35 C40 1.255 . S
Cd36 O35 2.385 . S
Cd36 O37 2.317 . S
O37 Cd36 2.317 . S
O37 C38 1.232 . S
C38 O37 1.232 . S
C38 O39 1.218 1_455 S
O39 C38 1.218 1_655 S
C40 O33 1.275 . S
C40 O35 1.255 . S
C41 O42 1.258 . S
C41 O43 1.256 . S
O42 Cd34 2.381 . S
O42 C41 1.258 . S
O43 Cd34 2.378 . S
O43 C41 1.256 . S
O44 Cd45 2.300 . S
O44 C51 1.275 . S
Cd45 O44 2.300 . S
Cd45 O53 2.381 . S
Cd45 O54 2.378 . S
O46 Cd47 2.385 . S
O46 C51 1.255 . S
Cd47 O46 2.385 . S
Cd47 O48 2.317 . S
O48 Cd47 2.317 . S
O48 C49 1.232 . S
C49 O48 1.232 . S
C49 O50 1.218 . S
O50 C49 1.218 . S
C51 O44 1.275 . S
C51 O46 1.255 . S
C52 O53 1.258 . S
C52 O54 1.256 . S
O53 Cd45 2.381 . S
O53 C52 1.258 . S
O54 Cd45 2.378 . S
O54 C52 1.256 . S
O55 Cd56 2.300 . S
O55 C62 1.275 . S
Cd56 O55 2.300 . S
Cd56 O64 2.381 . S
Cd56 O65 2.378 . S
O57 Cd58 2.385 . S
O57 C62 1.255 . S
Cd58 O57 2.385 . S
Cd58 O59 2.317 . S
O59 Cd58 2.317 . S
O59 C60 1.232 . S
C60 O59 1.232 . S
C60 O61 1.218 1_455 S
O61 C60 1.218 1_655 S
C62 O55 1.275 . S
C62 O57 1.255 . S
C63 O64 1.258 . S
C63 O65 1.256 . S
O64 Cd56 2.381 . S
O64 C63 1.258 . S
O65 Cd56 2.378 . S
O65 C63 1.256 . S
O66 Cd67 2.300 . S
O66 C73 1.275 . S
Cd67 O66 2.300 . S
Cd67 O75 2.381 . S
Cd67 O76 2.378 . S
O68 Cd69 2.385 . S
O68 C73 1.255 . S
Cd69 O68 2.385 . S
Cd69 O70 2.317 . S
O70 Cd69 2.317 . S
O70 C71 1.232 . S
C71 O70 1.232 . S
C71 O72 1.218 . S
O72 C71 1.218 . S
C73 O66 1.275 . S
C73 O68 1.255 . S
C74 O75 1.258 . S
C74 O76 1.256 . S
O75 Cd67 2.381 . S
O75 C74 1.258 . S
O76 Cd67 2.378 . S
O76 C74 1.256 . S
O77 Cd78 2.300 . S
O77 C84 1.275 . S
Cd78 O77 2.300 . S
Cd78 O86 2.381 . S
Cd78 O87 2.378 . S
O79 Cd80 2.385 . S
O79 C84 1.255 . S
Cd80 O79 2.385 . S
Cd80 O81 2.317 . S
O81 Cd80 2.317 . S
O81 C82 1.232 . S
C82 O81 1.232 . S
C82 O83 1.218 . S
O83 C82 1.218 . S
C84 O77 1.275 . S
C84 O79 1.255 . S
C85 O86 1.258 . S
C85 O87 1.256 . S
O86 Cd78 2.381 . S
O86 C85 1.258 . S
O87 Cd78 2.378 . S
O87 C85 1.256 . S
C88 C89 1.387 . S
C88 H92 0.950 1_455 S
C88 C97 1.390 1_556 S
C89 C88 1.387 . S
C89 C91 1.387 . S
H90 C97 0.950 1_655 S
C91 C89 1.387 . S
C91 C93 1.390 1_556 S
C91 H95 0.950 . S
H92 C88 0.950 1_655 S
C93 C91 1.390 1_554 S
C93 C94 1.387 . S
C93 H96 0.950 . S
C94 C93 1.387 . S
C94 C97 1.387 . S
H95 C91 0.950 . S
H96 C93 0.950 . S
C97 C88 1.390 1_554 S
C97 H90 0.950 1_455 S
C97 C94 1.387 . S
C98 C99 1.387 . S
C98 H102 0.950 . S
C98 C107 1.390 . S
C99 C98 1.387 . S
C99 C101 1.387 . S
H100 C107 0.950 . S
C101 C99 1.387 . S
C101 C103 1.390 . S
C101 H105 0.950 . S
H102 C98 0.950 . S
C103 C101 1.390 . S
C103 C104 1.387 . S
C103 H106 0.950 . S
C104 C103 1.387 . S
C104 C107 1.387 . S
H105 C101 0.950 . S
H106 C103 0.950 . S
C107 C98 1.390 . S
C107 H100 0.950 . S
C107 C104 1.387 . S
C108 C109 1.387 . S
C108 H112 0.950 . S
C108 C117 1.390 . S
C109 C108 1.387 . S
C109 C111 1.387 . S
H110 C117 0.950 . S
C111 C109 1.387 . S
C111 C113 1.390 . S
C111 H115 0.950 . S
H112 C108 0.950 . S
C113 C111 1.390 . S
C113 C114 1.387 . S
C113 H116 0.950 . S
C114 C113 1.387 . S
C114 C117 1.387 . S
H115 C111 0.950 . S
H116 C113 0.950 . S
C117 C108 1.390 . S
C117 H110 0.950 . S
C117 C114 1.387 . S
C118 C119 1.387 . S
C118 H122 0.950 . S
C118 C127 1.390 . S
C119 C118 1.387 . S
C119 C121 1.387 . S
H120 C127 0.950 . S
C121 C119 1.387 . S
C121 C123 1.390 . S
C121 H125 0.950 . S
H122 C118 0.950 . S
C123 C121 1.390 . S
C123 C124 1.387 . S
C123 H126 0.950 . S
C124 C123 1.387 . S
C124 C127 1.387 . S
H125 C121 0.950 . S
H126 C123 0.950 . S
C127 C118 1.390 . S
C127 H120 0.950 . S
C127 C124 1.387 . S
C128 C129 1.387 . S
C128 H132 0.950 . S
C128 C137 1.390 . S
C129 C128 1.387 . S
C129 C131 1.387 . S
H130 C137 0.950 . S
C131 C129 1.387 . S
C131 C133 1.390 . S
C131 H135 0.950 . S
H132 C128 0.950 . S
C133 C131 1.390 . S
C133 C134 1.387 . S
C133 H136 0.950 . S
C134 C133 1.387 . S
C134 C137 1.387 . S
H135 C131 0.950 . S
H136 C133 0.950 . S
C137 C128 1.390 . S
C137 H130 0.950 . S
C137 C134 1.387 . S
C138 C139 1.387 . S
C138 H142 0.950 . S
C138 C147 1.390 . S
C139 C138 1.387 . S
C139 C141 1.387 . S
H140 C147 0.950 . S
C141 C139 1.387 . S
C141 C143 1.390 . S
C141 H145 0.950 . S
H142 C138 0.950 . S
C143 C141 1.390 . S
C143 C144 1.387 . S
C143 H146 0.950 . S
C144 C143 1.387 . S
C144 C147 1.387 . S
H145 C141 0.950 . S
H146 C143 0.950 . S
C147 C138 1.390 . S
C147 H140 0.950 . S
C147 C144 1.387 . S
C148 C149 1.387 . S
C148 H152 0.950 . S
C148 C157 1.390 1_565 S
C149 C148 1.387 . S
C149 C151 1.387 . S
H150 C157 0.950 . S
C151 C149 1.387 . S
C151 C153 1.390 1_565 S
C151 H155 0.950 . S
H152 C148 0.950 . S
C153 C151 1.390 1_545 S
C153 C154 1.387 . S
C153 H156 0.950 . S
C154 C153 1.387 . S
C154 C157 1.387 . S
H155 C151 0.950 . S
H156 C153 0.950 . S
C157 C148 1.390 1_545 S
C157 H150 0.950 . S
C157 C154 1.387 . S
C158 C159 1.387 . S
C158 H162 0.950 . S
C158 C167 1.390 1_564 S
C159 C158 1.387 . S
C159 C161 1.387 . S
H160 C167 0.950 . S
C161 C159 1.387 . S
C161 C163 1.390 1_564 S
C161 H165 0.950 1_455 S
H162 C158 0.950 . S
C163 C161 1.390 1_546 S
C163 C164 1.387 . S
C163 H166 0.950 1_455 S
C164 C163 1.387 . S
C164 C167 1.387 . S
H165 C161 0.950 1_655 S
H166 C163 0.950 1_655 S
C167 C158 1.390 1_546 S
C167 H160 0.950 . S
C167 C164 1.387 . S
C168 C169 1.387 . S
C168 H172 0.950 . S
C168 C177 1.390 . S
C169 C168 1.387 . S
C169 C171 1.387 . S
H170 C177 0.950 . S
C171 C169 1.387 . S
C171 C173 1.390 . S
C171 H175 0.950 . S
H172 C168 0.950 . S
C173 C171 1.390 . S
C173 C174 1.387 . S
C173 H176 0.950 . S
C174 C173 1.387 . S
C174 C177 1.387 . S
H175 C171 0.950 . S
H176 C173 0.950 . S
C177 C168 1.390 . S
C177 H170 0.950 . S
C177 C174 1.387 . S
C178 C179 1.387 . S
C178 H182 0.950 . S
C178 C187 1.390 . S
C179 C178 1.387 . S
C179 C181 1.387 . S
H180 C187 0.950 . S
C181 C179 1.387 . S
C181 C183 1.390 . S
C181 H185 0.950 . S
H182 C178 0.950 . S
C183 C181 1.390 . S
C183 C184 1.387 . S
C183 H186 0.950 . S
C184 C183 1.387 . S
C184 C187 1.387 . S
H185 C181 0.950 . S
H186 C183 0.950 . S
C187 C178 1.390 . S
C187 H180 0.950 . S
C187 C184 1.387 . S
C188 C189 1.387 . S
C188 H192 0.950 . S
C188 C197 1.390 . S
C189 C188 1.387 . S
C189 C191 1.387 . S
H190 C197 0.950 . S
C191 C189 1.387 . S
C191 C193 1.390 . S
C191 H195 0.950 . S
H192 C188 0.950 . S
C193 C191 1.390 . S
C193 C194 1.387 . S
C193 H196 0.950 . S
C194 C193 1.387 . S
C194 C197 1.387 . S
H195 C191 0.950 . S
H196 C193 0.950 . S
C197 C188 1.390 . S
C197 H190 0.950 . S
C197 C194 1.387 . S
C198 C199 1.387 . S
C198 H202 0.950 . S
C198 C207 1.390 . S
C199 C198 1.387 . S
C199 C201 1.387 . S
H200 C207 0.950 . S
C201 C199 1.387 . S
C201 C203 1.390 . S
C201 H205 0.950 . S
H202 C198 0.950 . S
C203 C201 1.390 . S
C203 C204 1.387 . S
C203 H206 0.950 . S
C204 C203 1.387 . S
C204 C207 1.387 . S
H205 C201 0.950 . S
H206 C203 0.950 . S
C207 C198 1.390 . S
C207 H200 0.950 . S
C207 C204 1.387 . S
C89 C49 1.289 . S
C94 C5 1.289 . S
C99 C60 1.285 1_655 S
C104 C19 1.488 . S
C109 C30 1.497 . S
C114 C74 1.497 . S
C119 C38 1.286 1_655 S
C124 C85 1.488 . S
C129 C82 1.284 . S
C134 C41 1.488 . S
C139 C63 1.488 . S
C144 C16 1.285 . S
C149 C71 1.289 . S
C154 C27 1.289 . S
C159 C8 1.497 . S
C164 C52 1.497 . S
C169 C62 1.470 . S
C174 C7 1.452 . S
C179 C73 1.455 . S
C184 C18 1.468 . S
C189 C29 1.452 . S
C194 C84 1.470 . S
C199 C51 1.452 . S
C204 C40 1.470 . S
