# Generated by pormake.
# Topology unn, (4)-cn, num edge types: 1
# Building blocks:
#     Node 0, Type 0, BuildingBlock: MUDLON_clean_sbu_0, # of connection points: 4
#     Node 1, Type 0, BuildingBlock: MUDLON_clean_sbu_0, # of connection points: 4
#     Node 2, Type 0, BuildingBlock: MUDLON_clean_sbu_0, # of connection points: 4
#     Node 3, Type 0, BuildingBlock: MUDLON_clean_sbu_0, # of connection points: 4
#     Node 4, Type 0, BuildingBlock: MUDLON_clean_sbu_0, # of connection points: 4
#     Node 5, Type 0, BuildingBlock: MUDLON_clean_sbu_0, # of connection points: 4
#     Node 6, Type 0, BuildingBlock: MUDLON_clean_sbu_0, # of connection points: 4
#     Node 7, Type 0, BuildingBlock: MUDLON_clean_sbu_0, # of connection points: 4
#     Node 8, Type 0, BuildingBlock: MUDLON_clean_sbu_0, # of connection points: 4
#     Node 9, Type 0, BuildingBlock: MUDLON_clean_sbu_0, # of connection points: 4
#     Node 10, Type 0, BuildingBlock: MUDLON_clean_sbu_0, # of connection points: 4
#     Node 11, Type 0, BuildingBlock: MUDLON_clean_sbu_0, # of connection points: 4
#     Node 12, Type 0, BuildingBlock: MUDLON_clean_sbu_0, # of connection points: 4
#     Node 13, Type 0, BuildingBlock: MUDLON_clean_sbu_0, # of connection points: 4
#     Node 14, Type 0, BuildingBlock: MUDLON_clean_sbu_0, # of connection points: 4
#     Node 15, Type 0, BuildingBlock: MUDLON_clean_sbu_0, # of connection points: 4
#     Node 16, Type 0, BuildingBlock: MUDLON_clean_sbu_0, # of connection points: 4
#     Node 17, Type 0, BuildingBlock: MUDLON_clean_sbu_0, # of connection points: 4
#     Edge 18, Type (0, 0), None
#     Edge 19, Type (0, 0), None
#     Edge 20, Type (0, 0), None
#     Edge 21, Type (0, 0), None
#     Edge 22, Type (0, 0), None
#     Edge 23, Type (0, 0), None
#     Edge 24, Type (0, 0), None
#     Edge 25, Type (0, 0), None
#     Edge 26, Type (0, 0), None
#     Edge 27, Type (0, 0), None
#     Edge 28, Type (0, 0), None
#     Edge 29, Type (0, 0), None
#     Edge 30, Type (0, 0), None
#     Edge 31, Type (0, 0), None
#     Edge 32, Type (0, 0), None
#     Edge 33, Type (0, 0), None
#     Edge 34, Type (0, 0), None
#     Edge 35, Type (0, 0), None
#     Edge 36, Type (0, 0), None
#     Edge 37, Type (0, 0), None
#     Edge 38, Type (0, 0), None
#     Edge 39, Type (0, 0), None
#     Edge 40, Type (0, 0), None
#     Edge 41, Type (0, 0), None
#     Edge 42, Type (0, 0), None
#     Edge 43, Type (0, 0), None
#     Edge 44, Type (0, 0), None
#     Edge 45, Type (0, 0), None
#     Edge 46, Type (0, 0), None
#     Edge 47, Type (0, 0), None
#     Edge 48, Type (0, 0), None
#     Edge 49, Type (0, 0), None
#     Edge 50, Type (0, 0), None
#     Edge 51, Type (0, 0), None
#     Edge 52, Type (0, 0), None
#     Edge 53, Type (0, 0), None
# Relax obj value: 0.098
# Max RMSD: 0.215
# Mean RMSD: 0.212
data_MOF--net-unn--node1-MUDLON_clean_sbu_0--edge1-none
_symmetry_space_group_name_H-M    P1
_symmetry_Int_Tables_number       1
_symmetry_cell_setting            triclinic
loop_
_symmetry_equiv_pos_as_xyz
'x, y, z'
_cell_length_a     22.403712
_cell_length_b     22.218188
_cell_length_c     20.217808
_cell_angle_alpha  90.419407
_cell_angle_beta   90.098552
_cell_angle_gamma 121.01
loop_
_atom_site_label
_atom_site_type_symbol
_atom_site_fract_x
_atom_site_fract_y
_atom_site_fract_z
_atom_type_partial_charge
Mg0 Mg 0.04688 0.74151 0.22587 0.0
C1 C 0.08998 0.74323 0.09447 0.0
O2 O 0.06284 0.78336 0.09447 0.0
C3 C 1.01647 0.70708 0.36348 0.0
O4 O 0.03739 0.77417 0.36266 0.0
C5 C 0.91095 0.65534 0.16095 0.0
O6 O 0.93128 0.611 0.17496 0.0
O7 O 0.94916 0.71964 0.17901 0.0
O8 O 0.0924 0.71465 0.14774 0.0
O9 O 0.13504 0.83969 0.26424 0.0
C10 C 0.18109 0.83093 0.29263 0.0
O11 O 0.17225 0.76776 0.29425 0.0
O12 O 1.01442 0.67538 0.31025 0.0
Mg13 Mg 0.31856 0.30149 0.22879 0.0
C14 C 0.3582 0.31311 0.36654 0.0
O15 O 0.29044 0.27065 0.36888 0.0
C16 C 0.33172 0.34413 0.09246 0.0
O17 O 0.28939 0.27589 0.088 0.0
C18 C 0.24143 0.35995 0.29522 0.0
O19 O 0.30591 0.41314 0.29642 0.0
O20 O 0.22776 0.30234 0.26728 0.0
O21 O 0.388 0.33611 0.31137 0.0
O22 O 0.32029 0.21082 0.18824 0.0
C23 C 0.37759 0.2251 0.16103 0.0
O24 O 0.43015 0.29022 0.16143 0.0
O25 O 0.3542 0.37318 0.14858 0.0
Mg26 Mg 0.75415 0.02621 0.23074 0.0
C27 C 0.758 0.07221 0.36229 0.0
O28 O 0.79749 0.04449 0.36259 0.0
C29 C 0.7179 0.99249 0.09318 0.0
O30 O 0.78402 1.01193 0.09475 0.0
C31 C 0.66961 0.89112 0.297 0.0
O32 O 0.62566 0.91166 0.28279 0.0
O33 O 0.73294 0.92867 0.27837 0.0
O34 O 0.72924 0.07407 0.3088 0.0
O35 O 0.85141 0.11369 0.19219 0.0
C36 C 0.8431 0.15978 0.16292 0.0
O37 O 0.78073 0.15153 0.16046 0.0
O38 O 0.6873 0.9923 0.14606 0.0
Mg39 Mg 0.05422 0.3056 0.73206 0.0
C40 C 0.91794 0.23127 0.66322 0.0
O41 O 0.93283 0.29668 0.66484 0.0
C42 C 0.18993 0.36398 0.80167 0.0
O43 O 0.17869 0.41641 0.80419 0.0
C44 C 0.08793 0.34678 0.5966 0.0
O45 O 0.06276 0.27879 0.59445 0.0
O46 O 0.09273 0.37703 0.65155 0.0
O47 O 0.96005 0.21572 0.68993 0.0
O48 O 1.01686 0.33715 0.81406 0.0
C49 C 1.01905 0.31003 0.86836 0.0
O50 O 0.04343 0.26753 0.87009 0.0
O51 O 0.14565 0.30684 0.77233 0.0
Mg52 Mg 0.77952 0.76312 0.72335 0.0
C53 C 0.71698 0.83835 0.78832 0.0
O54 O 0.66477 0.77305 0.78732 0.0
C55 C 0.85809 0.70617 0.66013 0.0
O56 O 0.79312 0.65419 0.65647 0.0
C57 C 0.76678 0.72384 0.86061 0.0
O58 O 0.80959 0.79212 0.86229 0.0
O59 O 0.74288 0.69251 0.80542 0.0
O60 O 0.77506 0.85308 0.76255 0.0
O61 O 0.72042 0.73267 0.63329 0.0
C62 C 0.73329 0.78396 0.59641 0.0
O63 O 0.77233 0.84859 0.61851 0.0
O64 O 0.87199 0.76361 0.68865 0.0
Mg65 Mg 0.3188 0.03501 0.72543 0.0
C66 C 0.32711 1.00365 0.58777 0.0
O67 O 0.28558 0.02892 0.58514 0.0
C68 C 0.36108 0.06908 0.8615 0.0
O69 O 0.29361 0.04324 0.86378 0.0
C70 C 0.37621 0.17254 0.6594 0.0
O71 O 0.42858 0.16176 0.65758 0.0
O72 O 0.31941 0.12727 0.68712 0.0
O73 O 0.35132 0.99885 0.64298 0.0
O74 O 0.22994 0.94011 0.76637 0.0
C75 C 0.24502 0.89783 0.7938 0.0
O76 O 0.30977 0.91246 0.79343 0.0
O77 O 0.39033 0.07412 0.80642 0.0
Mg78 Mg 0.71615 0.10356 0.56257 0.0
C79 C 0.74347 0.09557 0.42394 0.0
O80 O 0.72005 0.13889 0.42327 0.0
C81 C 0.68528 0.05825 0.69823 0.0
O82 O 0.71296 0.12645 0.70383 0.0
C83 C 0.57928 0.04421 0.49635 0.0
O84 O 0.59095 0.99205 0.49459 0.0
O85 O 0.62366 0.10196 0.52478 0.0
O86 O 0.74956 0.07092 0.4783 0.0
O87 O 0.8112 0.19294 0.60405 0.0
C88 C 0.85366 0.17745 0.63004 0.0
O89 O 0.83886 0.11207 0.62816 0.0
O90 O 0.67851 0.03029 0.64162 0.0
Mg91 Mg 0.98764 0.63535 0.56352 0.0
C92 C 0.91314 0.69735 0.63064 0.0
O93 O 0.97808 0.74953 0.63311 0.0
C94 C 0.04489 0.55618 0.49936 0.0
O95 O 0.09724 0.62137 0.4981 0.0
C96 C 1.03033 0.64558 0.69931 0.0
O97 O 0.9626 0.60294 0.70216 0.0
O98 O 0.05919 0.67075 0.64423 0.0
O99 O 0.89875 0.63946 0.60275 0.0
O100 O 1.02102 0.70239 0.47969 0.0
C101 C 0.99649 0.66963 0.42538 0.0
O102 O 0.95383 0.60133 0.42504 0.0
O103 O 0.98777 0.54257 0.52655 0.0
Mg104 Mg 0.44162 0.37338 0.56206 0.0
C105 C 0.39855 0.33562 0.42724 0.0
O106 O 0.46579 0.36004 0.42554 0.0
C107 C 0.43843 0.40677 0.69911 0.0
O108 O 0.48098 0.38264 0.69896 0.0
C109 C 0.52041 0.51051 0.49147 0.0
O110 O 0.45662 0.49849 0.48832 0.0
O111 O 0.53202 0.46674 0.52099 0.0
O112 O 0.36959 0.33381 0.48168 0.0
O113 O 0.44019 0.2807 0.60042 0.0
C114 C 0.38353 0.23578 0.62858 0.0
O115 O 0.3314 0.2469 0.63083 0.0
O116 O 0.41132 0.41058 0.64531 0.0
Mg117 Mg 0.7285 0.65155 0.06314 0.0
C118 C 0.74802 0.68482 0.92201 0.0
O119 O 0.7243 0.61711 0.92063 0.0
C120 C 0.69723 0.65846 0.20156 0.0
O121 O 0.72411 0.61822 0.20352 0.0
C122 C 0.59033 0.56567 0.00258 0.0
O123 O 0.60108 0.62963 0.00327 0.0
O124 O 0.63638 0.55477 0.02775 0.0
O125 O 0.75603 0.71637 0.97703 0.0
O126 O 0.82876 0.67204 0.10211 0.0
C127 C 0.84377 0.62913 0.12667 0.0
O128 O 0.79794 0.56149 0.12419 0.0
O129 O 0.69095 0.68216 0.14654 0.0
Mg130 Mg 0.44207 0.09342 0.0582 0.0
C131 C 0.38498 0.17019 0.12784 0.0
O132 O 0.33237 0.10509 0.12743 0.0
C133 C 0.51683 0.03484 -0.01333 0.0
O134 O 0.45189 0.98269 -0.01613 0.0
C135 C 0.43369 0.0522 0.1941 0.0
O136 O 0.47765 0.12024 0.19667 0.0
O137 O 0.40795 1.02218 0.13895 0.0
O138 O 0.44199 0.1845 0.09997 0.0
O139 O 0.37158 0.06138 0.97665 0.0
C140 C 0.40126 0.08839 0.9223 0.0
O141 O 0.46892 0.13171 0.9207 0.0
O142 O 0.53143 0.09162 0.01698 0.0
Mg143 Mg 0.98607 0.35988 0.06473 0.0
C144 C 0.99655 0.32751 0.92883 0.0
O145 O 0.95413 0.3517 0.92581 0.0
C146 C 1.02568 0.3915 0.20294 0.0
O147 O 0.95805 0.36447 0.20546 0.0
C148 C 0.04816 0.49667 -0.00536 0.0
O149 O 0.09932 0.48405 -0.0065 0.0
O150 O 0.99119 0.45346 0.02346 0.0
O151 O 1.02 0.32241 -0.01563 0.0
O152 O 0.89252 0.26729 0.1027 0.0
C153 C 0.90165 0.22157 0.13162 0.0
O154 O 0.96447 0.23104 0.13496 0.0
O155 O 0.05507 0.39732 0.14777 0.0
Mg156 Mg 0.39036 0.43102 0.89914 0.0
C157 C 0.42025 0.42607 0.76115 0.0
O158 O 0.39508 0.46791 0.76126 0.0
C159 C 0.35424 0.38588 0.03303 0.0
O160 O 0.37879 0.45369 0.03681 0.0
C161 C 0.25295 0.37182 0.83293 0.0
O162 O 0.26431 0.31948 0.83015 0.0
O163 O 0.29774 0.42927 0.8615 0.0
O164 O 0.42618 0.40055 0.81502 0.0
O165 O 0.48334 0.52151 0.94244 0.0
C166 C 0.52703 0.50894 0.97043 0.0
O167 O 0.51517 0.44457 0.97028 0.0
O168 O 0.35181 0.35746 0.97764 0.0
Mg169 Mg 0.64879 0.96774 0.89097 0.0
C170 C 0.68074 0.97345 0.03064 0.0
O171 O 0.61266 0.93301 0.02982 0.0
C172 C 0.66338 1.01518 0.75689 0.0
O173 O 0.61888 0.94743 0.75152 0.0
C174 C 0.57156 0.027 0.95504 0.0
O175 O 0.63652 0.07906 0.95831 0.0
O176 O 0.55745 0.96954 0.92643 0.0
O177 O 0.71368 0.99735 0.97694 0.0
O178 O 0.65085 0.87805 0.84781 0.0
C179 C 0.7085 0.89287 0.82099 0.0
O180 O 0.76103 0.95799 0.82263 0.0
O181 O 0.68773 0.04252 0.81324 0.0
Mg182 Mg 0.11695 0.69672 0.89481 0.0
C183 C 0.11198 0.72762 0.03275 0.0
O184 O 0.15471 0.70372 0.03325 0.0
C185 C 0.07183 0.66473 0.75926 0.0
O186 O 0.13908 0.68976 0.7555 0.0
C187 C 0.0569 0.5597 0.962 0.0
O188 O 1.00589 0.57254 0.96379 0.0
O189 O 0.11381 0.60312 0.93321 0.0
O190 O 0.08647 0.73285 0.9785 0.0
O191 O 0.20626 0.79123 0.85376 0.0
C192 C 0.19139 0.83389 0.82683 0.0
O193 O 0.1268 0.81972 0.82777 0.0
O194 O 0.04382 0.65927 0.81512 0.0
Mg195 Mg 0.3808 0.97405 0.39218 0.0
C196 C 0.24326 0.88974 0.3242 0.0
O197 O 0.25332 0.95336 0.32168 0.0
C198 C 0.51656 0.03578 0.46384 0.0
O199 O 0.50474 0.08784 0.46531 0.0
C200 C 0.41261 1.01222 0.25469 0.0
O201 O 0.38603 0.94401 0.25246 0.0
O202 O 0.41815 0.0428 0.30961 0.0
O203 O 0.28849 0.87999 0.35293 0.0
O204 O 0.34338 1.0082 0.47227 0.0
C205 C 0.34678 0.98305 0.52735 0.0
O206 O 0.37046 0.94 0.53 0.0
O207 O 0.47308 0.97832 0.43443 0.0
Mg208 Mg 0.11048 0.42397 0.39882 0.0
C209 C 0.05233 0.50062 0.46771 0.0
O210 O 1.00036 0.43526 0.46947 0.0
C211 C 0.18665 0.36687 0.32793 0.0
O212 O 0.12227 0.31349 0.32723 0.0
C213 C 0.10663 0.38625 0.53574 0.0
O214 O 0.14854 0.45468 0.53751 0.0
O215 O 0.08043 0.3551 0.4811 0.0
O216 O 0.10887 0.51481 0.4389 0.0
O217 O 0.038 0.38743 0.31847 0.0
C218 C 0.06654 0.41325 0.26341 0.0
O219 O 0.13382 0.45824 0.26083 0.0
O220 O 0.20052 0.42412 0.3568 0.0
Mg221 Mg 0.66499 0.70926 0.39846 0.0
C222 C 0.67594 0.67678 0.26256 0.0
O223 O 0.63436 0.70192 0.25983 0.0
C224 C 0.70813 0.77155 0.5286 0.0
O225 O 0.67059 0.79751 0.50761 0.0
C226 C 0.64403 0.82451 0.33232 0.0
O227 O 0.57692 0.77862 0.33508 0.0
O228 O 0.68677 0.80994 0.35775 0.0
O229 O 0.69865 0.67052 0.31824 0.0
O230 O 0.56751 0.61891 0.43193 0.0
C231 C 0.57769 0.57392 0.46096 0.0
O232 O 0.64116 0.5851 0.46448 0.0
O233 O 0.72146 0.7348 0.48985 0.0
loop_
_geom_bond_atom_site_label_1
_geom_bond_atom_site_label_2
_geom_bond_distance
_geom_bond_site_symmetry_2
_ccdc_geom_bond_type
Mg0 O7 2.141 1_455 S
Mg0 O8 2.048 . S
Mg0 O9 2.048 . S
Mg0 O12 2.141 1_455 S
C1 O2 1.313 . S
C1 O8 1.195 . S
O2 C1 1.313 . S
C3 O4 1.245 . S
C3 O12 1.289 . S
O4 C3 1.245 . S
C5 O6 1.245 . S
C5 O7 1.289 . S
O6 C5 1.245 . S
O7 Mg0 2.141 1_655 S
O7 C5 1.289 . S
O8 Mg0 2.048 . S
O8 C1 1.195 . S
O9 Mg0 2.048 . S
O9 C10 1.195 . S
C10 O9 1.195 . S
C10 O11 1.313 . S
O11 C10 1.313 . S
O12 Mg0 2.141 1_655 S
O12 C3 1.289 . S
Mg13 O20 2.141 . S
Mg13 O21 2.048 . S
Mg13 O22 2.048 . S
Mg13 O25 2.141 . S
C14 O15 1.313 . S
C14 O21 1.195 . S
O15 C14 1.313 . S
C16 O17 1.245 . S
C16 O25 1.289 . S
O17 C16 1.245 . S
C18 O19 1.245 . S
C18 O20 1.289 . S
O19 C18 1.245 . S
O20 Mg13 2.141 . S
O20 C18 1.289 . S
O21 Mg13 2.048 . S
O21 C14 1.195 . S
O22 Mg13 2.048 . S
O22 C23 1.195 . S
C23 O22 1.195 . S
C23 O24 1.313 . S
O24 C23 1.313 . S
O25 Mg13 2.141 . S
O25 C16 1.289 . S
Mg26 O33 2.141 1_545 S
Mg26 O34 2.048 . S
Mg26 O35 2.048 . S
Mg26 O38 2.141 1_545 S
C27 O28 1.313 . S
C27 O34 1.195 . S
O28 C27 1.313 . S
C29 O30 1.245 . S
C29 O38 1.289 . S
O30 C29 1.245 . S
C31 O32 1.245 . S
C31 O33 1.289 . S
O32 C31 1.245 . S
O33 Mg26 2.141 1_565 S
O33 C31 1.289 . S
O34 Mg26 2.048 . S
O34 C27 1.195 . S
O35 Mg26 2.048 . S
O35 C36 1.195 . S
C36 O35 1.195 . S
C36 O37 1.313 . S
O37 C36 1.313 . S
O38 Mg26 2.141 1_565 S
O38 C29 1.289 . S
Mg39 O46 2.141 . S
Mg39 O47 2.048 1_455 S
Mg39 O48 2.048 1_455 S
Mg39 O51 2.141 . S
C40 O41 1.313 . S
C40 O47 1.195 . S
O41 C40 1.313 . S
C42 O43 1.245 . S
C42 O51 1.289 . S
O43 C42 1.245 . S
C44 O45 1.245 . S
C44 O46 1.289 . S
O45 C44 1.245 . S
O46 Mg39 2.141 . S
O46 C44 1.289 . S
O47 Mg39 2.048 1_655 S
O47 C40 1.195 . S
O48 Mg39 2.048 1_655 S
O48 C49 1.195 . S
C49 O48 1.195 . S
C49 O50 1.313 . S
O50 C49 1.313 . S
O51 Mg39 2.141 . S
O51 C42 1.289 . S
Mg52 O59 2.141 . S
Mg52 O60 2.048 . S
Mg52 O61 2.048 . S
Mg52 O64 2.141 . S
C53 O54 1.313 . S
C53 O60 1.195 . S
O54 C53 1.313 . S
C55 O56 1.245 . S
C55 O64 1.289 . S
O56 C55 1.245 . S
C57 O58 1.245 . S
C57 O59 1.289 . S
O58 C57 1.245 . S
O59 Mg52 2.141 . S
O59 C57 1.289 . S
O60 Mg52 2.048 . S
O60 C53 1.195 . S
O61 Mg52 2.048 . S
O61 C62 1.195 . S
C62 O61 1.195 . S
C62 O63 1.313 . S
O63 C62 1.313 . S
O64 Mg52 2.141 . S
O64 C55 1.289 . S
Mg65 O72 2.141 . S
Mg65 O73 2.048 1_545 S
Mg65 O74 2.048 1_545 S
Mg65 O77 2.141 . S
C66 O67 1.313 . S
C66 O73 1.195 . S
O67 C66 1.313 . S
C68 O69 1.245 . S
C68 O77 1.289 . S
O69 C68 1.245 . S
C70 O71 1.245 . S
C70 O72 1.289 . S
O71 C70 1.245 . S
O72 Mg65 2.141 . S
O72 C70 1.289 . S
O73 Mg65 2.048 1_565 S
O73 C66 1.195 . S
O74 Mg65 2.048 1_565 S
O74 C75 1.195 . S
C75 O74 1.195 . S
C75 O76 1.313 . S
O76 C75 1.313 . S
O77 Mg65 2.141 . S
O77 C68 1.289 . S
Mg78 O85 2.141 . S
Mg78 O86 2.048 . S
Mg78 O87 2.048 . S
Mg78 O90 2.141 . S
C79 O80 1.313 . S
C79 O86 1.195 . S
O80 C79 1.313 . S
C81 O82 1.245 . S
C81 O90 1.289 . S
O82 C81 1.245 . S
C83 O84 1.245 1_545 S
C83 O85 1.289 . S
O84 C83 1.245 1_565 S
O85 Mg78 2.141 . S
O85 C83 1.289 . S
O86 Mg78 2.048 . S
O86 C79 1.195 . S
O87 Mg78 2.048 . S
O87 C88 1.195 . S
C88 O87 1.195 . S
C88 O89 1.313 . S
O89 C88 1.313 . S
O90 Mg78 2.141 . S
O90 C81 1.289 . S
Mg91 O98 2.141 . S
Mg91 O99 2.048 . S
Mg91 O100 2.048 . S
Mg91 O103 2.141 1_655 S
C92 O93 1.313 . S
C92 O99 1.195 . S
O93 C92 1.313 . S
C94 O95 1.245 . S
C94 O103 1.289 1_655 S
O95 C94 1.245 . S
C96 O97 1.245 . S
C96 O98 1.289 . S
O97 C96 1.245 . S
O98 Mg91 2.141 . S
O98 C96 1.289 . S
O99 Mg91 2.048 . S
O99 C92 1.195 . S
O100 Mg91 2.048 . S
O100 C101 1.195 . S
C101 O100 1.195 . S
C101 O102 1.313 . S
O102 C101 1.313 . S
O103 Mg91 2.141 1_455 S
O103 C94 1.289 1_455 S
Mg104 O111 2.141 . S
Mg104 O112 2.048 . S
Mg104 O113 2.048 . S
Mg104 O116 2.141 . S
C105 O106 1.313 . S
C105 O112 1.195 . S
O106 C105 1.313 . S
C107 O108 1.245 . S
C107 O116 1.289 . S
O108 C107 1.245 . S
C109 O110 1.245 . S
C109 O111 1.289 . S
O110 C109 1.245 . S
O111 Mg104 2.141 . S
O111 C109 1.289 . S
O112 Mg104 2.048 . S
O112 C105 1.195 . S
O113 Mg104 2.048 . S
O113 C114 1.195 . S
C114 O113 1.195 . S
C114 O115 1.313 . S
O115 C114 1.313 . S
O116 Mg104 2.141 . S
O116 C107 1.289 . S
Mg117 O124 2.141 . S
Mg117 O125 2.048 1_554 S
Mg117 O126 2.048 . S
Mg117 O129 2.141 . S
C118 O119 1.313 . S
C118 O125 1.195 . S
O119 C118 1.313 . S
C120 O121 1.245 . S
C120 O129 1.289 . S
O121 C120 1.245 . S
C122 O123 1.245 . S
C122 O124 1.289 . S
O123 C122 1.245 . S
O124 Mg117 2.141 . S
O124 C122 1.289 . S
O125 Mg117 2.048 1_556 S
O125 C118 1.195 . S
O126 Mg117 2.048 . S
O126 C127 1.195 . S
C127 O126 1.195 . S
C127 O128 1.313 . S
O128 C127 1.313 . S
O129 Mg117 2.141 . S
O129 C120 1.289 . S
Mg130 O137 2.141 . S
Mg130 O138 2.048 . S
Mg130 O139 2.048 1_554 S
Mg130 O142 2.141 . S
C131 O132 1.313 . S
C131 O138 1.195 . S
O132 C131 1.313 . S
C133 O134 1.245 1_545 S
C133 O142 1.289 . S
O134 C133 1.245 1_565 S
C135 O136 1.245 . S
C135 O137 1.289 . S
O136 C135 1.245 . S
O137 Mg130 2.141 . S
O137 C135 1.289 . S
O138 Mg130 2.048 . S
O138 C131 1.195 . S
O139 Mg130 2.048 1_556 S
O139 C140 1.195 . S
C140 O139 1.195 . S
C140 O141 1.313 . S
O141 C140 1.313 . S
O142 Mg130 2.141 . S
O142 C133 1.289 . S
Mg143 O150 2.141 1_655 S
Mg143 O151 2.048 1_554 S
Mg143 O152 2.048 . S
Mg143 O155 2.141 . S
C144 O145 1.313 . S
C144 O151 1.195 . S
O145 C144 1.313 . S
C146 O147 1.245 . S
C146 O155 1.289 . S
O147 C146 1.245 . S
C148 O149 1.245 . S
C148 O150 1.289 1_655 S
O149 C148 1.245 . S
O150 Mg143 2.141 1_455 S
O150 C148 1.289 1_455 S
O151 Mg143 2.048 1_556 S
O151 C144 1.195 . S
O152 Mg143 2.048 . S
O152 C153 1.195 . S
C153 O152 1.195 . S
C153 O154 1.313 . S
O154 C153 1.313 . S
O155 Mg143 2.141 . S
O155 C146 1.289 . S
Mg156 O163 2.141 . S
Mg156 O164 2.048 . S
Mg156 O165 2.048 . S
Mg156 O168 2.141 1_556 S
C157 O158 1.313 . S
C157 O164 1.195 . S
O158 C157 1.313 . S
C159 O160 1.245 . S
C159 O168 1.289 . S
O160 C159 1.245 . S
C161 O162 1.245 . S
C161 O163 1.289 . S
O162 C161 1.245 . S
O163 Mg156 2.141 . S
O163 C161 1.289 . S
O164 Mg156 2.048 . S
O164 C157 1.195 . S
O165 Mg156 2.048 . S
O165 C166 1.195 . S
C166 O165 1.195 . S
C166 O167 1.313 . S
O167 C166 1.313 . S
O168 Mg156 2.141 1_554 S
O168 C159 1.289 . S
Mg169 O176 2.141 . S
Mg169 O177 2.048 1_556 S
Mg169 O178 2.048 . S
Mg169 O181 2.141 . S
C170 O171 1.313 . S
C170 O177 1.195 . S
O171 C170 1.313 . S
C172 O173 1.249 . S
C172 O181 1.289 . S
O173 C172 1.249 . S
C174 O175 1.245 1_565 S
C174 O176 1.289 . S
O175 C174 1.245 1_545 S
O176 Mg169 2.141 . S
O176 C174 1.289 . S
O177 Mg169 2.048 1_554 S
O177 C170 1.195 . S
O178 Mg169 2.048 . S
O178 C179 1.195 . S
C179 O178 1.195 . S
C179 O180 1.313 . S
O180 C179 1.313 . S
O181 Mg169 2.141 . S
O181 C172 1.289 . S
Mg182 O189 2.141 . S
Mg182 O190 2.048 1_556 S
Mg182 O191 2.048 . S
Mg182 O194 2.141 . S
C183 O184 1.313 . S
C183 O190 1.195 . S
O184 C183 1.313 . S
C185 O186 1.245 . S
C185 O194 1.289 . S
O186 C185 1.245 . S
C187 O188 1.245 1_455 S
C187 O189 1.289 . S
O188 C187 1.245 1_655 S
O189 Mg182 2.141 . S
O189 C187 1.289 . S
O190 Mg182 2.048 1_554 S
O190 C183 1.195 . S
O191 Mg182 2.048 . S
O191 C192 1.195 . S
C192 O191 1.195 . S
C192 O193 1.313 . S
O193 C192 1.313 . S
O194 Mg182 2.141 . S
O194 C185 1.289 . S
Mg195 O202 2.141 . S
Mg195 O203 2.048 . S
Mg195 O204 2.048 . S
Mg195 O207 2.141 . S
C196 O197 1.313 . S
C196 O203 1.195 . S
O197 C196 1.313 . S
C198 O199 1.245 1_565 S
C198 O207 1.289 . S
O199 C198 1.245 1_545 S
C200 O201 1.245 . S
C200 O202 1.289 . S
O201 C200 1.245 . S
O202 Mg195 2.141 . S
O202 C200 1.289 . S
O203 Mg195 2.048 . S
O203 C196 1.195 . S
O204 Mg195 2.048 . S
O204 C205 1.195 . S
C205 O204 1.195 . S
C205 O206 1.313 . S
O206 C205 1.313 . S
O207 Mg195 2.141 . S
O207 C198 1.289 . S
Mg208 O215 2.141 . S
Mg208 O216 2.048 . S
Mg208 O217 2.048 . S
Mg208 O220 2.141 . S
C209 O210 1.313 1_455 S
C209 O216 1.195 . S
O210 C209 1.313 1_655 S
C211 O212 1.245 . S
C211 O220 1.289 . S
O212 C211 1.245 . S
C213 O214 1.245 . S
C213 O215 1.289 . S
O214 C213 1.245 . S
O215 Mg208 2.141 . S
O215 C213 1.289 . S
O216 Mg208 2.048 . S
O216 C209 1.195 . S
O217 Mg208 2.048 . S
O217 C218 1.195 . S
C218 O217 1.195 . S
C218 O219 1.313 . S
O219 C218 1.313 . S
O220 Mg208 2.141 . S
O220 C211 1.289 . S
Mg221 O228 2.141 . S
Mg221 O229 2.048 . S
Mg221 O230 2.048 . S
Mg221 O233 2.141 . S
C222 O223 1.313 . S
C222 O229 1.195 . S
O223 C222 1.313 . S
C224 O225 1.245 . S
C224 O233 1.289 . S
O225 C224 1.245 . S
C226 O227 1.245 . S
C226 O228 1.289 . S
O227 C226 1.245 . S
O228 Mg221 2.141 . S
O228 C226 1.289 . S
O229 Mg221 2.048 . S
O229 C222 1.195 . S
O230 Mg221 2.048 . S
O230 C231 1.195 . S
C231 O230 1.195 . S
C231 O232 1.313 . S
O232 C231 1.313 . S
O233 Mg221 2.141 . S
O233 C224 1.289 . S
C1 C183 2.563 . S
C159 C16 2.462 . S
C29 C170 2.511 . S
C79 C27 2.551 . S
C101 C3 2.753 . S
C105 C14 2.577 . S
C49 C144 2.766 . S
C118 C57 2.763 . S
C140 C68 2.798 . S
C66 C205 2.776 . S
C44 C213 2.462 . S
C224 C62 2.797 . S
C157 C107 2.485 . S
C81 C172 2.476 1_545 S
C185 C96 2.742 1_455 S
C222 C120 2.984 . S
C135 C200 2.468 1_545 S
C218 C146 2.796 1_455 S
C196 C10 1.805 . S
C18 C211 1.568 . S
C31 C226 1.635 . S
C36 C153 1.806 . S
C127 C5 1.708 . S
C23 C131 1.759 . S
C88 C40 1.803 . S
C92 C55 1.721 . S
C70 C114 1.762 . S
C75 C192 1.841 . S
C42 C161 1.579 . S
C53 C179 1.754 . S
C109 C231 1.680 . S
C83 C198 1.584 1_545 S
C209 C94 1.682 1_455 S
C166 C122 1.710 1_556 S
C174 C133 1.594 1_566 S
C187 C148 1.642 1_456 S
