# Generated by pormake.
# Topology hex, (8)-cn, num edge types: 1
# Building blocks:
#     Node 0, Type 0, BuildingBlock: EYACOX_clean_sbu_0, # of connection points: 8
#     Edge 1, Type (0, 0), BuildingBlock: EYOCIG_clean_linker_4, # of connection points: 2
#     Edge 2, Type (0, 0), BuildingBlock: EYOCIG_clean_linker_4, # of connection points: 2
#     Edge 3, Type (0, 0), BuildingBlock: EYOCIG_clean_linker_4, # of connection points: 2
#     Edge 4, Type (0, 0), BuildingBlock: EYOCIG_clean_linker_4, # of connection points: 2
# Relax obj value: 0.021
# Max RMSD: 0.057
# Mean RMSD: 0.057
data_MOF--net-hex--node1-EYACOX_clean_sbu_0--edge1-EYOCIG_clean_linker_4
_symmetry_space_group_name_H-M    P1
_symmetry_Int_Tables_number       1
_symmetry_cell_setting            triclinic
loop_
_symmetry_equiv_pos_as_xyz
'x, y, z'
_cell_length_a     21.003185
_cell_length_b     20.320211
_cell_length_c     12.20701
_cell_angle_alpha  108.81172
_cell_angle_beta   73.945652
_cell_angle_gamma 146.23277
loop_
_atom_site_label
_atom_site_type_symbol
_atom_site_fract_x
_atom_site_fract_y
_atom_site_fract_z
_atom_type_partial_charge
Eu0 Eu 0.08163 0.92399 0.94156 0.0
Eu1 Eu 0.99621 0.01985 0.02908 0.0
O2 O 0.22158 -0.02856 0.93157 0.0
O3 O 0.05961 0.79348 0.85177 0.0
O4 O 0.03928 0.02931 0.83926 0.0
O5 O 0.02814 0.89964 0.77951 0.0
O6 O 0.8967 0.76818 -0.00062 0.0
O7 O 0.84466 0.82183 0.95772 0.0
C8 C 0.17914 0.81566 0.90682 0.0
C9 C 0.22507 0.72726 0.94025 0.0
C10 C 0.13455 0.65496 0.8708 0.0
C11 C 0.11094 0.6983 0.85382 0.0
C12 C 0.29503 0.84401 -0.00851 0.0
C13 C 0.27221 0.88875 -0.02412 0.0
C14 C 0.16251 0.86587 0.87611 0.0
C15 C 0.03239 -0.03733 0.75814 0.0
O16 O 0.86196 -0.01615 0.09494 0.0
O17 O 0.03263 0.16072 0.05932 0.0
C18 C 0.81844 0.74242 -0.01903 0.0
O19 O 0.98371 -0.02273 0.18945 0.0
O20 O 0.09339 -0.02942 0.1359 0.0
O21 O 0.18306 0.1761 0.07124 0.0
O22 O 0.22634 0.11585 0.9191 0.0
C23 C 0.87762 0.09897 0.03718 0.0
C24 C 0.73004 0.05844 0.04118 0.0
C25 C 0.77174 0.04095 0.08029 0.0
C26 C 0.79304 0.13272 0.95977 0.0
C27 C 0.8981 0.19206 0.91794 0.0
C28 C 0.94022 0.17438 0.95476 0.0
C29 C 0.92714 0.0905 0.08779 0.0
C30 C 0.03776 -0.02664 0.21339 0.0
C31 C 0.25755 0.19966 -0.00096 0.0
H32 H 0.24361 0.69336 0.95159 0.0
H33 H 0.04142 0.64187 0.79793 0.0
H34 H 0.32944 -0.01887 0.01278 0.0
H35 H 0.72363 -0.01507 0.14539 0.0
H36 H 0.76206 0.14859 0.9321 0.0
H37 H 1.0238 0.22406 0.92408 0.0
C38 C 1.00103 0.35591 0.80973 0.0
C39 C 0.9672 0.28491 0.85325 0.0
C40 C 0.03395 0.44819 0.79748 0.0
C41 C 0.06848 0.53649 0.81983 0.0
C42 C 0.54591 -0.02198 0.09234 0.0
C43 C 0.62458 0.00533 0.08246 0.0
C44 C 0.47123 0.95195 0.08017 0.0
C45 C 0.3966 0.91756 0.04671 0.0
C46 C 0.47853 0.41689 0.00468 0.0
C47 C 0.37678 0.3197 0.00629 0.0
C48 C 0.598 0.52853 -0.00238 0.0
C49 C 0.69947 0.625 -0.00921 0.0
C50 C 0.03132 -0.03792 0.54209 0.0
C51 C 0.03168 -0.0391 0.64001 0.0
C52 C 0.03258 -0.0339 0.42811 0.0
C53 C 0.0342 -0.03054 0.33046 0.0
loop_
_geom_bond_atom_site_label_1
_geom_bond_atom_site_label_2
_geom_bond_distance
_geom_bond_site_symmetry_2
_ccdc_geom_bond_type
Eu0 O2 2.454 1_655 S
Eu0 O3 2.492 . S
Eu0 O5 2.352 . S
Eu0 O6 2.401 . S
Eu0 C14 2.816 1_655 S
Eu0 O20 2.396 1_556 S
Eu0 O22 2.327 1_665 S
Eu1 O4 2.396 1_554 S
Eu1 O7 2.323 1_445 S
Eu1 O16 2.472 1_455 S
Eu1 O17 2.507 . S
Eu1 O19 2.336 . S
Eu1 O21 2.389 . S
Eu1 C29 2.835 1_455 S
O2 Eu0 2.454 1_455 S
O2 C14 1.258 . S
O3 Eu0 2.492 . S
O3 C14 1.246 1_655 S
O4 Eu1 2.396 1_556 S
O4 C15 1.216 1_445 S
O5 Eu0 2.352 . S
O5 C15 1.279 . S
O6 Eu0 2.401 . S
O6 C18 1.239 . S
O7 Eu1 2.323 1_665 S
O7 C18 1.249 1_554 S
C8 C11 1.390 . S
C8 C13 1.370 . S
C8 C14 1.489 . S
C9 C10 1.344 . S
C9 C12 1.416 . S
C9 H32 0.931 . S
C10 C9 1.344 . S
C10 C11 1.423 1_554 S
C11 C8 1.390 . S
C11 C10 1.423 1_556 S
C11 H33 0.930 1_455 S
C12 C9 1.416 . S
C12 C13 1.393 1_554 S
C13 C8 1.370 . S
C13 C12 1.393 1_556 S
C13 H34 0.932 1_565 S
C14 Eu0 2.816 1_455 S
C14 O2 1.258 . S
C14 O3 1.246 1_455 S
C14 C8 1.489 . S
C15 O4 1.216 1_665 S
C15 O5 1.279 . S
O16 Eu1 2.472 1_655 S
O16 C29 1.258 . S
O17 Eu1 2.507 . S
O17 C29 1.246 1_455 S
C18 O6 1.239 . S
C18 O7 1.249 1_556 S
O19 Eu1 2.336 . S
O19 C30 1.279 . S
O20 Eu0 2.396 1_554 S
O20 C30 1.216 1_665 S
O21 Eu1 2.389 . S
O21 C31 1.239 . S
O22 Eu0 2.327 1_445 S
O22 C31 1.249 1_556 S
C23 C25 1.370 . S
C23 C28 1.390 . S
C23 C29 1.489 . S
C24 C25 1.394 1_556 S
C24 C26 1.415 . S
C25 C23 1.370 . S
C25 C24 1.394 1_554 S
C25 H35 0.932 1_545 S
C26 C24 1.415 . S
C26 C27 1.344 . S
C26 H36 0.931 . S
C27 C26 1.344 . S
C27 C28 1.423 1_556 S
C28 C23 1.390 . S
C28 C27 1.423 1_554 S
C28 H37 0.930 1_655 S
C29 Eu1 2.835 1_655 S
C29 O16 1.258 . S
C29 O17 1.246 1_655 S
C29 C23 1.489 . S
C30 O19 1.279 . S
C30 O20 1.216 1_445 S
C31 O21 1.239 . S
C31 O22 1.249 1_554 S
H32 C9 0.931 . S
H33 C11 0.930 1_655 S
H34 C13 0.932 1_545 S
H35 C25 0.932 1_565 S
H36 C26 0.931 . S
H37 C28 0.930 1_455 S
C38 C39 1.170 . S
C38 C40 1.380 1_655 S
C39 C38 1.170 . S
C40 C38 1.380 1_455 S
C40 C41 1.170 1_556 S
C41 C40 1.170 1_554 S
C42 C43 1.170 1_545 S
C42 C44 1.380 . S
C43 C42 1.170 1_565 S
C44 C42 1.380 . S
C44 C45 1.170 . S
C45 C44 1.170 . S
C46 C47 1.170 . S
C46 C48 1.380 . S
C47 C46 1.170 . S
C48 C46 1.380 . S
C48 C49 1.170 . S
C49 C48 1.170 . S
C50 C51 1.170 1_655 S
C50 C52 1.380 . S
C51 C50 1.170 1_455 S
C52 C50 1.380 . S
C52 C53 1.165 . S
C53 C52 1.165 . S
C39 C27 1.205 . S
C41 C10 1.176 . S
C43 C24 1.808 1_565 S
C45 C12 1.848 1_546 S
C47 C31 1.138 . S
C49 C18 1.150 1_554 S
C51 C15 1.489 1_445 S
C53 C30 1.502 1_655 S
