# Generated by pormake.
# Topology hex, (8)-cn, num edge types: 1
# Building blocks:
#     Node 0, Type 0, BuildingBlock: TAGTUT_clean_sbu_1, # of connection points: 8
#     Edge 1, Type (0, 0), BuildingBlock: FUNLAD_clean_linker_1, # of connection points: 2
#     Edge 2, Type (0, 0), BuildingBlock: FUNLAD_clean_linker_1, # of connection points: 2
#     Edge 3, Type (0, 0), BuildingBlock: FUNLAD_clean_linker_1, # of connection points: 2
#     Edge 4, Type (0, 0), BuildingBlock: FUNLAD_clean_linker_1, # of connection points: 2
# Relax obj value: 0.054
# Max RMSD: 0.157
# Mean RMSD: 0.157
data_MOF--net-hex--node1-TAGTUT_clean_sbu_1--edge1-FUNLAD_clean_linker_1
_symmetry_space_group_name_H-M    P1
_symmetry_Int_Tables_number       1
_symmetry_cell_setting            triclinic
loop_
_symmetry_equiv_pos_as_xyz
'x, y, z'
_cell_length_a     19.114489
_cell_length_b     20.465753
_cell_length_c     16.617743
_cell_angle_alpha  90.648742
_cell_angle_beta   99.51671
_cell_angle_gamma 132.06711
loop_
_atom_site_label
_atom_site_type_symbol
_atom_site_fract_x
_atom_site_fract_y
_atom_site_fract_z
_atom_type_partial_charge
C0 C 0.9247 0.22585 0.96568 0.0
C1 C 0.72285 0.96663 0.01281 0.0
C2 C 0.03436 0.02902 0.19279 0.0
Mg3 Mg 0.85205 0.04586 0.89043 0.0
O4 O 0.95769 0.08627 0.97266 0.0
Mg5 Mg 0.96751 0.12195 0.08951 0.0
Mg6 Mg -0.01447 0.00967 0.9903 0.0
O7 O 0.01333 0.93308 0.00807 0.0
Mg8 Mg 0.11859 0.9731 0.09062 0.0
Mg9 Mg 0.00358 0.89736 0.89134 0.0
C10 C 0.93609 0.98979 0.78798 0.0
C11 C 0.78928 0.80112 0.91625 0.0
O12 O 0.95592 0.21915 0.03686 0.0
O13 O 0.88379 0.1679 0.90057 0.0
O14 O 0.79961 0.01967 0.07119 0.0
O15 O 0.72628 0.95544 0.93829 0.0
O16 O 0.88074 1.0048 0.78882 0.0
O17 O -0.01403 0.99562 0.85467 0.0
C18 C 0.18176 0.21825 0.06434 0.0
O19 O 0.14598 0.14559 0.02072 0.0
O20 O 0.13012 0.22306 0.0991 0.0
O21 O 0.01491 0.8 0.94406 0.0
O22 O 0.08669 0.851 0.08042 0.0
O23 O 0.17154 0.99957 0.91 0.0
C24 C 0.04589 0.79315 0.01526 0.0
O25 O 0.24459 0.06349 0.04302 0.0
O26 O 0.08957 0.01379 0.19227 0.0
C27 C 0.24819 0.05245 0.96852 0.0
O28 O -0.01468 0.02382 0.12586 0.0
O29 O 0.82507 0.87377 0.95989 0.0
O30 O 0.84093 0.79631 0.88152 0.0
H31 H 0.88437 0.29462 0.90615 0.0
C32 C 0.93351 0.30188 0.95776 0.0
H33 H 0.04963 0.38721 0.06246 0.0
H34 H 0.98184 0.61297 0.82253 0.0
H35 H 0.02921 0.57466 0.71835 0.0
H36 H 0.06949 0.48358 0.74481 0.0
H37 H 0.06008 0.4286 0.87488 0.0
C38 C 7e-05 0.37909 0.01071 0.0
C39 C 0.00061 0.45137 0.0029 0.0
C40 C 0.0104 0.48595 0.9278 0.0
C41 C -0.00824 0.54177 0.9142 0.0
C42 C -0.00257 0.57194 0.8371 0.0
C43 C 0.02447 0.55037 0.7766 0.0
C44 C 0.04689 0.49894 0.79139 0.0
C45 C 0.04032 0.46713 0.86604 0.0
H46 H 0.08611 0.7243 0.0748 0.0
C47 C 0.03703 0.71709 0.02316 0.0
H48 H 0.92102 0.63184 0.91837 0.0
H49 H -0.01108 0.40617 0.15838 0.0
H50 H 0.94156 0.44449 0.26257 0.0
H51 H 0.90115 0.53546 0.23608 0.0
H52 H 0.91044 0.59035 0.10598 0.0
C53 C 0.97052 0.63992 0.97015 0.0
C54 C 0.96996 0.56762 0.97796 0.0
C55 C 0.96017 0.53304 0.05306 0.0
C56 C 0.97885 0.47725 0.06667 0.0
C57 C 0.97326 0.44714 0.14379 0.0
C58 C 0.94624 0.46872 0.2043 0.0
C59 C 0.92375 0.52009 0.18949 0.0
C60 C 0.93025 0.55185 0.11482 0.0
H61 H 0.63075 0.95175 0.08997 0.0
C62 C 0.6354 0.94522 0.0265 0.0
H63 H 0.59022 0.94776 0.90231 0.0
H64 H 0.23949 0.90252 0.95678 0.0
H65 H 0.149 0.74893 0.9043 0.0
H66 H 0.23179 0.6969 0.88832 0.0
H67 H 0.40751 0.8008 0.92387 0.0
C68 C 0.58311 0.94969 0.96563 0.0
C69 C 0.53309 0.97916 0.9827 0.0
C70 C 0.43079 0.91822 0.96098 0.0
C71 C 0.38295 0.94819 0.96969 0.0
C72 C 0.28036 0.88475 0.94981 0.0
C73 C 0.22705 0.79555 0.92012 0.0
C74 C 0.27376 0.76653 0.91092 0.0
C75 C 0.37454 0.82685 0.93129 0.0
H76 H 0.34049 0.06747 0.89152 0.0
C77 C 0.33568 0.07386 0.95496 0.0
H78 H 0.3805 0.07098 0.07912 0.0
H79 H 0.73144 0.11644 0.02464 0.0
H80 H 0.82192 0.27002 0.07709 0.0
H81 H 0.73912 0.32205 0.09308 0.0
H82 H 0.5634 0.21814 0.05757 0.0
C83 C 0.3878 0.06923 0.01585 0.0
C84 C 0.43784 0.03977 -0.00122 0.0
C85 C 0.54013 0.10071 0.02049 0.0
C86 C 0.58798 0.07074 0.01178 0.0
C87 C 0.69057 0.13419 0.03163 0.0
C88 C 0.74387 0.2234 0.06129 0.0
C89 C 0.69716 0.25241 0.07049 0.0
C90 C 0.59638 0.19209 0.05015 0.0
H91 H 0.31635 0.35578 0.11958 0.0
C92 C 0.28136 0.30317 0.06731 0.0
H93 H 0.28332 0.27433 0.94564 0.0
H94 H 0.52169 0.70152 0.96764 0.0
H95 H 0.36327 0.65105 0.95749 0.0
H96 H 0.22188 0.49408 0.96272 0.0
H97 H 0.23747 0.38648 0.97784 0.0
C98 C 0.31929 0.32453 0.00037 0.0
C99 C 0.40443 0.41932 -0.00466 0.0
C100 C 0.3936 0.48126 0.98487 0.0
C101 C 0.47496 0.57175 0.9807 0.0
C102 C 0.46221 0.63211 0.97094 0.0
C103 C 0.37174 0.60403 0.96492 0.0
C104 C 0.29209 0.51562 0.96786 0.0
C105 C 0.3023 0.45461 0.97723 0.0
H106 H 0.65467 0.66362 0.86094 0.0
C107 C 0.68966 0.71621 0.91324 0.0
H108 H 0.68773 0.74498 0.03494 0.0
H109 H 0.44933 0.31781 0.01289 0.0
H110 H 0.60773 0.36827 0.023 0.0
H111 H 0.74912 0.52523 0.01773 0.0
H112 H 0.73354 0.63283 0.00263 0.0
C113 C 0.65173 0.69481 0.98019 0.0
C114 C 0.56659 0.60001 0.98518 0.0
C115 C 0.57741 0.53806 -0.00437 0.0
C116 C 0.49605 0.44758 -0.00019 0.0
C117 C 0.5088 0.38722 0.00957 0.0
C118 C 0.59927 0.41529 0.01557 0.0
C119 C 0.67891 0.5037 0.01262 0.0
C120 C 0.66871 0.56471 0.00325 0.0
H121 H 0.00454 0.97093 0.70791 0.0
C122 C 0.9513 0.97582 0.70801 0.0
H123 H 0.86079 0.9902 0.63757 0.0
H124 H 0.12466 0.19411 0.38699 0.0
H125 H 0.15086 0.31221 0.46534 0.0
H126 H 0.08484 0.28681 0.58897 0.0
H127 H -0.00737 0.14344 0.63505 0.0
C128 C 0.91106 0.9816 0.63749 0.0
C129 C 0.94784 0.99482 0.56185 0.0
C130 C 0.00039 0.07893 0.53521 0.0
C131 C 0.03772 0.09346 0.46366 0.0
C132 C 0.09272 0.17883 0.43983 0.0
C133 C 0.10885 0.24744 0.48457 0.0
C134 C 0.07174 0.23316 0.55418 0.0
C135 C 0.01853 0.15025 0.57975 0.0
H136 H 0.96542 0.0478 0.27229 0.0
C137 C 0.01863 0.04282 0.27252 0.0
H138 H 0.10868 0.02816 0.34341 0.0
H139 H 0.84434 0.8242 0.59344 0.0
H140 H 0.81803 0.70605 0.51503 0.0
H141 H 0.88397 0.73141 0.39135 0.0
H142 H 0.97623 0.87479 0.34529 0.0
C143 C 0.05842 0.03683 0.3432 0.0
C144 C 0.02122 0.02348 0.4186 0.0
C145 C 0.96857 0.93935 0.44519 0.0
C146 C 0.93126 0.92483 0.51675 0.0
C147 C 0.87626 0.83945 0.54058 0.0
C148 C 0.86005 0.77082 0.49581 0.0
C149 C 0.89712 0.78508 0.42617 0.0
C150 C 0.95036 0.86799 0.40062 0.0
loop_
_geom_bond_atom_site_label_1
_geom_bond_atom_site_label_2
_geom_bond_distance
_geom_bond_site_symmetry_2
_ccdc_geom_bond_type
C0 O12 1.241 1_556 S
C0 O13 1.280 . S
C1 O14 1.277 . S
C1 O15 1.245 1_544 S
C2 O26 1.244 1_545 S
C2 O28 1.291 . S
Mg3 O4 1.926 . S
Mg3 O13 1.984 . S
Mg3 O15 1.988 1_545 S
Mg3 O16 2.066 . S
O4 Mg3 1.926 . S
O4 Mg5 1.986 1_556 S
O4 Mg6 1.917 1_656 S
Mg5 O4 1.986 1_554 S
Mg5 O12 2.042 . S
Mg5 O14 2.041 . S
Mg5 O20 2.038 1_655 S
Mg5 O28 2.236 1_655 S
Mg6 O4 1.917 1_454 S
Mg6 O7 1.917 1_545 S
Mg6 O17 2.107 1_444 S
Mg6 O19 2.079 . S
Mg6 O28 2.108 . S
Mg6 O29 2.079 1_444 S
O7 Mg6 1.917 1_565 S
O7 Mg8 1.926 . S
O7 Mg9 1.986 1_554 S
Mg8 O7 1.926 . S
Mg8 O22 1.984 . S
Mg8 O25 1.988 1_565 S
Mg8 O26 2.064 . S
Mg9 O7 1.986 1_556 S
Mg9 O17 2.238 1_455 S
Mg9 O21 2.042 . S
Mg9 O23 2.041 . S
Mg9 O30 2.038 1_455 S
C10 O16 1.242 1_565 S
C10 O17 1.289 . S
C11 O29 1.245 . S
C11 O30 1.274 . S
O12 C0 1.241 1_554 S
O12 Mg5 2.042 . S
O13 C0 1.280 . S
O13 Mg3 1.984 . S
O14 C1 1.277 . S
O14 Mg5 2.041 . S
O15 C1 1.245 1_566 S
O15 Mg3 1.988 1_565 S
O16 Mg3 2.066 . S
O16 C10 1.242 1_545 S
O17 Mg6 2.107 1_666 S
O17 Mg9 2.238 1_655 S
O17 C10 1.289 . S
C18 O19 1.245 . S
C18 O20 1.274 . S
O19 Mg6 2.079 . S
O19 C18 1.245 . S
O20 Mg5 2.038 1_455 S
O20 C18 1.274 . S
O21 Mg9 2.042 . S
O21 C24 1.241 1_556 S
O22 Mg8 1.984 . S
O22 C24 1.280 . S
O23 Mg9 2.041 . S
O23 C27 1.277 . S
C24 O21 1.241 1_554 S
C24 O22 1.280 . S
O25 Mg8 1.988 1_545 S
O25 C27 1.245 1_544 S
O26 C2 1.244 1_565 S
O26 Mg8 2.064 . S
C27 O23 1.277 . S
C27 O25 1.245 1_566 S
O28 C2 1.291 . S
O28 Mg5 2.236 1_455 S
O28 Mg6 2.108 . S
O29 Mg6 2.079 1_666 S
O29 C11 1.245 . S
O30 Mg9 2.038 1_655 S
O30 C11 1.274 . S
H31 C32 0.951 . S
C32 H31 0.951 . S
C32 C38 1.265 1_655 S
H33 C38 0.950 . S
H34 C42 0.949 . S
H35 C43 0.950 . S
H36 C44 0.951 . S
H37 C45 0.951 . S
C38 C32 1.265 1_455 S
C38 H33 0.950 . S
C38 C39 1.478 . S
C39 C38 1.478 . S
C39 C40 1.397 . S
C39 C56 1.394 1_456 S
C40 C39 1.397 . S
C40 C41 1.438 . S
C40 C45 1.429 . S
C41 C40 1.438 . S
C41 C42 1.428 . S
C41 C54 1.394 1_456 S
C42 H34 0.949 . S
C42 C41 1.428 . S
C42 C43 1.345 . S
C43 H35 0.950 . S
C43 C42 1.345 . S
C43 C44 1.424 . S
C44 H36 0.951 . S
C44 C43 1.424 . S
C44 C45 1.347 . S
C45 H37 0.951 . S
C45 C40 1.429 . S
C45 C44 1.347 . S
H46 C47 0.951 . S
C47 H46 0.951 . S
C47 C53 1.265 1_455 S
H48 C53 0.950 . S
H49 C57 0.949 . S
H50 C58 0.950 . S
H51 C59 0.951 . S
H52 C60 0.951 . S
C53 C47 1.265 1_655 S
C53 H48 0.950 . S
C53 C54 1.478 . S
C54 C41 1.394 1_654 S
C54 C53 1.478 . S
C54 C55 1.397 . S
C55 C54 1.397 . S
C55 C56 1.438 . S
C55 C60 1.429 . S
C56 C39 1.394 1_654 S
C56 C55 1.438 . S
C56 C57 1.428 . S
C57 H49 0.949 . S
C57 C56 1.428 . S
C57 C58 1.345 . S
C58 H50 0.950 . S
C58 C57 1.345 . S
C58 C59 1.424 . S
C59 H51 0.951 . S
C59 C58 1.424 . S
C59 C60 1.347 . S
C60 H52 0.951 . S
C60 C55 1.429 . S
C60 C59 1.347 . S
H61 C62 0.951 . S
C62 H61 0.951 . S
C62 C68 1.265 1_554 S
H63 C68 0.950 1_545 S
H64 C72 0.949 . S
H65 C73 0.950 . S
H66 C74 0.951 . S
H67 C75 0.951 . S
C68 C62 1.265 1_556 S
C68 H63 0.950 1_565 S
C68 C69 1.478 1_565 S
C69 C68 1.478 1_545 S
C69 C70 1.399 1_545 S
C69 C86 1.392 1_556 S
C70 C69 1.399 1_565 S
C70 C71 1.438 . S
C70 C75 1.429 . S
C71 C70 1.438 . S
C71 C72 1.428 . S
C71 C84 1.387 1_556 S
C72 H64 0.949 . S
C72 C71 1.428 . S
C72 C73 1.345 . S
C73 H65 0.950 . S
C73 C72 1.345 . S
C73 C74 1.424 . S
C74 H66 0.951 . S
C74 C73 1.424 . S
C74 C75 1.347 . S
C75 H67 0.951 . S
C75 C70 1.429 . S
C75 C74 1.347 . S
H76 C77 0.951 . S
C77 H76 0.951 . S
C77 C83 1.267 1_556 S
H78 C83 0.950 1_565 S
H79 C87 0.949 . S
H80 C88 0.950 . S
H81 C89 0.951 . S
H82 C90 0.951 . S
C83 C77 1.267 1_554 S
C83 H78 0.950 1_545 S
C83 C84 1.479 1_545 S
C84 C71 1.387 1_554 S
C84 C83 1.479 1_565 S
C84 C85 1.401 1_565 S
C85 C84 1.401 1_545 S
C85 C86 1.438 . S
C85 C90 1.429 . S
C86 C69 1.392 1_554 S
C86 C85 1.438 . S
C86 C87 1.428 . S
C87 H79 0.949 . S
C87 C86 1.428 . S
C87 C88 1.345 . S
C88 H80 0.950 . S
C88 C87 1.345 . S
C88 C89 1.424 . S
C89 H81 0.951 . S
C89 C88 1.424 . S
C89 C90 1.347 . S
C90 H82 0.951 . S
C90 C85 1.429 . S
C90 C89 1.347 . S
H91 C92 0.951 . S
C92 H91 0.951 . S
C92 C98 1.265 1_554 S
H93 C98 0.950 . S
H94 C102 0.949 . S
H95 C103 0.950 . S
H96 C104 0.951 . S
H97 C105 0.951 . S
C98 C92 1.265 1_556 S
C98 H93 0.950 . S
C98 C99 1.478 . S
C99 C98 1.478 . S
C99 C100 1.397 . S
C99 C116 1.394 1_556 S
C100 C99 1.397 . S
C100 C101 1.438 . S
C100 C105 1.429 . S
C101 C100 1.438 . S
C101 C102 1.428 . S
C101 C114 1.394 1_556 S
C102 H94 0.949 . S
C102 C101 1.428 . S
C102 C103 1.345 . S
C103 H95 0.950 . S
C103 C102 1.345 . S
C103 C104 1.424 . S
C104 H96 0.951 . S
C104 C103 1.424 . S
C104 C105 1.347 . S
C105 H97 0.951 . S
C105 C100 1.429 . S
C105 C104 1.347 . S
H106 C107 0.951 . S
C107 H106 0.951 . S
C107 C113 1.265 1_556 S
H108 C113 0.950 . S
H109 C117 0.949 . S
H110 C118 0.950 . S
H111 C119 0.951 . S
H112 C120 0.951 . S
C113 C107 1.265 1_554 S
C113 H108 0.950 . S
C113 C114 1.478 . S
C114 C101 1.394 1_554 S
C114 C113 1.478 . S
C114 C115 1.397 . S
C115 C114 1.397 . S
C115 C116 1.438 . S
C115 C120 1.429 . S
C116 C99 1.394 1_554 S
C116 C115 1.438 . S
C116 C117 1.428 . S
C117 H109 0.949 . S
C117 C116 1.428 . S
C117 C118 1.345 . S
C118 H110 0.950 . S
C118 C117 1.345 . S
C118 C119 1.424 . S
C119 H111 0.951 . S
C119 C118 1.424 . S
C119 C120 1.347 . S
C120 H112 0.951 . S
C120 C115 1.429 . S
C120 C119 1.347 . S
H121 C122 0.951 . S
C122 H121 0.951 . S
C122 C128 1.265 1_465 S
H123 C128 0.950 . S
H124 C132 0.949 . S
H125 C133 0.950 . S
H126 C134 0.951 . S
H127 C135 0.951 . S
C128 C122 1.265 1_645 S
C128 H123 0.950 . S
C128 C129 1.480 . S
C129 C128 1.480 . S
C129 C130 1.410 1_655 S
C129 C146 1.380 1_545 S
C130 C129 1.410 1_455 S
C130 C131 1.438 . S
C130 C135 1.429 . S
C131 C130 1.438 . S
C131 C132 1.428 . S
C131 C144 1.383 1_545 S
C132 H124 0.949 . S
C132 C131 1.428 . S
C132 C133 1.345 . S
C133 H125 0.950 . S
C133 C132 1.345 . S
C133 C134 1.424 . S
C134 H126 0.951 . S
C134 C133 1.424 . S
C134 C135 1.347 . S
C135 H127 0.951 . S
C135 C130 1.429 . S
C135 C134 1.347 . S
H136 C137 0.951 . S
C137 H136 0.951 . S
C137 C143 1.265 1_645 S
H138 C143 0.950 . S
H139 C147 0.949 . S
H140 C148 0.950 . S
H141 C149 0.951 . S
H142 C150 0.951 . S
C143 C137 1.265 1_465 S
C143 H138 0.950 . S
C143 C144 1.480 . S
C144 C131 1.383 1_565 S
C144 C143 1.480 . S
C144 C145 1.406 1_455 S
C145 C144 1.406 1_655 S
C145 C146 1.438 . S
C145 C150 1.429 . S
C146 C129 1.380 1_565 S
C146 C145 1.438 . S
C146 C147 1.428 . S
C147 H139 0.949 . S
C147 C146 1.428 . S
C147 C148 1.345 . S
C148 H140 0.950 . S
C148 C147 1.345 . S
C148 C149 1.424 . S
C149 H141 0.951 . S
C149 C148 1.424 . S
C149 C150 1.347 . S
C150 H142 0.951 . S
C150 C145 1.429 . S
C150 C149 1.347 . S
C32 C0 1.235 . S
C47 C24 1.235 . S
C62 C1 1.331 1_565 S
C77 C27 1.331 1_545 S
C92 C18 1.842 . S
C107 C11 1.842 . S
C122 C10 1.490 1_455 S
C137 C2 1.490 1_655 S
