# Generated by pormake.
# Topology qtz, (4)-cn, num edge types: 1
# Building blocks:
#     Node 0, Type 0, BuildingBlock: QUQFOY_clean_sbu_3, # of connection points: 4
#     Node 1, Type 0, BuildingBlock: QUQFOY_clean_sbu_3, # of connection points: 4
#     Node 2, Type 0, BuildingBlock: QUQFOY_clean_sbu_3, # of connection points: 4
#     Edge 3, Type (0, 0), BuildingBlock: KIFKEQ_clean_linker_1, # of connection points: 2
#     Edge 4, Type (0, 0), BuildingBlock: KIFKEQ_clean_linker_1, # of connection points: 2
#     Edge 5, Type (0, 0), BuildingBlock: KIFKEQ_clean_linker_1, # of connection points: 2
#     Edge 6, Type (0, 0), BuildingBlock: KIFKEQ_clean_linker_1, # of connection points: 2
#     Edge 7, Type (0, 0), BuildingBlock: KIFKEQ_clean_linker_1, # of connection points: 2
#     Edge 8, Type (0, 0), BuildingBlock: KIFKEQ_clean_linker_1, # of connection points: 2
# Relax obj value: 0.008
# Max RMSD: 0.055
# Mean RMSD: 0.047
data_MOF--net-qtz--node1-QUQFOY_clean_sbu_3--edge1-KIFKEQ_clean_linker_1
_symmetry_space_group_name_H-M    P1
_symmetry_Int_Tables_number       1
_symmetry_cell_setting            triclinic
loop_
_symmetry_equiv_pos_as_xyz
'x, y, z'
_cell_length_a     24.661841
_cell_length_b     24.404791
_cell_length_c     30.020394
_cell_angle_alpha  90.220855
_cell_angle_beta   91.661313
_cell_angle_gamma 121.01531
loop_
_atom_site_label
_atom_site_type_symbol
_atom_site_fract_x
_atom_site_fract_y
_atom_site_fract_z
_atom_type_partial_charge
C0 C 0.91684 0.51879 0.11943 0.0
O1 O 0.92492 0.55097 0.15495 0.0
Cd2 Cd -0.00848 0.55917 0.21739 0.0
O3 O 0.94479 0.4875 0.11484 0.0
Cd4 Cd 0.01881 0.46592 0.15805 0.0
C5 C 0.91801 0.39959 0.24179 0.0
O6 O 0.08619 0.57427 0.18724 0.0
O7 O 0.10362 0.50386 0.21578 0.0
O8 O 0.06202 0.46791 0.0861 0.0
C9 C 0.11897 0.56193 0.21393 0.0
O10 O 0.93475 0.45651 0.25358 0.0
C11 C 0.06963 0.42101 0.0931 0.0
O12 O 0.93717 0.38818 0.2059 0.0
O13 O 0.05154 0.39316 0.13005 0.0
C14 C 0.44233 0.1037 0.52491 0.0
O15 O 0.4071 0.08878 0.48986 0.0
Cd16 Cd 0.40319 0.01379 0.43515 0.0
O17 O 0.47201 0.07508 0.53415 0.0
Cd18 Cd 0.48557 -0.01219 0.50804 0.0
C19 C 0.5638 0.07823 0.42173 0.0
O20 O 0.38244 0.91845 0.47142 0.0
O21 O 0.45654 0.89917 0.45711 0.0
O22 O 0.46309 0.94602 0.58236 0.0
C23 C 0.3992 0.88375 0.45157 0.0
O24 O 0.50963 0.06464 0.40589 0.0
C25 C 0.51227 0.94216 0.58762 0.0
O26 O 0.57001 0.06008 0.4603 0.0
O27 O 0.55059 0.96139 0.55593 0.0
C28 C 0.64794 0.54712 0.87264 0.0
O29 O 0.676 0.58406 0.84067 0.0
Cd30 Cd 0.62397 0.60899 0.78239 0.0
O31 O 0.58807 0.51977 0.87548 0.0
Cd32 Cd 0.49666 0.51352 0.83412 0.0
C33 C 0.52475 0.45826 0.73865 0.0
O34 O 0.55015 0.62793 0.81934 0.0
O35 O 0.45601 0.56918 0.7904 0.0
O36 O 0.44982 0.50014 0.90666 0.0
C37 C 0.50426 0.62445 0.79674 0.0
O38 O 0.57231 0.51416 0.73375 0.0
C39 C 0.39528 0.45471 0.89399 0.0
O40 O 0.49156 0.44468 0.77308 0.0
O41 O 0.38841 0.43555 0.85372 0.0
H42 H 0.39889 0.46932 0.98432 0.0
H43 H 0.26955 0.38407 0.87041 0.0
H44 H 0.30983 0.44207 0.03156 0.0
H45 H 0.18053 0.35758 0.91774 0.0
H46 H 0.08575 0.4486 0.00508 0.0
H47 H 0.15749 0.43837 0.95619 0.0
H48 H 0.20486 0.34825 0.06126 0.0
H49 H 0.13209 0.35757 0.1102 0.0
C50 C 0.35136 0.44371 0.96957 0.0
C51 C 0.34118 0.42941 0.92364 0.0
C52 C 0.30039 0.42773 0.99665 0.0
C53 C 0.23846 0.39798 0.97816 0.0
C54 C 0.22792 0.38072 0.93268 0.0
C55 C 0.27883 0.39579 0.90571 0.0
C56 C 0.11031 0.42522 0.01739 0.0
C57 C 0.10381 0.40433 0.06148 0.0
C58 C 0.15107 0.41903 0.98934 0.0
C59 C 0.18682 0.39279 0.00511 0.0
C60 C 0.1779 0.36885 0.04845 0.0
C61 C 0.13615 0.37397 0.0763 0.0
H62 H 0.89196 0.40626 0.32841 0.0
H63 H 0.84336 0.27294 0.21793 0.0
H64 H 0.81107 0.32129 0.37229 0.0
H65 H 0.76196 0.18769 0.26215 0.0
H66 H 0.56674 0.10145 0.33286 0.0
H67 H 0.65854 0.17271 0.29002 0.0
H68 H 0.78012 0.21482 0.40738 0.0
H69 H 0.68813 0.14324 0.45054 0.0
C70 C 0.86446 0.35862 0.31366 0.0
C71 C 0.87355 0.34637 0.26957 0.0
C72 C 0.81853 0.30989 0.33895 0.0
C73 C 0.78029 0.24808 0.32052 0.0
C74 C 0.79071 0.23514 0.27697 0.0
C75 C 0.83734 0.2838 0.2518 0.0
C76 C 0.61309 0.12539 0.34949 0.0
C77 C 0.62016 0.11725 0.39518 0.0
C78 C 0.66567 0.1657 0.32482 0.0
C79 C 0.72628 0.1992 0.34545 0.0
C80 C 0.73375 0.18968 0.3908 0.0
C81 C 0.68117 0.14867 0.41541 0.0
H82 H 0.43834 0.89896 0.65995 0.0
H83 H 0.60498 0.91415 0.60401 0.0
H84 H 0.44147 0.83177 0.71853 0.0
H85 H 0.60752 0.84612 0.66243 0.0
H86 H 0.61015 0.74249 0.78732 0.0
H87 H 0.61866 0.83132 0.74407 0.0
H88 H 0.41776 0.7205 0.71235 0.0
H89 H 0.40921 0.63245 0.75549 0.0
C90 C 0.47624 0.88881 0.66056 0.0
C91 C 0.52087 0.911 0.62699 0.0
C92 C 0.47787 0.85018 0.69404 0.0
C93 C 0.52417 0.833 0.69465 0.0
C94 C 0.57145 0.85884 0.66292 0.0
C95 C 0.5698 0.89752 0.62934 0.0
C96 C 0.56775 0.73762 0.77158 0.0
C97 C 0.50907 0.68046 0.77448 0.0
C98 C 0.5727 0.78828 0.74674 0.0
C99 C 0.51891 0.78282 0.72489 0.0
C100 C 0.45993 0.72651 0.7293 0.0
C101 C 0.4551 0.67584 0.75372 0.0
H102 H 0.60884 0.4929 0.95381 0.0
H103 H 0.77174 0.57941 0.87073 0.0
H104 H 0.67216 0.48174 0.01306 0.0
H105 H 0.83479 0.56802 0.9301 0.0
H106 H 0.90713 0.4779 0.03296 0.0
H107 H 0.84002 0.48025 0.97236 0.0
H108 H 0.76531 0.56102 0.06278 0.0
H109 H 0.83222 0.55893 0.12333 0.0
C110 C 0.65798 0.50911 0.94805 0.0
C111 C 0.68536 0.53733 0.90764 0.0
C112 C 0.69422 0.50297 0.98205 0.0
C113 C 0.75831 0.52419 0.97613 0.0
C114 C 0.78532 0.55086 0.93537 0.0
C115 C 0.7493 0.5577 0.90153 0.0
C116 C 0.87618 0.49588 0.03996 0.0
C117 C 0.87508 0.51836 0.08292 0.0
C118 C 0.83805 0.49747 0.00523 0.0
C119 C 0.79753 0.52073 0.01298 0.0
C120 C 0.79569 0.54226 0.05603 0.0
C121 C 0.83431 0.54141 0.09059 0.0
H122 H 0.42361 0.80323 0.40512 0.0
H123 H 0.27993 0.85175 0.42328 0.0
H124 H 0.35741 0.7257 0.34682 0.0
H125 H 0.21326 0.77335 0.36529 0.0
H126 H 0.19012 0.54643 0.27826 0.0
H127 H 0.25707 0.62278 0.33707 0.0
H128 H 0.21538 0.76168 0.28356 0.0
H129 H 0.14773 0.68512 0.22512 0.0
C130 C 0.37764 0.79693 0.39692 0.0
C131 C 0.35699 0.83369 0.41865 0.0
C132 C 0.33968 0.75237 0.36365 0.0
C133 C 0.28038 0.74378 0.35136 0.0
C134 C 0.25921 0.7797 0.37365 0.0
C135 C 0.29712 0.82417 0.40707 0.0
C136 C 0.19559 0.59341 0.2789 0.0
C137 C 0.16355 0.60976 0.2472 0.0
C138 C 0.23401 0.63713 0.3125 0.0
C139 C 0.241 0.69796 0.31507 0.0
C140 C 0.20999 0.71473 0.28281 0.0
C141 C 0.17173 0.6711 0.24915 0.0
H142 H 0.60041 0.45972 0.6737 0.0
H143 H 0.41392 0.34352 0.72627 0.0
H144 H 0.57734 0.37458 0.61992 0.0
H145 H 0.39087 0.25859 0.6718 0.0
H146 H 0.36591 0.15422 0.53244 0.0
H147 H 0.38289 0.24183 0.58263 0.0
H148 H 0.55639 0.2591 0.63408 0.0
H149 H 0.53936 0.17164 0.58494 0.0
C150 C 0.5543 0.41632 0.6735 0.0
C151 C 0.50914 0.40811 0.70445 0.0
C152 C 0.54124 0.36765 0.6428 0.0
C153 C 0.48247 0.31025 0.64196 0.0
C154 C 0.4364 0.30268 0.67175 0.0
C155 C 0.44981 0.35104 0.70302 0.0
C156 C 0.40757 0.17679 0.55452 0.0
C157 C 0.45124 0.15607 0.55484 0.0
C158 C 0.4171 0.22658 0.58322 0.0
C159 C 0.47108 0.25712 0.61186 0.0
C160 C 0.51472 0.23659 0.61197 0.0
C161 C 0.50469 0.18629 0.58403 0.0
loop_
_geom_bond_atom_site_label_1
_geom_bond_atom_site_label_2
_geom_bond_distance
_geom_bond_site_symmetry_2
_ccdc_geom_bond_type
C0 O1 1.306 . S
C0 O3 1.160 . S
O1 C0 1.306 . S
O1 Cd2 2.228 . S
Cd2 O1 2.228 . S
Cd2 O6 2.273 1_655 S
Cd2 O10 2.277 . S
O3 C0 1.160 . S
O3 Cd4 2.203 1_655 S
Cd4 O3 2.203 1_455 S
Cd4 O6 2.411 . S
Cd4 O7 2.333 . S
Cd4 O8 2.352 . S
Cd4 O12 2.277 1_455 S
Cd4 O13 2.356 . S
C5 O10 1.209 . S
C5 O12 1.226 . S
O6 Cd2 2.273 1_455 S
O6 Cd4 2.411 . S
O6 C9 1.320 . S
O7 Cd4 2.333 . S
O7 C9 1.214 . S
O8 Cd4 2.352 . S
O8 C11 1.258 . S
C9 O6 1.320 . S
C9 O7 1.214 . S
O10 Cd2 2.277 . S
O10 C5 1.209 . S
C11 O8 1.258 . S
C11 O13 1.282 . S
O12 Cd4 2.277 1_655 S
O12 C5 1.226 . S
O13 Cd4 2.356 . S
O13 C11 1.282 . S
C14 O15 1.306 . S
C14 O17 1.160 . S
O15 C14 1.306 . S
O15 Cd16 2.228 . S
Cd16 O15 2.228 . S
Cd16 O20 2.273 1_545 S
Cd16 O24 2.277 . S
O17 C14 1.160 . S
O17 Cd18 2.203 . S
Cd18 O17 2.203 . S
Cd18 O20 2.411 1_545 S
Cd18 O21 2.333 1_545 S
Cd18 O22 2.352 1_545 S
Cd18 O26 2.277 . S
Cd18 O27 2.356 1_545 S
C19 O24 1.209 . S
C19 O26 1.226 . S
O20 Cd16 2.273 1_565 S
O20 Cd18 2.411 1_565 S
O20 C23 1.320 . S
O21 Cd18 2.333 1_565 S
O21 C23 1.214 . S
O22 Cd18 2.352 1_565 S
O22 C25 1.258 . S
C23 O20 1.320 . S
C23 O21 1.214 . S
O24 Cd16 2.277 . S
O24 C19 1.209 . S
C25 O22 1.258 . S
C25 O27 1.282 . S
O26 Cd18 2.277 . S
O26 C19 1.226 . S
O27 Cd18 2.356 1_565 S
O27 C25 1.282 . S
C28 O29 1.306 . S
C28 O31 1.160 . S
O29 C28 1.306 . S
O29 Cd30 2.228 . S
Cd30 O29 2.228 . S
Cd30 O34 2.273 . S
Cd30 O38 2.277 . S
O31 C28 1.160 . S
O31 Cd32 2.203 . S
Cd32 O31 2.203 . S
Cd32 O34 2.411 . S
Cd32 O35 2.333 . S
Cd32 O36 2.352 . S
Cd32 O40 2.277 . S
Cd32 O41 2.356 . S
C33 O38 1.209 . S
C33 O40 1.226 . S
O34 Cd30 2.273 . S
O34 Cd32 2.411 . S
O34 C37 1.320 . S
O35 Cd32 2.333 . S
O35 C37 1.214 . S
O36 Cd32 2.352 . S
O36 C39 1.258 . S
C37 O34 1.320 . S
C37 O35 1.214 . S
O38 Cd30 2.277 . S
O38 C33 1.209 . S
C39 O36 1.258 . S
C39 O41 1.282 . S
O40 Cd32 2.277 . S
O40 C33 1.226 . S
O41 Cd32 2.356 . S
O41 C39 1.282 . S
H42 C50 0.950 . S
H43 C55 0.950 . S
H44 C52 0.950 1_554 S
H45 C54 0.950 . S
H46 C56 0.950 . S
H47 C58 0.950 1_556 S
H48 C60 0.950 . S
H49 C61 0.950 . S
C50 H42 0.950 . S
C50 C51 1.386 . S
C50 C52 1.391 . S
C51 C50 1.386 . S
C51 C55 1.393 . S
C52 H44 0.950 1_556 S
C52 C50 1.391 . S
C52 C53 1.400 . S
C53 C52 1.400 . S
C53 C54 1.398 . S
C53 C59 1.491 1_556 S
C54 H45 0.950 . S
C54 C53 1.398 . S
C54 C55 1.391 . S
C55 H43 0.950 . S
C55 C51 1.393 . S
C55 C54 1.391 . S
C56 H46 0.950 . S
C56 C57 1.386 . S
C56 C58 1.391 . S
C57 C56 1.386 . S
C57 C61 1.393 . S
C58 H47 0.950 1_554 S
C58 C56 1.391 . S
C58 C59 1.400 . S
C59 C53 1.491 1_554 S
C59 C58 1.400 . S
C59 C60 1.398 . S
C60 H48 0.950 . S
C60 C59 1.398 . S
C60 C61 1.391 . S
C61 H49 0.950 . S
C61 C57 1.393 . S
C61 C60 1.391 . S
H62 C70 0.950 . S
H63 C75 0.950 . S
H64 C72 0.950 . S
H65 C74 0.950 . S
H66 C76 0.950 . S
H67 C78 0.950 . S
H68 C80 0.950 . S
H69 C81 0.950 . S
C70 H62 0.950 . S
C70 C71 1.386 . S
C70 C72 1.391 . S
C71 C70 1.386 . S
C71 C75 1.393 . S
C72 H64 0.950 . S
C72 C70 1.391 . S
C72 C73 1.400 . S
C73 C72 1.400 . S
C73 C74 1.398 . S
C73 C79 1.491 . S
C74 H65 0.950 . S
C74 C73 1.398 . S
C74 C75 1.391 . S
C75 H63 0.950 . S
C75 C71 1.393 . S
C75 C74 1.391 . S
C76 H66 0.950 . S
C76 C77 1.386 . S
C76 C78 1.391 . S
C77 C76 1.386 . S
C77 C81 1.393 . S
C78 H67 0.950 . S
C78 C76 1.391 . S
C78 C79 1.400 . S
C79 C73 1.491 . S
C79 C78 1.400 . S
C79 C80 1.398 . S
C80 H68 0.950 . S
C80 C79 1.398 . S
C80 C81 1.391 . S
C81 H69 0.950 . S
C81 C77 1.393 . S
C81 C80 1.391 . S
H82 C90 0.950 . S
H83 C95 0.950 . S
H84 C92 0.950 . S
H85 C94 0.950 . S
H86 C96 0.950 . S
H87 C98 0.950 . S
H88 C100 0.950 . S
H89 C101 0.950 . S
C90 H82 0.950 . S
C90 C91 1.386 . S
C90 C92 1.391 . S
C91 C90 1.386 . S
C91 C95 1.393 . S
C92 H84 0.950 . S
C92 C90 1.391 . S
C92 C93 1.400 . S
C93 C92 1.400 . S
C93 C94 1.398 . S
C93 C99 1.491 . S
C94 H85 0.950 . S
C94 C93 1.398 . S
C94 C95 1.391 . S
C95 H83 0.950 . S
C95 C91 1.393 . S
C95 C94 1.391 . S
C96 H86 0.950 . S
C96 C97 1.386 . S
C96 C98 1.391 . S
C97 C96 1.386 . S
C97 C101 1.393 . S
C98 H87 0.950 . S
C98 C96 1.391 . S
C98 C99 1.400 . S
C99 C93 1.491 . S
C99 C98 1.400 . S
C99 C100 1.398 . S
C100 H88 0.950 . S
C100 C99 1.398 . S
C100 C101 1.391 . S
C101 H89 0.950 . S
C101 C97 1.393 . S
C101 C100 1.391 . S
H102 C110 0.950 . S
H103 C115 0.950 . S
H104 C112 0.950 1_554 S
H105 C114 0.950 . S
H106 C116 0.950 . S
H107 C118 0.950 1_556 S
H108 C120 0.950 . S
H109 C121 0.950 . S
C110 H102 0.950 . S
C110 C111 1.386 . S
C110 C112 1.391 . S
C111 C110 1.386 . S
C111 C115 1.393 . S
C112 H104 0.950 1_556 S
C112 C110 1.391 . S
C112 C113 1.400 . S
C113 C112 1.400 . S
C113 C114 1.398 . S
C113 C119 1.491 1_556 S
C114 H105 0.950 . S
C114 C113 1.398 . S
C114 C115 1.391 . S
C115 H103 0.950 . S
C115 C111 1.393 . S
C115 C114 1.391 . S
C116 H106 0.950 . S
C116 C117 1.386 . S
C116 C118 1.391 . S
C117 C116 1.386 . S
C117 C121 1.393 . S
C118 H107 0.950 1_554 S
C118 C116 1.391 . S
C118 C119 1.400 . S
C119 C113 1.491 1_554 S
C119 C118 1.400 . S
C119 C120 1.398 . S
C120 H108 0.950 . S
C120 C119 1.398 . S
C120 C121 1.391 . S
C121 H109 0.950 . S
C121 C117 1.393 . S
C121 C120 1.391 . S
H122 C130 0.950 . S
H123 C135 0.950 . S
H124 C132 0.950 . S
H125 C134 0.950 . S
H126 C136 0.950 . S
H127 C138 0.950 . S
H128 C140 0.950 . S
H129 C141 0.950 . S
C130 H122 0.950 . S
C130 C131 1.386 . S
C130 C132 1.391 . S
C131 C130 1.386 . S
C131 C135 1.393 . S
C132 H124 0.950 . S
C132 C130 1.391 . S
C132 C133 1.400 . S
C133 C132 1.400 . S
C133 C134 1.398 . S
C133 C139 1.491 . S
C134 H125 0.950 . S
C134 C133 1.398 . S
C134 C135 1.391 . S
C135 H123 0.950 . S
C135 C131 1.393 . S
C135 C134 1.391 . S
C136 H126 0.950 . S
C136 C137 1.386 . S
C136 C138 1.391 . S
C137 C136 1.386 . S
C137 C141 1.393 . S
C138 H127 0.950 . S
C138 C136 1.391 . S
C138 C139 1.400 . S
C139 C133 1.491 . S
C139 C138 1.400 . S
C139 C140 1.398 . S
C140 H128 0.950 . S
C140 C139 1.398 . S
C140 C141 1.391 . S
C141 H129 0.950 . S
C141 C137 1.393 . S
C141 C140 1.391 . S
H142 C150 0.950 . S
H143 C155 0.950 . S
H144 C152 0.950 . S
H145 C154 0.950 . S
H146 C156 0.950 . S
H147 C158 0.950 . S
H148 C160 0.950 . S
H149 C161 0.950 . S
C150 H142 0.950 . S
C150 C151 1.386 . S
C150 C152 1.391 . S
C151 C150 1.386 . S
C151 C155 1.393 . S
C152 H144 0.950 . S
C152 C150 1.391 . S
C152 C153 1.400 . S
C153 C152 1.400 . S
C153 C154 1.398 . S
C153 C159 1.491 . S
C154 H145 0.950 . S
C154 C153 1.398 . S
C154 C155 1.391 . S
C155 H143 0.950 . S
C155 C151 1.393 . S
C155 C154 1.391 . S
C156 H146 0.950 . S
C156 C157 1.386 . S
C156 C158 1.391 . S
C157 C156 1.386 . S
C157 C161 1.393 . S
C158 H147 0.950 . S
C158 C156 1.391 . S
C158 C159 1.400 . S
C159 C153 1.491 . S
C159 C158 1.400 . S
C159 C160 1.398 . S
C160 H148 0.950 . S
C160 C159 1.398 . S
C160 C161 1.391 . S
C161 H149 0.950 . S
C161 C157 1.393 . S
C161 C160 1.391 . S
C51 C39 1.417 . S
C57 C11 1.415 . S
C71 C5 1.517 . S
C77 C19 1.519 . S
C91 C25 1.421 . S
C97 C37 1.415 . S
C111 C28 1.425 . S
C117 C0 1.427 . S
C131 C23 1.418 . S
C137 C9 1.426 . S
C151 C33 1.474 . S
C157 C14 1.471 . S
