# Generated by pormake.
# Topology sxc, (6)-cn, num edge types: 1
# Building blocks:
#     Node 0, Type 0, BuildingBlock: CUKXOW_clean_sbu_0, # of connection points: 6
#     Node 1, Type 0, BuildingBlock: CUKXOW_clean_sbu_0, # of connection points: 6
#     Node 2, Type 0, BuildingBlock: CUKXOW_clean_sbu_0, # of connection points: 6
#     Edge 3, Type (0, 0), BuildingBlock: EYOCIG_clean_linker_4, # of connection points: 2
#     Edge 4, Type (0, 0), BuildingBlock: EYOCIG_clean_linker_4, # of connection points: 2
#     Edge 5, Type (0, 0), BuildingBlock: EYOCIG_clean_linker_4, # of connection points: 2
#     Edge 6, Type (0, 0), BuildingBlock: EYOCIG_clean_linker_4, # of connection points: 2
#     Edge 7, Type (0, 0), BuildingBlock: EYOCIG_clean_linker_4, # of connection points: 2
#     Edge 8, Type (0, 0), BuildingBlock: EYOCIG_clean_linker_4, # of connection points: 2
#     Edge 9, Type (0, 0), BuildingBlock: EYOCIG_clean_linker_4, # of connection points: 2
#     Edge 10, Type (0, 0), BuildingBlock: EYOCIG_clean_linker_4, # of connection points: 2
#     Edge 11, Type (0, 0), BuildingBlock: EYOCIG_clean_linker_4, # of connection points: 2
# Relax obj value: 0.057
# Max RMSD: 0.106
# Mean RMSD: 0.065
data_MOF--net-sxc--node1-CUKXOW_clean_sbu_0--edge1-EYOCIG_clean_linker_4
_symmetry_space_group_name_H-M    P1
_symmetry_Int_Tables_number       1
_symmetry_cell_setting            triclinic
loop_
_symmetry_equiv_pos_as_xyz
'x, y, z'
_cell_length_a     11.746517
_cell_length_b     14.023068
_cell_length_c     36.646826
_cell_angle_alpha  88.59233
_cell_angle_beta   101.24564
_cell_angle_gamma 122.95626
loop_
_atom_site_label
_atom_site_type_symbol
_atom_site_fract_x
_atom_site_fract_y
_atom_site_fract_z
_atom_type_partial_charge
Tb0 Tb 1.00387 0.11479 -0.00156 0.0
C1 C 0.10531 0.06883 0.07845 0.0
Tb2 Tb 0.19755 0.03201 0.00704 0.0
O3 O 0.79721 0.9466 -0.0054 0.0
O4 O 0.9751 0.94908 0.00132 0.0
O5 O 0.04374 0.11464 0.05866 0.0
C6 C 0.21825 0.85184 0.00364 0.0
O7 O 0.16671 0.02732 0.06415 0.0
C8 C 0.35972 0.26844 0.00664 0.0
C9 C 0.09515 0.07905 0.92708 0.0
O10 O 0.28011 0.93068 0.03177 0.0
O11 O 0.15571 0.88019 0.97699 0.0
O12 O 0.40431 0.19994 0.01083 0.0
O13 O 0.22645 0.19767 0.00406 0.0
O14 O 0.15765 0.0336 0.9467 0.0
O15 O 1.03339 0.1197 0.94148 0.0
C16 C 0.98326 0.2951 0.00074 0.0
O17 O 0.9218 0.21555 0.97286 0.0
O18 O 0.04483 0.26717 0.02782 0.0
C19 C 0.84186 0.87814 -0.00131 0.0
Tb20 Tb 0.13311 0.16584 0.33533 0.0
C21 C 0.04762 0.03148 0.25721 0.0
Tb22 Tb 0.96902 0.8995 0.32956 0.0
O23 O 0.34672 0.20436 0.33964 0.0
O24 O 0.17786 0.03952 0.33506 0.0
O25 O 0.088 0.12899 0.27525 0.0
C26 C 0.95372 0.70584 0.33144 0.0
O27 O 1.00744 0.93518 0.27313 0.0
C28 C 0.79318 0.96702 0.32777 0.0
C29 C 0.05741 0.03688 0.40781 0.0
O30 O 0.88797 0.72974 0.30391 0.0
O31 O 1.02209 0.7879 0.35816 0.0
O32 O 0.75538 0.8605 0.32543 0.0
O33 O 0.924 1.02558 0.32995 0.0
O34 O 1.01561 0.93828 0.39001 0.0
O35 O 0.0965 0.1322 0.39156 0.0
C36 C 0.14604 0.35832 0.33265 0.0
O37 O 0.21141 0.33529 0.36058 0.0
O38 O 0.07957 0.27613 0.30601 0.0
C39 C 0.30865 0.09775 0.3373 0.0
Tb40 Tb 0.13484 0.21139 0.66882 0.0
C41 C 0.093 0.10866 0.7447 0.0
Tb42 Tb 1.01805 1.00897 0.66442 0.0
O43 O 0.96598 0.23031 0.64399 0.0
O44 O 0.93014 0.09896 0.67856 0.0
O45 O 0.15339 0.20426 0.72915 0.0
C46 C 0.8087 0.80617 0.63713 0.0
O47 O 1.01977 1.01135 0.72368 0.0
C48 C 0.27844 0.07771 0.67644 0.0
C49 C 0.06755 0.10421 0.5887 0.0
O50 O 0.90259 0.82833 0.66695 0.0
O51 O 0.83194 0.89838 0.62307 0.0
O52 O 0.18583 0.98957 0.68989 0.0
O53 O 0.22427 0.12238 0.65564 0.0
O54 O 1.0094 1.01014 0.60484 0.0
O55 O 0.13512 0.20273 0.60912 0.0
C56 C 0.33258 0.42013 0.69384 0.0
O57 O 0.23863 0.39033 0.66351 0.0
O58 O 0.31829 0.33247 0.70951 0.0
C59 C 0.87496 0.14355 0.65817 0.0
C60 C 0.0697 0.51335 -3e-05 0.0
C61 C 1.02412 0.41213 -0.00217 0.0
C62 C 0.1334 0.63378 0.00345 0.0
C63 C 0.17826 0.73485 0.00597 0.0
C64 C 0.49483 0.04065 0.33361 0.0
C65 C 0.40361 0.05913 0.33509 0.0
C66 C 0.60643 1.02333 0.33165 0.0
C67 C 0.69787 1.00518 0.33008 0.0
C68 C 0.59461 0.64827 0.65164 0.0
C69 C 0.67411 0.71479 0.63476 0.0
C70 C 0.53533 0.59231 0.68043 0.0
C71 C 0.4611 0.52022 0.69711 0.0
C72 C 0.64002 0.11815 0.66554 0.0
C73 C 0.74722 0.12988 0.66214 0.0
C74 C 0.51477 0.10444 0.66993 0.0
C75 C 0.40684 0.09186 0.673 0.0
C76 C 0.6564 0.63741 0.00185 0.0
C77 C 0.7466 0.74487 0.00071 0.0
C78 C 0.54539 0.50902 0.00329 0.0
C79 C 0.45513 0.40162 0.00451 0.0
C80 C 0.07206 0.50255 0.33293 0.0
C81 C 0.11229 0.4402 0.33518 0.0
C82 C 1.02515 0.56017 0.33031 0.0
C83 C 0.98562 0.62298 0.32834 0.0
C84 C 0.06855 0.039 0.18655 0.0
C85 C 0.05794 0.03307 0.21875 0.0
C86 C 0.08531 0.04909 0.14919 0.0
C87 C 0.09621 0.05688 0.11701 0.0
C88 C 0.05775 0.05603 0.47931 0.0
C89 C 0.05522 0.04146 0.44676 0.0
C90 C 0.06282 0.07906 0.51715 0.0
C91 C 0.06886 0.09664 0.54977 0.0
C92 C 0.10456 0.10822 0.81733 0.0
C93 C 0.101 0.11089 0.78426 0.0
C94 C 0.10315 0.0992 0.85569 0.0
C95 C 0.0999 0.08972 0.8883 0.0
loop_
_geom_bond_atom_site_label_1
_geom_bond_atom_site_label_2
_geom_bond_distance
_geom_bond_site_symmetry_2
_ccdc_geom_bond_type
Tb0 O3 2.453 1_544 S
Tb0 O4 2.596 1_545 S
Tb0 O5 2.374 1_655 S
Tb0 O13 2.343 1_655 S
Tb0 O15 2.353 1_554 S
Tb0 O17 2.427 1_554 S
Tb0 O18 2.513 1_655 S
C1 O5 1.251 . S
C1 O7 1.263 . S
Tb2 O4 2.343 1_455 S
Tb2 O7 2.353 1_565 S
Tb2 O10 2.427 . S
Tb2 O11 2.513 1_554 S
Tb2 O12 2.453 1_565 S
Tb2 O13 2.596 1_565 S
Tb2 O14 2.374 1_564 S
O3 Tb0 2.453 1_566 S
O3 C19 1.245 1_556 S
O4 Tb0 2.596 1_565 S
O4 Tb2 2.343 1_655 S
O4 C19 1.259 . S
O5 Tb0 2.374 1_455 S
O5 C1 1.251 . S
C6 O10 1.275 . S
C6 O11 1.246 1_554 S
O7 C1 1.263 . S
O7 Tb2 2.353 1_545 S
C8 O12 1.245 . S
C8 O13 1.259 . S
C9 O14 1.250 . S
C9 O15 1.263 1_455 S
O10 Tb2 2.427 . S
O10 C6 1.275 . S
O11 Tb2 2.513 1_556 S
O11 C6 1.246 1_556 S
O12 Tb2 2.453 1_545 S
O12 C8 1.245 . S
O13 Tb0 2.343 1_455 S
O13 Tb2 2.596 1_545 S
O13 C8 1.259 . S
O14 Tb2 2.374 1_546 S
O14 C9 1.250 . S
O15 Tb0 2.353 1_556 S
O15 C9 1.263 1_655 S
C16 O17 1.275 1_454 S
C16 O18 1.246 . S
O17 Tb0 2.427 1_556 S
O17 C16 1.275 1_656 S
O18 Tb0 2.513 1_455 S
O18 C16 1.246 . S
C19 O3 1.245 1_554 S
C19 O4 1.259 . S
Tb20 O23 2.453 . S
Tb20 O24 2.596 1_545 S
Tb20 O25 2.374 . S
Tb20 O33 2.343 1_455 S
Tb20 O35 2.353 . S
Tb20 O37 2.427 . S
Tb20 O38 2.513 . S
C21 O25 1.257 1_655 S
C21 O27 1.262 1_545 S
Tb22 O24 2.343 1_655 S
Tb22 O27 2.353 . S
Tb22 O30 2.427 . S
Tb22 O31 2.513 1_655 S
Tb22 O32 2.453 . S
Tb22 O33 2.596 1_565 S
Tb22 O34 2.374 . S
O23 Tb20 2.453 . S
O23 C39 1.245 . S
O24 Tb20 2.596 1_565 S
O24 Tb22 2.343 1_455 S
O24 C39 1.259 1_565 S
O25 Tb20 2.374 . S
O25 C21 1.257 1_455 S
C26 O30 1.278 . S
C26 O31 1.249 1_655 S
O27 C21 1.262 1_565 S
O27 Tb22 2.353 . S
C28 O32 1.245 . S
C28 O33 1.259 1_565 S
C29 O34 1.250 1_445 S
C29 O35 1.263 . S
O30 Tb22 2.427 . S
O30 C26 1.278 . S
O31 Tb22 2.513 1_455 S
O31 C26 1.249 1_455 S
O32 Tb22 2.453 . S
O32 C28 1.245 . S
O33 Tb20 2.343 1_655 S
O33 Tb22 2.596 1_545 S
O33 C28 1.259 1_545 S
O34 Tb22 2.374 . S
O34 C29 1.250 1_665 S
O35 Tb20 2.353 . S
O35 C29 1.263 . S
C36 O37 1.275 . S
C36 O38 1.246 . S
O37 Tb20 2.427 . S
O37 C36 1.275 . S
O38 Tb20 2.513 . S
O38 C36 1.246 . S
C39 O23 1.245 . S
C39 O24 1.259 1_545 S
Tb40 O43 2.453 1_455 S
Tb40 O44 2.596 1_455 S
Tb40 O45 2.374 . S
Tb40 O53 2.343 . S
Tb40 O55 2.353 . S
Tb40 O57 2.427 . S
Tb40 O58 2.513 . S
C41 O45 1.251 . S
C41 O47 1.263 . S
Tb42 O44 2.343 1_565 S
Tb42 O47 2.353 1_665 S
Tb42 O50 2.427 . S
Tb42 O51 2.513 . S
Tb42 O52 2.453 1_655 S
Tb42 O53 2.596 1_665 S
Tb42 O54 2.374 . S
O43 Tb40 2.453 1_655 S
O43 C59 1.245 . S
O44 Tb40 2.596 1_655 S
O44 Tb42 2.343 1_545 S
O44 C59 1.259 . S
O45 Tb40 2.374 . S
O45 C41 1.251 . S
C46 O50 1.275 . S
C46 O51 1.246 . S
O47 C41 1.263 . S
O47 Tb42 2.353 1_445 S
C48 O52 1.245 1_545 S
C48 O53 1.259 . S
C49 O54 1.250 1_445 S
C49 O55 1.263 . S
O50 Tb42 2.427 . S
O50 C46 1.275 . S
O51 Tb42 2.513 . S
O51 C46 1.246 . S
O52 Tb42 2.453 1_455 S
O52 C48 1.245 1_565 S
O53 Tb40 2.343 . S
O53 Tb42 2.596 1_445 S
O53 C48 1.259 . S
O54 Tb42 2.374 . S
O54 C49 1.250 1_665 S
O55 Tb40 2.353 . S
O55 C49 1.263 . S
C56 O57 1.275 . S
C56 O58 1.246 . S
O57 Tb40 2.427 . S
O57 C56 1.275 . S
O58 Tb40 2.513 . S
O58 C56 1.246 . S
C59 O43 1.245 . S
C59 O44 1.259 . S
C60 C61 1.170 . S
C60 C62 1.380 . S
C61 C60 1.170 . S
C62 C60 1.380 . S
C62 C63 1.170 . S
C63 C62 1.170 . S
C64 C65 1.170 . S
C64 C66 1.380 . S
C65 C64 1.170 . S
C66 C64 1.380 . S
C66 C67 1.170 1_565 S
C67 C66 1.170 1_545 S
C68 C69 1.170 . S
C68 C70 1.380 . S
C69 C68 1.170 . S
C70 C68 1.380 . S
C70 C71 1.170 . S
C71 C70 1.170 . S
C72 C73 1.170 . S
C72 C74 1.380 . S
C73 C72 1.170 . S
C74 C72 1.380 . S
C74 C75 1.170 . S
C75 C74 1.170 . S
C76 C77 1.170 . S
C76 C78 1.380 . S
C77 C76 1.170 . S
C78 C76 1.380 . S
C78 C79 1.170 . S
C79 C78 1.170 . S
C80 C81 1.169 . S
C80 C82 1.381 1_655 S
C81 C80 1.169 . S
C82 C80 1.381 1_455 S
C82 C83 1.170 . S
C83 C82 1.170 . S
C84 C85 1.170 . S
C84 C86 1.380 1_565 S
C85 C84 1.170 . S
C86 C84 1.380 1_545 S
C86 C87 1.170 . S
C87 C86 1.170 . S
C88 C89 1.170 . S
C88 C90 1.380 . S
C89 C88 1.170 . S
C90 C88 1.380 . S
C90 C91 1.170 . S
C91 C90 1.170 . S
C92 C93 1.170 . S
C92 C94 1.380 . S
C93 C92 1.170 . S
C94 C92 1.380 . S
C94 C95 1.170 . S
C95 C94 1.170 . S
C61 C16 1.243 . S
C63 C6 1.225 . S
C65 C39 1.865 1_565 S
C67 C28 1.835 1_545 S
C69 C46 0.878 . S
C71 C56 0.805 . S
C73 C59 1.857 . S
C75 C48 1.817 . S
C77 C19 2.381 . S
C79 C8 2.391 . S
C81 C36 1.227 1_655 S
C83 C26 1.225 1_455 S
C85 C21 1.500 1_465 S
C87 C1 1.508 . S
C89 C29 1.493 . S
C91 C49 1.510 . S
C93 C41 1.494 . S
C95 C9 1.516 . S
