# Generated by pormake.
# Topology uki, (4)-cn, num edge types: 1
# Building blocks:
#     Node 0, Type 0, BuildingBlock: GALJAG_clean_sbu_0, # of connection points: 4
#     Node 1, Type 0, BuildingBlock: GALJAG_clean_sbu_0, # of connection points: 4
#     Node 2, Type 0, BuildingBlock: GALJAG_clean_sbu_0, # of connection points: 4
#     Node 3, Type 0, BuildingBlock: GALJAG_clean_sbu_0, # of connection points: 4
#     Node 4, Type 0, BuildingBlock: GALJAG_clean_sbu_0, # of connection points: 4
#     Node 5, Type 0, BuildingBlock: GALJAG_clean_sbu_0, # of connection points: 4
#     Node 6, Type 0, BuildingBlock: GALJAG_clean_sbu_0, # of connection points: 4
#     Node 7, Type 0, BuildingBlock: GALJAG_clean_sbu_0, # of connection points: 4
#     Node 8, Type 0, BuildingBlock: GALJAG_clean_sbu_0, # of connection points: 4
#     Node 9, Type 0, BuildingBlock: GALJAG_clean_sbu_0, # of connection points: 4
#     Node 10, Type 0, BuildingBlock: GALJAG_clean_sbu_0, # of connection points: 4
#     Node 11, Type 0, BuildingBlock: GALJAG_clean_sbu_0, # of connection points: 4
#     Node 12, Type 0, BuildingBlock: GALJAG_clean_sbu_0, # of connection points: 4
#     Node 13, Type 0, BuildingBlock: GALJAG_clean_sbu_0, # of connection points: 4
#     Node 14, Type 0, BuildingBlock: GALJAG_clean_sbu_0, # of connection points: 4
#     Node 15, Type 0, BuildingBlock: GALJAG_clean_sbu_0, # of connection points: 4
#     Edge 16, Type (0, 0), None
#     Edge 17, Type (0, 0), None
#     Edge 18, Type (0, 0), None
#     Edge 19, Type (0, 0), None
#     Edge 20, Type (0, 0), None
#     Edge 21, Type (0, 0), None
#     Edge 22, Type (0, 0), None
#     Edge 23, Type (0, 0), None
#     Edge 24, Type (0, 0), None
#     Edge 25, Type (0, 0), None
#     Edge 26, Type (0, 0), None
#     Edge 27, Type (0, 0), None
#     Edge 28, Type (0, 0), None
#     Edge 29, Type (0, 0), None
#     Edge 30, Type (0, 0), None
#     Edge 31, Type (0, 0), None
#     Edge 32, Type (0, 0), None
#     Edge 33, Type (0, 0), None
#     Edge 34, Type (0, 0), None
#     Edge 35, Type (0, 0), None
#     Edge 36, Type (0, 0), None
#     Edge 37, Type (0, 0), None
#     Edge 38, Type (0, 0), None
#     Edge 39, Type (0, 0), None
#     Edge 40, Type (0, 0), None
#     Edge 41, Type (0, 0), None
#     Edge 42, Type (0, 0), None
#     Edge 43, Type (0, 0), None
#     Edge 44, Type (0, 0), None
#     Edge 45, Type (0, 0), None
#     Edge 46, Type (0, 0), None
#     Edge 47, Type (0, 0), None
# Relax obj value: 0.104
# Max RMSD: 0.179
# Mean RMSD: 0.179
data_MOF--net-uki--node1-GALJAG_clean_sbu_0--edge1-none
_symmetry_space_group_name_H-M    P1
_symmetry_Int_Tables_number       1
_symmetry_cell_setting            triclinic
loop_
_symmetry_equiv_pos_as_xyz
'x, y, z'
_cell_length_a     14.300419
_cell_length_b     14.300374
_cell_length_c     32.554788
_cell_angle_alpha  89.999243
_cell_angle_beta   90.000353
_cell_angle_gamma 89.999633
loop_
_atom_site_label
_atom_site_type_symbol
_atom_site_fract_x
_atom_site_fract_y
_atom_site_fract_z
_atom_type_partial_charge
In0 In 0.06427 0.19294 0.3251 0.0
O1 O 0.10656 0.21424 0.39225 0.0
O2 O 0.20918 0.15977 0.3505 0.0
C3 C 0.90545 0.25636 0.29366 0.0
C4 C -0.00337 0.0212 0.32587 0.0
C5 C 0.15002 0.32716 0.284 0.0
O6 O 0.92262 0.26647 0.33184 0.0
O7 O 0.96749 0.21545 0.27276 0.0
O8 O 0.1507 0.24357 0.27057 0.0
O9 O 0.10991 0.34054 0.31823 0.0
C10 C 0.18993 0.18596 0.38673 0.0
O11 O 0.05473 0.04697 0.29856 0.0
O12 O -0.02133 0.07947 0.35394 0.0
In13 In 0.19295 0.88612 0.73145 0.0
O14 O 0.21425 0.84383 0.66431 0.0
O15 O 0.15978 0.74121 0.70606 0.0
C16 C 0.25637 0.04493 0.7629 0.0
C17 C 0.02121 0.95375 0.73069 0.0
C18 C 0.32717 0.80036 0.77256 0.0
O19 O 0.26648 0.02776 0.72472 0.0
O20 O 0.21546 -0.0171 0.7838 0.0
O21 O 0.24358 0.79969 0.78599 0.0
O22 O 0.34055 0.84047 0.73833 0.0
C23 C 0.18596 0.76046 0.66983 0.0
O24 O 0.04698 0.89565 0.758 0.0
O25 O 0.07949 0.97172 0.70262 0.0
In26 In 0.88612 0.75743 0.32511 0.0
O27 O 0.89566 0.9034 0.29856 0.0
O28 O 0.97172 0.8709 0.35394 0.0
C29 C 0.80037 0.62321 0.284 0.0
C30 C 0.76047 0.76442 0.38673 0.0
C31 C 0.04494 0.69401 0.29366 0.0
O32 O 0.7997 0.7068 0.27057 0.0
O33 O 0.84048 0.60984 0.31823 0.0
O34 O 0.02777 0.6839 0.33184 0.0
O35 O -0.01709 0.73493 0.27276 0.0
C36 C 0.95376 0.92917 0.32587 0.0
O37 O 0.84383 0.73613 0.39225 0.0
O38 O 0.74122 0.79061 0.3505 0.0
In39 In 0.75744 0.06426 0.73145 0.0
O40 O 0.90341 0.05472 0.758 0.0
O41 O 0.87091 -0.02134 0.70262 0.0
C42 C 0.62322 0.15001 0.77256 0.0
C43 C 0.76443 0.18993 0.66983 0.0
C44 C 0.69402 0.90544 0.76289 0.0
O45 O 0.70681 0.15069 0.78599 0.0
O46 O 0.60985 0.10991 0.73833 0.0
O47 O 0.68391 0.92261 0.72472 0.0
O48 O 0.73493 0.96747 0.78379 0.0
C49 C 0.92918 -0.00337 0.73069 0.0
O50 O 0.73614 0.10656 0.66431 0.0
O51 O 0.79062 0.20917 0.70606 0.0
In52 In 0.06428 0.25745 0.98146 0.0
O53 O 0.10656 0.23615 0.91431 0.0
O54 O 0.20919 0.29062 0.95606 0.0
C55 C 0.90546 0.19403 1.0129 0.0
C56 C -0.00335 0.42919 0.9807 0.0
C57 C 0.15003 0.12323 1.02256 0.0
O58 O 0.92263 0.18392 0.97472 0.0
O59 O 0.96749 0.23494 0.0338 0.0
O60 O 0.15071 0.20682 0.03599 0.0
O61 O 0.10993 0.10985 0.98833 0.0
C62 C 0.18993 0.26443 0.91983 0.0
O63 O 0.05475 0.40342 1.008 0.0
O64 O -0.02132 0.37092 0.95262 0.0
In65 In 0.25744 0.88612 0.0751 0.0
O66 O 0.23615 0.84383 0.14225 0.0
O67 O 0.29063 0.74121 0.1005 0.0
C68 C 0.19396 0.0449 0.04366 0.0
C69 C 0.42918 0.95377 0.07586 0.0
C70 C 0.12323 0.80035 0.034 0.0
O71 O 0.1839 0.02776 0.08184 0.0
O72 O 0.23489 -0.01712 1.02276 0.0
O73 O 0.20682 0.79969 1.02057 0.0
O74 O 0.10986 0.84044 0.06824 0.0
C75 C 0.26444 0.76046 0.13673 0.0
O76 O 0.40341 0.89566 0.04856 0.0
O77 O 0.37091 0.97174 0.10393 0.0
In78 In 0.88612 0.69296 0.98146 0.0
O79 O 0.89567 0.54699 1.008 0.0
O80 O 0.97174 0.5795 0.95262 0.0
C81 C 0.80036 0.82718 1.02255 0.0
C82 C 0.76046 0.68596 0.91983 0.0
C83 C 0.0449 0.75643 1.0129 0.0
O84 O 0.79969 0.74359 0.03599 0.0
O85 O 0.84045 0.84055 0.98832 0.0
O86 O 0.02777 0.7665 0.97472 0.0
O87 O -0.01712 0.7155 0.0338 0.0
C88 C 0.95377 0.52122 0.9807 0.0
O89 O 0.84383 0.71425 0.91431 0.0
O90 O 0.74122 0.65977 0.95606 0.0
In91 In 0.69295 0.06429 0.0751 0.0
O92 O 0.54697 0.05475 0.04855 0.0
O93 O 0.57949 -0.02134 0.10393 0.0
C94 C 0.82714 0.15008 0.03399 0.0
C95 C 0.68596 0.18993 0.13672 0.0
C96 C 0.75644 0.90551 0.04365 0.0
O97 O 0.74356 0.15073 1.02056 0.0
O98 O 0.84053 0.10998 0.06823 0.0
O99 O 0.7665 0.92264 0.08183 0.0
O100 O 0.7155 0.96753 1.02275 0.0
C101 C 0.52121 -0.00336 0.07585 0.0
O102 O 0.71426 0.10657 0.14224 0.0
O103 O 0.65976 0.20919 0.1005 0.0
In104 In 0.56428 0.69294 0.8251 0.0
O105 O 0.60657 0.71425 0.89225 0.0
O106 O 0.70918 0.65976 0.8505 0.0
C107 C 0.4055 0.75644 0.79366 0.0
C108 C 0.49663 0.5212 0.82585 0.0
C109 C 0.65008 0.82713 0.78399 0.0
O110 O 0.42264 0.7665 0.83184 0.0
O111 O 0.46752 0.7155 0.77275 0.0
O112 O 0.65072 0.74354 0.77057 0.0
O113 O 0.60997 0.84052 0.81823 0.0
C114 C 0.68994 0.68596 0.88672 0.0
O115 O 0.55474 0.54697 0.79855 0.0
O116 O 0.47866 0.57948 0.85393 0.0
In117 In 0.69295 0.38611 0.23146 0.0
O118 O 0.71426 0.34383 0.16431 0.0
O119 O 0.65976 0.24121 0.20606 0.0
C120 C 0.75645 0.54489 0.2629 0.0
C121 C 0.52121 0.45376 0.23071 0.0
C122 C 0.82714 0.30031 0.27256 0.0
O123 O 0.76651 0.52775 0.22472 0.0
O124 O 0.71551 0.48287 0.28381 0.0
O125 O 0.74355 0.29966 0.28599 0.0
O126 O 0.84053 0.34041 0.23833 0.0
C127 C 0.68596 0.26046 0.16983 0.0
O128 O 0.54698 0.39565 0.25801 0.0
O129 O 0.57949 0.47173 0.20263 0.0
In130 In 0.38611 0.25743 0.8251 0.0
O131 O 0.39566 0.4034 0.79855 0.0
O132 O 0.47173 0.37089 0.85393 0.0
C133 C 0.30032 0.12325 0.784 0.0
C134 C 0.26046 0.26442 0.88672 0.0
C135 C 0.54489 0.19394 0.79366 0.0
O136 O 0.29967 0.20683 0.77057 0.0
O137 O 0.34042 0.10985 0.81823 0.0
O138 O 0.52775 0.18388 0.83184 0.0
O139 O 0.48288 0.23487 0.77275 0.0
C140 C 0.45376 0.42917 0.82586 0.0
O141 O 0.34383 0.23613 0.89225 0.0
O142 O 0.24121 0.29062 0.8505 0.0
In143 In 0.25744 0.56427 0.23146 0.0
O144 O 0.40341 0.55473 0.25801 0.0
O145 O 0.37091 0.47866 0.20263 0.0
C146 C 0.12325 0.65007 0.27256 0.0
C147 C 0.26443 0.68993 0.16984 0.0
C148 C 0.19394 0.40549 0.2629 0.0
O149 O 0.20684 0.65071 0.28599 0.0
O150 O 0.10986 0.60997 0.23833 0.0
O151 O 0.18389 0.42263 0.22472 0.0
O152 O 0.23488 0.46751 0.2838 0.0
C153 C 0.42918 0.49663 0.23071 0.0
O154 O 0.23614 0.60656 0.16431 0.0
O155 O 0.29063 0.70917 0.20606 0.0
In156 In 0.56428 0.75745 0.48146 0.0
O157 O 0.55474 0.90342 0.508 0.0
O158 O 0.47868 0.87092 0.45262 0.0
C159 C 0.65003 0.62323 0.52256 0.0
C160 C 0.68994 0.76442 0.41984 0.0
C161 C 0.40545 0.69402 0.51289 0.0
O162 O 0.6507 0.70682 0.53599 0.0
O163 O 0.60992 0.60985 0.48833 0.0
O164 O 0.42263 0.68392 0.47472 0.0
O165 O 0.46749 0.73494 0.5338 0.0
C166 C 0.49665 0.92919 0.4807 0.0
O167 O 0.60656 0.73614 0.41431 0.0
O168 O 0.70918 0.79061 0.45606 0.0
In169 In 0.75744 0.38612 0.5751 0.0
O170 O 0.73614 0.34383 0.64225 0.0
O171 O 0.79062 0.24121 0.6005 0.0
C172 C 0.69395 0.5449 0.54366 0.0
C173 C 0.92918 0.45377 0.57586 0.0
C174 C 0.62323 0.30035 0.534 0.0
O175 O 0.68389 0.52776 0.58184 0.0
O176 O 0.73489 0.48289 0.52276 0.0
O177 O 0.70682 0.29969 0.52057 0.0
O178 O 0.60986 0.34045 0.56824 0.0
C179 C 0.76443 0.26046 0.63673 0.0
O180 O 0.90341 0.39566 0.54856 0.0
O181 O 0.87091 0.47174 0.60393 0.0
In182 In 0.38612 0.19296 0.48145 0.0
O183 O 0.39567 0.04699 0.508 0.0
O184 O 0.47174 0.0795 0.45262 0.0
C185 C 0.30036 0.32718 0.52255 0.0
C186 C 0.26046 0.18597 0.41983 0.0
C187 C 0.54491 0.25643 0.5129 0.0
O188 O 0.29969 0.24359 0.53599 0.0
O189 O 0.34046 0.34055 0.48832 0.0
O190 O 0.52777 0.2665 0.47472 0.0
O191 O 0.48289 0.2155 0.5338 0.0
C192 C 0.45377 0.02122 0.4807 0.0
O193 O 0.34383 0.21426 0.41431 0.0
O194 O 0.24122 0.15977 0.45606 0.0
In195 In 0.19295 0.56428 0.5751 0.0
O196 O 0.04698 0.55474 0.54855 0.0
O197 O 0.07949 0.47867 0.60393 0.0
C198 C 0.32714 0.65008 0.53399 0.0
C199 C 0.18597 0.68994 0.63672 0.0
C200 C 0.25644 0.4055 0.54365 0.0
O201 O 0.24355 0.65073 0.52056 0.0
O202 O 0.34053 0.60997 0.56822 0.0
O203 O 0.2665 0.42264 0.58183 0.0
O204 O 0.2155 0.46752 0.52275 0.0
C205 C 0.02121 0.49664 0.57586 0.0
O206 O 0.21426 0.60657 0.64224 0.0
O207 O 0.15976 0.70918 0.6005 0.0
loop_
_geom_bond_atom_site_label_1
_geom_bond_atom_site_label_2
_geom_bond_distance
_geom_bond_site_symmetry_2
_ccdc_geom_bond_type
In0 O1 2.294 . S
In0 O2 2.326 . S
In0 O6 2.266 1_455 S
In0 O7 2.326 1_455 S
In0 O8 2.266 . S
In0 O9 2.326 . S
In0 O11 2.294 . S
In0 O12 2.326 . S
O1 In0 2.294 . S
O1 C10 1.240 . S
O2 In0 2.326 . S
O2 C10 1.252 . S
C3 O6 1.252 . S
C3 O7 1.260 . S
C4 O11 1.240 . S
C4 O12 1.252 . S
C5 O8 1.252 . S
C5 O9 1.260 . S
O6 In0 2.266 1_655 S
O6 C3 1.252 . S
O7 In0 2.326 1_655 S
O7 C3 1.260 . S
O8 In0 2.266 . S
O8 C5 1.252 . S
O9 In0 2.326 . S
O9 C5 1.260 . S
C10 O1 1.240 . S
C10 O2 1.252 . S
O11 In0 2.294 . S
O11 C4 1.240 . S
O12 In0 2.326 . S
O12 C4 1.252 . S
In13 O14 2.294 . S
In13 O15 2.326 . S
In13 O19 2.266 1_565 S
In13 O20 2.326 1_565 S
In13 O21 2.266 . S
In13 O22 2.326 . S
In13 O24 2.294 . S
In13 O25 2.326 . S
O14 In13 2.294 . S
O14 C23 1.240 . S
O15 In13 2.326 . S
O15 C23 1.252 . S
C16 O19 1.252 . S
C16 O20 1.260 . S
C17 O24 1.240 . S
C17 O25 1.252 . S
C18 O21 1.252 . S
C18 O22 1.260 . S
O19 In13 2.266 1_545 S
O19 C16 1.252 . S
O20 In13 2.326 1_545 S
O20 C16 1.260 . S
O21 In13 2.266 . S
O21 C18 1.252 . S
O22 In13 2.326 . S
O22 C18 1.260 . S
C23 O14 1.240 . S
C23 O15 1.252 . S
O24 In13 2.294 . S
O24 C17 1.240 . S
O25 In13 2.326 . S
O25 C17 1.252 . S
In26 O27 2.294 . S
In26 O28 2.326 . S
In26 O32 2.266 . S
In26 O33 2.326 . S
In26 O34 2.266 1_655 S
In26 O35 2.326 1_655 S
In26 O37 2.294 . S
In26 O38 2.326 . S
O27 In26 2.294 . S
O27 C36 1.240 . S
O28 In26 2.326 . S
O28 C36 1.252 . S
C29 O32 1.252 . S
C29 O33 1.260 . S
C30 O37 1.240 . S
C30 O38 1.252 . S
C31 O34 1.252 . S
C31 O35 1.260 . S
O32 In26 2.266 . S
O32 C29 1.252 . S
O33 In26 2.326 . S
O33 C29 1.260 . S
O34 In26 2.266 1_455 S
O34 C31 1.252 . S
O35 In26 2.326 1_455 S
O35 C31 1.260 . S
C36 O27 1.240 . S
C36 O28 1.252 . S
O37 In26 2.294 . S
O37 C30 1.240 . S
O38 In26 2.326 . S
O38 C30 1.252 . S
In39 O40 2.294 . S
In39 O41 2.326 . S
In39 O45 2.266 . S
In39 O46 2.326 . S
In39 O47 2.266 1_545 S
In39 O48 2.326 1_545 S
In39 O50 2.294 . S
In39 O51 2.326 . S
O40 In39 2.294 . S
O40 C49 1.240 . S
O41 In39 2.326 . S
O41 C49 1.252 . S
C42 O45 1.252 . S
C42 O46 1.260 . S
C43 O50 1.240 . S
C43 O51 1.252 . S
C44 O47 1.252 . S
C44 O48 1.260 . S
O45 In39 2.266 . S
O45 C42 1.252 . S
O46 In39 2.326 . S
O46 C42 1.260 . S
O47 In39 2.266 1_565 S
O47 C44 1.252 . S
O48 In39 2.326 1_565 S
O48 C44 1.260 . S
C49 O40 1.240 . S
C49 O41 1.252 . S
O50 In39 2.294 . S
O50 C43 1.240 . S
O51 In39 2.326 . S
O51 C43 1.252 . S
In52 O53 2.294 . S
In52 O54 2.326 . S
In52 O58 2.266 1_455 S
In52 O59 2.326 1_455 S
In52 O60 2.266 1_556 S
In52 O61 2.326 . S
In52 O63 2.294 . S
In52 O64 2.326 . S
O53 In52 2.294 . S
O53 C62 1.240 . S
O54 In52 2.326 . S
O54 C62 1.252 . S
C55 O58 1.252 . S
C55 O59 1.260 . S
C56 O63 1.240 . S
C56 O64 1.252 . S
C57 O60 1.252 1_556 S
C57 O61 1.260 . S
O58 In52 2.266 1_655 S
O58 C55 1.252 . S
O59 In52 2.326 1_655 S
O59 C55 1.260 . S
O60 In52 2.266 1_554 S
O60 C57 1.252 1_554 S
O61 In52 2.326 . S
O61 C57 1.260 . S
C62 O53 1.240 . S
C62 O54 1.252 . S
O63 In52 2.294 . S
O63 C56 1.240 . S
O64 In52 2.326 . S
O64 C56 1.252 . S
In65 O66 2.294 . S
In65 O67 2.326 . S
In65 O71 2.266 1_565 S
In65 O72 2.326 1_565 S
In65 O73 2.266 1_554 S
In65 O74 2.326 . S
In65 O76 2.294 . S
In65 O77 2.326 . S
O66 In65 2.294 . S
O66 C75 1.240 . S
O67 In65 2.326 . S
O67 C75 1.252 . S
C68 O71 1.252 . S
C68 O72 1.260 . S
C69 O76 1.240 . S
C69 O77 1.252 . S
C70 O73 1.252 1_554 S
C70 O74 1.260 . S
O71 In65 2.266 1_545 S
O71 C68 1.252 . S
O72 In65 2.326 1_545 S
O72 C68 1.260 . S
O73 In65 2.266 1_556 S
O73 C70 1.252 1_556 S
O74 In65 2.326 . S
O74 C70 1.260 . S
C75 O66 1.240 . S
C75 O67 1.252 . S
O76 In65 2.294 . S
O76 C69 1.240 . S
O77 In65 2.326 . S
O77 C69 1.252 . S
In78 O79 2.294 . S
In78 O80 2.326 . S
In78 O84 2.266 1_556 S
In78 O85 2.326 . S
In78 O86 2.266 1_655 S
In78 O87 2.326 1_655 S
In78 O89 2.294 . S
In78 O90 2.326 . S
O79 In78 2.294 . S
O79 C88 1.240 . S
O80 In78 2.326 . S
O80 C88 1.252 . S
C81 O84 1.252 1_556 S
C81 O85 1.260 . S
C82 O89 1.240 . S
C82 O90 1.252 . S
C83 O86 1.252 . S
C83 O87 1.260 . S
O84 In78 2.266 1_554 S
O84 C81 1.252 1_554 S
O85 In78 2.326 . S
O85 C81 1.260 . S
O86 In78 2.266 1_455 S
O86 C83 1.252 . S
O87 In78 2.326 1_455 S
O87 C83 1.260 . S
C88 O79 1.240 . S
C88 O80 1.252 . S
O89 In78 2.294 . S
O89 C82 1.240 . S
O90 In78 2.326 . S
O90 C82 1.252 . S
In91 O92 2.294 . S
In91 O93 2.326 . S
In91 O97 2.266 1_554 S
In91 O98 2.326 . S
In91 O99 2.266 1_545 S
In91 O100 2.326 1_545 S
In91 O102 2.294 . S
In91 O103 2.326 . S
O92 In91 2.294 . S
O92 C101 1.240 . S
O93 In91 2.326 . S
O93 C101 1.252 . S
C94 O97 1.252 1_554 S
C94 O98 1.260 . S
C95 O102 1.240 . S
C95 O103 1.252 . S
C96 O99 1.252 . S
C96 O100 1.260 . S
O97 In91 2.266 1_556 S
O97 C94 1.252 1_556 S
O98 In91 2.326 . S
O98 C94 1.260 . S
O99 In91 2.266 1_565 S
O99 C96 1.252 . S
O100 In91 2.326 1_565 S
O100 C96 1.260 . S
C101 O92 1.240 . S
C101 O93 1.252 . S
O102 In91 2.294 . S
O102 C95 1.240 . S
O103 In91 2.326 . S
O103 C95 1.252 . S
In104 O105 2.294 . S
In104 O106 2.326 . S
In104 O110 2.266 . S
In104 O111 2.326 . S
In104 O112 2.266 . S
In104 O113 2.326 . S
In104 O115 2.294 . S
In104 O116 2.326 . S
O105 In104 2.294 . S
O105 C114 1.240 . S
O106 In104 2.326 . S
O106 C114 1.252 . S
C107 O110 1.252 . S
C107 O111 1.260 . S
C108 O115 1.240 . S
C108 O116 1.252 . S
C109 O112 1.252 . S
C109 O113 1.260 . S
O110 In104 2.266 . S
O110 C107 1.252 . S
O111 In104 2.326 . S
O111 C107 1.260 . S
O112 In104 2.266 . S
O112 C109 1.252 . S
O113 In104 2.326 . S
O113 C109 1.260 . S
C114 O105 1.240 . S
C114 O106 1.252 . S
O115 In104 2.294 . S
O115 C108 1.240 . S
O116 In104 2.326 . S
O116 C108 1.252 . S
In117 O118 2.294 . S
In117 O119 2.326 . S
In117 O123 2.266 . S
In117 O124 2.326 . S
In117 O125 2.266 . S
In117 O126 2.326 . S
In117 O128 2.294 . S
In117 O129 2.326 . S
O118 In117 2.294 . S
O118 C127 1.240 . S
O119 In117 2.326 . S
O119 C127 1.252 . S
C120 O123 1.252 . S
C120 O124 1.260 . S
C121 O128 1.240 . S
C121 O129 1.252 . S
C122 O125 1.252 . S
C122 O126 1.260 . S
O123 In117 2.266 . S
O123 C120 1.252 . S
O124 In117 2.326 . S
O124 C120 1.260 . S
O125 In117 2.266 . S
O125 C122 1.252 . S
O126 In117 2.326 . S
O126 C122 1.260 . S
C127 O118 1.240 . S
C127 O119 1.252 . S
O128 In117 2.294 . S
O128 C121 1.240 . S
O129 In117 2.326 . S
O129 C121 1.252 . S
In130 O131 2.294 . S
In130 O132 2.326 . S
In130 O136 2.266 . S
In130 O137 2.326 . S
In130 O138 2.266 . S
In130 O139 2.326 . S
In130 O141 2.294 . S
In130 O142 2.326 . S
O131 In130 2.294 . S
O131 C140 1.240 . S
O132 In130 2.326 . S
O132 C140 1.252 . S
C133 O136 1.252 . S
C133 O137 1.260 . S
C134 O141 1.240 . S
C134 O142 1.252 . S
C135 O138 1.252 . S
C135 O139 1.260 . S
O136 In130 2.266 . S
O136 C133 1.252 . S
O137 In130 2.326 . S
O137 C133 1.260 . S
O138 In130 2.266 . S
O138 C135 1.252 . S
O139 In130 2.326 . S
O139 C135 1.260 . S
C140 O131 1.240 . S
C140 O132 1.252 . S
O141 In130 2.294 . S
O141 C134 1.240 . S
O142 In130 2.326 . S
O142 C134 1.252 . S
In143 O144 2.294 . S
In143 O145 2.326 . S
In143 O149 2.266 . S
In143 O150 2.326 . S
In143 O151 2.266 . S
In143 O152 2.326 . S
In143 O154 2.294 . S
In143 O155 2.326 . S
O144 In143 2.294 . S
O144 C153 1.240 . S
O145 In143 2.326 . S
O145 C153 1.252 . S
C146 O149 1.252 . S
C146 O150 1.260 . S
C147 O154 1.240 . S
C147 O155 1.252 . S
C148 O151 1.252 . S
C148 O152 1.260 . S
O149 In143 2.266 . S
O149 C146 1.252 . S
O150 In143 2.326 . S
O150 C146 1.260 . S
O151 In143 2.266 . S
O151 C148 1.252 . S
O152 In143 2.326 . S
O152 C148 1.260 . S
C153 O144 1.240 . S
C153 O145 1.252 . S
O154 In143 2.294 . S
O154 C147 1.240 . S
O155 In143 2.326 . S
O155 C147 1.252 . S
In156 O157 2.294 . S
In156 O158 2.326 . S
In156 O162 2.266 . S
In156 O163 2.326 . S
In156 O164 2.266 . S
In156 O165 2.326 . S
In156 O167 2.294 . S
In156 O168 2.326 . S
O157 In156 2.294 . S
O157 C166 1.240 . S
O158 In156 2.326 . S
O158 C166 1.252 . S
C159 O162 1.252 . S
C159 O163 1.260 . S
C160 O167 1.240 . S
C160 O168 1.252 . S
C161 O164 1.252 . S
C161 O165 1.260 . S
O162 In156 2.266 . S
O162 C159 1.252 . S
O163 In156 2.326 . S
O163 C159 1.260 . S
O164 In156 2.266 . S
O164 C161 1.252 . S
O165 In156 2.326 . S
O165 C161 1.260 . S
C166 O157 1.240 . S
C166 O158 1.252 . S
O167 In156 2.294 . S
O167 C160 1.240 . S
O168 In156 2.326 . S
O168 C160 1.252 . S
In169 O170 2.294 . S
In169 O171 2.326 . S
In169 O175 2.266 . S
In169 O176 2.326 . S
In169 O177 2.266 . S
In169 O178 2.326 . S
In169 O180 2.294 . S
In169 O181 2.326 . S
O170 In169 2.294 . S
O170 C179 1.240 . S
O171 In169 2.326 . S
O171 C179 1.252 . S
C172 O175 1.252 . S
C172 O176 1.260 . S
C173 O180 1.240 . S
C173 O181 1.252 . S
C174 O177 1.252 . S
C174 O178 1.260 . S
O175 In169 2.266 . S
O175 C172 1.252 . S
O176 In169 2.326 . S
O176 C172 1.260 . S
O177 In169 2.266 . S
O177 C174 1.252 . S
O178 In169 2.326 . S
O178 C174 1.260 . S
C179 O170 1.240 . S
C179 O171 1.252 . S
O180 In169 2.294 . S
O180 C173 1.240 . S
O181 In169 2.326 . S
O181 C173 1.252 . S
In182 O183 2.294 . S
In182 O184 2.326 . S
In182 O188 2.266 . S
In182 O189 2.326 . S
In182 O190 2.266 . S
In182 O191 2.326 . S
In182 O193 2.294 . S
In182 O194 2.326 . S
O183 In182 2.294 . S
O183 C192 1.240 . S
O184 In182 2.326 . S
O184 C192 1.252 . S
C185 O188 1.252 . S
C185 O189 1.260 . S
C186 O193 1.240 . S
C186 O194 1.252 . S
C187 O190 1.252 . S
C187 O191 1.260 . S
O188 In182 2.266 . S
O188 C185 1.252 . S
O189 In182 2.326 . S
O189 C185 1.260 . S
O190 In182 2.266 . S
O190 C187 1.252 . S
O191 In182 2.326 . S
O191 C187 1.260 . S
C192 O183 1.240 . S
C192 O184 1.252 . S
O193 In182 2.294 . S
O193 C186 1.240 . S
O194 In182 2.326 . S
O194 C186 1.252 . S
In195 O196 2.294 . S
In195 O197 2.326 . S
In195 O201 2.266 . S
In195 O202 2.326 . S
In195 O203 2.266 . S
In195 O204 2.326 . S
In195 O206 2.294 . S
In195 O207 2.326 . S
O196 In195 2.294 . S
O196 C205 1.240 . S
O197 In195 2.326 . S
O197 C205 1.252 . S
C198 O201 1.252 . S
C198 O202 1.260 . S
C199 O206 1.240 . S
C199 O207 1.252 . S
C200 O203 1.252 . S
C200 O204 1.260 . S
O201 In195 2.266 . S
O201 C198 1.252 . S
O202 In195 2.326 . S
O202 C198 1.260 . S
O203 In195 2.266 . S
O203 C200 1.252 . S
O204 In195 2.326 . S
O204 C200 1.260 . S
C205 O196 1.240 . S
C205 O197 1.252 . S
O206 In195 2.294 . S
O206 C199 1.240 . S
O207 In195 2.326 . S
O207 C199 1.252 . S
C5 C148 1.388 . S
C107 C18 1.388 . S
C120 C29 1.388 . S
C135 C42 1.388 . S
C68 C57 1.388 1_554 S
C70 C83 1.388 1_554 S
C81 C96 1.388 1_556 S
C94 C55 1.388 1_554 S
C109 C44 1.388 . S
C3 C122 1.388 . S
C16 C133 1.388 . S
C31 C146 1.388 . S
C172 C159 1.388 . S
C174 C187 1.388 . S
C200 C185 1.388 . S
C161 C198 1.388 . S
C186 C10 2.186 . S
C199 C23 2.186 . S
C160 C30 2.186 . S
C43 C179 2.186 . S
C62 C134 2.186 . S
C147 C75 2.186 . S
C82 C114 2.186 . S
C95 C127 2.186 . S
C36 C4 1.611 1_665 S
C49 C17 1.611 1_645 S
C56 C88 1.611 1_455 S
C69 C101 1.611 1_565 S
C140 C108 1.611 . S
C121 C153 1.611 . S
C192 C166 1.611 1_545 S
C173 C205 1.611 1_655 S
