# Generated by pormake.
# Topology hex, (8)-cn, num edge types: 1
# Building blocks:
#     Node 0, Type 0, BuildingBlock: NUHRAL_clean_sbu_3, # of connection points: 8
#     Edge 1, Type (0, 0), BuildingBlock: TEMPAE_clean_linker_10, # of connection points: 2
#     Edge 2, Type (0, 0), BuildingBlock: TEMPAE_clean_linker_10, # of connection points: 2
#     Edge 3, Type (0, 0), BuildingBlock: TEMPAE_clean_linker_10, # of connection points: 2
#     Edge 4, Type (0, 0), BuildingBlock: TEMPAE_clean_linker_10, # of connection points: 2
# Relax obj value: 0.035
# Max RMSD: 0.097
# Mean RMSD: 0.097
data_MOF--net-hex--node1-NUHRAL_clean_sbu_3--edge1-TEMPAE_clean_linker_10
_symmetry_space_group_name_H-M    P1
_symmetry_Int_Tables_number       1
_symmetry_cell_setting            triclinic
loop_
_symmetry_equiv_pos_as_xyz
'x, y, z'
_cell_length_a     23.008665
_cell_length_b     17.66646
_cell_length_c     14.685861
_cell_angle_alpha  114.08303
_cell_angle_beta   99.704458
_cell_angle_gamma 109.44532
loop_
_atom_site_label
_atom_site_type_symbol
_atom_site_fract_x
_atom_site_fract_y
_atom_site_fract_z
_atom_type_partial_charge
C0 C 0.7732 0.86745 0.9965 0.0
C1 C 0.73546 0.77635 0.97389 0.0
C2 C 0.68148 0.75664 0.00732 0.0
C3 C 0.66662 0.82777 0.06654 0.0
C4 C 0.70266 0.91824 0.08843 0.0
C5 C 0.75623 0.93797 0.05347 0.0
O6 O 1.00842 0.94065 0.06135 0.0
Tb7 Tb 0.92301 0.87165 0.91745 0.0
O8 O 0.91537 0.73827 0.89405 0.0
O9 O 0.04264 0.09536 0.15144 0.0
Eu10 Eu 0.09147 0.10919 0.03473 0.0
O11 O 0.82073 0.81597 0.86515 0.0
C12 C 0.21768 0.16858 0.11935 0.0
O13 O 0.88256 0.95279 0.00807 0.0
O14 O 0.05453 0.98291 0.87258 0.0
O15 O 0.94211 0.90737 0.79688 0.0
C16 C 0.82239 0.88736 0.94605 0.0
C17 C 0.0105 0.19112 0.93927 0.0
O18 O 0.96059 0.11192 0.90905 0.0
C19 C 0.0169 0.01466 0.14627 0.0
C20 C 0.99994 0.95465 0.79674 0.0
O21 O 0.07007 0.20879 0.99178 0.0
C22 C 0.2776 0.18088 0.09111 0.0
C23 C 0.37925 0.16415 0.10601 0.0
C24 C 0.31965 0.14737 0.12474 0.0
C25 C 0.29565 0.23037 0.0373 0.0
C26 C 0.35462 0.245 0.01641 0.0
C27 C 0.39563 0.21144 0.05078 0.0
C28 C 0.9495 0.69982 0.84572 0.0
O29 O 0.98528 0.73895 0.8021 0.0
O30 O 0.1905 0.22268 0.1167 0.0
O31 O 0.17438 0.08316 0.08385 0.0
H32 H 0.74542 0.72013 0.92549 0.0
H33 H 0.62308 0.81063 0.08811 0.0
H34 H 0.78254 0.00697 0.06587 0.0
H35 H 0.30707 0.11094 0.16809 0.0
H36 H 0.26471 0.2585 0.01307 0.0
H37 H 0.44225 0.22516 0.0378 0.0
C38 C 0.04971 0.35285 0.96963 0.0
C39 C 0.99973 0.26162 0.91785 0.0
C40 C 0.03966 0.42139 0.95361 0.0
C41 C 0.97837 0.39816 0.88297 0.0
C42 C 0.92815 0.30572 0.82869 0.0
C43 C 0.93928 0.23872 0.84723 0.0
C44 C 0.09438 0.51917 0.01376 0.0
C45 C 0.86247 0.27774 0.75162 0.0
C46 C 0.93291 0.59536 0.92398 0.0
C47 C 0.95239 0.61824 0.8494 0.0
C48 C 0.94023 0.52316 0.93467 0.0
C49 C 0.96666 0.47131 0.86797 0.0
C50 C 0.98447 0.49215 0.7902 0.0
C51 C 0.9777 0.56586 0.78253 0.0
C52 C 0.92146 0.50422 0.01962 0.0
C53 C 0.01189 0.43769 0.71646 0.0
H54 H 0.09655 0.37134 0.02446 0.0
H55 H 0.90054 0.16827 0.8062 0.0
H56 H 0.10774 0.54197 0.95697 0.0
H57 H 0.07738 0.56709 0.06467 0.0
H58 H 0.13928 0.52583 0.06515 0.0
H59 H 0.82952 0.20239 0.71262 0.0
H60 H 0.83741 0.31664 0.79419 0.0
H61 H 0.8699 0.29565 0.68895 0.0
H62 H 0.91377 0.63581 0.97658 0.0
H63 H 0.99263 0.58281 0.72441 0.0
H64 H 0.96556 0.51568 0.07785 0.0
H65 H 0.88504 0.4308 0.98333 0.0
H66 H 0.9002 0.54931 0.06338 0.0
H67 H 0.05997 0.44848 0.76339 0.0
H68 H 0.01914 0.45829 0.65561 0.0
H69 H 0.97831 0.36246 0.67506 0.0
C70 C 0.65287 0.99357 0.21472 0.0
C71 C 0.67492 0.98464 0.12908 0.0
C72 C 0.60905 0.03252 0.23405 0.0
C73 C 0.58667 0.06264 0.16569 0.0
C74 C 0.61338 0.06125 0.0851 0.0
C75 C 0.65742 0.02245 0.06798 0.0
C76 C 0.58292 0.0347 0.32223 0.0
C77 C 0.59129 0.09361 0.01106 0.0
C78 C 0.41403 0.04238 0.09345 0.0
C79 C 0.42705 0.1356 0.14442 0.0
C80 C 0.46531 0.01695 0.10552 0.0
C81 C 0.53073 0.0867 0.17034 0.0
C82 C 0.54285 0.18018 0.22915 0.0
C83 C 0.49079 0.20359 0.21493 0.0
C84 C 0.45031 0.91633 0.0419 0.0
C85 C 0.61151 0.25638 0.30016 0.0
H86 H 0.66659 0.96452 0.26225 0.0
H87 H 0.67377 0.01474 0.00105 0.0
H88 H 0.58155 0.10167 0.36715 0.0
H89 H 0.53169 0.97909 0.28715 0.0
H90 H 0.61311 0.02385 0.37883 0.0
H91 H 0.62114 0.09595 0.95929 0.0
H92 H 0.53893 0.04581 0.95933 0.0
H93 H 0.59457 0.16357 0.05731 0.0
H94 H 0.36485 0.99024 0.0379 0.0
H95 H 0.50066 0.27588 0.25358 0.0
H96 H 0.47299 0.89472 0.0936 0.0
H97 H 0.47186 0.90677 0.97822 0.0
H98 H 0.39648 0.86999 0.00411 0.0
H99 H 0.63779 0.2356 0.34897 0.0
H100 H 0.61091 0.32191 0.35418 0.0
H101 H 0.64005 0.26994 0.25009 0.0
C102 C 0.39287 0.39816 0.02671 0.0
C103 C 0.37991 0.30504 0.97168 0.0
C104 C 0.4372 0.46381 0.01028 0.0
C105 C 0.46878 0.43497 0.9369 0.0
C106 C 0.45014 0.33957 0.87282 0.0
C107 C 0.40578 0.27554 0.89106 0.0
C108 C 0.45499 0.56494 0.07893 0.0
C109 C 0.48161 0.30587 0.79232 0.0
C110 C 0.57239 0.62346 0.89101 0.0
C111 C 0.63363 0.66119 0.96977 0.0
C112 C 0.51879 0.54558 0.87408 0.0
C113 C 0.52696 0.50544 0.9382 0.0
C114 C 0.5902 0.53941 0.01239 0.0
C115 C 0.64296 0.61752 0.02764 0.0
C116 C 0.45249 0.51116 0.79378 0.0
C117 C 0.60103 0.49766 0.08139 0.0
H118 H 0.37321 0.42098 0.0895 0.0
H119 H 0.39542 0.20319 0.84827 0.0
H120 H 0.50551 0.60085 0.13848 0.0
H121 H 0.45489 0.59875 0.02978 0.0
H122 H 0.42051 0.57475 0.1222 0.0
H123 H 0.45339 0.23008 0.73606 0.0
H124 H 0.48569 0.34249 0.746 0.0
H125 H 0.53223 0.32074 0.83471 0.0
H126 H 0.56541 0.65873 0.84761 0.0
H127 H 0.69022 0.6481 0.08958 0.0
H128 H 0.42069 0.53384 0.83631 0.0
H129 H 0.42735 0.43435 0.74688 0.0
H130 H 0.45684 0.53858 0.73801 0.0
H131 H 0.57463 0.51177 0.13832 0.0
H132 H 0.65406 0.52632 0.12756 0.0
H133 H 0.58066 0.42135 0.03172 0.0
C134 C 0.06223 0.997 0.68643 0.0
C135 C 1.0028 0.96863 0.70447 0.0
C136 C 0.06461 0.0088 0.59789 0.0
C137 C 1.00636 0.993 0.52667 0.0
C138 C 0.94669 0.96703 0.54632 0.0
C139 C 0.94557 0.95475 0.63462 0.0
C140 C 0.12912 0.03614 0.57924 0.0
C141 C 0.88375 0.95088 0.47317 0.0
C142 C 0.02338 0.08813 0.33697 0.0
C143 C 0.01103 0.00927 0.24266 0.0
C144 C 0.02126 0.08381 0.42995 0.0
C145 C 1.00703 0.99883 0.42857 0.0
C146 C 0.99344 0.91877 0.33313 0.0
C147 C 0.9952 0.92484 0.24133 0.0
C148 C 0.03486 0.17025 0.52988 0.0
C149 C 0.97795 0.82678 0.32824 0.0
H150 H 0.10673 0.00849 0.74042 0.0
H151 H 0.89965 0.93442 0.64902 0.0
H152 H 0.12447 0.98027 0.50276 0.0
H153 H 0.1416 0.09952 0.57258 0.0
H154 H 0.17044 0.04925 0.64418 0.0
H155 H 0.84235 0.93596 0.50289 0.0
H156 H 0.89145 0.01255 0.46428 0.0
H157 H 0.86934 0.89161 0.39265 0.0
H158 H 0.0352 0.15346 0.33847 0.0
H159 H 0.98524 0.86334 0.16879 0.0
H160 H 0.07924 0.18921 0.59391 0.0
H161 H 0.99308 0.15734 0.55901 0.0
H162 H 0.04285 0.23004 0.51683 0.0
H163 H 0.01969 0.83359 0.38653 0.0
H164 H 0.96842 0.77105 0.2477 0.0
H165 H 0.934 0.80532 0.3505 0.0
loop_
_geom_bond_atom_site_label_1
_geom_bond_atom_site_label_2
_geom_bond_distance
_geom_bond_site_symmetry_2
_ccdc_geom_bond_type
C0 C1 1.387 . S
C0 C5 1.380 . S
C0 C16 1.494 . S
C1 C0 1.387 . S
C1 C2 1.386 1_556 S
C1 H32 0.930 . S
C2 C1 1.386 1_554 S
C2 C3 1.397 . S
C3 C2 1.397 . S
C3 C4 1.393 1_554 S
C3 H33 0.930 . S
C4 C3 1.393 1_556 S
C4 C5 1.395 . S
C5 C0 1.380 . S
C5 C4 1.395 . S
C5 H34 0.930 . S
O6 Tb7 2.295 1_554 S
O6 C19 1.242 1_665 S
Tb7 O6 2.295 1_556 S
Tb7 O8 2.312 . S
Tb7 O11 2.438 . S
Tb7 O13 2.472 . S
Tb7 O15 2.308 . S
Tb7 C16 2.821 . S
O8 Tb7 2.312 . S
O8 C28 1.264 1_655 S
O9 Eu10 2.308 . S
O9 C19 1.243 . S
Eu10 O9 2.308 . S
Eu10 C12 2.821 . S
Eu10 O14 2.295 1_554 S
Eu10 O21 2.312 . S
Eu10 O30 2.438 . S
Eu10 O31 2.472 . S
O11 Tb7 2.438 . S
O11 C16 1.263 . S
C12 Eu10 2.821 . S
C12 C22 1.494 . S
C12 O30 1.263 . S
C12 O31 1.264 . S
O13 Tb7 2.472 . S
O13 C16 1.264 . S
O14 Eu10 2.295 1_556 S
O14 C20 1.242 1_445 S
O15 Tb7 2.308 . S
O15 C20 1.243 . S
C16 C0 1.494 . S
C16 Tb7 2.821 . S
C16 O11 1.263 . S
C16 O13 1.264 . S
C17 O18 1.260 . S
C17 O21 1.264 1_655 S
O18 C17 1.260 . S
C19 O6 1.242 1_445 S
C19 O9 1.243 . S
C20 O14 1.242 1_665 S
C20 O15 1.243 . S
O21 Eu10 2.312 . S
O21 C17 1.264 1_455 S
C22 C12 1.494 . S
C22 C24 1.380 . S
C22 C25 1.387 . S
C23 C24 1.395 . S
C23 C27 1.393 1_554 S
C24 C22 1.380 . S
C24 C23 1.395 . S
C24 H35 0.930 . S
C25 C22 1.387 . S
C25 C26 1.386 1_554 S
C25 H36 0.930 . S
C26 C25 1.386 1_556 S
C26 C27 1.397 . S
C27 C23 1.393 1_556 S
C27 C26 1.397 . S
C27 H37 0.930 . S
C28 O8 1.264 1_455 S
C28 O29 1.260 . S
O29 C28 1.260 . S
O30 Eu10 2.438 . S
O30 C12 1.263 . S
O31 Eu10 2.472 . S
O31 C12 1.264 . S
H32 C1 0.930 . S
H33 C3 0.930 . S
H34 C5 0.930 . S
H35 C24 0.930 . S
H36 C25 0.930 . S
H37 C27 0.930 . S
C38 C39 1.391 1_455 S
C38 C40 1.394 . S
C38 H54 0.931 . S
C39 C38 1.391 1_655 S
C39 C43 1.376 1_554 S
C40 C38 1.394 . S
C40 C41 1.369 1_454 S
C40 C44 1.531 . S
C41 C40 1.369 1_656 S
C41 C42 1.410 . S
C41 C49 1.504 . S
C42 C41 1.410 . S
C42 C43 1.392 . S
C42 C45 1.511 . S
C43 C39 1.376 1_556 S
C43 C42 1.392 . S
C43 H55 0.929 . S
C44 C40 1.531 . S
C44 H56 0.960 1_554 S
C44 H57 0.962 . S
C44 H58 0.960 1_554 S
C45 C42 1.511 . S
C45 H59 0.961 . S
C45 H60 0.961 . S
C45 H61 0.961 . S
C46 C47 1.370 1_554 S
C46 C48 1.363 . S
C46 H62 0.931 . S
C47 C46 1.370 1_556 S
C47 C51 1.408 1_455 S
C48 C46 1.363 . S
C48 C49 1.370 1_454 S
C48 C52 1.524 . S
C49 C41 1.504 . S
C49 C48 1.370 1_656 S
C49 C50 1.403 . S
C50 C49 1.403 . S
C50 C51 1.404 . S
C50 C53 1.539 . S
C51 C47 1.408 1_655 S
C51 C50 1.404 . S
C51 H63 0.930 . S
C52 C48 1.524 . S
C52 H64 0.956 . S
C52 H65 0.961 1_455 S
C52 H66 0.961 . S
C53 C50 1.539 . S
C53 H67 0.958 1_655 S
C53 H68 0.961 . S
C53 H69 0.960 . S
H54 C38 0.931 . S
H55 C43 0.929 . S
H56 C44 0.960 1_556 S
H57 C44 0.962 . S
H58 C44 0.960 1_556 S
H59 C45 0.961 . S
H60 C45 0.961 . S
H61 C45 0.961 . S
H62 C46 0.931 . S
H63 C51 0.930 . S
H64 C52 0.956 . S
H65 C52 0.961 1_655 S
H66 C52 0.961 . S
H67 C53 0.958 1_455 S
H68 C53 0.961 . S
H69 C53 0.960 . S
C70 C71 1.391 1_544 S
C70 C72 1.394 . S
C70 H86 0.931 . S
C71 C70 1.391 1_566 S
C71 C75 1.376 . S
C72 C70 1.394 . S
C72 C73 1.369 1_554 S
C72 C76 1.531 . S
C73 C72 1.369 1_556 S
C73 C74 1.410 1_545 S
C73 C81 1.503 1_556 S
C74 C73 1.410 1_565 S
C74 C75 1.392 . S
C74 C77 1.511 . S
C75 C71 1.376 . S
C75 C74 1.392 . S
C75 H87 0.929 . S
C76 C72 1.531 . S
C76 H88 0.960 . S
C76 H89 0.962 . S
C76 H90 0.960 . S
C77 C74 1.511 . S
C77 H91 0.961 . S
C77 H92 0.961 . S
C77 H93 0.961 . S
C78 C79 1.370 1_565 S
C78 C80 1.363 . S
C78 H94 0.931 . S
C79 C78 1.370 1_545 S
C79 C83 1.408 . S
C80 C78 1.363 . S
C80 C81 1.370 1_565 S
C80 C84 1.524 . S
C81 C73 1.503 1_554 S
C81 C80 1.370 1_545 S
C81 C82 1.403 1_554 S
C82 C81 1.403 1_556 S
C82 C83 1.404 1_556 S
C82 C85 1.539 . S
C83 C79 1.408 . S
C83 C82 1.404 1_554 S
C83 H95 0.930 1_554 S
C84 C80 1.524 . S
C84 H96 0.956 . S
C84 H97 0.961 1_554 S
C84 H98 0.961 . S
C85 C82 1.539 . S
C85 H99 0.958 1_556 S
C85 H100 0.961 . S
C85 H101 0.960 . S
H86 C70 0.931 . S
H87 C75 0.929 . S
H88 C76 0.960 . S
H89 C76 0.962 . S
H90 C76 0.960 . S
H91 C77 0.961 . S
H92 C77 0.961 . S
H93 C77 0.961 . S
H94 C78 0.931 . S
H95 C83 0.930 1_556 S
H96 C84 0.956 . S
H97 C84 0.961 1_556 S
H98 C84 0.961 . S
H99 C85 0.958 1_554 S
H100 C85 0.961 . S
H101 C85 0.960 . S
C102 C103 1.391 1_554 S
C102 C104 1.394 . S
C102 H118 0.931 . S
C103 C102 1.391 1_556 S
C103 C107 1.376 . S
C104 C102 1.394 . S
C104 C105 1.369 1_554 S
C104 C108 1.531 . S
C105 C104 1.369 1_556 S
C105 C106 1.410 . S
C105 C113 1.503 1_556 S
C106 C105 1.410 . S
C106 C107 1.392 . S
C106 C109 1.511 . S
C107 C103 1.376 . S
C107 C106 1.392 . S
C107 H119 0.929 . S
C108 C104 1.531 . S
C108 H120 0.960 . S
C108 H121 0.962 . S
C108 H122 0.960 . S
C109 C106 1.511 . S
C109 H123 0.961 . S
C109 H124 0.961 . S
C109 H125 0.961 . S
C110 C111 1.370 . S
C110 C112 1.363 . S
C110 H126 0.931 . S
C111 C110 1.370 . S
C111 C115 1.408 . S
C112 C110 1.363 . S
C112 C113 1.370 . S
C112 C116 1.524 . S
C113 C105 1.503 1_554 S
C113 C112 1.370 . S
C113 C114 1.403 1_554 S
C114 C113 1.403 1_556 S
C114 C115 1.404 1_556 S
C114 C117 1.539 . S
C115 C111 1.408 . S
C115 C114 1.404 1_554 S
C115 H127 0.930 1_554 S
C116 C112 1.524 . S
C116 H128 0.956 . S
C116 H129 0.961 1_554 S
C116 H130 0.961 . S
C117 C114 1.539 . S
C117 H131 0.958 1_556 S
C117 H132 0.961 . S
C117 H133 0.960 . S
H118 C102 0.931 . S
H119 C107 0.929 . S
H120 C108 0.960 . S
H121 C108 0.962 . S
H122 C108 0.960 . S
H123 C109 0.961 . S
H124 C109 0.961 . S
H125 C109 0.961 . S
H126 C110 0.931 . S
H127 C115 0.930 1_556 S
H128 C116 0.956 . S
H129 C116 0.961 1_556 S
H130 C116 0.961 . S
H131 C117 0.958 1_554 S
H132 C117 0.961 . S
H133 C117 0.960 . S
C134 C135 1.391 1_455 S
C134 C136 1.394 . S
C134 H150 0.931 . S
C135 C134 1.391 1_655 S
C135 C139 1.369 1_565 S
C136 C134 1.394 . S
C136 C137 1.369 1_455 S
C136 C140 1.531 . S
C137 C136 1.369 1_655 S
C137 C138 1.410 . S
C137 C145 1.503 . S
C138 C137 1.410 . S
C138 C139 1.396 1_565 S
C138 C141 1.511 1_565 S
C139 C135 1.369 1_545 S
C139 C138 1.396 1_545 S
C139 H151 0.932 . S
C140 C136 1.531 . S
C140 H152 0.960 . S
C140 H153 0.962 1_565 S
C140 H154 0.960 . S
C141 C138 1.511 1_545 S
C141 H155 0.961 . S
C141 H156 0.961 . S
C141 H157 0.961 1_545 S
C142 C143 1.370 1_445 S
C142 C144 1.363 . S
C142 H158 0.931 . S
C143 C142 1.370 1_665 S
C143 C147 1.408 . S
C144 C142 1.363 . S
C144 C145 1.370 1_445 S
C144 C148 1.524 . S
C145 C137 1.503 . S
C145 C144 1.370 1_665 S
C145 C146 1.403 . S
C146 C145 1.403 . S
C146 C147 1.404 . S
C146 C149 1.539 . S
C147 C143 1.408 . S
C147 C146 1.404 . S
C147 H159 0.930 . S
C148 C144 1.524 . S
C148 H160 0.956 . S
C148 H161 0.961 . S
C148 H162 0.961 . S
C149 C146 1.539 . S
C149 H163 0.958 . S
C149 H164 0.961 . S
C149 H165 0.960 . S
H150 C134 0.931 . S
H151 C139 0.932 . S
H152 C140 0.960 . S
H153 C140 0.962 1_545 S
H154 C140 0.960 . S
H155 C141 0.961 . S
H156 C141 0.961 . S
H157 C141 0.961 1_565 S
H158 C142 0.931 . S
H159 C147 0.930 . S
H160 C148 0.956 . S
H161 C148 0.961 . S
H162 C148 0.961 . S
H163 C149 0.958 . S
H164 C149 0.961 . S
H165 C149 0.960 . S
C39 C17 0.531 . S
C47 C28 0.387 . S
C71 C4 2.105 . S
C79 C23 2.067 . S
C103 C26 1.838 . S
C111 C2 1.850 . S
C135 C20 1.474 . S
C143 C19 1.495 1_665 S
