# Generated by pormake.
# Topology pcu, (6)-cn, num edge types: 1
# Building blocks:
#     Node 0, Type 0, BuildingBlock: MIDCAF_clean_sbu_0, # of connection points: 6
#     Edge 1, Type (0, 0), BuildingBlock: TEMPAE_clean_linker_10, # of connection points: 2
#     Edge 2, Type (0, 0), BuildingBlock: TEMPAE_clean_linker_10, # of connection points: 2
#     Edge 3, Type (0, 0), BuildingBlock: TEMPAE_clean_linker_10, # of connection points: 2
# Relax obj value: 0.148
# Max RMSD: 0.201
# Mean RMSD: 0.201
data_MOF--net-pcu--node1-MIDCAF_clean_sbu_0--edge1-TEMPAE_clean_linker_10
_symmetry_space_group_name_H-M    P1
_symmetry_Int_Tables_number       1
_symmetry_cell_setting            triclinic
loop_
_symmetry_equiv_pos_as_xyz
'x, y, z'
_cell_length_a     15.082801
_cell_length_b     15.084247
_cell_length_c     15.081
_cell_angle_alpha  104.08723
_cell_angle_beta   103.90117
_cell_angle_gamma 104.03494
loop_
_atom_site_label
_atom_site_type_symbol
_atom_site_fract_x
_atom_site_fract_y
_atom_site_fract_z
_atom_type_partial_charge
Zn0 Zn 0.89518 0.9022 0.91482 0.0
Zn1 Zn 0.17975 0.18779 0.19991 0.0
Zn2 Zn 1.03751 1.04495 1.05753 0.0
C3 C 0.24351 0.15154 1.04077 0.0
C4 C 0.14389 1.02863 0.26346 0.0
O5 O 0.91208 0.09429 1.02034 0.0
O6 O 0.80894 0.98025 0.88802 0.0
C7 C 0.05475 0.93827 0.85159 0.0
O8 O 0.16319 0.08188 1.00828 0.0
O9 O 0.26609 0.21474 0.12182 0.0
O10 O 0.20674 0.10986 0.28613 0.0
O11 O 0.07435 0.99584 0.18312 0.0
O12 O 0.97348 0.87539 0.8286 0.0
O13 O 0.0872 1.00776 0.93211 0.0
O14 O 1.00034 0.91959 0.10708 0.0
O15 O 0.86833 0.81605 0.993 0.0
C16 C 0.93094 0.83903 0.07434 0.0
O17 O 0.98811 0.1705 0.09437 0.0
O18 O 0.10158 0.27393 0.22691 0.0
C19 C 0.83171 0.06158 0.95085 0.0
C20 C 1.02052 0.25099 0.16389 0.0
C21 C 0.05633 0.94503 0.35435 0.0
C22 C 0.14298 0.98028 0.33701 0.0
C23 C 0.05636 0.92389 0.43977 0.0
C24 C 0.14522 0.93618 0.50792 0.0
C25 C 0.23163 0.96061 0.48493 0.0
C26 C 0.22979 0.98454 0.40044 0.0
C27 C 0.9622 0.89748 0.4609 0.0
C28 C 0.32725 0.9693 0.55238 0.0
C29 C 0.13984 1.02646 0.76203 0.0
C30 C 0.1035 0.93942 0.77821 0.0
C31 C 0.1613 1.02698 0.67679 0.0
C32 C 0.14793 0.93825 0.60752 0.0
C33 C 0.12265 0.85135 0.62935 0.0
C34 C 0.09856 0.85266 0.71376 0.0
C35 C 0.18935 0.12168 0.65712 0.0
C36 C 0.11326 0.75598 0.56056 0.0
H37 H 0.98926 0.94214 0.3053 0.0
H38 H 0.29685 1.0109 0.3863 0.0
H39 H 0.95093 0.82958 0.47907 0.0
H40 H 0.96434 0.95495 0.52421 0.0
H41 H 0.89941 0.88794 0.39891 0.0
H42 H 0.37548 0.94937 0.51136 0.0
H43 H 0.36293 1.04549 0.59888 0.0
H44 H 0.31903 0.9233 0.59913 0.0
H45 H 0.14332 0.09352 0.81184 0.0
H46 H 0.07145 0.7853 0.72703 0.0
H47 H 0.13252 0.12091 0.59427 0.0
H48 H 0.25728 0.13218 0.63892 0.0
H49 H 0.19959 0.18428 0.71985 0.0
H50 H 1.03831 0.72349 0.51063 0.0
H51 H 0.12798 0.70496 0.59986 0.0
H52 H 0.16287 0.76451 0.51722 0.0
C53 C 0.33427 0.06351 0.95733 0.0
C54 C 0.31713 0.15033 0.99236 0.0
C55 C 0.41973 0.06331 0.93623 0.0
C56 C 0.48812 0.15211 0.94832 0.0
C57 C 0.46535 0.23865 0.97254 0.0
C58 C 0.38081 0.23704 0.99643 0.0
C59 C 0.44064 0.96902 0.91016 0.0
C60 C 0.53307 0.33423 0.98115 0.0
C61 C 0.74193 0.1468 1.03879 0.0
C62 C 0.7583 0.11019 0.95183 0.0
C63 C 0.65672 0.16827 1.0392 0.0
C64 C 0.58768 0.15463 0.95044 0.0
C65 C 0.60972 0.12907 0.8636 0.0
C66 C 0.69408 0.10496 0.86501 0.0
C67 C 0.63688 0.19676 0.13385 0.0
C68 C 0.54122 0.11954 0.76822 0.0
H69 H 0.28504 0.9965 0.95462 0.0
H70 H 0.36684 0.30423 1.02263 0.0
H71 H 0.45927 0.95753 0.84244 0.0
H72 H 0.50357 0.97122 0.96785 0.0
H73 H 0.37841 0.90627 0.90053 0.0
H74 H 0.4922 0.38206 0.96012 0.0
H75 H 0.57856 0.37051 1.05753 0.0
H76 H 0.5807 0.32589 0.93603 0.0
H77 H 0.79156 0.15053 0.1059 0.0
H78 H 0.7075 0.07767 0.79772 0.0
H79 H 0.57373 0.14016 0.13317 0.0
H80 H 0.61909 0.26488 0.1442 0.0
H81 H 0.69935 0.20696 0.19646 0.0
H82 H 0.49054 1.04481 0.73621 0.0
H83 H 0.58058 0.13327 0.71688 0.0
H84 H 0.49868 0.16986 0.77667 0.0
C85 C 1.01865 0.74973 0.16004 0.0
C86 C 0.93172 0.76564 0.12297 0.0
C87 C 1.01902 0.66458 0.18159 0.0
C88 C 0.93024 0.59505 0.16738 0.0
C89 C 0.84334 0.61662 0.14134 0.0
C90 C 0.84482 0.70099 0.1173 0.0
C91 C 0.11374 0.64534 0.21086 0.0
C92 C 0.74792 0.54755 0.1312 0.0
C93 C 0.9378 0.34185 0.07594 0.0
C94 C 0.97207 0.32445 0.16264 0.0
C95 C 0.91689 0.42736 0.07586 0.0
C96 C 0.92824 0.49546 0.16464 0.0
C97 C 0.95168 0.4724 0.251 0.0
C98 C 0.9755 0.38787 0.24929 0.0
C99 C 0.89185 0.44866 0.98178 0.0
C100 C 0.95953 0.53977 0.34655 0.0
H101 H 0.08582 0.7997 0.16412 0.0
H102 H 0.77753 0.71406 0.08966 0.0
H103 H 0.12341 0.62751 0.2789 0.0
H104 H 0.11379 0.58235 0.15449 0.0
H105 H 0.17635 0.70818 0.22154 0.0
H106 H 0.69587 0.58634 0.1437 0.0
H107 H 0.71704 0.4963 1.05671 0.0
H108 H 0.75602 0.50558 0.18206 0.0
H109 H 0.93559 0.29282 1.00899 0.0
H110 H 1.00115 0.3737 0.31638 0.0
H111 H 0.94978 0.51188 0.98461 0.0
H112 H 0.82412 0.4671 0.96985 0.0
H113 H 0.88281 0.38666 0.91902 0.0
H114 H 1.036 0.5846 0.38379 0.0
H115 H 0.93694 0.49844 0.39352 0.0
H116 H 0.91531 0.58809 0.3382 0.0
loop_
_geom_bond_atom_site_label_1
_geom_bond_atom_site_label_2
_geom_bond_distance
_geom_bond_site_symmetry_2
_ccdc_geom_bond_type
Zn0 O6 1.920 . S
Zn0 O12 1.898 . S
Zn0 O15 1.905 . S
Zn1 O9 1.905 . S
Zn1 O10 1.898 . S
Zn1 O18 1.920 . S
Zn2 O5 2.075 1_455 S
Zn2 O8 2.120 . S
Zn2 O11 2.119 1_465 S
Zn2 O13 2.120 1_464 S
Zn2 O14 2.117 1_554 S
Zn2 O17 2.078 1_564 S
C3 O8 1.166 1_545 S
C3 O9 1.182 . S
C4 O10 1.175 . S
C4 O11 1.300 1_455 S
O5 Zn2 2.075 1_655 S
O5 C19 1.305 1_554 S
O6 Zn0 1.920 . S
O6 C19 1.234 . S
C7 O12 1.174 . S
C7 O13 1.300 1_565 S
O8 Zn2 2.120 . S
O8 C3 1.166 1_565 S
O9 Zn1 1.905 . S
O9 C3 1.182 . S
O10 Zn1 1.898 . S
O10 C4 1.175 . S
O11 Zn2 2.119 1_645 S
O11 C4 1.300 1_655 S
O12 Zn0 1.898 . S
O12 C7 1.174 . S
O13 Zn2 2.120 1_646 S
O13 C7 1.300 1_545 S
O14 Zn2 2.117 1_556 S
O14 C16 1.166 1_455 S
O15 Zn0 1.905 . S
O15 C16 1.182 . S
C16 O14 1.166 1_655 S
C16 O15 1.182 . S
O17 Zn2 2.078 1_546 S
O17 C20 1.305 1_556 S
O18 Zn1 1.920 . S
O18 C20 1.234 . S
C19 O5 1.305 1_556 S
C19 O6 1.234 . S
C20 O17 1.305 1_554 S
C20 O18 1.234 . S
C21 C22 1.391 1_655 S
C21 C23 1.394 . S
C21 H37 0.931 . S
C22 C21 1.391 1_455 S
C22 C26 1.376 . S
C23 C21 1.394 . S
C23 C24 1.369 1_655 S
C23 C27 1.531 . S
C24 C23 1.369 1_455 S
C24 C25 1.410 . S
C24 C32 1.503 . S
C25 C24 1.410 . S
C25 C26 1.392 . S
C25 C28 1.511 1_565 S
C26 C22 1.376 . S
C26 C25 1.392 . S
C26 H38 0.929 1_565 S
C27 C23 1.531 . S
C27 H39 0.960 . S
C27 H40 0.962 . S
C27 H41 0.960 . S
C28 C25 1.511 1_545 S
C28 H42 0.961 . S
C28 H43 0.961 . S
C28 H44 0.961 1_545 S
C29 C30 1.370 1_545 S
C29 C31 1.363 . S
C29 H45 0.931 1_455 S
C30 C29 1.370 1_565 S
C30 C34 1.408 . S
C31 C29 1.363 . S
C31 C32 1.370 1_545 S
C31 C35 1.524 1_455 S
C32 C24 1.503 . S
C32 C31 1.370 1_565 S
C32 C33 1.403 . S
C33 C32 1.403 . S
C33 C34 1.404 . S
C33 C36 1.539 . S
C34 C30 1.408 . S
C34 C33 1.404 . S
C34 H46 0.930 . S
C35 C31 1.524 1_655 S
C35 H47 0.956 . S
C35 H48 0.961 1_655 S
C35 H49 0.961 . S
C36 C33 1.539 . S
C36 H50 0.958 . S
C36 H51 0.961 . S
C36 H52 0.960 . S
H37 C21 0.931 . S
H38 C26 0.929 1_545 S
H39 C27 0.960 . S
H40 C27 0.962 . S
H41 C27 0.960 . S
H42 C28 0.961 . S
H43 C28 0.961 . S
H44 C28 0.961 1_565 S
H45 C29 0.931 1_655 S
H46 C34 0.930 . S
H47 C35 0.956 . S
H48 C35 0.961 1_455 S
H49 C35 0.961 . S
H50 C36 0.958 . S
H51 C36 0.961 . S
H52 C36 0.960 . S
C53 C54 1.391 1_565 S
C53 C55 1.394 . S
C53 H69 0.931 . S
C54 C53 1.391 1_545 S
C54 C58 1.376 . S
C55 C53 1.394 . S
C55 C56 1.369 1_565 S
C55 C59 1.531 . S
C56 C55 1.369 1_545 S
C56 C57 1.410 . S
C56 C64 1.503 . S
C57 C56 1.410 . S
C57 C58 1.392 . S
C57 C60 1.511 . S
C58 C54 1.376 . S
C58 C57 1.392 . S
C58 H70 0.929 . S
C59 C55 1.531 . S
C59 H71 0.960 . S
C59 H72 0.962 . S
C59 H73 0.960 . S
C60 C57 1.511 . S
C60 H74 0.961 1_556 S
C60 H75 0.961 1_556 S
C60 H76 0.961 . S
C61 C62 1.370 1_554 S
C61 C63 1.363 . S
C61 H77 0.931 . S
C62 C61 1.370 1_556 S
C62 C66 1.408 . S
C63 C61 1.363 . S
C63 C64 1.370 1_554 S
C63 C67 1.524 . S
C64 C56 1.503 . S
C64 C63 1.370 1_556 S
C64 C65 1.403 . S
C65 C64 1.403 . S
C65 C66 1.404 . S
C65 C68 1.539 . S
C66 C62 1.408 . S
C66 C65 1.404 . S
C66 H78 0.930 . S
C67 C63 1.524 . S
C67 H79 0.956 1_545 S
C67 H80 0.961 . S
C67 H81 0.961 . S
C68 C65 1.539 . S
C68 H82 0.958 . S
C68 H83 0.961 . S
C68 H84 0.960 . S
H69 C53 0.931 . S
H70 C58 0.929 . S
H71 C59 0.960 . S
H72 C59 0.962 . S
H73 C59 0.960 . S
H74 C60 0.961 1_554 S
H75 C60 0.961 1_554 S
H76 C60 0.961 . S
H77 C61 0.931 . S
H78 C66 0.930 . S
H79 C67 0.956 1_565 S
H80 C67 0.961 . S
H81 C67 0.961 . S
H82 C68 0.958 . S
H83 C68 0.961 . S
H84 C68 0.960 . S
C85 C86 1.391 1_455 S
C85 C87 1.394 1_455 S
C85 H101 0.931 . S
C86 C85 1.391 1_655 S
C86 C90 1.376 1_554 S
C87 C85 1.394 1_655 S
C87 C88 1.369 . S
C87 C91 1.531 1_655 S
C88 C87 1.369 . S
C88 C89 1.410 1_554 S
C88 C96 1.503 . S
C89 C88 1.410 1_556 S
C89 C90 1.392 . S
C89 C92 1.511 . S
C90 C86 1.376 1_556 S
C90 C89 1.392 . S
C90 H102 0.929 . S
C91 C87 1.531 1_455 S
C91 H103 0.960 . S
C91 H104 0.962 . S
C91 H105 0.960 . S
C92 C89 1.511 . S
C92 H106 0.961 . S
C92 H107 0.961 . S
C92 H108 0.961 . S
C93 C94 1.370 1_456 S
C93 C95 1.363 . S
C93 H109 0.931 . S
C94 C93 1.370 1_654 S
C94 C98 1.408 . S
C95 C93 1.363 . S
C95 C96 1.370 1_456 S
C95 C99 1.524 . S
C96 C88 1.503 . S
C96 C95 1.370 1_654 S
C96 C97 1.403 . S
C97 C96 1.403 . S
C97 C98 1.404 . S
C97 C100 1.539 . S
C98 C94 1.408 . S
C98 C97 1.404 . S
C98 H110 0.930 . S
C99 C95 1.524 . S
C99 H111 0.956 . S
C99 H112 0.961 . S
C99 H113 0.961 . S
C100 C97 1.539 . S
C100 H114 0.958 . S
C100 H115 0.961 . S
C100 H116 0.960 . S
H101 C85 0.931 . S
H102 C90 0.929 . S
H103 C91 0.960 . S
H104 C91 0.962 . S
H105 C91 0.960 . S
H106 C92 0.961 . S
H107 C92 0.961 . S
H108 C92 0.961 . S
H109 C93 0.931 . S
H110 C98 0.930 . S
H111 C99 0.956 . S
H112 C99 0.961 . S
H113 C99 0.961 . S
H114 C100 0.958 . S
H115 C100 0.961 . S
H116 C100 0.960 . S
C22 C4 1.342 1_565 S
C30 C7 1.312 1_455 S
C54 C3 1.369 1_556 S
C62 C19 1.325 1_545 S
C86 C16 1.337 1_554 S
C94 C20 1.341 1_655 S
