# Generated by pormake.
# Topology qtz, (4)-cn, num edge types: 1
# Building blocks:
#     Node 0, Type 0, BuildingBlock: GALJAG_clean_sbu_0, # of connection points: 4
#     Node 1, Type 0, BuildingBlock: GALJAG_clean_sbu_0, # of connection points: 4
#     Node 2, Type 0, BuildingBlock: GALJAG_clean_sbu_0, # of connection points: 4
#     Edge 3, Type (0, 0), BuildingBlock: OJICUG_clean_linker_0, # of connection points: 2
#     Edge 4, Type (0, 0), BuildingBlock: OJICUG_clean_linker_0, # of connection points: 2
#     Edge 5, Type (0, 0), BuildingBlock: OJICUG_clean_linker_0, # of connection points: 2
#     Edge 6, Type (0, 0), BuildingBlock: OJICUG_clean_linker_0, # of connection points: 2
#     Edge 7, Type (0, 0), BuildingBlock: OJICUG_clean_linker_0, # of connection points: 2
#     Edge 8, Type (0, 0), BuildingBlock: OJICUG_clean_linker_0, # of connection points: 2
# Relax obj value: 0.004
# Max RMSD: 0.037
# Mean RMSD: 0.037
data_MOF--net-qtz--node1-GALJAG_clean_sbu_0--edge1-OJICUG_clean_linker_0
_symmetry_space_group_name_H-M    P1
_symmetry_Int_Tables_number       1
_symmetry_cell_setting            triclinic
loop_
_symmetry_equiv_pos_as_xyz
'x, y, z'
_cell_length_a     17.844522
_cell_length_b     17.933715
_cell_length_c     19.930046
_cell_angle_alpha  90.444838
_cell_angle_beta   90.399792
_cell_angle_gamma 120.06333
loop_
_atom_site_label
_atom_site_type_symbol
_atom_site_fract_x
_atom_site_fract_y
_atom_site_fract_z
_atom_type_partial_charge
In0 In 0.01719 0.51059 0.15354 0.0
O1 O 0.93189 0.36841 0.17762 0.0
O2 O 0.95448 0.45967 0.25523 0.0
C3 C 0.12287 0.49786 0.06339 0.0
C4 C 0.89515 0.52483 0.08216 0.0
C5 C 0.13476 0.6343 0.23625 0.0
O6 O 0.08332 0.4414 0.10714 0.0
O7 O 0.10715 0.55899 0.06397 0.0
O8 O 0.06879 0.63612 0.21477 0.0
O9 O 0.13959 0.56956 0.21722 0.0
C10 C 0.91713 0.3815 0.23707 0.0
O11 O 0.96376 0.59034 0.10288 0.0
O12 O 0.88919 0.45412 0.09721 0.0
In13 In 0.52882 0.01518 0.48597 0.0
O14 O 0.67174 0.10307 0.4619 0.0
O15 O 0.57917 0.08466 0.38648 0.0
C16 C 0.53587 0.90126 0.56985 0.0
C17 C 0.51511 0.13173 0.56436 0.0
C18 C 0.40474 0.90101 0.40195 0.0
O19 O 0.59596 0.94562 0.52969 0.0
O20 O 0.47372 0.91582 0.5687 0.0
O21 O 0.39814 0.96033 0.43121 0.0
O22 O 0.47442 0.90114 0.41401 0.0
C23 C 0.65786 0.12106 0.40383 0.0
O24 O 0.45234 0.07676 0.52904 0.0
O25 O 0.58279 0.12674 0.56041 0.0
In26 In 0.51557 0.51261 0.81899 0.0
O27 O 0.59299 0.64216 0.76628 0.0
O28 O 0.45897 0.56384 0.74226 0.0
C29 C 0.63269 0.5263 0.91215 0.0
C30 C 0.38976 0.50216 0.89915 0.0
C31 C 0.5093 0.39245 0.73268 0.0
O32 O 0.64577 0.58849 0.87519 0.0
O33 O 0.56047 0.45882 0.90284 0.0
O34 O 0.44209 0.38479 0.75977 0.0
O35 O 0.57824 0.46061 0.74836 0.0
C36 C 0.52843 0.63376 0.73327 0.0
O37 O 0.38605 0.43603 0.87283 0.0
O38 O 0.45731 0.57226 0.88627 0.0
C39 C 0.25759 0.42239 0.96985 0.0
C40 C 0.31965 0.49916 0.93989 0.0
H41 H 0.14657 0.36188 0.03341 0.0
C42 C 0.31443 0.57415 0.94889 0.0
H43 H 0.2602 0.36368 0.96357 0.0
C44 C 0.24874 0.57271 -0.01263 0.0
C45 C 0.18788 0.49664 0.01877 0.0
H46 H 0.36103 0.63409 0.92591 0.0
H47 H 0.24689 0.63181 -0.00621 0.0
C48 C 0.19272 0.42137 0.00966 0.0
C49 C 0.86342 0.31876 0.35001 0.0
C50 C 0.85491 0.31156 0.27985 0.0
H51 H 0.80825 0.26197 0.44446 0.0
C52 C 0.78334 0.23912 0.25067 0.0
H53 H 0.91807 0.37414 0.37356 0.0
C54 C 0.71941 0.17653 0.29106 0.0
C55 C 0.72759 0.18401 0.3612 0.0
H56 H 0.7751 0.23252 0.19663 0.0
H57 H 0.66339 0.12253 0.2675 0.0
C58 C 0.80091 0.25465 0.3904 0.0
C59 C 0.45677 0.76784 0.63683 0.0
C60 C 0.53543 0.83397 0.61217 0.0
H61 H 0.39304 0.65185 0.69329 0.0
C62 C 0.61239 0.83368 0.62698 0.0
H63 H 0.3964 0.76617 0.62577 0.0
C64 C 0.61065 0.76875 0.6667 0.0
C65 C 0.53166 0.70215 0.69068 0.0
H66 H 0.67387 0.88399 0.60844 0.0
H67 H 0.67081 0.7702 0.67812 0.0
C68 C 0.45479 0.70212 0.67508 0.0
C69 C 0.683 0.45368 -0.00826 0.0
C70 C 0.69837 0.52928 0.95946 0.0
H71 H 0.73316 0.39337 0.05547 0.0
C72 C 0.77802 0.60543 0.97047 0.0
H73 H 0.62234 0.39399 0.98439 0.0
C74 C 0.84176 0.60523 0.01194 0.0
C75 C 0.82703 0.52866 0.04232 0.0
H76 H 0.79156 0.66469 0.94625 0.0
H77 H 0.90317 0.66424 0.0188 0.0
C78 C 0.74668 0.45329 0.03238 0.0
C79 C 0.34418 0.76567 0.33355 0.0
C80 C 0.33553 0.83429 0.35872 0.0
H81 H 0.28746 0.64881 0.27577 0.0
C82 C 0.25983 0.8369 0.34345 0.0
H83 H 0.40156 0.76162 0.34455 0.0
C84 C 0.19412 0.77197 0.30361 0.0
C85 C 0.20285 0.70312 0.27886 0.0
H86 H 0.25134 0.88898 0.36229 0.0
H87 H 0.1365 0.7755 0.29241 0.0
C88 C 0.27856 0.70077 0.29428 0.0
C89 C 0.43144 0.25731 0.66208 0.0
C90 C 0.50904 0.32591 0.68833 0.0
H91 H 0.37233 0.14195 0.6012 0.0
C92 C 0.58771 0.33017 0.6729 0.0
H93 H 0.36988 0.25257 0.67317 0.0
C94 C 0.58898 0.2668 0.63281 0.0
C95 C 0.51172 0.19818 0.6064 0.0
H96 H 0.64854 0.38202 0.69256 0.0
H97 H 0.65084 0.27183 0.62234 0.0
C98 C 0.43284 0.19421 0.62093 0.0
loop_
_geom_bond_atom_site_label_1
_geom_bond_atom_site_label_2
_geom_bond_distance
_geom_bond_site_symmetry_2
_ccdc_geom_bond_type
In0 O1 2.294 1_455 S
In0 O2 2.326 1_455 S
In0 O6 2.266 . S
In0 O7 2.326 . S
In0 O8 2.266 . S
In0 O9 2.326 . S
In0 O11 2.294 1_455 S
In0 O12 2.326 1_455 S
O1 In0 2.294 1_655 S
O1 C10 1.240 . S
O2 In0 2.326 1_655 S
O2 C10 1.252 . S
C3 O6 1.252 . S
C3 O7 1.260 . S
C4 O11 1.240 . S
C4 O12 1.252 . S
C5 O8 1.252 . S
C5 O9 1.260 . S
O6 In0 2.266 . S
O6 C3 1.252 . S
O7 In0 2.326 . S
O7 C3 1.260 . S
O8 In0 2.266 . S
O8 C5 1.252 . S
O9 In0 2.326 . S
O9 C5 1.260 . S
C10 O1 1.240 . S
C10 O2 1.252 . S
O11 In0 2.294 1_655 S
O11 C4 1.240 . S
O12 In0 2.326 1_655 S
O12 C4 1.252 . S
In13 O14 2.294 . S
In13 O15 2.326 . S
In13 O19 2.266 1_545 S
In13 O20 2.326 1_545 S
In13 O21 2.266 1_545 S
In13 O22 2.326 1_545 S
In13 O24 2.294 . S
In13 O25 2.326 . S
O14 In13 2.294 . S
O14 C23 1.240 . S
O15 In13 2.326 . S
O15 C23 1.252 . S
C16 O19 1.252 . S
C16 O20 1.260 . S
C17 O24 1.240 . S
C17 O25 1.252 . S
C18 O21 1.252 . S
C18 O22 1.260 . S
O19 In13 2.266 1_565 S
O19 C16 1.252 . S
O20 In13 2.326 1_565 S
O20 C16 1.260 . S
O21 In13 2.266 1_565 S
O21 C18 1.252 . S
O22 In13 2.326 1_565 S
O22 C18 1.260 . S
C23 O14 1.240 . S
C23 O15 1.252 . S
O24 In13 2.294 . S
O24 C17 1.240 . S
O25 In13 2.326 . S
O25 C17 1.252 . S
In26 O27 2.294 . S
In26 O28 2.326 . S
In26 O32 2.266 . S
In26 O33 2.326 . S
In26 O34 2.266 . S
In26 O35 2.326 . S
In26 O37 2.294 . S
In26 O38 2.326 . S
O27 In26 2.294 . S
O27 C36 1.240 . S
O28 In26 2.326 . S
O28 C36 1.252 . S
C29 O32 1.252 . S
C29 O33 1.260 . S
C30 O37 1.240 . S
C30 O38 1.252 . S
C31 O34 1.252 . S
C31 O35 1.260 . S
O32 In26 2.266 . S
O32 C29 1.252 . S
O33 In26 2.326 . S
O33 C29 1.260 . S
O34 In26 2.266 . S
O34 C31 1.252 . S
O35 In26 2.326 . S
O35 C31 1.260 . S
C36 O27 1.240 . S
C36 O28 1.252 . S
O37 In26 2.294 . S
O37 C30 1.240 . S
O38 In26 2.326 . S
O38 C30 1.252 . S
C39 C40 1.387 . S
C39 H43 0.950 . S
C39 C48 1.390 1_556 S
C40 C39 1.387 . S
C40 C42 1.387 . S
H41 C48 0.950 . S
C42 C40 1.387 . S
C42 C44 1.390 1_556 S
C42 H46 0.950 . S
H43 C39 0.950 . S
C44 C42 1.390 1_554 S
C44 C45 1.387 . S
C44 H47 0.950 . S
C45 C44 1.387 . S
C45 C48 1.387 . S
H46 C42 0.950 . S
H47 C44 0.950 . S
C48 C39 1.390 1_554 S
C48 H41 0.950 . S
C48 C45 1.387 . S
C49 C50 1.387 . S
C49 H53 0.950 . S
C49 C58 1.390 . S
C50 C49 1.387 . S
C50 C52 1.387 . S
H51 C58 0.950 . S
C52 C50 1.387 . S
C52 C54 1.390 . S
C52 H56 0.950 . S
H53 C49 0.950 . S
C54 C52 1.390 . S
C54 C55 1.387 . S
C54 H57 0.950 . S
C55 C54 1.387 . S
C55 C58 1.387 . S
H56 C52 0.950 . S
H57 C54 0.950 . S
C58 C49 1.390 . S
C58 H51 0.950 . S
C58 C55 1.387 . S
C59 C60 1.387 . S
C59 H63 0.950 . S
C59 C68 1.390 . S
C60 C59 1.387 . S
C60 C62 1.387 . S
H61 C68 0.950 . S
C62 C60 1.387 . S
C62 C64 1.390 . S
C62 H66 0.950 . S
H63 C59 0.950 . S
C64 C62 1.390 . S
C64 C65 1.387 . S
C64 H67 0.950 . S
C65 C64 1.387 . S
C65 C68 1.387 . S
H66 C62 0.950 . S
H67 C64 0.950 . S
C68 C59 1.390 . S
C68 H61 0.950 . S
C68 C65 1.387 . S
C69 C70 1.387 . S
C69 H73 0.950 . S
C69 C78 1.390 1_556 S
C70 C69 1.387 . S
C70 C72 1.387 . S
H71 C78 0.950 . S
C72 C70 1.387 . S
C72 C74 1.390 1_556 S
C72 H76 0.950 . S
H73 C69 0.950 . S
C74 C72 1.390 1_554 S
C74 C75 1.387 . S
C74 H77 0.950 . S
C75 C74 1.387 . S
C75 C78 1.387 . S
H76 C72 0.950 . S
H77 C74 0.950 . S
C78 C69 1.390 1_554 S
C78 H71 0.950 . S
C78 C75 1.387 . S
C79 C80 1.387 . S
C79 H83 0.950 . S
C79 C88 1.390 . S
C80 C79 1.387 . S
C80 C82 1.387 . S
H81 C88 0.950 . S
C82 C80 1.387 . S
C82 C84 1.390 . S
C82 H86 0.950 . S
H83 C79 0.950 . S
C84 C82 1.390 . S
C84 C85 1.387 . S
C84 H87 0.950 . S
C85 C84 1.387 . S
C85 C88 1.387 . S
H86 C82 0.950 . S
H87 C84 0.950 . S
C88 C79 1.390 . S
C88 H81 0.950 . S
C88 C85 1.387 . S
C89 C90 1.387 . S
C89 H93 0.950 . S
C89 C98 1.390 . S
C90 C89 1.387 . S
C90 C92 1.387 . S
H91 C98 0.950 . S
C92 C90 1.387 . S
C92 C94 1.390 . S
C92 H96 0.950 . S
H93 C89 0.950 . S
C94 C92 1.390 . S
C94 C95 1.387 . S
C94 H97 0.950 . S
C95 C94 1.387 . S
C95 C98 1.387 . S
H96 C92 0.950 . S
H97 C94 0.950 . S
C98 C89 1.390 . S
C98 H91 0.950 . S
C98 C95 1.387 . S
C40 C30 1.535 . S
C45 C3 1.536 . S
C50 C10 1.531 . S
C55 C23 1.531 . S
C60 C16 1.536 . S
C65 C36 1.535 . S
C70 C29 1.535 . S
C75 C4 1.535 . S
C80 C18 1.540 . S
C85 C5 1.540 . S
C90 C31 1.535 . S
C95 C17 1.534 . S
