# Generated by pormake.
# Topology bsn, (6)-cn, num edge types: 1
# Building blocks:
#     Node 0, Type 0, BuildingBlock: UKALOJ_clean_sbu_0, # of connection points: 6
#     Node 1, Type 0, BuildingBlock: UKALOJ_clean_sbu_0, # of connection points: 6
#     Node 2, Type 0, BuildingBlock: UKALOJ_clean_sbu_0, # of connection points: 6
#     Node 3, Type 0, BuildingBlock: UKALOJ_clean_sbu_0, # of connection points: 6
#     Edge 4, Type (0, 0), BuildingBlock: OJICUG_clean_linker_0, # of connection points: 2
#     Edge 5, Type (0, 0), BuildingBlock: OJICUG_clean_linker_0, # of connection points: 2
#     Edge 6, Type (0, 0), BuildingBlock: OJICUG_clean_linker_0, # of connection points: 2
#     Edge 7, Type (0, 0), BuildingBlock: OJICUG_clean_linker_0, # of connection points: 2
#     Edge 8, Type (0, 0), BuildingBlock: OJICUG_clean_linker_0, # of connection points: 2
#     Edge 9, Type (0, 0), BuildingBlock: OJICUG_clean_linker_0, # of connection points: 2
#     Edge 10, Type (0, 0), BuildingBlock: OJICUG_clean_linker_0, # of connection points: 2
#     Edge 11, Type (0, 0), BuildingBlock: OJICUG_clean_linker_0, # of connection points: 2
#     Edge 12, Type (0, 0), BuildingBlock: OJICUG_clean_linker_0, # of connection points: 2
#     Edge 13, Type (0, 0), BuildingBlock: OJICUG_clean_linker_0, # of connection points: 2
#     Edge 14, Type (0, 0), BuildingBlock: OJICUG_clean_linker_0, # of connection points: 2
#     Edge 15, Type (0, 0), BuildingBlock: OJICUG_clean_linker_0, # of connection points: 2
# Relax obj value: 0.216
# Max RMSD: 0.164
# Mean RMSD: 0.145
data_MOF--net-bsn--node1-UKALOJ_clean_sbu_0--edge1-OJICUG_clean_linker_0
_symmetry_space_group_name_H-M    P1
_symmetry_Int_Tables_number       1
_symmetry_cell_setting            triclinic
loop_
_symmetry_equiv_pos_as_xyz
'x, y, z'
_cell_length_a     22.876967
_cell_length_b     28.094071
_cell_length_c     11.31889
_cell_angle_alpha  89.69973
_cell_angle_beta   94.900283
_cell_angle_gamma 90.215227
loop_
_atom_site_label
_atom_site_type_symbol
_atom_site_fract_x
_atom_site_fract_y
_atom_site_fract_z
_atom_type_partial_charge
Zn0 Zn 0.05523 0.33648 0.29511 0.0
O1 O 0.96118 0.34504 0.29026 0.0
C2 C 0.05777 0.29552 0.54009 0.0
Zn3 Zn 0.05183 0.25536 0.29569 0.0
C4 C 0.93144 0.3065 0.29145 0.0
O5 O 0.95839 0.26684 0.29079 0.0
C6 C 0.1758 0.28521 0.30388 0.0
O7 O 0.04847 0.25731 0.10773 0.0
O8 O 0.05093 0.33542 0.10692 0.0
N9 N 1.03482 0.18173 0.28546 0.0
C10 C 0.05993 0.1404 0.32615 0.0
C11 C 0.98127 0.12195 0.22224 0.0
N12 N 0.98612 0.16965 0.2209 0.0
N13 N 1.02697 0.1021 0.28738 0.0
C14 C 0.04758 0.45136 0.32356 0.0
C15 C 0.12352 0.47038 0.23749 0.0
N16 N 0.07179 0.41023 0.28866 0.0
N17 N 0.1188 0.42267 0.23514 0.0
N18 N 0.07942 0.48986 0.29219 0.0
H19 H 0.95505 0.45735 0.33072 0.0
H20 H 0.99785 0.48375 0.45469 0.0
H21 H 0.9906 0.41947 0.44338 0.0
C22 C 0.99488 0.45311 0.39297 0.0
C23 C 0.11479 0.13831 0.40789 0.0
H24 H 0.12122 0.17212 0.45766 0.0
H25 H 0.15285 0.13328 0.35478 0.0
H26 H 0.11297 0.10799 0.47071 0.0
O27 O 0.14589 0.2467 0.30252 0.0
O28 O 0.1488 0.32491 0.30184 0.0
C29 C 0.04925 0.29634 0.05046 0.0
O30 O 0.05938 0.3348 0.48314 0.0
O31 O 0.05533 0.25619 0.48373 0.0
Zn32 Zn 1.00484 0.79345 0.2994 0.0
O33 O 1.01061 0.71648 0.29367 0.0
C34 C 0.05509 0.7956 0.55373 0.0
Zn35 Zn 0.101 0.7984 0.31792 0.0
C36 C 0.05997 0.69567 0.30819 0.0
O37 O 0.10609 0.72132 0.32108 0.0
C38 C 0.04631 0.89616 0.3085 0.0
O39 O 0.09866 0.79807 0.13021 0.0
O40 O 1.00224 0.79477 0.11191 0.0
N41 N 0.18916 0.80214 0.33285 0.0
C42 C 0.22517 0.82467 0.41494 0.0
C43 C 0.27654 0.77465 0.32861 0.0
N44 N 0.22127 0.77162 0.27776 0.0
N45 N 0.27997 0.80787 0.41437 0.0
C46 C 0.88601 0.76676 0.37942 0.0
C47 C 0.83266 0.82346 0.307 0.0
N48 N 0.91647 0.7896 0.2992 0.0
N49 N 0.88278 0.82427 0.25253 0.0
N50 N 0.83379 0.78775 0.38717 0.0
H51 H 0.95535 0.71888 0.45537 0.0
H52 H 0.88256 0.69526 0.44493 0.0
H53 H 0.90439 0.73821 0.55599 0.0
C54 C 0.90922 0.7279 0.46287 0.0
C55 C 0.20649 0.85867 0.50658 0.0
H56 H 0.16081 0.87069 0.48892 0.0
H57 H 0.23545 0.89047 0.50997 0.0
H58 H 0.21193 0.84141 0.5952 0.0
O59 O 0.09569 0.87531 0.31333 0.0
O60 O 1.00004 0.87057 0.30226 0.0
C61 C 0.05071 0.79651 0.06434 0.0
O62 O 1.00777 0.79374 0.48753 0.0
O63 O 0.10304 0.79747 0.50589 0.0
Zn64 Zn 0.59217 0.83687 0.79745 0.0
O65 O 0.50137 0.84503 0.77601 0.0
C66 C 0.59041 0.79757 0.04279 0.0
Zn67 Zn 0.58104 0.75908 0.79817 0.0
C68 C 0.46829 0.80873 0.76849 0.0
O69 O 0.49063 0.76787 0.78613 0.0
C70 C 0.70361 0.78675 0.78954 0.0
O71 O 0.57728 0.7597 0.60969 0.0
O72 O 0.59203 0.83712 0.61051 0.0
N73 N 0.57107 0.68751 0.80318 0.0
C74 C 0.53749 0.66186 0.87222 0.0
C75 C 0.59963 0.61454 0.80726 0.0
N76 N 0.60929 0.658 0.76161 0.0
N77 N 0.55481 0.6162 0.87689 0.0
C78 C 0.577 0.93918 0.87324 0.0
C79 C 0.65684 0.97197 0.83152 0.0
N80 N 0.60447 0.9083 0.8065 0.0
N81 N 0.65381 0.92888 0.77935 0.0
N82 N 0.60934 0.97893 0.89171 0.0
H83 H 0.4846 0.92745 0.84022 0.0
H84 H 0.50353 0.9618 -0.03024 0.0
H85 H 0.51683 0.89853 -0.02822 0.0
C86 C 0.5175 0.93131 0.91734 0.0
C87 C 0.48603 0.68065 0.93184 0.0
H88 H 0.49731 0.71344 -0.01783 0.0
H89 H 0.46847 0.65396 -0.00788 0.0
H90 H 0.45033 0.6893 0.86284 0.0
O91 O 0.67119 0.75052 0.79978 0.0
O92 O 0.68294 0.82774 0.80693 0.0
C93 C 0.58463 0.79835 0.55331 0.0
O94 O 0.59323 0.83626 -0.01451 0.0
O95 O 0.58653 0.75886 -0.01413 0.0
Zn96 Zn 0.55719 0.25641 0.3254 0.0
O97 O 0.56152 0.2575 0.51333 0.0
C98 C 0.43217 0.28828 0.3154 0.0
Zn99 Zn 0.55302 0.33482 0.32381 0.0
C100 C 0.55866 0.29648 0.56927 0.0
O101 O 0.5551 0.33553 0.51155 0.0
C102 C 0.55129 0.29477 0.07941 0.0
O103 O 0.64776 0.34056 0.335 0.0
O104 O 0.65124 0.26295 0.32931 0.0
N105 N 0.54409 0.40659 0.31419 0.0
C106 C 0.56325 0.43673 0.23295 0.0
C107 C 0.49907 0.47373 0.32267 0.0
N108 N 0.5046 0.42974 0.37081 0.0
N109 N 0.53521 0.47855 0.23562 0.0
C110 C 0.55032 0.15374 0.24059 0.0
C111 C 0.61955 0.12119 0.34979 0.0
N112 N 0.56762 0.18494 0.32636 0.0
N113 N 0.61013 0.16446 0.39529 0.0
N114 N 0.58287 0.11398 0.25206 0.0
H115 H 0.46979 0.18825 0.17232 0.0
H116 H 0.47788 0.12742 0.12564 0.0
H117 H 0.5191 0.17376 0.06271 0.0
C118 C 0.5013 0.1615 0.14553 0.0
C119 C 0.60852 0.42584 0.1482 0.0
H120 H 0.63672 0.39567 0.17763 0.0
H121 H 0.63646 0.45767 0.13716 0.0
H122 H 0.58655 0.41733 0.05994 0.0
O123 O 0.54965 0.33351 0.13571 0.0
O124 O 0.5539 0.25603 0.13733 0.0
C125 C 0.67798 0.30277 0.33164 0.0
O126 O 0.46265 0.25036 0.32094 0.0
O127 O 0.45877 0.32817 0.31384 0.0
C128 C 0.12286 0.56993 0.32641 0.0
C129 C 0.0726 0.54081 0.30844 0.0
H130 H 0.15857 0.64049 0.34071 0.0
C131 C 1.0175 0.56324 0.29354 0.0
H132 H 0.16602 0.554 0.33766 0.0
C133 C 1.01315 0.61333 0.29495 0.0
C134 C 0.06378 0.64233 0.31057 0.0
H135 H 0.97796 0.5423 0.27617 0.0
H136 H 0.9701 0.62936 0.28149 0.0
C137 C 0.11858 0.61971 0.32777 0.0
C138 C 0.77762 0.82536 0.6716 0.0
C139 C 0.74971 0.78354 0.70653 0.0
H140 H 0.82448 0.85965 0.53875 0.0
C141 C 0.75258 0.74241 0.63649 0.0
H142 H 0.77615 0.85768 0.72306 0.0
C143 C 0.77814 0.74432 0.52914 0.0
C144 C 0.80248 0.78691 0.49125 0.0
H145 H 0.73129 0.70958 0.65984 0.0
H146 H 0.77835 0.71276 0.47469 0.0
C147 C 0.8036 0.82702 0.56466 0.0
C148 C 0.55141 0.56121 0.17684 0.0
C149 C 0.53355 0.51492 0.14683 0.0
H150 H 0.57306 0.63019 0.11131 0.0
C151 C 0.51895 0.50309 0.02737 0.0
H152 H 0.56305 0.57059 0.26854 0.0
C153 C 0.52526 0.53657 0.93807 0.0
C154 C 0.54483 0.58245 -0.03223 0.0
H155 H 0.50409 0.46752 0.00342 0.0
H156 H 0.51548 0.52674 0.8461 0.0
C157 C 0.55727 0.59484 0.08756 0.0
C158 C 0.83452 0.3492 0.30766 0.0
C159 C 0.86634 0.30665 0.29958 0.0
H160 H 0.75055 0.3816 0.32462 0.0
C161 C 0.8355 0.26324 0.30386 0.0
H162 H 0.85665 0.3833 0.30532 0.0
C163 C 0.77502 0.26225 0.31583 0.0
C164 C 0.74304 0.30462 0.32387 0.0
H165 H 0.85815 0.22964 0.2984 0.0
H166 H 0.75328 0.22799 0.31821 0.0
C167 C 0.77365 0.3482 0.31945 0.0
C168 C 0.33402 0.32905 0.30832 0.0
C169 C 0.36654 0.28657 0.3119 0.0
H170 H 0.24966 0.36192 0.30319 0.0
C171 C 0.33554 0.24309 0.31281 0.0
H172 H 0.35599 0.36326 0.30756 0.0
C173 C 0.2738 0.24228 0.31032 0.0
C174 C 0.24146 0.28493 0.30692 0.0
H175 H 0.35895 0.20962 0.3155 0.0
H176 H 0.25146 0.20823 0.31114 0.0
C177 C 0.27266 0.32825 0.30591 0.0
C178 C 0.39522 0.85397 0.6375 0.0
C179 C 0.41038 0.81217 0.70199 0.0
H180 H 0.34261 0.88451 0.49031 0.0
C181 C 0.37784 0.77036 0.67695 0.0
H182 H 0.41953 0.88675 0.65424 0.0
C183 C 0.33507 0.76917 0.58203 0.0
C184 C 0.32364 0.8098 0.51195 0.0
H185 H 0.38813 0.73766 0.72513 0.0
H186 H 0.31162 0.73628 0.56142 0.0
C187 C 0.35217 0.85266 0.54261 0.0
C188 C 0.59758 0.99802 0.09987 0.0
C189 C 0.60474 1.01321 -0.01669 0.0
H190 H 0.58411 1.01903 0.27768 0.0
C191 C 0.60815 0.06181 -0.04197 0.0
H192 H 0.59687 0.96045 0.12147 0.0
C193 C 0.60146 0.09493 0.04705 0.0
C194 C 0.59103 0.07974 0.16204 0.0
H195 H 0.61514 0.07392 0.86933 0.0
H196 H 0.60483 0.13245 0.02649 0.0
C197 C 0.59063 1.03114 0.18876 0.0
C198 C 0.98801 0.97212 0.31141 0.0
C199 C 0.04264 0.94948 0.31012 0.0
H200 H 0.94074 1.03784 0.3079 0.0
C201 C 0.09321 0.97844 0.30916 0.0
H202 H 0.94808 0.95136 0.31284 0.0
C203 C 0.08892 1.02855 0.30626 0.0
C204 C 1.03397 0.05103 0.30533 0.0
H205 H 0.13612 0.96238 0.30802 0.0
H206 H 0.12835 0.04941 0.30001 0.0
C207 C 0.98381 1.02191 0.30894 0.0
C208 C 0.05343 0.33912 0.85607 0.0
C209 C 0.05053 0.29617 0.91967 0.0
H210 H 0.05829 0.37265 0.68695 0.0
C211 C 0.05061 0.25298 0.8574 0.0
H212 H 0.05365 0.37303 0.90123 0.0
C213 C 0.05353 0.25275 0.73447 0.0
C214 C 0.05644 0.2957 0.67087 0.0
H215 H 0.04861 0.21923 0.90359 0.0
H216 H 0.05334 0.21883 0.68935 0.0
C217 C 0.05634 0.33889 0.73314 0.0
C218 C 1.00034 0.79752 0.73625 0.0
C219 C 0.05401 0.79585 0.68431 0.0
H220 H 0.95711 0.79899 0.89663 0.0
C221 C 0.10648 0.79456 0.75839 0.0
H222 H 0.9591 0.79893 0.68176 0.0
C223 C 0.10533 0.79492 0.88164 0.0
C224 C 0.05167 0.79643 0.93365 0.0
H225 H 0.14852 0.79308 0.72132 0.0
H226 H 0.14661 0.79381 0.9361 0.0
C227 C 0.99918 0.7977 0.85954 0.0
C228 C 0.58322 0.75491 0.23624 0.0
C229 C 0.5899 0.79767 0.17357 0.0
H230 H 0.5761 0.72156 0.4049 0.0
C231 C 0.59481 0.84061 0.23686 0.0
H232 H 0.57918 0.7212 0.19018 0.0
C233 C 0.59295 0.84082 0.35999 0.0
C234 C 0.58597 0.79811 0.42266 0.0
H235 H 0.59996 0.87416 0.1913 0.0
H236 H 0.59691 0.87456 0.40594 0.0
C237 C 0.58125 0.75513 0.35939 0.0
C238 C 0.54292 0.33757 0.76005 0.0
C239 C 0.55743 0.29617 0.69991 0.0
H240 H 0.52783 0.3692 0.92613 0.0
C241 C 0.56916 0.25414 0.76551 0.0
H242 H 0.53305 0.37043 0.71208 0.0
C243 C 0.56682 0.2536 0.88856 0.0
C244 C 0.55223 0.29498 -0.0513 0.0
H245 H 0.58051 0.22162 0.72195 0.0
H246 H 0.57718 0.22087 0.93655 0.0
C247 C 0.54005 0.3369 0.88294 0.0
loop_
_geom_bond_atom_site_label_1
_geom_bond_atom_site_label_2
_geom_bond_distance
_geom_bond_site_symmetry_2
_ccdc_geom_bond_type
Zn0 O1 2.055 1_455 S
Zn0 O8 2.046 . S
Zn0 N16 2.036 . S
Zn0 O28 2.053 . S
Zn0 O30 2.066 . S
O1 Zn0 2.055 1_655 S
O1 C4 1.259 . S
C2 O30 1.256 . S
C2 O31 1.244 . S
Zn3 O5 2.046 1_455 S
Zn3 O7 2.055 . S
Zn3 N9 2.036 . S
Zn3 O27 2.066 . S
Zn3 O31 2.053 . S
C4 O1 1.259 . S
C4 O5 1.254 . S
O5 Zn3 2.046 1_655 S
O5 C4 1.254 . S
C6 O27 1.256 . S
C6 O28 1.244 . S
O7 Zn3 2.055 . S
O7 C29 1.259 . S
O8 Zn0 2.046 . S
O8 C29 1.254 . S
N9 Zn3 2.036 . S
N9 C10 1.298 . S
N9 N12 1.398 . S
C10 N9 1.298 . S
C10 N13 1.367 . S
C10 C23 1.481 . S
C11 N12 1.299 . S
C11 N13 1.379 . S
N12 N9 1.398 . S
N12 C11 1.299 . S
N13 C10 1.367 . S
N13 C11 1.379 . S
C14 N16 1.298 . S
C14 N18 1.367 . S
C14 C22 1.481 1_455 S
C15 N17 1.299 . S
C15 N18 1.379 . S
N16 Zn0 2.036 . S
N16 C14 1.298 . S
N16 N17 1.398 . S
N17 C15 1.299 . S
N17 N16 1.398 . S
N18 C14 1.367 . S
N18 C15 1.379 . S
H19 C22 0.980 . S
H20 C22 0.981 . S
H21 C22 0.981 . S
C22 C14 1.481 1_655 S
C22 H19 0.980 . S
C22 H20 0.981 . S
C22 H21 0.981 . S
C23 C10 1.481 . S
C23 H24 0.980 . S
C23 H25 0.981 . S
C23 H26 0.981 . S
H24 C23 0.980 . S
H25 C23 0.981 . S
H26 C23 0.981 . S
O27 Zn3 2.066 . S
O27 C6 1.256 . S
O28 Zn0 2.053 . S
O28 C6 1.244 . S
C29 O7 1.259 . S
C29 O8 1.254 . S
O30 Zn0 2.066 . S
O30 C2 1.256 . S
O31 C2 1.244 . S
O31 Zn3 2.053 . S
Zn32 O33 2.055 . S
Zn32 O40 2.046 . S
Zn32 N48 2.036 . S
Zn32 O60 2.053 . S
Zn32 O62 2.066 . S
O33 Zn32 2.055 . S
O33 C36 1.259 1_655 S
C34 O62 1.256 1_455 S
C34 O63 1.244 . S
Zn35 O37 2.046 . S
Zn35 O39 2.055 . S
Zn35 N41 2.036 . S
Zn35 O59 2.066 . S
Zn35 O63 2.053 . S
C36 O33 1.259 1_455 S
C36 O37 1.254 . S
O37 Zn35 2.046 . S
O37 C36 1.254 . S
C38 O59 1.256 . S
C38 O60 1.244 1_455 S
O39 Zn35 2.055 . S
O39 C61 1.259 . S
O40 Zn32 2.046 . S
O40 C61 1.254 1_655 S
N41 Zn35 2.036 . S
N41 C42 1.298 . S
N41 N44 1.398 . S
C42 N41 1.298 . S
C42 N45 1.367 . S
C42 C55 1.481 . S
C43 N44 1.299 . S
C43 N45 1.379 . S
N44 N41 1.398 . S
N44 C43 1.299 . S
N45 C42 1.367 . S
N45 C43 1.379 . S
C46 N48 1.298 . S
C46 N50 1.367 . S
C46 C54 1.481 . S
C47 N49 1.299 . S
C47 N50 1.379 . S
N48 Zn32 2.036 . S
N48 C46 1.298 . S
N48 N49 1.398 . S
N49 C47 1.299 . S
N49 N48 1.398 . S
N50 C46 1.367 . S
N50 C47 1.379 . S
H51 C54 0.980 . S
H52 C54 0.981 . S
H53 C54 0.981 . S
C54 C46 1.481 . S
C54 H51 0.980 . S
C54 H52 0.981 . S
C54 H53 0.981 . S
C55 C42 1.481 . S
C55 H56 0.980 . S
C55 H57 0.981 . S
C55 H58 0.981 . S
H56 C55 0.980 . S
H57 C55 0.981 . S
H58 C55 0.981 . S
O59 Zn35 2.066 . S
O59 C38 1.256 . S
O60 Zn32 2.053 . S
O60 C38 1.244 1_655 S
C61 O39 1.259 . S
C61 O40 1.254 1_455 S
O62 Zn32 2.066 . S
O62 C34 1.256 1_655 S
O63 C34 1.244 . S
O63 Zn35 2.053 . S
Zn64 O65 2.055 . S
Zn64 O72 2.046 . S
Zn64 N80 2.036 . S
Zn64 O92 2.053 . S
Zn64 O94 2.066 1_556 S
O65 Zn64 2.055 . S
O65 C68 1.259 . S
C66 O94 1.256 . S
C66 O95 1.244 . S
Zn67 O69 2.046 . S
Zn67 O71 2.055 . S
Zn67 N73 2.036 . S
Zn67 O91 2.066 . S
Zn67 O95 2.053 1_556 S
C68 O65 1.259 . S
C68 O69 1.254 . S
O69 Zn67 2.046 . S
O69 C68 1.254 . S
C70 O91 1.256 . S
C70 O92 1.244 . S
O71 Zn67 2.055 . S
O71 C93 1.259 . S
O72 Zn64 2.046 . S
O72 C93 1.254 . S
N73 Zn67 2.036 . S
N73 C74 1.298 . S
N73 N76 1.398 . S
C74 N73 1.298 . S
C74 N77 1.367 . S
C74 C87 1.481 . S
C75 N76 1.299 . S
C75 N77 1.379 . S
N76 N73 1.398 . S
N76 C75 1.299 . S
N77 C74 1.367 . S
N77 C75 1.379 . S
C78 N80 1.298 . S
C78 N82 1.367 . S
C78 C86 1.481 . S
C79 N81 1.299 . S
C79 N82 1.379 . S
N80 Zn64 2.036 . S
N80 C78 1.298 . S
N80 N81 1.398 . S
N81 C79 1.299 . S
N81 N80 1.398 . S
N82 C78 1.367 . S
N82 C79 1.379 . S
H83 C86 0.980 . S
H84 C86 0.981 . S
H85 C86 0.981 1_554 S
C86 C78 1.481 . S
C86 H83 0.980 . S
C86 H84 0.981 . S
C86 H85 0.981 1_556 S
C87 C74 1.481 . S
C87 H88 0.980 . S
C87 H89 0.981 . S
C87 H90 0.981 . S
H88 C87 0.980 . S
H89 C87 0.981 . S
H90 C87 0.981 . S
O91 Zn67 2.066 . S
O91 C70 1.256 . S
O92 Zn64 2.053 . S
O92 C70 1.244 . S
C93 O71 1.259 . S
C93 O72 1.254 . S
O94 Zn64 2.066 1_554 S
O94 C66 1.256 . S
O95 C66 1.244 . S
O95 Zn67 2.053 1_554 S
Zn96 O97 2.055 . S
Zn96 O104 2.046 . S
Zn96 N112 2.036 . S
Zn96 O124 2.053 1_554 S
Zn96 O126 2.066 . S
O97 Zn96 2.055 . S
O97 C100 1.259 . S
C98 O126 1.256 . S
C98 O127 1.244 . S
Zn99 O101 2.046 . S
Zn99 O103 2.055 . S
Zn99 N105 2.036 . S
Zn99 O123 2.071 . S
Zn99 O127 2.053 . S
C100 O97 1.259 . S
C100 O101 1.254 . S
O101 Zn99 2.046 . S
O101 C100 1.254 . S
C102 O123 1.254 1_556 S
C102 O124 1.244 . S
O103 Zn99 2.055 . S
O103 C125 1.259 . S
O104 Zn96 2.046 . S
O104 C125 1.254 . S
N105 Zn99 2.036 . S
N105 C106 1.298 . S
N105 N108 1.398 . S
C106 N105 1.298 . S
C106 N109 1.367 . S
C106 C119 1.481 . S
C107 N108 1.299 . S
C107 N109 1.379 . S
N108 N105 1.398 . S
N108 C107 1.299 . S
N109 C106 1.367 . S
N109 C107 1.379 . S
C110 N112 1.298 . S
C110 N114 1.367 . S
C110 C118 1.481 . S
C111 N113 1.299 . S
C111 N114 1.379 . S
N112 Zn96 2.036 . S
N112 C110 1.298 . S
N112 N113 1.398 . S
N113 C111 1.299 . S
N113 N112 1.398 . S
N114 C110 1.367 . S
N114 C111 1.379 . S
H115 C118 0.980 . S
H116 C118 0.981 . S
H117 C118 0.981 . S
C118 C110 1.481 . S
C118 H115 0.980 . S
C118 H116 0.981 . S
C118 H117 0.981 . S
C119 C106 1.481 . S
C119 H120 0.980 . S
C119 H121 0.981 . S
C119 H122 0.981 . S
H120 C119 0.980 . S
H121 C119 0.981 . S
H122 C119 0.981 . S
O123 Zn99 2.071 . S
O123 C102 1.254 1_554 S
O124 Zn96 2.053 1_556 S
O124 C102 1.244 . S
C125 O103 1.259 . S
C125 O104 1.254 . S
O126 Zn96 2.066 . S
O126 C98 1.256 . S
O127 C98 1.244 . S
O127 Zn99 2.053 . S
C128 C129 1.387 . S
C128 H132 0.950 . S
C128 C137 1.390 . S
C129 C128 1.387 . S
C129 C131 1.387 1_455 S
H130 C137 0.950 . S
C131 C129 1.387 1_655 S
C131 C133 1.390 . S
C131 H135 0.950 . S
H132 C128 0.950 . S
C133 C131 1.390 . S
C133 C134 1.387 1_655 S
C133 H136 0.950 . S
C134 C133 1.387 1_455 S
C134 C137 1.387 . S
H135 C131 0.950 . S
H136 C133 0.950 . S
C137 C128 1.390 . S
C137 H130 0.950 . S
C137 C134 1.387 . S
C138 C139 1.387 . S
C138 H142 0.950 . S
C138 C147 1.390 . S
C139 C138 1.387 . S
C139 C141 1.387 . S
H140 C147 0.950 . S
C141 C139 1.387 . S
C141 C143 1.390 . S
C141 H145 0.950 . S
H142 C138 0.950 . S
C143 C141 1.390 . S
C143 C144 1.387 . S
C143 H146 0.950 . S
C144 C143 1.387 . S
C144 C147 1.387 . S
H145 C141 0.950 . S
H146 C143 0.950 . S
C147 C138 1.390 . S
C147 H140 0.950 . S
C147 C144 1.387 . S
C148 C149 1.387 . S
C148 H152 0.950 . S
C148 C157 1.390 1_554 S
C149 C148 1.387 . S
C149 C151 1.387 1_554 S
H150 C157 0.950 1_554 S
C151 C149 1.387 1_556 S
C151 C153 1.390 . S
C151 H155 0.950 . S
H152 C148 0.950 . S
C153 C151 1.390 . S
C153 C154 1.387 . S
C153 H156 0.950 . S
C154 C153 1.387 . S
C154 C157 1.387 . S
H155 C151 0.950 . S
H156 C153 0.950 . S
C157 C148 1.390 1_556 S
C157 H150 0.950 1_556 S
C157 C154 1.387 . S
C158 C159 1.387 . S
C158 H162 0.950 . S
C158 C167 1.390 . S
C159 C158 1.387 . S
C159 C161 1.387 . S
H160 C167 0.950 . S
C161 C159 1.387 . S
C161 C163 1.390 . S
C161 H165 0.950 . S
H162 C158 0.950 . S
C163 C161 1.390 . S
C163 C164 1.387 . S
C163 H166 0.950 . S
C164 C163 1.387 . S
C164 C167 1.387 . S
H165 C161 0.950 . S
H166 C163 0.950 . S
C167 C158 1.390 . S
C167 H160 0.950 . S
C167 C164 1.387 . S
C168 C169 1.387 . S
C168 H172 0.950 . S
C168 C177 1.390 . S
C169 C168 1.387 . S
C169 C171 1.387 . S
H170 C177 0.950 . S
C171 C169 1.387 . S
C171 C173 1.390 . S
C171 H175 0.950 . S
H172 C168 0.950 . S
C173 C171 1.390 . S
C173 C174 1.387 . S
C173 H176 0.950 . S
C174 C173 1.387 . S
C174 C177 1.387 . S
H175 C171 0.950 . S
H176 C173 0.950 . S
C177 C168 1.390 . S
C177 H170 0.950 . S
C177 C174 1.387 . S
C178 C179 1.387 . S
C178 H182 0.950 . S
C178 C187 1.390 . S
C179 C178 1.387 . S
C179 C181 1.387 . S
H180 C187 0.950 . S
C181 C179 1.387 . S
C181 C183 1.390 . S
C181 H185 0.950 . S
H182 C178 0.950 . S
C183 C181 1.390 . S
C183 C184 1.387 . S
C183 H186 0.950 . S
C184 C183 1.387 . S
C184 C187 1.387 . S
H185 C181 0.950 . S
H186 C183 0.950 . S
C187 C178 1.390 . S
C187 H180 0.950 . S
C187 C184 1.387 . S
C188 C189 1.387 1_554 S
C188 H192 0.950 . S
C188 C197 1.390 1_565 S
C189 C188 1.387 1_556 S
C189 C191 1.387 . S
H190 C197 0.950 . S
C191 C189 1.387 . S
C191 C193 1.390 1_566 S
C191 H195 0.950 . S
H192 C188 0.950 . S
C193 C191 1.390 1_544 S
C193 C194 1.387 . S
C193 H196 0.950 . S
C194 C193 1.387 . S
C194 C197 1.387 . S
H195 C191 0.950 . S
H196 C193 0.950 . S
C197 C188 1.390 1_545 S
C197 H190 0.950 . S
C197 C194 1.387 . S
C198 C199 1.387 1_655 S
C198 H202 0.950 . S
C198 C207 1.390 1_655 S
C199 C198 1.387 1_455 S
C199 C201 1.387 . S
H200 C207 0.966 1_655 S
C201 C199 1.387 . S
C201 C203 1.390 . S
C201 H205 0.950 . S
H202 C198 0.950 . S
C203 C201 1.390 . S
C203 C204 1.387 . S
C203 H206 0.950 . S
C204 C203 1.387 . S
C204 C207 1.387 . S
H205 C201 0.950 . S
H206 C203 0.950 . S
C207 C198 1.390 1_455 S
C207 H200 0.966 1_455 S
C207 C204 1.387 . S
C208 C209 1.387 . S
C208 H212 0.950 . S
C208 C217 1.390 . S
C209 C208 1.387 . S
C209 C211 1.387 . S
H210 C217 0.950 . S
C211 C209 1.387 . S
C211 C213 1.390 . S
C211 H215 0.950 . S
H212 C208 0.950 . S
C213 C211 1.390 . S
C213 C214 1.387 . S
C213 H216 0.950 . S
C214 C213 1.387 . S
C214 C217 1.387 . S
H215 C211 0.950 . S
H216 C213 0.950 . S
C217 C208 1.390 . S
C217 H210 0.950 . S
C217 C214 1.387 . S
C218 C219 1.387 1_655 S
C218 H222 0.950 . S
C218 C227 1.390 1_556 S
C219 C218 1.387 1_455 S
C219 C221 1.387 1_556 S
H220 C227 0.950 . S
C221 C219 1.387 1_554 S
C221 C223 1.390 . S
C221 H225 0.950 1_554 S
H222 C218 0.950 . S
C223 C221 1.390 . S
C223 C224 1.387 . S
C223 H226 0.950 . S
C224 C223 1.387 . S
C224 C227 1.387 1_455 S
H225 C221 0.950 1_556 S
H226 C223 0.950 . S
C227 C218 1.390 1_554 S
C227 H220 0.950 . S
C227 C224 1.387 1_655 S
C228 C229 1.387 . S
C228 H232 0.950 . S
C228 C237 1.390 . S
C229 C228 1.387 . S
C229 C231 1.387 . S
H230 C237 0.950 . S
C231 C229 1.387 . S
C231 C233 1.390 . S
C231 H235 0.950 . S
H232 C228 0.950 . S
C233 C231 1.390 . S
C233 C234 1.387 . S
C233 H236 0.950 . S
C234 C233 1.387 . S
C234 C237 1.387 . S
H235 C231 0.950 . S
H236 C233 0.950 . S
C237 C228 1.390 . S
C237 H230 0.950 . S
C237 C234 1.387 . S
C238 C239 1.387 . S
C238 H242 0.950 . S
C238 C247 1.390 . S
C239 C238 1.387 . S
C239 C241 1.387 . S
H240 C247 0.950 . S
C241 C239 1.387 . S
C241 C243 1.390 . S
C241 H245 0.950 . S
H242 C238 0.950 . S
C243 C241 1.390 . S
C243 C244 1.387 . S
C243 H246 0.950 . S
C244 C243 1.387 . S
C244 C247 1.387 . S
H245 C241 0.950 . S
H246 C243 0.950 . S
C247 C238 1.390 . S
C247 H240 0.950 . S
C247 C244 1.387 . S
C129 N18 2.302 . S
C134 C36 2.249 . S
C139 C70 1.301 . S
C144 N50 1.331 . S
C149 N109 1.320 . S
C154 N77 1.117 . S
C159 C4 2.122 . S
C164 C125 2.120 . S
C169 C98 2.607 . S
C174 C6 2.606 . S
C179 C68 0.988 . S
C184 N45 0.943 . S
C189 N82 1.240 . S
C194 N114 1.039 . S
C199 C38 2.509 . S
C204 N13 2.330 1_565 S
C209 C29 1.156 1_556 S
C214 C2 1.162 . S
C219 C34 1.169 . S
C224 C61 1.160 . S
C229 C66 1.163 . S
C234 C93 1.158 . S
C239 C100 1.157 . S
C244 C102 1.163 . S
