# Generated by pormake.
# Topology qtz, (4)-cn, num edge types: 1
# Building blocks:
#     Node 0, Type 0, BuildingBlock: QUQFOY_clean_sbu_3, # of connection points: 4
#     Node 1, Type 0, BuildingBlock: QUQFOY_clean_sbu_3, # of connection points: 4
#     Node 2, Type 0, BuildingBlock: QUQFOY_clean_sbu_3, # of connection points: 4
#     Edge 3, Type (0, 0), BuildingBlock: FUNLAD_clean_linker_1, # of connection points: 2
#     Edge 4, Type (0, 0), BuildingBlock: FUNLAD_clean_linker_1, # of connection points: 2
#     Edge 5, Type (0, 0), BuildingBlock: FUNLAD_clean_linker_1, # of connection points: 2
#     Edge 6, Type (0, 0), BuildingBlock: FUNLAD_clean_linker_1, # of connection points: 2
#     Edge 7, Type (0, 0), BuildingBlock: FUNLAD_clean_linker_1, # of connection points: 2
#     Edge 8, Type (0, 0), BuildingBlock: FUNLAD_clean_linker_1, # of connection points: 2
# Relax obj value: 0.008
# Max RMSD: 0.055
# Mean RMSD: 0.047
data_MOF--net-qtz--node1-QUQFOY_clean_sbu_3--edge1-FUNLAD_clean_linker_1
_symmetry_space_group_name_H-M    P1
_symmetry_Int_Tables_number       1
_symmetry_cell_setting            triclinic
loop_
_symmetry_equiv_pos_as_xyz
'x, y, z'
_cell_length_a     25.604064
_cell_length_b     24.666972
_cell_length_c     30.96531
_cell_angle_alpha  90.225309
_cell_angle_beta   91.21097
_cell_angle_gamma 122.07592
loop_
_atom_site_label
_atom_site_type_symbol
_atom_site_fract_x
_atom_site_fract_y
_atom_site_fract_z
_atom_type_partial_charge
C0 C 0.91348 0.53706 0.10768 0.0
O1 O 0.916 0.56745 0.14165 0.0
Cd2 Cd 0.97508 0.57386 0.20462 0.0
O3 O 0.94365 0.50958 0.10539 0.0
Cd4 Cd 0.01694 0.49338 0.14803 0.0
C5 C 0.91151 0.41301 0.22418 0.0
O6 O 0.07356 0.60104 0.17924 0.0
O7 O 0.09832 0.53604 0.20448 0.0
O8 O 0.06057 0.50809 0.07732 0.0
C9 C 0.1075 0.59183 0.20448 0.0
O10 O 0.9198 0.46707 0.23475 0.0
C11 C 0.07317 0.46505 0.08036 0.0
O12 O 0.9387 0.40721 0.19216 0.0
O13 O 0.05897 0.43349 0.11507 0.0
C14 C 0.42017 0.08263 0.52803 0.0
O15 O 0.38691 0.06627 0.49373 0.0
Cd16 Cd 0.39676 0.00933 0.4346 0.0
O17 O 0.45875 0.06554 0.5343 0.0
Cd18 Cd 0.49222 -0.00136 0.49907 0.0
C19 C 0.55316 0.1022 0.41674 0.0
O20 O 0.39414 0.91903 0.46463 0.0
O21 O 0.47382 0.91656 0.44615 0.0
O22 O 0.48309 0.94631 0.56705 0.0
C23 C 0.41623 0.89258 0.44273 0.0
O24 O 0.49797 0.08253 0.40463 0.0
C25 C 0.53816 0.95924 0.56875 0.0
O26 O 0.56494 0.08187 0.45109 0.0
O27 O 0.57309 0.99245 0.53849 0.0
C28 C 0.63622 0.55908 0.86944 0.0
O29 O 0.66699 0.59385 0.83822 0.0
Cd30 Cd 0.61732 0.60475 0.77521 0.0
O31 O 0.57771 0.53013 0.86895 0.0
Cd32 Cd 0.49002 0.51601 0.82449 0.0
C33 C 0.5226 0.44561 0.74469 0.0
O34 O 0.54248 0.62691 0.80049 0.0
O35 O 0.45299 0.56085 0.77104 0.0
O36 O 0.45618 0.52118 0.89589 0.0
C37 C 0.49904 0.61754 0.77486 0.0
O38 O 0.56931 0.50109 0.73811 0.0
C39 C 0.40002 0.47797 0.88928 0.0
O40 O 0.48641 0.43564 0.77548 0.0
O41 O 0.38469 0.45078 0.85222 0.0
H42 H 0.37352 0.4826 0.95544 0.0
C43 C 0.35525 0.46369 0.92312 0.0
H44 H 0.27539 0.41717 0.88252 0.0
H45 H 0.0858 0.30616 0.0347 0.0
H46 H 0.06644 0.20879 -0.00048 0.0
H47 H 0.13276 0.2131 0.94128 0.0
H48 H 0.21844 0.31485 0.91745 0.0
C49 C 0.29462 0.43623 0.91461 0.0
C50 C 0.25296 0.43362 0.94861 0.0
C51 C 0.20361 0.37373 0.96252 0.0
C52 C 0.16593 0.37117 -0.00338 0.0
C53 C 0.1162 0.3108 0.00928 0.0
C54 C 0.10457 0.25455 0.98936 0.0
C55 C 0.14191 0.25699 0.95654 0.0
C56 C 0.19093 0.31572 0.94317 0.0
H57 H 0.11027 0.4802 0.0153 0.0
C58 C 0.106 0.45592 0.04548 0.0
H59 H 0.13321 0.4015 0.08098 0.0
H60 H 0.33427 0.55723 0.9237 0.0
H61 H 0.35836 0.65399 0.96195 0.0
H62 H 0.30409 0.64862 0.02823 0.0
H63 H 0.22375 0.5466 0.0554 0.0
C64 C 0.1368 0.42615 0.05113 0.0
C65 C 0.1783 0.42844 0.01715 0.0
C66 C 0.22889 0.48828 0.00404 0.0
C67 C 0.26396 0.49106 0.96824 0.0
C68 C 0.30927 0.55192 0.95269 0.0
C69 C 0.32312 0.60799 0.97405 0.0
C70 C 0.29232 0.605 0.01117 0.0
C71 C 0.24577 0.54603 0.02614 0.0
H72 H 0.86792 0.31185 0.24337 0.0
C73 C 0.86982 0.35626 0.24964 0.0
H74 H 0.83693 0.40334 0.28685 0.0
H75 H 0.62206 0.09811 0.31825 0.0
H76 H 0.6043 0.08706 0.24054 0.0
H77 H 0.67076 0.17633 0.19275 0.0
H78 H 0.75622 0.2761 0.22216 0.0
C79 C 0.83413 0.35862 0.27992 0.0
C80 C 0.79368 0.30349 0.30769 0.0
C81 C 0.74203 0.24667 0.28978 0.0
C82 C 0.70118 0.1968 0.31748 0.0
C83 C 0.65244 0.13878 0.29879 0.0
C84 C 0.64204 0.1316 0.25423 0.0
C85 C 0.67963 0.18173 0.22733 0.0
C86 C 0.72898 0.23872 0.24469 0.0
H87 H 0.59235 0.17276 0.36507 0.0
C88 C 0.60342 0.14862 0.38954 0.0
H89 H 0.67254 0.13568 0.41641 0.0
H90 H 0.89197 0.40278 0.35213 0.0
H91 H 0.90807 0.41416 0.42992 0.0
H92 H 0.83318 0.33075 0.47805 0.0
H93 H 0.74213 0.23519 0.44868 0.0
C94 C 0.66062 0.1593 0.39213 0.0
C95 C 0.70934 0.20576 0.36301 0.0
C96 C 0.76222 0.26132 0.38079 0.0
C97 C 0.80469 0.30999 0.35307 0.0
C98 C 0.85751 0.36484 0.37168 0.0
C99 C 0.86747 0.3719 0.4163 0.0
C100 C 0.82536 0.32491 0.44339 0.0
C101 C 0.77324 0.27023 0.42605 0.0
H102 H 0.60636 0.94346 0.60165 0.0
C103 C 0.55931 0.93258 0.60238 0.0
H104 H 0.47309 0.87982 0.63219 0.0
H105 H 0.57787 0.69378 0.67718 0.0
H106 H 0.57517 0.67674 0.5997 0.0
H107 H 0.55261 0.73921 0.54913 0.0
H108 H 0.53398 0.8197 0.57553 0.0
C109 C 0.51996 0.89032 0.63078 0.0
C110 C 0.53738 0.85503 0.66054 0.0
C111 C 0.54642 0.80679 0.64422 0.0
C112 C 0.55641 0.76858 0.67333 0.0
C113 C 0.56771 0.72241 0.65642 0.0
C114 C 0.56667 0.71241 0.61204 0.0
C115 C 0.5542 0.74774 0.58359 0.0
C116 C 0.54397 0.79425 0.59927 0.0
H117 H 0.46485 0.65528 0.72515 0.0
C118 C 0.50311 0.66826 0.74763 0.0
H119 H 0.59046 0.74314 0.77133 0.0
H120 H 0.52718 0.94689 0.7021 0.0
H121 H 0.52918 0.96286 0.77973 0.0
H122 H 0.54276 0.89376 0.83013 0.0
H123 H 0.55473 0.80841 0.80323 0.0
C124 C 0.5523 0.72844 0.74845 0.0
C125 C 0.55415 0.77637 0.7185 0.0
C126 C 0.54809 0.82642 0.73477 0.0
C127 C 0.53968 0.86583 0.70573 0.0
C128 C 0.53306 0.91514 0.72279 0.0
C129 C 0.53427 0.92491 0.76724 0.0
C130 C 0.54196 0.88602 0.79562 0.0
C131 C 0.54872 0.8372 0.77977 0.0
H132 H 0.63981 0.528 0.93534 0.0
C133 C 0.66758 0.55262 0.90761 0.0
H134 H 0.75696 0.6015 0.88224 0.0
H135 H 0.89788 0.682 0.06289 0.0
H136 H 0.92655 0.78464 0.03317 0.0
H137 H 0.87805 0.79102 0.9653 0.0
H138 H 0.80113 0.69479 0.92649 0.0
C139 C 0.7283 0.57559 0.9093 0.0
C140 C 0.75854 0.57112 0.94951 0.0
C141 C 0.80288 0.62794 0.97207 0.0
C142 C 0.82989 0.62423 0.01165 0.0
C143 C 0.87507 0.68182 0.03304 0.0
C144 C 0.89209 0.74117 0.01631 0.0
C145 C 0.86485 0.74477 0.97808 0.0
C146 C 0.82076 0.68904 0.95609 0.0
H147 H 0.88151 0.51398 0.03972 0.0
C148 C 0.87772 0.53541 0.06931 0.0
H149 H 0.83943 0.58368 0.0984 0.0
H150 H 0.68239 0.45304 0.91121 0.0
H151 H 0.64944 0.35025 0.94272 0.0
H152 H 0.68754 0.34377 0.01518 0.0
H153 H 0.7601 0.44006 0.05592 0.0
C154 C 0.84236 0.56057 0.0694 0.0
C155 C 0.81189 0.56371 0.02887 0.0
C156 C 0.76666 0.50684 0.0067 0.0
C157 C 0.74163 0.51056 0.96622 0.0
C158 C 0.70031 0.45306 0.94314 0.0
C159 C 0.68141 0.39367 0.96069 0.0
C160 C 0.70308 0.39003 0.00137 0.0
C161 C 0.74517 0.44575 0.02427 0.0
H162 H 0.40073 0.82046 0.39355 0.0
C163 C 0.37886 0.8415 0.41066 0.0
H164 H 0.29772 0.84314 0.41729 0.0
H165 H 0.27234 0.71729 0.2209 0.0
H166 H 0.35893 0.82208 0.20302 0.0
H167 H 0.41104 0.90748 0.25878 0.0
H168 H 0.37774 0.88812 0.33281 0.0
C169 C 0.32063 0.82334 0.40011 0.0
C170 C 0.28543 0.77456 0.36548 0.0
C171 C 0.3038 0.78789 0.32191 0.0
C172 C 0.27172 0.73984 0.28932 0.0
C173 C 0.29334 0.75296 0.24658 0.0
C174 C 0.34328 0.81279 0.23591 0.0
C175 C 0.37277 0.86077 0.26733 0.0
C176 C 0.35343 0.8488 0.30983 0.0
H177 H 0.15304 0.68735 0.23545 0.0
C178 C 0.14992 0.64163 0.23582 0.0
H179 H 0.17776 0.58494 0.26743 0.0
H180 H 0.23827 0.73394 0.44573 0.0
H181 H 0.14882 0.6307 0.463 0.0
H182 H 0.0901 0.54905 0.4059 0.0
H183 H 0.12076 0.5699 0.33128 0.0
C184 C 0.1823 0.63125 0.26566 0.0
C185 C 0.21928 0.67991 0.29998 0.0
C186 C 0.20045 0.66692 0.34341 0.0
C187 C 0.23369 0.71429 0.37622 0.0
C188 C 0.2143 0.6999 0.41943 0.0
C189 C 0.16305 0.6408 0.42982 0.0
C190 C 0.13004 0.59482 0.39768 0.0
C191 C 0.14824 0.60743 0.35495 0.0
H192 H 0.54725 0.40351 0.6925 0.0
C193 C 0.51159 0.39319 0.71541 0.0
H194 H 0.42348 0.32319 0.7374 0.0
H195 H 0.47338 0.24431 0.54017 0.0
H196 H 0.47321 0.33703 0.51528 0.0
H197 H 0.45852 0.40475 0.56617 0.0
H198 H 0.44607 0.38105 0.64256 0.0
C199 C 0.45942 0.33508 0.71444 0.0
C200 C 0.45135 0.28528 0.68281 0.0
C201 C 0.45342 0.29673 0.63781 0.0
C202 C 0.45706 0.25488 0.60808 0.0
C203 C 0.46615 0.2717 0.56393 0.0
C204 C 0.46684 0.32535 0.5492 0.0
C205 C 0.45893 0.36367 0.57786 0.0
C206 C 0.45236 0.34982 0.62167 0.0
H207 H 0.37719 0.13167 0.55592 0.0
C208 C 0.41473 0.12349 0.56015 0.0
H209 H 0.49397 0.14557 0.59727 0.0
H210 H 0.44239 0.24663 0.76655 0.0
H211 H 0.43392 0.14909 0.79112 0.0
H212 H 0.43261 0.07232 0.73914 0.0
H213 H 0.44046 0.09293 0.6623 0.0
C214 C 0.45668 0.15396 0.59237 0.0
C215 C 0.45301 0.19842 0.62306 0.0
C216 C 0.44691 0.18491 0.66781 0.0
C217 C 0.44651 0.22861 0.69775 0.0
C218 C 0.44227 0.21482 0.74235 0.0
C219 C 0.43737 0.15897 0.75692 0.0
C220 C 0.43669 0.11577 0.72765 0.0
C221 C 0.44138 0.1283 0.68361 0.0
loop_
_geom_bond_atom_site_label_1
_geom_bond_atom_site_label_2
_geom_bond_distance
_geom_bond_site_symmetry_2
_ccdc_geom_bond_type
C0 O1 1.306 . S
C0 O3 1.160 . S
O1 C0 1.306 . S
O1 Cd2 2.228 . S
Cd2 O1 2.228 . S
Cd2 O6 2.273 1_655 S
Cd2 O10 2.277 . S
O3 C0 1.160 . S
O3 Cd4 2.203 1_655 S
Cd4 O3 2.203 1_455 S
Cd4 O6 2.411 . S
Cd4 O7 2.333 . S
Cd4 O8 2.352 . S
Cd4 O12 2.277 1_455 S
Cd4 O13 2.356 . S
C5 O10 1.209 . S
C5 O12 1.226 . S
O6 Cd2 2.273 1_455 S
O6 Cd4 2.411 . S
O6 C9 1.320 . S
O7 Cd4 2.333 . S
O7 C9 1.214 . S
O8 Cd4 2.352 . S
O8 C11 1.258 . S
C9 O6 1.320 . S
C9 O7 1.214 . S
O10 Cd2 2.277 . S
O10 C5 1.209 . S
C11 O8 1.258 . S
C11 O13 1.282 . S
O12 Cd4 2.277 1_655 S
O12 C5 1.226 . S
O13 Cd4 2.356 . S
O13 C11 1.282 . S
C14 O15 1.306 . S
C14 O17 1.160 . S
O15 C14 1.306 . S
O15 Cd16 2.228 . S
Cd16 O15 2.228 . S
Cd16 O20 2.273 1_545 S
Cd16 O24 2.277 . S
O17 C14 1.160 . S
O17 Cd18 2.203 . S
Cd18 O17 2.203 . S
Cd18 O20 2.411 1_545 S
Cd18 O21 2.333 1_545 S
Cd18 O22 2.352 1_545 S
Cd18 O26 2.277 . S
Cd18 O27 2.356 1_545 S
C19 O24 1.209 . S
C19 O26 1.226 . S
O20 Cd16 2.273 1_565 S
O20 Cd18 2.411 1_565 S
O20 C23 1.320 . S
O21 Cd18 2.333 1_565 S
O21 C23 1.214 . S
O22 Cd18 2.352 1_565 S
O22 C25 1.258 . S
C23 O20 1.320 . S
C23 O21 1.214 . S
O24 Cd16 2.277 . S
O24 C19 1.209 . S
C25 O22 1.258 . S
C25 O27 1.282 . S
O26 Cd18 2.277 . S
O26 C19 1.226 . S
O27 Cd18 2.356 1_565 S
O27 C25 1.282 . S
C28 O29 1.306 . S
C28 O31 1.160 . S
O29 C28 1.306 . S
O29 Cd30 2.228 . S
Cd30 O29 2.228 . S
Cd30 O34 2.273 . S
Cd30 O38 2.277 . S
O31 C28 1.160 . S
O31 Cd32 2.203 . S
Cd32 O31 2.203 . S
Cd32 O34 2.411 . S
Cd32 O35 2.333 . S
Cd32 O36 2.352 . S
Cd32 O40 2.277 . S
Cd32 O41 2.356 . S
C33 O38 1.209 . S
C33 O40 1.226 . S
O34 Cd30 2.273 . S
O34 Cd32 2.411 . S
O34 C37 1.320 . S
O35 Cd32 2.333 . S
O35 C37 1.214 . S
O36 Cd32 2.352 . S
O36 C39 1.258 . S
C37 O34 1.320 . S
C37 O35 1.214 . S
O38 Cd30 2.277 . S
O38 C33 1.209 . S
C39 O36 1.258 . S
C39 O41 1.282 . S
O40 Cd32 2.277 . S
O40 C33 1.226 . S
O41 Cd32 2.356 . S
O41 C39 1.282 . S
H42 C43 0.951 . S
C43 H42 0.951 . S
C43 C49 1.265 . S
H44 C49 0.950 . S
H45 C53 0.949 . S
H46 C54 0.950 . S
H47 C55 0.951 . S
H48 C56 0.951 . S
C49 C43 1.265 . S
C49 H44 0.950 . S
C49 C50 1.478 . S
C50 C49 1.478 . S
C50 C51 1.397 . S
C50 C67 1.394 . S
C51 C50 1.397 . S
C51 C52 1.438 1_556 S
C51 C56 1.429 . S
C52 C51 1.438 1_554 S
C52 C53 1.428 . S
C52 C65 1.394 . S
C53 H45 0.949 . S
C53 C52 1.428 . S
C53 C54 1.345 1_554 S
C54 H46 0.950 . S
C54 C53 1.345 1_556 S
C54 C55 1.424 . S
C55 H47 0.951 . S
C55 C54 1.424 . S
C55 C56 1.347 . S
C56 H48 0.951 . S
C56 C51 1.429 . S
C56 C55 1.347 . S
H57 C58 0.951 . S
C58 H57 0.951 . S
C58 C64 1.265 . S
H59 C64 0.950 . S
H60 C68 0.949 . S
H61 C69 0.950 . S
H62 C70 0.951 . S
H63 C71 0.951 . S
C64 C58 1.265 . S
C64 H59 0.950 . S
C64 C65 1.478 . S
C65 C52 1.394 . S
C65 C64 1.478 . S
C65 C66 1.397 . S
C66 C65 1.397 . S
C66 C67 1.438 1_554 S
C66 C71 1.429 . S
C67 C50 1.394 . S
C67 C66 1.438 1_556 S
C67 C68 1.428 . S
C68 H60 0.949 . S
C68 C67 1.428 . S
C68 C69 1.345 1_556 S
C69 H61 0.950 . S
C69 C68 1.345 1_554 S
C69 C70 1.424 . S
C70 H62 0.951 . S
C70 C69 1.424 . S
C70 C71 1.347 . S
C71 H63 0.951 . S
C71 C66 1.429 . S
C71 C70 1.347 . S
H72 C73 0.951 . S
C73 H72 0.951 . S
C73 C79 1.265 . S
H74 C79 0.950 . S
H75 C83 0.949 . S
H76 C84 0.950 . S
H77 C85 0.951 . S
H78 C86 0.951 . S
C79 C73 1.265 . S
C79 H74 0.950 . S
C79 C80 1.478 . S
C80 C79 1.478 . S
C80 C81 1.397 . S
C80 C97 1.394 . S
C81 C80 1.397 . S
C81 C82 1.438 . S
C81 C86 1.429 . S
C82 C81 1.438 . S
C82 C83 1.428 . S
C82 C95 1.394 . S
C83 H75 0.949 . S
C83 C82 1.428 . S
C83 C84 1.345 . S
C84 H76 0.950 . S
C84 C83 1.345 . S
C84 C85 1.424 . S
C85 H77 0.951 . S
C85 C84 1.424 . S
C85 C86 1.347 . S
C86 H78 0.951 . S
C86 C81 1.429 . S
C86 C85 1.347 . S
H87 C88 0.951 . S
C88 H87 0.951 . S
C88 C94 1.265 . S
H89 C94 0.950 . S
H90 C98 0.949 . S
H91 C99 0.950 . S
H92 C100 0.951 . S
H93 C101 0.951 . S
C94 C88 1.265 . S
C94 H89 0.950 . S
C94 C95 1.478 . S
C95 C82 1.394 . S
C95 C94 1.478 . S
C95 C96 1.397 . S
C96 C95 1.397 . S
C96 C97 1.438 . S
C96 C101 1.429 . S
C97 C80 1.394 . S
C97 C96 1.438 . S
C97 C98 1.428 . S
C98 H90 0.949 . S
C98 C97 1.428 . S
C98 C99 1.345 . S
C99 H91 0.950 . S
C99 C98 1.345 . S
C99 C100 1.424 . S
C100 H92 0.951 . S
C100 C99 1.424 . S
C100 C101 1.347 . S
C101 H93 0.951 . S
C101 C96 1.429 . S
C101 C100 1.347 . S
H102 C103 0.951 . S
C103 H102 0.951 . S
C103 C109 1.265 . S
H104 C109 0.950 . S
H105 C113 0.949 . S
H106 C114 0.950 . S
H107 C115 0.951 . S
H108 C116 0.951 . S
C109 C103 1.265 . S
C109 H104 0.950 . S
C109 C110 1.478 . S
C110 C109 1.478 . S
C110 C111 1.397 . S
C110 C127 1.394 . S
C111 C110 1.397 . S
C111 C112 1.438 . S
C111 C116 1.429 . S
C112 C111 1.438 . S
C112 C113 1.428 . S
C112 C125 1.394 . S
C113 H105 0.949 . S
C113 C112 1.428 . S
C113 C114 1.345 . S
C114 H106 0.950 . S
C114 C113 1.345 . S
C114 C115 1.424 . S
C115 H107 0.951 . S
C115 C114 1.424 . S
C115 C116 1.347 . S
C116 H108 0.951 . S
C116 C111 1.429 . S
C116 C115 1.347 . S
H117 C118 0.951 . S
C118 H117 0.951 . S
C118 C124 1.265 . S
H119 C124 0.950 . S
H120 C128 0.949 . S
H121 C129 0.950 . S
H122 C130 0.951 . S
H123 C131 0.951 . S
C124 C118 1.265 . S
C124 H119 0.950 . S
C124 C125 1.478 . S
C125 C112 1.394 . S
C125 C124 1.478 . S
C125 C126 1.397 . S
C126 C125 1.397 . S
C126 C127 1.438 . S
C126 C131 1.429 . S
C127 C110 1.394 . S
C127 C126 1.438 . S
C127 C128 1.428 . S
C128 H120 0.949 . S
C128 C127 1.428 . S
C128 C129 1.345 . S
C129 H121 0.950 . S
C129 C128 1.345 . S
C129 C130 1.424 . S
C130 H122 0.951 . S
C130 C129 1.424 . S
C130 C131 1.347 . S
C131 H123 0.951 . S
C131 C126 1.429 . S
C131 C130 1.347 . S
H132 C133 0.951 . S
C133 H132 0.951 . S
C133 C139 1.265 . S
H134 C139 0.950 . S
H135 C143 0.949 . S
H136 C144 0.950 1_554 S
H137 C145 0.951 . S
H138 C146 0.951 . S
C139 C133 1.265 . S
C139 H134 0.950 . S
C139 C140 1.478 . S
C140 C139 1.478 . S
C140 C141 1.397 . S
C140 C157 1.394 . S
C141 C140 1.397 . S
C141 C142 1.438 1_556 S
C141 C146 1.429 . S
C142 C141 1.438 1_554 S
C142 C143 1.428 . S
C142 C155 1.394 . S
C143 H135 0.949 . S
C143 C142 1.428 . S
C143 C144 1.345 1_554 S
C144 H136 0.950 1_556 S
C144 C143 1.345 1_556 S
C144 C145 1.424 . S
C145 H137 0.951 . S
C145 C144 1.424 . S
C145 C146 1.347 . S
C146 H138 0.951 . S
C146 C141 1.429 . S
C146 C145 1.347 . S
H147 C148 0.951 . S
C148 H147 0.951 . S
C148 C154 1.265 . S
H149 C154 0.950 . S
H150 C158 0.949 . S
H151 C159 0.950 1_556 S
H152 C160 0.951 . S
H153 C161 0.951 . S
C154 C148 1.265 . S
C154 H149 0.950 . S
C154 C155 1.478 . S
C155 C142 1.394 . S
C155 C154 1.478 . S
C155 C156 1.397 . S
C156 C155 1.397 . S
C156 C157 1.438 1_554 S
C156 C161 1.429 . S
C157 C140 1.394 . S
C157 C156 1.438 1_556 S
C157 C158 1.428 . S
C158 H150 0.949 . S
C158 C157 1.428 . S
C158 C159 1.345 1_556 S
C159 H151 0.950 1_554 S
C159 C158 1.345 1_554 S
C159 C160 1.424 . S
C160 H152 0.951 . S
C160 C159 1.424 . S
C160 C161 1.347 . S
C161 H153 0.951 . S
C161 C156 1.429 . S
C161 C160 1.347 . S
H162 C163 0.951 . S
C163 H162 0.951 . S
C163 C169 1.265 . S
H164 C169 0.950 . S
H165 C173 0.949 . S
H166 C174 0.950 . S
H167 C175 0.951 . S
H168 C176 0.951 . S
C169 C163 1.265 . S
C169 H164 0.950 . S
C169 C170 1.478 . S
C170 C169 1.478 . S
C170 C171 1.397 . S
C170 C187 1.394 . S
C171 C170 1.397 . S
C171 C172 1.438 . S
C171 C176 1.429 . S
C172 C171 1.438 . S
C172 C173 1.428 . S
C172 C185 1.394 . S
C173 H165 0.949 . S
C173 C172 1.428 . S
C173 C174 1.345 . S
C174 H166 0.950 . S
C174 C173 1.345 . S
C174 C175 1.424 . S
C175 H167 0.951 . S
C175 C174 1.424 . S
C175 C176 1.347 . S
C176 H168 0.951 . S
C176 C171 1.429 . S
C176 C175 1.347 . S
H177 C178 0.951 . S
C178 H177 0.951 . S
C178 C184 1.265 . S
H179 C184 0.950 . S
H180 C188 0.949 . S
H181 C189 0.950 . S
H182 C190 0.951 . S
H183 C191 0.951 . S
C184 C178 1.265 . S
C184 H179 0.950 . S
C184 C185 1.478 . S
C185 C172 1.394 . S
C185 C184 1.478 . S
C185 C186 1.397 . S
C186 C185 1.397 . S
C186 C187 1.438 . S
C186 C191 1.429 . S
C187 C170 1.394 . S
C187 C186 1.438 . S
C187 C188 1.428 . S
C188 H180 0.949 . S
C188 C187 1.428 . S
C188 C189 1.345 . S
C189 H181 0.950 . S
C189 C188 1.345 . S
C189 C190 1.424 . S
C190 H182 0.951 . S
C190 C189 1.424 . S
C190 C191 1.347 . S
C191 H183 0.951 . S
C191 C186 1.429 . S
C191 C190 1.347 . S
H192 C193 0.951 . S
C193 H192 0.951 . S
C193 C199 1.265 . S
H194 C199 0.950 . S
H195 C203 0.949 . S
H196 C204 0.950 . S
H197 C205 0.951 . S
H198 C206 0.951 . S
C199 C193 1.265 . S
C199 H194 0.950 . S
C199 C200 1.478 . S
C200 C199 1.478 . S
C200 C201 1.397 . S
C200 C217 1.394 . S
C201 C200 1.397 . S
C201 C202 1.438 . S
C201 C206 1.429 . S
C202 C201 1.438 . S
C202 C203 1.428 . S
C202 C215 1.394 . S
C203 H195 0.949 . S
C203 C202 1.428 . S
C203 C204 1.345 . S
C204 H196 0.950 . S
C204 C203 1.345 . S
C204 C205 1.424 . S
C205 H197 0.951 . S
C205 C204 1.424 . S
C205 C206 1.347 . S
C206 H198 0.951 . S
C206 C201 1.429 . S
C206 C205 1.347 . S
H207 C208 0.951 . S
C208 H207 0.951 . S
C208 C214 1.265 . S
H209 C214 0.950 . S
H210 C218 0.949 . S
H211 C219 0.950 . S
H212 C220 0.951 . S
H213 C221 0.951 . S
C214 C208 1.265 . S
C214 H209 0.950 . S
C214 C215 1.478 . S
C215 C202 1.394 . S
C215 C214 1.478 . S
C215 C216 1.397 . S
C216 C215 1.397 . S
C216 C217 1.438 . S
C216 C221 1.429 . S
C217 C200 1.394 . S
C217 C216 1.438 . S
C217 C218 1.428 . S
C218 H210 0.949 . S
C218 C217 1.428 . S
C218 C219 1.345 . S
C219 H211 0.950 . S
C219 C218 1.345 . S
C219 C220 1.424 . S
C220 H212 0.951 . S
C220 C219 1.424 . S
C220 C221 1.347 . S
C221 H213 0.951 . S
C221 C216 1.429 . S
C221 C220 1.347 . S
C43 C39 1.414 . S
C58 C11 1.415 . S
C73 C5 1.511 . S
C88 C19 1.503 . S
C103 C25 1.414 . S
C118 C37 1.392 . S
C133 C28 1.430 . S
C148 C0 1.430 . S
C163 C23 1.395 . S
C178 C9 1.425 . S
C193 C33 1.459 . S
C208 C14 1.457 . S
