# Generated by pormake.
# Topology qtz-x, (6)-cn, num edge types: 1
# Building blocks:
#     Node 0, Type 0, BuildingBlock: GEDQOX_clean_sbu_0, # of connection points: 6
#     Node 1, Type 0, BuildingBlock: GEDQOX_clean_sbu_0, # of connection points: 6
#     Node 2, Type 0, BuildingBlock: GEDQOX_clean_sbu_0, # of connection points: 6
#     Edge 3, Type (0, 0), BuildingBlock: EYOCIG_clean_linker_4, # of connection points: 2
#     Edge 4, Type (0, 0), BuildingBlock: EYOCIG_clean_linker_4, # of connection points: 2
#     Edge 5, Type (0, 0), BuildingBlock: EYOCIG_clean_linker_4, # of connection points: 2
#     Edge 6, Type (0, 0), BuildingBlock: EYOCIG_clean_linker_4, # of connection points: 2
#     Edge 7, Type (0, 0), BuildingBlock: EYOCIG_clean_linker_4, # of connection points: 2
#     Edge 8, Type (0, 0), BuildingBlock: EYOCIG_clean_linker_4, # of connection points: 2
#     Edge 9, Type (0, 0), BuildingBlock: EYOCIG_clean_linker_4, # of connection points: 2
#     Edge 10, Type (0, 0), BuildingBlock: EYOCIG_clean_linker_4, # of connection points: 2
#     Edge 11, Type (0, 0), BuildingBlock: EYOCIG_clean_linker_4, # of connection points: 2
# Relax obj value: 0.294
# Max RMSD: 0.300
# Mean RMSD: 0.261
data_MOF--net-qtz-x--node1-GEDQOX_clean_sbu_0--edge1-EYOCIG_clean_linker_4
_symmetry_space_group_name_H-M    P1
_symmetry_Int_Tables_number       1
_symmetry_cell_setting            triclinic
loop_
_symmetry_equiv_pos_as_xyz
'x, y, z'
_cell_length_a     12.062174
_cell_length_b     11.978957
_cell_length_c     44.089469
_cell_angle_alpha  66.190512
_cell_angle_beta   118.51845
_cell_angle_gamma 121.52732
loop_
_atom_site_label
_atom_site_type_symbol
_atom_site_fract_x
_atom_site_fract_y
_atom_site_fract_z
_atom_type_partial_charge
Nd0 Nd 0.2278 0.75675 0.18366 0.0
Nd1 Nd 0.9795 0.6332 0.19053 0.0
C2 C 0.42276 0.93744 0.15785 0.0
C3 C 0.43727 0.96629 0.12414 0.0
C4 C 0.39896 0.06521 0.09635 0.0
C5 C 0.42921 0.10542 0.06595 0.0
C6 C 0.49789 0.04709 0.06349 0.0
C7 C 0.52378 0.93967 0.08934 0.0
C8 C 0.49327 0.89891 0.11971 0.0
C9 C 0.1416 0.48136 0.19323 0.0
C10 C 0.98288 0.7013 0.11042 0.0
C11 C 0.7935 0.47472 0.22326 0.0
C12 C 0.79834 0.43996 0.2607 0.0
C13 C 0.84598 0.34206 0.28621 0.0
C14 C 0.84631 0.30507 0.3208 0.0
C15 C 0.79927 0.36465 0.33103 0.0
C16 C 0.75218 0.46283 0.30604 0.0
C17 C 0.7517 0.50013 0.27125 0.0
C18 C 1.06283 0.90548 0.18065 0.0
C19 C 0.27053 0.68189 0.26034 0.0
O20 O 0.32488 0.96075 0.15597 0.0
O21 O 0.4309 0.8268 0.17996 0.0
O22 O 0.26543 0.56347 0.2083 0.0
O23 O 1.0638 0.54392 0.17397 0.0
O24 O 0.11377 0.76633 0.12564 0.0
O25 O 0.89901 0.6306 0.12954 0.0
O26 O 0.86043 0.43276 0.21737 0.0
O27 O 0.80499 0.5947 0.20472 0.0
O28 O 0.94164 0.82591 0.16352 0.0
O29 O 0.13921 0.84149 0.20085 0.0
O30 O 0.13669 0.61172 0.2475 0.0
O31 O 0.34115 0.7669 0.23984 0.0
H32 H 0.35247 0.11641 0.0988 0.0
H33 H 0.40818 0.18805 1.04567 0.0
H34 H 0.57606 0.8936 0.08717 0.0
H35 H 0.52032 0.81993 0.14033 0.0
H36 H 0.88229 0.29261 0.27943 0.0
H37 H 0.88298 0.22898 0.33959 0.0
H38 H 0.71513 0.51022 0.31332 0.0
H39 H 0.71372 0.57531 0.25254 0.0
Nd40 Nd 0.78497 0.85374 0.56719 0.0
Nd41 Nd 0.98302 0.1372 0.58315 0.0
C42 C 0.69506 0.64732 0.54099 0.0
C43 C 0.64766 0.6377 0.50392 0.0
C44 C 0.74304 0.68727 0.48691 0.0
C45 C 0.69657 0.68555 0.45132 0.0
C46 C 0.55478 0.63493 0.43242 0.0
C47 C 0.45906 0.58416 0.449 0.0
C48 C 0.50512 0.58532 0.48455 0.0
C49 C 0.62054 0.95265 0.56486 0.0
C50 C 0.84156 0.12611 0.50162 0.0
C51 C 0.09951 0.34855 0.60801 0.0
C52 C 0.14747 0.35021 0.64514 0.0
C53 C 1.05298 0.30352 0.66208 0.0
C54 C 0.10147 0.32676 0.69547 0.0
C55 C 0.24348 0.39505 0.71158 0.0
C56 C 0.33807 0.41945 0.69767 0.0
C57 C 0.28997 0.39791 0.66417 0.0
C58 C 0.14283 0.03026 0.58473 0.0
C59 C 0.89016 0.89563 0.64835 0.0
O60 O 0.8268 0.71796 0.55568 0.0
O61 O 0.61595 0.66775 0.5487 0.0
O62 O 0.57443 0.83728 0.55817 0.0
O63 O 0.75125 0.01508 0.57108 0.0
O64 O 0.785 -0.00585 0.5119 0.0
O65 O 0.91739 0.20736 0.5238 0.0
O66 O 0.96535 0.29421 0.59216 0.0
O67 O 0.16888 0.31528 0.60031 0.0
O68 O 0.19093 0.14656 0.59077 0.0
O69 O 1.01332 -0.02658 0.57899 0.0
O70 O 0.9603 0.02211 0.63687 0.0
O71 O 0.82442 0.80412 0.62845 0.0
H72 H 0.85345 0.7292 0.50086 0.0
H73 H 0.77113 0.72571 0.43847 0.0
H74 H 0.34887 0.54546 0.43436 0.0
H75 H 0.42914 0.54715 0.49676 0.0
H76 H 0.94223 0.25889 0.6487 0.0
H77 H 1.028 0.30614 0.7066 0.0
H78 H 0.44838 0.47111 0.71047 0.0
H79 H 0.36436 0.42806 0.6522 0.0
Nd80 Nd 0.11604 0.85296 0.89196 0.0
Nd81 Nd 0.95415 0.01462 0.86895 0.0
C82 C 0.3124 0.82094 0.89154 0.0
C83 C 0.31292 0.78819 0.86286 0.0
C84 C 0.38562 0.89019 0.84027 0.0
C85 C 0.38656 0.86044 0.813 0.0
C86 C 0.31537 0.72875 0.80845 0.0
C87 C 0.23559 0.6284 0.82913 0.0
C88 C 0.2339 0.65784 0.85624 0.0
C89 C 0.84433 0.67407 0.87941 0.0
C90 C 0.94984 0.9353 0.80568 0.0
C91 C 0.81919 0.12122 0.87225 0.0
C92 C 0.81735 0.13761 0.90331 0.0
C93 C 0.753 0.02632 0.92622 0.0
C94 C 0.74142 0.04518 0.9535 0.0
C95 C 0.79469 0.17475 0.95812 0.0
C96 C 0.87055 0.28478 0.93785 0.0
C97 C 0.88188 0.26625 0.91041 0.0
C98 C 0.22723 0.16741 0.87641 0.0
C99 C 1.04928 0.85354 0.95399 0.0
O100 O 0.31533 0.93964 0.88427 0.0
O101 O 0.22676 0.72692 0.90839 0.0
O102 O 0.94465 0.63945 0.89016 0.0
O103 O 0.88994 0.79879 0.87582 0.0
O104 O 1.04502 0.89379 0.83099 0.0
O105 O 0.88715 -0.01902 0.81288 0.0
O106 O 0.75996 -0.00057 0.86706 0.0
O107 O 0.93657 0.19287 0.86656 0.0
O108 O 0.12735 0.19502 0.85027 0.0
O109 O 0.1821 0.06045 0.89782 0.0
O110 O 0.97757 0.92154 0.92831 0.0
O111 O 0.12738 0.82213 0.94837 0.0
H112 H 0.44402 -0.00777 0.84416 0.0
H113 H 0.4474 0.93841 0.79664 0.0
H114 H 0.17919 0.52619 0.82527 0.0
H115 H 0.17315 0.57792 0.87236 0.0
H116 H 0.70647 0.9255 0.92223 0.0
H117 H 0.68355 0.95948 0.96953 0.0
H118 H 0.91273 0.38517 0.94167 0.0
H119 H 0.93584 0.35302 0.8938 0.0
C120 C 0.0952 0.1394 0.18638 0.0
C121 C 0.08573 0.03394 0.18475 0.0
C122 C 0.10299 0.2443 0.18784 0.0
C123 C 0.11472 0.35101 0.18933 0.0
C124 C 0.43717 -0.01056 0.57329 0.0
C125 C 0.53148 -0.01376 0.57032 0.0
C126 C 0.32128 -0.01523 0.57673 0.0
C127 C 0.22815 -0.00918 0.57952 0.0
C128 C 0.4773 0.3646 0.88409 0.0
C129 C 0.36844 0.26761 0.88359 0.0
C130 C 0.59941 0.48234 0.8816 0.0
C131 C 0.70713 0.57736 0.87978 0.0
C132 C 0.6995 0.18681 0.99784 0.0
C133 C 0.75049 0.19434 0.97934 0.0
C134 C 0.62347 0.15295 1.01821 0.0
C135 C 0.56255 0.11058 1.03786 0.0
C136 C 0.81366 0.23062 0.4337 0.0
C137 C 0.82665 0.1834 0.46469 0.0
C138 C 0.80419 0.28306 0.39757 0.0
C139 C 0.79983 0.32362 0.36707 0.0
C140 C 0.89913 0.90454 0.74208 0.0
C141 C 0.91412 0.92297 0.76967 0.0
C142 C 0.8862 0.87939 0.71052 0.0
C143 C 0.87831 0.86846 0.68278 0.0
C144 C 1.00102 0.77044 1.01482 0.0
C145 C 1.02894 0.80436 0.98817 0.0
C146 C 0.96337 0.73098 1.04547 0.0
C147 C 0.94655 0.7038 0.07341 0.0
C148 C 0.3971 0.65206 0.32836 0.0
C149 C 0.33926 0.66581 0.29721 0.0
C150 C 0.45948 0.64277 0.3647 0.0
C151 C 0.50676 0.6408 0.3956 0.0
C152 C 0.33508 0.6323 0.76934 0.0
C153 C 0.33507 0.69039 0.78568 0.0
C154 C 0.31755 0.54672 0.75226 0.0
C155 C 0.28701 0.47856 0.73374 0.0
loop_
_geom_bond_atom_site_label_1
_geom_bond_atom_site_label_2
_geom_bond_distance
_geom_bond_site_symmetry_2
_ccdc_geom_bond_type
Nd0 C2 2.836 . S
Nd0 O20 2.500 . S
Nd0 O21 2.492 . S
Nd0 O22 2.487 . S
Nd0 O23 2.682 1_455 S
Nd0 O24 2.410 1_455 S
Nd0 O29 2.414 . S
Nd0 O31 2.424 . S
Nd1 C11 2.836 . S
Nd1 O23 2.414 . S
Nd1 O25 2.424 . S
Nd1 O26 2.500 . S
Nd1 O27 2.492 . S
Nd1 O28 2.487 . S
Nd1 O29 2.682 1_655 S
Nd1 O30 2.410 1_655 S
C2 Nd0 2.836 . S
C2 C3 1.498 . S
C2 O20 1.258 . S
C2 O21 1.239 . S
C3 C2 1.498 . S
C3 C4 1.366 1_565 S
C3 C8 1.407 . S
C4 C3 1.366 1_545 S
C4 C5 1.392 . S
C4 H32 0.930 . S
C5 C4 1.392 . S
C5 C6 1.398 . S
C5 H33 0.929 1_554 S
C6 C5 1.398 . S
C6 C7 1.352 1_545 S
C7 C6 1.352 1_565 S
C7 C8 1.384 . S
C7 H34 0.930 . S
C8 C3 1.407 . S
C8 C7 1.384 . S
C8 H35 0.929 . S
C9 O22 1.241 . S
C9 O23 1.273 1_455 S
C10 O24 1.251 . S
C10 O25 1.268 . S
C11 Nd1 2.836 . S
C11 C12 1.498 . S
C11 O26 1.258 . S
C11 O27 1.239 . S
C12 C11 1.498 . S
C12 C13 1.366 . S
C12 C17 1.407 . S
C13 C12 1.366 . S
C13 C14 1.392 . S
C13 H36 0.930 . S
C14 C13 1.392 . S
C14 C15 1.398 . S
C14 H37 0.929 . S
C15 C14 1.398 . S
C15 C16 1.352 . S
C16 C15 1.352 . S
C16 C17 1.384 . S
C16 H38 0.930 . S
C17 C12 1.407 . S
C17 C16 1.384 . S
C17 H39 0.929 . S
C18 O28 1.241 . S
C18 O29 1.273 1_655 S
C19 O30 1.251 . S
C19 O31 1.268 . S
O20 Nd0 2.500 . S
O20 C2 1.258 . S
O21 Nd0 2.492 . S
O21 C2 1.239 . S
O22 Nd0 2.487 . S
O22 C9 1.241 . S
O23 Nd0 2.682 1_655 S
O23 Nd1 2.414 . S
O23 C9 1.273 1_655 S
O24 Nd0 2.410 1_655 S
O24 C10 1.251 . S
O25 Nd1 2.424 . S
O25 C10 1.268 . S
O26 Nd1 2.500 . S
O26 C11 1.258 . S
O27 Nd1 2.492 . S
O27 C11 1.239 . S
O28 Nd1 2.487 . S
O28 C18 1.241 . S
O29 Nd0 2.414 . S
O29 Nd1 2.682 1_455 S
O29 C18 1.273 1_455 S
O30 Nd1 2.410 1_455 S
O30 C19 1.251 . S
O31 Nd0 2.424 . S
O31 C19 1.268 . S
H32 C4 0.930 . S
H33 C5 0.929 1_556 S
H34 C7 0.930 . S
H35 C8 0.929 . S
H36 C13 0.930 . S
H37 C14 0.929 . S
H38 C16 0.930 . S
H39 C17 0.929 . S
Nd40 C42 2.836 . S
Nd40 O60 2.500 . S
Nd40 O61 2.492 . S
Nd40 O62 2.487 . S
Nd40 O63 2.682 1_565 S
Nd40 O64 2.405 1_565 S
Nd40 O69 2.414 . S
Nd40 O71 2.424 . S
Nd41 C51 2.836 1_655 S
Nd41 O63 2.414 . S
Nd41 O65 2.424 . S
Nd41 O66 2.500 . S
Nd41 O67 2.492 1_655 S
Nd41 O68 2.487 1_655 S
Nd41 O69 2.682 1_545 S
Nd41 O70 2.406 1_545 S
C42 Nd40 2.836 . S
C42 C43 1.498 . S
C42 O60 1.258 . S
C42 O61 1.239 . S
C43 C42 1.498 . S
C43 C44 1.366 . S
C43 C48 1.407 . S
C44 C43 1.366 . S
C44 C45 1.392 . S
C44 H72 0.930 . S
C45 C44 1.392 . S
C45 C46 1.398 . S
C45 H73 0.929 . S
C46 C45 1.398 . S
C46 C47 1.352 . S
C47 C46 1.352 . S
C47 C48 1.384 . S
C47 H74 0.930 . S
C48 C43 1.407 . S
C48 C47 1.384 . S
C48 H75 0.929 . S
C49 O62 1.241 . S
C49 O63 1.273 1_565 S
C50 O64 1.256 . S
C50 O65 1.268 . S
C51 Nd41 2.836 1_455 S
C51 C52 1.498 . S
C51 O66 1.258 1_455 S
C51 O67 1.239 . S
C52 C51 1.498 . S
C52 C53 1.366 1_455 S
C52 C57 1.407 . S
C53 C52 1.366 1_655 S
C53 C54 1.392 1_655 S
C53 H76 0.930 . S
C54 C53 1.392 1_455 S
C54 C55 1.398 . S
C54 H77 0.929 1_455 S
C55 C54 1.398 . S
C55 C56 1.352 . S
C56 C55 1.352 . S
C56 C57 1.384 . S
C56 H78 0.930 . S
C57 C52 1.407 . S
C57 C56 1.384 . S
C57 H79 0.929 . S
C58 O68 1.241 . S
C58 O69 1.273 1_445 S
C59 O70 1.255 . S
C59 O71 1.268 . S
O60 Nd40 2.500 . S
O60 C42 1.258 . S
O61 Nd40 2.492 . S
O61 C42 1.239 . S
O62 Nd40 2.487 . S
O62 C49 1.241 . S
O63 Nd40 2.682 1_545 S
O63 Nd41 2.414 . S
O63 C49 1.273 1_545 S
O64 Nd40 2.405 1_545 S
O64 C50 1.256 . S
O65 Nd41 2.424 . S
O65 C50 1.268 . S
O66 Nd41 2.500 . S
O66 C51 1.258 1_655 S
O67 Nd41 2.492 1_455 S
O67 C51 1.239 . S
O68 Nd41 2.487 1_455 S
O68 C58 1.241 . S
O69 Nd40 2.414 . S
O69 Nd41 2.682 1_565 S
O69 C58 1.273 1_665 S
O70 Nd41 2.406 1_565 S
O70 C59 1.255 . S
O71 Nd40 2.424 . S
O71 C59 1.268 . S
H72 C44 0.930 . S
H73 C45 0.929 . S
H74 C47 0.930 . S
H75 C48 0.929 . S
H76 C53 0.930 . S
H77 C54 0.929 1_655 S
H78 C56 0.930 . S
H79 C57 0.929 . S
Nd80 C82 2.836 . S
Nd80 O100 2.500 . S
Nd80 O101 2.492 . S
Nd80 O102 2.487 1_455 S
Nd80 O103 2.682 1_455 S
Nd80 O104 2.410 1_455 S
Nd80 O109 2.414 1_565 S
Nd80 O111 2.424 . S
Nd81 C91 2.836 . S
Nd81 O103 2.414 1_545 S
Nd81 O105 2.424 . S
Nd81 O106 2.500 . S
Nd81 O107 2.492 . S
Nd81 O108 2.487 1_655 S
Nd81 O109 2.682 1_655 S
Nd81 O110 2.410 1_655 S
C82 Nd80 2.836 . S
C82 C83 1.498 . S
C82 O100 1.258 . S
C82 O101 1.239 . S
C83 C82 1.498 . S
C83 C84 1.366 . S
C83 C88 1.407 . S
C84 C83 1.366 . S
C84 C85 1.392 . S
C84 H112 0.930 1_565 S
C85 C84 1.392 . S
C85 C86 1.398 . S
C85 H113 0.929 . S
C86 C85 1.398 . S
C86 C87 1.352 . S
C87 C86 1.352 . S
C87 C88 1.384 . S
C87 H114 0.930 . S
C88 C83 1.407 . S
C88 C87 1.384 . S
C88 H115 0.929 . S
C89 O102 1.241 . S
C89 O103 1.273 . S
C90 O104 1.251 1_545 S
C90 O105 1.268 . S
C91 Nd81 2.836 . S
C91 C92 1.498 . S
C91 O106 1.258 . S
C91 O107 1.239 . S
C92 C91 1.498 . S
C92 C93 1.366 . S
C92 C97 1.407 . S
C93 C92 1.366 . S
C93 C94 1.392 . S
C93 H116 0.930 1_545 S
C94 C93 1.392 . S
C94 C95 1.398 . S
C94 H117 0.929 . S
C95 C94 1.398 . S
C95 C96 1.352 . S
C96 C95 1.352 . S
C96 C97 1.384 . S
C96 H118 0.930 . S
C97 C92 1.407 . S
C97 C96 1.384 . S
C97 H119 0.929 . S
C98 O108 1.241 . S
C98 O109 1.273 . S
C99 O110 1.251 1_565 S
C99 O111 1.268 . S
O100 Nd80 2.500 . S
O100 C82 1.258 . S
O101 Nd80 2.492 . S
O101 C82 1.239 . S
O102 Nd80 2.487 1_655 S
O102 C89 1.241 . S
O103 Nd80 2.682 1_655 S
O103 Nd81 2.414 1_565 S
O103 C89 1.273 . S
O104 Nd80 2.410 1_655 S
O104 C90 1.251 1_565 S
O105 Nd81 2.424 . S
O105 C90 1.268 . S
O106 Nd81 2.500 . S
O106 C91 1.258 . S
O107 Nd81 2.492 . S
O107 C91 1.239 . S
O108 Nd81 2.487 1_455 S
O108 C98 1.241 . S
O109 Nd80 2.414 1_545 S
O109 Nd81 2.682 1_455 S
O109 C98 1.273 . S
O110 Nd81 2.410 1_455 S
O110 C99 1.251 1_545 S
O111 Nd80 2.424 . S
O111 C99 1.268 . S
H112 C84 0.930 1_545 S
H113 C85 0.929 . S
H114 C87 0.930 . S
H115 C88 0.929 . S
H116 C93 0.930 1_565 S
H117 C94 0.929 . S
H118 C96 0.930 . S
H119 C97 0.929 . S
C120 C121 1.170 . S
C120 C122 1.380 . S
C121 C120 1.170 . S
C122 C120 1.380 . S
C122 C123 1.170 . S
C123 C122 1.170 . S
C124 C125 1.170 . S
C124 C126 1.380 . S
C125 C124 1.170 . S
C126 C124 1.380 . S
C126 C127 1.170 1_565 S
C127 C126 1.170 1_545 S
C128 C129 1.170 . S
C128 C130 1.380 . S
C129 C128 1.170 . S
C130 C128 1.380 . S
C130 C131 1.170 . S
C131 C130 1.170 . S
C132 C133 1.170 . S
C132 C134 1.380 . S
C133 C132 1.170 . S
C134 C132 1.380 . S
C134 C135 1.170 . S
C135 C134 1.170 . S
C136 C137 1.170 . S
C136 C138 1.380 . S
C137 C136 1.170 . S
C138 C136 1.380 . S
C138 C139 1.170 . S
C139 C138 1.170 . S
C140 C141 1.170 1_565 S
C140 C142 1.380 . S
C141 C140 1.170 1_545 S
C142 C140 1.380 . S
C142 C143 1.170 . S
C143 C142 1.170 . S
C144 C145 1.170 1_655 S
C144 C146 1.379 1_556 S
C145 C144 1.170 1_455 S
C146 C144 1.379 1_554 S
C146 C147 1.171 . S
C147 C146 1.171 . S
C148 C149 1.170 . S
C148 C150 1.380 . S
C149 C148 1.170 . S
C150 C148 1.380 . S
C150 C151 1.170 . S
C151 C150 1.170 . S
C152 C153 1.170 . S
C152 C154 1.380 . S
C153 C152 1.170 . S
C154 C152 1.380 . S
C154 C155 1.170 . S
C155 C154 1.170 . S
C121 C18 1.777 1_545 S
C123 C9 1.817 1_655 S
C125 C49 1.869 . S
C127 C58 1.876 . S
C129 C98 1.507 . S
C131 C89 1.475 . S
C133 C95 1.077 . S
C135 C6 1.082 1_556 S
C137 C50 2.230 . S
C139 C15 2.117 . S
C141 C90 2.713 . S
C143 C59 2.697 . S
C145 C99 2.621 . S
C147 C10 2.499 . S
C149 C19 1.970 . S
C151 C46 1.829 . S
C153 C86 1.011 . S
C155 C55 1.003 . S
