# Generated by pormake.
# Topology pcu, (6)-cn, num edge types: 1
# Building blocks:
#     Node 0, Type 0, BuildingBlock: KUMJIN_clean_sbu_1, # of connection points: 6
#     Edge 1, Type (0, 0), None
#     Edge 2, Type (0, 0), None
#     Edge 3, Type (0, 0), None
# Relax obj value: 0.000
# Max RMSD: 0.000
# Mean RMSD: 0.000
data_MOF--net-pcu--node1-KUMJIN_clean_sbu_1--edge1-none
_symmetry_space_group_name_H-M    P1
_symmetry_Int_Tables_number       1
_symmetry_cell_setting            triclinic
loop_
_symmetry_equiv_pos_as_xyz
'x, y, z'
_cell_length_a     7.1979837
_cell_length_b     17.625216
_cell_length_c     7.0264961
_cell_angle_alpha  103.64733
_cell_angle_beta   90.667863
_cell_angle_gamma 98.387454
loop_
_atom_site_label
_atom_site_type_symbol
_atom_site_fract_x
_atom_site_fract_y
_atom_site_fract_z
_atom_type_partial_charge
Eu0 Eu 0.91245 0.82227 0.86601 0.0
C1 C 0.31648 0.18235 0.15564 0.0
N2 N 0.18509 0.13705 0.23453 0.0
C3 C 0.23163 0.23202 0.54287 0.0
C4 C 0.39816 0.25793 0.26357 0.0
C5 C 0.14268 0.15991 0.42603 0.0
C6 C 0.35928 0.28164 0.46141 0.0
C7 C 0.48492 0.2036 0.87209 0.0
C8 C 0.35992 0.15552 -0.03898 0.0
C9 C 0.53178 0.28381 -0.03386 0.0
C10 C 0.49606 0.31025 0.16411 0.0
Eu11 Eu -0.0135 0.04606 -0.00633 0.0
N12 N 0.27369 0.08396 0.85645 0.0
C13 C 0.55005 0.17033 0.68828 0.0
C14 C 0.33618 0.05055 0.67739 0.0
C15 C 0.48142 0.092 0.59482 0.0
H16 H 0.03099 0.12594 0.48477 0.0
H17 H 0.5314 0.0654 0.45356 0.0
H18 H 0.86788 0.74237 0.37497 0.0
H19 H 0.36749 0.80298 0.40614 0.0
H20 H 0.27894 -0.0082 0.59891 0.0
H21 H 0.64996 0.20462 0.61568 0.0
H22 H 0.61997 0.87655 0.26074 0.0
H23 H 0.19608 0.25088 0.69324 0.0
H24 H 0.59477 0.32576 0.8872 0.0
H25 H 0.53636 0.37177 0.23577 0.0
H26 H 0.70291 0.61738 0.16659 0.0
H27 H 0.41935 0.33936 0.54958 0.0
H28 H 0.24899 0.66372 0.24416 0.0
N29 N 0.71378 0.73126 0.62522 0.0
C30 C 0.5825 0.68594 0.7042 0.0
C31 C 0.66733 0.63625 0.31695 0.0
C32 C 0.50089 0.61034 0.59632 0.0
C33 C 0.75622 0.70839 0.43374 0.0
C34 C 0.53975 0.58663 0.39847 0.0
N35 N 0.6254 0.78431 0.00341 0.0
C36 C 0.56279 0.81779 0.18235 0.0
C37 C 0.41409 0.66471 -0.01222 0.0
C38 C 0.5391 0.71278 0.89883 0.0
C39 C 0.34894 0.698 0.17155 0.0
C40 C 0.41753 0.77635 0.26495 0.0
H41 H 0.47973 0.52889 0.31034 0.0
H42 H 0.36279 0.4965 0.62422 0.0
H43 H 0.30427 0.54256 -0.02725 0.0
O44 O -0.04903 0.72759 0.01528 0.0
O45 O 0.62931 0.87188 0.82521 0.0
O46 O 0.67344 -0.00304 0.02796 0.0
O47 O 0.04407 0.72047 0.72401 0.0
O48 O 0.00534 0.8763 0.19235 0.0
O49 O 0.9088 -0.00179 0.26736 0.0
O50 O 0.94805 0.14071 0.84429 0.0
O51 O 0.26963 -0.00357 0.03446 0.0
O52 O 0.22551 0.87136 0.83171 0.0
O53 O 0.855 0.1479 0.13559 0.0
O54 O 0.89362 -0.00796 0.66732 0.0
O55 O -0.00992 0.87011 0.5923 0.0
C56 C 0.55838 -0.06526 0.92571 0.0
C57 C 0.94778 0.59613 0.80682 0.0
C58 C 0.92078 0.46194 0.87019 0.0
C59 C 0.83185 0.4315 0.68282 0.0
C60 C 0.89976 0.55937 0.61078 0.0
C61 C 0.81956 0.48058 0.55624 0.0
C62 C -0.04688 0.54643 -0.06135 0.0
C63 C -0.044 -0.06358 0.32244 0.0
C64 C 0.01712 0.68363 0.86381 0.0
C65 C 0.40304 0.55803 0.69583 0.0
C66 C 0.36728 0.58449 0.89378 0.0
C67 C 0.34057 0.93357 -0.06603 0.0
C68 C -0.04863 0.27221 0.05261 0.0
C69 C -0.02166 0.40638 -0.01086 0.0
C70 C 0.06743 0.43683 0.17643 0.0
C71 C -0.00043 0.30898 0.2486 0.0
C72 C 0.94591 0.32189 0.92076 0.0
C73 C 0.07983 0.38776 0.30303 0.0
C74 C 0.94292 0.93191 0.53722 0.0
C75 C 0.88196 0.18471 -0.00426 0.0
H76 H 0.78104 0.36951 0.62592 0.0
H77 H 0.92289 0.59139 0.49869 0.0
H78 H 0.76381 0.45619 0.40823 0.0
H79 H -0.00278 0.57427 0.08881 0.0
H80 H 0.11828 0.49882 0.23328 0.0
H81 H -0.02346 0.27698 0.36073 0.0
H82 H 0.90168 0.29404 0.77064 0.0
H83 H 0.13568 0.41218 0.451 0.0
loop_
_geom_bond_atom_site_label_1
_geom_bond_atom_site_label_2
_geom_bond_distance
_geom_bond_site_symmetry_2
_ccdc_geom_bond_type
Eu0 N29 2.600 . S
Eu0 N35 2.562 . S
Eu0 O44 2.462 . S
Eu0 O45 2.373 . S
Eu0 O47 2.432 . S
Eu0 O48 2.291 1_556 S
Eu0 O52 2.335 1_655 S
Eu0 O55 2.372 . S
Eu0 C64 2.787 . S
C1 N2 1.365 . S
C1 C4 1.405 . S
C1 C8 1.448 . S
N2 C1 1.365 . S
N2 C5 1.319 . S
N2 Eu11 2.600 . S
C3 C5 1.397 . S
C3 C6 1.367 . S
C3 H23 0.931 1_556 S
C4 C1 1.405 . S
C4 C6 1.403 . S
C4 C10 1.439 1_655 S
C5 N2 1.319 . S
C5 C3 1.397 . S
C5 H16 0.930 . S
C6 C3 1.367 . S
C6 C4 1.403 . S
C6 H27 0.929 1_556 S
C7 C8 1.430 . S
C7 C9 1.387 1_655 S
C7 C13 1.404 . S
C8 C1 1.448 . S
C8 C7 1.430 . S
C8 N12 1.351 . S
C9 C7 1.387 1_455 S
C9 C10 1.374 . S
C9 H24 0.931 . S
C10 C4 1.439 1_455 S
C10 C9 1.374 . S
C10 H25 0.931 . S
Eu11 N2 2.600 . S
Eu11 N12 2.562 . S
Eu11 O46 2.335 1_455 S
Eu11 O49 2.372 . S
Eu11 O50 2.462 . S
Eu11 O51 2.373 . S
Eu11 O53 2.432 . S
Eu11 O54 2.291 1_554 S
Eu11 C75 2.787 . S
N12 C8 1.351 . S
N12 Eu11 2.562 . S
N12 C14 1.325 1_554 S
C13 C7 1.404 . S
C13 C15 1.366 1_554 S
C13 H21 0.930 1_654 S
C14 N12 1.325 1_556 S
C14 C15 1.416 . S
C14 H20 0.929 . S
C15 C13 1.366 1_556 S
C15 C14 1.416 . S
C15 H17 0.930 . S
H16 C5 0.930 . S
H17 C15 0.930 . S
H18 C33 0.930 . S
H19 C40 0.930 . S
H20 C14 0.929 . S
H21 C13 0.930 1_456 S
H22 C36 0.929 . S
H23 C3 0.931 1_554 S
H24 C9 0.931 . S
H25 C10 0.931 . S
H26 C31 0.931 1_556 S
H27 C6 0.929 1_554 S
H28 C39 0.930 1_654 S
N29 Eu0 2.600 . S
N29 C30 1.365 . S
N29 C33 1.319 . S
C30 N29 1.365 . S
C30 C32 1.405 . S
C30 C38 1.448 . S
C31 H26 0.931 1_554 S
C31 C33 1.397 . S
C31 C34 1.367 . S
C32 C30 1.405 . S
C32 C34 1.403 . S
C32 C65 1.439 1_455 S
C33 H18 0.930 . S
C33 N29 1.319 . S
C33 C31 1.397 . S
C34 C31 1.367 . S
C34 C32 1.403 . S
C34 H41 0.929 1_554 S
N35 Eu0 2.562 . S
N35 C36 1.325 1_556 S
N35 C38 1.351 . S
C36 H22 0.929 . S
C36 N35 1.325 1_554 S
C36 C40 1.416 . S
C37 C38 1.430 . S
C37 C39 1.404 . S
C37 C66 1.387 1_455 S
C38 C30 1.448 . S
C38 N35 1.351 . S
C38 C37 1.430 . S
C39 H28 0.930 1_456 S
C39 C37 1.404 . S
C39 C40 1.366 1_556 S
C40 H19 0.930 . S
C40 C36 1.416 . S
C40 C39 1.366 1_554 S
H41 C34 0.929 1_556 S
H42 C65 0.931 . S
H43 C66 0.931 . S
O44 Eu0 2.462 . S
O44 C64 1.252 . S
O45 Eu0 2.373 . S
O45 C56 1.249 . S
O46 Eu11 2.335 1_655 S
O46 C56 1.263 1_544 S
O47 Eu0 2.432 . S
O47 C64 1.268 . S
O48 Eu0 2.291 1_554 S
O48 C63 1.255 1_565 S
O49 Eu11 2.372 . S
O49 C63 1.257 1_455 S
O50 Eu11 2.462 . S
O50 C75 1.252 . S
O51 Eu11 2.373 . S
O51 C67 1.252 . S
O52 Eu0 2.335 1_455 S
O52 C67 1.262 1_566 S
O53 Eu11 2.432 . S
O53 C75 1.268 . S
O54 Eu11 2.291 1_556 S
O54 C74 1.255 1_545 S
O55 Eu0 2.372 . S
O55 C74 1.257 1_655 S
C56 O45 1.249 . S
C56 O46 1.263 1_566 S
C57 C60 1.382 . S
C57 C62 1.390 . S
C57 C64 1.506 . S
C58 C59 1.398 . S
C58 C62 1.392 . S
C59 C58 1.398 . S
C59 C61 1.372 . S
C59 H76 0.931 . S
C60 C57 1.382 . S
C60 C61 1.390 . S
C60 H77 0.931 . S
C61 C59 1.372 . S
C61 C60 1.390 . S
C61 H78 0.929 . S
C62 C57 1.390 . S
C62 C58 1.392 . S
C62 H79 0.930 1_556 S
C63 O48 1.255 1_545 S
C63 O49 1.257 1_655 S
C64 Eu0 2.787 . S
C64 O44 1.252 . S
C64 O47 1.268 . S
C64 C57 1.506 . S
C65 C32 1.439 1_655 S
C65 H42 0.931 . S
C65 C66 1.374 . S
C66 C37 1.387 1_655 S
C66 H43 0.931 . S
C66 C65 1.374 . S
C67 O51 1.252 . S
C67 O52 1.262 1_544 S
C68 C71 1.382 . S
C68 C72 1.390 . S
C68 C75 1.506 . S
C69 C70 1.398 . S
C69 C72 1.392 . S
C70 C69 1.398 . S
C70 C73 1.372 . S
C70 H80 0.931 . S
C71 C68 1.382 . S
C71 C73 1.390 . S
C71 H81 0.931 . S
C72 C68 1.390 . S
C72 C69 1.392 . S
C72 H82 0.930 1_554 S
C73 C70 1.372 . S
C73 C71 1.390 . S
C73 H83 0.929 . S
C74 O54 1.255 1_565 S
C74 O55 1.257 1_455 S
C75 Eu11 2.787 . S
C75 O50 1.252 . S
C75 O53 1.268 . S
C75 C68 1.506 . S
H76 C59 0.931 . S
H77 C60 0.931 . S
H78 C61 0.929 . S
H79 C62 0.930 1_554 S
H80 C70 0.931 . S
H81 C71 0.931 . S
H82 C72 0.930 1_556 S
H83 C73 0.929 . S
C63 C74 1.500 1_645 S
C67 C56 1.498 1_544 S
C58 C69 1.500 1_656 S
