# Generated by pormake.
# Topology pcu, (6)-cn, num edge types: 1
# Building blocks:
#     Node 0, Type 0, BuildingBlock: BETGAK_clean_sbu_0, # of connection points: 6
#     Edge 1, Type (0, 0), BuildingBlock: ZUJKAS_clean_linker_0, # of connection points: 2
#     Edge 2, Type (0, 0), BuildingBlock: ZUJKAS_clean_linker_0, # of connection points: 2
#     Edge 3, Type (0, 0), BuildingBlock: ZUJKAS_clean_linker_0, # of connection points: 2
# Relax obj value: 0.000
# Max RMSD: 0.000
# Mean RMSD: 0.000
data_MOF--net-pcu--node1-BETGAK_clean_sbu_0--edge1-ZUJKAS_clean_linker_0
_symmetry_space_group_name_H-M    P1
_symmetry_Int_Tables_number       1
_symmetry_cell_setting            triclinic
loop_
_symmetry_equiv_pos_as_xyz
'x, y, z'
_cell_length_a     19.888308
_cell_length_b     29.606919
_cell_length_c     18.73455
_cell_angle_alpha  96.754847
_cell_angle_beta   87.371639
_cell_angle_gamma 123.06998
loop_
_atom_site_label
_atom_site_type_symbol
_atom_site_fract_x
_atom_site_fract_y
_atom_site_fract_z
_atom_type_partial_charge
La0 La 0.07342 0.08695 1.0109 0.0
La1 La 0.9747 0.96851 0.03224 0.0
C2 C 0.12774 0.17789 0.96617 0.0
C3 C 0.1077 0.21936 0.97156 0.0
C4 C 0.06413 0.22472 0.02936 0.0
C5 C 0.05001 0.26652 0.03549 0.0
C6 C 0.07892 0.30366 0.98378 0.0
C7 C 0.12062 0.29697 0.92498 0.0
C8 C 0.13493 0.25536 0.9191 0.0
C9 C 0.06319 0.06609 0.14553 0.0
C10 C 0.8832 1.02591 0.03063 0.0
C11 C 0.9202 0.87741 0.07656 0.0
C12 C 0.94035 0.83598 0.07124 0.0
C13 C 0.98399 0.83065 1.01349 0.0
C14 C 0.99816 0.78888 1.0074 0.0
C15 C 0.96923 0.75174 0.05912 0.0
C16 C 0.92747 0.75841 0.11787 0.0
C17 C 0.91311 0.79999 0.12371 0.0
C18 C 0.98511 0.98969 0.89765 0.0
C19 C 0.16494 0.02957 1.01274 0.0
O20 O 0.15227 0.17152 0.02556 0.0
O21 O 0.07755 0.13143 0.92905 0.0
O22 O 0.12498 0.10703 0.11958 0.0
O23 O 1.00786 0.0414 0.09845 0.0
O24 O 0.94984 0.06704 1.00662 0.0
O25 O 0.88195 0.98532 0.05504 0.0
O26 O 0.89606 0.88392 1.01707 0.0
O27 O 0.97009 0.92379 0.114 0.0
O28 O 0.92316 0.94876 0.9235 0.0
O29 O 0.04028 1.01403 0.94485 0.0
O30 O 0.09829 0.98845 0.03677 0.0
O31 O 0.16618 0.07012 0.98823 0.0
H32 H 0.04224 0.19718 0.07037 0.0
H33 H 1.01825 0.27053 0.08177 0.0
H34 H 0.14233 0.32392 0.88331 0.0
H35 H 0.16816 0.25166 0.87382 0.0
H36 H 1.00589 0.85819 0.97248 0.0
H37 H 0.02996 0.78488 0.96115 0.0
H38 H 0.90575 0.73146 0.15955 0.0
H39 H 0.87982 0.80367 0.16896 0.0
H40 H 0.17781 0.12019 0.25155 0.0
H41 H 0.16422 0.1062 0.37898 0.0
H42 H 0.91601 0.97692 0.34012 0.0
H43 H 0.9296 0.99042 0.21222 0.0
H44 H 0.06216 0.11454 0.47758 0.0
H45 H 1.00239 0.90688 0.44969 0.0
H46 H 0.0413 0.94938 0.37739 0.0
H47 H 0.93618 0.91393 0.39688 0.0
C48 C 0.12046 0.08855 0.27011 0.0
C49 C 0.05482 0.05625 0.22199 0.0
C50 C 0.11276 0.08065 0.34294 0.0
C51 C 0.03941 0.0401 0.36906 0.0
C52 C 0.97364 1.00775 0.32101 0.0
H53 H 0.87071 0.93594 0.79146 0.0
H54 H 0.88468 0.95007 0.66408 0.0
C55 C 0.98134 1.01564 0.24803 0.0
C56 C 0.03146 0.03293 0.44694 0.0
H57 H 0.98707 0.94157 0.56572 0.0
C58 C 0.04608 0.0768 0.4969 0.0
C59 C 1.01043 0.98367 0.47211 0.0
C60 C 0.99735 0.93588 0.42138 0.0
C61 C 0.03885 0.07245 0.57119 0.0
C62 C 1.01777 1.02317 0.59635 0.0
C63 C 1.00318 0.97932 0.54639 0.0
C64 C 1.00961 1.01596 0.67421 0.0
C65 C 0.05197 0.12024 0.62194 0.0
C66 C 0.07531 0.04815 0.72238 0.0
C67 C 0.06739 0.04018 0.79534 0.0
C68 C 0.99375 0.99965 0.82124 0.0
C69 C 0.92817 0.96752 0.77301 0.0
C70 C 0.93609 0.97549 0.70021 0.0
H71 H 0.04722 0.14935 0.59362 0.0
H72 H 1.00785 0.10674 0.66579 0.0
H73 H 0.11303 0.14205 0.64663 0.0
H74 H 0.13305 0.07893 0.70337 0.0
H75 H 0.11908 0.06527 0.83124 0.0
H76 H 0.18212 0.9504 0.05227 0.0
H77 H 0.30503 0.95087 0.05569 0.0
H78 H 0.43754 0.10679 0.97426 0.0
H79 H 0.31497 0.10718 0.97139 0.0
H80 H 0.40803 0.95843 0.94285 0.0
H81 H 0.56466 0.13076 0.15747 0.0
H82 H 0.45825 0.09537 0.1389 0.0
H83 H 0.52879 0.14468 0.08202 0.0
C84 C 0.23733 0.98491 0.03509 0.0
C85 C 0.23882 0.02897 1.01195 0.0
C86 C 0.30747 0.98501 0.03704 0.0
C87 C 0.38042 0.02921 1.01632 0.0
C88 C 0.382 0.07277 0.99181 0.0
H89 H 0.866 0.1051 0.99124 0.0
H90 H 0.74309 0.10464 0.98792 0.0
C91 C 0.31181 0.07274 0.98979 0.0
C92 C 0.45464 0.02934 1.01986 0.0
H93 H 0.64011 0.09706 0.10075 0.0
C94 C 0.45873 0.98858 0.97751 0.0
C95 C 0.52046 0.06876 0.06524 0.0
C96 C 0.51794 0.11215 0.11403 0.0
C97 C 0.52767 0.98673 0.97837 0.0
C98 C 0.59349 1.02615 0.02374 0.0
C99 C 0.5894 0.0669 0.06609 0.0
C100 C 0.66772 1.02629 0.02726 0.0
C101 C 0.53019 0.94335 0.92957 0.0
C102 C 0.66616 0.98272 0.05174 0.0
C103 C 0.73635 0.98275 0.0537 0.0
C104 C 0.80932 1.02652 0.03151 0.0
C105 C 0.8108 0.07059 1.00843 0.0
C106 C 0.74066 0.0705 1.00653 0.0
H107 H 0.48347 0.92474 0.88612 0.0
H108 H 0.58988 0.96012 0.90469 0.0
H109 H 0.51934 0.91081 0.96157 0.0
H110 H 0.61063 0.9487 0.06929 0.0
H111 H 0.7332 0.9483 0.07206 0.0
H112 H 0.10155 0.75115 1.01035 0.0
H113 H 0.11861 0.67472 0.99575 0.0
H114 H 0.88213 0.57197 0.07816 0.0
H115 H 0.86317 0.64727 0.09009 0.0
H116 H 0.11589 0.61361 0.09758 0.0
H117 H 0.87307 0.48198 0.89369 0.0
H118 H 0.91019 0.55283 0.91661 0.0
H119 H 0.83999 0.50337 0.97366 0.0
C120 C 0.05264 0.71213 0.02443 0.0
C121 C 0.98081 0.70555 0.05117 0.0
C122 C 0.06275 0.66852 1.01652 0.0
C123 C 1.00119 0.61728 0.03474 0.0
C124 C 0.9299 0.61074 0.06229 0.0
H125 H 0.94663 0.30427 0.03261 0.0
H126 H 0.9296 0.3807 0.04723 0.0
C127 C 0.91963 0.6542 0.07005 0.0
C128 C 1.01219 0.57104 0.02656 0.0
H129 H 0.93231 0.44181 0.94536 0.0
C130 C 0.07602 0.57616 0.06397 0.0
C131 C 0.96 0.52203 0.9829 0.0
C132 C 0.8924 0.51473 0.93887 0.0
C133 C 0.08821 0.53338 0.06003 0.0
C134 C 0.03601 0.48438 1.01638 0.0
C135 C 0.97218 0.47926 0.97897 0.0
C136 C 0.04701 0.43813 1.00821 0.0
C137 C 0.1558 0.54069 0.10407 0.0
C138 C 0.11828 0.44467 0.98064 0.0
C139 C 0.12854 0.4012 0.97287 0.0
C140 C 0.06737 0.34985 0.99175 0.0
C141 C 0.99554 0.34329 1.01852 0.0
C142 C 0.98544 0.3869 0.02644 0.0
H143 H 0.17515 0.57345 0.14924 0.0
H144 H 0.13801 0.50259 0.12633 0.0
H145 H 0.20821 0.55204 0.06927 0.0
H146 H 0.16605 0.48343 0.96476 0.0
H147 H 0.185 0.40812 0.9528 0.0
loop_
_geom_bond_atom_site_label_1
_geom_bond_atom_site_label_2
_geom_bond_distance
_geom_bond_site_symmetry_2
_ccdc_geom_bond_type
La0 C2 2.928 . S
La0 O20 2.521 . S
La0 O21 2.628 1_554 S
La0 O22 2.554 . S
La0 O23 2.757 1_545 S
La0 O24 2.470 1_455 S
La0 O29 2.482 1_454 S
La0 O31 2.503 . S
La1 C11 2.928 . S
La1 O23 2.482 1_656 S
La1 O25 2.503 . S
La1 O26 2.521 . S
La1 O27 2.628 1_556 S
La1 O28 2.554 . S
La1 O29 2.757 1_565 S
La1 O30 2.470 1_655 S
C2 La0 2.928 . S
C2 C3 1.503 . S
C2 O20 1.261 . S
C2 O21 1.243 1_554 S
C3 C2 1.503 . S
C3 C4 1.394 . S
C3 C8 1.373 1_454 S
C4 C3 1.394 . S
C4 C5 1.380 . S
C4 H32 0.930 . S
C5 C4 1.380 . S
C5 C6 1.387 . S
C5 H33 0.930 . S
C6 C5 1.387 . S
C6 C7 1.361 1_454 S
C7 C6 1.361 1_656 S
C7 C8 1.396 . S
C7 H34 0.929 . S
C8 C3 1.373 1_656 S
C8 C7 1.396 . S
C8 H35 0.929 . S
C9 O22 1.240 . S
C9 O23 1.289 1_545 S
C10 O24 1.258 1_565 S
C10 O25 1.255 1_554 S
C11 La1 2.928 . S
C11 C12 1.503 . S
C11 O26 1.261 . S
C11 O27 1.243 1_556 S
C12 C11 1.503 . S
C12 C13 1.394 . S
C12 C17 1.373 1_656 S
C13 C12 1.394 . S
C13 C14 1.380 . S
C13 H36 0.930 . S
C14 C13 1.380 . S
C14 C15 1.383 . S
C14 H37 0.930 . S
C15 C14 1.383 . S
C15 C16 1.364 1_656 S
C16 C15 1.364 1_454 S
C16 C17 1.396 . S
C16 H38 0.929 . S
C17 C12 1.373 1_454 S
C17 C16 1.396 . S
C17 H39 0.929 . S
C18 O28 1.240 . S
C18 O29 1.289 1_565 S
C19 O30 1.258 1_545 S
C19 O31 1.255 1_556 S
O20 La0 2.521 . S
O20 C2 1.261 . S
O21 La0 2.628 1_556 S
O21 C2 1.243 1_556 S
O22 La0 2.554 . S
O22 C9 1.240 . S
O23 La0 2.757 1_565 S
O23 La1 2.482 1_454 S
O23 C9 1.289 1_565 S
O24 La0 2.470 1_655 S
O24 C10 1.258 1_545 S
O25 La1 2.503 . S
O25 C10 1.255 1_556 S
O26 La1 2.521 . S
O26 C11 1.261 . S
O27 La1 2.628 1_554 S
O27 C11 1.243 1_554 S
O28 La1 2.554 . S
O28 C18 1.240 . S
O29 La0 2.482 1_656 S
O29 La1 2.757 1_545 S
O29 C18 1.289 1_545 S
O30 La1 2.470 1_455 S
O30 C19 1.258 1_565 S
O31 La0 2.503 . S
O31 C19 1.255 1_554 S
H32 C4 0.930 . S
H33 C5 0.930 . S
H34 C7 0.929 . S
H35 C8 0.929 . S
H36 C13 0.930 . S
H37 C14 0.930 . S
H38 C16 0.929 . S
H39 C17 0.929 . S
H40 C48 0.929 . S
H41 C50 0.930 . S
H42 C52 0.930 . S
H43 C55 0.929 . S
H44 C58 0.930 . S
H45 C60 0.960 . S
H46 C60 0.960 . S
H47 C60 0.960 . S
C48 H40 0.929 . S
C48 C49 1.389 1_545 S
C48 C50 1.384 . S
C49 C48 1.389 1_565 S
C49 C55 1.380 1_455 S
C50 H41 0.930 . S
C50 C48 1.384 . S
C50 C51 1.372 . S
C51 C50 1.372 . S
C51 C52 1.400 1_445 S
C51 C56 1.490 . S
C52 H42 0.930 . S
C52 C51 1.400 1_665 S
C52 C55 1.386 . S
H53 C69 0.930 . S
H54 C70 0.931 . S
C55 H43 0.929 . S
C55 C49 1.380 1_655 S
C55 C52 1.386 . S
C56 C51 1.490 . S
C56 C58 1.395 . S
C56 C59 1.403 1_445 S
H57 C63 0.930 . S
C58 H44 0.930 . S
C58 C56 1.395 . S
C58 C61 1.403 . S
C59 C56 1.403 1_665 S
C59 C60 1.524 . S
C59 C63 1.400 . S
C60 H45 0.960 . S
C60 H46 0.960 . S
C60 H47 0.960 . S
C60 C59 1.524 . S
C61 C58 1.403 . S
C61 C62 1.392 . S
C61 C65 1.495 . S
C62 C61 1.392 . S
C62 C63 1.385 1_445 S
C62 C64 1.478 . S
C63 H57 0.930 . S
C63 C59 1.400 . S
C63 C62 1.385 1_665 S
C64 C62 1.478 . S
C64 C66 1.381 . S
C64 C70 1.383 1_445 S
C65 C61 1.495 . S
C65 H71 0.959 . S
C65 H72 0.961 . S
C65 H73 0.960 . S
C66 C64 1.381 . S
C66 C67 1.394 . S
C66 H74 0.930 . S
C67 C66 1.394 . S
C67 C68 1.383 . S
C67 H75 0.929 . S
C68 C67 1.383 . S
C68 C69 1.377 1_445 S
C69 H53 0.930 . S
C69 C68 1.377 1_665 S
C69 C70 1.379 . S
C70 H54 0.931 . S
C70 C64 1.383 1_665 S
C70 C69 1.379 . S
H71 C65 0.959 . S
H72 C65 0.961 . S
H73 C65 0.960 . S
H74 C66 0.930 . S
H75 C67 0.929 . S
H76 C84 0.929 . S
H77 C86 0.930 . S
H78 C88 0.930 . S
H79 C91 0.929 . S
H80 C94 0.930 . S
H81 C96 0.960 . S
H82 C96 0.960 . S
H83 C96 0.960 1_556 S
C84 H76 0.929 . S
C84 C85 1.370 1_565 S
C84 C86 1.384 . S
C85 C84 1.370 1_545 S
C85 C91 1.390 1_554 S
C86 H77 0.930 . S
C86 C84 1.384 . S
C86 C87 1.372 . S
C87 C86 1.372 . S
C87 C88 1.391 1_564 S
C87 C92 1.499 . S
C88 H78 0.930 . S
C88 C87 1.391 1_546 S
C88 C91 1.386 . S
H89 C105 0.930 . S
H90 C106 0.931 . S
C91 H79 0.929 . S
C91 C85 1.390 1_556 S
C91 C88 1.386 . S
C92 C87 1.499 . S
C92 C94 1.395 . S
C92 C95 1.403 1_565 S
H93 C99 0.929 1_556 S
C94 H80 0.930 . S
C94 C92 1.395 . S
C94 C97 1.403 . S
C95 C92 1.403 1_545 S
C95 C96 1.524 . S
C95 C99 1.399 . S
C96 H81 0.960 . S
C96 H82 0.960 . S
C96 H83 0.960 1_554 S
C96 C95 1.524 . S
C97 C94 1.403 . S
C97 C98 1.392 . S
C97 C101 1.495 . S
C98 C97 1.392 . S
C98 C99 1.387 1_565 S
C98 C100 1.477 . S
C99 H93 0.929 1_554 S
C99 C95 1.399 . S
C99 C98 1.387 1_545 S
C100 C98 1.477 . S
C100 C102 1.391 . S
C100 C106 1.373 1_564 S
C101 C97 1.495 . S
C101 H107 0.959 . S
C101 H108 0.961 1_554 S
C101 H109 0.960 . S
C102 C100 1.391 . S
C102 C103 1.394 . S
C102 H110 0.930 . S
C103 C102 1.394 . S
C103 C104 1.381 1_554 S
C103 H111 0.929 . S
C104 C103 1.381 1_556 S
C104 C105 1.379 1_565 S
C105 H89 0.930 . S
C105 C104 1.379 1_545 S
C105 C106 1.379 . S
C106 H90 0.931 . S
C106 C100 1.373 1_546 S
C106 C105 1.379 . S
H107 C101 0.959 . S
H108 C101 0.961 1_556 S
H109 C101 0.960 . S
H110 C102 0.930 . S
H111 C103 0.929 . S
H112 C120 0.929 . S
H113 C122 0.930 . S
H114 C124 0.930 . S
H115 C127 0.929 . S
H116 C130 0.930 . S
H117 C132 0.960 . S
H118 C132 0.960 . S
H119 C132 0.960 1_554 S
C120 H112 0.929 . S
C120 C121 1.386 1_455 S
C120 C122 1.384 . S
C121 C120 1.386 1_655 S
C121 C127 1.378 1_556 S
C122 H113 0.930 . S
C122 C120 1.384 . S
C122 C123 1.372 . S
C123 C122 1.372 . S
C123 C124 1.400 1_456 S
C123 C128 1.490 . S
C124 H114 0.930 . S
C124 C123 1.400 1_654 S
C124 C127 1.386 . S
H125 C141 0.930 . S
H126 C142 0.931 . S
C127 H115 0.929 . S
C127 C121 1.378 1_554 S
C127 C124 1.386 . S
C128 C123 1.490 . S
C128 C130 1.395 1_556 S
C128 C131 1.403 1_455 S
H129 C135 0.930 . S
C130 H116 0.930 . S
C130 C128 1.395 1_554 S
C130 C133 1.403 . S
C131 C128 1.403 1_655 S
C131 C132 1.524 . S
C131 C135 1.400 . S
C132 H117 0.960 . S
C132 H118 0.960 . S
C132 H119 0.960 1_556 S
C132 C131 1.524 . S
C133 C130 1.403 . S
C133 C134 1.392 . S
C133 C137 1.495 . S
C134 C133 1.392 . S
C134 C135 1.385 1_454 S
C134 C136 1.478 . S
C135 H129 0.930 . S
C135 C131 1.400 . S
C135 C134 1.385 1_656 S
C136 C134 1.478 . S
C136 C138 1.381 1_554 S
C136 C142 1.383 1_455 S
C137 C133 1.495 . S
C137 H143 0.959 . S
C137 H144 0.961 . S
C137 H145 0.960 1_554 S
C138 C136 1.381 1_556 S
C138 C139 1.394 . S
C138 H146 0.930 . S
C139 C138 1.394 . S
C139 C140 1.383 1_556 S
C139 H147 0.929 . S
C140 C139 1.383 1_554 S
C140 C141 1.377 1_455 S
C141 H125 0.930 . S
C141 C140 1.377 1_655 S
C141 C142 1.379 . S
C142 H126 0.931 . S
C142 C136 1.383 1_655 S
C142 C141 1.379 . S
H143 C137 0.959 . S
H144 C137 0.961 . S
H145 C137 0.960 1_556 S
H146 C138 0.930 . S
H147 C139 0.929 . S
C49 C9 1.450 1_565 S
C68 C18 1.472 1_445 S
C85 C19 1.494 1_554 S
C104 C10 1.474 1_556 S
C121 C15 1.501 . S
C140 C6 1.492 . S
