# Generated by pormake.
# Topology pcu, (6)-cn, num edge types: 1
# Building blocks:
#     Node 0, Type 0, BuildingBlock: KUMBUR_clean_sbu_0, # of connection points: 6
#     Edge 1, Type (0, 0), BuildingBlock: ZUJKAS_clean_linker_0, # of connection points: 2
#     Edge 2, Type (0, 0), BuildingBlock: ZUJKAS_clean_linker_0, # of connection points: 2
#     Edge 3, Type (0, 0), BuildingBlock: ZUJKAS_clean_linker_0, # of connection points: 2
# Relax obj value: 0.000
# Max RMSD: 0.000
# Mean RMSD: 0.000
data_MOF--net-pcu--node1-KUMBUR_clean_sbu_0--edge1-ZUJKAS_clean_linker_0
_symmetry_space_group_name_H-M    P1
_symmetry_Int_Tables_number       1
_symmetry_cell_setting            triclinic
loop_
_symmetry_equiv_pos_as_xyz
'x, y, z'
_cell_length_a     18.458933
_cell_length_b     28.843208
_cell_length_c     19.672886
_cell_angle_alpha  114.89535
_cell_angle_beta   74.573506
_cell_angle_gamma 117.31347
loop_
_atom_site_label
_atom_site_type_symbol
_atom_site_fract_x
_atom_site_fract_y
_atom_site_fract_z
_atom_type_partial_charge
Tb0 Tb 0.08012 0.0801 0.02983 0.0
C1 C 0.83239 0.8542 0.85502 0.0
C2 C 0.70305 0.84542 0.93036 0.0
C3 C 0.70544 0.799 0.79458 0.0
C4 C 0.78934 0.8678 0.92412 0.0
C5 C 0.79113 0.81878 0.78948 0.0
C6 C 0.66141 0.81209 0.86502 0.0
C7 C 0.92129 0.82007 0.72064 0.0
N8 N 0.91471 0.87275 0.85301 0.0
C9 C 0.9592 0.85446 0.78748 0.0
C10 C 0.83697 0.80265 0.72144 0.0
Tb11 Tb 0.97185 0.92968 0.96492 0.0
N12 N 0.83189 0.89903 0.98584 0.0
C13 C 0.79102 0.90701 0.0562 0.0
C14 C 0.66128 0.85529 0.00219 0.0
C15 C 0.70548 0.88595 0.06534 0.0
H16 H 1.02443 0.86779 0.7863 0.0
H17 H 0.67372 0.89321 0.1212 0.0
H18 H 0.59515 0.79497 0.86855 0.0
H19 H 0.95707 0.80689 0.66863 0.0
H20 H 0.82369 0.93035 0.1059 0.0
H21 H 0.37826 0.1167 0.87353 0.0
H22 H 0.59498 0.83831 0.00956 0.0
H23 H 0.02753 0.14189 0.20851 0.0
H24 H 0.22829 0.07951 0.88884 0.0
H25 H 0.09489 0.20275 0.32618 0.0
H26 H 0.67252 0.77206 0.74483 0.0
H27 H 0.457 0.17159 0.98517 0.0
H28 H 0.45684 0.21489 0.12618 0.0
H29 H 0.80762 0.77557 0.66974 0.0
H30 H 0.37947 0.23772 0.24992 0.0
N31 N 0.2201 0.11081 0.0089 0.0
C32 C 0.26095 0.10285 0.93854 0.0
C33 C 0.39071 0.15459 0.99254 0.0
C34 C 0.34893 0.16443 0.06437 0.0
C35 C 0.3465 0.12394 0.92939 0.0
C36 C 0.26265 0.14202 0.07062 0.0
H37 H 0.24436 0.23412 0.32503 0.0
N38 N 0.13726 0.13699 0.14176 0.0
C39 C 0.13068 0.18961 0.27415 0.0
C40 C 0.21959 0.15557 0.13973 0.0
C41 C 0.09276 0.15524 0.20731 0.0
C42 C 0.21501 0.20705 0.27334 0.0
C43 C 0.26085 0.19097 0.20528 0.0
O44 O 0.03918 0.1446 0.06436 0.0
O45 O 0.96576 0.00945 0.00088 0.0
O46 O 0.97037 0.95779 0.87851 0.0
O47 O 0.0827 0.0432 0.90565 0.0
O48 O 0.9596 0.07719 0.0893 0.0
O49 O 0.11953 0.13003 0.96337 0.0
O50 O 1.01269 0.86514 0.93043 0.0
O51 O 0.08613 1.00032 0.99373 0.0
O52 O 0.08173 0.05196 0.11614 0.0
O53 O 0.96931 0.96661 0.0891 0.0
O54 O 0.09245 0.93256 0.90557 0.0
O55 O 0.93244 0.87983 0.03148 0.0
C56 C 0.91574 0.02803 0.04828 0.0
C57 C 0.13099 0.22272 0.03006 0.0
C58 C 0.14926 0.31431 0.03739 0.0
C59 C 0.10297 0.25636 0.01806 0.0
C60 C 0.22331 0.33787 0.06977 0.0
C61 C 0.20543 0.24733 0.06156 0.0
C62 C 0.25105 0.30452 0.08154 0.0
C63 C 0.02749 1.00063 0.85989 0.0
C64 C 0.08236 0.1622 0.0094 0.0
C65 C 0.34655 0.21079 0.20016 0.0
C66 C 0.39058 0.19775 0.12972 0.0
C67 C 0.13627 0.98178 0.9465 0.0
C68 C 0.92083 0.78709 0.96488 0.0
C69 C 0.94882 0.75345 0.97691 0.0
C70 C 0.90246 0.69551 0.95767 0.0
C71 C 0.82839 0.67197 0.92535 0.0
C72 C 0.84636 0.7625 0.93346 0.0
C73 C 0.80067 0.70532 0.91356 0.0
C74 C 1.02461 0.00913 0.13479 0.0
C75 C 0.96953 0.8476 0.98546 0.0
H76 H 0.04597 0.23726 0.99273 0.0
H77 H 0.25958 0.38229 0.08682 0.0
H78 H 0.22855 0.22251 0.07059 0.0
H79 H 0.30819 0.3231 0.10631 0.0
H80 H 1.00584 0.77253 0.00219 0.0
H81 H 0.79207 0.62756 0.90836 0.0
H82 H 0.82326 0.78733 0.9244 0.0
H83 H 0.74351 0.68675 0.88883 0.0
H84 H 0.14264 0.07653 0.23344 0.0
H85 H 0.14211 0.07453 0.35632 0.0
H86 H 0.90569 0.93741 0.32864 0.0
H87 H 0.90532 0.93915 0.20549 0.0
H88 H 0.02786 0.08696 0.48342 0.0
H89 H 0.04542 0.88063 0.37904 0.0
H90 H 0.06737 0.91885 0.31811 0.0
H91 H 0.96319 0.88086 0.34689 0.0
C92 C 0.09006 0.04623 0.25358 0.0
C93 C 1.02372 0.00823 0.20969 0.0
C94 C 0.09013 0.045 0.32375 0.0
C95 C 1.02436 0.00541 0.35112 0.0
C96 C 0.95772 0.96767 0.30788 0.0
H97 H 0.90958 0.93317 0.76113 0.0
H98 H 0.91022 0.93516 0.63821 0.0
C99 C 0.9575 0.9689 0.23764 0.0
C100 C 1.02526 1.00419 0.42539 0.0
H101 H 1.0245 0.92276 0.51117 0.0
C102 C 0.02744 0.05118 0.48958 0.0
C103 C 1.02473 0.95742 0.43303 0.0
C104 C 0.02577 0.90671 0.36563 0.0
C105 C 0.02764 0.05231 0.56156 0.0
C106 C 0.0271 0.00553 0.5692 0.0
C107 C 1.02492 0.95854 0.50501 0.0
C108 C 0.02795 1.0043 0.64348 0.0
C109 C 0.02658 0.10302 0.62896 0.0
C110 C 0.09454 0.04206 0.68677 0.0
C111 C 0.0947 0.04084 0.75703 0.0
C112 C 0.02846 1.00151 0.78496 0.0
C113 C 0.96217 0.96348 0.74102 0.0
C114 C 0.96216 0.9647 0.67082 0.0
H115 H 1.00693 0.12908 0.61555 0.0
H116 H 0.98497 0.09087 0.67647 0.0
H117 H 0.08916 0.12887 0.64771 0.0
H118 H 0.14659 0.07233 0.66603 0.0
H119 H 0.14683 0.07062 0.78923 0.0
H120 H 0.20135 0.0223 0.08069 0.0
H121 H 0.33377 0.03135 0.0985 0.0
H122 H 0.39302 0.97731 0.85801 0.0
H123 H 0.25907 0.96674 0.84023 0.0
H124 H 0.42347 0.92166 0.91562 0.0
H125 H 0.56143 0.14461 0.09073 0.0
H126 H 0.4626 0.10781 0.13014 0.0
H127 H 0.4722 0.1157 0.04186 0.0
C128 C 0.24339 0.01389 0.03173 0.0
C129 C 0.22055 0.99515 0.95902 0.0
C130 C 0.31952 0.01913 0.04196 0.0
C131 C 0.37475 0.00608 0.97971 0.0
C132 C 0.35209 0.988 0.9071 0.0
H133 H 0.85056 0.98749 0.91415 0.0
H134 H 0.71818 0.97854 0.8964 0.0
C135 C 0.27567 0.98217 0.8969 0.0
C136 C 0.45304 0.00689 0.98956 0.0
H137 H 0.62857 0.08833 0.07931 0.0
C138 C 0.46853 0.95831 0.95106 0.0
C139 C 0.51196 0.05438 0.03629 0.0
C140 C 0.50177 0.10877 0.0767 0.0
C141 C 0.54007 0.95562 0.95864 0.0
C142 C 0.599 1.00311 0.00537 0.0
C143 C 0.58351 0.05168 0.04387 0.0
C144 C 0.67731 1.00392 0.0152 0.0
C145 C 0.55025 0.90122 0.91824 0.0
C146 C 0.70003 0.02204 0.08781 0.0
C147 C 0.77644 0.02784 0.09797 0.0
C148 C 0.83148 0.01476 0.03582 0.0
C149 C 0.80858 0.99599 0.96312 0.0
C150 C 0.73247 0.99079 0.95293 0.0
H151 H 0.49057 0.86537 0.90431 0.0
H152 H 0.5893 0.90214 0.86473 0.0
H153 H 0.57992 0.89431 0.95302 0.0
H154 H 0.65915 0.03278 0.13691 0.0
H155 H 0.79308 0.04328 0.15463 0.0
H156 H 0.05857 0.6996 0.93545 0.0
H157 H 0.10176 0.63592 0.9501 0.0
H158 H 0.85281 0.54445 0.0211 0.0
H159 H 0.80974 0.60897 0.00949 0.0
H160 H 0.96365 0.562 0.10811 0.0
H161 H 0.06054 0.47752 0.80476 0.0
H162 H 0.10976 0.55181 0.84702 0.0
H163 H 1.00126 0.51955 0.83926 0.0
C164 C 1.01319 0.66636 0.95508 0.0
C165 C 0.93048 0.6591 0.97046 0.0
C166 C 0.0378 0.62955 0.9625 0.0
C167 C 0.98018 0.58462 0.98503 0.0
C168 C 0.8982 0.57841 0.00281 0.0
H169 H 0.99312 0.31016 0.05955 0.0
H170 H 0.94989 0.37382 0.04492 0.0
C171 C 0.8736 0.61516 -0.00439 0.0
C172 C 1.00478 0.54391 0.99025 0.0
H173 H 0.08797 0.44778 0.88697 0.0
C174 C 0.99062 0.53689 0.05973 0.0
C175 C 0.03976 0.51105 0.92701 0.0
C176 C 0.05313 0.51484 0.8501 0.0
C177 C 1.01186 0.49872 0.06807 0.0
C178 C 0.04685 0.46587 0.00483 0.0
C179 C 0.061 0.47288 0.93535 0.0
C180 C 0.07147 0.42517 0.01006 0.0
C181 C 0.99847 0.49493 0.14498 0.0
C182 C 0.15346 0.43142 0.99231 0.0
C183 C 0.17809 0.39467 -0.00049 0.0
C184 C 0.12123 0.35071 0.02461 0.0
C185 C 0.0385 0.34342 0.03996 0.0
C186 C 1.01386 0.38022 0.03255 0.0
H187 H 0.99102 0.53223 0.19031 0.0
H188 H 0.94188 0.45793 0.14804 0.0
H189 H 0.05037 0.49025 0.15583 0.0
H190 H 0.19884 0.46539 0.97405 0.0
H191 H 0.24196 0.40089 0.98565 0.0
loop_
_geom_bond_atom_site_label_1
_geom_bond_atom_site_label_2
_geom_bond_distance
_geom_bond_site_symmetry_2
_ccdc_geom_bond_type
Tb0 N31 2.660 1_554 S
Tb0 N38 2.600 . S
Tb0 O44 2.546 . S
Tb0 O45 2.610 1_444 S
Tb0 O47 2.320 1_554 S
Tb0 O48 2.552 1_455 S
Tb0 O49 2.413 . S
Tb0 O51 2.362 . S
Tb0 O52 2.422 1_455 S
Tb0 C64 2.833 . S
C1 C4 1.432 . S
C1 C5 1.414 . S
C1 N8 1.359 . S
C2 C4 1.417 . S
C2 C6 1.432 . S
C2 C14 1.410 1_556 S
C3 C5 1.444 . S
C3 C6 1.317 . S
C3 H26 0.929 . S
C4 C1 1.432 . S
C4 C2 1.417 . S
C4 N12 1.360 1_556 S
C5 C1 1.414 . S
C5 C3 1.444 . S
C5 C10 1.385 . S
C6 C2 1.432 . S
C6 C3 1.317 . S
C6 H18 0.930 . S
C7 C9 1.392 . S
C7 C10 1.370 . S
C7 H19 0.931 . S
N8 C1 1.359 . S
N8 C9 1.327 . S
N8 Tb11 2.600 . S
C9 C7 1.392 . S
C9 N8 1.327 . S
C9 H16 0.930 . S
C10 C5 1.385 . S
C10 C7 1.370 . S
C10 H29 0.930 . S
Tb11 N8 2.600 . S
Tb11 N12 2.660 1_556 S
Tb11 O45 2.362 . S
Tb11 O46 2.422 1_655 S
Tb11 O50 2.546 . S
Tb11 O51 2.610 1_666 S
Tb11 O53 2.320 1_556 S
Tb11 O54 2.552 1_655 S
Tb11 O55 2.413 . S
Tb11 C75 2.833 . S
N12 C4 1.360 1_554 S
N12 Tb11 2.660 1_554 S
N12 C13 1.305 . S
C13 N12 1.305 . S
C13 C15 1.407 . S
C13 H20 0.930 . S
C14 C2 1.410 1_554 S
C14 C15 1.345 . S
C14 H22 0.930 . S
C15 C13 1.407 . S
C15 C14 1.345 . S
C15 H17 0.930 . S
H16 C9 0.930 . S
H17 C15 0.930 . S
H18 C6 0.930 . S
H19 C7 0.931 . S
H20 C13 0.930 . S
H21 C35 0.930 . S
H22 C14 0.930 . S
H23 C41 0.930 . S
H24 C32 0.930 . S
H25 C39 0.931 . S
H26 C3 0.929 . S
H27 C33 0.930 . S
H28 C66 0.930 . S
H29 C10 0.930 . S
H30 C65 0.929 . S
N31 Tb0 2.660 1_556 S
N31 C32 1.305 . S
N31 C36 1.360 1_556 S
C32 H24 0.930 . S
C32 N31 1.305 . S
C32 C35 1.407 . S
C33 H27 0.930 . S
C33 C34 1.410 1_556 S
C33 C35 1.345 . S
C34 C33 1.410 1_554 S
C34 C36 1.417 . S
C34 C66 1.432 . S
C35 H21 0.930 . S
C35 C32 1.407 . S
C35 C33 1.345 . S
C36 N31 1.360 1_554 S
C36 C34 1.417 . S
C36 C40 1.432 . S
H37 C42 0.930 . S
N38 Tb0 2.600 . S
N38 C40 1.359 . S
N38 C41 1.327 . S
C39 H25 0.931 . S
C39 C41 1.392 . S
C39 C42 1.370 . S
C40 C36 1.432 . S
C40 N38 1.359 . S
C40 C43 1.414 . S
C41 H23 0.930 . S
C41 N38 1.327 . S
C41 C39 1.392 . S
C42 H37 0.930 . S
C42 C39 1.370 . S
C42 C43 1.385 . S
C43 C40 1.414 . S
C43 C42 1.385 . S
C43 C65 1.444 . S
O44 Tb0 2.546 . S
O44 C64 1.251 . S
O45 Tb0 2.610 1_666 S
O45 Tb11 2.362 . S
O45 C56 1.283 1_566 S
O46 Tb11 2.422 1_455 S
O46 C63 1.257 . S
O47 Tb0 2.320 1_556 S
O47 C63 1.260 1_545 S
O48 Tb0 2.552 1_655 S
O48 C56 1.243 . S
O49 Tb0 2.413 . S
O49 C64 1.256 . S
O50 Tb11 2.546 . S
O50 C75 1.251 . S
O51 Tb0 2.362 . S
O51 Tb11 2.610 1_444 S
O51 C67 1.283 1_544 S
O52 Tb0 2.422 1_655 S
O52 C74 1.259 . S
O53 Tb11 2.320 1_554 S
O53 C74 1.260 1_565 S
O54 Tb11 2.552 1_455 S
O54 C67 1.243 . S
O55 Tb11 2.413 . S
O55 C75 1.256 . S
C56 O45 1.283 1_544 S
C56 O48 1.243 . S
C57 C59 1.382 . S
C57 C61 1.393 . S
C57 C64 1.500 . S
C58 C59 1.400 . S
C58 C60 1.384 . S
C59 C57 1.382 . S
C59 C58 1.400 . S
C59 H76 0.930 1_554 S
C60 C58 1.384 . S
C60 C62 1.392 . S
C60 H77 0.931 . S
C61 C57 1.393 . S
C61 C62 1.401 . S
C61 H78 0.930 . S
C62 C60 1.392 . S
C62 C61 1.401 . S
C62 H79 0.930 . S
C63 O46 1.257 . S
C63 O47 1.260 1_565 S
C64 Tb0 2.833 . S
C64 O44 1.251 . S
C64 O49 1.256 . S
C64 C57 1.500 . S
C65 H30 0.929 . S
C65 C43 1.444 . S
C65 C66 1.317 . S
C66 H28 0.930 . S
C66 C34 1.432 . S
C66 C65 1.317 . S
C67 O51 1.283 1_566 S
C67 O54 1.243 . S
C68 C69 1.382 . S
C68 C72 1.393 . S
C68 C75 1.500 . S
C69 C68 1.382 . S
C69 C70 1.400 . S
C69 H80 0.930 1_556 S
C70 C69 1.400 . S
C70 C71 1.384 . S
C71 C70 1.384 . S
C71 C73 1.392 . S
C71 H81 0.931 . S
C72 C68 1.393 . S
C72 C73 1.401 . S
C72 H82 0.930 . S
C73 C71 1.392 . S
C73 C72 1.401 . S
C73 H83 0.930 . S
C74 O52 1.259 . S
C74 O53 1.260 1_545 S
C75 Tb11 2.833 . S
C75 O50 1.251 . S
C75 O55 1.256 . S
C75 C68 1.500 . S
H76 C59 0.930 1_556 S
H77 C60 0.931 . S
H78 C61 0.930 . S
H79 C62 0.930 . S
H80 C69 0.930 1_554 S
H81 C71 0.931 . S
H82 C72 0.930 . S
H83 C73 0.930 . S
H84 C92 0.929 . S
H85 C94 0.930 . S
H86 C96 0.930 . S
H87 C99 0.929 . S
H88 C102 0.930 . S
H89 C104 0.960 . S
H90 C104 0.960 . S
H91 C104 0.960 . S
C92 H84 0.929 . S
C92 C93 1.392 1_545 S
C92 C94 1.384 . S
C93 C92 1.392 1_565 S
C93 C99 1.382 1_455 S
C94 H85 0.930 . S
C94 C92 1.384 . S
C94 C95 1.378 . S
C95 C94 1.378 . S
C95 C96 1.405 1_445 S
C95 C100 1.480 . S
C96 H86 0.930 . S
C96 C95 1.405 1_665 S
C96 C99 1.386 . S
H97 C113 0.930 . S
H98 C114 0.931 . S
C99 H87 0.929 . S
C99 C93 1.382 1_655 S
C99 C96 1.386 . S
C100 C95 1.480 . S
C100 C102 1.395 . S
C100 C103 1.403 1_445 S
H101 C107 0.930 . S
C102 H88 0.930 . S
C102 C100 1.395 . S
C102 C105 1.403 . S
C103 C100 1.403 1_665 S
C103 C104 1.524 . S
C103 C107 1.400 . S
C104 H89 0.960 . S
C104 H90 0.960 . S
C104 H91 0.960 . S
C104 C103 1.524 . S
C105 C102 1.403 . S
C105 C106 1.392 . S
C105 C109 1.495 . S
C106 C105 1.392 . S
C106 C107 1.385 1_445 S
C106 C108 1.478 . S
C107 H101 0.930 . S
C107 C103 1.400 . S
C107 C106 1.385 1_665 S
C108 C106 1.478 . S
C108 C110 1.381 . S
C108 C114 1.383 1_445 S
C109 C105 1.495 . S
C109 H115 0.959 . S
C109 H116 0.961 . S
C109 H117 0.960 . S
C110 C108 1.381 . S
C110 C111 1.394 . S
C110 H118 0.930 . S
C111 C110 1.394 . S
C111 C112 1.383 . S
C111 H119 0.929 . S
C112 C111 1.383 . S
C112 C113 1.377 1_445 S
C113 H97 0.930 . S
C113 C112 1.377 1_665 S
C113 C114 1.379 . S
C114 H98 0.931 . S
C114 C108 1.383 1_665 S
C114 C113 1.379 . S
H115 C109 0.959 . S
H116 C109 0.961 . S
H117 C109 0.960 . S
H118 C110 0.930 . S
H119 C111 0.929 . S
H120 C128 0.929 . S
H121 C130 0.930 . S
H122 C132 0.930 . S
H123 C135 0.929 . S
H124 C138 0.930 . S
H125 C140 0.960 . S
H126 C140 0.960 . S
H127 C140 0.960 . S
C128 H120 0.929 . S
C128 C129 1.370 1_565 S
C128 C130 1.384 . S
C129 C128 1.370 1_545 S
C129 C135 1.393 1_554 S
C130 H121 0.930 . S
C130 C128 1.384 . S
C130 C131 1.372 . S
C131 C130 1.372 . S
C131 C132 1.400 1_564 S
C131 C136 1.490 . S
C132 H122 0.930 . S
C132 C131 1.400 1_546 S
C132 C135 1.386 . S
H133 C149 0.930 . S
H134 C150 0.931 . S
C135 H123 0.929 . S
C135 C129 1.393 1_556 S
C135 C132 1.386 . S
C136 C131 1.490 . S
C136 C138 1.395 1_554 S
C136 C139 1.403 1_565 S
H137 C143 0.930 . S
C138 H124 0.930 . S
C138 C136 1.395 1_556 S
C138 C141 1.403 . S
C139 C136 1.403 1_545 S
C139 C140 1.524 . S
C139 C143 1.400 . S
C140 H125 0.960 . S
C140 H126 0.960 . S
C140 H127 0.960 . S
C140 C139 1.524 . S
C141 C138 1.403 . S
C141 C142 1.392 . S
C141 C145 1.495 . S
C142 C141 1.392 . S
C142 C143 1.385 1_566 S
C142 C144 1.478 . S
C143 H137 0.930 . S
C143 C139 1.400 . S
C143 C142 1.385 1_544 S
C144 C142 1.478 . S
C144 C146 1.381 1_556 S
C144 C150 1.383 1_565 S
C145 C141 1.495 . S
C145 H151 0.959 . S
C145 H152 0.961 . S
C145 H153 0.960 . S
C146 C144 1.381 1_554 S
C146 C147 1.394 . S
C146 H154 0.930 . S
C147 C146 1.394 . S
C147 C148 1.383 1_554 S
C147 H155 0.929 . S
C148 C147 1.383 1_556 S
C148 C149 1.377 1_565 S
C149 H133 0.930 . S
C149 C148 1.377 1_545 S
C149 C150 1.379 . S
C150 H134 0.931 . S
C150 C144 1.383 1_545 S
C150 C149 1.379 . S
H151 C145 0.959 . S
H152 C145 0.961 . S
H153 C145 0.960 . S
H154 C146 0.930 . S
H155 C147 0.929 . S
H156 C164 0.929 . S
H157 C166 0.930 . S
H158 C168 0.930 . S
H159 C171 0.929 . S
H160 C174 0.930 . S
H161 C176 0.960 . S
H162 C176 0.960 . S
H163 C176 0.960 . S
C164 H156 0.929 . S
C164 C165 1.376 . S
C164 C166 1.384 . S
C165 C164 1.376 . S
C165 C171 1.390 1_454 S
C166 H157 0.930 . S
C166 C164 1.384 . S
C166 C167 1.372 . S
C167 C166 1.372 . S
C167 C168 1.400 1_454 S
C167 C172 1.490 . S
C168 H158 0.930 . S
C168 C167 1.400 1_656 S
C168 C171 1.386 . S
H169 C185 0.930 . S
H170 C186 0.931 . S
C171 H159 0.929 . S
C171 C165 1.390 1_656 S
C171 C168 1.386 . S
C172 C167 1.490 . S
C172 C174 1.395 1_455 S
C172 C175 1.403 1_554 S
H173 C179 0.930 . S
C174 H160 0.930 . S
C174 C172 1.395 1_655 S
C174 C177 1.403 . S
C175 C172 1.403 1_556 S
C175 C176 1.524 . S
C175 C179 1.400 . S
C176 H161 0.960 . S
C176 H162 0.960 . S
C176 H163 0.960 . S
C176 C175 1.524 . S
C177 C174 1.403 . S
C177 C178 1.392 . S
C177 C181 1.495 . S
C178 C177 1.392 . S
C178 C179 1.385 1_654 S
C178 C180 1.478 . S
C179 H173 0.930 . S
C179 C175 1.400 . S
C179 C178 1.385 1_456 S
C180 C178 1.478 . S
C180 C182 1.381 1_655 S
C180 C186 1.383 1_554 S
C181 C177 1.495 . S
C181 H187 0.959 . S
C181 H188 0.961 . S
C181 H189 0.960 . S
C182 C180 1.381 1_455 S
C182 C183 1.394 . S
C182 H190 0.930 . S
C183 C182 1.394 . S
C183 C184 1.383 1_455 S
C183 H191 0.929 . S
C184 C183 1.383 1_655 S
C184 C185 1.377 1_554 S
C185 H169 0.930 . S
C185 C184 1.377 1_556 S
C185 C186 1.379 . S
C186 H170 0.931 . S
C186 C180 1.383 1_556 S
C186 C185 1.379 . S
H187 C181 0.959 . S
H188 C181 0.961 . S
H189 C181 0.960 . S
H190 C182 0.930 . S
H191 C183 0.929 . S
C93 C74 1.466 1_465 S
C112 C63 1.473 1_545 S
C129 C67 1.441 1_544 S
C148 C56 1.461 1_566 S
C165 C70 1.326 1_454 S
C184 C58 1.290 1_655 S
