# Generated by pormake.
# Topology hex, (8)-cn, num edge types: 1
# Building blocks:
#     Node 0, Type 0, BuildingBlock: EBIMEJ_clean_sbu_0, # of connection points: 8
#     Edge 1, Type (0, 0), BuildingBlock: MIFKUJ_clean_linker_0, # of connection points: 2
#     Edge 2, Type (0, 0), BuildingBlock: MIFKUJ_clean_linker_0, # of connection points: 2
#     Edge 3, Type (0, 0), BuildingBlock: MIFKUJ_clean_linker_0, # of connection points: 2
#     Edge 4, Type (0, 0), BuildingBlock: MIFKUJ_clean_linker_0, # of connection points: 2
# Relax obj value: 0.015
# Max RMSD: 0.054
# Mean RMSD: 0.054
data_MOF--net-hex--node1-EBIMEJ_clean_sbu_0--edge1-MIFKUJ_clean_linker_0
_symmetry_space_group_name_H-M    P1
_symmetry_Int_Tables_number       1
_symmetry_cell_setting            triclinic
loop_
_symmetry_equiv_pos_as_xyz
'x, y, z'
_cell_length_a     21.604787
_cell_length_b     25.097732
_cell_length_c     20.757544
_cell_angle_alpha  73.023782
_cell_angle_beta   116.27087
_cell_angle_gamma 124.04198
loop_
_atom_site_label
_atom_site_type_symbol
_atom_site_fract_x
_atom_site_fract_y
_atom_site_fract_z
_atom_type_partial_charge
Co0 Co 0.99936 0.90612 0.98614 0.0
Co1 Co 0.91901 0.9732 0.00568 0.0
Co2 Co 0.08542 0.05652 0.00594 0.0
H3 H 0.03477 0.97988 0.01039 0.0
O4 O 0.0146 0.96623 0.0435 0.0
H5 H 0.96965 0.04984 1.00124 0.0
O6 O 0.98983 0.0635 0.96813 0.0
Co7 Co 0.00503 0.1236 0.02547 0.0
O8 O 0.88551 0.08652 0.99236 0.0
O9 O 0.82547 0.98353 0.9678 0.0
O10 O 0.12236 0.18834 0.04218 0.0
O11 O 0.15327 0.14973 0.98357 0.0
O12 O 0.94258 0.81518 0.95139 0.0
O13 O 0.05347 0.85069 0.03292 0.0
O14 O 0.03961 0.08859 0.1269 0.0
O15 O 0.93959 0.98806 0.10566 0.0
C16 C 0.18086 0.99693 0.04204 0.0
C17 C 0.83705 0.83396 0.99925 0.0
C18 C 0.00681 0.22573 0.01724 0.0
C19 C 0.00984 0.99681 0.86272 0.0
C20 C 0.82353 0.03277 0.96953 0.0
C21 C 0.16733 0.19578 0.0123 0.0
C22 C 0.99758 0.80399 0.99445 0.0
C23 C 0.99455 0.03292 0.14889 0.0
O24 O 0.11886 0.94318 0.01922 0.0
O25 O 0.17895 0.04618 0.0438 0.0
O26 O 0.85116 0.87999 0.02804 0.0
O27 O 0.882 0.84142 0.96933 0.0
O28 O 0.06185 0.21455 0.06022 0.0
O29 O 0.95088 0.17901 0.9788 0.0
O30 O 0.96477 0.94113 0.88471 0.0
O31 O 0.06481 0.04166 0.90596 0.0
H32 H 0.88595 0.25165 0.93754 0.0
H33 H 0.88496 0.34914 0.9329 0.0
H34 H 0.1277 0.43408 0.08183 0.0
H35 H 0.12846 0.33568 0.08768 0.0
H36 H 0.05855 0.46356 0.11944 0.0
H37 H 0.05114 0.47583 0.8778 0.0
H38 H 0.99712 0.43453 0.75941 0.0
H39 H 0.77037 0.41013 0.72026 0.0
H40 H 0.82305 0.45074 0.8389 0.0
H41 H 0.1184 0.77804 0.07431 0.0
H42 H 0.11943 0.68056 0.07901 0.0
H43 H 0.87681 0.59568 0.92981 0.0
H44 H 0.87602 0.69407 0.92391 0.0
H45 H 0.94594 0.56618 0.89231 0.0
H46 H 0.95319 0.5538 0.13389 0.0
H47 H 0.00707 0.59502 0.25229 0.0
H48 H 0.23391 0.6195 0.29161 0.0
H49 H 0.18137 0.57898 0.17295 0.0
C50 C 0.93938 0.29132 0.9689 0.0
C51 C 0.00732 0.28597 0.01289 0.0
C52 C 0.9389 0.3475 0.96588 0.0
C53 C 0.00648 0.40028 0.00578 0.0
C54 C 0.07452 0.39466 0.04999 0.0
C55 C 0.07504 0.3383 0.05334 0.0
C56 C 0.00514 0.4599 1.004 0.0
C57 C 0.03499 0.48643 0.06947 0.0
C58 C 0.97212 0.48932 0.93935 0.0
C59 C 0.94107 0.46603 0.86748 0.0
C60 C 0.98982 0.46151 0.84411 0.0
C61 C 0.95938 0.43821 0.77691 0.0
C62 C 0.88032 0.41964 0.73234 0.0
C63 C 0.83162 0.42455 0.7548 0.0
C64 C 0.86181 0.44784 0.82196 0.0
C65 C 0.06501 0.73839 0.04289 0.0
C66 C 0.9971 0.74375 0.99882 0.0
C67 C 0.06551 0.68221 0.04595 0.0
C68 C 0.99797 0.62945 0.00598 0.0
C69 C 0.92996 0.63508 0.96169 0.0
C70 C 0.92941 0.69144 0.95832 0.0
C71 C 0.99934 0.56984 0.00776 0.0
C72 C 0.9695 0.54331 0.94229 0.0
C73 C 0.03234 0.54041 0.07241 0.0
C74 C 0.06332 0.56366 0.14429 0.0
C75 C 0.0145 0.56812 0.16761 0.0
C76 C 0.04486 0.59138 0.23482 0.0
C77 C 0.12391 0.60995 0.27944 0.0
C78 C 0.17267 0.60508 0.25702 0.0
C79 C 0.14257 0.58184 0.18986 0.0
H80 H 0.14736 0.62804 0.33141 0.0
H81 H 0.85681 0.40151 0.68038 0.0
H82 H 0.73061 0.08117 0.8676 0.0
H83 H 0.61557 0.07369 0.87536 0.0
H84 H 0.64749 0.96275 0.07865 0.0
H85 H 0.75528 0.96471 0.06647 0.0
H86 H 0.50489 0.91548 0.01472 0.0
H87 H 0.71796 0.14791 0.05345 0.0
H88 H 0.80727 0.25962 0.01879 0.0
H89 H 0.61378 0.25659 0.82659 0.0
H90 H 0.52322 0.14543 0.86102 0.0
H91 H 0.27369 0.94835 0.14374 0.0
H92 H 0.38847 0.95565 0.13567 0.0
H93 H 0.3565 0.06678 0.93253 0.0
H94 H 0.24901 0.06503 0.94505 0.0
H95 H 0.49902 0.11391 0.99621 0.0
H96 H 0.28587 0.88154 0.95757 0.0
H97 H 0.19659 0.76976 0.9921 0.0
H98 H 0.39019 0.77259 0.18405 0.0
H99 H 0.48071 0.88383 0.14976 0.0
C100 C 0.7106 0.05375 0.91238 0.0
C101 C 0.7493 0.02236 0.96579 0.0
C102 C 0.64645 0.05056 0.91773 0.0
C103 C 0.62409 0.0189 0.97846 0.0
C104 C 0.66303 0.98704 0.03102 0.0
C105 C 0.72431 0.98792 0.02409 0.0
C106 C 0.56057 0.01803 0.98904 0.0
C107 C 0.50401 0.95911 0.01107 0.0
C108 C 0.55793 0.07433 0.98272 0.0
C109 C 0.61434 0.13847 0.9594 0.0
C110 C 0.69497 0.17091 1.00339 0.0
C111 C 0.74562 0.23423 0.98391 0.0
C112 C 0.7162 0.26513 0.92033 0.0
C113 C 0.63642 0.23262 0.87575 0.0
C114 C 0.58544 0.16966 0.89533 0.0
C115 C 0.29366 0.97579 0.09893 0.0
C116 C 0.25504 1.00731 0.04568 0.0
C117 C 0.35765 0.97886 0.09341 0.0
C118 C 0.37991 1.01053 0.03263 0.0
C119 C 0.34104 0.0425 0.9802 0.0
C120 C 0.27994 0.04175 0.98733 0.0
C121 C 0.44333 1.01135 0.0219 0.0
C122 C 0.49987 0.07027 0.99985 0.0
C123 C 0.44595 0.95504 0.0282 0.0
C124 C 0.38954 0.89089 0.05151 0.0
C125 C 0.30889 0.85849 0.00756 0.0
C126 C 0.25826 0.79513 0.02696 0.0
C127 C 0.28773 0.76414 0.09041 0.0
C128 C 0.36752 0.79662 0.13497 0.0
C129 C 0.41847 0.85964 0.11548 0.0
H130 H 0.24938 0.71474 0.10495 0.0
H131 H 0.75457 0.31449 0.90571 0.0
H132 H 0.23802 0.29327 0.09776 0.0
H133 H 0.35039 0.4013 0.09471 0.0
H134 H 0.36579 0.35492 0.9197 0.0
H135 H 0.25473 0.24524 0.92446 0.0
H136 H 0.5068 0.41731 0.01038 0.0
H137 H 0.28224 0.45206 0.89962 0.0
H138 H 0.16333 0.45173 0.88822 0.0
H139 H 0.29813 0.56076 0.07606 0.0
H140 H 0.41742 0.56092 0.08933 0.0
H141 H 0.76635 0.73649 0.91375 0.0
H142 H 0.65396 0.62847 0.91676 0.0
H143 H 0.63853 0.67481 0.09178 0.0
H144 H 0.74961 0.78448 0.08706 0.0
H145 H 0.49753 0.61244 1.00107 0.0
H146 H 0.72206 0.57767 0.11187 0.0
H147 H 0.84099 0.57801 0.12332 0.0
H148 H 0.70627 0.46901 0.93547 0.0
H149 H 0.58697 0.46884 0.92214 0.0
C150 C 0.26523 0.30591 0.05853 0.0
C151 C 0.2373 0.26064 0.01116 0.0
C152 C 0.32918 0.36806 0.05646 0.0
C153 C 0.36554 0.38694 0.00586 0.0
C154 C 0.3384 0.34161 0.95899 0.0
C155 C 0.27506 0.27891 0.9618 0.0
C156 C 0.43385 0.45312 1.0038 0.0
C157 C 0.5043 0.46005 0.00716 0.0
C158 C 0.43163 0.50892 1.00204 0.0
C159 C 0.3587 0.50616 0.99569 0.0
C160 C 0.28628 0.47531 0.93898 0.0
C161 C 0.21888 0.47533 0.93208 0.0
C162 C 0.22344 0.50648 0.98124 0.0
C163 C 0.2949 0.53688 0.03793 0.0
C164 C 0.36234 0.5369 0.04517 0.0
C165 C 0.73913 0.72385 0.95297 0.0
C166 C 0.76707 0.76911 1.00036 0.0
C167 C 0.67518 0.6617 0.95502 0.0
C168 C 0.6388 0.64281 1.0056 0.0
C169 C 0.66593 0.68813 0.05249 0.0
C170 C 0.72929 0.75082 0.04971 0.0
C171 C 0.57048 0.57663 0.00765 0.0
C172 C 0.50003 0.56971 1.00429 0.0
C173 C 0.5727 0.52083 0.00941 0.0
C174 C 0.64564 0.52359 0.01579 0.0
C175 C 0.71804 0.55444 0.07252 0.0
C176 C 0.78545 0.55442 0.07945 0.0
C177 C 0.78092 0.52327 0.0303 0.0
C178 C 0.70948 0.49289 0.97359 0.0
C179 C 0.64203 0.49286 0.96632 0.0
H180 H 0.83254 0.52236 0.03607 0.0
H181 H 0.17183 0.50739 0.97549 0.0
H182 H 0.87868 0.93999 0.7441 0.0
H183 H 0.87474 0.94784 0.6222 0.0
H184 H 0.12924 0.07897 0.69068 0.0
H185 H 0.13228 0.0743 0.81129 0.0
H186 H 0.06772 0.11611 0.56359 0.0
H187 H 0.03177 0.90625 0.67139 0.0
H188 H 0.96553 0.79966 0.73116 0.0
H189 H 0.74555 0.75148 0.55181 0.0
H190 H 0.81026 0.85803 0.49138 0.0
H191 H 0.12571 0.08974 0.26752 0.0
H192 H 0.12963 0.0819 0.38941 0.0
H193 H 0.87513 0.95076 0.32093 0.0
H194 H 0.8721 0.95542 0.20031 0.0
H195 H 0.93665 0.91361 0.44802 0.0
H196 H 0.97259 0.12348 0.34021 0.0
H197 H 0.03884 0.23007 0.28045 0.0
H198 H 0.25881 0.27826 0.4598 0.0
H199 H 0.19411 0.1717 0.52022 0.0
C200 C 0.93353 0.97116 0.73275 0.0
C201 C 0.00575 1.00649 0.78726 0.0
C202 C 0.93147 0.97512 0.66317 0.0
C203 C 0.0021 1.01252 0.64723 0.0
C204 C 0.07386 0.04949 0.70123 0.0
C205 C 0.07557 0.0469 0.77029 0.0
C206 C 1.00181 1.01248 0.575 0.0
C207 C 0.03984 0.07172 0.53885 0.0
C208 C 0.96413 0.95478 0.54138 0.0
C209 C 0.92572 0.89026 0.57715 0.0
C210 C 0.96922 0.87297 0.64485 0.0
C211 C 0.93194 0.81258 0.67883 0.0
C212 C 0.85136 0.76887 0.64535 0.0
C213 C 0.80795 0.78537 0.57769 0.0
C214 C 0.84491 0.84571 0.54352 0.0
C215 C 0.07085 0.05856 0.27887 0.0
C216 C 0.99863 0.02323 0.22435 0.0
C217 C 0.07291 0.05461 0.34844 0.0
C218 C 0.00227 0.01721 0.36438 0.0
C219 C 0.93052 0.98023 0.31037 0.0
C220 C 0.92882 0.98282 0.24132 0.0
C221 C 0.00256 0.01725 0.43661 0.0
C222 C 0.96453 0.95801 0.47275 0.0
C223 C 0.04024 0.07495 0.47022 0.0
C224 C 0.07865 0.13947 0.43446 0.0
C225 C 0.03515 0.15675 0.36675 0.0
C226 C 0.07242 0.21715 0.33277 0.0
C227 C 0.153 0.26086 0.36625 0.0
C228 C 0.19641 0.24436 0.43391 0.0
C229 C 0.15945 0.18402 0.46808 0.0
H230 H 0.18179 0.30754 0.33981 0.0
H231 H 0.82257 0.72219 0.6718 0.0
loop_
_geom_bond_atom_site_label_1
_geom_bond_atom_site_label_2
_geom_bond_distance
_geom_bond_site_symmetry_2
_ccdc_geom_bond_type
Co0 H3 2.400 1_556 S
Co0 O4 2.009 1_556 S
Co0 O12 2.115 1_455 S
Co0 O13 2.315 1_556 S
Co0 O24 2.053 . S
Co0 O27 2.094 1_455 S
Co0 O30 2.122 1_455 S
Co1 O4 2.126 1_655 S
Co1 H5 2.388 1_564 S
Co1 O6 2.053 1_564 S
Co1 O9 2.047 1_554 S
Co1 O15 2.113 . S
Co1 O26 2.063 . S
Co2 H3 2.388 1_546 S
Co2 O4 2.053 1_546 S
Co2 O6 2.126 1_455 S
Co2 O11 2.063 . S
Co2 O25 2.047 1_556 S
Co2 O31 2.113 . S
H3 Co0 2.400 1_554 S
H3 Co2 2.388 1_564 S
H3 O4 0.760 . S
O4 Co0 2.009 1_554 S
O4 Co1 2.126 1_455 S
O4 Co2 2.053 1_564 S
O4 H3 0.760 . S
H5 Co1 2.388 1_546 S
H5 O6 0.760 . S
H5 Co7 2.400 1_556 S
O6 Co1 2.053 1_546 S
O6 Co2 2.126 1_655 S
O6 H5 0.760 . S
O6 Co7 2.009 1_556 S
Co7 H5 2.400 1_554 S
Co7 O6 2.009 1_554 S
Co7 O8 2.053 . S
Co7 O10 2.094 1_655 S
Co7 O14 2.122 1_655 S
Co7 O28 2.115 1_655 S
Co7 O29 2.315 1_554 S
O8 Co7 2.053 . S
O8 C20 1.259 . S
O9 Co1 2.047 1_556 S
O9 C20 1.257 1_566 S
O10 Co7 2.094 1_455 S
O10 C21 1.253 . S
O11 Co2 2.063 . S
O11 C21 1.268 1_556 S
O12 Co0 2.115 1_655 S
O12 C22 1.281 1_556 S
O13 Co0 2.315 1_554 S
O13 C22 1.252 1_455 S
O14 Co7 2.122 1_455 S
O14 C23 1.272 1_455 S
O15 Co1 2.113 . S
O15 C23 1.245 1_565 S
C16 O24 1.259 . S
C16 O25 1.257 1_566 S
C17 O26 1.268 1_556 S
C17 O27 1.253 . S
C18 O28 1.281 1_556 S
C18 O29 1.252 1_455 S
C19 O30 1.272 1_455 S
C19 O31 1.245 1_565 S
C20 O8 1.259 . S
C20 O9 1.257 1_544 S
C21 O10 1.253 . S
C21 O11 1.268 1_554 S
C22 O12 1.281 1_554 S
C22 O13 1.252 1_655 S
C23 O14 1.272 1_655 S
C23 O15 1.245 1_545 S
O24 Co0 2.053 . S
O24 C16 1.259 . S
O25 Co2 2.047 1_554 S
O25 C16 1.257 1_544 S
O26 Co1 2.063 . S
O26 C17 1.268 1_554 S
O27 Co0 2.094 1_655 S
O27 C17 1.253 . S
O28 Co7 2.115 1_455 S
O28 C18 1.281 1_554 S
O29 Co7 2.315 1_556 S
O29 C18 1.252 1_655 S
O30 Co0 2.122 1_655 S
O30 C19 1.272 1_655 S
O31 Co2 2.113 . S
O31 C19 1.245 1_545 S
H32 C50 0.951 . S
H33 C52 0.951 . S
H34 C54 0.950 . S
H35 C55 0.950 . S
H36 C57 0.950 . S
H37 C60 0.940 1_455 S
H38 C61 0.950 . S
H39 C63 0.950 . S
H40 C64 0.950 . S
H41 C65 0.951 . S
H42 C67 0.951 . S
H43 C69 0.950 . S
H44 C70 0.950 . S
H45 C72 0.950 . S
H46 C75 0.944 1_655 S
H47 C76 0.950 . S
H48 C78 0.950 . S
H49 C79 0.950 . S
C50 H32 0.951 . S
C50 C51 1.366 1_655 S
C50 C52 1.388 . S
C51 C50 1.366 1_455 S
C51 C55 1.385 1_556 S
C52 H33 0.951 . S
C52 C50 1.388 . S
C52 C53 1.366 1_655 S
C53 C52 1.366 1_455 S
C53 C54 1.414 1_556 S
C53 C56 1.499 . S
C54 H34 0.950 . S
C54 C53 1.414 1_554 S
C54 C55 1.374 . S
C55 H35 0.950 . S
C55 C51 1.385 1_554 S
C55 C54 1.374 . S
C56 C53 1.499 . S
C56 C57 1.373 1_556 S
C56 C58 1.389 1_455 S
C57 H36 0.950 . S
C57 C56 1.373 1_554 S
C57 C73 1.377 . S
C58 C56 1.389 1_655 S
C58 C59 1.524 . S
C58 C72 1.377 . S
C59 C58 1.524 . S
C59 C60 1.397 . S
C59 C64 1.363 . S
C60 H37 0.940 1_655 S
C60 C59 1.397 . S
C60 C61 1.334 . S
C61 H38 0.950 . S
C61 C60 1.334 . S
C61 C62 1.287 . S
C62 C61 1.287 . S
C62 C63 1.524 . S
C62 H81 0.913 . S
C63 H39 0.950 . S
C63 C62 1.524 . S
C63 C64 1.415 . S
C64 H40 0.950 . S
C64 C59 1.363 . S
C64 C63 1.415 . S
C65 H41 0.951 . S
C65 C66 1.366 1_455 S
C65 C67 1.388 . S
C66 C65 1.366 1_655 S
C66 C70 1.385 1_554 S
C67 H42 0.951 . S
C67 C65 1.388 . S
C67 C68 1.366 1_455 S
C68 C67 1.366 1_655 S
C68 C69 1.414 1_554 S
C68 C71 1.499 . S
C69 H43 0.950 . S
C69 C68 1.414 1_556 S
C69 C70 1.374 . S
C70 H44 0.950 . S
C70 C66 1.385 1_556 S
C70 C69 1.374 . S
C71 C68 1.499 . S
C71 C72 1.373 1_554 S
C71 C73 1.389 1_655 S
C72 H45 0.950 . S
C72 C58 1.377 . S
C72 C71 1.373 1_556 S
C73 C57 1.377 . S
C73 C71 1.389 1_455 S
C73 C74 1.524 . S
C74 C73 1.524 . S
C74 C75 1.397 . S
C74 C79 1.363 . S
C75 H46 0.944 1_455 S
C75 C74 1.397 . S
C75 C76 1.334 . S
C76 H47 0.950 . S
C76 C75 1.334 . S
C76 C77 1.287 . S
C77 C76 1.287 . S
C77 C78 1.524 . S
C77 H80 0.999 . S
C78 H48 0.950 . S
C78 C77 1.524 . S
C78 C79 1.415 . S
C79 H49 0.950 . S
C79 C74 1.363 . S
C79 C78 1.415 . S
H80 C77 0.999 . S
H81 C62 0.913 . S
H82 C100 0.951 . S
H83 C102 0.951 . S
H84 C104 0.950 . S
H85 C105 0.950 . S
H86 C107 0.950 . S
H87 C110 0.950 . S
H88 C111 0.952 . S
H89 C113 0.950 . S
H90 C114 0.950 . S
H91 C115 0.951 . S
H92 C117 0.951 . S
H93 C119 0.950 . S
H94 C120 0.950 . S
H95 C122 0.950 . S
H96 C125 0.950 . S
H97 C126 0.950 . S
H98 C128 0.950 . S
H99 C129 0.950 . S
C100 H82 0.951 . S
C100 C101 1.366 1_556 S
C100 C102 1.388 . S
C101 C100 1.366 1_554 S
C101 C105 1.385 1_545 S
C102 H83 0.951 . S
C102 C100 1.388 . S
C102 C103 1.366 1_556 S
C103 C102 1.366 1_554 S
C103 C104 1.414 1_545 S
C103 C106 1.499 . S
C104 H84 0.950 . S
C104 C103 1.414 1_565 S
C104 C105 1.374 . S
C105 H85 0.950 . S
C105 C101 1.385 1_565 S
C105 C104 1.374 . S
C106 C103 1.499 . S
C106 C107 1.373 1_545 S
C106 C108 1.389 1_554 S
C107 H86 0.950 . S
C107 C106 1.373 1_565 S
C107 C123 1.377 . S
C108 C106 1.389 1_556 S
C108 C109 1.524 . S
C108 C122 1.377 . S
C109 C108 1.524 . S
C109 C110 1.397 1_556 S
C109 C114 1.363 . S
C110 H87 0.950 . S
C110 C109 1.397 1_554 S
C110 C111 1.335 . S
C111 H88 0.952 . S
C111 C110 1.335 . S
C111 C112 1.284 1_554 S
C112 C111 1.284 1_556 S
C112 C113 1.524 . S
C112 H131 0.913 . S
C113 H89 0.950 . S
C113 C112 1.524 . S
C113 C114 1.415 . S
C114 H90 0.950 . S
C114 C109 1.363 . S
C114 C113 1.415 . S
C115 H91 0.951 . S
C115 C116 1.366 1_554 S
C115 C117 1.388 . S
C116 C115 1.366 1_556 S
C116 C120 1.385 1_565 S
C117 H92 0.951 . S
C117 C115 1.388 . S
C117 C118 1.366 1_554 S
C118 C117 1.366 1_556 S
C118 C119 1.414 1_565 S
C118 C121 1.499 . S
C119 H93 0.950 . S
C119 C118 1.414 1_545 S
C119 C120 1.374 . S
C120 H94 0.950 . S
C120 C116 1.385 1_545 S
C120 C119 1.374 . S
C121 C118 1.499 . S
C121 C122 1.373 1_565 S
C121 C123 1.389 1_556 S
C122 H95 0.950 . S
C122 C108 1.377 . S
C122 C121 1.373 1_545 S
C123 C107 1.377 . S
C123 C121 1.389 1_554 S
C123 C124 1.524 . S
C124 C123 1.524 . S
C124 C125 1.397 1_554 S
C124 C129 1.363 . S
C125 H96 0.950 . S
C125 C124 1.397 1_556 S
C125 C126 1.334 . S
C126 H97 0.950 . S
C126 C125 1.334 . S
C126 C127 1.287 1_556 S
C127 C126 1.287 1_554 S
C127 C128 1.524 . S
C127 H130 0.999 . S
C128 H98 0.950 . S
C128 C127 1.524 . S
C128 C129 1.415 . S
C129 H99 0.950 . S
C129 C124 1.363 . S
C129 C128 1.415 . S
H130 C127 0.999 . S
H131 C112 0.913 . S
H132 C150 0.951 . S
H133 C152 0.951 . S
H134 C154 0.950 . S
H135 C155 0.950 . S
H136 C157 0.950 . S
H137 C160 0.950 . S
H138 C161 0.950 . S
H139 C163 0.950 . S
H140 C164 0.950 . S
H141 C165 0.951 . S
H142 C167 0.951 . S
H143 C169 0.950 . S
H144 C170 0.950 . S
H145 C172 0.950 . S
H146 C175 0.950 . S
H147 C176 0.950 . S
H148 C178 0.950 . S
H149 C179 0.950 . S
C150 H132 0.951 . S
C150 C151 1.366 . S
C150 C152 1.388 . S
C151 C150 1.366 . S
C151 C155 1.385 1_554 S
C152 H133 0.951 . S
C152 C150 1.388 . S
C152 C153 1.366 . S
C153 C152 1.366 . S
C153 C154 1.414 1_554 S
C153 C156 1.499 1_554 S
C154 H134 0.950 . S
C154 C153 1.414 1_556 S
C154 C155 1.374 . S
C155 H135 0.950 . S
C155 C151 1.385 1_556 S
C155 C154 1.374 . S
C156 C153 1.499 1_556 S
C156 C157 1.373 . S
C156 C158 1.389 1_556 S
C157 H136 0.950 . S
C157 C156 1.373 . S
C157 C173 1.377 . S
C158 C156 1.389 1_554 S
C158 C159 1.524 . S
C158 C172 1.377 . S
C159 C158 1.524 . S
C159 C160 1.397 1_554 S
C159 C164 1.363 . S
C160 H137 0.950 . S
C160 C159 1.397 1_556 S
C160 C161 1.334 . S
C161 H138 0.950 . S
C161 C160 1.334 . S
C161 C162 1.287 1_556 S
C162 C161 1.287 1_554 S
C162 C163 1.524 . S
C162 H181 0.913 . S
C163 H139 0.950 . S
C163 C162 1.524 . S
C163 C164 1.415 . S
C164 H140 0.950 . S
C164 C159 1.363 . S
C164 C163 1.415 . S
C165 H141 0.951 . S
C165 C166 1.366 . S
C165 C167 1.388 . S
C166 C165 1.366 . S
C166 C170 1.385 1_556 S
C167 H142 0.951 . S
C167 C165 1.388 . S
C167 C168 1.366 . S
C168 C167 1.366 . S
C168 C169 1.414 1_556 S
C168 C171 1.499 1_556 S
C169 H143 0.950 . S
C169 C168 1.414 1_554 S
C169 C170 1.374 . S
C170 H144 0.950 . S
C170 C166 1.385 1_554 S
C170 C169 1.374 . S
C171 C168 1.499 1_554 S
C171 C172 1.373 . S
C171 C173 1.389 1_554 S
C172 H145 0.950 . S
C172 C158 1.377 . S
C172 C171 1.373 . S
C173 C157 1.377 . S
C173 C171 1.389 1_556 S
C173 C174 1.524 . S
C174 C173 1.524 . S
C174 C175 1.397 1_556 S
C174 C179 1.363 . S
C175 H146 0.950 . S
C175 C174 1.397 1_554 S
C175 C176 1.334 . S
C176 H147 0.950 . S
C176 C175 1.334 . S
C176 C177 1.287 1_554 S
C177 C176 1.287 1_556 S
C177 C178 1.524 . S
C177 H180 0.999 . S
C178 H148 0.950 . S
C178 C177 1.524 . S
C178 C179 1.415 . S
C179 H149 0.950 . S
C179 C174 1.363 . S
C179 C178 1.415 . S
H180 C177 0.999 . S
H181 C162 0.913 . S
H182 C200 0.951 . S
H183 C202 0.951 . S
H184 C204 0.950 . S
H185 C205 0.950 . S
H186 C207 0.950 . S
H187 C210 0.950 . S
H188 C211 0.950 . S
H189 C213 0.950 . S
H190 C214 0.950 . S
H191 C215 0.951 . S
H192 C217 0.951 . S
H193 C219 0.950 . S
H194 C220 0.950 . S
H195 C222 0.950 . S
H196 C225 0.950 . S
H197 C226 0.950 . S
H198 C228 0.950 . S
H199 C229 0.950 . S
C200 H182 0.951 . S
C200 C201 1.358 1_655 S
C200 C202 1.388 . S
C201 C200 1.358 1_455 S
C201 C205 1.401 1_565 S
C202 H183 0.951 . S
C202 C200 1.388 . S
C202 C203 1.364 . S
C203 C202 1.364 . S
C203 C204 1.415 1_665 S
C203 C206 1.499 1_655 S
C204 H184 0.950 . S
C204 C203 1.415 1_445 S
C204 C205 1.374 . S
C205 H185 0.950 . S
C205 C201 1.401 1_545 S
C205 C204 1.374 . S
C206 C203 1.499 1_455 S
C206 C207 1.373 1_565 S
C206 C208 1.389 1_455 S
C207 H186 0.950 . S
C207 C206 1.373 1_545 S
C207 C223 1.377 . S
C208 C206 1.389 1_655 S
C208 C209 1.524 . S
C208 C222 1.377 . S
C209 C208 1.524 . S
C209 C210 1.397 . S
C209 C214 1.363 . S
C210 H187 0.950 . S
C210 C209 1.397 . S
C210 C211 1.334 . S
C211 H188 0.950 . S
C211 C210 1.334 . S
C211 C212 1.287 . S
C212 C211 1.287 . S
C212 C213 1.524 . S
C212 H231 0.913 . S
C213 H189 0.950 . S
C213 C212 1.524 . S
C213 C214 1.415 . S
C214 H190 0.950 . S
C214 C209 1.363 . S
C214 C213 1.415 . S
C215 H191 0.951 . S
C215 C216 1.360 1_455 S
C215 C217 1.388 . S
C216 C215 1.360 1_655 S
C216 C220 1.399 1_545 S
C217 H192 0.951 . S
C217 C215 1.388 . S
C217 C218 1.368 . S
C218 C217 1.368 . S
C218 C219 1.413 1_445 S
C218 C221 1.497 1_455 S
C219 H193 0.950 . S
C219 C218 1.413 1_665 S
C219 C220 1.374 . S
C220 H194 0.950 . S
C220 C216 1.399 1_565 S
C220 C219 1.374 . S
C221 C218 1.497 1_655 S
C221 C222 1.373 1_545 S
C221 C223 1.389 1_655 S
C222 H195 0.950 . S
C222 C208 1.377 . S
C222 C221 1.373 1_565 S
C223 C207 1.377 . S
C223 C221 1.389 1_455 S
C223 C224 1.524 . S
C224 C223 1.524 . S
C224 C225 1.397 . S
C224 C229 1.363 . S
C225 H196 0.950 . S
C225 C224 1.397 . S
C225 C226 1.334 . S
C226 H197 0.950 . S
C226 C225 1.334 . S
C226 C227 1.287 . S
C227 C226 1.287 . S
C227 C228 1.524 . S
C227 H230 0.999 . S
C228 H198 0.950 . S
C228 C227 1.524 . S
C228 C229 1.415 . S
C229 H199 0.950 . S
C229 C224 1.363 . S
C229 C228 1.415 . S
H230 C227 0.999 . S
H231 C212 0.913 . S
C51 C18 1.879 . S
C66 C22 1.879 . S
C101 C20 0.850 . S
C116 C16 0.850 . S
C151 C21 1.645 . S
C166 C17 1.645 . S
C201 C19 1.458 . S
C216 C23 1.459 . S
