# Generated by pormake.
# Topology pcb, (4)-cn, num edge types: 1
# Building blocks:
#     Node 0, Type 0, BuildingBlock: AZAVOO_clean_sbu_0, # of connection points: 4
#     Node 1, Type 0, BuildingBlock: AZAVOO_clean_sbu_0, # of connection points: 4
#     Node 2, Type 0, BuildingBlock: AZAVOO_clean_sbu_0, # of connection points: 4
#     Node 3, Type 0, BuildingBlock: AZAVOO_clean_sbu_0, # of connection points: 4
#     Node 4, Type 0, BuildingBlock: AZAVOO_clean_sbu_0, # of connection points: 4
#     Node 5, Type 0, BuildingBlock: AZAVOO_clean_sbu_0, # of connection points: 4
#     Node 6, Type 0, BuildingBlock: AZAVOO_clean_sbu_0, # of connection points: 4
#     Node 7, Type 0, BuildingBlock: AZAVOO_clean_sbu_0, # of connection points: 4
#     Node 8, Type 0, BuildingBlock: AZAVOO_clean_sbu_0, # of connection points: 4
#     Node 9, Type 0, BuildingBlock: AZAVOO_clean_sbu_0, # of connection points: 4
#     Node 10, Type 0, BuildingBlock: AZAVOO_clean_sbu_0, # of connection points: 4
#     Node 11, Type 0, BuildingBlock: AZAVOO_clean_sbu_0, # of connection points: 4
#     Node 12, Type 0, BuildingBlock: AZAVOO_clean_sbu_0, # of connection points: 4
#     Node 13, Type 0, BuildingBlock: AZAVOO_clean_sbu_0, # of connection points: 4
#     Node 14, Type 0, BuildingBlock: AZAVOO_clean_sbu_0, # of connection points: 4
#     Node 15, Type 0, BuildingBlock: AZAVOO_clean_sbu_0, # of connection points: 4
#     Edge 16, Type (0, 0), None
#     Edge 17, Type (0, 0), None
#     Edge 18, Type (0, 0), None
#     Edge 19, Type (0, 0), None
#     Edge 20, Type (0, 0), None
#     Edge 21, Type (0, 0), None
#     Edge 22, Type (0, 0), None
#     Edge 23, Type (0, 0), None
#     Edge 24, Type (0, 0), None
#     Edge 25, Type (0, 0), None
#     Edge 26, Type (0, 0), None
#     Edge 27, Type (0, 0), None
#     Edge 28, Type (0, 0), None
#     Edge 29, Type (0, 0), None
#     Edge 30, Type (0, 0), None
#     Edge 31, Type (0, 0), None
#     Edge 32, Type (0, 0), None
#     Edge 33, Type (0, 0), None
#     Edge 34, Type (0, 0), None
#     Edge 35, Type (0, 0), None
#     Edge 36, Type (0, 0), None
#     Edge 37, Type (0, 0), None
#     Edge 38, Type (0, 0), None
#     Edge 39, Type (0, 0), None
#     Edge 40, Type (0, 0), None
#     Edge 41, Type (0, 0), None
#     Edge 42, Type (0, 0), None
#     Edge 43, Type (0, 0), None
#     Edge 44, Type (0, 0), None
#     Edge 45, Type (0, 0), None
#     Edge 46, Type (0, 0), None
#     Edge 47, Type (0, 0), None
# Relax obj value: 0.191
# Max RMSD: 0.095
# Mean RMSD: 0.089
data_MOF--net-pcb--node1-AZAVOO_clean_sbu_0--edge1-none
_symmetry_space_group_name_H-M    P1
_symmetry_Int_Tables_number       1
_symmetry_cell_setting            triclinic
loop_
_symmetry_equiv_pos_as_xyz
'x, y, z'
_cell_length_a     20.188303
_cell_length_b     20.221455
_cell_length_c     21.992383
_cell_angle_alpha  89.951598
_cell_angle_beta   90.012978
_cell_angle_gamma 102.15685
loop_
_atom_site_label
_atom_site_type_symbol
_atom_site_fract_x
_atom_site_fract_y
_atom_site_fract_z
_atom_type_partial_charge
Mg0 Mg 0.27817 0.21449 0.0869 0.0
O1 O 0.16917 0.23105 0.11199 0.0
O2 O 0.10059 0.15553 0.05373 0.0
Mg3 Mg 0.15796 0.10309 0.98627 0.0
C4 C 0.10978 0.20117 0.09466 0.0
C5 C 0.32361 0.28519 0.22111 0.0
O6 O 0.36224 0.33431 0.25154 0.0
O7 O 0.26006 0.11021 0.14065 0.0
O8 O 0.19575 0.05433 0.06748 0.0
O9 O 0.29048 0.29111 0.00995 0.0
O10 O 0.24608 0.18322 -0.00168 0.0
C11 C 0.22677 0.05479 0.11775 0.0
C12 C 0.26318 0.24212 0.97457 0.0
O13 O 0.33012 0.28331 0.1638 0.0
Mg14 Mg 0.92361 0.21125 0.16151 0.0
O15 O 0.88071 0.20126 0.05907 0.0
O16 O 0.97006 0.17593 0.01704 0.0
Mg17 Mg 0.97132 0.0796 0.06971 0.0
C18 C 0.91121 0.18763 0.01111 0.0
C19 C 0.80574 0.29907 0.21247 0.0
O20 O 0.7896 0.35852 0.2089 0.0
O21 O 0.84718 0.11439 0.19361 0.0
O22 O 0.86518 0.08378 0.10256 0.0
O23 O 0.03074 0.26753 0.13239 0.0
O24 O 1.00372 0.15711 0.14058 0.0
C25 C 0.84694 0.06651 0.15627 0.0
C26 C 0.04871 0.21005 0.12801 0.0
O27 O 0.85711 0.2897 0.18223 0.0
Mg28 Mg 0.81026 0.84945 0.1818 0.0
O29 O 0.92699 0.84147 0.19416 0.0
O30 O 0.92187 0.90456 0.11726 0.0
Mg31 Mg 0.89049 0.96862 0.04349 0.0
C32 C 0.95775 0.87456 0.15006 0.0
C33 C 0.66046 0.87355 0.20676 0.0
O34 O 0.59901 0.87799 0.19047 0.0
O35 O 0.82654 0.9641 0.21356 0.0
O36 O 0.90448 0.97946 0.14496 0.0
O37 O 0.79542 0.7685 0.10483 0.0
O38 O 0.82183 0.87414 0.08085 0.0
C39 C 0.86569 1.00469 0.17846 0.0
C40 C 0.80808 0.81325 0.06288 0.0
O41 O 0.6979 0.85064 0.16938 0.0
Mg42 Mg 0.18771 0.85174 0.17344 0.0
O43 O 0.07088 0.8558 0.16683 0.0
O44 O 0.05008 0.9217 0.09116 0.0
Mg45 Mg 0.14035 0.94171 0.03389 0.0
C46 C 0.03058 0.88457 0.13671 0.0
C47 C 0.31159 0.79528 0.2233 0.0
O48 O 0.3746 0.78895 0.22684 0.0
O49 O 0.221 0.86021 0.06615 0.0
O50 O 0.12521 0.82709 0.02067 0.0
O51 O 0.22431 0.97156 0.19913 0.0
O52 O 0.21048 0.93659 0.10915 0.0
C53 C 0.1889 0.83916 0.01698 0.0
C54 C 0.22585 0.98683 0.14345 0.0
O55 O 0.29686 0.83998 0.18772 0.0
Mg56 Mg 0.20731 0.86957 0.80052 0.0
O57 O 0.20301 0.9863 0.80723 0.0
O58 O 0.13523 1.0024 0.88306 0.0
Mg59 Mg 0.11685 0.91306 0.94033 0.0
C60 C 0.17223 1.02427 0.83797 0.0
C61 C 0.26358 0.7462 0.75045 0.0
O62 O 0.27013 0.68337 0.74674 0.0
O63 O 0.19701 0.83615 0.90801 0.0
O64 O 0.23179 0.93149 0.95395 0.0
O65 O 0.08759 0.83406 0.77399 0.0
O66 O 0.12226 0.84474 0.86432 0.0
C67 C 0.21801 0.86788 0.9574 0.0
C68 C 0.07204 0.8308 0.82964 0.0
O69 O 0.21893 0.76066 0.78621 0.0
Mg70 Mg 0.20794 0.24951 0.79343 0.0
O71 O 0.21221 0.13155 0.78438 0.0
O72 O 0.14876 0.12849 0.86375 0.0
Mg73 Mg 0.09113 0.17783 0.93115 0.0
C74 C 0.17998 0.09732 0.82748 0.0
C75 C 0.18682 0.39995 0.76554 0.0
O76 O 0.18311 0.46163 0.78135 0.0
O77 O 0.09402 0.2348 0.76015 0.0
O78 O 0.08136 0.15975 0.83074 0.0
O79 O 0.29028 0.26274 0.86886 0.0
O80 O 0.18477 0.24491 0.89437 0.0
C81 C 0.05446 0.19612 0.79623 0.0
C82 C 0.24598 0.25384 0.91137 0.0
O83 O 0.20946 0.3626 0.80322 0.0
Mg84 Mg 0.84725 0.13512 0.81237 0.0
O85 O 0.8569 0.17766 0.91498 0.0
O86 O 0.88338 0.08877 0.95688 0.0
Mg87 Mg 0.98002 0.08881 0.90412 0.0
C88 C 0.87095 0.14724 0.96286 0.0
C89 C 0.75889 0.25284 0.76124 0.0
O90 O 0.69924 0.26869 0.76494 0.0
O91 O 0.94377 0.21197 0.78002 0.0
O92 O 0.97414 0.19442 0.87132 0.0
O93 O 0.79158 1.02778 0.84149 0.0
O94 O 0.90212 0.05544 0.83347 0.0
C95 C 0.99154 0.21307 0.81776 0.0
C96 C 0.84933 1.01018 0.84597 0.0
O97 O 0.76856 0.20153 0.7914 0.0
Mg98 Mg 0.84453 0.78054 0.88687 0.0
O99 O 0.82833 0.88977 0.86191 0.0
O100 O 0.90459 0.95813 0.91977 0.0
Mg101 Mg 0.95758 0.90043 0.98676 0.0
C102 C 0.85853 0.94906 0.8791 0.0
C103 C 0.77315 0.73494 0.75304 0.0
O104 O 0.72407 0.69627 0.72254 0.0
O105 O 0.94841 0.79764 0.83244 0.0
O106 O 1.00472 0.86187 0.90526 0.0
O107 O 0.76882 0.76855 0.96477 0.0
O108 O 0.87704 0.81291 0.97499 0.0
C109 C 1.00407 0.83072 0.85514 0.0
C110 C 0.8185 0.796 -0.00053 0.0
O111 O 0.77494 0.72856 0.81038 0.0
Mg112 Mg 0.77811 0.7146 0.58697 0.0
O113 O 0.66911 0.73109 0.6121 0.0
O114 O 0.60057 0.65557 0.55382 0.0
Mg115 Mg 0.65795 0.60321 0.48634 0.0
C116 C 0.60973 0.70119 0.59476 0.0
C117 C 0.82359 0.78519 0.72121 0.0
O118 O 0.86221 0.83429 0.75166 0.0
O119 O 0.76005 0.61025 0.64062 0.0
O120 O 0.69579 0.55432 0.56744 0.0
O121 O 0.79031 0.79128 0.51008 0.0
O122 O 0.74602 0.68337 0.49841 0.0
C123 C 0.72684 0.55481 0.6177 0.0
C124 C 0.76302 0.7423 0.47469 0.0
O125 O 0.83007 0.78336 0.66389 0.0
Mg126 Mg 0.42352 0.71125 0.66154 0.0
O127 O 0.38066 0.70129 0.55907 0.0
O128 O 0.47003 0.67596 0.51708 0.0
Mg129 Mg 0.47125 0.57961 0.56973 0.0
C130 C 0.41117 0.68765 0.51113 0.0
C131 C 0.30569 0.79908 0.71252 0.0
O132 O 0.28952 0.85852 0.70892 0.0
O133 O 0.34706 0.61438 0.69361 0.0
O134 O 0.36512 0.58383 0.60255 0.0
O135 O 0.53067 0.76753 0.63247 0.0
O136 O 0.50365 0.65711 0.64062 0.0
C137 C 0.34684 0.56652 0.65624 0.0
C138 C 0.54864 0.71005 0.62808 0.0
O139 O 0.35703 0.78969 0.68225 0.0
Mg140 Mg 0.31028 0.34955 0.68175 0.0
O141 O 0.42706 0.34172 0.69398 0.0
O142 O 0.4222 0.4048 0.61698 0.0
Mg143 Mg 0.39019 0.46864 0.54338 0.0
C144 C 0.45794 0.37476 0.6499 0.0
C145 C 0.16036 0.37344 0.70683 0.0
O146 O 0.09888 0.37776 0.69054 0.0
O147 O 0.32647 0.46415 0.71361 0.0
O148 O 0.40418 0.47933 0.64483 0.0
O149 O 0.29551 0.26858 0.6048 0.0
O150 O 0.32157 0.37422 0.58076 0.0
C151 C 0.36553 0.50466 0.67839 0.0
C152 C 0.30801 0.31331 0.56283 0.0
O153 O 0.19785 0.3506 0.66946 0.0
Mg154 Mg 0.68783 0.35178 0.67345 0.0
O155 O 0.571 0.35584 0.66678 0.0
O156 O 0.55037 0.42181 0.5911 0.0
Mg157 Mg 0.64062 0.4416 0.53383 0.0
C158 C 0.53079 0.38468 0.63664 0.0
C159 C 0.81166 0.2953 0.72335 0.0
O160 O 0.87467 0.28896 0.72692 0.0
O161 O 0.72114 0.3601 0.56616 0.0
O162 O 0.6253 0.32693 0.52082 0.0
O163 O 0.72437 0.47162 0.6991 0.0
O164 O 0.71069 0.4366 0.60913 0.0
C165 C 0.68898 0.33897 0.51705 0.0
C166 C 0.72598 0.48687 0.64342 0.0
O167 O 0.79696 0.34003 0.68778 0.0
Mg168 Mg 0.70728 0.36941 0.30055 0.0
O169 O 0.70307 0.48614 0.30717 0.0
O170 O 0.63502 0.50161 0.38297 0.0
Mg171 Mg 0.61681 0.41268 0.44039 0.0
C172 C 0.67199 0.52377 0.33796 0.0
C173 C 0.76357 0.24616 0.25034 0.0
O174 O 0.77006 0.18333 0.24654 0.0
O175 O 0.69689 0.33581 0.40805 0.0
O176 O 0.73182 0.43118 0.45387 0.0
O177 O 0.58758 0.33401 0.27399 0.0
O178 O 0.62217 0.34443 0.36435 0.0
C179 C 0.718 0.36758 0.4574 0.0
C180 C 0.57197 0.33059 0.32962 0.0
O181 O 0.71894 0.26059 0.28612 0.0
Mg182 Mg 0.70773 0.74969 0.29365 0.0
O183 O 0.71142 0.63182 0.28531 0.0
O184 O 0.6478 0.62669 0.36524 0.0
Mg185 Mg 0.59139 0.67925 0.43111 0.0
C186 C 0.67951 0.59683 0.32825 0.0
C187 C 0.68699 0.90008 0.26545 0.0
O188 O 0.68355 0.96186 0.28116 0.0
O189 O 0.59393 0.73506 0.26002 0.0
O190 O 0.58171 0.66054 0.33096 0.0
O191 O 0.79025 0.76281 0.36896 0.0
O192 O 0.6848 0.74558 0.39442 0.0
C193 C 0.55458 0.69656 0.29635 0.0
C194 C 0.74593 0.75404 0.41145 0.0
O195 O 0.70954 0.86273 0.30316 0.0
Mg196 Mg 0.34729 0.6352 0.31237 0.0
O197 O 0.35685 0.67767 0.415 0.0
O198 O 0.38342 0.5888 0.45686 0.0
Mg199 Mg 0.4801 0.58896 0.40411 0.0
C200 C 0.37094 0.64724 0.46287 0.0
C201 C 0.25885 0.75284 0.26123 0.0
O202 O 0.19919 0.76868 0.26495 0.0
O203 O 0.4438 0.71213 0.28008 0.0
O204 O 0.47412 0.69458 0.37139 0.0
O205 O 0.29166 0.52782 0.34142 0.0
O206 O 0.4022 0.55554 0.33344 0.0
C207 C 0.49155 0.71331 0.31785 0.0
C208 C 0.34942 0.51026 0.34592 0.0
O209 O 0.26855 0.70155 0.29141 0.0
Mg210 Mg 0.34449 0.28057 0.38682 0.0
O211 O 0.3284 0.38984 0.36184 0.0
O212 O 0.40471 0.45818 0.41969 0.0
Mg213 Mg 0.45761 0.40042 0.48669 0.0
C214 C 0.35864 0.44912 0.37902 0.0
C215 C 0.27314 0.235 0.25296 0.0
O216 O 0.22404 0.19634 0.22247 0.0
O217 O 0.44835 0.29754 0.33238 0.0
O218 O 0.50467 0.36175 0.4052 0.0
O219 O 0.26878 0.26866 0.4647 0.0
O220 O 0.37701 0.31293 0.47495 0.0
C221 C 0.50401 0.33059 0.35509 0.0
C222 C 0.31845 0.29606 0.49942 0.0
O223 O 0.2749 0.22865 0.31031 0.0
loop_
_geom_bond_atom_site_label_1
_geom_bond_atom_site_label_2
_geom_bond_distance
_geom_bond_site_symmetry_2
_ccdc_geom_bond_type
Mg0 O1 2.028 . S
Mg0 O7 1.986 . S
Mg0 O9 2.114 . S
Mg0 O10 2.251 . S
Mg0 O13 2.010 . S
O1 Mg0 2.028 . S
O1 C4 1.250 . S
O2 Mg3 2.028 . S
O2 C4 1.248 . S
Mg3 O2 2.028 . S
Mg3 O8 2.032 . S
Mg3 O10 2.079 . S
C4 O1 1.250 . S
C4 O2 1.248 . S
C5 O6 1.264 . S
C5 O13 1.249 . S
O6 C5 1.264 . S
O7 Mg0 1.986 . S
O7 C11 1.246 . S
O8 Mg3 2.032 . S
O8 C11 1.259 . S
O9 Mg0 2.114 . S
O9 C12 1.252 . S
O10 Mg0 2.251 . S
O10 Mg3 2.079 . S
O10 C12 1.273 . S
C11 O7 1.246 . S
C11 O8 1.259 . S
C12 O9 1.252 . S
C12 O10 1.273 . S
O13 Mg0 2.010 . S
O13 C5 1.249 . S
Mg14 O15 2.028 . S
Mg14 O21 1.986 . S
Mg14 O23 2.114 . S
Mg14 O24 2.251 . S
Mg14 O27 2.010 . S
O15 Mg14 2.028 . S
O15 C18 1.250 . S
O16 Mg17 2.028 . S
O16 C18 1.248 . S
Mg17 O16 2.028 . S
Mg17 O22 2.032 . S
Mg17 O24 2.079 . S
C18 O15 1.250 . S
C18 O16 1.248 . S
C19 O20 1.264 . S
C19 O27 1.249 . S
O20 C19 1.264 . S
O21 Mg14 1.986 . S
O21 C25 1.246 . S
O22 Mg17 2.032 . S
O22 C25 1.259 . S
O23 Mg14 2.114 . S
O23 C26 1.252 . S
O24 Mg14 2.251 . S
O24 Mg17 2.079 . S
O24 C26 1.273 . S
C25 O21 1.246 . S
C25 O22 1.259 . S
C26 O23 1.252 . S
C26 O24 1.273 . S
O27 Mg14 2.010 . S
O27 C19 1.249 . S
Mg28 O29 2.028 . S
Mg28 O35 1.986 . S
Mg28 O37 2.114 . S
Mg28 O38 2.251 . S
Mg28 O41 2.010 . S
O29 Mg28 2.028 . S
O29 C32 1.250 . S
O30 Mg31 2.028 . S
O30 C32 1.248 . S
Mg31 O30 2.028 . S
Mg31 O36 2.032 . S
Mg31 O38 2.079 . S
C32 O29 1.250 . S
C32 O30 1.248 . S
C33 O34 1.264 . S
C33 O41 1.249 . S
O34 C33 1.264 . S
O35 Mg28 1.986 . S
O35 C39 1.246 . S
O36 Mg31 2.032 . S
O36 C39 1.259 . S
O37 Mg28 2.114 . S
O37 C40 1.252 . S
O38 Mg28 2.251 . S
O38 Mg31 2.079 . S
O38 C40 1.273 . S
C39 O35 1.246 . S
C39 O36 1.259 . S
C40 O37 1.252 . S
C40 O38 1.273 . S
O41 Mg28 2.010 . S
O41 C33 1.249 . S
Mg42 O43 2.028 . S
Mg42 O49 1.986 . S
Mg42 O51 2.114 . S
Mg42 O52 2.251 . S
Mg42 O55 2.010 . S
O43 Mg42 2.028 . S
O43 C46 1.250 . S
O44 Mg45 2.028 . S
O44 C46 1.248 . S
Mg45 O44 2.028 . S
Mg45 O50 2.032 . S
Mg45 O52 2.079 . S
C46 O43 1.250 . S
C46 O44 1.248 . S
C47 O48 1.264 . S
C47 O55 1.249 . S
O48 C47 1.264 . S
O49 Mg42 1.986 . S
O49 C53 1.246 . S
O50 Mg45 2.032 . S
O50 C53 1.259 . S
O51 Mg42 2.114 . S
O51 C54 1.252 . S
O52 Mg42 2.251 . S
O52 Mg45 2.079 . S
O52 C54 1.273 . S
C53 O49 1.246 . S
C53 O50 1.259 . S
C54 O51 1.252 . S
C54 O52 1.273 . S
O55 Mg42 2.010 . S
O55 C47 1.249 . S
Mg56 O57 2.028 . S
Mg56 O63 1.986 . S
Mg56 O65 2.114 . S
Mg56 O66 2.251 . S
Mg56 O69 2.010 . S
O57 Mg56 2.028 . S
O57 C60 1.250 . S
O58 Mg59 2.028 . S
O58 C60 1.248 . S
Mg59 O58 2.028 . S
Mg59 O64 2.032 . S
Mg59 O66 2.079 . S
C60 O57 1.250 . S
C60 O58 1.248 . S
C61 O62 1.264 . S
C61 O69 1.249 . S
O62 C61 1.264 . S
O63 Mg56 1.986 . S
O63 C67 1.246 . S
O64 Mg59 2.032 . S
O64 C67 1.259 . S
O65 Mg56 2.114 . S
O65 C68 1.252 . S
O66 Mg56 2.251 . S
O66 Mg59 2.079 . S
O66 C68 1.273 . S
C67 O63 1.246 . S
C67 O64 1.259 . S
C68 O65 1.252 . S
C68 O66 1.273 . S
O69 Mg56 2.010 . S
O69 C61 1.249 . S
Mg70 O71 2.028 . S
Mg70 O77 1.986 . S
Mg70 O79 2.114 . S
Mg70 O80 2.251 . S
Mg70 O83 2.010 . S
O71 Mg70 2.028 . S
O71 C74 1.250 . S
O72 Mg73 2.028 . S
O72 C74 1.248 . S
Mg73 O72 2.028 . S
Mg73 O78 2.032 . S
Mg73 O80 2.079 . S
C74 O71 1.250 . S
C74 O72 1.248 . S
C75 O76 1.264 . S
C75 O83 1.249 . S
O76 C75 1.264 . S
O77 Mg70 1.986 . S
O77 C81 1.246 . S
O78 Mg73 2.032 . S
O78 C81 1.259 . S
O79 Mg70 2.114 . S
O79 C82 1.252 . S
O80 Mg70 2.251 . S
O80 Mg73 2.079 . S
O80 C82 1.273 . S
C81 O77 1.246 . S
C81 O78 1.259 . S
C82 O79 1.252 . S
C82 O80 1.273 . S
O83 Mg70 2.010 . S
O83 C75 1.249 . S
Mg84 O85 2.028 . S
Mg84 O91 1.986 . S
Mg84 O93 2.114 . S
Mg84 O94 2.251 . S
Mg84 O97 2.010 . S
O85 Mg84 2.028 . S
O85 C88 1.250 . S
O86 Mg87 2.028 . S
O86 C88 1.248 . S
Mg87 O86 2.028 . S
Mg87 O92 2.032 . S
Mg87 O94 2.079 . S
C88 O85 1.250 . S
C88 O86 1.248 . S
C89 O90 1.264 . S
C89 O97 1.249 . S
O90 C89 1.264 . S
O91 Mg84 1.986 . S
O91 C95 1.246 . S
O92 Mg87 2.032 . S
O92 C95 1.259 . S
O93 Mg84 2.114 . S
O93 C96 1.252 . S
O94 Mg84 2.251 . S
O94 Mg87 2.079 . S
O94 C96 1.273 . S
C95 O91 1.246 . S
C95 O92 1.259 . S
C96 O93 1.252 . S
C96 O94 1.273 . S
O97 Mg84 2.010 . S
O97 C89 1.249 . S
Mg98 O99 2.028 . S
Mg98 O105 1.986 . S
Mg98 O107 2.114 . S
Mg98 O108 2.251 . S
Mg98 O111 2.010 . S
O99 Mg98 2.028 . S
O99 C102 1.250 . S
O100 Mg101 2.028 . S
O100 C102 1.248 . S
Mg101 O100 2.028 . S
Mg101 O106 2.032 . S
Mg101 O108 2.079 . S
C102 O99 1.250 . S
C102 O100 1.248 . S
C103 O104 1.264 . S
C103 O111 1.249 . S
O104 C103 1.264 . S
O105 Mg98 1.986 . S
O105 C109 1.246 . S
O106 Mg101 2.032 . S
O106 C109 1.259 . S
O107 Mg98 2.114 . S
O107 C110 1.252 . S
O108 Mg98 2.251 . S
O108 Mg101 2.079 . S
O108 C110 1.273 . S
C109 O105 1.246 . S
C109 O106 1.259 . S
C110 O107 1.252 . S
C110 O108 1.273 . S
O111 Mg98 2.010 . S
O111 C103 1.249 . S
Mg112 O113 2.028 . S
Mg112 O119 1.986 . S
Mg112 O121 2.114 . S
Mg112 O122 2.251 . S
Mg112 O125 2.010 . S
O113 Mg112 2.028 . S
O113 C116 1.250 . S
O114 Mg115 2.028 . S
O114 C116 1.248 . S
Mg115 O114 2.028 . S
Mg115 O120 2.032 . S
Mg115 O122 2.079 . S
C116 O113 1.250 . S
C116 O114 1.248 . S
C117 O118 1.264 . S
C117 O125 1.249 . S
O118 C117 1.264 . S
O119 Mg112 1.986 . S
O119 C123 1.246 . S
O120 Mg115 2.032 . S
O120 C123 1.259 . S
O121 Mg112 2.114 . S
O121 C124 1.252 . S
O122 Mg112 2.251 . S
O122 Mg115 2.079 . S
O122 C124 1.273 . S
C123 O119 1.246 . S
C123 O120 1.259 . S
C124 O121 1.252 . S
C124 O122 1.273 . S
O125 Mg112 2.010 . S
O125 C117 1.249 . S
Mg126 O127 2.028 . S
Mg126 O133 1.986 . S
Mg126 O135 2.114 . S
Mg126 O136 2.251 . S
Mg126 O139 2.010 . S
O127 Mg126 2.028 . S
O127 C130 1.250 . S
O128 Mg129 2.028 . S
O128 C130 1.248 . S
Mg129 O128 2.028 . S
Mg129 O134 2.032 . S
Mg129 O136 2.079 . S
C130 O127 1.250 . S
C130 O128 1.248 . S
C131 O132 1.264 . S
C131 O139 1.249 . S
O132 C131 1.264 . S
O133 Mg126 1.986 . S
O133 C137 1.246 . S
O134 Mg129 2.032 . S
O134 C137 1.259 . S
O135 Mg126 2.114 . S
O135 C138 1.252 . S
O136 Mg126 2.251 . S
O136 Mg129 2.079 . S
O136 C138 1.273 . S
C137 O133 1.246 . S
C137 O134 1.259 . S
C138 O135 1.252 . S
C138 O136 1.273 . S
O139 Mg126 2.010 . S
O139 C131 1.249 . S
Mg140 O141 2.028 . S
Mg140 O147 1.986 . S
Mg140 O149 2.114 . S
Mg140 O150 2.251 . S
Mg140 O153 2.010 . S
O141 Mg140 2.028 . S
O141 C144 1.250 . S
O142 Mg143 2.028 . S
O142 C144 1.248 . S
Mg143 O142 2.028 . S
Mg143 O148 2.032 . S
Mg143 O150 2.079 . S
C144 O141 1.250 . S
C144 O142 1.248 . S
C145 O146 1.264 . S
C145 O153 1.249 . S
O146 C145 1.264 . S
O147 Mg140 1.986 . S
O147 C151 1.246 . S
O148 Mg143 2.032 . S
O148 C151 1.259 . S
O149 Mg140 2.114 . S
O149 C152 1.252 . S
O150 Mg140 2.251 . S
O150 Mg143 2.079 . S
O150 C152 1.273 . S
C151 O147 1.246 . S
C151 O148 1.259 . S
C152 O149 1.252 . S
C152 O150 1.273 . S
O153 Mg140 2.010 . S
O153 C145 1.249 . S
Mg154 O155 2.028 . S
Mg154 O161 1.986 . S
Mg154 O163 2.114 . S
Mg154 O164 2.251 . S
Mg154 O167 2.010 . S
O155 Mg154 2.028 . S
O155 C158 1.250 . S
O156 Mg157 2.028 . S
O156 C158 1.248 . S
Mg157 O156 2.028 . S
Mg157 O162 2.032 . S
Mg157 O164 2.079 . S
C158 O155 1.250 . S
C158 O156 1.248 . S
C159 O160 1.264 . S
C159 O167 1.249 . S
O160 C159 1.264 . S
O161 Mg154 1.986 . S
O161 C165 1.246 . S
O162 Mg157 2.032 . S
O162 C165 1.259 . S
O163 Mg154 2.114 . S
O163 C166 1.252 . S
O164 Mg154 2.251 . S
O164 Mg157 2.079 . S
O164 C166 1.273 . S
C165 O161 1.246 . S
C165 O162 1.259 . S
C166 O163 1.252 . S
C166 O164 1.273 . S
O167 Mg154 2.010 . S
O167 C159 1.249 . S
Mg168 O169 2.028 . S
Mg168 O175 1.986 . S
Mg168 O177 2.114 . S
Mg168 O178 2.251 . S
Mg168 O181 2.010 . S
O169 Mg168 2.028 . S
O169 C172 1.250 . S
O170 Mg171 2.028 . S
O170 C172 1.248 . S
Mg171 O170 2.028 . S
Mg171 O176 2.032 . S
Mg171 O178 2.079 . S
C172 O169 1.250 . S
C172 O170 1.248 . S
C173 O174 1.264 . S
C173 O181 1.249 . S
O174 C173 1.264 . S
O175 Mg168 1.986 . S
O175 C179 1.246 . S
O176 Mg171 2.032 . S
O176 C179 1.259 . S
O177 Mg168 2.114 . S
O177 C180 1.252 . S
O178 Mg168 2.251 . S
O178 Mg171 2.079 . S
O178 C180 1.273 . S
C179 O175 1.246 . S
C179 O176 1.259 . S
C180 O177 1.252 . S
C180 O178 1.273 . S
O181 Mg168 2.010 . S
O181 C173 1.249 . S
Mg182 O183 2.028 . S
Mg182 O189 1.986 . S
Mg182 O191 2.114 . S
Mg182 O192 2.251 . S
Mg182 O195 2.010 . S
O183 Mg182 2.028 . S
O183 C186 1.250 . S
O184 Mg185 2.028 . S
O184 C186 1.248 . S
Mg185 O184 2.028 . S
Mg185 O190 2.032 . S
Mg185 O192 2.079 . S
C186 O183 1.250 . S
C186 O184 1.248 . S
C187 O188 1.264 . S
C187 O195 1.249 . S
O188 C187 1.264 . S
O189 Mg182 1.986 . S
O189 C193 1.246 . S
O190 Mg185 2.032 . S
O190 C193 1.259 . S
O191 Mg182 2.114 . S
O191 C194 1.252 . S
O192 Mg182 2.251 . S
O192 Mg185 2.079 . S
O192 C194 1.273 . S
C193 O189 1.246 . S
C193 O190 1.259 . S
C194 O191 1.252 . S
C194 O192 1.273 . S
O195 Mg182 2.010 . S
O195 C187 1.249 . S
Mg196 O197 2.028 . S
Mg196 O203 1.986 . S
Mg196 O205 2.114 . S
Mg196 O206 2.251 . S
Mg196 O209 2.010 . S
O197 Mg196 2.028 . S
O197 C200 1.250 . S
O198 Mg199 2.028 . S
O198 C200 1.248 . S
Mg199 O198 2.028 . S
Mg199 O204 2.032 . S
Mg199 O206 2.079 . S
C200 O197 1.250 . S
C200 O198 1.248 . S
C201 O202 1.264 . S
C201 O209 1.249 . S
O202 C201 1.264 . S
O203 Mg196 1.986 . S
O203 C207 1.246 . S
O204 Mg199 2.032 . S
O204 C207 1.259 . S
O205 Mg196 2.114 . S
O205 C208 1.252 . S
O206 Mg196 2.251 . S
O206 Mg199 2.079 . S
O206 C208 1.273 . S
C207 O203 1.246 . S
C207 O204 1.259 . S
C208 O205 1.252 . S
C208 O206 1.273 . S
O209 Mg196 2.010 . S
O209 C201 1.249 . S
Mg210 O211 2.028 . S
Mg210 O217 1.986 . S
Mg210 O219 2.114 . S
Mg210 O220 2.251 . S
Mg210 O223 2.010 . S
O211 Mg210 2.028 . S
O211 C214 1.250 . S
O212 Mg213 2.028 . S
O212 C214 1.248 . S
Mg213 O212 2.028 . S
Mg213 O218 2.032 . S
Mg213 O220 2.079 . S
C214 O211 1.250 . S
C214 O212 1.248 . S
C215 O216 1.264 . S
C215 O223 1.249 . S
O216 C215 1.264 . S
O217 Mg210 1.986 . S
O217 C221 1.246 . S
O218 Mg213 2.032 . S
O218 C221 1.259 . S
O219 Mg210 2.114 . S
O219 C222 1.252 . S
O220 Mg210 2.251 . S
O220 Mg213 2.079 . S
O220 C222 1.273 . S
C221 O217 1.246 . S
C221 O218 1.259 . S
C222 O219 1.252 . S
C222 O220 1.273 . S
O223 Mg210 2.010 . S
O223 C215 1.249 . S
C215 C5 0.640 . S
C173 C19 0.573 . S
C33 C187 0.426 . S
C201 C47 0.573 . S
C131 C61 0.573 . S
C75 C145 0.426 . S
C89 C159 0.573 . S
C103 C117 0.640 . S
C82 C12 1.394 1_556 S
C88 C18 1.575 1_556 S
C110 C40 1.394 1_556 S
C53 C67 1.282 1_554 S
C4 C26 1.401 1_455 S
C39 C25 1.193 1_565 S
C32 C46 1.393 1_655 S
C11 C54 1.238 1_545 S
C109 C68 1.238 1_655 S
C60 C74 1.393 1_565 S
C81 C95 1.193 1_455 S
C102 C96 1.401 1_565 S
C194 C124 1.394 . S
C130 C200 1.575 . S
C222 C152 1.394 . S
C179 C165 1.282 . S
C116 C138 1.401 . S
C137 C151 1.193 . S
C158 C144 1.393 . S
C123 C166 1.238 . S
C221 C180 1.238 . S
C172 C186 1.393 . S
C193 C207 1.193 . S
C214 C208 1.401 . S
