# Generated by pormake.
# Topology pcu, (6)-cn, num edge types: 1
# Building blocks:
#     Node 0, Type 0, BuildingBlock: MIFKUJ_clean_sbu_0, # of connection points: 6
#     Edge 1, Type (0, 0), BuildingBlock: KIFKEQ_clean_linker_1, # of connection points: 2
#     Edge 2, Type (0, 0), BuildingBlock: KIFKEQ_clean_linker_1, # of connection points: 2
#     Edge 3, Type (0, 0), BuildingBlock: KIFKEQ_clean_linker_1, # of connection points: 2
# Relax obj value: 0.000
# Max RMSD: 0.000
# Mean RMSD: 0.000
data_MOF--net-pcu--node1-MIFKUJ_clean_sbu_0--edge1-KIFKEQ_clean_linker_1
_symmetry_space_group_name_H-M    P1
_symmetry_Int_Tables_number       1
_symmetry_cell_setting            triclinic
loop_
_symmetry_equiv_pos_as_xyz
'x, y, z'
_cell_length_a     17.446706
_cell_length_b     19.139718
_cell_length_c     14.5597
_cell_angle_alpha  101.7981
_cell_angle_beta   89.99177
_cell_angle_gamma 111.73204
loop_
_atom_site_label
_atom_site_type_symbol
_atom_site_fract_x
_atom_site_fract_y
_atom_site_fract_z
_atom_type_partial_charge
Zn0 Zn 0.02439 0.89024 0.97036 0.0
Zn1 Zn 0.96463 0.06446 -0.00155 0.0
C2 C 0.19145 0.91689 0.94911 0.0
O3 O 0.155 0.87116 0.86811 0.0
C4 C 0.80621 0.05542 0.0607 0.0
O5 O 0.85288 0.11997 0.1184 0.0
O6 O 0.99274 0.77579 0.95713 0.0
O7 O 0.95991 0.92594 0.07019 0.0
O8 O 0.02145 0.05159 0.1098 0.0
C9 C 0.02534 0.75487 0.01924 0.0
O10 O 0.07355 0.80766 0.08964 0.0
O11 O 0.14723 0.93774 0.0098 0.0
C12 C 0.96426 0.19976 0.94516 0.0
O13 O 0.92141 0.14801 0.87079 0.0
O14 O 0.99234 0.17801 0.01 0.0
O15 O 0.99099 0.0226 0.86934 0.0
O16 O 0.01102 0.91219 0.84366 0.0
O17 O 0.84066 0.01829 0.00423 0.0
C18 C 1.0018 -0.01365 0.13074 0.0
C19 C 0.0042 0.96805 0.81447 0.0
H20 H 0.94801 0.85827 0.20568 0.0
H21 H 0.08656 0.1045 0.27833 0.0
H22 H 0.95684 0.85351 0.37107 0.0
H23 H 0.09712 0.09928 0.44333 0.0
H24 H 0.98898 0.0758 0.72666 0.0
H25 H 0.99829 0.07894 0.5614 0.0
H26 H 0.04761 0.86963 0.508 0.0
H27 H 0.03637 0.86527 0.67408 0.0
C28 C 0.98135 0.91121 0.25675 0.0
C29 C 0.01531 -0.01799 0.22916 0.0
C30 C 0.98687 0.90835 0.35147 0.0
C31 C 0.02677 0.97618 0.42035 0.0
C32 C 0.06444 0.04629 0.39205 0.0
C33 C 0.05868 0.04921 0.29748 0.0
C34 C 1.00185 0.03033 0.68003 0.0
C35 C 0.01135 0.96999 0.71371 0.0
C36 C 0.008 0.03259 0.58524 0.0
C37 C 0.02416 0.97477 0.5217 0.0
C38 C 0.03441 0.91466 0.55521 0.0
C39 C 0.02814 0.9123 0.65035 0.0
H40 H 0.28379 -0.01204 0.11865 0.0
H41 H 0.30261 0.89542 0.8267 0.0
H42 H 0.4311 0.01757 0.15263 0.0
H43 H 0.44937 0.92681 0.85976 0.0
H44 H 0.69066 0.92155 0.95751 0.0
H45 H 0.54161 0.887 0.93676 0.0
H46 H 0.56663 0.10165 0.12556 0.0
H47 H 0.71522 0.13498 0.14861 0.0
C48 C 0.3195 0.97463 0.06163 0.0
C49 C 0.28146 0.93919 0.97005 0.0
C50 C 0.40395 -0.0083 0.081 0.0
C51 C 0.45214 0.97397 0.0091 0.0
C52 C 0.41399 0.93966 0.91736 0.0
C53 C 0.32979 0.92226 0.89819 0.0
C54 C 0.66424 0.96099 -0.00467 0.0
C55 C 0.71494 0.03118 0.05428 0.0
C56 C 0.5788 0.94149 0.98292 0.0
C57 C 0.54205 -0.00803 0.02856 0.0
C58 C 0.59254 0.06106 0.0899 0.0
C59 C 0.67794 0.08033 0.10279 0.0
H60 H 0.11607 0.69805 0.11235 0.0
H61 H 0.91021 0.6273 0.90402 0.0
H62 H 0.10296 0.56496 0.09294 0.0
H63 H 0.89431 0.49309 0.88746 0.0
H64 H 0.94138 0.27062 0.80872 0.0
H65 H 0.95597 0.40439 0.82659 0.0
H66 H 0.0211 0.44573 0.12486 0.0
H67 H 0.01011 0.313 0.1058 0.0
C68 C 0.06719 0.65383 0.06322 0.0
C69 C 0.01415 0.67319 0.00971 0.0
C70 C 0.05934 0.57725 0.0524 0.0
C71 C 0.99744 0.51784 -0.01128 0.0
C72 C 0.94366 0.53729 0.93597 0.0
C73 C 0.95229 0.61417 0.94592 0.0
C74 C 0.95922 0.3085 0.87798 0.0
C75 C 0.97499 0.28141 0.95575 0.0
C76 C 0.96692 0.38512 0.88846 0.0
C77 C 0.98952 0.4362 0.97727 0.0
C78 C 0.00506 0.40871 0.05506 0.0
C79 C 0.99845 0.3324 0.04429 0.0
loop_
_geom_bond_atom_site_label_1
_geom_bond_atom_site_label_2
_geom_bond_distance
_geom_bond_site_symmetry_2
_ccdc_geom_bond_type
Zn0 O6 1.969 . S
Zn0 O7 1.965 1_456 S
Zn0 O11 2.024 1_556 S
Zn0 O16 1.969 . S
Zn1 O8 1.969 . S
Zn1 O14 1.969 . S
Zn1 O15 1.965 1_654 S
Zn1 O17 2.024 1_554 S
C2 O3 1.229 . S
C2 O11 1.058 1_556 S
O3 C2 1.229 . S
C4 O5 1.229 . S
C4 O17 1.058 1_554 S
O5 C4 1.229 . S
O6 Zn0 1.969 . S
O6 C9 1.267 1_556 S
O7 Zn0 1.965 1_654 S
O7 C18 1.266 . S
O8 Zn1 1.969 . S
O8 C18 1.249 1_545 S
C9 O6 1.267 1_554 S
C9 O10 1.228 . S
O10 C9 1.228 . S
O11 Zn0 2.024 1_554 S
O11 C2 1.058 1_554 S
C12 O13 1.228 . S
C12 O14 1.267 1_556 S
O13 C12 1.228 . S
O14 Zn1 1.969 . S
O14 C12 1.267 1_554 S
O15 Zn1 1.965 1_456 S
O15 C19 1.269 . S
O16 Zn0 1.969 . S
O16 C19 1.245 1_565 S
O17 Zn1 2.024 1_556 S
O17 C4 1.058 1_556 S
C18 O7 1.266 . S
C18 O8 1.249 1_565 S
C19 O15 1.269 . S
C19 O16 1.245 1_545 S
H20 C28 0.950 . S
H21 C33 0.950 . S
H22 C30 0.950 . S
H23 C32 0.950 . S
H24 C34 0.950 . S
H25 C36 0.950 . S
H26 C38 0.950 . S
H27 C39 0.950 . S
C28 H20 0.950 . S
C28 C29 1.393 1_655 S
C28 C30 1.391 . S
C29 C28 1.393 1_455 S
C29 C33 1.388 1_565 S
C30 H22 0.950 . S
C30 C28 1.391 . S
C30 C31 1.403 1_655 S
C31 C30 1.403 1_455 S
C31 C32 1.395 1_565 S
C31 C37 1.493 1_465 S
C32 H23 0.950 . S
C32 C31 1.395 1_545 S
C32 C33 1.391 . S
C33 H21 0.950 . S
C33 C29 1.388 1_545 S
C33 C32 1.391 . S
C34 H24 0.950 . S
C34 C35 1.396 1_455 S
C34 C36 1.391 . S
C35 C34 1.396 1_655 S
C35 C39 1.386 1_545 S
C36 H25 0.950 . S
C36 C34 1.391 . S
C36 C37 1.404 1_455 S
C37 C31 1.493 1_645 S
C37 C36 1.404 1_655 S
C37 C38 1.393 1_545 S
C38 H26 0.950 . S
C38 C37 1.393 1_565 S
C38 C39 1.391 . S
C39 H27 0.950 . S
C39 C35 1.386 1_565 S
C39 C38 1.391 . S
H40 C48 0.950 . S
H41 C53 0.950 . S
H42 C50 0.950 . S
H43 C52 0.950 . S
H44 C54 0.950 . S
H45 C56 0.950 . S
H46 C58 0.950 . S
H47 C59 0.950 . S
C48 H40 0.950 . S
C48 C49 1.386 1_545 S
C48 C50 1.391 . S
C49 C48 1.386 1_565 S
C49 C53 1.393 1_554 S
C50 H42 0.950 . S
C50 C48 1.391 . S
C50 C51 1.391 1_545 S
C51 C50 1.391 1_565 S
C51 C52 1.403 1_554 S
C51 C57 1.502 1_564 S
C52 H43 0.950 . S
C52 C51 1.403 1_556 S
C52 C53 1.391 . S
C53 H41 0.950 . S
C53 C49 1.393 1_556 S
C53 C52 1.391 . S
C54 H44 0.950 . S
C54 C55 1.386 1_565 S
C54 C56 1.391 . S
C55 C54 1.386 1_545 S
C55 C59 1.393 1_556 S
C56 H45 0.950 . S
C56 C54 1.391 . S
C56 C57 1.387 1_565 S
C57 C51 1.502 1_546 S
C57 C56 1.387 1_545 S
C57 C58 1.405 1_556 S
C58 H46 0.950 . S
C58 C57 1.405 1_554 S
C58 C59 1.391 . S
C59 H47 0.950 . S
C59 C55 1.393 1_554 S
C59 C58 1.391 . S
H60 C68 0.950 . S
H61 C73 0.950 . S
H62 C70 0.950 . S
H63 C72 0.950 . S
H64 C74 0.950 . S
H65 C76 0.950 . S
H66 C78 0.950 . S
H67 C79 0.950 . S
C68 H60 0.950 . S
C68 C69 1.391 1_556 S
C68 C70 1.391 . S
C69 C68 1.391 1_554 S
C69 C73 1.390 1_455 S
C70 H62 0.950 . S
C70 C68 1.391 . S
C70 C71 1.402 1_556 S
C71 C70 1.402 1_554 S
C71 C72 1.395 1_455 S
C71 C77 1.492 1_454 S
C72 H63 0.950 . S
C72 C71 1.395 1_655 S
C72 C73 1.391 . S
C73 H61 0.950 . S
C73 C69 1.390 1_655 S
C73 C72 1.391 . S
C74 H64 0.950 . S
C74 C75 1.387 1_554 S
C74 C76 1.391 . S
C75 C74 1.387 1_556 S
C75 C79 1.392 1_655 S
C76 H65 0.950 . S
C76 C74 1.391 . S
C76 C77 1.400 1_554 S
C77 C71 1.492 1_656 S
C77 C76 1.400 1_556 S
C77 C78 1.399 1_655 S
C78 H66 0.950 . S
C78 C77 1.399 1_455 S
C78 C79 1.391 . S
C79 H67 0.950 . S
C79 C75 1.392 1_455 S
C79 C78 1.391 . S
C29 C18 1.486 1_455 S
C35 C19 1.486 1_655 S
C49 C2 1.406 1_554 S
C55 C4 1.406 1_556 S
C69 C9 1.452 . S
C75 C12 1.452 . S
