# Generated by pormake.
# Topology pcu, (6)-cn, num edge types: 1
# Building blocks:
#     Node 0, Type 0, BuildingBlock: KUMJIN_clean_sbu_0, # of connection points: 6
#     Edge 1, Type (0, 0), BuildingBlock: FUNLAD_clean_linker_0, # of connection points: 2
#     Edge 2, Type (0, 0), BuildingBlock: FUNLAD_clean_linker_0, # of connection points: 2
#     Edge 3, Type (0, 0), BuildingBlock: FUNLAD_clean_linker_0, # of connection points: 2
# Relax obj value: 0.000
# Max RMSD: 0.000
# Mean RMSD: 0.000
data_MOF--net-pcu--node1-KUMJIN_clean_sbu_0--edge1-FUNLAD_clean_linker_0
_symmetry_space_group_name_H-M    P1
_symmetry_Int_Tables_number       1
_symmetry_cell_setting            triclinic
loop_
_symmetry_equiv_pos_as_xyz
'x, y, z'
_cell_length_a     16.361379
_cell_length_b     26.953744
_cell_length_c     17.848263
_cell_angle_alpha  115.78926
_cell_angle_beta   74.18266
_cell_angle_gamma 115.90231
loop_
_atom_site_label
_atom_site_type_symbol
_atom_site_fract_x
_atom_site_fract_y
_atom_site_fract_z
_atom_type_partial_charge
Eu0 Eu 0.08858 0.07766 0.03261 0.0
C1 C 0.80519 0.83758 0.82465 0.0
C2 C 0.6592 0.8317 0.9074 0.0
C3 C 0.66569 0.78493 0.75587 0.0
C4 C 0.75523 0.85179 0.90169 0.0
C5 C 0.76094 0.80297 0.75091 0.0
C6 C 0.61491 0.7993 0.834 0.0
C7 C 0.90733 0.80266 0.67372 0.0
N8 N 0.89688 0.85524 0.82217 0.0
C9 C 0.94798 0.83668 0.74863 0.0
C10 C 0.81351 0.78627 0.6747 0.0
Eu11 Eu 0.96157 0.91481 0.95078 0.0
N12 N 0.80013 0.88279 0.97133 0.0
C13 C 0.75262 0.89152 0.04886 0.0
C14 C 0.61046 0.84345 0.98678 0.0
C15 C 0.65734 0.87277 0.0578 0.0
H16 H 1.02062 0.84955 0.74755 0.0
H17 H 0.62021 0.88115 0.11949 0.0
H18 H 0.54127 0.78398 0.83709 0.0
H19 H 0.94835 0.78915 0.61533 0.0
H20 H 0.78795 0.91435 0.10429 0.0
H21 H 0.42991 0.11143 0.86382 0.0
H22 H 0.53667 0.82895 0.99388 0.0
H23 H 0.02959 0.14288 0.23588 0.0
H24 H 0.26216 0.07819 0.87906 0.0
H25 H 0.1019 0.20325 0.36808 0.0
H26 H 0.63048 0.75874 0.69987 0.0
H27 H 0.5135 0.16361 0.98939 0.0
H28 H 0.50896 0.20853 0.14617 0.0
H29 H 0.7821 0.75973 0.61663 0.0
H30 H 0.41978 0.23373 0.28342 0.0
N31 N 0.25003 0.10973 0.01202 0.0
C32 C 0.29752 0.10102 0.93448 0.0
C33 C 0.43971 0.1491 -0.00349 0.0
C34 C 0.39099 0.16082 0.0759 0.0
C35 C 0.3928 0.11979 0.92551 0.0
C36 C 0.29496 0.14071 0.08164 0.0
H37 H 0.26816 0.23269 0.36671 0.0
N38 N 0.15332 0.13722 0.1612 0.0
C39 C 0.14291 0.18977 0.30967 0.0
C40 C 0.24501 0.1549 0.1587 0.0
C41 C 0.10224 0.15576 0.23477 0.0
C42 C 0.23674 0.20616 0.30865 0.0
C43 C 0.28929 0.1895 0.23242 0.0
O44 O 0.04088 0.1504 0.0734 0.0
O45 O 0.95576 0.00437 -0.00291 0.0
O46 O 0.96664 0.95048 0.85548 0.0
O47 O 0.09533 0.0376 0.88942 0.0
O48 O 0.94931 0.07644 0.10318 0.0
O49 O 0.13546 0.13551 0.96169 0.0
O50 O 1.00938 0.84213 0.91005 0.0
O51 O 0.09427 0.9881 0.98621 0.0
O52 O 0.08354 0.04196 0.12787 0.0
O53 O 0.95482 0.95487 0.09396 0.0
O54 O 0.10094 0.91604 0.88032 0.0
O55 O 0.91452 0.85687 0.02159 0.0
C56 C 0.90144 0.02572 0.05332 0.0
C57 C 0.14099 0.23359 0.03866 0.0
C58 C 0.15191 0.32963 0.04886 0.0
C59 C 0.10622 0.26781 0.02486 0.0
C60 C 0.23335 0.35652 0.08684 0.0
C61 C 0.2221 0.26115 0.07667 0.0
C62 C 0.268 0.32239 0.10056 0.0
C63 C 0.03312 0.99558 0.83772 0.0
C64 C 0.09092 0.16939 0.01376 0.0
C65 C 0.38455 0.20754 0.22743 0.0
C66 C 0.43531 0.1932 0.14929 0.0
C67 C 0.14874 0.96681 0.93015 0.0
C68 C 0.90917 0.75883 0.94448 0.0
C69 C 0.94405 0.72454 0.95801 0.0
C70 C 0.89844 0.66271 0.93377 0.0
C71 C 0.81699 0.63586 0.89581 0.0
C72 C 0.82806 0.73131 0.90649 0.0
C73 C 0.78225 0.67005 0.88235 0.0
C74 C 1.01705 0.99688 0.14564 0.0
C75 C 0.95918 0.82305 0.96957 0.0
H76 H 0.04399 0.24605 0.99454 0.0
H77 H 0.26963 0.40402 0.10702 0.0
H78 H 0.24976 0.23544 0.08788 0.0
H79 H 0.33048 0.34354 0.13013 0.0
H80 H 1.00628 0.74627 0.98829 0.0
H81 H 0.78078 0.58835 0.87544 0.0
H82 H 0.80032 0.75706 0.89548 0.0
H83 H 0.71977 0.64894 0.85279 0.0
C84 C 0.08444 0.03052 0.27785 0.0
C85 C 1.01241 0.99293 0.22705 0.0
C86 C 0.08158 0.02573 0.3535 0.0
C87 C 1.00618 0.98326 0.38042 0.0
C88 C 0.93461 0.9455 0.32928 0.0
C89 C 0.93745 0.95031 0.25365 0.0
C90 C 1.00075 0.97527 0.45939 0.0
C91 C 0.04935 0.01723 0.52402 0.0
C92 C 0.04393 0.00924 0.60299 0.0
C93 C 0.11549 0.04701 0.65414 0.0
C94 C 0.11267 0.04218 0.72976 0.0
C95 C 0.03775 -0.00046 0.75632 0.0
H96 H 0.91036 0.93801 0.59427 0.0
C97 C 0.96573 0.96194 0.70552 0.0
C98 C 0.96857 0.96674 0.62989 0.0
H99 H 0.90599 0.92943 0.72481 0.0
H100 H 0.1442 0.063 0.25854 0.0
H101 H 0.13979 0.05445 0.38911 0.0
H102 H 0.87602 0.91206 0.34793 0.0
H103 H 0.88093 0.9204 0.21599 0.0
H104 H 0.95394 0.93296 0.46387 0.0
H105 H 0.09615 0.05954 0.51954 0.0
H106 H 0.17406 0.08047 0.63551 0.0
H107 H 0.16919 0.07211 0.76742 0.0
C108 C 0.27288 0.00165 0.01872 0.0
C109 C 0.24374 0.97975 0.93945 0.0
C110 C 0.36038 0.0083 0.02634 0.0
C111 C 0.42006 0.99221 0.95458 0.0
C112 C 0.39104 0.9713 0.87551 0.0
C113 C 0.30348 0.96443 0.86799 0.0
C114 C 0.51306 0.99702 0.95913 0.0
C115 C 0.53714 0.99576 0.02468 0.0
C116 C 0.63013 0.00052 0.02918 0.0
C117 C 0.65926 0.02147 0.10821 0.0
C118 C 0.74682 0.02829 0.11566 0.0
C119 C 0.80644 0.01287 0.04415 0.0
H120 H 0.66923 0.96625 0.89523 0.0
C121 C 0.77719 0.99092 0.96492 0.0
C122 C 0.6897 0.98433 0.95737 0.0
H123 H 0.82227 0.97967 0.9087 0.0
H124 H 0.22771 0.01281 0.07489 0.0
H125 H 0.38076 0.02633 0.08851 0.0
H126 H 0.43559 0.95901 0.81917 0.0
H127 H 0.28217 0.94683 0.80616 0.0
H128 H 0.56253 0.00043 0.90519 0.0
H129 H 0.48768 0.99236 0.07863 0.0
H130 H 0.61479 0.03385 0.16459 0.0
H131 H 0.7682 0.04592 0.17746 0.0
C132 C 0.87759 0.57976 0.97579 0.0
C133 C 0.93587 0.62643 0.94791 0.0
C134 C 0.91279 0.54592 0.98964 0.0
C135 C 1.00735 0.55772 0.97529 0.0
C136 C 0.06549 0.6047 0.94818 0.0
C137 C 0.03029 0.63849 0.93432 0.0
C138 C 0.04857 0.52361 0.99017 0.0
C139 C 1.00197 0.46854 0.99177 0.0
C140 C 0.04315 0.43445 0.00675 0.0
C141 C 0.98498 0.38754 0.03398 0.0
C142 C 1.02013 0.3538 0.04802 0.0
C143 C 0.11454 0.36584 0.03448 0.0
H144 H 0.18493 0.4805 0.96868 0.0
C145 C 0.17286 0.41244 0.00645 0.0
C146 C 0.1377 0.44623 0.99244 0.0
H147 H 0.24572 0.4221 0.99371 0.0
H148 H 0.80473 0.57008 0.98857 0.0
H149 H 0.86558 0.5116 0.01331 0.0
H150 H 0.13858 0.6151 0.93702 0.0
H151 H 0.07711 0.67371 0.91204 0.0
H152 H 0.1206 0.54503 -0.00077 0.0
H153 H 0.92995 0.44711 0.98269 0.0
H154 H 0.91189 0.37716 0.04513 0.0
H155 H 0.97327 0.31865 0.07041 0.0
loop_
_geom_bond_atom_site_label_1
_geom_bond_atom_site_label_2
_geom_bond_distance
_geom_bond_site_symmetry_2
_ccdc_geom_bond_type
Eu0 N31 2.657 1_554 S
Eu0 N38 2.609 . S
Eu0 O44 2.558 . S
Eu0 O45 2.612 1_444 S
Eu0 O47 2.339 1_554 S
Eu0 O48 2.563 1_455 S
Eu0 O49 2.419 . S
Eu0 O51 2.380 . S
Eu0 O52 2.432 1_455 S
Eu0 C64 2.848 . S
C1 C4 1.429 . S
C1 C5 1.411 . S
C1 N8 1.377 . S
C2 C4 1.420 . S
C2 C6 1.423 . S
C2 C14 1.392 1_556 S
C3 C5 1.420 . S
C3 C6 1.351 . S
C3 H26 0.931 . S
C4 C1 1.429 . S
C4 C2 1.420 . S
C4 N12 1.362 1_556 S
C5 C1 1.411 . S
C5 C3 1.420 . S
C5 C10 1.395 . S
C6 C2 1.423 . S
C6 C3 1.351 . S
C6 H18 0.930 . S
C7 C9 1.400 . S
C7 C10 1.386 . S
C7 H19 0.930 . S
N8 C1 1.377 . S
N8 C9 1.321 . S
N8 Eu11 2.609 . S
C9 C7 1.400 . S
C9 N8 1.321 . S
C9 H16 0.930 . S
C10 C5 1.395 . S
C10 C7 1.386 . S
C10 H29 0.930 . S
Eu11 N8 2.609 . S
Eu11 N12 2.657 1_556 S
Eu11 O45 2.380 . S
Eu11 O46 2.432 1_655 S
Eu11 O50 2.558 . S
Eu11 O51 2.612 1_666 S
Eu11 O53 2.339 1_556 S
Eu11 O54 2.563 1_655 S
Eu11 O55 2.419 . S
Eu11 C75 2.848 . S
N12 C4 1.362 1_554 S
N12 Eu11 2.657 1_554 S
N12 C13 1.334 . S
C13 N12 1.334 . S
C13 C15 1.413 . S
C13 H20 0.929 . S
C14 C2 1.392 1_554 S
C14 C15 1.367 . S
C14 H22 0.930 . S
C15 C13 1.413 . S
C15 C14 1.367 . S
C15 H17 0.930 . S
H16 C9 0.930 . S
H17 C15 0.930 . S
H18 C6 0.930 . S
H19 C7 0.930 . S
H20 C13 0.929 . S
H21 C35 0.930 . S
H22 C14 0.930 . S
H23 C41 0.930 . S
H24 C32 0.929 . S
H25 C39 0.930 . S
H26 C3 0.931 . S
H27 C33 0.930 . S
H28 C66 0.930 . S
H29 C10 0.930 . S
H30 C65 0.931 . S
N31 Eu0 2.657 1_556 S
N31 C32 1.334 . S
N31 C36 1.362 1_556 S
C32 H24 0.929 . S
C32 N31 1.334 . S
C32 C35 1.413 . S
C33 H27 0.930 . S
C33 C34 1.392 1_556 S
C33 C35 1.367 . S
C34 C33 1.392 1_554 S
C34 C36 1.420 . S
C34 C66 1.423 . S
C35 H21 0.930 . S
C35 C32 1.413 . S
C35 C33 1.367 . S
C36 N31 1.362 1_554 S
C36 C34 1.420 . S
C36 C40 1.429 . S
H37 C42 0.930 . S
N38 Eu0 2.609 . S
N38 C40 1.377 . S
N38 C41 1.321 . S
C39 H25 0.930 . S
C39 C41 1.400 . S
C39 C42 1.386 . S
C40 C36 1.429 . S
C40 N38 1.377 . S
C40 C43 1.411 . S
C41 H23 0.930 . S
C41 N38 1.321 . S
C41 C39 1.400 . S
C42 H37 0.930 . S
C42 C39 1.386 . S
C42 C43 1.395 . S
C43 C40 1.411 . S
C43 C42 1.395 . S
C43 C65 1.420 . S
O44 Eu0 2.558 . S
O44 C64 1.257 . S
O45 Eu0 2.612 1_666 S
O45 Eu11 2.380 . S
O45 C56 1.276 1_566 S
O46 Eu11 2.432 1_455 S
O46 C63 1.264 . S
O47 Eu0 2.339 1_556 S
O47 C63 1.254 1_545 S
O48 Eu0 2.563 1_655 S
O48 C56 1.235 . S
O49 Eu0 2.419 . S
O49 C64 1.249 . S
O50 Eu11 2.558 . S
O50 C75 1.257 . S
O51 Eu0 2.380 . S
O51 Eu11 2.612 1_444 S
O51 C67 1.276 1_544 S
O52 Eu0 2.432 1_655 S
O52 C74 1.264 . S
O53 Eu11 2.339 1_554 S
O53 C74 1.254 1_565 S
O54 Eu11 2.563 1_455 S
O54 C67 1.235 . S
O55 Eu11 2.419 . S
O55 C75 1.249 . S
C56 O45 1.276 1_544 S
C56 O48 1.235 . S
C57 C59 1.393 . S
C57 C61 1.395 . S
C57 C64 1.492 . S
C58 C59 1.392 . S
C58 C60 1.386 . S
C59 C57 1.393 . S
C59 C58 1.392 . S
C59 H76 0.930 1_554 S
C60 C58 1.386 . S
C60 C62 1.395 . S
C60 H77 0.930 . S
C61 C57 1.395 . S
C61 C62 1.379 . S
C61 H78 0.930 . S
C62 C60 1.395 . S
C62 C61 1.379 . S
C62 H79 0.930 . S
C63 O46 1.264 . S
C63 O47 1.254 1_565 S
C64 Eu0 2.848 . S
C64 O44 1.257 . S
C64 O49 1.249 . S
C64 C57 1.492 . S
C65 H30 0.931 . S
C65 C43 1.420 . S
C65 C66 1.351 . S
C66 H28 0.930 . S
C66 C34 1.423 . S
C66 C65 1.351 . S
C67 O51 1.276 1_566 S
C67 O54 1.235 . S
C68 C69 1.393 . S
C68 C72 1.395 . S
C68 C75 1.492 . S
C69 C68 1.393 . S
C69 C70 1.392 . S
C69 H80 0.930 1_556 S
C70 C69 1.392 . S
C70 C71 1.386 . S
C71 C70 1.386 . S
C71 C73 1.395 . S
C71 H81 0.930 . S
C72 C68 1.395 . S
C72 C73 1.379 . S
C72 H82 0.930 . S
C73 C71 1.395 . S
C73 C72 1.379 . S
C73 H83 0.930 . S
C74 O52 1.264 . S
C74 O53 1.254 1_545 S
C75 Eu11 2.848 . S
C75 O50 1.257 . S
C75 O55 1.249 . S
C75 C68 1.492 . S
H76 C59 0.930 1_556 S
H77 C60 0.930 . S
H78 C61 0.930 . S
H79 C62 0.930 . S
H80 C69 0.930 1_554 S
H81 C71 0.930 . S
H82 C72 0.930 . S
H83 C73 0.930 . S
C84 C85 1.386 1_445 S
C84 C86 1.383 . S
C84 H100 0.951 . S
C85 C84 1.386 1_665 S
C85 C89 1.383 . S
C86 C84 1.383 . S
C86 C87 1.402 1_445 S
C86 H101 0.951 . S
C87 C86 1.402 1_665 S
C87 C88 1.375 . S
C87 C90 1.481 . S
C88 C87 1.375 . S
C88 C89 1.367 . S
C88 H102 0.951 . S
C89 C85 1.383 . S
C89 C88 1.367 . S
C89 H103 0.950 . S
C90 C87 1.481 . S
C90 C91 1.297 1_565 S
C90 H104 0.950 . S
C91 C90 1.297 1_545 S
C91 C92 1.479 . S
C91 H105 0.950 1_655 S
C92 C91 1.479 . S
C92 C93 1.375 1_655 S
C92 C98 1.404 1_545 S
C93 C92 1.375 1_455 S
C93 C94 1.369 . S
C93 H106 0.950 . S
C94 C93 1.369 . S
C94 C95 1.392 1_455 S
C94 H107 0.951 . S
C95 C94 1.392 1_655 S
C95 C97 1.384 1_545 S
H96 C98 0.949 . S
C97 C95 1.384 1_565 S
C97 C98 1.385 . S
C97 H99 0.950 . S
C98 C92 1.404 1_565 S
C98 H96 0.949 . S
C98 C97 1.385 . S
H99 C97 0.950 . S
H100 C84 0.951 . S
H101 C86 0.951 . S
H102 C88 0.951 . S
H103 C89 0.950 . S
H104 C90 0.950 . S
H105 C91 0.950 1_455 S
H106 C93 0.950 . S
H107 C94 0.951 . S
C108 C109 1.378 1_554 S
C108 C110 1.391 . S
C108 H124 0.950 1_565 S
C109 C108 1.378 1_556 S
C109 C113 1.383 . S
C110 C108 1.391 . S
C110 C111 1.402 1_554 S
C110 H125 0.951 . S
C111 C110 1.402 1_556 S
C111 C112 1.375 . S
C111 C114 1.481 . S
C112 C111 1.375 . S
C112 C113 1.367 . S
C112 H126 0.951 . S
C113 C109 1.383 . S
C113 C112 1.367 . S
C113 H127 0.950 . S
C114 C111 1.481 . S
C114 C115 1.297 1_556 S
C114 H128 0.950 . S
C115 C114 1.297 1_554 S
C115 C116 1.479 . S
C115 H129 0.950 . S
C116 C115 1.479 . S
C116 C117 1.375 . S
C116 C122 1.404 1_554 S
C117 C116 1.375 . S
C117 C118 1.369 . S
C117 H130 0.950 . S
C118 C117 1.369 . S
C118 C119 1.392 1_554 S
C118 H131 0.951 1_565 S
C119 C118 1.392 1_556 S
C119 C121 1.384 . S
H120 C122 0.949 . S
C121 C119 1.384 . S
C121 C122 1.385 . S
C121 H123 0.950 . S
C122 C116 1.404 1_556 S
C122 H120 0.949 . S
C122 C121 1.385 . S
H123 C121 0.950 . S
H124 C108 0.950 1_545 S
H125 C110 0.951 . S
H126 C112 0.951 . S
H127 C113 0.950 . S
H128 C114 0.950 . S
H129 C115 0.950 . S
H130 C117 0.950 . S
H131 C118 0.951 1_545 S
C132 C133 1.386 1_655 S
C132 C134 1.383 . S
C132 H148 0.951 . S
C133 C132 1.386 1_455 S
C133 C137 1.383 1_556 S
C134 C132 1.383 . S
C134 C135 1.402 1_655 S
C134 H149 0.951 . S
C135 C134 1.402 1_455 S
C135 C136 1.375 1_556 S
C135 C138 1.481 . S
C136 C135 1.375 1_554 S
C136 C137 1.367 . S
C136 H150 0.951 . S
C137 C133 1.383 1_554 S
C137 C136 1.367 . S
C137 H151 0.950 . S
C138 C135 1.481 . S
C138 C139 1.299 . S
C138 H152 0.950 1_556 S
C139 C138 1.299 . S
C139 C140 1.484 . S
C139 H153 0.943 1_455 S
C140 C139 1.484 . S
C140 C141 1.375 1_455 S
C140 C146 1.404 . S
C141 C140 1.375 1_655 S
C141 C142 1.369 . S
C141 H154 0.950 . S
C142 C141 1.369 . S
C142 C143 1.392 1_655 S
C142 H155 0.951 . S
C143 C142 1.392 1_455 S
C143 C145 1.384 1_556 S
H144 C146 0.949 1_554 S
C145 C143 1.384 1_554 S
C145 C146 1.385 1_554 S
C145 H147 0.950 . S
C146 C140 1.404 . S
C146 H144 0.949 1_556 S
C146 C145 1.385 1_556 S
H147 C145 0.950 . S
H148 C132 0.951 . S
H149 C134 0.951 . S
H150 C136 0.951 . S
H151 C137 0.950 . S
H152 C138 0.950 1_554 S
H153 C139 0.943 1_655 S
H154 C141 0.950 . S
H155 C142 0.951 . S
C85 C74 1.450 1_565 S
C95 C63 1.493 1_645 S
C109 C67 1.408 . S
C119 C56 1.476 1_566 S
C133 C70 1.333 1_455 S
C143 C58 1.377 1_556 S
