# Generated by pormake.
# Topology ure, (4)-cn, num edge types: 1
# Building blocks:
#     Node 0, Type 0, BuildingBlock: QUQFOY_clean_sbu_1, # of connection points: 4
#     Node 1, Type 0, BuildingBlock: QUQFOY_clean_sbu_1, # of connection points: 4
#     Node 2, Type 0, BuildingBlock: QUQFOY_clean_sbu_1, # of connection points: 4
#     Node 3, Type 0, BuildingBlock: QUQFOY_clean_sbu_1, # of connection points: 4
#     Node 4, Type 0, BuildingBlock: QUQFOY_clean_sbu_1, # of connection points: 4
#     Node 5, Type 0, BuildingBlock: QUQFOY_clean_sbu_1, # of connection points: 4
#     Node 6, Type 0, BuildingBlock: QUQFOY_clean_sbu_1, # of connection points: 4
#     Node 7, Type 0, BuildingBlock: QUQFOY_clean_sbu_1, # of connection points: 4
#     Node 8, Type 0, BuildingBlock: QUQFOY_clean_sbu_1, # of connection points: 4
#     Node 9, Type 0, BuildingBlock: QUQFOY_clean_sbu_1, # of connection points: 4
#     Node 10, Type 0, BuildingBlock: QUQFOY_clean_sbu_1, # of connection points: 4
#     Node 11, Type 0, BuildingBlock: QUQFOY_clean_sbu_1, # of connection points: 4
#     Node 12, Type 0, BuildingBlock: QUQFOY_clean_sbu_1, # of connection points: 4
#     Node 13, Type 0, BuildingBlock: QUQFOY_clean_sbu_1, # of connection points: 4
#     Node 14, Type 0, BuildingBlock: QUQFOY_clean_sbu_1, # of connection points: 4
#     Node 15, Type 0, BuildingBlock: QUQFOY_clean_sbu_1, # of connection points: 4
#     Edge 16, Type (0, 0), None
#     Edge 17, Type (0, 0), None
#     Edge 18, Type (0, 0), None
#     Edge 19, Type (0, 0), None
#     Edge 20, Type (0, 0), None
#     Edge 21, Type (0, 0), None
#     Edge 22, Type (0, 0), None
#     Edge 23, Type (0, 0), None
#     Edge 24, Type (0, 0), None
#     Edge 25, Type (0, 0), None
#     Edge 26, Type (0, 0), None
#     Edge 27, Type (0, 0), None
#     Edge 28, Type (0, 0), None
#     Edge 29, Type (0, 0), None
#     Edge 30, Type (0, 0), None
#     Edge 31, Type (0, 0), None
#     Edge 32, Type (0, 0), None
#     Edge 33, Type (0, 0), None
#     Edge 34, Type (0, 0), None
#     Edge 35, Type (0, 0), None
#     Edge 36, Type (0, 0), None
#     Edge 37, Type (0, 0), None
#     Edge 38, Type (0, 0), None
#     Edge 39, Type (0, 0), None
#     Edge 40, Type (0, 0), None
#     Edge 41, Type (0, 0), None
#     Edge 42, Type (0, 0), None
#     Edge 43, Type (0, 0), None
#     Edge 44, Type (0, 0), None
#     Edge 45, Type (0, 0), None
#     Edge 46, Type (0, 0), None
#     Edge 47, Type (0, 0), None
# Relax obj value: 0.270
# Max RMSD: 0.321
# Mean RMSD: 0.228
data_MOF--net-ure--node1-QUQFOY_clean_sbu_1--edge1-none
_symmetry_space_group_name_H-M    P1
_symmetry_Int_Tables_number       1
_symmetry_cell_setting            triclinic
loop_
_symmetry_equiv_pos_as_xyz
'x, y, z'
_cell_length_a     14.539188
_cell_length_b     16.568189
_cell_length_c     15.654076
_cell_angle_alpha  89.025289
_cell_angle_beta   90.851927
_cell_angle_gamma 89.844053
loop_
_atom_site_label
_atom_site_type_symbol
_atom_site_fract_x
_atom_site_fract_y
_atom_site_fract_z
_atom_type_partial_charge
O0 O 0.39708 0.18072 0.2113 0.0
Cd1 Cd 0.26044 0.17243 0.2404 0.0
Cd2 Cd 0.27167 0.34647 0.24597 0.0
O3 O 0.40387 0.3142 0.20852 0.0
O4 O 0.19413 0.08545 0.17693 0.0
O5 O 0.16825 0.21655 0.15522 0.0
C6 C 0.15064 0.14252 0.13572 0.0
C7 C 0.2406 0.48683 0.24378 0.0
C8 C 0.44258 0.24547 0.20199 0.0
C9 C 0.22859 0.24239 0.40693 0.0
O10 O 0.23428 0.30793 0.36475 0.0
O11 O 0.23694 0.1748 0.37081 0.0
O12 O 0.30395 0.45439 0.29037 0.0
O13 O 0.19579 0.44068 0.19281 0.0
O14 O 0.02484 0.95183 0.6642 0.0
Cd15 Cd -0.00665 0.92282 0.5406 0.0
Cd16 Cd 0.97846 0.09555 0.52665 0.0
O17 O 0.02278 0.08446 0.65443 0.0
O18 O 0.05079 0.81598 0.52095 0.0
O19 O 0.08154 0.9256 0.44301 0.0
C20 C 0.09529 0.84978 0.45951 0.0
C21 C 0.9798 0.23479 0.48017 0.0
C22 C 0.03133 0.02004 0.69909 0.0
C23 C 0.80805 0.97998 0.51056 0.0
O24 O 0.84718 0.04858 0.50906 0.0
O25 O 0.85454 0.91552 0.51945 0.0
O26 O 0.94631 0.20845 0.54939 0.0
O27 O 0.01899 0.18222 0.43342 0.0
O28 O 0.08877 0.80663 0.70762 0.0
Cd29 Cd 0.22239 0.82233 0.74727 0.0
Cd30 Cd 0.2171 0.64952 0.76266 0.0
O31 O 0.08267 0.67369 0.72183 0.0
O32 O 0.28716 0.91267 0.68653 0.0
O33 O 0.32487 0.78322 0.67463 0.0
C34 C 0.33894 0.85806 0.65372 0.0
C35 C 0.26097 0.51135 0.75467 0.0
C36 C 0.04375 0.74115 0.70477 0.0
C37 C 0.24621 0.75962 0.91976 0.0
O38 O 0.24906 0.6927 0.88148 0.0
O39 O 0.23526 0.82561 0.87867 0.0
O40 O 0.20156 0.5367 0.80736 0.0
O41 O 0.29569 0.56377 0.70285 0.0
O42 O 0.64513 0.01888 0.91929 0.0
Cd43 Cd 0.51047 0.9849 0.90042 0.0
Cd44 Cd 0.5189 0.97468 0.08117 0.0
O45 O 0.64913 0.02065 0.06006 0.0
O46 O 0.44604 0.05037 0.80805 0.0
O47 O 0.41506 0.06016 0.94598 0.0
C48 C 0.40072 0.08476 0.86799 0.0
C49 C 0.48203 0.97467 0.2264 0.0
C50 C 0.68802 0.03214 0.98895 0.0
C51 C 0.48618 0.82299 0.96915 0.0
O52 O 0.49028 0.86191 0.03799 0.0
O53 O 0.49192 0.85955 0.89745 0.0
O54 O 0.54587 0.9306 0.19693 0.0
O55 O 0.43875 0.0223 0.17381 0.0
O56 O 0.25897 0.60919 0.31357 0.0
Cd57 Cd 0.27034 0.72862 0.34109 0.0
Cd58 Cd 0.25635 0.72848 0.16273 0.0
O59 O 0.19903 0.61555 0.1844 0.0
O60 O 0.21248 0.74946 0.45232 0.0
O61 O 0.17309 0.81398 0.33114 0.0
C62 C 0.16259 0.80304 0.41244 0.0
C63 C 0.24968 0.75472 0.01318 0.0
C64 C 0.22639 0.57435 0.24865 0.0
C65 C 0.44224 0.75087 0.26898 0.0
O66 O 0.39391 0.73886 0.20201 0.0
O67 O 0.40467 0.75884 0.34078 0.0
O68 O 0.27596 0.68855 0.04747 0.0
O69 O 0.22067 0.80942 0.06344 0.0
O70 O 0.49435 0.9168 0.36352 0.0
Cd71 Cd 0.52235 0.91349 0.49225 0.0
Cd72 Cd 0.53039 0.07553 0.4674 0.0
O73 O 0.47151 0.04778 0.3518 0.0
O74 O 0.45578 0.82493 0.55328 0.0
O75 O 0.43012 0.95499 0.57555 0.0
C76 C 0.41103 0.88021 0.59252 0.0
C77 C 0.50797 0.21222 0.49133 0.0
C78 C 0.47323 0.97882 0.31872 0.0
C79 C 0.70738 0.97812 0.50335 0.0
O80 O 0.66608 0.04406 0.48624 0.0
O81 O 0.66228 0.91355 0.51592 0.0
O82 O 0.55707 0.18658 0.43055 0.0
O83 O 0.46992 0.16008 0.54134 0.0
O84 O 0.26831 0.37983 0.81366 0.0
Cd85 Cd 0.23476 0.2589 0.81797 0.0
Cd86 Cd 0.20747 0.28135 0.64516 0.0
O87 O 0.26189 0.39366 0.67322 0.0
O88 O 0.30107 0.19349 0.90893 0.0
O89 O 0.31504 0.17187 0.77014 0.0
C90 C 0.33628 0.15191 0.8483 0.0
C91 C 0.21686 0.25015 0.49906 0.0
C92 C 0.2736 0.42384 0.74652 0.0
C93 C 0.04234 0.25431 0.76093 0.0
O94 O 0.07529 0.2646 0.68694 0.0
O95 O 0.09475 0.24599 0.82606 0.0
O96 O 0.17758 0.31366 0.52604 0.0
O97 O 0.2549 0.20248 0.55501 0.0
O98 O 0.01304 0.08801 0.83175 0.0
Cd99 Cd 0.97582 0.09537 0.95979 0.0
Cd100 Cd 0.95919 0.93162 0.95215 0.0
O101 O 0.01084 0.95546 0.83224 0.0
O102 O 0.04493 0.18086 0.02253 0.0
O103 O 0.06145 0.04998 0.05092 0.0
C104 C 0.08329 0.12373 0.0676 0.0
C105 C 0.98119 0.79623 0.98815 0.0
C106 C 0.0245 0.02195 0.79323 0.0
C107 C 0.78856 0.03244 0.98686 0.0
O108 O 0.827 0.9648 0.97672 0.0
O109 O 0.8349 0.09737 0.98387 0.0
O110 O 0.92728 0.81915 0.92724 0.0
O111 O 0.02451 0.85044 0.0307 0.0
O112 O 0.75899 0.10919 0.81356 0.0
Cd113 Cd 0.77034 0.22862 0.84108 0.0
Cd114 Cd 0.75635 0.22848 0.66274 0.0
O115 O 0.69903 0.11555 0.68441 0.0
O116 O 0.71248 0.24946 0.9523 0.0
O117 O 0.67308 0.31398 0.83113 0.0
C118 C 0.66258 0.30304 0.91243 0.0
C119 C 0.7497 0.25473 0.51318 0.0
C120 C 0.7264 0.07434 0.74865 0.0
C121 C 0.94224 0.25087 0.76897 0.0
O122 O 0.89391 0.23885 0.702 0.0
O123 O 0.90466 0.25885 0.84078 0.0
O124 O 0.77595 0.18854 0.54747 0.0
O125 O 0.72068 0.30942 0.56345 0.0
O126 O -0.0056 0.41681 0.86353 0.0
Cd127 Cd 0.02235 0.41352 0.99227 0.0
Cd128 Cd 0.03038 0.57552 0.9674 0.0
O129 O 0.97149 0.54777 0.85181 0.0
O130 O 0.95578 0.32495 0.05328 0.0
O131 O 0.93011 0.45501 0.07556 0.0
C132 C 0.91103 0.38023 0.09253 0.0
C133 C 0.00793 0.7122 0.99133 0.0
C134 C 0.97328 0.47883 0.8187 0.0
C135 C 0.20738 0.47813 0.00335 0.0
O136 O 0.16607 0.54407 0.98623 0.0
O137 O 0.16228 0.41357 0.01594 0.0
O138 O 0.05703 0.68658 0.93054 0.0
O139 O 0.96991 0.66006 0.04136 0.0
O140 O 0.76827 0.87983 0.31365 0.0
Cd141 Cd 0.73475 0.75889 0.31795 0.0
Cd142 Cd 0.70748 0.78134 0.14517 0.0
O143 O 0.7619 0.89364 0.17322 0.0
O144 O 0.80108 0.69349 0.40891 0.0
O145 O 0.81505 0.67186 0.27012 0.0
C146 C 0.83629 0.65191 0.34828 0.0
C147 C 0.71685 0.75012 -0.00094 0.0
C148 C 0.77355 0.92385 0.24652 0.0
C149 C 0.54235 0.7543 0.26093 0.0
O150 O 0.57529 0.76461 0.18695 0.0
O151 O 0.59475 0.74596 0.32606 0.0
O152 O 0.67759 0.81364 0.02604 0.0
O153 O 0.75489 0.70247 0.05501 0.0
O154 O 0.14513 0.51886 0.41928 0.0
Cd155 Cd 0.01047 0.48489 0.40041 0.0
Cd156 Cd 0.0189 0.47467 0.58116 0.0
O157 O 0.14913 0.52064 0.56005 0.0
O158 O 0.94605 0.55036 0.30804 0.0
O159 O 0.91507 0.56016 0.44597 0.0
C160 C 0.90073 0.58476 0.36797 0.0
C161 C 0.98207 0.47467 0.72638 0.0
C162 C 0.18802 0.53212 0.48893 0.0
C163 C 0.98617 0.32298 0.46913 0.0
O164 O 0.99028 0.36189 0.53798 0.0
O165 O 0.99191 0.35954 0.39744 0.0
O166 O 0.04589 0.43058 0.6969 0.0
O167 O 0.93876 0.52229 0.6738 0.0
O168 O 0.52484 0.45183 0.16418 0.0
Cd169 Cd 0.49335 0.42284 0.04058 0.0
Cd170 Cd 0.47846 0.59556 0.02663 0.0
O171 O 0.52278 0.58446 0.15442 0.0
O172 O 0.55079 0.31598 0.02093 0.0
O173 O 0.58154 0.4256 0.94299 0.0
C174 C 0.59529 0.34978 0.95949 0.0
C175 C 0.47984 0.7348 0.98019 0.0
C176 C 0.53133 0.52004 0.19907 0.0
C177 C 0.30805 0.47999 0.01055 0.0
O178 O 0.34718 0.5486 0.00906 0.0
O179 O 0.35454 0.41553 0.01944 0.0
O180 O 0.44632 0.70846 0.04941 0.0
O181 O 0.51897 0.68224 0.9334 0.0
O182 O 0.89707 0.6807 0.7113 0.0
Cd183 Cd 0.76044 0.67241 0.7404 0.0
Cd184 Cd 0.77167 0.84646 0.74598 0.0
O185 O 0.90386 0.81418 0.70852 0.0
O186 O 0.69413 0.58543 0.67692 0.0
O187 O 0.66825 0.71653 0.65522 0.0
C188 C 0.65064 0.64249 0.63572 0.0
C189 C 0.74061 0.98682 0.74378 0.0
C190 C 0.94256 0.74545 0.70197 0.0
C191 C 0.72858 0.74236 0.90693 0.0
O192 O 0.73428 0.8079 0.86475 0.0
O193 O 0.73694 0.67477 0.87081 0.0
O194 O 0.80395 0.95438 0.79038 0.0
O195 O 0.6958 0.94067 0.69282 0.0
O196 O 0.58878 0.30665 0.20762 0.0
Cd197 Cd 0.72239 0.32235 0.24727 0.0
Cd198 Cd 0.71711 0.14954 0.26266 0.0
O199 O 0.58268 0.17371 0.22183 0.0
O200 O 0.78717 0.41269 0.18654 0.0
O201 O 0.82486 0.28324 0.17463 0.0
C202 C 0.83894 0.35808 0.15372 0.0
C203 C 0.76093 0.01136 0.25466 0.0
C204 C 0.54377 0.24116 0.20476 0.0
C205 C 0.74623 0.25963 0.41976 0.0
O206 O 0.74907 0.19271 0.38148 0.0
O207 O 0.73526 0.32563 0.37867 0.0
O208 O 0.70155 0.03672 0.30737 0.0
O209 O 0.79568 0.06378 0.20284 0.0
O210 O 0.51304 0.588 0.33173 0.0
Cd211 Cd 0.47582 0.59536 0.45978 0.0
Cd212 Cd 0.45919 0.43162 0.45212 0.0
O213 O 0.51085 0.45545 0.33222 0.0
O214 O 0.54493 0.68084 0.52253 0.0
O215 O 0.56145 0.54996 0.55091 0.0
C216 C 0.58329 0.62371 0.56759 0.0
C217 C 0.48122 0.29625 0.48813 0.0
C218 C 0.5245 0.52195 0.29321 0.0
C219 C 0.28856 0.53242 0.48684 0.0
O220 O 0.327 0.46479 0.4767 0.0
O221 O 0.3349 0.59735 0.48386 0.0
O222 O 0.42731 0.31914 0.42721 0.0
O223 O 0.52453 0.35046 0.53069 0.0
loop_
_geom_bond_atom_site_label_1
_geom_bond_atom_site_label_2
_geom_bond_distance
_geom_bond_site_symmetry_2
_ccdc_geom_bond_type
O0 Cd1 2.223 . S
O0 C8 1.315 . S
Cd1 O0 2.223 . S
Cd1 O4 2.297 . S
Cd1 O5 2.439 . S
Cd1 O11 2.240 . S
Cd2 O3 2.240 . S
Cd2 O10 2.223 . S
Cd2 O12 2.297 . S
Cd2 O13 2.439 . S
O3 Cd2 2.240 . S
O3 C8 1.279 . S
O4 Cd1 2.297 . S
O4 C6 1.247 . S
O5 Cd1 2.439 . S
O5 C6 1.208 . S
C6 O4 1.247 . S
C6 O5 1.208 . S
C7 O12 1.247 . S
C7 O13 1.208 . S
C8 O0 1.315 . S
C8 O3 1.279 . S
C9 O10 1.315 . S
C9 O11 1.279 . S
O10 Cd2 2.223 . S
O10 C9 1.315 . S
O11 Cd1 2.240 . S
O11 C9 1.279 . S
O12 Cd2 2.297 . S
O12 C7 1.247 . S
O13 Cd2 2.439 . S
O13 C7 1.208 . S
O14 Cd15 2.223 . S
O14 C22 1.315 . S
Cd15 O14 2.223 . S
Cd15 O18 2.297 1_655 S
Cd15 O19 2.439 1_655 S
Cd15 O25 2.240 1_565 S
Cd16 O17 2.240 1_655 S
Cd16 O24 2.223 . S
Cd16 O26 2.297 . S
Cd16 O27 2.439 1_655 S
O17 Cd16 2.240 1_455 S
O17 C22 1.279 1_445 S
O18 Cd15 2.297 1_455 S
O18 C20 1.247 . S
O19 Cd15 2.439 1_455 S
O19 C20 1.208 . S
C20 O18 1.247 . S
C20 O19 1.208 . S
C21 O26 1.247 . S
C21 O27 1.208 1_655 S
C22 O14 1.315 . S
C22 O17 1.279 1_665 S
C23 O24 1.315 . S
C23 O25 1.279 . S
O24 Cd16 2.223 . S
O24 C23 1.315 . S
O25 Cd15 2.240 1_545 S
O25 C23 1.279 . S
O26 Cd16 2.297 . S
O26 C21 1.247 . S
O27 Cd16 2.439 1_455 S
O27 C21 1.208 1_455 S
O28 Cd29 2.223 . S
O28 C36 1.315 . S
Cd29 O28 2.223 . S
Cd29 O32 2.297 . S
Cd29 O33 2.439 . S
Cd29 O39 2.240 . S
Cd30 O31 2.240 . S
Cd30 O38 2.223 . S
Cd30 O40 2.297 . S
Cd30 O41 2.439 . S
O31 Cd30 2.240 . S
O31 C36 1.279 . S
O32 Cd29 2.297 . S
O32 C34 1.247 . S
O33 Cd29 2.439 . S
O33 C34 1.208 . S
C34 O32 1.247 . S
C34 O33 1.208 . S
C35 O40 1.247 . S
C35 O41 1.208 . S
C36 O28 1.315 . S
C36 O31 1.279 . S
C37 O38 1.315 . S
C37 O39 1.279 . S
O38 Cd30 2.223 . S
O38 C37 1.315 . S
O39 Cd29 2.240 . S
O39 C37 1.279 . S
O40 Cd30 2.297 . S
O40 C35 1.247 . S
O41 Cd30 2.439 . S
O41 C35 1.208 . S
O42 Cd43 2.223 . S
O42 C50 1.315 . S
Cd43 O42 2.223 . S
Cd43 O46 2.297 1_565 S
Cd43 O47 2.439 1_565 S
Cd43 O53 2.238 1_556 S
Cd44 O45 2.240 1_554 S
Cd44 O52 2.223 . S
Cd44 O54 2.297 . S
Cd44 O55 2.439 . S
O45 Cd44 2.240 1_556 S
O45 C50 1.279 . S
O46 Cd43 2.297 1_545 S
O46 C48 1.247 . S
O47 Cd43 2.439 1_545 S
O47 C48 1.208 . S
C48 O46 1.247 . S
C48 O47 1.208 . S
C49 O54 1.247 . S
C49 O55 1.208 . S
C50 O42 1.315 . S
C50 O45 1.279 . S
C51 O52 1.315 . S
C51 O53 1.280 . S
O52 Cd44 2.223 . S
O52 C51 1.315 . S
O53 Cd43 2.238 1_554 S
O53 C51 1.280 . S
O54 Cd44 2.297 . S
O54 C49 1.247 . S
O55 Cd44 2.439 . S
O55 C49 1.208 . S
O56 Cd57 2.223 . S
O56 C64 1.315 . S
Cd57 O56 2.223 . S
Cd57 O60 2.297 . S
Cd57 O61 2.439 . S
Cd57 O67 2.240 . S
Cd58 O59 2.240 . S
Cd58 O66 2.223 . S
Cd58 O68 2.304 . S
Cd58 O69 2.439 . S
O59 Cd58 2.240 . S
O59 C64 1.279 . S
O60 Cd57 2.297 . S
O60 C62 1.247 . S
O61 Cd57 2.439 . S
O61 C62 1.208 . S
C62 O60 1.247 . S
C62 O61 1.208 . S
C63 O68 1.249 . S
C63 O69 1.208 . S
C64 O56 1.315 . S
C64 O59 1.279 . S
C65 O66 1.315 . S
C65 O67 1.279 . S
O66 Cd58 2.223 . S
O66 C65 1.315 . S
O67 Cd57 2.240 . S
O67 C65 1.279 . S
O68 Cd58 2.304 . S
O68 C63 1.249 . S
O69 Cd58 2.439 . S
O69 C63 1.208 . S
O70 Cd71 2.223 . S
O70 C78 1.315 . S
Cd71 O70 2.223 . S
Cd71 O74 2.297 . S
Cd71 O75 2.439 . S
Cd71 O81 2.240 1_565 S
Cd72 O73 2.240 1_545 S
Cd72 O80 2.223 . S
Cd72 O82 2.297 . S
Cd72 O83 2.439 . S
O73 Cd72 2.240 1_565 S
O73 C78 1.279 . S
O74 Cd71 2.297 . S
O74 C76 1.247 . S
O75 Cd71 2.439 . S
O75 C76 1.208 . S
C76 O74 1.247 . S
C76 O75 1.208 . S
C77 O82 1.247 . S
C77 O83 1.208 . S
C78 O70 1.315 . S
C78 O73 1.279 . S
C79 O80 1.315 . S
C79 O81 1.279 . S
O80 Cd72 2.223 . S
O80 C79 1.315 . S
O81 Cd71 2.240 1_545 S
O81 C79 1.279 . S
O82 Cd72 2.297 . S
O82 C77 1.247 . S
O83 Cd72 2.439 . S
O83 C77 1.208 . S
O84 Cd85 2.223 . S
O84 C92 1.315 . S
Cd85 O84 2.223 . S
Cd85 O88 2.297 . S
Cd85 O89 2.439 . S
Cd85 O95 2.240 . S
Cd86 O87 2.240 . S
Cd86 O94 2.223 . S
Cd86 O96 2.297 . S
Cd86 O97 2.439 . S
O87 Cd86 2.240 . S
O87 C92 1.279 . S
O88 Cd85 2.297 . S
O88 C90 1.247 . S
O89 Cd85 2.439 . S
O89 C90 1.208 . S
C90 O88 1.247 . S
C90 O89 1.208 . S
C91 O96 1.247 . S
C91 O97 1.208 . S
C92 O84 1.315 . S
C92 O87 1.279 . S
C93 O94 1.315 . S
C93 O95 1.279 . S
O94 Cd86 2.223 . S
O94 C93 1.315 . S
O95 Cd85 2.240 . S
O95 C93 1.279 . S
O96 Cd86 2.297 . S
O96 C91 1.247 . S
O97 Cd86 2.439 . S
O97 C91 1.208 . S
O98 Cd99 2.223 . S
O98 C106 1.315 . S
Cd99 O98 2.223 . S
Cd99 O102 2.297 1_656 S
Cd99 O103 2.439 1_656 S
Cd99 O109 2.240 1_545 S
Cd100 O101 2.240 . S
Cd100 O108 2.223 . S
Cd100 O110 2.297 . S
Cd100 O111 2.439 1_655 S
O101 Cd100 2.240 . S
O101 C106 1.279 1_565 S
O102 Cd99 2.297 1_454 S
O102 C104 1.247 . S
O103 Cd99 2.439 1_454 S
O103 C104 1.208 . S
C104 O102 1.247 . S
C104 O103 1.208 . S
C105 O110 1.247 . S
C105 O111 1.208 1_655 S
C106 O98 1.315 . S
C106 O101 1.279 1_545 S
C107 O108 1.315 . S
C107 O109 1.279 . S
O108 Cd100 2.223 . S
O108 C107 1.315 . S
O109 Cd99 2.240 1_565 S
O109 C107 1.279 . S
O110 Cd100 2.297 . S
O110 C105 1.247 . S
O111 Cd100 2.439 1_455 S
O111 C105 1.208 1_455 S
O112 Cd113 2.223 . S
O112 C120 1.315 . S
Cd113 O112 2.223 . S
Cd113 O116 2.297 . S
Cd113 O117 2.439 . S
Cd113 O123 2.240 . S
Cd114 O115 2.240 . S
Cd114 O122 2.223 . S
Cd114 O124 2.297 . S
Cd114 O125 2.439 . S
O115 Cd114 2.240 . S
O115 C120 1.279 . S
O116 Cd113 2.297 . S
O116 C118 1.247 . S
O117 Cd113 2.439 . S
O117 C118 1.208 . S
C118 O116 1.247 . S
C118 O117 1.208 . S
C119 O124 1.247 . S
C119 O125 1.208 . S
C120 O112 1.315 . S
C120 O115 1.279 . S
C121 O122 1.315 . S
C121 O123 1.279 . S
O122 Cd114 2.223 . S
O122 C121 1.315 . S
O123 Cd113 2.240 . S
O123 C121 1.279 . S
O124 Cd114 2.297 . S
O124 C119 1.247 . S
O125 Cd114 2.439 . S
O125 C119 1.208 . S
O126 Cd127 2.223 1_556 S
O126 C134 1.315 . S
Cd127 O126 2.223 1_554 S
Cd127 O130 2.297 1_455 S
Cd127 O131 2.439 1_455 S
Cd127 O137 2.240 . S
Cd128 O129 2.240 1_455 S
Cd128 O136 2.223 . S
Cd128 O138 2.297 . S
Cd128 O139 2.439 1_456 S
O129 Cd128 2.240 1_655 S
O129 C134 1.279 1_655 S
O130 Cd127 2.297 1_655 S
O130 C132 1.247 . S
O131 Cd127 2.439 1_655 S
O131 C132 1.208 . S
C132 O130 1.247 . S
C132 O131 1.208 . S
C133 O138 1.247 1_654 S
C133 O139 1.208 . S
C134 O126 1.315 . S
C134 O129 1.279 1_455 S
C135 O136 1.315 . S
C135 O137 1.279 1_556 S
O136 Cd128 2.223 . S
O136 C135 1.315 . S
O137 Cd127 2.240 . S
O137 C135 1.279 1_554 S
O138 Cd128 2.297 . S
O138 C133 1.247 1_456 S
O139 Cd128 2.439 1_654 S
O139 C133 1.208 . S
O140 Cd141 2.223 . S
O140 C148 1.315 . S
Cd141 O140 2.223 . S
Cd141 O144 2.297 . S
Cd141 O145 2.439 . S
Cd141 O151 2.240 . S
Cd142 O143 2.240 . S
Cd142 O150 2.223 . S
Cd142 O152 2.297 1_554 S
Cd142 O153 2.439 . S
O143 Cd142 2.240 . S
O143 C148 1.279 . S
O144 Cd141 2.297 . S
O144 C146 1.247 . S
O145 Cd141 2.439 . S
O145 C146 1.208 . S
C146 O144 1.247 . S
C146 O145 1.208 . S
C147 O152 1.247 1_554 S
C147 O153 1.208 . S
C148 O140 1.315 . S
C148 O143 1.279 . S
C149 O150 1.315 . S
C149 O151 1.279 . S
O150 Cd142 2.223 . S
O150 C149 1.315 . S
O151 Cd141 2.240 . S
O151 C149 1.279 . S
O152 Cd142 2.297 1_556 S
O152 C147 1.247 1_556 S
O153 Cd142 2.439 . S
O153 C147 1.208 . S
O154 Cd155 2.223 1_455 S
O154 C162 1.315 . S
Cd155 O154 2.223 1_655 S
Cd155 O158 2.297 . S
Cd155 O159 2.439 . S
Cd155 O165 2.240 . S
Cd156 O157 2.240 . S
Cd156 O164 2.223 . S
Cd156 O166 2.297 . S
Cd156 O167 2.439 1_455 S
O157 Cd156 2.240 . S
O157 C162 1.279 . S
O158 Cd155 2.297 . S
O158 C160 1.247 . S
O159 Cd155 2.439 . S
O159 C160 1.208 . S
C160 O158 1.247 . S
C160 O159 1.208 . S
C161 O166 1.247 1_655 S
C161 O167 1.208 . S
C162 O154 1.315 . S
C162 O157 1.279 . S
C163 O164 1.315 . S
C163 O165 1.279 1_455 S
O164 Cd156 2.223 . S
O164 C163 1.315 . S
O165 Cd155 2.240 . S
O165 C163 1.279 1_655 S
O166 Cd156 2.297 . S
O166 C161 1.247 1_455 S
O167 Cd156 2.439 1_655 S
O167 C161 1.208 . S
O168 Cd169 2.223 1_554 S
O168 C176 1.315 . S
Cd169 O168 2.223 1_556 S
Cd169 O172 2.297 . S
Cd169 O173 2.439 . S
Cd169 O179 2.240 . S
Cd170 O171 2.240 . S
Cd170 O178 2.223 . S
Cd170 O180 2.297 . S
Cd170 O181 2.439 1_554 S
O171 Cd170 2.240 . S
O171 C176 1.279 . S
O172 Cd169 2.297 . S
O172 C174 1.247 . S
O173 Cd169 2.439 . S
O173 C174 1.208 . S
C174 O172 1.247 . S
C174 O173 1.208 . S
C175 O180 1.247 1_556 S
C175 O181 1.208 . S
C176 O168 1.315 . S
C176 O171 1.279 . S
C177 O178 1.315 . S
C177 O179 1.279 1_554 S
O178 Cd170 2.223 . S
O178 C177 1.315 . S
O179 Cd169 2.240 . S
O179 C177 1.279 1_556 S
O180 Cd170 2.297 . S
O180 C175 1.247 1_554 S
O181 Cd170 2.439 1_556 S
O181 C175 1.208 . S
O182 Cd183 2.223 . S
O182 C190 1.315 . S
Cd183 O182 2.223 . S
Cd183 O186 2.297 . S
Cd183 O187 2.439 . S
Cd183 O193 2.240 . S
Cd184 O185 2.240 . S
Cd184 O192 2.223 . S
Cd184 O194 2.297 1_565 S
Cd184 O195 2.439 . S
O185 Cd184 2.240 . S
O185 C190 1.279 . S
O186 Cd183 2.297 . S
O186 C188 1.247 . S
O187 Cd183 2.439 . S
O187 C188 1.208 . S
C188 O186 1.247 . S
C188 O187 1.208 . S
C189 O194 1.247 . S
C189 O195 1.208 1_545 S
C190 O182 1.315 . S
C190 O185 1.279 . S
C191 O192 1.315 . S
C191 O193 1.279 . S
O192 Cd184 2.223 . S
O192 C191 1.315 . S
O193 Cd183 2.240 . S
O193 C191 1.279 . S
O194 Cd184 2.297 1_545 S
O194 C189 1.247 . S
O195 Cd184 2.439 . S
O195 C189 1.208 1_565 S
O196 Cd197 2.223 . S
O196 C204 1.315 . S
Cd197 O196 2.223 . S
Cd197 O200 2.297 . S
Cd197 O201 2.439 . S
Cd197 O207 2.240 . S
Cd198 O199 2.240 . S
Cd198 O206 2.223 . S
Cd198 O208 2.297 1_545 S
Cd198 O209 2.439 . S
O199 Cd198 2.240 . S
O199 C204 1.279 . S
O200 Cd197 2.297 . S
O200 C202 1.247 . S
O201 Cd197 2.439 . S
O201 C202 1.208 . S
C202 O200 1.247 . S
C202 O201 1.208 . S
C203 O208 1.247 . S
C203 O209 1.208 1_565 S
C204 O196 1.315 . S
C204 O199 1.279 . S
C205 O206 1.315 . S
C205 O207 1.279 . S
O206 Cd198 2.223 . S
O206 C205 1.315 . S
O207 Cd197 2.240 . S
O207 C205 1.279 . S
O208 Cd198 2.297 1_565 S
O208 C203 1.247 . S
O209 Cd198 2.439 . S
O209 C203 1.208 1_545 S
O210 Cd211 2.223 . S
O210 C218 1.315 . S
Cd211 O210 2.223 . S
Cd211 O214 2.297 . S
Cd211 O215 2.439 . S
Cd211 O221 2.240 . S
Cd212 O213 2.240 . S
Cd212 O220 2.223 . S
Cd212 O222 2.297 . S
Cd212 O223 2.439 . S
O213 Cd212 2.240 . S
O213 C218 1.279 . S
O214 Cd211 2.297 . S
O214 C216 1.247 . S
O215 Cd211 2.439 . S
O215 C216 1.208 . S
C216 O214 1.247 . S
C216 O215 1.208 . S
C217 O222 1.247 . S
C217 O223 1.208 . S
C218 O210 1.315 . S
C218 O213 1.279 . S
C219 O220 1.315 . S
C219 O221 1.279 . S
O220 Cd212 2.223 . S
O220 C219 1.315 . S
O221 Cd211 2.240 . S
O221 C219 1.279 . S
O222 Cd212 2.297 . S
O222 C217 1.247 . S
O223 Cd212 2.439 . S
O223 C217 1.208 . S
C6 C104 1.705 . S
C20 C62 1.803 . S
C76 C34 1.616 . S
C48 C90 2.296 . S
C118 C174 1.803 . S
C132 C202 1.616 . S
C160 C146 2.296 . S
C216 C188 1.704 . S
C9 C91 1.603 . S
C106 C22 2.761 1_545 S
C37 C63 1.643 1_556 S
C78 C49 2.113 . S
C8 C204 2.032 . S
C163 C21 0.942 1_455 S
C190 C36 2.032 1_655 S
C175 C51 0.942 1_556 S
C149 C65 2.119 . S
C77 C217 0.997 . S
C93 C121 2.119 1_455 S
C105 C133 0.997 1_556 S
C7 C64 1.999 . S
C120 C189 1.999 . S
C177 C135 1.888 1_554 S
C203 C148 1.894 . S
C107 C50 1.763 . S
C35 C92 1.894 . S
C162 C219 1.762 . S
C191 C147 1.603 1_556 S
C218 C176 2.761 . S
C205 C119 1.643 . S
C161 C134 2.113 1_655 S
C23 C79 1.888 . S
