# Generated by pormake.
# Topology hex, (8)-cn, num edge types: 1
# Building blocks:
#     Node 0, Type 0, BuildingBlock: LIZSOE_clean_sbu_0, # of connection points: 8
#     Edge 1, Type (0, 0), BuildingBlock: FUNLAD_clean_linker_0, # of connection points: 2
#     Edge 2, Type (0, 0), BuildingBlock: FUNLAD_clean_linker_0, # of connection points: 2
#     Edge 3, Type (0, 0), BuildingBlock: FUNLAD_clean_linker_0, # of connection points: 2
#     Edge 4, Type (0, 0), BuildingBlock: FUNLAD_clean_linker_0, # of connection points: 2
# Relax obj value: 0.117
# Max RMSD: 0.230
# Mean RMSD: 0.230
data_MOF--net-hex--node1-LIZSOE_clean_sbu_0--edge1-FUNLAD_clean_linker_0
_symmetry_space_group_name_H-M    P1
_symmetry_Int_Tables_number       1
_symmetry_cell_setting            triclinic
loop_
_symmetry_equiv_pos_as_xyz
'x, y, z'
_cell_length_a     17.53785
_cell_length_b     25.400368
_cell_length_c     17.871071
_cell_angle_alpha  105.95148
_cell_angle_beta   80.118259
_cell_angle_gamma 134.60418
loop_
_atom_site_label
_atom_site_type_symbol
_atom_site_fract_x
_atom_site_fract_y
_atom_site_fract_z
_atom_type_partial_charge
Co0 Co 0.07112 0.90475 0.04008 0.0
N1 N 1.02 0.82441 0.07634 0.0
C2 C 0.92094 0.76749 0.09878 0.0
N3 N 1.00572 0.72984 0.07659 0.0
C4 C 0.07024 0.80051 0.06458 0.0
C5 C 0.91219 0.70931 0.09926 0.0
Co6 Co 0.97635 0.08174 0.94426 0.0
N7 N 0.99891 0.14669 0.8949 0.0
N8 N 1.01469 0.23526 0.86876 0.0
C9 C 0.96801 0.17715 0.80642 0.0
C10 C 0.95923 0.12321 0.82232 0.0
C11 C 1.03287 0.21583 0.92174 0.0
Co12 Co 0.0389 0.0024 0.00074 0.0
C13 C 0.91363 0.05061 0.04498 0.0
H14 H 0.9182 0.06755 0.78565 0.0
O15 O 0.13371 0.98476 0.00553 0.0
O16 O 0.17578 0.11394 0.01696 0.0
O17 O 1.02368 0.01474 0.11572 0.0
O18 O 0.90075 0.88876 0.98321 0.0
O19 O 0.96813 0.83808 0.96042 0.0
O20 O 0.12026 0.15625 0.97355 0.0
O21 O 0.94276 0.01882 0.99524 0.0
O22 O 1.00702 0.04357 0.85411 0.0
O23 O 0.97807 0.90813 0.11148 0.0
O24 O 0.17127 0.97393 0.11217 0.0
O25 O 0.05543 0.98981 0.88363 0.0
O26 O 0.94933 0.11354 0.03541 0.0
C27 C 0.98645 0.96243 0.14853 0.0
C28 C 0.06982 0.26053 0.0043 0.0
H29 H 0.10505 0.24801 0.03268 0.0
H30 H 0.13051 0.32222 0.00631 0.0
H31 H 1.00033 0.2466 0.03796 0.0
C32 C 0.19311 0.1676 0.00136 0.0
C33 C 0.88971 0.83109 0.95807 0.0
H34 H 0.85618 0.76515 0.10695 0.0
H35 H 0.18436 0.84844 0.97535 0.0
H36 H 0.21609 0.82344 0.04241 0.0
H37 H 0.23501 0.90556 0.07186 0.0
C38 C 0.18289 0.84666 0.03696 0.0
C39 C 0.20353 0.01136 0.05883 0.0
C40 C 0.03869 0.00971 0.8346 0.0
H41 H 0.83967 0.65354 0.10808 0.0
H42 H 0.93447 0.17144 0.7559 0.0
C43 C 0.1025 0.36758 0.89736 0.0
C44 C 1.00865 0.2905 0.8862 0.0
C45 C 0.09735 0.42187 0.92643 0.0
C46 C 0.99778 0.39927 0.94457 0.0
C47 C 0.90394 0.32184 0.9321 0.0
C48 C 0.9093 0.26778 0.90263 0.0
C49 C 0.98948 0.45485 0.97948 0.0
C50 C 0.05883 0.5243 0.96452 0.0
C51 C 0.04561 0.57746 0.99555 0.0
C52 C 0.07133 0.62355 0.94836 0.0
C53 C 0.05704 0.67291 0.97481 0.0
C54 C 1.02059 0.67906 0.05006 0.0
H55 H 0.98863 0.54836 0.10869 0.0
C56 C 0.99482 0.63308 0.09756 0.0
C57 C 1.00749 0.58259 0.07062 0.0
H58 H 0.96571 0.63679 0.15546 0.0
H59 H 0.17968 0.38539 0.88635 0.0
H60 H 0.17154 0.48111 0.93738 0.0
H61 H 0.82656 0.30319 0.94613 0.0
H62 H 0.8366 0.20816 0.89565 0.0
H63 H 0.92032 0.43626 0.01444 0.0
H64 H 0.12147 0.54039 0.923 0.0
H65 H 0.09999 0.62 0.89018 0.0
H66 H 0.07337 0.70577 0.93608 0.0
C67 C 0.72578 0.96307 0.003 0.0
C68 C 0.79995 0.00392 0.06568 0.0
C69 C 0.64433 0.96236 0.00715 0.0
C70 C 0.63287 1.00003 0.0752 0.0
C71 C 0.69516 0.02922 0.14171 0.0
C72 C 0.77807 0.03141 0.13699 0.0
C73 C 0.5616 0.01351 0.07832 0.0
C74 C 0.53753 0.02131 0.01634 0.0
C75 C 0.47 0.03822 0.0214 0.0
C76 C 0.40517 0.00992 0.95696 0.0
C77 C 0.32742 0.01329 0.96439 0.0
C78 C 0.31356 0.04553 0.03649 0.0
H79 H 0.51853 0.10601 0.13957 0.0
C80 C 0.3897 0.08411 0.09696 0.0
C81 C 0.46622 0.07986 0.08988 0.0
H82 H 0.38146 0.10956 0.15326 0.0
H83 H 0.74042 0.94163 0.94692 0.0
H84 H 0.59469 0.93606 0.95565 0.0
H85 H 0.6864 0.05679 0.1957 0.0
H86 H 0.83408 0.06396 0.18608 0.0
H87 H 0.53317 0.02167 0.13516 0.0
H88 H 0.56516 0.01279 0.95926 0.0
H89 H 0.40819 0.97935 0.90265 0.0
H90 H 0.26993 0.98231 0.91672 0.0
C91 C 0.30948 0.30444 0.06167 0.0
C92 C 0.2995 0.24614 0.01211 0.0
C93 C 0.39153 0.37936 0.05251 0.0
C94 C 0.46595 0.39777 0.99336 0.0
C95 C 0.46135 0.34047 0.94837 0.0
C96 C 0.3783 0.26522 0.95705 0.0
C97 C 0.54798 0.47525 0.97606 0.0
C98 C 0.53572 0.52425 0.99058 0.0
C99 C 0.6172 0.60114 0.97163 0.0
C100 C 0.62051 0.65854 0.01369 0.0
C101 C 0.70298 0.73329 0.0031 0.0
C102 C 0.78342 0.75193 0.94968 0.0
H103 H 0.69014 0.57595 0.87687 0.0
C104 C 0.77412 0.69305 0.90263 0.0
C105 C 0.69223 0.61875 0.91326 0.0
H106 H 0.8349 0.70555 0.86093 0.0
H107 H 0.2495 0.29115 0.10451 0.0
H108 H 0.39449 0.42209 0.09055 0.0
H109 H 0.51844 0.35301 0.90311 0.0
H110 H 0.37108 0.22122 0.91676 0.0
H111 H 0.61941 0.49088 0.94776 0.0
H112 H 0.46431 0.50859 0.01904 0.0
H113 H 0.56266 0.64653 0.05808 0.0
H114 H 0.70872 0.77735 0.04126 0.0
C115 C 0.1186 0.05688 0.71436 0.0
C116 C 0.05671 0.99571 0.75111 0.0
C117 C 0.1087 0.04435 0.63418 0.0
C118 C 0.0355 0.97009 0.58908 0.0
C119 C 0.98136 0.909 0.62474 0.0
C120 C 0.99131 0.92166 0.70552 0.0
C121 C 1.01159 0.95511 0.50582 0.0
C122 C 1.01539 1.0012 0.47763 0.0
C123 C 0.99332 0.9883 0.39452 0.0
C124 C 0.04043 0.05069 0.36377 0.0
C125 C 1.03082 0.04185 0.28401 0.0
C126 C 0.97315 0.97018 0.23375 0.0
H127 H 0.88597 0.86574 0.36713 0.0
C128 C 0.91811 0.9069 0.26581 0.0
C129 C 0.92797 0.91575 0.3452 0.0
H130 H 0.87127 0.85063 0.22884 0.0
H131 H 0.16923 0.11454 0.74863 0.0
H132 H 0.15554 0.09294 0.60831 0.0
H133 H 0.92593 0.85124 0.59094 0.0
H134 H 0.9414 0.87363 0.73285 0.0
H135 H 0.98708 0.90361 0.46795 0.0
H136 H 0.03905 0.05219 0.51632 0.0
H137 H 0.08942 0.10708 0.40083 0.0
H138 H 0.07426 0.09172 0.26118 0.0
loop_
_geom_bond_atom_site_label_1
_geom_bond_atom_site_label_2
_geom_bond_distance
_geom_bond_site_symmetry_2
_ccdc_geom_bond_type
Co0 N1 2.034 . S
Co0 O15 2.262 1_654 S
Co0 O19 1.958 1_554 S
Co0 O23 1.950 1_655 S
Co0 O24 2.057 1_654 S
N1 Co0 2.034 . S
N1 C2 1.366 . S
N1 C4 1.332 1_655 S
C2 N1 1.366 . S
C2 C5 1.377 . S
C2 H34 0.931 . S
N3 C4 1.343 . S
N3 C5 1.333 1_455 S
C4 N1 1.332 1_455 S
C4 N3 1.343 . S
C4 C38 1.361 . S
C5 C2 1.377 . S
C5 N3 1.333 1_655 S
C5 H41 0.930 . S
Co6 N7 2.034 1_655 S
Co6 O20 1.950 1_655 S
Co6 O21 2.256 1_556 S
Co6 O22 1.958 . S
Co6 O26 2.059 . S
N7 Co6 2.034 1_455 S
N7 C10 1.366 . S
N7 C11 1.332 . S
N8 C9 1.337 . S
N8 C11 1.346 . S
C9 N8 1.337 . S
C9 C10 1.377 . S
C9 H42 0.930 . S
C10 N7 1.366 . S
C10 C9 1.377 . S
C10 H14 0.931 . S
C11 N7 1.332 . S
C11 N8 1.346 . S
C11 C28 1.361 1_556 S
Co12 O15 2.097 1_655 S
Co12 O16 2.065 1_666 S
Co12 O17 2.065 1_566 S
Co12 O18 2.042 . S
Co12 O21 2.099 1_566 S
Co12 O25 2.042 1_655 S
C13 O21 1.253 . S
C13 O26 1.261 1_554 S
H14 C10 0.931 . S
O15 Co0 2.262 1_456 S
O15 Co12 2.097 1_455 S
O15 C39 1.253 . S
O16 Co12 2.065 1_444 S
O16 C32 1.221 . S
O17 Co12 2.065 1_544 S
O17 C27 1.221 1_545 S
O18 Co12 2.042 . S
O18 C33 1.237 . S
O19 Co0 1.958 1_556 S
O19 C33 1.278 . S
O20 Co6 1.950 1_455 S
O20 C32 1.277 1_556 S
O21 Co6 2.256 1_554 S
O21 Co12 2.099 1_544 S
O21 C13 1.253 . S
O22 Co6 1.958 . S
O22 C40 1.278 . S
O23 Co0 1.950 1_455 S
O23 C27 1.277 1_455 S
O24 Co0 2.057 1_456 S
O24 C39 1.263 . S
O25 Co12 2.042 1_455 S
O25 C40 1.237 1_465 S
O26 Co6 2.059 . S
O26 C13 1.261 1_556 S
C27 O17 1.221 1_565 S
C27 O23 1.277 1_655 S
C28 C11 1.361 1_554 S
C28 H29 0.960 . S
C28 H30 0.961 . S
C28 H31 0.961 1_455 S
H29 C28 0.960 . S
H30 C28 0.961 . S
H31 C28 0.961 1_655 S
C32 O16 1.221 . S
C32 O20 1.277 1_554 S
C33 O18 1.237 . S
C33 O19 1.278 . S
H34 C2 0.931 . S
H35 C38 0.961 . S
H36 C38 0.961 . S
H37 C38 0.960 . S
C38 C4 1.361 . S
C38 H35 0.961 . S
C38 H36 0.961 . S
C38 H37 0.960 . S
C39 O15 1.253 . S
C39 O24 1.263 . S
C40 O22 1.278 . S
C40 O25 1.237 1_645 S
H41 C5 0.930 . S
H42 C9 0.930 . S
C43 C44 1.386 1_455 S
C43 C45 1.383 . S
C43 H59 0.951 . S
C44 C43 1.386 1_655 S
C44 C48 1.383 . S
C45 C43 1.383 . S
C45 C46 1.402 1_455 S
C45 H60 0.951 . S
C46 C45 1.402 1_655 S
C46 C47 1.375 . S
C46 C49 1.481 . S
C47 C46 1.375 . S
C47 C48 1.367 . S
C47 H61 0.951 . S
C48 C44 1.383 . S
C48 C47 1.367 . S
C48 H62 0.950 . S
C49 C46 1.481 . S
C49 C50 1.297 1_655 S
C49 H63 0.950 1_556 S
C50 C49 1.297 1_455 S
C50 C51 1.479 1_556 S
C50 H64 0.950 . S
C51 C50 1.479 1_554 S
C51 C52 1.375 . S
C51 C57 1.404 1_455 S
C52 C51 1.375 . S
C52 C53 1.369 . S
C52 H65 0.950 . S
C53 C52 1.369 . S
C53 C54 1.392 . S
C53 H66 0.951 . S
C54 C53 1.392 . S
C54 C56 1.384 1_455 S
H55 C57 0.949 . S
C56 C54 1.384 1_655 S
C56 C57 1.385 . S
C56 H58 0.950 . S
C57 C51 1.404 1_655 S
C57 H55 0.949 . S
C57 C56 1.385 . S
H58 C56 0.950 . S
H59 C43 0.951 . S
H60 C45 0.951 . S
H61 C47 0.951 . S
H62 C48 0.950 . S
H63 C49 0.950 1_554 S
H64 C50 0.950 . S
H65 C52 0.950 . S
H66 C53 0.951 . S
C67 C68 1.386 1_566 S
C67 C69 1.383 . S
C67 H83 0.951 . S
C68 C67 1.386 1_544 S
C68 C72 1.383 . S
C69 C67 1.383 . S
C69 C70 1.402 1_566 S
C69 H84 0.951 . S
C70 C69 1.402 1_544 S
C70 C71 1.375 . S
C70 C73 1.481 . S
C71 C70 1.375 . S
C71 C72 1.367 . S
C71 H85 0.951 . S
C72 C68 1.383 . S
C72 C71 1.367 . S
C72 H86 0.950 . S
C73 C70 1.481 . S
C73 C74 1.297 1_545 S
C73 H87 0.950 . S
C74 C73 1.297 1_565 S
C74 C75 1.479 1_554 S
C74 H88 0.950 1_554 S
C75 C74 1.479 1_556 S
C75 C76 1.375 . S
C75 C81 1.404 1_566 S
C76 C75 1.375 . S
C76 C77 1.369 . S
C76 H89 0.950 . S
C77 C76 1.369 . S
C77 C78 1.392 . S
C77 H90 0.951 . S
C78 C77 1.392 . S
C78 C80 1.384 1_566 S
H79 C81 0.949 . S
C80 C78 1.384 1_544 S
C80 C81 1.385 . S
C80 H82 0.950 . S
C81 C75 1.404 1_544 S
C81 H79 0.949 . S
C81 C80 1.385 . S
H82 C80 0.950 . S
H83 C67 0.951 . S
H84 C69 0.951 . S
H85 C71 0.951 . S
H86 C72 0.950 . S
H87 C73 0.950 . S
H88 C74 0.950 1_556 S
H89 C76 0.950 . S
H90 C77 0.951 . S
C91 C92 1.386 . S
C91 C93 1.383 . S
C91 H107 0.951 . S
C92 C91 1.386 . S
C92 C96 1.383 1_554 S
C93 C91 1.383 . S
C93 C94 1.402 1_554 S
C93 H108 0.951 . S
C94 C93 1.402 1_556 S
C94 C95 1.375 . S
C94 C97 1.481 . S
C95 C94 1.375 . S
C95 C96 1.367 . S
C95 H109 0.951 . S
C96 C92 1.383 1_556 S
C96 C95 1.367 . S
C96 H110 0.950 . S
C97 C94 1.481 . S
C97 C98 1.293 1_556 S
C97 H111 0.950 . S
C98 C97 1.293 1_554 S
C98 C99 1.474 1_554 S
C98 H112 0.961 . S
C99 C98 1.474 1_556 S
C99 C100 1.375 1_556 S
C99 C105 1.404 . S
C100 C99 1.375 1_554 S
C100 C101 1.369 . S
C100 H113 0.950 . S
C101 C100 1.369 . S
C101 C102 1.392 1_554 S
C101 H114 0.951 . S
C102 C101 1.392 1_556 S
C102 C104 1.384 . S
H103 C105 0.949 . S
C104 C102 1.384 . S
C104 C105 1.385 . S
C104 H106 0.950 . S
C105 C99 1.404 . S
C105 H103 0.949 . S
C105 C104 1.385 . S
H106 C104 0.950 . S
H107 C91 0.951 . S
H108 C93 0.951 . S
H109 C95 0.951 . S
H110 C96 0.950 . S
H111 C97 0.950 . S
H112 C98 0.961 . S
H113 C100 0.950 . S
H114 C101 0.951 . S
C115 C116 1.386 1_445 S
C115 C117 1.383 . S
C115 H131 0.951 . S
C116 C115 1.386 1_665 S
C116 C120 1.383 . S
C117 C115 1.383 . S
C117 C118 1.402 1_445 S
C117 H132 0.951 . S
C118 C117 1.402 1_665 S
C118 C119 1.375 . S
C118 C121 1.481 . S
C119 C118 1.375 . S
C119 C120 1.367 . S
C119 H133 0.951 . S
C120 C116 1.383 . S
C120 C119 1.367 . S
C120 H134 0.950 . S
C121 C118 1.481 . S
C121 C122 1.297 1_655 S
C121 H135 0.950 . S
C122 C121 1.297 1_455 S
C122 C123 1.479 . S
C122 H136 0.950 . S
C123 C122 1.479 . S
C123 C124 1.375 1_565 S
C123 C129 1.404 1_455 S
C124 C123 1.375 1_545 S
C124 C125 1.369 . S
C124 H137 0.950 . S
C125 C124 1.369 . S
C125 C126 1.394 1_545 S
C125 H138 0.951 . S
C126 C125 1.394 1_565 S
C126 C128 1.383 1_455 S
H127 C129 0.949 . S
C128 C126 1.383 1_655 S
C128 C129 1.385 . S
C128 H130 0.950 . S
C129 C123 1.404 1_655 S
C129 H127 0.949 . S
C129 C128 1.385 . S
H130 C128 0.950 . S
H131 C115 0.951 . S
H132 C117 0.951 . S
H133 C119 0.951 . S
H134 C120 0.950 . S
H135 C121 0.950 . S
H136 C122 0.950 . S
H137 C124 0.950 . S
H138 C125 0.951 . S
C44 N8 1.483 1_655 S
C54 N3 1.297 . S
C68 C13 1.602 . S
C78 C39 1.493 . S
C92 C32 1.469 . S
C102 C33 1.451 . S
C116 C40 1.439 1_565 S
C126 C27 1.352 1_455 S
