# Generated by pormake.
# Topology bnn, (5)-cn, num edge types: 1
# Building blocks:
#     Node 0, Type 0, BuildingBlock: XOMCOT_clean_sbu_1, # of connection points: 5
#     Node 1, Type 0, BuildingBlock: XOMCOT_clean_sbu_1, # of connection points: 5
#     Edge 2, Type (0, 0), BuildingBlock: OJICUG_clean_linker_0, # of connection points: 2
#     Edge 3, Type (0, 0), BuildingBlock: OJICUG_clean_linker_0, # of connection points: 2
#     Edge 4, Type (0, 0), BuildingBlock: OJICUG_clean_linker_0, # of connection points: 2
#     Edge 5, Type (0, 0), BuildingBlock: OJICUG_clean_linker_0, # of connection points: 2
#     Edge 6, Type (0, 0), BuildingBlock: OJICUG_clean_linker_0, # of connection points: 2
# Relax obj value: 0.039
# Max RMSD: 0.097
# Mean RMSD: 0.097
data_MOF--net-bnn--node1-XOMCOT_clean_sbu_1--edge1-OJICUG_clean_linker_0
_symmetry_space_group_name_H-M    P1
_symmetry_Int_Tables_number       1
_symmetry_cell_setting            triclinic
loop_
_symmetry_equiv_pos_as_xyz
'x, y, z'
_cell_length_a     24.042266
_cell_length_b     19.648656
_cell_length_c     13.517314
_cell_angle_alpha  98.758107
_cell_angle_beta   90.103846
_cell_angle_gamma 127.55866
loop_
_atom_site_label
_atom_site_type_symbol
_atom_site_fract_x
_atom_site_fract_y
_atom_site_fract_z
_atom_type_partial_charge
C0 C 0.27176 0.60915 0.92458 0.0
C1 C 0.27009 0.60367 0.82179 0.0
N2 N 0.29723 0.68309 0.80177 0.0
N3 N 0.30031 0.69169 0.9695 0.0
C4 C 0.31452 0.73491 0.89298 0.0
H5 H 0.25442 0.55669 0.96428 0.0
Co6 Co 0.31765 0.73324 0.10763 0.0
C7 C 0.44482 0.91996 0.13146 0.0
O8 O 0.47444 0.91064 0.2045 0.0
N9 N 0.3333 0.77469 0.24845 0.0
C10 C 0.34088 0.85073 0.39534 0.0
C11 C 0.33912 0.84564 0.29275 0.0
C12 C 0.3294 0.73633 0.32609 0.0
N13 N 0.33428 0.78149 0.41603 0.0
O14 O 0.24055 0.73629 0.09832 0.0
H15 H 0.33886 0.88905 0.2526 0.0
H16 H 0.32033 0.67474 0.31759 0.0
O17 O 0.38359 0.8548 0.08651 0.0
C18 C 0.18742 0.66825 0.12547 0.0
O19 O 0.19586 0.61565 0.15984 0.0
N20 N 0.38721 0.7182 0.11333 0.0
C21 C 0.45821 0.6466 0.08303 0.0
C22 C 0.48462 0.72612 0.05384 0.0
C23 C 0.44709 0.75929 0.06658 0.0
C24 C 0.36102 0.64112 0.14194 0.0
C25 C 0.39586 0.60474 0.12876 0.0
H26 H 0.46375 0.81395 0.03202 0.0
H27 H 0.30912 0.60317 0.16652 0.0
H28 H 0.33684 0.80309 0.9041 0.0
H29 H 0.25166 0.54586 0.76665 0.0
H30 H 0.3428 0.89881 0.44984 0.0
H31 H 0.5322 0.76069 1.01726 0.0
H32 H 0.37135 0.54138 0.14821 0.0
C33 C 0.74628 0.5579 0.1971 0.0
C34 C 0.75005 0.56337 0.29991 0.0
N35 N 0.69799 0.48396 0.31984 0.0
N36 N 0.69251 0.47536 0.1521 0.0
C37 C 0.66362 0.43215 0.22858 0.0
H38 H 0.78123 0.61035 0.15747 0.0
Co39 Co 0.66834 0.43379 1.01393 0.0
C40 C 0.6089 0.24683 0.99066 0.0
O41 O 0.64776 0.25561 0.91795 0.0
N42 N 0.64258 0.3923 0.87309 0.0
C43 C 0.57441 0.31624 0.72598 0.0
C44 C 0.57771 0.3213 0.82858 0.0
C45 C 0.67691 0.4307 0.79556 0.0
N46 N 0.63679 0.38553 0.7055 0.0
O47 O 0.58825 0.43078 1.02291 0.0
H48 H 0.53418 0.27785 0.86856 0.0
H49 H 0.72922 0.49232 0.80423 0.0
O50 O 0.613 0.31231 0.03518 0.0
C51 C 0.60271 0.49866 0.99555 0.0
O52 O 0.66343 0.55126 0.96102 0.0
N53 N 0.75284 0.44874 1.00853 0.0
C54 C 0.89523 0.52024 0.03868 0.0
C55 C 0.84245 0.44068 0.06778 0.0
C56 C 0.77184 0.40754 0.0551 0.0
C57 C 0.8034 0.52589 0.98008 0.0
C58 C 0.87452 0.56223 0.99319 0.0
H59 H 0.73405 0.35277 0.08948 0.0
H60 H 0.78928 0.56388 0.9556 0.0
H61 H 0.61794 0.364 0.21739 0.0
H62 H 0.78926 0.62117 0.35512 0.0
H63 H 0.52843 0.26812 0.67132 0.0
H64 H 0.85564 0.40602 0.1042 0.0
H65 H 0.9131 0.62562 0.97383 0.0
C66 C 0.4913 0.55305 0.12236 0.0
C67 C 0.49184 0.6038 0.0584 0.0
H68 H 0.52462 0.47759 0.15103 0.0
C69 C 0.52361 0.6119 0.96914 0.0
H70 H 0.46784 0.54577 0.1921 0.0
C71 C 0.55693 0.57412 0.94696 0.0
C72 C 0.55782 0.52557 1.01206 0.0
H73 H 0.52308 0.64765 0.91612 0.0
H74 H 0.58299 0.58394 0.8793 0.0
C75 C 0.52348 0.51359 0.09885 0.0
C76 C 0.99553 0.55474 0.15216 0.0
C77 C 0.97157 0.56298 0.06309 0.0
H78 H 0.08304 0.58266 0.24172 0.0
C79 C 0.02141 0.61385 0.99914 0.0
H80 H 0.95953 0.51888 0.20518 0.0
C81 C 0.09298 0.65334 1.02249 0.0
C82 C 0.11564 0.64127 0.10911 0.0
H83 H 1.00501 0.62122 0.92953 0.0
H84 H 0.12984 0.68946 0.97033 0.0
C85 C 0.06656 0.59256 0.17419 0.0
C86 C 0.55694 1.04479 0.08118 0.0
C87 C 0.48581 1.00326 0.09487 0.0
H88 H 0.65102 0.15371 0.03479 0.0
C89 C 0.45509 1.04248 0.07446 0.0
H90 H 0.58165 1.01557 0.09613 0.0
C91 C 0.49555 0.12314 0.0428 0.0
C92 C 0.56633 0.16365 1.02735 0.0
H93 H 0.40035 1.01163 0.08489 0.0
H94 H 0.47127 0.15298 1.02845 0.0
C95 C 0.59646 0.12346 0.04596 0.0
C96 C 0.35325 0.79661 0.69558 0.0
C97 C 0.30726 0.70791 0.70406 0.0
H98 H 0.39804 0.88922 0.5972 0.0
C99 C 0.27144 0.64393 0.61511 0.0
H100 H 0.38298 0.84803 0.76148 0.0
C101 C 0.28119 0.66793 0.52073 0.0
C102 C 0.32641 0.75648 0.51286 0.0
H103 H 0.23486 0.57514 0.61792 0.0
H104 H 0.25188 0.61716 0.45402 0.0
C105 C 0.36231 0.82051 0.60123 0.0
C106 C 0.64082 0.37043 0.42602 0.0
C107 C 0.68324 0.45913 0.41754 0.0
H108 H 0.59327 0.27781 0.52439 0.0
C109 C 0.71114 0.52311 0.50646 0.0
H110 H 0.61934 0.31903 0.36016 0.0
C111 C 0.69693 0.4991 0.60082 0.0
C112 C 0.65388 0.41054 0.60869 0.0
H113 H 0.74313 0.5919 0.50362 0.0
H114 H 0.71818 0.54986 0.6675 0.0
C115 C 0.626 0.34652 0.52035 0.0
loop_
_geom_bond_atom_site_label_1
_geom_bond_atom_site_label_2
_geom_bond_distance
_geom_bond_site_symmetry_2
_ccdc_geom_bond_type
C0 C1 1.351 . S
C0 N3 1.368 . S
C0 H5 0.931 . S
C1 C0 1.351 . S
C1 N2 1.373 . S
C1 H29 0.930 . S
N2 C1 1.373 . S
N2 C4 1.340 . S
N3 C0 1.368 . S
N3 C4 1.321 . S
N3 Co6 2.135 1_556 S
C4 N2 1.340 . S
C4 N3 1.321 . S
C4 H28 0.930 . S
H5 C0 0.931 . S
Co6 N3 2.135 1_554 S
Co6 N9 2.121 . S
Co6 O14 2.055 . S
Co6 O17 2.039 . S
Co6 N20 2.140 . S
C7 O8 1.227 1_554 S
C7 O17 1.265 . S
O8 C7 1.227 1_556 S
N9 Co6 2.121 . S
N9 C11 1.375 . S
N9 C12 1.313 . S
C10 C11 1.338 . S
C10 N13 1.377 . S
C10 H30 0.930 . S
C11 N9 1.375 . S
C11 C10 1.338 . S
C11 H15 0.931 . S
C12 N9 1.313 . S
C12 N13 1.344 . S
C12 H16 0.930 . S
N13 C10 1.377 . S
N13 C12 1.344 . S
O14 Co6 2.055 . S
O14 C18 1.253 . S
H15 C11 0.931 . S
H16 C12 0.930 . S
O17 Co6 2.039 . S
O17 C7 1.265 . S
C18 O14 1.253 . S
C18 O19 1.227 . S
O19 C18 1.227 . S
N20 Co6 2.140 . S
N20 C23 1.346 1_554 S
N20 C24 1.345 . S
C21 C22 1.387 1_554 S
C21 C25 1.391 . S
C22 C21 1.387 1_556 S
C22 C23 1.369 . S
C22 H31 0.929 . S
C23 N20 1.346 1_556 S
C23 C22 1.369 . S
C23 H26 0.928 . S
C24 N20 1.345 . S
C24 C25 1.371 . S
C24 H27 0.931 . S
C25 C21 1.391 . S
C25 C24 1.371 . S
C25 H32 0.930 . S
H26 C23 0.928 . S
H27 C24 0.931 . S
H28 C4 0.930 . S
H29 C1 0.930 . S
H30 C10 0.930 . S
H31 C22 0.929 . S
H32 C25 0.930 . S
C33 C34 1.351 . S
C33 N36 1.368 . S
C33 H38 0.931 . S
C34 C33 1.351 . S
C34 N35 1.373 . S
C34 H62 0.930 . S
N35 C34 1.373 . S
N35 C37 1.340 . S
N36 C33 1.368 . S
N36 C37 1.321 . S
N36 Co39 2.135 . S
C37 N35 1.340 . S
C37 N36 1.321 . S
C37 H61 0.930 . S
H38 C33 0.931 . S
Co39 N36 2.135 . S
Co39 N42 2.121 1_554 S
Co39 O47 2.055 . S
Co39 O50 2.039 . S
Co39 N53 2.140 . S
C40 O41 1.227 . S
C40 O50 1.265 . S
O41 C40 1.227 . S
N42 Co39 2.121 1_556 S
N42 C44 1.375 . S
N42 C45 1.313 . S
C43 C44 1.338 . S
C43 N46 1.377 . S
C43 H63 0.930 . S
C44 N42 1.375 . S
C44 C43 1.338 . S
C44 H48 0.931 . S
C45 N42 1.313 . S
C45 N46 1.344 . S
C45 H49 0.930 . S
N46 C43 1.377 . S
N46 C45 1.344 . S
O47 Co39 2.055 . S
O47 C51 1.253 . S
H48 C44 0.931 . S
H49 C45 0.930 . S
O50 Co39 2.039 . S
O50 C40 1.265 . S
C51 O47 1.253 . S
C51 O52 1.227 . S
O52 C51 1.227 . S
N53 Co39 2.140 . S
N53 C56 1.346 . S
N53 C57 1.345 1_554 S
C54 C55 1.387 . S
C54 C58 1.391 1_554 S
C55 C54 1.387 . S
C55 C56 1.369 . S
C55 H64 0.929 . S
C56 N53 1.346 . S
C56 C55 1.369 . S
C56 H59 0.928 . S
C57 N53 1.345 1_556 S
C57 C58 1.371 . S
C57 H60 0.931 . S
C58 C54 1.391 1_556 S
C58 C57 1.371 . S
C58 H65 0.930 . S
H59 C56 0.928 . S
H60 C57 0.931 . S
H61 C37 0.930 . S
H62 C34 0.930 . S
H63 C43 0.930 . S
H64 C55 0.929 . S
H65 C58 0.930 . S
C66 C67 1.387 . S
C66 H70 0.950 . S
C66 C75 1.390 . S
C67 C66 1.387 . S
C67 C69 1.387 1_554 S
H68 C75 0.950 . S
C69 C67 1.387 1_556 S
C69 C71 1.390 . S
C69 H73 0.950 . S
H70 C66 0.950 . S
C71 C69 1.390 . S
C71 C72 1.387 1_556 S
C71 H74 0.950 . S
C72 C71 1.387 1_554 S
C72 C75 1.387 . S
H73 C69 0.950 . S
H74 C71 0.950 . S
C75 C66 1.390 . S
C75 H68 0.950 . S
C75 C72 1.387 . S
C76 C77 1.390 . S
C76 H80 0.952 . S
C76 C85 1.385 1_655 S
C77 C76 1.390 . S
C77 C79 1.387 1_554 S
H78 C85 0.950 . S
C79 C77 1.387 1_556 S
C79 C81 1.390 1_655 S
C79 H83 0.950 . S
H80 C76 0.952 . S
C81 C79 1.390 1_455 S
C81 C82 1.387 1_556 S
C81 H84 0.950 . S
C82 C81 1.387 1_554 S
C82 C85 1.387 . S
H83 C79 0.950 . S
H84 C81 0.950 . S
C85 C76 1.385 1_455 S
C85 H78 0.950 . S
C85 C82 1.387 . S
C86 C87 1.387 1_556 S
C86 H90 0.950 . S
C86 C95 1.390 1_565 S
C87 C86 1.387 1_554 S
C87 C89 1.387 . S
H88 C95 0.950 . S
C89 C87 1.387 . S
C89 C91 1.390 1_565 S
C89 H93 0.950 . S
H90 C86 0.950 . S
C91 C89 1.390 1_545 S
C91 C92 1.387 . S
C91 H94 0.950 . S
C92 C91 1.387 . S
C92 C95 1.387 1_554 S
H93 C89 0.950 . S
H94 C91 0.950 . S
C95 C86 1.390 1_545 S
C95 H88 0.950 . S
C95 C92 1.387 1_556 S
C96 C97 1.387 . S
C96 H100 0.950 . S
C96 C105 1.390 . S
C97 C96 1.387 . S
C97 C99 1.387 . S
H98 C105 0.950 . S
C99 C97 1.387 . S
C99 C101 1.390 . S
C99 H103 0.950 . S
H100 C96 0.950 . S
C101 C99 1.390 . S
C101 C102 1.387 . S
C101 H104 0.950 . S
C102 C101 1.387 . S
C102 C105 1.387 . S
H103 C99 0.950 . S
H104 C101 0.950 . S
C105 C96 1.390 . S
C105 H98 0.950 . S
C105 C102 1.387 . S
C106 C107 1.387 . S
C106 H110 0.950 . S
C106 C115 1.390 . S
C107 C106 1.387 . S
C107 C109 1.387 . S
H108 C115 0.950 . S
C109 C107 1.387 . S
C109 C111 1.390 . S
C109 H113 0.950 . S
H110 C106 0.950 . S
C111 C109 1.390 . S
C111 C112 1.387 . S
C111 H114 0.950 . S
C112 C111 1.387 . S
C112 C115 1.387 . S
H113 C109 0.950 . S
H114 C111 0.950 . S
C115 C106 1.390 . S
C115 H108 0.950 . S
C115 C112 1.387 . S
C67 C21 1.507 . S
C72 C51 1.508 . S
C77 C54 1.507 . S
C82 C18 1.508 . S
C87 C7 1.496 . S
C92 C40 1.497 . S
C97 N2 1.464 . S
C102 N13 1.467 . S
C107 N35 1.464 . S
C112 N46 1.467 . S
