# Generated by pormake.
# Topology qtz, (4)-cn, num edge types: 1
# Building blocks:
#     Node 0, Type 0, BuildingBlock: QUQFOY_clean_sbu_3, # of connection points: 4
#     Node 1, Type 0, BuildingBlock: QUQFOY_clean_sbu_3, # of connection points: 4
#     Node 2, Type 0, BuildingBlock: QUQFOY_clean_sbu_3, # of connection points: 4
#     Edge 3, Type (0, 0), BuildingBlock: UVAHIK_clean_linker_0, # of connection points: 2
#     Edge 4, Type (0, 0), BuildingBlock: UVAHIK_clean_linker_0, # of connection points: 2
#     Edge 5, Type (0, 0), BuildingBlock: UVAHIK_clean_linker_0, # of connection points: 2
#     Edge 6, Type (0, 0), BuildingBlock: UVAHIK_clean_linker_0, # of connection points: 2
#     Edge 7, Type (0, 0), BuildingBlock: UVAHIK_clean_linker_0, # of connection points: 2
#     Edge 8, Type (0, 0), BuildingBlock: UVAHIK_clean_linker_0, # of connection points: 2
# Relax obj value: 0.008
# Max RMSD: 0.054
# Mean RMSD: 0.048
data_MOF--net-qtz--node1-QUQFOY_clean_sbu_3--edge1-UVAHIK_clean_linker_0
_symmetry_space_group_name_H-M    P1
_symmetry_Int_Tables_number       1
_symmetry_cell_setting            triclinic
loop_
_symmetry_equiv_pos_as_xyz
'x, y, z'
_cell_length_a     31.513117
_cell_length_b     30.844989
_cell_length_c     39.347132
_cell_angle_alpha  90.003696
_cell_angle_beta   91.273114
_cell_angle_gamma 121.0707
loop_
_atom_site_label
_atom_site_type_symbol
_atom_site_fract_x
_atom_site_fract_y
_atom_site_fract_z
_atom_type_partial_charge
C0 C 0.92197 0.52118 0.10919 0.0
O1 O 0.93336 0.55182 0.13403 0.0
Cd2 Cd -0.01654 0.55658 0.18185 0.0
O3 O 0.94037 0.49286 0.1073 0.0
Cd4 Cd 0.00126 0.47795 0.13917 0.0
C5 C 0.92036 0.4292 0.20284 0.0
O6 O 0.05693 0.56393 0.16068 0.0
O7 O 0.06504 0.50539 0.18415 0.0
O8 O 0.03882 0.48411 0.08474 0.0
C9 C 0.08023 0.55211 0.18173 0.0
O10 O 0.9329 0.47498 0.20873 0.0
C11 C 0.04208 0.445 0.08801 0.0
O12 O 0.938 0.41765 0.17789 0.0
O13 O 0.02463 0.41954 0.11488 0.0
C14 C 0.44516 0.07148 0.51012 0.0
O15 O 0.41677 0.06322 0.48445 0.0
Cd16 Cd 0.41956 0.01839 0.43561 0.0
O17 O 0.4714 0.05102 0.51209 0.0
Cd18 Cd 0.48294 -0.0124 0.48117 0.0
C19 C 0.54603 0.07625 0.42318 0.0
O20 O 0.4014 0.93625 0.45291 0.0
O21 O 0.46069 0.92774 0.43433 0.0
O22 O 0.4659 0.94386 0.53489 0.0
C23 C 0.41509 0.91347 0.43316 0.0
O24 O 0.50379 0.06928 0.41429 0.0
C25 C 0.50315 0.93842 0.53518 0.0
O26 O 0.5506 0.05245 0.44809 0.0
O27 O 0.53213 0.95673 0.51032 0.0
C28 C 0.60001 0.53675 0.85093 0.0
O29 O 0.62194 0.56558 0.82619 0.0
Cd30 Cd 0.58099 0.57436 0.77746 0.0
O31 O 0.55277 0.51218 0.852 0.0
Cd32 Cd 0.48066 0.5033 0.81764 0.0
C33 C 0.50791 0.44804 0.75432 0.0
O34 O 0.51973 0.59053 0.7981 0.0
O35 O 0.45101 0.53694 0.77261 0.0
O36 O 0.44452 0.50859 0.87061 0.0
C37 C 0.48595 0.58249 0.77649 0.0
O38 O 0.54485 0.49205 0.74893 0.0
C39 C 0.40209 0.46956 0.86493 0.0
O40 O 0.47864 0.44037 0.77849 0.0
O41 O 0.39624 0.44538 0.83738 0.0
C42 C 0.31241 0.41616 0.87971 0.0
C43 C 0.36104 0.45449 0.88867 0.0
C44 C 0.2732 0.40469 0.90117 0.0
C45 C 0.19701 0.41772 0.93942 0.0
H46 H 0.21238 0.41781 0.0375 0.0
C47 C 0.08255 0.45854 0.03193 0.0
C48 C 0.06834 0.43237 0.06276 0.0
C49 C 0.11227 0.4513 0.00961 0.0
C50 C 0.20714 0.41691 0.01016 0.0
H51 H 0.40687 0.50975 0.92766 0.0
H52 H 0.33866 0.48977 0.96501 0.0
H53 H 0.27686 0.42296 0.00147 0.0
H54 H 0.0726 0.37657 0.09376 0.0
H55 H 0.12486 0.36403 0.0547 0.0
H56 H 0.12773 0.41268 0.94814 0.0
C57 C 0.33076 0.46834 0.94152 0.0
C58 C 0.24433 0.42041 -0.01047 0.0
C59 C 0.36984 0.48003 0.91998 0.0
C60 C 0.08295 0.3973 0.0702 0.0
C61 C 0.11311 0.39036 0.04795 0.0
C62 C 0.15995 0.41453 0.96006 0.0
C63 C 0.28189 0.43103 0.93217 0.0
C64 C 0.24013 0.42183 0.95395 0.0
C65 C 0.12879 0.41795 0.01768 0.0
C66 C 0.16503 0.41507 -0.00432 0.0
H67 H 0.30443 0.39574 0.85576 0.0
H68 H 0.23602 0.37545 0.89341 0.0
H69 H 0.19276 0.41904 0.91212 0.0
H70 H 0.07186 0.48578 0.02541 0.0
H71 H 0.12407 0.47355 -0.0133 0.0
C72 C 0.85246 0.39908 0.24417 0.0
C73 C 0.88437 0.38964 0.2255 0.0
C74 C 0.81972 0.36353 0.26689 0.0
C75 C 0.75964 0.22855 0.29127 0.0
H76 H 0.73023 0.2799 0.37182 0.0
C77 C 0.63045 0.10528 0.40083 0.0
C78 C 0.58986 0.11207 0.40382 0.0
C79 C 0.67047 0.13784 0.38072 0.0
C80 C 0.73838 0.26513 0.34952 0.0
H81 H 0.90663 0.33517 0.21567 0.0
H82 H 0.85023 0.27324 0.25641 0.0
H83 H 0.79353 0.3388 0.33364 0.0
H84 H 0.55981 0.15883 0.38897 0.0
H85 H 0.63051 0.21668 0.35496 0.0
H86 H 0.70451 0.15457 0.308 0.0
C87 C 0.84991 0.30789 0.25295 0.0
C88 C 0.77426 0.29878 0.32742 0.0
C89 C 0.88232 0.34336 0.22967 0.0
C90 C 0.59052 0.15261 0.38705 0.0
C91 C 0.63092 0.18574 0.3677 0.0
C92 C 0.72429 0.19475 0.31383 0.0
C93 C 0.81854 0.31783 0.27213 0.0
C94 C 0.78433 0.28113 0.29742 0.0
C95 C 0.67095 0.17835 0.36411 0.0
C96 C 0.7126 0.21299 0.34264 0.0
H97 H 0.85257 0.43405 0.24115 0.0
H98 H 0.7951 0.37198 0.28023 0.0
H99 H 0.7661 0.21353 0.26839 0.0
H100 H 0.63071 0.07412 0.41334 0.0
H101 H 0.70111 0.13162 0.37827 0.0
C102 C 0.54343 0.8923 0.55851 0.0
C103 C 0.51062 0.90989 0.56246 0.0
C104 C 0.54665 0.86122 0.58305 0.0
C105 C 0.51913 0.82034 0.67205 0.0
H106 H 0.50494 0.69498 0.63885 0.0
C107 C 0.52818 0.67348 0.7595 0.0
C108 C 0.4908 0.62274 0.7536 0.0
C109 C 0.53397 0.71118 0.73702 0.0
C110 C 0.50893 0.72984 0.64847 0.0
H111 H 0.45708 0.91059 0.59584 0.0
H112 H 0.46314 0.85689 0.63873 0.0
H113 H 0.51145 0.75807 0.59838 0.0
H114 H 0.42989 0.57178 0.71969 0.0
H115 H 0.44028 0.63754 0.68036 0.0
H116 H 0.51585 0.79166 0.72216 0.0
C117 C 0.48627 0.86698 0.61669 0.0
C118 C 0.51318 0.76615 0.62534 0.0
C119 C 0.4826 0.89749 0.59202 0.0
C120 C 0.45907 0.61052 0.72494 0.0
C121 C 0.46521 0.64809 0.70229 0.0
C122 C 0.51544 0.78424 0.69521 0.0
C123 C 0.51764 0.84777 0.61219 0.0
C124 C 0.51763 0.81145 0.63688 0.0
C125 C 0.50286 0.69874 0.708 0.0
C126 C 0.50955 0.73831 0.68362 0.0
H127 H 0.56548 0.90124 0.536 0.0
H128 H 0.57143 0.84722 0.57909 0.0
H129 H 0.52279 0.85507 0.68162 0.0
H130 H 0.55319 0.68405 0.78139 0.0
H131 H 0.56342 0.7499 0.74195 0.0
C132 C 0.68193 0.55727 0.8763 0.0
C133 C 0.62999 0.53107 0.87818 0.0
C134 C 0.71059 0.55141 0.9013 0.0
C135 C 0.76025 0.51022 0.94644 0.0
H136 H 0.73213 0.513 0.04156 0.0
C137 C 0.87273 0.48466 0.05466 0.0
C138 C 0.88639 0.51809 0.0826 0.0
C139 C 0.83875 0.48177 0.0299 0.0
C140 C 0.74052 0.51227 0.01509 0.0
H141 H 0.56748 0.47821 0.90805 0.0
H142 H 0.61777 0.46792 0.95183 0.0
H143 H 0.67803 0.51685 -0.00212 0.0
H144 H 0.87489 0.57467 0.10634 0.0
H145 H 0.81635 0.56999 0.06311 0.0
H146 H 0.82359 0.50724 0.96361 0.0
C147 C 0.6362 0.49325 0.93099 0.0
C148 C 0.7092 0.51392 -0.00992 0.0
C149 C 0.6074 0.49904 0.90586 0.0
C150 C 0.86522 0.54842 0.08522 0.0
C151 C 0.83128 0.54546 0.06055 0.0
C152 C 0.79149 0.50848 0.97144 0.0
C153 C 0.68812 0.51922 0.92887 0.0
C154 C 0.71916 0.5137 0.95547 0.0
C155 C 0.81762 0.51214 0.03261 0.0
C156 C 0.78241 0.51024 0.00606 0.0
H157 H 0.70068 0.5824 0.85543 0.0
H158 H 0.75053 0.57268 0.89923 0.0
H159 H 0.76853 0.50927 0.91997 0.0
H160 H 0.88818 0.46063 0.05191 0.0
H161 H 0.82867 0.45541 0.0088 0.0
C162 C 0.32983 0.85793 0.40776 0.0
C163 C 0.38072 0.87528 0.4079 0.0
C164 C 0.29776 0.8226 0.38329 0.0
C165 C 0.24359 0.77161 0.31708 0.0
H166 H 0.26388 0.66379 0.28769 0.0
C167 C 0.13421 0.64138 0.20283 0.0
C168 C 0.1177 0.58971 0.20594 0.0
C169 C 0.16753 0.67651 0.22687 0.0
C170 C 0.2574 0.6934 0.29578 0.0
H171 H 0.43797 0.86934 0.38252 0.0
H172 H 0.38241 0.80876 0.33952 0.0
H173 H 0.31762 0.72273 0.33209 0.0
H174 H 0.12363 0.53438 0.23643 0.0
H175 H 0.18086 0.59538 0.27868 0.0
H176 H 0.18233 0.74125 0.28157 0.0
C177 C 0.36694 0.8215 0.35865 0.0
C178 C 0.28865 0.72763 0.32097 0.0
C179 C 0.39888 0.85651 0.38321 0.0
C180 C 0.1358 0.57398 0.23325 0.0
C181 C 0.16884 0.60903 0.2574 0.0
C182 C 0.21216 0.7372 0.29202 0.0
C183 C 0.31598 0.80413 0.35834 0.0
C184 C 0.2822 0.76723 0.3319 0.0
C185 C 0.18484 0.66069 0.25466 0.0
C186 C 0.21871 0.6977 0.28102 0.0
H187 H 0.31473 0.87157 0.42656 0.0
H188 H 0.25862 0.80946 0.38412 0.0
H189 H 0.23791 0.802 0.32457 0.0
H190 H 0.12111 0.65467 0.18195 0.0
H191 H 0.17977 0.71611 0.22363 0.0
C192 C 0.53994 0.40678 0.71686 0.0
C193 C 0.49954 0.40566 0.73206 0.0
C194 C 0.53257 0.36807 0.69469 0.0
C195 C 0.43762 0.23774 0.6638 0.0
H196 H 0.52823 0.27485 0.58932 0.0
C197 C 0.40984 0.11493 0.54271 0.0
C198 C 0.44875 0.10604 0.53755 0.0
C199 C 0.41407 0.14889 0.56802 0.0
C200 C 0.50283 0.26404 0.61011 0.0
H201 H 0.41972 0.36313 0.73624 0.0
H202 H 0.40634 0.29662 0.69609 0.0
H203 H 0.53865 0.33952 0.62974 0.0
H204 H 0.52246 0.12559 0.55483 0.0
H205 H 0.53041 0.18633 0.59826 0.0
H206 H 0.40061 0.16238 0.64259 0.0
C207 C 0.444 0.32648 0.70207 0.0
C208 C 0.50893 0.30093 0.63352 0.0
C209 C 0.45154 0.36473 0.72496 0.0
C210 C 0.49181 0.13153 0.5583 0.0
C211 C 0.49646 0.16631 0.58303 0.0
C212 C 0.4309 0.20103 0.63984 0.0
C213 C 0.48444 0.32783 0.68638 0.0
C214 C 0.47681 0.28829 0.66099 0.0
C215 C 0.4577 0.17533 0.58801 0.0
C216 C 0.46379 0.21389 0.61305 0.0
H217 H 0.57745 0.43754 0.72229 0.0
H218 H 0.56485 0.36987 0.68412 0.0
H219 H 0.41252 0.2262 0.68477 0.0
H220 H 0.37614 0.09564 0.52719 0.0
H221 H 0.38385 0.15553 0.5714 0.0
loop_
_geom_bond_atom_site_label_1
_geom_bond_atom_site_label_2
_geom_bond_distance
_geom_bond_site_symmetry_2
_ccdc_geom_bond_type
C0 O1 1.306 . S
C0 O3 1.160 . S
O1 C0 1.306 . S
O1 Cd2 2.228 . S
Cd2 O1 2.228 . S
Cd2 O6 2.273 1_655 S
Cd2 O10 2.277 . S
O3 C0 1.160 . S
O3 Cd4 2.203 1_655 S
Cd4 O3 2.203 1_455 S
Cd4 O6 2.411 . S
Cd4 O7 2.333 . S
Cd4 O8 2.352 . S
Cd4 O12 2.277 1_455 S
Cd4 O13 2.356 . S
C5 O10 1.209 . S
C5 O12 1.226 . S
O6 Cd2 2.273 1_455 S
O6 Cd4 2.411 . S
O6 C9 1.320 . S
O7 Cd4 2.333 . S
O7 C9 1.214 . S
O8 Cd4 2.352 . S
O8 C11 1.258 . S
C9 O6 1.320 . S
C9 O7 1.214 . S
O10 Cd2 2.277 . S
O10 C5 1.209 . S
C11 O8 1.258 . S
C11 O13 1.282 . S
O12 Cd4 2.277 1_655 S
O12 C5 1.226 . S
O13 Cd4 2.356 . S
O13 C11 1.282 . S
C14 O15 1.306 . S
C14 O17 1.160 . S
O15 C14 1.306 . S
O15 Cd16 2.228 . S
Cd16 O15 2.228 . S
Cd16 O20 2.273 1_545 S
Cd16 O24 2.277 . S
O17 C14 1.160 . S
O17 Cd18 2.203 . S
Cd18 O17 2.203 . S
Cd18 O20 2.411 1_545 S
Cd18 O21 2.333 1_545 S
Cd18 O22 2.352 1_545 S
Cd18 O26 2.277 . S
Cd18 O27 2.356 1_545 S
C19 O24 1.209 . S
C19 O26 1.226 . S
O20 Cd16 2.273 1_565 S
O20 Cd18 2.411 1_565 S
O20 C23 1.320 . S
O21 Cd18 2.333 1_565 S
O21 C23 1.214 . S
O22 Cd18 2.352 1_565 S
O22 C25 1.258 . S
C23 O20 1.320 . S
C23 O21 1.214 . S
O24 Cd16 2.277 . S
O24 C19 1.209 . S
C25 O22 1.258 . S
C25 O27 1.282 . S
O26 Cd18 2.277 . S
O26 C19 1.226 . S
O27 Cd18 2.356 1_565 S
O27 C25 1.282 . S
C28 O29 1.306 . S
C28 O31 1.160 . S
O29 C28 1.306 . S
O29 Cd30 2.228 . S
Cd30 O29 2.228 . S
Cd30 O34 2.273 . S
Cd30 O38 2.277 . S
O31 C28 1.160 . S
O31 Cd32 2.203 . S
Cd32 O31 2.203 . S
Cd32 O34 2.411 . S
Cd32 O35 2.333 . S
Cd32 O36 2.352 . S
Cd32 O40 2.277 . S
Cd32 O41 2.356 . S
C33 O38 1.209 . S
C33 O40 1.226 . S
O34 Cd30 2.273 . S
O34 Cd32 2.411 . S
O34 C37 1.320 . S
O35 Cd32 2.333 . S
O35 C37 1.214 . S
O36 Cd32 2.352 . S
O36 C39 1.258 . S
C37 O34 1.320 . S
C37 O35 1.214 . S
O38 Cd30 2.277 . S
O38 C33 1.209 . S
C39 O36 1.258 . S
C39 O41 1.282 . S
O40 Cd32 2.277 . S
O40 C33 1.226 . S
O41 Cd32 2.356 . S
O41 C39 1.282 . S
C42 C43 1.349 . S
C42 C44 1.327 . S
C42 H67 0.950 . S
C43 C42 1.349 . S
C43 C59 1.349 . S
C44 C42 1.327 . S
C44 C63 1.429 . S
C44 H68 0.950 . S
C45 C62 1.574 . S
C45 C64 1.368 . S
C45 H69 0.949 . S
H46 C50 0.949 . S
C47 C48 1.349 . S
C47 C49 1.327 . S
C47 H70 0.950 . S
C48 C47 1.349 . S
C48 C60 1.349 . S
C49 C47 1.327 . S
C49 C65 1.429 . S
C49 H71 0.950 . S
C50 H46 0.949 . S
C50 C58 1.574 . S
C50 C66 1.368 . S
H51 C59 0.950 . S
H52 C57 0.950 . S
H53 C58 0.949 . S
H54 C60 0.950 . S
H55 C61 0.950 . S
H56 C62 0.949 . S
C57 H52 0.950 . S
C57 C59 1.327 . S
C57 C63 1.429 . S
C58 C50 1.574 . S
C58 H53 0.949 . S
C58 C64 1.368 1_554 S
C59 C43 1.349 . S
C59 H51 0.950 . S
C59 C57 1.327 . S
C60 C48 1.349 . S
C60 H54 0.950 . S
C60 C61 1.327 . S
C61 H55 0.950 . S
C61 C60 1.327 . S
C61 C65 1.429 . S
C62 C45 1.574 . S
C62 H56 0.949 . S
C62 C66 1.368 1_556 S
C63 C44 1.429 . S
C63 C57 1.429 . S
C63 C64 1.523 . S
C64 C45 1.368 . S
C64 C58 1.368 1_556 S
C64 C63 1.523 . S
C65 C49 1.429 . S
C65 C61 1.429 . S
C65 C66 1.523 . S
C66 C50 1.368 . S
C66 C62 1.368 1_554 S
C66 C65 1.523 . S
H67 C42 0.950 . S
H68 C44 0.950 . S
H69 C45 0.949 . S
H70 C47 0.950 . S
H71 C49 0.950 . S
C72 C73 1.349 . S
C72 C74 1.327 . S
C72 H97 0.950 . S
C73 C72 1.349 . S
C73 C89 1.349 . S
C74 C72 1.327 . S
C74 C93 1.429 . S
C74 H98 0.950 . S
C75 C92 1.574 . S
C75 C94 1.368 . S
C75 H99 0.949 . S
H76 C80 0.949 . S
C77 C78 1.349 . S
C77 C79 1.327 . S
C77 H100 0.950 . S
C78 C77 1.349 . S
C78 C90 1.349 . S
C79 C77 1.327 . S
C79 C95 1.429 . S
C79 H101 0.950 . S
C80 H76 0.949 . S
C80 C88 1.574 . S
C80 C96 1.368 . S
H81 C89 0.950 . S
H82 C87 0.950 . S
H83 C88 0.949 . S
H84 C90 0.950 . S
H85 C91 0.950 . S
H86 C92 0.949 . S
C87 H82 0.950 . S
C87 C89 1.327 . S
C87 C93 1.429 . S
C88 C80 1.574 . S
C88 H83 0.949 . S
C88 C94 1.368 . S
C89 C73 1.349 . S
C89 H81 0.950 . S
C89 C87 1.327 . S
C90 C78 1.349 . S
C90 H84 0.950 . S
C90 C91 1.327 . S
C91 H85 0.950 . S
C91 C90 1.327 . S
C91 C95 1.429 . S
C92 C75 1.574 . S
C92 H86 0.949 . S
C92 C96 1.368 . S
C93 C74 1.429 . S
C93 C87 1.429 . S
C93 C94 1.523 . S
C94 C75 1.368 . S
C94 C88 1.368 . S
C94 C93 1.523 . S
C95 C79 1.429 . S
C95 C91 1.429 . S
C95 C96 1.523 . S
C96 C80 1.368 . S
C96 C92 1.368 . S
C96 C95 1.523 . S
H97 C72 0.950 . S
H98 C74 0.950 . S
H99 C75 0.949 . S
H100 C77 0.950 . S
H101 C79 0.950 . S
C102 C103 1.349 . S
C102 C104 1.327 . S
C102 H127 0.950 . S
C103 C102 1.349 . S
C103 C119 1.349 . S
C104 C102 1.327 . S
C104 C123 1.429 . S
C104 H128 0.950 . S
C105 C122 1.574 . S
C105 C124 1.368 . S
C105 H129 0.949 . S
H106 C110 0.949 . S
C107 C108 1.349 . S
C107 C109 1.327 . S
C107 H130 0.950 . S
C108 C107 1.349 . S
C108 C120 1.349 . S
C109 C107 1.327 . S
C109 C125 1.429 . S
C109 H131 0.950 . S
C110 H106 0.949 . S
C110 C118 1.574 . S
C110 C126 1.368 . S
H111 C119 0.950 . S
H112 C117 0.950 . S
H113 C118 0.949 . S
H114 C120 0.950 . S
H115 C121 0.950 . S
H116 C122 0.949 . S
C117 H112 0.950 . S
C117 C119 1.327 . S
C117 C123 1.429 . S
C118 C110 1.574 . S
C118 H113 0.949 . S
C118 C124 1.368 . S
C119 C103 1.349 . S
C119 H111 0.950 . S
C119 C117 1.327 . S
C120 C108 1.349 . S
C120 H114 0.950 . S
C120 C121 1.327 . S
C121 H115 0.950 . S
C121 C120 1.327 . S
C121 C125 1.429 . S
C122 C105 1.574 . S
C122 H116 0.949 . S
C122 C126 1.368 . S
C123 C104 1.429 . S
C123 C117 1.429 . S
C123 C124 1.523 . S
C124 C105 1.368 . S
C124 C118 1.368 . S
C124 C123 1.523 . S
C125 C109 1.429 . S
C125 C121 1.429 . S
C125 C126 1.523 . S
C126 C110 1.368 . S
C126 C122 1.368 . S
C126 C125 1.523 . S
H127 C102 0.950 . S
H128 C104 0.950 . S
H129 C105 0.949 . S
H130 C107 0.950 . S
H131 C109 0.950 . S
C132 C133 1.349 . S
C132 C134 1.327 . S
C132 H157 0.950 . S
C133 C132 1.349 . S
C133 C149 1.349 . S
C134 C132 1.327 . S
C134 C153 1.429 . S
C134 H158 0.950 . S
C135 C152 1.574 . S
C135 C154 1.368 . S
C135 H159 0.949 . S
H136 C140 0.949 . S
C137 C138 1.349 . S
C137 C139 1.327 . S
C137 H160 0.950 . S
C138 C137 1.349 . S
C138 C150 1.349 . S
C139 C137 1.327 . S
C139 C155 1.429 . S
C139 H161 0.950 . S
C140 H136 0.949 . S
C140 C148 1.574 . S
C140 C156 1.368 . S
H141 C149 0.950 . S
H142 C147 0.950 . S
H143 C148 0.949 . S
H144 C150 0.950 . S
H145 C151 0.950 . S
H146 C152 0.949 . S
C147 H142 0.950 . S
C147 C149 1.327 . S
C147 C153 1.429 . S
C148 C140 1.574 . S
C148 H143 0.949 . S
C148 C154 1.368 1_554 S
C149 C133 1.349 . S
C149 H141 0.950 . S
C149 C147 1.327 . S
C150 C138 1.349 . S
C150 H144 0.950 . S
C150 C151 1.327 . S
C151 H145 0.950 . S
C151 C150 1.327 . S
C151 C155 1.429 . S
C152 C135 1.574 . S
C152 H146 0.949 . S
C152 C156 1.368 1_556 S
C153 C134 1.429 . S
C153 C147 1.429 . S
C153 C154 1.523 . S
C154 C135 1.368 . S
C154 C148 1.368 1_556 S
C154 C153 1.523 . S
C155 C139 1.429 . S
C155 C151 1.429 . S
C155 C156 1.523 . S
C156 C140 1.368 . S
C156 C152 1.368 1_554 S
C156 C155 1.523 . S
H157 C132 0.950 . S
H158 C134 0.950 . S
H159 C135 0.949 . S
H160 C137 0.950 . S
H161 C139 0.950 . S
C162 C163 1.349 . S
C162 C164 1.327 . S
C162 H187 0.950 . S
C163 C162 1.349 . S
C163 C179 1.349 . S
C164 C162 1.327 . S
C164 C183 1.429 . S
C164 H188 0.950 . S
C165 C182 1.574 . S
C165 C184 1.368 . S
C165 H189 0.949 . S
H166 C170 0.949 . S
C167 C168 1.349 . S
C167 C169 1.327 . S
C167 H190 0.950 . S
C168 C167 1.349 . S
C168 C180 1.349 . S
C169 C167 1.327 . S
C169 C185 1.429 . S
C169 H191 0.950 . S
C170 H166 0.949 . S
C170 C178 1.574 . S
C170 C186 1.368 . S
H171 C179 0.950 . S
H172 C177 0.950 . S
H173 C178 0.949 . S
H174 C180 0.950 . S
H175 C181 0.950 . S
H176 C182 0.949 . S
C177 H172 0.950 . S
C177 C179 1.327 . S
C177 C183 1.429 . S
C178 C170 1.574 . S
C178 H173 0.949 . S
C178 C184 1.368 . S
C179 C163 1.349 . S
C179 H171 0.950 . S
C179 C177 1.327 . S
C180 C168 1.349 . S
C180 H174 0.950 . S
C180 C181 1.327 . S
C181 H175 0.950 . S
C181 C180 1.327 . S
C181 C185 1.429 . S
C182 C165 1.574 . S
C182 H176 0.949 . S
C182 C186 1.368 . S
C183 C164 1.429 . S
C183 C177 1.429 . S
C183 C184 1.523 . S
C184 C165 1.368 . S
C184 C178 1.368 . S
C184 C183 1.523 . S
C185 C169 1.429 . S
C185 C181 1.429 . S
C185 C186 1.523 . S
C186 C170 1.368 . S
C186 C182 1.368 . S
C186 C185 1.523 . S
H187 C162 0.950 . S
H188 C164 0.950 . S
H189 C165 0.949 . S
H190 C167 0.950 . S
H191 C169 0.950 . S
C192 C193 1.349 . S
C192 C194 1.327 . S
C192 H217 0.950 . S
C193 C192 1.349 . S
C193 C209 1.349 . S
C194 C192 1.327 . S
C194 C213 1.429 . S
C194 H218 0.950 . S
C195 C212 1.574 . S
C195 C214 1.368 . S
C195 H219 0.949 . S
H196 C200 0.949 . S
C197 C198 1.349 . S
C197 C199 1.327 . S
C197 H220 0.950 . S
C198 C197 1.349 . S
C198 C210 1.349 . S
C199 C197 1.327 . S
C199 C215 1.429 . S
C199 H221 0.950 . S
C200 H196 0.949 . S
C200 C208 1.574 . S
C200 C216 1.368 . S
H201 C209 0.950 . S
H202 C207 0.950 . S
H203 C208 0.949 . S
H204 C210 0.950 . S
H205 C211 0.950 . S
H206 C212 0.949 . S
C207 H202 0.950 . S
C207 C209 1.327 . S
C207 C213 1.429 . S
C208 C200 1.574 . S
C208 H203 0.949 . S
C208 C214 1.368 . S
C209 C193 1.349 . S
C209 H201 0.950 . S
C209 C207 1.327 . S
C210 C198 1.349 . S
C210 H204 0.950 . S
C210 C211 1.327 . S
C211 H205 0.950 . S
C211 C210 1.327 . S
C211 C215 1.429 . S
C212 C195 1.574 . S
C212 H206 0.949 . S
C212 C216 1.368 . S
C213 C194 1.429 . S
C213 C207 1.429 . S
C213 C214 1.523 . S
C214 C195 1.368 . S
C214 C208 1.368 . S
C214 C213 1.523 . S
C215 C199 1.429 . S
C215 C211 1.429 . S
C215 C216 1.523 . S
C216 C200 1.368 . S
C216 C212 1.368 . S
C216 C215 1.523 . S
H217 C192 0.950 . S
H218 C194 0.950 . S
H219 C195 0.949 . S
H220 C197 0.950 . S
H221 C199 0.950 . S
C43 C39 1.401 . S
C48 C11 1.401 . S
C73 C5 1.519 . S
C78 C19 1.519 . S
C103 C25 1.404 . S
C108 C37 1.397 . S
C133 C28 1.410 . S
C138 C0 1.411 . S
C163 C23 1.403 . S
C168 C9 1.401 . S
C193 C33 1.467 . S
C198 C14 1.465 . S
