# Generated by pormake.
# Topology uon, (4)-cn, num edge types: 1
# Building blocks:
#     Node 0, Type 0, BuildingBlock: QUQFOY_clean_sbu_1, # of connection points: 4
#     Node 1, Type 0, BuildingBlock: QUQFOY_clean_sbu_1, # of connection points: 4
#     Node 2, Type 0, BuildingBlock: QUQFOY_clean_sbu_1, # of connection points: 4
#     Node 3, Type 0, BuildingBlock: QUQFOY_clean_sbu_1, # of connection points: 4
#     Node 4, Type 0, BuildingBlock: QUQFOY_clean_sbu_1, # of connection points: 4
#     Node 5, Type 0, BuildingBlock: QUQFOY_clean_sbu_1, # of connection points: 4
#     Edge 6, Type (0, 0), None
#     Edge 7, Type (0, 0), None
#     Edge 8, Type (0, 0), None
#     Edge 9, Type (0, 0), None
#     Edge 10, Type (0, 0), None
#     Edge 11, Type (0, 0), None
#     Edge 12, Type (0, 0), None
#     Edge 13, Type (0, 0), None
#     Edge 14, Type (0, 0), None
#     Edge 15, Type (0, 0), None
#     Edge 16, Type (0, 0), None
#     Edge 17, Type (0, 0), None
# Relax obj value: 0.060
# Max RMSD: 0.262
# Mean RMSD: 0.262
data_MOF--net-uon--node1-QUQFOY_clean_sbu_1--edge1-none
_symmetry_space_group_name_H-M    P1
_symmetry_Int_Tables_number       1
_symmetry_cell_setting            triclinic
loop_
_symmetry_equiv_pos_as_xyz
'x, y, z'
_cell_length_a     17.296869
_cell_length_b     17.536647
_cell_length_c     6.0065208
_cell_angle_alpha  90.33597
_cell_angle_beta   90.510852
_cell_angle_gamma 120.28475
loop_
_atom_site_label
_atom_site_type_symbol
_atom_site_fract_x
_atom_site_fract_y
_atom_site_fract_z
_atom_type_partial_charge
O0 O 0.49298 0.58447 0.00646 0.0
Cd1 Cd 0.36981 0.48729 0.00858 0.0
Cd2 Cd 0.26263 0.48891 0.78324 0.0
O3 O 0.40887 0.59495 0.73731 0.0
O4 O 0.36699 0.36834 -0.0377 0.0
O5 O 0.35824 0.44018 0.67777 0.0
C6 C 0.36743 0.37696 0.74849 0.0
C7 C 0.14283 0.36894 -0.00418 0.0
C8 C 0.48459 0.62539 0.84371 0.0
C9 C 0.27476 0.61205 0.01034 0.0
O10 O 0.23509 0.58215 0.82566 0.0
O11 O 0.3181 0.57877 0.10727 0.0
O12 O 0.13649 0.37722 0.78398 0.0
O13 O 0.21944 0.41906 0.08497 0.0
O14 O 0.96991 0.44576 0.3181 0.0
Cd15 Cd 0.94317 0.32582 0.35759 0.0
Cd16 Cd 0.83507 0.21657 0.13859 0.0
O17 O 0.88439 0.35884 0.03922 0.0
O18 O 1.06962 0.34187 0.35205 0.0
O19 O 0.98551 0.29973 0.05217 0.0
C20 C 1.06285 0.32778 0.1395 0.0
C21 C 0.8386 0.11045 0.40088 0.0
C22 C 0.92843 0.43552 0.13636 0.0
C23 C 0.72118 0.24172 0.30796 0.0
O24 O 0.71171 0.19107 0.14593 0.0
O25 O 0.79758 0.28741 0.41104 0.0
O26 O 0.83763 0.10044 0.18727 0.0
O27 O 0.84844 0.18351 0.47015 0.0
O28 O 0.57832 0.90861 0.64684 0.0
Cd29 Cd 0.68564 0.9091 0.74496 0.0
Cd30 Cd 0.68593 0.80533 0.47198 0.0
O31 O 0.61216 0.86607 0.33233 0.0
O32 O 0.77931 1.04096 0.75553 0.0
O33 O 0.77191 0.9568 0.47493 0.0
C34 C 0.80289 1.03467 0.55499 0.0
C35 C 0.80262 0.79533 0.66541 0.0
C36 C 0.56396 0.88989 0.44294 0.0
C37 C 0.563 0.70224 0.75812 0.0
O38 O 0.57934 0.6986 0.55631 0.0
O39 O 0.60918 0.77381 0.87448 0.0
O40 O 0.78179 0.77042 0.45898 0.0
O41 O 0.76937 0.83923 0.75147 0.0
O42 O 0.70845 0.53723 0.01548 0.0
Cd43 Cd 0.83151 0.63459 0.04872 0.0
Cd44 Cd 0.93971 0.63481 0.82312 0.0
O45 O 0.79471 0.535 0.74453 0.0
O46 O 0.83176 0.75305 0.02831 0.0
O47 O 0.85111 0.69272 0.73197 0.0
C48 C 0.83748 0.75188 0.81384 0.0
C49 C 1.0587 0.75542 0.03933 0.0
C50 C 0.71782 0.50219 0.84097 0.0
C51 C 0.92695 0.51076 0.04389 0.0
O52 O 0.96725 0.54211 0.86387 0.0
O53 O 0.88267 0.54273 0.14111 0.0
O54 O 1.06246 0.74919 0.82525 0.0
O55 O 0.98372 0.70314 0.12867 0.0
O56 O 0.24389 0.67924 0.3023 0.0
Cd57 Cd 0.26518 0.79575 0.37018 0.0
Cd58 Cd 0.37056 0.90353 0.12398 0.0
O59 O 0.31328 0.76314 0.0111 0.0
O60 O 0.13859 0.7783 0.3901 0.0
O61 O 0.21678 0.82721 0.08611 0.0
C62 C 0.14106 0.79617 0.18038 0.0
C63 C 0.36703 1.0184 0.34867 0.0
C64 C 0.27487 0.68756 0.1095 0.0
C65 C 0.48509 0.88651 0.34602 0.0
O66 O 0.49148 0.92409 0.16313 0.0
O67 O 0.40986 0.84628 0.45064 0.0
O68 O 0.37626 1.0244 0.1346 0.0
O69 O 0.34789 0.94462 0.43315 0.0
O70 O 0.62872 0.22458 0.5991 0.0
Cd71 Cd 0.52118 0.2236 0.68894 0.0
Cd72 Cd 0.5235 0.32753 0.41857 0.0
O73 O 0.59669 0.26634 0.28018 0.0
O74 O 0.42455 0.09374 0.70282 0.0
O75 O 0.43736 0.17396 0.41015 0.0
C76 C 0.40358 0.09735 0.49656 0.0
C77 C 0.40418 0.33635 0.59683 0.0
C78 C 0.64357 0.24191 0.39595 0.0
C79 C 0.64039 0.42712 0.73796 0.0
O80 O 0.63022 0.43158 0.53204 0.0
O81 O 0.58998 0.35527 0.84417 0.0
O82 O 0.43075 0.36686 0.39852 0.0
O83 O 0.4332 0.28826 0.67916 0.0
loop_
_geom_bond_atom_site_label_1
_geom_bond_atom_site_label_2
_geom_bond_distance
_geom_bond_site_symmetry_2
_ccdc_geom_bond_type
O0 Cd1 2.223 . S
O0 C8 1.315 1_554 S
Cd1 O0 2.223 . S
Cd1 O4 2.297 . S
Cd1 O5 2.439 . S
Cd1 O11 2.240 . S
Cd2 O3 2.240 . S
Cd2 O10 2.223 1_556 S
Cd2 O12 2.297 . S
Cd2 O13 2.439 . S
O3 Cd2 2.240 . S
O3 C8 1.279 . S
O4 Cd1 2.297 . S
O4 C6 1.247 . S
O5 Cd1 2.439 . S
O5 C6 1.208 . S
C6 O4 1.247 . S
C6 O5 1.208 . S
C7 O12 1.247 . S
C7 O13 1.208 . S
C8 O0 1.315 1_556 S
C8 O3 1.279 . S
C9 O10 1.315 . S
C9 O11 1.279 . S
O10 Cd2 2.223 1_554 S
O10 C9 1.315 . S
O11 Cd1 2.240 . S
O11 C9 1.279 . S
O12 Cd2 2.297 . S
O12 C7 1.247 . S
O13 Cd2 2.439 . S
O13 C7 1.208 . S
O14 Cd15 2.223 . S
O14 C22 1.315 . S
Cd15 O14 2.223 . S
Cd15 O18 2.297 . S
Cd15 O19 2.439 . S
Cd15 O25 2.240 . S
Cd16 O17 2.240 . S
Cd16 O24 2.223 . S
Cd16 O26 2.297 . S
Cd16 O27 2.439 . S
O17 Cd16 2.240 . S
O17 C22 1.279 . S
O18 Cd15 2.297 . S
O18 C20 1.247 . S
O19 Cd15 2.439 . S
O19 C20 1.208 . S
C20 O18 1.247 . S
C20 O19 1.208 . S
C21 O26 1.247 . S
C21 O27 1.208 . S
C22 O14 1.315 . S
C22 O17 1.279 . S
C23 O24 1.315 . S
C23 O25 1.279 . S
O24 Cd16 2.223 . S
O24 C23 1.315 . S
O25 Cd15 2.240 . S
O25 C23 1.279 . S
O26 Cd16 2.297 . S
O26 C21 1.247 . S
O27 Cd16 2.439 . S
O27 C21 1.208 . S
O28 Cd29 2.223 . S
O28 C36 1.315 . S
Cd29 O28 2.223 . S
Cd29 O32 2.297 . S
Cd29 O33 2.439 . S
Cd29 O39 2.240 1_556 S
Cd30 O31 2.240 . S
Cd30 O38 2.223 . S
Cd30 O40 2.297 . S
Cd30 O41 2.439 . S
O31 Cd30 2.240 . S
O31 C36 1.279 . S
O32 Cd29 2.297 . S
O32 C34 1.247 . S
O33 Cd29 2.439 . S
O33 C34 1.208 . S
C34 O32 1.247 . S
C34 O33 1.208 . S
C35 O40 1.247 . S
C35 O41 1.208 . S
C36 O28 1.315 . S
C36 O31 1.279 . S
C37 O38 1.315 . S
C37 O39 1.279 1_556 S
O38 Cd30 2.223 . S
O38 C37 1.315 . S
O39 Cd29 2.240 1_554 S
O39 C37 1.279 1_554 S
O40 Cd30 2.297 . S
O40 C35 1.247 . S
O41 Cd30 2.439 . S
O41 C35 1.208 . S
O42 Cd43 2.223 . S
O42 C50 1.315 1_554 S
Cd43 O42 2.223 . S
Cd43 O46 2.297 . S
Cd43 O47 2.439 . S
Cd43 O53 2.240 . S
Cd44 O45 2.240 . S
Cd44 O52 2.223 1_556 S
Cd44 O54 2.297 . S
Cd44 O55 2.439 . S
O45 Cd44 2.240 . S
O45 C50 1.279 . S
O46 Cd43 2.297 . S
O46 C48 1.247 . S
O47 Cd43 2.439 . S
O47 C48 1.208 . S
C48 O46 1.247 . S
C48 O47 1.208 . S
C49 O54 1.247 . S
C49 O55 1.208 . S
C50 O42 1.315 1_556 S
C50 O45 1.279 . S
C51 O52 1.315 . S
C51 O53 1.279 . S
O52 Cd44 2.223 1_554 S
O52 C51 1.315 . S
O53 Cd43 2.240 . S
O53 C51 1.279 . S
O54 Cd44 2.297 . S
O54 C49 1.247 . S
O55 Cd44 2.439 . S
O55 C49 1.208 . S
O56 Cd57 2.223 . S
O56 C64 1.315 . S
Cd57 O56 2.223 . S
Cd57 O60 2.297 . S
Cd57 O61 2.439 . S
Cd57 O67 2.240 . S
Cd58 O59 2.240 . S
Cd58 O66 2.223 . S
Cd58 O68 2.297 . S
Cd58 O69 2.439 . S
O59 Cd58 2.240 . S
O59 C64 1.279 . S
O60 Cd57 2.297 . S
O60 C62 1.247 . S
O61 Cd57 2.439 . S
O61 C62 1.208 . S
C62 O60 1.247 . S
C62 O61 1.208 . S
C63 O68 1.247 . S
C63 O69 1.208 . S
C64 O56 1.315 . S
C64 O59 1.279 . S
C65 O66 1.315 . S
C65 O67 1.279 . S
O66 Cd58 2.223 . S
O66 C65 1.315 . S
O67 Cd57 2.240 . S
O67 C65 1.279 . S
O68 Cd58 2.297 . S
O68 C63 1.247 . S
O69 Cd58 2.439 . S
O69 C63 1.208 . S
O70 Cd71 2.223 . S
O70 C78 1.315 . S
Cd71 O70 2.223 . S
Cd71 O74 2.297 . S
Cd71 O75 2.439 . S
Cd71 O81 2.240 1_556 S
Cd72 O73 2.240 . S
Cd72 O80 2.223 . S
Cd72 O82 2.297 . S
Cd72 O83 2.439 . S
O73 Cd72 2.240 . S
O73 C78 1.279 . S
O74 Cd71 2.297 . S
O74 C76 1.247 . S
O75 Cd71 2.439 . S
O75 C76 1.208 . S
C76 O74 1.247 . S
C76 O75 1.208 . S
C77 O82 1.247 . S
C77 O83 1.208 . S
C78 O70 1.315 . S
C78 O73 1.279 . S
C79 O80 1.315 . S
C79 O81 1.279 1_556 S
O80 Cd72 2.223 . S
O80 C79 1.315 . S
O81 Cd71 2.240 1_554 S
O81 C79 1.279 1_554 S
O82 Cd72 2.297 . S
O82 C77 1.247 . S
O83 Cd72 2.439 . S
O83 C77 1.208 . S
C6 C77 2.316 1_554 S
C20 C7 2.316 1_654 S
C21 C34 2.318 1_545 S
C48 C35 2.317 1_554 S
C49 C62 2.316 1_656 S
C76 C63 2.318 1_545 S
C64 C9 1.666 . S
C78 C23 1.664 . S
C37 C8 1.666 . S
C51 C22 1.667 . S
C65 C36 1.664 . S
C79 C50 1.666 . S
