# Generated by pormake.
# Topology sxa, (6)-cn, num edge types: 1
# Building blocks:
#     Node 0, Type 0, BuildingBlock: VOLQOD_clean_sbu_1, # of connection points: 6
#     Node 1, Type 0, BuildingBlock: VOLQOD_clean_sbu_1, # of connection points: 6
#     Node 2, Type 0, BuildingBlock: VOLQOD_clean_sbu_1, # of connection points: 6
#     Node 3, Type 0, BuildingBlock: VOLQOD_clean_sbu_1, # of connection points: 6
#     Edge 4, Type (0, 0), BuildingBlock: OJICUG_clean_linker_0, # of connection points: 2
#     Edge 5, Type (0, 0), BuildingBlock: OJICUG_clean_linker_0, # of connection points: 2
#     Edge 6, Type (0, 0), BuildingBlock: OJICUG_clean_linker_0, # of connection points: 2
#     Edge 7, Type (0, 0), BuildingBlock: OJICUG_clean_linker_0, # of connection points: 2
#     Edge 8, Type (0, 0), BuildingBlock: OJICUG_clean_linker_0, # of connection points: 2
#     Edge 9, Type (0, 0), BuildingBlock: OJICUG_clean_linker_0, # of connection points: 2
#     Edge 10, Type (0, 0), BuildingBlock: OJICUG_clean_linker_0, # of connection points: 2
#     Edge 11, Type (0, 0), BuildingBlock: OJICUG_clean_linker_0, # of connection points: 2
#     Edge 12, Type (0, 0), BuildingBlock: OJICUG_clean_linker_0, # of connection points: 2
#     Edge 13, Type (0, 0), BuildingBlock: OJICUG_clean_linker_0, # of connection points: 2
#     Edge 14, Type (0, 0), BuildingBlock: OJICUG_clean_linker_0, # of connection points: 2
#     Edge 15, Type (0, 0), BuildingBlock: OJICUG_clean_linker_0, # of connection points: 2
# Relax obj value: 0.229
# Max RMSD: 0.203
# Mean RMSD: 0.203
data_MOF--net-sxa--node1-VOLQOD_clean_sbu_1--edge1-OJICUG_clean_linker_0
_symmetry_space_group_name_H-M    P1
_symmetry_Int_Tables_number       1
_symmetry_cell_setting            triclinic
loop_
_symmetry_equiv_pos_as_xyz
'x, y, z'
_cell_length_a     19.108083
_cell_length_b     22.958289
_cell_length_c     13.349498
_cell_angle_alpha  89.783684
_cell_angle_beta   90.172843
_cell_angle_gamma 88.370037
loop_
_atom_site_label
_atom_site_type_symbol
_atom_site_fract_x
_atom_site_fract_y
_atom_site_fract_z
_atom_type_partial_charge
O0 O 0.89561 0.72949 0.39072 0.0
Zn1 Zn -0.00404 0.71817 0.33462 0.0
O2 O 0.01741 0.78383 0.25394 0.0
Zn3 Zn 0.06862 0.76398 0.13585 0.0
Zn4 Zn 0.93398 0.81595 0.20517 0.0
Zn5 Zn 0.06696 0.84237 0.32231 0.0
O6 O 0.17102 0.77707 0.1589 0.0
O7 O 0.16871 0.83287 0.29471 0.0
O8 O 0.00186 0.64451 0.24203 0.0
O9 O 0.05796 0.68035 0.11077 0.0
O10 O 0.02142 0.80068 1.01314 0.0
O11 O 0.91937 0.77625 0.07787 0.0
O12 O 0.94869 0.89887 0.16767 0.0
O13 O 0.07073 0.72438 0.4452 0.0
O14 O 0.03872 0.92277 0.26342 0.0
O15 O 0.06598 0.82083 0.46905 0.0
C16 C 0.84604 0.76614 0.36853 0.0
C17 C 0.20208 0.80439 0.2283 0.0
C18 C 0.95765 0.78668 1.00243 0.0
C19 C 0.02883 0.63832 0.1545 0.0
C20 C -0.0066 0.93562 0.19522 0.0
C21 C 0.08902 0.76971 0.49407 0.0
O22 O 0.85371 0.80395 0.29945 0.0
O23 O 0.39576 0.23071 0.39007 0.0
Zn24 Zn 0.4961 0.2198 0.33371 0.0
O25 O 0.51756 0.28578 0.2537 0.0
Zn26 Zn 0.56857 0.26621 0.13522 0.0
Zn27 Zn 0.43399 0.31845 0.20624 0.0
Zn28 Zn 0.56765 0.34392 0.3225 0.0
O29 O 0.67105 0.27912 0.15781 0.0
O30 O 0.66937 0.33412 0.29458 0.0
O31 O 0.50205 0.14642 0.24057 0.0
O32 O 0.55799 0.18264 0.10952 0.0
O33 O 0.52125 0.30289 1.01272 0.0
O34 O 0.41875 0.27996 0.07811 0.0
O35 O 0.44874 0.40144 0.17006 0.0
O36 O 0.57083 0.22549 0.44432 0.0
O37 O 0.53975 0.42464 0.26442 0.0
O38 O 0.56679 0.32189 0.46907 0.0
C39 C 0.34617 0.26752 0.36875 0.0
C40 C 0.70243 0.30597 0.22747 0.0
C41 C 0.4572 0.28959 1.00251 0.0
C42 C 0.52897 0.14047 0.15297 0.0
C43 C 0.49394 0.43789 0.19709 0.0
C44 C 0.5894 0.27057 0.49365 0.0
O45 O 0.3538 0.30585 0.30052 0.0
O46 O 0.07149 0.226 0.65124 0.0
Zn47 Zn -0.00304 0.21913 0.76132 0.0
O48 O 0.01778 0.28455 0.84213 0.0
Zn49 Zn 0.06923 0.26447 0.96073 0.0
Zn50 Zn 0.06636 0.34385 0.77386 0.0
Zn51 Zn 0.93412 0.31569 0.89067 0.0
O52 O 0.02146 0.29987 0.08342 0.0
O53 O 0.91989 0.27488 1.01742 0.0
O54 O 0.00354 0.14521 0.85381 0.0
O55 O 0.05981 0.18053 0.98539 0.0
O56 O 0.17138 0.27868 0.93838 0.0
O57 O 0.16802 0.33534 0.80286 0.0
O58 O 0.03696 0.42384 0.83236 0.0
O59 O 0.89647 0.22984 0.7048 0.0
O60 O 0.94803 0.39854 0.92868 0.0
O61 O 0.85391 0.30352 0.79602 0.0
C62 C 0.08985 0.27145 0.60235 0.0
C63 C 0.95792 0.28508 0.09337 0.0
C64 C 0.20188 0.30679 0.86931 0.0
C65 C 0.03083 0.13863 0.94134 0.0
C66 C -0.00803 0.43591 0.90088 0.0
C67 C 0.84653 0.26594 0.72693 0.0
O68 O 0.06692 0.32255 0.62697 0.0
O69 O 0.57142 0.72712 0.65206 0.0
Zn70 Zn 0.49694 0.72076 0.7622 0.0
O71 O 0.51777 0.78653 0.84231 0.0
Zn72 Zn 0.56902 0.76678 0.96132 0.0
Zn73 Zn 0.56687 0.84544 0.77355 0.0
Zn74 Zn 0.43396 0.8182 0.88957 0.0
O75 O 0.52109 0.80216 0.08378 0.0
O76 O 0.4191 0.77856 1.01713 0.0
O77 O 0.50365 0.64714 0.85528 0.0
O78 O 0.55975 0.68289 0.98662 0.0
O79 O 0.67123 0.78087 0.93944 0.0
O80 O 0.6685 0.83666 0.80287 0.0
O81 O 0.53779 0.92575 0.83124 0.0
O82 O 0.39645 0.73104 0.70547 0.0
O83 O 0.44791 0.90113 0.92629 0.0
O84 O 0.35384 0.80544 0.79491 0.0
C85 C 0.59006 0.77231 0.6027 0.0
C86 C 0.4573 0.788 0.09324 0.0
C87 C 0.70205 0.80849 0.87009 0.0
C88 C 0.53091 0.64083 0.94287 0.0
C89 C 0.49233 0.93821 0.89895 0.0
C90 C 0.34649 0.76731 0.72671 0.0
O91 O 0.56754 0.82361 0.62686 0.0
C92 C 0.05166 0.52892 0.94354 0.0
C93 C -0.00183 0.48974 0.9622 0.0
H94 H 0.10433 0.60491 0.9907 0.0
C95 C 0.95616 0.49857 0.04813 0.0
H96 H 0.08575 0.52327 0.87942 0.0
C97 C 0.96764 0.54509 0.11366 0.0
C98 C 0.02107 0.58427 0.0945 0.0
H99 H 0.91473 0.46903 0.06576 0.0
H100 H 0.93373 0.55107 0.17789 0.0
C101 C 0.06281 0.57545 1.00849 0.0
C102 C 0.55456 0.53055 0.15391 0.0
C103 C 0.50045 0.49189 0.13572 0.0
H104 H 0.60764 0.60638 0.10613 0.0
C105 C 0.45791 0.5013 0.05 0.0
H106 H 0.58905 0.5244 0.21785 0.0
C107 C 0.46945 0.5479 0.98425 0.0
C108 C 0.52341 0.58661 1.00298 0.0
H109 H 0.41604 0.47214 1.03264 0.0
H110 H 0.4351 0.55435 0.92023 0.0
C111 C 0.56572 0.57724 0.08874 0.0
C112 C 0.55163 1.03149 0.94125 0.0
C113 C 0.49848 0.99205 0.96023 0.0
H114 H 0.60396 0.1077 0.98825 0.0
C115 C 0.45674 1.0006 1.04653 0.0
H116 H 0.58549 1.02604 0.87684 0.0
C117 C 0.46817 0.0471 0.1121 0.0
C118 C 0.52126 0.08654 0.09265 0.0
H119 H 0.41565 0.97081 0.06452 0.0
H120 H 0.43451 0.05282 0.17665 0.0
C121 C 0.56271 0.07803 1.00626 0.0
C122 C 0.95716 0.99935 0.04853 0.0
C123 C 1e-05 0.9896 0.13381 0.0
H124 H 0.93419 0.0527 0.91913 0.0
C125 C 0.05454 1.02793 0.1516 0.0
H126 H 0.91488 0.97051 1.03161 0.0
C127 C 0.06582 0.07459 0.08645 0.0
C128 C 0.02321 0.0843 1.00112 0.0
H129 H 0.08928 1.02152 0.21519 0.0
H130 H 0.10808 0.10345 0.10354 0.0
C131 C 0.96881 0.04594 0.98278 0.0
C132 C 0.26196 0.71826 0.61045 0.0
C133 C 0.2783 0.76553 0.67217 0.0
H134 H 0.18866 0.68161 0.50825 0.0
C135 C 0.22846 0.81158 0.68172 0.0
H136 H 0.29869 0.68182 0.6019 0.0
C137 C 0.1654 0.81154 0.62791 0.0
C138 C 0.14982 0.76507 0.5641 0.0
H139 H 0.23886 0.84864 0.72889 0.0
H140 H 0.12956 0.84874 0.63439 0.0
C141 C 0.19834 0.71785 0.55763 0.0
C142 C 0.16649 0.31351 0.46889 0.0
C143 C 0.15033 0.26673 0.53219 0.0
H144 H 0.24013 0.35038 0.36799 0.0
C145 C 0.19796 0.2188 0.53786 0.0
H146 H 0.13138 0.35126 0.46301 0.0
C147 C 0.26127 0.21875 0.48475 0.0
C148 C 0.2782 0.26625 0.42348 0.0
H149 H 0.18784 0.18227 0.58677 0.0
H150 H 0.2973 0.18173 0.49269 0.0
C151 C 0.22924 0.31308 0.41475 0.0
C152 C 0.76186 0.21783 0.60974 0.0
C153 C 0.77837 0.26469 0.67227 0.0
H154 H 0.68849 0.18204 0.50674 0.0
C155 C 0.72878 0.31088 0.68241 0.0
H156 H 0.7984 0.1813 0.60072 0.0
C157 C 0.6658 0.3114 0.62839 0.0
C158 C 0.65006 0.26534 0.56379 0.0
H159 H 0.73934 0.34764 0.73021 0.0
H160 H 0.63016 0.3487 0.63532 0.0
C161 C 0.69831 0.21796 0.55673 0.0
C162 C 0.761 0.71831 0.48545 0.0
C163 C 0.77811 0.76541 0.42336 0.0
H164 H 0.6875 0.68269 0.58826 0.0
C165 C 0.72939 0.81238 0.41401 0.0
H166 H 0.79684 0.68121 0.49389 0.0
C167 C 0.66673 0.81336 0.46835 0.0
C168 C 0.6504 0.767 0.53244 0.0
H169 H 0.74044 0.84938 0.36662 0.0
H170 H 0.63182 0.85121 0.46199 0.0
C171 C 0.69776 0.71891 0.53872 0.0
C172 C 0.3836 0.74114 0.21224 0.0
C173 C 0.4199 0.79149 0.18778 0.0
H174 H 0.28239 0.7061 0.23679 0.0
C175 C 0.38944 0.84624 0.21029 0.0
H176 H 0.40661 0.69843 0.19659 0.0
C177 C 0.31811 0.85078 0.23295 0.0
C178 C 0.27838 0.80039 0.23452 0.0
H179 H 0.41689 0.88566 0.19285 0.0
H180 H 0.29284 0.89352 0.23762 0.0
C181 C 0.31217 0.7455 0.23202 0.0
C182 C 0.31761 0.35362 0.86489 0.0
C183 C 0.27811 0.30313 0.86272 0.0
H184 H 0.41663 0.3883 0.90441 0.0
C185 C 0.31215 0.24832 0.86332 0.0
H186 H 0.29211 0.39635 0.86142 0.0
C187 C 0.38382 0.24394 0.88198 0.0
C188 C 0.42003 0.29408 0.90756 0.0
H189 H 0.2825 0.2089 0.85781 0.0
H190 H 0.40713 0.20108 0.89631 0.0
C191 C 0.3892 0.34901 0.8864 0.0
C192 C 0.81146 0.24583 0.23296 0.0
C193 C 0.77868 0.30115 0.23379 0.0
H194 H 0.90499 0.19717 0.19893 0.0
C195 C 0.81935 0.35097 0.23064 0.0
H196 H 0.78092 0.20691 0.23892 0.0
C197 C 0.89066 0.34527 0.20827 0.0
C198 C 0.92013 0.28993 0.18748 0.0
H199 H 0.79484 0.39406 0.234 0.0
H200 H 0.91888 0.38413 0.18981 0.0
C201 C 0.88283 0.24033 0.21333 0.0
C202 C 0.88283 0.74327 0.88096 0.0
C203 C 0.92007 0.79263 0.90796 0.0
H204 H 0.78084 0.70986 0.85555 0.0
C205 C 0.89024 0.84815 0.88857 0.0
H206 H 0.90538 0.70002 0.89397 0.0
C207 C 0.81869 0.85393 0.86726 0.0
C208 C 0.77824 0.80402 0.86341 0.0
H209 H 0.91852 0.88683 0.90765 0.0
H210 H 0.79398 0.89699 0.86516 0.0
C211 C 0.81125 0.74881 0.86231 0.0
loop_
_geom_bond_atom_site_label_1
_geom_bond_atom_site_label_2
_geom_bond_distance
_geom_bond_site_symmetry_2
_ccdc_geom_bond_type
O0 Zn1 1.953 1_655 S
O0 C16 1.225 . S
Zn1 O0 1.953 1_455 S
Zn1 O2 1.949 . S
Zn1 O8 1.919 . S
Zn1 O13 1.924 . S
O2 Zn1 1.949 . S
O2 Zn3 1.923 . S
O2 Zn4 1.950 1_455 S
O2 Zn5 1.945 . S
Zn3 O2 1.923 . S
Zn3 O6 1.933 1_554 S
Zn3 O9 1.941 . S
Zn3 O10 1.965 1_454 S
Zn4 O2 1.950 1_655 S
Zn4 O11 1.938 . S
Zn4 O12 1.906 . S
Zn4 O22 1.953 . S
Zn5 O2 1.945 . S
Zn5 O7 1.932 . S
Zn5 O14 1.977 . S
Zn5 O15 1.910 . S
O6 Zn3 1.933 1_556 S
O6 C17 1.226 1_556 S
O7 Zn5 1.932 . S
O7 C17 1.307 . S
O8 Zn1 1.919 . S
O8 C19 1.253 . S
O9 Zn3 1.941 . S
O9 C19 1.283 . S
O10 Zn3 1.965 1_656 S
O10 C18 1.303 1_556 S
O11 Zn4 1.938 . S
O11 C18 1.247 . S
O12 Zn4 1.906 . S
O12 C20 1.304 1_655 S
O13 Zn1 1.924 . S
O13 C21 1.311 . S
O14 Zn5 1.977 . S
O14 C20 1.272 . S
O15 Zn5 1.910 . S
O15 C21 1.231 . S
C16 O0 1.225 . S
C16 O22 1.298 . S
C17 O6 1.226 1_554 S
C17 O7 1.307 . S
C18 O10 1.303 1_554 S
C18 O11 1.247 . S
C19 O8 1.253 . S
C19 O9 1.283 . S
C20 O12 1.304 1_455 S
C20 O14 1.272 . S
C21 O13 1.311 . S
C21 O15 1.231 . S
O22 Zn4 1.953 . S
O22 C16 1.298 . S
O23 Zn24 1.953 . S
O23 C39 1.225 . S
Zn24 O23 1.953 . S
Zn24 O25 1.949 . S
Zn24 O31 1.919 . S
Zn24 O36 1.924 . S
O25 Zn24 1.949 . S
O25 Zn26 1.923 . S
O25 Zn27 1.950 . S
O25 Zn28 1.945 . S
Zn26 O25 1.923 . S
Zn26 O29 1.933 1_554 S
Zn26 O32 1.941 . S
Zn26 O33 1.965 1_554 S
Zn27 O25 1.950 . S
Zn27 O34 1.938 . S
Zn27 O35 1.906 . S
Zn27 O45 1.953 . S
Zn28 O25 1.945 . S
Zn28 O30 1.932 . S
Zn28 O37 1.977 . S
Zn28 O38 1.910 . S
O29 Zn26 1.933 1_556 S
O29 C40 1.226 1_556 S
O30 Zn28 1.932 . S
O30 C40 1.307 . S
O31 Zn24 1.919 . S
O31 C42 1.253 . S
O32 Zn26 1.941 . S
O32 C42 1.283 . S
O33 Zn26 1.965 1_556 S
O33 C41 1.303 1_556 S
O34 Zn27 1.938 . S
O34 C41 1.247 . S
O35 Zn27 1.906 . S
O35 C43 1.304 . S
O36 Zn24 1.924 . S
O36 C44 1.311 . S
O37 Zn28 1.977 . S
O37 C43 1.272 . S
O38 Zn28 1.910 . S
O38 C44 1.231 . S
C39 O23 1.225 . S
C39 O45 1.298 . S
C40 O29 1.226 1_554 S
C40 O30 1.307 . S
C41 O33 1.303 1_554 S
C41 O34 1.247 . S
C42 O31 1.253 . S
C42 O32 1.283 . S
C43 O35 1.304 . S
C43 O37 1.272 . S
C44 O36 1.311 . S
C44 O38 1.231 . S
O45 Zn27 1.953 . S
O45 C39 1.298 . S
O46 Zn47 1.953 . S
O46 C62 1.225 . S
Zn47 O46 1.953 . S
Zn47 O48 1.949 . S
Zn47 O54 1.919 . S
Zn47 O59 1.924 1_455 S
O48 Zn47 1.949 . S
O48 Zn49 1.923 . S
O48 Zn50 1.950 . S
O48 Zn51 1.945 1_455 S
Zn49 O48 1.923 . S
Zn49 O52 1.933 1_456 S
Zn49 O55 1.941 . S
Zn49 O56 1.965 1_556 S
Zn50 O48 1.950 . S
Zn50 O57 1.938 . S
Zn50 O58 1.906 . S
Zn50 O68 1.953 . S
Zn51 O48 1.945 1_655 S
Zn51 O53 1.932 . S
Zn51 O60 1.977 . S
Zn51 O61 1.910 . S
O52 Zn49 1.933 1_654 S
O52 C63 1.226 1_554 S
O53 Zn51 1.932 . S
O53 C63 1.307 . S
O54 Zn47 1.919 . S
O54 C65 1.253 . S
O55 Zn49 1.941 . S
O55 C65 1.283 . S
O56 Zn49 1.965 1_554 S
O56 C64 1.303 1_554 S
O57 Zn50 1.938 . S
O57 C64 1.247 . S
O58 Zn50 1.906 . S
O58 C66 1.304 . S
O59 Zn47 1.924 1_655 S
O59 C67 1.311 . S
O60 Zn51 1.977 . S
O60 C66 1.272 1_655 S
O61 Zn51 1.910 . S
O61 C67 1.231 . S
C62 O46 1.225 . S
C62 O68 1.298 . S
C63 O52 1.226 1_556 S
C63 O53 1.307 . S
C64 O56 1.303 1_556 S
C64 O57 1.247 . S
C65 O54 1.253 . S
C65 O55 1.283 . S
C66 O58 1.304 . S
C66 O60 1.272 1_455 S
C67 O59 1.311 . S
C67 O61 1.231 . S
O68 Zn50 1.953 . S
O68 C62 1.298 . S
O69 Zn70 1.953 . S
O69 C85 1.225 . S
Zn70 O69 1.953 . S
Zn70 O71 1.949 . S
Zn70 O77 1.919 . S
Zn70 O82 1.924 . S
O71 Zn70 1.949 . S
O71 Zn72 1.923 . S
O71 Zn73 1.950 . S
O71 Zn74 1.945 . S
Zn72 O71 1.923 . S
Zn72 O75 1.933 1_556 S
Zn72 O78 1.941 . S
Zn72 O79 1.965 1_556 S
Zn73 O71 1.950 . S
Zn73 O80 1.938 . S
Zn73 O81 1.906 . S
Zn73 O91 1.953 . S
Zn74 O71 1.945 . S
Zn74 O76 1.932 . S
Zn74 O83 1.977 . S
Zn74 O84 1.910 . S
O75 Zn72 1.933 1_554 S
O75 C86 1.226 1_554 S
O76 Zn74 1.932 . S
O76 C86 1.307 . S
O77 Zn70 1.919 . S
O77 C88 1.253 . S
O78 Zn72 1.941 . S
O78 C88 1.283 . S
O79 Zn72 1.965 1_554 S
O79 C87 1.303 1_554 S
O80 Zn73 1.938 . S
O80 C87 1.247 . S
O81 Zn73 1.906 . S
O81 C89 1.304 . S
O82 Zn70 1.924 . S
O82 C90 1.311 . S
O83 Zn74 1.977 . S
O83 C89 1.272 . S
O84 Zn74 1.910 . S
O84 C90 1.231 . S
C85 O69 1.225 . S
C85 O91 1.298 . S
C86 O75 1.226 1_556 S
C86 O76 1.307 . S
C87 O79 1.303 1_556 S
C87 O80 1.247 . S
C88 O77 1.253 . S
C88 O78 1.283 . S
C89 O81 1.304 . S
C89 O83 1.272 . S
C90 O82 1.311 . S
C90 O84 1.231 . S
O91 Zn73 1.953 . S
O91 C85 1.298 . S
C92 C93 1.387 . S
C92 H96 0.950 . S
C92 C101 1.390 . S
C93 C92 1.387 . S
C93 C95 1.387 1_456 S
H94 C101 0.950 . S
C95 C93 1.387 1_654 S
C95 C97 1.390 1_655 S
C95 H99 0.950 . S
H96 C92 0.950 . S
C97 C95 1.390 1_455 S
C97 C98 1.387 . S
C97 H100 0.950 1_455 S
C98 C97 1.387 . S
C98 C101 1.387 1_554 S
H99 C95 0.950 . S
H100 C97 0.950 1_655 S
C101 C92 1.390 . S
C101 H94 0.950 . S
C101 C98 1.387 1_556 S
C102 C103 1.387 . S
C102 H106 0.950 . S
C102 C111 1.390 . S
C103 C102 1.387 . S
C103 C105 1.387 1_554 S
H104 C111 0.950 . S
C105 C103 1.387 1_556 S
C105 C107 1.390 . S
C105 H109 0.950 . S
H106 C102 0.950 . S
C107 C105 1.390 . S
C107 C108 1.387 . S
C107 H110 0.950 . S
C108 C107 1.387 . S
C108 C111 1.387 1_556 S
H109 C105 0.950 . S
H110 C107 0.950 . S
C111 C102 1.390 . S
C111 H104 0.950 . S
C111 C108 1.387 1_554 S
C112 C113 1.387 . S
C112 H116 0.950 . S
C112 C121 1.390 1_566 S
C113 C112 1.387 . S
C113 C115 1.387 1_565 S
H114 C121 0.950 . S
C115 C113 1.387 1_545 S
C115 C117 1.390 1_556 S
C115 H119 0.950 . S
H116 C112 0.950 . S
C117 C115 1.390 1_554 S
C117 C118 1.387 . S
C117 H120 0.950 . S
C118 C117 1.387 . S
C118 C121 1.387 . S
H119 C115 0.950 . S
H120 C117 0.950 . S
C121 C112 1.390 1_544 S
C121 H114 0.950 . S
C121 C118 1.387 . S
C122 C123 1.387 1_655 S
C122 H126 0.950 . S
C122 C131 1.390 1_564 S
C123 C122 1.387 1_455 S
C123 C125 1.387 . S
H124 C131 0.950 . S
C125 C123 1.387 . S
C125 C127 1.390 1_564 S
C125 H129 0.950 . S
H126 C122 0.950 . S
C127 C125 1.390 1_546 S
C127 C128 1.387 . S
C127 H130 0.950 . S
C128 C127 1.387 . S
C128 C131 1.387 1_455 S
H129 C125 0.950 . S
H130 C127 0.950 . S
C131 C122 1.390 1_546 S
C131 H124 0.950 . S
C131 C128 1.387 1_655 S
C132 C133 1.387 . S
C132 H136 0.950 . S
C132 C141 1.390 . S
C133 C132 1.387 . S
C133 C135 1.387 . S
H134 C141 0.950 . S
C135 C133 1.387 . S
C135 C137 1.390 . S
C135 H139 0.950 . S
H136 C132 0.950 . S
C137 C135 1.390 . S
C137 C138 1.387 . S
C137 H140 0.950 . S
C138 C137 1.387 . S
C138 C141 1.387 . S
H139 C135 0.950 . S
H140 C137 0.950 . S
C141 C132 1.390 . S
C141 H134 0.950 . S
C141 C138 1.387 . S
C142 C143 1.387 . S
C142 H146 0.950 . S
C142 C151 1.390 . S
C143 C142 1.387 . S
C143 C145 1.387 . S
H144 C151 0.950 . S
C145 C143 1.387 . S
C145 C147 1.390 . S
C145 H149 0.950 . S
H146 C142 0.950 . S
C147 C145 1.390 . S
C147 C148 1.387 . S
C147 H150 0.950 . S
C148 C147 1.387 . S
C148 C151 1.387 . S
H149 C145 0.950 . S
H150 C147 0.950 . S
C151 C142 1.390 . S
C151 H144 0.950 . S
C151 C148 1.387 . S
C152 C153 1.387 . S
C152 H156 0.950 . S
C152 C161 1.390 . S
C153 C152 1.387 . S
C153 C155 1.387 . S
H154 C161 0.950 . S
C155 C153 1.387 . S
C155 C157 1.390 . S
C155 H159 0.950 . S
H156 C152 0.950 . S
C157 C155 1.390 . S
C157 C158 1.387 . S
C157 H160 0.950 . S
C158 C157 1.387 . S
C158 C161 1.387 . S
H159 C155 0.950 . S
H160 C157 0.950 . S
C161 C152 1.390 . S
C161 H154 0.950 . S
C161 C158 1.387 . S
C162 C163 1.387 . S
C162 H166 0.950 . S
C162 C171 1.390 . S
C163 C162 1.387 . S
C163 C165 1.387 . S
H164 C171 0.950 . S
C165 C163 1.387 . S
C165 C167 1.390 . S
C165 H169 0.950 . S
H166 C162 0.950 . S
C167 C165 1.390 . S
C167 C168 1.387 . S
C167 H170 0.950 . S
C168 C167 1.387 . S
C168 C171 1.387 . S
H169 C165 0.950 . S
H170 C167 0.950 . S
C171 C162 1.390 . S
C171 H164 0.950 . S
C171 C168 1.387 . S
C172 C173 1.387 . S
C172 H176 0.950 . S
C172 C181 1.390 1_554 S
C173 C172 1.387 . S
C173 C175 1.387 . S
H174 C181 0.950 . S
C175 C173 1.387 . S
C175 C177 1.390 1_554 S
C175 H179 0.950 . S
H176 C172 0.950 . S
C177 C175 1.390 1_556 S
C177 C178 1.387 . S
C177 H180 0.950 . S
C178 C177 1.387 . S
C178 C181 1.387 . S
H179 C175 0.950 . S
H180 C177 0.950 . S
C181 C172 1.390 1_556 S
C181 H174 0.950 . S
C181 C178 1.387 . S
C182 C183 1.387 . S
C182 H186 0.950 . S
C182 C191 1.390 1_556 S
C183 C182 1.387 . S
C183 C185 1.387 . S
H184 C191 0.950 . S
C185 C183 1.387 . S
C185 C187 1.390 1_556 S
C185 H189 0.950 . S
H186 C182 0.950 . S
C187 C185 1.390 1_554 S
C187 C188 1.387 . S
C187 H190 0.950 . S
C188 C187 1.387 . S
C188 C191 1.387 . S
H189 C185 0.950 . S
H190 C187 0.950 . S
C191 C182 1.390 1_554 S
C191 H184 0.950 . S
C191 C188 1.387 . S
C192 C193 1.387 . S
C192 H196 0.950 . S
C192 C201 1.390 1_556 S
C193 C192 1.387 . S
C193 C195 1.387 . S
H194 C201 0.950 . S
C195 C193 1.387 . S
C195 C197 1.390 1_556 S
C195 H199 0.950 . S
H196 C192 0.950 . S
C197 C195 1.390 1_554 S
C197 C198 1.387 . S
C197 H200 0.950 . S
C198 C197 1.387 . S
C198 C201 1.387 . S
H199 C195 0.950 . S
H200 C197 0.950 . S
C201 C192 1.390 1_554 S
C201 H194 0.950 . S
C201 C198 1.387 . S
C202 C203 1.387 . S
C202 H206 0.950 . S
C202 C211 1.390 1_554 S
C203 C202 1.387 . S
C203 C205 1.387 . S
H204 C211 0.950 . S
C205 C203 1.387 . S
C205 C207 1.390 1_554 S
C205 H209 0.950 . S
H206 C202 0.950 . S
C207 C205 1.390 1_556 S
C207 C208 1.387 . S
C207 H210 0.950 . S
C208 C207 1.387 . S
C208 C211 1.387 . S
H209 C205 0.950 . S
H210 C207 0.950 . S
C211 C202 1.390 1_556 S
C211 H204 0.950 . S
C211 C208 1.387 . S
C93 C66 2.152 . S
C98 C19 2.065 . S
C103 C43 2.153 . S
C108 C88 2.067 . S
C113 C89 2.152 . S
C118 C42 2.066 . S
C123 C20 2.152 . S
C128 C65 2.066 . S
C133 C90 1.531 . S
C138 C21 1.531 . S
C143 C62 1.934 . S
C148 C39 1.934 . S
C153 C67 1.531 . S
C158 C44 1.531 . S
C163 C16 1.934 . S
C168 C85 1.934 . S
C173 C86 1.020 1_554 S
C178 C17 1.020 1_556 S
C183 C64 0.437 . S
C188 C41 0.437 . S
C193 C40 1.013 1_556 S
C198 C63 1.013 1_554 S
C203 C18 0.440 . S
C208 C87 0.440 . S
