# Generated by pormake.
# Topology wfa, (4)-cn, num edge types: 1
# Building blocks:
#     Node 0, Type 0, BuildingBlock: QUQFOY_clean_sbu_1, # of connection points: 4
#     Node 1, Type 0, BuildingBlock: QUQFOY_clean_sbu_1, # of connection points: 4
#     Node 2, Type 0, BuildingBlock: QUQFOY_clean_sbu_1, # of connection points: 4
#     Node 3, Type 0, BuildingBlock: QUQFOY_clean_sbu_1, # of connection points: 4
#     Node 4, Type 0, BuildingBlock: QUQFOY_clean_sbu_1, # of connection points: 4
#     Node 5, Type 0, BuildingBlock: QUQFOY_clean_sbu_1, # of connection points: 4
#     Node 6, Type 0, BuildingBlock: QUQFOY_clean_sbu_1, # of connection points: 4
#     Node 7, Type 0, BuildingBlock: QUQFOY_clean_sbu_1, # of connection points: 4
#     Node 8, Type 0, BuildingBlock: QUQFOY_clean_sbu_1, # of connection points: 4
#     Node 9, Type 0, BuildingBlock: QUQFOY_clean_sbu_1, # of connection points: 4
#     Node 10, Type 0, BuildingBlock: QUQFOY_clean_sbu_1, # of connection points: 4
#     Node 11, Type 0, BuildingBlock: QUQFOY_clean_sbu_1, # of connection points: 4
#     Node 12, Type 0, BuildingBlock: QUQFOY_clean_sbu_1, # of connection points: 4
#     Node 13, Type 0, BuildingBlock: QUQFOY_clean_sbu_1, # of connection points: 4
#     Node 14, Type 0, BuildingBlock: QUQFOY_clean_sbu_1, # of connection points: 4
#     Node 15, Type 0, BuildingBlock: QUQFOY_clean_sbu_1, # of connection points: 4
#     Edge 16, Type (0, 0), None
#     Edge 17, Type (0, 0), None
#     Edge 18, Type (0, 0), None
#     Edge 19, Type (0, 0), None
#     Edge 20, Type (0, 0), None
#     Edge 21, Type (0, 0), None
#     Edge 22, Type (0, 0), None
#     Edge 23, Type (0, 0), None
#     Edge 24, Type (0, 0), None
#     Edge 25, Type (0, 0), None
#     Edge 26, Type (0, 0), None
#     Edge 27, Type (0, 0), None
#     Edge 28, Type (0, 0), None
#     Edge 29, Type (0, 0), None
#     Edge 30, Type (0, 0), None
#     Edge 31, Type (0, 0), None
#     Edge 32, Type (0, 0), None
#     Edge 33, Type (0, 0), None
#     Edge 34, Type (0, 0), None
#     Edge 35, Type (0, 0), None
#     Edge 36, Type (0, 0), None
#     Edge 37, Type (0, 0), None
#     Edge 38, Type (0, 0), None
#     Edge 39, Type (0, 0), None
#     Edge 40, Type (0, 0), None
#     Edge 41, Type (0, 0), None
#     Edge 42, Type (0, 0), None
#     Edge 43, Type (0, 0), None
#     Edge 44, Type (0, 0), None
#     Edge 45, Type (0, 0), None
#     Edge 46, Type (0, 0), None
#     Edge 47, Type (0, 0), None
# Relax obj value: 0.055
# Max RMSD: 0.124
# Mean RMSD: 0.124
data_MOF--net-wfa--node1-QUQFOY_clean_sbu_1--edge1-none
_symmetry_space_group_name_H-M    P1
_symmetry_Int_Tables_number       1
_symmetry_cell_setting            triclinic
loop_
_symmetry_equiv_pos_as_xyz
'x, y, z'
_cell_length_a     20.073356
_cell_length_b     20.073265
_cell_length_c     10.598974
_cell_angle_alpha  89.996218
_cell_angle_beta   90.004132
_cell_angle_gamma 90.000012
loop_
_atom_site_label
_atom_site_type_symbol
_atom_site_fract_x
_atom_site_fract_y
_atom_site_fract_z
_atom_type_partial_charge
O0 O 0.92627 0.1519 0.08882 0.0
Cd1 Cd 0.83916 0.17387 1.00558 0.0
Cd2 Cd 0.76792 1.1062 0.15534 0.0
O3 O 0.86596 1.06777 0.14783 0.0
O4 O 0.84493 0.19467 0.82348 0.0
O5 O 0.81559 1.0946 0.89308 0.0
C6 C 0.83171 0.13273 0.79982 0.0
C7 C 0.66145 1.11961 0.05469 0.0
C8 C 0.91534 1.10712 0.17011 0.0
C9 C 0.77421 0.23101 0.24419 0.0
O10 O 0.77712 0.17316 0.28937 0.0
O11 O 0.7831 0.23982 0.12522 0.0
O12 O 0.67056 1.07586 0.14316 0.0
O13 O 0.7136 0.14956 1.01231 0.0
O14 O 0.60339 0.92627 0.08881 0.0
Cd15 Cd 0.58142 0.83915 1.00558 0.0
Cd16 Cd 0.64909 0.76791 0.15535 0.0
O17 O 0.68752 0.86596 0.14784 0.0
O18 O 0.56064 0.84493 0.82348 0.0
O19 O 0.6607 0.8156 0.89311 0.0
C20 C 0.62257 0.83171 0.79984 0.0
C21 C 0.63569 0.66145 0.05469 0.0
C22 C 0.64817 0.91533 0.1701 0.0
C23 C 0.52429 0.7742 0.2442 0.0
O24 O 0.58213 0.7771 0.28938 0.0
O25 O 0.51548 0.78309 0.12523 0.0
O26 O 0.67944 0.67055 0.14316 0.0
O27 O 0.60573 0.71359 1.01232 0.0
O28 O 0.82903 0.60341 0.08878 0.0
Cd29 Cd 0.91614 0.58144 1.00556 0.0
Cd30 Cd 0.98739 0.6491 0.15532 0.0
O31 O 0.88934 0.68753 0.14779 0.0
O32 O 0.91038 0.56065 0.82346 0.0
O33 O 0.9397 0.66072 0.89306 0.0
C34 C 0.92359 0.62259 0.7998 0.0
C35 C 1.09385 0.63569 0.05469 0.0
C36 C 0.83996 0.64819 0.17006 0.0
C37 C 0.98109 0.52429 0.24418 0.0
O38 O 0.97818 0.58214 0.28935 0.0
O39 O 0.97221 0.51549 0.12522 0.0
O40 O 1.08474 0.67944 0.14315 0.0
O41 O 1.0417 0.60574 1.0123 0.0
O42 O 0.15188 0.82902 0.08879 0.0
Cd43 Cd 0.17386 0.91614 1.00556 0.0
Cd44 Cd 1.10619 0.98738 0.15532 0.0
O45 O 1.06776 0.88934 0.14779 0.0
O46 O 0.19465 0.91037 0.82347 0.0
O47 O 1.09459 0.93971 0.89304 0.0
C48 C 0.13272 0.92359 0.79979 0.0
C49 C 1.1196 1.09385 0.05469 0.0
C50 C 1.1071 0.83996 0.17007 0.0
C51 C 0.231 0.98109 0.24418 0.0
O52 O 0.17316 0.97817 0.28935 0.0
O53 O 0.2398 0.9722 0.12521 0.0
O54 O 1.07586 1.08474 0.14315 0.0
O55 O 0.14955 1.0417 1.0123 0.0
O56 O 0.42628 1.10341 0.4697 0.0
Cd57 Cd 0.33916 1.08141 0.5529 0.0
Cd58 Cd 0.2679 0.14912 0.4031 0.0
O59 O 0.36595 0.18753 0.41071 0.0
O60 O 0.34494 1.06062 0.73499 0.0
O61 O 0.31558 0.16068 0.66538 0.0
C62 C 0.3317 1.12255 0.75864 0.0
C63 C 0.16145 0.13569 0.50379 0.0
C64 C 0.41533 0.14819 0.38842 0.0
C65 C 0.27426 1.02433 0.31422 0.0
O66 O 0.27711 1.08218 0.26904 0.0
O67 O 0.28312 1.01548 0.43318 0.0
O68 O 0.17054 0.17947 0.41536 0.0
O69 O 0.21359 1.10571 0.5461 0.0
O70 O 0.65187 0.42629 0.46969 0.0
Cd71 Cd 0.67388 0.33916 0.55289 0.0
Cd72 Cd 0.60618 0.2679 0.4031 0.0
O73 O 0.56776 0.36595 0.41071 0.0
O74 O 0.69469 0.34494 0.73499 0.0
O75 O 0.59463 0.31557 0.6654 0.0
C76 C 0.63276 0.3317 0.75865 0.0
C77 C 0.61961 0.16145 0.50379 0.0
C78 C 0.6071 0.41533 0.38841 0.0
C79 C 0.73096 0.27427 0.31422 0.0
O80 O 0.67311 0.27712 0.26903 0.0
O81 O 0.73982 0.28312 0.43318 0.0
O82 O 0.57583 0.17055 0.41536 0.0
O83 O 0.64958 0.21359 0.5461 0.0
O84 O 0.32901 0.65186 0.46973 0.0
Cd85 Cd 0.41613 0.67387 0.55292 0.0
Cd86 Cd 0.48739 0.60617 0.40313 0.0
O87 O 0.38935 0.56774 0.41076 0.0
O88 O 0.41036 0.69467 0.73501 0.0
O89 O 0.43973 0.59461 0.66545 0.0
C90 C 0.4236 0.63274 0.75869 0.0
C91 C 0.59385 0.6196 0.5038 0.0
C92 C 0.33996 0.60708 0.38845 0.0
C93 C 0.48102 0.73095 0.31424 0.0
O94 O 0.47817 0.67311 0.26906 0.0
O95 O 0.47217 0.73981 0.4332 0.0
O96 O 0.58475 0.57583 0.41538 0.0
O97 O 0.5417 0.64957 0.54612 0.0
O98 O 1.10343 0.32902 0.46974 0.0
Cd99 Cd 1.08142 0.41614 0.55292 0.0
Cd100 Cd 0.14912 0.4874 0.40314 0.0
O101 O 0.18755 0.38935 0.41076 0.0
O102 O 1.06063 0.41037 0.73502 0.0
O103 O 0.16069 0.43972 0.66543 0.0
C104 C 1.12256 0.4236 0.75868 0.0
C105 C 0.13569 0.59385 0.5038 0.0
C106 C 0.14821 0.33997 0.38847 0.0
C107 C 1.02434 0.48103 0.31424 0.0
O108 O 1.08219 0.47818 0.26906 0.0
O109 O 1.01549 0.47218 0.4332 0.0
O110 O 0.17947 0.58475 0.41538 0.0
O111 O 1.10572 0.5417 0.54612 0.0
O112 O 0.32898 1.10328 0.9696 0.0
Cd113 Cd 0.41607 1.08133 0.05291 0.0
Cd114 Cd 0.4873 0.14901 0.90329 0.0
O115 O 0.38927 0.18752 0.91051 0.0
O116 O 0.4103 1.0606 0.23505 0.0
O117 O 0.43959 0.16066 0.16531 0.0
C118 C 0.42348 1.12255 0.25862 0.0
C119 C 0.59376 0.13561 1.00394 0.0
C120 C 0.33987 0.14816 0.88847 0.0
C121 C 0.48104 1.02423 0.81434 0.0
O122 O 0.47812 1.08208 0.7692 0.0
O123 O 0.47216 1.0154 0.9333 0.0
O124 O 0.58465 0.17936 0.91546 0.0
O125 O 0.54162 1.10566 0.04633 0.0
O126 O 0.65203 0.32898 0.9696 0.0
Cd127 Cd 0.67397 0.41607 0.05291 0.0
Cd128 Cd 0.60629 0.4873 0.90329 0.0
O129 O 0.56779 0.38927 0.91051 0.0
O130 O 0.6947 0.41031 0.23505 0.0
O131 O 0.59464 0.43958 0.16529 0.0
C132 C 0.63274 0.42348 0.25861 0.0
C133 C 0.61969 0.59376 1.00394 0.0
C134 C 0.60715 0.33987 0.88848 0.0
C135 C 0.73108 0.48105 0.81433 0.0
O136 O 0.67322 0.47813 0.7692 0.0
O137 O 0.73991 0.47216 0.93329 0.0
O138 O 0.57594 0.58465 0.91547 0.0
O139 O 0.64965 0.54161 0.04632 0.0
O140 O 0.42631 0.65202 0.96964 0.0
Cd141 Cd 0.33922 0.67396 0.05294 0.0
Cd142 Cd 0.268 0.60628 0.90333 0.0
O143 O 0.36603 0.56778 0.91056 0.0
O144 O 0.34498 0.69468 0.23508 0.0
O145 O 0.31572 0.59463 0.16533 0.0
C146 C 0.33181 0.63273 0.25864 0.0
C147 C 0.16154 0.61969 1.00395 0.0
C148 C 0.41543 0.60714 0.88853 0.0
C149 C 0.27426 0.73107 0.81435 0.0
O150 O 0.27717 0.67321 0.76922 0.0
O151 O 0.28314 0.7399 0.93331 0.0
O152 O 0.17064 0.57594 0.91548 0.0
O153 O 0.21368 0.64964 0.04634 0.0
O154 O 1.10329 0.42632 0.96963 0.0
Cd155 Cd 1.08134 0.33923 0.05294 0.0
Cd156 Cd 0.14902 0.26801 0.90332 0.0
O157 O 0.18753 0.36603 0.91057 0.0
O158 O 1.06061 0.34499 0.23507 0.0
O159 O 0.16067 0.31571 0.16536 0.0
C160 C 1.12256 0.33181 0.25865 0.0
C161 C 0.13561 0.16154 1.00395 0.0
C162 C 0.14817 0.41543 0.88852 0.0
C163 C 1.02423 0.27427 0.81435 0.0
O164 O 1.08209 0.27719 0.76922 0.0
O165 O 1.01541 0.28314 0.93331 0.0
O166 O 0.17936 0.17065 0.91548 0.0
O167 O 1.10566 0.21369 0.04635 0.0
O168 O 0.82897 0.15201 0.58887 0.0
Cd169 Cd 0.91607 0.17399 0.5056 0.0
Cd170 Cd 0.98731 1.10627 0.65525 0.0
O171 O 0.88928 1.06778 0.64793 0.0
O172 O 0.9103 0.19472 0.32346 0.0
O173 O 0.9396 1.09467 0.39322 0.0
C174 C 0.92349 0.13277 0.2999 0.0
C175 C 1.09376 1.11969 0.55457 0.0
C176 C 0.83988 1.10713 0.66998 0.0
C177 C 0.98098 0.23103 0.74425 0.0
O178 O 0.97813 0.17317 0.78938 0.0
O179 O 0.97214 0.23991 0.62529 0.0
O180 O 1.08466 1.07592 0.643 0.0
O181 O 1.04162 0.14967 0.51225 0.0
O182 O 0.6033 0.82897 0.58889 0.0
Cd183 Cd 0.58132 0.91606 0.50561 0.0
Cd184 Cd 0.64904 0.98731 0.65526 0.0
O185 O 0.68753 0.88928 0.64794 0.0
O186 O 0.56058 0.91029 0.32348 0.0
O187 O 0.66063 0.9396 0.39321 0.0
C188 C 0.62253 0.92349 0.2999 0.0
C189 C 0.63561 1.09376 0.55457 0.0
C190 C 0.64818 0.83987 0.67 0.0
C191 C 0.52427 0.98097 0.74425 0.0
O192 O 0.58213 0.97812 0.78939 0.0
O193 O 0.51539 0.97213 0.62529 0.0
O194 O 0.67938 1.08466 0.64301 0.0
O195 O 0.60563 1.04161 0.51225 0.0
O196 O 0.92633 0.60332 0.58886 0.0
Cd197 Cd 0.83924 0.58133 0.50558 0.0
Cd198 Cd 0.76799 0.64905 0.65523 0.0
O199 O 0.86602 0.68754 0.64789 0.0
O200 O 0.845 0.56059 0.32345 0.0
O201 O 0.81569 0.66064 0.39316 0.0
C202 C 0.83181 0.62254 0.29987 0.0
C203 C 0.66154 0.63561 0.55457 0.0
C204 C 0.91542 0.64819 0.66996 0.0
C205 C 0.77433 0.52428 0.74423 0.0
O206 O 0.77719 0.58214 0.78936 0.0
O207 O 0.78317 0.51541 0.62527 0.0
O208 O 0.67064 0.67938 0.643 0.0
O209 O 0.71368 0.60565 0.51223 0.0
O210 O 0.15199 0.92633 0.58884 0.0
Cd211 Cd 0.17397 0.83923 0.50558 0.0
Cd212 Cd 1.10626 0.76799 0.65522 0.0
O213 O 1.06777 0.86602 0.64789 0.0
O214 O 0.1947 0.845 0.32345 0.0
O215 O 1.09466 0.8157 0.39318 0.0
C216 C 0.13275 0.8318 0.29987 0.0
C217 C 1.11969 0.66154 0.55457 0.0
C218 C 1.10712 0.91542 0.66995 0.0
C219 C 0.23102 0.77432 0.74424 0.0
O220 O 0.17317 0.77718 0.78936 0.0
O221 O 0.2399 0.78317 0.62528 0.0
O222 O 1.07592 0.67063 0.64299 0.0
O223 O 0.14966 0.71368 0.51224 0.0
loop_
_geom_bond_atom_site_label_1
_geom_bond_atom_site_label_2
_geom_bond_distance
_geom_bond_site_symmetry_2
_ccdc_geom_bond_type
O0 Cd1 2.223 . S
O0 C8 1.315 . S
Cd1 O0 2.223 . S
Cd1 O4 2.297 1_554 S
Cd1 O5 2.439 1_554 S
Cd1 O11 2.240 . S
Cd2 O3 2.240 1_565 S
Cd2 O10 2.223 1_565 S
Cd2 O12 2.297 . S
Cd2 O13 2.439 1_554 S
O3 Cd2 2.240 1_545 S
O3 C8 1.279 . S
O4 Cd1 2.297 1_556 S
O4 C6 1.247 . S
O5 Cd1 2.439 1_556 S
O5 C6 1.208 . S
C6 O4 1.247 . S
C6 O5 1.208 . S
C7 O12 1.247 . S
C7 O13 1.208 1_554 S
C8 O0 1.315 . S
C8 O3 1.279 . S
C9 O10 1.315 . S
C9 O11 1.279 . S
O10 Cd2 2.223 1_545 S
O10 C9 1.315 . S
O11 Cd1 2.240 . S
O11 C9 1.279 . S
O12 Cd2 2.297 . S
O12 C7 1.247 . S
O13 Cd2 2.439 1_556 S
O13 C7 1.208 1_556 S
O14 Cd15 2.223 . S
O14 C22 1.315 . S
Cd15 O14 2.223 . S
Cd15 O18 2.297 1_554 S
Cd15 O19 2.439 1_554 S
Cd15 O25 2.240 . S
Cd16 O17 2.240 . S
Cd16 O24 2.223 . S
Cd16 O26 2.297 . S
Cd16 O27 2.439 1_554 S
O17 Cd16 2.240 . S
O17 C22 1.279 . S
O18 Cd15 2.297 1_556 S
O18 C20 1.247 . S
O19 Cd15 2.439 1_556 S
O19 C20 1.208 . S
C20 O18 1.247 . S
C20 O19 1.208 . S
C21 O26 1.247 . S
C21 O27 1.208 1_554 S
C22 O14 1.315 . S
C22 O17 1.279 . S
C23 O24 1.315 . S
C23 O25 1.279 . S
O24 Cd16 2.223 . S
O24 C23 1.315 . S
O25 Cd15 2.240 . S
O25 C23 1.279 . S
O26 Cd16 2.297 . S
O26 C21 1.247 . S
O27 Cd16 2.439 1_556 S
O27 C21 1.208 1_556 S
O28 Cd29 2.223 . S
O28 C36 1.315 . S
Cd29 O28 2.223 . S
Cd29 O32 2.297 1_554 S
Cd29 O33 2.439 1_554 S
Cd29 O39 2.240 . S
Cd30 O31 2.240 . S
Cd30 O38 2.223 . S
Cd30 O40 2.297 . S
Cd30 O41 2.439 1_554 S
O31 Cd30 2.240 . S
O31 C36 1.279 . S
O32 Cd29 2.297 1_556 S
O32 C34 1.247 . S
O33 Cd29 2.439 1_556 S
O33 C34 1.208 . S
C34 O32 1.247 . S
C34 O33 1.208 . S
C35 O40 1.247 . S
C35 O41 1.208 1_554 S
C36 O28 1.315 . S
C36 O31 1.279 . S
C37 O38 1.315 . S
C37 O39 1.279 . S
O38 Cd30 2.223 . S
O38 C37 1.315 . S
O39 Cd29 2.240 . S
O39 C37 1.279 . S
O40 Cd30 2.297 . S
O40 C35 1.247 . S
O41 Cd30 2.439 1_556 S
O41 C35 1.208 1_556 S
O42 Cd43 2.223 . S
O42 C50 1.315 . S
Cd43 O42 2.223 . S
Cd43 O46 2.297 1_554 S
Cd43 O47 2.439 1_554 S
Cd43 O53 2.240 . S
Cd44 O45 2.240 1_655 S
Cd44 O52 2.223 1_655 S
Cd44 O54 2.297 . S
Cd44 O55 2.439 1_554 S
O45 Cd44 2.240 1_455 S
O45 C50 1.279 . S
O46 Cd43 2.297 1_556 S
O46 C48 1.247 . S
O47 Cd43 2.439 1_556 S
O47 C48 1.208 . S
C48 O46 1.247 . S
C48 O47 1.208 . S
C49 O54 1.247 . S
C49 O55 1.208 1_554 S
C50 O42 1.315 . S
C50 O45 1.279 . S
C51 O52 1.315 . S
C51 O53 1.279 . S
O52 Cd44 2.223 1_455 S
O52 C51 1.315 . S
O53 Cd43 2.240 . S
O53 C51 1.279 . S
O54 Cd44 2.297 . S
O54 C49 1.247 . S
O55 Cd44 2.439 1_556 S
O55 C49 1.208 1_556 S
O56 Cd57 2.223 . S
O56 C64 1.315 . S
Cd57 O56 2.223 . S
Cd57 O60 2.297 . S
Cd57 O61 2.439 . S
Cd57 O67 2.240 . S
Cd58 O59 2.240 1_545 S
Cd58 O66 2.223 1_545 S
Cd58 O68 2.297 . S
Cd58 O69 2.439 . S
O59 Cd58 2.240 1_565 S
O59 C64 1.279 . S
O60 Cd57 2.297 . S
O60 C62 1.247 . S
O61 Cd57 2.439 . S
O61 C62 1.208 . S
C62 O60 1.247 . S
C62 O61 1.208 . S
C63 O68 1.247 . S
C63 O69 1.208 . S
C64 O56 1.315 . S
C64 O59 1.279 . S
C65 O66 1.315 . S
C65 O67 1.279 . S
O66 Cd58 2.223 1_565 S
O66 C65 1.315 . S
O67 Cd57 2.240 . S
O67 C65 1.279 . S
O68 Cd58 2.297 . S
O68 C63 1.247 . S
O69 Cd58 2.439 . S
O69 C63 1.208 . S
O70 Cd71 2.223 . S
O70 C78 1.315 . S
Cd71 O70 2.223 . S
Cd71 O74 2.297 . S
Cd71 O75 2.439 . S
Cd71 O81 2.240 . S
Cd72 O73 2.240 . S
Cd72 O80 2.223 . S
Cd72 O82 2.297 . S
Cd72 O83 2.439 . S
O73 Cd72 2.240 . S
O73 C78 1.279 . S
O74 Cd71 2.297 . S
O74 C76 1.247 . S
O75 Cd71 2.439 . S
O75 C76 1.208 . S
C76 O74 1.247 . S
C76 O75 1.208 . S
C77 O82 1.247 . S
C77 O83 1.208 . S
C78 O70 1.315 . S
C78 O73 1.279 . S
C79 O80 1.315 . S
C79 O81 1.279 . S
O80 Cd72 2.223 . S
O80 C79 1.315 . S
O81 Cd71 2.240 . S
O81 C79 1.279 . S
O82 Cd72 2.297 . S
O82 C77 1.247 . S
O83 Cd72 2.439 . S
O83 C77 1.208 . S
O84 Cd85 2.223 . S
O84 C92 1.315 . S
Cd85 O84 2.223 . S
Cd85 O88 2.297 . S
Cd85 O89 2.439 . S
Cd85 O95 2.240 . S
Cd86 O87 2.240 . S
Cd86 O94 2.223 . S
Cd86 O96 2.297 . S
Cd86 O97 2.439 . S
O87 Cd86 2.240 . S
O87 C92 1.279 . S
O88 Cd85 2.297 . S
O88 C90 1.247 . S
O89 Cd85 2.439 . S
O89 C90 1.208 . S
C90 O88 1.247 . S
C90 O89 1.208 . S
C91 O96 1.247 . S
C91 O97 1.208 . S
C92 O84 1.315 . S
C92 O87 1.279 . S
C93 O94 1.315 . S
C93 O95 1.279 . S
O94 Cd86 2.223 . S
O94 C93 1.315 . S
O95 Cd85 2.240 . S
O95 C93 1.279 . S
O96 Cd86 2.297 . S
O96 C91 1.247 . S
O97 Cd86 2.439 . S
O97 C91 1.208 . S
O98 Cd99 2.223 . S
O98 C106 1.315 . S
Cd99 O98 2.223 . S
Cd99 O102 2.297 . S
Cd99 O103 2.439 . S
Cd99 O109 2.240 . S
Cd100 O101 2.240 1_455 S
Cd100 O108 2.223 1_455 S
Cd100 O110 2.297 . S
Cd100 O111 2.439 . S
O101 Cd100 2.240 1_655 S
O101 C106 1.279 . S
O102 Cd99 2.297 . S
O102 C104 1.247 . S
O103 Cd99 2.439 . S
O103 C104 1.208 . S
C104 O102 1.247 . S
C104 O103 1.208 . S
C105 O110 1.247 . S
C105 O111 1.208 . S
C106 O98 1.315 . S
C106 O101 1.279 . S
C107 O108 1.315 . S
C107 O109 1.279 . S
O108 Cd100 2.223 1_655 S
O108 C107 1.315 . S
O109 Cd99 2.240 . S
O109 C107 1.279 . S
O110 Cd100 2.297 . S
O110 C105 1.247 . S
O111 Cd100 2.439 . S
O111 C105 1.208 . S
O112 Cd113 2.223 . S
O112 C120 1.315 . S
Cd113 O112 2.223 . S
Cd113 O116 2.297 1_556 S
Cd113 O117 2.439 1_556 S
Cd113 O123 2.240 . S
Cd114 O115 2.240 1_545 S
Cd114 O122 2.223 1_545 S
Cd114 O124 2.297 . S
Cd114 O125 2.439 1_556 S
O115 Cd114 2.240 1_565 S
O115 C120 1.279 . S
O116 Cd113 2.297 1_554 S
O116 C118 1.247 . S
O117 Cd113 2.439 1_554 S
O117 C118 1.208 . S
C118 O116 1.247 . S
C118 O117 1.208 . S
C119 O124 1.247 . S
C119 O125 1.208 1_556 S
C120 O112 1.315 . S
C120 O115 1.279 . S
C121 O122 1.315 . S
C121 O123 1.279 . S
O122 Cd114 2.223 1_565 S
O122 C121 1.315 . S
O123 Cd113 2.240 . S
O123 C121 1.279 . S
O124 Cd114 2.297 . S
O124 C119 1.247 . S
O125 Cd114 2.439 1_554 S
O125 C119 1.208 1_554 S
O126 Cd127 2.223 . S
O126 C134 1.315 . S
Cd127 O126 2.223 . S
Cd127 O130 2.297 1_556 S
Cd127 O131 2.439 1_556 S
Cd127 O137 2.240 . S
Cd128 O129 2.240 . S
Cd128 O136 2.223 . S
Cd128 O138 2.297 . S
Cd128 O139 2.439 1_556 S
O129 Cd128 2.240 . S
O129 C134 1.279 . S
O130 Cd127 2.297 1_554 S
O130 C132 1.247 . S
O131 Cd127 2.439 1_554 S
O131 C132 1.208 . S
C132 O130 1.247 . S
C132 O131 1.208 . S
C133 O138 1.247 . S
C133 O139 1.208 1_556 S
C134 O126 1.315 . S
C134 O129 1.279 . S
C135 O136 1.315 . S
C135 O137 1.279 . S
O136 Cd128 2.223 . S
O136 C135 1.315 . S
O137 Cd127 2.240 . S
O137 C135 1.279 . S
O138 Cd128 2.297 . S
O138 C133 1.247 . S
O139 Cd128 2.439 1_554 S
O139 C133 1.208 1_554 S
O140 Cd141 2.223 . S
O140 C148 1.315 . S
Cd141 O140 2.223 . S
Cd141 O144 2.297 1_556 S
Cd141 O145 2.439 1_556 S
Cd141 O151 2.240 . S
Cd142 O143 2.240 . S
Cd142 O150 2.223 . S
Cd142 O152 2.297 . S
Cd142 O153 2.439 1_556 S
O143 Cd142 2.240 . S
O143 C148 1.279 . S
O144 Cd141 2.297 1_554 S
O144 C146 1.247 . S
O145 Cd141 2.439 1_554 S
O145 C146 1.208 . S
C146 O144 1.247 . S
C146 O145 1.208 . S
C147 O152 1.247 . S
C147 O153 1.208 1_556 S
C148 O140 1.315 . S
C148 O143 1.279 . S
C149 O150 1.315 . S
C149 O151 1.279 . S
O150 Cd142 2.223 . S
O150 C149 1.315 . S
O151 Cd141 2.240 . S
O151 C149 1.279 . S
O152 Cd142 2.297 . S
O152 C147 1.247 . S
O153 Cd142 2.439 1_554 S
O153 C147 1.208 1_554 S
O154 Cd155 2.223 . S
O154 C162 1.315 . S
Cd155 O154 2.223 . S
Cd155 O158 2.297 1_556 S
Cd155 O159 2.439 1_556 S
Cd155 O165 2.240 . S
Cd156 O157 2.240 1_455 S
Cd156 O164 2.223 1_455 S
Cd156 O166 2.297 . S
Cd156 O167 2.439 1_556 S
O157 Cd156 2.240 1_655 S
O157 C162 1.279 . S
O158 Cd155 2.297 1_554 S
O158 C160 1.247 . S
O159 Cd155 2.439 1_554 S
O159 C160 1.208 . S
C160 O158 1.247 . S
C160 O159 1.208 . S
C161 O166 1.247 . S
C161 O167 1.208 1_556 S
C162 O154 1.315 . S
C162 O157 1.279 . S
C163 O164 1.315 . S
C163 O165 1.279 . S
O164 Cd156 2.223 1_655 S
O164 C163 1.315 . S
O165 Cd155 2.240 . S
O165 C163 1.279 . S
O166 Cd156 2.297 . S
O166 C161 1.247 . S
O167 Cd156 2.439 1_554 S
O167 C161 1.208 1_554 S
O168 Cd169 2.223 . S
O168 C176 1.315 . S
Cd169 O168 2.223 . S
Cd169 O172 2.297 . S
Cd169 O173 2.439 . S
Cd169 O179 2.240 . S
Cd170 O171 2.240 1_565 S
Cd170 O178 2.223 1_565 S
Cd170 O180 2.297 . S
Cd170 O181 2.439 . S
O171 Cd170 2.240 1_545 S
O171 C176 1.279 . S
O172 Cd169 2.297 . S
O172 C174 1.247 . S
O173 Cd169 2.439 . S
O173 C174 1.208 . S
C174 O172 1.247 . S
C174 O173 1.208 . S
C175 O180 1.247 . S
C175 O181 1.208 . S
C176 O168 1.315 . S
C176 O171 1.279 . S
C177 O178 1.315 . S
C177 O179 1.279 . S
O178 Cd170 2.223 1_545 S
O178 C177 1.315 . S
O179 Cd169 2.240 . S
O179 C177 1.279 . S
O180 Cd170 2.297 . S
O180 C175 1.247 . S
O181 Cd170 2.439 . S
O181 C175 1.208 . S
O182 Cd183 2.223 . S
O182 C190 1.315 . S
Cd183 O182 2.223 . S
Cd183 O186 2.297 . S
Cd183 O187 2.439 . S
Cd183 O193 2.240 . S
Cd184 O185 2.240 . S
Cd184 O192 2.223 . S
Cd184 O194 2.297 . S
Cd184 O195 2.439 . S
O185 Cd184 2.240 . S
O185 C190 1.279 . S
O186 Cd183 2.297 . S
O186 C188 1.247 . S
O187 Cd183 2.439 . S
O187 C188 1.208 . S
C188 O186 1.247 . S
C188 O187 1.208 . S
C189 O194 1.247 . S
C189 O195 1.208 . S
C190 O182 1.315 . S
C190 O185 1.279 . S
C191 O192 1.315 . S
C191 O193 1.279 . S
O192 Cd184 2.223 . S
O192 C191 1.315 . S
O193 Cd183 2.240 . S
O193 C191 1.279 . S
O194 Cd184 2.297 . S
O194 C189 1.247 . S
O195 Cd184 2.439 . S
O195 C189 1.208 . S
O196 Cd197 2.223 . S
O196 C204 1.315 . S
Cd197 O196 2.223 . S
Cd197 O200 2.297 . S
Cd197 O201 2.439 . S
Cd197 O207 2.240 . S
Cd198 O199 2.240 . S
Cd198 O206 2.223 . S
Cd198 O208 2.297 . S
Cd198 O209 2.439 . S
O199 Cd198 2.240 . S
O199 C204 1.279 . S
O200 Cd197 2.297 . S
O200 C202 1.247 . S
O201 Cd197 2.439 . S
O201 C202 1.208 . S
C202 O200 1.247 . S
C202 O201 1.208 . S
C203 O208 1.247 . S
C203 O209 1.208 . S
C204 O196 1.315 . S
C204 O199 1.279 . S
C205 O206 1.315 . S
C205 O207 1.279 . S
O206 Cd198 2.223 . S
O206 C205 1.315 . S
O207 Cd197 2.240 . S
O207 C205 1.279 . S
O208 Cd198 2.297 . S
O208 C203 1.247 . S
O209 Cd198 2.439 . S
O209 C203 1.208 . S
O210 Cd211 2.223 . S
O210 C218 1.315 . S
Cd211 O210 2.223 . S
Cd211 O214 2.297 . S
Cd211 O215 2.439 . S
Cd211 O221 2.240 . S
Cd212 O213 2.240 1_655 S
Cd212 O220 2.223 1_655 S
Cd212 O222 2.297 . S
Cd212 O223 2.439 . S
O213 Cd212 2.240 1_455 S
O213 C218 1.279 . S
O214 Cd211 2.297 . S
O214 C216 1.247 . S
O215 Cd211 2.439 . S
O215 C216 1.208 . S
C216 O214 1.247 . S
C216 O215 1.208 . S
C217 O222 1.247 . S
C217 O223 1.208 . S
C218 O210 1.315 . S
C218 O213 1.279 . S
C219 O220 1.315 . S
C219 O221 1.279 . S
O220 Cd212 2.223 1_455 S
O220 C219 1.315 . S
O221 Cd211 2.240 . S
O221 C219 1.279 . S
O222 Cd212 2.297 . S
O222 C217 1.247 . S
O223 Cd212 2.439 . S
O223 C217 1.208 . S
C79 C9 0.548 . S
C93 C23 0.548 . S
C37 C107 0.548 . S
C51 C65 0.548 . S
C121 C191 0.548 . S
C205 C135 0.548 . S
C219 C149 0.548 . S
C163 C177 0.548 . S
C6 C176 1.630 . S
C190 C20 1.630 . S
C34 C204 1.630 . S
C48 C218 1.630 . S
C62 C120 1.630 . S
C76 C134 1.630 . S
C90 C148 1.630 . S
C104 C162 1.630 . S
C64 C118 1.630 . S
C78 C132 1.630 . S
C92 C146 1.630 . S
C160 C106 1.630 . S
C8 C174 1.630 . S
C188 C22 1.630 . S
C202 C36 1.630 . S
C50 C216 1.630 . S
C119 C7 1.979 1_546 S
C133 C21 1.979 1_556 S
C35 C147 1.979 1_654 S
C161 C49 1.979 1_446 S
C63 C175 1.979 1_445 S
C189 C77 1.979 1_565 S
C203 C91 1.979 . S
C217 C105 1.979 1_655 S
