# Generated by pormake.
# Topology unm, (4)-cn, num edge types: 1
# Building blocks:
#     Node 0, Type 0, BuildingBlock: CEKHIL_clean_sbu_0, # of connection points: 4
#     Node 1, Type 0, BuildingBlock: CEKHIL_clean_sbu_0, # of connection points: 4
#     Node 2, Type 0, BuildingBlock: CEKHIL_clean_sbu_0, # of connection points: 4
#     Node 3, Type 0, BuildingBlock: CEKHIL_clean_sbu_0, # of connection points: 4
#     Node 4, Type 0, BuildingBlock: CEKHIL_clean_sbu_0, # of connection points: 4
#     Node 5, Type 0, BuildingBlock: CEKHIL_clean_sbu_0, # of connection points: 4
#     Node 6, Type 0, BuildingBlock: CEKHIL_clean_sbu_0, # of connection points: 4
#     Node 7, Type 0, BuildingBlock: CEKHIL_clean_sbu_0, # of connection points: 4
#     Edge 8, Type (0, 0), BuildingBlock: EYOCIG_clean_linker_4, # of connection points: 2
#     Edge 9, Type (0, 0), BuildingBlock: EYOCIG_clean_linker_4, # of connection points: 2
#     Edge 10, Type (0, 0), BuildingBlock: EYOCIG_clean_linker_4, # of connection points: 2
#     Edge 11, Type (0, 0), BuildingBlock: EYOCIG_clean_linker_4, # of connection points: 2
#     Edge 12, Type (0, 0), BuildingBlock: EYOCIG_clean_linker_4, # of connection points: 2
#     Edge 13, Type (0, 0), BuildingBlock: EYOCIG_clean_linker_4, # of connection points: 2
#     Edge 14, Type (0, 0), BuildingBlock: EYOCIG_clean_linker_4, # of connection points: 2
#     Edge 15, Type (0, 0), BuildingBlock: EYOCIG_clean_linker_4, # of connection points: 2
#     Edge 16, Type (0, 0), BuildingBlock: EYOCIG_clean_linker_4, # of connection points: 2
#     Edge 17, Type (0, 0), BuildingBlock: EYOCIG_clean_linker_4, # of connection points: 2
#     Edge 18, Type (0, 0), BuildingBlock: EYOCIG_clean_linker_4, # of connection points: 2
#     Edge 19, Type (0, 0), BuildingBlock: EYOCIG_clean_linker_4, # of connection points: 2
#     Edge 20, Type (0, 0), BuildingBlock: EYOCIG_clean_linker_4, # of connection points: 2
#     Edge 21, Type (0, 0), BuildingBlock: EYOCIG_clean_linker_4, # of connection points: 2
#     Edge 22, Type (0, 0), BuildingBlock: EYOCIG_clean_linker_4, # of connection points: 2
#     Edge 23, Type (0, 0), BuildingBlock: EYOCIG_clean_linker_4, # of connection points: 2
# Relax obj value: 0.190
# Max RMSD: 0.152
# Mean RMSD: 0.152
data_MOF--net-unm--node1-CEKHIL_clean_sbu_0--edge1-EYOCIG_clean_linker_4
_symmetry_space_group_name_H-M    P1
_symmetry_Int_Tables_number       1
_symmetry_cell_setting            triclinic
loop_
_symmetry_equiv_pos_as_xyz
'x, y, z'
_cell_length_a     20.027582
_cell_length_b     20.021708
_cell_length_c     34.264021
_cell_angle_alpha  90.004634
_cell_angle_beta   89.99817
_cell_angle_gamma 89.977891
loop_
_atom_site_label
_atom_site_type_symbol
_atom_site_fract_x
_atom_site_fract_y
_atom_site_fract_z
_atom_type_partial_charge
Co0 Co 0.19236 0.27332 0.18379 0.0
O1 O 0.25846 0.21419 0.20658 0.0
O2 O 0.27336 0.32222 0.19597 0.0
C3 C 0.10262 0.24216 0.21982 0.0
O4 O 0.13601 0.34933 0.16274 0.0
Co5 Co 0.07022 0.21237 0.13839 0.0
O6 O 0.03974 0.30602 0.1393 0.0
C7 C 0.1974 0.23648 0.09715 0.0
C8 C 0.29684 0.26618 0.20929 0.0
C9 C 0.0773 0.35495 0.14798 0.0
O10 O 0.22613 0.25601 0.12881 0.0
O11 O 0.13739 0.2152 0.09535 0.0
O12 O 0.14676 0.28268 0.23414 0.0
O13 O 0.11877 0.21435 0.1871 0.0
Co14 Co 0.22232 0.69119 0.68375 0.0
O15 O 0.2819 0.75714 0.70627 0.0
O16 O 0.17376 0.7723 0.69619 0.0
C17 C 0.25397 0.60133 0.71962 0.0
O18 O 0.14584 0.63525 0.66304 0.0
Co19 Co 0.28199 0.56866 0.63806 0.0
O20 O 0.18813 0.53897 0.63894 0.0
C21 C 0.25754 0.69599 0.59692 0.0
C22 C 0.23 0.79563 0.70924 0.0
C23 C 0.13961 0.57684 0.64799 0.0
O24 O 0.23887 0.72493 0.6287 0.0
O25 O 0.27843 0.63581 0.59501 0.0
O26 O 0.21367 0.64553 0.73414 0.0
O27 O 0.28118 0.61738 0.68673 0.0
Co28 Co 0.80327 0.72206 0.18388 0.0
O29 O 0.7377 0.78144 0.20697 0.0
O30 O 0.72233 0.67343 0.19639 0.0
C31 C 0.89353 0.7529 0.2195 0.0
O32 O 0.85899 0.64579 0.16261 0.0
Co33 Co 0.92512 0.78233 0.13794 0.0
O34 O 0.9552 0.68854 0.13878 0.0
C35 C 0.79721 0.75902 0.09732 0.0
C36 C 0.69922 0.72953 0.20982 0.0
C37 C 0.91748 0.63982 0.14764 0.0
O38 O 0.76884 0.73954 0.12909 0.0
O39 O 0.8573 0.78 0.09524 0.0
O40 O 0.84944 0.71253 0.23402 0.0
O41 O 0.87711 0.78074 0.18685 0.0
Co42 Co 0.7729 0.3037 0.68395 0.0
O43 O 0.71399 0.23758 0.70685 0.0
O44 O 0.82198 0.22277 0.69611 0.0
C45 C 0.74174 0.39349 0.71998 0.0
O46 O 0.84865 0.36011 0.66275 0.0
Co47 Co 0.71145 0.42563 0.63855 0.0
O48 O 0.80505 0.45617 0.63913 0.0
C49 C 0.73605 0.29846 0.59732 0.0
C50 C 0.76604 0.19926 0.70951 0.0
C51 C 0.85407 0.41871 0.64783 0.0
O52 O 0.75549 0.26978 0.62902 0.0
O53 O 0.71466 0.35847 0.59548 0.0
O54 O 0.78239 0.34941 0.73426 0.0
O55 O 0.71381 0.37725 0.68732 0.0
Co56 Co 0.69238 0.22103 0.32756 0.0
O57 O 0.75833 0.28022 0.30468 0.0
O58 O 0.7735 0.17225 0.3154 0.0
C59 C 0.60256 0.25198 0.29151 0.0
O60 O 0.63628 0.14494 0.34871 0.0
Co61 Co 0.57003 0.28172 0.37291 0.0
O62 O 0.53992 0.18795 0.37224 0.0
C63 C 0.69738 0.25823 0.41415 0.0
C64 C 0.79683 0.22828 0.302 0.0
C65 C 0.57767 0.13913 0.36357 0.0
O66 O 0.72614 0.23861 0.38251 0.0
O67 O 0.63729 0.27935 0.41593 0.0
O68 O 0.64677 0.21145 0.27723 0.0
O69 O 0.61863 0.27986 0.32422 0.0
Co70 Co 0.27463 0.19108 0.82764 0.0
O71 O 0.21664 0.25747 0.80416 0.0
O72 O 0.3244 0.27178 0.81582 0.0
C73 C 0.24395 0.10141 0.79142 0.0
O74 O 0.34942 0.13414 0.84966 0.0
Co75 Co 0.21102 0.06978 0.8726 0.0
O76 O 0.3045 0.03878 0.8734 0.0
C77 C 0.23583 0.19681 0.91394 0.0
C78 C 0.26889 0.29556 0.80193 0.0
C79 C 0.35402 0.07576 0.86501 0.0
O80 O 0.25605 0.22529 0.88236 0.0
O81 O 0.21397 0.13698 0.91567 0.0
O82 O 0.28523 0.14519 0.77747 0.0
O83 O 0.21521 0.11793 0.8238 0.0
Co84 Co 0.30336 0.77301 0.32753 0.0
O85 O 0.23758 0.71411 0.30428 0.0
O86 O 0.22255 0.82208 0.31514 0.0
C87 C 0.39349 0.74215 0.29183 0.0
O88 O 0.35952 0.84876 0.34905 0.0
Co89 Co 0.42477 0.7115 0.37333 0.0
O90 O 0.45548 0.80508 0.37272 0.0
C91 C 0.29701 0.73534 0.414 0.0
C92 C 0.19925 0.76616 0.30157 0.0
C93 C 0.41809 0.85417 0.36401 0.0
O94 O 0.26882 0.75526 0.38227 0.0
O95 O 0.35696 0.7139 0.41605 0.0
O96 O 0.34953 0.7828 0.27743 0.0
O97 O 0.37695 0.714 0.32437 0.0
Co98 Co 0.72091 0.80377 0.82788 0.0
O99 O 0.77979 0.73778 0.80474 0.0
O100 O 0.67194 0.72274 0.8158 0.0
C101 C 0.75165 0.89362 0.79181 0.0
O102 O 0.64516 0.85992 0.84943 0.0
Co103 Co 0.78226 0.92596 0.87311 0.0
O104 O 0.68838 0.9557 0.87363 0.0
C105 C 0.75812 0.79868 0.91437 0.0
C106 C 0.72782 0.69934 0.80222 0.0
C107 C 0.6395 0.91809 0.86492 0.0
O108 O 0.73885 0.76983 0.8827 0.0
O109 O 0.77921 0.85879 0.91618 0.0
O110 O 0.7109 0.84955 0.77763 0.0
O111 O 0.77981 0.87742 0.8244 0.0
C112 C 0.24443 0.24754 0.02611 0.0
C113 C 0.23059 0.24514 0.06035 0.0
C114 C 0.24744 0.24405 0.98494 0.0
C115 C 0.24479 0.22989 0.95075 0.0
C116 C 0.24564 0.74316 0.52596 0.0
C117 C 0.24848 0.72923 0.56017 0.0
C118 C 0.24895 0.74641 0.4848 0.0
C119 C 0.26332 0.744 0.45064 0.0
C120 C 0.74936 0.74813 0.0265 0.0
C121 C 0.76351 0.75048 0.06068 0.0
C122 C 0.74629 0.75153 0.98534 0.0
C123 C 0.74912 0.76557 0.95115 0.0
C124 C 0.74458 0.24755 0.48519 0.0
C125 C 0.73062 0.2498 0.45096 0.0
C126 C 0.7477 0.25108 0.52635 0.0
C127 C 0.745 0.26522 0.56055 0.0
C128 C 0.41664 0.25977 0.24269 0.0
C129 C 0.36197 0.26227 0.2275 0.0
C130 C 0.48091 0.25803 0.26048 0.0
C131 C 0.53598 0.25613 0.2752 0.0
C132 C 0.23662 0.91542 0.74265 0.0
C133 C 0.23418 0.86073 0.72747 0.0
C134 C 0.23813 0.97968 0.76046 0.0
C135 C 0.23984 0.03476 0.77518 0.0
C136 C 0.51551 0.73697 0.26133 0.0
C137 C 0.46032 0.73834 0.27589 0.0
C138 C 0.57976 0.7358 0.24355 0.0
C139 C 0.63431 0.73357 0.22824 0.0
C140 C 0.75979 0.07946 0.74292 0.0
C141 C 0.76228 0.13413 0.72772 0.0
C142 C 0.75795 0.01522 0.76073 0.0
C143 C 0.75594 0.96017 0.77547 0.0
C144 C 0.9166 0.23465 0.26855 0.0
C145 C 0.86193 0.23222 0.28375 0.0
C146 C 0.98088 0.23627 0.25076 0.0
C147 C 0.03597 0.23807 0.23607 0.0
C148 C 0.26115 0.47975 0.75074 0.0
C149 C 0.2587 0.5348 0.73599 0.0
C150 C 0.26327 0.41547 0.76855 0.0
C151 C 0.26569 0.36079 0.78375 0.0
C152 C 0.07972 0.76007 0.26788 0.0
C153 C 0.13428 0.7624 0.28319 0.0
C154 C 0.01547 0.75857 0.2501 0.0
C155 C 0.96029 0.7569 0.23553 0.0
C156 C 0.73568 0.51524 0.75097 0.0
C157 C 0.73754 0.46014 0.73625 0.0
C158 C 0.73401 0.57952 0.76878 0.0
C159 C 0.7316 0.6342 0.78398 0.0
C160 C 0.97632 0.52511 0.13811 0.0
C161 C 0.94519 0.57521 0.1433 0.0
C162 C 0.01794 0.46934 0.1382 0.0
C163 C 0.0493 0.41941 0.1435 0.0
C164 C 0.96849 0.47786 0.63799 0.0
C165 C 0.91843 0.44679 0.64329 0.0
C166 C 0.02458 0.51898 0.6381 0.0
C167 C 0.07489 0.5496 0.64347 0.0
C168 C 0.51899 0.02445 0.37359 0.0
C169 C 0.55 0.07455 0.36819 0.0
C170 C 0.47755 0.96854 0.37373 0.0
C171 C 0.4463 0.91854 0.36848 0.0
C172 C 0.46813 0.01643 0.87625 0.0
C173 C 0.41809 0.0473 0.87036 0.0
C174 C 0.52457 0.97571 0.87616 0.0
C175 C 0.57494 0.94543 0.87022 0.0
loop_
_geom_bond_atom_site_label_1
_geom_bond_atom_site_label_2
_geom_bond_distance
_geom_bond_site_symmetry_2
_ccdc_geom_bond_type
Co0 O1 2.216 . S
Co0 O2 2.091 . S
Co0 O4 2.004 . S
Co0 O10 2.021 . S
Co0 O12 2.137 . S
Co0 O13 2.244 . S
O1 Co0 2.216 . S
O1 C8 1.247 . S
O2 Co0 2.091 . S
O2 C8 1.261 . S
C3 O12 1.247 . S
C3 O13 1.272 . S
O4 Co0 2.004 . S
O4 C9 1.259 . S
Co5 O6 2.061 . S
Co5 O11 2.052 . S
Co5 O13 2.135 . S
O6 Co5 2.061 . S
O6 C9 1.235 . S
C7 O10 1.238 . S
C7 O11 1.241 . S
C8 O1 1.247 . S
C8 O2 1.261 . S
C9 O4 1.259 . S
C9 O6 1.235 . S
O10 Co0 2.021 . S
O10 C7 1.238 . S
O11 Co5 2.052 . S
O11 C7 1.241 . S
O12 Co0 2.137 . S
O12 C3 1.247 . S
O13 Co0 2.244 . S
O13 C3 1.272 . S
O13 Co5 2.135 . S
Co14 O15 2.216 . S
Co14 O16 2.091 . S
Co14 O18 2.004 . S
Co14 O24 2.021 . S
Co14 O26 2.137 . S
Co14 O27 2.244 . S
O15 Co14 2.216 . S
O15 C22 1.247 . S
O16 Co14 2.091 . S
O16 C22 1.261 . S
C17 O26 1.247 . S
C17 O27 1.272 . S
O18 Co14 2.004 . S
O18 C23 1.259 . S
Co19 O20 2.061 . S
Co19 O25 2.052 . S
Co19 O27 2.135 . S
O20 Co19 2.061 . S
O20 C23 1.235 . S
C21 O24 1.238 . S
C21 O25 1.241 . S
C22 O15 1.247 . S
C22 O16 1.261 . S
C23 O18 1.259 . S
C23 O20 1.235 . S
O24 Co14 2.021 . S
O24 C21 1.238 . S
O25 Co19 2.052 . S
O25 C21 1.241 . S
O26 Co14 2.137 . S
O26 C17 1.247 . S
O27 Co14 2.244 . S
O27 C17 1.272 . S
O27 Co19 2.135 . S
Co28 O29 2.216 . S
Co28 O30 2.091 . S
Co28 O32 2.004 . S
Co28 O38 2.021 . S
Co28 O40 2.137 . S
Co28 O41 2.244 . S
O29 Co28 2.216 . S
O29 C36 1.247 . S
O30 Co28 2.091 . S
O30 C36 1.261 . S
C31 O40 1.247 . S
C31 O41 1.272 . S
O32 Co28 2.004 . S
O32 C37 1.259 . S
Co33 O34 2.061 . S
Co33 O39 2.052 . S
Co33 O41 2.135 . S
O34 Co33 2.061 . S
O34 C37 1.235 . S
C35 O38 1.238 . S
C35 O39 1.241 . S
C36 O29 1.247 . S
C36 O30 1.261 . S
C37 O32 1.259 . S
C37 O34 1.235 . S
O38 Co28 2.021 . S
O38 C35 1.238 . S
O39 Co33 2.052 . S
O39 C35 1.241 . S
O40 Co28 2.137 . S
O40 C31 1.247 . S
O41 Co28 2.244 . S
O41 C31 1.272 . S
O41 Co33 2.135 . S
Co42 O43 2.216 . S
Co42 O44 2.091 . S
Co42 O46 2.004 . S
Co42 O52 2.021 . S
Co42 O54 2.137 . S
Co42 O55 2.244 . S
O43 Co42 2.216 . S
O43 C50 1.247 . S
O44 Co42 2.091 . S
O44 C50 1.261 . S
C45 O54 1.247 . S
C45 O55 1.272 . S
O46 Co42 2.004 . S
O46 C51 1.259 . S
Co47 O48 2.061 . S
Co47 O53 2.052 . S
Co47 O55 2.135 . S
O48 Co47 2.061 . S
O48 C51 1.235 . S
C49 O52 1.238 . S
C49 O53 1.241 . S
C50 O43 1.247 . S
C50 O44 1.261 . S
C51 O46 1.259 . S
C51 O48 1.235 . S
O52 Co42 2.021 . S
O52 C49 1.238 . S
O53 Co47 2.052 . S
O53 C49 1.241 . S
O54 Co42 2.137 . S
O54 C45 1.247 . S
O55 Co42 2.244 . S
O55 C45 1.272 . S
O55 Co47 2.135 . S
Co56 O57 2.216 . S
Co56 O58 2.091 . S
Co56 O60 2.004 . S
Co56 O66 2.021 . S
Co56 O68 2.137 . S
Co56 O69 2.244 . S
O57 Co56 2.216 . S
O57 C64 1.247 . S
O58 Co56 2.091 . S
O58 C64 1.261 . S
C59 O68 1.247 . S
C59 O69 1.272 . S
O60 Co56 2.004 . S
O60 C65 1.259 . S
Co61 O62 2.061 . S
Co61 O67 2.052 . S
Co61 O69 2.135 . S
O62 Co61 2.061 . S
O62 C65 1.235 . S
C63 O66 1.238 . S
C63 O67 1.241 . S
C64 O57 1.247 . S
C64 O58 1.261 . S
C65 O60 1.259 . S
C65 O62 1.235 . S
O66 Co56 2.021 . S
O66 C63 1.238 . S
O67 Co61 2.052 . S
O67 C63 1.241 . S
O68 Co56 2.137 . S
O68 C59 1.247 . S
O69 Co56 2.244 . S
O69 C59 1.272 . S
O69 Co61 2.135 . S
Co70 O71 2.216 . S
Co70 O72 2.091 . S
Co70 O74 2.004 . S
Co70 O80 2.021 . S
Co70 O82 2.137 . S
Co70 O83 2.244 . S
O71 Co70 2.216 . S
O71 C78 1.247 . S
O72 Co70 2.091 . S
O72 C78 1.261 . S
C73 O82 1.247 . S
C73 O83 1.272 . S
O74 Co70 2.004 . S
O74 C79 1.259 . S
Co75 O76 2.061 . S
Co75 O81 2.052 . S
Co75 O83 2.135 . S
O76 Co75 2.061 . S
O76 C79 1.235 . S
C77 O80 1.238 . S
C77 O81 1.241 . S
C78 O71 1.247 . S
C78 O72 1.261 . S
C79 O74 1.259 . S
C79 O76 1.235 . S
O80 Co70 2.021 . S
O80 C77 1.238 . S
O81 Co75 2.052 . S
O81 C77 1.241 . S
O82 Co70 2.137 . S
O82 C73 1.247 . S
O83 Co70 2.244 . S
O83 C73 1.272 . S
O83 Co75 2.135 . S
Co84 O85 2.216 . S
Co84 O86 2.091 . S
Co84 O88 2.004 . S
Co84 O94 2.021 . S
Co84 O96 2.137 . S
Co84 O97 2.244 . S
O85 Co84 2.216 . S
O85 C92 1.247 . S
O86 Co84 2.091 . S
O86 C92 1.261 . S
C87 O96 1.247 . S
C87 O97 1.272 . S
O88 Co84 2.004 . S
O88 C93 1.259 . S
Co89 O90 2.061 . S
Co89 O95 2.052 . S
Co89 O97 2.135 . S
O90 Co89 2.061 . S
O90 C93 1.235 . S
C91 O94 1.238 . S
C91 O95 1.241 . S
C92 O85 1.247 . S
C92 O86 1.261 . S
C93 O88 1.259 . S
C93 O90 1.235 . S
O94 Co84 2.021 . S
O94 C91 1.238 . S
O95 Co89 2.052 . S
O95 C91 1.241 . S
O96 Co84 2.137 . S
O96 C87 1.247 . S
O97 Co84 2.244 . S
O97 C87 1.272 . S
O97 Co89 2.135 . S
Co98 O99 2.216 . S
Co98 O100 2.091 . S
Co98 O102 2.004 . S
Co98 O108 2.021 . S
Co98 O110 2.137 . S
Co98 O111 2.244 . S
O99 Co98 2.216 . S
O99 C106 1.247 . S
O100 Co98 2.091 . S
O100 C106 1.261 . S
C101 O110 1.247 . S
C101 O111 1.272 . S
O102 Co98 2.004 . S
O102 C107 1.259 . S
Co103 O104 2.061 . S
Co103 O109 2.052 . S
Co103 O111 2.135 . S
O104 Co103 2.061 . S
O104 C107 1.235 . S
C105 O108 1.238 . S
C105 O109 1.241 . S
C106 O99 1.247 . S
C106 O100 1.261 . S
C107 O102 1.259 . S
C107 O104 1.235 . S
O108 Co98 2.021 . S
O108 C105 1.238 . S
O109 Co103 2.052 . S
O109 C105 1.241 . S
O110 Co98 2.137 . S
O110 C101 1.247 . S
O111 Co98 2.244 . S
O111 C101 1.272 . S
O111 Co103 2.135 . S
C112 C113 1.170 . S
C112 C114 1.380 1_554 S
C113 C112 1.170 . S
C114 C112 1.380 1_556 S
C114 C115 1.170 . S
C115 C114 1.170 . S
C116 C117 1.170 . S
C116 C118 1.380 . S
C117 C116 1.170 . S
C118 C116 1.380 . S
C118 C119 1.170 . S
C119 C118 1.170 . S
C120 C121 1.170 . S
C120 C122 1.380 1_554 S
C121 C120 1.170 . S
C122 C120 1.380 1_556 S
C122 C123 1.170 . S
C123 C122 1.170 . S
C124 C125 1.170 . S
C124 C126 1.380 . S
C125 C124 1.170 . S
C126 C124 1.380 . S
C126 C127 1.170 . S
C127 C126 1.170 . S
C128 C129 1.170 . S
C128 C130 1.380 . S
C129 C128 1.170 . S
C130 C128 1.380 . S
C130 C131 1.170 . S
C131 C130 1.170 . S
C132 C133 1.170 . S
C132 C134 1.380 . S
C133 C132 1.170 . S
C134 C132 1.380 . S
C134 C135 1.170 1_565 S
C135 C134 1.170 1_545 S
C136 C137 1.170 . S
C136 C138 1.380 . S
C137 C136 1.170 . S
C138 C136 1.380 . S
C138 C139 1.170 . S
C139 C138 1.170 . S
C140 C141 1.170 . S
C140 C142 1.380 . S
C141 C140 1.170 . S
C142 C140 1.380 . S
C142 C143 1.170 1_545 S
C143 C142 1.170 1_565 S
C144 C145 1.170 . S
C144 C146 1.380 . S
C145 C144 1.170 . S
C146 C144 1.380 . S
C146 C147 1.170 1_655 S
C147 C146 1.170 1_455 S
C148 C149 1.170 . S
C148 C150 1.380 . S
C149 C148 1.170 . S
C150 C148 1.380 . S
C150 C151 1.170 . S
C151 C150 1.170 . S
C152 C153 1.170 . S
C152 C154 1.380 . S
C153 C152 1.170 . S
C154 C152 1.380 . S
C154 C155 1.170 1_455 S
C155 C154 1.170 1_655 S
C156 C157 1.170 . S
C156 C158 1.380 . S
C157 C156 1.170 . S
C158 C156 1.380 . S
C158 C159 1.170 . S
C159 C158 1.170 . S
C160 C161 1.170 . S
C160 C162 1.380 1_655 S
C161 C160 1.170 . S
C162 C160 1.380 1_455 S
C162 C163 1.170 . S
C163 C162 1.170 . S
C164 C165 1.170 . S
C164 C166 1.380 1_655 S
C165 C164 1.170 . S
C166 C164 1.380 1_455 S
C166 C167 1.170 . S
C167 C166 1.170 . S
C168 C169 1.170 . S
C168 C170 1.380 1_545 S
C169 C168 1.170 . S
C170 C168 1.380 1_565 S
C170 C171 1.170 . S
C171 C170 1.170 . S
C172 C173 1.170 . S
C172 C174 1.380 1_545 S
C173 C172 1.170 . S
C174 C172 1.380 1_565 S
C174 C175 1.170 . S
C175 C174 1.170 . S
C113 C7 1.357 . S
C115 C77 1.348 . S
C117 C21 1.325 . S
C119 C91 1.349 . S
C121 C35 1.347 . S
C123 C105 1.323 . S
C125 C63 1.354 . S
C127 C49 1.332 . S
C129 C8 1.631 . S
C131 C59 1.613 . S
C133 C22 1.645 . S
C135 C73 1.592 . S
C137 C87 1.599 . S
C139 C36 1.644 . S
C141 C50 1.634 . S
C143 C101 1.615 . S
C145 C64 1.636 . S
C147 C3 1.604 . S
C149 C17 1.623 . S
C151 C78 1.627 . S
C153 C92 1.642 . S
C155 C31 1.603 . S
C157 C45 1.591 . S
C159 C106 1.646 . S
C161 C37 0.788 . S
C163 C9 0.823 . S
C165 C51 0.771 . S
C167 C23 0.836 . S
C169 C65 0.846 . S
C171 C93 0.754 . S
C173 C79 0.766 . S
C175 C107 0.810 . S
