# Generated by pormake.
# Topology sxc, (6)-cn, num edge types: 1
# Building blocks:
#     Node 0, Type 0, BuildingBlock: LEVNOQ01_clean_sbu_1, # of connection points: 6
#     Node 1, Type 0, BuildingBlock: LEVNOQ01_clean_sbu_1, # of connection points: 6
#     Node 2, Type 0, BuildingBlock: LEVNOQ01_clean_sbu_1, # of connection points: 6
#     Edge 3, Type (0, 0), BuildingBlock: AJUNOK_clean_linker_0, # of connection points: 2
#     Edge 4, Type (0, 0), BuildingBlock: AJUNOK_clean_linker_0, # of connection points: 2
#     Edge 5, Type (0, 0), BuildingBlock: AJUNOK_clean_linker_0, # of connection points: 2
#     Edge 6, Type (0, 0), BuildingBlock: AJUNOK_clean_linker_0, # of connection points: 2
#     Edge 7, Type (0, 0), BuildingBlock: AJUNOK_clean_linker_0, # of connection points: 2
#     Edge 8, Type (0, 0), BuildingBlock: AJUNOK_clean_linker_0, # of connection points: 2
#     Edge 9, Type (0, 0), BuildingBlock: AJUNOK_clean_linker_0, # of connection points: 2
#     Edge 10, Type (0, 0), BuildingBlock: AJUNOK_clean_linker_0, # of connection points: 2
#     Edge 11, Type (0, 0), BuildingBlock: AJUNOK_clean_linker_0, # of connection points: 2
# Relax obj value: 0.102
# Max RMSD: 0.150
# Mean RMSD: 0.143
data_MOF--net-sxc--node1-LEVNOQ01_clean_sbu_1--edge1-AJUNOK_clean_linker_0
_symmetry_space_group_name_H-M    P1
_symmetry_Int_Tables_number       1
_symmetry_cell_setting            triclinic
loop_
_symmetry_equiv_pos_as_xyz
'x, y, z'
_cell_length_a     11.787044
_cell_length_b     11.811189
_cell_length_c     35.456343
_cell_angle_alpha  101.44415
_cell_angle_beta   89.304871
_cell_angle_gamma 120.12307
loop_
_atom_site_label
_atom_site_type_symbol
_atom_site_fract_x
_atom_site_fract_y
_atom_site_fract_z
_atom_type_partial_charge
O0 O 0.15752 0.86424 0.96012 0.0
Mg1 Mg 0.01091 0.86542 0.92687 0.0
O2 O 0.03798 0.8894 0.00376 0.0
Mg3 Mg -0.01337 0.04939 -0.00341 0.0
O4 O 0.96139 0.0145 0.92986 0.0
O5 O 0.12636 0.02682 0.89987 0.0
O6 O 0.92297 0.20876 -0.00566 0.0
O7 O 0.20661 0.21808 -0.00511 0.0
Mg8 Mg 0.12726 0.26718 0.06791 0.0
O9 O -0.00848 0.07283 0.06353 0.0
O10 O 0.054 0.3667 0.04471 0.0
O11 O 0.31296 0.29698 0.05291 0.0
O12 O 0.06433 0.22713 0.1195 0.0
C13 C 0.74858 0.75179 0.97222 0.0
C14 C 0.10301 0.83473 -0.00977 0.0
C15 C 0.04144 0.06358 0.9049 0.0
C16 C -0.0301 0.32606 0.01611 0.0
C17 C 0.31487 0.28872 0.01685 0.0
C18 C -0.00065 0.10305 0.10111 0.0
O19 O 0.82256 0.73342 0.94791 0.0
O20 O 0.77946 0.86936 -0.00848 0.0
O21 O 0.40619 0.09256 0.28732 0.0
Mg22 Mg 0.2062 0.93626 0.27829 0.0
O23 O 0.32492 0.02278 0.33864 0.0
Mg24 Mg 0.10775 -0.01295 0.32993 0.0
O25 O 0.06129 0.9572 0.25883 0.0
O26 O 0.17874 0.88431 0.22181 0.0
O27 O 0.9021 0.96354 0.33211 0.0
O28 O 0.18452 0.2131 0.32927 0.0
Mg29 Mg 0.07717 0.14644 0.41252 0.0
O30 O 0.13373 0.00695 0.39613 0.0
O31 O 0.87401 0.00554 0.39449 0.0
O32 O 0.10272 0.28006 0.37975 0.0
O33 O 0.2773 0.20868 0.42705 0.0
C34 C 0.07355 0.6961 0.3101 0.0
C35 C 0.42422 0.07406 0.31984 0.0
C36 C 0.09083 0.9185 0.22479 0.0
C37 C 0.8312 0.9711 0.3589 0.0
C38 C 0.15327 0.29556 0.34841 0.0
C39 C 0.23395 0.08337 0.42169 0.0
O40 O 0.15963 0.75107 0.28824 0.0
O41 O 0.02286 0.76002 0.32898 0.0
O42 O 0.93836 0.74076 0.61744 0.0
Mg43 Mg 0.00522 0.90964 0.59395 0.0
O44 O -0.00076 0.89323 0.67081 0.0
Mg45 Mg 0.16858 0.10646 0.67072 0.0
O46 O 0.1731 0.10041 0.60464 0.0
O47 O 0.19009 0.92725 0.58116 0.0
O48 O 0.34234 0.32605 0.68012 0.0
O49 O 0.33213 0.05183 0.66397 0.0
Mg50 Mg 0.34138 0.13968 0.7426 0.0
O51 O 0.15749 0.10922 0.73509 0.0
O52 O 0.46736 0.32438 0.7265 0.0
O53 O 0.35336 -0.02605 0.71261 0.0
O54 O 0.25047 0.12909 0.79222 0.0
C55 C 0.90174 0.08978 0.64765 0.0
C56 C 0.93058 0.77199 0.65289 0.0
C57 C 0.22593 0.04787 0.58091 0.0
C58 C 0.45092 0.38162 0.70193 0.0
C59 C 0.385 -0.00014 0.67989 0.0
C60 C 0.1508 0.11071 0.77156 0.0
O61 O 0.88821 -0.00291 0.61916 0.0
O62 O 0.00538 0.157 0.67175 0.0
C63 C -0.02901 0.45852 0.96966 0.0
C64 C 0.9494 0.43073 0.00659 0.0
C65 C 0.02309 0.59038 0.96475 0.0
C66 C 0.05553 0.69829 -0.00336 0.0
H67 H 0.95904 0.38106 0.94513 0.0
H68 H 0.04054 0.60816 0.93586 0.0
S69 S -0.00694 0.66915 0.09799 0.0
N70 N 0.94011 0.51421 0.07402 0.0
N71 N 0.04659 0.76277 0.06554 0.0
C72 C 0.02182 0.66807 0.03295 0.0
C73 C 0.96456 0.53372 0.03755 0.0
C74 C 0.64586 0.15065 0.3517 0.0
C75 C 0.53306 0.05221 0.32707 0.0
C76 C 0.74094 0.12154 0.36232 0.0
C77 C 0.72474 -0.00697 0.34891 0.0
H78 H 0.65962 0.24931 0.36319 0.0
H79 H 0.82821 0.20031 0.381 0.0
S80 S 0.44933 0.70407 0.28224 0.0
N81 N 0.41413 0.82482 0.28768 0.0
N82 N 0.59092 0.76939 0.30886 0.0
C83 C 0.61439 0.89547 0.3235 0.0
C84 C 0.51869 0.92541 0.31234 0.0
C85 C 0.81241 0.6269 0.69886 0.0
C86 C 0.80955 0.68449 0.66838 0.0
C87 C 0.69465 0.5366 0.71155 0.0
C88 C 0.57029 0.50123 0.69417 0.0
H89 H 0.90545 0.6477 0.71192 0.0
H90 H 0.70189 0.48915 0.73387 0.0
S91 S 0.51659 0.65256 0.61884 0.0
N92 N 0.67796 0.71953 0.62509 0.0
N93 N 0.45552 0.55045 0.64894 0.0
C94 C 0.56803 0.5686 0.66588 0.0
C95 C 0.68816 0.65991 0.65293 0.0
C96 C 0.70302 -0.00493 0.6813 0.0
C97 C 0.77976 0.08609 0.65865 0.0
C98 C 0.57324 0.96283 0.68624 0.0
C99 C 0.51524 0.02164 0.66904 0.0
H100 H 0.74236 0.94449 0.69427 0.0
H101 H 0.51812 0.89143 0.70388 0.0
S102 S 0.6823 0.27974 0.61034 0.0
N103 N 0.79388 0.24177 0.62067 0.0
N104 N 0.55034 0.18518 0.63059 0.0
C105 C 0.59315 0.11687 0.64708 0.0
C106 C 0.72558 0.14856 0.64184 0.0
C107 C 0.63652 0.51171 0.97831 0.0
C108 C 0.63387 0.63181 0.98168 0.0
C109 C 0.53314 0.39901 -0.01055 0.0
C110 C 0.42362 0.40285 0.00395 0.0
H111 H 0.72053 0.50571 0.96787 0.0
H112 H 0.53938 0.30943 -0.01299 0.0
S113 S 0.36779 0.68999 0.01889 0.0
N114 N 0.51198 0.74586 0.00123 0.0
N115 N 0.31767 0.5339 0.02129 0.0
C116 C 0.41957 0.5212 0.00736 0.0
C117 C 0.52477 0.6359 -0.00348 0.0
C118 C 0.20687 0.52819 0.3572 0.0
C119 C 0.15081 0.39988 0.33272 0.0
C120 C 0.16824 0.61855 0.352 0.0
C121 C 0.07263 0.58445 0.322 0.0
H122 H 0.27742 0.55679 0.38162 0.0
H123 H 0.21753 0.71821 0.37071 0.0
S124 S 0.89035 0.25935 0.2511 0.0
N125 N -0.01012 0.24066 0.2784 0.0
N126 N 0.92096 0.41413 0.26769 0.0
C127 C 0.01573 0.45704 0.29714 0.0
C128 C 0.05439 0.36406 0.30261 0.0
C129 C 0.13037 0.96619 0.15995 0.0
C130 C 0.0436 0.93331 0.18888 0.0
C131 C 0.10295 0.00238 0.12784 0.0
C132 C -0.01205 0.0071 0.12323 0.0
H133 H 0.22493 -0.02731 0.16312 0.0
H134 H 0.17837 0.03875 0.10823 0.0
S135 S 0.71543 0.90278 0.18586 0.0
N136 N 0.82793 0.88642 0.20768 0.0
N137 N 0.77713 0.95802 0.14672 0.0
C138 C 0.89438 0.96321 0.14984 0.0
C139 C 0.92219 0.92547 0.1829 0.0
C140 C 0.34539 0.08904 0.48211 0.0
C141 C 0.22786 0.04544 0.45924 0.0
C142 C 0.34698 0.09615 0.52228 0.0
C143 C 0.23333 0.06916 0.54115 0.0
H144 H 0.43703 0.12101 0.469 0.0
H145 H 0.43756 0.12403 0.5387 0.0
S146 S 0.90031 0.94932 0.49438 0.0
N147 N -0.00729 0.96314 0.45835 0.0
N148 N 0.00047 -0.0023 0.53376 0.0
C149 C 0.11599 0.02691 0.51856 0.0
C150 C 0.11196 0.00902 0.47765 0.0
C151 C 0.96007 0.96315 0.80016 0.0
C152 C 0.03357 0.08922 0.79087 0.0
C153 C 0.93765 0.95454 0.83866 0.0
C154 C -0.01009 0.07176 0.86841 0.0
H155 H 0.94288 0.87358 0.77955 0.0
H156 H 0.9005 0.85765 0.84585 0.0
S157 S 0.12695 0.41731 0.85375 0.0
N158 N 0.10505 0.32475 0.80994 0.0
N159 N 0.07638 0.31287 0.88337 0.0
C160 C 0.03514 0.19464 0.85767 0.0
C161 C 0.0505 0.20125 0.81804 0.0
loop_
_geom_bond_atom_site_label_1
_geom_bond_atom_site_label_2
_geom_bond_distance
_geom_bond_site_symmetry_2
_ccdc_geom_bond_type
O0 Mg1 1.990 1_455 S
O0 C14 1.253 1_556 S
Mg1 O0 1.990 1_655 S
Mg1 O4 2.177 1_665 S
Mg1 O5 2.117 1_655 S
Mg1 O19 2.030 . S
O2 Mg3 2.072 1_565 S
O2 C14 1.260 . S
Mg3 O2 2.072 1_545 S
Mg3 O4 2.099 1_554 S
Mg3 O6 2.079 1_455 S
Mg3 O7 2.072 . S
Mg3 O9 2.099 . S
Mg3 O20 2.079 1_445 S
O4 Mg1 2.177 1_445 S
O4 Mg3 2.099 1_556 S
O4 C15 1.283 . S
O5 Mg1 2.117 1_455 S
O5 C15 1.250 1_565 S
O6 Mg3 2.079 1_655 S
O6 C16 1.264 1_655 S
O7 Mg3 2.072 . S
O7 C17 1.260 . S
Mg8 O9 2.180 . S
Mg8 O10 2.030 . S
Mg8 O11 1.990 . S
Mg8 O12 2.117 . S
O9 Mg3 2.099 . S
O9 Mg8 2.180 . S
O9 C18 1.279 . S
O10 Mg8 2.030 . S
O10 C16 1.248 . S
O11 Mg8 1.990 . S
O11 C17 1.253 . S
O12 Mg8 2.117 . S
O12 C18 1.250 . S
C13 O19 1.248 1_554 S
C13 O20 1.264 . S
C14 O0 1.253 1_554 S
C14 O2 1.260 . S
C15 O4 1.283 . S
C15 O5 1.250 1_545 S
C16 O6 1.264 1_455 S
C16 O10 1.248 . S
C17 O7 1.260 . S
C17 O11 1.253 . S
C18 O9 1.279 . S
C18 O12 1.250 . S
O19 Mg1 2.030 . S
O19 C13 1.248 1_556 S
O20 Mg3 2.079 1_665 S
O20 C13 1.264 . S
O21 Mg22 1.990 1_545 S
O21 C35 1.253 . S
Mg22 O21 1.990 1_565 S
Mg22 O25 2.180 . S
Mg22 O26 2.117 1_565 S
Mg22 O40 2.030 . S
O23 Mg24 2.072 . S
O23 C35 1.260 . S
Mg24 O23 2.072 . S
Mg24 O25 2.099 1_545 S
Mg24 O27 2.079 1_445 S
Mg24 O28 2.072 . S
Mg24 O30 2.099 . S
Mg24 O41 2.079 1_545 S
O25 Mg22 2.180 . S
O25 Mg24 2.099 1_565 S
O25 C36 1.279 1_565 S
O26 Mg22 2.117 1_545 S
O26 C36 1.250 . S
O27 Mg24 2.079 1_665 S
O27 C37 1.264 1_565 S
O28 Mg24 2.072 . S
O28 C38 1.260 . S
Mg29 O30 2.180 . S
Mg29 O31 2.030 1_455 S
Mg29 O32 1.990 . S
Mg29 O33 2.117 . S
O30 Mg24 2.099 . S
O30 Mg29 2.180 . S
O30 C39 1.279 . S
O31 Mg29 2.030 1_655 S
O31 C37 1.248 . S
O32 Mg29 1.990 . S
O32 C38 1.253 . S
O33 Mg29 2.117 . S
O33 C39 1.250 . S
C34 O40 1.248 . S
C34 O41 1.264 . S
C35 O21 1.253 . S
C35 O23 1.260 . S
C36 O25 1.279 1_545 S
C36 O26 1.250 . S
C37 O27 1.264 1_545 S
C37 O31 1.248 . S
C38 O28 1.260 . S
C38 O32 1.253 . S
C39 O30 1.279 . S
C39 O33 1.250 . S
O40 Mg22 2.030 . S
O40 C34 1.248 . S
O41 Mg24 2.079 1_565 S
O41 C34 1.264 . S
O42 Mg43 1.990 . S
O42 C56 1.253 . S
Mg43 O42 1.990 . S
Mg43 O46 2.180 1_665 S
Mg43 O47 2.117 1_655 S
Mg43 O61 2.030 1_565 S
O44 Mg45 2.072 1_565 S
O44 C56 1.260 1_455 S
Mg45 O44 2.072 1_545 S
Mg45 O46 2.099 . S
Mg45 O48 2.079 . S
Mg45 O49 2.072 . S
Mg45 O51 2.099 . S
Mg45 O62 2.079 . S
O46 Mg43 2.180 1_445 S
O46 Mg45 2.099 . S
O46 C57 1.279 . S
O47 Mg43 2.117 1_455 S
O47 C57 1.250 1_565 S
O48 Mg45 2.079 . S
O48 C58 1.264 . S
O49 Mg45 2.072 . S
O49 C59 1.260 . S
Mg50 O51 2.180 . S
Mg50 O52 2.030 . S
Mg50 O53 1.990 . S
Mg50 O54 2.117 . S
O51 Mg45 2.099 . S
O51 Mg50 2.180 . S
O51 C60 1.279 . S
O52 Mg50 2.030 . S
O52 C58 1.248 . S
O53 Mg50 1.990 . S
O53 C59 1.253 . S
O54 Mg50 2.117 . S
O54 C60 1.250 . S
C55 O61 1.248 . S
C55 O62 1.264 1_655 S
C56 O42 1.253 . S
C56 O44 1.260 1_655 S
C57 O46 1.279 . S
C57 O47 1.250 1_545 S
C58 O48 1.264 . S
C58 O52 1.248 . S
C59 O49 1.260 . S
C59 O53 1.253 . S
C60 O51 1.279 . S
C60 O54 1.250 . S
O61 Mg43 2.030 1_545 S
O61 C55 1.248 . S
O62 Mg45 2.079 . S
O62 C55 1.264 1_455 S
C63 C64 1.369 1_656 S
C63 C65 1.419 1_655 S
C63 H67 0.930 . S
C64 C63 1.369 1_454 S
C64 C73 1.429 . S
C65 C63 1.419 1_455 S
C65 C66 1.363 1_556 S
C65 H68 0.929 . S
C66 C65 1.363 1_554 S
C66 C72 1.428 . S
H67 C63 0.930 . S
H68 C65 0.929 . S
S69 N70 1.613 . S
S69 N71 1.610 . S
N70 S69 1.613 . S
N70 C73 1.350 . S
N71 S69 1.610 . S
N71 C72 1.351 . S
C72 C66 1.428 . S
C72 N71 1.351 . S
C72 C73 1.434 . S
C73 C64 1.429 . S
C73 N70 1.350 . S
C73 C72 1.434 . S
C74 C75 1.369 . S
C74 C76 1.419 . S
C74 H78 0.930 . S
C75 C74 1.369 . S
C75 C84 1.429 1_545 S
C76 C74 1.419 . S
C76 C77 1.363 1_545 S
C76 H79 0.929 . S
C77 C76 1.363 1_565 S
C77 C83 1.428 . S
H78 C74 0.930 . S
H79 C76 0.929 . S
S80 N81 1.613 . S
S80 N82 1.610 . S
N81 S80 1.613 . S
N81 C84 1.350 . S
N82 S80 1.610 . S
N82 C83 1.351 . S
C83 C77 1.428 . S
C83 N82 1.351 . S
C83 C84 1.434 . S
C84 C75 1.429 1_565 S
C84 N81 1.350 . S
C84 C83 1.434 . S
C85 C86 1.369 . S
C85 C87 1.419 . S
C85 H89 0.930 . S
C86 C85 1.369 . S
C86 C95 1.429 . S
C87 C85 1.419 . S
C87 C88 1.363 . S
C87 H90 0.929 . S
C88 C87 1.363 . S
C88 C94 1.428 . S
H89 C85 0.930 . S
H90 C87 0.929 . S
S91 N92 1.613 . S
S91 N93 1.610 . S
N92 S91 1.613 . S
N92 C95 1.350 . S
N93 S91 1.610 . S
N93 C94 1.351 . S
C94 C88 1.428 . S
C94 N93 1.351 . S
C94 C95 1.434 . S
C95 C86 1.429 . S
C95 N92 1.350 . S
C95 C94 1.434 . S
C96 C97 1.369 . S
C96 C98 1.419 1_545 S
C96 H100 0.930 1_545 S
C97 C96 1.369 . S
C97 C106 1.429 . S
C98 C96 1.419 1_565 S
C98 C99 1.363 1_565 S
C98 H101 0.929 . S
C99 C98 1.363 1_545 S
C99 C105 1.428 . S
H100 C96 0.930 1_565 S
H101 C98 0.929 . S
S102 N103 1.613 . S
S102 N104 1.610 . S
N103 S102 1.613 . S
N103 C106 1.350 . S
N104 S102 1.610 . S
N104 C105 1.351 . S
C105 C99 1.428 . S
C105 N104 1.351 . S
C105 C106 1.434 . S
C106 C97 1.429 . S
C106 N103 1.350 . S
C106 C105 1.434 . S
C107 C108 1.369 . S
C107 C109 1.419 . S
C107 H111 0.930 1_554 S
C108 C107 1.369 . S
C108 C117 1.429 . S
C109 C107 1.419 . S
C109 C110 1.363 . S
C109 H112 0.929 1_554 S
C110 C109 1.363 . S
C110 C116 1.428 . S
H111 C107 0.930 1_556 S
H112 C109 0.929 1_556 S
S113 N114 1.613 . S
S113 N115 1.610 . S
N114 S113 1.613 . S
N114 C117 1.350 . S
N115 S113 1.610 . S
N115 C116 1.351 . S
C116 C110 1.428 . S
C116 N115 1.351 . S
C116 C117 1.434 . S
C117 C108 1.429 . S
C117 N114 1.350 . S
C117 C116 1.434 . S
C118 C119 1.369 . S
C118 C120 1.419 . S
C118 H122 0.930 . S
C119 C118 1.369 . S
C119 C128 1.429 . S
C120 C118 1.419 . S
C120 C121 1.363 . S
C120 H123 0.929 . S
C121 C120 1.363 . S
C121 C127 1.428 . S
H122 C118 0.930 . S
H123 C120 0.929 . S
S124 N125 1.613 1_655 S
S124 N126 1.610 . S
N125 S124 1.613 1_455 S
N125 C128 1.350 . S
N126 S124 1.610 . S
N126 C127 1.351 1_655 S
C127 C121 1.428 . S
C127 N126 1.351 1_455 S
C127 C128 1.434 . S
C128 C119 1.429 . S
C128 N125 1.350 . S
C128 C127 1.434 . S
C129 C130 1.369 . S
C129 C131 1.419 . S
C129 H133 0.930 . S
C130 C129 1.369 . S
C130 C139 1.429 . S
C131 C129 1.419 . S
C131 C132 1.363 . S
C131 H134 0.929 . S
C132 C131 1.363 . S
C132 C138 1.428 1_455 S
H133 C129 0.930 . S
H134 C131 0.929 . S
S135 N136 1.613 . S
S135 N137 1.610 . S
N136 S135 1.613 . S
N136 C139 1.350 1_665 S
N137 S135 1.610 . S
N137 C138 1.351 1_565 S
C138 C132 1.428 1_655 S
C138 N137 1.351 1_545 S
C138 C139 1.434 1_655 S
C139 C130 1.429 . S
C139 N136 1.350 1_445 S
C139 C138 1.434 1_455 S
C140 C141 1.369 . S
C140 C142 1.419 . S
C140 H144 0.930 . S
C141 C140 1.369 . S
C141 C150 1.429 . S
C142 C140 1.419 . S
C142 C143 1.363 . S
C142 H145 0.929 . S
C143 C142 1.363 . S
C143 C149 1.428 . S
H144 C140 0.930 . S
H145 C142 0.929 . S
S146 N147 1.613 1_565 S
S146 N148 1.610 . S
N147 S146 1.613 1_545 S
N147 C150 1.350 1_655 S
N148 S146 1.610 . S
N148 C149 1.351 1_665 S
C149 C143 1.428 . S
C149 N148 1.351 1_445 S
C149 C150 1.434 . S
C150 C141 1.429 . S
C150 N147 1.350 1_455 S
C150 C149 1.434 . S
C151 C152 1.369 1_565 S
C151 C153 1.419 . S
C151 H155 0.930 . S
C152 C151 1.369 1_545 S
C152 C161 1.429 . S
C153 C151 1.419 . S
C153 C154 1.363 1_565 S
C153 H156 0.929 . S
C154 C153 1.363 1_545 S
C154 C160 1.428 . S
H155 C151 0.930 . S
H156 C153 0.929 . S
S157 N158 1.613 . S
S157 N159 1.610 . S
N158 S157 1.613 . S
N158 C161 1.350 . S
N159 S157 1.610 . S
N159 C160 1.351 . S
C160 C154 1.428 . S
C160 N159 1.351 . S
C160 C161 1.434 . S
C161 C152 1.429 . S
C161 N158 1.350 . S
C161 C160 1.434 . S
C64 C16 1.255 . S
C66 C14 1.285 . S
C75 C35 1.259 . S
C77 C37 1.251 1_565 S
C86 C56 1.285 . S
C88 C58 1.271 . S
C97 C55 1.251 . S
C99 C59 1.260 . S
C108 C13 1.266 . S
C110 C17 1.276 . S
C119 C38 1.293 . S
C121 C34 1.266 . S
C130 C36 1.336 . S
C132 C18 1.304 . S
C141 C39 1.314 . S
C143 C57 1.317 . S
C152 C60 1.328 . S
C154 C15 1.306 . S
