# Generated by pormake.
# Topology hex, (8)-cn, num edge types: 1
# Building blocks:
#     Node 0, Type 0, BuildingBlock: LIZSOE_clean_sbu_0, # of connection points: 8
#     Edge 1, Type (0, 0), BuildingBlock: KIFKEQ_clean_linker_1, # of connection points: 2
#     Edge 2, Type (0, 0), BuildingBlock: KIFKEQ_clean_linker_1, # of connection points: 2
#     Edge 3, Type (0, 0), BuildingBlock: KIFKEQ_clean_linker_1, # of connection points: 2
#     Edge 4, Type (0, 0), BuildingBlock: KIFKEQ_clean_linker_1, # of connection points: 2
# Relax obj value: 0.132
# Max RMSD: 0.233
# Mean RMSD: 0.233
data_MOF--net-hex--node1-LIZSOE_clean_sbu_0--edge1-KIFKEQ_clean_linker_1
_symmetry_space_group_name_H-M    P1
_symmetry_Int_Tables_number       1
_symmetry_cell_setting            triclinic
loop_
_symmetry_equiv_pos_as_xyz
'x, y, z'
_cell_length_a     15.552632
_cell_length_b     22.935982
_cell_length_c     15.679603
_cell_angle_alpha  102.71401
_cell_angle_beta   82.901493
_cell_angle_gamma 136.31546
loop_
_atom_site_label
_atom_site_type_symbol
_atom_site_fract_x
_atom_site_fract_y
_atom_site_fract_z
_atom_type_partial_charge
Co0 Co 0.13443 0.92463 0.03264 0.0
N1 N 0.08266 0.83832 0.08247 0.0
C2 C 0.06575 0.83178 0.16772 0.0
N3 N 1.00547 0.71242 0.0953 0.0
C4 C 0.04845 0.76572 0.04019 0.0
C5 C 1.01784 0.7543 0.17572 0.0
Co6 Co 0.99261 0.10843 0.94786 0.0
N7 N 0.99853 0.17945 0.90279 0.0
N8 N 0.96937 0.26046 0.89395 0.0
C9 C 0.9229 0.2024 0.81917 0.0
C10 C 0.94009 0.15252 0.82497 0.0
C11 C 1.01711 0.2467 0.94298 0.0
Co12 Co 0.08616 0.02761 0.98898 0.0
C13 C 0.92703 0.0632 0.0506 0.0
H14 H 0.90088 0.09479 0.77878 0.0
O15 O 0.19963 0.01203 0.98573 0.0
O16 O 0.24326 0.15543 0.00264 0.0
O17 O 0.08716 0.04313 0.11831 0.0
O18 O 0.92757 0.89704 0.97389 0.0
O19 O 1.00615 0.84436 0.94715 0.0
O20 O 0.16356 0.19719 0.96748 0.0
O21 O 0.96792 0.03757 0.99293 0.0
O22 O 1.01374 0.07033 0.83891 0.0
O23 O 1.02891 0.9228 0.11378 0.0
O24 O 0.25718 1.00821 0.10935 0.0
O25 O 0.08721 0.01715 0.85651 0.0
O26 O 0.98284 0.1418 0.05981 0.0
C27 C 1.04465 0.98382 0.15586 0.0
C28 C 0.08128 0.29925 0.03181 0.0
H29 H 0.15251 0.30195 0.04408 0.0
H30 H 0.12668 0.36574 0.03727 0.0
H31 H 1.01218 0.26984 0.08295 0.0
C32 C 0.25569 0.21391 0.9891 0.0
C33 C 0.91415 0.83347 0.94662 0.0
H34 H 0.08748 0.88041 0.22078 0.0
H35 H 0.98235 0.71085 0.9056 0.0
H36 H 0.09959 0.71891 0.93436 0.0
H37 H 0.14259 0.8139 0.92272 0.0
C38 C 0.07007 0.75175 0.94527 0.0
C39 C 0.28746 0.04279 0.04145 0.0
C40 C 0.05481 0.03826 0.80822 0.0
H41 H 0.99447 0.73064 0.2359 0.0
H42 H 0.87022 0.19184 0.76766 0.0
H43 H 1.01359 0.36723 0.80573 0.0
H44 H 0.86437 0.26378 0.04245 0.0
H45 H 0.98674 0.46215 0.85822 0.0
H46 H 0.84154 0.36033 0.09659 0.0
H47 H 0.07161 0.66032 0.18258 0.0
H48 H 1.02985 0.53249 0.13415 0.0
H49 H 0.80737 0.4547 0.91158 0.0
H50 H 0.8451 0.58097 0.96247 0.0
C51 C 0.97459 0.36483 0.86867 0.0
C52 C 0.94589 0.31151 0.92191 0.0
C53 C 0.95838 0.41821 0.89837 0.0
C54 C 0.91326 0.41857 0.98162 0.0
C55 C 0.87799 0.36167 0.03269 0.0
C56 C 0.89275 0.30768 0.00245 0.0
C57 C 1.0111 0.61455 0.12477 0.0
C58 C 0.96479 0.63128 0.07444 0.0
C59 C 0.98719 0.54171 0.09713 0.0
C60 C 0.91711 0.4851 0.01863 0.0
C61 C 0.86327 0.49851 0.97161 0.0
C62 C 0.88564 0.5707 0.00014 0.0
H63 H 0.78223 0.04585 0.18195 0.0
H64 H 0.77322 0.97358 0.90257 0.0
H65 H 0.63241 0.04862 0.16222 0.0
H66 H 0.62819 0.98031 0.88218 0.0
H67 H 0.3016 0.95916 0.89717 0.0
H68 H 0.43538 0.93867 0.89691 0.0
H69 H 0.65947 0.15275 0.11377 0.0
H70 H 0.52255 0.17041 0.11566 0.0
C71 C 0.74318 0.02589 0.11658 0.0
C72 C 0.79205 0.01097 0.04405 0.0
C73 C 0.66063 0.03071 0.10479 0.0
C74 C 0.62323 0.01953 0.02018 0.0
C75 C 0.65651 0.99115 0.94831 0.0
C76 C 0.73826 0.98549 0.96026 0.0
C77 C 0.38313 1.00457 0.94189 0.0
C78 C 0.40028 0.06583 0.00712 0.0
C79 C 0.45892 0.99182 0.94284 0.0
C80 C 0.55519 0.04135 0.00808 0.0
C81 C 0.58302 0.11071 0.0649 0.0
C82 C 0.50693 0.12295 0.06421 0.0
H83 H 0.31872 0.34124 0.11521 0.0
H84 H 0.45614 0.29304 0.88566 0.0
H85 H 0.46377 0.49007 0.10243 0.0
H86 H 0.61309 0.44532 0.87695 0.0
H87 H 0.78927 0.69379 0.81454 0.0
H88 H 0.64055 0.54482 0.83252 0.0
H89 H 0.64501 0.62615 0.11023 0.0
H90 H 0.78224 0.77201 0.08894 0.0
C91 C 0.38485 0.36399 0.06419 0.0
C92 C 0.3761 0.3056 0.00156 0.0
C93 C 0.46898 0.45008 0.05652 0.0
C94 C 0.5502 0.48139 0.9871 0.0
C95 C 0.54954 0.42411 0.9294 0.0
C96 C 0.46218 0.33694 0.93579 0.0
C97 C 0.75222 0.67836 0.87826 0.0
C98 C 0.79369 0.74412 0.94956 0.0
C99 C 0.67003 0.59313 0.88961 0.0
C100 C 0.63078 0.57168 0.97346 0.0
C101 C 0.66945 0.63782 0.04411 0.0
C102 C 0.74795 0.72227 0.03197 0.0
H103 H 0.12422 0.15108 0.71624 0.0
H104 H 1.02423 0.91593 0.68599 0.0
H105 H 0.118 0.13671 0.56 0.0
H106 H 1.02486 0.90351 0.52583 0.0
H107 H 0.88626 0.85652 0.25074 0.0
H108 H 0.90109 0.87059 0.4087 0.0
H109 H 0.21628 0.14613 0.43247 0.0
H110 H 0.19688 0.13182 0.27596 0.0
C111 C 0.10298 0.09672 0.67568 0.0
C112 C 0.07289 0.03383 0.71331 0.0
C113 C 0.1007 0.08898 0.58559 0.0
C114 C 0.0705 0.01883 0.52979 0.0
C115 C 1.04649 0.95771 0.56713 0.0
C116 C 0.04786 0.96524 0.65854 0.0
C117 C 0.95665 0.92013 0.29052 0.0
C118 C 1.03923 0.99327 0.25169 0.0
C119 C 0.96677 0.92809 0.38062 0.0
C120 C 0.06051 1.00938 0.43352 0.0
C121 C 0.14162 0.08254 0.39428 0.0
C122 C 0.13018 0.07462 0.30457 0.0
loop_
_geom_bond_atom_site_label_1
_geom_bond_atom_site_label_2
_geom_bond_distance
_geom_bond_site_symmetry_2
_ccdc_geom_bond_type
Co0 N1 2.034 . S
Co0 O15 2.262 1_654 S
Co0 O19 1.958 1_554 S
Co0 O23 1.950 1_655 S
Co0 O24 2.057 1_654 S
N1 Co0 2.034 . S
N1 C2 1.366 . S
N1 C4 1.332 1_655 S
C2 N1 1.366 . S
C2 C5 1.377 . S
C2 H34 0.931 . S
N3 C4 1.341 . S
N3 C5 1.332 1_455 S
C4 N1 1.332 1_455 S
C4 N3 1.341 . S
C4 C38 1.361 . S
C5 C2 1.377 . S
C5 N3 1.332 1_655 S
C5 H41 0.930 . S
Co6 N7 2.034 1_655 S
Co6 O20 1.950 1_655 S
Co6 O21 2.257 1_556 S
Co6 O22 1.958 . S
Co6 O26 2.060 . S
N7 Co6 2.034 1_455 S
N7 C10 1.366 . S
N7 C11 1.332 . S
N8 C9 1.337 . S
N8 C11 1.346 . S
C9 N8 1.337 . S
C9 C10 1.377 . S
C9 H42 0.930 . S
C10 N7 1.366 . S
C10 C9 1.377 . S
C10 H14 0.931 . S
C11 N7 1.332 . S
C11 N8 1.346 . S
C11 C28 1.361 1_556 S
Co12 O15 2.097 1_655 S
Co12 O16 2.065 1_666 S
Co12 O17 2.065 1_566 S
Co12 O18 2.042 . S
Co12 O21 2.099 1_566 S
Co12 O25 2.042 1_655 S
C13 O21 1.253 . S
C13 O26 1.259 1_554 S
H14 C10 0.931 . S
O15 Co0 2.262 1_456 S
O15 Co12 2.097 1_455 S
O15 C39 1.253 . S
O16 Co12 2.065 1_444 S
O16 C32 1.221 . S
O17 Co12 2.065 1_544 S
O17 C27 1.221 1_545 S
O18 Co12 2.042 . S
O18 C33 1.237 . S
O19 Co0 1.958 1_556 S
O19 C33 1.278 . S
O20 Co6 1.950 1_455 S
O20 C32 1.277 1_556 S
O21 Co6 2.257 1_554 S
O21 Co12 2.099 1_544 S
O21 C13 1.253 . S
O22 Co6 1.958 . S
O22 C40 1.287 . S
O23 Co0 1.950 1_455 S
O23 C27 1.277 1_455 S
O24 Co0 2.057 1_456 S
O24 C39 1.263 . S
O25 Co12 2.042 1_455 S
O25 C40 1.230 1_465 S
O26 Co6 2.060 . S
O26 C13 1.259 1_556 S
C27 O17 1.221 1_565 S
C27 O23 1.277 1_655 S
C28 C11 1.361 1_554 S
C28 H29 0.960 . S
C28 H30 0.961 . S
C28 H31 0.961 1_455 S
H29 C28 0.960 . S
H30 C28 0.961 . S
H31 C28 0.961 1_655 S
C32 O16 1.221 . S
C32 O20 1.277 1_554 S
C33 O18 1.237 . S
C33 O19 1.278 . S
H34 C2 0.931 . S
H35 C38 0.961 . S
H36 C38 0.961 . S
H37 C38 0.960 . S
C38 C4 1.361 . S
C38 H35 0.961 . S
C38 H36 0.961 . S
C38 H37 0.960 . S
C39 O15 1.253 . S
C39 O24 1.263 . S
C40 O22 1.287 . S
C40 O25 1.230 1_645 S
H41 C5 0.930 . S
H42 C9 0.930 . S
H43 C51 0.950 . S
H44 C56 0.950 . S
H45 C53 0.950 . S
H46 C55 0.950 1_554 S
H47 C57 0.950 . S
H48 C59 0.950 . S
H49 C61 0.950 . S
H50 C62 0.950 . S
C51 H43 0.950 . S
C51 C52 1.387 . S
C51 C53 1.391 . S
C52 C51 1.387 . S
C52 C56 1.387 1_455 S
C53 H45 0.950 . S
C53 C51 1.391 . S
C53 C54 1.400 . S
C54 C53 1.400 . S
C54 C55 1.398 1_455 S
C54 C60 1.491 1_556 S
C55 H46 0.950 1_556 S
C55 C54 1.398 1_655 S
C55 C56 1.391 . S
C56 H44 0.950 . S
C56 C52 1.387 1_655 S
C56 C55 1.391 . S
C57 H47 0.950 . S
C57 C58 1.386 1_655 S
C57 C59 1.391 . S
C58 C57 1.386 1_455 S
C58 C62 1.393 . S
C59 H48 0.950 . S
C59 C57 1.391 . S
C59 C60 1.400 1_655 S
C60 C54 1.491 1_554 S
C60 C59 1.400 1_455 S
C60 C61 1.398 . S
C61 H49 0.950 . S
C61 C60 1.398 . S
C61 C62 1.391 . S
C62 H50 0.950 . S
C62 C58 1.393 . S
C62 C61 1.391 . S
H63 C71 0.950 . S
H64 C76 0.950 . S
H65 C73 0.950 . S
H66 C75 0.950 . S
H67 C77 0.950 . S
H68 C79 0.950 . S
H69 C81 0.950 . S
H70 C82 0.950 . S
C71 H63 0.950 . S
C71 C72 1.374 1_545 S
C71 C73 1.391 . S
C72 C71 1.374 1_565 S
C72 C76 1.394 1_554 S
C73 H65 0.950 . S
C73 C71 1.391 . S
C73 C74 1.400 1_545 S
C74 C73 1.400 1_565 S
C74 C75 1.398 1_554 S
C74 C80 1.491 1_554 S
C75 H66 0.950 . S
C75 C74 1.398 1_556 S
C75 C76 1.391 . S
C76 H64 0.950 . S
C76 C72 1.394 1_556 S
C76 C75 1.391 . S
C77 H67 0.950 . S
C77 C78 1.386 . S
C77 C79 1.391 . S
C78 C77 1.386 . S
C78 C82 1.393 1_566 S
C79 H68 0.950 . S
C79 C77 1.391 . S
C79 C80 1.400 . S
C80 C74 1.491 1_556 S
C80 C79 1.400 . S
C80 C81 1.398 1_566 S
C81 H69 0.950 . S
C81 C80 1.398 1_544 S
C81 C82 1.391 . S
C82 H70 0.950 . S
C82 C78 1.393 1_544 S
C82 C81 1.391 . S
H83 C91 0.950 . S
H84 C96 0.950 . S
H85 C93 0.950 . S
H86 C95 0.950 . S
H87 C97 0.950 . S
H88 C99 0.950 1_554 S
H89 C101 0.950 . S
H90 C102 0.950 . S
C91 H83 0.950 . S
C91 C92 1.386 . S
C91 C93 1.391 1_554 S
C92 C91 1.386 . S
C92 C96 1.393 . S
C93 H85 0.950 . S
C93 C91 1.391 1_556 S
C93 C94 1.400 1_556 S
C94 C93 1.400 1_554 S
C94 C95 1.398 . S
C94 C100 1.491 1_554 S
C95 H86 0.950 . S
C95 C94 1.398 . S
C95 C96 1.391 . S
C96 H84 0.950 . S
C96 C92 1.393 . S
C96 C95 1.391 . S
C97 H87 0.950 . S
C97 C98 1.386 . S
C97 C99 1.391 . S
C98 C97 1.386 . S
C98 C102 1.393 . S
C99 H88 0.950 1_556 S
C99 C97 1.391 . S
C99 C100 1.400 . S
C100 C94 1.491 1_556 S
C100 C99 1.400 . S
C100 C101 1.398 . S
C101 H89 0.950 . S
C101 C100 1.398 . S
C101 C102 1.391 . S
C102 H90 0.950 . S
C102 C98 1.393 . S
C102 C101 1.391 . S
H103 C111 0.950 . S
H104 C116 0.950 . S
H105 C113 0.950 . S
H106 C115 0.950 . S
H107 C117 0.950 . S
H108 C119 0.950 . S
H109 C121 0.950 . S
H110 C122 0.950 . S
C111 H103 0.950 . S
C111 C112 1.386 1_445 S
C111 C113 1.391 . S
C112 C111 1.386 1_665 S
C112 C116 1.393 . S
C113 H105 0.950 . S
C113 C111 1.391 . S
C113 C114 1.399 1_445 S
C114 C113 1.399 1_665 S
C114 C115 1.399 . S
C114 C120 1.500 1_655 S
C115 H106 0.950 . S
C115 C114 1.399 . S
C115 C116 1.391 . S
C116 H104 0.950 . S
C116 C112 1.393 . S
C116 C115 1.391 . S
C117 H107 0.950 . S
C117 C118 1.386 1_665 S
C117 C119 1.391 . S
C118 C117 1.386 1_445 S
C118 C122 1.393 . S
C119 H108 0.950 . S
C119 C117 1.391 . S
C119 C120 1.394 1_655 S
C120 C114 1.500 1_455 S
C120 C119 1.394 1_455 S
C120 C121 1.395 1_565 S
C121 H109 0.950 . S
C121 C120 1.395 1_545 S
C121 C122 1.391 . S
C122 H110 0.950 . S
C122 C118 1.393 . S
C122 C121 1.391 . S
C52 N8 1.538 . S
C58 N3 1.422 . S
C72 C13 1.622 1_565 S
C78 C39 1.635 . S
C92 C32 1.608 . S
C98 C33 1.622 . S
C112 C40 1.440 1_565 S
C118 C27 1.441 1_445 S
