# Generated by pormake.
# Topology uoq, (4)-cn, num edge types: 1
# Building blocks:
#     Node 0, Type 0, BuildingBlock: AZAVOO_clean_sbu_0, # of connection points: 4
#     Node 1, Type 0, BuildingBlock: AZAVOO_clean_sbu_0, # of connection points: 4
#     Node 2, Type 0, BuildingBlock: AZAVOO_clean_sbu_0, # of connection points: 4
#     Node 3, Type 0, BuildingBlock: AZAVOO_clean_sbu_0, # of connection points: 4
#     Node 4, Type 0, BuildingBlock: AZAVOO_clean_sbu_0, # of connection points: 4
#     Node 5, Type 0, BuildingBlock: AZAVOO_clean_sbu_0, # of connection points: 4
#     Node 6, Type 0, BuildingBlock: AZAVOO_clean_sbu_0, # of connection points: 4
#     Node 7, Type 0, BuildingBlock: AZAVOO_clean_sbu_0, # of connection points: 4
#     Node 8, Type 0, BuildingBlock: AZAVOO_clean_sbu_0, # of connection points: 4
#     Node 9, Type 0, BuildingBlock: AZAVOO_clean_sbu_0, # of connection points: 4
#     Node 10, Type 0, BuildingBlock: AZAVOO_clean_sbu_0, # of connection points: 4
#     Node 11, Type 0, BuildingBlock: AZAVOO_clean_sbu_0, # of connection points: 4
#     Edge 12, Type (0, 0), None
#     Edge 13, Type (0, 0), None
#     Edge 14, Type (0, 0), None
#     Edge 15, Type (0, 0), None
#     Edge 16, Type (0, 0), None
#     Edge 17, Type (0, 0), None
#     Edge 18, Type (0, 0), None
#     Edge 19, Type (0, 0), None
#     Edge 20, Type (0, 0), None
#     Edge 21, Type (0, 0), None
#     Edge 22, Type (0, 0), None
#     Edge 23, Type (0, 0), None
#     Edge 24, Type (0, 0), None
#     Edge 25, Type (0, 0), None
#     Edge 26, Type (0, 0), None
#     Edge 27, Type (0, 0), None
#     Edge 28, Type (0, 0), None
#     Edge 29, Type (0, 0), None
#     Edge 30, Type (0, 0), None
#     Edge 31, Type (0, 0), None
#     Edge 32, Type (0, 0), None
#     Edge 33, Type (0, 0), None
#     Edge 34, Type (0, 0), None
#     Edge 35, Type (0, 0), None
# Relax obj value: 0.080
# Max RMSD: 0.076
# Mean RMSD: 0.076
data_MOF--net-uoq--node1-AZAVOO_clean_sbu_0--edge1-none
_symmetry_space_group_name_H-M    P1
_symmetry_Int_Tables_number       1
_symmetry_cell_setting            triclinic
loop_
_symmetry_equiv_pos_as_xyz
'x, y, z'
_cell_length_a     25.455474
_cell_length_b     25.455598
_cell_length_c     10.023806
_cell_angle_alpha  89.997904
_cell_angle_beta   90.002501
_cell_angle_gamma 120.0005
loop_
_atom_site_label
_atom_site_type_symbol
_atom_site_fract_x
_atom_site_fract_y
_atom_site_fract_z
_atom_type_partial_charge
Mg0 Mg 0.38598 0.50172 0.25424 0.0
O1 O 0.30833 0.48726 0.39501 0.0
O2 O 0.33045 0.46917 0.5996 0.0
Mg3 Mg 0.4236 0.47625 0.591 0.0
C4 C 0.29496 0.4745 0.51803 0.0
C5 C 0.28131 0.472 1.01166 0.0
O6 O 0.2721 0.49687 0.90679 0.0
O7 O 0.35397 0.40028 0.25996 0.0
O8 O 0.3803 0.38823 0.4667 0.0
O9 O 0.43789 0.6004 0.29419 0.0
O10 O 0.44983 0.53246 0.40777 0.0
C11 C 0.35775 0.36733 0.3517 0.0
C12 C 0.46513 0.58835 0.38782 0.0
O13 O 0.33179 0.5016 0.07177 0.0
Mg14 Mg 0.90208 0.3772 0.58755 0.0
O15 O 0.83887 0.29955 0.72832 0.0
O16 O 0.87907 0.32167 0.93291 0.0
Mg17 Mg 0.96514 0.41482 0.92433 0.0
C18 C 0.83825 0.28618 0.85133 0.0
C19 C 0.82714 0.27254 0.34495 0.0
O20 O 0.79305 0.26333 0.24009 0.0
O21 O 0.97149 0.34518 0.59331 0.0
O22 O 1.00987 0.37151 0.80006 0.0
O23 O 0.85531 0.42912 0.62747 0.0
O24 O 0.93518 0.44104 0.74107 0.0
C25 C 1.00823 0.34896 0.68507 0.0
C26 C 0.8946 0.45635 0.7211 0.0
O27 O 0.84801 0.32301 0.40508 0.0
Mg28 Mg 0.54269 0.89328 0.92085 0.0
O29 O 0.55714 0.83008 0.06162 0.0
O30 O 0.57521 0.87028 0.26621 0.0
Mg31 Mg 0.56813 0.95634 0.25763 0.0
C32 C 0.56988 0.82946 0.18461 0.0
C33 C 0.57242 0.81835 0.67825 0.0
O34 O 0.54754 0.78427 0.57338 0.0
O35 O 0.64412 0.96271 0.92661 0.0
O36 O 0.65617 1.00108 0.13336 0.0
O37 O 0.444 0.84651 0.96077 0.0
O38 O 0.51194 0.92638 0.07437 0.0
C39 C 0.67707 0.99944 1.01837 0.0
C40 C 0.45605 0.8858 0.0544 0.0
O41 O 0.54282 0.83922 0.73838 0.0
Mg42 Mg 0.6672 0.53388 0.25417 0.0
O43 O 0.74486 0.54833 0.39495 0.0
O44 O 0.72273 0.56641 0.59954 0.0
Mg45 Mg 0.62958 0.55932 0.59094 0.0
C46 C 0.75822 0.56108 0.51793 0.0
C47 C 0.77186 0.56361 1.01158 0.0
O48 O 0.78107 0.53873 0.90672 0.0
O49 O 0.69921 0.63532 0.25992 0.0
O50 O 0.67288 0.64736 0.46667 0.0
O51 O 0.61528 0.43519 0.2941 0.0
O52 O 0.60336 0.50313 0.40769 0.0
C53 C 0.69543 0.66827 0.35168 0.0
C54 C 0.58805 0.44725 0.38773 0.0
O55 O 0.72139 0.53401 0.07171 0.0
Mg56 Mg 0.15111 0.6584 0.5875 0.0
O57 O 0.21431 0.73606 0.72827 0.0
O58 O 0.17411 0.71393 0.93286 0.0
Mg59 Mg 0.08804 0.62079 0.92428 0.0
C60 C 0.21493 0.74942 0.85127 0.0
C61 C 0.22605 0.76306 0.3449 0.0
O62 O 0.26014 0.77227 0.24004 0.0
O63 O 0.08169 0.69042 0.59324 0.0
O64 O 0.04332 0.6641 0.8 0.0
O65 O 0.19787 0.60648 0.62744 0.0
O66 O 0.11801 0.59456 0.74104 0.0
C67 C 0.04496 0.68664 0.685 0.0
C68 C 0.15858 0.57925 0.72108 0.0
O69 O 0.20517 0.71259 0.40503 0.0
Mg70 Mg 0.51051 0.14232 0.92085 0.0
O71 O 0.49605 0.20552 0.0616 0.0
O72 O 0.47796 0.16531 0.26619 0.0
Mg73 Mg 0.48505 0.07925 0.25763 0.0
C74 C 0.48329 0.20613 0.18462 0.0
C75 C 0.48079 0.21725 0.67824 0.0
O76 O 0.50566 0.25133 0.57336 0.0
O77 O 0.40908 0.07289 0.92657 0.0
O78 O 0.39702 0.03452 0.13333 0.0
O79 O 0.60919 0.18909 0.96081 0.0
O80 O 0.54125 0.10922 0.07439 0.0
C81 C 0.37612 0.03616 1.01832 0.0
C82 C 0.59714 0.1498 0.05444 0.0
O83 O 0.51039 0.19638 0.73837 0.0
Mg84 Mg 0.62232 0.72935 0.50601 0.0
O85 O 0.6014 0.78544 0.35234 0.0
O86 O 0.57354 0.73914 0.15286 0.0
Mg87 Mg 0.59583 0.66258 0.16229 0.0
C88 C 0.58171 0.7817 0.23297 0.0
C89 C 0.63237 0.83075 0.72284 0.0
O90 O 0.66025 0.86983 0.81921 0.0
O91 O 0.71718 0.76535 0.41728 0.0
O92 O 0.69157 0.73874 0.21344 0.0
O93 O 0.52257 0.66761 0.54613 0.0
O94 O 0.57181 0.65355 0.38092 0.0
C95 C 0.71386 0.7316 0.32027 0.0
C96 C 0.52163 0.63686 0.4427 0.0
O97 O 0.65844 0.80457 0.6681 0.0
Mg98 Mg 0.91078 0.61353 0.83933 0.0
O99 O 0.83375 0.5926 0.68566 0.0
O100 O 0.8522 0.56475 0.48617 0.0
Mg101 Mg 0.95105 0.58706 0.49559 0.0
C102 C 0.81781 0.57292 0.56629 0.0
C103 C 0.81942 0.62356 0.05617 0.0
O104 O 0.80822 0.65144 0.15254 0.0
O105 O 0.96963 0.70839 0.75059 0.0
O106 O 0.97063 0.6828 0.54675 0.0
O107 O 0.87277 0.51378 0.87943 0.0
O108 O 0.93606 0.56303 0.71422 0.0
C109 C 1.00006 0.70508 0.65359 0.0
C110 C 0.90259 0.51285 0.776 0.0
O111 O 0.87167 0.64964 1.00142 0.0
Mg112 Mg 0.31505 0.90198 0.17264 0.0
O113 O 0.25896 0.82495 1.01898 0.0
O114 O 0.30524 0.84339 0.81949 0.0
Mg115 Mg 0.3818 0.94225 0.82889 0.0
C116 C 0.26269 0.80901 0.8996 0.0
C117 C 0.21366 0.81062 0.38949 0.0
O118 O 0.17459 0.79943 0.48587 0.0
O119 O 0.27904 0.96082 0.0839 0.0
O120 O 0.30564 0.96184 0.88006 0.0
O121 O 0.3768 0.86397 0.21274 0.0
O122 O 0.39084 0.92726 0.04752 0.0
C123 C 0.31279 0.99126 0.98691 0.0
C124 C 0.40754 0.89378 0.1093 0.0
O125 O 0.23984 0.86287 0.33475 0.0
Mg126 Mg 0.43087 0.30625 0.50599 0.0
O127 O 0.45179 0.25015 0.35233 0.0
O128 O 0.47962 0.29644 0.15283 0.0
Mg129 Mg 0.45733 0.373 0.16224 0.0
C130 C 0.47146 0.25389 0.23292 0.0
C131 C 0.42084 0.20486 0.72284 0.0
O132 O 0.39296 0.16578 0.81922 0.0
O133 O 0.336 0.27024 0.41728 0.0
O134 O 0.36159 0.29685 0.21344 0.0
O135 O 0.53063 0.36799 0.54607 0.0
O136 O 0.48137 0.38204 0.38087 0.0
C137 C 0.33931 0.304 0.32028 0.0
C138 C 0.53155 0.39874 0.44264 0.0
O139 O 0.39476 0.23104 0.6681 0.0
Mg140 Mg 0.1424 0.42207 0.83938 0.0
O141 O 0.21943 0.443 0.68574 0.0
O142 O 0.20098 0.47083 0.48623 0.0
Mg143 Mg 0.10213 0.44853 0.49561 0.0
C144 C 0.23537 0.46267 0.56632 0.0
C145 C 0.23376 0.41206 0.05627 0.0
O146 O 0.24495 0.38418 0.15267 0.0
O147 O 0.08356 0.32721 0.75067 0.0
O148 O 0.08254 0.35279 0.54682 0.0
O149 O 0.18041 0.52183 0.87945 0.0
O150 O 0.11712 0.47258 0.71423 0.0
C151 C 0.05312 0.33052 0.65367 0.0
C152 C 0.1506 0.52276 0.776 0.0
O153 O 0.1815 0.38598 1.00152 0.0
Mg154 Mg 0.73814 0.13362 0.1727 0.0
O155 O 0.79423 0.21065 1.01904 0.0
O156 O 0.74795 0.19221 0.81954 0.0
Mg157 Mg 0.67139 0.09335 0.82895 0.0
C158 C 0.79049 0.22659 0.89965 0.0
C159 C 0.83953 0.22498 0.38955 0.0
O160 O 0.87861 0.23618 0.48593 0.0
O161 O 0.77416 0.07478 0.08398 0.0
O162 O 0.74755 0.07377 0.88013 0.0
O163 O 0.67639 0.17163 0.21279 0.0
O164 O 0.66235 0.10834 0.04757 0.0
C165 C 0.74041 0.04434 0.98697 0.0
C166 C 0.64565 0.14182 0.10935 0.0
O167 O 0.81335 0.17273 0.33481 0.0
loop_
_geom_bond_atom_site_label_1
_geom_bond_atom_site_label_2
_geom_bond_distance
_geom_bond_site_symmetry_2
_ccdc_geom_bond_type
Mg0 O1 2.028 . S
Mg0 O7 1.986 . S
Mg0 O9 2.114 . S
Mg0 O10 2.251 . S
Mg0 O13 2.010 . S
O1 Mg0 2.028 . S
O1 C4 1.250 . S
O2 Mg3 2.028 . S
O2 C4 1.248 . S
Mg3 O2 2.028 . S
Mg3 O8 2.032 . S
Mg3 O10 2.079 . S
C4 O1 1.250 . S
C4 O2 1.248 . S
C5 O6 1.264 . S
C5 O13 1.249 1_556 S
O6 C5 1.264 . S
O7 Mg0 1.986 . S
O7 C11 1.246 . S
O8 Mg3 2.032 . S
O8 C11 1.259 . S
O9 Mg0 2.114 . S
O9 C12 1.252 . S
O10 Mg0 2.251 . S
O10 Mg3 2.079 . S
O10 C12 1.273 . S
C11 O7 1.246 . S
C11 O8 1.259 . S
C12 O9 1.252 . S
C12 O10 1.273 . S
O13 Mg0 2.010 . S
O13 C5 1.249 1_554 S
Mg14 O15 2.028 . S
Mg14 O21 1.986 . S
Mg14 O23 2.114 . S
Mg14 O24 2.251 . S
Mg14 O27 2.010 . S
O15 Mg14 2.028 . S
O15 C18 1.250 . S
O16 Mg17 2.028 . S
O16 C18 1.248 . S
Mg17 O16 2.028 . S
Mg17 O22 2.032 . S
Mg17 O24 2.079 . S
C18 O15 1.250 . S
C18 O16 1.248 . S
C19 O20 1.264 . S
C19 O27 1.249 . S
O20 C19 1.264 . S
O21 Mg14 1.986 . S
O21 C25 1.246 . S
O22 Mg17 2.032 . S
O22 C25 1.259 . S
O23 Mg14 2.114 . S
O23 C26 1.252 . S
O24 Mg14 2.251 . S
O24 Mg17 2.079 . S
O24 C26 1.273 . S
C25 O21 1.246 . S
C25 O22 1.259 . S
C26 O23 1.252 . S
C26 O24 1.273 . S
O27 Mg14 2.010 . S
O27 C19 1.249 . S
Mg28 O29 2.028 1_556 S
Mg28 O35 1.986 . S
Mg28 O37 2.114 . S
Mg28 O38 2.251 1_556 S
Mg28 O41 2.010 . S
O29 Mg28 2.028 1_554 S
O29 C32 1.250 . S
O30 Mg31 2.028 . S
O30 C32 1.248 . S
Mg31 O30 2.028 . S
Mg31 O36 2.032 . S
Mg31 O38 2.079 . S
C32 O29 1.250 . S
C32 O30 1.248 . S
C33 O34 1.264 . S
C33 O41 1.249 . S
O34 C33 1.264 . S
O35 Mg28 1.986 . S
O35 C39 1.246 1_556 S
O36 Mg31 2.032 . S
O36 C39 1.259 . S
O37 Mg28 2.114 . S
O37 C40 1.252 . S
O38 Mg28 2.251 1_554 S
O38 Mg31 2.079 . S
O38 C40 1.273 1_554 S
C39 O35 1.246 1_554 S
C39 O36 1.259 . S
C40 O37 1.252 . S
C40 O38 1.273 1_556 S
O41 Mg28 2.010 . S
O41 C33 1.249 . S
Mg42 O43 2.028 . S
Mg42 O49 1.986 . S
Mg42 O51 2.114 . S
Mg42 O52 2.251 . S
Mg42 O55 2.010 . S
O43 Mg42 2.028 . S
O43 C46 1.250 . S
O44 Mg45 2.028 . S
O44 C46 1.248 . S
Mg45 O44 2.028 . S
Mg45 O50 2.032 . S
Mg45 O52 2.079 . S
C46 O43 1.250 . S
C46 O44 1.248 . S
C47 O48 1.264 . S
C47 O55 1.249 1_556 S
O48 C47 1.264 . S
O49 Mg42 1.986 . S
O49 C53 1.246 . S
O50 Mg45 2.032 . S
O50 C53 1.259 . S
O51 Mg42 2.114 . S
O51 C54 1.252 . S
O52 Mg42 2.251 . S
O52 Mg45 2.079 . S
O52 C54 1.273 . S
C53 O49 1.246 . S
C53 O50 1.259 . S
C54 O51 1.252 . S
C54 O52 1.273 . S
O55 Mg42 2.010 . S
O55 C47 1.249 1_554 S
Mg56 O57 2.028 . S
Mg56 O63 1.986 . S
Mg56 O65 2.114 . S
Mg56 O66 2.251 . S
Mg56 O69 2.010 . S
O57 Mg56 2.028 . S
O57 C60 1.250 . S
O58 Mg59 2.028 . S
O58 C60 1.248 . S
Mg59 O58 2.028 . S
Mg59 O64 2.032 . S
Mg59 O66 2.079 . S
C60 O57 1.250 . S
C60 O58 1.248 . S
C61 O62 1.264 . S
C61 O69 1.249 . S
O62 C61 1.264 . S
O63 Mg56 1.986 . S
O63 C67 1.246 . S
O64 Mg59 2.032 . S
O64 C67 1.259 . S
O65 Mg56 2.114 . S
O65 C68 1.252 . S
O66 Mg56 2.251 . S
O66 Mg59 2.079 . S
O66 C68 1.273 . S
C67 O63 1.246 . S
C67 O64 1.259 . S
C68 O65 1.252 . S
C68 O66 1.273 . S
O69 Mg56 2.010 . S
O69 C61 1.249 . S
Mg70 O71 2.028 1_556 S
Mg70 O77 1.986 . S
Mg70 O79 2.114 . S
Mg70 O80 2.251 1_556 S
Mg70 O83 2.010 . S
O71 Mg70 2.028 1_554 S
O71 C74 1.250 . S
O72 Mg73 2.028 . S
O72 C74 1.248 . S
Mg73 O72 2.028 . S
Mg73 O78 2.032 . S
Mg73 O80 2.079 . S
C74 O71 1.250 . S
C74 O72 1.248 . S
C75 O76 1.264 . S
C75 O83 1.249 . S
O76 C75 1.264 . S
O77 Mg70 1.986 . S
O77 C81 1.246 1_556 S
O78 Mg73 2.032 . S
O78 C81 1.259 . S
O79 Mg70 2.114 . S
O79 C82 1.252 . S
O80 Mg70 2.251 1_554 S
O80 Mg73 2.079 . S
O80 C82 1.273 1_554 S
C81 O77 1.246 1_554 S
C81 O78 1.259 . S
C82 O79 1.252 . S
C82 O80 1.273 1_556 S
O83 Mg70 2.010 . S
O83 C75 1.249 . S
Mg84 O85 2.028 . S
Mg84 O91 1.986 . S
Mg84 O93 2.114 . S
Mg84 O94 2.251 . S
Mg84 O97 2.010 . S
O85 Mg84 2.028 . S
O85 C88 1.250 . S
O86 Mg87 2.028 . S
O86 C88 1.248 . S
Mg87 O86 2.028 . S
Mg87 O92 2.032 . S
Mg87 O94 2.079 . S
C88 O85 1.250 . S
C88 O86 1.248 . S
C89 O90 1.264 . S
C89 O97 1.249 . S
O90 C89 1.264 . S
O91 Mg84 1.986 . S
O91 C95 1.246 . S
O92 Mg87 2.032 . S
O92 C95 1.259 . S
O93 Mg84 2.114 . S
O93 C96 1.252 . S
O94 Mg84 2.251 . S
O94 Mg87 2.079 . S
O94 C96 1.273 . S
C95 O91 1.246 . S
C95 O92 1.259 . S
C96 O93 1.252 . S
C96 O94 1.273 . S
O97 Mg84 2.010 . S
O97 C89 1.249 . S
Mg98 O99 2.028 . S
Mg98 O105 1.986 . S
Mg98 O107 2.114 . S
Mg98 O108 2.251 . S
Mg98 O111 2.010 . S
O99 Mg98 2.028 . S
O99 C102 1.250 . S
O100 Mg101 2.028 . S
O100 C102 1.248 . S
Mg101 O100 2.028 . S
Mg101 O106 2.032 . S
Mg101 O108 2.079 . S
C102 O99 1.250 . S
C102 O100 1.248 . S
C103 O104 1.259 1_556 S
C103 O111 1.253 . S
O104 C103 1.259 1_554 S
O105 Mg98 1.986 . S
O105 C109 1.246 . S
O106 Mg101 2.032 . S
O106 C109 1.259 . S
O107 Mg98 2.114 . S
O107 C110 1.252 . S
O108 Mg98 2.251 . S
O108 Mg101 2.079 . S
O108 C110 1.273 . S
C109 O105 1.246 . S
C109 O106 1.259 . S
C110 O107 1.252 . S
C110 O108 1.273 . S
O111 Mg98 2.010 . S
O111 C103 1.253 . S
Mg112 O113 2.028 1_554 S
Mg112 O119 1.986 . S
Mg112 O121 2.114 . S
Mg112 O122 2.251 1_554 S
Mg112 O125 2.010 . S
O113 Mg112 2.028 1_556 S
O113 C116 1.250 . S
O114 Mg115 2.028 . S
O114 C116 1.248 . S
Mg115 O114 2.028 . S
Mg115 O120 2.032 . S
Mg115 O122 2.079 . S
C116 O113 1.250 . S
C116 O114 1.248 . S
C117 O118 1.264 . S
C117 O125 1.249 . S
O118 C117 1.264 . S
O119 Mg112 1.986 . S
O119 C123 1.246 1_554 S
O120 Mg115 2.032 . S
O120 C123 1.259 . S
O121 Mg112 2.114 . S
O121 C124 1.252 1_554 S
O122 Mg112 2.251 1_556 S
O122 Mg115 2.079 . S
O122 C124 1.273 . S
C123 O119 1.246 1_556 S
C123 O120 1.259 . S
C124 O121 1.252 1_556 S
C124 O122 1.273 . S
O125 Mg112 2.010 . S
O125 C117 1.249 . S
Mg126 O127 2.028 . S
Mg126 O133 1.986 . S
Mg126 O135 2.114 . S
Mg126 O136 2.251 . S
Mg126 O139 2.010 . S
O127 Mg126 2.028 . S
O127 C130 1.250 . S
O128 Mg129 2.028 . S
O128 C130 1.248 . S
Mg129 O128 2.028 . S
Mg129 O134 2.032 . S
Mg129 O136 2.079 . S
C130 O127 1.250 . S
C130 O128 1.248 . S
C131 O132 1.264 . S
C131 O139 1.249 . S
O132 C131 1.264 . S
O133 Mg126 1.986 . S
O133 C137 1.246 . S
O134 Mg129 2.032 . S
O134 C137 1.259 . S
O135 Mg126 2.114 . S
O135 C138 1.252 . S
O136 Mg126 2.251 . S
O136 Mg129 2.079 . S
O136 C138 1.273 . S
C137 O133 1.246 . S
C137 O134 1.259 . S
C138 O135 1.252 . S
C138 O136 1.273 . S
O139 Mg126 2.010 . S
O139 C131 1.249 . S
Mg140 O141 2.028 . S
Mg140 O147 1.986 . S
Mg140 O149 2.114 . S
Mg140 O150 2.251 . S
Mg140 O153 2.010 . S
O141 Mg140 2.028 . S
O141 C144 1.250 . S
O142 Mg143 2.028 . S
O142 C144 1.248 . S
Mg143 O142 2.028 . S
Mg143 O148 2.032 . S
Mg143 O150 2.079 . S
C144 O141 1.250 . S
C144 O142 1.248 . S
C145 O146 1.259 1_556 S
C145 O153 1.253 . S
O146 C145 1.259 1_554 S
O147 Mg140 1.986 . S
O147 C151 1.246 . S
O148 Mg143 2.032 . S
O148 C151 1.259 . S
O149 Mg140 2.114 . S
O149 C152 1.252 . S
O150 Mg140 2.251 . S
O150 Mg143 2.079 . S
O150 C152 1.273 . S
C151 O147 1.246 . S
C151 O148 1.259 . S
C152 O149 1.252 . S
C152 O150 1.273 . S
O153 Mg140 2.010 . S
O153 C145 1.253 . S
Mg154 O155 2.028 1_554 S
Mg154 O161 1.986 . S
Mg154 O163 2.114 . S
Mg154 O164 2.251 1_554 S
Mg154 O167 2.010 . S
O155 Mg154 2.028 1_556 S
O155 C158 1.250 . S
O156 Mg157 2.028 . S
O156 C158 1.248 . S
Mg157 O156 2.028 . S
Mg157 O162 2.032 . S
Mg157 O164 2.079 . S
C158 O155 1.250 . S
C158 O156 1.248 . S
C159 O160 1.264 . S
C159 O167 1.249 . S
O160 C159 1.264 . S
O161 Mg154 1.986 . S
O161 C165 1.246 1_554 S
O162 Mg157 2.032 . S
O162 C165 1.259 . S
O163 Mg154 2.114 . S
O163 C166 1.252 1_554 S
O164 Mg154 2.251 1_556 S
O164 Mg157 2.079 . S
O164 C166 1.273 . S
C165 O161 1.246 1_556 S
C165 O162 1.259 . S
C166 O163 1.252 1_556 S
C166 O164 1.273 . S
O167 Mg154 2.010 . S
O167 C159 1.249 . S
C11 C137 1.462 . S
C25 C151 1.462 1_655 S
C39 C165 1.462 1_564 S
C53 C95 1.462 . S
C109 C67 1.462 1_655 S
C123 C81 1.462 1_566 S
C145 C5 1.090 . S
C19 C159 1.090 . S
C33 C89 1.090 . S
C47 C103 1.090 . S
C61 C117 1.090 . S
C75 C131 1.090 . S
C144 C4 1.302 . S
C18 C158 1.303 . S
C32 C88 1.302 . S
C46 C102 1.302 . S
C60 C116 1.303 . S
C74 C130 1.302 . S
C12 C96 1.593 . S
C110 C26 1.593 . S
C40 C124 1.593 . S
C54 C138 1.593 . S
C68 C152 1.593 . S
C166 C82 1.593 . S
