# Generated by pormake.
# Topology ukg, (4)-cn, num edge types: 1
# Building blocks:
#     Node 0, Type 0, BuildingBlock: CEKHIL_clean_sbu_0, # of connection points: 4
#     Node 1, Type 0, BuildingBlock: CEKHIL_clean_sbu_0, # of connection points: 4
#     Node 2, Type 0, BuildingBlock: CEKHIL_clean_sbu_0, # of connection points: 4
#     Node 3, Type 0, BuildingBlock: CEKHIL_clean_sbu_0, # of connection points: 4
#     Node 4, Type 0, BuildingBlock: CEKHIL_clean_sbu_0, # of connection points: 4
#     Node 5, Type 0, BuildingBlock: CEKHIL_clean_sbu_0, # of connection points: 4
#     Node 6, Type 0, BuildingBlock: CEKHIL_clean_sbu_0, # of connection points: 4
#     Node 7, Type 0, BuildingBlock: CEKHIL_clean_sbu_0, # of connection points: 4
#     Edge 8, Type (0, 0), None
#     Edge 9, Type (0, 0), None
#     Edge 10, Type (0, 0), None
#     Edge 11, Type (0, 0), None
#     Edge 12, Type (0, 0), None
#     Edge 13, Type (0, 0), None
#     Edge 14, Type (0, 0), None
#     Edge 15, Type (0, 0), None
#     Edge 16, Type (0, 0), None
#     Edge 17, Type (0, 0), None
#     Edge 18, Type (0, 0), None
#     Edge 19, Type (0, 0), None
#     Edge 20, Type (0, 0), None
#     Edge 21, Type (0, 0), None
#     Edge 22, Type (0, 0), None
#     Edge 23, Type (0, 0), None
# Relax obj value: 0.120
# Max RMSD: 0.207
# Mean RMSD: 0.198
data_MOF--net-ukg--node1-CEKHIL_clean_sbu_0--edge1-none
_symmetry_space_group_name_H-M    P1
_symmetry_Int_Tables_number       1
_symmetry_cell_setting            triclinic
loop_
_symmetry_equiv_pos_as_xyz
'x, y, z'
_cell_length_a     13.607094
_cell_length_b     12.94073
_cell_length_c     16.900734
_cell_angle_alpha  90.013339
_cell_angle_beta   89.99654
_cell_angle_gamma 89.448739
loop_
_atom_site_label
_atom_site_type_symbol
_atom_site_fract_x
_atom_site_fract_y
_atom_site_fract_z
_atom_type_partial_charge
Co0 Co 0.03306 0.62299 0.13972 0.0
O1 O 0.08584 0.48942 0.10656 0.0
O2 O 0.05766 0.61565 0.024 0.0
C3 C 0.89814 0.55839 0.19972 0.0
O4 O 0.97124 0.7657 0.16548 0.0
Co5 Co 0.03264 0.64546 0.32094 0.0
O6 O 0.03767 0.79121 0.28478 0.0
C7 C 0.20488 0.71747 0.23027 0.0
C8 C 0.08028 0.51827 0.03425 0.0
C9 C 0.98577 0.82282 0.2273 0.0
O10 O 0.16871 0.682 0.16517 0.0
O11 O 0.16485 0.70286 0.29777 0.0
O12 O 0.90263 0.57405 0.12493 0.0
O13 O 0.98153 0.5631 0.23623 0.0
Co14 Co 0.36794 0.50475 0.63809 0.0
O15 O 0.49583 0.54763 0.59666 0.0
O16 O 0.38023 0.47645 0.52476 0.0
C17 C 0.42635 0.41463 0.74233 0.0
O18 O 0.23245 0.44551 0.66741 0.0
Co19 Co 0.30611 0.58972 0.80627 0.0
O20 O 0.18095 0.5194 0.78199 0.0
C21 C 0.30232 0.71515 0.67259 0.0
C22 C 0.47091 0.50803 0.52958 0.0
C23 C 0.16803 0.45866 0.72349 0.0
O24 O 0.30182 0.64418 0.62004 0.0
O25 O 0.35375 0.70121 0.73447 0.0
O26 O 0.42655 0.37642 0.67165 0.0
O27 O 0.40515 0.51232 0.74679 0.0
Co28 Co 0.45595 0.89442 0.14668 0.0
O29 O 0.40325 0.02592 0.10917 0.0
O30 O 0.4373 0.89769 0.02999 0.0
C31 C 0.58709 0.9643 0.20962 0.0
O32 O 0.51578 0.75286 0.17746 0.0
Co33 Co 0.44249 0.88843 0.32844 0.0
O34 O 0.47028 0.74202 0.30586 0.0
C35 C 0.28918 0.78841 0.23161 0.0
C36 C 0.41243 0.99485 0.03774 0.0
C37 C 0.50903 0.70318 0.24392 0.0
O38 O 0.3207 0.83398 0.16872 0.0
O39 O 0.3251 0.80529 0.30024 0.0
O40 O 0.58705 0.94401 0.13538 0.0
O41 O 0.50134 0.96143 0.24241 0.0
Co42 Co 0.12208 0.99249 0.64516 0.0
O43 O 0.99545 0.94441 0.6035 0.0
O44 O 0.11105 0.0138 0.53087 0.0
C45 C 0.06031 0.0891 0.74488 0.0
O46 O 0.25589 0.05726 0.67261 0.0
Co47 Co 0.18193 0.92124 0.81381 0.0
O48 O 0.30674 0.99147 0.78959 0.0
C49 C 0.21546 0.78364 0.68357 0.0
C50 C 0.02073 0.98118 0.53554 0.0
C51 C 0.32029 0.04797 0.72897 0.0
O52 O 0.1936 0.85353 0.63195 0.0
O53 O 0.18503 0.78861 0.75484 0.0
O54 O 0.06041 0.12219 0.67286 0.0
O55 O 0.08162 0.99205 0.75333 0.0
Co56 Co 0.95305 0.29732 0.86432 0.0
O57 O 0.86685 0.21807 0.93191 0.0
O58 O 0.82041 0.35375 0.86167 0.0
C59 C 0.0109 0.1524 0.80459 0.0
O60 O 0.026 0.3919 0.78537 0.0
Co61 Co 0.1732 0.27831 0.87051 0.0
O62 O 0.15099 0.29154 0.75482 0.0
C63 C 0.07813 0.4377 0.97097 0.0
C64 C 0.79588 0.27504 0.90546 0.0
C65 C 0.10215 0.3728 0.74171 0.0
O66 O 0.9944 0.39723 0.95236 0.0
O67 O 0.16002 0.39973 0.94641 0.0
O68 O 0.93011 0.19677 0.78295 0.0
O69 O 0.05481 0.19424 0.8652 0.0
Co70 Co 0.64313 0.49046 0.34746 0.0
O71 O 0.51338 0.46518 0.39568 0.0
O72 O 0.63524 0.51515 0.4652 0.0
C73 C 0.57611 0.6192 0.2654 0.0
O74 O 0.77965 0.52245 0.30358 0.0
Co75 Co 0.62236 0.41935 0.18794 0.0
O76 O 0.74742 0.49103 0.17539 0.0
C77 C 0.73173 0.29269 0.30004 0.0
C78 C 0.54228 0.49545 0.46293 0.0
C79 C 0.80472 0.52099 0.23006 0.0
O80 O 0.68327 0.33938 0.35509 0.0
O81 O 0.71409 0.31025 0.22724 0.0
O82 O 0.61835 0.63458 0.3315 0.0
O83 O 0.55898 0.5229 0.2533 0.0
Co84 Co 0.53724 0.21275 0.86468 0.0
O85 O 0.62334 0.29331 0.93147 0.0
O86 O 0.6702 0.15704 0.86201 0.0
C87 C 0.47765 0.35623 0.80386 0.0
O88 O 0.4639 0.11676 0.7868 0.0
Co89 Co 0.31636 0.23109 0.87243 0.0
O90 O 0.33751 0.2156 0.75684 0.0
C91 C 0.41383 0.07332 0.9731 0.0
C92 C 0.69447 0.23628 0.90535 0.0
C93 C 0.38654 0.13441 0.7441 0.0
O94 O 0.49722 0.11356 0.95342 0.0
O95 O 0.33153 0.11118 0.94936 0.0
O96 O 0.55909 0.31272 0.78271 0.0
O97 O 0.43472 0.31484 0.86508 0.0
Co98 Co 0.85147 0.00594 0.3535 0.0
O99 O 0.98164 0.02177 0.40084 0.0
O100 O 0.85556 0.97683 0.4702 0.0
C101 C 0.91 0.89342 0.25696 0.0
O102 O 0.71227 0.98422 0.31037 0.0
Co103 Co 0.8642 0.09982 0.18606 0.0
O104 O 0.72783 0.05104 0.187 0.0
C105 C 0.8196 0.22734 0.31631 0.0
C106 C 0.95004 0.9925 0.46799 0.0
C107 C 0.67761 0.00787 0.24128 0.0
O108 O 0.81452 0.15631 0.36857 0.0
O109 O 0.88012 0.21899 0.25917 0.0
O110 O 0.87634 0.86456 0.32458 0.0
O111 O 0.91846 0.99245 0.25269 0.0
loop_
_geom_bond_atom_site_label_1
_geom_bond_atom_site_label_2
_geom_bond_distance
_geom_bond_site_symmetry_2
_ccdc_geom_bond_type
Co0 O1 2.216 . S
Co0 O2 2.091 1_455 S
Co0 O4 2.004 1_455 S
Co0 O10 2.021 . S
Co0 O12 2.137 1_455 S
Co0 O13 2.244 . S
O1 Co0 2.216 . S
O1 C8 1.247 . S
O2 Co0 2.091 1_655 S
O2 C8 1.261 1_655 S
C3 O12 1.247 . S
C3 O13 1.272 1_655 S
O4 Co0 2.004 1_655 S
O4 C9 1.259 . S
Co5 O6 2.061 . S
Co5 O11 2.052 . S
Co5 O13 2.135 . S
O6 Co5 2.061 . S
O6 C9 1.235 1_455 S
C7 O10 1.238 . S
C7 O11 1.241 . S
C8 O1 1.247 . S
C8 O2 1.261 1_455 S
C9 O4 1.259 . S
C9 O6 1.235 1_655 S
O10 Co0 2.021 . S
O10 C7 1.238 . S
O11 Co5 2.052 . S
O11 C7 1.241 . S
O12 Co0 2.137 1_655 S
O12 C3 1.247 . S
O13 Co0 2.244 . S
O13 C3 1.272 1_455 S
O13 Co5 2.135 . S
Co14 O15 2.216 . S
Co14 O16 2.091 . S
Co14 O18 2.004 . S
Co14 O24 2.021 . S
Co14 O26 2.137 . S
Co14 O27 2.244 . S
O15 Co14 2.216 . S
O15 C22 1.247 . S
O16 Co14 2.091 . S
O16 C22 1.261 . S
C17 O26 1.247 . S
C17 O27 1.272 . S
O18 Co14 2.004 . S
O18 C23 1.259 . S
Co19 O20 2.061 . S
Co19 O25 2.052 . S
Co19 O27 2.135 . S
O20 Co19 2.061 . S
O20 C23 1.235 . S
C21 O24 1.238 . S
C21 O25 1.241 . S
C22 O15 1.247 . S
C22 O16 1.261 . S
C23 O18 1.259 . S
C23 O20 1.235 . S
O24 Co14 2.021 . S
O24 C21 1.238 . S
O25 Co19 2.052 . S
O25 C21 1.241 . S
O26 Co14 2.137 . S
O26 C17 1.247 . S
O27 Co14 2.244 . S
O27 C17 1.272 . S
O27 Co19 2.135 . S
Co28 O29 2.216 . S
Co28 O30 2.091 . S
Co28 O32 2.004 . S
Co28 O38 2.021 . S
Co28 O40 2.137 . S
Co28 O41 2.244 . S
O29 Co28 2.216 . S
O29 C36 1.247 . S
O30 Co28 2.091 . S
O30 C36 1.261 . S
C31 O40 1.247 . S
C31 O41 1.272 . S
O32 Co28 2.004 . S
O32 C37 1.259 . S
Co33 O34 2.061 . S
Co33 O39 2.052 . S
Co33 O41 2.135 . S
O34 Co33 2.061 . S
O34 C37 1.235 . S
C35 O38 1.238 . S
C35 O39 1.241 . S
C36 O29 1.247 . S
C36 O30 1.261 . S
C37 O32 1.259 . S
C37 O34 1.235 . S
O38 Co28 2.021 . S
O38 C35 1.238 . S
O39 Co33 2.052 . S
O39 C35 1.241 . S
O40 Co28 2.137 . S
O40 C31 1.247 . S
O41 Co28 2.244 . S
O41 C31 1.272 . S
O41 Co33 2.135 . S
Co42 O43 2.214 1_545 S
Co42 O44 2.092 . S
Co42 O46 2.007 . S
Co42 O52 2.015 1_545 S
Co42 O54 2.142 . S
Co42 O55 2.244 . S
O43 Co42 2.214 1_565 S
O43 C50 1.247 . S
O44 Co42 2.092 . S
O44 C50 1.261 1_545 S
C45 O54 1.247 . S
C45 O55 1.272 . S
O46 Co42 2.007 . S
O46 C51 1.259 . S
Co47 O48 2.061 . S
Co47 O53 2.052 . S
Co47 O55 2.135 1_565 S
O48 Co47 2.061 . S
O48 C51 1.235 1_565 S
C49 O52 1.238 . S
C49 O53 1.241 . S
C50 O43 1.247 . S
C50 O44 1.261 1_565 S
C51 O46 1.259 . S
C51 O48 1.235 1_545 S
O52 Co42 2.015 1_565 S
O52 C49 1.238 . S
O53 Co47 2.052 . S
O53 C49 1.241 . S
O54 Co42 2.142 . S
O54 C45 1.247 . S
O55 Co42 2.244 . S
O55 C45 1.272 . S
O55 Co47 2.135 1_545 S
Co56 O57 2.216 . S
Co56 O58 2.091 . S
Co56 O60 2.004 1_655 S
Co56 O66 2.021 . S
Co56 O68 2.137 . S
Co56 O69 2.244 1_655 S
O57 Co56 2.216 . S
O57 C64 1.247 . S
O58 Co56 2.091 . S
O58 C64 1.261 . S
C59 O68 1.247 1_455 S
C59 O69 1.272 . S
O60 Co56 2.004 1_455 S
O60 C65 1.259 . S
Co61 O62 2.061 . S
Co61 O67 2.052 . S
Co61 O69 2.135 . S
O62 Co61 2.061 . S
O62 C65 1.235 . S
C63 O66 1.238 1_455 S
C63 O67 1.241 . S
C64 O57 1.247 . S
C64 O58 1.261 . S
C65 O60 1.259 . S
C65 O62 1.235 . S
O66 Co56 2.021 . S
O66 C63 1.238 1_655 S
O67 Co61 2.052 . S
O67 C63 1.241 . S
O68 Co56 2.137 . S
O68 C59 1.247 1_655 S
O69 Co56 2.244 1_455 S
O69 C59 1.272 . S
O69 Co61 2.135 . S
Co70 O71 2.216 . S
Co70 O72 2.091 . S
Co70 O74 2.004 . S
Co70 O80 2.021 . S
Co70 O82 2.137 . S
Co70 O83 2.244 . S
O71 Co70 2.216 . S
O71 C78 1.247 . S
O72 Co70 2.091 . S
O72 C78 1.261 . S
C73 O82 1.247 . S
C73 O83 1.272 . S
O74 Co70 2.004 . S
O74 C79 1.259 . S
Co75 O76 2.061 . S
Co75 O81 2.052 . S
Co75 O83 2.135 . S
O76 Co75 2.061 . S
O76 C79 1.235 . S
C77 O80 1.238 . S
C77 O81 1.241 . S
C78 O71 1.247 . S
C78 O72 1.261 . S
C79 O74 1.259 . S
C79 O76 1.235 . S
O80 Co70 2.021 . S
O80 C77 1.238 . S
O81 Co75 2.052 . S
O81 C77 1.241 . S
O82 Co70 2.137 . S
O82 C73 1.247 . S
O83 Co70 2.244 . S
O83 C73 1.272 . S
O83 Co75 2.135 . S
Co84 O85 2.216 . S
Co84 O86 2.091 . S
Co84 O88 2.004 . S
Co84 O94 2.021 . S
Co84 O96 2.137 . S
Co84 O97 2.244 . S
O85 Co84 2.216 . S
O85 C92 1.247 . S
O86 Co84 2.091 . S
O86 C92 1.261 . S
C87 O96 1.247 . S
C87 O97 1.272 . S
O88 Co84 2.004 . S
O88 C93 1.259 . S
Co89 O90 2.061 . S
Co89 O95 2.052 . S
Co89 O97 2.135 . S
O90 Co89 2.061 . S
O90 C93 1.235 . S
C91 O94 1.238 . S
C91 O95 1.241 . S
C92 O85 1.247 . S
C92 O86 1.261 . S
C93 O88 1.259 . S
C93 O90 1.235 . S
O94 Co84 2.021 . S
O94 C91 1.238 . S
O95 Co89 2.052 . S
O95 C91 1.241 . S
O96 Co84 2.137 . S
O96 C87 1.247 . S
O97 Co84 2.244 . S
O97 C87 1.272 . S
O97 Co89 2.135 . S
Co98 O99 2.213 1_565 S
Co98 O100 2.093 . S
Co98 O102 2.009 . S
Co98 O108 2.010 1_565 S
Co98 O110 2.146 . S
Co98 O111 2.244 . S
O99 Co98 2.213 1_545 S
O99 C106 1.247 . S
O100 Co98 2.093 . S
O100 C106 1.261 1_565 S
C101 O110 1.247 . S
C101 O111 1.272 . S
O102 Co98 2.009 . S
O102 C107 1.259 . S
Co103 O104 2.061 . S
Co103 O109 2.052 . S
Co103 O111 2.135 1_545 S
O104 Co103 2.061 . S
O104 C107 1.235 1_545 S
C105 O108 1.238 . S
C105 O109 1.241 . S
C106 O99 1.247 . S
C106 O100 1.261 1_545 S
C107 O102 1.259 . S
C107 O104 1.235 1_565 S
O108 Co98 2.010 1_545 S
O108 C105 1.238 . S
O109 Co103 2.052 . S
O109 C105 1.241 . S
O110 Co98 2.146 . S
O110 C101 1.247 . S
O111 Co98 2.244 . S
O111 C101 1.272 . S
O111 Co103 2.135 1_565 S
C63 C8 1.844 1_556 S
C22 C78 1.790 . S
C36 C91 1.844 1_564 S
C106 C50 1.790 1_645 S
C7 C35 1.777 . S
C21 C49 1.729 . S
C92 C64 1.615 . S
C77 C105 1.505 . S
C79 C3 1.235 . S
C17 C87 1.277 . S
C31 C107 1.235 . S
C59 C45 1.277 . S
C65 C23 0.946 . S
C73 C37 1.084 . S
C93 C51 0.946 . S
C9 C101 1.084 . S
