# Generated by pormake.
# Topology sxc, (6)-cn, num edge types: 1
# Building blocks:
#     Node 0, Type 0, BuildingBlock: BETDEL_clean_sbu_0, # of connection points: 6
#     Node 1, Type 0, BuildingBlock: BETDEL_clean_sbu_0, # of connection points: 6
#     Node 2, Type 0, BuildingBlock: BETDEL_clean_sbu_0, # of connection points: 6
#     Edge 3, Type (0, 0), BuildingBlock: EYOCIG_clean_linker_4, # of connection points: 2
#     Edge 4, Type (0, 0), BuildingBlock: EYOCIG_clean_linker_4, # of connection points: 2
#     Edge 5, Type (0, 0), BuildingBlock: EYOCIG_clean_linker_4, # of connection points: 2
#     Edge 6, Type (0, 0), BuildingBlock: EYOCIG_clean_linker_4, # of connection points: 2
#     Edge 7, Type (0, 0), BuildingBlock: EYOCIG_clean_linker_4, # of connection points: 2
#     Edge 8, Type (0, 0), BuildingBlock: EYOCIG_clean_linker_4, # of connection points: 2
#     Edge 9, Type (0, 0), BuildingBlock: EYOCIG_clean_linker_4, # of connection points: 2
#     Edge 10, Type (0, 0), BuildingBlock: EYOCIG_clean_linker_4, # of connection points: 2
#     Edge 11, Type (0, 0), BuildingBlock: EYOCIG_clean_linker_4, # of connection points: 2
# Relax obj value: 0.071
# Max RMSD: 0.059
# Mean RMSD: 0.044
data_MOF--net-sxc--node1-BETDEL_clean_sbu_0--edge1-EYOCIG_clean_linker_4
_symmetry_space_group_name_H-M    P1
_symmetry_Int_Tables_number       1
_symmetry_cell_setting            triclinic
loop_
_symmetry_equiv_pos_as_xyz
'x, y, z'
_cell_length_a     13.132134
_cell_length_b     12.339967
_cell_length_c     34.866968
_cell_angle_alpha  91.188725
_cell_angle_beta   94.280417
_cell_angle_gamma 110.80326
loop_
_atom_site_label
_atom_site_type_symbol
_atom_site_fract_x
_atom_site_fract_y
_atom_site_fract_z
_atom_type_partial_charge
Dy0 Dy 0.19374 0.09047 0.01623 0.0
C1 C 0.74438 0.79594 0.01491 0.0
C2 C 0.38268 0.26111 0.00748 0.0
Dy3 Dy 0.93077 0.96788 0.00346 0.0
O4 O 0.36428 0.19872 0.03745 0.0
O5 O 0.30213 0.22374 0.98087 0.0
O6 O 0.20794 0.09388 0.08125 0.0
O7 O 0.057 0.03439 0.04962 0.0
C8 C 0.10322 0.05159 0.08323 0.0
C9 C 1.02016 1.00594 0.93568 0.0
O10 O 0.93926 0.15299 0.01324 0.0
O11 O 0.13005 0.23806 0.01294 0.0
O12 O 0.75935 0.85628 0.98441 0.0
O13 O 0.8269 0.83627 0.04065 0.0
O14 O 0.91564 0.96347 0.93845 0.0
O15 O 0.0678 0.02573 0.96929 0.0
O16 O 0.18522 0.90526 0.00717 0.0
O17 O 0.99446 0.8204 0.00715 0.0
C18 C 1.03174 0.24545 0.01332 0.0
C19 C 0.09276 0.81294 0.0071 0.0
Dy20 Dy 0.95058 0.99518 0.33522 0.0
C21 C 0.33179 0.07394 0.3309 0.0
C22 C 0.76154 0.98481 0.35537 0.0
Dy23 Dy 0.14596 0.06655 0.3537 0.0
O24 O 0.77204 0.93289 0.32395 0.0
O25 O 0.85163 0.04119 0.37535 0.0
O26 O 0.90584 0.96767 0.27347 0.0
O27 O 0.07752 0.05099 0.29427 0.0
C28 C 1.00638 0.01559 0.26563 0.0
C29 C 0.08847 0.04934 0.4234 0.0
O30 O 0.15632 0.24863 0.34773 0.0
O31 O 0.9724 0.18244 0.33379 0.0
O32 O 0.32495 0.12267 0.36356 0.0
O33 O 0.24004 0.02321 0.31118 0.0
O34 O 0.18964 0.09407 0.41575 0.0
O35 O 1.01829 0.01479 0.39453 0.0
O36 O 0.94027 0.81345 0.34192 0.0
O37 O 0.12407 0.87933 0.35555 0.0
C38 C 0.06584 0.26854 0.34018 0.0
C39 C 1.03054 0.79335 0.34947 0.0
Dy40 Dy 0.99275 0.91737 0.67423 0.0
C41 C 0.28028 0.39536 0.67131 0.0
C42 C 0.8173 0.72173 0.68289 0.0
Dy43 Dy 0.10762 0.19943 0.68289 0.0
O44 O 0.87587 0.7395 0.65356 0.0
O45 O 0.86331 0.80381 0.70947 0.0
O46 O 0.98671 0.90382 0.60929 0.0
O47 O 1.03073 0.06301 0.6391 0.0
C48 C 1.01957 0.01514 0.60598 0.0
C49 C 0.0844 0.10255 0.75195 0.0
O50 O 0.92221 0.18531 0.6758 0.0
O51 O 0.84641 0.98268 0.67678 0.0
O52 O 0.22402 0.37971 0.70124 0.0
O53 O 0.2334 0.31045 0.64573 0.0
O54 O 0.11948 0.21377 0.74808 0.0
O55 O 0.06407 0.05348 0.71866 0.0
O56 O 0.17856 0.93251 0.6812 0.0
O57 O 0.25413 0.13494 0.67992 0.0
C58 C 0.83295 0.08568 0.67633 0.0
C59 C 0.26772 0.03211 0.68046 0.0
C60 C 0.04845 0.46744 0.01118 0.0
C61 C 1.03037 0.3633 0.01225 0.0
C62 C 0.07616 0.591 0.00938 0.0
C63 C 0.0941 0.6951 0.00828 0.0
C64 C 0.49833 0.02563 0.33211 0.0
C65 C 0.41709 0.04024 0.32503 0.0
C66 C 0.58841 0.01977 0.35072 0.0
C67 C 0.67203 1.01234 0.3595 0.0
C68 C 0.6056 0.59213 0.67773 0.0
C69 C 0.7021 0.65123 0.6801 0.0
C70 C 0.4913 0.52699 0.67442 0.0
C71 C 0.39515 0.46679 0.67283 0.0
C72 C 0.61149 0.06897 0.6778 0.0
C73 C 0.71304 0.08317 0.67709 0.0
C74 C 0.48927 0.04911 0.67892 0.0
C75 C 0.38769 0.0348 0.67967 0.0
C76 C 0.60208 0.5847 0.01345 0.0
C77 C 0.66771 0.68116 0.01459 0.0
C78 C 0.52841 0.47059 0.01057 0.0
C79 C 0.46146 0.37483 0.00891 0.0
C80 C 0.05541 0.47722 0.34378 0.0
C81 C 0.06522 0.38402 0.34248 0.0
C82 C 0.03999 0.58421 0.34632 0.0
C83 C 1.03066 0.67765 0.34743 0.0
C84 C 0.04476 0.02269 0.19311 0.0
C85 C 0.03553 0.02353 0.22704 0.0
C86 C 0.04482 0.0197 0.15284 0.0
C87 C 0.05548 0.02698 0.11897 0.0
C88 C 0.04233 0.06166 0.4949 0.0
C89 C 0.05658 0.05272 0.46151 0.0
C90 C 0.03896 0.07348 0.53502 0.0
C91 C 0.03583 0.06604 0.56934 0.0
C92 C 0.07209 0.03836 0.82364 0.0
C93 C 0.07199 0.0523 0.78925 0.0
C94 C 0.07554 0.03541 0.86462 0.0
C95 C 0.06591 0.02884 0.89895 0.0
loop_
_geom_bond_atom_site_label_1
_geom_bond_atom_site_label_2
_geom_bond_distance
_geom_bond_site_symmetry_2
_ccdc_geom_bond_type
Dy0 O4 2.398 . S
Dy0 O5 2.491 1_554 S
Dy0 O6 2.403 . S
Dy0 O7 2.664 1_545 S
Dy0 O11 2.326 . S
Dy0 O15 2.310 1_554 S
Dy0 O16 2.351 1_545 S
C1 O12 1.185 1_554 S
C1 O13 1.355 . S
C2 O4 1.185 . S
C2 O5 1.355 1_554 S
Dy3 O7 2.310 1_655 S
Dy3 O10 2.351 1_565 S
Dy3 O12 2.398 1_554 S
Dy3 O13 2.491 . S
Dy3 O14 2.403 1_554 S
Dy3 O15 2.664 1_664 S
Dy3 O17 2.326 1_554 S
O4 Dy0 2.398 . S
O4 C2 1.185 . S
O5 Dy0 2.491 1_556 S
O5 C2 1.355 1_556 S
O6 Dy0 2.403 . S
O6 C8 1.254 . S
O7 Dy0 2.664 1_565 S
O7 Dy3 2.310 1_455 S
O7 C8 1.268 1_565 S
C8 O6 1.254 . S
C8 O7 1.268 1_545 S
C9 O14 1.252 1_445 S
C9 O15 1.269 . S
O10 Dy3 2.351 1_545 S
O10 C18 1.249 1_655 S
O11 Dy0 2.326 . S
O11 C18 1.267 . S
O12 C1 1.185 1_556 S
O12 Dy3 2.398 1_556 S
O13 C1 1.355 . S
O13 Dy3 2.491 . S
O14 Dy3 2.403 1_556 S
O14 C9 1.252 1_665 S
O15 Dy0 2.310 1_556 S
O15 Dy3 2.664 1_446 S
O15 C9 1.269 . S
O16 Dy0 2.351 1_565 S
O16 C19 1.249 . S
O17 Dy3 2.326 1_556 S
O17 C19 1.267 1_656 S
C18 O10 1.249 1_455 S
C18 O11 1.267 . S
C19 O16 1.249 . S
C19 O17 1.267 1_454 S
Dy20 O24 2.398 . S
Dy20 O25 2.491 1_565 S
Dy20 O26 2.403 . S
Dy20 O27 2.664 1_665 S
Dy20 O31 2.326 1_565 S
Dy20 O35 2.310 1_565 S
Dy20 O36 2.351 . S
C21 O32 1.185 . S
C21 O33 1.355 . S
C22 O24 1.185 1_545 S
C22 O25 1.355 . S
Dy23 O27 2.310 . S
Dy23 O30 2.351 . S
Dy23 O32 2.398 . S
Dy23 O33 2.494 . S
Dy23 O34 2.403 . S
Dy23 O35 2.664 1_455 S
Dy23 O37 2.326 1_545 S
O24 Dy20 2.398 . S
O24 C22 1.185 1_565 S
O25 Dy20 2.491 1_545 S
O25 C22 1.355 . S
O26 Dy20 2.403 . S
O26 C28 1.254 . S
O27 Dy20 2.664 1_445 S
O27 Dy23 2.310 . S
O27 C28 1.268 1_445 S
C28 O26 1.254 . S
C28 O27 1.268 1_665 S
C29 O34 1.254 . S
C29 O35 1.268 1_455 S
O30 Dy23 2.351 . S
O30 C38 1.249 . S
O31 Dy20 2.326 1_545 S
O31 C38 1.267 1_655 S
O32 C21 1.185 . S
O32 Dy23 2.398 . S
O33 C21 1.355 . S
O33 Dy23 2.494 . S
O34 Dy23 2.403 . S
O34 C29 1.254 . S
O35 Dy20 2.310 1_545 S
O35 Dy23 2.664 1_655 S
O35 C29 1.268 1_655 S
O36 Dy20 2.351 . S
O36 C39 1.249 1_655 S
O37 Dy23 2.326 1_565 S
O37 C39 1.267 . S
C38 O30 1.249 . S
C38 O31 1.267 1_455 S
C39 O36 1.249 1_455 S
C39 O37 1.267 . S
Dy40 O44 2.398 . S
Dy40 O45 2.491 . S
Dy40 O46 2.403 . S
Dy40 O47 2.664 1_665 S
Dy40 O51 2.326 . S
Dy40 O55 2.310 1_565 S
Dy40 O56 2.351 1_655 S
C41 O52 1.185 . S
C41 O53 1.355 . S
C42 O44 1.185 . S
C42 O45 1.355 . S
Dy43 O47 2.310 . S
Dy43 O50 2.351 1_455 S
Dy43 O52 2.398 . S
Dy43 O53 2.491 . S
Dy43 O54 2.403 . S
Dy43 O55 2.664 1_455 S
Dy43 O57 2.326 . S
O44 Dy40 2.398 . S
O44 C42 1.185 . S
O45 Dy40 2.491 . S
O45 C42 1.355 . S
O46 Dy40 2.403 . S
O46 C48 1.254 1_665 S
O47 Dy40 2.664 1_445 S
O47 Dy43 2.310 . S
O47 C48 1.268 . S
C48 O46 1.254 1_445 S
C48 O47 1.268 . S
C49 O54 1.254 . S
C49 O55 1.268 1_455 S
O50 Dy43 2.351 1_655 S
O50 C58 1.249 . S
O51 Dy40 2.326 . S
O51 C58 1.267 1_565 S
O52 C41 1.185 . S
O52 Dy43 2.398 . S
O53 C41 1.355 . S
O53 Dy43 2.491 . S
O54 Dy43 2.403 . S
O54 C49 1.254 . S
O55 Dy40 2.310 1_545 S
O55 Dy43 2.664 1_655 S
O55 C49 1.268 1_655 S
O56 Dy40 2.351 1_455 S
O56 C59 1.249 1_565 S
O57 Dy43 2.326 . S
O57 C59 1.267 . S
C58 O50 1.249 . S
C58 O51 1.267 1_545 S
C59 O56 1.249 1_545 S
C59 O57 1.267 . S
C60 C61 1.170 . S
C60 C62 1.380 . S
C61 C60 1.170 . S
C62 C60 1.380 . S
C62 C63 1.170 . S
C63 C62 1.170 . S
C64 C65 1.171 1_545 S
C64 C66 1.380 . S
C65 C64 1.171 1_565 S
C66 C64 1.380 . S
C66 C67 1.170 . S
C67 C66 1.170 . S
C68 C69 1.170 . S
C68 C70 1.380 . S
C69 C68 1.170 . S
C70 C68 1.380 . S
C70 C71 1.170 . S
C71 C70 1.170 . S
C72 C73 1.170 . S
C72 C74 1.380 . S
C73 C72 1.170 . S
C74 C72 1.380 . S
C74 C75 1.170 . S
C75 C74 1.170 . S
C76 C77 1.170 . S
C76 C78 1.380 . S
C77 C76 1.170 . S
C78 C76 1.380 . S
C78 C79 1.170 . S
C79 C78 1.170 . S
C80 C81 1.170 . S
C80 C82 1.380 . S
C81 C80 1.170 . S
C82 C80 1.380 . S
C82 C83 1.170 . S
C83 C82 1.170 . S
C84 C85 1.170 . S
C84 C86 1.380 . S
C85 C84 1.170 . S
C86 C84 1.380 . S
C86 C87 1.170 . S
C87 C86 1.170 . S
C88 C89 1.170 . S
C88 C90 1.380 . S
C89 C88 1.170 . S
C90 C88 1.380 . S
C90 C91 1.170 . S
C91 C90 1.170 . S
C92 C93 1.170 . S
C92 C94 1.380 . S
C93 C92 1.170 . S
C94 C92 1.380 . S
C94 C95 1.170 . S
C95 C94 1.170 . S
C61 C18 1.871 . S
C63 C19 1.861 . S
C65 C21 0.726 1_565 S
C67 C22 0.667 . S
C69 C42 1.190 . S
C71 C41 1.195 . S
C73 C58 2.440 . S
C75 C59 2.431 . S
C77 C1 1.162 . S
C79 C2 1.136 . S
C81 C38 1.881 . S
C83 C39 1.862 . S
C85 C28 1.461 1_445 S
C87 C8 1.478 . S
C89 C29 1.472 . S
C91 C48 1.438 . S
C93 C49 1.453 . S
C95 C9 1.475 . S
