# Generated by pormake.
# Topology bnn, (5)-cn, num edge types: 1
# Building blocks:
#     Node 0, Type 0, BuildingBlock: BEQFEK_clean_sbu_0, # of connection points: 5
#     Node 1, Type 0, BuildingBlock: BEQFEK_clean_sbu_0, # of connection points: 5
#     Edge 2, Type (0, 0), BuildingBlock: UVAHIK_clean_linker_0, # of connection points: 2
#     Edge 3, Type (0, 0), BuildingBlock: UVAHIK_clean_linker_0, # of connection points: 2
#     Edge 4, Type (0, 0), BuildingBlock: UVAHIK_clean_linker_0, # of connection points: 2
#     Edge 5, Type (0, 0), BuildingBlock: UVAHIK_clean_linker_0, # of connection points: 2
#     Edge 6, Type (0, 0), BuildingBlock: UVAHIK_clean_linker_0, # of connection points: 2
# Relax obj value: 0.110
# Max RMSD: 0.191
# Mean RMSD: 0.179
data_MOF--net-bnn--node1-BEQFEK_clean_sbu_0--edge1-UVAHIK_clean_linker_0
_symmetry_space_group_name_H-M    P1
_symmetry_Int_Tables_number       1
_symmetry_cell_setting            triclinic
loop_
_symmetry_equiv_pos_as_xyz
'x, y, z'
_cell_length_a     32.677213
_cell_length_b     34.544139
_cell_length_c     23.995322
_cell_angle_alpha  91.868351
_cell_angle_beta   85.531522
_cell_angle_gamma 111.4072
loop_
_atom_site_label
_atom_site_type_symbol
_atom_site_fract_x
_atom_site_fract_y
_atom_site_fract_z
_atom_type_partial_charge
Co0 Co 0.337 0.6868 0.08126 0.0
Co1 Co 0.33916 0.67893 0.95058 0.0
C2 C 0.38228 0.76065 0.00568 0.0
O3 O 0.3718 0.7436 0.05361 0.0
O4 O 0.37089 0.73972 0.96101 0.0
C5 C 0.34174 0.72074 0.19366 0.0
O6 O 0.36838 0.75551 0.1701 0.0
C7 C 0.3255 0.68824 0.83212 0.0
C8 C 0.32575 0.62823 0.79744 0.0
C9 C 0.32119 0.6649 0.78316 0.0
N10 N 0.3321 0.66615 0.87332 0.0
N11 N 0.33255 0.6305 0.85216 0.0
C12 C 0.32076 0.7295 0.8408 0.0
H13 H 0.30848 0.73247 0.88458 0.0
H14 H 0.29801 0.73351 0.81142 0.0
H15 H 0.35354 0.7545 0.83308 0.0
C16 C 0.24095 0.64821 0.06858 0.0
N17 N 0.2829 0.66457 0.0468 0.0
N18 N 0.28357 0.66033 0.99209 0.0
C19 C 0.24205 0.64043 0.97729 0.0
C20 C 0.21352 0.63213 0.02533 0.0
C21 C 0.22772 0.64845 0.12969 0.0
H22 H 0.24471 0.67985 0.14729 0.0
H23 H 0.19162 0.64003 0.13757 0.0
H24 H 0.2382 0.62613 0.15144 0.0
O25 O 0.37165 0.6504 0.06643 0.0
O26 O 0.37508 0.64778 0.97384 0.0
H27 H 0.19597 0.60493 0.91695 0.0
H28 H 0.23789 0.65289 0.89164 0.0
C29 C 0.23086 0.62565 0.91905 0.0
H30 H 0.25178 0.60818 0.90295 0.0
H31 H 0.33692 0.60743 0.87532 0.0
O32 O 0.32524 0.68862 0.1635 0.0
C33 C 0.3848 0.638 0.02033 0.0
Co34 Co 0.67108 0.31837 0.07719 0.0
Co35 Co 0.68232 0.32152 0.94597 0.0
C36 C 0.62854 0.36389 0.01067 0.0
O37 O 0.63701 0.35235 0.05696 0.0
O38 O 0.64351 0.35382 0.96398 0.0
C39 C 0.62879 0.30709 0.19019 0.0
O40 O 0.59477 0.31033 0.16775 0.0
C41 C 0.66231 0.31197 0.82687 0.0
C42 C 0.72127 0.30166 0.78855 0.0
C43 C 0.68141 0.30374 0.77642 0.0
N44 N 0.68961 0.31434 0.8671 0.0
N45 N 0.725 0.30866 0.84372 0.0
C46 C 0.61775 0.31471 0.83748 0.0
H47 H 0.60345 0.30273 0.87977 0.0
H48 H 0.59534 0.297 0.80542 0.0
H49 H 0.62112 0.3478 0.83567 0.0
C50 C 0.63287 0.22778 0.05339 0.0
N51 N 0.65315 0.26755 0.03676 0.0
N52 N 0.65854 0.26868 0.98182 0.0
C53 C 0.64229 0.22949 0.96173 0.0
C54 C 0.62525 0.20222 0.00634 0.0
C55 C 0.61737 0.21544 0.11281 0.0
H56 H 0.59594 0.23243 0.12894 0.0
H57 H 0.59839 0.18167 0.11727 0.0
H58 H 0.64619 0.22458 0.13862 0.0
O59 O 0.73496 0.35027 0.06197 0.0
O60 O 0.74189 0.35438 0.96951 0.0
H61 H 0.63404 0.18435 0.89429 0.0
H62 H 0.62223 0.23001 0.87912 0.0
C63 C 0.64409 0.21836 0.90099 0.0
H64 H 0.67819 0.23338 0.88246 0.0
H65 H 0.75125 0.30857 0.86573 0.0
O66 O 0.66268 0.30867 0.15905 0.0
C67 C 0.75843 0.36304 0.01667 0.0
C68 C 0.42603 0.59747 0.96947 0.0
C69 C 0.41101 0.61087 0.02031 0.0
C70 C 0.44972 0.57102 0.96898 0.0
C71 C 0.47006 0.49456 0.05521 0.0
H72 H 0.57104 0.51264 0.94919 0.0
C73 C 0.58608 0.40289 0.06266 0.0
C74 C 0.60175 0.39051 0.01151 0.0
C75 C 0.56224 0.42926 0.06379 0.0
C76 C 0.54259 0.50685 0.97857 0.0
H77 H 0.4095 0.60709 0.11059 0.0
H78 H 0.45117 0.56104 0.10964 0.0
H79 H 0.53153 0.56049 0.95181 0.0
H80 H 0.60385 0.39565 0.92134 0.0
H81 H 0.56181 0.44132 0.92337 0.0
H82 H 0.48105 0.44085 0.08189 0.0
C83 C 0.44416 0.57076 0.07017 0.0
C84 C 0.52 0.53433 0.98015 0.0
C85 C 0.42052 0.59735 0.07069 0.0
C86 C 0.59246 0.40468 0.96148 0.0
C87 C 0.56859 0.43108 0.96264 0.0
C88 C 0.49262 0.46705 0.0536 0.0
C89 C 0.45892 0.55723 0.01928 0.0
C90 C 0.48344 0.52846 0.01843 0.0
C91 C 0.55344 0.44388 0.01382 0.0
C92 C 0.52913 0.47285 0.01521 0.0
H93 H 0.41923 0.60713 0.92982 0.0
H94 H 0.46012 0.56075 0.92908 0.0
H95 H 0.44161 0.48883 0.0846 0.0
H96 H 0.59265 0.39265 0.10205 0.0
H97 H 0.55151 0.43889 0.10393 0.0
C98 C 0.82832 0.39049 0.06616 0.0
C99 C 0.80539 0.38989 0.0188 0.0
C100 C 0.87245 0.41669 0.06833 0.0
C101 C 0.96985 0.48187 0.97731 0.0
H102 H 0.01323 0.53122 0.11876 0.0
C103 C 0.13757 0.61563 0.99441 0.0
C104 C 0.16568 0.60735 0.02967 0.0
C105 C 0.09313 0.58998 0.99504 0.0
C106 C 0.00146 0.51751 0.07907 0.0
H107 H 0.81051 0.41672 0.93693 0.0
H108 H 0.88648 0.46353 0.94154 0.0
H109 H 0.93659 0.4844 0.11535 0.0
H110 H 0.1693 0.56668 0.09442 0.0
H111 H 0.09102 0.52273 0.09713 0.0
H112 H 0.03458 0.51631 0.94102 0.0
C113 C 0.8712 0.44283 0.97635 0.0
C114 C 0.95766 0.49042 0.07705 0.0
C115 C 0.82742 0.41611 0.97378 0.0
C116 C 0.1482 0.57402 0.06725 0.0
C117 C 0.10356 0.54882 0.06867 0.0
C118 C 0.01332 0.50953 0.97923 0.0
C119 C 0.89444 0.44348 0.02359 0.0
C120 C 0.94123 0.47214 0.0261 0.0
C121 C 0.07586 0.55614 0.03183 0.0
C122 C 0.02951 0.52752 0.03009 0.0
H123 H 0.81227 0.37043 0.10139 0.0
H124 H 0.88933 0.41561 0.10497 0.0
H125 H 0.95894 0.46777 0.93752 0.0
H126 H 0.15018 0.64154 0.96565 0.0
H127 H 0.07225 0.59645 0.96664 0.0
C128 C 0.43489 0.82542 0.04625 0.0
C129 C 0.4086 0.80567 0.0025 0.0
C130 C 0.45927 0.86802 0.04451 0.0
C131 C 0.50061 0.95945 0.94894 0.0
H132 H 0.51545 0.02038 0.08927 0.0
C133 C 0.56703 0.13963 0.96836 0.0
C134 C 0.60144 0.15668 0.00393 0.0
C135 C 0.54438 0.09666 0.96615 0.0
C136 C 0.51175 0.00366 0.04986 0.0
H137 H 0.38722 0.815 0.92248 0.0
H138 H 0.42829 0.8899 0.92039 0.0
H139 H 0.47304 0.94601 0.08905 0.0
H140 H 0.63955 0.14245 0.06458 0.0
H141 H 0.59869 0.0672 0.0624 0.0
H142 H 0.53813 0.01803 0.90994 0.0
C143 C 0.43118 0.87232 0.95542 0.0
C144 C 0.48768 0.96095 0.04961 0.0
C145 C 0.40739 0.8294 0.95668 0.0
C146 C 0.61275 0.13005 0.03737 0.0
C147 C 0.58956 0.08714 0.03598 0.0
C148 C 0.52403 0.0024 0.94916 0.0
C149 C 0.45731 0.89226 -0.0005 0.0
C150 C 0.48209 0.9381 -0.00078 0.0
C151 C 0.55521 0.07009 0.0003 0.0
C152 C 0.53009 0.02476 -0.00031 0.0
H153 H 0.43702 0.80784 0.08177 0.0
H154 H 0.47988 0.88182 0.07849 0.0
H155 H 0.49769 0.94299 0.90941 0.0
H156 H 0.55731 0.15959 0.9427 0.0
H157 H 0.51774 0.08425 0.93871 0.0
C158 C 0.33675 0.71462 0.7033 0.0
C159 C 0.3139 0.67506 0.72637 0.0
C160 C 0.33414 0.72183 0.64682 0.0
C161 C 0.31213 0.66339 0.51452 0.0
H162 H 0.31306 0.76659 0.4545 0.0
C163 C 0.3026 0.68148 0.27988 0.0
C164 C 0.33257 0.71821 0.25507 0.0
C165 C 0.29598 0.67796 0.33795 0.0
C166 C 0.31304 0.73769 0.47072 0.0
H167 H 0.26876 0.61272 0.70972 0.0
H168 H 0.26327 0.62545 0.61188 0.0
H169 H 0.30847 0.75753 0.55585 0.0
H170 H 0.37791 0.78062 0.27179 0.0
H171 H 0.36671 0.77422 0.37335 0.0
H172 H 0.31724 0.64361 0.4299 0.0
C173 C 0.28403 0.65069 0.63671 0.0
C174 C 0.31043 0.73251 0.5287 0.0
C175 C 0.28696 0.64344 0.69281 0.0
C176 C 0.35467 0.75185 0.28961 0.0
C177 C 0.34806 0.7483 0.34781 0.0
C178 C 0.31463 0.66851 0.45683 0.0
C179 C 0.30859 0.68959 0.61258 0.0
C180 C 0.30996 0.69526 0.55123 0.0
C181 C 0.31922 0.71104 0.37259 0.0
C182 C 0.31517 0.70568 0.43419 0.0
H183 H 0.35847 0.73933 0.72792 0.0
H184 H 0.35383 0.75202 0.62942 0.0
H185 H 0.31297 0.63469 0.53031 0.0
H186 H 0.28465 0.65513 0.25448 0.0
H187 H 0.27293 0.6491 0.35576 0.0
C188 C 0.58913 0.29252 0.28566 0.0
C189 C 0.62839 0.30234 0.25133 0.0
C190 C 0.58933 0.28845 0.34352 0.0
C191 C 0.65896 0.27462 0.45151 0.0
H192 H 0.58476 0.31445 0.55317 0.0
C193 C 0.66601 0.26359 0.68775 0.0
C194 C 0.66418 0.29731 0.72053 0.0
C195 C 0.65461 0.25955 0.63244 0.0
C196 C 0.60597 0.30346 0.52543 0.0
H197 H 0.69872 0.31621 0.25086 0.0
H198 H 0.69942 0.31061 0.35117 0.0
H199 H 0.58023 0.31772 0.4527 0.0
H200 H 0.64843 0.35297 0.72215 0.0
H201 H 0.63042 0.34725 0.62457 0.0
H202 H 0.68682 0.2628 0.52339 0.0
C203 C 0.66811 0.30467 0.33371 0.0
C204 C 0.60289 0.30476 0.46767 0.0
C205 C 0.6678 0.3082 0.27602 0.0
C206 C 0.64958 0.32642 0.6977 0.0
C207 C 0.63912 0.32296 0.6418 0.0
C208 C 0.6625 0.27389 0.50897 0.0
C209 C 0.62889 0.29453 0.36832 0.0
C210 C 0.62979 0.29083 0.42992 0.0
C211 C 0.64241 0.2899 0.60802 0.0
C212 C 0.63632 0.28856 0.54687 0.0
H213 H 0.55818 0.28765 0.26781 0.0
H214 H 0.55841 0.28011 0.36867 0.0
H215 H 0.67958 0.26277 0.42396 0.0
H216 H 0.67685 0.24056 0.70477 0.0
H217 H 0.65629 0.23298 0.60854 0.0
loop_
_geom_bond_atom_site_label_1
_geom_bond_atom_site_label_2
_geom_bond_distance
_geom_bond_site_symmetry_2
_ccdc_geom_bond_type
Co0 O3 1.970 . S
Co0 N17 1.989 . S
Co0 O25 1.967 . S
Co0 O32 1.920 . S
Co1 O4 1.966 . S
Co1 N10 2.022 . S
Co1 N18 1.993 . S
Co1 O26 1.941 . S
C2 O3 1.258 . S
C2 O4 1.263 1_554 S
O3 Co0 1.970 . S
O3 C2 1.258 . S
O4 Co1 1.966 . S
O4 C2 1.263 1_556 S
C5 O6 1.235 . S
C5 O32 1.289 . S
O6 C5 1.235 . S
C7 C9 1.400 . S
C7 N10 1.351 . S
C7 C12 1.501 . S
C8 C9 1.387 . S
C8 N11 1.341 . S
C9 C7 1.400 . S
C9 C8 1.387 . S
N10 Co1 2.022 . S
N10 C7 1.351 . S
N10 N11 1.365 . S
N11 C8 1.341 . S
N11 N10 1.365 . S
N11 H31 0.862 . S
C12 C7 1.501 . S
C12 H13 0.961 . S
C12 H14 0.961 . S
C12 H15 0.960 . S
H13 C12 0.961 . S
H14 C12 0.961 . S
H15 C12 0.960 . S
C16 N17 1.342 . S
C16 C20 1.401 . S
C16 C21 1.499 . S
N17 Co0 1.989 . S
N17 C16 1.342 . S
N17 N18 1.388 1_554 S
N18 Co1 1.993 . S
N18 N17 1.388 1_556 S
N18 C19 1.346 . S
C19 N18 1.346 . S
C19 C20 1.396 1_556 S
C19 C29 1.510 . S
C20 C16 1.401 . S
C20 C19 1.396 1_554 S
C21 C16 1.499 . S
C21 H22 0.959 . S
C21 H23 0.960 . S
C21 H24 0.961 . S
H22 C21 0.959 . S
H23 C21 0.960 . S
H24 C21 0.961 . S
O25 Co0 1.967 . S
O25 C33 1.258 . S
O26 Co1 1.941 . S
O26 C33 1.266 1_556 S
H27 C29 0.959 . S
H28 C29 0.961 . S
C29 C19 1.510 . S
C29 H27 0.959 . S
C29 H28 0.961 . S
C29 H30 0.960 . S
H30 C29 0.960 . S
H31 N11 0.862 . S
O32 Co0 1.920 . S
O32 C5 1.289 . S
C33 O25 1.258 . S
C33 O26 1.266 1_554 S
Co34 O37 1.970 . S
Co34 N51 1.989 . S
Co34 O59 1.967 . S
Co34 O66 1.920 . S
Co35 O38 1.966 . S
Co35 N44 2.022 . S
Co35 N52 1.993 . S
Co35 O60 1.941 . S
C36 O37 1.258 . S
C36 O38 1.263 1_554 S
O37 Co34 1.970 . S
O37 C36 1.258 . S
O38 Co35 1.966 . S
O38 C36 1.263 1_556 S
C39 O40 1.235 . S
C39 O66 1.289 . S
O40 C39 1.235 . S
C41 C43 1.400 . S
C41 N44 1.351 . S
C41 C46 1.501 . S
C42 C43 1.387 . S
C42 N45 1.341 . S
C43 C41 1.400 . S
C43 C42 1.387 . S
N44 Co35 2.022 . S
N44 C41 1.351 . S
N44 N45 1.365 . S
N45 C42 1.341 . S
N45 N44 1.365 . S
N45 H65 0.862 . S
C46 C41 1.501 . S
C46 H47 0.961 . S
C46 H48 0.961 . S
C46 H49 0.960 . S
H47 C46 0.961 . S
H48 C46 0.961 . S
H49 C46 0.960 . S
C50 N51 1.342 . S
C50 C54 1.401 . S
C50 C55 1.499 . S
N51 Co34 1.989 . S
N51 C50 1.342 . S
N51 N52 1.388 1_554 S
N52 Co35 1.993 . S
N52 N51 1.388 1_556 S
N52 C53 1.346 . S
C53 N52 1.346 . S
C53 C54 1.396 1_556 S
C53 C63 1.510 . S
C54 C50 1.401 . S
C54 C53 1.396 1_554 S
C55 C50 1.499 . S
C55 H56 0.959 . S
C55 H57 0.960 . S
C55 H58 0.961 . S
H56 C55 0.959 . S
H57 C55 0.960 . S
H58 C55 0.961 . S
O59 Co34 1.967 . S
O59 C67 1.258 . S
O60 Co35 1.941 . S
O60 C67 1.266 1_556 S
H61 C63 0.959 . S
H62 C63 0.961 . S
C63 C53 1.510 . S
C63 H61 0.959 . S
C63 H62 0.961 . S
C63 H64 0.960 . S
H64 C63 0.960 . S
H65 N45 0.862 . S
O66 Co34 1.920 . S
O66 C39 1.289 . S
C67 O59 1.258 . S
C67 O60 1.266 1_554 S
C68 C69 1.349 1_556 S
C68 C70 1.327 . S
C68 H93 0.950 . S
C69 C68 1.349 1_554 S
C69 C85 1.349 . S
C70 C68 1.327 . S
C70 C89 1.429 1_556 S
C70 H94 0.950 . S
C71 C88 1.574 . S
C71 C90 1.368 . S
C71 H95 0.949 . S
H72 C76 0.949 . S
C73 C74 1.349 . S
C73 C75 1.327 . S
C73 H96 0.950 . S
C74 C73 1.349 . S
C74 C86 1.349 1_554 S
C75 C73 1.327 . S
C75 C91 1.429 . S
C75 H97 0.950 . S
C76 H72 0.949 . S
C76 C84 1.574 . S
C76 C92 1.368 1_556 S
H77 C85 0.950 . S
H78 C83 0.950 . S
H79 C84 0.949 . S
H80 C86 0.950 . S
H81 C87 0.950 . S
H82 C88 0.949 . S
C83 H78 0.950 . S
C83 C85 1.327 . S
C83 C89 1.429 . S
C84 C76 1.574 . S
C84 H79 0.949 . S
C84 C90 1.368 1_556 S
C85 C69 1.349 . S
C85 H77 0.950 . S
C85 C83 1.327 . S
C86 C74 1.349 1_556 S
C86 H80 0.950 . S
C86 C87 1.327 . S
C87 H81 0.950 . S
C87 C86 1.327 . S
C87 C91 1.429 1_556 S
C88 C71 1.574 . S
C88 H82 0.949 . S
C88 C92 1.368 . S
C89 C70 1.429 1_554 S
C89 C83 1.429 . S
C89 C90 1.523 . S
C90 C71 1.368 . S
C90 C84 1.368 1_554 S
C90 C89 1.523 . S
C91 C75 1.429 . S
C91 C87 1.429 1_554 S
C91 C92 1.523 . S
C92 C76 1.368 1_554 S
C92 C88 1.368 . S
C92 C91 1.523 . S
H93 C68 0.950 . S
H94 C70 0.950 . S
H95 C71 0.949 . S
H96 C73 0.950 . S
H97 C75 0.950 . S
C98 C99 1.349 . S
C98 C100 1.327 . S
C98 H123 0.950 . S
C99 C98 1.349 . S
C99 C115 1.349 1_554 S
C100 C98 1.327 . S
C100 C119 1.429 . S
C100 H124 0.950 . S
C101 C118 1.574 1_655 S
C101 C120 1.368 1_556 S
C101 H125 0.949 . S
H102 C106 0.949 . S
C103 C104 1.349 1_556 S
C103 C105 1.327 . S
C103 H126 0.950 . S
C104 C103 1.349 1_554 S
C104 C116 1.349 . S
C105 C103 1.327 . S
C105 C121 1.429 1_556 S
C105 H127 0.950 . S
C106 H102 0.949 . S
C106 C114 1.574 1_455 S
C106 C122 1.368 . S
H107 C115 0.950 . S
H108 C113 0.950 . S
H109 C114 0.949 . S
H110 C116 0.950 . S
H111 C117 0.950 . S
H112 C118 0.949 . S
C113 H108 0.950 . S
C113 C115 1.327 . S
C113 C119 1.429 1_556 S
C114 C106 1.574 1_655 S
C114 H109 0.949 . S
C114 C120 1.368 . S
C115 C99 1.349 1_556 S
C115 H107 0.950 . S
C115 C113 1.327 . S
C116 C104 1.349 . S
C116 H110 0.950 . S
C116 C117 1.327 . S
C117 H111 0.950 . S
C117 C116 1.327 . S
C117 C121 1.429 . S
C118 C101 1.574 1_455 S
C118 H112 0.949 . S
C118 C122 1.368 1_556 S
C119 C100 1.429 . S
C119 C113 1.429 1_554 S
C119 C120 1.523 . S
C120 C101 1.368 1_554 S
C120 C114 1.368 . S
C120 C119 1.523 . S
C121 C105 1.429 1_554 S
C121 C117 1.429 . S
C121 C122 1.523 . S
C122 C106 1.368 . S
C122 C118 1.368 1_554 S
C122 C121 1.523 . S
H123 C98 0.950 . S
H124 C100 0.950 . S
H125 C101 0.949 . S
H126 C103 0.950 . S
H127 C105 0.950 . S
C128 C129 1.349 . S
C128 C130 1.327 . S
C128 H153 0.950 . S
C129 C128 1.349 . S
C129 C145 1.349 1_554 S
C130 C128 1.327 . S
C130 C149 1.429 . S
C130 H154 0.950 . S
C131 C148 1.574 1_565 S
C131 C150 1.368 1_556 S
C131 H155 0.949 . S
H132 C136 0.949 . S
C133 C134 1.349 1_556 S
C133 C135 1.327 . S
C133 H156 0.950 . S
C134 C133 1.349 1_554 S
C134 C146 1.349 . S
C135 C133 1.327 . S
C135 C151 1.429 1_556 S
C135 H157 0.950 . S
C136 H132 0.949 . S
C136 C144 1.574 1_545 S
C136 C152 1.368 . S
H137 C145 0.950 . S
H138 C143 0.950 . S
H139 C144 0.949 . S
H140 C146 0.950 . S
H141 C147 0.950 . S
H142 C148 0.949 . S
C143 H138 0.950 . S
C143 C145 1.327 . S
C143 C149 1.429 1_556 S
C144 C136 1.574 1_565 S
C144 H139 0.949 . S
C144 C150 1.368 . S
C145 C129 1.349 1_556 S
C145 H137 0.950 . S
C145 C143 1.327 . S
C146 C134 1.349 . S
C146 H140 0.950 . S
C146 C147 1.327 . S
C147 H141 0.950 . S
C147 C146 1.327 . S
C147 C151 1.429 . S
C148 C131 1.574 1_545 S
C148 H142 0.949 . S
C148 C152 1.368 1_556 S
C149 C130 1.429 . S
C149 C143 1.429 1_554 S
C149 C150 1.523 . S
C150 C131 1.368 1_554 S
C150 C144 1.368 . S
C150 C149 1.523 . S
C151 C135 1.429 1_554 S
C151 C147 1.429 . S
C151 C152 1.523 . S
C152 C136 1.368 . S
C152 C148 1.368 1_554 S
C152 C151 1.523 . S
H153 C128 0.950 . S
H154 C130 0.950 . S
H155 C131 0.949 . S
H156 C133 0.950 . S
H157 C135 0.950 . S
C158 C159 1.349 . S
C158 C160 1.327 . S
C158 H183 0.950 . S
C159 C158 1.349 . S
C159 C175 1.349 . S
C160 C158 1.327 . S
C160 C179 1.429 . S
C160 H184 0.950 . S
C161 C178 1.574 . S
C161 C180 1.368 . S
C161 H185 0.949 . S
H162 C166 0.949 . S
C163 C164 1.349 . S
C163 C165 1.327 . S
C163 H186 0.950 . S
C164 C163 1.349 . S
C164 C176 1.349 . S
C165 C163 1.327 . S
C165 C181 1.429 . S
C165 H187 0.950 . S
C166 H162 0.949 . S
C166 C174 1.574 . S
C166 C182 1.368 . S
H167 C175 0.950 . S
H168 C173 0.950 . S
H169 C174 0.949 . S
H170 C176 0.950 . S
H171 C177 0.950 . S
H172 C178 0.949 . S
C173 H168 0.950 . S
C173 C175 1.327 . S
C173 C179 1.429 . S
C174 C166 1.574 . S
C174 H169 0.949 . S
C174 C180 1.368 . S
C175 C159 1.349 . S
C175 H167 0.950 . S
C175 C173 1.327 . S
C176 C164 1.349 . S
C176 H170 0.950 . S
C176 C177 1.327 . S
C177 H171 0.950 . S
C177 C176 1.327 . S
C177 C181 1.429 . S
C178 C161 1.574 . S
C178 H172 0.949 . S
C178 C182 1.368 . S
C179 C160 1.429 . S
C179 C173 1.429 . S
C179 C180 1.523 . S
C180 C161 1.368 . S
C180 C174 1.368 . S
C180 C179 1.523 . S
C181 C165 1.429 . S
C181 C177 1.429 . S
C181 C182 1.523 . S
C182 C166 1.368 . S
C182 C178 1.368 . S
C182 C181 1.523 . S
H183 C158 0.950 . S
H184 C160 0.950 . S
H185 C161 0.949 . S
H186 C163 0.950 . S
H187 C165 0.950 . S
C188 C189 1.349 . S
C188 C190 1.327 . S
C188 H213 0.950 . S
C189 C188 1.349 . S
C189 C205 1.349 . S
C190 C188 1.327 . S
C190 C209 1.429 . S
C190 H214 0.950 . S
C191 C208 1.574 . S
C191 C210 1.368 . S
C191 H215 0.949 . S
H192 C196 0.949 . S
C193 C194 1.349 . S
C193 C195 1.327 . S
C193 H216 0.950 . S
C194 C193 1.349 . S
C194 C206 1.349 . S
C195 C193 1.327 . S
C195 C211 1.429 . S
C195 H217 0.950 . S
C196 H192 0.949 . S
C196 C204 1.574 . S
C196 C212 1.368 . S
H197 C205 0.950 . S
H198 C203 0.950 . S
H199 C204 0.949 . S
H200 C206 0.950 . S
H201 C207 0.950 . S
H202 C208 0.949 . S
C203 H198 0.950 . S
C203 C205 1.327 . S
C203 C209 1.429 . S
C204 C196 1.574 . S
C204 H199 0.949 . S
C204 C210 1.368 . S
C205 C189 1.349 . S
C205 H197 0.950 . S
C205 C203 1.327 . S
C206 C194 1.349 . S
C206 H200 0.950 . S
C206 C207 1.327 . S
C207 H201 0.950 . S
C207 C206 1.327 . S
C207 C211 1.429 . S
C208 C191 1.574 . S
C208 H202 0.949 . S
C208 C212 1.368 . S
C209 C190 1.429 . S
C209 C203 1.429 . S
C209 C210 1.523 . S
C210 C191 1.368 . S
C210 C204 1.368 . S
C210 C209 1.523 . S
C211 C195 1.429 . S
C211 C207 1.429 . S
C211 C212 1.523 . S
C212 C196 1.368 . S
C212 C208 1.368 . S
C212 C211 1.523 . S
H213 C188 0.950 . S
H214 C190 0.950 . S
H215 C191 0.949 . S
H216 C193 0.950 . S
H217 C195 0.950 . S
C69 C33 1.550 . S
C74 C36 1.549 . S
C99 C67 1.438 . S
C104 C20 1.440 . S
C129 C2 1.531 . S
C134 C54 1.513 . S
C159 C9 1.390 . S
C164 C5 1.478 . S
C189 C39 1.479 . S
C194 C43 1.397 . S
