# Generated by pormake.
# Topology lon, (4)-cn, num edge types: 1
# Building blocks:
#     Node 0, Type 0, BuildingBlock: TATPOV_clean_sbu_0, # of connection points: 4
#     Node 1, Type 0, BuildingBlock: TATPOV_clean_sbu_0, # of connection points: 4
#     Node 2, Type 0, BuildingBlock: TATPOV_clean_sbu_0, # of connection points: 4
#     Node 3, Type 0, BuildingBlock: TATPOV_clean_sbu_0, # of connection points: 4
#     Edge 4, Type (0, 0), None
#     Edge 5, Type (0, 0), None
#     Edge 6, Type (0, 0), None
#     Edge 7, Type (0, 0), None
#     Edge 8, Type (0, 0), None
#     Edge 9, Type (0, 0), None
#     Edge 10, Type (0, 0), None
#     Edge 11, Type (0, 0), None
# Relax obj value: 0.043
# Max RMSD: 0.083
# Mean RMSD: 0.081
data_MOF--net-lon--node1-TATPOV_clean_sbu_0--edge1-none
_symmetry_space_group_name_H-M    P1
_symmetry_Int_Tables_number       1
_symmetry_cell_setting            triclinic
loop_
_symmetry_equiv_pos_as_xyz
'x, y, z'
_cell_length_a     10.971532
_cell_length_b     11.792676
_cell_length_c     20.078758
_cell_angle_alpha  86.720513
_cell_angle_beta   90.001405
_cell_angle_gamma 117.72146
loop_
_atom_site_label
_atom_site_type_symbol
_atom_site_fract_x
_atom_site_fract_y
_atom_site_fract_z
_atom_type_partial_charge
Zn0 Zn 0.56575 0.7386 0.10786 0.0
Zn1 Zn 0.33565 0.61238 0.0385 0.0
O2 O 0.44866 0.51415 0.01966 0.0
O3 O 0.63424 0.61641 0.07866 0.0
O4 O 0.14941 0.52064 -0.00593 0.0
O5 O 0.45821 0.70291 0.19315 0.0
O6 O 0.26966 0.59866 0.13701 0.0
C7 C 0.56579 0.52936 0.03973 0.0
C8 C 0.53479 0.89829 0.00387 0.0
O9 O 0.42851 0.79469 -0.00877 0.0
O10 O 0.61016 0.90037 0.05189 0.0
C11 C 0.12978 0.45456 0.94366 0.0
O12 O 0.23376 0.44491 0.91719 0.0
C13 C 0.3286 0.63897 0.1917 0.0
Zn14 Zn 0.56091 0.28138 0.41749 0.0
Zn15 Zn 0.56859 0.26698 0.55653 0.0
O16 O 0.46299 0.36804 0.54791 0.0
O17 O 0.45963 0.38231 0.43748 0.0
O18 O 0.60676 0.24654 0.65271 0.0
O19 O 0.46348 0.08627 0.42184 0.0
O20 O 0.46554 0.08126 0.53178 0.0
C21 C 0.43222 0.40935 0.49398 0.0
C22 C 0.8283 0.41467 0.4637 0.0
O23 O 0.76147 0.37404 0.51899 0.0
O24 O 0.76813 0.38383 0.40893 0.0
C25 C 0.59098 0.29529 0.70469 0.0
O26 O 0.53567 0.37303 0.70119 0.0
C27 C 0.43295 0.02356 0.47799 0.0
Zn28 Zn 0.23284 0.62523 0.54165 0.0
Zn29 Zn 0.2549 0.63962 0.40261 0.0
O30 O 0.04825 0.53856 0.41124 0.0
O31 O 0.03063 0.5243 0.52166 0.0
O32 O 0.3135 0.66005 0.30643 0.0
O33 O 0.33052 0.82034 0.5373 0.0
O34 O 0.33758 0.82535 0.42736 0.0
C35 C -0.02383 0.49726 0.46516 0.0
C36 C 0.36693 0.49194 0.49545 0.0
O37 O 0.34073 0.53256 0.44016 0.0
O38 O 0.3376 0.52277 0.55021 0.0
C39 C 0.24897 0.61126 0.25446 0.0
O40 O 0.11593 0.53348 0.25798 0.0
C41 C 0.3627 0.88305 0.48115 0.0
Zn42 Zn 0.7804 0.16787 0.85128 0.0
Zn43 Zn 0.6765 0.29408 0.92066 0.0
O44 O 0.88774 0.39231 0.9395 0.0
O45 O -0.02895 0.29005 0.88051 0.0
O46 O 0.582 0.38581 0.96509 0.0
O47 O 0.70857 0.20362 0.766 0.0
O48 O 0.62424 0.30784 0.82215 0.0
C49 C -0.01034 0.3771 0.91943 0.0
C50 C 0.58971 0.00816 0.95525 0.0
O51 O 0.58704 0.11176 0.96791 0.0
O52 O 0.66301 0.00609 0.90724 0.0
C53 C 0.62845 0.45189 0.01551 0.0
O54 O 0.74208 0.46154 0.04199 0.0
C55 C 0.64289 0.26755 0.76745 0.0
loop_
_geom_bond_atom_site_label_1
_geom_bond_atom_site_label_2
_geom_bond_distance
_geom_bond_site_symmetry_2
_ccdc_geom_bond_type
Zn0 O3 2.031 . S
Zn0 O5 2.049 . S
Zn0 O10 2.067 . S
Zn1 O2 1.962 . S
Zn1 O4 1.986 . S
Zn1 O6 1.996 . S
Zn1 O9 1.943 . S
O2 Zn1 1.962 . S
O2 C7 1.254 . S
O3 Zn0 2.031 . S
O3 C7 1.269 . S
O4 Zn1 1.986 . S
O4 C11 1.262 . S
O5 Zn0 2.049 . S
O5 C13 1.260 . S
O6 Zn1 1.996 . S
O6 C13 1.257 . S
C7 O2 1.254 . S
C7 O3 1.269 . S
C8 O9 1.249 . S
C8 O10 1.270 . S
O9 Zn1 1.943 . S
O9 C8 1.249 . S
O10 Zn0 2.067 . S
O10 C8 1.270 . S
C11 O4 1.262 . S
C11 O12 1.232 1_554 S
O12 C11 1.232 1_556 S
C13 O5 1.260 . S
C13 O6 1.257 . S
Zn14 O17 2.031 . S
Zn14 O19 2.049 . S
Zn14 O24 2.067 . S
Zn15 O16 1.962 . S
Zn15 O18 1.986 . S
Zn15 O20 1.996 . S
Zn15 O23 1.943 . S
O16 Zn15 1.962 . S
O16 C21 1.254 . S
O17 Zn14 2.031 . S
O17 C21 1.269 . S
O18 Zn15 1.986 . S
O18 C25 1.262 . S
O19 Zn14 2.049 . S
O19 C27 1.260 . S
O20 Zn15 1.996 . S
O20 C27 1.257 . S
C21 O16 1.254 . S
C21 O17 1.269 . S
C22 O23 1.249 . S
C22 O24 1.270 . S
O23 Zn15 1.943 . S
O23 C22 1.249 . S
O24 Zn14 2.067 . S
O24 C22 1.270 . S
C25 O18 1.262 . S
C25 O26 1.232 . S
O26 C25 1.232 . S
C27 O19 1.260 . S
C27 O20 1.257 . S
Zn28 O31 2.031 . S
Zn28 O33 2.049 . S
Zn28 O38 2.067 . S
Zn29 O30 1.962 . S
Zn29 O32 1.986 . S
Zn29 O34 1.996 . S
Zn29 O37 1.943 . S
O30 Zn29 1.962 . S
O30 C35 1.254 . S
O31 Zn28 2.031 . S
O31 C35 1.269 . S
O32 Zn29 1.986 . S
O32 C39 1.262 . S
O33 Zn28 2.049 . S
O33 C41 1.260 . S
O34 Zn29 1.996 . S
O34 C41 1.257 . S
C35 O30 1.254 . S
C35 O31 1.269 . S
C36 O37 1.249 . S
C36 O38 1.270 . S
O37 Zn29 1.943 . S
O37 C36 1.249 . S
O38 Zn28 2.067 . S
O38 C36 1.270 . S
C39 O32 1.262 . S
C39 O40 1.232 . S
O40 C39 1.232 . S
C41 O33 1.260 . S
C41 O34 1.257 . S
Zn42 O45 2.031 . S
Zn42 O47 2.049 . S
Zn42 O52 2.067 . S
Zn43 O44 1.962 . S
Zn43 O46 1.986 . S
Zn43 O48 1.996 . S
Zn43 O51 1.943 . S
O44 Zn43 1.962 . S
O44 C49 1.254 . S
O45 Zn42 2.031 . S
O45 C49 1.269 . S
O46 Zn43 1.986 . S
O46 C53 1.262 . S
O47 Zn42 2.049 . S
O47 C55 1.260 . S
O48 Zn43 1.996 . S
O48 C55 1.257 . S
C49 O44 1.254 . S
C49 O45 1.269 . S
C50 O51 1.249 . S
C50 O52 1.270 . S
O51 Zn43 1.943 . S
O51 C50 1.249 . S
O52 Zn42 2.067 . S
O52 C50 1.270 . S
C53 O46 1.262 . S
C53 O54 1.232 1_556 S
O54 C53 1.232 1_554 S
C55 O47 1.260 . S
C55 O48 1.257 . S
C13 C39 1.476 . S
C25 C55 1.476 . S
C7 C53 1.376 1_554 S
C35 C22 1.779 1_455 S
C50 C8 1.748 1_546 S
C21 C36 1.779 . S
C11 C49 1.376 1_454 S
C27 C41 1.161 1_545 S
