# Generated by pormake.
# Topology tfs, (6)-cn, num edge types: 1
# Building blocks:
#     Node 0, Type 0, BuildingBlock: BETDEL_clean_sbu_0, # of connection points: 6
#     Node 1, Type 0, BuildingBlock: BETDEL_clean_sbu_0, # of connection points: 6
#     Node 2, Type 0, BuildingBlock: BETDEL_clean_sbu_0, # of connection points: 6
#     Node 3, Type 0, BuildingBlock: BETDEL_clean_sbu_0, # of connection points: 6
#     Node 4, Type 0, BuildingBlock: BETDEL_clean_sbu_0, # of connection points: 6
#     Node 5, Type 0, BuildingBlock: BETDEL_clean_sbu_0, # of connection points: 6
#     Edge 6, Type (0, 0), None
#     Edge 7, Type (0, 0), None
#     Edge 8, Type (0, 0), None
#     Edge 9, Type (0, 0), None
#     Edge 10, Type (0, 0), None
#     Edge 11, Type (0, 0), None
#     Edge 12, Type (0, 0), None
#     Edge 13, Type (0, 0), None
#     Edge 14, Type (0, 0), None
#     Edge 15, Type (0, 0), None
#     Edge 16, Type (0, 0), None
#     Edge 17, Type (0, 0), None
#     Edge 18, Type (0, 0), None
#     Edge 19, Type (0, 0), None
#     Edge 20, Type (0, 0), None
#     Edge 21, Type (0, 0), None
#     Edge 22, Type (0, 0), None
#     Edge 23, Type (0, 0), None
# Relax obj value: 0.498
# Max RMSD: 0.364
# Mean RMSD: 0.293
data_MOF--net-tfs--node1-BETDEL_clean_sbu_0--edge1-none
_symmetry_space_group_name_H-M    P1
_symmetry_Int_Tables_number       1
_symmetry_cell_setting            triclinic
loop_
_symmetry_equiv_pos_as_xyz
'x, y, z'
_cell_length_a     23.298466
_cell_length_b     22.408858
_cell_length_c     6.1965176
_cell_angle_alpha  101.69796
_cell_angle_beta   90.076672
_cell_angle_gamma 124.27748
loop_
_atom_site_label
_atom_site_type_symbol
_atom_site_fract_x
_atom_site_fract_y
_atom_site_fract_z
_atom_type_partial_charge
Dy0 Dy 0.11678 0.46698 0.44293 0.0
C1 C 0.18645 0.25954 0.17554 0.0
C2 C 0.10551 0.58389 0.58991 0.0
Dy3 Dy 0.15197 0.35096 0.37383 0.0
O4 O 0.0697 0.53078 0.41136 0.0
O5 O 0.14523 0.57127 0.69 0.0
O6 O 0.09429 0.44918 0.07277 0.0
O7 O 0.16714 0.43378 0.19944 0.0
C8 C 0.13284 0.42507 0.02387 0.0
C9 C 0.13878 0.39685 0.795 0.0
O10 O 0.25663 0.45073 0.41177 0.0
O11 O 0.22932 0.53173 0.58657 0.0
O12 O 0.17837 0.26975 0.38431 0.0
O13 O 0.17244 0.29599 0.07532 0.0
O14 O 0.17897 0.37459 0.74451 0.0
O15 O 0.10199 0.38581 0.6215 0.0
O16 O 0.01462 0.35928 0.39652 0.0
O17 O 0.04483 0.28197 0.20679 0.0
C18 C 0.27437 0.51524 0.53112 0.0
C19 C 0.00039 0.29912 0.25005 0.0
Dy20 Dy 0.66351 0.13943 0.9556 0.0
C21 C 0.93722 0.25819 0.1059 0.0
C22 C 0.52561 0.07605 0.93386 0.0
Dy23 Dy 0.80757 0.21581 0.02995 0.0
O24 O 0.55705 0.07213 0.76667 0.0
O25 O 0.56915 0.10928 0.11711 0.0
O26 O 0.66018 0.10754 0.58987 0.0
O27 O 0.74274 0.21508 0.77744 0.0
C28 C 0.71739 0.17077 0.58875 0.0
C29 C 0.74942 0.18793 0.39432 0.0
O30 O 0.81193 0.31881 0.08219 0.0
O31 O 0.69559 0.25422 0.13252 0.0
O32 O 0.88453 0.19771 0.14329 0.0
O33 O 0.91905 0.29296 0.01162 0.0
O34 O 0.80605 0.25119 0.39147 0.0
O35 O 0.72703 0.14184 0.20959 0.0
O36 O 0.6801 0.05152 0.94505 0.0
O37 O 0.77812 0.11291 0.78286 0.0
C38 C 0.75775 0.31757 0.14775 0.0
C39 C 0.7254 0.05088 0.82044 0.0
Dy40 Dy 0.45932 0.69665 0.48736 0.0
C41 C 0.70148 0.97999 0.68147 0.0
C42 C 0.34428 0.57505 0.54101 0.0
Dy43 Dy 0.57642 0.84487 0.60684 0.0
O44 O 0.3804 0.57572 0.38081 0.0
O45 O 0.36972 0.64024 0.66747 0.0
O46 O 0.47376 0.68332 0.12716 0.0
O47 O 0.49815 0.78618 0.31765 0.0
C48 C 0.50116 0.75272 0.13494 0.0
C49 C 0.52937 0.78755 0.95323 0.0
O50 O 0.49158 0.86931 0.63465 0.0
O51 O 0.40067 0.74656 0.59541 0.0
O52 O 0.68453 0.92901 0.78512 0.0
O53 O 0.65109 0.95302 0.52105 0.0
O54 O 0.55077 0.85492 0.95503 0.0
O55 O 0.5373 0.75623 0.77605 0.0
O56 O 0.53658 0.67151 0.52702 0.0
O57 O 0.62199 0.78037 0.44517 0.0
C58 C 0.42368 0.81704 0.63765 0.0
C59 C 0.59782 0.71188 0.46168 0.0
Dy60 Dy 0.73811 0.49109 0.24631 0.0
C61 C 0.63651 0.67709 0.42015 0.0
C62 C 0.76323 0.38637 0.22023 0.0
Dy63 Dy 0.69551 0.59821 0.35161 0.0
O64 O 0.79709 0.44177 0.12687 0.0
O65 O 0.71935 0.39101 0.33742 0.0
O66 O 0.70725 0.4679 0.88106 0.0
O67 O 0.74541 0.57361 0.08665 0.0
C68 C 0.71855 0.53203 0.89386 0.0
C69 C 0.71638 0.55822 0.70131 0.0
O70 O 0.59025 0.48514 0.16733 0.0
O71 O 0.62298 0.40603 0.185 0.0
O72 O 0.6179 0.61876 0.48952 0.0
O73 O 0.68768 0.69278 0.30303 0.0
O74 O 0.73112 0.62386 0.71406 0.0
O75 O 0.68783 0.51647 0.50921 0.0
O76 O 0.84154 0.59229 0.4318 0.0
O77 O 0.81784 0.67938 0.41454 0.0
C78 C 0.57403 0.41582 0.13924 0.0
C79 C 0.86329 0.66245 0.45597 0.0
Dy80 Dy 0.24502 0.82804 0.6608 0.0
C81 C 0.94129 0.72114 0.53295 0.0
C82 C 0.36726 0.8304 0.67875 0.0
Dy83 Dy 0.0849 0.77905 0.64607 0.0
O84 O 0.3648 0.88541 0.65306 0.0
O85 O 0.30449 0.77786 0.70483 0.0
O86 O 0.24798 0.85139 0.3224 0.0
O87 O 0.1518 0.77127 0.40667 0.0
C88 C 0.18085 0.80768 0.26267 0.0
C89 C 0.14638 0.79481 0.04276 0.0
O90 O 0.07534 0.6699 0.54729 0.0
O91 O 0.18564 0.7139 0.71629 0.0
O92 O 0.97285 0.73166 0.72469 0.0
O93 O -0.01021 0.74358 0.40214 0.0
O94 O 0.07895 0.75244 -0.01817 0.0
O95 O 0.17653 0.83177 0.90048 0.0
O96 O 0.26009 0.93527 0.82887 0.0
O97 O 0.15135 0.90773 0.69191 0.0
C98 C 0.12075 0.65867 0.62694 0.0
C99 C 0.21919 0.95697 0.78565 0.0
Dy100 Dy 0.41552 0.16476 0.93835 0.0
C101 C 0.22934 0.23574 0.08814 0.0
C102 C 0.47736 0.09426 0.90887 0.0
Dy103 Dy 0.33048 0.2184 0.9602 0.0
O104 O 0.43947 0.09382 0.06029 0.0
O105 O 0.48649 0.13831 0.78363 0.0
O106 O 0.37404 0.12693 0.24564 0.0
O107 O 0.40054 0.23062 0.21468 0.0
C108 C 0.37878 0.18674 0.33761 0.0
C109 C 0.36667 0.20349 0.56185 0.0
O110 O 0.44034 0.33221 0.0815 0.0
O111 O 0.50398 0.28441 0.9655 0.0
O112 O 0.25676 0.2494 0.90705 0.0
O113 O 0.25883 0.2156 0.20358 0.0
O114 O 0.3603 0.25705 0.64676 0.0
O115 O 0.3484 0.15884 0.68199 0.0
O116 O 0.32105 0.06411 0.72679 0.0
O117 O 0.25259 0.08877 0.92463 0.0
C118 C 0.50225 0.34295 0.04757 0.0
C119 C 0.2606 0.0386 0.7984 0.0
loop_
_geom_bond_atom_site_label_1
_geom_bond_atom_site_label_2
_geom_bond_distance
_geom_bond_site_symmetry_2
_ccdc_geom_bond_type
Dy0 O4 2.398 . S
Dy0 O5 2.491 . S
Dy0 O6 2.403 . S
Dy0 O7 2.664 . S
Dy0 O11 2.326 . S
Dy0 O15 2.310 . S
Dy0 O16 2.351 . S
C1 O12 1.185 . S
C1 O13 1.355 . S
C2 O4 1.185 . S
C2 O5 1.355 . S
Dy3 O7 2.310 . S
Dy3 O10 2.351 . S
Dy3 O12 2.398 . S
Dy3 O13 2.491 . S
Dy3 O14 2.403 1_556 S
Dy3 O15 2.664 . S
Dy3 O17 2.326 . S
O4 Dy0 2.398 . S
O4 C2 1.185 . S
O5 Dy0 2.491 . S
O5 C2 1.355 . S
O6 Dy0 2.403 . S
O6 C8 1.254 . S
O7 Dy0 2.664 . S
O7 Dy3 2.310 . S
O7 C8 1.268 . S
C8 O6 1.254 . S
C8 O7 1.268 . S
C9 O14 1.254 . S
C9 O15 1.268 1_554 S
O10 Dy3 2.351 . S
O10 C18 1.249 . S
O11 Dy0 2.326 . S
O11 C18 1.267 . S
O12 C1 1.185 . S
O12 Dy3 2.398 . S
O13 C1 1.355 . S
O13 Dy3 2.491 . S
O14 Dy3 2.403 1_554 S
O14 C9 1.254 . S
O15 Dy0 2.310 . S
O15 Dy3 2.664 . S
O15 C9 1.268 1_556 S
O16 Dy0 2.351 . S
O16 C19 1.249 . S
O17 Dy3 2.326 . S
O17 C19 1.267 . S
C18 O10 1.249 . S
C18 O11 1.267 . S
C19 O16 1.249 . S
C19 O17 1.267 . S
Dy20 O24 2.398 . S
Dy20 O25 2.491 1_556 S
Dy20 O26 2.403 . S
Dy20 O27 2.664 . S
Dy20 O31 2.326 . S
Dy20 O35 2.310 1_556 S
Dy20 O36 2.351 . S
C21 O32 1.185 . S
C21 O33 1.355 1_554 S
C22 O24 1.185 . S
C22 O25 1.355 1_556 S
Dy23 O27 2.310 1_554 S
Dy23 O30 2.351 . S
Dy23 O32 2.398 . S
Dy23 O33 2.491 1_554 S
Dy23 O34 2.403 . S
Dy23 O35 2.664 . S
Dy23 O37 2.326 . S
O24 Dy20 2.398 . S
O24 C22 1.185 . S
O25 Dy20 2.491 1_554 S
O25 C22 1.355 1_554 S
O26 Dy20 2.403 . S
O26 C28 1.254 . S
O27 Dy20 2.664 . S
O27 Dy23 2.310 1_556 S
O27 C28 1.268 . S
C28 O26 1.254 . S
C28 O27 1.268 . S
C29 O34 1.254 . S
C29 O35 1.268 . S
O30 Dy23 2.351 . S
O30 C38 1.249 1_554 S
O31 Dy20 2.326 . S
O31 C38 1.267 . S
O32 C21 1.185 . S
O32 Dy23 2.398 . S
O33 C21 1.355 1_556 S
O33 Dy23 2.491 1_556 S
O34 Dy23 2.403 . S
O34 C29 1.254 . S
O35 Dy20 2.310 1_554 S
O35 Dy23 2.664 . S
O35 C29 1.268 . S
O36 Dy20 2.351 . S
O36 C39 1.249 1_556 S
O37 Dy23 2.326 . S
O37 C39 1.267 . S
C38 O30 1.249 1_556 S
C38 O31 1.267 . S
C39 O36 1.249 1_554 S
C39 O37 1.267 . S
Dy40 O44 2.398 . S
Dy40 O45 2.491 . S
Dy40 O46 2.403 . S
Dy40 O47 2.664 . S
Dy40 O51 2.326 . S
Dy40 O55 2.310 . S
Dy40 O56 2.351 . S
C41 O52 1.185 . S
C41 O53 1.355 1_545 S
C42 O44 1.185 . S
C42 O45 1.355 . S
Dy43 O47 2.310 . S
Dy43 O50 2.351 . S
Dy43 O52 2.398 1_565 S
Dy43 O53 2.491 . S
Dy43 O54 2.403 1_556 S
Dy43 O55 2.664 . S
Dy43 O57 2.326 . S
O44 Dy40 2.398 . S
O44 C42 1.185 . S
O45 Dy40 2.491 . S
O45 C42 1.355 . S
O46 Dy40 2.403 . S
O46 C48 1.254 . S
O47 Dy40 2.664 . S
O47 Dy43 2.310 . S
O47 C48 1.268 . S
C48 O46 1.254 . S
C48 O47 1.268 . S
C49 O54 1.254 . S
C49 O55 1.268 1_554 S
O50 Dy43 2.351 . S
O50 C58 1.249 . S
O51 Dy40 2.326 . S
O51 C58 1.267 . S
O52 C41 1.185 . S
O52 Dy43 2.398 1_545 S
O53 C41 1.355 1_565 S
O53 Dy43 2.491 . S
O54 Dy43 2.403 1_554 S
O54 C49 1.254 . S
O55 Dy40 2.310 . S
O55 Dy43 2.664 . S
O55 C49 1.268 1_556 S
O56 Dy40 2.351 . S
O56 C59 1.249 . S
O57 Dy43 2.326 . S
O57 C59 1.267 . S
C58 O50 1.249 . S
C58 O51 1.267 . S
C59 O56 1.249 . S
C59 O57 1.267 . S
Dy60 O64 2.398 . S
Dy60 O65 2.491 1_556 S
Dy60 O66 2.403 . S
Dy60 O67 2.664 . S
Dy60 O71 2.326 . S
Dy60 O75 2.310 1_556 S
Dy60 O76 2.351 1_556 S
C61 O72 1.185 . S
C61 O73 1.355 1_554 S
C62 O64 1.185 . S
C62 O65 1.355 1_556 S
Dy63 O67 2.310 1_554 S
Dy63 O70 2.351 . S
Dy63 O72 2.398 . S
Dy63 O73 2.491 1_554 S
Dy63 O74 2.403 . S
Dy63 O75 2.664 . S
Dy63 O77 2.326 . S
O64 Dy60 2.398 . S
O64 C62 1.185 . S
O65 Dy60 2.491 1_554 S
O65 C62 1.355 1_554 S
O66 Dy60 2.403 . S
O66 C68 1.254 . S
O67 Dy60 2.664 . S
O67 Dy63 2.310 1_556 S
O67 C68 1.268 . S
C68 O66 1.254 . S
C68 O67 1.268 . S
C69 O74 1.254 . S
C69 O75 1.268 . S
O70 Dy63 2.351 . S
O70 C78 1.249 1_554 S
O71 Dy60 2.326 . S
O71 C78 1.267 . S
O72 C61 1.185 . S
O72 Dy63 2.398 . S
O73 C61 1.355 1_556 S
O73 Dy63 2.491 1_556 S
O74 Dy63 2.403 . S
O74 C69 1.254 . S
O75 Dy60 2.310 1_554 S
O75 Dy63 2.664 . S
O75 C69 1.268 . S
O76 Dy60 2.351 1_554 S
O76 C79 1.249 . S
O77 Dy63 2.326 . S
O77 C79 1.267 . S
C78 O70 1.249 1_556 S
C78 O71 1.267 . S
C79 O76 1.249 . S
C79 O77 1.267 . S
Dy80 O84 2.398 . S
Dy80 O85 2.491 . S
Dy80 O86 2.403 . S
Dy80 O87 2.664 . S
Dy80 O91 2.326 . S
Dy80 O95 2.310 . S
Dy80 O96 2.351 . S
C81 O92 1.185 . S
C81 O93 1.355 1_655 S
C82 O84 1.185 . S
C82 O85 1.355 . S
Dy83 O87 2.310 . S
Dy83 O90 2.351 . S
Dy83 O92 2.398 1_455 S
Dy83 O93 2.491 . S
Dy83 O94 2.403 1_556 S
Dy83 O95 2.664 . S
Dy83 O97 2.326 . S
O84 Dy80 2.398 . S
O84 C82 1.185 . S
O85 Dy80 2.491 . S
O85 C82 1.355 . S
O86 Dy80 2.403 . S
O86 C88 1.254 . S
O87 Dy80 2.664 . S
O87 Dy83 2.310 . S
O87 C88 1.268 . S
C88 O86 1.254 . S
C88 O87 1.268 . S
C89 O94 1.254 . S
C89 O95 1.268 1_554 S
O90 Dy83 2.351 . S
O90 C98 1.249 . S
O91 Dy80 2.326 . S
O91 C98 1.267 . S
O92 C81 1.185 . S
O92 Dy83 2.398 1_655 S
O93 C81 1.355 1_455 S
O93 Dy83 2.491 . S
O94 Dy83 2.403 1_554 S
O94 C89 1.254 . S
O95 Dy80 2.310 . S
O95 Dy83 2.664 . S
O95 C89 1.268 1_556 S
O96 Dy80 2.351 . S
O96 C99 1.249 . S
O97 Dy83 2.326 . S
O97 C99 1.267 . S
C98 O90 1.249 . S
C98 O91 1.267 . S
C99 O96 1.249 . S
C99 O97 1.267 . S
Dy100 O104 2.398 . S
Dy100 O105 2.491 1_554 S
Dy100 O106 2.403 . S
Dy100 O107 2.664 . S
Dy100 O111 2.326 . S
Dy100 O115 2.310 1_554 S
Dy100 O116 2.351 . S
C101 O112 1.185 1_554 S
C101 O113 1.355 . S
C102 O104 1.185 1_556 S
C102 O105 1.355 . S
Dy103 O107 2.310 . S
Dy103 O110 2.351 1_554 S
Dy103 O112 2.398 1_554 S
Dy103 O113 2.491 . S
Dy103 O114 2.403 1_554 S
Dy103 O115 2.664 1_554 S
Dy103 O117 2.326 1_554 S
O104 Dy100 2.398 . S
O104 C102 1.185 1_554 S
O105 Dy100 2.491 1_556 S
O105 C102 1.355 . S
O106 Dy100 2.403 . S
O106 C108 1.254 . S
O107 Dy100 2.664 . S
O107 Dy103 2.310 . S
O107 C108 1.268 . S
C108 O106 1.254 . S
C108 O107 1.268 . S
C109 O114 1.254 . S
C109 O115 1.268 . S
O110 Dy103 2.351 1_556 S
O110 C118 1.249 1_556 S
O111 Dy100 2.326 . S
O111 C118 1.267 . S
O112 C101 1.185 1_556 S
O112 Dy103 2.398 1_556 S
O113 C101 1.355 . S
O113 Dy103 2.491 . S
O114 Dy103 2.403 1_556 S
O114 C109 1.254 . S
O115 Dy100 2.310 1_556 S
O115 Dy103 2.664 1_556 S
O115 C109 1.268 . S
O116 Dy100 2.351 . S
O116 C119 1.249 . S
O117 Dy103 2.326 1_556 S
O117 C119 1.267 1_556 S
C118 O110 1.249 1_554 S
C118 O111 1.267 . S
C119 O116 1.249 . S
C119 O117 1.267 1_554 S
C101 C1 2.545 . S
C19 C21 3.340 1_455 S
C39 C41 2.934 1_554 S
C61 C59 3.193 . S
C81 C79 3.113 . S
C99 C119 2.694 1_566 S
C98 C2 1.873 . S
C102 C22 1.012 . S
C42 C18 1.342 . S
C62 C38 1.993 . S
C82 C58 2.514 . S
C78 C118 2.832 1_556 S
C8 C9 1.097 . S
C28 C29 1.303 . S
C48 C49 1.540 . S
C68 C69 0.976 . S
C89 C88 1.278 . S
C109 C108 1.347 . S
