# Generated by pormake.
# Topology bcu, (8)-cn, num edge types: 1
# Building blocks:
#     Node 0, Type 0, BuildingBlock: LIZSOE_clean_sbu_0, # of connection points: 8
#     Node 1, Type 0, BuildingBlock: LIZSOE_clean_sbu_0, # of connection points: 8
#     Edge 2, Type (0, 0), BuildingBlock: AJUNOK_clean_linker_0, # of connection points: 2
#     Edge 3, Type (0, 0), BuildingBlock: AJUNOK_clean_linker_0, # of connection points: 2
#     Edge 4, Type (0, 0), BuildingBlock: AJUNOK_clean_linker_0, # of connection points: 2
#     Edge 5, Type (0, 0), BuildingBlock: AJUNOK_clean_linker_0, # of connection points: 2
#     Edge 6, Type (0, 0), BuildingBlock: AJUNOK_clean_linker_0, # of connection points: 2
#     Edge 7, Type (0, 0), BuildingBlock: AJUNOK_clean_linker_0, # of connection points: 2
#     Edge 8, Type (0, 0), BuildingBlock: AJUNOK_clean_linker_0, # of connection points: 2
#     Edge 9, Type (0, 0), BuildingBlock: AJUNOK_clean_linker_0, # of connection points: 2
# Relax obj value: 0.010
# Max RMSD: 0.049
# Mean RMSD: 0.049
data_MOF--net-bcu--node1-LIZSOE_clean_sbu_0--edge1-AJUNOK_clean_linker_0
_symmetry_space_group_name_H-M    P1
_symmetry_Int_Tables_number       1
_symmetry_cell_setting            triclinic
loop_
_symmetry_equiv_pos_as_xyz
'x, y, z'
_cell_length_a     16.047916
_cell_length_b     16.021634
_cell_length_c     16.188984
_cell_angle_alpha  120.01509
_cell_angle_beta   59.415833
_cell_angle_gamma 118.62034
loop_
_atom_site_label
_atom_site_type_symbol
_atom_site_fract_x
_atom_site_fract_y
_atom_site_fract_z
_atom_type_partial_charge
Co0 Co 0.11076 0.91632 0.07186 0.0
N1 N 0.10727 0.88549 0.16933 0.0
C2 C 0.04569 0.9083 0.26829 0.0
N3 N 0.14224 0.83683 0.25274 0.0
C4 C 0.16488 0.84086 0.16173 0.0
C5 C 0.0672 0.87907 0.31961 0.0
Co6 Co 0.96396 0.14794 0.96892 0.0
N7 N 0.95268 0.16109 0.86763 0.0
N8 N 0.93687 0.21377 0.77308 0.0
C9 C 0.93419 0.11638 0.7225 0.0
C10 C 0.94364 0.08429 0.78031 0.0
C11 C 0.94915 0.23979 0.86054 0.0
Co12 Co 0.04714 0.04249 0.02026 0.0
C13 C 0.99788 0.23507 0.07171 0.0
H14 H 0.94158 1.00828 0.76048 0.0
O15 O 0.1227 0.94411 0.97233 0.0
O16 O 0.16587 0.10507 0.91591 0.0
O17 O 0.12702 0.14631 0.11108 0.0
O18 O 0.9285 0.98181 0.13123 0.0
O19 O 0.97589 0.85757 0.10495 0.0
O20 O 0.06166 0.08318 0.85823 0.0
O21 O 0.97477 0.14251 0.06876 0.0
O22 O 0.86952 1.02548 0.95429 0.0
O23 O 0.09355 0.04129 0.17909 0.0
O24 O 0.24086 0.97546 0.03088 0.0
O25 O 0.95905 0.93601 0.92802 0.0
O26 O 0.05879 0.26417 0.99248 0.0
C27 C 0.13233 0.12951 0.17643 0.0
C28 C 0.95747 0.34314 0.94031 0.0
H29 H 1.03078 0.37454 0.9513 0.0
H30 H 0.95418 0.39657 0.91832 0.0
H31 H 0.89503 0.3376 1.01351 0.0
C32 C 0.15155 0.11267 0.85083 0.0
C33 C 0.90821 0.89781 0.14037 0.0
H34 H 0.99128 0.9477 0.30234 0.0
H35 H 0.25043 0.73372 0.06265 0.0
H36 H 0.3159 0.85806 0.05204 0.0
H37 H 0.21824 0.77374 0.99827 0.0
C38 C 0.24152 0.79838 0.06285 0.0
C39 C 0.21787 0.96041 0.95707 0.0
C40 C 0.88135 0.94106 0.92556 0.0
H41 H 1.03334 0.89165 0.40067 0.0
H42 H 0.9188 0.06974 0.65218 0.0
Co43 Co 0.65243 0.40399 0.51709 0.0
N44 N 0.67796 0.35118 0.57816 0.0
C45 C 0.6099 0.26912 0.60545 0.0
N46 N 0.73705 0.31298 0.64969 0.0
C47 C 0.75701 0.37454 0.60364 0.0
C48 C 0.6452 0.24669 0.65041 0.0
Co49 Co 0.432 0.6332 0.488 0.0
N50 N 0.40729 0.65102 0.39863 0.0
N51 N 0.348 0.70157 0.33838 0.0
C52 C 0.41264 0.65104 0.25868 0.0
C53 C 0.44869 0.62011 0.29547 0.0
C54 C 0.34584 0.70095 0.42267 0.0
Co55 Co 0.54748 0.53856 0.517 0.0
C56 C 0.47771 0.72517 0.60093 0.0
H57 H 0.50368 0.57943 0.24822 0.0
O58 O 0.63726 0.44808 0.44776 0.0
O59 O 0.658 0.62668 0.43212 0.0
O60 O 0.61097 0.63236 0.62598 0.0
O61 O 0.43647 0.45508 0.60825 0.0
O62 O 0.51656 0.35967 0.58566 0.0
O63 O 0.54815 0.60047 0.37641 0.0
O64 O 0.45659 0.62761 0.5808 0.0
O65 O 0.35739 0.49923 0.45262 0.0
O66 O 0.66422 0.52722 0.62578 0.0
O67 O 0.77875 0.45419 0.44984 0.0
O68 O 0.47758 0.43673 0.41032 0.0
O69 O 0.50525 0.75801 0.52895 0.0
C70 C 0.65169 0.61288 0.66259 0.0
C71 C 0.28844 0.75402 0.53042 0.0
H72 H 0.34077 0.80307 0.57366 0.0
H73 H 0.25262 0.80099 0.53437 0.0
H74 H 0.22925 0.69702 0.56738 0.0
C75 C 0.6375 0.63914 0.37412 0.0
C76 C 0.4373 0.38345 0.6222 0.0
H77 H 0.5389 0.22613 0.59217 0.0
H78 H 0.90777 0.41683 0.50015 0.0
H79 H 0.89486 0.4823 0.63229 0.0
H80 H 0.85038 0.51635 0.57466 0.0
C81 C 0.85769 0.45261 0.57692 0.0
C82 C 0.73592 0.46068 0.40452 0.0
C83 C 0.39207 0.4255 0.41048 0.0
H84 H 0.60757 0.1847 0.67905 0.0
H85 H 0.43218 0.63749 0.17928 0.0
C86 C 0.17947 0.20377 0.33102 0.0
C87 C 0.2007 0.20449 0.23535 0.0
C88 C 0.24709 0.26945 0.38457 0.0
C89 C 0.34076 0.33449 0.34222 0.0
H90 H 0.10868 0.1542 0.36611 0.0
H91 H 0.22418 0.27228 0.46128 0.0
S92 S 0.43546 0.36012 0.092 0.0
N93 N 0.32324 0.27434 0.10006 0.0
N94 N 0.45296 0.39116 0.19702 0.0
C95 C 0.36481 0.33168 0.24466 0.0
C96 C 0.29432 0.26849 0.19221 0.0
C97 C 0.9549 0.39943 0.17649 0.0
C98 C 0.92322 0.29338 0.14915 0.0
C99 C 0.88603 0.45606 0.24675 0.0
C100 C 0.78267 0.40958 0.29405 0.0
H101 H 1.03432 0.43944 0.14581 0.0
H102 H 0.91575 0.53766 0.27219 0.0
S103 S 0.65653 0.13318 0.23472 0.0
N104 N 0.77746 0.14337 0.16416 0.0
N105 N 0.6496 0.24991 0.29591 0.0
C106 C 0.7483 0.30313 0.25857 0.0
C107 C 0.81825 0.24527 0.18808 0.0
C108 C 0.76879 0.74448 0.16054 0.0
C109 C 0.81106 0.84855 0.20673 0.0
C110 C 0.71744 0.67713 0.21451 0.0
C111 C 0.7065 0.7105 0.31699 0.0
H112 H 0.78359 0.71349 0.07926 0.0
H113 H 0.68778 0.59753 0.17492 0.0
S114 S 0.78495 0.97772 0.47941 0.0
N115 N 0.82441 0.98368 0.36561 0.0
N116 N 0.72969 0.85659 0.46692 0.0
C117 C 0.74153 0.81515 0.36653 0.0
C118 C 0.79216 0.88423 0.31177 0.0
C119 C 0.29901 0.83985 0.24747 0.0
C120 C 0.19277 0.80537 0.27873 0.0
C121 C 0.34929 0.80919 0.27176 0.0
C122 C 0.29465 0.74459 0.32918 0.0
H123 H 0.34325 0.89064 0.20406 0.0
H124 H 0.4315 0.83433 0.24405 0.0
S125 S 1.01589 0.63733 0.43272 0.0
N126 N 1.03435 0.70713 0.37337 0.0
N127 N 0.12993 0.6481 0.41783 0.0
C128 C 0.18857 0.71205 0.36351 0.0
C129 C 0.13726 0.74322 0.33883 0.0
C130 C 0.2441 0.80044 0.81331 0.0
C131 C 0.28272 0.90594 0.857 0.0
C132 C 0.30882 0.74065 0.73664 0.0
C133 C 0.41501 0.78389 0.69955 0.0
H134 H 0.16338 0.76307 0.8416 0.0
H135 H 0.275 0.66038 0.70349 0.0
S136 S 0.55454 0.056 0.78783 0.0
N137 N 0.43439 0.05023 0.85917 0.0
N138 N 0.55504 0.93921 0.71059 0.0
C139 C 0.45424 0.8893 0.74162 0.0
C140 C 0.38863 0.94976 0.82122 0.0
C141 C 0.27907 0.24163 0.65405 0.0
C142 C 0.3497 0.33032 0.69176 0.0
C143 C 0.21745 0.17062 0.7049 0.0
C144 C 0.22592 0.18425 0.79387 0.0
H145 H 0.27498 0.22463 0.58222 0.0
H146 H 0.16395 0.10325 0.67308 0.0
S147 S 0.39698 0.4072 0.925 0.0
N148 N 0.42264 0.43004 0.82445 0.0
N149 N 0.30762 0.29698 0.91986 0.0
C150 C 0.2951 0.27382 0.83312 0.0
C151 C 0.35648 0.3466 0.78219 0.0
C152 C 0.94205 0.26709 0.6523 0.0
C153 C 0.90014 0.26281 0.7508 0.0
C154 C 0.89208 0.29132 0.62102 0.0
C155 C 0.79923 0.31171 0.68777 0.0
H156 H 1.01035 0.24554 0.5977 0.0
H157 H 0.92225 0.28732 0.54262 0.0
S158 S 0.66101 0.3137 0.95342 0.0
N159 N 0.76189 0.28167 0.91424 0.0
N160 N 0.67061 0.3323 0.85699 0.0
C161 C 0.75986 0.31314 0.78774 0.0
C162 C 0.80972 0.28736 0.81902 0.0
C163 C 0.76315 0.67702 0.76297 0.0
C164 C 0.6973 0.69335 0.7422 0.0
C165 C 0.82088 0.7554 0.82396 0.0
C166 C 0.81101 0.85278 0.872 0.0
H167 H 0.77206 0.60331 0.73052 0.0
H168 H 0.87443 0.73975 0.83207 0.0
S169 S 0.6244 0.92732 0.8691 0.0
N170 N 0.61262 0.80987 0.78961 0.0
N171 N 0.71137 0.9546 0.91187 0.0
C172 C 0.73549 0.86669 0.86194 0.0
C173 C 0.68089 0.78795 0.79579 0.0
loop_
_geom_bond_atom_site_label_1
_geom_bond_atom_site_label_2
_geom_bond_distance
_geom_bond_site_symmetry_2
_ccdc_geom_bond_type
Co0 N1 2.034 . S
Co0 O15 2.262 1_554 S
Co0 O19 1.958 1_455 S
Co0 O23 1.950 1_565 S
Co0 O24 2.057 1_554 S
N1 Co0 2.034 . S
N1 C2 1.366 . S
N1 C4 1.332 . S
C2 N1 1.366 . S
C2 C5 1.377 . S
C2 H34 0.931 1_455 S
N3 C4 1.346 . S
N3 C5 1.337 . S
C4 N1 1.332 . S
C4 N3 1.346 . S
C4 C38 1.361 . S
C5 C2 1.377 . S
C5 N3 1.337 . S
C5 H41 0.930 . S
Co6 N7 2.034 . S
Co6 O20 1.950 1_655 S
Co6 O21 2.262 1_556 S
Co6 O22 1.958 1_545 S
Co6 O26 2.057 1_556 S
N7 Co6 2.034 . S
N7 C10 1.366 . S
N7 C11 1.332 . S
N8 C9 1.337 . S
N8 C11 1.346 . S
C9 N8 1.337 . S
C9 C10 1.377 . S
C9 H42 0.930 . S
C10 N7 1.366 . S
C10 C9 1.377 . S
C10 H14 0.931 1_545 S
C11 N7 1.332 . S
C11 N8 1.346 . S
C11 C28 1.361 . S
Co12 O15 2.097 1_654 S
Co12 O16 2.065 1_664 S
Co12 O17 2.065 1_665 S
Co12 O18 2.042 . S
Co12 O21 2.097 1_565 S
Co12 O25 2.042 1_554 S
C13 O21 1.253 . S
C13 O26 1.263 . S
H14 C10 0.931 1_565 S
O15 Co0 2.262 1_556 S
O15 Co12 2.097 1_456 S
O15 C39 1.253 . S
O16 Co12 2.065 1_446 S
O16 C32 1.221 . S
O17 Co12 2.065 1_445 S
O17 C27 1.221 . S
O18 Co12 2.042 . S
O18 C33 1.237 . S
O19 Co0 1.958 1_655 S
O19 C33 1.278 . S
O20 Co6 1.950 1_455 S
O20 C32 1.277 . S
O21 Co6 2.262 1_554 S
O21 Co12 2.097 1_545 S
O21 C13 1.253 . S
O22 Co6 1.958 1_565 S
O22 C40 1.278 . S
O23 Co0 1.950 1_545 S
O23 C27 1.277 . S
O24 Co0 2.057 1_556 S
O24 C39 1.263 . S
O25 Co12 2.042 1_556 S
O25 C40 1.237 . S
O26 Co6 2.057 1_554 S
O26 C13 1.263 . S
C27 O17 1.221 . S
C27 O23 1.277 . S
C28 C11 1.361 . S
C28 H29 0.960 . S
C28 H30 0.961 . S
C28 H31 0.961 . S
H29 C28 0.960 . S
H30 C28 0.961 . S
H31 C28 0.961 . S
C32 O16 1.221 . S
C32 O20 1.277 . S
C33 O18 1.237 . S
C33 O19 1.278 . S
H34 C2 0.931 1_655 S
H35 C38 0.961 . S
H36 C38 0.961 . S
H37 C38 0.960 . S
C38 C4 1.361 . S
C38 H35 0.961 . S
C38 H36 0.961 . S
C38 H37 0.960 . S
C39 O15 1.253 . S
C39 O24 1.263 . S
C40 O22 1.278 . S
C40 O25 1.237 . S
H41 C5 0.930 . S
H42 C9 0.930 . S
Co43 N44 2.034 . S
Co43 O58 2.262 . S
Co43 O62 1.958 . S
Co43 O66 1.950 . S
Co43 O67 2.057 . S
N44 Co43 2.034 . S
N44 C45 1.366 . S
N44 C47 1.332 . S
C45 N44 1.366 . S
C45 C48 1.377 . S
C45 H77 0.931 . S
N46 C47 1.346 . S
N46 C48 1.337 . S
C47 N44 1.332 . S
C47 N46 1.346 . S
C47 C81 1.361 . S
C48 C45 1.377 . S
C48 N46 1.337 . S
C48 H84 0.930 . S
Co49 N50 2.034 . S
Co49 O63 1.950 . S
Co49 O64 2.262 . S
Co49 O65 1.958 . S
Co49 O69 2.057 . S
N50 Co49 2.034 . S
N50 C53 1.366 . S
N50 C54 1.332 . S
N51 C52 1.337 . S
N51 C54 1.346 . S
C52 N51 1.337 . S
C52 C53 1.377 . S
C52 H85 0.930 . S
C53 N50 1.366 . S
C53 C52 1.377 . S
C53 H57 0.931 . S
C54 N50 1.332 . S
C54 N51 1.346 . S
C54 C71 1.361 . S
Co55 O58 2.097 . S
Co55 O59 2.065 . S
Co55 O60 2.065 . S
Co55 O61 2.042 . S
Co55 O64 2.097 . S
Co55 O68 2.042 . S
C56 O64 1.253 . S
C56 O69 1.263 . S
H57 C53 0.931 . S
O58 Co43 2.262 . S
O58 Co55 2.097 . S
O58 C82 1.253 . S
O59 Co55 2.065 . S
O59 C75 1.221 . S
O60 Co55 2.065 . S
O60 C70 1.221 . S
O61 Co55 2.042 . S
O61 C76 1.237 . S
O62 Co43 1.958 . S
O62 C76 1.278 . S
O63 Co49 1.950 . S
O63 C75 1.277 . S
O64 Co49 2.262 . S
O64 Co55 2.097 . S
O64 C56 1.253 . S
O65 Co49 1.958 . S
O65 C83 1.278 . S
O66 Co43 1.950 . S
O66 C70 1.277 . S
O67 Co43 2.057 . S
O67 C82 1.263 . S
O68 Co55 2.042 . S
O68 C83 1.237 . S
O69 Co49 2.057 . S
O69 C56 1.263 . S
C70 O60 1.221 . S
C70 O66 1.277 . S
C71 C54 1.361 . S
C71 H72 0.960 . S
C71 H73 0.961 . S
C71 H74 0.961 . S
H72 C71 0.960 . S
H73 C71 0.961 . S
H74 C71 0.961 . S
C75 O59 1.221 . S
C75 O63 1.277 . S
C76 O61 1.237 . S
C76 O62 1.278 . S
H77 C45 0.931 . S
H78 C81 0.961 . S
H79 C81 0.961 . S
H80 C81 0.960 . S
C81 C47 1.361 . S
C81 H78 0.961 . S
C81 H79 0.961 . S
C81 H80 0.960 . S
C82 O58 1.253 . S
C82 O67 1.263 . S
C83 O65 1.278 . S
C83 O68 1.237 . S
H84 C48 0.930 . S
H85 C52 0.930 . S
C86 C87 1.369 . S
C86 C88 1.419 . S
C86 H90 0.930 . S
C87 C86 1.369 . S
C87 C96 1.429 . S
C88 C86 1.419 . S
C88 C89 1.363 . S
C88 H91 0.929 . S
C89 C88 1.363 . S
C89 C95 1.428 . S
H90 C86 0.930 . S
H91 C88 0.929 . S
S92 N93 1.613 . S
S92 N94 1.610 . S
N93 S92 1.613 . S
N93 C96 1.350 . S
N94 S92 1.610 . S
N94 C95 1.351 . S
C95 C89 1.428 . S
C95 N94 1.351 . S
C95 C96 1.434 . S
C96 C87 1.429 . S
C96 N93 1.350 . S
C96 C95 1.434 . S
C97 C98 1.369 . S
C97 C99 1.419 . S
C97 H101 0.930 . S
C98 C97 1.369 . S
C98 C107 1.429 . S
C99 C97 1.419 . S
C99 C100 1.363 . S
C99 H102 0.929 . S
C100 C99 1.363 . S
C100 C106 1.428 . S
H101 C97 0.930 . S
H102 C99 0.929 . S
S103 N104 1.613 . S
S103 N105 1.610 . S
N104 S103 1.613 . S
N104 C107 1.350 . S
N105 S103 1.610 . S
N105 C106 1.351 . S
C106 C100 1.428 . S
C106 N105 1.351 . S
C106 C107 1.434 . S
C107 C98 1.429 . S
C107 N104 1.350 . S
C107 C106 1.434 . S
C108 C109 1.369 . S
C108 C110 1.419 . S
C108 H112 0.930 . S
C109 C108 1.369 . S
C109 C118 1.429 . S
C110 C108 1.419 . S
C110 C111 1.363 . S
C110 H113 0.929 . S
C111 C110 1.363 . S
C111 C117 1.428 . S
H112 C108 0.930 . S
H113 C110 0.929 . S
S114 N115 1.613 . S
S114 N116 1.610 . S
N115 S114 1.613 . S
N115 C118 1.350 . S
N116 S114 1.610 . S
N116 C117 1.351 . S
C117 C111 1.428 . S
C117 N116 1.351 . S
C117 C118 1.434 . S
C118 C109 1.429 . S
C118 N115 1.350 . S
C118 C117 1.434 . S
C119 C120 1.369 . S
C119 C121 1.419 . S
C119 H123 0.930 . S
C120 C119 1.369 . S
C120 C129 1.429 . S
C121 C119 1.419 . S
C121 C122 1.363 . S
C121 H124 0.929 . S
C122 C121 1.363 . S
C122 C128 1.428 . S
H123 C119 0.930 . S
H124 C121 0.929 . S
S125 N126 1.613 . S
S125 N127 1.610 . S
N126 S125 1.613 . S
N126 C129 1.350 . S
N127 S125 1.610 . S
N127 C128 1.351 . S
C128 C122 1.428 . S
C128 N127 1.351 . S
C128 C129 1.434 . S
C129 C120 1.429 . S
C129 N126 1.350 . S
C129 C128 1.434 . S
C130 C131 1.369 . S
C130 C132 1.419 . S
C130 H134 0.930 . S
C131 C130 1.369 . S
C131 C140 1.429 . S
C132 C130 1.419 . S
C132 C133 1.363 . S
C132 H135 0.929 . S
C133 C132 1.363 . S
C133 C139 1.428 . S
H134 C130 0.930 . S
H135 C132 0.929 . S
S136 N137 1.613 . S
S136 N138 1.610 . S
N137 S136 1.613 . S
N137 C140 1.350 . S
N138 S136 1.610 . S
N138 C139 1.351 . S
C139 C133 1.428 . S
C139 N138 1.351 . S
C139 C140 1.434 . S
C140 C131 1.429 . S
C140 N137 1.350 . S
C140 C139 1.434 . S
C141 C142 1.369 . S
C141 C143 1.419 . S
C141 H145 0.930 . S
C142 C141 1.369 . S
C142 C151 1.429 . S
C143 C141 1.419 . S
C143 C144 1.363 . S
C143 H146 0.929 . S
C144 C143 1.363 . S
C144 C150 1.428 . S
H145 C141 0.930 . S
H146 C143 0.929 . S
S147 N148 1.613 . S
S147 N149 1.610 . S
N148 S147 1.613 . S
N148 C151 1.350 . S
N149 S147 1.610 . S
N149 C150 1.351 . S
C150 C144 1.428 . S
C150 N149 1.351 . S
C150 C151 1.434 . S
C151 C142 1.429 . S
C151 N148 1.350 . S
C151 C150 1.434 . S
C152 C153 1.369 . S
C152 C154 1.419 . S
C152 H156 0.930 . S
C153 C152 1.369 . S
C153 C162 1.429 . S
C154 C152 1.419 . S
C154 C155 1.363 . S
C154 H157 0.929 . S
C155 C154 1.363 . S
C155 C161 1.428 . S
H156 C152 0.930 . S
H157 C154 0.929 . S
S158 N159 1.613 . S
S158 N160 1.610 . S
N159 S158 1.613 . S
N159 C162 1.350 . S
N160 S158 1.610 . S
N160 C161 1.351 . S
C161 C155 1.428 . S
C161 N160 1.351 . S
C161 C162 1.434 . S
C162 C153 1.429 . S
C162 N159 1.350 . S
C162 C161 1.434 . S
C163 C164 1.369 . S
C163 C165 1.419 . S
C163 H167 0.930 . S
C164 C163 1.369 . S
C164 C173 1.429 . S
C165 C163 1.419 . S
C165 C166 1.363 . S
C165 H168 0.929 . S
C166 C165 1.363 . S
C166 C172 1.428 . S
H167 C163 0.930 . S
H168 C165 0.929 . S
S169 N170 1.613 . S
S169 N171 1.610 . S
N170 S169 1.613 . S
N170 C173 1.350 . S
N171 S169 1.610 . S
N171 C172 1.351 . S
C172 C166 1.428 . S
C172 N171 1.351 . S
C172 C173 1.434 . S
C173 C164 1.429 . S
C173 N170 1.350 . S
C173 C172 1.434 . S
C87 C27 1.491 . S
C89 C83 1.481 . S
C98 C13 1.450 . S
C100 C82 1.460 . S
C109 C33 1.480 . S
C111 C75 1.493 . S
C120 N3 1.252 . S
C122 N51 1.257 . S
C131 C39 1.458 . S
C133 C56 1.457 . S
C142 C76 1.480 . S
C144 C32 1.492 . S
C153 N8 1.256 . S
C155 N46 1.256 . S
C164 C70 1.494 . S
C166 C40 1.483 . S
