# Generated by pormake.
# Topology cdl, (4)-cn, num edge types: 1
# Building blocks:
#     Node 0, Type 0, BuildingBlock: ESEHIV_clean_sbu_0, # of connection points: 4
#     Node 1, Type 0, BuildingBlock: ESEHIV_clean_sbu_0, # of connection points: 4
#     Node 2, Type 0, BuildingBlock: ESEHIV_clean_sbu_0, # of connection points: 4
#     Node 3, Type 0, BuildingBlock: ESEHIV_clean_sbu_0, # of connection points: 4
#     Edge 4, Type (0, 0), BuildingBlock: EZIPEK_clean_linker_0, # of connection points: 2
#     Edge 5, Type (0, 0), BuildingBlock: EZIPEK_clean_linker_0, # of connection points: 2
#     Edge 6, Type (0, 0), BuildingBlock: EZIPEK_clean_linker_0, # of connection points: 2
#     Edge 7, Type (0, 0), BuildingBlock: EZIPEK_clean_linker_0, # of connection points: 2
#     Edge 8, Type (0, 0), BuildingBlock: EZIPEK_clean_linker_0, # of connection points: 2
#     Edge 9, Type (0, 0), BuildingBlock: EZIPEK_clean_linker_0, # of connection points: 2
#     Edge 10, Type (0, 0), BuildingBlock: EZIPEK_clean_linker_0, # of connection points: 2
#     Edge 11, Type (0, 0), BuildingBlock: EZIPEK_clean_linker_0, # of connection points: 2
# Relax obj value: 0.000
# Max RMSD: 0.146
# Mean RMSD: 0.095
data_MOF--net-cdl--node1-ESEHIV_clean_sbu_0--edge1-EZIPEK_clean_linker_0
_symmetry_space_group_name_H-M    P1
_symmetry_Int_Tables_number       1
_symmetry_cell_setting            triclinic
loop_
_symmetry_equiv_pos_as_xyz
'x, y, z'
_cell_length_a     10.909809
_cell_length_b     13.062561
_cell_length_c     47.529298
_cell_angle_alpha  101.17502
_cell_angle_beta   100.41931
_cell_angle_gamma 88.459026
loop_
_atom_site_label
_atom_site_type_symbol
_atom_site_fract_x
_atom_site_fract_y
_atom_site_fract_z
_atom_type_partial_charge
Cu0 Cu 1.01393 0.18227 0.12913 0.0
N1 N 0.92001 0.05785 0.11654 0.0
N2 N 0.8711 0.88914 0.11202 0.0
C3 C 0.92784 0.97469 0.1298 0.0
C4 C 0.82534 0.91961 0.08667 0.0
C5 C 0.8549 1.02344 0.08957 0.0
O6 O 0.10568 0.18395 0.16859 0.0
C7 C 0.07086 0.20451 0.07582 0.0
O8 O 0.95358 0.23251 0.07183 0.0
H9 H 0.981 0.97449 0.15133 0.0
H10 H 0.83609 0.06861 0.07252 0.0
N11 N 0.91432 0.30244 0.13085 0.0
N12 N 0.86052 0.46929 0.13098 0.0
C13 C 0.94328 0.39376 0.12428 0.0
C14 C 0.80914 0.32103 0.14204 0.0
C15 C 0.77656 0.42407 0.14245 0.0
C16 C 0.0413 0.17481 0.18787 0.0
O17 O 0.91997 0.16327 0.18024 0.0
H18 H 0.02531 0.40559 0.11542 0.0
H19 H 0.76056 0.26441 0.14991 0.0
O20 O 0.12154 0.18289 0.10032 0.0
H21 H 0.77765 0.86921 0.06715 0.0
H22 H 0.69748 0.46299 0.15056 0.0
Cu23 Cu 0.287 1.03094 0.65755 0.0
N24 N 0.31188 0.10939 0.69562 0.0
N25 N 0.29801 0.15998 0.74256 0.0
C26 C 0.26269 0.08864 0.71798 0.0
C27 C 0.37247 0.22831 0.73563 0.0
C28 C 0.38127 0.19661 0.70662 0.0
O29 O 0.13531 0.9483 0.6515 0.0
C30 C 0.53076 1.00356 0.65075 0.0
O31 O 0.51875 0.10422 0.65149 0.0
H32 H 0.20026 1.02389 0.7162 0.0
H33 H 0.43296 0.23552 0.69431 0.0
N34 N 0.2625 0.11652 0.62967 0.0
N35 N 0.2513 0.1649 0.5868 0.0
C36 C 0.26571 0.08464 0.6011 0.0
C37 C 0.24452 0.22039 0.63343 0.0
C38 C 0.23792 0.2506 0.6069 0.0
C39 C 0.03821 1.00258 0.6546 0.0
O40 O 0.0485 0.10469 0.66134 0.0
H41 H 0.28123 1.0047 0.59112 0.0
H42 H 0.23851 0.27076 0.65405 0.0
O43 O 0.4373 0.95046 0.65265 0.0
H44 H 0.41453 0.29728 0.75031 0.0
H45 H 0.22603 0.32914 0.60271 0.0
Cu46 Cu 0.03908 0.16287 0.90082 0.0
N47 N 0.94439 1.0384 0.88959 0.0
N48 N 0.89202 0.87057 0.88542 0.0
C49 C 0.97017 0.94956 0.89995 0.0
C50 C 0.81424 0.91117 0.865 0.0
C51 C 0.84561 1.01476 0.86787 0.0
O52 O 0.13879 0.16662 0.93967 0.0
C53 C 0.08392 0.17141 0.84508 0.0
O54 O 0.96165 0.17193 0.83964 0.0
H55 H 0.04659 0.94206 0.91741 0.0
H56 H 0.80011 0.06846 0.85474 0.0
N57 N 0.93955 0.28254 0.90412 0.0
N58 N 0.88962 0.45059 0.90503 0.0
C59 C 0.95803 0.3697 0.89415 0.0
C60 C 0.85603 0.30926 0.92191 0.0
C61 C 0.82586 0.41288 0.92268 0.0
C62 C 0.08259 0.1458 0.95922 0.0
O63 O 0.9652 0.11648 0.95211 0.0
H64 H 0.02701 0.37601 0.88089 0.0
H65 H 0.82379 0.25881 0.93461 0.0
O66 O 0.14005 0.16895 0.87096 0.0
H67 H 0.7398 0.86883 0.84919 0.0
H68 H 0.76444 0.45798 0.9358 0.0
Cu69 Cu 0.23661 0.27472 0.39545 0.0
N70 N 0.20694 0.19542 0.35752 0.0
N71 N 0.17411 0.15847 0.30884 0.0
C72 C 0.21626 0.23004 0.33303 0.0
C73 C 0.13775 0.07551 0.31837 0.0
C74 C 0.15804 0.09852 0.34844 0.0
O75 O 0.38822 0.35607 0.40052 0.0
C76 C 0.99248 0.30187 0.40103 0.0
O77 O 1.00369 0.2005 0.39893 0.0
H78 H 0.24697 0.30801 0.33286 0.0
H79 H 0.13339 0.04988 0.36259 0.0
N80 N 0.26277 0.19113 0.42381 0.0
N81 N 0.2739 0.14525 0.46701 0.0
C82 C 0.24871 0.22245 0.45176 0.0
C83 C 0.29947 0.09098 0.42148 0.0
C84 C 0.3061 0.06229 0.4482 0.0
C85 C 0.48204 0.30215 0.39432 0.0
O86 O 0.46848 0.20111 0.38483 0.0
H87 H 0.2208 0.30025 0.46077 0.0
H88 H 0.32056 1.04241 0.40182 0.0
O89 O 0.08723 0.35606 0.40055 0.0
H90 H 0.09461 1.00536 0.30452 0.0
H91 H 0.33275 0.98691 0.4535 0.0
C92 C 0.75478 0.62035 0.11238 0.0
C93 C 0.86245 0.5763 0.12694 0.0
C94 C 0.97994 0.73523 0.1285 0.0
C95 C 0.86836 0.78434 0.11773 0.0
N96 N 0.64386 0.77971 0.1064 0.0
N97 N 0.06885 0.60476 0.1558 0.0
C98 C 0.75384 0.72865 0.11174 0.0
C99 C 0.97273 0.63759 0.13709 0.0
N100 N 0.65577 0.55825 0.09784 0.0
N101 N 0.09309 0.77843 0.1291 0.0
H102 H 0.06339 0.53721 0.16416 0.0
H103 H 0.14725 0.65094 0.16561 0.0
H104 H 0.10269 0.84527 0.12074 0.0
H105 H 0.177 0.74079 0.13458 0.0
H106 H 0.5794 0.58567 0.08486 0.0
H107 H 0.65658 0.47741 0.09594 0.0
H108 H 0.55743 0.7441 0.10428 0.0
H109 H 0.63956 0.86017 0.10743 0.0
C110 C 0.6992 0.96107 0.62182 0.0
C111 C 0.65369 0.95654 0.64762 0.0
C112 C 0.8656 0.92723 0.6722 0.0
C113 C 0.91198 0.9558 0.64884 0.0
N114 N 0.87769 0.98906 0.60005 0.0
N115 N 0.68886 0.92673 0.69685 0.0
C116 C 0.82995 0.96696 0.6229 0.0
C117 C 0.73522 0.93401 0.67245 0.0
N118 N 0.61634 0.96169 0.59659 0.0
N119 N 0.94707 0.89631 0.69429 0.0
H120 H 0.59357 0.92829 0.69727 0.0
H121 H 0.74423 0.92281 0.71687 0.0
H122 H 0.0424 0.88999 0.69401 0.0
H123 H 0.91985 0.86797 0.71125 0.0
H124 H 0.64203 0.95838 0.57639 0.0
H125 H 0.52025 0.95661 0.59561 0.0
H126 H 0.82384 1.01042 0.58171 0.0
H127 H 0.97335 0.98877 0.59996 0.0
C128 C 1.00492 0.61016 0.90283 0.0
C129 C 0.89053 0.55695 0.90034 0.0
C130 C 0.77914 0.71764 0.89285 0.0
C131 C 0.89175 0.76473 0.89054 0.0
N132 N 0.10797 0.74156 0.88583 0.0
N133 N 0.66685 0.55494 0.88544 0.0
C134 C 1.00387 0.70694 0.89338 0.0
C135 C 0.77678 0.60921 0.89317 0.0
N136 N 0.11398 0.57145 0.91551 0.0
N137 N 0.67587 0.77684 0.8961 0.0
H138 H 0.66224 0.47415 0.88334 0.0
H139 H 0.58271 0.5886 0.87782 0.0
H140 H 0.67671 0.8578 0.89831 0.0
H141 H 0.59454 0.74695 0.90017 0.0
H142 H 0.19835 0.61208 0.91974 0.0
H143 H 0.11728 0.5058 0.92506 0.0
H144 H 0.189 0.69752 0.88544 0.0
H145 H 0.10818 0.80771 0.8766 0.0
C146 C 0.68849 0.33641 0.42694 0.0
C147 C 0.60927 0.34692 0.40055 0.0
C148 C 0.78975 0.37076 0.37834 0.0
C149 C 0.86861 0.34815 0.40353 0.0
N150 N 0.90016 0.34061 0.45437 0.0
N151 N 0.57861 0.40233 0.35455 0.0
C152 C 0.81979 0.34234 0.42883 0.0
C153 C 0.65845 0.37477 0.37746 0.0
N154 N 0.63768 0.31461 0.44941 0.0
N155 N 0.84012 0.38124 0.35474 0.0
H156 H 0.48235 0.40529 0.35379 0.0
H157 H 0.60714 0.42985 0.33762 0.0
H158 H 0.93613 0.38281 0.35539 0.0
H159 H 0.78797 0.38597 0.33443 0.0
H160 H 0.68933 0.29408 0.46811 0.0
H161 H 0.54161 0.31443 0.44891 0.0
H162 H 0.87238 0.34237 0.47427 0.0
H163 H 0.99651 0.34615 0.45594 0.0
C164 C 0.14622 0.26477 1.00754 0.0
C165 C 0.14065 0.16257 0.99048 0.0
C166 C 0.14433 0.0872 0.03399 0.0
C167 C 0.13487 0.18924 0.05035 0.0
N168 N 0.16851 0.37323 0.05604 0.0
N169 N 0.17661 0.97953 0.98805 0.0
C170 C 0.15125 0.27748 0.03817 0.0
C171 C 0.15523 0.07473 1.00411 0.0
N172 N 0.13715 0.349 0.99417 0.0
N173 N 0.13331 1.00265 0.04639 0.0
H174 H 0.18573 0.97043 0.96621 0.0
H175 H 0.19662 0.91259 0.99681 0.0
H176 H 0.12951 1.00948 0.06843 0.0
H177 H 0.12388 0.92624 0.03478 0.0
H178 H 0.12534 0.4252 1.00475 0.0
H179 H 0.13742 0.34196 0.97194 0.0
H180 H 0.18951 0.4407 0.04921 0.0
H181 H 0.17294 0.38258 0.07853 0.0
C182 C 0.37921 0.16477 0.51827 0.0
C183 C 0.26799 0.1507 0.49728 0.0
C184 C 0.14496 0.15179 0.53577 0.0
C185 C 0.25681 0.16067 0.55656 0.0
N186 N 0.4802 0.16755 0.56844 0.0
N187 N 0.04668 0.12335 0.48458 0.0
C188 C 0.37411 0.16481 0.548 0.0
C189 C 0.15098 0.14255 0.50567 0.0
N190 N 0.48872 0.18144 0.50967 0.0
N191 N 0.03355 0.15292 0.54512 0.0
H192 H 0.04945 0.11665 0.46247 0.0
H193 H 0.95871 0.10888 0.48853 0.0
H194 H 0.02779 0.15613 0.56695 0.0
H195 H 0.94712 0.15533 0.5318 0.0
H196 H 0.57239 0.20139 0.52395 0.0
H197 H 0.49421 0.18164 0.48799 0.0
H198 H 0.56961 0.16037 0.56357 0.0
H199 H 0.47837 0.17163 0.5905 0.0
C200 C 0.06436 0.24377 0.26933 0.0
C201 C 0.15444 0.1721 0.27894 0.0
C202 C 0.18426 0.10829 0.22853 0.0
C203 C 0.09723 0.183 0.21915 0.0
N204 N 0.98227 0.34047 0.23152 0.0
N205 N 0.3192 0.05238 0.2693 0.0
C206 C 0.04654 0.25693 0.23992 0.0
C207 C 0.2207 0.1096 0.25897 0.0
N208 N 0.99015 0.29434 0.28778 0.0
N209 N 0.22657 1.03263 0.20849 0.0
H210 H 0.34738 0.05282 0.29151 0.0
H211 H 0.37906 1.01238 0.25629 0.0
H212 H 0.20271 1.02931 0.18608 0.0
H213 H 0.27868 0.96911 0.21397 0.0
H214 H 0.91413 0.33936 0.28111 0.0
H215 H 0.99675 0.28301 0.3091 0.0
H216 H 0.95271 0.40193 0.24619 0.0
H217 H 0.97024 0.35369 0.21022 0.0
C218 C 0.30019 0.10131 0.78904 0.0
C219 C 0.2528 0.16799 0.76954 0.0
C220 C 0.1172 0.25097 0.80296 0.0
C221 C 0.15246 0.1755 0.82084 0.0
N222 N 0.26605 1.01856 0.82844 0.0
N223 N 0.10415 0.29559 0.75533 0.0
C224 C 0.24212 0.09839 0.81345 0.0
C225 C 0.15828 0.2402 0.77585 0.0
N226 N 0.40145 1.04135 0.78416 0.0
N227 N 0.0474 0.33497 0.81223 0.0
H228 H 0.1321 0.28915 0.7352 0.0
H229 H 0.02481 0.34076 0.75718 0.0
H230 H 1.01724 0.34729 0.83215 0.0
H231 H 0.02994 0.39778 0.80155 0.0
H232 H 0.44915 0.99871 0.79903 0.0
H233 H 0.44393 1.04151 0.76617 0.0
H234 H 0.32036 0.95446 0.82205 0.0
H235 H 0.22337 1.01124 0.84586 0.0
loop_
_geom_bond_atom_site_label_1
_geom_bond_atom_site_label_2
_geom_bond_distance
_geom_bond_site_symmetry_2
_ccdc_geom_bond_type
Cu0 N1 1.999 1_545 S
Cu0 O6 1.974 . S
Cu0 N11 1.985 . S
Cu0 O20 1.959 . S
N1 Cu0 1.999 1_565 S
N1 C3 1.263 . S
N1 C5 1.389 . S
N2 C3 1.358 . S
N2 C4 1.400 . S
C3 N1 1.263 . S
C3 N2 1.358 . S
C3 H9 0.930 . S
C4 N2 1.400 . S
C4 C5 1.351 . S
C4 H21 0.930 . S
C5 N1 1.389 . S
C5 C4 1.351 . S
C5 H10 0.930 . S
O6 Cu0 1.974 . S
O6 C16 1.282 . S
C7 O8 1.261 . S
C7 O20 1.251 . S
O8 C7 1.261 . S
H9 C3 0.930 . S
H10 C5 0.930 . S
N11 Cu0 1.985 . S
N11 C13 1.335 . S
N11 C14 1.390 . S
N12 C13 1.345 . S
N12 C15 1.336 . S
C13 N11 1.335 . S
C13 N12 1.345 . S
C13 H18 0.930 . S
C14 N11 1.390 . S
C14 C15 1.346 . S
C14 H19 0.930 . S
C15 N12 1.336 . S
C15 C14 1.346 . S
C15 H22 0.929 . S
C16 O6 1.282 . S
C16 O17 1.216 . S
O17 C16 1.216 . S
H18 C13 0.930 . S
H19 C14 0.930 . S
O20 Cu0 1.959 . S
O20 C7 1.251 . S
H21 C4 0.930 . S
H22 C15 0.929 . S
Cu23 N24 1.999 . S
Cu23 O29 1.974 1_455 S
Cu23 N34 1.985 . S
Cu23 O43 1.959 . S
N24 Cu23 1.999 . S
N24 C26 1.263 . S
N24 C28 1.389 . S
N25 C26 1.358 . S
N25 C27 1.400 . S
C26 N24 1.263 . S
C26 N25 1.358 . S
C26 H32 0.930 1_455 S
C27 N25 1.400 . S
C27 C28 1.351 . S
C27 H44 0.930 . S
C28 N24 1.389 . S
C28 C27 1.351 . S
C28 H33 0.930 . S
O29 Cu23 1.974 1_655 S
O29 C39 1.282 . S
C30 O31 1.261 . S
C30 O43 1.251 . S
O31 C30 1.261 . S
H32 C26 0.930 1_655 S
H33 C28 0.930 . S
N34 Cu23 1.985 . S
N34 C36 1.335 . S
N34 C37 1.390 1_455 S
N35 C36 1.345 . S
N35 C38 1.336 1_455 S
C36 N34 1.335 . S
C36 N35 1.345 . S
C36 H41 0.930 . S
C37 N34 1.390 1_655 S
C37 C38 1.346 . S
C37 H42 0.930 . S
C38 N35 1.336 1_655 S
C38 C37 1.346 . S
C38 H45 0.929 . S
C39 O29 1.282 . S
C39 O40 1.216 . S
O40 C39 1.216 . S
H41 C36 0.930 . S
H42 C37 0.930 . S
O43 Cu23 1.959 . S
O43 C30 1.251 . S
H44 C27 0.930 . S
H45 C38 0.929 . S
Cu46 N47 1.999 1_545 S
Cu46 O52 1.974 . S
Cu46 N57 1.985 . S
Cu46 O66 1.959 . S
N47 Cu46 1.999 1_565 S
N47 C49 1.263 . S
N47 C51 1.389 . S
N48 C49 1.358 . S
N48 C50 1.400 . S
C49 N47 1.263 . S
C49 N48 1.358 . S
C49 H55 0.930 1_455 S
C50 N48 1.400 . S
C50 C51 1.351 . S
C50 H67 0.930 . S
C51 N47 1.389 . S
C51 C50 1.351 . S
C51 H56 0.930 . S
O52 Cu46 1.974 . S
O52 C62 1.282 1_455 S
C53 O54 1.261 . S
C53 O66 1.251 1_655 S
O54 C53 1.261 . S
H55 C49 0.930 1_655 S
H56 C51 0.930 . S
N57 Cu46 1.985 . S
N57 C59 1.335 . S
N57 C60 1.390 1_455 S
N58 C59 1.345 . S
N58 C61 1.336 1_455 S
C59 N57 1.335 . S
C59 N58 1.345 . S
C59 H64 0.930 . S
C60 N57 1.390 1_655 S
C60 C61 1.346 . S
C60 H65 0.930 . S
C61 N58 1.336 1_655 S
C61 C60 1.346 . S
C61 H68 0.929 . S
C62 O52 1.282 1_655 S
C62 O63 1.216 . S
O63 C62 1.216 . S
H64 C59 0.930 . S
H65 C60 0.930 . S
O66 Cu46 1.959 . S
O66 C53 1.251 1_455 S
H67 C50 0.930 . S
H68 C61 0.929 . S
Cu69 N70 1.999 . S
Cu69 O75 1.974 . S
Cu69 N80 1.985 . S
Cu69 O89 1.959 1_455 S
N70 Cu69 1.999 . S
N70 C72 1.263 . S
N70 C74 1.389 . S
N71 C72 1.358 . S
N71 C73 1.400 . S
C72 N70 1.263 . S
C72 N71 1.358 . S
C72 H78 0.930 . S
C73 N71 1.400 . S
C73 C74 1.351 . S
C73 H90 0.930 1_455 S
C74 N70 1.389 . S
C74 C73 1.351 . S
C74 H79 0.930 1_455 S
O75 Cu69 1.974 . S
O75 C85 1.282 . S
C76 O77 1.261 1_545 S
C76 O89 1.251 . S
O77 C76 1.261 1_565 S
H78 C72 0.930 . S
H79 C74 0.930 1_655 S
N80 Cu69 1.985 . S
N80 C82 1.335 . S
N80 C83 1.390 . S
N81 C82 1.345 . S
N81 C84 1.336 . S
C82 N80 1.335 . S
C82 N81 1.345 . S
C82 H87 0.930 . S
C83 N80 1.390 . S
C83 C84 1.346 . S
C83 H88 0.930 . S
C84 N81 1.336 . S
C84 C83 1.346 . S
C84 H91 0.929 . S
C85 O75 1.282 . S
C85 O86 1.216 1_545 S
O86 C85 1.216 1_565 S
H87 C82 0.930 . S
H88 C83 0.930 . S
O89 Cu69 1.959 1_655 S
O89 C76 1.251 . S
H90 C73 0.930 1_655 S
H91 C84 0.929 . S
C92 C93 1.363 . S
C92 C98 1.379 . S
C92 N100 1.356 . S
C93 C92 1.363 . S
C93 C99 1.363 . S
C94 C95 1.363 . S
C94 C99 1.379 . S
C94 N101 1.356 . S
C95 C94 1.363 . S
C95 C98 1.363 . S
N96 C98 1.356 . S
N96 H108 0.984 . S
N96 H109 0.985 . S
N97 C99 1.356 . S
N97 H102 0.984 . S
N97 H103 0.985 . S
C98 C92 1.379 . S
C98 C95 1.363 . S
C98 N96 1.356 . S
C99 C93 1.363 . S
C99 C94 1.379 . S
C99 N97 1.356 . S
N100 C92 1.356 . S
N100 H106 0.984 . S
N100 H107 0.984 . S
N101 C94 1.356 . S
N101 H104 0.984 . S
N101 H105 0.985 . S
H102 N97 0.984 . S
H103 N97 0.985 . S
H104 N101 0.984 . S
H105 N101 0.985 . S
H106 N100 0.984 . S
H107 N100 0.984 . S
H108 N96 0.984 . S
H109 N96 0.985 . S
C110 C111 1.363 . S
C110 C116 1.379 . S
C110 N118 1.356 . S
C111 C110 1.363 . S
C111 C117 1.363 . S
C112 C113 1.363 . S
C112 C117 1.379 . S
C112 N119 1.356 . S
C113 C112 1.363 . S
C113 C116 1.363 . S
N114 C116 1.356 . S
N114 H126 0.984 1_545 S
N114 H127 0.985 . S
N115 C117 1.356 . S
N115 H120 0.984 . S
N115 H121 0.985 . S
C116 C110 1.379 . S
C116 C113 1.363 . S
C116 N114 1.356 . S
C117 C111 1.363 . S
C117 C112 1.379 . S
C117 N115 1.356 . S
N118 C110 1.356 . S
N118 H124 0.984 1_545 S
N118 H125 0.984 . S
N119 C112 1.356 . S
N119 H122 0.984 . S
N119 H123 0.985 . S
H120 N115 0.984 . S
H121 N115 0.985 . S
H122 N119 0.984 . S
H123 N119 0.985 . S
H124 N118 0.984 1_565 S
H125 N118 0.984 . S
H126 N114 0.984 1_565 S
H127 N114 0.985 . S
C128 C129 1.363 . S
C128 C134 1.379 . S
C128 N136 1.356 . S
C129 C128 1.363 . S
C129 C135 1.363 1_455 S
C130 C131 1.363 1_655 S
C130 C135 1.379 . S
C130 N137 1.356 . S
C131 C130 1.363 1_455 S
C131 C134 1.363 . S
N132 C134 1.356 . S
N132 H144 0.984 . S
N132 H145 0.985 . S
N133 C135 1.356 . S
N133 H138 0.984 . S
N133 H139 0.985 . S
C134 C128 1.379 . S
C134 C131 1.363 . S
C134 N132 1.356 . S
C135 C129 1.363 1_655 S
C135 C130 1.379 . S
C135 N133 1.356 . S
N136 C128 1.356 . S
N136 H142 0.984 . S
N136 H143 0.984 . S
N137 C130 1.356 . S
N137 H140 0.984 . S
N137 H141 0.985 . S
H138 N133 0.984 . S
H139 N133 0.985 . S
H140 N137 0.984 . S
H141 N137 0.985 . S
H142 N136 0.984 . S
H143 N136 0.984 . S
H144 N132 0.984 . S
H145 N132 0.985 . S
C146 C147 1.363 1_565 S
C146 C152 1.379 . S
C146 N154 1.356 . S
C147 C146 1.363 1_545 S
C147 C153 1.363 . S
C148 C149 1.363 . S
C148 C153 1.379 . S
C148 N155 1.356 . S
C149 C148 1.363 . S
C149 C152 1.363 1_545 S
N150 C152 1.356 . S
N150 H162 0.984 . S
N150 H163 0.985 . S
N151 C153 1.356 . S
N151 H156 0.984 . S
N151 H157 0.985 . S
C152 C146 1.379 . S
C152 C149 1.363 1_565 S
C152 N150 1.356 . S
C153 C147 1.363 . S
C153 C148 1.379 . S
C153 N151 1.356 . S
N154 C146 1.356 . S
N154 H160 0.984 . S
N154 H161 0.984 . S
N155 C148 1.356 . S
N155 H158 0.984 . S
N155 H159 0.985 . S
H156 N151 0.984 . S
H157 N151 0.985 . S
H158 N155 0.984 . S
H159 N155 0.985 . S
H160 N154 0.984 . S
H161 N154 0.984 . S
H162 N150 0.984 . S
H163 N150 0.985 . S
C164 C165 1.363 . S
C164 C170 1.379 1_556 S
C164 N172 1.356 . S
C165 C164 1.363 . S
C165 C171 1.363 1_455 S
C166 C167 1.363 . S
C166 C171 1.379 1_454 S
C166 N173 1.356 1_545 S
C167 C166 1.363 . S
C167 C170 1.363 . S
N168 C170 1.356 . S
N168 H180 0.984 . S
N168 H181 0.985 . S
N169 C171 1.356 1_565 S
N169 H174 0.984 1_565 S
N169 H175 0.985 . S
C170 C164 1.379 1_554 S
C170 C167 1.363 . S
C170 N168 1.356 . S
C171 C165 1.363 1_655 S
C171 C166 1.379 1_656 S
C171 N169 1.356 1_545 S
N172 C164 1.356 . S
N172 H178 0.984 . S
N172 H179 0.984 . S
N173 C166 1.356 1_565 S
N173 H176 0.984 . S
N173 H177 0.988 . S
H174 N169 0.984 1_545 S
H175 N169 0.985 . S
H176 N173 0.984 . S
H177 N173 0.988 . S
H178 N172 0.984 . S
H179 N172 0.984 . S
H180 N168 0.984 . S
H181 N168 0.985 . S
C182 C183 1.363 . S
C182 C188 1.379 . S
C182 N190 1.356 . S
C183 C182 1.363 . S
C183 C189 1.363 . S
C184 C185 1.363 . S
C184 C189 1.379 . S
C184 N191 1.356 . S
C185 C184 1.363 . S
C185 C188 1.363 . S
N186 C188 1.356 . S
N186 H198 0.984 . S
N186 H199 0.985 . S
N187 C189 1.356 1_565 S
N187 H192 0.984 . S
N187 H193 0.985 1_455 S
C188 C182 1.379 . S
C188 C185 1.363 . S
C188 N186 1.356 . S
C189 C183 1.363 . S
C189 C184 1.379 . S
C189 N187 1.356 1_545 S
N190 C182 1.356 . S
N190 H196 0.984 . S
N190 H197 0.984 . S
N191 C184 1.356 . S
N191 H194 0.984 . S
N191 H195 0.985 1_445 S
H192 N187 0.984 . S
H193 N187 0.985 1_655 S
H194 N191 0.984 . S
H195 N191 0.985 1_665 S
H196 N190 0.984 . S
H197 N190 0.984 . S
H198 N186 0.984 . S
H199 N186 0.985 . S
C200 C201 1.363 . S
C200 C206 1.379 . S
C200 N208 1.356 . S
C201 C200 1.363 . S
C201 C207 1.357 1_545 S
C202 C203 1.363 . S
C202 C207 1.376 1_545 S
C202 N209 1.356 1_545 S
C203 C202 1.363 . S
C203 C206 1.363 . S
N204 C206 1.356 . S
N204 H216 0.984 . S
N204 H217 0.985 . S
N205 C207 1.364 . S
N205 H210 0.984 . S
N205 H211 0.985 . S
C206 C200 1.379 . S
C206 C203 1.363 . S
C206 N204 1.356 . S
C207 C201 1.357 1_565 S
C207 C202 1.376 1_565 S
C207 N205 1.364 . S
N208 C200 1.356 . S
N208 H214 0.984 . S
N208 H215 0.984 . S
N209 C202 1.356 1_565 S
N209 H212 0.984 . S
N209 H213 0.985 . S
H210 N205 0.984 . S
H211 N205 0.985 . S
H212 N209 0.984 . S
H213 N209 0.985 . S
H214 N208 0.984 . S
H215 N208 0.984 . S
H216 N204 0.984 . S
H217 N204 0.985 . S
C218 C219 1.363 1_655 S
C218 C224 1.379 . S
C218 N226 1.356 . S
C219 C218 1.363 1_455 S
C219 C225 1.363 . S
C220 C221 1.363 1_455 S
C220 C225 1.379 . S
C220 N227 1.356 . S
C221 C220 1.363 1_655 S
C221 C224 1.363 . S
N222 C224 1.356 . S
N222 H234 0.984 1_545 S
N222 H235 0.985 . S
N223 C225 1.356 . S
N223 H228 0.984 . S
N223 H229 0.985 . S
C224 C218 1.379 . S
C224 C221 1.363 . S
C224 N222 1.356 . S
C225 C219 1.363 . S
C225 C220 1.379 . S
C225 N223 1.356 . S
N226 C218 1.356 . S
N226 H232 0.984 . S
N226 H233 0.984 . S
N227 C220 1.356 . S
N227 H230 0.984 . S
N227 H231 0.985 . S
H228 N223 0.984 . S
H229 N223 0.985 . S
H230 N227 0.984 . S
H231 N227 0.985 . S
H232 N226 0.984 . S
H233 N226 0.984 . S
H234 N222 0.984 1_565 S
H235 N222 0.985 . S
C93 N12 1.466 . S
C95 N2 1.464 . S
C111 C30 1.497 . S
C113 C39 1.490 . S
C129 N58 1.465 . S
C131 N48 1.463 . S
C147 C85 1.490 . S
C149 C76 1.497 . S
C165 C62 1.573 1_455 S
C167 C7 1.561 . S
C183 N81 1.521 . S
C185 N35 1.497 . S
C201 N71 1.450 . S
C203 C16 1.485 . S
C219 N25 1.616 . S
C221 C53 1.608 . S
