# Generated by pormake.
# Topology sod, (4)-cn, num edge types: 1
# Building blocks:
#     Node 0, Type 0, BuildingBlock: NAHDIM_clean_sbu_0, # of connection points: 4
#     Node 1, Type 0, BuildingBlock: NAHDIM_clean_sbu_0, # of connection points: 4
#     Node 2, Type 0, BuildingBlock: NAHDIM_clean_sbu_0, # of connection points: 4
#     Node 3, Type 0, BuildingBlock: NAHDIM_clean_sbu_0, # of connection points: 4
#     Node 4, Type 0, BuildingBlock: NAHDIM_clean_sbu_0, # of connection points: 4
#     Node 5, Type 0, BuildingBlock: NAHDIM_clean_sbu_0, # of connection points: 4
#     Node 6, Type 0, BuildingBlock: NAHDIM_clean_sbu_0, # of connection points: 4
#     Node 7, Type 0, BuildingBlock: NAHDIM_clean_sbu_0, # of connection points: 4
#     Node 8, Type 0, BuildingBlock: NAHDIM_clean_sbu_0, # of connection points: 4
#     Node 9, Type 0, BuildingBlock: NAHDIM_clean_sbu_0, # of connection points: 4
#     Node 10, Type 0, BuildingBlock: NAHDIM_clean_sbu_0, # of connection points: 4
#     Node 11, Type 0, BuildingBlock: NAHDIM_clean_sbu_0, # of connection points: 4
#     Edge 12, Type (0, 0), None
#     Edge 13, Type (0, 0), None
#     Edge 14, Type (0, 0), None
#     Edge 15, Type (0, 0), None
#     Edge 16, Type (0, 0), None
#     Edge 17, Type (0, 0), None
#     Edge 18, Type (0, 0), None
#     Edge 19, Type (0, 0), None
#     Edge 20, Type (0, 0), None
#     Edge 21, Type (0, 0), None
#     Edge 22, Type (0, 0), None
#     Edge 23, Type (0, 0), None
#     Edge 24, Type (0, 0), None
#     Edge 25, Type (0, 0), None
#     Edge 26, Type (0, 0), None
#     Edge 27, Type (0, 0), None
#     Edge 28, Type (0, 0), None
#     Edge 29, Type (0, 0), None
#     Edge 30, Type (0, 0), None
#     Edge 31, Type (0, 0), None
#     Edge 32, Type (0, 0), None
#     Edge 33, Type (0, 0), None
#     Edge 34, Type (0, 0), None
#     Edge 35, Type (0, 0), None
# Relax obj value: 0.092
# Max RMSD: 0.132
# Mean RMSD: 0.127
data_MOF--net-sod--node1-NAHDIM_clean_sbu_0--edge1-none
_symmetry_space_group_name_H-M    P1
_symmetry_Int_Tables_number       1
_symmetry_cell_setting            triclinic
loop_
_symmetry_equiv_pos_as_xyz
'x, y, z'
_cell_length_a     19.682256
_cell_length_b     19.24133
_cell_length_c     18.98285
_cell_angle_alpha  92.275655
_cell_angle_beta   89.88443
_cell_angle_gamma 96.846645
loop_
_atom_site_label
_atom_site_type_symbol
_atom_site_fract_x
_atom_site_fract_y
_atom_site_fract_z
_atom_type_partial_charge
C0 C 0.17073 0.1793 0.50534 0.0
O1 O 0.194 0.2338 0.46911 0.0
O2 O 0.06731 0.31032 0.44276 0.0
Zn3 Zn 0.04135 0.24308 0.52105 0.0
O4 O 0.9509 0.18285 0.50324 0.0
C5 C 0.01471 0.35771 0.61474 0.0
O6 O 0.98666 0.37804 0.55753 0.0
O7 O 0.11062 0.17457 0.53059 0.0
C8 C 0.89147 0.19617 0.52142 0.0
O9 O 0.88332 0.25654 0.55292 0.0
C10 C 0.02747 0.32448 0.39402 0.0
O11 O 0.96503 0.29185 0.38972 0.0
O12 O 0.04042 0.30017 0.61294 0.0
C13 C 0.88542 0.91077 0.51445 0.0
O14 O 0.91195 0.96737 0.55012 0.0
O15 O 0.72115 0.99494 0.58668 0.0
Zn16 Zn 0.77594 0.99276 0.49775 0.0
O17 O 0.84452 0.07947 0.49297 0.0
C18 C 0.70447 0.02337 0.36916 0.0
O19 O 0.75108 0.07753 0.36275 0.0
O20 O 0.82568 0.908 0.48894 0.0
C21 C 0.83379 0.1404 0.51512 0.0
O22 O 0.77332 0.15091 0.53977 0.0
C23 C 0.74108 0.01688 0.64802 0.0
O24 O 0.80585 0.03921 0.65993 0.0
O25 O 0.70705 0.98338 0.42021 0.0
C26 C 0.92671 0.85366 0.49939 0.0
O27 O 0.90306 0.79986 0.45814 0.0
O28 O 0.03276 0.73398 0.41183 0.0
Zn29 Zn 0.05423 0.78957 0.50366 0.0
O30 O 0.14478 0.84889 0.49697 0.0
C31 C -0.00854 0.68763 0.59232 0.0
O32 O 0.94166 0.69332 0.54785 0.0
O33 O 0.98736 0.85868 0.52298 0.0
C34 C 0.20512 0.83233 0.50074 0.0
O35 O 0.21526 0.76725 0.51085 0.0
C36 C 0.05569 0.67529 0.40243 0.0
O37 O 0.09303 0.65255 0.45187 0.0
O38 O 0.04888 0.72443 0.58474 0.0
C39 C 0.21187 0.12128 0.51338 0.0
O40 O 0.18695 0.06647 0.54835 0.0
O41 O 0.37872 0.03891 0.57377 0.0
Zn42 Zn 0.31978 0.03577 0.48682 0.0
O43 O 0.25036 0.95009 0.48668 0.0
C44 C 0.42377 0.08556 0.39232 0.0
O45 O 0.42589 0.1399 0.43669 0.0
O46 O 0.26967 0.1216 0.4834 0.0
C47 C 0.26268 0.88779 0.49637 0.0
O48 O 0.32583 0.8744 0.50568 0.0
C49 C 0.35662 0.01668 0.63271 0.0
O50 O 0.29178 0.99266 0.63969 0.0
O51 O 0.38074 0.03218 0.40193 0.0
C52 C 0.47317 0.08567 0.33449 0.0
O53 O 0.51986 0.13974 0.32795 0.0
O54 O 0.54172 0.11735 0.15829 0.0
Zn55 Zn 0.54931 0.03716 0.22096 0.0
O56 O 0.63781 0.05422 0.2741 0.0
C57 C 0.59546 0.93887 0.12135 0.0
O58 O 0.64812 0.9876 0.12029 0.0
O59 O 0.47337 0.03272 0.29236 0.0
C60 C 0.64601 0.01118 0.32117 0.0
O61 O 0.5987 0.9581 0.33016 0.0
C62 C 0.59471 0.15654 0.1397 0.0
O63 O 0.65538 0.14454 0.16129 0.0
O64 O 0.54545 0.94737 0.16192 0.0
C65 C 0.17156 0.51628 0.20182 0.0
O66 O 0.18913 0.54294 0.26482 0.0
O67 O 0.05433 0.5692 0.33467 0.0
Zn68 Zn 0.03062 0.4951 0.25681 0.0
O69 O 0.95113 0.51572 0.19673 0.0
C70 C 0.04857 0.38346 0.34873 0.0
O71 O 0.10797 0.42133 0.3594 0.0
O72 O 0.10975 0.49184 0.18914 0.0
C73 C 0.89426 0.53392 0.21763 0.0
O74 O 0.88198 0.54099 0.28539 0.0
C75 C 0.03801 0.63119 0.33866 0.0
O76 O 0.00319 0.6543 0.28742 0.0
O77 O 0.00691 0.40283 0.30446 0.0
C78 C 0.6895 0.02332 0.70283 0.0
O79 O 0.70713 0.04853 0.76633 0.0
O80 O 0.56795 0.10627 0.81325 0.0
Zn81 Zn 0.54584 0.02131 0.74797 0.0
O82 O 0.4681 0.03213 0.68147 0.0
C83 C 0.49045 0.93965 0.86239 0.0
O84 O 0.46393 0.99756 0.87899 0.0
O85 O 0.62672 0.00888 0.68644 0.0
C86 C 0.40493 0.0121 0.69053 0.0
O87 O 0.38406 0.98256 0.74911 0.0
C88 C 0.52792 0.15232 0.82618 0.0
O89 O 0.46844 0.14768 0.79409 0.0
O90 O 0.52636 0.93624 0.80697 0.0
C91 C 0.98171 0.63487 0.64604 0.0
O92 O 0.92624 0.58954 0.6446 0.0
O93 O 0.93175 0.54716 0.81434 0.0
Zn94 Zn 0.0124 0.54343 0.74868 0.0
O95 O -0.00321 0.46248 0.67725 0.0
C96 C 0.1034 0.58295 0.86065 0.0
O97 O 0.06243 0.63192 0.86704 0.0
O98 O 0.0281 0.62916 0.69106 0.0
C99 C 0.02196 0.40474 0.67776 0.0
O100 O 0.05994 0.39101 0.73106 0.0
C101 C 0.91748 0.49448 0.85228 0.0
O102 O 0.95138 0.44007 0.84285 0.0
O103 O 0.09419 0.53728 0.81028 0.0
C104 C 0.34744 0.41377 0.01006 0.0
O105 O 0.35787 0.44782 0.07111 0.0
O106 O 0.20088 0.50535 0.0811 0.0
Zn107 Zn 0.25671 0.51708 0.99142 0.0
O108 O 0.33003 0.60042 0.99731 0.0
C109 C 0.15537 0.57806 0.91471 0.0
O110 O 0.16063 0.62248 0.96926 0.0
O111 O 0.304 0.43221 0.96746 0.0
C112 C 0.32771 0.65879 0.03049 0.0
O113 O 0.27308 0.67016 0.06691 0.0
C114 C 0.22131 0.52097 0.14391 0.0
O115 O 0.2852 0.54676 0.15594 0.0
O116 O 0.19219 0.5282 0.91172 0.0
C117 C 0.39259 0.36196 0.98738 0.0
O118 O 0.38953 0.33549 0.92248 0.0
O119 O 0.50024 0.24303 0.90587 0.0
Zn120 Zn 0.51821 0.29595 -0.00091 0.0
O121 O 0.60277 0.36609 0.99744 0.0
C122 C 0.58839 0.21299 0.09183 0.0
O123 O 0.64353 0.24937 0.06755 0.0
O124 O 0.44044 0.3497 0.02803 0.0
C125 C 0.61042 0.40785 0.05119 0.0
O126 O 0.56499 0.40204 0.10201 0.0
C127 C 0.54442 0.20422 0.88408 0.0
O128 O 0.60164 0.20437 0.91954 0.0
O129 O 0.52964 0.22475 0.07125 0.0
C130 C 0.69689 0.64764 0.9928 0.0
O131 O 0.68594 0.60627 0.93625 0.0
O132 O 0.85356 0.53541 0.10019 0.0
Zn133 Zn 0.78949 0.54911 0.01959 0.0
O134 O 0.71545 0.46718 0.01102 0.0
C135 C 0.86914 0.49639 0.91109 0.0
O136 O 0.85607 0.44117 0.94958 0.0
O137 O 0.7425 0.63609 0.0367 0.0
C138 C 0.66782 0.4636 0.05639 0.0
O139 O 0.66916 0.5116 0.1076 0.0
C140 C 0.84289 0.54742 0.16544 0.0
O141 O 0.78631 0.57195 0.18584 0.0
O142 O 0.84472 0.55259 0.92957 0.0
C143 C 0.65102 0.70092 0.009 0.0
O144 O 0.65499 0.73537 0.07023 0.0
O145 O 0.51995 0.83168 0.9027 0.0
Zn146 Zn 0.52576 0.76781 0.9837 0.0
O147 O 0.43845 0.70178 0.99102 0.0
C148 C 0.5906 0.88026 0.06923 0.0
O149 O 0.63328 0.88215 0.01588 0.0
O150 O 0.60287 0.7083 0.96641 0.0
C151 C 0.38693 0.7128 0.0285 0.0
O152 O 0.38739 0.77171 0.06593 0.0
C153 C 0.48509 0.88281 0.91197 0.0
O154 O 0.45067 0.889 0.97074 0.0
O155 O 0.54078 0.83182 0.07047 0.0
loop_
_geom_bond_atom_site_label_1
_geom_bond_atom_site_label_2
_geom_bond_distance
_geom_bond_site_symmetry_2
_ccdc_geom_bond_type
C0 O1 1.160 . S
C0 O7 1.185 . S
O1 C0 1.160 . S
O2 Zn3 1.899 . S
O2 C10 1.284 . S
Zn3 O2 1.899 . S
Zn3 O4 2.032 1_455 S
Zn3 O7 2.086 . S
Zn3 O12 1.977 . S
O4 Zn3 2.032 1_655 S
O4 C8 1.278 . S
C5 O6 1.203 1_455 S
C5 O12 1.267 . S
O6 C5 1.203 1_655 S
O7 C0 1.185 . S
O7 Zn3 2.086 . S
C8 O4 1.278 . S
C8 O9 1.211 . S
O9 C8 1.211 . S
C10 O2 1.284 . S
C10 O11 1.273 1_455 S
O11 C10 1.273 1_655 S
O12 Zn3 1.977 . S
O12 C5 1.267 . S
C13 O14 1.160 . S
C13 O20 1.185 . S
O14 C13 1.160 . S
O15 Zn16 1.899 1_565 S
O15 C23 1.284 1_565 S
Zn16 O15 1.899 1_545 S
Zn16 O17 2.032 . S
Zn16 O20 2.086 1_545 S
Zn16 O25 1.977 . S
O17 Zn16 2.032 . S
O17 C21 1.278 . S
C18 O19 1.203 . S
C18 O25 1.267 . S
O19 C18 1.203 . S
O20 C13 1.185 . S
O20 Zn16 2.086 1_565 S
C21 O17 1.278 . S
C21 O22 1.211 . S
O22 C21 1.211 . S
C23 O15 1.284 1_545 S
C23 O24 1.273 . S
O24 C23 1.273 . S
O25 Zn16 1.977 . S
O25 C18 1.267 . S
C26 O27 1.160 . S
C26 O33 1.185 . S
O27 C26 1.160 . S
O28 Zn29 1.899 . S
O28 C36 1.284 . S
Zn29 O28 1.899 . S
Zn29 O30 2.032 . S
Zn29 O33 2.086 1_455 S
Zn29 O38 1.977 . S
O30 Zn29 2.032 . S
O30 C34 1.278 . S
C31 O32 1.203 . S
C31 O38 1.267 . S
O32 C31 1.203 . S
O33 C26 1.185 . S
O33 Zn29 2.086 1_655 S
C34 O30 1.278 . S
C34 O35 1.211 . S
O35 C34 1.211 . S
C36 O28 1.284 . S
C36 O37 1.273 . S
O37 C36 1.273 . S
O38 Zn29 1.977 . S
O38 C31 1.267 . S
C39 O40 1.160 . S
C39 O46 1.185 . S
O40 C39 1.160 . S
O41 Zn42 1.899 . S
O41 C49 1.284 . S
Zn42 O41 1.899 . S
Zn42 O43 2.032 1_545 S
Zn42 O46 2.086 . S
Zn42 O51 1.977 . S
O43 Zn42 2.032 1_565 S
O43 C47 1.278 . S
C44 O45 1.203 1_545 S
C44 O51 1.267 . S
O45 C44 1.203 1_565 S
O46 C39 1.185 . S
O46 Zn42 2.086 . S
C47 O43 1.278 . S
C47 O48 1.211 . S
O48 C47 1.211 . S
C49 O41 1.284 . S
C49 O50 1.273 1_545 S
O50 C49 1.273 1_565 S
O51 Zn42 1.977 . S
O51 C44 1.267 . S
C52 O53 1.160 . S
C52 O59 1.185 . S
O53 C52 1.160 . S
O54 Zn55 1.899 . S
O54 C62 1.284 . S
Zn55 O54 1.899 . S
Zn55 O56 2.032 . S
Zn55 O59 2.086 . S
Zn55 O64 1.977 1_545 S
O56 Zn55 2.032 . S
O56 C60 1.278 . S
C57 O58 1.203 . S
C57 O64 1.267 . S
O58 C57 1.203 . S
O59 C52 1.185 . S
O59 Zn55 2.086 . S
C60 O56 1.278 . S
C60 O61 1.211 . S
O61 C60 1.211 . S
C62 O54 1.284 . S
C62 O63 1.273 . S
O63 C62 1.273 . S
O64 Zn55 1.977 1_565 S
O64 C57 1.267 . S
C65 O66 1.160 . S
C65 O72 1.185 . S
O66 C65 1.160 . S
O67 Zn68 1.899 . S
O67 C75 1.284 . S
Zn68 O67 1.899 . S
Zn68 O69 2.036 . S
Zn68 O72 2.086 . S
Zn68 O77 1.977 . S
O69 Zn68 2.036 . S
O69 C73 1.271 1_455 S
C70 O71 1.202 1_455 S
C70 O77 1.267 . S
O71 C70 1.202 1_655 S
O72 C65 1.185 . S
O72 Zn68 2.086 . S
C73 O69 1.271 1_655 S
C73 O74 1.211 . S
O74 C73 1.211 . S
C75 O67 1.284 . S
C75 O76 1.273 1_455 S
O76 C75 1.273 1_655 S
O77 Zn68 1.977 . S
O77 C70 1.267 . S
C78 O79 1.160 . S
C78 O85 1.185 . S
O79 C78 1.160 . S
O80 Zn81 1.899 . S
O80 C88 1.284 . S
Zn81 O80 1.899 . S
Zn81 O82 2.032 . S
Zn81 O85 2.086 . S
Zn81 O90 1.977 1_545 S
O82 Zn81 2.032 . S
O82 C86 1.278 . S
C83 O84 1.203 . S
C83 O90 1.267 . S
O84 C83 1.203 . S
O85 C78 1.185 . S
O85 Zn81 2.086 . S
C86 O82 1.278 . S
C86 O87 1.211 1_545 S
O87 C86 1.211 1_565 S
C88 O80 1.284 . S
C88 O89 1.273 . S
O89 C88 1.273 . S
O90 Zn81 1.977 1_565 S
O90 C83 1.267 . S
C91 O92 1.160 1_455 S
C91 O98 1.185 . S
O92 C91 1.160 1_655 S
O93 Zn94 1.899 1_655 S
O93 C101 1.284 . S
Zn94 O93 1.899 1_455 S
Zn94 O95 2.032 . S
Zn94 O98 2.086 . S
Zn94 O103 1.977 . S
O95 Zn94 2.032 . S
O95 C99 1.278 . S
C96 O97 1.203 . S
C96 O103 1.267 . S
O97 C96 1.203 . S
O98 C91 1.185 . S
O98 Zn94 2.086 . S
C99 O95 1.278 . S
C99 O100 1.211 . S
O100 C99 1.211 . S
C101 O93 1.284 . S
C101 O102 1.273 . S
O102 C101 1.273 . S
O103 Zn94 1.977 . S
O103 C96 1.267 . S
C104 O105 1.160 . S
C104 O111 1.185 1_554 S
O105 C104 1.160 . S
O106 Zn107 1.899 . S
O106 C114 1.284 . S
Zn107 O106 1.899 . S
Zn107 O108 2.032 . S
Zn107 O111 2.086 1_554 S
Zn107 O116 1.977 1_554 S
O108 Zn107 2.032 . S
O108 C112 1.278 1_554 S
C109 O110 1.203 . S
C109 O116 1.267 . S
O110 C109 1.203 . S
O111 C104 1.185 1_556 S
O111 Zn107 2.086 1_556 S
C112 O108 1.278 1_556 S
C112 O113 1.211 . S
O113 C112 1.211 . S
C114 O106 1.284 . S
C114 O115 1.273 . S
O115 C114 1.273 . S
O116 Zn107 1.977 1_556 S
O116 C109 1.267 . S
C117 O118 1.160 . S
C117 O124 1.185 1_556 S
O118 C117 1.160 . S
O119 Zn120 1.899 1_556 S
O119 C127 1.284 . S
Zn120 O119 1.899 1_554 S
Zn120 O121 2.032 . S
Zn120 O124 2.086 . S
Zn120 O129 1.977 . S
O121 Zn120 2.032 . S
O121 C125 1.278 . S
C122 O123 1.203 . S
C122 O129 1.267 . S
O123 C122 1.203 . S
O124 C117 1.185 1_554 S
O124 Zn120 2.086 . S
C125 O121 1.278 . S
C125 O126 1.211 . S
O126 C125 1.211 . S
C127 O119 1.284 . S
C127 O128 1.273 . S
O128 C127 1.273 . S
O129 Zn120 1.977 . S
O129 C122 1.267 . S
C130 O131 1.160 . S
C130 O137 1.185 1_554 S
O131 C130 1.160 . S
O132 Zn133 1.899 . S
O132 C140 1.284 . S
Zn133 O132 1.899 . S
Zn133 O134 2.032 . S
Zn133 O137 2.086 1_554 S
Zn133 O142 1.977 1_554 S
O134 Zn133 2.032 . S
O134 C138 1.277 1_554 S
C135 O136 1.203 . S
C135 O142 1.267 . S
O136 C135 1.203 . S
O137 C130 1.185 1_556 S
O137 Zn133 2.086 1_556 S
C138 O134 1.277 1_556 S
C138 O139 1.212 . S
O139 C138 1.212 . S
C140 O132 1.284 . S
C140 O141 1.273 . S
O141 C140 1.273 . S
O142 Zn133 1.977 1_556 S
O142 C135 1.267 . S
C143 O144 1.160 . S
C143 O150 1.185 1_556 S
O144 C143 1.160 . S
O145 Zn146 1.899 1_556 S
O145 C153 1.284 . S
Zn146 O145 1.899 1_554 S
Zn146 O147 2.030 1_554 S
Zn146 O150 2.086 . S
Zn146 O155 1.977 . S
O147 Zn146 2.030 1_556 S
O147 C151 1.274 1_556 S
C148 O149 1.203 . S
C148 O155 1.267 . S
O149 C148 1.203 . S
O150 C143 1.185 1_554 S
O150 Zn146 2.086 . S
C151 O147 1.274 1_554 S
C151 O152 1.211 . S
O152 C151 1.211 . S
C153 O145 1.284 . S
C153 O154 1.273 . S
O154 C153 1.273 . S
O155 Zn146 1.977 . S
O155 C148 1.267 . S
C10 C70 1.487 . S
C18 C60 1.296 . S
C75 C36 1.450 . S
C44 C52 1.452 . S
C91 C31 1.415 . S
C86 C49 1.455 . S
C5 C99 1.335 . S
C78 C23 1.448 . S
C117 C104 1.566 1_556 S
C112 C151 1.285 1_556 S
C125 C138 1.438 1_554 S
C130 C143 1.610 1_554 S
C153 C83 1.432 . S
C109 C96 1.180 . S
C88 C127 1.520 . S
C101 C135 1.383 . S
C62 C122 1.318 . S
C73 C140 1.520 . S
C148 C57 1.179 . S
C114 C65 1.381 . S
C13 C26 1.549 . S
C8 C21 1.380 . S
C34 C47 1.312 . S
C0 C39 1.594 . S
