# Generated by pormake.
# Topology uoo, (4)-cn, num edge types: 1
# Building blocks:
#     Node 0, Type 0, BuildingBlock: QUQFOY_clean_sbu_1, # of connection points: 4
#     Node 1, Type 0, BuildingBlock: QUQFOY_clean_sbu_1, # of connection points: 4
#     Node 2, Type 0, BuildingBlock: QUQFOY_clean_sbu_1, # of connection points: 4
#     Node 3, Type 0, BuildingBlock: QUQFOY_clean_sbu_1, # of connection points: 4
#     Node 4, Type 0, BuildingBlock: QUQFOY_clean_sbu_1, # of connection points: 4
#     Node 5, Type 0, BuildingBlock: QUQFOY_clean_sbu_1, # of connection points: 4
#     Edge 6, Type (0, 0), None
#     Edge 7, Type (0, 0), None
#     Edge 8, Type (0, 0), None
#     Edge 9, Type (0, 0), None
#     Edge 10, Type (0, 0), None
#     Edge 11, Type (0, 0), None
#     Edge 12, Type (0, 0), None
#     Edge 13, Type (0, 0), None
#     Edge 14, Type (0, 0), None
#     Edge 15, Type (0, 0), None
#     Edge 16, Type (0, 0), None
#     Edge 17, Type (0, 0), None
# Relax obj value: 0.243
# Max RMSD: 0.190
# Mean RMSD: 0.190
data_MOF--net-uoo--node1-QUQFOY_clean_sbu_1--edge1-none
_symmetry_space_group_name_H-M    P1
_symmetry_Int_Tables_number       1
_symmetry_cell_setting            triclinic
loop_
_symmetry_equiv_pos_as_xyz
'x, y, z'
_cell_length_a     12.416825
_cell_length_b     12.417174
_cell_length_c     17.951361
_cell_angle_alpha  90.00095
_cell_angle_beta   89.998634
_cell_angle_gamma 120.00348
loop_
_atom_site_label
_atom_site_type_symbol
_atom_site_fract_x
_atom_site_fract_y
_atom_site_fract_z
_atom_type_partial_charge
O0 O 0.15653 0.27829 0.92715 0.0
Cd1 Cd 0.18858 0.36862 1.02796 0.0
Cd2 Cd 0.95257 0.17676 0.04091 0.0
O3 O -0.02177 0.10434 0.94326 0.0
O4 O 0.36069 0.50538 1.00949 0.0
O5 O 0.31661 0.36165 0.09513 0.0
C6 C 0.39857 0.45797 0.05933 0.0
C7 C 0.91402 0.09382 0.15935 0.0
C8 C 0.07295 0.17283 0.90374 0.0
C9 C -0.01368 0.43144 0.03996 0.0
O10 O 0.90957 0.31641 1.03051 0.0
O11 O 0.1018 0.47057 0.04712 0.0
O12 O 0.82814 0.04975 0.10903 0.0
O13 O 0.02549 0.17693 0.13998 0.0
O14 O 0.85448 0.16856 0.26053 0.0
Cd15 Cd 0.79613 0.20059 0.36132 0.0
Cd16 Cd 0.7519 0.96453 0.37425 0.0
O17 O 0.84995 -0.00983 0.27659 0.0
O18 O 0.83147 0.37268 0.34282 0.0
O19 O 0.93108 0.32865 0.42851 0.0
C20 C 0.91673 0.41058 0.39268 0.0
C21 C 0.79627 0.92594 0.49268 0.0
C22 C 0.8763 0.08496 0.2371 0.0
C23 C 0.531 -0.00167 0.37329 0.0
O24 O 0.56925 0.92157 0.36385 0.0
O25 O 0.60738 0.11381 0.38045 0.0
O26 O 0.75443 0.84007 0.44236 0.0
O27 O 0.82468 0.03742 0.47332 0.0
O28 O 0.62381 0.58121 0.69718 0.0
Cd29 Cd 0.76348 0.76387 0.70758 0.0
Cd30 Cd 0.57162 0.80804 0.69465 0.0
O31 O 0.46967 0.6193 0.7138 0.0
O32 O 0.89049 0.76643 0.77569 0.0
O33 O 0.76334 0.83662 0.80665 0.0
C34 C 0.84643 0.80824 0.82601 0.0
C35 C 0.48224 0.92866 0.72601 0.0
C36 C 0.50879 0.54294 0.70663 0.0
C37 C 0.76742 0.88822 0.57043 0.0
O38 O 0.66197 0.86635 0.59385 0.0
O39 O 0.83589 0.86194 0.60993 0.0
O40 O 0.43485 0.84337 0.67617 0.0
O41 O 0.57856 0.94302 0.76183 0.0
O42 O 0.77167 0.67391 0.92717 0.0
Cd43 Cd 0.7396 0.58353 1.02796 0.0
Cd44 Cd -0.02435 0.77539 0.04092 0.0
O45 O 0.95003 0.84782 0.94327 0.0
O46 O 0.56749 0.44679 1.00947 0.0
O47 O 0.61159 0.5905 0.09515 0.0
C48 C 0.52964 0.49422 0.05932 0.0
C49 C 0.01425 0.85836 0.15935 0.0
C50 C 0.85527 0.77936 0.90377 0.0
C51 C 0.94185 0.52069 0.03996 0.0
O52 O 0.01861 0.63571 1.03053 0.0
O53 O 0.82636 0.48156 0.04711 0.0
O54 O 0.10013 0.9024 0.10903 0.0
O55 O 0.90277 0.77528 0.14 0.0
O56 O 0.07383 0.78364 0.26052 0.0
Cd57 Cd 0.13216 0.75162 0.36132 0.0
Cd58 Cd 0.17637 -0.01234 0.37425 0.0
O59 O 0.0783 0.96201 0.2766 0.0
O60 O 0.09681 0.57952 0.34282 0.0
O61 O -0.00281 0.62359 0.42851 0.0
C62 C 0.01154 0.54165 0.39267 0.0
C63 C 0.132 0.02623 0.49268 0.0
C64 C 0.05198 0.86724 0.23711 0.0
C65 C 0.39728 0.95387 0.37329 0.0
O66 O 0.35903 0.03064 0.36385 0.0
O67 O 0.32091 0.8384 0.38045 0.0
O68 O 0.17383 0.11211 0.44237 0.0
O69 O 0.1036 0.91475 0.47332 0.0
O70 O 0.3045 0.37095 0.6972 0.0
Cd71 Cd 0.16481 0.1883 0.70759 0.0
Cd72 Cd 0.35668 0.14411 0.69465 0.0
O73 O 0.45865 0.33286 0.71379 0.0
O74 O 0.03779 0.18579 0.77568 0.0
O75 O 0.1649 0.11552 0.80667 0.0
C76 C 0.08182 0.14395 0.82599 0.0
C77 C 0.44599 0.02347 0.726 0.0
C78 C 0.41953 0.40921 0.70664 0.0
C79 C 0.16086 0.06394 0.57044 0.0
O80 O 0.2663 0.08578 0.59386 0.0
O81 O 0.0924 0.09025 0.60994 0.0
O82 O 0.49342 0.10875 0.67616 0.0
O83 O 0.34971 0.00913 0.76184 0.0
loop_
_geom_bond_atom_site_label_1
_geom_bond_atom_site_label_2
_geom_bond_distance
_geom_bond_site_symmetry_2
_ccdc_geom_bond_type
O0 Cd1 2.223 . S
O0 C8 1.315 . S
Cd1 O0 2.223 . S
Cd1 O4 2.297 . S
Cd1 O5 2.439 1_556 S
Cd1 O11 2.240 1_556 S
Cd2 O3 2.240 1_654 S
Cd2 O10 2.223 1_554 S
Cd2 O12 2.297 . S
Cd2 O13 2.439 1_655 S
O3 Cd2 2.240 1_456 S
O3 C8 1.279 . S
O4 Cd1 2.297 . S
O4 C6 1.247 1_556 S
O5 Cd1 2.439 1_554 S
O5 C6 1.208 . S
C6 O4 1.247 1_554 S
C6 O5 1.208 . S
C7 O12 1.247 . S
C7 O13 1.208 1_655 S
C8 O0 1.315 . S
C8 O3 1.279 . S
C9 O10 1.315 . S
C9 O11 1.279 1_656 S
O10 Cd2 2.223 1_556 S
O10 C9 1.315 . S
O11 Cd1 2.240 1_554 S
O11 C9 1.279 1_454 S
O12 Cd2 2.297 . S
O12 C7 1.247 . S
O13 Cd2 2.439 1_455 S
O13 C7 1.208 1_455 S
O14 Cd15 2.223 . S
O14 C22 1.315 . S
Cd15 O14 2.223 . S
Cd15 O18 2.297 . S
Cd15 O19 2.439 . S
Cd15 O25 2.240 . S
Cd16 O17 2.240 1_565 S
Cd16 O24 2.223 . S
Cd16 O26 2.297 . S
Cd16 O27 2.439 1_565 S
O17 Cd16 2.240 1_545 S
O17 C22 1.279 . S
O18 Cd15 2.297 . S
O18 C20 1.247 1_655 S
O19 Cd15 2.439 . S
O19 C20 1.208 1_655 S
C20 O18 1.247 1_455 S
C20 O19 1.208 1_455 S
C21 O26 1.247 . S
C21 O27 1.208 1_565 S
C22 O14 1.315 . S
C22 O17 1.279 . S
C23 O24 1.315 . S
C23 O25 1.279 1_565 S
O24 Cd16 2.223 . S
O24 C23 1.315 . S
O25 Cd15 2.240 . S
O25 C23 1.279 1_545 S
O26 Cd16 2.297 . S
O26 C21 1.247 . S
O27 Cd16 2.439 1_545 S
O27 C21 1.208 1_545 S
O28 Cd29 2.223 . S
O28 C36 1.315 . S
Cd29 O28 2.223 . S
Cd29 O32 2.297 . S
Cd29 O33 2.439 . S
Cd29 O39 2.240 . S
Cd30 O31 2.240 . S
Cd30 O38 2.223 . S
Cd30 O40 2.297 . S
Cd30 O41 2.439 . S
O31 Cd30 2.240 . S
O31 C36 1.279 . S
O32 Cd29 2.297 . S
O32 C34 1.247 . S
O33 Cd29 2.439 . S
O33 C34 1.208 . S
C34 O32 1.247 . S
C34 O33 1.208 . S
C35 O40 1.247 1_545 S
C35 O41 1.208 1_545 S
C36 O28 1.315 . S
C36 O31 1.279 . S
C37 O38 1.315 . S
C37 O39 1.279 . S
O38 Cd30 2.223 . S
O38 C37 1.315 . S
O39 Cd29 2.240 . S
O39 C37 1.279 . S
O40 Cd30 2.297 . S
O40 C35 1.247 1_565 S
O41 Cd30 2.439 . S
O41 C35 1.208 1_565 S
O42 Cd43 2.223 . S
O42 C50 1.315 . S
Cd43 O42 2.223 . S
Cd43 O46 2.297 . S
Cd43 O47 2.439 1_556 S
Cd43 O53 2.240 1_556 S
Cd44 O45 2.240 1_454 S
Cd44 O52 2.223 1_554 S
Cd44 O54 2.297 . S
Cd44 O55 2.439 1_455 S
O45 Cd44 2.240 1_656 S
O45 C50 1.279 . S
O46 Cd43 2.297 . S
O46 C48 1.247 1_556 S
O47 Cd43 2.439 1_554 S
O47 C48 1.208 . S
C48 O46 1.247 1_554 S
C48 O47 1.208 . S
C49 O54 1.247 . S
C49 O55 1.208 1_455 S
C50 O42 1.315 . S
C50 O45 1.279 . S
C51 O52 1.315 . S
C51 O53 1.279 1_456 S
O52 Cd44 2.223 1_556 S
O52 C51 1.315 . S
O53 Cd43 2.240 1_554 S
O53 C51 1.279 1_654 S
O54 Cd44 2.297 . S
O54 C49 1.247 . S
O55 Cd44 2.439 1_655 S
O55 C49 1.208 1_655 S
O56 Cd57 2.223 . S
O56 C64 1.315 . S
Cd57 O56 2.223 . S
Cd57 O60 2.297 . S
Cd57 O61 2.439 . S
Cd57 O67 2.240 . S
Cd58 O59 2.240 1_545 S
Cd58 O66 2.223 . S
Cd58 O68 2.297 . S
Cd58 O69 2.439 1_545 S
O59 Cd58 2.240 1_565 S
O59 C64 1.279 . S
O60 Cd57 2.297 . S
O60 C62 1.247 1_455 S
O61 Cd57 2.439 . S
O61 C62 1.208 1_455 S
C62 O60 1.247 1_655 S
C62 O61 1.208 1_655 S
C63 O68 1.247 . S
C63 O69 1.208 1_545 S
C64 O56 1.315 . S
C64 O59 1.279 . S
C65 O66 1.315 . S
C65 O67 1.279 1_545 S
O66 Cd58 2.223 . S
O66 C65 1.315 . S
O67 Cd57 2.240 . S
O67 C65 1.279 1_565 S
O68 Cd58 2.297 . S
O68 C63 1.247 . S
O69 Cd58 2.439 1_565 S
O69 C63 1.208 1_565 S
O70 Cd71 2.223 . S
O70 C78 1.315 . S
Cd71 O70 2.223 . S
Cd71 O74 2.297 . S
Cd71 O75 2.439 . S
Cd71 O81 2.240 . S
Cd72 O73 2.240 . S
Cd72 O80 2.223 . S
Cd72 O82 2.297 . S
Cd72 O83 2.439 . S
O73 Cd72 2.240 . S
O73 C78 1.279 . S
O74 Cd71 2.297 . S
O74 C76 1.247 . S
O75 Cd71 2.439 . S
O75 C76 1.208 . S
C76 O74 1.247 . S
C76 O75 1.208 . S
C77 O82 1.247 1_565 S
C77 O83 1.208 1_565 S
C78 O70 1.315 . S
C78 O73 1.279 . S
C79 O80 1.315 . S
C79 O81 1.279 . S
O80 Cd72 2.223 . S
O80 C79 1.315 . S
O81 Cd71 2.240 . S
O81 C79 1.279 . S
O82 Cd72 2.297 . S
O82 C77 1.247 1_545 S
O83 Cd72 2.439 . S
O83 C77 1.208 1_545 S
C76 C8 1.358 . S
C22 C7 1.358 . S
C21 C37 1.358 . S
C50 C34 1.358 . S
C64 C49 1.358 . S
C79 C63 1.358 . S
C6 C48 1.307 . S
C20 C62 1.307 1_455 S
C77 C35 1.307 1_565 S
C78 C36 2.694 . S
C51 C9 2.694 1_455 S
C23 C65 2.694 1_565 S
