# Generated by pormake.
# Topology pcu, (6)-cn, num edge types: 1
# Building blocks:
#     Node 0, Type 0, BuildingBlock: CUWYAW_clean_sbu_0, # of connection points: 6
#     Edge 1, Type (0, 0), BuildingBlock: EZIPEK_clean_linker_0, # of connection points: 2
#     Edge 2, Type (0, 0), BuildingBlock: EZIPEK_clean_linker_0, # of connection points: 2
#     Edge 3, Type (0, 0), BuildingBlock: EZIPEK_clean_linker_0, # of connection points: 2
# Relax obj value: 0.000
# Max RMSD: 0.000
# Mean RMSD: 0.000
data_MOF--net-pcu--node1-CUWYAW_clean_sbu_0--edge1-EZIPEK_clean_linker_0
_symmetry_space_group_name_H-M    P1
_symmetry_Int_Tables_number       1
_symmetry_cell_setting            triclinic
loop_
_symmetry_equiv_pos_as_xyz
'x, y, z'
_cell_length_a     21.211755
_cell_length_b     11.448764
_cell_length_c     10.526558
_cell_angle_alpha  91.536872
_cell_angle_beta   97.213107
_cell_angle_gamma 119.57853
loop_
_atom_site_label
_atom_site_type_symbol
_atom_site_fract_x
_atom_site_fract_y
_atom_site_fract_z
_atom_type_partial_charge
C0 C 0.25961 0.16475 1.00224 0.0
Eu1 Eu 0.12054 0.04033 0.02226 0.0
C2 C 0.31648 0.12453 1.00651 0.0
C3 C 0.3607 0.13713 0.12247 0.0
C4 C 0.41191 0.09335 0.12693 0.0
C5 C 0.41862 0.02868 0.01658 0.0
C6 C 0.3796 0.03233 0.89831 0.0
C7 C 0.32846 0.07607 0.89374 0.0
C8 C 0.06421 0.96788 0.24346 0.0
C9 C 1.03586 0.72042 1.00445 0.0
C10 C 0.81487 0.77449 0.00759 0.0
Eu11 Eu 0.95421 0.89961 0.99001 0.0
C12 C 0.75852 0.81567 1.00651 0.0
C13 C 0.70997 0.79431 0.89372 0.0
C14 C 0.65895 0.83839 0.89098 0.0
C15 C 0.65673 0.91213 0.99934 0.0
C16 C 0.70023 0.91748 0.11584 0.0
C17 C 0.75124 0.87352 0.1187 0.0
C18 C 1.0115 -0.02619 0.76946 0.0
C19 C 0.03852 0.21902 0.01093 0.0
O20 O 0.20681 0.11214 0.9032 0.0
O21 O 0.23536 0.16861 0.10977 0.0
O22 O 0.12213 0.96635 0.21854 0.0
O23 O 0.04193 0.01722 0.15486 0.0
O24 O 0.09774 0.8282 0.98997 0.0
O25 O 0.97541 0.72425 0.01483 0.0
O26 O 0.86715 0.82173 0.10752 0.0
O27 O 0.83965 0.77583 0.89954 0.0
O28 O 0.95423 -0.02254 0.79492 0.0
O29 O 1.03272 0.92255 0.85755 0.0
O30 O 0.97706 0.11105 0.02674 0.0
O31 O 0.09867 0.21519 0.99724 0.0
H32 H 0.35639 0.18238 0.21031 0.0
H33 H 0.44706 0.11678 0.21779 0.0
H34 H 0.38913 0.0056 0.80654 0.0
H35 H 0.29866 0.07279 0.80097 0.0
H36 H 0.71077 0.7419 0.80721 0.0
H37 H 0.62023 0.80818 0.80345 0.0
H38 H 0.69441 0.951 0.20794 0.0
H39 H 0.78451 0.88386 0.20984 0.0
C40 C 0.99084 0.85386 0.41767 0.0
C41 C 0.04914 -0.03012 0.37705 0.0
C42 C 0.085 0.08628 0.59516 0.0
C43 C 1.02619 -0.02886 0.63564 0.0
N44 N 0.92776 0.74005 0.59296 0.0
N45 N 0.14476 0.20327 0.41883 0.0
C46 C 0.98007 0.85354 0.54863 0.0
C47 C 0.09451 0.08785 0.46371 0.0
N48 N 0.94458 0.74558 0.3297 0.0
N49 N 0.13338 0.19243 0.68361 0.0
H50 H 0.15408 0.20825 0.32367 0.0
H51 H 0.17354 0.2973 0.47242 0.0
H52 H 0.1272 0.1957 0.77975 0.0
H53 H 0.18242 0.2727 0.66501 0.0
H54 H 0.8965 0.66243 0.34743 0.0
H55 H 0.95214 0.74179 0.23443 0.0
H56 H 0.89677 0.64623 0.53955 0.0
H57 H 0.91769 0.73649 0.68761 0.0
C58 C 0.52695 0.0056 0.12822 0.0
C59 C 0.47242 -0.02461 0.01969 0.0
C60 C 0.54834 0.93481 0.88769 0.0
C61 C 0.60285 0.96527 0.99637 0.0
N62 N 0.65711 0.11774 0.19229 0.0
N63 N 0.41828 0.82687 0.82138 0.0
C64 C 0.59638 0.02621 0.10958 0.0
C65 C 0.47902 0.91543 0.9059 0.0
N66 N 0.50969 -0.00876 0.24914 0.0
N67 N 0.56565 0.94682 0.76672 0.0
H68 H 0.3654 0.79336 0.84178 0.0
H69 H 0.42153 0.7756 0.74113 0.0
H70 H 0.6201 -0.00939 0.75138 0.0
H71 H 0.52766 0.93315 0.68609 0.0
H72 H 0.54817 0.00599 0.32937 0.0
H73 H 0.45512 0.94321 0.26438 0.0
H74 H 0.65352 0.1689 0.27226 0.0
H75 H 0.70987 0.15393 0.17015 0.0
C76 C 0.04498 0.54273 0.12602 0.0
C77 C 1.03431 0.59012 1.00643 0.0
C78 C 1.03212 0.3995 0.89017 0.0
C79 C 0.03941 0.34881 0.00954 0.0
N80 N 0.04415 0.36041 0.23981 0.0
N81 N 1.00941 0.55948 0.77477 0.0
C82 C 0.04324 0.41703 0.1272 0.0
C83 C 1.02581 0.5175 0.88839 0.0
N84 N 0.05926 0.6203 0.23842 0.0
N85 N 1.03143 0.33474 0.77859 0.0
H86 H 1.0057 0.64681 0.77014 0.0
H87 H 0.99466 0.50417 0.68543 0.0
H88 H 1.03058 0.24311 0.77529 0.0
H89 H 1.03532 0.37414 0.69014 0.0
H90 H 0.07597 0.60007 0.32827 0.0
H91 H 0.05899 0.71091 0.24135 0.0
H92 H 0.03809 0.39604 0.3268 0.0
H93 H 0.04666 0.27193 0.24539 0.0
loop_
_geom_bond_atom_site_label_1
_geom_bond_atom_site_label_2
_geom_bond_distance
_geom_bond_site_symmetry_2
_ccdc_geom_bond_type
C0 Eu1 2.835 . S
C0 C2 1.500 . S
C0 O20 1.257 1_554 S
C0 O21 1.260 . S
Eu1 C0 2.835 . S
Eu1 O20 2.473 1_554 S
Eu1 O21 2.480 . S
Eu1 O22 2.430 . S
Eu1 O23 2.670 1_455 S
Eu1 O24 2.394 1_545 S
Eu1 O29 2.355 1_544 S
Eu1 O31 2.374 . S
C2 C0 1.500 . S
C2 C3 1.377 . S
C2 C7 1.377 1_544 S
C3 C2 1.377 . S
C3 C4 1.395 . S
C3 H32 0.931 . S
C4 C3 1.395 . S
C4 C5 1.383 . S
C4 H33 0.931 . S
C5 C4 1.383 . S
C5 C6 1.394 1_544 S
C6 C5 1.394 1_566 S
C6 C7 1.378 . S
C6 H34 0.931 . S
C7 C2 1.377 1_566 S
C7 C6 1.378 . S
C7 H35 0.931 . S
C8 O22 1.259 . S
C8 O23 1.270 1_455 S
C9 O24 1.251 1_655 S
C9 O25 1.251 1_554 S
C10 Eu11 2.835 . S
C10 C12 1.500 . S
C10 O26 1.257 1_556 S
C10 O27 1.260 . S
Eu11 C10 2.835 . S
Eu11 O23 2.355 1_566 S
Eu11 O25 2.374 . S
Eu11 O26 2.473 1_556 S
Eu11 O27 2.480 . S
Eu11 O28 2.430 . S
Eu11 O29 2.670 1_655 S
Eu11 O30 2.394 1_565 S
C12 C10 1.500 . S
C12 C13 1.377 . S
C12 C17 1.377 1_566 S
C13 C12 1.377 . S
C13 C14 1.395 . S
C13 H36 0.931 . S
C14 C13 1.395 . S
C14 C15 1.387 . S
C14 H37 0.931 . S
C15 C14 1.387 . S
C15 C16 1.396 1_566 S
C16 C15 1.396 1_544 S
C16 C17 1.378 . S
C16 H38 0.931 . S
C17 C12 1.377 1_544 S
C17 C16 1.378 . S
C17 H39 0.931 . S
C18 O28 1.259 . S
C18 O29 1.270 1_655 S
C19 O30 1.251 1_455 S
C19 O31 1.251 1_556 S
O20 C0 1.257 1_556 S
O20 Eu1 2.473 1_556 S
O21 C0 1.260 . S
O21 Eu1 2.480 . S
O22 Eu1 2.430 . S
O22 C8 1.259 . S
O23 Eu1 2.670 1_655 S
O23 C8 1.270 1_655 S
O23 Eu11 2.355 1_544 S
O24 Eu1 2.394 1_565 S
O24 C9 1.251 1_455 S
O25 C9 1.251 1_556 S
O25 Eu11 2.374 . S
O26 C10 1.257 1_554 S
O26 Eu11 2.473 1_554 S
O27 C10 1.260 . S
O27 Eu11 2.480 . S
O28 Eu11 2.430 . S
O28 C18 1.259 . S
O29 Eu1 2.355 1_566 S
O29 Eu11 2.670 1_455 S
O29 C18 1.270 1_455 S
O30 Eu11 2.394 1_545 S
O30 C19 1.251 1_655 S
O31 Eu1 2.374 . S
O31 C19 1.251 1_554 S
H32 C3 0.931 . S
H33 C4 0.931 . S
H34 C6 0.931 . S
H35 C7 0.931 . S
H36 C13 0.931 . S
H37 C14 0.931 . S
H38 C16 0.931 . S
H39 C17 0.931 . S
C40 C41 1.363 1_665 S
C40 C46 1.379 . S
C40 N48 1.356 . S
C41 C40 1.363 1_445 S
C41 C47 1.363 . S
C42 C43 1.363 . S
C42 C47 1.379 . S
C42 N49 1.356 . S
C43 C42 1.363 . S
C43 C46 1.363 1_445 S
N44 C46 1.356 . S
N44 H56 0.984 . S
N44 H57 0.985 . S
N45 C47 1.356 . S
N45 H50 0.984 . S
N45 H51 0.985 . S
C46 C40 1.379 . S
C46 C43 1.363 1_665 S
C46 N44 1.356 . S
C47 C41 1.363 . S
C47 C42 1.379 . S
C47 N45 1.356 . S
N48 C40 1.356 . S
N48 H54 0.984 . S
N48 H55 0.984 . S
N49 C42 1.356 . S
N49 H52 0.984 . S
N49 H53 0.985 . S
H50 N45 0.984 . S
H51 N45 0.985 . S
H52 N49 0.984 . S
H53 N49 0.985 . S
H54 N48 0.984 . S
H55 N48 0.984 . S
H56 N44 0.984 . S
H57 N44 0.985 . S
C58 C59 1.363 . S
C58 C64 1.379 . S
C58 N66 1.356 . S
C59 C58 1.363 . S
C59 C65 1.363 1_544 S
C60 C61 1.363 1_566 S
C60 C65 1.379 . S
C60 N67 1.356 . S
C61 C60 1.363 1_544 S
C61 C64 1.363 . S
N62 C64 1.356 . S
N62 H74 0.984 . S
N62 H75 0.985 . S
N63 C65 1.356 . S
N63 H68 0.984 . S
N63 H69 0.985 . S
C64 C58 1.379 . S
C64 C61 1.363 . S
C64 N62 1.356 . S
C65 C59 1.363 1_566 S
C65 C60 1.379 . S
C65 N63 1.356 . S
N66 C58 1.356 . S
N66 H72 0.984 . S
N66 H73 0.984 . S
N67 C60 1.356 . S
N67 H70 0.984 . S
N67 H71 0.985 . S
H68 N63 0.984 . S
H69 N63 0.985 . S
H70 N67 0.984 . S
H71 N67 0.985 . S
H72 N66 0.984 . S
H73 N66 0.984 . S
H74 N62 0.984 . S
H75 N62 0.985 . S
C76 C77 1.363 . S
C76 C82 1.379 . S
C76 N84 1.356 . S
C77 C76 1.363 . S
C77 C83 1.363 1_454 S
C78 C79 1.363 1_656 S
C78 C83 1.379 . S
C78 N85 1.356 . S
C79 C78 1.363 1_454 S
C79 C82 1.363 . S
N80 C82 1.356 . S
N80 H92 0.984 . S
N80 H93 0.985 . S
N81 C83 1.356 . S
N81 H86 0.984 . S
N81 H87 0.985 . S
C82 C76 1.379 . S
C82 C79 1.363 . S
C82 N80 1.356 . S
C83 C77 1.363 1_656 S
C83 C78 1.379 . S
C83 N81 1.356 . S
N84 C76 1.356 . S
N84 H90 0.984 . S
N84 H91 0.984 . S
N85 C78 1.356 . S
N85 H88 0.984 . S
N85 H89 0.985 . S
H86 N81 0.984 . S
H87 N81 0.985 . S
H88 N85 0.984 . S
H89 N85 0.985 . S
H90 N84 0.984 . S
H91 N84 0.984 . S
H92 N80 0.984 . S
H93 N80 0.985 . S
C41 C8 1.453 . S
C43 C18 1.453 1_445 S
C59 C5 1.499 . S
C61 C15 1.495 1_544 S
C77 C9 1.488 1_455 S
C79 C19 1.488 1_554 S
