# Generated by pormake.
# Topology kag, (6)-cn, num edge types: 1
# Building blocks:
#     Node 0, Type 0, BuildingBlock: BETDIP_clean_sbu_0, # of connection points: 6
#     Node 1, Type 0, BuildingBlock: BETDIP_clean_sbu_0, # of connection points: 6
#     Node 2, Type 0, BuildingBlock: BETDIP_clean_sbu_0, # of connection points: 6
#     Edge 3, Type (0, 0), BuildingBlock: AJUNOK_clean_linker_0, # of connection points: 2
#     Edge 4, Type (0, 0), BuildingBlock: AJUNOK_clean_linker_0, # of connection points: 2
#     Edge 5, Type (0, 0), BuildingBlock: AJUNOK_clean_linker_0, # of connection points: 2
#     Edge 6, Type (0, 0), BuildingBlock: AJUNOK_clean_linker_0, # of connection points: 2
#     Edge 7, Type (0, 0), BuildingBlock: AJUNOK_clean_linker_0, # of connection points: 2
#     Edge 8, Type (0, 0), BuildingBlock: AJUNOK_clean_linker_0, # of connection points: 2
#     Edge 9, Type (0, 0), BuildingBlock: AJUNOK_clean_linker_0, # of connection points: 2
#     Edge 10, Type (0, 0), BuildingBlock: AJUNOK_clean_linker_0, # of connection points: 2
#     Edge 11, Type (0, 0), BuildingBlock: AJUNOK_clean_linker_0, # of connection points: 2
# Relax obj value: 0.013
# Max RMSD: 0.069
# Mean RMSD: 0.060
data_MOF--net-kag--node1-BETDIP_clean_sbu_0--edge1-AJUNOK_clean_linker_0
_symmetry_space_group_name_H-M    P1
_symmetry_Int_Tables_number       1
_symmetry_cell_setting            triclinic
loop_
_symmetry_equiv_pos_as_xyz
'x, y, z'
_cell_length_a     32.827007
_cell_length_b     32.812652
_cell_length_c     10.293493
_cell_angle_alpha  93.040122
_cell_angle_beta   91.951874
_cell_angle_gamma 119.97244
loop_
_atom_site_label
_atom_site_type_symbol
_atom_site_fract_x
_atom_site_fract_y
_atom_site_fract_z
_atom_type_partial_charge
Tb0 Tb 1.01787 0.47928 0.02958 0.0
Tb1 Tb 0.07697 0.58374 1.01123 0.0
C2 C 0.96317 0.39863 0.10196 0.0
C3 C 0.91289 0.36197 0.09572 0.0
C4 C 0.89364 0.34045 0.20966 0.0
C5 C 0.84786 0.30187 0.20506 0.0
C6 C 0.82054 0.28377 0.08598 0.0
C7 C 0.83902 0.30672 0.97277 0.0
C8 C 0.88487 0.3455 0.97746 0.0
C9 C 1.03548 0.50578 0.78934 0.0
C10 C 0.96768 0.54117 1.00881 0.0
C11 C 0.13154 0.66421 0.93764 0.0
C12 C 0.18175 0.70101 0.94415 0.0
C13 C 0.20086 0.72297 0.83065 0.0
C14 C 0.24665 0.76155 0.83555 0.0
C15 C 0.27409 0.77921 0.95453 0.0
C16 C 0.25573 0.75583 0.06724 0.0
C17 C 0.20986 0.71704 0.06223 0.0
C18 C 0.05842 0.55769 0.25088 0.0
C19 C 0.12691 0.52164 0.03133 0.0
O20 O 0.9759 0.43786 0.17349 0.0
O21 O 0.98458 0.40592 0.9934 0.0
O22 O 1.02704 0.52626 0.88226 0.0
O23 O 1.03014 0.4664 0.82646 0.0
O24 O 0.96455 0.50128 0.04252 0.0
O25 O 1.00789 0.5762 0.97445 0.0
O26 O 0.11918 0.62486 0.86726 0.0
O27 O 0.10996 0.65712 0.04586 0.0
O28 O 0.06741 0.5369 0.15972 0.0
O29 O 0.0643 0.59709 0.21232 0.0
O30 O 0.13019 0.56173 0.99928 0.0
O31 O 0.08684 0.48657 0.06632 0.0
H32 H 0.91455 0.3527 0.30196 0.0
H33 H 0.83411 0.28562 0.29439 0.0
H34 H 0.81864 0.29359 0.8798 0.0
H35 H 0.89881 0.36163 0.88814 0.0
H36 H 0.17986 0.71103 0.73849 0.0
H37 H 0.26031 0.77815 0.74658 0.0
H38 H 0.2762 0.76861 0.16011 0.0
H39 H 0.19601 0.70053 0.15117 0.0
Tb40 Tb 0.57058 1.00257 0.04187 0.0
Tb41 Tb 0.52411 0.0602 1.00389 0.0
C42 C 0.59609 0.94729 0.12432 0.0
C43 C 0.58396 0.89744 0.10302 0.0
C44 C 0.57579 0.87047 0.21072 0.0
C45 C 0.56876 0.82472 0.19526 0.0
C46 C 0.5703 0.80528 0.07186 0.0
C47 C 0.57687 0.83165 0.96331 0.0
C48 C 0.58359 0.87729 0.97861 0.0
C49 C 0.56257 1.02006 0.79721 0.0
C50 C 0.45848 0.95115 0.99349 0.0
C51 C 0.49819 0.11554 0.92445 0.0
C52 C 0.51077 0.16552 0.94502 0.0
C53 C 0.51625 0.19143 0.83626 0.0
C54 C 0.52363 0.23731 0.85166 0.0
C55 C 0.5252 0.25797 0.97617 0.0
C56 C 0.52135 0.23265 0.08552 0.0
C57 C 0.51425 0.18686 0.0702 0.0
C58 C 0.53355 0.04302 0.24905 0.0
C59 C 0.63626 0.11173 0.04866 0.0
O60 O 0.56538 0.95548 0.18027 0.0
O61 O 0.61519 0.97436 0.02948 0.0
O62 O 0.53282 1.01125 0.88099 0.0
O63 O 0.59586 1.01405 0.84574 0.0
O64 O 0.49531 0.94919 0.04207 0.0
O65 O 0.46357 0.99062 0.95079 0.0
O66 O 0.52807 0.10681 0.86552 0.0
O67 O 0.48011 0.08901 1.02096 0.0
O68 O 0.56248 0.05202 0.16322 0.0
O69 O 0.49935 0.04795 0.20201 0.0
O70 O 0.59926 0.11365 1.00134 0.0
O71 O 0.63137 0.07233 0.09136 0.0
H72 H 0.57603 0.88529 0.30758 0.0
H73 H 0.56377 0.80514 0.28049 0.0
H74 H 0.57737 0.81715 0.86675 0.0
H75 H 0.58948 0.89706 0.89347 0.0
H76 H 0.51362 0.17569 0.73883 0.0
H77 H 0.52648 0.25604 0.76578 0.0
H78 H 0.52328 0.2481 0.1828 0.0
H79 H 0.5105 0.16789 0.15607 0.0
Tb80 Tb 0.49567 0.5084 0.03416 0.0
Tb81 Tb 0.59994 0.55485 1.01246 0.0
C82 C 0.41407 0.48282 0.10423 0.0
C83 C 0.37569 0.49371 0.08226 0.0
C84 C 0.37163 0.52611 0.16824 0.0
C85 C 0.33262 0.53253 0.15485 0.0
C86 C 0.29666 0.50628 0.05631 0.0
C87 C 0.30145 0.47508 0.96795 0.0
C88 C 0.34035 0.46868 0.98111 0.0
C89 C 0.52169 0.51622 0.79227 0.0
C90 C 0.55708 0.62075 0.03196 0.0
C91 C 0.68128 0.58073 0.94024 0.0
C92 C 0.71808 0.56746 0.94833 0.0
C93 C 0.74351 0.57094 0.83875 0.0
C94 C 0.78199 0.56373 0.84668 0.0
C95 C 0.79609 0.55329 0.96489 0.0
C96 C 0.7692 0.54753 0.07308 0.0
C97 C 0.73051 0.55463 0.065 0.0
C98 C 0.57282 0.54617 0.25423 0.0
C99 C 0.53889 0.44265 1.01443 0.0
O100 O 0.45268 0.51466 0.17145 0.0
O101 O 0.4229 0.46242 1.0053 0.0
O102 O 0.54255 0.54608 0.88795 0.0
O103 O 0.48225 0.48286 0.82798 0.0
O104 O 0.518 0.58384 0.06592 0.0
O105 O 0.59168 0.61573 0.98672 0.0
O106 O 0.64261 0.55221 0.86809 0.0
O107 O 0.67301 0.59721 0.04853 0.0
O108 O 0.55293 0.51686 0.15728 0.0
O109 O 0.61213 0.5804 0.22011 0.0
O110 O 0.57788 0.47951 0.97993 0.0
O111 O 0.50441 0.44775 0.06025 0.0
H112 H 0.39796 0.54561 0.24798 0.0
H113 H 0.32972 0.55676 0.22441 0.0
H114 H 0.27463 0.45498 0.88974 0.0
H115 H 0.34209 0.44321 0.91359 0.0
H116 H 0.73435 0.5805 0.74764 0.0
H117 H 0.80136 0.56726 0.76085 0.0
H118 H 0.77918 0.53931 0.16519 0.0
H119 H 0.71121 0.5514 0.1508 0.0
C120 C 0.05018 0.49363 0.55626 0.0
C121 C 1.04103 0.51954 0.6527 0.0
C122 C 0.05541 0.50582 0.4263 0.0
C123 C 0.05171 0.54445 0.38777 0.0
H124 H 0.05353 0.46374 0.58137 0.0
H125 H 0.06273 0.48501 0.35582 0.0
S126 S 1.02627 0.62274 0.60113 0.0
N127 N 1.02716 0.58489 0.69889 0.0
N128 N 1.03717 0.60784 0.45624 0.0
C129 C 1.04214 0.57036 0.48294 0.0
C130 C 1.03677 0.55793 0.61492 0.0
C131 C 0.50732 1.02962 0.47686 0.0
C132 C 0.54176 0.03729 0.38819 0.0
C133 C 0.51432 1.0244 0.60918 0.0
C134 C 0.55601 1.02655 0.65782 0.0
H135 H 0.47461 1.02756 0.44385 0.0
H136 H 0.48675 1.01839 0.67356 0.0
S137 S 0.6577 0.04709 0.46712 0.0
N138 N 0.61949 0.04759 0.35978 0.0
N139 N 0.63256 0.03769 0.60706 0.0
C140 C 0.59081 0.03448 0.57038 0.0
C141 C 0.5837 0.03983 0.43597 0.0
C142 C 0.57442 0.56474 0.62312 0.0
C143 C 0.5345 0.5231 0.65512 0.0
C144 C 0.58642 0.57202 0.49315 0.0
C145 C 0.55898 0.53793 0.39043 0.0
H146 H 0.59648 0.59203 0.69886 0.0
H147 H 0.61744 0.60462 0.47312 0.0
S148 S 0.45125 0.42253 0.42279 0.0
N149 N 0.46783 0.44712 0.57347 0.0
N150 N 0.49023 0.4608 0.33043 0.0
C151 C 0.51906 0.49612 0.42141 0.0
C152 C 0.5069 0.4887 0.55343 0.0
C153 C 0.21498 0.55739 0.03928 0.0
C154 C 0.16976 0.51701 0.03644 0.0
C155 C 0.25591 0.5538 0.04655 0.0
C156 C 0.25314 0.50968 0.04919 0.0
H157 H 0.21894 0.59216 0.03732 0.0
H158 H 0.28995 0.58575 0.04881 0.0
S159 S 0.14374 0.39319 0.04442 0.0
N160 N 0.12506 0.43136 0.0369 0.0
N161 N 0.20181 0.42492 0.05078 0.0
C162 C 0.20829 0.46909 0.04612 0.0
C163 C 0.16669 0.47268 0.03975 0.0
C164 C 0.68986 0.19659 1.00737 0.0
C165 C 0.68349 0.15529 0.06092 0.0
C166 C 0.73415 0.23796 1.01574 0.0
C167 C 0.77377 0.23983 0.07897 0.0
H168 H 0.66048 0.19706 0.95774 0.0
H169 H 0.73735 0.26886 0.97328 0.0
S170 S 0.77693 0.14156 0.23258 0.0
N171 N 0.72141 0.11913 0.17829 0.0
N172 N 0.80434 0.19664 0.19269 0.0
C173 C 0.76807 0.19892 0.13264 0.0
C174 C 0.72308 0.15675 0.12389 0.0
C175 C 0.52952 0.71903 0.10829 0.0
C176 C 0.56693 0.75835 0.05765 0.0
C177 C 0.52639 0.67468 0.09827 0.0
C178 C 0.56088 0.66801 0.0385 0.0
H179 H 0.5023 0.72253 0.1555 0.0
H180 H 0.49683 0.64556 0.13891 0.0
S181 S 0.66693 0.76068 0.89409 0.0
N182 N 0.63968 0.78832 0.94817 0.0
N183 N 0.63413 0.70537 0.92892 0.0
C184 C 0.59864 0.70732 0.98784 0.0
C185 C 0.60155 0.75232 0.99741 0.0
C186 C 0.8815 0.50936 0.03986 0.0
C187 C 0.92445 0.54524 0.99866 0.0
C188 C 0.84019 0.51222 0.02965 0.0
C189 C 0.8401 0.55081 0.97664 0.0
H190 H 0.87961 0.4787 0.08037 0.0
H191 H 0.80794 0.48369 0.06184 0.0
S192 S 0.94314 0.65522 0.8596 0.0
N193 N 0.96409 0.62147 0.90583 0.0
N194 N 0.88673 0.62658 0.88767 0.0
C195 C 0.88274 0.58713 0.93647 0.0
C196 C 0.9248 0.58443 0.94727 0.0
C197 C 0.36056 0.82469 1.02372 0.0
C198 C 0.32088 0.82312 0.96198 0.0
C199 C 0.40489 0.86603 0.03238 0.0
C200 C 0.41122 0.9076 0.98059 0.0
H201 H 0.3574 0.79359 0.06479 0.0
H202 H 0.43431 0.86532 0.08085 0.0
S203 S 0.31752 0.92214 0.8138 0.0
N204 N 0.29017 0.86685 0.85185 0.0
N205 N 0.37314 0.94433 0.86682 0.0
C206 C 0.37154 0.90643 0.91919 0.0
C207 C 0.32653 0.86429 0.91016 0.0
C208 C 0.56795 0.38793 0.94213 0.0
C209 C 0.5352 0.39547 1.00887 0.0
C210 C 0.5647 0.34354 0.9326 0.0
C211 C 0.52897 0.30507 0.99085 0.0
H212 H 0.5961 0.41636 0.89532 0.0
H213 H 0.59047 0.33931 0.87956 0.0
S214 S 0.43422 0.30546 0.17623 0.0
N215 N 0.46562 0.36004 0.13425 0.0
N216 N 0.45984 0.27697 0.11611 0.0
C217 C 0.49621 0.31205 0.0586 0.0
C218 C 0.49921 0.35709 0.06754 0.0
loop_
_geom_bond_atom_site_label_1
_geom_bond_atom_site_label_2
_geom_bond_distance
_geom_bond_site_symmetry_2
_ccdc_geom_bond_type
Tb0 C2 2.809 . S
Tb0 O20 2.484 1_556 S
Tb0 O21 2.440 . S
Tb0 O22 2.658 1_655 S
Tb0 O23 2.409 . S
Tb0 O24 2.378 . S
Tb0 O28 2.325 1_556 S
Tb0 O31 2.341 1_655 S
Tb1 C11 2.809 . S
Tb1 O22 2.325 1_554 S
Tb1 O25 2.341 1_455 S
Tb1 O26 2.484 1_554 S
Tb1 O27 2.440 . S
Tb1 O28 2.658 1_455 S
Tb1 O29 2.409 . S
Tb1 O30 2.378 . S
C2 Tb0 2.809 . S
C2 C3 1.514 1_556 S
C2 O20 1.248 1_556 S
C2 O21 1.266 . S
C3 C2 1.514 1_554 S
C3 C4 1.359 . S
C3 C8 1.348 1_554 S
C4 C3 1.359 . S
C4 C5 1.380 . S
C4 H32 0.929 . S
C5 C4 1.380 . S
C5 C6 1.347 . S
C5 H33 0.931 . S
C6 C5 1.347 . S
C6 C7 1.369 1_554 S
C7 C6 1.369 1_556 S
C7 C8 1.408 . S
C7 H34 0.930 . S
C8 C3 1.348 1_556 S
C8 C7 1.408 . S
C8 H35 0.930 . S
C9 O22 1.281 1_655 S
C9 O23 1.254 . S
C10 O24 1.236 . S
C10 O25 1.266 1_556 S
C11 Tb1 2.809 . S
C11 C12 1.514 1_554 S
C11 O26 1.248 1_554 S
C11 O27 1.266 . S
C12 C11 1.514 1_556 S
C12 C13 1.359 . S
C12 C17 1.348 1_556 S
C13 C12 1.359 . S
C13 C14 1.380 . S
C13 H36 0.929 . S
C14 C13 1.380 . S
C14 C15 1.347 . S
C14 H37 0.931 . S
C15 C14 1.347 . S
C15 C16 1.369 1_556 S
C16 C15 1.369 1_554 S
C16 C17 1.408 . S
C16 H38 0.930 . S
C17 C12 1.348 1_554 S
C17 C16 1.408 . S
C17 H39 0.930 . S
C18 O28 1.281 1_455 S
C18 O29 1.254 . S
C19 O30 1.236 . S
C19 O31 1.266 1_554 S
O20 Tb0 2.484 1_554 S
O20 C2 1.248 1_554 S
O21 Tb0 2.440 . S
O21 C2 1.266 . S
O22 Tb0 2.658 1_455 S
O22 Tb1 2.325 1_556 S
O22 C9 1.281 1_455 S
O23 Tb0 2.409 . S
O23 C9 1.254 . S
O24 Tb0 2.378 . S
O24 C10 1.236 . S
O25 Tb1 2.341 1_655 S
O25 C10 1.266 1_554 S
O26 Tb1 2.484 1_556 S
O26 C11 1.248 1_556 S
O27 Tb1 2.440 . S
O27 C11 1.266 . S
O28 Tb0 2.325 1_554 S
O28 Tb1 2.658 1_655 S
O28 C18 1.281 1_655 S
O29 Tb1 2.409 . S
O29 C18 1.254 . S
O30 Tb1 2.378 . S
O30 C19 1.236 . S
O31 Tb0 2.341 1_455 S
O31 C19 1.266 1_556 S
H32 C4 0.929 . S
H33 C5 0.931 . S
H34 C7 0.930 . S
H35 C8 0.930 . S
H36 C13 0.929 . S
H37 C14 0.931 . S
H38 C16 0.930 . S
H39 C17 0.930 . S
Tb40 C42 2.809 1_556 S
Tb40 O60 2.484 1_556 S
Tb40 O61 2.440 . S
Tb40 O62 2.658 1_565 S
Tb40 O63 2.409 . S
Tb40 O64 2.378 . S
Tb40 O68 2.325 1_556 S
Tb40 O71 2.341 1_566 S
Tb41 C51 2.809 1_554 S
Tb41 O62 2.325 1_554 S
Tb41 O65 2.341 1_544 S
Tb41 O66 2.484 1_554 S
Tb41 O67 2.440 . S
Tb41 O68 2.658 1_545 S
Tb41 O69 2.409 . S
Tb41 O70 2.378 . S
C42 Tb40 2.809 1_554 S
C42 C43 1.514 . S
C42 O60 1.248 . S
C42 O61 1.266 1_554 S
C43 C42 1.514 . S
C43 C44 1.359 . S
C43 C48 1.348 1_554 S
C44 C43 1.359 . S
C44 C45 1.380 . S
C44 H72 0.929 . S
C45 C44 1.380 . S
C45 C46 1.347 . S
C45 H73 0.931 . S
C46 C45 1.347 . S
C46 C47 1.369 1_554 S
C47 C46 1.369 1_556 S
C47 C48 1.408 . S
C47 H74 0.930 . S
C48 C43 1.348 1_556 S
C48 C47 1.408 . S
C48 H75 0.930 . S
C49 O62 1.281 1_565 S
C49 O63 1.254 . S
C50 O64 1.236 . S
C50 O65 1.266 . S
C51 Tb41 2.809 1_556 S
C51 C52 1.514 . S
C51 O66 1.248 . S
C51 O67 1.266 1_556 S
C52 C51 1.514 . S
C52 C53 1.359 . S
C52 C57 1.348 1_556 S
C53 C52 1.359 . S
C53 C54 1.380 . S
C53 H76 0.929 . S
C54 C53 1.380 . S
C54 C55 1.347 . S
C54 H77 0.931 . S
C55 C54 1.347 . S
C55 C56 1.369 1_556 S
C56 C55 1.369 1_554 S
C56 C57 1.408 . S
C56 H78 0.930 . S
C57 C52 1.348 1_554 S
C57 C56 1.408 . S
C57 H79 0.930 . S
C58 O68 1.281 1_545 S
C58 O69 1.254 . S
C59 O70 1.236 . S
C59 O71 1.266 . S
O60 Tb40 2.484 1_554 S
O60 C42 1.248 . S
O61 Tb40 2.440 . S
O61 C42 1.266 1_556 S
O62 Tb40 2.658 1_545 S
O62 Tb41 2.325 1_556 S
O62 C49 1.281 1_545 S
O63 Tb40 2.409 . S
O63 C49 1.254 . S
O64 Tb40 2.378 . S
O64 C50 1.236 . S
O65 Tb41 2.341 1_566 S
O65 C50 1.266 . S
O66 Tb41 2.484 1_556 S
O66 C51 1.248 . S
O67 Tb41 2.440 . S
O67 C51 1.266 1_554 S
O68 Tb40 2.325 1_554 S
O68 Tb41 2.658 1_565 S
O68 C58 1.281 1_565 S
O69 Tb41 2.409 . S
O69 C58 1.254 . S
O70 Tb41 2.378 . S
O70 C59 1.236 . S
O71 Tb40 2.341 1_544 S
O71 C59 1.266 . S
H72 C44 0.929 . S
H73 C45 0.931 . S
H74 C47 0.930 . S
H75 C48 0.930 . S
H76 C53 0.929 . S
H77 C54 0.931 . S
H78 C56 0.930 . S
H79 C57 0.930 . S
Tb80 C82 2.809 . S
Tb80 O100 2.484 1_556 S
Tb80 O101 2.440 . S
Tb80 O102 2.658 . S
Tb80 O103 2.409 . S
Tb80 O104 2.378 . S
Tb80 O108 2.325 1_556 S
Tb80 O111 2.341 . S
Tb81 C91 2.809 . S
Tb81 O102 2.325 1_554 S
Tb81 O105 2.341 . S
Tb81 O106 2.484 1_554 S
Tb81 O107 2.440 . S
Tb81 O108 2.658 . S
Tb81 O109 2.409 . S
Tb81 O110 2.378 . S
C82 Tb80 2.809 . S
C82 C83 1.514 1_556 S
C82 O100 1.248 1_556 S
C82 O101 1.266 . S
C83 C82 1.514 1_554 S
C83 C84 1.359 . S
C83 C88 1.348 1_554 S
C84 C83 1.359 . S
C84 C85 1.380 . S
C84 H112 0.929 . S
C85 C84 1.380 . S
C85 C86 1.347 . S
C85 H113 0.931 . S
C86 C85 1.347 . S
C86 C87 1.369 1_554 S
C87 C86 1.369 1_556 S
C87 C88 1.408 . S
C87 H114 0.930 . S
C88 C83 1.348 1_556 S
C88 C87 1.408 . S
C88 H115 0.930 . S
C89 O102 1.281 . S
C89 O103 1.254 . S
C90 O104 1.236 . S
C90 O105 1.266 1_556 S
C91 Tb81 2.809 . S
C91 C92 1.514 1_554 S
C91 O106 1.248 1_554 S
C91 O107 1.266 . S
C92 C91 1.514 1_556 S
C92 C93 1.359 . S
C92 C97 1.348 1_556 S
C93 C92 1.359 . S
C93 C94 1.380 . S
C93 H116 0.929 . S
C94 C93 1.380 . S
C94 C95 1.347 . S
C94 H117 0.931 . S
C95 C94 1.347 . S
C95 C96 1.369 1_556 S
C96 C95 1.369 1_554 S
C96 C97 1.408 . S
C96 H118 0.930 . S
C97 C92 1.348 1_554 S
C97 C96 1.408 . S
C97 H119 0.930 . S
C98 O108 1.281 . S
C98 O109 1.254 . S
C99 O110 1.236 . S
C99 O111 1.266 1_554 S
O100 Tb80 2.484 1_554 S
O100 C82 1.248 1_554 S
O101 Tb80 2.440 . S
O101 C82 1.266 . S
O102 Tb80 2.658 . S
O102 Tb81 2.325 1_556 S
O102 C89 1.281 . S
O103 Tb80 2.409 . S
O103 C89 1.254 . S
O104 Tb80 2.378 . S
O104 C90 1.236 . S
O105 Tb81 2.341 . S
O105 C90 1.266 1_554 S
O106 Tb81 2.484 1_556 S
O106 C91 1.248 1_556 S
O107 Tb81 2.440 . S
O107 C91 1.266 . S
O108 Tb80 2.325 1_554 S
O108 Tb81 2.658 . S
O108 C98 1.281 . S
O109 Tb81 2.409 . S
O109 C98 1.254 . S
O110 Tb81 2.378 . S
O110 C99 1.236 . S
O111 Tb80 2.341 . S
O111 C99 1.266 1_556 S
H112 C84 0.929 . S
H113 C85 0.931 . S
H114 C87 0.930 . S
H115 C88 0.930 . S
H116 C93 0.929 . S
H117 C94 0.931 . S
H118 C96 0.930 . S
H119 C97 0.930 . S
C120 C121 1.353 1_655 S
C120 C122 1.419 . S
C120 H124 0.930 . S
C121 C120 1.353 1_455 S
C121 C130 1.447 . S
C122 C120 1.419 . S
C122 C123 1.345 1_655 S
C122 H125 0.929 . S
C123 C122 1.345 1_455 S
C123 C129 1.445 . S
H124 C120 0.930 . S
H125 C122 0.929 . S
S126 N127 1.613 . S
S126 N128 1.610 . S
N127 S126 1.613 . S
N127 C130 1.350 . S
N128 S126 1.610 . S
N128 C129 1.351 . S
C129 C123 1.445 . S
C129 N128 1.351 . S
C129 C130 1.434 . S
C130 C121 1.447 . S
C130 N127 1.350 . S
C130 C129 1.434 . S
C131 C132 1.363 1_565 S
C131 C133 1.419 . S
C131 H135 0.930 . S
C132 C131 1.363 1_545 S
C132 C141 1.435 . S
C133 C131 1.419 . S
C133 C134 1.359 1_565 S
C133 H136 0.929 . S
C134 C133 1.359 1_545 S
C134 C140 1.433 . S
H135 C131 0.930 . S
H136 C133 0.929 . S
S137 N138 1.613 . S
S137 N139 1.610 . S
N138 S137 1.613 . S
N138 C141 1.350 . S
N139 S137 1.610 . S
N139 C140 1.351 . S
C140 C134 1.433 . S
C140 N139 1.351 . S
C140 C141 1.434 . S
C141 C132 1.435 . S
C141 N138 1.350 . S
C141 C140 1.434 . S
C142 C143 1.369 . S
C142 C144 1.419 . S
C142 H146 0.930 . S
C143 C142 1.369 . S
C143 C152 1.429 . S
C144 C142 1.419 . S
C144 C145 1.363 . S
C144 H147 0.929 . S
C145 C144 1.363 . S
C145 C151 1.428 . S
H146 C142 0.930 . S
H147 C144 0.929 . S
S148 N149 1.613 . S
S148 N150 1.610 . S
N149 S148 1.613 . S
N149 C152 1.350 . S
N150 S148 1.610 . S
N150 C151 1.351 . S
C151 C145 1.428 . S
C151 N150 1.351 . S
C151 C152 1.434 . S
C152 C143 1.429 . S
C152 N149 1.350 . S
C152 C151 1.434 . S
C153 C154 1.369 . S
C153 C155 1.419 . S
C153 H157 0.930 . S
C154 C153 1.369 . S
C154 C163 1.429 1_554 S
C155 C153 1.419 . S
C155 C156 1.363 . S
C155 H158 0.929 . S
C156 C155 1.363 . S
C156 C162 1.428 1_554 S
H157 C153 0.930 . S
H158 C155 0.929 . S
S159 N160 1.613 . S
S159 N161 1.610 . S
N160 S159 1.613 . S
N160 C163 1.350 . S
N161 S159 1.610 . S
N161 C162 1.351 . S
C162 C156 1.428 1_556 S
C162 N161 1.351 . S
C162 C163 1.434 . S
C163 C154 1.429 1_556 S
C163 N160 1.350 . S
C163 C162 1.434 . S
C164 C165 1.369 1_556 S
C164 C166 1.419 . S
C164 H168 0.930 . S
C165 C164 1.369 1_554 S
C165 C174 1.429 . S
C166 C164 1.419 . S
C166 C167 1.363 1_556 S
C166 H169 0.929 . S
C167 C166 1.363 1_554 S
C167 C173 1.428 . S
H168 C164 0.930 . S
H169 C166 0.929 . S
S170 N171 1.613 . S
S170 N172 1.610 . S
N171 S170 1.613 . S
N171 C174 1.350 . S
N172 S170 1.610 . S
N172 C173 1.351 . S
C173 C167 1.428 . S
C173 N172 1.351 . S
C173 C174 1.434 . S
C174 C165 1.429 . S
C174 N171 1.350 . S
C174 C173 1.434 . S
C175 C176 1.369 . S
C175 C177 1.419 . S
C175 H179 0.930 . S
C176 C175 1.369 . S
C176 C185 1.429 1_554 S
C177 C175 1.419 . S
C177 C178 1.363 . S
C177 H180 0.929 . S
C178 C177 1.363 . S
C178 C184 1.428 1_554 S
H179 C175 0.930 . S
H180 C177 0.929 . S
S181 N182 1.613 . S
S181 N183 1.610 . S
N182 S181 1.613 . S
N182 C185 1.350 . S
N183 S181 1.610 . S
N183 C184 1.351 . S
C184 C178 1.428 1_556 S
C184 N183 1.351 . S
C184 C185 1.434 . S
C185 C176 1.429 1_556 S
C185 N182 1.350 . S
C185 C184 1.434 . S
C186 C187 1.369 1_554 S
C186 C188 1.419 . S
C186 H190 0.930 . S
C187 C186 1.369 1_556 S
C187 C196 1.429 . S
C188 C186 1.419 . S
C188 C189 1.363 1_554 S
C188 H191 0.929 . S
C189 C188 1.363 1_556 S
C189 C195 1.428 . S
H190 C186 0.930 . S
H191 C188 0.929 . S
S192 N193 1.613 . S
S192 N194 1.610 . S
N193 S192 1.613 . S
N193 C196 1.350 . S
N194 S192 1.610 . S
N194 C195 1.351 . S
C195 C189 1.428 . S
C195 N194 1.351 . S
C195 C196 1.434 . S
C196 C187 1.429 . S
C196 N193 1.350 . S
C196 C195 1.434 . S
C197 C198 1.369 1_554 S
C197 C199 1.419 . S
C197 H201 0.930 . S
C198 C197 1.369 1_556 S
C198 C207 1.429 . S
C199 C197 1.419 . S
C199 C200 1.363 1_554 S
C199 H202 0.929 . S
C200 C199 1.363 1_556 S
C200 C206 1.428 . S
H201 C197 0.930 . S
H202 C199 0.929 . S
S203 N204 1.613 . S
S203 N205 1.610 . S
N204 S203 1.613 . S
N204 C207 1.350 . S
N205 S203 1.610 . S
N205 C206 1.351 . S
C206 C200 1.428 . S
C206 N205 1.351 . S
C206 C207 1.434 . S
C207 C198 1.429 . S
C207 N204 1.350 . S
C207 C206 1.434 . S
C208 C209 1.369 . S
C208 C210 1.419 . S
C208 H212 0.930 . S
C209 C208 1.369 . S
C209 C218 1.429 1_556 S
C210 C208 1.419 . S
C210 C211 1.363 . S
C210 H213 0.929 . S
C211 C210 1.363 . S
C211 C217 1.428 1_556 S
H212 C208 0.930 . S
H213 C210 0.929 . S
S214 N215 1.613 . S
S214 N216 1.610 . S
N215 S214 1.613 . S
N215 C218 1.350 . S
N216 S214 1.610 . S
N216 C217 1.351 . S
C217 C211 1.428 1_554 S
C217 N216 1.351 . S
C217 C218 1.434 . S
C218 C209 1.429 1_554 S
C218 N215 1.350 . S
C218 C217 1.434 . S
C121 C9 1.446 1_455 S
C123 C18 1.439 . S
C132 C58 1.444 . S
C134 C49 1.432 1_545 S
C143 C89 1.443 . S
C145 C98 1.443 . S
C154 C19 1.627 . S
C156 C86 1.628 . S
C165 C59 1.628 . S
C167 C6 1.629 . S
C176 C46 1.635 . S
C178 C90 1.645 1_554 S
C187 C10 1.624 . S
C189 C95 1.629 . S
C198 C15 1.630 . S
C200 C50 1.629 . S
C209 C99 1.645 1_556 S
C211 C55 1.636 . S
