# Generated by pormake.
# Topology umm, (4)-cn, num edge types: 1
# Building blocks:
#     Node 0, Type 0, BuildingBlock: QUQFOY_clean_sbu_1, # of connection points: 4
#     Node 1, Type 0, BuildingBlock: QUQFOY_clean_sbu_1, # of connection points: 4
#     Node 2, Type 0, BuildingBlock: QUQFOY_clean_sbu_1, # of connection points: 4
#     Node 3, Type 0, BuildingBlock: QUQFOY_clean_sbu_1, # of connection points: 4
#     Node 4, Type 0, BuildingBlock: QUQFOY_clean_sbu_1, # of connection points: 4
#     Node 5, Type 0, BuildingBlock: QUQFOY_clean_sbu_1, # of connection points: 4
#     Node 6, Type 0, BuildingBlock: QUQFOY_clean_sbu_1, # of connection points: 4
#     Node 7, Type 0, BuildingBlock: QUQFOY_clean_sbu_1, # of connection points: 4
#     Node 8, Type 0, BuildingBlock: QUQFOY_clean_sbu_1, # of connection points: 4
#     Node 9, Type 0, BuildingBlock: QUQFOY_clean_sbu_1, # of connection points: 4
#     Node 10, Type 0, BuildingBlock: QUQFOY_clean_sbu_1, # of connection points: 4
#     Node 11, Type 0, BuildingBlock: QUQFOY_clean_sbu_1, # of connection points: 4
#     Edge 12, Type (0, 0), None
#     Edge 13, Type (0, 0), None
#     Edge 14, Type (0, 0), None
#     Edge 15, Type (0, 0), None
#     Edge 16, Type (0, 0), None
#     Edge 17, Type (0, 0), None
#     Edge 18, Type (0, 0), None
#     Edge 19, Type (0, 0), None
#     Edge 20, Type (0, 0), None
#     Edge 21, Type (0, 0), None
#     Edge 22, Type (0, 0), None
#     Edge 23, Type (0, 0), None
#     Edge 24, Type (0, 0), None
#     Edge 25, Type (0, 0), None
#     Edge 26, Type (0, 0), None
#     Edge 27, Type (0, 0), None
#     Edge 28, Type (0, 0), None
#     Edge 29, Type (0, 0), None
#     Edge 30, Type (0, 0), None
#     Edge 31, Type (0, 0), None
#     Edge 32, Type (0, 0), None
#     Edge 33, Type (0, 0), None
#     Edge 34, Type (0, 0), None
#     Edge 35, Type (0, 0), None
# Relax obj value: 0.043
# Max RMSD: 0.175
# Mean RMSD: 0.175
data_MOF--net-umm--node1-QUQFOY_clean_sbu_1--edge1-none
_symmetry_space_group_name_H-M    P1
_symmetry_Int_Tables_number       1
_symmetry_cell_setting            triclinic
loop_
_symmetry_equiv_pos_as_xyz
'x, y, z'
_cell_length_a     24.742421
_cell_length_b     24.744527
_cell_length_c     12.716976
_cell_angle_alpha  89.995669
_cell_angle_beta   90.008724
_cell_angle_gamma 120.00375
loop_
_atom_site_label
_atom_site_type_symbol
_atom_site_fract_x
_atom_site_fract_y
_atom_site_fract_z
_atom_type_partial_charge
O0 O 0.58296 0.62729 0.13408 0.0
Cd1 Cd 0.5163 0.65361 0.15015 0.0
Cd2 Cd 0.44566 0.54015 0.06547 0.0
O3 O 0.51749 0.52575 0.11879 0.0
O4 O 0.54413 0.71212 0.27269 0.0
O5 O 0.45905 0.61841 0.27367 0.0
C6 C 0.49813 0.66813 0.32415 0.0
C7 C 0.33846 0.48788 0.06754 0.0
C8 C 0.573 0.57175 0.13033 0.0
C9 C 0.48474 0.65434 0.93204 0.0
O10 O 0.46996 0.59764 0.93977 0.0
O11 O 0.49936 0.6884 1.01386 0.0
O12 O 0.36736 0.46878 1.00677 0.0
O13 O 0.37034 0.5284 0.13954 0.0
O14 O 1.02231 0.54967 0.46734 0.0
Cd15 Cd 0.92932 0.48301 0.48342 0.0
Cd16 Cd 0.97214 0.41237 0.39876 0.0
O17 O 1.05838 0.4842 0.45206 0.0
O18 O 0.89864 0.51084 0.60595 0.0
O19 O 0.90726 0.42577 0.60696 0.0
C20 C 0.89663 0.46485 0.65742 0.0
C21 C 0.91724 0.30519 0.40084 0.0
C22 C 1.0679 0.53971 0.46359 0.0
C23 C 0.89701 0.45144 0.26532 0.0
O24 O 0.93893 0.43666 0.27305 0.0
O25 O 0.87758 0.46607 0.34713 0.0
O26 O 0.96525 0.33411 0.34006 0.0
O27 O 0.90858 0.33704 0.47284 0.0
O28 O 0.53928 0.98903 0.8006 0.0
Cd29 Cd 0.51294 0.89604 0.8167 0.0
Cd30 Cd 0.6264 0.93885 0.73206 0.0
O31 O 0.64082 1.02509 0.78536 0.0
O32 O 0.45442 0.86536 0.93923 0.0
O33 O 0.54812 0.87399 0.94026 0.0
C34 C 0.49841 0.86336 0.99071 0.0
C35 C 0.67866 0.88393 0.73418 0.0
C36 C 0.59482 1.03461 0.79687 0.0
C37 C 0.5122 0.86374 0.59861 0.0
O38 O 0.56891 0.90567 0.60634 0.0
O39 O 0.47814 0.84431 0.68041 0.0
O40 O 0.69778 0.93194 0.6734 0.0
O41 O 0.63813 0.87528 0.80615 0.0
O42 O 0.61691 0.506 0.13407 0.0
Cd43 Cd 0.68357 0.47968 0.15017 0.0
Cd44 Cd 0.75421 0.59313 0.06549 0.0
O45 O 0.68239 0.60754 0.1188 0.0
O46 O 0.65574 0.42117 0.27271 0.0
O47 O 0.74082 0.51488 0.27372 0.0
C48 C 0.70174 0.46516 0.32418 0.0
C49 C 0.8614 0.64541 0.06755 0.0
C50 C 0.62687 0.56154 0.13033 0.0
C51 C 0.71512 0.47894 0.93208 0.0
O52 O 0.72989 0.53564 0.9398 0.0
O53 O 0.70051 0.44489 1.0139 0.0
O54 O 0.83249 0.66451 1.00677 0.0
O55 O 0.82954 0.60489 0.13956 0.0
O56 O 0.17756 0.58362 0.46734 0.0
Cd57 Cd 0.27055 0.65028 0.48344 0.0
Cd58 Cd 0.22772 0.72091 0.39875 0.0
O59 O 0.14149 0.64909 0.45205 0.0
O60 O 0.30123 0.62246 0.60601 0.0
O61 O 0.2926 0.70753 0.60698 0.0
C62 C 0.30323 0.66845 0.65746 0.0
C63 C 0.28262 0.8281 0.40079 0.0
C64 C 0.13197 0.59358 0.46359 0.0
C65 C 0.30285 0.68184 0.26535 0.0
O66 O 0.26092 0.69661 0.27306 0.0
O67 O 0.32228 0.66722 0.34718 0.0
O68 O 0.2346 0.79917 0.34 0.0
O69 O 0.29129 0.79625 0.47281 0.0
O70 O 0.66059 0.14426 0.80062 0.0
Cd71 Cd 0.68693 0.23724 0.8167 0.0
Cd72 Cd 0.57346 0.19443 0.73202 0.0
O73 O 0.55905 0.1082 0.78532 0.0
O74 O 0.74544 0.26792 0.93926 0.0
O75 O 0.65174 0.2593 0.94023 0.0
C76 C 0.70145 0.26993 0.99071 0.0
C77 C 0.5212 0.24935 0.73413 0.0
C78 C 0.60504 0.09868 0.79687 0.0
C79 C 0.68766 0.26954 0.5986 0.0
O80 O 0.63095 0.22762 0.60632 0.0
O81 O 0.72172 0.28897 0.68042 0.0
O82 O 0.50208 0.20135 0.67334 0.0
O83 O 0.56173 0.258 0.80611 0.0
O84 O 0.53925 0.58358 0.62981 0.0
Cd85 Cd 0.51287 0.65018 0.6137 0.0
Cd86 Cd 0.62641 0.72094 0.69831 0.0
O87 O 0.6408 0.64909 0.64509 0.0
O88 O 0.45435 0.62233 0.49115 0.0
O89 O 0.54805 0.70743 0.49017 0.0
C90 C 0.49834 0.66833 0.4397 0.0
C91 C 0.67868 0.82809 0.69607 0.0
C92 C 0.59481 0.59356 0.63356 0.0
C93 C 0.51223 0.68188 0.83174 0.0
O94 O 0.56894 0.6967 0.82404 0.0
O95 O 0.4781 0.66713 0.74998 0.0
O96 O 0.69782 0.79924 0.75693 0.0
O97 O 0.63813 0.79621 0.62411 0.0
O98 O 1.02231 0.50598 0.9631 0.0
Cd99 Cd 0.92931 0.47959 0.94698 0.0
Cd100 Cd 0.9721 0.59312 1.03158 0.0
O101 O 1.05835 0.60751 0.97837 0.0
O102 O 0.89865 0.42107 0.82444 0.0
O103 O 0.90724 0.51476 0.82343 0.0
C104 C 0.89663 0.46505 0.77298 0.0
C105 C 0.91725 0.64542 1.0294 0.0
C106 C 1.06788 0.56153 0.96685 0.0
C107 C 0.89696 0.47893 0.16501 0.0
O108 O 0.93885 0.53564 0.1573 0.0
O109 O 0.87759 0.44481 0.08326 0.0
O110 O 0.96524 0.66452 0.09024 0.0
O111 O 0.90857 0.60489 0.9574 0.0
O112 O 0.58298 0.98904 0.29636 0.0
Cd113 Cd 0.51635 0.89604 0.28025 0.0
Cd114 Cd 0.44561 0.93883 0.36484 0.0
O115 O 0.51747 1.02507 0.31162 0.0
O116 O 0.54421 0.86538 0.15773 0.0
O117 O 0.4591 0.87397 0.1567 0.0
C118 C 0.49821 0.86336 0.10626 0.0
C119 C 0.33845 0.88396 0.36264 0.0
C120 C 0.573 1.0346 0.3001 0.0
C121 C 0.48466 0.86369 0.49829 0.0
O122 O 0.46985 0.90559 0.49057 0.0
O123 O 0.49941 0.84432 0.41655 0.0
O124 O 0.36733 0.93195 0.42348 0.0
O125 O 0.37031 0.87529 0.29065 0.0
O126 O 0.6606 0.54971 0.62981 0.0
Cd127 Cd 0.68699 0.48311 0.61372 0.0
Cd128 Cd 0.57345 0.41235 0.69829 0.0
O129 O 0.55906 0.4842 0.64507 0.0
O130 O 0.74552 0.51097 0.4912 0.0
O131 O 0.65182 0.42586 0.49018 0.0
C132 C 0.70153 0.46497 0.43974 0.0
C133 C 0.52118 0.30519 0.69602 0.0
C134 C 0.60505 0.53972 0.63356 0.0
C135 C 0.68763 0.4514 0.83177 0.0
O136 O 0.63091 0.43657 0.82404 0.0
O137 O 0.72176 0.46616 0.75003 0.0
O138 O 0.50204 0.33404 0.75687 0.0
O139 O 0.56172 0.33708 0.62407 0.0
O140 O 0.17754 0.62731 0.96308 0.0
Cd141 Cd 0.27054 0.6537 0.947 0.0
Cd142 Cd 0.22776 0.54017 1.03161 0.0
O143 O 0.1415 0.52578 0.97839 0.0
O144 O 0.3012 0.71222 0.82446 0.0
O145 O 0.29262 0.61853 0.82348 0.0
C146 C 0.30322 0.66824 0.77301 0.0
C147 C 0.28261 0.48787 1.0294 0.0
C148 C 0.13197 0.57176 0.96685 0.0
C149 C 0.3029 0.65436 0.16505 0.0
O150 O 0.26102 0.59764 0.15733 0.0
O151 O 0.32226 0.68848 0.0833 0.0
O152 O 0.23462 0.46876 0.09025 0.0
O153 O 0.29128 0.5284 0.95742 0.0
O154 O 0.61687 0.14425 0.29634 0.0
Cd155 Cd 0.68349 0.23724 0.28025 0.0
Cd156 Cd 0.75424 0.19446 0.36488 0.0
O157 O 0.68237 0.10822 0.31165 0.0
O158 O 0.65565 0.26791 0.1577 0.0
O159 O 0.74075 0.25931 0.15674 0.0
C160 C 0.70165 0.26992 0.10626 0.0
C161 C 0.8614 0.24933 0.36269 0.0
C162 C 0.62685 0.09868 0.30011 0.0
C163 C 0.7152 0.26959 0.4983 0.0
O164 O 0.73001 0.2277 0.4906 0.0
O165 O 0.70044 0.28896 0.41655 0.0
O166 O 0.83253 0.20134 0.42354 0.0
O167 O 0.82953 0.25799 0.2907 0.0
loop_
_geom_bond_atom_site_label_1
_geom_bond_atom_site_label_2
_geom_bond_distance
_geom_bond_site_symmetry_2
_ccdc_geom_bond_type
O0 Cd1 2.223 . S
O0 C8 1.315 . S
Cd1 O0 2.223 . S
Cd1 O4 2.297 . S
Cd1 O5 2.439 . S
Cd1 O11 2.240 1_554 S
Cd2 O3 2.240 1_556 S
Cd2 O10 2.223 . S
Cd2 O12 2.297 . S
Cd2 O13 2.439 1_556 S
O3 Cd2 2.240 1_554 S
O3 C8 1.279 . S
O4 Cd1 2.297 . S
O4 C6 1.247 . S
O5 Cd1 2.439 . S
O5 C6 1.208 . S
C6 O4 1.247 . S
C6 O5 1.208 . S
C7 O12 1.247 . S
C7 O13 1.208 1_556 S
C8 O0 1.315 . S
C8 O3 1.279 . S
C9 O10 1.315 . S
C9 O11 1.279 . S
O10 Cd2 2.223 . S
O10 C9 1.315 . S
O11 Cd1 2.240 1_556 S
O11 C9 1.279 . S
O12 Cd2 2.297 . S
O12 C7 1.247 . S
O13 Cd2 2.439 1_554 S
O13 C7 1.208 1_554 S
O14 Cd15 2.223 . S
O14 C22 1.315 . S
Cd15 O14 2.223 . S
Cd15 O18 2.297 . S
Cd15 O19 2.439 . S
Cd15 O25 2.240 . S
Cd16 O17 2.240 . S
Cd16 O24 2.223 . S
Cd16 O26 2.297 . S
Cd16 O27 2.439 . S
O17 Cd16 2.240 . S
O17 C22 1.279 . S
O18 Cd15 2.297 . S
O18 C20 1.247 . S
O19 Cd15 2.439 . S
O19 C20 1.208 . S
C20 O18 1.247 . S
C20 O19 1.208 . S
C21 O26 1.247 . S
C21 O27 1.208 . S
C22 O14 1.315 . S
C22 O17 1.279 . S
C23 O24 1.315 . S
C23 O25 1.279 . S
O24 Cd16 2.223 . S
O24 C23 1.315 . S
O25 Cd15 2.240 . S
O25 C23 1.279 . S
O26 Cd16 2.297 . S
O26 C21 1.247 . S
O27 Cd16 2.439 . S
O27 C21 1.208 . S
O28 Cd29 2.223 . S
O28 C36 1.315 . S
Cd29 O28 2.223 . S
Cd29 O32 2.297 . S
Cd29 O33 2.439 . S
Cd29 O39 2.240 . S
Cd30 O31 2.240 . S
Cd30 O38 2.223 . S
Cd30 O40 2.297 . S
Cd30 O41 2.439 . S
O31 Cd30 2.240 . S
O31 C36 1.279 . S
O32 Cd29 2.297 . S
O32 C34 1.247 . S
O33 Cd29 2.439 . S
O33 C34 1.208 . S
C34 O32 1.247 . S
C34 O33 1.208 . S
C35 O40 1.247 . S
C35 O41 1.208 . S
C36 O28 1.315 . S
C36 O31 1.279 . S
C37 O38 1.315 . S
C37 O39 1.279 . S
O38 Cd30 2.223 . S
O38 C37 1.315 . S
O39 Cd29 2.240 . S
O39 C37 1.279 . S
O40 Cd30 2.297 . S
O40 C35 1.247 . S
O41 Cd30 2.439 . S
O41 C35 1.208 . S
O42 Cd43 2.223 . S
O42 C50 1.315 . S
Cd43 O42 2.223 . S
Cd43 O46 2.297 . S
Cd43 O47 2.439 . S
Cd43 O53 2.240 1_554 S
Cd44 O45 2.240 1_556 S
Cd44 O52 2.223 . S
Cd44 O54 2.297 . S
Cd44 O55 2.439 1_556 S
O45 Cd44 2.240 1_554 S
O45 C50 1.279 . S
O46 Cd43 2.297 . S
O46 C48 1.247 . S
O47 Cd43 2.439 . S
O47 C48 1.208 . S
C48 O46 1.247 . S
C48 O47 1.208 . S
C49 O54 1.247 . S
C49 O55 1.208 1_556 S
C50 O42 1.315 . S
C50 O45 1.279 . S
C51 O52 1.315 . S
C51 O53 1.279 . S
O52 Cd44 2.223 . S
O52 C51 1.315 . S
O53 Cd43 2.240 1_556 S
O53 C51 1.279 . S
O54 Cd44 2.297 . S
O54 C49 1.247 . S
O55 Cd44 2.439 1_554 S
O55 C49 1.208 1_554 S
O56 Cd57 2.223 . S
O56 C64 1.315 . S
Cd57 O56 2.223 . S
Cd57 O60 2.297 . S
Cd57 O61 2.439 . S
Cd57 O67 2.240 . S
Cd58 O59 2.240 . S
Cd58 O66 2.223 . S
Cd58 O68 2.297 . S
Cd58 O69 2.439 . S
O59 Cd58 2.240 . S
O59 C64 1.279 . S
O60 Cd57 2.297 . S
O60 C62 1.247 . S
O61 Cd57 2.439 . S
O61 C62 1.208 . S
C62 O60 1.247 . S
C62 O61 1.208 . S
C63 O68 1.247 . S
C63 O69 1.208 . S
C64 O56 1.315 . S
C64 O59 1.279 . S
C65 O66 1.315 . S
C65 O67 1.279 . S
O66 Cd58 2.223 . S
O66 C65 1.315 . S
O67 Cd57 2.240 . S
O67 C65 1.279 . S
O68 Cd58 2.297 . S
O68 C63 1.247 . S
O69 Cd58 2.439 . S
O69 C63 1.208 . S
O70 Cd71 2.223 . S
O70 C78 1.315 . S
Cd71 O70 2.223 . S
Cd71 O74 2.297 . S
Cd71 O75 2.439 . S
Cd71 O81 2.240 . S
Cd72 O73 2.240 . S
Cd72 O80 2.223 . S
Cd72 O82 2.297 . S
Cd72 O83 2.439 . S
O73 Cd72 2.240 . S
O73 C78 1.279 . S
O74 Cd71 2.297 . S
O74 C76 1.247 . S
O75 Cd71 2.439 . S
O75 C76 1.208 . S
C76 O74 1.247 . S
C76 O75 1.208 . S
C77 O82 1.247 . S
C77 O83 1.208 . S
C78 O70 1.315 . S
C78 O73 1.279 . S
C79 O80 1.315 . S
C79 O81 1.279 . S
O80 Cd72 2.223 . S
O80 C79 1.315 . S
O81 Cd71 2.240 . S
O81 C79 1.279 . S
O82 Cd72 2.297 . S
O82 C77 1.247 . S
O83 Cd72 2.439 . S
O83 C77 1.208 . S
O84 Cd85 2.223 . S
O84 C92 1.315 . S
Cd85 O84 2.223 . S
Cd85 O88 2.297 . S
Cd85 O89 2.439 . S
Cd85 O95 2.240 . S
Cd86 O87 2.240 . S
Cd86 O94 2.223 . S
Cd86 O96 2.297 . S
Cd86 O97 2.439 . S
O87 Cd86 2.240 . S
O87 C92 1.279 . S
O88 Cd85 2.297 . S
O88 C90 1.247 . S
O89 Cd85 2.439 . S
O89 C90 1.208 . S
C90 O88 1.247 . S
C90 O89 1.208 . S
C91 O96 1.247 . S
C91 O97 1.208 . S
C92 O84 1.315 . S
C92 O87 1.279 . S
C93 O94 1.315 . S
C93 O95 1.279 . S
O94 Cd86 2.223 . S
O94 C93 1.315 . S
O95 Cd85 2.240 . S
O95 C93 1.279 . S
O96 Cd86 2.297 . S
O96 C91 1.247 . S
O97 Cd86 2.439 . S
O97 C91 1.208 . S
O98 Cd99 2.223 . S
O98 C106 1.315 . S
Cd99 O98 2.223 . S
Cd99 O102 2.297 . S
Cd99 O103 2.439 . S
Cd99 O109 2.240 1_556 S
Cd100 O101 2.240 1_554 S
Cd100 O108 2.223 . S
Cd100 O110 2.297 . S
Cd100 O111 2.439 1_554 S
O101 Cd100 2.240 1_556 S
O101 C106 1.279 . S
O102 Cd99 2.297 . S
O102 C104 1.247 . S
O103 Cd99 2.439 . S
O103 C104 1.208 . S
C104 O102 1.247 . S
C104 O103 1.208 . S
C105 O110 1.247 . S
C105 O111 1.208 1_554 S
C106 O98 1.315 . S
C106 O101 1.279 . S
C107 O108 1.315 . S
C107 O109 1.279 . S
O108 Cd100 2.223 . S
O108 C107 1.315 . S
O109 Cd99 2.240 1_554 S
O109 C107 1.279 . S
O110 Cd100 2.297 . S
O110 C105 1.247 . S
O111 Cd100 2.439 1_556 S
O111 C105 1.208 1_556 S
O112 Cd113 2.223 . S
O112 C120 1.315 . S
Cd113 O112 2.223 . S
Cd113 O116 2.297 . S
Cd113 O117 2.439 . S
Cd113 O123 2.240 . S
Cd114 O115 2.240 . S
Cd114 O122 2.223 . S
Cd114 O124 2.297 . S
Cd114 O125 2.439 . S
O115 Cd114 2.240 . S
O115 C120 1.279 . S
O116 Cd113 2.297 . S
O116 C118 1.247 . S
O117 Cd113 2.439 . S
O117 C118 1.208 . S
C118 O116 1.247 . S
C118 O117 1.208 . S
C119 O124 1.247 . S
C119 O125 1.208 . S
C120 O112 1.315 . S
C120 O115 1.279 . S
C121 O122 1.315 . S
C121 O123 1.279 . S
O122 Cd114 2.223 . S
O122 C121 1.315 . S
O123 Cd113 2.240 . S
O123 C121 1.279 . S
O124 Cd114 2.297 . S
O124 C119 1.247 . S
O125 Cd114 2.439 . S
O125 C119 1.208 . S
O126 Cd127 2.223 . S
O126 C134 1.315 . S
Cd127 O126 2.223 . S
Cd127 O130 2.297 . S
Cd127 O131 2.439 . S
Cd127 O137 2.240 . S
Cd128 O129 2.240 . S
Cd128 O136 2.223 . S
Cd128 O138 2.297 . S
Cd128 O139 2.439 . S
O129 Cd128 2.240 . S
O129 C134 1.279 . S
O130 Cd127 2.297 . S
O130 C132 1.247 . S
O131 Cd127 2.439 . S
O131 C132 1.208 . S
C132 O130 1.247 . S
C132 O131 1.208 . S
C133 O138 1.247 . S
C133 O139 1.208 . S
C134 O126 1.315 . S
C134 O129 1.279 . S
C135 O136 1.315 . S
C135 O137 1.279 . S
O136 Cd128 2.223 . S
O136 C135 1.315 . S
O137 Cd127 2.240 . S
O137 C135 1.279 . S
O138 Cd128 2.297 . S
O138 C133 1.247 . S
O139 Cd128 2.439 . S
O139 C133 1.208 . S
O140 Cd141 2.223 . S
O140 C148 1.315 . S
Cd141 O140 2.223 . S
Cd141 O144 2.297 . S
Cd141 O145 2.439 . S
Cd141 O151 2.240 1_556 S
Cd142 O143 2.240 1_554 S
Cd142 O150 2.223 . S
Cd142 O152 2.297 . S
Cd142 O153 2.439 1_554 S
O143 Cd142 2.240 1_556 S
O143 C148 1.279 . S
O144 Cd141 2.297 . S
O144 C146 1.247 . S
O145 Cd141 2.439 . S
O145 C146 1.208 . S
C146 O144 1.247 . S
C146 O145 1.208 . S
C147 O152 1.247 . S
C147 O153 1.208 1_554 S
C148 O140 1.315 . S
C148 O143 1.279 . S
C149 O150 1.315 . S
C149 O151 1.279 . S
O150 Cd142 2.223 . S
O150 C149 1.315 . S
O151 Cd141 2.240 1_554 S
O151 C149 1.279 . S
O152 Cd142 2.297 . S
O152 C147 1.247 . S
O153 Cd142 2.439 1_556 S
O153 C147 1.208 1_556 S
O154 Cd155 2.223 . S
O154 C162 1.315 . S
Cd155 O154 2.223 . S
Cd155 O158 2.297 . S
Cd155 O159 2.439 . S
Cd155 O165 2.240 . S
Cd156 O157 2.240 . S
Cd156 O164 2.223 . S
Cd156 O166 2.297 . S
Cd156 O167 2.439 . S
O157 Cd156 2.240 . S
O157 C162 1.279 . S
O158 Cd155 2.297 . S
O158 C160 1.247 . S
O159 Cd155 2.439 . S
O159 C160 1.208 . S
C160 O158 1.247 . S
C160 O159 1.208 . S
C161 O166 1.247 . S
C161 O167 1.208 . S
C162 O154 1.315 . S
C162 O157 1.279 . S
C163 O164 1.315 . S
C163 O165 1.279 . S
O164 Cd156 2.223 . S
O164 C163 1.315 . S
O165 Cd155 2.240 . S
O165 C163 1.279 . S
O166 Cd156 2.297 . S
O166 C161 1.247 . S
O167 Cd156 2.439 . S
O167 C161 1.208 . S
C6 C90 1.646 . S
C20 C104 1.647 . S
C34 C118 1.647 1_556 S
C48 C132 1.646 . S
C62 C146 1.647 . S
C160 C76 1.647 1_554 S
C7 C147 1.688 1_556 S
C21 C161 1.688 . S
C35 C91 1.690 . S
C49 C105 1.688 1_556 S
C63 C119 1.688 . S
C77 C133 1.690 . S
C8 C50 1.557 . S
C22 C64 1.559 1_655 S
C78 C36 1.559 1_545 S
C92 C134 1.560 . S
C148 C106 1.557 1_455 S
C120 C162 1.557 1_565 S
C93 C9 1.398 . S
C23 C107 1.398 . S
C37 C121 1.398 . S
C135 C51 1.398 . S
C149 C65 1.398 . S
C79 C163 1.398 . S
