# Generated by pormake.
# Topology unm, (4)-cn, num edge types: 1
# Building blocks:
#     Node 0, Type 0, BuildingBlock: AZAVOO_clean_sbu_0, # of connection points: 4
#     Node 1, Type 0, BuildingBlock: AZAVOO_clean_sbu_0, # of connection points: 4
#     Node 2, Type 0, BuildingBlock: AZAVOO_clean_sbu_0, # of connection points: 4
#     Node 3, Type 0, BuildingBlock: AZAVOO_clean_sbu_0, # of connection points: 4
#     Node 4, Type 0, BuildingBlock: AZAVOO_clean_sbu_0, # of connection points: 4
#     Node 5, Type 0, BuildingBlock: AZAVOO_clean_sbu_0, # of connection points: 4
#     Node 6, Type 0, BuildingBlock: AZAVOO_clean_sbu_0, # of connection points: 4
#     Node 7, Type 0, BuildingBlock: AZAVOO_clean_sbu_0, # of connection points: 4
#     Edge 8, Type (0, 0), None
#     Edge 9, Type (0, 0), None
#     Edge 10, Type (0, 0), None
#     Edge 11, Type (0, 0), None
#     Edge 12, Type (0, 0), None
#     Edge 13, Type (0, 0), None
#     Edge 14, Type (0, 0), None
#     Edge 15, Type (0, 0), None
#     Edge 16, Type (0, 0), None
#     Edge 17, Type (0, 0), None
#     Edge 18, Type (0, 0), None
#     Edge 19, Type (0, 0), None
#     Edge 20, Type (0, 0), None
#     Edge 21, Type (0, 0), None
#     Edge 22, Type (0, 0), None
#     Edge 23, Type (0, 0), None
# Relax obj value: 0.158
# Max RMSD: 0.153
# Mean RMSD: 0.153
data_MOF--net-unm--node1-AZAVOO_clean_sbu_0--edge1-none
_symmetry_space_group_name_H-M    P1
_symmetry_Int_Tables_number       1
_symmetry_cell_setting            triclinic
loop_
_symmetry_equiv_pos_as_xyz
'x, y, z'
_cell_length_a     11.601931
_cell_length_b     11.602045
_cell_length_c     21.134013
_cell_angle_alpha  89.999905
_cell_angle_beta   90.000094
_cell_angle_gamma 89.999996
loop_
_atom_site_label
_atom_site_type_symbol
_atom_site_fract_x
_atom_site_fract_y
_atom_site_fract_z
_atom_type_partial_charge
Mg0 Mg 0.13204 0.19582 0.10788 0.0
O1 O 0.02923 0.36319 0.08896 0.0
O2 O 0.15143 0.4883 0.04414 0.0
Mg3 Mg 0.31714 0.38959 0.01801 0.0
C4 C 0.05309 0.46342 0.06759 0.0
C5 C 0.90193 0.15792 0.18061 0.0
O6 O 0.85979 0.18935 0.12556 0.0
O7 O 0.23998 0.28697 0.18058 0.0
O8 O 0.37133 0.38201 0.12343 0.0
O9 O 0.06703 0.1157 0.0201 0.0
O10 O 0.22451 0.22299 0.02484 0.0
C11 C 0.33132 0.34691 0.17641 0.0
C12 C 0.15269 0.16425 -0.00869 0.0
O13 O 0.0098 0.14563 0.18674 0.0
Mg14 Mg 0.32012 0.63204 0.60789 0.0
O15 O 0.15276 0.52922 0.58896 0.0
O16 O 0.02765 0.65142 0.54414 0.0
Mg17 Mg 0.12636 0.81714 0.51801 0.0
C18 C 0.05252 0.55308 0.56759 0.0
C19 C 0.35803 0.40193 0.68061 0.0
O20 O 0.3266 0.3598 0.62556 0.0
O21 O 0.22898 0.73998 0.68058 0.0
O22 O 0.13394 0.87133 0.62343 0.0
O23 O 0.40025 0.56703 0.5201 0.0
O24 O 0.29296 0.72451 0.52484 0.0
C25 C 0.16903 0.83131 0.67642 0.0
C26 C 0.3517 0.65269 0.49131 0.0
O27 O 0.37032 0.50979 0.68674 0.0
Mg28 Mg 0.88391 0.82012 0.10788 0.0
O29 O 0.98672 0.65275 0.08896 0.0
O30 O 0.86452 0.52764 0.04414 0.0
Mg31 Mg 0.6988 0.62636 0.01801 0.0
C32 C 0.96286 0.55251 0.0676 0.0
C33 C 0.11402 0.85802 0.18061 0.0
O34 O 0.15616 0.82658 0.12556 0.0
O35 O 0.77597 0.72898 0.18058 0.0
O36 O 0.64462 0.63394 0.12343 0.0
O37 O 0.94892 0.90024 0.0201 0.0
O38 O 0.79144 0.79295 0.02484 0.0
C39 C 0.68464 0.66903 0.17641 0.0
C40 C 0.86326 0.85169 -0.00869 0.0
O41 O 1.00616 0.87031 0.18674 0.0
Mg42 Mg 0.69583 0.3839 0.60788 0.0
O43 O 0.86319 0.48672 0.58896 0.0
O44 O 0.9883 0.36452 0.54414 0.0
Mg45 Mg 0.88959 0.1988 0.51801 0.0
C46 C 0.96343 0.46286 0.5676 0.0
C47 C 0.65793 0.61401 0.68061 0.0
O48 O 0.68936 0.65615 0.62556 0.0
O49 O 0.78697 0.27597 0.68058 0.0
O50 O 0.88201 0.14461 0.62343 0.0
O51 O 0.61571 0.44892 0.5201 0.0
O52 O 0.72299 0.29143 0.52484 0.0
C53 C 0.84691 0.18463 0.67641 0.0
C54 C 0.66426 0.36326 0.49131 0.0
O55 O 0.64563 0.50615 0.68674 0.0
Mg56 Mg 0.63205 0.32011 0.30614 0.0
O57 O 0.52923 0.15275 0.32507 0.0
O58 O 0.65143 0.02765 0.36989 0.0
Mg59 Mg 0.81715 0.12635 0.39602 0.0
C60 C 0.55309 0.05252 0.34644 0.0
C61 C 0.40193 0.35801 0.23342 0.0
O62 O 0.35977 0.32659 0.28846 0.0
O63 O 0.73998 0.22895 0.23344 0.0
O64 O 0.87133 0.13391 0.29059 0.0
O65 O 0.56704 0.40025 0.39392 0.0
O66 O 0.72452 0.29295 0.38918 0.0
C67 C 0.83129 0.16898 0.23761 0.0
C68 C 0.6527 0.35169 0.42271 0.0
O69 O 0.5098 0.3703 0.22728 0.0
Mg70 Mg 0.19583 0.13205 0.80614 0.0
O71 O 0.36319 0.02922 0.82507 0.0
O72 O 0.4883 0.15142 0.86989 0.0
Mg73 Mg 0.3896 0.31714 0.89602 0.0
C74 C 0.46343 0.05308 0.84644 0.0
C75 C 0.15793 0.90193 0.73342 0.0
O76 O 0.18935 0.85976 0.78847 0.0
O77 O 0.287 0.23997 0.73344 0.0
O78 O 0.38204 0.37133 0.79059 0.0
O79 O 0.1157 0.06704 0.89392 0.0
O80 O 0.22299 0.22452 0.88918 0.0
C81 C 0.34697 0.33129 0.73761 0.0
C82 C 0.16425 0.15269 0.92271 0.0
O83 O 0.14564 0.00979 0.72728 0.0
Mg84 Mg 0.38391 0.69583 0.30614 0.0
O85 O 0.48672 0.86319 0.32507 0.0
O86 O 0.36452 0.9883 0.36989 0.0
Mg87 Mg 0.1988 0.88959 0.39602 0.0
C88 C 0.46286 0.96343 0.34643 0.0
C89 C 0.61402 0.65793 0.23343 0.0
O90 O 0.65619 0.68936 0.28847 0.0
O91 O 0.27598 0.78699 0.23345 0.0
O92 O 0.14462 0.88203 0.29059 0.0
O93 O 0.44891 0.6157 0.39392 0.0
O94 O 0.29143 0.72299 0.38919 0.0
C95 C 0.18466 0.84696 0.23761 0.0
C96 C 0.36326 0.66425 0.42272 0.0
O97 O 0.50616 0.64564 0.22729 0.0
Mg98 Mg 0.82012 0.8839 0.80614 0.0
O99 O 0.65276 0.98672 0.82507 0.0
O100 O 0.52765 0.86451 0.86989 0.0
Mg101 Mg 0.62636 0.6988 0.89602 0.0
C102 C 0.55252 0.96285 0.84643 0.0
C103 C 0.85802 0.11401 0.73342 0.0
O104 O 0.82659 0.15618 0.78846 0.0
O105 O 0.72896 0.77597 0.73344 0.0
O106 O 0.63392 0.64461 0.79059 0.0
O107 O 0.90025 0.9489 0.89392 0.0
O108 O 0.79296 0.79143 0.88918 0.0
C109 C 0.66899 0.68465 0.73761 0.0
C110 C 0.8517 0.86325 0.92271 0.0
O111 O 0.87031 1.00615 0.72728 0.0
loop_
_geom_bond_atom_site_label_1
_geom_bond_atom_site_label_2
_geom_bond_distance
_geom_bond_site_symmetry_2
_ccdc_geom_bond_type
Mg0 O1 2.028 . S
Mg0 O7 1.986 . S
Mg0 O9 2.114 1_455 S
Mg0 O10 2.251 . S
Mg0 O13 2.010 1_455 S
O1 Mg0 2.028 . S
O1 C4 1.250 . S
O2 Mg3 2.028 . S
O2 C4 1.248 . S
Mg3 O2 2.028 . S
Mg3 O8 2.032 . S
Mg3 O10 2.079 . S
C4 O1 1.250 . S
C4 O2 1.248 . S
C5 O6 1.264 . S
C5 O13 1.249 . S
O6 C5 1.264 . S
O7 Mg0 1.986 . S
O7 C11 1.246 . S
O8 Mg3 2.032 . S
O8 C11 1.259 . S
O9 Mg0 2.114 1_655 S
O9 C12 1.252 1_655 S
O10 Mg0 2.251 . S
O10 Mg3 2.079 . S
O10 C12 1.273 . S
C11 O7 1.246 . S
C11 O8 1.259 . S
C12 O9 1.252 1_455 S
C12 O10 1.273 . S
O13 Mg0 2.010 1_655 S
O13 C5 1.249 . S
Mg14 O15 2.028 . S
Mg14 O21 1.986 . S
Mg14 O23 2.114 . S
Mg14 O24 2.251 . S
Mg14 O27 2.010 . S
O15 Mg14 2.028 . S
O15 C18 1.250 . S
O16 Mg17 2.028 . S
O16 C18 1.248 . S
Mg17 O16 2.028 . S
Mg17 O22 2.032 . S
Mg17 O24 2.079 . S
C18 O15 1.250 . S
C18 O16 1.248 . S
C19 O20 1.264 . S
C19 O27 1.249 . S
O20 C19 1.264 . S
O21 Mg14 1.986 . S
O21 C25 1.246 . S
O22 Mg17 2.032 . S
O22 C25 1.259 . S
O23 Mg14 2.114 . S
O23 C26 1.252 . S
O24 Mg14 2.251 . S
O24 Mg17 2.079 . S
O24 C26 1.273 . S
C25 O21 1.246 . S
C25 O22 1.259 . S
C26 O23 1.252 . S
C26 O24 1.273 . S
O27 Mg14 2.010 . S
O27 C19 1.249 . S
Mg28 O29 2.028 . S
Mg28 O35 1.986 . S
Mg28 O37 2.114 1_655 S
Mg28 O38 2.251 . S
Mg28 O41 2.010 1_655 S
O29 Mg28 2.028 . S
O29 C32 1.250 . S
O30 Mg31 2.028 . S
O30 C32 1.248 . S
Mg31 O30 2.028 . S
Mg31 O36 2.032 . S
Mg31 O38 2.079 . S
C32 O29 1.250 . S
C32 O30 1.248 . S
C33 O34 1.264 . S
C33 O41 1.249 . S
O34 C33 1.264 . S
O35 Mg28 1.986 . S
O35 C39 1.246 . S
O36 Mg31 2.032 . S
O36 C39 1.259 . S
O37 Mg28 2.114 1_455 S
O37 C40 1.252 1_455 S
O38 Mg28 2.251 . S
O38 Mg31 2.079 . S
O38 C40 1.273 . S
C39 O35 1.246 . S
C39 O36 1.259 . S
C40 O37 1.252 1_655 S
C40 O38 1.273 . S
O41 Mg28 2.010 1_455 S
O41 C33 1.249 . S
Mg42 O43 2.028 . S
Mg42 O49 1.986 . S
Mg42 O51 2.114 . S
Mg42 O52 2.251 . S
Mg42 O55 2.010 . S
O43 Mg42 2.028 . S
O43 C46 1.250 . S
O44 Mg45 2.028 . S
O44 C46 1.248 . S
Mg45 O44 2.028 . S
Mg45 O50 2.032 . S
Mg45 O52 2.079 . S
C46 O43 1.250 . S
C46 O44 1.248 . S
C47 O48 1.264 . S
C47 O55 1.249 . S
O48 C47 1.264 . S
O49 Mg42 1.986 . S
O49 C53 1.246 . S
O50 Mg45 2.032 . S
O50 C53 1.259 . S
O51 Mg42 2.114 . S
O51 C54 1.252 . S
O52 Mg42 2.251 . S
O52 Mg45 2.079 . S
O52 C54 1.273 . S
C53 O49 1.246 . S
C53 O50 1.259 . S
C54 O51 1.252 . S
C54 O52 1.273 . S
O55 Mg42 2.010 . S
O55 C47 1.249 . S
Mg56 O57 2.028 . S
Mg56 O63 1.986 . S
Mg56 O65 2.114 . S
Mg56 O66 2.251 . S
Mg56 O69 2.010 . S
O57 Mg56 2.028 . S
O57 C60 1.250 . S
O58 Mg59 2.028 . S
O58 C60 1.248 . S
Mg59 O58 2.028 . S
Mg59 O64 2.032 . S
Mg59 O66 2.079 . S
C60 O57 1.250 . S
C60 O58 1.248 . S
C61 O62 1.264 . S
C61 O69 1.249 . S
O62 C61 1.264 . S
O63 Mg56 1.986 . S
O63 C67 1.246 . S
O64 Mg59 2.032 . S
O64 C67 1.259 . S
O65 Mg56 2.114 . S
O65 C68 1.252 . S
O66 Mg56 2.251 . S
O66 Mg59 2.079 . S
O66 C68 1.273 . S
C67 O63 1.246 . S
C67 O64 1.259 . S
C68 O65 1.252 . S
C68 O66 1.273 . S
O69 Mg56 2.010 . S
O69 C61 1.249 . S
Mg70 O71 2.028 . S
Mg70 O77 1.986 . S
Mg70 O79 2.114 1_545 S
Mg70 O80 2.251 . S
Mg70 O83 2.010 1_545 S
O71 Mg70 2.028 . S
O71 C74 1.250 . S
O72 Mg73 2.028 . S
O72 C74 1.248 . S
Mg73 O72 2.028 . S
Mg73 O78 2.032 . S
Mg73 O80 2.079 . S
C74 O71 1.250 . S
C74 O72 1.248 . S
C75 O76 1.264 . S
C75 O83 1.249 . S
O76 C75 1.264 . S
O77 Mg70 1.986 . S
O77 C81 1.246 . S
O78 Mg73 2.032 . S
O78 C81 1.259 . S
O79 Mg70 2.114 1_565 S
O79 C82 1.252 1_565 S
O80 Mg70 2.251 . S
O80 Mg73 2.079 . S
O80 C82 1.273 . S
C81 O77 1.246 . S
C81 O78 1.259 . S
C82 O79 1.252 1_545 S
C82 O80 1.273 . S
O83 Mg70 2.010 1_565 S
O83 C75 1.249 . S
Mg84 O85 2.028 . S
Mg84 O91 1.986 . S
Mg84 O93 2.114 . S
Mg84 O94 2.251 . S
Mg84 O97 2.010 . S
O85 Mg84 2.028 . S
O85 C88 1.250 . S
O86 Mg87 2.028 . S
O86 C88 1.248 . S
Mg87 O86 2.028 . S
Mg87 O92 2.032 . S
Mg87 O94 2.079 . S
C88 O85 1.250 . S
C88 O86 1.248 . S
C89 O90 1.264 . S
C89 O97 1.249 . S
O90 C89 1.264 . S
O91 Mg84 1.986 . S
O91 C95 1.246 . S
O92 Mg87 2.032 . S
O92 C95 1.259 . S
O93 Mg84 2.114 . S
O93 C96 1.252 . S
O94 Mg84 2.251 . S
O94 Mg87 2.079 . S
O94 C96 1.273 . S
C95 O91 1.246 . S
C95 O92 1.259 . S
C96 O93 1.252 . S
C96 O94 1.273 . S
O97 Mg84 2.010 . S
O97 C89 1.249 . S
Mg98 O99 2.028 . S
Mg98 O105 1.986 . S
Mg98 O107 2.114 1_565 S
Mg98 O108 2.251 . S
Mg98 O111 2.010 1_565 S
O99 Mg98 2.028 . S
O99 C102 1.250 . S
O100 Mg101 2.028 . S
O100 C102 1.248 . S
Mg101 O100 2.028 . S
Mg101 O106 2.032 . S
Mg101 O108 2.079 . S
C102 O99 1.250 . S
C102 O100 1.248 . S
C103 O104 1.264 . S
C103 O111 1.249 . S
O104 C103 1.264 . S
O105 Mg98 1.986 . S
O105 C109 1.246 . S
O106 Mg101 2.032 . S
O106 C109 1.259 . S
O107 Mg98 2.114 1_545 S
O107 C110 1.252 1_545 S
O108 Mg98 2.251 . S
O108 Mg101 2.079 . S
O108 C110 1.273 . S
C109 O105 1.246 . S
C109 O106 1.259 . S
C110 O107 1.252 1_565 S
C110 O108 1.273 . S
O111 Mg98 2.010 1_545 S
O111 C103 1.249 . S
C12 C82 1.635 1_554 S
C26 C96 1.635 . S
C40 C110 1.635 1_554 S
C68 C54 1.635 . S
C11 C61 1.806 . S
C25 C75 1.806 . S
C89 C39 1.806 . S
C53 C103 1.806 . S
C67 C5 1.806 . S
C19 C81 1.806 . S
C95 C33 1.806 . S
C47 C109 1.806 . S
C32 C4 1.550 1_655 S
C46 C18 1.551 1_655 S
C60 C88 1.551 1_545 S
C74 C102 1.550 1_545 S
