# Generated by pormake.
# Topology upa, (4)-cn, num edge types: 1
# Building blocks:
#     Node 0, Type 0, BuildingBlock: QUQFOY_clean_sbu_1, # of connection points: 4
#     Node 1, Type 0, BuildingBlock: QUQFOY_clean_sbu_1, # of connection points: 4
#     Node 2, Type 0, BuildingBlock: QUQFOY_clean_sbu_1, # of connection points: 4
#     Node 3, Type 0, BuildingBlock: QUQFOY_clean_sbu_1, # of connection points: 4
#     Node 4, Type 0, BuildingBlock: QUQFOY_clean_sbu_1, # of connection points: 4
#     Node 5, Type 0, BuildingBlock: QUQFOY_clean_sbu_1, # of connection points: 4
#     Node 6, Type 0, BuildingBlock: QUQFOY_clean_sbu_1, # of connection points: 4
#     Node 7, Type 0, BuildingBlock: QUQFOY_clean_sbu_1, # of connection points: 4
#     Edge 8, Type (0, 0), BuildingBlock: EYOCIG_clean_linker_4, # of connection points: 2
#     Edge 9, Type (0, 0), BuildingBlock: EYOCIG_clean_linker_4, # of connection points: 2
#     Edge 10, Type (0, 0), BuildingBlock: EYOCIG_clean_linker_4, # of connection points: 2
#     Edge 11, Type (0, 0), BuildingBlock: EYOCIG_clean_linker_4, # of connection points: 2
#     Edge 12, Type (0, 0), BuildingBlock: EYOCIG_clean_linker_4, # of connection points: 2
#     Edge 13, Type (0, 0), BuildingBlock: EYOCIG_clean_linker_4, # of connection points: 2
#     Edge 14, Type (0, 0), BuildingBlock: EYOCIG_clean_linker_4, # of connection points: 2
#     Edge 15, Type (0, 0), BuildingBlock: EYOCIG_clean_linker_4, # of connection points: 2
#     Edge 16, Type (0, 0), BuildingBlock: EYOCIG_clean_linker_4, # of connection points: 2
#     Edge 17, Type (0, 0), BuildingBlock: EYOCIG_clean_linker_4, # of connection points: 2
#     Edge 18, Type (0, 0), BuildingBlock: EYOCIG_clean_linker_4, # of connection points: 2
#     Edge 19, Type (0, 0), BuildingBlock: EYOCIG_clean_linker_4, # of connection points: 2
#     Edge 20, Type (0, 0), BuildingBlock: EYOCIG_clean_linker_4, # of connection points: 2
#     Edge 21, Type (0, 0), BuildingBlock: EYOCIG_clean_linker_4, # of connection points: 2
#     Edge 22, Type (0, 0), BuildingBlock: EYOCIG_clean_linker_4, # of connection points: 2
#     Edge 23, Type (0, 0), BuildingBlock: EYOCIG_clean_linker_4, # of connection points: 2
# Relax obj value: 0.108
# Max RMSD: 0.083
# Mean RMSD: 0.083
data_MOF--net-upa--node1-QUQFOY_clean_sbu_1--edge1-EYOCIG_clean_linker_4
_symmetry_space_group_name_H-M    P1
_symmetry_Int_Tables_number       1
_symmetry_cell_setting            triclinic
loop_
_symmetry_equiv_pos_as_xyz
'x, y, z'
_cell_length_a     24.710347
_cell_length_b     24.707184
_cell_length_c     32.140249
_cell_angle_alpha  89.966969
_cell_angle_beta   90.002953
_cell_angle_gamma 89.977329
loop_
_atom_site_label
_atom_site_type_symbol
_atom_site_fract_x
_atom_site_fract_y
_atom_site_fract_z
_atom_type_partial_charge
O0 O 0.17594 0.16642 0.40398 0.0
Cd1 Cd 0.16907 0.15384 0.34039 0.0
Cd2 Cd 0.06084 0.20353 0.36632 0.0
O3 O 0.10395 0.21599 0.42043 0.0
O4 O 0.24136 0.12248 0.326 0.0
O5 O 0.21178 0.20011 0.30023 0.0
C6 C 0.24936 0.16397 0.3027 0.0
C7 C -0.01209 0.25682 0.34561 0.0
C8 C 0.14851 0.19355 0.43015 0.0
C9 C 0.06694 0.09026 0.32935 0.0
O10 O 0.04247 0.1256 0.35071 0.0
O11 O 0.11611 0.09564 0.31887 0.0
O12 O 0.98575 0.2284 0.37906 0.0
O13 O 0.03335 0.25983 0.32598 0.0
O14 O 0.30645 0.67601 0.90382 0.0
Cd15 Cd 0.31903 0.66926 0.84022 0.0
Cd16 Cd 0.26928 0.56105 0.86601 0.0
O17 O 0.25689 0.60399 0.9202 0.0
O18 O 0.35026 0.74161 0.82583 0.0
O19 O 0.27268 0.71199 0.80011 0.0
C20 C 0.30875 0.7496 0.80256 0.0
C21 C 0.21588 0.48827 0.84522 0.0
C22 C 0.27933 0.64851 0.92996 0.0
C23 C 0.3826 0.5671 0.82906 0.0
O24 O 0.34719 0.54259 0.85033 0.0
O25 O 0.37728 0.61633 0.81867 0.0
O26 O 0.24433 0.48595 0.87864 0.0
O27 O 0.21293 0.5338 0.82565 0.0
O28 O 0.7964 0.8061 0.40416 0.0
Cd29 Cd 0.80315 0.81872 0.34055 0.0
Cd30 Cd 0.9116 0.76953 0.36636 0.0
O31 O 0.86873 0.75697 0.42057 0.0
O32 O 0.73066 0.84958 0.3261 0.0
O33 O 0.76081 0.77217 0.3004 0.0
C34 C 0.72298 0.80806 0.3028 0.0
C35 C 0.9846 0.71641 0.34555 0.0
C36 C 0.82406 0.77916 0.43033 0.0
C37 C 0.90494 0.88282 0.32937 0.0
O38 O 0.92964 0.84752 0.35063 0.0
O39 O 0.85574 0.87728 0.31901 0.0
O40 O -0.01318 0.74487 0.37895 0.0
O41 O 0.93909 0.71328 0.32601 0.0
O42 O 0.66638 0.29613 0.90424 0.0
Cd43 Cd 0.65374 0.30279 0.84063 0.0
Cd44 Cd 0.70323 0.41131 0.86632 0.0
O45 O 0.71556 0.36841 0.92058 0.0
O46 O 0.62268 0.23035 0.82636 0.0
O47 O 0.70015 0.26016 0.80055 0.0
C48 C 0.66418 0.22245 0.80306 0.0
C49 C 0.75649 0.48429 0.84567 0.0
C50 C 0.69332 0.32378 0.93037 0.0
C51 C 0.58993 0.40481 0.82925 0.0
O52 O 0.62532 0.42948 0.8504 0.0
O53 O 0.59531 0.35553 0.81905 0.0
O54 O 0.72785 0.4865 0.87898 0.0
O55 O 0.7597 0.43879 0.82613 0.0
O56 O 0.67584 0.30592 0.15622 0.0
Cd57 Cd 0.66899 0.31843 0.21983 0.0
Cd58 Cd 0.56077 0.26881 0.19389 0.0
O59 O 0.60382 0.25644 0.13975 0.0
O60 O 0.74127 0.34976 0.2342 0.0
O61 O 0.71175 0.27213 0.25995 0.0
C62 C 0.7493 0.30826 0.2575 0.0
C63 C 0.48789 0.21549 0.21459 0.0
C64 C 0.64838 0.27886 0.13004 0.0
C65 C 0.56685 0.38205 0.23093 0.0
O66 O 0.54236 0.34673 0.20959 0.0
O67 O 0.61604 0.37665 0.24138 0.0
O68 O 0.48568 0.24397 0.18117 0.0
O69 O 0.53335 0.21244 0.2342 0.0
O70 O 0.16643 0.17626 0.65591 0.0
Cd71 Cd 0.15375 0.16953 0.7195 0.0
Cd72 Cd 0.20354 0.06118 0.69379 0.0
O73 O 0.21593 0.10416 0.63959 0.0
O74 O 0.12251 0.24191 0.7338 0.0
O75 O 0.20004 0.2122 0.75963 0.0
C76 C 0.16398 0.24985 0.75711 0.0
C77 C 0.25687 -0.01176 0.7145 0.0
C78 C 0.19354 0.14873 0.6298 0.0
C79 C 0.09018 0.0674 0.73073 0.0
O80 O 0.12563 0.04284 0.70953 0.0
O81 O 0.09546 0.11665 0.74104 0.0
O82 O 0.22836 0.98605 0.68112 0.0
O83 O 0.25992 0.03371 0.73408 0.0
O84 O 0.29646 0.6664 0.15584 0.0
Cd85 Cd 0.30317 0.65383 0.21945 0.0
Cd86 Cd 0.41171 0.7029 0.19362 0.0
O87 O 0.36884 0.71538 0.13938 0.0
O88 O 0.23069 0.62295 0.23385 0.0
O89 O 0.26072 0.70037 0.25956 0.0
C90 C 0.22294 0.66447 0.25714 0.0
C91 C 0.48472 0.756 0.21436 0.0
C92 C 0.32415 0.69325 0.12965 0.0
C93 C 0.40497 0.58967 0.23075 0.0
O94 O 0.42971 0.62493 0.20948 0.0
O95 O 0.35575 0.59527 0.24105 0.0
O96 O 0.48694 0.72744 0.18101 0.0
O97 O 0.4392 0.75923 0.23388 0.0
O98 O 0.80662 0.79622 0.65618 0.0
Cd99 Cd 0.81927 0.80299 0.71977 0.0
Cd100 Cd 0.76962 0.91123 0.69402 0.0
O101 O 0.75711 0.86832 0.63984 0.0
O102 O 0.8503 0.73055 0.73423 0.0
O103 O 0.77282 0.7605 0.75993 0.0
C104 C 0.80877 0.72275 0.75752 0.0
C105 C 0.71628 0.98405 0.71489 0.0
C106 C 0.7795 0.82377 0.63005 0.0
C107 C 0.88299 0.90501 0.73086 0.0
O108 O 0.84757 0.92958 0.70963 0.0
O109 O 0.87765 0.85578 0.74125 0.0
O110 O 0.74466 -0.01363 0.68145 0.0
O111 O 0.71335 0.93852 0.73445 0.0
C112 C 0.00558 0.00706 0.31173 0.0
C113 C 0.03732 0.04302 0.3178 0.0
C114 C 0.96597 0.96627 0.31173 0.0
C115 C 0.93432 0.93022 0.31779 0.0
C116 C 0.46583 0.50569 0.81149 0.0
C117 C 0.42987 0.53747 0.81754 0.0
C118 C 0.5066 0.46602 0.81153 0.0
C119 C 0.5426 0.43431 0.81765 0.0
C120 C 0.50552 0.46533 0.24855 0.0
C121 C 0.53725 0.42933 0.24248 0.0
C122 C 0.46594 0.50617 0.24851 0.0
C123 C 0.43432 0.54226 0.24239 0.0
C124 C 0.00697 0.00602 0.74835 0.0
C125 C 0.04291 0.03779 0.74227 0.0
C126 C 0.96626 0.96633 0.74838 0.0
C127 C 0.93029 0.93458 0.74236 0.0
C128 C 0.17932 0.19013 0.50877 0.0
C129 C 0.16463 0.19214 0.47303 0.0
C130 C 0.19013 0.17936 0.55112 0.0
C131 C 0.19215 0.16474 0.58688 0.0
C132 C 0.28278 0.67911 1.00863 0.0
C133 C 0.28075 0.66451 0.97287 0.0
C134 C 0.29355 0.68986 0.05097 0.0
C135 C 0.30814 0.69184 0.08674 0.0
C136 C 0.78281 0.7932 0.55138 0.0
C137 C 0.78085 0.80778 0.58714 0.0
C138 C 0.7935 0.78249 0.50901 0.0
C139 C 0.80806 0.78054 0.47324 0.0
C140 C 0.68991 0.29318 1.00906 0.0
C141 C 0.69192 0.30779 0.97329 0.0
C142 C 0.67912 0.28239 0.0514 0.0
C143 C 0.66447 0.28033 0.08715 0.0
C144 C 0.39506 0.18214 0.24629 0.0
C145 C 0.43852 0.1964 0.23313 0.0
C146 C 0.3433 0.17398 0.26402 0.0
C147 C 0.30011 0.17031 0.28136 0.0
C148 C 0.29856 0.8436 0.76392 0.0
C149 C 0.30231 0.80039 0.78124 0.0
C150 C 0.29031 0.89539 0.7462 0.0
C151 C 0.276 0.93887 0.73305 0.0
C152 C 0.62921 0.79757 0.26396 0.0
C153 C 0.67234 0.80143 0.28136 0.0
C154 C 0.57751 0.7893 0.24615 0.0
C155 C 0.53408 0.77504 0.23293 0.0
C156 C 0.67451 0.12851 0.76445 0.0
C157 C 0.67069 0.1717 0.78176 0.0
C158 C 0.6828 0.07677 0.74671 0.0
C159 C 0.69713 0.03335 0.7335 0.0
C160 C 0.89503 0.2901 0.3139 0.0
C161 C 0.93851 0.27586 0.32706 0.0
C162 C 0.84326 0.29824 0.29617 0.0
C163 C 0.80006 0.30191 0.27884 0.0
C164 C 0.17414 0.34381 0.79573 0.0
C165 C 0.17039 0.30061 0.77842 0.0
C166 C 0.18239 0.39555 0.81345 0.0
C167 C 0.19672 0.43898 0.82663 0.0
C168 C 0.12911 0.67491 0.29592 0.0
C169 C 0.17227 0.67107 0.27854 0.0
C170 C 0.0774 0.68315 0.31371 0.0
C171 C 0.03396 0.69739 0.32695 0.0
C172 C 0.79001 0.5771 0.81399 0.0
C173 C 0.77567 0.53365 0.82715 0.0
C174 C 0.79835 0.62885 0.79625 0.0
C175 C 0.8022 0.67203 0.77889 0.0
loop_
_geom_bond_atom_site_label_1
_geom_bond_atom_site_label_2
_geom_bond_distance
_geom_bond_site_symmetry_2
_ccdc_geom_bond_type
O0 Cd1 2.223 . S
O0 C8 1.315 . S
Cd1 O0 2.223 . S
Cd1 O4 2.297 . S
Cd1 O5 2.439 . S
Cd1 O11 2.240 . S
Cd2 O3 2.240 . S
Cd2 O10 2.223 . S
Cd2 O12 2.297 1_455 S
Cd2 O13 2.439 . S
O3 Cd2 2.240 . S
O3 C8 1.279 . S
O4 Cd1 2.297 . S
O4 C6 1.247 . S
O5 Cd1 2.439 . S
O5 C6 1.208 . S
C6 O4 1.247 . S
C6 O5 1.208 . S
C7 O12 1.247 . S
C7 O13 1.208 1_655 S
C8 O0 1.315 . S
C8 O3 1.279 . S
C9 O10 1.315 . S
C9 O11 1.279 . S
O10 Cd2 2.223 . S
O10 C9 1.315 . S
O11 Cd1 2.240 . S
O11 C9 1.279 . S
O12 Cd2 2.297 1_655 S
O12 C7 1.247 . S
O13 Cd2 2.439 . S
O13 C7 1.208 1_455 S
O14 Cd15 2.223 . S
O14 C22 1.315 . S
Cd15 O14 2.223 . S
Cd15 O18 2.297 . S
Cd15 O19 2.439 . S
Cd15 O25 2.240 . S
Cd16 O17 2.240 . S
Cd16 O24 2.223 . S
Cd16 O26 2.297 . S
Cd16 O27 2.439 . S
O17 Cd16 2.240 . S
O17 C22 1.279 . S
O18 Cd15 2.297 . S
O18 C20 1.247 . S
O19 Cd15 2.439 . S
O19 C20 1.208 . S
C20 O18 1.247 . S
C20 O19 1.208 . S
C21 O26 1.247 . S
C21 O27 1.208 . S
C22 O14 1.315 . S
C22 O17 1.279 . S
C23 O24 1.315 . S
C23 O25 1.279 . S
O24 Cd16 2.223 . S
O24 C23 1.315 . S
O25 Cd15 2.240 . S
O25 C23 1.279 . S
O26 Cd16 2.297 . S
O26 C21 1.247 . S
O27 Cd16 2.439 . S
O27 C21 1.208 . S
O28 Cd29 2.223 . S
O28 C36 1.315 . S
Cd29 O28 2.223 . S
Cd29 O32 2.297 . S
Cd29 O33 2.439 . S
Cd29 O39 2.240 . S
Cd30 O31 2.240 . S
Cd30 O38 2.223 . S
Cd30 O40 2.297 1_655 S
Cd30 O41 2.439 . S
O31 Cd30 2.240 . S
O31 C36 1.279 . S
O32 Cd29 2.297 . S
O32 C34 1.247 . S
O33 Cd29 2.439 . S
O33 C34 1.208 . S
C34 O32 1.247 . S
C34 O33 1.208 . S
C35 O40 1.247 . S
C35 O41 1.208 1_455 S
C36 O28 1.315 . S
C36 O31 1.279 . S
C37 O38 1.315 . S
C37 O39 1.279 . S
O38 Cd30 2.223 . S
O38 C37 1.315 . S
O39 Cd29 2.240 . S
O39 C37 1.279 . S
O40 Cd30 2.297 1_455 S
O40 C35 1.247 . S
O41 Cd30 2.439 . S
O41 C35 1.208 1_655 S
O42 Cd43 2.223 . S
O42 C50 1.315 . S
Cd43 O42 2.223 . S
Cd43 O46 2.297 . S
Cd43 O47 2.439 . S
Cd43 O53 2.240 . S
Cd44 O45 2.240 . S
Cd44 O52 2.223 . S
Cd44 O54 2.297 . S
Cd44 O55 2.439 . S
O45 Cd44 2.240 . S
O45 C50 1.279 . S
O46 Cd43 2.297 . S
O46 C48 1.247 . S
O47 Cd43 2.439 . S
O47 C48 1.208 . S
C48 O46 1.247 . S
C48 O47 1.208 . S
C49 O54 1.247 . S
C49 O55 1.208 . S
C50 O42 1.315 . S
C50 O45 1.279 . S
C51 O52 1.315 . S
C51 O53 1.279 . S
O52 Cd44 2.223 . S
O52 C51 1.315 . S
O53 Cd43 2.240 . S
O53 C51 1.279 . S
O54 Cd44 2.297 . S
O54 C49 1.247 . S
O55 Cd44 2.439 . S
O55 C49 1.208 . S
O56 Cd57 2.223 . S
O56 C64 1.315 . S
Cd57 O56 2.223 . S
Cd57 O60 2.297 . S
Cd57 O61 2.439 . S
Cd57 O67 2.240 . S
Cd58 O59 2.240 . S
Cd58 O66 2.223 . S
Cd58 O68 2.297 . S
Cd58 O69 2.439 . S
O59 Cd58 2.240 . S
O59 C64 1.279 . S
O60 Cd57 2.297 . S
O60 C62 1.247 . S
O61 Cd57 2.439 . S
O61 C62 1.208 . S
C62 O60 1.247 . S
C62 O61 1.208 . S
C63 O68 1.247 . S
C63 O69 1.208 . S
C64 O56 1.315 . S
C64 O59 1.279 . S
C65 O66 1.315 . S
C65 O67 1.279 . S
O66 Cd58 2.223 . S
O66 C65 1.315 . S
O67 Cd57 2.240 . S
O67 C65 1.279 . S
O68 Cd58 2.297 . S
O68 C63 1.247 . S
O69 Cd58 2.439 . S
O69 C63 1.208 . S
O70 Cd71 2.223 . S
O70 C78 1.315 . S
Cd71 O70 2.223 . S
Cd71 O74 2.297 . S
Cd71 O75 2.439 . S
Cd71 O81 2.240 . S
Cd72 O73 2.240 . S
Cd72 O80 2.223 . S
Cd72 O82 2.297 1_545 S
Cd72 O83 2.439 . S
O73 Cd72 2.240 . S
O73 C78 1.279 . S
O74 Cd71 2.297 . S
O74 C76 1.247 . S
O75 Cd71 2.439 . S
O75 C76 1.208 . S
C76 O74 1.247 . S
C76 O75 1.208 . S
C77 O82 1.247 . S
C77 O83 1.208 1_565 S
C78 O70 1.315 . S
C78 O73 1.279 . S
C79 O80 1.315 . S
C79 O81 1.279 . S
O80 Cd72 2.223 . S
O80 C79 1.315 . S
O81 Cd71 2.240 . S
O81 C79 1.279 . S
O82 Cd72 2.297 1_565 S
O82 C77 1.247 . S
O83 Cd72 2.439 . S
O83 C77 1.208 1_545 S
O84 Cd85 2.223 . S
O84 C92 1.315 . S
Cd85 O84 2.223 . S
Cd85 O88 2.297 . S
Cd85 O89 2.439 . S
Cd85 O95 2.240 . S
Cd86 O87 2.240 . S
Cd86 O94 2.223 . S
Cd86 O96 2.297 . S
Cd86 O97 2.439 . S
O87 Cd86 2.240 . S
O87 C92 1.279 . S
O88 Cd85 2.297 . S
O88 C90 1.247 . S
O89 Cd85 2.439 . S
O89 C90 1.208 . S
C90 O88 1.247 . S
C90 O89 1.208 . S
C91 O96 1.247 . S
C91 O97 1.208 . S
C92 O84 1.315 . S
C92 O87 1.279 . S
C93 O94 1.315 . S
C93 O95 1.279 . S
O94 Cd86 2.223 . S
O94 C93 1.315 . S
O95 Cd85 2.240 . S
O95 C93 1.279 . S
O96 Cd86 2.297 . S
O96 C91 1.247 . S
O97 Cd86 2.439 . S
O97 C91 1.208 . S
O98 Cd99 2.223 . S
O98 C106 1.315 . S
Cd99 O98 2.223 . S
Cd99 O102 2.297 . S
Cd99 O103 2.439 . S
Cd99 O109 2.240 . S
Cd100 O101 2.240 . S
Cd100 O108 2.223 . S
Cd100 O110 2.297 1_565 S
Cd100 O111 2.439 . S
O101 Cd100 2.240 . S
O101 C106 1.279 . S
O102 Cd99 2.297 . S
O102 C104 1.247 . S
O103 Cd99 2.439 . S
O103 C104 1.208 . S
C104 O102 1.247 . S
C104 O103 1.208 . S
C105 O110 1.247 . S
C105 O111 1.208 1_545 S
C106 O98 1.315 . S
C106 O101 1.279 . S
C107 O108 1.315 . S
C107 O109 1.279 . S
O108 Cd100 2.223 . S
O108 C107 1.315 . S
O109 Cd99 2.240 . S
O109 C107 1.279 . S
O110 Cd100 2.297 1_545 S
O110 C105 1.247 . S
O111 Cd100 2.439 . S
O111 C105 1.208 1_565 S
C112 C113 1.170 . S
C112 C114 1.380 1_445 S
C113 C112 1.170 . S
C114 C112 1.380 1_665 S
C114 C115 1.170 . S
C115 C114 1.170 . S
C116 C117 1.170 . S
C116 C118 1.380 . S
C117 C116 1.170 . S
C118 C116 1.380 . S
C118 C119 1.170 . S
C119 C118 1.170 . S
C120 C121 1.170 . S
C120 C122 1.380 . S
C121 C120 1.170 . S
C122 C120 1.380 . S
C122 C123 1.170 . S
C123 C122 1.170 . S
C124 C125 1.170 . S
C124 C126 1.380 1_445 S
C125 C124 1.170 . S
C126 C124 1.380 1_665 S
C126 C127 1.170 . S
C127 C126 1.170 . S
C128 C129 1.170 . S
C128 C130 1.380 . S
C129 C128 1.170 . S
C130 C128 1.380 . S
C130 C131 1.170 . S
C131 C130 1.170 . S
C132 C133 1.170 . S
C132 C134 1.380 1_556 S
C133 C132 1.170 . S
C134 C132 1.380 1_554 S
C134 C135 1.170 . S
C135 C134 1.170 . S
C136 C137 1.170 . S
C136 C138 1.380 . S
C137 C136 1.170 . S
C138 C136 1.380 . S
C138 C139 1.170 . S
C139 C138 1.170 . S
C140 C141 1.170 . S
C140 C142 1.380 1_556 S
C141 C140 1.170 . S
C142 C140 1.380 1_554 S
C142 C143 1.170 . S
C143 C142 1.170 . S
C144 C145 1.170 . S
C144 C146 1.380 . S
C145 C144 1.170 . S
C146 C144 1.380 . S
C146 C147 1.170 . S
C147 C146 1.170 . S
C148 C149 1.170 . S
C148 C150 1.380 . S
C149 C148 1.170 . S
C150 C148 1.380 . S
C150 C151 1.170 . S
C151 C150 1.170 . S
C152 C153 1.170 . S
C152 C154 1.380 . S
C153 C152 1.170 . S
C154 C152 1.380 . S
C154 C155 1.170 . S
C155 C154 1.170 . S
C156 C157 1.170 . S
C156 C158 1.380 . S
C157 C156 1.170 . S
C158 C156 1.380 . S
C158 C159 1.170 . S
C159 C158 1.170 . S
C160 C161 1.170 . S
C160 C162 1.380 . S
C161 C160 1.170 . S
C162 C160 1.380 . S
C162 C163 1.170 . S
C163 C162 1.170 . S
C164 C165 1.170 . S
C164 C166 1.380 . S
C165 C164 1.170 . S
C166 C164 1.380 . S
C166 C167 1.170 . S
C167 C166 1.170 . S
C168 C169 1.170 . S
C168 C170 1.380 . S
C169 C168 1.170 . S
C170 C168 1.380 . S
C170 C171 1.170 . S
C171 C170 1.170 . S
C172 C173 1.170 . S
C172 C174 1.380 . S
C173 C172 1.170 . S
C174 C172 1.380 . S
C174 C175 1.170 . S
C175 C174 1.170 . S
C113 C9 1.009 . S
C115 C37 1.027 . S
C117 C23 1.010 . S
C119 C51 1.026 . S
C121 C65 1.010 . S
C123 C93 1.026 . S
C125 C79 1.016 . S
C127 C107 1.021 . S
C129 C8 1.390 . S
C131 C78 1.399 . S
C133 C22 1.370 . S
C135 C92 1.403 . S
C137 C106 1.370 . S
C139 C36 1.395 . S
C141 C50 1.405 . S
C143 C64 1.373 . S
C145 C63 1.757 . S
C147 C6 1.661 . S
C149 C20 1.674 . S
C151 C77 1.750 . S
C153 C34 1.701 . S
C155 C91 1.728 . S
C157 C48 1.669 . S
C159 C105 1.754 . S
C161 C7 1.741 . S
C163 C62 1.683 . S
C165 C76 1.650 . S
C167 C21 1.767 . S
C169 C90 1.699 . S
C171 C35 1.729 . S
C173 C49 1.767 . S
C175 C104 1.650 . S
