# Generated by pormake.
# Topology pcl, (4)-cn, num edge types: 1
# Building blocks:
#     Node 0, Type 0, BuildingBlock: TATPOV_clean_sbu_0, # of connection points: 4
#     Node 1, Type 0, BuildingBlock: TATPOV_clean_sbu_0, # of connection points: 4
#     Node 2, Type 0, BuildingBlock: TATPOV_clean_sbu_0, # of connection points: 4
#     Node 3, Type 0, BuildingBlock: TATPOV_clean_sbu_0, # of connection points: 4
#     Node 4, Type 0, BuildingBlock: TATPOV_clean_sbu_0, # of connection points: 4
#     Node 5, Type 0, BuildingBlock: TATPOV_clean_sbu_0, # of connection points: 4
#     Node 6, Type 0, BuildingBlock: TATPOV_clean_sbu_0, # of connection points: 4
#     Node 7, Type 0, BuildingBlock: TATPOV_clean_sbu_0, # of connection points: 4
#     Node 8, Type 0, BuildingBlock: TATPOV_clean_sbu_0, # of connection points: 4
#     Node 9, Type 0, BuildingBlock: TATPOV_clean_sbu_0, # of connection points: 4
#     Node 10, Type 0, BuildingBlock: TATPOV_clean_sbu_0, # of connection points: 4
#     Node 11, Type 0, BuildingBlock: TATPOV_clean_sbu_0, # of connection points: 4
#     Node 12, Type 0, BuildingBlock: TATPOV_clean_sbu_0, # of connection points: 4
#     Node 13, Type 0, BuildingBlock: TATPOV_clean_sbu_0, # of connection points: 4
#     Node 14, Type 0, BuildingBlock: TATPOV_clean_sbu_0, # of connection points: 4
#     Node 15, Type 0, BuildingBlock: TATPOV_clean_sbu_0, # of connection points: 4
#     Edge 16, Type (0, 0), None
#     Edge 17, Type (0, 0), None
#     Edge 18, Type (0, 0), None
#     Edge 19, Type (0, 0), None
#     Edge 20, Type (0, 0), None
#     Edge 21, Type (0, 0), None
#     Edge 22, Type (0, 0), None
#     Edge 23, Type (0, 0), None
#     Edge 24, Type (0, 0), None
#     Edge 25, Type (0, 0), None
#     Edge 26, Type (0, 0), None
#     Edge 27, Type (0, 0), None
#     Edge 28, Type (0, 0), None
#     Edge 29, Type (0, 0), None
#     Edge 30, Type (0, 0), None
#     Edge 31, Type (0, 0), None
#     Edge 32, Type (0, 0), None
#     Edge 33, Type (0, 0), None
#     Edge 34, Type (0, 0), None
#     Edge 35, Type (0, 0), None
#     Edge 36, Type (0, 0), None
#     Edge 37, Type (0, 0), None
#     Edge 38, Type (0, 0), None
#     Edge 39, Type (0, 0), None
#     Edge 40, Type (0, 0), None
#     Edge 41, Type (0, 0), None
#     Edge 42, Type (0, 0), None
#     Edge 43, Type (0, 0), None
#     Edge 44, Type (0, 0), None
#     Edge 45, Type (0, 0), None
#     Edge 46, Type (0, 0), None
#     Edge 47, Type (0, 0), None
# Relax obj value: 0.049
# Max RMSD: 0.078
# Mean RMSD: 0.068
data_MOF--net-pcl--node1-TATPOV_clean_sbu_0--edge1-none
_symmetry_space_group_name_H-M    P1
_symmetry_Int_Tables_number       1
_symmetry_cell_setting            triclinic
loop_
_symmetry_equiv_pos_as_xyz
'x, y, z'
_cell_length_a     18.328915
_cell_length_b     22.720236
_cell_length_c     21.449005
_cell_angle_alpha  90.000411
_cell_angle_beta   89.999993
_cell_angle_gamma 89.999784
loop_
_atom_site_label
_atom_site_type_symbol
_atom_site_fract_x
_atom_site_fract_y
_atom_site_fract_z
_atom_type_partial_charge
Zn0 Zn 0.23692 0.46317 0.12086 0.0
Zn1 Zn 0.23394 0.35619 0.05815 0.0
O2 O 0.26254 0.42712 0.0012 0.0
O3 O 0.25802 0.51348 0.04807 0.0
O4 O 0.26847 0.28518 0.00855 0.0
O5 O 0.3265 0.42158 0.15549 0.0
O6 O 0.25994 0.34436 0.15157 0.0
C7 C 0.26826 0.48322 -0.0005 0.0
C8 C 0.09207 0.39514 0.09849 0.0
O9 O 0.12387 0.35874 0.06231 0.0
O10 O 0.1285 0.43439 0.12757 0.0
C11 C 0.23407 0.26955 0.95978 0.0
O12 O 0.17333 0.29668 0.94471 0.0
C13 C 0.29847 0.37897 0.18412 0.0
Zn14 Zn 0.819 0.53326 0.62086 0.0
Zn15 Zn 0.82198 0.64023 0.55815 0.0
O16 O 0.79338 0.5693 0.5012 0.0
O17 O 0.79791 0.48295 0.54806 0.0
O18 O 0.78746 0.71125 0.50856 0.0
O19 O 0.72943 0.57485 0.65549 0.0
O20 O 0.79598 0.65206 0.65157 0.0
C21 C 0.78767 0.5132 0.4995 0.0
C22 C 0.96385 0.60128 0.59849 0.0
O23 O 0.93206 0.63769 0.56231 0.0
O24 O 0.92743 0.56203 0.62757 0.0
C25 C 0.82186 0.72688 0.45978 0.0
O26 O 0.8826 0.69975 0.44472 0.0
C27 C 0.75746 0.61746 0.68412 0.0
Zn28 Zn 0.23692 0.53324 0.81776 0.0
Zn29 Zn 0.23395 0.64024 0.88049 0.0
O30 O 0.26256 0.5693 0.93743 0.0
O31 O 0.25801 0.48294 0.89056 0.0
O32 O 0.26847 0.71125 0.93009 0.0
O33 O 0.3265 0.57486 0.78316 0.0
O34 O 0.25996 0.65208 0.78707 0.0
C35 C 0.26827 0.5132 0.93912 0.0
C36 C 0.09208 0.60128 0.84015 0.0
O37 O 0.12388 0.63769 0.87633 0.0
O38 O 0.1285 0.56203 0.81107 0.0
C39 C 0.23407 0.72687 -0.02113 0.0
O40 O 0.17334 0.69973 -0.00606 0.0
C41 C 0.29847 0.61746 0.75453 0.0
Zn42 Zn 0.81901 0.46318 0.31776 0.0
Zn43 Zn 0.82198 0.35619 0.38049 0.0
O44 O 0.79337 0.42712 0.43743 0.0
O45 O 0.79792 0.51348 0.39056 0.0
O46 O 0.78746 0.28518 0.43009 0.0
O47 O 0.72943 0.42157 0.28316 0.0
O48 O 0.79597 0.34435 0.28707 0.0
C49 C 0.78766 0.48322 0.43911 0.0
C50 C 0.96385 0.39514 0.34015 0.0
O51 O 0.93205 0.35873 0.37633 0.0
O52 O 0.92743 0.43439 0.31107 0.0
C53 C 0.82186 0.26955 0.47887 0.0
O54 O 0.88259 0.29669 0.49393 0.0
C55 C 0.75745 0.37896 0.25453 0.0
Zn56 Zn 0.87588 0.53116 0.82091 0.0
Zn57 Zn 0.85933 0.63373 0.87215 0.0
O58 O 0.80706 0.64132 0.78501 0.0
O59 O 0.80675 0.54933 0.75312 0.0
O60 O 0.8276 0.70573 0.92161 0.0
O61 O 0.84262 0.48149 0.89146 0.0
O62 O 0.83277 0.56841 0.93564 0.0
C63 C 0.78807 0.60232 0.74534 0.0
C64 C 1.01191 0.59775 0.83774 0.0
O65 O 0.97169 0.63635 0.86397 0.0
O66 O 0.98364 0.55188 0.81418 0.0
C67 C 0.76074 0.72087 0.92077 0.0
O68 O 0.71499 0.6927 0.88433 0.0
C69 C 0.82865 0.51244 0.93879 0.0
Zn70 Zn 0.18004 0.46526 0.32091 0.0
Zn71 Zn 0.1966 0.36269 0.37215 0.0
O72 O 0.24887 0.35511 0.28501 0.0
O73 O 0.24918 0.44709 0.25312 0.0
O74 O 0.22833 0.2907 0.42161 0.0
O75 O 0.21331 0.51494 0.39146 0.0
O76 O 0.22316 0.42801 0.43564 0.0
C77 C 0.26786 0.3941 0.24534 0.0
C78 C 0.04402 0.39868 0.33774 0.0
O79 O 0.08424 0.36007 0.36397 0.0
O80 O 0.07228 0.44454 0.31418 0.0
C81 C 0.29519 0.27555 0.42077 0.0
O82 O 0.34094 0.30373 0.38434 0.0
C83 C 0.22728 0.48398 0.43879 0.0
Zn84 Zn 0.87589 0.46528 0.11775 0.0
Zn85 Zn 0.85932 0.3627 0.0665 0.0
O86 O 0.80705 0.35511 0.15363 0.0
O87 O 0.80675 0.44709 0.18554 0.0
O88 O 0.82759 0.2907 0.01704 0.0
O89 O 0.84261 0.51495 0.0472 0.0
O90 O 0.83276 0.42802 0.00301 0.0
C91 C 0.78807 0.3941 0.19331 0.0
C92 C 1.01191 0.39868 0.10091 0.0
O93 O 0.97168 0.36008 0.07467 0.0
O94 O 0.98364 0.44454 0.12447 0.0
C95 C 0.76073 0.27554 0.01789 0.0
O96 O 0.71498 0.30371 0.05433 0.0
C97 C 0.82863 0.48399 -0.00012 0.0
Zn98 Zn 0.18004 0.53115 0.61775 0.0
Zn99 Zn 0.1966 0.63373 0.5665 0.0
O100 O 0.24887 0.64131 0.65363 0.0
O101 O 0.24917 0.54934 0.68554 0.0
O102 O 0.22833 0.70573 0.51704 0.0
O103 O 0.21332 0.48148 0.5472 0.0
O104 O 0.22317 0.56841 0.50301 0.0
C105 C 0.26786 0.60233 0.69331 0.0
C106 C 0.04402 0.59774 0.60091 0.0
O107 O 0.08425 0.63635 0.57467 0.0
O108 O 0.07228 0.55188 0.62447 0.0
C109 C 0.29519 0.72088 0.51789 0.0
O110 O 0.34094 0.69271 0.55432 0.0
C111 C 0.22729 0.51244 0.49988 0.0
Zn112 Zn 0.73692 0.96317 0.12086 0.0
Zn113 Zn 0.73394 0.85619 0.05815 0.0
O114 O 0.76254 0.92712 0.0012 0.0
O115 O 0.75802 0.01348 0.04807 0.0
O116 O 0.76847 0.78518 0.00856 0.0
O117 O 0.8265 0.92158 0.15549 0.0
O118 O 0.75994 0.84436 0.15157 0.0
C119 C 0.76826 0.98322 -0.0005 0.0
C120 C 0.59207 0.89514 0.09849 0.0
O121 O 0.62387 0.85874 0.06231 0.0
O122 O 0.6285 0.93439 0.12757 0.0
C123 C 0.73407 0.76955 0.95978 0.0
O124 O 0.67333 0.79668 0.94471 0.0
C125 C 0.79847 0.87897 0.18412 0.0
Zn126 Zn 0.319 0.03326 0.62086 0.0
Zn127 Zn 0.32198 0.14023 0.55815 0.0
O128 O 0.29338 0.0693 0.5012 0.0
O129 O 0.29791 0.98295 0.54806 0.0
O130 O 0.28746 0.21125 0.50856 0.0
O131 O 0.22943 0.07485 0.65549 0.0
O132 O 0.29598 0.15206 0.65157 0.0
C133 C 0.28767 0.0132 0.4995 0.0
C134 C 0.46385 0.10128 0.59849 0.0
O135 O 0.43206 0.13769 0.56231 0.0
O136 O 0.42743 0.06203 0.62757 0.0
C137 C 0.32186 0.22688 0.45978 0.0
O138 O 0.3826 0.19975 0.44472 0.0
C139 C 0.25746 0.11746 0.68412 0.0
Zn140 Zn 0.73692 0.03324 0.81776 0.0
Zn141 Zn 0.73395 0.14024 0.88049 0.0
O142 O 0.76256 0.0693 0.93743 0.0
O143 O 0.75801 0.98294 0.89056 0.0
O144 O 0.76847 0.21125 0.93009 0.0
O145 O 0.8265 0.07486 0.78316 0.0
O146 O 0.75996 0.15208 0.78707 0.0
C147 C 0.76827 0.0132 0.93912 0.0
C148 C 0.59208 0.10128 0.84015 0.0
O149 O 0.62388 0.13769 0.87633 0.0
O150 O 0.6285 0.06203 0.81107 0.0
C151 C 0.73407 0.22687 -0.02113 0.0
O152 O 0.67334 0.19973 -0.00606 0.0
C153 C 0.79847 0.11746 0.75453 0.0
Zn154 Zn 0.31901 0.96318 0.31776 0.0
Zn155 Zn 0.32198 0.85619 0.38049 0.0
O156 O 0.29337 0.92712 0.43743 0.0
O157 O 0.29792 0.01348 0.39056 0.0
O158 O 0.28746 0.78518 0.43009 0.0
O159 O 0.22943 0.92157 0.28316 0.0
O160 O 0.29597 0.84435 0.28707 0.0
C161 C 0.28766 0.98322 0.43911 0.0
C162 C 0.46385 0.89514 0.34015 0.0
O163 O 0.43205 0.85873 0.37632 0.0
O164 O 0.42743 0.93439 0.31107 0.0
C165 C 0.32186 0.76955 0.47887 0.0
O166 O 0.38259 0.79669 0.49393 0.0
C167 C 0.25745 0.87896 0.25453 0.0
Zn168 Zn 0.37588 0.03116 0.82091 0.0
Zn169 Zn 0.35933 0.13373 0.87215 0.0
O170 O 0.30706 0.14132 0.78501 0.0
O171 O 0.30675 0.04933 0.75312 0.0
O172 O 0.3276 0.20573 0.92161 0.0
O173 O 0.34262 0.98149 0.89146 0.0
O174 O 0.33277 0.06841 0.93564 0.0
C175 C 0.28807 0.10232 0.74534 0.0
C176 C 0.51191 0.09775 0.83774 0.0
O177 O 0.47169 0.13635 0.86397 0.0
O178 O 0.48364 0.05188 0.81418 0.0
C179 C 0.26074 0.22087 0.92076 0.0
O180 O 0.21499 0.1927 0.88433 0.0
C181 C 0.32865 0.01244 0.93879 0.0
Zn182 Zn 0.68004 0.96526 0.32091 0.0
Zn183 Zn 0.6966 0.86269 0.37215 0.0
O184 O 0.74887 0.85511 0.28501 0.0
O185 O 0.74918 0.94709 0.25312 0.0
O186 O 0.72833 0.7907 0.42161 0.0
O187 O 0.71331 0.01494 0.39146 0.0
O188 O 0.72316 0.92801 0.43564 0.0
C189 C 0.76786 0.8941 0.24534 0.0
C190 C 0.54402 0.89868 0.33774 0.0
O191 O 0.58424 0.86007 0.36397 0.0
O192 O 0.57228 0.94454 0.31418 0.0
C193 C 0.79519 0.77555 0.42077 0.0
O194 O 0.84094 0.80373 0.38434 0.0
C195 C 0.72728 0.98398 0.43879 0.0
Zn196 Zn 0.37589 0.96528 0.11775 0.0
Zn197 Zn 0.35932 0.8627 0.0665 0.0
O198 O 0.30705 0.85511 0.15363 0.0
O199 O 0.30675 0.94709 0.18554 0.0
O200 O 0.32759 0.7907 0.01704 0.0
O201 O 0.34261 0.01495 0.0472 0.0
O202 O 0.33276 0.92802 0.00301 0.0
C203 C 0.28807 0.8941 0.19331 0.0
C204 C 0.51191 0.89868 0.10091 0.0
O205 O 0.47168 0.86008 0.07467 0.0
O206 O 0.48364 0.94454 0.12447 0.0
C207 C 0.26073 0.77555 0.01789 0.0
O208 O 0.21498 0.80371 0.05432 0.0
C209 C 0.32863 0.98399 -0.00012 0.0
Zn210 Zn 0.68004 0.03114 0.61775 0.0
Zn211 Zn 0.6966 0.13373 0.5665 0.0
O212 O 0.74887 0.14131 0.65363 0.0
O213 O 0.74917 0.04934 0.68554 0.0
O214 O 0.72833 0.20573 0.51704 0.0
O215 O 0.71332 0.98148 0.5472 0.0
O216 O 0.72317 0.06841 0.50301 0.0
C217 C 0.76786 0.10233 0.69331 0.0
C218 C 0.54402 0.09774 0.60091 0.0
O219 O 0.58425 0.13635 0.57467 0.0
O220 O 0.57228 0.05188 0.62447 0.0
C221 C 0.79519 0.22088 0.51789 0.0
O222 O 0.84094 0.19271 0.55432 0.0
C223 C 0.72729 0.01244 0.49988 0.0
loop_
_geom_bond_atom_site_label_1
_geom_bond_atom_site_label_2
_geom_bond_distance
_geom_bond_site_symmetry_2
_ccdc_geom_bond_type
Zn0 O3 2.031 . S
Zn0 O5 2.049 . S
Zn0 O10 2.067 . S
Zn1 O2 1.962 . S
Zn1 O4 1.986 . S
Zn1 O6 1.996 . S
Zn1 O9 1.943 . S
O2 Zn1 1.962 . S
O2 C7 1.254 . S
O3 Zn0 2.031 . S
O3 C7 1.269 . S
O4 Zn1 1.986 . S
O4 C11 1.262 . S
O5 Zn0 2.049 . S
O5 C13 1.260 . S
O6 Zn1 1.996 . S
O6 C13 1.257 . S
C7 O2 1.254 . S
C7 O3 1.269 . S
C8 O9 1.249 . S
C8 O10 1.270 . S
O9 Zn1 1.943 . S
O9 C8 1.249 . S
O10 Zn0 2.067 . S
O10 C8 1.270 . S
C11 O4 1.262 . S
C11 O12 1.232 1_554 S
O12 C11 1.232 1_556 S
C13 O5 1.260 . S
C13 O6 1.257 . S
Zn14 O17 2.031 . S
Zn14 O19 2.049 . S
Zn14 O24 2.067 . S
Zn15 O16 1.962 . S
Zn15 O18 1.986 . S
Zn15 O20 1.996 . S
Zn15 O23 1.943 . S
O16 Zn15 1.962 . S
O16 C21 1.254 . S
O17 Zn14 2.031 . S
O17 C21 1.269 . S
O18 Zn15 1.986 . S
O18 C25 1.262 . S
O19 Zn14 2.049 . S
O19 C27 1.260 . S
O20 Zn15 1.996 . S
O20 C27 1.257 . S
C21 O16 1.254 . S
C21 O17 1.269 . S
C22 O23 1.249 . S
C22 O24 1.270 . S
O23 Zn15 1.943 . S
O23 C22 1.249 . S
O24 Zn14 2.067 . S
O24 C22 1.270 . S
C25 O18 1.262 . S
C25 O26 1.232 . S
O26 C25 1.232 . S
C27 O19 1.260 . S
C27 O20 1.257 . S
Zn28 O31 2.031 . S
Zn28 O33 2.049 . S
Zn28 O38 2.067 . S
Zn29 O30 1.962 . S
Zn29 O32 1.986 . S
Zn29 O34 1.996 . S
Zn29 O37 1.943 . S
O30 Zn29 1.962 . S
O30 C35 1.254 . S
O31 Zn28 2.031 . S
O31 C35 1.269 . S
O32 Zn29 1.986 . S
O32 C39 1.262 . S
O33 Zn28 2.049 . S
O33 C41 1.260 . S
O34 Zn29 1.996 . S
O34 C41 1.257 . S
C35 O30 1.254 . S
C35 O31 1.269 . S
C36 O37 1.249 . S
C36 O38 1.270 . S
O37 Zn29 1.943 . S
O37 C36 1.249 . S
O38 Zn28 2.067 . S
O38 C36 1.270 . S
C39 O32 1.262 . S
C39 O40 1.232 1_556 S
O40 C39 1.232 1_554 S
C41 O33 1.260 . S
C41 O34 1.257 . S
Zn42 O45 2.031 . S
Zn42 O47 2.049 . S
Zn42 O52 2.067 . S
Zn43 O44 1.962 . S
Zn43 O46 1.986 . S
Zn43 O48 1.996 . S
Zn43 O51 1.943 . S
O44 Zn43 1.962 . S
O44 C49 1.254 . S
O45 Zn42 2.031 . S
O45 C49 1.269 . S
O46 Zn43 1.986 . S
O46 C53 1.262 . S
O47 Zn42 2.049 . S
O47 C55 1.260 . S
O48 Zn43 1.996 . S
O48 C55 1.257 . S
C49 O44 1.254 . S
C49 O45 1.269 . S
C50 O51 1.249 . S
C50 O52 1.270 . S
O51 Zn43 1.943 . S
O51 C50 1.249 . S
O52 Zn42 2.067 . S
O52 C50 1.270 . S
C53 O46 1.262 . S
C53 O54 1.232 . S
O54 C53 1.232 . S
C55 O47 1.260 . S
C55 O48 1.257 . S
Zn56 O59 2.031 . S
Zn56 O61 2.049 . S
Zn56 O66 2.067 . S
Zn57 O58 1.962 . S
Zn57 O60 1.986 . S
Zn57 O62 1.996 . S
Zn57 O65 1.943 . S
O58 Zn57 1.962 . S
O58 C63 1.254 . S
O59 Zn56 2.031 . S
O59 C63 1.269 . S
O60 Zn57 1.986 . S
O60 C67 1.262 . S
O61 Zn56 2.049 . S
O61 C69 1.260 . S
O62 Zn57 1.996 . S
O62 C69 1.257 . S
C63 O58 1.254 . S
C63 O59 1.269 . S
C64 O65 1.249 . S
C64 O66 1.270 . S
O65 Zn57 1.943 . S
O65 C64 1.249 . S
O66 Zn56 2.067 . S
O66 C64 1.270 . S
C67 O60 1.262 . S
C67 O68 1.232 . S
O68 C67 1.232 . S
C69 O61 1.260 . S
C69 O62 1.257 . S
Zn70 O73 2.031 . S
Zn70 O75 2.049 . S
Zn70 O80 2.067 . S
Zn71 O72 1.962 . S
Zn71 O74 1.986 . S
Zn71 O76 1.996 . S
Zn71 O79 1.943 . S
O72 Zn71 1.962 . S
O72 C77 1.254 . S
O73 Zn70 2.031 . S
O73 C77 1.269 . S
O74 Zn71 1.986 . S
O74 C81 1.262 . S
O75 Zn70 2.049 . S
O75 C83 1.260 . S
O76 Zn71 1.996 . S
O76 C83 1.257 . S
C77 O72 1.254 . S
C77 O73 1.269 . S
C78 O79 1.249 . S
C78 O80 1.270 . S
O79 Zn71 1.943 . S
O79 C78 1.249 . S
O80 Zn70 2.067 . S
O80 C78 1.270 . S
C81 O74 1.262 . S
C81 O82 1.232 . S
O82 C81 1.232 . S
C83 O75 1.260 . S
C83 O76 1.257 . S
Zn84 O87 2.031 . S
Zn84 O89 2.049 . S
Zn84 O94 2.067 . S
Zn85 O86 1.962 . S
Zn85 O88 1.986 . S
Zn85 O90 1.996 . S
Zn85 O93 1.943 . S
O86 Zn85 1.962 . S
O86 C91 1.254 . S
O87 Zn84 2.031 . S
O87 C91 1.269 . S
O88 Zn85 1.986 . S
O88 C95 1.262 . S
O89 Zn84 2.049 . S
O89 C97 1.260 . S
O90 Zn85 1.996 . S
O90 C97 1.257 . S
C91 O86 1.254 . S
C91 O87 1.269 . S
C92 O93 1.249 . S
C92 O94 1.270 . S
O93 Zn85 1.943 . S
O93 C92 1.249 . S
O94 Zn84 2.067 . S
O94 C92 1.270 . S
C95 O88 1.262 . S
C95 O96 1.232 . S
O96 C95 1.232 . S
C97 O89 1.260 . S
C97 O90 1.257 . S
Zn98 O101 2.031 . S
Zn98 O103 2.049 . S
Zn98 O108 2.067 . S
Zn99 O100 1.962 . S
Zn99 O102 1.986 . S
Zn99 O104 1.996 . S
Zn99 O107 1.943 . S
O100 Zn99 1.962 . S
O100 C105 1.254 . S
O101 Zn98 2.031 . S
O101 C105 1.269 . S
O102 Zn99 1.986 . S
O102 C109 1.262 . S
O103 Zn98 2.049 . S
O103 C111 1.260 . S
O104 Zn99 1.996 . S
O104 C111 1.257 . S
C105 O100 1.254 . S
C105 O101 1.269 . S
C106 O107 1.249 . S
C106 O108 1.270 . S
O107 Zn99 1.943 . S
O107 C106 1.249 . S
O108 Zn98 2.067 . S
O108 C106 1.270 . S
C109 O102 1.262 . S
C109 O110 1.232 . S
O110 C109 1.232 . S
C111 O103 1.260 . S
C111 O104 1.257 . S
Zn112 O115 2.031 . S
Zn112 O117 2.049 . S
Zn112 O122 2.067 . S
Zn113 O114 1.962 . S
Zn113 O116 1.986 . S
Zn113 O118 1.996 . S
Zn113 O121 1.943 . S
O114 Zn113 1.962 . S
O114 C119 1.254 . S
O115 Zn112 2.031 . S
O115 C119 1.269 . S
O116 Zn113 1.986 . S
O116 C123 1.262 . S
O117 Zn112 2.049 . S
O117 C125 1.260 . S
O118 Zn113 1.996 . S
O118 C125 1.257 . S
C119 O114 1.254 . S
C119 O115 1.269 . S
C120 O121 1.249 . S
C120 O122 1.270 . S
O121 Zn113 1.943 . S
O121 C120 1.249 . S
O122 Zn112 2.067 . S
O122 C120 1.270 . S
C123 O116 1.262 . S
C123 O124 1.232 1_554 S
O124 C123 1.232 1_556 S
C125 O117 1.260 . S
C125 O118 1.257 . S
Zn126 O129 2.031 . S
Zn126 O131 2.049 . S
Zn126 O136 2.067 . S
Zn127 O128 1.962 . S
Zn127 O130 1.986 . S
Zn127 O132 1.996 . S
Zn127 O135 1.943 . S
O128 Zn127 1.962 . S
O128 C133 1.254 . S
O129 Zn126 2.031 . S
O129 C133 1.269 . S
O130 Zn127 1.986 . S
O130 C137 1.262 . S
O131 Zn126 2.049 . S
O131 C139 1.260 . S
O132 Zn127 1.996 . S
O132 C139 1.257 . S
C133 O128 1.254 . S
C133 O129 1.269 . S
C134 O135 1.249 . S
C134 O136 1.270 . S
O135 Zn127 1.943 . S
O135 C134 1.249 . S
O136 Zn126 2.067 . S
O136 C134 1.270 . S
C137 O130 1.262 . S
C137 O138 1.232 . S
O138 C137 1.232 . S
C139 O131 1.260 . S
C139 O132 1.257 . S
Zn140 O143 2.031 . S
Zn140 O145 2.049 . S
Zn140 O150 2.067 . S
Zn141 O142 1.962 . S
Zn141 O144 1.986 . S
Zn141 O146 1.996 . S
Zn141 O149 1.943 . S
O142 Zn141 1.962 . S
O142 C147 1.254 . S
O143 Zn140 2.031 . S
O143 C147 1.269 . S
O144 Zn141 1.986 . S
O144 C151 1.262 . S
O145 Zn140 2.049 . S
O145 C153 1.260 . S
O146 Zn141 1.996 . S
O146 C153 1.257 . S
C147 O142 1.254 . S
C147 O143 1.269 . S
C148 O149 1.249 . S
C148 O150 1.270 . S
O149 Zn141 1.943 . S
O149 C148 1.249 . S
O150 Zn140 2.067 . S
O150 C148 1.270 . S
C151 O144 1.262 . S
C151 O152 1.232 1_556 S
O152 C151 1.232 1_554 S
C153 O145 1.260 . S
C153 O146 1.257 . S
Zn154 O157 2.031 . S
Zn154 O159 2.049 . S
Zn154 O164 2.067 . S
Zn155 O156 1.962 . S
Zn155 O158 1.986 . S
Zn155 O160 1.996 . S
Zn155 O163 1.943 . S
O156 Zn155 1.962 . S
O156 C161 1.254 . S
O157 Zn154 2.031 . S
O157 C161 1.269 . S
O158 Zn155 1.986 . S
O158 C165 1.262 . S
O159 Zn154 2.049 . S
O159 C167 1.260 . S
O160 Zn155 1.996 . S
O160 C167 1.257 . S
C161 O156 1.254 . S
C161 O157 1.269 . S
C162 O163 1.249 . S
C162 O164 1.270 . S
O163 Zn155 1.943 . S
O163 C162 1.249 . S
O164 Zn154 2.067 . S
O164 C162 1.270 . S
C165 O158 1.262 . S
C165 O166 1.232 . S
O166 C165 1.232 . S
C167 O159 1.260 . S
C167 O160 1.257 . S
Zn168 O171 2.031 . S
Zn168 O173 2.049 1_545 S
Zn168 O178 2.067 . S
Zn169 O170 1.962 . S
Zn169 O172 1.986 . S
Zn169 O174 1.996 . S
Zn169 O177 1.943 . S
O170 Zn169 1.962 . S
O170 C175 1.254 . S
O171 Zn168 2.031 . S
O171 C175 1.269 . S
O172 Zn169 1.986 . S
O172 C179 1.262 . S
O173 Zn168 2.049 1_565 S
O173 C181 1.260 1_565 S
O174 Zn169 1.996 . S
O174 C181 1.257 . S
C175 O170 1.254 . S
C175 O171 1.269 . S
C176 O177 1.249 . S
C176 O178 1.270 . S
O177 Zn169 1.943 . S
O177 C176 1.249 . S
O178 Zn168 2.067 . S
O178 C176 1.270 . S
C179 O172 1.262 . S
C179 O180 1.232 . S
O180 C179 1.232 . S
C181 O173 1.260 1_545 S
C181 O174 1.257 . S
Zn182 O185 2.031 . S
Zn182 O187 2.049 1_565 S
Zn182 O192 2.067 . S
Zn183 O184 1.962 . S
Zn183 O186 1.986 . S
Zn183 O188 1.996 . S
Zn183 O191 1.943 . S
O184 Zn183 1.962 . S
O184 C189 1.254 . S
O185 Zn182 2.031 . S
O185 C189 1.269 . S
O186 Zn183 1.986 . S
O186 C193 1.262 . S
O187 Zn182 2.049 1_545 S
O187 C195 1.260 1_545 S
O188 Zn183 1.996 . S
O188 C195 1.257 . S
C189 O184 1.254 . S
C189 O185 1.269 . S
C190 O191 1.249 . S
C190 O192 1.270 . S
O191 Zn183 1.943 . S
O191 C190 1.249 . S
O192 Zn182 2.067 . S
O192 C190 1.270 . S
C193 O186 1.262 . S
C193 O194 1.232 . S
O194 C193 1.232 . S
C195 O187 1.260 1_565 S
C195 O188 1.257 . S
Zn196 O199 2.031 . S
Zn196 O201 2.049 1_565 S
Zn196 O206 2.067 . S
Zn197 O198 1.962 . S
Zn197 O200 1.986 . S
Zn197 O202 1.996 . S
Zn197 O205 1.943 . S
O198 Zn197 1.962 . S
O198 C203 1.254 . S
O199 Zn196 2.031 . S
O199 C203 1.269 . S
O200 Zn197 1.986 . S
O200 C207 1.262 . S
O201 Zn196 2.049 1_545 S
O201 C209 1.260 1_545 S
O202 Zn197 1.996 . S
O202 C209 1.257 . S
C203 O198 1.254 . S
C203 O199 1.269 . S
C204 O205 1.249 . S
C204 O206 1.270 . S
O205 Zn197 1.943 . S
O205 C204 1.249 . S
O206 Zn196 2.067 . S
O206 C204 1.270 . S
C207 O200 1.262 . S
C207 O208 1.232 . S
O208 C207 1.232 . S
C209 O201 1.260 1_565 S
C209 O202 1.257 . S
Zn210 O213 2.031 . S
Zn210 O215 2.049 1_545 S
Zn210 O220 2.067 . S
Zn211 O212 1.962 . S
Zn211 O214 1.986 . S
Zn211 O216 1.996 . S
Zn211 O219 1.943 . S
O212 Zn211 1.962 . S
O212 C217 1.254 . S
O213 Zn210 2.031 . S
O213 C217 1.269 . S
O214 Zn211 1.986 . S
O214 C221 1.262 . S
O215 Zn210 2.049 1_565 S
O215 C223 1.260 1_565 S
O216 Zn211 1.996 . S
O216 C223 1.257 . S
C217 O212 1.254 . S
C217 O213 1.269 . S
C218 O219 1.249 . S
C218 O220 1.270 . S
O219 Zn211 1.943 . S
O219 C218 1.249 . S
O220 Zn210 2.067 . S
O220 C218 1.270 . S
C221 O214 1.262 . S
C221 O222 1.232 . S
O222 C221 1.232 . S
C223 O215 1.260 1_545 S
C223 O216 1.257 . S
C8 C92 1.307 1_455 S
C22 C106 1.307 1_655 S
C64 C36 1.307 1_655 S
C78 C50 1.307 1_455 S
C204 C120 1.307 . S
C218 C134 1.307 . S
C148 C176 1.307 . S
C162 C190 1.307 . S
C13 C77 1.258 . S
C27 C63 1.258 . S
C41 C105 1.258 . S
C91 C55 1.258 . S
C189 C125 1.258 . S
C175 C139 1.258 . S
C153 C217 1.258 . S
C203 C167 1.258 . S
C179 C11 1.408 1_556 S
C25 C193 1.408 . S
C207 C39 1.408 1_554 S
C221 C53 1.408 . S
C123 C67 1.408 1_554 S
C137 C81 1.408 . S
C95 C151 1.408 1_554 S
C109 C165 1.408 . S
C35 C7 1.527 1_556 S
C21 C49 1.527 . S
C97 C69 1.406 1_554 S
C83 C111 1.406 . S
C147 C119 1.527 1_546 S
C161 C133 1.527 1_565 S
C209 C181 1.406 1_564 S
C223 C195 1.406 1_545 S
