# Generated by pormake.
# Topology bsn, (6)-cn, num edge types: 1
# Building blocks:
#     Node 0, Type 0, BuildingBlock: JUFBIX_clean_sbu_0, # of connection points: 6
#     Node 1, Type 0, BuildingBlock: JUFBIX_clean_sbu_0, # of connection points: 6
#     Node 2, Type 0, BuildingBlock: JUFBIX_clean_sbu_0, # of connection points: 6
#     Node 3, Type 0, BuildingBlock: JUFBIX_clean_sbu_0, # of connection points: 6
#     Edge 4, Type (0, 0), BuildingBlock: AJUNOK_clean_linker_0, # of connection points: 2
#     Edge 5, Type (0, 0), BuildingBlock: AJUNOK_clean_linker_0, # of connection points: 2
#     Edge 6, Type (0, 0), BuildingBlock: AJUNOK_clean_linker_0, # of connection points: 2
#     Edge 7, Type (0, 0), BuildingBlock: AJUNOK_clean_linker_0, # of connection points: 2
#     Edge 8, Type (0, 0), BuildingBlock: AJUNOK_clean_linker_0, # of connection points: 2
#     Edge 9, Type (0, 0), BuildingBlock: AJUNOK_clean_linker_0, # of connection points: 2
#     Edge 10, Type (0, 0), BuildingBlock: AJUNOK_clean_linker_0, # of connection points: 2
#     Edge 11, Type (0, 0), BuildingBlock: AJUNOK_clean_linker_0, # of connection points: 2
#     Edge 12, Type (0, 0), BuildingBlock: AJUNOK_clean_linker_0, # of connection points: 2
#     Edge 13, Type (0, 0), BuildingBlock: AJUNOK_clean_linker_0, # of connection points: 2
#     Edge 14, Type (0, 0), BuildingBlock: AJUNOK_clean_linker_0, # of connection points: 2
#     Edge 15, Type (0, 0), BuildingBlock: AJUNOK_clean_linker_0, # of connection points: 2
# Relax obj value: 0.081
# Max RMSD: 0.158
# Mean RMSD: 0.158
data_MOF--net-bsn--node1-JUFBIX_clean_sbu_0--edge1-AJUNOK_clean_linker_0
_symmetry_space_group_name_H-M    P1
_symmetry_Int_Tables_number       1
_symmetry_cell_setting            triclinic
loop_
_symmetry_equiv_pos_as_xyz
'x, y, z'
_cell_length_a     21.364431
_cell_length_b     30.396353
_cell_length_c     10.900273
_cell_angle_alpha  88.641772
_cell_angle_beta   91.549825
_cell_angle_gamma 99.059761
loop_
_atom_site_label
_atom_site_type_symbol
_atom_site_fract_x
_atom_site_fract_y
_atom_site_fract_z
_atom_type_partial_charge
Co0 Co 0.03813 0.27427 0.29055 0.0
C1 C 0.04747 0.31094 0.52104 0.0
Co2 Co 0.05393 0.34834 0.28585 0.0
C3 C 0.04248 0.18254 0.37227 0.0
C4 C 0.98384 0.18662 0.21149 0.0
N5 N 1.02225 0.21202 0.29132 0.0
N6 N 1.01778 0.13985 0.34648 0.0
C7 C 0.98125 0.14243 0.24471 0.0
H8 H 0.07478 0.19232 0.44848 0.0
H9 H 0.95818 0.19947 0.13531 0.0
C10 C 0.04525 0.31256 0.05521 0.0
N11 N 0.0687 0.41087 0.28708 0.0
C12 C 0.04228 0.43878 0.35796 0.0
C13 C 0.1113 0.43798 0.21983 0.0
N14 N 0.06647 0.48221 0.3371 0.0
C15 C 0.11024 0.48158 0.25049 0.0
C16 C 0.16399 0.30977 0.28401 0.0
O17 O 0.038 0.2758 0.11543 0.0
O18 O 0.05242 0.34888 0.1131 0.0
O19 O 0.14313 0.34682 0.28512 0.0
O20 O 0.12521 0.27368 0.29177 0.0
O21 O 0.05537 0.34704 0.45849 0.0
H22 H 0.14222 0.4267 0.15445 0.0
H23 H 1.00612 0.42736 0.42417 0.0
O24 O 0.03868 0.27406 0.46548 0.0
O25 O 0.95118 0.27522 0.2863 0.0
O26 O 0.96473 0.34824 0.2824 0.0
C27 C 0.92781 0.31103 0.27972 0.0
H28 H 0.95318 0.1144 0.19945 0.0
H29 H 0.1411 0.51038 0.21455 0.0
Co30 Co 1.01768 0.7683 0.65396 0.0
C31 C 0.02719 0.80353 0.88536 0.0
Co32 Co 0.0342 0.84248 0.65015 0.0
C33 C 0.03153 0.67952 0.57458 0.0
C34 C 0.96424 0.67705 0.7173 0.0
N35 N 1.00472 0.70577 0.6499 0.0
N36 N 1.00894 0.63558 0.59127 0.0
C37 C 0.96687 0.63412 0.68193 0.0
H38 H 0.06727 0.69264 0.50919 0.0
H39 H 0.93389 0.68676 0.78628 0.0
C40 C 1.02317 0.80667 0.41881 0.0
N41 N 0.04872 0.90475 0.65206 0.0
C42 C 1.02625 0.93494 0.57639 0.0
C43 C 0.0883 0.92947 0.73146 0.0
N44 N 0.04998 0.97742 0.60637 0.0
C45 C 0.08926 0.97391 0.70362 0.0
C46 C 0.14421 0.80617 0.65777 0.0
O47 O 1.01529 0.7704 0.48069 0.0
O48 O 0.03305 0.84346 0.47492 0.0
O49 O 0.12192 0.84245 0.65296 0.0
O50 O 0.10653 0.76935 0.65517 0.0
O51 O 0.03495 0.84025 0.82503 0.0
H52 H 0.11599 0.91599 0.80348 0.0
H53 H 0.99345 0.92594 0.50035 0.0
O54 O 1.01976 0.76707 0.82784 0.0
O55 O 0.9289 0.76866 0.65654 0.0
O56 O 0.94621 0.84187 0.65078 0.0
C57 C 0.90775 0.80554 0.65906 0.0
H58 H 0.93864 0.60417 0.71819 0.0
H59 H 0.11853 1.00143 0.74879 0.0
Co60 Co 0.52138 0.77066 0.79675 0.0
C61 C 0.52836 0.80825 0.02761 0.0
Co62 Co 0.53577 0.84481 0.79297 0.0
C63 C 0.53731 0.67517 0.81577 0.0
C64 C 0.44232 0.68657 0.83912 0.0
N65 N 0.5006 0.70788 0.80964 0.0
N66 N 0.50349 0.63481 0.84502 0.0
C67 C 0.44394 0.64237 0.8599 0.0
H68 H 0.5882 0.68109 0.80556 0.0
H69 H 0.40151 0.70213 0.85614 0.0
C70 C 0.52916 0.80606 0.56227 0.0
N71 N 0.55401 0.90695 0.78906 0.0
C72 C 0.53389 0.93534 0.8674 0.0
C73 C 0.59262 0.93334 0.71242 0.0
N74 N 0.55896 0.9783 0.84389 0.0
C75 C 0.5955 0.97716 0.7455 0.0
C76 C 0.64633 0.80518 0.79548 0.0
O77 O 0.52265 0.76961 0.62421 0.0
O78 O 0.53513 0.84293 0.61818 0.0
O79 O 0.62346 0.84138 0.79559 0.0
O80 O 0.60908 0.76822 0.80276 0.0
O81 O 0.53626 0.84509 0.9681 0.0
H82 H 0.618 0.92144 0.63868 0.0
H83 H 0.50123 0.92457 0.94027 0.0
O84 O 0.52031 0.77226 -0.03116 0.0
O85 O 0.43454 0.77516 0.78508 0.0
O86 O 0.44794 0.84784 0.78606 0.0
C87 C 0.41123 0.8109 0.77746 0.0
H88 H 0.40517 0.61841 0.89445 0.0
H89 H 0.62364 1.00585 0.70252 0.0
Co90 Co 0.53469 0.26838 0.14687 0.0
C91 C 0.54341 0.30572 0.37795 0.0
Co92 Co 0.55088 0.34225 0.1435 0.0
C93 C 0.54304 0.17771 0.07577 0.0
C94 C 0.48108 0.17966 0.22586 0.0
N95 N 0.51992 0.20616 0.1499 0.0
N96 N 0.5204 0.13456 0.10298 0.0
C97 C 0.48115 0.1358 0.19716 0.0
H98 H 0.57575 0.18848 0.0029 0.0
H99 H 0.45349 0.19151 0.29622 0.0
C100 C 0.54158 0.30532 0.91209 0.0
N101 N 0.56602 0.40435 0.13861 0.0
C102 C 0.54593 0.43155 0.05143 0.0
C103 C 0.60085 0.43199 0.21816 0.0
N104 N 0.56648 0.47523 0.07285 0.0
C105 C 0.60106 0.47536 0.17843 0.0
C106 C 0.66079 0.30493 0.15533 0.0
O107 O 0.53319 0.26858 -0.02799 0.0
O108 O 0.55062 0.34146 -0.02954 0.0
O109 O 0.63891 0.34144 0.14911 0.0
O110 O 0.62275 0.26836 0.15058 0.0
O111 O 0.55082 0.342 0.31606 0.0
H112 H 0.62487 0.42132 0.29956 0.0
H113 H 0.51779 0.41896 -0.02721 0.0
O114 O 0.53628 0.26897 0.32184 0.0
O115 O 0.44664 0.26948 0.14686 0.0
O116 O 0.4624 0.34257 0.14172 0.0
C117 C 0.42456 0.30592 0.14901 0.0
H118 H 0.45278 0.10716 0.23982 0.0
H119 H 0.62437 0.50471 0.22511 0.0
C120 C 0.03536 0.51834 0.52338 0.0
C121 C 0.05143 0.52097 0.3987 0.0
C122 C 1.02228 0.55585 0.58547 0.0
C123 C 1.02447 0.59775 0.52573 0.0
H124 H 0.03384 0.48718 0.57407 0.0
H125 H 1.01101 0.55206 0.68173 0.0
S126 S 0.05843 0.62159 0.19627 0.0
N127 N 0.06491 0.56848 0.21575 0.0
N128 N 0.04052 0.63862 0.33177 0.0
C129 C 0.03958 0.60067 0.40045 0.0
C130 C 0.0529 0.56245 0.33724 0.0
C131 C 0.738 0.76617 0.75293 0.0
C132 C 0.71419 0.80624 0.76847 0.0
C133 C 0.79996 0.76621 0.71389 0.0
C134 C 0.84061 0.80633 0.68839 0.0
H135 H 0.70838 0.73435 0.7695 0.0
H136 H 0.81614 0.73444 0.70472 0.0
S137 S 0.80161 0.92064 0.71523 0.0
N138 N 0.7367 0.88735 0.75646 0.0
N139 N 0.85249 0.8874 0.68185 0.0
C140 C 0.81744 0.84671 0.70364 0.0
C141 C 0.75455 0.84668 0.74427 0.0
C142 C 0.59511 0.55508 0.01175 0.0
C143 C 0.55413 0.51396 0.00095 0.0
C144 C 0.58097 0.59422 0.95342 0.0
C145 C 0.52559 0.59375 0.88077 0.0
H146 H 0.63784 0.55749 0.0683 0.0
H147 H 0.6118 0.62538 -0.02929 0.0
S148 S 0.40642 0.49483 0.80747 0.0
N149 N 0.45726 0.47562 0.90322 0.0
N150 N 0.43374 0.54831 0.78814 0.0
C151 C 0.48682 0.55253 0.86129 0.0
C152 C 0.50025 0.51289 0.92254 0.0
C153 C 0.834 0.34792 0.22521 0.0
C154 C 0.85905 0.30881 0.25457 0.0
C155 C 0.77023 0.34619 0.18991 0.0
C156 C 0.72902 0.30529 0.18233 0.0
H157 H 0.86395 0.38016 0.22791 0.0
H158 H 0.75314 0.37731 0.16907 0.0
S159 S 0.77076 0.19309 0.25191 0.0
N160 N 0.83724 0.2278 0.27581 0.0
N161 N 0.71777 0.22466 0.20841 0.0
C162 C 0.7534 0.26588 0.21166 0.0
C163 C 0.81822 0.26762 0.24834 0.0
C164 C 0.33354 0.34635 0.18533 0.0
C165 C 0.35707 0.30578 0.17744 0.0
C166 C 0.27181 0.34753 0.22393 0.0
C167 C 0.23116 0.30821 0.25663 0.0
H168 H 0.36313 0.37762 0.16238 0.0
H169 H 0.25569 0.37955 0.2265 0.0
S170 S 0.26996 0.19317 0.25416 0.0
N171 N 0.33465 0.22516 0.20634 0.0
N172 N 0.2193 0.2274 0.28017 0.0
C173 C 0.25422 0.26738 0.24993 0.0
C174 C 0.31685 0.26615 0.20972 0.0
C175 C 0.31421 0.84709 0.75653 0.0
C176 C 0.34311 0.80897 0.74637 0.0
C177 C 0.25022 0.8462 0.72397 0.0
C178 C 0.21276 0.80712 0.6802 0.0
H179 H 0.341 0.87779 0.7907 0.0
H180 H 0.22974 0.87619 0.73586 0.0
S181 S 0.26703 0.69942 0.62522 0.0
N182 N 0.33028 0.73185 0.68012 0.0
N183 N 0.20988 0.73016 0.62188 0.0
C184 C 0.24133 0.76907 0.66687 0.0
C185 C 0.30651 0.76999 0.69927 0.0
C186 C 0.54725 0.05809 0.84839 0.0
C187 C 0.55015 1.01733 0.91088 0.0
C188 C 0.53846 0.09637 0.91165 0.0
C189 C 0.53224 0.09542 0.03998 0.0
H190 H 0.5507 0.0602 0.74946 0.0
H191 H 0.53513 0.12668 0.85941 0.0
S192 S 0.54437 0.99858 0.24839 0.0
N193 N 0.55142 0.9795 0.10969 0.0
N194 N 0.53484 1.05115 0.22817 0.0
C195 C 0.53677 1.0552 0.10388 0.0
C196 C 0.54571 1.01626 0.03953 0.0
C197 C 0.03462 1.01989 0.41412 0.0
C198 C 0.03984 1.01814 0.543 0.0
C199 C 0.02796 0.05978 0.35084 0.0
C200 C 1.02621 0.09953 0.4138 0.0
H201 H 0.03705 0.99043 0.36168 0.0
H202 H 1.025 0.05966 0.25154 0.0
S203 S 0.03091 0.11155 0.75201 0.0
N204 N 0.03816 0.05892 0.73176 0.0
N205 N 1.02556 0.13364 0.61302 0.0
C206 C 0.03002 0.09799 0.5428 0.0
C207 C 0.03678 0.05739 0.60725 0.0
C208 C 0.03385 0.27279 0.85517 0.0
C209 C 0.04613 0.31305 0.91922 0.0
C210 C 0.03468 0.27235 0.72666 0.0
C211 C 0.04782 0.31216 0.65701 0.0
H212 H 1.02331 0.24123 0.90446 0.0
H213 H 1.02466 0.24049 0.68181 0.0
S214 S 0.08492 0.42662 0.78035 0.0
N215 N 0.073 0.39383 0.90295 0.0
N216 N 0.0746 0.39309 0.66228 0.0
C217 C 0.06061 0.3527 0.71998 0.0
C218 C 0.05973 0.35312 0.85072 0.0
C219 C 0.05143 0.842 0.08561 0.0
C220 C 1.02536 0.80354 0.0211 0.0
C221 C 0.04985 0.843 0.21407 0.0
C222 C 1.02208 0.8056 0.2829 0.0
H223 H 0.07385 0.87149 0.03666 0.0
H224 H 0.07134 0.87313 0.25972 0.0
S225 S 0.94079 0.69844 0.15715 0.0
N226 N 0.96691 0.72826 0.03526 0.0
N227 N 0.9638 0.73006 0.27613 0.0
C228 C 0.9945 0.76727 0.21927 0.0
C229 C 0.9962 0.76626 0.08861 0.0
C230 C 0.53124 0.84644 0.22942 0.0
C231 C 0.52891 0.80691 0.16372 0.0
C232 C 0.53149 0.84585 0.35806 0.0
C233 C 0.52944 0.8057 0.42623 0.0
H234 H 0.53258 0.87817 0.18133 0.0
H235 H 0.53303 0.8772 0.40417 0.0
S236 S 0.52511 0.69296 0.29834 0.0
N237 N 0.52598 0.72645 0.17691 0.0
N238 N 0.52642 0.72539 0.41788 0.0
C239 C 0.52762 0.76593 0.36165 0.0
C240 C 0.52735 0.76652 0.23075 0.0
C241 C 0.54118 0.26659 0.58306 0.0
C242 C 0.54252 0.30639 0.51375 0.0
C243 C 0.54056 0.26648 0.71165 0.0
C244 C 0.54132 0.30618 0.776 0.0
H245 H 0.54092 0.23519 0.53789 0.0
H246 H 0.53994 0.23502 0.7608 0.0
S247 S 0.54202 0.41925 0.63752 0.0
N248 N 0.54252 0.38646 0.51928 0.0
N249 N 0.54176 0.38628 0.75989 0.0
C250 C 0.54207 0.34617 0.70762 0.0
C251 C 0.54256 0.34627 0.57689 0.0
loop_
_geom_bond_atom_site_label_1
_geom_bond_atom_site_label_2
_geom_bond_distance
_geom_bond_site_symmetry_2
_ccdc_geom_bond_type
Co0 N5 2.057 . S
Co0 O17 2.021 . S
Co0 O20 2.062 1_655 S
Co0 O24 2.117 1_655 S
Co0 O25 2.020 . S
C1 O21 1.259 . S
C1 O24 1.258 . S
Co2 N11 2.057 . S
Co2 O18 2.117 . S
Co2 O19 2.020 . S
Co2 O21 2.021 . S
Co2 O26 2.062 1_455 S
C3 N5 1.320 . S
C3 N6 1.345 1_655 S
C3 H8 0.929 1_655 S
C4 N5 1.375 . S
C4 C7 1.350 . S
C4 H9 0.930 . S
N5 Co0 2.057 . S
N5 C3 1.320 . S
N5 C4 1.375 . S
N6 C3 1.345 1_455 S
N6 C7 1.373 1_455 S
C7 C4 1.350 . S
C7 N6 1.373 1_655 S
C7 H28 0.931 . S
H8 C3 0.929 1_455 S
H9 C4 0.930 . S
C10 O17 1.259 1_455 S
C10 O18 1.258 . S
N11 Co2 2.057 . S
N11 C12 1.316 . S
N11 C13 1.375 . S
C12 N11 1.316 . S
C12 N14 1.347 . S
C12 H23 0.931 . S
C13 N11 1.375 . S
C13 C15 1.350 . S
C13 H22 0.930 . S
N14 C12 1.347 . S
N14 C15 1.373 . S
C15 C13 1.350 . S
C15 N14 1.373 . S
C15 H29 0.931 . S
C16 O19 1.256 . S
C16 O20 1.255 . S
O17 Co0 2.021 . S
O17 C10 1.259 1_655 S
O18 Co2 2.117 . S
O18 C10 1.258 . S
O19 Co2 2.020 . S
O19 C16 1.256 . S
O20 Co0 2.062 1_455 S
O20 C16 1.255 . S
O21 C1 1.259 . S
O21 Co2 2.021 . S
H22 C13 0.930 . S
H23 C12 0.931 . S
O24 Co0 2.117 1_455 S
O24 C1 1.258 . S
O25 Co0 2.020 . S
O25 C27 1.256 . S
O26 Co2 2.062 1_655 S
O26 C27 1.255 . S
C27 O25 1.256 . S
C27 O26 1.255 . S
H28 C7 0.931 . S
H29 C15 0.931 . S
Co30 N35 2.057 . S
Co30 O47 2.021 . S
Co30 O50 2.062 1_655 S
Co30 O54 2.117 1_655 S
Co30 O55 2.020 . S
C31 O51 1.259 . S
C31 O54 1.258 . S
Co32 N41 2.057 . S
Co32 O48 2.117 . S
Co32 O49 2.020 . S
Co32 O51 2.021 . S
Co32 O56 2.062 1_455 S
C33 N35 1.316 . S
C33 N36 1.349 . S
C33 H38 0.930 1_655 S
C34 N35 1.375 . S
C34 C37 1.350 . S
C34 H39 0.930 . S
N35 Co30 2.057 . S
N35 C33 1.316 . S
N35 C34 1.375 . S
N36 C33 1.349 . S
N36 C37 1.377 . S
C37 C34 1.350 . S
C37 N36 1.377 . S
C37 H58 0.931 . S
H38 C33 0.930 1_455 S
H39 C34 0.930 . S
C40 O47 1.259 1_455 S
C40 O48 1.258 . S
N41 Co32 2.057 . S
N41 C42 1.316 . S
N41 C43 1.375 . S
C42 N41 1.316 . S
C42 N44 1.347 . S
C42 H53 0.931 . S
C43 N41 1.375 . S
C43 C45 1.350 . S
C43 H52 0.930 . S
N44 C42 1.347 . S
N44 C45 1.373 . S
C45 C43 1.350 . S
C45 N44 1.373 . S
C45 H59 0.931 . S
C46 O49 1.256 . S
C46 O50 1.255 . S
O47 Co30 2.021 . S
O47 C40 1.259 1_655 S
O48 Co32 2.117 . S
O48 C40 1.258 . S
O49 Co32 2.020 . S
O49 C46 1.256 . S
O50 Co30 2.062 1_455 S
O50 C46 1.255 . S
O51 C31 1.259 . S
O51 Co32 2.021 . S
H52 C43 0.930 . S
H53 C42 0.931 . S
O54 Co30 2.117 1_455 S
O54 C31 1.258 . S
O55 Co30 2.020 . S
O55 C57 1.256 . S
O56 Co32 2.062 1_655 S
O56 C57 1.255 . S
C57 O55 1.256 . S
C57 O56 1.255 . S
H58 C37 0.931 . S
H59 C45 0.931 . S
Co60 N65 2.057 . S
Co60 O77 2.021 . S
Co60 O80 2.062 . S
Co60 O84 2.117 1_556 S
Co60 O85 2.020 . S
C61 O81 1.259 . S
C61 O84 1.258 . S
Co62 N71 2.057 . S
Co62 O78 2.117 . S
Co62 O79 2.020 . S
Co62 O81 2.021 1_556 S
Co62 O86 2.062 . S
C63 N65 1.316 . S
C63 N66 1.347 . S
C63 H68 0.931 . S
C64 N65 1.375 1_554 S
C64 C67 1.350 . S
C64 H69 0.930 . S
N65 Co60 2.057 . S
N65 C63 1.316 . S
N65 C64 1.375 1_556 S
N66 C63 1.347 . S
N66 C67 1.373 1_556 S
C67 C64 1.350 . S
C67 N66 1.373 1_554 S
C67 H88 0.931 . S
H68 C63 0.931 . S
H69 C64 0.930 . S
C70 O77 1.259 . S
C70 O78 1.258 . S
N71 Co62 2.057 . S
N71 C72 1.316 . S
N71 C73 1.375 . S
C72 N71 1.316 . S
C72 N74 1.347 . S
C72 H83 0.931 1_556 S
C73 N71 1.375 . S
C73 C75 1.350 . S
C73 H82 0.930 . S
N74 C72 1.347 . S
N74 C75 1.373 . S
C75 C73 1.350 . S
C75 N74 1.373 . S
C75 H89 0.931 . S
C76 O79 1.256 . S
C76 O80 1.255 . S
O77 Co60 2.021 . S
O77 C70 1.259 . S
O78 Co62 2.117 . S
O78 C70 1.258 . S
O79 Co62 2.020 . S
O79 C76 1.256 . S
O80 Co60 2.062 . S
O80 C76 1.255 . S
O81 C61 1.259 . S
O81 Co62 2.021 1_554 S
H82 C73 0.930 . S
H83 C72 0.931 1_554 S
O84 Co60 2.117 1_554 S
O84 C61 1.258 . S
O85 Co60 2.020 . S
O85 C87 1.256 . S
O86 Co62 2.062 . S
O86 C87 1.255 . S
C87 O85 1.256 . S
C87 O86 1.255 . S
H88 C67 0.931 . S
H89 C75 0.931 . S
Co90 N95 2.057 . S
Co90 O107 2.021 1_554 S
Co90 O110 2.062 . S
Co90 O114 2.117 . S
Co90 O115 2.020 . S
C91 O111 1.259 . S
C91 O114 1.258 . S
Co92 N101 2.057 . S
Co92 O108 2.117 1_554 S
Co92 O109 2.020 . S
Co92 O111 2.021 . S
Co92 O116 2.062 . S
C93 N95 1.316 . S
C93 N96 1.347 . S
C93 H98 0.931 1_554 S
C94 N95 1.375 . S
C94 C97 1.350 . S
C94 H99 0.930 . S
N95 Co90 2.057 . S
N95 C93 1.316 . S
N95 C94 1.375 . S
N96 C93 1.347 . S
N96 C97 1.373 . S
C97 C94 1.350 . S
C97 N96 1.373 . S
C97 H118 0.931 . S
H98 C93 0.931 1_556 S
H99 C94 0.930 . S
C100 O107 1.259 . S
C100 O108 1.258 . S
N101 Co92 2.057 . S
N101 C102 1.316 . S
N101 C103 1.375 1_554 S
C102 N101 1.316 . S
C102 N104 1.347 . S
C102 H113 0.931 . S
C103 N101 1.375 1_556 S
C103 C105 1.350 . S
C103 H112 0.930 . S
N104 C102 1.347 . S
N104 C105 1.373 1_554 S
C105 C103 1.350 . S
C105 N104 1.373 1_556 S
C105 H119 0.931 . S
C106 O109 1.256 . S
C106 O110 1.255 . S
O107 Co90 2.021 1_556 S
O107 C100 1.259 . S
O108 Co92 2.117 1_556 S
O108 C100 1.258 . S
O109 Co92 2.020 . S
O109 C106 1.256 . S
O110 Co90 2.062 . S
O110 C106 1.255 . S
O111 C91 1.259 . S
O111 Co92 2.021 . S
H112 C103 0.930 . S
H113 C102 0.931 . S
O114 Co90 2.117 . S
O114 C91 1.258 . S
O115 Co90 2.020 . S
O115 C117 1.256 . S
O116 Co92 2.062 . S
O116 C117 1.255 . S
C117 O115 1.256 . S
C117 O116 1.255 . S
H118 C97 0.931 . S
H119 C105 0.931 . S
C120 C121 1.369 . S
C120 C122 1.419 . S
C120 H124 0.930 . S
C121 C120 1.369 . S
C121 C130 1.429 . S
C122 C120 1.419 . S
C122 C123 1.363 . S
C122 H125 0.929 . S
C123 C122 1.363 . S
C123 C129 1.428 . S
H124 C120 0.930 . S
H125 C122 0.929 . S
S126 N127 1.613 . S
S126 N128 1.610 . S
N127 S126 1.613 . S
N127 C130 1.350 . S
N128 S126 1.610 . S
N128 C129 1.351 . S
C129 C123 1.428 . S
C129 N128 1.351 . S
C129 C130 1.434 . S
C130 C121 1.429 . S
C130 N127 1.350 . S
C130 C129 1.434 . S
C131 C132 1.369 . S
C131 C133 1.419 . S
C131 H135 0.930 . S
C132 C131 1.369 . S
C132 C141 1.429 . S
C133 C131 1.419 . S
C133 C134 1.363 . S
C133 H136 0.929 . S
C134 C133 1.363 . S
C134 C140 1.428 . S
H135 C131 0.930 . S
H136 C133 0.929 . S
S137 N138 1.613 . S
S137 N139 1.610 1_554 S
N138 S137 1.613 . S
N138 C141 1.350 1_554 S
N139 S137 1.610 1_556 S
N139 C140 1.351 . S
C140 C134 1.428 . S
C140 N139 1.351 . S
C140 C141 1.434 . S
C141 C132 1.429 . S
C141 N138 1.350 1_556 S
C141 C140 1.434 . S
C142 C143 1.369 1_556 S
C142 C144 1.419 . S
C142 H146 0.930 . S
C143 C142 1.369 1_554 S
C143 C152 1.429 . S
C144 C142 1.419 . S
C144 C145 1.363 . S
C144 H147 0.929 . S
C145 C144 1.363 . S
C145 C151 1.428 1_556 S
H146 C142 0.930 . S
H147 C144 0.929 . S
S148 N149 1.613 . S
S148 N150 1.610 . S
N149 S148 1.613 . S
N149 C152 1.350 . S
N150 S148 1.610 . S
N150 C151 1.351 . S
C151 C145 1.428 1_554 S
C151 N150 1.351 . S
C151 C152 1.434 . S
C152 C143 1.429 . S
C152 N149 1.350 . S
C152 C151 1.434 . S
C153 C154 1.369 . S
C153 C155 1.419 . S
C153 H157 0.930 . S
C154 C153 1.369 . S
C154 C163 1.429 . S
C155 C153 1.419 . S
C155 C156 1.363 . S
C155 H158 0.929 . S
C156 C155 1.363 . S
C156 C162 1.428 . S
H157 C153 0.930 . S
H158 C155 0.929 . S
S159 N160 1.613 . S
S159 N161 1.610 . S
N160 S159 1.613 . S
N160 C163 1.350 . S
N161 S159 1.610 . S
N161 C162 1.351 . S
C162 C156 1.428 . S
C162 N161 1.351 . S
C162 C163 1.434 . S
C163 C154 1.429 . S
C163 N160 1.350 . S
C163 C162 1.434 . S
C164 C165 1.369 . S
C164 C166 1.419 . S
C164 H168 0.930 . S
C165 C164 1.369 . S
C165 C174 1.429 . S
C166 C164 1.419 . S
C166 C167 1.363 . S
C166 H169 0.929 . S
C167 C166 1.363 . S
C167 C173 1.428 . S
H168 C164 0.930 . S
H169 C166 0.929 . S
S170 N171 1.613 . S
S170 N172 1.610 . S
N171 S170 1.613 . S
N171 C174 1.350 . S
N172 S170 1.610 . S
N172 C173 1.351 . S
C173 C167 1.428 . S
C173 N172 1.351 . S
C173 C174 1.434 . S
C174 C165 1.429 . S
C174 N171 1.350 . S
C174 C173 1.434 . S
C175 C176 1.369 . S
C175 C177 1.419 . S
C175 H179 0.930 . S
C176 C175 1.369 . S
C176 C185 1.429 . S
C177 C175 1.419 . S
C177 C178 1.363 . S
C177 H180 0.929 . S
C178 C177 1.363 . S
C178 C184 1.428 . S
H179 C175 0.930 . S
H180 C177 0.929 . S
S181 N182 1.613 . S
S181 N183 1.610 . S
N182 S181 1.613 . S
N182 C185 1.350 . S
N183 S181 1.610 . S
N183 C184 1.351 . S
C184 C178 1.428 . S
C184 N183 1.351 . S
C184 C185 1.434 . S
C185 C176 1.429 . S
C185 N182 1.350 . S
C185 C184 1.434 . S
C186 C187 1.369 . S
C186 C188 1.419 1_565 S
C186 H190 0.930 . S
C187 C186 1.369 . S
C187 C196 1.429 1_556 S
C188 C186 1.419 1_545 S
C188 C189 1.363 1_556 S
C188 H191 0.929 . S
C189 C188 1.363 1_554 S
C189 C195 1.428 . S
H190 C186 0.930 . S
H191 C188 0.929 . S
S192 N193 1.613 . S
S192 N194 1.610 1_565 S
N193 S192 1.613 . S
N193 C196 1.350 . S
N194 S192 1.610 1_545 S
N194 C195 1.351 . S
C195 C189 1.428 . S
C195 N194 1.351 . S
C195 C196 1.434 1_545 S
C196 C187 1.429 1_554 S
C196 N193 1.350 . S
C196 C195 1.434 1_565 S
C197 C198 1.369 1_655 S
C197 C199 1.419 1_565 S
C197 H201 0.930 . S
C198 C197 1.369 1_455 S
C198 C207 1.429 . S
C199 C197 1.419 1_545 S
C199 C200 1.363 1_655 S
C199 H202 0.929 . S
C200 C199 1.363 1_455 S
C200 C206 1.428 . S
H201 C197 0.930 . S
H202 C199 0.929 . S
S203 N204 1.613 . S
S203 N205 1.610 . S
N204 S203 1.613 . S
N204 C207 1.350 1_545 S
N205 S203 1.610 . S
N205 C206 1.351 . S
C206 C200 1.428 . S
C206 N205 1.351 . S
C206 C207 1.434 1_545 S
C207 C198 1.429 . S
C207 N204 1.350 1_565 S
C207 C206 1.434 1_565 S
C208 C209 1.369 1_656 S
C208 C210 1.419 . S
C208 H212 0.930 . S
C209 C208 1.369 1_454 S
C209 C218 1.429 1_554 S
C210 C208 1.419 . S
C210 C211 1.363 1_655 S
C210 H213 0.929 . S
C211 C210 1.363 1_455 S
C211 C217 1.428 . S
H212 C208 0.930 . S
H213 C210 0.929 . S
S214 N215 1.609 1_556 S
S214 N216 1.610 . S
N215 S214 1.609 1_554 S
N215 C218 1.348 1_554 S
N216 S214 1.610 . S
N216 C217 1.351 . S
C217 C211 1.428 . S
C217 N216 1.351 . S
C217 C218 1.434 . S
C218 C209 1.429 1_556 S
C218 N215 1.348 1_556 S
C218 C217 1.434 . S
C219 C220 1.369 1_554 S
C219 C221 1.419 . S
C219 H223 0.930 . S
C220 C219 1.369 1_556 S
C220 C229 1.429 1_456 S
C221 C219 1.419 . S
C221 C222 1.363 . S
C221 H224 0.929 . S
C222 C221 1.363 . S
C222 C228 1.428 1_455 S
H223 C219 0.930 . S
H224 C221 0.929 . S
S225 N226 1.613 1_554 S
S225 N227 1.610 . S
N226 S225 1.613 1_556 S
N226 C229 1.350 1_556 S
N227 S225 1.610 . S
N227 C228 1.351 . S
C228 C222 1.428 1_655 S
C228 N227 1.351 . S
C228 C229 1.434 . S
C229 C220 1.429 1_654 S
C229 N226 1.350 1_554 S
C229 C228 1.434 . S
C230 C231 1.369 . S
C230 C232 1.419 . S
C230 H234 0.930 . S
C231 C230 1.369 . S
C231 C240 1.429 . S
C232 C230 1.419 . S
C232 C233 1.363 . S
C232 H235 0.929 . S
C233 C232 1.363 . S
C233 C239 1.428 . S
H234 C230 0.930 . S
H235 C232 0.929 . S
S236 N237 1.613 . S
S236 N238 1.610 . S
N237 S236 1.613 . S
N237 C240 1.350 . S
N238 S236 1.610 . S
N238 C239 1.351 . S
C239 C233 1.428 . S
C239 N238 1.351 . S
C239 C240 1.434 . S
C240 C231 1.429 . S
C240 N237 1.350 . S
C240 C239 1.434 . S
C241 C242 1.369 . S
C241 C243 1.419 . S
C241 H245 0.930 . S
C242 C241 1.369 . S
C242 C251 1.429 . S
C243 C241 1.419 . S
C243 C244 1.363 . S
C243 H246 0.929 . S
C244 C243 1.363 . S
C244 C250 1.428 . S
H245 C241 0.930 . S
H246 C243 0.929 . S
S247 N248 1.613 . S
S247 N249 1.610 . S
N248 S247 1.613 . S
N248 C251 1.350 . S
N249 S247 1.610 . S
N249 C250 1.351 . S
C250 C244 1.428 . S
C250 N249 1.351 . S
C250 C251 1.434 . S
C251 C242 1.429 . S
C251 N248 1.350 . S
C251 C250 1.434 . S
C121 N14 1.834 . S
C123 N36 1.829 1_455 S
C132 C76 1.772 . S
C134 C57 1.766 . S
C143 N104 1.599 . S
C145 N66 1.594 . S
C154 C27 1.708 . S
C156 C106 1.709 . S
C165 C117 1.770 . S
C167 C16 1.768 . S
C176 C87 1.705 . S
C178 C46 1.711 . S
C187 N74 1.832 . S
C189 N96 1.835 . S
C198 N44 1.602 . S
C200 N6 1.592 . S
C209 C10 1.061 . S
C211 C1 1.058 . S
C220 C31 1.059 . S
C222 C40 1.059 . S
C231 C61 1.061 . S
C233 C70 1.058 . S
C242 C91 1.058 . S
C244 C100 1.060 . S
