# Generated by pormake.
# Topology hex, (8)-cn, num edge types: 1
# Building blocks:
#     Node 0, Type 0, BuildingBlock: VETTIZ_charged_sbu_0, # of connection points: 8
#     Edge 1, Type (0, 0), None
#     Edge 2, Type (0, 0), None
#     Edge 3, Type (0, 0), None
#     Edge 4, Type (0, 0), None
# Relax obj value: 0.198
# Max RMSD: 0.293
# Mean RMSD: 0.293
data_MOF--net-hex--node1-VETTIZ_charged_sbu_0--edge1-none
_symmetry_space_group_name_H-M    P1
_symmetry_Int_Tables_number       1
_symmetry_cell_setting            triclinic
loop_
_symmetry_equiv_pos_as_xyz
'x, y, z'
_cell_length_a     8.2575829
_cell_length_b     8.8816911
_cell_length_c     9.5913849
_cell_angle_alpha  81.867442
_cell_angle_beta   90.469733
_cell_angle_gamma 137.37269
loop_
_atom_site_label
_atom_site_type_symbol
_atom_site_fract_x
_atom_site_fract_y
_atom_site_fract_z
_atom_type_partial_charge
Fe0 Fe 1.1068 0.87315 0.2163 0.0
O1 O 0.28298 0.15288 0.05402 0.0
Fe2 Fe 0.88243 1.06601 0.13723 0.0
Fe3 Fe 0.38165 0.19472 0.83093 0.0
O4 O 0.1771 0.13188 0.09957 0.0
O5 O 0.98121 1.10788 0.91414 0.0
O6 O 1.08697 1.12886 0.8686 0.0
Fe7 Fe 0.15732 0.38762 0.75185 0.0
C8 C 0.56993 0.13047 0.04352 0.0
O9 O 0.99941 0.68319 0.066 0.0
O10 O 0.21471 0.85559 0.85519 0.0
O11 O 0.82643 0.28559 0.81212 0.0
O12 O 0.75986 1.04132 0.95464 0.0
O13 O 0.64483 0.72331 0.14635 0.0
O14 O 0.84391 0.66857 0.07852 0.0
O15 O 0.31218 0.19332 0.61806 0.0
O16 O 1.04106 0.20089 0.59979 0.0
C17 C 0.68175 0.65554 0.05583 0.0
O18 O 0.26474 0.57759 0.90214 0.0
O19 O 1.04939 0.40516 0.11295 0.0
O20 O 0.4377 0.9752 0.15603 0.0
O21 O 0.50407 0.21925 0.01355 0.0
C22 C 0.14032 0.71922 0.97469 0.0
C23 C 0.15526 0.16577 0.55295 0.0
C24 C 0.5823 0.60512 0.91236 0.0
O25 O 0.61928 0.53741 0.82183 0.0
O26 O 0.42023 0.59221 0.88962 0.0
C27 C 0.69433 0.13041 0.92467 0.0
O28 O 0.95198 1.06748 0.35008 0.0
O29 O 0.22307 1.05986 0.36836 0.0
C30 C 1.12386 0.54159 -0.00654 0.0
C31 C 1.10891 1.09503 0.41519 0.0
loop_
_geom_bond_atom_site_label_1
_geom_bond_atom_site_label_2
_geom_bond_distance
_geom_bond_site_symmetry_2
_ccdc_geom_bond_type
Fe0 O1 1.886 1_554 S
Fe0 O4 1.715 1_455 S
Fe0 O9 2.077 1_455 S
Fe0 O14 1.935 1_455 S
Fe0 O20 2.077 . S
Fe0 O29 1.935 . S
O1 Fe0 1.886 1_556 S
O1 Fe3 1.715 1_565 S
Fe2 O4 1.886 . S
Fe2 O5 1.715 1_565 S
Fe2 O12 1.935 . S
Fe2 O13 2.077 . S
Fe2 O19 1.935 1_565 S
Fe2 O28 2.077 1_565 S
Fe3 O1 1.715 1_545 S
Fe3 O6 1.886 . S
Fe3 O10 1.935 1_545 S
Fe3 O15 2.077 1_545 S
Fe3 O21 1.935 . S
Fe3 O25 2.077 . S
O4 Fe0 1.715 1_655 S
O4 Fe2 1.886 . S
O5 Fe2 1.715 1_545 S
O5 Fe7 1.886 1_554 S
O6 Fe3 1.886 . S
O6 Fe7 1.715 1_455 S
Fe7 O5 1.886 1_556 S
Fe7 O6 1.715 1_655 S
Fe7 O11 2.077 . S
Fe7 O16 1.935 . S
Fe7 O18 2.077 1_655 S
Fe7 O26 1.935 1_655 S
C8 O20 1.381 . S
C8 O21 1.421 1_564 S
O9 Fe0 2.077 1_655 S
O9 C22 1.381 1_654 S
O10 Fe3 1.935 1_565 S
O10 C22 1.421 . S
O11 Fe7 2.077 . S
O11 C27 1.381 . S
O12 Fe2 1.935 . S
O12 C27 1.421 1_564 S
O13 Fe2 2.077 . S
O13 C17 1.381 . S
O14 Fe0 1.935 1_655 S
O14 C17 1.421 . S
O15 Fe3 2.077 1_565 S
O15 C23 1.381 1_565 S
O16 Fe7 1.935 . S
O16 C23 1.421 1_655 S
C17 O13 1.381 . S
C17 O14 1.421 . S
O18 Fe7 2.077 1_455 S
O18 C30 1.381 1_456 S
O19 Fe2 1.935 1_545 S
O19 C30 1.421 . S
O20 Fe0 2.077 . S
O20 C8 1.381 . S
O21 Fe3 1.935 . S
O21 C8 1.421 1_546 S
C22 O9 1.381 1_456 S
C22 O10 1.421 . S
C23 O15 1.381 1_545 S
C23 O16 1.421 1_455 S
C24 O25 1.381 . S
C24 O26 1.421 . S
O25 Fe3 2.077 . S
O25 C24 1.381 . S
O26 Fe7 1.935 1_455 S
O26 C24 1.421 . S
C27 O11 1.381 . S
C27 O12 1.421 1_546 S
O28 Fe2 2.077 1_545 S
O28 C31 1.381 1_545 S
O29 Fe0 1.935 . S
O29 C31 1.421 1_455 S
C30 O18 1.381 1_654 S
C30 O19 1.421 . S
C31 O28 1.381 1_565 S
C31 O29 1.421 1_655 S
C30 C22 2.807 1_654 S
C27 C8 2.539 1_546 S
C24 C17 3.626 1_556 S
C23 C31 1.506 1_445 S
