# Generated by pormake.
# Topology acs, (6)-cn, num edge types: 1
# Building blocks:
#     Node 0, Type 0, BuildingBlock: MIDCAF_clean_sbu_0, # of connection points: 6
#     Node 1, Type 0, BuildingBlock: MIDCAF_clean_sbu_0, # of connection points: 6
#     Edge 2, Type (0, 0), BuildingBlock: EYOCIG_clean_linker_4, # of connection points: 2
#     Edge 3, Type (0, 0), BuildingBlock: EYOCIG_clean_linker_4, # of connection points: 2
#     Edge 4, Type (0, 0), BuildingBlock: EYOCIG_clean_linker_4, # of connection points: 2
#     Edge 5, Type (0, 0), BuildingBlock: EYOCIG_clean_linker_4, # of connection points: 2
#     Edge 6, Type (0, 0), BuildingBlock: EYOCIG_clean_linker_4, # of connection points: 2
#     Edge 7, Type (0, 0), BuildingBlock: EYOCIG_clean_linker_4, # of connection points: 2
# Relax obj value: 0.200
# Max RMSD: 0.235
# Mean RMSD: 0.235
data_MOF--net-acs--node1-MIDCAF_clean_sbu_0--edge1-EYOCIG_clean_linker_4
_symmetry_space_group_name_H-M    P1
_symmetry_Int_Tables_number       1
_symmetry_cell_setting            triclinic
loop_
_symmetry_equiv_pos_as_xyz
'x, y, z'
_cell_length_a     20.390822
_cell_length_b     20.404272
_cell_length_c     9.5683511
_cell_angle_alpha  90.394879
_cell_angle_beta   89.138747
_cell_angle_gamma 120.3164
loop_
_atom_site_label
_atom_site_type_symbol
_atom_site_fract_x
_atom_site_fract_y
_atom_site_fract_z
_atom_type_partial_charge
Zn0 Zn 0.56312 0.28399 1.18541 0.0
Zn1 Zn 0.5417 0.23805 0.75739 0.0
Zn2 Zn 0.5523 0.2611 0.47135 0.0
C3 C 0.46321 0.31199 0.68796 0.0
C4 C 0.69443 0.32889 0.68403 0.0
O5 O 0.5031 0.15108 0.36358 0.0
O6 O 0.51491 0.17556 1.13559 0.0
C7 C 0.47597 0.34168 0.30183 0.0
O8 O 0.4854 0.30743 0.56353 0.0
O9 O 0.47944 0.28563 0.79206 0.0
O10 O 0.65207 0.29848 0.78938 0.0
O11 O 0.66694 0.3204 0.56059 0.0
O12 O 0.50157 0.33371 1.18621 0.0
O13 O 0.48945 0.31849 0.41676 0.0
O14 O 0.67219 0.33089 0.41379 0.0
O15 O 0.67493 0.34656 1.18365 0.0
C16 C 0.70877 0.3582 0.29825 0.0
O17 O 0.49726 0.13885 0.51005 0.0
O18 O 0.49199 0.12671 0.74125 0.0
C19 C 0.49371 0.12893 0.23534 0.0
C20 C 0.47895 0.09767 0.62088 0.0
Zn21 Zn 0.23355 0.61932 0.25729 0.0
Zn22 Zn 0.21037 0.57335 0.68547 0.0
Zn23 Zn 0.22157 0.59631 0.97133 0.0
C24 C 0.29609 0.72853 0.73517 0.0
C25 C 0.06446 0.51513 0.80027 0.0
O26 O 0.27653 0.53746 1.0619 0.0
O27 O 0.2833 0.55941 0.29059 0.0
C28 C 0.31169 0.75985 1.12072 0.0
O29 O 0.2829 0.70638 0.86345 0.0
O30 O 0.27109 0.68185 0.63551 0.0
O31 O 0.09855 0.52313 0.68511 0.0
O32 O 0.10095 0.53845 0.91553 0.0
O33 O 0.29555 0.73072 0.2411 0.0
O34 O 0.28899 0.71867 1.00991 0.0
O35 O 0.10761 0.54952 1.06227 0.0
O36 O 0.12307 0.5712 0.29085 0.0
C37 C 0.08049 0.54483 1.18645 0.0
O38 O 0.27172 0.52696 0.91511 0.0
O39 O 0.25949 0.51128 0.68491 0.0
C40 C 0.29524 0.52905 1.18561 0.0
C41 C 0.28125 0.49975 0.79999 0.0
C42 C 0.39004 0.908 1.12848 0.0
C43 C 0.35451 0.84056 1.11137 0.0
C44 C 0.42775 -0.01515 1.16692 0.0
C45 C 0.45761 0.05006 1.20265 0.0
C46 C 0.34967 0.42086 0.77857 0.0
C47 C 0.31911 0.45721 0.7986 0.0
C48 C 0.38726 0.38151 0.7423 0.0
C49 C 0.42199 0.35031 0.71206 0.0
C50 C 0.85685 0.43674 0.27555 0.0
C51 C 0.78958 0.40055 0.29579 0.0
C52 C -0.06578 0.47574 0.23956 0.0
C53 C 0.00052 0.50674 1.20984 0.0
C54 C 0.37275 0.87277 0.66665 0.0
C55 C 0.33803 0.80746 0.70233 0.0
C56 C 0.41078 -0.05034 0.62844 0.0
C57 C 0.44191 0.01706 0.61153 0.0
C58 C 0.35985 0.44885 0.23944 0.0
C59 C 0.33024 0.48461 1.20768 0.0
C60 C 0.39692 0.40973 0.27886 0.0
C61 C 0.43192 0.37814 0.3013 0.0
C62 C -0.08325 0.44753 0.77606 0.0
C63 C -0.01639 0.4789 0.7988 0.0
C64 C 0.84016 0.40878 0.73672 0.0
C65 C 0.77439 0.37319 0.70532 0.0
loop_
_geom_bond_atom_site_label_1
_geom_bond_atom_site_label_2
_geom_bond_distance
_geom_bond_site_symmetry_2
_ccdc_geom_bond_type
Zn0 O6 1.920 1_556 S
Zn0 O12 1.898 1_556 S
Zn0 O15 1.905 1_556 S
Zn1 O9 1.905 . S
Zn1 O10 1.898 . S
Zn1 O18 1.920 . S
Zn2 O5 2.080 . S
Zn2 O8 2.114 . S
Zn2 O11 2.120 . S
Zn2 O13 2.120 . S
Zn2 O14 2.114 . S
Zn2 O17 2.080 . S
C3 O8 1.166 . S
C3 O9 1.182 . S
C4 O10 1.167 . S
C4 O11 1.299 . S
O5 Zn2 2.080 . S
O5 C19 1.305 . S
O6 Zn0 1.920 1_554 S
O6 C19 1.234 . S
C7 O12 1.167 . S
C7 O13 1.299 . S
O8 Zn2 2.114 . S
O8 C3 1.166 . S
O9 Zn1 1.905 . S
O9 C3 1.182 . S
O10 Zn1 1.898 . S
O10 C4 1.167 . S
O11 Zn2 2.120 . S
O11 C4 1.299 . S
O12 Zn0 1.898 1_554 S
O12 C7 1.167 . S
O13 Zn2 2.120 . S
O13 C7 1.299 . S
O14 Zn2 2.114 . S
O14 C16 1.166 . S
O15 Zn0 1.905 1_554 S
O15 C16 1.182 . S
C16 O14 1.166 . S
C16 O15 1.182 . S
O17 Zn2 2.080 . S
O17 C20 1.305 . S
O18 Zn1 1.920 . S
O18 C20 1.234 . S
C19 O5 1.305 . S
C19 O6 1.234 . S
C20 O17 1.305 . S
C20 O18 1.234 . S
Zn21 O27 1.920 1_554 S
Zn21 O33 1.898 1_554 S
Zn21 O36 1.905 1_554 S
Zn22 O30 1.905 . S
Zn22 O31 1.898 . S
Zn22 O39 1.920 . S
Zn23 O26 2.080 . S
Zn23 O29 2.114 . S
Zn23 O32 2.120 . S
Zn23 O34 2.120 . S
Zn23 O35 2.114 . S
Zn23 O38 2.080 . S
C24 O29 1.166 . S
C24 O30 1.182 . S
C25 O31 1.167 . S
C25 O32 1.299 . S
O26 Zn23 2.080 . S
O26 C40 1.305 . S
O27 Zn21 1.920 1_556 S
O27 C40 1.234 . S
C28 O33 1.167 . S
C28 O34 1.299 . S
O29 Zn23 2.114 . S
O29 C24 1.166 . S
O30 Zn22 1.905 . S
O30 C24 1.182 . S
O31 Zn22 1.898 . S
O31 C25 1.167 . S
O32 Zn23 2.120 . S
O32 C25 1.299 . S
O33 Zn21 1.898 1_556 S
O33 C28 1.167 . S
O34 Zn23 2.120 . S
O34 C28 1.299 . S
O35 Zn23 2.114 . S
O35 C37 1.166 . S
O36 Zn21 1.905 1_556 S
O36 C37 1.182 . S
C37 O35 1.166 . S
C37 O36 1.182 . S
O38 Zn23 2.080 . S
O38 C41 1.305 . S
O39 Zn22 1.920 . S
O39 C41 1.234 . S
C40 O26 1.305 . S
C40 O27 1.234 . S
C41 O38 1.305 . S
C41 O39 1.234 . S
C42 C43 1.170 . S
C42 C44 1.380 1_566 S
C43 C42 1.170 . S
C44 C42 1.380 1_544 S
C44 C45 1.170 . S
C45 C44 1.170 . S
C46 C47 1.170 . S
C46 C48 1.380 . S
C47 C46 1.170 . S
C48 C46 1.380 . S
C48 C49 1.170 . S
C49 C48 1.170 . S
C50 C51 1.170 . S
C50 C52 1.380 1_654 S
C51 C50 1.170 . S
C52 C50 1.380 1_456 S
C52 C53 1.170 . S
C53 C52 1.170 . S
C54 C55 1.170 . S
C54 C56 1.380 1_565 S
C55 C54 1.170 . S
C56 C54 1.380 1_545 S
C56 C57 1.170 . S
C57 C56 1.170 . S
C58 C59 1.170 . S
C58 C60 1.380 1_556 S
C59 C58 1.170 . S
C60 C58 1.380 1_554 S
C60 C61 1.170 . S
C61 C60 1.170 . S
C62 C63 1.170 . S
C62 C64 1.380 1_455 S
C63 C62 1.170 . S
C64 C62 1.380 1_655 S
C64 C65 1.170 . S
C65 C64 1.170 . S
C43 C28 1.327 . S
C45 C19 1.301 . S
C47 C41 1.376 . S
C49 C3 1.333 . S
C51 C16 1.374 . S
C53 C37 1.394 . S
C55 C24 1.339 . S
C57 C20 1.381 . S
C59 C40 1.340 . S
C61 C7 1.355 . S
C63 C25 1.339 . S
C65 C4 1.284 . S
