# Generated by pormake.
# Topology kag, (6)-cn, num edge types: 1
# Building blocks:
#     Node 0, Type 0, BuildingBlock: BETFAJ_clean_sbu_0, # of connection points: 6
#     Node 1, Type 0, BuildingBlock: BETFAJ_clean_sbu_0, # of connection points: 6
#     Node 2, Type 0, BuildingBlock: BETFAJ_clean_sbu_0, # of connection points: 6
#     Edge 3, Type (0, 0), BuildingBlock: OJICUG_clean_linker_0, # of connection points: 2
#     Edge 4, Type (0, 0), BuildingBlock: OJICUG_clean_linker_0, # of connection points: 2
#     Edge 5, Type (0, 0), BuildingBlock: OJICUG_clean_linker_0, # of connection points: 2
#     Edge 6, Type (0, 0), BuildingBlock: OJICUG_clean_linker_0, # of connection points: 2
#     Edge 7, Type (0, 0), BuildingBlock: OJICUG_clean_linker_0, # of connection points: 2
#     Edge 8, Type (0, 0), BuildingBlock: OJICUG_clean_linker_0, # of connection points: 2
#     Edge 9, Type (0, 0), BuildingBlock: OJICUG_clean_linker_0, # of connection points: 2
#     Edge 10, Type (0, 0), BuildingBlock: OJICUG_clean_linker_0, # of connection points: 2
#     Edge 11, Type (0, 0), BuildingBlock: OJICUG_clean_linker_0, # of connection points: 2
# Relax obj value: 0.120
# Max RMSD: 0.241
# Mean RMSD: 0.124
data_MOF--net-kag--node1-BETFAJ_clean_sbu_0--edge1-OJICUG_clean_linker_0
_symmetry_space_group_name_H-M    P1
_symmetry_Int_Tables_number       1
_symmetry_cell_setting            triclinic
loop_
_symmetry_equiv_pos_as_xyz
'x, y, z'
_cell_length_a     23.55585
_cell_length_b     34.510061
_cell_length_c     10.753516
_cell_angle_alpha  94.970755
_cell_angle_beta   91.874397
_cell_angle_gamma 92.174943
loop_
_atom_site_label
_atom_site_type_symbol
_atom_site_fract_x
_atom_site_fract_y
_atom_site_fract_z
_atom_type_partial_charge
Sm0 Sm 1.06579 0.46406 0.99996 0.0
Sm1 Sm 0.07128 0.55927 0.00226 0.0
C2 C 1.05633 0.39317 0.07461 0.0
C3 C 1.02265 0.35614 0.0501 0.0
C4 C 0.98848 0.34337 0.14418 0.0
C5 C 0.95783 0.3078 0.1263 0.0
C6 C 0.96098 0.28396 0.0141 0.0
C7 C 0.99471 0.29697 0.91914 0.0
C8 C 1.02531 0.33271 0.93695 0.0
C9 C 1.06073 0.48731 0.75592 0.0
C10 C 0.94446 0.5113 0.99016 0.0
C11 C 0.0806 0.63015 0.92748 0.0
C12 C 0.11415 0.66723 0.95189 0.0
C13 C 0.14768 0.68027 0.85716 0.0
C14 C 0.17825 0.71587 0.875 0.0
C15 C 0.17564 0.73947 0.98782 0.0
C16 C 0.14254 0.7262 0.08339 0.0
C17 C 0.11203 0.69042 0.06563 0.0
C18 C 0.0764 0.53604 0.24631 0.0
C19 C 0.1926 0.51202 0.01211 0.0
O20 O 1.02965 0.4228 0.12578 0.0
O21 O 0.09237 0.40286 0.99092 0.0
O22 O 1.06303 0.50809 0.85896 0.0
O23 O 1.05946 0.4511 0.78155 0.0
O24 O 0.96996 0.47837 0.00794 0.0
O25 O 0.9738 0.54417 0.97383 0.0
O26 O 0.10739 0.60056 0.87646 0.0
O27 O 1.04457 0.62044 0.01115 0.0
O28 O 0.07391 0.51524 0.1433 0.0
O29 O 0.07776 0.57225 0.22065 0.0
O30 O 0.1671 0.54495 0.99418 0.0
O31 O 0.16326 0.47917 0.02856 0.0
H32 H 0.98577 0.36084 0.23235 0.0
H33 H 0.93154 0.29901 0.20055 0.0
H34 H 0.99851 0.27913 0.8321 0.0
H35 H 1.05145 0.3417 0.86274 0.0
H36 H 0.14997 0.66296 0.76856 0.0
H37 H 0.20406 0.72485 0.80024 0.0
H38 H 0.13917 0.74385 0.17095 0.0
H39 H 0.08641 0.68121 0.14036 0.0
Sm40 Sm 0.63016 0.01199 0.99532 0.0
Sm41 Sm 0.50678 1.01128 0.00622 0.0
C42 C 0.73801 0.02732 0.94788 0.0
C43 C 0.77323 0.06339 0.94396 0.0
C44 C 0.75212 0.09555 0.88828 0.0
C45 C 0.78407 0.13066 0.89439 0.0
C46 C 0.83777 0.13432 0.9563 0.0
C47 C 0.8593 0.10175 0.00935 0.0
C48 C 0.82727 0.06665 0.00328 0.0
C49 C 0.59287 1.00722 0.23542 0.0
C50 C 0.56574 0.09642 0.01804 0.0
C51 C 0.39885 0.99601 0.05321 0.0
C52 C 0.36358 0.95998 0.05742 0.0
C53 C 0.38482 0.92775 0.11243 0.0
C54 C 0.35281 0.89266 0.10651 0.0
C55 C 0.2989 0.88911 0.04551 0.0
C56 C 0.27724 0.92177 0.9932 0.0
C57 C 0.30934 0.95684 0.99902 0.0
C58 C 0.54431 0.01612 0.7665 0.0
C59 C 0.57122 0.92685 0.98375 0.0
O60 O 0.69808 0.02025 0.86065 0.0
O61 O 0.72115 0.01982 0.05804 0.0
O62 O 0.57357 0.02948 0.15776 0.0
O63 O 0.6331 0.98677 0.1872 0.0
O64 O 0.61046 0.0772 0.98009 0.0
O65 O 0.51983 0.07736 0.05076 0.0
O66 O 0.43869 1.00316 0.1406 0.0
O67 O 0.41586 1.00335 0.94301 0.0
O68 O 0.56337 0.99371 0.84401 0.0
O69 O 0.50415 0.03665 0.81465 0.0
O70 O 0.5265 0.94607 0.02168 0.0
O71 O 0.61713 0.9459 0.95095 0.0
H72 H 0.71043 0.09384 0.84218 0.0
H73 H 0.76593 0.15527 0.85388 0.0
H74 H 0.90084 0.10344 0.0562 0.0
H75 H 0.84431 0.0422 0.04685 0.0
H76 H 0.42665 0.92939 0.15787 0.0
H77 H 0.37107 0.86799 0.14645 0.0
H78 H 0.23554 0.92017 0.94709 0.0
H79 H 0.29221 0.98135 0.95598 0.0
Sm80 Sm 0.57248 0.55525 0.00996 0.0
Sm81 Sm 0.56458 0.46804 0.99225 0.0
C82 C 0.56862 0.63153 0.99219 0.0
C83 C 0.56598 0.67447 0.9853 0.0
C84 C 0.58269 0.69204 0.87826 0.0
C85 C 0.58295 0.73272 0.87514 0.0
C86 C 0.56591 0.75692 0.97853 0.0
C87 C 0.54845 0.73914 0.08479 0.0
C88 C 0.54875 0.69858 0.08832 0.0
C89 C 0.5823 0.52493 0.23954 0.0
C90 C 0.44353 0.51053 0.00158 0.0
C91 C 0.56839 0.39175 0.00971 0.0
C92 C 0.57099 0.3488 0.0165 0.0
C93 C 0.55441 0.33123 0.12363 0.0
C94 C 0.55415 0.29054 0.12673 0.0
C95 C 0.57105 0.26635 0.02322 0.0
C96 C 0.58838 0.28412 0.91685 0.0
C97 C 0.58808 0.32469 0.91335 0.0
C98 C 0.55469 0.49857 0.76283 0.0
C99 C 0.69353 0.51277 0.00081 0.0
O100 O 0.57258 0.60658 0.89424 0.0
O101 O 0.5657 0.61573 0.09793 0.0
O102 O 0.5471 0.51276 0.15196 0.0
O103 O 0.61413 0.55346 0.20612 0.0
O104 O 0.47389 0.54235 0.97971 0.0
O105 O 0.4693 0.47821 0.02283 0.0
O106 O 0.56454 0.41667 0.10775 0.0
O107 O 0.57122 0.40758 0.90401 0.0
O108 O 0.59006 0.51049 0.8503 0.0
O109 O 0.52275 0.47008 0.79622 0.0
O110 O 0.66317 0.48093 0.02252 0.0
O111 O 0.66777 0.5451 0.97964 0.0
H112 H 0.5964 0.67437 0.7974 0.0
H113 H 0.59614 0.74522 0.79122 0.0
H114 H 0.53564 0.75668 0.16674 0.0
H115 H 0.53577 0.68611 0.17248 0.0
H116 H 0.54082 0.34889 0.2046 0.0
H117 H 0.54106 0.27804 0.21072 0.0
H118 H 0.60109 0.26658 0.83481 0.0
H119 H 0.60097 0.33715 0.82912 0.0
C120 C 0.06954 0.47248 0.52261 0.0
C121 C 1.06442 0.50023 0.62591 0.0
H122 H 0.07823 0.46157 0.32389 0.0
C123 C 1.06345 0.53963 0.60228 0.0
H124 H 0.07063 0.44181 0.53655 0.0
C125 C 1.0677 0.55089 0.47965 0.0
C126 C 0.07281 0.52314 0.37635 0.0
H127 H 1.05898 0.5618 0.67836 0.0
H128 H 1.06661 0.58156 0.4657 0.0
C129 C 0.07379 0.48374 0.39998 0.0
C130 C 0.608 0.98578 0.45214 0.0
C131 C 0.57991 1.00939 0.37105 0.0
H132 H 0.61924 0.96943 0.6397 0.0
C133 C 0.54033 0.0353 0.42165 0.0
H134 H 0.63879 0.9655 0.41657 0.0
C135 C 0.52923 0.03757 0.54979 0.0
C136 C 0.5573 0.01396 0.63088 0.0
H137 H 0.51797 0.05392 0.36224 0.0
H138 H 0.49843 0.05786 0.58535 0.0
C139 C 0.59689 0.98805 0.58028 0.0
C140 C 0.52551 0.48616 0.53495 0.0
C141 C 0.56107 0.50612 0.62934 0.0
H142 H 0.50458 0.47599 0.33843 0.0
C143 C 0.60413 0.53182 0.59393 0.0
H144 H 0.49202 0.46603 0.55875 0.0
C145 C 0.61148 0.53735 0.46743 0.0
C146 C 0.57593 0.51739 0.37304 0.0
H147 H 0.63242 0.54751 0.66397 0.0
H148 H 0.64497 0.55749 0.44362 0.0
C149 C 0.53287 0.49169 0.40845 0.0
C150 C 0.28993 0.54551 0.98965 0.0
C151 C 0.25698 0.51186 0.0115 0.0
H152 H 0.37314 0.57169 0.96897 0.0
C153 C 0.28647 0.47786 0.02993 0.0
H154 H 0.26943 0.57236 0.97461 0.0
C155 C 0.34635 0.4775 0.02653 0.0
C156 C 0.37927 0.5111 0.0043 0.0
H157 H 0.26327 0.45124 0.04678 0.0
H158 H 0.36684 0.45063 0.04129 0.0
C159 C 0.34985 0.54513 0.98609 0.0
C160 C 0.87251 0.19603 0.86956 0.0
C161 C 0.87029 0.17231 0.96941 0.0
H162 H 0.90247 0.24994 0.80539 0.0
C163 C 0.89847 0.18549 0.0833 0.0
H164 H 0.8516 0.1866 0.78029 0.0
C165 C 0.928 0.22153 0.09728 0.0
C166 C 0.93003 0.24539 0.99781 0.0
H167 H 0.897 0.1682 0.16261 0.0
H168 H 0.9496 0.23059 0.18609 0.0
C169 C 0.90214 0.23215 0.88354 0.0
C170 C 0.61375 0.86157 0.92765 0.0
C171 C 0.56962 0.88333 0.97989 0.0
H172 H 0.64731 0.80509 0.88601 0.0
C173 C 0.52387 0.86297 0.02943 0.0
H174 H 0.64968 0.87608 0.88843 0.0
C175 C 0.52257 0.82224 0.02831 0.0
C176 C 0.56677 0.80044 0.97667 0.0
H177 H 0.48902 0.8785 0.07025 0.0
H178 H 0.48652 0.80777 0.06724 0.0
C179 C 0.61221 0.82073 0.92554 0.0
C180 C 0.84714 0.47779 0.01253 0.0
C181 C 0.88008 0.51146 0.99081 0.0
H182 H 0.76394 0.45159 0.03314 0.0
C183 C 0.85059 0.54547 0.97255 0.0
H184 H 0.86765 0.45094 0.02743 0.0
C185 C 0.79071 0.54582 0.976 0.0
C186 C 0.75779 0.51221 0.99809 0.0
H187 H 0.87378 0.5721 0.95581 0.0
H188 H 0.77021 0.5727 0.96136 0.0
C189 C 0.78722 0.47816 0.01613 0.0
C190 C 0.20802 0.80212 0.90515 0.0
C191 C 0.20654 0.77807 0.00417 0.0
H192 H 0.23863 0.85558 0.84007 0.0
C193 C 0.23496 0.79112 0.11799 0.0
H194 H 0.186 0.79322 0.81671 0.0
C195 C 0.26459 0.82724 0.13195 0.0
C196 C 0.26631 0.85115 0.03252 0.0
H197 H 0.23506 0.77318 0.19578 0.0
H198 H 0.28592 0.83652 0.22088 0.0
C199 C 0.23757 0.83816 0.91909 0.0
C200 C 0.52481 0.20254 0.07643 0.0
C201 C 0.57019 0.22282 0.02508 0.0
H202 H 0.48738 0.1472 0.11373 0.0
C203 C 0.61435 0.20102 0.97324 0.0
H204 H 0.48975 0.21819 0.11613 0.0
C205 C 0.61306 0.16028 0.97216 0.0
C206 C 0.56735 0.13994 0.02192 0.0
H207 H 0.65036 0.21548 0.93414 0.0
H208 H 0.64786 0.14475 0.93117 0.0
C209 C 0.52327 0.1617 0.07434 0.0
loop_
_geom_bond_atom_site_label_1
_geom_bond_atom_site_label_2
_geom_bond_distance
_geom_bond_site_symmetry_2
_ccdc_geom_bond_type
Sm0 C2 2.846 . S
Sm0 O20 2.543 1_556 S
Sm0 O21 2.450 . S
Sm0 O22 2.681 1_655 S
Sm0 O23 2.464 . S
Sm0 O24 2.396 . S
Sm0 O28 2.386 1_556 S
Sm0 O31 2.408 1_655 S
Sm1 C11 2.846 . S
Sm1 O22 2.386 1_554 S
Sm1 O25 2.408 1_455 S
Sm1 O26 2.543 1_554 S
Sm1 O27 2.450 . S
Sm1 O28 2.681 1_455 S
Sm1 O29 2.464 . S
Sm1 O30 2.396 . S
C2 Sm0 2.846 . S
C2 C3 1.506 . S
C2 O20 1.261 1_556 S
C2 O21 1.242 . S
C3 C2 1.506 . S
C3 C4 1.358 1_556 S
C3 C8 1.382 . S
C4 C3 1.358 1_554 S
C4 C5 1.385 . S
C4 H32 0.930 . S
C5 C4 1.385 . S
C5 C6 1.395 1_554 S
C5 H33 0.929 . S
C6 C5 1.395 1_556 S
C6 C7 1.335 . S
C7 C6 1.335 . S
C7 C8 1.398 . S
C7 H34 0.930 . S
C8 C3 1.382 . S
C8 C7 1.398 . S
C8 H35 0.929 . S
C9 O22 1.271 . S
C9 O23 1.251 1_455 S
C10 O24 1.252 . S
C10 O25 1.272 1_556 S
C11 Sm1 2.846 . S
C11 C12 1.506 . S
C11 O26 1.261 1_554 S
C11 O27 1.242 . S
C12 C11 1.506 . S
C12 C13 1.358 1_554 S
C12 C17 1.382 . S
C13 C12 1.358 1_556 S
C13 C14 1.385 . S
C13 H36 0.930 . S
C14 C13 1.385 . S
C14 C15 1.395 1_556 S
C14 H37 0.929 . S
C15 C14 1.395 1_554 S
C15 C16 1.335 . S
C16 C15 1.335 . S
C16 C17 1.398 . S
C16 H38 0.930 . S
C17 C12 1.382 . S
C17 C16 1.398 . S
C17 H39 0.929 . S
C18 O28 1.273 . S
C18 O29 1.250 1_655 S
C19 O30 1.252 . S
C19 O31 1.272 1_554 S
O20 Sm0 2.543 1_554 S
O20 C2 1.261 1_554 S
O21 Sm0 2.450 . S
O21 C2 1.242 . S
O22 Sm0 2.681 1_455 S
O22 Sm1 2.386 1_556 S
O22 C9 1.271 . S
O23 Sm0 2.464 . S
O23 C9 1.251 1_655 S
O24 Sm0 2.396 . S
O24 C10 1.252 . S
O25 Sm1 2.408 1_655 S
O25 C10 1.272 1_554 S
O26 Sm1 2.543 1_556 S
O26 C11 1.261 1_556 S
O27 Sm1 2.450 . S
O27 C11 1.242 . S
O28 Sm0 2.386 1_554 S
O28 Sm1 2.681 1_655 S
O28 C18 1.273 . S
O29 Sm1 2.464 . S
O29 C18 1.250 1_455 S
O30 Sm1 2.396 . S
O30 C19 1.252 . S
O31 Sm0 2.408 1_455 S
O31 C19 1.272 1_556 S
H32 C4 0.930 . S
H33 C5 0.929 . S
H34 C7 0.930 . S
H35 C8 0.929 . S
H36 C13 0.930 . S
H37 C14 0.929 . S
H38 C16 0.930 . S
H39 C17 0.929 . S
Sm40 C42 2.846 . S
Sm40 O60 2.543 1_554 S
Sm40 O61 2.450 . S
Sm40 O62 2.681 1_545 S
Sm40 O63 2.464 . S
Sm40 O64 2.396 . S
Sm40 O68 2.386 1_554 S
Sm40 O71 2.408 1_545 S
Sm41 C51 2.846 . S
Sm41 O62 2.386 1_556 S
Sm41 O65 2.408 1_565 S
Sm41 O66 2.543 1_556 S
Sm41 O67 2.450 . S
Sm41 O68 2.681 1_565 S
Sm41 O69 2.464 . S
Sm41 O70 2.396 . S
C42 Sm40 2.846 . S
C42 C43 1.506 1_554 S
C42 O60 1.261 1_554 S
C42 O61 1.242 . S
C43 C42 1.506 1_556 S
C43 C44 1.358 . S
C43 C48 1.382 1_556 S
C44 C43 1.358 . S
C44 C45 1.385 . S
C44 H72 0.930 . S
C45 C44 1.385 . S
C45 C46 1.395 . S
C45 H73 0.929 . S
C46 C45 1.395 . S
C46 C47 1.335 1_556 S
C47 C46 1.335 1_554 S
C47 C48 1.398 . S
C47 H74 0.930 . S
C48 C43 1.382 1_554 S
C48 C47 1.398 . S
C48 H75 0.929 . S
C49 O62 1.271 1_545 S
C49 O63 1.251 . S
C50 O64 1.252 . S
C50 O65 1.272 1_554 S
C51 Sm41 2.846 . S
C51 C52 1.506 1_556 S
C51 O66 1.261 1_556 S
C51 O67 1.242 . S
C52 C51 1.506 1_554 S
C52 C53 1.358 . S
C52 C57 1.382 1_554 S
C53 C52 1.358 . S
C53 C54 1.385 . S
C53 H76 0.930 . S
C54 C53 1.385 . S
C54 C55 1.395 . S
C54 H77 0.929 . S
C55 C54 1.395 . S
C55 C56 1.335 1_554 S
C56 C55 1.335 1_556 S
C56 C57 1.398 . S
C56 H78 0.930 . S
C57 C52 1.382 1_556 S
C57 C56 1.398 . S
C57 H79 0.929 . S
C58 O68 1.271 1_565 S
C58 O69 1.251 . S
C59 O70 1.252 . S
C59 O71 1.272 1_556 S
O60 Sm40 2.543 1_556 S
O60 C42 1.261 1_556 S
O61 Sm40 2.450 . S
O61 C42 1.242 . S
O62 Sm40 2.681 1_565 S
O62 Sm41 2.386 1_554 S
O62 C49 1.271 1_565 S
O63 Sm40 2.464 . S
O63 C49 1.251 . S
O64 Sm40 2.396 . S
O64 C50 1.252 . S
O65 Sm41 2.408 1_545 S
O65 C50 1.272 1_556 S
O66 Sm41 2.543 1_554 S
O66 C51 1.261 1_554 S
O67 Sm41 2.450 . S
O67 C51 1.242 . S
O68 Sm40 2.386 1_556 S
O68 Sm41 2.681 1_545 S
O68 C58 1.271 1_545 S
O69 Sm41 2.464 . S
O69 C58 1.251 . S
O70 Sm41 2.396 . S
O70 C59 1.252 . S
O71 Sm40 2.408 1_565 S
O71 C59 1.272 1_554 S
H72 C44 0.930 . S
H73 C45 0.929 . S
H74 C47 0.930 . S
H75 C48 0.929 . S
H76 C53 0.930 . S
H77 C54 0.929 . S
H78 C56 0.930 . S
H79 C57 0.929 . S
Sm80 C82 2.846 . S
Sm80 O100 2.543 1_554 S
Sm80 O101 2.450 . S
Sm80 O102 2.681 . S
Sm80 O103 2.464 . S
Sm80 O104 2.396 . S
Sm80 O108 2.386 1_554 S
Sm80 O111 2.408 . S
Sm81 C91 2.846 . S
Sm81 O102 2.386 1_556 S
Sm81 O105 2.408 . S
Sm81 O106 2.543 1_556 S
Sm81 O107 2.450 . S
Sm81 O108 2.681 . S
Sm81 O109 2.464 . S
Sm81 O110 2.396 . S
C82 Sm80 2.846 . S
C82 C83 1.506 . S
C82 O100 1.261 1_554 S
C82 O101 1.242 . S
C83 C82 1.506 . S
C83 C84 1.358 1_554 S
C83 C88 1.382 . S
C84 C83 1.358 1_556 S
C84 C85 1.385 . S
C84 H112 0.930 . S
C85 C84 1.385 . S
C85 C86 1.395 1_556 S
C85 H113 0.929 . S
C86 C85 1.395 1_554 S
C86 C87 1.335 . S
C87 C86 1.335 . S
C87 C88 1.398 . S
C87 H114 0.930 . S
C88 C83 1.382 . S
C88 C87 1.398 . S
C88 H115 0.929 . S
C89 O102 1.271 . S
C89 O103 1.251 . S
C90 O104 1.252 . S
C90 O105 1.272 1_554 S
C91 Sm81 2.846 . S
C91 C92 1.506 . S
C91 O106 1.261 1_556 S
C91 O107 1.242 . S
C92 C91 1.506 . S
C92 C93 1.358 1_556 S
C92 C97 1.382 . S
C93 C92 1.358 1_554 S
C93 C94 1.385 . S
C93 H116 0.930 . S
C94 C93 1.385 . S
C94 C95 1.389 1_554 S
C94 H117 0.929 . S
C95 C94 1.389 1_556 S
C95 C96 1.342 . S
C96 C95 1.342 . S
C96 C97 1.398 . S
C96 H118 0.930 . S
C97 C92 1.382 . S
C97 C96 1.398 . S
C97 H119 0.929 . S
C98 O108 1.271 . S
C98 O109 1.251 . S
C99 O110 1.252 . S
C99 O111 1.272 1_556 S
O100 Sm80 2.543 1_556 S
O100 C82 1.261 1_556 S
O101 Sm80 2.450 . S
O101 C82 1.242 . S
O102 Sm80 2.681 . S
O102 Sm81 2.386 1_554 S
O102 C89 1.271 . S
O103 Sm80 2.464 . S
O103 C89 1.251 . S
O104 Sm80 2.396 . S
O104 C90 1.252 . S
O105 Sm81 2.408 . S
O105 C90 1.272 1_556 S
O106 Sm81 2.543 1_554 S
O106 C91 1.261 1_554 S
O107 Sm81 2.450 . S
O107 C91 1.242 . S
O108 Sm80 2.386 1_556 S
O108 Sm81 2.681 . S
O108 C98 1.271 . S
O109 Sm81 2.464 . S
O109 C98 1.251 . S
O110 Sm81 2.396 . S
O110 C99 1.252 . S
O111 Sm80 2.408 . S
O111 C99 1.272 1_554 S
H112 C84 0.930 . S
H113 C85 0.929 . S
H114 C87 0.930 . S
H115 C88 0.929 . S
H116 C93 0.930 . S
H117 C94 0.929 . S
H118 C96 0.930 . S
H119 C97 0.929 . S
C120 C121 1.387 . S
C120 H124 0.950 . S
C120 C129 1.390 . S
C121 C120 1.387 . S
C121 C123 1.387 1_455 S
H122 C129 0.950 . S
C123 C121 1.387 1_655 S
C123 C125 1.390 . S
C123 H127 0.950 . S
H124 C120 0.950 . S
C125 C123 1.390 . S
C125 C126 1.407 . S
C125 H128 0.950 . S
C126 C125 1.407 . S
C126 C129 1.367 1_655 S
H127 C123 0.950 . S
H128 C125 0.950 . S
C129 C120 1.390 . S
C129 H122 0.950 . S
C129 C126 1.367 1_455 S
C130 C131 1.384 1_565 S
C130 H134 0.950 . S
C130 C139 1.390 . S
C131 C130 1.384 1_545 S
C131 C133 1.390 . S
H132 C139 0.950 . S
C133 C131 1.390 . S
C133 C135 1.390 . S
C133 H137 0.950 . S
H134 C130 0.950 . S
C135 C133 1.390 . S
C135 C136 1.387 1_545 S
C135 H138 0.950 . S
C136 C135 1.387 1_565 S
C136 C139 1.388 . S
H137 C133 0.950 . S
H138 C135 0.950 . S
C139 C130 1.390 . S
C139 H132 0.950 . S
C139 C136 1.388 . S
C140 C141 1.387 . S
C140 H144 0.950 . S
C140 C149 1.390 . S
C141 C140 1.387 . S
C141 C143 1.387 . S
H142 C149 0.950 . S
C143 C141 1.387 . S
C143 C145 1.390 . S
C143 H147 0.950 . S
H144 C140 0.950 . S
C145 C143 1.390 . S
C145 C146 1.387 . S
C145 H148 0.950 . S
C146 C145 1.387 . S
C146 C149 1.387 . S
H147 C143 0.950 . S
H148 C145 0.950 . S
C149 C140 1.390 . S
C149 H142 0.950 . S
C149 C146 1.387 . S
C150 C151 1.387 . S
C150 H154 0.950 . S
C150 C159 1.390 . S
C151 C150 1.387 . S
C151 C153 1.387 1_556 S
H152 C159 0.950 . S
C153 C151 1.387 1_554 S
C153 C155 1.390 . S
C153 H157 0.950 . S
H154 C150 0.950 . S
C155 C153 1.390 . S
C155 C156 1.387 1_554 S
C155 H158 0.950 . S
C156 C155 1.387 1_556 S
C156 C159 1.387 . S
H157 C153 0.950 . S
H158 C155 0.950 . S
C159 C150 1.390 . S
C159 H152 0.950 . S
C159 C156 1.387 . S
C160 C161 1.387 . S
C160 H164 0.950 . S
C160 C169 1.390 . S
C161 C160 1.387 . S
C161 C163 1.387 1_556 S
H162 C169 0.950 . S
C163 C161 1.387 1_554 S
C163 C165 1.390 . S
C163 H167 0.950 . S
H164 C160 0.950 . S
C165 C163 1.390 . S
C165 C166 1.387 1_554 S
C165 H168 0.950 . S
C166 C165 1.387 1_556 S
C166 C169 1.387 . S
H167 C163 0.950 . S
H168 C165 0.950 . S
C169 C160 1.390 . S
C169 H162 0.950 . S
C169 C166 1.387 . S
C170 C171 1.387 . S
C170 H174 0.950 . S
C170 C179 1.390 . S
C171 C170 1.387 . S
C171 C173 1.387 1_556 S
H172 C179 0.950 . S
C173 C171 1.387 1_554 S
C173 C175 1.390 . S
C173 H177 0.950 . S
H174 C170 0.950 . S
C175 C173 1.390 . S
C175 C176 1.387 1_554 S
C175 H178 0.950 . S
C176 C175 1.387 1_556 S
C176 C179 1.387 . S
H177 C173 0.950 . S
H178 C175 0.950 . S
C179 C170 1.390 . S
C179 H172 0.950 . S
C179 C176 1.387 . S
C180 C181 1.387 1_556 S
C180 H184 0.950 . S
C180 C189 1.390 . S
C181 C180 1.387 1_554 S
C181 C183 1.387 . S
H182 C189 0.950 . S
C183 C181 1.387 . S
C183 C185 1.390 . S
C183 H187 0.950 . S
H184 C180 0.950 . S
C185 C183 1.390 . S
C185 C186 1.387 . S
C185 H188 0.950 . S
C186 C185 1.387 . S
C186 C189 1.387 1_554 S
H187 C183 0.950 . S
H188 C185 0.950 . S
C189 C180 1.390 . S
C189 H182 0.950 . S
C189 C186 1.387 1_556 S
C190 C191 1.387 1_556 S
C190 H194 0.950 . S
C190 C199 1.390 . S
C191 C190 1.387 1_554 S
C191 C193 1.387 . S
H192 C199 0.950 . S
C193 C191 1.387 . S
C193 C195 1.390 . S
C193 H197 0.950 . S
H194 C190 0.950 . S
C195 C193 1.390 . S
C195 C196 1.387 . S
C195 H198 0.950 . S
C196 C195 1.387 . S
C196 C199 1.387 1_554 S
H197 C193 0.950 . S
H198 C195 0.950 . S
C199 C190 1.390 . S
C199 H192 0.950 . S
C199 C196 1.387 1_556 S
C200 C201 1.387 . S
C200 H204 0.950 . S
C200 C209 1.390 . S
C201 C200 1.387 . S
C201 C203 1.387 1_554 S
H202 C209 0.950 . S
C203 C201 1.387 1_556 S
C203 C205 1.390 . S
C203 H207 0.950 . S
H204 C200 0.950 . S
C205 C203 1.390 . S
C205 C206 1.387 1_556 S
C205 H208 0.950 . S
C206 C205 1.387 1_554 S
C206 C209 1.387 . S
H207 C203 0.950 . S
H208 C205 0.950 . S
C209 C200 1.390 . S
C209 H202 0.950 . S
C209 C206 1.387 . S
C121 C9 1.457 . S
C126 C18 1.457 . S
C131 C49 1.453 . S
C136 C58 1.452 . S
C141 C98 1.457 . S
C146 C89 1.457 . S
C151 C19 2.660 1_556 S
C156 C90 2.581 1_556 S
C161 C46 0.969 . S
C166 C6 0.968 . S
C171 C59 2.316 . S
C176 C86 2.211 1_556 S
C181 C10 2.660 1_554 S
C186 C99 2.581 1_554 S
C191 C15 0.970 . S
C196 C55 0.970 . S
C201 C95 2.210 1_554 S
C206 C50 2.315 . S
