# Generated by pormake.
# Topology kag, (6)-cn, num edge types: 1
# Building blocks:
#     Node 0, Type 0, BuildingBlock: BETFEN_clean_sbu_0, # of connection points: 6
#     Node 1, Type 0, BuildingBlock: BETFEN_clean_sbu_0, # of connection points: 6
#     Node 2, Type 0, BuildingBlock: BETFEN_clean_sbu_0, # of connection points: 6
#     Edge 3, Type (0, 0), None
#     Edge 4, Type (0, 0), None
#     Edge 5, Type (0, 0), None
#     Edge 6, Type (0, 0), None
#     Edge 7, Type (0, 0), None
#     Edge 8, Type (0, 0), None
#     Edge 9, Type (0, 0), None
#     Edge 10, Type (0, 0), None
#     Edge 11, Type (0, 0), None
# Relax obj value: 0.230
# Max RMSD: 0.318
# Mean RMSD: 0.172
data_MOF--net-kag--node1-BETFEN_clean_sbu_0--edge1-none
_symmetry_space_group_name_H-M    P1
_symmetry_Int_Tables_number       1
_symmetry_cell_setting            triclinic
loop_
_symmetry_equiv_pos_as_xyz
'x, y, z'
_cell_length_a     14.537925
_cell_length_b     26.127093
_cell_length_c     6.2896832
_cell_angle_alpha  95.159174
_cell_angle_beta   92.42946
_cell_angle_gamma 82.188916
loop_
_atom_site_label
_atom_site_type_symbol
_atom_site_fract_x
_atom_site_fract_y
_atom_site_fract_z
_atom_type_partial_charge
Pr0 Pr 0.15168 0.45677 0.99059 0.0
Pr1 Pr 1.11014 0.57499 0.04759 0.0
C2 C 0.17458 0.35354 0.02433 0.0
C3 C 0.13104 0.30522 1.00482 0.0
C4 C 0.13994 0.27154 0.81727 0.0
C5 C 1.10792 0.22325 0.80674 0.0
C6 C 1.06717 0.20737 0.98428 0.0
C7 C 1.05685 0.24141 0.1705 0.0
C8 C 1.08863 0.28971 0.18089 0.0
C9 C 0.13579 0.50431 0.60958 0.0
C10 C 0.93028 0.5111 1.00856 0.0
C11 C 1.08715 0.67826 1.01474 0.0
C12 C 0.13074 0.72656 0.03368 0.0
C13 C 1.12191 0.76031 0.22102 0.0
C14 C 0.15396 0.80859 0.23111 0.0
C15 C 0.19467 0.82438 0.05333 0.0
C16 C 0.20492 0.79026 0.86731 0.0
C17 C 0.17311 0.74197 0.85736 0.0
C18 C 1.12585 0.52722 0.42831 0.0
C19 C 0.3315 0.52067 0.02925 0.0
O20 O 0.15133 0.38798 0.18389 0.0
O21 O 0.19042 0.37414 0.84955 0.0
O22 O 1.08313 0.51683 0.76497 0.0
O23 O 0.19799 0.46508 0.64286 0.0
O24 O 0.9595 0.55546 0.97884 0.0
O25 O 0.9891 0.46891 0.03891 0.0
O26 O 1.10983 0.64388 0.85459 0.0
O27 O 1.07192 0.65757 0.18974 0.0
O28 O 0.17874 0.51496 0.27322 0.0
O29 O 1.06359 0.56643 0.39506 0.0
O30 O 0.3023 0.47632 0.05931 0.0
O31 O 0.27268 0.56284 0.99873 0.0
H32 H 0.17379 0.28191 0.68017 0.0
H33 H 1.11757 0.19772 0.66167 0.0
H34 H 1.02431 0.23067 0.30876 0.0
H35 H 1.08152 0.31444 0.32861 0.0
H36 H 1.0881 0.75001 0.35829 0.0
H37 H 0.14436 0.83418 0.37603 0.0
H38 H 0.23742 0.80094 0.72888 0.0
H39 H 0.18018 0.71718 0.7098 0.0
Pr40 Pr 0.73627 1.00663 0.03557 0.0
Pr41 Pr 0.52559 0.02508 1.00109 0.0
C42 C 0.9165 1.01397 0.98693 0.0
C43 C 0.96518 0.05981 0.97373 0.0
C44 C 1.01762 0.07796 0.15046 0.0
C45 C 1.05223 0.12536 0.15219 0.0
C46 C 1.0358 0.15543 0.97645 0.0
C47 C 0.98727 0.13608 0.79549 0.0
C48 C 0.95225 0.08882 0.79411 0.0
C49 C 0.65136 1.01347 0.42497 0.0
C50 C 0.62549 0.12853 0.02492 0.0
C51 C 0.3453 0.01775 0.04899 0.0
C52 C 0.29665 0.97192 0.06262 0.0
C53 C 0.24415 0.9537 0.88612 0.0
C54 C 0.20955 0.90632 0.88478 0.0
C55 C 0.22606 0.87631 0.06071 0.0
C56 C 0.27466 0.89572 0.24144 0.0
C57 C 0.30968 0.94296 0.24242 0.0
C58 C 0.61087 0.01831 0.61191 0.0
C59 C 0.63634 0.90321 1.01228 0.0
O60 O 0.86019 1.00282 0.82653 0.0
O61 O 0.88239 1.00928 0.17239 0.0
O62 O 0.62671 0.04278 0.27818 0.0
O63 O 0.72327 0.97974 0.37745 0.0
O64 O 0.54609 0.11196 0.05893 0.0
O65 O 0.70204 0.09588 0.9889 0.0
O66 O 0.40142 0.02907 0.20952 0.0
O67 O 0.37961 0.02226 0.86357 0.0
O68 O 0.63508 0.98888 0.75845 0.0
O69 O 0.53899 0.05207 0.65939 0.0
O70 O 0.71573 0.91976 0.97793 0.0
O71 O 0.55982 0.93588 0.04843 0.0
H72 H 1.0293 0.05632 0.29042 0.0
H73 H 1.09106 0.13873 0.29229 0.0
H74 H 0.97331 0.15835 0.65778 0.0
H75 H 0.91231 0.07606 0.65478 0.0
H76 H 0.23242 0.97529 0.74602 0.0
H77 H 0.17067 0.89289 0.74485 0.0
H78 H 0.28868 0.87349 0.37927 0.0
H79 H 0.34967 0.95578 0.38158 0.0
Pr80 Pr 0.61907 0.58238 0.0662 0.0
Pr81 Pr 0.64271 0.44938 0.97136 0.0
C82 C 0.61882 0.68383 0.0348 0.0
C83 C 0.62268 0.73956 1.01783 0.0
C84 C 0.70893 0.75832 0.02119 0.0
C85 C 0.71347 0.81133 1.01632 0.0
C86 C 0.63179 0.8468 1.01064 0.0
C87 C 0.54538 0.82788 1.00522 0.0
C88 C 0.54091 0.77473 1.00749 0.0
C89 C 0.62836 0.52974 0.43594 0.0
C90 C 0.43267 0.52191 0.03015 0.0
C91 C 0.64297 0.34792 1.00275 0.0
C92 C 0.63912 0.2922 0.0197 0.0
C93 C 0.55288 0.27342 1.01628 0.0
C94 C 0.54834 0.22042 0.02107 0.0
C95 C 0.63003 0.18494 0.02675 0.0
C96 C 0.71644 0.20387 0.03226 0.0
C97 C 0.7209 0.25702 0.03005 0.0
C98 C 0.63338 0.50201 0.60161 0.0
C99 C 0.82912 0.50985 1.00753 0.0
O100 O 0.54718 0.66035 0.96759 0.0
O101 O 0.68931 0.6543 0.11605 0.0
O102 O 0.63303 0.51143 0.24648 0.0
O103 O 0.61663 0.58011 0.44548 0.0
O104 O 0.48675 0.47753 0.05684 0.0
O105 O 0.46487 0.56604 1.0036 0.0
O106 O 0.71464 0.3714 0.06977 0.0
O107 O 0.57245 0.37746 0.92169 0.0
O108 O 0.62885 0.52033 0.79108 0.0
O109 O 0.64508 0.45165 0.59207 0.0
O110 O 0.77505 0.55423 0.98084 0.0
O111 O 0.7969 0.46572 0.034 0.0
H112 H 0.77315 0.73202 0.02876 0.0
H113 H 0.78106 0.82452 0.02056 0.0
H114 H 0.48099 0.8541 0.99962 0.0
H115 H 0.47352 0.76133 1.00559 0.0
H116 H 0.48866 0.29973 1.0087 0.0
H117 H 0.48076 0.20721 1.01675 0.0
H118 H 0.78083 0.17766 0.03785 0.0
H119 H 0.78828 0.27043 0.03201 0.0
loop_
_geom_bond_atom_site_label_1
_geom_bond_atom_site_label_2
_geom_bond_distance
_geom_bond_site_symmetry_2
_ccdc_geom_bond_type
Pr0 C2 2.880 1_455 S
Pr0 O20 2.562 1_456 S
Pr0 O21 2.490 1_455 S
Pr0 O22 2.695 . S
Pr0 O23 2.512 . S
Pr0 O25 2.437 1_455 S
Pr0 O28 2.436 1_456 S
Pr0 O30 2.438 . S
Pr1 C11 2.880 1_655 S
Pr1 O22 2.436 1_654 S
Pr1 O24 2.438 . S
Pr1 O26 2.562 1_654 S
Pr1 O27 2.490 1_655 S
Pr1 O28 2.695 . S
Pr1 O29 2.512 1_655 S
Pr1 O31 2.437 1_655 S
C2 Pr0 2.880 1_655 S
C2 C3 1.491 . S
C2 O20 1.254 1_556 S
C2 O21 1.225 . S
C3 C2 1.491 . S
C3 C4 1.392 . S
C3 C8 1.356 1_556 S
C4 C3 1.392 . S
C4 C5 1.368 . S
C4 H32 0.929 . S
C5 C4 1.368 . S
C5 C6 1.386 . S
C5 H33 0.929 . S
C6 C5 1.386 . S
C6 C7 1.373 1_556 S
C7 C6 1.373 1_554 S
C7 C8 1.409 . S
C7 H34 0.931 . S
C8 C3 1.356 1_554 S
C8 C7 1.409 . S
C8 H35 0.930 . S
C9 O22 1.270 . S
C9 O23 1.248 . S
C10 O24 1.267 1_556 S
C10 O25 1.278 . S
C11 Pr1 2.880 1_455 S
C11 C12 1.491 . S
C11 O26 1.254 1_554 S
C11 O27 1.225 . S
C12 C11 1.491 . S
C12 C13 1.392 . S
C12 C17 1.356 1_554 S
C13 C12 1.392 . S
C13 C14 1.368 . S
C13 H36 0.929 . S
C14 C13 1.368 . S
C14 C15 1.386 . S
C14 H37 0.929 . S
C15 C14 1.386 . S
C15 C16 1.373 1_554 S
C16 C15 1.373 1_556 S
C16 C17 1.409 . S
C16 H38 0.931 . S
C17 C12 1.356 1_556 S
C17 C16 1.409 . S
C17 H39 0.930 . S
C18 O28 1.270 . S
C18 O29 1.248 1_655 S
C19 O30 1.267 1_554 S
C19 O31 1.278 . S
O20 Pr0 2.562 1_654 S
O20 C2 1.254 1_554 S
O21 Pr0 2.490 1_655 S
O21 C2 1.225 . S
O22 Pr0 2.695 . S
O22 Pr1 2.436 1_456 S
O22 C9 1.270 . S
O23 Pr0 2.512 . S
O23 C9 1.248 . S
O24 Pr1 2.438 . S
O24 C10 1.267 1_554 S
O25 Pr0 2.437 1_655 S
O25 C10 1.278 . S
O26 Pr1 2.562 1_456 S
O26 C11 1.254 1_556 S
O27 Pr1 2.490 1_455 S
O27 C11 1.225 . S
O28 Pr0 2.436 1_654 S
O28 Pr1 2.695 . S
O28 C18 1.270 . S
O29 Pr1 2.512 1_455 S
O29 C18 1.248 1_455 S
O30 Pr0 2.438 . S
O30 C19 1.267 1_556 S
O31 Pr1 2.437 1_455 S
O31 C19 1.278 . S
H32 C4 0.929 . S
H33 C5 0.929 . S
H34 C7 0.931 . S
H35 C8 0.930 . S
H36 C13 0.929 . S
H37 C14 0.929 . S
H38 C16 0.931 . S
H39 C17 0.930 . S
Pr40 C42 2.881 . S
Pr40 O60 2.562 1_554 S
Pr40 O61 2.490 . S
Pr40 O62 2.695 1_545 S
Pr40 O63 2.512 . S
Pr40 O65 2.437 . S
Pr40 O68 2.436 1_554 S
Pr40 O70 2.438 1_544 S
Pr41 C51 2.881 . S
Pr41 O62 2.436 1_556 S
Pr41 O64 2.438 1_566 S
Pr41 O66 2.562 1_556 S
Pr41 O67 2.490 . S
Pr41 O68 2.695 1_565 S
Pr41 O69 2.512 . S
Pr41 O71 2.437 . S
C42 Pr40 2.881 . S
C42 C43 1.491 1_554 S
C42 O60 1.250 1_554 S
C42 O61 1.230 . S
C43 C42 1.491 1_556 S
C43 C44 1.392 1_556 S
C43 C48 1.356 . S
C44 C43 1.392 1_554 S
C44 C45 1.368 . S
C44 H72 0.929 . S
C45 C44 1.368 . S
C45 C46 1.386 1_554 S
C45 H73 0.929 . S
C46 C45 1.386 1_556 S
C46 C47 1.373 . S
C47 C46 1.373 . S
C47 C48 1.409 . S
C47 H74 0.931 . S
C48 C43 1.356 . S
C48 C47 1.409 . S
C48 H75 0.930 . S
C49 O62 1.270 1_545 S
C49 O63 1.248 . S
C50 O64 1.267 . S
C50 O65 1.278 . S
C51 Pr41 2.881 . S
C51 C52 1.491 1_556 S
C51 O66 1.251 1_556 S
C51 O67 1.228 . S
C52 C51 1.491 1_554 S
C52 C53 1.392 1_554 S
C52 C57 1.356 . S
C53 C52 1.392 1_556 S
C53 C54 1.368 . S
C53 H76 0.929 . S
C54 C53 1.368 . S
C54 C55 1.386 1_556 S
C54 H77 0.929 . S
C55 C54 1.386 1_554 S
C55 C56 1.373 . S
C56 C55 1.373 . S
C56 C57 1.409 . S
C56 H78 0.931 . S
C57 C52 1.356 . S
C57 C56 1.409 . S
C57 H79 0.930 . S
C58 O68 1.270 1_565 S
C58 O69 1.248 . S
C59 O70 1.267 . S
C59 O71 1.278 . S
O60 Pr40 2.562 1_556 S
O60 C42 1.250 1_556 S
O61 Pr40 2.490 . S
O61 C42 1.230 . S
O62 Pr40 2.695 1_565 S
O62 Pr41 2.436 1_554 S
O62 C49 1.270 1_565 S
O63 Pr40 2.512 . S
O63 C49 1.248 . S
O64 Pr41 2.438 1_544 S
O64 C50 1.267 . S
O65 Pr40 2.437 . S
O65 C50 1.278 . S
O66 Pr41 2.562 1_554 S
O66 C51 1.251 1_554 S
O67 Pr41 2.490 . S
O67 C51 1.228 . S
O68 Pr40 2.436 1_556 S
O68 Pr41 2.695 1_545 S
O68 C58 1.270 1_545 S
O69 Pr41 2.512 . S
O69 C58 1.248 . S
O70 Pr40 2.438 1_566 S
O70 C59 1.267 . S
O71 Pr41 2.437 . S
O71 C59 1.278 . S
H72 C44 0.929 . S
H73 C45 0.929 . S
H74 C47 0.931 . S
H75 C48 0.930 . S
H76 C53 0.929 . S
H77 C54 0.929 . S
H78 C56 0.931 . S
H79 C57 0.930 . S
Pr80 C82 2.880 . S
Pr80 O100 2.562 1_554 S
Pr80 O101 2.490 . S
Pr80 O102 2.695 . S
Pr80 O103 2.512 . S
Pr80 O105 2.437 . S
Pr80 O108 2.436 1_554 S
Pr80 O110 2.438 . S
Pr81 C91 2.880 . S
Pr81 O102 2.436 1_556 S
Pr81 O104 2.438 . S
Pr81 O106 2.562 1_556 S
Pr81 O107 2.490 . S
Pr81 O108 2.695 . S
Pr81 O109 2.512 . S
Pr81 O111 2.437 . S
C82 Pr80 2.880 . S
C82 C83 1.491 . S
C82 O100 1.254 1_554 S
C82 O101 1.225 . S
C83 C82 1.491 . S
C83 C84 1.392 . S
C83 C88 1.356 1_554 S
C84 C83 1.392 . S
C84 C85 1.368 . S
C84 H112 0.929 . S
C85 C84 1.368 . S
C85 C86 1.386 1_554 S
C85 H113 0.929 . S
C86 C85 1.386 1_556 S
C86 C87 1.373 . S
C87 C86 1.373 . S
C87 C88 1.409 . S
C87 H114 0.931 . S
C88 C83 1.356 1_556 S
C88 C87 1.409 . S
C88 H115 0.930 . S
C89 O102 1.270 . S
C89 O103 1.248 . S
C90 O104 1.267 1_554 S
C90 O105 1.278 . S
C91 Pr81 2.880 . S
C91 C92 1.491 . S
C91 O106 1.254 1_556 S
C91 O107 1.225 . S
C92 C91 1.491 . S
C92 C93 1.392 . S
C92 C97 1.356 1_556 S
C93 C92 1.392 . S
C93 C94 1.368 . S
C93 H116 0.929 . S
C94 C93 1.368 . S
C94 C95 1.386 1_556 S
C94 H117 0.929 . S
C95 C94 1.386 1_554 S
C95 C96 1.373 . S
C96 C95 1.373 . S
C96 C97 1.409 . S
C96 H118 0.931 . S
C97 C92 1.356 1_554 S
C97 C96 1.409 . S
C97 H119 0.930 . S
C98 O108 1.270 . S
C98 O109 1.248 . S
C99 O110 1.267 1_556 S
C99 O111 1.278 . S
O100 Pr80 2.562 1_556 S
O100 C82 1.254 1_556 S
O101 Pr80 2.490 . S
O101 C82 1.225 . S
O102 Pr80 2.695 . S
O102 Pr81 2.436 1_554 S
O102 C89 1.270 . S
O103 Pr80 2.512 . S
O103 C89 1.248 . S
O104 Pr81 2.438 . S
O104 C90 1.267 1_556 S
O105 Pr80 2.437 . S
O105 C90 1.278 . S
O106 Pr81 2.562 1_554 S
O106 C91 1.254 1_554 S
O107 Pr81 2.490 . S
O107 C91 1.225 . S
O108 Pr80 2.436 1_556 S
O108 Pr81 2.695 . S
O108 C98 1.270 . S
O109 Pr81 2.512 . S
O109 C98 1.248 . S
O110 Pr80 2.438 . S
O110 C99 1.267 1_554 S
O111 Pr81 2.437 . S
O111 C99 1.278 . S
H112 C84 0.929 . S
H113 C85 0.929 . S
H114 C87 0.931 . S
H115 C88 0.930 . S
H116 C93 0.929 . S
H117 C94 0.929 . S
H118 C96 0.931 . S
H119 C97 0.930 . S
C9 C18 1.508 1_455 S
C49 C58 1.481 1_545 S
C98 C89 1.529 . S
C19 C90 3.973 . S
C46 C6 1.399 . S
C59 C86 4.753 . S
C10 C99 3.973 . S
C15 C55 1.400 . S
C95 C50 4.754 . S
