# Generated by pormake.
# Topology dmp, (4)-cn, num edge types: 1
# Building blocks:
#     Node 0, Type 0, BuildingBlock: ESEHIV_clean_sbu_0, # of connection points: 4
#     Node 1, Type 0, BuildingBlock: ESEHIV_clean_sbu_0, # of connection points: 4
#     Node 2, Type 0, BuildingBlock: ESEHIV_clean_sbu_0, # of connection points: 4
#     Node 3, Type 0, BuildingBlock: ESEHIV_clean_sbu_0, # of connection points: 4
#     Edge 4, Type (0, 0), BuildingBlock: XIVTED_clean_linker_0, # of connection points: 2
#     Edge 5, Type (0, 0), BuildingBlock: XIVTED_clean_linker_0, # of connection points: 2
#     Edge 6, Type (0, 0), BuildingBlock: XIVTED_clean_linker_0, # of connection points: 2
#     Edge 7, Type (0, 0), BuildingBlock: XIVTED_clean_linker_0, # of connection points: 2
#     Edge 8, Type (0, 0), BuildingBlock: XIVTED_clean_linker_0, # of connection points: 2
#     Edge 9, Type (0, 0), BuildingBlock: XIVTED_clean_linker_0, # of connection points: 2
#     Edge 10, Type (0, 0), BuildingBlock: XIVTED_clean_linker_0, # of connection points: 2
#     Edge 11, Type (0, 0), BuildingBlock: XIVTED_clean_linker_0, # of connection points: 2
# Relax obj value: 0.000
# Max RMSD: 0.009
# Mean RMSD: 0.009
data_MOF--net-dmp--node1-ESEHIV_clean_sbu_0--edge1-XIVTED_clean_linker_0
_symmetry_space_group_name_H-M    P1
_symmetry_Int_Tables_number       1
_symmetry_cell_setting            triclinic
loop_
_symmetry_equiv_pos_as_xyz
'x, y, z'
_cell_length_a     38.526625
_cell_length_b     24.987755
_cell_length_c     6.0377676
_cell_angle_alpha  90.009121
_cell_angle_beta   89.999898
_cell_angle_gamma 99.413105
loop_
_atom_site_label
_atom_site_type_symbol
_atom_site_fract_x
_atom_site_fract_y
_atom_site_fract_z
_atom_type_partial_charge
Cu0 Cu 0.16004 0.27687 0.21056 0.0
N1 N 0.19182 0.24908 0.02364 0.0
N2 N 0.22464 0.1879 0.90969 0.0
C3 C 0.19741 0.19729 0.03682 0.0
C4 C 0.23667 0.23589 0.81158 0.0
C5 C 0.21666 0.27357 0.8844 0.0
O6 O 0.12407 0.21435 0.26863 0.0
C7 C 0.2068 0.35657 0.39475 0.0
O8 O 0.20786 0.3701 0.18478 0.0
H9 H 0.18236 0.16747 0.14426 0.0
H10 H 0.22122 0.31625 0.84834 0.0
N11 N 0.13581 0.33061 0.10138 0.0
N12 N 0.10147 0.3946 0.13217 0.0
C13 C 0.11476 0.35435 0.23433 0.0
C14 C 0.13603 0.35657 0.90636 0.0
C15 C 0.11495 0.39623 0.92491 0.0
C16 C 0.10739 0.19894 0.09091 0.0
O17 O 0.11518 0.22763 0.91 0.0
H18 H 0.11044 0.34321 0.40638 0.0
H19 H 0.15091 0.34806 0.76321 0.0
O20 O 0.18693 0.31311 0.45575 0.0
H21 H 0.25953 0.24404 0.7051 0.0
H22 H 0.1103 0.42429 0.79617 0.0
Cu23 Cu 0.39803 0.76235 0.2098 0.0
N24 N 0.3662 0.79095 0.02655 0.0
N25 N 0.33378 0.8519 0.90905 0.0
C26 C 0.35909 0.84175 0.04949 0.0
C27 C 0.32401 0.8056 0.79483 0.0
C28 C 0.34379 0.76785 0.87027 0.0
O29 O 0.43433 0.82446 0.26745 0.0
C30 C 0.3503 0.68332 0.38911 0.0
O31 O 0.34783 0.67177 0.17729 0.0
H32 H 0.37156 0.87034 0.17164 0.0
H33 H 0.3407 0.72586 0.82413 0.0
N34 N 0.42184 0.70833 0.09884 0.0
N35 N 0.45586 0.64392 0.13057 0.0
C36 C 0.4429 0.68463 0.23172 0.0
C37 C 0.42122 0.68184 0.90481 0.0
C38 C 0.44214 0.64195 0.92389 0.0
C39 C 0.4507 0.83964 0.08843 0.0
O40 O 0.44231 0.81106 0.90787 0.0
H41 H 0.44741 0.6961 0.40331 0.0
H42 H 0.40617 0.69009 0.76215 0.0
O43 O 0.37136 0.72533 0.45264 0.0
H44 H 0.30285 0.79872 0.67497 0.0
H45 H 0.44647 0.61348 0.79596 0.0
Cu46 Cu 0.89789 0.7628 0.76312 0.0
N47 N 0.86617 0.79113 0.94783 0.0
N48 N 0.83362 0.85172 0.06732 0.0
C49 C 0.85904 0.84197 0.92691 0.0
C50 C 0.82379 0.8051 0.17931 0.0
C51 C 0.84365 0.76758 0.10262 0.0
O52 O 0.93381 0.82518 0.70222 0.0
C53 C 0.85094 0.68241 0.58526 0.0
O54 O 0.84954 0.67 0.79644 0.0
H55 H 0.87154 0.87085 0.80589 0.0
H56 H 0.84059 0.72546 0.14682 0.0
N57 N 0.92214 0.70932 0.8748 0.0
N58 N 0.95637 0.64515 0.84399 0.0
C59 C 0.94348 0.68591 0.74275 0.0
C60 C 0.92126 0.68256 0.06835 0.0
C61 C 0.94233 0.64287 0.04989 0.0
C62 C 0.95042 0.84091 0.87983 0.0
O63 O 0.94249 0.81261 0.06159 0.0
H64 H 0.94812 0.69749 0.57138 0.0
H65 H 0.90576 0.69024 0.20986 0.0
O66 O 0.87096 0.72548 0.52168 0.0
H67 H 0.80252 0.79787 0.29831 0.0
H68 H 0.94645 0.6142 0.17749 0.0
Cu69 Cu 0.65962 0.27633 0.76996 0.0
N70 N 0.69145 0.24869 0.95672 0.0
N71 N 0.72438 0.18764 0.0703 0.0
C72 C 0.69694 0.19683 0.94472 0.0
C73 C 0.73666 0.23584 0.16615 0.0
C74 C 0.71657 0.27343 0.09341 0.0
O75 O 0.62356 0.21373 0.71425 0.0
C76 C 0.70585 0.35646 0.58433 0.0
O77 O 0.70636 0.37064 0.79353 0.0
H78 H 0.68171 0.16683 0.83885 0.0
H79 H 0.72127 0.31621 0.12718 0.0
N80 N 0.63537 0.33018 0.87876 0.0
N81 N 0.60098 0.39407 0.84671 0.0
C82 C 0.61413 0.35351 0.74576 0.0
C83 C 0.6359 0.35675 0.07262 0.0
C84 C 0.61475 0.39631 0.05331 0.0
C85 C 0.60706 0.1988 0.89314 0.0
O86 O 0.61513 0.22788 0.07279 0.0
H87 H 0.60963 0.34191 0.57428 0.0
H88 H 0.6511 0.34886 0.21523 0.0
O89 O 0.68659 0.31233 0.52426 0.0
H90 H 0.75975 0.24417 0.27059 0.0
H91 H 0.61033 0.42479 0.181 0.0
H92 H 0.29891 0.89 0.24336 0.0
H93 H 0.26184 0.15244 0.57162 0.0
H94 H 0.33144 0.92138 0.56898 0.0
H95 H 0.22277 0.1108 0.2294 0.0
H96 H 0.28823 0.06946 0.56495 0.0
H97 H 0.27192 0.97248 0.2424 0.0
C98 C 0.30036 0.91473 0.09553 0.0
C99 C 0.31724 0.89944 0.90624 0.0
C100 C 0.27383 0.07851 0.71054 0.0
C101 C 0.28627 0.99332 0.90066 0.0
C102 C 0.25885 0.12598 0.71464 0.0
C103 C 0.23989 0.13872 0.90094 0.0
C104 C 0.27019 0.04372 0.89519 0.0
C105 C 0.23665 0.10255 0.08091 0.0
C106 C 0.28481 0.96147 0.09373 0.0
C107 C 0.31808 0.93182 0.7164 0.0
N108 N 0.25172 0.05703 0.07373 0.0
N109 N 0.3029 0.97743 0.71825 0.0
H110 H 0.18194 0.43903 0.59822 0.0
H111 H 0.37591 0.60019 0.58297 0.0
H112 H 0.27516 0.36672 0.51847 0.0
H113 H 0.28224 0.67213 0.52025 0.0
H114 H 0.34001 0.51605 0.71353 0.0
H115 H 0.21843 0.52296 0.72501 0.0
C116 C 0.20998 0.44003 0.61851 0.0
C117 C 0.22569 0.39603 0.55054 0.0
C118 C 0.32738 0.55081 0.67914 0.0
C119 C 0.26772 0.49242 0.68403 0.0
C120 C 0.34793 0.59901 0.60735 0.0
C121 C 0.33188 0.64296 0.54321 0.0
C122 C 0.29053 0.54648 0.68197 0.0
C123 C 0.29547 0.63903 0.57018 0.0
C124 C 0.23088 0.48815 0.6879 0.0
C125 C 0.26219 0.39983 0.57178 0.0
N126 N 0.27589 0.59124 0.63392 0.0
N127 N 0.28209 0.44759 0.63285 0.0
H128 H 0.76182 0.15232 0.40744 0.0
H129 H 0.79855 0.88984 0.73413 0.0
H130 H 0.72231 0.11048 0.75076 0.0
H131 H 0.83129 0.921 0.40833 0.0
H132 H 0.77152 0.97227 0.73622 0.0
H133 H 0.78819 0.06928 0.41359 0.0
C134 C 0.75873 0.1258 0.26457 0.0
C135 C 0.73965 0.13847 0.07876 0.0
C136 C 0.78446 0.96123 0.88463 0.0
C137 C 0.76993 0.04345 0.08385 0.0
C138 C 0.80002 0.9145 0.88221 0.0
C139 C 0.81698 0.89915 0.07109 0.0
C140 C 0.78599 0.99303 0.07791 0.0
C141 C 0.81787 0.93147 0.26121 0.0
C142 C 0.77369 0.0783 0.26837 0.0
C143 C 0.73629 0.10225 0.89892 0.0
N144 N 0.80268 0.97708 0.25995 0.0
N145 N 0.75135 0.05672 0.90576 0.0
H146 H 0.78424 0.67603 0.4312 0.0
H147 H 0.77311 0.36189 0.44231 0.0
H148 H 0.87461 0.5952 0.4134 0.0
H149 H 0.68288 0.44261 0.39813 0.0
H150 H 0.81054 0.44491 0.31562 0.0
H151 H 0.74742 0.59253 0.30312 0.0
C152 C 0.7965 0.64121 0.39063 0.0
C153 C 0.83236 0.64221 0.43111 0.0
C154 C 0.7824 0.44414 0.32565 0.0
C155 C 0.79039 0.54582 0.29638 0.0
C156 C 0.76104 0.3965 0.3958 0.0
C157 C 0.72498 0.39558 0.42826 0.0
C158 C 0.76764 0.49157 0.29566 0.0
C159 C 0.71061 0.44175 0.37213 0.0
C160 C 0.77549 0.59333 0.31952 0.0
C161 C 0.84701 0.59589 0.38181 0.0
N162 N 0.73207 0.48829 0.31318 0.0
N163 N 0.82586 0.54915 0.32163 0.0
H164 H 0.0933 0.1161 0.39674 0.0
H165 H 0.96468 0.92348 0.57263 0.0
H166 H 0.06539 0.16378 0.74153 0.0
H167 H 0.99271 0.87595 0.22782 0.0
H168 H 1.00241 1.01159 0.62789 0.0
H169 H 0.05579 0.02788 0.34045 0.0
C170 C 0.07903 0.10826 0.24246 0.0
C171 C 0.08254 0.14731 0.07384 0.0
C172 C 1.00036 0.98169 0.75907 0.0
C173 C 0.0401 0.0465 0.00636 0.0
C174 C 0.97902 0.93132 0.72665 0.0
C175 C 0.97546 0.89237 0.8957 0.0
C176 C 1.01814 0.99303 0.96198 0.0
C177 C 0.99446 0.90484 0.09306 0.0
C178 C 0.05782 0.05782 0.20945 0.0
C179 C 0.06365 0.13482 0.87606 0.0
N180 N 1.01481 0.95403 0.12097 0.0
N181 N 0.0434 0.08556 0.84759 0.0
H182 H 0.56519 0.16505 0.24468 0.0
H183 H 0.49291 0.87307 0.73813 0.0
H184 H 0.59258 0.11479 0.59217 0.0
H185 H 0.46557 0.92327 0.39083 0.0
H186 H 0.52996 0.9606 0.68473 0.0
H187 H 0.52846 0.0773 0.2991 0.0
C188 C 0.5633 0.13565 0.11153 0.0
C189 C 0.58211 0.14734 0.91313 0.0
C190 C 0.51606 0.95254 0.84018 0.0
C191 C 0.53995 0.04617 0.976 0.0
C192 C 0.49489 0.90241 0.87156 0.0
C193 C 0.47596 0.89079 0.06958 0.0
C194 C 0.51848 0.99171 0.0079 0.0
C195 C 0.47977 0.9304 0.23612 0.0
C196 C 0.54231 0.08538 0.14351 0.0
C197 C 0.57845 0.10762 0.74708 0.0
N198 N 0.50051 0.97926 0.20107 0.0
N199 N 0.55786 0.05865 0.78264 0.0
H200 H 0.99707 0.66435 0.47332 0.0
H201 H 0.06068 0.37522 0.50201 0.0
H202 H 0.96717 0.54511 0.98577 0.0
H203 H 0.09057 0.49448 -0.01013 0.0
H204 H 1.0265 0.43674 0.68029 0.0
H205 H 0.03109 0.60274 0.29476 0.0
C206 C 0.99742 0.62522 0.54884 0.0
C207 C 0.97853 0.61 0.74471 0.0
C208 C 0.04046 0.44947 0.52864 0.0
C209 C 1.01853 0.53911 0.5408 0.0
C210 C 0.06028 0.41436 0.4266 0.0
C211 C 0.07922 0.42965 0.23104 0.0
C212 C 0.03908 0.50039 0.43435 0.0
C213 C 0.07659 0.48061 0.13975 0.0
C214 C 1.01716 0.59004 0.44654 0.0
C215 C 0.98111 0.55898 0.83576 0.0
N216 N 0.05703 0.5141 0.24237 0.0
N217 N 1.0006 0.52544 0.7329 0.0
H218 H 0.49666 0.66347 0.50044 0.0
H219 H 0.56026 0.37433 0.47641 0.0
H220 H 0.46655 0.54374 -0.00989 0.0
H221 H 0.58997 0.49406 0.98731 0.0
H222 H 0.52609 0.43564 0.29689 0.0
H223 H 0.53068 0.60201 0.67987 0.0
C224 C 0.49697 0.62424 0.42562 0.0
C225 C 0.47802 0.60883 0.23016 0.0
C226 C 0.54 0.4485 0.44855 0.0
C227 C 0.51802 0.53811 0.43496 0.0
C228 C 0.55983 0.41351 0.55136 0.0
C229 C 0.57872 0.42898 0.747 0.0
C230 C 0.53857 0.4995 0.54211 0.0
C231 C 0.57603 0.48003 0.83746 0.0
C232 C 0.51671 0.58915 0.52838 0.0
C233 C 0.48055 0.55771 0.13984 0.0
N234 N 0.55648 0.51338 0.7341 0.0
N235 N 0.50005 0.52425 0.24314 0.0
loop_
_geom_bond_atom_site_label_1
_geom_bond_atom_site_label_2
_geom_bond_distance
_geom_bond_site_symmetry_2
_ccdc_geom_bond_type
Cu0 N1 1.999 . S
Cu0 O6 1.974 . S
Cu0 N11 1.985 . S
Cu0 O20 1.959 . S
N1 Cu0 1.999 . S
N1 C3 1.263 . S
N1 C5 1.389 . S
N2 C3 1.358 . S
N2 C4 1.400 . S
C3 N1 1.263 . S
C3 N2 1.358 . S
C3 H9 0.930 . S
C4 N2 1.400 . S
C4 C5 1.351 . S
C4 H21 0.930 . S
C5 N1 1.389 . S
C5 C4 1.351 . S
C5 H10 0.930 . S
O6 Cu0 1.974 . S
O6 C16 1.282 . S
C7 O8 1.261 . S
C7 O20 1.251 . S
O8 C7 1.261 . S
H9 C3 0.930 . S
H10 C5 0.930 . S
N11 Cu0 1.985 . S
N11 C13 1.335 . S
N11 C14 1.390 . S
N12 C13 1.345 . S
N12 C15 1.336 . S
C13 N11 1.335 . S
C13 N12 1.345 . S
C13 H18 0.930 . S
C14 N11 1.390 . S
C14 C15 1.346 . S
C14 H19 0.930 . S
C15 N12 1.336 . S
C15 C14 1.346 . S
C15 H22 0.929 . S
C16 O6 1.282 . S
C16 O17 1.216 1_554 S
O17 C16 1.216 1_556 S
H18 C13 0.930 . S
H19 C14 0.930 . S
O20 Cu0 1.959 . S
O20 C7 1.251 . S
H21 C4 0.930 . S
H22 C15 0.929 . S
Cu23 N24 1.999 . S
Cu23 O29 1.974 . S
Cu23 N34 1.985 . S
Cu23 O43 1.959 . S
N24 Cu23 1.999 . S
N24 C26 1.263 . S
N24 C28 1.389 . S
N25 C26 1.358 . S
N25 C27 1.400 . S
C26 N24 1.263 . S
C26 N25 1.358 . S
C26 H32 0.930 . S
C27 N25 1.400 . S
C27 C28 1.351 . S
C27 H44 0.930 . S
C28 N24 1.389 . S
C28 C27 1.351 . S
C28 H33 0.930 . S
O29 Cu23 1.974 . S
O29 C39 1.282 . S
C30 O31 1.261 . S
C30 O43 1.251 . S
O31 C30 1.261 . S
H32 C26 0.930 . S
H33 C28 0.930 . S
N34 Cu23 1.985 . S
N34 C36 1.335 . S
N34 C37 1.390 . S
N35 C36 1.345 . S
N35 C38 1.336 . S
C36 N34 1.335 . S
C36 N35 1.345 . S
C36 H41 0.930 . S
C37 N34 1.390 . S
C37 C38 1.346 . S
C37 H42 0.930 . S
C38 N35 1.336 . S
C38 C37 1.346 . S
C38 H45 0.929 . S
C39 O29 1.282 . S
C39 O40 1.216 1_554 S
O40 C39 1.216 1_556 S
H41 C36 0.930 . S
H42 C37 0.930 . S
O43 Cu23 1.959 . S
O43 C30 1.251 . S
H44 C27 0.930 . S
H45 C38 0.929 . S
Cu46 N47 1.999 . S
Cu46 O52 1.974 . S
Cu46 N57 1.985 . S
Cu46 O66 1.959 . S
N47 Cu46 1.999 . S
N47 C49 1.263 . S
N47 C51 1.389 . S
N48 C49 1.358 . S
N48 C50 1.400 . S
C49 N47 1.263 . S
C49 N48 1.358 . S
C49 H55 0.930 . S
C50 N48 1.400 . S
C50 C51 1.351 . S
C50 H67 0.930 . S
C51 N47 1.389 . S
C51 C50 1.351 . S
C51 H56 0.930 . S
O52 Cu46 1.974 . S
O52 C62 1.282 . S
C53 O54 1.261 . S
C53 O66 1.251 . S
O54 C53 1.261 . S
H55 C49 0.930 . S
H56 C51 0.930 . S
N57 Cu46 1.985 . S
N57 C59 1.335 . S
N57 C60 1.390 . S
N58 C59 1.345 . S
N58 C61 1.336 . S
C59 N57 1.335 . S
C59 N58 1.345 . S
C59 H64 0.930 . S
C60 N57 1.390 . S
C60 C61 1.346 . S
C60 H65 0.930 . S
C61 N58 1.336 . S
C61 C60 1.346 . S
C61 H68 0.929 . S
C62 O52 1.282 . S
C62 O63 1.216 1_556 S
O63 C62 1.216 1_554 S
H64 C59 0.930 . S
H65 C60 0.930 . S
O66 Cu46 1.959 . S
O66 C53 1.251 . S
H67 C50 0.930 . S
H68 C61 0.929 . S
Cu69 N70 1.999 . S
Cu69 O75 1.974 . S
Cu69 N80 1.985 . S
Cu69 O89 1.959 . S
N70 Cu69 1.999 . S
N70 C72 1.263 . S
N70 C74 1.389 . S
N71 C72 1.358 . S
N71 C73 1.400 . S
C72 N70 1.263 . S
C72 N71 1.358 . S
C72 H78 0.930 . S
C73 N71 1.400 . S
C73 C74 1.351 . S
C73 H90 0.930 . S
C74 N70 1.389 . S
C74 C73 1.351 . S
C74 H79 0.930 . S
O75 Cu69 1.974 . S
O75 C85 1.282 . S
C76 O77 1.261 . S
C76 O89 1.251 . S
O77 C76 1.261 . S
H78 C72 0.930 . S
H79 C74 0.930 . S
N80 Cu69 1.985 . S
N80 C82 1.335 . S
N80 C83 1.390 . S
N81 C82 1.345 . S
N81 C84 1.336 . S
C82 N80 1.335 . S
C82 N81 1.345 . S
C82 H87 0.930 . S
C83 N80 1.390 . S
C83 C84 1.346 . S
C83 H88 0.930 . S
C84 N81 1.336 . S
C84 C83 1.346 . S
C84 H91 0.929 . S
C85 O75 1.282 . S
C85 O86 1.216 1_556 S
O86 C85 1.216 1_554 S
H87 C82 0.930 . S
H88 C83 0.930 . S
O89 Cu69 1.959 . S
O89 C76 1.251 . S
H90 C73 0.930 . S
H91 C84 0.929 . S
H92 C98 0.930 . S
H93 C102 0.930 . S
H94 C107 0.929 . S
H95 C105 0.929 . S
H96 C100 0.929 . S
H97 C106 0.929 . S
C98 H92 0.930 . S
C98 C99 1.367 . S
C98 C106 1.378 . S
C99 C98 1.367 . S
C99 C107 1.433 . S
C100 H96 0.929 . S
C100 C102 1.378 . S
C100 C104 1.350 . S
C101 C104 1.463 1_565 S
C101 C106 1.350 . S
C101 N109 1.427 . S
C102 H93 0.930 . S
C102 C100 1.378 . S
C102 C103 1.367 . S
C103 C102 1.367 . S
C103 C105 1.433 . S
C104 C100 1.350 . S
C104 C101 1.463 1_545 S
C104 N108 1.427 . S
C105 H95 0.929 . S
C105 C103 1.433 . S
C105 N108 1.384 . S
C106 H97 0.929 . S
C106 C98 1.378 . S
C106 C101 1.350 . S
C107 H94 0.929 . S
C107 C99 1.433 . S
C107 N109 1.384 . S
N108 C104 1.427 . S
N108 C105 1.384 . S
N109 C101 1.427 . S
N109 C107 1.384 . S
H110 C116 0.930 1_556 S
H111 C120 0.930 . S
H112 C125 0.929 . S
H113 C123 0.929 1_556 S
H114 C118 0.929 . S
H115 C124 0.929 1_556 S
C116 H110 0.930 1_554 S
C116 C117 1.367 . S
C116 C124 1.378 . S
C117 C116 1.367 . S
C117 C125 1.433 . S
C118 H114 0.929 . S
C118 C120 1.378 . S
C118 C122 1.350 . S
C119 C122 1.463 . S
C119 C124 1.350 . S
C119 N127 1.427 . S
C120 H111 0.930 . S
C120 C118 1.378 . S
C120 C121 1.367 . S
C121 C120 1.367 . S
C121 C123 1.433 . S
C122 C118 1.350 . S
C122 C119 1.463 . S
C122 N126 1.427 . S
C123 H113 0.929 1_554 S
C123 C121 1.433 . S
C123 N126 1.384 . S
C124 H115 0.929 1_554 S
C124 C116 1.378 . S
C124 C119 1.350 . S
C125 H112 0.929 . S
C125 C117 1.433 . S
C125 N127 1.384 . S
N126 C122 1.427 . S
N126 C123 1.384 . S
N127 C119 1.427 . S
N127 C125 1.384 . S
H128 C134 0.930 1_554 S
H129 C138 0.930 . S
H130 C143 0.929 . S
H131 C141 0.929 1_554 S
H132 C136 0.929 . S
H133 C142 0.929 1_554 S
C134 H128 0.930 1_556 S
C134 C135 1.367 . S
C134 C142 1.378 . S
C135 C134 1.367 . S
C135 C143 1.433 . S
C136 H132 0.929 . S
C136 C138 1.378 . S
C136 C140 1.350 . S
C137 C140 1.463 1_545 S
C137 C142 1.350 . S
C137 N145 1.427 . S
C138 H129 0.930 . S
C138 C136 1.378 . S
C138 C139 1.367 . S
C139 C138 1.367 . S
C139 C141 1.433 . S
C140 C136 1.350 . S
C140 C137 1.463 1_565 S
C140 N144 1.427 . S
C141 H131 0.929 1_556 S
C141 C139 1.433 . S
C141 N144 1.384 . S
C142 H133 0.929 1_556 S
C142 C134 1.378 . S
C142 C137 1.350 . S
C143 H130 0.929 . S
C143 C135 1.433 . S
C143 N145 1.384 . S
N144 C140 1.427 . S
N144 C141 1.384 . S
N145 C137 1.427 . S
N145 C143 1.384 . S
H146 C152 0.930 . S
H147 C156 0.930 . S
H148 C161 0.929 . S
H149 C159 0.929 . S
H150 C154 0.929 . S
H151 C160 0.929 . S
C152 H146 0.930 . S
C152 C153 1.367 . S
C152 C160 1.378 . S
C153 C152 1.367 . S
C153 C161 1.433 . S
C154 H150 0.929 . S
C154 C156 1.378 . S
C154 C158 1.350 . S
C155 C158 1.463 . S
C155 C160 1.350 . S
C155 N163 1.427 . S
C156 H147 0.930 . S
C156 C154 1.378 . S
C156 C157 1.367 . S
C157 C156 1.367 . S
C157 C159 1.433 . S
C158 C154 1.350 . S
C158 C155 1.463 . S
C158 N162 1.427 . S
C159 H149 0.929 . S
C159 C157 1.433 . S
C159 N162 1.384 . S
C160 H151 0.929 . S
C160 C152 1.378 . S
C160 C155 1.350 . S
C161 H148 0.929 . S
C161 C153 1.433 . S
C161 N163 1.384 . S
N162 C158 1.427 . S
N162 C159 1.384 . S
N163 C155 1.427 . S
N163 C161 1.384 . S
H164 C170 0.930 . S
H165 C174 0.930 . S
H166 C179 0.929 . S
H167 C177 0.929 . S
H168 C172 0.929 1_545 S
H169 C178 0.929 1_565 S
C170 H164 0.930 . S
C170 C171 1.367 . S
C170 C178 1.378 . S
C171 C170 1.367 . S
C171 C179 1.433 . S
C172 H168 0.929 1_565 S
C172 C174 1.378 . S
C172 C176 1.350 . S
C173 C176 1.463 1_444 S
C173 C178 1.350 . S
C173 N181 1.427 1_554 S
C174 H165 0.930 . S
C174 C172 1.378 . S
C174 C175 1.367 . S
C175 C174 1.367 . S
C175 C177 1.433 . S
C176 C172 1.350 . S
C176 C173 1.463 1_666 S
C176 N180 1.427 1_556 S
C177 H167 0.929 . S
C177 C175 1.433 . S
C177 N180 1.384 1_556 S
C178 H169 0.929 1_545 S
C178 C170 1.378 . S
C178 C173 1.350 . S
C179 H166 0.929 . S
C179 C171 1.433 . S
C179 N181 1.384 1_554 S
N180 C176 1.427 1_554 S
N180 C177 1.384 1_554 S
N181 C173 1.427 1_556 S
N181 C179 1.384 1_556 S
H182 C188 0.930 . S
H183 C192 0.930 . S
H184 C197 0.929 . S
H185 C195 0.929 . S
H186 C190 0.929 . S
H187 C196 0.929 . S
C188 H182 0.930 . S
C188 C189 1.367 1_554 S
C188 C196 1.378 . S
C189 C188 1.367 1_556 S
C189 C197 1.433 . S
C190 H186 0.929 . S
C190 C192 1.378 . S
C190 C194 1.350 1_556 S
C191 C194 1.463 1_546 S
C191 C196 1.350 1_556 S
C191 N199 1.427 . S
C192 H183 0.930 . S
C192 C190 1.378 . S
C192 C193 1.367 1_556 S
C193 C192 1.367 1_554 S
C193 C195 1.433 . S
C194 C190 1.350 1_554 S
C194 C191 1.463 1_564 S
C194 N198 1.427 . S
C195 H185 0.929 . S
C195 C193 1.433 . S
C195 N198 1.384 . S
C196 H187 0.929 . S
C196 C188 1.378 . S
C196 C191 1.350 1_554 S
C197 H184 0.929 . S
C197 C189 1.433 . S
C197 N199 1.384 . S
N198 C194 1.427 . S
N198 C195 1.384 . S
N199 C191 1.427 . S
N199 C197 1.384 . S
H200 C206 0.930 . S
H201 C210 0.930 . S
H202 C215 0.929 . S
H203 C213 0.929 . S
H204 C208 0.929 . S
H205 C214 0.929 . S
C206 H200 0.930 . S
C206 C207 1.367 . S
C206 C214 1.378 . S
C207 C206 1.367 . S
C207 C215 1.433 . S
C208 H204 0.929 . S
C208 C210 1.378 . S
C208 C212 1.350 . S
C209 C212 1.463 1_655 S
C209 C214 1.350 . S
C209 N217 1.427 . S
C210 H201 0.930 . S
C210 C208 1.378 . S
C210 C211 1.367 . S
C211 C210 1.367 . S
C211 C213 1.433 . S
C212 C208 1.350 . S
C212 C209 1.463 1_455 S
C212 N216 1.427 . S
C213 H203 0.929 . S
C213 C211 1.433 . S
C213 N216 1.384 . S
C214 H205 0.929 . S
C214 C206 1.378 . S
C214 C209 1.350 . S
C215 H202 0.929 . S
C215 C207 1.433 . S
C215 N217 1.384 . S
N216 C212 1.427 . S
N216 C213 1.384 . S
N217 C209 1.427 . S
N217 C215 1.384 . S
H218 C224 0.930 . S
H219 C228 0.930 . S
H220 C233 0.929 . S
H221 C231 0.929 . S
H222 C226 0.929 . S
H223 C232 0.929 . S
C224 H218 0.930 . S
C224 C225 1.367 . S
C224 C232 1.378 . S
C225 C224 1.367 . S
C225 C233 1.433 . S
C226 H222 0.929 . S
C226 C228 1.378 . S
C226 C230 1.350 . S
C227 C230 1.463 . S
C227 C232 1.350 . S
C227 N235 1.427 . S
C228 H219 0.930 . S
C228 C226 1.378 . S
C228 C229 1.367 . S
C229 C228 1.367 . S
C229 C231 1.433 . S
C230 C226 1.350 . S
C230 C227 1.463 . S
C230 N234 1.427 . S
C231 H221 0.929 . S
C231 C229 1.433 . S
C231 N234 1.384 . S
C232 H223 0.929 . S
C232 C224 1.378 . S
C232 C227 1.350 . S
C233 H220 0.929 . S
C233 C225 1.433 . S
C233 N235 1.384 . S
N234 C230 1.427 . S
N234 C231 1.384 . S
N235 C227 1.427 . S
N235 C233 1.384 . S
C99 N25 1.444 . S
C103 N2 1.453 . S
C117 C7 1.490 . S
C121 C30 1.493 . S
C135 N71 1.456 . S
C139 N48 1.444 . S
C153 C53 1.489 . S
C157 C76 1.491 . S
C171 C16 1.486 . S
C175 C62 1.486 . S
C189 C85 1.479 . S
C193 C39 1.479 . S
C207 N58 1.469 . S
C211 N12 1.469 . S
C225 N35 1.466 . S
C229 N81 1.466 . S
