# Generated by pormake.
# Topology hex, (8)-cn, num edge types: 1
# Building blocks:
#     Node 0, Type 0, BuildingBlock: VETTIZ_charged_sbu_0, # of connection points: 8
#     Edge 1, Type (0, 0), BuildingBlock: KIFKEQ_clean_linker_1, # of connection points: 2
#     Edge 2, Type (0, 0), BuildingBlock: KIFKEQ_clean_linker_1, # of connection points: 2
#     Edge 3, Type (0, 0), BuildingBlock: KIFKEQ_clean_linker_1, # of connection points: 2
#     Edge 4, Type (0, 0), BuildingBlock: KIFKEQ_clean_linker_1, # of connection points: 2
# Relax obj value: 0.198
# Max RMSD: 0.293
# Mean RMSD: 0.293
data_MOF--net-hex--node1-VETTIZ_charged_sbu_0--edge1-KIFKEQ_clean_linker_1
_symmetry_space_group_name_H-M    P1
_symmetry_Int_Tables_number       1
_symmetry_cell_setting            triclinic
loop_
_symmetry_equiv_pos_as_xyz
'x, y, z'
_cell_length_a     16.393845
_cell_length_b     16.446793
_cell_length_c     16.979916
_cell_angle_alpha  88.575003
_cell_angle_beta   90.119349
_cell_angle_gamma 120.74554
loop_
_atom_site_label
_atom_site_type_symbol
_atom_site_fract_x
_atom_site_fract_y
_atom_site_fract_z
_atom_type_partial_charge
Fe0 Fe 0.99044 0.82914 0.10212 0.0
O1 O 0.98987 0.92331 0.02818 0.0
Fe2 Fe 0.94482 1.01449 0.07364 0.0
Fe3 Fe 0.10804 0.01828 0.97003 0.0
O4 O 0.98271 0.92404 0.03471 0.0
O5 O 0.06147 0.10913 1.01346 0.0
O6 O 0.06714 0.10777 1.00582 0.0
Fe7 Fe 0.05757 0.20069 0.93773 0.0
C8 C 0.20487 0.98015 0.09555 0.0
O9 O 0.9986 0.77666 0.99719 0.0
O10 O 0.13198 0.90494 0.94284 0.0
O11 O 0.91133 0.14008 0.94194 0.0
O12 O 0.86292 0.99272 0.97594 0.0
O13 O 0.82174 0.89539 0.12302 0.0
O14 O 0.84729 0.77141 0.10241 0.0
O15 O 0.0366 0.994 0.86486 0.0
O16 O 0.04948 0.13354 0.83576 0.0
C17 C 0.79301 0.80576 0.11415 0.0
O18 O 0.05544 0.2578 0.041 0.0
O19 O 0.92821 0.13118 0.10606 0.0
O20 O 0.13851 0.89424 0.10543 0.0
O21 O 0.18531 0.0417 0.07082 0.0
C22 C 0.07415 0.81347 0.95362 0.0
C23 C 0.03375 0.05277 0.81613 0.0
C24 C 0.25615 0.22595 0.9196 0.0
O25 O 0.23011 0.13649 0.91895 0.0
O26 O 0.20063 0.25869 0.93131 0.0
C27 C 0.84396 0.0556 0.95448 0.0
O28 O 1.01961 0.03568 0.17752 0.0
O29 O 0.98952 0.88966 0.20495 0.0
C30 C 0.98854 0.22219 0.09386 0.0
C31 C 1.01188 0.97179 0.22636 0.0
H32 H 0.84115 0.25069 0.06608 0.0
H33 H 0.10872 0.36785 0.18371 0.0
H34 H 0.88218 0.40782 1.01892 0.0
H35 H 0.15547 0.52292 0.13125 0.0
H36 H 0.21531 0.80759 0.0307 0.0
H37 H 0.17729 0.6606 0.09576 0.0
H38 H 0.96424 0.50834 0.91997 0.0
H39 H 0.99583 0.65815 0.86205 0.0
C40 C 0.90721 0.31076 0.08496 0.0
C41 C 0.97362 0.2962 0.12526 0.0
C42 C 0.93327 0.40113 0.05459 0.0
C43 C 1.02614 0.47894 0.06471 0.0
C44 C 0.08452 0.46632 0.11878 0.0
C45 C 0.05651 0.37656 0.1513 0.0
C46 C 0.1628 0.74264 1.00422 0.0
C47 C 0.10582 0.74515 0.94354 0.0
C48 C 0.13916 0.65682 0.04273 0.0
C49 C 0.06213 0.5703 1.01739 0.0
C50 C 1.01896 0.57265 0.94591 0.0
C51 C 0.04037 0.659 0.90966 0.0
H52 H 0.68882 0.90196 0.0254 0.0
H53 H 0.78022 0.17718 0.92091 0.0
H54 H 0.53754 0.88503 0.06208 0.0
H55 H 0.63289 0.16448 0.96274 0.0
H56 H 0.3258 0.08108 0.97527 0.0
H57 H 0.47444 0.09606 0.93969 0.0
H58 H 0.45682 0.93044 0.14762 0.0
H59 H 0.30304 0.91317 0.1814 0.0
C60 C 0.67623 0.95815 1.0089 0.0
C61 C 0.74671 0.03979 0.96849 0.0
C62 C 0.58985 0.94961 0.03179 0.0
C63 C 0.57173 0.02338 1.01605 0.0
C64 C 0.64219 0.10484 0.97492 0.0
C65 C 0.72757 0.11241 0.95088 0.0
C66 C 0.35443 0.0506 1.01508 0.0
C67 C 0.30318 0.99889 0.08264 0.0
C68 C 0.44056 0.05859 0.99428 0.0
C69 C 0.47976 1.01549 0.04077 0.0
C70 C 0.42915 0.96416 0.10947 0.0
C71 C 0.34152 0.9553 0.12973 0.0
H72 H 0.34482 0.38507 0.82926 0.0
H73 H 0.38724 0.23891 0.02445 0.0
H74 H 0.46523 0.53526 0.8795 0.0
H75 H 0.51468 0.38869 0.07186 0.0
H76 H 0.64932 0.66001 0.19945 0.0
H77 H 0.52702 0.51395 0.14062 0.0
H78 H 0.61327 0.64937 0.90947 0.0
H79 H 0.72894 0.79444 0.9691 0.0
C80 C 0.38484 0.38482 0.88008 0.0
C81 C 0.35696 0.29995 0.92239 0.0
C82 C 0.45343 0.4715 0.90994 0.0
C83 C 0.49819 0.47534 0.98177 0.0
C84 C 0.47917 0.38929 1.01823 0.0
C85 C 0.40868 0.30249 0.98917 0.0
C86 C 0.63724 0.65964 0.13667 0.0
C87 C 0.69573 0.73992 0.08932 0.0
C88 C 0.56961 0.57498 0.1023 0.0
C89 C 0.5613 0.56814 1.01958 0.0
C90 C 0.61568 0.65084 0.97312 0.0
C91 C 0.68126 0.73543 1.0076 0.0
H92 H 0.07686 0.93779 0.73491 0.0
H93 H 0.96644 0.12506 0.7048 0.0
H94 H 0.07958 0.92441 0.59254 0.0
H95 H 0.96506 0.10868 0.56264 0.0
H96 H 0.05949 0.13502 0.30611 0.0
H97 H 0.06461 0.15322 0.44913 0.0
H98 H 0.98444 0.86011 0.48326 0.0
H99 H 0.98387 0.8434 0.34292 0.0
C100 C 0.05089 0.97415 0.69793 0.0
C101 C 1.02118 0.03215 0.73114 0.0
C102 C 0.05262 0.96683 0.61609 0.0
C103 C 1.02314 1.01607 0.56552 0.0
C104 C 0.99046 0.07156 0.59925 0.0
C105 C 0.99002 0.07992 0.68093 0.0
C106 C 0.04423 0.07507 0.34436 0.0
C107 C 1.0216 0.98802 0.31253 0.0
C108 C 0.04618 0.08505 0.4264 0.0
C109 C 1.02477 1.00798 0.47821 0.0
C110 C 1.00317 0.92164 0.44589 0.0
C111 C 1.00225 0.91202 0.36465 0.0
loop_
_geom_bond_atom_site_label_1
_geom_bond_atom_site_label_2
_geom_bond_distance
_geom_bond_site_symmetry_2
_ccdc_geom_bond_type
Fe0 O1 1.886 1_554 S
Fe0 O4 1.715 1_455 S
Fe0 O9 2.077 1_455 S
Fe0 O14 1.935 1_455 S
Fe0 O20 2.077 . S
Fe0 O29 1.935 . S
O1 Fe0 1.886 1_556 S
O1 Fe3 1.715 1_565 S
Fe2 O4 1.886 . S
Fe2 O5 1.715 1_565 S
Fe2 O12 1.935 . S
Fe2 O13 2.077 . S
Fe2 O19 1.935 1_565 S
Fe2 O28 2.077 1_565 S
Fe3 O1 1.715 1_545 S
Fe3 O6 1.886 . S
Fe3 O10 1.935 1_545 S
Fe3 O15 2.077 1_545 S
Fe3 O21 1.935 . S
Fe3 O25 2.077 . S
O4 Fe0 1.715 1_655 S
O4 Fe2 1.886 . S
O5 Fe2 1.715 1_545 S
O5 Fe7 1.886 1_554 S
O6 Fe3 1.886 . S
O6 Fe7 1.715 1_455 S
Fe7 O5 1.886 1_556 S
Fe7 O6 1.715 1_655 S
Fe7 O11 2.077 . S
Fe7 O16 1.935 . S
Fe7 O18 2.077 1_655 S
Fe7 O26 1.935 1_655 S
C8 O20 1.381 . S
C8 O21 1.421 1_564 S
O9 Fe0 2.077 1_655 S
O9 C22 1.381 1_654 S
O10 Fe3 1.935 1_565 S
O10 C22 1.421 . S
O11 Fe7 2.077 . S
O11 C27 1.381 . S
O12 Fe2 1.935 . S
O12 C27 1.421 1_564 S
O13 Fe2 2.077 . S
O13 C17 1.381 . S
O14 Fe0 1.935 1_655 S
O14 C17 1.421 . S
O15 Fe3 2.077 1_565 S
O15 C23 1.381 1_565 S
O16 Fe7 1.935 . S
O16 C23 1.421 1_655 S
C17 O13 1.381 . S
C17 O14 1.421 . S
O18 Fe7 2.077 1_455 S
O18 C30 1.381 1_456 S
O19 Fe2 1.935 1_545 S
O19 C30 1.421 . S
O20 Fe0 2.077 . S
O20 C8 1.381 . S
O21 Fe3 1.935 . S
O21 C8 1.421 1_546 S
C22 O9 1.381 1_456 S
C22 O10 1.421 . S
C23 O15 1.381 1_545 S
C23 O16 1.421 1_455 S
C24 O25 1.381 . S
C24 O26 1.421 . S
O25 Fe3 2.077 . S
O25 C24 1.381 . S
O26 Fe7 1.935 1_455 S
O26 C24 1.421 . S
C27 O11 1.381 . S
C27 O12 1.421 1_546 S
O28 Fe2 2.077 1_545 S
O28 C31 1.381 1_545 S
O29 Fe0 1.935 . S
O29 C31 1.421 1_455 S
C30 O18 1.381 1_654 S
C30 O19 1.421 . S
C31 O28 1.381 1_565 S
C31 O29 1.421 1_655 S
H32 C40 0.950 . S
H33 C45 0.950 . S
H34 C42 0.950 . S
H35 C44 0.950 . S
H36 C46 0.950 . S
H37 C48 0.950 . S
H38 C50 0.950 . S
H39 C51 0.950 . S
C40 H32 0.950 . S
C40 C41 1.386 . S
C40 C42 1.391 . S
C41 C40 1.386 . S
C41 C45 1.392 1_655 S
C42 H34 0.950 . S
C42 C40 1.391 . S
C42 C43 1.401 1_655 S
C43 C42 1.401 1_455 S
C43 C44 1.397 . S
C43 C49 1.492 1_554 S
C44 H35 0.950 . S
C44 C43 1.397 . S
C44 C45 1.391 . S
C45 H33 0.950 . S
C45 C41 1.392 1_455 S
C45 C44 1.391 . S
C46 H36 0.950 . S
C46 C47 1.390 . S
C46 C48 1.391 . S
C47 C46 1.390 . S
C47 C51 1.391 1_455 S
C48 H37 0.950 . S
C48 C46 1.391 . S
C48 C49 1.401 . S
C49 C43 1.492 1_556 S
C49 C48 1.401 . S
C49 C50 1.397 1_455 S
C50 H38 0.950 . S
C50 C49 1.397 1_655 S
C50 C51 1.391 . S
C51 H39 0.950 . S
C51 C47 1.391 1_655 S
C51 C50 1.391 . S
H52 C60 0.950 . S
H53 C65 0.950 . S
H54 C62 0.950 . S
H55 C64 0.950 . S
H56 C66 0.950 . S
H57 C68 0.950 . S
H58 C70 0.950 . S
H59 C71 0.950 . S
C60 H52 0.950 . S
C60 C61 1.390 . S
C60 C62 1.391 . S
C61 C60 1.390 . S
C61 C65 1.382 1_565 S
C62 H54 0.950 . S
C62 C60 1.391 . S
C62 C63 1.407 . S
C63 C62 1.407 . S
C63 C64 1.396 1_566 S
C63 C69 1.481 1_566 S
C64 H55 0.950 . S
C64 C63 1.396 1_544 S
C64 C65 1.391 1_554 S
C65 H53 0.950 . S
C65 C61 1.382 1_545 S
C65 C64 1.391 1_556 S
C66 H56 0.950 . S
C66 C67 1.386 . S
C66 C68 1.391 . S
C67 C66 1.386 . S
C67 C71 1.393 1_545 S
C68 H57 0.950 . S
C68 C66 1.391 . S
C68 C69 1.410 . S
C69 C63 1.481 1_544 S
C69 C68 1.410 . S
C69 C70 1.395 1_544 S
C70 H58 0.950 . S
C70 C69 1.395 1_566 S
C70 C71 1.391 1_556 S
C71 H59 0.950 . S
C71 C67 1.393 1_565 S
C71 C70 1.391 1_554 S
H72 C80 0.950 . S
H73 C85 0.950 . S
H74 C82 0.950 . S
H75 C84 0.950 . S
H76 C86 0.950 . S
H77 C88 0.950 . S
H78 C90 0.950 . S
H79 C91 0.950 . S
C80 H72 0.950 . S
C80 C81 1.386 . S
C80 C82 1.391 . S
C81 C80 1.386 . S
C81 C85 1.393 1_556 S
C82 H74 0.950 . S
C82 C80 1.391 . S
C82 C83 1.400 . S
C83 C82 1.400 . S
C83 C84 1.398 1_556 S
C83 C89 1.491 1_556 S
C84 H75 0.950 . S
C84 C83 1.398 1_554 S
C84 C85 1.391 . S
C85 H73 0.950 . S
C85 C81 1.393 1_554 S
C85 C84 1.391 . S
C86 H76 0.950 . S
C86 C87 1.386 . S
C86 C88 1.391 . S
C87 C86 1.386 . S
C87 C91 1.393 1_554 S
C88 H77 0.950 . S
C88 C86 1.391 . S
C88 C89 1.400 . S
C89 C83 1.491 1_554 S
C89 C88 1.400 . S
C89 C90 1.398 1_554 S
C90 H78 0.950 . S
C90 C89 1.398 1_556 S
C90 C91 1.391 . S
C91 H79 0.950 . S
C91 C87 1.393 1_556 S
C91 C90 1.391 . S
H92 C100 0.950 . S
H93 C105 0.950 . S
H94 C102 0.950 . S
H95 C104 0.950 . S
H96 C106 0.950 . S
H97 C108 0.950 . S
H98 C110 0.950 . S
H99 C111 0.950 . S
C100 H92 0.950 . S
C100 C101 1.385 1_565 S
C100 C102 1.391 . S
C101 C100 1.385 1_545 S
C101 C105 1.393 1_655 S
C102 H94 0.950 . S
C102 C100 1.391 . S
C102 C103 1.401 1_565 S
C103 C102 1.401 1_545 S
C103 C104 1.398 1_655 S
C103 C109 1.490 1_645 S
C104 H95 0.950 . S
C104 C103 1.398 1_455 S
C104 C105 1.391 . S
C105 H93 0.950 . S
C105 C101 1.393 1_455 S
C105 C104 1.391 . S
C106 H96 0.950 . S
C106 C107 1.387 1_545 S
C106 C108 1.391 . S
C107 C106 1.387 1_565 S
C107 C111 1.391 1_455 S
C108 H97 0.950 . S
C108 C106 1.391 . S
C108 C109 1.403 1_545 S
C109 C103 1.490 1_465 S
C109 C108 1.403 1_565 S
C109 C110 1.396 1_455 S
C110 H98 0.950 . S
C110 C109 1.396 1_655 S
C110 C111 1.391 . S
C111 H99 0.950 . S
C111 C107 1.391 1_655 S
C111 C110 1.391 . S
C41 C30 1.503 . S
C47 C22 1.502 . S
C61 C27 1.427 1_565 S
C67 C8 1.422 1_545 S
C81 C24 1.585 . S
C87 C17 1.585 . S
C101 C23 1.443 1_655 S
C107 C31 1.443 1_455 S
