# Generated by pormake.
# Topology cdl, (4)-cn, num edge types: 1
# Building blocks:
#     Node 0, Type 0, BuildingBlock: NAWXER_clean_sbu_0, # of connection points: 4
#     Node 1, Type 0, BuildingBlock: NAWXER_clean_sbu_0, # of connection points: 4
#     Node 2, Type 0, BuildingBlock: NAWXER_clean_sbu_0, # of connection points: 4
#     Node 3, Type 0, BuildingBlock: NAWXER_clean_sbu_0, # of connection points: 4
#     Edge 4, Type (0, 0), BuildingBlock: UKIBIB_clean_linker_0, # of connection points: 2
#     Edge 5, Type (0, 0), BuildingBlock: UKIBIB_clean_linker_0, # of connection points: 2
#     Edge 6, Type (0, 0), BuildingBlock: UKIBIB_clean_linker_0, # of connection points: 2
#     Edge 7, Type (0, 0), BuildingBlock: UKIBIB_clean_linker_0, # of connection points: 2
#     Edge 8, Type (0, 0), BuildingBlock: UKIBIB_clean_linker_0, # of connection points: 2
#     Edge 9, Type (0, 0), BuildingBlock: UKIBIB_clean_linker_0, # of connection points: 2
#     Edge 10, Type (0, 0), BuildingBlock: UKIBIB_clean_linker_0, # of connection points: 2
#     Edge 11, Type (0, 0), BuildingBlock: UKIBIB_clean_linker_0, # of connection points: 2
# Relax obj value: 0.000
# Max RMSD: 0.003
# Mean RMSD: 0.003
data_MOF--net-cdl--node1-NAWXER_clean_sbu_0--edge1-UKIBIB_clean_linker_0
_symmetry_space_group_name_H-M    P1
_symmetry_Int_Tables_number       1
_symmetry_cell_setting            triclinic
loop_
_symmetry_equiv_pos_as_xyz
'x, y, z'
_cell_length_a     20.420087
_cell_length_b     20.350431
_cell_length_c     81.741298
_cell_angle_alpha  97.37404
_cell_angle_beta   97.386766
_cell_angle_gamma 88.710031
loop_
_atom_site_label
_atom_site_type_symbol
_atom_site_fract_x
_atom_site_fract_y
_atom_site_fract_z
_atom_type_partial_charge
C0 C 0.06346 0.18631 0.12292 0.0
C1 C 0.06305 0.93051 0.11981 0.0
O2 O 0.11802 0.15515 0.12413 0.0
Zn3 Zn 0.135 0.05763 0.12337 0.0
O4 O 0.00872 0.15637 0.12122 0.0
Zn5 Zn 0.99203 0.05904 0.11934 0.0
O6 O 0.00913 0.06643 0.14418 0.0
O7 O 0.11829 0.06024 0.14722 0.0
O8 O 0.00874 0.96205 0.11963 0.0
O9 O 0.11754 0.96007 0.12044 0.0
O10 O 0.11795 0.05615 0.09867 0.0
O11 O 0.00889 0.05078 0.09536 0.0
C12 C 0.06402 0.06418 0.15334 0.0
C13 C 0.0631 0.05274 0.08935 0.0
C14 C 0.18494 0.06491 0.62283 0.0
C15 C 0.92873 0.06496 0.61985 0.0
O16 O 0.15437 0.01022 0.62064 0.0
Zn17 Zn 0.05682 0.99377 0.61906 0.0
O18 O 0.15442 0.11987 0.62458 0.0
Zn19 Zn 0.05687 0.13623 0.62365 0.0
O20 O 0.06267 0.12006 0.64747 0.0
O21 O 0.06119 0.01074 0.64387 0.0
O22 O 0.95926 0.11966 0.62191 0.0
O23 O 0.95929 0.00999 0.61824 0.0
O24 O 0.0502 0.00996 0.59528 0.0
O25 O 0.05317 0.1193 0.59881 0.0
C26 C 0.06254 0.06532 0.65339 0.0
C27 C 0.05102 0.06456 0.58934 0.0
C28 C 0.05373 0.18974 0.87269 0.0
C29 C 0.0533 0.93395 0.86957 0.0
O30 O 0.10828 0.1586 0.87315 0.0
Zn31 Zn 0.125 0.06183 0.87316 0.0
O32 O -0.00068 0.15969 0.87178 0.0
Zn33 Zn 0.98204 0.0619 0.86909 0.0
O34 O -0.00085 0.06366 0.89379 0.0
O35 O 0.10817 0.0698 0.89714 0.0
O36 O -0.00134 0.96497 0.86886 0.0
O37 O 0.10776 0.9641 0.87072 0.0
O38 O 0.10816 0.0587 0.84844 0.0
O39 O -0.00107 0.05525 0.84513 0.0
C40 C 0.05396 0.06745 0.90313 0.0
C41 C 0.05328 0.0561 0.83915 0.0
C42 C 0.1881 0.05536 0.37265 0.0
C43 C 0.93225 0.05518 0.36963 0.0
O44 O 0.15795 0.00066 0.37135 0.0
Zn45 Zn 0.06078 0.98371 0.369 0.0
O46 O 0.1566 0.10995 0.37358 0.0
Zn47 Zn 0.05958 0.12652 0.37324 0.0
O48 O 0.0661 0.10999 0.39709 0.0
O49 O 0.06412 0.0006 0.39375 0.0
O50 O 0.96253 0.10995 0.37136 0.0
O51 O 0.96359 0.00055 0.36827 0.0
O52 O 0.05676 0.00016 0.34517 0.0
O53 O 0.05377 0.10952 0.34845 0.0
C54 C 0.06574 0.05553 0.40313 0.0
C55 C 0.05465 0.05471 0.3391 0.0
C56 C 0.04319 0.30078 0.13571 0.0
C57 C 0.06357 0.25773 0.12252 0.0
C58 C 0.04346 0.36911 0.13529 0.0
C59 C 0.08368 0.81607 0.10702 0.0
C60 C 0.06318 0.85906 0.12021 0.0
C61 C 0.08338 0.74773 0.10742 0.0
H62 H 0.09846 0.2502 0.09842 0.0
H63 H 0.09766 0.37069 0.09754 0.0
H64 H 0.02816 0.86644 0.14429 0.0
H65 H 0.02908 0.74596 0.14515 0.0
C66 C 0.08333 0.28318 0.10878 0.0
C67 C 0.08273 0.35151 0.10826 0.0
C68 C 0.04334 0.83352 0.13393 0.0
C69 C 0.04401 0.76519 0.13443 0.0
C70 C 0.06314 0.39453 0.12157 0.0
C71 C 0.06352 0.46478 0.12125 0.0
C72 C 0.06343 0.52382 0.12125 0.0
C73 C 0.06365 0.72224 0.12112 0.0
C74 C 0.06326 0.65198 0.12143 0.0
C75 C 0.06333 0.59294 0.12142 0.0
H76 H 0.02788 0.28155 0.14638 0.0
H77 H 0.02836 0.40205 0.14566 0.0
H78 H 0.09897 0.83534 0.09636 0.0
H79 H 0.09848 0.71484 0.09704 0.0
C80 C 0.28147 0.06082 0.60714 0.0
C81 C 0.2563 0.06473 0.62242 0.0
C82 C 0.3497 0.06106 0.60671 0.0
C83 C 0.83217 0.06913 0.63553 0.0
C84 C 0.85736 0.06521 0.62025 0.0
C85 C 0.76394 0.06894 0.63595 0.0
H86 H 0.28069 0.07215 0.64912 0.0
H87 H 0.40082 0.07212 0.64838 0.0
H88 H 0.83298 0.05786 0.59355 0.0
H89 H 0.71285 0.05794 0.59428 0.0
C90 C 0.29962 0.06901 0.63725 0.0
C91 C 0.36782 0.06901 0.63682 0.0
C92 C 0.81404 0.061 0.60542 0.0
C93 C 0.74585 0.06102 0.60584 0.0
C94 C 0.39301 0.06504 0.62157 0.0
C95 C 0.46326 0.06498 0.62122 0.0
C96 C 0.52226 0.06501 0.62124 0.0
C97 C 0.72064 0.06498 0.6211 0.0
C98 C 0.65039 0.06505 0.62144 0.0
C99 C 0.59139 0.06503 0.62142 0.0
H100 H 0.24838 0.0578 0.59559 0.0
H101 H 0.36857 0.05811 0.59484 0.0
H102 H 0.86525 0.07213 0.64708 0.0
H103 H 0.74506 0.0719 0.64783 0.0
C104 C 0.08291 0.28742 0.85994 0.0
C105 C 0.05343 0.26124 0.87226 0.0
C106 C 0.08223 0.35569 0.85938 0.0
C107 C 0.02425 0.83635 0.88236 0.0
C108 C 0.05359 0.86247 0.87 0.0
C109 C 0.0249 0.76807 0.88291 0.0
H110 H 0.00066 0.28402 0.89363 0.0
H111 H 0.00131 0.4045 0.89297 0.0
H112 H 0.10621 0.83964 0.84861 0.0
H113 H 0.10557 0.71917 0.84929 0.0
C114 C 0.02335 0.30368 0.88402 0.0
C115 C 0.02376 0.37203 0.88364 0.0
C116 C 0.08358 0.82 0.85823 0.0
C117 C 0.08319 0.75166 0.85862 0.0
C118 C 0.05309 0.39806 0.87132 0.0
C119 C 0.05366 0.46829 0.87105 0.0
C120 C 0.05358 0.52732 0.87106 0.0
C121 C 0.05394 0.72567 0.87096 0.0
C122 C 0.05336 0.65543 0.87123 0.0
C123 C 0.05343 0.5964 0.87122 0.0
H124 H 0.10558 0.255 0.85064 0.0
H125 H 0.10462 0.37534 0.84972 0.0
H126 H 0.00172 0.86881 0.89167 0.0
H127 H 0.00259 0.74844 0.89259 0.0
C128 C 0.29145 0.11214 0.36897 0.0
C129 C 0.26008 0.05536 0.37231 0.0
C130 C 0.35945 0.11183 0.36837 0.0
C131 C 0.829 -0.00175 0.37331 0.0
C132 C 0.86029 0.05508 0.36997 0.0
C133 C 0.761 -0.00152 0.37391 0.0
H134 H 0.27503 0.95356 0.37736 0.0
H135 H 0.39448 0.95377 0.37652 0.0
H136 H 0.84527 0.15686 0.36493 0.0
H137 H 0.7258 0.15653 0.36576 0.0
C138 C 0.29788 -0.00189 0.37485 0.0
C139 C 0.36594 -0.00192 0.37435 0.0
C140 C 0.82244 0.11229 0.36744 0.0
C141 C 0.75438 0.11225 0.36793 0.0
C142 C 0.39679 0.05499 0.37119 0.0
C143 C 0.46694 0.05534 0.37112 0.0
C144 C 0.52576 0.05521 0.37109 0.0
C145 C 0.72359 0.05529 0.37109 0.0
C146 C 0.65344 0.05488 0.37116 0.0
C147 C 0.59462 0.05501 0.37119 0.0
H148 H 0.26344 0.1566 0.36668 0.0
H149 H 0.38285 0.156 0.36579 0.0
H150 H 0.85708 0.95383 0.3756 0.0
H151 H 0.73765 0.95428 0.37649 0.0
C152 C 0.09401 0.11007 0.93258 0.0
C153 C 0.05475 0.06566 0.92105 0.0
C154 C 0.0944 0.10829 0.94962 0.0
C155 C 0.02296 0.01015 0.05991 0.0
C156 C 0.06224 0.05455 0.07143 0.0
C157 C 0.02252 0.01196 0.04287 0.0
H158 H 0.98709 0.98318 0.91801 0.0
H159 H 0.98919 0.9791 0.94801 0.0
H160 H 0.12984 0.13708 0.07447 0.0
H161 H 0.12765 0.14121 0.04447 0.0
C162 C 0.01685 0.0186 0.92675 0.0
C163 C 0.0182 0.01608 0.9438 0.0
C164 C 0.10008 0.10166 0.06573 0.0
C165 C 0.09867 0.10421 0.04868 0.0
C166 C 0.05659 0.0613 0.95527 0.0
C167 C 0.05685 0.06006 0.97283 0.0
C168 C 0.05781 0.05991 0.98759 0.0
C169 C 0.0603 0.05898 0.03721 0.0
C170 C 0.06002 0.06022 0.01965 0.0
C171 C 0.05906 0.06037 0.00489 0.0
H172 H 0.12341 0.14677 0.92839 0.0
H173 H 0.12413 0.14364 0.95838 0.0
H174 H 0.99359 0.97344 0.0641 0.0
H175 H 0.99279 0.97661 0.03411 0.0
C176 C 0.0841 0.1127 0.43227 0.0
C177 C 0.06418 0.05616 0.42112 0.0
C178 C 0.08198 0.1134 0.44929 0.0
C179 C 0.03271 0.00758 0.56019 0.0
C180 C 0.05258 0.06412 0.57135 0.0
C181 C 0.03499 0.00687 0.54318 0.0
H182 H 0.02415 0.957 0.41896 0.0
H183 H 0.02023 0.95881 0.44885 0.0
H184 H 0.09276 0.1632 0.57354 0.0
H185 H 0.09687 0.16143 0.54365 0.0
C186 C 0.04096 0.00081 0.42729 0.0
C187 C 0.03834 0.00183 0.44431 0.0
C188 C 0.07594 0.11944 0.5652 0.0
C189 C 0.07868 0.11841 0.54818 0.0
C190 C 0.05933 0.05794 0.45534 0.0
C191 C 0.05867 0.05834 0.47288 0.0
C192 C 0.0584 0.05941 0.48761 0.0
C193 C 0.05771 0.06233 0.53715 0.0
C194 C 0.05842 0.06194 0.5196 0.0
C195 C 0.05871 0.06084 0.50487 0.0
H196 H 0.10195 0.15611 0.42785 0.0
H197 H 0.09826 0.15712 0.45773 0.0
H198 H 0.01482 0.96415 0.56458 0.0
H199 H 0.01876 0.96315 0.53473 0.0
C200 C 0.0415 0.11279 0.31368 0.0
C201 C 0.05619 0.05464 0.32109 0.0
C202 C 0.04384 0.11296 0.29668 0.0
C203 C 0.08309 0.00418 0.17812 0.0
C204 C 0.06439 0.06242 0.17118 0.0
C205 C 0.08206 0.00186 0.1951 0.0
H206 H 0.08703 0.95176 0.3166 0.0
H207 H 0.09113 0.95255 0.28681 0.0
H208 H 0.02977 0.16338 0.17607 0.0
H209 H 0.02964 0.15988 0.20605 0.0
C210 C 0.07435 -0.003 0.31121 0.0
C211 C 0.07704 -0.0026 0.29423 0.0
C212 C 0.04448 0.11819 0.1813 0.0
C213 C 0.04434 0.11615 0.19832 0.0
C214 C 0.06134 0.05523 0.28693 0.0
C215 C 0.06224 0.05508 0.26938 0.0
C216 C 0.06294 0.05518 0.25468 0.0
C217 C 0.06308 0.058 0.20525 0.0
C218 C 0.06322 0.05623 0.22277 0.0
C219 C 0.0631 0.05546 0.23746 0.0
H220 H 0.02774 0.15805 0.32097 0.0
H221 H 0.03175 0.15806 0.29116 0.0
H222 H 0.09762 0.96039 0.17037 0.0
H223 H 0.09617 0.95645 0.2003 0.0
C224 C 0.04651 0.00646 0.67763 0.0
C225 C 0.06082 0.06511 0.67139 0.0
C226 C 0.04383 0.00644 0.69462 0.0
C227 C 0.0676 0.11745 0.81555 0.0
C228 C 0.05275 0.05818 0.82132 0.0
C229 C 0.06758 0.11968 0.79853 0.0
H230 H 0.08219 0.1699 0.67803 0.0
H231 H 0.0781 0.16922 0.70781 0.0
H232 H 0.02694 0.95503 0.81433 0.0
H233 H 0.02802 0.95861 0.78438 0.0
C234 C 0.07155 0.12385 0.68246 0.0
C235 C 0.06913 0.12362 0.69945 0.0
C236 C 0.03811 0.00115 0.81 0.0
C237 C 0.03881 0.00321 0.793 0.0
C238 C 0.05559 0.0649 0.70556 0.0
C239 C 0.05473 0.06452 0.72309 0.0
C240 C 0.05411 0.06467 0.7378 0.0
C241 C 0.05342 0.06246 0.78723 0.0
C242 C 0.05387 0.06432 0.76974 0.0
C243 C 0.054 0.06481 0.75503 0.0
H244 H 0.03695 0.96065 0.6694 0.0
H245 H 0.03283 0.96077 0.6992 0.0
H246 H 0.07874 0.16197 0.82419 0.0
H247 H 0.07873 0.16586 0.79421 0.0
loop_
_geom_bond_atom_site_label_1
_geom_bond_atom_site_label_2
_geom_bond_distance
_geom_bond_site_symmetry_2
_ccdc_geom_bond_type
C0 O2 1.247 . S
C0 O4 1.258 . S
C1 O8 1.247 . S
C1 O9 1.258 . S
O2 C0 1.247 . S
O2 Zn3 2.028 . S
Zn3 O2 2.028 . S
Zn3 O7 2.035 . S
Zn3 O9 2.035 1_545 S
Zn3 O10 2.028 . S
O4 C0 1.258 . S
O4 Zn5 2.035 1_455 S
Zn5 O4 2.035 1_655 S
Zn5 O6 2.028 1_655 S
Zn5 O8 2.028 1_645 S
Zn5 O11 2.035 1_655 S
O6 Zn5 2.028 1_455 S
O6 C12 1.247 . S
O7 Zn3 2.035 . S
O7 C12 1.258 . S
O8 C1 1.247 . S
O8 Zn5 2.028 1_465 S
O9 C1 1.258 . S
O9 Zn3 2.035 1_565 S
O10 Zn3 2.028 . S
O10 C13 1.247 . S
O11 Zn5 2.035 1_455 S
O11 C13 1.258 . S
C12 O6 1.247 . S
C12 O7 1.258 . S
C13 O10 1.247 . S
C13 O11 1.258 . S
C14 O16 1.247 . S
C14 O18 1.258 . S
C15 O22 1.247 . S
C15 O23 1.258 . S
O16 C14 1.247 . S
O16 Zn17 2.028 1_545 S
Zn17 O16 2.028 1_565 S
Zn17 O21 2.035 1_565 S
Zn17 O23 2.035 1_465 S
Zn17 O24 2.028 1_565 S
O18 C14 1.258 . S
O18 Zn19 2.035 . S
Zn19 O18 2.035 . S
Zn19 O20 2.028 . S
Zn19 O22 2.028 1_455 S
Zn19 O25 2.035 . S
O20 Zn19 2.028 . S
O20 C26 1.247 . S
O21 Zn17 2.035 1_545 S
O21 C26 1.258 . S
O22 C15 1.247 . S
O22 Zn19 2.028 1_655 S
O23 C15 1.258 . S
O23 Zn17 2.035 1_645 S
O24 Zn17 2.028 1_545 S
O24 C27 1.247 . S
O25 Zn19 2.035 . S
O25 C27 1.258 . S
C26 O20 1.247 . S
C26 O21 1.258 . S
C27 O24 1.247 . S
C27 O25 1.258 . S
C28 O30 1.247 . S
C28 O32 1.258 . S
C29 O36 1.247 . S
C29 O37 1.258 . S
O30 C28 1.247 . S
O30 Zn31 2.028 . S
Zn31 O30 2.028 . S
Zn31 O35 2.035 . S
Zn31 O37 2.035 1_545 S
Zn31 O38 2.028 . S
O32 C28 1.258 . S
O32 Zn33 2.035 1_455 S
Zn33 O32 2.035 1_655 S
Zn33 O34 2.028 1_655 S
Zn33 O36 2.028 1_645 S
Zn33 O39 2.035 1_655 S
O34 Zn33 2.028 1_455 S
O34 C40 1.247 . S
O35 Zn31 2.035 . S
O35 C40 1.258 . S
O36 C29 1.247 . S
O36 Zn33 2.028 1_465 S
O37 C29 1.258 . S
O37 Zn31 2.035 1_565 S
O38 Zn31 2.028 . S
O38 C41 1.247 . S
O39 Zn33 2.035 1_455 S
O39 C41 1.258 . S
C40 O34 1.247 . S
C40 O35 1.258 . S
C41 O38 1.247 . S
C41 O39 1.258 . S
C42 O44 1.247 . S
C42 O46 1.258 . S
C43 O50 1.247 . S
C43 O51 1.258 . S
O44 C42 1.247 . S
O44 Zn45 2.028 1_545 S
Zn45 O44 2.028 1_565 S
Zn45 O49 2.035 1_565 S
Zn45 O51 2.035 1_465 S
Zn45 O52 2.028 1_565 S
O46 C42 1.258 . S
O46 Zn47 2.035 . S
Zn47 O46 2.035 . S
Zn47 O48 2.028 . S
Zn47 O50 2.028 1_455 S
Zn47 O53 2.035 . S
O48 Zn47 2.028 . S
O48 C54 1.247 . S
O49 Zn45 2.035 1_545 S
O49 C54 1.258 . S
O50 C43 1.247 . S
O50 Zn47 2.028 1_655 S
O51 C43 1.258 . S
O51 Zn45 2.035 1_645 S
O52 Zn45 2.028 1_545 S
O52 C55 1.247 . S
O53 Zn47 2.035 . S
O53 C55 1.258 . S
C54 O48 1.247 . S
C54 O49 1.258 . S
C55 O52 1.247 . S
C55 O53 1.258 . S
C56 C57 1.332 . S
C56 C58 1.345 . S
C56 H76 0.932 . S
C57 C56 1.332 . S
C57 C66 1.332 . S
C58 C56 1.345 . S
C58 C70 1.334 . S
C58 H77 0.928 . S
C59 C60 1.332 . S
C59 C61 1.345 . S
C59 H78 0.932 . S
C60 C59 1.332 . S
C60 C68 1.332 . S
C61 C59 1.345 . S
C61 C73 1.334 . S
C61 H79 0.928 . S
H62 C66 0.932 . S
H63 C67 0.928 . S
H64 C68 0.932 . S
H65 C69 0.928 . S
C66 C57 1.332 . S
C66 H62 0.932 . S
C66 C67 1.345 . S
C67 H63 0.928 . S
C67 C66 1.345 . S
C67 C70 1.334 . S
C68 C60 1.332 . S
C68 H64 0.932 . S
C68 C69 1.345 . S
C69 H65 0.928 . S
C69 C68 1.345 . S
C69 C73 1.334 . S
C70 C58 1.334 . S
C70 C67 1.334 . S
C70 C71 1.487 . S
C71 C70 1.487 . S
C71 C72 1.185 . S
C72 C71 1.185 . S
C72 C75 1.482 . S
C73 C61 1.334 . S
C73 C69 1.334 . S
C73 C74 1.487 . S
C74 C73 1.487 . S
C74 C75 1.185 . S
C75 C72 1.482 . S
C75 C74 1.185 . S
H76 C56 0.932 . S
H77 C58 0.928 . S
H78 C59 0.932 . S
H79 C61 0.928 . S
C80 C81 1.332 . S
C80 C82 1.345 . S
C80 H100 0.932 . S
C81 C80 1.332 . S
C81 C90 1.332 . S
C82 C80 1.345 . S
C82 C94 1.334 . S
C82 H101 0.928 . S
C83 C84 1.332 . S
C83 C85 1.345 . S
C83 H102 0.932 . S
C84 C83 1.332 . S
C84 C92 1.332 . S
C85 C83 1.345 . S
C85 C97 1.334 . S
C85 H103 0.928 . S
H86 C90 0.932 . S
H87 C91 0.928 . S
H88 C92 0.932 . S
H89 C93 0.928 . S
C90 C81 1.332 . S
C90 H86 0.932 . S
C90 C91 1.345 . S
C91 H87 0.928 . S
C91 C90 1.345 . S
C91 C94 1.334 . S
C92 C84 1.332 . S
C92 H88 0.932 . S
C92 C93 1.345 . S
C93 H89 0.928 . S
C93 C92 1.345 . S
C93 C97 1.334 . S
C94 C82 1.334 . S
C94 C91 1.334 . S
C94 C95 1.487 . S
C95 C94 1.487 . S
C95 C96 1.185 . S
C96 C95 1.185 . S
C96 C99 1.482 . S
C97 C85 1.334 . S
C97 C93 1.334 . S
C97 C98 1.487 . S
C98 C97 1.487 . S
C98 C99 1.185 . S
C99 C96 1.482 . S
C99 C98 1.185 . S
H100 C80 0.932 . S
H101 C82 0.928 . S
H102 C83 0.932 . S
H103 C85 0.928 . S
C104 C105 1.332 . S
C104 C106 1.345 . S
C104 H124 0.932 . S
C105 C104 1.332 . S
C105 C114 1.332 . S
C106 C104 1.345 . S
C106 C118 1.334 . S
C106 H125 0.928 . S
C107 C108 1.332 . S
C107 C109 1.345 . S
C107 H126 0.932 . S
C108 C107 1.332 . S
C108 C116 1.332 . S
C109 C107 1.345 . S
C109 C121 1.334 . S
C109 H127 0.928 . S
H110 C114 0.932 . S
H111 C115 0.928 . S
H112 C116 0.932 . S
H113 C117 0.928 . S
C114 C105 1.332 . S
C114 H110 0.932 . S
C114 C115 1.345 . S
C115 H111 0.928 . S
C115 C114 1.345 . S
C115 C118 1.334 . S
C116 C108 1.332 . S
C116 H112 0.932 . S
C116 C117 1.345 . S
C117 H113 0.928 . S
C117 C116 1.345 . S
C117 C121 1.334 . S
C118 C106 1.334 . S
C118 C115 1.334 . S
C118 C119 1.487 . S
C119 C118 1.487 . S
C119 C120 1.185 . S
C120 C119 1.185 . S
C120 C123 1.482 . S
C121 C109 1.334 . S
C121 C117 1.334 . S
C121 C122 1.487 . S
C122 C121 1.487 . S
C122 C123 1.185 . S
C123 C120 1.482 . S
C123 C122 1.185 . S
H124 C104 0.932 . S
H125 C106 0.928 . S
H126 C107 0.932 . S
H127 C109 0.928 . S
C128 C129 1.332 . S
C128 C130 1.345 . S
C128 H148 0.932 . S
C129 C128 1.332 . S
C129 C138 1.332 . S
C130 C128 1.345 . S
C130 C142 1.334 . S
C130 H149 0.928 . S
C131 C132 1.332 . S
C131 C133 1.345 . S
C131 H150 0.932 1_545 S
C132 C131 1.332 . S
C132 C140 1.332 . S
C133 C131 1.345 . S
C133 C145 1.334 . S
C133 H151 0.928 1_545 S
H134 C138 0.932 1_565 S
H135 C139 0.928 1_565 S
H136 C140 0.932 . S
H137 C141 0.928 . S
C138 C129 1.332 . S
C138 H134 0.932 1_545 S
C138 C139 1.345 . S
C139 H135 0.928 1_545 S
C139 C138 1.345 . S
C139 C142 1.334 . S
C140 C132 1.332 . S
C140 H136 0.932 . S
C140 C141 1.345 . S
C141 H137 0.928 . S
C141 C140 1.345 . S
C141 C145 1.334 . S
C142 C130 1.334 . S
C142 C139 1.334 . S
C142 C143 1.487 . S
C143 C142 1.487 . S
C143 C144 1.185 . S
C144 C143 1.185 . S
C144 C147 1.482 . S
C145 C133 1.334 . S
C145 C141 1.334 . S
C145 C146 1.487 . S
C146 C145 1.487 . S
C146 C147 1.185 . S
C147 C144 1.482 . S
C147 C146 1.185 . S
H148 C128 0.932 . S
H149 C130 0.928 . S
H150 C131 0.932 1_565 S
H151 C133 0.928 1_565 S
C152 C153 1.332 . S
C152 C154 1.345 . S
C152 H172 0.932 . S
C153 C152 1.332 . S
C153 C162 1.332 . S
C154 C152 1.345 . S
C154 C166 1.334 . S
C154 H173 0.928 . S
C155 C156 1.332 . S
C155 C157 1.345 . S
C155 H174 0.932 1_545 S
C156 C155 1.332 . S
C156 C164 1.332 . S
C157 C155 1.345 . S
C157 C169 1.334 . S
C157 H175 0.928 1_545 S
H158 C162 0.939 1_565 S
H159 C163 0.928 1_565 S
H160 C164 0.932 . S
H161 C165 0.928 . S
C162 C153 1.332 . S
C162 H158 0.939 1_545 S
C162 C163 1.345 . S
C163 H159 0.928 1_545 S
C163 C162 1.345 . S
C163 C166 1.334 . S
C164 C156 1.332 . S
C164 H160 0.932 . S
C164 C165 1.345 . S
C165 H161 0.928 . S
C165 C164 1.345 . S
C165 C169 1.334 . S
C166 C154 1.334 . S
C166 C163 1.334 . S
C166 C167 1.487 . S
C167 C166 1.487 . S
C167 C168 1.185 . S
C168 C167 1.185 . S
C168 C171 1.482 1_556 S
C169 C157 1.334 . S
C169 C165 1.334 . S
C169 C170 1.487 . S
C170 C169 1.487 . S
C170 C171 1.185 . S
C171 C168 1.482 1_554 S
C171 C170 1.185 . S
H172 C152 0.932 . S
H173 C154 0.928 . S
H174 C155 0.932 1_565 S
H175 C157 0.928 1_565 S
C176 C177 1.332 . S
C176 C178 1.345 . S
C176 H196 0.932 . S
C177 C176 1.332 . S
C177 C186 1.332 . S
C178 C176 1.345 . S
C178 C190 1.334 . S
C178 H197 0.928 . S
C179 C180 1.332 . S
C179 C181 1.345 . S
C179 H198 0.932 1_545 S
C180 C179 1.332 . S
C180 C188 1.332 . S
C181 C179 1.345 . S
C181 C193 1.334 . S
C181 H199 0.928 1_545 S
H182 C186 0.932 1_565 S
H183 C187 0.928 1_565 S
H184 C188 0.932 . S
H185 C189 0.928 . S
C186 C177 1.332 . S
C186 H182 0.932 1_545 S
C186 C187 1.345 . S
C187 H183 0.928 1_545 S
C187 C186 1.345 . S
C187 C190 1.334 . S
C188 C180 1.332 . S
C188 H184 0.932 . S
C188 C189 1.345 . S
C189 H185 0.928 . S
C189 C188 1.345 . S
C189 C193 1.334 . S
C190 C178 1.334 . S
C190 C187 1.334 . S
C190 C191 1.487 . S
C191 C190 1.487 . S
C191 C192 1.185 . S
C192 C191 1.185 . S
C192 C195 1.482 . S
C193 C181 1.334 . S
C193 C189 1.334 . S
C193 C194 1.487 . S
C194 C193 1.487 . S
C194 C195 1.185 . S
C195 C192 1.482 . S
C195 C194 1.185 . S
H196 C176 0.932 . S
H197 C178 0.928 . S
H198 C179 0.932 1_565 S
H199 C181 0.928 1_565 S
C200 C201 1.332 . S
C200 C202 1.345 . S
C200 H220 0.932 . S
C201 C200 1.332 . S
C201 C210 1.332 . S
C202 C200 1.345 . S
C202 C214 1.334 . S
C202 H221 0.928 . S
C203 C204 1.332 . S
C203 C205 1.345 . S
C203 H222 0.932 1_545 S
C204 C203 1.332 . S
C204 C212 1.332 . S
C205 C203 1.345 . S
C205 C217 1.334 . S
C205 H223 0.928 1_545 S
H206 C210 0.932 1_565 S
H207 C211 0.928 1_565 S
H208 C212 0.932 . S
H209 C213 0.928 . S
C210 C201 1.332 . S
C210 H206 0.932 1_545 S
C210 C211 1.345 . S
C211 H207 0.928 1_545 S
C211 C210 1.345 . S
C211 C214 1.334 . S
C212 C204 1.332 . S
C212 H208 0.932 . S
C212 C213 1.345 . S
C213 H209 0.928 . S
C213 C212 1.345 . S
C213 C217 1.334 . S
C214 C202 1.334 . S
C214 C211 1.334 . S
C214 C215 1.487 . S
C215 C214 1.487 . S
C215 C216 1.185 . S
C216 C215 1.185 . S
C216 C219 1.482 . S
C217 C205 1.334 . S
C217 C213 1.334 . S
C217 C218 1.487 . S
C218 C217 1.487 . S
C218 C219 1.185 . S
C219 C216 1.482 . S
C219 C218 1.185 . S
H220 C200 0.932 . S
H221 C202 0.928 . S
H222 C203 0.932 1_565 S
H223 C205 0.928 1_565 S
C224 C225 1.332 . S
C224 C226 1.345 . S
C224 H244 0.932 1_545 S
C225 C224 1.332 . S
C225 C234 1.332 . S
C226 C224 1.345 . S
C226 C238 1.334 . S
C226 H245 0.928 1_545 S
C227 C228 1.332 . S
C227 C229 1.345 . S
C227 H246 0.932 . S
C228 C227 1.332 . S
C228 C236 1.332 . S
C229 C227 1.345 . S
C229 C241 1.334 . S
C229 H247 0.928 . S
H230 C234 0.932 . S
H231 C235 0.928 . S
H232 C236 0.932 1_565 S
H233 C237 0.928 1_565 S
C234 C225 1.332 . S
C234 H230 0.932 . S
C234 C235 1.345 . S
C235 H231 0.928 . S
C235 C234 1.345 . S
C235 C238 1.334 . S
C236 C228 1.332 . S
C236 H232 0.932 1_545 S
C236 C237 1.345 . S
C237 H233 0.928 1_545 S
C237 C236 1.345 . S
C237 C241 1.334 . S
C238 C226 1.334 . S
C238 C235 1.334 . S
C238 C239 1.487 . S
C239 C238 1.487 . S
C239 C240 1.185 . S
C240 C239 1.185 . S
C240 C243 1.482 . S
C241 C229 1.334 . S
C241 C237 1.334 . S
C241 C242 1.487 . S
C242 C241 1.487 . S
C242 C243 1.185 . S
C243 C240 1.482 . S
C243 C242 1.185 . S
H244 C224 0.932 1_565 S
H245 C226 0.928 1_565 S
H246 C227 0.932 . S
H247 C229 0.928 . S
C57 C0 1.498 . S
C60 C1 1.498 . S
C81 C14 1.498 . S
C84 C15 1.498 . S
C105 C28 1.498 . S
C108 C29 1.498 . S
C129 C42 1.498 . S
C132 C43 1.498 . S
C153 C40 1.499 . S
C156 C13 1.499 . S
C177 C54 1.498 . S
C180 C27 1.498 . S
C201 C55 1.499 . S
C204 C12 1.499 . S
C225 C26 1.499 . S
C228 C41 1.499 . S
