# Generated by pormake.
# Topology snk, (6)-cn, num edge types: 1
# Building blocks:
#     Node 0, Type 0, BuildingBlock: LEVNOQ01_clean_sbu_1, # of connection points: 6
#     Node 1, Type 0, BuildingBlock: LEVNOQ01_clean_sbu_1, # of connection points: 6
#     Node 2, Type 0, BuildingBlock: LEVNOQ01_clean_sbu_1, # of connection points: 6
#     Node 3, Type 0, BuildingBlock: LEVNOQ01_clean_sbu_1, # of connection points: 6
#     Node 4, Type 0, BuildingBlock: LEVNOQ01_clean_sbu_1, # of connection points: 6
#     Node 5, Type 0, BuildingBlock: LEVNOQ01_clean_sbu_1, # of connection points: 6
#     Node 6, Type 0, BuildingBlock: LEVNOQ01_clean_sbu_1, # of connection points: 6
#     Node 7, Type 0, BuildingBlock: LEVNOQ01_clean_sbu_1, # of connection points: 6
#     Edge 8, Type (0, 0), None
#     Edge 9, Type (0, 0), None
#     Edge 10, Type (0, 0), None
#     Edge 11, Type (0, 0), None
#     Edge 12, Type (0, 0), None
#     Edge 13, Type (0, 0), None
#     Edge 14, Type (0, 0), None
#     Edge 15, Type (0, 0), None
#     Edge 16, Type (0, 0), None
#     Edge 17, Type (0, 0), None
#     Edge 18, Type (0, 0), None
#     Edge 19, Type (0, 0), None
#     Edge 20, Type (0, 0), None
#     Edge 21, Type (0, 0), None
#     Edge 22, Type (0, 0), None
#     Edge 23, Type (0, 0), None
#     Edge 24, Type (0, 0), None
#     Edge 25, Type (0, 0), None
#     Edge 26, Type (0, 0), None
#     Edge 27, Type (0, 0), None
#     Edge 28, Type (0, 0), None
#     Edge 29, Type (0, 0), None
#     Edge 30, Type (0, 0), None
#     Edge 31, Type (0, 0), None
# Relax obj value: 0.030
# Max RMSD: 0.085
# Mean RMSD: 0.078
data_MOF--net-snk--node1-LEVNOQ01_clean_sbu_1--edge1-none
_symmetry_space_group_name_H-M    P1
_symmetry_Int_Tables_number       1
_symmetry_cell_setting            triclinic
loop_
_symmetry_equiv_pos_as_xyz
'x, y, z'
_cell_length_a     19.59855
_cell_length_b     19.599033
_cell_length_c     8.0417308
_cell_angle_alpha  90.005441
_cell_angle_beta   90.000374
_cell_angle_gamma 92.674305
loop_
_atom_site_label
_atom_site_type_symbol
_atom_site_fract_x
_atom_site_fract_y
_atom_site_fract_z
_atom_type_partial_charge
O0 O 0.05438 0.93629 0.0362 0.0
Mg1 Mg 0.11399 0.90461 0.23251 0.0
O2 O 0.01065 0.02148 0.18104 0.0
Mg3 Mg 0.01929 0.01042 0.46638 0.0
O4 O 0.05651 0.90451 0.44014 0.0
O5 O 0.10712 0.81219 0.36737 0.0
O6 O 0.0279 0.99946 0.75169 0.0
O7 O 0.90923 0.96474 0.50925 0.0
Mg8 Mg 0.92441 0.11675 0.7009 0.0
O9 O 0.98166 0.11595 0.49318 0.0
O10 O 0.98429 0.08475 0.89655 0.0
O11 O 0.84668 0.03695 0.65536 0.0
O12 O 0.93175 0.20877 0.56381 0.0
C13 C 0.18472 0.04137 0.34971 0.0
C14 C 0.02592 0.99301 0.04357 0.0
C15 C 0.08693 0.85072 0.48593 0.0
C16 C 0.01268 0.02798 0.88913 0.0
C17 C 0.85387 0.97979 0.58297 0.0
C18 C 0.95222 0.17006 0.44598 0.0
O19 O 0.19195 0.98417 0.27765 0.0
O20 O 0.12935 0.05635 0.42347 0.0
O21 O 0.27329 0.8434 0.30293 0.0
Mg22 Mg 0.27067 0.91268 0.5164 0.0
O23 O 0.27653 0.74217 0.42964 0.0
Mg24 Mg 0.27 0.7606 0.71535 0.0
O25 O 0.31837 0.86384 0.69843 0.0
O26 O 0.34862 0.96997 0.65503 0.0
O27 O 0.26346 0.77911 0.00118 0.0
O28 O 0.37766 0.72154 0.77087 0.0
Mg29 Mg 0.26919 0.60868 0.91476 0.0
O30 O 0.22163 0.65724 0.73206 0.0
O31 O 0.26678 0.67795 0.12812 0.0
O32 O 0.36884 0.60971 0.80241 0.0
O33 O 0.19039 0.55157 0.77859 0.0
C34 C 0.13491 0.85587 0.6251 0.0
C35 C 0.27302 0.77817 0.29733 0.0
C36 C 0.3501 0.91797 0.75204 0.0
C37 C 0.26704 0.74317 0.13358 0.0
C38 C 0.40491 0.66528 0.80579 0.0
C39 C 0.18908 0.60323 0.68043 0.0
O40 O 0.17074 0.9116 0.62706 0.0
O41 O 0.1624 0.7997 0.65975 0.0
O42 O 0.43651 1.00649 0.37983 0.0
Mg43 Mg 0.36725 0.00913 0.16637 0.0
O44 O 0.53774 1.00326 0.25309 0.0
Mg45 Mg 0.51932 0.00982 -0.03261 0.0
O46 O 0.41607 0.96146 -0.01573 0.0
O47 O 0.3099 0.93123 0.02769 0.0
O48 O 0.50081 0.01637 0.68156 0.0
O49 O 0.55836 0.90216 0.91179 0.0
Mg50 Mg 0.67122 0.0106 0.76794 0.0
O51 O 0.62269 0.05819 0.95065 0.0
O52 O 0.60196 0.01299 0.55459 0.0
O53 O 0.6702 0.91098 0.88037 0.0
O54 O 0.72835 0.08944 0.90394 0.0
C55 C 0.42408 0.14494 0.05805 0.0
C56 C 0.50174 1.00677 0.38541 0.0
C57 C 0.36191 0.92979 0.93067 0.0
C58 C 0.53674 0.01276 0.54915 0.0
C59 C 0.61463 0.87491 0.87691 0.0
C60 C 0.67671 0.09076 0.00216 0.0
O61 O 0.36836 0.1091 0.05595 0.0
O62 O 0.48021 0.1174 0.02322 0.0
O63 O 0.34356 0.22559 0.64629 0.0
Mg64 Mg 0.37529 0.16604 0.44988 0.0
O65 O 0.25837 0.26931 0.50148 0.0
Mg66 Mg 0.26944 0.26067 0.21613 0.0
O67 O 0.37538 0.22351 0.24225 0.0
O68 O 0.4678 0.17302 0.31538 0.0
O69 O 0.28039 0.25207 0.93082 0.0
O70 O 0.31508 0.37073 0.17332 0.0
Mg71 Mg 0.16307 0.35551 -0.01831 0.0
O72 O 0.16389 0.29825 0.18937 0.0
O73 O 0.19509 0.29565 0.78599 0.0
O74 O 0.24286 0.43327 0.02723 0.0
O75 O 0.07105 0.34812 0.11882 0.0
C76 C 0.23857 0.09523 0.3327 0.0
C77 C 0.28684 0.25404 0.63894 0.0
C78 C 0.42924 0.19313 0.1968 0.0
C79 C 0.25187 0.26728 0.79339 0.0
C80 C 0.30001 0.42609 0.09963 0.0
C81 C 0.1098 0.3277 0.23662 0.0
O82 O 0.29578 0.08803 0.40472 0.0
O83 O 0.22355 0.1506 0.259 0.0
O84 O 0.77353 0.34338 0.80261 0.0
Mg85 Mg 0.77086 0.41265 0.01609 0.0
O86 O 0.77671 0.24215 0.92933 0.0
Mg87 Mg 0.77018 0.26058 0.21503 0.0
O88 O 0.81853 0.36383 0.19818 0.0
O89 O 0.84873 0.46997 0.15494 0.0
O90 O 0.76365 0.27908 0.50087 0.0
O91 O 0.87785 0.22153 0.27041 0.0
Mg92 Mg 0.76936 0.10864 0.41445 0.0
O93 O 0.7218 0.15723 0.2318 0.0
O94 O 0.76699 0.17792 0.62781 0.0
O95 O 0.86896 0.10964 0.30183 0.0
O96 O 0.69048 0.05155 0.27844 0.0
C97 C 0.63504 0.35581 0.12442 0.0
C98 C 0.77322 0.27815 0.79701 0.0
C99 C 0.85021 0.41796 0.25191 0.0
C100 C 0.76724 0.24314 0.63327 0.0
C101 C 0.90503 0.16521 0.30514 0.0
C102 C 0.68922 0.10322 0.18028 0.0
O103 O 0.67088 0.41153 0.12643 0.0
O104 O 0.66259 0.29969 0.15929 0.0
O105 O 0.84365 0.72544 0.14647 0.0
Mg106 Mg 0.87536 0.66586 0.95011 0.0
O107 O 0.75845 0.76915 0.00167 0.0
Mg108 Mg 0.7695 0.76052 0.71633 0.0
O109 O 0.87544 0.72336 0.74252 0.0
O110 O 0.96777 0.67278 0.81521 0.0
O111 O 0.78047 0.75192 0.43101 0.0
O112 O 0.81513 0.87059 0.67349 0.0
Mg113 Mg 0.66313 0.85531 0.48191 0.0
O114 O 0.66394 0.79809 0.68964 0.0
O115 O 0.69517 0.79549 0.28618 0.0
O116 O 0.74288 0.9331 0.52745 0.0
O117 O 0.57101 0.84786 0.61866 0.0
C118 C 0.73862 0.59508 0.83289 0.0
C119 C 0.78692 0.75389 0.13912 0.0
C120 C 0.92922 0.69294 0.69669 0.0
C121 C 0.75195 0.76712 0.29357 0.0
C122 C 0.80004 0.92594 0.59982 0.0
C123 C 0.60977 0.8275 0.73651 0.0
O124 O 0.79582 0.58787 0.90496 0.0
O125 O 0.72362 0.65045 0.75917 0.0
O126 O 0.55439 0.43629 0.5362 0.0
Mg127 Mg 0.61392 0.40455 0.73264 0.0
O128 O 0.51066 0.52148 0.68103 0.0
Mg129 Mg 0.5193 0.51042 -0.03363 0.0
O130 O 0.55643 0.40447 0.94026 0.0
O131 O 0.60691 0.31204 0.86717 0.0
O132 O 0.5279 0.49946 0.25167 0.0
O133 O 0.40922 0.46482 0.00917 0.0
Mg134 Mg 0.42452 0.61681 0.20077 0.0
O135 O 0.48175 0.61599 -0.00696 0.0
O136 O 0.48431 0.58475 0.39653 0.0
O137 O 0.3467 0.53708 0.15519 0.0
O138 O 0.43198 0.70892 0.06401 0.0
C139 C 0.68476 0.54123 0.84988 0.0
C140 C 0.52593 0.49301 0.54356 0.0
C141 C 0.58682 0.35061 -0.01426 0.0
C142 C 0.51269 0.52798 0.38912 0.0
C143 C 0.35386 0.47992 0.0828 0.0
C144 C 0.45233 0.67016 0.94616 0.0
O145 O 0.69196 0.48403 0.77782 0.0
O146 O 0.62938 0.55627 0.92354 0.0
O147 O 0.9365 0.50643 0.87985 0.0
Mg148 Mg 0.86721 0.50908 0.66638 0.0
O149 O 0.03774 0.50332 0.7531 0.0
Mg150 Mg 0.01931 0.50981 0.4674 0.0
O151 O 0.91608 0.46145 0.4843 0.0
O152 O 0.80992 0.43117 0.52751 0.0
O153 O 1.00081 0.5163 0.18158 0.0
O154 O 0.05839 0.40215 0.41213 0.0
Mg155 Mg 0.17125 0.51067 0.26796 0.0
O156 O 0.12266 0.5582 0.45065 0.0
O157 O 0.10197 0.51306 0.0546 0.0
O158 O 0.17028 0.41104 0.38038 0.0
O159 O 0.22834 0.58951 0.40415 0.0
C160 C 0.92401 0.64488 0.55766 0.0
C161 C 1.00174 0.50678 0.88543 0.0
C162 C 0.86195 0.42976 0.43057 0.0
C163 C 0.03675 0.51276 0.04916 0.0
C164 C 0.1147 0.37497 0.37731 0.0
C165 C 0.17666 0.59075 0.50227 0.0
O166 O 0.86829 0.60904 0.55594 0.0
O167 O 0.98018 0.6174 0.5229 0.0
loop_
_geom_bond_atom_site_label_1
_geom_bond_atom_site_label_2
_geom_bond_distance
_geom_bond_site_symmetry_2
_ccdc_geom_bond_type
O0 Mg1 1.990 . S
O0 C14 1.253 . S
Mg1 O0 1.990 . S
Mg1 O4 2.180 . S
Mg1 O5 2.117 . S
Mg1 O19 2.030 1_565 S
O2 Mg3 2.072 1_655 S
O2 C14 1.260 1_645 S
Mg3 O2 2.072 1_455 S
Mg3 O4 2.099 1_545 S
Mg3 O6 2.079 . S
Mg3 O7 2.072 1_445 S
Mg3 O9 2.099 1_455 S
Mg3 O20 2.079 . S
O4 Mg1 2.180 . S
O4 Mg3 2.099 1_565 S
O4 C15 1.279 . S
O5 Mg1 2.117 . S
O5 C15 1.250 . S
O6 Mg3 2.079 . S
O6 C16 1.264 1_455 S
O7 Mg3 2.072 1_665 S
O7 C17 1.260 . S
Mg8 O9 2.180 . S
Mg8 O10 2.030 . S
Mg8 O11 1.990 1_545 S
Mg8 O12 2.117 . S
O9 Mg3 2.099 1_655 S
O9 Mg8 2.180 . S
O9 C18 1.279 . S
O10 Mg8 2.030 . S
O10 C16 1.248 . S
O11 Mg8 1.990 1_565 S
O11 C17 1.253 . S
O12 Mg8 2.117 . S
O12 C18 1.250 . S
C13 O19 1.248 . S
C13 O20 1.264 . S
C14 O0 1.253 . S
C14 O2 1.260 1_465 S
C15 O4 1.279 . S
C15 O5 1.250 . S
C16 O6 1.264 1_655 S
C16 O10 1.248 . S
C17 O7 1.260 . S
C17 O11 1.253 . S
C18 O9 1.279 . S
C18 O12 1.250 . S
O19 Mg1 2.030 1_545 S
O19 C13 1.248 . S
O20 Mg3 2.079 . S
O20 C13 1.264 . S
O21 Mg22 1.990 . S
O21 C35 1.253 . S
Mg22 O21 1.990 . S
Mg22 O25 2.180 . S
Mg22 O26 2.117 . S
Mg22 O40 2.030 . S
O23 Mg24 2.072 . S
O23 C35 1.260 . S
Mg24 O23 2.072 . S
Mg24 O25 2.099 . S
Mg24 O27 2.079 1_556 S
Mg24 O28 2.072 . S
Mg24 O30 2.099 . S
Mg24 O41 2.079 . S
O25 Mg22 2.180 . S
O25 Mg24 2.099 . S
O25 C36 1.279 . S
O26 Mg22 2.117 . S
O26 C36 1.250 . S
O27 Mg24 2.079 1_554 S
O27 C37 1.264 . S
O28 Mg24 2.072 . S
O28 C38 1.260 . S
Mg29 O30 2.180 1_554 S
Mg29 O31 2.030 . S
Mg29 O32 1.990 1_554 S
Mg29 O33 2.117 1_554 S
O30 Mg24 2.099 . S
O30 Mg29 2.180 1_556 S
O30 C39 1.279 . S
O31 Mg29 2.030 . S
O31 C37 1.248 . S
O32 Mg29 1.990 1_556 S
O32 C38 1.253 . S
O33 Mg29 2.117 1_556 S
O33 C39 1.250 . S
C34 O40 1.248 . S
C34 O41 1.264 . S
C35 O21 1.253 . S
C35 O23 1.260 . S
C36 O25 1.279 . S
C36 O26 1.250 . S
C37 O27 1.264 . S
C37 O31 1.248 . S
C38 O28 1.260 . S
C38 O32 1.253 . S
C39 O30 1.279 . S
C39 O33 1.250 . S
O40 Mg22 2.030 . S
O40 C34 1.248 . S
O41 Mg24 2.079 . S
O41 C34 1.264 . S
O42 Mg43 1.990 . S
O42 C56 1.253 . S
Mg43 O42 1.990 . S
Mg43 O46 2.180 1_554 S
Mg43 O47 2.117 . S
Mg43 O61 2.030 1_565 S
O44 Mg45 2.072 1_554 S
O44 C56 1.260 1_545 S
Mg45 O44 2.072 1_556 S
Mg45 O46 2.099 1_545 S
Mg45 O48 2.079 . S
Mg45 O49 2.072 1_545 S
Mg45 O51 2.099 . S
Mg45 O62 2.079 1_556 S
O46 Mg43 2.180 1_556 S
O46 Mg45 2.099 1_565 S
O46 C57 1.279 . S
O47 Mg43 2.117 . S
O47 C57 1.250 1_554 S
O48 Mg45 2.079 . S
O48 C58 1.264 . S
O49 Mg45 2.072 1_565 S
O49 C59 1.260 . S
Mg50 O51 2.180 . S
Mg50 O52 2.030 . S
Mg50 O53 1.990 1_545 S
Mg50 O54 2.117 1_556 S
O51 Mg45 2.099 . S
O51 Mg50 2.180 . S
O51 C60 1.279 1_556 S
O52 Mg50 2.030 . S
O52 C58 1.248 . S
O53 Mg50 1.990 1_565 S
O53 C59 1.253 . S
O54 Mg50 2.117 1_554 S
O54 C60 1.250 . S
C55 O61 1.248 . S
C55 O62 1.264 . S
C56 O42 1.253 . S
C56 O44 1.260 1_565 S
C57 O46 1.279 . S
C57 O47 1.250 1_556 S
C58 O48 1.264 . S
C58 O52 1.248 . S
C59 O49 1.260 . S
C59 O53 1.253 . S
C60 O51 1.279 1_554 S
C60 O54 1.250 . S
O61 Mg43 2.030 1_545 S
O61 C55 1.248 . S
O62 Mg45 2.079 1_554 S
O62 C55 1.264 . S
O63 Mg64 1.990 . S
O63 C77 1.253 . S
Mg64 O63 1.990 . S
Mg64 O67 2.180 . S
Mg64 O68 2.117 . S
Mg64 O82 2.030 . S
O65 Mg66 2.072 . S
O65 C77 1.260 . S
Mg66 O65 2.072 . S
Mg66 O67 2.099 . S
Mg66 O69 2.079 1_554 S
Mg66 O70 2.072 . S
Mg66 O72 2.099 . S
Mg66 O83 2.079 . S
O67 Mg64 2.180 . S
O67 Mg66 2.099 . S
O67 C78 1.279 . S
O68 Mg64 2.117 . S
O68 C78 1.250 . S
O69 Mg66 2.079 1_556 S
O69 C79 1.264 . S
O70 Mg66 2.072 . S
O70 C80 1.260 . S
Mg71 O72 2.180 . S
Mg71 O73 2.030 1_554 S
Mg71 O74 1.990 . S
Mg71 O75 2.117 . S
O72 Mg66 2.099 . S
O72 Mg71 2.180 . S
O72 C81 1.279 . S
O73 Mg71 2.030 1_556 S
O73 C79 1.248 . S
O74 Mg71 1.990 . S
O74 C80 1.253 . S
O75 Mg71 2.117 . S
O75 C81 1.250 . S
C76 O82 1.248 . S
C76 O83 1.264 . S
C77 O63 1.253 . S
C77 O65 1.260 . S
C78 O67 1.279 . S
C78 O68 1.250 . S
C79 O69 1.264 . S
C79 O73 1.248 . S
C80 O70 1.260 . S
C80 O74 1.253 . S
C81 O72 1.279 . S
C81 O75 1.250 . S
O82 Mg64 2.030 . S
O82 C76 1.248 . S
O83 Mg66 2.079 . S
O83 C76 1.264 . S
O84 Mg85 1.990 1_556 S
O84 C98 1.253 . S
Mg85 O84 1.990 1_554 S
Mg85 O88 2.180 . S
Mg85 O89 2.117 . S
Mg85 O103 2.030 . S
O86 Mg87 2.072 . S
O86 C98 1.260 1_554 S
Mg87 O86 2.072 . S
Mg87 O88 2.099 . S
Mg87 O90 2.079 . S
Mg87 O91 2.072 . S
Mg87 O93 2.099 . S
Mg87 O104 2.079 . S
O88 Mg85 2.180 . S
O88 Mg87 2.099 . S
O88 C99 1.279 . S
O89 Mg85 2.117 . S
O89 C99 1.250 . S
O90 Mg87 2.079 . S
O90 C100 1.264 . S
O91 Mg87 2.072 . S
O91 C101 1.260 . S
Mg92 O93 2.180 . S
Mg92 O94 2.030 . S
Mg92 O95 1.990 . S
Mg92 O96 2.117 . S
O93 Mg87 2.099 . S
O93 Mg92 2.180 . S
O93 C102 1.279 . S
O94 Mg92 2.030 . S
O94 C100 1.248 . S
O95 Mg92 1.990 . S
O95 C101 1.253 . S
O96 Mg92 2.117 . S
O96 C102 1.250 . S
C97 O103 1.248 . S
C97 O104 1.264 . S
C98 O84 1.253 . S
C98 O86 1.260 1_556 S
C99 O88 1.279 . S
C99 O89 1.250 . S
C100 O90 1.264 . S
C100 O94 1.248 . S
C101 O91 1.260 . S
C101 O95 1.253 . S
C102 O93 1.279 . S
C102 O96 1.250 . S
O103 Mg85 2.030 . S
O103 C97 1.248 . S
O104 Mg87 2.079 . S
O104 C97 1.264 . S
O105 Mg106 1.990 1_554 S
O105 C119 1.253 . S
Mg106 O105 1.990 1_556 S
Mg106 O109 2.180 . S
Mg106 O110 2.117 . S
Mg106 O124 2.030 . S
O107 Mg108 2.072 1_554 S
O107 C119 1.260 . S
Mg108 O107 2.072 1_556 S
Mg108 O109 2.099 . S
Mg108 O111 2.079 . S
Mg108 O112 2.072 . S
Mg108 O114 2.099 . S
Mg108 O125 2.079 . S
O109 Mg106 2.180 . S
O109 Mg108 2.099 . S
O109 C120 1.279 . S
O110 Mg106 2.117 . S
O110 C120 1.250 . S
O111 Mg108 2.079 . S
O111 C121 1.264 . S
O112 Mg108 2.072 . S
O112 C122 1.260 . S
Mg113 O114 2.180 . S
Mg113 O115 2.030 . S
Mg113 O116 1.990 . S
Mg113 O117 2.117 . S
O114 Mg108 2.099 . S
O114 Mg113 2.180 . S
O114 C123 1.279 . S
O115 Mg113 2.030 . S
O115 C121 1.248 . S
O116 Mg113 1.990 . S
O116 C122 1.253 . S
O117 Mg113 2.117 . S
O117 C123 1.250 . S
C118 O124 1.248 . S
C118 O125 1.264 . S
C119 O105 1.253 . S
C119 O107 1.260 . S
C120 O109 1.279 . S
C120 O110 1.250 . S
C121 O111 1.264 . S
C121 O115 1.248 . S
C122 O112 1.260 . S
C122 O116 1.253 . S
C123 O114 1.279 . S
C123 O117 1.250 . S
O124 Mg106 2.030 . S
O124 C118 1.248 . S
O125 Mg108 2.079 . S
O125 C118 1.264 . S
O126 Mg127 1.990 . S
O126 C140 1.253 . S
Mg127 O126 1.990 . S
Mg127 O130 2.180 1_556 S
Mg127 O131 2.117 . S
Mg127 O145 2.030 . S
O128 Mg129 2.072 1_556 S
O128 C140 1.260 . S
Mg129 O128 2.072 1_554 S
Mg129 O130 2.099 . S
Mg129 O132 2.079 . S
Mg129 O133 2.072 . S
Mg129 O135 2.099 . S
Mg129 O146 2.079 . S
O130 Mg127 2.180 1_554 S
O130 Mg129 2.099 . S
O130 C141 1.279 . S
O131 Mg127 2.117 . S
O131 C141 1.250 1_556 S
O132 Mg129 2.079 . S
O132 C142 1.264 . S
O133 Mg129 2.072 . S
O133 C143 1.260 . S
Mg134 O135 2.180 . S
Mg134 O136 2.030 . S
Mg134 O137 1.990 . S
Mg134 O138 2.117 . S
O135 Mg129 2.099 . S
O135 Mg134 2.180 . S
O135 C144 1.279 1_554 S
O136 Mg134 2.030 . S
O136 C142 1.248 . S
O137 Mg134 1.990 . S
O137 C143 1.253 . S
O138 Mg134 2.117 . S
O138 C144 1.250 1_554 S
C139 O145 1.248 . S
C139 O146 1.264 1_556 S
C140 O126 1.253 . S
C140 O128 1.260 . S
C141 O130 1.279 . S
C141 O131 1.250 1_554 S
C142 O132 1.264 . S
C142 O136 1.248 . S
C143 O133 1.260 . S
C143 O137 1.253 . S
C144 O135 1.279 1_556 S
C144 O138 1.250 1_556 S
O145 Mg127 2.030 . S
O145 C139 1.248 . S
O146 Mg129 2.079 . S
O146 C139 1.264 1_554 S
O147 Mg148 1.990 . S
O147 C161 1.248 1_655 S
Mg148 O147 1.990 . S
Mg148 O151 2.180 . S
Mg148 O152 2.117 . S
Mg148 O166 2.030 . S
O149 Mg150 2.072 . S
O149 C161 1.263 . S
Mg150 O149 2.072 . S
Mg150 O151 2.099 1_455 S
Mg150 O153 2.078 1_455 S
Mg150 O154 2.072 . S
Mg150 O156 2.099 . S
Mg150 O167 2.079 1_455 S
O151 Mg148 2.180 . S
O151 Mg150 2.099 1_655 S
O151 C162 1.279 . S
O152 Mg148 2.117 . S
O152 C162 1.250 . S
O153 Mg150 2.078 1_655 S
O153 C163 1.260 1_655 S
O154 Mg150 2.072 . S
O154 C164 1.260 . S
Mg155 O156 2.180 . S
Mg155 O157 2.030 . S
Mg155 O158 1.990 . S
Mg155 O159 2.117 . S
O156 Mg150 2.099 . S
O156 Mg155 2.180 . S
O156 C165 1.279 . S
O157 Mg155 2.030 . S
O157 C163 1.248 . S
O158 Mg155 1.990 . S
O158 C164 1.253 . S
O159 Mg155 2.117 . S
O159 C165 1.250 . S
C160 O166 1.248 . S
C160 O167 1.264 . S
C161 O147 1.248 1_455 S
C161 O149 1.263 . S
C162 O151 1.279 . S
C162 O152 1.250 . S
C163 O153 1.260 1_455 S
C163 O157 1.248 . S
C164 O154 1.260 . S
C164 O158 1.253 . S
C165 O156 1.279 . S
C165 O159 1.250 . S
O166 Mg148 2.030 . S
O166 C160 1.248 . S
O167 Mg150 2.079 1_655 S
O167 C160 1.264 . S
C13 C76 1.018 . S
C15 C34 1.273 . S
C36 C57 1.687 . S
C55 C78 1.272 . S
C17 C122 1.222 . S
C18 C101 1.129 . S
C102 C60 1.225 . S
C123 C59 1.130 . S
C139 C118 1.018 . S
C97 C141 1.273 . S
C162 C99 1.686 . S
C120 C160 1.273 . S
C80 C143 1.222 . S
C144 C38 1.129 . S
C39 C165 1.226 . S
C81 C164 1.129 . S
C16 C14 1.561 1_646 S
C35 C37 1.476 . S
C58 C56 1.476 1_545 S
C79 C77 1.561 . S
C98 C100 1.476 . S
C121 C119 1.561 . S
C140 C142 1.561 . S
C161 C163 1.479 1_556 S
