# Generated by pormake.
# Topology snp, (6)-cn, num edge types: 1
# Building blocks:
#     Node 0, Type 0, BuildingBlock: INOVEN_clean_sbu_0, # of connection points: 6
#     Node 1, Type 0, BuildingBlock: INOVEN_clean_sbu_0, # of connection points: 6
#     Node 2, Type 0, BuildingBlock: INOVEN_clean_sbu_0, # of connection points: 6
#     Node 3, Type 0, BuildingBlock: INOVEN_clean_sbu_0, # of connection points: 6
#     Edge 4, Type (0, 0), None
#     Edge 5, Type (0, 0), None
#     Edge 6, Type (0, 0), None
#     Edge 7, Type (0, 0), None
#     Edge 8, Type (0, 0), None
#     Edge 9, Type (0, 0), None
#     Edge 10, Type (0, 0), None
#     Edge 11, Type (0, 0), None
#     Edge 12, Type (0, 0), None
#     Edge 13, Type (0, 0), None
#     Edge 14, Type (0, 0), None
#     Edge 15, Type (0, 0), None
# Relax obj value: 0.345
# Max RMSD: 0.313
# Mean RMSD: 0.298
data_MOF--net-snp--node1-INOVEN_clean_sbu_0--edge1-none
_symmetry_space_group_name_H-M    P1
_symmetry_Int_Tables_number       1
_symmetry_cell_setting            triclinic
loop_
_symmetry_equiv_pos_as_xyz
'x, y, z'
_cell_length_a     11.607024
_cell_length_b     11.834774
_cell_length_c     19.655092
_cell_angle_alpha  75.114124
_cell_angle_beta   110.79975
_cell_angle_gamma 101.04559
loop_
_atom_site_label
_atom_site_type_symbol
_atom_site_fract_x
_atom_site_fract_y
_atom_site_fract_z
_atom_type_partial_charge
Gd0 Gd 0.3879 0.19189 0.19695 0.0
Gd1 Gd 0.3271 0.93241 0.18112 0.0
C2 C 0.42164 -0.00698 0.34366 0.0
C3 C 0.39932 0.39175 0.22873 0.0
C4 C 0.43979 0.41545 0.30493 0.0
C5 C 0.53817 0.36019 0.36169 0.0
C6 C 0.36777 0.47659 0.32439 0.0
C7 C 0.48651 0.42008 0.45647 0.0
C8 C 0.39084 0.47906 0.39915 0.0
C9 C 0.56142 0.36278 0.43631 0.0
C10 C 0.58105 0.07014 0.22499 0.0
C11 C 0.29155 0.14941 1.03005 0.0
C12 C 0.31538 0.73604 0.14521 0.0
C13 C 0.31711 0.71529 0.07548 0.0
C14 C 0.22677 0.63253 1.04112 0.0
C15 C 0.38611 0.79701 1.03486 0.0
C16 C 0.25833 0.72748 0.92301 0.0
C17 C 0.35742 0.80249 0.95909 0.0
C18 C 0.19717 0.63875 0.96516 0.0
C19 C 0.16235 0.004 0.22198 0.0
O20 O 0.3881 0.09807 0.30939 0.0
O21 O 0.42575 0.91523 0.30642 0.0
O22 O 0.48449 0.36637 0.20704 0.0
O23 O 0.29536 0.32223 0.21169 0.0
O24 O 0.58433 0.14677 0.26242 0.0
O25 O 0.47975 0.06627 0.17365 0.0
O26 O 0.27445 0.03483 1.0593 0.0
O27 O 0.33596 0.22957 1.0719 0.0
O28 O 0.21674 0.7828 0.13759 0.0
O29 O 0.41874 0.78571 0.1864 0.0
O30 O 0.18932 0.89676 0.24189 0.0
O31 O 0.2156 0.06651 0.1761 0.0
H32 H 0.59423 0.31056 0.34882 0.0
H33 H 0.28983 0.51781 0.28207 0.0
H34 H 0.32965 0.52265 0.41212 0.0
H35 H 0.63665 0.31761 0.47839 0.0
H36 H 0.17194 0.56976 1.07154 0.0
H37 H 0.45527 0.8629 1.06009 0.0
H38 H 0.40664 0.87111 0.92802 0.0
H39 H 0.12156 0.57849 0.93881 0.0
Gd40 Gd 1.01421 0.23956 0.79195 0.0
Gd41 Gd 0.27776 0.28574 0.78311 0.0
C42 C 0.24699 0.19007 0.94725 0.0
C43 C 0.81377 0.18819 0.82731 0.0
C44 C 0.79325 0.14243 0.8997 0.0
C45 C 0.74317 0.21229 0.92812 0.0
C46 C 0.84369 0.04064 0.94617 0.0
C47 C 0.808 0.08658 1.05064 0.0
C48 C 0.84988 0.01251 1.02037 0.0
C49 C 0.7517 0.18545 1.0034 0.0
C50 C 0.09828 0.46738 0.75348 0.0
C51 C 1.03872 0.30189 0.63359 0.0
C52 C 0.48213 0.37239 0.75728 0.0
C53 C 0.50638 0.39051 0.68523 0.0
C54 C 0.53443 0.2974 0.66342 0.0
C55 C 0.48449 0.49707 0.63305 0.0
C56 C 0.50302 0.41281 0.53672 0.0
C57 C 0.48204 0.50781 0.55987 0.0
C58 C 0.5331 0.30852 0.59028 0.0
C59 C 0.15677 0.08085 0.74748 0.0
O60 O 0.12571 0.18395 0.91362 0.0
O61 O 0.32704 0.2313 0.9097 0.0
O62 O 0.87529 0.29286 0.82232 0.0
O63 O 0.85109 0.11726 0.79954 0.0
O64 O 0.98584 0.42333 0.72468 0.0
O65 O 0.16069 0.39024 0.80291 0.0
O66 O 0.1529 0.34779 0.66581 0.0
O67 O 0.9698 0.23434 0.67273 0.0
O68 O 0.46462 0.26315 0.79225 0.0
O69 O 0.40354 0.43843 0.75759 0.0
O70 O 0.23672 0.14448 0.71773 0.0
O71 O 0.14952 0.12365 0.79858 0.0
H72 H 0.70328 0.29102 0.89288 0.0
H73 H 0.88427 -0.0144 0.92643 0.0
H74 H 0.89325 0.93469 1.05469 0.0
H75 H 0.7169 0.2429 1.02474 0.0
H76 H 0.55193 0.21386 0.70183 0.0
H77 H 0.46358 0.57086 0.64788 0.0
H78 H 0.46084 0.59002 0.52084 0.0
H79 H 0.54982 0.23308 0.57498 0.0
Gd80 Gd 0.92182 0.11833 0.29392 0.0
Gd81 Gd 0.86062 0.85882 0.2782 0.0
C82 C 0.9569 0.90137 0.44504 0.0
C83 C 0.93373 0.31476 0.32982 0.0
C84 C 0.93213 0.3357 0.39955 0.0
C85 C 1.02283 0.4182 0.43395 0.0
C86 C 0.86279 0.25437 0.44011 0.0
C87 C 0.99083 0.32368 0.552 0.0
C88 C 0.89143 0.24898 0.51586 0.0
C89 C 0.05241 0.41205 0.50991 0.0
C90 C 0.08677 0.04669 0.2534 0.0
C91 C 0.82775 0.05759 0.13147 0.0
C92 C 0.84857 0.65884 0.24639 0.0
C93 C 0.80823 0.63516 0.17018 0.0
C94 C 0.71006 0.6906 0.11334 0.0
C95 C 0.88017 0.57379 0.15082 0.0
C96 C 0.76178 0.63041 1.01868 0.0
C97 C 0.85723 0.57125 0.07608 0.0
C98 C 0.68695 0.68795 1.03874 0.0
C99 C 0.66788 -0.01849 0.24971 0.0
O100 O 0.97435 0.01591 0.41576 0.0
O101 O 0.91224 0.8212 0.40322 0.0
O102 O 1.03229 0.26791 0.33744 0.0
O103 O 0.83032 0.2651 0.28868 0.0
O104 O 0.05988 0.15393 0.23349 0.0
O105 O 1.03327 -0.01618 0.2991 0.0
O106 O 0.86113 -0.04749 0.16583 0.0
O107 O 0.82359 0.13552 0.1686 0.0
O108 O 0.76342 0.68459 0.26793 0.0
O109 O 0.95275 0.72802 0.26358 0.0
O110 O 0.66442 0.90467 0.21237 0.0
O111 O 0.76896 -0.01529 0.30124 0.0
H112 H 0.07793 0.48067 0.40357 0.0
H113 H 0.79334 0.18869 0.41484 0.0
H114 H 0.84188 0.18065 0.54688 0.0
H115 H 0.12828 0.47207 0.5363 0.0
H116 H 0.65407 0.74041 0.12613 0.0
H117 H 0.95795 0.53241 0.1932 0.0
H118 H 0.91838 0.52748 1.06319 0.0
H119 H 0.61187 0.73326 0.9966 0.0
Gd120 Gd 0.971 0.76479 0.69206 0.0
Gd121 Gd 0.23447 0.81092 0.68299 0.0
C122 C 0.21026 0.74924 0.84143 0.0
C123 C 0.76677 0.67781 0.71801 0.0
C124 C 0.74243 0.65981 0.79002 0.0
C125 C 0.71449 0.75303 0.81178 0.0
C126 C 0.76404 0.55322 0.8422 0.0
C127 C 0.74545 0.63763 0.93845 0.0
C128 C 0.76631 0.54252 0.91534 0.0
C129 C 0.71567 0.74197 0.88489 0.0
C130 C 0.09142 -0.03014 0.72734 0.0
C131 C 1.00155 0.86071 0.52784 0.0
C132 C 0.43495 0.86159 0.64765 0.0
C133 C 0.4558 0.90757 0.57538 0.0
C134 C 0.50585 0.83778 0.5469 0.0
C135 C 0.40567 0.00956 0.52902 0.0
C136 C 0.44146 -0.03612 0.4245 0.0
C137 C 0.3997 0.03793 0.45485 0.0
C138 C 0.49751 0.86483 0.47164 0.0
C139 C 0.1501 0.58318 0.72188 0.0
O140 O 0.09604 0.70327 0.80935 0.0
O141 O 0.27908 0.81663 0.80217 0.0
O142 O 0.78401 0.787 0.68289 0.0
O143 O 0.84561 0.61192 0.71784 0.0
O144 O 1.01147 0.90625 0.75708 0.0
O145 O 0.09934 0.92697 0.67642 0.0
O146 O 0.12284 0.86704 0.56141 0.0
O147 O 0.92159 0.81914 0.56544 0.0
O148 O 0.37276 0.75722 0.65229 0.0
O149 O 0.3981 0.93258 0.67563 0.0
O150 O 0.26262 0.62714 0.75057 0.0
O151 O 0.0881 0.66034 0.67226 0.0
H152 H 0.6972 0.8366 0.77338 0.0
H153 H 0.78487 0.47936 0.82739 0.0
H154 H 0.78726 0.46026 0.95437 0.0
H155 H 0.69905 0.81748 0.90016 0.0
H156 H 0.54556 0.75893 0.58208 0.0
H157 H 0.36513 0.06458 0.5488 0.0
H158 H 0.35654 0.1159 0.42063 0.0
H159 H 0.53221 0.80739 0.45025 0.0
loop_
_geom_bond_atom_site_label_1
_geom_bond_atom_site_label_2
_geom_bond_distance
_geom_bond_site_symmetry_2
_ccdc_geom_bond_type
Gd0 C3 2.818 . S
Gd0 O20 2.377 . S
Gd0 O22 2.448 . S
Gd0 O23 2.506 . S
Gd0 O24 2.435 . S
Gd0 O25 2.717 . S
Gd0 O27 2.395 . S
Gd0 O31 2.327 . S
Gd1 C12 2.818 1_554 S
Gd1 O21 2.395 . S
Gd1 O25 2.327 1_565 S
Gd1 O26 2.377 1_564 S
Gd1 O28 2.448 1_554 S
Gd1 O29 2.506 . S
Gd1 O30 2.435 1_565 S
Gd1 O31 2.717 1_565 S
C2 O20 1.240 . S
C2 O21 1.240 1_545 S
C3 Gd0 2.818 . S
C3 C4 1.510 . S
C3 O22 1.249 . S
C3 O23 1.252 . S
C4 C3 1.510 . S
C4 C5 1.404 . S
C4 C6 1.352 . S
C5 C4 1.404 . S
C5 C9 1.389 . S
C5 H32 0.930 . S
C6 C4 1.352 . S
C6 C8 1.374 . S
C6 H33 0.931 . S
C7 C8 1.359 . S
C7 C9 1.364 . S
C8 C6 1.374 . S
C8 C7 1.359 . S
C8 H34 0.931 . S
C9 C5 1.389 . S
C9 C7 1.364 . S
C9 H35 0.931 . S
C10 O24 1.256 . S
C10 O25 1.257 . S
C11 O26 1.240 . S
C11 O27 1.240 1_556 S
C12 Gd1 2.818 1_556 S
C12 C13 1.510 . S
C12 O28 1.249 . S
C12 O29 1.252 1_556 S
C13 C12 1.510 . S
C13 C14 1.404 . S
C13 C15 1.352 . S
C14 C13 1.404 . S
C14 C18 1.389 . S
C14 H36 0.930 . S
C15 C13 1.352 . S
C15 C17 1.374 . S
C15 H37 0.931 . S
C16 C17 1.359 . S
C16 C18 1.364 . S
C17 C15 1.374 . S
C17 C16 1.359 . S
C17 H38 0.931 . S
C18 C14 1.389 . S
C18 C16 1.364 . S
C18 H39 0.931 . S
C19 O30 1.256 . S
C19 O31 1.257 . S
O20 Gd0 2.377 . S
O20 C2 1.240 . S
O21 Gd1 2.395 . S
O21 C2 1.240 1_565 S
O22 Gd0 2.448 . S
O22 C3 1.249 . S
O23 Gd0 2.506 . S
O23 C3 1.252 . S
O24 Gd0 2.435 . S
O24 C10 1.256 . S
O25 Gd0 2.717 . S
O25 Gd1 2.327 1_545 S
O25 C10 1.257 . S
O26 Gd1 2.377 1_546 S
O26 C11 1.240 . S
O27 Gd0 2.395 . S
O27 C11 1.240 1_554 S
O28 Gd1 2.448 1_556 S
O28 C12 1.249 . S
O29 Gd1 2.506 . S
O29 C12 1.252 1_554 S
O30 Gd1 2.435 1_545 S
O30 C19 1.256 . S
O31 Gd0 2.327 . S
O31 Gd1 2.717 1_545 S
O31 C19 1.257 . S
H32 C5 0.930 . S
H33 C6 0.931 . S
H34 C8 0.931 . S
H35 C9 0.931 . S
H36 C14 0.930 . S
H37 C15 0.931 . S
H38 C17 0.931 . S
H39 C18 0.931 . S
Gd40 C43 2.818 . S
Gd40 O60 2.377 1_655 S
Gd40 O62 2.448 . S
Gd40 O63 2.506 . S
Gd40 O64 2.435 . S
Gd40 O65 2.717 1_655 S
Gd40 O67 2.395 . S
Gd40 O71 2.327 1_655 S
Gd41 C52 2.818 . S
Gd41 O61 2.395 . S
Gd41 O65 2.327 . S
Gd41 O66 2.377 . S
Gd41 O68 2.448 . S
Gd41 O69 2.506 . S
Gd41 O70 2.435 . S
Gd41 O71 2.717 . S
C42 O60 1.240 . S
C42 O61 1.240 . S
C43 Gd40 2.818 . S
C43 C44 1.510 . S
C43 O62 1.249 . S
C43 O63 1.252 . S
C44 C43 1.510 . S
C44 C45 1.404 . S
C44 C46 1.352 . S
C45 C44 1.404 . S
C45 C49 1.389 . S
C45 H72 0.930 . S
C46 C44 1.352 . S
C46 C48 1.374 1_556 S
C46 H73 0.931 . S
C47 C48 1.359 . S
C47 C49 1.364 1_554 S
C48 C46 1.374 1_554 S
C48 C47 1.359 . S
C48 H74 0.931 1_545 S
C49 C45 1.389 . S
C49 C47 1.364 1_556 S
C49 H75 0.931 . S
C50 O64 1.256 1_455 S
C50 O65 1.257 . S
C51 O66 1.240 1_655 S
C51 O67 1.240 . S
C52 Gd41 2.818 . S
C52 C53 1.510 . S
C52 O68 1.249 . S
C52 O69 1.252 . S
C53 C52 1.510 . S
C53 C54 1.404 . S
C53 C55 1.352 . S
C54 C53 1.404 . S
C54 C58 1.389 . S
C54 H76 0.930 . S
C55 C53 1.352 . S
C55 C57 1.374 . S
C55 H77 0.931 . S
C56 C57 1.359 . S
C56 C58 1.364 . S
C57 C55 1.374 . S
C57 C56 1.359 . S
C57 H78 0.931 . S
C58 C54 1.389 . S
C58 C56 1.364 . S
C58 H79 0.931 . S
C59 O70 1.256 . S
C59 O71 1.257 . S
O60 Gd40 2.377 1_455 S
O60 C42 1.240 . S
O61 Gd41 2.395 . S
O61 C42 1.240 . S
O62 Gd40 2.448 . S
O62 C43 1.249 . S
O63 Gd40 2.506 . S
O63 C43 1.252 . S
O64 Gd40 2.435 . S
O64 C50 1.256 1_655 S
O65 Gd40 2.717 1_455 S
O65 Gd41 2.327 . S
O65 C50 1.257 . S
O66 Gd41 2.377 . S
O66 C51 1.240 1_455 S
O67 Gd40 2.395 . S
O67 C51 1.240 . S
O68 Gd41 2.448 . S
O68 C52 1.249 . S
O69 Gd41 2.506 . S
O69 C52 1.252 . S
O70 Gd41 2.435 . S
O70 C59 1.256 . S
O71 Gd40 2.327 1_455 S
O71 Gd41 2.717 . S
O71 C59 1.257 . S
H72 C45 0.930 . S
H73 C46 0.931 . S
H74 C48 0.931 1_565 S
H75 C49 0.931 . S
H76 C54 0.930 . S
H77 C55 0.931 . S
H78 C57 0.931 . S
H79 C58 0.931 . S
Gd80 C83 2.818 . S
Gd80 O100 2.377 1_545 S
Gd80 O102 2.448 1_655 S
Gd80 O103 2.506 . S
Gd80 O104 2.435 1_655 S
Gd80 O105 2.717 1_545 S
Gd80 O107 2.395 . S
Gd80 O111 2.327 . S
Gd81 C92 2.818 . S
Gd81 O101 2.395 . S
Gd81 O105 2.327 . S
Gd81 O106 2.377 1_565 S
Gd81 O108 2.448 . S
Gd81 O109 2.506 . S
Gd81 O110 2.435 . S
Gd81 O111 2.717 1_565 S
C82 O100 1.240 . S
C82 O101 1.240 . S
C83 Gd80 2.818 . S
C83 C84 1.510 . S
C83 O102 1.249 1_655 S
C83 O103 1.252 . S
C84 C83 1.510 . S
C84 C85 1.404 1_655 S
C84 C86 1.352 . S
C85 C84 1.404 1_455 S
C85 C89 1.389 . S
C85 H112 0.930 . S
C86 C84 1.352 . S
C86 C88 1.374 . S
C86 H113 0.931 . S
C87 C88 1.359 . S
C87 C89 1.364 1_655 S
C88 C86 1.374 . S
C88 C87 1.359 . S
C88 H114 0.931 . S
C89 C85 1.389 . S
C89 C87 1.364 1_455 S
C89 H115 0.931 . S
C90 O104 1.256 . S
C90 O105 1.257 1_445 S
C91 O106 1.240 . S
C91 O107 1.240 . S
C92 Gd81 2.818 . S
C92 C93 1.510 . S
C92 O108 1.249 . S
C92 O109 1.252 . S
C93 C92 1.510 . S
C93 C94 1.404 1_554 S
C93 C95 1.352 1_554 S
C94 C93 1.404 1_556 S
C94 C98 1.389 . S
C94 H116 0.930 . S
C95 C93 1.352 1_556 S
C95 C97 1.374 . S
C95 H117 0.931 1_556 S
C96 C97 1.359 . S
C96 C98 1.364 . S
C97 C95 1.374 . S
C97 C96 1.359 . S
C97 H118 0.931 . S
C98 C94 1.389 . S
C98 C96 1.364 . S
C98 H119 0.931 . S
C99 O110 1.256 . S
C99 O111 1.257 1_565 S
O100 Gd80 2.377 1_565 S
O100 C82 1.240 . S
O101 Gd81 2.395 . S
O101 C82 1.240 . S
O102 Gd80 2.448 1_455 S
O102 C83 1.249 1_455 S
O103 Gd80 2.506 . S
O103 C83 1.252 . S
O104 Gd80 2.435 1_455 S
O104 C90 1.256 . S
O105 Gd80 2.717 1_565 S
O105 Gd81 2.327 . S
O105 C90 1.257 1_665 S
O106 Gd81 2.377 1_545 S
O106 C91 1.240 . S
O107 Gd80 2.395 . S
O107 C91 1.240 . S
O108 Gd81 2.448 . S
O108 C92 1.249 . S
O109 Gd81 2.506 . S
O109 C92 1.252 . S
O110 Gd81 2.435 . S
O110 C99 1.256 . S
O111 Gd80 2.327 . S
O111 Gd81 2.717 1_545 S
O111 C99 1.257 1_545 S
H112 C85 0.930 . S
H113 C86 0.931 . S
H114 C88 0.931 . S
H115 C89 0.931 . S
H116 C94 0.930 . S
H117 C95 0.931 1_554 S
H118 C97 0.931 . S
H119 C98 0.931 . S
Gd120 C123 2.818 . S
Gd120 O140 2.377 1_655 S
Gd120 O142 2.448 . S
Gd120 O143 2.506 . S
Gd120 O144 2.435 1_565 S
Gd120 O145 2.717 1_655 S
Gd120 O147 2.395 . S
Gd120 O151 2.327 1_655 S
Gd121 C132 2.818 . S
Gd121 O141 2.395 . S
Gd121 O145 2.327 . S
Gd121 O146 2.377 . S
Gd121 O148 2.448 . S
Gd121 O149 2.506 1_565 S
Gd121 O150 2.435 . S
Gd121 O151 2.717 . S
C122 O140 1.240 . S
C122 O141 1.240 . S
C123 Gd120 2.818 . S
C123 C124 1.510 . S
C123 O142 1.249 . S
C123 O143 1.252 . S
C124 C123 1.510 . S
C124 C125 1.404 . S
C124 C126 1.352 . S
C125 C124 1.404 . S
C125 C129 1.389 . S
C125 H152 0.930 . S
C126 C124 1.352 . S
C126 C128 1.374 . S
C126 H153 0.931 . S
C127 C128 1.359 . S
C127 C129 1.364 . S
C128 C126 1.374 . S
C128 C127 1.359 . S
C128 H154 0.931 . S
C129 C125 1.389 . S
C129 C127 1.364 . S
C129 H155 0.931 . S
C130 O144 1.256 1_455 S
C130 O145 1.257 1_545 S
C131 O146 1.240 1_655 S
C131 O147 1.240 . S
C132 Gd121 2.818 . S
C132 C133 1.510 . S
C132 O148 1.249 . S
C132 O149 1.252 1_565 S
C133 C132 1.510 . S
C133 C134 1.404 . S
C133 C135 1.352 1_565 S
C134 C133 1.404 . S
C134 C138 1.389 . S
C134 H156 0.930 . S
C135 C133 1.352 1_545 S
C135 C137 1.374 . S
C135 H157 0.931 . S
C136 C137 1.359 . S
C136 C138 1.364 1_545 S
C137 C135 1.374 . S
C137 C136 1.359 . S
C137 H158 0.931 . S
C138 C134 1.389 . S
C138 C136 1.364 1_565 S
C138 H159 0.931 . S
C139 O150 1.256 . S
C139 O151 1.257 . S
O140 Gd120 2.377 1_455 S
O140 C122 1.240 . S
O141 Gd121 2.395 . S
O141 C122 1.240 . S
O142 Gd120 2.448 . S
O142 C123 1.249 . S
O143 Gd120 2.506 . S
O143 C123 1.252 . S
O144 Gd120 2.435 1_545 S
O144 C130 1.256 1_655 S
O145 Gd120 2.717 1_455 S
O145 Gd121 2.327 . S
O145 C130 1.257 1_565 S
O146 Gd121 2.377 . S
O146 C131 1.240 1_455 S
O147 Gd120 2.395 . S
O147 C131 1.240 . S
O148 Gd121 2.448 . S
O148 C132 1.249 . S
O149 Gd121 2.506 1_545 S
O149 C132 1.252 1_545 S
O150 Gd121 2.435 . S
O150 C139 1.256 . S
O151 Gd120 2.327 1_455 S
O151 Gd121 2.717 . S
O151 C139 1.257 . S
H152 C125 0.930 . S
H153 C126 0.931 . S
H154 C128 0.931 . S
H155 C129 0.931 . S
H156 C134 0.930 . S
H157 C135 0.931 . S
H158 C137 0.931 . S
H159 C138 0.931 . S
C90 C19 3.924 . S
C130 C59 3.885 . S
C99 C10 2.481 1_565 S
C50 C139 1.763 . S
C56 C7 1.067 . S
C47 C91 1.963 . S
C131 C82 2.742 . S
C122 C16 1.466 . S
C96 C127 1.067 . S
C2 C136 1.962 . S
C42 C11 2.742 . S
C87 C51 1.466 . S
