# Generated by pormake.
# Topology sow, (4)-cn, num edge types: 1
# Building blocks:
#     Node 0, Type 0, BuildingBlock: MUDLON_clean_sbu_0, # of connection points: 4
#     Node 1, Type 0, BuildingBlock: MUDLON_clean_sbu_0, # of connection points: 4
#     Node 2, Type 0, BuildingBlock: MUDLON_clean_sbu_0, # of connection points: 4
#     Node 3, Type 0, BuildingBlock: MUDLON_clean_sbu_0, # of connection points: 4
#     Node 4, Type 0, BuildingBlock: MUDLON_clean_sbu_0, # of connection points: 4
#     Node 5, Type 0, BuildingBlock: MUDLON_clean_sbu_0, # of connection points: 4
#     Node 6, Type 0, BuildingBlock: MUDLON_clean_sbu_0, # of connection points: 4
#     Node 7, Type 0, BuildingBlock: MUDLON_clean_sbu_0, # of connection points: 4
#     Edge 8, Type (0, 0), BuildingBlock: OJICUG_clean_linker_0, # of connection points: 2
#     Edge 9, Type (0, 0), BuildingBlock: OJICUG_clean_linker_0, # of connection points: 2
#     Edge 10, Type (0, 0), BuildingBlock: OJICUG_clean_linker_0, # of connection points: 2
#     Edge 11, Type (0, 0), BuildingBlock: OJICUG_clean_linker_0, # of connection points: 2
#     Edge 12, Type (0, 0), BuildingBlock: OJICUG_clean_linker_0, # of connection points: 2
#     Edge 13, Type (0, 0), BuildingBlock: OJICUG_clean_linker_0, # of connection points: 2
#     Edge 14, Type (0, 0), BuildingBlock: OJICUG_clean_linker_0, # of connection points: 2
#     Edge 15, Type (0, 0), BuildingBlock: OJICUG_clean_linker_0, # of connection points: 2
#     Edge 16, Type (0, 0), BuildingBlock: OJICUG_clean_linker_0, # of connection points: 2
#     Edge 17, Type (0, 0), BuildingBlock: OJICUG_clean_linker_0, # of connection points: 2
#     Edge 18, Type (0, 0), BuildingBlock: OJICUG_clean_linker_0, # of connection points: 2
#     Edge 19, Type (0, 0), BuildingBlock: OJICUG_clean_linker_0, # of connection points: 2
#     Edge 20, Type (0, 0), BuildingBlock: OJICUG_clean_linker_0, # of connection points: 2
#     Edge 21, Type (0, 0), BuildingBlock: OJICUG_clean_linker_0, # of connection points: 2
#     Edge 22, Type (0, 0), BuildingBlock: OJICUG_clean_linker_0, # of connection points: 2
#     Edge 23, Type (0, 0), BuildingBlock: OJICUG_clean_linker_0, # of connection points: 2
# Relax obj value: 0.165
# Max RMSD: 0.253
# Mean RMSD: 0.253
data_MOF--net-sow--node1-MUDLON_clean_sbu_0--edge1-OJICUG_clean_linker_0
_symmetry_space_group_name_H-M    P1
_symmetry_Int_Tables_number       1
_symmetry_cell_setting            triclinic
loop_
_symmetry_equiv_pos_as_xyz
'x, y, z'
_cell_length_a     30.502025
_cell_length_b     18.181023
_cell_length_c     18.036802
_cell_angle_alpha  89.893097
_cell_angle_beta   90.324448
_cell_angle_gamma 90.189212
loop_
_atom_site_label
_atom_site_type_symbol
_atom_site_fract_x
_atom_site_fract_y
_atom_site_fract_z
_atom_type_partial_charge
Mg0 Mg 0.15652 0.18919 0.11921 0.0
C1 C 0.10781 0.30252 0.20744 0.0
O2 O 0.13971 0.2884 0.25454 0.0
C3 C 0.20509 0.2607 0.98488 0.0
O4 O 0.18586 0.32243 1.00362 0.0
C5 C 0.08102 0.10841 0.05359 0.0
O6 O 0.07641 0.17447 0.02496 0.0
O7 O 0.11352 0.09616 0.09645 0.0
O8 O 0.11034 0.27687 0.14204 0.0
O9 O 0.19592 0.17011 0.21855 0.0
C10 C 0.23516 0.19362 0.22323 0.0
O11 O 0.25274 0.22616 0.16543 0.0
O12 O 0.19822 0.2028 0.0228 0.0
Mg13 Mg 0.38774 0.27994 0.61836 0.0
C14 C 0.46723 0.1786 0.64376 0.0
O15 O 0.47251 0.18498 0.57181 0.0
C16 C 0.32231 0.21379 0.50819 0.0
O17 O 0.29937 0.20393 0.56884 0.0
C18 C 0.45229 0.37877 0.54181 0.0
O19 O 0.45169 0.32237 0.49639 0.0
O20 O 0.42672 0.37837 0.59735 0.0
O21 O 0.43347 0.20644 0.67343 0.0
O22 O 0.33632 0.2994 0.69945 0.0
C23 C 0.32525 0.24353 0.73767 0.0
O24 O 0.34395 0.18013 0.72342 0.0
O25 O 0.36064 0.24118 0.51325 0.0
Mg26 Mg 0.65712 0.30332 0.92896 0.0
C27 C 0.61869 0.18715 0.8271 0.0
O28 O 0.65642 0.19651 0.79363 0.0
C29 C 0.70666 0.22435 0.05909 0.0
O30 O 0.70334 0.1637 1.01996 0.0
C31 C 0.5807 0.38285 0.9897 0.0
O32 O 0.57544 0.31636 1.01699 0.0
O33 O 0.61378 0.39569 0.94888 0.0
O34 O 0.61278 0.21772 0.88964 0.0
O35 O 0.70363 0.32844 0.84104 0.0
C36 C 0.7376 0.28872 0.8341 0.0
O37 O 0.74491 0.23649 0.88301 0.0
O38 O 0.6906 0.28385 0.03384 0.0
Mg39 Mg 0.88446 0.20726 0.4349 0.0
C40 C 0.93661 0.2979 0.32696 0.0
O41 O 0.90656 0.27084 0.28218 0.0
C42 C 0.83443 0.29109 0.55928 0.0
O43 O 0.83125 0.34536 0.51143 0.0
C44 C 0.95838 0.11771 0.49193 0.0
O45 O 0.96811 0.18366 0.5169 0.0
O46 O 0.92333 0.10912 0.45423 0.0
O47 O 0.93296 0.28646 0.39628 0.0
O48 O 0.83544 0.18758 0.34838 0.0
C49 C 0.8112 0.24058 0.32754 0.0
O50 O 0.81548 0.30443 0.36077 0.0
O51 O 0.85446 0.23262 0.54116 0.0
Mg52 Mg 0.87633 0.80152 0.92445 0.0
C53 C 0.79772 0.79618 0.82047 0.0
O54 O 0.78043 0.76282 0.87806 0.0
C55 C 0.95175 0.88244 0.99001 0.0
O56 O 0.95637 0.81639 1.01864 0.0
C57 C 0.82766 0.72963 0.0585 0.0
O58 O 0.84646 0.66774 0.03911 0.0
O59 O 0.8348 0.78773 1.02104 0.0
O60 O 0.83678 0.82051 0.82527 0.0
O61 O 0.92263 0.71409 0.90144 0.0
C62 C 0.92535 0.68884 0.8359 0.0
O63 O 0.89352 0.70305 0.78871 0.0
O64 O 0.91926 0.89466 0.94714 0.0
Mg65 Mg 0.64513 0.71035 0.42517 0.0
C66 C 0.7078 0.74671 0.30612 0.0
O67 O 0.68927 0.8102 0.32062 0.0
C68 C 0.58022 0.61185 0.50122 0.0
O69 O 0.58083 0.66824 0.54664 0.0
C70 C 0.71043 0.7766 0.53559 0.0
O71 O 0.73322 0.78739 0.47495 0.0
O72 O 0.67225 0.7486 0.53044 0.0
O73 O 0.69656 0.69077 0.3441 0.0
O74 O 0.59969 0.78442 0.37021 0.0
C75 C 0.56605 0.81269 0.39983 0.0
O76 O 0.56065 0.80629 0.47175 0.0
O77 O 0.6059 0.61214 0.44582 0.0
Mg78 Mg 0.37684 0.68891 0.11437 0.0
C79 C 0.29632 0.70272 0.20932 0.0
O80 O 0.28854 0.75433 0.15995 0.0
C81 C 0.45341 0.60963 0.05365 0.0
O82 O 0.45864 0.67613 0.02636 0.0
C83 C 0.3272 0.76735 0.98401 0.0
O84 O 0.33104 0.82839 0.0224 0.0
O85 O 0.343 0.70787 1.00976 0.0
O86 O 0.3306 0.6637 0.20263 0.0
O87 O 0.42102 0.77486 0.15334 0.0
C88 C 0.41497 0.80573 0.2157 0.0
O89 O 0.37714 0.79662 0.2489 0.0
O90 O 0.42033 0.59674 0.09443 0.0
Mg91 Mg 0.14924 0.78428 0.60825 0.0
C92 C 0.22173 0.75007 0.71666 0.0
O93 O 0.21614 0.68558 0.68524 0.0
C94 C 0.07543 0.874 0.55126 0.0
O95 O 0.06566 0.80804 0.52635 0.0
C96 C 0.19993 0.70073 0.48458 0.0
O97 O 0.20433 0.64762 0.53346 0.0
O98 O 0.17892 0.75849 0.50181 0.0
O99 O 0.19854 0.80381 0.69435 0.0
O100 O 0.10068 0.70541 0.64738 0.0
C101 C 0.09666 0.69543 0.71687 0.0
O102 O 0.12622 0.72407 0.76156 0.0
O103 O 0.11048 0.88257 0.58894 0.0
C104 C 0.27425 0.31657 0.81875 0.0
C105 C 0.29328 0.24903 0.79905 0.0
H106 H 0.23139 0.37354 0.89302 0.0
C107 C 0.28238 0.18585 0.84007 0.0
H108 H 0.28199 0.36628 0.78826 0.0
C109 C 0.25367 0.18999 0.89979 0.0
C110 C 0.23493 0.25744 0.92026 0.0
H111 H 0.2963 0.13285 0.82652 0.0
H112 H 0.24636 0.14001 0.93015 0.0
C113 C 0.24531 0.32073 0.87879 0.0
C114 C 0.23808 0.16713 0.35987 0.0
C115 C 0.25911 0.19138 0.29505 0.0
H116 H 0.24155 0.15481 0.47781 0.0
C117 C 0.3024 0.21775 0.30036 0.0
H118 H 0.20477 0.14634 0.35781 0.0
C119 C 0.32357 0.2224 0.36923 0.0
C120 C 0.30186 0.20108 0.43444 0.0
H121 H 0.31966 0.23656 0.25152 0.0
H122 H 0.35649 0.24484 0.3715 0.0
C123 C 0.25918 0.17205 0.42877 0.0
C124 C 0.75709 0.29402 0.2381 0.0
C125 C 0.78187 0.23339 0.26206 0.0
H126 H 0.71401 0.33859 0.156 0.0
C127 C 0.77989 0.16787 0.22072 0.0
H128 H 0.75765 0.34526 0.26864 0.0
C129 C 0.75463 0.16397 0.15562 0.0
C130 C 0.73098 0.22556 0.13056 0.0
H131 H 0.79854 0.12009 0.23774 0.0
H132 H 0.75444 0.11329 0.12416 0.0
C133 C 0.73204 0.29019 0.17324 0.0
C134 C 0.79766 0.2414 0.75335 0.0
C135 C 0.76521 0.29434 0.76688 0.0
H136 H 0.84483 0.19888 0.67752 0.0
C137 C 0.7577 0.34936 0.71339 0.0
H138 H 0.8044 0.19829 0.7933 0.0
C139 C 0.78119 0.34995 0.64686 0.0
C140 C 0.81238 0.29514 0.63221 0.0
H141 H 0.73299 0.39105 0.72216 0.0
H142 H 0.77394 0.39201 0.60604 0.0
C143 C 0.82081 0.2416 0.68674 0.0
C144 C 0.78725 0.6694 0.16427 0.0
C145 C 0.79794 0.73285 0.12329 0.0
H146 H 0.75038 0.6237 0.25451 0.0
C147 C 0.77961 0.80043 0.14437 0.0
H148 H 0.80085 0.61648 0.14957 0.0
C149 C 0.75097 0.80454 0.20419 0.0
C150 C 0.73974 0.74121 0.2447 0.0
H151 H 0.78717 0.85054 0.1144 0.0
H152 H 0.73735 0.85765 0.2182 0.0
C153 C 0.75838 0.67353 0.22443 0.0
C154 C 0.70939 0.76677 0.67448 0.0
C155 C 0.73088 0.78905 0.60938 0.0
H156 H 0.71352 0.75173 0.79206 0.0
C157 C 0.77336 0.81887 0.61516 0.0
H158 H 0.67662 0.7437 0.67212 0.0
C159 C 0.7945 0.82366 0.68405 0.0
C160 C 0.7737 0.79848 0.74873 0.0
H161 H 0.79082 0.83686 0.56622 0.0
H162 H 0.82766 0.84509 0.68619 0.0
C163 C 0.73059 0.77128 0.74332 0.0
C164 C 0.27969 0.82772 0.88679 0.0
C165 C 0.3026 0.76573 0.91282 0.0
H166 H 0.23616 0.87172 0.80413 0.0
C167 C 0.30057 0.70037 0.87136 0.0
H168 H 0.28064 0.87896 0.9173 0.0
C169 C 0.2753 0.69628 0.80678 0.0
C170 C 0.25128 0.75739 0.78183 0.0
H171 H 0.31801 0.65163 0.88936 0.0
H172 H 0.27399 0.64452 0.7772 0.0
C173 C 0.25423 0.82357 0.82193 0.0
C174 C 0.23574 0.74903 0.28961 0.0
C175 C 0.26883 0.69706 0.27668 0.0
H176 H 0.18815 0.79092 0.36505 0.0
C177 C 0.27708 0.64302 0.33087 0.0
H178 H 0.22843 0.79135 0.24909 0.0
C179 C 0.2537 0.64253 0.3975 0.0
C180 C 0.22186 0.69643 0.41155 0.0
H181 H 0.30229 0.60208 0.32259 0.0
H182 H 0.26154 0.60128 0.43886 0.0
C183 C 0.21268 0.74891 0.35631 0.0
C184 C 0.0275 0.32477 0.18904 0.0
C185 C 0.06443 0.32518 0.23605 0.0
H186 H 0.95768 0.31725 0.18117 0.0
C187 C 0.05811 0.33347 0.3128 0.0
H188 H 0.03114 0.31953 0.12958 0.0
C189 C 1.01586 0.33187 0.34252 0.0
C190 C 0.97918 0.32218 0.29597 0.0
H191 H 0.08581 0.33503 0.35061 0.0
H192 H 1.0123 0.33225 0.40224 0.0
C193 C 0.98529 0.32333 0.21874 0.0
C194 C 0.54654 0.1472 0.66165 0.0
C195 C 0.50477 0.1582 0.69208 0.0
H196 H 0.61576 0.14611 0.68114 0.0
C197 C 0.50072 0.16198 0.76966 0.0
H198 H 0.5508 0.14302 0.60224 0.0
C199 C 0.53801 0.16398 0.81499 0.0
C200 C 0.58007 0.16203 0.78363 0.0
H201 H 0.46895 0.16914 0.79514 0.0
H202 H 0.53385 0.17281 0.87391 0.0
C203 C 0.58387 0.14897 0.70706 0.0
C204 C 0.04796 0.66956 0.82493 0.0
C205 C 0.05414 0.67072 0.74772 0.0
H206 H 1.00203 0.67278 0.91397 0.0
C207 C 0.01755 0.66056 0.70106 0.0
H208 H 0.07551 0.67598 0.86255 0.0
C209 C 0.97528 0.65846 0.73067 0.0
C210 C 0.96885 0.66668 0.8074 0.0
H211 H 0.02117 0.66021 0.64136 0.0
H212 H 0.94762 0.65657 0.69279 0.0
C213 C 1.00573 0.66756 0.85451 0.0
C214 C 0.49566 0.82854 0.22828 0.0
C215 C 0.45355 0.83065 0.25941 0.0
H216 H 0.56466 0.82283 0.24849 0.0
C217 C 0.44963 0.84351 0.336 0.0
H218 H 0.49991 0.81988 0.16935 0.0
C219 C 0.48687 0.84487 0.38162 0.0
C220 C 0.52867 0.83365 0.35139 0.0
H221 H 0.41769 0.84648 0.36174 0.0
H222 H 0.4825 0.84886 0.44103 0.0
C223 C 0.53286 0.83014 0.27382 0.0
C224 C 0.05212 0.97969 0.06809 0.0
C225 C 0.04816 0.05031 0.03713 0.0
H226 H 0.02484 0.87157 0.07766 0.0
C227 C 1.01205 0.06542 0.99067 0.0
H228 H 0.07946 0.96622 0.10416 0.0
C229 C 0.98064 0.01118 0.9755 0.0
C230 C 0.9846 0.94055 1.00646 0.0
H231 H 1.00793 0.1193 0.96593 0.0
H232 H 0.9533 0.02464 0.93943 0.0
C233 C 0.02071 0.92545 0.05293 0.0
C234 C 0.51874 0.55324 0.57211 0.0
C235 C 0.548 0.55151 0.51209 0.0
H236 H 0.46547 0.50065 0.62839 0.0
C237 C 0.5451 0.49296 0.46154 0.0
H238 H 0.51993 0.59765 0.61201 0.0
C239 C 0.5137 0.43746 0.47081 0.0
C240 C 0.48445 0.43918 0.53085 0.0
H241 H 0.56697 0.49005 0.41455 0.0
H242 H 0.51251 0.39304 0.43092 0.0
C243 C 0.48734 0.49774 0.58138 0.0
C244 C 0.48094 0.4802 0.06644 0.0
C245 C 0.48586 0.55143 0.0373 0.0
H246 H 0.50696 0.37133 0.07435 0.0
C247 C 0.52234 0.56685 0.99238 0.0
H248 H 0.45327 0.46646 0.10125 0.0
C249 C 0.55319 0.51231 0.97694 0.0
C250 C 0.54827 0.44108 1.00607 0.0
H251 H 0.52717 0.62118 0.96903 0.0
H252 H 0.58087 0.52604 0.94212 0.0
C253 C 0.51179 0.42566 0.05099 0.0
C254 C 1.00678 0.92572 0.49499 0.0
C255 C 0.04564 0.93655 0.53603 0.0
H256 H 0.94876 0.97412 0.4489 0.0
C257 C 0.05545 0.00737 0.56246 0.0
H258 H 0.99818 0.87184 0.47381 0.0
C259 C 0.02704 0.06601 0.54818 0.0
C260 C 0.98818 0.05518 0.50714 0.0
H261 H 0.08507 0.0176 0.59426 0.0
H262 H 0.03564 0.11989 0.56935 0.0
C263 C 0.97838 0.98436 0.4807 0.0
loop_
_geom_bond_atom_site_label_1
_geom_bond_atom_site_label_2
_geom_bond_distance
_geom_bond_site_symmetry_2
_ccdc_geom_bond_type
Mg0 O7 2.141 . S
Mg0 O8 2.048 . S
Mg0 O9 2.048 . S
Mg0 O12 2.141 . S
C1 O2 1.313 . S
C1 O8 1.195 . S
O2 C1 1.313 . S
C3 O4 1.245 . S
C3 O12 1.289 1_556 S
O4 C3 1.245 . S
C5 O6 1.245 . S
C5 O7 1.289 1_556 S
O6 C5 1.245 . S
O7 Mg0 2.141 . S
O7 C5 1.289 1_554 S
O8 Mg0 2.048 . S
O8 C1 1.195 . S
O9 Mg0 2.048 . S
O9 C10 1.195 . S
C10 O9 1.195 . S
C10 O11 1.313 . S
O11 C10 1.313 . S
O12 Mg0 2.141 . S
O12 C3 1.289 1_554 S
Mg13 O20 2.141 . S
Mg13 O21 2.048 . S
Mg13 O22 2.048 . S
Mg13 O25 2.141 . S
C14 O15 1.313 . S
C14 O21 1.195 . S
O15 C14 1.313 . S
C16 O17 1.245 . S
C16 O25 1.289 . S
O17 C16 1.245 . S
C18 O19 1.245 . S
C18 O20 1.289 . S
O19 C18 1.245 . S
O20 Mg13 2.141 . S
O20 C18 1.289 . S
O21 Mg13 2.048 . S
O21 C14 1.195 . S
O22 Mg13 2.048 . S
O22 C23 1.195 . S
C23 O22 1.195 . S
C23 O24 1.313 . S
O24 C23 1.313 . S
O25 Mg13 2.141 . S
O25 C16 1.289 . S
Mg26 O33 2.141 . S
Mg26 O34 2.048 . S
Mg26 O35 2.048 . S
Mg26 O38 2.141 . S
C27 O28 1.313 . S
C27 O34 1.195 . S
O28 C27 1.313 . S
C29 O30 1.245 . S
C29 O38 1.289 1_554 S
O30 C29 1.245 . S
C31 O32 1.245 . S
C31 O33 1.289 1_554 S
O32 C31 1.245 . S
O33 Mg26 2.141 . S
O33 C31 1.289 1_556 S
O34 Mg26 2.048 . S
O34 C27 1.195 . S
O35 Mg26 2.048 . S
O35 C36 1.195 . S
C36 O35 1.195 . S
C36 O37 1.313 . S
O37 C36 1.313 . S
O38 Mg26 2.141 . S
O38 C29 1.289 1_556 S
Mg39 O46 2.141 . S
Mg39 O47 2.048 . S
Mg39 O48 2.048 . S
Mg39 O51 2.141 . S
C40 O41 1.313 . S
C40 O47 1.195 . S
O41 C40 1.313 . S
C42 O43 1.245 . S
C42 O51 1.289 . S
O43 C42 1.245 . S
C44 O45 1.245 . S
C44 O46 1.289 . S
O45 C44 1.245 . S
O46 Mg39 2.141 . S
O46 C44 1.289 . S
O47 Mg39 2.048 . S
O47 C40 1.195 . S
O48 Mg39 2.048 . S
O48 C49 1.195 . S
C49 O48 1.195 . S
C49 O50 1.313 . S
O50 C49 1.313 . S
O51 Mg39 2.141 . S
O51 C42 1.289 . S
Mg52 O59 2.141 . S
Mg52 O60 2.048 . S
Mg52 O61 2.048 . S
Mg52 O64 2.141 . S
C53 O54 1.313 . S
C53 O60 1.195 . S
O54 C53 1.313 . S
C55 O56 1.245 . S
C55 O64 1.289 1_554 S
O56 C55 1.245 . S
C57 O58 1.245 . S
C57 O59 1.289 1_554 S
O58 C57 1.245 . S
O59 Mg52 2.141 . S
O59 C57 1.289 1_556 S
O60 Mg52 2.048 . S
O60 C53 1.195 . S
O61 Mg52 2.048 . S
O61 C62 1.195 . S
C62 O61 1.195 . S
C62 O63 1.313 . S
O63 C62 1.313 . S
O64 Mg52 2.141 . S
O64 C55 1.289 1_556 S
Mg65 O72 2.141 . S
Mg65 O73 2.048 . S
Mg65 O74 2.048 . S
Mg65 O77 2.141 . S
C66 O67 1.313 . S
C66 O73 1.195 . S
O67 C66 1.313 . S
C68 O69 1.245 . S
C68 O77 1.289 . S
O69 C68 1.245 . S
C70 O71 1.245 . S
C70 O72 1.289 . S
O71 C70 1.245 . S
O72 Mg65 2.141 . S
O72 C70 1.289 . S
O73 Mg65 2.048 . S
O73 C66 1.195 . S
O74 Mg65 2.048 . S
O74 C75 1.195 . S
C75 O74 1.195 . S
C75 O76 1.313 . S
O76 C75 1.313 . S
O77 Mg65 2.141 . S
O77 C68 1.289 . S
Mg78 O85 2.141 . S
Mg78 O86 2.048 . S
Mg78 O87 2.048 . S
Mg78 O90 2.141 . S
C79 O80 1.313 . S
C79 O86 1.195 . S
O80 C79 1.313 . S
C81 O82 1.245 . S
C81 O90 1.289 1_556 S
O82 C81 1.245 . S
C83 O84 1.245 . S
C83 O85 1.289 1_556 S
O84 C83 1.245 . S
O85 Mg78 2.141 . S
O85 C83 1.289 1_554 S
O86 Mg78 2.048 . S
O86 C79 1.195 . S
O87 Mg78 2.048 . S
O87 C88 1.195 . S
C88 O87 1.195 . S
C88 O89 1.313 . S
O89 C88 1.313 . S
O90 Mg78 2.141 . S
O90 C81 1.289 1_554 S
Mg91 O98 2.141 . S
Mg91 O99 2.048 . S
Mg91 O100 2.048 . S
Mg91 O103 2.141 . S
C92 O93 1.313 . S
C92 O99 1.195 . S
O93 C92 1.313 . S
C94 O95 1.245 . S
C94 O103 1.289 . S
O95 C94 1.245 . S
C96 O97 1.245 . S
C96 O98 1.289 . S
O97 C96 1.245 . S
O98 Mg91 2.141 . S
O98 C96 1.289 . S
O99 Mg91 2.048 . S
O99 C92 1.195 . S
O100 Mg91 2.048 . S
O100 C101 1.195 . S
C101 O100 1.195 . S
C101 O102 1.313 . S
O102 C101 1.313 . S
O103 Mg91 2.141 . S
O103 C94 1.289 . S
C104 C105 1.387 . S
C104 H108 0.950 . S
C104 C113 1.390 . S
C105 C104 1.387 . S
C105 C107 1.387 . S
H106 C113 0.950 . S
C107 C105 1.387 . S
C107 C109 1.390 . S
C107 H111 0.950 . S
H108 C104 0.950 . S
C109 C107 1.390 . S
C109 C110 1.387 . S
C109 H112 0.950 . S
C110 C109 1.387 . S
C110 C113 1.387 . S
H111 C107 0.950 . S
H112 C109 0.950 . S
C113 C104 1.390 . S
C113 H106 0.950 . S
C113 C110 1.387 . S
C114 C115 1.387 . S
C114 H118 0.950 . S
C114 C123 1.390 . S
C115 C114 1.387 . S
C115 C117 1.387 . S
H116 C123 0.950 . S
C117 C115 1.387 . S
C117 C119 1.390 . S
C117 H121 0.950 . S
H118 C114 0.950 . S
C119 C117 1.390 . S
C119 C120 1.387 . S
C119 H122 0.950 . S
C120 C119 1.387 . S
C120 C123 1.387 . S
H121 C117 0.950 . S
H122 C119 0.950 . S
C123 C114 1.390 . S
C123 H116 0.950 . S
C123 C120 1.387 . S
C124 C125 1.387 . S
C124 H128 0.950 . S
C124 C133 1.390 . S
C125 C124 1.387 . S
C125 C127 1.387 . S
H126 C133 0.950 . S
C127 C125 1.387 . S
C127 C129 1.390 . S
C127 H131 0.950 . S
H128 C124 0.950 . S
C129 C127 1.390 . S
C129 C130 1.387 . S
C129 H132 0.950 . S
C130 C129 1.387 . S
C130 C133 1.387 . S
H131 C127 0.950 . S
H132 C129 0.950 . S
C133 C124 1.390 . S
C133 H126 0.950 . S
C133 C130 1.387 . S
C134 C135 1.387 . S
C134 H138 0.950 . S
C134 C143 1.390 . S
C135 C134 1.387 . S
C135 C137 1.387 . S
H136 C143 0.950 . S
C137 C135 1.387 . S
C137 C139 1.390 . S
C137 H141 0.950 . S
H138 C134 0.950 . S
C139 C137 1.390 . S
C139 C140 1.387 . S
C139 H142 0.950 . S
C140 C139 1.387 . S
C140 C143 1.387 . S
H141 C137 0.950 . S
H142 C139 0.950 . S
C143 C134 1.390 . S
C143 H136 0.950 . S
C143 C140 1.387 . S
C144 C145 1.387 . S
C144 H148 0.950 . S
C144 C153 1.390 . S
C145 C144 1.387 . S
C145 C147 1.387 . S
H146 C153 0.950 . S
C147 C145 1.387 . S
C147 C149 1.390 . S
C147 H151 0.950 . S
H148 C144 0.950 . S
C149 C147 1.390 . S
C149 C150 1.387 . S
C149 H152 0.950 . S
C150 C149 1.387 . S
C150 C153 1.387 . S
H151 C147 0.950 . S
H152 C149 0.950 . S
C153 C144 1.390 . S
C153 H146 0.950 . S
C153 C150 1.387 . S
C154 C155 1.387 . S
C154 H158 0.950 . S
C154 C163 1.390 . S
C155 C154 1.387 . S
C155 C157 1.387 . S
H156 C163 0.950 . S
C157 C155 1.387 . S
C157 C159 1.390 . S
C157 H161 0.950 . S
H158 C154 0.950 . S
C159 C157 1.390 . S
C159 C160 1.387 . S
C159 H162 0.950 . S
C160 C159 1.387 . S
C160 C163 1.387 . S
H161 C157 0.950 . S
H162 C159 0.950 . S
C163 C154 1.390 . S
C163 H156 0.950 . S
C163 C160 1.387 . S
C164 C165 1.387 . S
C164 H168 0.950 . S
C164 C173 1.390 . S
C165 C164 1.387 . S
C165 C167 1.387 . S
H166 C173 0.950 . S
C167 C165 1.387 . S
C167 C169 1.390 . S
C167 H171 0.950 . S
H168 C164 0.950 . S
C169 C167 1.390 . S
C169 C170 1.387 . S
C169 H172 0.950 . S
C170 C169 1.387 . S
C170 C173 1.387 . S
H171 C167 0.950 . S
H172 C169 0.950 . S
C173 C164 1.390 . S
C173 H166 0.950 . S
C173 C170 1.387 . S
C174 C175 1.387 . S
C174 H178 0.950 . S
C174 C183 1.390 . S
C175 C174 1.387 . S
C175 C177 1.387 . S
H176 C183 0.950 . S
C177 C175 1.387 . S
C177 C179 1.390 . S
C177 H181 0.950 . S
H178 C174 0.950 . S
C179 C177 1.390 . S
C179 C180 1.387 . S
C179 H182 0.950 . S
C180 C179 1.387 . S
C180 C183 1.387 . S
H181 C177 0.950 . S
H182 C179 0.950 . S
C183 C174 1.390 . S
C183 H176 0.950 . S
C183 C180 1.387 . S
C184 C185 1.387 . S
C184 H188 0.950 . S
C184 C193 1.390 1_455 S
C185 C184 1.387 . S
C185 C187 1.387 . S
H186 C193 0.950 . S
C187 C185 1.387 . S
C187 C189 1.390 1_455 S
C187 H191 0.950 . S
H188 C184 0.950 . S
C189 C187 1.390 1_655 S
C189 C190 1.387 . S
C189 H192 0.950 . S
C190 C189 1.387 . S
C190 C193 1.387 . S
H191 C187 0.950 . S
H192 C189 0.950 . S
C193 C184 1.390 1_655 S
C193 H186 0.950 . S
C193 C190 1.387 . S
C194 C195 1.387 . S
C194 H198 0.950 . S
C194 C203 1.390 . S
C195 C194 1.387 . S
C195 C197 1.387 . S
H196 C203 0.950 . S
C197 C195 1.387 . S
C197 C199 1.390 . S
C197 H201 0.950 . S
H198 C194 0.950 . S
C199 C197 1.390 . S
C199 C200 1.387 . S
C199 H202 0.950 . S
C200 C199 1.387 . S
C200 C203 1.387 . S
H201 C197 0.950 . S
H202 C199 0.950 . S
C203 C194 1.390 . S
C203 H196 0.950 . S
C203 C200 1.387 . S
C204 C205 1.387 . S
C204 H208 0.950 . S
C204 C213 1.390 1_455 S
C205 C204 1.387 . S
C205 C207 1.387 . S
H206 C213 0.950 . S
C207 C205 1.387 . S
C207 C209 1.390 1_455 S
C207 H211 0.950 . S
H208 C204 0.950 . S
C209 C207 1.390 1_655 S
C209 C210 1.387 . S
C209 H212 0.950 . S
C210 C209 1.387 . S
C210 C213 1.387 . S
H211 C207 0.950 . S
H212 C209 0.950 . S
C213 C204 1.390 1_655 S
C213 H206 0.950 . S
C213 C210 1.387 . S
C214 C215 1.387 . S
C214 H218 0.950 . S
C214 C223 1.390 . S
C215 C214 1.387 . S
C215 C217 1.387 . S
H216 C223 0.950 . S
C217 C215 1.387 . S
C217 C219 1.390 . S
C217 H221 0.950 . S
H218 C214 0.950 . S
C219 C217 1.390 . S
C219 C220 1.387 . S
C219 H222 0.950 . S
C220 C219 1.387 . S
C220 C223 1.387 . S
H221 C217 0.950 . S
H222 C219 0.950 . S
C223 C214 1.390 . S
C223 H216 0.950 . S
C223 C220 1.387 . S
C224 C225 1.387 1_554 S
C224 H228 0.950 . S
C224 C233 1.390 1_445 S
C225 C224 1.387 1_556 S
C225 C227 1.387 . S
H226 C233 0.950 . S
C227 C225 1.387 . S
C227 C229 1.390 1_445 S
C227 H231 0.950 . S
H228 C224 0.950 . S
C229 C227 1.390 1_665 S
C229 C230 1.387 1_556 S
C229 H232 0.950 . S
C230 C229 1.387 1_554 S
C230 C233 1.387 . S
H231 C227 0.950 . S
H232 C229 0.950 . S
C233 C224 1.390 1_665 S
C233 H226 0.950 . S
C233 C230 1.387 . S
C234 C235 1.387 . S
C234 H238 0.950 . S
C234 C243 1.390 . S
C235 C234 1.387 . S
C235 C237 1.387 . S
H236 C243 0.950 . S
C237 C235 1.387 . S
C237 C239 1.390 . S
C237 H241 0.950 . S
H238 C234 0.950 . S
C239 C237 1.390 . S
C239 C240 1.387 . S
C239 H242 0.950 . S
C240 C239 1.387 . S
C240 C243 1.387 . S
H241 C237 0.950 . S
H242 C239 0.950 . S
C243 C234 1.390 . S
C243 H236 0.950 . S
C243 C240 1.387 . S
C244 C245 1.387 1_554 S
C244 H248 0.950 . S
C244 C253 1.390 . S
C245 C244 1.387 1_556 S
C245 C247 1.387 . S
H246 C253 0.950 . S
C247 C245 1.387 . S
C247 C249 1.390 . S
C247 H251 0.950 . S
H248 C244 0.950 . S
C249 C247 1.390 . S
C249 C250 1.387 1_556 S
C249 H252 0.950 . S
C250 C249 1.387 1_554 S
C250 C253 1.387 . S
H251 C247 0.950 . S
H252 C249 0.950 . S
C253 C244 1.390 . S
C253 H246 0.950 . S
C253 C250 1.387 . S
C254 C255 1.387 . S
C254 H258 0.950 . S
C254 C263 1.390 1_465 S
C255 C254 1.387 . S
C255 C257 1.387 . S
H256 C263 0.950 . S
C257 C255 1.387 . S
C257 C259 1.390 1_465 S
C257 H261 0.950 . S
H258 C254 0.950 . S
C259 C257 1.390 1_645 S
C259 C260 1.387 . S
C259 H262 0.950 . S
C260 C259 1.387 . S
C260 C263 1.387 . S
H261 C257 0.950 . S
H262 C259 0.950 . S
C263 C254 1.390 1_645 S
C263 H256 0.950 . S
C263 C260 1.387 . S
C105 C23 1.981 . S
C110 C3 1.997 . S
C115 C10 1.981 . S
C120 C16 1.997 . S
C125 C49 1.982 . S
C130 C29 1.998 . S
C135 C36 1.982 . S
C140 C42 1.998 . S
C145 C57 1.998 . S
C150 C66 1.982 . S
C155 C70 1.997 . S
C160 C53 1.981 . S
C165 C83 1.998 . S
C170 C92 1.982 . S
C175 C79 1.981 . S
C180 C96 1.997 . S
C185 C1 0.866 . S
C190 C40 0.866 . S
C195 C14 0.866 . S
C200 C27 0.866 . S
C205 C101 0.860 . S
C210 C62 0.860 . S
C215 C88 0.866 . S
C220 C75 0.866 . S
C225 C5 2.048 . S
C230 C55 2.048 . S
C235 C68 2.048 . S
C240 C18 2.048 . S
C245 C81 2.049 . S
C250 C31 2.049 . S
C255 C94 2.048 . S
C260 C44 2.048 . S
