# Generated by pormake.
# Topology smk, (6)-cn, num edge types: 1
# Building blocks:
#     Node 0, Type 0, BuildingBlock: VOLQOD_clean_sbu_1, # of connection points: 6
#     Node 1, Type 0, BuildingBlock: VOLQOD_clean_sbu_1, # of connection points: 6
#     Node 2, Type 0, BuildingBlock: VOLQOD_clean_sbu_1, # of connection points: 6
#     Node 3, Type 0, BuildingBlock: VOLQOD_clean_sbu_1, # of connection points: 6
#     Node 4, Type 0, BuildingBlock: VOLQOD_clean_sbu_1, # of connection points: 6
#     Node 5, Type 0, BuildingBlock: VOLQOD_clean_sbu_1, # of connection points: 6
#     Edge 6, Type (0, 0), None
#     Edge 7, Type (0, 0), None
#     Edge 8, Type (0, 0), None
#     Edge 9, Type (0, 0), None
#     Edge 10, Type (0, 0), None
#     Edge 11, Type (0, 0), None
#     Edge 12, Type (0, 0), None
#     Edge 13, Type (0, 0), None
#     Edge 14, Type (0, 0), None
#     Edge 15, Type (0, 0), None
#     Edge 16, Type (0, 0), None
#     Edge 17, Type (0, 0), None
#     Edge 18, Type (0, 0), None
#     Edge 19, Type (0, 0), None
#     Edge 20, Type (0, 0), None
#     Edge 21, Type (0, 0), None
#     Edge 22, Type (0, 0), None
#     Edge 23, Type (0, 0), None
# Relax obj value: 0.161
# Max RMSD: 0.172
# Mean RMSD: 0.172
data_MOF--net-smk--node1-VOLQOD_clean_sbu_1--edge1-none
_symmetry_space_group_name_H-M    P1
_symmetry_Int_Tables_number       1
_symmetry_cell_setting            triclinic
loop_
_symmetry_equiv_pos_as_xyz
'x, y, z'
_cell_length_a     22.61259
_cell_length_b     22.611508
_cell_length_c     8.5156974
_cell_angle_alpha  90.000011
_cell_angle_beta   90.000138
_cell_angle_gamma 119.99931
loop_
_atom_site_label
_atom_site_type_symbol
_atom_site_fract_x
_atom_site_fract_y
_atom_site_fract_z
_atom_type_partial_charge
O0 O 0.45424 0.25601 0.9214 0.0
Zn1 Zn 0.44379 0.28011 0.69289 0.0
O2 O 0.41566 0.20005 0.57316 0.0
Zn3 Zn 0.48777 0.2137 0.44017 0.0
Zn4 Zn 0.40393 0.13172 0.71644 0.0
Zn5 Zn 0.33289 0.16919 0.45644 0.0
O6 O 0.45065 0.17735 0.22624 0.0
O7 O 0.36521 0.20041 0.23617 0.0
O8 O 0.52341 0.36507 0.57865 0.0
O9 O 0.5406 0.31058 0.38349 0.0
O10 O 0.55338 0.19287 0.56349 0.0
O11 O 0.49391 0.14058 0.77748 0.0
O12 O 0.34069 0.04217 0.62232 0.0
O13 O 0.36333 0.29286 0.69742 0.0
O14 O 0.27954 0.06356 0.44977 0.0
O15 O 0.28045 0.21501 0.54536 0.0
C16 C 0.41129 0.2003 0.99037 0.0
C17 C 0.41078 0.19478 0.16006 0.0
C18 C 0.5495 0.16802 0.70107 0.0
C19 C 0.55115 0.36559 0.44666 0.0
C20 C 0.29348 0.02193 0.51978 0.0
C21 C 0.30314 0.26538 0.64119 0.0
O22 O 0.37027 0.14723 0.91403 0.0
O23 O 0.18974 0.45842 0.08809 0.0
Zn24 Zn 0.15519 0.44797 0.85957 0.0
O25 O 0.20711 0.41984 0.73985 0.0
Zn26 Zn 0.26557 0.49194 0.60685 0.0
Zn27 Zn 0.26372 0.40811 0.88313 0.0
Zn28 Zn 0.15521 0.33707 0.62313 0.0
O29 O 0.26481 0.45482 0.39292 0.0
O30 O 0.15631 0.36939 0.40286 0.0
O31 O 0.14986 0.5276 0.74533 0.0
O32 O 0.22154 0.54478 0.55017 0.0
O33 O 0.35203 0.55756 0.73017 0.0
O34 O 0.34484 0.49809 0.94417 0.0
O35 O 0.29002 0.34486 0.78901 0.0
O36 O 0.06198 0.36752 0.8641 0.0
O37 O 0.20749 0.28371 0.61645 0.0
O38 O 0.05694 0.28463 0.71203 0.0
C39 C 0.2025 0.41547 0.15706 0.0
C40 C 0.2075 0.41496 0.32675 0.0
C41 C 0.373 0.55368 0.86775 0.0
C42 C 0.17707 0.55533 0.61333 0.0
C43 C 0.26305 0.29765 0.68647 0.0
C44 C 0.02927 0.30732 0.80786 0.0
O45 O 0.21455 0.37445 0.08072 0.0
O46 O 0.72284 0.19396 0.25473 0.0
Zn47 Zn 0.69874 0.1594 0.02622 0.0
O48 O 0.77879 0.21132 0.90649 0.0
Zn49 Zn 0.76515 0.26978 0.77349 0.0
Zn50 Zn 0.84712 0.26792 0.04976 0.0
Zn51 Zn 0.80965 0.15941 0.78977 0.0
O52 O 0.8015 0.26902 0.55956 0.0
O53 O 0.77843 0.16051 0.5695 0.0
O54 O 0.61378 0.15407 0.91198 0.0
O55 O 0.66828 0.22575 0.71681 0.0
O56 O 0.78598 0.35624 0.89683 0.0
O57 O 0.83827 0.34905 0.11082 0.0
O58 O 0.93667 0.29422 0.95565 0.0
O59 O 0.68597 0.06619 0.03075 0.0
O60 O 0.91528 0.21167 0.7831 0.0
O61 O 0.76381 0.06114 0.87868 0.0
C62 C 0.77855 0.20671 0.3237 0.0
C63 C 0.78406 0.21171 0.49339 0.0
C64 C 0.81083 0.37721 0.03441 0.0
C65 C 0.61327 0.18128 0.77998 0.0
C66 C 0.95691 0.26724 0.85312 0.0
C67 C 0.71345 0.03347 0.97452 0.0
O68 O 0.83161 0.21875 0.24736 0.0
O69 O 0.5204 0.72703 0.4214 0.0
Zn70 Zn 0.53085 0.70293 0.19289 0.0
O71 O 0.55898 0.78298 0.07316 0.0
Zn72 Zn 0.48688 0.76933 0.94016 0.0
Zn73 Zn 0.57071 0.85132 0.21643 0.0
Zn74 Zn 0.64175 0.81384 0.95643 0.0
O75 O 0.52399 0.80569 0.72623 0.0
O76 O 0.60943 0.78262 0.73617 0.0
O77 O 0.45123 0.61796 0.07865 0.0
O78 O 0.43404 0.67246 0.88348 0.0
O79 O 0.42126 0.79017 0.06349 0.0
O80 O 0.48073 0.84246 0.27749 0.0
O81 O 0.63396 0.94087 0.12231 0.0
O82 O 0.61131 0.69017 0.19742 0.0
O83 O 0.69511 0.91948 0.94976 0.0
O84 O 0.69419 0.76802 0.04535 0.0
C85 C 0.56335 0.78274 0.49037 0.0
C86 C 0.56386 0.78825 0.66006 0.0
C87 C 0.42514 0.81501 0.20107 0.0
C88 C 0.4235 0.61745 0.94665 0.0
C89 C 0.68117 0.96111 0.01978 0.0
C90 C 0.67151 0.71765 0.14119 0.0
O91 O 0.60437 0.8358 0.41403 0.0
O92 O 0.7849 0.52461 0.5881 0.0
Zn93 Zn 0.81945 0.53506 0.35958 0.0
O94 O 0.76753 0.5632 0.23986 0.0
Zn95 Zn 0.70907 0.49109 0.10686 0.0
Zn96 Zn 0.71092 0.57493 0.38314 0.0
Zn97 Zn 0.81943 0.64596 0.12313 0.0
O98 O 0.70983 0.52821 0.89293 0.0
O99 O 0.81834 0.61364 0.90287 0.0
O100 O 0.82477 0.45543 0.24533 0.0
O101 O 0.7531 0.43825 0.05017 0.0
O102 O 0.62261 0.42547 0.23017 0.0
O103 O 0.6298 0.48495 0.44418 0.0
O104 O 0.68463 0.63817 0.28901 0.0
O105 O 0.91266 0.61551 0.3641 0.0
O106 O 0.76716 0.69932 0.11645 0.0
O107 O 0.9177 0.6984 0.21205 0.0
C108 C 0.77214 0.56757 0.65707 0.0
C109 C 0.76714 0.56808 0.82676 0.0
C110 C 0.60164 0.42936 0.36774 0.0
C111 C 0.79756 0.4277 0.11333 0.0
C112 C 0.7116 0.68539 0.18647 0.0
C113 C 0.94537 0.67571 0.30788 0.0
O114 O 0.76009 0.60859 0.58073 0.0
O115 O 0.2518 0.78907 0.75475 0.0
Zn116 Zn 0.2759 0.82363 0.52623 0.0
O117 O 0.19585 0.77171 0.4065 0.0
Zn118 Zn 0.2095 0.71325 0.27351 0.0
Zn119 Zn 0.12752 0.71511 0.54978 0.0
Zn120 Zn 0.16499 0.82362 0.28978 0.0
O121 O 0.17314 0.71401 0.05958 0.0
O122 O 0.19621 0.82252 0.06952 0.0
O123 O 0.36086 0.82896 0.41199 0.0
O124 O 0.30637 0.75728 0.21682 0.0
O125 O 0.18866 0.62679 0.39683 0.0
O126 O 0.13637 0.63398 0.61083 0.0
O127 O 0.03797 0.68882 0.45567 0.0
O128 O 0.28867 0.91684 0.53077 0.0
O129 O 0.05936 0.77136 0.28312 0.0
O130 O 0.21083 0.92189 0.37869 0.0
C131 C 0.1961 0.77632 0.82371 0.0
C132 C 0.19058 0.77132 -0.0066 0.0
C133 C 0.1638 0.60582 0.5344 0.0
C134 C 0.36137 0.80175 0.27999 0.0
C135 C 0.01773 0.71579 0.35314 0.0
C136 C 0.26119 0.94956 0.47454 0.0
O137 O 0.14303 0.76428 0.74737 0.0
loop_
_geom_bond_atom_site_label_1
_geom_bond_atom_site_label_2
_geom_bond_distance
_geom_bond_site_symmetry_2
_ccdc_geom_bond_type
O0 Zn1 1.953 . S
O0 C16 1.225 1_556 S
Zn1 O0 1.953 . S
Zn1 O2 1.949 . S
Zn1 O8 1.919 . S
Zn1 O13 1.924 . S
O2 Zn1 1.949 . S
O2 Zn3 1.923 . S
O2 Zn4 1.950 . S
O2 Zn5 1.945 . S
Zn3 O2 1.923 . S
Zn3 O6 1.933 . S
Zn3 O9 1.941 . S
Zn3 O10 1.965 . S
Zn4 O2 1.950 . S
Zn4 O11 1.938 . S
Zn4 O12 1.906 . S
Zn4 O22 1.953 . S
Zn5 O2 1.945 . S
Zn5 O7 1.932 . S
Zn5 O14 1.977 . S
Zn5 O15 1.910 . S
O6 Zn3 1.933 . S
O6 C17 1.226 . S
O7 Zn5 1.932 . S
O7 C17 1.307 . S
O8 Zn1 1.919 . S
O8 C19 1.253 . S
O9 Zn3 1.941 . S
O9 C19 1.283 . S
O10 Zn3 1.965 . S
O10 C18 1.303 . S
O11 Zn4 1.938 . S
O11 C18 1.247 . S
O12 Zn4 1.906 . S
O12 C20 1.304 . S
O13 Zn1 1.924 . S
O13 C21 1.311 . S
O14 Zn5 1.977 . S
O14 C20 1.272 . S
O15 Zn5 1.910 . S
O15 C21 1.231 . S
C16 O0 1.225 1_554 S
C16 O22 1.298 1_554 S
C17 O6 1.226 . S
C17 O7 1.307 . S
C18 O10 1.303 . S
C18 O11 1.247 . S
C19 O8 1.253 . S
C19 O9 1.283 . S
C20 O12 1.304 . S
C20 O14 1.272 . S
C21 O13 1.311 . S
C21 O15 1.231 . S
O22 Zn4 1.953 . S
O22 C16 1.298 1_556 S
O23 Zn24 1.953 1_554 S
O23 C39 1.225 . S
Zn24 O23 1.953 1_556 S
Zn24 O25 1.949 . S
Zn24 O31 1.919 . S
Zn24 O36 1.924 . S
O25 Zn24 1.949 . S
O25 Zn26 1.923 . S
O25 Zn27 1.950 . S
O25 Zn28 1.945 . S
Zn26 O25 1.923 . S
Zn26 O29 1.933 . S
Zn26 O32 1.941 . S
Zn26 O33 1.965 . S
Zn27 O25 1.950 . S
Zn27 O34 1.938 . S
Zn27 O35 1.906 . S
Zn27 O45 1.953 1_556 S
Zn28 O25 1.945 . S
Zn28 O30 1.932 . S
Zn28 O37 1.977 . S
Zn28 O38 1.910 . S
O29 Zn26 1.933 . S
O29 C40 1.226 . S
O30 Zn28 1.932 . S
O30 C40 1.307 . S
O31 Zn24 1.919 . S
O31 C42 1.253 . S
O32 Zn26 1.941 . S
O32 C42 1.283 . S
O33 Zn26 1.965 . S
O33 C41 1.303 . S
O34 Zn27 1.938 . S
O34 C41 1.247 . S
O35 Zn27 1.906 . S
O35 C43 1.304 . S
O36 Zn24 1.924 . S
O36 C44 1.311 . S
O37 Zn28 1.977 . S
O37 C43 1.272 . S
O38 Zn28 1.910 . S
O38 C44 1.231 . S
C39 O23 1.225 . S
C39 O45 1.298 . S
C40 O29 1.226 . S
C40 O30 1.307 . S
C41 O33 1.303 . S
C41 O34 1.247 . S
C42 O31 1.253 . S
C42 O32 1.283 . S
C43 O35 1.304 . S
C43 O37 1.272 . S
C44 O36 1.311 . S
C44 O38 1.231 . S
O45 Zn27 1.953 1_554 S
O45 C39 1.298 . S
O46 Zn47 1.953 . S
O46 C62 1.225 . S
Zn47 O46 1.953 . S
Zn47 O48 1.949 1_554 S
Zn47 O54 1.919 1_554 S
Zn47 O59 1.924 . S
O48 Zn47 1.949 1_556 S
O48 Zn49 1.923 . S
O48 Zn50 1.950 1_556 S
O48 Zn51 1.945 . S
Zn49 O48 1.923 . S
Zn49 O52 1.933 . S
Zn49 O55 1.941 . S
Zn49 O56 1.965 . S
Zn50 O48 1.950 1_554 S
Zn50 O57 1.938 . S
Zn50 O58 1.906 . S
Zn50 O68 1.953 . S
Zn51 O48 1.945 . S
Zn51 O53 1.932 . S
Zn51 O60 1.977 . S
Zn51 O61 1.910 . S
O52 Zn49 1.933 . S
O52 C63 1.226 . S
O53 Zn51 1.932 . S
O53 C63 1.307 . S
O54 Zn47 1.919 1_556 S
O54 C65 1.253 . S
O55 Zn49 1.941 . S
O55 C65 1.283 . S
O56 Zn49 1.965 . S
O56 C64 1.303 1_556 S
O57 Zn50 1.938 . S
O57 C64 1.247 . S
O58 Zn50 1.906 . S
O58 C66 1.304 1_554 S
O59 Zn47 1.924 . S
O59 C67 1.311 1_554 S
O60 Zn51 1.977 . S
O60 C66 1.272 . S
O61 Zn51 1.910 . S
O61 C67 1.231 . S
C62 O46 1.225 . S
C62 O68 1.298 . S
C63 O52 1.226 . S
C63 O53 1.307 . S
C64 O56 1.303 1_554 S
C64 O57 1.247 . S
C65 O54 1.253 . S
C65 O55 1.283 . S
C66 O58 1.304 1_556 S
C66 O60 1.272 . S
C67 O59 1.311 1_556 S
C67 O61 1.231 . S
O68 Zn50 1.953 . S
O68 C62 1.298 . S
O69 Zn70 1.953 . S
O69 C85 1.225 . S
Zn70 O69 1.953 . S
Zn70 O71 1.949 . S
Zn70 O77 1.919 . S
Zn70 O82 1.924 . S
O71 Zn70 1.949 . S
O71 Zn72 1.923 1_554 S
O71 Zn73 1.950 . S
O71 Zn74 1.945 1_554 S
Zn72 O71 1.923 1_556 S
Zn72 O75 1.933 . S
Zn72 O78 1.941 . S
Zn72 O79 1.965 1_556 S
Zn73 O71 1.950 . S
Zn73 O80 1.938 . S
Zn73 O81 1.906 . S
Zn73 O91 1.953 . S
Zn74 O71 1.945 1_556 S
Zn74 O76 1.932 . S
Zn74 O83 1.977 . S
Zn74 O84 1.912 . S
O75 Zn72 1.933 . S
O75 C86 1.226 . S
O76 Zn74 1.932 . S
O76 C86 1.307 . S
O77 Zn70 1.919 . S
O77 C88 1.253 . S
O78 Zn72 1.941 . S
O78 C88 1.283 1_556 S
O79 Zn72 1.965 1_554 S
O79 C87 1.303 . S
O80 Zn73 1.938 . S
O80 C87 1.247 . S
O81 Zn73 1.906 . S
O81 C89 1.304 . S
O82 Zn70 1.924 . S
O82 C90 1.311 . S
O83 Zn74 1.977 . S
O83 C89 1.272 1_556 S
O84 Zn74 1.912 . S
O84 C90 1.227 1_556 S
C85 O69 1.225 . S
C85 O91 1.298 . S
C86 O75 1.226 . S
C86 O76 1.307 . S
C87 O79 1.303 . S
C87 O80 1.247 . S
C88 O77 1.253 . S
C88 O78 1.283 1_554 S
C89 O81 1.304 . S
C89 O83 1.272 1_554 S
C90 O82 1.311 . S
C90 O84 1.227 1_554 S
O91 Zn73 1.953 . S
O91 C85 1.298 . S
O92 Zn93 1.953 . S
O92 C108 1.225 . S
Zn93 O92 1.953 . S
Zn93 O94 1.949 . S
Zn93 O100 1.919 . S
Zn93 O105 1.924 . S
O94 Zn93 1.949 . S
O94 Zn95 1.923 . S
O94 Zn96 1.950 . S
O94 Zn97 1.945 . S
Zn95 O94 1.923 . S
Zn95 O98 1.933 1_554 S
Zn95 O101 1.941 . S
Zn95 O102 1.965 . S
Zn96 O94 1.950 . S
Zn96 O103 1.938 . S
Zn96 O104 1.906 . S
Zn96 O114 1.953 . S
Zn97 O94 1.945 . S
Zn97 O99 1.932 1_554 S
Zn97 O106 1.977 . S
Zn97 O107 1.910 . S
O98 Zn95 1.933 1_556 S
O98 C109 1.226 . S
O99 Zn97 1.932 1_556 S
O99 C109 1.307 . S
O100 Zn93 1.919 . S
O100 C111 1.253 . S
O101 Zn95 1.941 . S
O101 C111 1.283 . S
O102 Zn95 1.965 . S
O102 C110 1.303 . S
O103 Zn96 1.938 . S
O103 C110 1.247 . S
O104 Zn96 1.906 . S
O104 C112 1.304 . S
O105 Zn93 1.924 . S
O105 C113 1.311 . S
O106 Zn97 1.977 . S
O106 C112 1.272 . S
O107 Zn97 1.910 . S
O107 C113 1.231 . S
C108 O92 1.225 . S
C108 O114 1.298 . S
C109 O98 1.226 . S
C109 O99 1.307 . S
C110 O102 1.303 . S
C110 O103 1.247 . S
C111 O100 1.253 . S
C111 O101 1.283 . S
C112 O104 1.304 . S
C112 O106 1.272 . S
C113 O105 1.311 . S
C113 O107 1.231 . S
O114 Zn96 1.953 . S
O114 C108 1.298 . S
O115 Zn116 1.953 . S
O115 C131 1.225 . S
Zn116 O115 1.953 . S
Zn116 O117 1.949 . S
Zn116 O123 1.919 . S
Zn116 O128 1.924 . S
O117 Zn116 1.949 . S
O117 Zn118 1.923 . S
O117 Zn119 1.950 . S
O117 Zn120 1.945 . S
Zn118 O117 1.923 . S
Zn118 O121 1.933 . S
Zn118 O124 1.941 . S
Zn118 O125 1.965 . S
Zn119 O117 1.950 . S
Zn119 O126 1.938 . S
Zn119 O127 1.906 . S
Zn119 O137 1.953 . S
Zn120 O117 1.945 . S
Zn120 O122 1.932 . S
Zn120 O129 1.977 . S
Zn120 O130 1.910 . S
O121 Zn118 1.933 . S
O121 C132 1.226 1_554 S
O122 Zn120 1.932 . S
O122 C132 1.307 1_554 S
O123 Zn116 1.919 . S
O123 C134 1.253 . S
O124 Zn118 1.941 . S
O124 C134 1.283 . S
O125 Zn118 1.965 . S
O125 C133 1.303 . S
O126 Zn119 1.938 . S
O126 C133 1.247 . S
O127 Zn119 1.906 . S
O127 C135 1.304 . S
O128 Zn116 1.924 . S
O128 C136 1.311 . S
O129 Zn120 1.977 . S
O129 C135 1.272 . S
O130 Zn120 1.910 . S
O130 C136 1.231 . S
C131 O115 1.225 . S
C131 O137 1.298 . S
C132 O121 1.226 1_556 S
C132 O122 1.307 1_556 S
C133 O125 1.303 . S
C133 O126 1.247 . S
C134 O123 1.253 . S
C134 O124 1.283 . S
C135 O127 1.304 . S
C135 O129 1.272 . S
C136 O128 1.311 . S
C136 O130 1.231 . S
O137 Zn119 1.953 . S
O137 C131 1.298 . S
C17 C16 1.455 . S
C40 C39 1.455 . S
C62 C63 1.455 . S
C85 C86 1.455 . S
C108 C109 1.455 . S
C132 C131 1.455 . S
C20 C136 1.739 1_545 S
C21 C43 1.739 . S
C66 C44 1.739 1_655 S
C89 C67 1.739 1_564 S
C112 C90 1.739 . S
C113 C135 1.739 1_655 S
C19 C110 1.989 . S
C42 C133 1.989 . S
C65 C18 1.989 . S
C88 C41 1.989 1_554 S
C111 C64 1.989 . S
C87 C134 1.989 . S
