# Generated by pormake.
# Topology bnn, (5)-cn, num edge types: 1
# Building blocks:
#     Node 0, Type 0, BuildingBlock: BEQFEK_clean_sbu_0, # of connection points: 5
#     Node 1, Type 0, BuildingBlock: BEQFEK_clean_sbu_0, # of connection points: 5
#     Edge 2, Type (0, 0), BuildingBlock: XIVTED_clean_linker_0, # of connection points: 2
#     Edge 3, Type (0, 0), BuildingBlock: XIVTED_clean_linker_0, # of connection points: 2
#     Edge 4, Type (0, 0), BuildingBlock: XIVTED_clean_linker_0, # of connection points: 2
#     Edge 5, Type (0, 0), BuildingBlock: XIVTED_clean_linker_0, # of connection points: 2
#     Edge 6, Type (0, 0), BuildingBlock: XIVTED_clean_linker_0, # of connection points: 2
# Relax obj value: 0.103
# Max RMSD: 0.191
# Mean RMSD: 0.179
data_MOF--net-bnn--node1-BEQFEK_clean_sbu_0--edge1-XIVTED_clean_linker_0
_symmetry_space_group_name_H-M    P1
_symmetry_Int_Tables_number       1
_symmetry_cell_setting            triclinic
loop_
_symmetry_equiv_pos_as_xyz
'x, y, z'
_cell_length_a     25.706936
_cell_length_b     27.013022
_cell_length_c     19.746422
_cell_angle_alpha  91.428386
_cell_angle_beta   85.556953
_cell_angle_gamma 110.96087
loop_
_atom_site_label
_atom_site_type_symbol
_atom_site_fract_x
_atom_site_fract_y
_atom_site_fract_z
_atom_type_partial_charge
Co0 Co 0.33327 0.68281 0.09312 0.0
Co1 Co 0.34255 0.67642 0.93365 0.0
C2 C 0.38876 0.7799 0.00507 0.0
O3 O 0.37284 0.75697 0.06259 0.0
O4 O 0.38001 0.75384 0.94973 0.0
C5 C 0.33556 0.72125 0.2315 0.0
O6 O 0.36918 0.76647 0.20473 0.0
C7 C 0.32818 0.69011 0.78864 0.0
C8 C 0.33681 0.61695 0.74534 0.0
C9 C 0.3272 0.6622 0.72827 0.0
N10 N 0.33773 0.66231 0.83876 0.0
N11 N 0.34322 0.61887 0.81234 0.0
C12 C 0.31676 0.74032 0.79993 0.0
H13 H 0.30026 0.74225 0.85319 0.0
H14 H 0.28657 0.74317 0.76433 0.0
H15 H 0.35639 0.77456 0.79089 0.0
C16 C 0.21336 0.62928 0.07133 0.0
N17 N 0.267 0.65263 0.04757 0.0
N18 N 0.27052 0.64914 0.98089 0.0
C19 C 0.21918 0.62242 0.9601 0.0
C20 C 0.18111 0.60898 0.01679 0.0
C21 C 0.19376 0.62744 0.14492 0.0
H22 H 0.21342 0.66702 0.16796 0.0
H23 H 0.1477 0.61572 0.15216 0.0
H24 H 0.20699 0.59875 0.17163 0.0
O25 O 0.38185 0.63993 0.07578 0.0
O26 O 0.3889 0.63787 0.96328 0.0
H27 H 0.16516 0.57681 0.88362 0.0
H28 H 0.21529 0.64058 0.85629 0.0
C29 C 0.20819 0.60525 0.88826 0.0
H30 H 0.23768 0.58587 0.86875 0.0
H31 H 0.35062 0.5901 0.84033 0.0
O32 O 0.31545 0.68153 0.19306 0.0
C33 C 0.40065 0.62539 0.02026 0.0
Co34 Co 0.66844 0.31841 0.0908 0.0
Co35 Co 0.68075 0.32273 0.93175 0.0
C36 C 0.61596 0.37952 0.00973 0.0
O37 O 0.6263 0.36361 0.06568 0.0
O38 O 0.63408 0.36636 0.95278 0.0
C39 C 0.64794 0.33869 0.23088 0.0
O40 O 0.64967 0.38436 0.20736 0.0
C41 C 0.66176 0.31915 0.78548 0.0
C42 C 0.72888 0.2919 0.74259 0.0
C43 C 0.68507 0.30619 0.7249 0.0
N44 N 0.69073 0.3129 0.83642 0.0
N45 N 0.73083 0.29678 0.81034 0.0
C46 C 0.61035 0.33305 0.79586 0.0
H47 H 0.58771 0.31739 0.84538 0.0
H48 H 0.58214 0.31675 0.75452 0.0
H49 H 0.62268 0.37684 0.79638 0.0
C50 C 0.62067 0.20321 0.06284 0.0
N51 N 0.6453 0.25392 0.04209 0.0
N52 N 0.64814 0.25565 0.97539 0.0
C53 C 0.62404 0.20611 0.95146 0.0
C54 C 0.60599 0.17103 0.0061 0.0
C55 C 0.61264 0.18628 0.13569 0.0
H56 H 0.65052 0.20882 0.16212 0.0
H57 H 0.57695 0.19534 0.1608 0.0
H58 H 0.60445 0.14327 0.14057 0.0
O59 O 0.74943 0.35753 0.07324 0.0
O60 O 0.75679 0.3624 0.96079 0.0
H61 H 0.65242 0.19427 0.8499 0.0
H62 H 0.58034 0.1542 0.87229 0.0
C63 C 0.61327 0.19361 0.87841 0.0
H64 H 0.59983 0.22399 0.85638 0.0
H65 H 0.7593 0.28866 0.83904 0.0
O66 O 0.65421 0.30413 0.1895 0.0
C67 C 0.77858 0.37314 0.01756 0.0
H68 H 0.43098 0.58449 0.13069 0.0
H69 H 0.58605 0.42243 0.9016 0.0
H70 H 0.44769 0.58806 0.91132 0.0
H71 H 0.57237 0.41852 0.12098 0.0
H72 H 0.53521 0.48333 0.90496 0.0
H73 H 0.4835 0.52458 0.12901 0.0
C74 C 0.44588 0.57295 0.08224 0.0
C75 C 0.43476 0.59135 0.02108 0.0
C76 C 0.54328 0.46916 0.95241 0.0
C77 C 0.49458 0.52262 0.01881 0.0
C78 C 0.57228 0.43424 0.95053 0.0
C79 C 0.58362 0.41526 0.01109 0.0
C80 C 0.52536 0.48536 0.0153 0.0
C81 C 0.56463 0.43209 0.07296 0.0
C82 C 0.47575 0.53865 0.08131 0.0
C83 C 0.45508 0.57494 0.95981 0.0
N84 N 0.53648 0.4662 0.07346 0.0
N85 N 0.48382 0.5415 0.96029 0.0
H86 H 0.84702 0.38583 0.12161 0.0
H87 H 0.10171 0.61965 0.94023 0.0
H88 H 0.84605 0.43722 0.91655 0.0
H89 H 0.12431 0.52329 0.09802 0.0
H90 H 0.00338 0.56151 0.94033 0.0
H91 H 0.94509 0.44421 0.12319 0.0
C92 C 0.86741 0.40929 0.07693 0.0
C93 C 0.83835 0.40654 0.01879 0.0
C94 C 0.0299 0.55318 0.97498 0.0
C95 C 0.94996 0.4738 0.02075 0.0
C96 C 0.08584 0.58623 0.97488 0.0
C97 C 0.12102 0.57596 0.01891 0.0
C98 C 0.00885 0.5101 0.02023 0.0
C99 C 0.09834 0.53278 0.0637 0.0
C100 C 0.92332 0.44247 0.07786 0.0
C101 C 0.86689 0.43782 0.96231 0.0
N102 N 0.04359 0.50141 0.06335 0.0
N103 N 0.92099 0.47043 0.96488 0.0
H104 H 0.38857 0.85104 0.10552 0.0
H105 H 0.62768 0.09665 0.92375 0.0
H106 H 0.45729 0.84102 0.9013 0.0
H107 H 0.51174 0.11431 0.08389 0.0
H108 H 0.57305 0.00132 0.92033 0.0
H109 H 0.44092 0.94628 0.1046 0.0
C110 C 0.41468 0.86887 0.06041 0.0
C111 C 0.41867 0.83797 0.00342 0.0
C112 C 0.55962 0.02615 0.95612 0.0
C113 C 0.47909 0.94707 0.00237 0.0
C114 C 0.59067 0.08041 0.95806 0.0
C115 C 0.57422 0.11324 0.00433 0.0
C116 C 0.51232 0.00459 0.00149 0.0
C117 C 0.52639 0.09024 0.04826 0.0
C118 C 0.44438 0.9233 0.05989 0.0
C119 C 0.45289 0.86338 0.94625 0.0
N120 N 0.49726 0.03728 0.04601 0.0
N121 N 0.48222 0.91647 0.94736 0.0
H122 H 0.36449 0.75983 0.66494 0.0
H123 H 0.26904 0.63322 0.3037 0.0
H124 H 0.27243 0.59388 0.63246 0.0
H125 H 0.37749 0.79566 0.32954 0.0
H126 H 0.2585 0.62174 0.42677 0.0
H127 H 0.35807 0.77722 0.54531 0.0
C128 C 0.34178 0.72727 0.63314 0.0
C129 C 0.31859 0.67537 0.65876 0.0
C130 C 0.28435 0.66002 0.4056 0.0
C131 C 0.3122 0.69473 0.52168 0.0
C132 C 0.29037 0.66662 0.33524 0.0
C133 C 0.32479 0.7153 0.30614 0.0
C134 C 0.31298 0.70235 0.44737 0.0
C135 C 0.35093 0.75729 0.34971 0.0
C136 C 0.33863 0.73712 0.56465 0.0
C137 C 0.29108 0.63447 0.61466 0.0
N138 N 0.34485 0.74973 0.41813 0.0
N139 N 0.28883 0.64498 0.54833 0.0
H140 H 0.64956 0.2512 0.29641 0.0
H141 H 0.64975 0.37887 0.66654 0.0
H142 H 0.6359 0.40441 0.334 0.0
H143 H 0.68674 0.23715 0.62321 0.0
H144 H 0.6312 0.38274 0.54751 0.0
H145 H 0.64992 0.23944 0.41847 0.0
C146 C 0.64625 0.28225 0.33033 0.0
C147 C 0.64334 0.32915 0.30487 0.0
C148 C 0.64274 0.35045 0.56424 0.0
C149 C 0.64383 0.31593 0.44477 0.0
C150 C 0.65275 0.34791 0.63234 0.0
C151 C 0.66909 0.30721 0.65486 0.0
C152 C 0.64934 0.31211 0.51843 0.0
C153 C 0.67422 0.26919 0.60782 0.0
C154 C 0.64654 0.27552 0.40006 0.0
C155 C 0.6387 0.36781 0.35134 0.0
N156 N 0.66447 0.27259 0.54183 0.0
N157 N 0.63945 0.36048 0.41905 0.0
loop_
_geom_bond_atom_site_label_1
_geom_bond_atom_site_label_2
_geom_bond_distance
_geom_bond_site_symmetry_2
_ccdc_geom_bond_type
Co0 O3 1.970 . S
Co0 N17 1.989 . S
Co0 O25 1.967 . S
Co0 O32 1.920 . S
Co1 O4 1.966 . S
Co1 N10 2.022 . S
Co1 N18 1.993 . S
Co1 O26 1.941 . S
C2 O3 1.258 . S
C2 O4 1.263 1_554 S
O3 Co0 1.970 . S
O3 C2 1.258 . S
O4 Co1 1.966 . S
O4 C2 1.263 1_556 S
C5 O6 1.235 . S
C5 O32 1.289 . S
O6 C5 1.235 . S
C7 C9 1.400 . S
C7 N10 1.351 . S
C7 C12 1.501 . S
C8 C9 1.387 . S
C8 N11 1.341 . S
C9 C7 1.400 . S
C9 C8 1.387 . S
N10 Co1 2.022 . S
N10 C7 1.351 . S
N10 N11 1.365 . S
N11 C8 1.341 . S
N11 N10 1.365 . S
N11 H31 0.862 . S
C12 C7 1.501 . S
C12 H13 0.961 . S
C12 H14 0.961 . S
C12 H15 0.960 . S
H13 C12 0.961 . S
H14 C12 0.961 . S
H15 C12 0.960 . S
C16 N17 1.342 . S
C16 C20 1.401 . S
C16 C21 1.499 . S
N17 Co0 1.989 . S
N17 C16 1.342 . S
N17 N18 1.388 1_554 S
N18 Co1 1.993 . S
N18 N17 1.388 1_556 S
N18 C19 1.346 . S
C19 N18 1.346 . S
C19 C20 1.396 1_556 S
C19 C29 1.510 . S
C20 C16 1.401 . S
C20 C19 1.396 1_554 S
C21 C16 1.499 . S
C21 H22 0.959 . S
C21 H23 0.960 . S
C21 H24 0.961 . S
H22 C21 0.959 . S
H23 C21 0.960 . S
H24 C21 0.961 . S
O25 Co0 1.967 . S
O25 C33 1.258 . S
O26 Co1 1.941 . S
O26 C33 1.266 1_556 S
H27 C29 0.959 . S
H28 C29 0.961 . S
C29 C19 1.510 . S
C29 H27 0.959 . S
C29 H28 0.961 . S
C29 H30 0.960 . S
H30 C29 0.960 . S
H31 N11 0.862 . S
O32 Co0 1.920 . S
O32 C5 1.289 . S
C33 O25 1.258 . S
C33 O26 1.266 1_554 S
Co34 O37 1.970 . S
Co34 N51 1.989 . S
Co34 O59 1.967 . S
Co34 O66 1.920 . S
Co35 O38 1.966 . S
Co35 N44 2.022 . S
Co35 N52 1.993 . S
Co35 O60 1.941 . S
C36 O37 1.258 . S
C36 O38 1.263 1_554 S
O37 Co34 1.970 . S
O37 C36 1.258 . S
O38 Co35 1.966 . S
O38 C36 1.263 1_556 S
C39 O40 1.235 . S
C39 O66 1.289 . S
O40 C39 1.235 . S
C41 C43 1.400 . S
C41 N44 1.351 . S
C41 C46 1.501 . S
C42 C43 1.387 . S
C42 N45 1.341 . S
C43 C41 1.400 . S
C43 C42 1.387 . S
N44 Co35 2.022 . S
N44 C41 1.351 . S
N44 N45 1.365 . S
N45 C42 1.341 . S
N45 N44 1.365 . S
N45 H65 0.862 . S
C46 C41 1.501 . S
C46 H47 0.961 . S
C46 H48 0.961 . S
C46 H49 0.960 . S
H47 C46 0.961 . S
H48 C46 0.961 . S
H49 C46 0.960 . S
C50 N51 1.342 . S
C50 C54 1.401 . S
C50 C55 1.499 . S
N51 Co34 1.989 . S
N51 C50 1.342 . S
N51 N52 1.388 1_554 S
N52 Co35 1.993 . S
N52 N51 1.388 1_556 S
N52 C53 1.346 . S
C53 N52 1.346 . S
C53 C54 1.396 1_556 S
C53 C63 1.510 . S
C54 C50 1.401 . S
C54 C53 1.396 1_554 S
C55 C50 1.499 . S
C55 H56 0.959 . S
C55 H57 0.960 . S
C55 H58 0.961 . S
H56 C55 0.959 . S
H57 C55 0.960 . S
H58 C55 0.961 . S
O59 Co34 1.967 . S
O59 C67 1.258 . S
O60 Co35 1.941 . S
O60 C67 1.266 1_556 S
H61 C63 0.959 . S
H62 C63 0.961 . S
C63 C53 1.510 . S
C63 H61 0.959 . S
C63 H62 0.961 . S
C63 H64 0.960 . S
H64 C63 0.960 . S
H65 N45 0.862 . S
O66 Co34 1.920 . S
O66 C39 1.289 . S
C67 O59 1.258 . S
C67 O60 1.266 1_554 S
H68 C74 0.930 . S
H69 C78 0.930 . S
H70 C83 0.929 . S
H71 C81 0.929 . S
H72 C76 0.929 . S
H73 C82 0.929 . S
C74 H68 0.930 . S
C74 C75 1.367 . S
C74 C82 1.378 . S
C75 C74 1.367 . S
C75 C83 1.433 . S
C76 H72 0.929 . S
C76 C78 1.378 . S
C76 C80 1.350 . S
C77 C80 1.463 . S
C77 C82 1.350 . S
C77 N85 1.427 . S
C78 H69 0.930 . S
C78 C76 1.378 . S
C78 C79 1.367 . S
C79 C78 1.367 . S
C79 C81 1.433 . S
C80 C76 1.350 . S
C80 C77 1.463 . S
C80 N84 1.427 . S
C81 H71 0.929 . S
C81 C79 1.433 . S
C81 N84 1.384 . S
C82 H73 0.929 . S
C82 C74 1.378 . S
C82 C77 1.350 . S
C83 H70 0.929 . S
C83 C75 1.433 . S
C83 N85 1.384 . S
N84 C80 1.427 . S
N84 C81 1.384 . S
N85 C77 1.427 . S
N85 C83 1.384 . S
H86 C92 0.930 . S
H87 C96 0.930 . S
H88 C101 0.929 . S
H89 C99 0.929 . S
H90 C94 0.929 . S
H91 C100 0.929 . S
C92 H86 0.930 . S
C92 C93 1.367 . S
C92 C100 1.378 . S
C93 C92 1.367 . S
C93 C101 1.433 1_554 S
C94 H90 0.929 . S
C94 C96 1.378 . S
C94 C98 1.350 1_556 S
C95 C98 1.463 1_655 S
C95 C100 1.350 . S
C95 N103 1.427 1_554 S
C96 H87 0.930 . S
C96 C94 1.378 . S
C96 C97 1.367 1_556 S
C97 C96 1.367 1_554 S
C97 C99 1.433 . S
C98 C94 1.350 1_554 S
C98 C95 1.463 1_455 S
C98 N102 1.427 . S
C99 H89 0.929 . S
C99 C97 1.433 . S
C99 N102 1.384 . S
C100 H91 0.929 . S
C100 C92 1.378 . S
C100 C95 1.350 . S
C101 H88 0.929 . S
C101 C93 1.433 1_556 S
C101 N103 1.384 . S
N102 C98 1.427 . S
N102 C99 1.384 . S
N103 C95 1.427 1_556 S
N103 C101 1.384 . S
H104 C110 0.930 . S
H105 C114 0.930 . S
H106 C119 0.929 . S
H107 C117 0.929 . S
H108 C112 0.929 . S
H109 C118 0.929 . S
C110 H104 0.930 . S
C110 C111 1.367 . S
C110 C118 1.378 . S
C111 C110 1.367 . S
C111 C119 1.433 1_554 S
C112 H108 0.929 . S
C112 C114 1.378 . S
C112 C116 1.350 1_556 S
C113 C116 1.463 1_565 S
C113 C118 1.350 . S
C113 N121 1.427 1_554 S
C114 H105 0.930 . S
C114 C112 1.378 . S
C114 C115 1.367 1_556 S
C115 C114 1.367 1_554 S
C115 C117 1.433 . S
C116 C112 1.350 1_554 S
C116 C113 1.463 1_545 S
C116 N120 1.427 . S
C117 H107 0.929 . S
C117 C115 1.433 . S
C117 N120 1.384 . S
C118 H109 0.929 . S
C118 C110 1.378 . S
C118 C113 1.350 . S
C119 H106 0.929 . S
C119 C111 1.433 1_556 S
C119 N121 1.384 . S
N120 C116 1.427 . S
N120 C117 1.384 . S
N121 C113 1.427 1_556 S
N121 C119 1.384 . S
H122 C128 0.930 . S
H123 C132 0.930 . S
H124 C137 0.929 . S
H125 C135 0.929 . S
H126 C130 0.929 . S
H127 C136 0.929 . S
C128 H122 0.930 . S
C128 C129 1.367 . S
C128 C136 1.378 . S
C129 C128 1.367 . S
C129 C137 1.433 . S
C130 H126 0.929 . S
C130 C132 1.378 . S
C130 C134 1.350 . S
C131 C134 1.463 . S
C131 C136 1.350 . S
C131 N139 1.427 . S
C132 H123 0.930 . S
C132 C130 1.378 . S
C132 C133 1.367 . S
C133 C132 1.367 . S
C133 C135 1.433 . S
C134 C130 1.350 . S
C134 C131 1.463 . S
C134 N138 1.427 . S
C135 H125 0.929 . S
C135 C133 1.433 . S
C135 N138 1.384 . S
C136 H127 0.929 . S
C136 C128 1.378 . S
C136 C131 1.350 . S
C137 H124 0.929 . S
C137 C129 1.433 . S
C137 N139 1.384 . S
N138 C134 1.427 . S
N138 C135 1.384 . S
N139 C131 1.427 . S
N139 C137 1.384 . S
H140 C146 0.930 . S
H141 C150 0.930 . S
H142 C155 0.929 . S
H143 C153 0.929 . S
H144 C148 0.929 . S
H145 C154 0.929 . S
C146 H140 0.930 . S
C146 C147 1.367 . S
C146 C154 1.378 . S
C147 C146 1.367 . S
C147 C155 1.433 . S
C148 H144 0.929 . S
C148 C150 1.378 . S
C148 C152 1.350 . S
C149 C152 1.463 . S
C149 C154 1.350 . S
C149 N157 1.427 . S
C150 H141 0.930 . S
C150 C148 1.378 . S
C150 C151 1.367 . S
C151 C150 1.367 . S
C151 C153 1.433 . S
C152 C148 1.350 . S
C152 C149 1.463 . S
C152 N156 1.427 . S
C153 H143 0.929 . S
C153 C151 1.433 . S
C153 N156 1.384 . S
C154 H145 0.929 . S
C154 C146 1.378 . S
C154 C149 1.350 . S
C155 H142 0.929 . S
C155 C147 1.433 . S
C155 N157 1.384 . S
N156 C152 1.427 . S
N156 C153 1.384 . S
N157 C149 1.427 . S
N157 C155 1.384 . S
C75 C33 1.558 . S
C79 C36 1.562 . S
C93 C67 1.455 . S
C97 C20 1.455 . S
C111 C2 1.549 . S
C115 C54 1.535 . S
C129 C9 1.400 . S
C133 C5 1.491 . S
C147 C39 1.491 . S
C151 C43 1.408 . S
