# Generated by pormake.
# Topology dmp, (4)-cn, num edge types: 1
# Building blocks:
#     Node 0, Type 0, BuildingBlock: GALJAG_clean_sbu_0, # of connection points: 4
#     Node 1, Type 0, BuildingBlock: GALJAG_clean_sbu_0, # of connection points: 4
#     Node 2, Type 0, BuildingBlock: GALJAG_clean_sbu_0, # of connection points: 4
#     Node 3, Type 0, BuildingBlock: GALJAG_clean_sbu_0, # of connection points: 4
#     Edge 4, Type (0, 0), BuildingBlock: AJUNOK_clean_linker_0, # of connection points: 2
#     Edge 5, Type (0, 0), BuildingBlock: AJUNOK_clean_linker_0, # of connection points: 2
#     Edge 6, Type (0, 0), BuildingBlock: AJUNOK_clean_linker_0, # of connection points: 2
#     Edge 7, Type (0, 0), BuildingBlock: AJUNOK_clean_linker_0, # of connection points: 2
#     Edge 8, Type (0, 0), BuildingBlock: AJUNOK_clean_linker_0, # of connection points: 2
#     Edge 9, Type (0, 0), BuildingBlock: AJUNOK_clean_linker_0, # of connection points: 2
#     Edge 10, Type (0, 0), BuildingBlock: AJUNOK_clean_linker_0, # of connection points: 2
#     Edge 11, Type (0, 0), BuildingBlock: AJUNOK_clean_linker_0, # of connection points: 2
# Relax obj value: 0.059
# Max RMSD: 0.179
# Mean RMSD: 0.179
data_MOF--net-dmp--node1-GALJAG_clean_sbu_0--edge1-AJUNOK_clean_linker_0
_symmetry_space_group_name_H-M    P1
_symmetry_Int_Tables_number       1
_symmetry_cell_setting            triclinic
loop_
_symmetry_equiv_pos_as_xyz
'x, y, z'
_cell_length_a     27.047063
_cell_length_b     15.740296
_cell_length_c     9.2523853
_cell_angle_alpha  89.988984
_cell_angle_beta   91.013669
_cell_angle_gamma 89.795605
loop_
_atom_site_label
_atom_site_type_symbol
_atom_site_fract_x
_atom_site_fract_y
_atom_site_fract_z
_atom_type_partial_charge
In0 In 0.11483 0.26412 0.24394 0.0
O1 O 0.14967 0.3459 0.06598 0.0
O2 O 0.19005 0.32266 0.26211 0.0
C3 C 0.04285 0.16636 0.13162 0.0
C4 C 0.06567 0.38797 0.38122 0.0
C5 C 0.16726 0.1266 0.31969 0.0
O6 O 0.07171 0.20864 0.05266 0.0
O7 O 0.04857 0.17846 0.26582 0.0
O8 O 0.15337 0.1793 0.41471 0.0
O9 O 0.15594 0.14545 0.19064 0.0
C10 C 0.18875 0.35849 0.14025 0.0
O11 O 0.08947 0.33085 0.44976 0.0
O12 O 0.06601 0.38051 0.24547 0.0
In13 In 0.38168 0.75308 0.2565 0.0
O14 O 0.33839 0.83271 0.42145 0.0
O15 O 0.31039 0.82014 0.20576 0.0
C16 C 0.44585 0.65055 0.39638 0.0
C17 C 0.4404 0.874 0.14811 0.0
C18 C 0.32922 0.62299 0.15079 0.0
O19 O 0.41396 0.69421 0.46271 0.0
O20 O 0.44652 0.66229 0.26126 0.0
O21 O 0.34879 0.67618 0.06637 0.0
O22 O 0.3361 0.63638 0.28407 0.0
C23 C 0.30464 0.85107 0.32992 0.0
O24 O 0.41929 0.81918 0.0682 0.0
O25 O 0.43257 0.86595 0.28137 0.0
In26 In 0.88141 0.7568 0.75823 0.0
O27 O 0.92092 0.70208 0.56377 0.0
O28 O 0.94963 0.67354 0.77454 0.0
C29 C 0.80356 0.84648 0.65614 0.0
C30 C 0.83282 0.61913 0.84559 0.0
C31 C 0.93124 0.88405 0.88788 0.0
O32 O 0.84145 0.83486 0.58008 0.0
O33 O 0.80547 0.81248 0.77941 0.0
O34 O 0.91035 0.8263 0.95979 0.0
O35 O 0.92787 0.87549 0.75254 0.0
C36 C 0.95245 0.66141 0.63996 0.0
O37 O 0.84729 0.67462 0.93623 0.0
O38 O 0.84195 0.63493 0.71502 0.0
In39 In 0.61849 0.25182 0.77093 0.0
O40 O 0.64856 0.17278 0.58201 0.0
O41 O 0.66223 0.1324 0.80033 0.0
C42 C 0.56106 0.37495 0.65472 0.0
C43 C 0.55423 0.1509 0.9056 0.0
C44 C 0.69647 0.34601 0.85579 0.0
O45 O 0.58262 0.32014 0.57761 0.0
O46 O 0.56782 0.36587 0.78904 0.0
O47 O 0.6613 0.33139 0.94067 0.0
O48 O 0.6918 0.31306 0.73227 0.0
C49 C 0.66737 0.11796 0.66731 0.0
O50 O 0.58703 0.19256 0.97443 0.0
O51 O 0.55246 0.16452 0.77099 0.0
C52 C 0.27046 0.98116 0.44929 0.0
C53 C 0.26372 0.91082 0.35706 0.0
C54 C 0.23661 0.04934 0.44669 0.0
C55 C 0.19547 0.04853 0.35168 0.0
H56 H 0.30374 0.98645 0.51542 0.0
H57 H 0.24466 0.10533 0.51094 0.0
S58 S 0.15609 0.8715 0.11242 0.0
N59 N 0.20882 0.83885 0.18628 0.0
N60 N 0.14582 0.96666 0.18089 0.0
C61 C 0.1861 0.97516 0.26972 0.0
C62 C 0.22014 0.90622 0.27266 0.0
C63 C 0.27557 0.40548 0.16261 0.0
C64 C 0.22837 0.41762 0.09981 0.0
C65 C 0.3104 0.47072 0.16481 0.0
C66 C 0.29947 0.55011 0.10306 0.0
H67 H 0.28442 0.34718 0.22002 0.0
H68 H 0.34481 0.46103 0.2245 0.0
S69 S 0.18363 0.61147 0.91036 0.0
N70 N 0.17422 0.51233 0.96176 0.0
N71 N 0.24034 0.63551 0.96562 0.0
C72 C 0.25432 0.56088 0.02805 0.0
C73 C 0.21852 0.4942 0.02616 0.0
C74 C 0.73818 0.04864 0.54393 0.0
C75 C 0.69402 0.04164 0.62076 0.0
C76 C 0.77222 0.98079 0.54175 0.0
C77 C 0.76273 0.90492 0.61693 0.0
H78 H 0.74849 0.10897 0.49702 0.0
H79 H 0.80782 0.99072 0.49272 0.0
S80 S 0.64759 0.85065 0.80754 0.0
N81 N 0.63919 0.94973 0.75355 0.0
N82 N 0.70258 0.82237 0.74897 0.0
C83 C 0.7163 0.89467 0.68015 0.0
C84 C 0.68202 0.96325 0.6824 0.0
C85 C 0.76347 0.54602 0.97001 0.0
C86 C 0.80563 0.54181 0.88355 0.0
C87 C 0.72968 0.47823 0.97224 0.0
C88 C 0.73745 0.40502 0.88801 0.0
H89 H 0.75449 0.60428 0.02624 0.0
H90 H 0.69556 0.48611 0.03038 0.0
S91 S 0.84781 0.35715 0.66972 0.0
N92 N 0.85727 0.45431 0.73121 0.0
N93 N 0.79432 0.32717 0.73589 0.0
C94 C 0.78206 0.39722 0.81368 0.0
C95 C 0.81608 0.46575 0.81121 0.0
C96 C 0.00709 0.08544 0.92287 0.0
C97 C 0.01002 0.099 0.07287 0.0
C98 C 0.98118 0.0162 0.8648 0.0
C99 C 0.95729 0.95736 0.95433 0.0
H100 H 0.02584 0.12761 0.84941 0.0
H101 H 0.98057 0.00822 0.74849 0.0
S102 S 0.95172 0.96597 0.35457 0.0
N103 N 0.98514 0.04929 0.3102 0.0
N104 N 0.93661 0.91901 0.20056 0.0
C105 C 0.95887 0.97112 0.10443 0.0
C106 C 0.98512 0.04199 0.16379 0.0
C107 C 0.4952 0.03 0.88348 0.0
C108 C 0.52393 0.08383 0.97263 0.0
C109 C 0.46893 0.96174 0.94096 0.0
C110 C 0.47 0.94485 0.0901 0.0
H111 H 0.49347 0.03971 0.76756 0.0
H112 H 0.44739 0.92224 0.86773 0.0
S113 S 0.53975 0.06635 0.37094 0.0
N114 N 0.5521 0.11527 0.21794 0.0
N115 N 0.50238 0.98746 0.32648 0.0
C116 C 0.49839 0.99838 0.18095 0.0
C117 C 0.52541 0.06772 0.12214 0.0
C118 C 0.98681 0.58546 0.42719 0.0
C119 C 0.98556 0.59623 0.57782 0.0
C120 C 0.01328 0.51849 0.36544 0.0
C121 C 0.03944 0.45919 0.45173 0.0
H122 H 0.96638 0.62811 0.35602 0.0
H123 H 0.01254 0.51264 0.24875 0.0
S124 S 0.04965 0.46061 0.85228 0.0
N125 N 0.01422 0.54329 0.81239 0.0
N126 N 0.06384 0.41726 0.69584 0.0
C127 C 0.03953 0.4702 0.60252 0.0
C128 C 0.01268 0.53878 0.66565 0.0
C129 C 0.50485 0.5287 0.38158 0.0
C130 C 0.47672 0.58408 0.4673 0.0
C131 C 0.53162 0.46102 0.44301 0.0
C132 C 0.53163 0.44621 0.59279 0.0
H133 H 0.50568 0.5367 0.26536 0.0
H134 H 0.55252 0.4201 0.37222 0.0
S135 S 0.46454 0.57342 0.86591 0.0
N136 N 0.45083 0.61996 0.71029 0.0
N137 N 0.50141 0.49322 0.82621 0.0
C138 C 0.50408 0.50163 0.68031 0.0
C139 C 0.47659 0.57042 0.61748 0.0
loop_
_geom_bond_atom_site_label_1
_geom_bond_atom_site_label_2
_geom_bond_distance
_geom_bond_site_symmetry_2
_ccdc_geom_bond_type
In0 O1 2.294 . S
In0 O2 2.326 . S
In0 O6 2.266 . S
In0 O7 2.326 . S
In0 O8 2.266 . S
In0 O9 2.326 . S
In0 O11 2.294 . S
In0 O12 2.326 . S
O1 In0 2.294 . S
O1 C10 1.240 . S
O2 In0 2.326 . S
O2 C10 1.252 . S
C3 O6 1.252 . S
C3 O7 1.260 . S
C4 O11 1.240 . S
C4 O12 1.252 . S
C5 O8 1.252 . S
C5 O9 1.260 . S
O6 In0 2.266 . S
O6 C3 1.252 . S
O7 In0 2.326 . S
O7 C3 1.260 . S
O8 In0 2.266 . S
O8 C5 1.252 . S
O9 In0 2.326 . S
O9 C5 1.260 . S
C10 O1 1.240 . S
C10 O2 1.252 . S
O11 In0 2.294 . S
O11 C4 1.240 . S
O12 In0 2.326 . S
O12 C4 1.252 . S
In13 O14 2.294 . S
In13 O15 2.326 . S
In13 O19 2.266 . S
In13 O20 2.326 . S
In13 O21 2.266 . S
In13 O22 2.326 . S
In13 O24 2.294 . S
In13 O25 2.326 . S
O14 In13 2.294 . S
O14 C23 1.240 . S
O15 In13 2.326 . S
O15 C23 1.252 . S
C16 O19 1.252 . S
C16 O20 1.260 . S
C17 O24 1.240 . S
C17 O25 1.252 . S
C18 O21 1.252 . S
C18 O22 1.260 . S
O19 In13 2.266 . S
O19 C16 1.252 . S
O20 In13 2.326 . S
O20 C16 1.260 . S
O21 In13 2.266 . S
O21 C18 1.252 . S
O22 In13 2.326 . S
O22 C18 1.260 . S
C23 O14 1.240 . S
C23 O15 1.252 . S
O24 In13 2.294 . S
O24 C17 1.240 . S
O25 In13 2.326 . S
O25 C17 1.252 . S
In26 O27 2.294 . S
In26 O28 2.326 . S
In26 O32 2.266 . S
In26 O33 2.326 . S
In26 O34 2.266 . S
In26 O35 2.326 . S
In26 O37 2.294 . S
In26 O38 2.326 . S
O27 In26 2.294 . S
O27 C36 1.240 . S
O28 In26 2.326 . S
O28 C36 1.252 . S
C29 O32 1.252 . S
C29 O33 1.260 . S
C30 O37 1.240 . S
C30 O38 1.252 . S
C31 O34 1.252 . S
C31 O35 1.260 . S
O32 In26 2.266 . S
O32 C29 1.252 . S
O33 In26 2.326 . S
O33 C29 1.260 . S
O34 In26 2.266 . S
O34 C31 1.252 . S
O35 In26 2.326 . S
O35 C31 1.260 . S
C36 O27 1.240 . S
C36 O28 1.252 . S
O37 In26 2.294 . S
O37 C30 1.240 . S
O38 In26 2.326 . S
O38 C30 1.252 . S
In39 O40 2.294 . S
In39 O41 2.326 . S
In39 O45 2.266 . S
In39 O46 2.326 . S
In39 O47 2.266 . S
In39 O48 2.326 . S
In39 O50 2.294 . S
In39 O51 2.326 . S
O40 In39 2.294 . S
O40 C49 1.240 . S
O41 In39 2.326 . S
O41 C49 1.252 . S
C42 O45 1.252 . S
C42 O46 1.260 . S
C43 O50 1.240 . S
C43 O51 1.252 . S
C44 O47 1.252 . S
C44 O48 1.260 . S
O45 In39 2.266 . S
O45 C42 1.252 . S
O46 In39 2.326 . S
O46 C42 1.260 . S
O47 In39 2.266 . S
O47 C44 1.252 . S
O48 In39 2.326 . S
O48 C44 1.260 . S
C49 O40 1.240 . S
C49 O41 1.252 . S
O50 In39 2.294 . S
O50 C43 1.240 . S
O51 In39 2.326 . S
O51 C43 1.252 . S
C52 C53 1.369 1_545 S
C52 C54 1.419 . S
C52 H56 0.930 . S
C53 C52 1.369 1_565 S
C53 C62 1.429 . S
C54 C52 1.419 . S
C54 C55 1.363 . S
C54 H57 0.929 . S
C55 C54 1.363 . S
C55 C61 1.427 . S
H56 C52 0.930 . S
H57 C54 0.929 . S
S58 N59 1.613 1_556 S
S58 N60 1.610 1_556 S
N59 S58 1.613 1_554 S
N59 C62 1.350 . S
N60 S58 1.610 1_554 S
N60 C61 1.351 1_565 S
C61 C55 1.427 . S
C61 N60 1.351 1_545 S
C61 C62 1.435 1_545 S
C62 C53 1.429 . S
C62 N59 1.350 . S
C62 C61 1.435 1_565 S
C63 C64 1.369 . S
C63 C65 1.419 . S
C63 H67 0.930 1_554 S
C64 C63 1.369 . S
C64 C73 1.429 . S
C65 C63 1.419 . S
C65 C66 1.363 . S
C65 H68 0.929 1_554 S
C66 C65 1.363 . S
C66 C72 1.428 . S
H67 C63 0.930 1_556 S
H68 C65 0.929 1_556 S
S69 N70 1.613 . S
S69 N71 1.610 . S
N70 S69 1.613 . S
N70 C73 1.350 . S
N71 S69 1.610 . S
N71 C72 1.351 . S
C72 C66 1.428 . S
C72 N71 1.351 . S
C72 C73 1.434 . S
C73 C64 1.429 . S
C73 N70 1.350 . S
C73 C72 1.434 . S
C74 C75 1.369 . S
C74 C76 1.419 1_545 S
C74 H78 0.930 . S
C75 C74 1.369 . S
C75 C84 1.429 . S
C76 C74 1.419 1_565 S
C76 C77 1.363 . S
C76 H79 0.929 . S
C77 C76 1.363 . S
C77 C83 1.428 . S
H78 C74 0.930 . S
H79 C76 0.929 . S
S80 N81 1.613 1_564 S
S80 N82 1.610 1_554 S
N81 S80 1.613 1_546 S
N81 C84 1.350 . S
N82 S80 1.610 1_556 S
N82 C83 1.351 . S
C83 C77 1.428 . S
C83 N82 1.351 . S
C83 C84 1.434 1_565 S
C84 C75 1.429 . S
C84 N81 1.350 . S
C84 C83 1.434 1_545 S
C85 C86 1.369 . S
C85 C87 1.419 . S
C85 H89 0.930 . S
C86 C85 1.369 . S
C86 C95 1.429 . S
C87 C85 1.419 . S
C87 C88 1.363 . S
C87 H90 0.929 . S
C88 C87 1.363 . S
C88 C94 1.428 . S
H89 C85 0.930 . S
H90 C87 0.929 . S
S91 N92 1.613 . S
S91 N93 1.610 . S
N92 S91 1.613 . S
N92 C95 1.350 . S
N93 S91 1.610 . S
N93 C94 1.351 . S
C94 C88 1.428 . S
C94 N93 1.351 . S
C94 C95 1.434 . S
C95 C86 1.429 . S
C95 N92 1.350 . S
C95 C94 1.434 . S
C96 C97 1.369 1_565 S
C96 C98 1.419 1_554 S
C96 H100 0.930 . S
C97 C96 1.369 1_545 S
C97 C106 1.429 1_455 S
C98 C96 1.419 1_556 S
C98 C99 1.363 1_455 S
C98 H101 0.929 . S
C99 C98 1.363 1_655 S
C99 C105 1.428 1_565 S
H100 C96 0.930 . S
H101 C98 0.929 . S
S102 N103 1.613 . S
S102 N104 1.610 1_554 S
N103 S102 1.613 . S
N103 C106 1.350 . S
N104 S102 1.610 1_556 S
N104 C105 1.351 . S
C105 C99 1.428 1_545 S
C105 N104 1.351 . S
C105 C106 1.434 1_556 S
C106 C97 1.429 1_655 S
C106 N103 1.350 . S
C106 C105 1.434 1_554 S
C107 C108 1.369 . S
C107 C109 1.411 1_545 S
C107 H111 0.930 . S
C108 C107 1.369 . S
C108 C117 1.429 1_546 S
C109 C107 1.411 1_565 S
C109 C110 1.371 1_556 S
C109 H112 0.929 1_565 S
C110 C109 1.371 1_554 S
C110 C116 1.428 . S
H111 C107 0.930 . S
H112 C109 0.929 1_545 S
S113 N114 1.613 . S
S113 N115 1.610 . S
N114 S113 1.613 . S
N114 C117 1.350 . S
N115 S113 1.610 . S
N115 C116 1.351 . S
C116 C110 1.428 . S
C116 N115 1.351 . S
C116 C117 1.434 . S
C117 C108 1.429 1_564 S
C117 N114 1.350 . S
C117 C116 1.434 . S
C118 C119 1.369 . S
C118 C120 1.419 1_655 S
C118 H122 0.930 . S
C119 C118 1.369 . S
C119 C128 1.429 . S
C120 C118 1.419 1_455 S
C120 C121 1.363 . S
C120 H123 0.929 . S
C121 C120 1.363 . S
C121 C127 1.428 . S
H122 C118 0.930 . S
H123 C120 0.929 . S
S124 N125 1.613 . S
S124 N126 1.610 1_655 S
N125 S124 1.613 . S
N125 C128 1.350 . S
N126 S124 1.610 1_455 S
N126 C127 1.351 . S
C127 C121 1.428 . S
C127 N126 1.351 . S
C127 C128 1.434 1_455 S
C128 C119 1.429 . S
C128 N125 1.350 . S
C128 C127 1.434 1_655 S
C129 C130 1.369 . S
C129 C131 1.419 . S
C129 H133 0.930 . S
C130 C129 1.369 . S
C130 C139 1.429 . S
C131 C129 1.419 . S
C131 C132 1.363 . S
C131 H134 0.929 . S
C132 C131 1.363 . S
C132 C138 1.428 . S
H133 C129 0.930 . S
H134 C131 0.929 . S
S135 N136 1.613 . S
S135 N137 1.610 . S
N136 S135 1.613 . S
N136 C139 1.350 . S
N137 S135 1.610 . S
N137 C138 1.351 . S
C138 C132 1.428 . S
C138 N137 1.351 . S
C138 C139 1.434 . S
C139 C130 1.429 . S
C139 N136 1.350 . S
C139 C138 1.434 . S
C53 C23 1.228 . S
C55 C5 1.226 . S
C64 C10 1.230 . S
C66 C18 1.225 . S
C75 C49 1.228 . S
C77 C29 1.225 . S
C86 C30 1.230 . S
C88 C44 1.225 . S
C97 C3 1.555 . S
C99 C31 1.555 . S
C108 C43 1.552 . S
C110 C17 1.556 . S
C119 C36 1.551 . S
C121 C4 1.557 . S
C130 C16 1.558 . S
C132 C42 1.553 . S
