# Generated by pormake.
# Topology sxa, (6)-cn, num edge types: 1
# Building blocks:
#     Node 0, Type 0, BuildingBlock: VOLQOD_clean_sbu_1, # of connection points: 6
#     Node 1, Type 0, BuildingBlock: VOLQOD_clean_sbu_1, # of connection points: 6
#     Node 2, Type 0, BuildingBlock: VOLQOD_clean_sbu_1, # of connection points: 6
#     Node 3, Type 0, BuildingBlock: VOLQOD_clean_sbu_1, # of connection points: 6
#     Edge 4, Type (0, 0), BuildingBlock: AJUNOK_clean_linker_0, # of connection points: 2
#     Edge 5, Type (0, 0), BuildingBlock: AJUNOK_clean_linker_0, # of connection points: 2
#     Edge 6, Type (0, 0), BuildingBlock: AJUNOK_clean_linker_0, # of connection points: 2
#     Edge 7, Type (0, 0), BuildingBlock: AJUNOK_clean_linker_0, # of connection points: 2
#     Edge 8, Type (0, 0), BuildingBlock: AJUNOK_clean_linker_0, # of connection points: 2
#     Edge 9, Type (0, 0), BuildingBlock: AJUNOK_clean_linker_0, # of connection points: 2
#     Edge 10, Type (0, 0), BuildingBlock: AJUNOK_clean_linker_0, # of connection points: 2
#     Edge 11, Type (0, 0), BuildingBlock: AJUNOK_clean_linker_0, # of connection points: 2
#     Edge 12, Type (0, 0), BuildingBlock: AJUNOK_clean_linker_0, # of connection points: 2
#     Edge 13, Type (0, 0), BuildingBlock: AJUNOK_clean_linker_0, # of connection points: 2
#     Edge 14, Type (0, 0), BuildingBlock: AJUNOK_clean_linker_0, # of connection points: 2
#     Edge 15, Type (0, 0), BuildingBlock: AJUNOK_clean_linker_0, # of connection points: 2
# Relax obj value: 0.229
# Max RMSD: 0.203
# Mean RMSD: 0.203
data_MOF--net-sxa--node1-VOLQOD_clean_sbu_1--edge1-AJUNOK_clean_linker_0
_symmetry_space_group_name_H-M    P1
_symmetry_Int_Tables_number       1
_symmetry_cell_setting            triclinic
loop_
_symmetry_equiv_pos_as_xyz
'x, y, z'
_cell_length_a     19.099978
_cell_length_b     23.07697
_cell_length_c     13.565244
_cell_angle_alpha  90.298339
_cell_angle_beta   90.511196
_cell_angle_gamma 89.807534
loop_
_atom_site_label
_atom_site_type_symbol
_atom_site_fract_x
_atom_site_fract_y
_atom_site_fract_z
_atom_type_partial_charge
O0 O 0.92024 0.73012 0.38963 0.0
Zn1 Zn 0.01931 0.72034 0.3319 0.0
O2 O 0.03911 0.78453 0.24956 0.0
Zn3 Zn 0.08725 0.762 0.13291 0.0
Zn4 Zn 0.95454 0.81403 0.2024 0.0
Zn5 Zn 0.09319 0.84475 0.30956 0.0
O6 O 0.19053 0.77041 0.15507 0.0
O7 O 0.19362 0.83345 0.27918 0.0
O8 O 0.02574 0.64457 0.24626 0.0
O9 O 0.06959 0.67927 0.10682 0.0
O10 O 0.04436 0.80247 1.01552 0.0
O11 O 0.94129 0.77549 0.07375 0.0
O12 O 0.96641 0.89762 0.16923 0.0
O13 O 0.09496 0.73017 0.43803 0.0
O14 O 0.06527 0.9232 0.24576 0.0
O15 O 0.09865 0.8267 0.4559 0.0
C16 C 0.86921 0.76376 0.36672 0.0
C17 C 0.22427 0.8 0.21905 0.0
C18 C 0.98017 0.78953 1.00191 0.0
C19 C 0.04534 0.63772 0.15663 0.0
C20 C 0.01391 0.93481 0.18745 0.0
C21 C 0.11802 0.77565 0.48253 0.0
O22 O 0.87468 0.79956 0.29581 0.0
O23 O 0.45821 0.2327 0.43129 0.0
Zn24 Zn 0.53367 0.22702 0.32432 0.0
O25 O 0.51186 0.29428 0.24816 0.0
Zn26 Zn 0.46435 0.27734 0.12731 0.0
Zn27 Zn 0.45763 0.35208 0.31403 0.0
Zn28 Zn 0.59534 0.32591 0.20561 0.0
O29 O 0.50916 0.31884 1.01233 0.0
O30 O 0.61195 0.29217 0.07526 0.0
O31 O 0.52747 0.15438 0.22905 0.0
O32 O 0.48128 0.19555 0.09567 0.0
O33 O 0.36105 0.28584 0.14723 0.0
O34 O 0.35743 0.34145 0.28128 0.0
O35 O 0.48375 0.43273 0.25787 0.0
O36 O 0.63415 0.23597 0.38441 0.0
O37 O 0.58252 0.40982 0.18053 0.0
O38 O 0.67466 0.3097 0.29769 0.0
C39 C 0.43467 0.27646 0.4801 0.0
C40 C 0.57373 0.30611 1.0018 0.0
C41 C 0.32718 0.31177 0.21496 0.0
C42 C 0.50674 0.15152 0.13862 0.0
C43 C 0.53489 0.44621 0.20184 0.0
C44 C 0.68313 0.27198 0.36486 0.0
O45 O 0.45271 0.3285 0.45831 0.0
O46 O 0.13271 0.22789 0.70051 0.0
Zn47 Zn 0.03379 0.21825 0.75919 0.0
O48 O 0.01337 0.28288 0.84143 0.0
Zn49 Zn 0.96058 0.26217 0.95482 0.0
Zn50 Zn 0.09836 0.30722 0.89346 0.0
Zn51 Zn 0.96735 0.34616 0.77847 0.0
O52 O 0.85972 0.28362 0.93352 0.0
O53 O 0.86595 0.34537 0.80868 0.0
O54 O 0.02861 0.14385 0.84744 0.0
O55 O 0.96678 0.17739 0.97416 0.0
O56 O 0.00871 0.294 0.07725 0.0
O57 O 0.10868 0.26205 1.01515 0.0
O58 O 0.08831 0.38964 0.93553 0.0
O59 O 0.95799 0.22816 0.6526 0.0
O60 O 0.0026 0.42358 0.83992 0.0
O61 O 0.96153 0.32453 0.63319 0.0
C62 C 0.18382 0.26084 0.72542 0.0
C63 C 0.83078 0.31697 0.87048 0.0
C64 C 0.07101 0.27501 0.0891 0.0
C65 C -0.0017 0.13623 0.93053 0.0
C66 C 0.04834 0.43099 0.90877 0.0
C67 C 0.93898 0.27428 0.60662 0.0
O68 O 0.17849 0.29502 0.79921 0.0
O69 O 0.59659 0.7296 0.6599 0.0
Zn70 Zn 0.52155 0.7238 0.7663 0.0
O71 O 0.54264 0.78994 0.84414 0.0
Zn72 Zn 0.59381 0.77177 0.9616 0.0
Zn73 Zn 0.58918 0.85048 0.77608 0.0
Zn74 Zn 0.45875 0.81737 0.89218 0.0
O75 O 0.54435 0.80343 0.08255 0.0
O76 O 0.44453 0.77433 1.014 0.0
O77 O 0.526 0.65153 0.85922 0.0
O78 O 0.58799 0.68767 0.98471 0.0
O79 O 0.69465 0.79145 0.94237 0.0
O80 O 0.69028 0.84764 0.80958 0.0
O81 O 0.55491 0.9302 0.82965 0.0
O82 O 0.42288 0.73366 0.7063 0.0
O83 O 0.4733 0.89917 0.93306 0.0
O84 O 0.37901 0.80569 0.79583 0.0
C85 C 0.61742 0.77369 0.61071 0.0
C86 C 0.48193 0.78449 0.09018 0.0
C87 C 0.72445 0.82115 0.87592 0.0
C88 C 0.55625 0.64569 0.94355 0.0
C89 C 0.51275 0.93912 0.90146 0.0
C90 C 0.37279 0.76876 0.72602 0.0
O91 O 0.5963 0.82519 0.6323 0.0
C92 C 0.98941 0.52121 0.97487 0.0
C93 C 0.04905 0.4851 0.9701 0.0
C94 C 0.98639 0.5685 1.04096 0.0
C95 C 0.04232 0.58098 0.10585 0.0
H96 H 0.94441 0.51267 0.92793 0.0
H97 H 0.94063 0.59638 1.03961 0.0
S98 S 0.2122 0.50398 0.11864 0.0
N99 N 0.16702 0.46797 1.0341 0.0
N100 N 0.16023 0.55646 0.1573 0.0
C101 C 0.10225 0.54604 0.10126 0.0
C102 C 0.10583 0.49821 1.03395 0.0
C103 C 0.59771 0.53227 0.13741 0.0
C104 C 0.53508 0.50093 0.14502 0.0
C105 C 0.60451 0.57748 0.06943 0.0
C106 C 0.54981 0.59217 1.00354 0.0
H107 H 0.64231 0.52114 0.18356 0.0
H108 H 0.65347 0.60103 0.06811 0.0
S109 S 0.37609 0.52136 0.9898 0.0
N110 N 0.41768 0.48656 0.07911 0.0
N111 N 0.43089 0.57111 0.95004 0.0
C112 C 0.48713 0.56064 1.00932 0.0
C113 C 0.47964 0.51527 0.08037 0.0
C114 C 0.51259 0.99176 0.06339 0.0
C115 C 0.51487 0.99395 0.95934 0.0
C116 C 0.51245 0.04244 0.12164 0.0
C117 C 0.51297 0.09747 0.07797 0.0
H118 H 0.51118 0.9503 0.10031 0.0
H119 H 0.50995 0.03844 0.20105 0.0
S120 S 0.51982 0.1266 0.80798 0.0
N121 N 0.51977 0.05524 0.81546 0.0
N122 N 0.51712 0.1506 0.92277 0.0
C123 C 0.51602 0.1 0.97355 0.0
C124 C 0.5177 0.04833 0.91482 0.0
C125 C 0.948 1.0132 0.09946 0.0
C126 C 0.01279 0.98849 0.12678 0.0
C127 C 0.94376 0.05906 1.03198 0.0
C128 C 0.00381 0.081 0.98593 0.0
H129 H 0.89994 0.99702 0.13085 0.0
H130 H 0.89289 0.07797 1.01629 0.0
S131 S 0.186 1.03029 1.02789 0.0
N132 N 0.13858 0.98886 0.10034 0.0
N133 N 0.13022 0.07442 0.97207 0.0
C134 C 0.06887 0.05616 1.01092 0.0
C135 C 0.07346 1.01019 0.08166 0.0
C136 C 0.25589 0.81192 0.67827 0.0
C137 C 0.30625 0.76748 0.66686 0.0
C138 C 0.19408 0.81333 0.62111 0.0
C139 C 0.17911 0.76978 0.55119 0.0
H140 H 0.2648 0.84689 0.73044 0.0
H141 H 0.15818 0.84928 0.63091 0.0
S142 S 0.29287 0.64335 0.49217 0.0
N143 N 0.33601 0.67845 0.57972 0.0
N144 N 0.22018 0.6807 0.47354 0.0
C145 C 0.22822 0.72438 0.54034 0.0
C146 C 0.29157 0.72334 0.59764 0.0
C147 C 0.29791 0.3074 0.67764 0.0
C148 C 0.25005 0.26123 0.66681 0.0
C149 C 0.35869 0.31091 0.62001 0.0
C150 C 0.37534 0.26787 0.55001 0.0
H151 H 0.28752 0.34226 0.72935 0.0
H152 H 0.39229 0.34829 0.62929 0.0
S153 S 0.26952 0.13629 0.49544 0.0
N154 N 0.22517 0.17044 0.58208 0.0
N155 N 0.33922 0.17644 0.47517 0.0
C156 C 0.32914 0.22043 0.54062 0.0
C157 C 0.26668 0.2173 0.59836 0.0
C158 C 0.83001 0.22556 0.54188 0.0
C159 C 0.87913 0.27092 0.53517 0.0
C160 C 0.76732 0.22584 0.48644 0.0
C161 C 0.75116 0.27121 0.42094 0.0
H162 H 0.83858 0.19047 0.59342 0.0
H163 H 0.73089 0.19052 0.49612 0.0
S164 S 0.86483 0.39845 0.37071 0.0
N165 N 0.9088 0.36096 0.45411 0.0
N166 N 0.79225 0.36168 0.34949 0.0
C167 C 0.80122 0.31587 0.41105 0.0
C168 C 0.86468 0.31569 0.46809 0.0
C169 C 0.75554 0.80993 0.41894 0.0
C170 C 0.80269 0.76282 0.42434 0.0
C171 C 0.69441 0.812 0.47599 0.0
C172 C 0.67679 0.7666 0.54013 0.0
H173 H 0.7668 0.84661 0.37216 0.0
H174 H 0.66147 0.85016 0.47118 0.0
S175 S 0.77979 0.63109 0.57665 0.0
N176 N 0.82543 0.66822 0.49598 0.0
N177 N 0.71072 0.67149 0.60194 0.0
C178 C 0.72214 0.71811 0.54343 0.0
C179 C 0.78492 0.7164 0.48621 0.0
C180 C 0.41455 0.83912 0.20821 0.0
C181 C 0.44382 0.78523 0.18252 0.0
C182 C 0.34295 0.84365 0.22856 0.0
C183 C 0.30043 0.79413 0.22543 0.0
H184 H 0.44358 0.8786 0.19569 0.0
H185 H 0.31973 0.88633 0.23605 0.0
S186 S 0.35976 0.6418 0.20318 0.0
N187 N 0.4311 0.68077 0.18679 0.0
N188 N 0.29617 0.68886 0.22433 0.0
C189 C 0.33226 0.73943 0.21974 0.0
C190 C 0.40505 0.73504 0.20108 0.0
C191 C 0.13394 0.33932 0.19886 0.0
C192 C 0.10975 0.2827 0.18096 0.0
C193 C 0.20506 0.34903 0.21893 0.0
C194 C 0.25197 0.30223 0.22247 0.0
H195 H 0.10117 0.37623 0.18042 0.0
H196 H 0.22445 0.39299 0.22144 0.0
S197 S 0.20731 0.14642 0.22295 0.0
N198 N 0.13227 0.17997 0.20094 0.0
N199 N 0.26643 0.19799 0.23682 0.0
C200 C 0.22548 0.24577 0.22489 0.0
C201 C 0.15321 0.23612 0.20708 0.0
C202 C 0.64582 0.26548 0.87516 0.0
C203 C 0.61116 0.31512 0.91028 0.0
C204 C 0.71736 0.26712 0.85552 0.0
C205 C 0.75446 0.31918 0.86456 0.0
H206 H 0.62139 0.22345 0.8809 0.0
H207 H 0.7448 0.22678 0.84136 0.0
S208 S 0.68067 0.46447 0.9155 0.0
N209 N 0.61372 0.41983 0.92654 0.0
N210 N 0.74826 0.42377 0.88367 0.0
C211 C 0.7173 0.37091 0.87912 0.0
C212 C 0.64463 0.36883 0.90125 0.0
C213 C 0.91379 0.85874 0.90747 0.0
C214 C 0.94311 0.80275 0.91088 0.0
C215 C 0.84221 0.86604 0.88747 0.0
C216 C 0.80029 0.81758 0.86748 0.0
H217 H 0.9426 0.89525 0.93769 0.0
H218 H 0.81857 0.90835 0.89802 0.0
S219 S 0.85947 0.66639 0.82957 0.0
N220 N 0.93068 0.70184 0.86401 0.0
N221 N 0.79608 0.71524 0.82518 0.0
C222 C 0.83221 0.7637 0.85123 0.0
C223 C 0.90474 0.75663 0.87076 0.0
loop_
_geom_bond_atom_site_label_1
_geom_bond_atom_site_label_2
_geom_bond_distance
_geom_bond_site_symmetry_2
_ccdc_geom_bond_type
O0 Zn1 1.953 1_655 S
O0 C16 1.225 . S
Zn1 O0 1.953 1_455 S
Zn1 O2 1.949 . S
Zn1 O8 1.919 . S
Zn1 O13 1.924 . S
O2 Zn1 1.949 . S
O2 Zn3 1.923 . S
O2 Zn4 1.950 1_455 S
O2 Zn5 1.945 . S
Zn3 O2 1.923 . S
Zn3 O6 1.933 1_554 S
Zn3 O9 1.941 . S
Zn3 O10 1.965 1_454 S
Zn4 O2 1.950 1_655 S
Zn4 O11 1.938 . S
Zn4 O12 1.906 . S
Zn4 O22 1.953 . S
Zn5 O2 1.945 . S
Zn5 O7 1.932 . S
Zn5 O14 1.977 . S
Zn5 O15 1.910 . S
O6 Zn3 1.933 1_556 S
O6 C17 1.226 1_556 S
O7 Zn5 1.932 . S
O7 C17 1.307 . S
O8 Zn1 1.919 . S
O8 C19 1.253 . S
O9 Zn3 1.941 . S
O9 C19 1.283 . S
O10 Zn3 1.965 1_656 S
O10 C18 1.303 1_556 S
O11 Zn4 1.938 . S
O11 C18 1.247 . S
O12 Zn4 1.906 . S
O12 C20 1.304 1_655 S
O13 Zn1 1.924 . S
O13 C21 1.311 . S
O14 Zn5 1.977 . S
O14 C20 1.272 . S
O15 Zn5 1.910 . S
O15 C21 1.231 . S
C16 O0 1.225 . S
C16 O22 1.298 . S
C17 O6 1.226 1_554 S
C17 O7 1.307 . S
C18 O10 1.303 1_554 S
C18 O11 1.247 . S
C19 O8 1.253 . S
C19 O9 1.283 . S
C20 O12 1.304 1_455 S
C20 O14 1.272 . S
C21 O13 1.311 . S
C21 O15 1.231 . S
O22 Zn4 1.953 . S
O22 C16 1.298 . S
O23 Zn24 1.953 . S
O23 C39 1.225 . S
Zn24 O23 1.953 . S
Zn24 O25 1.949 . S
Zn24 O31 1.919 . S
Zn24 O36 1.924 . S
O25 Zn24 1.949 . S
O25 Zn26 1.923 . S
O25 Zn27 1.950 . S
O25 Zn28 1.945 . S
Zn26 O25 1.923 . S
Zn26 O29 1.933 1_554 S
Zn26 O32 1.941 . S
Zn26 O33 1.965 1_554 S
Zn27 O25 1.950 . S
Zn27 O34 1.938 . S
Zn27 O35 1.906 . S
Zn27 O45 1.953 . S
Zn28 O25 1.945 . S
Zn28 O30 1.932 . S
Zn28 O37 1.977 . S
Zn28 O38 1.910 . S
O29 Zn26 1.933 1_556 S
O29 C40 1.226 1_556 S
O30 Zn28 1.932 . S
O30 C40 1.307 . S
O31 Zn24 1.919 . S
O31 C42 1.253 . S
O32 Zn26 1.941 . S
O32 C42 1.283 . S
O33 Zn26 1.965 1_556 S
O33 C41 1.303 1_556 S
O34 Zn27 1.938 . S
O34 C41 1.247 . S
O35 Zn27 1.906 . S
O35 C43 1.304 . S
O36 Zn24 1.924 . S
O36 C44 1.311 . S
O37 Zn28 1.977 . S
O37 C43 1.272 . S
O38 Zn28 1.910 . S
O38 C44 1.231 . S
C39 O23 1.225 . S
C39 O45 1.298 . S
C40 O29 1.226 1_554 S
C40 O30 1.307 . S
C41 O33 1.303 1_554 S
C41 O34 1.247 . S
C42 O31 1.253 . S
C42 O32 1.283 . S
C43 O35 1.304 . S
C43 O37 1.272 . S
C44 O36 1.311 . S
C44 O38 1.231 . S
O45 Zn27 1.953 . S
O45 C39 1.298 . S
O46 Zn47 1.953 . S
O46 C62 1.225 . S
Zn47 O46 1.953 . S
Zn47 O48 1.949 . S
Zn47 O54 1.919 . S
Zn47 O59 1.924 1_455 S
O48 Zn47 1.949 . S
O48 Zn49 1.923 . S
O48 Zn50 1.950 . S
O48 Zn51 1.945 1_455 S
Zn49 O48 1.923 . S
Zn49 O52 1.933 1_456 S
Zn49 O55 1.941 . S
Zn49 O56 1.965 1_556 S
Zn50 O48 1.950 . S
Zn50 O57 1.938 . S
Zn50 O58 1.906 . S
Zn50 O68 1.953 . S
Zn51 O48 1.945 1_655 S
Zn51 O53 1.932 . S
Zn51 O60 1.977 . S
Zn51 O61 1.910 . S
O52 Zn49 1.933 1_654 S
O52 C63 1.226 1_554 S
O53 Zn51 1.932 . S
O53 C63 1.307 . S
O54 Zn47 1.919 . S
O54 C65 1.253 . S
O55 Zn49 1.941 . S
O55 C65 1.283 . S
O56 Zn49 1.965 1_554 S
O56 C64 1.303 1_554 S
O57 Zn50 1.938 . S
O57 C64 1.247 . S
O58 Zn50 1.906 . S
O58 C66 1.304 . S
O59 Zn47 1.924 1_655 S
O59 C67 1.311 . S
O60 Zn51 1.977 . S
O60 C66 1.272 1_655 S
O61 Zn51 1.910 . S
O61 C67 1.231 . S
C62 O46 1.225 . S
C62 O68 1.298 . S
C63 O52 1.226 1_556 S
C63 O53 1.307 . S
C64 O56 1.303 1_556 S
C64 O57 1.247 . S
C65 O54 1.253 . S
C65 O55 1.283 . S
C66 O58 1.304 . S
C66 O60 1.272 1_455 S
C67 O59 1.311 . S
C67 O61 1.231 . S
O68 Zn50 1.953 . S
O68 C62 1.298 . S
O69 Zn70 1.953 . S
O69 C85 1.225 . S
Zn70 O69 1.953 . S
Zn70 O71 1.949 . S
Zn70 O77 1.919 . S
Zn70 O82 1.924 . S
O71 Zn70 1.949 . S
O71 Zn72 1.923 . S
O71 Zn73 1.950 . S
O71 Zn74 1.945 . S
Zn72 O71 1.923 . S
Zn72 O75 1.933 1_556 S
Zn72 O78 1.941 . S
Zn72 O79 1.965 1_556 S
Zn73 O71 1.950 . S
Zn73 O80 1.938 . S
Zn73 O81 1.906 . S
Zn73 O91 1.953 . S
Zn74 O71 1.945 . S
Zn74 O76 1.932 . S
Zn74 O83 1.977 . S
Zn74 O84 1.910 . S
O75 Zn72 1.933 1_554 S
O75 C86 1.226 1_554 S
O76 Zn74 1.932 . S
O76 C86 1.307 . S
O77 Zn70 1.919 . S
O77 C88 1.253 . S
O78 Zn72 1.941 . S
O78 C88 1.283 . S
O79 Zn72 1.965 1_554 S
O79 C87 1.303 1_554 S
O80 Zn73 1.938 . S
O80 C87 1.247 . S
O81 Zn73 1.906 . S
O81 C89 1.304 . S
O82 Zn70 1.924 . S
O82 C90 1.311 . S
O83 Zn74 1.977 . S
O83 C89 1.272 . S
O84 Zn74 1.910 . S
O84 C90 1.231 . S
C85 O69 1.225 . S
C85 O91 1.298 . S
C86 O75 1.226 1_556 S
C86 O76 1.307 . S
C87 O79 1.303 1_556 S
C87 O80 1.247 . S
C88 O77 1.253 . S
C88 O78 1.283 . S
C89 O81 1.304 . S
C89 O83 1.272 . S
C90 O82 1.311 . S
C90 O84 1.231 . S
O91 Zn73 1.953 . S
O91 C85 1.298 . S
C92 C93 1.369 1_655 S
C92 C94 1.418 1_655 S
C92 H96 0.930 . S
C93 C92 1.369 1_455 S
C93 C102 1.429 1_556 S
C94 C92 1.418 1_455 S
C94 C95 1.369 1_556 S
C94 H97 0.924 1_455 S
C95 C94 1.369 1_554 S
C95 C101 1.428 . S
H96 C92 0.930 . S
H97 C94 0.924 1_655 S
S98 N99 1.613 . S
S98 N100 1.610 . S
N99 S98 1.613 . S
N99 C102 1.350 . S
N100 S98 1.610 . S
N100 C101 1.351 . S
C101 C95 1.428 . S
C101 N100 1.351 . S
C101 C102 1.434 . S
C102 C93 1.429 1_554 S
C102 N99 1.350 . S
C102 C101 1.434 . S
C103 C104 1.369 . S
C103 C105 1.419 1_554 S
C103 H107 0.930 . S
C104 C103 1.369 . S
C104 C113 1.429 . S
C105 C103 1.419 1_556 S
C105 C106 1.363 . S
C105 H108 0.929 . S
C106 C105 1.363 . S
C106 C112 1.428 . S
H107 C103 0.930 . S
H108 C105 0.929 . S
S109 N110 1.613 . S
S109 N111 1.610 1_554 S
N110 S109 1.613 . S
N110 C113 1.350 . S
N111 S109 1.610 1_556 S
N111 C112 1.351 . S
C112 C106 1.428 . S
C112 N111 1.351 . S
C112 C113 1.434 1_556 S
C113 C104 1.429 . S
C113 N110 1.350 . S
C113 C112 1.434 1_554 S
C114 C115 1.369 1_554 S
C114 C116 1.419 . S
C114 H118 0.930 . S
C115 C114 1.369 1_556 S
C115 C124 1.429 1_565 S
C116 C114 1.419 . S
C116 C117 1.363 1_565 S
C116 H119 0.929 . S
C117 C116 1.363 1_545 S
C117 C123 1.428 1_554 S
H118 C114 0.930 . S
H119 C116 0.929 . S
S120 N121 1.613 . S
S120 N122 1.610 . S
N121 S120 1.613 . S
N121 C124 1.350 . S
N122 S120 1.610 . S
N122 C123 1.351 . S
C123 C117 1.428 1_556 S
C123 N122 1.351 . S
C123 C124 1.434 . S
C124 C115 1.429 1_545 S
C124 N121 1.350 . S
C124 C123 1.434 . S
C125 C126 1.369 1_556 S
C125 C127 1.419 . S
C125 H129 0.930 . S
C126 C125 1.369 1_554 S
C126 C135 1.429 1_565 S
C127 C125 1.419 . S
C127 C128 1.363 1_565 S
C127 H130 0.929 1_455 S
C128 C127 1.363 1_545 S
C128 C134 1.428 1_556 S
H129 C125 0.930 . S
H130 C127 0.929 1_655 S
S131 N132 1.613 . S
S131 N133 1.610 . S
N132 S131 1.613 . S
N132 C135 1.350 . S
N133 S131 1.610 . S
N133 C134 1.351 . S
C134 C128 1.428 1_554 S
C134 N133 1.351 . S
C134 C135 1.434 . S
C135 C126 1.429 1_545 S
C135 N132 1.350 . S
C135 C134 1.434 . S
C136 C137 1.369 . S
C136 C138 1.419 . S
C136 H140 0.930 . S
C137 C136 1.369 . S
C137 C146 1.429 . S
C138 C136 1.419 . S
C138 C139 1.363 . S
C138 H141 0.929 . S
C139 C138 1.363 . S
C139 C145 1.428 . S
H140 C136 0.930 . S
H141 C138 0.929 . S
S142 N143 1.613 . S
S142 N144 1.610 . S
N143 S142 1.613 . S
N143 C146 1.350 . S
N144 S142 1.610 . S
N144 C145 1.351 . S
C145 C139 1.428 . S
C145 N144 1.351 . S
C145 C146 1.434 . S
C146 C137 1.429 . S
C146 N143 1.350 . S
C146 C145 1.434 . S
C147 C148 1.369 . S
C147 C149 1.419 . S
C147 H151 0.930 . S
C148 C147 1.369 . S
C148 C157 1.429 . S
C149 C147 1.419 . S
C149 C150 1.363 . S
C149 H152 0.929 . S
C150 C149 1.363 . S
C150 C156 1.428 . S
H151 C147 0.930 . S
H152 C149 0.929 . S
S153 N154 1.613 . S
S153 N155 1.610 . S
N154 S153 1.613 . S
N154 C157 1.350 . S
N155 S153 1.610 . S
N155 C156 1.351 . S
C156 C150 1.428 . S
C156 N155 1.351 . S
C156 C157 1.434 . S
C157 C148 1.429 . S
C157 N154 1.350 . S
C157 C156 1.434 . S
C158 C159 1.369 . S
C158 C160 1.419 . S
C158 H162 0.930 . S
C159 C158 1.369 . S
C159 C168 1.429 . S
C160 C158 1.419 . S
C160 C161 1.363 . S
C160 H163 0.929 . S
C161 C160 1.363 . S
C161 C167 1.428 . S
H162 C158 0.930 . S
H163 C160 0.929 . S
S164 N165 1.613 . S
S164 N166 1.610 . S
N165 S164 1.613 . S
N165 C168 1.350 . S
N166 S164 1.610 . S
N166 C167 1.351 . S
C167 C161 1.428 . S
C167 N166 1.351 . S
C167 C168 1.434 . S
C168 C159 1.429 . S
C168 N165 1.350 . S
C168 C167 1.434 . S
C169 C170 1.369 . S
C169 C171 1.419 . S
C169 H173 0.930 . S
C170 C169 1.369 . S
C170 C179 1.429 . S
C171 C169 1.419 . S
C171 C172 1.363 . S
C171 H174 0.929 . S
C172 C171 1.363 . S
C172 C178 1.428 . S
H173 C169 0.930 . S
H174 C171 0.929 . S
S175 N176 1.613 . S
S175 N177 1.610 . S
N176 S175 1.613 . S
N176 C179 1.350 . S
N177 S175 1.610 . S
N177 C178 1.351 . S
C178 C172 1.428 . S
C178 N177 1.351 . S
C178 C179 1.434 . S
C179 C170 1.429 . S
C179 N176 1.350 . S
C179 C178 1.434 . S
C180 C181 1.369 . S
C180 C182 1.419 . S
C180 H184 0.930 . S
C181 C180 1.369 . S
C181 C190 1.429 1_554 S
C182 C180 1.419 . S
C182 C183 1.363 1_554 S
C182 H185 0.929 . S
C183 C182 1.363 1_556 S
C183 C189 1.428 . S
H184 C180 0.930 . S
H185 C182 0.929 . S
S186 N187 1.613 . S
S186 N188 1.610 . S
N187 S186 1.613 . S
N187 C190 1.350 . S
N188 S186 1.610 . S
N188 C189 1.351 . S
C189 C183 1.428 . S
C189 N188 1.351 . S
C189 C190 1.434 . S
C190 C181 1.429 1_556 S
C190 N187 1.350 . S
C190 C189 1.434 . S
C191 C192 1.369 1_554 S
C191 C193 1.419 . S
C191 H195 0.930 . S
C192 C191 1.369 1_556 S
C192 C201 1.429 . S
C193 C191 1.419 . S
C193 C194 1.363 . S
C193 H196 0.929 . S
C194 C193 1.363 . S
C194 C200 1.428 1_554 S
H195 C191 0.930 . S
H196 C193 0.929 . S
S197 N198 1.613 . S
S197 N199 1.610 . S
N198 S197 1.613 . S
N198 C201 1.350 . S
N199 S197 1.610 . S
N199 C200 1.351 . S
C200 C194 1.428 1_556 S
C200 N199 1.351 . S
C200 C201 1.434 . S
C201 C192 1.429 . S
C201 N198 1.350 . S
C201 C200 1.434 . S
C202 C203 1.369 1_554 S
C202 C204 1.419 . S
C202 H206 0.930 . S
C203 C202 1.369 1_556 S
C203 C212 1.429 . S
C204 C202 1.419 . S
C204 C205 1.363 . S
C204 H207 0.929 . S
C205 C204 1.363 . S
C205 C211 1.428 1_554 S
H206 C202 0.930 . S
H207 C204 0.929 . S
S208 N209 1.613 . S
S208 N210 1.610 . S
N209 S208 1.613 . S
N209 C212 1.350 . S
N210 S208 1.610 . S
N210 C211 1.351 . S
C211 C205 1.428 1_556 S
C211 N210 1.351 . S
C211 C212 1.434 . S
C212 C203 1.429 . S
C212 N209 1.350 . S
C212 C211 1.434 . S
C213 C214 1.369 . S
C213 C215 1.419 . S
C213 H217 0.930 . S
C214 C213 1.369 . S
C214 C223 1.429 1_554 S
C215 C213 1.419 . S
C215 C216 1.363 1_554 S
C215 H218 0.929 . S
C216 C215 1.363 1_556 S
C216 C222 1.428 . S
H217 C213 0.930 . S
H218 C215 0.929 . S
S219 N220 1.613 . S
S219 N221 1.610 . S
N220 S219 1.613 . S
N220 C223 1.350 . S
N221 S219 1.610 . S
N221 C222 1.351 . S
C222 C216 1.428 . S
C222 N221 1.351 . S
C222 C223 1.434 . S
C223 C214 1.429 1_556 S
C223 N220 1.350 . S
C223 C222 1.434 . S
C93 C66 2.149 . S
C95 C19 2.070 . S
C104 C43 2.150 . S
C106 C88 2.070 . S
C115 C89 2.154 . S
C117 C42 2.065 . S
C126 C20 2.154 . S
C128 C65 2.064 . S
C137 C90 1.526 . S
C139 C21 1.531 . S
C148 C62 1.938 . S
C150 C39 1.938 . S
C159 C67 1.529 . S
C161 C44 1.532 . S
C170 C16 1.938 . S
C172 C85 1.938 . S
C181 C86 0.992 1_554 S
C183 C17 1.010 1_556 S
C192 C64 0.433 . S
C194 C41 0.434 . S
C203 C40 1.009 1_556 S
C205 C63 0.998 1_554 S
C214 C18 0.436 . S
C216 C87 0.430 . S
