# Generated by pormake.
# Topology snk, (6)-cn, num edge types: 1
# Building blocks:
#     Node 0, Type 0, BuildingBlock: MIFKUJ_clean_sbu_0, # of connection points: 6
#     Node 1, Type 0, BuildingBlock: MIFKUJ_clean_sbu_0, # of connection points: 6
#     Node 2, Type 0, BuildingBlock: MIFKUJ_clean_sbu_0, # of connection points: 6
#     Node 3, Type 0, BuildingBlock: MIFKUJ_clean_sbu_0, # of connection points: 6
#     Node 4, Type 0, BuildingBlock: MIFKUJ_clean_sbu_0, # of connection points: 6
#     Node 5, Type 0, BuildingBlock: MIFKUJ_clean_sbu_0, # of connection points: 6
#     Node 6, Type 0, BuildingBlock: MIFKUJ_clean_sbu_0, # of connection points: 6
#     Node 7, Type 0, BuildingBlock: MIFKUJ_clean_sbu_0, # of connection points: 6
#     Edge 8, Type (0, 0), None
#     Edge 9, Type (0, 0), None
#     Edge 10, Type (0, 0), None
#     Edge 11, Type (0, 0), None
#     Edge 12, Type (0, 0), None
#     Edge 13, Type (0, 0), None
#     Edge 14, Type (0, 0), None
#     Edge 15, Type (0, 0), None
#     Edge 16, Type (0, 0), None
#     Edge 17, Type (0, 0), None
#     Edge 18, Type (0, 0), None
#     Edge 19, Type (0, 0), None
#     Edge 20, Type (0, 0), None
#     Edge 21, Type (0, 0), None
#     Edge 22, Type (0, 0), None
#     Edge 23, Type (0, 0), None
#     Edge 24, Type (0, 0), None
#     Edge 25, Type (0, 0), None
#     Edge 26, Type (0, 0), None
#     Edge 27, Type (0, 0), None
#     Edge 28, Type (0, 0), None
#     Edge 29, Type (0, 0), None
#     Edge 30, Type (0, 0), None
#     Edge 31, Type (0, 0), None
# Relax obj value: 0.076
# Max RMSD: 0.109
# Mean RMSD: 0.083
data_MOF--net-snk--node1-MIFKUJ_clean_sbu_0--edge1-none
_symmetry_space_group_name_H-M    P1
_symmetry_Int_Tables_number       1
_symmetry_cell_setting            triclinic
loop_
_symmetry_equiv_pos_as_xyz
'x, y, z'
_cell_length_a     19.749944
_cell_length_b     19.749845
_cell_length_c     10.325661
_cell_angle_alpha  99.684562
_cell_angle_beta   80.310302
_cell_angle_gamma 81.745948
loop_
_atom_site_label
_atom_site_type_symbol
_atom_site_fract_x
_atom_site_fract_y
_atom_site_fract_z
_atom_type_partial_charge
Zn0 Zn 0.99679 0.9895 0.33071 0.0
Zn1 Zn 0.00948 0.02469 0.64825 0.0
C2 C 0.8665 0.06318 0.35544 0.0
O3 O 0.85763 0.99908 0.31395 0.0
C4 C 0.13977 0.951 0.62356 0.0
O5 O 0.14865 0.0151 0.66501 0.0
O6 O 1.00218 0.96453 0.12801 0.0
O7 O 0.08872 0.01442 0.35774 0.0
O8 O 0.05034 0.09382 0.54485 0.0
C9 C 0.00351 0.01372 0.06173 0.0
O10 O 0.00503 0.0771 0.12357 0.0
O11 O 0.92522 0.07481 0.3787 0.0
C12 C 1.00276 1.00048 0.91724 0.0
O13 O 1.00124 0.9371 0.85539 0.0
O14 O 0.00409 0.04967 0.85095 0.0
O15 O 0.91755 0.99978 0.62121 0.0
O16 O 0.95593 0.92037 0.43412 0.0
O17 O 0.08105 0.93938 0.60029 0.0
C18 C 0.09262 0.07115 0.43265 0.0
C19 C 0.91366 0.94304 0.54632 0.0
Zn20 Zn 0.23548 0.75071 0.8983 0.0
Zn21 Zn 0.27069 0.7634 0.58074 0.0
C22 C 0.30914 0.62041 0.87368 0.0
O23 O 0.24503 0.61156 0.91515 0.0
C24 C 0.19705 0.89371 0.60539 0.0
O25 O 0.26116 0.90255 0.5639 0.0
O26 O 0.21051 0.75611 0.10101 0.0
O27 O 0.26042 0.84263 0.87123 0.0
O28 O 0.33983 0.80425 0.68414 0.0
C29 C 0.25971 0.75744 0.16728 0.0
O30 O 0.32309 0.75894 0.10541 0.0
O31 O 0.32078 0.67912 0.85036 0.0
C32 C 0.24647 0.75668 0.31177 0.0
O33 O 0.18308 0.75517 0.37364 0.0
O34 O 0.29566 0.75801 0.37804 0.0
O35 O 0.24575 0.67148 0.6078 0.0
O36 O 0.16635 0.70986 0.79492 0.0
O37 O 0.1854 0.835 0.6287 0.0
C38 C 0.31716 0.84652 0.79633 0.0
C39 C 0.18902 0.66759 0.68272 0.0
Zn40 Zn 0.54122 0.02886 0.16026 0.0
Zn41 Zn 0.465 0.98528 0.81882 0.0
C42 C 0.65109 0.11216 0.13897 0.0
O43 O 0.67323 0.07128 0.02056 0.0
C44 C 0.35515 0.90197 0.84017 0.0
O45 O 0.33303 0.94283 0.95859 0.0
O46 O 0.52476 0.98316 0.31544 0.0
O47 O 0.44682 0.08204 0.15063 0.0
O48 O 0.40388 0.06233 0.96551 0.0
C49 C 0.50784 0.02237 0.43021 0.0
O50 O 0.49927 0.09044 0.44163 0.0
O51 O 0.59676 0.1035 0.21447 0.0
C52 C 0.49836 0.99176 0.54886 0.0
O53 O 0.50693 0.92369 0.53744 0.0
O54 O 0.48145 0.03097 0.66364 0.0
O55 O 0.5594 0.93211 0.82845 0.0
O56 O 0.60234 0.95182 0.01357 0.0
O57 O 0.40946 0.91064 0.76464 0.0
C58 C 0.39921 0.0946 0.0848 0.0
C59 C 0.60701 0.91955 0.89428 0.0
Zn60 Zn 0.27484 0.29517 0.06884 0.0
Zn61 Zn 0.23138 0.21898 0.41028 0.0
C62 C 0.35815 0.40501 0.09031 0.0
O63 O 0.3173 0.42709 0.20877 0.0
C64 C 0.14807 0.10914 0.38884 0.0
O65 O 0.18892 0.08705 0.27038 0.0
O66 O 0.22916 0.27876 0.91364 0.0
O67 O 0.32804 0.20076 0.07834 0.0
O68 O 0.30842 0.15788 0.26356 0.0
C69 C 0.2684 0.26181 0.79889 0.0
O70 O 0.33647 0.25319 0.78755 0.0
O71 O 0.34946 0.35073 0.01473 0.0
C72 C 0.23783 0.25235 0.68021 0.0
O73 O 0.16976 0.26098 0.69156 0.0
O74 O 0.27707 0.2354 0.56546 0.0
O75 O 0.17817 0.31338 0.40076 0.0
O76 O 0.19779 0.35627 0.21556 0.0
O77 O 0.15676 0.16342 0.46442 0.0
C78 C 0.34064 0.15317 0.14421 0.0
C79 C 0.16556 0.36096 0.3349 0.0
Zn80 Zn 0.7355 0.25076 0.39842 0.0
Zn81 Zn 0.7707 0.26345 0.08088 0.0
C82 C 0.80921 0.12046 0.37369 0.0
O83 O 0.74511 0.11159 0.41517 0.0
C84 C 0.697 0.39374 0.10558 0.0
O85 O 0.7611 0.40262 0.06411 0.0
O86 O 0.71054 0.25614 0.60112 0.0
O87 O 0.76041 0.34269 0.37137 0.0
O88 O 0.83982 0.30431 0.18428 0.0
C89 C 0.75973 0.25748 0.6674 0.0
O90 O 0.82311 0.25901 0.60554 0.0
O91 O 0.82082 0.1792 0.35043 0.0
C92 C 0.74648 0.25673 0.8119 0.0
O93 O 0.6831 0.2552 0.87375 0.0
O94 O 0.79567 0.25807 0.87817 0.0
O95 O 0.7458 0.17151 0.10793 0.0
O96 O 0.66638 0.20988 0.29502 0.0
O97 O 0.68538 0.33501 0.12885 0.0
C98 C 0.81714 0.34659 0.29647 0.0
C99 C 0.68906 0.16761 0.18282 0.0
Zn100 Zn 0.77491 0.7952 0.5689 0.0
Zn101 Zn 0.73131 0.71897 0.91036 0.0
C102 C 0.85821 0.90506 0.59017 0.0
O103 O 0.81732 0.9272 0.70857 0.0
C104 C 0.64798 0.60913 0.88903 0.0
O105 O 0.68884 0.58702 0.77059 0.0
O106 O 0.72921 0.77874 0.41373 0.0
O107 O 0.82808 0.70079 0.57855 0.0
O108 O 0.80835 0.65784 0.76367 0.0
C109 C 0.76842 0.76182 0.29894 0.0
O110 O 0.83649 0.75325 0.28751 0.0
O111 O 0.84955 0.85073 0.51468 0.0
C112 C 0.7378 0.75233 0.18031 0.0
O113 O 0.66973 0.7609 0.19175 0.0
O114 O 0.77701 0.73542 0.06553 0.0
O115 O 0.67814 0.81337 0.90071 0.0
O116 O 0.69787 0.85632 0.71558 0.0
O117 O 0.65666 0.66343 0.96457 0.0
C118 C 0.84063 0.65318 0.64437 0.0
C119 C 0.66559 0.86098 0.83488 0.0
Zn120 Zn 0.49672 0.48947 0.83092 0.0
Zn121 Zn 0.5094 0.52467 0.14847 0.0
C122 C 0.36641 0.56313 0.85556 0.0
O123 O 0.35756 0.49902 0.81411 0.0
C124 C 0.63971 0.45101 0.12379 0.0
O125 O 0.64856 0.51512 0.16527 0.0
O126 O 0.50212 0.4645 0.62822 0.0
O127 O 0.58864 0.51441 0.85797 0.0
O128 O 0.55026 0.59381 0.04507 0.0
C129 C 0.50344 0.51369 0.56194 0.0
O130 O 0.50494 0.57707 0.62379 0.0
O131 O 0.42513 0.57477 0.87886 0.0
C132 C 0.50269 0.50044 0.41745 0.0
O133 O 0.50118 0.43706 0.35559 0.0
O134 O 0.50401 0.54964 0.35117 0.0
O135 O 0.41748 0.49973 0.12142 0.0
O136 O 0.45588 0.42034 0.93431 0.0
O137 O 0.58099 0.43937 0.1005 0.0
C138 C 0.59253 0.57115 0.93287 0.0
C139 C 0.4136 0.443 0.04651 0.0
Zn140 Zn 0.0412 0.52882 0.66036 0.0
Zn141 Zn 0.96499 0.48532 0.31893 0.0
C142 C 0.15103 0.61215 0.63891 0.0
O143 O 0.17311 0.5713 0.52045 0.0
C144 C 0.85512 0.40204 0.3403 0.0
O145 O 0.83299 0.44292 0.45871 0.0
O146 O 0.02477 0.48313 0.81555 0.0
O147 O 0.94679 0.58201 0.65081 0.0
O148 O 0.90389 0.56237 0.46564 0.0
C149 C 0.00783 0.52236 0.9303 0.0
O150 O 0.99922 0.59043 0.94166 0.0
O151 O 0.09675 0.60345 0.71449 0.0
C152 C 0.99836 0.49178 0.04898 0.0
O153 O 0.00698 0.42371 0.03763 0.0
O154 O 0.98142 0.53102 0.16374 0.0
O155 O 0.0594 0.43213 0.32848 0.0
O156 O 0.10231 0.45178 0.51364 0.0
O157 O 0.90944 0.4107 0.26479 0.0
C158 C 0.8992 0.5946 0.58497 0.0
C159 C 0.10699 0.41954 0.39432 0.0
loop_
_geom_bond_atom_site_label_1
_geom_bond_atom_site_label_2
_geom_bond_distance
_geom_bond_site_symmetry_2
_ccdc_geom_bond_type
Zn0 O6 1.969 1_545 S
Zn0 O7 1.965 1_655 S
Zn0 O11 2.024 . S
Zn0 O16 1.969 1_545 S
Zn1 O8 1.969 1_565 S
Zn1 O14 1.969 1_565 S
Zn1 O15 1.965 1_455 S
Zn1 O17 2.024 . S
C2 O3 1.229 . S
C2 O11 1.058 . S
O3 C2 1.229 . S
C4 O5 1.229 . S
C4 O17 1.058 . S
O5 C4 1.229 . S
O6 Zn0 1.969 1_565 S
O6 C9 1.267 . S
O7 Zn0 1.965 1_455 S
O7 C18 1.260 . S
O8 Zn1 1.969 1_545 S
O8 C18 1.258 . S
C9 O6 1.267 . S
C9 O10 1.228 1_665 S
O10 C9 1.228 1_445 S
O11 Zn0 2.024 . S
O11 C2 1.058 . S
C12 O13 1.228 1_445 S
C12 O14 1.267 . S
O13 C12 1.228 1_665 S
O14 Zn1 1.969 1_545 S
O14 C12 1.267 . S
O15 Zn1 1.965 1_655 S
O15 C19 1.260 . S
O16 Zn0 1.969 1_565 S
O16 C19 1.258 . S
O17 Zn1 2.024 . S
O17 C4 1.058 . S
C18 O7 1.260 . S
C18 O8 1.258 . S
C19 O15 1.260 . S
C19 O16 1.258 . S
Zn20 O26 1.969 1_556 S
Zn20 O27 1.965 . S
Zn20 O31 2.024 . S
Zn20 O36 1.969 . S
Zn21 O28 1.969 . S
Zn21 O34 1.969 . S
Zn21 O35 1.965 . S
Zn21 O37 2.024 . S
C22 O23 1.229 . S
C22 O31 1.058 . S
O23 C22 1.229 . S
C24 O25 1.229 . S
C24 O37 1.058 . S
O25 C24 1.229 . S
O26 Zn20 1.969 1_554 S
O26 C29 1.267 . S
O27 Zn20 1.965 . S
O27 C38 1.260 . S
O28 Zn21 1.969 . S
O28 C38 1.258 . S
C29 O26 1.267 . S
C29 O30 1.228 . S
O30 C29 1.228 . S
O31 Zn20 2.024 . S
O31 C22 1.058 . S
C32 O33 1.228 . S
C32 O34 1.267 . S
O33 C32 1.228 . S
O34 Zn21 1.969 . S
O34 C32 1.267 . S
O35 Zn21 1.965 . S
O35 C39 1.260 . S
O36 Zn20 1.969 . S
O36 C39 1.258 . S
O37 Zn21 2.024 . S
O37 C24 1.058 . S
C38 O27 1.260 . S
C38 O28 1.258 . S
C39 O35 1.260 . S
C39 O36 1.258 . S
Zn40 O46 1.969 1_545 S
Zn40 O47 1.965 . S
Zn40 O51 2.024 . S
Zn40 O56 1.969 1_545 S
Zn41 O48 1.969 1_565 S
Zn41 O54 1.969 1_565 S
Zn41 O55 1.965 . S
Zn41 O57 2.024 . S
C42 O43 1.229 . S
C42 O51 1.058 . S
O43 C42 1.229 . S
C44 O45 1.229 . S
C44 O57 1.058 . S
O45 C44 1.229 . S
O46 Zn40 1.969 1_565 S
O46 C49 1.267 1_565 S
O47 Zn40 1.965 . S
O47 C58 1.260 . S
O48 Zn41 1.969 1_545 S
O48 C58 1.258 1_556 S
C49 O46 1.267 1_545 S
C49 O50 1.228 . S
O50 C49 1.228 . S
O51 Zn40 2.024 . S
O51 C42 1.058 . S
C52 O53 1.228 . S
C52 O54 1.267 1_565 S
O53 C52 1.228 . S
O54 Zn41 1.969 1_545 S
O54 C52 1.267 1_545 S
O55 Zn41 1.965 . S
O55 C59 1.260 . S
O56 Zn40 1.969 1_565 S
O56 C59 1.258 1_554 S
O57 Zn41 2.024 . S
O57 C44 1.058 . S
C58 O47 1.260 . S
C58 O48 1.258 1_554 S
C59 O55 1.260 . S
C59 O56 1.258 1_556 S
Zn60 O66 1.969 1_554 S
Zn60 O67 1.965 . S
Zn60 O71 2.024 . S
Zn60 O76 1.969 . S
Zn61 O68 1.969 . S
Zn61 O74 1.969 . S
Zn61 O75 1.965 . S
Zn61 O77 2.024 . S
C62 O63 1.229 . S
C62 O71 1.058 . S
O63 C62 1.229 . S
C64 O65 1.229 . S
C64 O77 1.058 . S
O65 C64 1.229 . S
O66 Zn60 1.969 1_556 S
O66 C69 1.267 . S
O67 Zn60 1.965 . S
O67 C78 1.260 . S
O68 Zn61 1.969 . S
O68 C78 1.258 . S
C69 O66 1.267 . S
C69 O70 1.228 . S
O70 C69 1.228 . S
O71 Zn60 2.024 . S
O71 C62 1.058 . S
C72 O73 1.228 . S
C72 O74 1.267 . S
O73 C72 1.228 . S
O74 Zn61 1.969 . S
O74 C72 1.267 . S
O75 Zn61 1.965 . S
O75 C79 1.260 . S
O76 Zn60 1.969 . S
O76 C79 1.258 . S
O77 Zn61 2.024 . S
O77 C64 1.058 . S
C78 O67 1.260 . S
C78 O68 1.258 . S
C79 O75 1.260 . S
C79 O76 1.258 . S
Zn80 O86 1.969 . S
Zn80 O87 1.965 . S
Zn80 O91 2.024 . S
Zn80 O96 1.969 . S
Zn81 O88 1.969 . S
Zn81 O94 1.969 1_554 S
Zn81 O95 1.965 . S
Zn81 O97 2.024 . S
C82 O83 1.229 . S
C82 O91 1.058 . S
O83 C82 1.229 . S
C84 O85 1.229 . S
C84 O97 1.058 . S
O85 C84 1.229 . S
O86 Zn80 1.969 . S
O86 C89 1.267 . S
O87 Zn80 1.965 . S
O87 C98 1.260 . S
O88 Zn81 1.969 . S
O88 C98 1.258 . S
C89 O86 1.267 . S
C89 O90 1.228 . S
O90 C89 1.228 . S
O91 Zn80 2.024 . S
O91 C82 1.058 . S
C92 O93 1.228 . S
C92 O94 1.267 . S
O93 C92 1.228 . S
O94 Zn81 1.969 1_556 S
O94 C92 1.267 . S
O95 Zn81 1.965 . S
O95 C99 1.260 . S
O96 Zn80 1.969 . S
O96 C99 1.258 . S
O97 Zn81 2.024 . S
O97 C84 1.058 . S
C98 O87 1.260 . S
C98 O88 1.258 . S
C99 O95 1.260 . S
C99 O96 1.258 . S
Zn100 O106 1.969 . S
Zn100 O107 1.965 . S
Zn100 O111 2.024 . S
Zn100 O116 1.969 . S
Zn101 O108 1.969 . S
Zn101 O114 1.969 1_556 S
Zn101 O115 1.965 . S
Zn101 O117 2.024 . S
C102 O103 1.229 . S
C102 O111 1.058 . S
O103 C102 1.229 . S
C104 O105 1.229 . S
C104 O117 1.058 . S
O105 C104 1.229 . S
O106 Zn100 1.969 . S
O106 C109 1.267 . S
O107 Zn100 1.965 . S
O107 C118 1.260 . S
O108 Zn101 1.969 . S
O108 C118 1.258 . S
C109 O106 1.267 . S
C109 O110 1.228 . S
O110 C109 1.228 . S
O111 Zn100 2.024 . S
O111 C102 1.058 . S
C112 O113 1.228 . S
C112 O114 1.267 . S
O113 C112 1.228 . S
O114 Zn101 1.969 1_554 S
O114 C112 1.267 . S
O115 Zn101 1.965 . S
O115 C119 1.260 . S
O116 Zn100 1.969 . S
O116 C119 1.258 . S
O117 Zn101 2.024 . S
O117 C104 1.058 . S
C118 O107 1.260 . S
C118 O108 1.258 . S
C119 O115 1.260 . S
C119 O116 1.258 . S
Zn120 O126 1.969 . S
Zn120 O127 1.965 . S
Zn120 O131 2.024 . S
Zn120 O136 1.969 . S
Zn121 O128 1.969 . S
Zn121 O134 1.969 . S
Zn121 O135 1.965 . S
Zn121 O137 2.024 . S
C122 O123 1.229 . S
C122 O131 1.058 . S
O123 C122 1.229 . S
C124 O125 1.229 . S
C124 O137 1.058 . S
O125 C124 1.229 . S
O126 Zn120 1.969 . S
O126 C129 1.267 . S
O127 Zn120 1.965 . S
O127 C138 1.260 . S
O128 Zn121 1.969 . S
O128 C138 1.258 1_554 S
C129 O126 1.267 . S
C129 O130 1.228 . S
O130 C129 1.228 . S
O131 Zn120 2.024 . S
O131 C122 1.058 . S
C132 O133 1.228 . S
C132 O134 1.267 . S
O133 C132 1.228 . S
O134 Zn121 1.969 . S
O134 C132 1.267 . S
O135 Zn121 1.965 . S
O135 C139 1.260 . S
O136 Zn120 1.969 . S
O136 C139 1.258 1_556 S
O137 Zn121 2.024 . S
O137 C124 1.058 . S
C138 O127 1.260 . S
C138 O128 1.258 1_556 S
C139 O135 1.260 . S
C139 O136 1.258 1_554 S
Zn140 O146 1.969 . S
Zn140 O147 1.965 1_455 S
Zn140 O151 2.024 . S
Zn140 O156 1.969 . S
Zn141 O148 1.969 . S
Zn141 O154 1.969 . S
Zn141 O155 1.965 1_655 S
Zn141 O157 2.024 . S
C142 O143 1.229 . S
C142 O151 1.058 . S
O143 C142 1.229 . S
C144 O145 1.229 . S
C144 O157 1.058 . S
O145 C144 1.229 . S
O146 Zn140 1.969 . S
O146 C149 1.267 . S
O147 Zn140 1.965 1_655 S
O147 C158 1.260 . S
O148 Zn141 1.969 . S
O148 C158 1.258 . S
C149 O146 1.267 . S
C149 O150 1.228 1_455 S
O150 C149 1.228 1_655 S
O151 Zn140 2.024 . S
O151 C142 1.058 . S
C152 O153 1.228 1_655 S
C152 O154 1.267 . S
O153 C152 1.228 1_455 S
O154 Zn141 1.969 . S
O154 C152 1.267 . S
O155 Zn141 1.965 1_455 S
O155 C159 1.260 . S
O156 Zn140 1.969 . S
O156 C159 1.258 . S
O157 Zn141 2.024 . S
O157 C144 1.058 . S
C158 O147 1.260 . S
C158 O148 1.258 . S
C159 O155 1.260 . S
C159 O156 1.258 . S
C18 C64 1.397 . S
C4 C24 0.280 . S
C38 C44 1.400 . S
C58 C78 2.795 . S
C19 C102 1.401 . S
C2 C82 0.280 . S
C99 C42 1.398 . S
C119 C59 2.797 . S
C138 C104 1.399 . S
C84 C124 0.280 . S
C144 C98 1.400 . S
C118 C158 2.797 . S
C62 C139 1.399 . S
C122 C22 0.280 . S
C39 C142 1.398 . S
C79 C159 2.795 . S
C12 C9 1.282 1_446 S
C32 C29 1.282 . S
C52 C49 1.807 1_565 S
C69 C72 1.807 . S
C92 C89 1.281 . S
C109 C112 1.807 . S
C129 C132 1.282 . S
C149 C152 1.807 1_456 S
