# Generated by pormake.
# Topology bsn, (6)-cn, num edge types: 1
# Building blocks:
#     Node 0, Type 0, BuildingBlock: PAMTOO_clean_sbu_0, # of connection points: 6
#     Node 1, Type 0, BuildingBlock: PAMTOO_clean_sbu_0, # of connection points: 6
#     Node 2, Type 0, BuildingBlock: PAMTOO_clean_sbu_0, # of connection points: 6
#     Node 3, Type 0, BuildingBlock: PAMTOO_clean_sbu_0, # of connection points: 6
#     Edge 4, Type (0, 0), None
#     Edge 5, Type (0, 0), None
#     Edge 6, Type (0, 0), None
#     Edge 7, Type (0, 0), None
#     Edge 8, Type (0, 0), None
#     Edge 9, Type (0, 0), None
#     Edge 10, Type (0, 0), None
#     Edge 11, Type (0, 0), None
#     Edge 12, Type (0, 0), None
#     Edge 13, Type (0, 0), None
#     Edge 14, Type (0, 0), None
#     Edge 15, Type (0, 0), None
# Relax obj value: 0.012
# Max RMSD: 0.133
# Mean RMSD: 0.133
data_MOF--net-bsn--node1-PAMTOO_clean_sbu_0--edge1-none
_symmetry_space_group_name_H-M    P1
_symmetry_Int_Tables_number       1
_symmetry_cell_setting            triclinic
loop_
_symmetry_equiv_pos_as_xyz
'x, y, z'
_cell_length_a     34.76356
_cell_length_b     13.797456
_cell_length_c     6.0758154
_cell_angle_alpha  88.311818
_cell_angle_beta   96.612588
_cell_angle_gamma 114.71586
loop_
_atom_site_label
_atom_site_type_symbol
_atom_site_fract_x
_atom_site_fract_y
_atom_site_fract_z
_atom_type_partial_charge
Dy0 Dy 0.15209 0.28313 0.50597 0.0
Dy1 Dy 1.02961 0.15891 0.40873 0.0
C2 C 0.07918 0.21222 0.05482 0.0
O3 O 0.12808 0.4129 0.52042 0.0
O4 O 0.05304 0.33698 0.40923 0.0
O5 O 0.19416 0.32723 0.24838 0.0
O6 O 0.2204 0.35362 0.59535 0.0
O7 O 0.0847 0.20706 0.6609 0.0
O8 O 0.14379 0.26961 0.87077 0.0
O9 O 0.05249 0.02863 0.45178 0.0
O10 O 0.12841 0.10464 0.50691 0.0
O11 O 0.98407 0.1574 0.62421 0.0
O12 O 0.96424 0.04526 0.34422 0.0
C13 C 0.09014 0.41749 0.47638 0.0
O14 O 0.09645 0.23147 0.25831 0.0
O15 O 0.03795 0.17268 0.04491 0.0
C16 C 0.25985 0.30924 0.34732 0.0
C17 C 0.32253 0.23593 0.26268 0.0
C18 C 0.28979 0.23084 0.09662 0.0
C19 C 0.25907 0.26718 0.13791 0.0
C20 C 0.29228 0.31392 0.51367 0.0
C21 C 0.32292 0.27721 0.47291 0.0
C22 C 0.22844 0.35261 0.39016 0.0
C23 C 0.10248 0.22753 0.86341 0.0
C24 C 0.09007 0.02311 0.4831 0.0
C25 C 0.91727 0.12218 0.4174 0.0
C26 C 0.85502 0.19731 0.26494 0.0
C27 C 0.8742 0.21672 0.48546 0.0
C28 C 0.90495 0.17924 0.56097 0.0
C29 C 0.89768 0.10191 0.19753 0.0
C30 C 0.86687 0.13892 0.12258 0.0
C31 C 0.95199 0.08939 0.49383 0.0
H32 H 0.28813 0.2004 0.93227 0.0
H33 H 0.23491 0.26305 0.00442 0.0
H34 H 0.29414 0.34664 0.67618 0.0
H35 H 0.34669 0.2806 0.6079 0.0
H36 H 0.86533 0.26053 0.59986 0.0
H37 H 0.91964 0.19639 0.73075 0.0
H38 H 0.90657 0.05901 0.08133 0.0
H39 H 0.85275 0.12313 0.95174 0.0
Dy40 Dy 0.14947 0.7804 0.5697 0.0
Dy41 Dy 1.02699 0.6562 0.47246 0.0
C42 C 0.07661 0.71185 0.11501 0.0
O43 O 0.12659 0.91069 0.52666 0.0
O44 O 0.05067 0.83468 0.47158 0.0
O45 O 0.19501 0.7819 0.35424 0.0
O46 O 0.21484 0.89404 0.63421 0.0
O47 O 0.08263 0.70785 0.72011 0.0
O48 O 0.14113 0.76664 0.93352 0.0
O49 O 0.051 0.52642 0.45796 0.0
O50 O 0.12604 0.60233 0.5692 0.0
O51 O 0.98491 0.61206 0.73004 0.0
O52 O 0.95869 0.58573 0.38306 0.0
C53 C 0.08902 0.91621 0.49539 0.0
O54 O 0.09439 0.73228 0.31753 0.0
O55 O 1.03529 0.66973 0.10767 0.0
C56 C 0.2618 0.8171 0.56108 0.0
C57 C 0.32405 0.74194 0.71358 0.0
C58 C 0.30487 0.72253 0.49305 0.0
C59 C 0.27412 0.76003 0.41752 0.0
C60 C 0.28139 0.83736 0.78095 0.0
C61 C 0.31219 0.80033 0.85593 0.0
C62 C 0.2271 0.84991 0.48462 0.0
C63 C 0.0999 0.72714 0.92361 0.0
C64 C 0.08894 0.52183 0.502 0.0
C65 C 0.91923 0.63005 0.63115 0.0
C66 C 0.85654 0.70331 0.7159 0.0
C67 C 0.88929 0.70844 0.8819 0.0
C68 C 0.92001 0.67213 0.84057 0.0
C69 C 0.88678 0.62534 0.46486 0.0
C70 C 0.85614 0.66201 0.50566 0.0
C71 C 0.95064 0.5867 0.58825 0.0
H72 H 0.31375 0.67872 0.37866 0.0
H73 H 0.25944 0.74288 0.24773 0.0
H74 H 0.2725 0.88025 0.89714 0.0
H75 H 0.32631 0.81611 0.02678 0.0
H76 H 0.89096 0.73889 0.04625 0.0
H77 H 0.94418 0.67629 0.97401 0.0
H78 H 0.88492 0.5926 0.30234 0.0
H79 H 0.83236 0.65859 0.37071 0.0
Dy80 Dy 0.65202 0.78296 0.00899 0.0
Dy81 Dy 0.52945 0.6583 0.91234 0.0
C82 C 0.57916 0.71207 0.55788 0.0
O83 O 0.62801 0.91279 0.02021 0.0
O84 O 0.5527 0.83637 0.91553 0.0
O85 O 0.69412 0.82765 0.75212 0.0
O86 O 0.72038 0.85229 0.09968 0.0
O87 O 0.58473 0.70744 0.16355 0.0
O88 O 0.64377 0.77032 0.37374 0.0
O89 O 0.55234 0.52803 0.94912 0.0
O90 O 0.62826 0.60454 0.01048 0.0
O91 O 0.48439 0.64491 0.14061 0.0
O92 O 0.46325 0.55278 0.8298 0.0
C93 C 0.59002 0.91724 0.97796 0.0
O94 O 0.59643 0.73109 0.76131 0.0
O95 O 0.53795 0.67224 0.54841 0.0
C96 C 0.75998 0.81114 0.85001 0.0
C97 C 0.82305 0.74025 0.76222 0.0
C98 C 0.78109 0.6922 0.65395 0.0
C99 C 0.75007 0.72746 0.69639 0.0
C100 C 0.80141 0.8579 0.96067 0.0
C101 C 0.83254 0.82369 0.91674 0.0
C102 C 0.72837 0.85303 0.89399 0.0
C103 C 0.60246 0.72799 0.36622 0.0
C104 C 0.58997 0.5229 0.98351 0.0
C105 C 0.41796 0.62421 0.94492 0.0
C106 C 0.35611 0.70087 0.79612 0.0
C107 C 0.39359 0.76608 0.92862 0.0
C108 C 0.42434 0.72839 0.0014 0.0
C109 C 0.38002 0.55812 0.81781 0.0
C110 C 0.34948 0.59624 0.74301 0.0
C111 C 0.45185 0.58657 -0.00048 0.0
H112 H 0.77184 0.62624 0.53771 0.0
H113 H 0.71832 0.68894 0.60907 0.0
H114 H 0.80977 0.92173 0.08112 0.0
H115 H 0.86427 0.86413 0.00252 0.0
H116 H 0.39967 0.84729 0.971 0.0
H117 H 0.45347 0.78179 0.09729 0.0
H118 H 0.37453 0.47774 0.77203 0.0
H119 H 0.32064 0.54402 0.64349 0.0
Dy120 Dy 0.64959 0.28086 0.06635 0.0
Dy121 Dy 0.52702 0.1562 0.9697 0.0
C122 C 0.57659 0.21122 0.61246 0.0
O123 O 0.6267 0.41113 0.02961 0.0
O124 O 0.55078 0.33462 0.96824 0.0
O125 O 0.69465 0.29427 0.83805 0.0
O126 O 0.7158 0.38639 0.14888 0.0
O127 O 0.58262 0.20807 0.21737 0.0
O128 O 0.6411 0.26693 0.43028 0.0
O129 O 0.55104 0.02637 0.95845 0.0
O130 O 0.62635 0.1028 0.06314 0.0
O131 O 0.48493 0.1115 0.22657 0.0
O132 O 0.45867 0.08686 0.87901 0.0
C133 C 0.58907 0.41626 -0.00476 0.0
O134 O 0.59431 0.23174 0.81513 0.0
O135 O 0.53528 0.16885 0.60495 0.0
C136 C 0.76109 0.31498 0.0337 0.0
C137 C 0.82295 0.23835 0.18243 0.0
C138 C 0.78546 0.17313 0.05001 0.0
C139 C 0.7547 0.2108 0.97726 0.0
C140 C 0.79903 0.3811 0.16072 0.0
C141 C 0.82959 0.34299 0.23549 0.0
C142 C 0.7272 0.35261 0.97914 0.0
C143 C 0.59989 0.22712 0.4208 0.0
C144 C 0.58903 0.02193 0.00069 0.0
C145 C 0.41907 0.12802 0.12868 0.0
C146 C 0.35601 0.19895 0.21641 0.0
C147 C 0.39797 0.24695 0.32479 0.0
C148 C 0.42898 0.21167 0.28237 0.0
C149 C 0.37765 0.08131 0.01793 0.0
C150 C 0.34652 0.11554 0.06182 0.0
C151 C 0.45068 0.08612 0.0847 0.0
H152 H 0.77938 0.09191 0.00767 0.0
H153 H 0.72557 0.15738 0.88144 0.0
H154 H 0.80453 0.46149 0.20646 0.0
H155 H 0.85843 0.39522 0.33495 0.0
H156 H 0.40722 0.31289 0.44107 0.0
H157 H 0.46072 0.25016 0.36976 0.0
H158 H 0.36929 0.01751 0.89742 0.0
H159 H 0.3148 0.07513 0.97597 0.0
loop_
_geom_bond_atom_site_label_1
_geom_bond_atom_site_label_2
_geom_bond_distance
_geom_bond_site_symmetry_2
_ccdc_geom_bond_type
Dy0 O3 2.307 . S
Dy0 O5 2.395 . S
Dy0 O6 2.379 . S
Dy0 O8 2.339 . S
Dy0 O10 2.298 . S
Dy0 O14 2.275 . S
Dy0 C22 2.738 . S
Dy1 O4 2.298 1_655 S
Dy1 O7 2.275 1_655 S
Dy1 O9 2.307 1_655 S
Dy1 O11 2.395 . S
Dy1 O12 2.379 . S
Dy1 O15 2.339 1_654 S
Dy1 C31 2.738 . S
C2 O14 1.254 1_556 S
C2 O15 1.257 . S
O3 Dy0 2.307 . S
O3 C13 1.266 . S
O4 Dy1 2.298 1_455 S
O4 C13 1.236 . S
O5 Dy0 2.395 . S
O5 C22 1.255 . S
O6 Dy0 2.379 . S
O6 C22 1.249 . S
O7 Dy1 2.275 1_455 S
O7 C23 1.254 . S
O8 Dy0 2.339 . S
O8 C23 1.257 . S
O9 Dy1 2.307 1_455 S
O9 C24 1.266 . S
O10 Dy0 2.298 . S
O10 C24 1.236 . S
O11 Dy1 2.395 . S
O11 C31 1.255 . S
O12 Dy1 2.379 . S
O12 C31 1.249 . S
C13 O3 1.266 . S
C13 O4 1.236 . S
O14 Dy0 2.275 . S
O14 C2 1.254 1_554 S
O15 Dy1 2.339 1_456 S
O15 C2 1.257 . S
C16 C19 1.344 . S
C16 C20 1.328 . S
C16 C22 1.516 . S
C17 C18 1.304 . S
C17 C21 1.323 . S
C18 C17 1.304 . S
C18 C19 1.371 . S
C18 H32 0.930 . S
C19 C16 1.344 . S
C19 C18 1.371 . S
C19 H33 0.931 . S
C20 C16 1.328 . S
C20 C21 1.433 . S
C20 H34 0.931 . S
C21 C17 1.323 . S
C21 C20 1.433 . S
C21 H35 0.933 . S
C22 Dy0 2.738 . S
C22 O5 1.255 . S
C22 O6 1.249 . S
C22 C16 1.516 . S
C23 O7 1.254 . S
C23 O8 1.257 . S
C24 O9 1.266 . S
C24 O10 1.236 . S
C25 C28 1.344 . S
C25 C29 1.328 . S
C25 C31 1.516 . S
C26 C27 1.304 . S
C26 C30 1.323 . S
C27 C26 1.304 . S
C27 C28 1.371 . S
C27 H36 0.930 . S
C28 C25 1.344 . S
C28 C27 1.371 . S
C28 H37 0.931 . S
C29 C25 1.328 . S
C29 C30 1.433 . S
C29 H38 0.931 . S
C30 C26 1.323 . S
C30 C29 1.433 . S
C30 H39 0.933 . S
C31 Dy1 2.738 . S
C31 O11 1.255 . S
C31 O12 1.249 . S
C31 C25 1.516 . S
H32 C18 0.930 . S
H33 C19 0.931 . S
H34 C20 0.931 . S
H35 C21 0.933 . S
H36 C27 0.930 . S
H37 C28 0.931 . S
H38 C29 0.931 . S
H39 C30 0.933 . S
Dy40 O43 2.307 . S
Dy40 O45 2.395 . S
Dy40 O46 2.379 . S
Dy40 O48 2.339 1_556 S
Dy40 O50 2.298 . S
Dy40 O54 2.275 . S
Dy40 C62 2.738 . S
Dy41 O44 2.298 1_655 S
Dy41 O47 2.275 1_655 S
Dy41 O49 2.307 1_655 S
Dy41 O51 2.395 . S
Dy41 O52 2.379 . S
Dy41 O55 2.339 1_655 S
Dy41 C71 2.738 . S
C42 O54 1.254 . S
C42 O55 1.257 . S
O43 Dy40 2.307 . S
O43 C53 1.266 . S
O44 Dy41 2.298 1_455 S
O44 C53 1.236 . S
O45 Dy40 2.395 . S
O45 C62 1.255 . S
O46 Dy40 2.379 . S
O46 C62 1.249 . S
O47 Dy41 2.275 1_455 S
O47 C63 1.254 1_556 S
O48 Dy40 2.339 1_554 S
O48 C63 1.257 . S
O49 Dy41 2.307 1_455 S
O49 C64 1.266 . S
O50 Dy40 2.298 . S
O50 C64 1.236 . S
O51 Dy41 2.395 . S
O51 C71 1.255 . S
O52 Dy41 2.379 . S
O52 C71 1.249 . S
C53 O43 1.266 . S
C53 O44 1.236 . S
O54 Dy40 2.275 . S
O54 C42 1.254 . S
O55 Dy41 2.339 1_455 S
O55 C42 1.257 . S
C56 C59 1.344 . S
C56 C60 1.328 . S
C56 C62 1.516 . S
C57 C58 1.304 . S
C57 C61 1.323 . S
C58 C57 1.304 . S
C58 C59 1.371 . S
C58 H72 0.930 . S
C59 C56 1.344 . S
C59 C58 1.371 . S
C59 H73 0.931 . S
C60 C56 1.328 . S
C60 C61 1.433 . S
C60 H74 0.931 . S
C61 C57 1.323 . S
C61 C60 1.433 . S
C61 H75 0.933 . S
C62 Dy40 2.738 . S
C62 O45 1.255 . S
C62 O46 1.249 . S
C62 C56 1.516 . S
C63 O47 1.254 1_554 S
C63 O48 1.257 . S
C64 O49 1.266 . S
C64 O50 1.236 . S
C65 C68 1.344 . S
C65 C69 1.328 . S
C65 C71 1.516 . S
C66 C67 1.304 . S
C66 C70 1.323 . S
C67 C66 1.304 . S
C67 C68 1.371 . S
C67 H76 0.930 . S
C68 C65 1.344 . S
C68 C67 1.371 . S
C68 H77 0.931 . S
C69 C65 1.328 . S
C69 C70 1.433 . S
C69 H78 0.931 . S
C70 C66 1.323 . S
C70 C69 1.433 . S
C70 H79 0.933 . S
C71 Dy41 2.738 . S
C71 O51 1.255 . S
C71 O52 1.249 . S
C71 C65 1.516 . S
H72 C58 0.930 . S
H73 C59 0.931 . S
H74 C60 0.931 . S
H75 C61 0.933 . S
H76 C67 0.930 . S
H77 C68 0.931 . S
H78 C69 0.931 . S
H79 C70 0.933 . S
Dy80 O83 2.307 . S
Dy80 O85 2.395 . S
Dy80 O86 2.379 1_556 S
Dy80 O88 2.339 1_556 S
Dy80 O90 2.298 . S
Dy80 O94 2.275 . S
Dy80 C102 2.738 . S
Dy81 O84 2.298 . S
Dy81 O87 2.275 1_556 S
Dy81 O89 2.307 . S
Dy81 O91 2.395 1_556 S
Dy81 O92 2.379 . S
Dy81 O95 2.339 . S
Dy81 C111 2.738 . S
C82 O94 1.254 . S
C82 O95 1.257 . S
O83 Dy80 2.307 . S
O83 C93 1.266 . S
O84 Dy81 2.298 . S
O84 C93 1.236 . S
O85 Dy80 2.395 . S
O85 C102 1.255 . S
O86 Dy80 2.379 1_554 S
O86 C102 1.249 1_554 S
O87 Dy81 2.275 1_554 S
O87 C103 1.254 . S
O88 Dy80 2.339 1_554 S
O88 C103 1.257 . S
O89 Dy81 2.307 . S
O89 C104 1.266 . S
O90 Dy80 2.298 . S
O90 C104 1.236 . S
O91 Dy81 2.395 1_554 S
O91 C111 1.255 1_554 S
O92 Dy81 2.379 . S
O92 C111 1.249 . S
C93 O83 1.266 . S
C93 O84 1.236 . S
O94 Dy80 2.275 . S
O94 C82 1.254 . S
O95 Dy81 2.339 . S
O95 C82 1.257 . S
C96 C99 1.344 . S
C96 C100 1.328 1_556 S
C96 C102 1.516 . S
C97 C98 1.304 . S
C97 C101 1.323 1_556 S
C98 C97 1.304 . S
C98 C99 1.371 . S
C98 H112 0.930 . S
C99 C96 1.344 . S
C99 C98 1.371 . S
C99 H113 0.931 . S
C100 C96 1.328 1_554 S
C100 C101 1.433 . S
C100 H114 0.931 . S
C101 C97 1.323 1_554 S
C101 C100 1.433 . S
C101 H115 0.933 . S
C102 Dy80 2.738 . S
C102 O85 1.255 . S
C102 O86 1.249 1_556 S
C102 C96 1.516 . S
C103 O87 1.254 . S
C103 O88 1.257 . S
C104 O89 1.266 . S
C104 O90 1.236 . S
C105 C108 1.344 1_556 S
C105 C109 1.328 . S
C105 C111 1.516 . S
C106 C107 1.304 1_556 S
C106 C110 1.323 . S
C107 C106 1.304 1_554 S
C107 C108 1.371 . S
C107 H116 0.930 . S
C108 C105 1.344 1_554 S
C108 C107 1.371 . S
C108 H117 0.931 . S
C109 C105 1.328 . S
C109 C110 1.433 . S
C109 H118 0.931 . S
C110 C106 1.323 . S
C110 C109 1.433 . S
C110 H119 0.933 . S
C111 Dy81 2.738 . S
C111 O91 1.255 1_556 S
C111 O92 1.249 . S
C111 C105 1.516 . S
H112 C98 0.930 . S
H113 C99 0.931 . S
H114 C100 0.931 . S
H115 C101 0.933 . S
H116 C107 0.930 . S
H117 C108 0.931 . S
H118 C109 0.931 . S
H119 C110 0.933 . S
Dy120 O123 2.307 . S
Dy120 O125 2.395 1_554 S
Dy120 O126 2.379 . S
Dy120 O128 2.339 . S
Dy120 O130 2.298 . S
Dy120 O134 2.275 1_554 S
Dy120 C142 2.738 . S
Dy121 O124 2.298 . S
Dy121 O127 2.275 . S
Dy121 O129 2.307 . S
Dy121 O131 2.395 . S
Dy121 O132 2.379 1_554 S
Dy121 O135 2.339 1_554 S
Dy121 C151 2.738 . S
C122 O134 1.254 . S
C122 O135 1.257 . S
O123 Dy120 2.307 . S
O123 C133 1.266 . S
O124 Dy121 2.298 . S
O124 C133 1.236 . S
O125 Dy120 2.395 1_556 S
O125 C142 1.255 1_556 S
O126 Dy120 2.379 . S
O126 C142 1.249 . S
O127 Dy121 2.275 . S
O127 C143 1.254 . S
O128 Dy120 2.339 . S
O128 C143 1.257 . S
O129 Dy121 2.307 . S
O129 C144 1.266 . S
O130 Dy120 2.298 . S
O130 C144 1.236 . S
O131 Dy121 2.395 . S
O131 C151 1.255 . S
O132 Dy121 2.379 1_556 S
O132 C151 1.249 1_556 S
C133 O123 1.266 . S
C133 O124 1.236 . S
O134 Dy120 2.275 1_556 S
O134 C122 1.254 . S
O135 Dy121 2.339 1_556 S
O135 C122 1.257 . S
C136 C139 1.344 1_554 S
C136 C140 1.328 . S
C136 C142 1.516 . S
C137 C138 1.304 1_554 S
C137 C141 1.323 . S
C138 C137 1.304 1_556 S
C138 C139 1.371 . S
C138 H152 0.930 . S
C139 C136 1.344 1_556 S
C139 C138 1.371 . S
C139 H153 0.931 . S
C140 C136 1.328 . S
C140 C141 1.433 . S
C140 H154 0.931 . S
C141 C137 1.323 . S
C141 C140 1.433 . S
C141 H155 0.933 . S
C142 Dy120 2.738 . S
C142 O125 1.255 1_554 S
C142 O126 1.249 . S
C142 C136 1.516 . S
C143 O127 1.254 . S
C143 O128 1.257 . S
C144 O129 1.266 . S
C144 O130 1.236 . S
C145 C148 1.344 . S
C145 C149 1.328 1_554 S
C145 C151 1.516 . S
C146 C147 1.304 . S
C146 C150 1.323 1_554 S
C147 C146 1.304 . S
C147 C148 1.371 . S
C147 H156 0.930 . S
C148 C145 1.344 . S
C148 C147 1.371 . S
C148 H157 0.931 . S
C149 C145 1.328 1_556 S
C149 C150 1.433 . S
C149 H158 0.931 . S
C150 C146 1.323 1_556 S
C150 C149 1.433 . S
C150 H159 0.933 . S
C151 Dy121 2.738 . S
C151 O131 1.255 . S
C151 O132 1.249 1_554 S
C151 C145 1.516 . S
H152 C138 0.930 . S
H153 C139 0.931 . S
H154 C140 0.931 . S
H155 C141 0.933 . S
H156 C147 0.930 . S
H157 C148 0.931 . S
H158 C149 0.931 . S
H159 C150 0.933 . S
C13 C64 2.281 . S
C97 C66 2.076 . S
C133 C104 1.860 1_554 S
C26 C137 2.147 . S
C146 C17 2.076 . S
C106 C57 2.148 . S
C93 C144 2.281 1_566 S
C53 C24 1.859 1_565 S
C2 C23 1.032 . S
C63 C42 1.032 . S
C103 C82 1.032 . S
C143 C122 1.032 . S
