# Generated by pormake.
# Topology dmp, (4)-cn, num edge types: 1
# Building blocks:
#     Node 0, Type 0, BuildingBlock: CEKHIL_clean_sbu_0, # of connection points: 4
#     Node 1, Type 0, BuildingBlock: CEKHIL_clean_sbu_0, # of connection points: 4
#     Node 2, Type 0, BuildingBlock: CEKHIL_clean_sbu_0, # of connection points: 4
#     Node 3, Type 0, BuildingBlock: CEKHIL_clean_sbu_0, # of connection points: 4
#     Edge 4, Type (0, 0), BuildingBlock: EYOCIG_clean_linker_4, # of connection points: 2
#     Edge 5, Type (0, 0), BuildingBlock: EYOCIG_clean_linker_4, # of connection points: 2
#     Edge 6, Type (0, 0), BuildingBlock: EYOCIG_clean_linker_4, # of connection points: 2
#     Edge 7, Type (0, 0), BuildingBlock: EYOCIG_clean_linker_4, # of connection points: 2
#     Edge 8, Type (0, 0), BuildingBlock: EYOCIG_clean_linker_4, # of connection points: 2
#     Edge 9, Type (0, 0), BuildingBlock: EYOCIG_clean_linker_4, # of connection points: 2
#     Edge 10, Type (0, 0), BuildingBlock: EYOCIG_clean_linker_4, # of connection points: 2
#     Edge 11, Type (0, 0), BuildingBlock: EYOCIG_clean_linker_4, # of connection points: 2
# Relax obj value: 0.087
# Max RMSD: 0.195
# Mean RMSD: 0.195
data_MOF--net-dmp--node1-CEKHIL_clean_sbu_0--edge1-EYOCIG_clean_linker_4
_symmetry_space_group_name_H-M    P1
_symmetry_Int_Tables_number       1
_symmetry_cell_setting            triclinic
loop_
_symmetry_equiv_pos_as_xyz
'x, y, z'
_cell_length_a     29.793772
_cell_length_b     15.742661
_cell_length_c     11.493927
_cell_angle_alpha  90.023368
_cell_angle_beta   89.97929
_cell_angle_gamma 92.115977
loop_
_atom_site_label
_atom_site_type_symbol
_atom_site_fract_x
_atom_site_fract_y
_atom_site_fract_z
_atom_type_partial_charge
Co0 Co 0.11352 0.2189 0.26984 0.0
O1 O 0.06943 0.30482 0.2607 0.0
O2 O 0.10445 0.26796 0.42241 0.0
C3 C 0.07477 0.1206 0.16299 0.0
O4 O 0.16055 0.13291 0.31211 0.0
Co5 Co 0.15967 0.16018 0.0418 0.0
O6 O 0.19056 0.08188 0.14708 0.0
C7 C 0.19113 0.31925 0.1549 0.0
C8 C 0.07583 0.31591 0.37113 0.0
C9 C 0.18762 0.08507 0.25743 0.0
O10 O 0.16322 0.30639 0.23875 0.0
O11 O 0.19307 0.27201 0.06474 0.0
O12 O 0.06628 0.12913 0.27303 0.0
O13 O 0.10292 0.17592 0.11895 0.0
Co14 Co 0.429 0.72672 0.27253 0.0
O15 O 0.47324 0.64101 0.26495 0.0
O16 O 0.43768 0.6785 0.4257 0.0
C17 C 0.46791 0.82463 0.16544 0.0
O18 O 0.38174 0.81266 0.31329 0.0
Co19 Co 0.38331 0.78406 0.04344 0.0
O20 O 0.35205 0.86282 0.14747 0.0
C21 C 0.35215 0.62492 0.15661 0.0
C22 C 0.46648 0.63039 0.37534 0.0
C23 C 0.35475 0.86017 0.25789 0.0
O24 O 0.37956 0.63872 0.24127 0.0
O25 O 0.35045 0.67164 0.06596 0.0
O26 O 0.4761 0.81676 0.27572 0.0
O27 O 0.43994 0.76896 0.12143 0.0
Co28 Co 0.92918 0.72646 0.72714 0.0
O29 O 0.97309 0.64007 0.73272 0.0
O30 O 0.93754 0.67947 0.573 0.0
C31 C 0.96858 0.82283 0.83566 0.0
O32 O 0.88214 0.81333 0.68852 0.0
Co33 Co 0.88404 0.78246 0.95795 0.0
O34 O 0.85248 0.86175 0.85553 0.0
C35 C 0.85196 0.62503 0.84168 0.0
C36 C 0.96621 0.63053 0.62222 0.0
C37 C 0.85511 0.86017 0.74505 0.0
O38 O 0.87946 0.63893 0.75723 0.0
O39 O 0.85052 0.67099 0.93316 0.0
O40 O 0.97661 0.81588 0.72515 0.0
O41 O 0.94045 0.76716 0.87889 0.0
Co42 Co 0.61307 0.21918 0.72934 0.0
O43 O 0.56899 0.30521 0.73631 0.0
O44 O 0.60422 0.26649 0.57567 0.0
C45 C 0.57418 0.12224 0.83805 0.0
O46 O 0.66021 0.13273 0.68941 0.0
Co47 Co 0.65892 0.1634 0.95909 0.0
O48 O 0.69019 0.08415 0.85582 0.0
C49 C 0.69027 0.32127 0.84294 0.0
C50 C 0.57561 0.31515 0.62577 0.0
C51 C 0.68735 0.08585 0.74539 0.0
O52 O 0.66265 0.30708 0.75889 0.0
O53 O 0.69205 0.27528 0.93428 0.0
O54 O 0.56584 0.12939 0.72775 0.0
O55 O 0.60227 0.17809 0.88108 0.0
C56 C 0.29066 0.94866 0.34807 0.0
C57 C 0.32188 0.90617 0.32101 0.0
C58 C 0.25162 -0.00306 0.34825 0.0
C59 C 0.22038 0.03935 0.32123 0.0
C60 C 0.25409 0.44079 0.17143 0.0
C61 C 0.2248 0.38605 0.16715 0.0
C62 C 0.28959 0.50258 0.17192 0.0
C63 C 0.3187 0.55767 0.16838 0.0
C64 C 0.75161 -0.00295 0.65661 0.0
C65 C 0.72029 0.03955 0.68288 0.0
C66 C 0.79073 0.94893 0.65677 0.0
C67 C 0.82205 0.90648 0.68308 0.0
C68 C 0.78877 0.50412 0.82452 0.0
C69 C 0.81818 0.55856 0.82884 0.0
C70 C 0.75312 0.44275 0.82485 0.0
C71 C 0.72386 0.38804 0.82962 0.0
C72 C 0.03338 0.00206 0.03463 0.0
C73 C 0.05231 0.05621 0.09302 0.0
C74 C 1.01049 0.93968 0.96578 0.0
C75 C 0.99129 0.88626 0.90671 0.0
C76 C 0.53257 0.00495 0.96804 0.0
C77 C 0.55167 0.05862 0.90919 0.0
C78 C 0.50961 0.94257 0.03672 0.0
C79 C 0.49052 0.88867 0.09521 0.0
C80 C 1.0086 0.50777 0.51728 0.0
C81 C 0.9882 0.56489 0.55972 0.0
C82 C 0.03277 0.43929 0.47285 0.0
C83 C 0.05337 0.38206 0.43141 0.0
C84 C 0.5091 0.50709 0.4782 0.0
C85 C 0.48865 0.56435 0.43643 0.0
C86 C 0.53314 0.43843 0.52242 0.0
C87 C 0.55354 0.38112 0.56428 0.0
loop_
_geom_bond_atom_site_label_1
_geom_bond_atom_site_label_2
_geom_bond_distance
_geom_bond_site_symmetry_2
_ccdc_geom_bond_type
Co0 O1 2.216 . S
Co0 O2 2.091 . S
Co0 O4 2.004 . S
Co0 O10 2.021 . S
Co0 O12 2.137 . S
Co0 O13 2.244 . S
O1 Co0 2.216 . S
O1 C8 1.247 . S
O2 Co0 2.091 . S
O2 C8 1.261 . S
C3 O12 1.247 . S
C3 O13 1.272 . S
O4 Co0 2.004 . S
O4 C9 1.259 . S
Co5 O6 2.061 . S
Co5 O11 2.052 . S
Co5 O13 2.135 . S
O6 Co5 2.061 . S
O6 C9 1.235 . S
C7 O10 1.238 . S
C7 O11 1.241 . S
C8 O1 1.247 . S
C8 O2 1.261 . S
C9 O4 1.259 . S
C9 O6 1.235 . S
O10 Co0 2.021 . S
O10 C7 1.238 . S
O11 Co5 2.052 . S
O11 C7 1.241 . S
O12 Co0 2.137 . S
O12 C3 1.247 . S
O13 Co0 2.244 . S
O13 C3 1.272 . S
O13 Co5 2.135 . S
Co14 O15 2.216 . S
Co14 O16 2.091 . S
Co14 O18 2.004 . S
Co14 O24 2.021 . S
Co14 O26 2.137 . S
Co14 O27 2.244 . S
O15 Co14 2.216 . S
O15 C22 1.247 . S
O16 Co14 2.091 . S
O16 C22 1.261 . S
C17 O26 1.247 . S
C17 O27 1.272 . S
O18 Co14 2.004 . S
O18 C23 1.259 . S
Co19 O20 2.061 . S
Co19 O25 2.052 . S
Co19 O27 2.135 . S
O20 Co19 2.061 . S
O20 C23 1.235 . S
C21 O24 1.238 . S
C21 O25 1.241 . S
C22 O15 1.247 . S
C22 O16 1.261 . S
C23 O18 1.259 . S
C23 O20 1.235 . S
O24 Co14 2.021 . S
O24 C21 1.238 . S
O25 Co19 2.052 . S
O25 C21 1.241 . S
O26 Co14 2.137 . S
O26 C17 1.247 . S
O27 Co14 2.244 . S
O27 C17 1.272 . S
O27 Co19 2.135 . S
Co28 O29 2.216 . S
Co28 O30 2.091 . S
Co28 O32 2.004 . S
Co28 O38 2.021 . S
Co28 O40 2.137 . S
Co28 O41 2.244 . S
O29 Co28 2.216 . S
O29 C36 1.247 . S
O30 Co28 2.091 . S
O30 C36 1.261 . S
C31 O40 1.247 . S
C31 O41 1.272 . S
O32 Co28 2.004 . S
O32 C37 1.259 . S
Co33 O34 2.061 . S
Co33 O39 2.052 . S
Co33 O41 2.135 . S
O34 Co33 2.061 . S
O34 C37 1.235 . S
C35 O38 1.238 . S
C35 O39 1.241 . S
C36 O29 1.247 . S
C36 O30 1.261 . S
C37 O32 1.259 . S
C37 O34 1.235 . S
O38 Co28 2.021 . S
O38 C35 1.238 . S
O39 Co33 2.052 . S
O39 C35 1.241 . S
O40 Co28 2.137 . S
O40 C31 1.247 . S
O41 Co28 2.244 . S
O41 C31 1.272 . S
O41 Co33 2.135 . S
Co42 O43 2.216 . S
Co42 O44 2.091 . S
Co42 O46 2.004 . S
Co42 O52 2.021 . S
Co42 O54 2.137 . S
Co42 O55 2.244 . S
O43 Co42 2.216 . S
O43 C50 1.247 . S
O44 Co42 2.091 . S
O44 C50 1.261 . S
C45 O54 1.247 . S
C45 O55 1.272 . S
O46 Co42 2.004 . S
O46 C51 1.259 . S
Co47 O48 2.061 . S
Co47 O53 2.052 . S
Co47 O55 2.135 . S
O48 Co47 2.061 . S
O48 C51 1.235 . S
C49 O52 1.238 . S
C49 O53 1.241 . S
C50 O43 1.247 . S
C50 O44 1.261 . S
C51 O46 1.259 . S
C51 O48 1.235 . S
O52 Co42 2.021 . S
O52 C49 1.238 . S
O53 Co47 2.052 . S
O53 C49 1.241 . S
O54 Co42 2.137 . S
O54 C45 1.247 . S
O55 Co42 2.244 . S
O55 C45 1.272 . S
O55 Co47 2.135 . S
C56 C57 1.170 . S
C56 C58 1.380 1_565 S
C57 C56 1.170 . S
C58 C56 1.380 1_545 S
C58 C59 1.170 . S
C59 C58 1.170 . S
C60 C61 1.170 . S
C60 C62 1.380 . S
C61 C60 1.170 . S
C62 C60 1.380 . S
C62 C63 1.170 . S
C63 C62 1.170 . S
C64 C65 1.170 . S
C64 C66 1.380 1_545 S
C65 C64 1.170 . S
C66 C64 1.380 1_565 S
C66 C67 1.170 . S
C67 C66 1.170 . S
C68 C69 1.170 . S
C68 C70 1.380 . S
C69 C68 1.170 . S
C70 C68 1.380 . S
C70 C71 1.170 . S
C71 C70 1.170 . S
C72 C73 1.170 . S
C72 C74 1.380 1_444 S
C73 C72 1.170 . S
C74 C72 1.380 1_666 S
C74 C75 1.170 . S
C75 C74 1.170 . S
C76 C77 1.170 . S
C76 C78 1.380 1_546 S
C77 C76 1.170 . S
C78 C76 1.380 1_564 S
C78 C79 1.170 . S
C79 C78 1.170 . S
C80 C81 1.170 . S
C80 C82 1.380 1_655 S
C81 C80 1.170 . S
C82 C80 1.380 1_455 S
C82 C83 1.170 . S
C83 C82 1.170 . S
C84 C85 1.170 . S
C84 C86 1.380 . S
C85 C84 1.170 . S
C86 C84 1.380 . S
C86 C87 1.170 . S
C87 C86 1.170 . S
C57 C23 1.196 . S
C59 C9 1.195 . S
C61 C7 1.081 . S
C63 C21 1.112 . S
C65 C51 1.157 . S
C67 C37 1.153 . S
C69 C35 1.105 . S
C71 C49 1.116 . S
C73 C3 1.524 . S
C75 C31 1.552 . S
C77 C45 1.559 . S
C79 C17 1.525 . S
C81 C36 1.569 . S
C83 C8 1.559 . S
C85 C22 1.571 . S
C87 C50 1.550 . S
