# Generated by pormake.
# Topology pcu, (6)-cn, num edge types: 1
# Building blocks:
#     Node 0, Type 0, BuildingBlock: INOVEN_clean_sbu_0, # of connection points: 6
#     Edge 1, Type (0, 0), BuildingBlock: EZIPEK_clean_linker_0, # of connection points: 2
#     Edge 2, Type (0, 0), BuildingBlock: EZIPEK_clean_linker_0, # of connection points: 2
#     Edge 3, Type (0, 0), BuildingBlock: EZIPEK_clean_linker_0, # of connection points: 2
# Relax obj value: 0.000
# Max RMSD: 0.000
# Mean RMSD: 0.000
data_MOF--net-pcu--node1-INOVEN_clean_sbu_0--edge1-EZIPEK_clean_linker_0
_symmetry_space_group_name_H-M    P1
_symmetry_Int_Tables_number       1
_symmetry_cell_setting            triclinic
loop_
_symmetry_equiv_pos_as_xyz
'x, y, z'
_cell_length_a     20.82049
_cell_length_b     11.414421
_cell_length_c     10.462418
_cell_angle_alpha  88.016334
_cell_angle_beta   96.769457
_cell_angle_gamma 121.43956
loop_
_atom_site_label
_atom_site_type_symbol
_atom_site_fract_x
_atom_site_fract_y
_atom_site_fract_z
_atom_type_partial_charge
Gd0 Gd 0.95783 0.89024 1.00411 0.0
Gd1 Gd 0.13003 0.04277 0.0237 0.0
C2 C 0.0444 0.21457 1.01019 0.0
C3 C 0.81537 0.75527 0.03406 0.0
C4 C 0.75704 0.79261 0.02414 0.0
C5 C 0.759 0.88962 0.93556 0.0
C6 C 0.70132 0.73693 0.10885 0.0
C7 C 0.65079 0.87548 0.01759 0.0
C8 C 0.64858 0.77825 0.10578 0.0
C9 C 0.7059 0.92999 0.93175 0.0
C10 C 1.01611 -0.02702 0.77738 0.0
C11 C 1.04361 0.7186 0.01575 0.0
C12 C 0.27252 0.17799 0.99438 0.0
C13 C 0.33057 0.14002 1.00284 0.0
C14 C 0.32863 0.04241 0.09065 0.0
C15 C 0.38618 0.19612 0.91791 0.0
C16 C 0.43672 0.05707 1.00767 0.0
C17 C 0.43886 0.15475 0.92012 0.0
C18 C 0.38167 0.002 0.09361 0.0
C19 C 0.0712 0.95881 0.25019 0.0
O20 O 0.9809 0.10173 0.03146 0.0
O21 O 0.10662 0.21548 0.99311 0.0
O22 O 0.84089 0.75155 0.9267 0.0
O23 O 0.86926 0.8148 0.12974 0.0
O24 O 0.95605 -0.03009 0.80452 0.0
O25 O 1.03915 0.92365 0.8682 0.0
O26 O 0.10709 0.83172 0.99488 0.0
O27 O 0.98146 0.71758 0.03406 0.0
O28 O 0.2469 0.1799 0.10222 0.0
O29 O 0.21877 0.12062 0.89812 0.0
O30 O 0.1308 0.96043 0.22259 0.0
O31 O 0.04886 0.00951 0.15966 0.0
H32 H 0.80211 0.93543 0.8704 0.0
H33 H 0.69931 0.66294 0.17854 0.0
H34 H 0.60638 0.73524 0.17263 0.0
H35 H 0.7084 0.00524 0.86325 0.0
H36 H 0.28563 -0.00372 0.15599 0.0
H37 H 0.3882 0.2706 0.84884 0.0
H38 H 0.48103 0.19819 0.8532 0.0
H39 H 0.37923 0.92641 0.16163 0.0
C40 C 0.10483 0.08422 0.46267 0.0
C41 C 0.05706 0.96259 0.38514 0.0
C42 C 0.98405 0.84771 0.5658 0.0
C43 C 1.03074 -0.0301 0.64269 0.0
N44 N 0.13896 0.20004 0.67227 0.0
N45 N 0.94562 0.73595 0.35434 0.0
C46 C 0.09204 0.08721 0.59311 0.0
C47 C 0.99522 0.84627 0.43448 0.0
N48 N 0.1606 0.19824 0.40957 0.0
N49 N 0.93104 0.73116 0.62013 0.0
H50 H 0.95306 0.73004 0.25874 0.0
H51 H 0.8943 0.65458 0.37872 0.0
H52 H 0.92019 0.72808 0.71534 0.0
H53 H 0.90152 0.63439 0.57482 0.0
H54 H 0.19351 0.29452 0.45525 0.0
H55 H 0.17204 0.19977 0.31498 0.0
H56 H 0.18894 0.28524 0.64845 0.0
H57 H 0.12977 0.20645 0.76662 0.0
C58 C 0.56604 0.09359 0.07447 0.0
C59 C 0.49192 0.0113 1.00882 0.0
C60 C 0.52157 0.83923 0.95025 0.0
C61 C 0.59569 0.92152 0.0159 0.0
N62 N 0.69214 0.13052 0.13115 0.0
N63 N 0.39554 0.80254 0.89317 0.0
C64 C 0.61891 0.04978 0.07558 0.0
C65 C 0.46873 0.88312 0.94899 0.0
N66 N 0.58446 0.21067 0.14036 0.0
N67 N 0.50312 0.722 0.8846 0.0
H68 H 0.3566 0.83453 0.88405 0.0
H69 H 0.37156 0.7016 0.86051 0.0
H70 H 0.5401 0.68622 0.88444 0.0
H71 H 0.45306 0.66295 0.8243 0.0
H72 H 0.63448 0.2695 0.20084 0.0
H73 H 0.5475 0.24646 0.14061 0.0
H74 H 0.71611 0.23155 0.16354 0.0
H75 H 0.73112 0.09864 0.1402 0.0
C76 C 0.04695 0.52636 0.13225 0.0
C77 C 1.04214 0.58803 0.01426 0.0
C78 C 1.03752 0.40323 0.89307 0.0
C79 C 0.04618 0.3454 1.0112 0.0
N80 N 0.06671 0.35515 0.24304 0.0
N81 N 1.04157 0.59737 0.78339 0.0
C82 C 0.05269 0.40762 0.13091 0.0
C83 C 1.04009 0.53004 0.89486 0.0
N84 N 0.04599 0.5816 0.24542 0.0
N85 N 1.02397 0.33405 0.7794 0.0
H86 H 1.03963 0.68688 0.77985 0.0
H87 H 0.04922 0.56974 0.69523 0.0
H88 H 1.02298 0.24215 0.77443 0.0
H89 H 1.00854 0.36191 0.69063 0.0
H90 H 1.04026 0.53376 0.33336 0.0
H91 H 0.04739 0.67382 0.25082 0.0
H92 H 0.08017 0.40287 0.33334 0.0
H93 H 0.06965 0.26667 0.24546 0.0
loop_
_geom_bond_atom_site_label_1
_geom_bond_atom_site_label_2
_geom_bond_distance
_geom_bond_site_symmetry_2
_ccdc_geom_bond_type
Gd0 C3 2.818 . S
Gd0 O20 2.377 1_565 S
Gd0 O22 2.448 . S
Gd0 O23 2.506 1_556 S
Gd0 O24 2.435 . S
Gd0 O25 2.717 1_665 S
Gd0 O27 2.395 . S
Gd0 O31 2.327 1_556 S
Gd1 C12 2.818 . S
Gd1 O21 2.395 . S
Gd1 O25 2.327 1_554 S
Gd1 O26 2.377 1_545 S
Gd1 O28 2.448 . S
Gd1 O29 2.506 1_554 S
Gd1 O30 2.435 . S
Gd1 O31 2.717 1_445 S
C2 O20 1.240 1_455 S
C2 O21 1.240 1_556 S
C3 Gd0 2.818 . S
C3 C4 1.510 . S
C3 O22 1.249 . S
C3 O23 1.252 1_556 S
C4 C3 1.510 . S
C4 C5 1.404 . S
C4 C6 1.352 1_566 S
C5 C4 1.404 . S
C5 C9 1.389 . S
C5 H32 0.930 . S
C6 C4 1.352 1_544 S
C6 C8 1.374 . S
C6 H33 0.931 . S
C7 C8 1.359 1_565 S
C7 C9 1.364 1_554 S
C8 C6 1.374 . S
C8 C7 1.359 1_545 S
C8 H34 0.931 . S
C9 C5 1.389 . S
C9 C7 1.364 1_556 S
C9 H35 0.931 . S
C10 O24 1.256 . S
C10 O25 1.257 1_665 S
C11 O26 1.240 1_655 S
C11 O27 1.240 1_554 S
C12 Gd1 2.818 . S
C12 C13 1.510 . S
C12 O28 1.249 . S
C12 O29 1.252 1_554 S
C13 C12 1.510 . S
C13 C14 1.404 . S
C13 C15 1.352 1_544 S
C14 C13 1.404 . S
C14 C18 1.389 . S
C14 H36 0.930 . S
C15 C13 1.352 1_566 S
C15 C17 1.374 . S
C15 H37 0.931 . S
C16 C17 1.359 1_545 S
C16 C18 1.364 1_556 S
C17 C15 1.374 . S
C17 C16 1.359 1_565 S
C17 H38 0.931 . S
C18 C14 1.389 . S
C18 C16 1.364 1_554 S
C18 H39 0.931 . S
C19 O30 1.256 . S
C19 O31 1.257 1_445 S
O20 Gd0 2.377 1_545 S
O20 C2 1.240 1_655 S
O21 Gd1 2.395 . S
O21 C2 1.240 1_554 S
O22 Gd0 2.448 . S
O22 C3 1.249 . S
O23 Gd0 2.506 1_554 S
O23 C3 1.252 1_554 S
O24 Gd0 2.435 . S
O24 C10 1.256 . S
O25 Gd0 2.717 1_445 S
O25 Gd1 2.327 1_556 S
O25 C10 1.257 1_445 S
O26 Gd1 2.377 1_565 S
O26 C11 1.240 1_455 S
O27 Gd0 2.395 . S
O27 C11 1.240 1_556 S
O28 Gd1 2.448 . S
O28 C12 1.249 . S
O29 Gd1 2.506 1_556 S
O29 C12 1.252 1_556 S
O30 Gd1 2.435 . S
O30 C19 1.256 . S
O31 Gd0 2.327 1_554 S
O31 Gd1 2.717 1_665 S
O31 C19 1.257 1_665 S
H32 C5 0.930 . S
H33 C6 0.931 . S
H34 C8 0.931 . S
H35 C9 0.931 . S
H36 C14 0.930 . S
H37 C15 0.931 . S
H38 C17 0.931 . S
H39 C18 0.931 . S
C40 C41 1.363 . S
C40 C46 1.379 . S
C40 N48 1.356 . S
C41 C40 1.363 . S
C41 C47 1.363 1_445 S
C42 C43 1.363 1_665 S
C42 C47 1.379 . S
C42 N49 1.356 . S
C43 C42 1.363 1_445 S
C43 C46 1.363 . S
N44 C46 1.356 . S
N44 H56 0.984 . S
N44 H57 0.985 . S
N45 C47 1.356 . S
N45 H50 0.984 . S
N45 H51 0.985 . S
C46 C40 1.379 . S
C46 C43 1.363 . S
C46 N44 1.356 . S
C47 C41 1.363 1_665 S
C47 C42 1.379 . S
C47 N45 1.356 . S
N48 C40 1.356 . S
N48 H54 0.984 . S
N48 H55 0.984 . S
N49 C42 1.356 . S
N49 H52 0.984 . S
N49 H53 0.985 . S
H50 N45 0.984 . S
H51 N45 0.985 . S
H52 N49 0.984 . S
H53 N49 0.985 . S
H54 N48 0.984 . S
H55 N48 0.984 . S
H56 N44 0.984 . S
H57 N44 0.985 . S
C58 C59 1.363 . S
C58 C64 1.379 . S
C58 N66 1.356 . S
C59 C58 1.363 . S
C59 C65 1.363 1_544 S
C60 C61 1.363 1_566 S
C60 C65 1.379 . S
C60 N67 1.356 . S
C61 C60 1.363 1_544 S
C61 C64 1.363 . S
N62 C64 1.356 . S
N62 H74 0.984 . S
N62 H75 0.985 . S
N63 C65 1.356 . S
N63 H68 0.984 . S
N63 H69 0.985 . S
C64 C58 1.379 . S
C64 C61 1.363 . S
C64 N62 1.356 . S
C65 C59 1.363 1_566 S
C65 C60 1.379 . S
C65 N63 1.356 . S
N66 C58 1.356 . S
N66 H72 0.984 . S
N66 H73 0.984 . S
N67 C60 1.356 . S
N67 H70 0.984 . S
N67 H71 0.985 . S
H68 N63 0.984 . S
H69 N63 0.985 . S
H70 N67 0.984 . S
H71 N67 0.985 . S
H72 N66 0.984 . S
H73 N66 0.984 . S
H74 N62 0.984 . S
H75 N62 0.985 . S
C76 C77 1.363 . S
C76 C82 1.379 . S
C76 N84 1.356 . S
C77 C76 1.363 . S
C77 C83 1.363 1_454 S
C78 C79 1.363 1_656 S
C78 C83 1.379 . S
C78 N85 1.356 . S
C79 C78 1.363 1_454 S
C79 C82 1.363 . S
N80 C82 1.356 . S
N80 H92 0.984 . S
N80 H93 0.985 . S
N81 C83 1.356 . S
N81 H86 0.984 . S
N81 H87 0.985 . S
C82 C76 1.379 . S
C82 C79 1.363 . S
C82 N80 1.356 . S
C83 C77 1.363 1_656 S
C83 C78 1.379 . S
C83 N81 1.356 . S
N84 C76 1.356 . S
N84 H90 0.984 . S
N84 H91 0.984 . S
N85 C78 1.356 . S
N85 H88 0.984 . S
N85 H89 0.985 . S
H86 N81 0.984 . S
H87 N81 0.985 . S
H88 N85 0.984 . S
H89 N85 0.985 . S
H90 N84 0.984 . S
H91 N84 0.984 . S
H92 N80 0.984 . S
H93 N80 0.985 . S
C41 C19 1.459 . S
C43 C10 1.459 1_445 S
C59 C16 1.499 1_554 S
C61 C7 1.499 1_545 S
C77 C11 1.495 1_455 S
C79 C2 1.495 1_554 S
