# Generated by pormake.
# Topology ecf, (8)-cn, num edge types: 1
# Building blocks:
#     Node 0, Type 0, BuildingBlock: GIZVER_clean_sbu_0, # of connection points: 8
#     Node 1, Type 0, BuildingBlock: GIZVER_clean_sbu_0, # of connection points: 8
#     Node 2, Type 0, BuildingBlock: GIZVER_clean_sbu_0, # of connection points: 8
#     Node 3, Type 0, BuildingBlock: GIZVER_clean_sbu_0, # of connection points: 8
#     Node 4, Type 0, BuildingBlock: GIZVER_clean_sbu_0, # of connection points: 8
#     Node 5, Type 0, BuildingBlock: GIZVER_clean_sbu_0, # of connection points: 8
#     Edge 6, Type (0, 0), None
#     Edge 7, Type (0, 0), None
#     Edge 8, Type (0, 0), None
#     Edge 9, Type (0, 0), None
#     Edge 10, Type (0, 0), None
#     Edge 11, Type (0, 0), None
#     Edge 12, Type (0, 0), None
#     Edge 13, Type (0, 0), None
#     Edge 14, Type (0, 0), None
#     Edge 15, Type (0, 0), None
#     Edge 16, Type (0, 0), None
#     Edge 17, Type (0, 0), None
#     Edge 18, Type (0, 0), None
#     Edge 19, Type (0, 0), None
#     Edge 20, Type (0, 0), None
#     Edge 21, Type (0, 0), None
#     Edge 22, Type (0, 0), None
#     Edge 23, Type (0, 0), None
#     Edge 24, Type (0, 0), None
#     Edge 25, Type (0, 0), None
#     Edge 26, Type (0, 0), None
#     Edge 27, Type (0, 0), None
#     Edge 28, Type (0, 0), None
#     Edge 29, Type (0, 0), None
# Relax obj value: 0.539
# Max RMSD: 0.317
# Mean RMSD: 0.317
data_MOF--net-ecf--node1-GIZVER_clean_sbu_0--edge1-none
_symmetry_space_group_name_H-M    P1
_symmetry_Int_Tables_number       1
_symmetry_cell_setting            triclinic
loop_
_symmetry_equiv_pos_as_xyz
'x, y, z'
_cell_length_a     21.113011
_cell_length_b     21.23009
_cell_length_c     8.6432219
_cell_angle_alpha  90.072091
_cell_angle_beta   89.692716
_cell_angle_gamma 120.06931
loop_
_atom_site_label
_atom_site_type_symbol
_atom_site_fract_x
_atom_site_fract_y
_atom_site_fract_z
_atom_type_partial_charge
Co0 Co 0.34106 0.52949 0.62577 0.0
Co1 Co 0.21512 0.51048 0.53724 0.0
Co2 Co 0.21438 0.36394 0.50323 0.0
O3 O 0.26903 0.46829 0.473 0.0
H4 H 0.2854 0.48096 0.3671 0.0
O5 O 0.16796 0.26767 0.55265 0.0
Co6 Co 0.11722 0.19922 0.41128 0.0
Co7 Co 0.25627 0.26027 0.53046 0.0
H8 H 0.15167 0.25677 0.65906 0.0
O9 O 0.23536 0.5955 0.43932 0.0
O10 O 0.28712 0.5852 0.65872 0.0
O11 O 0.1117 0.44338 0.61898 0.0
O12 O 0.14432 0.36293 0.68047 0.0
O13 O 0.12809 0.35096 0.35518 0.0
O14 O 1.0762 0.13076 0.29423 0.0
O15 O 0.08893 0.13635 0.55411 0.0
O16 O 0.13561 0.26584 0.24275 0.0
O17 O 0.2739 0.34996 0.3102 0.0
O18 O 0.3499 0.32475 0.42439 0.0
O19 O 0.20599 0.19797 0.38104 0.0
O20 O 0.25413 0.17926 0.59135 0.0
C21 C 0.44464 0.62389 0.59519 0.0
C22 C 0.36295 0.40619 0.6679 0.0
C23 C 0.09387 0.38116 0.67606 0.0
C24 C 0.27618 0.62502 0.56005 0.0
C25 C 1.05572 0.13966 0.42923 0.0
C26 C 0.10211 0.30175 0.24874 0.0
C27 C 0.32966 0.33831 0.2995 0.0
C28 C 0.21952 0.15667 0.46478 0.0
O29 O 0.42066 0.60037 0.73436 0.0
O30 O 0.40217 0.59161 0.48006 0.0
O31 O 0.29256 0.36616 0.65793 0.0
O32 O 0.39249 0.47191 0.61871 0.0
Co33 Co 0.93475 1.05078 0.90443 0.0
Co34 Co 0.99955 0.16614 1.0386 0.0
Co35 Co 0.90924 0.1919 0.90773 0.0
O36 O 0.95144 0.13993 0.86658 0.0
H37 H 0.98728 0.16326 0.7863 0.0
O38 O 0.85663 0.24239 0.92717 0.0
Co39 Co 0.87072 0.31356 0.777 0.0
Co40 Co 0.76267 0.18662 0.84981 0.0
H41 H 0.85597 0.25661 1.03317 0.0
O42 O 1.08499 0.22102 0.96194 0.0
O43 O 1.01856 0.10061 1.04204 0.0
O44 O 0.98162 0.19822 0.23966 0.0
O45 O 0.99751 0.27167 1.05729 0.0
O46 O 0.9789 0.26299 0.73516 0.0
O47 O 0.88201 0.39457 0.67087 0.0
O48 O 0.86394 0.36988 0.92294 0.0
O49 O 0.9799 0.3638 0.79775 0.0
O50 O 0.8387 0.10663 0.75576 0.0
O51 O 0.72515 0.08403 0.76343 0.0
O52 O 0.76139 0.25947 0.73156 0.0
O53 O 0.69528 0.20164 0.94616 0.0
C54 C 0.98253 1.00134 0.84697 0.0
C55 C 0.83358 0.05706 1.12627 0.0
C56 C 1.01941 0.26216 1.19251 0.0
C57 C 1.07474 0.15554 0.97394 0.0
C58 C 0.87704 0.41447 0.81096 0.0
C59 C 1.01524 0.33331 0.74669 0.0
C60 C 0.7698 0.06224 0.72908 0.0
C61 C 0.70731 0.24339 0.82669 0.0
O62 O 0.92853 0.97193 0.9415 0.0
O63 O 0.99566 1.05615 0.76147 0.0
O64 O 0.84618 0.12229 1.09259 0.0
O65 O 0.86868 1.03271 1.05651 0.0
Co66 Co 0.61653 0.83896 0.6188 0.0
Co67 Co 0.63687 0.73245 0.5435 0.0
Co68 Co 0.7841 0.88089 0.4786 0.0
O69 O 0.67786 0.82513 0.46661 0.0
H70 H 0.6618 0.82401 0.36164 0.0
O71 O 0.88209 0.94025 0.50515 0.0
Co72 Co 0.94872 0.96272 0.35032 0.0
Co73 Co 0.87744 1.03013 0.48126 0.0
H74 H 0.89715 0.93615 0.60782 0.0
O75 O 0.55312 0.6644 0.44685 0.0
O76 O 0.55996 0.73016 0.65871 0.0
O77 O 0.70514 0.70088 0.63181 0.0
O78 O 0.79693 0.81502 0.64984 0.0
O79 O 0.80016 0.81367 0.31566 0.0
O80 O 1.01778 0.98956 0.21667 0.0
O81 O 1.01419 1.00171 0.4758 0.0
O82 O 0.87813 0.91213 1.19877 0.0
O83 O 0.78537 0.94775 0.28996 0.0
O84 O 0.80521 1.05025 0.39013 0.0
O85 O 0.94369 1.05233 0.3331 0.0
O86 O 0.94769 0.11064 0.55674 0.0
C87 C 0.52136 0.8483 0.58823 0.0
C88 C 0.74087 0.98431 0.6547 0.0
C89 C 0.77116 0.74519 0.67105 0.0
C90 C 0.52171 0.67726 0.56274 0.0
C91 C 1.00829 0.96228 0.35567 0.0
C92 C 0.84971 0.8436 0.20805 0.0
C93 C 0.79447 1.01314 0.27129 0.0
C94 C 0.97871 0.10224 0.43666 0.0
O95 O 0.54577 0.84952 0.72678 0.0
O96 O 0.55303 0.83633 0.47335 0.0
O97 O 0.78159 0.95478 0.64134 0.0
O98 O 0.67491 0.94757 0.60602 0.0
Co99 Co 0.09099 0.89117 0.96967 0.0
Co100 Co 0.97815 0.87792 0.85472 0.0
Co101 Co 0.96083 0.74255 0.90599 0.0
O102 O 1.0247 0.83389 0.84665 0.0
H103 H 1.0405 0.84027 0.74038 0.0
O104 O 0.89881 0.64203 0.94324 0.0
Co105 Co 0.83496 0.58649 0.78149 0.0
Co106 Co 0.95771 0.60132 0.88864 0.0
H107 H 0.88012 0.63114 1.04799 0.0
O108 O 1.01853 0.94112 0.70926 0.0
O109 O 1.04126 0.94899 0.96864 0.0
O110 O 0.87845 0.83809 0.94595 0.0
O111 O 0.90605 0.77047 1.08881 0.0
O112 O 0.8878 0.7498 0.7516 0.0
O113 O 0.75845 0.5176 0.66194 0.0
O114 O 0.77187 0.52261 0.91789 0.0
O115 O 0.78486 0.64573 0.78688 0.0
O116 O 1.02084 0.72939 0.72668 0.0
O117 O 1.06636 0.6661 0.81675 0.0
O118 O 0.89024 0.53138 0.75298 0.0
O119 O 0.93288 0.51492 0.98028 0.0
C120 C 0.17881 0.97438 0.94658 0.0
C121 C 1.07045 0.79927 1.15243 0.0
C122 C 0.87067 0.80678 1.0746 0.0
C123 C 1.02824 0.9727 0.83928 0.0
C124 C 0.73237 0.49157 0.79877 0.0
C125 C 0.81697 0.71297 0.74509 0.0
C126 C 1.07813 0.72289 0.74322 0.0
C127 C 0.89791 0.4893 0.8512 0.0
O128 O 0.15373 0.9467 1.07788 0.0
O129 O 0.14569 0.94514 0.81986 0.0
O130 O 1.03749 0.74296 1.06513 0.0
O131 O 1.04457 0.84096 1.13895 0.0
Co132 Co 0.30564 0.80338 0.62822 0.0
Co133 Co 0.41007 0.93005 0.53688 0.0
Co134 Co 0.25989 0.92702 0.49924 0.0
O135 O 0.31321 0.8747 0.47629 0.0
H136 H 0.31054 0.85832 0.37091 0.0
O137 O 0.20364 0.9703 0.53786 0.0
Co138 Co 0.1884 1.02451 0.40432 0.0
Co139 Co 0.10276 0.87952 0.50556 0.0
H140 H 0.2228 1.0014 0.62645 0.0
O141 O 0.47754 0.91223 0.43674 0.0
O142 O 0.41585 0.85911 0.65641 0.0
O143 O 0.44283 1.0312 0.62259 0.0
O144 O 0.32798 0.99889 0.67962 0.0
O145 O 0.33818 1.01469 0.36049 0.0
O146 O 0.16263 0.06963 0.28812 0.0
O147 O 0.14111 1.04055 0.54356 0.0
O148 O 0.25068 1.01801 0.24943 0.0
O149 O 0.19022 0.8689 0.30022 0.0
O150 O 0.09007 0.78936 0.41477 0.0
O151 O 0.10336 0.93608 0.34438 0.0
O152 O 1.00768 0.8674 0.49092 0.0
C153 C 0.299 0.70136 0.59437 0.0
C154 C 0.15544 0.77549 0.66693 0.0
C155 C 0.39789 1.04894 0.67931 0.0
C156 C 0.46701 0.87099 0.55639 0.0
C157 C 0.18292 0.08216 0.43142 0.0
C158 C 0.31957 1.04647 0.25883 0.0
C159 C 0.12348 0.81172 0.2894 0.0
C160 C 1.03774 0.91588 0.38523 0.0
O161 O 0.29982 0.72443 0.7344 0.0
O162 O 0.30777 0.74398 0.48042 0.0
O163 O 0.18032 0.84494 0.64764 0.0
O164 O 0.19662 0.74992 0.62668 0.0
Co165 Co 0.23337 0.18732 0.99544 0.0
Co166 Co 0.29654 0.13661 1.04175 0.0
Co167 Co 0.40125 0.23893 0.92081 0.0
O168 O 0.30386 0.1963 0.89188 0.0
H169 H 0.28991 0.16269 0.80921 0.0
O170 O 0.50503 0.28934 0.92652 0.0
Co171 Co 0.55999 0.27439 0.77069 0.0
Co172 Co 0.54363 0.38203 0.8494 0.0
H173 H 0.52204 0.29056 1.03067 0.0
O174 O 0.29632 0.06216 0.93729 0.0
O175 O 0.2088 0.08536 1.03453 0.0
O176 O 0.33515 0.16187 0.2663 0.0
O177 O 0.40109 0.1568 1.08328 0.0
O178 O 0.39571 0.16376 0.75222 0.0
O179 O 0.62744 0.26223 0.65663 0.0
O180 O 0.6234 0.27772 0.91099 0.0
O181 O 0.49862 0.16434 0.78908 0.0
O182 O 0.38617 0.30676 0.7616 0.0
O183 O 0.47801 0.41977 0.77132 0.0
O184 O 0.61852 0.38433 0.7295 0.0
O185 O 0.62489 0.44733 0.94759 0.0
C186 C 0.13756 0.15461 0.96914 0.0
C187 C 0.33765 0.29605 1.16189 0.0
C188 C 0.36592 0.12955 0.2153 0.0
C189 C 0.2293 1.04645 0.95406 0.0
C190 C 0.65349 0.26537 0.79444 0.0
C191 C 0.43069 0.12811 0.75111 0.0
C192 C 0.41122 0.37592 0.73862 0.0
C193 C 0.6558 0.43705 0.82719 0.0
O194 O 0.1697 0.17624 1.09623 0.0
O195 O 0.16867 0.15113 0.84228 0.0
O196 O 0.39807 0.30965 1.09273 0.0
O197 O 0.28846 0.23057 1.15734 0.0
loop_
_geom_bond_atom_site_label_1
_geom_bond_atom_site_label_2
_geom_bond_distance
_geom_bond_site_symmetry_2
_ccdc_geom_bond_type
Co0 O3 2.042 . S
Co0 O10 2.264 . S
Co0 O29 2.286 . S
Co0 O30 2.069 . S
Co0 O32 2.015 . S
Co1 O3 2.122 . S
Co1 O9 2.073 . S
Co1 O10 2.327 . S
Co1 O11 1.976 . S
Co2 O3 2.087 . S
Co2 O5 2.087 . S
Co2 O12 2.111 . S
Co2 O13 2.143 . S
Co2 O17 2.111 . S
Co2 O31 2.143 . S
O3 Co0 2.042 . S
O3 Co1 2.122 . S
O3 Co2 2.087 . S
O3 H4 0.980 . S
H4 O3 0.980 . S
O5 Co2 2.087 . S
O5 Co6 2.042 . S
O5 Co7 2.122 . S
O5 H8 0.980 . S
Co6 O5 2.042 . S
Co6 O14 2.286 1_455 S
Co6 O15 2.069 1_455 S
Co6 O16 2.015 . S
Co6 O19 2.264 . S
Co7 O5 2.122 . S
Co7 O18 1.976 . S
Co7 O19 2.327 . S
Co7 O20 2.073 . S
H8 O5 0.980 . S
O9 Co1 2.073 . S
O9 C24 1.245 . S
O10 Co0 2.264 . S
O10 Co1 2.327 . S
O10 C24 1.257 . S
O11 Co1 1.976 . S
O11 C23 1.251 . S
O12 Co2 2.111 . S
O12 C23 1.274 . S
O13 Co2 2.143 . S
O13 C26 1.246 . S
O14 Co6 2.286 1_655 S
O14 C25 1.259 . S
O15 Co6 2.069 1_655 S
O15 C25 1.289 . S
O16 Co6 2.015 . S
O16 C26 1.257 . S
O17 Co2 2.111 . S
O17 C27 1.274 . S
O18 Co7 1.976 . S
O18 C27 1.251 . S
O19 Co6 2.264 . S
O19 Co7 2.327 . S
O19 C28 1.257 . S
O20 Co7 2.073 . S
O20 C28 1.245 . S
C21 O29 1.259 . S
C21 O30 1.289 . S
C22 O31 1.246 . S
C22 O32 1.257 . S
C23 O11 1.251 . S
C23 O12 1.274 . S
C24 O9 1.245 . S
C24 O10 1.257 . S
C25 O14 1.259 . S
C25 O15 1.289 . S
C26 O13 1.246 . S
C26 O16 1.257 . S
C27 O17 1.274 . S
C27 O18 1.251 . S
C28 O19 1.257 . S
C28 O20 1.245 . S
O29 Co0 2.286 . S
O29 C21 1.259 . S
O30 Co0 2.069 . S
O30 C21 1.289 . S
O31 Co2 2.143 . S
O31 C22 1.246 . S
O32 Co0 2.015 . S
O32 C22 1.257 . S
Co33 O36 2.042 . S
Co33 O43 2.264 . S
Co33 O62 2.286 1_545 S
Co33 O63 2.069 1_545 S
Co33 O65 2.015 . S
Co34 O36 2.122 1_455 S
Co34 O42 2.073 . S
Co34 O43 2.327 1_455 S
Co34 O44 1.976 1_455 S
Co35 O36 2.087 . S
Co35 O38 2.087 . S
Co35 O45 2.111 . S
Co35 O46 2.143 . S
Co35 O50 2.111 . S
Co35 O64 2.143 . S
O36 Co33 2.042 . S
O36 Co34 2.122 1_655 S
O36 Co35 2.087 . S
O36 H37 0.980 . S
H37 O36 0.980 . S
O38 Co35 2.087 . S
O38 Co39 2.042 . S
O38 Co40 2.122 . S
O38 H41 0.980 . S
Co39 O38 2.042 . S
Co39 O47 2.286 . S
Co39 O48 2.069 . S
Co39 O49 2.015 . S
Co39 O52 2.264 . S
Co40 O38 2.122 . S
Co40 O51 1.976 . S
Co40 O52 2.327 . S
Co40 O53 2.073 . S
H41 O38 0.980 . S
O42 Co34 2.073 . S
O42 C57 1.245 . S
O43 Co33 2.264 . S
O43 Co34 2.327 1_655 S
O43 C57 1.257 1_655 S
O44 Co34 1.976 1_655 S
O44 C56 1.251 . S
O45 Co35 2.111 . S
O45 C56 1.274 . S
O46 Co35 2.143 . S
O46 C59 1.246 . S
O47 Co39 2.286 . S
O47 C58 1.259 . S
O48 Co39 2.069 . S
O48 C58 1.289 . S
O49 Co39 2.015 . S
O49 C59 1.257 . S
O50 Co35 2.111 . S
O50 C60 1.274 . S
O51 Co40 1.976 . S
O51 C60 1.251 . S
O52 Co39 2.264 . S
O52 Co40 2.327 . S
O52 C61 1.257 . S
O53 Co40 2.073 . S
O53 C61 1.245 . S
C54 O62 1.259 . S
C54 O63 1.289 . S
C55 O64 1.246 . S
C55 O65 1.257 . S
C56 O44 1.251 . S
C56 O45 1.274 . S
C57 O42 1.245 . S
C57 O43 1.257 1_455 S
C58 O47 1.259 . S
C58 O48 1.289 . S
C59 O46 1.246 . S
C59 O49 1.257 . S
C60 O50 1.274 . S
C60 O51 1.251 . S
C61 O52 1.257 . S
C61 O53 1.245 . S
O62 Co33 2.286 1_565 S
O62 C54 1.259 . S
O63 Co33 2.069 1_565 S
O63 C54 1.289 . S
O64 Co35 2.143 . S
O64 C55 1.246 . S
O65 Co33 2.015 . S
O65 C55 1.257 . S
Co66 O69 2.042 . S
Co66 O76 2.264 . S
Co66 O95 2.286 . S
Co66 O96 2.069 . S
Co66 O98 2.015 . S
Co67 O69 2.122 . S
Co67 O75 2.073 . S
Co67 O76 2.327 . S
Co67 O77 1.976 . S
Co68 O69 2.087 . S
Co68 O71 2.087 . S
Co68 O78 2.111 . S
Co68 O79 2.143 . S
Co68 O83 2.111 . S
Co68 O97 2.143 . S
O69 Co66 2.042 . S
O69 Co67 2.122 . S
O69 Co68 2.087 . S
O69 H70 0.980 . S
H70 O69 0.980 . S
O71 Co68 2.087 . S
O71 Co72 2.042 . S
O71 Co73 2.122 1_565 S
O71 H74 0.980 . S
Co72 O71 2.042 . S
Co72 O80 2.286 . S
Co72 O81 2.069 . S
Co72 O82 2.015 . S
Co72 O85 2.264 . S
Co73 O71 2.122 1_545 S
Co73 O84 1.976 1_545 S
Co73 O85 2.327 1_545 S
Co73 O86 2.073 . S
H74 O71 0.980 . S
O75 Co67 2.073 . S
O75 C90 1.245 . S
O76 Co66 2.264 . S
O76 Co67 2.327 . S
O76 C90 1.257 . S
O77 Co67 1.976 . S
O77 C89 1.251 . S
O78 Co68 2.111 . S
O78 C89 1.274 . S
O79 Co68 2.143 . S
O79 C92 1.246 . S
O80 Co72 2.286 . S
O80 C91 1.259 . S
O81 Co72 2.069 . S
O81 C91 1.289 . S
O82 Co72 2.015 . S
O82 C92 1.257 . S
O83 Co68 2.111 . S
O83 C93 1.274 . S
O84 Co73 1.976 1_565 S
O84 C93 1.251 . S
O85 Co72 2.264 . S
O85 Co73 2.327 1_565 S
O85 C94 1.257 1_565 S
O86 Co73 2.073 . S
O86 C94 1.245 . S
C87 O95 1.259 . S
C87 O96 1.289 . S
C88 O97 1.246 . S
C88 O98 1.257 . S
C89 O77 1.251 . S
C89 O78 1.274 . S
C90 O75 1.245 . S
C90 O76 1.257 . S
C91 O80 1.259 . S
C91 O81 1.289 . S
C92 O79 1.246 . S
C92 O82 1.257 . S
C93 O83 1.274 . S
C93 O84 1.251 . S
C94 O85 1.257 1_545 S
C94 O86 1.245 . S
O95 Co66 2.286 . S
O95 C87 1.259 . S
O96 Co66 2.069 . S
O96 C87 1.289 . S
O97 Co68 2.143 . S
O97 C88 1.246 . S
O98 Co66 2.015 . S
O98 C88 1.257 . S
Co99 O102 2.042 . S
Co99 O109 2.264 . S
Co99 O128 2.286 1_655 S
Co99 O129 2.069 1_655 S
Co99 O131 2.015 . S
Co100 O102 2.122 . S
Co100 O108 2.073 . S
Co100 O109 2.327 . S
Co100 O110 1.976 . S
Co101 O102 2.087 . S
Co101 O104 2.087 . S
Co101 O111 2.111 . S
Co101 O112 2.143 . S
Co101 O116 2.111 . S
Co101 O130 2.143 . S
O102 Co99 2.042 . S
O102 Co100 2.122 . S
O102 Co101 2.087 . S
O102 H103 0.980 . S
H103 O102 0.980 . S
O104 Co101 2.087 . S
O104 Co105 2.042 . S
O104 Co106 2.122 . S
O104 H107 0.980 . S
Co105 O104 2.042 . S
Co105 O113 2.286 . S
Co105 O114 2.069 . S
Co105 O115 2.015 . S
Co105 O118 2.264 . S
Co106 O104 2.122 . S
Co106 O117 1.976 . S
Co106 O118 2.327 . S
Co106 O119 2.073 . S
H107 O104 0.980 . S
O108 Co100 2.073 . S
O108 C123 1.245 . S
O109 Co99 2.264 . S
O109 Co100 2.327 . S
O109 C123 1.257 . S
O110 Co100 1.976 . S
O110 C122 1.251 . S
O111 Co101 2.111 . S
O111 C122 1.274 . S
O112 Co101 2.143 . S
O112 C125 1.246 . S
O113 Co105 2.286 . S
O113 C124 1.259 . S
O114 Co105 2.069 . S
O114 C124 1.289 . S
O115 Co105 2.015 . S
O115 C125 1.257 . S
O116 Co101 2.111 . S
O116 C126 1.274 . S
O117 Co106 1.976 . S
O117 C126 1.251 . S
O118 Co105 2.264 . S
O118 Co106 2.327 . S
O118 C127 1.257 . S
O119 Co106 2.073 . S
O119 C127 1.245 . S
C120 O128 1.259 . S
C120 O129 1.289 . S
C121 O130 1.246 . S
C121 O131 1.257 . S
C122 O110 1.251 . S
C122 O111 1.274 . S
C123 O108 1.245 . S
C123 O109 1.257 . S
C124 O113 1.259 . S
C124 O114 1.289 . S
C125 O112 1.246 . S
C125 O115 1.257 . S
C126 O116 1.274 . S
C126 O117 1.251 . S
C127 O118 1.257 . S
C127 O119 1.245 . S
O128 Co99 2.286 1_455 S
O128 C120 1.259 . S
O129 Co99 2.069 1_455 S
O129 C120 1.289 . S
O130 Co101 2.143 . S
O130 C121 1.246 . S
O131 Co99 2.015 . S
O131 C121 1.257 . S
Co132 O135 2.042 . S
Co132 O142 2.264 . S
Co132 O161 2.286 . S
Co132 O162 2.069 . S
Co132 O164 2.015 . S
Co133 O135 2.122 . S
Co133 O141 2.073 . S
Co133 O142 2.327 . S
Co133 O143 1.976 . S
Co134 O135 2.087 . S
Co134 O137 2.087 . S
Co134 O144 2.111 . S
Co134 O145 2.143 . S
Co134 O149 2.111 . S
Co134 O163 2.143 . S
O135 Co132 2.042 . S
O135 Co133 2.122 . S
O135 Co134 2.087 . S
O135 H136 0.980 . S
H136 O135 0.980 . S
O137 Co134 2.087 . S
O137 Co138 2.042 . S
O137 Co139 2.122 1_455 S
O137 H140 0.980 . S
Co138 O137 2.042 . S
Co138 O146 2.286 1_565 S
Co138 O147 2.069 1_565 S
Co138 O148 2.015 . S
Co138 O151 2.264 . S
Co139 O137 2.122 1_655 S
Co139 O150 1.976 1_655 S
Co139 O151 2.327 1_655 S
Co139 O152 2.073 . S
H140 O137 0.980 . S
O141 Co133 2.073 . S
O141 C156 1.245 . S
O142 Co132 2.264 . S
O142 Co133 2.327 . S
O142 C156 1.257 . S
O143 Co133 1.976 . S
O143 C155 1.251 . S
O144 Co134 2.111 . S
O144 C155 1.274 . S
O145 Co134 2.143 . S
O145 C158 1.246 . S
O146 Co138 2.286 1_545 S
O146 C157 1.259 . S
O147 Co138 2.069 1_545 S
O147 C157 1.289 . S
O148 Co138 2.015 . S
O148 C158 1.257 . S
O149 Co134 2.111 . S
O149 C159 1.274 . S
O150 Co139 1.976 1_455 S
O150 C159 1.251 . S
O151 Co138 2.264 . S
O151 Co139 2.327 1_455 S
O151 C160 1.257 1_455 S
O152 Co139 2.073 . S
O152 C160 1.245 . S
C153 O161 1.259 . S
C153 O162 1.289 . S
C154 O163 1.246 . S
C154 O164 1.257 . S
C155 O143 1.251 . S
C155 O144 1.274 . S
C156 O141 1.245 . S
C156 O142 1.257 . S
C157 O146 1.259 . S
C157 O147 1.289 . S
C158 O145 1.246 . S
C158 O148 1.257 . S
C159 O149 1.274 . S
C159 O150 1.251 . S
C160 O151 1.257 1_655 S
C160 O152 1.245 . S
O161 Co132 2.286 . S
O161 C153 1.259 . S
O162 Co132 2.069 . S
O162 C153 1.289 . S
O163 Co134 2.143 . S
O163 C154 1.246 . S
O164 Co132 2.015 . S
O164 C154 1.257 . S
Co165 O168 2.042 . S
Co165 O175 2.264 . S
Co165 O194 2.286 . S
Co165 O195 2.069 . S
Co165 O197 2.015 . S
Co166 O168 2.122 1_565 S
Co166 O174 2.073 . S
Co166 O175 2.327 1_565 S
Co166 O176 1.976 1_565 S
Co167 O168 2.087 . S
Co167 O170 2.087 . S
Co167 O177 2.111 . S
Co167 O178 2.143 . S
Co167 O182 2.111 . S
Co167 O196 2.143 . S
O168 Co165 2.042 . S
O168 Co166 2.122 1_545 S
O168 Co167 2.087 . S
O168 H169 0.980 . S
H169 O168 0.980 . S
O170 Co167 2.087 . S
O170 Co171 2.042 . S
O170 Co172 2.122 . S
O170 H173 0.980 . S
Co171 O170 2.042 . S
Co171 O179 2.286 . S
Co171 O180 2.069 . S
Co171 O181 2.015 . S
Co171 O184 2.264 . S
Co172 O170 2.122 . S
Co172 O183 1.976 . S
Co172 O184 2.327 . S
Co172 O185 2.073 . S
H173 O170 0.980 . S
O174 Co166 2.073 . S
O174 C189 1.245 . S
O175 Co165 2.264 . S
O175 Co166 2.327 1_545 S
O175 C189 1.257 1_545 S
O176 Co166 1.976 1_545 S
O176 C188 1.251 . S
O177 Co167 2.111 . S
O177 C188 1.274 . S
O178 Co167 2.143 . S
O178 C191 1.246 . S
O179 Co171 2.286 . S
O179 C190 1.259 . S
O180 Co171 2.069 . S
O180 C190 1.289 . S
O181 Co171 2.015 . S
O181 C191 1.257 . S
O182 Co167 2.111 . S
O182 C192 1.274 . S
O183 Co172 1.976 . S
O183 C192 1.251 . S
O184 Co171 2.264 . S
O184 Co172 2.327 . S
O184 C193 1.257 . S
O185 Co172 2.073 . S
O185 C193 1.245 . S
C186 O194 1.259 . S
C186 O195 1.289 . S
C187 O196 1.246 . S
C187 O197 1.257 . S
C188 O176 1.251 . S
C188 O177 1.274 . S
C189 O174 1.245 . S
C189 O175 1.257 1_565 S
C190 O179 1.259 . S
C190 O180 1.289 . S
C191 O178 1.246 . S
C191 O181 1.257 . S
C192 O182 1.274 . S
C192 O183 1.251 . S
C193 O184 1.257 . S
C193 O185 1.245 . S
O194 Co165 2.286 . S
O194 C186 1.259 . S
O195 Co165 2.069 . S
O195 C186 1.289 . S
O196 Co167 2.143 . S
O196 C187 1.246 . S
O197 Co165 2.015 . S
O197 C187 1.257 . S
C24 C153 2.208 . S
C190 C61 2.209 . S
C21 C90 2.208 . S
C58 C127 2.208 . S
C156 C87 2.209 . S
C193 C124 2.208 . S
C28 C157 0.615 . S
C57 C186 0.615 . S
C25 C94 0.615 . S
C54 C123 0.615 . S
C91 C160 0.615 . S
C189 C120 0.615 . S
C27 C187 2.832 1_554 S
C59 C23 4.103 1_655 S
C93 C55 2.832 1_564 S
C125 C89 4.103 . S
C121 C159 2.832 1_656 S
C191 C155 4.103 1_545 S
C122 C92 2.832 1_556 S
C154 C126 4.103 1_455 S
C188 C158 2.832 1_546 S
C192 C22 4.103 . S
C26 C56 2.832 1_454 S
C60 C88 4.103 1_545 S
