# Generated by pormake.
# Topology bcg, (8)-cn, num edge types: 1
# Building blocks:
#     Node 0, Type 0, BuildingBlock: LIZSOE_clean_sbu_0, # of connection points: 8
#     Node 1, Type 0, BuildingBlock: LIZSOE_clean_sbu_0, # of connection points: 8
#     Node 2, Type 0, BuildingBlock: LIZSOE_clean_sbu_0, # of connection points: 8
#     Node 3, Type 0, BuildingBlock: LIZSOE_clean_sbu_0, # of connection points: 8
#     Edge 4, Type (0, 0), BuildingBlock: EYOCIG_clean_linker_4, # of connection points: 2
#     Edge 5, Type (0, 0), BuildingBlock: EYOCIG_clean_linker_4, # of connection points: 2
#     Edge 6, Type (0, 0), BuildingBlock: EYOCIG_clean_linker_4, # of connection points: 2
#     Edge 7, Type (0, 0), BuildingBlock: EYOCIG_clean_linker_4, # of connection points: 2
#     Edge 8, Type (0, 0), BuildingBlock: EYOCIG_clean_linker_4, # of connection points: 2
#     Edge 9, Type (0, 0), BuildingBlock: EYOCIG_clean_linker_4, # of connection points: 2
#     Edge 10, Type (0, 0), BuildingBlock: EYOCIG_clean_linker_4, # of connection points: 2
#     Edge 11, Type (0, 0), BuildingBlock: EYOCIG_clean_linker_4, # of connection points: 2
#     Edge 12, Type (0, 0), BuildingBlock: EYOCIG_clean_linker_4, # of connection points: 2
#     Edge 13, Type (0, 0), BuildingBlock: EYOCIG_clean_linker_4, # of connection points: 2
#     Edge 14, Type (0, 0), BuildingBlock: EYOCIG_clean_linker_4, # of connection points: 2
#     Edge 15, Type (0, 0), BuildingBlock: EYOCIG_clean_linker_4, # of connection points: 2
#     Edge 16, Type (0, 0), BuildingBlock: EYOCIG_clean_linker_4, # of connection points: 2
#     Edge 17, Type (0, 0), BuildingBlock: EYOCIG_clean_linker_4, # of connection points: 2
#     Edge 18, Type (0, 0), BuildingBlock: EYOCIG_clean_linker_4, # of connection points: 2
#     Edge 19, Type (0, 0), BuildingBlock: EYOCIG_clean_linker_4, # of connection points: 2
# Relax obj value: 0.305
# Max RMSD: 0.336
# Mean RMSD: 0.336
data_MOF--net-bcg--node1-LIZSOE_clean_sbu_0--edge1-EYOCIG_clean_linker_4
_symmetry_space_group_name_H-M    P1
_symmetry_Int_Tables_number       1
_symmetry_cell_setting            triclinic
loop_
_symmetry_equiv_pos_as_xyz
'x, y, z'
_cell_length_a     18.156404
_cell_length_b     17.230451
_cell_length_c     17.094875
_cell_angle_alpha  89.991406
_cell_angle_beta   89.437378
_cell_angle_gamma 90.013167
loop_
_atom_site_label
_atom_site_type_symbol
_atom_site_fract_x
_atom_site_fract_y
_atom_site_fract_z
_atom_type_partial_charge
Co0 Co 0.10034 0.28289 0.99116 0.0
N1 N 1.00554 0.24726 1.01236 0.0
C2 C 0.96495 0.26374 0.07708 0.0
N3 N 0.90341 0.17596 1.0128 0.0
C4 C 0.96615 0.19212 0.97492 0.0
C5 C 0.90193 0.22028 0.07714 0.0
Co6 Co 0.42982 0.24347 0.10004 0.0
N7 N 0.52996 0.25089 0.08237 0.0
N8 N 0.6248 0.25057 1.0006 0.0
C9 C 0.62725 0.31762 0.04001 0.0
C10 C 0.56878 0.31746 0.09128 0.0
C11 C 0.56865 0.20928 0.02941 0.0
Co12 Co 0.26516 0.27124 0.03717 0.0
C13 C 0.39474 0.18907 0.14057 0.0
H14 H 0.55333 0.36516 0.1291 0.0
O15 O 0.18936 0.31424 0.96286 0.0
O16 O 0.32205 0.23612 0.93967 0.0
O17 O 0.21957 0.16068 0.03732 0.0
O18 O 0.19903 0.31297 0.13033 0.0
O19 O 0.09548 0.35735 0.07204 0.0
O20 O 0.42845 0.24682 0.99304 0.0
O21 O 0.33741 0.23335 0.1204 0.0
O22 O 0.42311 0.34971 0.10284 0.0
O23 O 0.1193 0.21174 0.07212 0.0
O24 O 0.12103 0.21064 0.9187 0.0
O25 O 0.32259 0.37664 0.03166 0.0
O26 O 0.42507 0.13868 0.09421 0.0
C27 C 0.15419 0.15145 0.06151 0.0
C28 C 0.55195 0.12655 1.00529 0.0
H29 H 0.4986 0.12273 0.97486 0.0
H30 H 0.59369 0.10194 0.9647 0.0
H31 H 0.54982 0.08906 0.058 0.0
C32 C 0.39143 0.23965 0.93315 0.0
C33 C 0.13556 0.34937 0.13295 0.0
H34 H 0.97821 0.30649 0.12053 0.0
H35 H 1.00039 0.20155 0.8541 0.0
H36 H 0.93825 0.12339 0.87109 0.0
H37 H 0.0297 0.11359 0.90279 0.0
C38 C 0.98464 0.15631 0.89648 0.0
C39 C 0.1336 0.28455 0.9224 0.0
C40 C 0.38544 0.39611 0.06238 0.0
H41 H 0.85519 0.22715 0.11641 0.0
H42 H 0.66921 0.36194 0.03376 0.0
Co43 Co 0.5993 0.78049 0.99172 0.0
N44 N 0.50512 0.74187 1.01315 0.0
C45 C 0.46828 0.74971 0.082 0.0
N46 N 0.40667 0.66466 1.01457 0.0
C47 C 0.46501 0.68917 0.97309 0.0
C48 C 0.40761 0.70259 0.08276 0.0
Co49 Co 0.93383 0.74046 0.09362 0.0
N50 N 0.03457 0.74513 0.07091 0.0
N51 N 0.12574 0.72861 0.985 0.0
C52 C 0.12665 0.80324 1.00642 0.0
C53 C 0.07111 0.81316 0.06023 0.0
C54 C 0.07286 0.69357 0.02707 0.0
Co55 Co 0.7657 0.77203 0.03602 0.0
C56 C 0.89818 0.68971 0.13792 0.0
H57 H 0.0568 0.86799 0.08684 0.0
O58 O 0.68764 0.81505 0.96385 0.0
O59 O 0.82244 0.7448 0.93594 0.0
O60 O 0.72356 0.65997 0.0307 0.0
O61 O 0.69919 0.8073 0.13117 0.0
O62 O 0.59415 0.85115 0.07519 0.0
O63 O 0.92936 0.73743 0.98881 0.0
O64 O 0.84094 0.73375 0.11711 0.0
O65 O 0.92821 0.84646 0.08935 0.0
O66 O 0.62205 0.70616 0.0688 0.0
O67 O 0.61975 0.71222 0.91594 0.0
O68 O 0.81901 0.87952 0.03693 0.0
O69 O 0.92633 0.63613 0.09369 0.0
C70 C 0.65832 0.64749 0.05409 0.0
C71 C 0.06006 0.60702 0.02621 0.0
H72 H 1.01196 0.59349 0.98909 0.0
H73 H 0.10756 0.57436 1.00182 0.0
H74 H 0.05042 0.58554 0.08661 0.0
C75 C 0.8915 0.73746 0.92943 0.0
C76 C 0.63538 0.84285 0.13509 0.0
H77 H 0.48352 0.78741 0.12914 0.0
H78 H 0.49712 0.70926 0.85307 0.0
H79 H 0.43273 0.63228 0.86422 0.0
H80 H 0.52506 0.61657 0.89252 0.0
C81 C 0.48081 0.66081 0.89126 0.0
C82 C 0.63235 0.78612 0.92206 0.0
C83 C 0.88491 0.89649 0.06144 0.0
H84 H 0.3644 0.70125 0.12687 0.0
H85 H 0.16629 0.84632 0.98705 0.0
Co86 Co 0.43432 0.78661 0.5799 0.0
N87 N 0.52939 0.75054 0.55799 0.0
C88 C 0.56745 0.7632 0.49062 0.0
N89 N 0.62711 0.67252 0.5524 0.0
C90 C 0.56878 0.69507 0.59502 0.0
C91 C 0.6276 0.7154 0.48722 0.0
Co92 Co 0.09973 0.74227 0.48106 0.0
N93 N 0.99922 0.7453 0.50615 0.0
N94 N 0.90909 0.71952 0.59118 0.0
C95 C 0.9091 0.79623 0.57956 0.0
C96 C 0.96393 0.81197 0.52648 0.0
C97 C 0.96081 0.68926 0.54392 0.0
Co98 Co 0.26795 0.77568 0.53633 0.0
C99 C 0.13553 0.69167 0.43687 0.0
H100 H 0.97819 0.86951 0.50692 0.0
O101 O 0.34575 0.81916 0.60842 0.0
O102 O 0.21262 0.74725 0.63693 0.0
O103 O 0.3116 0.66442 0.54027 0.0
O104 O 0.33352 0.81173 0.44093 0.0
O105 O 0.4376 0.85808 0.49678 0.0
O106 O 0.10516 0.74033 0.58558 0.0
O107 O 0.19253 0.73679 0.45587 0.0
O108 O 0.10404 0.84838 0.48352 0.0
O109 O 0.41309 0.71195 0.50249 0.0
O110 O 0.41504 0.71675 0.65478 0.0
O111 O 0.21321 0.88246 0.53583 0.0
O112 O 0.10911 0.63816 0.48245 0.0
C113 C 0.37679 0.65292 0.51606 0.0
C114 C 0.97057 0.60313 0.53176 0.0
H115 H 1.01443 0.58142 0.57086 0.0
H116 H 0.91992 0.56998 0.54623 0.0
H117 H 0.98469 0.59057 0.46979 0.0
C118 C 0.14364 0.74029 0.64442 0.0
C119 C 0.39686 0.84812 0.43672 0.0
H120 H 0.55364 0.80498 0.44654 0.0
H121 H 0.53701 0.71055 0.71584 0.0
H122 H 0.60153 0.63431 0.70169 0.0
H123 H 0.50914 0.61921 0.67312 0.0
C124 C 0.55327 0.66351 0.67578 0.0
C125 C 0.40151 0.79043 0.64972 0.0
C126 C 0.14718 0.89884 0.51112 0.0
H127 H 0.6712 0.71634 0.44354 0.0
H128 H 0.8702 0.83711 0.60464 0.0
Co129 Co 0.60051 0.23952 0.4778 0.0
N130 N 0.50048 0.24161 0.49997 0.0
C131 C 0.4603 0.30796 0.50202 0.0
N132 N 0.40825 0.22823 0.58449 0.0
C133 C 0.46426 0.19259 0.5484 0.0
C134 C 0.4037 0.29997 0.5549 0.0
Co135 Co 0.93254 0.28434 0.58052 0.0
N136 N 0.02749 0.24798 0.56026 0.0
N137 N 0.12827 0.1747 0.55985 0.0
C138 C 0.13102 0.21927 0.49578 0.0
C139 C 0.06866 0.26393 0.49574 0.0
C140 C 0.06622 0.19258 0.59819 0.0
Co141 Co 0.7673 0.27352 0.53545 0.0
C142 C 0.89945 0.28697 0.64912 0.0
H143 H 0.05577 0.30645 0.45185 0.0
O144 O 0.69302 0.235 0.45389 0.0
O145 O 0.81216 0.16257 0.53676 0.0
O146 O 0.71172 0.2421 0.63553 0.0
O147 O 0.71102 0.37943 0.53786 0.0
O148 O 0.60349 0.34566 0.48212 0.0
O149 O 0.9129 0.21229 0.50055 0.0
O150 O 0.84408 0.31693 0.60821 0.0
O151 O 0.93761 0.35738 0.49844 0.0
O152 O 0.6048 0.23722 0.58313 0.0
O153 O 0.61005 0.13509 0.47765 0.0
O154 O 0.83341 0.31285 0.44102 0.0
O155 O 0.91111 0.21298 0.65381 0.0
C156 C 0.64254 0.23605 0.64259 0.0
C157 C 0.04668 0.15649 0.6762 0.0
H158 H 1.00153 0.11395 0.66909 0.0
H159 H 0.09274 0.12363 0.70224 0.0
H160 H 0.03047 0.20152 0.71856 0.0
C161 C 0.87729 0.15253 0.51182 0.0
C162 C 0.64507 0.39565 0.51288 0.0
H163 H 0.47305 0.36059 0.47024 0.0
H164 H 0.489 0.07853 0.50347 0.0
H165 H 0.44057 0.0764 0.59498 0.0
H166 H 0.53521 0.10294 0.59375 0.0
C167 C 0.48315 0.10808 0.56084 0.0
C168 C 0.63686 0.18925 0.43324 0.0
C169 C 0.89713 0.34899 0.43783 0.0
H170 H 0.36098 0.34198 0.56812 0.0
H171 H 0.17752 0.22404 0.4559 0.0
C172 C 0.72194 0.17812 0.92187 0.0
C173 C 0.68036 0.21884 0.9561 0.0
C174 C 0.78738 0.14192 0.93657 0.0
C175 C 0.84142 0.15743 0.97114 0.0
C176 C 0.22539 0.64501 0.92107 0.0
C177 C 0.18187 0.6897 0.94701 0.0
C178 C 0.29244 0.6155 0.94309 0.0
C179 C 0.3435 0.63782 0.97955 0.0
C180 C 0.73832 0.60963 0.61852 0.0
C181 C 0.68855 0.63865 0.58482 0.0
C182 C 0.80682 0.63172 0.64406 0.0
C183 C 0.85192 0.67739 0.62349 0.0
C184 C 0.24013 0.12205 0.63295 0.0
C185 C 0.18911 0.14657 0.5981 0.0
C186 C 0.30895 0.14751 0.65276 0.0
C187 C 0.35264 0.18917 0.62272 0.0
C188 C 0.55856 0.53759 0.03643 0.0
C189 C 0.61447 0.57747 0.0403 0.0
C190 C 0.48665 0.50116 0.03481 0.0
C191 C 0.42954 0.46313 0.03863 0.0
C192 C 0.54834 0.50619 0.53153 0.0
C193 C 0.60462 0.46685 0.52972 0.0
C194 C 0.47666 0.54285 0.52985 0.0
C195 C 0.42073 0.58267 0.52737 0.0
C196 C 0.05162 0.04406 0.05024 0.0
C197 C 0.10865 0.08213 0.05213 0.0
C198 C 0.97924 0.00913 0.04768 0.0
C199 C 0.92312 0.96958 0.04772 0.0
C200 C 0.97959 0.04516 0.52198 0.0
C201 C 0.92234 0.08287 0.52077 0.0
C202 C 0.0523 0.01097 0.52412 0.0
C203 C 0.10865 0.97181 0.52427 0.0
C204 C 0.54709 0.19586 0.31125 0.0
C205 C 0.59666 0.19985 0.35851 0.0
C206 C 0.48209 0.19485 0.2645 0.0
C207 C 0.43278 0.19819 0.21689 0.0
C208 C 0.54751 0.85794 0.25934 0.0
C209 C 0.5955 0.84977 0.20934 0.0
C210 C 0.48552 0.85902 0.31252 0.0
C211 C 0.43742 0.8526 0.36268 0.0
C212 C 0.48729 0.8514 0.75845 0.0
C213 C 0.4416 0.83672 0.7082 0.0
C214 C 0.54614 0.85006 0.81489 0.0
C215 C 0.59162 0.83333 0.86472 0.0
C216 C 0.48524 0.22921 0.81336 0.0
C217 C 0.43391 0.23252 0.86036 0.0
C218 C 0.5499 0.22872 0.76342 0.0
C219 C 0.60104 0.23164 0.71617 0.0
C220 C 0.04742 0.69815 0.31279 0.0
C221 C 0.09527 0.70156 0.36202 0.0
C222 C 0.98459 0.69802 0.26286 0.0
C223 C 0.93693 0.70084 0.21338 0.0
C224 C 0.98576 0.36256 0.31289 0.0
C225 C 0.93828 0.35505 0.36384 0.0
C226 C 0.04663 0.36285 0.25774 0.0
C227 C 0.09413 0.35548 0.20679 0.0
C228 C 0.0466 0.34512 0.81361 0.0
C229 C 0.09251 0.32992 0.86358 0.0
C230 C 0.98729 0.34611 0.75758 0.0
C231 C 0.941 0.33215 0.70766 0.0
C232 C 0.05108 0.73234 0.76368 0.0
C233 C 0.103 0.73577 0.71789 0.0
C234 C 0.98511 0.73166 0.81081 0.0
C235 C 0.93298 0.7341 0.85638 0.0
loop_
_geom_bond_atom_site_label_1
_geom_bond_atom_site_label_2
_geom_bond_distance
_geom_bond_site_symmetry_2
_ccdc_geom_bond_type
Co0 N1 2.034 1_455 S
Co0 O15 2.262 1_554 S
Co0 O19 1.958 . S
Co0 O23 1.951 . S
Co0 O24 2.057 1_554 S
N1 Co0 2.034 1_655 S
N1 C2 1.366 . S
N1 C4 1.332 1_554 S
C2 N1 1.366 . S
C2 C5 1.377 . S
C2 H34 0.931 . S
N3 C4 1.346 1_554 S
N3 C5 1.337 . S
C4 N1 1.332 1_556 S
C4 N3 1.346 1_556 S
C4 C38 1.361 . S
C5 C2 1.377 . S
C5 N3 1.337 . S
C5 H41 0.930 . S
Co6 N7 2.034 1_554 S
Co6 O20 1.950 1_554 S
Co6 O21 2.262 . S
Co6 O22 1.958 . S
Co6 O26 2.057 . S
N7 Co6 2.034 1_556 S
N7 C10 1.366 . S
N7 C11 1.332 . S
N8 C9 1.337 . S
N8 C11 1.346 . S
C9 N8 1.337 . S
C9 C10 1.377 . S
C9 H42 0.930 . S
C10 N7 1.366 . S
C10 C9 1.377 . S
C10 H14 0.931 1_556 S
C11 N7 1.332 . S
C11 N8 1.346 . S
C11 C28 1.361 . S
Co12 O15 2.097 1_554 S
Co12 O16 2.065 1_554 S
Co12 O17 2.065 . S
Co12 O18 2.042 . S
Co12 O21 2.097 . S
Co12 O25 2.042 1_554 S
C13 O21 1.253 . S
C13 O26 1.263 . S
H14 C10 0.931 1_554 S
O15 Co0 2.262 1_556 S
O15 Co12 2.097 1_556 S
O15 C39 1.253 . S
O16 Co12 2.065 1_556 S
O16 C32 1.221 . S
O17 Co12 2.065 . S
O17 C27 1.221 . S
O18 Co12 2.042 . S
O18 C33 1.237 . S
O19 Co0 1.958 . S
O19 C33 1.278 . S
O20 Co6 1.950 1_556 S
O20 C32 1.277 . S
O21 Co6 2.262 . S
O21 Co12 2.097 . S
O21 C13 1.253 . S
O22 Co6 1.958 . S
O22 C40 1.278 . S
O23 Co0 1.951 . S
O23 C27 1.278 . S
O24 Co0 2.057 1_556 S
O24 C39 1.263 . S
O25 Co12 2.042 1_556 S
O25 C40 1.237 1_556 S
O26 Co6 2.057 . S
O26 C13 1.263 . S
C27 O17 1.221 . S
C27 O23 1.278 . S
C28 C11 1.361 . S
C28 H29 0.960 . S
C28 H30 0.961 . S
C28 H31 0.961 1_556 S
H29 C28 0.960 . S
H30 C28 0.961 . S
H31 C28 0.961 1_554 S
C32 O16 1.221 . S
C32 O20 1.277 . S
C33 O18 1.237 . S
C33 O19 1.278 . S
H34 C2 0.931 . S
H35 C38 0.961 . S
H36 C38 0.961 . S
H37 C38 0.960 . S
C38 C4 1.361 . S
C38 H35 0.961 . S
C38 H36 0.961 . S
C38 H37 0.960 . S
C39 O15 1.253 . S
C39 O24 1.263 . S
C40 O22 1.278 . S
C40 O25 1.237 1_554 S
H41 C5 0.930 . S
H42 C9 0.930 . S
Co43 N44 2.034 . S
Co43 O58 2.262 1_554 S
Co43 O62 1.958 . S
Co43 O66 1.951 . S
Co43 O67 2.057 1_554 S
N44 Co43 2.034 . S
N44 C45 1.366 . S
N44 C47 1.332 1_554 S
C45 N44 1.366 . S
C45 C48 1.377 . S
C45 H77 0.931 . S
N46 C47 1.346 1_554 S
N46 C48 1.337 . S
C47 N44 1.332 1_556 S
C47 N46 1.346 1_556 S
C47 C81 1.361 . S
C48 C45 1.377 . S
C48 N46 1.337 . S
C48 H84 0.930 . S
Co49 N50 2.034 1_654 S
Co49 O63 1.950 1_554 S
Co49 O64 2.262 . S
Co49 O65 1.958 . S
Co49 O69 2.057 . S
N50 Co49 2.034 1_456 S
N50 C53 1.366 . S
N50 C54 1.332 . S
N51 C52 1.337 . S
N51 C54 1.346 . S
C52 N51 1.337 . S
C52 C53 1.377 . S
C52 H85 0.930 . S
C53 N50 1.366 . S
C53 C52 1.377 . S
C53 H57 0.931 1_556 S
C54 N50 1.332 . S
C54 N51 1.346 . S
C54 C71 1.361 . S
Co55 O58 2.097 1_554 S
Co55 O59 2.065 1_554 S
Co55 O60 2.065 . S
Co55 O61 2.042 . S
Co55 O64 2.097 . S
Co55 O68 2.042 1_554 S
C56 O64 1.253 . S
C56 O69 1.263 . S
H57 C53 0.931 1_554 S
O58 Co43 2.262 1_556 S
O58 Co55 2.097 1_556 S
O58 C82 1.253 . S
O59 Co55 2.065 1_556 S
O59 C75 1.221 . S
O60 Co55 2.065 . S
O60 C70 1.221 . S
O61 Co55 2.042 . S
O61 C76 1.237 . S
O62 Co43 1.958 . S
O62 C76 1.278 . S
O63 Co49 1.950 1_556 S
O63 C75 1.277 . S
O64 Co49 2.262 . S
O64 Co55 2.097 . S
O64 C56 1.253 . S
O65 Co49 1.958 . S
O65 C83 1.278 . S
O66 Co43 1.951 . S
O66 C70 1.278 . S
O67 Co43 2.057 1_556 S
O67 C82 1.263 . S
O68 Co55 2.042 1_556 S
O68 C83 1.237 1_556 S
O69 Co49 2.057 . S
O69 C56 1.263 . S
C70 O60 1.221 . S
C70 O66 1.278 . S
C71 C54 1.361 . S
C71 H72 0.960 . S
C71 H73 0.961 . S
C71 H74 0.961 1_556 S
H72 C71 0.960 . S
H73 C71 0.961 . S
H74 C71 0.961 1_554 S
C75 O59 1.221 . S
C75 O63 1.277 . S
C76 O61 1.237 . S
C76 O62 1.278 . S
H77 C45 0.931 . S
H78 C81 0.961 . S
H79 C81 0.961 . S
H80 C81 0.960 . S
C81 C47 1.361 . S
C81 H78 0.961 . S
C81 H79 0.961 . S
C81 H80 0.960 . S
C82 O58 1.253 . S
C82 O67 1.263 . S
C83 O65 1.278 . S
C83 O68 1.237 1_554 S
H84 C48 0.930 . S
H85 C52 0.930 . S
Co86 N87 2.034 . S
Co86 O101 2.262 . S
Co86 O105 1.958 . S
Co86 O109 1.950 . S
Co86 O110 2.057 . S
N87 Co86 2.034 . S
N87 C88 1.366 . S
N87 C90 1.332 . S
C88 N87 1.366 . S
C88 C91 1.377 . S
C88 H120 0.931 . S
N89 C90 1.346 . S
N89 C91 1.337 . S
C90 N87 1.332 . S
C90 N89 1.346 . S
C90 C124 1.361 . S
C91 C88 1.377 . S
C91 N89 1.337 . S
C91 H127 0.930 . S
Co92 N93 2.034 1_455 S
Co92 O106 1.950 . S
Co92 O107 2.262 . S
Co92 O108 1.958 . S
Co92 O112 2.057 . S
N93 Co92 2.034 1_655 S
N93 C96 1.366 . S
N93 C97 1.332 . S
N94 C95 1.337 . S
N94 C97 1.346 . S
C95 N94 1.337 . S
C95 C96 1.377 . S
C95 H128 0.930 . S
C96 N93 1.366 . S
C96 C95 1.377 . S
C96 H100 0.931 . S
C97 N93 1.332 . S
C97 N94 1.346 . S
C97 C114 1.361 . S
Co98 O101 2.097 . S
Co98 O102 2.065 . S
Co98 O103 2.065 . S
Co98 O104 2.042 . S
Co98 O107 2.097 . S
Co98 O111 2.042 . S
C99 O107 1.253 . S
C99 O112 1.263 . S
H100 C96 0.931 . S
O101 Co86 2.262 . S
O101 Co98 2.097 . S
O101 C125 1.253 . S
O102 Co98 2.065 . S
O102 C118 1.221 . S
O103 Co98 2.065 . S
O103 C113 1.221 . S
O104 Co98 2.042 . S
O104 C119 1.237 . S
O105 Co86 1.958 . S
O105 C119 1.278 . S
O106 Co92 1.950 . S
O106 C118 1.277 . S
O107 Co92 2.262 . S
O107 Co98 2.097 . S
O107 C99 1.253 . S
O108 Co92 1.958 . S
O108 C126 1.278 . S
O109 Co86 1.950 . S
O109 C113 1.277 . S
O110 Co86 2.057 . S
O110 C125 1.263 . S
O111 Co98 2.042 . S
O111 C126 1.237 . S
O112 Co92 2.057 . S
O112 C99 1.263 . S
C113 O103 1.221 . S
C113 O109 1.277 . S
C114 C97 1.361 . S
C114 H115 0.960 . S
C114 H116 0.961 . S
C114 H117 0.961 . S
H115 C114 0.960 . S
H116 C114 0.961 . S
H117 C114 0.961 . S
C118 O102 1.221 . S
C118 O106 1.277 . S
C119 O104 1.237 . S
C119 O105 1.278 . S
H120 C88 0.931 . S
H121 C124 0.961 . S
H122 C124 0.961 . S
H123 C124 0.960 . S
C124 C90 1.361 . S
C124 H121 0.961 . S
C124 H122 0.961 . S
C124 H123 0.960 . S
C125 O101 1.253 . S
C125 O110 1.263 . S
C126 O108 1.278 . S
C126 O111 1.237 . S
H127 C91 0.930 . S
H128 C95 0.930 . S
Co129 N130 2.034 . S
Co129 O144 2.262 . S
Co129 O148 1.958 . S
Co129 O152 1.950 . S
Co129 O153 2.057 . S
N130 Co129 2.034 . S
N130 C131 1.366 . S
N130 C133 1.332 . S
C131 N130 1.366 . S
C131 C134 1.377 . S
C131 H163 0.931 . S
N132 C133 1.346 . S
N132 C134 1.337 . S
C133 N130 1.332 . S
C133 N132 1.346 . S
C133 C167 1.361 . S
C134 C131 1.377 . S
C134 N132 1.337 . S
C134 H170 0.930 . S
Co135 N136 2.034 1_655 S
Co135 O149 1.950 . S
Co135 O150 2.262 . S
Co135 O151 1.958 . S
Co135 O155 2.057 . S
N136 Co135 2.034 1_455 S
N136 C139 1.366 . S
N136 C140 1.332 . S
N137 C138 1.337 . S
N137 C140 1.346 . S
C138 N137 1.337 . S
C138 C139 1.377 . S
C138 H171 0.930 . S
C139 N136 1.366 . S
C139 C138 1.377 . S
C139 H143 0.931 . S
C140 N136 1.332 . S
C140 N137 1.346 . S
C140 C157 1.361 . S
Co141 O144 2.097 . S
Co141 O145 2.065 . S
Co141 O146 2.065 . S
Co141 O147 2.042 . S
Co141 O150 2.097 . S
Co141 O154 2.042 . S
C142 O150 1.253 . S
C142 O155 1.263 . S
H143 C139 0.931 . S
O144 Co129 2.262 . S
O144 Co141 2.097 . S
O144 C168 1.253 . S
O145 Co141 2.065 . S
O145 C161 1.221 . S
O146 Co141 2.065 . S
O146 C156 1.221 . S
O147 Co141 2.042 . S
O147 C162 1.237 . S
O148 Co129 1.958 . S
O148 C162 1.278 . S
O149 Co135 1.950 . S
O149 C161 1.277 . S
O150 Co135 2.262 . S
O150 Co141 2.097 . S
O150 C142 1.253 . S
O151 Co135 1.958 . S
O151 C169 1.278 . S
O152 Co129 1.950 . S
O152 C156 1.277 . S
O153 Co129 2.057 . S
O153 C168 1.263 . S
O154 Co141 2.042 . S
O154 C169 1.237 . S
O155 Co135 2.057 . S
O155 C142 1.263 . S
C156 O146 1.221 . S
C156 O152 1.277 . S
C157 C140 1.361 . S
C157 H158 0.960 . S
C157 H159 0.961 . S
C157 H160 0.961 . S
H158 C157 0.960 . S
H159 C157 0.961 . S
H160 C157 0.961 . S
C161 O145 1.221 . S
C161 O149 1.277 . S
C162 O147 1.237 . S
C162 O148 1.278 . S
H163 C131 0.931 . S
H164 C167 0.961 . S
H165 C167 0.961 . S
H166 C167 0.960 . S
C167 C133 1.361 . S
C167 H164 0.961 . S
C167 H165 0.961 . S
C167 H166 0.960 . S
C168 O144 1.253 . S
C168 O153 1.263 . S
C169 O151 1.278 . S
C169 O154 1.237 . S
H170 C134 0.930 . S
H171 C138 0.930 . S
C172 C173 1.170 . S
C172 C174 1.380 1_554 S
C173 C172 1.170 . S
C174 C172 1.380 1_556 S
C174 C175 1.170 . S
C175 C174 1.170 . S
C176 C177 1.170 1_556 S
C176 C178 1.380 . S
C177 C176 1.170 1_554 S
C178 C176 1.380 . S
C178 C179 1.170 . S
C179 C178 1.170 . S
C180 C181 1.170 . S
C180 C182 1.380 . S
C181 C180 1.170 . S
C182 C180 1.380 . S
C182 C183 1.170 . S
C183 C182 1.170 . S
C184 C185 1.170 . S
C184 C186 1.380 . S
C185 C184 1.170 . S
C186 C184 1.380 . S
C186 C187 1.170 . S
C187 C186 1.170 . S
C188 C189 1.170 . S
C188 C190 1.380 . S
C189 C188 1.170 . S
C190 C188 1.380 . S
C190 C191 1.170 1_556 S
C191 C190 1.170 1_554 S
C192 C193 1.170 . S
C192 C194 1.380 . S
C193 C192 1.170 . S
C194 C192 1.380 . S
C194 C195 1.170 . S
C195 C194 1.170 . S
C196 C197 1.170 . S
C196 C198 1.380 1_455 S
C197 C196 1.170 . S
C198 C196 1.380 1_655 S
C198 C199 1.170 1_545 S
C199 C198 1.170 1_565 S
C200 C201 1.170 . S
C200 C202 1.380 1_655 S
C201 C200 1.170 . S
C202 C200 1.380 1_455 S
C202 C203 1.170 1_545 S
C203 C202 1.170 1_565 S
C204 C205 1.170 . S
C204 C206 1.380 . S
C205 C204 1.170 . S
C206 C204 1.380 . S
C206 C207 1.170 . S
C207 C206 1.170 . S
C208 C209 1.170 . S
C208 C210 1.380 . S
C209 C208 1.170 . S
C210 C208 1.380 . S
C210 C211 1.170 . S
C211 C210 1.170 . S
C212 C213 1.170 . S
C212 C214 1.380 . S
C213 C212 1.170 . S
C214 C212 1.380 . S
C214 C215 1.170 . S
C215 C214 1.170 . S
C216 C217 1.170 . S
C216 C218 1.380 . S
C217 C216 1.170 . S
C218 C216 1.380 . S
C218 C219 1.170 . S
C219 C218 1.170 . S
C220 C221 1.170 . S
C220 C222 1.380 1_455 S
C221 C220 1.170 . S
C222 C220 1.380 1_655 S
C222 C223 1.170 . S
C223 C222 1.170 . S
C224 C225 1.170 . S
C224 C226 1.380 1_655 S
C225 C224 1.170 . S
C226 C224 1.380 1_455 S
C226 C227 1.170 . S
C227 C226 1.170 . S
C228 C229 1.170 . S
C228 C230 1.380 1_455 S
C229 C228 1.170 . S
C230 C228 1.380 1_655 S
C230 C231 1.170 . S
C231 C230 1.170 . S
C232 C233 1.170 . S
C232 C234 1.380 1_455 S
C233 C232 1.170 . S
C234 C232 1.380 1_655 S
C234 C235 1.170 . S
C235 C234 1.170 . S
C173 N8 0.487 1_554 S
C175 N3 0.562 1_556 S
C177 N51 0.485 1_554 S
C179 N46 0.623 1_556 S
C181 N89 0.637 . S
C183 N94 0.408 . S
C185 N137 0.687 . S
C187 N132 0.374 . S
C189 C70 1.664 1_556 S
C191 C40 1.693 . S
C193 C162 1.699 . S
C195 C113 1.644 . S
C197 C27 1.648 . S
C199 C83 1.699 . S
C201 C161 1.643 . S
C203 C126 1.673 . S
C205 C168 1.692 . S
C207 C13 1.752 . S
C209 C76 1.608 . S
C211 C119 1.627 . S
C213 C125 1.630 . S
C215 C82 1.604 . S
C217 C32 1.727 . S
C219 C156 1.726 . S
C221 C99 1.749 . S
C223 C56 1.712 . S
C225 C169 1.596 . S
C227 C33 1.652 . S
C229 C39 1.562 . S
C231 C142 1.595 . S
C233 C118 1.704 . S
C235 C75 1.678 . S
