# Generated by pormake.
# Topology ume, (4)-cn, num edge types: 1
# Building blocks:
#     Node 0, Type 0, BuildingBlock: CEKHIL_clean_sbu_0, # of connection points: 4
#     Node 1, Type 0, BuildingBlock: CEKHIL_clean_sbu_0, # of connection points: 4
#     Node 2, Type 0, BuildingBlock: CEKHIL_clean_sbu_0, # of connection points: 4
#     Node 3, Type 0, BuildingBlock: CEKHIL_clean_sbu_0, # of connection points: 4
#     Node 4, Type 0, BuildingBlock: CEKHIL_clean_sbu_0, # of connection points: 4
#     Node 5, Type 0, BuildingBlock: CEKHIL_clean_sbu_0, # of connection points: 4
#     Node 6, Type 0, BuildingBlock: CEKHIL_clean_sbu_0, # of connection points: 4
#     Node 7, Type 0, BuildingBlock: CEKHIL_clean_sbu_0, # of connection points: 4
#     Node 8, Type 0, BuildingBlock: CEKHIL_clean_sbu_0, # of connection points: 4
#     Node 9, Type 0, BuildingBlock: CEKHIL_clean_sbu_0, # of connection points: 4
#     Node 10, Type 0, BuildingBlock: CEKHIL_clean_sbu_0, # of connection points: 4
#     Node 11, Type 0, BuildingBlock: CEKHIL_clean_sbu_0, # of connection points: 4
#     Node 12, Type 0, BuildingBlock: CEKHIL_clean_sbu_0, # of connection points: 4
#     Node 13, Type 0, BuildingBlock: CEKHIL_clean_sbu_0, # of connection points: 4
#     Node 14, Type 0, BuildingBlock: CEKHIL_clean_sbu_0, # of connection points: 4
#     Node 15, Type 0, BuildingBlock: CEKHIL_clean_sbu_0, # of connection points: 4
#     Edge 16, Type (0, 0), None
#     Edge 17, Type (0, 0), None
#     Edge 18, Type (0, 0), None
#     Edge 19, Type (0, 0), None
#     Edge 20, Type (0, 0), None
#     Edge 21, Type (0, 0), None
#     Edge 22, Type (0, 0), None
#     Edge 23, Type (0, 0), None
#     Edge 24, Type (0, 0), None
#     Edge 25, Type (0, 0), None
#     Edge 26, Type (0, 0), None
#     Edge 27, Type (0, 0), None
#     Edge 28, Type (0, 0), None
#     Edge 29, Type (0, 0), None
#     Edge 30, Type (0, 0), None
#     Edge 31, Type (0, 0), None
#     Edge 32, Type (0, 0), None
#     Edge 33, Type (0, 0), None
#     Edge 34, Type (0, 0), None
#     Edge 35, Type (0, 0), None
#     Edge 36, Type (0, 0), None
#     Edge 37, Type (0, 0), None
#     Edge 38, Type (0, 0), None
#     Edge 39, Type (0, 0), None
#     Edge 40, Type (0, 0), None
#     Edge 41, Type (0, 0), None
#     Edge 42, Type (0, 0), None
#     Edge 43, Type (0, 0), None
#     Edge 44, Type (0, 0), None
#     Edge 45, Type (0, 0), None
#     Edge 46, Type (0, 0), None
#     Edge 47, Type (0, 0), None
# Relax obj value: 0.094
# Max RMSD: 0.131
# Mean RMSD: 0.131
data_MOF--net-ume--node1-CEKHIL_clean_sbu_0--edge1-none
_symmetry_space_group_name_H-M    P1
_symmetry_Int_Tables_number       1
_symmetry_cell_setting            triclinic
loop_
_symmetry_equiv_pos_as_xyz
'x, y, z'
_cell_length_a     12.648054
_cell_length_b     12.648054
_cell_length_c     46.403421
_cell_angle_alpha  89.993944
_cell_angle_beta   89.993944
_cell_angle_gamma 89.998099
loop_
_atom_site_label
_atom_site_type_symbol
_atom_site_fract_x
_atom_site_fract_y
_atom_site_fract_z
_atom_type_partial_charge
Co0 Co 0.21694 0.08402 0.31165 0.0
O1 O 0.06911 0.12054 0.31156 0.0
O2 O 0.13371 0.95818 0.3167 0.0
C3 C 0.26482 0.17907 0.27278 0.0
O4 O 0.36085 0.01393 0.31191 0.0
Co5 Co 0.39139 0.25355 0.32175 0.0
O6 O 0.48999 0.13627 0.31212 0.0
C7 C 0.26115 0.18117 0.3704 0.0
C8 C 0.05204 0.01991 0.31482 0.0
C9 C 0.4587 0.04058 0.31083 0.0
O10 O 0.22373 0.10617 0.35472 0.0
O11 O 0.32078 0.25476 0.36069 0.0
O12 O 0.21981 0.08761 0.26955 0.0
O13 O 0.26917 0.2147 0.29885 0.0
Co14 Co 0.91294 0.71696 0.56164 0.0
O15 O 0.87643 0.56914 0.56156 0.0
O16 O 0.03879 0.63373 0.5667 0.0
C17 C 0.81789 0.76483 0.52278 0.0
O18 O 0.98303 0.86087 0.5619 0.0
Co19 Co 0.74341 0.89142 0.57176 0.0
O20 O 0.86069 0.99002 0.56213 0.0
C21 C 0.8158 0.7612 0.62041 0.0
C22 C 0.97706 0.55207 0.56482 0.0
C23 C 0.95638 0.95872 0.56083 0.0
O24 O 0.8908 0.72377 0.60471 0.0
O25 O 0.74222 0.82083 0.6107 0.0
O26 O 0.90936 0.71982 0.51955 0.0
O27 O 0.78227 0.7692 0.54886 0.0
Co28 Co 0.28005 0.41292 0.81164 0.0
O29 O 0.42788 0.37641 0.81155 0.0
O30 O 0.36327 0.53877 0.8167 0.0
C31 C 0.23219 0.31788 0.77278 0.0
O32 O 0.13614 0.48301 0.81191 0.0
Co33 Co 0.10561 0.24339 0.82176 0.0
O34 O 0.007 0.36067 0.81213 0.0
C35 C 0.23581 0.31578 0.87041 0.0
C36 C 0.44494 0.47704 0.81482 0.0
C37 C 0.03829 0.45636 0.81083 0.0
O38 O 0.27323 0.39077 0.85471 0.0
O39 O 0.17619 0.24219 0.8607 0.0
O40 O 0.27721 0.40934 0.76955 0.0
O41 O 0.22782 0.28225 0.79885 0.0
Co42 Co 0.58404 0.78007 0.06165 0.0
O43 O 0.62056 0.92789 0.06155 0.0
O44 O 0.4582 0.8633 0.06671 0.0
C45 C 0.67907 0.73219 0.02278 0.0
O46 O 0.51395 0.63616 0.06191 0.0
Co47 Co 0.75357 0.6056 0.07176 0.0
O48 O 0.63629 0.50701 0.06212 0.0
C49 C 0.6812 0.73582 0.1204 0.0
C50 C 0.51993 0.94496 0.06483 0.0
C51 C 0.5406 0.53831 0.06083 0.0
O52 O 0.6062 0.77324 0.10472 0.0
O53 O 0.75478 0.67619 0.1107 0.0
O54 O 0.58761 0.77722 0.01955 0.0
O55 O 0.71471 0.72783 0.04885 0.0
Co56 Co 0.21692 0.41294 0.95994 0.0
O57 O 0.0691 0.37642 0.96003 0.0
O58 O 0.13368 0.53878 0.95488 0.0
C59 C 0.26479 0.31791 0.9988 0.0
O60 O 0.36082 0.48304 0.95967 0.0
Co61 Co 0.39138 0.24341 0.94983 0.0
O62 O 0.48997 0.36069 0.95946 0.0
C63 C 0.26115 0.31578 0.90118 0.0
C64 C 0.05202 0.47705 0.95676 0.0
C65 C 0.45867 0.45639 0.96076 0.0
O66 O 0.22374 0.39079 0.91687 0.0
O67 O 0.32079 0.2422 0.91089 0.0
O68 O 0.21977 0.40937 1.00203 0.0
O69 O 0.26916 0.28227 0.97273 0.0
Co70 Co 0.58406 0.71693 0.20994 0.0
O71 O 0.62058 0.56911 0.21003 0.0
O72 O 0.45822 0.63371 0.20489 0.0
C73 C 0.67911 0.7648 0.2488 0.0
O74 O 0.51397 0.86084 0.20968 0.0
Co75 Co 0.75359 0.89138 0.19982 0.0
O76 O 0.63631 0.98998 0.20945 0.0
C77 C 0.68121 0.76116 0.15118 0.0
C78 C 0.51995 0.55204 0.20676 0.0
C79 C 0.54062 0.95869 0.21076 0.0
O80 O 0.60621 0.72375 0.16687 0.0
O81 O 0.75479 0.82079 0.16088 0.0
O82 O 0.58764 0.71978 0.25204 0.0
O83 O 0.71474 0.76916 0.22273 0.0
Co84 Co 0.28002 0.08404 0.45994 0.0
O85 O 0.42784 0.12055 0.46002 0.0
O86 O 0.36325 0.95819 0.45489 0.0
C87 C 0.23215 0.17909 0.4988 0.0
O88 O 0.13611 0.01395 0.45968 0.0
Co89 Co 0.10557 0.25358 0.44982 0.0
O90 O 0.00696 0.13629 0.45945 0.0
C91 C 0.2358 0.18118 0.40118 0.0
C92 C 0.44492 0.01992 0.45676 0.0
C93 C 0.03826 0.0406 0.46076 0.0
O94 O 0.27321 0.10618 0.41687 0.0
O95 O 0.17616 0.25476 0.41088 0.0
O96 O 0.27716 0.08763 0.50203 0.0
O97 O 0.22779 0.21472 0.47273 0.0
Co98 Co 0.91296 0.78005 0.70994 0.0
O99 O 0.87645 0.92787 0.71003 0.0
O100 O 0.03881 0.86327 0.70488 0.0
C101 C 0.81791 0.73216 0.7488 0.0
O102 O 0.98305 0.63613 0.70967 0.0
Co103 Co 0.74343 0.6056 0.69983 0.0
O104 O 0.86071 0.50699 0.70946 0.0
C105 C 0.81581 0.73585 0.65118 0.0
C106 C 0.97708 0.94494 0.70676 0.0
C107 C 0.9564 0.53828 0.71076 0.0
O108 O 0.89081 0.77325 0.66687 0.0
O109 O 0.74223 0.67621 0.66089 0.0
O110 O 0.90937 0.77717 0.75203 0.0
O111 O 0.78229 0.72781 0.72273 0.0
Co112 Co 0.71696 0.58401 0.81164 0.0
O113 O 0.56914 0.62053 0.81156 0.0
O114 O 0.63374 0.45817 0.8167 0.0
C115 C 0.76487 0.67906 0.77278 0.0
O116 O 0.86088 0.51392 0.81191 0.0
Co117 Co 0.89141 0.75354 0.82176 0.0
O118 O 0.99002 0.63626 0.81213 0.0
C119 C 0.76115 0.68115 0.8704 0.0
C120 C 0.55207 0.5199 0.81482 0.0
C121 C 0.95872 0.54057 0.81082 0.0
O122 O 0.72376 0.60615 0.85471 0.0
O123 O 0.82078 0.75474 0.8607 0.0
O124 O 0.71984 0.58761 0.76955 0.0
O125 O 0.7692 0.71469 0.79886 0.0
Co126 Co 0.41295 0.21699 0.06164 0.0
O127 O 0.37644 0.06917 0.06156 0.0
O128 O 0.5388 0.13376 0.06669 0.0
C129 C 0.3179 0.26488 0.02279 0.0
O130 O 0.48304 0.3609 0.0619 0.0
Co131 Co 0.24342 0.39144 0.07176 0.0
O132 O 0.3607 0.49005 0.06214 0.0
C133 C 0.31582 0.2612 0.12041 0.0
C134 C 0.47707 0.05209 0.06482 0.0
C135 C 0.45639 0.45875 0.06082 0.0
O136 O 0.39082 0.22379 0.10471 0.0
O137 O 0.24223 0.32083 0.1107 0.0
O138 O 0.40935 0.21985 0.01955 0.0
O139 O 0.28227 0.26923 0.04886 0.0
Co140 Co 0.78003 0.91293 0.31164 0.0
O141 O 0.92785 0.87642 0.31155 0.0
O142 O 0.86324 0.03878 0.31669 0.0
C143 C 0.73214 0.81789 0.27278 0.0
O144 O 0.63611 0.98302 0.3119 0.0
Co145 Co 0.60558 0.7434 0.32177 0.0
O146 O 0.50697 0.86068 0.31214 0.0
C147 C 0.7358 0.81579 0.37041 0.0
C148 C 0.94492 0.97705 0.31482 0.0
C149 C 0.53827 0.95637 0.31082 0.0
O150 O 0.77321 0.8908 0.35471 0.0
O151 O 0.67618 0.7422 0.36071 0.0
O152 O 0.77718 0.90934 0.26955 0.0
O153 O 0.7278 0.78225 0.29886 0.0
Co154 Co 0.08403 0.28004 0.56164 0.0
O155 O 0.12055 0.42786 0.56155 0.0
O156 O 0.95819 0.36327 0.5667 0.0
C157 C 0.17907 0.23214 0.52278 0.0
O158 O 0.01394 0.13613 0.56191 0.0
Co159 Co 0.25356 0.10558 0.57176 0.0
O160 O 0.13628 0.00698 0.56213 0.0
C161 C 0.18118 0.23581 0.6204 0.0
C162 C 0.01992 0.44494 0.56482 0.0
C163 C 0.04059 0.03829 0.56082 0.0
O164 O 0.10617 0.27322 0.60471 0.0
O165 O 0.25477 0.17619 0.6107 0.0
O166 O 0.08762 0.27719 0.51955 0.0
O167 O 0.21471 0.2278 0.54885 0.0
Co168 Co 0.71694 0.91295 0.45994 0.0
O169 O 0.56912 0.87643 0.46003 0.0
O170 O 0.63371 0.0388 0.45488 0.0
C171 C 0.76484 0.81792 0.4988 0.0
O172 O 0.86085 0.98304 0.45967 0.0
Co173 Co 0.8914 0.74343 0.44982 0.0
O174 O 0.99 0.8607 0.45946 0.0
C175 C 0.76116 0.8158 0.40118 0.0
C176 C 0.55205 0.97706 0.45676 0.0
C177 C 0.9587 0.95639 0.46076 0.0
O178 O 0.72376 0.89081 0.41687 0.0
O179 O 0.82079 0.74221 0.41089 0.0
O180 O 0.7198 0.90936 0.50203 0.0
O181 O 0.76919 0.78228 0.47273 0.0
Co182 Co 0.08405 0.21696 0.70994 0.0
O183 O 0.12057 0.06913 0.71003 0.0
O184 O 0.95821 0.13374 0.70489 0.0
C185 C 0.1791 0.26484 0.7488 0.0
O186 O 0.01396 0.36087 0.70968 0.0
Co187 Co 0.25358 0.3914 0.69981 0.0
O188 O 0.13631 0.49001 0.70945 0.0
C189 C 0.18119 0.26117 0.65118 0.0
C190 C 0.01994 0.05207 0.70677 0.0
C191 C 0.04062 0.45872 0.71076 0.0
O192 O 0.10618 0.22377 0.66687 0.0
O193 O 0.25478 0.3208 0.66088 0.0
O194 O 0.08765 0.21981 0.75204 0.0
O195 O 0.21473 0.26919 0.72273 0.0
Co196 Co 0.77999 0.58403 0.95994 0.0
O197 O 0.92782 0.62054 0.96002 0.0
O198 O 0.86322 0.45818 0.95489 0.0
C199 C 0.7321 0.67908 0.9988 0.0
O200 O 0.63608 0.51394 0.95968 0.0
Co201 Co 0.60554 0.75356 0.94982 0.0
O202 O 0.50693 0.63629 0.95945 0.0
C203 C 0.73579 0.68116 0.90118 0.0
C204 C 0.94489 0.51991 0.95676 0.0
C205 C 0.53823 0.5406 0.96076 0.0
O206 O 0.77319 0.60616 0.91687 0.0
O207 O 0.67616 0.75475 0.91088 0.0
O208 O 0.77713 0.58763 1.00204 0.0
O209 O 0.72776 0.71471 0.97272 0.0
Co210 Co 0.41297 0.28002 0.20994 0.0
O211 O 0.37646 0.42784 0.21003 0.0
O212 O 0.53882 0.36324 0.20488 0.0
C213 C 0.31792 0.23211 0.2488 0.0
O214 O 0.48306 0.13611 0.20967 0.0
Co215 Co 0.24344 0.10557 0.19982 0.0
O216 O 0.36072 0.00696 0.20946 0.0
C217 C 0.31583 0.23584 0.15118 0.0
C218 C 0.47709 0.44491 0.20676 0.0
C219 C 0.45641 0.03826 0.21076 0.0
O220 O 0.39084 0.27323 0.16687 0.0
O221 O 0.24224 0.17621 0.16089 0.0
O222 O 0.40937 0.27714 0.25203 0.0
O223 O 0.28229 0.22778 0.22273 0.0
loop_
_geom_bond_atom_site_label_1
_geom_bond_atom_site_label_2
_geom_bond_distance
_geom_bond_site_symmetry_2
_ccdc_geom_bond_type
Co0 O1 2.216 . S
Co0 O2 2.091 1_545 S
Co0 O4 2.004 . S
Co0 O10 2.021 . S
Co0 O12 2.137 . S
Co0 O13 2.244 . S
O1 Co0 2.216 . S
O1 C8 1.247 . S
O2 Co0 2.091 1_565 S
O2 C8 1.261 1_565 S
C3 O12 1.247 . S
C3 O13 1.272 . S
O4 Co0 2.004 . S
O4 C9 1.259 . S
Co5 O6 2.061 . S
Co5 O11 2.052 . S
Co5 O13 2.135 . S
O6 Co5 2.061 . S
O6 C9 1.235 . S
C7 O10 1.238 . S
C7 O11 1.241 . S
C8 O1 1.247 . S
C8 O2 1.261 1_545 S
C9 O4 1.259 . S
C9 O6 1.235 . S
O10 Co0 2.021 . S
O10 C7 1.238 . S
O11 Co5 2.052 . S
O11 C7 1.241 . S
O12 Co0 2.137 . S
O12 C3 1.247 . S
O13 Co0 2.244 . S
O13 C3 1.272 . S
O13 Co5 2.135 . S
Co14 O15 2.216 . S
Co14 O16 2.091 1_655 S
Co14 O18 2.004 . S
Co14 O24 2.021 . S
Co14 O26 2.137 . S
Co14 O27 2.244 . S
O15 Co14 2.216 . S
O15 C22 1.247 . S
O16 Co14 2.091 1_455 S
O16 C22 1.261 1_455 S
C17 O26 1.247 . S
C17 O27 1.272 . S
O18 Co14 2.004 . S
O18 C23 1.259 . S
Co19 O20 2.061 . S
Co19 O25 2.052 . S
Co19 O27 2.135 . S
O20 Co19 2.061 . S
O20 C23 1.235 . S
C21 O24 1.238 . S
C21 O25 1.241 . S
C22 O15 1.247 . S
C22 O16 1.261 1_655 S
C23 O18 1.259 . S
C23 O20 1.235 . S
O24 Co14 2.021 . S
O24 C21 1.238 . S
O25 Co19 2.052 . S
O25 C21 1.241 . S
O26 Co14 2.137 . S
O26 C17 1.247 . S
O27 Co14 2.244 . S
O27 C17 1.272 . S
O27 Co19 2.135 . S
Co28 O29 2.216 . S
Co28 O30 2.091 . S
Co28 O32 2.004 . S
Co28 O38 2.021 . S
Co28 O40 2.137 . S
Co28 O41 2.244 . S
O29 Co28 2.216 . S
O29 C36 1.247 . S
O30 Co28 2.091 . S
O30 C36 1.261 . S
C31 O40 1.247 . S
C31 O41 1.272 . S
O32 Co28 2.004 . S
O32 C37 1.259 . S
Co33 O34 2.061 . S
Co33 O39 2.052 . S
Co33 O41 2.135 . S
O34 Co33 2.061 . S
O34 C37 1.235 . S
C35 O38 1.238 . S
C35 O39 1.241 . S
C36 O29 1.247 . S
C36 O30 1.261 . S
C37 O32 1.259 . S
C37 O34 1.235 . S
O38 Co28 2.021 . S
O38 C35 1.238 . S
O39 Co33 2.052 . S
O39 C35 1.241 . S
O40 Co28 2.137 . S
O40 C31 1.247 . S
O41 Co28 2.244 . S
O41 C31 1.272 . S
O41 Co33 2.135 . S
Co42 O43 2.216 . S
Co42 O44 2.091 . S
Co42 O46 2.004 . S
Co42 O52 2.021 . S
Co42 O54 2.137 . S
Co42 O55 2.244 . S
O43 Co42 2.216 . S
O43 C50 1.247 . S
O44 Co42 2.091 . S
O44 C50 1.261 . S
C45 O54 1.247 . S
C45 O55 1.272 . S
O46 Co42 2.004 . S
O46 C51 1.259 . S
Co47 O48 2.061 . S
Co47 O53 2.052 . S
Co47 O55 2.135 . S
O48 Co47 2.061 . S
O48 C51 1.235 . S
C49 O52 1.238 . S
C49 O53 1.241 . S
C50 O43 1.247 . S
C50 O44 1.261 . S
C51 O46 1.259 . S
C51 O48 1.235 . S
O52 Co42 2.021 . S
O52 C49 1.238 . S
O53 Co47 2.052 . S
O53 C49 1.241 . S
O54 Co42 2.137 . S
O54 C45 1.247 . S
O55 Co42 2.244 . S
O55 C45 1.272 . S
O55 Co47 2.135 . S
Co56 O57 2.216 . S
Co56 O58 2.091 . S
Co56 O60 2.004 . S
Co56 O66 2.021 . S
Co56 O68 2.137 . S
Co56 O69 2.244 . S
O57 Co56 2.216 . S
O57 C64 1.247 . S
O58 Co56 2.091 . S
O58 C64 1.261 . S
C59 O68 1.247 . S
C59 O69 1.272 . S
O60 Co56 2.004 . S
O60 C65 1.259 . S
Co61 O62 2.061 . S
Co61 O67 2.052 . S
Co61 O69 2.135 . S
O62 Co61 2.061 . S
O62 C65 1.235 . S
C63 O66 1.238 . S
C63 O67 1.241 . S
C64 O57 1.247 . S
C64 O58 1.261 . S
C65 O60 1.259 . S
C65 O62 1.235 . S
O66 Co56 2.021 . S
O66 C63 1.238 . S
O67 Co61 2.052 . S
O67 C63 1.241 . S
O68 Co56 2.137 . S
O68 C59 1.247 . S
O69 Co56 2.244 . S
O69 C59 1.272 . S
O69 Co61 2.135 . S
Co70 O71 2.216 . S
Co70 O72 2.091 . S
Co70 O74 2.004 . S
Co70 O80 2.021 . S
Co70 O82 2.137 . S
Co70 O83 2.244 . S
O71 Co70 2.216 . S
O71 C78 1.247 . S
O72 Co70 2.091 . S
O72 C78 1.261 . S
C73 O82 1.247 . S
C73 O83 1.272 . S
O74 Co70 2.004 . S
O74 C79 1.259 . S
Co75 O76 2.061 . S
Co75 O81 2.052 . S
Co75 O83 2.135 . S
O76 Co75 2.061 . S
O76 C79 1.235 . S
C77 O80 1.238 . S
C77 O81 1.241 . S
C78 O71 1.247 . S
C78 O72 1.261 . S
C79 O74 1.259 . S
C79 O76 1.235 . S
O80 Co70 2.021 . S
O80 C77 1.238 . S
O81 Co75 2.052 . S
O81 C77 1.241 . S
O82 Co70 2.137 . S
O82 C73 1.247 . S
O83 Co70 2.244 . S
O83 C73 1.272 . S
O83 Co75 2.135 . S
Co84 O85 2.216 . S
Co84 O86 2.091 1_545 S
Co84 O88 2.004 . S
Co84 O94 2.021 . S
Co84 O96 2.137 . S
Co84 O97 2.244 . S
O85 Co84 2.216 . S
O85 C92 1.247 . S
O86 Co84 2.091 1_565 S
O86 C92 1.261 1_565 S
C87 O96 1.247 . S
C87 O97 1.272 . S
O88 Co84 2.004 . S
O88 C93 1.259 . S
Co89 O90 2.061 . S
Co89 O95 2.052 . S
Co89 O97 2.135 . S
O90 Co89 2.061 . S
O90 C93 1.235 . S
C91 O94 1.238 . S
C91 O95 1.241 . S
C92 O85 1.247 . S
C92 O86 1.261 1_545 S
C93 O88 1.259 . S
C93 O90 1.235 . S
O94 Co84 2.021 . S
O94 C91 1.238 . S
O95 Co89 2.052 . S
O95 C91 1.241 . S
O96 Co84 2.137 . S
O96 C87 1.247 . S
O97 Co84 2.244 . S
O97 C87 1.272 . S
O97 Co89 2.135 . S
Co98 O99 2.216 . S
Co98 O100 2.091 1_655 S
Co98 O102 2.004 . S
Co98 O108 2.021 . S
Co98 O110 2.137 . S
Co98 O111 2.244 . S
O99 Co98 2.216 . S
O99 C106 1.247 . S
O100 Co98 2.091 1_455 S
O100 C106 1.261 1_455 S
C101 O110 1.247 . S
C101 O111 1.272 . S
O102 Co98 2.004 . S
O102 C107 1.259 . S
Co103 O104 2.061 . S
Co103 O109 2.052 . S
Co103 O111 2.135 . S
O104 Co103 2.061 . S
O104 C107 1.235 . S
C105 O108 1.238 . S
C105 O109 1.241 . S
C106 O99 1.247 . S
C106 O100 1.261 1_655 S
C107 O102 1.259 . S
C107 O104 1.235 . S
O108 Co98 2.021 . S
O108 C105 1.238 . S
O109 Co103 2.052 . S
O109 C105 1.241 . S
O110 Co98 2.137 . S
O110 C101 1.247 . S
O111 Co98 2.244 . S
O111 C101 1.272 . S
O111 Co103 2.135 . S
Co112 O113 2.216 . S
Co112 O114 2.091 . S
Co112 O116 2.004 . S
Co112 O122 2.021 . S
Co112 O124 2.137 . S
Co112 O125 2.244 . S
O113 Co112 2.216 . S
O113 C120 1.247 . S
O114 Co112 2.091 . S
O114 C120 1.261 . S
C115 O124 1.247 . S
C115 O125 1.272 . S
O116 Co112 2.004 . S
O116 C121 1.259 . S
Co117 O118 2.061 . S
Co117 O123 2.052 . S
Co117 O125 2.135 . S
O118 Co117 2.061 . S
O118 C121 1.235 . S
C119 O122 1.238 . S
C119 O123 1.241 . S
C120 O113 1.247 . S
C120 O114 1.261 . S
C121 O116 1.259 . S
C121 O118 1.235 . S
O122 Co112 2.021 . S
O122 C119 1.238 . S
O123 Co117 2.052 . S
O123 C119 1.241 . S
O124 Co112 2.137 . S
O124 C115 1.247 . S
O125 Co112 2.244 . S
O125 C115 1.272 . S
O125 Co117 2.135 . S
Co126 O127 2.216 . S
Co126 O128 2.091 . S
Co126 O130 2.004 . S
Co126 O136 2.021 . S
Co126 O138 2.137 . S
Co126 O139 2.244 . S
O127 Co126 2.216 . S
O127 C134 1.247 . S
O128 Co126 2.091 . S
O128 C134 1.261 . S
C129 O138 1.247 . S
C129 O139 1.272 . S
O130 Co126 2.004 . S
O130 C135 1.259 . S
Co131 O132 2.061 . S
Co131 O137 2.052 . S
Co131 O139 2.135 . S
O132 Co131 2.061 . S
O132 C135 1.235 . S
C133 O136 1.238 . S
C133 O137 1.241 . S
C134 O127 1.247 . S
C134 O128 1.261 . S
C135 O130 1.259 . S
C135 O132 1.235 . S
O136 Co126 2.021 . S
O136 C133 1.238 . S
O137 Co131 2.052 . S
O137 C133 1.241 . S
O138 Co126 2.137 . S
O138 C129 1.247 . S
O139 Co126 2.244 . S
O139 C129 1.272 . S
O139 Co131 2.135 . S
Co140 O141 2.216 . S
Co140 O142 2.091 1_565 S
Co140 O144 2.004 . S
Co140 O150 2.021 . S
Co140 O152 2.137 . S
Co140 O153 2.244 . S
O141 Co140 2.216 . S
O141 C148 1.247 . S
O142 Co140 2.091 1_545 S
O142 C148 1.261 1_545 S
C143 O152 1.247 . S
C143 O153 1.272 . S
O144 Co140 2.004 . S
O144 C149 1.259 . S
Co145 O146 2.061 . S
Co145 O151 2.052 . S
Co145 O153 2.135 . S
O146 Co145 2.061 . S
O146 C149 1.235 . S
C147 O150 1.238 . S
C147 O151 1.241 . S
C148 O141 1.247 . S
C148 O142 1.261 1_565 S
C149 O144 1.259 . S
C149 O146 1.235 . S
O150 Co140 2.021 . S
O150 C147 1.238 . S
O151 Co145 2.052 . S
O151 C147 1.241 . S
O152 Co140 2.137 . S
O152 C143 1.247 . S
O153 Co140 2.244 . S
O153 C143 1.272 . S
O153 Co145 2.135 . S
Co154 O155 2.216 . S
Co154 O156 2.091 1_455 S
Co154 O158 2.004 . S
Co154 O164 2.021 . S
Co154 O166 2.137 . S
Co154 O167 2.244 . S
O155 Co154 2.216 . S
O155 C162 1.247 . S
O156 Co154 2.091 1_655 S
O156 C162 1.261 1_655 S
C157 O166 1.247 . S
C157 O167 1.272 . S
O158 Co154 2.004 . S
O158 C163 1.259 . S
Co159 O160 2.061 . S
Co159 O165 2.052 . S
Co159 O167 2.135 . S
O160 Co159 2.061 . S
O160 C163 1.235 . S
C161 O164 1.238 . S
C161 O165 1.241 . S
C162 O155 1.247 . S
C162 O156 1.261 1_455 S
C163 O158 1.259 . S
C163 O160 1.235 . S
O164 Co154 2.021 . S
O164 C161 1.238 . S
O165 Co159 2.052 . S
O165 C161 1.241 . S
O166 Co154 2.137 . S
O166 C157 1.247 . S
O167 Co154 2.244 . S
O167 C157 1.272 . S
O167 Co159 2.135 . S
Co168 O169 2.216 . S
Co168 O170 2.091 1_565 S
Co168 O172 2.004 . S
Co168 O178 2.021 . S
Co168 O180 2.137 . S
Co168 O181 2.244 . S
O169 Co168 2.216 . S
O169 C176 1.247 . S
O170 Co168 2.091 1_545 S
O170 C176 1.261 1_545 S
C171 O180 1.247 . S
C171 O181 1.272 . S
O172 Co168 2.004 . S
O172 C177 1.259 . S
Co173 O174 2.061 . S
Co173 O179 2.052 . S
Co173 O181 2.135 . S
O174 Co173 2.061 . S
O174 C177 1.235 . S
C175 O178 1.238 . S
C175 O179 1.241 . S
C176 O169 1.247 . S
C176 O170 1.261 1_565 S
C177 O172 1.259 . S
C177 O174 1.235 . S
O178 Co168 2.021 . S
O178 C175 1.238 . S
O179 Co173 2.052 . S
O179 C175 1.241 . S
O180 Co168 2.137 . S
O180 C171 1.247 . S
O181 Co168 2.244 . S
O181 C171 1.272 . S
O181 Co173 2.135 . S
Co182 O183 2.216 . S
Co182 O184 2.091 1_455 S
Co182 O186 2.004 . S
Co182 O192 2.021 . S
Co182 O194 2.137 . S
Co182 O195 2.244 . S
O183 Co182 2.216 . S
O183 C190 1.247 . S
O184 Co182 2.091 1_655 S
O184 C190 1.261 1_655 S
C185 O194 1.247 . S
C185 O195 1.272 . S
O186 Co182 2.004 . S
O186 C191 1.259 . S
Co187 O188 2.061 . S
Co187 O193 2.052 . S
Co187 O195 2.135 . S
O188 Co187 2.061 . S
O188 C191 1.235 . S
C189 O192 1.238 . S
C189 O193 1.241 . S
C190 O183 1.247 . S
C190 O184 1.261 1_455 S
C191 O186 1.259 . S
C191 O188 1.235 . S
O192 Co182 2.021 . S
O192 C189 1.238 . S
O193 Co187 2.052 . S
O193 C189 1.241 . S
O194 Co182 2.137 . S
O194 C185 1.247 . S
O195 Co182 2.244 . S
O195 C185 1.272 . S
O195 Co187 2.135 . S
Co196 O197 2.216 . S
Co196 O198 2.091 . S
Co196 O200 2.004 . S
Co196 O206 2.021 . S
Co196 O208 2.137 . S
Co196 O209 2.244 . S
O197 Co196 2.216 . S
O197 C204 1.247 . S
O198 Co196 2.091 . S
O198 C204 1.261 . S
C199 O208 1.247 . S
C199 O209 1.272 . S
O200 Co196 2.004 . S
O200 C205 1.259 . S
Co201 O202 2.061 . S
Co201 O207 2.052 . S
Co201 O209 2.135 . S
O202 Co201 2.061 . S
O202 C205 1.235 . S
C203 O206 1.238 . S
C203 O207 1.241 . S
C204 O197 1.247 . S
C204 O198 1.261 . S
C205 O200 1.259 . S
C205 O202 1.235 . S
O206 Co196 2.021 . S
O206 C203 1.238 . S
O207 Co201 2.052 . S
O207 C203 1.241 . S
O208 Co196 2.137 . S
O208 C199 1.247 . S
O209 Co196 2.244 . S
O209 C199 1.272 . S
O209 Co201 2.135 . S
Co210 O211 2.216 . S
Co210 O212 2.091 . S
Co210 O214 2.004 . S
Co210 O220 2.021 . S
Co210 O222 2.137 . S
Co210 O223 2.244 . S
O211 Co210 2.216 . S
O211 C218 1.247 . S
O212 Co210 2.091 . S
O212 C218 1.261 . S
C213 O222 1.247 . S
C213 O223 1.272 . S
O214 Co210 2.004 . S
O214 C219 1.259 . S
Co215 O216 2.061 . S
Co215 O221 2.052 . S
Co215 O223 2.135 . S
O216 Co215 2.061 . S
O216 C219 1.235 . S
C217 O220 1.238 . S
C217 O221 1.241 . S
C218 O211 1.247 . S
C218 O212 1.261 . S
C219 O214 1.259 . S
C219 O216 1.235 . S
O220 Co210 2.021 . S
O220 C217 1.238 . S
O221 Co215 2.052 . S
O221 C217 1.241 . S
O222 Co210 2.137 . S
O222 C213 1.247 . S
O223 Co210 2.244 . S
O223 C213 1.272 . S
O223 Co215 2.135 . S
C148 C8 1.650 1_665 S
C22 C162 1.650 1_655 S
C120 C36 1.650 . S
C134 C50 1.650 1_545 S
C64 C204 1.650 1_455 S
C218 C78 1.650 . S
C92 C176 1.650 1_545 S
C190 C106 1.650 1_445 S
C149 C9 1.579 1_565 S
C23 C163 1.579 1_665 S
C37 C121 1.579 1_455 S
C51 C135 1.579 . S
C65 C205 1.579 . S
C79 C219 1.579 1_565 S
C177 C93 1.579 1_665 S
C191 C107 1.579 1_455 S
C7 C91 1.475 . S
C21 C105 1.475 . S
C35 C63 1.475 . S
C49 C77 1.475 . S
C119 C203 1.475 . S
C217 C133 1.475 . S
C147 C175 1.475 . S
C189 C161 1.475 . S
C3 C213 1.427 . S
C171 C17 1.427 . S
C185 C31 1.428 . S
C199 C45 1.427 1_556 S
C129 C59 1.427 1_554 S
C143 C73 1.428 . S
C87 C157 1.427 . S
C101 C115 1.427 . S
