# Generated by pormake.
# Topology cds, (4)-cn, num edge types: 1
# Building blocks:
#     Node 0, Type 0, BuildingBlock: KOZSID_clean_sbu_0, # of connection points: 4
#     Node 1, Type 0, BuildingBlock: KOZSID_clean_sbu_0, # of connection points: 4
#     Edge 2, Type (0, 0), BuildingBlock: FUNLAD_clean_linker_1, # of connection points: 2
#     Edge 3, Type (0, 0), BuildingBlock: FUNLAD_clean_linker_1, # of connection points: 2
#     Edge 4, Type (0, 0), BuildingBlock: FUNLAD_clean_linker_1, # of connection points: 2
#     Edge 5, Type (0, 0), BuildingBlock: FUNLAD_clean_linker_1, # of connection points: 2
# Relax obj value: 0.000
# Max RMSD: 0.000
# Mean RMSD: 0.000
data_MOF--net-cds--node1-KOZSID_clean_sbu_0--edge1-FUNLAD_clean_linker_1
_symmetry_space_group_name_H-M    P1
_symmetry_Int_Tables_number       1
_symmetry_cell_setting            triclinic
loop_
_symmetry_equiv_pos_as_xyz
'x, y, z'
_cell_length_a     17.187839
_cell_length_b     20.207516
_cell_length_c     37.341834
_cell_angle_alpha  106.05764
_cell_angle_beta   106.71967
_cell_angle_gamma 86.822827
loop_
_atom_site_label
_atom_site_type_symbol
_atom_site_fract_x
_atom_site_fract_y
_atom_site_fract_z
_atom_type_partial_charge
C0 C 0.17568 0.08685 0.0381 0.0
C1 C 0.21787 0.14988 0.05364 0.0
C2 C 0.16322 0.19938 0.04577 0.0
C3 C 0.09012 0.16472 0.0275 0.0
N4 N 0.09476 0.09664 0.02432 0.0
Co5 Co 1.00028 0.03056 0.00507 0.0
N6 N 0.92045 0.10575 0.0066 0.0
C7 C 0.93527 0.17094 0.00754 0.0
C8 C 0.86793 0.21086 0.00585 0.0
C9 C 0.80674 0.16824 1.00388 0.0
C10 C 0.8405 0.10427 0.00497 0.0
N11 N 0.90571 0.96494 0.9858 0.0
C12 C 0.8273 0.97536 0.98664 0.0
C13 C 0.77961 0.9168 0.96403 0.0
C14 C 0.83061 0.86765 0.95096 0.0
C15 C 0.90599 0.89911 0.96492 0.0
N16 N 0.07949 0.9548 1.00306 0.0
C17 C 0.0603 0.88858 0.98278 0.0
C18 C 0.12593 0.84687 0.98518 0.0
C19 C 0.1911 0.88947 0.00766 0.0
C20 C 0.16183 0.9558 0.0179 0.0
N21 N 0.0062 0.03279 0.05855 0.0
C22 C 1.00473 0.03646 0.13417 0.0
C23 C 1.00056 0.97346 0.10561 0.0
C24 C 1.0012 0.97289 0.06812 0.0
C25 C 0.01139 0.09716 0.12396 0.0
C26 C 0.012 0.09431 0.08622 0.0
N27 N 0.99361 0.02849 0.95129 0.0
C28 C 0.05877 0.02659 0.90175 0.0
C29 C 0.98345 0.03199 0.87531 0.0
C30 C 0.91361 0.03498 0.88777 0.0
C31 C 0.91981 0.03272 0.92556 0.0
C32 C 0.0624 0.02483 0.93942 0.0
H33 H 0.86462 0.03527 0.93402 0.0
H34 H 0.12126 0.02153 0.95904 0.0
H35 H 0.99652 0.92387 0.04667 0.0
H36 H 0.01589 0.14211 0.07933 0.0
C37 C 0.01507 0.19542 0.01737 0.0
C38 C 0.21477 0.01886 0.03427 0.0
C39 C 0.79542 0.04284 1.00366 0.0
C40 C 0.97944 0.86654 0.96413 0.0
H41 H 0.28172 0.15956 0.06885 0.0
H42 H 0.17499 0.25436 0.05365 0.0
H43 H 0.86438 0.26524 0.00755 0.0
H44 H 0.74464 0.18329 1.00188 0.0
H45 H 0.71444 0.91018 0.9564 0.0
H46 H 0.81463 0.81504 0.93374 0.0
H47 H 0.12654 0.79201 0.97194 0.0
H48 H 0.25332 0.87311 0.01378 0.0
H49 H 0.99658 0.92461 0.11156 0.0
H50 H 0.01517 0.14697 0.14497 0.0
H51 H 0.11501 0.02558 0.89411 0.0
H52 H 0.8542 0.03934 0.8684 0.0
C53 C 0.10019 0.01453 0.58703 0.0
C54 C 0.17732 0.0228 0.61349 0.0
C55 C 0.23199 0.014 0.59257 0.0
C56 C 0.18585 1.00212 0.55476 0.0
N57 N 0.10482 1.00392 0.55016 0.0
Co58 Co 0.0171 0.99193 0.49984 0.0
N59 N 0.09781 0.97036 0.4687 0.0
C60 C 0.17909 0.96571 0.48294 0.0
C61 C 0.21932 0.94833 0.4551 0.0
C62 C 0.1606 0.94241 0.42089 0.0
C63 C 0.08695 0.95683 0.42976 0.0
N64 N 0.92971 0.98131 0.4494 0.0
C65 C 0.93476 0.96975 0.4125 0.0
C66 C 0.8581 0.95913 0.38588 0.0
C67 C 0.80299 0.9703 0.40668 0.0
C68 C 0.84878 0.98454 0.44465 0.0
N69 N 0.93613 1.01175 0.53101 0.0
C70 C 0.85435 1.01162 0.51622 0.0
C71 C 0.81273 0.01643 0.54287 0.0
C72 C 0.87087 0.01914 0.5768 0.0
C73 C 0.94608 0.01826 0.56946 0.0
N74 N 0.02638 0.09213 0.50411 0.0
C75 C 0.03864 0.2335 0.50779 0.0
C76 C 0.96331 0.20179 0.50098 0.0
C77 C 0.9587 0.13178 0.49926 0.0
C78 C 0.10745 0.19309 0.51319 0.0
C79 C 0.10011 0.12331 0.51105 0.0
N80 N 0.00786 0.89147 0.49557 0.0
C81 C 0.92629 0.78831 0.48171 0.0
C82 C 0.99521 0.75011 0.49223 0.0
C83 C 0.07103 0.78399 0.50393 0.0
C84 C 0.07577 0.85385 0.5054 0.0
C85 C 0.93375 0.85798 0.48362 0.0
H86 H 0.13533 0.87633 0.51476 0.0
H87 H 0.87846 0.88353 0.47545 0.0
H88 H 0.89956 0.11073 0.49385 0.0
H89 H 0.15501 0.09557 0.51487 0.0
C90 C 0.21666 0.9827 0.52281 0.0
C91 C 0.02504 0.01727 0.59868 0.0
C92 C 0.01053 0.96594 0.4013 0.0
C93 C 0.8177 0.99909 0.47643 0.0
H94 H 0.19299 0.03338 0.64477 0.0
H95 H 0.29757 0.01438 0.60353 0.0
H96 H 0.28409 0.94288 0.45929 0.0
H97 H 0.17246 0.93114 0.39296 0.0
H98 H 0.84327 0.94344 0.35459 0.0
H99 H 0.73741 0.96724 0.39543 0.0
H100 H 0.74754 0.01365 0.53771 0.0
H101 H 0.85706 0.01726 0.60288 0.0
H102 H 0.90787 0.23043 0.49747 0.0
H103 H 0.16722 0.21518 0.51875 0.0
H104 H 0.86614 0.76455 0.47218 0.0
H105 H 0.12704 0.75739 0.51167 0.0
H106 H 0.0102 0.09306 0.19492 0.0
C107 C 1.00203 0.04197 0.17457 0.0
H108 H 0.97552 0.93722 0.16789 0.0
H109 H 0.10478 0.06705 0.36042 0.0
H110 H 0.23455 0.08758 0.35137 0.0
H111 H 0.2509 0.06465 0.28556 0.0
H112 H 0.13703 0.02301 0.22848 0.0
C113 C 0.98822 0.98871 0.18731 0.0
C114 C 0.9808 0.99916 0.22742 0.0
C115 C 0.04917 0.02001 0.26048 0.0
C116 C 0.04117 0.02871 0.29845 0.0
C117 C 0.10877 0.05513 0.33095 0.0
C118 C 0.1834 0.06796 0.32616 0.0
C119 C 0.19249 0.0554 0.28912 0.0
C120 C 0.1264 0.03181 0.25657 0.0
H121 H 0.05943 0.9443 0.35195 0.0
C122 C 0.0117 0.96957 0.3639 0.0
H123 H 0.91569 0.0424 0.35408 0.0
H124 H 0.83638 0.96387 0.17074 0.0
H125 H 0.70675 0.94323 0.17986 0.0
H126 H 0.69369 0.95517 0.24538 0.0
H127 H 0.80998 0.98752 0.30204 0.0
C128 C 0.96034 1.01047 0.3424 0.0
C129 C 0.96623 1.01194 0.30329 0.0
C130 C 0.89707 0.9941 0.27032 0.0
C131 C 0.90452 0.98734 0.23244 0.0
C132 C 0.83449 0.96903 0.2001 0.0
C133 C 0.75954 0.95729 0.2049 0.0
C134 C 0.75222 0.96393 0.24178 0.0
C135 C 0.81982 0.98215 0.27415 0.0
H136 H 0.91898 0.05835 0.82065 0.0
C137 C 0.97517 0.03788 0.83544 0.0
H138 H 0.08689 0.99391 0.82879 0.0
H139 H 0.93582 0.92149 0.64367 0.0
H140 H 0.91378 0.81134 0.65352 0.0
H141 H 0.94049 0.79782 0.71962 0.0
H142 H 0.98859 0.89492 0.77633 0.0
C143 C 0.03189 0.01837 0.81637 0.0
C144 C 0.01904 0.02624 0.77651 0.0
C145 C 0.99337 0.9687 0.74366 0.0
C146 C 0.98022 0.97612 0.70553 0.0
C147 C 0.95011 0.91843 0.67329 0.0
C148 C 0.9364 0.8549 0.67853 0.0
C149 C 0.95127 0.84732 0.71574 0.0
C150 C 0.97902 0.90343 0.74803 0.0
H151 H 0.08244 0.98579 0.65082 0.0
C152 C 0.03183 0.01329 0.63693 0.0
H153 H 0.94439 0.08886 0.65193 0.0
H154 H 0.07026 0.1464 0.83323 0.0
H155 H 0.09509 0.25649 0.82376 0.0
H156 H 0.07581 0.26902 0.75793 0.0
H157 H 0.03142 0.17175 0.70116 0.0
C158 C 0.9838 0.04867 0.66047 0.0
C159 C 0.99554 0.04075 0.70033 0.0
C160 C 0.02149 0.09829 0.73329 0.0
C161 C 0.03306 0.09103 0.77135 0.0
C162 C 0.05989 0.14915 0.8037 0.0
C163 C 0.07464 0.21261 0.79869 0.0
C164 C 0.06375 0.21967 0.76162 0.0
C165 C 0.03784 0.16337 0.72923 0.0
H166 H 0.69807 0.1017 0.0191 0.0
C167 C 0.72342 0.05083 0.01328 0.0
H168 H 0.70407 0.95045 0.01774 0.0
H169 H 0.42647 0.06906 0.10159 0.0
H170 H 0.54007 0.0756 0.15899 0.0
H171 H 0.67937 0.0531 0.15361 0.0
H172 H 0.70612 0.02369 0.09072 0.0
C173 C 0.67972 1.00086 0.0171 0.0
C174 C 0.59488 0.01315 0.02049 0.0
C175 C 0.57942 0.02795 0.05717 0.0
C176 C 0.49851 0.04007 0.06017 0.0
C177 C 0.48603 0.05782 0.09747 0.0
C178 C 0.55081 0.06206 0.13069 0.0
C179 C 0.62929 0.04933 0.12768 0.0
C180 C 0.64382 0.03252 0.09143 0.0
H181 H 0.32906 0.96573 0.04584 0.0
C182 C 0.30019 1.01158 0.03907 0.0
H183 H 0.31918 0.09313 0.01514 0.0
H184 H 0.60195 0.98493 0.94546 0.0
H185 H 0.48851 0.97495 0.88786 0.0
H186 H 0.3482 0.99113 0.89264 0.0
H187 H 0.32059 0.01774 0.95505 0.0
C188 C 0.34806 0.05377 0.02884 0.0
C189 C 0.43257 0.03589 0.02627 0.0
C190 C 0.44797 0.01923 0.98944 0.0
C191 C 0.52895 1.00859 0.9866 0.0
C192 C 0.54195 0.99294 0.9494 0.0
C193 C 0.47728 0.98708 0.91602 0.0
C194 C 0.39832 0.99631 0.91871 0.0
C195 C 0.38343 1.01205 0.95484 0.0
H196 H 0.92432 0.65222 0.47545 0.0
C197 C 0.98474 0.67563 0.48978 0.0
H198 H 0.10421 0.65784 0.52126 0.0
H199 H 0.01453 0.40463 0.57069 0.0
H200 H 0.04645 0.49308 0.6321 0.0
H201 H 0.07048 0.61389 0.63499 0.0
H202 H 0.0624 0.6471 0.57645 0.0
C203 C 0.04418 0.63599 0.50471 0.0
C204 C 0.02858 0.56235 0.50243 0.0
C205 C 0.03478 0.54322 0.53697 0.0
C206 C 0.02166 0.47318 0.53536 0.0
C207 C 0.02569 0.45649 0.57026 0.0
C208 C 0.04351 0.50688 0.60573 0.0
C209 C 0.05699 0.57491 0.60735 0.0
C210 C 0.05245 0.59322 0.5735 0.0
H211 H 0.10973 0.3309 0.52328 0.0
C212 C 0.04876 0.30806 0.51048 0.0
H213 H 0.92745 0.32651 0.4817 0.0
H214 H 0.01893 0.57903 0.43093 0.0
H215 H 0.98624 0.49065 0.36955 0.0
H216 H 0.96055 0.37014 0.36662 0.0
H217 H 0.96806 0.33714 0.42518 0.0
C218 C 0.98815 0.34814 0.49703 0.0
C219 C 1.00323 0.42178 0.4992 0.0
C220 C 0.99681 0.44091 0.46465 0.0
C221 C 0.0103 0.51089 0.46627 0.0
C222 C 0.00694 0.52737 0.43138 0.0
C223 C 0.98878 0.47697 0.39591 0.0
C224 C 0.9744 0.4091 0.39427 0.0
C225 C 0.97865 0.39092 0.42812 0.0
loop_
_geom_bond_atom_site_label_1
_geom_bond_atom_site_label_2
_geom_bond_distance
_geom_bond_site_symmetry_2
_ccdc_geom_bond_type
C0 C1 1.443 . S
C0 N4 1.376 . S
C0 C38 1.389 . S
C1 C0 1.443 . S
C1 C2 1.340 . S
C1 H41 0.951 . S
C2 C1 1.340 . S
C2 C3 1.439 . S
C2 H42 0.950 . S
C3 C2 1.439 . S
C3 N4 1.374 . S
C3 C37 1.394 1_455 S
N4 C0 1.376 . S
N4 C3 1.374 . S
N4 Co5 2.007 . S
Co5 N4 2.007 . S
Co5 N6 1.998 1_455 S
Co5 N11 2.009 1_444 S
Co5 N16 1.992 1_544 S
Co5 N21 2.302 . S
Co5 N27 2.263 1_444 S
N6 Co5 1.998 1_655 S
N6 C7 1.376 . S
N6 C10 1.383 . S
C7 N6 1.376 . S
C7 C8 1.446 . S
C7 C37 1.392 . S
C8 C7 1.446 . S
C8 C9 1.339 . S
C8 H43 0.949 . S
C9 C8 1.339 . S
C9 C10 1.439 . S
C9 H44 0.950 . S
C10 N6 1.383 . S
C10 C9 1.439 . S
C10 C39 1.388 1_544 S
N11 Co5 2.009 1_666 S
N11 C12 1.376 . S
N11 C15 1.374 . S
C12 N11 1.376 . S
C12 C13 1.443 . S
C12 C39 1.399 . S
C13 C12 1.443 . S
C13 C14 1.340 . S
C13 H45 0.951 . S
C14 C13 1.340 . S
C14 C15 1.439 . S
C14 H46 0.950 . S
C15 N11 1.374 . S
C15 C14 1.439 . S
C15 C40 1.389 1_655 S
N16 Co5 1.992 1_566 S
N16 C17 1.376 . S
N16 C20 1.383 . S
C17 N16 1.376 . S
C17 C18 1.446 . S
C17 C40 1.398 . S
C18 C17 1.446 . S
C18 C19 1.339 . S
C18 H47 0.949 . S
C19 C18 1.339 . S
C19 C20 1.439 . S
C19 H48 0.950 . S
C20 N16 1.383 . S
C20 C19 1.439 . S
C20 C38 1.392 1_566 S
N21 Co5 2.302 . S
N21 C24 1.332 1_545 S
N21 C26 1.332 1_455 S
C22 C23 1.375 1_545 S
C22 C25 1.405 1_455 S
C23 C22 1.375 1_565 S
C23 C24 1.382 . S
C23 H49 0.950 . S
C24 N21 1.332 1_565 S
C24 C23 1.382 . S
C24 H35 0.952 . S
C25 C22 1.405 1_655 S
C25 C26 1.382 . S
C25 H50 0.950 . S
C26 N21 1.332 1_655 S
C26 C25 1.382 . S
C26 H36 0.948 . S
N27 Co5 2.263 1_666 S
N27 C31 1.332 1_565 S
N27 C32 1.332 1_655 S
C28 C29 1.395 1_455 S
C28 C32 1.382 . S
C28 H51 0.950 . S
C29 C28 1.395 1_655 S
C29 C30 1.381 1_565 S
C30 C29 1.381 1_545 S
C30 C31 1.382 . S
C30 H52 0.950 . S
C31 N27 1.332 1_545 S
C31 C30 1.382 . S
C31 H33 0.952 . S
C32 N27 1.332 1_455 S
C32 C28 1.382 . S
C32 H34 0.948 . S
H33 C31 0.952 . S
H34 C32 0.948 . S
H35 C24 0.952 . S
H36 C26 0.948 . S
C37 C3 1.394 1_655 S
C37 C7 1.392 . S
C38 C0 1.389 . S
C38 C20 1.392 1_544 S
C39 C10 1.388 1_566 S
C39 C12 1.399 . S
C40 C15 1.389 1_455 S
C40 C17 1.398 . S
H41 C1 0.951 . S
H42 C2 0.950 . S
H43 C8 0.949 . S
H44 C9 0.950 . S
H45 C13 0.951 . S
H46 C14 0.950 . S
H47 C18 0.949 . S
H48 C19 0.950 . S
H49 C23 0.950 . S
H50 C25 0.950 . S
H51 C28 0.950 . S
H52 C30 0.950 . S
C53 C54 1.446 . S
C53 N57 1.374 1_565 S
C53 C91 1.389 1_565 S
C54 C53 1.446 . S
C54 C55 1.340 . S
C54 H94 0.951 . S
C55 C54 1.340 . S
C55 C56 1.439 . S
C55 H95 0.950 . S
C56 C55 1.439 . S
C56 N57 1.374 1_565 S
C56 C90 1.395 . S
N57 C53 1.374 1_545 S
N57 C56 1.374 1_545 S
N57 Co58 2.008 . S
Co58 N57 2.008 . S
Co58 N59 1.996 1_545 S
Co58 N64 2.008 1_445 S
Co58 N69 1.993 1_455 S
Co58 N74 2.286 . S
Co58 N80 2.279 1_445 S
N59 Co58 1.996 1_565 S
N59 C60 1.376 . S
N59 C63 1.383 . S
C60 N59 1.376 . S
C60 C61 1.446 . S
C60 C90 1.391 . S
C61 C60 1.446 . S
C61 C62 1.339 . S
C61 H96 0.949 . S
C62 C61 1.339 . S
C62 C63 1.439 . S
C62 H97 0.950 . S
C63 N59 1.383 . S
C63 C62 1.439 . S
C63 C92 1.383 1_455 S
N64 Co58 2.008 1_665 S
N64 C65 1.371 1_565 S
N64 C68 1.374 1_565 S
C65 N64 1.371 1_545 S
C65 C66 1.449 . S
C65 C92 1.402 1_545 S
C66 C65 1.449 . S
C66 C67 1.340 . S
C66 H98 0.951 . S
C67 C66 1.340 . S
C67 C68 1.439 . S
C67 H99 0.950 . S
C68 N64 1.374 1_545 S
C68 C67 1.439 . S
C68 C93 1.395 . S
N69 Co58 1.993 1_655 S
N69 C70 1.376 . S
N69 C73 1.383 . S
C70 N69 1.376 . S
C70 C71 1.446 . S
C70 C93 1.391 . S
C71 C70 1.446 . S
C71 C72 1.339 . S
C71 H100 0.949 . S
C72 C71 1.339 . S
C72 C73 1.439 . S
C72 H101 0.950 . S
C73 N69 1.383 . S
C73 C72 1.439 . S
C73 C91 1.392 1_655 S
N74 Co58 2.286 . S
N74 C77 1.332 1_455 S
N74 C79 1.332 . S
C75 C76 1.372 1_455 S
C75 C78 1.401 . S
C76 C75 1.372 1_655 S
C76 C77 1.382 . S
C76 H102 0.950 . S
C77 N74 1.332 1_655 S
C77 C76 1.382 . S
C77 H88 0.952 . S
C78 C75 1.401 . S
C78 C79 1.382 . S
C78 H103 0.950 . S
C79 N74 1.332 . S
C79 C78 1.382 . S
C79 H89 0.948 . S
N80 Co58 2.279 1_665 S
N80 C84 1.332 1_655 S
N80 C85 1.332 . S
C81 C82 1.396 . S
C81 C85 1.382 . S
C81 H104 0.950 . S
C82 C81 1.396 . S
C82 C83 1.378 1_655 S
C83 C82 1.378 1_455 S
C83 C84 1.382 . S
C83 H105 0.950 . S
C84 N80 1.332 1_455 S
C84 C83 1.382 . S
C84 H86 0.952 . S
C85 N80 1.332 . S
C85 C81 1.382 . S
C85 H87 0.948 . S
H86 C84 0.952 . S
H87 C85 0.948 . S
H88 C77 0.952 . S
H89 C79 0.948 . S
C90 C56 1.395 . S
C90 C60 1.391 . S
C91 C53 1.389 1_545 S
C91 C73 1.392 1_455 S
C92 C63 1.383 1_655 S
C92 C65 1.402 1_565 S
C93 C68 1.395 . S
C93 C70 1.391 . S
H94 C54 0.951 . S
H95 C55 0.950 . S
H96 C61 0.949 . S
H97 C62 0.950 . S
H98 C66 0.951 . S
H99 C67 0.950 . S
H100 C71 0.949 . S
H101 C72 0.950 . S
H102 C76 0.950 . S
H103 C78 0.950 . S
H104 C81 0.950 . S
H105 C83 0.950 . S
H106 C107 0.951 . S
C107 H106 0.951 . S
C107 C113 1.265 1_645 S
H108 C113 0.950 . S
H109 C117 0.949 . S
H110 C118 0.950 . S
H111 C119 0.951 . S
H112 C120 0.951 1_565 S
C113 C107 1.265 1_465 S
C113 H108 0.950 . S
C113 C114 1.478 . S
C114 C113 1.478 . S
C114 C115 1.397 1_565 S
C114 C131 1.394 1_455 S
C115 C114 1.397 1_545 S
C115 C116 1.438 . S
C115 C120 1.429 . S
C116 C115 1.438 . S
C116 C117 1.428 . S
C116 C129 1.394 1_455 S
C117 H109 0.949 . S
C117 C116 1.428 . S
C117 C118 1.345 . S
C118 H110 0.950 . S
C118 C117 1.345 . S
C118 C119 1.424 . S
C119 H111 0.951 . S
C119 C118 1.424 . S
C119 C120 1.347 . S
C120 H112 0.951 1_545 S
C120 C115 1.429 . S
C120 C119 1.347 . S
H121 C122 0.951 . S
C122 H121 0.951 . S
C122 C128 1.265 1_465 S
H123 C128 0.950 . S
H124 C132 0.949 . S
H125 C133 0.950 . S
H126 C134 0.951 . S
H127 C135 0.951 1_545 S
C128 C122 1.265 1_645 S
C128 H123 0.950 . S
C128 C129 1.478 . S
C129 C116 1.394 1_655 S
C129 C128 1.478 . S
C129 C130 1.397 1_545 S
C130 C129 1.397 1_565 S
C130 C131 1.436 . S
C130 C135 1.431 . S
C131 C114 1.394 1_655 S
C131 C130 1.436 . S
C131 C132 1.428 . S
C132 H124 0.949 . S
C132 C131 1.428 . S
C132 C133 1.345 . S
C133 H125 0.950 . S
C133 C132 1.345 . S
C133 C134 1.424 . S
C134 H126 0.951 . S
C134 C133 1.424 . S
C134 C135 1.347 . S
C135 H127 0.951 1_565 S
C135 C130 1.431 . S
C135 C134 1.347 . S
H136 C137 0.954 . S
C137 H136 0.954 . S
C137 C143 1.267 1_645 S
H138 C143 0.950 . S
H139 C147 0.949 . S
H140 C148 0.950 . S
H141 C149 0.951 . S
H142 C150 0.951 . S
C143 C137 1.267 1_465 S
C143 H138 0.950 . S
C143 C144 1.478 . S
C144 C143 1.478 . S
C144 C145 1.397 . S
C144 C161 1.394 1_465 S
C145 C144 1.397 . S
C145 C146 1.438 . S
C145 C150 1.429 . S
C146 C145 1.438 . S
C146 C147 1.428 . S
C146 C159 1.394 1_465 S
C147 H139 0.949 . S
C147 C146 1.428 . S
C147 C148 1.345 . S
C148 H140 0.950 . S
C148 C147 1.345 . S
C148 C149 1.424 . S
C149 H141 0.951 . S
C149 C148 1.424 . S
C149 C150 1.347 . S
C150 H142 0.951 . S
C150 C145 1.429 . S
C150 C149 1.347 . S
H151 C152 0.952 . S
C152 H151 0.952 . S
C152 C158 1.266 1_465 S
H153 C158 0.950 . S
H154 C162 0.949 . S
H155 C163 0.950 . S
H156 C164 0.951 . S
H157 C165 0.951 . S
C158 C152 1.266 1_645 S
C158 H153 0.950 . S
C158 C159 1.478 . S
C159 C146 1.394 1_645 S
C159 C158 1.478 . S
C159 C160 1.397 . S
C160 C159 1.397 . S
C160 C161 1.438 . S
C160 C165 1.429 . S
C161 C144 1.394 1_645 S
C161 C160 1.438 . S
C161 C162 1.428 . S
C162 H154 0.949 . S
C162 C161 1.428 . S
C162 C163 1.345 . S
C163 H155 0.950 . S
C163 C162 1.345 . S
C163 C164 1.424 . S
C164 H156 0.951 . S
C164 C163 1.424 . S
C164 C165 1.347 . S
C165 H157 0.951 . S
C165 C160 1.429 . S
C165 C164 1.347 . S
H166 C167 0.951 . S
C167 H166 0.951 . S
C167 C173 1.265 1_546 S
H168 C173 0.950 . S
H169 C177 0.949 . S
H170 C178 0.950 . S
H171 C179 0.951 . S
H172 C180 0.951 . S
C173 C167 1.265 1_564 S
C173 H168 0.950 . S
C173 C174 1.478 . S
C174 C173 1.478 . S
C174 C175 1.397 1_565 S
C174 C191 1.394 1_554 S
C175 C174 1.397 1_545 S
C175 C176 1.438 . S
C175 C180 1.429 . S
C176 C175 1.438 . S
C176 C177 1.428 . S
C176 C189 1.394 1_554 S
C177 H169 0.949 . S
C177 C176 1.428 . S
C177 C178 1.345 . S
C178 H170 0.950 . S
C178 C177 1.345 . S
C178 C179 1.424 . S
C179 H171 0.951 . S
C179 C178 1.424 . S
C179 C180 1.347 . S
C180 H172 0.951 . S
C180 C175 1.429 . S
C180 C179 1.347 . S
H181 C182 0.951 . S
C182 H181 0.951 . S
C182 C188 1.265 1_564 S
H183 C188 0.950 . S
H184 C192 0.949 . S
H185 C193 0.950 . S
H186 C194 0.951 . S
H187 C195 0.951 . S
C188 C182 1.265 1_546 S
C188 H183 0.950 . S
C188 C189 1.478 . S
C189 C176 1.394 1_556 S
C189 C188 1.478 . S
C189 C190 1.397 1_545 S
C190 C189 1.397 1_565 S
C190 C191 1.438 . S
C190 C195 1.429 . S
C191 C174 1.394 1_556 S
C191 C190 1.438 . S
C191 C192 1.428 . S
C192 H184 0.949 . S
C192 C191 1.428 . S
C192 C193 1.345 . S
C193 H185 0.950 . S
C193 C192 1.345 . S
C193 C194 1.424 . S
C194 H186 0.951 . S
C194 C193 1.424 . S
C194 C195 1.347 . S
C195 H187 0.951 . S
C195 C190 1.429 . S
C195 C194 1.347 . S
H196 C197 0.951 . S
C197 H196 0.951 . S
C197 C203 1.265 1_655 S
H198 C203 0.950 . S
H199 C207 0.949 . S
H200 C208 0.950 . S
H201 C209 0.951 . S
H202 C210 0.951 . S
C203 C197 1.265 1_455 S
C203 H198 0.950 . S
C203 C204 1.478 . S
C204 C203 1.478 . S
C204 C205 1.397 . S
C204 C221 1.394 . S
C205 C204 1.397 . S
C205 C206 1.438 1_455 S
C205 C210 1.429 . S
C206 C205 1.438 1_655 S
C206 C207 1.428 . S
C206 C219 1.394 . S
C207 H199 0.949 . S
C207 C206 1.428 . S
C207 C208 1.345 . S
C208 H200 0.950 . S
C208 C207 1.345 . S
C208 C209 1.424 1_655 S
C209 H201 0.951 . S
C209 C208 1.424 1_455 S
C209 C210 1.347 . S
C210 H202 0.951 . S
C210 C205 1.429 . S
C210 C209 1.347 . S
H211 C212 0.951 . S
C212 H211 0.951 . S
C212 C218 1.265 1_455 S
H213 C218 0.950 . S
H214 C222 0.949 . S
H215 C223 0.950 . S
H216 C224 0.951 . S
H217 C225 0.951 . S
C218 C212 1.265 1_655 S
C218 H213 0.950 . S
C218 C219 1.478 . S
C219 C206 1.394 . S
C219 C218 1.478 . S
C219 C220 1.397 . S
C220 C219 1.397 . S
C220 C221 1.438 1_655 S
C220 C225 1.429 . S
C221 C204 1.394 . S
C221 C220 1.438 1_455 S
C221 C222 1.428 . S
C222 H214 0.949 . S
C222 C221 1.428 . S
C222 C223 1.345 . S
C223 H215 0.950 . S
C223 C222 1.345 . S
C223 C224 1.424 1_455 S
C224 H216 0.951 . S
C224 C223 1.424 1_655 S
C224 C225 1.347 . S
C225 H217 0.951 . S
C225 C220 1.429 . S
C225 C224 1.347 . S
C107 C22 1.486 1_655 S
C122 C92 1.481 1_455 S
C137 C29 1.479 1_545 S
C152 C91 1.486 1_565 S
C167 C39 1.480 1_545 S
C182 C38 1.484 1_565 S
C197 C82 1.487 . S
C212 C75 1.488 . S
