# Generated by pormake.
# Topology hex, (8)-cn, num edge types: 1
# Building blocks:
#     Node 0, Type 0, BuildingBlock: VETTIZ_charged_sbu_0, # of connection points: 8
#     Edge 1, Type (0, 0), BuildingBlock: FUNLAD_clean_linker_0, # of connection points: 2
#     Edge 2, Type (0, 0), BuildingBlock: FUNLAD_clean_linker_0, # of connection points: 2
#     Edge 3, Type (0, 0), BuildingBlock: FUNLAD_clean_linker_0, # of connection points: 2
#     Edge 4, Type (0, 0), BuildingBlock: FUNLAD_clean_linker_0, # of connection points: 2
# Relax obj value: 0.198
# Max RMSD: 0.293
# Mean RMSD: 0.293
data_MOF--net-hex--node1-VETTIZ_charged_sbu_0--edge1-FUNLAD_clean_linker_0
_symmetry_space_group_name_H-M    P1
_symmetry_Int_Tables_number       1
_symmetry_cell_setting            triclinic
loop_
_symmetry_equiv_pos_as_xyz
'x, y, z'
_cell_length_a     19.504397
_cell_length_b     18.762277
_cell_length_c     19.974021
_cell_angle_alpha  84.458078
_cell_angle_beta   97.329857
_cell_angle_gamma 122.46845
loop_
_atom_site_label
_atom_site_type_symbol
_atom_site_fract_x
_atom_site_fract_y
_atom_site_fract_z
_atom_type_partial_charge
Fe0 Fe 0.02581 0.91733 0.11688 0.0
O1 O 0.03897 1.01052 0.05618 0.0
Fe2 Fe 0.95277 0.04471 0.04489 0.0
Fe3 Fe 0.05683 1.01846 0.95912 0.0
O4 O 0.03899 1.01653 0.06088 0.0
O5 O 0.97062 0.05263 0.94783 0.0
O6 O 0.9706 0.04662 0.94314 0.0
Fe7 Fe 0.9838 0.14584 0.88713 0.0
C8 C 0.18256 0.99145 0.04911 0.0
O9 O 0.01036 0.84324 0.04164 0.0
O10 O 0.97336 0.8899 0.94546 0.0
O11 O 0.8601 0.08864 0.89802 0.0
O12 O 0.86213 0.06989 0.01444 0.0
O13 O 0.86517 0.92052 0.03166 0.0
O14 O 0.89819 0.85327 0.11479 0.0
O15 O 0.06566 0.03169 0.85431 0.0
O16 O 0.97586 0.07324 0.81273 0.0
C17 C 0.84658 0.85563 0.06958 0.0
O18 O 0.99928 0.21994 0.96238 0.0
O19 O 0.03625 0.17326 0.05856 0.0
O20 O 0.14951 0.97455 0.106 0.0
O21 O 0.14748 0.99329 0.98958 0.0
C22 C 0.97785 0.83216 0.98146 0.0
C23 C 0.01965 0.04184 0.80604 0.0
C24 C 0.16301 0.20752 0.93444 0.0
O25 O 0.14442 0.14265 0.97236 0.0
O26 O 0.11141 0.20987 0.88921 0.0
C27 C 0.82707 0.07177 0.95491 0.0
O28 O 0.94394 0.03147 0.14971 0.0
O29 O 0.03373 0.98991 0.19128 0.0
C30 C 0.03177 0.23101 0.02255 0.0
C31 C 0.98993 0.02131 0.19798 0.0
C32 C 0.98303 0.31001 0.06983 0.0
C33 C 0.04959 0.30916 0.05101 0.0
C34 C 0.98082 0.38379 0.06122 0.0
C35 C 0.04561 0.45837 0.03394 0.0
C36 C 0.1162 0.4599 0.02307 0.0
C37 C 0.11781 0.38573 0.03074 0.0
C38 C 0.04022 0.534 0.01334 0.0
C39 C 0.96943 0.52918 0.99066 0.0
C40 C 0.96405 0.60481 0.97007 0.0
C41 C 0.89347 0.6033 0.98097 0.0
C42 C 0.89186 0.67747 0.97329 0.0
C43 C 0.96008 0.75403 0.953 0.0
H44 H 0.08295 0.68218 0.93119 0.0
C45 C 0.02662 0.75316 0.93414 0.0
C46 C 0.02882 0.67938 0.94276 0.0
H47 H 0.08089 0.81174 0.92003 0.0
H48 H 0.92875 0.25142 0.08393 0.0
H49 H 0.92667 0.38097 0.07276 0.0
H50 H 0.16765 0.51682 0.00321 0.0
H51 H 0.16888 0.38641 0.01405 0.0
H52 H 0.09712 0.5951 0.01411 0.0
H53 H 0.91253 0.46808 0.98989 0.0
H54 H 0.84203 0.54638 1.00085 0.0
H55 H 0.8408 0.67679 0.99001 0.0
C56 C 0.69787 1.00797 0.00841 0.0
C57 C 0.74407 0.0546 0.95408 0.0
C58 C 0.62301 0.99838 0.01328 0.0
C59 C 0.5932 0.03638 0.96436 0.0
C60 C 0.63672 0.07858 0.9078 0.0
C61 C 0.71192 0.08777 0.90263 0.0
C62 C 0.51741 0.0335 0.97165 0.0
C63 C 0.49238 0.03009 0.03242 0.0
C64 C 0.41656 0.02714 0.0397 0.0
C65 C 0.37305 0.98492 0.09627 0.0
C66 C 0.2978 0.97562 0.10142 0.0
C67 C 0.26559 1.00871 0.04995 0.0
H68 H 0.4205 0.10179 0.94831 0.0
C69 C 0.31178 0.05537 0.99562 0.0
C70 C 0.38668 0.06507 0.99077 0.0
H71 H 0.28948 0.08354 0.95595 0.0
H72 H 0.72012 0.97975 0.04807 0.0
H73 H 0.58918 0.96168 0.05574 0.0
H74 H 0.61392 0.10701 0.86884 0.0
H75 H 0.74614 0.12351 0.86003 0.0
H76 H 0.48279 0.0364 0.92552 0.0
H77 H 0.527 0.02719 0.07854 0.0
H78 H 0.39589 0.95654 0.13524 0.0
H79 H 0.2636 0.93987 0.14403 0.0
C80 C 0.27058 0.36403 0.9231 0.0
C81 C 0.24813 0.28154 0.94562 0.0
C82 C 0.3499 0.43305 0.93997 0.0
C83 C 0.4085 0.42071 0.97938 0.0
C84 C 0.38638 0.33799 0.99965 0.0
C85 C 0.30755 0.26973 0.98359 0.0
C86 C 0.4936 0.49101 0.99974 0.0
C87 C 0.51601 0.57214 0.00425 0.0
C88 C 0.60111 0.64244 0.02462 0.0
C89 C 0.6232 0.72517 0.00442 0.0
C90 C 0.70203 0.79343 0.02049 0.0
C91 C 0.76146 0.78161 0.0584 0.0
H92 H 0.64473 0.56762 0.08229 0.0
C93 C 0.73904 0.69911 0.08085 0.0
C94 C 0.65973 0.63008 0.06397 0.0
H95 H 0.78316 0.68766 0.11005 0.0
H96 H 0.22649 0.37548 0.89386 0.0
H97 H 0.36493 0.49551 0.92161 0.0
H98 H 0.42993 0.32601 0.02936 0.0
H99 H 0.29305 0.20733 1.00185 0.0
H100 H 0.53891 0.47407 0.01312 0.0
H101 H 0.4707 0.58906 0.99087 0.0
H102 H 0.57963 0.73715 0.97476 0.0
H103 H 0.7165 0.85585 1.00229 0.0
C104 C 0.94718 0.99438 0.69304 0.0
C105 C 0.01826 0.02052 0.73687 0.0
C106 C 0.94837 0.99027 0.62417 0.0
C107 C 0.02106 1.01317 0.59767 0.0
C108 C 0.09027 0.0321 0.64208 0.0
C109 C 0.08901 0.03593 0.7115 0.0
C110 C 0.02671 0.02007 0.52403 0.0
C111 C 0.98278 0.04294 0.47999 0.0
C112 C 0.98844 0.04987 0.40635 0.0
C113 C 0.91925 0.03095 0.36193 0.0
C114 C 0.92054 0.02716 0.29252 0.0
C115 C 0.9913 0.04259 0.26716 0.0
H116 H 0.11679 0.09203 0.41226 0.0
C117 C 0.06237 0.06872 0.311 0.0
C118 C 0.06116 0.07279 0.37987 0.0
H119 H 0.11838 0.08305 0.2923 0.0
H120 H 0.89118 0.98007 0.71174 0.0
H121 H 0.89273 0.97103 0.59179 0.0
H122 H 0.14652 0.0482 0.62272 0.0
H123 H 0.14443 0.05588 0.74445 0.0
H124 H 0.07023 1.00869 0.50623 0.0
H125 H 0.93926 0.05433 0.49779 0.0
H126 H 0.86299 1.01483 0.38129 0.0
H127 H 0.86512 1.00721 0.25955 0.0
loop_
_geom_bond_atom_site_label_1
_geom_bond_atom_site_label_2
_geom_bond_distance
_geom_bond_site_symmetry_2
_ccdc_geom_bond_type
Fe0 O1 1.886 1_554 S
Fe0 O4 1.715 1_455 S
Fe0 O9 2.077 1_455 S
Fe0 O14 1.935 1_455 S
Fe0 O20 2.077 . S
Fe0 O29 1.935 . S
O1 Fe0 1.886 1_556 S
O1 Fe3 1.715 1_565 S
Fe2 O4 1.886 . S
Fe2 O5 1.715 1_565 S
Fe2 O12 1.935 . S
Fe2 O13 2.077 . S
Fe2 O19 1.935 1_565 S
Fe2 O28 2.077 1_565 S
Fe3 O1 1.715 1_545 S
Fe3 O6 1.886 . S
Fe3 O10 1.935 1_545 S
Fe3 O15 2.077 1_545 S
Fe3 O21 1.935 . S
Fe3 O25 2.077 . S
O4 Fe0 1.715 1_655 S
O4 Fe2 1.886 . S
O5 Fe2 1.715 1_545 S
O5 Fe7 1.886 1_554 S
O6 Fe3 1.886 . S
O6 Fe7 1.715 1_455 S
Fe7 O5 1.886 1_556 S
Fe7 O6 1.715 1_655 S
Fe7 O11 2.077 . S
Fe7 O16 1.935 . S
Fe7 O18 2.077 1_655 S
Fe7 O26 1.935 1_655 S
C8 O20 1.381 . S
C8 O21 1.421 1_564 S
O9 Fe0 2.077 1_655 S
O9 C22 1.381 1_654 S
O10 Fe3 1.935 1_565 S
O10 C22 1.421 . S
O11 Fe7 2.077 . S
O11 C27 1.381 . S
O12 Fe2 1.935 . S
O12 C27 1.421 1_564 S
O13 Fe2 2.077 . S
O13 C17 1.381 . S
O14 Fe0 1.935 1_655 S
O14 C17 1.421 . S
O15 Fe3 2.077 1_565 S
O15 C23 1.381 1_565 S
O16 Fe7 1.935 . S
O16 C23 1.421 1_655 S
C17 O13 1.381 . S
C17 O14 1.421 . S
O18 Fe7 2.077 1_455 S
O18 C30 1.381 1_456 S
O19 Fe2 1.935 1_545 S
O19 C30 1.421 . S
O20 Fe0 2.077 . S
O20 C8 1.381 . S
O21 Fe3 1.935 . S
O21 C8 1.421 1_546 S
C22 O9 1.381 1_456 S
C22 O10 1.421 . S
C23 O15 1.381 1_545 S
C23 O16 1.421 1_455 S
C24 O25 1.381 . S
C24 O26 1.421 . S
O25 Fe3 2.077 . S
O25 C24 1.381 . S
O26 Fe7 1.935 1_455 S
O26 C24 1.421 . S
C27 O11 1.381 . S
C27 O12 1.421 1_546 S
O28 Fe2 2.077 1_545 S
O28 C31 1.381 1_545 S
O29 Fe0 1.935 . S
O29 C31 1.421 1_455 S
C30 O18 1.381 1_654 S
C30 O19 1.421 . S
C31 O28 1.381 1_565 S
C31 O29 1.421 1_655 S
C32 C33 1.386 1_655 S
C32 C34 1.383 . S
C32 H48 0.951 . S
C33 C32 1.386 1_455 S
C33 C37 1.383 . S
C34 C32 1.383 . S
C34 C35 1.402 1_655 S
C34 H49 0.951 . S
C35 C34 1.402 1_455 S
C35 C36 1.375 1_554 S
C35 C38 1.481 1_554 S
C36 C35 1.375 1_556 S
C36 C37 1.367 1_556 S
C36 H50 0.951 . S
C37 C33 1.383 . S
C37 C36 1.367 1_554 S
C37 H51 0.950 1_554 S
C38 C35 1.481 1_556 S
C38 C39 1.297 1_556 S
C38 H52 0.950 . S
C39 C38 1.297 1_554 S
C39 C40 1.479 1_554 S
C39 H53 0.950 1_455 S
C40 C39 1.479 1_556 S
C40 C41 1.375 1_456 S
C40 C46 1.404 . S
C41 C40 1.375 1_654 S
C41 C42 1.369 1_554 S
C41 H54 0.950 . S
C42 C41 1.369 1_556 S
C42 C43 1.392 1_655 S
C42 H55 0.951 1_556 S
C43 C42 1.392 1_455 S
C43 C45 1.384 . S
H44 C46 0.949 . S
C45 C43 1.384 . S
C45 C46 1.385 . S
C45 H47 0.950 . S
C46 C40 1.404 . S
C46 H44 0.949 . S
C46 C45 1.385 . S
H47 C45 0.950 . S
H48 C32 0.951 . S
H49 C34 0.951 . S
H50 C36 0.951 . S
H51 C37 0.950 1_556 S
H52 C38 0.950 . S
H53 C39 0.950 1_655 S
H54 C41 0.950 . S
H55 C42 0.951 1_554 S
C56 C57 1.386 1_565 S
C56 C58 1.383 1_566 S
C56 H72 0.951 1_556 S
C57 C56 1.386 1_545 S
C57 C61 1.383 . S
C58 C56 1.383 1_544 S
C58 C59 1.402 1_554 S
C58 H73 0.951 1_545 S
C59 C58 1.402 1_556 S
C59 C60 1.375 . S
C59 C62 1.481 . S
C60 C59 1.375 . S
C60 C61 1.367 . S
C60 H74 0.951 . S
C61 C57 1.383 . S
C61 C60 1.367 . S
C61 H75 0.950 . S
C62 C59 1.481 . S
C62 C63 1.297 1_556 S
C62 H76 0.950 . S
C63 C62 1.297 1_554 S
C63 C64 1.479 . S
C63 H77 0.950 . S
C64 C63 1.479 . S
C64 C65 1.375 . S
C64 C70 1.404 1_554 S
C65 C64 1.375 . S
C65 C66 1.369 1_545 S
C65 H78 0.950 1_545 S
C66 C65 1.369 1_565 S
C66 C67 1.392 1_565 S
C66 H79 0.951 . S
C67 C66 1.392 1_545 S
C67 C69 1.384 . S
H68 C70 0.949 . S
C69 C67 1.384 . S
C69 C70 1.385 1_554 S
C69 H71 0.950 1_554 S
C70 C64 1.404 1_556 S
C70 H68 0.949 . S
C70 C69 1.385 1_556 S
H71 C69 0.950 1_556 S
H72 C56 0.951 1_554 S
H73 C58 0.951 1_565 S
H74 C60 0.951 . S
H75 C61 0.950 . S
H76 C62 0.950 . S
H77 C63 0.950 . S
H78 C65 0.950 1_565 S
H79 C66 0.951 . S
C80 C81 1.386 . S
C80 C82 1.383 . S
C80 H96 0.951 . S
C81 C80 1.386 . S
C81 C85 1.383 . S
C82 C80 1.383 . S
C82 C83 1.402 . S
C82 H97 0.951 . S
C83 C82 1.402 . S
C83 C84 1.375 1_556 S
C83 C86 1.480 . S
C84 C83 1.375 1_554 S
C84 C85 1.367 1_554 S
C84 H98 0.951 . S
C85 C81 1.383 . S
C85 C84 1.367 1_556 S
C85 H99 0.950 1_556 S
C86 C83 1.480 . S
C86 C87 1.296 . S
C86 H100 0.951 1_556 S
C87 C86 1.296 . S
C87 C88 1.479 1_556 S
C87 H101 0.950 . S
C88 C87 1.479 1_554 S
C88 C89 1.375 1_554 S
C88 C94 1.404 . S
C89 C88 1.375 1_556 S
C89 C90 1.369 1_556 S
C89 H102 0.950 . S
C90 C89 1.369 1_554 S
C90 C91 1.392 . S
C90 H103 0.951 1_554 S
C91 C90 1.392 . S
C91 C93 1.384 . S
H92 C94 0.949 . S
C93 C91 1.384 . S
C93 C94 1.385 . S
C93 H95 0.950 . S
C94 C88 1.404 . S
C94 H92 0.949 . S
C94 C93 1.385 . S
H95 C93 0.950 . S
H96 C80 0.951 . S
H97 C82 0.951 . S
H98 C84 0.951 . S
H99 C85 0.950 1_554 S
H100 C86 0.951 1_554 S
H101 C87 0.950 . S
H102 C89 0.950 . S
H103 C90 0.951 1_556 S
C104 C105 1.386 1_665 S
C104 C106 1.383 . S
C104 H120 0.951 . S
C105 C104 1.386 1_445 S
C105 C109 1.383 . S
C106 C104 1.383 . S
C106 C107 1.402 1_665 S
C106 H121 0.951 . S
C107 C106 1.402 1_445 S
C107 C108 1.375 . S
C107 C110 1.481 . S
C108 C107 1.375 . S
C108 C109 1.367 . S
C108 H122 0.951 . S
C109 C105 1.383 . S
C109 C108 1.367 . S
C109 H123 0.950 . S
C110 C107 1.481 . S
C110 C111 1.297 1_455 S
C110 H124 0.950 . S
C111 C110 1.297 1_655 S
C111 C112 1.479 . S
C111 H125 0.950 1_545 S
C112 C111 1.479 . S
C112 C113 1.375 1_545 S
C112 C118 1.404 1_655 S
C113 C112 1.375 1_565 S
C113 C114 1.369 . S
C113 H126 0.950 . S
C114 C113 1.369 . S
C114 C115 1.392 1_565 S
C114 H127 0.951 . S
C115 C114 1.392 1_545 S
C115 C117 1.384 1_655 S
H116 C118 0.949 . S
C117 C115 1.384 1_455 S
C117 C118 1.385 . S
C117 H119 0.950 . S
C118 C112 1.404 1_455 S
C118 H116 0.949 . S
C118 C117 1.385 . S
H119 C117 0.950 . S
H120 C104 0.951 . S
H121 C106 0.951 . S
H122 C108 0.951 . S
H123 C109 0.950 . S
H124 C110 0.950 . S
H125 C111 0.950 1_565 S
H126 C113 0.950 . S
H127 C114 0.951 . S
C33 C30 1.434 1_455 S
C43 C22 1.333 . S
C57 C27 1.384 . S
C67 C8 1.432 1_545 S
C81 C24 1.481 . S
C91 C17 1.476 . S
C105 C23 1.420 . S
C115 C31 1.456 1_545 S
