# Generated by pormake.
# Topology unc, (4)-cn, num edge types: 1
# Building blocks:
#     Node 0, Type 0, BuildingBlock: CEKHIL_clean_sbu_0, # of connection points: 4
#     Node 1, Type 0, BuildingBlock: CEKHIL_clean_sbu_0, # of connection points: 4
#     Node 2, Type 0, BuildingBlock: CEKHIL_clean_sbu_0, # of connection points: 4
#     Node 3, Type 0, BuildingBlock: CEKHIL_clean_sbu_0, # of connection points: 4
#     Edge 4, Type (0, 0), BuildingBlock: AJUNOK_clean_linker_0, # of connection points: 2
#     Edge 5, Type (0, 0), BuildingBlock: AJUNOK_clean_linker_0, # of connection points: 2
#     Edge 6, Type (0, 0), BuildingBlock: AJUNOK_clean_linker_0, # of connection points: 2
#     Edge 7, Type (0, 0), BuildingBlock: AJUNOK_clean_linker_0, # of connection points: 2
#     Edge 8, Type (0, 0), BuildingBlock: AJUNOK_clean_linker_0, # of connection points: 2
#     Edge 9, Type (0, 0), BuildingBlock: AJUNOK_clean_linker_0, # of connection points: 2
#     Edge 10, Type (0, 0), BuildingBlock: AJUNOK_clean_linker_0, # of connection points: 2
#     Edge 11, Type (0, 0), BuildingBlock: AJUNOK_clean_linker_0, # of connection points: 2
# Relax obj value: 0.004
# Max RMSD: 0.039
# Mean RMSD: 0.039
data_MOF--net-unc--node1-CEKHIL_clean_sbu_0--edge1-AJUNOK_clean_linker_0
_symmetry_space_group_name_H-M    P1
_symmetry_Int_Tables_number       1
_symmetry_cell_setting            triclinic
loop_
_symmetry_equiv_pos_as_xyz
'x, y, z'
_cell_length_a     21.671042
_cell_length_b     21.600386
_cell_length_c     15.951842
_cell_angle_alpha  89.737229
_cell_angle_beta   90.378006
_cell_angle_gamma 93.575648
loop_
_atom_site_label
_atom_site_type_symbol
_atom_site_fract_x
_atom_site_fract_y
_atom_site_fract_z
_atom_type_partial_charge
Co0 Co 0.0196 0.70631 0.96328 0.0
O1 O 0.99749 0.77141 0.88764 0.0
O2 O 0.95494 0.75389 1.01136 0.0
C3 C 0.01663 0.63098 0.86366 0.0
O4 O 0.02955 0.64109 0.05618 0.0
Co5 Co 0.14214 0.64391 0.93396 0.0
O6 O 0.10864 0.58446 0.0195 0.0
C7 C 0.14547 0.76507 0.01945 0.0
C8 C 0.95687 0.78605 0.94197 0.0
C9 C 0.06446 0.59547 0.06851 0.0
O10 O 0.08591 0.76315 0.01859 0.0
O11 O 0.17647 0.72431 0.98341 0.0
O12 O 0.96672 0.64632 0.90063 0.0
O13 O 0.06571 0.66541 0.88216 0.0
Co14 Co 0.34976 0.03867 0.32365 0.0
O15 O 0.28448 0.05779 0.39933 0.0
O16 O 0.30189 0.10447 0.27779 0.0
C17 C 0.42459 0.03974 0.42481 0.0
O18 O 0.41462 0.0328 0.2306 0.0
Co19 Co 0.41443 0.91657 0.34621 0.0
O20 O 0.47106 0.95109 0.25896 0.0
C21 C 0.29698 0.91549 0.2508 0.0
C22 C 0.26972 0.10015 0.34652 0.0
C23 C 0.45923 0.99786 0.21411 0.0
O24 O 0.2938 0.97392 0.26408 0.0
O25 O 0.34017 0.88376 0.28025 0.0
O26 O 0.40857 0.09034 0.38896 0.0
O27 O 0.39145 0.99021 0.40375 0.0
Co28 Co 0.02842 0.35712 0.46348 0.0
O29 O 0.04443 0.29165 0.38631 0.0
O30 O 0.09053 0.3045 0.50919 0.0
C31 C 0.03666 0.43258 0.36256 0.0
O32 O 0.02616 0.42128 0.55805 0.0
Co33 Co 0.91405 0.43237 0.44004 0.0
O34 O 0.94941 0.48443 0.53198 0.0
C35 C 0.90104 0.31132 0.52902 0.0
C36 C 0.08617 0.27463 0.43844 0.0
C37 C 0.99493 0.46834 0.57601 0.0
O38 O 0.95929 0.30452 0.51978 0.0
O39 O 0.87418 0.35719 0.49719 0.0
O40 O 0.08459 0.4133 0.40123 0.0
O41 O 0.98471 0.40333 0.38216 0.0
Co42 Co 0.69928 0.02986 0.82728 0.0
O43 O 0.76506 0.0127 0.90457 0.0
O44 O 0.75025 0.9667 0.78236 0.0
C45 C 0.62386 0.02346 0.92682 0.0
O46 O 0.63425 0.03315 0.73306 0.0
Co47 Co 0.62702 0.14715 0.85014 0.0
O48 O 0.57354 0.1116 0.75947 0.0
C49 C 0.74653 0.15728 0.75996 0.0
C50 C 0.78096 0.97066 0.85281 0.0
C51 C 0.58773 0.06557 0.71552 0.0
O52 O 0.75223 0.09856 0.76969 0.0
O53 O 0.70199 0.18532 0.79196 0.0
O54 O 0.64272 0.97454 0.89072 0.0
O55 O 0.65455 0.07471 0.907 0.0
C56 C 0.99979 0.54609 0.18623 0.0
C57 C 0.05705 0.55567 0.14516 0.0
C58 C 0.99308 0.50649 0.25681 0.0
C59 C 0.04366 0.47613 0.28991 0.0
H60 H 0.95966 0.56831 0.16275 0.0
H61 H 0.94804 0.49966 0.28563 0.0
S62 S 0.20413 0.48747 0.20774 0.0
N63 N 0.16563 0.53241 0.14513 0.0
N64 N 0.15311 0.45931 0.27634 0.0
C65 C 0.10127 0.48641 0.25028 0.0
C66 C 0.10792 0.52578 0.17842 0.0
C67 C 0.49746 0.10022 0.51923 0.0
C68 C 0.47133 0.04197 0.49382 0.0
C69 C 0.5363 0.10639 0.58939 0.0
C70 C 0.5518 0.0546 0.63693 0.0
H71 H 0.48644 0.14211 0.48625 0.0
H72 H 0.55371 0.1526 0.60734 0.0
S73 S 0.49996 0.89097 0.59454 0.0
N74 N 0.4664 0.93062 0.52 0.0
N75 N 0.54091 0.94254 0.65162 0.0
C76 C 0.5287 0.99561 0.61046 0.0
C77 C 0.48806 0.98924 0.53909 0.0
C78 C 0.0646 0.57888 0.74097 0.0
C79 C 0.0152 0.58237 0.79771 0.0
C80 C 0.05992 0.53895 0.67118 0.0
C81 C 1.00573 0.50135 0.65621 0.0
H82 H 0.10603 0.60914 0.74833 0.0
H83 H 0.09749 0.5398 0.62666 0.0
S84 S 0.86708 0.48618 0.79122 0.0
N85 N 0.91322 0.53919 0.83813 0.0
N86 N 0.90456 0.46533 0.7072 0.0
C87 C 0.95778 0.50173 0.71486 0.0
C88 C 0.96249 0.54187 0.78564 0.0
C89 C 0.52129 0.06512 0.11042 0.0
C90 C 0.49523 1.00672 0.13554 0.0
C91 C 0.56149 0.07095 0.04105 0.0
C92 C 0.5761 0.0187 0.99389 0.0
H93 H 0.51271 0.10599 0.14657 0.0
H94 H 0.58253 0.11636 0.02578 0.0
S95 S 0.51275 0.85673 0.02824 0.0
N96 N 0.48267 0.89676 0.1039 0.0
N97 N 0.55593 0.90761 0.9735 0.0
C98 C 0.54717 0.96078 0.01597 0.0
C99 C 0.50738 0.95484 0.08675 0.0
C100 C 0.19291 0.86833 0.20519 0.0
C101 C 0.25521 0.88504 0.18772 0.0
C102 C 0.15603 0.83261 0.14785 0.0
C103 C 0.18049 0.81247 0.07151 0.0
H104 H 0.1734 0.88068 0.26472 0.0
H105 H 0.10915 0.81798 0.16543 0.0
S106 S 0.33847 0.85308 0.99204 0.0
N107 N 0.33768 0.88515 0.08577 0.0
N108 N 0.26903 0.81853 0.97835 0.0
C109 C 0.24171 0.83246 0.05178 0.0
C110 C 0.2789 0.86857 0.10985 0.0
C111 C 0.20402 0.15106 0.4518 0.0
C112 C 0.22108 0.14324 0.36741 0.0
C113 C 0.16026 0.19328 0.47459 0.0
C114 C 0.13062 0.22829 0.41371 0.0
H115 H 0.22564 0.12527 0.50116 0.0
H116 H 0.14948 0.19841 0.54031 0.0
S117 S 0.15811 0.22509 0.18399 0.0
N118 N 0.20475 0.17448 0.22295 0.0
N119 N 0.12161 0.25247 0.26505 0.0
C120 C 0.14653 0.22027 0.32895 0.0
C121 C 0.19197 0.17819 0.306 0.0
C122 C 0.76857 0.24959 0.66749 0.0
C123 C 0.78889 0.19431 0.7023 0.0
C124 C 0.80448 0.28527 0.61046 0.0
C125 C 0.86326 0.26824 0.58529 0.0
H126 H 0.72376 0.26559 0.6835 0.0
H127 H 0.78581 0.32741 0.58701 0.0
S128 S 0.9389 0.12748 0.65742 0.0
N129 N 0.8719 0.12359 0.70662 0.0
N130 N 0.94033 0.19148 0.60014 0.0
C131 C 0.88456 0.21293 0.61936 0.0
C132 C 0.84726 0.17585 0.67734 0.0
C133 C 0.85921 0.89427 0.8154 0.0
C134 C 0.82765 0.92591 0.87701 0.0
C135 C 0.90162 0.85016 0.83742 0.0
C136 C 0.91316 0.83468 0.92192 0.0
H137 H 0.85122 0.90372 0.7496 0.0
H138 H 0.92465 0.82706 0.78745 0.0
S139 S 0.84188 0.90349 0.10745 0.0
N140 N 0.81115 0.93874 0.02666 0.0
N141 N 0.88947 0.85483 0.06739 0.0
C142 C 0.88178 0.86578 0.98415 0.0
C143 C 0.8395 0.91164 0.96187 0.0
loop_
_geom_bond_atom_site_label_1
_geom_bond_atom_site_label_2
_geom_bond_distance
_geom_bond_site_symmetry_2
_ccdc_geom_bond_type
Co0 O1 2.216 1_554 S
Co0 O2 2.091 . S
Co0 O4 2.004 . S
Co0 O10 2.021 1_655 S
Co0 O12 2.137 1_554 S
Co0 O13 2.244 1_654 S
O1 Co0 2.216 1_556 S
O1 C8 1.247 . S
O2 Co0 2.091 . S
O2 C8 1.261 1_554 S
C3 O12 1.247 1_455 S
C3 O13 1.272 . S
O4 Co0 2.004 . S
O4 C9 1.259 1_655 S
Co5 O6 2.061 . S
Co5 O11 2.052 . S
Co5 O13 2.135 1_554 S
O6 Co5 2.061 . S
O6 C9 1.235 . S
C7 O10 1.238 . S
C7 O11 1.241 . S
C8 O1 1.247 . S
C8 O2 1.261 1_556 S
C9 O4 1.259 1_455 S
C9 O6 1.235 . S
O10 Co0 2.021 1_455 S
O10 C7 1.238 . S
O11 Co5 2.052 . S
O11 C7 1.241 . S
O12 Co0 2.137 1_556 S
O12 C3 1.247 1_655 S
O13 Co0 2.244 1_456 S
O13 C3 1.272 . S
O13 Co5 2.135 1_556 S
Co14 O15 2.216 . S
Co14 O16 2.091 . S
Co14 O18 2.004 . S
Co14 O24 2.021 1_545 S
Co14 O26 2.137 . S
Co14 O27 2.244 1_545 S
O15 Co14 2.216 . S
O15 C22 1.247 . S
O16 Co14 2.091 . S
O16 C22 1.261 . S
C17 O26 1.247 . S
C17 O27 1.272 1_545 S
O18 Co14 2.004 . S
O18 C23 1.259 . S
Co19 O20 2.061 . S
Co19 O25 2.052 . S
Co19 O27 2.135 . S
O20 Co19 2.061 . S
O20 C23 1.235 1_565 S
C21 O24 1.238 . S
C21 O25 1.241 . S
C22 O15 1.247 . S
C22 O16 1.261 . S
C23 O18 1.259 . S
C23 O20 1.235 1_545 S
O24 Co14 2.021 1_565 S
O24 C21 1.238 . S
O25 Co19 2.052 . S
O25 C21 1.241 . S
O26 Co14 2.137 . S
O26 C17 1.247 . S
O27 Co14 2.244 1_565 S
O27 C17 1.272 1_565 S
O27 Co19 2.135 . S
Co28 O29 2.216 . S
Co28 O30 2.091 . S
Co28 O32 2.004 . S
Co28 O38 2.021 1_455 S
Co28 O40 2.137 . S
Co28 O41 2.244 1_455 S
O29 Co28 2.216 . S
O29 C36 1.247 . S
O30 Co28 2.091 . S
O30 C36 1.261 . S
C31 O40 1.247 . S
C31 O41 1.272 1_455 S
O32 Co28 2.004 . S
O32 C37 1.259 . S
Co33 O34 2.061 . S
Co33 O39 2.052 . S
Co33 O41 2.135 . S
O34 Co33 2.061 . S
O34 C37 1.235 1_655 S
C35 O38 1.238 . S
C35 O39 1.241 . S
C36 O29 1.247 . S
C36 O30 1.261 . S
C37 O32 1.259 . S
C37 O34 1.235 1_455 S
O38 Co28 2.021 1_655 S
O38 C35 1.238 . S
O39 Co33 2.052 . S
O39 C35 1.241 . S
O40 Co28 2.137 . S
O40 C31 1.247 . S
O41 Co28 2.244 1_655 S
O41 C31 1.272 1_655 S
O41 Co33 2.135 . S
Co42 O43 2.216 . S
Co42 O44 2.091 . S
Co42 O46 2.004 . S
Co42 O52 2.021 1_565 S
Co42 O54 2.137 . S
Co42 O55 2.244 1_565 S
O43 Co42 2.216 . S
O43 C50 1.247 . S
O44 Co42 2.091 . S
O44 C50 1.261 . S
C45 O54 1.247 1_545 S
C45 O55 1.272 . S
O46 Co42 2.004 . S
O46 C51 1.259 1_565 S
Co47 O48 2.061 . S
Co47 O53 2.052 . S
Co47 O55 2.135 . S
O48 Co47 2.061 . S
O48 C51 1.235 . S
C49 O52 1.238 . S
C49 O53 1.241 . S
C50 O43 1.247 . S
C50 O44 1.261 . S
C51 O46 1.259 1_545 S
C51 O48 1.235 . S
O52 Co42 2.021 1_545 S
O52 C49 1.238 . S
O53 Co47 2.052 . S
O53 C49 1.241 . S
O54 Co42 2.137 . S
O54 C45 1.247 1_565 S
O55 Co42 2.244 1_545 S
O55 C45 1.272 . S
O55 Co47 2.135 . S
C56 C57 1.369 1_655 S
C56 C58 1.419 . S
C56 H60 0.930 . S
C57 C56 1.369 1_455 S
C57 C66 1.429 . S
C58 C56 1.419 . S
C58 C59 1.363 1_655 S
C58 H61 0.929 . S
C59 C58 1.363 1_455 S
C59 C65 1.428 . S
H60 C56 0.930 . S
H61 C58 0.929 . S
S62 N63 1.613 . S
S62 N64 1.610 . S
N63 S62 1.613 . S
N63 C66 1.350 . S
N64 S62 1.610 . S
N64 C65 1.351 . S
C65 C59 1.428 . S
C65 N64 1.351 . S
C65 C66 1.434 . S
C66 C57 1.429 . S
C66 N63 1.350 . S
C66 C65 1.434 . S
C67 C68 1.369 . S
C67 C69 1.419 . S
C67 H71 0.930 . S
C68 C67 1.369 . S
C68 C77 1.429 . S
C69 C67 1.419 . S
C69 C70 1.363 . S
C69 H72 0.929 . S
C70 C69 1.363 . S
C70 C76 1.428 . S
H71 C67 0.930 . S
H72 C69 0.929 . S
S73 N74 1.613 . S
S73 N75 1.610 . S
N74 S73 1.613 . S
N74 C77 1.350 . S
N75 S73 1.610 . S
N75 C76 1.351 . S
C76 C70 1.428 . S
C76 N75 1.351 . S
C76 C77 1.434 . S
C77 C68 1.429 . S
C77 N74 1.350 . S
C77 C76 1.434 . S
C78 C79 1.369 . S
C78 C80 1.419 . S
C78 H82 0.930 . S
C79 C78 1.369 . S
C79 C88 1.429 . S
C80 C78 1.419 . S
C80 C81 1.363 . S
C80 H83 0.929 . S
C81 C80 1.363 . S
C81 C87 1.428 . S
H82 C78 0.930 . S
H83 C80 0.929 . S
S84 N85 1.613 . S
S84 N86 1.610 . S
N85 S84 1.613 . S
N85 C88 1.350 1_655 S
N86 S84 1.610 . S
N86 C87 1.351 1_655 S
C87 C81 1.428 . S
C87 N86 1.351 1_455 S
C87 C88 1.434 . S
C88 C79 1.429 . S
C88 N85 1.350 1_455 S
C88 C87 1.434 . S
C89 C90 1.369 . S
C89 C91 1.419 1_554 S
C89 H93 0.930 . S
C90 C89 1.369 . S
C90 C99 1.429 1_544 S
C91 C89 1.419 1_556 S
C91 C92 1.363 . S
C91 H94 0.929 1_556 S
C92 C91 1.363 . S
C92 C98 1.428 1_545 S
H93 C89 0.930 . S
H94 C91 0.929 1_554 S
S95 N96 1.613 . S
S95 N97 1.610 . S
N96 S95 1.613 . S
N96 C99 1.350 . S
N97 S95 1.610 . S
N97 C98 1.351 . S
C98 C92 1.428 1_565 S
C98 N97 1.351 . S
C98 C99 1.434 . S
C99 C90 1.429 1_566 S
C99 N96 1.350 . S
C99 C98 1.434 . S
C100 C101 1.369 . S
C100 C102 1.419 . S
C100 H104 0.930 . S
C101 C100 1.369 . S
C101 C110 1.429 . S
C102 C100 1.419 . S
C102 C103 1.363 . S
C102 H105 0.929 . S
C103 C102 1.363 . S
C103 C109 1.428 . S
H104 C100 0.930 . S
H105 C102 0.929 . S
S106 N107 1.613 1_556 S
S106 N108 1.610 . S
N107 S106 1.613 1_554 S
N107 C110 1.350 . S
N108 S106 1.610 . S
N108 C109 1.351 1_556 S
C109 C103 1.428 . S
C109 N108 1.351 1_554 S
C109 C110 1.434 . S
C110 C101 1.429 . S
C110 N107 1.350 . S
C110 C109 1.434 . S
C111 C112 1.369 . S
C111 C113 1.419 . S
C111 H115 0.930 . S
C112 C111 1.369 . S
C112 C121 1.429 . S
C113 C111 1.419 . S
C113 C114 1.363 . S
C113 H116 0.929 . S
C114 C113 1.363 . S
C114 C120 1.428 . S
H115 C111 0.930 . S
H116 C113 0.929 . S
S117 N118 1.613 . S
S117 N119 1.610 . S
N118 S117 1.613 . S
N118 C121 1.350 . S
N119 S117 1.610 . S
N119 C120 1.351 . S
C120 C114 1.428 . S
C120 N119 1.351 . S
C120 C121 1.434 . S
C121 C112 1.429 . S
C121 N118 1.350 . S
C121 C120 1.434 . S
C122 C123 1.369 . S
C122 C124 1.419 . S
C122 H126 0.930 . S
C123 C122 1.369 . S
C123 C132 1.429 . S
C124 C122 1.419 . S
C124 C125 1.363 . S
C124 H127 0.929 . S
C125 C124 1.363 . S
C125 C131 1.428 . S
H126 C122 0.930 . S
H127 C124 0.929 . S
S128 N129 1.613 . S
S128 N130 1.610 . S
N129 S128 1.613 . S
N129 C132 1.350 . S
N130 S128 1.610 . S
N130 C131 1.351 . S
C131 C125 1.428 . S
C131 N130 1.351 . S
C131 C132 1.434 . S
C132 C123 1.429 . S
C132 N129 1.350 . S
C132 C131 1.434 . S
C133 C134 1.369 . S
C133 C135 1.419 . S
C133 H137 0.930 . S
C134 C133 1.369 . S
C134 C143 1.429 . S
C135 C133 1.419 . S
C135 C136 1.363 . S
C135 H138 0.929 . S
C136 C135 1.363 . S
C136 C142 1.428 . S
H137 C133 0.930 . S
H138 C135 0.929 . S
S139 N140 1.613 1_554 S
S139 N141 1.611 . S
N140 S139 1.613 1_556 S
N140 C143 1.350 . S
N141 S139 1.611 . S
N141 C142 1.344 1_554 S
C142 C136 1.428 . S
C142 N141 1.344 1_556 S
C142 C143 1.434 . S
C143 C134 1.429 . S
C143 N140 1.350 . S
C143 C142 1.434 . S
C57 C9 1.421 . S
C59 C31 1.440 . S
C68 C17 1.440 . S
C70 C51 1.422 . S
C79 C3 1.440 . S
C81 C37 1.425 . S
C90 C23 1.422 . S
C92 C45 1.439 . S
C101 C21 1.468 . S
C103 C7 1.470 . S
C112 C22 1.494 . S
C114 C36 1.493 . S
C123 C49 1.469 . S
C125 C35 1.468 . S
C134 C50 1.492 . S
C136 C8 1.493 . S
