# Generated by pormake.
# Topology pcu, (6)-cn, num edge types: 1
# Building blocks:
#     Node 0, Type 0, BuildingBlock: UKALOJ_clean_sbu_0, # of connection points: 6
#     Edge 1, Type (0, 0), BuildingBlock: XIVTED_clean_linker_0, # of connection points: 2
#     Edge 2, Type (0, 0), BuildingBlock: XIVTED_clean_linker_0, # of connection points: 2
#     Edge 3, Type (0, 0), BuildingBlock: XIVTED_clean_linker_0, # of connection points: 2
# Relax obj value: 0.010
# Max RMSD: 0.054
# Mean RMSD: 0.054
data_MOF--net-pcu--node1-UKALOJ_clean_sbu_0--edge1-XIVTED_clean_linker_0
_symmetry_space_group_name_H-M    P1
_symmetry_Int_Tables_number       1
_symmetry_cell_setting            triclinic
loop_
_symmetry_equiv_pos_as_xyz
'x, y, z'
_cell_length_a     15.553793
_cell_length_b     15.54377
_cell_length_c     20.358042
_cell_angle_alpha  98.034086
_cell_angle_beta   82.996375
_cell_angle_gamma 95.761856
loop_
_atom_site_label
_atom_site_type_symbol
_atom_site_fract_x
_atom_site_fract_y
_atom_site_fract_z
_atom_type_partial_charge
Zn0 Zn 0.96445 -0.01329 0.07227 0.0
O1 O 0.95697 0.85067 0.0769 0.0
C2 C 0.15066 -0.01427 0.01934 0.0
Zn3 Zn -0.01863 0.96684 0.96108 0.0
C4 C 0.9642 0.7997 0.0223 0.0
O5 O 0.97409 0.83152 0.96742 0.0
C6 C -0.01838 0.15386 1.01104 0.0
O7 O 0.84477 0.9591 0.95947 0.0
O8 O 0.8283 0.97939 0.06898 0.0
N9 N 0.00082 0.93951 0.85941 0.0
C10 C 0.97522 0.97493 0.80893 0.0
C11 C 0.0476 0.86775 0.76554 0.0
N12 N 0.04584 0.87308 0.83223 0.0
N13 N 0.00409 0.93111 0.74945 0.0
C14 C 0.97061 0.97863 0.22442 0.0
C15 C 0.89822 0.08581 0.2678 0.0
N16 N 0.945 0.01405 0.17394 0.0
N17 N 0.89998 0.08048 0.20111 0.0
N18 N 0.94174 0.02244 0.28389 0.0
H19 H 0.06716 0.9005 0.16601 0.0
H20 H -0.01408 0.84256 0.21742 0.0
H21 H 0.07108 0.91203 0.2552 0.0
C22 C 0.02751 0.90458 0.21512 0.0
C23 C 0.91831 0.04897 0.81823 0.0
H24 H 0.87866 0.05306 0.86734 0.0
H25 H 0.87474 0.04152 0.77815 0.0
H26 H 0.95991 0.111 0.81593 0.0
O27 O -0.01115 0.10289 0.95645 0.0
O28 O 0.97173 0.12203 0.06593 0.0
C29 C 0.79516 0.96782 1.01401 0.0
O30 O 0.10105 -0.00554 0.07388 0.0
O31 O 0.11752 0.97417 0.96437 0.0
H32 H 0.97666 0.14685 0.38525 0.0
H33 H 0.96916 0.80671 0.64809 0.0
H34 H 0.92967 0.86886 0.33542 0.0
H35 H 0.01615 0.08469 0.69793 0.0
H36 H 0.95484 0.82786 0.5331 0.0
H37 H -0.00901 0.1257 0.50024 0.0
C38 C 0.97007 0.08129 0.39862 0.0
C39 C 0.9539 0.00939 0.35061 0.0
C40 C 0.96761 0.88439 0.56923 0.0
C41 C 0.96921 -0.0156 0.48197 0.0
C42 C 0.97575 0.87227 0.63473 0.0
C43 C -0.00808 0.94417 0.68274 0.0
C44 C 0.97661 0.96916 0.55137 0.0
C45 C 0.00083 0.02778 0.663 0.0
C46 C -0.02179 0.06917 0.46411 0.0
C47 C 0.94499 0.92578 0.37034 0.0
N48 N -0.00696 0.038 0.5988 0.0
N49 N 0.95278 0.91556 0.43455 0.0
H50 H 0.24326 0.0022 0.12738 0.0
H51 H 0.70256 0.95135 0.90597 0.0
H52 H 0.27487 0.96838 0.91188 0.0
H53 H 0.67095 -0.01483 0.12147 0.0
H54 H 0.54588 0.95674 0.90711 0.0
H55 H 0.39994 -0.00318 0.12624 0.0
C56 C 0.28314 -0.00599 0.07981 0.0
C57 C 0.24579 -0.01417 0.01963 0.0
C58 C 0.57319 0.96281 0.95415 0.0
C59 C 0.42528 0.97913 0.01797 0.0
C60 C 0.66268 0.95954 0.95353 0.0
C61 C 0.70003 0.96773 1.01372 0.0
C62 C 0.52054 0.97442 1.01538 0.0
C63 C 0.64507 0.97851 0.07383 0.0
C64 C 0.37263 -0.00926 0.0792 0.0
C65 C 0.30075 0.97504 0.95951 0.0
N66 N 0.5582 -0.01836 0.07312 0.0
N67 N 0.38762 0.97192 0.96023 0.0
H68 H 0.94997 0.708 0.12956 0.0
H69 H -0.00416 0.24556 0.90378 0.0
H70 H -0.02088 0.67425 0.91407 0.0
H71 H 0.9667 0.27931 0.11928 0.0
H72 H -0.0095 0.4027 0.90647 0.0
H73 H 0.95532 0.55085 0.12687 0.0
C74 C 0.9572 0.66759 0.08171 0.0
C75 C 0.96412 0.70445 0.02198 0.0
C76 C -0.01459 0.37571 0.95317 0.0
C77 C 0.97063 0.52452 0.01849 0.0
C78 C -0.01139 0.28597 0.95164 0.0
C79 C -0.0183 0.24911 1.01136 0.0
C80 C 0.97519 0.42904 1.01486 0.0
C81 C 0.9723 0.30477 0.07194 0.0
C82 C 0.96041 0.57785 0.08018 0.0
C83 C 0.97352 0.64879 0.9614 0.0
N84 N 0.96923 0.39181 0.07212 0.0
N85 N 0.97659 0.56175 0.96123 0.0
loop_
_geom_bond_atom_site_label_1
_geom_bond_atom_site_label_2
_geom_bond_distance
_geom_bond_site_symmetry_2
_ccdc_geom_bond_type
Zn0 O1 2.055 . S
Zn0 O8 2.046 . S
Zn0 N16 2.036 1_565 S
Zn0 O28 2.053 1_565 S
Zn0 O30 2.066 1_665 S
O1 Zn0 2.055 . S
O1 C4 1.259 1_554 S
C2 O30 1.256 1_565 S
C2 O31 1.244 1_554 S
Zn3 O5 2.046 . S
Zn3 O7 2.055 . S
Zn3 N9 2.036 1_655 S
Zn3 O27 2.066 1_665 S
Zn3 O31 2.053 1_655 S
C4 O1 1.259 1_556 S
C4 O5 1.254 . S
O5 Zn3 2.046 . S
O5 C4 1.254 . S
C6 O27 1.256 1_655 S
C6 O28 1.244 1_556 S
O7 Zn3 2.055 . S
O7 C29 1.259 1_556 S
O8 Zn0 2.046 . S
O8 C29 1.254 . S
N9 Zn3 2.036 1_455 S
N9 C10 1.298 1_465 S
N9 N12 1.398 . S
C10 N9 1.298 1_645 S
C10 N13 1.367 1_655 S
C10 C23 1.481 . S
C11 N12 1.299 . S
C11 N13 1.379 1_565 S
N12 N9 1.398 . S
N12 C11 1.299 . S
N13 C10 1.367 1_455 S
N13 C11 1.379 1_545 S
C14 N16 1.298 1_465 S
C14 N18 1.367 1_565 S
C14 C22 1.481 . S
C15 N17 1.299 . S
C15 N18 1.379 1_655 S
N16 Zn0 2.036 1_545 S
N16 C14 1.298 1_645 S
N16 N17 1.398 . S
N17 C15 1.299 . S
N17 N16 1.398 . S
N18 C14 1.367 1_545 S
N18 C15 1.379 1_455 S
H19 C22 0.980 . S
H20 C22 0.981 . S
H21 C22 0.981 . S
C22 C14 1.481 . S
C22 H19 0.980 . S
C22 H20 0.981 . S
C22 H21 0.981 . S
C23 C10 1.481 . S
C23 H24 0.980 . S
C23 H25 0.981 . S
C23 H26 0.981 . S
H24 C23 0.980 . S
H25 C23 0.981 . S
H26 C23 0.981 . S
O27 Zn3 2.066 1_445 S
O27 C6 1.256 1_455 S
O28 Zn0 2.053 1_545 S
O28 C6 1.244 1_554 S
C29 O7 1.259 1_554 S
C29 O8 1.254 . S
O30 Zn0 2.066 1_445 S
O30 C2 1.256 1_545 S
O31 C2 1.244 1_556 S
O31 Zn3 2.053 1_455 S
H32 C38 0.930 . S
H33 C42 0.930 . S
H34 C47 0.929 . S
H35 C45 0.929 . S
H36 C40 0.929 . S
H37 C46 0.929 . S
C38 H32 0.930 . S
C38 C39 1.367 1_655 S
C38 C46 1.378 . S
C39 C38 1.367 1_455 S
C39 C47 1.433 1_545 S
C40 H36 0.929 . S
C40 C42 1.378 . S
C40 C44 1.350 1_565 S
C41 C44 1.463 . S
C41 C46 1.350 1_455 S
C41 N49 1.427 1_545 S
C42 H33 0.930 . S
C42 C40 1.378 . S
C42 C43 1.367 1_565 S
C43 C42 1.367 1_545 S
C43 C45 1.433 1_455 S
C44 C40 1.350 1_545 S
C44 C41 1.463 . S
C44 N48 1.427 1_455 S
C45 H35 0.929 . S
C45 C43 1.433 1_655 S
C45 N48 1.384 . S
C46 H37 0.929 . S
C46 C38 1.378 . S
C46 C41 1.350 1_655 S
C47 H34 0.929 . S
C47 C39 1.433 1_565 S
C47 N49 1.384 . S
N48 C44 1.427 1_655 S
N48 C45 1.384 . S
N49 C41 1.427 1_565 S
N49 C47 1.384 . S
H50 C56 0.930 . S
H51 C60 0.930 . S
H52 C65 0.929 . S
H53 C63 0.929 . S
H54 C58 0.929 . S
H55 C64 0.929 . S
C56 H50 0.930 . S
C56 C57 1.367 1_545 S
C56 C64 1.378 . S
C57 C56 1.367 1_565 S
C57 C65 1.433 1_554 S
C58 H54 0.929 . S
C58 C60 1.378 . S
C58 C62 1.350 1_556 S
C59 C62 1.463 . S
C59 C64 1.350 1_565 S
C59 N67 1.427 1_554 S
C60 H51 0.930 . S
C60 C58 1.378 . S
C60 C61 1.367 1_556 S
C61 C60 1.367 1_554 S
C61 C63 1.433 1_565 S
C62 C58 1.350 1_554 S
C62 C59 1.463 . S
C62 N66 1.427 1_565 S
C63 H53 0.929 . S
C63 C61 1.433 1_545 S
C63 N66 1.384 . S
C64 H55 0.929 . S
C64 C56 1.378 . S
C64 C59 1.350 1_545 S
C65 H52 0.929 . S
C65 C57 1.433 1_556 S
C65 N67 1.384 . S
N66 C62 1.427 1_545 S
N66 C63 1.384 . S
N67 C59 1.427 1_556 S
N67 C65 1.384 . S
H68 C74 0.930 . S
H69 C78 0.930 . S
H70 C83 0.929 . S
H71 C81 0.929 . S
H72 C76 0.929 . S
H73 C82 0.929 . S
C74 H68 0.930 . S
C74 C75 1.367 1_554 S
C74 C82 1.378 . S
C75 C74 1.367 1_556 S
C75 C83 1.433 1_655 S
C76 H72 0.929 . S
C76 C78 1.378 . S
C76 C80 1.350 1_455 S
C77 C80 1.463 . S
C77 C82 1.350 1_556 S
C77 N85 1.427 1_655 S
C78 H69 0.930 . S
C78 C76 1.378 . S
C78 C79 1.367 1_455 S
C79 C78 1.367 1_655 S
C79 C81 1.433 1_556 S
C80 C76 1.350 1_655 S
C80 C77 1.463 . S
C80 N84 1.427 1_556 S
C81 H71 0.929 . S
C81 C79 1.433 1_554 S
C81 N84 1.384 . S
C82 H73 0.929 . S
C82 C74 1.378 . S
C82 C77 1.350 1_554 S
C83 H70 0.929 . S
C83 C75 1.433 1_455 S
C83 N85 1.384 . S
N84 C80 1.427 1_554 S
N84 C81 1.384 . S
N85 C77 1.427 1_455 S
N85 C83 1.384 . S
C39 N18 1.453 . S
C43 N13 1.452 . S
C57 C2 1.496 . S
C61 C29 1.492 . S
C75 C4 1.492 . S
C79 C6 1.496 . S
