# Generated by pormake.
# Topology qtz, (4)-cn, num edge types: 1
# Building blocks:
#     Node 0, Type 0, BuildingBlock: GALJAG_clean_sbu_0, # of connection points: 4
#     Node 1, Type 0, BuildingBlock: GALJAG_clean_sbu_0, # of connection points: 4
#     Node 2, Type 0, BuildingBlock: GALJAG_clean_sbu_0, # of connection points: 4
#     Edge 3, Type (0, 0), BuildingBlock: AJUNOK_clean_linker_0, # of connection points: 2
#     Edge 4, Type (0, 0), BuildingBlock: AJUNOK_clean_linker_0, # of connection points: 2
#     Edge 5, Type (0, 0), BuildingBlock: AJUNOK_clean_linker_0, # of connection points: 2
#     Edge 6, Type (0, 0), BuildingBlock: AJUNOK_clean_linker_0, # of connection points: 2
#     Edge 7, Type (0, 0), BuildingBlock: AJUNOK_clean_linker_0, # of connection points: 2
#     Edge 8, Type (0, 0), BuildingBlock: AJUNOK_clean_linker_0, # of connection points: 2
# Relax obj value: 0.004
# Max RMSD: 0.037
# Mean RMSD: 0.037
data_MOF--net-qtz--node1-GALJAG_clean_sbu_0--edge1-AJUNOK_clean_linker_0
_symmetry_space_group_name_H-M    P1
_symmetry_Int_Tables_number       1
_symmetry_cell_setting            triclinic
loop_
_symmetry_equiv_pos_as_xyz
'x, y, z'
_cell_length_a     18.039736
_cell_length_b     18.007854
_cell_length_c     19.887547
_cell_angle_alpha  89.561429
_cell_angle_beta   90.142857
_cell_angle_gamma 119.9325
loop_
_atom_site_label
_atom_site_type_symbol
_atom_site_fract_x
_atom_site_fract_y
_atom_site_fract_z
_atom_type_partial_charge
In0 In 0.02369 0.51759 0.1627 0.0
O1 O 0.96254 0.38555 0.2148 0.0
O2 O 0.9231 0.4734 0.24452 0.0
C3 C 0.13556 0.509 0.07799 0.0
C4 C 0.91427 0.52813 0.07532 0.0
C5 C 0.13561 0.6401 0.24575 0.0
O6 O 0.084 0.44554 0.11344 0.0
O7 O 0.12828 0.57471 0.08402 0.0
O8 O 0.07702 0.64625 0.21592 0.0
O9 O 0.13641 0.57164 0.23466 0.0
C10 C 0.91425 0.39984 0.25179 0.0
O11 O 0.96886 0.59195 0.10803 0.0
O12 O 0.91607 0.45993 0.08607 0.0
In13 In 0.52044 0.01511 0.49642 0.0
O14 O 0.65604 0.07656 0.45031 0.0
O15 O 0.57807 0.13062 0.42725 0.0
C16 C 0.52426 0.898 0.57954 0.0
C17 C 0.50092 0.12006 0.58145 0.0
C18 C 0.39931 0.90608 0.41055 0.0
O19 O 0.5901 0.95292 0.54806 0.0
O20 O 0.45836 0.90414 0.56983 0.0
O21 O 0.38508 0.9486 0.4535 0.0
O22 O 0.47509 0.91994 0.41 0.0
C23 C 0.64932 0.13485 0.42004 0.0
O24 O 0.46248 0.09735 0.52589 0.0
O25 O 0.54844 0.08904 0.59479 0.0
In26 In 0.51799 0.50864 0.82933 0.0
O27 O 0.58978 0.6355 0.77099 0.0
O28 O 0.45459 0.56032 0.75999 0.0
C29 C 0.6486 0.52484 0.90699 0.0
C30 C 0.39926 0.50328 0.9146 0.0
C31 C 0.49697 0.37998 0.74839 0.0
O32 O 0.65396 0.58679 0.87292 0.0
O33 O 0.57793 0.45658 0.90222 0.0
O34 O 0.46272 0.36705 0.80563 0.0
O35 O 0.53973 0.45762 0.73082 0.0
C36 C 0.52247 0.62871 0.74519 0.0
O37 O 0.38311 0.44301 0.8746 0.0
O38 O 0.47554 0.56405 0.91317 0.0
C39 C 0.26063 0.42899 0.9777 0.0
C40 C 0.33295 0.5055 0.95652 0.0
C41 C 0.19692 0.43042 0.01718 0.0
C42 C 0.20243 0.50839 0.03539 0.0
H43 H 0.25373 0.36764 0.96436 0.0
H44 H 0.14275 0.37005 0.03313 0.0
S45 S 0.37745 0.72645 0.9898 0.0
N46 N 0.40565 0.66115 0.9553 0.0
N47 N 0.28554 0.66406 0.02803 0.0
C48 C 0.2739 0.58528 0.01348 0.0
C49 C 0.3393 0.58378 0.97445 0.0
C50 C 0.84797 0.25699 0.31092 0.0
C51 C 0.84909 0.33448 0.29751 0.0
C52 C 0.78435 0.1931 0.35193 0.0
C53 C 0.7189 0.20398 0.37992 0.0
H54 H 0.89625 0.24533 0.28931 0.0
H55 H 0.78534 0.13412 0.36046 0.0
S56 S 0.69476 0.3963 0.36271 0.0
N57 N 0.78052 0.41934 0.31785 0.0
N58 N 0.66102 0.29938 0.39367 0.0
C59 C 0.7201 0.28161 0.36772 0.0
C60 C 0.78518 0.34684 0.32687 0.0
C61 C 0.59877 0.82732 0.63478 0.0
C62 C 0.52311 0.82991 0.62285 0.0
C63 C 0.59834 0.76223 0.67452 0.0
C64 C 0.52207 0.69681 0.7031 0.0
H65 H 0.65885 0.87587 0.61326 0.0
H66 H 0.65807 0.76281 0.68238 0.0
S67 S 0.30704 0.67563 0.6891 0.0
N68 N 0.37011 0.76211 0.6445 0.0
N69 N 0.36933 0.64002 0.7183 0.0
C70 C 0.44612 0.69894 0.69188 0.0
C71 C 0.44664 0.76542 0.65203 0.0
C72 C 0.71601 0.4528 0.96823 0.0
C73 C 0.71911 0.5294 0.94827 0.0
C74 C 0.78031 0.45353 0.00813 0.0
C75 C 0.84994 0.53088 0.03052 0.0
H76 H 0.66341 0.39138 0.95281 0.0
H77 H 0.77448 0.39264 0.02235 0.0
S78 S 0.88863 0.74945 0.99198 0.0
N79 N 0.79814 0.685 0.95303 0.0
N80 N 0.91878 0.6865 0.02919 0.0
C81 C 0.85426 0.60819 0.01072 0.0
C82 C 0.78898 0.60743 0.96925 0.0
C83 C 0.34397 0.7774 0.33754 0.0
C84 C 0.33161 0.84097 0.36732 0.0
C85 C 0.27969 0.71225 0.29902 0.0
C86 C 0.20113 0.70901 0.2878 0.0
H87 H 0.40329 0.77699 0.34491 0.0
H88 H 0.29209 0.66449 0.27732 0.0
S89 S 0.13713 0.86104 0.3536 0.0
N90 N 0.23484 0.89688 0.38287 0.0
N91 N 0.11459 0.77528 0.30906 0.0
C92 C 0.18819 0.77273 0.31652 0.0
C93 C 0.25326 0.83845 0.3567 0.0
C94 C 0.48813 0.314 0.63673 0.0
C95 C 0.49257 0.31032 0.70711 0.0
C96 C 0.48787 0.25027 0.59648 0.0
C97 C 0.495 0.18252 0.62527 0.0
H98 H 0.48476 0.36642 0.61266 0.0
H99 H 0.4848 0.25556 0.54236 0.0
S100 S 0.50929 0.14461 0.80704 0.0
N101 N 0.50288 0.23294 0.80405 0.0
N102 N 0.50615 0.11515 0.72814 0.0
C103 C 0.49962 0.17824 0.69553 0.0
C104 C 0.49735 0.24167 0.73658 0.0
loop_
_geom_bond_atom_site_label_1
_geom_bond_atom_site_label_2
_geom_bond_distance
_geom_bond_site_symmetry_2
_ccdc_geom_bond_type
In0 O1 2.294 1_455 S
In0 O2 2.326 1_455 S
In0 O6 2.266 . S
In0 O7 2.326 . S
In0 O8 2.266 . S
In0 O9 2.326 . S
In0 O11 2.294 1_455 S
In0 O12 2.326 1_455 S
O1 In0 2.294 1_655 S
O1 C10 1.240 . S
O2 In0 2.326 1_655 S
O2 C10 1.252 . S
C3 O6 1.252 . S
C3 O7 1.260 . S
C4 O11 1.240 . S
C4 O12 1.252 . S
C5 O8 1.252 . S
C5 O9 1.260 . S
O6 In0 2.266 . S
O6 C3 1.252 . S
O7 In0 2.326 . S
O7 C3 1.260 . S
O8 In0 2.266 . S
O8 C5 1.252 . S
O9 In0 2.326 . S
O9 C5 1.260 . S
C10 O1 1.240 . S
C10 O2 1.252 . S
O11 In0 2.294 1_655 S
O11 C4 1.240 . S
O12 In0 2.326 1_655 S
O12 C4 1.252 . S
In13 O14 2.294 . S
In13 O15 2.326 . S
In13 O19 2.266 1_545 S
In13 O20 2.326 1_545 S
In13 O21 2.266 1_545 S
In13 O22 2.326 1_545 S
In13 O24 2.294 . S
In13 O25 2.326 . S
O14 In13 2.294 . S
O14 C23 1.240 . S
O15 In13 2.326 . S
O15 C23 1.252 . S
C16 O19 1.252 . S
C16 O20 1.260 . S
C17 O24 1.240 . S
C17 O25 1.252 . S
C18 O21 1.252 . S
C18 O22 1.260 . S
O19 In13 2.266 1_565 S
O19 C16 1.252 . S
O20 In13 2.326 1_565 S
O20 C16 1.260 . S
O21 In13 2.266 1_565 S
O21 C18 1.252 . S
O22 In13 2.326 1_565 S
O22 C18 1.260 . S
C23 O14 1.240 . S
C23 O15 1.252 . S
O24 In13 2.294 . S
O24 C17 1.240 . S
O25 In13 2.326 . S
O25 C17 1.252 . S
In26 O27 2.294 . S
In26 O28 2.326 . S
In26 O32 2.266 . S
In26 O33 2.326 . S
In26 O34 2.266 . S
In26 O35 2.326 . S
In26 O37 2.294 . S
In26 O38 2.326 . S
O27 In26 2.294 . S
O27 C36 1.240 . S
O28 In26 2.326 . S
O28 C36 1.252 . S
C29 O32 1.252 . S
C29 O33 1.260 . S
C30 O37 1.240 . S
C30 O38 1.252 . S
C31 O34 1.252 . S
C31 O35 1.260 . S
O32 In26 2.266 . S
O32 C29 1.252 . S
O33 In26 2.326 . S
O33 C29 1.260 . S
O34 In26 2.266 . S
O34 C31 1.252 . S
O35 In26 2.326 . S
O35 C31 1.260 . S
C36 O27 1.240 . S
C36 O28 1.252 . S
O37 In26 2.294 . S
O37 C30 1.240 . S
O38 In26 2.326 . S
O38 C30 1.252 . S
C39 C40 1.369 1_554 S
C39 C41 1.419 . S
C39 H43 0.930 . S
C40 C39 1.369 1_556 S
C40 C49 1.429 . S
C41 C39 1.419 . S
C41 C42 1.363 . S
C41 H44 0.929 . S
C42 C41 1.363 . S
C42 C48 1.428 1_554 S
H43 C39 0.930 . S
H44 C41 0.929 . S
S45 N46 1.613 . S
S45 N47 1.610 . S
N46 S45 1.613 . S
N46 C49 1.350 . S
N47 S45 1.610 . S
N47 C48 1.351 . S
C48 C42 1.428 1_556 S
C48 N47 1.351 . S
C48 C49 1.434 . S
C49 C40 1.429 . S
C49 N46 1.350 . S
C49 C48 1.434 . S
C50 C51 1.369 . S
C50 C52 1.419 . S
C50 H54 0.930 . S
C51 C50 1.369 . S
C51 C60 1.429 . S
C52 C50 1.419 . S
C52 C53 1.363 . S
C52 H55 0.929 . S
C53 C52 1.363 . S
C53 C59 1.428 . S
H54 C50 0.930 . S
H55 C52 0.929 . S
S56 N57 1.613 . S
S56 N58 1.610 . S
N57 S56 1.613 . S
N57 C60 1.350 . S
N58 S56 1.610 . S
N58 C59 1.351 . S
C59 C53 1.428 . S
C59 N58 1.351 . S
C59 C60 1.434 . S
C60 C51 1.429 . S
C60 N57 1.350 . S
C60 C59 1.434 . S
C61 C62 1.369 . S
C61 C63 1.419 . S
C61 H65 0.930 . S
C62 C61 1.369 . S
C62 C71 1.429 . S
C63 C61 1.419 . S
C63 C64 1.363 . S
C63 H66 0.929 . S
C64 C63 1.363 . S
C64 C70 1.428 . S
H65 C61 0.930 . S
H66 C63 0.929 . S
S67 N68 1.613 . S
S67 N69 1.610 . S
N68 S67 1.613 . S
N68 C71 1.350 . S
N69 S67 1.610 . S
N69 C70 1.351 . S
C70 C64 1.428 . S
C70 N69 1.351 . S
C70 C71 1.434 . S
C71 C62 1.429 . S
C71 N68 1.350 . S
C71 C70 1.434 . S
C72 C73 1.369 . S
C72 C74 1.419 . S
C72 H76 0.930 . S
C73 C72 1.369 . S
C73 C82 1.429 1_556 S
C74 C72 1.419 . S
C74 C75 1.363 1_556 S
C74 H77 0.929 . S
C75 C74 1.363 1_554 S
C75 C81 1.428 . S
H76 C72 0.930 . S
H77 C74 0.929 . S
S78 N79 1.613 . S
S78 N80 1.610 . S
N79 S78 1.613 . S
N79 C82 1.350 . S
N80 S78 1.610 . S
N80 C81 1.351 . S
C81 C75 1.428 . S
C81 N80 1.351 . S
C81 C82 1.434 . S
C82 C73 1.429 1_554 S
C82 N79 1.350 . S
C82 C81 1.434 . S
C83 C84 1.369 . S
C83 C85 1.419 . S
C83 H87 0.930 . S
C84 C83 1.369 . S
C84 C93 1.429 . S
C85 C83 1.419 . S
C85 C86 1.363 . S
C85 H88 0.929 . S
C86 C85 1.363 . S
C86 C92 1.428 . S
H87 C83 0.930 . S
H88 C85 0.929 . S
S89 N90 1.613 . S
S89 N91 1.610 . S
N90 S89 1.613 . S
N90 C93 1.350 . S
N91 S89 1.610 . S
N91 C92 1.351 . S
C92 C86 1.428 . S
C92 N91 1.351 . S
C92 C93 1.434 . S
C93 C84 1.429 . S
C93 N90 1.350 . S
C93 C92 1.434 . S
C94 C95 1.369 . S
C94 C96 1.419 . S
C94 H98 0.930 . S
C95 C94 1.369 . S
C95 C104 1.429 . S
C96 C94 1.419 . S
C96 C97 1.363 . S
C96 H99 0.929 . S
C97 C96 1.363 . S
C97 C103 1.428 . S
H98 C94 0.930 . S
H99 C96 0.929 . S
S100 N101 1.613 . S
S100 N102 1.610 . S
N101 S100 1.613 . S
N101 C104 1.350 . S
N102 S100 1.610 . S
N102 C103 1.351 . S
C103 C97 1.428 . S
C103 N102 1.351 . S
C103 C104 1.434 . S
C104 C95 1.429 . S
C104 N101 1.350 . S
C104 C103 1.434 . S
C40 C30 1.535 . S
C42 C3 1.536 . S
C51 C10 1.531 . S
C53 C23 1.531 . S
C62 C16 1.536 . S
C64 C36 1.535 . S
C73 C29 1.536 . S
C75 C4 1.535 . S
C84 C18 1.540 . S
C86 C5 1.541 . S
C95 C31 1.535 . S
C97 C17 1.535 . S
