# Generated by pormake.
# Topology pcu, (6)-cn, num edge types: 1
# Building blocks:
#     Node 0, Type 0, BuildingBlock: KUMJIN_clean_sbu_0, # of connection points: 6
#     Edge 1, Type (0, 0), BuildingBlock: MIFKUJ_clean_linker_0, # of connection points: 2
#     Edge 2, Type (0, 0), BuildingBlock: MIFKUJ_clean_linker_0, # of connection points: 2
#     Edge 3, Type (0, 0), BuildingBlock: MIFKUJ_clean_linker_0, # of connection points: 2
# Relax obj value: 0.000
# Max RMSD: 0.000
# Mean RMSD: 0.000
data_MOF--net-pcu--node1-KUMJIN_clean_sbu_0--edge1-MIFKUJ_clean_linker_0
_symmetry_space_group_name_H-M    P1
_symmetry_Int_Tables_number       1
_symmetry_cell_setting            triclinic
loop_
_symmetry_equiv_pos_as_xyz
'x, y, z'
_cell_length_a     18.411059
_cell_length_b     28.931519
_cell_length_c     19.747923
_cell_angle_alpha  115.46008
_cell_angle_beta   73.950391
_cell_angle_gamma 116.76436
loop_
_atom_site_label
_atom_site_type_symbol
_atom_site_fract_x
_atom_site_fract_y
_atom_site_fract_z
_atom_type_partial_charge
Eu0 Eu 0.08752 0.07876 0.02666 0.0
C1 C 0.82119 0.85308 0.86019 0.0
C2 C 0.69378 0.85502 0.93643 0.0
C3 C 0.69458 0.80476 0.80117 0.0
C4 C 0.77924 0.87088 0.92969 0.0
C5 C 0.77907 0.81856 0.79542 0.0
C6 C 0.65202 0.82305 0.87155 0.0
C7 C 0.90564 0.80984 0.72568 0.0
N8 N 0.90259 0.86687 0.85672 0.0
C9 C 0.94462 0.84411 0.79155 0.0
C10 C 0.82273 0.79764 0.72735 0.0
Eu11 Eu 0.96515 0.92689 0.96957 0.0
N12 N 0.82143 0.90155 0.99124 0.0
C13 C 0.78104 0.91445 0.06185 0.0
C14 C 0.65265 0.87068 0.00837 0.0
C15 C 0.69636 0.89987 0.07141 0.0
H16 H 1.00886 0.8538 0.79006 0.0
H17 H 0.66496 0.9114 0.1274 0.0
H18 H 0.58654 0.8111 0.87549 0.0
H19 H 0.93956 0.79298 0.6737 0.0
H20 H 0.81403 0.93729 0.11105 0.0
H21 H 0.38769 0.09432 0.86873 0.0
H22 H 0.58708 0.85945 0.01596 0.0
H23 H 0.04387 0.15179 0.20623 0.0
H24 H 0.23862 0.06842 0.88512 0.0
H25 H 0.1132 0.21258 0.32257 0.0
H26 H 0.66127 0.77883 0.75189 0.0
H27 H 0.46561 0.14623 0.98014 0.0
H28 H 0.46619 0.19453 0.12061 0.0
H29 H 0.79262 0.77098 0.6763 0.0
H30 H 0.39149 0.22676 0.24425 0.0
N31 N 0.23125 0.10412 0.00494 0.0
C32 C 0.27162 0.09125 0.93432 0.0
C33 C 0.40004 0.135 0.98775 0.0
C34 C 0.35893 0.15064 0.0597 0.0
C35 C 0.3563 0.10583 0.92473 0.0
C36 C 0.27346 0.13477 0.06647 0.0
H37 H 0.26015 0.23458 0.3199 0.0
N38 N 0.15012 0.13874 0.13951 0.0
C39 C 0.14711 0.19573 0.27056 0.0
C40 C 0.23153 0.15254 0.136 0.0
C41 C 0.10811 0.16148 0.2047 0.0
C42 C 0.23002 0.20793 0.26886 0.0
C43 C 0.27367 0.18704 0.20076 0.0
O44 O 0.04665 0.14544 0.05392 0.0
O45 O 0.96634 0.01068 -0.00043 0.0
O46 O 0.9736 0.95326 0.87462 0.0
O47 O 0.09006 0.0353 0.89825 0.0
O48 O 0.96489 0.08152 0.08948 0.0
O49 O 0.13682 0.13151 0.95878 0.0
O50 O 1.00597 0.86019 0.94236 0.0
O51 O 0.08623 0.99496 0.99656 0.0
O52 O 0.07913 0.05235 0.12155 0.0
O53 O 0.96261 0.97036 0.09797 0.0
O54 O 0.08788 0.92413 0.90686 0.0
O55 O 0.91584 0.87418 0.03751 0.0
C56 C 0.91976 0.03321 0.04789 0.0
C57 C 0.14305 0.22341 0.02484 0.0
C58 C 0.15744 0.31517 0.03778 0.0
C59 C 0.11642 0.25695 0.01126 0.0
C60 C 0.22541 0.33878 0.07836 0.0
C61 C 0.21171 0.24799 0.06405 0.0
C62 C 0.25248 0.30536 0.09075 0.0
C63 C 0.03383 0.99354 0.85381 0.0
C64 C 0.09645 0.16321 0.00121 0.0
C65 C 0.35817 0.20085 0.19498 0.0
C66 C 0.40071 0.18258 0.12457 0.0
C67 C 0.13295 0.97249 0.94839 0.0
C68 C 0.90954 0.78225 0.97151 0.0
C69 C 0.93616 0.74871 0.98509 0.0
C70 C 0.8951 0.69049 0.95859 0.0
C71 C 0.82711 0.66689 0.91805 0.0
C72 C 0.84085 0.75769 0.93233 0.0
C73 C 0.80005 0.70032 0.90566 0.0
C74 C 1.0189 0.01209 0.14238 0.0
C75 C 0.95617 0.84246 0.9951 0.0
H76 H 0.06401 0.23747 0.97985 0.0
H77 H 0.25726 0.38324 0.10173 0.0
H78 H 0.23335 0.22294 0.07465 0.0
H79 H 0.30485 0.32409 0.12187 0.0
H80 H 0.98859 0.76819 0.01647 0.0
H81 H 0.79523 0.62243 0.8947 0.0
H82 H 0.81921 0.78274 0.92174 0.0
H83 H 0.74766 0.6816 0.87456 0.0
H84 H 0.13414 0.08068 0.242 0.0
H85 H 0.13398 0.07874 0.36396 0.0
H86 H 0.90059 0.94139 0.33613 0.0
H87 H 0.89866 0.94425 0.21458 0.0
H88 H 0.90925 0.01611 0.48123 0.0
H89 H 0.07304 0.91829 0.29684 0.0
H90 H 0.18215 0.90854 0.19246 0.0
H91 H 0.36148 0.04662 0.33574 0.0
H92 H 0.25321 0.05779 0.44069 0.0
H93 H 0.91865 0.92489 0.75413 0.0
H94 H 0.91885 0.92681 0.63215 0.0
H95 H 0.15217 0.06422 0.66005 0.0
H96 H 0.15407 0.06139 0.78163 0.0
H97 H 0.14356 0.98947 0.5149 0.0
H98 H 0.97976 0.08729 0.69929 0.0
H99 H 0.87065 0.09705 0.80366 0.0
H100 H 0.69133 0.95895 0.66038 0.0
H101 H 0.7996 0.94778 0.55545 0.0
C102 C 0.08183 0.05073 0.26218 0.0
C103 C 1.01622 0.01275 0.2184 0.0
C104 C 0.08225 0.04938 0.3318 0.0
C105 C 1.01782 0.00943 0.35861 0.0
C106 C 0.95099 0.9725 0.31634 0.0
C107 C 0.95023 0.97404 0.24671 0.0
C108 C 1.02226 0.00468 0.42905 0.0
C109 C 0.9599 0.0096 0.4883 0.0
C110 C 0.08922 0.99717 0.43859 0.0
C111 C 0.1549 0.98913 0.3765 0.0
C112 C 0.13571 0.94669 0.30604 0.0
C113 C 0.19739 0.94094 0.24674 0.0
C114 C 0.27866 0.97703 0.2574 0.0
C115 C 0.29847 0.01873 0.32755 0.0
C116 C 0.23698 0.02476 0.387 0.0
C117 C 0.97096 0.95485 0.73396 0.0
C118 C 0.03654 0.99286 0.77777 0.0
C119 C 0.97056 0.95619 0.66433 0.0
C120 C 0.03498 0.99615 0.63753 0.0
C121 C 0.10178 0.0331 0.67983 0.0
C122 C 0.10252 0.03157 0.74947 0.0
C123 C 0.03054 1.00089 0.56708 0.0
C124 C 0.09291 0.99597 0.50783 0.0
C125 C 0.96358 0.0084 0.55754 0.0
C126 C 0.89791 0.01644 0.61963 0.0
C127 C 0.91709 0.05889 0.69009 0.0
C128 C 0.85542 0.06465 0.74938 0.0
C129 C 0.77414 0.02856 0.73872 0.0
C130 C 0.75433 0.98684 0.66858 0.0
C131 C 0.81582 0.98081 0.60914 0.0
H132 H 0.72652 0.03296 0.78477 0.0
H133 H 0.32628 0.97263 0.21135 0.0
H134 H 0.248 0.94247 0.84115 0.0
H135 H 0.38163 0.95231 0.85899 0.0
H136 H 0.33736 0.03421 0.09832 0.0
H137 H 0.203 0.02304 0.08095 0.0
H138 H 0.49821 0.0869 0.03208 0.0
H139 H 0.31305 0.90956 0.0442 0.0
H140 H 0.20649 0.81581 0.00113 0.0
H141 H 0.36485 0.76835 0.80236 0.0
H142 H 0.47191 0.86224 0.84349 0.0
H143 H 0.80492 0.06343 0.15526 0.0
H144 H 0.67126 0.05366 0.13758 0.0
H145 H 0.71512 0.97154 0.89825 0.0
H146 H 0.84949 0.98262 0.91547 0.0
H147 H 0.55444 0.91898 0.96458 0.0
H148 H 0.73958 0.09632 0.95245 0.0
H149 H 0.84614 0.19008 0.9955 0.0
H150 H 0.6878 0.23755 0.19428 0.0
H151 H 0.58076 0.14365 0.15318 0.0
C152 C 0.26725 0.96301 0.89742 0.0
C153 C 0.21614 0.98333 0.95936 0.0
C154 C 0.34333 0.96848 0.90756 0.0
C155 C 0.36935 0.99405 0.97994 0.0
C156 C 0.31865 0.01473 0.04194 0.0
C157 C 0.24213 0.00867 0.03186 0.0
C158 C 0.44857 0.99776 0.99094 0.0
C159 C 0.51023 0.05026 0.01828 0.0
C160 C 0.46451 0.94979 0.97148 0.0
C161 C 0.40015 0.89326 0.94643 0.0
C162 C 0.32486 0.87939 0.99083 0.0
C163 C 0.2644 0.82615 0.96686 0.0
C164 C 0.27878 0.7862 0.89892 0.0
C165 C 0.35372 0.79939 0.85488 0.0
C166 C 0.41431 0.85262 0.87849 0.0
C167 C 0.78557 0.04287 0.09903 0.0
C168 C 0.83657 0.02246 0.03704 0.0
C169 C 0.70949 0.03744 0.08898 0.0
C170 C 0.68334 0.01183 0.01664 0.0
C171 C 0.73392 0.99106 0.9546 0.0
C172 C 0.81045 0.99708 0.96458 0.0
C173 C 0.60409 0.00813 0.00572 0.0
C174 C 0.54242 0.95563 0.9784 0.0
C175 C 0.58814 0.0561 0.0252 0.0
C176 C 0.6525 0.11262 0.05024 0.0
C177 C 0.72779 0.1265 0.00582 0.0
C178 C 0.78823 0.17974 0.02977 0.0
C179 C 0.77386 0.2197 0.09771 0.0
C180 C 0.69893 0.20651 0.14176 0.0
C181 C 0.63834 0.15327 0.11817 0.0
H182 H 0.82068 0.26093 0.11609 0.0
H183 H 0.23196 0.74497 0.88053 0.0
H184 H 0.05281 0.70541 0.96424 0.0
H185 H 0.09725 0.64398 0.9817 0.0
H186 H 0.84676 0.52956 0.99445 0.0
H187 H 0.80119 0.59285 0.98387 0.0
H188 H 0.91838 0.53203 0.08998 0.0
H189 H 0.99185 0.5135 0.82711 0.0
H190 H 0.05931 0.54905 0.72293 0.0
H191 H 0.29308 0.6137 0.80234 0.0
H192 H 0.22688 0.57893 0.90737 0.0
H193 H 0.99974 0.30022 0.03209 0.0
H194 H 0.95528 0.36165 0.01462 0.0
H195 H 0.20576 0.4761 0.00194 0.0
H196 H 0.25135 0.41283 0.01253 0.0
H197 H 0.13413 0.47361 0.90636 0.0
H198 H 0.06063 0.49214 0.16925 0.0
H199 H 0.99316 0.45656 0.2734 0.0
H200 H 0.75942 0.39188 0.19394 0.0
H201 H 0.82563 0.42667 0.08893 0.0
C202 C 1.0068 0.66777 0.97226 0.0
C203 C 0.92316 0.6541 0.97166 0.0
C204 C 0.03257 0.63208 0.98101 0.0
C205 C 0.97566 0.58117 0.98735 0.0
C206 C 0.89215 0.56821 0.98892 0.0
C207 C 0.86621 0.6043 0.98175 0.0
C208 C 1.0025 0.54099 0.99163 0.0
C209 C 0.96493 0.51883 0.04923 0.0
C210 C 0.06438 0.5243 0.93954 0.0
C211 C 0.10435 0.54398 0.87535 0.0
C212 C 0.05761 0.53542 0.82242 0.0
C213 C 0.09562 0.55543 0.76325 0.0
C214 C 0.1804 0.58371 0.75612 0.0
C215 C 0.22741 0.59181 0.80794 0.0
C216 C 0.18971 0.57188 0.86722 0.0
C217 C 0.04574 0.33787 0.02409 0.0
C218 C 0.12938 0.35156 0.02471 0.0
C219 C 1.01996 0.37356 0.01532 0.0
C220 C 0.07686 0.42447 0.009 0.0
C221 C 0.16037 0.43745 0.00745 0.0
C222 C 0.18632 0.40136 0.01463 0.0
C223 C 0.05002 0.46465 0.00471 0.0
C224 C 0.08758 0.4868 0.94712 0.0
C225 C 0.98813 0.48133 0.0568 0.0
C226 C 0.94814 0.46164 0.12098 0.0
C227 C 0.99488 0.4702 0.17392 0.0
C228 C 0.95686 0.45018 0.23308 0.0
C229 C 0.87208 0.42188 0.24018 0.0
C230 C 0.82508 0.41378 0.18835 0.0
C231 C 0.86279 0.43373 0.12909 0.0
H232 H 0.84279 0.4063 0.28591 0.0
H233 H 0.20969 0.59928 0.71038 0.0
loop_
_geom_bond_atom_site_label_1
_geom_bond_atom_site_label_2
_geom_bond_distance
_geom_bond_site_symmetry_2
_ccdc_geom_bond_type
Eu0 N31 2.657 1_554 S
Eu0 N38 2.609 . S
Eu0 O44 2.558 . S
Eu0 O45 2.612 1_444 S
Eu0 O47 2.339 1_554 S
Eu0 O48 2.563 1_455 S
Eu0 O49 2.419 . S
Eu0 O51 2.380 . S
Eu0 O52 2.432 1_455 S
Eu0 C64 2.848 . S
C1 C4 1.429 . S
C1 C5 1.411 . S
C1 N8 1.377 . S
C2 C4 1.420 . S
C2 C6 1.423 . S
C2 C14 1.392 1_556 S
C3 C5 1.420 . S
C3 C6 1.351 . S
C3 H26 0.931 . S
C4 C1 1.429 . S
C4 C2 1.420 . S
C4 N12 1.362 1_556 S
C5 C1 1.411 . S
C5 C3 1.420 . S
C5 C10 1.395 . S
C6 C2 1.423 . S
C6 C3 1.351 . S
C6 H18 0.930 . S
C7 C9 1.400 . S
C7 C10 1.386 . S
C7 H19 0.930 . S
N8 C1 1.377 . S
N8 C9 1.321 . S
N8 Eu11 2.609 . S
C9 C7 1.400 . S
C9 N8 1.321 . S
C9 H16 0.930 . S
C10 C5 1.395 . S
C10 C7 1.386 . S
C10 H29 0.930 . S
Eu11 N8 2.609 . S
Eu11 N12 2.657 1_556 S
Eu11 O45 2.380 . S
Eu11 O46 2.432 1_655 S
Eu11 O50 2.558 . S
Eu11 O51 2.612 1_666 S
Eu11 O53 2.339 1_556 S
Eu11 O54 2.563 1_655 S
Eu11 O55 2.419 . S
Eu11 C75 2.848 . S
N12 C4 1.362 1_554 S
N12 Eu11 2.657 1_554 S
N12 C13 1.334 . S
C13 N12 1.334 . S
C13 C15 1.413 . S
C13 H20 0.929 . S
C14 C2 1.392 1_554 S
C14 C15 1.367 . S
C14 H22 0.930 . S
C15 C13 1.413 . S
C15 C14 1.367 . S
C15 H17 0.930 . S
H16 C9 0.930 . S
H17 C15 0.930 . S
H18 C6 0.930 . S
H19 C7 0.930 . S
H20 C13 0.929 . S
H21 C35 0.930 . S
H22 C14 0.930 . S
H23 C41 0.930 . S
H24 C32 0.929 . S
H25 C39 0.930 . S
H26 C3 0.931 . S
H27 C33 0.930 . S
H28 C66 0.930 . S
H29 C10 0.930 . S
H30 C65 0.931 . S
N31 Eu0 2.657 1_556 S
N31 C32 1.334 . S
N31 C36 1.362 1_556 S
C32 H24 0.929 . S
C32 N31 1.334 . S
C32 C35 1.413 . S
C33 H27 0.930 . S
C33 C34 1.392 1_556 S
C33 C35 1.367 . S
C34 C33 1.392 1_554 S
C34 C36 1.420 . S
C34 C66 1.423 . S
C35 H21 0.930 . S
C35 C32 1.413 . S
C35 C33 1.367 . S
C36 N31 1.362 1_554 S
C36 C34 1.420 . S
C36 C40 1.429 . S
H37 C42 0.930 . S
N38 Eu0 2.609 . S
N38 C40 1.377 . S
N38 C41 1.321 . S
C39 H25 0.930 . S
C39 C41 1.400 . S
C39 C42 1.386 . S
C40 C36 1.429 . S
C40 N38 1.377 . S
C40 C43 1.411 . S
C41 H23 0.930 . S
C41 N38 1.321 . S
C41 C39 1.400 . S
C42 H37 0.930 . S
C42 C39 1.386 . S
C42 C43 1.395 . S
C43 C40 1.411 . S
C43 C42 1.395 . S
C43 C65 1.420 . S
O44 Eu0 2.558 . S
O44 C64 1.257 . S
O45 Eu0 2.612 1_666 S
O45 Eu11 2.380 . S
O45 C56 1.276 1_566 S
O46 Eu11 2.432 1_455 S
O46 C63 1.264 . S
O47 Eu0 2.339 1_556 S
O47 C63 1.254 1_545 S
O48 Eu0 2.563 1_655 S
O48 C56 1.235 . S
O49 Eu0 2.419 . S
O49 C64 1.249 . S
O50 Eu11 2.558 . S
O50 C75 1.257 . S
O51 Eu0 2.380 . S
O51 Eu11 2.612 1_444 S
O51 C67 1.276 1_544 S
O52 Eu0 2.432 1_655 S
O52 C74 1.264 . S
O53 Eu11 2.339 1_554 S
O53 C74 1.254 1_565 S
O54 Eu11 2.563 1_455 S
O54 C67 1.235 . S
O55 Eu11 2.419 . S
O55 C75 1.249 . S
C56 O45 1.276 1_544 S
C56 O48 1.235 . S
C57 C59 1.393 . S
C57 C61 1.395 . S
C57 C64 1.492 . S
C58 C59 1.392 . S
C58 C60 1.386 . S
C59 C57 1.393 . S
C59 C58 1.392 . S
C59 H76 0.930 1_554 S
C60 C58 1.386 . S
C60 C62 1.395 . S
C60 H77 0.930 . S
C61 C57 1.395 . S
C61 C62 1.379 . S
C61 H78 0.930 . S
C62 C60 1.395 . S
C62 C61 1.379 . S
C62 H79 0.930 . S
C63 O46 1.264 . S
C63 O47 1.254 1_565 S
C64 Eu0 2.848 . S
C64 O44 1.257 . S
C64 O49 1.249 . S
C64 C57 1.492 . S
C65 H30 0.931 . S
C65 C43 1.420 . S
C65 C66 1.351 . S
C66 H28 0.930 . S
C66 C34 1.423 . S
C66 C65 1.351 . S
C67 O51 1.276 1_566 S
C67 O54 1.235 . S
C68 C69 1.393 . S
C68 C72 1.395 . S
C68 C75 1.492 . S
C69 C68 1.393 . S
C69 C70 1.392 . S
C69 H80 0.930 1_556 S
C70 C69 1.392 . S
C70 C71 1.386 . S
C71 C70 1.386 . S
C71 C73 1.395 . S
C71 H81 0.930 . S
C72 C68 1.395 . S
C72 C73 1.379 . S
C72 H82 0.930 . S
C73 C71 1.395 . S
C73 C72 1.379 . S
C73 H83 0.930 . S
C74 O52 1.264 . S
C74 O53 1.254 1_545 S
C75 Eu11 2.848 . S
C75 O50 1.257 . S
C75 O55 1.249 . S
C75 C68 1.492 . S
H76 C59 0.930 1_556 S
H77 C60 0.930 . S
H78 C61 0.930 . S
H79 C62 0.930 . S
H80 C69 0.930 1_554 S
H81 C71 0.930 . S
H82 C72 0.930 . S
H83 C73 0.930 . S
H84 C102 0.951 . S
H85 C104 0.951 . S
H86 C106 0.950 . S
H87 C107 0.950 . S
H88 C109 0.950 . S
H89 C112 0.950 . S
H90 C113 0.950 . S
H91 C115 0.950 . S
H92 C116 0.950 . S
H93 C117 0.951 . S
H94 C119 0.951 . S
H95 C121 0.950 . S
H96 C122 0.950 . S
H97 C124 0.950 . S
H98 C127 0.950 . S
H99 C128 0.950 . S
H100 C130 0.950 . S
H101 C131 0.950 . S
C102 H84 0.951 . S
C102 C103 1.365 . S
C102 C104 1.388 . S
C103 C102 1.365 . S
C103 C107 1.385 1_445 S
C104 H85 0.951 . S
C104 C102 1.388 . S
C104 C105 1.366 1_445 S
C105 C104 1.366 1_665 S
C105 C106 1.414 . S
C105 C108 1.499 . S
C106 H86 0.950 . S
C106 C105 1.414 . S
C106 C107 1.374 . S
C107 H87 0.950 . S
C107 C103 1.385 1_665 S
C107 C106 1.374 . S
C108 C105 1.499 . S
C108 C109 1.373 1_565 S
C108 C110 1.389 1_655 S
C109 H88 0.950 . S
C109 C108 1.373 1_545 S
C109 C125 1.377 . S
C110 C108 1.389 1_455 S
C110 C111 1.524 . S
C110 C124 1.377 . S
C111 C110 1.524 . S
C111 C112 1.397 1_455 S
C111 C116 1.363 . S
C112 H89 0.950 . S
C112 C111 1.397 1_655 S
C112 C113 1.334 . S
C113 H90 0.950 . S
C113 C112 1.334 . S
C113 C114 1.287 1_655 S
C114 C113 1.287 1_455 S
C114 C115 1.524 . S
C114 H133 0.913 . S
C115 H91 0.950 . S
C115 C114 1.524 . S
C115 C116 1.415 . S
C116 H92 0.950 . S
C116 C111 1.363 . S
C116 C115 1.415 . S
C117 H93 0.951 . S
C117 C118 1.365 1_665 S
C117 C119 1.388 . S
C118 C117 1.365 1_445 S
C118 C122 1.385 . S
C119 H94 0.951 . S
C119 C117 1.388 . S
C119 C120 1.366 1_665 S
C120 C119 1.366 1_445 S
C120 C121 1.414 . S
C120 C123 1.499 . S
C121 H95 0.950 . S
C121 C120 1.414 . S
C121 C122 1.374 . S
C122 H96 0.950 . S
C122 C118 1.385 . S
C122 C121 1.374 . S
C123 C120 1.499 . S
C123 C124 1.373 1_545 S
C123 C125 1.389 1_455 S
C124 H97 0.950 . S
C124 C110 1.377 . S
C124 C123 1.373 1_565 S
C125 C109 1.377 . S
C125 C123 1.389 1_655 S
C125 C126 1.524 . S
C126 C125 1.524 . S
C126 C127 1.397 1_655 S
C126 C131 1.363 . S
C127 H98 0.950 . S
C127 C126 1.397 1_455 S
C127 C128 1.334 . S
C128 H99 0.950 . S
C128 C127 1.334 . S
C128 C129 1.287 1_455 S
C129 C128 1.287 1_655 S
C129 C130 1.524 . S
C129 H132 0.999 . S
C130 H100 0.950 . S
C130 C129 1.524 . S
C130 C131 1.415 . S
C131 H101 0.950 . S
C131 C126 1.363 . S
C131 C130 1.415 . S
H132 C129 0.999 . S
H133 C114 0.913 . S
H134 C152 0.951 . S
H135 C154 0.951 . S
H136 C156 0.950 . S
H137 C157 0.950 . S
H138 C159 0.950 . S
H139 C162 0.950 . S
H140 C163 0.950 . S
H141 C165 0.950 . S
H142 C166 0.950 . S
H143 C167 0.951 . S
H144 C169 0.951 . S
H145 C171 0.950 . S
H146 C172 0.950 . S
H147 C174 0.950 . S
H148 C177 0.950 . S
H149 C178 0.950 . S
H150 C180 0.950 . S
H151 C181 0.950 . S
C152 H134 0.951 . S
C152 C153 1.365 1_556 S
C152 C154 1.388 . S
C153 C152 1.365 1_554 S
C153 C157 1.385 1_545 S
C154 H135 0.951 . S
C154 C152 1.388 . S
C154 C155 1.366 1_545 S
C155 C154 1.366 1_565 S
C155 C156 1.414 1_556 S
C155 C158 1.499 . S
C156 H136 0.950 . S
C156 C155 1.414 1_554 S
C156 C157 1.374 . S
C157 H137 0.950 . S
C157 C153 1.385 1_565 S
C157 C156 1.374 . S
C158 C155 1.499 . S
C158 C159 1.373 1_556 S
C158 C160 1.389 1_565 S
C159 H138 0.950 . S
C159 C158 1.373 1_554 S
C159 C175 1.377 . S
C160 C158 1.389 1_545 S
C160 C161 1.525 . S
C160 C174 1.377 . S
C161 C160 1.525 . S
C161 C162 1.397 1_545 S
C161 C166 1.362 . S
C162 H139 0.950 . S
C162 C161 1.397 1_565 S
C162 C163 1.334 . S
C163 H140 0.950 . S
C163 C162 1.334 . S
C163 C164 1.287 . S
C164 C163 1.287 . S
C164 C165 1.524 1_565 S
C164 H183 0.913 . S
C165 H141 0.950 . S
C165 C164 1.524 1_545 S
C165 C166 1.415 . S
C166 H142 0.950 . S
C166 C161 1.362 . S
C166 C165 1.415 . S
C167 H143 0.951 . S
C167 C168 1.367 1_564 S
C167 C169 1.388 . S
C168 C167 1.367 1_546 S
C168 C172 1.383 . S
C169 H144 0.951 . S
C169 C167 1.388 . S
C169 C170 1.366 1_565 S
C170 C169 1.366 1_545 S
C170 C171 1.414 1_554 S
C170 C173 1.499 . S
C171 H145 0.950 . S
C171 C170 1.414 1_556 S
C171 C172 1.374 . S
C172 H146 0.950 . S
C172 C168 1.383 . S
C172 C171 1.374 . S
C173 C170 1.499 . S
C173 C174 1.373 1_554 S
C173 C175 1.389 1_545 S
C174 H147 0.950 . S
C174 C160 1.377 . S
C174 C173 1.373 1_556 S
C175 C159 1.377 . S
C175 C173 1.389 1_565 S
C175 C176 1.525 1_565 S
C176 C175 1.525 1_545 S
C176 C177 1.397 . S
C176 C181 1.362 1_545 S
C177 H148 0.950 . S
C177 C176 1.397 . S
C177 C178 1.334 . S
C178 H149 0.950 . S
C178 C177 1.334 . S
C178 C179 1.287 . S
C179 C178 1.287 . S
C179 C180 1.524 1_545 S
C179 H182 0.999 . S
C180 H150 0.950 . S
C180 C179 1.524 1_565 S
C180 C181 1.415 . S
C181 H151 0.950 . S
C181 C176 1.362 1_565 S
C181 C180 1.415 . S
H182 C179 0.999 . S
H183 C164 0.913 . S
H184 C202 0.951 . S
H185 C204 0.951 . S
H186 C206 0.950 . S
H187 C207 0.950 . S
H188 C209 0.950 . S
H189 C212 0.950 . S
H190 C213 0.950 . S
H191 C215 0.950 . S
H192 C216 0.950 . S
H193 C217 0.951 . S
H194 C219 0.951 . S
H195 C221 0.950 . S
H196 C222 0.950 . S
H197 C224 0.950 . S
H198 C227 0.950 . S
H199 C228 0.950 . S
H200 C230 0.950 . S
H201 C231 0.950 . S
C202 H184 0.951 . S
C202 C203 1.367 1_455 S
C202 C204 1.388 . S
C203 C202 1.367 1_655 S
C203 C207 1.384 1_554 S
C204 H185 0.951 . S
C204 C202 1.388 . S
C204 C205 1.366 1_554 S
C205 C204 1.366 1_556 S
C205 C206 1.414 1_455 S
C205 C208 1.499 . S
C206 H186 0.950 . S
C206 C205 1.414 1_655 S
C206 C207 1.374 . S
C207 H187 0.950 . S
C207 C203 1.384 1_556 S
C207 C206 1.374 . S
C208 C205 1.499 . S
C208 C209 1.373 1_455 S
C208 C210 1.389 1_556 S
C209 H188 0.950 . S
C209 C208 1.373 1_655 S
C209 C225 1.377 . S
C210 C208 1.389 1_554 S
C210 C211 1.524 . S
C210 C224 1.377 . S
C211 C210 1.524 . S
C211 C212 1.397 1_554 S
C211 C216 1.363 . S
C212 H189 0.950 . S
C212 C211 1.397 1_556 S
C212 C213 1.334 . S
C213 H190 0.950 . S
C213 C212 1.334 . S
C213 C214 1.287 . S
C214 C213 1.287 . S
C214 C215 1.524 1_556 S
C214 H233 0.913 . S
C215 H191 0.950 . S
C215 C214 1.524 1_554 S
C215 C216 1.415 . S
C216 H192 0.950 . S
C216 C211 1.363 . S
C216 C215 1.415 . S
C217 H193 0.951 . S
C217 C218 1.365 1_656 S
C217 C219 1.388 . S
C218 C217 1.365 1_454 S
C218 C222 1.385 . S
C219 H194 0.951 . S
C219 C217 1.388 . S
C219 C220 1.366 1_556 S
C220 C219 1.366 1_554 S
C220 C221 1.414 1_655 S
C220 C223 1.499 . S
C221 H195 0.950 . S
C221 C220 1.414 1_455 S
C221 C222 1.374 . S
C222 H196 0.950 . S
C222 C218 1.385 . S
C222 C221 1.374 . S
C223 C220 1.499 . S
C223 C224 1.373 1_655 S
C223 C225 1.389 1_554 S
C224 H197 0.950 . S
C224 C210 1.377 . S
C224 C223 1.373 1_455 S
C225 C209 1.377 . S
C225 C223 1.389 1_556 S
C225 C226 1.524 . S
C226 C225 1.524 . S
C226 C227 1.397 1_556 S
C226 C231 1.363 . S
C227 H198 0.950 . S
C227 C226 1.397 1_554 S
C227 C228 1.334 . S
C228 H199 0.950 . S
C228 C227 1.334 . S
C228 C229 1.287 . S
C229 C228 1.287 . S
C229 C230 1.524 1_554 S
C229 H232 0.999 . S
C230 H200 0.950 . S
C230 C229 1.524 1_556 S
C230 C231 1.415 . S
C231 H201 0.950 . S
C231 C226 1.363 . S
C231 C230 1.415 . S
H232 C229 0.999 . S
H233 C214 0.913 . S
C103 C74 1.473 1_455 S
C118 C63 1.473 1_545 S
C153 C67 1.438 1_544 S
C168 C56 1.439 1_556 S
C203 C70 1.323 1_554 S
C218 C58 1.325 . S
