# Generated by pormake.
# Topology qtz, (4)-cn, num edge types: 1
# Building blocks:
#     Node 0, Type 0, BuildingBlock: QUQFOY_clean_sbu_1, # of connection points: 4
#     Node 1, Type 0, BuildingBlock: QUQFOY_clean_sbu_1, # of connection points: 4
#     Node 2, Type 0, BuildingBlock: QUQFOY_clean_sbu_1, # of connection points: 4
#     Edge 3, Type (0, 0), BuildingBlock: ZUJKAS_clean_linker_0, # of connection points: 2
#     Edge 4, Type (0, 0), BuildingBlock: ZUJKAS_clean_linker_0, # of connection points: 2
#     Edge 5, Type (0, 0), BuildingBlock: ZUJKAS_clean_linker_0, # of connection points: 2
#     Edge 6, Type (0, 0), BuildingBlock: ZUJKAS_clean_linker_0, # of connection points: 2
#     Edge 7, Type (0, 0), BuildingBlock: ZUJKAS_clean_linker_0, # of connection points: 2
#     Edge 8, Type (0, 0), BuildingBlock: ZUJKAS_clean_linker_0, # of connection points: 2
# Relax obj value: 0.036
# Max RMSD: 0.130
# Mean RMSD: 0.104
data_MOF--net-qtz--node1-QUQFOY_clean_sbu_1--edge1-ZUJKAS_clean_linker_0
_symmetry_space_group_name_H-M    P1
_symmetry_Int_Tables_number       1
_symmetry_cell_setting            triclinic
loop_
_symmetry_equiv_pos_as_xyz
'x, y, z'
_cell_length_a     29.005931
_cell_length_b     33.011266
_cell_length_c     38.499736
_cell_angle_alpha  90.017784
_cell_angle_beta   89.933399
_cell_angle_gamma 120.56421
loop_
_atom_site_label
_atom_site_type_symbol
_atom_site_fract_x
_atom_site_fract_y
_atom_site_fract_z
_atom_type_partial_charge
O0 O 0.91572 0.47849 0.13921 0.0
Cd1 Cd 0.96515 0.46272 0.16714 0.0
Cd2 Cd 0.02908 0.55596 0.16726 0.0
O3 O 0.9667 0.55565 0.1415 0.0
O4 O 0.91789 0.39723 0.18389 0.0
O5 O 0.96119 0.45801 0.21927 0.0
C6 C 0.92871 0.41341 0.21515 0.0
C7 C 0.06849 0.60646 0.21436 0.0
C8 C 0.92411 0.51913 0.13152 0.0
C9 C 0.06854 0.49969 0.12934 0.0
O10 O 0.07724 0.54026 0.13766 0.0
O11 O 0.02627 0.46302 0.13961 0.0
O12 O 0.07621 0.62198 0.18291 0.0
O13 O 0.03753 0.56179 0.21923 0.0
O14 O 0.53711 0.0818 0.46856 0.0
Cd15 Cd 0.47166 0.03743 0.49845 0.0
Cd16 Cd 0.52545 0.9888 0.50163 0.0
O17 O 0.5862 0.04958 0.47905 0.0
O18 O 0.43876 0.07571 0.51095 0.0
O19 O 0.47478 0.05054 0.54971 0.0
C20 C 0.452 0.07458 0.54274 0.0
C21 C 0.54549 0.95198 0.54604 0.0
C22 C 0.58091 0.08212 0.46552 0.0
C23 C 0.41783 0.94293 0.46523 0.0
O24 O 0.46083 0.94289 0.47148 0.0
O25 O 0.41216 0.97667 0.47568 0.0
O26 O 0.559 0.95109 0.51428 0.0
O27 O 0.52213 0.97554 0.55296 0.0
O28 O 0.45458 0.54186 0.85821 0.0
Cd29 Cd 0.5222 0.5612 0.82903 0.0
Cd30 Cd 0.4778 0.46428 0.82837 0.0
O31 O 0.41494 0.46473 0.85309 0.0
O32 O 0.54996 0.62896 0.81903 0.0
O33 O 0.52223 0.57485 0.77793 0.0
C34 C 0.54076 0.61824 0.78661 0.0
C35 C 0.46 0.40796 0.78547 0.0
C36 C 0.41521 0.501 0.86447 0.0
C37 C 0.5838 0.5236 0.86507 0.0
O38 O 0.54465 0.48291 0.85811 0.0
O39 O 0.58439 0.56017 0.8541 0.0
O40 O 0.45022 0.3967 0.81778 0.0
O41 O 0.47879 0.45152 0.77717 0.0
H42 H 0.40391 0.57096 0.89345 0.0
H43 H 0.33922 0.56309 0.93737 0.0
H44 H 0.2636 0.41201 0.93246 0.0
H45 H 0.32884 0.41943 0.88873 0.0
H46 H 0.22731 0.51649 0.93656 0.0
H47 H 0.30228 0.44129 0.03571 0.0
H48 H 0.33887 0.4688 0.99641 0.0
H49 H 0.28176 0.41026 0.99509 0.0
C50 C 0.37332 0.53597 0.90143 0.0
C51 C 0.37191 0.49582 0.88779 0.0
C52 C 0.33636 0.53158 0.92656 0.0
C53 C 0.29737 0.48703 0.93862 0.0
C54 C 0.29417 0.44675 0.92399 0.0
H55 H 0.06028 0.41907 0.10295 0.0
H56 H 0.11461 0.4131 0.05672 0.0
C57 C 0.33123 0.45108 0.89882 0.0
C58 C 0.26111 0.48333 0.96708 0.0
H59 H 0.23034 0.45131 0.05214 0.0
C60 C 0.22774 0.50203 0.96177 0.0
C61 C 0.26186 0.46441 0.99993 0.0
C62 C 0.29835 0.44535 0.0074 0.0
C63 C 0.19543 0.50277 0.98858 0.0
C64 C 0.19719 0.48494 0.02162 0.0
C65 C 0.22936 0.46505 0.02674 0.0
C66 C 0.16716 0.48827 0.05144 0.0
C67 C 0.15972 0.52271 0.98138 0.0
C68 C 0.1801 0.53246 0.06448 0.0
C69 C 0.14942 0.53606 0.09091 0.0
C70 C 0.1052 0.49545 0.1048 0.0
C71 C 0.09393 0.45106 0.09275 0.0
C72 C 0.12482 0.44753 0.06632 0.0
H73 H 0.15314 0.52417 0.95309 0.0
H74 H 0.12026 0.50143 0.99433 0.0
H75 H 0.17884 0.55906 0.99179 0.0
H76 H 0.21333 0.56426 0.05368 0.0
H77 H 0.15946 0.57079 0.09968 0.0
H78 H 0.95166 0.43266 0.28444 0.0
H79 H 0.90675 0.37965 0.3336 0.0
H80 H 0.80164 0.27053 0.26247 0.0
H81 H 0.8472 0.32238 0.21354 0.0
H82 H 0.80673 0.34075 0.3547 0.0
H83 H 0.84493 0.19755 0.32305 0.0
H84 H 0.8798 0.25393 0.30155 0.0
H85 H 0.81458 0.20894 0.28676 0.0
C86 C 0.91941 0.39715 0.27934 0.0
C87 C 0.90322 0.3816 0.2451 0.0
C88 C 0.8938 0.36691 0.30743 0.0
C89 C 0.85157 0.3207 0.30174 0.0
C90 C 0.83525 0.3054 0.26755 0.0
H91 H 0.57648 0.14589 0.42278 0.0
H92 H 0.64806 0.20634 0.38745 0.0
C93 C 0.8611 0.33531 0.23955 0.0
C94 C 0.82182 0.28927 0.33131 0.0
H95 H 0.76775 0.17611 0.35969 0.0
C96 C 0.79901 0.30501 0.35615 0.0
C97 C 0.81269 0.24296 0.33384 0.0
C98 C 0.83987 0.22511 0.31007 0.0
C99 C 0.76465 0.27482 0.38207 0.0
C100 C 0.75143 0.2272 0.38247 0.0
C101 C 0.77697 0.21234 0.35903 0.0
C102 C 0.70879 0.19157 0.40533 0.0
C103 C 0.74266 0.29432 0.40856 0.0
C104 C 0.71844 0.16189 0.42636 0.0
C105 C 0.67709 0.12644 0.44616 0.0
C106 C 0.62535 0.12015 0.44534 0.0
C107 C 0.61596 0.15008 0.42436 0.0
C108 C 0.65706 0.18503 0.40433 0.0
H109 H 0.77071 0.33249 0.41285 0.0
H110 H 0.70448 0.29013 0.39881 0.0
H111 H 0.73494 0.2758 0.43386 0.0
H112 H 0.75792 0.16598 0.42731 0.0
H113 H 0.68563 0.10397 0.46203 0.0
H114 H 0.51114 0.93726 0.61373 0.0
H115 H 0.5173 0.88465 0.65599 0.0
H116 H 0.60248 0.85005 0.58103 0.0
H117 H 0.59702 0.90264 0.53889 0.0
H118 H 0.47451 0.78774 0.64667 0.0
H119 H 0.69377 0.87868 0.66886 0.0
H120 H 0.66144 0.90758 0.64942 0.0
H121 H 0.67489 0.86914 0.62388 0.0
C122 C 0.53196 0.91905 0.60646 0.0
C123 C 0.55364 0.92419 0.57296 0.0
C124 C 0.5353 0.88892 0.63058 0.0
C125 C 0.56081 0.86382 0.62175 0.0
C126 C 0.58349 0.86971 0.58862 0.0
H127 H 0.51284 0.60599 0.71769 0.0
H128 H 0.51931 0.66571 0.67686 0.0
C129 C 0.58007 0.89966 0.5645 0.0
C130 C 0.56062 0.82906 0.64623 0.0
H131 H 0.64222 0.8002 0.69014 0.0
C132 C 0.51115 0.79056 0.65632 0.0
C133 C 0.60849 0.83296 0.65887 0.0
C134 C 0.66269 0.87452 0.65 0.0
C135 C 0.50824 0.75544 0.67834 0.0
C136 C 0.55612 0.75865 0.69019 0.0
C137 C 0.60561 0.79754 0.68059 0.0
C138 C 0.55545 0.72294 0.71385 0.0
C139 C 0.45396 0.71556 0.68917 0.0
C140 C 0.57524 0.73569 0.74774 0.0
C141 C 0.57172 0.70179 0.77102 0.0
C142 C 0.54867 0.65448 0.76078 0.0
C143 C 0.53067 0.64209 0.72639 0.0
C144 C 0.53404 0.67608 0.70311 0.0
H145 H 0.42174 0.72358 0.68402 0.0
H146 H 0.44471 0.68347 0.67433 0.0
H147 H 0.45354 0.70767 0.71725 0.0
H148 H 0.59214 0.77171 0.75647 0.0
H149 H 0.5862 0.71259 0.79727 0.0
H150 H 0.5943 0.45287 0.89333 0.0
H151 H 0.65729 0.45948 0.938 0.0
H152 H 0.7327 0.61065 0.93549 0.0
H153 H 0.66914 0.60447 0.89101 0.0
H154 H 0.76909 0.50617 0.93892 0.0
H155 H 0.69006 0.5782 0.03797 0.0
H156 H 0.65508 0.55192 0.99801 0.0
H157 H 0.71215 0.61053 0.99793 0.0
C158 C 0.6245 0.48762 0.90199 0.0
C159 C 0.6263 0.52814 0.88881 0.0
C160 C 0.66048 0.49129 0.92755 0.0
C161 C 0.69888 0.53547 0.94051 0.0
C162 C 0.70254 0.57617 0.92634 0.0
H163 H 0.9319 0.60011 0.10638 0.0
H164 H 0.87786 0.60674 0.06037 0.0
C165 C 0.66646 0.57255 0.90073 0.0
C166 C 0.73404 0.53836 0.96939 0.0
H167 H 0.7617 0.5681 0.05501 0.0
C168 C 0.76768 0.5199 0.96425 0.0
C169 C 0.73201 0.55631 1.0024 0.0
C170 C 0.69513 0.57506 0.00967 0.0
C171 C 0.79907 0.51851 0.99135 0.0
C172 C 0.79609 0.53544 0.02452 0.0
C173 C 0.76359 0.55504 0.0295 0.0
C174 C 0.82541 0.53166 0.05452 0.0
C175 C 0.83518 0.49891 0.98433 0.0
C176 C 0.81234 0.48727 0.06723 0.0
C177 C 0.84286 0.48329 0.09353 0.0
C178 C 0.88705 0.52371 0.10762 0.0
C179 C 0.89827 0.56827 0.09603 0.0
C180 C 0.86756 0.57218 0.06972 0.0
H181 H 0.8425 0.49792 0.95609 0.0
H182 H 0.87429 0.52013 0.99765 0.0
H183 H 0.81601 0.46242 0.99448 0.0
H184 H 0.77928 0.45563 0.05616 0.0
H185 H 0.83287 0.44844 0.10195 0.0
H186 H 0.4127 0.86168 0.44413 0.0
H187 H 0.34667 0.80121 0.40567 0.0
H188 H 0.26113 0.87623 0.39989 0.0
H189 H 0.3266 0.93672 0.4389 0.0
H190 H 0.19363 0.77748 0.40585 0.0
H191 H 0.3454 0.82664 0.30155 0.0
H192 H 0.36364 0.81187 0.34214 0.0
H193 H 0.3568 0.86294 0.3393 0.0
C194 C 0.37968 0.86526 0.43491 0.0
C195 C 0.37532 0.90439 0.44427 0.0
C196 C 0.34205 0.83069 0.41285 0.0
C197 C 0.29965 0.83474 0.39944 0.0
C198 C 0.29378 0.87261 0.40985 0.0
H199 H 0.12551 0.70215 0.21216 0.0
H200 H 0.17689 0.75638 0.25884 0.0
C201 C 0.33129 0.90718 0.43209 0.0
C202 C 0.26301 0.8007 0.37328 0.0
H203 H 0.26071 0.75884 0.29189 0.0
C204 C 0.20814 0.77334 0.38089 0.0
C205 C 0.28206 0.79595 0.34058 0.0
C206 C 0.34008 0.82618 0.33016 0.0
C207 C 0.17184 0.74086 0.35673 0.0
C208 C 0.1912 0.73528 0.3244 0.0
C209 C 0.246 0.76294 0.31678 0.0
C210 C 0.15554 0.70203 0.29745 0.0
C211 C 0.11305 0.71358 0.3657 0.0
C212 C 0.12594 0.65337 0.30373 0.0
C213 C 0.09614 0.62213 0.27704 0.0
C214 C 0.09604 0.6391 0.24355 0.0
C215 C 0.12488 0.68789 0.23761 0.0
C216 C 0.15428 0.71898 0.26427 0.0
H217 H 0.10324 0.73037 0.38723 0.0
H218 H 0.08818 0.71038 0.34279 0.0
H219 H 0.10203 0.67761 0.37412 0.0
H220 H 0.12719 0.63943 0.32895 0.0
H221 H 0.07453 0.58471 0.28236 0.0
H222 H 0.41513 0.31356 0.79552 0.0
H223 H 0.40892 0.25497 0.75409 0.0
H224 H 0.48081 0.36186 0.67496 0.0
H225 H 0.4876 0.42108 0.71644 0.0
H226 H 0.35795 0.22704 0.68834 0.0
H227 H 0.57834 0.30405 0.67967 0.0
H228 H 0.54721 0.31982 0.71352 0.0
H229 H 0.55504 0.34407 0.67069 0.0
C230 C 0.42938 0.32468 0.76925 0.0
C231 C 0.45224 0.3721 0.75933 0.0
C232 C 0.4257 0.29107 0.74561 0.0
C233 C 0.4451 0.3042 0.71165 0.0
C234 C 0.46639 0.35119 0.70125 0.0
H235 H 0.40092 0.12437 0.53585 0.0
H236 H 0.39624 0.17736 0.57808 0.0
C237 C 0.46995 0.3849 0.7249 0.0
C238 C 0.44404 0.26872 0.68754 0.0
H239 H 0.52486 0.23985 0.6426 0.0
C240 C 0.39439 0.2298 0.67828 0.0
C241 C 0.49171 0.27206 0.67499 0.0
C242 C 0.54619 0.31198 0.68538 0.0
C243 C 0.39112 0.19444 0.65631 0.0
C244 C 0.43876 0.19842 0.64306 0.0
C245 C 0.4884 0.23699 0.65273 0.0
C246 C 0.43812 0.16351 0.61853 0.0
C247 C 0.3368 0.15282 0.64785 0.0
C248 C 0.46342 0.1382 0.62721 0.0
C249 C 0.46625 0.10782 0.60306 0.0
C250 C 0.4443 0.10264 0.56968 0.0
C251 C 0.41808 0.12739 0.56137 0.0
C252 C 0.41513 0.15757 0.58553 0.0
H253 H 0.30594 0.14885 0.66688 0.0
H254 H 0.32432 0.15792 0.62176 0.0
H255 H 0.33805 0.11975 0.64737 0.0
H256 H 0.48163 0.14249 0.65252 0.0
H257 H 0.48692 0.08945 0.61022 0.0
loop_
_geom_bond_atom_site_label_1
_geom_bond_atom_site_label_2
_geom_bond_distance
_geom_bond_site_symmetry_2
_ccdc_geom_bond_type
O0 Cd1 2.223 . S
O0 C8 1.315 . S
Cd1 O0 2.223 . S
Cd1 O4 2.297 . S
Cd1 O5 2.439 . S
Cd1 O11 2.240 1_655 S
Cd2 O3 2.240 1_455 S
Cd2 O10 2.223 . S
Cd2 O12 2.297 . S
Cd2 O13 2.439 . S
O3 Cd2 2.240 1_655 S
O3 C8 1.279 . S
O4 Cd1 2.297 . S
O4 C6 1.247 . S
O5 Cd1 2.439 . S
O5 C6 1.208 . S
C6 O4 1.247 . S
C6 O5 1.208 . S
C7 O12 1.247 . S
C7 O13 1.208 . S
C8 O0 1.315 . S
C8 O3 1.279 . S
C9 O10 1.315 . S
C9 O11 1.279 . S
O10 Cd2 2.223 . S
O10 C9 1.315 . S
O11 Cd1 2.240 1_455 S
O11 C9 1.279 . S
O12 Cd2 2.297 . S
O12 C7 1.247 . S
O13 Cd2 2.439 . S
O13 C7 1.208 . S
O14 Cd15 2.223 . S
O14 C22 1.315 . S
Cd15 O14 2.223 . S
Cd15 O18 2.297 . S
Cd15 O19 2.439 . S
Cd15 O25 2.240 1_545 S
Cd16 O17 2.240 1_565 S
Cd16 O24 2.223 . S
Cd16 O26 2.297 . S
Cd16 O27 2.439 . S
O17 Cd16 2.240 1_545 S
O17 C22 1.279 . S
O18 Cd15 2.297 . S
O18 C20 1.247 . S
O19 Cd15 2.439 . S
O19 C20 1.208 . S
C20 O18 1.247 . S
C20 O19 1.208 . S
C21 O26 1.247 . S
C21 O27 1.208 . S
C22 O14 1.315 . S
C22 O17 1.279 . S
C23 O24 1.315 . S
C23 O25 1.279 . S
O24 Cd16 2.223 . S
O24 C23 1.315 . S
O25 Cd15 2.240 1_565 S
O25 C23 1.279 . S
O26 Cd16 2.297 . S
O26 C21 1.247 . S
O27 Cd16 2.439 . S
O27 C21 1.208 . S
O28 Cd29 2.223 . S
O28 C36 1.315 . S
Cd29 O28 2.223 . S
Cd29 O32 2.297 . S
Cd29 O33 2.439 . S
Cd29 O39 2.240 . S
Cd30 O31 2.240 . S
Cd30 O38 2.223 . S
Cd30 O40 2.297 . S
Cd30 O41 2.439 . S
O31 Cd30 2.240 . S
O31 C36 1.279 . S
O32 Cd29 2.297 . S
O32 C34 1.247 . S
O33 Cd29 2.439 . S
O33 C34 1.208 . S
C34 O32 1.247 . S
C34 O33 1.208 . S
C35 O40 1.247 . S
C35 O41 1.208 . S
C36 O28 1.315 . S
C36 O31 1.279 . S
C37 O38 1.315 . S
C37 O39 1.279 . S
O38 Cd30 2.223 . S
O38 C37 1.315 . S
O39 Cd29 2.240 . S
O39 C37 1.279 . S
O40 Cd30 2.297 . S
O40 C35 1.247 . S
O41 Cd30 2.439 . S
O41 C35 1.208 . S
H42 C50 0.929 . S
H43 C52 0.930 . S
H44 C54 0.930 . S
H45 C57 0.929 . S
H46 C60 0.930 . S
H47 C62 0.960 . S
H48 C62 0.960 . S
H49 C62 0.960 1_556 S
C50 H42 0.929 . S
C50 C51 1.377 . S
C50 C52 1.384 . S
C51 C50 1.377 . S
C51 C57 1.390 . S
C52 H43 0.930 . S
C52 C50 1.384 . S
C52 C53 1.372 . S
C53 C52 1.372 . S
C53 C54 1.400 . S
C53 C58 1.490 . S
C54 H44 0.930 . S
C54 C53 1.400 . S
C54 C57 1.386 . S
H55 C71 0.930 . S
H56 C72 0.931 . S
C57 H45 0.929 . S
C57 C51 1.390 . S
C57 C54 1.386 . S
C58 C53 1.490 . S
C58 C60 1.395 . S
C58 C61 1.403 1_556 S
H59 C65 0.930 . S
C60 H46 0.930 . S
C60 C58 1.395 . S
C60 C63 1.403 . S
C61 C58 1.403 1_554 S
C61 C62 1.524 . S
C61 C65 1.400 . S
C62 H47 0.960 . S
C62 H48 0.960 . S
C62 H49 0.960 1_554 S
C62 C61 1.524 . S
C63 C60 1.403 . S
C63 C64 1.392 1_556 S
C63 C67 1.495 . S
C64 C63 1.392 1_554 S
C64 C65 1.385 . S
C64 C66 1.478 . S
C65 H59 0.930 . S
C65 C61 1.400 . S
C65 C64 1.385 . S
C66 C64 1.478 . S
C66 C68 1.381 . S
C66 C72 1.383 . S
C67 C63 1.495 . S
C67 H73 0.959 . S
C67 H74 0.961 . S
C67 H75 0.960 1_556 S
C68 C66 1.381 . S
C68 C69 1.394 . S
C68 H76 0.930 . S
C69 C68 1.394 . S
C69 C70 1.383 . S
C69 H77 0.929 . S
C70 C69 1.383 . S
C70 C71 1.377 . S
C71 H55 0.930 . S
C71 C70 1.377 . S
C71 C72 1.379 . S
C72 H56 0.931 . S
C72 C66 1.383 . S
C72 C71 1.379 . S
H73 C67 0.959 . S
H74 C67 0.961 . S
H75 C67 0.960 1_554 S
H76 C68 0.930 . S
H77 C69 0.929 . S
H78 C86 0.929 . S
H79 C88 0.930 . S
H80 C90 0.930 . S
H81 C93 0.929 . S
H82 C96 0.930 . S
H83 C98 0.960 . S
H84 C98 0.960 . S
H85 C98 0.960 . S
C86 H78 0.929 . S
C86 C87 1.377 . S
C86 C88 1.384 . S
C87 C86 1.377 . S
C87 C93 1.390 . S
C88 H79 0.930 . S
C88 C86 1.384 . S
C88 C89 1.372 . S
C89 C88 1.372 . S
C89 C90 1.400 . S
C89 C94 1.490 . S
C90 H80 0.930 . S
C90 C89 1.400 . S
C90 C93 1.386 . S
H91 C107 0.930 . S
H92 C108 0.931 . S
C93 H81 0.929 . S
C93 C87 1.390 . S
C93 C90 1.386 . S
C94 C89 1.490 . S
C94 C96 1.395 . S
C94 C97 1.403 . S
H95 C101 0.930 . S
C96 H82 0.930 . S
C96 C94 1.395 . S
C96 C99 1.403 . S
C97 C94 1.403 . S
C97 C98 1.524 . S
C97 C101 1.400 . S
C98 H83 0.960 . S
C98 H84 0.960 . S
C98 H85 0.960 . S
C98 C97 1.524 . S
C99 C96 1.403 . S
C99 C100 1.392 . S
C99 C103 1.495 . S
C100 C99 1.392 . S
C100 C101 1.385 . S
C100 C102 1.478 . S
C101 H95 0.930 . S
C101 C97 1.400 . S
C101 C100 1.385 . S
C102 C100 1.478 . S
C102 C104 1.381 . S
C102 C108 1.383 . S
C103 C99 1.495 . S
C103 H109 0.959 . S
C103 H110 0.961 . S
C103 H111 0.960 . S
C104 C102 1.381 . S
C104 C105 1.394 . S
C104 H112 0.930 . S
C105 C104 1.394 . S
C105 C106 1.383 . S
C105 H113 0.929 . S
C106 C105 1.383 . S
C106 C107 1.377 . S
C107 H91 0.930 . S
C107 C106 1.377 . S
C107 C108 1.379 . S
C108 H92 0.931 . S
C108 C102 1.383 . S
C108 C107 1.379 . S
H109 C103 0.959 . S
H110 C103 0.961 . S
H111 C103 0.960 . S
H112 C104 0.930 . S
H113 C105 0.929 . S
H114 C122 0.929 . S
H115 C124 0.930 . S
H116 C126 0.930 . S
H117 C129 0.929 . S
H118 C132 0.930 . S
H119 C134 0.960 . S
H120 C134 0.960 . S
H121 C134 0.960 . S
C122 H114 0.929 . S
C122 C123 1.377 . S
C122 C124 1.384 . S
C123 C122 1.377 . S
C123 C129 1.390 . S
C124 H115 0.930 . S
C124 C122 1.384 . S
C124 C125 1.372 . S
C125 C124 1.372 . S
C125 C126 1.400 . S
C125 C130 1.490 . S
C126 H116 0.930 . S
C126 C125 1.400 . S
C126 C129 1.386 . S
H127 C143 0.930 . S
H128 C144 0.931 . S
C129 H117 0.929 . S
C129 C123 1.390 . S
C129 C126 1.386 . S
C130 C125 1.490 . S
C130 C132 1.395 . S
C130 C133 1.403 . S
H131 C137 0.930 . S
C132 H118 0.930 . S
C132 C130 1.395 . S
C132 C135 1.403 . S
C133 C130 1.403 . S
C133 C134 1.524 . S
C133 C137 1.400 . S
C134 H119 0.960 . S
C134 H120 0.960 . S
C134 H121 0.960 . S
C134 C133 1.524 . S
C135 C132 1.403 . S
C135 C136 1.392 . S
C135 C139 1.495 . S
C136 C135 1.392 . S
C136 C137 1.385 . S
C136 C138 1.478 . S
C137 H131 0.930 . S
C137 C133 1.400 . S
C137 C136 1.385 . S
C138 C136 1.478 . S
C138 C140 1.381 . S
C138 C144 1.383 . S
C139 C135 1.495 . S
C139 H145 0.959 . S
C139 H146 0.961 . S
C139 H147 0.960 . S
C140 C138 1.381 . S
C140 C141 1.394 . S
C140 H148 0.930 . S
C141 C140 1.394 . S
C141 C142 1.383 . S
C141 H149 0.929 . S
C142 C141 1.383 . S
C142 C143 1.377 . S
C143 H127 0.930 . S
C143 C142 1.377 . S
C143 C144 1.379 . S
C144 H128 0.931 . S
C144 C138 1.383 . S
C144 C143 1.379 . S
H145 C139 0.959 . S
H146 C139 0.961 . S
H147 C139 0.960 . S
H148 C140 0.930 . S
H149 C141 0.929 . S
H150 C158 0.929 . S
H151 C160 0.930 . S
H152 C162 0.930 . S
H153 C165 0.929 . S
H154 C168 0.930 . S
H155 C170 0.960 . S
H156 C170 0.960 . S
H157 C170 0.960 . S
C158 H150 0.929 . S
C158 C159 1.377 . S
C158 C160 1.384 . S
C159 C158 1.377 . S
C159 C165 1.390 . S
C160 H151 0.930 . S
C160 C158 1.384 . S
C160 C161 1.372 . S
C161 C160 1.372 . S
C161 C162 1.400 . S
C161 C166 1.490 . S
C162 H152 0.930 . S
C162 C161 1.400 . S
C162 C165 1.386 . S
H163 C179 0.930 . S
H164 C180 0.931 . S
C165 H153 0.929 . S
C165 C159 1.390 . S
C165 C162 1.386 . S
C166 C161 1.490 . S
C166 C168 1.395 . S
C166 C169 1.403 1_556 S
H167 C173 0.930 . S
C168 H154 0.930 . S
C168 C166 1.395 . S
C168 C171 1.403 . S
C169 C166 1.403 1_554 S
C169 C170 1.524 . S
C169 C173 1.400 . S
C170 H155 0.960 . S
C170 H156 0.960 . S
C170 H157 0.960 . S
C170 C169 1.524 . S
C171 C168 1.403 . S
C171 C172 1.392 1_556 S
C171 C175 1.495 . S
C172 C171 1.392 1_554 S
C172 C173 1.385 . S
C172 C174 1.478 . S
C173 H167 0.930 . S
C173 C169 1.400 . S
C173 C172 1.385 . S
C174 C172 1.478 . S
C174 C176 1.381 . S
C174 C180 1.383 . S
C175 C171 1.495 . S
C175 H181 0.959 . S
C175 H182 0.961 . S
C175 H183 0.960 . S
C176 C174 1.381 . S
C176 C177 1.394 . S
C176 H184 0.930 . S
C177 C176 1.394 . S
C177 C178 1.383 . S
C177 H185 0.929 . S
C178 C177 1.383 . S
C178 C179 1.377 . S
C179 H163 0.930 . S
C179 C178 1.377 . S
C179 C180 1.379 . S
C180 H164 0.931 . S
C180 C174 1.383 . S
C180 C179 1.379 . S
H181 C175 0.959 . S
H182 C175 0.961 . S
H183 C175 0.960 . S
H184 C176 0.930 . S
H185 C177 0.929 . S
H186 C194 0.929 . S
H187 C196 0.930 . S
H188 C198 0.930 . S
H189 C201 0.929 . S
H190 C204 0.930 . S
H191 C206 0.960 . S
H192 C206 0.960 . S
H193 C206 0.960 . S
C194 H186 0.929 . S
C194 C195 1.377 . S
C194 C196 1.384 . S
C195 C194 1.377 . S
C195 C201 1.390 . S
C196 H187 0.930 . S
C196 C194 1.384 . S
C196 C197 1.372 . S
C197 C196 1.372 . S
C197 C198 1.400 . S
C197 C202 1.490 . S
C198 H188 0.930 . S
C198 C197 1.400 . S
C198 C201 1.386 . S
H199 C215 0.930 . S
H200 C216 0.931 . S
C201 H189 0.929 . S
C201 C195 1.390 . S
C201 C198 1.386 . S
C202 C197 1.490 . S
C202 C204 1.395 . S
C202 C205 1.403 . S
H203 C209 0.930 . S
C204 H190 0.930 . S
C204 C202 1.395 . S
C204 C207 1.403 . S
C205 C202 1.403 . S
C205 C206 1.524 . S
C205 C209 1.400 . S
C206 H191 0.960 . S
C206 H192 0.960 . S
C206 H193 0.960 . S
C206 C205 1.524 . S
C207 C204 1.403 . S
C207 C208 1.392 . S
C207 C211 1.495 . S
C208 C207 1.392 . S
C208 C209 1.385 . S
C208 C210 1.478 . S
C209 H203 0.930 . S
C209 C205 1.400 . S
C209 C208 1.385 . S
C210 C208 1.478 . S
C210 C212 1.381 . S
C210 C216 1.383 . S
C211 C207 1.495 . S
C211 H217 0.959 . S
C211 H218 0.961 . S
C211 H219 0.960 . S
C212 C210 1.381 . S
C212 C213 1.394 . S
C212 H220 0.930 . S
C213 C212 1.394 . S
C213 C214 1.383 . S
C213 H221 0.929 . S
C214 C213 1.383 . S
C214 C215 1.377 . S
C215 H199 0.930 . S
C215 C214 1.377 . S
C215 C216 1.379 . S
C216 H200 0.931 . S
C216 C210 1.383 . S
C216 C215 1.379 . S
H217 C211 0.959 . S
H218 C211 0.961 . S
H219 C211 0.960 . S
H220 C212 0.930 . S
H221 C213 0.929 . S
H222 C230 0.929 . S
H223 C232 0.930 . S
H224 C234 0.930 . S
H225 C237 0.929 . S
H226 C240 0.930 . S
H227 C242 0.960 . S
H228 C242 0.960 . S
H229 C242 0.960 . S
C230 H222 0.929 . S
C230 C231 1.377 . S
C230 C232 1.384 . S
C231 C230 1.377 . S
C231 C237 1.390 . S
C232 H223 0.930 . S
C232 C230 1.384 . S
C232 C233 1.372 . S
C233 C232 1.372 . S
C233 C234 1.400 . S
C233 C238 1.490 . S
C234 H224 0.930 . S
C234 C233 1.400 . S
C234 C237 1.386 . S
H235 C251 0.930 . S
H236 C252 0.931 . S
C237 H225 0.929 . S
C237 C231 1.390 . S
C237 C234 1.386 . S
C238 C233 1.490 . S
C238 C240 1.395 . S
C238 C241 1.403 . S
H239 C245 0.930 . S
C240 H226 0.930 . S
C240 C238 1.395 . S
C240 C243 1.403 . S
C241 C238 1.403 . S
C241 C242 1.524 . S
C241 C245 1.400 . S
C242 H227 0.960 . S
C242 H228 0.960 . S
C242 H229 0.960 . S
C242 C241 1.524 . S
C243 C240 1.403 . S
C243 C244 1.392 . S
C243 C247 1.495 . S
C244 C243 1.392 . S
C244 C245 1.385 . S
C244 C246 1.478 . S
C245 H239 0.930 . S
C245 C241 1.400 . S
C245 C244 1.385 . S
C246 C244 1.478 . S
C246 C248 1.381 . S
C246 C252 1.383 . S
C247 C243 1.495 . S
C247 H253 0.959 . S
C247 H254 0.961 . S
C247 H255 0.960 . S
C248 C246 1.381 . S
C248 C249 1.394 . S
C248 H256 0.930 . S
C249 C248 1.394 . S
C249 C250 1.383 . S
C249 H257 0.929 . S
C250 C249 1.383 . S
C250 C251 1.377 . S
C251 H235 0.930 . S
C251 C250 1.377 . S
C251 C252 1.379 . S
C252 H236 0.931 . S
C252 C246 1.383 . S
C252 C251 1.379 . S
H253 C247 0.959 . S
H254 C247 0.961 . S
H255 C247 0.960 . S
H256 C248 0.930 . S
H257 C249 0.929 . S
C51 C36 1.687 . S
C70 C9 1.688 . S
C87 C6 1.535 . S
C106 C22 1.505 . S
C123 C21 1.353 . S
C142 C34 1.342 . S
C159 C37 1.684 . S
C178 C8 1.704 . S
C195 C23 1.526 . S
C214 C7 1.544 . S
C231 C35 1.347 . S
C250 C20 1.334 . S
