# Generated by pormake.
# Topology tfs, (6)-cn, num edge types: 1
# Building blocks:
#     Node 0, Type 0, BuildingBlock: MIFKUJ_clean_sbu_0, # of connection points: 6
#     Node 1, Type 0, BuildingBlock: MIFKUJ_clean_sbu_0, # of connection points: 6
#     Node 2, Type 0, BuildingBlock: MIFKUJ_clean_sbu_0, # of connection points: 6
#     Node 3, Type 0, BuildingBlock: MIFKUJ_clean_sbu_0, # of connection points: 6
#     Node 4, Type 0, BuildingBlock: MIFKUJ_clean_sbu_0, # of connection points: 6
#     Node 5, Type 0, BuildingBlock: MIFKUJ_clean_sbu_0, # of connection points: 6
#     Edge 6, Type (0, 0), BuildingBlock: EYOCIG_clean_linker_4, # of connection points: 2
#     Edge 7, Type (0, 0), BuildingBlock: EYOCIG_clean_linker_4, # of connection points: 2
#     Edge 8, Type (0, 0), BuildingBlock: EYOCIG_clean_linker_4, # of connection points: 2
#     Edge 9, Type (0, 0), BuildingBlock: EYOCIG_clean_linker_4, # of connection points: 2
#     Edge 10, Type (0, 0), BuildingBlock: EYOCIG_clean_linker_4, # of connection points: 2
#     Edge 11, Type (0, 0), BuildingBlock: EYOCIG_clean_linker_4, # of connection points: 2
#     Edge 12, Type (0, 0), BuildingBlock: EYOCIG_clean_linker_4, # of connection points: 2
#     Edge 13, Type (0, 0), BuildingBlock: EYOCIG_clean_linker_4, # of connection points: 2
#     Edge 14, Type (0, 0), BuildingBlock: EYOCIG_clean_linker_4, # of connection points: 2
#     Edge 15, Type (0, 0), BuildingBlock: EYOCIG_clean_linker_4, # of connection points: 2
#     Edge 16, Type (0, 0), BuildingBlock: EYOCIG_clean_linker_4, # of connection points: 2
#     Edge 17, Type (0, 0), BuildingBlock: EYOCIG_clean_linker_4, # of connection points: 2
#     Edge 18, Type (0, 0), BuildingBlock: EYOCIG_clean_linker_4, # of connection points: 2
#     Edge 19, Type (0, 0), BuildingBlock: EYOCIG_clean_linker_4, # of connection points: 2
#     Edge 20, Type (0, 0), BuildingBlock: EYOCIG_clean_linker_4, # of connection points: 2
#     Edge 21, Type (0, 0), BuildingBlock: EYOCIG_clean_linker_4, # of connection points: 2
#     Edge 22, Type (0, 0), BuildingBlock: EYOCIG_clean_linker_4, # of connection points: 2
#     Edge 23, Type (0, 0), BuildingBlock: EYOCIG_clean_linker_4, # of connection points: 2
# Relax obj value: 0.435
# Max RMSD: 0.247
# Mean RMSD: 0.247
data_MOF--net-tfs--node1-MIFKUJ_clean_sbu_0--edge1-EYOCIG_clean_linker_4
_symmetry_space_group_name_H-M    P1
_symmetry_Int_Tables_number       1
_symmetry_cell_setting            triclinic
loop_
_symmetry_equiv_pos_as_xyz
'x, y, z'
_cell_length_a     39.234229
_cell_length_b     39.240736
_cell_length_c     11.321545
_cell_angle_alpha  89.887326
_cell_angle_beta   90.086648
_cell_angle_gamma 120.09737
loop_
_atom_site_label
_atom_site_type_symbol
_atom_site_fract_x
_atom_site_fract_y
_atom_site_fract_z
_atom_type_partial_charge
Zn0 Zn 0.2199 0.4649 0.96876 0.0
Zn1 Zn 0.19406 0.35817 -0.02104 0.0
C2 C 0.30067 0.52302 0.01256 0.0
O3 O 0.28464 0.53073 0.10257 0.0
C4 C 0.1115 0.3 0.94656 0.0
O5 O 0.12495 0.28969 0.85556 0.0
O6 O 0.20601 0.5079 -0.01551 0.0
O7 O 0.19598 0.43639 0.81723 0.0
O8 O 0.20326 0.38351 0.81901 0.0
C9 C 0.21375 0.53281 0.90238 0.0
O10 O 0.22962 0.52994 0.80371 0.0
O11 O 0.27926 0.49421 0.94525 0.0
C12 C 0.20847 0.2943 0.04261 0.0
O13 O 0.18947 0.29221 0.14011 0.0
O14 O 0.21298 0.31905 0.96301 0.0
O15 O 0.22174 0.39074 0.12203 0.0
O16 O 0.20436 0.43663 0.12489 0.0
O17 O 0.1352 0.32836 0.01197 0.0
C18 C 0.19925 0.40962 0.76478 0.0
C19 C 0.21169 0.41242 0.17715 0.0
Zn20 Zn 0.75732 0.21914 0.96861 0.0
Zn21 Zn 0.83828 0.19306 -0.02194 0.0
C22 C 0.77946 0.29964 0.0103 0.0
O23 O 0.75704 0.28374 0.10325 0.0
C24 C 0.81374 0.11018 0.94813 0.0
O25 O 0.83859 0.12333 0.85948 0.0
O26 O 0.70013 0.20422 -0.01394 0.0
O27 O 0.76174 0.19438 0.81874 0.0
O28 O 0.82278 0.20395 0.81949 0.0
C29 C 0.68259 0.21154 0.90411 0.0
O30 O 0.70114 0.22744 0.80504 0.0
O31 O 0.78622 0.27826 0.94122 0.0
C32 C 0.91657 0.20697 0.03987 0.0
O33 O 0.89985 0.18848 0.13835 0.0
O34 O 0.8962 0.21134 0.96046 0.0
O35 O 0.83419 0.22017 0.12326 0.0
O36 O 0.77168 0.20605 0.12601 0.0
O37 O 0.80841 0.13408 0.01008 0.0
C38 C 0.79244 0.19952 0.7657 0.0
C39 C 0.803 0.21255 0.17821 0.0
Zn40 Zn 0.5389 0.7571 0.96851 0.0
Zn41 Zn 0.64929 0.83683 -0.01999 0.0
C42 C 0.48199 0.78033 -0.00457 0.0
O43 O 0.47757 0.76157 0.09533 0.0
C44 C 0.70904 0.81436 0.92955 0.0
O45 O 0.723 0.84297 0.85158 0.0
O46 O 0.49737 0.69975 -0.01347 0.0
O47 O 0.57422 0.76145 0.83323 0.0
O48 O 0.61866 0.82506 0.82727 0.0
C49 C 0.47292 0.68213 0.90371 0.0
O50 O 0.47589 0.70072 0.8044 0.0
O51 O 0.50847 0.78425 0.92323 0.0
C52 C 0.71301 0.91553 0.0486 0.0
O53 O 0.7153 0.89865 0.14609 0.0
O54 O 0.68838 0.89518 0.96898 0.0
O55 O 0.62237 0.82714 0.13789 0.0
O56 O 0.56158 0.7753 0.13076 0.0
O57 O 0.67854 0.80652 -0.01111 0.0
C58 C 0.59356 0.7935 0.77673 0.0
C59 C 0.59071 0.80174 0.18764 0.0
Zn60 Zn 0.78481 0.53874 0.9677 0.0
Zn61 Zn 0.81316 0.64654 -0.02218 0.0
C62 C 0.7041 0.48093 0.01602 0.0
O63 O 0.72046 0.47214 0.10303 0.0
C64 C 0.89526 0.70508 0.95275 0.0
O65 O 0.88207 0.71495 0.85992 0.0
O66 O 0.7982 0.49545 -0.01715 0.0
O67 O 0.80597 0.56549 0.81193 0.0
O68 O 0.80703 0.62282 0.81682 0.0
C69 C 0.79158 0.47135 0.89944 0.0
O70 O 0.77698 0.47509 0.79915 0.0
O71 O 0.72532 0.51026 0.95016 0.0
C72 C 0.79832 0.71006 0.03719 0.0
O73 O 0.81675 0.71216 0.13612 0.0
O74 O 0.7941 0.68523 0.95865 0.0
O75 O 0.78344 0.6123 0.11657 0.0
O76 O 0.80301 0.56822 0.12169 0.0
O77 O 0.87144 0.67663 0.01781 0.0
C78 C 0.8077 0.59516 0.76109 0.0
C79 C 0.79535 0.5923 0.17293 0.0
Zn80 Zn 0.24827 0.78525 0.96853 0.0
Zn81 Zn 0.16779 0.81129 -0.02203 0.0
C82 C 0.22589 0.70488 0.00556 0.0
O83 O 0.24715 0.72048 0.10081 0.0
C84 C 0.19258 0.8943 0.93912 0.0
O85 O 0.16585 0.88067 0.85546 0.0
O86 O 0.30546 0.80034 -0.01649 0.0
O87 O 0.24409 0.81355 0.82586 0.0
O88 O 0.18063 0.79564 0.82247 0.0
C89 C 0.322 0.79253 0.89999 0.0
O90 O 0.30236 0.77623 0.80274 0.0
O91 O 0.21993 0.72652 0.93468 0.0
C92 C 0.09022 0.79874 0.04339 0.0
O93 O 0.10764 0.81771 0.14054 0.0
O94 O 0.10993 0.79369 0.96359 0.0
O95 O 0.17316 0.78814 0.13014 0.0
O96 O 0.23302 0.79467 0.12903 0.0
O97 O 0.19894 0.87073 -0.00051 0.0
C98 C 0.21227 0.80321 0.77045 0.0
C99 C 0.20296 0.79083 0.18288 0.0
Zn100 Zn 0.46567 0.24741 0.96863 0.0
Zn101 Zn 0.35895 0.16726 -0.0218 0.0
C102 C 0.52333 0.22443 0.00887 0.0
O103 O 0.52981 0.24651 0.10249 0.0
C104 C 0.30062 0.192 0.94611 0.0
O105 O 0.28785 0.16616 0.86011 0.0
O106 O 0.50823 0.30439 -0.01453 0.0
O107 O 0.43529 0.24377 0.82171 0.0
O108 O 0.38609 0.18157 0.82058 0.0
C109 C 0.53234 0.3223 0.9022 0.0
O110 O 0.52892 0.30417 0.80187 0.0
O111 O 0.49546 0.21826 0.93888 0.0
C112 C 0.29463 0.08873 0.04096 0.0
O113 O 0.29335 0.10503 0.14069 0.0
O114 O 0.3189 0.10946 0.96102 0.0
O115 O 0.38911 0.17139 0.12611 0.0
O116 O 0.43933 0.23313 0.12732 0.0
O117 O 0.3304 0.19783 0.00649 0.0
C118 C 0.41132 0.21252 0.76757 0.0
C119 C 0.41405 0.20219 0.18023 0.0
C120 C 0.26307 0.23078 -0.00729 0.0
C121 C 0.28052 0.21333 0.97256 0.0
C122 C 0.24291 0.25168 0.01352 0.0
C123 C 0.2269 0.27076 0.02909 0.0
C124 C 0.03486 0.26144 -0.00995 0.0
C125 C 0.06989 0.27929 0.97123 0.0
C126 C 0.99369 0.24119 0.00982 0.0
C127 C 0.95856 0.22532 0.0255 0.0
C128 C 0.77571 0.0338 -0.00383 0.0
C129 C 0.79285 0.06872 -0.02468 0.0
C130 C 0.75514 0.99272 0.01807 0.0
C131 C 0.73634 0.95759 0.03459 0.0
C132 C 0.76543 0.75364 -0.00033 0.0
C133 C 0.7808 0.73421 0.01961 0.0
C134 C 0.74621 0.77514 -0.02582 0.0
C135 C 0.72949 0.79323 0.95309 0.0
C136 C 0.01298 0.7646 0.01678 0.0
C137 C 0.04817 0.78049 0.03123 0.0
C138 C 0.97177 0.74413 -0.00223 0.0
C139 C 0.93677 0.72598 -0.02138 0.0
C140 C 0.23124 0.97074 -0.01461 0.0
C141 C 0.21375 0.93582 0.96492 0.0
C142 C 0.25206 0.01175 0.00793 0.0
C143 C 0.27111 0.04679 0.02547 0.0
C144 C 0.20852 0.63218 0.95534 0.0
C145 C 0.21546 0.6654 0.97299 0.0
C146 C 0.20662 0.59561 0.93688 0.0
C147 C 0.20965 0.56674 0.92278 0.0
C148 C 0.57794 0.2061 0.95844 0.0
C149 C 0.55193 0.21342 -0.02381 0.0
C150 C 0.61252 0.20404 0.93968 0.0
C151 C 0.64448 0.20721 0.9253 0.0
C152 C 0.41025 0.61199 0.93937 0.0
C153 C 0.43902 0.64399 0.92444 0.0
C154 C 0.37365 0.57741 0.95968 0.0
C155 C 0.34033 0.55142 -0.02128 0.0
C156 C 0.7987 0.4086 0.93559 0.0
C157 C 0.79554 0.43733 0.91987 0.0
C158 C 0.79691 0.37219 0.95671 0.0
C159 C 0.78994 0.33905 -0.02369 0.0
C160 C 0.39224 0.79987 0.92856 0.0
C161 C 0.36022 0.79679 0.91743 0.0
C162 C 0.4269 0.79782 0.94445 0.0
C163 C 0.45308 0.79076 0.96178 0.0
C164 C 0.63114 0.42704 0.96152 0.0
C165 C 0.66444 0.45285 -0.01848 0.0
C166 C 0.59473 0.39248 0.93934 0.0
C167 C 0.56617 0.36045 0.92307 0.0
C168 C 0.20221 0.40934 0.53259 0.0
C169 C 0.20077 0.41005 0.63859 0.0
C170 C 0.20577 0.40928 0.40894 0.0
C171 C 0.20876 0.40997 0.30313 0.0
C172 C 0.79636 0.20429 0.53378 0.0
C173 C 0.79374 0.20197 0.63964 0.0
C174 C 0.80029 0.20801 0.41022 0.0
C175 C 0.80256 0.21032 0.30431 0.0
C176 C 0.58783 0.79605 0.54491 0.0
C177 C 0.5897 0.79383 0.65072 0.0
C178 C 0.58773 0.7991 0.42064 0.0
C179 C 0.58921 0.80041 0.31427 0.0
C180 C 0.80611 0.59706 0.52856 0.0
C181 C 0.80684 0.59585 0.63472 0.0
C182 C 0.80256 0.59698 0.40467 0.0
C183 C 0.79894 0.5956 0.29889 0.0
C184 C 0.20588 0.79351 0.41509 0.0
C185 C 0.20395 0.79221 0.30905 0.0
C186 C 0.20938 0.79705 0.53875 0.0
C187 C 0.21172 0.80015 0.64453 0.0
C188 C 0.41323 0.20895 0.5358 0.0
C189 C 0.4131 0.21153 0.6416 0.0
C190 C 0.41309 0.20509 0.41227 0.0
C191 C 0.4128 0.20286 0.30634 0.0
loop_
_geom_bond_atom_site_label_1
_geom_bond_atom_site_label_2
_geom_bond_distance
_geom_bond_site_symmetry_2
_ccdc_geom_bond_type
Zn0 O6 1.969 . S
Zn0 O7 1.965 1_554 S
Zn0 O11 2.024 1_554 S
Zn0 O16 1.969 . S
Zn1 O8 1.969 . S
Zn1 O14 1.969 . S
Zn1 O15 1.965 1_556 S
Zn1 O17 2.024 1_556 S
C2 O3 1.229 . S
C2 O11 1.058 1_554 S
O3 C2 1.229 . S
C4 O5 1.229 . S
C4 O17 1.058 1_556 S
O5 C4 1.229 . S
O6 Zn0 1.969 . S
O6 C9 1.267 1_554 S
O7 Zn0 1.965 1_556 S
O7 C18 1.260 . S
O8 Zn1 1.969 . S
O8 C18 1.258 . S
C9 O6 1.267 1_556 S
C9 O10 1.228 . S
O10 C9 1.228 . S
O11 Zn0 2.024 1_556 S
O11 C2 1.058 1_556 S
C12 O13 1.228 . S
C12 O14 1.267 1_554 S
O13 C12 1.228 . S
O14 Zn1 1.969 . S
O14 C12 1.267 1_556 S
O15 Zn1 1.965 1_554 S
O15 C19 1.260 . S
O16 Zn0 1.969 . S
O16 C19 1.258 . S
O17 Zn1 2.024 1_554 S
O17 C4 1.058 1_554 S
C18 O7 1.260 . S
C18 O8 1.258 . S
C19 O15 1.260 . S
C19 O16 1.258 . S
Zn20 O26 1.969 . S
Zn20 O27 1.965 1_554 S
Zn20 O31 2.024 1_554 S
Zn20 O36 1.969 . S
Zn21 O28 1.969 . S
Zn21 O34 1.969 . S
Zn21 O35 1.965 1_556 S
Zn21 O37 2.024 1_556 S
C22 O23 1.229 . S
C22 O31 1.058 1_554 S
O23 C22 1.229 . S
C24 O25 1.229 . S
C24 O37 1.058 1_556 S
O25 C24 1.229 . S
O26 Zn20 1.969 . S
O26 C29 1.267 1_554 S
O27 Zn20 1.965 1_556 S
O27 C38 1.260 . S
O28 Zn21 1.969 . S
O28 C38 1.258 . S
C29 O26 1.267 1_556 S
C29 O30 1.228 . S
O30 C29 1.228 . S
O31 Zn20 2.024 1_556 S
O31 C22 1.058 1_556 S
C32 O33 1.228 . S
C32 O34 1.267 1_554 S
O33 C32 1.228 . S
O34 Zn21 1.969 . S
O34 C32 1.267 1_556 S
O35 Zn21 1.965 1_554 S
O35 C39 1.260 . S
O36 Zn20 1.969 . S
O36 C39 1.258 . S
O37 Zn21 2.024 1_554 S
O37 C24 1.058 1_554 S
C38 O27 1.260 . S
C38 O28 1.258 . S
C39 O35 1.260 . S
C39 O36 1.258 . S
Zn40 O46 1.969 . S
Zn40 O47 1.965 1_554 S
Zn40 O51 2.024 1_554 S
Zn40 O56 1.969 . S
Zn41 O48 1.969 . S
Zn41 O54 1.969 . S
Zn41 O55 1.965 1_556 S
Zn41 O57 2.024 1_556 S
C42 O43 1.229 . S
C42 O51 1.058 1_554 S
O43 C42 1.229 . S
C44 O45 1.229 . S
C44 O57 1.058 1_556 S
O45 C44 1.229 . S
O46 Zn40 1.969 . S
O46 C49 1.267 1_554 S
O47 Zn40 1.965 1_556 S
O47 C58 1.260 . S
O48 Zn41 1.969 . S
O48 C58 1.258 . S
C49 O46 1.267 1_556 S
C49 O50 1.228 . S
O50 C49 1.228 . S
O51 Zn40 2.024 1_556 S
O51 C42 1.058 1_556 S
C52 O53 1.228 . S
C52 O54 1.267 1_554 S
O53 C52 1.228 . S
O54 Zn41 1.969 . S
O54 C52 1.267 1_556 S
O55 Zn41 1.965 1_554 S
O55 C59 1.260 . S
O56 Zn40 1.969 . S
O56 C59 1.258 . S
O57 Zn41 2.024 1_554 S
O57 C44 1.058 1_554 S
C58 O47 1.260 . S
C58 O48 1.258 . S
C59 O55 1.260 . S
C59 O56 1.258 . S
Zn60 O66 1.969 . S
Zn60 O67 1.965 1_554 S
Zn60 O71 2.024 1_554 S
Zn60 O76 1.969 . S
Zn61 O68 1.969 . S
Zn61 O74 1.969 . S
Zn61 O75 1.965 1_556 S
Zn61 O77 2.024 1_556 S
C62 O63 1.229 . S
C62 O71 1.058 1_554 S
O63 C62 1.229 . S
C64 O65 1.229 . S
C64 O77 1.058 1_556 S
O65 C64 1.229 . S
O66 Zn60 1.969 . S
O66 C69 1.267 1_554 S
O67 Zn60 1.965 1_556 S
O67 C78 1.260 . S
O68 Zn61 1.969 . S
O68 C78 1.258 . S
C69 O66 1.267 1_556 S
C69 O70 1.228 . S
O70 C69 1.228 . S
O71 Zn60 2.024 1_556 S
O71 C62 1.058 1_556 S
C72 O73 1.228 . S
C72 O74 1.267 1_554 S
O73 C72 1.228 . S
O74 Zn61 1.969 . S
O74 C72 1.267 1_556 S
O75 Zn61 1.965 1_554 S
O75 C79 1.260 . S
O76 Zn60 1.969 . S
O76 C79 1.258 . S
O77 Zn61 2.024 1_554 S
O77 C64 1.058 1_554 S
C78 O67 1.260 . S
C78 O68 1.258 . S
C79 O75 1.260 . S
C79 O76 1.258 . S
Zn80 O86 1.969 . S
Zn80 O87 1.965 1_554 S
Zn80 O91 2.024 1_554 S
Zn80 O96 1.969 . S
Zn81 O88 1.969 . S
Zn81 O94 1.969 . S
Zn81 O95 1.965 1_556 S
Zn81 O97 2.024 1_556 S
C82 O83 1.229 . S
C82 O91 1.058 1_554 S
O83 C82 1.229 . S
C84 O85 1.229 . S
C84 O97 1.058 1_556 S
O85 C84 1.229 . S
O86 Zn80 1.969 . S
O86 C89 1.267 1_554 S
O87 Zn80 1.965 1_556 S
O87 C98 1.260 . S
O88 Zn81 1.969 . S
O88 C98 1.258 . S
C89 O86 1.267 1_556 S
C89 O90 1.228 . S
O90 C89 1.228 . S
O91 Zn80 2.024 1_556 S
O91 C82 1.058 1_556 S
C92 O93 1.228 . S
C92 O94 1.267 1_554 S
O93 C92 1.228 . S
O94 Zn81 1.969 . S
O94 C92 1.267 1_556 S
O95 Zn81 1.965 1_554 S
O95 C99 1.260 . S
O96 Zn80 1.969 . S
O96 C99 1.258 . S
O97 Zn81 2.024 1_554 S
O97 C84 1.058 1_554 S
C98 O87 1.260 . S
C98 O88 1.258 . S
C99 O95 1.260 . S
C99 O96 1.258 . S
Zn100 O106 1.969 . S
Zn100 O107 1.965 1_554 S
Zn100 O111 2.024 1_554 S
Zn100 O116 1.969 . S
Zn101 O108 1.969 . S
Zn101 O114 1.969 . S
Zn101 O115 1.965 1_556 S
Zn101 O117 2.024 1_556 S
C102 O103 1.229 . S
C102 O111 1.058 1_554 S
O103 C102 1.229 . S
C104 O105 1.229 . S
C104 O117 1.058 1_556 S
O105 C104 1.229 . S
O106 Zn100 1.969 . S
O106 C109 1.267 1_554 S
O107 Zn100 1.965 1_556 S
O107 C118 1.260 . S
O108 Zn101 1.969 . S
O108 C118 1.258 . S
C109 O106 1.267 1_556 S
C109 O110 1.228 . S
O110 C109 1.228 . S
O111 Zn100 2.024 1_556 S
O111 C102 1.058 1_556 S
C112 O113 1.228 . S
C112 O114 1.267 1_554 S
O113 C112 1.228 . S
O114 Zn101 1.969 . S
O114 C112 1.267 1_556 S
O115 Zn101 1.965 1_554 S
O115 C119 1.260 . S
O116 Zn100 1.969 . S
O116 C119 1.258 . S
O117 Zn101 2.024 1_554 S
O117 C104 1.058 1_554 S
C118 O107 1.260 . S
C118 O108 1.258 . S
C119 O115 1.260 . S
C119 O116 1.258 . S
C120 C121 1.170 . S
C120 C122 1.380 . S
C121 C120 1.170 . S
C122 C120 1.380 . S
C122 C123 1.170 . S
C123 C122 1.170 . S
C124 C125 1.170 1_554 S
C124 C126 1.380 1_455 S
C125 C124 1.170 1_556 S
C126 C124 1.380 1_655 S
C126 C127 1.170 . S
C127 C126 1.170 . S
C128 C129 1.170 . S
C128 C130 1.380 1_545 S
C129 C128 1.170 . S
C130 C128 1.380 1_565 S
C130 C131 1.170 . S
C131 C130 1.170 . S
C132 C133 1.170 . S
C132 C134 1.380 . S
C133 C132 1.170 . S
C134 C132 1.380 . S
C134 C135 1.170 1_554 S
C135 C134 1.170 1_556 S
C136 C137 1.170 . S
C136 C138 1.380 1_455 S
C137 C136 1.170 . S
C138 C136 1.380 1_655 S
C138 C139 1.170 . S
C139 C138 1.170 . S
C140 C141 1.170 1_554 S
C140 C142 1.380 1_565 S
C141 C140 1.170 1_556 S
C142 C140 1.380 1_545 S
C142 C143 1.170 . S
C143 C142 1.170 . S
C144 C145 1.170 1_556 S
C144 C146 1.380 . S
C145 C144 1.170 1_554 S
C146 C144 1.380 . S
C146 C147 1.170 . S
C147 C146 1.170 . S
C148 C149 1.170 . S
C148 C150 1.380 . S
C149 C148 1.170 . S
C150 C148 1.380 . S
C150 C151 1.170 . S
C151 C150 1.170 . S
C152 C153 1.170 . S
C152 C154 1.380 . S
C153 C152 1.170 . S
C154 C152 1.380 . S
C154 C155 1.170 . S
C155 C154 1.170 . S
C156 C157 1.170 . S
C156 C158 1.380 . S
C157 C156 1.170 . S
C158 C156 1.380 . S
C158 C159 1.170 . S
C159 C158 1.170 . S
C160 C161 1.170 . S
C160 C162 1.380 . S
C161 C160 1.170 . S
C162 C160 1.380 . S
C162 C163 1.170 . S
C163 C162 1.170 . S
C164 C165 1.170 . S
C164 C166 1.380 . S
C165 C164 1.170 . S
C166 C164 1.380 . S
C166 C167 1.170 . S
C167 C166 1.170 . S
C168 C169 1.170 . S
C168 C170 1.380 . S
C169 C168 1.170 . S
C170 C168 1.380 . S
C170 C171 1.170 . S
C171 C170 1.170 . S
C172 C173 1.170 . S
C172 C174 1.380 . S
C173 C172 1.170 . S
C174 C172 1.380 . S
C174 C175 1.170 . S
C175 C174 1.170 . S
C176 C177 1.170 . S
C176 C178 1.380 . S
C177 C176 1.170 . S
C178 C176 1.380 . S
C178 C179 1.170 . S
C179 C178 1.170 . S
C180 C181 1.170 . S
C180 C182 1.380 . S
C181 C180 1.170 . S
C182 C180 1.380 . S
C182 C183 1.170 . S
C183 C182 1.170 . S
C184 C185 1.170 . S
C184 C186 1.380 . S
C185 C184 1.170 . S
C186 C184 1.380 . S
C186 C187 1.170 . S
C187 C186 1.170 . S
C188 C189 1.170 . S
C188 C190 1.380 . S
C189 C188 1.170 . S
C190 C188 1.380 . S
C190 C191 1.170 . S
C191 C190 1.170 . S
C121 C104 1.563 1_554 S
C123 C12 1.568 . S
C125 C4 1.555 . S
C127 C32 1.566 . S
C129 C24 1.555 1_554 S
C131 C52 1.570 . S
C133 C72 1.566 . S
C135 C44 1.556 . S
C137 C92 1.570 . S
C139 C64 1.552 1_554 S
C141 C84 1.560 . S
C143 C112 1.565 . S
C145 C82 1.569 . S
C147 C9 1.624 . S
C149 C102 1.608 1_556 S
C151 C29 1.651 . S
C153 C49 1.627 . S
C155 C2 1.563 1_556 S
C157 C69 1.628 . S
C159 C22 1.563 1_556 S
C161 C89 1.643 . S
C163 C42 1.579 1_556 S
C165 C62 1.599 1_556 S
C167 C109 1.654 . S
C169 C18 1.492 . S
C171 C19 1.502 . S
C173 C38 1.485 . S
C175 C39 1.493 . S
C177 C58 1.505 . S
C179 C59 1.479 . S
C181 C78 1.490 . S
C183 C79 1.503 . S
C185 C99 1.488 . S
C187 C98 1.490 . S
C189 C118 1.493 . S
C191 C119 1.485 . S
