# Generated by pormake.
# Topology dmp, (4)-cn, num edge types: 1
# Building blocks:
#     Node 0, Type 0, BuildingBlock: NAHDIM_clean_sbu_0, # of connection points: 4
#     Node 1, Type 0, BuildingBlock: NAHDIM_clean_sbu_0, # of connection points: 4
#     Node 2, Type 0, BuildingBlock: NAHDIM_clean_sbu_0, # of connection points: 4
#     Node 3, Type 0, BuildingBlock: NAHDIM_clean_sbu_0, # of connection points: 4
#     Edge 4, Type (0, 0), BuildingBlock: XUDNAN_clean_linker_2, # of connection points: 2
#     Edge 5, Type (0, 0), BuildingBlock: XUDNAN_clean_linker_2, # of connection points: 2
#     Edge 6, Type (0, 0), BuildingBlock: XUDNAN_clean_linker_2, # of connection points: 2
#     Edge 7, Type (0, 0), BuildingBlock: XUDNAN_clean_linker_2, # of connection points: 2
#     Edge 8, Type (0, 0), BuildingBlock: XUDNAN_clean_linker_2, # of connection points: 2
#     Edge 9, Type (0, 0), BuildingBlock: XUDNAN_clean_linker_2, # of connection points: 2
#     Edge 10, Type (0, 0), BuildingBlock: XUDNAN_clean_linker_2, # of connection points: 2
#     Edge 11, Type (0, 0), BuildingBlock: XUDNAN_clean_linker_2, # of connection points: 2
# Relax obj value: 0.247
# Max RMSD: 0.271
# Mean RMSD: 0.271
data_MOF--net-dmp--node1-NAHDIM_clean_sbu_0--edge1-XUDNAN_clean_linker_2
_symmetry_space_group_name_H-M    P1
_symmetry_Int_Tables_number       1
_symmetry_cell_setting            triclinic
loop_
_symmetry_equiv_pos_as_xyz
'x, y, z'
_cell_length_a     37.248298
_cell_length_b     17.234459
_cell_length_c     19.077809
_cell_angle_alpha  90.056381
_cell_angle_beta   90.092097
_cell_angle_gamma 95.4967
loop_
_atom_site_label
_atom_site_type_symbol
_atom_site_fract_x
_atom_site_fract_y
_atom_site_fract_z
_atom_type_partial_charge
C0 C 0.03117 0.27108 0.28446 0.0
O1 O 0.02366 0.26072 0.21762 0.0
O2 O 0.0777 0.14202 0.17018 0.0
Zn3 Zn 0.09899 0.21618 0.24473 0.0
O4 O 0.12596 0.31018 0.20095 0.0
C5 C 0.1574 0.21332 0.33871 0.0
O6 O 0.15274 0.28791 0.34027 0.0
O7 O 0.06124 0.25328 0.30787 0.0
C8 C 0.14978 0.30453 0.1541 0.0
O9 O 0.15521 0.2355 0.12926 0.0
C10 C 0.07074 0.16796 0.10978 0.0
O11 O 0.07614 0.24317 0.09771 0.0
O12 O 0.13592 0.16744 0.30244 0.0
C13 C 0.40516 0.64349 0.35196 0.0
O14 O 0.38799 0.6226 0.29377 0.0
O15 O 0.41728 0.84928 0.24681 0.0
Zn16 Zn 0.38224 0.79062 0.31203 0.0
O17 O 0.34262 0.73179 0.2564 0.0
C18 C 0.36701 0.93522 0.38332 0.0
O19 O 0.39966 0.96351 0.36507 0.0
O20 O 0.40667 0.7143 0.37166 0.0
C21 C 0.34028 0.72219 0.19042 0.0
O22 O 0.36616 0.75278 0.14946 0.0
C23 C 0.43927 0.81335 0.21124 0.0
O24 O 0.43981 0.73786 0.21976 0.0
O25 O 0.35651 0.86453 0.3698 0.0
C26 C 0.92842 0.60793 0.62758 0.0
O27 O 0.94431 0.60477 0.68891 0.0
O28 O 0.9355 0.78593 0.7396 0.0
Zn29 Zn 0.89213 0.72925 0.69333 0.0
O30 O 0.8601 0.66651 0.76177 0.0
C31 C 0.86282 0.8761 0.67652 0.0
O32 O 0.88527 0.89598 0.72807 0.0
O33 O 0.90596 0.65774 0.61755 0.0
C34 C 0.83942 0.69912 0.80318 0.0
O35 O 0.84152 0.77553 0.80609 0.0
C36 C 0.94391 0.77835 0.80362 0.0
O37 O 0.92521 0.72592 0.84218 0.0
O38 O 0.86204 0.80804 0.65059 0.0
C39 C 0.54419 0.33977 0.6705 0.0
O40 O 0.55508 0.38233 0.72504 0.0
O41 O 0.56312 0.15317 0.79543 0.0
Zn42 Zn 0.58937 0.23138 0.73179 0.0
O43 O 0.6153 0.31967 0.78723 0.0
C44 C 0.64091 0.12237 0.71028 0.0
O45 O 0.62781 0.0973 0.77086 0.0
O46 O 0.55512 0.27265 0.66291 0.0
C47 C 0.64132 0.30727 0.82758 0.0
O48 O 0.64954 0.23569 0.83698 0.0
C49 C 0.54976 0.16873 0.85435 0.0
O50 O 0.55088 0.24157 0.87526 0.0
O51 O 0.62762 0.17867 0.67995 0.0
H52 H 0.29442 0.89931 0.39253 0.0
H53 H 0.37794 0.09083 0.41776 0.0
H54 H 0.331 0.18211 0.4302 0.0
H55 H 0.24355 0.99222 0.28127 0.0
H56 H 0.20024 0.95056 0.31224 0.0
H57 H 0.23924 0.89821 0.32347 0.0
H58 H 0.22797 0.89017 0.45738 0.0
H59 H 0.18849 0.94194 0.44657 0.0
H60 H 0.22363 0.97816 0.50655 0.0
H61 H 0.27568 0.25422 0.42055 0.0
H62 H 0.21777 0.30126 0.38547 0.0
H63 H 0.17127 0.06227 0.36015 0.0
C64 C 0.30297 0.95998 0.40333 0.0
C65 C 0.33988 0.98787 0.40473 0.0
C66 C 0.34982 0.06807 0.4171 0.0
C67 C 0.32332 0.12027 0.42443 0.0
C68 C 0.28712 0.09117 0.41945 0.0
C69 C 0.27698 0.01266 0.40956 0.0
C70 C 0.23694 -0.00284 0.39553 0.0
C71 C 0.2296 0.95725 0.32389 0.0
C72 C 0.21815 0.94902 0.45508 0.0
C73 C 0.22633 0.07957 0.39553 0.0
C74 C 0.25537 0.13288 0.41137 0.0
C75 C 0.25262 0.21292 0.40939 0.0
C76 C 0.2196 0.23907 0.38933 0.0
C77 C 0.19002 0.1853 0.37017 0.0
C78 C 0.19333 0.10466 0.37499 0.0
H79 H 0.16374 0.43663 0.23101 0.0
H80 H 0.19296 0.32544 0.03807 0.0
H81 H 0.2401 0.43407 0.0166 0.0
H82 H 0.18431 0.64385 0.17531 0.0
H83 H 0.20266 0.671 0.2603 0.0
H84 H 0.16674 0.59356 0.2526 0.0
H85 H 0.20586 0.50025 0.31826 0.0
H86 H 0.24185 0.57696 0.32584 0.0
H87 H 0.25004 0.48591 0.28511 0.0
H88 H 0.28861 0.54653 0.02401 0.0
H89 H 0.33628 0.64724 0.0632 0.0
H90 H 0.27626 0.67907 0.25411 0.0
C91 C 0.17918 0.43643 0.18296 0.0
C92 C 0.17446 0.37338 0.13564 0.0
C93 C 0.19605 0.37372 0.07465 0.0
C94 C 0.22272 0.43529 0.06191 0.0
C95 C 0.22742 0.49562 0.11084 0.0
C96 C 0.20619 0.49647 0.17022 0.0
C97 C 0.21963 0.56152 0.21958 0.0
C98 C 0.19167 0.62101 0.22736 0.0
C99 C 0.22996 0.5292 0.29138 0.0
C100 C 0.25243 0.59571 0.17987 0.0
C101 C 0.25611 0.55829 0.11654 0.0
C102 C 0.28574 0.57696 0.07303 0.0
C103 C 0.31265 0.63417 0.09566 0.0
C104 C 0.30993 0.67063 0.1617 0.0
C105 C 0.27902 0.65223 0.20329 0.0
H106 H 0.70024 0.10765 0.78779 0.0
H107 H 0.65735 0.07645 0.57743 0.0
H108 H 0.71356 0.02098 0.54032 0.0
H109 H 0.79467 0.1628 0.73355 0.0
H110 H 0.81234 0.11401 0.80775 0.0
H111 H 0.77 0.15602 0.81485 0.0
H112 H 0.73873 0.02221 0.8545 0.0
H113 H 0.78088 0.98003 0.84759 0.0
H114 H 0.742 0.93768 0.79995 0.0
H115 H 0.77058 0.95103 0.5331 0.0
H116 H 0.82542 0.8831 0.55318 0.0
H117 H 0.83264 0.97387 0.76522 0.0
C118 C 0.70294 0.08985 0.73371 0.0
C119 C 0.67471 0.09509 0.68537 0.0
C120 C 0.67897 0.07245 0.61491 0.0
C121 C 0.7107 0.04116 0.59357 0.0
C122 C 0.73801 0.03554 0.64306 0.0
C123 C 0.73462 0.0608 0.71133 0.0
C124 C 0.76719 0.04692 0.75513 0.0
C125 C 0.78724 0.12456 0.77922 0.0
C126 C 0.75655 0.99353 0.81795 0.0
C127 C 0.78888 0.00658 0.70183 0.0
C128 C 0.77172 0.00042 0.6374 0.0
C129 C 0.78476 0.95743 0.58262 0.0
C130 C 0.8158 0.91898 0.59446 0.0
C131 C 0.83354 0.9248 0.66018 0.0
C132 C 0.82029 0.9706 0.71372 0.0
H133 H 0.83156 0.54135 0.82297 0.0
H134 H 0.77754 0.75068 0.85472 0.0
H135 H 0.7216 0.67009 0.88574 0.0
H136 H 0.76476 0.43707 0.7383 0.0
H137 H 0.77043 0.34347 0.77671 0.0
H138 H 0.80805 0.41659 0.77237 0.0
H139 H 0.81697 0.40767 0.90679 0.0
H140 H 0.77938 0.33369 0.91134 0.0
H141 H 0.77971 0.42024 0.96457 0.0
H142 H 0.66907 0.56914 0.88409 0.0
H143 H 0.62541 0.45409 0.86229 0.0
H144 H 0.71382 0.30969 0.84094 0.0
C145 C 0.80832 0.57018 0.83899 0.0
C146 C 0.80886 0.65213 0.83639 0.0
C147 C 0.77784 0.68794 0.85686 0.0
C148 C 0.7459 0.64262 0.8746 0.0
C149 C 0.74572 0.56174 0.87336 0.0
C150 C 0.7764 0.52578 0.8578 0.0
C151 C 0.76825 0.43817 0.85324 0.0
C152 C 0.77846 0.40709 0.78087 0.0
C153 C 0.7872 0.39756 0.91254 0.0
C154 C 0.72782 0.43098 0.86379 0.0
C155 C 0.71533 0.50278 0.87609 0.0
C156 C 0.67854 0.51221 0.87716 0.0
C157 C 0.65396 0.44683 0.86441 0.0
C158 C 0.66636 0.37315 0.85156 0.0
C159 C 0.70366 0.36494 0.85318 0.0
H160 H 0.03753 0.01937 0.12187 0.0
H161 H 0.07387 0.19651 0.9695 0.0
H162 H 0.05092 0.10913 0.87369 0.0
H163 H 0.05529 0.84846 0.01612 0.0
H164 H 0.01502 0.79165 0.04566 0.0
H165 H 0.03761 0.86468 0.10225 0.0
H166 H 0.97836 0.931 0.11476 0.0
H167 H 0.9556 0.85809 0.05859 0.0
H168 H 0.95548 0.95987 0.03704 0.0
H169 H 0.0216 0.00662 0.79522 0.0
H170 H 0.98342 0.8996 0.73911 0.0
H171 H 0.96413 0.78975 0.9422 0.0
C172 C 0.04112 0.03918 0.06826 0.0
C173 C 0.05765 0.11444 0.05295 0.0
C174 C 0.06125 0.13906 0.98232 0.0
C175 C 0.04854 0.08967 0.92755 0.0
C176 C 0.03216 0.01604 0.94433 0.0
C177 C 0.02816 0.99094 0.01291 0.0
C178 C 0.00689 0.9116 0.01677 0.0
C179 C 0.0301 0.85049 0.04699 0.0
C180 C 0.97202 0.91542 0.05928 0.0
C181 C -0.00107 0.89688 0.93974 0.0
C182 C 0.01432 0.9573 0.89888 0.0
C183 C 0.00961 0.95864 0.82653 0.0
C184 C 0.98786 0.89747 0.79516 0.0
C185 C 0.97076 0.83619 0.83622 0.0
C186 C 0.97704 0.83535 0.9093 0.0
H187 H 0.51286 0.17836 0.97825 0.0
H188 H 0.55491 0.01321 0.83501 0.0
H189 H 0.53345 0.90528 0.91346 0.0
H190 H 0.53436 0.08172 0.1384 0.0
H191 H 0.49361 0.10256 0.18249 0.0
H192 H 0.51288 0.16773 0.11582 0.0
H193 H 0.45239 0.15339 0.04748 0.0
H194 H 0.43289 0.08863 0.11415 0.0
H195 H 0.43238 0.05749 0.0239 0.0
H196 H 0.50823 0.8154 0.00737 0.0
H197 H 0.47671 0.74812 0.10699 0.0
H198 H 0.4496 0.97085 0.1878 0.0
C199 C 0.51756 0.11952 0.96342 0.0
C200 C 0.53562 0.10429 0.9006 0.0
C201 C 0.54107 0.02638 0.88283 0.0
C202 C 0.52913 0.96462 0.92717 0.0
C203 C 0.51165 0.98165 0.98889 0.0
C204 C 0.50557 0.057 0.00684 0.0
C205 C 0.48518 0.05893 0.07531 0.0
C206 C 0.50787 0.10549 0.13131 0.0
C207 C 0.44853 0.09151 0.06453 0.0
C208 C 0.4806 0.97287 0.09269 0.0
C209 C 0.49641 0.92945 0.04252 0.0
C210 C 0.49571 0.84868 0.04705 0.0
C211 C 0.47785 0.81105 0.10395 0.0
C212 C 0.46068 0.85423 0.15507 0.0
C213 C 0.46245 0.93626 0.14951 0.0
H214 H 0.98302 0.51204 0.62142 0.0
H215 H 0.8911 0.58162 0.50507 0.0
H216 H 0.9043 0.49319 0.40877 0.0
H217 H 0.04093 0.50645 0.47617 0.0
H218 H 0.06249 0.42329 0.50623 0.0
H219 H 0.04389 0.48664 0.56867 0.0
H220 H 0.00479 0.36844 0.62138 0.0
H221 H 0.02323 0.3047 0.55881 0.0
H222 H 0.97509 0.30761 0.56503 0.0
H223 H 0.9293 0.40328 0.32249 0.0
H224 H 0.96616 0.32281 0.2499 0.0
H225 H 0.04207 0.31294 0.422 0.0
C226 C 0.9654 0.50794 0.57608 0.0
C227 C 0.93598 0.55352 0.57082 0.0
C228 C 0.91384 0.54731 0.5102 0.0
C229 C 0.92099 0.49694 0.45537 0.0
C230 C 0.95035 0.45322 0.46197 0.0
C231 C 0.97228 0.45833 0.52065 0.0
C232 C 0.00347 0.40884 0.51266 0.0
C233 C 0.03983 0.45933 0.51611 0.0
C234 C 0.00151 0.34352 0.56774 0.0
C235 C -0.00398 0.37638 0.43978 0.0
C236 C 0.96501 0.4019 0.4118 0.0
C237 C 0.95348 0.38235 0.34399 0.0
C238 C 0.9746 0.33663 0.30318 0.0
C239 C 0.00697 0.31152 0.33024 0.0
C240 C 0.01734 0.33068 0.39991 0.0
H241 H 0.44276 0.66541 0.47568 0.0
H242 H 0.40796 0.48963 0.32022 0.0
H243 H 0.43842 0.39215 0.38646 0.0
H244 H 0.53 0.60238 0.50575 0.0
H245 H 0.52996 0.62213 0.59855 0.0
H246 H 0.50458 0.67789 0.53991 0.0
H247 H 0.44659 0.63969 0.61179 0.0
H248 H 0.4718 0.58377 0.67068 0.0
H249 H 0.43238 0.53812 0.62681 0.0
H250 H 0.474 0.31466 0.46723 0.0
H251 H 0.51208 0.262 0.55821 0.0
H252 H 0.52311 0.48759 0.66183 0.0
C253 C 0.44142 0.60637 0.4557 0.0
C254 C 0.42298 0.58519 0.39275 0.0
C255 C 0.42191 0.5073 0.36833 0.0
C256 C 0.4391 0.45141 0.40558 0.0
C257 C 0.45714 0.47425 0.46725 0.0
C258 C 0.45837 0.54974 0.4923 0.0
C259 C 0.48001 0.5592 0.55952 0.0
C260 C 0.5131 0.61893 0.55034 0.0
C261 C 0.45627 0.5815 0.62082 0.0
C262 C 0.49097 0.47738 0.56796 0.0
C263 C 0.47746 0.4293 0.51422 0.0
C264 C 0.48461 0.3516 0.50982 0.0
C265 C 0.50629 0.32228 0.56169 0.0
C266 C 0.52049 0.37059 0.61723 0.0
C267 C 0.51248 0.44902 0.62035 0.0
loop_
_geom_bond_atom_site_label_1
_geom_bond_atom_site_label_2
_geom_bond_distance
_geom_bond_site_symmetry_2
_ccdc_geom_bond_type
C0 O1 1.160 . S
C0 O7 1.185 . S
O1 C0 1.160 . S
O2 Zn3 1.899 . S
O2 C10 1.284 . S
Zn3 O2 1.899 . S
Zn3 O4 2.032 . S
Zn3 O7 2.086 . S
Zn3 O12 1.977 . S
O4 Zn3 2.032 . S
O4 C8 1.278 . S
C5 O6 1.203 . S
C5 O12 1.267 . S
O6 C5 1.203 . S
O7 C0 1.185 . S
O7 Zn3 2.086 . S
C8 O4 1.278 . S
C8 O9 1.211 . S
O9 C8 1.211 . S
C10 O2 1.284 . S
C10 O11 1.273 . S
O11 C10 1.273 . S
O12 Zn3 1.977 . S
O12 C5 1.267 . S
C13 O14 1.160 . S
C13 O20 1.185 . S
O14 C13 1.160 . S
O15 Zn16 1.899 . S
O15 C23 1.284 . S
Zn16 O15 1.899 . S
Zn16 O17 2.032 . S
Zn16 O20 2.086 . S
Zn16 O25 1.977 . S
O17 Zn16 2.032 . S
O17 C21 1.278 . S
C18 O19 1.203 . S
C18 O25 1.267 . S
O19 C18 1.203 . S
O20 C13 1.185 . S
O20 Zn16 2.086 . S
C21 O17 1.278 . S
C21 O22 1.211 . S
O22 C21 1.211 . S
C23 O15 1.284 . S
C23 O24 1.273 . S
O24 C23 1.273 . S
O25 Zn16 1.977 . S
O25 C18 1.267 . S
C26 O27 1.160 . S
C26 O33 1.185 . S
O27 C26 1.160 . S
O28 Zn29 1.899 . S
O28 C36 1.284 . S
Zn29 O28 1.899 . S
Zn29 O30 2.032 . S
Zn29 O33 2.086 . S
Zn29 O38 1.977 . S
O30 Zn29 2.032 . S
O30 C34 1.278 . S
C31 O32 1.203 . S
C31 O38 1.267 . S
O32 C31 1.203 . S
O33 C26 1.185 . S
O33 Zn29 2.086 . S
C34 O30 1.278 . S
C34 O35 1.211 . S
O35 C34 1.211 . S
C36 O28 1.284 . S
C36 O37 1.273 . S
O37 C36 1.273 . S
O38 Zn29 1.977 . S
O38 C31 1.267 . S
C39 O40 1.160 . S
C39 O46 1.185 . S
O40 C39 1.160 . S
O41 Zn42 1.899 . S
O41 C49 1.284 . S
Zn42 O41 1.899 . S
Zn42 O43 2.032 . S
Zn42 O46 2.086 . S
Zn42 O51 1.977 . S
O43 Zn42 2.032 . S
O43 C47 1.278 . S
C44 O45 1.203 . S
C44 O51 1.267 . S
O45 C44 1.203 . S
O46 C39 1.185 . S
O46 Zn42 2.086 . S
C47 O43 1.278 . S
C47 O48 1.211 . S
O48 C47 1.211 . S
C49 O41 1.284 . S
C49 O50 1.273 . S
O50 C49 1.273 . S
O51 Zn42 1.977 . S
O51 C44 1.267 . S
H52 C64 0.930 . S
H53 C66 0.930 . S
H54 C67 0.930 . S
H55 C71 0.959 . S
H56 C71 0.959 . S
H57 C71 0.961 . S
H58 C72 0.960 1_565 S
H59 C72 0.961 . S
H60 C72 0.959 . S
H61 C75 0.929 . S
H62 C76 0.931 . S
H63 C78 0.930 . S
C64 H52 0.930 . S
C64 C65 1.399 . S
C64 C69 1.399 . S
C65 C64 1.399 . S
C65 C66 1.376 . S
C66 H53 0.930 . S
C66 C65 1.376 . S
C66 C67 1.388 1_565 S
C67 H54 0.930 . S
C67 C66 1.388 1_545 S
C67 C68 1.390 . S
C68 C67 1.390 . S
C68 C69 1.394 1_545 S
C68 C74 1.465 . S
C69 C64 1.399 . S
C69 C68 1.394 1_565 S
C69 C70 1.516 . S
C70 C69 1.516 . S
C70 C71 1.502 . S
C70 C72 1.561 1_565 S
C70 C73 1.526 1_565 S
C71 H55 0.959 . S
C71 H56 0.959 . S
C71 H57 0.961 . S
C71 C70 1.502 . S
C72 H58 0.960 1_545 S
C72 H59 0.961 . S
C72 H60 0.959 . S
C72 C70 1.561 1_545 S
C73 C70 1.526 1_545 S
C73 C74 1.396 . S
C73 C78 1.390 . S
C74 C68 1.465 . S
C74 C73 1.396 . S
C74 C75 1.399 . S
C75 H61 0.929 . S
C75 C74 1.399 . S
C75 C76 1.385 . S
C76 H62 0.931 . S
C76 C75 1.385 . S
C76 C77 1.389 . S
C77 C76 1.389 . S
C77 C78 1.387 . S
C78 H63 0.930 . S
C78 C73 1.390 . S
C78 C77 1.387 . S
H79 C91 0.930 . S
H80 C93 0.930 . S
H81 C94 0.930 . S
H82 C98 0.959 . S
H83 C98 0.959 . S
H84 C98 0.961 . S
H85 C99 0.960 . S
H86 C99 0.961 . S
H87 C99 0.959 . S
H88 C102 0.929 . S
H89 C103 0.931 . S
H90 C105 0.930 . S
C91 H79 0.930 . S
C91 C92 1.399 . S
C91 C96 1.399 . S
C92 C91 1.399 . S
C92 C93 1.376 . S
C93 H80 0.930 . S
C93 C92 1.376 . S
C93 C94 1.388 . S
C94 H81 0.930 . S
C94 C93 1.388 . S
C94 C95 1.390 . S
C95 C94 1.390 . S
C95 C96 1.394 . S
C95 C101 1.465 . S
C96 C91 1.399 . S
C96 C95 1.394 . S
C96 C97 1.516 . S
C97 C96 1.516 . S
C97 C98 1.502 . S
C97 C99 1.561 . S
C97 C100 1.526 . S
C98 H82 0.959 . S
C98 H83 0.959 . S
C98 H84 0.961 . S
C98 C97 1.502 . S
C99 H85 0.960 . S
C99 H86 0.961 . S
C99 H87 0.959 . S
C99 C97 1.561 . S
C100 C97 1.526 . S
C100 C101 1.396 . S
C100 C105 1.390 . S
C101 C95 1.465 . S
C101 C100 1.396 . S
C101 C102 1.399 . S
C102 H88 0.929 . S
C102 C101 1.399 . S
C102 C103 1.385 . S
C103 H89 0.931 . S
C103 C102 1.385 . S
C103 C104 1.389 . S
C104 C103 1.389 . S
C104 C105 1.387 . S
C105 H90 0.930 . S
C105 C100 1.390 . S
C105 C104 1.387 . S
H106 C118 0.930 . S
H107 C120 0.930 . S
H108 C121 0.930 . S
H109 C125 0.959 . S
H110 C125 0.959 . S
H111 C125 0.961 . S
H112 C126 0.960 . S
H113 C126 0.961 . S
H114 C126 0.959 . S
H115 C129 0.929 . S
H116 C130 0.931 . S
H117 C132 0.930 . S
C118 H106 0.930 . S
C118 C119 1.399 . S
C118 C123 1.399 . S
C119 C118 1.399 . S
C119 C120 1.376 . S
C120 H107 0.930 . S
C120 C119 1.376 . S
C120 C121 1.388 . S
C121 H108 0.930 . S
C121 C120 1.388 . S
C121 C122 1.390 . S
C122 C121 1.390 . S
C122 C123 1.394 . S
C122 C128 1.465 1_545 S
C123 C118 1.399 . S
C123 C122 1.394 . S
C123 C124 1.514 1_545 S
C124 C123 1.514 1_565 S
C124 C125 1.498 1_565 S
C124 C126 1.566 . S
C124 C127 1.528 . S
C125 H109 0.959 . S
C125 H110 0.959 . S
C125 H111 0.961 . S
C125 C124 1.498 1_545 S
C126 H112 0.960 . S
C126 H113 0.961 . S
C126 H114 0.959 . S
C126 C124 1.566 . S
C127 C124 1.528 . S
C127 C128 1.396 . S
C127 C132 1.390 . S
C128 C122 1.465 1_565 S
C128 C127 1.396 . S
C128 C129 1.399 . S
C129 H115 0.929 . S
C129 C128 1.399 . S
C129 C130 1.385 . S
C130 H116 0.931 . S
C130 C129 1.385 . S
C130 C131 1.389 . S
C131 C130 1.389 . S
C131 C132 1.387 . S
C132 H117 0.930 . S
C132 C127 1.390 . S
C132 C131 1.387 . S
H133 C145 0.930 . S
H134 C147 0.930 . S
H135 C148 0.930 . S
H136 C152 0.959 . S
H137 C152 0.959 . S
H138 C152 0.961 . S
H139 C153 0.960 . S
H140 C153 0.961 . S
H141 C153 0.959 . S
H142 C156 0.929 . S
H143 C157 0.931 . S
H144 C159 0.930 . S
C145 H133 0.930 . S
C145 C146 1.399 . S
C145 C150 1.399 . S
C146 C145 1.399 . S
C146 C147 1.376 . S
C147 H134 0.930 . S
C147 C146 1.376 . S
C147 C148 1.388 . S
C148 H135 0.930 . S
C148 C147 1.388 . S
C148 C149 1.390 . S
C149 C148 1.390 . S
C149 C150 1.394 . S
C149 C155 1.465 . S
C150 C145 1.399 . S
C150 C149 1.394 . S
C150 C151 1.516 . S
C151 C150 1.516 . S
C151 C152 1.502 . S
C151 C153 1.561 . S
C151 C154 1.526 . S
C152 H136 0.959 . S
C152 H137 0.959 . S
C152 H138 0.961 . S
C152 C151 1.502 . S
C153 H139 0.960 . S
C153 H140 0.961 . S
C153 H141 0.959 . S
C153 C151 1.561 . S
C154 C151 1.526 . S
C154 C155 1.396 . S
C154 C159 1.390 . S
C155 C149 1.465 . S
C155 C154 1.396 . S
C155 C156 1.399 . S
C156 H142 0.929 . S
C156 C155 1.399 . S
C156 C157 1.385 . S
C157 H143 0.931 . S
C157 C156 1.385 . S
C157 C158 1.389 . S
C158 C157 1.389 . S
C158 C159 1.387 . S
C159 H144 0.930 . S
C159 C154 1.390 . S
C159 C158 1.387 . S
H160 C172 0.930 . S
H161 C174 0.930 . S
H162 C175 0.930 1_566 S
H163 C179 0.959 1_565 S
H164 C179 0.959 . S
H165 C179 0.961 . S
H166 C180 0.960 . S
H167 C180 0.961 . S
H168 C180 0.959 . S
H169 C183 0.929 . S
H170 C184 0.931 . S
H171 C186 0.930 . S
C172 H160 0.930 . S
C172 C173 1.399 . S
C172 C177 1.399 . S
C173 C172 1.399 . S
C173 C174 1.376 . S
C174 H161 0.930 . S
C174 C173 1.376 . S
C174 C175 1.388 . S
C175 H162 0.930 1_544 S
C175 C174 1.388 . S
C175 C176 1.390 . S
C176 C175 1.390 . S
C176 C177 1.394 . S
C176 C182 1.465 1_544 S
C177 C172 1.399 . S
C177 C176 1.394 . S
C177 C178 1.516 1_455 S
C178 C177 1.516 1_655 S
C178 C179 1.502 . S
C178 C180 1.561 1_554 S
C178 C181 1.526 1_544 S
C179 H163 0.959 1_545 S
C179 H164 0.959 . S
C179 H165 0.961 . S
C179 C178 1.502 . S
C180 H166 0.960 . S
C180 H167 0.961 . S
C180 H168 0.959 . S
C180 C178 1.561 1_556 S
C181 C178 1.526 1_566 S
C181 C182 1.396 1_655 S
C181 C186 1.390 . S
C182 C176 1.465 1_566 S
C182 C181 1.396 1_455 S
C182 C183 1.399 . S
C183 H169 0.929 . S
C183 C182 1.399 . S
C183 C184 1.385 1_455 S
C184 H170 0.931 . S
C184 C183 1.385 1_655 S
C184 C185 1.389 . S
C185 C184 1.389 . S
C185 C186 1.387 . S
C186 H171 0.930 . S
C186 C181 1.390 . S
C186 C185 1.387 . S
H187 C199 0.930 . S
H188 C201 0.930 . S
H189 C202 0.930 . S
H190 C206 0.959 . S
H191 C206 0.959 . S
H192 C206 0.961 1_545 S
H193 C207 0.960 . S
H194 C207 0.961 . S
H195 C207 0.959 . S
H196 C210 0.929 . S
H197 C211 0.931 . S
H198 C213 0.930 . S
C199 H187 0.930 . S
C199 C200 1.399 . S
C199 C204 1.399 . S
C200 C199 1.399 . S
C200 C201 1.376 . S
C201 H188 0.930 . S
C201 C200 1.376 . S
C201 C202 1.388 . S
C202 H189 0.930 . S
C202 C201 1.388 . S
C202 C203 1.390 . S
C203 C202 1.390 . S
C203 C204 1.394 . S
C203 C209 1.465 1_545 S
C204 C199 1.399 . S
C204 C203 1.394 . S
C204 C205 1.516 1_556 S
C205 C204 1.516 1_554 S
C205 C206 1.502 1_545 S
C205 C207 1.561 . S
C205 C208 1.526 1_545 S
C206 H190 0.959 . S
C206 H191 0.959 . S
C206 H192 0.961 1_565 S
C206 C205 1.502 1_565 S
C207 H193 0.960 . S
C207 H194 0.961 . S
C207 H195 0.959 . S
C207 C205 1.561 . S
C208 C205 1.526 1_565 S
C208 C209 1.396 1_554 S
C208 C213 1.390 . S
C209 C203 1.465 1_565 S
C209 C208 1.396 1_556 S
C209 C210 1.399 . S
C210 H196 0.929 . S
C210 C209 1.399 . S
C210 C211 1.385 1_556 S
C211 H197 0.931 . S
C211 C210 1.385 1_554 S
C211 C212 1.389 . S
C212 C211 1.389 . S
C212 C213 1.387 . S
C213 H198 0.930 . S
C213 C208 1.390 . S
C213 C212 1.387 . S
H214 C226 0.930 . S
H215 C228 0.930 . S
H216 C229 0.930 . S
H217 C233 0.959 . S
H218 C233 0.959 . S
H219 C233 0.961 . S
H220 C234 0.960 . S
H221 C234 0.961 . S
H222 C234 0.959 . S
H223 C237 0.929 1_655 S
H224 C238 0.931 . S
H225 C240 0.930 . S
C226 H214 0.930 . S
C226 C227 1.399 . S
C226 C231 1.399 . S
C227 C226 1.399 . S
C227 C228 1.376 . S
C228 H215 0.930 . S
C228 C227 1.376 . S
C228 C229 1.388 . S
C229 H216 0.930 . S
C229 C228 1.388 . S
C229 C230 1.390 . S
C230 C229 1.390 . S
C230 C231 1.394 . S
C230 C236 1.465 1_655 S
C231 C226 1.399 . S
C231 C230 1.394 . S
C231 C232 1.516 1_655 S
C232 C231 1.516 1_455 S
C232 C233 1.502 . S
C232 C234 1.561 1_455 S
C232 C235 1.526 . S
C233 H217 0.959 . S
C233 H218 0.959 . S
C233 H219 0.961 . S
C233 C232 1.502 . S
C234 H220 0.960 . S
C234 H221 0.961 . S
C234 H222 0.959 . S
C234 C232 1.561 1_655 S
C235 C232 1.526 . S
C235 C236 1.396 . S
C235 C240 1.390 . S
C236 C230 1.465 1_455 S
C236 C235 1.396 . S
C236 C237 1.399 . S
C237 H223 0.929 1_455 S
C237 C236 1.399 . S
C237 C238 1.385 . S
C238 H224 0.931 . S
C238 C237 1.385 . S
C238 C239 1.389 . S
C239 C238 1.389 . S
C239 C240 1.387 . S
C240 H225 0.930 . S
C240 C235 1.390 . S
C240 C239 1.387 . S
H241 C253 0.930 . S
H242 C255 0.930 . S
H243 C256 0.930 . S
H244 C260 0.959 . S
H245 C260 0.959 . S
H246 C260 0.961 . S
H247 C261 0.960 . S
H248 C261 0.961 . S
H249 C261 0.959 . S
H250 C264 0.929 . S
H251 C265 0.931 . S
H252 C267 0.930 . S
C253 H241 0.930 . S
C253 C254 1.399 . S
C253 C258 1.399 . S
C254 C253 1.399 . S
C254 C255 1.376 . S
C255 H242 0.930 . S
C255 C254 1.376 . S
C255 C256 1.388 . S
C256 H243 0.930 . S
C256 C255 1.388 . S
C256 C257 1.390 . S
C257 C256 1.390 . S
C257 C258 1.394 . S
C257 C263 1.465 . S
C258 C253 1.399 . S
C258 C257 1.394 . S
C258 C259 1.516 . S
C259 C258 1.516 . S
C259 C260 1.502 . S
C259 C261 1.561 . S
C259 C262 1.526 . S
C260 H244 0.959 . S
C260 H245 0.959 . S
C260 H246 0.961 . S
C260 C259 1.502 . S
C261 H247 0.960 . S
C261 H248 0.961 . S
C261 H249 0.959 . S
C261 C259 1.561 . S
C262 C259 1.526 . S
C262 C263 1.396 . S
C262 C267 1.390 . S
C263 C257 1.465 . S
C263 C262 1.396 . S
C263 C264 1.399 . S
C264 H250 0.929 . S
C264 C263 1.399 . S
C264 C265 1.385 . S
C265 H251 0.931 . S
C265 C264 1.385 . S
C265 C266 1.389 . S
C266 C265 1.389 . S
C266 C267 1.387 . S
C267 H252 0.930 . S
C267 C262 1.390 . S
C267 C266 1.387 . S
C65 C18 0.859 . S
C77 C5 0.796 . S
C92 C8 0.680 . S
C104 C21 0.773 . S
C119 C44 0.953 . S
C131 C31 0.935 . S
C146 C34 0.611 . S
C158 C47 0.690 . S
C173 C10 1.566 . S
C185 C36 1.583 . S
C200 C49 1.581 . S
C212 C23 1.569 . S
C227 C26 1.573 . S
C239 C0 1.503 . S
C254 C13 1.530 . S
C266 C39 1.558 . S
