# Generated by pormake.
# Topology umo, (4)-cn, num edge types: 1
# Building blocks:
#     Node 0, Type 0, BuildingBlock: MUDLON_clean_sbu_0, # of connection points: 4
#     Node 1, Type 0, BuildingBlock: MUDLON_clean_sbu_0, # of connection points: 4
#     Node 2, Type 0, BuildingBlock: MUDLON_clean_sbu_0, # of connection points: 4
#     Node 3, Type 0, BuildingBlock: MUDLON_clean_sbu_0, # of connection points: 4
#     Node 4, Type 0, BuildingBlock: MUDLON_clean_sbu_0, # of connection points: 4
#     Node 5, Type 0, BuildingBlock: MUDLON_clean_sbu_0, # of connection points: 4
#     Node 6, Type 0, BuildingBlock: MUDLON_clean_sbu_0, # of connection points: 4
#     Node 7, Type 0, BuildingBlock: MUDLON_clean_sbu_0, # of connection points: 4
#     Node 8, Type 0, BuildingBlock: MUDLON_clean_sbu_0, # of connection points: 4
#     Node 9, Type 0, BuildingBlock: MUDLON_clean_sbu_0, # of connection points: 4
#     Node 10, Type 0, BuildingBlock: MUDLON_clean_sbu_0, # of connection points: 4
#     Node 11, Type 0, BuildingBlock: MUDLON_clean_sbu_0, # of connection points: 4
#     Edge 12, Type (0, 0), None
#     Edge 13, Type (0, 0), None
#     Edge 14, Type (0, 0), None
#     Edge 15, Type (0, 0), None
#     Edge 16, Type (0, 0), None
#     Edge 17, Type (0, 0), None
#     Edge 18, Type (0, 0), None
#     Edge 19, Type (0, 0), None
#     Edge 20, Type (0, 0), None
#     Edge 21, Type (0, 0), None
#     Edge 22, Type (0, 0), None
#     Edge 23, Type (0, 0), None
#     Edge 24, Type (0, 0), None
#     Edge 25, Type (0, 0), None
#     Edge 26, Type (0, 0), None
#     Edge 27, Type (0, 0), None
#     Edge 28, Type (0, 0), None
#     Edge 29, Type (0, 0), None
#     Edge 30, Type (0, 0), None
#     Edge 31, Type (0, 0), None
#     Edge 32, Type (0, 0), None
#     Edge 33, Type (0, 0), None
#     Edge 34, Type (0, 0), None
#     Edge 35, Type (0, 0), None
# Relax obj value: 0.142
# Max RMSD: 0.183
# Mean RMSD: 0.183
data_MOF--net-umo--node1-MUDLON_clean_sbu_0--edge1-none
_symmetry_space_group_name_H-M    P1
_symmetry_Int_Tables_number       1
_symmetry_cell_setting            triclinic
loop_
_symmetry_equiv_pos_as_xyz
'x, y, z'
_cell_length_a     23.25674
_cell_length_b     23.258331
_cell_length_c     18.614005
_cell_angle_alpha  89.99998
_cell_angle_beta   89.999998
_cell_angle_gamma 120.00291
loop_
_atom_site_label
_atom_site_type_symbol
_atom_site_fract_x
_atom_site_fract_y
_atom_site_fract_z
_atom_type_partial_charge
Mg0 Mg 0.17722 0.56493 0.40622 0.0
C1 C 0.1479 0.5691 0.5598 0.0
O2 O 0.12934 0.60916 0.53241 0.0
C3 C 0.24684 0.5319 0.28066 0.0
O4 O 0.2009 0.5315 0.23931 0.0
C5 C 0.05484 0.55546 0.33301 0.0
O6 O 0.095 0.61784 0.31595 0.0
O7 O 0.077 0.52291 0.36609 0.0
O8 O 0.16729 0.53844 0.51855 0.0
O9 O 0.23384 0.67118 0.41795 0.0
C10 C 0.22518 0.71955 0.43369 0.0
O11 O 0.16556 0.71226 0.43786 0.0
O12 O 0.24511 0.54009 0.34827 0.0
Mg13 Mg 0.61614 0.17529 0.5729 0.0
C14 C 0.58265 0.14595 0.72648 0.0
O15 O 0.52403 0.12739 0.69909 0.0
C16 C 0.71881 0.24491 0.44733 0.0
O17 O 0.67327 0.19895 0.40599 0.0
C18 C 0.50322 0.0529 0.4997 0.0
O19 O 0.48097 0.09303 0.48267 0.0
O20 O 0.55795 0.07507 0.53276 0.0
O21 O 0.6327 0.16534 0.68522 0.0
O22 O 0.56651 0.2319 0.58464 0.0
C23 C 0.50948 0.22324 0.60038 0.0
O24 O 0.45714 0.16362 0.60456 0.0
O25 O 0.70887 0.24317 0.51494 0.0
Mg26 Mg 0.44478 0.61424 0.73956 0.0
C27 C 0.44063 0.58075 0.89314 0.0
O28 O 0.40056 0.52214 0.86575 0.0
C29 C 0.47782 0.7169 0.614 0.0
O30 O 0.47822 0.67136 0.57265 0.0
C31 C 0.45423 0.50133 0.66634 0.0
O32 O 0.39184 0.4791 0.6493 0.0
O33 O 0.48679 0.55604 0.69942 0.0
O34 O 0.47128 0.6308 0.85189 0.0
O35 O 0.33852 0.56461 0.7513 0.0
C36 C 0.29015 0.50759 0.76704 0.0
O37 O 0.29743 0.45525 0.77122 0.0
O38 O 0.46963 0.70697 0.68161 0.0
Mg39 Mg 0.83441 0.44283 0.90622 0.0
C40 C 0.86374 0.43867 0.0598 0.0
O41 O 0.8823 0.39861 0.03241 0.0
C42 C 0.76479 0.47587 0.78066 0.0
O43 O 0.81074 0.47627 0.73931 0.0
C44 C 0.95679 0.4523 0.83301 0.0
O45 O 0.91663 0.38992 0.81595 0.0
O46 O 0.93463 0.48486 0.86609 0.0
O47 O 0.84435 0.46932 0.01855 0.0
O48 O 0.77779 0.33658 0.91795 0.0
C49 C 0.78645 0.28822 0.93369 0.0
O50 O 0.84608 0.29551 0.93786 0.0
O51 O 0.76653 0.46767 0.84827 0.0
Mg52 Mg 0.39549 0.83248 0.0729 0.0
C53 C 0.42898 0.86182 0.22648 0.0
O54 O 0.4876 0.88037 0.19909 0.0
C55 C 0.29282 0.76286 0.94733 0.0
O56 O 0.33837 0.80882 0.90599 0.0
C57 C 0.50841 0.95487 0.9997 0.0
O58 O 0.53067 0.91473 0.98267 0.0
O59 O 0.45369 0.9327 0.03276 0.0
O60 O 0.37893 0.84242 0.18522 0.0
O61 O 0.44513 0.77587 0.08464 0.0
C62 C 0.50215 0.78452 0.10038 0.0
O63 O 0.5545 0.84414 0.10456 0.0
O64 O 0.30276 0.76459 0.01494 0.0
Mg65 Mg 0.56685 0.39352 0.23956 0.0
C66 C 0.57101 0.42701 0.39314 0.0
O67 O 0.61107 0.48563 0.36575 0.0
C68 C 0.53382 0.29086 0.114 0.0
O69 O 0.53342 0.3364 0.07265 0.0
C70 C 0.5574 0.50643 0.16634 0.0
O71 O 0.61979 0.52866 0.1493 0.0
O72 O 0.52484 0.45172 0.19942 0.0
O73 O 0.54035 0.37696 0.35189 0.0
O74 O 0.67311 0.44315 0.2513 0.0
C75 C 0.72148 0.50018 0.26704 0.0
O76 O 0.7142 0.55252 0.27122 0.0
O77 O 0.54201 0.30079 0.18161 0.0
Mg78 Mg 0.44323 0.84363 0.46018 0.0
C79 C 0.42054 0.85849 0.30424 0.0
O80 O 0.36567 0.8521 0.33121 0.0
C81 C 0.47437 0.77324 0.58139 0.0
O82 O 0.45665 0.80832 0.62134 0.0
C83 C 0.46684 0.98301 0.4782 0.0
O84 O 0.42104 0.96326 0.42825 0.0
O85 O 0.48257 0.94233 0.5047 0.0
O86 O 0.4638 0.85739 0.34546 0.0
O87 O 0.33754 0.7788 0.45972 0.0
C88 C 0.2846 0.78156 0.45352 0.0
O89 O 0.28567 0.83853 0.45409 0.0
O90 O 0.47812 0.78155 0.51341 0.0
Mg91 Mg 0.60347 0.44128 0.62684 0.0
C92 C 0.5659 0.41857 0.4709 0.0
O93 O 0.51742 0.36371 0.49788 0.0
C94 C 0.705 0.47242 0.74805 0.0
O95 O 0.65219 0.4547 0.78799 0.0
C96 C 0.48771 0.46493 0.64485 0.0
O97 O 0.46167 0.41915 0.59488 0.0
O98 O 0.54412 0.48064 0.67136 0.0
O99 O 0.61028 0.46184 0.51212 0.0
O100 O 0.5626 0.3356 0.6264 0.0
C101 C 0.50689 0.28266 0.6202 0.0
O102 O 0.45099 0.28373 0.62077 0.0
O103 O 0.70044 0.47617 0.68006 0.0
Mg104 Mg 0.16608 0.60155 0.79351 0.0
C105 C 0.15123 0.56399 0.63757 0.0
O106 O 0.15762 0.51552 0.66454 0.0
C107 C 0.23648 0.70308 0.91472 0.0
O108 O 0.2014 0.65026 0.95465 0.0
C109 C 0.02668 0.48579 0.81151 0.0
O110 O 0.04643 0.45976 0.76154 0.0
O111 O 0.06738 0.5422 0.83803 0.0
O112 O 0.15233 0.60836 0.67878 0.0
O113 O 0.23091 0.5607 0.79307 0.0
C114 C 0.22814 0.50499 0.78687 0.0
O115 O 0.17116 0.4491 0.78743 0.0
O116 O 0.22817 0.69852 0.84673 0.0
Mg117 Mg 0.5684 0.16413 0.96018 0.0
C118 C 0.5911 0.14927 0.80424 0.0
O119 O 0.64597 0.15566 0.83121 0.0
C120 C 0.53726 0.23452 0.08139 0.0
O121 O 0.55499 0.19944 0.12134 0.0
C122 C 0.5448 0.02475 0.9782 0.0
O123 O 0.59059 0.04451 0.92825 0.0
O124 O 0.52906 0.06543 1.0047 0.0
O125 O 0.54783 0.15038 0.84546 0.0
O126 O 0.67409 0.22896 0.95972 0.0
C127 C 0.72704 0.22621 0.95352 0.0
O128 O 0.72597 0.16924 0.95409 0.0
O129 O 0.53352 0.22621 0.01341 0.0
Mg130 Mg 0.40817 0.56648 0.12684 0.0
C131 C 0.44573 0.58919 0.9709 0.0
O132 O 0.49422 0.64406 0.99788 0.0
C133 C 0.30663 0.53534 0.24805 0.0
O134 O 0.35944 0.55307 0.28799 0.0
C135 C 0.52392 0.54283 0.14485 0.0
O136 O 0.54996 0.58862 0.09488 0.0
O137 O 0.46751 0.52712 0.17136 0.0
O138 O 0.40136 0.54592 0.01212 0.0
O139 O 0.44903 0.67216 0.1264 0.0
C140 C 0.50475 0.72511 0.1202 0.0
O141 O 0.56064 0.72403 0.12077 0.0
O142 O 0.31119 0.5316 0.18006 0.0
Mg143 Mg 0.84555 0.40621 0.29351 0.0
C144 C 0.8604 0.44377 0.13757 0.0
O145 O 0.85401 0.49225 0.16454 0.0
C146 C 0.77515 0.30469 0.41472 0.0
O147 O 0.81023 0.3575 0.45465 0.0
C148 C 0.98495 0.52197 0.31151 0.0
O149 O 0.96521 0.548 0.26154 0.0
O150 O 0.94426 0.46556 0.33803 0.0
O151 O 0.8593 0.3994 0.17878 0.0
O152 O 0.78072 0.44707 0.29307 0.0
C153 C 0.78349 0.50277 0.28687 0.0
O154 O 0.84047 0.55867 0.28743 0.0
O155 O 0.78346 0.30924 0.34674 0.0
loop_
_geom_bond_atom_site_label_1
_geom_bond_atom_site_label_2
_geom_bond_distance
_geom_bond_site_symmetry_2
_ccdc_geom_bond_type
Mg0 O7 2.141 . S
Mg0 O8 2.048 . S
Mg0 O9 2.048 . S
Mg0 O12 2.141 . S
C1 O2 1.313 . S
C1 O8 1.195 . S
O2 C1 1.313 . S
C3 O4 1.245 . S
C3 O12 1.289 . S
O4 C3 1.245 . S
C5 O6 1.245 . S
C5 O7 1.289 . S
O6 C5 1.245 . S
O7 Mg0 2.141 . S
O7 C5 1.289 . S
O8 Mg0 2.048 . S
O8 C1 1.195 . S
O9 Mg0 2.048 . S
O9 C10 1.195 . S
C10 O9 1.195 . S
C10 O11 1.313 . S
O11 C10 1.313 . S
O12 Mg0 2.141 . S
O12 C3 1.289 . S
Mg13 O20 2.141 . S
Mg13 O21 2.048 . S
Mg13 O22 2.048 . S
Mg13 O25 2.141 . S
C14 O15 1.313 . S
C14 O21 1.195 . S
O15 C14 1.313 . S
C16 O17 1.245 . S
C16 O25 1.289 . S
O17 C16 1.245 . S
C18 O19 1.245 . S
C18 O20 1.289 . S
O19 C18 1.245 . S
O20 Mg13 2.141 . S
O20 C18 1.289 . S
O21 Mg13 2.048 . S
O21 C14 1.195 . S
O22 Mg13 2.048 . S
O22 C23 1.195 . S
C23 O22 1.195 . S
C23 O24 1.313 . S
O24 C23 1.313 . S
O25 Mg13 2.141 . S
O25 C16 1.289 . S
Mg26 O33 2.141 . S
Mg26 O34 2.048 . S
Mg26 O35 2.048 . S
Mg26 O38 2.141 . S
C27 O28 1.313 . S
C27 O34 1.195 . S
O28 C27 1.313 . S
C29 O30 1.245 . S
C29 O38 1.289 . S
O30 C29 1.245 . S
C31 O32 1.245 . S
C31 O33 1.289 . S
O32 C31 1.245 . S
O33 Mg26 2.141 . S
O33 C31 1.289 . S
O34 Mg26 2.048 . S
O34 C27 1.195 . S
O35 Mg26 2.048 . S
O35 C36 1.195 . S
C36 O35 1.195 . S
C36 O37 1.313 . S
O37 C36 1.313 . S
O38 Mg26 2.141 . S
O38 C29 1.289 . S
Mg39 O46 2.141 . S
Mg39 O47 2.048 1_556 S
Mg39 O48 2.048 . S
Mg39 O51 2.141 . S
C40 O41 1.313 . S
C40 O47 1.195 . S
O41 C40 1.313 . S
C42 O43 1.245 . S
C42 O51 1.289 . S
O43 C42 1.245 . S
C44 O45 1.245 . S
C44 O46 1.289 . S
O45 C44 1.245 . S
O46 Mg39 2.141 . S
O46 C44 1.289 . S
O47 Mg39 2.048 1_554 S
O47 C40 1.195 . S
O48 Mg39 2.048 . S
O48 C49 1.195 . S
C49 O48 1.195 . S
C49 O50 1.313 . S
O50 C49 1.313 . S
O51 Mg39 2.141 . S
O51 C42 1.289 . S
Mg52 O59 2.141 . S
Mg52 O60 2.048 . S
Mg52 O61 2.048 . S
Mg52 O64 2.141 1_554 S
C53 O54 1.313 . S
C53 O60 1.195 . S
O54 C53 1.313 . S
C55 O56 1.245 . S
C55 O64 1.289 . S
O56 C55 1.245 . S
C57 O58 1.245 . S
C57 O59 1.289 . S
O58 C57 1.245 . S
O59 Mg52 2.141 . S
O59 C57 1.289 . S
O60 Mg52 2.048 . S
O60 C53 1.195 . S
O61 Mg52 2.048 . S
O61 C62 1.195 . S
C62 O61 1.195 . S
C62 O63 1.313 . S
O63 C62 1.313 . S
O64 Mg52 2.141 1_556 S
O64 C55 1.289 . S
Mg65 O72 2.141 . S
Mg65 O73 2.048 . S
Mg65 O74 2.048 . S
Mg65 O77 2.141 . S
C66 O67 1.313 . S
C66 O73 1.195 . S
O67 C66 1.313 . S
C68 O69 1.245 . S
C68 O77 1.289 . S
O69 C68 1.245 . S
C70 O71 1.245 . S
C70 O72 1.289 . S
O71 C70 1.245 . S
O72 Mg65 2.141 . S
O72 C70 1.289 . S
O73 Mg65 2.048 . S
O73 C66 1.195 . S
O74 Mg65 2.048 . S
O74 C75 1.195 . S
C75 O74 1.195 . S
C75 O76 1.313 . S
O76 C75 1.313 . S
O77 Mg65 2.141 . S
O77 C68 1.289 . S
Mg78 O85 2.141 . S
Mg78 O86 2.048 . S
Mg78 O87 2.048 . S
Mg78 O90 2.141 . S
C79 O80 1.313 . S
C79 O86 1.195 . S
O80 C79 1.313 . S
C81 O82 1.245 . S
C81 O90 1.289 . S
O82 C81 1.245 . S
C83 O84 1.245 . S
C83 O85 1.289 . S
O84 C83 1.245 . S
O85 Mg78 2.141 . S
O85 C83 1.289 . S
O86 Mg78 2.048 . S
O86 C79 1.195 . S
O87 Mg78 2.048 . S
O87 C88 1.195 . S
C88 O87 1.195 . S
C88 O89 1.313 . S
O89 C88 1.313 . S
O90 Mg78 2.141 . S
O90 C81 1.289 . S
Mg91 O98 2.141 . S
Mg91 O99 2.048 . S
Mg91 O100 2.048 . S
Mg91 O103 2.141 . S
C92 O93 1.313 . S
C92 O99 1.195 . S
O93 C92 1.313 . S
C94 O95 1.245 . S
C94 O103 1.289 . S
O95 C94 1.245 . S
C96 O97 1.245 . S
C96 O98 1.289 . S
O97 C96 1.245 . S
O98 Mg91 2.141 . S
O98 C96 1.289 . S
O99 Mg91 2.048 . S
O99 C92 1.195 . S
O100 Mg91 2.048 . S
O100 C101 1.195 . S
C101 O100 1.195 . S
C101 O102 1.313 . S
O102 C101 1.313 . S
O103 Mg91 2.141 . S
O103 C94 1.289 . S
Mg104 O111 2.141 . S
Mg104 O112 2.048 . S
Mg104 O113 2.048 . S
Mg104 O116 2.141 . S
C105 O106 1.313 . S
C105 O112 1.195 . S
O106 C105 1.313 . S
C107 O108 1.245 . S
C107 O116 1.289 . S
O108 C107 1.245 . S
C109 O110 1.245 . S
C109 O111 1.289 . S
O110 C109 1.245 . S
O111 Mg104 2.141 . S
O111 C109 1.289 . S
O112 Mg104 2.048 . S
O112 C105 1.195 . S
O113 Mg104 2.048 . S
O113 C114 1.195 . S
C114 O113 1.195 . S
C114 O115 1.313 . S
O115 C114 1.313 . S
O116 Mg104 2.141 . S
O116 C107 1.289 . S
Mg117 O124 2.141 . S
Mg117 O125 2.048 . S
Mg117 O126 2.048 . S
Mg117 O129 2.141 1_556 S
C118 O119 1.313 . S
C118 O125 1.195 . S
O119 C118 1.313 . S
C120 O121 1.245 . S
C120 O129 1.289 . S
O121 C120 1.245 . S
C122 O123 1.245 . S
C122 O124 1.289 . S
O123 C122 1.245 . S
O124 Mg117 2.141 . S
O124 C122 1.289 . S
O125 Mg117 2.048 . S
O125 C118 1.195 . S
O126 Mg117 2.048 . S
O126 C127 1.195 . S
C127 O126 1.195 . S
C127 O128 1.313 . S
O128 C127 1.313 . S
O129 Mg117 2.141 1_554 S
O129 C120 1.289 . S
Mg130 O137 2.141 . S
Mg130 O138 2.048 1_554 S
Mg130 O139 2.048 . S
Mg130 O142 2.141 . S
C131 O132 1.313 . S
C131 O138 1.195 . S
O132 C131 1.313 . S
C133 O134 1.245 . S
C133 O142 1.289 . S
O134 C133 1.245 . S
C135 O136 1.245 . S
C135 O137 1.289 . S
O136 C135 1.245 . S
O137 Mg130 2.141 . S
O137 C135 1.289 . S
O138 Mg130 2.048 1_556 S
O138 C131 1.195 . S
O139 Mg130 2.048 . S
O139 C140 1.195 . S
C140 O139 1.195 . S
C140 O141 1.313 . S
O141 C140 1.313 . S
O142 Mg130 2.141 . S
O142 C133 1.289 . S
Mg143 O150 2.141 . S
Mg143 O151 2.048 . S
Mg143 O152 2.048 . S
Mg143 O155 2.141 . S
C144 O145 1.313 . S
C144 O151 1.195 . S
O145 C144 1.313 . S
C146 O147 1.245 . S
C146 O155 1.289 . S
O147 C146 1.245 . S
C148 O149 1.245 . S
C148 O150 1.289 . S
O149 C148 1.245 . S
O150 Mg143 2.141 . S
O150 C148 1.289 . S
O151 Mg143 2.048 . S
O151 C144 1.195 . S
O152 Mg143 2.048 . S
O152 C153 1.195 . S
C153 O152 1.195 . S
C153 O154 1.313 . S
O154 C153 1.313 . S
O155 Mg143 2.141 . S
O155 C146 1.289 . S
C10 C88 1.774 . S
C23 C101 1.774 . S
C114 C36 1.774 . S
C49 C127 1.774 . S
C62 C140 1.774 . S
C153 C75 1.774 . S
C105 C1 1.773 . S
C14 C118 1.773 . S
C131 C27 1.773 . S
C144 C40 1.773 . S
C53 C79 1.773 . S
C66 C92 1.773 . S
C148 C5 2.129 1_655 S
C83 C18 2.129 1_565 S
C31 C96 2.129 . S
C109 C44 2.129 1_455 S
C122 C57 2.129 1_546 S
C135 C70 2.129 . S
C3 C133 1.771 . S
C146 C16 1.771 . S
C29 C81 1.771 . S
C42 C94 1.771 . S
C55 C107 1.771 . S
C68 C120 1.771 . S
