# Generated by pormake.
# Topology sxc, (6)-cn, num edge types: 1
# Building blocks:
#     Node 0, Type 0, BuildingBlock: BETFEN_clean_sbu_0, # of connection points: 6
#     Node 1, Type 0, BuildingBlock: BETFEN_clean_sbu_0, # of connection points: 6
#     Node 2, Type 0, BuildingBlock: BETFEN_clean_sbu_0, # of connection points: 6
#     Edge 3, Type (0, 0), BuildingBlock: OJICUG_clean_linker_0, # of connection points: 2
#     Edge 4, Type (0, 0), BuildingBlock: OJICUG_clean_linker_0, # of connection points: 2
#     Edge 5, Type (0, 0), BuildingBlock: OJICUG_clean_linker_0, # of connection points: 2
#     Edge 6, Type (0, 0), BuildingBlock: OJICUG_clean_linker_0, # of connection points: 2
#     Edge 7, Type (0, 0), BuildingBlock: OJICUG_clean_linker_0, # of connection points: 2
#     Edge 8, Type (0, 0), BuildingBlock: OJICUG_clean_linker_0, # of connection points: 2
#     Edge 9, Type (0, 0), BuildingBlock: OJICUG_clean_linker_0, # of connection points: 2
#     Edge 10, Type (0, 0), BuildingBlock: OJICUG_clean_linker_0, # of connection points: 2
#     Edge 11, Type (0, 0), BuildingBlock: OJICUG_clean_linker_0, # of connection points: 2
# Relax obj value: 0.516
# Max RMSD: 0.190
# Mean RMSD: 0.103
data_MOF--net-sxc--node1-BETFEN_clean_sbu_0--edge1-OJICUG_clean_linker_0
_symmetry_space_group_name_H-M    P1
_symmetry_Int_Tables_number       1
_symmetry_cell_setting            triclinic
loop_
_symmetry_equiv_pos_as_xyz
'x, y, z'
_cell_length_a     11.683908
_cell_length_b     12.289008
_cell_length_c     33.138897
_cell_angle_alpha  94.522538
_cell_angle_beta   90.363638
_cell_angle_gamma 76.191308
loop_
_atom_site_label
_atom_site_type_symbol
_atom_site_fract_x
_atom_site_fract_y
_atom_site_fract_z
_atom_type_partial_charge
Pr0 Pr 0.13598 0.27292 0.00359 0.0
Pr1 Pr 1.0133 0.29443 0.00296 0.0
C2 C 0.35593 0.28928 0.98469 0.0
C3 C 0.42031 0.37551 -0.00415 0.0
C4 C 0.37848 0.45695 0.02781 0.0
C5 C 0.42243 0.55314 0.03302 0.0
C6 C 0.50884 0.5693 0.00631 0.0
C7 C 0.55472 0.48453 0.97563 0.0
C8 C 0.51037 0.38846 0.97037 0.0
C9 C 0.13177 0.26497 0.08753 0.0
C10 C 0.08657 0.53962 -0.01092 0.0
C11 C 0.7935 0.27758 0.02223 0.0
C12 C 0.73103 1.18843 0.01367 0.0
C13 C 0.77377 1.10228 0.98335 0.0
C14 C 0.73169 1.00487 0.98077 0.0
C15 C 0.6462 0.99201 0.00851 0.0
C16 C 0.5994 1.0811 0.03757 0.0
C17 C 0.642 1.17843 0.04022 0.0
C18 C 1.02023 0.30809 0.91902 0.0
C19 C 0.0648 1.02832 0.01957 0.0
O20 O 0.26444 0.32388 0.96252 0.0
O21 O 0.33422 1.22981 0.01324 0.0
O22 O 0.06996 0.3419 0.0681 0.0
O23 O 0.19217 1.18349 0.06331 0.0
O24 O 1.0517 0.47816 0.01568 0.0
O25 O 0.05355 0.47451 0.01436 0.0
O26 O 0.88409 0.24941 0.04535 0.0
O27 O 0.81577 0.33074 -0.00811 0.0
O28 O 0.07889 1.22857 0.93811 0.0
O29 O 0.96147 0.38904 0.94385 0.0
O30 O 0.0976 1.08904 -0.00773 0.0
O31 O 0.09589 1.09266 -0.00647 0.0
H32 H 0.30763 0.44888 0.04745 0.0
H33 H 0.38629 0.61641 0.05718 0.0
H34 H 0.62054 0.49503 0.95436 0.0
H35 H 0.54233 0.32699 0.94523 0.0
H36 H 0.84376 1.10802 0.96291 0.0
H37 H 0.76827 0.93842 0.95769 0.0
H38 H 0.53403 1.07345 0.05952 0.0
H39 H 0.60935 1.24361 0.06416 0.0
Pr40 Pr 0.07862 0.36484 0.34658 0.0
Pr41 Pr 0.15741 1.14279 0.33493 0.0
C42 C 1.00834 0.58626 0.33743 0.0
C43 C 0.93692 0.63925 0.30429 0.0
C44 C 0.93454 0.74979 0.2966 0.0
C45 C 0.89727 0.78838 0.25899 0.0
C46 C 0.86408 0.71569 0.22814 0.0
C47 C 0.84908 0.61136 0.23865 0.0
C48 C 0.88668 0.57295 0.27622 0.0
C49 C 0.07707 0.2763 0.42269 0.0
C50 C 0.87268 1.23783 0.34004 0.0
C51 C 0.21627 0.91969 0.31379 0.0
C52 C 0.23038 0.86242 0.27266 0.0
C53 C 0.24203 0.92287 0.23924 0.0
C54 C 0.2168 0.88405 0.20023 0.0
C55 C 0.17912 0.78389 0.1941 0.0
C56 C 0.18829 0.71448 0.22675 0.0
C57 C 0.21191 0.75444 0.26582 0.0
C58 C 0.1569 1.24663 0.2617 0.0
C59 C 0.36778 0.25805 0.35382 0.0
O60 O 0.11307 0.5262 0.32638 0.0
O61 O 0.95474 0.53562 0.36172 0.0
O62 O 0.16027 1.24341 0.39698 0.0
O63 O 0.9948 0.35535 0.40964 0.0
O64 O 0.95683 1.15849 0.35405 0.0
O65 O 0.90441 0.32081 0.32451 0.0
O66 O 0.2935 0.97707 0.32424 0.0
O67 O 0.10896 0.97466 0.32379 0.0
O68 O 0.07077 0.2627 0.28584 0.0
O69 O 0.24924 1.18793 0.27777 0.0
O70 O 0.28744 0.34454 0.34185 0.0
O71 O 0.33318 1.16881 0.36279 0.0
H72 H 0.97155 0.80274 0.31806 0.0
H73 H 0.90946 0.87006 0.25277 0.0
H74 H 0.82147 0.55418 0.21621 0.0
H75 H 0.8861 0.48764 0.2818 0.0
H76 H 0.2605 1.00457 0.24352 0.0
H77 H 0.21298 0.93866 0.17587 0.0
H78 H 0.16178 0.63566 0.22362 0.0
H79 H 0.20486 0.70532 0.29104 0.0
Pr80 Pr 0.1006 1.14346 0.67496 0.0
Pr81 Pr 1.0315 0.37863 0.66272 0.0
C82 C 0.09956 0.94008 0.69734 0.0
C83 C 1.0036 0.88372 0.68945 0.0
C84 C 0.94458 0.89447 0.65238 0.0
C85 C 0.84051 0.85956 0.64689 0.0
C86 C 0.79204 0.81522 0.67859 0.0
C87 C 0.85258 0.80174 0.71539 0.0
C88 C 0.95784 0.83589 0.72077 0.0
C89 C 0.09932 1.18447 0.59267 0.0
C90 C 0.81306 0.26606 0.66604 0.0
C91 C 1.03366 0.58056 0.63921 0.0
C92 C 0.12973 0.63679 0.6471 0.0
C93 C 0.1885 0.62611 0.68423 0.0
C94 C 0.29238 0.66128 0.68984 0.0
C95 C 0.34096 0.7058 0.65822 0.0
C96 C 0.28072 0.71911 0.62134 0.0
C97 C 0.17565 0.68467 0.61583 0.0
C98 C 1.02528 0.34092 0.74483 0.0
C99 C 0.31897 0.25588 0.6723 0.0
O100 O 0.07078 1.03011 0.72234 0.0
O101 O 0.15873 0.95422 0.66558 0.0
O102 O 1.0194 1.23025 0.61829 0.0
O103 O 0.18382 1.11367 0.6091 0.0
O104 O 0.84516 0.34909 0.65019 0.0
O105 O 0.89271 1.1855 0.68146 0.0
O106 O 0.06279 0.48955 0.61468 0.0
O107 O 0.97346 0.56798 0.67096 0.0
O108 O 0.10816 0.29234 0.72042 0.0
O109 O 0.94484 0.41302 0.72726 0.0
O110 O 0.28691 1.17232 0.68772 0.0
O111 O 0.23947 0.33666 0.65698 0.0
H112 H 0.97674 0.93322 0.62794 0.0
H113 H 0.79679 0.86929 0.61802 0.0
H114 H 0.81658 0.76849 0.74044 0.0
H115 H 1.00095 0.82914 0.74982 0.0
H116 H 0.15622 0.5873 0.70863 0.0
H117 H 0.33587 0.65162 0.71876 0.0
H118 H 0.31685 0.75243 0.59634 0.0
H119 H 0.13276 0.69133 0.58675 0.0
C120 C 1.03584 0.72705 0.03467 0.0
C121 C 0.0794 0.66481 -0.00196 0.0
H122 H 0.99759 0.88794 0.06947 0.0
C123 C 0.11973 0.72401 0.96834 0.0
H124 H 1.00401 0.68609 0.05852 0.0
C125 C 0.11627 0.8404 0.97462 0.0
C126 C 0.07239 0.90284 0.01115 0.0
H127 H 0.15453 0.67972 0.93981 0.0
H128 H 0.14814 0.88125 0.95075 0.0
C129 C 1.03239 0.84357 0.04096 0.0
C130 C 0.58224 1.16103 0.36433 0.0
C131 C 0.49699 0.25509 0.35257 0.0
H132 H 0.76648 1.08089 0.36963 0.0
C133 C 0.53725 0.34241 0.33686 0.0
H134 H 0.55507 1.09157 0.37636 0.0
C135 C 0.65844 0.33555 0.33262 0.0
C136 C 0.74385 1.24132 0.34408 0.0
H137 H 0.47505 0.41573 0.32717 0.0
H138 H 0.68507 0.40484 0.32024 0.0
C139 C 0.70387 1.15439 0.36028 0.0
C140 C 0.65753 0.68818 0.68771 0.0
C141 C 0.67659 0.78698 0.67348 0.0
H142 H 0.53653 0.5846 0.69359 0.0
C143 C 0.58447 0.85924 0.65424 0.0
H144 H 0.7274 0.63027 0.70216 0.0
C145 C 0.47532 0.83311 0.64925 0.0
C146 C 0.45628 0.73425 0.66345 0.0
H147 H 0.59627 0.9368 0.64344 0.0
H148 H 0.40545 0.891 0.63479 0.0
C149 C 0.54836 0.66209 0.68275 0.0
C150 C 0.65175 1.17438 0.68427 0.0
C151 C 0.6867 0.26311 0.66734 0.0
H152 H 0.50894 1.10279 0.6994 0.0
C153 C 0.59951 0.34949 0.65223 0.0
H154 H 0.71641 1.1062 0.69614 0.0
C155 C 0.48034 0.34754 0.65416 0.0
C156 C 0.44536 0.25882 0.67109 0.0
H157 H 0.62315 0.41898 0.63894 0.0
H158 H 0.41571 0.41569 0.64226 0.0
C159 C 0.53256 1.17238 0.68617 0.0
C160 C 0.69614 0.78133 0.00315 0.0
C161 C 0.61079 0.88384 0.00844 0.0
H162 H 0.73129 0.60162 -0.00087 0.0
C163 C 0.49229 0.88202 0.01426 0.0
H164 H 0.78849 0.77999 -0.00061 0.0
C165 C 0.45966 0.77984 0.01427 0.0
C166 C 0.54489 0.67736 0.00854 0.0
H167 H 0.42441 0.95954 0.01803 0.0
H168 H 0.36721 0.78113 0.01779 0.0
C169 C 0.66354 0.67919 0.00316 0.0
C170 C 0.96928 0.64348 0.16387 0.0
C171 C 0.88608 0.73193 0.18483 0.0
H172 H 0.15045 0.59326 0.14542 0.0
C173 C 0.88579 0.84108 0.17476 0.0
H174 H 0.96664 0.55703 0.16631 0.0
C175 C 0.99235 0.8616 0.16207 0.0
C176 C 0.09409 0.77226 0.16113 0.0
H177 H 0.81638 0.91195 0.18615 0.0
H178 H 0.99977 0.94805 0.16412 0.0
C179 C 0.07583 0.66436 0.15139 0.0
C180 C 1.04547 0.31584 0.19931 0.0
C181 C 0.14962 0.25939 0.21746 0.0
H182 H 0.9582 0.3626 0.1436 0.0
C183 C 0.24783 1.20839 0.19249 0.0
H184 H 0.9681 0.35487 0.21766 0.0
C185 C 0.24145 1.21095 0.15043 0.0
C186 C 0.13771 0.26699 0.13224 0.0
H187 H 0.32944 1.16386 0.20536 0.0
H188 H 0.3181 1.16901 0.13209 0.0
C189 C 1.03991 0.32034 0.15702 0.0
C190 C 0.99087 0.3023 0.49293 0.0
C191 C 0.08357 0.24962 0.46588 0.0
H192 H 0.92334 0.32347 0.55381 0.0
C193 C 0.18139 1.17365 0.48082 0.0
H194 H 0.91405 0.36115 0.48251 0.0
C195 C 0.18648 1.15174 0.52193 0.0
C196 C 0.09393 1.20533 0.54895 0.0
H197 H 0.25421 1.13166 0.46082 0.0
H198 H 0.26322 1.09331 0.5326 0.0
C199 C 0.99607 0.28067 0.53388 0.0
C200 C 0.10691 1.24394 0.80713 0.0
C201 C 1.02531 0.32966 0.78926 0.0
H202 H 0.1685 1.16852 0.8622 0.0
C203 C 0.94116 0.40559 0.81434 0.0
H204 H 0.17244 1.18381 0.78862 0.0
C205 C 0.93952 0.39747 0.85624 0.0
C206 C 1.02089 0.31221 0.87424 0.0
H207 H 0.87681 0.47247 0.80164 0.0
H208 H 0.87423 0.45839 0.87459 0.0
C209 C 0.10426 1.2349 0.84921 0.0
loop_
_geom_bond_atom_site_label_1
_geom_bond_atom_site_label_2
_geom_bond_distance
_geom_bond_site_symmetry_2
_ccdc_geom_bond_type
Pr0 C2 2.880 . S
Pr0 O20 2.562 1_554 S
Pr0 O21 2.490 . S
Pr0 O22 2.695 1_455 S
Pr0 O23 2.512 . S
Pr0 O25 2.437 . S
Pr0 O28 2.436 1_554 S
Pr0 O30 2.438 1_545 S
Pr1 C11 2.879 1_556 S
Pr1 O22 2.436 1_566 S
Pr1 O24 2.438 1_566 S
Pr1 O26 2.562 1_556 S
Pr1 O27 2.490 . S
Pr1 O28 2.695 1_665 S
Pr1 O29 2.512 . S
Pr1 O31 2.437 . S
C2 Pr0 2.880 . S
C2 C3 1.491 . S
C2 O20 1.254 1_554 S
C2 O21 1.225 . S
C3 C2 1.491 . S
C3 C4 1.392 . S
C3 C8 1.356 1_554 S
C4 C3 1.392 . S
C4 C5 1.368 . S
C4 H32 0.929 . S
C5 C4 1.368 . S
C5 C6 1.396 . S
C5 H33 0.929 . S
C6 C5 1.396 . S
C6 C7 1.364 1_554 S
C7 C6 1.364 1_556 S
C7 C8 1.409 . S
C7 H34 0.931 . S
C8 C3 1.356 1_556 S
C8 C7 1.409 . S
C8 H35 0.930 . S
C9 O22 1.270 1_455 S
C9 O23 1.248 . S
C10 O24 1.268 . S
C10 O25 1.278 1_655 S
C11 Pr1 2.879 1_554 S
C11 C12 1.492 . S
C11 O26 1.261 . S
C11 O27 1.217 1_554 S
C12 C11 1.492 . S
C12 C13 1.392 1_554 S
C12 C17 1.356 . S
C13 C12 1.392 1_556 S
C13 C14 1.368 . S
C13 H36 0.929 . S
C14 C13 1.368 . S
C14 C15 1.386 1_556 S
C14 H37 0.929 . S
C15 C14 1.386 1_554 S
C15 C16 1.373 . S
C16 C15 1.373 . S
C16 C17 1.409 . S
C16 H38 0.931 . S
C17 C12 1.356 . S
C17 C16 1.409 . S
C17 H39 0.930 . S
C18 O28 1.270 1_655 S
C18 O29 1.248 1_545 S
C19 O30 1.267 1_556 S
C19 O31 1.278 1_455 S
O20 Pr0 2.562 1_556 S
O20 C2 1.254 1_556 S
O21 Pr0 2.490 . S
O21 C2 1.225 . S
O22 Pr0 2.695 1_655 S
O22 Pr1 2.436 1_544 S
O22 C9 1.270 1_655 S
O23 Pr0 2.512 . S
O23 C9 1.248 . S
O24 Pr1 2.438 1_544 S
O24 C10 1.268 . S
O25 Pr0 2.437 . S
O25 C10 1.278 1_455 S
O26 Pr1 2.562 1_554 S
O26 C11 1.261 . S
O27 Pr1 2.490 . S
O27 C11 1.217 1_556 S
O28 Pr0 2.436 1_556 S
O28 Pr1 2.695 1_445 S
O28 C18 1.270 1_455 S
O29 Pr1 2.512 . S
O29 C18 1.248 1_565 S
O30 Pr0 2.438 1_565 S
O30 C19 1.267 1_554 S
O31 Pr1 2.437 . S
O31 C19 1.278 1_655 S
H32 C4 0.929 . S
H33 C5 0.929 . S
H34 C7 0.931 . S
H35 C8 0.930 . S
H36 C13 0.929 . S
H37 C14 0.929 . S
H38 C16 0.931 . S
H39 C17 0.930 . S
Pr40 C42 2.880 1_455 S
Pr40 O60 2.562 1_455 S
Pr40 O61 2.490 . S
Pr40 O62 2.695 . S
Pr40 O63 2.512 . S
Pr40 O65 2.437 1_455 S
Pr40 O68 2.436 . S
Pr40 O70 2.438 . S
Pr41 C51 2.880 1_655 S
Pr41 O62 2.436 1_665 S
Pr41 O64 2.438 . S
Pr41 O66 2.562 1_655 S
Pr41 O67 2.490 1_655 S
Pr41 O68 2.695 1_665 S
Pr41 O69 2.512 . S
Pr41 O71 2.437 1_655 S
C42 Pr40 2.880 1_655 S
C42 C43 1.491 . S
C42 O60 1.254 . S
C42 O61 1.225 1_655 S
C43 C42 1.491 . S
C43 C44 1.392 . S
C43 C48 1.356 . S
C44 C43 1.392 . S
C44 C45 1.368 . S
C44 H72 0.933 . S
C45 C44 1.368 . S
C45 C46 1.386 . S
C45 H73 0.929 . S
C46 C45 1.386 . S
C46 C47 1.373 . S
C47 C46 1.373 . S
C47 C48 1.409 . S
C47 H74 0.931 . S
C48 C43 1.356 . S
C48 C47 1.409 . S
C48 H75 0.930 . S
C49 O62 1.270 . S
C49 O63 1.248 . S
C50 O64 1.267 1_545 S
C50 O65 1.278 . S
C51 Pr41 2.880 1_455 S
C51 C52 1.491 . S
C51 O66 1.254 . S
C51 O67 1.225 . S
C52 C51 1.491 . S
C52 C53 1.392 . S
C52 C57 1.356 . S
C53 C52 1.392 . S
C53 C54 1.368 . S
C53 H76 0.929 . S
C54 C53 1.368 . S
C54 C55 1.386 . S
C54 H77 0.929 . S
C55 C54 1.386 . S
C55 C56 1.373 . S
C56 C55 1.373 . S
C56 C57 1.409 . S
C56 H78 0.931 . S
C57 C52 1.356 . S
C57 C56 1.409 . S
C57 H79 0.930 . S
C58 O68 1.270 . S
C58 O69 1.248 1_445 S
C59 O70 1.267 1_565 S
C59 O71 1.278 . S
O60 Pr40 2.562 1_655 S
O60 C42 1.254 . S
O61 Pr40 2.490 . S
O61 C42 1.225 1_455 S
O62 Pr40 2.695 . S
O62 Pr41 2.436 1_445 S
O62 C49 1.270 . S
O63 Pr40 2.512 . S
O63 C49 1.248 . S
O64 Pr41 2.438 . S
O64 C50 1.267 1_565 S
O65 Pr40 2.437 1_655 S
O65 C50 1.278 . S
O66 Pr41 2.562 1_455 S
O66 C51 1.254 . S
O67 Pr41 2.490 1_455 S
O67 C51 1.225 . S
O68 Pr40 2.436 . S
O68 Pr41 2.695 1_445 S
O68 C58 1.270 . S
O69 Pr41 2.512 . S
O69 C58 1.248 1_665 S
O70 Pr40 2.438 . S
O70 C59 1.267 1_545 S
O71 Pr41 2.437 1_455 S
O71 C59 1.278 . S
H72 C44 0.933 . S
H73 C45 0.929 . S
H74 C47 0.931 . S
H75 C48 0.930 . S
H76 C53 0.929 . S
H77 C54 0.929 . S
H78 C56 0.931 . S
H79 C57 0.930 . S
Pr80 C82 2.880 1_455 S
Pr80 O100 2.562 1_455 S
Pr80 O101 2.490 1_455 S
Pr80 O102 2.695 1_565 S
Pr80 O103 2.512 . S
Pr80 O105 2.437 1_455 S
Pr80 O108 2.436 . S
Pr80 O110 2.438 . S
Pr81 C91 2.880 . S
Pr81 O102 2.436 . S
Pr81 O104 2.438 1_455 S
Pr81 O106 2.562 . S
Pr81 O107 2.490 . S
Pr81 O108 2.695 1_545 S
Pr81 O109 2.512 . S
Pr81 O111 2.437 . S
C82 Pr80 2.880 1_655 S
C82 C83 1.491 . S
C82 O100 1.254 . S
C82 O101 1.225 . S
C83 C82 1.491 . S
C83 C84 1.392 . S
C83 C88 1.356 . S
C84 C83 1.392 . S
C84 C85 1.368 . S
C84 H112 0.929 . S
C85 C84 1.368 . S
C85 C86 1.386 . S
C85 H113 0.929 . S
C86 C85 1.386 . S
C86 C87 1.373 . S
C87 C86 1.373 . S
C87 C88 1.409 . S
C87 H114 0.931 . S
C88 C83 1.356 . S
C88 C87 1.409 . S
C88 H115 0.930 . S
C89 O102 1.270 1_565 S
C89 O103 1.248 . S
C90 O104 1.267 . S
C90 O105 1.278 1_545 S
C91 Pr81 2.880 . S
C91 C92 1.491 . S
C91 O106 1.254 . S
C91 O107 1.225 . S
C92 C91 1.491 . S
C92 C93 1.392 . S
C92 C97 1.356 . S
C93 C92 1.392 . S
C93 C94 1.368 . S
C93 H116 0.929 . S
C94 C93 1.368 . S
C94 C95 1.386 . S
C94 H117 0.929 . S
C95 C94 1.386 . S
C95 C96 1.373 . S
C96 C95 1.373 . S
C96 C97 1.409 . S
C96 H118 0.931 . S
C97 C92 1.356 . S
C97 C96 1.409 . S
C97 H119 0.930 . S
C98 O108 1.270 1_545 S
C98 O109 1.248 . S
C99 O110 1.267 1_545 S
C99 O111 1.278 . S
O100 Pr80 2.562 1_655 S
O100 C82 1.254 . S
O101 Pr80 2.490 1_655 S
O101 C82 1.225 . S
O102 Pr80 2.695 1_545 S
O102 Pr81 2.436 . S
O102 C89 1.270 1_545 S
O103 Pr80 2.512 . S
O103 C89 1.248 . S
O104 Pr81 2.438 1_655 S
O104 C90 1.267 . S
O105 Pr80 2.437 1_655 S
O105 C90 1.278 1_565 S
O106 Pr81 2.562 . S
O106 C91 1.254 . S
O107 Pr81 2.490 . S
O107 C91 1.225 . S
O108 Pr80 2.436 . S
O108 Pr81 2.695 1_565 S
O108 C98 1.270 1_565 S
O109 Pr81 2.512 . S
O109 C98 1.248 . S
O110 Pr80 2.438 . S
O110 C99 1.267 1_565 S
O111 Pr81 2.437 . S
O111 C99 1.278 . S
H112 C84 0.929 . S
H113 C85 0.929 . S
H114 C87 0.931 . S
H115 C88 0.930 . S
H116 C93 0.929 . S
H117 C94 0.929 . S
H118 C96 0.931 . S
H119 C97 0.930 . S
C120 C121 1.387 1_556 S
C120 H124 0.950 . S
C120 C129 1.390 . S
C121 C120 1.387 1_554 S
C121 C123 1.387 1_655 S
H122 C129 0.950 . S
C123 C121 1.387 1_455 S
C123 C125 1.390 . S
C123 H127 0.950 . S
H124 C120 0.950 . S
C125 C123 1.390 . S
C125 C126 1.387 . S
C125 H128 0.950 . S
C126 C125 1.387 . S
C126 C129 1.387 1_454 S
H127 C123 0.950 . S
H128 C125 0.950 . S
C129 C120 1.390 . S
C129 H122 0.950 . S
C129 C126 1.387 1_656 S
C130 C131 1.387 . S
C130 H134 0.950 1_545 S
C130 C139 1.390 . S
C131 C130 1.387 . S
C131 C133 1.387 . S
H132 C139 0.950 . S
C133 C131 1.387 . S
C133 C135 1.390 . S
C133 H137 0.950 . S
H134 C130 0.950 1_565 S
C135 C133 1.390 . S
C135 C136 1.387 . S
C135 H138 0.950 . S
C136 C135 1.387 . S
C136 C139 1.387 . S
H137 C133 0.950 . S
H138 C135 0.950 . S
C139 C130 1.390 . S
C139 H132 0.950 . S
C139 C136 1.387 . S
C140 C141 1.387 . S
C140 H144 0.950 . S
C140 C149 1.390 . S
C141 C140 1.387 . S
C141 C143 1.387 . S
H142 C149 0.950 . S
C143 C141 1.387 . S
C143 C145 1.390 . S
C143 H147 0.950 . S
H144 C140 0.950 . S
C145 C143 1.390 . S
C145 C146 1.387 . S
C145 H148 0.950 . S
C146 C145 1.387 . S
C146 C149 1.387 . S
H147 C143 0.950 . S
H148 C145 0.950 . S
C149 C140 1.390 . S
C149 H142 0.950 . S
C149 C146 1.387 . S
C150 C151 1.386 . S
C150 H154 0.949 1_545 S
C150 C159 1.393 . S
C151 C150 1.386 . S
C151 C153 1.387 . S
H152 C159 0.950 1_565 S
C153 C151 1.387 . S
C153 C155 1.390 . S
C153 H157 0.950 . S
H154 C150 0.949 1_565 S
C155 C153 1.390 . S
C155 C156 1.387 . S
C155 H158 0.950 . S
C156 C155 1.387 . S
C156 C159 1.387 . S
H157 C153 0.950 . S
H158 C155 0.950 . S
C159 C150 1.393 . S
C159 H152 0.950 1_545 S
C159 C156 1.387 . S
C160 C161 1.387 1_556 S
C160 H164 0.950 . S
C160 C169 1.390 . S
C161 C160 1.387 1_554 S
C161 C163 1.387 . S
H162 C169 0.950 . S
C163 C161 1.387 . S
C163 C165 1.390 . S
C163 H167 0.950 . S
H164 C160 0.950 . S
C165 C163 1.390 . S
C165 C166 1.385 . S
C165 H168 0.950 . S
C166 C165 1.385 . S
C166 C169 1.390 1_554 S
H167 C163 0.950 . S
H168 C165 0.950 . S
C169 C160 1.390 . S
C169 H162 0.950 . S
C169 C166 1.390 1_556 S
C170 C171 1.387 . S
C170 H174 0.950 . S
C170 C179 1.390 1_655 S
C171 C170 1.387 . S
C171 C173 1.387 . S
H172 C179 0.950 . S
C173 C171 1.387 . S
C173 C175 1.390 1_655 S
C173 H177 0.950 . S
H174 C170 0.950 . S
C175 C173 1.390 1_455 S
C175 C176 1.387 . S
C175 H178 0.950 . S
C176 C175 1.387 . S
C176 C179 1.387 . S
H177 C173 0.950 . S
H178 C175 0.950 . S
C179 C170 1.390 1_455 S
C179 H172 0.950 . S
C179 C176 1.387 . S
C180 C181 1.387 . S
C180 H184 0.950 . S
C180 C189 1.390 . S
C181 C180 1.387 . S
C181 C183 1.387 1_445 S
H182 C189 0.950 . S
C183 C181 1.387 1_665 S
C183 C185 1.390 . S
C183 H187 0.950 . S
H184 C180 0.950 . S
C185 C183 1.390 . S
C185 C186 1.387 1_665 S
C185 H188 0.950 . S
C186 C185 1.387 1_445 S
C186 C189 1.387 . S
H187 C183 0.950 . S
H188 C185 0.950 . S
C189 C180 1.390 . S
C189 H182 0.950 . S
C189 C186 1.387 . S
C190 C191 1.387 1_665 S
C190 H194 0.950 . S
C190 C199 1.390 . S
C191 C190 1.387 1_445 S
C191 C193 1.387 . S
H192 C199 0.950 . S
C193 C191 1.387 . S
C193 C195 1.390 . S
C193 H197 0.950 . S
H194 C190 0.950 . S
C195 C193 1.390 . S
C195 C196 1.387 . S
C195 H198 0.950 . S
C196 C195 1.387 . S
C196 C199 1.387 1_445 S
H197 C193 0.950 . S
H198 C195 0.950 . S
C199 C190 1.390 . S
C199 H192 0.950 . S
C199 C196 1.387 1_665 S
C200 C201 1.387 1_665 S
C200 H204 0.950 . S
C200 C209 1.390 . S
C201 C200 1.387 1_445 S
C201 C203 1.387 . S
H202 C209 0.950 . S
C203 C201 1.387 . S
C203 C205 1.390 . S
C203 H207 0.950 . S
H204 C200 0.950 . S
C205 C203 1.390 . S
C205 C206 1.387 . S
C205 H208 0.950 . S
C206 C205 1.387 . S
C206 C209 1.387 1_445 S
H207 C203 0.950 . S
H208 C205 0.950 . S
C209 C200 1.390 . S
C209 H202 0.950 . S
C209 C206 1.387 1_665 S
C121 C10 4.935 . S
C126 C19 4.935 1_554 S
C131 C59 3.104 1_545 S
C136 C50 3.104 . S
C141 C86 0.579 . S
C146 C95 0.579 . S
C151 C90 3.005 . S
C156 C99 3.005 . S
C161 C15 0.918 . S
C166 C6 0.916 . S
C171 C46 0.887 . S
C176 C55 0.887 . S
C181 C58 1.454 . S
C186 C9 1.441 . S
C191 C49 1.467 . S
C196 C89 1.469 1_545 S
C201 C98 1.448 . S
C206 C18 1.470 1_455 S
