# Generated by pormake.
# Topology zfr, (5)-cn, num edge types: 1
# Building blocks:
#     Node 0, Type 0, BuildingBlock: XOMCOT_clean_sbu_1, # of connection points: 5
#     Node 1, Type 0, BuildingBlock: XOMCOT_clean_sbu_1, # of connection points: 5
#     Node 2, Type 0, BuildingBlock: XOMCOT_clean_sbu_1, # of connection points: 5
#     Node 3, Type 0, BuildingBlock: XOMCOT_clean_sbu_1, # of connection points: 5
#     Node 4, Type 0, BuildingBlock: XOMCOT_clean_sbu_1, # of connection points: 5
#     Node 5, Type 0, BuildingBlock: XOMCOT_clean_sbu_1, # of connection points: 5
#     Node 6, Type 0, BuildingBlock: XOMCOT_clean_sbu_1, # of connection points: 5
#     Node 7, Type 0, BuildingBlock: XOMCOT_clean_sbu_1, # of connection points: 5
#     Edge 8, Type (0, 0), None
#     Edge 9, Type (0, 0), None
#     Edge 10, Type (0, 0), None
#     Edge 11, Type (0, 0), None
#     Edge 12, Type (0, 0), None
#     Edge 13, Type (0, 0), None
#     Edge 14, Type (0, 0), None
#     Edge 15, Type (0, 0), None
#     Edge 16, Type (0, 0), None
#     Edge 17, Type (0, 0), None
#     Edge 18, Type (0, 0), None
#     Edge 19, Type (0, 0), None
#     Edge 20, Type (0, 0), None
#     Edge 21, Type (0, 0), None
#     Edge 22, Type (0, 0), None
#     Edge 23, Type (0, 0), None
#     Edge 24, Type (0, 0), None
#     Edge 25, Type (0, 0), None
#     Edge 26, Type (0, 0), None
#     Edge 27, Type (0, 0), None
# Relax obj value: 0.219
# Max RMSD: 0.196
# Mean RMSD: 0.196
data_MOF--net-zfr--node1-XOMCOT_clean_sbu_1--edge1-none
_symmetry_space_group_name_H-M    P1
_symmetry_Int_Tables_number       1
_symmetry_cell_setting            triclinic
loop_
_symmetry_equiv_pos_as_xyz
'x, y, z'
_cell_length_a     25.229022
_cell_length_b     25.229023
_cell_length_c     8.848067
_cell_angle_alpha  90.000723
_cell_angle_beta   90.000752
_cell_angle_gamma 90.000005
loop_
_atom_site_label
_atom_site_type_symbol
_atom_site_fract_x
_atom_site_fract_y
_atom_site_fract_z
_atom_type_partial_charge
C0 C 0.17741 0.33165 1.02492 0.0
C1 C 0.16909 0.33294 0.87171 0.0
N2 N 0.13955 0.29055 0.83453 0.0
N3 N 0.15098 0.28982 0.08328 0.0
C4 C 0.13245 0.26333 0.96275 0.0
H5 H 0.19437 0.36358 0.09025 0.0
Co6 Co 0.11825 0.28751 0.2719 0.0
C7 C 0.00499 0.24822 0.11318 0.0
O8 O 0.97256 0.22565 0.20907 0.0
N9 N 0.0865 0.28619 0.46721 0.0
C10 C 0.06982 0.32985 0.68157 0.0
C11 C 0.05871 0.3265 0.53011 0.0
C12 C 0.11003 0.2629 0.58791 0.0
N13 N 0.10294 0.29011 0.71541 0.0
O14 O 0.14572 0.21576 0.30759 0.0
H15 H 0.03856 0.35722 0.46825 0.0
H16 H 0.13697 0.23015 0.58431 0.0
O17 O 0.05022 0.26461 0.16387 0.0
C18 C 0.19198 0.22728 0.35961 0.0
O19 O 0.20817 0.27654 0.34712 0.0
N20 N 0.1007 0.35943 0.25268 0.0
C21 C 0.08985 0.46871 0.27888 0.0
C22 C 0.05253 0.43912 0.19686 0.0
C23 C 0.05905 0.38393 0.18309 0.0
C24 C 0.13666 0.38805 0.33376 0.0
C25 C 0.13211 0.44253 0.34782 0.0
H26 H 0.03044 0.3611 0.12053 0.0
H27 H 0.16896 0.36806 0.38997 0.0
H28 H 0.10797 0.22852 0.97136 0.0
H29 H 0.17758 0.36595 0.79735 0.0
H30 H 0.05974 0.36231 0.75627 0.0
H31 H 0.01949 0.45865 0.14283 0.0
H32 H 0.16178 0.46423 0.41123 0.0
C33 C 0.66417 0.17745 0.2747 0.0
C34 C 0.66287 0.16912 0.1215 0.0
N35 N 0.70526 0.1396 0.08431 0.0
N36 N 0.70601 0.15103 0.33305 0.0
C37 C 0.7325 0.13251 0.21252 0.0
H38 H 0.63225 0.19441 0.34004 0.0
Co39 Co 0.70832 0.11829 0.52166 0.0
C40 C 0.74767 0.00506 0.36285 0.0
O41 O 0.77028 0.97263 0.45868 0.0
N42 N 0.70963 0.08654 0.71698 0.0
C43 C 0.66597 0.06987 0.93133 0.0
C44 C 0.66932 0.05875 0.77987 0.0
C45 C 0.73292 0.11007 0.83769 0.0
N46 N 0.7057 0.10298 0.96518 0.0
O47 O 0.78006 0.1458 0.55743 0.0
H48 H 0.6386 0.03861 0.718 0.0
H49 H 0.76567 0.13701 0.8341 0.0
O50 O 0.73125 0.05027 0.41364 0.0
C51 C 0.76853 0.19206 0.60947 0.0
O52 O 0.71926 0.20823 0.59697 0.0
N53 N 0.63641 0.10071 0.50236 0.0
C54 C 0.52713 0.08979 0.52831 0.0
C55 C 0.55677 0.05249 0.44636 0.0
C56 C 0.61196 0.05904 0.43271 0.0
C57 C 0.60774 0.13665 0.58338 0.0
C58 C 0.55326 0.13206 0.59732 0.0
H59 H 0.63482 0.03045 0.3702 0.0
H60 H 0.6277 0.16896 0.63963 0.0
H61 H 0.76731 0.10804 0.22112 0.0
H62 H 0.62985 0.1776 0.04715 0.0
H63 H 0.6335 0.05979 1.00602 0.0
H64 H 0.53728 0.01944 0.39229 0.0
H65 H 0.53153 0.16172 0.66068 0.0
C66 C 0.81865 0.66399 0.52475 0.0
C67 C 0.82705 0.66267 0.37157 0.0
N68 N 0.85644 0.70516 0.33442 0.0
N69 N 0.84491 0.70592 0.58311 0.0
C70 C 0.86341 0.73245 0.4626 0.0
H71 H 0.80178 0.63201 0.59009 0.0
Co72 Co 0.87762 0.70835 0.77176 0.0
C73 C 0.99088 0.74761 0.61316 0.0
O74 O 0.0233 0.77009 0.70923 0.0
N75 N 0.90936 0.70979 0.967 0.0
C76 C 0.92633 0.66622 0.18128 0.0
C77 C 0.93739 0.66964 0.02979 0.0
C78 C 0.88572 0.73295 0.08774 0.0
N79 N 0.89302 0.70578 0.21521 0.0
O80 O 0.85012 0.78011 0.80715 0.0
H81 H 0.95762 0.63901 0.96779 0.0
H82 H 0.85853 0.76549 0.08419 0.0
O83 O 0.94562 0.73122 0.66367 0.0
C84 C 0.80383 0.76862 0.85902 0.0
O85 O 0.78765 0.71935 0.84657 0.0
N86 N 0.89521 0.63644 0.75286 0.0
C87 C 0.90611 0.52717 0.77902 0.0
C88 C 0.94333 0.55676 0.69661 0.0
C89 C 0.93678 0.61194 0.68288 0.0
C90 C 0.85935 0.60782 0.83431 0.0
C91 C 0.86394 0.55334 0.84838 0.0
H92 H 0.96529 0.63477 0.61993 0.0
H93 H 0.8271 0.62782 0.89074 0.0
H94 H 0.8878 0.76731 0.47122 0.0
H95 H 0.8187 0.62963 0.29723 0.0
H96 H 0.93659 0.6338 0.25594 0.0
H97 H 0.97628 0.53723 0.64221 0.0
H98 H 0.83434 0.53163 0.91205 0.0
C99 C 0.33163 0.81837 0.77464 0.0
C100 C 0.33292 0.82667 0.62141 0.0
N101 N 0.29054 0.85622 0.58423 0.0
N102 N 0.28982 0.84483 0.83298 0.0
C103 C 0.26333 0.86335 0.71246 0.0
H104 H 0.36355 0.8014 0.83997 0.0
Co105 Co 0.28753 0.87756 1.0216 0.0
C106 C 0.24818 0.9908 0.86293 0.0
O107 O 0.22557 0.02322 0.95878 0.0
N108 N 0.28623 0.9093 0.21693 0.0
C109 C 0.32989 0.92593 0.43131 0.0
C110 C 0.32656 0.93705 0.27986 0.0
C111 C 0.26291 0.88578 0.33761 0.0
N112 N 0.29013 0.89285 0.46512 0.0
O113 O 0.21579 0.85008 0.05734 0.0
H114 H 0.35729 0.95719 0.21802 0.0
H115 H 0.23014 0.85887 0.33399 0.0
O116 O 0.26459 0.94558 0.91365 0.0
C117 C 0.22732 0.80381 0.10933 0.0
O118 O 0.27658 0.78763 0.09679 0.0
N119 N 0.35943 0.89513 1.00229 0.0
C120 C 0.46871 0.90606 1.02835 0.0
C121 C 0.43907 0.94338 0.94642 0.0
C122 C 0.38389 0.93682 0.93272 0.0
C123 C 0.3881 0.85918 0.08326 0.0
C124 C 0.44258 0.86378 0.09726 0.0
H125 H 0.36103 0.96542 0.87025 0.0
H126 H 0.36814 0.82686 0.13946 0.0
H127 H 0.22853 0.88784 0.72106 0.0
H128 H 0.36592 0.81816 0.54705 0.0
H129 H 0.36235 0.93599 0.50603 0.0
H130 H 0.45857 0.97644 0.89242 0.0
H131 H 0.46431 0.83411 0.16059 0.0
C132 C 0.17756 0.66428 0.53405 0.0
C133 C 0.16927 0.66299 0.68728 0.0
N134 N 0.13968 0.70535 0.72448 0.0
N135 N 0.15106 0.70607 0.47571 0.0
C136 C 0.13253 0.73255 0.59625 0.0
H137 H 0.19455 0.63237 0.46872 0.0
Co138 Co 0.11833 0.70834 0.2871 0.0
C139 C 0.00508 0.74768 0.44576 0.0
O140 O 0.97265 0.77028 0.34991 0.0
N141 N 0.08659 0.70961 0.09176 0.0
C142 C 0.07002 0.66593 0.87738 0.0
C143 C 0.05888 0.66925 1.02882 0.0
C144 C 0.11008 0.73295 0.97108 0.0
N145 N 0.10306 0.70572 0.84358 0.0
O146 O 0.1458 0.78008 0.2513 0.0
H147 H 0.03876 0.6385 0.09064 0.0
H148 H 0.13695 0.76576 0.9747 0.0
O149 O 0.0503 0.73127 0.39504 0.0
C150 C 0.19206 0.76855 0.19926 0.0
O151 O 0.20826 0.71929 0.21186 0.0
N152 N 0.10078 0.63643 0.30647 0.0
C153 C 0.08988 0.52715 0.28035 0.0
C154 C 0.05254 0.55677 0.36223 0.0
C155 C 0.05909 0.61196 0.37597 0.0
C156 C 0.13675 0.60777 0.22554 0.0
C157 C 0.13217 0.55329 0.21152 0.0
H158 H 0.03046 0.63481 0.4384 0.0
H159 H 0.16908 0.62774 0.16939 0.0
H160 H 0.10801 0.76733 0.58765 0.0
H161 H 0.17782 0.63 0.76164 0.0
H162 H 0.05999 0.63345 0.80265 0.0
H163 H 0.01947 0.53727 0.41616 0.0
H164 H 0.16186 0.53157 0.14821 0.0
C165 C 0.33181 0.17726 0.78389 0.0
C166 C 0.33311 0.16889 0.93708 0.0
N167 N 0.29065 0.13946 0.97423 0.0
N168 N 0.28991 0.15095 0.72552 0.0
C169 C 0.26338 0.13245 0.84603 0.0
H170 H 0.36377 0.19416 0.71856 0.0
Co171 Co 0.28751 0.11823 0.53688 0.0
C172 C 0.24823 0.00499 0.69552 0.0
O173 O 0.22572 0.97256 0.59951 0.0
N174 N 0.28611 0.08649 0.34161 0.0
C175 C 0.3297 0.06962 0.1273 0.0
C176 C 0.32632 0.05854 0.27878 0.0
C177 C 0.2629 0.11009 0.22089 0.0
N178 N 0.29008 0.10286 0.0934 0.0
O179 O 0.21575 0.14573 0.50139 0.0
H180 H 0.35697 0.03834 0.34073 0.0
H181 H 0.23029 0.1372 0.22446 0.0
O182 O 0.26462 0.05023 0.64494 0.0
C183 C 0.22727 0.192 0.44947 0.0
O184 O 0.27652 0.2082 0.46199 0.0
N185 N 0.35942 0.10065 0.55588 0.0
C186 C 0.4687 0.08977 0.52968 0.0
C187 C 0.4391 0.0525 0.61192 0.0
C188 C 0.38392 0.05904 0.62569 0.0
C189 C 0.38805 0.13655 0.47457 0.0
C190 C 0.44252 0.13197 0.46049 0.0
H191 H 0.36109 0.03049 0.68847 0.0
H192 H 0.36805 0.16882 0.41824 0.0
H193 H 0.22853 0.10803 0.83741 0.0
H194 H 0.36614 0.17729 1.01144 0.0
H195 H 0.36214 0.05942 0.05262 0.0
H196 H 0.45863 0.01951 0.66617 0.0
H197 H 0.46423 0.1616 0.39692 0.0
C198 C 0.81848 0.33178 0.034 0.0
C199 C 0.82685 0.3331 0.18719 0.0
N200 N 0.85633 0.29068 0.22437 0.0
N201 N 0.84484 0.28991 0.97566 0.0
C202 C 0.86336 0.26341 0.09619 0.0
H203 H 0.80155 0.36372 0.96864 0.0
Co204 Co 0.87757 0.28756 0.78703 0.0
C205 C 0.99081 0.24822 0.94575 0.0
O206 O 0.02324 0.22567 0.84983 0.0
N207 N 0.90932 0.28621 0.59174 0.0
C208 C 0.92611 0.32984 0.37743 0.0
C209 C 0.9372 0.32647 0.52891 0.0
C210 C 0.88576 0.26296 0.47101 0.0
N211 N 0.89293 0.29017 0.34354 0.0
O212 O 0.85007 0.21581 0.75137 0.0
H213 H 0.95738 0.35714 0.59084 0.0
H214 H 0.85874 0.23029 0.47457 0.0
O215 O 0.94558 0.26463 0.89507 0.0
C216 C 0.8038 0.22733 0.69937 0.0
O217 O 0.78761 0.27659 0.7119 0.0
N218 N 0.89516 0.35946 0.80622 0.0
C219 C 0.90608 0.46874 0.78034 0.0
C220 C 0.94335 0.4391 0.86244 0.0
C221 C 0.93679 0.38392 0.87604 0.0
C222 C 0.85926 0.38813 0.72506 0.0
C223 C 0.86385 0.44261 0.71115 0.0
H224 H 0.96535 0.36106 0.93871 0.0
H225 H 0.82697 0.36816 0.66871 0.0
H226 H 0.8878 0.22858 0.08759 0.0
H227 H 0.81842 0.36613 0.26151 0.0
H228 H 0.93626 0.36229 0.30276 0.0
H229 H 0.97637 0.4586 0.91666 0.0
H230 H 0.83422 0.46435 0.64768 0.0
C231 C 0.66415 0.81854 0.28356 0.0
C232 C 0.66284 0.82688 0.43676 0.0
N233 N 0.70525 0.85639 0.47394 0.0
N234 N 0.706 0.84492 0.22521 0.0
C235 C 0.7325 0.86344 0.34574 0.0
H236 H 0.63221 0.8016 0.21822 0.0
Co237 Co 0.70834 0.87766 0.03659 0.0
C238 C 0.74765 0.9909 0.1954 0.0
O239 O 0.77023 0.02334 0.09953 0.0
N240 N 0.70968 0.90942 0.84128 0.0
C241 C 0.66602 0.92614 0.62695 0.0
C242 C 0.66939 0.93725 0.77842 0.0
C243 C 0.73295 0.88588 0.72056 0.0
N244 N 0.70573 0.893 0.59308 0.0
O245 O 0.78009 0.85017 1.00091 0.0
H246 H 0.63868 0.9574 0.84032 0.0
H247 H 0.76567 0.8589 0.72414 0.0
O248 O 0.73125 0.94568 0.14466 0.0
C249 C 0.76855 0.80391 0.94884 0.0
O250 O 0.71929 0.78773 0.96133 0.0
N251 N 0.63643 0.89523 0.05579 0.0
C252 C 0.52714 0.90609 0.02973 0.0
C253 C 0.55675 0.9434 0.11179 0.0
C254 C 0.61194 0.93687 0.12549 0.0
C255 C 0.60779 0.8593 0.97465 0.0
C256 C 0.55331 0.86386 0.96064 0.0
H257 H 0.63478 0.96546 0.1881 0.0
H258 H 0.62778 0.82701 0.91836 0.0
H259 H 0.76733 0.8879 0.33714 0.0
H260 H 0.62982 0.81843 0.5111 0.0
H261 H 0.63356 0.93625 0.55228 0.0
H262 H 0.53723 0.97641 0.16593 0.0
H263 H 0.53161 0.8342 0.89718 0.0
loop_
_geom_bond_atom_site_label_1
_geom_bond_atom_site_label_2
_geom_bond_distance
_geom_bond_site_symmetry_2
_ccdc_geom_bond_type
C0 C1 1.351 . S
C0 N3 1.368 . S
C0 H5 0.931 1_556 S
C1 C0 1.351 . S
C1 N2 1.373 . S
C1 H29 0.930 . S
N2 C1 1.373 . S
N2 C4 1.340 . S
N3 C0 1.368 . S
N3 C4 1.321 . S
N3 Co6 2.135 1_556 S
C4 N2 1.340 . S
C4 N3 1.321 . S
C4 H28 0.930 . S
H5 C0 0.931 1_554 S
Co6 N3 2.135 1_554 S
Co6 N9 2.121 . S
Co6 O14 2.055 . S
Co6 O17 2.039 . S
Co6 N20 2.140 . S
C7 O8 1.227 . S
C7 O17 1.265 . S
O8 C7 1.227 . S
N9 Co6 2.121 . S
N9 C11 1.375 . S
N9 C12 1.313 . S
C10 C11 1.338 . S
C10 N13 1.377 . S
C10 H30 0.930 . S
C11 N9 1.375 . S
C11 C10 1.338 . S
C11 H15 0.931 . S
C12 N9 1.313 . S
C12 N13 1.344 . S
C12 H16 0.930 . S
N13 C10 1.377 . S
N13 C12 1.344 . S
O14 Co6 2.055 . S
O14 C18 1.253 . S
H15 C11 0.931 . S
H16 C12 0.930 . S
O17 Co6 2.039 . S
O17 C7 1.265 . S
C18 O14 1.253 . S
C18 O19 1.227 . S
O19 C18 1.227 . S
N20 Co6 2.140 . S
N20 C23 1.346 . S
N20 C24 1.345 . S
C21 C22 1.387 . S
C21 C25 1.391 . S
C22 C21 1.387 . S
C22 C23 1.369 . S
C22 H31 0.929 . S
C23 N20 1.346 . S
C23 C22 1.369 . S
C23 H26 0.928 . S
C24 N20 1.345 . S
C24 C25 1.371 . S
C24 H27 0.931 . S
C25 C21 1.391 . S
C25 C24 1.371 . S
C25 H32 0.930 . S
H26 C23 0.928 . S
H27 C24 0.931 . S
H28 C4 0.930 . S
H29 C1 0.930 . S
H30 C10 0.930 . S
H31 C22 0.929 . S
H32 C25 0.930 . S
C33 C34 1.351 . S
C33 N36 1.368 . S
C33 H38 0.931 . S
C34 C33 1.351 . S
C34 N35 1.373 . S
C34 H62 0.930 . S
N35 C34 1.373 . S
N35 C37 1.340 . S
N36 C33 1.368 . S
N36 C37 1.321 . S
N36 Co39 2.135 . S
C37 N35 1.340 . S
C37 N36 1.321 . S
C37 H61 0.930 . S
H38 C33 0.931 . S
Co39 N36 2.135 . S
Co39 N42 2.121 . S
Co39 O47 2.055 . S
Co39 O50 2.039 . S
Co39 N53 2.140 . S
C40 O41 1.227 . S
C40 O50 1.265 . S
O41 C40 1.227 . S
N42 Co39 2.121 . S
N42 C44 1.375 . S
N42 C45 1.313 . S
C43 C44 1.338 . S
C43 N46 1.377 . S
C43 H63 0.930 . S
C44 N42 1.375 . S
C44 C43 1.338 . S
C44 H48 0.931 . S
C45 N42 1.313 . S
C45 N46 1.344 . S
C45 H49 0.930 . S
N46 C43 1.377 . S
N46 C45 1.344 . S
O47 Co39 2.055 . S
O47 C51 1.253 . S
H48 C44 0.931 . S
H49 C45 0.930 . S
O50 Co39 2.039 . S
O50 C40 1.265 . S
C51 O47 1.253 . S
C51 O52 1.227 . S
O52 C51 1.227 . S
N53 Co39 2.140 . S
N53 C56 1.346 . S
N53 C57 1.345 . S
C54 C55 1.387 . S
C54 C58 1.391 . S
C55 C54 1.387 . S
C55 C56 1.369 . S
C55 H64 0.929 . S
C56 N53 1.346 . S
C56 C55 1.369 . S
C56 H59 0.928 . S
C57 N53 1.345 . S
C57 C58 1.371 . S
C57 H60 0.931 . S
C58 C54 1.391 . S
C58 C57 1.371 . S
C58 H65 0.930 . S
H59 C56 0.928 . S
H60 C57 0.931 . S
H61 C37 0.930 . S
H62 C34 0.930 . S
H63 C43 0.930 . S
H64 C55 0.929 . S
H65 C58 0.930 . S
C66 C67 1.351 . S
C66 N69 1.368 . S
C66 H71 0.931 . S
C67 C66 1.351 . S
C67 N68 1.373 . S
C67 H95 0.930 . S
N68 C67 1.373 . S
N68 C70 1.340 . S
N69 C66 1.368 . S
N69 C70 1.321 . S
N69 Co72 2.135 . S
C70 N68 1.340 . S
C70 N69 1.321 . S
C70 H94 0.930 . S
H71 C66 0.931 . S
Co72 N69 2.135 . S
Co72 N75 2.121 . S
Co72 O80 2.055 . S
Co72 O83 2.039 . S
Co72 N86 2.140 . S
C73 O74 1.227 . S
C73 O83 1.265 . S
O74 C73 1.227 . S
N75 Co72 2.121 . S
N75 C77 1.375 . S
N75 C78 1.313 1_556 S
C76 C77 1.338 1_554 S
C76 N79 1.377 . S
C76 H96 0.930 . S
C77 N75 1.375 . S
C77 C76 1.338 1_556 S
C77 H81 0.931 . S
C78 N75 1.313 1_554 S
C78 N79 1.344 . S
C78 H82 0.930 . S
N79 C76 1.377 . S
N79 C78 1.344 . S
O80 Co72 2.055 . S
O80 C84 1.253 . S
H81 C77 0.931 . S
H82 C78 0.930 . S
O83 Co72 2.039 . S
O83 C73 1.265 . S
C84 O80 1.253 . S
C84 O85 1.227 . S
O85 C84 1.227 . S
N86 Co72 2.140 . S
N86 C89 1.346 . S
N86 C90 1.345 . S
C87 C88 1.387 . S
C87 C91 1.391 . S
C88 C87 1.387 . S
C88 C89 1.369 . S
C88 H97 0.929 . S
C89 N86 1.346 . S
C89 C88 1.369 . S
C89 H92 0.928 . S
C90 N86 1.345 . S
C90 C91 1.371 . S
C90 H93 0.931 . S
C91 C87 1.391 . S
C91 C90 1.371 . S
C91 H98 0.930 . S
H92 C89 0.928 . S
H93 C90 0.931 . S
H94 C70 0.930 . S
H95 C67 0.930 . S
H96 C76 0.930 . S
H97 C88 0.929 . S
H98 C91 0.930 . S
C99 C100 1.351 . S
C99 N102 1.368 . S
C99 H104 0.931 . S
C100 C99 1.351 . S
C100 N101 1.373 . S
C100 H128 0.930 . S
N101 C100 1.373 . S
N101 C103 1.340 . S
N102 C99 1.368 . S
N102 C103 1.321 . S
N102 Co105 2.135 . S
C103 N101 1.340 . S
C103 N102 1.321 . S
C103 H127 0.930 . S
H104 C99 0.931 . S
Co105 N102 2.135 . S
Co105 N108 2.121 1_556 S
Co105 O113 2.055 . S
Co105 O116 2.039 . S
Co105 N119 2.140 . S
C106 O107 1.227 . S
C106 O116 1.265 . S
O107 C106 1.227 . S
N108 Co105 2.121 1_554 S
N108 C110 1.375 . S
N108 C111 1.313 . S
C109 C110 1.338 . S
C109 N112 1.377 . S
C109 H129 0.930 . S
C110 N108 1.375 . S
C110 C109 1.338 . S
C110 H114 0.931 . S
C111 N108 1.313 . S
C111 N112 1.344 . S
C111 H115 0.930 . S
N112 C109 1.377 . S
N112 C111 1.344 . S
O113 Co105 2.055 . S
O113 C117 1.253 1_556 S
H114 C110 0.931 . S
H115 C111 0.930 . S
O116 Co105 2.039 . S
O116 C106 1.265 . S
C117 O113 1.253 1_554 S
C117 O118 1.227 . S
O118 C117 1.227 . S
N119 Co105 2.140 . S
N119 C122 1.346 . S
N119 C123 1.345 1_556 S
C120 C121 1.387 . S
C120 C124 1.391 1_556 S
C121 C120 1.387 . S
C121 C122 1.369 . S
C121 H130 0.929 . S
C122 N119 1.346 . S
C122 C121 1.369 . S
C122 H125 0.928 . S
C123 N119 1.345 1_554 S
C123 C124 1.371 . S
C123 H126 0.931 . S
C124 C120 1.391 1_554 S
C124 C123 1.371 . S
C124 H131 0.930 . S
H125 C122 0.928 . S
H126 C123 0.931 . S
H127 C103 0.930 . S
H128 C100 0.930 . S
H129 C109 0.930 . S
H130 C121 0.929 . S
H131 C124 0.930 . S
C132 C133 1.351 . S
C132 N135 1.368 . S
C132 H137 0.931 . S
C133 C132 1.351 . S
C133 N134 1.373 . S
C133 H161 0.930 . S
N134 C133 1.373 . S
N134 C136 1.340 . S
N135 C132 1.368 . S
N135 C136 1.321 . S
N135 Co138 2.135 . S
C136 N134 1.340 . S
C136 N135 1.321 . S
C136 H160 0.930 . S
H137 C132 0.931 . S
Co138 N135 2.135 . S
Co138 N141 2.121 . S
Co138 O146 2.055 . S
Co138 O149 2.039 . S
Co138 N152 2.140 . S
C139 O140 1.227 . S
C139 O149 1.265 . S
O140 C139 1.227 . S
N141 Co138 2.121 . S
N141 C143 1.375 . S
N141 C144 1.313 1_554 S
C142 C143 1.338 1_556 S
C142 N145 1.377 . S
C142 H162 0.930 . S
C143 N141 1.375 . S
C143 C142 1.338 1_554 S
C143 H147 0.931 . S
C144 N141 1.313 1_556 S
C144 N145 1.344 . S
C144 H148 0.930 . S
N145 C142 1.377 . S
N145 C144 1.344 . S
O146 Co138 2.055 . S
O146 C150 1.253 . S
H147 C143 0.931 . S
H148 C144 0.930 . S
O149 Co138 2.039 . S
O149 C139 1.265 . S
C150 O146 1.253 . S
C150 O151 1.227 . S
O151 C150 1.227 . S
N152 Co138 2.140 . S
N152 C155 1.346 . S
N152 C156 1.345 . S
C153 C154 1.387 . S
C153 C157 1.391 . S
C154 C153 1.387 . S
C154 C155 1.369 . S
C154 H163 0.929 . S
C155 N152 1.346 . S
C155 C154 1.369 . S
C155 H158 0.928 . S
C156 N152 1.345 . S
C156 C157 1.371 . S
C156 H159 0.931 . S
C157 C153 1.391 . S
C157 C156 1.371 . S
C157 H164 0.930 . S
H158 C155 0.928 . S
H159 C156 0.931 . S
H160 C136 0.930 . S
H161 C133 0.930 . S
H162 C142 0.930 . S
H163 C154 0.929 . S
H164 C157 0.930 . S
C165 C166 1.351 . S
C165 N168 1.368 . S
C165 H170 0.931 . S
C166 C165 1.351 . S
C166 N167 1.373 . S
C166 H194 0.930 . S
N167 C166 1.373 . S
N167 C169 1.340 . S
N168 C165 1.368 . S
N168 C169 1.321 . S
N168 Co171 2.135 . S
C169 N167 1.340 . S
C169 N168 1.321 . S
C169 H193 0.930 . S
H170 C165 0.931 . S
Co171 N168 2.135 . S
Co171 N174 2.121 . S
Co171 O179 2.055 . S
Co171 O182 2.039 . S
Co171 N185 2.140 . S
C172 O173 1.227 . S
C172 O182 1.265 . S
O173 C172 1.227 . S
N174 Co171 2.121 . S
N174 C176 1.375 . S
N174 C177 1.313 . S
C175 C176 1.338 . S
C175 N178 1.377 . S
C175 H195 0.930 . S
C176 N174 1.375 . S
C176 C175 1.338 . S
C176 H180 0.931 . S
C177 N174 1.313 . S
C177 N178 1.344 . S
C177 H181 0.930 . S
N178 C175 1.377 . S
N178 C177 1.344 . S
O179 Co171 2.055 . S
O179 C183 1.253 . S
H180 C176 0.931 . S
H181 C177 0.930 . S
O182 Co171 2.039 . S
O182 C172 1.265 . S
C183 O179 1.253 . S
C183 O184 1.227 . S
O184 C183 1.227 . S
N185 Co171 2.140 . S
N185 C188 1.346 . S
N185 C189 1.345 . S
C186 C187 1.387 . S
C186 C190 1.391 . S
C187 C186 1.387 . S
C187 C188 1.369 . S
C187 H196 0.929 . S
C188 N185 1.346 . S
C188 C187 1.369 . S
C188 H191 0.928 . S
C189 N185 1.345 . S
C189 C190 1.371 . S
C189 H192 0.931 . S
C190 C186 1.391 . S
C190 C189 1.371 . S
C190 H197 0.930 . S
H191 C188 0.928 . S
H192 C189 0.931 . S
H193 C169 0.930 . S
H194 C166 0.930 . S
H195 C175 0.930 . S
H196 C187 0.929 . S
H197 C190 0.930 . S
C198 C199 1.351 . S
C198 N201 1.368 . S
C198 H203 0.931 1_554 S
C199 C198 1.351 . S
C199 N200 1.373 . S
C199 H227 0.930 . S
N200 C199 1.373 . S
N200 C202 1.340 . S
N201 C198 1.368 . S
N201 C202 1.321 . S
N201 Co204 2.135 1_554 S
C202 N200 1.340 . S
C202 N201 1.321 . S
C202 H226 0.930 . S
H203 C198 0.931 1_556 S
Co204 N201 2.135 1_556 S
Co204 N207 2.121 . S
Co204 O212 2.055 . S
Co204 O215 2.039 . S
Co204 N218 2.140 . S
C205 O206 1.227 . S
C205 O215 1.265 . S
O206 C205 1.227 . S
N207 Co204 2.121 . S
N207 C209 1.375 . S
N207 C210 1.313 . S
C208 C209 1.338 . S
C208 N211 1.377 . S
C208 H228 0.930 . S
C209 N207 1.375 . S
C209 C208 1.338 . S
C209 H213 0.931 . S
C210 N207 1.313 . S
C210 N211 1.344 . S
C210 H214 0.930 . S
N211 C208 1.377 . S
N211 C210 1.344 . S
O212 Co204 2.055 . S
O212 C216 1.253 . S
H213 C209 0.931 . S
H214 C210 0.930 . S
O215 Co204 2.039 . S
O215 C205 1.265 . S
C216 O212 1.253 . S
C216 O217 1.227 . S
O217 C216 1.227 . S
N218 Co204 2.140 . S
N218 C221 1.346 . S
N218 C222 1.345 . S
C219 C220 1.387 . S
C219 C223 1.391 . S
C220 C219 1.387 . S
C220 C221 1.369 . S
C220 H229 0.929 . S
C221 N218 1.346 . S
C221 C220 1.369 . S
C221 H224 0.928 . S
C222 N218 1.345 . S
C222 C223 1.371 . S
C222 H225 0.931 . S
C223 C219 1.391 . S
C223 C222 1.371 . S
C223 H230 0.930 . S
H224 C221 0.928 . S
H225 C222 0.931 . S
H226 C202 0.930 . S
H227 C199 0.930 . S
H228 C208 0.930 . S
H229 C220 0.929 . S
H230 C223 0.930 . S
C231 C232 1.351 . S
C231 N234 1.368 . S
C231 H236 0.931 . S
C232 C231 1.351 . S
C232 N233 1.373 . S
C232 H260 0.930 . S
N233 C232 1.373 . S
N233 C235 1.340 . S
N234 C231 1.368 . S
N234 C235 1.321 . S
N234 Co237 2.135 . S
C235 N233 1.340 . S
C235 N234 1.321 . S
C235 H259 0.930 . S
H236 C231 0.931 . S
Co237 N234 2.135 . S
Co237 N240 2.121 1_554 S
Co237 O245 2.055 . S
Co237 O248 2.039 . S
Co237 N251 2.140 . S
C238 O239 1.227 . S
C238 O248 1.265 . S
O239 C238 1.227 . S
N240 Co237 2.121 1_556 S
N240 C242 1.375 . S
N240 C243 1.313 . S
C241 C242 1.338 . S
C241 N244 1.377 . S
C241 H261 0.930 . S
C242 N240 1.375 . S
C242 C241 1.338 . S
C242 H246 0.931 . S
C243 N240 1.313 . S
C243 N244 1.344 . S
C243 H247 0.930 . S
N244 C241 1.377 . S
N244 C243 1.344 . S
O245 Co237 2.055 . S
O245 C249 1.253 1_554 S
H246 C242 0.931 . S
H247 C243 0.930 . S
O248 Co237 2.039 . S
O248 C238 1.265 . S
C249 O245 1.253 1_556 S
C249 O250 1.227 . S
O250 C249 1.227 . S
N251 Co237 2.140 . S
N251 C254 1.346 . S
N251 C255 1.345 1_554 S
C252 C253 1.387 . S
C252 C256 1.391 1_554 S
C253 C252 1.387 . S
C253 C254 1.369 . S
C253 H262 0.929 . S
C254 N251 1.346 . S
C254 C253 1.369 . S
C254 H257 0.928 . S
C255 N251 1.345 1_556 S
C255 C256 1.371 . S
C255 H258 0.931 . S
C256 C252 1.391 1_556 S
C256 C255 1.371 . S
C256 H263 0.930 . S
H257 C254 0.928 . S
H258 C255 0.931 . S
H259 C235 0.930 . S
H260 C232 0.930 . S
H261 C241 0.930 . S
H262 C253 0.929 . S
H263 C256 0.930 . S
C183 C18 1.673 . S
C216 C51 1.673 . S
C84 C249 1.673 . S
C150 C117 1.673 . S
N13 N2 2.371 . S
N35 N46 2.371 1_554 S
N79 N68 2.371 . S
N112 N101 2.371 . S
N145 N134 2.371 . S
N178 N167 2.371 1_554 S
N211 N200 2.371 . S
N233 N244 2.371 . S
C7 C205 1.794 1_454 S
C238 C40 1.794 1_565 S
C139 C73 1.794 1_455 S
C106 C172 1.794 1_565 S
C21 C153 1.683 . S
C54 C186 1.683 . S
C87 C219 1.683 . S
C252 C120 1.683 1_554 S
