# Generated by pormake.
# Topology ukg, (4)-cn, num edge types: 1
# Building blocks:
#     Node 0, Type 0, BuildingBlock: QUQFOY_clean_sbu_3, # of connection points: 4
#     Node 1, Type 0, BuildingBlock: QUQFOY_clean_sbu_3, # of connection points: 4
#     Node 2, Type 0, BuildingBlock: QUQFOY_clean_sbu_3, # of connection points: 4
#     Node 3, Type 0, BuildingBlock: QUQFOY_clean_sbu_3, # of connection points: 4
#     Node 4, Type 0, BuildingBlock: QUQFOY_clean_sbu_3, # of connection points: 4
#     Node 5, Type 0, BuildingBlock: QUQFOY_clean_sbu_3, # of connection points: 4
#     Node 6, Type 0, BuildingBlock: QUQFOY_clean_sbu_3, # of connection points: 4
#     Node 7, Type 0, BuildingBlock: QUQFOY_clean_sbu_3, # of connection points: 4
#     Edge 8, Type (0, 0), BuildingBlock: EYOCIG_clean_linker_4, # of connection points: 2
#     Edge 9, Type (0, 0), BuildingBlock: EYOCIG_clean_linker_4, # of connection points: 2
#     Edge 10, Type (0, 0), BuildingBlock: EYOCIG_clean_linker_4, # of connection points: 2
#     Edge 11, Type (0, 0), BuildingBlock: EYOCIG_clean_linker_4, # of connection points: 2
#     Edge 12, Type (0, 0), BuildingBlock: EYOCIG_clean_linker_4, # of connection points: 2
#     Edge 13, Type (0, 0), BuildingBlock: EYOCIG_clean_linker_4, # of connection points: 2
#     Edge 14, Type (0, 0), BuildingBlock: EYOCIG_clean_linker_4, # of connection points: 2
#     Edge 15, Type (0, 0), BuildingBlock: EYOCIG_clean_linker_4, # of connection points: 2
#     Edge 16, Type (0, 0), BuildingBlock: EYOCIG_clean_linker_4, # of connection points: 2
#     Edge 17, Type (0, 0), BuildingBlock: EYOCIG_clean_linker_4, # of connection points: 2
#     Edge 18, Type (0, 0), BuildingBlock: EYOCIG_clean_linker_4, # of connection points: 2
#     Edge 19, Type (0, 0), BuildingBlock: EYOCIG_clean_linker_4, # of connection points: 2
#     Edge 20, Type (0, 0), BuildingBlock: EYOCIG_clean_linker_4, # of connection points: 2
#     Edge 21, Type (0, 0), BuildingBlock: EYOCIG_clean_linker_4, # of connection points: 2
#     Edge 22, Type (0, 0), BuildingBlock: EYOCIG_clean_linker_4, # of connection points: 2
#     Edge 23, Type (0, 0), BuildingBlock: EYOCIG_clean_linker_4, # of connection points: 2
# Relax obj value: 0.113
# Max RMSD: 0.202
# Mean RMSD: 0.198
data_MOF--net-ukg--node1-QUQFOY_clean_sbu_3--edge1-EYOCIG_clean_linker_4
_symmetry_space_group_name_H-M    P1
_symmetry_Int_Tables_number       1
_symmetry_cell_setting            triclinic
loop_
_symmetry_equiv_pos_as_xyz
'x, y, z'
_cell_length_a     25.718477
_cell_length_b     25.728808
_cell_length_c     32.82274
_cell_angle_alpha  90.018587
_cell_angle_beta   90.036777
_cell_angle_gamma 89.962417
loop_
_atom_site_label
_atom_site_type_symbol
_atom_site_fract_x
_atom_site_fract_y
_atom_site_fract_z
_atom_type_partial_charge
C0 C 0.10528 0.64433 0.16069 0.0
O1 O 0.09732 0.63184 0.19753 0.0
Cd2 Cd 0.01293 0.61205 0.22418 0.0
O3 O 0.07032 0.6385 0.13362 0.0
Cd4 Cd -0.01905 0.60273 0.12816 0.0
C5 C 0.95494 0.71641 0.17493 0.0
O6 O -0.03075 0.54652 0.18724 0.0
O7 O 0.89992 0.58087 0.16069 0.0
O8 O 0.0063 0.5336 0.08183 0.0
C9 C 0.92007 0.5513 0.18722 0.0
O10 O -0.02976 0.69355 0.20717 0.0
C11 C -0.0258 0.54556 0.05401 0.0
O12 O 0.95592 0.69419 0.1401 0.0
O13 O 0.94668 0.58615 0.05921 0.0
C14 C 0.28125 0.60579 0.66169 0.0
O15 O 0.29351 0.5977 0.69857 0.0
Cd16 Cd 0.31553 0.51391 0.7252 0.0
O17 O 0.28801 0.57123 0.63444 0.0
Cd18 Cd 0.3252 0.4823 0.62898 0.0
C19 C 0.21243 0.45344 0.67624 0.0
O20 O 0.38216 0.47247 0.68794 0.0
O21 O 0.34964 0.40216 0.66176 0.0
O22 O 0.39322 0.50788 0.58169 0.0
C23 C 0.37881 0.42322 0.68811 0.0
O24 O 0.23501 0.46921 0.70847 0.0
C25 C 0.38127 0.47519 0.55432 0.0
O26 O 0.23448 0.45511 0.64139 0.0
O27 O 0.34113 0.44728 0.56018 0.0
C28 C 0.32085 0.78344 0.16064 0.0
O29 O 0.32904 0.79543 0.19756 0.0
Cd30 Cd 0.41322 0.8161 0.2243 0.0
O31 O 0.35555 0.78987 0.13348 0.0
Cd32 Cd 0.44477 0.82615 0.12825 0.0
C33 C 0.47265 0.71271 0.1749 0.0
O34 O 0.4557 0.88249 0.18747 0.0
O35 O 0.52546 0.84936 0.16075 0.0
O36 O 0.41891 0.8951 0.08193 0.0
C37 C 0.50495 0.8786 0.18732 0.0
O38 O 0.45706 0.73528 0.20718 0.0
C39 C 0.45116 0.88345 0.05417 0.0
O40 O 0.47121 0.73498 0.14011 0.0
O41 O 0.47898 0.84306 0.05937 0.0
C42 C 0.14177 0.82136 0.662 0.0
O43 O 0.12945 0.82993 0.6988 0.0
Cd44 Cd 0.11013 0.91477 0.72468 0.0
O45 O 0.13628 0.85603 0.63469 0.0
Cd46 Cd 0.10168 0.94577 0.62836 0.0
C47 C 0.2152 -0.0285 0.67569 0.0
O48 O 0.04495 0.958 0.68701 0.0
O49 O 0.07927 0.02721 0.66048 0.0
O50 O 0.03313 0.92061 0.58139 0.0
C51 C 0.04963 0.00714 0.68696 0.0
O52 O 0.19203 0.95673 0.70792 0.0
C53 C 0.04579 0.95231 0.55353 0.0
O54 O 0.1932 -0.02974 0.64078 0.0
O55 O 0.0865 -0.02047 0.55903 0.0
C56 C -0.01627 0.36589 0.73912 0.0
O57 O 0.94683 0.35247 0.71578 0.0
Cd58 Cd 0.87951 0.29369 0.7368 0.0
O59 O -0.01695 0.35513 0.77696 0.0
Cd60 Cd 0.92462 0.316 0.82887 0.0
C61 C 0.96069 0.20412 0.7848 0.0
O62 O 0.8384 0.32052 0.79766 0.0
O63 O 0.84919 0.26386 0.8457 0.0
O64 O 0.92267 0.39735 0.86632 0.0
C65 C 0.81964 0.28409 0.81921 0.0
O66 O 0.93038 0.21793 0.7561 0.0
C67 C 0.94143 0.37914 0.89908 0.0
O68 O -0.03061 0.23307 0.81564 0.0
O69 O 0.95253 0.33096 0.89992 0.0
C70 C 0.56038 0.48454 0.23882 0.0
O71 O 0.57405 0.44749 0.21572 0.0
Cd72 Cd 0.63338 0.38053 0.23683 0.0
O73 O 0.57114 0.48428 0.27668 0.0
Cd74 Cd 0.61072 0.42633 0.32888 0.0
C75 C 0.7225 0.46243 0.2845 0.0
O76 O 0.60747 0.33994 0.29805 0.0
O77 O 0.66389 0.35165 0.34618 0.0
O78 O 0.52929 0.42325 0.36626 0.0
C79 C 0.64421 0.32177 0.31967 0.0
O80 O 0.70883 0.43185 0.25596 0.0
C81 C 0.54709 0.4426 0.39894 0.0
O82 O 0.6935 0.47132 0.31529 0.0
O83 O 0.59506 0.4546 0.39978 0.0
C84 C 0.44262 0.06092 0.73935 0.0
O85 O 0.47901 0.07554 0.71599 0.0
Cd86 Cd 0.54621 0.13489 0.73657 0.0
O87 O 0.44309 0.07157 0.77722 0.0
Cd88 Cd 0.50052 0.11255 0.82899 0.0
C89 C 0.46579 0.22499 0.78462 0.0
O90 O 0.5866 0.10864 0.79783 0.0
O91 O 0.57586 0.16461 0.84638 0.0
O92 O 0.5037 0.03185 0.86716 0.0
C93 C 0.60527 0.14502 0.81952 0.0
O94 O 0.49604 0.21104 0.75595 0.0
C95 C 0.4837 0.05 0.89946 0.0
O96 O 0.45655 0.1959 0.81528 0.0
O97 O 0.4714 0.09791 0.89976 0.0
C98 C 0.86695 0.94446 0.23856 0.0
O99 O 0.85315 -0.0186 0.21541 0.0
Cd100 Cd 0.7939 0.04856 0.23632 0.0
O101 O 0.85599 0.94466 0.27637 0.0
Cd102 Cd 0.81594 0.00234 0.3284 0.0
C103 C 0.70364 -0.03233 0.28357 0.0
O104 O 0.82025 0.08869 0.29768 0.0
O105 O 0.76405 0.07781 0.34601 0.0
O106 O 0.89741 0.00459 0.36573 0.0
C107 C 0.78392 0.10738 0.31941 0.0
O108 O 0.7177 -0.00189 0.25507 0.0
C109 C 0.87962 -0.01495 0.39831 0.0
O110 O 0.73256 0.95841 0.31437 0.0
O111 O 0.83156 -0.02662 0.39915 0.0
C112 C 0.95612 0.44362 0.96073 0.0
C113 C 0.95017 0.41262 0.9335 0.0
C114 C 0.96215 0.48108 -0.00804 0.0
C115 C -0.03352 0.51151 0.01977 0.0
C116 C 0.44507 0.46278 0.49189 0.0
C117 C 0.41494 0.46723 0.51988 0.0
C118 C 0.48237 0.4568 0.46053 0.0
C119 C 0.51338 0.45107 0.43328 0.0
C120 C 0.46295 0.94819 -0.00769 0.0
C121 C 0.45873 0.91765 0.02004 0.0
C122 C 0.46888 -0.01427 0.96116 0.0
C123 C 0.47479 0.0167 0.93393 0.0
C124 C 0.94464 -0.02985 0.45965 0.0
C125 C 0.91342 -0.02383 0.43255 0.0
C126 C -0.01789 -0.0358 0.49091 0.0
C127 C 0.01228 0.96002 0.51893 0.0
C128 C 0.19052 0.69826 0.14664 0.0
C129 C 0.15101 0.67379 0.15119 0.0
C130 C 0.23557 0.72955 0.14657 0.0
C131 C 0.2751 0.75402 0.15103 0.0
C132 C 0.22639 0.69056 0.648 0.0
C133 C 0.2513 0.65126 0.65224 0.0
C134 C 0.19502 0.73557 0.64825 0.0
C135 C 0.17085 0.77528 0.65279 0.0
C136 C 0.69046 0.19818 0.80437 0.0
C137 C 0.65252 0.17129 0.80883 0.0
C138 C 0.73372 0.23194 0.80432 0.0
C139 C 0.77196 0.25846 0.80865 0.0
C140 C 0.69754 0.23646 0.30488 0.0
C141 C 0.6706 0.27443 0.30925 0.0
C142 C 0.73136 0.19319 0.30478 0.0
C143 C 0.75801 0.15499 0.30901 0.0
C144 C 0.81269 0.50351 0.26732 0.0
C145 C 0.77148 0.48817 0.27985 0.0
C146 C 0.8564 0.51834 0.24421 0.0
C147 C 0.88861 0.53157 0.21971 0.0
C148 C 0.41223 0.36042 0.74549 0.0
C149 C 0.39891 0.39258 0.72096 0.0
C150 C 0.42654 0.31629 0.76833 0.0
C151 C 0.44108 0.27458 0.78043 0.0
C152 C 0.56873 0.91265 0.2439 0.0
C153 C 0.5363 0.89897 0.21969 0.0
C154 C 0.61281 0.92757 0.26661 0.0
C155 C 0.65431 0.94258 0.27889 0.0
C156 C 0.00194 0.11401 0.76763 0.0
C157 C -0.01351 0.15517 0.7802 0.0
C158 C 0.01687 0.0705 0.74431 0.0
C159 C 0.03007 0.03853 0.71959 0.0
C160 C 0.06885 0.40525 0.70643 0.0
C161 C 0.03004 0.38728 0.72144 0.0
C162 C 0.1169 0.42182 0.69019 0.0
C163 C 0.15996 0.43531 0.68027 0.0
C164 C 0.52056 0.56919 0.20556 0.0
C165 C 0.53873 0.53059 0.2208 0.0
C166 C 0.50391 0.61709 0.18902 0.0
C167 C 0.49061 0.66015 0.17889 0.0
C168 C 0.3588 0.01893 0.70652 0.0
C169 C 0.39698 0.03809 0.72165 0.0
C170 C 0.31108 0.00176 0.69002 0.0
C171 C 0.26792 -0.01119 0.6799 0.0
C172 C 0.92459 0.8123 0.1891 0.0
C173 C 0.93752 0.76912 0.17901 0.0
C174 C 0.90779 0.86018 0.20555 0.0
C175 C 0.88915 0.89862 0.22067 0.0
loop_
_geom_bond_atom_site_label_1
_geom_bond_atom_site_label_2
_geom_bond_distance
_geom_bond_site_symmetry_2
_ccdc_geom_bond_type
C0 O1 1.306 . S
C0 O3 1.160 . S
O1 C0 1.306 . S
O1 Cd2 2.228 . S
Cd2 O1 2.228 . S
Cd2 O6 2.273 . S
Cd2 O10 2.277 . S
O3 C0 1.160 . S
O3 Cd4 2.203 . S
Cd4 O3 2.203 . S
Cd4 O6 2.411 . S
Cd4 O7 2.333 1_455 S
Cd4 O8 2.352 . S
Cd4 O12 2.277 1_455 S
Cd4 O13 2.356 1_455 S
C5 O10 1.209 1_655 S
C5 O12 1.226 . S
O6 Cd2 2.273 . S
O6 Cd4 2.411 . S
O6 C9 1.320 1_455 S
O7 Cd4 2.333 1_655 S
O7 C9 1.214 . S
O8 Cd4 2.352 . S
O8 C11 1.258 . S
C9 O6 1.320 1_655 S
C9 O7 1.214 . S
O10 Cd2 2.277 . S
O10 C5 1.209 1_455 S
C11 O8 1.258 . S
C11 O13 1.282 1_455 S
O12 Cd4 2.277 1_655 S
O12 C5 1.226 . S
O13 Cd4 2.356 1_655 S
O13 C11 1.282 1_655 S
C14 O15 1.306 . S
C14 O17 1.160 . S
O15 C14 1.306 . S
O15 Cd16 2.228 . S
Cd16 O15 2.228 . S
Cd16 O20 2.273 . S
Cd16 O24 2.277 . S
O17 C14 1.160 . S
O17 Cd18 2.203 . S
Cd18 O17 2.203 . S
Cd18 O20 2.411 . S
Cd18 O21 2.333 . S
Cd18 O22 2.352 . S
Cd18 O26 2.277 . S
Cd18 O27 2.356 . S
C19 O24 1.209 . S
C19 O26 1.226 . S
O20 Cd16 2.273 . S
O20 Cd18 2.411 . S
O20 C23 1.320 . S
O21 Cd18 2.333 . S
O21 C23 1.214 . S
O22 Cd18 2.352 . S
O22 C25 1.258 . S
C23 O20 1.320 . S
C23 O21 1.214 . S
O24 Cd16 2.277 . S
O24 C19 1.209 . S
C25 O22 1.258 . S
C25 O27 1.282 . S
O26 Cd18 2.277 . S
O26 C19 1.226 . S
O27 Cd18 2.356 . S
O27 C25 1.282 . S
C28 O29 1.306 . S
C28 O31 1.160 . S
O29 C28 1.306 . S
O29 Cd30 2.228 . S
Cd30 O29 2.228 . S
Cd30 O34 2.273 . S
Cd30 O38 2.277 . S
O31 C28 1.160 . S
O31 Cd32 2.203 . S
Cd32 O31 2.203 . S
Cd32 O34 2.411 . S
Cd32 O35 2.333 . S
Cd32 O36 2.352 . S
Cd32 O40 2.277 . S
Cd32 O41 2.356 . S
C33 O38 1.209 . S
C33 O40 1.226 . S
O34 Cd30 2.273 . S
O34 Cd32 2.411 . S
O34 C37 1.320 . S
O35 Cd32 2.333 . S
O35 C37 1.214 . S
O36 Cd32 2.352 . S
O36 C39 1.258 . S
C37 O34 1.320 . S
C37 O35 1.214 . S
O38 Cd30 2.277 . S
O38 C33 1.209 . S
C39 O36 1.258 . S
C39 O41 1.282 . S
O40 Cd32 2.277 . S
O40 C33 1.226 . S
O41 Cd32 2.356 . S
O41 C39 1.282 . S
C42 O43 1.306 . S
C42 O45 1.160 . S
O43 C42 1.306 . S
O43 Cd44 2.228 . S
Cd44 O43 2.228 . S
Cd44 O48 2.273 . S
Cd44 O52 2.277 . S
O45 C42 1.160 . S
O45 Cd46 2.203 . S
Cd46 O45 2.203 . S
Cd46 O48 2.411 . S
Cd46 O49 2.333 1_565 S
Cd46 O50 2.352 . S
Cd46 O54 2.277 1_565 S
Cd46 O55 2.356 1_565 S
C47 O52 1.209 1_545 S
C47 O54 1.226 . S
O48 Cd44 2.273 . S
O48 Cd46 2.411 . S
O48 C51 1.320 1_565 S
O49 Cd46 2.333 1_545 S
O49 C51 1.214 . S
O50 Cd46 2.352 . S
O50 C53 1.258 . S
C51 O48 1.320 1_545 S
C51 O49 1.214 . S
O52 Cd44 2.277 . S
O52 C47 1.209 1_565 S
C53 O50 1.258 . S
C53 O55 1.282 1_565 S
O54 Cd46 2.277 1_545 S
O54 C47 1.226 . S
O55 Cd46 2.356 1_545 S
O55 C53 1.282 1_545 S
C56 O57 1.306 1_455 S
C56 O59 1.160 . S
O57 C56 1.306 1_655 S
O57 Cd58 2.228 . S
Cd58 O57 2.228 . S
Cd58 O62 2.273 . S
Cd58 O66 2.277 . S
O59 C56 1.160 . S
O59 Cd60 2.203 1_455 S
Cd60 O59 2.203 1_655 S
Cd60 O62 2.411 . S
Cd60 O63 2.333 . S
Cd60 O64 2.352 . S
Cd60 O68 2.277 1_655 S
Cd60 O69 2.356 . S
C61 O66 1.209 1_455 S
C61 O68 1.226 . S
O62 Cd58 2.273 . S
O62 Cd60 2.411 . S
O62 C65 1.320 . S
O63 Cd60 2.333 . S
O63 C65 1.214 . S
O64 Cd60 2.352 . S
O64 C67 1.258 . S
C65 O62 1.320 . S
C65 O63 1.214 . S
O66 Cd58 2.277 . S
O66 C61 1.209 1_655 S
C67 O64 1.258 . S
C67 O69 1.282 . S
O68 Cd60 2.277 1_455 S
O68 C61 1.226 . S
O69 Cd60 2.356 . S
O69 C67 1.282 . S
C70 O71 1.306 . S
C70 O73 1.160 . S
O71 C70 1.306 . S
O71 Cd72 2.228 . S
Cd72 O71 2.228 . S
Cd72 O76 2.273 . S
Cd72 O80 2.277 . S
O73 C70 1.160 . S
O73 Cd74 2.203 . S
Cd74 O73 2.203 . S
Cd74 O76 2.411 . S
Cd74 O77 2.333 . S
Cd74 O78 2.352 . S
Cd74 O82 2.277 . S
Cd74 O83 2.356 . S
C75 O80 1.209 . S
C75 O82 1.226 . S
O76 Cd72 2.273 . S
O76 Cd74 2.411 . S
O76 C79 1.320 . S
O77 Cd74 2.333 . S
O77 C79 1.214 . S
O78 Cd74 2.352 . S
O78 C81 1.258 . S
C79 O76 1.320 . S
C79 O77 1.214 . S
O80 Cd72 2.277 . S
O80 C75 1.209 . S
C81 O78 1.258 . S
C81 O83 1.282 . S
O82 Cd74 2.277 . S
O82 C75 1.226 . S
O83 Cd74 2.356 . S
O83 C81 1.282 . S
C84 O85 1.306 . S
C84 O87 1.160 . S
O85 C84 1.306 . S
O85 Cd86 2.228 . S
Cd86 O85 2.228 . S
Cd86 O90 2.273 . S
Cd86 O94 2.277 . S
O87 C84 1.160 . S
O87 Cd88 2.203 . S
Cd88 O87 2.203 . S
Cd88 O90 2.411 . S
Cd88 O91 2.333 . S
Cd88 O92 2.352 . S
Cd88 O96 2.277 . S
Cd88 O97 2.356 . S
C89 O94 1.209 . S
C89 O96 1.226 . S
O90 Cd86 2.273 . S
O90 Cd88 2.411 . S
O90 C93 1.320 . S
O91 Cd88 2.333 . S
O91 C93 1.214 . S
O92 Cd88 2.352 . S
O92 C95 1.258 . S
C93 O90 1.320 . S
C93 O91 1.214 . S
O94 Cd86 2.277 . S
O94 C89 1.209 . S
C95 O92 1.258 . S
C95 O97 1.282 . S
O96 Cd88 2.277 . S
O96 C89 1.226 . S
O97 Cd88 2.356 . S
O97 C95 1.282 . S
C98 O99 1.306 1_565 S
C98 O101 1.160 . S
O99 C98 1.306 1_545 S
O99 Cd100 2.228 . S
Cd100 O99 2.228 . S
Cd100 O104 2.273 . S
Cd100 O108 2.277 . S
O101 C98 1.160 . S
O101 Cd102 2.203 1_565 S
Cd102 O101 2.203 1_545 S
Cd102 O104 2.411 . S
Cd102 O105 2.333 . S
Cd102 O106 2.352 . S
Cd102 O110 2.277 1_545 S
Cd102 O111 2.356 . S
C103 O108 1.209 1_565 S
C103 O110 1.226 . S
O104 Cd100 2.273 . S
O104 Cd102 2.411 . S
O104 C107 1.320 . S
O105 Cd102 2.333 . S
O105 C107 1.214 . S
O106 Cd102 2.352 . S
O106 C109 1.258 . S
C107 O104 1.320 . S
C107 O105 1.214 . S
O108 Cd100 2.277 . S
O108 C103 1.209 1_545 S
C109 O106 1.258 . S
C109 O111 1.282 . S
O110 Cd102 2.277 1_565 S
O110 C103 1.226 . S
O111 Cd102 2.356 . S
O111 C109 1.282 . S
C112 C113 1.170 . S
C112 C114 1.380 1_556 S
C113 C112 1.170 . S
C114 C112 1.380 1_554 S
C114 C115 1.170 1_655 S
C115 C114 1.170 1_455 S
C116 C117 1.170 . S
C116 C118 1.380 . S
C117 C116 1.170 . S
C118 C116 1.380 . S
C118 C119 1.170 . S
C119 C118 1.170 . S
C120 C121 1.170 . S
C120 C122 1.380 1_564 S
C121 C120 1.170 . S
C122 C120 1.380 1_546 S
C122 C123 1.170 . S
C123 C122 1.170 . S
C124 C125 1.170 . S
C124 C126 1.380 1_655 S
C125 C124 1.170 . S
C126 C124 1.380 1_455 S
C126 C127 1.170 1_545 S
C127 C126 1.170 1_565 S
C128 C129 1.170 . S
C128 C130 1.380 . S
C129 C128 1.170 . S
C130 C128 1.380 . S
C130 C131 1.170 . S
C131 C130 1.170 . S
C132 C133 1.170 . S
C132 C134 1.380 . S
C133 C132 1.170 . S
C134 C132 1.380 . S
C134 C135 1.170 . S
C135 C134 1.170 . S
C136 C137 1.170 . S
C136 C138 1.380 . S
C137 C136 1.170 . S
C138 C136 1.380 . S
C138 C139 1.170 . S
C139 C138 1.170 . S
C140 C141 1.170 . S
C140 C142 1.380 . S
C141 C140 1.170 . S
C142 C140 1.380 . S
C142 C143 1.170 . S
C143 C142 1.170 . S
C144 C145 1.170 . S
C144 C146 1.380 . S
C145 C144 1.170 . S
C146 C144 1.380 . S
C146 C147 1.170 . S
C147 C146 1.170 . S
C148 C149 1.170 . S
C148 C150 1.380 . S
C149 C148 1.170 . S
C150 C148 1.380 . S
C150 C151 1.170 . S
C151 C150 1.170 . S
C152 C153 1.170 . S
C152 C154 1.380 . S
C153 C152 1.170 . S
C154 C152 1.380 . S
C154 C155 1.170 . S
C155 C154 1.170 . S
C156 C157 1.170 . S
C156 C158 1.380 . S
C157 C156 1.170 . S
C158 C156 1.380 . S
C158 C159 1.170 . S
C159 C158 1.170 . S
C160 C161 1.170 . S
C160 C162 1.380 . S
C161 C160 1.170 . S
C162 C160 1.380 . S
C162 C163 1.170 . S
C163 C162 1.170 . S
C164 C165 1.170 . S
C164 C166 1.380 . S
C165 C164 1.170 . S
C166 C164 1.380 . S
C166 C167 1.170 . S
C167 C166 1.170 . S
C168 C169 1.170 . S
C168 C170 1.380 . S
C169 C168 1.170 . S
C170 C168 1.380 . S
C170 C171 1.170 . S
C171 C170 1.170 . S
C172 C173 1.170 . S
C172 C174 1.380 . S
C173 C172 1.170 . S
C174 C172 1.380 . S
C174 C175 1.170 . S
C175 C174 1.170 . S
C113 C67 1.610 . S
C115 C11 1.583 . S
C117 C25 1.587 . S
C119 C81 1.609 . S
C121 C39 1.583 . S
C123 C95 1.608 . S
C125 C109 1.599 . S
C127 C53 1.603 . S
C129 C0 1.476 . S
C131 C28 1.484 . S
C133 C14 1.468 . S
C135 C42 1.501 . S
C137 C93 1.428 . S
C139 C65 1.467 . S
C141 C79 1.430 . S
C143 C107 1.464 . S
C145 C75 1.173 . S
C147 C9 1.130 . S
C149 C23 1.172 . S
C151 C89 1.176 . S
C153 C37 1.151 . S
C155 C103 1.161 . S
C157 C61 1.185 . S
C159 C51 1.134 . S
C161 C56 1.152 . S
C163 C19 1.198 . S
C165 C70 1.162 . S
C167 C33 1.202 . S
C169 C84 1.191 . S
C171 C47 1.194 . S
C173 C5 1.198 . S
C175 C98 1.189 . S
