# Generated by pormake.
# Topology qtz-x, (6)-cn, num edge types: 1
# Building blocks:
#     Node 0, Type 0, BuildingBlock: CIFDUS_clean_sbu_1, # of connection points: 6
#     Node 1, Type 0, BuildingBlock: CIFDUS_clean_sbu_1, # of connection points: 6
#     Node 2, Type 0, BuildingBlock: CIFDUS_clean_sbu_1, # of connection points: 6
#     Edge 3, Type (0, 0), BuildingBlock: EYOCIG_clean_linker_4, # of connection points: 2
#     Edge 4, Type (0, 0), BuildingBlock: EYOCIG_clean_linker_4, # of connection points: 2
#     Edge 5, Type (0, 0), BuildingBlock: EYOCIG_clean_linker_4, # of connection points: 2
#     Edge 6, Type (0, 0), BuildingBlock: EYOCIG_clean_linker_4, # of connection points: 2
#     Edge 7, Type (0, 0), BuildingBlock: EYOCIG_clean_linker_4, # of connection points: 2
#     Edge 8, Type (0, 0), BuildingBlock: EYOCIG_clean_linker_4, # of connection points: 2
#     Edge 9, Type (0, 0), BuildingBlock: EYOCIG_clean_linker_4, # of connection points: 2
#     Edge 10, Type (0, 0), BuildingBlock: EYOCIG_clean_linker_4, # of connection points: 2
#     Edge 11, Type (0, 0), BuildingBlock: EYOCIG_clean_linker_4, # of connection points: 2
# Relax obj value: 0.267
# Max RMSD: 0.255
# Mean RMSD: 0.254
data_MOF--net-qtz-x--node1-CIFDUS_clean_sbu_1--edge1-EYOCIG_clean_linker_4
_symmetry_space_group_name_H-M    P1
_symmetry_Int_Tables_number       1
_symmetry_cell_setting            triclinic
loop_
_symmetry_equiv_pos_as_xyz
'x, y, z'
_cell_length_a     12.580735
_cell_length_b     12.576629
_cell_length_c     30.518913
_cell_angle_alpha  96.371617
_cell_angle_beta   90.634266
_cell_angle_gamma 120.13366
loop_
_atom_site_label
_atom_site_type_symbol
_atom_site_fract_x
_atom_site_fract_y
_atom_site_fract_z
_atom_type_partial_charge
O0 O 0.00956 0.33261 0.15226 0.0
Mn1 Mn 0.01703 0.50138 0.14956 0.0
O2 O 0.2071 0.37602 0.14866 0.0
Mn3 Mn 0.27979 0.54048 0.13859 0.0
O4 O 0.0319 0.67487 0.14717 0.0
O5 O 0.86833 0.4438 0.18713 0.0
Mn6 Mn 0.7722 0.49277 0.16473 0.0
O7 O 0.90265 0.43131 0.09077 0.0
O8 O 0.85937 0.66326 0.17217 0.0
O9 O 0.13557 0.58203 0.208 0.0
O10 O 0.32959 0.65659 0.18787 0.0
O11 O 0.6904 0.412 0.21019 0.0
O12 O 0.72409 0.4226 0.10646 0.0
C13 C 0.22034 0.56456 0.07666 0.0
C14 C 0.09288 0.30167 0.15233 0.0
C15 C 0.96719 0.72424 0.15958 0.0
C16 C 0.78509 0.39875 0.21558 0.0
C17 C 0.79465 0.41084 0.07938 0.0
C18 C 0.25352 0.65078 0.21578 0.0
O19 O 0.16063 0.54914 0.11178 0.0
O20 O 0.3283 0.57766 0.08286 0.0
O21 O 0.39637 0.06376 0.48688 0.0
Mn22 Mn 0.55756 0.05445 0.48673 0.0
O23 O 0.23996 0.86633 0.48661 0.0
Mn24 Mn 0.32916 0.78472 0.48053 0.0
O25 O 0.71838 0.04256 0.48714 0.0
O26 O 0.65151 0.23001 0.5181 0.0
Mn27 Mn 0.79402 0.31651 0.4955 0.0
O28 O 0.59717 0.12013 0.42472 0.0
O29 O 0.88051 0.23687 0.50469 0.0
O30 O 0.52158 0.98311 0.54843 0.0
O31 O 0.39529 0.7751 0.53254 0.0
O32 O 0.78656 0.42368 0.54028 0.0
O33 O 0.76018 0.31556 0.43624 0.0
C34 C 0.41496 0.80463 0.41963 0.0
C35 C 0.28162 0.98244 0.4879 0.0
C36 C 0.83428 0.11995 0.49647 0.0
C37 C 0.68141 0.32825 0.54563 0.0
C38 C 0.6788 0.22094 0.41079 0.0
C39 C 0.46618 0.87183 0.55927 0.0
O40 O 0.46154 0.88212 0.45512 0.0
O41 O 0.31796 0.70122 0.42518 0.0
O42 O 0.28167 0.34543 0.814 0.0
Mn43 Mn 0.45393 0.50581 0.81548 0.0
O44 O 0.31925 0.18616 0.80626 0.0
Mn45 Mn 0.48736 0.27573 0.80009 0.0
O46 O 0.62914 0.66458 0.81731 0.0
O47 O 0.38845 0.60019 0.85333 0.0
Mn48 Mn 0.44518 0.74807 0.83699 0.0
O49 O 0.40624 0.55388 0.75768 0.0
O50 O 0.61411 0.82857 0.84678 0.0
O51 O 0.51226 0.46572 0.87365 0.0
O52 O 0.58428 0.33782 0.85227 0.0
O53 O 0.3478 0.74196 0.88206 0.0
O54 O 0.39447 0.72583 0.77808 0.0
C55 C 0.54074 0.36253 0.74171 0.0
C56 C 0.24719 0.22955 0.81158 0.0
C57 C 0.67662 0.7803 0.83212 0.0
C58 C 0.33225 0.63235 0.88262 0.0
C59 C 0.3931 0.64469 0.74883 0.0
C60 C 0.57073 0.40909 0.88153 0.0
O61 O 0.51071 0.4065 0.77658 0.0
O62 O 0.546 0.26404 0.74582 0.0
C63 C 0.0325 0.95691 0.1572 0.0
C64 C 0.01256 0.85272 0.15704 0.0
C65 C 0.0443 0.07427 0.15679 0.0
C66 C 0.058 0.1755 0.15499 0.0
C67 C 0.10709 0.03976 0.49275 0.0
C68 C 0.19233 0.02149 0.49057 0.0
C69 C 1.00371 0.05561 0.49445 0.0
C70 C 0.91987 0.07617 0.49471 0.0
C71 C 0.90605 0.94949 0.82464 0.0
C72 C 0.8033 0.86478 0.82679 0.0
C73 C 0.02104 0.05471 0.82052 0.0
C74 C 0.1215 0.14131 0.81677 0.0
C75 C 0.20751 0.5326 0.94896 0.0
C76 C 0.26396 0.56107 0.91643 0.0
C77 C 0.16873 0.53037 -0.00764 0.0
C78 C 0.16911 0.54255 0.03215 0.0
C79 C 0.72174 0.24979 0.32719 0.0
C80 C 0.69216 0.2254 0.36402 0.0
C81 C 0.7655 0.29333 0.28637 0.0
C82 C 0.79237 0.34122 0.25282 0.0
C83 C 0.42425 0.7274 0.67206 0.0
C84 C 0.4085 0.67739 0.70485 0.0
C85 C 0.45465 0.799 0.63671 0.0
C86 C 0.47195 0.84993 0.60408 0.0
C87 C 0.66128 0.40916 0.95943 0.0
C88 C 0.61668 0.41655 0.92557 0.0
C89 C 0.71484 0.39768 -0.00183 0.0
C90 C 0.76073 0.40198 0.03364 0.0
C91 C 0.36087 0.77418 0.29369 0.0
C92 C 0.30559 0.71585 0.25895 0.0
C93 C 0.41786 0.82334 0.33671 0.0
C94 C 0.43771 0.8371 0.37607 0.0
C95 C 0.55538 0.39308 0.65925 0.0
C96 C 0.54585 0.39893 0.69859 0.0
C97 C 0.57677 0.36126 0.61567 0.0
C98 C 0.61361 0.3336 0.58248 0.0
loop_
_geom_bond_atom_site_label_1
_geom_bond_atom_site_label_2
_geom_bond_distance
_geom_bond_site_symmetry_2
_ccdc_geom_bond_type
O0 Mn1 2.163 1_655 S
O0 C14 1.244 1_655 S
Mn1 O0 2.163 1_455 S
Mn1 O4 2.160 . S
Mn1 O5 2.221 1_455 S
Mn1 O7 2.163 1_455 S
Mn1 O9 2.160 . S
Mn1 O19 2.221 . S
O2 Mn3 2.087 . S
O2 C14 1.256 . S
Mn3 O2 2.087 . S
Mn3 O10 2.089 . S
Mn3 O19 2.290 . S
Mn3 O20 2.251 . S
O4 Mn1 2.160 . S
O4 C15 1.239 1_455 S
O5 Mn1 2.221 1_655 S
O5 Mn6 2.290 . S
O5 C16 1.278 . S
Mn6 O5 2.290 . S
Mn6 O8 2.089 . S
Mn6 O11 2.251 . S
Mn6 O12 2.087 . S
O7 Mn1 2.163 1_655 S
O7 C17 1.244 . S
O8 Mn6 2.089 . S
O8 C15 1.256 . S
O9 Mn1 2.160 . S
O9 C18 1.239 . S
O10 Mn3 2.089 . S
O10 C18 1.256 . S
O11 Mn6 2.251 . S
O11 C16 1.241 . S
O12 Mn6 2.087 . S
O12 C17 1.256 . S
C13 O19 1.278 . S
C13 O20 1.241 . S
C14 O0 1.244 1_455 S
C14 O2 1.256 . S
C15 O4 1.239 1_655 S
C15 O8 1.256 . S
C16 O5 1.278 . S
C16 O11 1.241 . S
C17 O7 1.244 . S
C17 O12 1.256 . S
C18 O9 1.239 . S
C18 O10 1.256 . S
O19 Mn1 2.221 . S
O19 Mn3 2.290 . S
O19 C13 1.278 . S
O20 Mn3 2.251 . S
O20 C13 1.241 . S
O21 Mn22 2.163 . S
O21 C35 1.244 1_545 S
Mn22 O21 2.163 . S
Mn22 O25 2.160 1_545 S
Mn22 O26 2.221 . S
Mn22 O28 2.163 . S
Mn22 O30 2.160 1_545 S
Mn22 O40 2.221 1_545 S
O23 Mn24 2.087 . S
O23 C35 1.256 . S
Mn24 O23 2.087 . S
Mn24 O31 2.089 . S
Mn24 O40 2.290 . S
Mn24 O41 2.251 . S
O25 Mn22 2.160 1_565 S
O25 C36 1.239 1_565 S
O26 Mn22 2.221 . S
O26 Mn27 2.290 . S
O26 C37 1.278 . S
Mn27 O26 2.290 . S
Mn27 O29 2.089 . S
Mn27 O32 2.251 . S
Mn27 O33 2.087 . S
O28 Mn22 2.163 . S
O28 C38 1.244 . S
O29 Mn27 2.089 . S
O29 C36 1.256 . S
O30 Mn22 2.160 1_565 S
O30 C39 1.239 . S
O31 Mn24 2.089 . S
O31 C39 1.256 . S
O32 Mn27 2.251 . S
O32 C37 1.241 . S
O33 Mn27 2.087 . S
O33 C38 1.256 . S
C34 O40 1.278 . S
C34 O41 1.241 . S
C35 O21 1.244 1_565 S
C35 O23 1.256 . S
C36 O25 1.239 1_545 S
C36 O29 1.256 . S
C37 O26 1.278 . S
C37 O32 1.241 . S
C38 O28 1.244 . S
C38 O33 1.256 . S
C39 O30 1.239 . S
C39 O31 1.256 . S
O40 Mn22 2.221 1_565 S
O40 Mn24 2.290 . S
O40 C34 1.278 . S
O41 Mn24 2.251 . S
O41 C34 1.241 . S
O42 Mn43 2.163 . S
O42 C56 1.244 . S
Mn43 O42 2.163 . S
Mn43 O46 2.160 . S
Mn43 O47 2.221 . S
Mn43 O49 2.163 . S
Mn43 O51 2.160 . S
Mn43 O61 2.221 . S
O44 Mn45 2.087 . S
O44 C56 1.256 . S
Mn45 O44 2.087 . S
Mn45 O52 2.089 . S
Mn45 O61 2.290 . S
Mn45 O62 2.251 . S
O46 Mn43 2.160 . S
O46 C57 1.239 . S
O47 Mn43 2.221 . S
O47 Mn48 2.290 . S
O47 C58 1.278 . S
Mn48 O47 2.290 . S
Mn48 O50 2.089 . S
Mn48 O53 2.251 . S
Mn48 O54 2.087 . S
O49 Mn43 2.163 . S
O49 C59 1.244 . S
O50 Mn48 2.089 . S
O50 C57 1.256 . S
O51 Mn43 2.160 . S
O51 C60 1.239 . S
O52 Mn45 2.089 . S
O52 C60 1.256 . S
O53 Mn48 2.251 . S
O53 C58 1.241 . S
O54 Mn48 2.087 . S
O54 C59 1.256 . S
C55 O61 1.278 . S
C55 O62 1.241 . S
C56 O42 1.244 . S
C56 O44 1.256 . S
C57 O46 1.239 . S
C57 O50 1.256 . S
C58 O47 1.278 . S
C58 O53 1.241 . S
C59 O49 1.244 . S
C59 O54 1.256 . S
C60 O51 1.239 . S
C60 O52 1.256 . S
O61 Mn43 2.221 . S
O61 Mn45 2.290 . S
O61 C55 1.278 . S
O62 Mn45 2.251 . S
O62 C55 1.241 . S
C63 C64 1.170 . S
C63 C65 1.380 1_565 S
C64 C63 1.170 . S
C65 C63 1.380 1_545 S
C65 C66 1.170 . S
C66 C65 1.170 . S
C67 C68 1.170 . S
C67 C69 1.380 1_455 S
C68 C67 1.170 . S
C69 C67 1.380 1_655 S
C69 C70 1.170 . S
C70 C69 1.170 . S
C71 C72 1.170 1_545 S
C71 C73 1.380 1_655 S
C72 C71 1.170 1_565 S
C73 C71 1.380 1_455 S
C73 C74 1.170 . S
C74 C73 1.170 . S
C75 C76 1.170 . S
C75 C77 1.380 1_556 S
C76 C75 1.170 . S
C77 C75 1.380 1_554 S
C77 C78 1.170 . S
C78 C77 1.170 . S
C79 C80 1.170 . S
C79 C81 1.380 . S
C80 C79 1.170 . S
C81 C79 1.380 . S
C81 C82 1.170 . S
C82 C81 1.170 . S
C83 C84 1.170 . S
C83 C85 1.380 . S
C84 C83 1.170 . S
C85 C83 1.380 . S
C85 C86 1.170 . S
C86 C85 1.170 . S
C87 C88 1.170 . S
C87 C89 1.380 1_556 S
C88 C87 1.170 . S
C89 C87 1.380 1_554 S
C89 C90 1.170 . S
C90 C89 1.170 . S
C91 C92 1.170 . S
C91 C93 1.380 . S
C92 C91 1.170 . S
C93 C91 1.380 . S
C93 C94 1.170 . S
C94 C93 1.170 . S
C95 C96 1.170 . S
C95 C97 1.380 . S
C96 C95 1.170 . S
C97 C95 1.380 . S
C97 C98 1.170 . S
C98 C97 1.170 . S
C64 C15 1.435 1_455 S
C66 C14 1.387 . S
C68 C35 1.391 1_545 S
C70 C36 1.433 . S
C72 C57 1.409 . S
C74 C56 1.391 . S
C76 C58 1.296 . S
C78 C13 1.194 . S
C80 C38 1.624 . S
C82 C16 1.544 . S
C84 C59 1.247 . S
C86 C39 1.259 . S
C88 C60 1.209 . S
C90 C17 1.177 . S
C92 C18 0.906 . S
C94 C34 0.778 . S
C96 C55 1.164 . S
C98 C37 1.263 . S
