# Generated by pormake.
# Topology pcu, (6)-cn, num edge types: 1
# Building blocks:
#     Node 0, Type 0, BuildingBlock: NUHQIS_clean_sbu_0, # of connection points: 6
#     Edge 1, Type (0, 0), BuildingBlock: UVAHIK_clean_linker_0, # of connection points: 2
#     Edge 2, Type (0, 0), BuildingBlock: UVAHIK_clean_linker_0, # of connection points: 2
#     Edge 3, Type (0, 0), BuildingBlock: UVAHIK_clean_linker_0, # of connection points: 2
# Relax obj value: 0.000
# Max RMSD: 0.000
# Mean RMSD: 0.000
data_MOF--net-pcu--node1-NUHQIS_clean_sbu_0--edge1-UVAHIK_clean_linker_0
_symmetry_space_group_name_H-M    P1
_symmetry_Int_Tables_number       1
_symmetry_cell_setting            triclinic
loop_
_symmetry_equiv_pos_as_xyz
'x, y, z'
_cell_length_a     29.89871
_cell_length_b     19.811039
_cell_length_c     19.717373
_cell_angle_alpha  90.952698
_cell_angle_beta   97.376349
_cell_angle_gamma 123.6199
loop_
_atom_site_label
_atom_site_type_symbol
_atom_site_fract_x
_atom_site_fract_y
_atom_site_fract_z
_atom_type_partial_charge
Tb0 Tb 0.95355 0.93403 0.96754 0.0
Eu1 Eu 0.09005 0.0437 -0.00631 0.0
C2 C 1.01821 0.98612 0.84555 0.0
C3 C 1.01702 0.84778 0.97693 0.0
C4 C 0.81014 0.87424 0.95813 0.0
C5 C 0.716 0.83298 0.94021 0.0
C6 C 0.75497 0.81633 0.93274 0.0
C7 C 0.82595 0.94896 -0.00807 0.0
C8 C 0.78695 0.96578 -0.00054 0.0
C9 C 0.73146 0.90819 0.97314 0.0
C10 C 0.85068 0.85697 0.94636 0.0
O11 O 0.981 0.98476 0.07468 0.0
O12 O 0.06143 -0.00648 0.09231 0.0
O13 O 0.069 0.13377 0.01479 0.0
O14 O 0.97981 0.0596 0.95871 0.0
C15 C 1.02065 -0.01154 0.11584 0.0
O16 O 0.16943 0.10668 0.06107 0.0
O17 O 0.16514 0.10215 0.95069 0.0
O18 O 0.05929 0.04949 0.88548 0.0
O19 O 0.97887 0.92426 0.87131 0.0
O20 O 0.97408 0.84593 -0.01089 0.0
O21 O 0.06154 0.91457 0.96469 0.0
C22 C 0.02416 0.12818 -0.0112 0.0
O23 O 0.8814 0.89813 0.90145 0.0
O24 O 0.87884 0.85353 0.0008 0.0
C25 C 0.23667 0.10053 0.01482 0.0
C26 C 0.31608 0.06453 0.01656 0.0
C27 C 0.33041 0.14109 0.04469 0.0
C28 C 0.29106 0.15887 0.0437 0.0
C29 C 0.22184 0.02343 -0.01192 0.0
C30 C 0.26115 0.00562 -0.01115 0.0
C31 C 0.19641 0.12197 0.0101 0.0
H32 H 0.67365 0.78671 0.92031 0.0
H33 H 0.74203 0.75831 0.90653 0.0
H34 H 0.86848 -0.00543 0.01167 0.0
H35 H 0.80043 0.02458 0.02447 0.0
H36 H 0.37234 0.18818 0.06576 0.0
H37 H 0.30333 0.21881 0.06439 0.0
H38 H 0.18001 0.97745 0.96563 0.0
H39 H 0.24851 0.9457 0.96765 0.0
C40 C 0.06736 0.01637 0.23758 0.0
C41 C 1.01947 -0.01275 0.19051 0.0
C42 C 0.06625 0.01514 0.30818 0.0
C43 C 0.98005 -0.00668 0.43841 0.0
H44 H 0.07792 0.95653 0.55465 0.0
C45 C 0.96784 0.93306 0.72491 0.0
C46 C 1.01707 0.98387 0.77041 0.0
C47 C 0.96695 0.93204 0.65379 0.0
C48 C 0.05052 0.96711 0.5227 0.0
H49 H 0.93266 0.93285 0.1803 0.0
H50 H 0.93018 0.92754 0.30309 0.0
H51 H 0.07791 0.95576 0.43104 0.0
H52 H 0.10404 0.07242 0.77729 0.0
H53 H 0.10253 0.06897 0.65305 0.0
H54 H 0.95173 0.00209 0.53063 0.0
C55 C 0.96905 0.95385 0.28597 0.0
C56 C 0.05069 0.96727 0.4519 0.0
C57 C 0.97036 0.95641 0.21542 0.0
C58 C 0.06544 0.03289 0.74349 0.0
C59 C 0.06468 0.03066 0.67251 0.0
C60 C 0.97926 -0.00828 0.50911 0.0
C61 C 1.01702 0.98337 0.33342 0.0
C62 C 1.0158 0.98113 0.40876 0.0
C63 C 1.01543 0.98054 0.62705 0.0
C64 C 1.01481 0.97931 0.55189 0.0
H65 H 0.10594 0.04121 0.21995 0.0
H66 H 0.10426 0.0401 0.34293 0.0
H67 H 0.95328 0.00566 0.40732 0.0
H68 H 0.92991 0.89485 0.74422 0.0
H69 H 0.92851 0.89265 0.61966 0.0
C70 C 0.35768 0.00529 0.95527 0.0
C71 C 0.35852 0.04718 0.01425 0.0
C72 C 0.39837 -0.00884 0.95203 0.0
C73 C 0.50517 0.98143 0.06037 0.0
H74 H 0.56343 0.0088 0.89069 0.0
C75 C 0.69191 0.96767 0.03927 0.0
C76 C 0.68985 0.92656 0.97885 0.0
C77 C 0.65232 0.98384 0.04452 0.0
C78 C 0.54724 -3e-05 0.93826 0.0
H79 H 0.40252 0.10562 0.11666 0.0
H80 H 0.47383 0.08175 0.11072 0.0
H81 H 0.49259 0.03289 0.89828 0.0
H82 H 0.64487 0.87182 0.87603 0.0
H83 H 0.57554 0.89848 0.88563 0.0
H84 H 0.55972 0.94817 0.10023 0.0
C85 C 0.44147 0.05942 0.06705 0.0
C86 C 0.50655 0.0138 0.94261 0.0
C87 C 0.40086 0.07383 0.0702 0.0
C88 C 0.64742 0.90264 0.92369 0.0
C89 C 0.60796 0.91888 0.92889 0.0
C90 C 0.54586 0.96748 0.05599 0.0
C91 C 0.44094 0.01833 0.00774 0.0
C92 C 0.48479 0.00441 0.00361 0.0
C93 C 0.60978 0.9596 -0.01062 0.0
C94 C 0.56729 0.97623 -0.00524 0.0
H95 H 0.32607 0.98463 0.91093 0.0
H96 H 0.39626 0.95847 0.90585 0.0
H97 H 0.4889 0.97263 0.10787 0.0
H98 H 0.72373 -0.01356 0.08297 0.0
H99 H 0.65537 0.01605 0.09163 0.0
C100 C 0.96717 0.69626 0.97861 0.0
C101 C 1.01618 0.77254 0.979 0.0
C102 C 0.96701 0.62567 0.98156 0.0
C103 C 0.05463 0.55483 0.03727 0.0
H104 H 0.95131 0.36477 0.90763 0.0
C105 C 0.0717 0.28 0.00581 0.0
C106 C 0.02316 0.2019 -0.00801 0.0
C107 C 0.07027 0.34935 0.00646 0.0
C108 C 0.97991 0.41678 0.94497 0.0
H109 H 0.10349 0.83452 0.98342 0.0
H110 H 0.10304 0.71154 -0.01109 0.0
H111 H 0.94884 0.48562 0.90523 0.0
H112 H 0.93499 0.13519 0.97018 0.0
H113 H 0.93246 0.25557 0.97335 0.0
H114 H 0.08534 0.48604 0.07778 0.0
C115 C 0.06485 0.70643 0.98638 0.0
C116 C 0.97852 0.48602 0.94338 0.0
C117 C 0.06496 0.77675 0.98267 0.0
C118 C 0.9732 0.19451 0.98023 0.0
C119 C 0.97174 0.26366 0.98165 0.0
C120 C 0.0557 0.4853 0.03936 0.0
C121 C 1.01592 0.63025 0.98583 0.0
C122 C 1.0161 0.55585 -0.01081 0.0
C123 C 1.02024 0.34199 -0.00594 0.0
C124 C 1.01854 0.41555 -0.00705 0.0
H125 H 0.92892 0.69098 0.97582 0.0
H126 H 0.92875 0.56761 0.98145 0.0
H127 H 0.08367 0.60764 0.07371 0.0
H128 H 0.11085 0.28769 0.01477 0.0
H129 H 0.10846 0.40872 0.01527 0.0
loop_
_geom_bond_atom_site_label_1
_geom_bond_atom_site_label_2
_geom_bond_distance
_geom_bond_site_symmetry_2
_ccdc_geom_bond_type
Tb0 C10 2.825 . S
Tb0 O11 2.347 1_556 S
Tb0 O14 2.366 1_565 S
Tb0 O19 2.418 . S
Tb0 O20 2.384 . S
Tb0 O23 2.479 . S
Tb0 O24 2.471 1_556 S
Eu1 O12 2.418 . S
Eu1 O13 2.384 . S
Eu1 O16 2.479 . S
Eu1 O17 2.471 1_554 S
Eu1 O18 2.347 1_554 S
Eu1 O21 2.366 1_545 S
Eu1 C31 2.825 . S
C2 O18 1.259 1_665 S
C2 O19 1.265 . S
C3 O20 1.255 1_554 S
C3 O21 1.265 1_655 S
C4 C6 1.380 . S
C4 C7 1.374 1_566 S
C4 C10 1.507 . S
C5 C6 1.384 . S
C5 C9 1.387 . S
C5 H32 0.930 . S
C6 C4 1.380 . S
C6 C5 1.384 . S
C6 H33 0.931 . S
C7 C4 1.374 1_544 S
C7 C8 1.390 . S
C7 H34 0.930 . S
C8 C7 1.390 . S
C8 C9 1.391 1_544 S
C8 H35 0.930 . S
C9 C5 1.387 . S
C9 C8 1.391 1_566 S
C10 Tb0 2.825 . S
C10 C4 1.507 . S
C10 O23 1.238 . S
C10 O24 1.247 1_556 S
O11 Tb0 2.347 1_554 S
O11 C15 1.259 1_665 S
O12 Eu1 2.418 . S
O12 C15 1.265 . S
O13 Eu1 2.384 . S
O13 C22 1.255 . S
O14 Tb0 2.366 1_545 S
O14 C22 1.265 1_656 S
C15 O11 1.259 1_445 S
C15 O12 1.265 . S
O16 Eu1 2.479 . S
O16 C31 1.238 . S
O17 Eu1 2.471 1_556 S
O17 C31 1.247 1_556 S
O18 Eu1 2.347 1_556 S
O18 C2 1.259 1_445 S
O19 Tb0 2.418 . S
O19 C2 1.265 . S
O20 Tb0 2.384 . S
O20 C3 1.255 1_556 S
O21 Eu1 2.366 1_565 S
O21 C3 1.265 1_455 S
C22 O13 1.255 . S
C22 O14 1.265 1_454 S
O23 Tb0 2.479 . S
O23 C10 1.238 . S
O24 Tb0 2.471 1_554 S
O24 C10 1.247 1_554 S
C25 C28 1.380 . S
C25 C29 1.374 1_544 S
C25 C31 1.507 . S
C26 C27 1.387 . S
C26 C30 1.391 1_544 S
C27 C26 1.387 . S
C27 C28 1.384 . S
C27 H36 0.930 . S
C28 C25 1.380 . S
C28 C27 1.384 . S
C28 H37 0.931 . S
C29 C25 1.374 1_566 S
C29 C30 1.390 . S
C29 H38 0.930 . S
C30 C26 1.391 1_566 S
C30 C29 1.390 . S
C30 H39 0.930 . S
C31 Eu1 2.825 . S
C31 O16 1.238 . S
C31 O17 1.247 1_554 S
C31 C25 1.507 . S
H32 C5 0.930 . S
H33 C6 0.931 . S
H34 C7 0.930 . S
H35 C8 0.930 . S
H36 C27 0.930 . S
H37 C28 0.931 . S
H38 C29 0.930 . S
H39 C30 0.930 . S
C40 C41 1.349 1_565 S
C40 C42 1.327 . S
C40 H65 0.950 . S
C41 C40 1.349 1_545 S
C41 C57 1.349 1_455 S
C42 C40 1.327 . S
C42 C61 1.429 1_565 S
C42 H66 0.950 . S
C43 C60 1.574 . S
C43 C62 1.368 1_655 S
C43 H67 0.949 . S
H44 C48 0.949 . S
C45 C46 1.349 1_655 S
C45 C47 1.327 . S
C45 H68 0.950 . S
C46 C45 1.349 1_455 S
C46 C58 1.349 1_545 S
C47 C45 1.327 . S
C47 C63 1.429 1_655 S
C47 H69 0.950 . S
C48 H44 0.949 . S
C48 C56 1.574 . S
C48 C64 1.368 1_565 S
H49 C57 0.950 . S
H50 C55 0.950 . S
H51 C56 0.949 . S
H52 C58 0.950 . S
H53 C59 0.950 . S
H54 C60 0.949 . S
C55 H50 0.950 . S
C55 C57 1.327 . S
C55 C61 1.429 1_655 S
C56 C48 1.574 . S
C56 H51 0.949 . S
C56 C62 1.368 1_565 S
C57 C41 1.349 1_655 S
C57 H49 0.950 . S
C57 C55 1.327 . S
C58 C46 1.349 1_565 S
C58 H52 0.950 . S
C58 C59 1.327 . S
C59 H53 0.950 . S
C59 C58 1.327 . S
C59 C63 1.429 1_565 S
C60 C43 1.574 . S
C60 H54 0.949 . S
C60 C64 1.368 1_655 S
C61 C42 1.429 1_545 S
C61 C55 1.429 1_455 S
C61 C62 1.523 . S
C62 C43 1.368 1_455 S
C62 C56 1.368 1_545 S
C62 C61 1.523 . S
C63 C47 1.429 1_455 S
C63 C59 1.429 1_545 S
C63 C64 1.523 . S
C64 C48 1.368 1_545 S
C64 C60 1.368 1_455 S
C64 C63 1.523 . S
H65 C40 0.950 . S
H66 C42 0.950 . S
H67 C43 0.949 . S
H68 C45 0.950 . S
H69 C47 0.950 . S
C70 C71 1.349 1_556 S
C70 C72 1.327 . S
C70 H95 0.950 . S
C71 C70 1.349 1_554 S
C71 C87 1.349 1_545 S
C72 C70 1.327 . S
C72 C91 1.429 1_556 S
C72 H96 0.950 . S
C73 C90 1.574 . S
C73 C92 1.368 1_565 S
C73 H97 0.949 . S
H74 C78 0.949 . S
C75 C76 1.349 1_565 S
C75 C77 1.327 . S
C75 H98 0.950 . S
C76 C75 1.349 1_545 S
C76 C88 1.349 1_554 S
C77 C75 1.327 . S
C77 C93 1.429 1_565 S
C77 H99 0.950 . S
C78 H74 0.949 . S
C78 C86 1.574 . S
C78 C94 1.368 1_556 S
H79 C87 0.950 . S
H80 C85 0.950 . S
H81 C86 0.949 . S
H82 C88 0.950 . S
H83 C89 0.950 . S
H84 C90 0.949 . S
C85 H80 0.950 . S
C85 C87 1.327 . S
C85 C91 1.429 1_565 S
C86 C78 1.574 . S
C86 H81 0.949 . S
C86 C92 1.368 1_556 S
C87 C71 1.349 1_565 S
C87 H79 0.950 . S
C87 C85 1.327 . S
C88 C76 1.349 1_556 S
C88 H82 0.950 . S
C88 C89 1.327 . S
C89 H83 0.950 . S
C89 C88 1.327 . S
C89 C93 1.429 1_556 S
C90 C73 1.574 . S
C90 H84 0.949 . S
C90 C94 1.368 1_565 S
C91 C72 1.429 1_554 S
C91 C85 1.429 1_545 S
C91 C92 1.523 . S
C92 C73 1.368 1_545 S
C92 C86 1.368 1_554 S
C92 C91 1.523 . S
C93 C77 1.429 1_545 S
C93 C89 1.429 1_554 S
C93 C94 1.523 . S
C94 C78 1.368 1_554 S
C94 C90 1.368 1_545 S
C94 C93 1.523 . S
H95 C70 0.950 . S
H96 C72 0.950 . S
H97 C73 0.949 . S
H98 C75 0.950 . S
H99 C77 0.950 . S
C100 C101 1.349 1_655 S
C100 C102 1.327 . S
C100 H125 0.950 . S
C101 C100 1.349 1_455 S
C101 C117 1.349 1_554 S
C102 C100 1.327 . S
C102 C121 1.429 1_655 S
C102 H126 0.950 . S
C103 C120 1.574 . S
C103 C122 1.368 1_556 S
C103 H127 0.949 . S
H104 C108 0.949 . S
C105 C106 1.349 1_556 S
C105 C107 1.327 . S
C105 H128 0.950 . S
C106 C105 1.349 1_554 S
C106 C118 1.349 1_455 S
C107 C105 1.327 . S
C107 C123 1.429 1_556 S
C107 H129 0.950 . S
C108 H104 0.949 . S
C108 C116 1.574 . S
C108 C124 1.368 1_655 S
H109 C117 0.950 . S
H110 C115 0.950 . S
H111 C116 0.949 . S
H112 C118 0.950 . S
H113 C119 0.950 . S
H114 C120 0.949 . S
C115 H110 0.950 . S
C115 C117 1.327 . S
C115 C121 1.429 1_556 S
C116 C108 1.574 . S
C116 H111 0.949 . S
C116 C122 1.368 1_655 S
C117 C101 1.349 1_556 S
C117 H109 0.950 . S
C117 C115 1.327 . S
C118 C106 1.349 1_655 S
C118 H112 0.950 . S
C118 C119 1.327 . S
C119 H113 0.950 . S
C119 C118 1.327 . S
C119 C123 1.429 1_655 S
C120 C103 1.574 . S
C120 H114 0.949 . S
C120 C124 1.368 1_556 S
C121 C102 1.429 1_455 S
C121 C115 1.429 1_554 S
C121 C122 1.523 . S
C122 C103 1.368 1_554 S
C122 C116 1.368 1_455 S
C122 C121 1.523 . S
C123 C107 1.429 1_554 S
C123 C119 1.429 1_455 S
C123 C124 1.523 . S
C124 C108 1.368 1_455 S
C124 C120 1.368 1_554 S
C124 C123 1.523 . S
H125 C100 0.950 . S
H126 C102 0.950 . S
H127 C103 0.949 . S
H128 C105 0.950 . S
H129 C107 0.950 . S
C41 C15 1.469 . S
C46 C2 1.469 1_445 S
C71 C26 1.494 . S
C76 C9 1.494 1_544 S
C101 C3 1.500 1_455 S
C106 C22 1.500 . S
