# Generated by pormake.
# Topology kag, (6)-cn, num edge types: 1
# Building blocks:
#     Node 0, Type 0, BuildingBlock: NUHQIS_clean_sbu_0, # of connection points: 6
#     Node 1, Type 0, BuildingBlock: NUHQIS_clean_sbu_0, # of connection points: 6
#     Node 2, Type 0, BuildingBlock: NUHQIS_clean_sbu_0, # of connection points: 6
#     Edge 3, Type (0, 0), BuildingBlock: AJUNOK_clean_linker_0, # of connection points: 2
#     Edge 4, Type (0, 0), BuildingBlock: AJUNOK_clean_linker_0, # of connection points: 2
#     Edge 5, Type (0, 0), BuildingBlock: AJUNOK_clean_linker_0, # of connection points: 2
#     Edge 6, Type (0, 0), BuildingBlock: AJUNOK_clean_linker_0, # of connection points: 2
#     Edge 7, Type (0, 0), BuildingBlock: AJUNOK_clean_linker_0, # of connection points: 2
#     Edge 8, Type (0, 0), BuildingBlock: AJUNOK_clean_linker_0, # of connection points: 2
#     Edge 9, Type (0, 0), BuildingBlock: AJUNOK_clean_linker_0, # of connection points: 2
#     Edge 10, Type (0, 0), BuildingBlock: AJUNOK_clean_linker_0, # of connection points: 2
#     Edge 11, Type (0, 0), BuildingBlock: AJUNOK_clean_linker_0, # of connection points: 2
# Relax obj value: 0.120
# Max RMSD: 0.232
# Mean RMSD: 0.131
data_MOF--net-kag--node1-NUHQIS_clean_sbu_0--edge1-AJUNOK_clean_linker_0
_symmetry_space_group_name_H-M    P1
_symmetry_Int_Tables_number       1
_symmetry_cell_setting            triclinic
loop_
_symmetry_equiv_pos_as_xyz
'x, y, z'
_cell_length_a     40.78127
_cell_length_b     23.416339
_cell_length_c     11.261623
_cell_angle_alpha  87.615712
_cell_angle_beta   95.6664
_cell_angle_gamma 121.97226
loop_
_atom_site_label
_atom_site_type_symbol
_atom_site_fract_x
_atom_site_fract_y
_atom_site_fract_z
_atom_type_partial_charge
Tb0 Tb 0.05818 0.48582 -0.00655 0.0
Eu1 Eu 1.04884 0.61429 0.97796 0.0
C2 C 0.05266 0.54916 0.22764 0.0
C3 C 0.97353 0.46148 0.98573 0.0
C4 C 0.11081 0.40099 -0.00758 0.0
C5 C 0.1594 0.37607 0.07057 0.0
C6 C 0.12207 0.36459 0.06927 0.0
C7 C 0.13732 0.44894 0.91655 0.0
C8 C 0.17453 0.46025 0.91754 0.0
C9 C 0.18604 0.42437 -0.00468 0.0
C10 C 0.0732 0.3943 0.00063 0.0
O11 O 1.03999 0.49366 0.80673 0.0
O12 O 0.06961 0.60716 0.80555 0.0
O13 O 0.11257 0.65859 0.03175 0.0
O14 O 0.11653 0.57186 0.96415 0.0
C15 C 0.05483 0.55033 0.74773 0.0
O16 O 1.03041 0.67241 0.86734 0.0
O17 O 0.05517 0.70505 0.04946 0.0
O18 O 1.03574 0.576 0.16374 0.0
O19 O 0.06966 0.5232 0.17719 0.0
O20 O 0.99671 0.43975 0.02297 0.0
O21 O 0.98771 0.52311 0.94557 0.0
C22 C 0.13339 0.63486 0.00086 0.0
O23 O 0.07112 0.42171 0.09526 0.0
O24 O 0.0585 0.40886 0.90505 0.0
C25 C 1.00035 0.70921 0.97958 0.0
C26 C 0.92709 0.68977 -0.00211 0.0
C27 C 0.95251 0.73859 0.92069 0.0
C28 C 0.98895 0.74812 0.91136 0.0
C29 C 0.97529 0.66126 0.05827 0.0
C30 C 0.93902 0.65196 0.06801 0.0
C31 C 1.03544 0.71098 0.95628 0.0
H32 H 0.16762 0.34775 0.13138 0.0
H33 H 0.10225 0.32823 0.12976 0.0
H34 H 0.12949 0.47835 0.85732 0.0
H35 H 0.19413 0.49661 0.85663 0.0
H36 H 0.94378 0.76816 0.8655 0.0
H37 H 1.00767 0.78422 0.84838 0.0
H38 H 0.98334 0.62972 0.1099 0.0
H39 H 0.92024 0.61497 0.12981 0.0
Tb40 Tb 0.60331 0.10345 0.00533 0.0
Eu41 Eu 0.50448 1.01237 0.98445 0.0
C42 C 0.55717 0.05908 0.23556 0.0
C43 C 0.55474 0.93795 -0.00399 0.0
C44 C 0.7202 0.21399 0.00964 0.0
C45 C 0.78549 0.25334 0.10542 0.0
C46 C 0.74478 0.2146 0.10729 0.0
C47 C 0.73758 0.25346 0.91031 0.0
C48 C 0.7782 0.29196 0.90825 0.0
C49 C 0.80295 0.29233 0.00537 0.0
C50 C 0.67679 0.17246 0.01015 0.0
O51 O 0.58294 0.06557 0.82257 0.0
O52 O 0.52213 1.05035 0.79944 0.0
O53 O 0.52106 0.12175 -0.00142 0.0
O54 O 0.58753 0.1817 -0.01261 0.0
C55 C 0.55332 0.06026 0.75451 0.0
O56 O 0.44748 0.93494 0.89751 0.0
O57 O 0.45086 0.98414 0.06326 0.0
O58 O 0.52681 1.00969 0.17456 0.0
O59 O 0.58684 0.10716 0.18247 0.0
O60 O 0.58782 0.99638 0.02224 0.0
O61 O 0.52166 0.93518 0.9693 0.0
C62 C 0.55446 0.17969 -0.00717 0.0
O63 O 0.65836 0.12932 0.0928 0.0
O64 O 0.6537 0.17664 0.9264 0.0
C65 C 0.38538 0.89722 0.98146 0.0
C66 C 0.30322 0.81316 -0.01085 0.0
C67 C 0.32127 0.81217 0.88938 0.0
C68 C 0.36175 0.8536 0.88559 0.0
C69 C 0.36741 0.89808 0.08127 0.0
C70 C 0.32704 0.85651 0.08532 0.0
C71 C 0.42862 0.93878 0.98104 0.0
H72 H 0.80329 0.25344 0.18345 0.0
H73 H 0.73257 0.18533 0.18572 0.0
H74 H 0.71974 0.25434 0.83322 0.0
H75 H 0.79024 0.3209 0.82939 0.0
H76 H 0.30402 0.7796 0.81356 0.0
H77 H 0.37455 0.85113 0.80765 0.0
H78 H 0.38466 0.93014 0.15765 0.0
H79 H 0.31459 0.8575 0.1652 0.0
Tb80 Tb 0.50966 0.51636 0.9691 0.0
Eu81 Eu 0.60259 0.6052 -0.00513 0.0
C82 C 0.55487 0.56094 0.74586 0.0
C83 C 0.5564 0.43924 -0.00905 0.0
C84 C 0.40304 0.45378 0.93721 0.0
C85 C 0.33704 0.41885 0.86615 0.0
C86 C 0.37051 0.4181 0.85541 0.0
C87 C 0.40234 0.49219 0.02825 0.0
C88 C 0.36863 0.49278 0.03939 0.0
C89 C 0.33554 0.45527 0.9592 0.0
C90 C 0.43694 0.4492 0.92476 0.0
O91 O 0.52242 0.54296 0.15825 0.0
O92 O 0.58636 0.57355 0.18241 0.0
O93 O 0.58758 0.68415 0.02215 0.0
O94 O 0.5228 0.62198 0.95772 0.0
C95 C 0.55398 0.55756 0.2267 0.0
O96 O 0.65926 0.66514 0.09558 0.0
O97 O 0.65515 0.65284 0.90381 0.0
O98 O 0.58126 0.61451 0.80697 0.0
O99 O 0.53038 0.5082 0.80363 0.0
O100 O 0.52439 0.43845 0.00666 0.0
O101 O 0.58878 0.49698 0.97276 0.0
C102 C 0.5545 0.68053 -0.00826 0.0
O103 O 0.46089 0.49106 0.85038 0.0
O104 O 0.45494 0.4432 0.02228 0.0
C105 C 0.71041 0.66404 0.01559 0.0
C106 C 0.77734 0.65733 0.02854 0.0
C107 C 0.77283 0.69337 0.11542 0.0
C108 C 0.73967 0.69692 0.10865 0.0
C109 C 0.71399 0.62512 0.93203 0.0
C110 C 0.74733 0.62212 0.93813 0.0
C111 C 0.67805 0.67513 0.0021 0.0
H112 H 0.31206 0.39017 0.80249 0.0
H113 H 0.37082 0.38885 0.7839 0.0
H114 H 0.42748 0.52058 0.0915 0.0
H115 H 0.36804 0.52075 0.1125 0.0
H116 H 0.79556 0.72063 0.18632 0.0
H117 H 0.73743 0.72713 0.17397 0.0
H118 H 0.69177 0.59902 0.85934 0.0
H119 H 0.75041 0.59502 0.86878 0.0
C120 C 0.05032 0.49589 0.55314 0.0
C121 C 0.05434 0.55067 0.61503 0.0
C122 C 0.05046 0.4961 0.42805 0.0
C123 C 0.05369 0.55035 0.35984 0.0
H124 H 1.04747 0.4528 0.6017 0.0
H125 H 1.04735 0.45295 0.38426 0.0
S126 S 0.06545 0.70643 0.47732 0.0
N127 N 0.06238 0.66136 0.5971 0.0
N128 N 0.06173 0.6607 0.36328 0.0
C129 C 0.05762 0.60524 0.42032 0.0
C130 C 0.05821 0.60569 0.54744 0.0
C131 C 0.52179 1.02462 0.42161 0.0
C132 C 0.55711 0.061 0.36808 0.0
C133 C 0.52064 1.02571 0.54596 0.0
C134 C 0.55482 0.0622 0.6225 0.0
H135 H 0.49461 0.99528 0.36698 0.0
H136 H 0.49277 0.99664 0.58246 0.0
S137 S 0.65483 0.16723 0.52885 0.0
N138 N 0.62715 0.13593 0.40263 0.0
N139 N 0.62503 0.13707 0.63544 0.0
C140 C 0.59032 0.09903 0.57039 0.0
C141 C 0.59146 0.09874 0.44367 0.0
C142 C 0.58553 0.60886 0.55413 0.0
C143 C 0.5538 0.55894 0.61321 0.0
C144 C 0.5855 0.6076 0.42939 0.0
C145 C 0.55341 0.55728 0.35835 0.0
H146 H 0.61084 0.649 0.60459 0.0
H147 H 0.61062 0.64696 0.38808 0.0
S148 S 0.46332 0.41419 0.46737 0.0
N149 N 0.48962 0.45664 0.58962 0.0
N150 N 0.48941 0.45566 0.35563 0.0
C151 C 0.52145 0.50729 0.41567 0.0
C152 C 0.52171 0.50773 0.54284 0.0
C153 C 0.22835 0.37822 0.98376 0.0
C154 C 0.22504 0.43453 -0.00661 0.0
C155 C 0.26435 0.38577 0.97478 0.0
C156 C 0.29845 0.4499 0.97529 0.0
H157 H 0.20277 0.32784 0.98027 0.0
H158 H 0.26546 0.34089 0.96658 0.0
S159 S 0.30583 0.61359 0.00384 0.0
N160 N 0.25912 0.55673 0.00805 0.0
N161 N 0.32698 0.57087 -0.0112 0.0
C162 C 0.29581 0.50676 -0.01258 0.0
C163 C 0.25902 0.4991 -0.00342 0.0
C164 C 0.86491 0.40016 0.95733 0.0
C165 C 0.8466 0.33406 0.002 0.0
C166 C 0.90549 0.44029 0.95244 0.0
C167 C 0.93013 0.41645 -0.00895 0.0
H168 H 0.84775 0.42164 0.92686 0.0
H169 H 0.91757 0.49079 0.91809 0.0
S170 S 0.89705 0.24581 0.11174 0.0
N171 N 0.85663 0.24599 0.08256 0.0
N172 N 0.93245 0.32096 0.07438 0.0
C173 C 0.9122 0.35021 0.03539 0.0
C174 C 0.87077 0.30936 0.04071 0.0
C175 C 0.58848 0.87026 0.01573 0.0
C176 C 0.55408 0.8716 -0.00393 0.0
C177 C 0.58825 0.80919 0.01465 0.0
C178 C 0.55362 0.74527 -0.0064 0.0
H179 H 0.61614 0.91703 0.03177 0.0
H180 H 0.61583 0.81248 0.02994 0.0
S181 S 0.45487 0.71837 0.94142 0.0
N182 N 0.48373 0.80079 0.95777 0.0
N183 N 0.48358 0.68824 0.95564 0.0
C184 C 0.51897 0.74571 0.97485 0.0
C185 C 0.51913 0.80779 0.97612 0.0
C186 C 0.88522 0.73507 0.0234 0.0
C187 C 0.88843 0.67924 0.00656 0.0
C188 C 0.84914 0.72704 0.03244 0.0
C189 C 0.81498 0.66288 0.02491 0.0
H190 H 0.91084 0.78541 0.0302 0.0
H191 H 0.84795 0.77165 0.0433 0.0
S192 S 0.80769 0.50041 0.98011 0.0
N193 N 0.8545 0.5576 0.9806 0.0
N194 N 0.78645 0.54236 0.00062 0.0
C195 C 0.8177 0.60645 0.00833 0.0
C196 C 0.85453 0.61465 -0.00122 0.0
C197 C 0.19943 0.65778 0.96098 0.0
C198 C 0.17675 0.6811 0.00105 0.0
C199 C 0.23991 0.70051 0.95687 0.0
C200 C 0.25989 0.76864 -0.00661 0.0
H201 H 0.18585 0.606 0.93172 0.0
H202 H 0.25575 0.67966 0.9257 0.0
S203 S 0.21456 0.85632 0.1021 0.0
N204 N 0.17795 0.77824 0.07649 0.0
N205 N 0.2534 0.85788 0.06733 0.0
C206 C 0.23764 0.79276 0.03329 0.0
C207 C 0.19641 0.74935 0.03741 0.0
C208 C 0.58969 0.3711 -0.01229 0.0
C209 C 0.55554 0.37268 -0.00765 0.0
C210 C 0.58924 0.30969 -0.01199 0.0
C211 C 0.55458 0.24564 -0.00754 0.0
H212 H 0.61733 0.41799 0.98405 0.0
H213 H 0.61656 0.31272 0.98464 0.0
S214 S 0.45654 0.21992 0.00329 0.0
N215 N 0.48567 0.3025 0.00024 0.0
N216 N 0.48475 0.18928 0.00039 0.0
C217 C 0.52021 0.2466 -0.00332 0.0
C218 C 0.52071 0.30901 -0.00326 0.0
loop_
_geom_bond_atom_site_label_1
_geom_bond_atom_site_label_2
_geom_bond_distance
_geom_bond_site_symmetry_2
_ccdc_geom_bond_type
Tb0 C10 2.825 . S
Tb0 O11 2.347 1_554 S
Tb0 O14 2.366 . S
Tb0 O19 2.418 . S
Tb0 O20 2.384 1_455 S
Tb0 O23 2.479 . S
Tb0 O24 2.471 1_554 S
Eu1 O12 2.418 . S
Eu1 O13 2.384 1_655 S
Eu1 O16 2.479 . S
Eu1 O17 2.471 1_556 S
Eu1 O18 2.347 1_556 S
Eu1 O21 2.366 . S
Eu1 C31 2.825 . S
C2 O18 1.259 1_455 S
C2 O19 1.265 . S
C3 O20 1.255 1_556 S
C3 O21 1.265 . S
C4 C6 1.380 1_556 S
C4 C7 1.374 . S
C4 C10 1.507 1_556 S
C5 C6 1.384 . S
C5 C9 1.387 1_554 S
C5 H32 0.930 . S
C6 C4 1.380 1_554 S
C6 C5 1.384 . S
C6 H33 0.931 . S
C7 C4 1.374 . S
C7 C8 1.390 . S
C7 H34 0.930 . S
C8 C7 1.390 . S
C8 C9 1.391 . S
C8 H35 0.930 . S
C9 C5 1.387 1_556 S
C9 C8 1.391 . S
C10 Tb0 2.825 . S
C10 C4 1.507 1_554 S
C10 O23 1.238 . S
C10 O24 1.247 1_554 S
O11 Tb0 2.347 1_556 S
O11 C15 1.259 1_455 S
O12 Eu1 2.418 . S
O12 C15 1.265 . S
O13 Eu1 2.384 1_455 S
O13 C22 1.255 1_556 S
O14 Tb0 2.366 . S
O14 C22 1.265 . S
C15 O11 1.259 1_655 S
C15 O12 1.265 . S
O16 Eu1 2.479 . S
O16 C31 1.238 . S
O17 Eu1 2.471 1_554 S
O17 C31 1.247 1_554 S
O18 Eu1 2.347 1_554 S
O18 C2 1.259 1_655 S
O19 Tb0 2.418 . S
O19 C2 1.265 . S
O20 Tb0 2.384 1_655 S
O20 C3 1.255 1_554 S
O21 Eu1 2.366 . S
O21 C3 1.265 . S
C22 O13 1.255 1_554 S
C22 O14 1.265 . S
O23 Tb0 2.479 . S
O23 C10 1.238 . S
O24 Tb0 2.471 1_556 S
O24 C10 1.247 1_556 S
C25 C28 1.380 1_554 S
C25 C29 1.374 . S
C25 C31 1.507 1_554 S
C26 C27 1.387 1_554 S
C26 C30 1.391 . S
C27 C26 1.387 1_556 S
C27 C28 1.384 . S
C27 H36 0.930 . S
C28 C25 1.380 1_556 S
C28 C27 1.384 . S
C28 H37 0.931 . S
C29 C25 1.374 . S
C29 C30 1.390 . S
C29 H38 0.930 . S
C30 C26 1.391 . S
C30 C29 1.390 . S
C30 H39 0.930 . S
C31 Eu1 2.825 . S
C31 O16 1.238 . S
C31 O17 1.247 1_556 S
C31 C25 1.507 1_556 S
H32 C5 0.930 . S
H33 C6 0.931 . S
H34 C7 0.930 . S
H35 C8 0.930 . S
H36 C27 0.930 . S
H37 C28 0.931 . S
H38 C29 0.930 . S
H39 C30 0.930 . S
Tb40 C50 2.825 . S
Tb40 O51 2.347 1_554 S
Tb40 O54 2.366 . S
Tb40 O59 2.418 . S
Tb40 O60 2.384 1_545 S
Tb40 O63 2.479 . S
Tb40 O64 2.471 1_554 S
Eu41 O52 2.418 . S
Eu41 O53 2.384 1_565 S
Eu41 O56 2.479 . S
Eu41 O57 2.471 1_556 S
Eu41 O58 2.347 1_556 S
Eu41 O61 2.366 . S
Eu41 C71 2.825 . S
C42 O58 1.259 1_545 S
C42 O59 1.265 . S
C43 O60 1.253 1_556 S
C43 O61 1.266 . S
C44 C46 1.380 . S
C44 C47 1.374 1_554 S
C44 C50 1.507 . S
C45 C46 1.384 . S
C45 C49 1.387 1_554 S
C45 H72 0.930 . S
C46 C44 1.380 . S
C46 C45 1.384 . S
C46 H73 0.931 . S
C47 C44 1.374 1_556 S
C47 C48 1.390 . S
C47 H74 0.930 . S
C48 C47 1.390 . S
C48 C49 1.391 . S
C48 H75 0.930 . S
C49 C45 1.387 1_556 S
C49 C48 1.391 . S
C50 Tb40 2.825 . S
C50 C44 1.507 . S
C50 O63 1.238 . S
C50 O64 1.247 1_554 S
O51 Tb40 2.347 1_556 S
O51 C55 1.259 1_545 S
O52 Eu41 2.418 . S
O52 C55 1.265 . S
O53 Eu41 2.384 1_545 S
O53 C62 1.255 1_556 S
O54 Tb40 2.366 . S
O54 C62 1.265 . S
C55 O51 1.259 1_565 S
C55 O52 1.265 . S
O56 Eu41 2.479 . S
O56 C71 1.238 . S
O57 Eu41 2.471 1_554 S
O57 C71 1.247 1_554 S
O58 Eu41 2.347 1_554 S
O58 C42 1.259 1_565 S
O59 Tb40 2.418 . S
O59 C42 1.265 . S
O60 Tb40 2.384 1_565 S
O60 C43 1.253 1_554 S
O61 Eu41 2.366 . S
O61 C43 1.266 . S
C62 O53 1.255 1_554 S
C62 O54 1.265 . S
O63 Tb40 2.479 . S
O63 C50 1.238 . S
O64 Tb40 2.471 1_556 S
O64 C50 1.247 1_556 S
C65 C68 1.380 . S
C65 C69 1.374 1_556 S
C65 C71 1.507 . S
C66 C67 1.387 1_554 S
C66 C70 1.391 . S
C67 C66 1.387 1_556 S
C67 C68 1.384 . S
C67 H76 0.930 . S
C68 C65 1.380 . S
C68 C67 1.384 . S
C68 H77 0.931 . S
C69 C65 1.374 1_554 S
C69 C70 1.390 . S
C69 H78 0.930 . S
C70 C66 1.391 . S
C70 C69 1.390 . S
C70 H79 0.930 . S
C71 Eu41 2.825 . S
C71 O56 1.238 . S
C71 O57 1.247 1_556 S
C71 C65 1.507 . S
H72 C45 0.930 . S
H73 C46 0.931 . S
H74 C47 0.930 . S
H75 C48 0.930 . S
H76 C67 0.930 . S
H77 C68 0.931 . S
H78 C69 0.930 . S
H79 C70 0.930 . S
Tb80 C90 2.825 . S
Tb80 O91 2.347 1_556 S
Tb80 O94 2.366 . S
Tb80 O99 2.418 . S
Tb80 O100 2.384 . S
Tb80 O103 2.479 . S
Tb80 O104 2.471 1_556 S
Eu81 O92 2.418 . S
Eu81 O93 2.384 . S
Eu81 O96 2.479 . S
Eu81 O97 2.471 1_554 S
Eu81 O98 2.347 1_554 S
Eu81 O101 2.366 . S
Eu81 C111 2.825 . S
C82 O98 1.259 . S
C82 O99 1.265 . S
C83 O100 1.255 1_554 S
C83 O101 1.265 . S
C84 C86 1.380 . S
C84 C87 1.374 1_556 S
C84 C90 1.507 . S
C85 C86 1.384 . S
C85 C89 1.387 1_556 S
C85 H112 0.930 . S
C86 C84 1.380 . S
C86 C85 1.384 . S
C86 H113 0.931 . S
C87 C84 1.374 1_554 S
C87 C88 1.390 . S
C87 H114 0.930 . S
C88 C87 1.390 . S
C88 C89 1.391 . S
C88 H115 0.930 . S
C89 C85 1.387 1_554 S
C89 C88 1.391 . S
C90 Tb80 2.825 . S
C90 C84 1.507 . S
C90 O103 1.238 . S
C90 O104 1.247 1_556 S
O91 Tb80 2.347 1_554 S
O91 C95 1.259 . S
O92 Eu81 2.418 . S
O92 C95 1.265 . S
O93 Eu81 2.384 . S
O93 C102 1.255 1_554 S
O94 Tb80 2.366 . S
O94 C102 1.265 . S
C95 O91 1.259 . S
C95 O92 1.265 . S
O96 Eu81 2.479 . S
O96 C111 1.238 . S
O97 Eu81 2.471 1_556 S
O97 C111 1.247 1_556 S
O98 Eu81 2.347 1_556 S
O98 C82 1.259 . S
O99 Tb80 2.418 . S
O99 C82 1.265 . S
O100 Tb80 2.384 . S
O100 C83 1.255 1_556 S
O101 Eu81 2.366 . S
O101 C83 1.265 . S
C102 O93 1.255 1_556 S
C102 O94 1.265 . S
O103 Tb80 2.479 . S
O103 C90 1.238 . S
O104 Tb80 2.471 1_554 S
O104 C90 1.247 1_554 S
C105 C108 1.380 . S
C105 C109 1.374 1_554 S
C105 C111 1.507 . S
C106 C107 1.387 1_556 S
C106 C110 1.391 . S
C107 C106 1.387 1_554 S
C107 C108 1.384 . S
C107 H116 0.930 . S
C108 C105 1.380 . S
C108 C107 1.384 . S
C108 H117 0.931 . S
C109 C105 1.374 1_556 S
C109 C110 1.390 . S
C109 H118 0.930 . S
C110 C106 1.391 . S
C110 C109 1.390 . S
C110 H119 0.930 . S
C111 Eu81 2.825 . S
C111 O96 1.238 . S
C111 O97 1.247 1_554 S
C111 C105 1.507 . S
H112 C85 0.930 . S
H113 C86 0.931 . S
H114 C87 0.930 . S
H115 C88 0.930 . S
H116 C107 0.930 . S
H117 C108 0.931 . S
H118 C109 0.930 . S
H119 C110 0.930 . S
C120 C121 1.364 1_655 S
C120 C122 1.419 . S
C120 H124 0.930 . S
C121 C120 1.364 1_455 S
C121 C130 1.439 . S
C122 C120 1.419 . S
C122 C123 1.363 1_655 S
C122 H125 0.929 . S
C123 C122 1.363 1_455 S
C123 C129 1.428 . S
H124 C120 0.930 . S
H125 C122 0.929 . S
S126 N127 1.613 . S
S126 N128 1.610 . S
N127 S126 1.613 . S
N127 C130 1.350 . S
N128 S126 1.610 . S
N128 C129 1.351 . S
C129 C123 1.428 . S
C129 N128 1.351 . S
C129 C130 1.434 . S
C130 C121 1.439 . S
C130 N127 1.350 . S
C130 C129 1.434 . S
C131 C132 1.373 . S
C131 C133 1.419 . S
C131 H135 0.930 . S
C132 C131 1.373 . S
C132 C141 1.424 1_565 S
C133 C131 1.419 . S
C133 C134 1.363 1_565 S
C133 H136 0.929 . S
C134 C133 1.363 1_545 S
C134 C140 1.428 . S
H135 C131 0.930 . S
H136 C133 0.929 . S
S137 N138 1.613 . S
S137 N139 1.610 . S
N138 S137 1.613 . S
N138 C141 1.350 . S
N139 S137 1.610 . S
N139 C140 1.351 . S
C140 C134 1.428 . S
C140 N139 1.351 . S
C140 C141 1.434 . S
C141 C132 1.424 1_545 S
C141 N138 1.350 . S
C141 C140 1.434 . S
C142 C143 1.369 . S
C142 C144 1.419 . S
C142 H146 0.930 . S
C143 C142 1.369 . S
C143 C152 1.429 . S
C144 C142 1.419 . S
C144 C145 1.363 . S
C144 H147 0.929 . S
C145 C144 1.363 . S
C145 C151 1.428 . S
H146 C142 0.930 . S
H147 C144 0.929 . S
S148 N149 1.613 . S
S148 N150 1.610 . S
N149 S148 1.613 . S
N149 C152 1.350 . S
N150 S148 1.610 . S
N150 C151 1.351 . S
C151 C145 1.428 . S
C151 N150 1.351 . S
C151 C152 1.434 . S
C152 C143 1.429 . S
C152 N149 1.350 . S
C152 C151 1.434 . S
C153 C154 1.369 . S
C153 C155 1.419 1_556 S
C153 H157 0.930 . S
C154 C153 1.369 . S
C154 C163 1.429 . S
C155 C153 1.419 1_554 S
C155 C156 1.363 . S
C155 H158 0.929 . S
C156 C155 1.363 . S
C156 C162 1.428 . S
H157 C153 0.930 . S
H158 C155 0.929 . S
S159 N160 1.613 . S
S159 N161 1.610 1_556 S
N160 S159 1.613 . S
N160 C163 1.350 . S
N161 S159 1.610 1_554 S
N161 C162 1.351 . S
C162 C156 1.428 . S
C162 N161 1.351 . S
C162 C163 1.434 1_554 S
C163 C154 1.429 . S
C163 N160 1.350 . S
C163 C162 1.434 1_556 S
C164 C165 1.369 . S
C164 C166 1.419 . S
C164 H168 0.930 . S
C165 C164 1.369 . S
C165 C174 1.429 1_556 S
C166 C164 1.419 . S
C166 C167 1.363 . S
C166 H169 0.929 . S
C167 C166 1.363 . S
C167 C173 1.428 1_556 S
H168 C164 0.930 . S
H169 C166 0.929 . S
S170 N171 1.613 . S
S170 N172 1.610 . S
N171 S170 1.613 . S
N171 C174 1.350 . S
N172 S170 1.610 . S
N172 C173 1.351 . S
C173 C167 1.428 1_554 S
C173 N172 1.351 . S
C173 C174 1.434 . S
C174 C165 1.429 1_554 S
C174 N171 1.350 . S
C174 C173 1.434 . S
C175 C176 1.369 1_554 S
C175 C177 1.419 . S
C175 H179 0.930 . S
C176 C175 1.369 1_556 S
C176 C185 1.429 . S
C177 C175 1.419 . S
C177 C178 1.363 1_554 S
C177 H180 0.929 . S
C178 C177 1.363 1_556 S
C178 C184 1.428 . S
H179 C175 0.930 . S
H180 C177 0.929 . S
S181 N182 1.613 . S
S181 N183 1.610 . S
N182 S181 1.613 . S
N182 C185 1.350 . S
N183 S181 1.610 . S
N183 C184 1.351 . S
C184 C178 1.428 . S
C184 N183 1.351 . S
C184 C185 1.434 . S
C185 C176 1.429 . S
C185 N182 1.350 . S
C185 C184 1.434 . S
C186 C187 1.369 . S
C186 C188 1.419 1_554 S
C186 H190 0.930 . S
C187 C186 1.369 . S
C187 C196 1.429 . S
C188 C186 1.419 1_556 S
C188 C189 1.363 . S
C188 H191 0.929 . S
C189 C188 1.363 . S
C189 C195 1.428 1_556 S
H190 C186 0.930 . S
H191 C188 0.929 . S
S192 N193 1.613 . S
S192 N194 1.610 . S
N193 S192 1.613 . S
N193 C196 1.350 . S
N194 S192 1.610 . S
N194 C195 1.351 . S
C195 C189 1.428 1_554 S
C195 N194 1.351 . S
C195 C196 1.434 . S
C196 C187 1.429 . S
C196 N193 1.350 . S
C196 C195 1.434 . S
C197 C198 1.369 1_556 S
C197 C199 1.419 . S
C197 H201 0.930 . S
C198 C197 1.369 1_554 S
C198 C207 1.429 . S
C199 C197 1.419 . S
C199 C200 1.363 1_556 S
C199 H202 0.929 . S
C200 C199 1.363 1_554 S
C200 C206 1.428 . S
H201 C197 0.930 . S
H202 C199 0.929 . S
S203 N204 1.613 . S
S203 N205 1.610 . S
N204 S203 1.613 . S
N204 C207 1.350 . S
N205 S203 1.610 . S
N205 C206 1.351 . S
C206 C200 1.428 . S
C206 N205 1.351 . S
C206 C207 1.434 . S
C207 C198 1.429 . S
C207 N204 1.350 . S
C207 C206 1.434 . S
C208 C209 1.369 1_556 S
C208 C210 1.419 . S
C208 H212 0.930 . S
C209 C208 1.369 1_554 S
C209 C218 1.429 . S
C210 C208 1.419 . S
C210 C211 1.363 1_556 S
C210 H213 0.929 . S
C211 C210 1.363 1_554 S
C211 C217 1.428 . S
H212 C208 0.930 . S
H213 C210 0.929 . S
S214 N215 1.613 . S
S214 N216 1.610 . S
N215 S214 1.613 . S
N215 C218 1.350 . S
N216 S214 1.610 . S
N216 C217 1.351 . S
C217 C211 1.428 . S
C217 N216 1.351 . S
C217 C218 1.434 . S
C218 C209 1.429 . S
C218 N215 1.350 . S
C218 C217 1.434 . S
C121 C15 1.458 1_455 S
C123 C2 1.472 . S
C132 C42 1.458 1_565 S
C134 C55 1.463 1_545 S
C143 C82 1.465 . S
C145 C95 1.467 . S
C154 C9 0.977 . S
C156 C89 0.967 . S
C165 C49 2.122 . S
C167 C3 2.263 . S
C176 C43 2.598 . S
C178 C102 2.652 . S
C187 C26 0.974 . S
C189 C106 0.968 . S
C198 C22 2.266 . S
C200 C66 2.119 . S
C209 C83 2.652 . S
C211 C62 2.595 . S
