# Generated by pormake.
# Topology cds, (4)-cn, num edge types: 1
# Building blocks:
#     Node 0, Type 0, BuildingBlock: ESEHIV_clean_sbu_0, # of connection points: 4
#     Node 1, Type 0, BuildingBlock: ESEHIV_clean_sbu_0, # of connection points: 4
#     Edge 2, Type (0, 0), BuildingBlock: KIFKEQ_clean_linker_1, # of connection points: 2
#     Edge 3, Type (0, 0), BuildingBlock: KIFKEQ_clean_linker_1, # of connection points: 2
#     Edge 4, Type (0, 0), BuildingBlock: KIFKEQ_clean_linker_1, # of connection points: 2
#     Edge 5, Type (0, 0), BuildingBlock: KIFKEQ_clean_linker_1, # of connection points: 2
# Relax obj value: 0.000
# Max RMSD: 0.099
# Mean RMSD: 0.094
data_MOF--net-cds--node1-ESEHIV_clean_sbu_0--edge1-KIFKEQ_clean_linker_1
_symmetry_space_group_name_H-M    P1
_symmetry_Int_Tables_number       1
_symmetry_cell_setting            triclinic
loop_
_symmetry_equiv_pos_as_xyz
'x, y, z'
_cell_length_a     14.794871
_cell_length_b     17.233727
_cell_length_c     31.943348
_cell_angle_alpha  102.74453
_cell_angle_beta   103.3107
_cell_angle_gamma 88.077835
loop_
_atom_site_label
_atom_site_type_symbol
_atom_site_fract_x
_atom_site_fract_y
_atom_site_fract_z
_atom_type_partial_charge
Cu0 Cu 0.18484 0.10175 0.06692 0.0
N1 N 0.17139 1.03039 1.01225 0.0
N2 N 0.15221 0.98568 0.9393 0.0
C3 C 0.15862 0.05032 0.97279 0.0
C4 C 0.1616 0.92271 0.95869 0.0
C5 C 0.17373 0.95047 1.00362 0.0
O6 O 0.29119 0.16889 0.07078 0.0
C7 C 0.99331 0.11857 0.05224 0.0
O8 O 0.99743 0.04335 0.03289 0.0
H9 H 0.15253 0.11117 0.96881 0.0
H10 H 0.1834 0.91492 0.02825 0.0
N11 N 0.20892 0.04812 0.11332 0.0
N12 N 0.203 1.01741 0.17722 0.0
C13 C 0.1642 0.05875 0.1464 0.0
C14 C 0.27819 0.99797 0.12335 0.0
C15 C 0.2749 0.9791 0.16283 0.0
C16 C 0.3583 0.18768 0.10443 0.0
O17 O 0.35045 0.17356 0.14221 0.0
H18 H 0.10648 0.09854 0.14866 0.0
H19 H 0.32903 0.97838 0.10392 0.0
O20 O 0.06884 0.15867 0.06908 0.0
H21 H 0.16057 0.8609 0.94174 0.0
H22 H 0.32203 0.94059 0.17973 0.0
Cu23 Cu 0.94202 1.01183 0.53156 0.0
N24 N 0.86893 0.9187 0.51011 0.0
N25 N 0.82413 0.79207 0.50016 0.0
C26 C 0.88707 0.84965 0.52337 0.0
C27 C 0.76416 0.82606 0.47105 0.0
C28 C 0.79176 0.90435 0.47741 0.0
O29 O 1.00959 1.00994 0.59185 0.0
C30 C 0.97577 1.03158 0.45289 0.0
O31 O 0.88625 0.04486 0.44668 0.0
H32 H 0.94651 0.84134 0.5489 0.0
H33 H 0.75835 0.94752 0.45923 0.0
N34 N 0.86796 0.10243 0.53454 0.0
N35 N 0.82345 0.22743 0.53361 0.0
C36 C 0.89181 0.17427 0.52981 0.0
C37 C 0.78152 0.11044 0.54158 0.0
C38 C 0.75405 0.18769 0.54127 0.0
C39 C 0.95851 0.99937 0.61742 0.0
O40 O 0.86829 0.99199 0.60161 0.0
H41 H 0.95813 0.18727 0.52374 0.0
H42 H 0.741 0.06326 0.54624 0.0
O43 O 1.01865 1.01503 0.48931 0.0
H44 H 0.70439 0.79657 0.44712 0.0
H45 H 0.68752 0.21224 0.54536 0.0
H46 H 0.02932 1.033 0.19103 0.0
H47 H 0.31388 1.00151 0.25543 0.0
H48 H 0.98194 0.03697 0.25943 0.0
H49 H 0.26725 1.00784 0.32474 0.0
H50 H 0.1274 0.94853 0.43126 0.0
H51 H 0.18655 0.94339 0.36495 0.0
H52 H 0.98869 0.12089 0.32838 0.0
H53 H 0.92799 0.12303 0.39294 0.0
C54 C 0.08195 1.02772 0.22001 0.0
C55 C 0.17537 1.01746 0.21778 0.0
C56 C 0.05498 1.03035 0.25945 0.0
C57 C 0.12085 1.02397 0.29814 0.0
C58 C 0.21433 1.01235 0.29572 0.0
C59 C 0.24119 1.00883 0.25596 0.0
C60 C 0.09763 0.98691 0.40917 0.0
C61 C 1.02241 0.03544 0.41699 0.0
C62 C 0.1314 0.9841 0.37114 0.0
C63 C 0.0912 1.0305 0.34055 0.0
C64 C 1.01949 0.08219 0.35011 0.0
C65 C 0.98512 0.08404 0.38748 0.0
H66 H 0.07054 0.86655 0.87154 0.0
H67 H 0.19512 0.10106 0.90062 0.0
H68 H 0.03512 0.86585 0.79319 0.0
H69 H 0.15732 0.10109 0.82194 0.0
H70 H 0.13395 0.04149 0.67005 0.0
H71 H 0.19012 0.03535 0.74798 0.0
H72 H 0.92407 0.93846 0.74699 0.0
H73 H 0.86881 0.94409 0.67023 0.0
C74 C 0.09125 0.91772 0.86129 0.0
C75 C 0.13515 0.98409 0.89263 0.0
C76 C 0.07023 0.91758 0.81629 0.0
C77 C 0.09276 0.98366 0.80125 0.0
C78 C 0.13943 0.04907 0.83236 0.0
C79 C 0.16004 0.04941 0.87753 0.0
C80 C 0.088 1.01842 0.68653 0.0
C81 C 0.99688 0.99347 0.66388 0.0
C82 C 0.11988 1.0153 0.73116 0.0
C83 C 0.06167 0.98605 0.75368 0.0
C84 C 0.97127 0.96021 0.73063 0.0
C85 C 0.93935 0.96406 0.68653 0.0
H86 H 0.82509 0.06787 1.00016 0.0
H87 H 0.95442 0.24247 0.11609 0.0
H88 H 0.67281 0.1064 1.01307 0.0
H89 H 0.80034 0.2817 0.12917 0.0
H90 H 0.52384 0.21081 0.16598 0.0
H91 H 0.6789 0.21397 0.15213 0.0
H92 H 0.55813 0.21229 1.01534 0.0
H93 H 0.40311 0.20806 0.02892 0.0
C94 C 0.82081 0.11564 0.02805 0.0
C95 C 0.90178 0.15191 0.05719 0.0
C96 C 0.73328 0.1382 0.03529 0.0
C97 C 0.72417 0.19721 0.07217 0.0
C98 C 0.80508 0.23578 0.10057 0.0
C99 C 0.89317 0.21377 0.09293 0.0
C100 C 0.53017 0.21304 0.13316 0.0
C101 C 0.4508 0.20779 0.09843 0.0
C102 C 0.61928 0.21521 0.12527 0.0
C103 C 0.63098 0.21211 0.08247 0.0
C104 C 0.55152 0.21328 0.04853 0.0
C105 C 0.46254 0.21124 0.0564 0.0
H106 H 0.8723 0.74012 0.57603 0.0
H107 H 0.77287 0.66067 0.43535 0.0
H108 H 0.87139 0.60218 0.58439 0.0
H109 H 0.77279 0.52261 0.44359 0.0
H110 H 0.90117 0.28587 0.47794 0.0
H111 H 0.90016 0.4239 0.46967 0.0
H112 H 0.74517 0.49118 0.57084 0.0
H113 H 0.7455 0.35288 0.57878 0.0
C114 C 0.85062 0.69306 0.54693 0.0
C115 C 0.82266 0.711 0.50505 0.0
C116 C 0.8495 0.61434 0.55172 0.0
C117 C 0.82211 0.5518 0.51462 0.0
C118 C 0.79467 0.56966 0.47271 0.0
C119 C 0.79408 0.64855 0.46802 0.0
C120 C 0.8673 0.33028 0.49851 0.0
C121 C 0.8235 0.30878 0.52905 0.0
C122 C 0.8661 0.40901 0.49355 0.0
C123 C 0.82257 0.46813 0.51961 0.0
C124 C 0.77959 0.44683 0.55048 0.0
C125 C 0.77926 0.36778 0.55483 0.0
loop_
_geom_bond_atom_site_label_1
_geom_bond_atom_site_label_2
_geom_bond_distance
_geom_bond_site_symmetry_2
_ccdc_geom_bond_type
Cu0 N1 1.999 1_454 S
Cu0 O6 1.974 . S
Cu0 N11 1.985 . S
Cu0 O20 1.959 1_455 S
N1 Cu0 1.999 1_656 S
N1 C3 1.263 1_655 S
N1 C5 1.389 . S
N2 C3 1.358 1_655 S
N2 C4 1.400 . S
C3 N1 1.263 1_455 S
C3 N2 1.358 1_455 S
C3 H9 0.930 1_545 S
C4 N2 1.400 . S
C4 C5 1.351 . S
C4 H21 0.930 . S
C5 N1 1.389 . S
C5 C4 1.351 . S
C5 H10 0.930 . S
O6 Cu0 1.974 . S
O6 C16 1.282 1_545 S
C7 O8 1.261 . S
C7 O20 1.251 1_565 S
O8 C7 1.261 . S
H9 C3 0.930 1_565 S
H10 C5 0.930 . S
N11 Cu0 1.985 . S
N11 C13 1.335 1_455 S
N11 C14 1.390 1_545 S
N12 C13 1.345 1_455 S
N12 C15 1.336 1_545 S
C13 N11 1.335 1_655 S
C13 N12 1.345 1_655 S
C13 H18 0.930 . S
C14 N11 1.390 1_565 S
C14 C15 1.346 . S
C14 H19 0.930 . S
C15 N12 1.336 1_565 S
C15 C14 1.346 . S
C15 H22 0.929 . S
C16 O6 1.282 1_565 S
C16 O17 1.216 . S
O17 C16 1.216 . S
H18 C13 0.930 . S
H19 C14 0.930 . S
O20 Cu0 1.959 1_655 S
O20 C7 1.251 1_545 S
H21 C4 0.930 . S
H22 C15 0.929 . S
Cu23 N24 1.999 1_545 S
Cu23 O29 1.974 . S
Cu23 N34 1.985 . S
Cu23 O43 1.959 . S
N24 Cu23 1.999 1_565 S
N24 C26 1.263 . S
N24 C28 1.389 . S
N25 C26 1.358 . S
N25 C27 1.400 . S
C26 N24 1.263 . S
C26 N25 1.358 . S
C26 H32 0.930 1_455 S
C27 N25 1.400 . S
C27 C28 1.351 . S
C27 H44 0.930 . S
C28 N24 1.389 . S
C28 C27 1.351 . S
C28 H33 0.930 . S
O29 Cu23 1.974 . S
O29 C39 1.282 1_455 S
C30 O31 1.261 1_545 S
C30 O43 1.251 1_655 S
O31 C30 1.261 1_565 S
H32 C26 0.930 1_655 S
H33 C28 0.930 . S
N34 Cu23 1.985 . S
N34 C36 1.335 . S
N34 C37 1.390 1_455 S
N35 C36 1.345 . S
N35 C38 1.336 1_455 S
C36 N34 1.335 . S
C36 N35 1.345 . S
C36 H41 0.930 . S
C37 N34 1.390 1_655 S
C37 C38 1.346 . S
C37 H42 0.930 . S
C38 N35 1.336 1_655 S
C38 C37 1.346 . S
C38 H45 0.929 . S
C39 O29 1.282 1_655 S
C39 O40 1.216 . S
O40 C39 1.216 . S
H41 C36 0.930 . S
H42 C37 0.930 . S
O43 Cu23 1.959 . S
O43 C30 1.251 1_455 S
H44 C27 0.930 . S
H45 C38 0.929 . S
H46 C54 0.950 . S
H47 C59 0.950 . S
H48 C56 0.949 1_565 S
H49 C58 0.950 . S
H50 C60 0.950 . S
H51 C62 0.950 . S
H52 C64 0.950 . S
H53 C65 0.950 1_565 S
C54 H46 0.950 . S
C54 C55 1.386 1_655 S
C54 C56 1.391 . S
C55 C54 1.386 1_455 S
C55 C59 1.393 . S
C56 H48 0.949 1_545 S
C56 C54 1.391 . S
C56 C57 1.400 . S
C57 C56 1.400 . S
C57 C58 1.398 1_655 S
C57 C63 1.491 . S
C58 H49 0.950 . S
C58 C57 1.398 1_455 S
C58 C59 1.391 . S
C59 H47 0.950 . S
C59 C55 1.393 . S
C59 C58 1.391 . S
C60 H50 0.950 . S
C60 C61 1.386 1_455 S
C60 C62 1.391 . S
C61 C60 1.386 1_655 S
C61 C65 1.393 . S
C62 H51 0.950 . S
C62 C60 1.391 . S
C62 C63 1.400 1_455 S
C63 C57 1.491 . S
C63 C62 1.400 1_655 S
C63 C64 1.398 . S
C64 H52 0.950 . S
C64 C63 1.398 . S
C64 C65 1.391 . S
C65 H53 0.950 1_545 S
C65 C61 1.393 . S
C65 C64 1.391 . S
H66 C74 0.950 . S
H67 C79 0.950 1_565 S
H68 C76 0.950 . S
H69 C78 0.950 1_565 S
H70 C80 0.950 . S
H71 C82 0.950 . S
H72 C84 0.950 . S
H73 C85 0.950 . S
C74 H66 0.950 . S
C74 C75 1.386 1_655 S
C74 C76 1.391 . S
C75 C74 1.386 1_455 S
C75 C79 1.393 . S
C76 H68 0.950 . S
C76 C74 1.391 . S
C76 C77 1.400 . S
C77 C76 1.400 . S
C77 C78 1.398 1_655 S
C77 C83 1.491 . S
C78 H69 0.950 1_545 S
C78 C77 1.398 1_455 S
C78 C79 1.391 . S
C79 H67 0.950 1_545 S
C79 C75 1.393 . S
C79 C78 1.391 . S
C80 H70 0.950 . S
C80 C81 1.386 1_465 S
C80 C82 1.391 . S
C81 C80 1.386 1_645 S
C81 C85 1.393 . S
C82 H71 0.950 . S
C82 C80 1.391 . S
C82 C83 1.400 1_465 S
C83 C77 1.491 . S
C83 C82 1.400 1_645 S
C83 C84 1.398 . S
C84 H72 0.950 . S
C84 C83 1.398 . S
C84 C85 1.391 . S
C85 H73 0.950 . S
C85 C81 1.393 . S
C85 C84 1.391 . S
H86 C94 0.950 . S
H87 C99 0.950 . S
H88 C96 0.950 . S
H89 C98 0.950 . S
H90 C100 0.950 . S
H91 C102 0.950 . S
H92 C104 0.950 . S
H93 C105 0.950 . S
C94 H86 0.950 . S
C94 C95 1.386 1_556 S
C94 C96 1.391 . S
C95 C94 1.386 1_554 S
C95 C99 1.393 1_565 S
C96 H88 0.950 . S
C96 C94 1.391 . S
C96 C97 1.400 1_556 S
C97 C96 1.400 1_554 S
C97 C98 1.398 1_565 S
C97 C103 1.491 . S
C98 H89 0.950 . S
C98 C97 1.398 1_545 S
C98 C99 1.391 . S
C99 H87 0.950 . S
C99 C95 1.393 1_545 S
C99 C98 1.391 . S
C100 H90 0.950 . S
C100 C101 1.386 1_545 S
C100 C102 1.391 . S
C101 C100 1.386 1_565 S
C101 C105 1.393 1_554 S
C102 H91 0.950 . S
C102 C100 1.391 . S
C102 C103 1.400 1_545 S
C103 C97 1.491 . S
C103 C102 1.400 1_565 S
C103 C104 1.398 1_554 S
C104 H92 0.950 . S
C104 C103 1.398 1_556 S
C104 C105 1.391 . S
C105 H93 0.950 . S
C105 C101 1.393 1_556 S
C105 C104 1.391 . S
H106 C114 0.950 . S
H107 C119 0.950 . S
H108 C116 0.950 . S
H109 C118 0.950 . S
H110 C120 0.950 . S
H111 C122 0.950 . S
H112 C124 0.950 . S
H113 C125 0.950 . S
C114 H106 0.950 . S
C114 C115 1.386 1_655 S
C114 C116 1.391 . S
C115 C114 1.386 1_455 S
C115 C119 1.393 . S
C116 H108 0.950 . S
C116 C114 1.391 . S
C116 C117 1.400 1_655 S
C117 C116 1.400 1_455 S
C117 C118 1.398 . S
C117 C123 1.491 . S
C118 H109 0.950 . S
C118 C117 1.398 . S
C118 C119 1.391 . S
C119 H107 0.950 . S
C119 C115 1.393 . S
C119 C118 1.391 . S
C120 H110 0.950 . S
C120 C121 1.386 . S
C120 C122 1.391 . S
C121 C120 1.386 . S
C121 C125 1.393 1_455 S
C122 H111 0.950 . S
C122 C120 1.391 . S
C122 C123 1.400 . S
C123 C117 1.491 . S
C123 C122 1.400 . S
C123 C124 1.398 1_455 S
C124 H112 0.950 . S
C124 C123 1.398 1_655 S
C124 C125 1.391 . S
C125 H113 0.950 . S
C125 C121 1.393 1_655 S
C125 C124 1.391 . S
C55 N12 1.465 . S
C61 C30 1.500 . S
C75 N2 1.455 1_455 S
C81 C39 1.496 . S
C95 C7 1.489 . S
C101 C16 1.486 . S
C115 N25 1.451 . S
C121 N35 1.451 . S
