# Generated by pormake.
# Topology kag, (6)-cn, num edge types: 1
# Building blocks:
#     Node 0, Type 0, BuildingBlock: LEVNOQ01_clean_sbu_1, # of connection points: 6
#     Node 1, Type 0, BuildingBlock: LEVNOQ01_clean_sbu_1, # of connection points: 6
#     Node 2, Type 0, BuildingBlock: LEVNOQ01_clean_sbu_1, # of connection points: 6
#     Edge 3, Type (0, 0), BuildingBlock: CIFDUS_clean_linker_0, # of connection points: 2
#     Edge 4, Type (0, 0), BuildingBlock: CIFDUS_clean_linker_0, # of connection points: 2
#     Edge 5, Type (0, 0), BuildingBlock: CIFDUS_clean_linker_0, # of connection points: 2
#     Edge 6, Type (0, 0), BuildingBlock: CIFDUS_clean_linker_0, # of connection points: 2
#     Edge 7, Type (0, 0), BuildingBlock: CIFDUS_clean_linker_0, # of connection points: 2
#     Edge 8, Type (0, 0), BuildingBlock: CIFDUS_clean_linker_0, # of connection points: 2
#     Edge 9, Type (0, 0), BuildingBlock: CIFDUS_clean_linker_0, # of connection points: 2
#     Edge 10, Type (0, 0), BuildingBlock: CIFDUS_clean_linker_0, # of connection points: 2
#     Edge 11, Type (0, 0), BuildingBlock: CIFDUS_clean_linker_0, # of connection points: 2
# Relax obj value: 0.109
# Max RMSD: 0.157
# Mean RMSD: 0.150
data_MOF--net-kag--node1-LEVNOQ01_clean_sbu_1--edge1-CIFDUS_clean_linker_0
_symmetry_space_group_name_H-M    P1
_symmetry_Int_Tables_number       1
_symmetry_cell_setting            triclinic
loop_
_symmetry_equiv_pos_as_xyz
'x, y, z'
_cell_length_a     27.711091
_cell_length_b     27.463056
_cell_length_c     13.850883
_cell_angle_alpha  90.517249
_cell_angle_beta   101.95738
_cell_angle_gamma 119.12932
loop_
_atom_site_label
_atom_site_type_symbol
_atom_site_fract_x
_atom_site_fract_y
_atom_site_fract_z
_atom_type_partial_charge
O0 O 0.90271 0.34948 0.92882 0.0
Mg1 Mg 0.91024 0.41926 0.86092 0.0
O2 O 0.96101 0.40615 0.06604 0.0
Mg3 Mg 0.02354 0.49454 0.02213 0.0
O4 O -0.00939 0.47166 0.85275 0.0
O5 O 0.91943 0.42191 0.71943 0.0
O6 O 0.08636 0.58296 0.98437 0.0
O7 O 0.08231 0.45482 0.00393 0.0
Mg8 Mg 0.12637 0.53292 0.16017 0.0
O9 O 0.05537 0.524 0.19485 0.0
O10 O 0.16823 0.59661 0.07608 0.0
O11 O 0.12986 0.45965 0.15426 0.0
O12 O 0.1423 0.56436 0.30091 0.0
C13 C 0.90951 0.51333 0.97709 0.0
C14 C 0.92371 0.35695 0.02137 0.0
C15 C 0.97215 0.45884 0.75706 0.0
C16 C 0.1405 0.61165 0.01143 0.0
C17 C 0.11316 0.43986 0.06389 0.0
C18 C 0.08834 0.54613 0.28382 0.0
O19 O 0.88141 0.47066 0.91106 0.0
O20 O 0.96011 0.52804 0.02659 0.0
O21 O 0.61906 0.94254 0.0571 0.0
Mg22 Mg 0.54379 0.92119 0.94633 0.0
O23 O 0.54629 0.92436 0.11372 0.0
Mg24 Mg 0.52588 -0.01211 0.01696 0.0
O25 O 0.53838 0.97318 0.85163 0.0
O26 O 0.55815 0.90499 0.81806 0.0
O27 O 0.50127 0.05063 0.92818 0.0
O28 O 0.62243 0.05521 0.05732 0.0
Mg29 Mg 0.5474 0.08598 0.14319 0.0
O30 O 0.51121 0.00499 0.17283 0.0
O31 O 0.49642 0.10514 0.03868 0.0
O32 O 0.63621 0.12632 0.15658 0.0
O33 O 0.52347 0.07825 0.27078 0.0
C34 C 0.42065 0.8662 0.95284 0.0
C35 C 0.58926 0.91825 0.1173 0.0
C36 C 0.54827 0.94459 0.79025 0.0
C37 C 0.4882 0.08754 0.94929 0.0
C38 C 0.65579 0.10303 0.10961 0.0
C39 C 0.50681 0.02551 0.25386 0.0
O40 O 0.46051 0.85599 0.95051 0.0
O41 O 0.432 0.91675 0.97169 0.0
O42 O 0.36317 0.4476 0.87578 0.0
Mg43 Mg 0.43513 0.52157 0.86986 0.0
O44 O 0.41569 0.44496 0.01593 0.0
Mg45 Mg 0.51096 0.48414 -0.00596 0.0
O46 O 0.49241 0.50376 0.83411 0.0
O47 O 0.44411 0.53579 0.72992 0.0
O48 O 0.60644 0.52233 0.97338 0.0
O49 O 0.48375 0.39273 0.92676 0.0
Mg50 Mg 0.58584 0.44556 0.12133 0.0
O51 O 0.53005 0.46593 0.15515 0.0
O52 O 0.65817 0.51894 0.11424 0.0
O53 O 0.55026 0.37595 0.01075 0.0
O54 O 0.57585 0.43216 0.26095 0.0
C55 C 0.51627 0.60745 0.04437 0.0
C56 C 0.36657 0.42935 0.9585 0.0
C57 C 0.4789 0.51657 0.74653 0.0
C58 C 0.65527 0.5371 0.03128 0.0
C59 C 0.50656 0.36178 0.94082 0.0
C60 C 0.54319 0.45384 0.24364 0.0
O61 O 0.47085 0.59241 0.97817 0.0
O62 O 0.53848 0.57595 0.05766 0.0
H63 H 0.93504 0.48445 0.58305 0.0
H64 H 0.0873 0.5041 0.78161 0.0
H65 H 0.14039 0.54313 0.65354 0.0
H66 H 0.13824 0.55735 0.47835 0.0
H67 H -0.01688 0.53112 0.27845 0.0
H68 H 0.93608 0.50989 0.41565 0.0
C69 C -0.02 0.49764 0.59845 0.0
C70 C 0.0072 0.49005 0.68952 0.0
C71 C 0.0093 0.51868 0.52467 0.0
C72 C 0.06568 0.50898 0.71085 0.0
C73 C 0.09575 0.53104 0.6378 0.0
C74 C 0.09448 0.54813 0.46516 0.0
C75 C 0.06364 0.54468 0.36833 0.0
C76 C 0.06728 0.53399 0.54329 0.0
C77 C 0.00723 0.53307 0.35221 0.0
C78 C -0.01962 0.52083 0.43037 0.0
H79 H 0.55523 0.96823 0.34193 0.0
H80 H 0.42889 0.01513 0.3529 0.0
H81 H 0.43033 -0.00639 0.52401 0.0
H82 H 0.47761 0.97446 0.67703 0.0
H83 H 0.60667 0.93083 0.66807 0.0
H84 H 0.5955 0.93955 0.49046 0.0
C85 C 0.5264 0.97135 0.38075 0.0
C86 C 0.49163 -0.00746 0.33573 0.0
C87 C 0.5299 0.96198 0.48061 0.0
C88 C 0.45537 -0.00196 0.38666 0.0
C89 C 0.45699 -0.01322 0.4848 0.0
C90 C 0.5035 0.96736 0.63607 0.0
C91 C 0.54381 0.95347 0.68529 0.0
C92 C 0.49609 0.9714 0.53389 0.0
C93 C 0.57598 0.94252 0.63141 0.0
C94 C 0.56929 0.94699 0.52992 0.0
H95 H 0.44708 0.52665 0.55374 0.0
H96 H 0.55871 0.48468 0.75582 0.0
H97 H 0.58857 0.46185 0.6162 0.0
H98 H 0.57953 0.45012 0.43777 0.0
H99 H 0.46695 0.4907 0.23495 0.0
H100 H 0.43985 0.51714 0.37528 0.0
C101 C 0.47826 0.51288 0.56748 0.0
C102 C 0.50066 0.50718 0.66465 0.0
C103 C 0.49419 0.49884 0.48712 0.0
C104 C 0.54093 0.48931 0.68145 0.0
C105 C 0.55775 0.47604 0.60179 0.0
C106 C 0.54876 0.4644 0.42393 0.0
C107 C 0.52467 0.46784 0.32628 0.0
C108 C 0.53391 0.47982 0.5044 0.0
C109 C 0.48561 0.48725 0.30962 0.0
C110 C 0.47035 0.50256 0.38964 0.0
H111 H 0.18844 0.41418 0.17539 0.0
H112 H 0.10102 0.4019 0.87136 0.0
H113 H 0.16607 0.37954 0.81225 0.0
H114 H 0.25895 0.38564 0.84711 0.0
H115 H 0.35523 0.41535 0.15074 0.0
H116 H 0.27439 0.40628 0.21019 0.0
C117 C 0.18268 0.40544 0.09604 0.0
C118 C 0.1408 0.41122 0.02771 0.0
C119 C 0.22226 0.39609 0.06283 0.0
C120 C 0.13331 0.39854 0.92544 0.0
C121 C 0.17072 0.38604 0.89171 0.0
C122 C 0.26189 0.38883 0.92649 0.0
C123 C 0.31378 0.40311 -0.00543 0.0
C124 C 0.21719 0.38808 0.95973 0.0
C125 C 0.31621 0.40524 0.09683 0.0
C126 C 0.27018 0.40076 0.13073 0.0
H127 H 0.74243 0.19611 0.23161 0.0
H128 H 0.70409 0.08304 0.97263 0.0
H129 H 0.79414 0.14927 0.93522 0.0
H130 H 0.87218 0.24644 0.95593 0.0
H131 H 0.9086 0.36166 0.20957 0.0
H132 H 0.83234 0.28676 0.27156 0.0
C133 C 0.75444 0.18539 0.16837 0.0
C134 C 0.71588 0.13546 0.10341 0.0
C135 C 0.8059 0.2242 0.14614 0.0
C136 C 0.73258 0.12149 0.02314 0.0
C137 C 0.78403 0.15949 0.00137 0.0
C138 C 0.86458 0.25465 0.0265 0.0
C139 C 0.89484 0.30969 0.07691 0.0
C140 C 0.81938 0.2121 0.05933 0.0
C141 C 0.88556 0.3197 0.16909 0.0
C142 C 0.84143 0.27703 0.20381 0.0
H143 H 0.64138 0.86608 0.05661 0.0
H144 H 0.52999 0.85089 0.24509 0.0
H145 H 0.50337 0.7521 0.25326 0.0
H146 H 0.49781 0.66612 0.17875 0.0
H147 H 0.60669 0.68299 0.98483 0.0
H148 H 0.64682 0.78469 0.00389 0.0
C149 C 0.61258 0.8419 0.10219 0.0
C150 C 0.58714 0.86585 0.14917 0.0
C151 C 0.59577 0.78481 0.10303 0.0
C152 C 0.54985 0.83344 0.20754 0.0
C153 C 0.53419 0.77677 0.21136 0.0
C154 C 0.5321 0.69258 0.14452 0.0
C155 C 0.55046 0.6676 0.08247 0.0
C156 C 0.55476 0.75132 0.15539 0.0
C157 C 0.5935 0.70173 0.03558 0.0
C158 C 0.61597 0.7598 0.04562 0.0
H159 H 0.83033 0.52437 0.84488 0.0
H160 H 0.92338 0.57095 0.15282 0.0
H161 H 0.85797 0.60006 0.19105 0.0
H162 H 0.76338 0.59105 0.14342 0.0
H163 H 0.66542 0.53408 0.83885 0.0
H164 H 0.74513 0.53321 0.79129 0.0
C165 C 0.837 0.54204 0.92004 0.0
C166 C 0.88052 0.54411 -0.00331 0.0
C167 C 0.79831 0.55689 0.94165 0.0
C168 C 0.88979 0.56842 0.093 0.0
C169 C 0.85223 0.58478 0.11478 0.0
C170 C 0.76021 0.5803 0.06589 0.0
C171 C 0.70792 0.56086 -0.00482 0.0
C172 C 0.80466 0.57622 0.04069 0.0
C173 C 0.70482 0.54853 0.89482 0.0
C174 C 0.75014 0.54714 0.86801 0.0
H175 H 0.20214 0.62948 0.87763 0.0
H176 H 0.15564 0.71272 0.074 0.0
H177 H 0.23715 0.80375 0.06381 0.0
H178 H 0.33096 0.85605 0.02238 0.0
H179 H 0.37875 0.7692 0.83428 0.0
H180 H 0.2875 0.68372 0.81625 0.0
C181 C 0.20863 0.66804 0.9143 0.0
C182 C 0.17299 0.66511 0.97494 0.0
C183 C 0.25671 0.71944 0.91137 0.0
C184 C 0.18212 0.71466 0.02483 0.0
C185 C 0.22921 0.76646 0.02032 0.0
C186 C 0.3207 0.81869 0.97587 0.0
C187 C 0.36183 0.81847 0.93145 0.0
C188 C 0.26832 0.76894 0.96751 0.0
C189 C 0.34816 0.76993 0.87108 0.0
C190 C 0.29592 0.72105 0.86034 0.0
H191 H 0.5529 0.31729 0.84093 0.0
H192 H 0.39914 0.2777 0.92982 0.0
H193 H 0.36883 0.1776 0.90947 0.0
H194 H 0.40073 0.10791 0.91431 0.0
H195 H 0.55566 0.14811 0.82964 0.0
H196 H 0.56979 0.24065 0.79543 0.0
C197 C 0.51143 0.28634 0.85077 0.0
C198 C 0.47844 0.30451 0.88769 0.0
C199 C 0.49493 0.22901 0.84068 0.0
C200 C 0.42496 0.26448 0.90081 0.0
C201 C 0.408 0.20728 0.89034 0.0
C202 C 0.4356 0.13568 0.88233 0.0
C203 C 0.47754 0.12173 0.87579 0.0
C204 C 0.44453 0.18967 0.86688 0.0
C205 C 0.52272 0.15786 0.8348 0.0
C206 C 0.53144 0.21134 0.81733 0.0
loop_
_geom_bond_atom_site_label_1
_geom_bond_atom_site_label_2
_geom_bond_distance
_geom_bond_site_symmetry_2
_ccdc_geom_bond_type
O0 Mg1 1.990 . S
O0 C14 1.253 . S
Mg1 O0 1.990 . S
Mg1 O4 2.180 1_655 S
Mg1 O5 2.117 . S
Mg1 O19 2.030 . S
O2 Mg3 2.072 1_655 S
O2 C14 1.260 1_554 S
Mg3 O2 2.072 1_455 S
Mg3 O4 2.099 1_554 S
Mg3 O6 2.079 . S
Mg3 O7 2.072 1_554 S
Mg3 O9 2.099 . S
Mg3 O20 2.079 1_455 S
O4 Mg1 2.180 1_455 S
O4 Mg3 2.099 1_556 S
O4 C15 1.279 . S
O5 Mg1 2.117 . S
O5 C15 1.250 1_655 S
O6 Mg3 2.079 . S
O6 C16 1.264 . S
O7 Mg3 2.072 1_556 S
O7 C17 1.260 1_556 S
Mg8 O9 2.180 . S
Mg8 O10 2.030 . S
Mg8 O11 1.990 . S
Mg8 O12 2.117 . S
O9 Mg3 2.099 . S
O9 Mg8 2.180 . S
O9 C18 1.279 . S
O10 Mg8 2.030 . S
O10 C16 1.248 . S
O11 Mg8 1.990 . S
O11 C17 1.253 . S
O12 Mg8 2.117 . S
O12 C18 1.250 . S
C13 O19 1.248 . S
C13 O20 1.264 1_556 S
C14 O0 1.253 . S
C14 O2 1.260 1_556 S
C15 O4 1.279 . S
C15 O5 1.250 1_455 S
C16 O6 1.264 . S
C16 O10 1.248 . S
C17 O7 1.260 1_554 S
C17 O11 1.253 . S
C18 O9 1.279 . S
C18 O12 1.250 . S
O19 Mg1 2.030 . S
O19 C13 1.248 . S
O20 Mg3 2.079 1_655 S
O20 C13 1.264 1_554 S
O21 Mg22 1.990 . S
O21 C35 1.253 1_556 S
Mg22 O21 1.990 . S
Mg22 O25 2.180 . S
Mg22 O26 2.117 . S
Mg22 O40 2.030 . S
O23 Mg24 2.072 1_565 S
O23 C35 1.260 . S
Mg24 O23 2.072 1_545 S
Mg24 O25 2.099 1_544 S
Mg24 O27 2.079 1_554 S
Mg24 O28 2.071 1_554 S
Mg24 O30 2.099 . S
Mg24 O41 2.079 1_545 S
O25 Mg22 2.180 . S
O25 Mg24 2.099 1_566 S
O25 C36 1.279 . S
O26 Mg22 2.117 . S
O26 C36 1.250 . S
O27 Mg24 2.079 1_556 S
O27 C37 1.264 1_556 S
O28 Mg24 2.071 1_556 S
O28 C38 1.258 1_556 S
Mg29 O30 2.180 . S
Mg29 O31 2.030 . S
Mg29 O32 1.990 . S
Mg29 O33 2.117 . S
O30 Mg24 2.099 . S
O30 Mg29 2.180 . S
O30 C39 1.279 . S
O31 Mg29 2.030 . S
O31 C37 1.248 . S
O32 Mg29 1.990 . S
O32 C38 1.253 . S
O33 Mg29 2.117 . S
O33 C39 1.250 . S
C34 O40 1.248 . S
C34 O41 1.264 1_556 S
C35 O21 1.253 1_554 S
C35 O23 1.260 . S
C36 O25 1.279 . S
C36 O26 1.250 . S
C37 O27 1.264 1_554 S
C37 O31 1.248 . S
C38 O28 1.258 1_554 S
C38 O32 1.253 . S
C39 O30 1.279 . S
C39 O33 1.250 . S
O40 Mg22 2.030 . S
O40 C34 1.248 . S
O41 Mg24 2.079 1_565 S
O41 C34 1.264 1_554 S
O42 Mg43 1.990 . S
O42 C56 1.253 . S
Mg43 O42 1.990 . S
Mg43 O46 2.180 . S
Mg43 O47 2.117 . S
Mg43 O61 2.030 . S
O44 Mg45 2.072 . S
O44 C56 1.260 1_554 S
Mg45 O44 2.072 . S
Mg45 O46 2.099 1_554 S
Mg45 O48 2.079 . S
Mg45 O49 2.072 1_554 S
Mg45 O51 2.099 . S
Mg45 O62 2.079 . S
O46 Mg43 2.180 . S
O46 Mg45 2.099 1_556 S
O46 C57 1.279 . S
O47 Mg43 2.117 . S
O47 C57 1.250 . S
O48 Mg45 2.079 . S
O48 C58 1.264 . S
O49 Mg45 2.072 1_556 S
O49 C59 1.260 1_556 S
Mg50 O51 2.180 . S
Mg50 O52 2.030 . S
Mg50 O53 1.990 . S
Mg50 O54 2.117 . S
O51 Mg45 2.099 . S
O51 Mg50 2.180 . S
O51 C60 1.279 . S
O52 Mg50 2.030 . S
O52 C58 1.248 . S
O53 Mg50 1.990 . S
O53 C59 1.253 . S
O54 Mg50 2.117 . S
O54 C60 1.250 . S
C55 O61 1.248 1_554 S
C55 O62 1.264 . S
C56 O42 1.253 . S
C56 O44 1.260 1_556 S
C57 O46 1.279 . S
C57 O47 1.250 . S
C58 O48 1.264 . S
C58 O52 1.248 . S
C59 O49 1.260 1_554 S
C59 O53 1.253 . S
C60 O51 1.279 . S
C60 O54 1.250 . S
O61 Mg43 2.030 . S
O61 C55 1.248 1_556 S
O62 Mg45 2.079 . S
O62 C55 1.264 . S
H63 C69 0.930 . S
H64 C72 0.930 . S
H65 C73 0.930 . S
H66 C74 0.930 . S
H67 C77 0.930 . S
H68 C78 0.930 . S
C69 H63 0.930 . S
C69 C70 1.355 . S
C69 C71 1.415 . S
C70 C69 1.355 . S
C70 C72 1.419 . S
C71 C69 1.415 . S
C71 C76 1.425 . S
C71 C78 1.409 . S
C72 H64 0.930 . S
C72 C70 1.419 . S
C72 C73 1.362 . S
C73 H65 0.930 . S
C73 C72 1.362 . S
C73 C76 1.409 . S
C74 H66 0.930 . S
C74 C75 1.355 . S
C74 C76 1.415 . S
C75 C74 1.355 . S
C75 C77 1.419 . S
C76 C71 1.425 . S
C76 C73 1.409 . S
C76 C74 1.415 . S
C77 H67 0.930 . S
C77 C75 1.419 . S
C77 C78 1.362 . S
C78 H68 0.930 . S
C78 C71 1.409 . S
C78 C77 1.362 . S
H79 C85 0.930 . S
H80 C88 0.930 . S
H81 C89 0.930 . S
H82 C90 0.930 . S
H83 C93 0.930 . S
H84 C94 0.930 . S
C85 H79 0.930 . S
C85 C86 1.355 1_565 S
C85 C87 1.415 . S
C86 C85 1.355 1_545 S
C86 C88 1.419 . S
C87 C85 1.415 . S
C87 C92 1.425 1_565 S
C87 C94 1.409 . S
C88 H80 0.930 . S
C88 C86 1.419 . S
C88 C89 1.362 . S
C89 H81 0.930 . S
C89 C88 1.362 . S
C89 C92 1.409 . S
C90 H82 0.930 . S
C90 C91 1.355 . S
C90 C92 1.415 . S
C91 C90 1.355 . S
C91 C93 1.419 1_545 S
C92 C87 1.425 1_545 S
C92 C89 1.409 . S
C92 C90 1.415 . S
C93 H83 0.930 . S
C93 C91 1.419 1_565 S
C93 C94 1.362 . S
C94 H84 0.930 . S
C94 C87 1.409 . S
C94 C93 1.362 . S
H95 C101 0.930 . S
H96 C104 0.930 . S
H97 C105 0.930 . S
H98 C106 0.930 . S
H99 C109 0.930 . S
H100 C110 0.930 . S
C101 H95 0.930 . S
C101 C102 1.355 . S
C101 C103 1.415 . S
C102 C101 1.355 . S
C102 C104 1.419 . S
C103 C101 1.415 . S
C103 C108 1.425 . S
C103 C110 1.409 . S
C104 H96 0.930 . S
C104 C102 1.419 . S
C104 C105 1.362 . S
C105 H97 0.930 . S
C105 C104 1.362 . S
C105 C108 1.409 . S
C106 H98 0.930 . S
C106 C107 1.355 . S
C106 C108 1.415 . S
C107 C106 1.355 . S
C107 C109 1.419 . S
C108 C103 1.425 . S
C108 C105 1.409 . S
C108 C106 1.415 . S
C109 H99 0.930 . S
C109 C107 1.419 . S
C109 C110 1.362 . S
C110 H100 0.930 . S
C110 C103 1.409 . S
C110 C109 1.362 . S
H111 C117 0.930 . S
H112 C120 0.930 . S
H113 C121 0.930 . S
H114 C122 0.930 . S
H115 C125 0.930 . S
H116 C126 0.930 . S
C117 H111 0.930 . S
C117 C118 1.355 . S
C117 C119 1.415 . S
C118 C117 1.355 . S
C118 C120 1.419 1_554 S
C119 C117 1.415 . S
C119 C124 1.425 1_554 S
C119 C126 1.409 . S
C120 H112 0.930 . S
C120 C118 1.419 1_556 S
C120 C121 1.362 . S
C121 H113 0.930 . S
C121 C120 1.362 . S
C121 C124 1.409 . S
C122 H114 0.930 . S
C122 C123 1.355 1_556 S
C122 C124 1.415 . S
C123 C122 1.355 1_554 S
C123 C125 1.419 . S
C124 C119 1.425 1_556 S
C124 C121 1.409 . S
C124 C122 1.415 . S
C125 H115 0.930 . S
C125 C123 1.419 . S
C125 C126 1.362 . S
C126 H116 0.930 . S
C126 C119 1.409 . S
C126 C125 1.362 . S
H127 C133 0.930 . S
H128 C136 0.930 . S
H129 C137 0.930 . S
H130 C138 0.930 . S
H131 C141 0.930 . S
H132 C142 0.930 . S
C133 H127 0.930 . S
C133 C134 1.355 . S
C133 C135 1.415 . S
C134 C133 1.355 . S
C134 C136 1.419 1_554 S
C135 C133 1.415 . S
C135 C140 1.427 . S
C135 C142 1.409 . S
C136 H128 0.930 . S
C136 C134 1.419 1_556 S
C136 C137 1.362 . S
C137 H129 0.930 . S
C137 C136 1.362 . S
C137 C140 1.408 1_556 S
C138 H130 0.930 . S
C138 C139 1.355 1_556 S
C138 C140 1.414 1_556 S
C139 C138 1.355 1_554 S
C139 C141 1.419 . S
C140 C135 1.427 . S
C140 C137 1.408 1_554 S
C140 C138 1.414 1_554 S
C141 H131 0.930 . S
C141 C139 1.419 . S
C141 C142 1.362 . S
C142 H132 0.930 . S
C142 C135 1.409 . S
C142 C141 1.362 . S
H143 C149 0.930 . S
H144 C152 0.930 . S
H145 C153 0.930 . S
H146 C154 0.930 . S
H147 C157 0.930 . S
H148 C158 0.930 . S
C149 H143 0.930 . S
C149 C150 1.355 1_556 S
C149 C151 1.415 1_556 S
C150 C149 1.355 1_554 S
C150 C152 1.419 . S
C151 C149 1.415 1_554 S
C151 C156 1.425 . S
C151 C158 1.409 1_554 S
C152 H144 0.930 . S
C152 C150 1.419 . S
C152 C153 1.362 . S
C153 H145 0.930 . S
C153 C152 1.362 . S
C153 C156 1.409 . S
C154 H146 0.930 . S
C154 C155 1.355 . S
C154 C156 1.415 . S
C155 C154 1.355 . S
C155 C157 1.419 1_554 S
C156 C151 1.425 . S
C156 C153 1.409 . S
C156 C154 1.415 . S
C157 H147 0.930 . S
C157 C155 1.419 1_556 S
C157 C158 1.362 . S
C158 H148 0.930 . S
C158 C151 1.409 1_556 S
C158 C157 1.362 . S
H159 C165 0.930 . S
H160 C168 0.930 . S
H161 C169 0.930 . S
H162 C170 0.930 . S
H163 C173 0.930 . S
H164 C174 0.930 . S
C165 H159 0.930 . S
C165 C166 1.355 1_556 S
C165 C167 1.415 . S
C166 C165 1.355 1_554 S
C166 C168 1.419 . S
C167 C165 1.415 . S
C167 C172 1.425 1_556 S
C167 C174 1.409 . S
C168 H160 0.930 . S
C168 C166 1.419 . S
C168 C169 1.362 . S
C169 H161 0.930 . S
C169 C168 1.362 . S
C169 C172 1.409 . S
C170 H162 0.930 . S
C170 C171 1.355 . S
C170 C172 1.415 . S
C171 C170 1.355 . S
C171 C173 1.419 1_554 S
C172 C167 1.425 1_554 S
C172 C169 1.409 . S
C172 C170 1.415 . S
C173 H163 0.930 . S
C173 C171 1.419 1_556 S
C173 C174 1.362 . S
C174 H164 0.930 . S
C174 C167 1.409 . S
C174 C173 1.362 . S
H175 C181 0.930 . S
H176 C184 0.930 . S
H177 C185 0.930 . S
H178 C186 0.930 . S
H179 C189 0.930 . S
H180 C190 0.930 . S
C181 H175 0.930 . S
C181 C182 1.355 1_556 S
C181 C183 1.415 . S
C182 C181 1.355 1_554 S
C182 C184 1.419 . S
C183 C181 1.415 . S
C183 C188 1.425 1_556 S
C183 C190 1.409 . S
C184 H176 0.930 . S
C184 C182 1.419 . S
C184 C185 1.362 . S
C185 H177 0.930 . S
C185 C184 1.362 . S
C185 C188 1.409 . S
C186 H178 0.930 . S
C186 C187 1.355 1_554 S
C186 C188 1.415 . S
C187 C186 1.355 1_556 S
C187 C189 1.419 . S
C188 C183 1.425 1_554 S
C188 C185 1.409 . S
C188 C186 1.415 . S
C189 H179 0.930 . S
C189 C187 1.419 . S
C189 C190 1.362 . S
C190 H180 0.930 . S
C190 C183 1.409 . S
C190 C189 1.362 . S
H191 C197 0.930 . S
H192 C200 0.930 . S
H193 C201 0.930 . S
H194 C202 0.930 . S
H195 C205 0.930 . S
H196 C206 0.931 1_554 S
C197 H191 0.930 . S
C197 C198 1.355 . S
C197 C199 1.415 . S
C198 C197 1.355 . S
C198 C200 1.419 . S
C199 C197 1.415 . S
C199 C204 1.425 . S
C199 C206 1.409 . S
C200 H192 0.930 . S
C200 C198 1.419 . S
C200 C201 1.362 . S
C201 H193 0.930 . S
C201 C200 1.362 . S
C201 C204 1.409 . S
C202 H194 0.930 . S
C202 C203 1.355 . S
C202 C204 1.415 . S
C203 C202 1.355 . S
C203 C205 1.420 1_556 S
C204 C199 1.425 . S
C204 C201 1.409 . S
C204 C202 1.415 . S
C205 H195 0.930 . S
C205 C203 1.420 1_554 S
C205 C206 1.362 1_554 S
C206 H196 0.931 1_556 S
C206 C199 1.409 . S
C206 C205 1.362 1_556 S
C70 C15 1.257 . S
C75 C18 1.257 . S
C86 C39 1.253 . S
C91 C36 1.253 1_545 S
C102 C57 1.336 . S
C107 C60 1.336 . S
C118 C17 1.252 . S
C123 C56 1.258 1_554 S
C134 C38 1.261 . S
C139 C14 1.231 1_554 S
C150 C35 1.239 . S
C155 C55 1.148 . S
C166 C13 1.213 1_554 S
C171 C58 1.193 . S
C182 C16 1.144 . S
C187 C34 1.143 . S
C198 C59 1.222 1_556 S
C203 C37 1.152 1_556 S
