# Generated by pormake.
# Topology umy, (4)-cn, num edge types: 1
# Building blocks:
#     Node 0, Type 0, BuildingBlock: CEKHIL_clean_sbu_0, # of connection points: 4
#     Node 1, Type 0, BuildingBlock: CEKHIL_clean_sbu_0, # of connection points: 4
#     Node 2, Type 0, BuildingBlock: CEKHIL_clean_sbu_0, # of connection points: 4
#     Node 3, Type 0, BuildingBlock: CEKHIL_clean_sbu_0, # of connection points: 4
#     Node 4, Type 0, BuildingBlock: CEKHIL_clean_sbu_0, # of connection points: 4
#     Node 5, Type 0, BuildingBlock: CEKHIL_clean_sbu_0, # of connection points: 4
#     Node 6, Type 0, BuildingBlock: CEKHIL_clean_sbu_0, # of connection points: 4
#     Node 7, Type 0, BuildingBlock: CEKHIL_clean_sbu_0, # of connection points: 4
#     Node 8, Type 0, BuildingBlock: CEKHIL_clean_sbu_0, # of connection points: 4
#     Node 9, Type 0, BuildingBlock: CEKHIL_clean_sbu_0, # of connection points: 4
#     Node 10, Type 0, BuildingBlock: CEKHIL_clean_sbu_0, # of connection points: 4
#     Node 11, Type 0, BuildingBlock: CEKHIL_clean_sbu_0, # of connection points: 4
#     Edge 12, Type (0, 0), None
#     Edge 13, Type (0, 0), None
#     Edge 14, Type (0, 0), None
#     Edge 15, Type (0, 0), None
#     Edge 16, Type (0, 0), None
#     Edge 17, Type (0, 0), None
#     Edge 18, Type (0, 0), None
#     Edge 19, Type (0, 0), None
#     Edge 20, Type (0, 0), None
#     Edge 21, Type (0, 0), None
#     Edge 22, Type (0, 0), None
#     Edge 23, Type (0, 0), None
#     Edge 24, Type (0, 0), None
#     Edge 25, Type (0, 0), None
#     Edge 26, Type (0, 0), None
#     Edge 27, Type (0, 0), None
#     Edge 28, Type (0, 0), None
#     Edge 29, Type (0, 0), None
#     Edge 30, Type (0, 0), None
#     Edge 31, Type (0, 0), None
#     Edge 32, Type (0, 0), None
#     Edge 33, Type (0, 0), None
#     Edge 34, Type (0, 0), None
#     Edge 35, Type (0, 0), None
# Relax obj value: 0.125
# Max RMSD: 0.086
# Mean RMSD: 0.086
data_MOF--net-umy--node1-CEKHIL_clean_sbu_0--edge1-none
_symmetry_space_group_name_H-M    P1
_symmetry_Int_Tables_number       1
_symmetry_cell_setting            triclinic
loop_
_symmetry_equiv_pos_as_xyz
'x, y, z'
_cell_length_a     16.29501
_cell_length_b     16.304863
_cell_length_c     22.413325
_cell_angle_alpha  89.999976
_cell_angle_beta   90.000012
_cell_angle_gamma 120.05789
loop_
_atom_site_label
_atom_site_type_symbol
_atom_site_fract_x
_atom_site_fract_y
_atom_site_fract_z
_atom_type_partial_charge
Co0 Co 0.0742 0.37006 0.14042 0.0
O1 O 1.02693 0.42247 0.08151 0.0
O2 O 0.13836 0.50684 0.14809 0.0
C3 C 0.93244 0.24933 0.17379 0.0
O4 O 0.13685 0.3401 0.20967 0.0
Co5 Co 0.03777 0.16538 0.12109 0.0
O6 O 0.09094 0.18483 0.20311 0.0
C7 C 0.17639 0.31859 0.04643 0.0
C8 C 0.0855 0.50472 0.10401 0.0
C9 C 0.13165 0.26399 0.23059 0.0
O10 O 0.17597 0.37979 0.08275 0.0
O11 O 0.11423 0.23061 0.04832 0.0
O12 O 0.9635 0.33536 0.1925 0.0
O13 O 0.98026 0.24306 0.12994 0.0
Co14 Co 0.72286 0.06493 0.30731 0.0
O15 O 0.62307 1.01763 0.24841 0.0
O16 O 0.6501 0.12886 0.31507 0.0
C17 C 0.70199 0.92334 0.34059 0.0
O18 O 0.81557 0.12759 0.37655 0.0
Co19 Co 0.89145 0.02902 0.28783 0.0
O20 O 0.92517 0.08202 0.3699 0.0
C21 C 0.87634 0.16716 0.21319 0.0
C22 C 0.59937 0.0761 0.27094 0.0
C23 C 0.88659 0.12251 0.39743 0.0
O24 O 0.81487 0.16678 0.24966 0.0
O25 O 0.90218 0.1051 0.215 0.0
O26 O 0.64688 0.95417 0.35936 0.0
O27 O 0.75609 0.97125 0.29674 0.0
Co28 Co 0.67699 0.71374 0.47388 0.0
O29 O 0.6246 0.61417 0.41488 0.0
O30 O 0.54015 0.64078 0.48158 0.0
C31 C 0.79785 0.69297 0.5071 0.0
O32 O 0.70699 0.80626 0.5432 0.0
Co33 Co 0.88169 0.88244 0.45447 0.0
O34 O 0.86234 0.91596 0.53657 0.0
C35 C 0.7282 0.86733 0.37992 0.0
C36 C 0.5423 0.59024 0.4374 0.0
C37 C 0.78317 0.87732 0.56409 0.0
O38 O 0.66707 0.8057 0.41633 0.0
O39 O 0.81624 0.89335 0.38173 0.0
O40 O 0.7118 0.6378 0.52584 0.0
O41 O 0.80406 0.74714 0.46332 0.0
Co42 Co 0.98229 0.66759 0.64042 0.0
O43 O 0.02958 0.61519 0.58152 0.0
O44 O 0.91814 0.53081 0.64809 0.0
C45 C 0.12405 0.78832 0.6738 0.0
O46 O 0.91963 0.69754 0.70967 0.0
Co47 Co 1.0187 0.87226 0.62108 0.0
O48 O 0.96554 0.85282 0.70311 0.0
C49 C 0.88012 0.71905 0.54641 0.0
C50 C 0.97101 0.53293 0.60401 0.0
C51 C 0.92483 0.77365 0.73059 0.0
O52 O 0.88054 0.65785 0.58274 0.0
O53 O 0.94224 0.80704 0.54832 0.0
O54 O 0.09299 0.7023 0.69251 0.0
O55 O 0.07623 0.7946 0.62994 0.0
Co56 Co 0.33363 0.97272 0.80731 0.0
O57 O 0.43341 0.02001 0.74841 0.0
O58 O 0.40638 0.90879 0.81507 0.0
C59 C 0.3545 0.11432 0.84059 0.0
O60 O 0.24092 0.91007 0.87655 0.0
Co61 Co 0.16504 1.00864 0.78783 0.0
O62 O 0.13131 0.95563 0.8699 0.0
C63 C 0.18015 0.87049 0.71319 0.0
C64 C 0.45711 0.96154 0.77094 0.0
C65 C 0.16989 0.91515 0.89743 0.0
O66 O 0.24161 0.87088 0.74966 0.0
O67 O 0.15431 0.93256 0.715 0.0
O68 O 0.4096 0.08348 0.85935 0.0
O69 O 0.3004 0.06641 0.79674 0.0
Co70 Co 0.37949 0.32391 0.97388 0.0
O71 O 0.43187 0.42349 0.91489 0.0
O72 O 0.51633 0.39687 0.98158 0.0
C73 C 0.25867 0.34463 1.00713 0.0
O74 O 0.3495 0.23138 0.0432 0.0
Co75 Co 0.1748 0.15519 0.95447 0.0
O76 O 0.19415 0.12169 0.03657 0.0
C77 C 0.32829 0.17032 0.87991 0.0
C78 C 0.51418 0.44741 0.9374 0.0
C79 C 0.27332 0.16033 0.06409 0.0
O80 O 0.38941 0.23196 0.91632 0.0
O81 O 0.24025 0.1443 0.88173 0.0
O82 O 0.34471 0.39986 0.02586 0.0
O83 O 0.25241 0.29049 0.96332 0.0
Co84 Co 0.67709 0.97277 0.71377 0.0
O85 O 0.62472 0.01997 0.77274 0.0
O86 O 0.54023 0.90873 0.7061 0.0
C87 C 0.7979 0.1145 0.68048 0.0
O88 O 0.70704 0.91021 0.64447 0.0
Co89 Co 0.88184 1.00907 0.7331 0.0
O90 O 0.8624 0.95605 0.65104 0.0
C91 C 0.72846 0.87045 0.80769 0.0
C92 C 0.54241 0.96151 0.75023 0.0
C93 C 0.78319 0.91538 0.62356 0.0
O94 O 0.66726 0.87095 0.77136 0.0
O95 O 0.8165 0.93256 0.80583 0.0
O96 O 0.71184 0.08349 0.66176 0.0
O97 O 0.80417 0.06662 0.72428 0.0
Co98 Co 0.72303 0.66741 0.88021 0.0
O99 O 0.62335 0.61497 0.93918 0.0
O100 O 0.65011 0.53066 0.87247 0.0
C101 C 0.70232 0.78819 0.84697 0.0
O102 O 0.81566 0.69745 0.81092 0.0
Co103 Co 0.89181 0.87199 0.89969 0.0
O104 O 0.9254 0.85271 0.81759 0.0
C105 C 0.87656 0.71858 0.97426 0.0
C106 C 0.5995 0.53274 0.91664 0.0
C107 C 0.88675 0.7736 0.79005 0.0
O108 O 0.81502 0.65751 0.93779 0.0
O109 O 0.90247 0.80654 0.97248 0.0
O110 O 0.64707 0.7022 0.82822 0.0
O111 O 0.75644 0.7944 0.89081 0.0
Co112 Co 0.07423 0.71342 0.04701 0.0
O113 O 1.02691 0.61363 0.10588 0.0
O114 O 0.13834 0.64084 0.03929 0.0
C115 C 0.93261 0.69245 0.01362 0.0
O116 O 0.13694 0.80614 0.97779 0.0
Co117 Co 0.038 0.88176 0.06642 0.0
O118 O 0.09117 0.91555 0.98439 0.0
C119 C 0.17638 0.86699 0.1411 0.0
C120 C 0.08547 0.59002 0.08336 0.0
C121 C 0.1318 0.87709 0.95689 0.0
O122 O 0.176 0.80546 0.10471 0.0
O123 O 0.11423 0.89275 0.13923 0.0
O124 O 0.96352 0.63741 0.99489 0.0
O125 O 0.98037 0.7465 0.05752 0.0
Co126 Co 0.37939 0.06487 0.21377 0.0
O127 O 0.43176 1.01766 0.27274 0.0
O128 O 0.51625 0.12892 0.2061 0.0
C129 C 0.25861 0.92322 0.18045 0.0
O130 O 0.34945 0.12745 0.14447 0.0
Co131 Co 0.17464 0.02859 0.2331 0.0
O132 O 0.19409 0.0816 0.15104 0.0
C133 C 0.32803 0.16719 0.30769 0.0
C134 C 0.51407 0.07613 0.25023 0.0
C135 C 0.2733 0.12227 0.12356 0.0
O136 O 0.38922 0.16669 0.27136 0.0
O137 O 0.23998 0.10509 0.30583 0.0
O138 O 0.34467 0.95417 0.16174 0.0
O139 O 0.2523 0.97104 0.22428 0.0
Co140 Co 0.33345 0.37023 0.38021 0.0
O141 O 0.43314 0.42268 0.43918 0.0
O142 O 0.40637 0.50698 0.37247 0.0
C143 C 0.35417 0.24945 0.34698 0.0
O144 O 0.24083 0.34018 0.31092 0.0
Co145 Co 0.16468 0.16565 0.39969 0.0
O146 O 0.13108 0.18493 0.31759 0.0
C147 C 0.17992 0.31906 0.47426 0.0
C148 C 0.45699 0.5049 0.41664 0.0
C149 C 0.16973 0.26404 0.29005 0.0
O150 O 0.24147 0.38013 0.43779 0.0
O151 O 0.15402 0.2311 0.47248 0.0
O152 O 0.40942 0.33544 0.32823 0.0
O153 O 0.30005 0.24324 0.39081 0.0
Co154 Co 0.98227 0.32423 0.54701 0.0
O155 O 0.0296 0.42403 0.60587 0.0
O156 O 0.91816 0.39682 0.53929 0.0
C157 C 0.12388 0.34518 0.51362 0.0
O158 O 0.91954 0.23151 0.4778 0.0
Co159 Co 1.01847 0.15588 0.56642 0.0
O160 O 0.96531 0.12209 0.48439 0.0
C161 C 0.88013 0.17069 0.64112 0.0
C162 C 0.97103 0.44764 0.58336 0.0
C163 C 0.92468 0.16056 0.4569 0.0
O164 O 0.8805 0.23221 0.60472 0.0
O165 O 0.94224 0.14488 0.63924 0.0
O166 O 0.09297 0.40023 0.49489 0.0
O167 O 0.07611 0.29114 0.55752 0.0
loop_
_geom_bond_atom_site_label_1
_geom_bond_atom_site_label_2
_geom_bond_distance
_geom_bond_site_symmetry_2
_ccdc_geom_bond_type
Co0 O1 2.216 1_455 S
Co0 O2 2.091 . S
Co0 O4 2.004 . S
Co0 O10 2.021 . S
Co0 O12 2.137 1_455 S
Co0 O13 2.244 1_455 S
O1 Co0 2.216 1_655 S
O1 C8 1.247 1_655 S
O2 Co0 2.091 . S
O2 C8 1.261 . S
C3 O12 1.247 . S
C3 O13 1.272 . S
O4 Co0 2.004 . S
O4 C9 1.259 . S
Co5 O6 2.061 . S
Co5 O11 2.052 . S
Co5 O13 2.135 1_455 S
O6 Co5 2.061 . S
O6 C9 1.235 . S
C7 O10 1.238 . S
C7 O11 1.241 . S
C8 O1 1.247 1_455 S
C8 O2 1.261 . S
C9 O4 1.259 . S
C9 O6 1.235 . S
O10 Co0 2.021 . S
O10 C7 1.238 . S
O11 Co5 2.052 . S
O11 C7 1.241 . S
O12 Co0 2.137 1_655 S
O12 C3 1.247 . S
O13 Co0 2.244 1_655 S
O13 C3 1.272 . S
O13 Co5 2.135 1_655 S
Co14 O15 2.216 1_545 S
Co14 O16 2.091 . S
Co14 O18 2.004 . S
Co14 O24 2.021 . S
Co14 O26 2.137 1_545 S
Co14 O27 2.244 1_545 S
O15 Co14 2.216 1_565 S
O15 C22 1.247 1_565 S
O16 Co14 2.091 . S
O16 C22 1.261 . S
C17 O26 1.247 . S
C17 O27 1.272 . S
O18 Co14 2.004 . S
O18 C23 1.259 . S
Co19 O20 2.061 . S
Co19 O25 2.052 . S
Co19 O27 2.135 1_545 S
O20 Co19 2.061 . S
O20 C23 1.235 . S
C21 O24 1.238 . S
C21 O25 1.241 . S
C22 O15 1.247 1_545 S
C22 O16 1.261 . S
C23 O18 1.259 . S
C23 O20 1.235 . S
O24 Co14 2.021 . S
O24 C21 1.238 . S
O25 Co19 2.052 . S
O25 C21 1.241 . S
O26 Co14 2.137 1_565 S
O26 C17 1.247 . S
O27 Co14 2.244 1_565 S
O27 C17 1.272 . S
O27 Co19 2.135 1_565 S
Co28 O29 2.216 . S
Co28 O30 2.091 . S
Co28 O32 2.004 . S
Co28 O38 2.021 . S
Co28 O40 2.137 . S
Co28 O41 2.244 . S
O29 Co28 2.216 . S
O29 C36 1.247 . S
O30 Co28 2.091 . S
O30 C36 1.261 . S
C31 O40 1.247 . S
C31 O41 1.272 . S
O32 Co28 2.004 . S
O32 C37 1.259 . S
Co33 O34 2.061 . S
Co33 O39 2.052 . S
Co33 O41 2.135 . S
O34 Co33 2.061 . S
O34 C37 1.235 . S
C35 O38 1.238 . S
C35 O39 1.241 . S
C36 O29 1.247 . S
C36 O30 1.261 . S
C37 O32 1.259 . S
C37 O34 1.235 . S
O38 Co28 2.021 . S
O38 C35 1.238 . S
O39 Co33 2.052 . S
O39 C35 1.241 . S
O40 Co28 2.137 . S
O40 C31 1.247 . S
O41 Co28 2.244 . S
O41 C31 1.272 . S
O41 Co33 2.135 . S
Co42 O43 2.216 1_655 S
Co42 O44 2.091 . S
Co42 O46 2.004 . S
Co42 O52 2.021 . S
Co42 O54 2.137 1_655 S
Co42 O55 2.244 1_655 S
O43 Co42 2.216 1_455 S
O43 C50 1.247 1_455 S
O44 Co42 2.091 . S
O44 C50 1.261 . S
C45 O54 1.247 . S
C45 O55 1.272 . S
O46 Co42 2.004 . S
O46 C51 1.259 . S
Co47 O48 2.061 . S
Co47 O53 2.052 . S
Co47 O55 2.135 1_655 S
O48 Co47 2.061 . S
O48 C51 1.235 . S
C49 O52 1.238 . S
C49 O53 1.241 . S
C50 O43 1.247 1_655 S
C50 O44 1.261 . S
C51 O46 1.259 . S
C51 O48 1.235 . S
O52 Co42 2.021 . S
O52 C49 1.238 . S
O53 Co47 2.052 . S
O53 C49 1.241 . S
O54 Co42 2.137 1_455 S
O54 C45 1.247 . S
O55 Co42 2.244 1_455 S
O55 C45 1.272 . S
O55 Co47 2.135 1_455 S
Co56 O57 2.216 1_565 S
Co56 O58 2.091 . S
Co56 O60 2.004 . S
Co56 O66 2.021 . S
Co56 O68 2.137 1_565 S
Co56 O69 2.244 1_565 S
O57 Co56 2.216 1_545 S
O57 C64 1.247 1_545 S
O58 Co56 2.091 . S
O58 C64 1.261 . S
C59 O68 1.247 . S
C59 O69 1.272 . S
O60 Co56 2.004 . S
O60 C65 1.259 . S
Co61 O62 2.061 . S
Co61 O67 2.052 . S
Co61 O69 2.135 1_565 S
O62 Co61 2.061 . S
O62 C65 1.235 . S
C63 O66 1.238 . S
C63 O67 1.241 . S
C64 O57 1.247 1_565 S
C64 O58 1.261 . S
C65 O60 1.259 . S
C65 O62 1.235 . S
O66 Co56 2.021 . S
O66 C63 1.238 . S
O67 Co61 2.052 . S
O67 C63 1.241 . S
O68 Co56 2.137 1_545 S
O68 C59 1.247 . S
O69 Co56 2.244 1_545 S
O69 C59 1.272 . S
O69 Co61 2.135 1_545 S
Co70 O71 2.216 . S
Co70 O72 2.091 . S
Co70 O74 2.004 1_556 S
Co70 O80 2.021 . S
Co70 O82 2.137 1_556 S
Co70 O83 2.244 . S
O71 Co70 2.216 . S
O71 C78 1.247 . S
O72 Co70 2.091 . S
O72 C78 1.261 . S
C73 O82 1.247 . S
C73 O83 1.272 1_554 S
O74 Co70 2.004 1_554 S
O74 C79 1.259 . S
Co75 O76 2.061 1_556 S
Co75 O81 2.052 . S
Co75 O83 2.135 . S
O76 Co75 2.061 1_554 S
O76 C79 1.235 . S
C77 O80 1.238 . S
C77 O81 1.241 . S
C78 O71 1.247 . S
C78 O72 1.261 . S
C79 O74 1.259 . S
C79 O76 1.235 . S
O80 Co70 2.021 . S
O80 C77 1.238 . S
O81 Co75 2.052 . S
O81 C77 1.241 . S
O82 Co70 2.137 1_554 S
O82 C73 1.247 . S
O83 Co70 2.244 . S
O83 C73 1.272 1_556 S
O83 Co75 2.135 . S
Co84 O85 2.216 1_565 S
Co84 O86 2.091 . S
Co84 O88 2.004 . S
Co84 O94 2.021 . S
Co84 O96 2.137 1_565 S
Co84 O97 2.244 1_565 S
O85 Co84 2.216 1_545 S
O85 C92 1.247 1_545 S
O86 Co84 2.091 . S
O86 C92 1.261 . S
C87 O96 1.247 . S
C87 O97 1.272 . S
O88 Co84 2.004 . S
O88 C93 1.259 . S
Co89 O90 2.061 . S
Co89 O95 2.052 . S
Co89 O97 2.135 1_565 S
O90 Co89 2.061 . S
O90 C93 1.235 . S
C91 O94 1.238 . S
C91 O95 1.241 . S
C92 O85 1.247 1_565 S
C92 O86 1.261 . S
C93 O88 1.259 . S
C93 O90 1.235 . S
O94 Co84 2.021 . S
O94 C91 1.238 . S
O95 Co89 2.052 . S
O95 C91 1.241 . S
O96 Co84 2.137 1_545 S
O96 C87 1.247 . S
O97 Co84 2.244 1_545 S
O97 C87 1.272 . S
O97 Co89 2.135 1_545 S
Co98 O99 2.216 . S
Co98 O100 2.091 . S
Co98 O102 2.004 . S
Co98 O108 2.021 . S
Co98 O110 2.137 . S
Co98 O111 2.244 . S
O99 Co98 2.216 . S
O99 C106 1.247 . S
O100 Co98 2.091 . S
O100 C106 1.261 . S
C101 O110 1.247 . S
C101 O111 1.272 . S
O102 Co98 2.004 . S
O102 C107 1.259 . S
Co103 O104 2.061 . S
Co103 O109 2.052 . S
Co103 O111 2.135 . S
O104 Co103 2.061 . S
O104 C107 1.235 . S
C105 O108 1.238 . S
C105 O109 1.241 . S
C106 O99 1.247 . S
C106 O100 1.261 . S
C107 O102 1.259 . S
C107 O104 1.235 . S
O108 Co98 2.021 . S
O108 C105 1.238 . S
O109 Co103 2.052 . S
O109 C105 1.241 . S
O110 Co98 2.137 . S
O110 C101 1.247 . S
O111 Co98 2.244 . S
O111 C101 1.272 . S
O111 Co103 2.135 . S
Co112 O113 2.216 1_455 S
Co112 O114 2.091 . S
Co112 O116 2.004 1_554 S
Co112 O122 2.021 . S
Co112 O124 2.137 1_454 S
Co112 O125 2.244 1_455 S
O113 Co112 2.216 1_655 S
O113 C120 1.247 1_655 S
O114 Co112 2.091 . S
O114 C120 1.261 . S
C115 O124 1.247 . S
C115 O125 1.272 1_556 S
O116 Co112 2.004 1_556 S
O116 C121 1.259 . S
Co117 O118 2.061 1_554 S
Co117 O123 2.052 . S
Co117 O125 2.135 1_455 S
O118 Co117 2.061 1_556 S
O118 C121 1.235 . S
C119 O122 1.238 . S
C119 O123 1.241 . S
C120 O113 1.247 1_455 S
C120 O114 1.261 . S
C121 O116 1.259 . S
C121 O118 1.235 . S
O122 Co112 2.021 . S
O122 C119 1.238 . S
O123 Co117 2.052 . S
O123 C119 1.241 . S
O124 Co112 2.137 1_656 S
O124 C115 1.247 . S
O125 Co112 2.244 1_655 S
O125 C115 1.272 1_554 S
O125 Co117 2.135 1_655 S
Co126 O127 2.216 1_545 S
Co126 O128 2.091 . S
Co126 O130 2.004 . S
Co126 O136 2.021 . S
Co126 O138 2.137 1_545 S
Co126 O139 2.244 1_545 S
O127 Co126 2.216 1_565 S
O127 C134 1.247 1_565 S
O128 Co126 2.091 . S
O128 C134 1.261 . S
C129 O138 1.247 . S
C129 O139 1.272 . S
O130 Co126 2.004 . S
O130 C135 1.259 . S
Co131 O132 2.061 . S
Co131 O137 2.052 . S
Co131 O139 2.135 1_545 S
O132 Co131 2.061 . S
O132 C135 1.235 . S
C133 O136 1.238 . S
C133 O137 1.241 . S
C134 O127 1.247 1_545 S
C134 O128 1.261 . S
C135 O130 1.259 . S
C135 O132 1.235 . S
O136 Co126 2.021 . S
O136 C133 1.238 . S
O137 Co131 2.052 . S
O137 C133 1.241 . S
O138 Co126 2.137 1_565 S
O138 C129 1.247 . S
O139 Co126 2.244 1_565 S
O139 C129 1.272 . S
O139 Co131 2.135 1_565 S
Co140 O141 2.216 . S
Co140 O142 2.091 . S
Co140 O144 2.004 . S
Co140 O150 2.021 . S
Co140 O152 2.137 . S
Co140 O153 2.244 . S
O141 Co140 2.216 . S
O141 C148 1.247 . S
O142 Co140 2.091 . S
O142 C148 1.261 . S
C143 O152 1.247 . S
C143 O153 1.272 . S
O144 Co140 2.004 . S
O144 C149 1.259 . S
Co145 O146 2.061 . S
Co145 O151 2.052 . S
Co145 O153 2.135 . S
O146 Co145 2.061 . S
O146 C149 1.235 . S
C147 O150 1.238 . S
C147 O151 1.241 . S
C148 O141 1.247 . S
C148 O142 1.261 . S
C149 O144 1.259 . S
C149 O146 1.235 . S
O150 Co140 2.021 . S
O150 C147 1.238 . S
O151 Co145 2.052 . S
O151 C147 1.241 . S
O152 Co140 2.137 . S
O152 C143 1.247 . S
O153 Co140 2.244 . S
O153 C143 1.272 . S
O153 Co145 2.135 . S
Co154 O155 2.216 1_655 S
Co154 O156 2.091 . S
Co154 O158 2.004 . S
Co154 O164 2.021 . S
Co154 O166 2.137 1_655 S
Co154 O167 2.244 1_655 S
O155 Co154 2.216 1_455 S
O155 C162 1.247 1_455 S
O156 Co154 2.091 . S
O156 C162 1.261 . S
C157 O166 1.247 . S
C157 O167 1.272 . S
O158 Co154 2.004 . S
O158 C163 1.259 . S
Co159 O160 2.061 . S
Co159 O165 2.052 . S
Co159 O167 2.135 1_655 S
O160 Co159 2.061 . S
O160 C163 1.235 . S
C161 O164 1.238 . S
C161 O165 1.241 . S
C162 O155 1.247 1_655 S
C162 O156 1.261 . S
C163 O158 1.259 . S
C163 O160 1.235 . S
O164 Co154 2.021 . S
O164 C161 1.238 . S
O165 Co159 2.052 . S
O165 C161 1.241 . S
O166 Co154 2.137 1_455 S
O166 C157 1.247 . S
O167 Co154 2.244 1_455 S
O167 C157 1.272 . S
O167 Co159 2.135 1_455 S
C120 C8 1.553 . S
C22 C134 1.553 . S
C36 C148 1.553 . S
C50 C162 1.553 . S
C92 C64 1.553 . S
C78 C106 1.553 . S
C7 C73 1.744 . S
C21 C3 1.744 . S
C35 C17 1.744 . S
C31 C49 1.744 . S
C45 C63 1.744 . S
C59 C77 1.744 . S
C101 C91 1.744 . S
C105 C115 1.744 . S
C129 C119 1.744 . S
C133 C143 1.744 . S
C147 C157 1.744 . S
C161 C87 1.744 . S
C149 C9 1.259 . S
C163 C23 1.259 . S
C93 C37 1.259 . S
C51 C107 1.259 . S
C65 C121 1.259 . S
C135 C79 1.259 . S
