# Generated by pormake.
# Topology bcu, (8)-cn, num edge types: 1
# Building blocks:
#     Node 0, Type 0, BuildingBlock: VETTIZ_charged_sbu_0, # of connection points: 8
#     Node 1, Type 0, BuildingBlock: VETTIZ_charged_sbu_0, # of connection points: 8
#     Edge 2, Type (0, 0), BuildingBlock: EZIPEK_clean_linker_0, # of connection points: 2
#     Edge 3, Type (0, 0), BuildingBlock: EZIPEK_clean_linker_0, # of connection points: 2
#     Edge 4, Type (0, 0), BuildingBlock: EZIPEK_clean_linker_0, # of connection points: 2
#     Edge 5, Type (0, 0), BuildingBlock: EZIPEK_clean_linker_0, # of connection points: 2
#     Edge 6, Type (0, 0), BuildingBlock: EZIPEK_clean_linker_0, # of connection points: 2
#     Edge 7, Type (0, 0), BuildingBlock: EZIPEK_clean_linker_0, # of connection points: 2
#     Edge 8, Type (0, 0), BuildingBlock: EZIPEK_clean_linker_0, # of connection points: 2
#     Edge 9, Type (0, 0), BuildingBlock: EZIPEK_clean_linker_0, # of connection points: 2
# Relax obj value: 0.000
# Max RMSD: 0.009
# Mean RMSD: 0.009
data_MOF--net-bcu--node1-VETTIZ_charged_sbu_0--edge1-EZIPEK_clean_linker_0
_symmetry_space_group_name_H-M    P1
_symmetry_Int_Tables_number       1
_symmetry_cell_setting            triclinic
loop_
_symmetry_equiv_pos_as_xyz
'x, y, z'
_cell_length_a     14.29539
_cell_length_b     16.312654
_cell_length_c     14.316471
_cell_angle_alpha  89.867127
_cell_angle_beta   86.16323
_cell_angle_gamma 90.029923
loop_
_atom_site_label
_atom_site_type_symbol
_atom_site_fract_x
_atom_site_fract_y
_atom_site_fract_z
_atom_type_partial_charge
Fe0 Fe 1.03593 0.8793 1.03794 0.0
O1 O 0.07186 0.96812 0.12558 0.0
Fe2 Fe 1.02989 -0.01402 0.82707 0.0
Fe3 Fe 1.03562 0.96727 0.26144 0.0
O4 O 0.99319 0.97381 0.96218 0.0
O5 O 0.9942 -0.01684 0.96247 0.0
O6 O 0.07099 0.97703 0.12647 0.0
Fe7 Fe 1.03183 0.0718 0.04913 0.0
C8 C 0.8908 0.84477 0.19248 0.0
O9 O 0.09559 0.79598 0.13012 0.0
O10 O 0.13159 0.87565 0.25589 0.0
O11 O 0.16469 0.08023 0.98393 0.0
O12 O 0.12948 0.07869 0.83564 0.0
O13 O 0.13064 0.89527 0.82237 0.0
O14 O 0.16818 0.87994 0.9688 0.0
O15 O 0.12896 0.0603 0.26612 0.0
O16 O 0.08508 0.14974 0.15164 0.0
C17 C 0.18184 0.86376 0.88199 0.0
O18 O 0.97785 0.15718 0.95449 0.0
O19 O 0.93335 0.07609 0.83338 0.0
O20 O 0.9043 0.86585 0.10687 0.0
O21 O 0.93961 0.87433 0.25508 0.0
C22 C 0.14376 0.81219 0.20229 0.0
C23 C 0.13222 0.13004 0.22345 0.0
C24 C 0.88308 0.09057 0.20151 0.0
O25 O 0.93285 0.05904 0.26306 0.0
O26 O 0.89882 0.07376 0.11527 0.0
C27 C 0.18015 0.1037 0.89971 0.0
O28 O 0.93743 0.89264 0.82139 0.0
O29 O 0.98386 0.80162 0.93385 0.0
C30 C 0.92958 0.14236 0.88223 0.0
C31 C 0.93621 0.822 0.86225 0.0
Fe32 Fe 0.53497 0.57214 0.53765 0.0
O33 O 0.44975 0.47996 0.50684 0.0
Fe34 Fe 0.74949 0.47517 0.55083 0.0
Fe35 Fe 0.31397 0.48022 0.54356 0.0
O36 O 0.61385 0.48185 0.58459 0.0
O37 O 0.61345 0.47254 0.58539 0.0
O38 O 0.44967 0.4712 0.50672 0.0
Fe39 Fe 0.53074 0.37996 0.54969 0.0
C40 C 0.38415 0.6068 0.68551 0.0
O41 O 0.43969 0.65062 0.47394 0.0
O42 O 0.3154 0.56805 0.44368 0.0
O43 O 0.60093 0.36932 0.41809 0.0
O44 O 0.74771 0.37928 0.45783 0.0
O45 O 0.74959 0.56295 0.44402 0.0
O46 O 0.60246 0.56776 0.40544 0.0
O47 O 0.31176 0.38379 0.45428 0.0
O48 O 0.4308 0.29829 0.49849 0.0
C49 C 0.68796 0.58809 0.39031 0.0
O50 O 0.62828 0.29972 0.60743 0.0
O51 O 0.74534 0.3872 0.65089 0.0
O52 O 0.46937 0.58684 0.66919 0.0
O53 O 0.31985 0.57627 0.63885 0.0
C54 C 0.368 0.63133 0.42662 0.0
C55 C 0.35757 0.3154 0.45186 0.0
C56 C 0.3749 0.36084 0.69685 0.0
O57 O 0.31361 0.39183 0.64707 0.0
O58 O 0.46156 0.37797 0.68182 0.0
C59 C 0.68727 0.34955 0.40639 0.0
O60 O 0.75005 0.57106 0.63929 0.0
O61 O 0.63557 0.65561 0.58597 0.0
C62 C 0.69898 0.31915 0.65648 0.0
C63 C 0.7068 0.64009 0.63588 0.0
C64 C 0.15669 0.20961 0.3633 0.0
C65 C 0.18807 0.1911 0.27028 0.0
C66 C 0.34425 0.24289 0.3001 0.0
C67 C 0.31389 0.25274 0.39585 0.0
N68 N 0.19963 0.22506 0.52251 0.0
N69 N 0.314 0.18174 0.15041 0.0
C70 C 0.22275 0.22903 0.42856 0.0
C71 C 0.28275 0.20551 0.23838 0.0
N72 N 0.06305 0.20972 0.38876 0.0
N73 N 0.43028 0.27149 0.26807 0.0
H74 H 0.26904 0.15824 0.10266 0.0
H75 H 0.38441 0.18224 0.12644 0.0
H76 H 0.47783 0.29563 0.31286 0.0
H77 H 0.45263 0.27437 0.1974 0.0
H78 H 1.03646 0.23231 0.45302 0.0
H79 H 1.01262 0.19696 0.34133 0.0
H80 H 0.13696 0.1994 0.55 0.0
H81 H 0.24789 0.23841 0.572 0.0
C82 C 0.84729 0.24254 0.21917 0.0
C83 C 0.8176 0.1598 0.23074 0.0
C84 C 0.68614 0.20504 0.33802 0.0
C85 C 0.72165 0.28702 0.33485 0.0
N86 N 0.83855 0.38323 0.27294 0.0
N87 N 0.68834 0.06973 0.26662 0.0
C88 C 0.80212 0.30564 0.27429 0.0
C89 C 0.73068 0.14332 0.27991 0.0
N90 N 0.91592 0.26149 0.15186 0.0
N91 N 0.61535 0.18384 0.40232 0.0
H92 H 0.71663 0.02756 0.21783 0.0
H93 H 0.62084 0.05531 0.2936 0.0
H94 H 0.5826 0.2254 0.44855 0.0
H95 H 0.59441 0.12355 0.41549 0.0
H96 H 0.93557 0.32083 0.13243 0.0
H97 H 0.94557 0.21766 0.10698 0.0
H98 H 0.9044 0.39859 0.24251 0.0
H99 H 0.80515 0.43243 0.3071 0.0
C100 C 0.75471 0.80205 0.3019 0.0
C101 C 0.81792 0.78262 0.22414 0.0
C102 C 0.76692 0.63787 0.23697 0.0
C103 C 0.71501 0.65575 0.32188 0.0
N104 N 0.63148 0.758 0.41462 0.0
N105 N 0.88875 0.67941 0.12076 0.0
C106 C 0.70034 0.73895 0.34794 0.0
C107 C 0.8236 0.7001 0.19088 0.0
N108 N 0.75049 0.88061 0.33512 0.0
N109 N 0.75817 0.56208 0.19845 0.0
H110 H 0.93238 0.72192 0.08559 0.0
H111 H 0.90446 0.61918 0.10173 0.0
H112 H 0.71149 0.51869 0.22839 0.0
H113 H 0.78746 0.54587 0.13252 0.0
H114 H 0.71767 0.89747 0.39927 0.0
H115 H 0.78487 0.92935 0.30071 0.0
H116 H 0.61047 0.81725 0.43246 0.0
H117 H 0.58737 0.71369 0.44453 0.0
C118 C 0.22557 0.67493 0.22564 0.0
C119 C 0.22564 0.76154 0.22465 0.0
C120 C 0.35016 0.76521 0.33369 0.0
C121 C 0.34309 0.67881 0.34249 0.0
N122 N 0.31952 0.55533 0.25347 0.0
N123 N 0.32524 0.88066 0.23189 0.0
C124 C 0.29635 0.6349 0.27309 0.0
C125 C 0.30154 0.80365 0.26267 0.0
N126 N 0.15686 0.63048 0.1875 0.0
N127 N 0.39712 0.81164 0.39432 0.0
H128 H 0.29203 0.90859 0.17732 0.0
H129 H 0.38397 0.91183 0.25299 0.0
H130 H 0.43589 0.78758 0.44639 0.0
H131 H 0.39332 0.87544 0.3953 0.0
H132 H 0.15053 0.56726 0.19667 0.0
H133 H 0.10341 0.65629 0.15148 0.0
H134 H 0.2913 0.52262 0.19944 0.0
H135 H 0.375 0.52623 0.28401 0.0
C136 C 0.31739 0.82208 0.7697 0.0
C137 C 0.25354 0.80162 0.84694 0.0
C138 C 0.31156 0.65924 0.83844 0.0
C139 C 0.35909 0.67603 0.75126 0.0
N140 N 0.4259 0.7756 0.64253 0.0
N141 N 0.1838 0.69567 0.94837 0.0
C142 C 0.36854 0.75853 0.72014 0.0
C143 C 0.25046 0.7192 0.88108 0.0
N144 N 0.32861 0.90243 0.74396 0.0
N145 N 0.32712 0.58639 0.88156 0.0
H146 H 0.13374 0.73546 0.97775 0.0
H147 H 0.17221 0.6348 0.96803 0.0
H148 H 0.37615 0.5444 0.85301 0.0
H149 H 0.30092 0.5726 0.9495 0.0
H150 H 0.37849 0.92382 0.69355 0.0
H151 H 0.29045 0.94963 0.77709 0.0
H152 H 0.42956 0.83193 0.60852 0.0
H153 H 0.47215 0.73237 0.6127 0.0
C154 C 0.26603 0.31867 0.83513 0.0
C155 C 0.34184 0.29855 0.76953 0.0
C156 C 0.33348 0.15546 0.82625 0.0
C157 C 0.24767 0.17242 0.8764 0.0
N158 N 0.14291 0.27195 0.94851 0.0
N159 N 0.44353 0.19363 0.69868 0.0
C160 C 0.2179 0.255 0.88772 0.0
C161 C 0.37602 0.21618 0.76553 0.0
N162 N 0.24051 0.3989 0.84693 0.0
N163 N 0.37542 0.08161 0.83906 0.0
H164 H 0.47506 0.23444 0.65075 0.0
H165 H 0.46268 0.13294 0.68561 0.0
H166 H 0.3467 0.03879 0.8872 0.0
H167 H 0.44259 0.06718 0.81116 0.0
H168 H 0.19089 0.42 0.89763 0.0
H169 H 0.27277 0.44617 0.80795 0.0
H170 H 0.1078 0.32771 0.95272 0.0
H171 H 0.11713 0.22904 0.99747 0.0
C172 C 0.77875 0.21757 0.87291 0.0
C173 C 0.87372 0.20608 0.84024 0.0
C174 C 0.83532 0.23729 0.68171 0.0
C175 C 0.74345 0.25835 0.71419 0.0
N176 N 0.62776 0.27706 0.84237 0.0
N177 N 0.9965 0.22967 0.72053 0.0
C178 C 0.71474 0.25082 0.81063 0.0
C179 C 0.90319 0.22509 0.74689 0.0
N180 N 0.74981 0.19464 0.96189 0.0
N181 N 0.85742 0.22921 0.58808 0.0
H182 H 0.04773 0.22133 0.76837 0.0
H183 H 1.02118 0.2509 0.65475 0.0
H184 H 0.80754 0.23674 0.53868 0.0
H185 H 0.92125 0.20507 0.56203 0.0
H186 H 0.67971 0.19338 0.98692 0.0
H187 H 0.79678 0.17403 1.00945 0.0
H188 H 0.60595 0.28091 0.9131 0.0
H189 H 0.57884 0.29802 0.79696 0.0
C190 C 0.7212 0.71611 0.78413 0.0
C191 C 0.75157 0.70438 0.68879 0.0
C192 C 0.91073 0.74385 0.72111 0.0
C193 C 0.87974 0.76179 0.81472 0.0
N194 N 0.75425 0.77379 0.93471 0.0
N195 N 0.86751 0.72492 0.56182 0.0
C196 C 0.78445 0.75008 0.84636 0.0
C197 C 0.84403 0.72479 0.6559 0.0
N198 N 0.63294 0.69231 0.81525 0.0
N199 N 1.00451 0.74493 0.69529 0.0
H200 H 0.81831 0.71222 0.5131 0.0
H201 H 0.93196 0.74527 0.53228 0.0
H202 H 0.05475 0.75661 0.74327 0.0
H203 H 1.03257 0.72638 0.62971 0.0
H204 H 0.60956 0.68994 0.88566 0.0
H205 H 0.58389 0.67225 0.76963 0.0
H206 H 0.68397 0.77563 0.95887 0.0
H207 H 0.80019 0.79483 0.98291 0.0
loop_
_geom_bond_atom_site_label_1
_geom_bond_atom_site_label_2
_geom_bond_distance
_geom_bond_site_symmetry_2
_ccdc_geom_bond_type
Fe0 O1 1.886 . S
Fe0 O4 1.715 1_554 S
Fe0 O9 2.077 . S
Fe0 O14 1.935 1_554 S
Fe0 O20 2.077 1_455 S
Fe0 O29 1.935 1_454 S
O1 Fe0 1.886 . S
O1 Fe3 1.715 1_565 S
Fe2 O4 1.886 . S
Fe2 O5 1.715 1_565 S
Fe2 O12 1.935 1_565 S
Fe2 O13 2.077 . S
Fe2 O19 1.935 1_465 S
Fe2 O28 2.077 1_455 S
Fe3 O1 1.715 1_545 S
Fe3 O6 1.886 . S
Fe3 O10 1.935 1_545 S
Fe3 O15 2.077 . S
Fe3 O21 1.935 1_445 S
Fe3 O25 2.077 1_455 S
O4 Fe0 1.715 1_556 S
O4 Fe2 1.886 . S
O5 Fe2 1.715 1_545 S
O5 Fe7 1.886 . S
O6 Fe3 1.886 . S
O6 Fe7 1.715 1_554 S
Fe7 O5 1.886 . S
Fe7 O6 1.715 1_556 S
Fe7 O11 2.077 . S
Fe7 O16 1.935 1_556 S
Fe7 O18 2.077 1_455 S
Fe7 O26 1.935 1_456 S
C8 O20 1.381 . S
C8 O21 1.421 . S
O9 Fe0 2.077 . S
O9 C22 1.381 . S
O10 Fe3 1.935 1_565 S
O10 C22 1.421 . S
O11 Fe7 2.077 . S
O11 C27 1.381 . S
O12 Fe2 1.935 1_545 S
O12 C27 1.421 . S
O13 Fe2 2.077 . S
O13 C17 1.381 . S
O14 Fe0 1.935 1_556 S
O14 C17 1.421 . S
O15 Fe3 2.077 . S
O15 C23 1.381 . S
O16 Fe7 1.935 1_554 S
O16 C23 1.421 . S
C17 O13 1.381 . S
C17 O14 1.421 . S
O18 Fe7 2.077 1_655 S
O18 C30 1.381 . S
O19 Fe2 1.935 1_645 S
O19 C30 1.421 . S
O20 Fe0 2.077 1_655 S
O20 C8 1.381 . S
O21 Fe3 1.935 1_665 S
O21 C8 1.421 . S
C22 O9 1.381 . S
C22 O10 1.421 . S
C23 O15 1.381 . S
C23 O16 1.421 . S
C24 O25 1.381 . S
C24 O26 1.421 . S
O25 Fe3 2.077 1_655 S
O25 C24 1.381 . S
O26 Fe7 1.935 1_654 S
O26 C24 1.421 . S
C27 O11 1.381 . S
C27 O12 1.421 . S
O28 Fe2 2.077 1_655 S
O28 C31 1.381 . S
O29 Fe0 1.935 1_656 S
O29 C31 1.421 . S
C30 O18 1.381 . S
C30 O19 1.421 . S
C31 O28 1.381 . S
C31 O29 1.421 . S
Fe32 O33 1.886 . S
Fe32 O36 1.715 . S
Fe32 O41 2.077 . S
Fe32 O46 1.935 . S
Fe32 O52 2.077 . S
Fe32 O61 1.935 . S
O33 Fe32 1.886 . S
O33 Fe35 1.715 . S
Fe34 O36 1.886 . S
Fe34 O37 1.715 . S
Fe34 O44 1.935 . S
Fe34 O45 2.077 . S
Fe34 O51 1.935 . S
Fe34 O60 2.077 . S
Fe35 O33 1.715 . S
Fe35 O38 1.886 . S
Fe35 O42 1.935 . S
Fe35 O47 2.077 . S
Fe35 O53 1.935 . S
Fe35 O57 2.077 . S
O36 Fe32 1.715 . S
O36 Fe34 1.886 . S
O37 Fe34 1.715 . S
O37 Fe39 1.886 . S
O38 Fe35 1.886 . S
O38 Fe39 1.715 . S
Fe39 O37 1.886 . S
Fe39 O38 1.715 . S
Fe39 O43 2.077 . S
Fe39 O48 1.935 . S
Fe39 O50 2.077 . S
Fe39 O58 1.935 . S
C40 O52 1.381 . S
C40 O53 1.421 . S
O41 Fe32 2.077 . S
O41 C54 1.381 . S
O42 Fe35 1.935 . S
O42 C54 1.421 . S
O43 Fe39 2.077 . S
O43 C59 1.381 . S
O44 Fe34 1.935 . S
O44 C59 1.421 . S
O45 Fe34 2.077 . S
O45 C49 1.381 . S
O46 Fe32 1.935 . S
O46 C49 1.421 . S
O47 Fe35 2.077 . S
O47 C55 1.381 . S
O48 Fe39 1.935 . S
O48 C55 1.421 . S
C49 O45 1.381 . S
C49 O46 1.421 . S
O50 Fe39 2.077 . S
O50 C62 1.381 . S
O51 Fe34 1.935 . S
O51 C62 1.421 . S
O52 Fe32 2.077 . S
O52 C40 1.381 . S
O53 Fe35 1.935 . S
O53 C40 1.421 . S
C54 O41 1.381 . S
C54 O42 1.421 . S
C55 O47 1.381 . S
C55 O48 1.421 . S
C56 O57 1.381 . S
C56 O58 1.421 . S
O57 Fe35 2.077 . S
O57 C56 1.381 . S
O58 Fe39 1.935 . S
O58 C56 1.421 . S
C59 O43 1.381 . S
C59 O44 1.421 . S
O60 Fe34 2.077 . S
O60 C63 1.381 . S
O61 Fe32 1.935 . S
O61 C63 1.421 . S
C62 O50 1.381 . S
C62 O51 1.421 . S
C63 O60 1.381 . S
C63 O61 1.421 . S
C64 C65 1.363 . S
C64 C70 1.379 . S
C64 N72 1.356 . S
C65 C64 1.363 . S
C65 C71 1.363 . S
C66 C67 1.363 . S
C66 C71 1.379 . S
C66 N73 1.356 . S
C67 C66 1.363 . S
C67 C70 1.363 . S
N68 C70 1.356 . S
N68 H80 0.984 . S
N68 H81 0.985 . S
N69 C71 1.356 . S
N69 H74 0.984 . S
N69 H75 0.985 . S
C70 C64 1.379 . S
C70 C67 1.363 . S
C70 N68 1.356 . S
C71 C65 1.363 . S
C71 C66 1.379 . S
C71 N69 1.356 . S
N72 C64 1.356 . S
N72 H78 0.984 . S
N72 H79 0.984 . S
N73 C66 1.356 . S
N73 H76 0.984 . S
N73 H77 0.985 . S
H74 N69 0.984 . S
H75 N69 0.985 . S
H76 N73 0.984 . S
H77 N73 0.985 . S
H78 N72 0.984 . S
H79 N72 0.984 . S
H80 N68 0.984 . S
H81 N68 0.985 . S
C82 C83 1.363 . S
C82 C88 1.379 . S
C82 N90 1.356 . S
C83 C82 1.363 . S
C83 C89 1.363 . S
C84 C85 1.363 . S
C84 C89 1.379 . S
C84 N91 1.356 . S
C85 C84 1.363 . S
C85 C88 1.363 . S
N86 C88 1.356 . S
N86 H98 0.984 . S
N86 H99 0.985 . S
N87 C89 1.356 . S
N87 H92 0.984 . S
N87 H93 0.985 . S
C88 C82 1.379 . S
C88 C85 1.363 . S
C88 N86 1.356 . S
C89 C83 1.363 . S
C89 C84 1.379 . S
C89 N87 1.356 . S
N90 C82 1.356 . S
N90 H96 0.984 . S
N90 H97 0.984 . S
N91 C84 1.356 . S
N91 H94 0.984 . S
N91 H95 0.985 . S
H92 N87 0.984 . S
H93 N87 0.985 . S
H94 N91 0.984 . S
H95 N91 0.985 . S
H96 N90 0.984 . S
H97 N90 0.984 . S
H98 N86 0.984 . S
H99 N86 0.985 . S
C100 C101 1.363 . S
C100 C106 1.379 . S
C100 N108 1.356 . S
C101 C100 1.363 . S
C101 C107 1.363 . S
C102 C103 1.363 . S
C102 C107 1.379 . S
C102 N109 1.356 . S
C103 C102 1.363 . S
C103 C106 1.363 . S
N104 C106 1.356 . S
N104 H116 0.984 . S
N104 H117 0.985 . S
N105 C107 1.356 . S
N105 H110 0.984 . S
N105 H111 0.985 . S
C106 C100 1.379 . S
C106 C103 1.363 . S
C106 N104 1.356 . S
C107 C101 1.363 . S
C107 C102 1.379 . S
C107 N105 1.356 . S
N108 C100 1.356 . S
N108 H114 0.984 . S
N108 H115 0.984 . S
N109 C102 1.356 . S
N109 H112 0.984 . S
N109 H113 0.985 . S
H110 N105 0.984 . S
H111 N105 0.985 . S
H112 N109 0.984 . S
H113 N109 0.985 . S
H114 N108 0.984 . S
H115 N108 0.984 . S
H116 N104 0.984 . S
H117 N104 0.985 . S
C118 C119 1.363 . S
C118 C124 1.379 . S
C118 N126 1.356 . S
C119 C118 1.363 . S
C119 C125 1.363 . S
C120 C121 1.363 . S
C120 C125 1.379 . S
C120 N127 1.356 . S
C121 C120 1.363 . S
C121 C124 1.363 . S
N122 C124 1.356 . S
N122 H134 0.984 . S
N122 H135 0.985 . S
N123 C125 1.356 . S
N123 H128 0.984 . S
N123 H129 0.985 . S
C124 C118 1.379 . S
C124 C121 1.363 . S
C124 N122 1.356 . S
C125 C119 1.363 . S
C125 C120 1.379 . S
C125 N123 1.356 . S
N126 C118 1.356 . S
N126 H132 0.984 . S
N126 H133 0.984 . S
N127 C120 1.356 . S
N127 H130 0.984 . S
N127 H131 0.985 . S
H128 N123 0.984 . S
H129 N123 0.985 . S
H130 N127 0.984 . S
H131 N127 0.985 . S
H132 N126 0.984 . S
H133 N126 0.984 . S
H134 N122 0.984 . S
H135 N122 0.985 . S
C136 C137 1.363 . S
C136 C142 1.379 . S
C136 N144 1.356 . S
C137 C136 1.363 . S
C137 C143 1.363 . S
C138 C139 1.363 . S
C138 C143 1.379 . S
C138 N145 1.356 . S
C139 C138 1.363 . S
C139 C142 1.363 . S
N140 C142 1.356 . S
N140 H152 0.984 . S
N140 H153 0.985 . S
N141 C143 1.356 . S
N141 H146 0.984 . S
N141 H147 0.985 . S
C142 C136 1.379 . S
C142 C139 1.363 . S
C142 N140 1.356 . S
C143 C137 1.363 . S
C143 C138 1.379 . S
C143 N141 1.356 . S
N144 C136 1.356 . S
N144 H150 0.984 . S
N144 H151 0.984 . S
N145 C138 1.356 . S
N145 H148 0.984 . S
N145 H149 0.985 . S
H146 N141 0.984 . S
H147 N141 0.985 . S
H148 N145 0.984 . S
H149 N145 0.985 . S
H150 N144 0.984 . S
H151 N144 0.984 . S
H152 N140 0.984 . S
H153 N140 0.985 . S
C154 C155 1.363 . S
C154 C160 1.379 . S
C154 N162 1.356 . S
C155 C154 1.363 . S
C155 C161 1.363 . S
C156 C157 1.363 . S
C156 C161 1.379 . S
C156 N163 1.356 . S
C157 C156 1.363 . S
C157 C160 1.363 . S
N158 C160 1.356 . S
N158 H170 0.984 . S
N158 H171 0.985 . S
N159 C161 1.356 . S
N159 H164 0.984 . S
N159 H165 0.985 . S
C160 C154 1.379 . S
C160 C157 1.363 . S
C160 N158 1.356 . S
C161 C155 1.363 . S
C161 C156 1.379 . S
C161 N159 1.356 . S
N162 C154 1.356 . S
N162 H168 0.984 . S
N162 H169 0.984 . S
N163 C156 1.356 . S
N163 H166 0.984 . S
N163 H167 0.985 . S
H164 N159 0.984 . S
H165 N159 0.985 . S
H166 N163 0.984 . S
H167 N163 0.985 . S
H168 N162 0.984 . S
H169 N162 0.984 . S
H170 N158 0.984 . S
H171 N158 0.985 . S
C172 C173 1.363 . S
C172 C178 1.379 . S
C172 N180 1.356 . S
C173 C172 1.363 . S
C173 C179 1.363 . S
C174 C175 1.363 . S
C174 C179 1.379 . S
C174 N181 1.356 . S
C175 C174 1.363 . S
C175 C178 1.363 . S
N176 C178 1.356 . S
N176 H188 0.984 . S
N176 H189 0.985 . S
N177 C179 1.356 . S
N177 H182 0.984 . S
N177 H183 0.985 . S
C178 C172 1.379 . S
C178 C175 1.363 . S
C178 N176 1.356 . S
C179 C173 1.363 . S
C179 C174 1.379 . S
C179 N177 1.356 . S
N180 C172 1.356 . S
N180 H186 0.984 . S
N180 H187 0.984 . S
N181 C174 1.356 . S
N181 H184 0.984 . S
N181 H185 0.985 . S
H182 N177 0.984 . S
H183 N177 0.985 . S
H184 N181 0.984 . S
H185 N181 0.985 . S
H186 N180 0.984 . S
H187 N180 0.984 . S
H188 N176 0.984 . S
H189 N176 0.985 . S
C190 C191 1.363 . S
C190 C196 1.379 . S
C190 N198 1.356 . S
C191 C190 1.363 . S
C191 C197 1.363 . S
C192 C193 1.363 . S
C192 C197 1.379 . S
C192 N199 1.356 . S
C193 C192 1.363 . S
C193 C196 1.363 . S
N194 C196 1.356 . S
N194 H206 0.984 . S
N194 H207 0.985 . S
N195 C197 1.356 . S
N195 H200 0.984 . S
N195 H201 0.985 . S
C196 C190 1.379 . S
C196 C193 1.363 . S
C196 N194 1.356 . S
C197 C191 1.363 . S
C197 C192 1.379 . S
C197 N195 1.356 . S
N198 C190 1.356 . S
N198 H204 0.984 . S
N198 H205 0.984 . S
N199 C192 1.356 . S
N199 H202 0.984 . S
N199 H203 0.985 . S
H200 N195 0.984 . S
H201 N195 0.985 . S
H202 N199 0.984 . S
H203 N199 0.985 . S
H204 N198 0.984 . S
H205 N198 0.984 . S
H206 N194 0.984 . S
H207 N194 0.985 . S
C65 C23 1.452 . S
C67 C55 1.449 . S
C83 C24 1.452 . S
C85 C59 1.451 . S
C101 C8 1.452 . S
C103 C49 1.452 . S
C119 C22 1.452 . S
C121 C54 1.451 . S
C137 C17 1.452 . S
C139 C40 1.453 . S
C155 C56 1.452 . S
C157 C27 1.451 . S
C173 C30 1.452 . S
C175 C62 1.453 . S
C191 C63 1.452 . S
C193 C31 1.454 . S
