# Generated by pormake.
# Topology bcu-f, (3)-cn, num edge types: 1
# Building blocks:
#     Node 0, Type 0, BuildingBlock: OLANEW_clean_sbu_2, # of connection points: 3
#     Node 1, Type 0, BuildingBlock: OLANEW_clean_sbu_2, # of connection points: 3
#     Node 2, Type 0, BuildingBlock: OLANEW_clean_sbu_2, # of connection points: 3
#     Node 3, Type 0, BuildingBlock: OLANEW_clean_sbu_2, # of connection points: 3
#     Node 4, Type 0, BuildingBlock: OLANEW_clean_sbu_2, # of connection points: 3
#     Node 5, Type 0, BuildingBlock: OLANEW_clean_sbu_2, # of connection points: 3
#     Node 6, Type 0, BuildingBlock: OLANEW_clean_sbu_2, # of connection points: 3
#     Node 7, Type 0, BuildingBlock: OLANEW_clean_sbu_2, # of connection points: 3
#     Node 8, Type 0, BuildingBlock: OLANEW_clean_sbu_2, # of connection points: 3
#     Node 9, Type 0, BuildingBlock: OLANEW_clean_sbu_2, # of connection points: 3
#     Node 10, Type 0, BuildingBlock: OLANEW_clean_sbu_2, # of connection points: 3
#     Node 11, Type 0, BuildingBlock: OLANEW_clean_sbu_2, # of connection points: 3
#     Node 12, Type 0, BuildingBlock: OLANEW_clean_sbu_2, # of connection points: 3
#     Node 13, Type 0, BuildingBlock: OLANEW_clean_sbu_2, # of connection points: 3
#     Node 14, Type 0, BuildingBlock: OLANEW_clean_sbu_2, # of connection points: 3
#     Node 15, Type 0, BuildingBlock: OLANEW_clean_sbu_2, # of connection points: 3
#     Edge 16, Type (0, 0), None
#     Edge 17, Type (0, 0), None
#     Edge 18, Type (0, 0), None
#     Edge 19, Type (0, 0), None
#     Edge 20, Type (0, 0), None
#     Edge 21, Type (0, 0), None
#     Edge 22, Type (0, 0), None
#     Edge 23, Type (0, 0), None
#     Edge 24, Type (0, 0), None
#     Edge 25, Type (0, 0), None
#     Edge 26, Type (0, 0), None
#     Edge 27, Type (0, 0), None
#     Edge 28, Type (0, 0), None
#     Edge 29, Type (0, 0), None
#     Edge 30, Type (0, 0), None
#     Edge 31, Type (0, 0), None
#     Edge 32, Type (0, 0), None
#     Edge 33, Type (0, 0), None
#     Edge 34, Type (0, 0), None
#     Edge 35, Type (0, 0), None
#     Edge 36, Type (0, 0), None
#     Edge 37, Type (0, 0), None
#     Edge 38, Type (0, 0), None
#     Edge 39, Type (0, 0), None
# Relax obj value: 0.002
# Max RMSD: 0.007
# Mean RMSD: 0.007
data_MOF--net-bcu-f--node1-OLANEW_clean_sbu_2--edge1-none
_symmetry_space_group_name_H-M    P1
_symmetry_Int_Tables_number       1
_symmetry_cell_setting            triclinic
loop_
_symmetry_equiv_pos_as_xyz
'x, y, z'
_cell_length_a     37.692345
_cell_length_b     37.687085
_cell_length_c     10.232916
_cell_angle_alpha  89.971359
_cell_angle_beta   89.93997
_cell_angle_gamma 89.976607
loop_
_atom_site_label
_atom_site_type_symbol
_atom_site_fract_x
_atom_site_fract_y
_atom_site_fract_z
_atom_type_partial_charge
O0 O 0.15397 0.10906 0.06676 0.0
Cd1 Cd 0.20343 0.07141 0.13603 0.0
O2 O 0.18757 0.13028 0.90849 0.0
Cd3 Cd 0.23768 0.1079 0.97718 0.0
O4 O 0.28353 0.13123 0.07555 0.0
C5 C 0.28264 0.13436 0.19908 0.0
O6 O 0.25635 0.11994 0.26454 0.0
C7 C 0.1578 0.12887 0.96708 0.0
C8 C 0.19947 8e-05 0.06633 0.0
O9 O 0.19178 0.01009 0.18259 0.0
O10 O 0.20814 0.0237 0.98211 0.0
O11 O 0.84625 0.15419 0.0673 0.0
Cd12 Cd 0.88374 0.20353 0.13855 0.0
O13 O 0.82553 0.18793 0.90868 0.0
Cd14 Cd 0.8478 0.23794 0.97868 0.0
O15 O 0.82435 0.28376 0.07718 0.0
C16 C 0.82104 0.28283 0.20067 0.0
O17 O 0.83534 0.25649 0.26612 0.0
C18 C 0.82673 0.15812 0.96701 0.0
C19 C 0.95512 0.19979 0.06909 0.0
O20 O 0.94503 0.1918 0.18502 0.0
O21 O 0.93156 0.20866 0.98507 0.0
O22 O 0.80095 0.84648 0.06373 0.0
Cd23 Cd 0.7514 0.88403 0.13318 0.0
O24 O 0.76752 0.82539 0.90507 0.0
Cd25 Cd 0.71734 0.84763 0.97393 0.0
O26 O 0.67159 0.82406 0.07253 0.0
C27 C 0.67245 0.82091 0.19606 0.0
O28 O 0.69865 0.83544 0.2614 0.0
C29 C 0.79723 0.82677 0.96383 0.0
C30 C 0.75541 0.95545 0.06468 0.0
O31 O 0.76301 0.94527 0.18081 0.0
O32 O 0.74682 0.93196 0.98003 0.0
O33 O 0.10868 0.80136 0.06696 0.0
Cd34 Cd 0.07108 0.75201 0.13784 0.0
O35 O 0.12991 0.76745 0.90968 0.0
Cd36 Cd 0.10756 0.71746 0.9798 0.0
O37 O 0.13098 0.67168 0.07868 0.0
C38 C 0.13436 0.67277 0.20209 0.0
O39 O 0.12014 0.69922 0.2672 0.0
C40 C 0.12849 0.79733 0.96735 0.0
C41 C -0.00019 0.7558 0.06746 0.0
O42 O 0.00972 0.76374 0.18353 0.0
O43 O 0.02349 0.74695 0.98374 0.0
O44 O 0.15809 0.85254 -0.00093 0.0
Cd45 Cd 0.20975 0.89101 0.96849 0.0
O46 O 0.17741 0.81685 0.84388 0.0
Cd47 Cd 0.22595 0.84435 0.78575 0.0
O48 O 0.27538 0.82597 0.69661 0.0
C49 C 0.2948 0.80539 0.76419 0.0
O50 O 0.28647 0.79945 0.88692 0.0
C51 C 0.15468 0.82449 0.9313 0.0
C52 C 0.20076 0.9623 0.03265 0.0
O53 O 0.20003 0.95219 0.91317 0.0
O54 O 0.20479 0.93881 0.12188 0.0
O55 O 0.10271 0.15859 0.00091 0.0
Cd56 Cd 0.06423 0.21033 0.97216 0.0
O57 O 0.13805 0.17782 0.84437 0.0
Cd58 Cd 0.11049 0.22644 0.78755 0.0
O59 O 0.12901 0.27583 0.69853 0.0
C60 C 0.14951 0.29526 0.76623 0.0
O61 O 0.15528 0.28702 0.8891 0.0
C62 C 0.13058 0.15511 0.93204 0.0
C63 C -0.00709 0.20118 0.03565 0.0
O64 O 0.00312 0.20076 0.91619 0.0
O65 O 0.01633 0.20498 0.12514 0.0
O66 O 0.79687 0.10307 -0.00061 0.0
Cd67 Cd 0.74519 0.06467 0.9687 0.0
O68 O 0.77809 0.13853 0.8426 0.0
Cd69 Cd 0.72959 0.11106 0.7844 0.0
O70 O 0.68016 0.12939 0.69543 0.0
C71 C 0.66063 0.14982 0.76322 0.0
O72 O 0.66884 0.15565 0.88604 0.0
C73 C 0.80056 0.13097 0.93088 0.0
C74 C 0.75414 -0.00672 0.03164 0.0
O75 O 0.7549 0.00357 0.91232 0.0
O76 O 0.7501 0.01664 0.12128 0.0
O77 O 0.8523 0.79704 -0.00221 0.0
Cd78 Cd 0.89084 0.74534 0.96902 0.0
O79 O 0.81714 0.77793 0.84085 0.0
Cd80 Cd 0.84478 0.72935 0.78405 0.0
O81 O 0.82645 0.67989 0.69536 0.0
C82 C 0.80599 0.6604 0.76322 0.0
O83 O 0.80014 0.66864 0.88605 0.0
C84 C 0.8245 0.80057 0.92874 0.0
C85 C 0.96206 0.75444 0.03351 0.0
O86 O 0.95204 0.75495 0.91392 0.0
O87 O 0.93851 0.75057 0.12267 0.0
O88 O 0.65439 0.60889 0.56507 0.0
Cd89 Cd 0.70381 0.57139 0.63595 0.0
O90 O 0.68813 0.62988 0.40679 0.0
Cd91 Cd 0.73818 0.60765 0.47666 0.0
O92 O 0.78395 0.63111 0.57511 0.0
C93 C 0.78302 0.63434 0.69861 0.0
O94 O 0.75673 0.61994 0.76413 0.0
C95 C 0.65831 0.62854 0.465 0.0
C96 C 0.69998 0.49998 0.56739 0.0
O97 O 0.69208 0.51014 0.68329 0.0
O98 O 0.70879 0.52349 0.48298 0.0
O99 O 0.3466 0.65399 0.56619 0.0
Cd100 Cd 0.38422 0.70344 0.63551 0.0
O101 O 0.32537 0.68765 0.40825 0.0
Cd102 Cd 0.34771 0.73774 0.47711 0.0
O103 O 0.32422 0.78349 0.57588 0.0
C104 C 0.32087 0.78242 0.69933 0.0
O105 O 0.33515 0.75601 0.76447 0.0
C106 C 0.32679 0.65786 0.46666 0.0
C107 C 0.45554 0.6995 0.56534 0.0
O108 O 0.44555 0.69179 0.68163 0.0
O109 O 0.43192 0.70817 0.4813 0.0
O110 O 0.30146 0.34625 0.56709 0.0
Cd111 Cd 0.25209 0.38382 0.63814 0.0
O112 O 0.26767 0.32525 0.40932 0.0
Cd113 Cd 0.21766 0.34765 0.47918 0.0
O114 O 0.17176 0.3244 0.57788 0.0
C115 C 0.17261 0.32121 0.7014 0.0
O116 O 0.19892 0.33554 0.76678 0.0
C117 C 0.2975 0.32656 0.46726 0.0
C118 C 0.25588 0.45518 0.56862 0.0
O119 O 0.2638 0.44511 0.68457 0.0
O120 O 0.24706 0.43161 0.48459 0.0
O121 O 0.60907 0.3012 0.56684 0.0
Cd122 Cd 0.57149 0.25171 0.63657 0.0
O123 O 0.62999 0.26777 0.40762 0.0
Cd124 Cd 0.60773 0.21762 0.47663 0.0
O125 O 0.63129 0.17185 0.57509 0.0
C126 C 0.63454 0.17279 0.69856 0.0
O127 O 0.62011 0.19907 0.76399 0.0
C128 C 0.6287 0.29747 0.4666 0.0
C129 C 0.50019 0.25556 0.56673 0.0
O130 O 0.51015 0.26329 0.68294 0.0
O131 O 0.52384 0.24691 0.48262 0.0
O132 O 0.65859 0.35241 0.50072 0.0
Cd133 Cd 0.71037 0.39079 0.47164 0.0
O134 O 0.67748 0.3173 0.34303 0.0
Cd135 Cd 0.7261 0.34483 0.28605 0.0
O136 O 0.77557 0.32638 0.1974 0.0
C137 C 0.79498 0.30586 0.26526 0.0
O138 O 0.78665 0.30003 0.38806 0.0
C139 C 0.65493 0.32468 0.43137 0.0
C140 C 0.70131 0.46216 0.53437 0.0
O141 O 0.70087 0.45191 0.41502 0.0
O142 O 0.70509 0.43877 0.62411 0.0
O143 O 0.60313 0.65821 0.49733 0.0
Cd144 Cd 0.56458 0.70983 0.46682 0.0
O145 O 0.63861 0.67726 0.34093 0.0
Cd146 Cd 0.61099 0.72573 0.28273 0.0
O147 O 0.62921 0.77518 0.19332 0.0
C148 C 0.64954 0.7948 0.26097 0.0
O149 O 0.65533 0.78668 0.38394 0.0
C150 C 0.63109 0.65468 0.42898 0.0
C151 C 0.49331 0.7008 0.53143 0.0
O152 O 0.50342 0.70005 0.41188 0.0
O153 O 0.5168 0.70487 0.62051 0.0
O154 O 0.29711 0.60276 0.50028 0.0
Cd155 Cd 0.24539 0.5643 0.47159 0.0
O156 O 0.27781 0.63819 0.34427 0.0
Cd157 Cd 0.22919 0.61067 0.28765 0.0
O158 O 0.17975 0.62913 0.19912 0.0
C159 C 0.1604 0.64976 0.26681 0.0
O160 O 0.16878 0.65573 0.38939 0.0
C161 C 0.30055 0.63067 0.43164 0.0
C162 C 0.25452 0.49298 0.53514 0.0
O163 O 0.25499 0.50316 0.41567 0.0
O164 O 0.25068 0.51642 0.62461 0.0
O165 O 0.35266 0.29684 0.49924 0.0
Cd166 Cd 0.39117 0.2452 0.46877 0.0
O167 O 0.31709 0.27773 0.34357 0.0
Cd168 Cd 0.34459 0.22919 0.28544 0.0
O169 O 0.32614 0.17985 0.19615 0.0
C170 C 0.30568 0.16033 0.26388 0.0
O171 O 0.29989 0.16846 0.38686 0.0
C172 C 0.32467 0.30036 0.43124 0.0
C173 C 0.46242 0.25423 0.533 0.0
O174 O 0.45234 0.25496 0.4135 0.0
O175 O 0.43892 0.25016 0.62221 0.0
loop_
_geom_bond_atom_site_label_1
_geom_bond_atom_site_label_2
_geom_bond_distance
_geom_bond_site_symmetry_2
_ccdc_geom_bond_type
O0 Cd1 2.300 . S
O0 C7 1.275 . S
Cd1 O0 2.300 . S
Cd1 O9 2.381 . S
Cd1 O10 2.378 1_554 S
O2 Cd3 2.385 . S
O2 C7 1.255 1_556 S
Cd3 O2 2.385 . S
Cd3 O4 2.317 1_556 S
O4 Cd3 2.317 1_554 S
O4 C5 1.232 . S
C5 O4 1.232 . S
C5 O6 1.218 . S
O6 C5 1.218 . S
C7 O0 1.275 . S
C7 O2 1.255 1_554 S
C8 O9 1.258 . S
C8 O10 1.256 1_554 S
O9 Cd1 2.381 . S
O9 C8 1.258 . S
O10 Cd1 2.378 1_556 S
O10 C8 1.256 1_556 S
O11 Cd12 2.300 . S
O11 C18 1.275 . S
Cd12 O11 2.300 . S
Cd12 O20 2.381 . S
Cd12 O21 2.378 1_554 S
O13 Cd14 2.385 . S
O13 C18 1.255 1_556 S
Cd14 O13 2.385 . S
Cd14 O15 2.317 1_556 S
O15 Cd14 2.317 1_554 S
O15 C16 1.232 . S
C16 O15 1.232 . S
C16 O17 1.218 . S
O17 C16 1.218 . S
C18 O11 1.275 . S
C18 O13 1.255 1_554 S
C19 O20 1.258 . S
C19 O21 1.256 1_554 S
O20 Cd12 2.381 . S
O20 C19 1.258 . S
O21 Cd12 2.378 1_556 S
O21 C19 1.256 1_556 S
O22 Cd23 2.300 . S
O22 C29 1.275 . S
Cd23 O22 2.300 . S
Cd23 O31 2.381 . S
Cd23 O32 2.378 1_554 S
O24 Cd25 2.385 . S
O24 C29 1.255 1_556 S
Cd25 O24 2.385 . S
Cd25 O26 2.317 1_556 S
O26 Cd25 2.317 1_554 S
O26 C27 1.232 . S
C27 O26 1.232 . S
C27 O28 1.218 . S
O28 C27 1.218 . S
C29 O22 1.275 . S
C29 O24 1.255 1_554 S
C30 O31 1.258 . S
C30 O32 1.256 1_554 S
O31 Cd23 2.381 . S
O31 C30 1.258 . S
O32 Cd23 2.378 1_556 S
O32 C30 1.256 1_556 S
O33 Cd34 2.300 . S
O33 C40 1.275 . S
Cd34 O33 2.300 . S
Cd34 O42 2.381 . S
Cd34 O43 2.378 1_554 S
O35 Cd36 2.385 . S
O35 C40 1.255 1_556 S
Cd36 O35 2.385 . S
Cd36 O37 2.317 1_556 S
O37 Cd36 2.317 1_554 S
O37 C38 1.232 . S
C38 O37 1.232 . S
C38 O39 1.218 . S
O39 C38 1.218 . S
C40 O33 1.275 . S
C40 O35 1.255 1_554 S
C41 O42 1.258 . S
C41 O43 1.256 1_554 S
O42 Cd34 2.381 . S
O42 C41 1.258 . S
O43 Cd34 2.378 1_556 S
O43 C41 1.256 1_556 S
O44 Cd45 2.300 . S
O44 C51 1.275 . S
Cd45 O44 2.300 . S
Cd45 O53 2.381 . S
Cd45 O54 2.378 1_556 S
O46 Cd47 2.385 . S
O46 C51 1.255 1_554 S
Cd47 O46 2.385 . S
Cd47 O48 2.317 1_554 S
O48 Cd47 2.317 1_556 S
O48 C49 1.232 . S
C49 O48 1.232 . S
C49 O50 1.218 . S
O50 C49 1.218 . S
C51 O44 1.275 . S
C51 O46 1.255 1_556 S
C52 O53 1.258 . S
C52 O54 1.256 1_556 S
O53 Cd45 2.381 . S
O53 C52 1.258 . S
O54 Cd45 2.378 1_554 S
O54 C52 1.256 1_554 S
O55 Cd56 2.300 . S
O55 C62 1.275 . S
Cd56 O55 2.300 . S
Cd56 O64 2.381 . S
Cd56 O65 2.378 1_556 S
O57 Cd58 2.385 . S
O57 C62 1.255 1_554 S
Cd58 O57 2.385 . S
Cd58 O59 2.317 1_554 S
O59 Cd58 2.317 1_556 S
O59 C60 1.232 . S
C60 O59 1.232 . S
C60 O61 1.218 . S
O61 C60 1.218 . S
C62 O55 1.275 . S
C62 O57 1.255 1_556 S
C63 O64 1.258 . S
C63 O65 1.256 1_556 S
O64 Cd56 2.381 . S
O64 C63 1.258 . S
O65 Cd56 2.378 1_554 S
O65 C63 1.256 1_554 S
O66 Cd67 2.300 . S
O66 C73 1.275 . S
Cd67 O66 2.300 . S
Cd67 O75 2.381 . S
Cd67 O76 2.378 1_556 S
O68 Cd69 2.385 . S
O68 C73 1.255 1_554 S
Cd69 O68 2.385 . S
Cd69 O70 2.317 1_554 S
O70 Cd69 2.317 1_556 S
O70 C71 1.232 . S
C71 O70 1.232 . S
C71 O72 1.218 . S
O72 C71 1.218 . S
C73 O66 1.275 . S
C73 O68 1.255 1_556 S
C74 O75 1.258 . S
C74 O76 1.256 1_556 S
O75 Cd67 2.381 . S
O75 C74 1.258 . S
O76 Cd67 2.378 1_554 S
O76 C74 1.256 1_554 S
O77 Cd78 2.300 . S
O77 C84 1.275 . S
Cd78 O77 2.300 . S
Cd78 O86 2.381 . S
Cd78 O87 2.378 1_556 S
O79 Cd80 2.385 . S
O79 C84 1.255 1_554 S
Cd80 O79 2.385 . S
Cd80 O81 2.317 1_554 S
O81 Cd80 2.317 1_556 S
O81 C82 1.232 . S
C82 O81 1.232 . S
C82 O83 1.218 . S
O83 C82 1.218 . S
C84 O77 1.275 . S
C84 O79 1.255 1_556 S
C85 O86 1.258 . S
C85 O87 1.256 1_556 S
O86 Cd78 2.381 . S
O86 C85 1.258 . S
O87 Cd78 2.378 1_554 S
O87 C85 1.256 1_554 S
O88 Cd89 2.300 . S
O88 C95 1.275 . S
Cd89 O88 2.300 . S
Cd89 O97 2.381 . S
Cd89 O98 2.378 . S
O90 Cd91 2.385 . S
O90 C95 1.255 . S
Cd91 O90 2.385 . S
Cd91 O92 2.317 . S
O92 Cd91 2.317 . S
O92 C93 1.232 . S
C93 O92 1.232 . S
C93 O94 1.218 . S
O94 C93 1.218 . S
C95 O88 1.275 . S
C95 O90 1.255 . S
C96 O97 1.258 . S
C96 O98 1.256 . S
O97 Cd89 2.381 . S
O97 C96 1.258 . S
O98 Cd89 2.378 . S
O98 C96 1.256 . S
O99 Cd100 2.300 . S
O99 C106 1.275 . S
Cd100 O99 2.300 . S
Cd100 O108 2.381 . S
Cd100 O109 2.378 . S
O101 Cd102 2.385 . S
O101 C106 1.255 . S
Cd102 O101 2.385 . S
Cd102 O103 2.317 . S
O103 Cd102 2.317 . S
O103 C104 1.232 . S
C104 O103 1.232 . S
C104 O105 1.218 . S
O105 C104 1.218 . S
C106 O99 1.275 . S
C106 O101 1.255 . S
C107 O108 1.258 . S
C107 O109 1.256 . S
O108 Cd100 2.381 . S
O108 C107 1.258 . S
O109 Cd100 2.378 . S
O109 C107 1.256 . S
O110 Cd111 2.300 . S
O110 C117 1.275 . S
Cd111 O110 2.300 . S
Cd111 O119 2.381 . S
Cd111 O120 2.378 . S
O112 Cd113 2.385 . S
O112 C117 1.255 . S
Cd113 O112 2.385 . S
Cd113 O114 2.317 . S
O114 Cd113 2.317 . S
O114 C115 1.232 . S
C115 O114 1.232 . S
C115 O116 1.218 . S
O116 C115 1.218 . S
C117 O110 1.275 . S
C117 O112 1.255 . S
C118 O119 1.258 . S
C118 O120 1.256 . S
O119 Cd111 2.381 . S
O119 C118 1.258 . S
O120 Cd111 2.378 . S
O120 C118 1.256 . S
O121 Cd122 2.300 . S
O121 C128 1.275 . S
Cd122 O121 2.300 . S
Cd122 O130 2.381 . S
Cd122 O131 2.378 . S
O123 Cd124 2.385 . S
O123 C128 1.255 . S
Cd124 O123 2.385 . S
Cd124 O125 2.317 . S
O125 Cd124 2.317 . S
O125 C126 1.232 . S
C126 O125 1.232 . S
C126 O127 1.218 . S
O127 C126 1.218 . S
C128 O121 1.275 . S
C128 O123 1.255 . S
C129 O130 1.258 . S
C129 O131 1.256 . S
O130 Cd122 2.381 . S
O130 C129 1.258 . S
O131 Cd122 2.378 . S
O131 C129 1.256 . S
O132 Cd133 2.300 . S
O132 C139 1.275 . S
Cd133 O132 2.300 . S
Cd133 O141 2.381 . S
Cd133 O142 2.378 . S
O134 Cd135 2.385 . S
O134 C139 1.255 . S
Cd135 O134 2.385 . S
Cd135 O136 2.317 . S
O136 Cd135 2.317 . S
O136 C137 1.232 . S
C137 O136 1.232 . S
C137 O138 1.218 . S
O138 C137 1.218 . S
C139 O132 1.275 . S
C139 O134 1.255 . S
C140 O141 1.258 . S
C140 O142 1.256 . S
O141 Cd133 2.381 . S
O141 C140 1.258 . S
O142 Cd133 2.378 . S
O142 C140 1.256 . S
O143 Cd144 2.300 . S
O143 C150 1.275 . S
Cd144 O143 2.300 . S
Cd144 O152 2.381 . S
Cd144 O153 2.378 . S
O145 Cd146 2.385 . S
O145 C150 1.255 . S
Cd146 O145 2.385 . S
Cd146 O147 2.317 . S
O147 Cd146 2.317 . S
O147 C148 1.232 . S
C148 O147 1.232 . S
C148 O149 1.218 . S
O149 C148 1.218 . S
C150 O143 1.275 . S
C150 O145 1.255 . S
C151 O152 1.258 . S
C151 O153 1.256 . S
O152 Cd144 2.381 . S
O152 C151 1.258 . S
O153 Cd144 2.378 . S
O153 C151 1.256 . S
O154 Cd155 2.300 . S
O154 C161 1.275 . S
Cd155 O154 2.300 . S
Cd155 O163 2.381 . S
Cd155 O164 2.378 . S
O156 Cd157 2.385 . S
O156 C161 1.255 . S
Cd157 O156 2.385 . S
Cd157 O158 2.317 . S
O158 Cd157 2.317 . S
O158 C159 1.232 . S
C159 O158 1.232 . S
C159 O160 1.218 . S
O160 C159 1.218 . S
C161 O154 1.275 . S
C161 O156 1.255 . S
C162 O163 1.258 . S
C162 O164 1.256 . S
O163 Cd155 2.381 . S
O163 C162 1.258 . S
O164 Cd155 2.378 . S
O164 C162 1.256 . S
O165 Cd166 2.300 . S
O165 C172 1.275 . S
Cd166 O165 2.300 . S
Cd166 O174 2.381 . S
Cd166 O175 2.378 . S
O167 Cd168 2.385 . S
O167 C172 1.255 . S
Cd168 O167 2.385 . S
Cd168 O169 2.317 . S
O169 Cd168 2.317 . S
O169 C170 1.232 . S
C170 O169 1.232 . S
C170 O171 1.218 . S
O171 C170 1.218 . S
C172 O165 1.275 . S
C172 O167 1.255 . S
C173 O174 1.258 . S
C173 O175 1.256 . S
O174 Cd166 2.381 . S
O174 C173 1.258 . S
O175 Cd166 2.378 . S
O175 C173 1.256 . S
C52 C8 1.548 1_566 S
C19 C63 1.548 1_654 S
C74 C30 1.548 1_546 S
C41 C85 1.548 1_454 S
C96 C140 1.548 . S
C151 C107 1.548 . S
C162 C118 1.548 . S
C129 C173 1.548 . S
C7 C62 1.331 1_554 S
C73 C18 1.331 1_556 S
C29 C84 1.331 1_554 S
C40 C51 1.331 1_554 S
C95 C150 1.331 . S
C161 C106 1.331 . S
C117 C172 1.331 . S
C139 C128 1.331 . S
C170 C5 0.908 . S
C137 C16 0.908 . S
C27 C148 0.909 . S
C159 C38 0.909 . S
C49 C104 0.908 . S
C115 C60 0.909 . S
C126 C71 0.909 . S
C93 C82 0.908 . S
