# Generated by pormake.
# Topology reo, (8)-cn, num edge types: 1
# Building blocks:
#     Node 0, Type 0, BuildingBlock: EBIMEJ_clean_sbu_0, # of connection points: 8
#     Node 1, Type 0, BuildingBlock: EBIMEJ_clean_sbu_0, # of connection points: 8
#     Node 2, Type 0, BuildingBlock: EBIMEJ_clean_sbu_0, # of connection points: 8
#     Edge 3, Type (0, 0), None
#     Edge 4, Type (0, 0), None
#     Edge 5, Type (0, 0), None
#     Edge 6, Type (0, 0), None
#     Edge 7, Type (0, 0), None
#     Edge 8, Type (0, 0), None
#     Edge 9, Type (0, 0), None
#     Edge 10, Type (0, 0), None
#     Edge 11, Type (0, 0), None
#     Edge 12, Type (0, 0), None
#     Edge 13, Type (0, 0), None
#     Edge 14, Type (0, 0), None
# Relax obj value: 0.138
# Max RMSD: 0.259
# Mean RMSD: 0.246
data_MOF--net-reo--node1-EBIMEJ_clean_sbu_0--edge1-none
_symmetry_space_group_name_H-M    P1
_symmetry_Int_Tables_number       1
_symmetry_cell_setting            triclinic
loop_
_symmetry_equiv_pos_as_xyz
'x, y, z'
_cell_length_a     12.094976
_cell_length_b     13.056852
_cell_length_c     13.175415
_cell_angle_alpha  91.341402
_cell_angle_beta   94.243013
_cell_angle_gamma 104.11812
loop_
_atom_site_label
_atom_site_type_symbol
_atom_site_fract_x
_atom_site_fract_y
_atom_site_fract_z
_atom_type_partial_charge
Co0 Co 1.06025 0.03638 0.31531 0.0
Co1 Co 0.07585 0.14761 0.52734 0.0
Co2 Co 1.06058 0.90352 0.50813 0.0
H3 H 1.0389 0.98173 0.4275 0.0
O4 O 0.99364 1.02171 0.44063 0.0
H5 H 0.09752 0.06939 0.60796 0.0
O6 O 0.14279 0.02942 0.59483 0.0
Co7 Co 0.07613 1.01473 0.72013 0.0
O8 O 0.08246 0.16434 0.76393 0.0
O9 O 0.14807 0.26709 0.63653 0.0
O10 O 1.00206 0.85673 0.71866 0.0
O11 O 0.10259 0.79685 0.60823 0.0
O12 O 1.0044 0.05007 0.16841 0.0
O13 O 0.88922 0.97576 0.27028 0.0
O14 O 0.92058 0.97355 0.6439 0.0
O15 O 0.92943 0.13316 0.59403 0.0
C16 C 1.00978 0.79546 0.30431 0.0
C17 C 0.08298 0.2645 0.34285 0.0
C18 C 0.23394 0.04708 0.85428 0.0
C19 C 0.26326 1.00201 0.40443 0.0
C20 C 0.12664 0.25565 0.73117 0.0
C21 C 1.05341 0.78657 0.6926 0.0
C22 C 0.90245 1.00403 0.18114 0.0
C23 C 0.87314 0.04907 0.63098 0.0
O24 O 1.05391 0.88677 0.27153 0.0
O25 O 0.98837 0.78402 0.39895 0.0
O26 O 1.03385 0.25429 0.42726 0.0
O27 O 0.13438 0.19436 0.31684 0.0
O28 O 0.13197 1.00109 0.86703 0.0
O29 O 0.24718 0.0753 0.76513 0.0
O30 O 0.21583 0.07754 0.39151 0.0
O31 O 0.20699 0.91794 0.44142 0.0
Co32 Co 0.75562 0.05208 0.88982 0.0
Co33 Co 0.56843 0.14344 0.0257 0.0
Co34 Co 0.56799 0.90748 1.00969 0.0
H35 H 0.64165 0.99774 0.95167 0.0
O36 O 0.60417 0.04136 0.92742 0.0
H37 H 0.49474 0.05319 0.08371 0.0
O38 O 0.5322 1.00955 0.10797 0.0
Co39 Co 0.38074 0.99889 0.14556 0.0
O40 O 0.3341 0.13349 0.14747 0.0
O41 O 0.4991 0.2419 0.10926 0.0
O42 O 0.33902 0.88074 0.03964 0.0
O43 O 0.46207 0.78184 0.06693 0.0
O44 O 0.74082 0.98069 0.74799 0.0
O45 O 0.82424 0.13822 0.77121 0.0
O46 O 0.29678 1.00476 1.01166 0.0
O47 O 0.42523 0.1211 0.9283 0.0
C48 C 0.74283 0.82623 0.9047 0.0
C49 C 0.77854 0.26056 0.98583 0.0
C50 C 0.3389 0.99033 0.32684 0.0
C51 C 0.81136 0.99143 0.1004 0.0
C52 C 0.3936 0.22476 0.1307 0.0
C53 C 0.35807 0.7905 0.04974 0.0
C54 C 0.79744 0.0607 0.70853 0.0
C55 C 0.32503 0.05963 0.93501 0.0
O56 O 0.80231 0.91751 0.88795 0.0
O57 O 0.63733 0.80906 0.92612 0.0
O58 O 0.67448 0.26906 0.96849 0.0
O59 O 0.79791 0.17039 0.99553 0.0
O60 O 0.39556 0.07031 0.28738 0.0
O61 O 0.31203 0.91281 0.26417 0.0
O62 O 0.83956 0.04631 0.02375 0.0
O63 O 0.7112 0.92988 0.10709 0.0
Co64 Co 1.00679 0.71682 0.98741 0.0
Co65 Co 1.04017 0.51951 0.13325 0.0
Co66 Co 0.0963 0.53161 0.90227 0.0
H67 H 1.03803 0.60182 0.96294 0.0
O68 O 0.98641 0.57137 1.00209 0.0
H69 H 0.09844 0.4493 0.07258 0.0
O70 O 0.15006 0.47976 0.03342 0.0
Co71 Co 0.1297 0.33431 0.04807 0.0
O72 O 1.04498 0.28031 0.17013 0.0
O73 O 0.07977 0.43391 0.25775 0.0
O74 O 0.12077 0.29622 0.90012 0.0
O75 O 0.1693 0.44169 0.80883 0.0
O76 O 0.89077 0.74425 0.87358 0.0
O77 O 0.84996 0.74438 0.02009 0.0
O78 O 0.97165 0.32595 0.97549 0.0
O79 O 0.89517 0.40498 0.0931 0.0
C80 C 0.07928 0.72001 0.77977 0.0
C81 C 0.99131 0.71145 0.21956 0.0
C82 C 0.32202 0.29814 0.1058 0.0
C83 C 0.25323 0.70555 0.02362 0.0
C84 C 1.05717 0.33111 0.2557 0.0
C85 C 0.14522 0.33965 0.81594 0.0
C86 C 0.81443 0.75288 0.92966 0.0
C87 C 0.88327 0.34563 1.01189 0.0
O88 O 0.0915 0.77082 0.86535 0.0
O89 O 1.05669 0.61721 0.77775 0.0
O90 O 0.96714 0.60942 0.22667 0.0
O91 O 1.01577 0.75488 0.13537 0.0
O92 O 0.24565 0.30671 0.16187 0.0
O93 O 0.28654 0.30677 1.01538 0.0
O94 O 0.16489 0.72541 0.05993 0.0
O95 O 0.24132 0.64613 0.94245 0.0
loop_
_geom_bond_atom_site_label_1
_geom_bond_atom_site_label_2
_geom_bond_distance
_geom_bond_site_symmetry_2
_ccdc_geom_bond_type
Co0 H3 2.400 . S
Co0 O4 2.009 . S
Co0 O12 2.115 . S
Co0 O13 2.315 . S
Co0 O24 2.053 . S
Co0 O27 2.094 1_565 S
Co0 O30 2.122 1_665 S
Co1 O4 2.126 1_545 S
Co1 H5 2.388 1_655 S
Co1 O6 2.053 1_655 S
Co1 O9 2.047 1_655 S
Co1 O15 2.113 . S
Co1 O26 2.063 . S
Co2 H3 2.388 1_455 S
Co2 O4 2.053 1_455 S
Co2 O6 2.126 1_565 S
Co2 O11 2.063 . S
Co2 O25 2.047 1_455 S
Co2 O31 2.113 . S
H3 Co0 2.400 . S
H3 Co2 2.388 1_655 S
H3 O4 0.760 . S
O4 Co0 2.009 . S
O4 Co1 2.126 1_565 S
O4 Co2 2.053 1_655 S
O4 H3 0.760 . S
H5 Co1 2.388 1_455 S
H5 O6 0.760 . S
H5 Co7 2.400 . S
O6 Co1 2.053 1_455 S
O6 Co2 2.126 1_545 S
O6 H5 0.760 . S
O6 Co7 2.009 . S
Co7 H5 2.400 . S
Co7 O6 2.009 . S
Co7 O8 2.053 . S
Co7 O10 2.094 1_545 S
Co7 O14 2.122 1_445 S
Co7 O28 2.115 . S
Co7 O29 2.315 . S
O8 Co7 2.053 . S
O8 C20 1.259 . S
O9 Co1 2.047 1_455 S
O9 C20 1.257 . S
O10 Co7 2.094 1_565 S
O10 C21 1.253 . S
O11 Co2 2.063 . S
O11 C21 1.268 . S
O12 Co0 2.115 . S
O12 C22 1.281 . S
O13 Co0 2.315 . S
O13 C22 1.252 . S
O14 Co7 2.122 1_665 S
O14 C23 1.272 1_565 S
O15 Co1 2.113 . S
O15 C23 1.245 . S
C16 O24 1.259 . S
C16 O25 1.257 . S
C17 O26 1.268 . S
C17 O27 1.253 . S
C18 O28 1.281 . S
C18 O29 1.252 . S
C19 O30 1.272 1_565 S
C19 O31 1.245 . S
C20 O8 1.259 . S
C20 O9 1.257 . S
C21 O10 1.253 . S
C21 O11 1.268 . S
C22 O12 1.281 . S
C22 O13 1.252 . S
C23 O14 1.272 1_545 S
C23 O15 1.245 . S
O24 Co0 2.053 . S
O24 C16 1.259 . S
O25 Co2 2.047 1_655 S
O25 C16 1.257 . S
O26 Co1 2.063 . S
O26 C17 1.268 . S
O27 Co0 2.094 1_545 S
O27 C17 1.253 . S
O28 Co7 2.115 . S
O28 C18 1.281 . S
O29 Co7 2.315 . S
O29 C18 1.252 . S
O30 Co0 2.122 1_445 S
O30 C19 1.272 1_545 S
O31 Co2 2.113 . S
O31 C19 1.245 . S
Co32 H35 2.400 1_545 S
Co32 O36 2.008 . S
Co32 O44 2.115 . S
Co32 O45 2.315 . S
Co32 O56 2.053 1_545 S
Co32 O59 2.094 . S
Co32 O62 2.122 1_556 S
Co33 O36 2.131 . S
Co33 H37 2.388 1_556 S
Co33 O38 2.051 1_546 S
Co33 O41 2.047 1_556 S
Co33 O47 2.113 . S
Co33 O58 2.063 . S
Co34 H35 2.388 1_554 S
Co34 O36 2.049 1_564 S
Co34 O38 2.129 . S
Co34 O43 2.063 . S
Co34 O57 2.047 1_554 S
Co34 O63 2.113 . S
H35 Co32 2.400 1_565 S
H35 Co34 2.388 1_556 S
H35 O36 0.760 1_565 S
O36 Co32 2.008 . S
O36 Co33 2.131 . S
O36 Co34 2.049 1_546 S
O36 H35 0.760 1_545 S
H37 Co33 2.388 1_554 S
H37 O38 0.760 1_545 S
H37 Co39 2.400 1_545 S
O38 Co33 2.051 1_564 S
O38 Co34 2.129 . S
O38 H37 0.760 1_565 S
O38 Co39 2.008 . S
Co39 H37 2.400 1_565 S
Co39 O38 2.008 . S
Co39 O40 2.053 1_565 S
Co39 O42 2.094 . S
Co39 O46 2.122 1_554 S
Co39 O60 2.115 . S
Co39 O61 2.315 . S
O40 Co39 2.053 1_545 S
O40 C52 1.259 . S
O41 Co33 2.047 1_554 S
O41 C52 1.257 . S
O42 Co39 2.094 . S
O42 C53 1.253 . S
O43 Co34 2.063 . S
O43 C53 1.268 . S
O44 Co32 2.115 . S
O44 C54 1.281 . S
O45 Co32 2.315 . S
O45 C54 1.252 . S
O46 Co39 2.122 1_556 S
O46 C55 1.272 1_565 S
O47 Co33 2.113 . S
O47 C55 1.245 . S
C48 O56 1.259 . S
C48 O57 1.257 . S
C49 O58 1.268 . S
C49 O59 1.253 . S
C50 O60 1.281 . S
C50 O61 1.252 . S
C51 O62 1.272 1_565 S
C51 O63 1.245 . S
C52 O40 1.259 . S
C52 O41 1.257 . S
C53 O42 1.253 . S
C53 O43 1.268 . S
C54 O44 1.281 . S
C54 O45 1.252 . S
C55 O46 1.272 1_545 S
C55 O47 1.245 . S
O56 Co32 2.053 1_565 S
O56 C48 1.259 . S
O57 Co34 2.047 1_556 S
O57 C48 1.257 . S
O58 Co33 2.063 . S
O58 C49 1.268 . S
O59 Co32 2.094 . S
O59 C49 1.253 . S
O60 Co39 2.115 . S
O60 C50 1.281 . S
O61 Co39 2.315 . S
O61 C50 1.252 . S
O62 Co32 2.122 1_554 S
O62 C51 1.272 1_545 S
O63 Co34 2.113 . S
O63 C51 1.245 . S
Co64 H67 2.400 1_554 S
Co64 O68 2.009 1_554 S
Co64 O76 2.115 . S
Co64 O77 2.315 . S
Co64 O88 2.053 1_554 S
Co64 O91 2.094 . S
Co64 O94 2.122 1_655 S
Co65 O68 2.126 1_554 S
Co65 H69 2.388 1_655 S
Co65 O70 2.053 1_655 S
Co65 O73 2.047 1_655 S
Co65 O79 2.113 . S
Co65 O90 2.063 . S
Co66 H67 2.388 1_455 S
Co66 O68 2.053 1_455 S
Co66 O70 2.126 1_556 S
Co66 O75 2.063 . S
Co66 O89 2.047 1_455 S
Co66 O95 2.113 . S
H67 Co64 2.400 1_556 S
H67 Co66 2.388 1_655 S
H67 O68 0.760 . S
O68 Co64 2.009 1_556 S
O68 Co65 2.126 1_556 S
O68 Co66 2.053 1_655 S
O68 H67 0.760 . S
H69 Co65 2.388 1_455 S
H69 O70 0.760 . S
H69 Co71 2.400 1_554 S
O70 Co65 2.053 1_455 S
O70 Co66 2.126 1_554 S
O70 H69 0.760 . S
O70 Co71 2.009 1_554 S
Co71 H69 2.400 1_556 S
Co71 O70 2.009 1_556 S
Co71 O72 2.041 1_556 S
Co71 O74 2.105 . S
Co71 O78 2.123 1_455 S
Co71 O92 2.116 . S
Co71 O93 2.316 . S
O72 Co71 2.041 1_554 S
O72 C84 1.259 . S
O73 Co65 2.047 1_455 S
O73 C84 1.257 . S
O74 Co71 2.105 . S
O74 C85 1.253 . S
O75 Co66 2.063 . S
O75 C85 1.268 . S
O76 Co64 2.115 . S
O76 C86 1.281 . S
O77 Co64 2.315 . S
O77 C86 1.252 . S
O78 Co71 2.123 1_655 S
O78 C87 1.272 1_556 S
O79 Co65 2.113 . S
O79 C87 1.245 . S
C80 O88 1.259 . S
C80 O89 1.257 . S
C81 O90 1.268 . S
C81 O91 1.253 . S
C82 O92 1.281 . S
C82 O93 1.252 . S
C83 O94 1.272 1_556 S
C83 O95 1.245 . S
C84 O72 1.259 . S
C84 O73 1.257 . S
C85 O74 1.253 . S
C85 O75 1.268 . S
C86 O76 1.281 . S
C86 O77 1.252 . S
C87 O78 1.272 1_554 S
C87 O79 1.245 . S
O88 Co64 2.053 1_556 S
O88 C80 1.259 . S
O89 Co66 2.047 1_655 S
O89 C80 1.257 . S
O90 Co65 2.063 . S
O90 C81 1.268 . S
O91 Co64 2.094 . S
O91 C81 1.253 . S
O92 Co71 2.116 . S
O92 C82 1.281 . S
O93 Co71 2.316 . S
O93 C82 1.252 . S
O94 Co64 2.122 1_455 S
O94 C83 1.272 1_554 S
O95 Co66 2.113 . S
O95 C83 1.245 . S
C84 C17 2.578 1_455 S
C22 C51 1.710 . S
C16 C81 1.849 . S
C50 C19 2.111 . S
C21 C80 2.581 1_455 S
C55 C18 1.706 . S
C85 C20 1.848 . S
C54 C23 2.113 . S
C82 C52 2.771 1_556 S
C83 C53 2.072 1_556 S
C49 C87 2.073 1_556 S
C86 C48 2.774 1_554 S
