# Generated by pormake.
# Topology uog, (4)-cn, num edge types: 1
# Building blocks:
#     Node 0, Type 0, BuildingBlock: ESEHIV_clean_sbu_0, # of connection points: 4
#     Node 1, Type 0, BuildingBlock: ESEHIV_clean_sbu_0, # of connection points: 4
#     Node 2, Type 0, BuildingBlock: ESEHIV_clean_sbu_0, # of connection points: 4
#     Node 3, Type 0, BuildingBlock: ESEHIV_clean_sbu_0, # of connection points: 4
#     Node 4, Type 0, BuildingBlock: ESEHIV_clean_sbu_0, # of connection points: 4
#     Node 5, Type 0, BuildingBlock: ESEHIV_clean_sbu_0, # of connection points: 4
#     Edge 6, Type (0, 0), BuildingBlock: OJICUG_clean_linker_0, # of connection points: 2
#     Edge 7, Type (0, 0), BuildingBlock: OJICUG_clean_linker_0, # of connection points: 2
#     Edge 8, Type (0, 0), BuildingBlock: OJICUG_clean_linker_0, # of connection points: 2
#     Edge 9, Type (0, 0), BuildingBlock: OJICUG_clean_linker_0, # of connection points: 2
#     Edge 10, Type (0, 0), BuildingBlock: OJICUG_clean_linker_0, # of connection points: 2
#     Edge 11, Type (0, 0), BuildingBlock: OJICUG_clean_linker_0, # of connection points: 2
#     Edge 12, Type (0, 0), BuildingBlock: OJICUG_clean_linker_0, # of connection points: 2
#     Edge 13, Type (0, 0), BuildingBlock: OJICUG_clean_linker_0, # of connection points: 2
#     Edge 14, Type (0, 0), BuildingBlock: OJICUG_clean_linker_0, # of connection points: 2
#     Edge 15, Type (0, 0), BuildingBlock: OJICUG_clean_linker_0, # of connection points: 2
#     Edge 16, Type (0, 0), BuildingBlock: OJICUG_clean_linker_0, # of connection points: 2
#     Edge 17, Type (0, 0), BuildingBlock: OJICUG_clean_linker_0, # of connection points: 2
# Relax obj value: 0.019
# Max RMSD: 0.225
# Mean RMSD: 0.152
data_MOF--net-uog--node1-ESEHIV_clean_sbu_0--edge1-OJICUG_clean_linker_0
_symmetry_space_group_name_H-M    P1
_symmetry_Int_Tables_number       1
_symmetry_cell_setting            triclinic
loop_
_symmetry_equiv_pos_as_xyz
'x, y, z'
_cell_length_a     20.603249
_cell_length_b     26.224992
_cell_length_c     33.45994
_cell_angle_alpha  90.054233
_cell_angle_beta   90.08279
_cell_angle_gamma 113.05907
loop_
_atom_site_label
_atom_site_type_symbol
_atom_site_fract_x
_atom_site_fract_y
_atom_site_fract_z
_atom_type_partial_charge
Cu0 Cu 0.6064 0.29143 0.17411 0.0
N1 N 0.5516 0.33335 0.17653 0.0
N2 N 0.52901 0.40989 0.17554 0.0
C3 C 0.57343 0.38616 0.16416 0.0
C4 C 0.47644 0.36999 0.19537 0.0
C5 C 0.49082 0.32284 0.19618 0.0
O6 O 0.66004 0.30367 0.22338 0.0
C7 C 0.63036 0.30919 0.09356 0.0
O8 O 0.56198 0.29619 0.09481 0.0
H9 H 0.62289 0.40746 0.14878 0.0
H10 H 0.46141 0.28486 0.21202 0.0
N11 N 0.55239 0.21578 0.17092 0.0
N12 N 0.52997 0.12526 0.1681 0.0
C13 C 0.57993 0.17706 0.17165 0.0
C14 C 0.48244 0.18797 0.16652 0.0
C15 C 0.46838 0.13202 0.16487 0.0
C16 C 0.68892 0.3509 0.24003 0.0
O17 O 0.69143 0.39529 0.22084 0.0
H18 H 0.636 0.18723 0.17392 0.0
H19 H 0.44445 0.20689 0.16433 0.0
O20 O 0.66333 0.31127 0.12616 0.0
H21 H 0.43325 0.37555 0.21049 0.0
H22 H 0.41669 0.09909 0.16175 0.0
Cu23 Cu 0.33924 0.60976 0.51212 0.0
N24 N 0.35423 0.65586 0.46778 0.0
N25 N 0.36571 0.68571 0.40459 0.0
C26 C 0.36455 0.64479 0.42956 0.0
C27 C 0.35564 0.72373 0.42824 0.0
C28 C 0.34825 0.70508 0.46705 0.0
O29 O 0.39125 0.56153 0.50584 0.0
C30 C 0.20102 0.53257 0.53905 0.0
O31 O 0.23419 0.50979 0.56188 0.0
H32 H 0.37026 0.6072 0.42037 0.0
H33 H 0.3371 0.72515 0.49285 0.0
N34 N 0.37537 0.65386 0.55725 0.0
N35 N 0.39667 0.68272 0.62069 0.0
C36 C 0.35632 0.64195 0.59572 0.0
C37 C 0.42949 0.70365 0.55784 0.0
C38 C 0.44272 0.72156 0.59679 0.0
C39 C 0.4581 0.5848 0.50128 0.0
O40 O 0.4875 0.6391 0.49899 0.0
H41 H 0.31352 0.60432 0.60506 0.0
H42 H 0.45805 0.72514 0.53174 0.0
O43 O 0.23657 0.57265 0.51635 0.0
H44 H 0.3515 0.76154 0.41817 0.0
H45 H 0.48401 0.75986 0.60664 0.0
Cu46 Cu 0.75975 0.28958 0.85895 0.0
N47 N 0.73797 0.21382 0.86181 0.0
N48 N 0.67012 0.12318 0.86322 0.0
C49 C 0.67197 0.17501 0.85946 0.0
C50 C 0.73819 0.13004 0.86829 0.0
C51 C 0.77989 0.18603 0.86751 0.0
O52 O 0.72401 0.30988 0.90726 0.0
C53 C 0.73288 0.34937 0.79449 0.0
O54 O 0.77335 0.39379 0.81421 0.0
H55 H 0.62619 0.18512 0.85589 0.0
H56 H 0.83652 0.20501 0.87119 0.0
N57 N 0.85638 0.33125 0.85563 0.0
N58 N 0.95577 0.40748 0.85508 0.0
C59 C 0.88785 0.3846 0.86686 0.0
C60 C 0.9061 0.31953 0.83634 0.0
C61 C 0.96777 0.36648 0.83618 0.0
C62 C 0.7558 0.30872 0.93971 0.0
O63 O 0.81168 0.29633 0.93829 0.0
H64 H 0.86025 0.40679 0.8818 0.0
H65 H 0.89708 0.28074 0.82142 0.0
O66 O 0.71696 0.3019 0.81027 0.0
H67 H 0.75692 0.09715 0.87211 0.0
H68 H 1.01616 0.37104 0.82109 0.0
Cu69 Cu 0.49813 0.757 0.16955 0.0
N70 N 0.55353 0.71558 0.17223 0.0
N71 N 0.57644 0.63918 0.1727 0.0
C72 C 0.53177 0.66237 0.16068 0.0
C73 C 0.62914 0.67983 0.19203 0.0
C74 C 0.61455 0.7269 0.19194 0.0
O75 O 0.44505 0.74494 0.21886 0.0
C76 C 0.47234 0.73752 0.08908 0.0
O77 O 0.54071 0.75032 0.08989 0.0
H78 H 0.48206 0.6404 0.1456 0.0
H79 H 0.64386 0.76534 0.20738 0.0
N80 N 0.55162 0.8327 0.16616 0.0
N81 N 0.57404 0.9231 0.16441 0.0
C82 C 0.52406 0.8714 0.16761 0.0
C83 C 0.62157 0.86064 0.16164 0.0
C84 C 0.63565 0.91663 0.16077 0.0
C85 C 0.41567 0.69762 0.23518 0.0
O86 O 0.41227 0.65321 0.21563 0.0
H87 H 0.46831 0.86165 0.17146 0.0
H88 H 0.65952 0.84176 0.15885 0.0
O89 O 0.44035 0.73625 0.12184 0.0
H90 H 0.67243 0.67486 0.20753 0.0
H91 H 0.68698 0.94987 0.1571 0.0
Cu92 Cu 0.75715 0.43622 0.51771 0.0
N93 N 0.74661 0.39098 0.47306 0.0
N94 N 0.73798 0.36192 0.40964 0.0
C95 C 0.73869 0.40275 0.43464 0.0
C96 C 0.74582 0.32318 0.43351 0.0
C97 C 0.7513 0.34128 0.47246 0.0
O98 O 0.70452 0.48364 0.50952 0.0
C99 C 0.89425 0.44837 0.53869 0.0
O100 O 0.85988 0.39606 0.54819 0.0
H101 H 0.73364 0.44054 0.42539 0.0
H102 H 0.75945 0.32013 0.49851 0.0
N103 N 0.71744 0.39185 0.56214 0.0
N104 N 0.69372 0.36273 0.62532 0.0
C105 C 0.73446 0.40387 0.60088 0.0
C106 C 0.66406 0.34167 0.56196 0.0
C107 C 0.64933 0.3236 0.60078 0.0
C108 C 0.63799 0.46018 0.50363 0.0
O109 O 0.60892 0.40588 0.50116 0.0
H110 H 0.77671 0.44164 0.61071 0.0
H111 H 0.6374 0.31985 0.53542 0.0
O112 O 0.85924 0.47587 0.5258 0.0
H113 H 0.74906 0.28497 0.42359 0.0
H114 H 0.60852 0.28479 0.61007 0.0
Cu115 Cu 0.33523 0.7544 0.8557 0.0
N116 N 0.35708 0.83017 0.85903 0.0
N117 N 0.42469 0.92062 0.86175 0.0
C118 C 0.4233 0.86891 0.85881 0.0
C119 C 0.35645 0.9141 0.86394 0.0
C120 C 0.31477 0.85811 0.86248 0.0
O121 O 0.37255 0.73422 0.9035 0.0
C122 C 0.35865 0.6947 0.79012 0.0
O123 O 0.31733 0.65038 0.8095 0.0
H124 H 0.46954 0.85919 0.85607 0.0
H125 H 0.25787 0.83924 0.86419 0.0
N126 N 0.23851 0.71266 0.85306 0.0
N127 N 0.13918 0.63638 0.8535 0.0
C128 C 0.2072 0.65974 0.8652 0.0
C129 C 0.18859 0.72354 0.8332 0.0
C130 C 0.12697 0.67659 0.83368 0.0
C131 C 0.34211 0.73609 0.93625 0.0
O132 O 0.28657 0.74897 0.93534 0.0
H133 H 0.23503 0.63812 0.88062 0.0
H134 H 0.19749 0.76162 0.81739 0.0
O135 O 0.37647 0.74207 0.8065 0.0
H136 H 0.33803 0.9473 0.86706 0.0
H137 H 0.07849 0.67137 0.81833 0.0
C138 C 0.48911 0.02528 0.15156 0.0
C139 C 0.5409 0.07404 0.16728 0.0
H140 H 0.45944 0.93933 0.13789 0.0
C141 C 0.60402 0.07199 0.18189 0.0
H142 H 0.44035 0.02515 0.13947 0.0
C143 C 0.61518 0.02277 0.18055 0.0
C144 C 0.56326 0.97417 0.165 0.0
H145 H 0.64476 0.10816 0.19492 0.0
H146 H 0.66391 0.02248 0.19244 0.0
C147 C 0.50008 0.97595 0.15056 0.0
C148 C 0.57778 0.5802 0.50082 0.0
C149 C 0.50367 0.55251 0.50049 0.0
H150 H 0.67818 0.57326 0.5022 0.0
C151 C 0.47449 0.49433 0.50029 0.0
H152 H 0.60232 0.62504 0.50105 0.0
C153 C 0.51826 0.46466 0.50068 0.0
C154 C 0.59236 0.49236 0.50161 0.0
H155 H 0.41782 0.47163 0.50002 0.0
H156 H 0.49374 0.41982 0.50078 0.0
C157 C 0.62152 0.55054 0.50153 0.0
C158 C 0.97452 0.50659 0.8569 0.0
C159 C 1.0021 0.46524 0.85696 0.0
H160 H 0.99666 0.59348 0.856 0.0
C161 C 0.07558 0.48129 0.85731 0.0
H162 H 0.91819 0.49576 0.85606 0.0
C163 C 0.1205 0.53735 0.85705 0.0
C164 C 0.09291 0.57868 0.85621 0.0
H165 H 0.09834 0.45044 0.85758 0.0
H166 H 0.17683 0.54817 0.85635 0.0
C167 C 1.01943 0.56264 0.85642 0.0
C168 C 0.08713 0.54134 0.52 0.0
C169 C 0.12254 0.51235 0.53993 0.0
H170 H 0.98758 0.54464 0.50438 0.0
C171 C 0.0821 0.46382 0.56078 0.0
H172 H 0.11655 0.5791 0.50381 0.0
C173 C 1.00833 0.44407 0.56094 0.0
C174 C 0.97279 0.47253 0.5406 0.0
H175 H 0.10733 0.4405 0.57659 0.0
H176 H 0.97907 0.40602 0.57685 0.0
C177 C 1.01315 0.52182 0.5205 0.0
C178 C 0.5504 0.97346 0.87823 0.0
C179 C 0.48638 0.97174 0.86234 0.0
H180 H 0.65829 0.02268 0.89173 0.0
C181 C 0.48382 1.02051 0.84663 0.0
H182 H 0.55381 0.93672 0.89106 0.0
C183 C 0.54401 0.06985 0.84658 0.0
C184 C 0.60821 0.07185 0.86268 0.0
H185 H 0.43557 1.0203 0.83364 0.0
H186 H 0.54006 0.10614 0.83341 0.0
C187 C 0.61047 0.02289 0.87853 0.0
C188 C 0.49543 0.54032 0.17108 0.0
C189 C 0.56449 0.58129 0.17105 0.0
H190 H 0.43011 0.4536 0.1723 0.0
C191 C 0.62156 0.56478 0.17111 0.0
H192 H 0.4502 0.55154 0.17163 0.0
C193 C 0.60993 0.50861 0.17173 0.0
C194 C 0.54088 0.46766 0.17253 0.0
H195 H 0.67525 0.59534 0.1709 0.0
H196 H 0.65518 0.49744 0.17275 0.0
C197 C 0.4838 0.48415 0.17192 0.0
C198 C 0.65975 0.31697 0.98171 0.0
C199 C 0.72697 0.31551 0.97891 0.0
H200 H 0.57669 0.31634 0.0202 0.0
C201 C 0.76471 0.31679 0.01425 0.0
H202 H 0.62942 0.3162 0.95509 0.0
C203 C 0.73463 0.31709 0.05163 0.0
C204 C 0.66601 0.31576 0.05442 0.0
H205 H 0.81689 0.31609 1.01312 0.0
H206 H 0.76419 0.31637 0.07827 0.0
C207 C 0.62951 0.31692 0.01908 0.0
C208 C 0.37049 0.64242 0.29773 0.0
C209 C 0.39614 0.69382 0.27801 0.0
H210 H 0.34001 0.59935 0.35324 0.0
C211 C 0.4088 0.74215 0.3004 0.0
H212 H 0.36012 0.60434 0.28138 0.0
C213 C 0.39818 0.73935 0.34169 0.0
C214 C 0.37433 0.68814 0.36169 0.0
H215 H 0.42892 0.7825 0.28625 0.0
H216 H 0.41066 0.77766 0.358 0.0
C217 C 0.35968 0.6396 0.33908 0.0
C218 C 0.68074 0.30531 0.72924 0.0
C219 C 0.7157 0.35352 0.75189 0.0
H220 H 0.64754 0.27022 0.6715 0.0
C221 C 0.73964 0.40517 0.73256 0.0
H222 H 0.66178 0.26478 0.7431 0.0
C223 C 0.73108 0.40835 0.69126 0.0
C224 C 0.69852 0.35994 0.66831 0.0
H225 H 0.76664 0.44316 0.74912 0.0
H226 H 0.75064 0.44878 0.67735 0.0
C227 C 0.67239 0.30847 0.68801 0.0
C228 C 0.33555 0.72881 1.01081 0.0
C229 C 0.37217 0.72968 0.97518 0.0
H230 H 0.33805 0.73001 0.0748 0.0
C231 C 0.43949 0.72828 0.97745 0.0
H232 H 0.28332 0.72946 1.01009 0.0
C233 C 0.47093 0.72882 0.01458 0.0
C234 C 0.43553 0.7304 0.05019 0.0
H235 H 0.46899 0.72876 0.95058 0.0
H236 H 0.52381 0.72946 0.01529 0.0
C237 C 0.3668 0.72899 0.04794 0.0
C238 C 0.70651 0.30863 0.34637 0.0
C239 C 0.73023 0.35974 0.36666 0.0
H240 H 0.67589 0.26578 0.29069 0.0
C241 C 0.74513 0.40839 0.34424 0.0
H242 H 0.69385 0.27021 0.36247 0.0
C243 C 0.73441 0.4058 0.30285 0.0
C244 C 0.70869 0.3545 0.28287 0.0
H245 H 0.76473 0.44858 0.35859 0.0
H246 H 0.74483 0.44396 0.28668 0.0
C247 C 0.69604 0.30606 0.30504 0.0
C248 C 0.4105 0.73911 0.72509 0.0
C249 C 0.37485 0.6908 0.74736 0.0
H250 H 0.44404 0.77466 0.66763 0.0
C251 C 0.34949 0.63938 0.72755 0.0
H252 H 0.43048 0.77947 0.73931 0.0
C253 C 0.35765 0.63655 0.68619 0.0
C254 C 0.39124 0.68509 0.66366 0.0
H255 H 0.32187 0.60132 0.7438 0.0
H256 H 0.33719 0.59629 0.67193 0.0
C257 C 0.41844 0.73631 0.68381 0.0
loop_
_geom_bond_atom_site_label_1
_geom_bond_atom_site_label_2
_geom_bond_distance
_geom_bond_site_symmetry_2
_ccdc_geom_bond_type
Cu0 N1 1.999 . S
Cu0 O6 1.974 . S
Cu0 N11 1.985 . S
Cu0 O20 1.959 . S
N1 Cu0 1.999 . S
N1 C3 1.263 . S
N1 C5 1.389 . S
N2 C3 1.358 . S
N2 C4 1.400 . S
C3 N1 1.263 . S
C3 N2 1.358 . S
C3 H9 0.930 . S
C4 N2 1.400 . S
C4 C5 1.351 . S
C4 H21 0.930 . S
C5 N1 1.389 . S
C5 C4 1.351 . S
C5 H10 0.930 . S
O6 Cu0 1.974 . S
O6 C16 1.282 . S
C7 O8 1.261 . S
C7 O20 1.251 . S
O8 C7 1.261 . S
H9 C3 0.930 . S
H10 C5 0.930 . S
N11 Cu0 1.985 . S
N11 C13 1.335 . S
N11 C14 1.390 . S
N12 C13 1.345 . S
N12 C15 1.336 . S
C13 N11 1.335 . S
C13 N12 1.345 . S
C13 H18 0.930 . S
C14 N11 1.390 . S
C14 C15 1.346 . S
C14 H19 0.930 . S
C15 N12 1.336 . S
C15 C14 1.346 . S
C15 H22 0.929 . S
C16 O6 1.282 . S
C16 O17 1.216 . S
O17 C16 1.216 . S
H18 C13 0.930 . S
H19 C14 0.930 . S
O20 Cu0 1.959 . S
O20 C7 1.251 . S
H21 C4 0.930 . S
H22 C15 0.929 . S
Cu23 N24 1.999 . S
Cu23 O29 1.974 . S
Cu23 N34 1.985 . S
Cu23 O43 1.959 . S
N24 Cu23 1.999 . S
N24 C26 1.263 . S
N24 C28 1.389 . S
N25 C26 1.358 . S
N25 C27 1.400 . S
C26 N24 1.263 . S
C26 N25 1.358 . S
C26 H32 0.930 . S
C27 N25 1.400 . S
C27 C28 1.351 . S
C27 H44 0.930 . S
C28 N24 1.389 . S
C28 C27 1.351 . S
C28 H33 0.930 . S
O29 Cu23 1.974 . S
O29 C39 1.282 . S
C30 O31 1.261 . S
C30 O43 1.251 . S
O31 C30 1.261 . S
H32 C26 0.930 . S
H33 C28 0.930 . S
N34 Cu23 1.985 . S
N34 C36 1.335 . S
N34 C37 1.390 . S
N35 C36 1.345 . S
N35 C38 1.336 . S
C36 N34 1.335 . S
C36 N35 1.345 . S
C36 H41 0.930 . S
C37 N34 1.390 . S
C37 C38 1.346 . S
C37 H42 0.930 . S
C38 N35 1.336 . S
C38 C37 1.346 . S
C38 H45 0.929 . S
C39 O29 1.282 . S
C39 O40 1.216 . S
O40 C39 1.216 . S
H41 C36 0.930 . S
H42 C37 0.930 . S
O43 Cu23 1.959 . S
O43 C30 1.251 . S
H44 C27 0.930 . S
H45 C38 0.929 . S
Cu46 N47 1.999 . S
Cu46 O52 1.974 . S
Cu46 N57 1.985 . S
Cu46 O66 1.959 . S
N47 Cu46 1.999 . S
N47 C49 1.263 . S
N47 C51 1.389 . S
N48 C49 1.358 . S
N48 C50 1.400 . S
C49 N47 1.263 . S
C49 N48 1.358 . S
C49 H55 0.930 . S
C50 N48 1.400 . S
C50 C51 1.351 . S
C50 H67 0.930 . S
C51 N47 1.389 . S
C51 C50 1.351 . S
C51 H56 0.930 . S
O52 Cu46 1.974 . S
O52 C62 1.282 . S
C53 O54 1.261 . S
C53 O66 1.251 . S
O54 C53 1.261 . S
H55 C49 0.930 . S
H56 C51 0.930 . S
N57 Cu46 1.985 . S
N57 C59 1.335 . S
N57 C60 1.390 . S
N58 C59 1.345 . S
N58 C61 1.336 . S
C59 N57 1.335 . S
C59 N58 1.345 . S
C59 H64 0.930 . S
C60 N57 1.390 . S
C60 C61 1.346 . S
C60 H65 0.930 . S
C61 N58 1.336 . S
C61 C60 1.346 . S
C61 H68 0.929 . S
C62 O52 1.282 . S
C62 O63 1.216 . S
O63 C62 1.216 . S
H64 C59 0.930 . S
H65 C60 0.930 . S
O66 Cu46 1.959 . S
O66 C53 1.251 . S
H67 C50 0.930 . S
H68 C61 0.929 . S
Cu69 N70 1.999 . S
Cu69 O75 1.974 . S
Cu69 N80 1.985 . S
Cu69 O89 1.959 . S
N70 Cu69 1.999 . S
N70 C72 1.263 . S
N70 C74 1.389 . S
N71 C72 1.358 . S
N71 C73 1.400 . S
C72 N70 1.263 . S
C72 N71 1.358 . S
C72 H78 0.930 . S
C73 N71 1.400 . S
C73 C74 1.351 . S
C73 H90 0.930 . S
C74 N70 1.389 . S
C74 C73 1.351 . S
C74 H79 0.930 . S
O75 Cu69 1.974 . S
O75 C85 1.282 . S
C76 O77 1.261 . S
C76 O89 1.251 . S
O77 C76 1.261 . S
H78 C72 0.930 . S
H79 C74 0.930 . S
N80 Cu69 1.985 . S
N80 C82 1.335 . S
N80 C83 1.390 . S
N81 C82 1.345 . S
N81 C84 1.336 . S
C82 N80 1.335 . S
C82 N81 1.345 . S
C82 H87 0.930 . S
C83 N80 1.390 . S
C83 C84 1.346 . S
C83 H88 0.930 . S
C84 N81 1.336 . S
C84 C83 1.346 . S
C84 H91 0.929 . S
C85 O75 1.282 . S
C85 O86 1.216 . S
O86 C85 1.216 . S
H87 C82 0.930 . S
H88 C83 0.930 . S
O89 Cu69 1.959 . S
O89 C76 1.251 . S
H90 C73 0.930 . S
H91 C84 0.929 . S
Cu92 N93 1.999 . S
Cu92 O98 1.974 . S
Cu92 N103 1.985 . S
Cu92 O112 1.959 . S
N93 Cu92 1.999 . S
N93 C95 1.263 . S
N93 C97 1.389 . S
N94 C95 1.358 . S
N94 C96 1.400 . S
C95 N93 1.263 . S
C95 N94 1.358 . S
C95 H101 0.930 . S
C96 N94 1.400 . S
C96 C97 1.351 . S
C96 H113 0.930 . S
C97 N93 1.389 . S
C97 C96 1.351 . S
C97 H102 0.930 . S
O98 Cu92 1.974 . S
O98 C108 1.282 . S
C99 O100 1.261 . S
C99 O112 1.251 . S
O100 C99 1.261 . S
H101 C95 0.930 . S
H102 C97 0.930 . S
N103 Cu92 1.985 . S
N103 C105 1.335 . S
N103 C106 1.390 . S
N104 C105 1.345 . S
N104 C107 1.336 . S
C105 N103 1.335 . S
C105 N104 1.345 . S
C105 H110 0.930 . S
C106 N103 1.390 . S
C106 C107 1.346 . S
C106 H111 0.930 . S
C107 N104 1.336 . S
C107 C106 1.346 . S
C107 H114 0.929 . S
C108 O98 1.282 . S
C108 O109 1.216 . S
O109 C108 1.216 . S
H110 C105 0.930 . S
H111 C106 0.930 . S
O112 Cu92 1.959 . S
O112 C99 1.251 . S
H113 C96 0.930 . S
H114 C107 0.929 . S
Cu115 N116 1.999 . S
Cu115 O121 1.974 . S
Cu115 N126 1.985 . S
Cu115 O135 1.959 . S
N116 Cu115 1.999 . S
N116 C118 1.263 . S
N116 C120 1.389 . S
N117 C118 1.358 . S
N117 C119 1.400 . S
C118 N116 1.263 . S
C118 N117 1.358 . S
C118 H124 0.930 . S
C119 N117 1.400 . S
C119 C120 1.351 . S
C119 H136 0.930 . S
C120 N116 1.389 . S
C120 C119 1.351 . S
C120 H125 0.930 . S
O121 Cu115 1.974 . S
O121 C131 1.282 . S
C122 O123 1.261 . S
C122 O135 1.251 . S
O123 C122 1.261 . S
H124 C118 0.930 . S
H125 C120 0.930 . S
N126 Cu115 1.985 . S
N126 C128 1.335 . S
N126 C129 1.390 . S
N127 C128 1.345 . S
N127 C130 1.336 . S
C128 N126 1.335 . S
C128 N127 1.345 . S
C128 H133 0.930 . S
C129 N126 1.390 . S
C129 C130 1.346 . S
C129 H134 0.930 . S
C130 N127 1.336 . S
C130 C129 1.346 . S
C130 H137 0.929 . S
C131 O121 1.282 . S
C131 O132 1.216 . S
O132 C131 1.216 . S
H133 C128 0.930 . S
H134 C129 0.930 . S
O135 Cu115 1.959 . S
O135 C122 1.251 . S
H136 C119 0.930 . S
H137 C130 0.929 . S
C138 C139 1.387 . S
C138 H142 0.950 . S
C138 C147 1.390 1_545 S
C139 C138 1.387 . S
C139 C141 1.387 . S
H140 C147 0.950 . S
C141 C139 1.387 . S
C141 C143 1.390 1_545 S
C141 H145 0.950 . S
H142 C138 0.950 . S
C143 C141 1.390 1_565 S
C143 C144 1.387 . S
C143 H146 0.950 . S
C144 C143 1.387 . S
C144 C147 1.387 . S
H145 C141 0.950 . S
H146 C143 0.950 . S
C147 C138 1.390 1_565 S
C147 H140 0.950 . S
C147 C144 1.387 . S
C148 C149 1.387 . S
C148 H152 0.950 . S
C148 C157 1.390 . S
C149 C148 1.387 . S
C149 C151 1.387 . S
H150 C157 0.950 . S
C151 C149 1.387 . S
C151 C153 1.390 . S
C151 H155 0.950 . S
H152 C148 0.950 . S
C153 C151 1.390 . S
C153 C154 1.387 . S
C153 H156 0.950 . S
C154 C153 1.387 . S
C154 C157 1.387 . S
H155 C151 0.950 . S
H156 C153 0.950 . S
C157 C148 1.390 . S
C157 H150 0.950 . S
C157 C154 1.387 . S
C158 C159 1.387 . S
C158 H162 0.950 . S
C158 C167 1.390 1_655 S
C159 C158 1.387 . S
C159 C161 1.387 . S
H160 C167 0.950 . S
C161 C159 1.387 . S
C161 C163 1.390 1_655 S
C161 H165 0.950 . S
H162 C158 0.950 . S
C163 C161 1.390 1_455 S
C163 C164 1.387 . S
C163 H166 0.950 . S
C164 C163 1.387 . S
C164 C167 1.387 . S
H165 C161 0.950 . S
H166 C163 0.950 . S
C167 C158 1.390 1_455 S
C167 H160 0.950 . S
C167 C164 1.387 . S
C168 C169 1.387 . S
C168 H172 0.950 . S
C168 C177 1.390 1_455 S
C169 C168 1.387 . S
C169 C171 1.387 . S
H170 C177 0.950 . S
C171 C169 1.387 . S
C171 C173 1.390 1_455 S
C171 H175 0.950 . S
H172 C168 0.950 . S
C173 C171 1.390 1_655 S
C173 C174 1.387 . S
C173 H176 0.950 . S
C174 C173 1.387 . S
C174 C177 1.387 . S
H175 C171 0.950 . S
H176 C173 0.950 . S
C177 C168 1.390 1_655 S
C177 H170 0.950 . S
C177 C174 1.387 . S
C178 C179 1.387 . S
C178 H182 0.950 . S
C178 C187 1.390 1_565 S
C179 C178 1.387 . S
C179 C181 1.387 . S
H180 C187 0.950 . S
C181 C179 1.387 . S
C181 C183 1.390 1_565 S
C181 H185 0.950 . S
H182 C178 0.950 . S
C183 C181 1.390 1_545 S
C183 C184 1.387 . S
C183 H186 0.950 . S
C184 C183 1.387 . S
C184 C187 1.387 . S
H185 C181 0.950 . S
H186 C183 0.950 . S
C187 C178 1.390 1_545 S
C187 H180 0.950 . S
C187 C184 1.387 . S
C188 C189 1.387 . S
C188 H192 0.950 . S
C188 C197 1.390 . S
C189 C188 1.387 . S
C189 C191 1.387 . S
H190 C197 0.950 . S
C191 C189 1.387 . S
C191 C193 1.390 . S
C191 H195 0.950 . S
H192 C188 0.950 . S
C193 C191 1.390 . S
C193 C194 1.387 . S
C193 H196 0.950 . S
C194 C193 1.387 . S
C194 C197 1.387 . S
H195 C191 0.950 . S
H196 C193 0.950 . S
C197 C188 1.390 . S
C197 H190 0.950 . S
C197 C194 1.387 . S
C198 C199 1.387 . S
C198 H202 0.950 . S
C198 C207 1.390 1_556 S
C199 C198 1.387 . S
C199 C201 1.387 . S
H200 C207 0.950 . S
C201 C199 1.387 . S
C201 C203 1.390 1_556 S
C201 H205 0.950 . S
H202 C198 0.950 . S
C203 C201 1.390 1_554 S
C203 C204 1.387 . S
C203 H206 0.950 . S
C204 C203 1.387 . S
C204 C207 1.387 . S
H205 C201 0.950 . S
H206 C203 0.950 . S
C207 C198 1.390 1_554 S
C207 H200 0.950 . S
C207 C204 1.387 . S
C208 C209 1.387 . S
C208 H212 0.950 . S
C208 C217 1.390 . S
C209 C208 1.387 . S
C209 C211 1.387 . S
H210 C217 0.950 . S
C211 C209 1.387 . S
C211 C213 1.390 . S
C211 H215 0.950 . S
H212 C208 0.950 . S
C213 C211 1.390 . S
C213 C214 1.387 . S
C213 H216 0.950 . S
C214 C213 1.387 . S
C214 C217 1.387 . S
H215 C211 0.950 . S
H216 C213 0.950 . S
C217 C208 1.390 . S
C217 H210 0.950 . S
C217 C214 1.387 . S
C218 C219 1.387 . S
C218 H222 0.950 . S
C218 C227 1.390 . S
C219 C218 1.387 . S
C219 C221 1.387 . S
H220 C227 0.950 . S
C221 C219 1.387 . S
C221 C223 1.390 . S
C221 H225 0.950 . S
H222 C218 0.950 . S
C223 C221 1.390 . S
C223 C224 1.387 . S
C223 H226 0.950 . S
C224 C223 1.387 . S
C224 C227 1.387 . S
H225 C221 0.950 . S
H226 C223 0.950 . S
C227 C218 1.390 . S
C227 H220 0.950 . S
C227 C224 1.387 . S
C228 C229 1.387 . S
C228 H232 0.950 . S
C228 C237 1.390 1_556 S
C229 C228 1.387 . S
C229 C231 1.387 . S
H230 C237 0.950 . S
C231 C229 1.387 . S
C231 C233 1.390 1_556 S
C231 H235 0.950 . S
H232 C228 0.950 . S
C233 C231 1.390 1_554 S
C233 C234 1.387 . S
C233 H236 0.950 . S
C234 C233 1.387 . S
C234 C237 1.387 . S
H235 C231 0.950 . S
H236 C233 0.950 . S
C237 C228 1.390 1_554 S
C237 H230 0.950 . S
C237 C234 1.387 . S
C238 C239 1.387 . S
C238 H242 0.950 . S
C238 C247 1.390 . S
C239 C238 1.387 . S
C239 C241 1.387 . S
H240 C247 0.950 . S
C241 C239 1.387 . S
C241 C243 1.390 . S
C241 H245 0.950 . S
H242 C238 0.950 . S
C243 C241 1.390 . S
C243 C244 1.387 . S
C243 H246 0.950 . S
C244 C243 1.387 . S
C244 C247 1.387 . S
H245 C241 0.950 . S
H246 C243 0.950 . S
C247 C238 1.390 . S
C247 H240 0.950 . S
C247 C244 1.387 . S
C248 C249 1.387 . S
C248 H252 0.950 . S
C248 C257 1.390 . S
C249 C248 1.387 . S
C249 C251 1.387 . S
H250 C257 0.950 . S
C251 C249 1.387 . S
C251 C253 1.390 . S
C251 H255 0.950 . S
H252 C248 0.950 . S
C253 C251 1.390 . S
C253 C254 1.387 . S
C253 H256 0.950 . S
C254 C253 1.387 . S
C254 C257 1.387 . S
H255 C251 0.950 . S
H256 C253 0.950 . S
C257 C248 1.390 . S
C257 H250 0.950 . S
C257 C254 1.387 . S
C139 N12 1.464 . S
C144 N81 1.464 . S
C149 C39 1.714 . S
C154 C108 1.714 . S
C159 N58 1.345 . S
C164 N127 1.345 . S
C169 C30 1.813 . S
C174 C99 1.813 . S
C179 N117 1.474 . S
C184 N48 1.474 . S
C189 N71 1.362 . S
C194 N2 1.362 . S
C199 C62 1.791 . S
C204 C7 1.851 . S
C209 C85 1.864 . S
C214 N25 1.763 . S
C219 C53 1.923 . S
C224 N104 1.903 . S
C229 C131 1.794 . S
C234 C76 1.853 . S
C239 N94 1.762 . S
C244 C16 1.867 . S
C249 C122 1.924 . S
C254 N35 1.904 . S
