# Generated by pormake.
# Topology pcu, (6)-cn, num edge types: 1
# Building blocks:
#     Node 0, Type 0, BuildingBlock: INOVEN_clean_sbu_0, # of connection points: 6
#     Edge 1, Type (0, 0), BuildingBlock: EYOCIG_clean_linker_4, # of connection points: 2
#     Edge 2, Type (0, 0), BuildingBlock: EYOCIG_clean_linker_4, # of connection points: 2
#     Edge 3, Type (0, 0), BuildingBlock: EYOCIG_clean_linker_4, # of connection points: 2
# Relax obj value: 0.000
# Max RMSD: 0.000
# Mean RMSD: 0.000
data_MOF--net-pcu--node1-INOVEN_clean_sbu_0--edge1-EYOCIG_clean_linker_4
_symmetry_space_group_name_H-M    P1
_symmetry_Int_Tables_number       1
_symmetry_cell_setting            triclinic
loop_
_symmetry_equiv_pos_as_xyz
'x, y, z'
_cell_length_a     22.235798
_cell_length_b     12.210267
_cell_length_c     11.418048
_cell_angle_alpha  85.953388
_cell_angle_beta   97.463033
_cell_angle_gamma 122.37795
loop_
_atom_site_label
_atom_site_type_symbol
_atom_site_fract_x
_atom_site_fract_y
_atom_site_fract_z
_atom_type_partial_charge
Gd0 Gd 0.95072 0.90186 1.00639 0.0
Gd1 Gd 0.11049 0.04628 0.01303 0.0
C2 C 0.0441 0.21714 1.00068 0.0
C3 C 0.82031 0.82563 0.03707 0.0
C4 C 0.77197 0.87612 0.02465 0.0
C5 C 0.72321 0.84842 0.92252 0.0
C6 C 0.76922 0.94174 0.1185 0.0
C7 C 0.66649 0.93977 0.01265 0.0
C8 C 0.71693 0.97345 0.11235 0.0
C9 C 0.67105 0.8803 0.91656 0.0
C10 C 0.99756 0.9346 0.79295 0.0
C11 C 1.01707 0.73094 0.01816 0.0
C12 C 0.24117 0.12354 0.98311 0.0
C13 C 0.29012 0.07436 0.99587 0.0
C14 C 0.33876 0.10258 0.09827 0.0
C15 C 0.2937 0.00985 0.90198 0.0
C16 C 0.39685 0.01375 1.00842 0.0
C17 C 0.3466 -0.02035 0.9084 0.0
C18 C 0.39154 0.07221 0.1045 0.0
C19 C 0.06316 0.01318 0.22633 0.0
O20 O 0.98519 0.1103 0.02794 0.0
O21 O 0.09974 0.21711 0.97278 0.0
O22 O 0.8382 0.8052 0.94001 0.0
O23 O 0.87321 0.87274 0.12209 0.0
O24 O 0.94076 0.83063 0.82446 0.0
O25 O 1.02568 0.01967 0.87291 0.0
O26 O 0.07606 0.83788 0.99125 0.0
O27 O 0.96138 0.73086 0.046 0.0
O28 O 0.22294 0.14359 0.07997 0.0
O29 O 0.18836 0.07572 0.89796 0.0
O30 O 0.11986 0.11743 0.19493 0.0
O31 O 0.03557 0.92827 0.14637 0.0
H32 H 0.72366 0.79793 0.84869 0.0
H33 H 0.80582 0.96469 0.19844 0.0
H34 H 0.71435 0.02008 0.1872 0.0
H35 H 0.63266 0.8542 0.83855 0.0
H36 H 0.33771 0.15233 0.17213 0.0
H37 H 0.25726 -0.01337 0.82181 0.0
H38 H 0.34976 0.93377 0.83355 0.0
H39 H 0.42977 0.09861 0.18275 0.0
C40 C 0.03519 -0.02177 0.44895 0.0
C41 C 0.04564 -0.01095 0.3463 0.0
C42 C 1.02535 0.96903 0.57025 0.0
C43 C 1.01497 0.95837 0.67292 0.0
C44 C 0.50669 -0.0164 0.01048 0.0
C45 C 0.4566 -0.0028 1.00926 0.0
C46 C 0.55729 0.97165 0.0111 0.0
C47 C 0.60713 0.95736 0.01228 0.0
C48 C 1.02383 0.52362 0.01305 0.0
C49 C 1.01577 0.61288 0.01778 0.0
C50 C 0.03729 0.42444 1.0054 0.0
C51 C 0.04538 0.3352 1.00082 0.0
loop_
_geom_bond_atom_site_label_1
_geom_bond_atom_site_label_2
_geom_bond_distance
_geom_bond_site_symmetry_2
_ccdc_geom_bond_type
Gd0 C3 2.818 . S
Gd0 O20 2.377 1_565 S
Gd0 O22 2.448 . S
Gd0 O23 2.506 1_556 S
Gd0 O24 2.435 . S
Gd0 O25 2.717 1_665 S
Gd0 O27 2.395 . S
Gd0 O31 2.327 1_556 S
Gd1 C12 2.818 . S
Gd1 O21 2.395 . S
Gd1 O25 2.327 1_554 S
Gd1 O26 2.377 1_545 S
Gd1 O28 2.448 . S
Gd1 O29 2.506 1_554 S
Gd1 O30 2.435 . S
Gd1 O31 2.717 1_445 S
C2 O20 1.240 1_455 S
C2 O21 1.240 1_556 S
C3 Gd0 2.818 . S
C3 C4 1.510 . S
C3 O22 1.249 . S
C3 O23 1.252 1_556 S
C4 C3 1.510 . S
C4 C5 1.404 . S
C4 C6 1.352 1_566 S
C5 C4 1.404 . S
C5 C9 1.389 . S
C5 H32 0.930 . S
C6 C4 1.352 1_544 S
C6 C8 1.374 . S
C6 H33 0.931 . S
C7 C8 1.359 1_565 S
C7 C9 1.364 1_554 S
C8 C6 1.374 . S
C8 C7 1.359 1_545 S
C8 H34 0.931 . S
C9 C5 1.389 . S
C9 C7 1.364 1_556 S
C9 H35 0.931 . S
C10 O24 1.256 . S
C10 O25 1.257 1_665 S
C11 O26 1.240 1_655 S
C11 O27 1.240 1_554 S
C12 Gd1 2.818 . S
C12 C13 1.510 . S
C12 O28 1.249 . S
C12 O29 1.252 1_554 S
C13 C12 1.510 . S
C13 C14 1.404 . S
C13 C15 1.352 1_544 S
C14 C13 1.404 . S
C14 C18 1.389 . S
C14 H36 0.930 . S
C15 C13 1.352 1_566 S
C15 C17 1.374 . S
C15 H37 0.931 . S
C16 C17 1.359 1_545 S
C16 C18 1.364 1_556 S
C17 C15 1.374 . S
C17 C16 1.359 1_565 S
C17 H38 0.931 . S
C18 C14 1.389 . S
C18 C16 1.364 1_554 S
C18 H39 0.931 . S
C19 O30 1.256 . S
C19 O31 1.257 1_445 S
O20 Gd0 2.377 1_545 S
O20 C2 1.240 1_655 S
O21 Gd1 2.395 . S
O21 C2 1.240 1_554 S
O22 Gd0 2.448 . S
O22 C3 1.249 . S
O23 Gd0 2.506 1_554 S
O23 C3 1.252 1_554 S
O24 Gd0 2.435 . S
O24 C10 1.256 . S
O25 Gd0 2.717 1_445 S
O25 Gd1 2.327 1_556 S
O25 C10 1.257 1_445 S
O26 Gd1 2.377 1_565 S
O26 C11 1.240 1_455 S
O27 Gd0 2.395 . S
O27 C11 1.240 1_556 S
O28 Gd1 2.448 . S
O28 C12 1.249 . S
O29 Gd1 2.506 1_556 S
O29 C12 1.252 1_556 S
O30 Gd1 2.435 . S
O30 C19 1.256 . S
O31 Gd0 2.327 1_554 S
O31 Gd1 2.717 1_665 S
O31 C19 1.257 1_665 S
H32 C5 0.930 . S
H33 C6 0.931 . S
H34 C8 0.931 . S
H35 C9 0.931 . S
H36 C14 0.930 . S
H37 C15 0.931 . S
H38 C17 0.931 . S
H39 C18 0.931 . S
C40 C41 1.170 . S
C40 C42 1.380 . S
C41 C40 1.170 . S
C42 C40 1.380 . S
C42 C43 1.170 . S
C43 C42 1.170 . S
C44 C45 1.170 . S
C44 C46 1.380 . S
C45 C44 1.170 . S
C46 C44 1.380 . S
C46 C47 1.170 . S
C47 C46 1.170 . S
C48 C49 1.170 . S
C48 C50 1.380 . S
C49 C48 1.170 . S
C50 C48 1.380 . S
C50 C51 1.170 1_556 S
C51 C50 1.170 1_554 S
C41 C19 1.474 1_665 S
C43 C10 1.440 . S
C45 C16 1.496 1_554 S
C47 C7 1.500 1_545 S
C49 C11 1.494 1_556 S
C51 C2 1.497 1_654 S
