# Generated by pormake.
# Topology sxa, (6)-cn, num edge types: 1
# Building blocks:
#     Node 0, Type 0, BuildingBlock: UKALOJ_clean_sbu_0, # of connection points: 6
#     Node 1, Type 0, BuildingBlock: UKALOJ_clean_sbu_0, # of connection points: 6
#     Node 2, Type 0, BuildingBlock: UKALOJ_clean_sbu_0, # of connection points: 6
#     Node 3, Type 0, BuildingBlock: UKALOJ_clean_sbu_0, # of connection points: 6
#     Edge 4, Type (0, 0), BuildingBlock: OJICUG_clean_linker_0, # of connection points: 2
#     Edge 5, Type (0, 0), BuildingBlock: OJICUG_clean_linker_0, # of connection points: 2
#     Edge 6, Type (0, 0), BuildingBlock: OJICUG_clean_linker_0, # of connection points: 2
#     Edge 7, Type (0, 0), BuildingBlock: OJICUG_clean_linker_0, # of connection points: 2
#     Edge 8, Type (0, 0), BuildingBlock: OJICUG_clean_linker_0, # of connection points: 2
#     Edge 9, Type (0, 0), BuildingBlock: OJICUG_clean_linker_0, # of connection points: 2
#     Edge 10, Type (0, 0), BuildingBlock: OJICUG_clean_linker_0, # of connection points: 2
#     Edge 11, Type (0, 0), BuildingBlock: OJICUG_clean_linker_0, # of connection points: 2
#     Edge 12, Type (0, 0), BuildingBlock: OJICUG_clean_linker_0, # of connection points: 2
#     Edge 13, Type (0, 0), BuildingBlock: OJICUG_clean_linker_0, # of connection points: 2
#     Edge 14, Type (0, 0), BuildingBlock: OJICUG_clean_linker_0, # of connection points: 2
#     Edge 15, Type (0, 0), BuildingBlock: OJICUG_clean_linker_0, # of connection points: 2
# Relax obj value: 0.115
# Max RMSD: 0.185
# Mean RMSD: 0.185
data_MOF--net-sxa--node1-UKALOJ_clean_sbu_0--edge1-OJICUG_clean_linker_0
_symmetry_space_group_name_H-M    P1
_symmetry_Int_Tables_number       1
_symmetry_cell_setting            triclinic
loop_
_symmetry_equiv_pos_as_xyz
'x, y, z'
_cell_length_a     17.191881
_cell_length_b     29.726839
_cell_length_c     11.555512
_cell_angle_alpha  90.003408
_cell_angle_beta   89.999158
_cell_angle_gamma 89.998127
loop_
_atom_site_label
_atom_site_type_symbol
_atom_site_fract_x
_atom_site_fract_y
_atom_site_fract_z
_atom_type_partial_charge
Zn0 Zn 0.9801 0.85066 0.23427 0.0
O1 O 0.09778 0.85252 0.28688 0.0
C2 C 0.03332 0.81535 0.0109 0.0
Zn3 Zn 0.9816 0.77508 0.23272 0.0
C4 C 0.13469 0.81574 0.30031 0.0
O5 O 0.0993 0.77845 0.28677 0.0
C6 C 0.82764 0.81014 0.17468 0.0
O7 O 0.94139 0.77306 0.40414 0.0
O8 O 0.94107 0.8472 0.40743 0.0
N9 N 0.98786 0.70565 0.21943 0.0
C10 C 0.96588 0.67796 0.13217 0.0
C11 C 0.03391 0.6391 0.24909 0.0
N12 N 0.02962 0.6812 0.29227 0.0
N13 N -0.00574 0.63599 0.14861 0.0
C14 C 0.00921 0.95201 0.17035 0.0
C15 C 0.90361 0.98156 0.22881 0.0
N16 N 0.97071 0.92022 0.23165 0.0
N17 N 0.90575 0.93909 0.26932 0.0
N18 N 0.96762 0.9907 0.16552 0.0
H19 H 0.107 0.90986 0.12137 0.0
H20 H 0.12977 0.96727 0.14925 0.0
H21 H 0.08025 0.95336 0.01776 0.0
C22 C 0.08556 0.94464 0.11074 0.0
C23 C 0.92141 0.69249 0.02664 0.0
H24 H 0.91579 0.72929 0.01955 0.0
H25 H 0.86176 0.67841 0.03095 0.0
H26 H 0.94981 0.67927 0.94738 0.0
O27 O 0.86485 0.77346 0.1832 0.0
O28 O 0.86336 0.84725 0.18502 0.0
C29 C 0.9244 0.80975 0.45533 0.0
O30 O 0.01602 0.85197 0.06073 0.0
O31 O 0.02139 0.77866 0.06344 0.0
Zn32 Zn 0.50311 0.27462 0.23426 0.0
O33 O 0.38544 0.27277 0.28687 0.0
C34 C 0.44988 0.30994 0.01091 0.0
Zn35 Zn 0.5016 0.35021 0.23274 0.0
C36 C 0.34851 0.30954 0.30032 0.0
O37 O 0.3839 0.34683 0.2868 0.0
C38 C 0.65556 0.31516 0.17468 0.0
O39 O 0.54181 0.35223 0.40416 0.0
O40 O 0.54213 0.27809 0.40741 0.0
N41 N 0.49533 0.41964 0.21947 0.0
C42 C 0.51731 0.44732 0.13222 0.0
C43 C 0.44927 0.48619 0.24913 0.0
N44 N 0.45357 0.44409 0.29231 0.0
N45 N 0.48892 0.4893 0.14866 0.0
C46 C 0.47401 0.17328 0.17031 0.0
C47 C 0.57961 0.14373 0.22875 0.0
N48 N 0.51251 0.20507 0.23162 0.0
N49 N 0.57748 0.1862 0.26927 0.0
N50 N 0.5156 0.13459 0.16547 0.0
H51 H 0.37621 0.21542 0.12134 0.0
H52 H 0.35344 0.15802 0.14925 0.0
H53 H 0.40296 0.17192 0.01773 0.0
C54 C 0.39765 0.18064 0.11072 0.0
C55 C 0.56179 0.4328 0.02669 0.0
H56 H 0.56741 0.396 0.01958 0.0
H57 H 0.62144 0.44688 0.03101 0.0
H58 H 0.5334 0.44603 0.94743 0.0
O59 O 0.61834 0.35183 0.18321 0.0
O60 O 0.61985 0.27804 0.18501 0.0
C61 C 0.5588 0.31553 0.45534 0.0
O62 O 0.46719 0.27332 0.06072 0.0
O63 O 0.46181 0.34662 0.06346 0.0
Zn64 Zn 0.0031 0.35065 0.75559 0.0
O65 O 0.88543 0.35251 0.70299 0.0
C66 C 0.94989 0.31535 0.97895 0.0
Zn67 Zn 0.00161 0.27507 0.75713 0.0
C68 C 0.84851 0.31574 0.68954 0.0
O69 O 0.88391 0.27845 0.70307 0.0
C70 C 0.15556 0.31013 0.81518 0.0
O71 O 0.04182 0.27304 0.58571 0.0
O72 O 0.04212 0.34719 0.58244 0.0
N73 N -0.00466 0.20564 0.77041 0.0
C74 C 0.01732 0.17796 0.85768 0.0
C75 C 0.94929 0.13909 0.74077 0.0
N76 N 0.95359 0.18119 0.69757 0.0
N77 N 0.98894 0.13598 0.84124 0.0
C78 C 0.97399 0.452 0.81951 0.0
C79 C 0.07959 0.48155 0.76104 0.0
N80 N 0.01249 0.42021 0.75821 0.0
N81 N 0.07746 0.43908 0.72054 0.0
N82 N 0.01558 0.49069 0.82434 0.0
H83 H 0.8762 0.40986 0.8685 0.0
H84 H 0.85343 0.46727 0.84061 0.0
H85 H 0.90296 0.45337 0.97211 0.0
C86 C 0.89764 0.44464 0.87913 0.0
C87 C 0.06179 0.19249 0.96321 0.0
H88 H 0.06741 0.22929 0.9703 0.0
H89 H 0.12144 0.1784 0.9589 0.0
H90 H 0.03339 0.17927 0.04247 0.0
O91 O 0.11835 0.27345 0.80666 0.0
O92 O 0.11984 0.34724 0.80484 0.0
C93 C 0.0588 0.30974 0.53452 0.0
O94 O 0.96719 0.35197 0.92913 0.0
O95 O 0.96181 0.27866 0.9264 0.0
Zn96 Zn 0.48159 0.8502 0.75712 0.0
O97 O 0.44139 0.85222 0.5857 0.0
C98 C 0.32764 0.81515 0.81518 0.0
Zn99 Zn 0.4801 0.77462 0.75559 0.0
C100 C 0.4244 0.81552 0.53452 0.0
O101 O 0.44108 0.77807 0.58244 0.0
C102 C 0.53332 0.80995 0.97895 0.0
O103 O 0.59778 0.77276 0.70298 0.0
O104 O 0.59929 0.84682 0.70307 0.0
N105 N 0.47071 0.70506 0.75824 0.0
C106 C 0.50921 0.67327 0.81955 0.0
C107 C 0.40361 0.64373 0.7611 0.0
N108 N 0.40574 0.68619 0.72057 0.0
N109 N 0.46761 0.63459 0.82439 0.0
C110 C 0.46588 0.94732 0.85764 0.0
C111 C 0.53391 0.98618 0.74072 0.0
N112 N 0.48786 0.91963 0.77038 0.0
N113 N 0.52961 0.94408 0.69754 0.0
N114 N 0.49426 0.9893 0.84119 0.0
H115 H 0.41578 0.896 0.97028 0.0
H116 H 0.36176 0.94689 0.95887 0.0
H117 H 0.44981 0.94603 0.04244 0.0
C118 C 0.42141 0.9328 0.96318 0.0
C119 C 0.58556 0.68064 0.87916 0.0
H120 H 0.607 0.71542 0.86852 0.0
H121 H 0.62977 0.65801 0.84065 0.0
H122 H 0.58024 0.67192 0.97214 0.0
O123 O 0.51602 0.77332 0.92913 0.0
O124 O 0.52139 0.84662 0.9264 0.0
C125 C 0.63469 0.80953 0.68954 0.0
O126 O 0.36485 0.85183 0.80665 0.0
O127 O 0.36336 0.77804 0.80485 0.0
C128 C 0.93752 0.54994 0.92354 0.0
C129 C 0.00859 0.52763 0.90518 0.0
H130 H 0.87622 0.60075 0.01883 0.0
C131 C 0.07399 0.54144 0.96911 0.0
H132 H 0.88646 0.54087 0.87426 0.0
C133 C 0.06858 0.57637 0.0497 0.0
C134 C -0.00222 0.59882 0.06801 0.0
H135 H 0.12946 0.52478 0.95754 0.0
H136 H 0.12024 0.58637 0.09673 0.0
C137 C 0.93201 0.58491 0.00488 0.0
C138 C 0.55118 0.54038 0.00495 0.0
C139 C 0.48541 0.52646 0.06807 0.0
H140 H 0.59673 0.58441 0.87433 0.0
C141 C 0.41461 0.54892 0.04976 0.0
H142 H 0.60697 0.52453 0.0189 0.0
C143 C 0.4092 0.58385 0.96917 0.0
C144 C 0.47461 0.59765 0.90524 0.0
H145 H 0.36294 0.53892 0.09679 0.0
H146 H 0.35373 0.60051 0.9576 0.0
C147 C 0.54568 0.57534 0.9236 0.0
C148 C 0.56859 1.04891 0.94009 0.0
C149 C 0.49778 1.02646 0.92178 0.0
H150 H 0.62948 0.1005 0.03225 0.0
C151 C 0.43202 1.04038 0.98492 0.0
H152 H 0.62025 1.03891 0.89305 0.0
C153 C 0.43753 0.07535 0.06627 0.0
C154 C 0.5086 0.09766 0.08462 0.0
H155 H 0.37623 1.02454 0.97098 0.0
H156 H 0.38648 0.08442 0.11555 0.0
C157 C 0.57401 0.08384 0.02068 0.0
C158 C 0.90921 1.04144 0.02074 0.0
C159 C 0.97461 1.02763 0.08467 0.0
H160 H 0.86296 0.08637 0.89312 0.0
C161 C 0.04568 1.04994 0.06632 0.0
H162 H 0.85374 1.02478 0.03231 0.0
C163 C 0.05119 0.0849 0.98497 0.0
C164 C 0.98542 0.09882 0.92184 0.0
H165 H 0.09674 1.04087 0.11559 0.0
H166 H 0.10698 0.10075 0.97102 0.0
C167 C 0.91462 0.07637 0.94015 0.0
C168 C 0.32894 0.85695 0.41139 0.0
C169 C 0.36525 0.81616 0.44142 0.0
H170 H 0.2269 0.88886 0.34421 0.0
C171 C 0.33098 0.77557 0.40521 0.0
H172 H 0.35393 0.8889 0.43697 0.0
C173 C 0.2576 0.77557 0.35341 0.0
C174 C 0.21735 0.81615 0.33598 0.0
H175 H 0.35758 0.74352 0.42583 0.0
H176 H 0.23063 0.74356 0.3334 0.0
C177 C 0.25554 0.85694 0.35943 0.0
C178 C 0.15428 0.2683 0.41141 0.0
C179 C 0.11795 0.30909 0.44142 0.0
H180 H 0.25634 0.23641 0.34424 0.0
C181 C 0.1522 0.34969 0.4052 0.0
H182 H 0.1293 0.23636 0.437 0.0
C183 C 0.22559 0.3497 0.3534 0.0
C184 C 0.26586 0.30911 0.33598 0.0
H185 H 0.12559 0.38174 0.42581 0.0
H186 H 0.25254 0.3817 0.33337 0.0
C187 C 0.22768 0.26833 0.35945 0.0
C188 C 0.72767 0.35695 0.63044 0.0
C189 C 0.76586 0.31616 0.65387 0.0
H190 H 0.62929 0.38891 0.55292 0.0
C191 C 0.7256 0.27557 0.63642 0.0
H192 H 0.75631 0.38886 0.64569 0.0
C193 C 0.65222 0.27558 0.58463 0.0
C194 C 0.61795 0.31618 0.54844 0.0
H195 H 0.75257 0.24357 0.65642 0.0
H196 H 0.62563 0.24353 0.56398 0.0
C197 C 0.65426 0.35697 0.5785 0.0
C198 C 0.83098 0.8497 0.58463 0.0
C199 C 0.86525 0.8091 0.54843 0.0
H200 H 0.73063 0.88171 0.65643 0.0
C201 C 0.82895 0.76831 0.57848 0.0
H202 H 0.85757 0.88175 0.564 0.0
C203 C 0.75554 0.76833 0.63043 0.0
C204 C 0.71735 0.80912 0.65387 0.0
H205 H 0.85394 0.73637 0.5529 0.0
H206 H 0.7269 0.73641 0.64566 0.0
C207 C 0.75759 0.8497 0.63643 0.0
C208 C 0.203 0.85624 0.84691 0.0
C209 C 0.24339 0.81545 0.83551 0.0
H210 H 0.09848 0.88813 0.90296 0.0
C211 C 0.2027 0.77474 0.84652 0.0
H212 H 0.23201 0.88818 0.83361 0.0
C213 C 0.12616 0.7748 0.88545 0.0
C214 C 0.09017 0.81557 0.91591 0.0
H215 H 0.23142 0.74272 0.83309 0.0
H216 H 0.0989 0.74279 0.90465 0.0
C217 C 0.1262 0.85624 0.88526 0.0
C218 C 0.28021 0.26904 0.84691 0.0
C219 C 0.23981 0.30983 0.83551 0.0
H220 H 0.38473 0.23715 0.90296 0.0
C221 C 0.2805 0.35054 0.84653 0.0
H222 H 0.2512 0.2371 0.8336 0.0
C223 C 0.35704 0.35048 0.88547 0.0
C224 C 0.39303 0.30972 0.91592 0.0
H225 H 0.25177 0.38256 0.83311 0.0
H226 H 0.3843 0.3825 0.90467 0.0
C227 C 0.35701 0.26905 0.88527 0.0
C228 C 0.7802 0.35625 0.14294 0.0
C229 C 0.73981 0.31545 0.15435 0.0
H230 H 0.88471 0.38814 0.08689 0.0
C231 C 0.78051 0.27475 0.14334 0.0
H232 H 0.75119 0.38819 0.15624 0.0
C233 C 0.85705 0.27481 0.10441 0.0
C234 C 0.89304 0.31557 0.07395 0.0
H235 H 0.75179 0.24273 0.15678 0.0
H236 H 0.88432 0.24279 0.08521 0.0
C237 C 0.857 0.35624 0.10459 0.0
C238 C 0.703 0.76905 0.14295 0.0
C239 C 0.74339 0.80985 0.15434 0.0
H240 H 0.59848 0.73716 0.08691 0.0
C241 C 0.7027 0.85055 0.14332 0.0
H242 H 0.73201 0.73711 0.15626 0.0
C243 C 0.62616 0.85049 0.10438 0.0
C244 C 0.59017 0.80973 0.07394 0.0
H245 H 0.73142 0.88257 0.15674 0.0
H246 H 0.5989 0.88251 0.08517 0.0
C247 C 0.6262 0.76906 0.1046 0.0
loop_
_geom_bond_atom_site_label_1
_geom_bond_atom_site_label_2
_geom_bond_distance
_geom_bond_site_symmetry_2
_ccdc_geom_bond_type
Zn0 O1 2.055 1_655 S
Zn0 O8 2.046 . S
Zn0 N16 2.036 . S
Zn0 O28 2.053 . S
Zn0 O30 2.066 1_655 S
O1 Zn0 2.055 1_455 S
O1 C4 1.259 . S
C2 O30 1.256 . S
C2 O31 1.244 . S
Zn3 O5 2.046 . S
Zn3 O7 2.055 1_455 S
Zn3 N9 2.036 . S
Zn3 O27 2.066 1_455 S
Zn3 O31 2.053 . S
C4 O1 1.259 . S
C4 O5 1.254 . S
O5 Zn3 2.046 . S
O5 C4 1.254 . S
C6 O27 1.256 . S
C6 O28 1.244 . S
O7 Zn3 2.055 1_655 S
O7 C29 1.259 . S
O8 Zn0 2.046 . S
O8 C29 1.254 . S
N9 Zn3 2.036 . S
N9 C10 1.298 1_455 S
N9 N12 1.398 . S
C10 N9 1.298 1_655 S
C10 N13 1.367 . S
C10 C23 1.481 . S
C11 N12 1.299 . S
C11 N13 1.379 1_455 S
N12 N9 1.398 . S
N12 C11 1.299 . S
N13 C10 1.367 . S
N13 C11 1.379 1_655 S
C14 N16 1.298 1_455 S
C14 N18 1.367 . S
C14 C22 1.481 . S
C15 N17 1.299 . S
C15 N18 1.379 1_655 S
N16 Zn0 2.036 . S
N16 C14 1.298 1_655 S
N16 N17 1.398 . S
N17 C15 1.299 . S
N17 N16 1.398 . S
N18 C14 1.367 . S
N18 C15 1.379 1_455 S
H19 C22 0.980 . S
H20 C22 0.981 . S
H21 C22 0.981 . S
C22 C14 1.481 . S
C22 H19 0.980 . S
C22 H20 0.981 . S
C22 H21 0.981 . S
C23 C10 1.481 . S
C23 H24 0.980 . S
C23 H25 0.981 . S
C23 H26 0.981 . S
H24 C23 0.980 . S
H25 C23 0.981 . S
H26 C23 0.981 . S
O27 Zn3 2.066 1_655 S
O27 C6 1.256 . S
O28 Zn0 2.053 . S
O28 C6 1.244 . S
C29 O7 1.259 . S
C29 O8 1.254 . S
O30 Zn0 2.066 1_455 S
O30 C2 1.256 . S
O31 C2 1.244 . S
O31 Zn3 2.053 . S
Zn32 O33 2.055 . S
Zn32 O40 2.046 . S
Zn32 N48 2.036 . S
Zn32 O60 2.053 . S
Zn32 O62 2.066 . S
O33 Zn32 2.055 . S
O33 C36 1.259 . S
C34 O62 1.256 . S
C34 O63 1.244 . S
Zn35 O37 2.046 . S
Zn35 O39 2.055 . S
Zn35 N41 2.036 . S
Zn35 O59 2.066 . S
Zn35 O63 2.053 . S
C36 O33 1.259 . S
C36 O37 1.254 . S
O37 Zn35 2.046 . S
O37 C36 1.254 . S
C38 O59 1.256 . S
C38 O60 1.244 . S
O39 Zn35 2.055 . S
O39 C61 1.259 . S
O40 Zn32 2.046 . S
O40 C61 1.254 . S
N41 Zn35 2.036 . S
N41 C42 1.298 . S
N41 N44 1.398 . S
C42 N41 1.298 . S
C42 N45 1.367 . S
C42 C55 1.481 . S
C43 N44 1.299 . S
C43 N45 1.379 . S
N44 N41 1.398 . S
N44 C43 1.299 . S
N45 C42 1.367 . S
N45 C43 1.379 . S
C46 N48 1.298 . S
C46 N50 1.367 . S
C46 C54 1.481 . S
C47 N49 1.299 . S
C47 N50 1.379 . S
N48 Zn32 2.036 . S
N48 C46 1.298 . S
N48 N49 1.398 . S
N49 C47 1.299 . S
N49 N48 1.398 . S
N50 C46 1.367 . S
N50 C47 1.379 . S
H51 C54 0.980 . S
H52 C54 0.981 . S
H53 C54 0.981 . S
C54 C46 1.481 . S
C54 H51 0.980 . S
C54 H52 0.981 . S
C54 H53 0.981 . S
C55 C42 1.481 . S
C55 H56 0.980 . S
C55 H57 0.981 . S
C55 H58 0.981 . S
H56 C55 0.980 . S
H57 C55 0.981 . S
H58 C55 0.981 . S
O59 Zn35 2.066 . S
O59 C38 1.256 . S
O60 Zn32 2.053 . S
O60 C38 1.244 . S
C61 O39 1.259 . S
C61 O40 1.254 . S
O62 Zn32 2.066 . S
O62 C34 1.256 . S
O63 C34 1.244 . S
O63 Zn35 2.053 . S
Zn64 O65 2.055 1_455 S
Zn64 O72 2.046 . S
Zn64 N80 2.036 . S
Zn64 O92 2.053 . S
Zn64 O94 2.066 1_455 S
O65 Zn64 2.055 1_655 S
O65 C68 1.259 . S
C66 O94 1.256 . S
C66 O95 1.244 . S
Zn67 O69 2.046 . S
Zn67 O71 2.055 1_655 S
Zn67 N73 2.036 . S
Zn67 O91 2.066 1_655 S
Zn67 O95 2.053 . S
C68 O65 1.259 . S
C68 O69 1.254 . S
O69 Zn67 2.046 . S
O69 C68 1.254 . S
C70 O91 1.256 . S
C70 O92 1.244 . S
O71 Zn67 2.055 1_455 S
O71 C93 1.259 . S
O72 Zn64 2.046 . S
O72 C93 1.254 . S
N73 Zn67 2.036 . S
N73 C74 1.298 1_655 S
N73 N76 1.398 . S
C74 N73 1.298 1_455 S
C74 N77 1.367 . S
C74 C87 1.481 . S
C75 N76 1.299 . S
C75 N77 1.379 1_655 S
N76 N73 1.398 . S
N76 C75 1.299 . S
N77 C74 1.367 . S
N77 C75 1.379 1_455 S
C78 N80 1.298 1_655 S
C78 N82 1.367 . S
C78 C86 1.481 . S
C79 N81 1.299 . S
C79 N82 1.379 1_455 S
N80 Zn64 2.036 . S
N80 C78 1.298 1_455 S
N80 N81 1.398 . S
N81 C79 1.299 . S
N81 N80 1.398 . S
N82 C78 1.367 . S
N82 C79 1.379 1_655 S
H83 C86 0.980 . S
H84 C86 0.981 . S
H85 C86 0.981 . S
C86 C78 1.481 . S
C86 H83 0.980 . S
C86 H84 0.981 . S
C86 H85 0.981 . S
C87 C74 1.481 . S
C87 H88 0.980 . S
C87 H89 0.981 . S
C87 H90 0.981 . S
H88 C87 0.980 . S
H89 C87 0.981 . S
H90 C87 0.981 . S
O91 Zn67 2.066 1_455 S
O91 C70 1.256 . S
O92 Zn64 2.053 . S
O92 C70 1.244 . S
C93 O71 1.259 . S
C93 O72 1.254 . S
O94 Zn64 2.066 1_655 S
O94 C66 1.256 . S
O95 C66 1.244 . S
O95 Zn67 2.053 . S
Zn96 O97 2.055 . S
Zn96 O104 2.046 . S
Zn96 N112 2.036 . S
Zn96 O124 2.053 . S
Zn96 O126 2.066 . S
O97 Zn96 2.055 . S
O97 C100 1.259 . S
C98 O126 1.256 . S
C98 O127 1.244 . S
Zn99 O101 2.046 . S
Zn99 O103 2.055 . S
Zn99 N105 2.036 . S
Zn99 O123 2.066 . S
Zn99 O127 2.053 . S
C100 O97 1.259 . S
C100 O101 1.254 . S
O101 Zn99 2.046 . S
O101 C100 1.254 . S
C102 O123 1.256 . S
C102 O124 1.244 . S
O103 Zn99 2.055 . S
O103 C125 1.259 . S
O104 Zn96 2.046 . S
O104 C125 1.254 . S
N105 Zn99 2.036 . S
N105 C106 1.298 . S
N105 N108 1.398 . S
C106 N105 1.298 . S
C106 N109 1.367 . S
C106 C119 1.481 . S
C107 N108 1.299 . S
C107 N109 1.379 . S
N108 N105 1.398 . S
N108 C107 1.299 . S
N109 C106 1.367 . S
N109 C107 1.379 . S
C110 N112 1.298 . S
C110 N114 1.367 . S
C110 C118 1.481 . S
C111 N113 1.299 . S
C111 N114 1.379 . S
N112 Zn96 2.036 . S
N112 C110 1.298 . S
N112 N113 1.398 . S
N113 C111 1.299 . S
N113 N112 1.398 . S
N114 C110 1.367 . S
N114 C111 1.379 . S
H115 C118 0.980 . S
H116 C118 0.981 . S
H117 C118 0.981 . S
C118 C110 1.481 . S
C118 H115 0.980 . S
C118 H116 0.981 . S
C118 H117 0.981 . S
C119 C106 1.481 . S
C119 H120 0.980 . S
C119 H121 0.981 . S
C119 H122 0.981 . S
H120 C119 0.980 . S
H121 C119 0.981 . S
H122 C119 0.981 . S
O123 Zn99 2.066 . S
O123 C102 1.256 . S
O124 Zn96 2.053 . S
O124 C102 1.244 . S
C125 O103 1.259 . S
C125 O104 1.254 . S
O126 Zn96 2.066 . S
O126 C98 1.256 . S
O127 C98 1.244 . S
O127 Zn99 2.053 . S
C128 C129 1.387 . S
C128 H132 0.950 . S
C128 C137 1.390 1_556 S
C129 C128 1.387 . S
C129 C131 1.387 1_655 S
H130 C137 0.950 . S
C131 C129 1.387 1_455 S
C131 C133 1.390 1_556 S
C131 H135 0.950 . S
H132 C128 0.950 . S
C133 C131 1.390 1_554 S
C133 C134 1.387 1_455 S
C133 H136 0.950 . S
C134 C133 1.387 1_655 S
C134 C137 1.387 . S
H135 C131 0.950 . S
H136 C133 0.950 . S
C137 C128 1.390 1_554 S
C137 H130 0.950 . S
C137 C134 1.387 . S
C138 C139 1.387 . S
C138 H142 0.950 . S
C138 C147 1.390 1_554 S
C139 C138 1.387 . S
C139 C141 1.387 . S
H140 C147 0.950 . S
C141 C139 1.387 . S
C141 C143 1.390 1_554 S
C141 H145 0.950 . S
H142 C138 0.950 . S
C143 C141 1.390 1_556 S
C143 C144 1.387 . S
C143 H146 0.950 . S
C144 C143 1.387 . S
C144 C147 1.387 . S
H145 C141 0.950 . S
H146 C143 0.950 . S
C147 C138 1.390 1_556 S
C147 H140 0.950 . S
C147 C144 1.387 . S
C148 C149 1.387 . S
C148 H152 0.950 . S
C148 C157 1.390 1_566 S
C149 C148 1.387 . S
C149 C151 1.387 . S
H150 C157 0.950 . S
C151 C149 1.387 . S
C151 C153 1.390 1_566 S
C151 H155 0.950 . S
H152 C148 0.950 . S
C153 C151 1.390 1_544 S
C153 C154 1.387 . S
C153 H156 0.950 . S
C154 C153 1.387 . S
C154 C157 1.387 . S
H155 C151 0.950 . S
H156 C153 0.950 . S
C157 C148 1.390 1_544 S
C157 H150 0.950 . S
C157 C154 1.387 . S
C158 C159 1.387 1_655 S
C158 H162 0.950 . S
C158 C167 1.390 1_564 S
C159 C158 1.387 1_455 S
C159 C161 1.387 . S
H160 C167 0.950 . S
C161 C159 1.387 . S
C161 C163 1.390 1_564 S
C161 H165 0.950 . S
H162 C158 0.950 . S
C163 C161 1.390 1_546 S
C163 C164 1.387 . S
C163 H166 0.950 . S
C164 C163 1.387 . S
C164 C167 1.387 1_455 S
H165 C161 0.950 . S
H166 C163 0.950 . S
C167 C158 1.390 1_546 S
C167 H160 0.950 . S
C167 C164 1.387 1_655 S
C168 C169 1.387 . S
C168 H172 0.950 . S
C168 C177 1.390 . S
C169 C168 1.387 . S
C169 C171 1.387 . S
H170 C177 0.950 . S
C171 C169 1.387 . S
C171 C173 1.390 . S
C171 H175 0.950 . S
H172 C168 0.950 . S
C173 C171 1.390 . S
C173 C174 1.387 . S
C173 H176 0.950 . S
C174 C173 1.387 . S
C174 C177 1.387 . S
H175 C171 0.950 . S
H176 C173 0.950 . S
C177 C168 1.390 . S
C177 H170 0.950 . S
C177 C174 1.387 . S
C178 C179 1.387 . S
C178 H182 0.950 . S
C178 C187 1.390 . S
C179 C178 1.387 . S
C179 C181 1.387 . S
H180 C187 0.950 . S
C181 C179 1.387 . S
C181 C183 1.390 . S
C181 H185 0.950 . S
H182 C178 0.950 . S
C183 C181 1.390 . S
C183 C184 1.387 . S
C183 H186 0.950 . S
C184 C183 1.387 . S
C184 C187 1.387 . S
H185 C181 0.950 . S
H186 C183 0.950 . S
C187 C178 1.390 . S
C187 H180 0.950 . S
C187 C184 1.387 . S
C188 C189 1.387 . S
C188 H192 0.950 . S
C188 C197 1.390 . S
C189 C188 1.387 . S
C189 C191 1.387 . S
H190 C197 0.950 . S
C191 C189 1.387 . S
C191 C193 1.390 . S
C191 H195 0.950 . S
H192 C188 0.950 . S
C193 C191 1.390 . S
C193 C194 1.387 . S
C193 H196 0.950 . S
C194 C193 1.387 . S
C194 C197 1.387 . S
H195 C191 0.950 . S
H196 C193 0.950 . S
C197 C188 1.390 . S
C197 H190 0.950 . S
C197 C194 1.387 . S
C198 C199 1.387 . S
C198 H202 0.950 . S
C198 C207 1.390 . S
C199 C198 1.387 . S
C199 C201 1.387 . S
H200 C207 0.950 . S
C201 C199 1.387 . S
C201 C203 1.390 . S
C201 H205 0.950 . S
H202 C198 0.950 . S
C203 C201 1.390 . S
C203 C204 1.387 . S
C203 H206 0.950 . S
C204 C203 1.387 . S
C204 C207 1.387 . S
H205 C201 0.950 . S
H206 C203 0.950 . S
C207 C198 1.390 . S
C207 H200 0.950 . S
C207 C204 1.387 . S
C208 C209 1.388 . S
C208 H212 0.950 . S
C208 C217 1.390 1_556 S
C209 C208 1.388 . S
C209 C211 1.388 . S
H210 C217 0.950 . S
C211 C209 1.388 . S
C211 C213 1.390 1_556 S
C211 H215 0.950 . S
H212 C208 0.950 . S
C213 C211 1.390 1_554 S
C213 C214 1.388 . S
C213 H216 0.950 . S
C214 C213 1.388 . S
C214 C217 1.388 . S
H215 C211 0.950 . S
H216 C213 0.950 . S
C217 C208 1.390 1_554 S
C217 H210 0.950 . S
C217 C214 1.388 . S
C218 C219 1.388 . S
C218 H222 0.950 . S
C218 C227 1.390 1_556 S
C219 C218 1.388 . S
C219 C221 1.388 . S
H220 C227 0.950 . S
C221 C219 1.388 . S
C221 C223 1.390 1_556 S
C221 H225 0.950 . S
H222 C218 0.950 . S
C223 C221 1.390 1_554 S
C223 C224 1.388 . S
C223 H226 0.950 . S
C224 C223 1.388 . S
C224 C227 1.388 . S
H225 C221 0.950 . S
H226 C223 0.950 . S
C227 C218 1.390 1_554 S
C227 H220 0.950 . S
C227 C224 1.388 . S
C228 C229 1.388 . S
C228 H232 0.950 . S
C228 C237 1.390 1_554 S
C229 C228 1.388 . S
C229 C231 1.388 . S
H230 C237 0.950 . S
C231 C229 1.388 . S
C231 C233 1.390 1_554 S
C231 H235 0.950 . S
H232 C228 0.950 . S
C233 C231 1.390 1_556 S
C233 C234 1.388 . S
C233 H236 0.950 . S
C234 C233 1.388 . S
C234 C237 1.388 . S
H235 C231 0.950 . S
H236 C233 0.950 . S
C237 C228 1.390 1_556 S
C237 H230 0.950 . S
C237 C234 1.388 . S
C238 C239 1.388 . S
C238 H242 0.950 . S
C238 C247 1.390 1_554 S
C239 C238 1.388 . S
C239 C241 1.388 . S
H240 C247 0.950 . S
C241 C239 1.388 . S
C241 C243 1.390 1_554 S
C241 H245 0.950 . S
H242 C238 0.950 . S
C243 C241 1.390 1_556 S
C243 C244 1.388 . S
C243 H246 0.950 . S
C244 C243 1.388 . S
C244 C247 1.388 . S
H245 C241 0.950 . S
H246 C243 0.950 . S
C247 C238 1.390 1_556 S
C247 H240 0.950 . S
C247 C244 1.388 . S
C129 N82 1.853 . S
C134 N13 1.853 . S
C139 N45 1.853 . S
C144 N109 1.853 . S
C149 N114 1.851 . S
C154 N50 1.851 . S
C159 N18 1.851 . S
C164 N77 1.851 . S
C169 C100 1.526 . S
C174 C4 1.525 . S
C179 C93 1.526 . S
C184 C36 1.525 . S
C189 C68 1.526 . S
C194 C61 1.527 . S
C199 C29 1.525 . S
C204 C125 1.526 . S
C209 C98 1.091 . S
C214 C2 1.090 . S
C219 C70 1.091 . S
C224 C34 1.090 . S
C229 C38 1.091 . S
C234 C66 1.092 . S
C239 C6 1.091 . S
C244 C102 1.092 . S
