# Generated by pormake.
# Topology pcu, (6)-cn, num edge types: 1
# Building blocks:
#     Node 0, Type 0, BuildingBlock: KUMJIN_clean_sbu_0, # of connection points: 6
#     Edge 1, Type (0, 0), BuildingBlock: AJUNOK_clean_linker_0, # of connection points: 2
#     Edge 2, Type (0, 0), BuildingBlock: AJUNOK_clean_linker_0, # of connection points: 2
#     Edge 3, Type (0, 0), BuildingBlock: AJUNOK_clean_linker_0, # of connection points: 2
# Relax obj value: 0.000
# Max RMSD: 0.000
# Mean RMSD: 0.000
data_MOF--net-pcu--node1-KUMJIN_clean_sbu_0--edge1-AJUNOK_clean_linker_0
_symmetry_space_group_name_H-M    P1
_symmetry_Int_Tables_number       1
_symmetry_cell_setting            triclinic
loop_
_symmetry_equiv_pos_as_xyz
'x, y, z'
_cell_length_a     10.039417
_cell_length_b     20.567206
_cell_length_c     11.249398
_cell_angle_alpha  114.7893
_cell_angle_beta   77.009377
_cell_angle_gamma 114.24177
loop_
_atom_site_label
_atom_site_type_symbol
_atom_site_fract_x
_atom_site_fract_y
_atom_site_fract_z
_atom_type_partial_charge
Eu0 Eu 0.13802 0.09661 0.04818 0.0
C1 C 0.71145 0.77833 0.72635 0.0
C2 C 0.47527 0.77041 0.84527 0.0
C3 C 0.48892 0.70461 0.60844 0.0
C4 C 0.62939 0.7981 0.84355 0.0
C5 C 0.64199 0.7299 0.60793 0.0
C6 C 0.40574 0.72494 0.72685 0.0
C7 C 0.87923 0.73008 0.49929 0.0
N8 N 0.85897 0.80308 0.72923 0.0
C9 C 0.94281 0.77717 0.61941 0.0
C10 C 0.72828 0.70683 0.49317 0.0
Eu11 Eu 0.95857 0.88515 0.93484 0.0
N12 N 0.69974 0.84165 0.95648 0.0
C13 C 0.62229 0.8555 0.07517 0.0
C14 C 0.39553 0.7878 0.96628 0.0
C15 C 0.46931 0.82962 0.0818 0.0
H16 H 0.05958 0.79534 0.62409 0.0
H17 H 0.40851 0.8424 0.17597 0.0
H18 H 0.28753 0.70375 0.72619 0.0
H19 H 0.94687 0.71226 0.41151 0.0
H20 H 0.67808 0.88824 0.16507 0.0
H21 H 0.70498 0.13739 0.85649 0.0
H22 H 0.27714 0.76795 0.97174 0.0
H23 H 1.01158 0.20325 0.33169 0.0
H24 H 0.43641 0.08689 0.84557 0.0
H25 H 0.10651 0.30901 0.53806 0.0
H26 H 0.43359 0.66793 0.51825 0.0
H27 H 0.81633 0.22649 0.0678 0.0
H28 H 0.78442 0.30775 0.30386 0.0
H29 H 0.67922 0.66993 0.40005 0.0
H30 H 0.62195 0.35677 0.4883 0.0
N31 N 0.39602 0.14201 0.05021 0.0
C32 C 0.48385 0.12458 0.93874 0.0
C33 C 0.69851 0.20343 0.06383 0.0
C34 C 0.60855 0.22635 0.17537 0.0
C35 C 0.63603 0.15341 0.94437 0.0
C36 C 0.45551 0.19436 0.16527 0.0
H37 H 0.37013 0.35988 0.57434 0.0
N38 N 0.21823 0.19217 0.2538 0.0
C39 C 0.17995 0.28442 0.46388 0.0
C40 C 0.36403 0.22106 0.26977 0.0
C41 C 0.12639 0.22412 0.34708 0.0
C42 C 0.32886 0.31298 0.48397 0.0
C43 C 0.4232 0.28169 0.38608 0.0
O44 O 1.0331 0.16994 0.04303 0.0
O45 O 0.93443 0.99609 0.98423 0.0
O46 O 0.95951 0.92291 0.77186 0.0
O47 O 0.16266 0.03502 0.82522 0.0
O48 O 0.90828 0.09156 0.13514 0.0
O49 O 0.24585 0.1754 0.94411 0.0
O50 O 0.04846 0.79608 0.88542 0.0
O51 O 0.16334 0.98522 0.00451 0.0
O52 O 0.11183 0.06827 0.2273 0.0
O53 O 0.94673 0.94088 0.16076 0.0
O54 O 0.18855 0.89192 0.84559 0.0
O55 O 0.87656 0.80637 0.04041 0.0
C56 C 0.83993 0.02257 0.05888 0.0
C57 C 0.19068 0.28858 0.0289 0.0
C58 C 0.15568 0.40268 0.0463 0.0
C59 C 0.11891 0.32278 0.99261 0.0
C60 C 0.26646 0.4483 0.13514 0.0
C61 C 0.30275 0.33499 0.11627 0.0
C62 C 0.34025 0.41451 0.16908 0.0
C63 C 0.06004 0.9815 0.74354 0.0
C64 C 0.14355 0.20454 0.97829 0.0
C65 C 0.57476 0.31094 0.39904 0.0
C66 C 0.66723 0.28297 0.29409 0.0
C67 C 0.25761 0.95844 0.92857 0.0
C68 C 0.89173 0.68292 0.92077 0.0
C69 C 0.94335 0.64095 0.95865 0.0
C70 C 0.88844 0.56033 0.90501 0.0
C71 C 0.78072 0.52192 0.81354 0.0
C72 C 0.78211 0.64371 0.83105 0.0
C73 C 0.72696 0.56357 0.77779 0.0
C74 C 1.02397 0.00559 0.25136 0.0
C75 C 0.96006 0.76708 0.96956 0.0
H76 H 1.03262 0.28724 0.92476 0.0
H77 H 0.29669 0.51008 0.17712 0.0
H78 H 0.36101 0.30997 0.14384 0.0
H79 H 0.42639 0.44999 0.23677 0.0
H80 H 1.02885 0.67091 0.02725 0.0
H81 H 0.73784 0.45983 0.77052 0.0
H82 H 0.74037 0.67481 0.80106 0.0
H83 H 0.64329 0.53368 0.70772 0.0
C84 C 0.9374 0.93769 0.41151 0.0
C85 C 1.02445 0.00407 0.38325 0.0
C86 C 0.94934 0.93097 0.52765 0.0
C87 C 0.05185 0.98926 0.61938 0.0
H88 H 0.86001 0.88981 0.3429 0.0
H89 H 0.87757 0.87928 0.54481 0.0
S90 S 0.29803 0.17756 0.59924 0.0
N91 N 0.20711 0.13248 0.46523 0.0
N92 N 0.23758 0.11699 0.67578 0.0
C93 C 0.13734 0.05638 0.59366 0.0
C94 C 0.12128 0.06455 0.47812 0.0
C95 C 0.51216 0.95691 0.86468 0.0
C96 C 0.40552 0.97526 0.96444 0.0
C97 C 0.65231 0.97063 0.89454 0.0
C98 C 0.68931 0.00105 0.02547 0.0
H99 H 0.48797 0.93319 0.76261 0.0
H100 H 0.73222 0.95848 0.81456 0.0
S101 S 0.4469 0.0497 0.32213 0.0
N102 N 0.34506 0.01949 0.19959 0.0
N103 N 0.60796 0.04535 0.25449 0.0
C104 C 0.5834 0.01793 0.12549 0.0
C105 C 0.44128 0.00438 0.09547 0.0
C106 C 1.0236 0.47126 0.8457 0.0
C107 C 0.94769 0.51656 0.94127 0.0
C108 C 0.08816 0.43295 0.8797 0.0
C109 C 0.07859 0.43887 0.01024 0.0
H110 H 1.03601 0.46694 0.74474 0.0
H111 H 0.14893 0.40008 0.80424 0.0
S112 S 0.87395 0.54079 0.29227 0.0
N113 N 0.8548 0.55913 0.16865 0.0
N114 N 0.97588 0.48685 0.23235 0.0
C115 C 0.99814 0.4814 0.10536 0.0
C116 C 0.93272 0.5204 0.07092 0.0
loop_
_geom_bond_atom_site_label_1
_geom_bond_atom_site_label_2
_geom_bond_distance
_geom_bond_site_symmetry_2
_ccdc_geom_bond_type
Eu0 N31 2.657 1_554 S
Eu0 N38 2.609 . S
Eu0 O44 2.558 . S
Eu0 O45 2.612 1_444 S
Eu0 O47 2.339 1_554 S
Eu0 O48 2.563 1_455 S
Eu0 O49 2.419 . S
Eu0 O51 2.380 . S
Eu0 O52 2.432 1_455 S
Eu0 C64 2.848 . S
C1 C4 1.429 . S
C1 C5 1.411 . S
C1 N8 1.377 . S
C2 C4 1.420 . S
C2 C6 1.423 . S
C2 C14 1.392 1_556 S
C3 C5 1.420 . S
C3 C6 1.351 . S
C3 H26 0.931 . S
C4 C1 1.429 . S
C4 C2 1.420 . S
C4 N12 1.362 1_556 S
C5 C1 1.411 . S
C5 C3 1.420 . S
C5 C10 1.395 . S
C6 C2 1.423 . S
C6 C3 1.351 . S
C6 H18 0.930 . S
C7 C9 1.400 . S
C7 C10 1.386 . S
C7 H19 0.930 . S
N8 C1 1.377 . S
N8 C9 1.321 . S
N8 Eu11 2.609 . S
C9 C7 1.400 . S
C9 N8 1.321 . S
C9 H16 0.930 . S
C10 C5 1.395 . S
C10 C7 1.386 . S
C10 H29 0.930 . S
Eu11 N8 2.609 . S
Eu11 N12 2.657 1_556 S
Eu11 O45 2.380 . S
Eu11 O46 2.432 1_655 S
Eu11 O50 2.558 . S
Eu11 O51 2.612 1_666 S
Eu11 O53 2.339 1_556 S
Eu11 O54 2.563 1_655 S
Eu11 O55 2.419 . S
Eu11 C75 2.848 . S
N12 C4 1.362 1_554 S
N12 Eu11 2.657 1_554 S
N12 C13 1.334 . S
C13 N12 1.334 . S
C13 C15 1.413 . S
C13 H20 0.929 . S
C14 C2 1.392 1_554 S
C14 C15 1.367 . S
C14 H22 0.930 . S
C15 C13 1.413 . S
C15 C14 1.367 . S
C15 H17 0.930 . S
H16 C9 0.930 . S
H17 C15 0.930 . S
H18 C6 0.930 . S
H19 C7 0.930 . S
H20 C13 0.929 . S
H21 C35 0.930 . S
H22 C14 0.930 . S
H23 C41 0.930 . S
H24 C32 0.929 . S
H25 C39 0.930 . S
H26 C3 0.931 . S
H27 C33 0.930 . S
H28 C66 0.930 . S
H29 C10 0.930 . S
H30 C65 0.931 . S
N31 Eu0 2.657 1_556 S
N31 C32 1.334 . S
N31 C36 1.362 1_556 S
C32 H24 0.929 . S
C32 N31 1.334 . S
C32 C35 1.413 . S
C33 H27 0.930 . S
C33 C34 1.392 1_556 S
C33 C35 1.367 . S
C34 C33 1.392 1_554 S
C34 C36 1.420 . S
C34 C66 1.423 . S
C35 H21 0.930 . S
C35 C32 1.413 . S
C35 C33 1.367 . S
C36 N31 1.362 1_554 S
C36 C34 1.420 . S
C36 C40 1.429 . S
H37 C42 0.930 . S
N38 Eu0 2.609 . S
N38 C40 1.377 . S
N38 C41 1.321 . S
C39 H25 0.930 . S
C39 C41 1.400 . S
C39 C42 1.386 . S
C40 C36 1.429 . S
C40 N38 1.377 . S
C40 C43 1.411 . S
C41 H23 0.930 . S
C41 N38 1.321 . S
C41 C39 1.400 . S
C42 H37 0.930 . S
C42 C39 1.386 . S
C42 C43 1.395 . S
C43 C40 1.411 . S
C43 C42 1.395 . S
C43 C65 1.420 . S
O44 Eu0 2.558 . S
O44 C64 1.257 . S
O45 Eu0 2.612 1_666 S
O45 Eu11 2.380 . S
O45 C56 1.276 1_566 S
O46 Eu11 2.432 1_455 S
O46 C63 1.264 . S
O47 Eu0 2.339 1_556 S
O47 C63 1.254 1_545 S
O48 Eu0 2.563 1_655 S
O48 C56 1.235 . S
O49 Eu0 2.419 . S
O49 C64 1.249 . S
O50 Eu11 2.558 . S
O50 C75 1.257 . S
O51 Eu0 2.380 . S
O51 Eu11 2.612 1_444 S
O51 C67 1.276 1_544 S
O52 Eu0 2.432 1_655 S
O52 C74 1.264 . S
O53 Eu11 2.339 1_554 S
O53 C74 1.254 1_565 S
O54 Eu11 2.563 1_455 S
O54 C67 1.235 . S
O55 Eu11 2.419 . S
O55 C75 1.249 . S
C56 O45 1.276 1_544 S
C56 O48 1.235 . S
C57 C59 1.393 . S
C57 C61 1.395 . S
C57 C64 1.492 . S
C58 C59 1.392 . S
C58 C60 1.386 . S
C59 C57 1.393 . S
C59 C58 1.392 . S
C59 H76 0.930 1_554 S
C60 C58 1.386 . S
C60 C62 1.395 . S
C60 H77 0.930 . S
C61 C57 1.395 . S
C61 C62 1.379 . S
C61 H78 0.930 . S
C62 C60 1.395 . S
C62 C61 1.379 . S
C62 H79 0.930 . S
C63 O46 1.264 . S
C63 O47 1.254 1_565 S
C64 Eu0 2.848 . S
C64 O44 1.257 . S
C64 O49 1.249 . S
C64 C57 1.492 . S
C65 H30 0.931 . S
C65 C43 1.420 . S
C65 C66 1.351 . S
C66 H28 0.930 . S
C66 C34 1.423 . S
C66 C65 1.351 . S
C67 O51 1.276 1_566 S
C67 O54 1.235 . S
C68 C69 1.393 . S
C68 C72 1.395 . S
C68 C75 1.492 . S
C69 C68 1.393 . S
C69 C70 1.392 . S
C69 H80 0.930 1_556 S
C70 C69 1.392 . S
C70 C71 1.386 . S
C71 C70 1.386 . S
C71 C73 1.395 . S
C71 H81 0.930 . S
C72 C68 1.395 . S
C72 C73 1.379 . S
C72 H82 0.930 . S
C73 C71 1.395 . S
C73 C72 1.379 . S
C73 H83 0.930 . S
C74 O52 1.264 . S
C74 O53 1.254 1_545 S
C75 Eu11 2.848 . S
C75 O50 1.257 . S
C75 O55 1.249 . S
C75 C68 1.492 . S
H76 C59 0.930 1_556 S
H77 C60 0.930 . S
H78 C61 0.930 . S
H79 C62 0.930 . S
H80 C69 0.930 1_554 S
H81 C71 0.930 . S
H82 C72 0.930 . S
H83 C73 0.930 . S
C84 C85 1.369 1_665 S
C84 C86 1.419 . S
C84 H88 0.930 . S
C85 C84 1.369 1_445 S
C85 C94 1.428 . S
C86 C84 1.419 . S
C86 C87 1.364 1_665 S
C86 H89 0.929 . S
C87 C86 1.364 1_445 S
C87 C93 1.429 . S
H88 C84 0.930 . S
H89 C86 0.929 . S
S90 N91 1.613 . S
S90 N92 1.610 . S
N91 S90 1.613 . S
N91 C94 1.350 . S
N92 S90 1.610 . S
N92 C93 1.351 . S
C93 C87 1.429 . S
C93 N92 1.351 . S
C93 C94 1.434 . S
C94 C85 1.428 . S
C94 N91 1.350 . S
C94 C93 1.434 . S
C95 C96 1.366 1_546 S
C95 C97 1.419 . S
C95 H99 0.930 . S
C96 C95 1.366 1_564 S
C96 C105 1.436 . S
C97 C95 1.419 . S
C97 C98 1.353 1_546 S
C97 H100 0.929 . S
C98 C97 1.353 1_564 S
C98 C104 1.433 . S
H99 C95 0.930 . S
H100 C97 0.929 . S
S101 N102 1.613 . S
S101 N103 1.610 . S
N102 S101 1.613 . S
N102 C105 1.350 . S
N103 S101 1.610 . S
N103 C104 1.351 . S
C104 C98 1.433 . S
C104 N103 1.351 . S
C104 C105 1.434 . S
C105 C96 1.436 . S
C105 N102 1.350 . S
C105 C104 1.434 . S
C106 C107 1.368 1_456 S
C106 C108 1.419 . S
C106 H110 0.930 . S
C107 C106 1.368 1_654 S
C107 C116 1.429 . S
C108 C106 1.419 . S
C108 C109 1.363 1_456 S
C108 H111 0.929 . S
C109 C108 1.363 1_654 S
C109 C115 1.430 . S
H110 C106 0.930 . S
H111 C108 0.929 . S
S112 N113 1.613 . S
S112 N114 1.610 . S
N113 S112 1.613 . S
N113 C116 1.350 . S
N114 S112 1.610 . S
N114 C115 1.351 . S
C115 C109 1.430 . S
C115 N114 1.351 . S
C115 C116 1.434 . S
C116 C107 1.429 . S
C116 N113 1.350 . S
C116 C115 1.434 . S
C85 C74 1.476 1_455 S
C87 C63 1.469 1_545 S
C96 C67 1.434 1_554 S
C98 C56 1.444 1_565 S
C107 C70 1.332 1_554 S
C109 C58 1.318 1_655 S
