# Generated by pormake.
# Topology pcu, (6)-cn, num edge types: 1
# Building blocks:
#     Node 0, Type 0, BuildingBlock: VOLQOD_clean_sbu_1, # of connection points: 6
#     Edge 1, Type (0, 0), BuildingBlock: FUNLAD_clean_linker_0, # of connection points: 2
#     Edge 2, Type (0, 0), BuildingBlock: FUNLAD_clean_linker_0, # of connection points: 2
#     Edge 3, Type (0, 0), BuildingBlock: FUNLAD_clean_linker_0, # of connection points: 2
# Relax obj value: 0.082
# Max RMSD: 0.143
# Mean RMSD: 0.143
data_MOF--net-pcu--node1-VOLQOD_clean_sbu_1--edge1-FUNLAD_clean_linker_0
_symmetry_space_group_name_H-M    P1
_symmetry_Int_Tables_number       1
_symmetry_cell_setting            triclinic
loop_
_symmetry_equiv_pos_as_xyz
'x, y, z'
_cell_length_a     19.793982
_cell_length_b     19.770882
_cell_length_c     19.810008
_cell_angle_alpha  91.049785
_cell_angle_beta   88.689255
_cell_angle_gamma 92.388513
loop_
_atom_site_label
_atom_site_type_symbol
_atom_site_fract_x
_atom_site_fract_y
_atom_site_fract_z
_atom_type_partial_charge
O0 O 0.0211 0.01928 0.15443 0.0
Zn1 Zn 0.04112 0.03582 0.05523 0.0
O2 O -0.01815 0.97884 -0.00252 0.0
Zn3 Zn 0.03709 0.92075 0.93981 0.0
Zn4 Zn 0.92129 0.92252 0.05409 0.0
Zn5 Zn 0.92757 0.03514 0.94084 0.0
O6 O 0.02265 0.93787 0.84162 0.0
O7 O 0.94621 0.01688 0.84155 0.0
O8 O 0.13961 0.01845 0.03604 0.0
O9 O 0.136 0.93946 0.95501 0.0
O10 O 0.01559 0.82189 0.95708 0.0
O11 O 0.93287 0.82336 0.03464 0.0
O12 O 0.82423 0.9423 0.0399 0.0
O13 O 0.02841 0.13463 0.03779 0.0
O14 O 0.82741 0.01927 0.95966 0.0
O15 O 0.94991 0.13396 0.95934 0.0
C16 C 0.97838 0.97995 0.18495 0.0
C17 C -0.01439 0.97722 0.81004 0.0
C18 C 0.97257 0.79101 -0.00444 0.0
C19 C 0.16937 0.97922 -0.00565 0.0
C20 C 0.7943 -0.01863 0.00113 0.0
C21 C -0.00931 0.16587 -0.00139 0.0
O22 O 0.93793 0.94046 0.15239 0.0
C23 C 0.02556 0.01277 0.29815 0.0
C24 C 0.97411 -0.01902 0.25971 0.0
C25 C 0.02076 0.01384 0.36874 0.0
C26 C 0.96411 -0.01649 0.40222 0.0
C27 C 0.91236 0.95275 0.36379 0.0
C28 C 0.91753 0.95088 0.29339 0.0
C29 C 0.9564 -0.0153 0.47691 0.0
C30 C 0.00929 -0.0164 0.51831 0.0
C31 C 0.00122 -0.0182 0.59294 0.0
C32 C 0.04923 0.94914 0.63021 0.0
C33 C 0.0435 0.94673 0.70054 0.0
C34 C -0.0098 0.97814 0.73531 0.0
H35 H 0.91094 0.04057 0.60051 0.0
C36 C 0.94255 0.01168 0.69802 0.0
C37 C 0.94787 0.01338 0.62754 0.0
H38 H 0.90114 0.03674 0.72324 0.0
H39 H 0.06961 0.03674 0.27375 0.0
H40 H 0.0608 0.03954 0.39682 0.0
H41 H 0.86797 0.92953 0.38834 0.0
H42 H 0.87666 0.92647 0.26537 0.0
H43 H 0.90528 -0.01817 0.49816 0.0
H44 H 0.06002 0.97941 0.49692 0.0
H45 H 0.09108 0.9249 0.6048 0.0
H46 H 0.08145 0.92095 0.72768 0.0
C47 C 0.28305 0.01589 0.03895 0.0
C48 C 0.24419 -0.01886 0.98983 0.0
C49 C 0.35368 0.01839 0.03375 0.0
C50 C 0.38682 -0.01363 0.97908 0.0
C51 C 0.348 0.95259 0.9296 0.0
C52 C 0.2775 0.94942 0.93515 0.0
C53 C 0.46157 -0.01149 0.97133 0.0
C54 C 0.50291 -0.00944 0.02436 0.0
C55 C 0.57751 -0.01129 0.01669 0.0
C56 C 0.61389 0.95826 0.06699 0.0
C57 C 0.68412 0.95519 0.06142 0.0
C58 C 0.71971 -0.01624 0.00592 0.0
H59 H 0.58657 0.04317 0.92243 0.0
C60 C 0.6834 0.01541 0.95606 0.0
C61 C 0.61294 0.01771 0.96126 0.0
H62 H 0.70934 0.03827 0.91293 0.0
H63 H 0.25897 0.04126 0.08144 0.0
H64 H 0.38203 0.04643 0.07189 0.0
H65 H 0.37231 0.92798 0.88675 0.0
H66 H 0.24915 0.92274 0.89606 0.0
H67 H 0.48285 -0.01661 0.92053 0.0
H68 H 0.4814 -0.01141 0.07528 0.0
H69 H 0.58781 0.93607 0.11044 0.0
H70 H 0.71055 0.931 0.10109 0.0
C71 C 0.02029 0.6789 0.96416 0.0
C72 C 0.96857 0.71606 -0.00507 0.0
C73 C 0.01669 0.60814 0.96411 0.0
C74 C 0.96105 0.57308 -0.00543 0.0
C75 C 0.90886 0.61014 0.02417 0.0
C76 C 0.91282 0.68087 0.02497 0.0
C77 C 0.95492 0.49805 -0.00564 0.0
C78 C 0.00882 0.45883 -0.00396 0.0
C79 C 0.00253 0.38381 -0.00311 0.0
C80 C 0.05178 0.34795 0.0293 0.0
C81 C 0.0476 0.27724 0.03057 0.0
C82 C -0.00536 0.24084 -0.00173 0.0
H83 H 0.91188 0.37341 0.93715 0.0
C84 C 0.94587 0.27679 0.9649 0.0
C85 C 0.94967 0.34749 0.96428 0.0
H86 H 0.90461 0.25034 0.9392 0.0
H87 H 0.06378 0.70444 0.94029 0.0
H88 H 0.05694 0.58115 0.93916 0.0
H89 H 0.86516 0.58429 0.04737 0.0
H90 H 0.87185 0.70792 0.04865 0.0
H91 H 0.90425 0.47474 -0.00321 0.0
H92 H 0.05916 0.4823 0.00072 0.0
H93 H 0.09334 0.37476 0.05424 0.0
H94 H 0.08631 0.25115 0.0563 0.0
loop_
_geom_bond_atom_site_label_1
_geom_bond_atom_site_label_2
_geom_bond_distance
_geom_bond_site_symmetry_2
_ccdc_geom_bond_type
O0 Zn1 1.953 . S
O0 C16 1.225 . S
Zn1 O0 1.953 . S
Zn1 O2 1.941 1_454 S
Zn1 O8 1.919 . S
Zn1 O13 1.924 . S
O2 Zn1 1.941 1_656 S
O2 Zn3 1.931 1_645 S
O2 Zn4 1.942 1_546 S
O2 Zn5 1.953 . S
Zn3 O2 1.931 1_465 S
Zn3 O6 1.933 . S
Zn3 O9 1.941 . S
Zn3 O10 1.965 . S
Zn4 O2 1.942 1_564 S
Zn4 O11 1.938 . S
Zn4 O12 1.906 . S
Zn4 O22 1.953 . S
Zn5 O2 1.953 . S
Zn5 O7 1.932 . S
Zn5 O14 1.977 . S
Zn5 O15 1.910 . S
O6 Zn3 1.933 . S
O6 C17 1.230 . S
O7 Zn5 1.932 . S
O7 C17 1.303 1_645 S
O8 Zn1 1.919 . S
O8 C19 1.253 1_544 S
O9 Zn3 1.941 . S
O9 C19 1.283 . S
O10 Zn3 1.965 . S
O10 C18 1.303 1_456 S
O11 Zn4 1.938 . S
O11 C18 1.247 . S
O12 Zn4 1.906 . S
O12 C20 1.304 1_564 S
O13 Zn1 1.924 . S
O13 C21 1.311 . S
O14 Zn5 1.977 . S
O14 C20 1.272 . S
O15 Zn5 1.910 . S
O15 C21 1.231 1_656 S
C16 O0 1.225 . S
C16 O22 1.298 1_445 S
C17 O6 1.230 . S
C17 O7 1.303 1_465 S
C18 O10 1.303 1_654 S
C18 O11 1.247 . S
C19 O8 1.253 1_566 S
C19 O9 1.283 . S
C20 O12 1.304 1_546 S
C20 O14 1.272 . S
C21 O13 1.311 . S
C21 O15 1.231 1_454 S
O22 Zn4 1.953 . S
O22 C16 1.298 1_665 S
C23 C24 1.377 1_465 S
C23 C25 1.383 . S
C23 H39 0.951 . S
C24 C23 1.377 1_645 S
C24 C28 1.392 . S
C25 C23 1.383 . S
C25 C26 1.399 1_465 S
C25 H40 0.952 . S
C26 C25 1.399 1_645 S
C26 C27 1.375 . S
C26 C29 1.481 . S
C27 C26 1.375 . S
C27 C28 1.367 . S
C27 H41 0.951 . S
C28 C24 1.392 . S
C28 C27 1.367 . S
C28 H42 0.950 . S
C29 C26 1.481 . S
C29 C30 1.297 1_655 S
C29 H43 0.950 . S
C30 C29 1.297 1_455 S
C30 C31 1.479 . S
C30 H44 0.950 . S
C31 C30 1.479 . S
C31 C32 1.378 . S
C31 C37 1.404 1_455 S
C32 C31 1.378 . S
C32 C33 1.368 1_545 S
C32 H45 0.949 1_545 S
C33 C32 1.368 1_565 S
C33 C34 1.392 1_565 S
C33 H46 0.951 . S
C34 C33 1.392 1_545 S
C34 C36 1.384 1_455 S
H35 C37 0.949 . S
C36 C34 1.384 1_655 S
C36 C37 1.385 . S
C36 H38 0.950 . S
C37 C31 1.404 1_655 S
C37 H35 0.949 . S
C37 C36 1.385 . S
H38 C36 0.950 . S
H39 C23 0.951 . S
H40 C25 0.952 . S
H41 C27 0.951 . S
H42 C28 0.950 . S
H43 C29 0.950 . S
H44 C30 0.950 . S
H45 C32 0.949 1_565 S
H46 C33 0.951 . S
C47 C48 1.386 1_544 S
C47 C49 1.383 . S
C47 H63 0.951 . S
C48 C47 1.386 1_566 S
C48 C52 1.383 . S
C49 C47 1.383 . S
C49 C50 1.402 1_544 S
C49 H64 0.951 . S
C50 C49 1.402 1_566 S
C50 C51 1.375 . S
C50 C53 1.481 . S
C51 C50 1.375 . S
C51 C52 1.367 . S
C51 H65 0.951 . S
C52 C48 1.383 . S
C52 C51 1.367 . S
C52 H66 0.950 . S
C53 C50 1.481 . S
C53 C54 1.297 . S
C53 H67 0.950 . S
C54 C53 1.297 . S
C54 C55 1.479 . S
C54 H68 0.950 1_556 S
C55 C54 1.479 . S
C55 C56 1.375 1_566 S
C55 C61 1.404 . S
C56 C55 1.375 1_544 S
C56 C57 1.369 . S
C56 H69 0.950 . S
C57 C56 1.369 . S
C57 C58 1.392 1_544 S
C57 H70 0.951 . S
C58 C57 1.392 1_566 S
C58 C60 1.384 . S
H59 C61 0.949 . S
C60 C58 1.384 . S
C60 C61 1.385 . S
C60 H62 0.950 . S
C61 C55 1.404 . S
C61 H59 0.949 . S
C61 C60 1.385 . S
H62 C60 0.950 . S
H63 C47 0.951 . S
H64 C49 0.951 . S
H65 C51 0.951 . S
H66 C52 0.950 . S
H67 C53 0.950 . S
H68 C54 0.950 1_554 S
H69 C56 0.950 . S
H70 C57 0.951 . S
C71 C72 1.386 1_455 S
C71 C73 1.383 . S
C71 H87 0.951 . S
C72 C71 1.386 1_655 S
C72 C76 1.383 . S
C73 C71 1.383 . S
C73 C74 1.402 1_455 S
C73 H88 0.951 . S
C74 C73 1.402 1_655 S
C74 C75 1.375 . S
C74 C77 1.481 . S
C75 C74 1.375 . S
C75 C76 1.367 . S
C75 H89 0.951 . S
C76 C72 1.383 . S
C76 C75 1.367 . S
C76 H90 0.950 . S
C77 C74 1.481 . S
C77 C78 1.297 1_655 S
C77 H91 0.950 . S
C78 C77 1.297 1_455 S
C78 C79 1.479 . S
C78 H92 0.950 . S
C79 C78 1.479 . S
C79 C80 1.375 . S
C79 C85 1.404 1_455 S
C80 C79 1.375 . S
C80 C81 1.369 . S
C80 H93 0.950 . S
C81 C80 1.369 . S
C81 C82 1.392 . S
C81 H94 0.951 . S
C82 C81 1.392 . S
C82 C84 1.384 1_455 S
H83 C85 0.949 . S
C84 C82 1.384 1_655 S
C84 C85 1.385 . S
C84 H86 0.950 . S
C85 C79 1.404 1_655 S
C85 H83 0.949 . S
C85 C84 1.385 . S
H86 C84 0.950 . S
H87 C71 0.951 . S
H88 C73 0.951 . S
H89 C75 0.951 . S
H90 C76 0.950 . S
H91 C77 0.950 . S
H92 C78 0.950 . S
H93 C80 0.950 . S
H94 C81 0.951 . S
C24 C16 1.495 1_655 S
C34 C17 1.494 1_545 S
C48 C19 1.422 . S
C58 C20 1.418 1_565 S
C72 C18 1.428 . S
C82 C21 1.448 . S
