# Generated by pormake.
# Topology pcu, (6)-cn, num edge types: 1
# Building blocks:
#     Node 0, Type 0, BuildingBlock: BETGAK_clean_sbu_0, # of connection points: 6
#     Edge 1, Type (0, 0), BuildingBlock: EZIPEK_clean_linker_0, # of connection points: 2
#     Edge 2, Type (0, 0), BuildingBlock: EZIPEK_clean_linker_0, # of connection points: 2
#     Edge 3, Type (0, 0), BuildingBlock: EZIPEK_clean_linker_0, # of connection points: 2
# Relax obj value: 0.000
# Max RMSD: 0.000
# Mean RMSD: 0.000
data_MOF--net-pcu--node1-BETGAK_clean_sbu_0--edge1-EZIPEK_clean_linker_0
_symmetry_space_group_name_H-M    P1
_symmetry_Int_Tables_number       1
_symmetry_cell_setting            triclinic
loop_
_symmetry_equiv_pos_as_xyz
'x, y, z'
_cell_length_a     11.319452
_cell_length_b     21.114298
_cell_length_c     10.507629
_cell_angle_alpha  93.737547
_cell_angle_beta   89.753564
_cell_angle_gamma 120.06975
loop_
_atom_site_label
_atom_site_type_symbol
_atom_site_fract_x
_atom_site_fract_y
_atom_site_fract_z
_atom_type_partial_charge
La0 La 0.0988 0.1032 1.01668 0.0
La1 La 0.94819 0.94338 0.02131 0.0
C2 C 0.1873 0.23412 0.9613 0.0
C3 C 0.14995 0.29185 0.97646 0.0
C4 C 0.0866 0.30081 0.08611 0.0
C5 C 0.05538 0.35734 0.0981 0.0
C6 C 0.08608 0.40513 1.00028 0.0
C7 C 0.14783 0.39554 0.89039 0.0
C8 C 0.17962 0.33942 0.87872 0.0
C9 C 0.05398 0.05753 0.25172 0.0
C10 C 0.77296 1.01782 1.01181 0.0
C11 C 0.85948 0.81201 0.07436 0.0
C12 C 0.89966 0.75534 0.06183 0.0
C13 C 0.97075 0.74891 0.95629 0.0
C14 C 1.0036 0.69298 0.94591 0.0
C15 C 0.96682 0.64326 0.04134 0.0
C16 C 0.8976 0.65044 0.14737 0.0
C17 C 0.86422 0.70598 0.1574 0.0
C18 C 0.99311 0.98972 0.78633 0.0
C19 C 0.27334 0.02848 0.02697 0.0
O20 O 0.22471 0.21623 0.06424 0.0
O21 O 0.10712 0.17652 0.88584 0.0
O22 O 0.1635 0.11392 0.21589 0.0
O23 O 0.97167 0.02969 0.1567 0.0
O24 O 0.88724 0.07833 0.98914 0.0
O25 O 0.77291 0.95846 0.04358 0.0
O26 O 0.8269 0.83054 0.96949 0.0
O27 O 0.93452 0.86911 0.15281 0.0
O28 O 0.88346 0.93343 0.82212 0.0
O29 O 0.07541 1.01688 0.88135 0.0
O30 O 0.15948 0.96891 0.05392 0.0
O31 O 0.27255 0.08696 0.99137 0.0
H32 H 0.06191 0.26445 0.16242 0.0
H33 H 1.0075 0.36392 0.18349 0.0
H34 H 0.17209 0.43183 0.81403 0.0
H35 H 0.22803 0.33329 0.79329 0.0
H36 H 0.99992 0.78667 0.88173 0.0
H37 H 0.05718 0.68825 0.86347 0.0
H38 H 0.86851 0.61262 0.22182 0.0
H39 H 0.80977 0.71014 0.23965 0.0
C40 C 0.10182 0.0971 0.48676 0.0
C41 C 1.02366 0.04117 0.38977 0.0
C42 C 0.94481 0.95046 0.55126 0.0
C43 C 1.02318 1.00633 0.64831 0.0
N44 N 0.21983 0.12744 0.69087 0.0
N45 N 0.82576 0.92053 0.34773 0.0
C46 C 0.11414 0.07824 0.61159 0.0
C47 C 0.93224 0.96941 0.42661 0.0
N48 N 0.15395 0.1691 0.46348 0.0
N49 N 0.89247 0.87841 0.57428 0.0
H50 H 0.8023 0.93425 0.26237 0.0
H51 H 0.74927 0.86999 0.37556 0.0
H52 H 0.91509 0.86224 0.65816 0.0
H53 H 0.84539 0.83568 0.5034 0.0
H54 H 0.20068 0.21191 0.53427 0.0
H55 H 0.13144 0.18516 0.37942 0.0
H56 H 0.29626 0.17802 0.66314 0.0
H57 H 0.24267 0.11409 0.77685 0.0
C58 C 0.50943 0.07075 0.11259 0.0
C59 C 0.40162 0.02617 0.02255 0.0
C60 C 0.54082 0.97921 0.92056 0.0
C61 C 0.64457 1.01989 1.01595 0.0
N62 N 0.72218 0.09562 0.21363 0.0
N63 N 0.30748 0.93351 0.8465 0.0
C64 C 0.62777 0.06361 0.1147 0.0
C65 C 0.41497 0.97877 0.92853 0.0
N66 N 0.49883 0.12007 0.19592 0.0
N67 N 0.5653 0.94384 0.81911 0.0
H68 H 0.21776 0.93578 0.84117 0.0
H69 H 0.30388 0.89093 0.78766 0.0
H70 H 0.65612 0.94284 0.81037 0.0
H71 H 0.50063 0.92012 0.73873 0.0
H72 H 0.57996 0.16039 0.25307 0.0
H73 H 0.41078 0.12396 0.20264 0.0
H74 H 0.70882 0.12134 0.29578 0.0
H75 H 0.80999 0.09148 0.21898 0.0
C76 C 0.89495 0.51104 0.98373 0.0
C77 C 0.99828 0.58247 0.02991 0.0
C78 C 0.15916 0.53766 0.05754 0.0
C79 C 0.05514 0.46608 1.01262 0.0
N80 N 0.82134 0.38144 0.94599 0.0
N81 N 0.22993 0.66671 0.10324 0.0
C82 C 0.92221 0.45193 0.9792 0.0
C83 C 0.13091 0.59656 0.06494 0.0
N84 N 0.77251 0.50066 0.93932 0.0
N85 N 0.28338 0.5483 0.09693 0.0
H86 H 0.21122 0.71034 0.11409 0.0
H87 H 0.33207 0.68334 0.12035 0.0
H88 H 0.30729 0.50651 0.09223 0.0
H89 H 0.36197 0.59717 0.13944 0.0
H90 H 0.6972 0.4523 0.89208 0.0
H91 H 0.74855 0.54241 0.94212 0.0
H92 H 0.7186 0.36523 0.93441 0.0
H93 H 0.83876 0.33733 0.93683 0.0
loop_
_geom_bond_atom_site_label_1
_geom_bond_atom_site_label_2
_geom_bond_distance
_geom_bond_site_symmetry_2
_ccdc_geom_bond_type
La0 C2 2.928 . S
La0 O20 2.521 . S
La0 O21 2.628 1_554 S
La0 O22 2.554 . S
La0 O23 2.757 1_545 S
La0 O24 2.470 1_455 S
La0 O29 2.482 1_454 S
La0 O31 2.503 . S
La1 C11 2.928 . S
La1 O23 2.482 1_656 S
La1 O25 2.503 . S
La1 O26 2.521 . S
La1 O27 2.628 1_556 S
La1 O28 2.554 . S
La1 O29 2.757 1_565 S
La1 O30 2.470 1_655 S
C2 La0 2.928 . S
C2 C3 1.503 . S
C2 O20 1.261 . S
C2 O21 1.243 1_554 S
C3 C2 1.503 . S
C3 C4 1.394 . S
C3 C8 1.373 1_454 S
C4 C3 1.394 . S
C4 C5 1.380 . S
C4 H32 0.930 . S
C5 C4 1.380 . S
C5 C6 1.376 . S
C5 H33 0.930 . S
C6 C5 1.376 . S
C6 C7 1.370 1_454 S
C7 C6 1.370 1_656 S
C7 C8 1.396 . S
C7 H34 0.929 . S
C8 C3 1.373 1_656 S
C8 C7 1.396 . S
C8 H35 0.929 . S
C9 O22 1.240 . S
C9 O23 1.289 1_545 S
C10 O24 1.258 1_565 S
C10 O25 1.255 1_554 S
C11 La1 2.928 . S
C11 C12 1.503 . S
C11 O26 1.261 . S
C11 O27 1.243 1_556 S
C12 C11 1.503 . S
C12 C13 1.394 . S
C12 C17 1.373 1_656 S
C13 C12 1.394 . S
C13 C14 1.380 . S
C13 H36 0.930 . S
C14 C13 1.380 . S
C14 C15 1.376 . S
C14 H37 0.930 . S
C15 C14 1.376 . S
C15 C16 1.370 1_656 S
C16 C15 1.370 1_454 S
C16 C17 1.396 . S
C16 H38 0.929 . S
C17 C12 1.373 1_454 S
C17 C16 1.396 . S
C17 H39 0.929 . S
C18 O28 1.240 . S
C18 O29 1.289 1_565 S
C19 O30 1.258 1_545 S
C19 O31 1.256 1_556 S
O20 La0 2.521 . S
O20 C2 1.261 . S
O21 La0 2.628 1_556 S
O21 C2 1.243 1_556 S
O22 La0 2.554 . S
O22 C9 1.240 . S
O23 La0 2.757 1_565 S
O23 La1 2.482 1_454 S
O23 C9 1.289 1_565 S
O24 La0 2.470 1_655 S
O24 C10 1.258 1_545 S
O25 La1 2.503 . S
O25 C10 1.255 1_556 S
O26 La1 2.521 . S
O26 C11 1.261 . S
O27 La1 2.628 1_554 S
O27 C11 1.243 1_554 S
O28 La1 2.554 . S
O28 C18 1.240 . S
O29 La0 2.482 1_656 S
O29 La1 2.757 1_545 S
O29 C18 1.289 1_545 S
O30 La1 2.470 1_455 S
O30 C19 1.258 1_565 S
O31 La0 2.503 . S
O31 C19 1.256 1_554 S
H32 C4 0.930 . S
H33 C5 0.930 . S
H34 C7 0.929 . S
H35 C8 0.929 . S
H36 C13 0.930 . S
H37 C14 0.930 . S
H38 C16 0.929 . S
H39 C17 0.929 . S
C40 C41 1.363 . S
C40 C46 1.379 . S
C40 N48 1.356 . S
C41 C40 1.363 . S
C41 C47 1.363 1_445 S
C42 C43 1.363 1_665 S
C42 C47 1.379 . S
C42 N49 1.356 . S
C43 C42 1.363 1_445 S
C43 C46 1.363 . S
N44 C46 1.356 . S
N44 H56 0.984 . S
N44 H57 0.985 . S
N45 C47 1.356 . S
N45 H50 0.984 . S
N45 H51 0.985 . S
C46 C40 1.379 . S
C46 C43 1.363 . S
C46 N44 1.356 . S
C47 C41 1.363 1_665 S
C47 C42 1.379 . S
C47 N45 1.356 . S
N48 C40 1.356 . S
N48 H54 0.984 . S
N48 H55 0.984 . S
N49 C42 1.356 . S
N49 H52 0.984 . S
N49 H53 0.985 . S
H50 N45 0.984 . S
H51 N45 0.985 . S
H52 N49 0.984 . S
H53 N49 0.985 . S
H54 N48 0.984 . S
H55 N48 0.984 . S
H56 N44 0.984 . S
H57 N44 0.985 . S
C58 C59 1.363 . S
C58 C64 1.379 . S
C58 N66 1.356 . S
C59 C58 1.363 . S
C59 C65 1.363 1_544 S
C60 C61 1.363 1_566 S
C60 C65 1.379 . S
C60 N67 1.356 . S
C61 C60 1.363 1_544 S
C61 C64 1.363 . S
N62 C64 1.356 . S
N62 H74 0.984 . S
N62 H75 0.985 . S
N63 C65 1.356 . S
N63 H68 0.984 . S
N63 H69 0.985 . S
C64 C58 1.379 . S
C64 C61 1.363 . S
C64 N62 1.356 . S
C65 C59 1.363 1_566 S
C65 C60 1.379 . S
C65 N63 1.356 . S
N66 C58 1.356 . S
N66 H72 0.984 . S
N66 H73 0.984 . S
N67 C60 1.356 . S
N67 H70 0.984 . S
N67 H71 0.985 . S
H68 N63 0.984 . S
H69 N63 0.985 . S
H70 N67 0.984 . S
H71 N67 0.985 . S
H72 N66 0.984 . S
H73 N66 0.984 . S
H74 N62 0.984 . S
H75 N62 0.985 . S
C76 C77 1.363 1_656 S
C76 C82 1.379 . S
C76 N84 1.356 . S
C77 C76 1.363 1_454 S
C77 C83 1.363 . S
C78 C79 1.363 . S
C78 C83 1.379 . S
C78 N85 1.356 . S
C79 C78 1.363 . S
C79 C82 1.363 1_454 S
N80 C82 1.356 . S
N80 H92 0.984 . S
N80 H93 0.985 . S
N81 C83 1.356 . S
N81 H86 0.984 . S
N81 H87 0.985 . S
C82 C76 1.379 . S
C82 C79 1.363 1_656 S
C82 N80 1.356 . S
C83 C77 1.363 . S
C83 C78 1.379 . S
C83 N81 1.356 . S
N84 C76 1.356 . S
N84 H90 0.984 . S
N84 H91 0.984 . S
N85 C78 1.356 . S
N85 H88 0.984 . S
N85 H89 0.985 . S
H86 N81 0.984 . S
H87 N81 0.985 . S
H88 N85 0.984 . S
H89 N85 0.985 . S
H90 N84 0.984 . S
H91 N84 0.984 . S
H92 N80 0.984 . S
H93 N80 0.985 . S
C41 C9 1.450 . S
C43 C18 1.450 1_445 S
C59 C19 1.484 1_554 S
C61 C10 1.484 1_545 S
C77 C15 1.499 1_454 S
C79 C6 1.499 . S
