# Generated by pormake.
# Topology etd, (3)-cn, num edge types: 1
# Building blocks:
#     Node 0, Type 0, BuildingBlock: OLANEW_clean_sbu_2, # of connection points: 3
#     Node 1, Type 0, BuildingBlock: OLANEW_clean_sbu_2, # of connection points: 3
#     Node 2, Type 0, BuildingBlock: OLANEW_clean_sbu_2, # of connection points: 3
#     Node 3, Type 0, BuildingBlock: OLANEW_clean_sbu_2, # of connection points: 3
#     Node 4, Type 0, BuildingBlock: OLANEW_clean_sbu_2, # of connection points: 3
#     Node 5, Type 0, BuildingBlock: OLANEW_clean_sbu_2, # of connection points: 3
#     Node 6, Type 0, BuildingBlock: OLANEW_clean_sbu_2, # of connection points: 3
#     Node 7, Type 0, BuildingBlock: OLANEW_clean_sbu_2, # of connection points: 3
#     Node 8, Type 0, BuildingBlock: OLANEW_clean_sbu_2, # of connection points: 3
#     Node 9, Type 0, BuildingBlock: OLANEW_clean_sbu_2, # of connection points: 3
#     Node 10, Type 0, BuildingBlock: OLANEW_clean_sbu_2, # of connection points: 3
#     Node 11, Type 0, BuildingBlock: OLANEW_clean_sbu_2, # of connection points: 3
#     Edge 12, Type (0, 0), None
#     Edge 13, Type (0, 0), None
#     Edge 14, Type (0, 0), None
#     Edge 15, Type (0, 0), None
#     Edge 16, Type (0, 0), None
#     Edge 17, Type (0, 0), None
#     Edge 18, Type (0, 0), None
#     Edge 19, Type (0, 0), None
#     Edge 20, Type (0, 0), None
#     Edge 21, Type (0, 0), None
#     Edge 22, Type (0, 0), None
#     Edge 23, Type (0, 0), None
#     Edge 24, Type (0, 0), None
#     Edge 25, Type (0, 0), None
#     Edge 26, Type (0, 0), None
#     Edge 27, Type (0, 0), None
#     Edge 28, Type (0, 0), None
#     Edge 29, Type (0, 0), None
# Relax obj value: 0.003
# Max RMSD: 0.010
# Mean RMSD: 0.010
data_MOF--net-etd--node1-OLANEW_clean_sbu_2--edge1-none
_symmetry_space_group_name_H-M    P1
_symmetry_Int_Tables_number       1
_symmetry_cell_setting            triclinic
loop_
_symmetry_equiv_pos_as_xyz
'x, y, z'
_cell_length_a     31.205971
_cell_length_b     31.2095
_cell_length_c     19.012771
_cell_angle_alpha  89.999912
_cell_angle_beta   89.999599
_cell_angle_gamma 119.98801
loop_
_atom_site_label
_atom_site_type_symbol
_atom_site_fract_x
_atom_site_fract_y
_atom_site_fract_z
_atom_type_partial_charge
O0 O 0.58801 0.09199 0.24136 0.0
Cd1 Cd 0.62297 0.10086 0.12346 0.0
O2 O 0.53633 0.10793 0.18563 0.0
Cd3 Cd 0.4817 0.13183 0.17593 0.0
O4 O 0.46943 0.19082 0.13767 0.0
C5 C 0.50948 0.23033 0.12359 0.0
O6 O 0.5518 0.2318 0.13401 0.0
C7 C 0.55139 0.09916 0.243 0.0
C8 C 0.57938 0.01316 0.0469 0.0
O9 O 0.62195 0.02931 0.0753 0.0
O10 O 0.55726 0.03805 0.05491 0.0
O11 O 0.48621 0.59294 0.40802 0.0
Cd12 Cd 0.51229 0.62789 0.29012 0.0
O13 O 0.41861 0.54125 0.35229 0.0
Cd14 Cd 0.3401 0.48662 0.34258 0.0
O15 O 0.26884 0.47435 0.30431 0.0
C16 C 0.26937 0.51439 0.29018 0.0
O17 O 0.31021 0.55671 0.30055 0.0
C18 C 0.44244 0.55632 0.40965 0.0
C19 C 0.55644 0.58431 0.21357 0.0
O20 O 0.58284 0.62688 0.24197 0.0
O21 O 0.50943 0.56219 0.22157 0.0
O22 O 0.88347 0.49096 0.5747 0.0
Cd23 Cd 0.87456 0.51703 0.45681 0.0
O24 O 0.86755 0.42336 0.51897 0.0
Cd25 Cd 0.84369 0.34486 0.50926 0.0
O26 O 0.78471 0.27361 0.47099 0.0
C27 C 0.7452 0.27416 0.45687 0.0
O28 O 0.74372 0.31501 0.46725 0.0
C29 C 0.87632 0.44719 0.57634 0.0
C30 C 0.96228 0.56124 0.38026 0.0
O31 O 0.94606 0.58761 0.40866 0.0
O32 O 0.93744 0.51424 0.38825 0.0
O33 O 0.38255 0.88839 0.74136 0.0
Cd34 Cd 0.34758 0.87952 0.62346 0.0
O35 O 0.43424 0.87247 0.68562 0.0
Cd36 Cd 0.48888 0.84859 0.6759 0.0
O37 O 0.50117 0.78961 0.63765 0.0
C38 C 0.46113 0.75009 0.62361 0.0
O39 O 0.4188 0.74859 0.63407 0.0
C40 C 0.41917 0.88123 0.74299 0.0
C41 C 0.39118 0.96723 0.54691 0.0
O42 O 0.34861 0.95108 0.57531 0.0
O43 O 0.41329 0.94233 0.55491 0.0
O44 O 0.48447 0.38752 0.90803 0.0
Cd45 Cd 0.45839 0.35256 0.79014 0.0
O46 O 0.55207 0.43919 0.8523 0.0
Cd47 Cd 0.63059 0.49381 0.84259 0.0
O48 O 0.70184 0.50606 0.80433 0.0
C49 C 0.70129 0.46601 0.79017 0.0
O50 O 0.66043 0.4237 0.80051 0.0
C51 C 0.52824 0.42413 0.90967 0.0
C52 C 0.41424 0.39614 0.71358 0.0
O53 O 0.38785 0.35358 0.74198 0.0
O54 O 0.46125 0.41826 0.72158 0.0
O55 O 0.08715 0.48938 0.07469 0.0
Cd56 Cd 0.09606 0.46332 0.95679 0.0
O57 O 0.10305 0.55697 1.01896 0.0
Cd58 Cd 0.1269 0.63548 1.00925 0.0
O59 O 0.18587 0.70673 0.97099 0.0
C60 C 0.2254 0.70621 0.95692 0.0
O61 O 0.22689 0.66537 0.96734 0.0
C62 C 0.09429 0.53315 0.07633 0.0
C63 C 0.00834 0.4191 0.88025 0.0
O64 O 0.02456 0.39274 0.90865 0.0
O65 O 0.03317 0.4661 0.88825 0.0
O66 O 0.8835 0.38741 0.64512 0.0
Cd67 Cd 0.87464 0.35245 0.76302 0.0
O68 O 0.86759 0.4391 0.70086 0.0
Cd69 Cd 0.84371 0.49374 0.71058 0.0
O70 O 0.78472 0.50603 0.74882 0.0
C71 C 0.74518 0.466 0.76282 0.0
O72 O 0.74367 0.42367 0.75232 0.0
C73 C 0.87634 0.42402 0.64349 0.0
C74 C 0.96235 0.39607 0.83957 0.0
O75 O 0.94622 0.35351 0.81118 0.0
O76 O 0.93744 0.41817 0.83157 0.0
O77 O 0.48612 0.88837 0.81178 0.0
Cd78 Cd 0.51219 0.87947 0.92967 0.0
O79 O 0.41851 0.87245 0.86751 0.0
Cd80 Cd 0.33999 0.84859 0.87722 0.0
O81 O 0.26874 0.78961 0.91548 0.0
C82 C 0.26928 0.75009 0.92956 0.0
O83 O 0.31013 0.74861 0.91914 0.0
C84 C 0.44234 0.88122 0.81014 0.0
C85 C 0.55637 0.96718 1.00622 0.0
O86 O 0.58276 0.95098 0.97782 0.0
O87 O 0.50936 0.94232 0.99823 0.0
O88 O 0.58803 0.49107 0.97846 0.0
Cd89 Cd 0.623 0.51714 0.09636 0.0
O90 O 0.53635 0.42347 0.03419 0.0
Cd91 Cd 0.48171 0.34497 0.04391 0.0
O92 O 0.46944 0.27372 0.08216 0.0
C93 C 0.50948 0.27423 0.09624 0.0
O94 O 0.55181 0.31506 0.08582 0.0
C95 C 0.55142 0.4473 0.97683 0.0
C96 C 0.57943 0.56131 0.1729 0.0
O97 O 0.622 0.58769 0.1445 0.0
O98 O 0.5573 0.51431 0.1649 0.0
O99 O 0.08711 0.59292 0.14512 0.0
Cd100 Cd 0.09598 0.62788 0.26301 0.0
O101 O 0.10305 0.54125 0.20085 0.0
Cd102 Cd 0.12694 0.48662 0.21056 0.0
O103 O 0.18594 0.47435 0.24881 0.0
C104 C 0.22547 0.51439 0.26283 0.0
O105 O 0.22696 0.55671 0.25236 0.0
C106 C 0.09428 0.55631 0.14348 0.0
C107 C 0.00826 0.58427 0.33958 0.0
O108 O 0.0244 0.62683 0.31118 0.0
O109 O 0.03318 0.56217 0.33157 0.0
O110 O 0.48445 0.09203 0.3118 0.0
Cd111 Cd 0.45838 0.10093 0.4297 0.0
O112 O 0.55205 0.10793 0.36752 0.0
Cd113 Cd 0.63057 0.13178 0.37723 0.0
O114 O 0.70182 0.19075 0.41548 0.0
C115 C 0.70131 0.23028 0.42951 0.0
O116 O 0.66048 0.23178 0.41906 0.0
C117 C 0.52822 0.09917 0.31015 0.0
C118 C 0.41419 0.01321 0.50624 0.0
O119 O 0.38781 0.02941 0.47784 0.0
O120 O 0.4612 0.03806 0.49824 0.0
O121 O 0.38266 0.48938 0.47845 0.0
Cd122 Cd 0.34769 0.46331 0.59635 0.0
O123 O 0.43432 0.55698 0.53418 0.0
Cd124 Cd 0.48895 0.63549 0.54388 0.0
O125 O 0.5012 0.70674 0.58214 0.0
C126 C 0.46115 0.7062 0.59626 0.0
O127 O 0.41883 0.66536 0.58588 0.0
C128 C 0.41927 0.53315 0.47681 0.0
C129 C 0.39125 0.41914 0.6729 0.0
O130 O 0.34868 0.39276 0.6445 0.0
O131 O 0.41339 0.46614 0.6649 0.0
loop_
_geom_bond_atom_site_label_1
_geom_bond_atom_site_label_2
_geom_bond_distance
_geom_bond_site_symmetry_2
_ccdc_geom_bond_type
O0 Cd1 2.300 . S
O0 C7 1.275 . S
Cd1 O0 2.300 . S
Cd1 O9 2.381 . S
Cd1 O10 2.378 . S
O2 Cd3 2.385 . S
O2 C7 1.255 . S
Cd3 O2 2.385 . S
Cd3 O4 2.317 . S
O4 Cd3 2.317 . S
O4 C5 1.232 . S
C5 O4 1.232 . S
C5 O6 1.218 . S
O6 C5 1.218 . S
C7 O0 1.275 . S
C7 O2 1.255 . S
C8 O9 1.258 . S
C8 O10 1.256 . S
O9 Cd1 2.381 . S
O9 C8 1.258 . S
O10 Cd1 2.378 . S
O10 C8 1.256 . S
O11 Cd12 2.300 . S
O11 C18 1.275 . S
Cd12 O11 2.300 . S
Cd12 O20 2.381 . S
Cd12 O21 2.378 . S
O13 Cd14 2.385 . S
O13 C18 1.255 . S
Cd14 O13 2.385 . S
Cd14 O15 2.317 . S
O15 Cd14 2.317 . S
O15 C16 1.232 . S
C16 O15 1.232 . S
C16 O17 1.218 . S
O17 C16 1.218 . S
C18 O11 1.275 . S
C18 O13 1.255 . S
C19 O20 1.258 . S
C19 O21 1.256 . S
O20 Cd12 2.381 . S
O20 C19 1.258 . S
O21 Cd12 2.378 . S
O21 C19 1.256 . S
O22 Cd23 2.300 . S
O22 C29 1.275 . S
Cd23 O22 2.300 . S
Cd23 O31 2.381 . S
Cd23 O32 2.378 . S
O24 Cd25 2.385 . S
O24 C29 1.255 . S
Cd25 O24 2.385 . S
Cd25 O26 2.317 . S
O26 Cd25 2.317 . S
O26 C27 1.232 . S
C27 O26 1.232 . S
C27 O28 1.218 . S
O28 C27 1.218 . S
C29 O22 1.275 . S
C29 O24 1.255 . S
C30 O31 1.258 . S
C30 O32 1.256 . S
O31 Cd23 2.381 . S
O31 C30 1.258 . S
O32 Cd23 2.378 . S
O32 C30 1.256 . S
O33 Cd34 2.300 . S
O33 C40 1.275 . S
Cd34 O33 2.300 . S
Cd34 O42 2.381 . S
Cd34 O43 2.378 . S
O35 Cd36 2.385 . S
O35 C40 1.255 . S
Cd36 O35 2.385 . S
Cd36 O37 2.317 . S
O37 Cd36 2.317 . S
O37 C38 1.232 . S
C38 O37 1.232 . S
C38 O39 1.218 . S
O39 C38 1.218 . S
C40 O33 1.275 . S
C40 O35 1.255 . S
C41 O42 1.258 . S
C41 O43 1.256 . S
O42 Cd34 2.381 . S
O42 C41 1.258 . S
O43 Cd34 2.378 . S
O43 C41 1.256 . S
O44 Cd45 2.300 . S
O44 C51 1.275 . S
Cd45 O44 2.300 . S
Cd45 O53 2.381 . S
Cd45 O54 2.378 . S
O46 Cd47 2.385 . S
O46 C51 1.255 . S
Cd47 O46 2.385 . S
Cd47 O48 2.317 . S
O48 Cd47 2.317 . S
O48 C49 1.232 . S
C49 O48 1.232 . S
C49 O50 1.218 . S
O50 C49 1.218 . S
C51 O44 1.275 . S
C51 O46 1.255 . S
C52 O53 1.258 . S
C52 O54 1.256 . S
O53 Cd45 2.381 . S
O53 C52 1.258 . S
O54 Cd45 2.378 . S
O54 C52 1.256 . S
O55 Cd56 2.300 1_554 S
O55 C62 1.275 . S
Cd56 O55 2.300 1_556 S
Cd56 O64 2.381 . S
Cd56 O65 2.378 . S
O57 Cd58 2.385 . S
O57 C62 1.255 . S
Cd58 O57 2.385 . S
Cd58 O59 2.317 1_554 S
O59 Cd58 2.317 1_556 S
O59 C60 1.232 . S
C60 O59 1.232 . S
C60 O61 1.218 . S
O61 C60 1.218 . S
C62 O55 1.275 . S
C62 O57 1.255 . S
C63 O64 1.258 . S
C63 O65 1.256 . S
O64 Cd56 2.381 . S
O64 C63 1.258 . S
O65 Cd56 2.378 . S
O65 C63 1.256 . S
O66 Cd67 2.300 . S
O66 C73 1.275 . S
Cd67 O66 2.300 . S
Cd67 O75 2.381 . S
Cd67 O76 2.378 . S
O68 Cd69 2.385 . S
O68 C73 1.255 . S
Cd69 O68 2.385 . S
Cd69 O70 2.317 . S
O70 Cd69 2.317 . S
O70 C71 1.232 . S
C71 O70 1.232 . S
C71 O72 1.218 . S
O72 C71 1.218 . S
C73 O66 1.275 . S
C73 O68 1.255 . S
C74 O75 1.258 . S
C74 O76 1.256 . S
O75 Cd67 2.381 . S
O75 C74 1.258 . S
O76 Cd67 2.378 . S
O76 C74 1.256 . S
O77 Cd78 2.300 . S
O77 C84 1.275 . S
Cd78 O77 2.300 . S
Cd78 O86 2.381 . S
Cd78 O87 2.378 . S
O79 Cd80 2.385 . S
O79 C84 1.255 . S
Cd80 O79 2.385 . S
Cd80 O81 2.317 . S
O81 Cd80 2.317 . S
O81 C82 1.232 . S
C82 O81 1.232 . S
C82 O83 1.218 . S
O83 C82 1.218 . S
C84 O77 1.275 . S
C84 O79 1.255 . S
C85 O86 1.258 . S
C85 O87 1.256 . S
O86 Cd78 2.381 . S
O86 C85 1.258 . S
O87 Cd78 2.378 . S
O87 C85 1.256 . S
O88 Cd89 2.300 1_556 S
O88 C95 1.275 . S
Cd89 O88 2.300 1_554 S
Cd89 O97 2.381 . S
Cd89 O98 2.378 . S
O90 Cd91 2.385 . S
O90 C95 1.255 . S
Cd91 O90 2.385 . S
Cd91 O92 2.317 1_556 S
O92 Cd91 2.317 1_554 S
O92 C93 1.232 . S
C93 O92 1.232 . S
C93 O94 1.218 . S
O94 C93 1.218 . S
C95 O88 1.275 . S
C95 O90 1.255 . S
C96 O97 1.258 . S
C96 O98 1.256 . S
O97 Cd89 2.381 . S
O97 C96 1.258 . S
O98 Cd89 2.378 . S
O98 C96 1.256 . S
O99 Cd100 2.300 . S
O99 C106 1.275 . S
Cd100 O99 2.300 . S
Cd100 O108 2.381 . S
Cd100 O109 2.378 . S
O101 Cd102 2.385 . S
O101 C106 1.255 . S
Cd102 O101 2.385 . S
Cd102 O103 2.317 . S
O103 Cd102 2.317 . S
O103 C104 1.232 . S
C104 O103 1.232 . S
C104 O105 1.218 . S
O105 C104 1.218 . S
C106 O99 1.275 . S
C106 O101 1.255 . S
C107 O108 1.258 . S
C107 O109 1.256 . S
O108 Cd100 2.381 . S
O108 C107 1.258 . S
O109 Cd100 2.378 . S
O109 C107 1.256 . S
O110 Cd111 2.300 . S
O110 C117 1.275 . S
Cd111 O110 2.300 . S
Cd111 O119 2.381 . S
Cd111 O120 2.378 . S
O112 Cd113 2.385 . S
O112 C117 1.255 . S
Cd113 O112 2.385 . S
Cd113 O114 2.317 . S
O114 Cd113 2.317 . S
O114 C115 1.232 . S
C115 O114 1.232 . S
C115 O116 1.218 . S
O116 C115 1.218 . S
C117 O110 1.275 . S
C117 O112 1.255 . S
C118 O119 1.258 . S
C118 O120 1.256 . S
O119 Cd111 2.381 . S
O119 C118 1.258 . S
O120 Cd111 2.378 . S
O120 C118 1.256 . S
O121 Cd122 2.300 . S
O121 C128 1.275 . S
Cd122 O121 2.300 . S
Cd122 O130 2.381 . S
Cd122 O131 2.378 . S
O123 Cd124 2.385 . S
O123 C128 1.255 . S
Cd124 O123 2.385 . S
Cd124 O125 2.317 . S
O125 Cd124 2.317 . S
O125 C126 1.232 . S
C126 O125 1.232 . S
C126 O127 1.218 . S
O127 C126 1.218 . S
C128 O121 1.275 . S
C128 O123 1.255 . S
C129 O130 1.258 . S
C129 O131 1.256 . S
O130 Cd122 2.381 . S
O130 C129 1.258 . S
O131 Cd122 2.378 . S
O131 C129 1.256 . S
C7 C117 1.597 . S
C128 C18 1.598 . S
C73 C29 1.597 . S
C40 C84 1.597 . S
C95 C51 1.598 . S
C62 C106 1.598 . S
C5 C93 0.903 . S
C104 C16 0.902 . S
C27 C115 0.903 . S
C126 C38 0.903 . S
C49 C71 0.903 . S
C60 C82 0.903 . S
C8 C85 1.578 1_544 S
C96 C19 1.579 . S
C107 C30 1.578 1_455 S
C118 C41 1.578 1_545 S
C52 C129 1.578 . S
C74 C63 1.578 1_655 S
