# Generated by pormake.
# Topology pcu, (6)-cn, num edge types: 1
# Building blocks:
#     Node 0, Type 0, BuildingBlock: VOLQOD_clean_sbu_1, # of connection points: 6
#     Edge 1, Type (0, 0), BuildingBlock: MIFKUJ_clean_linker_0, # of connection points: 2
#     Edge 2, Type (0, 0), BuildingBlock: MIFKUJ_clean_linker_0, # of connection points: 2
#     Edge 3, Type (0, 0), BuildingBlock: MIFKUJ_clean_linker_0, # of connection points: 2
# Relax obj value: 0.082
# Max RMSD: 0.143
# Mean RMSD: 0.143
data_MOF--net-pcu--node1-VOLQOD_clean_sbu_1--edge1-MIFKUJ_clean_linker_0
_symmetry_space_group_name_H-M    P1
_symmetry_Int_Tables_number       1
_symmetry_cell_setting            triclinic
loop_
_symmetry_equiv_pos_as_xyz
'x, y, z'
_cell_length_a     21.754544
_cell_length_b     21.673861
_cell_length_c     21.807436
_cell_angle_alpha  90.505392
_cell_angle_beta   90.657557
_cell_angle_gamma 91.178751
loop_
_atom_site_label
_atom_site_type_symbol
_atom_site_fract_x
_atom_site_fract_y
_atom_site_fract_z
_atom_type_partial_charge
O0 O 0.02759 0.01943 0.137 0.0
Zn1 Zn 0.04154 0.03685 0.04774 0.0
O2 O -0.01172 0.98541 -0.00553 0.0
Zn3 Zn 0.0381 0.93295 0.94249 0.0
Zn4 Zn 0.93485 0.93467 0.04571 0.0
Zn5 Zn 0.93831 0.03706 0.94168 0.0
O6 O 0.02336 0.94827 0.85285 0.0
O7 O 0.95273 0.0205 0.85241 0.0
O8 O 0.13081 0.02227 0.03048 0.0
O9 O 0.12788 0.94883 0.9588 0.0
O10 O 0.01937 0.84345 0.95772 0.0
O11 O 0.949 0.84477 0.03078 0.0
O12 O 0.84577 0.95119 0.02881 0.0
O13 O 0.02519 0.12674 0.03489 0.0
O14 O 0.8483 0.02263 0.95654 0.0
O15 O 0.95761 0.12645 0.95754 0.0
C16 C -0.01065 0.98468 0.16475 0.0
C17 C -0.01199 0.98426 0.824 0.0
C18 C 0.98346 0.8155 -0.00562 0.0
C19 C 0.15799 -0.01435 -0.00573 0.0
C20 C 0.81839 -0.01268 0.99232 0.0
C21 C -0.00825 0.15512 -0.00345 0.0
O22 O 0.95073 0.95064 0.13523 0.0
H23 H 0.90936 0.92294 0.23939 0.0
H24 H 0.90832 0.92326 0.35125 0.0
H25 H 0.06889 0.04348 0.35579 0.0
H26 H 0.06968 0.04446 0.2438 0.0
H27 H -0.01197 0.88545 0.43459 0.0
H28 H 0.06036 0.14093 0.47826 0.0
H29 H 0.05225 0.24183 0.42755 0.0
H30 H 0.88954 0.17799 0.33118 0.0
H31 H 0.89619 0.07707 0.38191 0.0
H32 H 0.06919 0.92827 0.74762 0.0
H33 H 0.06895 0.92855 0.63564 0.0
H34 H 0.90605 0.03884 0.63496 0.0
H35 H 0.90686 0.04021 0.7469 0.0
H36 H 0.98354 0.08125 0.55396 0.0
H37 H 0.89943 0.88207 0.60399 0.0
H38 H 0.8968 0.78071 0.65453 0.0
H39 H 0.06259 0.73089 0.56308 0.0
H40 H 0.06665 0.83231 0.51261 0.0
C41 C 0.9445 0.94952 0.26408 0.0
C42 C -0.01057 0.98396 0.23259 0.0
C43 C 0.94391 0.94947 0.32805 0.0
C44 C -0.01185 0.98383 0.36179 0.0
C45 C 0.03372 0.01742 0.3306 0.0
C46 C 0.03419 0.01776 0.26657 0.0
C47 C -0.01367 0.98464 0.42966 0.0
C48 C -0.01287 0.92825 0.46073 0.0
C49 C 0.98407 0.04045 0.46364 0.0
C50 C 0.9792 0.10125 0.43342 0.0
C51 C 0.02274 0.14853 0.44641 0.0
C52 C 0.01841 0.2057 0.41764 0.0
C53 C 0.97054 0.21624 0.37601 0.0
C54 C 0.92674 0.16969 0.36324 0.0
C55 C 0.93082 0.11247 0.39193 0.0
C56 C 0.03325 0.95254 0.72367 0.0
C57 C -0.01209 0.98405 0.75619 0.0
C58 C 0.03308 0.95248 0.65964 0.0
C59 C -0.01297 0.98307 0.62694 0.0
C60 C 0.94203 0.01496 0.65928 0.0
C61 C 0.94249 0.01554 0.72328 0.0
C62 C -0.01423 0.98205 0.55899 0.0
C63 C 0.98457 0.03843 0.52788 0.0
C64 C -0.01386 0.92615 0.52494 0.0
C65 C 0.98363 0.865 0.55497 0.0
C66 C 0.93555 0.84966 0.595 0.0
C67 C 0.93377 0.79217 0.62357 0.0
C68 C 0.97958 0.74945 0.61214 0.0
C69 C 0.02718 0.76406 0.57195 0.0
C70 C 0.02921 0.82151 0.54331 0.0
H71 H 0.97812 0.70497 0.63431 0.0
H72 H 0.9673 0.2605 0.35375 0.0
H73 H 0.2387 0.04764 0.07123 0.0
H74 H 0.35091 0.04825 0.068 0.0
H75 H 0.34318 0.92665 0.91024 0.0
H76 H 0.23114 0.9246 0.9139 0.0
H77 H 0.42737 0.88989 0.98754 0.0
H78 H 0.37559 0.08126 0.89548 0.0
H79 H 0.32581 0.18213 0.88769 0.0
H80 H 0.42444 0.24664 0.04825 0.0
H81 H 0.4742 0.14581 0.0575 0.0
H82 H 0.74371 0.04482 0.90992 0.0
H83 H 0.63146 0.04417 0.90706 0.0
H84 H 0.62713 0.93283 0.07009 0.0
H85 H 0.7393 0.93189 0.07247 0.0
H86 H 0.54889 0.08602 0.98254 0.0
H87 H 0.50434 0.83522 0.06482 0.0
H88 H 0.55395 0.73395 0.06019 0.0
H89 H 0.64756 0.78753 0.89614 0.0
H90 H 0.59789 0.88874 0.89932 0.0
C91 C 0.26084 0.02103 0.03582 0.0
C92 C 0.22593 -0.01383 0.99274 0.0
C93 C 0.32498 0.02163 0.0339 0.0
C94 C 0.35534 -0.01194 0.98844 0.0
C95 C 0.32066 0.95286 0.94572 0.0
C96 C 0.25659 0.95187 0.94784 0.0
C97 C 0.42333 -0.01089 0.98566 0.0
C98 C 0.45394 0.93277 0.98646 0.0
C99 C 0.45791 0.04503 0.98296 0.0
C100 C 0.42817 0.10578 0.97751 0.0
C101 C 0.3863 0.11679 0.9294 0.0
C102 C 0.35815 0.17399 0.92468 0.0
C103 C 0.37183 0.22071 0.96754 0.0
C104 C 0.41382 0.21038 0.01513 0.0
C105 C 0.44205 0.15323 0.02011 0.0
C106 C 0.71891 0.02012 0.94517 0.0
C107 C 0.75046 -0.01194 0.99122 0.0
C108 C 0.65476 0.01995 0.94354 0.0
C109 C 0.62097 -0.01213 0.98792 0.0
C110 C 0.65231 0.9569 0.03467 0.0
C111 C 0.71645 0.95658 0.03607 0.0
C112 C 0.55291 -0.01318 0.98532 0.0
C113 C 0.52229 0.04315 0.98364 0.0
C114 C 0.51827 0.93083 0.98545 0.0
C115 C 0.54784 0.86978 0.98272 0.0
C116 C 0.53533 0.82528 0.02765 0.0
C117 C 0.56349 0.76791 0.02529 0.0
C118 C 0.60404 0.7544 0.97802 0.0
C119 C 0.61633 0.79814 0.93287 0.0
C120 C 0.58825 0.85555 0.93497 0.0
H121 H 0.62583 0.70998 0.97631 0.0
H122 H 0.35 0.26496 0.96379 0.0
H123 H 0.95014 0.74088 0.08882 0.0
H124 H 0.95085 0.62786 0.09084 0.0
H125 H 0.01321 0.62401 0.90392 0.0
H126 H 0.01419 0.73706 0.90185 0.0
H127 H 0.90243 0.54103 0.94246 0.0
H128 H 0.11586 0.60026 0.99081 0.0
H129 H 0.19494 0.65769 0.05135 0.0
H130 H 0.13107 0.57132 0.21593 0.0
H131 H 0.05097 0.51407 0.15639 0.0
H132 H 0.97929 0.23145 0.89944 0.0
H133 H 0.97759 0.34403 0.90109 0.0
H134 H -0.00152 0.34363 0.09835 0.0
H135 H 0.00435 0.231 0.09616 0.0
H136 H 0.06343 0.43114 0.05889 0.0
H137 H 0.85546 0.36915 0.02001 0.0
H138 H 0.76878 0.31372 0.96882 0.0
H139 H 0.80933 0.40586 0.80009 0.0
H140 H 0.89681 0.46125 0.85006 0.0
C141 C 0.96383 0.71593 0.04811 0.0
C142 C 0.98226 0.74758 -0.0048 0.0
C143 C 0.9643 0.6516 0.04943 0.0
C144 C 0.98215 0.6182 -0.00244 0.0
C145 C -0.00067 0.64944 0.94428 0.0
C146 C 0.0001 0.71379 0.94331 0.0
C147 C 0.98364 0.55044 -0.00085 0.0
C148 C 0.93787 0.51664 0.96723 0.0
C149 C 0.02853 0.51947 0.03367 0.0
C150 C 0.07703 0.55345 0.06927 0.0
C151 C 0.11831 0.59398 0.03998 0.0
C152 C 0.1634 0.62639 0.07409 0.0
C153 C 0.16792 0.6183 0.13748 0.0
C154 C 0.12747 0.57762 0.16685 0.0
C155 C 0.08226 0.54515 0.13294 0.0
C156 C 0.98366 0.25556 0.94306 0.0
C157 C -0.00833 0.22288 -0.0023 0.0
C158 C 0.9822 0.31982 0.94408 0.0
C159 C -0.0137 0.35238 2e-05 0.0
C160 C -0.00497 0.3196 0.05464 0.0
C161 C -0.00169 0.25536 0.05341 0.0
C162 C 0.98236 0.4206 0.00137 0.0
C163 C 0.0276 0.45487 0.03408 0.0
C164 C 0.93578 0.45201 0.9689 0.0
C165 C 0.88305 0.41895 0.93868 0.0
C166 C 0.84616 0.37728 0.97188 0.0
C167 C 0.79684 0.34591 0.9431 0.0
C168 C 0.78365 0.35615 0.88121 0.0
C169 C 0.81965 0.39792 0.84801 0.0
C170 C 0.86907 0.42937 0.87656 0.0
H171 H 0.74545 0.33182 0.859 0.0
H172 H 0.20285 0.64343 0.16381 0.0
loop_
_geom_bond_atom_site_label_1
_geom_bond_atom_site_label_2
_geom_bond_distance
_geom_bond_site_symmetry_2
_ccdc_geom_bond_type
O0 Zn1 1.953 . S
O0 C16 1.225 . S
Zn1 O0 1.953 . S
Zn1 O2 1.941 1_454 S
Zn1 O8 1.919 . S
Zn1 O13 1.924 . S
O2 Zn1 1.941 1_656 S
O2 Zn3 1.931 1_645 S
O2 Zn4 1.942 1_546 S
O2 Zn5 1.953 . S
Zn3 O2 1.931 1_465 S
Zn3 O6 1.933 . S
Zn3 O9 1.941 . S
Zn3 O10 1.965 . S
Zn4 O2 1.942 1_564 S
Zn4 O11 1.938 . S
Zn4 O12 1.906 . S
Zn4 O22 1.953 . S
Zn5 O2 1.953 . S
Zn5 O7 1.932 . S
Zn5 O14 1.977 . S
Zn5 O15 1.910 . S
O6 Zn3 1.933 . S
O6 C17 1.230 . S
O7 Zn5 1.932 . S
O7 C17 1.303 1_645 S
O8 Zn1 1.919 . S
O8 C19 1.253 1_544 S
O9 Zn3 1.941 . S
O9 C19 1.283 . S
O10 Zn3 1.965 . S
O10 C18 1.303 1_456 S
O11 Zn4 1.938 . S
O11 C18 1.247 . S
O12 Zn4 1.906 . S
O12 C20 1.304 1_564 S
O13 Zn1 1.924 . S
O13 C21 1.311 . S
O14 Zn5 1.977 . S
O14 C20 1.272 . S
O15 Zn5 1.910 . S
O15 C21 1.231 1_656 S
C16 O0 1.225 . S
C16 O22 1.298 1_445 S
C17 O6 1.230 . S
C17 O7 1.303 1_465 S
C18 O10 1.303 1_654 S
C18 O11 1.247 . S
C19 O8 1.253 1_566 S
C19 O9 1.283 . S
C20 O12 1.304 1_546 S
C20 O14 1.272 . S
C21 O13 1.311 . S
C21 O15 1.231 1_454 S
O22 Zn4 1.953 . S
O22 C16 1.298 1_665 S
H23 C41 0.951 . S
H24 C43 0.951 . S
H25 C45 0.950 . S
H26 C46 0.950 . S
H27 C48 0.950 . S
H28 C51 0.950 . S
H29 C52 0.950 . S
H30 C54 0.950 . S
H31 C55 0.950 . S
H32 C56 0.951 . S
H33 C58 0.951 . S
H34 C60 0.950 . S
H35 C61 0.950 . S
H36 C63 0.950 . S
H37 C66 0.950 . S
H38 C67 0.950 . S
H39 C69 0.950 . S
H40 C70 0.950 . S
C41 H23 0.951 . S
C41 C42 1.366 1_655 S
C41 C43 1.388 . S
C42 C41 1.366 1_455 S
C42 C46 1.385 1_545 S
C43 H24 0.951 . S
C43 C41 1.388 . S
C43 C44 1.366 1_655 S
C44 C43 1.366 1_455 S
C44 C45 1.414 1_545 S
C44 C47 1.499 . S
C45 H25 0.950 . S
C45 C44 1.414 1_565 S
C45 C46 1.374 . S
C46 H26 0.950 . S
C46 C42 1.385 1_565 S
C46 C45 1.374 . S
C47 C44 1.499 . S
C47 C48 1.373 1_545 S
C47 C49 1.389 1_455 S
C48 H27 0.950 . S
C48 C47 1.373 1_565 S
C48 C64 1.377 . S
C49 C47 1.389 1_655 S
C49 C50 1.524 . S
C49 C63 1.377 . S
C50 C49 1.524 . S
C50 C51 1.397 1_655 S
C50 C55 1.363 . S
C51 H28 0.950 . S
C51 C50 1.397 1_455 S
C51 C52 1.334 . S
C52 H29 0.950 . S
C52 C51 1.334 . S
C52 C53 1.287 1_455 S
C53 C52 1.287 1_655 S
C53 C54 1.524 . S
C53 H72 0.913 . S
C54 H30 0.950 . S
C54 C53 1.524 . S
C54 C55 1.415 . S
C55 H31 0.950 . S
C55 C50 1.363 . S
C55 C54 1.415 . S
C56 H32 0.951 . S
C56 C57 1.366 1_565 S
C56 C58 1.388 . S
C57 C56 1.366 1_545 S
C57 C61 1.385 1_455 S
C58 H33 0.951 . S
C58 C56 1.388 . S
C58 C59 1.371 . S
C59 C58 1.371 . S
C59 C60 1.408 1_465 S
C59 C62 1.499 1_455 S
C60 H34 0.950 . S
C60 C59 1.408 1_645 S
C60 C61 1.374 . S
C61 H35 0.950 . S
C61 C57 1.385 1_655 S
C61 C60 1.374 . S
C62 C59 1.499 1_655 S
C62 C63 1.361 1_565 S
C62 C64 1.400 1_655 S
C63 H36 0.950 . S
C63 C49 1.377 . S
C63 C62 1.361 1_545 S
C64 C48 1.377 . S
C64 C62 1.400 1_455 S
C64 C65 1.524 . S
C65 C64 1.524 . S
C65 C66 1.397 1_455 S
C65 C70 1.363 . S
C66 H37 0.950 . S
C66 C65 1.397 1_655 S
C66 C67 1.334 . S
C67 H38 0.950 . S
C67 C66 1.334 . S
C67 C68 1.287 1_655 S
C68 C67 1.287 1_455 S
C68 C69 1.524 . S
C68 H71 0.999 . S
C69 H39 0.950 . S
C69 C68 1.524 . S
C69 C70 1.415 . S
C70 H40 0.950 . S
C70 C65 1.363 . S
C70 C69 1.415 . S
H71 C68 0.999 . S
H72 C53 0.913 . S
H73 C91 0.951 . S
H74 C93 0.951 . S
H75 C95 0.950 . S
H76 C96 0.950 . S
H77 C98 0.950 . S
H78 C101 0.950 . S
H79 C102 0.950 . S
H80 C104 0.949 1_554 S
H81 C105 0.950 1_554 S
H82 C106 0.951 . S
H83 C108 0.951 . S
H84 C110 0.950 . S
H85 C111 0.950 . S
H86 C113 0.950 . S
H87 C116 0.950 . S
H88 C117 0.950 . S
H89 C119 0.950 . S
H90 C120 0.950 . S
C91 H73 0.951 . S
C91 C92 1.366 1_544 S
C91 C93 1.388 . S
C92 C91 1.366 1_566 S
C92 C96 1.385 . S
C93 H74 0.951 . S
C93 C91 1.388 . S
C93 C94 1.366 1_544 S
C94 C93 1.366 1_566 S
C94 C95 1.414 . S
C94 C97 1.499 . S
C95 H75 0.950 . S
C95 C94 1.414 . S
C95 C96 1.374 . S
C96 H76 0.950 . S
C96 C92 1.385 . S
C96 C95 1.374 . S
C97 C94 1.499 . S
C97 C98 1.373 . S
C97 C99 1.389 1_565 S
C98 H77 0.950 . S
C98 C97 1.373 . S
C98 C114 1.377 . S
C99 C97 1.389 1_545 S
C99 C100 1.524 . S
C99 C113 1.377 . S
C100 C99 1.524 . S
C100 C101 1.397 . S
C100 C105 1.363 . S
C101 H78 0.950 . S
C101 C100 1.397 . S
C101 C102 1.334 . S
C102 H79 0.950 . S
C102 C101 1.334 . S
C102 C103 1.287 . S
C103 C102 1.287 . S
C103 C104 1.524 . S
C103 H122 0.913 . S
C104 H80 0.949 1_556 S
C104 C103 1.524 . S
C104 C105 1.415 . S
C105 H81 0.950 1_556 S
C105 C100 1.363 . S
C105 C104 1.415 . S
C106 H82 0.951 . S
C106 C107 1.366 . S
C106 C108 1.388 . S
C107 C106 1.366 . S
C107 C111 1.385 1_566 S
C108 H83 0.951 . S
C108 C106 1.388 . S
C108 C109 1.366 . S
C109 C108 1.366 . S
C109 C110 1.414 1_566 S
C109 C112 1.499 . S
C110 H84 0.950 . S
C110 C109 1.414 1_544 S
C110 C111 1.374 . S
C111 H85 0.950 . S
C111 C107 1.385 1_544 S
C111 C110 1.374 . S
C112 C109 1.499 . S
C112 C113 1.373 1_565 S
C112 C114 1.389 . S
C113 H86 0.950 . S
C113 C99 1.377 . S
C113 C112 1.373 1_545 S
C114 C98 1.377 . S
C114 C112 1.389 . S
C114 C115 1.524 . S
C115 C114 1.524 . S
C115 C116 1.397 1_556 S
C115 C120 1.363 . S
C116 H87 0.950 . S
C116 C115 1.397 1_554 S
C116 C117 1.334 . S
C117 H88 0.950 . S
C117 C116 1.334 . S
C117 C118 1.287 . S
C118 C117 1.287 . S
C118 C119 1.524 1_554 S
C118 H121 0.999 . S
C119 H89 0.950 . S
C119 C118 1.524 1_556 S
C119 C120 1.415 . S
C120 H90 0.950 . S
C120 C115 1.363 . S
C120 C119 1.415 . S
H121 C118 0.999 . S
H122 C103 0.913 . S
H123 C141 0.951 . S
H124 C143 0.951 . S
H125 C145 0.950 . S
H126 C146 0.950 . S
H127 C148 0.950 . S
H128 C151 0.950 . S
H129 C152 0.950 . S
H130 C154 0.950 1_655 S
H131 C155 0.950 . S
H132 C156 0.951 . S
H133 C158 0.951 . S
H134 C160 0.950 . S
H135 C161 0.950 . S
H136 C163 0.950 . S
H137 C166 0.950 . S
H138 C167 0.950 . S
H139 C169 0.950 1_455 S
H140 C170 0.950 . S
C141 H123 0.951 . S
C141 C142 1.366 1_655 S
C141 C143 1.388 . S
C142 C141 1.366 1_455 S
C142 C146 1.385 1_554 S
C143 H124 0.951 . S
C143 C141 1.388 . S
C143 C144 1.366 1_655 S
C144 C143 1.366 1_455 S
C144 C145 1.414 1_554 S
C144 C147 1.499 . S
C145 H125 0.950 . S
C145 C144 1.414 1_556 S
C145 C146 1.374 . S
C146 H126 0.950 . S
C146 C142 1.385 1_556 S
C146 C145 1.374 . S
C147 C144 1.499 . S
C147 C148 1.373 1_454 S
C147 C149 1.389 . S
C148 H127 0.950 . S
C148 C147 1.373 1_656 S
C148 C164 1.377 . S
C149 C147 1.389 . S
C149 C150 1.524 . S
C149 C163 1.377 . S
C150 C149 1.524 . S
C150 C151 1.397 . S
C150 C155 1.363 1_455 S
C151 H128 0.950 . S
C151 C150 1.397 . S
C151 C152 1.334 . S
C152 H129 0.950 . S
C152 C151 1.334 . S
C152 C153 1.287 . S
C153 C152 1.287 . S
C153 C154 1.524 . S
C153 H172 0.913 . S
C154 H130 0.950 1_455 S
C154 C153 1.524 . S
C154 C155 1.415 1_455 S
C155 H131 0.950 . S
C155 C150 1.363 1_655 S
C155 C154 1.415 1_655 S
C156 H132 0.951 . S
C156 C157 1.366 1_556 S
C156 C158 1.388 . S
C157 C156 1.366 1_554 S
C157 C161 1.385 1_455 S
C158 H133 0.951 . S
C158 C156 1.388 . S
C158 C159 1.366 1_456 S
C159 C158 1.366 1_654 S
C159 C160 1.414 . S
C159 C162 1.499 . S
C160 H134 0.950 . S
C160 C159 1.414 . S
C160 C161 1.374 . S
C161 H135 0.950 . S
C161 C157 1.385 1_655 S
C161 C160 1.374 . S
C162 C159 1.499 . S
C162 C163 1.373 1_655 S
C162 C164 1.389 1_554 S
C163 H136 0.950 . S
C163 C149 1.377 . S
C163 C162 1.373 1_455 S
C164 C148 1.377 . S
C164 C162 1.389 1_556 S
C164 C165 1.524 . S
C165 C164 1.524 . S
C165 C166 1.397 . S
C165 C170 1.363 1_655 S
C166 H137 0.950 . S
C166 C165 1.397 . S
C166 C167 1.334 . S
C167 H138 0.950 . S
C167 C166 1.334 . S
C167 C168 1.287 . S
C168 C167 1.287 . S
C168 C169 1.524 . S
C168 H171 0.999 . S
C169 H139 0.950 1_655 S
C169 C168 1.524 . S
C169 C170 1.415 1_655 S
C170 H140 0.950 . S
C170 C165 1.363 1_455 S
C170 C169 1.415 1_455 S
H171 C168 0.999 . S
H172 C153 0.913 . S
C42 C16 1.499 . S
C57 C17 1.499 1_545 S
C92 C19 1.416 . S
C107 C20 1.426 1_565 S
C142 C18 1.411 1_455 S
C157 C21 1.418 . S
