# Generated by pormake.
# Topology pcu, (6)-cn, num edge types: 1
# Building blocks:
#     Node 0, Type 0, BuildingBlock: JUFBIX_clean_sbu_0, # of connection points: 6
#     Edge 1, Type (0, 0), BuildingBlock: UVAHIK_clean_linker_0, # of connection points: 2
#     Edge 2, Type (0, 0), BuildingBlock: UVAHIK_clean_linker_0, # of connection points: 2
#     Edge 3, Type (0, 0), BuildingBlock: UVAHIK_clean_linker_0, # of connection points: 2
# Relax obj value: 0.000
# Max RMSD: 0.000
# Mean RMSD: 0.000
data_MOF--net-pcu--node1-JUFBIX_clean_sbu_0--edge1-UVAHIK_clean_linker_0
_symmetry_space_group_name_H-M    P1
_symmetry_Int_Tables_number       1
_symmetry_cell_setting            triclinic
loop_
_symmetry_equiv_pos_as_xyz
'x, y, z'
_cell_length_a     19.487494
_cell_length_b     24.198932
_cell_length_c     19.493346
_cell_angle_alpha  82.059707
_cell_angle_beta   92.138211
_cell_angle_gamma 101.29309
loop_
_atom_site_label
_atom_site_type_symbol
_atom_site_fract_x
_atom_site_fract_y
_atom_site_fract_z
_atom_type_partial_charge
Co0 Co 0.99229 0.97959 0.01026 0.0
C1 C 0.00787 0.03222 0.13138 0.0
Co2 Co 0.01617 0.07355 0.99361 0.0
C3 C 0.98792 0.85859 0.00637 0.0
C4 C 0.91429 0.87533 0.07588 0.0
N5 N 0.96499 0.90137 0.03062 0.0
N6 N 0.95297 0.80695 0.03457 0.0
C7 C 0.90676 0.81757 0.07837 0.0
H8 H 0.02881 0.86526 0.96833 0.0
H9 H 0.88475 0.89707 0.10556 0.0
C10 C 1.00059 1.02092 0.87249 0.0
N11 N 0.04348 0.15178 0.97325 0.0
C12 C 0.02055 0.19455 0.9975 0.0
C13 C 0.09417 0.17781 0.92799 0.0
N14 N 0.05549 0.24619 0.9693 0.0
C15 C 0.1017 0.23557 0.9255 0.0
C16 C 0.13304 1.02007 0.00609 0.0
O17 O 0.98935 0.97459 0.91367 0.0
O18 O 0.01284 0.06781 0.89728 0.0
O19 O 0.11183 0.06698 0.99731 0.0
O20 O 0.08832 0.9738 0.01357 0.0
O21 O 0.01912 0.07855 0.0902 0.0
H22 H 0.12371 0.15607 0.89832 0.0
H23 H 0.97965 0.18788 0.03554 0.0
O24 O 0.99562 0.98534 0.1066 0.0
O25 O 0.89663 0.98616 0.00656 0.0
O26 O 0.92015 0.07934 0.9903 0.0
C27 C 0.87543 0.03307 0.99779 0.0
H28 H 0.87087 0.78584 0.111 0.0
H29 H 0.13759 0.2673 0.89287 0.0
C30 C 0.99588 0.98009 0.25163 0.0
C31 C 0.00827 0.03201 0.20738 0.0
C32 C 0.99546 0.97914 0.32335 0.0
C33 C 0.97334 0.06622 0.45882 0.0
H34 H 0.06042 0.9565 0.57741 0.0
C35 C 0.01258 0.07305 0.75225 0.0
C36 C 1.0002 1.02113 0.79649 0.0
C37 C 0.01301 0.07401 0.68053 0.0
C38 C 0.03512 0.98692 0.54506 0.0
H39 H 0.03006 0.12373 0.20393 0.0
H40 H 0.02983 0.12205 0.32961 0.0
H41 H 0.0638 0.95993 0.45195 0.0
H42 H 0.97841 0.92942 0.79994 0.0
H43 H 0.97864 0.93109 0.67426 0.0
H44 H 0.94467 0.09321 0.55193 0.0
C45 C 0.01977 0.08206 0.30854 0.0
C46 C 0.03715 0.98897 0.47314 0.0
C47 C 0.02029 0.08304 0.23659 0.0
C48 C 0.98817 0.9701 0.76729 0.0
C49 C 0.9887 0.97108 0.69533 0.0
C50 C 0.97132 0.06418 0.53073 0.0
C51 C 0.00736 0.03005 0.35272 0.0
C52 C 0.00624 0.02862 0.42917 0.0
C53 C 1.00111 1.02309 0.65115 0.0
C54 C 1.00222 1.02453 0.5747 0.0
H55 H 0.98613 0.93993 0.23092 0.0
H56 H 0.9847 0.93838 0.35578 0.0
H57 H 0.94805 0.09664 0.42646 0.0
H58 H 0.02234 0.11321 0.77295 0.0
H59 H 0.02376 0.11477 0.64809 0.0
C60 C 0.23464 0.96938 0.01423 0.0
C61 C 0.20908 1.02033 0.00646 0.0
C62 C 0.30672 0.97052 0.01331 0.0
C63 C 0.47384 0.06426 0.95532 0.0
H64 H 0.55719 0.95979 0.08583 0.0
C65 C 0.77382 0.08377 0.98964 0.0
C66 C 0.79939 0.03281 0.99741 0.0
C67 C 0.70174 0.08262 0.99056 0.0
C68 C 0.53463 0.98889 0.04856 0.0
H69 H 0.23927 0.11243 0.99219 0.0
H70 H 0.3643 0.11427 0.99137 0.0
H71 H 0.43128 0.95597 0.08745 0.0
H72 H 0.7692 0.94071 0.01168 0.0
H73 H 0.64417 0.93887 0.0125 0.0
H74 H 0.57719 0.09717 0.91643 0.0
C75 C 0.32887 0.07345 0.99714 0.0
C76 C 0.46245 0.98662 0.04945 0.0
C77 C 0.25707 0.07232 0.9981 0.0
C78 C 0.7514 0.98082 0.00577 0.0
C79 C 0.6796 0.97969 0.00673 0.0
C80 C 0.54602 0.06652 0.95442 0.0
C81 C 0.35462 1.02263 0.00447 0.0
C82 C 0.43121 1.02431 0.00288 0.0
C83 C 0.65385 0.03051 0.9994 0.0
C84 C 0.57726 0.02883 1.00099 0.0
H85 H 0.19903 0.92864 0.02058 0.0
H86 H 0.32489 0.93061 0.01844 0.0
H87 H 0.45128 0.09335 0.91804 0.0
H88 H 0.80944 0.1245 0.9833 0.0
H89 H 0.68357 0.12253 0.98543 0.0
C90 C 0.907 0.70475 0.03175 0.0
C91 C 0.96288 0.75157 0.02266 0.0
C92 C 0.91705 0.65022 0.02517 0.0
C93 C 0.03577 0.57161 0.95341 0.0
H94 H 0.94866 0.44746 0.08922 0.0
C95 C 0.10146 0.3484 0.97212 0.0
C96 C 0.04559 0.30157 0.98121 0.0
C97 C 0.09141 0.40292 0.9787 0.0
C98 C 0.9727 0.48153 0.05046 0.0
H99 H 0.07293 0.7779 0.99802 0.0
H100 H 0.09073 0.68237 0.9865 0.0
H101 H 0.93149 0.54375 0.09555 0.0
H102 H 0.93554 0.27524 0.00585 0.0
H103 H 0.91773 0.37077 0.01737 0.0
H104 H 0.07698 0.50939 0.90832 0.0
C105 C 0.03889 0.68806 0.99827 0.0
C106 C 0.96288 0.53674 0.05405 0.0
C107 C 0.02875 0.7428 0.00478 0.0
C108 C 0.97972 0.31034 0.99909 0.0
C109 C 0.96958 0.36508 0.0056 0.0
C110 C 0.04559 0.5164 0.94982 0.0
C111 C 0.9833 0.64104 0.00932 0.0
C112 C 0.99423 0.58243 0.00551 0.0
C113 C 0.02517 0.41211 0.99455 0.0
C114 C 0.01423 0.47071 0.99836 0.0
H115 H 0.85525 0.7102 0.04403 0.0
H116 H 0.87275 0.61519 0.03241 0.0
H117 H 0.05981 0.60568 0.91465 0.0
H118 H 0.15322 0.34294 0.95984 0.0
H119 H 0.13571 0.43795 0.97147 0.0
loop_
_geom_bond_atom_site_label_1
_geom_bond_atom_site_label_2
_geom_bond_distance
_geom_bond_site_symmetry_2
_ccdc_geom_bond_type
Co0 N5 2.057 1_556 S
Co0 O17 2.021 . S
Co0 O20 2.062 1_655 S
Co0 O24 2.117 1_556 S
Co0 O25 2.020 . S
C1 O21 1.259 . S
C1 O24 1.258 1_445 S
Co2 N11 2.057 1_554 S
Co2 O18 2.117 1_554 S
Co2 O19 2.020 . S
Co2 O21 2.021 . S
Co2 O26 2.062 1_455 S
C3 N5 1.316 1_556 S
C3 N6 1.347 1_556 S
C3 H8 0.931 . S
C4 N5 1.375 . S
C4 C7 1.350 . S
C4 H9 0.930 . S
N5 Co0 2.057 1_554 S
N5 C3 1.316 1_554 S
N5 C4 1.375 . S
N6 C3 1.347 1_554 S
N6 C7 1.373 . S
C7 C4 1.350 . S
C7 N6 1.373 . S
C7 H28 0.931 . S
H8 C3 0.931 . S
H9 C4 0.930 . S
C10 O17 1.259 . S
C10 O18 1.258 1_665 S
N11 Co2 2.057 1_556 S
N11 C12 1.316 1_556 S
N11 C13 1.375 . S
C12 N11 1.316 1_554 S
C12 N14 1.347 1_554 S
C12 H23 0.931 . S
C13 N11 1.375 . S
C13 C15 1.350 . S
C13 H22 0.930 . S
N14 C12 1.347 1_556 S
N14 C15 1.373 . S
C15 C13 1.350 . S
C15 N14 1.373 . S
C15 H29 0.931 . S
C16 O19 1.262 1_556 S
C16 O20 1.249 1_545 S
O17 Co0 2.021 . S
O17 C10 1.259 . S
O18 Co2 2.117 1_556 S
O18 C10 1.258 1_445 S
O19 Co2 2.020 . S
O19 C16 1.262 1_554 S
O20 Co0 2.062 1_455 S
O20 C16 1.249 1_565 S
O21 C1 1.259 . S
O21 Co2 2.021 . S
H22 C13 0.930 . S
H23 C12 0.931 . S
O24 Co0 2.117 1_554 S
O24 C1 1.258 1_665 S
O25 Co0 2.020 . S
O25 C27 1.259 1_556 S
O26 Co2 2.062 1_655 S
O26 C27 1.252 1_545 S
C27 O25 1.259 1_554 S
C27 O26 1.252 1_565 S
H28 C7 0.931 . S
H29 C15 0.931 . S
C30 C31 1.349 1_565 S
C30 C32 1.327 . S
C30 H55 0.950 . S
C31 C30 1.349 1_545 S
C31 C47 1.349 1_455 S
C32 C30 1.327 . S
C32 C51 1.429 1_565 S
C32 H56 0.950 . S
C33 C50 1.574 . S
C33 C52 1.368 1_655 S
C33 H57 0.949 . S
H34 C38 0.949 . S
C35 C36 1.349 1_655 S
C35 C37 1.327 . S
C35 H58 0.950 . S
C36 C35 1.349 1_455 S
C36 C48 1.349 1_545 S
C37 C35 1.327 . S
C37 C53 1.429 1_655 S
C37 H59 0.950 . S
C38 H34 0.949 . S
C38 C46 1.574 . S
C38 C54 1.368 1_565 S
H39 C47 0.950 . S
H40 C45 0.950 . S
H41 C46 0.949 . S
H42 C48 0.950 . S
H43 C49 0.950 . S
H44 C50 0.949 . S
C45 H40 0.950 . S
C45 C47 1.327 . S
C45 C51 1.429 1_655 S
C46 C38 1.574 . S
C46 H41 0.949 . S
C46 C52 1.368 1_565 S
C47 C31 1.349 1_655 S
C47 H39 0.950 . S
C47 C45 1.327 . S
C48 C36 1.349 1_565 S
C48 H42 0.950 . S
C48 C49 1.327 . S
C49 H43 0.950 . S
C49 C48 1.327 . S
C49 C53 1.429 1_565 S
C50 C33 1.574 . S
C50 H44 0.949 . S
C50 C54 1.368 1_655 S
C51 C32 1.429 1_545 S
C51 C45 1.429 1_455 S
C51 C52 1.523 . S
C52 C33 1.368 1_455 S
C52 C46 1.368 1_545 S
C52 C51 1.523 . S
C53 C37 1.429 1_455 S
C53 C49 1.429 1_545 S
C53 C54 1.523 . S
C54 C38 1.368 1_545 S
C54 C50 1.368 1_455 S
C54 C53 1.523 . S
H55 C30 0.950 . S
H56 C32 0.950 . S
H57 C33 0.949 . S
H58 C35 0.950 . S
H59 C37 0.950 . S
C60 C61 1.349 1_565 S
C60 C62 1.327 . S
C60 H85 0.950 . S
C61 C60 1.349 1_545 S
C61 C77 1.349 1_554 S
C62 C60 1.327 . S
C62 C81 1.429 1_565 S
C62 H86 0.950 . S
C63 C80 1.574 . S
C63 C82 1.368 1_556 S
C63 H87 0.949 . S
H64 C68 0.949 . S
C65 C66 1.349 1_556 S
C65 C67 1.327 . S
C65 H88 0.950 . S
C66 C65 1.349 1_554 S
C66 C78 1.349 1_545 S
C67 C65 1.327 . S
C67 C83 1.429 1_556 S
C67 H89 0.950 . S
C68 H64 0.949 . S
C68 C76 1.574 . S
C68 C84 1.368 1_565 S
H69 C77 0.950 . S
H70 C75 0.950 . S
H71 C76 0.949 . S
H72 C78 0.950 . S
H73 C79 0.950 . S
H74 C80 0.949 . S
C75 H70 0.950 . S
C75 C77 1.327 . S
C75 C81 1.429 1_556 S
C76 C68 1.574 . S
C76 H71 0.949 . S
C76 C82 1.368 1_565 S
C77 C61 1.349 1_556 S
C77 H69 0.950 . S
C77 C75 1.327 . S
C78 C66 1.349 1_565 S
C78 H72 0.950 . S
C78 C79 1.327 . S
C79 H73 0.950 . S
C79 C78 1.327 . S
C79 C83 1.429 1_565 S
C80 C63 1.574 . S
C80 H74 0.949 . S
C80 C84 1.368 1_556 S
C81 C62 1.429 1_545 S
C81 C75 1.429 1_554 S
C81 C82 1.523 . S
C82 C63 1.368 1_554 S
C82 C76 1.368 1_545 S
C82 C81 1.523 . S
C83 C67 1.429 1_554 S
C83 C79 1.429 1_545 S
C83 C84 1.523 . S
C84 C68 1.368 1_545 S
C84 C80 1.368 1_554 S
C84 C83 1.523 . S
H85 C60 0.950 . S
H86 C62 0.950 . S
H87 C63 0.949 . S
H88 C65 0.950 . S
H89 C67 0.950 . S
C90 C91 1.349 1_655 S
C90 C92 1.327 . S
C90 H115 0.950 . S
C91 C90 1.349 1_455 S
C91 C107 1.349 1_554 S
C92 C90 1.327 . S
C92 C111 1.429 1_655 S
C92 H116 0.950 . S
C93 C110 1.574 . S
C93 C112 1.368 1_556 S
C93 H117 0.949 . S
H94 C98 0.949 . S
C95 C96 1.349 1_556 S
C95 C97 1.327 . S
C95 H118 0.950 . S
C96 C95 1.349 1_554 S
C96 C108 1.349 1_455 S
C97 C95 1.327 . S
C97 C113 1.429 1_556 S
C97 H119 0.950 . S
C98 H94 0.949 . S
C98 C106 1.574 . S
C98 C114 1.368 1_655 S
H99 C107 0.950 . S
H100 C105 0.950 . S
H101 C106 0.949 . S
H102 C108 0.950 . S
H103 C109 0.950 . S
H104 C110 0.949 . S
C105 H100 0.950 . S
C105 C107 1.327 . S
C105 C111 1.429 1_556 S
C106 C98 1.574 . S
C106 H101 0.949 . S
C106 C112 1.368 1_655 S
C107 C91 1.349 1_556 S
C107 H99 0.950 . S
C107 C105 1.327 . S
C108 C96 1.349 1_655 S
C108 H102 0.950 . S
C108 C109 1.327 . S
C109 H103 0.950 . S
C109 C108 1.327 . S
C109 C113 1.429 1_655 S
C110 C93 1.574 . S
C110 H104 0.949 . S
C110 C114 1.368 1_556 S
C111 C92 1.429 1_455 S
C111 C105 1.429 1_554 S
C111 C112 1.523 . S
C112 C93 1.368 1_554 S
C112 C106 1.368 1_455 S
C112 C111 1.523 . S
C113 C97 1.429 1_554 S
C113 C109 1.429 1_455 S
C113 C114 1.523 . S
C114 C98 1.368 1_455 S
C114 C110 1.368 1_554 S
C114 C113 1.523 . S
H115 C90 0.950 . S
H116 C92 0.950 . S
H117 C93 0.949 . S
H118 C95 0.950 . S
H119 C97 0.950 . S
C31 C1 1.496 . S
C36 C10 1.496 1_445 S
C61 C16 1.499 1_554 S
C66 C27 1.499 1_545 S
C91 N6 1.465 1_455 S
C96 N14 1.465 1_554 S
