# Generated by pormake.
# Topology crb, (4)-cn, num edge types: 1
# Building blocks:
#     Node 0, Type 0, BuildingBlock: NAHDIM_clean_sbu_0, # of connection points: 4
#     Node 1, Type 0, BuildingBlock: NAHDIM_clean_sbu_0, # of connection points: 4
#     Node 2, Type 0, BuildingBlock: NAHDIM_clean_sbu_0, # of connection points: 4
#     Node 3, Type 0, BuildingBlock: NAHDIM_clean_sbu_0, # of connection points: 4
#     Node 4, Type 0, BuildingBlock: NAHDIM_clean_sbu_0, # of connection points: 4
#     Node 5, Type 0, BuildingBlock: NAHDIM_clean_sbu_0, # of connection points: 4
#     Node 6, Type 0, BuildingBlock: NAHDIM_clean_sbu_0, # of connection points: 4
#     Node 7, Type 0, BuildingBlock: NAHDIM_clean_sbu_0, # of connection points: 4
#     Edge 8, Type (0, 0), BuildingBlock: EYOCIG_clean_linker_4, # of connection points: 2
#     Edge 9, Type (0, 0), BuildingBlock: EYOCIG_clean_linker_4, # of connection points: 2
#     Edge 10, Type (0, 0), BuildingBlock: EYOCIG_clean_linker_4, # of connection points: 2
#     Edge 11, Type (0, 0), BuildingBlock: EYOCIG_clean_linker_4, # of connection points: 2
#     Edge 12, Type (0, 0), BuildingBlock: EYOCIG_clean_linker_4, # of connection points: 2
#     Edge 13, Type (0, 0), BuildingBlock: EYOCIG_clean_linker_4, # of connection points: 2
#     Edge 14, Type (0, 0), BuildingBlock: EYOCIG_clean_linker_4, # of connection points: 2
#     Edge 15, Type (0, 0), BuildingBlock: EYOCIG_clean_linker_4, # of connection points: 2
#     Edge 16, Type (0, 0), BuildingBlock: EYOCIG_clean_linker_4, # of connection points: 2
#     Edge 17, Type (0, 0), BuildingBlock: EYOCIG_clean_linker_4, # of connection points: 2
#     Edge 18, Type (0, 0), BuildingBlock: EYOCIG_clean_linker_4, # of connection points: 2
#     Edge 19, Type (0, 0), BuildingBlock: EYOCIG_clean_linker_4, # of connection points: 2
#     Edge 20, Type (0, 0), BuildingBlock: EYOCIG_clean_linker_4, # of connection points: 2
#     Edge 21, Type (0, 0), BuildingBlock: EYOCIG_clean_linker_4, # of connection points: 2
#     Edge 22, Type (0, 0), BuildingBlock: EYOCIG_clean_linker_4, # of connection points: 2
#     Edge 23, Type (0, 0), BuildingBlock: EYOCIG_clean_linker_4, # of connection points: 2
# Relax obj value: 0.033
# Max RMSD: 0.066
# Mean RMSD: 0.066
data_MOF--net-crb--node1-NAHDIM_clean_sbu_0--edge1-EYOCIG_clean_linker_4
_symmetry_space_group_name_H-M    P1
_symmetry_Int_Tables_number       1
_symmetry_cell_setting            triclinic
loop_
_symmetry_equiv_pos_as_xyz
'x, y, z'
_cell_length_a     32.964103
_cell_length_b     35.321828
_cell_length_c     19.856685
_cell_angle_alpha  90.001392
_cell_angle_beta   90.008728
_cell_angle_gamma 90.00468
loop_
_atom_site_label
_atom_site_type_symbol
_atom_site_fract_x
_atom_site_fract_y
_atom_site_fract_z
_atom_type_partial_charge
C0 C 0.30232 0.26646 0.17339 0.0
O1 O 0.32651 0.24558 0.13632 0.0
O2 O 0.37983 0.31407 0.07343 0.0
Zn3 Zn 0.31882 0.32103 0.07068 0.0
O4 O 0.29408 0.29254 -0.00769 0.0
C5 C 0.32991 0.39958 0.0355 0.0
O6 O 0.36282 0.3866 0.00648 0.0
O7 O 0.29456 0.30026 0.15605 0.0
C8 C 0.28834 0.30761 0.93506 0.0
O9 O 0.29903 0.34285 0.92441 0.0
C10 C 0.40049 0.30474 0.02206 0.0
O11 O 0.38244 0.29854 0.96425 0.0
O12 O 0.3059 0.37699 0.06528 0.0
C13 C 0.70253 0.2667 0.89025 0.0
O14 O 0.67907 0.24546 0.92794 0.0
O15 O 0.62392 0.31409 0.98914 0.0
Zn16 Zn 0.68488 0.32127 -0.00767 0.0
O17 O 0.70961 0.29273 0.07068 0.0
C18 C 0.6734 0.39966 0.02823 0.0
O19 O 0.64064 0.38646 0.05741 0.0
O20 O 0.70943 0.30077 0.90696 0.0
C21 C 0.71532 0.30775 0.12799 0.0
O22 O 0.70458 0.34297 0.13877 0.0
C23 C 0.60317 0.30462 0.04033 0.0
O24 O 0.62112 0.29835 0.0982 0.0
O25 O 0.69746 0.37727 -0.00188 0.0
C26 C 0.70196 0.71981 0.17447 0.0
O27 O 0.67862 0.74122 0.13689 0.0
O28 O 0.62381 0.67288 0.0738 0.0
Zn29 Zn 0.68479 0.66579 0.07126 0.0
O30 O 0.70974 0.69483 -0.0063 0.0
C31 C 0.67349 0.58751 0.03425 0.0
O32 O 0.64076 0.60077 0.00505 0.0
O33 O 0.70897 0.68584 0.15726 0.0
C34 C 0.7155 0.68016 0.93613 0.0
O35 O 0.70475 0.64501 0.92466 0.0
C36 C 0.60328 0.68234 0.02234 0.0
O37 O 0.62147 0.68864 0.96471 0.0
O38 O 0.69747 0.60983 0.06472 0.0
C39 C 0.30215 0.71963 0.88825 0.0
O40 O 0.3267 0.74052 0.92464 0.0
O41 O 0.37976 0.67251 0.98832 0.0
Zn42 Zn 0.31876 0.66563 -0.00823 0.0
O43 O 0.29431 0.69458 0.06987 0.0
C44 C 0.32985 0.58731 0.0285 0.0
O45 O 0.3628 0.60047 0.05719 0.0
O46 O 0.29419 0.68598 0.90628 0.0
C47 C 0.28917 0.67992 0.12762 0.0
O48 O 0.30031 0.64487 0.13895 0.0
C49 C 0.40058 0.68226 0.03928 0.0
O50 O 0.38268 0.68899 0.09702 0.0
O51 O 0.30583 0.60972 -0.00169 0.0
C52 C 0.80191 0.76737 0.67447 0.0
O53 O 0.82526 0.74602 0.63678 0.0
O54 O 0.87996 0.81471 0.57404 0.0
Zn55 Zn 0.81893 0.82149 0.57139 0.0
O56 O 0.79416 0.79227 0.49386 0.0
C57 C 0.8296 0.8998 0.53401 0.0
O58 O 0.86242 0.88671 0.50484 0.0
O59 O 0.79484 0.80134 0.65739 0.0
C60 C 0.78844 0.80686 0.43622 0.0
O61 O 0.79913 0.84202 0.42466 0.0
C62 C 0.90056 0.80518 0.52272 0.0
O63 O 0.88243 0.79863 0.4651 0.0
O64 O 0.80583 0.87736 0.56467 0.0
C65 C 0.20285 0.76695 0.38958 0.0
O66 O 0.17984 0.74551 0.42766 0.0
O67 O 0.12402 0.81446 0.48856 0.0
Zn68 Zn 0.18502 0.82138 0.49171 0.0
O69 O 0.20964 0.7924 0.56964 0.0
C70 C 0.17393 0.89971 0.52839 0.0
O71 O 0.14105 0.88658 0.55728 0.0
O72 O 0.20942 0.80111 0.40606 0.0
C73 C 0.2153 0.80713 0.6272 0.0
O74 O 0.20462 0.84231 0.63847 0.0
C75 C 0.10329 0.80502 0.53978 0.0
O76 O 0.12127 0.79863 0.59758 0.0
O77 O 0.19791 0.8773 0.49817 0.0
C78 C 0.20165 0.22054 0.67326 0.0
O79 O 0.1776 0.24145 0.63601 0.0
O80 O 0.124 0.17284 0.57342 0.0
Zn81 Zn 0.185 0.16594 0.57066 0.0
O82 O 0.20972 0.1945 0.49235 0.0
C83 C 0.174 0.08747 0.53492 0.0
O84 O 0.14124 0.10053 0.50552 0.0
O85 O 0.20927 0.18668 0.65609 0.0
C86 C 0.21557 0.17945 0.43512 0.0
O87 O 0.205 0.14418 0.42442 0.0
C88 C 0.10331 0.18203 0.52198 0.0
O89 O 0.12135 0.18816 0.46416 0.0
O90 O 0.1979 0.10999 0.56513 0.0
C91 C 0.80254 0.22056 0.38917 0.0
O92 O 0.82736 0.24117 0.42554 0.0
O93 O 0.87975 0.17276 0.48892 0.0
Zn94 Zn 0.81872 0.16606 0.4922 0.0
O95 O 0.79436 0.19469 0.57076 0.0
C96 C 0.82948 0.0875 0.5274 0.0
O97 O 0.86249 0.10036 0.55631 0.0
O98 O 0.79427 0.18695 0.40704 0.0
C99 C 0.78894 0.17973 0.62819 0.0
O100 O 0.79972 0.14452 0.63894 0.0
C101 C 0.90062 0.18191 0.54017 0.0
O102 O 0.88279 0.18808 0.59815 0.0
O103 O 0.80553 0.11016 0.49769 0.0
C104 C 0.31863 0.47348 0.03383 0.0
C105 C 0.32233 0.43956 0.03603 0.0
C106 C 0.31864 0.5134 0.03111 0.0
C107 C 0.32235 0.54731 0.02852 0.0
C108 C 0.48044 0.3021 0.02935 0.0
C109 C 0.44394 0.30332 0.02616 0.0
C110 C 0.52323 0.30207 0.03274 0.0
C111 C 0.55973 0.30326 0.03603 0.0
C112 C 0.68432 0.47362 0.02988 0.0
C113 C 0.6807 0.43969 0.02775 0.0
C114 C 0.68435 0.51355 0.03232 0.0
C115 C 0.68075 0.54747 0.03458 0.0
C116 C 0.48051 0.68475 0.03183 0.0
C117 C 0.44401 0.68357 0.03491 0.0
C118 C 0.52331 0.68479 0.02888 0.0
C119 C 0.55982 0.68365 0.02607 0.0
C120 C 0.81818 0.97368 0.53154 0.0
C121 C 0.822 0.93978 0.53407 0.0
C122 C 0.8181 0.0136 0.5289 0.0
C123 C 0.82181 0.04752 0.52675 0.0
C124 C 0.02333 0.80266 0.53257 0.0
C125 C 0.05984 0.80377 0.53562 0.0
C126 C 0.98053 0.8027 0.52954 0.0
C127 C 0.94402 0.80386 0.52662 0.0
C128 C 0.18515 0.01355 0.53325 0.0
C129 C 0.18148 0.04747 0.53545 0.0
C130 C 0.18511 0.97363 0.53064 0.0
C131 C 0.1814 0.93972 0.52822 0.0
C132 C 0.98056 0.18434 0.53245 0.0
C133 C 0.94406 0.1832 0.53572 0.0
C134 C 0.02335 0.18438 0.52914 0.0
C135 C 0.05986 0.18329 0.52603 0.0
C136 C 0.24958 0.21785 0.33604 0.0
C137 C 0.23411 0.2009 0.38203 0.0
C138 C 0.26786 0.23616 0.28062 0.0
C139 C 0.28331 0.25047 0.23185 0.0
C140 C 0.74947 0.26936 0.22696 0.0
C141 C 0.73394 0.28633 0.18104 0.0
C142 C 0.76785 0.25101 0.28225 0.0
C143 C 0.7834 0.23664 0.3309 0.0
C144 C 0.75456 0.76788 0.33774 0.0
C145 C 0.76996 0.78503 0.38357 0.0
C146 C 0.73636 0.74953 0.28227 0.0
C147 C 0.72097 0.73538 0.23328 0.0
C148 C 0.23733 0.73701 0.28206 0.0
C149 C 0.22189 0.75125 0.33091 0.0
C150 C 0.25549 0.71866 0.22659 0.0
C151 C 0.27079 0.70157 0.1806 0.0
C152 C 0.24918 0.76825 0.72582 0.0
C153 C 0.23377 0.78541 0.68001 0.0
C154 C 0.26746 0.74979 0.7811 0.0
C155 C 0.28297 0.73547 0.82982 0.0
C156 C 0.25436 0.26924 0.83588 0.0
C157 C 0.26982 0.2862 0.88189 0.0
C158 C 0.2361 0.25088 0.78048 0.0
C159 C 0.22066 0.23653 0.73172 0.0
C160 C 0.73712 0.23659 0.78297 0.0
C161 C 0.72163 0.25088 0.83173 0.0
C162 C 0.75531 0.21823 0.72751 0.0
C163 C 0.7706 0.20122 0.68143 0.0
C164 C 0.74943 0.71908 0.83763 0.0
C165 C 0.734 0.70193 0.88344 0.0
C166 C 0.76761 0.73747 0.7822 0.0
C167 C 0.78295 0.75169 0.73325 0.0
loop_
_geom_bond_atom_site_label_1
_geom_bond_atom_site_label_2
_geom_bond_distance
_geom_bond_site_symmetry_2
_ccdc_geom_bond_type
C0 O1 1.160 . S
C0 O7 1.185 . S
O1 C0 1.160 . S
O2 Zn3 1.899 . S
O2 C10 1.284 . S
Zn3 O2 1.899 . S
Zn3 O4 2.032 . S
Zn3 O7 2.086 . S
Zn3 O12 1.977 . S
O4 Zn3 2.032 . S
O4 C8 1.278 1_554 S
C5 O6 1.203 . S
C5 O12 1.267 . S
O6 C5 1.203 . S
O7 C0 1.185 . S
O7 Zn3 2.086 . S
C8 O4 1.278 1_556 S
C8 O9 1.211 . S
O9 C8 1.211 . S
C10 O2 1.284 . S
C10 O11 1.273 1_554 S
O11 C10 1.273 1_556 S
O12 Zn3 1.977 . S
O12 C5 1.267 . S
C13 O14 1.160 . S
C13 O20 1.185 . S
O14 C13 1.160 . S
O15 Zn16 1.899 1_556 S
O15 C23 1.284 1_556 S
Zn16 O15 1.899 1_554 S
Zn16 O17 2.032 . S
Zn16 O20 2.086 1_554 S
Zn16 O25 1.977 . S
O17 Zn16 2.032 . S
O17 C21 1.278 . S
C18 O19 1.203 . S
C18 O25 1.267 . S
O19 C18 1.203 . S
O20 C13 1.185 . S
O20 Zn16 2.086 1_556 S
C21 O17 1.278 . S
C21 O22 1.211 . S
O22 C21 1.211 . S
C23 O15 1.284 1_554 S
C23 O24 1.273 . S
O24 C23 1.273 . S
O25 Zn16 1.977 . S
O25 C18 1.267 . S
C26 O27 1.160 . S
C26 O33 1.185 . S
O27 C26 1.160 . S
O28 Zn29 1.899 . S
O28 C36 1.284 . S
Zn29 O28 1.899 . S
Zn29 O30 2.032 . S
Zn29 O33 2.086 . S
Zn29 O38 1.977 . S
O30 Zn29 2.032 . S
O30 C34 1.278 1_554 S
C31 O32 1.203 . S
C31 O38 1.267 . S
O32 C31 1.203 . S
O33 C26 1.185 . S
O33 Zn29 2.086 . S
C34 O30 1.278 1_556 S
C34 O35 1.211 . S
O35 C34 1.211 . S
C36 O28 1.284 . S
C36 O37 1.273 1_554 S
O37 C36 1.273 1_556 S
O38 Zn29 1.977 . S
O38 C31 1.267 . S
C39 O40 1.160 . S
C39 O46 1.185 . S
O40 C39 1.160 . S
O41 Zn42 1.899 1_556 S
O41 C49 1.284 1_556 S
Zn42 O41 1.899 1_554 S
Zn42 O43 2.032 . S
Zn42 O46 2.086 1_554 S
Zn42 O51 1.977 . S
O43 Zn42 2.032 . S
O43 C47 1.278 . S
C44 O45 1.203 . S
C44 O51 1.267 . S
O45 C44 1.203 . S
O46 C39 1.185 . S
O46 Zn42 2.086 1_556 S
C47 O43 1.278 . S
C47 O48 1.211 . S
O48 C47 1.211 . S
C49 O41 1.284 1_554 S
C49 O50 1.273 . S
O50 C49 1.273 . S
O51 Zn42 1.977 . S
O51 C44 1.267 . S
C52 O53 1.160 . S
C52 O59 1.185 . S
O53 C52 1.160 . S
O54 Zn55 1.899 . S
O54 C62 1.284 . S
Zn55 O54 1.899 . S
Zn55 O56 2.032 . S
Zn55 O59 2.086 . S
Zn55 O64 1.977 . S
O56 Zn55 2.032 . S
O56 C60 1.278 . S
C57 O58 1.203 . S
C57 O64 1.267 . S
O58 C57 1.203 . S
O59 C52 1.185 . S
O59 Zn55 2.086 . S
C60 O56 1.278 . S
C60 O61 1.211 . S
O61 C60 1.211 . S
C62 O54 1.284 . S
C62 O63 1.273 . S
O63 C62 1.273 . S
O64 Zn55 1.977 . S
O64 C57 1.267 . S
C65 O66 1.160 . S
C65 O72 1.185 . S
O66 C65 1.160 . S
O67 Zn68 1.899 . S
O67 C75 1.284 . S
Zn68 O67 1.899 . S
Zn68 O69 2.032 . S
Zn68 O72 2.086 . S
Zn68 O77 1.977 . S
O69 Zn68 2.032 . S
O69 C73 1.278 . S
C70 O71 1.203 . S
C70 O77 1.267 . S
O71 C70 1.203 . S
O72 C65 1.185 . S
O72 Zn68 2.086 . S
C73 O69 1.278 . S
C73 O74 1.211 . S
O74 C73 1.211 . S
C75 O67 1.284 . S
C75 O76 1.273 . S
O76 C75 1.273 . S
O77 Zn68 1.977 . S
O77 C70 1.267 . S
C78 O79 1.160 . S
C78 O85 1.185 . S
O79 C78 1.160 . S
O80 Zn81 1.899 . S
O80 C88 1.284 . S
Zn81 O80 1.899 . S
Zn81 O82 2.032 . S
Zn81 O85 2.086 . S
Zn81 O90 1.977 . S
O82 Zn81 2.032 . S
O82 C86 1.278 . S
C83 O84 1.203 . S
C83 O90 1.267 . S
O84 C83 1.203 . S
O85 C78 1.185 . S
O85 Zn81 2.086 . S
C86 O82 1.278 . S
C86 O87 1.211 . S
O87 C86 1.211 . S
C88 O80 1.284 . S
C88 O89 1.273 . S
O89 C88 1.273 . S
O90 Zn81 1.977 . S
O90 C83 1.267 . S
C91 O92 1.160 . S
C91 O98 1.185 . S
O92 C91 1.160 . S
O93 Zn94 1.899 . S
O93 C101 1.284 . S
Zn94 O93 1.899 . S
Zn94 O95 2.032 . S
Zn94 O98 2.086 . S
Zn94 O103 1.977 . S
O95 Zn94 2.032 . S
O95 C99 1.278 . S
C96 O97 1.203 . S
C96 O103 1.267 . S
O97 C96 1.203 . S
O98 C91 1.185 . S
O98 Zn94 2.086 . S
C99 O95 1.278 . S
C99 O100 1.211 . S
O100 C99 1.211 . S
C101 O93 1.284 . S
C101 O102 1.273 . S
O102 C101 1.273 . S
O103 Zn94 1.977 . S
O103 C96 1.267 . S
C104 C105 1.170 . S
C104 C106 1.380 . S
C105 C104 1.170 . S
C106 C104 1.380 . S
C106 C107 1.170 . S
C107 C106 1.170 . S
C108 C109 1.170 . S
C108 C110 1.380 . S
C109 C108 1.170 . S
C110 C108 1.380 . S
C110 C111 1.170 . S
C111 C110 1.170 . S
C112 C113 1.170 . S
C112 C114 1.380 . S
C113 C112 1.170 . S
C114 C112 1.380 . S
C114 C115 1.170 . S
C115 C114 1.170 . S
C116 C117 1.170 . S
C116 C118 1.380 . S
C117 C116 1.170 . S
C118 C116 1.380 . S
C118 C119 1.170 . S
C119 C118 1.170 . S
C120 C121 1.170 . S
C120 C122 1.380 1_565 S
C121 C120 1.170 . S
C122 C120 1.380 1_545 S
C122 C123 1.170 . S
C123 C122 1.170 . S
C124 C125 1.170 . S
C124 C126 1.380 1_455 S
C125 C124 1.170 . S
C126 C124 1.380 1_655 S
C126 C127 1.170 . S
C127 C126 1.170 . S
C128 C129 1.170 . S
C128 C130 1.380 1_545 S
C129 C128 1.170 . S
C130 C128 1.380 1_565 S
C130 C131 1.170 . S
C131 C130 1.170 . S
C132 C133 1.170 . S
C132 C134 1.380 1_655 S
C133 C132 1.170 . S
C134 C132 1.380 1_455 S
C134 C135 1.170 . S
C135 C134 1.170 . S
C136 C137 1.170 . S
C136 C138 1.380 . S
C137 C136 1.170 . S
C138 C136 1.380 . S
C138 C139 1.170 . S
C139 C138 1.170 . S
C140 C141 1.170 . S
C140 C142 1.380 . S
C141 C140 1.170 . S
C142 C140 1.380 . S
C142 C143 1.170 . S
C143 C142 1.170 . S
C144 C145 1.170 . S
C144 C146 1.380 . S
C145 C144 1.170 . S
C146 C144 1.380 . S
C146 C147 1.170 . S
C147 C146 1.170 . S
C148 C149 1.170 . S
C148 C150 1.380 . S
C149 C148 1.170 . S
C150 C148 1.380 . S
C150 C151 1.170 . S
C151 C150 1.170 . S
C152 C153 1.170 . S
C152 C154 1.380 . S
C153 C152 1.170 . S
C154 C152 1.380 . S
C154 C155 1.170 . S
C155 C154 1.170 . S
C156 C157 1.170 . S
C156 C158 1.380 . S
C157 C156 1.170 . S
C158 C156 1.380 . S
C158 C159 1.170 . S
C159 C158 1.170 . S
C160 C161 1.170 . S
C160 C162 1.380 . S
C161 C160 1.170 . S
C162 C160 1.380 . S
C162 C163 1.170 . S
C163 C162 1.170 . S
C164 C165 1.170 . S
C164 C166 1.380 . S
C165 C164 1.170 . S
C166 C164 1.380 . S
C166 C167 1.170 . S
C167 C166 1.170 . S
C105 C5 1.459 . S
C107 C44 1.460 . S
C109 C10 1.457 . S
C111 C23 1.469 . S
C113 C18 1.434 . S
C115 C31 1.433 . S
C117 C49 1.476 . S
C119 C36 1.455 . S
C121 C57 1.463 . S
C123 C96 1.463 . S
C125 C75 1.473 . S
C127 C62 1.455 . S
C129 C83 1.441 . S
C131 C70 1.441 . S
C133 C101 1.474 . S
C135 C88 1.463 . S
C137 C86 1.399 . S
C139 C0 1.406 . S
C141 C21 1.403 . S
C143 C91 1.400 . S
C145 C60 1.430 . S
C147 C26 1.424 . S
C149 C65 1.427 . S
C151 C47 1.412 . S
C153 C73 1.426 . S
C155 C39 1.412 . S
C157 C8 1.399 . S
C159 C78 1.403 . S
C161 C13 1.416 . S
C163 C99 1.402 . S
C165 C34 1.430 . S
C167 C52 1.426 . S
