# Generated by pormake.
# Topology vma, (5)-cn, num edge types: 1
# Building blocks:
#     Node 0, Type 0, BuildingBlock: XOMCOT_clean_sbu_1, # of connection points: 5
#     Node 1, Type 0, BuildingBlock: XOMCOT_clean_sbu_1, # of connection points: 5
#     Node 2, Type 0, BuildingBlock: XOMCOT_clean_sbu_1, # of connection points: 5
#     Node 3, Type 0, BuildingBlock: XOMCOT_clean_sbu_1, # of connection points: 5
#     Node 4, Type 0, BuildingBlock: XOMCOT_clean_sbu_1, # of connection points: 5
#     Node 5, Type 0, BuildingBlock: XOMCOT_clean_sbu_1, # of connection points: 5
#     Node 6, Type 0, BuildingBlock: XOMCOT_clean_sbu_1, # of connection points: 5
#     Node 7, Type 0, BuildingBlock: XOMCOT_clean_sbu_1, # of connection points: 5
#     Edge 8, Type (0, 0), None
#     Edge 9, Type (0, 0), None
#     Edge 10, Type (0, 0), None
#     Edge 11, Type (0, 0), None
#     Edge 12, Type (0, 0), None
#     Edge 13, Type (0, 0), None
#     Edge 14, Type (0, 0), None
#     Edge 15, Type (0, 0), None
#     Edge 16, Type (0, 0), None
#     Edge 17, Type (0, 0), None
#     Edge 18, Type (0, 0), None
#     Edge 19, Type (0, 0), None
#     Edge 20, Type (0, 0), None
#     Edge 21, Type (0, 0), None
#     Edge 22, Type (0, 0), None
#     Edge 23, Type (0, 0), None
#     Edge 24, Type (0, 0), None
#     Edge 25, Type (0, 0), None
#     Edge 26, Type (0, 0), None
#     Edge 27, Type (0, 0), None
# Relax obj value: 0.108
# Max RMSD: 0.172
# Mean RMSD: 0.167
data_MOF--net-vma--node1-XOMCOT_clean_sbu_1--edge1-none
_symmetry_space_group_name_H-M    P1
_symmetry_Int_Tables_number       1
_symmetry_cell_setting            triclinic
loop_
_symmetry_equiv_pos_as_xyz
'x, y, z'
_cell_length_a     18.04887
_cell_length_b     15.644666
_cell_length_c     18.411093
_cell_angle_alpha  89.995365
_cell_angle_beta   99.403329
_cell_angle_gamma 90.004797
loop_
_atom_site_label
_atom_site_type_symbol
_atom_site_fract_x
_atom_site_fract_y
_atom_site_fract_z
_atom_type_partial_charge
C0 C 0.45951 -0.02665 0.25853 0.0
C1 C 0.53151 0.95904 0.24516 0.0
N2 N 0.57564 0.01973 0.28106 0.0
N3 N 0.46039 0.04014 0.30549 0.0
C4 C 0.53159 0.06929 0.3148 0.0
H5 H 0.41178 0.93258 0.24067 0.0
Co6 Co 0.39492 0.07251 0.36978 0.0
C7 C 0.50018 0.04075 0.51332 0.0
O8 O 0.44724 0.01099 0.54773 0.0
N9 N 0.33095 0.10847 0.4371 0.0
C10 C 0.2391 0.1303 0.50363 0.0
C11 C 0.26656 0.07609 0.45471 0.0
C12 C 0.34119 0.18196 0.47646 0.0
N13 N 0.28614 0.19722 0.51669 0.0
O14 O 0.41219 0.18915 0.34639 0.0
H15 H 0.24003 0.01749 0.43322 0.0
H16 H 0.38839 0.22434 0.47517 0.0
O17 O 0.48224 0.07193 0.44874 0.0
C18 C 0.37477 0.2045 0.28276 0.0
O19 O 0.33123 0.14389 0.24982 0.0
N20 N 0.37353 0.95591 0.3822 0.0
C21 C 0.35612 0.78847 0.32997 0.0
C22 C 0.418 0.81137 0.3825 0.0
C23 C 0.42679 0.89562 0.40639 0.0
C24 C 0.30933 0.93257 0.33636 0.0
C25 C 0.29958 0.84902 0.30906 0.0
H26 H 0.48146 0.91253 0.43471 0.0
H27 H 0.26979 -0.01871 0.31345 0.0
H28 H 0.55239 0.12136 0.35105 0.0
H29 H 0.55071 0.906 0.21537 0.0
H30 H 0.18824 0.12159 0.52688 0.0
H31 H 0.46356 0.76684 0.39934 0.0
H32 H 0.25079 0.83361 0.26864 0.0
C33 C 0.77031 -0.0267 0.31913 0.0
C34 C 0.69823 0.95894 0.33227 0.0
N35 N 0.6542 0.01961 0.29623 0.0
N36 N 0.76958 0.04016 0.27225 0.0
C37 C 0.69838 0.06933 0.26278 0.0
H38 H 0.81801 0.93252 0.33707 0.0
Co39 Co 0.83516 0.07256 0.20806 0.0
C40 C 0.73003 0.04076 0.06444 0.0
O41 O 0.78299 0.01091 1.03011 0.0
N42 N 0.89923 0.10854 0.14083 0.0
C43 C 0.99111 0.13038 0.07431 0.0
C44 C 0.96363 0.07617 0.12323 0.0
C45 C 0.88901 0.18203 0.10145 0.0
N46 N 0.94407 0.19729 0.06123 0.0
O47 O 0.81788 0.18918 0.23144 0.0
H48 H 0.99014 0.01756 0.14473 0.0
H49 H 0.8418 0.2244 0.1027 0.0
O50 O 0.74793 0.072 0.129 0.0
C51 C 0.85525 0.2045 0.2951 0.0
O52 O 0.89874 0.14385 0.32806 0.0
N53 N 0.85658 0.95596 0.19566 0.0
C54 C 0.87398 0.7885 0.24788 0.0
C55 C 0.81212 0.81139 0.19532 0.0
C56 C 0.80334 0.89565 0.17143 0.0
C57 C 0.92075 0.93263 0.24156 0.0
C58 C 0.93049 0.84908 0.26885 0.0
H59 H 0.74868 0.91255 0.14308 0.0
H60 H 0.96026 -0.01863 0.26449 0.0
H61 H 0.6777 0.12149 0.22659 0.0
H62 H 0.67893 0.90589 0.36199 0.0
H63 H 1.04196 0.12167 0.05107 0.0
H64 H 0.76659 0.76685 0.17843 0.0
H65 H 0.97925 0.83368 0.3093 0.0
C66 C 0.69292 -0.01213 0.53406 0.0
C67 C 0.63181 0.03423 0.50108 0.0
N68 N 0.57319 0.01696 0.53573 0.0
N69 N 0.67335 0.94099 0.58923 0.0
C70 C 0.60006 0.96062 0.58937 0.0
H71 H 0.74884 -0.00994 0.52014 0.0
Co72 Co 0.74287 0.88174 0.65739 0.0
C73 C 0.6532 0.83696 0.77891 0.0
O74 O 0.71178 0.83934 0.8314 0.0
N75 N 0.81532 0.82345 0.72781 0.0
C76 C 0.90304 0.79475 0.82521 0.0
C77 C 0.85747 0.85653 0.78928 0.0
C78 C 0.83713 0.74036 0.72865 0.0
N79 N 0.89083 0.72227 0.78648 0.0
O80 O 0.72735 0.77847 0.59761 0.0
H81 H 0.85341 0.92041 0.8103 0.0
H82 H 0.81201 0.69241 0.69005 0.0
O83 O 0.66092 0.85069 0.71194 0.0
C84 C 0.77777 0.77133 0.55628 0.0
O85 O 0.82776 0.83276 0.55812 0.0
N86 N 0.76345 -0.01559 0.70722 0.0
C87 C 0.81299 0.14103 0.76729 0.0
C88 C 0.74301 0.10817 0.77764 0.0
C89 C 0.71891 0.02931 0.74669 0.0
C90 C 0.82933 0.01808 0.69309 0.0
C91 C 0.85621 0.09531 0.7243 0.0
H92 H 0.66427 0.00572 0.75303 0.0
H93 H 0.86205 -0.01687 0.65872 0.0
H94 H 0.56668 0.9341 0.62762 0.0
H95 H 0.63101 0.07736 0.45519 0.0
H96 H 0.93976 0.80129 0.87765 0.0
H97 H 0.70756 0.14303 0.80945 0.0
H98 H 0.90941 0.12013 0.71366 0.0
C99 C 0.53726 -0.012 0.04362 0.0
C100 C 0.59837 0.03438 0.07657 0.0
N101 N 0.65702 0.01699 0.042 0.0
N102 N 0.55686 0.94099 0.98854 0.0
C103 C 0.63017 0.96056 0.98844 0.0
H104 H 0.48132 -0.00973 0.05747 0.0
Co105 Co 0.48733 0.88173 0.9204 0.0
C106 C 0.577 0.83694 0.79888 0.0
O107 O 0.51843 0.83928 0.74637 0.0
N108 N 0.41489 0.82343 0.84998 0.0
C109 C 0.3272 0.79474 0.75255 0.0
C110 C 0.37276 0.85652 0.7885 0.0
C111 C 0.39307 0.74034 0.84915 0.0
N112 N 0.33939 0.72225 0.79128 0.0
O113 O 0.50286 0.77845 0.98019 0.0
H114 H 0.37683 0.9204 0.76748 0.0
H115 H 0.41816 0.6924 0.88776 0.0
O116 O 0.56929 0.8507 0.86584 0.0
C117 C 0.45245 0.77132 1.02154 0.0
O118 O 0.40247 0.83276 1.01969 0.0
N119 N 0.46675 -0.0156 0.87056 0.0
C120 C 0.4172 0.14104 0.81054 0.0
C121 C 0.48718 0.10821 0.80017 0.0
C122 C 0.51129 0.02933 0.83109 0.0
C123 C 0.40087 0.01805 0.8847 0.0
C124 C 0.37399 0.09529 0.85351 0.0
H125 H 0.56592 0.00576 0.82474 0.0
H126 H 0.36815 -0.01693 0.91906 0.0
H127 H 0.66357 0.93394 0.95026 0.0
H128 H 0.59915 0.07762 0.12238 0.0
H129 H 0.29049 0.80129 0.7001 0.0
H130 H 0.52263 0.1431 0.76836 0.0
H131 H 0.32079 0.12008 0.86416 0.0
C132 C 0.9598 0.47099 0.26058 0.0
C133 C 1.03169 0.45705 0.24684 0.0
N134 N 1.0756 0.51895 0.28113 0.0
N135 N 0.96033 0.53876 0.30644 0.0
C136 C 1.0313 0.56876 0.3146 0.0
H137 H 0.91242 0.42956 0.24345 0.0
Co138 Co 0.89438 0.57249 0.37025 0.0
C139 C 0.99908 0.5436 0.51575 0.0
O140 O 0.9462 0.52136 0.55337 0.0
N141 N 0.83013 0.60992 0.4369 0.0
C142 C 0.73931 0.63101 0.50484 0.0
C143 C 0.76763 0.57578 0.4572 0.0
C144 C 0.83833 0.68555 0.47332 0.0
N145 N 0.78386 0.70037 0.51432 0.0
O146 O 0.91305 0.68861 0.34663 0.0
H147 H 0.74325 0.51499 0.43868 0.0
H148 H 0.884 0.72947 0.46997 0.0
O149 O 0.98095 0.57019 0.44957 0.0
C150 C 0.87474 0.70386 0.2834 0.0
O151 O 0.83074 0.64324 0.25114 0.0
N152 N 0.87148 0.45641 0.38294 0.0
C153 C 0.85494 0.28901 0.33075 0.0
C154 C 0.91518 0.31151 0.38533 0.0
C155 C 0.92346 0.39572 0.4095 0.0
C156 C 0.80815 0.43332 0.33571 0.0
C157 C 0.79891 0.34976 0.30831 0.0
H158 H 0.97695 0.4121 0.44066 0.0
H159 H 0.76922 0.48224 0.31196 0.0
H160 H 1.05183 0.62164 0.35009 0.0
H161 H 1.05104 0.40342 0.21786 0.0
H162 H 0.68977 0.62107 0.52995 0.0
H163 H 0.96 0.26663 0.40394 0.0
H164 H 0.75113 0.33454 0.26663 0.0
C165 C 0.27009 0.47096 0.31708 0.0
C166 C 0.19812 0.45696 0.33062 0.0
N167 N 0.15429 0.51884 0.29618 0.0
N168 N 0.26969 0.53879 0.27129 0.0
C169 C 0.19872 0.5688 0.26298 0.0
H170 H 0.31745 0.42953 0.3343 0.0
Co171 Co 0.33575 0.57252 0.20756 0.0
C172 C 0.23116 0.5436 0.062 0.0
O173 O 0.28407 0.5212 1.02449 0.0
N174 N 0.40008 0.60995 0.14097 0.0
C175 C 0.4909 0.63102 0.07304 0.0
C176 C 0.46258 0.5758 0.12069 0.0
C177 C 0.39188 0.68557 0.10454 0.0
N178 N 0.44636 0.70038 0.06353 0.0
O179 O 0.31709 0.68863 0.23117 0.0
H180 H 0.48694 0.51501 0.13922 0.0
H181 H 0.34621 0.72948 0.10786 0.0
O182 O 0.24925 0.57027 0.12816 0.0
C183 C 0.35536 0.70385 0.29444 0.0
O184 O 0.39931 0.64319 0.32672 0.0
N185 N 0.35862 0.45643 0.1949 0.0
C186 C 0.37511 0.28902 0.24711 0.0
C187 C 0.31489 0.31154 0.1925 0.0
C188 C 0.30663 0.39575 0.16833 0.0
C189 C 0.42193 0.43334 0.24216 0.0
C190 C 0.43114 0.34978 0.26957 0.0
H191 H 0.25315 0.41214 0.13715 0.0
H192 H 0.46086 0.48225 0.26592 0.0
H193 H 0.1783 0.62176 0.22755 0.0
H194 H 0.17868 0.40333 0.35953 0.0
H195 H 0.54045 0.62108 0.04794 0.0
H196 H 0.27007 0.26666 0.17388 0.0
H197 H 0.4789 0.33455 0.31127 0.0
C198 C 0.18608 0.4723 0.52981 0.0
C199 C 0.12694 0.52113 0.49711 0.0
N200 N 1.0711 0.51588 0.53744 0.0
N201 N 0.16901 0.43703 0.59162 0.0
C202 C 1.09844 0.46505 0.59527 0.0
H203 H 0.23925 0.46475 0.5107 0.0
Co204 Co 0.24143 0.37966 0.65801 0.0
C205 C 0.15317 0.32167 0.77888 0.0
O206 O 0.21191 0.31549 0.83109 0.0
N207 N 0.31709 0.32456 0.72291 0.0
C208 C 0.43332 0.29245 0.77694 0.0
C209 C 0.38779 0.35496 0.7416 0.0
C210 C 0.3213 0.24287 0.7471 0.0
N211 N 0.39138 0.22216 0.78023 0.0
O212 O 0.22789 0.27634 0.59807 0.0
H213 H 0.40681 0.41702 0.72698 0.0
H214 H 0.27504 0.19806 0.737 0.0
O215 O 0.16135 0.3447 0.71387 0.0
C216 C 0.28095 0.26712 0.5601 0.0
O217 O 0.3328 0.32681 0.56458 0.0
N218 N 0.2612 0.48206 0.70993 0.0
C219 C 0.31375 0.63959 0.76551 0.0
C220 C 0.26844 0.5897 0.80376 0.0
C221 C 0.24157 0.51078 0.7743 0.0
C222 C 0.30529 0.53069 0.6728 0.0
C223 C 0.33165 0.60981 0.69924 0.0
H224 H 0.2055 0.47422 0.80341 0.0
H225 H 0.32185 0.50643 0.62289 0.0
H226 H 1.06757 0.4483 0.63892 0.0
H227 H 0.12532 0.55691 0.4469 0.0
H228 H 0.49293 0.29754 0.79725 0.0
H229 H 0.25301 0.61234 0.85483 0.0
H230 H 0.3667 0.64723 0.66877 0.0
C231 C 1.04406 0.47257 0.04785 0.0
C232 C 1.10322 0.52141 0.08051 0.0
N233 N 0.15912 0.51594 0.04028 0.0
N234 N 1.06118 0.43709 0.98615 0.0
C235 C 0.1318 0.46499 0.98253 0.0
H236 H 0.99085 0.46516 0.0669 0.0
Co237 Co 0.98875 0.37968 0.91981 0.0
C238 C 1.07694 0.32171 0.79891 0.0
O239 O 1.01819 0.3157 0.74668 0.0
N240 N 0.91308 0.32455 0.85495 0.0
C241 C 0.79684 0.29239 0.80095 0.0
C242 C 0.84235 0.3549 0.8363 0.0
C243 C 0.90888 0.24287 0.83073 0.0
N244 N 0.8388 0.22214 0.79761 0.0
O245 O 1.0023 0.27639 0.9798 0.0
H246 H 0.82331 0.41693 0.85095 0.0
H247 H 0.95517 0.1981 0.84079 0.0
O248 O 1.0688 0.34467 0.86395 0.0
C249 C 0.94925 0.26719 1.0178 0.0
O250 O 0.89741 0.32687 1.01331 0.0
N251 N 0.96897 0.48206 0.86785 0.0
C252 C 0.91645 0.63961 0.81225 0.0
C253 C 0.96192 0.5898 0.77411 0.0
C254 C 0.98877 0.51088 0.80358 0.0
C255 C 0.92477 0.53062 0.9049 0.0
C256 C 0.89841 0.60974 0.87845 0.0
H257 H 1.02498 0.47441 0.77456 0.0
H258 H 0.90813 0.5063 0.95475 0.0
H259 H 0.16272 0.44806 0.93897 0.0
H260 H 1.1048 0.55735 0.13062 0.0
H261 H 0.73722 0.29745 0.78067 0.0
H262 H 0.97747 0.61252 0.72311 0.0
H263 H 0.86327 0.6471 0.90885 0.0
loop_
_geom_bond_atom_site_label_1
_geom_bond_atom_site_label_2
_geom_bond_distance
_geom_bond_site_symmetry_2
_ccdc_geom_bond_type
C0 C1 1.351 . S
C0 N3 1.368 . S
C0 H5 0.931 . S
C1 C0 1.351 . S
C1 N2 1.373 . S
C1 H29 0.930 . S
N2 C1 1.373 . S
N2 C4 1.340 . S
N3 C0 1.368 . S
N3 C4 1.321 . S
N3 Co6 2.135 . S
C4 N2 1.340 . S
C4 N3 1.321 . S
C4 H28 0.930 . S
H5 C0 0.931 . S
Co6 N3 2.135 . S
Co6 N9 2.121 . S
Co6 O14 2.055 . S
Co6 O17 2.039 . S
Co6 N20 2.140 . S
C7 O8 1.227 . S
C7 O17 1.265 . S
O8 C7 1.227 . S
N9 Co6 2.121 . S
N9 C11 1.375 . S
N9 C12 1.313 . S
C10 C11 1.338 . S
C10 N13 1.377 . S
C10 H30 0.930 . S
C11 N9 1.375 . S
C11 C10 1.338 . S
C11 H15 0.931 . S
C12 N9 1.313 . S
C12 N13 1.344 . S
C12 H16 0.930 . S
N13 C10 1.377 . S
N13 C12 1.344 . S
O14 Co6 2.055 . S
O14 C18 1.253 . S
H15 C11 0.931 . S
H16 C12 0.930 . S
O17 Co6 2.039 . S
O17 C7 1.265 . S
C18 O14 1.253 . S
C18 O19 1.227 . S
O19 C18 1.227 . S
N20 Co6 2.140 . S
N20 C23 1.346 1_545 S
N20 C24 1.345 . S
C21 C22 1.387 . S
C21 C25 1.391 . S
C22 C21 1.387 . S
C22 C23 1.369 . S
C22 H31 0.929 . S
C23 N20 1.346 1_565 S
C23 C22 1.369 . S
C23 H26 0.928 . S
C24 N20 1.345 . S
C24 C25 1.371 1_545 S
C24 H27 0.931 . S
C25 C21 1.391 . S
C25 C24 1.371 1_565 S
C25 H32 0.930 . S
H26 C23 0.928 . S
H27 C24 0.931 . S
H28 C4 0.930 . S
H29 C1 0.930 . S
H30 C10 0.930 . S
H31 C22 0.929 . S
H32 C25 0.930 . S
C33 C34 1.351 . S
C33 N36 1.368 . S
C33 H38 0.931 . S
C34 C33 1.351 . S
C34 N35 1.373 . S
C34 H62 0.930 . S
N35 C34 1.373 . S
N35 C37 1.340 . S
N36 C33 1.368 . S
N36 C37 1.321 . S
N36 Co39 2.135 . S
C37 N35 1.340 . S
C37 N36 1.321 . S
C37 H61 0.930 . S
H38 C33 0.931 . S
Co39 N36 2.135 . S
Co39 N42 2.121 . S
Co39 O47 2.055 . S
Co39 O50 2.039 . S
Co39 N53 2.140 . S
C40 O41 1.227 . S
C40 O50 1.265 . S
O41 C40 1.227 . S
N42 Co39 2.121 . S
N42 C44 1.375 . S
N42 C45 1.313 . S
C43 C44 1.338 1_556 S
C43 N46 1.377 1_556 S
C43 H63 0.930 . S
C44 N42 1.375 . S
C44 C43 1.338 1_554 S
C44 H48 0.931 . S
C45 N42 1.313 . S
C45 N46 1.344 . S
C45 H49 0.930 . S
N46 C43 1.377 1_554 S
N46 C45 1.344 . S
O47 Co39 2.055 . S
O47 C51 1.253 . S
H48 C44 0.931 . S
H49 C45 0.930 . S
O50 Co39 2.039 . S
O50 C40 1.265 . S
C51 O47 1.253 . S
C51 O52 1.227 . S
O52 C51 1.227 . S
N53 Co39 2.140 . S
N53 C56 1.346 1_545 S
N53 C57 1.345 . S
C54 C55 1.387 . S
C54 C58 1.391 . S
C55 C54 1.387 . S
C55 C56 1.369 . S
C55 H64 0.929 . S
C56 N53 1.346 1_565 S
C56 C55 1.369 . S
C56 H59 0.928 . S
C57 N53 1.345 . S
C57 C58 1.371 1_545 S
C57 H60 0.931 . S
C58 C54 1.391 . S
C58 C57 1.371 1_565 S
C58 H65 0.930 . S
H59 C56 0.928 . S
H60 C57 0.931 . S
H61 C37 0.930 . S
H62 C34 0.930 . S
H63 C43 0.930 . S
H64 C55 0.929 . S
H65 C58 0.930 . S
C66 C67 1.351 1_565 S
C66 N69 1.368 . S
C66 H71 0.931 . S
C67 C66 1.351 1_545 S
C67 N68 1.373 . S
C67 H95 0.930 . S
N68 C67 1.373 . S
N68 C70 1.340 1_545 S
N69 C66 1.368 . S
N69 C70 1.321 . S
N69 Co72 2.135 . S
C70 N68 1.340 1_565 S
C70 N69 1.321 . S
C70 H94 0.930 . S
H71 C66 0.931 . S
Co72 N69 2.135 . S
Co72 N75 2.121 . S
Co72 O80 2.055 . S
Co72 O83 2.039 . S
Co72 N86 2.140 . S
C73 O74 1.227 . S
C73 O83 1.265 . S
O74 C73 1.227 . S
N75 Co72 2.121 . S
N75 C77 1.375 . S
N75 C78 1.313 . S
C76 C77 1.338 . S
C76 N79 1.377 . S
C76 H96 0.930 . S
C77 N75 1.375 . S
C77 C76 1.338 . S
C77 H81 0.931 . S
C78 N75 1.313 . S
C78 N79 1.344 . S
C78 H82 0.930 . S
N79 C76 1.377 . S
N79 C78 1.344 . S
O80 Co72 2.055 . S
O80 C84 1.253 . S
H81 C77 0.931 . S
H82 C78 0.930 . S
O83 Co72 2.039 . S
O83 C73 1.265 . S
C84 O80 1.253 . S
C84 O85 1.227 . S
O85 C84 1.227 . S
N86 Co72 2.140 . S
N86 C89 1.346 1_565 S
N86 C90 1.345 . S
C87 C88 1.387 . S
C87 C91 1.391 . S
C88 C87 1.387 . S
C88 C89 1.369 . S
C88 H97 0.929 . S
C89 N86 1.346 1_545 S
C89 C88 1.369 . S
C89 H92 0.928 . S
C90 N86 1.345 . S
C90 C91 1.371 1_565 S
C90 H93 0.931 . S
C91 C87 1.391 . S
C91 C90 1.371 1_545 S
C91 H98 0.930 . S
H92 C89 0.928 . S
H93 C90 0.931 . S
H94 C70 0.930 . S
H95 C67 0.930 . S
H96 C76 0.930 . S
H97 C88 0.929 . S
H98 C91 0.930 . S
C99 C100 1.351 1_565 S
C99 N102 1.368 1_554 S
C99 H104 0.931 . S
C100 C99 1.351 1_545 S
C100 N101 1.373 . S
C100 H128 0.930 . S
N101 C100 1.373 . S
N101 C103 1.340 1_544 S
N102 C99 1.368 1_556 S
N102 C103 1.321 . S
N102 Co105 2.135 . S
C103 N101 1.340 1_566 S
C103 N102 1.321 . S
C103 H127 0.930 . S
H104 C99 0.931 . S
Co105 N102 2.135 . S
Co105 N108 2.121 . S
Co105 O113 2.055 . S
Co105 O116 2.039 . S
Co105 N119 2.140 . S
C106 O107 1.227 . S
C106 O116 1.265 . S
O107 C106 1.227 . S
N108 Co105 2.121 . S
N108 C110 1.375 . S
N108 C111 1.313 . S
C109 C110 1.338 . S
C109 N112 1.377 . S
C109 H129 0.930 . S
C110 N108 1.375 . S
C110 C109 1.338 . S
C110 H114 0.931 . S
C111 N108 1.313 . S
C111 N112 1.344 . S
C111 H115 0.930 . S
N112 C109 1.377 . S
N112 C111 1.344 . S
O113 Co105 2.055 . S
O113 C117 1.253 . S
H114 C110 0.931 . S
H115 C111 0.930 . S
O116 Co105 2.039 . S
O116 C106 1.265 . S
C117 O113 1.253 . S
C117 O118 1.227 . S
O118 C117 1.227 . S
N119 Co105 2.140 . S
N119 C122 1.346 1_565 S
N119 C123 1.345 . S
C120 C121 1.387 . S
C120 C124 1.391 . S
C121 C120 1.387 . S
C121 C122 1.369 . S
C121 H130 0.929 . S
C122 N119 1.346 1_545 S
C122 C121 1.369 . S
C122 H125 0.928 . S
C123 N119 1.345 . S
C123 C124 1.371 1_565 S
C123 H126 0.931 . S
C124 C120 1.391 . S
C124 C123 1.371 1_545 S
C124 H131 0.930 . S
H125 C122 0.928 . S
H126 C123 0.931 . S
H127 C103 0.930 . S
H128 C100 0.930 . S
H129 C109 0.930 . S
H130 C121 0.929 . S
H131 C124 0.930 . S
C132 C133 1.351 . S
C132 N135 1.368 . S
C132 H137 0.931 . S
C133 C132 1.351 . S
C133 N134 1.373 . S
C133 H161 0.930 . S
N134 C133 1.373 . S
N134 C136 1.340 . S
N135 C132 1.368 . S
N135 C136 1.321 . S
N135 Co138 2.135 . S
C136 N134 1.340 . S
C136 N135 1.321 . S
C136 H160 0.930 . S
H137 C132 0.931 . S
Co138 N135 2.135 . S
Co138 N141 2.121 . S
Co138 O146 2.055 . S
Co138 O149 2.039 . S
Co138 N152 2.140 . S
C139 O140 1.227 . S
C139 O149 1.265 . S
O140 C139 1.227 . S
N141 Co138 2.121 . S
N141 C143 1.375 . S
N141 C144 1.313 . S
C142 C143 1.338 . S
C142 N145 1.377 . S
C142 H162 0.930 . S
C143 N141 1.375 . S
C143 C142 1.338 . S
C143 H147 0.931 . S
C144 N141 1.313 . S
C144 N145 1.344 . S
C144 H148 0.930 . S
N145 C142 1.377 . S
N145 C144 1.344 . S
O146 Co138 2.055 . S
O146 C150 1.253 . S
H147 C143 0.931 . S
H148 C144 0.930 . S
O149 Co138 2.039 . S
O149 C139 1.265 . S
C150 O146 1.253 . S
C150 O151 1.227 . S
O151 C150 1.227 . S
N152 Co138 2.140 . S
N152 C155 1.346 . S
N152 C156 1.345 . S
C153 C154 1.387 . S
C153 C157 1.391 . S
C154 C153 1.387 . S
C154 C155 1.369 . S
C154 H163 0.929 . S
C155 N152 1.346 . S
C155 C154 1.369 . S
C155 H158 0.928 . S
C156 N152 1.345 . S
C156 C157 1.371 . S
C156 H159 0.931 . S
C157 C153 1.391 . S
C157 C156 1.371 . S
C157 H164 0.930 . S
H158 C155 0.928 . S
H159 C156 0.931 . S
H160 C136 0.930 . S
H161 C133 0.930 . S
H162 C142 0.930 . S
H163 C154 0.929 . S
H164 C157 0.930 . S
C165 C166 1.351 . S
C165 N168 1.368 . S
C165 H170 0.931 . S
C166 C165 1.351 . S
C166 N167 1.373 . S
C166 H194 0.930 . S
N167 C166 1.373 . S
N167 C169 1.340 . S
N168 C165 1.368 . S
N168 C169 1.321 . S
N168 Co171 2.135 . S
C169 N167 1.340 . S
C169 N168 1.321 . S
C169 H193 0.930 . S
H170 C165 0.931 . S
Co171 N168 2.135 . S
Co171 N174 2.121 . S
Co171 O179 2.055 . S
Co171 O182 2.039 . S
Co171 N185 2.140 . S
C172 O173 1.227 . S
C172 O182 1.265 . S
O173 C172 1.227 . S
N174 Co171 2.121 . S
N174 C176 1.375 . S
N174 C177 1.313 . S
C175 C176 1.338 1_556 S
C175 N178 1.377 1_556 S
C175 H195 0.930 . S
C176 N174 1.375 . S
C176 C175 1.338 1_554 S
C176 H180 0.931 . S
C177 N174 1.313 . S
C177 N178 1.344 . S
C177 H181 0.930 . S
N178 C175 1.377 1_554 S
N178 C177 1.344 . S
O179 Co171 2.055 . S
O179 C183 1.253 . S
H180 C176 0.931 . S
H181 C177 0.930 . S
O182 Co171 2.039 . S
O182 C172 1.265 . S
C183 O179 1.253 . S
C183 O184 1.227 . S
O184 C183 1.227 . S
N185 Co171 2.140 . S
N185 C188 1.346 . S
N185 C189 1.345 . S
C186 C187 1.387 . S
C186 C190 1.391 . S
C187 C186 1.387 . S
C187 C188 1.369 . S
C187 H196 0.929 . S
C188 N185 1.346 . S
C188 C187 1.369 . S
C188 H191 0.928 . S
C189 N185 1.345 . S
C189 C190 1.371 . S
C189 H192 0.931 . S
C190 C186 1.391 . S
C190 C189 1.371 . S
C190 H197 0.930 . S
H191 C188 0.928 . S
H192 C189 0.931 . S
H193 C169 0.930 . S
H194 C166 0.930 . S
H195 C175 0.930 . S
H196 C187 0.929 . S
H197 C190 0.930 . S
C198 C199 1.351 . S
C198 N201 1.368 . S
C198 H203 0.931 . S
C199 C198 1.351 . S
C199 N200 1.373 1_455 S
C199 H227 0.930 . S
N200 C199 1.373 1_655 S
N200 C202 1.340 . S
N201 C198 1.368 . S
N201 C202 1.322 1_455 S
N201 Co204 2.135 . S
C202 N200 1.340 . S
C202 N201 1.322 1_655 S
C202 H226 0.930 . S
H203 C198 0.931 . S
Co204 N201 2.135 . S
Co204 N207 2.121 . S
Co204 O212 2.055 . S
Co204 O215 2.039 . S
Co204 N218 2.140 . S
C205 O206 1.227 . S
C205 O215 1.265 . S
O206 C205 1.227 . S
N207 Co204 2.121 . S
N207 C209 1.375 . S
N207 C210 1.313 . S
C208 C209 1.338 . S
C208 N211 1.377 . S
C208 H228 0.930 . S
C209 N207 1.375 . S
C209 C208 1.338 . S
C209 H213 0.931 . S
C210 N207 1.313 . S
C210 N211 1.344 . S
C210 H214 0.930 . S
N211 C208 1.377 . S
N211 C210 1.344 . S
O212 Co204 2.055 . S
O212 C216 1.253 . S
H213 C209 0.931 . S
H214 C210 0.930 . S
O215 Co204 2.039 . S
O215 C205 1.265 . S
C216 O212 1.253 . S
C216 O217 1.227 . S
O217 C216 1.227 . S
N218 Co204 2.140 . S
N218 C221 1.346 . S
N218 C222 1.345 . S
C219 C220 1.387 . S
C219 C223 1.391 . S
C220 C219 1.387 . S
C220 C221 1.369 . S
C220 H229 0.929 . S
C221 N218 1.346 . S
C221 C220 1.369 . S
C221 H224 0.928 . S
C222 N218 1.345 . S
C222 C223 1.371 . S
C222 H225 0.931 . S
C223 C219 1.391 . S
C223 C222 1.371 . S
C223 H230 0.930 . S
H224 C221 0.928 . S
H225 C222 0.931 . S
H226 C202 0.930 . S
H227 C199 0.930 . S
H228 C208 0.930 . S
H229 C220 0.929 . S
H230 C223 0.930 . S
C231 C232 1.351 . S
C231 N234 1.368 1_554 S
C231 H236 0.931 . S
C232 C231 1.351 . S
C232 N233 1.373 1_655 S
C232 H260 0.930 . S
N233 C232 1.373 1_455 S
N233 C235 1.340 1_554 S
N234 C231 1.368 1_556 S
N234 C235 1.322 1_655 S
N234 Co237 2.135 . S
C235 N233 1.340 1_556 S
C235 N234 1.322 1_455 S
C235 H259 0.930 . S
H236 C231 0.931 . S
Co237 N234 2.135 . S
Co237 N240 2.121 . S
Co237 O245 2.055 . S
Co237 O248 2.039 . S
Co237 N251 2.140 . S
C238 O239 1.227 . S
C238 O248 1.265 . S
O239 C238 1.227 . S
N240 Co237 2.121 . S
N240 C242 1.375 . S
N240 C243 1.313 . S
C241 C242 1.338 . S
C241 N244 1.377 . S
C241 H261 0.930 . S
C242 N240 1.375 . S
C242 C241 1.338 . S
C242 H246 0.931 . S
C243 N240 1.313 . S
C243 N244 1.344 . S
C243 H247 0.930 . S
N244 C241 1.377 . S
N244 C243 1.344 . S
O245 Co237 2.055 . S
O245 C249 1.253 . S
H246 C242 0.931 . S
H247 C243 0.930 . S
O248 Co237 2.039 . S
O248 C238 1.265 . S
C249 O245 1.253 . S
C249 O250 1.227 . S
O250 C249 1.227 . S
N251 Co237 2.140 . S
N251 C254 1.346 . S
N251 C255 1.345 . S
C252 C253 1.387 . S
C252 C256 1.391 . S
C253 C252 1.387 . S
C253 C254 1.369 . S
C253 H262 0.929 . S
C254 N251 1.346 . S
C254 C253 1.369 . S
C254 H257 0.928 . S
C255 N251 1.345 . S
C255 C256 1.371 . S
C255 H258 0.931 . S
C256 C252 1.391 . S
C256 C255 1.371 . S
C256 H263 0.930 . S
H257 C254 0.928 . S
H258 C255 0.931 . S
H259 C235 0.930 . S
H260 C232 0.930 . S
H261 C241 0.930 . S
H262 C253 0.929 . S
H263 C256 0.930 . S
C216 N13 1.761 . S
N46 C249 1.761 1_554 S
C84 N145 1.761 . S
C117 N178 1.761 1_556 S
N35 N2 1.485 . S
C73 C106 1.855 . S
N167 N134 1.485 1_455 S
C205 C238 1.855 1_455 S
C183 C21 1.679 . S
C54 C150 1.679 . S
C87 N244 1.341 . S
N211 C120 1.341 . S
C153 C51 1.679 . S
C186 C18 1.679 . S
C219 N112 1.341 . S
N79 C252 1.341 . S
C7 N68 1.568 . S
C40 N101 1.568 . S
N200 C139 1.568 . S
C172 N233 1.568 . S
