# Generated by pormake.
# Topology fnu, (5)-cn, num edge types: 1
# Building blocks:
#     Node 0, Type 0, BuildingBlock: XOMCOT_clean_sbu_0, # of connection points: 5
#     Node 1, Type 0, BuildingBlock: XOMCOT_clean_sbu_0, # of connection points: 5
#     Node 2, Type 0, BuildingBlock: XOMCOT_clean_sbu_0, # of connection points: 5
#     Node 3, Type 0, BuildingBlock: XOMCOT_clean_sbu_0, # of connection points: 5
#     Node 4, Type 0, BuildingBlock: XOMCOT_clean_sbu_0, # of connection points: 5
#     Node 5, Type 0, BuildingBlock: XOMCOT_clean_sbu_0, # of connection points: 5
#     Edge 6, Type (0, 0), None
#     Edge 7, Type (0, 0), None
#     Edge 8, Type (0, 0), None
#     Edge 9, Type (0, 0), None
#     Edge 10, Type (0, 0), None
#     Edge 11, Type (0, 0), None
#     Edge 12, Type (0, 0), None
#     Edge 13, Type (0, 0), None
#     Edge 14, Type (0, 0), None
#     Edge 15, Type (0, 0), None
#     Edge 16, Type (0, 0), None
#     Edge 17, Type (0, 0), None
#     Edge 18, Type (0, 0), None
#     Edge 19, Type (0, 0), None
#     Edge 20, Type (0, 0), None
# Relax obj value: 0.211
# Max RMSD: 0.143
# Mean RMSD: 0.143
data_MOF--net-fnu--node1-XOMCOT_clean_sbu_0--edge1-none
_symmetry_space_group_name_H-M    P1
_symmetry_Int_Tables_number       1
_symmetry_cell_setting            triclinic
loop_
_symmetry_equiv_pos_as_xyz
'x, y, z'
_cell_length_a     12.051445
_cell_length_b     13.898014
_cell_length_c     18.37973
_cell_angle_alpha  89.98812
_cell_angle_beta   97.621861
_cell_angle_gamma 125.21915
loop_
_atom_site_label
_atom_site_type_symbol
_atom_site_fract_x
_atom_site_fract_y
_atom_site_fract_z
_atom_type_partial_charge
Co0 Co 0.15698 0.11637 0.24659 0.0
C1 C 1.0981 0.07749 0.40168 0.0
C2 C 0.30613 0.14198 0.39525 0.0
C3 C 0.29081 0.13605 0.46855 0.0
N4 N 0.1866 0.10801 0.35302 0.0
N5 N 0.16048 0.09515 0.4723 0.0
H6 H 0.99126 1.04437 0.3862 0.0
H7 H 0.39836 0.168 0.37456 0.0
C8 C 0.46557 0.22113 0.21177 0.0
O9 O 0.57915 0.2478 0.25271 0.0
N10 N 0.11828 0.1221 0.14315 0.0
C11 C 0.98971 1.05097 0.10569 0.0
C12 C 0.97941 0.09862 0.04286 0.0
C13 C 0.18365 0.21419 0.10291 0.0
N14 N 1.10434 0.19755 0.03806 0.0
C15 C 0.95936 0.86617 0.22786 0.0
C16 C 1.09674 0.82192 0.13958 0.0
C17 C 0.95387 0.73955 0.13359 0.0
C18 C 0.88644 0.76109 0.18088 0.0
C19 C 0.16488 0.92763 0.18558 0.0
N20 N 1.0943 0.95259 0.22507 0.0
H21 H 0.904 0.88271 0.26146 0.0
H22 H 0.27329 0.99029 0.18649 0.0
H23 H 0.90618 0.97465 0.12607 0.0
H24 H 0.28857 0.29065 0.11956 0.0
O25 O 0.98112 0.08986 0.25154 0.0
O26 O 0.17939 0.26542 0.26105 0.0
O27 O 0.36029 0.18254 0.24456 0.0
C28 C 1.04531 0.20359 0.25096 0.0
H29 H 0.36753 0.1574 0.51547 0.0
H30 H 0.88913 1.05838 1.00092 0.0
H31 H 0.15533 0.80567 0.10821 0.0
H32 H 0.7779 0.69667 0.18219 0.0
Co33 Co 1.10269 0.08923 0.76253 0.0
C34 C 0.16162 0.10922 0.60745 0.0
C35 C 0.95354 0.96572 0.61386 0.0
C36 C 0.96891 0.97509 0.54057 0.0
N37 N 1.07308 1.05127 0.6561 0.0
N38 N 1.09928 1.06444 0.53684 0.0
H39 H 0.26845 0.18297 0.62293 0.0
H40 H 0.86128 0.89954 0.63455 0.0
C41 C 0.7941 0.88537 0.79737 0.0
O42 O 0.6805 0.79848 0.75645 0.0
N43 N 0.1414 0.13364 0.86595 0.0
C44 C 0.27 0.19109 0.90342 0.0
C45 C 0.28031 0.24892 0.9663 0.0
C46 C 1.07598 0.16025 0.90621 0.0
N47 N 0.15534 0.2228 0.97105 0.0
C48 C 0.3003 1.03667 0.78127 0.0
C49 C 0.16294 0.85499 0.86955 0.0
C50 C 0.3058 0.91549 0.87553 0.0
C51 C 0.37323 1.0045 0.82824 0.0
C52 C 1.0948 0.89258 0.82357 0.0
N53 N 0.16537 0.98814 0.78407 0.0
H54 H 0.35566 0.10859 0.74766 0.0
H55 H 0.98639 0.84683 0.82269 0.0
H56 H 0.35354 0.19836 0.88302 0.0
H57 H 0.97106 0.1318 0.88957 0.0
O58 O 0.27855 0.23861 0.75756 0.0
O59 O 1.08029 0.21588 0.74804 0.0
O60 O 0.89938 0.95208 0.76457 0.0
C61 C 0.21436 0.28814 0.75815 0.0
H62 H 0.89218 0.91978 0.49365 0.0
H63 H 0.37057 0.29898 0.00825 0.0
H64 H 1.10436 0.78012 0.90093 0.0
H65 H 0.48176 1.04863 0.82692 0.0
Co66 Co 0.82365 0.44969 0.57992 0.0
C67 C 0.76477 0.41083 0.73501 0.0
C68 C 0.9728 0.47531 0.72859 0.0
C69 C 0.95748 0.46939 0.80188 0.0
N70 N 0.85327 0.44134 0.68635 0.0
N71 N 0.82716 0.4285 0.80563 0.0
H72 H 0.65793 0.37772 0.71953 0.0
H73 H 1.06503 0.50132 0.7079 0.0
C74 C 0.13224 0.55445 0.54511 0.0
O75 O 0.24582 0.58112 0.58604 0.0
N76 N 0.78495 0.45542 0.47649 0.0
C77 C 0.65638 0.38429 0.43903 0.0
C78 C 0.64608 0.43194 0.3762 0.0
C79 C 0.85031 0.54751 0.43624 0.0
N80 N 0.771 0.53088 0.3714 0.0
C81 C 0.62603 0.19949 0.5612 0.0
C82 C 0.76341 0.15525 0.47292 0.0
C83 C 0.62054 0.07288 0.46693 0.0
C84 C 0.55311 0.09441 0.51422 0.0
C85 C 0.83155 0.26095 0.51892 0.0
N86 N 0.76097 0.28592 0.55841 0.0
H87 H 0.57068 0.21604 0.5948 0.0
H88 H 0.93997 0.32361 0.51982 0.0
H89 H 0.57285 0.30796 0.45941 0.0
H90 H 0.95524 0.62397 0.4529 0.0
O91 O 0.64779 0.42319 0.58487 0.0
O92 O 0.84606 0.59875 0.59438 0.0
O93 O 1.02696 0.51587 0.57789 0.0
C94 C 0.71198 0.53691 0.58429 0.0
H95 H 1.03419 0.49074 0.84881 0.0
H96 H 0.5558 0.3917 0.33426 0.0
H97 H 0.822 0.13899 0.44155 0.0
H98 H 0.44457 1.02999 0.51553 0.0
Co99 Co 0.76935 0.42258 0.09586 0.0
C100 C 0.82828 0.44259 0.94078 0.0
C101 C 0.62021 0.29907 0.94719 0.0
C102 C 0.63558 0.30843 0.8739 0.0
N103 N 0.73974 0.38463 0.98943 0.0
N104 N 0.76595 0.3978 0.87017 0.0
H105 H 0.93512 0.51634 0.95626 0.0
H106 H 0.52796 0.23288 0.96789 0.0
C107 C 0.46076 0.2187 0.13069 0.0
O108 O 0.34714 0.13183 0.08978 0.0
N109 N 0.80806 0.46698 0.19929 0.0
C110 C 0.93666 0.52442 0.23676 0.0
C111 C 0.94697 0.58225 0.29964 0.0
C112 C 0.74264 0.49359 0.23955 0.0
N113 N 0.822 0.55613 0.30439 0.0
C114 C 0.96697 0.37002 0.11459 0.0
C115 C 0.82958 0.18833 0.20288 0.0
C116 C 0.97243 0.24882 0.20884 0.0
C117 C 1.03989 0.33784 0.16157 0.0
C118 C 0.76144 0.22592 0.15689 0.0
N119 N 0.83203 0.32149 0.11739 0.0
H120 H 1.02232 0.44194 0.08099 0.0
H121 H 0.65304 0.18018 0.156 0.0
H122 H 1.02019 0.53169 0.21635 0.0
H123 H 0.63773 0.46514 0.22291 0.0
O124 O 0.94523 0.57196 0.0909 0.0
O125 O 0.74691 0.54922 0.08138 0.0
O126 O 0.56604 0.28542 0.0979 0.0
C127 C 0.88099 0.62143 0.09149 0.0
H128 H 0.55886 0.25311 0.82698 0.0
H129 H 1.03722 0.6323 0.34159 0.0
H130 H 0.77099 0.11347 0.23426 0.0
H131 H 0.14842 0.38197 0.16026 0.0
Co132 Co 0.49032 0.78303 0.91326 0.0
C133 C 0.43144 0.74418 0.06835 0.0
C134 C 0.63946 0.80865 0.06193 0.0
C135 C 0.62414 0.80272 0.13522 0.0
N136 N 0.51993 0.77469 0.01969 0.0
N137 N 0.49382 0.76184 0.13897 0.0
H138 H 0.3246 0.71107 0.05287 0.0
H139 H 0.73169 0.83465 0.04124 0.0
C140 C 0.79891 0.88776 0.87845 0.0
O141 O 0.91251 0.91449 0.91938 0.0
N142 N 0.45163 0.78875 0.80982 0.0
C143 C 0.32306 0.71761 0.77236 0.0
C144 C 0.31275 0.76526 0.70953 0.0
C145 C 0.51699 0.88084 0.76957 0.0
N146 N 0.43768 0.8642 0.70473 0.0
C147 C 0.2927 0.53283 0.89453 0.0
C148 C 0.4301 0.4886 0.80626 0.0
C149 C 0.28724 0.40623 0.80028 0.0
C150 C 0.21978 0.42775 0.84755 0.0
C151 C 0.49824 0.59429 0.85227 0.0
N152 N 0.42765 0.61926 0.89175 0.0
H153 H 0.23734 0.54937 0.92813 0.0
H154 H 0.60665 0.65696 0.85317 0.0
H155 H 0.23953 0.64129 0.79274 0.0
H156 H 0.62191 0.9573 0.78623 0.0
O157 O 0.31444 0.7565 0.9182 0.0
O158 O 0.51276 0.93211 0.92771 0.0
O159 O 0.69363 0.8492 0.91123 0.0
C160 C 0.37869 0.87023 0.9176 0.0
H161 H 0.70085 0.82408 0.18214 0.0
H162 H 0.22247 0.72503 0.66759 0.0
H163 H 0.48869 0.47234 0.77489 0.0
H164 H 1.11124 0.36333 0.84885 0.0
Co165 Co 0.43602 0.7559 0.42919 0.0
C166 C 0.49494 0.77592 0.27412 0.0
C167 C 0.28687 0.63241 0.28053 0.0
C168 C 0.30224 0.64178 0.20724 0.0
N169 N 0.40641 0.71796 0.32277 0.0
N170 N 0.43261 0.73114 0.20351 0.0
H171 H 0.60178 0.84966 0.2896 0.0
H172 H 0.19461 0.56622 0.30122 0.0
C173 C 0.12743 0.55203 0.46403 0.0
O174 O 1.0138 0.46516 0.42311 0.0
N175 N 0.47473 0.8003 0.53262 0.0
C176 C 0.60332 0.85773 0.57009 0.0
C177 C 0.61364 0.91557 0.63297 0.0
C178 C 0.40932 0.82691 0.57288 0.0
N179 N 0.48867 0.88946 0.63772 0.0
C180 C 0.63363 0.70334 0.44792 0.0
C181 C 0.49625 0.52165 0.53621 0.0
C182 C 0.6391 0.58214 0.54217 0.0
C183 C 0.70655 0.67116 0.4949 0.0
C184 C 0.42811 0.55924 0.49022 0.0
N185 N 0.49869 0.65481 0.45072 0.0
H186 H 0.68899 0.77526 0.41432 0.0
H187 H 0.3197 0.5135 0.48933 0.0
H188 H 0.68685 0.865 0.54969 0.0
H189 H 0.3044 0.79847 0.55624 0.0
O190 O 0.6119 0.90528 0.42424 0.0
O191 O 0.41358 0.88255 0.41472 0.0
O192 O 0.2327 0.61874 0.43123 0.0
C193 C 0.54766 0.95476 0.42483 0.0
H194 H 0.22551 0.58646 0.16031 0.0
H195 H 0.7039 0.96562 0.67492 0.0
H196 H 0.43766 0.44679 0.56759 0.0
H197 H 0.81509 0.7153 0.49359 0.0
loop_
_geom_bond_atom_site_label_1
_geom_bond_atom_site_label_2
_geom_bond_distance
_geom_bond_site_symmetry_2
_ccdc_geom_bond_type
Co0 N4 2.148 . S
Co0 N10 2.128 . S
Co0 N20 2.194 1_445 S
Co0 O25 2.351 1_455 S
Co0 O26 2.155 . S
Co0 O27 2.096 . S
C1 N4 1.301 . S
C1 N5 1.328 . S
C1 H6 0.930 1_455 S
C2 C3 1.333 . S
C2 N4 1.317 . S
C2 H7 0.930 . S
C3 C2 1.333 . S
C3 N5 1.350 . S
C3 H29 0.931 . S
N4 Co0 2.148 . S
N4 C1 1.301 . S
N4 C2 1.317 . S
N5 C1 1.328 . S
N5 C3 1.350 . S
H6 C1 0.930 1_655 S
H7 C2 0.930 . S
C8 O9 1.224 . S
C8 O27 1.247 . S
O9 C8 1.224 . S
N10 Co0 2.128 . S
N10 C11 1.355 1_445 S
N10 C13 1.311 . S
C11 N10 1.355 1_665 S
C11 C12 1.363 1_554 S
C11 H23 0.929 . S
C12 C11 1.363 1_556 S
C12 N14 1.375 1_665 S
C12 H30 0.931 . S
C13 N10 1.311 . S
C13 N14 1.347 1_554 S
C13 H24 0.929 . S
N14 C12 1.375 1_445 S
N14 C13 1.347 1_556 S
C15 C18 1.365 . S
C15 N20 1.328 . S
C15 H21 0.929 . S
C16 C17 1.362 . S
C16 C19 1.378 1_655 S
C16 H31 0.929 1_655 S
C17 C16 1.362 . S
C17 C18 1.366 . S
C18 C15 1.365 . S
C18 C17 1.366 . S
C18 H32 0.930 . S
C19 C16 1.378 1_455 S
C19 N20 1.315 1_455 S
C19 H22 0.930 . S
N20 Co0 2.194 1_665 S
N20 C15 1.328 . S
N20 C19 1.315 1_655 S
H21 C15 0.929 . S
H22 C19 0.930 . S
H23 C11 0.929 . S
H24 C13 0.929 . S
O25 Co0 2.351 1_655 S
O25 C28 1.244 . S
O26 Co0 2.155 . S
O26 C28 1.240 1_455 S
O27 Co0 2.096 . S
O27 C8 1.247 . S
C28 O25 1.244 . S
C28 O26 1.240 1_655 S
H29 C3 0.931 . S
H30 C12 0.931 . S
H31 C16 0.929 1_455 S
H32 C18 0.930 . S
Co33 N37 2.148 . S
Co33 N43 2.128 1_655 S
Co33 N53 2.194 1_645 S
Co33 O58 2.351 1_655 S
Co33 O59 2.155 1_655 S
Co33 O60 2.096 1_545 S
C34 N37 1.301 1_455 S
C34 N38 1.328 1_455 S
C34 H39 0.930 . S
C35 C36 1.333 . S
C35 N37 1.317 1_565 S
C35 H40 0.930 . S
C36 C35 1.333 . S
C36 N38 1.350 1_565 S
C36 H62 0.931 . S
N37 Co33 2.148 . S
N37 C34 1.301 1_655 S
N37 C35 1.317 1_545 S
N38 C34 1.328 1_655 S
N38 C36 1.350 1_545 S
H39 C34 0.930 . S
H40 C35 0.930 . S
C41 O42 1.224 . S
C41 O60 1.247 . S
O42 C41 1.224 . S
N43 Co33 2.128 1_455 S
N43 C44 1.355 . S
N43 C46 1.311 1_455 S
C44 N43 1.355 . S
C44 C45 1.363 1_556 S
C44 H56 0.929 . S
C45 C44 1.363 1_554 S
C45 N47 1.375 . S
C45 H63 0.931 . S
C46 N43 1.311 1_655 S
C46 N47 1.347 1_656 S
C46 H57 0.929 1_545 S
N47 C45 1.375 . S
N47 C46 1.347 1_454 S
C48 C51 1.365 1_545 S
C48 N53 1.328 1_545 S
C48 H54 0.929 . S
C49 C50 1.362 . S
C49 C52 1.378 . S
C49 H64 0.929 . S
C50 C49 1.362 . S
C50 C51 1.366 . S
C51 C48 1.365 1_565 S
C51 C50 1.366 . S
C51 H65 0.930 . S
C52 C49 1.378 . S
C52 N53 1.315 . S
C52 H55 0.930 1_455 S
N53 Co33 2.194 1_465 S
N53 C48 1.328 1_565 S
N53 C52 1.315 . S
H54 C48 0.929 . S
H55 C52 0.930 1_655 S
H56 C44 0.929 . S
H57 C46 0.929 1_565 S
O58 Co33 2.351 1_455 S
O58 C61 1.244 . S
O59 Co33 2.155 1_455 S
O59 C61 1.240 . S
O60 Co33 2.096 1_565 S
O60 C41 1.247 . S
C61 O58 1.244 . S
C61 O59 1.240 . S
H62 C36 0.931 . S
H63 C45 0.931 . S
H64 C49 0.929 . S
H65 C51 0.930 . S
Co66 N70 2.148 . S
Co66 N76 2.128 . S
Co66 N86 2.194 . S
Co66 O91 2.351 . S
Co66 O92 2.155 . S
Co66 O93 2.096 . S
C67 N70 1.301 . S
C67 N71 1.328 . S
C67 H72 0.930 . S
C68 C69 1.333 . S
C68 N70 1.317 . S
C68 H73 0.930 . S
C69 C68 1.333 . S
C69 N71 1.350 . S
C69 H95 0.931 . S
N70 Co66 2.148 . S
N70 C67 1.301 . S
N70 C68 1.317 . S
N71 C67 1.328 . S
N71 C69 1.350 . S
H72 C67 0.930 . S
H73 C68 0.930 . S
C74 O75 1.224 . S
C74 O93 1.247 . S
O75 C74 1.224 . S
N76 Co66 2.128 . S
N76 C77 1.355 . S
N76 C79 1.311 . S
C77 N76 1.355 . S
C77 C78 1.363 . S
C77 H89 0.929 . S
C78 C77 1.363 . S
C78 N80 1.375 . S
C78 H96 0.931 . S
C79 N76 1.311 . S
C79 N80 1.347 . S
C79 H90 0.929 . S
N80 C78 1.375 . S
N80 C79 1.347 . S
C81 C84 1.365 . S
C81 N86 1.328 . S
C81 H87 0.929 . S
C82 C83 1.362 . S
C82 C85 1.378 . S
C82 H97 0.929 . S
C83 C82 1.362 . S
C83 C84 1.366 . S
C84 C81 1.365 . S
C84 C83 1.366 . S
C84 H98 0.930 . S
C85 C82 1.378 . S
C85 N86 1.315 . S
C85 H88 0.930 . S
N86 Co66 2.194 . S
N86 C81 1.328 . S
N86 C85 1.315 . S
H87 C81 0.929 . S
H88 C85 0.930 . S
H89 C77 0.929 . S
H90 C79 0.929 . S
O91 Co66 2.351 . S
O91 C94 1.244 . S
O92 Co66 2.155 . S
O92 C94 1.240 . S
O93 Co66 2.096 . S
O93 C74 1.247 . S
C94 O91 1.244 . S
C94 O92 1.240 . S
H95 C69 0.931 . S
H96 C78 0.931 . S
H97 C82 0.929 . S
H98 C84 0.930 . S
Co99 N103 2.148 . S
Co99 N109 2.128 . S
Co99 N119 2.194 . S
Co99 O124 2.351 . S
Co99 O125 2.155 . S
Co99 O126 2.096 . S
C100 N103 1.301 1_556 S
C100 N104 1.328 . S
C100 H105 0.930 . S
C101 C102 1.333 . S
C101 N103 1.317 1_556 S
C101 H106 0.930 . S
C102 C101 1.333 . S
C102 N104 1.350 . S
C102 H128 0.931 . S
N103 Co99 2.148 . S
N103 C100 1.301 1_554 S
N103 C101 1.317 1_554 S
N104 C100 1.328 . S
N104 C102 1.350 . S
H105 C100 0.930 . S
H106 C101 0.930 . S
C107 O108 1.224 . S
C107 O126 1.247 . S
O108 C107 1.224 . S
N109 Co99 2.128 . S
N109 C110 1.355 . S
N109 C112 1.311 . S
C110 N109 1.355 . S
C110 C111 1.363 . S
C110 H122 0.929 . S
C111 C110 1.363 . S
C111 N113 1.375 . S
C111 H129 0.931 . S
C112 N109 1.311 . S
C112 N113 1.347 . S
C112 H123 0.929 . S
N113 C111 1.375 . S
N113 C112 1.347 . S
C114 C117 1.365 . S
C114 N119 1.328 . S
C114 H120 0.929 . S
C115 C116 1.362 . S
C115 C118 1.378 . S
C115 H130 0.929 . S
C116 C115 1.362 . S
C116 C117 1.366 . S
C117 C114 1.365 . S
C117 C116 1.366 . S
C117 H131 0.930 . S
C118 C115 1.378 . S
C118 N119 1.315 . S
C118 H121 0.930 . S
N119 Co99 2.194 . S
N119 C114 1.328 . S
N119 C118 1.315 . S
H120 C114 0.929 . S
H121 C118 0.930 . S
H122 C110 0.929 . S
H123 C112 0.929 . S
O124 Co99 2.351 . S
O124 C127 1.244 . S
O125 Co99 2.155 . S
O125 C127 1.240 . S
O126 Co99 2.096 . S
O126 C107 1.247 . S
C127 O124 1.244 . S
C127 O125 1.240 . S
H128 C102 0.931 . S
H129 C111 0.931 . S
H130 C115 0.929 . S
H131 C117 0.930 . S
Co132 N136 2.148 . S
Co132 N142 2.128 . S
Co132 N152 2.194 . S
Co132 O157 2.351 . S
Co132 O158 2.155 . S
Co132 O159 2.096 . S
C133 N136 1.301 1_554 S
C133 N137 1.328 . S
C133 H138 0.930 . S
C134 C135 1.333 . S
C134 N136 1.317 1_554 S
C134 H139 0.930 . S
C135 C134 1.333 . S
C135 N137 1.350 . S
C135 H161 0.931 . S
N136 Co132 2.148 . S
N136 C133 1.301 1_556 S
N136 C134 1.317 1_556 S
N137 C133 1.328 . S
N137 C135 1.350 . S
H138 C133 0.930 . S
H139 C134 0.930 . S
C140 O141 1.224 . S
C140 O159 1.247 . S
O141 C140 1.224 . S
N142 Co132 2.128 . S
N142 C143 1.355 . S
N142 C145 1.311 . S
C143 N142 1.355 . S
C143 C144 1.363 . S
C143 H155 0.929 . S
C144 C143 1.363 . S
C144 N146 1.375 . S
C144 H162 0.931 . S
C145 N142 1.311 . S
C145 N146 1.347 . S
C145 H156 0.929 . S
N146 C144 1.375 . S
N146 C145 1.347 . S
C147 C150 1.365 . S
C147 N152 1.328 . S
C147 H153 0.929 . S
C148 C149 1.362 . S
C148 C151 1.378 . S
C148 H163 0.929 . S
C149 C148 1.362 . S
C149 C150 1.366 . S
C150 C147 1.365 . S
C150 C149 1.366 . S
C150 H164 0.930 . S
C151 C148 1.378 . S
C151 N152 1.315 . S
C151 H154 0.930 . S
N152 Co132 2.194 . S
N152 C147 1.328 . S
N152 C151 1.315 . S
H153 C147 0.929 . S
H154 C151 0.930 . S
H155 C143 0.929 . S
H156 C145 0.929 . S
O157 Co132 2.351 . S
O157 C160 1.244 . S
O158 Co132 2.155 . S
O158 C160 1.240 . S
O159 Co132 2.096 . S
O159 C140 1.247 . S
C160 O157 1.244 . S
C160 O158 1.240 . S
H161 C135 0.931 . S
H162 C144 0.931 . S
H163 C148 0.929 . S
H164 C150 0.930 . S
Co165 N169 2.148 . S
Co165 N175 2.128 . S
Co165 N185 2.194 . S
Co165 O190 2.351 . S
Co165 O191 2.155 . S
Co165 O192 2.096 . S
C166 N169 1.301 . S
C166 N170 1.328 . S
C166 H171 0.930 . S
C167 C168 1.333 . S
C167 N169 1.317 . S
C167 H172 0.930 . S
C168 C167 1.333 . S
C168 N170 1.350 . S
C168 H194 0.931 . S
N169 Co165 2.148 . S
N169 C166 1.301 . S
N169 C167 1.317 . S
N170 C166 1.328 . S
N170 C168 1.350 . S
H171 C166 0.930 . S
H172 C167 0.930 . S
C173 O174 1.224 . S
C173 O192 1.247 . S
O174 C173 1.224 . S
N175 Co165 2.128 . S
N175 C176 1.355 . S
N175 C178 1.311 . S
C176 N175 1.355 . S
C176 C177 1.363 . S
C176 H188 0.929 . S
C177 C176 1.363 . S
C177 N179 1.375 . S
C177 H195 0.931 . S
C178 N175 1.311 . S
C178 N179 1.347 . S
C178 H189 0.929 . S
N179 C177 1.375 . S
N179 C178 1.347 . S
C180 C183 1.365 . S
C180 N185 1.328 . S
C180 H186 0.929 . S
C181 C182 1.362 . S
C181 C184 1.378 . S
C181 H196 0.929 . S
C182 C181 1.362 . S
C182 C183 1.366 . S
C183 C180 1.365 . S
C183 C182 1.366 . S
C183 H197 0.930 . S
C184 C181 1.378 . S
C184 N185 1.315 . S
C184 H187 0.930 . S
N185 Co165 2.194 . S
N185 C180 1.328 . S
N185 C184 1.315 . S
H186 C180 0.929 . S
H187 C184 0.930 . S
H188 C176 0.929 . S
H189 C178 0.929 . S
O190 Co165 2.351 . S
O190 C193 1.244 . S
O191 Co165 2.155 . S
O191 C193 1.240 . S
O192 Co165 2.096 . S
O192 C173 1.247 . S
C193 O190 1.244 . S
C193 O191 1.240 . S
H194 C168 0.931 . S
H195 C177 0.931 . S
H196 C181 0.929 . S
H197 C183 0.930 . S
C8 C107 2.321 . S
C28 C116 2.162 . S
C127 C17 2.162 . S
C61 C149 2.162 . S
C140 C41 2.321 . S
C50 C160 2.162 . S
C74 C173 2.321 1_655 S
C94 C182 2.162 . S
C193 C83 2.162 1_565 S
N38 N5 2.581 1_655 S
N104 N71 2.581 . S
N170 N137 2.581 . S
N14 N47 0.677 1_556 S
N113 N80 0.677 . S
N179 N146 0.677 . S
