# Generated by pormake.
# Topology qtz, (4)-cn, num edge types: 1
# Building blocks:
#     Node 0, Type 0, BuildingBlock: QUQFOY_clean_sbu_1, # of connection points: 4
#     Node 1, Type 0, BuildingBlock: QUQFOY_clean_sbu_1, # of connection points: 4
#     Node 2, Type 0, BuildingBlock: QUQFOY_clean_sbu_1, # of connection points: 4
#     Edge 3, Type (0, 0), BuildingBlock: TEMPAE_clean_linker_10, # of connection points: 2
#     Edge 4, Type (0, 0), BuildingBlock: TEMPAE_clean_linker_10, # of connection points: 2
#     Edge 5, Type (0, 0), BuildingBlock: TEMPAE_clean_linker_10, # of connection points: 2
#     Edge 6, Type (0, 0), BuildingBlock: TEMPAE_clean_linker_10, # of connection points: 2
#     Edge 7, Type (0, 0), BuildingBlock: TEMPAE_clean_linker_10, # of connection points: 2
#     Edge 8, Type (0, 0), BuildingBlock: TEMPAE_clean_linker_10, # of connection points: 2
# Relax obj value: 0.038
# Max RMSD: 0.133
# Mean RMSD: 0.103
data_MOF--net-qtz--node1-QUQFOY_clean_sbu_1--edge1-TEMPAE_clean_linker_10
_symmetry_space_group_name_H-M    P1
_symmetry_Int_Tables_number       1
_symmetry_cell_setting            triclinic
loop_
_symmetry_equiv_pos_as_xyz
'x, y, z'
_cell_length_a     22.597272
_cell_length_b     25.831411
_cell_length_c     30.487251
_cell_angle_alpha  89.850983
_cell_angle_beta   90.064203
_cell_angle_gamma 120.45986
loop_
_atom_site_label
_atom_site_type_symbol
_atom_site_fract_x
_atom_site_fract_y
_atom_site_fract_z
_atom_type_partial_charge
O0 O 0.90415 0.49405 0.12182 0.0
Cd1 Cd 0.95656 0.45953 0.15406 0.0
Cd2 Cd 0.05815 0.57308 0.15404 0.0
O3 O 0.99205 0.58624 0.11518 0.0
O4 O 0.88523 0.37848 0.17462 0.0
O5 O 0.95308 0.45166 0.21982 0.0
C6 C 0.9036 0.39707 0.21425 0.0
C7 C 0.1093 0.63547 0.21432 0.0
C8 C 0.92999 0.54717 0.10699 0.0
C9 C 0.08583 0.48541 0.10852 0.0
O10 O 0.11136 0.53857 0.12302 0.0
O11 O 0.02361 0.44634 0.11638 0.0
O12 O 0.12885 0.6541 0.17478 0.0
O13 O 0.05973 0.58085 0.21974 0.0
O14 O 0.54497 0.1031 0.45207 0.0
Cd15 Cd 0.46647 0.04352 0.49226 0.0
Cd16 Cd 0.54091 0.98973 0.49277 0.0
O17 O 0.61551 0.06939 0.46482 0.0
O18 O 0.42096 0.08738 0.51417 0.0
O19 O 0.48022 0.06035 0.55679 0.0
C20 C 0.44623 0.08795 0.55224 0.0
C21 C 0.56236 0.94521 0.55246 0.0
C22 C 0.60351 0.108 0.44752 0.0
C23 C 0.40372 0.92495 0.44807 0.0
O24 O 0.46224 0.92988 0.45296 0.0
O25 O 0.39168 0.96374 0.46479 0.0
O26 O 0.58691 0.94591 0.51415 0.0
O27 O 0.52841 0.97274 0.55741 0.0
O28 O 0.43269 0.54128 0.86217 0.0
Cd29 Cd 0.52416 0.57701 0.82877 0.0
Cd30 Cd 0.49024 0.45611 0.82898 0.0
O31 O 0.40848 0.44704 0.86535 0.0
O32 O 0.54959 0.66168 0.81636 0.0
O33 O 0.52737 0.59508 0.76411 0.0
C34 C 0.54378 0.64899 0.7752 0.0
C35 C 0.46908 0.38393 0.77552 0.0
C36 C 0.39439 0.48743 0.875 0.0
C37 C 0.62144 0.54601 0.87348 0.0
O38 O 0.58273 0.49206 0.86117 0.0
O39 O 0.60704 0.58632 0.86401 0.0
O40 O 0.46459 0.37143 0.81672 0.0
O41 O 0.48498 0.43775 0.76434 0.0
C42 C 0.30759 0.5096 0.90593 0.0
C43 C 0.33751 0.47358 0.90548 0.0
C44 C 0.26081 0.50282 0.93876 0.0
C45 C 0.24495 0.45996 0.97252 0.0
C46 C 0.27267 0.42165 0.97118 0.0
C47 C 0.31816 0.4285 0.93732 0.0
C48 C 0.23092 0.54352 0.93844 0.0
C49 C 0.25777 0.37607 0.00692 0.0
C50 C 0.19846 0.50599 0.07882 0.0
C51 C 0.12665 0.47151 0.0781 0.0
C52 C 0.23777 0.49988 0.04593 0.0
C53 C 0.20429 0.45931 0.01099 0.0
C54 C 0.13193 0.42233 0.01119 0.0
C55 C 0.09392 0.42844 0.04508 0.0
C56 C 0.315 0.53907 0.04746 0.0
C57 C 0.09438 0.37918 0.9742 0.0
H58 H 0.32208 0.54417 0.88115 0.0
H59 H 0.34161 0.40084 0.93727 0.0
H60 H 0.1744 0.51686 0.94274 0.0
H61 H 0.2522 0.57542 0.96627 0.0
H62 H 0.24256 0.5698 0.90753 0.0
H63 H 0.2771 0.34542 0.9986 0.0
H64 H 0.28266 0.39978 0.03782 0.0
H65 H 0.20181 0.34882 0.01331 0.0
H66 H 0.2239 0.53899 0.1045 0.0
H67 H 0.03833 0.40198 0.04424 0.0
H68 H 0.33257 0.57276 0.02063 0.0
H69 H 0.33946 0.51162 0.04233 0.0
H70 H 0.33326 0.56325 0.07914 0.0
H71 H 0.09869 0.40497 0.94401 0.0
H72 H 0.03907 0.34894 0.98169 0.0
H73 H 0.11781 0.3514 0.96701 0.0
C74 C 0.81462 0.29779 0.24426 0.0
C75 C 0.86739 0.357 0.25186 0.0
C76 C 0.777 0.25973 0.27904 0.0
C77 C 0.79244 0.2813 0.32261 0.0
C78 C 0.84671 0.34056 0.3307 0.0
C79 C 0.88361 0.3778 0.29517 0.0
C80 C 0.71954 0.19681 0.269 0.0
C81 C 0.86468 0.365 0.37675 0.0
C82 C 0.64255 0.19935 0.40074 0.0
C83 C 0.65607 0.15682 0.41966 0.0
C84 C 0.68826 0.24205 0.37066 0.0
C85 C 0.74908 0.24234 0.35918 0.0
C86 C 0.76477 0.20152 0.37971 0.0
C87 C 0.71804 0.15919 0.40973 0.0
C88 C 0.66973 0.28495 0.34959 0.0
C89 C 0.82931 0.20067 0.36845 0.0
H90 H 0.80189 0.28122 0.21094 0.0
H91 H 0.92441 0.42348 0.3013 0.0
H92 H 0.72724 0.16352 0.28732 0.0
H93 H 0.66983 0.19136 0.27986 0.0
H94 H 0.71589 0.18618 0.23346 0.0
H95 H 0.91098 0.41062 0.37771 0.0
H96 H 0.82101 0.36716 0.39131 0.0
H97 H 0.87386 0.33458 0.39771 0.0
H98 H 0.59513 0.19829 0.40843 0.0
H99 H 0.72917 0.12675 0.42433 0.0
H100 H 0.65916 0.2743 0.31419 0.0
H101 H 0.71326 0.33178 0.35205 0.0
H102 H 0.62374 0.28247 0.36485 0.0
H103 H 0.82588 0.18474 0.33427 0.0
H104 H 0.83768 0.17078 0.39063 0.0
H105 H 0.87473 0.24663 0.37024 0.0
C106 C 0.51939 0.88701 0.62224 0.0
C107 C 0.56799 0.9093 0.58834 0.0
C108 C 0.51835 0.84619 0.65319 0.0
C109 C 0.56812 0.82837 0.65073 0.0
C110 C 0.61929 0.85297 0.61778 0.0
C111 C 0.61809 0.89258 0.58664 0.0
C112 C 0.46232 0.8203 0.68743 0.0
C113 C 0.67432 0.83638 0.6148 0.0
C114 C 0.59105 0.75595 0.753 0.0
C115 C 0.55365 0.69478 0.74219 0.0
C116 C 0.59787 0.80006 0.72309 0.0
C117 C 0.56511 0.78246 0.68176 0.0
C118 C 0.52786 0.72075 0.67048 0.0
C119 C 0.52327 0.67765 0.70067 0.0
C120 C 0.63945 0.86542 0.73592 0.0
C121 C 0.49126 0.70012 0.62699 0.0
H122 H 0.48018 0.89938 0.62345 0.0
H123 H 0.65595 0.90992 0.56058 0.0
H124 H 0.43041 0.77093 0.68313 0.0
H125 H 0.48502 0.82843 0.72075 0.0
H126 H 0.42843 0.83979 0.68551 0.0
H127 H 0.71349 0.86307 0.58948 0.0
H128 H 0.70041 0.84337 0.64693 0.0
H129 H 0.65072 0.78808 0.60659 0.0
H130 H 0.61508 0.76943 0.78498 0.0
H131 H 0.49397 0.6304 0.6923 0.0
H132 H 0.60566 0.88492 0.73766 0.0
H133 H 0.67912 0.89108 0.71068 0.0
H134 H 0.6652 0.8718 0.76816 0.0
H135 H 0.45267 0.71442 0.62391 0.0
H136 H 0.46478 0.65057 0.62314 0.0
H137 H 0.52831 0.72136 0.59966 0.0
C138 C 0.70874 0.52382 0.90373 0.0
C139 C 0.67908 0.56005 0.90337 0.0
C140 C 0.7559 0.53053 0.93632 0.0
C141 C 0.77243 0.57354 0.96989 0.0
C142 C 0.74517 0.6122 0.9685 0.0
C143 C 0.69927 0.6054 0.9349 0.0
C144 C 0.7853 0.48947 0.93603 0.0
C145 C 0.76082 0.65799 0.00404 0.0
C146 C 0.81785 0.52692 0.07661 0.0
C147 C 0.88967 0.56108 0.07603 0.0
C148 C 0.77894 0.53325 0.04347 0.0
C149 C 0.81283 0.57371 0.0084 0.0
C150 C 0.88524 0.61027 0.00867 0.0
C151 C 0.92285 0.60394 0.04281 0.0
C152 C 0.70165 0.4945 0.04492 0.0
C153 C 0.92321 0.65325 0.97155 0.0
H154 H 0.69362 0.48905 0.87917 0.0
H155 H 0.67606 0.63326 0.9349 0.0
H156 H 0.84184 0.5158 0.94036 0.0
H157 H 0.76375 0.45741 0.96386 0.0
H158 H 0.77351 0.46337 0.90512 0.0
H159 H 0.74212 0.6891 0.99554 0.0
H160 H 0.73577 0.63447 0.03502 0.0
H161 H 0.81683 0.68474 0.01036 0.0
H162 H 0.79207 0.49407 0.10243 0.0
H163 H 0.97847 0.63013 0.04208 0.0
H164 H 0.68386 0.46096 0.01809 0.0
H165 H 0.67764 0.52234 0.03973 0.0
H166 H 0.6831 0.47016 0.0766 0.0
H167 H 0.91864 0.62734 0.94148 0.0
H168 H 0.97858 0.68311 0.97904 0.0
H169 H 0.9003 0.68143 0.96414 0.0
C170 C 0.28988 0.87389 0.40945 0.0
C171 C 0.35136 0.8759 0.4204 0.0
C172 C 0.24364 0.83145 0.3794 0.0
C173 C 0.25933 0.79015 0.35989 0.0
C174 C 0.31953 0.79 0.3725 0.0
C175 C 0.36475 0.83282 0.40257 0.0
C176 C 0.17973 0.83275 0.36694 0.0
C177 C 0.33803 0.74658 0.35256 0.0
C178 C 0.1264 0.65489 0.29532 0.0
C179 C 0.14428 0.67556 0.25203 0.0
C180 C 0.16213 0.69216 0.33101 0.0
C181 C 0.21694 0.75128 0.32309 0.0
C182 C 0.23401 0.77274 0.2795 0.0
C183 C 0.19751 0.73468 0.24457 0.0
C184 C 0.14238 0.66786 0.37707 0.0
C185 C 0.29211 0.83552 0.26963 0.0
H186 H 0.27886 0.90675 0.42321 0.0
H187 H 0.41176 0.83356 0.41109 0.0
H188 H 0.18442 0.84885 0.33263 0.0
H189 H 0.13403 0.78691 0.36845 0.0
H190 H 0.17096 0.86275 0.38859 0.0
H191 H 0.38328 0.74868 0.36873 0.0
H192 H 0.29408 0.69993 0.35494 0.0
H193 H 0.34981 0.75705 0.31721 0.0
H194 H 0.08521 0.6093 0.30135 0.0
H195 H 0.21152 0.75115 0.21126 0.0
H196 H 0.13304 0.69862 0.39735 0.0
H197 H 0.18523 0.66521 0.39254 0.0
H198 H 0.09569 0.62247 0.37781 0.0
H199 H 0.28414 0.86901 0.28726 0.0
H200 H 0.297 0.84611 0.23401 0.0
H201 H 0.3413 0.84068 0.2814 0.0
C202 C 0.42267 0.27698 0.75393 0.0
C203 C 0.4584 0.33806 0.74253 0.0
C204 C 0.41528 0.23289 0.724 0.0
C205 C 0.44572 0.25042 0.68198 0.0
C206 C 0.48119 0.31201 0.67009 0.0
C207 C 0.48644 0.35507 0.70037 0.0
C208 C 0.37565 0.16763 0.73753 0.0
C209 C 0.51529 0.33258 0.62583 0.0
C210 C 0.49164 0.14724 0.62116 0.0
C211 C 0.44139 0.12381 0.58829 0.0
C212 C 0.49324 0.18805 0.65216 0.0
C213 C 0.44231 0.20461 0.65088 0.0
C214 C 0.38955 0.17884 0.61901 0.0
C215 C 0.39026 0.13935 0.58771 0.0
C216 C 0.551 0.21527 0.68516 0.0
C217 C 0.33327 0.19402 0.61734 0.0
H218 H 0.40045 0.26356 0.7864 0.0
H219 H 0.51443 0.40224 0.69152 0.0
H220 H 0.33496 0.14113 0.71311 0.0
H221 H 0.41045 0.14909 0.73846 0.0
H222 H 0.35142 0.1612 0.77031 0.0
H223 H 0.54046 0.38201 0.62154 0.0
H224 H 0.55457 0.31925 0.62178 0.0
H225 H 0.47692 0.31045 0.59932 0.0
H226 H 0.53165 0.1358 0.62146 0.0
H227 H 0.35115 0.12112 0.56243 0.0
H228 H 0.53002 0.20715 0.71896 0.0
H229 H 0.58164 0.26465 0.68032 0.0
H230 H 0.58576 0.19676 0.68237 0.0
H231 H 0.30874 0.18697 0.65003 0.0
H232 H 0.29307 0.1665 0.59285 0.0
H233 H 0.35537 0.2421 0.60876 0.0
loop_
_geom_bond_atom_site_label_1
_geom_bond_atom_site_label_2
_geom_bond_distance
_geom_bond_site_symmetry_2
_ccdc_geom_bond_type
O0 Cd1 2.223 . S
O0 C8 1.315 . S
Cd1 O0 2.223 . S
Cd1 O4 2.297 . S
Cd1 O5 2.439 . S
Cd1 O11 2.240 1_655 S
Cd2 O3 2.240 1_455 S
Cd2 O10 2.223 . S
Cd2 O12 2.297 . S
Cd2 O13 2.439 . S
O3 Cd2 2.240 1_655 S
O3 C8 1.279 . S
O4 Cd1 2.297 . S
O4 C6 1.247 . S
O5 Cd1 2.439 . S
O5 C6 1.208 . S
C6 O4 1.247 . S
C6 O5 1.208 . S
C7 O12 1.247 . S
C7 O13 1.208 . S
C8 O0 1.315 . S
C8 O3 1.279 . S
C9 O10 1.315 . S
C9 O11 1.279 . S
O10 Cd2 2.223 . S
O10 C9 1.315 . S
O11 Cd1 2.240 1_455 S
O11 C9 1.279 . S
O12 Cd2 2.297 . S
O12 C7 1.247 . S
O13 Cd2 2.439 . S
O13 C7 1.208 . S
O14 Cd15 2.223 . S
O14 C22 1.315 . S
Cd15 O14 2.223 . S
Cd15 O18 2.297 . S
Cd15 O19 2.439 . S
Cd15 O25 2.240 1_545 S
Cd16 O17 2.240 1_565 S
Cd16 O24 2.223 . S
Cd16 O26 2.297 . S
Cd16 O27 2.439 . S
O17 Cd16 2.240 1_545 S
O17 C22 1.279 . S
O18 Cd15 2.297 . S
O18 C20 1.247 . S
O19 Cd15 2.439 . S
O19 C20 1.208 . S
C20 O18 1.247 . S
C20 O19 1.208 . S
C21 O26 1.247 . S
C21 O27 1.208 . S
C22 O14 1.315 . S
C22 O17 1.279 . S
C23 O24 1.315 . S
C23 O25 1.279 . S
O24 Cd16 2.223 . S
O24 C23 1.315 . S
O25 Cd15 2.240 1_565 S
O25 C23 1.279 . S
O26 Cd16 2.297 . S
O26 C21 1.247 . S
O27 Cd16 2.439 . S
O27 C21 1.208 . S
O28 Cd29 2.223 . S
O28 C36 1.315 . S
Cd29 O28 2.223 . S
Cd29 O32 2.297 . S
Cd29 O33 2.439 . S
Cd29 O39 2.240 . S
Cd30 O31 2.240 . S
Cd30 O38 2.223 . S
Cd30 O40 2.297 . S
Cd30 O41 2.439 . S
O31 Cd30 2.240 . S
O31 C36 1.279 . S
O32 Cd29 2.297 . S
O32 C34 1.247 . S
O33 Cd29 2.439 . S
O33 C34 1.208 . S
C34 O32 1.247 . S
C34 O33 1.208 . S
C35 O40 1.247 . S
C35 O41 1.208 . S
C36 O28 1.315 . S
C36 O31 1.279 . S
C37 O38 1.315 . S
C37 O39 1.279 . S
O38 Cd30 2.223 . S
O38 C37 1.315 . S
O39 Cd29 2.240 . S
O39 C37 1.279 . S
O40 Cd30 2.297 . S
O40 C35 1.247 . S
O41 Cd30 2.439 . S
O41 C35 1.208 . S
C42 C43 1.391 . S
C42 C44 1.394 . S
C42 H58 0.931 . S
C43 C42 1.391 . S
C43 C47 1.376 . S
C44 C42 1.394 . S
C44 C45 1.369 . S
C44 C48 1.531 . S
C45 C44 1.369 . S
C45 C46 1.410 . S
C45 C53 1.503 1_556 S
C46 C45 1.410 . S
C46 C47 1.392 . S
C46 C49 1.511 1_556 S
C47 C43 1.376 . S
C47 C46 1.392 . S
C47 H59 0.929 . S
C48 C44 1.531 . S
C48 H60 0.960 . S
C48 H61 0.962 . S
C48 H62 0.960 . S
C49 C46 1.511 1_554 S
C49 H63 0.961 . S
C49 H64 0.961 . S
C49 H65 0.961 . S
C50 C51 1.370 . S
C50 C52 1.363 . S
C50 H66 0.931 . S
C51 C50 1.370 . S
C51 C55 1.408 . S
C52 C50 1.363 . S
C52 C53 1.370 . S
C52 C56 1.524 . S
C53 C45 1.503 1_554 S
C53 C52 1.370 . S
C53 C54 1.403 . S
C54 C53 1.403 . S
C54 C55 1.404 . S
C54 C57 1.539 . S
C55 C51 1.408 . S
C55 C54 1.404 . S
C55 H67 0.930 . S
C56 C52 1.524 . S
C56 H68 0.956 1_554 S
C56 H69 0.961 . S
C56 H70 0.961 . S
C57 C54 1.539 . S
C57 H71 0.958 1_554 S
C57 H72 0.961 . S
C57 H73 0.960 . S
H58 C42 0.931 . S
H59 C47 0.929 . S
H60 C48 0.960 . S
H61 C48 0.962 . S
H62 C48 0.960 . S
H63 C49 0.961 . S
H64 C49 0.961 . S
H65 C49 0.961 . S
H66 C50 0.931 . S
H67 C55 0.930 . S
H68 C56 0.956 1_556 S
H69 C56 0.961 . S
H70 C56 0.961 . S
H71 C57 0.958 1_556 S
H72 C57 0.961 . S
H73 C57 0.960 . S
C74 C75 1.391 . S
C74 C76 1.394 . S
C74 H90 0.931 . S
C75 C74 1.391 . S
C75 C79 1.376 . S
C76 C74 1.394 . S
C76 C77 1.369 . S
C76 C80 1.531 . S
C77 C76 1.369 . S
C77 C78 1.410 . S
C77 C85 1.503 . S
C78 C77 1.410 . S
C78 C79 1.392 . S
C78 C81 1.511 . S
C79 C75 1.376 . S
C79 C78 1.392 . S
C79 H91 0.929 . S
C80 C76 1.531 . S
C80 H92 0.960 . S
C80 H93 0.962 . S
C80 H94 0.960 . S
C81 C78 1.511 . S
C81 H95 0.961 . S
C81 H96 0.961 . S
C81 H97 0.961 . S
C82 C83 1.370 . S
C82 C84 1.363 . S
C82 H98 0.931 . S
C83 C82 1.370 . S
C83 C87 1.408 . S
C84 C82 1.363 . S
C84 C85 1.370 . S
C84 C88 1.524 . S
C85 C77 1.503 . S
C85 C84 1.370 . S
C85 C86 1.403 . S
C86 C85 1.403 . S
C86 C87 1.404 . S
C86 C89 1.539 . S
C87 C83 1.408 . S
C87 C86 1.404 . S
C87 H99 0.930 . S
C88 C84 1.524 . S
C88 H100 0.956 . S
C88 H101 0.961 . S
C88 H102 0.961 . S
C89 C86 1.539 . S
C89 H103 0.958 . S
C89 H104 0.961 . S
C89 H105 0.960 . S
H90 C74 0.931 . S
H91 C79 0.929 . S
H92 C80 0.960 . S
H93 C80 0.962 . S
H94 C80 0.960 . S
H95 C81 0.961 . S
H96 C81 0.961 . S
H97 C81 0.961 . S
H98 C82 0.931 . S
H99 C87 0.930 . S
H100 C88 0.956 . S
H101 C88 0.961 . S
H102 C88 0.961 . S
H103 C89 0.958 . S
H104 C89 0.961 . S
H105 C89 0.960 . S
C106 C107 1.391 . S
C106 C108 1.394 . S
C106 H122 0.931 . S
C107 C106 1.391 . S
C107 C111 1.376 . S
C108 C106 1.394 . S
C108 C109 1.369 . S
C108 C112 1.531 . S
C109 C108 1.369 . S
C109 C110 1.410 . S
C109 C117 1.503 . S
C110 C109 1.410 . S
C110 C111 1.392 . S
C110 C113 1.511 . S
C111 C107 1.376 . S
C111 C110 1.392 . S
C111 H123 0.929 . S
C112 C108 1.531 . S
C112 H124 0.960 . S
C112 H125 0.962 . S
C112 H126 0.960 . S
C113 C110 1.511 . S
C113 H127 0.961 . S
C113 H128 0.961 . S
C113 H129 0.961 . S
C114 C115 1.370 . S
C114 C116 1.363 . S
C114 H130 0.931 . S
C115 C114 1.370 . S
C115 C119 1.408 . S
C116 C114 1.363 . S
C116 C117 1.370 . S
C116 C120 1.524 . S
C117 C109 1.503 . S
C117 C116 1.370 . S
C117 C118 1.403 . S
C118 C117 1.403 . S
C118 C119 1.404 . S
C118 C121 1.539 . S
C119 C115 1.408 . S
C119 C118 1.404 . S
C119 H131 0.930 . S
C120 C116 1.524 . S
C120 H132 0.956 . S
C120 H133 0.961 . S
C120 H134 0.961 . S
C121 C118 1.539 . S
C121 H135 0.958 . S
C121 H136 0.961 . S
C121 H137 0.960 . S
H122 C106 0.931 . S
H123 C111 0.929 . S
H124 C112 0.960 . S
H125 C112 0.962 . S
H126 C112 0.960 . S
H127 C113 0.961 . S
H128 C113 0.961 . S
H129 C113 0.961 . S
H130 C114 0.931 . S
H131 C119 0.930 . S
H132 C120 0.956 . S
H133 C120 0.961 . S
H134 C120 0.961 . S
H135 C121 0.958 . S
H136 C121 0.961 . S
H137 C121 0.960 . S
C138 C139 1.391 . S
C138 C140 1.394 . S
C138 H154 0.931 . S
C139 C138 1.391 . S
C139 C143 1.376 . S
C140 C138 1.394 . S
C140 C141 1.369 . S
C140 C144 1.531 . S
C141 C140 1.369 . S
C141 C142 1.410 . S
C141 C149 1.503 1_556 S
C142 C141 1.410 . S
C142 C143 1.392 . S
C142 C145 1.511 1_556 S
C143 C139 1.376 . S
C143 C142 1.392 . S
C143 H155 0.929 . S
C144 C140 1.531 . S
C144 H156 0.960 . S
C144 H157 0.962 . S
C144 H158 0.960 . S
C145 C142 1.511 1_554 S
C145 H159 0.961 . S
C145 H160 0.961 . S
C145 H161 0.961 . S
C146 C147 1.370 . S
C146 C148 1.363 . S
C146 H162 0.931 . S
C147 C146 1.370 . S
C147 C151 1.408 . S
C148 C146 1.363 . S
C148 C149 1.370 . S
C148 C152 1.524 . S
C149 C141 1.503 1_554 S
C149 C148 1.370 . S
C149 C150 1.403 . S
C150 C149 1.403 . S
C150 C151 1.404 . S
C150 C153 1.539 1_554 S
C151 C147 1.408 . S
C151 C150 1.404 . S
C151 H163 0.930 . S
C152 C148 1.524 . S
C152 H164 0.956 . S
C152 H165 0.961 . S
C152 H166 0.961 . S
C153 C150 1.539 1_556 S
C153 H167 0.958 . S
C153 H168 0.961 . S
C153 H169 0.960 . S
H154 C138 0.931 . S
H155 C143 0.929 . S
H156 C144 0.960 . S
H157 C144 0.962 . S
H158 C144 0.960 . S
H159 C145 0.961 . S
H160 C145 0.961 . S
H161 C145 0.961 . S
H162 C146 0.931 . S
H163 C151 0.930 . S
H164 C152 0.956 . S
H165 C152 0.961 . S
H166 C152 0.961 . S
H167 C153 0.958 . S
H168 C153 0.961 . S
H169 C153 0.960 . S
C170 C171 1.391 . S
C170 C172 1.394 . S
C170 H186 0.931 . S
C171 C170 1.391 . S
C171 C175 1.376 . S
C172 C170 1.394 . S
C172 C173 1.369 . S
C172 C176 1.531 . S
C173 C172 1.369 . S
C173 C174 1.410 . S
C173 C181 1.503 . S
C174 C173 1.410 . S
C174 C175 1.392 . S
C174 C177 1.511 . S
C175 C171 1.376 . S
C175 C174 1.392 . S
C175 H187 0.929 . S
C176 C172 1.531 . S
C176 H188 0.960 . S
C176 H189 0.962 . S
C176 H190 0.960 . S
C177 C174 1.511 . S
C177 H191 0.961 . S
C177 H192 0.961 . S
C177 H193 0.961 . S
C178 C179 1.370 . S
C178 C180 1.363 . S
C178 H194 0.931 . S
C179 C178 1.370 . S
C179 C183 1.408 . S
C180 C178 1.363 . S
C180 C181 1.370 . S
C180 C184 1.524 . S
C181 C173 1.503 . S
C181 C180 1.370 . S
C181 C182 1.403 . S
C182 C181 1.403 . S
C182 C183 1.404 . S
C182 C185 1.539 . S
C183 C179 1.408 . S
C183 C182 1.404 . S
C183 H195 0.930 . S
C184 C180 1.524 . S
C184 H196 0.956 . S
C184 H197 0.961 . S
C184 H198 0.961 . S
C185 C182 1.539 . S
C185 H199 0.958 . S
C185 H200 0.961 . S
C185 H201 0.960 . S
H186 C170 0.931 . S
H187 C175 0.929 . S
H188 C176 0.960 . S
H189 C176 0.962 . S
H190 C176 0.960 . S
H191 C177 0.961 . S
H192 C177 0.961 . S
H193 C177 0.961 . S
H194 C178 0.931 . S
H195 C183 0.930 . S
H196 C184 0.956 . S
H197 C184 0.961 . S
H198 C184 0.961 . S
H199 C185 0.958 . S
H200 C185 0.961 . S
H201 C185 0.960 . S
C202 C203 1.391 . S
C202 C204 1.394 . S
C202 H218 0.931 . S
C203 C202 1.391 . S
C203 C207 1.376 . S
C204 C202 1.394 . S
C204 C205 1.369 . S
C204 C208 1.531 . S
C205 C204 1.369 . S
C205 C206 1.410 . S
C205 C213 1.503 . S
C206 C205 1.410 . S
C206 C207 1.392 . S
C206 C209 1.511 . S
C207 C203 1.376 . S
C207 C206 1.392 . S
C207 H219 0.929 . S
C208 C204 1.531 . S
C208 H220 0.960 . S
C208 H221 0.962 . S
C208 H222 0.960 . S
C209 C206 1.511 . S
C209 H223 0.961 . S
C209 H224 0.961 . S
C209 H225 0.961 . S
C210 C211 1.370 . S
C210 C212 1.363 . S
C210 H226 0.931 . S
C211 C210 1.370 . S
C211 C215 1.408 . S
C212 C210 1.363 . S
C212 C213 1.370 . S
C212 C216 1.524 . S
C213 C205 1.503 . S
C213 C212 1.370 . S
C213 C214 1.403 . S
C214 C213 1.403 . S
C214 C215 1.404 . S
C214 C217 1.539 . S
C215 C211 1.408 . S
C215 C214 1.404 . S
C215 H227 0.930 . S
C216 C212 1.524 . S
C216 H228 0.956 . S
C216 H229 0.961 . S
C216 H230 0.961 . S
C217 C214 1.539 . S
C217 H231 0.958 . S
C217 H232 0.961 . S
C217 H233 0.960 . S
H218 C202 0.931 . S
H219 C207 0.929 . S
H220 C208 0.960 . S
H221 C208 0.962 . S
H222 C208 0.960 . S
H223 C209 0.961 . S
H224 C209 0.961 . S
H225 C209 0.961 . S
H226 C210 0.931 . S
H227 C215 0.930 . S
H228 C216 0.956 . S
H229 C216 0.961 . S
H230 C216 0.961 . S
H231 C217 0.958 . S
H232 C217 0.961 . S
H233 C217 0.960 . S
C43 C36 1.675 . S
C51 C9 1.680 . S
C75 C6 1.529 . S
C83 C22 1.527 . S
C107 C21 1.354 . S
C115 C34 1.370 . S
C139 C37 1.662 . S
C147 C8 1.683 . S
C171 C23 1.526 . S
C179 C7 1.531 . S
C203 C35 1.341 . S
C211 C20 1.373 . S
