# Generated by pormake.
# Topology cdt, (3)-cn, num edge types: 1
# Building blocks:
#     Node 0, Type 0, BuildingBlock: OLANEW_clean_sbu_2, # of connection points: 3
#     Node 1, Type 0, BuildingBlock: OLANEW_clean_sbu_2, # of connection points: 3
#     Node 2, Type 0, BuildingBlock: OLANEW_clean_sbu_2, # of connection points: 3
#     Node 3, Type 0, BuildingBlock: OLANEW_clean_sbu_2, # of connection points: 3
#     Node 4, Type 0, BuildingBlock: OLANEW_clean_sbu_2, # of connection points: 3
#     Node 5, Type 0, BuildingBlock: OLANEW_clean_sbu_2, # of connection points: 3
#     Node 6, Type 0, BuildingBlock: OLANEW_clean_sbu_2, # of connection points: 3
#     Node 7, Type 0, BuildingBlock: OLANEW_clean_sbu_2, # of connection points: 3
#     Edge 8, Type (0, 0), None
#     Edge 9, Type (0, 0), None
#     Edge 10, Type (0, 0), None
#     Edge 11, Type (0, 0), None
#     Edge 12, Type (0, 0), None
#     Edge 13, Type (0, 0), None
#     Edge 14, Type (0, 0), None
#     Edge 15, Type (0, 0), None
#     Edge 16, Type (0, 0), None
#     Edge 17, Type (0, 0), None
#     Edge 18, Type (0, 0), None
#     Edge 19, Type (0, 0), None
# Relax obj value: 0.001
# Max RMSD: 0.009
# Mean RMSD: 0.009
data_MOF--net-cdt--node1-OLANEW_clean_sbu_2--edge1-none
_symmetry_space_group_name_H-M    P1
_symmetry_Int_Tables_number       1
_symmetry_cell_setting            triclinic
loop_
_symmetry_equiv_pos_as_xyz
'x, y, z'
_cell_length_a     19.478317
_cell_length_b     11.669598
_cell_length_c     22.610622
_cell_angle_alpha  89.996835
_cell_angle_beta   89.106409
_cell_angle_gamma 90.003146
loop_
_atom_site_label
_atom_site_type_symbol
_atom_site_fract_x
_atom_site_fract_y
_atom_site_fract_z
_atom_type_partial_charge
O0 O 0.47395 0.34068 0.18752 0.0
Cd1 Cd 0.48018 0.30421 0.08123 0.0
O2 O 0.45184 0.16002 0.20853 0.0
Cd3 Cd 0.4281 0.11423 0.11742 0.0
O4 O 0.33182 0.0633 0.07672 0.0
C5 C 0.31748 0.95763 0.07165 0.0
O6 O 0.36438 0.88081 0.08406 0.0
C7 C 0.46439 0.26164 0.22542 0.0
C8 C 0.43481 0.49206 0.0172 0.0
O9 O 0.39292 0.41296 0.03333 0.0
O10 O 0.49808 0.48254 0.03107 0.0
O11 O 0.069 0.71205 0.15998 0.0
Cd12 Cd 0.08727 0.74513 0.05427 0.0
O13 O 0.05121 0.8941 0.18056 0.0
Cd14 Cd 0.09494 0.94631 0.0952 0.0
O15 O 0.19849 0.99803 0.06798 0.0
C16 C 0.24546 0.92241 0.067 0.0
O17 O 0.22893 0.81445 0.07533 0.0
C18 C 0.05258 0.78992 0.19687 0.0
C19 C 0.097 0.53874 -0.0065 0.0
O20 O 0.15088 0.58789 0.0131 0.0
O21 O 0.03868 0.58711 0.00219 0.0
O22 O 0.44113 0.2123 0.32532 0.0
Cd23 Cd 0.42293 0.24534 0.43105 0.0
O24 O 0.45873 0.3944 0.30471 0.0
Cd25 Cd 0.41507 0.44654 0.3901 0.0
O26 O 0.31152 0.49816 0.41737 0.0
C27 C 0.26457 0.42248 0.41838 0.0
O28 O 0.28116 0.31455 0.41007 0.0
C29 C 0.45743 0.29021 0.28842 0.0
C30 C 0.41287 0.03891 0.49177 0.0
O31 O 0.35907 0.08832 0.47218 0.0
O32 O 0.47127 0.08704 0.48308 0.0
O33 O 0.03587 0.84037 0.29774 0.0
Cd34 Cd 0.02956 0.80392 0.40403 0.0
O35 O 0.0582 0.65977 0.27677 0.0
Cd36 Cd 0.08187 0.61405 0.36791 0.0
O37 O 0.17817 0.56325 0.40863 0.0
C38 C 0.19254 0.45761 0.41374 0.0
O39 O 0.14567 0.3807 0.40137 0.0
C40 C 0.04557 0.76135 0.25987 0.0
C41 C 0.07481 0.99187 0.46804 0.0
O42 O 0.11674 0.9128 0.45196 0.0
O43 O 0.01156 0.98227 0.45414 0.0
O44 O 0.37795 0.74095 0.81212 0.0
Cd45 Cd 0.36616 0.77752 0.91812 0.0
O46 O 0.48679 0.78633 0.81705 0.0
Cd47 Cd 0.58915 0.8336 0.7842 0.0
O48 O 0.69804 0.87798 0.77819 0.0
C49 C 0.71957 0.96466 0.74942 0.0
O50 O 0.6759 0.02875 0.72063 0.0
C51 C 0.43608 0.75332 0.7867 0.0
C52 C 0.41097 0.59102 0.98337 0.0
O53 O 0.34797 0.59951 0.96851 0.0
O54 O 0.45276 0.67067 0.9678 0.0
O55 O 0.11936 0.2555 0.79453 0.0
Cd56 Cd 0.11097 0.22306 0.90101 0.0
O57 O 0.01262 0.19931 0.78699 0.0
Cd58 Cd 0.91902 0.14248 0.74352 0.0
O59 O 0.81342 0.08872 0.72752 0.0
C60 C 0.79205 0.99778 0.75259 0.0
O61 O 0.8343 0.9378 0.78506 0.0
C62 C 0.06741 0.23697 0.76267 0.0
C63 C 0.1019 0.42953 0.9618 0.0
O64 O 0.16036 0.38273 0.95145 0.0
O65 O 0.04776 0.37877 0.94384 0.0
O66 O 0.39004 0.75552 0.69065 0.0
Cd67 Cd 0.39839 0.72317 0.58417 0.0
O68 O 0.49676 0.69925 0.69817 0.0
Cd69 Cd 0.59036 0.64236 0.74163 0.0
O70 O 0.69594 0.58856 0.75767 0.0
C71 C 0.71734 0.49776 0.7325 0.0
O72 O 0.67514 0.43795 0.69991 0.0
C73 C 0.44198 0.73693 0.72251 0.0
C74 C 0.4078 0.92968 0.52343 0.0
O75 O 0.34926 0.88312 0.53376 0.0
O76 O 0.46186 0.87868 0.54138 0.0
O77 O 0.13148 0.24097 0.67308 0.0
Cd78 Cd 0.14331 0.2775 0.56707 0.0
O79 O 0.02265 0.28639 0.66811 0.0
Cd80 Cd 0.92027 0.33369 0.70092 0.0
O81 O 0.81139 0.37809 0.70685 0.0
C82 C 0.78982 0.46462 0.7357 0.0
O83 O 0.83345 0.52856 0.76464 0.0
C84 C 0.07334 0.25337 0.69848 0.0
C85 C 0.0986 0.09089 0.50186 0.0
O86 O 0.16158 0.09947 0.51673 0.0
O87 O 0.05677 0.1705 0.51738 0.0
loop_
_geom_bond_atom_site_label_1
_geom_bond_atom_site_label_2
_geom_bond_distance
_geom_bond_site_symmetry_2
_ccdc_geom_bond_type
O0 Cd1 2.300 . S
O0 C7 1.275 . S
Cd1 O0 2.300 . S
Cd1 O9 2.381 . S
Cd1 O10 2.378 . S
O2 Cd3 2.385 1_545 S
O2 C7 1.255 . S
Cd3 O2 2.385 1_565 S
Cd3 O4 2.317 1_565 S
O4 Cd3 2.317 1_545 S
O4 C5 1.232 1_545 S
C5 O4 1.232 1_565 S
C5 O6 1.218 . S
O6 C5 1.218 . S
C7 O0 1.275 . S
C7 O2 1.255 . S
C8 O9 1.258 . S
C8 O10 1.256 . S
O9 Cd1 2.381 . S
O9 C8 1.258 . S
O10 Cd1 2.378 . S
O10 C8 1.256 . S
O11 Cd12 2.300 . S
O11 C18 1.275 . S
Cd12 O11 2.300 . S
Cd12 O20 2.381 . S
Cd12 O21 2.378 1_455 S
O13 Cd14 2.385 1_565 S
O13 C18 1.255 . S
Cd14 O13 2.385 1_545 S
Cd14 O15 2.317 1_545 S
O15 Cd14 2.317 1_565 S
O15 C16 1.232 1_565 S
C16 O15 1.232 1_545 S
C16 O17 1.218 . S
O17 C16 1.218 . S
C18 O11 1.275 . S
C18 O13 1.255 . S
C19 O20 1.258 1_655 S
C19 O21 1.256 . S
O20 Cd12 2.381 . S
O20 C19 1.258 1_455 S
O21 Cd12 2.378 1_655 S
O21 C19 1.256 . S
O22 Cd23 2.300 . S
O22 C29 1.275 . S
Cd23 O22 2.300 . S
Cd23 O31 2.381 . S
Cd23 O32 2.378 . S
O24 Cd25 2.385 . S
O24 C29 1.255 . S
Cd25 O24 2.385 . S
Cd25 O26 2.317 . S
O26 Cd25 2.317 . S
O26 C27 1.232 . S
C27 O26 1.232 . S
C27 O28 1.218 . S
O28 C27 1.218 . S
C29 O22 1.275 . S
C29 O24 1.255 . S
C30 O31 1.258 . S
C30 O32 1.256 . S
O31 Cd23 2.381 . S
O31 C30 1.258 . S
O32 Cd23 2.378 . S
O32 C30 1.256 . S
O33 Cd34 2.300 . S
O33 C40 1.275 . S
Cd34 O33 2.300 . S
Cd34 O42 2.381 . S
Cd34 O43 2.378 1_455 S
O35 Cd36 2.385 . S
O35 C40 1.255 . S
Cd36 O35 2.385 . S
Cd36 O37 2.317 . S
O37 Cd36 2.317 . S
O37 C38 1.232 . S
C38 O37 1.232 . S
C38 O39 1.218 . S
O39 C38 1.218 . S
C40 O33 1.275 . S
C40 O35 1.255 . S
C41 O42 1.258 1_655 S
C41 O43 1.256 . S
O42 Cd34 2.381 . S
O42 C41 1.258 1_455 S
O43 Cd34 2.378 1_655 S
O43 C41 1.256 . S
O44 Cd45 2.300 . S
O44 C51 1.275 . S
Cd45 O44 2.300 . S
Cd45 O53 2.381 . S
Cd45 O54 2.378 . S
O46 Cd47 2.385 . S
O46 C51 1.255 . S
Cd47 O46 2.385 . S
Cd47 O48 2.317 . S
O48 Cd47 2.317 . S
O48 C49 1.232 . S
C49 O48 1.232 . S
C49 O50 1.218 . S
O50 C49 1.218 . S
C51 O44 1.275 . S
C51 O46 1.255 . S
C52 O53 1.258 . S
C52 O54 1.256 . S
O53 Cd45 2.381 . S
O53 C52 1.258 . S
O54 Cd45 2.378 . S
O54 C52 1.256 . S
O55 Cd56 2.300 . S
O55 C62 1.275 . S
Cd56 O55 2.300 . S
Cd56 O64 2.381 1_655 S
Cd56 O65 2.378 . S
O57 Cd58 2.385 . S
O57 C62 1.255 . S
Cd58 O57 2.385 . S
Cd58 O59 2.317 . S
O59 Cd58 2.317 . S
O59 C60 1.232 . S
C60 O59 1.232 . S
C60 O61 1.218 . S
O61 C60 1.218 . S
C62 O55 1.275 . S
C62 O57 1.255 . S
C63 O64 1.258 1_655 S
C63 O65 1.256 . S
O64 Cd56 2.381 1_455 S
O64 C63 1.258 1_455 S
O65 Cd56 2.378 . S
O65 C63 1.256 . S
O66 Cd67 2.300 . S
O66 C73 1.275 . S
Cd67 O66 2.300 . S
Cd67 O75 2.381 . S
Cd67 O76 2.378 . S
O68 Cd69 2.385 . S
O68 C73 1.255 . S
Cd69 O68 2.385 . S
Cd69 O70 2.317 . S
O70 Cd69 2.317 . S
O70 C71 1.232 . S
C71 O70 1.232 . S
C71 O72 1.218 . S
O72 C71 1.218 . S
C73 O66 1.275 . S
C73 O68 1.255 . S
C74 O75 1.258 . S
C74 O76 1.256 . S
O75 Cd67 2.381 . S
O75 C74 1.258 . S
O76 Cd67 2.378 . S
O76 C74 1.256 . S
O77 Cd78 2.300 . S
O77 C84 1.275 . S
Cd78 O77 2.300 . S
Cd78 O86 2.381 1_655 S
Cd78 O87 2.378 . S
O79 Cd80 2.385 . S
O79 C84 1.255 . S
Cd80 O79 2.385 . S
Cd80 O81 2.317 . S
O81 Cd80 2.317 . S
O81 C82 1.232 . S
C82 O81 1.232 . S
C82 O83 1.218 . S
O83 C82 1.218 . S
C84 O77 1.275 . S
C84 O79 1.255 . S
C85 O86 1.258 1_655 S
C85 O87 1.256 . S
O86 Cd78 2.381 1_455 S
O86 C85 1.258 1_455 S
O87 Cd78 2.378 . S
O87 C85 1.256 . S
C5 C16 2.336 1_565 S
C27 C38 2.338 . S
C60 C49 0.709 1_545 S
C71 C82 0.709 . S
C8 C52 1.746 1_554 S
C63 C19 1.745 1_556 S
C30 C74 1.747 1_545 S
C85 C41 1.746 1_545 S
C29 C7 1.585 . S
C40 C18 1.585 . S
C73 C51 1.378 . S
C84 C62 1.378 . S
