# Generated by pormake.
# Topology lvt, (4)-cn, num edge types: 1
# Building blocks:
#     Node 0, Type 0, BuildingBlock: ESEHIV_clean_sbu_0, # of connection points: 4
#     Node 1, Type 0, BuildingBlock: ESEHIV_clean_sbu_0, # of connection points: 4
#     Node 2, Type 0, BuildingBlock: ESEHIV_clean_sbu_0, # of connection points: 4
#     Node 3, Type 0, BuildingBlock: ESEHIV_clean_sbu_0, # of connection points: 4
#     Node 4, Type 0, BuildingBlock: ESEHIV_clean_sbu_0, # of connection points: 4
#     Node 5, Type 0, BuildingBlock: ESEHIV_clean_sbu_0, # of connection points: 4
#     Node 6, Type 0, BuildingBlock: ESEHIV_clean_sbu_0, # of connection points: 4
#     Node 7, Type 0, BuildingBlock: ESEHIV_clean_sbu_0, # of connection points: 4
#     Edge 8, Type (0, 0), None
#     Edge 9, Type (0, 0), None
#     Edge 10, Type (0, 0), None
#     Edge 11, Type (0, 0), None
#     Edge 12, Type (0, 0), None
#     Edge 13, Type (0, 0), None
#     Edge 14, Type (0, 0), None
#     Edge 15, Type (0, 0), None
#     Edge 16, Type (0, 0), None
#     Edge 17, Type (0, 0), None
#     Edge 18, Type (0, 0), None
#     Edge 19, Type (0, 0), None
#     Edge 20, Type (0, 0), None
#     Edge 21, Type (0, 0), None
#     Edge 22, Type (0, 0), None
#     Edge 23, Type (0, 0), None
# Relax obj value: 0.008
# Max RMSD: 0.111
# Mean RMSD: 0.097
data_MOF--net-lvt--node1-ESEHIV_clean_sbu_0--edge1-none
_symmetry_space_group_name_H-M    P1
_symmetry_Int_Tables_number       1
_symmetry_cell_setting            triclinic
loop_
_symmetry_equiv_pos_as_xyz
'x, y, z'
_cell_length_a     18.026338
_cell_length_b     18.24382
_cell_length_c     15.322795
_cell_angle_alpha  100.88849
_cell_angle_beta   89.114398
_cell_angle_gamma 103.0058
loop_
_atom_site_label
_atom_site_type_symbol
_atom_site_fract_x
_atom_site_fract_y
_atom_site_fract_z
_atom_type_partial_charge
Cu0 Cu 1.0384 1.01567 0.53031 0.0
N1 N 0.10682 0.9987 0.61291 0.0
N2 N 0.19522 0.95638 0.67807 0.0
C3 C 0.16147 0.9579 0.60009 0.0
C4 C 0.16187 0.99849 0.74183 0.0
C5 C 0.1079 1.02477 0.70145 0.0
O6 O 0.96268 0.92374 0.47727 0.0
C7 C 0.15374 0.11677 0.45349 0.0
O8 O 0.18647 0.13163 0.53289 0.0
H9 H 0.17317 0.92675 0.53594 0.0
H10 H 0.07065 0.05925 0.73495 0.0
N11 N 0.97746 0.07804 0.59109 0.0
N12 N 0.89974 0.15885 0.60783 0.0
C13 C 0.95865 0.13696 0.56283 0.0
C14 C 0.92865 0.06214 0.65621 0.0
C15 C 0.88034 0.11213 0.6668 0.0
C16 C 0.95214 0.86246 0.50837 0.0
O17 O 1.01191 0.83585 0.52215 0.0
H18 H 0.9837 0.15881 0.50566 0.0
H19 H 0.925 1.01407 0.68917 0.0
O20 O 0.09128 0.06656 0.43784 0.0
H21 H 0.17384 1.00765 0.81252 0.0
H22 H 0.8325 0.11131 0.71038 0.0
Cu23 Cu 0.36051 0.81108 0.84766 0.0
N24 N 0.31228 0.84489 0.75825 0.0
N25 N 0.24609 0.91046 0.69182 0.0
C26 C 0.26364 0.89237 0.76963 0.0
C27 C 0.28485 0.87359 0.62918 0.0
C28 C 0.32599 0.8338 0.6704 0.0
O29 O 0.2902 0.76812 0.93473 0.0
C30 C 0.4651 0.91415 0.98357 0.0
O31 O 0.45635 0.8591 1.02958 0.0
H32 H 0.242 0.91329 0.83351 0.0
H33 H 0.3643 0.80019 0.63819 0.0
N34 N 0.41479 0.73615 0.79984 0.0
N35 N 0.46391 0.63273 0.79119 0.0
C36 C 0.41773 0.67488 0.83577 0.0
C37 C 0.46158 0.73282 0.7303 0.0
C38 C 0.49198 0.66881 0.72468 0.0
C39 C 0.24117 0.70414 0.91922 0.0
O40 O 0.20094 0.68012 0.98466 0.0
H41 H 0.38917 0.66337 0.89595 0.0
H42 H 0.47583 0.77582 0.68925 0.0
O43 O 0.43104 0.90271 0.90842 0.0
H44 H 0.2841 0.87573 0.55914 0.0
H45 H 0.53499 0.65324 0.67943 0.0
Cu46 Cu 0.6373 0.09848 0.10107 0.0
N47 N 0.69333 0.09741 0.99682 0.0
N48 N 0.75604 1.0339 0.89323 0.0
C49 C 0.695 1.02981 0.94501 0.0
C50 C 0.79387 0.10795 0.91026 0.0
C51 C 0.75355 0.14774 0.97281 0.0
O52 O 0.56168 1.00122 0.08243 0.0
C53 C 0.77177 0.15434 0.21527 0.0
O54 O 0.81025 0.17253 0.14639 0.0
H55 H 0.65808 0.97635 0.9542 0.0
H56 H 0.77124 0.20737 1.00455 0.0
N57 N 0.58554 0.17725 0.12946 0.0
N58 N 0.5 0.23412 0.20508 0.0
C59 C 0.51308 0.16843 0.15688 0.0
C60 C 0.61888 0.25113 0.16086 0.0
C61 C 0.56612 0.2865 0.20719 0.0
C62 C 0.5165 0.98921 1.01544 0.0
O63 O 0.52089 1.04331 0.96859 0.0
H64 H 0.47283 0.11356 0.14845 0.0
H65 H 0.67896 0.27541 0.15684 0.0
O66 O 0.70393 0.11312 0.205 0.0
H67 H 0.8481 0.13077 0.88306 0.0
H68 H 0.57572 0.34527 0.24192 0.0
Cu69 Cu 0.33485 0.3377 0.32301 0.0
N70 N 0.2578 0.25023 0.32977 0.0
N71 N 0.18408 0.15806 0.39083 0.0
C72 C 0.24763 0.21496 0.40036 0.0
C73 C 0.15391 0.15603 0.31004 0.0
C74 C 0.19945 0.21325 0.27263 0.0
O75 O 0.33861 0.41496 0.43113 0.0
C76 C 0.43395 0.24505 0.24392 0.0
O77 O 0.37069 0.19246 0.22328 0.0
H78 H 0.28441 0.23328 0.45937 0.0
H79 H 0.18956 0.22826 0.2095 0.0
N80 N 0.32118 0.39126 0.23425 0.0
N81 N 0.39701 0.4611 0.14867 0.0
C82 C 0.36852 0.39026 0.16542 0.0
C83 C 0.31448 0.46477 0.25583 0.0
C84 C 0.36206 0.5082 0.20402 0.0
C85 C 0.27618 0.42036 0.46925 0.0
O86 O 0.21491 0.36592 0.44509 0.0
H87 H 0.39286 0.34162 0.14002 0.0
H88 H 0.28769 0.48804 0.31497 0.0
O89 O 0.43154 0.30864 0.29462 0.0
H90 H 0.10133 0.11801 0.28154 0.0
H91 H 0.37548 0.5701 0.21254 0.0
Cu92 Cu 0.8454 0.34194 0.41259 0.0
N93 N 0.77439 0.38973 0.37179 0.0
N94 N 0.7195 0.43461 0.26913 0.0
C95 C 0.77053 0.39464 0.28517 0.0
C96 C 0.6899 0.4564 0.34886 0.0
C97 C 0.72415 0.42859 0.41238 0.0
O98 O 0.85001 0.26062 0.31146 0.0
C99 C 0.9502 0.44967 0.53126 0.0
O100 O 0.89623 0.43358 0.58768 0.0
H101 H 0.80518 0.36964 0.23502 0.0
H102 H 0.7138 0.43688 0.4829 0.0
N103 N 0.82625 0.29014 0.50713 0.0
N104 N 0.85962 0.21138 0.58599 0.0
C105 C 0.88037 0.25477 0.52447 0.0
C106 C 0.76854 0.26945 0.56095 0.0
C107 C 0.78923 0.22003 0.61021 0.0
C108 C 0.79477 0.20156 0.30303 0.0
O109 O 0.74536 0.19558 0.36653 0.0
H110 H 0.93294 0.2586 0.48886 0.0
H111 H 0.71441 0.2857 0.56108 0.0
O112 O 0.93994 0.41817 0.44897 0.0
H113 H 0.64671 0.48952 0.36052 0.0
H114 H 0.75409 0.19025 0.65627 0.0
Cu115 Cu 0.86496 0.8675 0.80321 0.0
N116 N 0.81336 0.81405 0.88909 0.0
N117 N 0.74418 0.72665 0.96035 0.0
C118 C 0.78035 0.73932 0.88448 0.0
C119 C 0.75466 0.79545 1.01468 0.0
C120 C 0.79847 0.84882 0.97128 0.0
O121 O 0.84809 0.97117 0.83533 0.0
C122 C 0.99191 0.80353 0.81457 0.0
O123 O 0.94976 0.76225 0.86637 0.0
H124 H 0.78088 0.69565 0.82591 0.0
H125 H 0.81676 0.90961 0.99723 0.0
N126 N 0.83146 0.83029 0.68384 0.0
N127 N 0.88732 0.84199 0.5537 0.0
C128 C 0.88395 0.80955 0.62631 0.0
C129 C 0.79347 0.86839 0.63942 0.0
C130 C 0.82779 0.87586 0.55962 0.0
C131 C 0.77807 0.97129 0.84809 0.0
O132 O 0.72775 0.9055 0.83121 0.0
H133 H 0.92901 0.78547 0.64583 0.0
H134 H 0.75381 0.90163 0.6688 0.0
O135 O 0.97216 0.86262 0.79848 0.0
H136 H 0.73278 0.80623 0.08097 0.0
H137 H 0.81732 0.91371 0.51691 0.0
Cu138 Cu 0.5896 0.55464 0.03885 0.0
N139 N 0.54608 0.5294 0.92394 0.0
N140 N 0.49183 0.57577 0.82273 0.0
C141 C 0.49786 0.57246 0.90906 0.0
C142 C 0.5365 0.53099 0.77998 0.0
C143 C 0.56961 0.50157 0.84294 0.0
O144 O 0.65724 0.65498 0.04065 0.0
C145 C 0.45961 0.48036 0.10017 0.0
O146 O 0.48434 0.42599 0.04694 0.0
H147 H 0.47704 0.60999 0.9623 0.0
H148 H 0.61468 0.47077 0.83144 0.0
N149 N 0.64549 0.49257 0.08153 0.0
N150 N 0.69997 0.44856 0.18531 0.0
C151 C 0.65046 0.49015 0.1689 0.0
C152 C 0.69373 0.45104 0.04132 0.0
C153 C 0.72746 0.42361 0.10534 0.0
C154 C 0.70347 0.65852 0.97645 0.0
O155 O 0.70849 0.59509 0.92215 0.0
H156 H 0.61956 0.51993 0.21949 0.0
H157 H 0.70509 0.44299 0.97104 0.0
O158 O 0.49947 0.54903 0.11074 0.0
H159 H 0.54973 0.52564 0.71026 0.0
H160 H 0.76929 0.38888 0.09381 0.0
Cu161 Cu 0.13413 0.59262 0.68721 0.0
N162 N 0.10578 0.68559 0.69643 0.0
N163 N 1.04496 0.77397 0.76403 0.0
C164 C 1.0622 0.70617 0.76478 0.0
C165 C 0.07942 0.7973 0.6922 0.0
C166 C 0.1172 0.74257 0.65013 0.0
O167 O 0.16962 0.60281 0.80877 0.0
C168 C 1.02148 0.50387 0.56451 0.0
O169 O 1.06435 0.54114 0.50971 0.0
H170 H 1.04116 0.67008 0.81251 0.0
H171 H 0.14853 0.74327 0.58942 0.0
N172 N 0.21081 0.56816 0.61005 0.0
N173 N 0.26911 0.48561 0.52495 0.0
C174 C 0.20621 0.49508 0.56987 0.0
C175 C 0.28016 0.60666 0.59004 0.0
C176 C 0.31668 0.55548 0.5379 0.0
C177 C 0.224 0.66205 0.82791 0.0
O178 O 0.25394 0.69553 0.76347 0.0
H179 H 0.15733 0.44906 0.57429 0.0
H180 H 0.30306 0.66723 0.61142 0.0
O181 O 1.04145 0.51613 0.6467 0.0
H182 H 0.07282 0.8474 0.66889 0.0
H183 H 0.37213 0.56914 0.50903 0.0
loop_
_geom_bond_atom_site_label_1
_geom_bond_atom_site_label_2
_geom_bond_distance
_geom_bond_site_symmetry_2
_ccdc_geom_bond_type
Cu0 N1 1.999 . S
Cu0 O6 1.974 1_455 S
Cu0 N11 1.985 1_455 S
Cu0 O20 1.959 . S
N1 Cu0 1.999 . S
N1 C3 1.263 1_545 S
N1 C5 1.389 . S
N2 C3 1.358 . S
N2 C4 1.400 1_565 S
C3 N1 1.263 1_565 S
C3 N2 1.358 . S
C3 H9 0.930 . S
C4 N2 1.400 1_545 S
C4 C5 1.351 . S
C4 H21 0.930 . S
C5 N1 1.389 . S
C5 C4 1.351 . S
C5 H10 0.930 . S
O6 Cu0 1.974 1_655 S
O6 C16 1.282 1_545 S
C7 O8 1.261 . S
C7 O20 1.251 . S
O8 C7 1.261 . S
H9 C3 0.930 . S
H10 C5 0.930 . S
N11 Cu0 1.985 1_655 S
N11 C13 1.335 . S
N11 C14 1.390 . S
N12 C13 1.345 . S
N12 C15 1.336 . S
C13 N11 1.335 . S
C13 N12 1.345 . S
C13 H18 0.930 1_655 S
C14 N11 1.390 . S
C14 C15 1.346 . S
C14 H19 0.930 . S
C15 N12 1.336 . S
C15 C14 1.346 . S
C15 H22 0.929 . S
C16 O6 1.282 1_565 S
C16 O17 1.216 . S
O17 C16 1.216 . S
H18 C13 0.930 1_455 S
H19 C14 0.930 . S
O20 Cu0 1.959 . S
O20 C7 1.251 . S
H21 C4 0.930 . S
H22 C15 0.929 . S
Cu23 N24 1.999 . S
Cu23 O29 1.974 . S
Cu23 N34 1.985 . S
Cu23 O43 1.959 . S
N24 Cu23 1.999 . S
N24 C26 1.263 . S
N24 C28 1.389 . S
N25 C26 1.358 . S
N25 C27 1.400 . S
C26 N24 1.263 . S
C26 N25 1.358 . S
C26 H32 0.930 . S
C27 N25 1.400 . S
C27 C28 1.351 . S
C27 H44 0.930 . S
C28 N24 1.389 . S
C28 C27 1.351 . S
C28 H33 0.930 . S
O29 Cu23 1.974 . S
O29 C39 1.282 . S
C30 O31 1.261 . S
C30 O43 1.251 . S
O31 C30 1.261 . S
H32 C26 0.930 . S
H33 C28 0.930 . S
N34 Cu23 1.985 . S
N34 C36 1.335 . S
N34 C37 1.390 . S
N35 C36 1.345 . S
N35 C38 1.336 . S
C36 N34 1.335 . S
C36 N35 1.345 . S
C36 H41 0.930 . S
C37 N34 1.390 . S
C37 C38 1.346 . S
C37 H42 0.930 . S
C38 N35 1.336 . S
C38 C37 1.346 . S
C38 H45 0.929 . S
C39 O29 1.282 . S
C39 O40 1.216 . S
O40 C39 1.216 . S
H41 C36 0.930 . S
H42 C37 0.930 . S
O43 Cu23 1.959 . S
O43 C30 1.251 . S
H44 C27 0.930 . S
H45 C38 0.929 . S
Cu46 N47 1.999 . S
Cu46 O52 1.974 . S
Cu46 N57 1.985 1_565 S
Cu46 O66 1.959 1_565 S
N47 Cu46 1.999 . S
N47 C49 1.263 1_554 S
N47 C51 1.389 . S
N48 C49 1.358 . S
N48 C50 1.400 1_556 S
C49 N47 1.263 1_556 S
C49 N48 1.358 . S
C49 H55 0.930 . S
C50 N48 1.400 1_554 S
C50 C51 1.351 . S
C50 H67 0.930 . S
C51 N47 1.389 . S
C51 C50 1.351 . S
C51 H56 0.930 . S
O52 Cu46 1.974 . S
O52 C62 1.282 1_554 S
C53 O54 1.261 . S
C53 O66 1.251 . S
O54 C53 1.261 . S
H55 C49 0.930 . S
H56 C51 0.930 . S
N57 Cu46 1.985 1_545 S
N57 C59 1.335 . S
N57 C60 1.390 . S
N58 C59 1.345 . S
N58 C61 1.336 . S
C59 N57 1.335 . S
C59 N58 1.345 . S
C59 H64 0.930 . S
C60 N57 1.390 . S
C60 C61 1.346 . S
C60 H65 0.930 . S
C61 N58 1.336 . S
C61 C60 1.346 . S
C61 H68 0.929 . S
C62 O52 1.282 1_556 S
C62 O63 1.216 . S
O63 C62 1.216 . S
H64 C59 0.930 . S
H65 C60 0.930 . S
O66 Cu46 1.959 1_545 S
O66 C53 1.251 . S
H67 C50 0.930 . S
H68 C61 0.929 . S
Cu69 N70 1.999 . S
Cu69 O75 1.974 . S
Cu69 N80 1.985 . S
Cu69 O89 1.959 . S
N70 Cu69 1.999 . S
N70 C72 1.263 . S
N70 C74 1.389 . S
N71 C72 1.358 . S
N71 C73 1.400 . S
C72 N70 1.263 . S
C72 N71 1.358 . S
C72 H78 0.930 . S
C73 N71 1.400 . S
C73 C74 1.351 . S
C73 H90 0.930 . S
C74 N70 1.389 . S
C74 C73 1.351 . S
C74 H79 0.930 . S
O75 Cu69 1.974 . S
O75 C85 1.282 . S
C76 O77 1.261 . S
C76 O89 1.251 . S
O77 C76 1.261 . S
H78 C72 0.930 . S
H79 C74 0.930 . S
N80 Cu69 1.985 . S
N80 C82 1.335 . S
N80 C83 1.390 . S
N81 C82 1.345 . S
N81 C84 1.336 . S
C82 N80 1.335 . S
C82 N81 1.345 . S
C82 H87 0.930 . S
C83 N80 1.390 . S
C83 C84 1.346 . S
C83 H88 0.930 . S
C84 N81 1.336 . S
C84 C83 1.346 . S
C84 H91 0.929 . S
C85 O75 1.282 . S
C85 O86 1.216 . S
O86 C85 1.216 . S
H87 C82 0.930 . S
H88 C83 0.930 . S
O89 Cu69 1.959 . S
O89 C76 1.251 . S
H90 C73 0.930 . S
H91 C84 0.929 . S
Cu92 N93 1.999 . S
Cu92 O98 1.974 . S
Cu92 N103 1.985 . S
Cu92 O112 1.959 . S
N93 Cu92 1.999 . S
N93 C95 1.263 . S
N93 C97 1.389 . S
N94 C95 1.358 . S
N94 C96 1.400 . S
C95 N93 1.263 . S
C95 N94 1.358 . S
C95 H101 0.930 . S
C96 N94 1.400 . S
C96 C97 1.351 . S
C96 H113 0.930 . S
C97 N93 1.389 . S
C97 C96 1.351 . S
C97 H102 0.930 . S
O98 Cu92 1.974 . S
O98 C108 1.282 . S
C99 O100 1.261 . S
C99 O112 1.251 . S
O100 C99 1.261 . S
H101 C95 0.930 . S
H102 C97 0.930 . S
N103 Cu92 1.985 . S
N103 C105 1.335 . S
N103 C106 1.390 . S
N104 C105 1.345 . S
N104 C107 1.336 . S
C105 N103 1.335 . S
C105 N104 1.345 . S
C105 H110 0.930 . S
C106 N103 1.390 . S
C106 C107 1.346 . S
C106 H111 0.930 . S
C107 N104 1.336 . S
C107 C106 1.346 . S
C107 H114 0.929 . S
C108 O98 1.282 . S
C108 O109 1.216 . S
O109 C108 1.216 . S
H110 C105 0.930 . S
H111 C106 0.930 . S
O112 Cu92 1.959 . S
O112 C99 1.251 . S
H113 C96 0.930 . S
H114 C107 0.929 . S
Cu115 N116 1.999 . S
Cu115 O121 1.974 . S
Cu115 N126 1.985 . S
Cu115 O135 1.959 . S
N116 Cu115 1.999 . S
N116 C118 1.263 . S
N116 C120 1.389 . S
N117 C118 1.358 . S
N117 C119 1.400 . S
C118 N116 1.263 . S
C118 N117 1.358 . S
C118 H124 0.930 . S
C119 N117 1.400 . S
C119 C120 1.351 . S
C119 H136 0.930 . S
C120 N116 1.389 . S
C120 C119 1.351 . S
C120 H125 0.930 . S
O121 Cu115 1.974 . S
O121 C131 1.282 . S
C122 O123 1.261 . S
C122 O135 1.251 . S
O123 C122 1.261 . S
H124 C118 0.930 . S
H125 C120 0.930 . S
N126 Cu115 1.985 . S
N126 C128 1.335 . S
N126 C129 1.390 . S
N127 C128 1.345 . S
N127 C130 1.336 . S
C128 N126 1.335 . S
C128 N127 1.345 . S
C128 H133 0.930 . S
C129 N126 1.390 . S
C129 C130 1.346 . S
C129 H134 0.930 . S
C130 N127 1.336 . S
C130 C129 1.346 . S
C130 H137 0.920 1_565 S
C131 O121 1.282 . S
C131 O132 1.216 . S
O132 C131 1.216 . S
H133 C128 0.930 . S
H134 C129 0.930 . S
O135 Cu115 1.959 . S
O135 C122 1.251 . S
H136 C119 0.930 . S
H137 C130 0.920 1_545 S
Cu138 N139 1.999 1_554 S
Cu138 O144 1.974 1_554 S
Cu138 N149 1.985 . S
Cu138 O158 1.959 . S
N139 Cu138 1.999 1_556 S
N139 C141 1.263 . S
N139 C143 1.389 1_556 S
N140 C141 1.358 . S
N140 C142 1.400 . S
C141 N139 1.263 . S
C141 N140 1.358 . S
C141 H147 0.930 . S
C142 N140 1.400 . S
C142 C143 1.351 1_556 S
C142 H159 0.930 1_556 S
C143 N139 1.389 1_554 S
C143 C142 1.351 1_554 S
C143 H148 0.930 . S
O144 Cu138 1.974 1_556 S
O144 C154 1.282 . S
C145 O146 1.261 1_554 S
C145 O158 1.251 . S
O146 C145 1.261 1_556 S
H147 C141 0.930 . S
H148 C143 0.930 . S
N149 Cu138 1.985 . S
N149 C151 1.335 . S
N149 C152 1.390 . S
N150 C151 1.345 . S
N150 C153 1.336 . S
C151 N149 1.335 . S
C151 N150 1.345 . S
C151 H156 0.930 . S
C152 N149 1.390 . S
C152 C153 1.346 . S
C152 H157 0.930 1_554 S
C153 N150 1.336 . S
C153 C152 1.346 . S
C153 H160 0.929 . S
C154 O144 1.282 . S
C154 O155 1.216 . S
O155 C154 1.216 . S
H156 C151 0.930 . S
H157 C152 0.930 1_556 S
O158 Cu138 1.959 . S
O158 C145 1.251 . S
H159 C142 0.930 1_554 S
H160 C153 0.929 . S
Cu161 N162 1.999 1_455 S
Cu161 O167 1.974 . S
Cu161 N172 1.985 . S
Cu161 O181 1.959 1_455 S
N162 Cu161 1.999 1_655 S
N162 C164 1.263 . S
N162 C166 1.389 . S
N163 C164 1.358 . S
N163 C165 1.400 . S
C164 N162 1.263 . S
C164 N163 1.358 . S
C164 H170 0.930 . S
C165 N163 1.400 . S
C165 C166 1.351 . S
C165 H182 0.930 . S
C166 N162 1.389 . S
C166 C165 1.351 . S
C166 H171 0.930 . S
O167 Cu161 1.974 . S
O167 C177 1.282 . S
C168 O169 1.261 . S
C168 O181 1.251 . S
O169 C168 1.261 . S
H170 C164 0.930 . S
H171 C166 0.930 . S
N172 Cu161 1.985 . S
N172 C174 1.335 . S
N172 C175 1.390 . S
N173 C174 1.345 . S
N173 C176 1.336 . S
C174 N172 1.335 . S
C174 N173 1.345 . S
C174 H179 0.930 . S
C175 N172 1.390 . S
C175 C176 1.346 . S
C175 H180 0.930 . S
C176 N173 1.336 . S
C176 C175 1.346 . S
C176 H183 0.929 . S
C177 O167 1.282 . S
C177 O178 1.216 . S
O178 C177 1.216 . S
H179 C174 0.930 . S
H180 C175 0.930 . S
O181 Cu161 1.959 1_655 S
O181 C168 1.251 . S
H182 C165 0.930 . S
H183 C176 0.929 . S
C7 N71 1.339 . S
N2 N25 1.775 . S
C62 C30 1.627 . S
C76 N58 1.832 . S
C16 N127 1.522 . S
N12 N104 1.606 . S
C108 C53 1.840 . S
N48 C131 1.961 . S
C154 N117 1.908 . S
N94 N150 1.223 . S
C99 C168 2.001 . S
C122 N163 1.598 . S
C145 N81 1.615 . S
N35 N140 1.615 . S
C39 C177 1.907 . S
C85 N173 1.694 . S
