# Generated by pormake.
# Topology bcu, (8)-cn, num edge types: 1
# Building blocks:
#     Node 0, Type 0, BuildingBlock: VETTIZ_charged_sbu_0, # of connection points: 8
#     Node 1, Type 0, BuildingBlock: VETTIZ_charged_sbu_0, # of connection points: 8
#     Edge 2, Type (0, 0), BuildingBlock: AJUNOK_clean_linker_0, # of connection points: 2
#     Edge 3, Type (0, 0), BuildingBlock: AJUNOK_clean_linker_0, # of connection points: 2
#     Edge 4, Type (0, 0), BuildingBlock: AJUNOK_clean_linker_0, # of connection points: 2
#     Edge 5, Type (0, 0), BuildingBlock: AJUNOK_clean_linker_0, # of connection points: 2
#     Edge 6, Type (0, 0), BuildingBlock: AJUNOK_clean_linker_0, # of connection points: 2
#     Edge 7, Type (0, 0), BuildingBlock: AJUNOK_clean_linker_0, # of connection points: 2
#     Edge 8, Type (0, 0), BuildingBlock: AJUNOK_clean_linker_0, # of connection points: 2
#     Edge 9, Type (0, 0), BuildingBlock: AJUNOK_clean_linker_0, # of connection points: 2
# Relax obj value: 0.000
# Max RMSD: 0.009
# Mean RMSD: 0.009
data_MOF--net-bcu--node1-VETTIZ_charged_sbu_0--edge1-AJUNOK_clean_linker_0
_symmetry_space_group_name_H-M    P1
_symmetry_Int_Tables_number       1
_symmetry_cell_setting            triclinic
loop_
_symmetry_equiv_pos_as_xyz
'x, y, z'
_cell_length_a     15.526067
_cell_length_b     13.319637
_cell_length_c     15.783678
_cell_angle_alpha  92.366675
_cell_angle_beta   91.693122
_cell_angle_gamma 92.549878
loop_
_atom_site_label
_atom_site_type_symbol
_atom_site_fract_x
_atom_site_fract_y
_atom_site_fract_z
_atom_type_partial_charge
Fe0 Fe 0.03062 0.85429 0.98544 0.0
O1 O 0.05005 1.00055 0.00614 0.0
Fe2 Fe 0.02102 0.09333 0.90421 0.0
Fe3 Fe 0.99151 1.07664 0.09846 0.0
O4 O 0.05286 1.00212 -0.00282 0.0
O5 O 0.96482 0.17018 -0.0025 0.0
O6 O 0.96295 0.16915 0.006 0.0
Fe7 Fe 0.98073 0.31642 0.01646 0.0
C8 C 0.86925 0.9013 0.08579 0.0
O9 O 0.0997 0.85248 0.09818 0.0
O10 O 0.03228 0.96848 0.18334 0.0
O11 O 0.08029 0.33016 0.93536 0.0
O12 O 0.1348 0.17965 0.92126 0.0
O13 O 0.08993 0.99732 0.82099 0.0
O14 O 0.13039 0.86866 0.90559 0.0
O15 O 0.10523 0.15657 0.12947 0.0
O16 O 0.0678 0.31566 0.11805 0.0
C17 C 0.13693 0.92067 0.83841 0.0
O18 O 0.9057 0.31208 0.90757 0.0
O19 O 0.97452 0.19949 0.81974 0.0
O20 O 0.92592 0.84203 0.0611 0.0
O21 O 0.87722 0.99519 0.07454 0.0
C22 C 0.08133 0.89222 0.17169 0.0
C23 C 0.11847 0.25056 0.14506 0.0
C24 C 0.87743 0.24676 0.16692 0.0
O25 O 0.92275 0.16893 0.18227 0.0
O26 O 0.88435 0.30195 0.10176 0.0
C27 C 0.13736 0.27348 0.90741 0.0
O28 O 0.90636 1.01301 0.8785 0.0
O29 O 0.95171 0.85771 0.87752 0.0
C30 C 0.92374 0.27405 0.83334 0.0
C31 C 0.89947 0.92181 0.85204 0.0
Fe32 Fe 0.50331 0.81558 0.4575 0.0
O33 O 0.49677 0.66808 0.45165 0.0
Fe34 Fe 0.60713 0.58961 0.48223 0.0
Fe35 Fe 0.41043 0.5851 0.51366 0.0
O36 O 0.50487 0.66695 0.44798 0.0
O37 O 0.52112 0.50744 0.54564 0.0
O38 O 0.51266 0.50805 0.54854 0.0
Fe39 Fe 0.51185 0.35904 0.53621 0.0
C40 C 0.4047 0.77315 0.61979 0.0
O41 O 0.38816 0.79455 0.3894 0.0
O42 O 0.31398 0.67423 0.46489 0.0
O43 O 0.59032 0.34688 0.43455 0.0
O44 O 0.59205 0.49533 0.37575 0.0
O45 O 0.68209 0.68614 0.40649 0.0
O46 O 0.58678 0.80262 0.36007 0.0
O47 O 0.39103 0.49539 0.40534 0.0
O48 O 0.40323 0.3438 0.45597 0.0
C49 C 0.65809 0.75604 0.35596 0.0
O50 O 0.62593 0.37641 0.60475 0.0
O51 O 0.70252 0.49792 0.53223 0.0
O52 O 0.42572 0.82705 0.55881 0.0
O53 O 0.42242 0.6804 0.62069 0.0
C54 C 0.31833 0.74548 0.41081 0.0
C55 C 0.37633 0.40102 0.3992 0.0
C56 C 0.35749 0.41725 0.63859 0.0
O57 O 0.33411 0.48663 0.58716 0.0
O58 O 0.42912 0.37151 0.63404 0.0
C59 C 0.61046 0.40316 0.37482 0.0
O60 O 0.63083 0.68254 0.58796 0.0
O61 O 0.61185 0.83425 0.5376 0.0
C62 C 0.69637 0.42542 0.58551 0.0
C63 C 0.64508 0.77733 0.59135 0.0
C64 C 0.21041 0.23012 0.2752 0.0
C65 C 0.19114 0.2851 0.20356 0.0
C66 C 0.27249 0.26619 0.33676 0.0
C67 C 0.31849 0.35859 0.32848 0.0
H68 H 0.1746 0.16065 0.28531 0.0
H69 H 0.28221 0.22293 0.39259 0.0
S70 S 0.30463 0.52066 0.14279 0.0
N71 N 0.23026 0.42977 0.12197 0.0
N72 N 0.34915 0.49674 0.23576 0.0
C73 C 0.30388 0.411 0.25387 0.0
C74 C 0.23966 0.37464 0.19194 0.0
C75 C 0.73172 0.23054 0.22848 0.0
C76 C 0.81365 0.27973 0.22776 0.0
C77 C 0.66474 0.27263 0.2741 0.0
C78 C 0.67711 0.36646 0.31815 0.0
H79 H 0.71865 0.1608 0.19172 0.0
H80 H 0.60275 0.23198 0.27454 0.0
S81 S 0.88225 0.52047 0.34072 0.0
N82 N 0.90486 0.42394 0.27746 0.0
N83 N 0.7798 0.50248 0.36384 0.0
C84 C 0.75943 0.41494 0.31905 0.0
C85 C 0.82743 0.37185 0.27334 0.0
C86 C 0.78138 0.92888 0.21413 0.0
C87 C 0.80807 0.8634 0.14879 0.0
C88 C 0.73544 0.89245 0.28238 0.0
C89 C 0.71517 0.78908 0.28854 0.0
H90 H 0.79852 1.00852 0.21425 0.0
H91 H 0.71582 0.94568 0.3311 0.0
S92 S 0.76118 0.58722 0.13013 0.0
N93 N 0.80556 0.69034 0.09211 0.0
N94 N 0.71756 0.62295 0.22004 0.0
C95 C 0.73901 0.72299 0.22284 0.0
C96 C 0.78582 0.75991 0.15309 0.0
C97 C 0.15184 0.74855 0.23664 0.0
C98 C 0.12242 0.84704 0.24597 0.0
C99 C 0.20877 0.71116 0.29648 0.0
C100 C 0.23895 0.77131 0.36664 0.0
H101 H 0.13473 0.70181 0.18032 0.0
H102 H 0.2342 0.63785 0.28469 0.0
S103 S 0.16448 1.0215 0.43342 0.0
N104 N 0.11296 0.99412 0.34165 0.0
N105 N 0.2247 0.92507 0.45168 0.0
C106 C 0.20325 0.8648 0.38204 0.0
C107 C 0.14331 0.90225 0.32226 0.0
C108 C 0.23206 0.78718 0.78446 0.0
C109 C 0.20381 0.88639 0.77963 0.0
C110 C 0.29951 0.75262 0.73587 0.0
C111 C 0.34215 0.81553 0.67992 0.0
H112 H 0.20142 0.73467 0.82608 0.0
H113 H 0.31685 0.67516 0.74103 0.0
S114 S 0.29413 1.08256 0.64371 0.0
N115 N 0.22418 1.04716 0.71458 0.0
N116 N 0.35179 0.98379 0.62349 0.0
C117 C 0.31517 0.91561 0.6749 0.0
C118 C 0.24567 0.9504 0.72418 0.0
C119 C 0.32487 0.30617 0.75987 0.0
C120 C 0.3001 0.38492 0.70787 0.0
C121 C 0.27292 0.2712 0.82463 0.0
C122 C 0.19467 0.31487 0.84204 0.0
H123 H 0.38478 0.26935 0.7501 0.0
H124 H 0.29426 0.20934 0.86119 0.0
S125 S 0.09973 0.52483 0.72712 0.0
N126 N 0.19136 0.506 0.67986 0.0
N127 N 0.09447 0.44251 0.8023 0.0
C128 C 0.16954 0.39522 0.79197 0.0
C129 C 0.22195 0.4297 0.72497 0.0
C130 C 0.86009 0.26458 0.68514 0.0
C131 C 0.8825 0.3212 0.76034 0.0
C132 C 0.80542 0.30312 0.62319 0.0
C133 C 0.77314 0.39965 0.63421 0.0
H134 H 0.87957 0.18778 0.67686 0.0
H135 H 0.78369 0.25481 0.56911 0.0
S136 S 0.81717 0.57994 0.81634 0.0
N137 N 0.87438 0.48242 0.83812 0.0
N138 N 0.76869 0.55125 0.72348 0.0
C139 C 0.79938 0.45897 0.70612 0.0
C140 C 0.85513 0.42064 0.76872 0.0
C141 C 0.78741 0.77271 0.66696 0.0
C142 C 0.70936 0.8204 0.65543 0.0
C143 C 0.8482 0.80672 0.7302 0.0
C144 C 0.83365 0.89022 0.78461 0.0
H145 H 0.80179 0.70841 0.62637 0.0
H146 H 0.90735 0.76703 0.73625 0.0
S147 S 0.64237 1.04779 0.77481 0.0
N148 N 0.62274 0.95961 0.69909 0.0
N149 N 0.73715 1.0245 0.81833 0.0
C150 C 0.75729 0.9417 0.77114 0.0
C151 C 0.69519 0.90668 0.70639 0.0
loop_
_geom_bond_atom_site_label_1
_geom_bond_atom_site_label_2
_geom_bond_distance
_geom_bond_site_symmetry_2
_ccdc_geom_bond_type
Fe0 O1 1.886 . S
Fe0 O4 1.715 1_554 S
Fe0 O9 2.077 . S
Fe0 O14 1.935 1_554 S
Fe0 O20 2.077 1_455 S
Fe0 O29 1.935 1_454 S
O1 Fe0 1.886 . S
O1 Fe3 1.715 1_565 S
Fe2 O4 1.886 . S
Fe2 O5 1.715 1_565 S
Fe2 O12 1.935 1_565 S
Fe2 O13 2.077 . S
Fe2 O19 1.935 1_465 S
Fe2 O28 2.077 1_455 S
Fe3 O1 1.715 1_545 S
Fe3 O6 1.886 . S
Fe3 O10 1.935 1_545 S
Fe3 O15 2.077 . S
Fe3 O21 1.935 1_445 S
Fe3 O25 2.077 1_455 S
O4 Fe0 1.715 1_556 S
O4 Fe2 1.886 . S
O5 Fe2 1.715 1_545 S
O5 Fe7 1.886 . S
O6 Fe3 1.886 . S
O6 Fe7 1.715 1_554 S
Fe7 O5 1.886 . S
Fe7 O6 1.715 1_556 S
Fe7 O11 2.077 . S
Fe7 O16 1.935 1_556 S
Fe7 O18 2.077 1_455 S
Fe7 O26 1.935 1_456 S
C8 O20 1.381 . S
C8 O21 1.421 . S
O9 Fe0 2.077 . S
O9 C22 1.381 . S
O10 Fe3 1.935 1_565 S
O10 C22 1.421 . S
O11 Fe7 2.077 . S
O11 C27 1.381 . S
O12 Fe2 1.935 1_545 S
O12 C27 1.421 . S
O13 Fe2 2.077 . S
O13 C17 1.381 . S
O14 Fe0 1.935 1_556 S
O14 C17 1.421 . S
O15 Fe3 2.077 . S
O15 C23 1.381 . S
O16 Fe7 1.935 1_554 S
O16 C23 1.421 . S
C17 O13 1.381 . S
C17 O14 1.421 . S
O18 Fe7 2.077 1_655 S
O18 C30 1.381 . S
O19 Fe2 1.935 1_645 S
O19 C30 1.421 . S
O20 Fe0 2.077 1_655 S
O20 C8 1.381 . S
O21 Fe3 1.935 1_665 S
O21 C8 1.421 . S
C22 O9 1.381 . S
C22 O10 1.421 . S
C23 O15 1.381 . S
C23 O16 1.421 . S
C24 O25 1.381 . S
C24 O26 1.421 . S
O25 Fe3 2.077 1_655 S
O25 C24 1.381 . S
O26 Fe7 1.935 1_654 S
O26 C24 1.421 . S
C27 O11 1.381 . S
C27 O12 1.421 . S
O28 Fe2 2.077 1_655 S
O28 C31 1.381 . S
O29 Fe0 1.935 1_656 S
O29 C31 1.421 . S
C30 O18 1.381 . S
C30 O19 1.421 . S
C31 O28 1.381 . S
C31 O29 1.421 . S
Fe32 O33 1.886 . S
Fe32 O36 1.715 . S
Fe32 O41 2.077 . S
Fe32 O46 1.935 . S
Fe32 O52 2.077 . S
Fe32 O61 1.935 . S
O33 Fe32 1.886 . S
O33 Fe35 1.715 . S
Fe34 O36 1.886 . S
Fe34 O37 1.715 . S
Fe34 O44 1.935 . S
Fe34 O45 2.077 . S
Fe34 O51 1.935 . S
Fe34 O60 2.077 . S
Fe35 O33 1.715 . S
Fe35 O38 1.886 . S
Fe35 O42 1.935 . S
Fe35 O47 2.077 . S
Fe35 O53 1.935 . S
Fe35 O57 2.077 . S
O36 Fe32 1.715 . S
O36 Fe34 1.886 . S
O37 Fe34 1.715 . S
O37 Fe39 1.886 . S
O38 Fe35 1.886 . S
O38 Fe39 1.715 . S
Fe39 O37 1.886 . S
Fe39 O38 1.715 . S
Fe39 O43 2.077 . S
Fe39 O48 1.935 . S
Fe39 O50 2.077 . S
Fe39 O58 1.935 . S
C40 O52 1.381 . S
C40 O53 1.421 . S
O41 Fe32 2.077 . S
O41 C54 1.381 . S
O42 Fe35 1.935 . S
O42 C54 1.421 . S
O43 Fe39 2.077 . S
O43 C59 1.381 . S
O44 Fe34 1.935 . S
O44 C59 1.421 . S
O45 Fe34 2.077 . S
O45 C49 1.381 . S
O46 Fe32 1.935 . S
O46 C49 1.421 . S
O47 Fe35 2.077 . S
O47 C55 1.381 . S
O48 Fe39 1.935 . S
O48 C55 1.421 . S
C49 O45 1.381 . S
C49 O46 1.421 . S
O50 Fe39 2.077 . S
O50 C62 1.381 . S
O51 Fe34 1.935 . S
O51 C62 1.421 . S
O52 Fe32 2.077 . S
O52 C40 1.381 . S
O53 Fe35 1.935 . S
O53 C40 1.421 . S
C54 O41 1.381 . S
C54 O42 1.421 . S
C55 O47 1.381 . S
C55 O48 1.421 . S
C56 O57 1.381 . S
C56 O58 1.421 . S
O57 Fe35 2.077 . S
O57 C56 1.381 . S
O58 Fe39 1.935 . S
O58 C56 1.421 . S
C59 O43 1.381 . S
C59 O44 1.421 . S
O60 Fe34 2.077 . S
O60 C63 1.381 . S
O61 Fe32 1.935 . S
O61 C63 1.421 . S
C62 O50 1.381 . S
C62 O51 1.421 . S
C63 O60 1.381 . S
C63 O61 1.421 . S
C64 C65 1.369 . S
C64 C66 1.419 . S
C64 H68 0.930 . S
C65 C64 1.369 . S
C65 C74 1.429 . S
C66 C64 1.419 . S
C66 C67 1.363 . S
C66 H69 0.929 . S
C67 C66 1.363 . S
C67 C73 1.428 . S
H68 C64 0.930 . S
H69 C66 0.929 . S
S70 N71 1.613 . S
S70 N72 1.610 . S
N71 S70 1.613 . S
N71 C74 1.350 . S
N72 S70 1.610 . S
N72 C73 1.351 . S
C73 C67 1.428 . S
C73 N72 1.351 . S
C73 C74 1.434 . S
C74 C65 1.429 . S
C74 N71 1.350 . S
C74 C73 1.434 . S
C75 C76 1.369 . S
C75 C77 1.419 . S
C75 H79 0.930 . S
C76 C75 1.369 . S
C76 C85 1.429 . S
C77 C75 1.419 . S
C77 C78 1.363 . S
C77 H80 0.929 . S
C78 C77 1.363 . S
C78 C84 1.428 . S
H79 C75 0.930 . S
H80 C77 0.929 . S
S81 N82 1.613 . S
S81 N83 1.610 . S
N82 S81 1.613 . S
N82 C85 1.350 . S
N83 S81 1.610 . S
N83 C84 1.351 . S
C84 C78 1.428 . S
C84 N83 1.351 . S
C84 C85 1.434 . S
C85 C76 1.429 . S
C85 N82 1.350 . S
C85 C84 1.434 . S
C86 C87 1.369 . S
C86 C88 1.419 . S
C86 H90 0.930 . S
C87 C86 1.369 . S
C87 C96 1.429 . S
C88 C86 1.419 . S
C88 C89 1.363 . S
C88 H91 0.929 . S
C89 C88 1.363 . S
C89 C95 1.428 . S
H90 C86 0.930 . S
H91 C88 0.929 . S
S92 N93 1.613 . S
S92 N94 1.610 . S
N93 S92 1.613 . S
N93 C96 1.350 . S
N94 S92 1.610 . S
N94 C95 1.351 . S
C95 C89 1.428 . S
C95 N94 1.351 . S
C95 C96 1.434 . S
C96 C87 1.429 . S
C96 N93 1.350 . S
C96 C95 1.434 . S
C97 C98 1.369 . S
C97 C99 1.419 . S
C97 H101 0.930 . S
C98 C97 1.369 . S
C98 C107 1.429 . S
C99 C97 1.419 . S
C99 C100 1.363 . S
C99 H102 0.929 . S
C100 C99 1.363 . S
C100 C106 1.428 . S
H101 C97 0.930 . S
H102 C99 0.929 . S
S103 N104 1.613 . S
S103 N105 1.610 . S
N104 S103 1.613 . S
N104 C107 1.350 . S
N105 S103 1.610 . S
N105 C106 1.351 . S
C106 C100 1.428 . S
C106 N105 1.351 . S
C106 C107 1.434 . S
C107 C98 1.429 . S
C107 N104 1.350 . S
C107 C106 1.434 . S
C108 C109 1.369 . S
C108 C110 1.419 . S
C108 H112 0.930 . S
C109 C108 1.369 . S
C109 C118 1.429 . S
C110 C108 1.419 . S
C110 C111 1.363 . S
C110 H113 0.929 . S
C111 C110 1.363 . S
C111 C117 1.428 . S
H112 C108 0.930 . S
H113 C110 0.929 . S
S114 N115 1.613 . S
S114 N116 1.610 . S
N115 S114 1.613 . S
N115 C118 1.350 . S
N116 S114 1.610 . S
N116 C117 1.351 . S
C117 C111 1.428 . S
C117 N116 1.351 . S
C117 C118 1.434 . S
C118 C109 1.429 . S
C118 N115 1.350 . S
C118 C117 1.434 . S
C119 C120 1.369 . S
C119 C121 1.419 . S
C119 H123 0.930 . S
C120 C119 1.369 . S
C120 C129 1.429 . S
C121 C119 1.419 . S
C121 C122 1.363 . S
C121 H124 0.929 . S
C122 C121 1.363 . S
C122 C128 1.428 . S
H123 C119 0.930 . S
H124 C121 0.929 . S
S125 N126 1.613 . S
S125 N127 1.610 . S
N126 S125 1.613 . S
N126 C129 1.350 . S
N127 S125 1.610 . S
N127 C128 1.351 . S
C128 C122 1.428 . S
C128 N127 1.351 . S
C128 C129 1.434 . S
C129 C120 1.429 . S
C129 N126 1.350 . S
C129 C128 1.434 . S
C130 C131 1.369 . S
C130 C132 1.419 . S
C130 H134 0.930 . S
C131 C130 1.369 . S
C131 C140 1.429 . S
C132 C130 1.419 . S
C132 C133 1.363 . S
C132 H135 0.929 . S
C133 C132 1.363 . S
C133 C139 1.428 . S
H134 C130 0.930 . S
H135 C132 0.929 . S
S136 N137 1.613 . S
S136 N138 1.610 . S
N137 S136 1.613 . S
N137 C140 1.350 . S
N138 S136 1.610 . S
N138 C139 1.351 . S
C139 C133 1.428 . S
C139 N138 1.351 . S
C139 C140 1.434 . S
C140 C131 1.429 . S
C140 N137 1.350 . S
C140 C139 1.434 . S
C141 C142 1.369 . S
C141 C143 1.419 . S
C141 H145 0.930 . S
C142 C141 1.369 . S
C142 C151 1.429 . S
C143 C141 1.419 . S
C143 C144 1.363 . S
C143 H146 0.929 . S
C144 C143 1.363 . S
C144 C150 1.428 . S
H145 C141 0.930 . S
H146 C143 0.929 . S
S147 N148 1.613 . S
S147 N149 1.610 . S
N148 S147 1.613 . S
N148 C151 1.350 . S
N149 S147 1.610 . S
N149 C150 1.351 . S
C150 C144 1.428 . S
C150 N149 1.351 . S
C150 C151 1.434 . S
C151 C142 1.429 . S
C151 N148 1.350 . S
C151 C150 1.434 . S
C65 C23 1.450 . S
C67 C55 1.452 . S
C76 C24 1.449 . S
C78 C59 1.447 . S
C87 C8 1.448 . S
C89 C49 1.452 . S
C98 C22 1.452 . S
C100 C54 1.449 . S
C109 C17 1.456 . S
C111 C40 1.456 . S
C120 C56 1.451 . S
C122 C27 1.448 . S
C131 C30 1.456 . S
C133 C62 1.456 . S
C142 C63 1.448 . S
C144 C31 1.456 . S
