# Generated by pormake.
# Topology pcu, (6)-cn, num edge types: 1
# Building blocks:
#     Node 0, Type 0, BuildingBlock: PAMTUU_clean_sbu_0, # of connection points: 6
#     Edge 1, Type (0, 0), BuildingBlock: MIFKUJ_clean_linker_0, # of connection points: 2
#     Edge 2, Type (0, 0), BuildingBlock: MIFKUJ_clean_linker_0, # of connection points: 2
#     Edge 3, Type (0, 0), BuildingBlock: MIFKUJ_clean_linker_0, # of connection points: 2
# Relax obj value: 0.000
# Max RMSD: 0.000
# Mean RMSD: 0.000
data_MOF--net-pcu--node1-PAMTUU_clean_sbu_0--edge1-MIFKUJ_clean_linker_0
_symmetry_space_group_name_H-M    P1
_symmetry_Int_Tables_number       1
_symmetry_cell_setting            triclinic
loop_
_symmetry_equiv_pos_as_xyz
'x, y, z'
_cell_length_a     30.333662
_cell_length_b     19.679785
_cell_length_c     19.618617
_cell_angle_alpha  82.934463
_cell_angle_beta   99.142537
_cell_angle_gamma 118.28222
loop_
_atom_site_label
_atom_site_type_symbol
_atom_site_fract_x
_atom_site_fract_y
_atom_site_fract_z
_atom_type_partial_charge
Tb0 Tb 0.08343 0.03743 -0.00267 0.0
Tb1 Tb 0.95704 0.95456 0.97373 0.0
C2 C 1.01799 0.9893 0.11944 0.0
C3 C 0.21936 0.0756 0.01546 0.0
C4 C 0.30231 0.04584 0.01665 0.0
C5 C 0.2968 0.07671 0.07391 0.0
C6 C 0.25595 0.09162 0.07316 0.0
C7 C 0.22393 0.04289 0.95881 0.0
C8 C 0.26495 0.02827 0.9594 0.0
C9 C 0.17896 0.09811 0.01402 0.0
O10 O 0.05989 0.91831 0.97959 0.0
O11 O 0.97613 0.86017 0.00022 0.0
O12 O 0.98152 0.94265 0.88022 0.0
O13 O 0.05916 0.04928 0.88795 0.0
O14 O 0.88705 0.88347 0.01089 0.0
O15 O 0.89132 0.93869 0.90816 0.0
O16 O 0.98477 0.07776 0.95049 0.0
O17 O 0.06357 0.12636 0.01261 0.0
O18 O 0.0548 0.98553 0.09562 0.0
O19 O 0.98145 -0.00486 0.07766 0.0
C20 C 1.0174 0.85704 0.99191 0.0
O21 O 0.15222 0.09758 0.95504 0.0
O22 O 0.15105 0.0708 0.06454 0.0
C23 C 1.02066 -0.00374 0.85163 0.0
C24 C 0.82133 0.91585 0.96365 0.0
C25 C 0.73937 0.94264 0.97773 0.0
C26 C 0.74212 0.91563 0.91616 0.0
C27 C 0.7825 0.90225 0.90937 0.0
C28 C 0.81953 0.94445 0.02483 0.0
C29 C 0.77892 0.95769 0.03179 0.0
C30 C 0.86195 0.89719 0.95518 0.0
C31 C 0.02473 0.13469 0.9809 0.0
H32 H 0.32418 0.08969 0.11944 0.0
H33 H 0.25336 0.1169 0.11746 0.0
H34 H 0.19643 0.02999 0.91339 0.0
H35 H 0.26808 0.00527 0.91404 0.0
H36 H 0.71304 0.90488 0.8729 0.0
H37 H 0.78319 0.88052 0.8616 0.0
H38 H 0.84908 0.95563 0.06753 0.0
H39 H 0.77794 0.97797 0.08011 0.0
H40 H 0.94308 0.9772 0.18913 0.0
H41 H 0.94456 0.97877 0.31372 0.0
H42 H 0.0953 0.00306 0.34537 0.0
H43 H 0.09365 -0.00047 0.22094 0.0
H44 H 0.04239 0.90411 0.43924 0.0
H45 H 0.07285 0.15791 0.35303 0.0
H46 H 0.05763 0.25662 0.27813 0.0
H47 H 0.91566 0.17651 0.3561 0.0
H48 H 0.92968 0.07645 0.43074 0.0
H49 H 0.10235 0.05263 0.78015 0.0
H50 H 0.10214 0.05075 0.65516 0.0
H51 H 0.93977 0.9424 0.62858 0.0
H52 H 0.93952 0.94187 0.75352 0.0
H53 H 1.00089 0.08668 0.53417 0.0
H54 H 0.97309 0.82798 0.61794 0.0
H55 H 0.99398 0.73564 0.69458 0.0
H56 H 0.13951 0.83605 0.62226 0.0
H57 H 0.11974 0.92991 0.54598 0.0
C58 C 0.97655 0.98278 0.22255 0.0
C59 C 1.01833 0.98858 0.19503 0.0
C60 C 0.97742 0.984 0.2938 0.0
C61 C 1.02036 0.99227 0.33887 0.0
C62 C 0.06179 -0.00322 0.31162 0.0
C63 C 0.0608 0.9949 0.24041 0.0
C64 C 0.02203 -0.00376 0.4144 0.0
C65 C 0.0339 0.94474 0.45986 0.0
C66 C 1.01062 0.04883 0.44155 0.0
C67 C 1.0021 0.10916 0.39699 0.0
C68 C 0.0382 0.16093 0.35382 0.0
C69 C 0.02982 0.21719 0.31146 0.0
C70 C 0.98564 0.2227 0.31222 0.0
C71 C 0.94982 0.17208 0.35549 0.0
C72 C 0.95799 0.11562 0.39788 0.0
C73 C 0.06665 0.02859 0.74758 0.0
C74 C 1.02094 -0.00277 0.77639 0.0
C75 C 0.06661 0.02745 0.67645 0.0
C76 C 1.02094 -0.00357 0.63311 0.0
C77 C 0.97532 0.96656 0.66147 0.0
C78 C 0.97528 0.96603 0.73271 0.0
C79 C 1.02072 0.99428 0.5581 0.0
C80 C 1.00933 0.04626 0.51306 0.0
C81 C 0.03334 0.9431 0.5314 0.0
C82 C 0.04519 0.88659 0.57698 0.0
C83 C 1.00976 0.83095 0.61898 0.0
C84 C 1.02134 0.7782 0.66221 0.0
C85 C 0.06811 0.78016 0.66348 0.0
C86 C 0.10334 0.83472 0.62134 0.0
C87 C 0.09196 0.88768 0.57808 0.0
H88 H 0.077 0.73924 0.69695 0.0
H89 H 0.97922 0.2663 0.2794 0.0
H90 H 0.40028 0.13849 0.06837 0.0
H91 H 0.47421 0.12037 0.0663 0.0
H92 H 0.38191 0.91117 0.95849 0.0
H93 H 0.3072 0.92691 0.96322 0.0
H94 H 0.4468 0.89053 0.05505 0.0
H95 H 0.45879 0.08462 0.87418 0.0
H96 H 0.46137 0.20741 0.82374 0.0
H97 H 0.59347 0.33395 0.96276 0.0
H98 H 0.59128 0.2118 0.01469 0.0
H99 H 0.64002 0.85088 0.93243 0.0
H100 H 0.56749 0.86982 0.94205 0.0
H101 H 0.66427 0.07586 0.05231 0.0
H102 H 0.73764 0.05901 0.04041 0.0
H103 H 0.5983 0.09959 0.95789 0.0
H104 H 0.58734 0.90468 0.13659 0.0
H105 H 0.58475 0.78151 0.18577 0.0
H106 H 0.45058 0.65605 0.04963 0.0
H107 H 0.45275 0.77857 -0.00104 0.0
C108 C 0.3954 0.08795 0.04502 0.0
C109 C 0.34751 0.03422 0.01589 0.0
C110 C 0.43798 0.0782 0.04311 0.0
C111 C 0.43395 0.01503 0.01125 0.0
C112 C 0.38614 0.96063 0.98306 0.0
C113 C 0.34345 0.97013 0.98524 0.0
C114 C 0.47949 0.00567 0.00733 0.0
C115 C 0.47966 0.93593 0.03298 0.0
C116 C 0.52302 0.0655 0.98016 0.0
C117 C 0.52457 0.13902 0.94877 0.0
C118 C 0.48817 0.13861 0.89433 0.0
C119 C 0.4896 0.20809 0.86542 0.0
C120 C 0.52748 0.27842 0.89015 0.0
C121 C 0.56411 0.27942 0.94372 0.0
C122 C 0.56282 0.21009 0.97287 0.0
C123 C 0.64613 0.90073 0.9582 0.0
C124 C 0.69491 0.95351 0.98549 0.0
C125 C 0.60439 0.91097 0.96438 0.0
C126 C 0.61015 0.97372 -0.00126 0.0
C127 C 0.65876 0.02678 0.02584 0.0
C128 C 0.70066 0.01668 0.01951 0.0
C129 C 0.5655 0.98434 0.00532 0.0
C130 C 0.5655 0.0543 0.98017 0.0
C131 C 0.52209 0.92467 0.03282 0.0
C132 C 0.52047 0.85086 0.06358 0.0
C133 C 0.55748 0.85086 0.11681 0.0
C134 C 0.55605 0.78115 0.14501 0.0
C135 C 0.51759 0.71101 0.12074 0.0
C136 C 0.48038 0.71043 0.06834 0.0
C137 C 0.48166 0.77998 0.03992 0.0
H138 H 0.51656 0.65711 0.14261 0.0
H139 H 0.52852 0.33216 0.86771 0.0
H140 H 0.939 0.72068 0.94931 0.0
H141 H 0.93966 0.59683 0.94922 0.0
H142 H 0.09336 0.69864 0.04674 0.0
H143 H 0.09364 0.82333 0.04275 0.0
H144 H 0.08752 0.6191 0.95194 0.0
H145 H 0.98468 0.56637 0.13353 0.0
H146 H 0.91389 0.55775 0.18729 0.0
H147 H 0.80837 0.39676 0.03907 0.0
H148 H 0.87853 0.40516 0.98387 0.0
H149 H 0.09704 0.26444 0.04465 0.0
H150 H 0.09533 0.38673 0.04869 0.0
H151 H 0.95155 0.2977 0.92258 0.0
H152 H 0.95248 0.17495 0.9189 0.0
H153 H 0.95239 0.36907 0.03327 0.0
H154 H 0.05909 0.42458 0.85357 0.0
H155 H 0.13189 0.43273 0.80542 0.0
H156 H 0.23302 0.58904 0.95976 0.0
H157 H 0.16079 0.58102 0.00938 0.0
C158 C 0.9727 0.71616 0.9711 0.0
C159 C 1.01627 0.78118 -0.00402 0.0
C160 C 0.97301 0.64534 0.97147 0.0
C161 C 1.01634 0.63788 -0.00104 0.0
C162 C 0.05952 0.70283 0.02505 0.0
C163 C 0.05965 0.77398 0.02292 0.0
C164 C 1.01773 0.56362 -0.00219 0.0
C165 C 0.0583 0.56469 0.97085 0.0
C166 C 0.97914 0.49214 0.02099 0.0
C167 C 0.93689 0.48698 0.05418 0.0
C168 C 0.94638 0.52956 0.1121 0.0
C169 C 0.90636 0.52464 0.14288 0.0
C170 C 0.85666 0.47689 0.11651 0.0
C171 C 0.84688 0.4338 0.0594 0.0
C172 C 0.88675 0.43856 0.02839 0.0
C173 C 0.06516 0.27092 0.01743 0.0
C174 C 0.02497 0.20993 0.98126 0.0
C175 C 0.06431 0.34091 0.01972 0.0
C176 C 0.02349 0.35134 0.98546 0.0
C177 C 0.98337 0.29069 0.94936 0.0
C178 C 0.98411 0.22068 0.94713 0.0
C179 C 0.02217 0.42516 0.98789 0.0
C180 C 0.9816 0.4238 0.01483 0.0
C181 C 0.06109 0.49651 0.96569 0.0
C182 C 0.10451 0.50162 0.93555 0.0
C183 C 0.09684 0.46023 0.87753 0.0
C184 C 0.138 0.46492 0.84993 0.0
C185 C 0.18704 0.51122 0.87961 0.0
C186 C 0.19502 0.55312 0.93686 0.0
C187 C 0.15399 0.54859 0.9647 0.0
H188 H 0.21886 0.51476 0.85817 0.0
H189 H 0.82574 0.47317 0.14041 0.0
loop_
_geom_bond_atom_site_label_1
_geom_bond_atom_site_label_2
_geom_bond_distance
_geom_bond_site_symmetry_2
_ccdc_geom_bond_type
Tb0 C9 2.764 . S
Tb0 O10 2.325 1_545 S
Tb0 O13 2.303 1_554 S
Tb0 O17 2.322 . S
Tb0 O18 2.349 . S
Tb0 O21 2.415 1_554 S
Tb0 O22 2.399 . S
Tb1 O11 2.322 . S
Tb1 O12 2.349 . S
Tb1 O14 2.415 1_556 S
Tb1 O15 2.399 . S
Tb1 O16 2.325 1_565 S
Tb1 O19 2.303 1_556 S
Tb1 C30 2.764 . S
C2 O18 1.261 . S
C2 O19 1.257 1_445 S
C3 C6 1.358 . S
C3 C7 1.332 1_544 S
C3 C9 1.504 . S
C4 C5 1.373 1_566 S
C4 C8 1.308 . S
C5 C4 1.373 1_544 S
C5 C6 1.429 . S
C5 H32 0.932 . S
C6 C3 1.358 . S
C6 C5 1.429 . S
C6 H33 0.930 . S
C7 C3 1.332 1_566 S
C7 C8 1.394 . S
C7 H34 0.932 . S
C8 C4 1.308 . S
C8 C7 1.394 . S
C8 H35 0.929 . S
C9 Tb0 2.764 . S
C9 C3 1.504 . S
C9 O21 1.239 1_554 S
C9 O22 1.263 . S
O10 Tb0 2.325 1_565 S
O10 C20 1.232 1_455 S
O11 Tb1 2.322 . S
O11 C20 1.265 1_556 S
O12 Tb1 2.349 . S
O12 C23 1.261 . S
O13 Tb0 2.303 1_556 S
O13 C23 1.257 1_445 S
O14 Tb1 2.415 1_554 S
O14 C30 1.239 1_554 S
O15 Tb1 2.399 . S
O15 C30 1.263 . S
O16 Tb1 2.325 1_545 S
O16 C31 1.229 1_655 S
O17 Tb0 2.322 . S
O17 C31 1.271 1_554 S
O18 Tb0 2.349 . S
O18 C2 1.261 . S
O19 Tb1 2.303 1_554 S
O19 C2 1.257 1_665 S
C20 O10 1.232 1_655 S
C20 O11 1.265 1_554 S
O21 Tb0 2.415 1_556 S
O21 C9 1.239 1_556 S
O22 Tb0 2.399 . S
O22 C9 1.263 . S
C23 O12 1.261 . S
C23 O13 1.257 1_665 S
C24 C27 1.358 . S
C24 C28 1.332 1_566 S
C24 C30 1.504 . S
C25 C26 1.373 1_544 S
C25 C29 1.308 . S
C26 C25 1.373 1_566 S
C26 C27 1.429 . S
C26 H36 0.932 . S
C27 C24 1.358 . S
C27 C26 1.429 . S
C27 H37 0.930 . S
C28 C24 1.332 1_544 S
C28 C29 1.394 . S
C28 H38 0.932 . S
C29 C25 1.308 . S
C29 C28 1.394 . S
C29 H39 0.929 . S
C30 Tb1 2.764 . S
C30 O14 1.239 1_556 S
C30 O15 1.263 . S
C30 C24 1.504 . S
C31 O16 1.229 1_455 S
C31 O17 1.271 1_556 S
H32 C5 0.932 . S
H33 C6 0.930 . S
H34 C7 0.932 . S
H35 C8 0.929 . S
H36 C26 0.932 . S
H37 C27 0.930 . S
H38 C28 0.932 . S
H39 C29 0.929 . S
H40 C58 0.951 . S
H41 C60 0.951 . S
H42 C62 0.950 . S
H43 C63 0.950 . S
H44 C65 0.950 . S
H45 C68 0.950 . S
H46 C69 0.950 . S
H47 C71 0.950 . S
H48 C72 0.950 . S
H49 C73 0.951 . S
H50 C75 0.951 . S
H51 C77 0.950 . S
H52 C78 0.950 . S
H53 C80 0.950 . S
H54 C83 0.950 . S
H55 C84 0.950 . S
H56 C86 0.950 . S
H57 C87 0.950 . S
C58 H40 0.951 . S
C58 C59 1.367 1_645 S
C58 C60 1.388 . S
C59 C58 1.367 1_465 S
C59 C63 1.383 . S
C60 H41 0.951 . S
C60 C58 1.388 . S
C60 C61 1.366 1_655 S
C61 C60 1.366 1_455 S
C61 C62 1.414 1_545 S
C61 C64 1.499 . S
C62 H42 0.950 . S
C62 C61 1.414 1_565 S
C62 C63 1.374 . S
C63 H43 0.950 . S
C63 C59 1.383 . S
C63 C62 1.374 . S
C64 C61 1.499 . S
C64 C65 1.373 1_545 S
C64 C66 1.389 1_455 S
C65 H44 0.950 . S
C65 C64 1.373 1_565 S
C65 C81 1.377 . S
C66 C64 1.389 1_655 S
C66 C67 1.524 . S
C66 C80 1.377 . S
C67 C66 1.524 . S
C67 C68 1.397 1_655 S
C67 C72 1.363 . S
C68 H45 0.950 . S
C68 C67 1.397 1_455 S
C68 C69 1.334 . S
C69 H46 0.950 . S
C69 C68 1.334 . S
C69 C70 1.287 . S
C70 C69 1.287 . S
C70 C71 1.524 1_455 S
C70 H89 0.913 . S
C71 H47 0.950 . S
C71 C70 1.524 1_655 S
C71 C72 1.415 . S
C72 H48 0.950 . S
C72 C67 1.363 . S
C72 C71 1.415 . S
C73 H49 0.951 . S
C73 C74 1.365 1_565 S
C73 C75 1.388 . S
C74 C73 1.365 1_545 S
C74 C78 1.385 1_455 S
C75 H50 0.951 . S
C75 C73 1.388 . S
C75 C76 1.366 1_455 S
C76 C75 1.366 1_655 S
C76 C77 1.414 1_565 S
C76 C79 1.499 . S
C77 H51 0.950 . S
C77 C76 1.414 1_545 S
C77 C78 1.374 . S
C78 H52 0.950 . S
C78 C74 1.385 1_655 S
C78 C77 1.374 . S
C79 C76 1.499 . S
C79 C80 1.373 1_565 S
C79 C81 1.389 1_655 S
C80 H53 0.950 . S
C80 C66 1.377 . S
C80 C79 1.373 1_545 S
C81 C65 1.377 . S
C81 C79 1.389 1_455 S
C81 C82 1.524 . S
C82 C81 1.524 . S
C82 C83 1.397 1_455 S
C82 C87 1.363 . S
C83 H54 0.950 . S
C83 C82 1.397 1_655 S
C83 C84 1.334 . S
C84 H55 0.950 . S
C84 C83 1.334 . S
C84 C85 1.287 . S
C85 C84 1.287 . S
C85 C86 1.524 1_655 S
C85 H88 0.999 . S
C86 H56 0.950 . S
C86 C85 1.524 1_455 S
C86 C87 1.415 . S
C87 H57 0.950 . S
C87 C82 1.363 . S
C87 C86 1.415 . S
H88 C85 0.999 . S
H89 C70 0.913 . S
H90 C108 0.951 . S
H91 C110 0.951 . S
H92 C112 0.950 . S
H93 C113 0.950 . S
H94 C115 0.950 . S
H95 C118 0.950 . S
H96 C119 0.950 . S
H97 C121 0.950 . S
H98 C122 0.950 1_554 S
H99 C123 0.951 . S
H100 C125 0.951 . S
H101 C127 0.950 . S
H102 C128 0.950 . S
H103 C130 0.950 . S
H104 C133 0.950 . S
H105 C134 0.950 . S
H106 C136 0.950 . S
H107 C137 0.950 1_556 S
C108 H90 0.951 . S
C108 C109 1.367 1_545 S
C108 C110 1.388 . S
C109 C108 1.367 1_565 S
C109 C113 1.382 1_554 S
C110 H91 0.951 . S
C110 C108 1.388 . S
C110 C111 1.366 1_554 S
C111 C110 1.366 1_556 S
C111 C112 1.414 1_545 S
C111 C114 1.503 . S
C112 H92 0.950 . S
C112 C111 1.414 1_565 S
C112 C113 1.374 . S
C113 H93 0.950 . S
C113 C109 1.382 1_556 S
C113 C112 1.374 . S
C114 C111 1.503 . S
C114 C115 1.365 1_546 S
C114 C116 1.393 . S
C115 H94 0.950 . S
C115 C114 1.365 1_564 S
C115 C131 1.377 . S
C116 C114 1.393 . S
C116 C117 1.524 . S
C116 C130 1.377 . S
C117 C116 1.524 . S
C117 C118 1.397 . S
C117 C122 1.363 . S
C118 H95 0.950 . S
C118 C117 1.397 . S
C118 C119 1.334 . S
C119 H96 0.950 . S
C119 C118 1.334 . S
C119 C120 1.287 . S
C120 C119 1.287 . S
C120 C121 1.524 . S
C120 H139 0.913 . S
C121 H97 0.950 . S
C121 C120 1.524 . S
C121 C122 1.415 . S
C122 H98 0.950 1_556 S
C122 C117 1.363 . S
C122 C121 1.415 . S
C123 H99 0.951 . S
C123 C124 1.366 1_566 S
C123 C125 1.388 . S
C124 C123 1.366 1_544 S
C124 C128 1.385 . S
C125 H100 0.951 . S
C125 C123 1.388 . S
C125 C126 1.366 1_556 S
C126 C125 1.366 1_554 S
C126 C127 1.414 1_565 S
C126 C129 1.501 . S
C127 H101 0.950 . S
C127 C126 1.414 1_545 S
C127 C128 1.374 . S
C128 H102 0.950 . S
C128 C124 1.385 . S
C128 C127 1.374 . S
C129 C126 1.501 . S
C129 C130 1.369 1_564 S
C129 C131 1.391 . S
C130 H103 0.950 . S
C130 C116 1.377 . S
C130 C129 1.369 1_546 S
C131 C115 1.377 . S
C131 C129 1.391 . S
C131 C132 1.524 . S
C132 C131 1.524 . S
C132 C133 1.397 . S
C132 C137 1.363 . S
C133 H104 0.950 . S
C133 C132 1.397 . S
C133 C134 1.334 . S
C134 H105 0.950 . S
C134 C133 1.334 . S
C134 C135 1.287 . S
C135 C134 1.287 . S
C135 C136 1.524 . S
C135 H138 0.999 . S
C136 H106 0.950 . S
C136 C135 1.524 . S
C136 C137 1.415 . S
C137 H107 0.950 1_554 S
C137 C132 1.363 . S
C137 C136 1.415 . S
H138 C135 0.999 . S
H139 C120 0.913 . S
H140 C158 0.951 . S
H141 C160 0.951 . S
H142 C162 0.950 . S
H143 C163 0.950 . S
H144 C165 0.950 . S
H145 C168 0.950 . S
H146 C169 0.950 . S
H147 C171 0.942 1_556 S
H148 C172 0.950 . S
H149 C173 0.951 . S
H150 C175 0.951 . S
H151 C177 0.950 . S
H152 C178 0.950 . S
H153 C180 0.950 . S
H154 C183 0.950 . S
H155 C184 0.950 . S
H156 C186 0.944 1_554 S
H157 C187 0.950 . S
C158 H140 0.951 . S
C158 C159 1.366 1_656 S
C158 C160 1.388 . S
C159 C158 1.366 1_454 S
C159 C163 1.386 . S
C160 H141 0.951 . S
C160 C158 1.388 . S
C160 C161 1.366 1_556 S
C161 C160 1.366 1_554 S
C161 C162 1.414 1_655 S
C161 C164 1.502 . S
C162 H142 0.950 . S
C162 C161 1.414 1_455 S
C162 C163 1.374 . S
C163 H143 0.950 . S
C163 C159 1.386 . S
C163 C162 1.374 . S
C164 C161 1.502 . S
C164 C165 1.367 1_654 S
C164 C166 1.392 . S
C165 H144 0.950 . S
C165 C164 1.367 1_456 S
C165 C181 1.377 . S
C166 C164 1.392 . S
C166 C167 1.524 . S
C166 C180 1.377 . S
C167 C166 1.524 . S
C167 C168 1.397 . S
C167 C172 1.363 1_554 S
C168 H145 0.950 . S
C168 C167 1.397 . S
C168 C169 1.334 . S
C169 H146 0.950 . S
C169 C168 1.334 . S
C169 C170 1.287 . S
C170 C169 1.287 . S
C170 C171 1.539 . S
C170 H189 0.913 . S
C171 H147 0.942 1_554 S
C171 C170 1.539 . S
C171 C172 1.409 1_554 S
C172 H148 0.950 . S
C172 C167 1.363 1_556 S
C172 C171 1.409 1_556 S
C173 H149 0.951 . S
C173 C174 1.366 . S
C173 C175 1.388 . S
C174 C173 1.366 . S
C174 C178 1.386 1_454 S
C175 H150 0.951 . S
C175 C173 1.388 . S
C175 C176 1.366 1_554 S
C176 C175 1.366 1_556 S
C176 C177 1.414 1_455 S
C176 C179 1.505 . S
C177 H151 0.950 . S
C177 C176 1.414 1_655 S
C177 C178 1.374 . S
C178 H152 0.950 . S
C178 C174 1.386 1_656 S
C178 C177 1.374 . S
C179 C176 1.505 . S
C179 C180 1.361 1_456 S
C179 C181 1.395 . S
C180 H153 0.950 . S
C180 C166 1.377 . S
C180 C179 1.361 1_654 S
C181 C165 1.377 . S
C181 C179 1.395 . S
C181 C182 1.524 . S
C182 C181 1.524 . S
C182 C183 1.397 . S
C182 C187 1.363 1_556 S
C183 H154 0.950 . S
C183 C182 1.397 . S
C183 C184 1.334 . S
C184 H155 0.950 . S
C184 C183 1.334 . S
C184 C185 1.287 . S
C185 C184 1.287 . S
C185 C186 1.536 . S
C185 H188 0.999 . S
C186 H156 0.944 1_556 S
C186 C185 1.536 . S
C186 C187 1.410 1_556 S
C187 H157 0.950 . S
C187 C182 1.363 1_554 S
C187 C186 1.410 1_554 S
H188 C185 0.999 . S
H189 C170 0.913 . S
C59 C2 1.465 1_565 S
C74 C23 1.466 1_445 S
C109 C4 1.501 1_554 S
C124 C25 1.499 . S
C159 C20 1.492 1_455 S
C174 C31 1.489 1_554 S
