# Generated by pormake.
# Topology fns, (5)-cn, num edge types: 1
# Building blocks:
#     Node 0, Type 0, BuildingBlock: BEQFEK_clean_sbu_0, # of connection points: 5
#     Node 1, Type 0, BuildingBlock: BEQFEK_clean_sbu_0, # of connection points: 5
#     Node 2, Type 0, BuildingBlock: BEQFEK_clean_sbu_0, # of connection points: 5
#     Node 3, Type 0, BuildingBlock: BEQFEK_clean_sbu_0, # of connection points: 5
#     Node 4, Type 0, BuildingBlock: BEQFEK_clean_sbu_0, # of connection points: 5
#     Node 5, Type 0, BuildingBlock: BEQFEK_clean_sbu_0, # of connection points: 5
#     Edge 6, Type (0, 0), None
#     Edge 7, Type (0, 0), None
#     Edge 8, Type (0, 0), None
#     Edge 9, Type (0, 0), None
#     Edge 10, Type (0, 0), None
#     Edge 11, Type (0, 0), None
#     Edge 12, Type (0, 0), None
#     Edge 13, Type (0, 0), None
#     Edge 14, Type (0, 0), None
#     Edge 15, Type (0, 0), None
#     Edge 16, Type (0, 0), None
#     Edge 17, Type (0, 0), None
#     Edge 18, Type (0, 0), None
#     Edge 19, Type (0, 0), None
#     Edge 20, Type (0, 0), None
# Relax obj value: 0.349
# Max RMSD: 0.304
# Mean RMSD: 0.304
data_MOF--net-fns--node1-BEQFEK_clean_sbu_0--edge1-none
_symmetry_space_group_name_H-M    P1
_symmetry_Int_Tables_number       1
_symmetry_cell_setting            triclinic
loop_
_symmetry_equiv_pos_as_xyz
'x, y, z'
_cell_length_a     26.589327
_cell_length_b     26.588828
_cell_length_c     9.2599518
_cell_angle_alpha  89.989839
_cell_angle_beta   90.017466
_cell_angle_gamma 120.0146
loop_
_atom_site_label
_atom_site_type_symbol
_atom_site_fract_x
_atom_site_fract_y
_atom_site_fract_z
_atom_type_partial_charge
Co0 Co 0.18097 0.63234 0.11333 0.0
Co1 Co 0.16983 0.55406 0.37511 0.0
C2 C 0.24114 0.68784 0.3795 0.0
O3 O 0.22792 0.69707 0.25423 0.0
O4 O 0.22253 0.63638 0.42112 0.0
C5 C 0.1647 0.64933 0.80315 0.0
O6 O 0.16117 0.68296 0.70455 0.0
C7 C 0.12604 0.56126 0.6408 0.0
C8 C 0.20345 0.58051 0.76582 0.0
C9 C 0.15916 0.59331 0.75774 0.0
N10 N 0.15171 0.53416 0.57589 0.0
N11 N 0.19569 0.54269 0.65916 0.0
C12 C 0.07872 0.56875 0.57472 0.0
H13 H 0.04209 0.52603 0.5434 0.0
H14 H 0.06155 0.5882 0.6524 0.0
H15 H 0.09555 0.59769 0.47939 0.0
C16 C 0.0519 0.561 0.12865 0.0
N17 N 0.10575 0.57726 0.17719 0.0
N18 N 0.1025 0.53833 0.2697 0.0
C19 C 0.04734 0.49412 0.27525 0.0
C20 C 0.01328 0.5076 0.18878 0.0
C21 C 0.03798 0.5944 1.02192 0.0
H22 H 0.0689 0.64163 1.0332 0.0
H23 H -0.00725 0.58535 1.03611 0.0
H24 H 0.04194 0.58066 0.91153 0.0
O25 O 0.22402 0.59041 0.07088 0.0
O26 O 0.21901 0.53221 0.25125 0.0
H27 H 0.01428 0.40268 0.28594 0.0
H28 H -0.01095 0.43039 0.42667 0.0
C29 C 0.02762 0.43972 0.36109 0.0
H30 H 0.06297 0.44326 0.43159 0.0
H31 H 0.22729 0.53277 0.62748 0.0
O32 O 0.17393 0.66723 0.93297 0.0
C33 C 0.23559 0.55297 0.12342 0.0
Co34 Co 0.54023 0.18537 0.44382 0.0
Co35 Co 0.60921 0.17731 0.70552 0.0
C36 C 0.54176 0.24381 0.7103 0.0
O37 O 0.51953 0.22998 0.5849 0.0
O38 O 0.57628 0.22724 0.75185 0.0
C39 C 0.50723 0.16822 0.13356 0.0
O40 O 0.4695 0.16321 1.03481 0.0
C41 C 0.55928 0.13247 0.97157 0.0
C42 C 0.61539 0.21075 0.09614 0.0
C43 C 0.55901 0.16497 0.08834 0.0
N44 N 0.612 0.15981 0.90639 0.0
N45 N 0.64636 0.2044 0.98944 0.0
C46 C 0.50533 0.08383 0.90577 0.0
H47 H 0.51301 0.04813 0.87547 0.0
H48 H 0.46862 0.06569 0.98326 0.0
H49 H 0.49241 0.09961 0.80985 0.0
C50 C 0.48663 0.0568 0.45912 0.0
N51 N 0.52317 0.11102 0.50711 0.0
N52 N 0.55954 0.1091 0.59979 0.0
C53 C 0.55003 0.05442 0.60602 0.0
C54 C 0.50276 0.01929 0.51969 0.0
C55 C 0.43861 0.04147 0.35349 0.0
H56 H 0.4206 0.07088 0.36678 0.0
H57 H 0.40371 -0.00441 0.3667 0.0
H58 H 0.45628 0.04671 0.24268 0.0
O59 O 0.62506 0.23159 0.40159 0.0
O60 O 0.67963 0.229 0.5818 0.0
H61 H 0.61035 0.02385 0.61876 0.0
H62 H 0.55666 -0.00312 0.75788 0.0
C63 C 0.58545 0.03597 0.69316 0.0
H64 H 0.61628 0.07162 0.76452 0.0
H65 H 0.68736 0.23705 0.95756 0.0
O66 O 0.49783 0.1767 0.26337 0.0
C67 C 0.67462 0.24521 0.4542 0.0
Co68 Co 0.33634 0.54239 0.7801 0.0
Co69 Co 0.41465 0.60953 1.0419 0.0
C70 C 0.28089 0.54707 1.04626 0.0
O71 O 0.27162 0.52461 0.921 0.0
O72 O 0.33235 0.57992 0.08791 0.0
C73 C 0.31936 0.50911 0.46993 0.0
O74 O 0.28572 0.47195 0.37134 0.0
C75 C 0.40743 0.55851 0.30759 0.0
C76 C 0.38827 0.6167 0.43261 0.0
C77 C 0.37541 0.5596 0.42452 0.0
N78 N 0.43456 0.6113 0.24268 0.0
N79 N 0.42609 0.64678 0.32595 0.0
C80 C 0.39988 0.50369 0.24148 0.0
H81 H 0.44258 0.50976 0.21011 0.0
H82 H 0.38042 0.46705 0.31917 0.0
H83 H 0.37092 0.4916 0.14618 0.0
C84 C 0.40768 0.48469 0.79541 0.0
N85 N 0.39141 0.52226 0.844 0.0
N86 N 0.43035 0.55794 0.93651 0.0
C87 C 0.47457 0.54702 0.94202 0.0
C88 C 0.46109 0.49948 0.85551 0.0
C89 C 0.37428 0.43737 0.68867 0.0
H90 H 0.32705 0.42105 0.69991 0.0
H91 H 0.38331 0.40119 0.70291 0.0
H92 H 0.38803 0.45508 0.5783 0.0
O93 O 0.37829 0.62739 0.73763 0.0
O94 O 0.4365 0.68059 0.91799 0.0
H95 H 0.52546 0.61356 0.09824 0.0
H96 H 0.56602 0.60536 0.95274 0.0
C97 C 0.52897 0.5817 1.02788 0.0
H98 H 0.53825 0.55245 0.09363 0.0
H99 H 0.43606 0.68832 0.29428 0.0
O100 O 0.30145 0.50046 0.59973 0.0
C101 C 0.41573 0.6764 0.79016 0.0
Co102 Co 0.78326 0.34872 0.11045 0.0
Co103 Co 0.7915 0.42585 0.37206 0.0
C104 C 0.72487 0.29187 0.37703 0.0
O105 O 0.73862 0.28343 0.25161 0.0
O106 O 0.7415 0.34297 0.41855 0.0
C107 C 0.80039 0.33288 0.8002 0.0
O108 O 0.80535 0.30014 0.70149 0.0
C109 C 0.8363 0.42073 0.63816 0.0
C110 C 0.75806 0.39867 0.76268 0.0
C111 C 0.80376 0.38798 0.75495 0.0
N112 N 0.80904 0.44618 0.57291 0.0
N113 N 0.76448 0.43602 0.65594 0.0
C114 C 0.88488 0.41534 0.57245 0.0
H115 H 0.92064 0.4587 0.54217 0.0
H116 H 0.90296 0.39671 0.64999 0.0
H117 H 0.86906 0.38663 0.47654 0.0
C118 C 0.91184 0.42351 0.12583 0.0
N119 N 0.85765 0.40596 0.17371 0.0
N120 N 0.85967 0.4443 0.26632 0.0
C121 C 0.91441 0.48939 0.27261 0.0
C122 C 0.94946 0.47709 0.18656 0.0
C123 C 0.92706 0.39073 1.0203 0.0
H124 H 0.89754 0.34331 1.03359 0.0
H125 H 0.97289 0.40158 1.03363 0.0
H126 H 0.9219 0.40321 0.90945 0.0
O127 O 0.73711 0.38738 1.06818 0.0
O128 O 0.73982 0.4446 0.24831 0.0
H129 H 0.94511 0.58034 0.28512 0.0
H130 H 0.9721 0.55362 0.42423 0.0
C131 C 0.93298 0.54332 0.35961 0.0
H132 H 0.89739 0.53857 0.43105 0.0
H133 H 0.73189 0.44445 0.62402 0.0
O134 O 0.79187 0.31499 0.93001 0.0
C135 C 0.72354 0.42335 0.12076 0.0
Co136 Co 0.42635 0.78776 0.44673 0.0
Co137 Co 0.35924 0.79893 0.70844 0.0
C138 C 0.42165 0.72761 0.71295 0.0
O139 O 0.4441 0.7408 0.58769 0.0
O140 O 0.38882 0.74623 0.75455 0.0
C141 C 0.45961 0.80404 0.13659 0.0
O142 O 0.49676 0.80757 1.03802 0.0
C143 C 0.41024 0.84273 0.97419 0.0
C144 C 0.35203 0.76532 0.09914 0.0
C145 C 0.40913 0.8096 0.09112 0.0
N146 N 0.35745 0.81706 0.9092 0.0
N147 N 0.32197 0.77309 0.99244 0.0
C148 C 0.46506 0.89004 0.90818 0.0
H149 H 0.459 0.92668 0.87686 0.0
H150 H 0.50169 0.90721 0.98592 0.0
H151 H 0.47717 0.87321 0.81287 0.0
C152 C 0.48417 0.91682 0.46212 0.0
N153 N 0.44653 0.86297 0.51061 0.0
N154 N 0.41086 0.86625 0.60306 0.0
C155 C 0.42187 0.92142 0.60862 0.0
C156 C 0.46949 0.95547 0.52236 0.0
C157 C 0.53149 0.93072 0.35542 0.0
H158 H 0.54773 0.89976 0.36664 0.0
H159 H 0.56771 0.97593 0.36971 0.0
H160 H 0.51379 0.92681 0.24502 0.0
O161 O 0.34136 0.74472 0.4042 0.0
O162 O 0.28817 0.74973 0.58451 0.0
H163 H 0.36347 0.95444 0.61904 0.0
H164 H 0.41644 0.97976 0.75983 0.0
C165 C 0.38719 0.94115 0.69431 0.0
H166 H 0.35538 0.90583 0.76484 0.0
H167 H 0.28043 0.7415 0.96071 0.0
O168 O 0.46827 0.79479 0.26641 0.0
C169 C 0.29236 0.73316 0.45669 0.0
Co170 Co 0.61999 0.42845 0.77707 0.0
Co171 Co 0.54289 0.35949 1.03869 0.0
C172 C 0.67688 0.42694 1.04362 0.0
O173 O 0.68529 0.44913 0.9182 0.0
O174 O 0.62578 0.39242 0.08517 0.0
C175 C 0.63586 0.46141 0.46681 0.0
O176 O 0.66859 0.49911 0.36808 0.0
C177 C 0.548 0.40939 0.3048 0.0
C178 C 0.57015 0.35324 0.42928 0.0
C179 C 0.58078 0.40963 0.42157 0.0
N180 N 0.52259 0.35667 0.23954 0.0
N181 N 0.5328 0.3223 0.32254 0.0
C182 C 0.55334 0.46335 0.23911 0.0
H183 H 0.50995 0.4557 0.20889 0.0
H184 H 0.57196 0.50006 0.31665 0.0
H185 H 0.58202 0.47628 0.14317 0.0
C186 C 0.54518 0.4822 0.79248 0.0
N187 N 0.56274 0.44556 0.84032 0.0
N188 N 0.52442 0.4092 0.93295 0.0
C189 C 0.47932 0.41883 0.93927 0.0
C190 C 0.49161 0.4662 0.85324 0.0
C191 C 0.57793 0.53021 0.68691 0.0
H192 H 0.62535 0.54815 0.7002 0.0
H193 H 0.56707 0.56518 0.70019 0.0
H194 H 0.56546 0.51257 0.57607 0.0
O195 O 0.58131 0.34362 0.7348 0.0
O196 O 0.52412 0.28906 0.91497 0.0
H197 H 0.3884 0.35849 0.95174 0.0
H198 H 0.41507 0.41222 0.0908 0.0
C199 C 0.4254 0.38342 1.02625 0.0
H200 H 0.43019 0.35261 0.09775 0.0
H201 H 0.52442 0.28129 0.2906 0.0
O202 O 0.65373 0.47082 0.59665 0.0
C203 C 0.54533 0.29406 0.78739 0.0
loop_
_geom_bond_atom_site_label_1
_geom_bond_atom_site_label_2
_geom_bond_distance
_geom_bond_site_symmetry_2
_ccdc_geom_bond_type
Co0 O3 1.970 1_556 S
Co0 N17 1.989 1_556 S
Co0 O25 1.967 1_556 S
Co0 O32 1.920 . S
Co1 O4 1.966 . S
Co1 N10 2.022 . S
Co1 N18 1.993 . S
Co1 O26 1.941 . S
C2 O3 1.258 . S
C2 O4 1.263 . S
O3 Co0 1.970 1_554 S
O3 C2 1.258 . S
O4 Co1 1.966 . S
O4 C2 1.263 . S
C5 O6 1.235 . S
C5 O32 1.289 . S
O6 C5 1.235 . S
C7 C9 1.400 . S
C7 N10 1.351 . S
C7 C12 1.501 . S
C8 C9 1.387 . S
C8 N11 1.341 . S
C9 C7 1.400 . S
C9 C8 1.387 . S
N10 Co1 2.022 . S
N10 C7 1.351 . S
N10 N11 1.365 . S
N11 C8 1.341 . S
N11 N10 1.365 . S
N11 H31 0.862 . S
C12 C7 1.501 . S
C12 H13 0.961 . S
C12 H14 0.961 . S
C12 H15 0.960 . S
H13 C12 0.961 . S
H14 C12 0.961 . S
H15 C12 0.960 . S
C16 N17 1.342 . S
C16 C20 1.401 . S
C16 C21 1.499 1_554 S
N17 Co0 1.989 1_554 S
N17 C16 1.342 . S
N17 N18 1.388 . S
N18 Co1 1.993 . S
N18 N17 1.388 . S
N18 C19 1.346 . S
C19 N18 1.346 . S
C19 C20 1.396 . S
C19 C29 1.510 . S
C20 C16 1.401 . S
C20 C19 1.396 . S
C21 C16 1.499 1_556 S
C21 H22 0.959 . S
C21 H23 0.960 . S
C21 H24 0.961 . S
H22 C21 0.959 . S
H23 C21 0.960 . S
H24 C21 0.961 . S
O25 Co0 1.967 1_554 S
O25 C33 1.258 . S
O26 Co1 1.941 . S
O26 C33 1.266 . S
H27 C29 0.959 . S
H28 C29 0.961 . S
C29 C19 1.510 . S
C29 H27 0.959 . S
C29 H28 0.961 . S
C29 H30 0.960 . S
H30 C29 0.960 . S
H31 N11 0.862 . S
O32 Co0 1.920 . S
O32 C5 1.289 . S
C33 O25 1.258 . S
C33 O26 1.266 . S
Co34 O37 1.970 . S
Co34 N51 1.989 . S
Co34 O59 1.967 . S
Co34 O66 1.920 . S
Co35 O38 1.966 . S
Co35 N44 2.022 . S
Co35 N52 1.993 . S
Co35 O60 1.941 . S
C36 O37 1.258 . S
C36 O38 1.263 . S
O37 Co34 1.970 . S
O37 C36 1.258 . S
O38 Co35 1.966 . S
O38 C36 1.263 . S
C39 O40 1.235 . S
C39 O66 1.289 . S
O40 C39 1.235 . S
C41 C43 1.406 . S
C41 N44 1.351 . S
C41 C46 1.501 . S
C42 C43 1.390 . S
C42 N45 1.341 . S
C43 C41 1.406 . S
C43 C42 1.390 . S
N44 Co35 2.022 . S
N44 C41 1.351 . S
N44 N45 1.365 . S
N45 C42 1.341 . S
N45 N44 1.365 . S
N45 H65 0.862 . S
C46 C41 1.501 . S
C46 H47 0.961 . S
C46 H48 0.961 . S
C46 H49 0.960 . S
H47 C46 0.961 . S
H48 C46 0.961 . S
H49 C46 0.960 . S
C50 N51 1.342 . S
C50 C54 1.401 . S
C50 C55 1.499 . S
N51 Co34 1.989 . S
N51 C50 1.342 . S
N51 N52 1.388 . S
N52 Co35 1.993 . S
N52 N51 1.388 . S
N52 C53 1.346 . S
C53 N52 1.346 . S
C53 C54 1.396 . S
C53 C63 1.510 . S
C54 C50 1.401 . S
C54 C53 1.396 . S
C55 C50 1.499 . S
C55 H56 0.959 . S
C55 H57 0.960 . S
C55 H58 0.961 . S
H56 C55 0.959 . S
H57 C55 0.960 . S
H58 C55 0.961 . S
O59 Co34 1.967 . S
O59 C67 1.258 . S
O60 Co35 1.941 . S
O60 C67 1.266 . S
H61 C63 0.959 . S
H62 C63 0.961 . S
C63 C53 1.510 . S
C63 H61 0.959 . S
C63 H62 0.961 . S
C63 H64 0.960 . S
H64 C63 0.960 . S
H65 N45 0.862 . S
O66 Co34 1.920 . S
O66 C39 1.289 . S
C67 O59 1.258 . S
C67 O60 1.266 . S
Co68 O71 1.970 . S
Co68 N85 1.989 . S
Co68 O93 1.967 . S
Co68 O100 1.920 . S
Co69 O72 1.966 . S
Co69 N78 2.022 1_556 S
Co69 N86 1.993 . S
Co69 O94 1.941 . S
C70 O71 1.258 . S
C70 O72 1.263 . S
O71 Co68 1.970 . S
O71 C70 1.258 . S
O72 Co69 1.966 . S
O72 C70 1.263 . S
C73 O74 1.235 . S
C73 O100 1.289 . S
O74 C73 1.235 . S
C75 C77 1.400 . S
C75 N78 1.351 . S
C75 C80 1.501 . S
C76 C77 1.387 . S
C76 N79 1.341 . S
C77 C75 1.400 . S
C77 C76 1.387 . S
N78 Co69 2.022 1_554 S
N78 C75 1.351 . S
N78 N79 1.365 . S
N79 C76 1.341 . S
N79 N78 1.365 . S
N79 H99 0.862 . S
C80 C75 1.501 . S
C80 H81 0.961 . S
C80 H82 0.961 . S
C80 H83 0.960 . S
H81 C80 0.961 . S
H82 C80 0.961 . S
H83 C80 0.960 . S
C84 N85 1.342 . S
C84 C88 1.401 . S
C84 C89 1.499 . S
N85 Co68 1.989 . S
N85 C84 1.342 . S
N85 N86 1.388 . S
N86 Co69 1.993 . S
N86 N85 1.388 . S
N86 C87 1.346 . S
C87 N86 1.346 . S
C87 C88 1.396 . S
C87 C97 1.510 1_556 S
C88 C84 1.401 . S
C88 C87 1.396 . S
C89 C84 1.499 . S
C89 H90 0.959 . S
C89 H91 0.960 . S
C89 H92 0.961 . S
H90 C89 0.959 . S
H91 C89 0.960 . S
H92 C89 0.961 . S
O93 Co68 1.967 . S
O93 C101 1.258 . S
O94 Co69 1.941 . S
O94 C101 1.266 . S
H95 C97 0.959 . S
H96 C97 0.961 . S
C97 C87 1.510 1_554 S
C97 H95 0.959 . S
C97 H96 0.961 . S
C97 H98 0.960 . S
H98 C97 0.960 . S
H99 N79 0.862 . S
O100 Co68 1.920 . S
O100 C73 1.289 . S
C101 O93 1.258 . S
C101 O94 1.266 . S
Co102 O105 1.970 1_556 S
Co102 N119 1.989 1_556 S
Co102 O127 1.967 1_556 S
Co102 O134 1.920 . S
Co103 O106 1.966 . S
Co103 N112 2.022 . S
Co103 N120 1.993 . S
Co103 O128 1.941 . S
C104 O105 1.258 . S
C104 O106 1.263 . S
O105 Co102 1.970 1_554 S
O105 C104 1.258 . S
O106 Co103 1.966 . S
O106 C104 1.263 . S
C107 O108 1.235 . S
C107 O134 1.289 . S
O108 C107 1.235 . S
C109 C111 1.400 . S
C109 N112 1.351 . S
C109 C114 1.501 . S
C110 C111 1.387 . S
C110 N113 1.341 . S
C111 C109 1.400 . S
C111 C110 1.387 . S
N112 Co103 2.022 . S
N112 C109 1.351 . S
N112 N113 1.365 . S
N113 C110 1.341 . S
N113 N112 1.365 . S
N113 H133 0.862 . S
C114 C109 1.501 . S
C114 H115 0.961 . S
C114 H116 0.961 . S
C114 H117 0.960 . S
H115 C114 0.961 . S
H116 C114 0.961 . S
H117 C114 0.960 . S
C118 N119 1.342 . S
C118 C122 1.401 . S
C118 C123 1.499 1_554 S
N119 Co102 1.989 1_554 S
N119 C118 1.342 . S
N119 N120 1.388 . S
N120 Co103 1.993 . S
N120 N119 1.388 . S
N120 C121 1.346 . S
C121 N120 1.346 . S
C121 C122 1.396 . S
C121 C131 1.510 . S
C122 C118 1.401 . S
C122 C121 1.396 . S
C123 C118 1.499 1_556 S
C123 H124 0.959 . S
C123 H125 0.960 . S
C123 H126 0.961 . S
H124 C123 0.959 . S
H125 C123 0.960 . S
H126 C123 0.961 . S
O127 Co102 1.967 1_554 S
O127 C135 1.258 . S
O128 Co103 1.941 . S
O128 C135 1.266 . S
H129 C131 0.959 . S
H130 C131 0.961 . S
C131 C121 1.510 . S
C131 H129 0.959 . S
C131 H130 0.961 . S
C131 H132 0.960 . S
H132 C131 0.960 . S
H133 N113 0.862 . S
O134 Co102 1.920 . S
O134 C107 1.289 . S
C135 O127 1.258 . S
C135 O128 1.266 . S
Co136 O139 1.970 . S
Co136 N153 1.989 . S
Co136 O161 1.967 . S
Co136 O168 1.920 . S
Co137 O140 1.966 . S
Co137 N146 2.022 . S
Co137 N154 1.993 . S
Co137 O162 1.941 . S
C138 O139 1.258 . S
C138 O140 1.263 . S
O139 Co136 1.970 . S
O139 C138 1.258 . S
O140 Co137 1.966 . S
O140 C138 1.263 . S
C141 O142 1.235 . S
C141 O168 1.289 . S
O142 C141 1.235 . S
C143 C145 1.406 . S
C143 N146 1.351 . S
C143 C148 1.501 . S
C144 C145 1.390 . S
C144 N147 1.341 . S
C145 C143 1.406 . S
C145 C144 1.390 . S
N146 Co137 2.022 . S
N146 C143 1.351 . S
N146 N147 1.365 . S
N147 C144 1.341 . S
N147 N146 1.365 . S
N147 H167 0.862 . S
C148 C143 1.501 . S
C148 H149 0.961 . S
C148 H150 0.961 . S
C148 H151 0.960 . S
H149 C148 0.961 . S
H150 C148 0.961 . S
H151 C148 0.960 . S
C152 N153 1.342 . S
C152 C156 1.401 . S
C152 C157 1.499 . S
N153 Co136 1.989 . S
N153 C152 1.342 . S
N153 N154 1.388 . S
N154 Co137 1.993 . S
N154 N153 1.388 . S
N154 C155 1.346 . S
C155 N154 1.346 . S
C155 C156 1.396 . S
C155 C165 1.510 . S
C156 C152 1.401 . S
C156 C155 1.396 . S
C157 C152 1.499 . S
C157 H158 0.959 . S
C157 H159 0.960 . S
C157 H160 0.961 . S
H158 C157 0.959 . S
H159 C157 0.960 . S
H160 C157 0.961 . S
O161 Co136 1.967 . S
O161 C169 1.258 . S
O162 Co137 1.941 . S
O162 C169 1.266 . S
H163 C165 0.959 . S
H164 C165 0.961 . S
C165 C155 1.510 . S
C165 H163 0.959 . S
C165 H164 0.961 . S
C165 H166 0.960 . S
H166 C165 0.960 . S
H167 N147 0.862 . S
O168 Co136 1.920 . S
O168 C141 1.289 . S
C169 O161 1.258 . S
C169 O162 1.266 . S
Co170 O173 1.970 . S
Co170 N187 1.989 . S
Co170 O195 1.967 . S
Co170 O202 1.920 . S
Co171 O174 1.966 . S
Co171 N180 2.022 1_556 S
Co171 N188 1.993 . S
Co171 O196 1.941 . S
C172 O173 1.258 . S
C172 O174 1.263 . S
O173 Co170 1.970 . S
O173 C172 1.258 . S
O174 Co171 1.966 . S
O174 C172 1.263 . S
C175 O176 1.235 . S
C175 O202 1.289 . S
O176 C175 1.235 . S
C177 C179 1.400 . S
C177 N180 1.351 . S
C177 C182 1.501 . S
C178 C179 1.387 . S
C178 N181 1.341 . S
C179 C177 1.400 . S
C179 C178 1.387 . S
N180 Co171 2.022 1_554 S
N180 C177 1.351 . S
N180 N181 1.365 . S
N181 C178 1.341 . S
N181 N180 1.365 . S
N181 H201 0.862 . S
C182 C177 1.501 . S
C182 H183 0.961 . S
C182 H184 0.961 . S
C182 H185 0.960 . S
H183 C182 0.961 . S
H184 C182 0.961 . S
H185 C182 0.960 . S
C186 N187 1.342 . S
C186 C190 1.401 . S
C186 C191 1.499 . S
N187 Co170 1.989 . S
N187 C186 1.342 . S
N187 N188 1.388 . S
N188 Co171 1.993 . S
N188 N187 1.388 . S
N188 C189 1.346 . S
C189 N188 1.346 . S
C189 C190 1.396 . S
C189 C199 1.510 1_556 S
C190 C186 1.401 . S
C190 C189 1.396 . S
C191 C186 1.499 . S
C191 H192 0.959 . S
C191 H193 0.960 . S
C191 H194 0.961 . S
H192 C191 0.959 . S
H193 C191 0.960 . S
H194 C191 0.961 . S
O195 Co170 1.967 . S
O195 C203 1.258 . S
O196 Co171 1.941 . S
O196 C203 1.266 . S
H197 C199 0.959 . S
H198 C199 0.961 . S
C199 C189 1.510 1_554 S
C199 H197 0.959 . S
C199 H198 0.961 . S
C199 H200 0.960 . S
H200 C199 0.960 . S
H201 N181 0.862 . S
O202 Co170 1.920 . S
O202 C175 1.289 . S
C203 O195 1.258 . S
C203 O196 1.266 . S
C33 C70 2.522 1_554 S
C67 C104 2.522 . S
C138 C101 2.522 . S
C172 C135 2.522 1_556 S
C169 C2 2.522 . S
C36 C203 2.522 . S
C5 C9 3.220 . S
C43 C39 3.218 1_556 S
C73 C77 3.220 . S
C107 C111 3.220 . S
C141 C145 3.218 1_554 S
C179 C175 3.220 . S
C122 C20 1.813 1_655 S
C54 C156 1.814 1_545 S
C88 C190 1.814 . S
