# Generated by pormake.
# Topology pcu, (6)-cn, num edge types: 1
# Building blocks:
#     Node 0, Type 0, BuildingBlock: BETDAH_clean_sbu_0, # of connection points: 6
#     Edge 1, Type (0, 0), BuildingBlock: FUNLAD_clean_linker_1, # of connection points: 2
#     Edge 2, Type (0, 0), BuildingBlock: FUNLAD_clean_linker_1, # of connection points: 2
#     Edge 3, Type (0, 0), BuildingBlock: FUNLAD_clean_linker_1, # of connection points: 2
# Relax obj value: 0.000
# Max RMSD: 0.000
# Mean RMSD: 0.000
data_MOF--net-pcu--node1-BETDAH_clean_sbu_0--edge1-FUNLAD_clean_linker_1
_symmetry_space_group_name_H-M    P1
_symmetry_Int_Tables_number       1
_symmetry_cell_setting            triclinic
loop_
_symmetry_equiv_pos_as_xyz
'x, y, z'
_cell_length_a     26.272015
_cell_length_b     15.855525
_cell_length_c     15.076585
_cell_angle_alpha  85.9473
_cell_angle_beta   95.42091
_cell_angle_gamma 125.11464
loop_
_atom_site_label
_atom_site_type_symbol
_atom_site_fract_x
_atom_site_fract_y
_atom_site_fract_z
_atom_type_partial_charge
Ho0 Ho 0.95439 0.93678 0.01769 0.0
Ho1 Ho 0.09612 0.04651 1.00522 0.0
C2 C 0.0473 0.18748 1.00892 0.0
C3 C 0.84492 0.87467 0.06295 0.0
C4 C 0.80105 0.90494 0.04887 0.0
C5 C 0.75644 0.8728 0.11104 0.0
C6 C 0.7116 0.89451 0.09666 0.0
C7 C 0.71065 0.94939 0.0195 0.0
C8 C 0.75605 0.98252 0.95791 0.0
C9 C 0.8011 0.96119 0.97264 0.0
C10 C 0.9931 0.97176 0.85077 0.0
C11 C 1.00321 0.79583 0.01374 0.0
C12 C 0.20572 0.10874 0.96047 0.0
C13 C 0.24954 0.07838 0.97456 0.0
C14 C 0.29414 0.11043 0.91237 0.0
C15 C 0.33894 0.08865 0.92675 0.0
C16 C 0.33988 0.03379 1.00392 0.0
C17 C 0.2945 0.00074 0.06554 0.0
C18 C 0.24948 0.02214 0.05081 0.0
C19 C 0.05705 0.01135 0.17206 0.0
O20 O 0.99453 0.10484 0.03658 0.0
O21 O 0.09047 0.1815 0.97789 0.0
O22 O 0.85423 0.84158 0.9933 0.0
O23 O 0.89633 0.93525 0.11197 0.0
O24 O 0.93896 0.89323 0.87302 0.0
O25 O 1.02103 0.03144 0.91521 0.0
O26 O 0.05598 0.8785 0.98611 0.0
O27 O 0.96005 0.80179 0.04483 0.0
O28 O 0.19624 0.1415 0.03018 0.0
O29 O 0.15443 0.04845 0.91113 0.0
O30 O 0.11118 0.09009 0.14998 0.0
O31 O 0.02951 0.95185 0.10749 0.0
H32 H 0.75543 0.8288 0.17005 0.0
H33 H 0.67678 0.86507 0.14483 0.0
H34 H 0.75633 0.02426 0.89768 0.0
H35 H 0.83522 0.98699 0.92377 0.0
H36 H 0.29516 0.15443 0.85335 0.0
H37 H 0.37375 0.11803 0.87857 0.0
H38 H 0.29422 0.95902 0.12579 0.0
H39 H 0.21538 -0.00359 0.09969 0.0
H40 H 0.98954 0.91405 0.27277 0.0
C41 C 0.03439 0.98628 0.26237 0.0
H42 H 0.11332 0.11961 0.32187 0.0
H43 H 0.89861 0.95468 0.61692 0.0
H44 H 0.84345 -0.00654 0.50206 0.0
H45 H 0.88093 0.04751 0.35076 0.0
H46 H 0.97356 0.06275 0.31333 0.0
C47 C 0.06755 0.04894 0.33129 0.0
C48 C 0.04556 0.0198 0.42339 0.0
C49 C 0.99164 0.0126 0.44454 0.0
C50 C 0.97057 0.98295 0.53229 0.0
C51 C 0.91662 0.97647 0.55143 0.0
C52 C 0.88458 -0.00116 0.48617 0.0
C53 C 0.90563 0.02916 0.40097 0.0
C54 C 0.95868 0.03674 0.38018 0.0
H55 H 0.06044 0.06857 0.74975 0.0
C56 C 1.01555 -0.0035 0.76033 0.0
H57 H 0.93639 0.86321 0.70113 0.0
H58 H 0.15099 0.02762 0.40581 0.0
H59 H 0.20609 0.98871 0.52064 0.0
H60 H 0.16858 0.93454 0.67191 0.0
H61 H 0.07597 0.91936 0.70935 0.0
C62 C 0.98219 0.93373 0.69153 0.0
C63 C 1.00406 0.96257 0.59936 0.0
C64 C 0.05795 0.96967 0.57819 0.0
C65 C 0.07903 -0.00064 0.49044 0.0
C66 C 0.13297 0.00581 0.4713 0.0
C67 C 0.16498 0.98335 0.53653 0.0
C68 C 0.1439 0.95297 0.62171 0.0
C69 C 0.09088 0.94544 0.64252 0.0
H70 H 0.39713 -0.00207 0.094 0.0
C71 C 0.38919 0.01466 0.02489 0.0
H72 H 0.41679 0.03065 0.89372 0.0
H73 H 0.68951 0.15873 1.00529 0.0
H74 H 0.7096 0.31814 0.93967 0.0
H75 H 0.62316 0.33557 0.89573 0.0
H76 H 0.51611 0.19372 0.91774 0.0
C77 C 0.42369 0.01552 0.9635 0.0
C78 C 0.4754 0.00269 0.98873 0.0
C79 C 0.53783 0.08566 0.9738 0.0
C80 C 0.58772 0.07499 0.99767 0.0
C81 C 0.64966 0.16099 0.98567 0.0
C82 C 0.66196 0.2535 0.94874 0.0
C83 C 0.6133 0.26334 0.92411 0.0
C84 C 0.55198 0.18101 0.93683 0.0
H85 H 0.65338 0.9852 0.92943 0.0
C86 C 0.66131 0.96845 0.99854 0.0
H87 H 0.63368 0.95238 0.1297 0.0
H88 H 0.36097 0.82434 0.01817 0.0
H89 H 0.34088 0.66492 0.08377 0.0
H90 H 0.42732 0.64748 0.12769 0.0
H91 H 0.53437 0.78932 0.10568 0.0
C92 C 0.62679 0.96754 0.05993 0.0
C93 C 0.57508 0.98037 0.0347 0.0
C94 C 0.51265 0.8974 0.04963 0.0
C95 C 0.46276 0.90806 0.02576 0.0
C96 C 0.40082 0.82207 0.03778 0.0
C97 C 0.38852 0.72956 0.0747 0.0
C98 C 0.43717 0.71971 0.09932 0.0
C99 C 0.4985 0.80204 0.0866 0.0
H100 H 0.95833 0.63391 0.05792 0.0
C101 C 0.99495 0.69584 0.01848 0.0
H102 H 0.06933 0.74255 0.93901 0.0
H103 H 0.12715 0.43458 0.12266 0.0
H104 H 0.22186 0.60075 0.16078 0.0
H105 H 0.22958 0.76136 0.12282 0.0
H106 H 0.14249 0.75674 0.04742 0.0
C107 C 0.03222 0.68056 0.97773 0.0
C108 C 0.02878 0.58381 0.99266 0.0
C109 C 0.08082 0.58842 0.03527 0.0
C110 C 0.07697 0.49602 0.05518 0.0
C111 C 0.12839 0.50244 0.10224 0.0
C112 C 0.18288 0.59739 0.12554 0.0
C113 C 0.18718 0.68781 0.10433 0.0
C114 C 0.13676 0.68389 0.06058 0.0
H115 H 0.09218 0.34937 0.96462 0.0
C116 C 0.05556 0.28748 1.00408 0.0
H117 H 0.98119 0.24085 0.08353 0.0
H118 H 0.92339 0.54879 0.8998 0.0
H119 H 0.82868 0.38262 0.86167 0.0
H120 H 0.82096 0.22202 0.89962 0.0
H121 H 0.90805 0.22663 0.97503 0.0
C122 C 1.0183 0.30281 0.04479 0.0
C123 C 1.02176 0.39956 0.02981 0.0
C124 C 0.96972 0.39496 0.98719 0.0
C125 C 0.97357 0.48735 0.96728 0.0
C126 C 0.92215 0.48093 0.92022 0.0
C127 C 0.86766 0.38598 0.89692 0.0
C128 C 0.86336 0.29557 0.91812 0.0
C129 C 0.91378 0.29949 0.96188 0.0
loop_
_geom_bond_atom_site_label_1
_geom_bond_atom_site_label_2
_geom_bond_distance
_geom_bond_site_symmetry_2
_ccdc_geom_bond_type
Ho0 C3 2.811 . S
Ho0 O20 2.322 1_565 S
Ho0 O22 2.378 . S
Ho0 O23 2.524 1_556 S
Ho0 O24 2.381 . S
Ho0 O25 2.669 1_665 S
Ho0 O27 2.346 . S
Ho0 O31 2.305 1_556 S
Ho1 C12 2.811 . S
Ho1 O21 2.346 . S
Ho1 O25 2.305 1_554 S
Ho1 O26 2.322 1_545 S
Ho1 O28 2.378 . S
Ho1 O29 2.524 1_554 S
Ho1 O30 2.381 . S
Ho1 O31 2.669 1_445 S
C2 O20 1.259 1_455 S
C2 O21 1.268 1_556 S
C3 Ho0 2.811 . S
C3 C4 1.490 . S
C3 O22 1.215 . S
C3 O23 1.289 1_556 S
C4 C3 1.490 . S
C4 C5 1.338 1_566 S
C4 C9 1.422 . S
C5 C4 1.338 1_544 S
C5 C6 1.442 . S
C5 H32 0.930 . S
C6 C5 1.442 . S
C6 C7 1.381 1_544 S
C6 H33 0.931 . S
C7 C6 1.381 1_566 S
C7 C8 1.321 . S
C8 C7 1.321 . S
C8 C9 1.403 . S
C8 H34 0.934 . S
C9 C4 1.422 . S
C9 C8 1.403 . S
C9 H35 0.930 . S
C10 O24 1.275 . S
C10 O25 1.256 1_665 S
C11 O26 1.259 1_655 S
C11 O27 1.268 1_554 S
C12 Ho1 2.811 . S
C12 C13 1.488 . S
C12 O28 1.215 . S
C12 O29 1.289 1_554 S
C13 C12 1.488 . S
C13 C14 1.348 1_544 S
C13 C18 1.413 . S
C14 C13 1.348 1_566 S
C14 C15 1.442 . S
C14 H36 0.930 . S
C15 C14 1.442 . S
C15 C16 1.381 1_566 S
C15 H37 0.931 . S
C16 C15 1.381 1_544 S
C16 C17 1.321 . S
C17 C16 1.321 . S
C17 C18 1.403 . S
C17 H38 0.934 . S
C18 C13 1.413 . S
C18 C17 1.403 . S
C18 H39 0.930 . S
C19 O30 1.275 . S
C19 O31 1.256 1_445 S
O20 Ho0 2.322 1_545 S
O20 C2 1.259 1_655 S
O21 Ho1 2.346 . S
O21 C2 1.268 1_554 S
O22 Ho0 2.378 . S
O22 C3 1.215 . S
O23 Ho0 2.524 1_554 S
O23 C3 1.289 1_554 S
O24 Ho0 2.381 . S
O24 C10 1.275 . S
O25 Ho0 2.669 1_445 S
O25 Ho1 2.305 1_556 S
O25 C10 1.256 1_445 S
O26 Ho1 2.322 1_565 S
O26 C11 1.259 1_455 S
O27 Ho0 2.346 . S
O27 C11 1.268 1_556 S
O28 Ho1 2.378 . S
O28 C12 1.215 . S
O29 Ho1 2.524 1_556 S
O29 C12 1.289 1_556 S
O30 Ho1 2.381 . S
O30 C19 1.275 . S
O31 Ho0 2.305 1_554 S
O31 Ho1 2.669 1_665 S
O31 C19 1.256 1_665 S
H32 C5 0.930 . S
H33 C6 0.931 . S
H34 C8 0.934 . S
H35 C9 0.930 . S
H36 C14 0.930 . S
H37 C15 0.931 . S
H38 C17 0.934 . S
H39 C18 0.930 . S
H40 C41 0.951 . S
C41 H40 0.951 . S
C41 C47 1.265 1_445 S
H42 C47 0.950 . S
H43 C51 0.949 . S
H44 C52 0.950 . S
H45 C53 0.951 . S
H46 C54 0.951 . S
C47 C41 1.265 1_665 S
C47 H42 0.950 . S
C47 C48 1.478 . S
C48 C47 1.478 . S
C48 C49 1.397 . S
C48 C65 1.394 1_665 S
C49 C48 1.397 . S
C49 C50 1.438 . S
C49 C54 1.429 . S
C50 C49 1.438 . S
C50 C51 1.428 . S
C50 C63 1.394 1_665 S
C51 H43 0.949 . S
C51 C50 1.428 . S
C51 C52 1.345 . S
C52 H44 0.950 . S
C52 C51 1.345 . S
C52 C53 1.424 . S
C53 H45 0.951 . S
C53 C52 1.424 . S
C53 C54 1.347 . S
C54 H46 0.951 . S
C54 C49 1.429 . S
C54 C53 1.347 . S
H55 C56 0.951 . S
C56 H55 0.951 . S
C56 C62 1.265 1_665 S
H57 C62 0.950 . S
H58 C66 0.949 . S
H59 C67 0.950 . S
H60 C68 0.951 . S
H61 C69 0.951 . S
C62 C56 1.265 1_445 S
C62 H57 0.950 . S
C62 C63 1.478 . S
C63 C50 1.394 1_445 S
C63 C62 1.478 . S
C63 C64 1.397 . S
C64 C63 1.397 . S
C64 C65 1.438 . S
C64 C69 1.429 . S
C65 C48 1.394 1_445 S
C65 C64 1.438 . S
C65 C66 1.428 . S
C66 H58 0.949 . S
C66 C65 1.428 . S
C66 C67 1.345 . S
C67 H59 0.950 . S
C67 C66 1.345 . S
C67 C68 1.424 . S
C68 H60 0.951 . S
C68 C67 1.424 . S
C68 C69 1.347 . S
C69 H61 0.951 . S
C69 C64 1.429 . S
C69 C68 1.347 . S
H70 C71 0.951 . S
C71 H70 0.951 . S
C71 C77 1.265 1_544 S
H72 C77 0.950 . S
H73 C81 0.949 . S
H74 C82 0.950 . S
H75 C83 0.951 . S
H76 C84 0.951 . S
C77 C71 1.265 1_566 S
C77 H72 0.950 . S
C77 C78 1.478 . S
C78 C77 1.478 . S
C78 C79 1.397 . S
C78 C95 1.394 1_556 S
C79 C78 1.397 . S
C79 C80 1.438 1_565 S
C79 C84 1.429 . S
C80 C79 1.438 1_545 S
C80 C81 1.428 . S
C80 C93 1.394 1_556 S
C81 H73 0.949 . S
C81 C80 1.428 . S
C81 C82 1.345 1_545 S
C82 H74 0.950 . S
C82 C81 1.345 1_565 S
C82 C83 1.424 . S
C83 H75 0.951 . S
C83 C82 1.424 . S
C83 C84 1.347 . S
C84 H76 0.951 . S
C84 C79 1.429 . S
C84 C83 1.347 . S
H85 C86 0.951 . S
C86 H85 0.951 . S
C86 C92 1.265 1_566 S
H87 C92 0.950 . S
H88 C96 0.949 . S
H89 C97 0.950 . S
H90 C98 0.951 . S
H91 C99 0.951 . S
C92 C86 1.265 1_544 S
C92 H87 0.950 . S
C92 C93 1.478 . S
C93 C80 1.394 1_554 S
C93 C92 1.478 . S
C93 C94 1.397 . S
C94 C93 1.397 . S
C94 C95 1.438 1_545 S
C94 C99 1.429 . S
C95 C78 1.394 1_554 S
C95 C94 1.438 1_565 S
C95 C96 1.428 . S
C96 H88 0.949 . S
C96 C95 1.428 . S
C96 C97 1.345 1_565 S
C97 H89 0.950 . S
C97 C96 1.345 1_545 S
C97 C98 1.424 . S
C98 H90 0.951 . S
C98 C97 1.424 . S
C98 C99 1.347 . S
C99 H91 0.951 . S
C99 C94 1.429 . S
C99 C98 1.347 . S
H100 C101 0.951 . S
C101 H100 0.951 . S
C101 C107 1.265 1_454 S
H102 C107 0.950 . S
H103 C111 0.949 . S
H104 C112 0.950 . S
H105 C113 0.951 . S
H106 C114 0.951 . S
C107 C101 1.265 1_656 S
C107 H102 0.950 . S
C107 C108 1.478 . S
C108 C107 1.478 . S
C108 C109 1.397 . S
C108 C125 1.394 1_656 S
C109 C108 1.397 . S
C109 C110 1.438 . S
C109 C114 1.429 . S
C110 C109 1.438 . S
C110 C111 1.428 . S
C110 C123 1.394 1_656 S
C111 H103 0.949 . S
C111 C110 1.428 . S
C111 C112 1.345 . S
C112 H104 0.950 . S
C112 C111 1.345 . S
C112 C113 1.424 . S
C113 H105 0.951 . S
C113 C112 1.424 . S
C113 C114 1.347 . S
C114 H106 0.951 . S
C114 C109 1.429 . S
C114 C113 1.347 . S
H115 C116 0.952 . S
C116 H115 0.952 . S
C116 C122 1.263 1_656 S
H117 C122 0.950 . S
H118 C126 0.949 . S
H119 C127 0.950 . S
H120 C128 0.951 . S
H121 C129 0.951 . S
C122 C116 1.263 1_454 S
C122 H117 0.950 . S
C122 C123 1.478 . S
C123 C110 1.394 1_454 S
C123 C122 1.478 . S
C123 C124 1.397 . S
C124 C123 1.397 . S
C124 C125 1.438 . S
C124 C129 1.429 . S
C125 C108 1.394 1_454 S
C125 C124 1.438 . S
C125 C126 1.428 . S
C126 H118 0.949 . S
C126 C125 1.428 . S
C126 C127 1.345 . S
C127 H119 0.950 . S
C127 C126 1.345 . S
C127 C128 1.424 . S
C128 H120 0.951 . S
C128 C127 1.424 . S
C128 C129 1.347 . S
C129 H121 0.951 . S
C129 C124 1.429 . S
C129 C128 1.347 . S
C41 C19 1.412 . S
C56 C10 1.412 . S
C71 C16 1.483 . S
C86 C7 1.483 . S
C101 C11 1.488 1_455 S
C116 C2 1.490 1_655 S
