# Generated by pormake.
# Topology pcu, (6)-cn, num edge types: 1
# Building blocks:
#     Node 0, Type 0, BuildingBlock: JUFBIX_clean_sbu_0, # of connection points: 6
#     Edge 1, Type (0, 0), BuildingBlock: MIFKUJ_clean_linker_0, # of connection points: 2
#     Edge 2, Type (0, 0), BuildingBlock: MIFKUJ_clean_linker_0, # of connection points: 2
#     Edge 3, Type (0, 0), BuildingBlock: MIFKUJ_clean_linker_0, # of connection points: 2
# Relax obj value: 0.000
# Max RMSD: 0.000
# Mean RMSD: 0.000
data_MOF--net-pcu--node1-JUFBIX_clean_sbu_0--edge1-MIFKUJ_clean_linker_0
_symmetry_space_group_name_H-M    P1
_symmetry_Int_Tables_number       1
_symmetry_cell_setting            triclinic
loop_
_symmetry_equiv_pos_as_xyz
'x, y, z'
_cell_length_a     19.459769
_cell_length_b     24.309391
_cell_length_c     19.466217
_cell_angle_alpha  86.82652
_cell_angle_beta   92.615731
_cell_angle_gamma 99.31378
loop_
_atom_site_label
_atom_site_type_symbol
_atom_site_fract_x
_atom_site_fract_y
_atom_site_fract_z
_atom_type_partial_charge
Co0 Co 0.99666 0.97752 0.00627 0.0
C1 C 0.01004 0.03259 0.13197 0.0
Co2 Co 0.01687 0.06993 0.99837 0.0
C3 C 0.9982 0.85671 0.00389 0.0
C4 C 0.91862 0.87889 0.06439 0.0
N5 N 0.97078 0.90104 0.02293 0.0
N6 N 0.96525 0.80806 0.03257 0.0
C7 C 0.91501 0.82214 0.07024 0.0
H8 H 0.04268 0.86022 0.97159 0.0
H9 H 0.88595 0.9027 0.09011 0.0
C10 C 1.00349 1.01486 0.87267 0.0
N11 N 0.04275 0.14641 0.9817 0.0
C12 C 0.01533 0.19074 1.00074 0.0
C13 C 0.09491 0.16856 0.94025 0.0
N14 N 0.04828 0.23939 0.97207 0.0
C15 C 0.09852 0.22531 0.93439 0.0
C16 C 0.13574 1.01588 0.00881 0.0
O17 O 0.9942 0.96959 0.90955 0.0
O18 O 0.01375 0.06115 0.9018 0.0
O19 O 0.11276 0.06202 0.00382 0.0
O20 O 0.09268 0.97058 0.01108 0.0
O21 O 0.01933 0.07786 0.09509 0.0
H22 H 0.12758 0.14475 0.91452 0.0
H23 H 0.97085 0.18723 0.03305 0.0
O24 O 0.99978 0.9863 0.10284 0.0
O25 O 0.90077 0.98543 1.00082 0.0
O26 O 0.92085 0.07687 0.99356 0.0
C27 C 0.87779 0.03157 0.99583 0.0
H28 H 0.87816 0.79342 0.10014 0.0
H29 H 0.13537 0.25403 0.90449 0.0
H30 H 1.00597 0.12057 0.21372 0.0
H31 H 1.00406 0.11789 0.33973 0.0
H32 H 0.01591 0.94189 0.34746 0.0
H33 H 0.01564 0.94389 0.2223 0.0
H34 H 0.92306 0.95995 0.43194 0.0
H35 H 0.15935 0.04428 0.38654 0.0
H36 H 0.25086 0.11386 0.33384 0.0
H37 H 0.17458 0.24494 0.4316 0.0
H38 H 0.08205 0.17619 0.4842 0.0
H39 H 0.00755 0.92688 0.79091 0.0
H40 H 0.00946 0.92956 0.6649 0.0
H41 H 0.99763 0.10556 0.65717 0.0
H42 H 0.99789 0.10356 0.78234 0.0
H43 H 0.09047 0.0875 0.5727 0.0
H44 H 0.85418 1.00317 0.61809 0.0
H45 H 0.76267 0.9336 0.6708 0.0
H46 H 0.83894 0.80251 0.57303 0.0
H47 H 0.93148 0.87125 0.52044 0.0
C48 C 0.0084 0.08141 0.24241 0.0
C49 C 0.01104 0.03251 0.20803 0.0
C50 C 0.00754 0.07993 0.31441 0.0
C51 C 0.01056 0.02974 0.35323 0.0
C52 C 0.01335 0.98104 0.31878 0.0
C53 C 0.01341 0.98235 0.24709 0.0
C54 C 0.00997 0.02732 0.42968 0.0
C55 C 0.96024 0.98743 0.46273 0.0
C56 C 0.05747 0.06385 0.46997 0.0
C57 C 0.1134 0.10515 0.43876 0.0
C58 C 0.16183 0.08799 0.39642 0.0
C59 C 0.21391 0.12727 0.36663 0.0
C60 C 0.21843 0.1838 0.37923 0.0
C61 C 0.17098 0.20115 0.42182 0.0
C62 C 0.11875 0.16204 0.45168 0.0
C63 C 1.00513 0.96603 0.76223 0.0
C64 C 1.00249 1.01494 0.7966 0.0
C65 C 1.00599 0.96752 0.69023 0.0
C66 C 1.00297 1.01771 0.65141 0.0
C67 C 1.00019 0.06641 0.68585 0.0
C68 C 1.00012 0.0651 0.75755 0.0
C69 C 1.00356 1.02013 0.57495 0.0
C70 C 0.05329 0.06001 0.54191 0.0
C71 C 0.95606 0.98359 0.53467 0.0
C72 C 0.90013 0.9423 0.56587 0.0
C73 C 0.8517 0.95947 0.60821 0.0
C74 C 0.79961 0.92019 0.638 0.0
C75 C 0.7951 0.86366 0.62541 0.0
C76 C 0.84254 0.8463 0.58281 0.0
C77 C 0.89478 0.88541 0.55295 0.0
H78 H 0.75475 0.83331 0.64854 0.0
H79 H 0.25877 0.21415 0.35609 0.0
H80 H 0.23866 0.10594 0.01642 0.0
H81 H 0.36404 0.10779 0.01451 0.0
H82 H 0.33166 0.92882 1.00146 0.0
H83 H 0.20532 0.92641 0.00471 0.0
H84 H 0.4382 0.96355 0.09041 0.0
H85 H 0.36993 1.01513 0.8589 0.0
H86 H 0.31305 0.06922 0.76861 0.0
H87 H 0.44345 0.21996 0.82889 0.0
H88 H 0.50046 0.16686 0.92023 0.0
H89 H 0.77487 0.94151 0.98822 0.0
H90 H 0.64949 0.93966 0.99013 0.0
H91 H 0.68187 0.11863 0.00317 0.0
H92 H 0.80821 0.12104 0.99992 0.0
H93 H 0.57532 0.0839 0.91423 0.0
H94 H 0.64359 0.03233 0.14574 0.0
H95 H 0.70047 0.97824 0.23603 0.0
H96 H 0.57008 0.8275 0.17575 0.0
H97 H 0.51308 0.88059 0.08441 0.0
C98 C 0.258 0.06682 0.01331 0.0
C99 C 0.2119 1.01599 0.0103 0.0
C100 C 0.32982 0.06804 0.01191 0.0
C101 C 0.35723 1.01858 0.00658 0.0
C102 C 0.31156 0.96753 0.00525 0.0
C103 C 0.23944 0.96621 0.00702 0.0
C104 C 0.43357 1.0205 1.00221 0.0
C105 C 0.46805 0.98921 0.05128 0.0
C106 C 0.47277 0.05511 0.95217 0.0
C107 C 0.43905 0.08706 0.8968 0.0
C108 C 0.38616 0.05986 0.85321 0.0
C109 C 0.35394 0.09034 0.8018 0.0
C110 C 0.37451 0.148 0.79312 0.0
C111 C 0.42751 0.17529 0.83571 0.0
C112 C 0.45985 0.14502 0.88727 0.0
C113 C 0.75553 0.98062 0.99133 0.0
C114 C 0.80163 0.03146 0.99433 0.0
C115 C 0.68371 0.97941 0.99272 0.0
C116 C 0.6563 0.02886 0.99805 0.0
C117 C 0.70196 0.07992 0.99939 0.0
C118 C 0.77409 0.08124 0.99762 0.0
C119 C 0.57996 0.02695 0.00243 0.0
C120 C 0.54548 0.05823 0.95336 0.0
C121 C 0.54076 0.99233 0.05246 0.0
C122 C 0.57448 0.96039 0.10783 0.0
C123 C 0.62737 0.98759 0.15143 0.0
C124 C 0.65959 0.95712 0.20284 0.0
C125 C 0.63901 0.89945 0.21152 0.0
C126 C 0.58602 0.87216 0.16893 0.0
C127 C 0.55368 0.90243 0.11737 0.0
H128 H 0.66404 0.87593 0.25133 0.0
H129 H 0.34948 0.17153 0.75331 0.0
H130 H 0.94706 0.72378 0.12963 0.0
H131 H 0.96258 0.6274 0.11808 0.0
H132 H 0.0348 0.66884 0.91252 0.0
H133 H 0.01746 0.76592 0.92333 0.0
H134 H 0.93753 0.5746 0.91792 0.0
H135 H 0.1484 0.64324 0.04309 0.0
H136 H 0.22034 0.69123 0.13619 0.0
H137 H 0.11686 0.5741 0.28609 0.0
H138 H 0.0436 0.52583 0.19393 0.0
H139 H 0.06647 0.32367 0.875 0.0
H140 H 0.05094 0.42005 0.88655 0.0
H141 H 0.97874 0.37861 0.09211 0.0
H142 H 0.99607 0.28153 0.08131 0.0
H143 H 0.076 0.47285 0.08671 0.0
H144 H 0.86513 0.40421 0.96155 0.0
H145 H 0.79319 0.35622 0.86845 0.0
H146 H 0.89666 0.47335 0.71854 0.0
H147 H 0.96993 0.52162 0.8107 0.0
C148 C 0.96613 0.71251 0.08184 0.0
C149 C 0.98046 0.75241 0.0271 0.0
C150 C 0.97566 0.65742 0.07559 0.0
C151 C 1.0003 0.64093 0.01465 0.0
C152 C 0.01582 0.68076 0.9601 0.0
C153 C 1.00644 0.7362 0.96645 0.0
C154 C 0.00693 0.58153 0.00749 0.0
C155 C 0.96875 0.55256 0.95412 0.0
C156 C 0.04593 0.55238 0.05604 0.0
C157 C 0.09008 0.58121 0.11161 0.0
C158 C 0.14059 0.62797 0.09595 0.0
C159 C 0.18168 0.65518 0.14855 0.0
C160 C 0.17306 0.6358 0.21703 0.0
C161 C 0.12344 0.58909 0.23303 0.0
C162 C 0.08217 0.56175 0.18062 0.0
C163 C 0.0474 0.33494 0.92279 0.0
C164 C 0.03307 0.29504 0.97754 0.0
C165 C 0.03787 0.39002 0.92904 0.0
C166 C 0.01323 0.40652 0.98999 0.0
C167 C 0.99771 0.36669 0.04454 0.0
C168 C 0.00709 0.31125 0.03819 0.0
C169 C 1.0066 0.46592 0.99714 0.0
C170 C 0.04478 0.49489 0.05052 0.0
C171 C 0.9676 0.49507 0.94859 0.0
C172 C 0.92345 0.46624 0.89302 0.0
C173 C 0.87294 0.41948 0.90869 0.0
C174 C 0.83184 0.39228 0.85609 0.0
C175 C 0.84046 0.41165 0.78761 0.0
C176 C 0.89008 0.45836 0.77161 0.0
C177 C 0.93135 0.4857 0.82402 0.0
H178 H 0.80859 0.39053 0.74696 0.0
H179 H 0.20493 0.65692 0.25768 0.0
loop_
_geom_bond_atom_site_label_1
_geom_bond_atom_site_label_2
_geom_bond_distance
_geom_bond_site_symmetry_2
_ccdc_geom_bond_type
Co0 N5 2.057 1_556 S
Co0 O17 2.021 . S
Co0 O20 2.062 1_655 S
Co0 O24 2.117 1_556 S
Co0 O25 2.020 . S
C1 O21 1.259 . S
C1 O24 1.258 1_445 S
Co2 N11 2.057 1_554 S
Co2 O18 2.117 1_554 S
Co2 O19 2.020 . S
Co2 O21 2.021 . S
Co2 O26 2.062 1_455 S
C3 N5 1.316 1_556 S
C3 N6 1.347 1_556 S
C3 H8 0.931 . S
C4 N5 1.375 . S
C4 C7 1.350 . S
C4 H9 0.930 . S
N5 Co0 2.057 1_554 S
N5 C3 1.316 1_554 S
N5 C4 1.375 . S
N6 C3 1.347 1_554 S
N6 C7 1.373 . S
C7 C4 1.350 . S
C7 N6 1.373 . S
C7 H28 0.931 . S
H8 C3 0.931 . S
H9 C4 0.930 . S
C10 O17 1.259 . S
C10 O18 1.258 1_665 S
N11 Co2 2.057 1_556 S
N11 C12 1.316 1_556 S
N11 C13 1.375 . S
C12 N11 1.316 1_554 S
C12 N14 1.347 1_554 S
C12 H23 0.931 . S
C13 N11 1.375 . S
C13 C15 1.350 . S
C13 H22 0.930 . S
N14 C12 1.347 1_556 S
N14 C15 1.373 . S
C15 C13 1.350 . S
C15 N14 1.373 . S
C15 H29 0.931 . S
C16 O19 1.262 1_556 S
C16 O20 1.249 1_545 S
O17 Co0 2.021 . S
O17 C10 1.259 . S
O18 Co2 2.117 1_556 S
O18 C10 1.258 1_445 S
O19 Co2 2.020 . S
O19 C16 1.262 1_554 S
O20 Co0 2.062 1_455 S
O20 C16 1.249 1_565 S
O21 C1 1.259 . S
O21 Co2 2.021 . S
H22 C13 0.930 . S
H23 C12 0.931 . S
O24 Co0 2.117 1_554 S
O24 C1 1.258 1_665 S
O25 Co0 2.020 . S
O25 C27 1.259 1_556 S
O26 Co2 2.062 1_655 S
O26 C27 1.252 1_545 S
C27 O25 1.259 1_554 S
C27 O26 1.252 1_565 S
H28 C7 0.931 . S
H29 C15 0.931 . S
H30 C48 0.951 . S
H31 C50 0.951 . S
H32 C52 0.950 . S
H33 C53 0.950 . S
H34 C55 0.950 . S
H35 C58 0.950 . S
H36 C59 0.950 . S
H37 C61 0.950 . S
H38 C62 0.950 . S
H39 C63 0.951 . S
H40 C65 0.951 . S
H41 C67 0.950 . S
H42 C68 0.950 . S
H43 C70 0.950 . S
H44 C73 0.950 . S
H45 C74 0.950 . S
H46 C76 0.950 . S
H47 C77 0.950 . S
C48 H30 0.951 . S
C48 C49 1.365 1_655 S
C48 C50 1.388 . S
C49 C48 1.365 1_455 S
C49 C53 1.385 1_545 S
C50 H31 0.951 . S
C50 C48 1.388 . S
C50 C51 1.366 1_655 S
C51 C50 1.366 1_455 S
C51 C52 1.414 1_545 S
C51 C54 1.499 . S
C52 H32 0.950 . S
C52 C51 1.414 1_565 S
C52 C53 1.374 . S
C53 H33 0.950 . S
C53 C49 1.385 1_565 S
C53 C52 1.374 . S
C54 C51 1.499 . S
C54 C55 1.373 1_545 S
C54 C56 1.389 . S
C55 H34 0.950 . S
C55 C54 1.373 1_565 S
C55 C71 1.377 1_455 S
C56 C54 1.389 . S
C56 C57 1.524 . S
C56 C70 1.377 1_455 S
C57 C56 1.524 . S
C57 C58 1.397 . S
C57 C62 1.363 1_455 S
C58 H35 0.950 . S
C58 C57 1.397 . S
C58 C59 1.334 . S
C59 H36 0.950 . S
C59 C58 1.334 . S
C59 C60 1.287 . S
C60 C59 1.287 . S
C60 C61 1.524 1_455 S
C60 H79 0.913 . S
C61 H37 0.950 . S
C61 C60 1.524 1_655 S
C61 C62 1.415 . S
C62 H38 0.950 . S
C62 C57 1.363 1_655 S
C62 C61 1.415 . S
C63 H39 0.951 . S
C63 C64 1.365 1_565 S
C63 C65 1.388 . S
C64 C63 1.365 1_545 S
C64 C68 1.385 1_455 S
C65 H40 0.951 . S
C65 C63 1.388 . S
C65 C66 1.366 1_455 S
C66 C65 1.366 1_655 S
C66 C67 1.414 1_565 S
C66 C69 1.499 . S
C67 H41 0.950 . S
C67 C66 1.414 1_545 S
C67 C68 1.374 . S
C68 H42 0.950 . S
C68 C64 1.385 1_655 S
C68 C67 1.374 . S
C69 C66 1.499 . S
C69 C70 1.373 1_565 S
C69 C71 1.389 . S
C70 H43 0.950 . S
C70 C56 1.377 1_655 S
C70 C69 1.373 1_545 S
C71 C55 1.377 1_655 S
C71 C69 1.389 . S
C71 C72 1.524 . S
C72 C71 1.524 . S
C72 C73 1.397 . S
C72 C77 1.363 1_655 S
C73 H44 0.950 . S
C73 C72 1.397 . S
C73 C74 1.334 . S
C74 H45 0.950 . S
C74 C73 1.334 . S
C74 C75 1.287 . S
C75 C74 1.287 . S
C75 C76 1.524 1_655 S
C75 H78 0.999 . S
C76 H46 0.950 . S
C76 C75 1.524 1_455 S
C76 C77 1.415 . S
C77 H47 0.950 . S
C77 C72 1.363 1_455 S
C77 C76 1.415 . S
H78 C75 0.999 . S
H79 C60 0.913 . S
H80 C98 0.951 . S
H81 C100 0.951 . S
H82 C102 0.950 . S
H83 C103 0.950 . S
H84 C105 0.950 . S
H85 C108 0.950 . S
H86 C109 0.950 . S
H87 C111 0.950 . S
H88 C112 0.950 . S
H89 C113 0.951 . S
H90 C115 0.951 . S
H91 C117 0.950 . S
H92 C118 0.950 . S
H93 C120 0.950 . S
H94 C123 0.950 . S
H95 C124 0.950 . S
H96 C126 0.950 . S
H97 C127 0.950 . S
C98 H80 0.951 . S
C98 C99 1.365 . S
C98 C100 1.388 . S
C99 C98 1.365 . S
C99 C103 1.385 1_544 S
C100 H81 0.951 . S
C100 C98 1.388 . S
C100 C101 1.366 1_554 S
C101 C100 1.366 1_556 S
C101 C102 1.414 1_545 S
C101 C104 1.499 1_545 S
C102 H82 0.950 . S
C102 C101 1.414 1_565 S
C102 C103 1.374 . S
C103 H83 0.950 . S
C103 C99 1.385 1_566 S
C103 C102 1.374 . S
C104 C101 1.499 1_565 S
C104 C105 1.372 1_556 S
C104 C106 1.391 1_565 S
C105 H84 0.950 . S
C105 C104 1.372 1_554 S
C105 C121 1.377 . S
C106 C104 1.391 1_545 S
C106 C107 1.524 . S
C106 C120 1.377 . S
C107 C106 1.524 . S
C107 C108 1.397 . S
C107 C112 1.363 . S
C108 H85 0.950 . S
C108 C107 1.397 . S
C108 C109 1.334 . S
C109 H86 0.950 . S
C109 C108 1.334 . S
C109 C110 1.287 . S
C110 C109 1.287 . S
C110 C111 1.524 . S
C110 H129 0.913 . S
C111 H87 0.950 . S
C111 C110 1.524 . S
C111 C112 1.415 . S
C112 H88 0.950 . S
C112 C107 1.363 . S
C112 C111 1.415 . S
C113 H89 0.951 . S
C113 C114 1.365 1_566 S
C113 C115 1.388 . S
C114 C113 1.365 1_544 S
C114 C118 1.385 . S
C115 H90 0.951 . S
C115 C113 1.388 . S
C115 C116 1.366 1_556 S
C116 C115 1.366 1_554 S
C116 C117 1.414 1_565 S
C116 C119 1.498 1_565 S
C117 H91 0.950 . S
C117 C116 1.414 1_545 S
C117 C118 1.374 . S
C118 H92 0.950 . S
C118 C114 1.385 . S
C118 C117 1.374 . S
C119 C116 1.498 1_545 S
C119 C120 1.376 1_554 S
C119 C121 1.387 1_545 S
C120 H93 0.950 . S
C120 C106 1.377 . S
C120 C119 1.376 1_556 S
C121 C105 1.377 . S
C121 C119 1.387 1_565 S
C121 C122 1.524 . S
C122 C121 1.524 . S
C122 C123 1.397 . S
C122 C127 1.363 . S
C123 H94 0.950 . S
C123 C122 1.397 . S
C123 C124 1.334 . S
C124 H95 0.950 . S
C124 C123 1.334 . S
C124 C125 1.287 . S
C125 C124 1.287 . S
C125 C126 1.524 . S
C125 H128 0.999 . S
C126 H96 0.950 . S
C126 C125 1.524 . S
C126 C127 1.415 . S
C127 H97 0.950 . S
C127 C122 1.363 . S
C127 C126 1.415 . S
H128 C125 0.999 . S
H129 C110 0.913 . S
H130 C148 0.951 . S
H131 C150 0.951 . S
H132 C152 0.950 . S
H133 C153 0.950 . S
H134 C155 0.950 . S
H135 C158 0.950 . S
H136 C159 0.950 . S
H137 C161 0.950 . S
H138 C162 0.950 . S
H139 C163 0.951 . S
H140 C165 0.951 . S
H141 C167 0.950 . S
H142 C168 0.950 . S
H143 C170 0.950 . S
H144 C173 0.950 . S
H145 C174 0.950 . S
H146 C176 0.950 . S
H147 C177 0.950 . S
C148 H130 0.951 . S
C148 C149 1.365 1_655 S
C148 C150 1.388 . S
C149 C148 1.365 1_455 S
C149 C153 1.385 1_554 S
C150 H131 0.951 . S
C150 C148 1.388 . S
C150 C151 1.366 1_655 S
C151 C150 1.366 1_455 S
C151 C152 1.414 1_554 S
C151 C154 1.498 1_554 S
C152 H132 0.950 . S
C152 C151 1.414 1_556 S
C152 C153 1.374 . S
C153 H133 0.950 . S
C153 C149 1.385 1_556 S
C153 C152 1.374 . S
C154 C151 1.498 1_556 S
C154 C155 1.382 1_455 S
C154 C156 1.381 1_556 S
C155 H134 0.950 . S
C155 C154 1.382 1_655 S
C155 C171 1.377 . S
C156 C154 1.381 1_554 S
C156 C157 1.524 . S
C156 C170 1.377 . S
C157 C156 1.524 . S
C157 C158 1.397 . S
C157 C162 1.363 . S
C158 H135 0.950 . S
C158 C157 1.397 . S
C158 C159 1.334 . S
C159 H136 0.950 . S
C159 C158 1.334 . S
C159 C160 1.287 . S
C160 C159 1.287 . S
C160 C161 1.524 . S
C160 H179 0.913 . S
C161 H137 0.950 . S
C161 C160 1.524 . S
C161 C162 1.415 . S
C162 H138 0.950 . S
C162 C157 1.363 . S
C162 C161 1.415 . S
C163 H139 0.951 . S
C163 C164 1.365 1_556 S
C163 C165 1.388 . S
C164 C163 1.365 1_554 S
C164 C168 1.385 1_455 S
C165 H140 0.951 . S
C165 C163 1.388 . S
C165 C166 1.380 1_455 S
C166 C165 1.380 1_655 S
C166 C167 1.400 1_556 S
C166 C169 1.497 1_556 S
C167 H141 0.950 . S
C167 C166 1.400 1_554 S
C167 C168 1.374 . S
C168 H142 0.950 . S
C168 C164 1.385 1_655 S
C168 C167 1.374 . S
C169 C166 1.497 1_554 S
C169 C170 1.385 1_655 S
C169 C171 1.379 1_554 S
C170 H143 0.950 . S
C170 C156 1.377 . S
C170 C169 1.385 1_455 S
C171 C155 1.377 . S
C171 C169 1.379 1_556 S
C171 C172 1.524 . S
C172 C171 1.524 . S
C172 C173 1.397 . S
C172 C177 1.363 . S
C173 H144 0.950 . S
C173 C172 1.397 . S
C173 C174 1.334 . S
C174 H145 0.950 . S
C174 C173 1.334 . S
C174 C175 1.287 . S
C175 C174 1.287 . S
C175 C176 1.524 . S
C175 H178 0.999 . S
C176 H146 0.950 . S
C176 C175 1.524 . S
C176 C177 1.415 . S
C177 H147 0.950 . S
C177 C172 1.363 . S
C177 C176 1.415 . S
H178 C175 0.999 . S
H179 C160 0.913 . S
C49 C1 1.496 . S
C64 C10 1.496 1_445 S
C99 C16 1.499 1_554 S
C114 C27 1.499 1_545 S
C149 N6 1.465 1_455 S
C164 N14 1.465 1_554 S
