# Generated by pormake.
# Topology qtz, (4)-cn, num edge types: 1
# Building blocks:
#     Node 0, Type 0, BuildingBlock: AZAVOO_clean_sbu_0, # of connection points: 4
#     Node 1, Type 0, BuildingBlock: AZAVOO_clean_sbu_0, # of connection points: 4
#     Node 2, Type 0, BuildingBlock: AZAVOO_clean_sbu_0, # of connection points: 4
#     Edge 3, Type (0, 0), BuildingBlock: XIVTED_clean_linker_0, # of connection points: 2
#     Edge 4, Type (0, 0), BuildingBlock: XIVTED_clean_linker_0, # of connection points: 2
#     Edge 5, Type (0, 0), BuildingBlock: XIVTED_clean_linker_0, # of connection points: 2
#     Edge 6, Type (0, 0), BuildingBlock: XIVTED_clean_linker_0, # of connection points: 2
#     Edge 7, Type (0, 0), BuildingBlock: XIVTED_clean_linker_0, # of connection points: 2
#     Edge 8, Type (0, 0), BuildingBlock: XIVTED_clean_linker_0, # of connection points: 2
# Relax obj value: 0.162
# Max RMSD: 0.226
# Mean RMSD: 0.200
data_MOF--net-qtz--node1-AZAVOO_clean_sbu_0--edge1-XIVTED_clean_linker_0
_symmetry_space_group_name_H-M    P1
_symmetry_Int_Tables_number       1
_symmetry_cell_setting            triclinic
loop_
_symmetry_equiv_pos_as_xyz
'x, y, z'
_cell_length_a     23.106856
_cell_length_b     22.995797
_cell_length_c     29.494516
_cell_angle_alpha  94.781261
_cell_angle_beta   99.163136
_cell_angle_gamma 122.66372
loop_
_atom_site_label
_atom_site_type_symbol
_atom_site_fract_x
_atom_site_fract_y
_atom_site_fract_z
_atom_type_partial_charge
Mg0 Mg 0.95525 0.47294 0.11867 0.0
O1 O 0.04688 0.57579 0.16967 0.0
O2 O 1.00132 0.60371 0.22211 0.0
Mg3 Mg 0.8814 0.52342 0.20218 0.0
C4 C 0.05405 0.6153 0.2062 0.0
C5 C 0.08924 0.50507 0.0853 0.0
O6 O 0.11797 0.52567 0.13062 0.0
O7 O 0.91699 0.53195 0.08006 0.0
O8 O 0.8686 0.55698 0.13173 0.0
O9 O 0.9683 0.40873 0.16617 0.0
O10 O 0.89775 0.44551 0.1692 0.0
C11 C 0.88314 0.55766 0.09165 0.0
C12 C 0.92466 0.41312 0.18643 0.0
O13 O 0.02507 0.48403 0.07 0.0
Mg14 Mg 0.65791 0.09931 0.49514 0.0
O15 O 0.55946 0.02129 0.43483 0.0
O16 O 0.53911 0.08426 0.38897 0.0
Mg17 Mg 0.62006 0.20105 0.42165 0.0
C18 C 0.52384 0.02528 0.39879 0.0
C19 C 0.61384 0.94922 0.51885 0.0
O20 O 0.59594 0.92571 0.47334 0.0
O21 O 0.59017 0.12169 0.53131 0.0
O22 O 0.57155 0.1856 0.48539 0.0
O23 O 0.73204 0.10744 0.45102 0.0
O24 O 0.69247 0.17573 0.45616 0.0
C25 C 0.56376 0.15686 0.52122 0.0
C26 C 0.72994 0.15902 0.43834 0.0
O27 O 0.638 0.01316 0.53487 0.0
Mg28 Mg 0.38776 0.48143 0.77778 0.0
O29 O 0.49229 0.52627 0.83298 0.0
O30 O 0.51509 0.62221 0.87911 0.0
Mg31 Mg 0.42796 0.63933 0.8537 0.0
C32 C 0.531 0.57867 0.86767 0.0
C33 C 0.42316 0.37078 0.74793 0.0
O34 O 0.43408 0.37008 0.79292 0.0
O35 O 0.4458 0.56903 0.73904 0.0
O36 O 0.46564 0.66264 0.78591 0.0
O37 O 0.32487 0.41579 0.82477 0.0
O38 O 0.35761 0.52575 0.82429 0.0
C39 C 0.46992 0.63439 0.74852 0.0
C40 C 0.32824 0.47109 0.84296 0.0
O41 O 0.40578 0.41083 0.73306 0.0
H42 H 0.20991 0.36237 0.86172 0.0
H43 H 0.23296 0.57884 0.09692 0.0
H44 H 0.38054 0.58066 0.91621 0.0
H45 H 0.03473 0.41826 -0.00034 0.0
H46 H 0.29651 0.56707 0.0413 0.0
H47 H 0.15393 0.36797 0.92449 0.0
C48 C 0.23592 0.41113 0.88727 0.0
C49 C 0.29901 0.47156 0.8835 0.0
C50 C 0.2391 0.53447 0.03243 0.0
C51 C 0.2362 0.47812 0.95497 0.0
C52 C 0.20297 0.54111 0.06397 0.0
C53 C 0.12868 0.4999 0.05252 0.0
C54 C 0.20042 0.48513 -0.01007 0.0
C55 C 0.09209 0.45162 0.00951 0.0
C56 C 0.20389 0.41441 0.92273 0.0
C57 C 0.3309 0.53353 0.91733 0.0
N58 N 0.12838 0.44527 -0.02018 0.0
N59 N 0.29906 0.53533 0.9518 0.0
H60 H 0.85004 0.42945 0.24305 0.0
H61 H 0.79397 0.12592 0.37897 0.0
H62 H 0.95335 0.32264 0.2225 0.0
H63 H 0.75255 0.28197 0.42068 0.0
H64 H 0.85064 0.19232 0.32001 0.0
H65 H 0.81083 0.37081 0.30687 0.0
C66 C 0.86529 0.39428 0.25225 0.0
C67 C 0.9054 0.38135 0.2275 0.0
C68 C 0.82934 0.21183 0.34241 0.0
C69 C 0.85923 0.31235 0.30049 0.0
C70 C 0.79695 0.174 0.37581 0.0
C71 C 0.76723 0.19772 0.40396 0.0
C72 C 0.83148 0.27322 0.3375 0.0
C73 C 0.77305 0.26062 0.39896 0.0
C74 C 0.8427 0.36051 0.28884 0.0
C75 C 0.92271 0.3343 0.24093 0.0
N76 N 0.804 0.29576 0.36623 0.0
N77 N 0.89889 0.30078 0.2764 0.0
H78 H 0.66288 0.98677 0.61368 0.0
H79 H 0.46041 0.59201 0.65617 0.0
H80 H 0.54211 0.80437 0.50007 0.0
H81 H 0.55119 0.77801 0.76347 0.0
H82 H 0.50497 0.66772 0.59928 0.0
H83 H 0.63808 0.90946 0.66947 0.0
C84 C 0.63127 0.9303 0.60039 0.0
C85 C 0.60361 0.90191 0.55211 0.0
C86 C 0.51546 0.69176 0.63537 0.0
C87 C 0.57469 0.81278 0.61615 0.0
C88 C 0.49029 0.6487 0.66788 0.0
C89 C 0.50144 0.67876 0.71453 0.0
C90 C 0.55243 0.76519 0.64985 0.0
C91 C 0.54053 0.75245 0.72778 0.0
C92 C 0.61715 0.88613 0.63237 0.0
C93 C 0.56398 0.82837 0.53703 0.0
N94 N 0.5643 0.79301 0.69557 0.0
N95 N 0.55005 0.78611 0.56905 0.0
H96 H 0.61665 0.67348 0.94993 0.0
H97 H 0.85737 0.52322 -0.00395 0.0
H98 H 0.59147 0.50558 0.8527 0.0
H99 H 0.83212 0.63932 0.10499 0.0
H100 H 0.78173 0.53916 0.93767 0.0
H101 H 0.71608 0.68251 0.00123 0.0
C102 C 0.63229 0.63883 0.93907 0.0
C103 C 0.59489 0.58802 0.89707 0.0
C104 C 0.79369 0.56197 -0.0257 0.0
C105 C 0.70925 0.59855 0.95587 0.0
C106 C 0.83732 0.55345 0.00764 0.0
C107 C 0.85041 0.57928 0.05558 0.0
C108 C 0.76366 0.5972 -0.01099 0.0
C109 C 0.82275 0.61779 0.06849 0.0
C110 C 0.68913 0.64408 0.96849 0.0
C111 C 0.61818 0.545 0.88494 0.0
N112 N 0.78025 0.6251 0.03544 0.0
N113 N 0.67367 0.55098 0.91435 0.0
H114 H 0.43636 0.90042 0.42435 0.0
H115 H 0.17243 0.69391 0.17273 0.0
H116 H 0.46528 1.00191 0.30544 0.0
H117 H 0.09957 0.66937 0.30016 0.0
H118 H 0.29134 0.7913 0.21857 0.0
H119 H 0.32344 0.7974 0.37616 0.0
C120 C 0.4195 0.90058 0.38795 0.0
C121 C 0.45991 0.95989 0.36889 0.0
C122 C 0.2491 0.76428 0.23628 0.0
C123 C 0.33172 0.84236 0.31376 0.0
C124 C 0.18151 0.70888 0.21028 0.0
C125 C 0.12602 0.67411 0.23267 0.0
C126 C 0.26148 0.78337 0.28504 0.0
C127 C 0.14064 0.69538 0.28144 0.0
C128 C 0.35501 0.8421 0.36066 0.0
C129 C 0.43536 0.95744 0.32155 0.0
N130 N 0.20707 0.74828 0.30606 0.0
N131 N 0.37287 0.89951 0.2955 0.0
H132 H 0.38331 0.34455 0.65268 0.0
H133 H 0.56822 0.14139 0.61292 0.0
H134 H 0.48162 0.29543 0.76632 0.0
H135 H 0.47793 0.20356 0.50355 0.0
H136 H 0.52242 0.18132 0.66855 0.0
H137 H 0.40372 0.2778 0.59689 0.0
C138 C 0.40911 0.31952 0.66594 0.0
C139 C 0.43169 0.32638 0.71428 0.0
C140 C 0.51201 0.18538 0.63224 0.0
C141 C 0.45555 0.24975 0.6503 0.0
C142 C 0.53783 0.16234 0.60043 0.0
C143 C 0.5278 0.17019 0.55368 0.0
C144 C 0.47578 0.2161 0.617 0.0
C145 C 0.48796 0.19754 0.5394 0.0
C146 C 0.4206 0.28116 0.63398 0.0
C147 C 0.46386 0.29186 0.72933 0.0
N148 N 0.464 0.22002 0.571 0.0
N149 N 0.47556 0.25553 0.69739 0.0
loop_
_geom_bond_atom_site_label_1
_geom_bond_atom_site_label_2
_geom_bond_distance
_geom_bond_site_symmetry_2
_ccdc_geom_bond_type
Mg0 O1 2.028 1_655 S
Mg0 O7 1.986 . S
Mg0 O9 2.114 . S
Mg0 O10 2.251 . S
Mg0 O13 2.010 1_655 S
O1 Mg0 2.028 1_455 S
O1 C4 1.250 . S
O2 Mg3 2.028 1_455 S
O2 C4 1.248 . S
Mg3 O2 2.028 1_655 S
Mg3 O8 2.032 . S
Mg3 O10 2.079 . S
C4 O1 1.250 . S
C4 O2 1.248 . S
C5 O6 1.264 . S
C5 O13 1.249 . S
O6 C5 1.264 . S
O7 Mg0 1.986 . S
O7 C11 1.246 . S
O8 Mg3 2.032 . S
O8 C11 1.259 . S
O9 Mg0 2.114 . S
O9 C12 1.252 . S
O10 Mg0 2.251 . S
O10 Mg3 2.079 . S
O10 C12 1.273 . S
C11 O7 1.246 . S
C11 O8 1.259 . S
C12 O9 1.252 . S
C12 O10 1.273 . S
O13 Mg0 2.010 1_455 S
O13 C5 1.249 . S
Mg14 O15 2.028 1_545 S
Mg14 O21 1.986 . S
Mg14 O23 2.114 . S
Mg14 O24 2.251 . S
Mg14 O27 2.010 1_545 S
O15 Mg14 2.028 1_565 S
O15 C18 1.250 . S
O16 Mg17 2.028 . S
O16 C18 1.248 1_545 S
Mg17 O16 2.028 . S
Mg17 O22 2.032 . S
Mg17 O24 2.079 . S
C18 O15 1.250 . S
C18 O16 1.248 1_565 S
C19 O20 1.264 . S
C19 O27 1.249 . S
O20 C19 1.264 . S
O21 Mg14 1.986 . S
O21 C25 1.246 . S
O22 Mg17 2.032 . S
O22 C25 1.259 . S
O23 Mg14 2.114 . S
O23 C26 1.252 . S
O24 Mg14 2.251 . S
O24 Mg17 2.079 . S
O24 C26 1.273 . S
C25 O21 1.246 . S
C25 O22 1.259 . S
C26 O23 1.252 . S
C26 O24 1.273 . S
O27 Mg14 2.010 1_565 S
O27 C19 1.249 . S
Mg28 O29 2.028 . S
Mg28 O35 1.986 . S
Mg28 O37 2.114 . S
Mg28 O38 2.251 . S
Mg28 O41 2.010 . S
O29 Mg28 2.028 . S
O29 C32 1.250 . S
O30 Mg31 2.028 . S
O30 C32 1.248 . S
Mg31 O30 2.028 . S
Mg31 O36 2.032 . S
Mg31 O38 2.079 . S
C32 O29 1.250 . S
C32 O30 1.248 . S
C33 O34 1.264 . S
C33 O41 1.249 . S
O34 C33 1.264 . S
O35 Mg28 1.986 . S
O35 C39 1.246 . S
O36 Mg31 2.032 . S
O36 C39 1.259 . S
O37 Mg28 2.114 . S
O37 C40 1.252 . S
O38 Mg28 2.251 . S
O38 Mg31 2.079 . S
O38 C40 1.273 . S
C39 O35 1.246 . S
C39 O36 1.259 . S
C40 O37 1.252 . S
C40 O38 1.273 . S
O41 Mg28 2.010 . S
O41 C33 1.249 . S
H42 C48 0.930 . S
H43 C52 0.930 . S
H44 C57 0.929 . S
H45 C55 0.929 . S
H46 C50 0.929 . S
H47 C56 0.929 . S
C48 H42 0.930 . S
C48 C49 1.367 . S
C48 C56 1.378 . S
C49 C48 1.367 . S
C49 C57 1.433 . S
C50 H46 0.929 . S
C50 C52 1.378 . S
C50 C54 1.350 . S
C51 C54 1.463 1_556 S
C51 C56 1.350 . S
C51 N59 1.427 1_556 S
C52 H43 0.930 . S
C52 C50 1.378 . S
C52 C53 1.367 . S
C53 C52 1.367 . S
C53 C55 1.433 . S
C54 C50 1.350 . S
C54 C51 1.463 1_554 S
C54 N58 1.427 1_554 S
C55 H45 0.929 . S
C55 C53 1.433 . S
C55 N58 1.384 1_554 S
C56 H47 0.929 . S
C56 C48 1.378 . S
C56 C51 1.350 . S
C57 H44 0.929 . S
C57 C49 1.433 . S
C57 N59 1.384 1_556 S
N58 C54 1.427 1_556 S
N58 C55 1.384 1_556 S
N59 C51 1.427 1_554 S
N59 C57 1.384 1_554 S
H60 C66 0.930 . S
H61 C70 0.930 . S
H62 C75 0.929 . S
H63 C73 0.929 . S
H64 C68 0.929 . S
H65 C74 0.929 . S
C66 H60 0.930 . S
C66 C67 1.367 . S
C66 C74 1.378 . S
C67 C66 1.367 . S
C67 C75 1.433 . S
C68 H64 0.929 . S
C68 C70 1.378 . S
C68 C72 1.350 . S
C69 C72 1.463 . S
C69 C74 1.350 . S
C69 N77 1.427 . S
C70 H61 0.930 . S
C70 C68 1.378 . S
C70 C71 1.367 . S
C71 C70 1.367 . S
C71 C73 1.433 . S
C72 C68 1.350 . S
C72 C69 1.463 . S
C72 N76 1.427 . S
C73 H63 0.929 . S
C73 C71 1.433 . S
C73 N76 1.384 . S
C74 H65 0.929 . S
C74 C66 1.378 . S
C74 C69 1.350 . S
C75 H62 0.929 . S
C75 C67 1.433 . S
C75 N77 1.384 . S
N76 C72 1.427 . S
N76 C73 1.384 . S
N77 C69 1.427 . S
N77 C75 1.384 . S
H78 C84 0.930 . S
H79 C88 0.930 . S
H80 C93 0.929 . S
H81 C91 0.929 . S
H82 C86 0.929 . S
H83 C92 0.929 . S
C84 H78 0.930 . S
C84 C85 1.367 . S
C84 C92 1.378 . S
C85 C84 1.367 . S
C85 C93 1.433 . S
C86 H82 0.929 . S
C86 C88 1.378 . S
C86 C90 1.350 . S
C87 C90 1.463 . S
C87 C92 1.350 . S
C87 N95 1.427 . S
C88 H79 0.930 . S
C88 C86 1.378 . S
C88 C89 1.367 . S
C89 C88 1.367 . S
C89 C91 1.433 . S
C90 C86 1.350 . S
C90 C87 1.463 . S
C90 N94 1.427 . S
C91 H81 0.929 . S
C91 C89 1.433 . S
C91 N94 1.384 . S
C92 H83 0.929 . S
C92 C84 1.378 . S
C92 C87 1.350 . S
C93 H80 0.929 . S
C93 C85 1.433 . S
C93 N95 1.384 . S
N94 C90 1.427 . S
N94 C91 1.384 . S
N95 C87 1.427 . S
N95 C93 1.384 . S
H96 C102 0.930 . S
H97 C106 0.930 . S
H98 C111 0.929 . S
H99 C109 0.929 . S
H100 C104 0.929 . S
H101 C110 0.929 . S
C102 H96 0.930 . S
C102 C103 1.367 . S
C102 C110 1.378 . S
C103 C102 1.367 . S
C103 C111 1.433 . S
C104 H100 0.929 . S
C104 C106 1.378 . S
C104 C108 1.350 . S
C105 C108 1.463 1_556 S
C105 C110 1.350 . S
C105 N113 1.427 . S
C106 H97 0.930 . S
C106 C104 1.378 . S
C106 C107 1.367 . S
C107 C106 1.367 . S
C107 C109 1.433 . S
C108 C104 1.350 . S
C108 C105 1.463 1_554 S
C108 N112 1.427 . S
C109 H99 0.929 . S
C109 C107 1.433 . S
C109 N112 1.384 . S
C110 H101 0.929 . S
C110 C102 1.378 . S
C110 C105 1.350 . S
C111 H98 0.929 . S
C111 C103 1.433 . S
C111 N113 1.384 . S
N112 C108 1.427 . S
N112 C109 1.384 . S
N113 C105 1.427 . S
N113 C111 1.384 . S
H114 C120 0.930 . S
H115 C124 0.930 . S
H116 C129 0.929 . S
H117 C127 0.929 . S
H118 C122 0.929 . S
H119 C128 0.929 . S
C120 H114 0.930 . S
C120 C121 1.367 . S
C120 C128 1.378 . S
C121 C120 1.367 . S
C121 C129 1.433 . S
C122 H118 0.929 . S
C122 C124 1.378 . S
C122 C126 1.350 . S
C123 C126 1.463 . S
C123 C128 1.350 . S
C123 N131 1.427 . S
C124 H115 0.930 . S
C124 C122 1.378 . S
C124 C125 1.367 . S
C125 C124 1.367 . S
C125 C127 1.433 . S
C126 C122 1.350 . S
C126 C123 1.463 . S
C126 N130 1.427 . S
C127 H117 0.929 . S
C127 C125 1.433 . S
C127 N130 1.384 . S
C128 H119 0.929 . S
C128 C120 1.378 . S
C128 C123 1.350 . S
C129 H116 0.929 . S
C129 C121 1.433 . S
C129 N131 1.384 . S
N130 C126 1.427 . S
N130 C127 1.384 . S
N131 C123 1.427 . S
N131 C129 1.384 . S
H132 C138 0.930 . S
H133 C142 0.930 . S
H134 C147 0.929 . S
H135 C145 0.929 . S
H136 C140 0.929 . S
H137 C146 0.929 . S
C138 H132 0.930 . S
C138 C139 1.367 . S
C138 C146 1.378 . S
C139 C138 1.367 . S
C139 C147 1.433 . S
C140 H136 0.929 . S
C140 C142 1.378 . S
C140 C144 1.350 . S
C141 C144 1.463 . S
C141 C146 1.350 . S
C141 N149 1.427 . S
C142 H133 0.930 . S
C142 C140 1.378 . S
C142 C143 1.367 . S
C143 C142 1.367 . S
C143 C145 1.433 . S
C144 C140 1.350 . S
C144 C141 1.463 . S
C144 N148 1.427 . S
C145 H135 0.929 . S
C145 C143 1.433 . S
C145 N148 1.384 . S
C146 H137 0.929 . S
C146 C138 1.378 . S
C146 C141 1.350 . S
C147 H134 0.929 . S
C147 C139 1.433 . S
C147 N149 1.384 . S
N148 C144 1.427 . S
N148 C145 1.384 . S
N149 C141 1.427 . S
N149 C147 1.384 . S
C49 C40 1.318 . S
C53 C5 1.136 . S
C67 C12 1.349 . S
C71 C26 1.349 . S
C85 C19 1.064 . S
C89 C39 1.227 . S
C103 C32 1.236 . S
C107 C11 1.238 . S
C121 C18 1.315 . S
C125 C4 1.312 . S
C139 C33 1.072 . S
C143 C25 1.222 . S
