# Generated by pormake.
# Topology oof, (8)-cn, num edge types: 1
# Building blocks:
#     Node 0, Type 0, BuildingBlock: EBIMEJ_clean_sbu_0, # of connection points: 8
#     Node 1, Type 0, BuildingBlock: EBIMEJ_clean_sbu_0, # of connection points: 8
#     Node 2, Type 0, BuildingBlock: EBIMEJ_clean_sbu_0, # of connection points: 8
#     Node 3, Type 0, BuildingBlock: EBIMEJ_clean_sbu_0, # of connection points: 8
#     Edge 4, Type (0, 0), None
#     Edge 5, Type (0, 0), None
#     Edge 6, Type (0, 0), None
#     Edge 7, Type (0, 0), None
#     Edge 8, Type (0, 0), None
#     Edge 9, Type (0, 0), None
#     Edge 10, Type (0, 0), None
#     Edge 11, Type (0, 0), None
#     Edge 12, Type (0, 0), None
#     Edge 13, Type (0, 0), None
#     Edge 14, Type (0, 0), None
#     Edge 15, Type (0, 0), None
#     Edge 16, Type (0, 0), None
#     Edge 17, Type (0, 0), None
#     Edge 18, Type (0, 0), None
#     Edge 19, Type (0, 0), None
# Relax obj value: 0.046
# Max RMSD: 0.139
# Mean RMSD: 0.139
data_MOF--net-oof--node1-EBIMEJ_clean_sbu_0--edge1-none
_symmetry_space_group_name_H-M    P1
_symmetry_Int_Tables_number       1
_symmetry_cell_setting            triclinic
loop_
_symmetry_equiv_pos_as_xyz
'x, y, z'
_cell_length_a     7.5544812
_cell_length_b     36.268454
_cell_length_c     9.394644
_cell_angle_alpha  77.613652
_cell_angle_beta   117.58719
_cell_angle_gamma 94.399201
loop_
_atom_site_label
_atom_site_type_symbol
_atom_site_fract_x
_atom_site_fract_y
_atom_site_fract_z
_atom_type_partial_charge
Co0 Co 0.89833 0.24162 0.38424 0.0
Co1 Co 0.93569 0.2055 0.11046 0.0
Co2 Co 0.97618 0.15418 0.42299 0.0
H3 H 0.96677 0.19843 0.38262 0.0
O4 O 0.04546 0.20773 0.3423 0.0
H5 H 0.97079 0.16139 0.15785 0.0
O6 O 0.8909 0.15047 0.19483 0.0
Co7 Co 0.0697 0.12062 0.16374 0.0
O8 O 0.06864 0.14929 0.9523 0.0
O9 O 0.86386 0.19909 0.88265 0.0
O10 O 0.07227 0.07628 0.34065 0.0
O11 O 0.94897 0.09818 0.48611 0.0
O12 O 0.00053 0.2933 0.44741 0.0
O13 O 0.18963 0.25588 0.44016 0.0
O14 O 0.31988 0.14564 0.29382 0.0
O15 O 0.22335 0.20521 0.16252 0.0
C16 C 0.95568 0.18568 0.68593 0.0
C17 C 0.79417 0.28358 0.04817 0.0
C18 C 0.01885 0.06708 0.02755 0.0
C19 C 0.56632 0.18909 0.3085 0.0
C20 C 0.96103 0.17757 0.84853 0.0
C21 C 0.00724 0.07106 0.44706 0.0
C22 C 0.17258 0.28762 0.46554 0.0
C23 C 0.35857 0.17993 0.25594 0.0
O24 O 0.87515 0.21697 0.58963 0.0
O25 O 0.03511 0.16145 0.64811 0.0
O26 O 0.91408 0.26214 0.03673 0.0
O27 O 0.74384 0.27582 0.16346 0.0
O28 O 0.18615 0.08109 0.10119 0.0
O29 O 0.88091 0.08316 0.03205 0.0
O30 O 0.61845 0.22326 0.31016 0.0
O31 O 0.6877 0.16157 0.35144 0.0
Co32 Co 0.93739 0.98192 0.81104 0.0
Co33 Co 0.03092 0.94837 0.55179 0.0
Co34 Co 0.0714 0.89704 0.86432 0.0
H35 H 0.03631 0.94116 0.81693 0.0
O36 O 0.1162 0.95207 0.77995 0.0
H37 H 0.04033 0.90412 0.59216 0.0
O38 O 0.96164 0.89481 0.63249 0.0
Co39 Co 0.10876 0.86092 0.59054 0.0
O40 O 0.13194 0.88558 0.38514 0.0
O41 O 0.97199 0.9411 0.32667 0.0
O42 O 0.26325 0.82673 0.81132 0.0
O43 O 0.09301 0.8404 0.93805 0.0
O44 O 0.82094 1.02146 0.87358 0.0
O45 O 0.12618 1.01939 0.94272 0.0
O46 O 0.38864 0.87929 0.66459 0.0
O47 O 0.31941 0.94098 0.62334 0.0
C48 C 0.04606 0.92497 0.12625 0.0
C49 C -0.00014 1.03149 0.52773 0.0
C50 C 0.83452 0.81493 0.50926 0.0
C51 C 0.64853 0.92261 0.7188 0.0
C52 C 0.0514 0.91687 0.28884 0.0
C53 C 0.21292 0.81897 0.92661 0.0
C54 C 0.98824 1.03546 0.94722 0.0
C55 C 0.44078 0.91346 0.66626 0.0
O56 O 0.93845 0.95325 0.02248 0.0
O57 O 0.14323 0.90345 0.09213 0.0
O58 O 0.05813 1.00436 0.48868 0.0
O59 O 0.93483 1.02627 0.63413 0.0
O60 O 0.00645 0.80928 0.52707 0.0
O61 O 0.81758 0.84663 0.53496 0.0
O62 O 0.68721 0.9569 0.68094 0.0
O63 O 0.78374 0.89733 0.81226 0.0
Co64 Co 0.3983 0.74162 0.38422 0.0
Co65 Co 0.43566 0.7055 0.11044 0.0
Co66 Co 0.47615 0.65418 0.42297 0.0
H67 H 0.46674 0.69843 0.38261 0.0
O68 O 0.54543 0.70773 0.34228 0.0
H69 H 0.47076 0.66139 0.15784 0.0
O70 O 0.39087 0.65047 0.19482 0.0
Co71 Co 0.56968 0.62062 0.16373 0.0
O72 O 0.56861 0.64929 0.95228 0.0
O73 O 0.36383 0.69909 0.88264 0.0
O74 O 0.57226 0.57628 0.34065 0.0
O75 O 0.44895 0.59818 0.48609 0.0
O76 O 0.50061 0.79327 0.44769 0.0
O77 O 0.68948 0.75592 0.4398 0.0
O78 O 0.81985 0.64564 0.29381 0.0
O79 O 0.72332 0.70521 0.1625 0.0
C80 C 0.45565 0.68568 0.68592 0.0
C81 C 0.29413 0.78358 0.04815 0.0
C82 C 0.51884 0.56708 0.02755 0.0
C83 C 0.06629 0.68909 0.30849 0.0
C84 C 0.461 0.67757 0.84852 0.0
C85 C 0.50723 0.57106 0.44705 0.0
C86 C 0.67254 0.78762 0.46549 0.0
C87 C 0.85854 0.67993 0.25592 0.0
O88 O 0.37512 0.71697 0.58962 0.0
O89 O 0.53507 0.66145 0.6481 0.0
O90 O 0.41404 0.76214 0.03671 0.0
O91 O 0.24381 0.77582 0.16344 0.0
O92 O 0.68614 0.58109 0.10118 0.0
O93 O 0.38089 0.58316 0.03205 0.0
O94 O 0.11842 0.72326 0.31015 0.0
O95 O 0.18767 0.66157 0.35142 0.0
Co96 Co 0.43741 0.48192 0.81104 0.0
Co97 Co 0.53095 0.44837 0.5518 0.0
Co98 Co 0.57143 0.39704 0.86433 0.0
H99 H 0.53634 0.44115 0.81694 0.0
O100 O 0.61622 0.45207 0.77996 0.0
H101 H 0.54036 0.40412 0.59217 0.0
O102 O 0.46167 0.39481 0.6325 0.0
Co103 Co 0.60879 0.36092 0.59055 0.0
O104 O 0.63197 0.38558 0.38515 0.0
O105 O 0.47202 0.4411 0.32668 0.0
O106 O 0.76329 0.32673 0.81134 0.0
O107 O 0.59304 0.3404 0.93806 0.0
O108 O 0.32094 0.52146 0.87358 0.0
O109 O 0.62619 0.51939 0.94272 0.0
O110 O 0.88867 0.37929 0.6646 0.0
O111 O 0.81943 0.44098 0.62335 0.0
C112 C 0.54609 0.42497 0.12626 0.0
C113 C 0.49986 0.53149 0.52772 0.0
C114 C 0.33456 0.31492 0.50929 0.0
C115 C 0.14856 0.42261 0.7188 0.0
C116 C 0.55143 0.41687 0.28885 0.0
C117 C 0.71297 0.31897 0.92663 0.0
C118 C 0.48824 0.53546 0.94721 0.0
C119 C 0.94081 0.41346 0.66627 0.0
O120 O 0.43848 0.45325 0.02249 0.0
O121 O 0.64326 0.40345 0.09214 0.0
O122 O 0.55815 0.50436 0.48868 0.0
O123 O 0.43483 0.52627 0.63412 0.0
O124 O 0.5066 0.30925 0.5274 0.0
O125 O 0.3175 0.34666 0.53465 0.0
O126 O 0.18724 0.4569 0.68094 0.0
O127 O 0.28377 0.39733 0.81226 0.0
loop_
_geom_bond_atom_site_label_1
_geom_bond_atom_site_label_2
_geom_bond_distance
_geom_bond_site_symmetry_2
_ccdc_geom_bond_type
Co0 H3 2.400 1_655 S
Co0 O4 2.009 1_655 S
Co0 O12 2.115 . S
Co0 O13 2.315 1_655 S
Co0 O24 2.053 . S
Co0 O27 2.094 . S
Co0 O30 2.122 . S
Co1 O4 2.126 1_655 S
Co1 H5 2.388 . S
Co1 O6 2.053 . S
Co1 O9 2.047 1_554 S
Co1 O15 2.113 1_655 S
Co1 O26 2.063 1_655 S
Co2 H3 2.388 . S
Co2 O4 2.053 . S
Co2 O6 2.126 1_455 S
Co2 O11 2.063 1_455 S
Co2 O25 2.047 . S
Co2 O31 2.113 1_455 S
H3 Co0 2.400 1_455 S
H3 Co2 2.388 . S
H3 O4 0.760 . S
O4 Co0 2.009 1_455 S
O4 Co1 2.126 1_455 S
O4 Co2 2.053 . S
O4 H3 0.760 . S
H5 Co1 2.388 . S
H5 O6 0.760 . S
H5 Co7 2.400 1_655 S
O6 Co1 2.053 . S
O6 Co2 2.126 1_655 S
O6 H5 0.760 . S
O6 Co7 2.009 1_655 S
Co7 H5 2.400 1_455 S
Co7 O6 2.009 1_455 S
Co7 O8 2.053 1_554 S
Co7 O10 2.094 . S
Co7 O14 2.122 . S
Co7 O28 2.115 . S
Co7 O29 2.315 1_455 S
O8 Co7 2.053 1_556 S
O8 C20 1.259 1_455 S
O9 Co1 2.047 1_556 S
O9 C20 1.257 . S
O10 Co7 2.094 . S
O10 C21 1.253 . S
O11 Co2 2.063 1_655 S
O11 C21 1.268 1_655 S
O12 Co0 2.115 . S
O12 C22 1.281 1_655 S
O13 Co0 2.315 1_455 S
O13 C22 1.252 . S
O14 Co7 2.122 . S
O14 C23 1.272 . S
O15 Co1 2.113 1_455 S
O15 C23 1.245 . S
C16 O24 1.259 1_455 S
C16 O25 1.257 . S
C17 O26 1.268 1_655 S
C17 O27 1.253 . S
C18 O28 1.281 1_655 S
C18 O29 1.252 . S
C19 O30 1.272 . S
C19 O31 1.245 . S
C20 O8 1.259 1_655 S
C20 O9 1.257 . S
C21 O10 1.253 . S
C21 O11 1.268 1_455 S
C22 O12 1.281 1_455 S
C22 O13 1.252 . S
C23 O14 1.272 . S
C23 O15 1.245 . S
O24 Co0 2.053 . S
O24 C16 1.259 1_655 S
O25 Co2 2.047 . S
O25 C16 1.257 . S
O26 Co1 2.063 1_455 S
O26 C17 1.268 1_455 S
O27 Co0 2.094 . S
O27 C17 1.253 . S
O28 Co7 2.115 . S
O28 C18 1.281 1_455 S
O29 Co7 2.315 1_655 S
O29 C18 1.252 . S
O30 Co0 2.122 . S
O30 C19 1.272 . S
O31 Co2 2.113 1_655 S
O31 C19 1.245 . S
Co32 H35 2.400 1_655 S
Co32 O36 2.009 1_655 S
Co32 O44 2.115 . S
Co32 O45 2.315 1_655 S
Co32 O56 2.053 1_656 S
Co32 O59 2.094 . S
Co32 O62 2.122 . S
Co33 O36 2.126 . S
Co33 H37 2.388 1_455 S
Co33 O38 2.053 1_455 S
Co33 O41 2.047 1_455 S
Co33 O47 2.113 . S
Co33 O58 2.063 . S
Co34 H35 2.388 . S
Co34 O36 2.053 . S
Co34 O38 2.126 1_455 S
Co34 O43 2.063 . S
Co34 O57 2.047 1_556 S
Co34 O63 2.113 1_455 S
H35 Co32 2.400 1_455 S
H35 Co34 2.388 . S
H35 O36 0.760 . S
O36 Co32 2.009 1_455 S
O36 Co33 2.126 . S
O36 Co34 2.053 . S
O36 H35 0.760 . S
H37 Co33 2.388 1_655 S
H37 O38 0.760 . S
H37 Co39 2.400 1_655 S
O38 Co33 2.053 1_655 S
O38 Co34 2.126 1_655 S
O38 H37 0.760 . S
O38 Co39 2.009 1_655 S
Co39 H37 2.400 1_455 S
Co39 O38 2.009 1_455 S
Co39 O40 2.053 . S
Co39 O42 2.094 . S
Co39 O46 2.122 . S
Co39 O60 2.115 . S
Co39 O61 2.315 1_455 S
O40 Co39 2.053 . S
O40 C52 1.259 1_455 S
O41 Co33 2.047 1_655 S
O41 C52 1.257 . S
O42 Co39 2.094 . S
O42 C53 1.253 . S
O43 Co34 2.063 . S
O43 C53 1.268 . S
O44 Co32 2.115 . S
O44 C54 1.281 1_655 S
O45 Co32 2.315 1_455 S
O45 C54 1.252 . S
O46 Co39 2.122 . S
O46 C55 1.272 . S
O47 Co33 2.113 . S
O47 C55 1.245 . S
C48 O56 1.259 . S
C48 O57 1.257 . S
C49 O58 1.268 1_655 S
C49 O59 1.253 . S
C50 O60 1.281 . S
C50 O61 1.252 1_455 S
C51 O62 1.272 . S
C51 O63 1.245 . S
C52 O40 1.259 1_655 S
C52 O41 1.257 . S
C53 O42 1.253 . S
C53 O43 1.268 . S
C54 O44 1.281 1_455 S
C54 O45 1.252 . S
C55 O46 1.272 . S
C55 O47 1.245 . S
O56 Co32 2.053 1_454 S
O56 C48 1.259 . S
O57 Co34 2.047 1_554 S
O57 C48 1.257 . S
O58 Co33 2.063 . S
O58 C49 1.268 1_455 S
O59 Co32 2.094 . S
O59 C49 1.253 . S
O60 Co39 2.115 . S
O60 C50 1.281 . S
O61 Co39 2.315 1_655 S
O61 C50 1.252 1_655 S
O62 Co32 2.122 . S
O62 C51 1.272 . S
O63 Co34 2.113 1_655 S
O63 C51 1.245 . S
Co64 H67 2.400 . S
Co64 O68 2.009 . S
Co64 O76 2.115 . S
Co64 O77 2.315 . S
Co64 O88 2.053 . S
Co64 O91 2.094 . S
Co64 O94 2.122 . S
Co65 O68 2.126 . S
Co65 H69 2.388 . S
Co65 O70 2.053 . S
Co65 O73 2.047 1_554 S
Co65 O79 2.113 . S
Co65 O90 2.063 . S
Co66 H67 2.388 . S
Co66 O68 2.053 . S
Co66 O70 2.126 . S
Co66 O75 2.063 . S
Co66 O89 2.047 . S
Co66 O95 2.113 . S
H67 Co64 2.400 . S
H67 Co66 2.388 . S
H67 O68 0.760 . S
O68 Co64 2.009 . S
O68 Co65 2.126 . S
O68 Co66 2.053 . S
O68 H67 0.760 . S
H69 Co65 2.388 . S
H69 O70 0.760 . S
H69 Co71 2.400 . S
O70 Co65 2.053 . S
O70 Co66 2.126 . S
O70 H69 0.760 . S
O70 Co71 2.009 . S
Co71 H69 2.400 . S
Co71 O70 2.009 . S
Co71 O72 2.053 1_554 S
Co71 O74 2.094 . S
Co71 O78 2.122 . S
Co71 O92 2.115 . S
Co71 O93 2.315 . S
O72 Co71 2.053 1_556 S
O72 C84 1.259 . S
O73 Co65 2.047 1_556 S
O73 C84 1.257 . S
O74 Co71 2.094 . S
O74 C85 1.253 . S
O75 Co66 2.063 . S
O75 C85 1.268 . S
O76 Co64 2.115 . S
O76 C86 1.281 . S
O77 Co64 2.315 . S
O77 C86 1.252 . S
O78 Co71 2.122 . S
O78 C87 1.272 . S
O79 Co65 2.113 . S
O79 C87 1.245 . S
C80 O88 1.259 . S
C80 O89 1.257 . S
C81 O90 1.268 . S
C81 O91 1.253 . S
C82 O92 1.281 . S
C82 O93 1.252 . S
C83 O94 1.272 . S
C83 O95 1.245 . S
C84 O72 1.259 . S
C84 O73 1.257 . S
C85 O74 1.253 . S
C85 O75 1.268 . S
C86 O76 1.281 . S
C86 O77 1.252 . S
C87 O78 1.272 . S
C87 O79 1.245 . S
O88 Co64 2.053 . S
O88 C80 1.259 . S
O89 Co66 2.047 . S
O89 C80 1.257 . S
O90 Co65 2.063 . S
O90 C81 1.268 . S
O91 Co64 2.094 . S
O91 C81 1.253 . S
O92 Co71 2.115 . S
O92 C82 1.281 . S
O93 Co71 2.315 . S
O93 C82 1.252 . S
O94 Co64 2.122 . S
O94 C83 1.272 . S
O95 Co66 2.113 . S
O95 C83 1.245 . S
Co96 H99 2.400 . S
Co96 O100 2.009 . S
Co96 O108 2.115 . S
Co96 O109 2.315 . S
Co96 O120 2.053 1_556 S
Co96 O123 2.094 . S
Co96 O126 2.122 . S
Co97 O100 2.126 . S
Co97 H101 2.388 . S
Co97 O102 2.053 . S
Co97 O105 2.047 . S
Co97 O111 2.113 . S
Co97 O122 2.063 . S
Co98 H99 2.388 . S
Co98 O100 2.053 . S
Co98 O102 2.126 . S
Co98 O107 2.063 . S
Co98 O121 2.047 1_556 S
Co98 O127 2.113 . S
H99 Co96 2.400 . S
H99 Co98 2.388 . S
H99 O100 0.760 . S
O100 Co96 2.009 . S
O100 Co97 2.126 . S
O100 Co98 2.053 . S
O100 H99 0.760 . S
H101 Co97 2.388 . S
H101 O102 0.760 . S
H101 Co103 2.400 . S
O102 Co97 2.053 . S
O102 Co98 2.126 . S
O102 H101 0.760 . S
O102 Co103 2.009 . S
Co103 H101 2.400 . S
Co103 O102 2.009 . S
Co103 O104 2.053 . S
Co103 O106 2.094 . S
Co103 O110 2.122 . S
Co103 O124 2.115 . S
Co103 O125 2.315 . S
O104 Co103 2.053 . S
O104 C116 1.259 . S
O105 Co97 2.047 . S
O105 C116 1.257 . S
O106 Co103 2.094 . S
O106 C117 1.253 . S
O107 Co98 2.063 . S
O107 C117 1.268 . S
O108 Co96 2.115 . S
O108 C118 1.281 . S
O109 Co96 2.315 . S
O109 C118 1.252 . S
O110 Co103 2.122 . S
O110 C119 1.272 . S
O111 Co97 2.113 . S
O111 C119 1.245 . S
C112 O120 1.259 . S
C112 O121 1.257 . S
C113 O122 1.268 . S
C113 O123 1.253 . S
C114 O124 1.281 . S
C114 O125 1.252 . S
C115 O126 1.272 . S
C115 O127 1.245 . S
C116 O104 1.259 . S
C116 O105 1.257 . S
C117 O106 1.253 . S
C117 O107 1.268 . S
C118 O108 1.281 . S
C118 O109 1.252 . S
C119 O110 1.272 . S
C119 O111 1.245 . S
O120 Co96 2.053 1_554 S
O120 C112 1.259 . S
O121 Co98 2.047 1_554 S
O121 C112 1.257 . S
O122 Co97 2.063 . S
O122 C113 1.268 . S
O123 Co96 2.094 . S
O123 C113 1.253 . S
O124 Co103 2.115 . S
O124 C114 1.281 . S
O125 Co103 2.315 . S
O125 C114 1.252 . S
O126 Co96 2.122 . S
O126 C115 1.272 . S
O127 Co98 2.113 . S
O127 C115 1.245 . S
C20 C16 1.713 1_655 S
C52 C48 1.713 1_655 S
C84 C80 1.713 . S
C112 C116 1.713 . S
C19 C23 0.914 . S
C51 C55 0.914 . S
C87 C83 0.914 1_655 S
C119 C115 0.914 1_655 S
C114 C22 3.215 . S
C117 C17 2.774 1_556 S
C86 C50 3.218 1_655 S
C81 C53 2.770 1_554 S
C18 C54 1.539 1_644 S
C21 C49 2.266 1_445 S
C82 C118 1.539 1_554 S
C113 C85 2.265 . S
