# Generated by pormake.
# Topology upc, (4)-cn, num edge types: 1
# Building blocks:
#     Node 0, Type 0, BuildingBlock: QUQFOY_clean_sbu_1, # of connection points: 4
#     Node 1, Type 0, BuildingBlock: QUQFOY_clean_sbu_1, # of connection points: 4
#     Node 2, Type 0, BuildingBlock: QUQFOY_clean_sbu_1, # of connection points: 4
#     Node 3, Type 0, BuildingBlock: QUQFOY_clean_sbu_1, # of connection points: 4
#     Node 4, Type 0, BuildingBlock: QUQFOY_clean_sbu_1, # of connection points: 4
#     Node 5, Type 0, BuildingBlock: QUQFOY_clean_sbu_1, # of connection points: 4
#     Node 6, Type 0, BuildingBlock: QUQFOY_clean_sbu_1, # of connection points: 4
#     Node 7, Type 0, BuildingBlock: QUQFOY_clean_sbu_1, # of connection points: 4
#     Node 8, Type 0, BuildingBlock: QUQFOY_clean_sbu_1, # of connection points: 4
#     Node 9, Type 0, BuildingBlock: QUQFOY_clean_sbu_1, # of connection points: 4
#     Node 10, Type 0, BuildingBlock: QUQFOY_clean_sbu_1, # of connection points: 4
#     Node 11, Type 0, BuildingBlock: QUQFOY_clean_sbu_1, # of connection points: 4
#     Node 12, Type 0, BuildingBlock: QUQFOY_clean_sbu_1, # of connection points: 4
#     Node 13, Type 0, BuildingBlock: QUQFOY_clean_sbu_1, # of connection points: 4
#     Node 14, Type 0, BuildingBlock: QUQFOY_clean_sbu_1, # of connection points: 4
#     Node 15, Type 0, BuildingBlock: QUQFOY_clean_sbu_1, # of connection points: 4
#     Edge 16, Type (0, 0), None
#     Edge 17, Type (0, 0), None
#     Edge 18, Type (0, 0), None
#     Edge 19, Type (0, 0), None
#     Edge 20, Type (0, 0), None
#     Edge 21, Type (0, 0), None
#     Edge 22, Type (0, 0), None
#     Edge 23, Type (0, 0), None
#     Edge 24, Type (0, 0), None
#     Edge 25, Type (0, 0), None
#     Edge 26, Type (0, 0), None
#     Edge 27, Type (0, 0), None
#     Edge 28, Type (0, 0), None
#     Edge 29, Type (0, 0), None
#     Edge 30, Type (0, 0), None
#     Edge 31, Type (0, 0), None
#     Edge 32, Type (0, 0), None
#     Edge 33, Type (0, 0), None
#     Edge 34, Type (0, 0), None
#     Edge 35, Type (0, 0), None
#     Edge 36, Type (0, 0), None
#     Edge 37, Type (0, 0), None
#     Edge 38, Type (0, 0), None
#     Edge 39, Type (0, 0), None
#     Edge 40, Type (0, 0), None
#     Edge 41, Type (0, 0), None
#     Edge 42, Type (0, 0), None
#     Edge 43, Type (0, 0), None
#     Edge 44, Type (0, 0), None
#     Edge 45, Type (0, 0), None
#     Edge 46, Type (0, 0), None
#     Edge 47, Type (0, 0), None
# Relax obj value: 0.063
# Max RMSD: 0.189
# Mean RMSD: 0.189
data_MOF--net-upc--node1-QUQFOY_clean_sbu_1--edge1-none
_symmetry_space_group_name_H-M    P1
_symmetry_Int_Tables_number       1
_symmetry_cell_setting            triclinic
loop_
_symmetry_equiv_pos_as_xyz
'x, y, z'
_cell_length_a     15.220703
_cell_length_b     15.221358
_cell_length_c     21.374233
_cell_angle_alpha  90.000356
_cell_angle_beta   89.999663
_cell_angle_gamma 89.99996
loop_
_atom_site_label
_atom_site_type_symbol
_atom_site_fract_x
_atom_site_fract_y
_atom_site_fract_z
_atom_type_partial_charge
O0 O 0.09696 0.54573 0.1744 0.0
Cd1 Cd 0.08758 0.65171 0.11616 0.0
Cd2 Cd 0.22521 0.6801 0.16964 0.0
O3 O 0.23924 0.54873 0.18517 0.0
O4 O 1.01103 0.61482 0.04509 0.0
O5 O 0.15629 0.629 0.03822 0.0
C6 C 0.08292 0.60321 0.01379 0.0
C7 C 0.31547 0.78714 0.12681 0.0
C8 C 0.16592 0.51494 0.19988 0.0
C9 C 0.09336 0.78846 0.21759 0.0
O10 O 0.14988 0.73532 0.23847 0.0
O11 O 1.06784 0.77799 0.16079 0.0
O12 O 0.34073 0.73799 0.17235 0.0
O13 O 0.24301 0.76731 0.09886 0.0
O14 O 0.11847 0.09696 0.1744 0.0
Cd15 Cd 1.0125 0.08757 0.11614 0.0
Cd16 Cd 0.98411 0.2252 0.16962 0.0
O17 O 0.11547 0.23924 0.18517 0.0
O18 O 1.04941 1.01102 0.04509 0.0
O19 O 1.03522 0.15627 0.03821 0.0
C20 C 1.06103 0.08289 0.01379 0.0
C21 C 0.87706 0.31546 0.12681 0.0
C22 C 0.14927 0.16591 0.19988 0.0
C23 C 0.87574 0.09334 0.21757 0.0
O24 O 0.92889 0.14986 0.23845 0.0
O25 O 0.88621 1.06783 0.16077 0.0
O26 O 0.92621 0.34071 0.17235 0.0
O27 O 0.89688 0.243 0.09886 0.0
O28 O 0.56727 0.11842 0.1744 0.0
Cd29 Cd 0.5767 1.01246 0.11614 0.0
Cd30 Cd 0.43908 0.98401 0.16962 0.0
O31 O 0.42499 0.11538 0.18515 0.0
O32 O 0.65324 1.0494 0.04509 0.0
O33 O 0.508 1.03516 0.03821 0.0
C34 C 0.58136 1.061 0.01379 0.0
C35 C 0.34888 0.87696 0.12682 0.0
C36 C 0.4983 0.14919 0.19987 0.0
C37 C 0.57098 0.87571 0.21757 0.0
O38 O 0.51445 0.92885 0.23845 0.0
O39 O 0.59648 0.88618 0.16077 0.0
O40 O 0.32358 0.92608 0.17237 0.0
O41 O 0.42132 0.89678 0.09885 0.0
O42 O 0.54576 0.56727 0.1744 0.0
Cd43 Cd 0.65174 0.57669 0.11616 0.0
Cd44 Cd 0.68018 0.43906 0.16963 0.0
O45 O 0.54881 0.42499 0.18516 0.0
O46 O 0.61482 0.65322 0.04509 0.0
O47 O 0.62905 0.50798 0.03822 0.0
C48 C 0.60323 0.58134 0.01379 0.0
C49 C 0.78723 0.34886 0.12682 0.0
C50 C 0.51499 0.4983 0.19988 0.0
C51 C 0.78849 0.57096 0.21759 0.0
O52 O 0.73535 0.51442 0.23847 0.0
O53 O 0.77802 0.59646 0.16079 0.0
O54 O 0.73811 0.32357 0.17237 0.0
O55 O 0.76741 0.42131 0.09886 0.0
O56 O 0.09726 0.11857 0.2914 0.0
Cd57 Cd 0.08777 1.01251 0.34952 0.0
Cd58 Cd 0.22559 0.98398 0.29617 0.0
O59 O 0.23958 0.11529 0.28035 0.0
O60 O 1.01112 1.04944 0.4205 0.0
O61 O 0.15635 1.03511 0.42752 0.0
C62 C 0.08295 1.061 0.45187 0.0
C63 C 0.31559 0.87706 0.33947 0.0
C64 C 0.16622 0.14919 0.26584 0.0
C65 C 0.0936 0.87571 0.24807 0.0
O66 O 0.15056 0.92847 0.22729 0.0
O67 O 1.06776 0.88635 0.30478 0.0
O68 O 0.34124 0.9262 0.29402 0.0
O69 O 0.24288 0.89689 0.36707 0.0
O70 O 0.5456 0.0972 0.2914 0.0
Cd71 Cd 0.65169 0.08774 0.34951 0.0
Cd72 Cd 0.68021 0.22555 0.29616 0.0
O73 O 0.54889 0.23952 0.28034 0.0
O74 O 0.61479 1.01109 0.4205 0.0
O75 O 0.6291 0.15632 0.42751 0.0
C76 C 0.60324 0.08293 0.45186 0.0
C77 C 0.78712 0.31556 0.33947 0.0
C78 C 0.51499 0.16616 0.26583 0.0
C79 C 0.78849 0.09358 0.24805 0.0
O80 O 0.73573 0.15055 0.22728 0.0
O81 O 0.77784 1.06773 0.30476 0.0
O82 O 0.73798 0.34121 0.29403 0.0
O83 O 0.7673 0.24284 0.36706 0.0
O84 O 0.56703 0.54559 0.2914 0.0
Cd85 Cd 0.57654 0.65167 0.34951 0.0
Cd86 Cd 0.43872 0.68025 0.29616 0.0
O87 O 0.42471 0.54893 0.28036 0.0
O88 O 0.65317 0.61474 0.4205 0.0
O89 O 0.50795 0.62911 0.4275 0.0
C90 C 0.58133 0.60321 0.45186 0.0
C91 C 0.34877 0.78716 0.33945 0.0
C92 C 0.49805 0.515 0.26584 0.0
C93 C 0.57074 0.78846 0.24805 0.0
O94 O 0.51376 0.73571 0.22727 0.0
O95 O 0.59658 0.77781 0.30476 0.0
O96 O 0.32309 0.73805 0.29401 0.0
O97 O 0.42149 0.76734 0.36707 0.0
O98 O 0.11861 0.56698 0.2914 0.0
Cd99 Cd 1.01254 0.5765 0.34952 0.0
Cd100 Cd 0.98395 0.43869 0.29618 0.0
O101 O 0.11527 0.42466 0.28036 0.0
O102 O 1.04949 0.65314 0.4205 0.0
O103 O 1.03511 0.50792 0.42752 0.0
C104 C 1.06102 0.5813 0.45187 0.0
C105 C 0.87703 0.34874 0.33945 0.0
C106 C 0.1492 0.498 0.26585 0.0
C107 C 0.87574 0.57071 0.24807 0.0
O108 O 0.92849 0.51374 0.22729 0.0
O109 O 0.88639 0.59655 0.30478 0.0
O110 O 0.92614 0.32306 0.294 0.0
O111 O 0.89685 0.42144 0.36708 0.0
O112 O 1.06731 0.61849 0.79125 0.0
Cd113 Cd 1.07669 0.51251 0.84949 0.0
Cd114 Cd 0.93906 0.48412 0.79601 0.0
O115 O 0.92503 0.61549 0.78048 0.0
O116 O 0.15324 0.5494 0.92056 0.0
O117 O 1.00798 0.53522 0.92743 0.0
C118 C 1.08135 0.56101 0.95186 0.0
C119 C 0.8488 0.37708 0.83884 0.0
C120 C 0.99835 0.64928 0.76576 0.0
C121 C 1.07091 0.37576 0.74806 0.0
O122 O 1.01439 0.4289 0.72718 0.0
O123 O 0.09643 0.38623 0.80486 0.0
O124 O 0.82354 0.42623 0.7933 0.0
O125 O 0.92126 0.3969 0.86678 0.0
O126 O 1.0458 1.06726 0.79125 0.0
Cd127 Cd 0.15177 1.07665 0.8495 0.0
Cd128 Cd 0.18016 0.93902 0.79602 0.0
O129 O 1.0488 0.92498 0.78048 0.0
O130 O 0.11486 0.1532 0.92056 0.0
O131 O 0.12905 1.00795 0.92744 0.0
C132 C 0.10324 1.08132 0.95186 0.0
C133 C 0.28721 0.84876 0.83884 0.0
C134 C 1.015 0.99831 0.76577 0.0
C135 C 0.28853 1.07088 0.74808 0.0
O136 O 0.23538 1.01436 0.72719 0.0
O137 O 0.27806 0.09639 0.80488 0.0
O138 O 0.23806 0.82351 0.7933 0.0
O139 O 0.26739 0.92122 0.86679 0.0
O140 O 0.597 1.0458 0.79125 0.0
Cd141 Cd 0.58757 0.15176 0.84951 0.0
Cd142 Cd 0.72519 0.18021 0.79603 0.0
O143 O 0.73928 1.04884 0.7805 0.0
O144 O 0.51103 0.11482 0.92056 0.0
O145 O 0.65627 0.12906 0.92744 0.0
C146 C 0.58291 0.10322 0.95186 0.0
C147 C 0.81539 0.28726 0.83883 0.0
C148 C 0.66597 1.01503 0.76578 0.0
C149 C 0.59329 0.28851 0.74808 0.0
O150 O 0.64982 0.23537 0.72719 0.0
O151 O 0.56779 0.27804 0.80488 0.0
O152 O 0.84069 0.23814 0.79328 0.0
O153 O 0.74295 0.26744 0.8668 0.0
O154 O 0.61851 0.59695 0.79125 0.0
Cd155 Cd 0.51253 0.58753 0.84949 0.0
Cd156 Cd 0.48409 0.72516 0.79602 0.0
O157 O 0.61546 0.73923 0.78049 0.0
O158 O 0.54944 0.511 0.92056 0.0
O159 O 0.53522 0.65624 0.92743 0.0
C160 C 0.56104 0.58288 0.95186 0.0
C161 C 0.37704 0.81535 0.83883 0.0
C162 C 0.64928 0.66592 0.76577 0.0
C163 C 0.37578 0.59326 0.74806 0.0
O164 O 0.42892 0.6498 0.72718 0.0
O165 O 0.38625 0.56776 0.80486 0.0
O166 O 0.42616 0.84065 0.79328 0.0
O167 O 0.39686 0.74291 0.86679 0.0
O168 O 1.06701 1.04565 0.67425 0.0
Cd169 Cd 1.0765 0.15171 0.61613 0.0
Cd170 Cd 0.93868 0.18024 0.66947 0.0
O171 O 0.92469 1.04893 0.6853 0.0
O172 O 0.15315 0.11478 0.54514 0.0
O173 O 1.00792 0.12911 0.53813 0.0
C174 C 1.08132 0.10322 0.51378 0.0
C175 C 0.84868 0.28716 0.62618 0.0
C176 C 0.99805 1.01503 0.69981 0.0
C177 C 1.07067 0.28851 0.71758 0.0
O178 O 1.01371 0.23575 0.73836 0.0
O179 O 0.09651 0.27786 0.66087 0.0
O180 O 0.82303 0.23802 0.67162 0.0
O181 O 0.92139 0.26733 0.59858 0.0
O182 O 0.61867 1.06702 0.67425 0.0
Cd183 Cd 0.51258 1.07648 0.61614 0.0
Cd184 Cd 0.48406 0.93867 0.66949 0.0
O185 O 0.61538 0.9247 0.68531 0.0
O186 O 0.54948 0.15313 0.54515 0.0
O187 O 0.53516 1.0079 0.53814 0.0
C188 C 0.56103 1.08129 0.51379 0.0
C189 C 0.37715 0.84866 0.62618 0.0
C190 C 0.64928 0.99806 0.69982 0.0
C191 C 0.37578 1.07064 0.7176 0.0
O192 O 0.42854 1.01367 0.73837 0.0
O193 O 0.38643 0.09649 0.66089 0.0
O194 O 0.42629 0.82301 0.67162 0.0
O195 O 0.39697 0.92138 0.59859 0.0
O196 O 0.59724 0.61863 0.67425 0.0
Cd197 Cd 0.58773 0.51255 0.61614 0.0
Cd198 Cd 0.72555 0.48397 0.66949 0.0
O199 O 0.73956 0.61529 0.68529 0.0
O200 O 0.5111 0.54948 0.54514 0.0
O201 O 0.65632 0.53511 0.53815 0.0
C202 C 0.58294 0.56101 0.51379 0.0
C203 C 0.8155 0.37706 0.62619 0.0
C204 C 0.66622 0.64922 0.69981 0.0
C205 C 0.59353 0.37576 0.7176 0.0
O206 O 0.65051 0.42851 0.73837 0.0
O207 O 0.56769 0.38641 0.66089 0.0
O208 O 0.84118 0.42617 0.67164 0.0
O209 O 0.74278 0.39688 0.59858 0.0
O210 O 1.04566 0.59724 0.67425 0.0
Cd211 Cd 0.15173 0.58772 0.61613 0.0
Cd212 Cd 0.18032 0.72553 0.66947 0.0
O213 O 1.049 0.73956 0.68529 0.0
O214 O 0.11478 0.51108 0.54514 0.0
O215 O 0.12916 0.6563 0.53813 0.0
C216 C 0.10325 0.58292 0.51378 0.0
C217 C 0.28724 0.81548 0.6262 0.0
C218 C 1.01507 0.66622 0.6998 0.0
C219 C 0.28853 0.59351 0.71758 0.0
O220 O 0.23578 0.65048 0.73836 0.0
O221 O 0.27788 0.56767 0.66087 0.0
O222 O 0.23813 0.84116 0.67165 0.0
O223 O 0.26742 0.74277 0.59857 0.0
loop_
_geom_bond_atom_site_label_1
_geom_bond_atom_site_label_2
_geom_bond_distance
_geom_bond_site_symmetry_2
_ccdc_geom_bond_type
O0 Cd1 2.223 . S
O0 C8 1.315 . S
Cd1 O0 2.223 . S
Cd1 O4 2.297 . S
Cd1 O5 2.439 1_655 S
Cd1 O11 2.240 1_655 S
Cd2 O3 2.240 . S
Cd2 O10 2.223 . S
Cd2 O12 2.297 . S
Cd2 O13 2.439 . S
O3 Cd2 2.240 . S
O3 C8 1.279 1_455 S
O4 Cd1 2.297 . S
O4 C6 1.247 . S
O5 Cd1 2.439 1_455 S
O5 C6 1.208 1_455 S
C6 O4 1.247 . S
C6 O5 1.208 1_655 S
C7 O12 1.247 . S
C7 O13 1.208 . S
C8 O0 1.315 . S
C8 O3 1.279 1_655 S
C9 O10 1.315 1_655 S
C9 O11 1.279 1_655 S
O10 Cd2 2.223 . S
O10 C9 1.315 1_455 S
O11 Cd1 2.240 1_455 S
O11 C9 1.279 1_455 S
O12 Cd2 2.297 . S
O12 C7 1.247 . S
O13 Cd2 2.439 . S
O13 C7 1.208 . S
O14 Cd15 2.223 . S
O14 C22 1.315 . S
Cd15 O14 2.223 . S
Cd15 O18 2.297 . S
Cd15 O19 2.439 1_565 S
Cd15 O25 2.240 1_565 S
Cd16 O17 2.240 . S
Cd16 O24 2.223 . S
Cd16 O26 2.297 . S
Cd16 O27 2.439 . S
O17 Cd16 2.240 . S
O17 C22 1.279 1_545 S
O18 Cd15 2.297 . S
O18 C20 1.247 . S
O19 Cd15 2.439 1_545 S
O19 C20 1.208 1_545 S
C20 O18 1.247 . S
C20 O19 1.208 1_565 S
C21 O26 1.247 . S
C21 O27 1.208 . S
C22 O14 1.315 . S
C22 O17 1.279 1_565 S
C23 O24 1.315 1_565 S
C23 O25 1.279 1_565 S
O24 Cd16 2.223 . S
O24 C23 1.315 1_545 S
O25 Cd15 2.240 1_545 S
O25 C23 1.279 1_545 S
O26 Cd16 2.297 . S
O26 C21 1.247 . S
O27 Cd16 2.439 . S
O27 C21 1.208 . S
O28 Cd29 2.223 . S
O28 C36 1.315 . S
Cd29 O28 2.223 . S
Cd29 O32 2.297 . S
Cd29 O33 2.439 . S
Cd29 O39 2.240 . S
Cd30 O31 2.240 . S
Cd30 O38 2.223 . S
Cd30 O40 2.297 . S
Cd30 O41 2.439 . S
O31 Cd30 2.240 . S
O31 C36 1.279 . S
O32 Cd29 2.297 . S
O32 C34 1.247 . S
O33 Cd29 2.439 . S
O33 C34 1.208 . S
C34 O32 1.247 . S
C34 O33 1.208 . S
C35 O40 1.247 . S
C35 O41 1.208 . S
C36 O28 1.315 . S
C36 O31 1.279 . S
C37 O38 1.315 . S
C37 O39 1.279 . S
O38 Cd30 2.223 . S
O38 C37 1.315 . S
O39 Cd29 2.240 . S
O39 C37 1.279 . S
O40 Cd30 2.297 . S
O40 C35 1.247 . S
O41 Cd30 2.439 . S
O41 C35 1.208 . S
O42 Cd43 2.223 . S
O42 C50 1.315 . S
Cd43 O42 2.223 . S
Cd43 O46 2.297 . S
Cd43 O47 2.439 . S
Cd43 O53 2.240 . S
Cd44 O45 2.240 . S
Cd44 O52 2.223 . S
Cd44 O54 2.297 . S
Cd44 O55 2.439 . S
O45 Cd44 2.240 . S
O45 C50 1.279 . S
O46 Cd43 2.297 . S
O46 C48 1.247 . S
O47 Cd43 2.439 . S
O47 C48 1.208 . S
C48 O46 1.247 . S
C48 O47 1.208 . S
C49 O54 1.247 . S
C49 O55 1.208 . S
C50 O42 1.315 . S
C50 O45 1.279 . S
C51 O52 1.315 . S
C51 O53 1.279 . S
O52 Cd44 2.223 . S
O52 C51 1.315 . S
O53 Cd43 2.240 . S
O53 C51 1.279 . S
O54 Cd44 2.297 . S
O54 C49 1.247 . S
O55 Cd44 2.439 . S
O55 C49 1.208 . S
O56 Cd57 2.223 . S
O56 C64 1.315 . S
Cd57 O56 2.223 . S
Cd57 O60 2.297 . S
Cd57 O61 2.439 1_655 S
Cd57 O67 2.240 1_655 S
Cd58 O59 2.240 . S
Cd58 O66 2.223 . S
Cd58 O68 2.297 . S
Cd58 O69 2.439 . S
O59 Cd58 2.240 . S
O59 C64 1.279 1_455 S
O60 Cd57 2.297 . S
O60 C62 1.247 . S
O61 Cd57 2.439 1_455 S
O61 C62 1.208 1_455 S
C62 O60 1.247 . S
C62 O61 1.208 1_655 S
C63 O68 1.247 . S
C63 O69 1.208 . S
C64 O56 1.315 . S
C64 O59 1.279 1_655 S
C65 O66 1.315 1_655 S
C65 O67 1.279 1_655 S
O66 Cd58 2.223 . S
O66 C65 1.315 1_455 S
O67 Cd57 2.240 1_455 S
O67 C65 1.279 1_455 S
O68 Cd58 2.297 . S
O68 C63 1.247 . S
O69 Cd58 2.439 . S
O69 C63 1.208 . S
O70 Cd71 2.223 . S
O70 C78 1.315 . S
Cd71 O70 2.223 . S
Cd71 O74 2.297 . S
Cd71 O75 2.439 1_565 S
Cd71 O81 2.240 1_565 S
Cd72 O73 2.240 . S
Cd72 O80 2.223 . S
Cd72 O82 2.297 . S
Cd72 O83 2.439 . S
O73 Cd72 2.240 . S
O73 C78 1.279 1_545 S
O74 Cd71 2.297 . S
O74 C76 1.247 . S
O75 Cd71 2.439 1_545 S
O75 C76 1.208 1_545 S
C76 O74 1.247 . S
C76 O75 1.208 1_565 S
C77 O82 1.247 . S
C77 O83 1.208 . S
C78 O70 1.315 . S
C78 O73 1.279 1_565 S
C79 O80 1.315 1_565 S
C79 O81 1.279 1_565 S
O80 Cd72 2.223 . S
O80 C79 1.315 1_545 S
O81 Cd71 2.240 1_545 S
O81 C79 1.279 1_545 S
O82 Cd72 2.297 . S
O82 C77 1.247 . S
O83 Cd72 2.439 . S
O83 C77 1.208 . S
O84 Cd85 2.223 . S
O84 C92 1.315 . S
Cd85 O84 2.223 . S
Cd85 O88 2.297 . S
Cd85 O89 2.439 . S
Cd85 O95 2.240 . S
Cd86 O87 2.240 . S
Cd86 O94 2.223 . S
Cd86 O96 2.297 . S
Cd86 O97 2.439 . S
O87 Cd86 2.240 . S
O87 C92 1.279 . S
O88 Cd85 2.297 . S
O88 C90 1.247 . S
O89 Cd85 2.439 . S
O89 C90 1.208 . S
C90 O88 1.247 . S
C90 O89 1.208 . S
C91 O96 1.247 . S
C91 O97 1.208 . S
C92 O84 1.315 . S
C92 O87 1.279 . S
C93 O94 1.315 . S
C93 O95 1.279 . S
O94 Cd86 2.223 . S
O94 C93 1.315 . S
O95 Cd85 2.240 . S
O95 C93 1.279 . S
O96 Cd86 2.297 . S
O96 C91 1.247 . S
O97 Cd86 2.439 . S
O97 C91 1.208 . S
O98 Cd99 2.223 . S
O98 C106 1.315 . S
Cd99 O98 2.223 . S
Cd99 O102 2.297 . S
Cd99 O103 2.439 . S
Cd99 O109 2.240 . S
Cd100 O101 2.240 . S
Cd100 O108 2.223 . S
Cd100 O110 2.297 . S
Cd100 O111 2.439 . S
O101 Cd100 2.240 . S
O101 C106 1.279 . S
O102 Cd99 2.297 . S
O102 C104 1.247 . S
O103 Cd99 2.439 . S
O103 C104 1.208 . S
C104 O102 1.247 . S
C104 O103 1.208 . S
C105 O110 1.247 . S
C105 O111 1.208 . S
C106 O98 1.315 . S
C106 O101 1.279 . S
C107 O108 1.315 . S
C107 O109 1.279 . S
O108 Cd100 2.223 . S
O108 C107 1.315 . S
O109 Cd99 2.240 . S
O109 C107 1.279 . S
O110 Cd100 2.297 . S
O110 C105 1.247 . S
O111 Cd100 2.439 . S
O111 C105 1.208 . S
O112 Cd113 2.223 . S
O112 C120 1.315 . S
Cd113 O112 2.223 . S
Cd113 O116 2.297 . S
Cd113 O117 2.439 1_455 S
Cd113 O123 2.240 1_455 S
Cd114 O115 2.240 . S
Cd114 O122 2.223 . S
Cd114 O124 2.297 . S
Cd114 O125 2.439 . S
O115 Cd114 2.240 . S
O115 C120 1.279 1_655 S
O116 Cd113 2.297 . S
O116 C118 1.247 . S
O117 Cd113 2.439 1_655 S
O117 C118 1.208 1_655 S
C118 O116 1.247 . S
C118 O117 1.208 1_455 S
C119 O124 1.247 . S
C119 O125 1.208 . S
C120 O112 1.315 . S
C120 O115 1.279 1_455 S
C121 O122 1.315 1_455 S
C121 O123 1.279 1_455 S
O122 Cd114 2.223 . S
O122 C121 1.315 1_655 S
O123 Cd113 2.240 1_655 S
O123 C121 1.279 1_655 S
O124 Cd114 2.297 . S
O124 C119 1.247 . S
O125 Cd114 2.439 . S
O125 C119 1.208 . S
O126 Cd127 2.223 . S
O126 C134 1.315 . S
Cd127 O126 2.223 . S
Cd127 O130 2.297 . S
Cd127 O131 2.439 1_545 S
Cd127 O137 2.240 1_545 S
Cd128 O129 2.240 . S
Cd128 O136 2.223 . S
Cd128 O138 2.297 . S
Cd128 O139 2.439 . S
O129 Cd128 2.240 . S
O129 C134 1.279 1_565 S
O130 Cd127 2.297 . S
O130 C132 1.247 . S
O131 Cd127 2.439 1_565 S
O131 C132 1.208 1_565 S
C132 O130 1.247 . S
C132 O131 1.208 1_545 S
C133 O138 1.247 . S
C133 O139 1.208 . S
C134 O126 1.315 . S
C134 O129 1.279 1_545 S
C135 O136 1.315 1_545 S
C135 O137 1.279 1_545 S
O136 Cd128 2.223 . S
O136 C135 1.315 1_565 S
O137 Cd127 2.240 1_565 S
O137 C135 1.279 1_565 S
O138 Cd128 2.297 . S
O138 C133 1.247 . S
O139 Cd128 2.439 . S
O139 C133 1.208 . S
O140 Cd141 2.223 . S
O140 C148 1.315 . S
Cd141 O140 2.223 . S
Cd141 O144 2.297 . S
Cd141 O145 2.439 . S
Cd141 O151 2.240 . S
Cd142 O143 2.240 . S
Cd142 O150 2.223 . S
Cd142 O152 2.297 . S
Cd142 O153 2.439 . S
O143 Cd142 2.240 . S
O143 C148 1.279 . S
O144 Cd141 2.297 . S
O144 C146 1.247 . S
O145 Cd141 2.439 . S
O145 C146 1.208 . S
C146 O144 1.247 . S
C146 O145 1.208 . S
C147 O152 1.247 . S
C147 O153 1.208 . S
C148 O140 1.315 . S
C148 O143 1.279 . S
C149 O150 1.315 . S
C149 O151 1.279 . S
O150 Cd142 2.223 . S
O150 C149 1.315 . S
O151 Cd141 2.240 . S
O151 C149 1.279 . S
O152 Cd142 2.297 . S
O152 C147 1.247 . S
O153 Cd142 2.439 . S
O153 C147 1.208 . S
O154 Cd155 2.223 . S
O154 C162 1.315 . S
Cd155 O154 2.223 . S
Cd155 O158 2.297 . S
Cd155 O159 2.439 . S
Cd155 O165 2.240 . S
Cd156 O157 2.240 . S
Cd156 O164 2.223 . S
Cd156 O166 2.297 . S
Cd156 O167 2.439 . S
O157 Cd156 2.240 . S
O157 C162 1.279 . S
O158 Cd155 2.297 . S
O158 C160 1.247 . S
O159 Cd155 2.439 . S
O159 C160 1.208 . S
C160 O158 1.247 . S
C160 O159 1.208 . S
C161 O166 1.247 . S
C161 O167 1.208 . S
C162 O154 1.315 . S
C162 O157 1.279 . S
C163 O164 1.315 . S
C163 O165 1.279 . S
O164 Cd156 2.223 . S
O164 C163 1.315 . S
O165 Cd155 2.240 . S
O165 C163 1.279 . S
O166 Cd156 2.297 . S
O166 C161 1.247 . S
O167 Cd156 2.439 . S
O167 C161 1.208 . S
O168 Cd169 2.223 . S
O168 C176 1.315 . S
Cd169 O168 2.223 . S
Cd169 O172 2.297 . S
Cd169 O173 2.439 1_455 S
Cd169 O179 2.240 1_455 S
Cd170 O171 2.240 . S
Cd170 O178 2.223 . S
Cd170 O180 2.297 . S
Cd170 O181 2.439 . S
O171 Cd170 2.240 . S
O171 C176 1.279 1_655 S
O172 Cd169 2.297 . S
O172 C174 1.247 . S
O173 Cd169 2.439 1_655 S
O173 C174 1.208 1_655 S
C174 O172 1.247 . S
C174 O173 1.208 1_455 S
C175 O180 1.247 . S
C175 O181 1.208 . S
C176 O168 1.315 . S
C176 O171 1.279 1_455 S
C177 O178 1.315 1_455 S
C177 O179 1.279 1_455 S
O178 Cd170 2.223 . S
O178 C177 1.315 1_655 S
O179 Cd169 2.240 1_655 S
O179 C177 1.279 1_655 S
O180 Cd170 2.297 . S
O180 C175 1.247 . S
O181 Cd170 2.439 . S
O181 C175 1.208 . S
O182 Cd183 2.223 . S
O182 C190 1.315 . S
Cd183 O182 2.223 . S
Cd183 O186 2.297 . S
Cd183 O187 2.439 1_545 S
Cd183 O193 2.240 1_545 S
Cd184 O185 2.240 . S
Cd184 O192 2.223 . S
Cd184 O194 2.297 . S
Cd184 O195 2.439 . S
O185 Cd184 2.240 . S
O185 C190 1.279 1_565 S
O186 Cd183 2.297 . S
O186 C188 1.247 . S
O187 Cd183 2.439 1_565 S
O187 C188 1.208 1_565 S
C188 O186 1.247 . S
C188 O187 1.208 1_545 S
C189 O194 1.247 . S
C189 O195 1.208 . S
C190 O182 1.315 . S
C190 O185 1.279 1_545 S
C191 O192 1.315 1_545 S
C191 O193 1.279 1_545 S
O192 Cd184 2.223 . S
O192 C191 1.315 1_565 S
O193 Cd183 2.240 1_565 S
O193 C191 1.279 1_565 S
O194 Cd184 2.297 . S
O194 C189 1.247 . S
O195 Cd184 2.439 . S
O195 C189 1.208 . S
O196 Cd197 2.223 . S
O196 C204 1.315 . S
Cd197 O196 2.223 . S
Cd197 O200 2.297 . S
Cd197 O201 2.439 . S
Cd197 O207 2.240 . S
Cd198 O199 2.240 . S
Cd198 O206 2.223 . S
Cd198 O208 2.297 . S
Cd198 O209 2.439 . S
O199 Cd198 2.240 . S
O199 C204 1.279 . S
O200 Cd197 2.297 . S
O200 C202 1.247 . S
O201 Cd197 2.439 . S
O201 C202 1.208 . S
C202 O200 1.247 . S
C202 O201 1.208 . S
C203 O208 1.247 . S
C203 O209 1.208 . S
C204 O196 1.315 . S
C204 O199 1.279 . S
C205 O206 1.315 . S
C205 O207 1.279 . S
O206 Cd198 2.223 . S
O206 C205 1.315 . S
O207 Cd197 2.240 . S
O207 C205 1.279 . S
O208 Cd198 2.297 . S
O208 C203 1.247 . S
O209 Cd198 2.439 . S
O209 C203 1.208 . S
O210 Cd211 2.223 . S
O210 C218 1.315 . S
Cd211 O210 2.223 . S
Cd211 O214 2.297 . S
Cd211 O215 2.439 . S
Cd211 O221 2.240 . S
Cd212 O213 2.240 . S
Cd212 O220 2.223 . S
Cd212 O222 2.297 . S
Cd212 O223 2.439 . S
O213 Cd212 2.240 . S
O213 C218 1.279 . S
O214 Cd211 2.297 . S
O214 C216 1.247 . S
O215 Cd211 2.439 . S
O215 C216 1.208 . S
C216 O214 1.247 . S
C216 O215 1.208 . S
C217 O222 1.247 . S
C217 O223 1.208 . S
C218 O210 1.315 . S
C218 O213 1.279 . S
C219 O220 1.315 . S
C219 O221 1.279 . S
O220 Cd212 2.223 . S
O220 C219 1.315 . S
O221 Cd211 2.240 . S
O221 C219 1.279 . S
O222 Cd212 2.297 . S
O222 C217 1.247 . S
O223 Cd212 2.439 . S
O223 C217 1.208 . S
C7 C35 1.485 . S
C21 C49 1.485 . S
C63 C91 1.485 . S
C105 C77 1.485 . S
C119 C147 1.485 . S
C161 C133 1.485 . S
C203 C175 1.485 . S
C217 C189 1.485 . S
C106 C8 1.797 . S
C22 C64 1.797 . S
C78 C36 1.797 . S
C50 C92 1.797 . S
C218 C120 1.797 . S
C134 C176 1.797 . S
C148 C190 1.797 . S
C204 C162 1.797 . S
C9 C65 1.731 . S
C23 C79 1.731 . S
C93 C37 1.731 . S
C51 C107 1.731 . S
C177 C121 1.731 . S
C191 C135 1.731 . S
C149 C205 1.731 . S
C163 C219 1.731 . S
C6 C118 3.044 1_654 S
C132 C20 3.044 1_446 S
C34 C146 3.044 1_564 S
C160 C48 3.044 1_556 S
C62 C174 3.044 1_665 S
C76 C188 3.044 1_565 S
C202 C90 3.044 . S
C104 C216 3.044 1_655 S
