# Generated by pormake.
# Topology wji, (4)-cn, num edge types: 1
# Building blocks:
#     Node 0, Type 0, BuildingBlock: GALJAG_clean_sbu_0, # of connection points: 4
#     Node 1, Type 0, BuildingBlock: GALJAG_clean_sbu_0, # of connection points: 4
#     Node 2, Type 0, BuildingBlock: GALJAG_clean_sbu_0, # of connection points: 4
#     Node 3, Type 0, BuildingBlock: GALJAG_clean_sbu_0, # of connection points: 4
#     Node 4, Type 0, BuildingBlock: GALJAG_clean_sbu_0, # of connection points: 4
#     Node 5, Type 0, BuildingBlock: GALJAG_clean_sbu_0, # of connection points: 4
#     Node 6, Type 0, BuildingBlock: GALJAG_clean_sbu_0, # of connection points: 4
#     Node 7, Type 0, BuildingBlock: GALJAG_clean_sbu_0, # of connection points: 4
#     Node 8, Type 0, BuildingBlock: GALJAG_clean_sbu_0, # of connection points: 4
#     Node 9, Type 0, BuildingBlock: GALJAG_clean_sbu_0, # of connection points: 4
#     Node 10, Type 0, BuildingBlock: GALJAG_clean_sbu_0, # of connection points: 4
#     Node 11, Type 0, BuildingBlock: GALJAG_clean_sbu_0, # of connection points: 4
#     Edge 12, Type (0, 0), None
#     Edge 13, Type (0, 0), None
#     Edge 14, Type (0, 0), None
#     Edge 15, Type (0, 0), None
#     Edge 16, Type (0, 0), None
#     Edge 17, Type (0, 0), None
#     Edge 18, Type (0, 0), None
#     Edge 19, Type (0, 0), None
#     Edge 20, Type (0, 0), None
#     Edge 21, Type (0, 0), None
#     Edge 22, Type (0, 0), None
#     Edge 23, Type (0, 0), None
#     Edge 24, Type (0, 0), None
#     Edge 25, Type (0, 0), None
#     Edge 26, Type (0, 0), None
#     Edge 27, Type (0, 0), None
#     Edge 28, Type (0, 0), None
#     Edge 29, Type (0, 0), None
#     Edge 30, Type (0, 0), None
#     Edge 31, Type (0, 0), None
#     Edge 32, Type (0, 0), None
#     Edge 33, Type (0, 0), None
#     Edge 34, Type (0, 0), None
#     Edge 35, Type (0, 0), None
# Relax obj value: 0.240
# Max RMSD: 0.173
# Mean RMSD: 0.173
data_MOF--net-wji--node1-GALJAG_clean_sbu_0--edge1-none
_symmetry_space_group_name_H-M    P1
_symmetry_Int_Tables_number       1
_symmetry_cell_setting            triclinic
loop_
_symmetry_equiv_pos_as_xyz
'x, y, z'
_cell_length_a     25.563846
_cell_length_b     25.563453
_cell_length_c     10.877009
_cell_angle_alpha  90.003842
_cell_angle_beta   89.99123
_cell_angle_gamma 119.99563
loop_
_atom_site_label
_atom_site_type_symbol
_atom_site_fract_x
_atom_site_fract_y
_atom_site_fract_z
_atom_type_partial_charge
In0 In 0.37855 0.30133 0.43684 0.0
O1 O 0.3731 0.2076 0.44438 0.0
O2 O 0.38534 0.25515 0.61139 0.0
C3 C 0.31533 0.30517 0.23431 0.0
C4 C 0.333 0.32715 0.62408 0.0
C5 C 0.49061 0.39915 0.42674 0.0
O6 O 0.3543 0.28834 0.22735 0.0
O7 O 0.3046 0.31415 0.34252 0.0
O8 O 0.44228 0.40043 0.42981 0.0
O9 O 0.48408 0.3469 0.41753 0.0
C10 C 0.37887 0.20846 0.56068 0.0
O11 O 0.384 0.363 0.5792 0.0
O12 O 0.30132 0.27709 0.56973 0.0
In13 In 0.05602 0.38916 0.60351 0.0
O14 O 0.1443 0.38371 0.61104 0.0
O15 O 0.10899 0.39596 0.77806 0.0
C16 C -0.01104 0.32593 0.40098 0.0
C17 C -0.01535 0.34362 0.79075 0.0
C18 C 0.07025 0.50123 0.5934 0.0
O19 O 0.04476 0.3649 0.39402 0.0
O20 O -0.03074 0.31522 0.50919 0.0
O21 O 0.02065 0.4529 0.59648 0.0
O22 O 0.11596 0.49469 0.5842 0.0
C23 C 0.1492 0.38948 0.72735 0.0
O24 O -0.0002 0.39462 0.74589 0.0
O25 O 0.00303 0.31193 0.73638 0.0
In26 In 0.64564 0.06662 0.77031 0.0
O27 O 0.73938 0.15486 0.7778 0.0
O28 O 0.69181 0.11964 0.94483 0.0
C29 C 0.64179 -0.00047 0.5678 0.0
C30 C 0.61982 -0.00471 0.9576 0.0
C31 C 0.54781 0.08086 0.76013 0.0
O32 O 0.65865 0.05534 0.56084 0.0
O33 O 0.63277 -0.02017 0.67601 0.0
O34 O 0.54653 0.03126 0.76319 0.0
O35 O 0.60006 0.12658 0.75099 0.0
C36 C 0.73852 0.1598 0.8941 0.0
O37 O 0.58399 0.01048 0.91279 0.0
O38 O 0.66985 0.01361 0.90316 0.0
In39 In 0.55779 0.65624 0.93699 0.0
O40 O 0.55231 0.59458 0.07941 0.0
O41 O 0.63502 0.68046 0.06984 0.0
C42 C 0.44573 0.55841 0.9268 0.0
C43 C 0.55748 0.74911 0.0608 0.0
C44 C 0.62103 0.65239 0.73445 0.0
O45 O 0.49406 0.55713 0.92987 0.0
O46 O 0.45227 0.61067 0.91764 0.0
O47 O 0.58208 0.66925 0.72751 0.0
O48 O 0.63172 0.64337 0.84266 0.0
C49 C 0.60331 0.63042 0.12425 0.0
O50 O 0.56334 0.75 0.94452 0.0
O51 O 0.55088 0.70237 0.11151 0.0
In52 In 0.88036 0.56842 0.1036 0.0
O53 O 0.79212 0.57393 0.11114 0.0
O54 O 0.82733 0.56155 0.27813 0.0
C55 C 0.94742 0.63165 0.90106 0.0
C56 C 0.9517 0.61396 0.29084 0.0
C57 C 0.86613 0.45636 0.09345 0.0
O58 O 0.89163 0.59269 0.89411 0.0
O59 O 0.96713 0.64236 1.00926 0.0
O60 O 0.91573 0.50468 0.0965 0.0
O61 O 0.82041 0.46289 0.08427 0.0
C62 C 0.78717 0.5681 0.22742 0.0
O63 O 0.93656 0.56296 0.24597 0.0
O64 O 0.93334 0.64565 0.23647 0.0
In65 In 0.29072 0.89098 0.27025 0.0
O66 O 0.35238 0.94716 0.41264 0.0
O67 O 0.26649 0.94398 0.40313 0.0
C68 C 0.38855 0.87674 0.26012 0.0
C69 C 0.19784 0.79779 0.39405 0.0
C70 C 0.29456 0.95805 0.06772 0.0
O71 O 0.38982 0.92634 0.26316 0.0
O72 O 0.3363 0.83102 0.25095 0.0
O73 O 0.27773 0.90225 0.06076 0.0
O74 O 0.30355 0.97775 0.17593 0.0
C75 C 0.31653 0.96233 0.4575 0.0
O76 O 0.19699 0.80272 0.27776 0.0
O77 O 0.24453 0.83798 0.44478 0.0
In78 In 0.64556 0.56832 0.42376 0.0
O79 O 0.58408 0.56277 0.28091 0.0
O80 O 0.66988 0.64554 0.29077 0.0
C81 C 0.54775 0.45631 0.43447 0.0
C82 C 0.73842 0.56801 0.29999 0.0
C83 C 0.64161 0.63164 0.626 0.0
O84 O 0.54647 0.50462 0.43087 0.0
O85 O 0.6 0.46285 0.44402 0.0
O86 O 0.65868 0.59285 0.6331 0.0
O87 O 0.63241 0.64214 0.51778 0.0
C88 C 0.61994 0.61377 0.2361 0.0
O89 O 0.73963 0.57458 0.41611 0.0
O90 O 0.69132 0.56056 0.24948 0.0
In91 In 0.05602 0.65618 0.59037 0.0
O92 O 0.00013 0.59472 0.44747 0.0
O93 O 0.00313 0.68051 0.4574 0.0
C94 C 0.07024 0.55837 0.60111 0.0
C95 C 0.1492 0.74904 0.4666 0.0
C96 C -0.01124 0.65223 0.7926 0.0
O97 O 0.02064 0.55709 0.59745 0.0
O98 O 0.11593 0.61062 0.61069 0.0
O99 O 0.04461 0.66932 0.7997 0.0
O100 O -0.03094 0.64302 0.68438 0.0
C101 C -0.01502 0.63058 0.40268 0.0
O102 O 0.1438 0.75027 0.58271 0.0
O103 O 0.10957 0.70192 0.41611 0.0
In104 In 0.37864 0.06665 0.75705 0.0
O105 O 0.38419 0.01073 0.61416 0.0
O106 O 0.30142 0.01378 0.62408 0.0
C107 C 0.49065 0.08085 0.7678 0.0
C108 C 0.37897 0.15982 0.63325 0.0
C109 C 0.31532 -0.00062 0.95927 0.0
O110 O 0.44234 0.03126 0.76405 0.0
O111 O 0.4841 0.12655 0.77747 0.0
O112 O 0.35408 0.05524 0.96639 0.0
O113 O 0.30484 -0.02032 0.85104 0.0
C114 C 0.33319 -0.0044 0.56936 0.0
O115 O 0.3723 0.15441 0.74935 0.0
O116 O 0.38653 0.12022 0.58279 0.0
In117 In 0.29079 0.38925 0.92368 0.0
O118 O 0.35224 0.39481 0.78075 0.0
O119 O 0.26645 0.31203 0.79069 0.0
C120 C 0.38859 0.50126 0.93446 0.0
C121 C 0.19794 0.38958 0.7999 0.0
C122 C 0.29475 0.32593 0.12587 0.0
O123 O 0.38987 0.45294 0.93071 0.0
O124 O 0.33635 0.49472 0.94413 0.0
O125 O 0.27764 0.36469 0.13301 0.0
O126 O 0.30398 0.31546 0.01764 0.0
C127 C 0.31638 0.34381 0.73595 0.0
O128 O 0.19668 0.38291 0.91601 0.0
O129 O 0.2451 0.39714 0.74944 0.0
In130 In 0.88035 0.3014 0.09036 0.0
O131 O 0.93623 0.36286 0.94742 0.0
O132 O 0.93324 0.27707 0.95735 0.0
C133 C 0.86614 0.39921 0.10114 0.0
C134 C 0.78717 0.20854 0.96663 0.0
C135 C 0.94763 0.30535 0.29254 0.0
O136 O 0.91574 0.40049 0.09745 0.0
O137 O 0.82044 0.34697 0.11074 0.0
O138 O 0.89177 0.28826 0.29969 0.0
O139 O 0.96732 0.31457 0.18431 0.0
C140 C 0.95138 0.327 0.90262 0.0
O141 O 0.79256 0.20732 0.08274 0.0
O142 O 0.8268 0.25566 0.91612 0.0
In143 In 0.55772 0.89095 0.25713 0.0
O144 O 0.55217 0.94689 0.1143 0.0
O145 O 0.63493 0.94383 0.12411 0.0
C146 C 0.4457 0.87674 0.26784 0.0
C147 C 0.5574 0.79777 0.13336 0.0
C148 C 0.62104 0.9582 0.45935 0.0
O149 O 0.49402 0.92634 0.26422 0.0
O150 O 0.45225 0.83104 0.27742 0.0
O151 O 0.58225 0.90235 0.46647 0.0
O152 O 0.63154 0.9779 0.35112 0.0
C153 C 0.60317 0.96201 0.06946 0.0
O154 O 0.56395 0.80312 0.24949 0.0
O155 O 0.54998 0.83744 0.08285 0.0
loop_
_geom_bond_atom_site_label_1
_geom_bond_atom_site_label_2
_geom_bond_distance
_geom_bond_site_symmetry_2
_ccdc_geom_bond_type
In0 O1 2.294 . S
In0 O2 2.326 . S
In0 O6 2.266 . S
In0 O7 2.326 . S
In0 O8 2.266 . S
In0 O9 2.326 . S
In0 O11 2.294 . S
In0 O12 2.326 . S
O1 In0 2.294 . S
O1 C10 1.240 . S
O2 In0 2.326 . S
O2 C10 1.252 . S
C3 O6 1.252 . S
C3 O7 1.260 . S
C4 O11 1.240 . S
C4 O12 1.252 . S
C5 O8 1.252 . S
C5 O9 1.260 . S
O6 In0 2.266 . S
O6 C3 1.252 . S
O7 In0 2.326 . S
O7 C3 1.260 . S
O8 In0 2.266 . S
O8 C5 1.252 . S
O9 In0 2.326 . S
O9 C5 1.260 . S
C10 O1 1.240 . S
C10 O2 1.252 . S
O11 In0 2.294 . S
O11 C4 1.240 . S
O12 In0 2.326 . S
O12 C4 1.252 . S
In13 O14 2.294 . S
In13 O15 2.326 . S
In13 O19 2.266 . S
In13 O20 2.326 . S
In13 O21 2.266 . S
In13 O22 2.326 . S
In13 O24 2.294 . S
In13 O25 2.326 . S
O14 In13 2.294 . S
O14 C23 1.240 . S
O15 In13 2.326 . S
O15 C23 1.252 . S
C16 O19 1.252 . S
C16 O20 1.260 . S
C17 O24 1.240 . S
C17 O25 1.252 . S
C18 O21 1.252 . S
C18 O22 1.260 . S
O19 In13 2.266 . S
O19 C16 1.252 . S
O20 In13 2.326 . S
O20 C16 1.260 . S
O21 In13 2.266 . S
O21 C18 1.252 . S
O22 In13 2.326 . S
O22 C18 1.260 . S
C23 O14 1.240 . S
C23 O15 1.252 . S
O24 In13 2.294 . S
O24 C17 1.240 . S
O25 In13 2.326 . S
O25 C17 1.252 . S
In26 O27 2.294 . S
In26 O28 2.326 . S
In26 O32 2.266 . S
In26 O33 2.326 . S
In26 O34 2.266 . S
In26 O35 2.326 . S
In26 O37 2.294 . S
In26 O38 2.326 . S
O27 In26 2.294 . S
O27 C36 1.240 . S
O28 In26 2.326 . S
O28 C36 1.252 . S
C29 O32 1.252 . S
C29 O33 1.260 . S
C30 O37 1.240 . S
C30 O38 1.252 . S
C31 O34 1.252 . S
C31 O35 1.260 . S
O32 In26 2.266 . S
O32 C29 1.252 . S
O33 In26 2.326 . S
O33 C29 1.260 . S
O34 In26 2.266 . S
O34 C31 1.252 . S
O35 In26 2.326 . S
O35 C31 1.260 . S
C36 O27 1.240 . S
C36 O28 1.252 . S
O37 In26 2.294 . S
O37 C30 1.240 . S
O38 In26 2.326 . S
O38 C30 1.252 . S
In39 O40 2.294 1_556 S
In39 O41 2.326 1_556 S
In39 O45 2.266 . S
In39 O46 2.326 . S
In39 O47 2.266 . S
In39 O48 2.326 . S
In39 O50 2.294 . S
In39 O51 2.326 1_556 S
O40 In39 2.294 1_554 S
O40 C49 1.240 . S
O41 In39 2.326 1_554 S
O41 C49 1.252 . S
C42 O45 1.252 . S
C42 O46 1.260 . S
C43 O50 1.240 1_554 S
C43 O51 1.252 . S
C44 O47 1.252 . S
C44 O48 1.260 . S
O45 In39 2.266 . S
O45 C42 1.252 . S
O46 In39 2.326 . S
O46 C42 1.260 . S
O47 In39 2.266 . S
O47 C44 1.252 . S
O48 In39 2.326 . S
O48 C44 1.260 . S
C49 O40 1.240 . S
C49 O41 1.252 . S
O50 In39 2.294 . S
O50 C43 1.240 1_556 S
O51 In39 2.326 1_554 S
O51 C43 1.252 . S
In52 O53 2.294 . S
In52 O54 2.326 . S
In52 O58 2.266 1_554 S
In52 O59 2.326 1_554 S
In52 O60 2.266 . S
In52 O61 2.326 1_554 S
In52 O63 2.294 . S
In52 O64 2.326 . S
O53 In52 2.294 . S
O53 C62 1.240 . S
O54 In52 2.326 . S
O54 C62 1.252 . S
C55 O58 1.252 . S
C55 O59 1.260 . S
C56 O63 1.240 . S
C56 O64 1.252 . S
C57 O60 1.252 . S
C57 O61 1.260 1_554 S
O58 In52 2.266 1_556 S
O58 C55 1.252 . S
O59 In52 2.326 1_556 S
O59 C55 1.260 . S
O60 In52 2.266 . S
O60 C57 1.252 . S
O61 In52 2.326 1_556 S
O61 C57 1.260 1_556 S
C62 O53 1.240 . S
C62 O54 1.252 . S
O63 In52 2.294 . S
O63 C56 1.240 . S
O64 In52 2.326 . S
O64 C56 1.252 . S
In65 O66 2.294 . S
In65 O67 2.326 . S
In65 O71 2.266 . S
In65 O72 2.326 . S
In65 O73 2.266 . S
In65 O74 2.326 . S
In65 O76 2.294 . S
In65 O77 2.326 . S
O66 In65 2.294 . S
O66 C75 1.240 . S
O67 In65 2.326 . S
O67 C75 1.252 . S
C68 O71 1.252 . S
C68 O72 1.260 . S
C69 O76 1.240 . S
C69 O77 1.252 . S
C70 O73 1.252 . S
C70 O74 1.260 . S
O71 In65 2.266 . S
O71 C68 1.252 . S
O72 In65 2.326 . S
O72 C68 1.260 . S
O73 In65 2.266 . S
O73 C70 1.252 . S
O74 In65 2.326 . S
O74 C70 1.260 . S
C75 O66 1.240 . S
C75 O67 1.252 . S
O76 In65 2.294 . S
O76 C69 1.240 . S
O77 In65 2.326 . S
O77 C69 1.252 . S
In78 O79 2.294 . S
In78 O80 2.326 . S
In78 O84 2.266 . S
In78 O85 2.326 . S
In78 O86 2.266 . S
In78 O87 2.326 . S
In78 O89 2.294 . S
In78 O90 2.326 . S
O79 In78 2.294 . S
O79 C88 1.240 . S
O80 In78 2.326 . S
O80 C88 1.252 . S
C81 O84 1.252 . S
C81 O85 1.260 . S
C82 O89 1.240 . S
C82 O90 1.252 . S
C83 O86 1.252 . S
C83 O87 1.260 . S
O84 In78 2.266 . S
O84 C81 1.252 . S
O85 In78 2.326 . S
O85 C81 1.260 . S
O86 In78 2.266 . S
O86 C83 1.252 . S
O87 In78 2.326 . S
O87 C83 1.260 . S
C88 O79 1.240 . S
C88 O80 1.252 . S
O89 In78 2.294 . S
O89 C82 1.240 . S
O90 In78 2.326 . S
O90 C82 1.252 . S
In91 O92 2.294 . S
In91 O93 2.326 . S
In91 O97 2.266 . S
In91 O98 2.326 . S
In91 O99 2.266 . S
In91 O100 2.326 . S
In91 O102 2.294 . S
In91 O103 2.326 . S
O92 In91 2.294 . S
O92 C101 1.240 . S
O93 In91 2.326 . S
O93 C101 1.252 . S
C94 O97 1.252 . S
C94 O98 1.260 . S
C95 O102 1.240 . S
C95 O103 1.252 . S
C96 O99 1.252 . S
C96 O100 1.260 . S
O97 In91 2.266 . S
O97 C94 1.252 . S
O98 In91 2.326 . S
O98 C94 1.260 . S
O99 In91 2.266 . S
O99 C96 1.252 . S
O100 In91 2.326 . S
O100 C96 1.260 . S
C101 O92 1.240 . S
C101 O93 1.252 . S
O102 In91 2.294 . S
O102 C95 1.240 . S
O103 In91 2.326 . S
O103 C95 1.252 . S
In104 O105 2.294 . S
In104 O106 2.326 . S
In104 O110 2.266 . S
In104 O111 2.326 . S
In104 O112 2.266 . S
In104 O113 2.326 . S
In104 O115 2.294 . S
In104 O116 2.326 . S
O105 In104 2.294 . S
O105 C114 1.240 . S
O106 In104 2.326 . S
O106 C114 1.252 . S
C107 O110 1.252 . S
C107 O111 1.260 . S
C108 O115 1.240 . S
C108 O116 1.252 . S
C109 O112 1.252 . S
C109 O113 1.260 . S
O110 In104 2.266 . S
O110 C107 1.252 . S
O111 In104 2.326 . S
O111 C107 1.260 . S
O112 In104 2.266 . S
O112 C109 1.252 . S
O113 In104 2.326 . S
O113 C109 1.260 . S
C114 O105 1.240 . S
C114 O106 1.252 . S
O115 In104 2.294 . S
O115 C108 1.240 . S
O116 In104 2.326 . S
O116 C108 1.252 . S
In117 O118 2.294 . S
In117 O119 2.326 . S
In117 O123 2.266 . S
In117 O124 2.326 1_556 S
In117 O125 2.266 1_556 S
In117 O126 2.326 1_556 S
In117 O128 2.294 . S
In117 O129 2.326 . S
O118 In117 2.294 . S
O118 C127 1.240 . S
O119 In117 2.326 . S
O119 C127 1.252 . S
C120 O123 1.252 . S
C120 O124 1.260 1_556 S
C121 O128 1.240 . S
C121 O129 1.252 . S
C122 O125 1.252 . S
C122 O126 1.260 . S
O123 In117 2.266 . S
O123 C120 1.252 . S
O124 In117 2.326 1_554 S
O124 C120 1.260 1_554 S
O125 In117 2.266 1_554 S
O125 C122 1.252 . S
O126 In117 2.326 1_554 S
O126 C122 1.260 . S
C127 O118 1.240 . S
C127 O119 1.252 . S
O128 In117 2.294 . S
O128 C121 1.240 . S
O129 In117 2.326 . S
O129 C121 1.252 . S
In130 O131 2.294 1_554 S
In130 O132 2.326 1_554 S
In130 O136 2.266 . S
In130 O137 2.326 . S
In130 O138 2.266 . S
In130 O139 2.326 . S
In130 O141 2.294 . S
In130 O142 2.326 1_554 S
O131 In130 2.294 1_556 S
O131 C140 1.240 . S
O132 In130 2.326 1_556 S
O132 C140 1.252 . S
C133 O136 1.252 . S
C133 O137 1.260 . S
C134 O141 1.240 1_556 S
C134 O142 1.252 . S
C135 O138 1.252 . S
C135 O139 1.260 . S
O136 In130 2.266 . S
O136 C133 1.252 . S
O137 In130 2.326 . S
O137 C133 1.260 . S
O138 In130 2.266 . S
O138 C135 1.252 . S
O139 In130 2.326 . S
O139 C135 1.260 . S
C140 O131 1.240 . S
C140 O132 1.252 . S
O141 In130 2.294 . S
O141 C134 1.240 1_554 S
O142 In130 2.326 1_556 S
O142 C134 1.252 . S
In143 O144 2.294 . S
In143 O145 2.326 . S
In143 O149 2.266 . S
In143 O150 2.326 . S
In143 O151 2.266 . S
In143 O152 2.326 . S
In143 O154 2.294 . S
In143 O155 2.326 . S
O144 In143 2.294 . S
O144 C153 1.240 . S
O145 In143 2.326 . S
O145 C153 1.252 . S
C146 O149 1.252 . S
C146 O150 1.260 . S
C147 O154 1.240 . S
C147 O155 1.252 . S
C148 O151 1.252 . S
C148 O152 1.260 . S
O149 In143 2.266 . S
O149 C146 1.252 . S
O150 In143 2.326 . S
O150 C146 1.260 . S
O151 In143 2.266 . S
O151 C148 1.252 . S
O152 In143 2.326 . S
O152 C148 1.260 . S
C153 O144 1.240 . S
C153 O145 1.252 . S
O154 In143 2.294 . S
O154 C147 1.240 . S
O155 In143 2.326 . S
O155 C147 1.252 . S
C122 C3 1.778 . S
C16 C135 1.778 1_455 S
C148 C29 1.778 1_565 S
C83 C44 1.778 . S
C96 C55 1.778 1_455 S
C109 C70 1.778 1_546 S
C81 C5 2.294 . S
C18 C94 2.294 . S
C107 C31 2.294 . S
C42 C120 2.294 . S
C133 C57 2.294 . S
C68 C146 2.294 . S
C127 C4 1.462 . S
C140 C17 1.462 1_655 S
C153 C30 1.462 1_564 S
C49 C88 1.462 . S
C101 C56 1.462 1_455 S
C75 C114 1.462 1_565 S
C10 C108 1.316 . S
C121 C23 1.316 . S
C134 C36 1.316 . S
C147 C43 1.316 . S
C82 C62 1.316 . S
C95 C69 1.317 . S
