# Generated by pormake.
# Topology ilc, (8)-cn, num edge types: 1
# Building blocks:
#     Node 0, Type 0, BuildingBlock: XADDAJ01_clean_sbu_3, # of connection points: 8
#     Node 1, Type 0, BuildingBlock: XADDAJ01_clean_sbu_3, # of connection points: 8
#     Node 2, Type 0, BuildingBlock: XADDAJ01_clean_sbu_3, # of connection points: 8
#     Edge 3, Type (0, 0), BuildingBlock: EYOCIG_clean_linker_4, # of connection points: 2
#     Edge 4, Type (0, 0), BuildingBlock: EYOCIG_clean_linker_4, # of connection points: 2
#     Edge 5, Type (0, 0), BuildingBlock: EYOCIG_clean_linker_4, # of connection points: 2
#     Edge 6, Type (0, 0), BuildingBlock: EYOCIG_clean_linker_4, # of connection points: 2
#     Edge 7, Type (0, 0), BuildingBlock: EYOCIG_clean_linker_4, # of connection points: 2
#     Edge 8, Type (0, 0), BuildingBlock: EYOCIG_clean_linker_4, # of connection points: 2
#     Edge 9, Type (0, 0), BuildingBlock: EYOCIG_clean_linker_4, # of connection points: 2
#     Edge 10, Type (0, 0), BuildingBlock: EYOCIG_clean_linker_4, # of connection points: 2
#     Edge 11, Type (0, 0), BuildingBlock: EYOCIG_clean_linker_4, # of connection points: 2
#     Edge 12, Type (0, 0), BuildingBlock: EYOCIG_clean_linker_4, # of connection points: 2
#     Edge 13, Type (0, 0), BuildingBlock: EYOCIG_clean_linker_4, # of connection points: 2
#     Edge 14, Type (0, 0), BuildingBlock: EYOCIG_clean_linker_4, # of connection points: 2
# Relax obj value: 0.188
# Max RMSD: 0.205
# Mean RMSD: 0.205
data_MOF--net-ilc--node1-XADDAJ01_clean_sbu_3--edge1-EYOCIG_clean_linker_4
_symmetry_space_group_name_H-M    P1
_symmetry_Int_Tables_number       1
_symmetry_cell_setting            triclinic
loop_
_symmetry_equiv_pos_as_xyz
'x, y, z'
_cell_length_a     19.034341
_cell_length_b     26.368121
_cell_length_c     15.715621
_cell_angle_alpha  100.15762
_cell_angle_beta   77.224103
_cell_angle_gamma 145.89073
loop_
_atom_site_label
_atom_site_type_symbol
_atom_site_fract_x
_atom_site_fract_y
_atom_site_fract_z
_atom_type_partial_charge
C0 C 0.20726 0.05192 0.18857 0.0
C1 C 0.17261 0.06462 0.26738 0.0
C2 C 0.16197 1.0399 0.34503 0.0
C3 C 0.18433 1.00201 0.34699 0.0
C4 C 0.21322 0.9843 0.26964 0.0
C5 C 0.22622 1.00982 0.18872 0.0
O6 O 0.96699 1.04156 0.14255 0.0
Tb7 Tb 0.1604 0.13557 0.08385 0.0
Tb8 Tb 0.92406 0.9513 0.95418 0.0
O9 O 0.21618 0.23197 0.18438 0.0
O10 O 0.86243 0.90681 0.08937 0.0
O11 O 0.29731 0.16836 0.11152 0.0
C12 C 0.8623 1.00236 0.92824 0.0
O13 O 0.11389 1.03001 0.08237 0.0
O14 O 0.11747 0.04567 0.89465 0.0
O15 O 0.22237 0.1804 0.94874 0.0
C16 C 0.22065 0.08334 0.10945 0.0
C17 C 0.89414 0.82085 0.85431 0.0
O18 O 0.94197 0.83709 0.9208 0.0
C19 C 0.87866 0.95486 0.15298 0.0
C20 C 0.20622 0.13256 0.88482 0.0
O21 O 0.86829 0.85464 0.85414 0.0
C22 C 0.87681 1.03405 0.84875 0.0
C23 C 0.8695 0.09996 0.76585 0.0
C24 C 0.85363 0.07319 0.84722 0.0
C25 C 0.9179 1.02521 0.771 0.0
C26 C 0.93234 0.0518 0.69298 0.0
C27 C 0.90598 0.08677 0.68946 0.0
C28 C 0.18989 0.26552 0.18475 0.0
O29 O 0.14159 0.24919 0.11857 0.0
O30 O 0.78644 0.91756 0.92584 0.0
O31 O 0.9688 0.05598 0.95612 0.0
H32 H 0.15332 0.09366 0.26825 0.0
H33 H 0.17311 0.98223 0.40943 0.0
H34 H 0.24929 0.99678 0.12791 0.0
H35 H 0.8253 0.08311 0.90733 0.0
H36 H 0.9399 0.99815 0.77133 0.0
H37 H 0.91967 0.1077 0.62675 0.0
C38 C 0.87844 0.38661 0.5196 0.0
C39 C 0.84633 0.40001 0.59949 0.0
C40 C 0.83827 0.37583 0.67613 0.0
C41 C 0.86131 0.33819 0.67615 0.0
C42 C 0.88611 0.31871 0.59773 0.0
C43 C 0.89657 0.34372 0.51772 0.0
O44 O 0.63391 0.37462 0.47658 0.0
Tb45 Tb 0.82719 0.46878 0.41716 0.0
Tb46 Tb 0.59037 0.28485 0.28731 0.0
O47 O 0.88285 0.56531 0.51743 0.0
O48 O 0.52936 0.24012 0.42232 0.0
O49 O 0.96499 0.50226 0.44408 0.0
C50 C 0.52773 0.33566 0.26276 0.0
O51 O 0.78158 0.36361 0.41565 0.0
O52 O 0.78359 0.37899 0.22734 0.0
O53 O 0.88892 0.5137 0.28208 0.0
C54 C 0.88926 0.41749 0.44153 0.0
C55 C 0.56025 0.15443 0.18726 0.0
O56 O 0.6088 0.17112 0.2535 0.0
C57 C 0.54534 0.28779 0.48636 0.0
C58 C 0.87287 0.46603 0.21795 0.0
O59 O 0.53399 0.18797 0.18726 0.0
C60 C 0.53876 0.36585 0.18384 0.0
C61 C 0.52964 0.43147 0.10272 0.0
C62 C 0.5181 0.40686 0.18373 0.0
C63 C 0.57443 0.35398 0.10506 0.0
C64 C 0.58428 0.37824 0.0275 0.0
C65 C 0.55848 0.41374 0.02536 0.0
C66 C 0.8555 0.59815 0.51782 0.0
O67 O 0.80635 0.58107 0.45178 0.0
O68 O 0.45175 0.25084 0.26111 0.0
O69 O 0.63561 0.38977 0.28854 0.0
H70 H 0.82615 0.42863 0.60197 0.0
H71 H 0.85137 0.3184 0.73792 0.0
H72 H 0.91645 0.32929 0.45608 0.0
H73 H 0.49552 0.4202 0.24458 0.0
H74 H 0.59652 0.32684 0.10421 0.0
H75 H 0.56951 0.4334 0.9629 0.0
C76 C 0.54643 0.72125 0.8531 0.0
C77 C 0.50856 0.73117 0.93223 0.0
C78 C 0.4965 0.70482 1.00913 0.0
C79 C 0.52291 0.66962 1.01034 0.0
C80 C 0.55413 0.65395 0.93252 0.0
C81 C 0.56739 0.68031 0.85213 0.0
O82 O 0.30216 0.70876 0.81027 0.0
Tb83 Tb 0.49563 0.8034 0.7507 0.0
Tb84 Tb 0.25983 0.61949 0.62073 0.0
O85 O 0.55038 0.89953 0.85101 0.0
O86 O 0.19816 0.57448 0.75577 0.0
O87 O 0.63402 0.83753 0.77797 0.0
C88 C 0.19728 0.67035 0.59605 0.0
O89 O 0.45147 0.69895 0.74816 0.0
O90 O 0.45343 0.71421 0.56146 0.0
O91 O 0.55717 0.84847 0.61585 0.0
C92 C 0.55877 0.75286 0.77484 0.0
C93 C 0.22945 0.48874 0.52114 0.0
O94 O 0.27654 0.5046 0.58796 0.0
C95 C 0.21373 0.62193 0.81987 0.0
C96 C 0.54178 0.80104 0.55186 0.0
O97 O 0.20421 0.52291 0.52058 0.0
C98 C 0.20778 0.70064 0.51756 0.0
C99 C 0.19772 0.76642 0.43818 0.0
C100 C 0.18875 0.74285 0.51864 0.0
C101 C 0.23923 0.68645 0.43801 0.0
C102 C 0.24516 0.70878 0.36093 0.0
C103 C 0.22188 0.74616 0.36016 0.0
C104 C 0.52268 0.93209 0.85116 0.0
O105 O 0.47368 0.91492 0.78494 0.0
O106 O 0.12151 0.58558 0.59411 0.0
O107 O 0.30511 0.72446 0.62184 0.0
H108 H 0.48617 0.75819 0.93381 0.0
H109 H 0.51049 0.64857 0.07232 0.0
H110 H 0.5916 0.66842 0.79092 0.0
H111 H 0.16895 0.75762 0.57996 0.0
H112 H 0.25955 0.65798 0.43608 0.0
H113 H 0.2302 0.76454 0.29804 0.0
C114 C 1.03047 0.04989 0.55241 0.0
C115 C 0.98557 0.05079 0.61668 0.0
C116 C 0.0755 0.04917 0.48815 0.0
C117 C 0.11508 0.04483 0.42281 0.0
C118 C 0.74527 0.38052 0.81792 0.0
C119 C 0.78808 0.37752 0.75425 0.0
C120 C 0.68544 0.37802 0.88845 0.0
C121 C 0.63893 0.37887 0.95096 0.0
C122 C 0.39079 0.70096 0.14829 0.0
C123 C 0.43937 0.70193 0.08573 0.0
C124 C 0.33172 0.69897 0.219 0.0
C125 C 0.29182 0.70427 0.28273 0.0
C126 C 0.19963 0.85515 0.38536 0.0
C127 C 0.19299 0.81676 0.42749 0.0
C128 C 0.21358 0.89727 0.32366 0.0
C129 C 0.21994 0.93537 0.28126 0.0
C130 C 0.21126 0.40009 0.38738 0.0
C131 C 0.21721 0.44068 0.44598 0.0
C132 C 0.20852 0.35405 0.319 0.0
C133 C 0.20252 0.31354 0.26021 0.0
C134 C 0.67978 0.86692 0.39611 0.0
C135 C 0.62169 0.84267 0.46886 0.0
C136 C 0.7426 0.89041 0.30944 0.0
C137 C 0.7999 0.91413 0.23645 0.0
C138 C 0.8798 0.22687 0.64907 0.0
C139 C 0.88859 0.26683 0.6075 0.0
C140 C 0.86429 0.18364 0.71046 0.0
C141 C 0.85865 0.14609 0.75312 0.0
C142 C 0.87336 0.68643 0.6519 0.0
C143 C 0.86775 0.64608 0.59318 0.0
C144 C 0.87581 0.73229 0.72032 0.0
C145 C 0.88175 0.77282 0.77902 0.0
C146 C 0.40774 0.22212 0.64238 0.0
C147 C 0.46573 0.24639 0.56955 0.0
C148 C 0.34434 0.19821 0.72896 0.0
C149 C 0.28611 0.17392 0.8017 0.0
C150 C 0.53346 0.52078 0.04797 0.0
C151 C 0.52485 0.48158 0.09095 0.0
C152 C 0.55094 0.56461 0.98567 0.0
C153 C 0.55973 0.60413 0.94314 0.0
C154 C 0.53981 1.0201 0.98507 0.0
C155 C 0.53452 0.97988 0.92641 0.0
C156 C 0.54201 0.06587 0.05338 0.0
C157 C 0.54782 0.10638 0.11199 0.0
C158 C 0.07557 0.55601 0.97579 0.0
C159 C 0.13374 0.58031 0.90299 0.0
C160 C 1.01193 0.53207 0.06234 0.0
C161 C 0.95337 0.50769 0.13501 0.0
loop_
_geom_bond_atom_site_label_1
_geom_bond_atom_site_label_2
_geom_bond_distance
_geom_bond_site_symmetry_2
_ccdc_geom_bond_type
C0 C1 1.386 . S
C0 C5 1.384 1_545 S
C0 C16 1.497 . S
C1 C0 1.386 . S
C1 C2 1.393 1_545 S
C1 H32 0.932 . S
C2 C1 1.393 1_565 S
C2 C3 1.387 . S
C3 C2 1.387 . S
C3 C4 1.392 . S
C3 H33 0.930 . S
C4 C3 1.392 . S
C4 C5 1.402 . S
C5 C0 1.384 1_565 S
C5 C4 1.402 . S
C5 H34 0.930 . S
O6 Tb7 2.293 1_655 S
O6 C19 1.249 1_545 S
Tb7 O6 2.293 1_455 S
Tb7 O9 2.303 . S
Tb7 O11 2.430 . S
Tb7 O13 2.459 . S
Tb7 O15 2.301 1_554 S
Tb7 C16 2.808 . S
Tb8 O10 2.301 1_556 S
Tb8 C12 2.808 . S
Tb8 O14 2.292 1_655 S
Tb8 O21 2.303 . S
Tb8 O30 2.430 . S
Tb8 O31 2.459 . S
O9 Tb7 2.303 . S
O9 C28 1.255 . S
O10 Tb8 2.301 1_554 S
O10 C19 1.237 . S
O11 Tb7 2.430 . S
O11 C16 1.248 . S
C12 Tb8 2.808 . S
C12 C22 1.497 . S
C12 O30 1.248 . S
C12 O31 1.260 . S
O13 Tb7 2.459 . S
O13 C16 1.260 . S
O14 Tb8 2.292 1_455 S
O14 C20 1.251 1_565 S
O15 Tb7 2.301 1_556 S
O15 C20 1.237 . S
C16 C0 1.497 . S
C16 Tb7 2.808 . S
C16 O11 1.248 . S
C16 O13 1.260 . S
C17 O18 1.255 . S
C17 O21 1.255 . S
O18 C17 1.255 . S
C19 O6 1.249 1_565 S
C19 O10 1.237 . S
C20 O14 1.251 1_545 S
C20 O15 1.237 . S
O21 Tb8 2.303 . S
O21 C17 1.255 . S
C22 C12 1.497 . S
C22 C24 1.384 1_565 S
C22 C25 1.386 . S
C23 C24 1.402 . S
C23 C27 1.392 . S
C24 C22 1.384 1_545 S
C24 C23 1.402 . S
C24 H35 0.930 . S
C25 C22 1.386 . S
C25 C26 1.393 1_565 S
C25 H36 0.932 . S
C26 C25 1.393 1_545 S
C26 C27 1.387 . S
C27 C23 1.392 . S
C27 C26 1.387 . S
C27 H37 0.930 . S
C28 O9 1.255 . S
C28 O29 1.255 . S
O29 C28 1.255 . S
O30 Tb8 2.430 . S
O30 C12 1.248 . S
O31 Tb8 2.459 . S
O31 C12 1.260 . S
H32 C1 0.932 . S
H33 C3 0.930 . S
H34 C5 0.930 . S
H35 C24 0.930 . S
H36 C25 0.932 . S
H37 C27 0.930 . S
C38 C39 1.386 . S
C38 C43 1.384 . S
C38 C54 1.497 . S
C39 C38 1.386 . S
C39 C40 1.393 . S
C39 H70 0.932 . S
C40 C39 1.393 . S
C40 C41 1.387 . S
C41 C40 1.387 . S
C41 C42 1.392 . S
C41 H71 0.930 . S
C42 C41 1.392 . S
C42 C43 1.402 . S
C43 C38 1.384 . S
C43 C42 1.402 . S
C43 H72 0.930 . S
O44 Tb45 2.288 . S
O44 C57 1.257 . S
Tb45 O44 2.288 . S
Tb45 O47 2.303 . S
Tb45 O49 2.430 . S
Tb45 O51 2.459 . S
Tb45 O53 2.301 . S
Tb45 C54 2.808 . S
Tb46 O48 2.301 . S
Tb46 C50 2.808 . S
Tb46 O52 2.288 . S
Tb46 O59 2.303 . S
Tb46 O68 2.430 . S
Tb46 O69 2.459 . S
O47 Tb45 2.303 . S
O47 C66 1.255 . S
O48 Tb46 2.301 . S
O48 C57 1.237 . S
O49 Tb45 2.430 . S
O49 C54 1.248 . S
C50 Tb46 2.808 . S
C50 C60 1.497 . S
C50 O68 1.248 . S
C50 O69 1.260 . S
O51 Tb45 2.459 . S
O51 C54 1.260 . S
O52 Tb46 2.288 . S
O52 C58 1.257 . S
O53 Tb45 2.301 . S
O53 C58 1.237 . S
C54 C38 1.497 . S
C54 Tb45 2.808 . S
C54 O49 1.248 . S
C54 O51 1.260 . S
C55 O56 1.255 . S
C55 O59 1.255 . S
O56 C55 1.255 . S
C57 O44 1.257 . S
C57 O48 1.237 . S
C58 O52 1.257 . S
C58 O53 1.237 . S
O59 Tb46 2.303 . S
O59 C55 1.255 . S
C60 C50 1.497 . S
C60 C62 1.384 . S
C60 C63 1.386 . S
C61 C62 1.402 . S
C61 C65 1.392 . S
C62 C60 1.384 . S
C62 C61 1.402 . S
C62 H73 0.930 . S
C63 C60 1.386 . S
C63 C64 1.393 1_554 S
C63 H74 0.932 . S
C64 C63 1.393 1_556 S
C64 C65 1.387 1_556 S
C65 C61 1.392 . S
C65 C64 1.387 1_554 S
C65 H75 0.930 1_554 S
C66 O47 1.255 . S
C66 O67 1.255 . S
O67 C66 1.255 . S
O68 Tb46 2.430 . S
O68 C50 1.248 . S
O69 Tb46 2.459 . S
O69 C50 1.260 . S
H70 C39 0.932 . S
H71 C41 0.930 . S
H72 C43 0.930 . S
H73 C62 0.930 . S
H74 C63 0.932 . S
H75 C65 0.930 1_556 S
C76 C77 1.386 . S
C76 C81 1.384 . S
C76 C92 1.497 . S
C77 C76 1.386 . S
C77 C78 1.393 1_556 S
C77 H108 0.932 . S
C78 C77 1.393 1_554 S
C78 C79 1.387 1_554 S
C79 C78 1.387 1_556 S
C79 C80 1.392 . S
C79 H109 0.930 1_556 S
C80 C79 1.392 . S
C80 C81 1.402 . S
C81 C76 1.384 . S
C81 C80 1.402 . S
C81 H110 0.930 . S
O82 Tb83 2.288 . S
O82 C95 1.257 . S
Tb83 O82 2.288 . S
Tb83 O85 2.303 . S
Tb83 O87 2.430 . S
Tb83 O89 2.459 . S
Tb83 O91 2.301 . S
Tb83 C92 2.808 . S
Tb84 O86 2.301 . S
Tb84 C88 2.808 . S
Tb84 O90 2.288 . S
Tb84 O97 2.303 . S
Tb84 O106 2.430 . S
Tb84 O107 2.459 . S
O85 Tb83 2.303 . S
O85 C104 1.255 . S
O86 Tb84 2.301 . S
O86 C95 1.237 . S
O87 Tb83 2.430 . S
O87 C92 1.248 . S
C88 Tb84 2.808 . S
C88 C98 1.497 . S
C88 O106 1.248 . S
C88 O107 1.260 . S
O89 Tb83 2.459 . S
O89 C92 1.260 . S
O90 Tb84 2.288 . S
O90 C96 1.257 . S
O91 Tb83 2.301 . S
O91 C96 1.237 . S
C92 C76 1.497 . S
C92 Tb83 2.808 . S
C92 O87 1.248 . S
C92 O89 1.260 . S
C93 O94 1.255 . S
C93 O97 1.255 . S
O94 C93 1.255 . S
C95 O82 1.257 . S
C95 O86 1.237 . S
C96 O90 1.257 . S
C96 O91 1.237 . S
O97 Tb84 2.303 . S
O97 C93 1.255 . S
C98 C88 1.497 . S
C98 C100 1.384 . S
C98 C101 1.386 . S
C99 C100 1.402 . S
C99 C103 1.392 . S
C100 C98 1.384 . S
C100 C99 1.402 . S
C100 H111 0.930 . S
C101 C98 1.386 . S
C101 C102 1.393 . S
C101 H112 0.932 . S
C102 C101 1.393 . S
C102 C103 1.387 . S
C103 C99 1.392 . S
C103 C102 1.387 . S
C103 H113 0.930 . S
C104 O85 1.255 . S
C104 O105 1.255 . S
O105 C104 1.255 . S
O106 Tb84 2.430 . S
O106 C88 1.248 . S
O107 Tb84 2.459 . S
O107 C88 1.260 . S
H108 C77 0.932 . S
H109 C79 0.930 1_554 S
H110 C81 0.930 . S
H111 C100 0.930 . S
H112 C101 0.932 . S
H113 C103 0.930 . S
C114 C115 1.175 . S
C114 C116 1.367 1_645 S
C115 C114 1.175 . S
C116 C114 1.367 1_465 S
C116 C117 1.174 . S
C117 C116 1.174 . S
C118 C119 1.170 . S
C118 C120 1.380 . S
C119 C118 1.170 . S
C120 C118 1.380 . S
C120 C121 1.170 . S
C121 C120 1.170 . S
C122 C123 1.170 . S
C122 C124 1.380 . S
C123 C122 1.170 . S
C124 C122 1.380 . S
C124 C125 1.170 . S
C125 C124 1.170 . S
C126 C127 1.170 . S
C126 C128 1.380 . S
C127 C126 1.170 . S
C128 C126 1.380 . S
C128 C129 1.170 . S
C129 C128 1.170 . S
C130 C131 1.170 . S
C130 C132 1.380 . S
C131 C130 1.170 . S
C132 C130 1.380 . S
C132 C133 1.170 . S
C133 C132 1.170 . S
C134 C135 1.170 . S
C134 C136 1.380 . S
C135 C134 1.170 . S
C136 C134 1.380 . S
C136 C137 1.170 . S
C137 C136 1.170 . S
C138 C139 1.170 . S
C138 C140 1.380 . S
C139 C138 1.170 . S
C140 C138 1.380 . S
C140 C141 1.170 . S
C141 C140 1.170 . S
C142 C143 1.170 . S
C142 C144 1.380 . S
C143 C142 1.170 . S
C144 C142 1.380 . S
C144 C145 1.170 . S
C145 C144 1.170 . S
C146 C147 1.170 . S
C146 C148 1.380 . S
C147 C146 1.170 . S
C148 C146 1.380 . S
C148 C149 1.170 . S
C149 C148 1.170 . S
C150 C151 1.170 . S
C150 C152 1.380 1_554 S
C151 C150 1.170 . S
C152 C150 1.380 1_556 S
C152 C153 1.170 . S
C153 C152 1.170 . S
C154 C155 1.170 . S
C154 C156 1.380 1_566 S
C155 C154 1.170 . S
C156 C154 1.380 1_544 S
C156 C157 1.170 . S
C157 C156 1.170 . S
C158 C159 1.170 . S
C158 C160 1.380 1_456 S
C159 C158 1.170 . S
C160 C158 1.380 1_654 S
C160 C161 1.170 . S
C161 C160 1.170 . S
C115 C26 1.235 . S
C117 C2 1.295 . S
C119 C40 1.294 . S
C121 C64 1.236 . S
C123 C78 1.255 . S
C125 C102 1.285 . S
C127 C99 2.258 . S
C129 C4 2.269 . S
C131 C93 1.440 . S
C133 C28 1.430 . S
C135 C96 1.723 . S
C137 C19 1.737 . S
C139 C42 2.276 . S
C141 C23 2.235 . S
C143 C66 1.465 . S
C145 C17 1.419 . S
C147 C57 1.727 . S
C149 C20 1.736 . S
C151 C61 2.242 . S
C153 C80 2.280 . S
C155 C104 1.471 . S
C157 C55 1.419 . S
C159 C95 1.727 . S
C161 C58 1.735 . S
