# Generated by pormake.
# Topology umw, (4)-cn, num edge types: 1
# Building blocks:
#     Node 0, Type 0, BuildingBlock: AZAVOO_clean_sbu_0, # of connection points: 4
#     Node 1, Type 0, BuildingBlock: AZAVOO_clean_sbu_0, # of connection points: 4
#     Node 2, Type 0, BuildingBlock: AZAVOO_clean_sbu_0, # of connection points: 4
#     Node 3, Type 0, BuildingBlock: AZAVOO_clean_sbu_0, # of connection points: 4
#     Node 4, Type 0, BuildingBlock: AZAVOO_clean_sbu_0, # of connection points: 4
#     Node 5, Type 0, BuildingBlock: AZAVOO_clean_sbu_0, # of connection points: 4
#     Node 6, Type 0, BuildingBlock: AZAVOO_clean_sbu_0, # of connection points: 4
#     Node 7, Type 0, BuildingBlock: AZAVOO_clean_sbu_0, # of connection points: 4
#     Edge 8, Type (0, 0), BuildingBlock: EYOCIG_clean_linker_4, # of connection points: 2
#     Edge 9, Type (0, 0), BuildingBlock: EYOCIG_clean_linker_4, # of connection points: 2
#     Edge 10, Type (0, 0), BuildingBlock: EYOCIG_clean_linker_4, # of connection points: 2
#     Edge 11, Type (0, 0), BuildingBlock: EYOCIG_clean_linker_4, # of connection points: 2
#     Edge 12, Type (0, 0), BuildingBlock: EYOCIG_clean_linker_4, # of connection points: 2
#     Edge 13, Type (0, 0), BuildingBlock: EYOCIG_clean_linker_4, # of connection points: 2
#     Edge 14, Type (0, 0), BuildingBlock: EYOCIG_clean_linker_4, # of connection points: 2
#     Edge 15, Type (0, 0), BuildingBlock: EYOCIG_clean_linker_4, # of connection points: 2
#     Edge 16, Type (0, 0), BuildingBlock: EYOCIG_clean_linker_4, # of connection points: 2
#     Edge 17, Type (0, 0), BuildingBlock: EYOCIG_clean_linker_4, # of connection points: 2
#     Edge 18, Type (0, 0), BuildingBlock: EYOCIG_clean_linker_4, # of connection points: 2
#     Edge 19, Type (0, 0), BuildingBlock: EYOCIG_clean_linker_4, # of connection points: 2
#     Edge 20, Type (0, 0), BuildingBlock: EYOCIG_clean_linker_4, # of connection points: 2
#     Edge 21, Type (0, 0), BuildingBlock: EYOCIG_clean_linker_4, # of connection points: 2
#     Edge 22, Type (0, 0), BuildingBlock: EYOCIG_clean_linker_4, # of connection points: 2
#     Edge 23, Type (0, 0), BuildingBlock: EYOCIG_clean_linker_4, # of connection points: 2
# Relax obj value: 0.146
# Max RMSD: 0.122
# Mean RMSD: 0.121
data_MOF--net-umw--node1-AZAVOO_clean_sbu_0--edge1-EYOCIG_clean_linker_4
_symmetry_space_group_name_H-M    P1
_symmetry_Int_Tables_number       1
_symmetry_cell_setting            triclinic
loop_
_symmetry_equiv_pos_as_xyz
'x, y, z'
_cell_length_a     35.875796
_cell_length_b     35.815293
_cell_length_c     18.657096
_cell_angle_alpha  89.966223
_cell_angle_beta   89.954717
_cell_angle_gamma 90.100285
loop_
_atom_site_label
_atom_site_type_symbol
_atom_site_fract_x
_atom_site_fract_y
_atom_site_fract_z
_atom_type_partial_charge
Mg0 Mg 0.36847 0.14745 0.25394 0.0
O1 O 0.40894 0.15218 0.34788 0.0
O2 O 0.45634 0.11337 0.32661 0.0
Mg3 Mg 0.44445 0.0818 0.22235 0.0
C4 C 0.44025 0.13809 0.3646 0.0
C5 C 0.30685 0.2041 0.2852 0.0
O6 O 0.2884 0.18086 0.24401 0.0
O7 O 0.40815 0.18042 0.18306 0.0
O8 O 0.45077 0.13636 0.15908 0.0
O9 O 0.33747 0.10045 0.30684 0.0
O10 O 0.38451 0.09304 0.23141 0.0
C11 C 0.43727 0.16903 0.15061 0.0
C12 C 0.35983 0.07844 0.27264 0.0
O13 O 0.34129 0.19933 0.29612 0.0
Mg14 Mg 0.82267 0.36948 0.50291 0.0
O15 O 0.81862 0.40931 0.59807 0.0
O16 O 0.85741 0.45697 0.57739 0.0
Mg17 Mg 0.88853 0.44575 0.47235 0.0
C18 C 0.83283 0.44057 0.61538 0.0
C19 C 0.76681 0.30725 0.53691 0.0
O20 O 0.79038 0.28864 0.49675 0.0
O21 O 0.78964 0.40995 0.4339 0.0
O22 O 0.83384 0.45266 0.41027 0.0
O23 O 0.86977 0.33794 0.55375 0.0
O24 O 0.87702 0.38565 0.47965 0.0
C25 C 0.80109 0.43933 0.40206 0.0
C26 C 0.89169 0.36057 0.51976 0.0
O27 O 0.77097 0.342 0.54582 0.0
Mg28 Mg 0.59979 0.82277 0.75358 0.0
O29 O 0.55977 0.81821 0.84834 0.0
O30 O 0.51219 0.85688 0.82763 0.0
Mg31 Mg 0.52353 0.88824 0.72284 0.0
C32 C 0.5285 0.83227 0.86554 0.0
C33 C 0.66196 0.76721 0.78702 0.0
O34 O 0.68047 0.79112 0.74723 0.0
O35 O 0.55981 0.78954 0.68399 0.0
O36 O 0.51703 0.8335 0.66037 0.0
O37 O 0.63093 0.86996 0.80532 0.0
O38 O 0.58354 0.87715 0.73077 0.0
C39 C 0.53052 0.80082 0.65204 0.0
C40 C 0.60836 0.89187 0.77139 0.0
O41 O 0.62725 0.77107 0.796 0.0
Mg42 Mg 0.14697 0.60148 0.00281 0.0
O43 O 0.15109 0.562 0.09846 0.0
O44 O 0.11276 0.51397 0.07821 0.0
Mg45 Mg 0.08178 0.52466 0.97288 0.0
C46 C 0.13711 0.53069 0.11612 0.0
C47 C 0.20407 0.66342 0.03426 0.0
O48 O 0.18202 0.68194 0.99092 0.0
O49 O 0.18047 0.56117 0.93435 0.0
O50 O 0.13659 0.51814 0.91094 0.0
O51 O 0.09954 0.63279 0.05304 0.0
O52 O 0.09277 0.5849 0.9793 0.0
C53 C 0.16926 0.53169 0.90267 0.0
C54 C 0.07785 0.60997 0.01909 0.0
O55 O 0.19841 0.62911 0.04601 0.0
Mg56 Mg 0.36838 0.82328 0.28277 0.0
O57 O 0.408 0.81862 0.1874 0.0
O58 O 0.45607 0.85686 0.20783 0.0
Mg59 Mg 0.44529 0.88827 0.31269 0.0
C60 C 0.43939 0.83244 0.16997 0.0
C61 C 0.30633 0.76614 0.2545 0.0
O62 O 0.28846 0.78844 0.29841 0.0
O63 O 0.40827 0.78975 0.35179 0.0
O64 O 0.45142 0.8335 0.37529 0.0
O65 O 0.33737 0.87066 0.23177 0.0
O66 O 0.38513 0.87752 0.30561 0.0
C67 C 0.43768 0.80088 0.38366 0.0
C68 C 0.36017 0.89242 0.2656 0.0
O69 O 0.34039 0.77178 0.24079 0.0
Mg70 Mg 0.14646 0.36954 0.53159 0.0
O71 O 0.15106 0.41001 0.43741 0.0
O72 O 0.11249 0.4576 0.4589 0.0
Mg73 Mg 0.08114 0.44579 0.5635 0.0
C74 C 0.13705 0.44141 0.42072 0.0
C75 C 0.20322 0.30784 0.50083 0.0
O76 O 0.18036 0.28945 0.54298 0.0
O77 O 0.17962 0.40927 0.60191 0.0
O78 O 0.13577 0.45205 0.6262 0.0
O79 O 0.0994 0.33851 0.47935 0.0
O80 O 0.09215 0.38568 0.55457 0.0
C81 C 0.16838 0.43848 0.63436 0.0
C82 C 0.07749 0.36093 0.51362 0.0
O83 O 0.19813 0.34221 0.48905 0.0
Mg84 Mg 0.60029 0.14717 0.78202 0.0
O85 O 0.56111 0.15195 0.68604 0.0
O86 O 0.51293 0.11372 0.70588 0.0
Mg87 Mg 0.52313 0.0822 0.81085 0.0
C88 C 0.52978 0.13815 0.66823 0.0
C89 C 0.66299 0.2037 0.75404 0.0
O90 O 0.68055 0.18097 0.79758 0.0
O91 O 0.56003 0.18073 0.85046 0.0
O92 O 0.51678 0.13694 0.87325 0.0
O93 O 0.63145 0.0997 0.73159 0.0
O94 O 0.58329 0.09293 0.8046 0.0
C95 C 0.53046 0.16956 0.88185 0.0
C96 C 0.60841 0.07799 0.76502 0.0
O97 O 0.62883 0.19862 0.74045 0.0
Mg98 Mg 0.82302 0.60194 0.03084 0.0
O99 O 0.81814 0.56174 0.93629 0.0
O100 O 0.85656 0.51396 0.95732 0.0
Mg101 Mg 0.88799 0.52527 0.06189 0.0
C102 C 0.83206 0.53034 0.91931 0.0
C103 C 0.76583 0.66386 0.00313 0.0
O104 O 0.78806 0.68167 0.04731 0.0
O105 O 0.78969 0.56223 0.10123 0.0
O106 O 0.83342 0.51925 0.12495 0.0
O107 O 0.87024 0.63282 0.97854 0.0
O108 O 0.87724 0.58541 0.05338 0.0
C109 C 0.80089 0.53294 0.13351 0.0
C110 C 0.89203 0.61016 0.01251 0.0
O111 O 0.77152 0.62983 0.98891 0.0
C112 C 0.47508 0.15579 0.48398 0.0
C113 C 0.45761 0.14919 0.4304 0.0
C114 C 0.49609 0.15585 0.54772 0.0
C115 C 0.51319 0.14933 0.60178 0.0
C116 C 0.81518 0.47488 0.7354 0.0
C117 C 0.82179 0.45765 0.6815 0.0
C118 C 0.81489 0.49589 0.7992 0.0
C119 C 0.8212 0.51327 0.85307 0.0
C120 C 0.47331 0.81475 0.04961 0.0
C121 C 0.45619 0.82133 0.10364 0.0
C122 C 0.49419 0.81471 0.98567 0.0
C123 C 0.51145 0.82124 0.93174 0.0
C124 C 0.15452 0.47611 0.30089 0.0
C125 C 0.14799 0.45871 0.35469 0.0
C126 C 0.15451 0.49698 0.2369 0.0
C127 C 0.14804 0.51399 0.18266 0.0
C128 C 0.27084 0.25055 0.36897 0.0
C129 C 0.28712 0.22927 0.33051 0.0
C130 C 0.24966 0.27171 0.41727 0.0
C131 C 0.22837 0.28798 0.4557 0.0
C132 C 0.72116 0.27119 0.62261 0.0
C133 C 0.74204 0.2876 0.58338 0.0
C134 C 0.70014 0.24994 0.67126 0.0
C135 C 0.68362 0.22868 0.70959 0.0
C136 C 0.71936 0.70055 0.92061 0.0
C137 C 0.74073 0.68425 0.95883 0.0
C138 C 0.69805 0.72148 0.87213 0.0
C139 C 0.68163 0.7424 0.83317 0.0
C140 C 0.24936 0.69913 0.12087 0.0
C141 C 0.22857 0.68313 0.08097 0.0
C142 C 0.26999 0.72004 0.1705 0.0
C143 C 0.28605 0.74126 0.20947 0.0
C144 C 0.35561 0.96582 0.26657 0.0
C145 C 0.35631 0.93223 0.26385 0.0
C146 C 0.35545 0.00504 0.2735 0.0
C147 C 0.35595 0.03865 0.27569 0.0
C148 C 0.96499 0.3561 0.5197 0.0
C149 C 0.93143 0.35669 0.52212 0.0
C150 C 0.00418 0.35624 0.51311 0.0
C151 C 0.03774 0.35697 0.51097 0.0
C152 C 0.61268 0.9653 0.77214 0.0
C153 C 0.61214 0.93168 0.77421 0.0
C154 C 0.61264 0.00455 0.76555 0.0
C155 C 0.61209 0.03815 0.7631 0.0
C156 C 0.96536 0.61433 0.0117 0.0
C157 C 0.93179 0.61385 0.00967 0.0
C158 C 0.00453 0.61429 0.01835 0.0
C159 C 0.03808 0.61371 0.02095 0.0
C160 C 0.49503 0.20303 0.98525 0.0
C161 C 0.51399 0.19219 0.93639 0.0
C162 C 0.47219 0.20275 0.04652 0.0
C163 C 0.45354 0.19162 0.09566 0.0
C164 C 0.76745 0.498 0.23785 0.0
C165 C 0.77833 0.51673 0.18857 0.0
C166 C 0.76753 0.47508 0.29907 0.0
C167 C 0.7785 0.45605 0.34776 0.0
C168 C 0.49531 0.76707 0.54861 0.0
C169 C 0.51411 0.77814 0.5975 0.0
C170 C 0.47256 0.76706 0.48731 0.0
C171 C 0.45386 0.77814 0.43832 0.0
C172 C 0.20269 0.49626 0.79925 0.0
C173 C 0.1919 0.51521 0.84817 0.0
C174 C 0.20231 0.47342 0.738 0.0
C175 C 0.19109 0.45475 0.68901 0.0
loop_
_geom_bond_atom_site_label_1
_geom_bond_atom_site_label_2
_geom_bond_distance
_geom_bond_site_symmetry_2
_ccdc_geom_bond_type
Mg0 O1 2.028 . S
Mg0 O7 1.986 . S
Mg0 O9 2.114 . S
Mg0 O10 2.251 . S
Mg0 O13 2.010 . S
O1 Mg0 2.028 . S
O1 C4 1.250 . S
O2 Mg3 2.028 . S
O2 C4 1.248 . S
Mg3 O2 2.028 . S
Mg3 O8 2.032 . S
Mg3 O10 2.079 . S
C4 O1 1.250 . S
C4 O2 1.248 . S
C5 O6 1.264 . S
C5 O13 1.249 . S
O6 C5 1.264 . S
O7 Mg0 1.986 . S
O7 C11 1.246 . S
O8 Mg3 2.032 . S
O8 C11 1.259 . S
O9 Mg0 2.114 . S
O9 C12 1.252 . S
O10 Mg0 2.251 . S
O10 Mg3 2.079 . S
O10 C12 1.273 . S
C11 O7 1.246 . S
C11 O8 1.259 . S
C12 O9 1.252 . S
C12 O10 1.273 . S
O13 Mg0 2.010 . S
O13 C5 1.249 . S
Mg14 O15 2.028 . S
Mg14 O21 1.986 . S
Mg14 O23 2.114 . S
Mg14 O24 2.251 . S
Mg14 O27 2.010 . S
O15 Mg14 2.028 . S
O15 C18 1.250 . S
O16 Mg17 2.028 . S
O16 C18 1.248 . S
Mg17 O16 2.028 . S
Mg17 O22 2.032 . S
Mg17 O24 2.079 . S
C18 O15 1.250 . S
C18 O16 1.248 . S
C19 O20 1.264 . S
C19 O27 1.249 . S
O20 C19 1.264 . S
O21 Mg14 1.986 . S
O21 C25 1.246 . S
O22 Mg17 2.032 . S
O22 C25 1.259 . S
O23 Mg14 2.114 . S
O23 C26 1.252 . S
O24 Mg14 2.251 . S
O24 Mg17 2.079 . S
O24 C26 1.273 . S
C25 O21 1.246 . S
C25 O22 1.259 . S
C26 O23 1.252 . S
C26 O24 1.273 . S
O27 Mg14 2.010 . S
O27 C19 1.249 . S
Mg28 O29 2.028 . S
Mg28 O35 1.986 . S
Mg28 O37 2.114 . S
Mg28 O38 2.251 . S
Mg28 O41 2.010 . S
O29 Mg28 2.028 . S
O29 C32 1.250 . S
O30 Mg31 2.028 . S
O30 C32 1.248 . S
Mg31 O30 2.028 . S
Mg31 O36 2.032 . S
Mg31 O38 2.079 . S
C32 O29 1.250 . S
C32 O30 1.248 . S
C33 O34 1.264 . S
C33 O41 1.249 . S
O34 C33 1.264 . S
O35 Mg28 1.986 . S
O35 C39 1.246 . S
O36 Mg31 2.032 . S
O36 C39 1.259 . S
O37 Mg28 2.114 . S
O37 C40 1.252 . S
O38 Mg28 2.251 . S
O38 Mg31 2.079 . S
O38 C40 1.273 . S
C39 O35 1.246 . S
C39 O36 1.259 . S
C40 O37 1.252 . S
C40 O38 1.273 . S
O41 Mg28 2.010 . S
O41 C33 1.249 . S
Mg42 O43 2.028 . S
Mg42 O49 1.986 1_554 S
Mg42 O51 2.114 . S
Mg42 O52 2.251 . S
Mg42 O55 2.010 . S
O43 Mg42 2.028 . S
O43 C46 1.250 . S
O44 Mg45 2.028 . S
O44 C46 1.248 . S
Mg45 O44 2.028 . S
Mg45 O50 2.032 1_554 S
Mg45 O52 2.079 . S
C46 O43 1.250 . S
C46 O44 1.248 . S
C47 O48 1.264 . S
C47 O55 1.249 . S
O48 C47 1.264 . S
O49 Mg42 1.986 1_556 S
O49 C53 1.246 . S
O50 Mg45 2.032 1_556 S
O50 C53 1.259 . S
O51 Mg42 2.114 . S
O51 C54 1.252 . S
O52 Mg42 2.251 . S
O52 Mg45 2.079 . S
O52 C54 1.273 . S
C53 O49 1.246 . S
C53 O50 1.259 . S
C54 O51 1.252 . S
C54 O52 1.273 . S
O55 Mg42 2.010 . S
O55 C47 1.249 . S
Mg56 O57 2.028 . S
Mg56 O63 1.986 . S
Mg56 O65 2.114 . S
Mg56 O66 2.251 . S
Mg56 O69 2.010 . S
O57 Mg56 2.028 . S
O57 C60 1.250 . S
O58 Mg59 2.028 . S
O58 C60 1.248 . S
Mg59 O58 2.028 . S
Mg59 O64 2.032 . S
Mg59 O66 2.079 . S
C60 O57 1.250 . S
C60 O58 1.248 . S
C61 O62 1.264 . S
C61 O69 1.249 . S
O62 C61 1.264 . S
O63 Mg56 1.986 . S
O63 C67 1.246 . S
O64 Mg59 2.032 . S
O64 C67 1.259 . S
O65 Mg56 2.114 . S
O65 C68 1.252 . S
O66 Mg56 2.251 . S
O66 Mg59 2.079 . S
O66 C68 1.273 . S
C67 O63 1.246 . S
C67 O64 1.259 . S
C68 O65 1.252 . S
C68 O66 1.273 . S
O69 Mg56 2.010 . S
O69 C61 1.249 . S
Mg70 O71 2.028 . S
Mg70 O77 1.986 . S
Mg70 O79 2.114 . S
Mg70 O80 2.251 . S
Mg70 O83 2.010 . S
O71 Mg70 2.028 . S
O71 C74 1.250 . S
O72 Mg73 2.028 . S
O72 C74 1.248 . S
Mg73 O72 2.028 . S
Mg73 O78 2.032 . S
Mg73 O80 2.079 . S
C74 O71 1.250 . S
C74 O72 1.248 . S
C75 O76 1.264 . S
C75 O83 1.249 . S
O76 C75 1.264 . S
O77 Mg70 1.986 . S
O77 C81 1.246 . S
O78 Mg73 2.032 . S
O78 C81 1.259 . S
O79 Mg70 2.114 . S
O79 C82 1.252 . S
O80 Mg70 2.251 . S
O80 Mg73 2.079 . S
O80 C82 1.273 . S
C81 O77 1.246 . S
C81 O78 1.259 . S
C82 O79 1.252 . S
C82 O80 1.273 . S
O83 Mg70 2.010 . S
O83 C75 1.249 . S
Mg84 O85 2.028 . S
Mg84 O91 1.986 . S
Mg84 O93 2.114 . S
Mg84 O94 2.251 . S
Mg84 O97 2.010 . S
O85 Mg84 2.028 . S
O85 C88 1.250 . S
O86 Mg87 2.028 . S
O86 C88 1.248 . S
Mg87 O86 2.028 . S
Mg87 O92 2.032 . S
Mg87 O94 2.079 . S
C88 O85 1.250 . S
C88 O86 1.248 . S
C89 O90 1.264 . S
C89 O97 1.249 . S
O90 C89 1.264 . S
O91 Mg84 1.986 . S
O91 C95 1.246 . S
O92 Mg87 2.032 . S
O92 C95 1.259 . S
O93 Mg84 2.114 . S
O93 C96 1.252 . S
O94 Mg84 2.251 . S
O94 Mg87 2.079 . S
O94 C96 1.273 . S
C95 O91 1.246 . S
C95 O92 1.259 . S
C96 O93 1.252 . S
C96 O94 1.273 . S
O97 Mg84 2.010 . S
O97 C89 1.249 . S
Mg98 O99 2.028 1_554 S
Mg98 O105 1.986 . S
Mg98 O107 2.114 1_554 S
Mg98 O108 2.251 . S
Mg98 O111 2.010 . S
O99 Mg98 2.028 1_556 S
O99 C102 1.250 . S
O100 Mg101 2.028 1_556 S
O100 C102 1.248 . S
Mg101 O100 2.028 1_554 S
Mg101 O106 2.032 . S
Mg101 O108 2.079 . S
C102 O99 1.250 . S
C102 O100 1.248 . S
C103 O104 1.264 . S
C103 O111 1.249 . S
O104 C103 1.264 . S
O105 Mg98 1.986 . S
O105 C109 1.246 . S
O106 Mg101 2.032 . S
O106 C109 1.259 . S
O107 Mg98 2.114 1_556 S
O107 C110 1.252 1_556 S
O108 Mg98 2.251 . S
O108 Mg101 2.079 . S
O108 C110 1.273 . S
C109 O105 1.246 . S
C109 O106 1.259 . S
C110 O107 1.252 1_554 S
C110 O108 1.273 . S
O111 Mg98 2.010 . S
O111 C103 1.249 . S
C112 C113 1.170 . S
C112 C114 1.380 . S
C113 C112 1.170 . S
C114 C112 1.380 . S
C114 C115 1.170 . S
C115 C114 1.170 . S
C116 C117 1.170 . S
C116 C118 1.380 . S
C117 C116 1.170 . S
C118 C116 1.380 . S
C118 C119 1.170 . S
C119 C118 1.170 . S
C120 C121 1.170 . S
C120 C122 1.380 1_554 S
C121 C120 1.170 . S
C122 C120 1.380 1_556 S
C122 C123 1.170 . S
C123 C122 1.170 . S
C124 C125 1.170 . S
C124 C126 1.380 . S
C125 C124 1.170 . S
C126 C124 1.380 . S
C126 C127 1.170 . S
C127 C126 1.170 . S
C128 C129 1.170 . S
C128 C130 1.380 . S
C129 C128 1.170 . S
C130 C128 1.380 . S
C130 C131 1.170 . S
C131 C130 1.170 . S
C132 C133 1.170 . S
C132 C134 1.380 . S
C133 C132 1.170 . S
C134 C132 1.380 . S
C134 C135 1.170 . S
C135 C134 1.170 . S
C136 C137 1.170 . S
C136 C138 1.380 . S
C137 C136 1.170 . S
C138 C136 1.380 . S
C138 C139 1.170 . S
C139 C138 1.170 . S
C140 C141 1.170 . S
C140 C142 1.380 . S
C141 C140 1.170 . S
C142 C140 1.380 . S
C142 C143 1.170 . S
C143 C142 1.170 . S
C144 C145 1.170 . S
C144 C146 1.380 1_565 S
C145 C144 1.170 . S
C146 C144 1.380 1_545 S
C146 C147 1.170 . S
C147 C146 1.170 . S
C148 C149 1.170 . S
C148 C150 1.380 1_655 S
C149 C148 1.170 . S
C150 C148 1.380 1_455 S
C150 C151 1.170 . S
C151 C150 1.170 . S
C152 C153 1.170 . S
C152 C154 1.380 1_565 S
C153 C152 1.170 . S
C154 C152 1.380 1_545 S
C154 C155 1.170 . S
C155 C154 1.170 . S
C156 C157 1.170 . S
C156 C158 1.380 1_655 S
C157 C156 1.170 . S
C158 C156 1.380 1_455 S
C158 C159 1.170 . S
C159 C158 1.170 . S
C160 C161 1.170 . S
C160 C162 1.380 1_556 S
C161 C160 1.170 . S
C162 C160 1.380 1_554 S
C162 C163 1.170 . S
C163 C162 1.170 . S
C164 C165 1.170 . S
C164 C166 1.380 . S
C165 C164 1.170 . S
C166 C164 1.380 . S
C166 C167 1.170 . S
C167 C166 1.170 . S
C168 C169 1.170 . S
C168 C170 1.380 . S
C169 C168 1.170 . S
C170 C168 1.380 . S
C170 C171 1.170 . S
C171 C170 1.170 . S
C172 C173 1.170 . S
C172 C174 1.380 . S
C173 C172 1.170 . S
C174 C172 1.380 . S
C174 C175 1.170 . S
C175 C174 1.170 . S
C113 C4 1.423 . S
C115 C88 1.434 . S
C117 C18 1.403 . S
C119 C102 1.415 . S
C121 C60 1.435 . S
C123 C32 1.425 . S
C125 C74 1.424 . S
C127 C46 1.435 . S
C129 C5 1.228 . S
C131 C75 1.222 . S
C133 C19 1.241 . S
C135 C89 1.179 . S
C137 C103 1.187 1_556 S
C139 C33 1.245 . S
C141 C47 1.244 . S
C143 C61 1.195 . S
C145 C68 1.364 . S
C147 C12 1.374 . S
C149 C26 1.365 . S
C151 C82 1.374 . S
C153 C40 1.363 . S
C155 C96 1.354 . S
C157 C110 1.372 . S
C159 C54 1.359 . S
C161 C95 1.280 . S
C163 C11 1.322 . S
C165 C109 1.316 . S
C167 C25 1.279 . S
C169 C39 1.299 . S
C171 C67 1.329 . S
C173 C53 1.309 . S
C175 C81 1.325 . S
