# Generated by pormake.
# Topology uog, (4)-cn, num edge types: 1
# Building blocks:
#     Node 0, Type 0, BuildingBlock: CEKHIL_clean_sbu_0, # of connection points: 4
#     Node 1, Type 0, BuildingBlock: CEKHIL_clean_sbu_0, # of connection points: 4
#     Node 2, Type 0, BuildingBlock: CEKHIL_clean_sbu_0, # of connection points: 4
#     Node 3, Type 0, BuildingBlock: CEKHIL_clean_sbu_0, # of connection points: 4
#     Node 4, Type 0, BuildingBlock: CEKHIL_clean_sbu_0, # of connection points: 4
#     Node 5, Type 0, BuildingBlock: CEKHIL_clean_sbu_0, # of connection points: 4
#     Edge 6, Type (0, 0), None
#     Edge 7, Type (0, 0), None
#     Edge 8, Type (0, 0), None
#     Edge 9, Type (0, 0), None
#     Edge 10, Type (0, 0), None
#     Edge 11, Type (0, 0), None
#     Edge 12, Type (0, 0), None
#     Edge 13, Type (0, 0), None
#     Edge 14, Type (0, 0), None
#     Edge 15, Type (0, 0), None
#     Edge 16, Type (0, 0), None
#     Edge 17, Type (0, 0), None
# Relax obj value: 0.068
# Max RMSD: 0.161
# Mean RMSD: 0.161
data_MOF--net-uog--node1-CEKHIL_clean_sbu_0--edge1-none
_symmetry_space_group_name_H-M    P1
_symmetry_Int_Tables_number       1
_symmetry_cell_setting            triclinic
loop_
_symmetry_equiv_pos_as_xyz
'x, y, z'
_cell_length_a     13.06855
_cell_length_b     13.072938
_cell_length_c     18.096603
_cell_angle_alpha  90.000543
_cell_angle_beta   90.000499
_cell_angle_gamma 120.03384
loop_
_atom_site_label
_atom_site_type_symbol
_atom_site_fract_x
_atom_site_fract_y
_atom_site_fract_z
_atom_type_partial_charge
Co0 Co 0.5731 0.25245 0.17621 0.0
O1 O 0.62415 0.13851 0.1663 0.0
O2 O 0.44152 0.09968 0.14693 0.0
C3 C 0.65244 0.3041 0.28943 0.0
O4 O 0.50103 0.36322 0.18363 0.0
Co5 Co 0.7635 0.49799 0.17238 0.0
O6 O 0.6506 0.55112 0.19374 0.0
C7 C 0.68105 0.37728 0.03161 0.0
C8 C 0.51749 0.06238 0.14956 0.0
C9 C 0.54113 0.47636 0.19151 0.0
O10 O 0.60692 0.29021 0.06949 0.0
O11 O 0.76329 0.47017 0.06232 0.0
O12 O 0.54617 0.22039 0.27892 0.0
O13 O 0.7167 0.35387 0.23062 0.0
Co14 Co 0.32084 0.57311 0.50958 0.0
O15 O 0.48589 0.62412 0.4996 0.0
O16 O 0.34184 0.44152 0.48031 0.0
C17 C 0.34873 0.65253 0.62277 0.0
O18 O 0.13792 0.50103 0.51708 0.0
Co19 Co 0.26576 0.76344 0.50575 0.0
O20 O 0.09963 0.65051 0.5272 0.0
C21 C 0.30393 0.68095 0.36498 0.0
C22 C 0.4552 0.51746 0.48289 0.0
C23 C 0.06488 0.54109 0.52498 0.0
O24 O 0.31679 0.60683 0.40286 0.0
O25 O 0.29338 0.7632 0.3957 0.0
O26 O 0.3261 0.54629 0.61229 0.0
O27 O 0.36316 0.71669 0.56394 0.0
Co28 Co 0.74777 0.32072 0.84284 0.0
O29 O 0.86179 0.48572 0.83281 0.0
O30 O 0.9004 0.34181 0.81349 0.0
C31 C 0.69632 0.34856 0.95605 0.0
O32 O 0.63699 0.13788 0.85037 0.0
Co33 Co 0.50215 0.26537 0.83911 0.0
O34 O 0.44906 0.09935 0.86056 0.0
C35 C 0.62275 0.30366 0.6983 0.0
C36 C 0.93781 0.45512 0.81607 0.0
C37 C 0.52385 0.06476 0.85831 0.0
O38 O 0.70984 0.31658 0.73614 0.0
O39 O 0.52992 0.29303 0.72905 0.0
O40 O 0.77999 0.32604 0.94553 0.0
O41 O 0.64643 0.36288 0.89726 0.0
Co42 Co 0.42723 0.74776 0.1762 0.0
O43 O 0.37619 0.8617 0.1663 0.0
O44 O 0.55883 0.90052 0.14691 0.0
C45 C 0.34793 0.69619 0.28942 0.0
O46 O 0.49931 0.63698 0.18362 0.0
Co47 Co 0.23686 0.50224 0.17239 0.0
O48 O 0.34975 0.44909 0.19377 0.0
C49 C 0.31926 0.62289 0.03161 0.0
C50 C 0.48285 0.93782 0.14957 0.0
C51 C 0.45922 0.52386 0.19152 0.0
O52 O 0.39337 0.70998 0.06948 0.0
O53 O 0.23705 0.52999 0.06234 0.0
O54 O 0.45422 0.77984 0.2789 0.0
O55 O 0.28364 0.64636 0.23063 0.0
Co56 Co 0.67942 0.42713 0.50957 0.0
O57 O 0.51437 0.37612 0.49959 0.0
O58 O 0.65844 0.55873 0.4803 0.0
C59 C 0.65149 0.34771 0.62275 0.0
O60 O 0.86234 0.49921 0.51707 0.0
Co61 Co 0.73452 0.2368 0.50574 0.0
O62 O 0.90064 0.34973 0.52721 0.0
C63 C 0.69649 0.31937 0.36498 0.0
C64 C 0.54508 0.48279 0.4829 0.0
C65 C 0.93538 0.45916 0.52499 0.0
O66 O 0.68348 0.39341 0.40285 0.0
O67 O 0.70702 0.23711 0.39568 0.0
O68 O 0.67417 0.45396 0.61228 0.0
O69 O 0.6371 0.28354 0.56393 0.0
Co70 Co 0.25245 0.6794 0.84285 0.0
O71 O 0.13843 0.51439 0.83282 0.0
O72 O 0.09983 0.65832 0.81351 0.0
C73 C 0.30395 0.65158 0.95605 0.0
O74 O 0.36323 0.86224 0.85038 0.0
Co75 Co 0.4981 0.73475 0.8391 0.0
O76 O 0.55117 0.90077 0.86055 0.0
C77 C 0.3775 0.69661 0.69831 0.0
C78 C 0.06242 0.54502 0.8161 0.0
C79 C 0.47637 0.93536 0.85832 0.0
O80 O 0.29037 0.68355 0.73615 0.0
O81 O 0.47034 0.70719 0.72904 0.0
O82 O 0.22025 0.67408 0.94555 0.0
O83 O 0.35382 0.63727 0.89725 0.0
loop_
_geom_bond_atom_site_label_1
_geom_bond_atom_site_label_2
_geom_bond_distance
_geom_bond_site_symmetry_2
_ccdc_geom_bond_type
Co0 O1 2.216 . S
Co0 O2 2.091 . S
Co0 O4 2.004 . S
Co0 O10 2.021 . S
Co0 O12 2.137 . S
Co0 O13 2.244 . S
O1 Co0 2.216 . S
O1 C8 1.247 . S
O2 Co0 2.091 . S
O2 C8 1.261 . S
C3 O12 1.247 . S
C3 O13 1.272 . S
O4 Co0 2.004 . S
O4 C9 1.259 . S
Co5 O6 2.061 . S
Co5 O11 2.052 . S
Co5 O13 2.135 . S
O6 Co5 2.061 . S
O6 C9 1.235 . S
C7 O10 1.238 . S
C7 O11 1.241 . S
C8 O1 1.247 . S
C8 O2 1.261 . S
C9 O4 1.259 . S
C9 O6 1.235 . S
O10 Co0 2.021 . S
O10 C7 1.238 . S
O11 Co5 2.052 . S
O11 C7 1.241 . S
O12 Co0 2.137 . S
O12 C3 1.247 . S
O13 Co0 2.244 . S
O13 C3 1.272 . S
O13 Co5 2.135 . S
Co14 O15 2.216 . S
Co14 O16 2.091 . S
Co14 O18 2.004 . S
Co14 O24 2.021 . S
Co14 O26 2.137 . S
Co14 O27 2.244 . S
O15 Co14 2.216 . S
O15 C22 1.247 . S
O16 Co14 2.091 . S
O16 C22 1.261 . S
C17 O26 1.247 . S
C17 O27 1.272 . S
O18 Co14 2.004 . S
O18 C23 1.259 . S
Co19 O20 2.061 . S
Co19 O25 2.052 . S
Co19 O27 2.135 . S
O20 Co19 2.061 . S
O20 C23 1.235 . S
C21 O24 1.238 . S
C21 O25 1.241 . S
C22 O15 1.247 . S
C22 O16 1.261 . S
C23 O18 1.259 . S
C23 O20 1.235 . S
O24 Co14 2.021 . S
O24 C21 1.238 . S
O25 Co19 2.052 . S
O25 C21 1.241 . S
O26 Co14 2.137 . S
O26 C17 1.247 . S
O27 Co14 2.244 . S
O27 C17 1.272 . S
O27 Co19 2.135 . S
Co28 O29 2.216 . S
Co28 O30 2.091 . S
Co28 O32 2.004 . S
Co28 O38 2.021 . S
Co28 O40 2.137 . S
Co28 O41 2.244 . S
O29 Co28 2.216 . S
O29 C36 1.247 . S
O30 Co28 2.091 . S
O30 C36 1.261 . S
C31 O40 1.247 . S
C31 O41 1.272 . S
O32 Co28 2.004 . S
O32 C37 1.259 . S
Co33 O34 2.061 . S
Co33 O39 2.052 . S
Co33 O41 2.135 . S
O34 Co33 2.061 . S
O34 C37 1.235 . S
C35 O38 1.238 . S
C35 O39 1.241 . S
C36 O29 1.247 . S
C36 O30 1.261 . S
C37 O32 1.259 . S
C37 O34 1.235 . S
O38 Co28 2.021 . S
O38 C35 1.238 . S
O39 Co33 2.052 . S
O39 C35 1.241 . S
O40 Co28 2.137 . S
O40 C31 1.247 . S
O41 Co28 2.244 . S
O41 C31 1.272 . S
O41 Co33 2.135 . S
Co42 O43 2.216 . S
Co42 O44 2.091 . S
Co42 O46 2.004 . S
Co42 O52 2.021 . S
Co42 O54 2.137 . S
Co42 O55 2.244 . S
O43 Co42 2.216 . S
O43 C50 1.247 . S
O44 Co42 2.091 . S
O44 C50 1.261 . S
C45 O54 1.247 . S
C45 O55 1.272 . S
O46 Co42 2.004 . S
O46 C51 1.259 . S
Co47 O48 2.061 . S
Co47 O53 2.052 . S
Co47 O55 2.135 . S
O48 Co47 2.061 . S
O48 C51 1.235 . S
C49 O52 1.238 . S
C49 O53 1.241 . S
C50 O43 1.247 . S
C50 O44 1.261 . S
C51 O46 1.259 . S
C51 O48 1.235 . S
O52 Co42 2.021 . S
O52 C49 1.238 . S
O53 Co47 2.052 . S
O53 C49 1.241 . S
O54 Co42 2.137 . S
O54 C45 1.247 . S
O55 Co42 2.244 . S
O55 C45 1.272 . S
O55 Co47 2.135 . S
Co56 O57 2.216 . S
Co56 O58 2.091 . S
Co56 O60 2.004 . S
Co56 O66 2.021 . S
Co56 O68 2.137 . S
Co56 O69 2.244 . S
O57 Co56 2.216 . S
O57 C64 1.247 . S
O58 Co56 2.091 . S
O58 C64 1.261 . S
C59 O68 1.247 . S
C59 O69 1.272 . S
O60 Co56 2.004 . S
O60 C65 1.259 . S
Co61 O62 2.061 . S
Co61 O67 2.052 . S
Co61 O69 2.135 . S
O62 Co61 2.061 . S
O62 C65 1.235 . S
C63 O66 1.238 . S
C63 O67 1.241 . S
C64 O57 1.247 . S
C64 O58 1.261 . S
C65 O60 1.259 . S
C65 O62 1.235 . S
O66 Co56 2.021 . S
O66 C63 1.238 . S
O67 Co61 2.052 . S
O67 C63 1.241 . S
O68 Co56 2.137 . S
O68 C59 1.247 . S
O69 Co56 2.244 . S
O69 C59 1.272 . S
O69 Co61 2.135 . S
Co70 O71 2.216 . S
Co70 O72 2.091 . S
Co70 O74 2.004 . S
Co70 O80 2.021 . S
Co70 O82 2.137 . S
Co70 O83 2.244 . S
O71 Co70 2.216 . S
O71 C78 1.247 . S
O72 Co70 2.091 . S
O72 C78 1.261 . S
C73 O82 1.247 . S
C73 O83 1.272 . S
O74 Co70 2.004 . S
O74 C79 1.259 . S
Co75 O76 2.061 . S
Co75 O81 2.052 . S
Co75 O83 2.135 . S
O76 Co75 2.061 . S
O76 C79 1.235 . S
C77 O80 1.238 . S
C77 O81 1.241 . S
C78 O71 1.247 . S
C78 O72 1.261 . S
C79 O74 1.259 . S
C79 O76 1.235 . S
O80 Co70 2.021 . S
O80 C77 1.238 . S
O81 Co75 2.052 . S
O81 C77 1.241 . S
O82 Co70 2.137 . S
O82 C73 1.247 . S
O83 Co70 2.244 . S
O83 C73 1.272 . S
O83 Co75 2.135 . S
C8 C50 1.456 1_545 S
C22 C64 1.456 . S
C36 C78 1.456 1_655 S
C23 C65 1.461 1_455 S
C79 C37 1.461 1_565 S
C51 C9 1.461 . S
C31 C7 1.777 1_556 S
C45 C21 1.777 . S
C35 C59 1.777 . S
C73 C49 1.777 1_556 S
C63 C3 1.777 . S
C77 C17 1.777 . S
