# Generated by pormake.
# Topology tfs, (6)-cn, num edge types: 1
# Building blocks:
#     Node 0, Type 0, BuildingBlock: LEVNOQ01_clean_sbu_1, # of connection points: 6
#     Node 1, Type 0, BuildingBlock: LEVNOQ01_clean_sbu_1, # of connection points: 6
#     Node 2, Type 0, BuildingBlock: LEVNOQ01_clean_sbu_1, # of connection points: 6
#     Node 3, Type 0, BuildingBlock: LEVNOQ01_clean_sbu_1, # of connection points: 6
#     Node 4, Type 0, BuildingBlock: LEVNOQ01_clean_sbu_1, # of connection points: 6
#     Node 5, Type 0, BuildingBlock: LEVNOQ01_clean_sbu_1, # of connection points: 6
#     Edge 6, Type (0, 0), BuildingBlock: EYOCIG_clean_linker_4, # of connection points: 2
#     Edge 7, Type (0, 0), BuildingBlock: EYOCIG_clean_linker_4, # of connection points: 2
#     Edge 8, Type (0, 0), BuildingBlock: EYOCIG_clean_linker_4, # of connection points: 2
#     Edge 9, Type (0, 0), BuildingBlock: EYOCIG_clean_linker_4, # of connection points: 2
#     Edge 10, Type (0, 0), BuildingBlock: EYOCIG_clean_linker_4, # of connection points: 2
#     Edge 11, Type (0, 0), BuildingBlock: EYOCIG_clean_linker_4, # of connection points: 2
#     Edge 12, Type (0, 0), BuildingBlock: EYOCIG_clean_linker_4, # of connection points: 2
#     Edge 13, Type (0, 0), BuildingBlock: EYOCIG_clean_linker_4, # of connection points: 2
#     Edge 14, Type (0, 0), BuildingBlock: EYOCIG_clean_linker_4, # of connection points: 2
#     Edge 15, Type (0, 0), BuildingBlock: EYOCIG_clean_linker_4, # of connection points: 2
#     Edge 16, Type (0, 0), BuildingBlock: EYOCIG_clean_linker_4, # of connection points: 2
#     Edge 17, Type (0, 0), BuildingBlock: EYOCIG_clean_linker_4, # of connection points: 2
#     Edge 18, Type (0, 0), BuildingBlock: EYOCIG_clean_linker_4, # of connection points: 2
#     Edge 19, Type (0, 0), BuildingBlock: EYOCIG_clean_linker_4, # of connection points: 2
#     Edge 20, Type (0, 0), BuildingBlock: EYOCIG_clean_linker_4, # of connection points: 2
#     Edge 21, Type (0, 0), BuildingBlock: EYOCIG_clean_linker_4, # of connection points: 2
#     Edge 22, Type (0, 0), BuildingBlock: EYOCIG_clean_linker_4, # of connection points: 2
#     Edge 23, Type (0, 0), BuildingBlock: EYOCIG_clean_linker_4, # of connection points: 2
# Relax obj value: 0.217
# Max RMSD: 0.175
# Mean RMSD: 0.175
data_MOF--net-tfs--node1-LEVNOQ01_clean_sbu_1--edge1-EYOCIG_clean_linker_4
_symmetry_space_group_name_H-M    P1
_symmetry_Int_Tables_number       1
_symmetry_cell_setting            triclinic
loop_
_symmetry_equiv_pos_as_xyz
'x, y, z'
_cell_length_a     34.366788
_cell_length_b     34.376304
_cell_length_c     13.177597
_cell_angle_alpha  89.99691
_cell_angle_beta   89.975404
_cell_angle_gamma 120.00823
loop_
_atom_site_label
_atom_site_type_symbol
_atom_site_fract_x
_atom_site_fract_y
_atom_site_fract_z
_atom_type_partial_charge
O0 O 0.2973 0.46929 0.02117 0.0
Mg1 Mg 0.24727 0.40826 0.07643 0.0
O2 O 0.24034 0.47821 0.97899 0.0
Mg3 Mg 0.1723 0.4078 0.97938 0.0
O4 O 0.2018 0.35813 -0.01693 0.0
O5 O 0.26169 0.35947 0.05749 0.0
O6 O 0.1023 0.34021 0.97662 0.0
O7 O 0.17451 0.40701 0.80101 0.0
Mg8 Mg 0.08752 0.41806 0.88236 0.0
O9 O 0.14208 0.4525 0.96955 0.0
O10 O 0.04702 0.35535 0.9511 0.0
O11 O 0.11668 0.41389 0.74385 0.0
O12 O 0.09897 0.48095 0.93244 0.0
C13 C 0.18863 0.40834 0.23466 0.0
C14 C 0.28239 0.49423 -0.00757 0.0
C15 C 0.22619 0.33955 0.00186 0.0
C16 C 0.06053 0.32792 0.97041 0.0
C17 C 0.1509 0.40963 0.72867 0.0
C18 C 0.1358 0.48639 0.97075 0.0
O19 O 0.22501 0.40834 0.22292 0.0
O20 O 0.16558 0.40835 0.1585 0.0
O21 O 0.81366 0.30402 0.02105 0.0
Mg22 Mg 0.82466 0.25401 0.07629 0.0
O23 O 0.74777 0.24706 0.97892 0.0
Mg24 Mg 0.75018 0.17905 0.97927 0.0
O25 O 0.82938 0.20857 -0.01708 0.0
O26 O 0.88791 0.26847 0.05738 0.0
O27 O 0.7478 0.10908 0.97646 0.0
O28 O 0.75319 0.18125 0.8009 0.0
Mg29 Mg 0.65513 0.09426 0.88227 0.0
O30 O 0.67525 0.14881 0.96947 0.0
O31 O 0.67738 0.0538 0.95097 0.0
O32 O 0.68848 0.12342 0.74376 0.0
O33 O 0.60366 0.1057 0.9324 0.0
C34 C 0.76595 0.19539 0.23455 0.0
C35 C 0.77381 0.28911 -0.00766 0.0
C36 C 0.87236 0.23298 0.00174 0.0
C37 C 0.71833 0.06732 0.97025 0.0
C38 C 0.72695 0.15764 0.72857 0.0
C39 C 0.63507 0.14254 0.97069 0.0
O40 O 0.80232 0.23177 0.22279 0.0
O41 O 0.7429 0.17233 0.15839 0.0
O42 O 0.49548 0.82045 0.02106 0.0
Mg43 Mg 0.5565 0.83142 0.0762 0.0
O44 O 0.48656 0.75459 0.9788 0.0
Mg45 Mg 0.557 0.75701 0.9791 0.0
O46 O 0.6067 0.8362 -0.01725 0.0
O47 O 0.60526 0.89467 0.05737 0.0
O48 O 0.62461 0.75463 0.97624 0.0
O49 O 0.55781 0.76001 0.80073 0.0
Mg50 Mg 0.54674 0.66198 0.88201 0.0
O51 O 0.5123 0.6821 0.96929 0.0
O52 O 0.60946 0.68422 0.95066 0.0
O53 O 0.55092 0.69532 0.74352 0.0
O54 O 0.48383 0.61053 0.93218 0.0
C55 C 0.55643 0.77276 0.2344 0.0
C56 C 0.47054 0.78061 -0.00769 0.0
C57 C 0.62523 0.87916 0.00164 0.0
C58 C 0.6369 0.72516 0.96998 0.0
C59 C 0.55519 0.73379 0.72838 0.0
C60 C 0.47839 0.64192 0.97053 0.0
O61 O 0.55641 0.80912 0.22269 0.0
O62 O 0.55644 0.74973 0.15821 0.0
O63 O 0.66064 0.50215 0.02119 0.0
Mg64 Mg 0.71066 0.5632 0.0763 0.0
O65 O 0.71759 0.49324 0.97875 0.0
Mg66 Mg 0.78563 0.56364 0.97905 0.0
O67 O 0.75614 0.61331 -0.01721 0.0
O68 O 0.69624 0.61199 0.05733 0.0
O69 O 0.85565 0.63123 0.97621 0.0
O70 O 0.78345 0.56446 0.80068 0.0
Mg71 Mg 0.87042 0.55338 0.88185 0.0
O72 O 0.81585 0.51895 0.96916 0.0
O73 O 0.91091 0.61609 0.9505 0.0
O74 O 0.84127 0.55756 0.7434 0.0
O75 O 0.85896 0.49048 0.93197 0.0
C76 C 0.7693 0.5631 0.23438 0.0
C77 C 0.67554 0.47722 -0.00766 0.0
C78 C 0.73174 0.6319 0.00161 0.0
C79 C 0.89741 0.64351 0.9699 0.0
C80 C 0.80706 0.56183 0.7283 0.0
C81 C 0.82212 0.48505 0.97036 0.0
O82 O 0.73294 0.56313 0.22273 0.0
O83 O 0.79233 0.56307 0.15816 0.0
O84 O 0.14429 0.66744 0.02156 0.0
Mg85 Mg 0.13322 0.71743 0.07664 0.0
O86 O 0.21015 0.72438 0.97894 0.0
Mg87 Mg 0.20776 0.79239 0.9793 0.0
O88 O 0.12856 0.76285 -0.01694 0.0
O89 O 0.06998 0.70299 0.05764 0.0
O90 O 0.21014 0.86236 0.9765 0.0
O91 O 0.20477 0.79021 0.80093 0.0
Mg92 Mg 0.30283 0.8772 0.88211 0.0
O93 O 0.28269 0.82264 0.96937 0.0
O94 O 0.28056 0.91764 0.95084 0.0
O95 O 0.26949 0.84804 0.74366 0.0
O96 O 0.35428 0.86574 0.93218 0.0
C97 C 0.19195 0.77609 0.23465 0.0
C98 C 0.18412 0.68234 -0.0074 0.0
C99 C 0.08557 0.73846 0.00188 0.0
C100 C 0.23961 0.90412 0.97022 0.0
C101 C 0.23101 0.81383 0.72855 0.0
C102 C 0.32287 0.82891 0.97055 0.0
O103 O 0.15554 0.73974 0.22304 0.0
O104 O 0.21502 0.79909 0.1584 0.0
O105 O 0.46245 0.151 0.02122 0.0
Mg106 Mg 0.4014 0.13999 0.0764 0.0
O107 O 0.47137 0.21685 0.97884 0.0
Mg108 Mg 0.40094 0.21444 0.97924 0.0
O109 O 0.35125 0.13525 -0.01703 0.0
O110 O 0.35264 0.07675 0.0576 0.0
O111 O 0.33332 0.21681 0.9765 0.0
O112 O 0.40014 0.21144 0.80087 0.0
Mg113 Mg 0.4112 0.30946 0.88211 0.0
O114 O 0.44563 0.28935 0.96934 0.0
O115 O 0.34847 0.28722 0.95088 0.0
O116 O 0.40703 0.27614 0.74364 0.0
O117 O 0.4741 0.36092 0.93217 0.0
C118 C 0.40146 0.19866 0.23456 0.0
C119 C 0.48739 0.19083 -0.00763 0.0
C120 C 0.3327 0.09228 0.00187 0.0
C121 C 0.32103 0.24628 0.97025 0.0
C122 C 0.40276 0.23767 0.72851 0.0
C123 C 0.47954 0.32952 0.97052 0.0
O124 O 0.40145 0.16229 0.22287 0.0
O125 O 0.40148 0.2217 0.15835 0.0
C126 C 0.24252 0.23929 0.96823 0.0
C127 C 0.27448 0.2338 0.97341 0.0
C128 C 0.21902 0.26312 0.96148 0.0
C129 C 0.2138 0.29518 0.96828 0.0
C130 C -0.01098 0.2494 0.96823 0.0
C131 C 0.02646 0.28137 0.97348 0.0
C132 C 0.94168 0.22587 0.96141 0.0
C133 C 0.90437 0.22063 0.96818 0.0
C134 C 0.72539 -0.00415 0.96804 0.0
C135 C 0.73083 0.03327 0.97329 0.0
C136 C 0.70162 0.94853 0.96123 0.0
C137 C 0.6696 0.91121 0.96802 0.0
C138 C 0.73891 0.70832 0.96111 0.0
C139 C 0.74413 0.67626 0.96795 0.0
C140 C 0.71541 0.73215 0.96786 0.0
C141 C 0.68345 0.73763 0.97308 0.0
C142 C 0.01628 0.74555 0.96122 0.0
C143 C 0.05358 0.7508 0.96813 0.0
C144 C 0.96894 0.72202 0.96789 0.0
C145 C 0.93149 0.69005 0.97307 0.0
C146 C 0.23256 0.9756 0.96816 0.0
C147 C 0.22712 0.93817 0.97336 0.0
C148 C 0.25633 0.02293 0.96142 0.0
C149 C 0.28835 0.06024 0.96823 0.0
C150 C 0.20208 0.61704 -0.00905 0.0
C151 C 0.2002 0.6511 -0.01294 0.0
C152 C 0.19103 0.57165 -0.00267 0.0
C153 C 0.17108 0.53125 -0.00832 0.0
C154 C 0.57068 0.20881 -0.0092 0.0
C155 C 0.53473 0.20693 -0.01311 0.0
C156 C 0.60503 0.19776 -0.00279 0.0
C157 C 0.62548 0.17781 -0.00842 0.0
C158 C 0.3931 0.61186 -0.00278 0.0
C159 C 0.43352 0.63232 -0.00847 0.0
C160 C 0.34771 0.5775 -0.00913 0.0
C161 C 0.31364 0.54155 -0.01302 0.0
C162 C 0.76689 0.39979 -0.00289 0.0
C163 C 0.78684 0.44019 -0.00861 0.0
C164 C 0.75583 0.3544 -0.00923 0.0
C165 C 0.75772 0.32034 -0.01312 0.0
C166 C 0.3529 0.77369 -0.00283 0.0
C167 C 0.33246 0.79364 -0.0085 0.0
C168 C 0.38725 0.76264 -0.00922 0.0
C169 C 0.4232 0.76452 -0.01314 0.0
C170 C 0.61022 0.39395 -0.00922 0.0
C171 C 0.64428 0.4299 -0.01314 0.0
C172 C 0.56482 0.35959 -0.00284 0.0
C173 C 0.52441 0.33913 -0.00851 0.0
C174 C 0.16634 0.40748 0.53411 0.0
C175 C 0.16246 0.40806 0.62489 0.0
C176 C 0.16891 0.40761 0.42723 0.0
C177 C 0.17413 0.40795 0.33675 0.0
C178 C 0.74454 0.17309 0.534 0.0
C179 C 0.74007 0.1692 0.62478 0.0
C180 C 0.74697 0.17566 0.42711 0.0
C181 C 0.75184 0.18088 0.33664 0.0
C182 C 0.55732 0.75136 0.53382 0.0
C183 C 0.55675 0.7469 0.6246 0.0
C184 C 0.55719 0.75379 0.42694 0.0
C185 C 0.55684 0.75866 0.33647 0.0
C186 C 0.79161 0.56397 0.53377 0.0
C187 C 0.7955 0.56339 0.62454 0.0
C188 C 0.78903 0.56384 0.42689 0.0
C189 C 0.78381 0.56349 0.33643 0.0
C190 C 0.21098 0.79583 0.42715 0.0
C191 C 0.20609 0.7906 0.33669 0.0
C192 C 0.21343 0.7984 0.53402 0.0
C193 C 0.2179 0.80228 0.62479 0.0
C194 C 0.40061 0.22009 0.53397 0.0
C195 C 0.40119 0.22455 0.62474 0.0
C196 C 0.40073 0.21765 0.42709 0.0
C197 C 0.40107 0.21277 0.33662 0.0
loop_
_geom_bond_atom_site_label_1
_geom_bond_atom_site_label_2
_geom_bond_distance
_geom_bond_site_symmetry_2
_ccdc_geom_bond_type
O0 Mg1 1.990 . S
O0 C14 1.253 . S
Mg1 O0 1.990 . S
Mg1 O4 2.180 . S
Mg1 O5 2.117 . S
Mg1 O19 2.030 . S
O2 Mg3 2.072 . S
O2 C14 1.260 . S
Mg3 O2 2.072 . S
Mg3 O4 2.099 . S
Mg3 O6 2.079 . S
Mg3 O7 2.072 1_554 S
Mg3 O9 2.099 1_554 S
Mg3 O20 2.079 . S
O4 Mg1 2.180 . S
O4 Mg3 2.099 . S
O4 C15 1.279 . S
O5 Mg1 2.117 . S
O5 C15 1.250 . S
O6 Mg3 2.079 . S
O6 C16 1.264 1_554 S
O7 Mg3 2.072 1_556 S
O7 C17 1.260 . S
Mg8 O9 2.180 . S
Mg8 O10 2.030 . S
Mg8 O11 1.990 . S
Mg8 O12 2.117 . S
O9 Mg3 2.099 1_556 S
O9 Mg8 2.180 . S
O9 C18 1.279 . S
O10 Mg8 2.030 . S
O10 C16 1.248 . S
O11 Mg8 1.990 . S
O11 C17 1.253 . S
O12 Mg8 2.117 . S
O12 C18 1.250 . S
C13 O19 1.248 . S
C13 O20 1.264 . S
C14 O0 1.253 . S
C14 O2 1.260 . S
C15 O4 1.279 . S
C15 O5 1.250 . S
C16 O6 1.264 1_556 S
C16 O10 1.248 . S
C17 O7 1.260 . S
C17 O11 1.253 . S
C18 O9 1.279 . S
C18 O12 1.250 . S
O19 Mg1 2.030 . S
O19 C13 1.248 . S
O20 Mg3 2.079 . S
O20 C13 1.264 . S
O21 Mg22 1.990 . S
O21 C35 1.253 . S
Mg22 O21 1.990 . S
Mg22 O25 2.180 . S
Mg22 O26 2.117 . S
Mg22 O40 2.030 . S
O23 Mg24 2.072 . S
O23 C35 1.260 . S
Mg24 O23 2.072 . S
Mg24 O25 2.099 . S
Mg24 O27 2.079 . S
Mg24 O28 2.072 1_554 S
Mg24 O30 2.099 1_554 S
Mg24 O41 2.079 . S
O25 Mg22 2.180 . S
O25 Mg24 2.099 . S
O25 C36 1.279 . S
O26 Mg22 2.117 . S
O26 C36 1.250 . S
O27 Mg24 2.079 . S
O27 C37 1.264 1_554 S
O28 Mg24 2.072 1_556 S
O28 C38 1.260 . S
Mg29 O30 2.180 . S
Mg29 O31 2.030 . S
Mg29 O32 1.990 . S
Mg29 O33 2.117 . S
O30 Mg24 2.099 1_556 S
O30 Mg29 2.180 . S
O30 C39 1.279 . S
O31 Mg29 2.030 . S
O31 C37 1.248 . S
O32 Mg29 1.990 . S
O32 C38 1.253 . S
O33 Mg29 2.117 . S
O33 C39 1.250 . S
C34 O40 1.248 . S
C34 O41 1.264 . S
C35 O21 1.253 . S
C35 O23 1.260 . S
C36 O25 1.279 . S
C36 O26 1.250 . S
C37 O27 1.264 1_556 S
C37 O31 1.248 . S
C38 O28 1.260 . S
C38 O32 1.253 . S
C39 O30 1.279 . S
C39 O33 1.250 . S
O40 Mg22 2.030 . S
O40 C34 1.248 . S
O41 Mg24 2.079 . S
O41 C34 1.264 . S
O42 Mg43 1.990 . S
O42 C56 1.253 . S
Mg43 O42 1.990 . S
Mg43 O46 2.180 . S
Mg43 O47 2.117 . S
Mg43 O61 2.030 . S
O44 Mg45 2.072 . S
O44 C56 1.260 . S
Mg45 O44 2.072 . S
Mg45 O46 2.099 . S
Mg45 O48 2.079 . S
Mg45 O49 2.072 1_554 S
Mg45 O51 2.099 1_554 S
Mg45 O62 2.079 . S
O46 Mg43 2.180 . S
O46 Mg45 2.099 . S
O46 C57 1.279 . S
O47 Mg43 2.117 . S
O47 C57 1.250 . S
O48 Mg45 2.079 . S
O48 C58 1.264 1_554 S
O49 Mg45 2.072 1_556 S
O49 C59 1.260 . S
Mg50 O51 2.180 . S
Mg50 O52 2.030 . S
Mg50 O53 1.990 . S
Mg50 O54 2.117 . S
O51 Mg45 2.099 1_556 S
O51 Mg50 2.180 . S
O51 C60 1.279 . S
O52 Mg50 2.030 . S
O52 C58 1.248 . S
O53 Mg50 1.990 . S
O53 C59 1.253 . S
O54 Mg50 2.117 . S
O54 C60 1.250 . S
C55 O61 1.248 . S
C55 O62 1.264 . S
C56 O42 1.253 . S
C56 O44 1.260 . S
C57 O46 1.279 . S
C57 O47 1.250 . S
C58 O48 1.264 1_556 S
C58 O52 1.248 . S
C59 O49 1.260 . S
C59 O53 1.253 . S
C60 O51 1.279 . S
C60 O54 1.250 . S
O61 Mg43 2.030 . S
O61 C55 1.248 . S
O62 Mg45 2.079 . S
O62 C55 1.264 . S
O63 Mg64 1.990 . S
O63 C77 1.253 . S
Mg64 O63 1.990 . S
Mg64 O67 2.180 . S
Mg64 O68 2.117 . S
Mg64 O82 2.030 . S
O65 Mg66 2.072 . S
O65 C77 1.260 . S
Mg66 O65 2.072 . S
Mg66 O67 2.099 . S
Mg66 O69 2.079 . S
Mg66 O70 2.072 1_554 S
Mg66 O72 2.099 1_554 S
Mg66 O83 2.079 . S
O67 Mg64 2.180 . S
O67 Mg66 2.099 . S
O67 C78 1.279 . S
O68 Mg64 2.117 . S
O68 C78 1.250 . S
O69 Mg66 2.079 . S
O69 C79 1.264 1_554 S
O70 Mg66 2.072 1_556 S
O70 C80 1.260 . S
Mg71 O72 2.180 . S
Mg71 O73 2.030 . S
Mg71 O74 1.990 . S
Mg71 O75 2.117 . S
O72 Mg66 2.099 1_556 S
O72 Mg71 2.180 . S
O72 C81 1.279 . S
O73 Mg71 2.030 . S
O73 C79 1.248 . S
O74 Mg71 1.990 . S
O74 C80 1.253 . S
O75 Mg71 2.117 . S
O75 C81 1.250 . S
C76 O82 1.248 . S
C76 O83 1.264 . S
C77 O63 1.253 . S
C77 O65 1.260 . S
C78 O67 1.279 . S
C78 O68 1.250 . S
C79 O69 1.264 1_556 S
C79 O73 1.248 . S
C80 O70 1.260 . S
C80 O74 1.253 . S
C81 O72 1.279 . S
C81 O75 1.250 . S
O82 Mg64 2.030 . S
O82 C76 1.248 . S
O83 Mg66 2.079 . S
O83 C76 1.264 . S
O84 Mg85 1.990 . S
O84 C98 1.253 . S
Mg85 O84 1.990 . S
Mg85 O88 2.180 . S
Mg85 O89 2.117 . S
Mg85 O103 2.030 . S
O86 Mg87 2.072 . S
O86 C98 1.260 . S
Mg87 O86 2.072 . S
Mg87 O88 2.099 . S
Mg87 O90 2.079 . S
Mg87 O91 2.072 1_554 S
Mg87 O93 2.099 1_554 S
Mg87 O104 2.079 . S
O88 Mg85 2.180 . S
O88 Mg87 2.099 . S
O88 C99 1.279 . S
O89 Mg85 2.117 . S
O89 C99 1.250 . S
O90 Mg87 2.079 . S
O90 C100 1.264 1_554 S
O91 Mg87 2.072 1_556 S
O91 C101 1.260 . S
Mg92 O93 2.180 . S
Mg92 O94 2.030 . S
Mg92 O95 1.990 . S
Mg92 O96 2.117 . S
O93 Mg87 2.099 1_556 S
O93 Mg92 2.180 . S
O93 C102 1.279 . S
O94 Mg92 2.030 . S
O94 C100 1.248 . S
O95 Mg92 1.990 . S
O95 C101 1.253 . S
O96 Mg92 2.117 . S
O96 C102 1.250 . S
C97 O103 1.248 . S
C97 O104 1.264 . S
C98 O84 1.253 . S
C98 O86 1.260 . S
C99 O88 1.279 . S
C99 O89 1.250 . S
C100 O90 1.264 1_556 S
C100 O94 1.248 . S
C101 O91 1.260 . S
C101 O95 1.253 . S
C102 O93 1.279 . S
C102 O96 1.250 . S
O103 Mg85 2.030 . S
O103 C97 1.248 . S
O104 Mg87 2.079 . S
O104 C97 1.264 . S
O105 Mg106 1.990 . S
O105 C119 1.253 . S
Mg106 O105 1.990 . S
Mg106 O109 2.180 . S
Mg106 O110 2.117 . S
Mg106 O124 2.030 . S
O107 Mg108 2.072 . S
O107 C119 1.260 . S
Mg108 O107 2.072 . S
Mg108 O109 2.099 . S
Mg108 O111 2.079 . S
Mg108 O112 2.072 1_554 S
Mg108 O114 2.099 1_554 S
Mg108 O125 2.079 . S
O109 Mg106 2.180 . S
O109 Mg108 2.099 . S
O109 C120 1.279 . S
O110 Mg106 2.117 . S
O110 C120 1.250 . S
O111 Mg108 2.079 . S
O111 C121 1.264 1_554 S
O112 Mg108 2.072 1_556 S
O112 C122 1.260 . S
Mg113 O114 2.180 . S
Mg113 O115 2.030 . S
Mg113 O116 1.990 . S
Mg113 O117 2.117 . S
O114 Mg108 2.099 1_556 S
O114 Mg113 2.180 . S
O114 C123 1.279 . S
O115 Mg113 2.030 . S
O115 C121 1.248 . S
O116 Mg113 1.990 . S
O116 C122 1.253 . S
O117 Mg113 2.117 . S
O117 C123 1.250 . S
C118 O124 1.248 . S
C118 O125 1.264 . S
C119 O105 1.253 . S
C119 O107 1.260 . S
C120 O109 1.279 . S
C120 O110 1.250 . S
C121 O111 1.264 1_556 S
C121 O115 1.248 . S
C122 O112 1.260 . S
C122 O116 1.253 . S
C123 O114 1.279 . S
C123 O117 1.250 . S
O124 Mg106 2.030 . S
O124 C118 1.248 . S
O125 Mg108 2.079 . S
O125 C118 1.264 . S
C126 C127 1.170 . S
C126 C128 1.380 . S
C127 C126 1.170 . S
C128 C126 1.380 . S
C128 C129 1.170 . S
C129 C128 1.170 . S
C130 C131 1.170 . S
C130 C132 1.380 1_455 S
C131 C130 1.170 . S
C132 C130 1.380 1_655 S
C132 C133 1.170 . S
C133 C132 1.170 . S
C134 C135 1.170 . S
C134 C136 1.380 1_545 S
C135 C134 1.170 . S
C136 C134 1.380 1_565 S
C136 C137 1.170 . S
C137 C136 1.170 . S
C138 C139 1.170 . S
C138 C140 1.380 . S
C139 C138 1.170 . S
C140 C138 1.380 . S
C140 C141 1.170 . S
C141 C140 1.170 . S
C142 C143 1.170 . S
C142 C144 1.380 1_455 S
C143 C142 1.170 . S
C144 C142 1.380 1_655 S
C144 C145 1.170 . S
C145 C144 1.170 . S
C146 C147 1.170 . S
C146 C148 1.380 1_565 S
C147 C146 1.170 . S
C148 C146 1.380 1_545 S
C148 C149 1.170 . S
C149 C148 1.170 . S
C150 C151 1.170 . S
C150 C152 1.380 . S
C151 C150 1.170 . S
C152 C150 1.380 . S
C152 C153 1.170 . S
C153 C152 1.170 . S
C154 C155 1.170 . S
C154 C156 1.380 . S
C155 C154 1.170 . S
C156 C154 1.380 . S
C156 C157 1.170 . S
C157 C156 1.170 . S
C158 C159 1.170 . S
C158 C160 1.380 . S
C159 C158 1.170 . S
C160 C158 1.380 . S
C160 C161 1.170 . S
C161 C160 1.170 . S
C162 C163 1.170 . S
C162 C164 1.380 . S
C163 C162 1.170 . S
C164 C162 1.380 . S
C164 C165 1.170 . S
C165 C164 1.170 . S
C166 C167 1.170 . S
C166 C168 1.380 . S
C167 C166 1.170 . S
C168 C166 1.380 . S
C168 C169 1.170 . S
C169 C168 1.170 . S
C170 C171 1.170 . S
C170 C172 1.380 . S
C171 C170 1.170 . S
C172 C170 1.380 . S
C172 C173 1.170 . S
C173 C172 1.170 . S
C174 C175 1.170 . S
C174 C176 1.380 . S
C175 C174 1.170 . S
C176 C174 1.380 . S
C176 C177 1.170 . S
C177 C176 1.170 . S
C178 C179 1.170 . S
C178 C180 1.380 . S
C179 C178 1.170 . S
C180 C178 1.380 . S
C180 C181 1.170 . S
C181 C180 1.170 . S
C182 C183 1.170 . S
C182 C184 1.380 . S
C183 C182 1.170 . S
C184 C182 1.380 . S
C184 C185 1.170 . S
C185 C184 1.170 . S
C186 C187 1.170 . S
C186 C188 1.380 . S
C187 C186 1.170 . S
C188 C186 1.380 . S
C188 C189 1.170 . S
C189 C188 1.170 . S
C190 C191 1.170 . S
C190 C192 1.380 . S
C191 C190 1.170 . S
C192 C190 1.380 . S
C192 C193 1.170 . S
C193 C192 1.170 . S
C194 C195 1.170 . S
C194 C196 1.380 . S
C195 C194 1.170 . S
C196 C194 1.380 . S
C196 C197 1.170 . S
C197 C196 1.170 . S
C127 C121 1.326 . S
C129 C15 1.127 1_556 S
C131 C16 1.379 . S
C133 C36 1.188 1_556 S
C135 C37 1.377 . S
C137 C57 1.180 1_556 S
C139 C78 1.104 1_556 S
C141 C58 1.322 . S
C143 C99 1.177 1_556 S
C145 C79 1.354 . S
C147 C100 1.322 . S
C149 C120 1.114 1_556 S
C151 C98 1.544 . S
C153 C18 1.433 1_554 S
C155 C119 1.550 . S
C157 C39 1.409 1_554 S
C159 C60 1.378 1_554 S
C161 C14 1.529 . S
C163 C81 1.389 1_554 S
C165 C35 1.527 . S
C167 C102 1.435 1_554 S
C169 C56 1.541 . S
C171 C77 1.532 . S
C173 C123 1.427 1_554 S
C175 C17 1.494 . S
C177 C13 1.479 . S
C179 C38 1.467 . S
C181 C34 1.508 . S
C183 C59 1.448 . S
C185 C55 1.520 . S
C187 C80 1.455 . S
C189 C76 1.506 . S
C191 C97 1.518 . S
C193 C101 1.445 . S
C195 C122 1.464 . S
C197 C118 1.511 . S
