# Generated by pormake.
# Topology bcu, (8)-cn, num edge types: 1
# Building blocks:
#     Node 0, Type 0, BuildingBlock: AJUNOK_clean_sbu_0, # of connection points: 8
#     Node 1, Type 0, BuildingBlock: AJUNOK_clean_sbu_0, # of connection points: 8
#     Edge 2, Type (0, 0), BuildingBlock: EZIPEK_clean_linker_0, # of connection points: 2
#     Edge 3, Type (0, 0), BuildingBlock: EZIPEK_clean_linker_0, # of connection points: 2
#     Edge 4, Type (0, 0), BuildingBlock: EZIPEK_clean_linker_0, # of connection points: 2
#     Edge 5, Type (0, 0), BuildingBlock: EZIPEK_clean_linker_0, # of connection points: 2
#     Edge 6, Type (0, 0), BuildingBlock: EZIPEK_clean_linker_0, # of connection points: 2
#     Edge 7, Type (0, 0), BuildingBlock: EZIPEK_clean_linker_0, # of connection points: 2
#     Edge 8, Type (0, 0), BuildingBlock: EZIPEK_clean_linker_0, # of connection points: 2
#     Edge 9, Type (0, 0), BuildingBlock: EZIPEK_clean_linker_0, # of connection points: 2
# Relax obj value: 0.049
# Max RMSD: 0.161
# Mean RMSD: 0.161
data_MOF--net-bcu--node1-AJUNOK_clean_sbu_0--edge1-EZIPEK_clean_linker_0
_symmetry_space_group_name_H-M    P1
_symmetry_Int_Tables_number       1
_symmetry_cell_setting            triclinic
loop_
_symmetry_equiv_pos_as_xyz
'x, y, z'
_cell_length_a     18.734634
_cell_length_b     19.002503
_cell_length_c     13.355599
_cell_angle_alpha  105.74677
_cell_angle_beta   104.82855
_cell_angle_gamma 110.93674
loop_
_atom_site_label
_atom_site_type_symbol
_atom_site_fract_x
_atom_site_fract_y
_atom_site_fract_z
_atom_type_partial_charge
Cd0 Cd 0.97225 0.95264 0.17226 0.0
Cd1 Cd 0.00319 -0.00539 0.84567 0.0
C2 C 0.1487 0.95075 0.25743 0.0
N3 N 0.06755 0.90145 0.18664 0.0
C4 C 0.08851 0.7819 0.15408 0.0
C5 C 0.17183 0.83126 0.22923 0.0
C6 C 0.2024 0.91664 0.28009 0.0
C7 C 0.03679 0.81859 0.13468 0.0
H8 H 0.17122 0.01606 0.29989 0.0
H9 H 0.97144 0.78096 0.0813 0.0
C10 C 0.86516 0.85027 0.86378 0.0
C11 C 0.84719 0.03184 0.79357 0.0
C12 C 0.80282 0.07674 0.78461 0.0
C13 C 0.84466 0.16269 0.84045 0.0
C14 C 0.93003 0.20182 0.90712 0.0
C15 C 0.97189 0.15425 0.9148 0.0
N16 N 0.93002 0.07096 0.85809 0.0
H17 H 0.81623 0.96607 0.74551 0.0
H18 H 0.03836 0.18385 0.96186 0.0
C19 C 0.08261 0.87784 0.90839 0.0
N20 N 0.09074 0.93221 0.85854 0.0
C21 C 0.18181 0.895 0.78535 0.0
C22 C 0.17003 0.83482 0.82945 0.0
C23 C 0.12236 0.82818 0.89527 0.0
C24 C 0.14223 0.94411 0.80244 0.0
H25 H 0.04318 0.87131 0.95496 0.0
H26 H 0.1503 -0.0105 0.76701 0.0
C27 C 0.10041 0.09607 0.149 0.0
C28 C 0.90604 0.88027 0.30665 0.0
N29 N 0.91847 0.04409 0.19823 0.0
C30 C 0.92878 0.08653 0.30495 0.0
C31 C 0.88962 0.13591 0.32323 0.0
C32 C 0.83943 0.14085 0.23027 0.0
C33 C 0.8306 0.09703 0.12107 0.0
C34 C 0.87231 0.04977 0.1072 0.0
C35 C 0.05228 0.0542 0.691 0.0
O36 O 0.91635 0.89981 0.9639 0.0
O37 O 0.87877 0.86536 0.78155 0.0
O38 O 0.04903 0.04224 0.0513 0.0
O39 O 0.09011 0.08463 0.23449 0.0
O40 O 0.86557 0.8507 0.20023 0.0
O41 O 0.97637 0.94296 0.34957 0.0
O42 O 0.09103 0.09524 0.79746 0.0
O43 O 0.98984 -0.01561 0.65533 0.0
H44 H 0.96574 0.08029 0.37531 0.0
H45 H 0.86707 0.01658 0.02414 0.0
H46 H 0.06335 0.71568 0.11409 0.0
H47 H 0.26642 0.95603 0.33901 0.0
H48 H 0.73712 0.04505 0.73127 0.0
H49 H 0.96401 0.26823 0.95003 0.0
H50 H 0.2191 0.90207 0.73528 0.0
H51 H 0.11288 0.78255 0.9312 0.0
H52 H 0.8974 0.16899 0.40849 0.0
H53 H 0.79063 0.09775 0.04738 0.0
Cd54 Cd 0.40609 0.39635 0.59246 0.0
Cd55 Cd 0.56454 0.54502 0.43291 0.0
C56 C 0.55403 0.38364 0.76453 0.0
N57 N 0.50163 0.34898 0.65368 0.0
C58 C 0.56115 0.25831 0.60958 0.0
C59 C 0.61853 0.29595 0.72242 0.0
C60 C 0.61482 0.35969 0.80011 0.0
C61 C 0.50326 0.28649 0.57662 0.0
H62 H 0.54952 0.43047 0.82589 0.0
H63 H 0.46001 0.25911 0.48938 0.0
C64 C 0.40258 0.38404 0.3168 0.0
C65 C 0.42955 0.58046 0.27998 0.0
C66 C 0.37883 0.61697 0.25383 0.0
C67 C 0.38041 0.67894 0.34114 0.0
C68 C 0.433 0.70339 0.45308 0.0
C69 C 0.48228 0.66471 0.47552 0.0
N70 N 0.47871 0.60383 0.38947 0.0
H71 H 0.43018 0.53406 0.21275 0.0
H72 H 0.52337 0.68294 0.56144 0.0
C73 C 0.64606 0.45394 0.29855 0.0
N74 N 0.61145 0.45041 0.3761 0.0
C75 C 0.63789 0.33948 0.39279 0.0
C76 C 0.67649 0.34386 0.31606 0.0
C77 C 0.67946 0.40083 0.26717 0.0
C78 C 0.6062 0.39451 0.42283 0.0
H79 H 0.64901 0.49893 0.26256 0.0
H80 H 0.57841 0.39368 0.48429 0.0
C81 C 0.56311 0.55987 0.70266 0.0
C82 C 0.2639 0.25906 0.55794 0.0
N83 N 0.35461 0.48924 0.64282 0.0
C84 C 0.36208 0.5453 0.59598 0.0
C85 C 0.33398 0.6034 0.62725 0.0
C86 C 0.29647 0.60209 0.70539 0.0
C87 C 0.2886 0.54318 0.75165 0.0
C88 C 0.31883 0.48711 0.7194 0.0
C89 C 0.70661 0.6793 0.46116 0.0
O90 O 0.42911 0.41043 0.42344 0.0
O91 O 0.44587 0.42391 0.27344 0.0
O92 O 0.53665 0.52878 0.59626 0.0
O93 O 0.52031 0.52361 0.7494 0.0
O94 O 0.27286 0.27414 0.47365 0.0
O95 O 0.32098 0.30647 0.65527 0.0
O96 O 0.64447 0.63586 0.3675 0.0
O97 O 0.70351 0.66116 0.5454 0.0
H98 H 0.39049 0.54503 0.53518 0.0
H99 H 0.31395 0.44207 0.75569 0.0
H100 H 0.56205 0.20859 0.54753 0.0
H101 H 0.65783 0.38977 0.88789 0.0
H102 H 0.33944 0.59783 0.16653 0.0
H103 H 0.43583 0.75177 0.52185 0.0
H104 H 0.63375 0.29499 0.43009 0.0
H105 H 0.70875 0.40512 0.20734 0.0
H106 H 0.34107 0.64871 0.59104 0.0
H107 H 0.25978 0.54097 0.81222 0.0
C108 C 0.24305 0.16293 0.15473 0.0
C109 C 0.17196 0.16941 0.16522 0.0
C110 C 0.24919 0.31928 0.25253 0.0
C111 C 0.32121 0.31251 0.24712 0.0
N112 N 0.38489 0.23296 0.17143 0.0
N113 N 0.10032 0.25003 0.20281 0.0
C114 C 0.31724 0.23585 0.18982 0.0
C115 C 0.17276 0.24672 0.20688 0.0
N116 N 0.24119 0.08742 0.11916 0.0
N117 N 0.25511 0.39508 0.30447 0.0
H118 H 0.04347 0.19737 0.17005 0.0
H119 H 0.09462 0.30405 0.22403 0.0
H120 H 0.30892 0.44965 0.33083 0.0
H121 H 0.20813 0.40455 0.32411 0.0
H122 H 0.29328 0.07868 0.1218 0.0
H123 H 0.18784 0.03266 0.09314 0.0
H124 H 0.38376 0.17978 0.12105 0.0
H125 H 0.44106 0.28537 0.19931 0.0
C126 C 0.70909 0.15545 0.21124 0.0
C127 C 0.79695 0.19266 0.24822 0.0
C128 C 0.80576 0.32786 0.33728 0.0
C129 C 0.71771 0.29171 0.2914 0.0
N130 N 0.58512 0.17424 0.16782 0.0
N131 N 0.92779 0.31549 0.32544 0.0
C132 C 0.66911 0.20631 0.22326 0.0
C133 C 0.84507 0.27933 0.30523 0.0
N134 N 0.66416 0.07175 0.16885 0.0
N135 N 0.85182 0.40773 0.41451 0.0
H136 H 0.95863 0.28205 0.30125 0.0
H137 H 0.96401 0.37891 0.35637 0.0
H138 H 0.82541 0.4454 0.44105 0.0
H139 H 0.91571 0.43438 0.45989 0.0
H140 H 0.60102 0.04173 0.15162 0.0
H141 H 0.69124 0.0323 0.16012 0.0
H142 H 0.54771 0.11414 0.1074 0.0
H143 H 0.55372 0.20978 0.17483 0.0
C144 C 0.89274 0.78416 0.40392 0.0
C145 C 0.87186 0.84369 0.37815 0.0
C146 C 0.77091 0.81848 0.46576 0.0
C147 C 0.77891 0.7478 0.46802 0.0
N148 N 0.85172 0.66637 0.45456 0.0
N149 N 0.79938 0.92586 0.39454 0.0
C150 C 0.84279 0.73275 0.44451 0.0
C151 C 0.81444 0.86454 0.41415 0.0
N152 N 0.95916 0.77633 0.38774 0.0
N153 N 0.7204 0.83981 0.51148 0.0
H154 H 0.83246 0.96227 0.36013 0.0
H155 H 0.7526 0.93912 0.40843 0.0
H156 H 0.68907 0.80636 0.55058 0.0
H157 H 0.715 0.89351 0.51972 0.0
H158 H 0.98197 0.73878 0.41318 0.0
H159 H -0.00426 0.81248 0.35613 0.0
H160 H 0.89062 0.64576 0.42705 0.0
H161 H 0.81786 0.63025 0.48879 0.0
C162 C 0.21118 0.74609 0.32469 0.0
C163 C 0.22611 0.79324 0.25927 0.0
C164 C 0.34885 0.77424 0.26112 0.0
C165 C 0.32793 0.71921 0.31455 0.0
N166 N 0.2311 0.64079 0.37919 0.0
N167 N 0.30124 0.84245 0.15033 0.0
C168 C 0.2568 0.70175 0.34149 0.0
C169 C 0.29287 0.80476 0.22338 0.0
N170 N 0.15553 0.74593 0.37397 0.0
N171 N 0.42318 0.79899 0.24925 0.0
H172 H 0.26105 0.86506 0.11971 0.0
H173 H 0.34384 0.84501 0.11277 0.0
H174 H 0.46597 0.77809 0.27629 0.0
H175 H 0.44579 0.84567 0.22199 0.0
H176 H 0.1486 0.71961 0.43209 0.0
H177 H 0.12194 0.77896 0.36534 0.0
H178 H 0.17513 0.62004 0.38973 0.0
H179 H 0.26187 0.6055 0.38977 0.0
C180 C 0.14831 0.69618 0.70955 0.0
C181 C 0.20249 0.77501 0.7989 0.0
C182 C 0.31712 0.73891 0.83012 0.0
C183 C 0.26418 0.66175 0.73745 0.0
N184 N 0.1337 0.56994 0.57852 0.0
N185 N 0.34084 0.87747 0.93127 0.0
C186 C 0.18084 0.64115 0.6742 0.0
C187 C 0.28769 0.79819 0.85542 0.0
N188 N 0.06568 0.67393 0.65889 0.0
N189 N 0.39484 0.7546 0.89567 0.0
H190 H 0.321 0.92159 0.95648 0.0
H191 H 0.4052 0.90096 0.96481 0.0
H192 H 0.41933 0.71348 0.878 0.0
H193 H 0.43286 0.80555 0.97201 0.0
H194 H 0.02103 0.6144 0.60291 0.0
H195 H 0.04023 0.71407 0.67723 0.0
H196 H 0.076 0.55552 0.52102 0.0
H197 H 0.15468 0.52709 0.55174 0.0
C198 C 0.19308 0.11684 0.54513 0.0
C199 C 0.18972 0.19027 0.54648 0.0
C200 C 0.07304 0.15677 0.60498 0.0
C201 C 0.08158 0.08736 0.61366 0.0
N202 N 0.12567 -0.0155 0.55331 0.0
N203 N 0.11337 0.26837 0.54213 0.0
C204 C 0.13343 0.06146 0.57004 0.0
C205 C 0.12446 0.20584 0.56355 0.0
N206 N 0.25627 0.1029 0.52697 0.0
N207 N 0.01795 0.17685 0.64032 0.0
H208 H 0.1508 0.30457 0.51135 0.0
H209 H 0.06355 0.2799 0.54537 0.0
H210 H 0.97658 0.13886 0.66499 0.0
H211 H 0.01437 0.23132 0.64776 0.0
H212 H 0.26832 0.05569 0.53884 0.0
H213 H 0.2986 0.14083 0.50337 0.0
H214 H 0.1575 0.95965 0.51377 0.0
H215 H 0.08025 0.94225 0.56787 0.0
C216 C 0.75491 0.22507 0.89012 0.0
C217 C 0.79879 0.2106 0.82179 0.0
C218 C 0.73957 0.27156 0.70586 0.0
C219 C 0.68265 0.26905 0.75931 0.0
N220 N 0.62809 0.22902 0.89216 0.0
N221 N 0.82982 0.21543 0.65846 0.0
C222 C 0.68821 0.2422 0.84923 0.0
C223 C 0.79036 0.23258 0.72767 0.0
N224 N 0.77848 0.22486 0.99533 0.0
N225 N 0.7479 0.31432 0.6387 0.0
H226 H 0.86993 0.18968 0.67445 0.0
H227 H 0.81848 0.222 0.58178 0.0
H228 H 0.71621 0.34881 0.62815 0.0
H229 H 0.79289 0.32327 0.60444 0.0
H230 H 0.75233 0.24148 0.05213 0.0
H231 H 0.83174 0.21939 0.03032 0.0
H232 H 0.62655 0.20282 0.9513 0.0
H233 H 0.57519 0.23585 0.86022 0.0
C234 C 0.64371 0.71077 0.80956 0.0
C235 C 0.64288 0.63364 0.76806 0.0
C236 C 0.79239 0.70045 0.81669 0.0
C237 C 0.79072 0.77707 0.84196 0.0
N238 N 0.71425 0.8558 0.85173 0.0
N239 N 0.71326 0.55193 0.72709 0.0
C240 C 0.71649 0.78275 0.83708 0.0
C241 C 0.71659 0.6275 0.77154 0.0
N242 N 0.57457 0.71489 0.8206 0.0
N243 N 0.8663 0.69759 0.83538 0.0
H244 H 0.65944 0.49693 0.69818 0.0
H245 H 0.76233 0.5434 0.71316 0.0
H246 H 0.92269 0.7499 0.86523 0.0
H247 H 0.8728 0.64466 0.82982 0.0
H248 H 0.57376 0.76978 0.86024 0.0
H249 H 0.51974 0.66275 0.79919 0.0
H250 H 0.6599 0.86194 0.83663 0.0
H251 H 0.76609 0.90951 0.87002 0.0
loop_
_geom_bond_atom_site_label_1
_geom_bond_atom_site_label_2
_geom_bond_distance
_geom_bond_site_symmetry_2
_ccdc_geom_bond_type
Cd0 N3 2.334 1_655 S
Cd0 N29 2.304 1_565 S
Cd0 O36 2.268 1_554 S
Cd0 O39 2.273 1_665 S
Cd0 O40 2.417 . S
Cd0 O41 2.330 . S
Cd1 N16 2.304 1_455 S
Cd1 N20 2.334 1_545 S
Cd1 O37 2.273 1_445 S
Cd1 O38 2.268 1_556 S
Cd1 O42 2.417 . S
Cd1 O43 2.330 . S
C2 N3 1.332 . S
C2 C6 1.381 . S
C2 H8 0.931 . S
N3 Cd0 2.334 1_455 S
N3 C2 1.332 . S
N3 C7 1.328 . S
C4 C5 1.396 . S
C4 C7 1.378 . S
C4 H46 0.931 1_554 S
C5 C4 1.396 . S
C5 C6 1.382 . S
C6 C2 1.381 . S
C6 C5 1.382 . S
C6 H47 0.930 . S
C7 N3 1.328 . S
C7 C4 1.378 . S
C7 H9 0.930 1_454 S
H8 C2 0.931 . S
H9 C7 0.930 1_656 S
C10 O36 1.238 . S
C10 O37 1.253 . S
C11 C12 1.379 . S
C11 N16 1.337 . S
C11 H17 0.929 . S
C12 C11 1.379 . S
C12 C13 1.380 . S
C12 H48 0.929 . S
C13 C12 1.380 . S
C13 C14 1.399 . S
C14 C13 1.399 . S
C14 C15 1.376 . S
C14 H49 0.931 1_556 S
C15 C14 1.376 . S
C15 N16 1.338 . S
C15 H18 0.930 1_656 S
N16 Cd1 2.304 1_655 S
N16 C11 1.337 . S
N16 C15 1.338 . S
H17 C11 0.929 . S
H18 C15 0.930 1_454 S
C19 N20 1.332 . S
C19 C23 1.381 . S
C19 H25 0.931 . S
N20 Cd1 2.334 1_565 S
N20 C19 1.332 . S
N20 C24 1.328 . S
C21 C22 1.396 . S
C21 C24 1.378 . S
C21 H50 0.931 1_556 S
C22 C21 1.396 . S
C22 C23 1.382 . S
C23 C19 1.381 . S
C23 C22 1.382 . S
C23 H51 0.930 . S
C24 N20 1.328 . S
C24 C21 1.378 . S
C24 H26 0.930 1_566 S
H25 C19 0.931 . S
H26 C24 0.930 1_544 S
C27 O38 1.238 . S
C27 O39 1.253 . S
C28 O40 1.239 . S
C28 O41 1.230 . S
N29 Cd0 2.304 1_545 S
N29 C30 1.337 . S
N29 C34 1.338 . S
C30 N29 1.337 . S
C30 C31 1.379 . S
C30 H44 0.929 . S
C31 C30 1.379 . S
C31 C32 1.380 . S
C31 H52 0.929 . S
C32 C31 1.380 . S
C32 C33 1.399 . S
C33 C32 1.399 . S
C33 C34 1.376 . S
C33 H53 0.931 1_554 S
C34 N29 1.338 . S
C34 C33 1.376 . S
C34 H45 0.930 1_544 S
C35 O42 1.239 . S
C35 O43 1.230 . S
O36 Cd0 2.268 1_556 S
O36 C10 1.238 . S
O37 Cd1 2.273 1_665 S
O37 C10 1.253 . S
O38 Cd1 2.268 1_554 S
O38 C27 1.238 . S
O39 Cd0 2.273 1_445 S
O39 C27 1.253 . S
O40 Cd0 2.417 . S
O40 C28 1.239 . S
O41 Cd0 2.330 . S
O41 C28 1.230 . S
O42 Cd1 2.417 . S
O42 C35 1.239 . S
O43 Cd1 2.330 . S
O43 C35 1.230 . S
H44 C30 0.929 . S
H45 C34 0.930 1_566 S
H46 C4 0.931 1_556 S
H47 C6 0.930 . S
H48 C12 0.929 . S
H49 C14 0.931 1_554 S
H50 C21 0.931 1_554 S
H51 C23 0.930 . S
H52 C31 0.929 . S
H53 C33 0.931 1_556 S
Cd54 N57 2.334 . S
Cd54 N83 2.304 . S
Cd54 O90 2.268 . S
Cd54 O93 2.273 . S
Cd54 O94 2.417 . S
Cd54 O95 2.330 . S
Cd55 N70 2.304 . S
Cd55 N74 2.334 . S
Cd55 O91 2.273 . S
Cd55 O92 2.268 . S
Cd55 O96 2.417 . S
Cd55 O97 2.330 . S
C56 N57 1.332 . S
C56 C60 1.381 . S
C56 H62 0.931 . S
N57 Cd54 2.334 . S
N57 C56 1.332 . S
N57 C61 1.328 . S
C58 C59 1.396 . S
C58 C61 1.378 . S
C58 H100 0.931 . S
C59 C58 1.396 . S
C59 C60 1.382 . S
C60 C56 1.381 . S
C60 C59 1.382 . S
C60 H101 0.930 . S
C61 N57 1.328 . S
C61 C58 1.378 . S
C61 H63 0.930 . S
H62 C56 0.931 . S
H63 C61 0.930 . S
C64 O90 1.238 . S
C64 O91 1.253 . S
C65 C66 1.379 . S
C65 N70 1.337 . S
C65 H71 0.929 . S
C66 C65 1.379 . S
C66 C67 1.380 . S
C66 H102 0.929 . S
C67 C66 1.380 . S
C67 C68 1.399 . S
C68 C67 1.399 . S
C68 C69 1.376 . S
C68 H103 0.931 . S
C69 C68 1.376 . S
C69 N70 1.338 . S
C69 H72 0.930 . S
N70 Cd55 2.304 . S
N70 C65 1.337 . S
N70 C69 1.338 . S
H71 C65 0.929 . S
H72 C69 0.930 . S
C73 N74 1.332 . S
C73 C77 1.381 . S
C73 H79 0.931 . S
N74 Cd55 2.334 . S
N74 C73 1.332 . S
N74 C78 1.328 . S
C75 C76 1.396 . S
C75 C78 1.378 . S
C75 H104 0.931 . S
C76 C75 1.396 . S
C76 C77 1.382 . S
C77 C73 1.381 . S
C77 C76 1.382 . S
C77 H105 0.930 . S
C78 N74 1.328 . S
C78 C75 1.378 . S
C78 H80 0.930 . S
H79 C73 0.931 . S
H80 C78 0.930 . S
C81 O92 1.238 . S
C81 O93 1.253 . S
C82 O94 1.239 . S
C82 O95 1.230 . S
N83 Cd54 2.304 . S
N83 C84 1.337 . S
N83 C88 1.338 . S
C84 N83 1.337 . S
C84 C85 1.379 . S
C84 H98 0.929 . S
C85 C84 1.379 . S
C85 C86 1.380 . S
C85 H106 0.929 . S
C86 C85 1.380 . S
C86 C87 1.399 . S
C87 C86 1.399 . S
C87 C88 1.376 . S
C87 H107 0.931 . S
C88 N83 1.338 . S
C88 C87 1.376 . S
C88 H99 0.930 . S
C89 O96 1.239 . S
C89 O97 1.230 . S
O90 Cd54 2.268 . S
O90 C64 1.238 . S
O91 Cd55 2.273 . S
O91 C64 1.253 . S
O92 Cd55 2.268 . S
O92 C81 1.238 . S
O93 Cd54 2.273 . S
O93 C81 1.253 . S
O94 Cd54 2.417 . S
O94 C82 1.239 . S
O95 Cd54 2.330 . S
O95 C82 1.230 . S
O96 Cd55 2.417 . S
O96 C89 1.239 . S
O97 Cd55 2.330 . S
O97 C89 1.230 . S
H98 C84 0.929 . S
H99 C88 0.930 . S
H100 C58 0.931 . S
H101 C60 0.930 . S
H102 C66 0.929 . S
H103 C68 0.931 . S
H104 C75 0.931 . S
H105 C77 0.930 . S
H106 C85 0.929 . S
H107 C87 0.931 . S
C108 C109 1.363 . S
C108 C114 1.379 . S
C108 N116 1.356 . S
C109 C108 1.363 . S
C109 C115 1.363 . S
C110 C111 1.363 . S
C110 C115 1.379 . S
C110 N117 1.356 . S
C111 C110 1.363 . S
C111 C114 1.363 . S
N112 C114 1.356 . S
N112 H124 0.984 . S
N112 H125 0.985 . S
N113 C115 1.356 . S
N113 H118 0.984 . S
N113 H119 0.985 . S
C114 C108 1.379 . S
C114 C111 1.363 . S
C114 N112 1.356 . S
C115 C109 1.363 . S
C115 C110 1.379 . S
C115 N113 1.356 . S
N116 C108 1.356 . S
N116 H122 0.984 1_554 S
N116 H123 0.984 . S
N117 C110 1.356 . S
N117 H120 0.984 . S
N117 H121 0.985 . S
H118 N113 0.984 . S
H119 N113 0.985 . S
H120 N117 0.984 . S
H121 N117 0.985 . S
H122 N116 0.984 1_556 S
H123 N116 0.984 . S
H124 N112 0.984 . S
H125 N112 0.985 . S
C126 C127 1.363 . S
C126 C132 1.379 . S
C126 N134 1.356 . S
C127 C126 1.363 . S
C127 C133 1.363 . S
C128 C129 1.363 . S
C128 C133 1.379 . S
C128 N135 1.356 . S
C129 C128 1.363 . S
C129 C132 1.363 . S
N130 C132 1.356 . S
N130 H142 0.984 . S
N130 H143 0.985 . S
N131 C133 1.356 . S
N131 H136 0.984 . S
N131 H137 0.985 . S
C132 C126 1.379 . S
C132 C129 1.363 . S
C132 N130 1.356 . S
C133 C127 1.363 . S
C133 C128 1.379 . S
C133 N131 1.356 . S
N134 C126 1.356 . S
N134 H140 0.984 . S
N134 H141 0.984 . S
N135 C128 1.356 . S
N135 H138 0.984 . S
N135 H139 0.985 . S
H136 N131 0.984 . S
H137 N131 0.985 . S
H138 N135 0.984 . S
H139 N135 0.985 . S
H140 N134 0.984 . S
H141 N134 0.984 . S
H142 N130 0.984 . S
H143 N130 0.985 . S
C144 C145 1.363 . S
C144 C150 1.379 . S
C144 N152 1.356 . S
C145 C144 1.363 . S
C145 C151 1.363 . S
C146 C147 1.363 . S
C146 C151 1.379 . S
C146 N153 1.356 . S
C147 C146 1.363 . S
C147 C150 1.363 . S
N148 C150 1.356 . S
N148 H160 0.984 . S
N148 H161 0.985 . S
N149 C151 1.356 . S
N149 H154 0.984 . S
N149 H155 0.985 . S
C150 C144 1.379 . S
C150 C147 1.363 . S
C150 N148 1.356 . S
C151 C145 1.363 . S
C151 C146 1.379 . S
C151 N149 1.356 . S
N152 C144 1.356 . S
N152 H158 0.984 . S
N152 H159 0.984 . S
N153 C146 1.356 . S
N153 H156 0.984 . S
N153 H157 0.985 1_554 S
H154 N149 0.984 . S
H155 N149 0.985 . S
H156 N153 0.984 . S
H157 N153 0.985 1_556 S
H158 N152 0.984 . S
H159 N152 0.984 . S
H160 N148 0.984 . S
H161 N148 0.985 . S
C162 C163 1.363 . S
C162 C168 1.379 . S
C162 N170 1.356 . S
C163 C162 1.363 . S
C163 C169 1.363 . S
C164 C165 1.363 . S
C164 C169 1.379 . S
C164 N171 1.356 . S
C165 C164 1.363 . S
C165 C168 1.363 . S
N166 C168 1.356 . S
N166 H178 0.984 . S
N166 H179 0.985 . S
N167 C169 1.356 . S
N167 H172 0.984 . S
N167 H173 0.985 1_554 S
C168 C162 1.379 . S
C168 C165 1.363 . S
C168 N166 1.356 . S
C169 C163 1.363 . S
C169 C164 1.379 . S
C169 N167 1.356 . S
N170 C162 1.356 . S
N170 H176 0.984 . S
N170 H177 0.984 . S
N171 C164 1.356 . S
N171 H174 0.984 . S
N171 H175 0.985 . S
H172 N167 0.984 . S
H173 N167 0.985 1_556 S
H174 N171 0.984 . S
H175 N171 0.985 . S
H176 N170 0.984 . S
H177 N170 0.984 . S
H178 N166 0.984 . S
H179 N166 0.985 . S
C180 C181 1.363 . S
C180 C186 1.379 . S
C180 N188 1.356 . S
C181 C180 1.363 . S
C181 C187 1.363 . S
C182 C183 1.363 . S
C182 C187 1.379 . S
C182 N189 1.356 . S
C183 C182 1.363 . S
C183 C186 1.363 . S
N184 C186 1.356 . S
N184 H196 0.984 . S
N184 H197 0.985 . S
N185 C187 1.356 . S
N185 H190 0.984 . S
N185 H191 0.985 1_556 S
C186 C180 1.379 . S
C186 C183 1.363 . S
C186 N184 1.356 . S
C187 C181 1.363 . S
C187 C182 1.379 . S
C187 N185 1.356 . S
N188 C180 1.356 . S
N188 H194 0.984 . S
N188 H195 0.984 . S
N189 C182 1.356 . S
N189 H192 0.984 . S
N189 H193 0.985 . S
H190 N185 0.984 . S
H191 N185 0.985 1_554 S
H192 N189 0.984 . S
H193 N189 0.985 . S
H194 N188 0.984 . S
H195 N188 0.984 . S
H196 N184 0.984 . S
H197 N184 0.985 . S
C198 C199 1.363 . S
C198 C204 1.379 . S
C198 N206 1.356 . S
C199 C198 1.363 . S
C199 C205 1.363 . S
C200 C201 1.363 . S
C200 C205 1.379 . S
C200 N207 1.356 . S
C201 C200 1.363 . S
C201 C204 1.363 . S
N202 C204 1.356 . S
N202 H214 0.984 . S
N202 H215 0.985 . S
N203 C205 1.356 . S
N203 H208 0.984 . S
N203 H209 0.985 . S
C204 C198 1.379 . S
C204 C201 1.363 . S
C204 N202 1.356 . S
C205 C199 1.363 . S
C205 C200 1.379 . S
C205 N203 1.356 . S
N206 C198 1.356 . S
N206 H212 0.984 . S
N206 H213 0.984 . S
N207 C200 1.356 . S
N207 H210 0.984 . S
N207 H211 0.985 . S
H208 N203 0.984 . S
H209 N203 0.985 . S
H210 N207 0.984 . S
H211 N207 0.985 . S
H212 N206 0.984 . S
H213 N206 0.984 . S
H214 N202 0.984 . S
H215 N202 0.985 . S
C216 C217 1.363 . S
C216 C222 1.379 . S
C216 N224 1.356 . S
C217 C216 1.363 . S
C217 C223 1.363 . S
C218 C219 1.363 . S
C218 C223 1.379 . S
C218 N225 1.356 . S
C219 C218 1.363 . S
C219 C222 1.363 . S
N220 C222 1.356 . S
N220 H232 0.984 . S
N220 H233 0.985 . S
N221 C223 1.356 . S
N221 H226 0.984 . S
N221 H227 0.985 . S
C222 C216 1.379 . S
C222 C219 1.363 . S
C222 N220 1.356 . S
C223 C217 1.363 . S
C223 C218 1.379 . S
C223 N221 1.356 . S
N224 C216 1.356 . S
N224 H230 0.984 1_556 S
N224 H231 0.984 1_556 S
N225 C218 1.356 . S
N225 H228 0.984 . S
N225 H229 0.985 . S
H226 N221 0.984 . S
H227 N221 0.985 . S
H228 N225 0.984 . S
H229 N225 0.985 . S
H230 N224 0.984 1_554 S
H231 N224 0.984 1_554 S
H232 N220 0.984 . S
H233 N220 0.985 . S
C234 C235 1.363 . S
C234 C240 1.379 . S
C234 N242 1.356 . S
C235 C234 1.363 . S
C235 C241 1.363 . S
C236 C237 1.363 . S
C236 C241 1.379 . S
C236 N243 1.356 . S
C237 C236 1.363 . S
C237 C240 1.363 . S
N238 C240 1.356 . S
N238 H250 0.984 . S
N238 H251 0.985 . S
N239 C241 1.356 . S
N239 H244 0.984 . S
N239 H245 0.985 . S
C240 C234 1.379 . S
C240 C237 1.363 . S
C240 N238 1.356 . S
C241 C235 1.363 . S
C241 C236 1.379 . S
C241 N239 1.356 . S
N242 C234 1.356 . S
N242 H248 0.984 . S
N242 H249 0.984 . S
N243 C236 1.356 . S
N243 H246 0.984 . S
N243 H247 0.985 . S
H244 N239 0.984 . S
H245 N239 0.985 . S
H246 N243 0.984 . S
H247 N243 0.985 . S
H248 N242 0.984 . S
H249 N242 0.984 . S
H250 N238 0.984 . S
H251 N238 0.985 . S
C109 C27 0.801 . S
C111 C64 0.800 . S
C127 C32 1.877 . S
C129 C76 1.872 . S
C145 C28 1.429 . S
C147 C89 1.430 . S
C163 C5 1.872 . S
C165 C67 1.876 . S
C181 C22 1.872 . S
C183 C86 1.877 . S
C199 C82 1.429 . S
C201 C35 1.428 . S
C217 C13 1.877 . S
C219 C59 1.873 . S
C235 C81 0.801 . S
C237 C10 0.803 . S
