# Generated by pormake.
# Topology umb, (4)-cn, num edge types: 1
# Building blocks:
#     Node 0, Type 0, BuildingBlock: QUQFOY_clean_sbu_3, # of connection points: 4
#     Node 1, Type 0, BuildingBlock: QUQFOY_clean_sbu_3, # of connection points: 4
#     Node 2, Type 0, BuildingBlock: QUQFOY_clean_sbu_3, # of connection points: 4
#     Node 3, Type 0, BuildingBlock: QUQFOY_clean_sbu_3, # of connection points: 4
#     Node 4, Type 0, BuildingBlock: QUQFOY_clean_sbu_3, # of connection points: 4
#     Node 5, Type 0, BuildingBlock: QUQFOY_clean_sbu_3, # of connection points: 4
#     Node 6, Type 0, BuildingBlock: QUQFOY_clean_sbu_3, # of connection points: 4
#     Node 7, Type 0, BuildingBlock: QUQFOY_clean_sbu_3, # of connection points: 4
#     Node 8, Type 0, BuildingBlock: QUQFOY_clean_sbu_3, # of connection points: 4
#     Node 9, Type 0, BuildingBlock: QUQFOY_clean_sbu_3, # of connection points: 4
#     Node 10, Type 0, BuildingBlock: QUQFOY_clean_sbu_3, # of connection points: 4
#     Node 11, Type 0, BuildingBlock: QUQFOY_clean_sbu_3, # of connection points: 4
#     Edge 12, Type (0, 0), None
#     Edge 13, Type (0, 0), None
#     Edge 14, Type (0, 0), None
#     Edge 15, Type (0, 0), None
#     Edge 16, Type (0, 0), None
#     Edge 17, Type (0, 0), None
#     Edge 18, Type (0, 0), None
#     Edge 19, Type (0, 0), None
#     Edge 20, Type (0, 0), None
#     Edge 21, Type (0, 0), None
#     Edge 22, Type (0, 0), None
#     Edge 23, Type (0, 0), None
#     Edge 24, Type (0, 0), None
#     Edge 25, Type (0, 0), None
#     Edge 26, Type (0, 0), None
#     Edge 27, Type (0, 0), None
#     Edge 28, Type (0, 0), None
#     Edge 29, Type (0, 0), None
#     Edge 30, Type (0, 0), None
#     Edge 31, Type (0, 0), None
#     Edge 32, Type (0, 0), None
#     Edge 33, Type (0, 0), None
#     Edge 34, Type (0, 0), None
#     Edge 35, Type (0, 0), None
# Relax obj value: 0.253
# Max RMSD: 0.255
# Mean RMSD: 0.255
data_MOF--net-umb--node1-QUQFOY_clean_sbu_3--edge1-none
_symmetry_space_group_name_H-M    P1
_symmetry_Int_Tables_number       1
_symmetry_cell_setting            triclinic
loop_
_symmetry_equiv_pos_as_xyz
'x, y, z'
_cell_length_a     26.556089
_cell_length_b     26.553437
_cell_length_c     15.723727
_cell_angle_alpha  90.007747
_cell_angle_beta   89.991296
_cell_angle_gamma 119.98241
loop_
_atom_site_label
_atom_site_type_symbol
_atom_site_fract_x
_atom_site_fract_y
_atom_site_fract_z
_atom_type_partial_charge
C0 C 0.38859 0.15514 0.25243 0.0
O1 O 0.38666 0.17135 0.32788 0.0
Cd2 Cd 0.41049 0.13799 0.45941 0.0
O3 O 0.40155 0.11569 0.23912 0.0
Cd4 Cd 0.42981 0.05672 0.32846 0.0
C5 C 0.54697 0.18463 0.38892 0.0
O6 O 0.38786 0.04 0.46935 0.0
O7 O 0.46862 0.03854 0.45555 0.0
O8 O 0.3516 -0.03334 0.27252 0.0
C9 C 0.42765 0.03293 0.50323 0.0
O10 O 0.51486 0.18555 0.44827 0.0
C11 C 0.38385 -0.0541 0.25197 0.0
O12 O 0.52615 0.14708 0.32878 0.0
O13 O 0.43871 -0.02019 0.25715 0.0
C14 C 0.14767 0.43131 0.58567 0.0
O15 O 0.12953 0.42937 0.66112 0.0
Cd16 Cd 0.1867 0.45319 0.79266 0.0
O17 O 0.20008 0.44428 0.57236 0.0
Cd18 Cd 0.28728 0.47253 0.66172 0.0
C19 C 0.27647 0.58969 0.72224 0.0
O20 O 0.26207 0.43057 0.80259 0.0
O21 O 0.34424 0.51135 0.78883 0.0
O22 O 0.29922 0.39434 0.60577 0.0
C23 C 0.30889 0.47037 0.8365 0.0
O24 O 0.24344 0.55757 0.78156 0.0
C25 C 0.3522 0.42662 0.58524 0.0
O26 O 0.29322 0.56889 0.6621 0.0
O27 O 0.3731 0.48148 0.59043 0.0
C28 C 0.6307 0.1904 0.91904 0.0
O29 O 0.61451 0.1723 0.9945 0.0
Cd30 Cd 0.64787 0.2295 0.12603 0.0
O31 O 0.67014 0.24281 0.90572 0.0
Cd32 Cd 0.72908 0.33004 0.99504 0.0
C33 C 0.60115 0.3193 0.05557 0.0
O34 O 0.74583 0.30484 0.13591 0.0
O35 O 0.74722 0.38703 0.12215 0.0
O36 O 0.81919 0.34199 0.93907 0.0
C37 C 0.75286 0.35168 0.16982 0.0
O38 O 0.60026 0.28628 0.11491 0.0
C39 C 0.83987 0.39498 0.91855 0.0
O40 O 0.63869 0.33602 0.99542 0.0
O41 O 0.8059 0.41587 0.92374 0.0
C42 C 0.35439 0.67341 0.25241 0.0
O43 O 0.35632 0.65721 0.32786 0.0
Cd44 Cd 0.33248 0.69058 0.45941 0.0
O45 O 0.34142 0.71286 0.23912 0.0
Cd46 Cd 0.31316 0.77183 0.32847 0.0
C47 C 0.196 0.64392 0.38894 0.0
O48 O 0.35509 0.78856 0.46934 0.0
O49 O 0.27434 0.79003 0.45557 0.0
O50 O 0.39137 0.86189 0.27252 0.0
C51 C 0.31531 0.79563 0.50324 0.0
O52 O 0.22811 0.643 0.44828 0.0
C53 C 0.35911 0.88263 0.252 0.0
O54 O 0.21682 0.68146 0.3288 0.0
O55 O 0.30424 0.84873 0.25716 0.0
C56 C 0.5953 0.39724 0.58568 0.0
O57 O 0.61344 0.3992 0.66113 0.0
Cd58 Cd 0.55627 0.37538 0.79268 0.0
O59 O 0.54289 0.38425 0.57238 0.0
Cd60 Cd 0.45568 0.356 0.66174 0.0
C61 C 0.46651 0.23887 0.72225 0.0
O62 O 0.48088 0.39796 0.80261 0.0
O63 O 0.3987 0.31719 0.78885 0.0
O64 O 0.44375 0.43419 0.6058 0.0
C65 C 0.43405 0.35817 0.83652 0.0
O66 O 0.49955 0.271 0.78156 0.0
C67 C 0.39077 0.4019 0.58527 0.0
O68 O 0.44975 0.25966 0.66212 0.0
O69 O 0.36986 0.34704 0.59043 0.0
C70 C 0.11226 0.63813 0.91909 0.0
O71 O 0.12843 0.65624 0.99454 0.0
Cd72 Cd 0.09508 0.59905 0.12607 0.0
O73 O 0.07284 0.58572 0.90576 0.0
Cd74 Cd 0.0139 0.49848 0.99506 0.0
C75 C 0.14183 0.50926 0.05557 0.0
O76 O -0.00286 0.52368 0.13595 0.0
O77 O -0.00425 0.44149 0.12215 0.0
O78 O -0.07621 0.48654 0.93912 0.0
C79 C -0.00989 0.47684 0.16984 0.0
O80 O 0.14272 0.54229 0.11491 0.0
C81 C -0.09687 0.43355 0.91858 0.0
O82 O 0.1043 0.49252 0.99543 0.0
O83 O -0.06291 0.41265 0.92373 0.0
C84 C 0.63066 0.39724 0.51303 0.0
O85 O 0.61445 0.39915 0.43758 0.0
Cd86 Cd 0.64783 0.37533 0.30603 0.0
O87 O 0.6701 0.38427 0.52634 0.0
Cd88 Cd 0.72907 0.35599 0.43702 0.0
C89 C 0.60121 0.23884 0.37644 0.0
O90 O 0.74579 0.39794 0.29615 0.0
O91 O 0.74727 0.31716 0.30992 0.0
O92 O 0.81912 0.43418 0.49298 0.0
C93 C 0.75285 0.35813 0.26225 0.0
O94 O 0.60028 0.27095 0.31712 0.0
C95 C 0.83986 0.40191 0.51352 0.0
O96 O 0.6387 0.25964 0.43664 0.0
O97 O 0.80594 0.34705 0.50833 0.0
C98 C 0.14761 0.67349 0.84645 0.0
O99 O 0.12949 0.65729 0.771 0.0
Cd100 Cd 0.18666 0.69065 0.63944 0.0
O101 O 0.20001 0.71292 0.85978 0.0
Cd102 Cd 0.28723 0.77185 0.77044 0.0
C103 C 0.27649 0.64395 0.7098 0.0
O104 O 0.26202 0.78861 0.62958 0.0
O105 O 0.34422 0.79 0.64334 0.0
O106 O 0.2992 0.86198 0.82641 0.0
C107 C 0.30885 0.79562 0.59568 0.0
O108 O 0.24345 0.64304 0.6505 0.0
C109 C 0.35219 0.88266 0.84694 0.0
O110 O 0.2932 0.68144 0.77001 0.0
O111 O 0.37306 0.84867 0.84174 0.0
C112 C 0.38857 0.19048 0.17978 0.0
O113 O 0.38665 0.17234 0.10433 0.0
Cd114 Cd 0.41044 0.2295 0.97277 0.0
O115 O 0.40154 0.2429 0.19309 0.0
Cd116 Cd 0.42978 0.3301 0.10372 0.0
C117 C 0.54693 0.31933 0.04312 0.0
O118 O 0.38783 0.30487 0.96285 0.0
O119 O 0.46859 0.38708 0.97662 0.0
O120 O 0.35158 0.342 0.15967 0.0
C121 C 0.42762 0.3517 0.92896 0.0
O122 O 0.51481 0.28628 0.98382 0.0
C123 C 0.38384 0.395 0.1802 0.0
O124 O 0.52614 0.33605 0.10332 0.0
O125 O 0.4387 0.41592 0.17501 0.0
C126 C 0.11232 0.43131 0.51302 0.0
O127 O 0.12853 0.42939 0.43757 0.0
Cd128 Cd 0.09516 0.45321 0.30603 0.0
O129 O 0.07287 0.44428 0.52635 0.0
Cd130 Cd 0.01391 0.47255 0.43703 0.0
C131 C 0.14177 0.5897 0.37646 0.0
O132 O -0.00281 0.4306 0.29615 0.0
O133 O -0.00428 0.51137 0.30995 0.0
O134 O -0.07615 0.39434 0.49297 0.0
C135 C -0.00986 0.4704 0.26227 0.0
O136 O 0.1427 0.55758 0.31713 0.0
C137 C -0.09688 0.42662 0.51351 0.0
O138 O 0.10427 0.5689 0.43666 0.0
O139 O -0.06296 0.48149 0.50836 0.0
C140 C 0.59535 0.15505 0.84641 0.0
O141 O 0.61348 0.17123 0.77096 0.0
Cd142 Cd 0.55631 0.13788 0.63941 0.0
O143 O 0.54294 0.11563 0.85974 0.0
Cd144 Cd 0.45572 0.0567 0.77043 0.0
C145 C 0.46649 0.18461 0.70981 0.0
O146 O 0.48093 0.03993 0.62955 0.0
O147 O 0.39873 0.03854 0.64335 0.0
O148 O 0.44376 -0.03343 0.82637 0.0
C149 C 0.4341 0.03293 0.59567 0.0
O150 O 0.49955 0.18551 0.65051 0.0
C151 C 0.39077 -0.05409 0.84691 0.0
O152 O 0.44977 0.14711 0.77001 0.0
O153 O 0.36988 -0.02011 0.84176 0.0
C154 C 0.35441 0.63807 0.17976 0.0
O155 O 0.35635 0.6562 0.10431 0.0
Cd156 Cd 0.33255 0.59905 0.97274 0.0
O157 O 0.34142 0.58565 0.19306 0.0
Cd158 Cd 0.31318 0.49843 0.1037 0.0
C159 C 0.19606 0.50923 0.04312 0.0
O160 O 0.35514 0.52365 0.96283 0.0
O161 O 0.27438 0.44144 0.9766 0.0
O162 O 0.39138 0.48654 0.15963 0.0
C163 C 0.31534 0.47682 0.92893 0.0
O164 O 0.22819 0.54228 0.98382 0.0
C165 C 0.35911 0.43355 0.18017 0.0
O166 O 0.21684 0.4925 0.10331 0.0
O167 O 0.30425 0.41262 0.17501 0.0
loop_
_geom_bond_atom_site_label_1
_geom_bond_atom_site_label_2
_geom_bond_distance
_geom_bond_site_symmetry_2
_ccdc_geom_bond_type
C0 O1 1.306 . S
C0 O3 1.160 . S
O1 C0 1.306 . S
O1 Cd2 2.228 . S
Cd2 O1 2.228 . S
Cd2 O6 2.273 . S
Cd2 O10 2.277 . S
O3 C0 1.160 . S
O3 Cd4 2.203 . S
Cd4 O3 2.203 . S
Cd4 O6 2.411 . S
Cd4 O7 2.333 . S
Cd4 O8 2.352 . S
Cd4 O12 2.277 . S
Cd4 O13 2.356 . S
C5 O10 1.209 . S
C5 O12 1.226 . S
O6 Cd2 2.273 . S
O6 Cd4 2.411 . S
O6 C9 1.320 . S
O7 Cd4 2.333 . S
O7 C9 1.214 . S
O8 Cd4 2.352 . S
O8 C11 1.258 . S
C9 O6 1.320 . S
C9 O7 1.214 . S
O10 Cd2 2.277 . S
O10 C5 1.209 . S
C11 O8 1.258 . S
C11 O13 1.282 . S
O12 Cd4 2.277 . S
O12 C5 1.226 . S
O13 Cd4 2.356 . S
O13 C11 1.282 . S
C14 O15 1.306 . S
C14 O17 1.160 . S
O15 C14 1.306 . S
O15 Cd16 2.228 . S
Cd16 O15 2.228 . S
Cd16 O20 2.273 . S
Cd16 O24 2.277 . S
O17 C14 1.160 . S
O17 Cd18 2.203 . S
Cd18 O17 2.203 . S
Cd18 O20 2.411 . S
Cd18 O21 2.333 . S
Cd18 O22 2.352 . S
Cd18 O26 2.277 . S
Cd18 O27 2.356 . S
C19 O24 1.209 . S
C19 O26 1.226 . S
O20 Cd16 2.273 . S
O20 Cd18 2.411 . S
O20 C23 1.320 . S
O21 Cd18 2.333 . S
O21 C23 1.214 . S
O22 Cd18 2.352 . S
O22 C25 1.258 . S
C23 O20 1.320 . S
C23 O21 1.214 . S
O24 Cd16 2.277 . S
O24 C19 1.209 . S
C25 O22 1.258 . S
C25 O27 1.282 . S
O26 Cd18 2.277 . S
O26 C19 1.226 . S
O27 Cd18 2.356 . S
O27 C25 1.282 . S
C28 O29 1.306 . S
C28 O31 1.160 . S
O29 C28 1.306 . S
O29 Cd30 2.228 1_556 S
Cd30 O29 2.228 1_554 S
Cd30 O34 2.273 . S
Cd30 O38 2.277 . S
O31 C28 1.160 . S
O31 Cd32 2.203 . S
Cd32 O31 2.203 . S
Cd32 O34 2.411 1_556 S
Cd32 O35 2.333 1_556 S
Cd32 O36 2.352 . S
Cd32 O40 2.277 . S
Cd32 O41 2.356 . S
C33 O38 1.209 1_556 S
C33 O40 1.226 . S
O34 Cd30 2.273 . S
O34 Cd32 2.411 1_554 S
O34 C37 1.320 . S
O35 Cd32 2.333 1_554 S
O35 C37 1.214 . S
O36 Cd32 2.352 . S
O36 C39 1.258 . S
C37 O34 1.320 . S
C37 O35 1.214 . S
O38 Cd30 2.277 . S
O38 C33 1.209 1_554 S
C39 O36 1.258 . S
C39 O41 1.282 . S
O40 Cd32 2.277 . S
O40 C33 1.226 . S
O41 Cd32 2.356 . S
O41 C39 1.282 . S
C42 O43 1.306 . S
C42 O45 1.160 . S
O43 C42 1.306 . S
O43 Cd44 2.228 . S
Cd44 O43 2.228 . S
Cd44 O48 2.273 . S
Cd44 O52 2.277 . S
O45 C42 1.160 . S
O45 Cd46 2.203 . S
Cd46 O45 2.203 . S
Cd46 O48 2.411 . S
Cd46 O49 2.333 . S
Cd46 O50 2.352 . S
Cd46 O54 2.277 . S
Cd46 O55 2.356 . S
C47 O52 1.209 . S
C47 O54 1.226 . S
O48 Cd44 2.273 . S
O48 Cd46 2.411 . S
O48 C51 1.320 . S
O49 Cd46 2.333 . S
O49 C51 1.214 . S
O50 Cd46 2.352 . S
O50 C53 1.258 . S
C51 O48 1.320 . S
C51 O49 1.214 . S
O52 Cd44 2.277 . S
O52 C47 1.209 . S
C53 O50 1.258 . S
C53 O55 1.282 . S
O54 Cd46 2.277 . S
O54 C47 1.226 . S
O55 Cd46 2.356 . S
O55 C53 1.282 . S
C56 O57 1.306 . S
C56 O59 1.160 . S
O57 C56 1.306 . S
O57 Cd58 2.228 . S
Cd58 O57 2.228 . S
Cd58 O62 2.273 . S
Cd58 O66 2.277 . S
O59 C56 1.160 . S
O59 Cd60 2.203 . S
Cd60 O59 2.203 . S
Cd60 O62 2.411 . S
Cd60 O63 2.333 . S
Cd60 O64 2.352 . S
Cd60 O68 2.277 . S
Cd60 O69 2.356 . S
C61 O66 1.209 . S
C61 O68 1.226 . S
O62 Cd58 2.273 . S
O62 Cd60 2.411 . S
O62 C65 1.320 . S
O63 Cd60 2.333 . S
O63 C65 1.214 . S
O64 Cd60 2.352 . S
O64 C67 1.258 . S
C65 O62 1.320 . S
C65 O63 1.214 . S
O66 Cd58 2.277 . S
O66 C61 1.209 . S
C67 O64 1.258 . S
C67 O69 1.282 . S
O68 Cd60 2.277 . S
O68 C61 1.226 . S
O69 Cd60 2.356 . S
O69 C67 1.282 . S
C70 O71 1.306 . S
C70 O73 1.160 . S
O71 C70 1.306 . S
O71 Cd72 2.228 1_556 S
Cd72 O71 2.228 1_554 S
Cd72 O76 2.273 . S
Cd72 O80 2.277 . S
O73 C70 1.160 . S
O73 Cd74 2.203 . S
Cd74 O73 2.203 . S
Cd74 O76 2.411 1_556 S
Cd74 O77 2.333 1_556 S
Cd74 O78 2.352 . S
Cd74 O82 2.277 . S
Cd74 O83 2.356 . S
C75 O80 1.209 1_556 S
C75 O82 1.226 . S
O76 Cd72 2.273 . S
O76 Cd74 2.411 1_554 S
O76 C79 1.320 . S
O77 Cd74 2.333 1_554 S
O77 C79 1.214 . S
O78 Cd74 2.352 . S
O78 C81 1.258 . S
C79 O76 1.320 . S
C79 O77 1.214 . S
O80 Cd72 2.277 . S
O80 C75 1.209 1_554 S
C81 O78 1.258 . S
C81 O83 1.282 . S
O82 Cd74 2.277 . S
O82 C75 1.226 . S
O83 Cd74 2.356 . S
O83 C81 1.282 . S
C84 O85 1.306 . S
C84 O87 1.160 . S
O85 C84 1.306 . S
O85 Cd86 2.228 . S
Cd86 O85 2.228 . S
Cd86 O90 2.273 . S
Cd86 O94 2.277 . S
O87 C84 1.160 . S
O87 Cd88 2.203 . S
Cd88 O87 2.203 . S
Cd88 O90 2.411 . S
Cd88 O91 2.333 . S
Cd88 O92 2.352 . S
Cd88 O96 2.277 . S
Cd88 O97 2.356 . S
C89 O94 1.209 . S
C89 O96 1.226 . S
O90 Cd86 2.273 . S
O90 Cd88 2.411 . S
O90 C93 1.320 . S
O91 Cd88 2.333 . S
O91 C93 1.214 . S
O92 Cd88 2.352 . S
O92 C95 1.258 . S
C93 O90 1.320 . S
C93 O91 1.214 . S
O94 Cd86 2.277 . S
O94 C89 1.209 . S
C95 O92 1.258 . S
C95 O97 1.282 . S
O96 Cd88 2.277 . S
O96 C89 1.226 . S
O97 Cd88 2.356 . S
O97 C95 1.282 . S
C98 O99 1.306 . S
C98 O101 1.160 . S
O99 C98 1.306 . S
O99 Cd100 2.228 . S
Cd100 O99 2.228 . S
Cd100 O104 2.273 . S
Cd100 O108 2.277 . S
O101 C98 1.160 . S
O101 Cd102 2.203 . S
Cd102 O101 2.203 . S
Cd102 O104 2.411 . S
Cd102 O105 2.333 . S
Cd102 O106 2.352 . S
Cd102 O110 2.277 . S
Cd102 O111 2.356 . S
C103 O108 1.209 . S
C103 O110 1.226 . S
O104 Cd100 2.273 . S
O104 Cd102 2.411 . S
O104 C107 1.320 . S
O105 Cd102 2.333 . S
O105 C107 1.214 . S
O106 Cd102 2.352 . S
O106 C109 1.258 . S
C107 O104 1.320 . S
C107 O105 1.214 . S
O108 Cd100 2.277 . S
O108 C103 1.209 . S
C109 O106 1.258 . S
C109 O111 1.282 . S
O110 Cd102 2.277 . S
O110 C103 1.226 . S
O111 Cd102 2.356 . S
O111 C109 1.282 . S
C112 O113 1.306 . S
C112 O115 1.160 . S
O113 C112 1.306 . S
O113 Cd114 2.228 1_554 S
Cd114 O113 2.228 1_556 S
Cd114 O118 2.273 . S
Cd114 O122 2.277 . S
O115 C112 1.160 . S
O115 Cd116 2.203 . S
Cd116 O115 2.203 . S
Cd116 O118 2.411 1_554 S
Cd116 O119 2.333 1_554 S
Cd116 O120 2.352 . S
Cd116 O124 2.277 . S
Cd116 O125 2.356 . S
C117 O122 1.209 1_554 S
C117 O124 1.226 . S
O118 Cd114 2.273 . S
O118 Cd116 2.411 1_556 S
O118 C121 1.320 . S
O119 Cd116 2.333 1_556 S
O119 C121 1.214 . S
O120 Cd116 2.352 . S
O120 C123 1.258 . S
C121 O118 1.320 . S
C121 O119 1.214 . S
O122 Cd114 2.277 . S
O122 C117 1.209 1_556 S
C123 O120 1.258 . S
C123 O125 1.282 . S
O124 Cd116 2.277 . S
O124 C117 1.226 . S
O125 Cd116 2.356 . S
O125 C123 1.282 . S
C126 O127 1.306 . S
C126 O129 1.160 . S
O127 C126 1.306 . S
O127 Cd128 2.228 . S
Cd128 O127 2.228 . S
Cd128 O132 2.273 . S
Cd128 O136 2.277 . S
O129 C126 1.160 . S
O129 Cd130 2.203 . S
Cd130 O129 2.203 . S
Cd130 O132 2.411 . S
Cd130 O133 2.333 . S
Cd130 O134 2.352 . S
Cd130 O138 2.277 . S
Cd130 O139 2.356 . S
C131 O136 1.209 . S
C131 O138 1.226 . S
O132 Cd128 2.273 . S
O132 Cd130 2.411 . S
O132 C135 1.320 . S
O133 Cd130 2.333 . S
O133 C135 1.214 . S
O134 Cd130 2.352 . S
O134 C137 1.258 . S
C135 O132 1.320 . S
C135 O133 1.214 . S
O136 Cd128 2.277 . S
O136 C131 1.209 . S
C137 O134 1.258 . S
C137 O139 1.282 . S
O138 Cd130 2.277 . S
O138 C131 1.226 . S
O139 Cd130 2.356 . S
O139 C137 1.282 . S
C140 O141 1.306 . S
C140 O143 1.160 . S
O141 C140 1.306 . S
O141 Cd142 2.228 . S
Cd142 O141 2.228 . S
Cd142 O146 2.273 . S
Cd142 O150 2.277 . S
O143 C140 1.160 . S
O143 Cd144 2.203 . S
Cd144 O143 2.203 . S
Cd144 O146 2.411 . S
Cd144 O147 2.333 . S
Cd144 O148 2.352 . S
Cd144 O152 2.277 . S
Cd144 O153 2.356 . S
C145 O150 1.209 . S
C145 O152 1.226 . S
O146 Cd142 2.273 . S
O146 Cd144 2.411 . S
O146 C149 1.320 . S
O147 Cd144 2.333 . S
O147 C149 1.214 . S
O148 Cd144 2.352 . S
O148 C151 1.258 . S
C149 O146 1.320 . S
C149 O147 1.214 . S
O150 Cd142 2.277 . S
O150 C145 1.209 . S
C151 O148 1.258 . S
C151 O153 1.282 . S
O152 Cd144 2.277 . S
O152 C145 1.226 . S
O153 Cd144 2.356 . S
O153 C151 1.282 . S
C154 O155 1.306 . S
C154 O157 1.160 . S
O155 C154 1.306 . S
O155 Cd156 2.228 1_554 S
Cd156 O155 2.228 1_556 S
Cd156 O160 2.273 . S
Cd156 O164 2.277 . S
O157 C154 1.160 . S
O157 Cd158 2.203 . S
Cd158 O157 2.203 . S
Cd158 O160 2.411 1_554 S
Cd158 O161 2.333 1_554 S
Cd158 O162 2.352 . S
Cd158 O166 2.277 . S
Cd158 O167 2.356 . S
C159 O164 1.209 1_554 S
C159 O166 1.226 . S
O160 Cd156 2.273 . S
O160 Cd158 2.411 1_556 S
O160 C163 1.320 . S
O161 Cd158 2.333 1_556 S
O161 C163 1.214 . S
O162 Cd158 2.352 . S
O162 C165 1.258 . S
C163 O160 1.320 . S
C163 O161 1.214 . S
O164 Cd156 2.277 . S
O164 C159 1.209 1_556 S
C165 O162 1.258 . S
C165 O167 1.282 . S
O166 Cd158 2.277 . S
O166 C159 1.226 . S
O167 Cd158 2.356 . S
O167 C165 1.282 . S
C9 C149 2.693 . S
C23 C163 2.694 . S
C93 C37 2.693 . S
C51 C107 2.693 . S
C121 C65 2.694 . S
C135 C79 2.693 . S
C89 C5 0.755 . S
C103 C19 0.754 . S
C117 C33 0.755 1_554 S
C47 C131 0.755 . S
C61 C145 0.754 . S
C75 C159 0.755 1_556 S
C11 C53 1.514 1_545 S
C25 C67 1.515 . S
C39 C81 1.515 1_655 S
C137 C95 1.514 1_455 S
C151 C109 1.515 1_545 S
C165 C123 1.514 . S
C0 C112 1.815 . S
C126 C14 1.815 . S
C28 C140 1.815 . S
C154 C42 1.815 . S
C56 C84 1.815 . S
C70 C98 1.815 . S
