# Generated by pormake.
# Topology lon, (4)-cn, num edge types: 1
# Building blocks:
#     Node 0, Type 0, BuildingBlock: NAHDIM_clean_sbu_0, # of connection points: 4
#     Node 1, Type 0, BuildingBlock: NAHDIM_clean_sbu_0, # of connection points: 4
#     Node 2, Type 0, BuildingBlock: NAHDIM_clean_sbu_0, # of connection points: 4
#     Node 3, Type 0, BuildingBlock: NAHDIM_clean_sbu_0, # of connection points: 4
#     Edge 4, Type (0, 0), BuildingBlock: CIFDUS_clean_linker_0, # of connection points: 2
#     Edge 5, Type (0, 0), BuildingBlock: CIFDUS_clean_linker_0, # of connection points: 2
#     Edge 6, Type (0, 0), BuildingBlock: CIFDUS_clean_linker_0, # of connection points: 2
#     Edge 7, Type (0, 0), BuildingBlock: CIFDUS_clean_linker_0, # of connection points: 2
#     Edge 8, Type (0, 0), BuildingBlock: CIFDUS_clean_linker_0, # of connection points: 2
#     Edge 9, Type (0, 0), BuildingBlock: CIFDUS_clean_linker_0, # of connection points: 2
#     Edge 10, Type (0, 0), BuildingBlock: CIFDUS_clean_linker_0, # of connection points: 2
#     Edge 11, Type (0, 0), BuildingBlock: CIFDUS_clean_linker_0, # of connection points: 2
# Relax obj value: 0.020
# Max RMSD: 0.061
# Mean RMSD: 0.060
data_MOF--net-lon--node1-NAHDIM_clean_sbu_0--edge1-CIFDUS_clean_linker_0
_symmetry_space_group_name_H-M    P1
_symmetry_Int_Tables_number       1
_symmetry_cell_setting            triclinic
loop_
_symmetry_equiv_pos_as_xyz
'x, y, z'
_cell_length_a     21.668819
_cell_length_b     21.360661
_cell_length_c     35.862693
_cell_angle_alpha  88.848816
_cell_angle_beta   90.312201
_cell_angle_gamma 119.58485
loop_
_atom_site_label
_atom_site_type_symbol
_atom_site_fract_x
_atom_site_fract_y
_atom_site_fract_z
_atom_type_partial_charge
C0 C 0.42661 0.62995 0.02821 0.0
O1 O 0.43129 0.68253 0.00659 0.0
O2 O 0.37966 0.76431 0.05206 0.0
Zn3 Zn 0.33366 0.66198 0.0722 0.0
O4 O 0.23585 0.60782 0.05021 0.0
C5 C 0.28653 0.67816 0.14514 0.0
O6 O 0.2426 0.6911 0.12546 0.0
O7 O 0.38882 0.61285 0.05763 0.0
C8 C 0.18327 0.55376 0.06545 0.0
O9 O 0.19171 0.52872 0.09769 0.0
C10 C 0.3404 0.7915 0.04414 0.0
O11 O 0.27152 0.75221 0.04916 0.0
O12 O 0.32935 0.66367 0.12835 0.0
C13 C 0.86837 0.44109 0.578 0.0
O14 O 0.84812 0.4557 0.60957 0.0
O15 O 0.66947 0.39163 0.55732 0.0
Zn16 Zn 0.7197 0.33743 0.57399 0.0
O17 O 0.67428 0.2378 0.55239 0.0
C18 C 0.66467 0.32339 0.64896 0.0
O19 O 0.61005 0.32053 0.63134 0.0
O20 O 0.82215 0.39256 0.55748 0.0
C21 C 0.60745 0.19744 0.55003 0.0
O22 O 0.56548 0.22108 0.5618 0.0
C23 C 0.64434 0.38682 0.52473 0.0
O24 O 0.65119 0.34522 0.50054 0.0
O25 O 0.71686 0.32928 0.63014 0.0
C26 C 0.42513 0.56719 0.44027 0.0
O27 O 0.38354 0.54766 0.41097 0.0
O28 O 0.27762 0.61381 0.45801 0.0
Zn29 Zn 0.3799 0.67185 0.44149 0.0
O30 O 0.42425 0.77215 0.46258 0.0
C31 C 0.33526 0.68144 0.36633 0.0
O32 O 0.28254 0.68213 0.38387 0.0
O33 O 0.4326 0.62059 0.45885 0.0
C34 C 0.38805 0.80414 0.46458 0.0
O35 O 0.32226 0.77137 0.45265 0.0
C36 C 0.25914 0.61525 0.4914 0.0
O37 O 0.308 0.65425 0.51577 0.0
O38 O 0.38356 0.67845 0.38524 0.0
C39 C 0.83151 0.43196 0.94569 0.0
O40 O 0.82394 0.45333 0.91222 0.0
O41 O 0.6284 0.23637 0.96375 0.0
Zn42 Zn 0.67754 0.33809 0.94364 0.0
O43 O 0.62952 0.39282 0.96117 0.0
C44 C 0.6203 0.32254 0.87014 0.0
O45 O 0.5642 0.31104 0.88946 0.0
O46 O 0.77712 0.38489 0.96334 0.0
C47 C 0.64514 0.45255 0.94518 0.0
O48 O 0.69213 0.47667 0.91798 0.0
C49 C 0.56206 0.19886 0.96964 0.0
O50 O 0.52132 0.22715 0.96264 0.0
O51 O 0.67678 0.33584 0.88739 0.0
H52 H 0.37803 0.66657 0.19335 0.0
H53 H 0.19493 0.69631 0.18966 0.0
H54 H 0.19442 0.7008 0.25759 0.0
H55 H 0.24525 0.69536 0.31809 0.0
H56 H 0.42911 0.66687 0.32174 0.0
H57 H 0.43003 0.66309 0.25378 0.0
C58 C 0.33793 0.67395 0.20737 0.0
C59 C 0.28647 0.68085 0.18638 0.0
C60 C 0.3381 0.67684 0.24647 0.0
C61 C 0.23516 0.69078 0.20507 0.0
C62 C 0.23479 0.69336 0.24396 0.0
C63 C 0.28562 0.68842 0.30405 0.0
C64 C 0.33694 0.6813 0.32505 0.0
C65 C 0.28593 0.68634 0.26494 0.0
C66 C 0.38899 0.6726 0.30632 0.0
C67 C 0.38952 0.67029 0.26743 0.0
H68 H 0.56154 0.30872 0.69707 0.0
H69 H 0.7729 0.33678 0.69373 0.0
H70 H 0.77787 0.33901 0.76172 0.0
H71 H 0.72284 0.33438 0.82218 0.0
H72 H 0.51118 0.3056 0.82535 0.0
H73 H 0.50594 0.3024 0.75743 0.0
C74 C 0.60867 0.31518 0.71117 0.0
C75 C 0.66673 0.32263 0.69026 0.0
C76 C 0.61127 0.31647 0.7503 0.0
C77 C 0.72734 0.33084 0.70908 0.0
C78 C 0.73033 0.33224 0.748 0.0
C79 C 0.67555 0.32741 0.80803 0.0
C80 C 0.61757 0.32037 0.82889 0.0
C81 C 0.67271 0.32537 0.7689 0.0
C82 C 0.55663 0.31114 0.81005 0.0
C83 C 0.55353 0.30931 0.77116 0.0
H84 H 0.51868 0.65889 0.97061 0.0
H85 H 0.41713 0.51038 0.06296 0.0
H86 H 0.47557 0.4425 0.04551 0.0
H87 H 0.55467 0.42444 1.00367 0.0
H88 H 0.65732 0.57407 0.91185 0.0
H89 H 0.59928 0.64213 0.92951 0.0
C90 C 0.50932 0.61171 0.98696 0.0
C91 C 0.46342 0.58979 0.018 0.0
C92 C 0.54327 0.57296 0.97686 0.0
C93 C 0.45222 0.52862 0.03894 0.0
C94 C 0.48556 0.48963 0.02896 0.0
C95 C 0.56437 0.47194 0.98752 0.0
C96 C 0.61022 0.49393 0.95643 0.0
C97 C 0.53104 0.51117 0.99791 0.0
C98 C 0.62236 0.55583 0.93593 0.0
C99 C 0.58913 0.59485 0.94597 0.0
H100 H 0.20069 0.62371 0.55666 0.0
H101 H 0.14677 0.51918 0.45023 0.0
H102 H 0.0213 0.4561 0.46758 0.0
H103 H 0.92675 0.43093 0.51286 0.0
H104 H 0.98085 0.53745 0.61878 0.0
H105 H 0.10625 0.59945 0.60163 0.0
C106 C 0.16157 0.58694 0.53729 0.0
C107 C 0.18322 0.57607 0.50225 0.0
C108 C 0.08943 0.5513 0.54729 0.0
C109 C 0.13165 0.52858 0.4774 0.0
C110 C 0.05983 0.49246 0.48728 0.0
C111 C 0.96594 0.4677 0.53221 0.0
C112 C 0.94429 0.47939 0.56708 0.0
C113 C 0.03809 0.5035 0.52213 0.0
C114 C 0.99587 0.52745 0.59173 0.0
C115 C 0.06771 0.56291 0.58199 0.0
H116 H 0.42286 0.10218 0.98269 0.0
H117 H 0.63279 0.12685 0.9888 0.0
H118 H 0.58296 1.00327 0.0122 0.0
H119 H 0.47987 0.88799 0.03102 0.0
H120 H 0.26999 0.86345 0.02477 0.0
H121 H 0.31985 0.98695 1.00133 0.0
C122 C 0.45776 0.08061 0.98916 0.0
C123 C 0.53143 0.12387 0.98399 0.0
C124 C 0.42881 0.00937 1.00258 0.0
C125 C 0.57583 0.09485 0.99248 0.0
C126 C 0.54742 0.0241 0.00589 0.0
C127 C 0.44502 0.90963 0.02453 0.0
C128 C 0.37133 0.86643 0.0297 0.0
C129 C 0.47399 0.98085 0.01104 0.0
C130 C 0.32696 0.89541 0.0211 0.0
C131 C 0.35539 0.96613 0.00768 0.0
H132 H 0.56888 0.3739 0.46172 0.0
H133 H 0.63584 0.49015 0.56458 0.0
H134 H 0.5747 0.55667 0.54751 0.0
H135 H 0.50196 0.58188 0.50333 0.0
H136 H 0.43303 0.46322 0.40121 0.0
H137 H 0.4951 0.3978 0.4181 0.0
C138 C 0.57028 0.41389 0.48039 0.0
C139 C 0.60714 0.42709 0.51432 0.0
C140 C 0.53454 0.45158 0.47056 0.0
C141 C 0.60789 0.4788 0.53828 0.0
C142 C 0.57295 0.51697 0.52854 0.0
C143 C 0.5006 0.54179 0.48475 0.0
C144 C 0.46295 0.5277 0.45101 0.0
C145 C 0.53609 0.50382 0.49474 0.0
C146 C 0.46147 0.47522 0.42738 0.0
C147 C 0.49705 0.43774 0.43698 0.0
H148 H 0.15062 0.59078 0.99827 0.0
H149 H 0.05723 0.4447 0.09243 0.0
H150 H 0.94037 0.39428 0.06358 0.0
H151 H 0.8647 0.39264 0.0121 0.0
H152 H 0.95821 0.53827 0.91779 0.0
H153 H 0.07523 0.58789 0.94637 0.0
C154 C 0.10479 0.54778 0.0125 0.0
C155 C 0.11275 0.52162 0.04751 0.0
C156 C 0.03779 0.51906 0.99579 0.0
C157 C 0.05272 0.46581 0.06546 0.0
C158 C 0.98582 0.43701 0.04901 0.0
C159 C 0.91061 0.43526 0.99774 0.0
C160 C 0.90256 0.46181 0.96287 0.0
C161 C 0.97774 0.46341 0.01426 0.0
C162 C 0.96278 0.51685 0.94465 0.0
C163 C 0.02975 0.54528 0.96097 0.0
H164 H 0.46969 0.10576 0.53244 0.0
H165 H 0.67788 0.12572 0.53153 0.0
H166 H 0.62852 0.00579 0.50545 0.0
H167 H 0.52616 0.89502 0.4828 0.0
H168 H 0.31863 0.87671 0.48246 0.0
H169 H 0.36789 0.996 0.50909 0.0
C170 C 0.50432 0.0839 0.52661 0.0
C171 C 0.57736 0.12473 0.53404 0.0
C172 C 0.47571 0.01507 0.51134 0.0
C173 C 0.62145 0.09559 0.52607 0.0
C174 C 0.59326 0.02691 0.51117 0.0
C175 C 0.49169 0.91708 0.4886 0.0
C176 C 0.41878 0.87681 0.48066 0.0
C177 C 0.52046 0.98613 0.50369 0.0
C178 C 0.37498 0.90646 0.48818 0.0
C179 C 0.40307 0.97474 0.50348 0.0
loop_
_geom_bond_atom_site_label_1
_geom_bond_atom_site_label_2
_geom_bond_distance
_geom_bond_site_symmetry_2
_ccdc_geom_bond_type
C0 O1 1.160 . S
C0 O7 1.185 . S
O1 C0 1.160 . S
O2 Zn3 1.899 . S
O2 C10 1.284 . S
Zn3 O2 1.899 . S
Zn3 O4 2.032 . S
Zn3 O7 2.086 . S
Zn3 O12 1.977 . S
O4 Zn3 2.032 . S
O4 C8 1.278 . S
C5 O6 1.203 . S
C5 O12 1.267 . S
O6 C5 1.203 . S
O7 C0 1.185 . S
O7 Zn3 2.086 . S
C8 O4 1.278 . S
C8 O9 1.211 . S
O9 C8 1.211 . S
C10 O2 1.284 . S
C10 O11 1.273 . S
O11 C10 1.273 . S
O12 Zn3 1.977 . S
O12 C5 1.267 . S
C13 O14 1.160 . S
C13 O20 1.185 . S
O14 C13 1.160 . S
O15 Zn16 1.899 . S
O15 C23 1.284 . S
Zn16 O15 1.899 . S
Zn16 O17 2.032 . S
Zn16 O20 2.086 . S
Zn16 O25 1.977 . S
O17 Zn16 2.032 . S
O17 C21 1.278 . S
C18 O19 1.203 . S
C18 O25 1.267 . S
O19 C18 1.203 . S
O20 C13 1.185 . S
O20 Zn16 2.086 . S
C21 O17 1.278 . S
C21 O22 1.211 . S
O22 C21 1.211 . S
C23 O15 1.284 . S
C23 O24 1.273 . S
O24 C23 1.273 . S
O25 Zn16 1.977 . S
O25 C18 1.267 . S
C26 O27 1.160 . S
C26 O33 1.185 . S
O27 C26 1.160 . S
O28 Zn29 1.899 . S
O28 C36 1.284 . S
Zn29 O28 1.899 . S
Zn29 O30 2.032 . S
Zn29 O33 2.086 . S
Zn29 O38 1.977 . S
O30 Zn29 2.032 . S
O30 C34 1.278 . S
C31 O32 1.203 . S
C31 O38 1.267 . S
O32 C31 1.203 . S
O33 C26 1.185 . S
O33 Zn29 2.086 . S
C34 O30 1.278 . S
C34 O35 1.211 . S
O35 C34 1.211 . S
C36 O28 1.284 . S
C36 O37 1.273 . S
O37 C36 1.273 . S
O38 Zn29 1.977 . S
O38 C31 1.267 . S
C39 O40 1.160 . S
C39 O46 1.185 . S
O40 C39 1.160 . S
O41 Zn42 1.899 . S
O41 C49 1.284 . S
Zn42 O41 1.899 . S
Zn42 O43 2.032 . S
Zn42 O46 2.086 . S
Zn42 O51 1.977 . S
O43 Zn42 2.032 . S
O43 C47 1.278 . S
C44 O45 1.203 . S
C44 O51 1.267 . S
O45 C44 1.203 . S
O46 C39 1.185 . S
O46 Zn42 2.086 . S
C47 O43 1.278 . S
C47 O48 1.211 . S
O48 C47 1.211 . S
C49 O41 1.284 . S
C49 O50 1.273 . S
O50 C49 1.273 . S
O51 Zn42 1.977 . S
O51 C44 1.267 . S
H52 C58 0.930 . S
H53 C61 0.930 . S
H54 C62 0.930 . S
H55 C63 0.930 . S
H56 C66 0.930 . S
H57 C67 0.930 . S
C58 H52 0.930 . S
C58 C59 1.355 . S
C58 C60 1.415 . S
C59 C58 1.355 . S
C59 C61 1.419 . S
C60 C58 1.415 . S
C60 C65 1.425 . S
C60 C67 1.409 . S
C61 H53 0.930 . S
C61 C59 1.419 . S
C61 C62 1.362 . S
C62 H54 0.930 . S
C62 C61 1.362 . S
C62 C65 1.409 . S
C63 H55 0.930 . S
C63 C64 1.355 . S
C63 C65 1.415 . S
C64 C63 1.355 . S
C64 C66 1.419 . S
C65 C60 1.425 . S
C65 C62 1.409 . S
C65 C63 1.415 . S
C66 H56 0.930 . S
C66 C64 1.419 . S
C66 C67 1.362 . S
C67 H57 0.930 . S
C67 C60 1.409 . S
C67 C66 1.362 . S
H68 C74 0.930 . S
H69 C77 0.930 . S
H70 C78 0.930 . S
H71 C79 0.930 . S
H72 C82 0.930 . S
H73 C83 0.930 . S
C74 H68 0.930 . S
C74 C75 1.355 . S
C74 C76 1.415 . S
C75 C74 1.355 . S
C75 C77 1.419 . S
C76 C74 1.415 . S
C76 C81 1.425 . S
C76 C83 1.409 . S
C77 H69 0.930 . S
C77 C75 1.419 . S
C77 C78 1.362 . S
C78 H70 0.930 . S
C78 C77 1.362 . S
C78 C81 1.409 . S
C79 H71 0.930 . S
C79 C80 1.355 . S
C79 C81 1.415 . S
C80 C79 1.355 . S
C80 C82 1.419 . S
C81 C76 1.425 . S
C81 C78 1.409 . S
C81 C79 1.415 . S
C82 H72 0.930 . S
C82 C80 1.419 . S
C82 C83 1.362 . S
C83 H73 0.930 . S
C83 C76 1.409 . S
C83 C82 1.362 . S
H84 C90 0.930 . S
H85 C93 0.930 . S
H86 C94 0.930 . S
H87 C95 0.930 1_554 S
H88 C98 0.930 . S
H89 C99 0.930 . S
C90 H84 0.930 . S
C90 C91 1.355 1_556 S
C90 C92 1.415 . S
C91 C90 1.355 1_554 S
C91 C93 1.419 . S
C92 C90 1.415 . S
C92 C97 1.425 1_556 S
C92 C99 1.409 . S
C93 H85 0.930 . S
C93 C91 1.419 . S
C93 C94 1.362 . S
C94 H86 0.930 . S
C94 C93 1.362 . S
C94 C97 1.409 . S
C95 H87 0.930 1_556 S
C95 C96 1.355 . S
C95 C97 1.415 1_556 S
C96 C95 1.355 . S
C96 C98 1.419 . S
C97 C92 1.425 1_554 S
C97 C94 1.409 . S
C97 C95 1.415 1_554 S
C98 H88 0.930 . S
C98 C96 1.419 . S
C98 C99 1.362 . S
C99 H89 0.930 . S
C99 C92 1.409 . S
C99 C98 1.362 . S
H100 C106 0.930 . S
H101 C109 0.930 . S
H102 C110 0.930 . S
H103 C111 0.930 . S
H104 C114 0.930 . S
H105 C115 0.930 . S
C106 H100 0.930 . S
C106 C107 1.355 . S
C106 C108 1.415 . S
C107 C106 1.355 . S
C107 C109 1.419 . S
C108 C106 1.415 . S
C108 C113 1.425 . S
C108 C115 1.409 1_455 S
C109 H101 0.930 . S
C109 C107 1.419 . S
C109 C110 1.362 . S
C110 H102 0.930 . S
C110 C109 1.362 . S
C110 C113 1.409 . S
C111 H103 0.930 . S
C111 C112 1.355 . S
C111 C113 1.415 1_655 S
C112 C111 1.355 . S
C112 C114 1.419 . S
C113 C108 1.425 . S
C113 C110 1.409 . S
C113 C111 1.415 1_455 S
C114 H104 0.930 . S
C114 C112 1.419 . S
C114 C115 1.362 . S
C115 H105 0.930 . S
C115 C108 1.409 1_655 S
C115 C114 1.362 . S
H116 C122 0.930 1_554 S
H117 C125 0.930 . S
H118 C126 0.930 1_565 S
H119 C127 0.930 1_556 S
H120 C130 0.930 . S
H121 C131 0.930 1_545 S
C122 H116 0.930 1_556 S
C122 C123 1.355 . S
C122 C124 1.415 1_556 S
C123 C122 1.355 . S
C123 C125 1.419 . S
C124 C122 1.415 1_554 S
C124 C129 1.425 1_544 S
C124 C131 1.409 1_545 S
C125 H117 0.930 . S
C125 C123 1.419 . S
C125 C126 1.362 . S
C126 H118 0.930 1_545 S
C126 C125 1.362 . S
C126 C129 1.409 1_545 S
C127 H119 0.930 1_554 S
C127 C128 1.355 . S
C127 C129 1.415 1_554 S
C128 C127 1.355 . S
C128 C130 1.419 . S
C129 C124 1.425 1_566 S
C129 C126 1.409 1_565 S
C129 C127 1.415 1_556 S
C130 H120 0.930 . S
C130 C128 1.419 . S
C130 C131 1.362 . S
C131 H121 0.930 1_565 S
C131 C124 1.409 1_565 S
C131 C130 1.362 . S
H132 C138 0.930 . S
H133 C141 0.930 . S
H134 C142 0.930 . S
H135 C143 0.930 . S
H136 C146 0.930 . S
H137 C147 0.930 . S
C138 H132 0.930 . S
C138 C139 1.355 . S
C138 C140 1.415 . S
C139 C138 1.355 . S
C139 C141 1.419 . S
C140 C138 1.415 . S
C140 C145 1.425 . S
C140 C147 1.409 . S
C141 H133 0.930 . S
C141 C139 1.419 . S
C141 C142 1.362 . S
C142 H134 0.930 . S
C142 C141 1.362 . S
C142 C145 1.409 . S
C143 H135 0.930 . S
C143 C144 1.355 . S
C143 C145 1.415 . S
C144 C143 1.355 . S
C144 C146 1.419 . S
C145 C140 1.425 . S
C145 C142 1.409 . S
C145 C143 1.415 . S
C146 H136 0.930 . S
C146 C144 1.419 . S
C146 C147 1.362 . S
C147 H137 0.930 . S
C147 C140 1.409 . S
C147 C146 1.362 . S
H148 C154 0.930 . S
H149 C157 0.930 . S
H150 C158 0.930 . S
H151 C159 0.930 . S
H152 C162 0.930 . S
H153 C163 0.930 . S
C154 H148 0.930 . S
C154 C155 1.355 . S
C154 C156 1.415 . S
C155 C154 1.355 . S
C155 C157 1.419 . S
C156 C154 1.415 . S
C156 C161 1.425 1_455 S
C156 C163 1.409 1_454 S
C157 H149 0.930 . S
C157 C155 1.419 . S
C157 C158 1.362 . S
C158 H150 0.930 . S
C158 C157 1.362 . S
C158 C161 1.409 1_455 S
C159 H151 0.930 . S
C159 C160 1.355 . S
C159 C161 1.415 1_556 S
C160 C159 1.355 . S
C160 C162 1.419 . S
C161 C156 1.425 1_655 S
C161 C158 1.409 1_655 S
C161 C159 1.415 1_554 S
C162 H152 0.930 . S
C162 C160 1.419 . S
C162 C163 1.362 . S
C163 H153 0.930 . S
C163 C156 1.409 1_656 S
C163 C162 1.362 . S
H164 C170 0.930 . S
H165 C173 0.930 . S
H166 C174 0.930 . S
H167 C175 0.930 . S
H168 C178 0.930 . S
H169 C179 0.930 . S
C170 H164 0.930 . S
C170 C171 1.355 . S
C170 C172 1.415 . S
C171 C170 1.355 . S
C171 C173 1.419 . S
C172 C170 1.415 . S
C172 C177 1.425 1_545 S
C172 C179 1.409 1_545 S
C173 H165 0.930 . S
C173 C171 1.419 . S
C173 C174 1.362 . S
C174 H166 0.930 . S
C174 C173 1.362 . S
C174 C177 1.409 1_545 S
C175 H167 0.930 . S
C175 C176 1.355 . S
C175 C177 1.415 . S
C176 C175 1.355 . S
C176 C178 1.419 . S
C177 C172 1.425 1_565 S
C177 C174 1.409 1_565 S
C177 C175 1.415 . S
C178 H168 0.930 . S
C178 C176 1.419 . S
C178 C179 1.362 . S
C179 H169 0.930 . S
C179 C172 1.409 1_565 S
C179 C178 1.362 . S
C59 C5 1.488 . S
C64 C31 1.512 . S
C75 C18 1.510 . S
C80 C44 1.481 . S
C91 C0 1.505 . S
C96 C47 1.483 . S
C107 C36 1.453 . S
C112 C13 1.411 . S
C123 C49 1.426 . S
C128 C10 1.396 . S
C139 C23 1.458 . S
C144 C26 1.406 . S
C155 C8 1.506 . S
C160 C39 1.483 . S
C171 C21 1.550 . S
C176 C34 1.536 . S
