# Generated by pormake.
# Topology acs, (6)-cn, num edge types: 1
# Building blocks:
#     Node 0, Type 0, BuildingBlock: OJICUG_clean_sbu_0, # of connection points: 6
#     Node 1, Type 0, BuildingBlock: OJICUG_clean_sbu_0, # of connection points: 6
#     Edge 2, Type (0, 0), BuildingBlock: CIFDUS_clean_linker_0, # of connection points: 2
#     Edge 3, Type (0, 0), BuildingBlock: CIFDUS_clean_linker_0, # of connection points: 2
#     Edge 4, Type (0, 0), BuildingBlock: CIFDUS_clean_linker_0, # of connection points: 2
#     Edge 5, Type (0, 0), BuildingBlock: CIFDUS_clean_linker_0, # of connection points: 2
#     Edge 6, Type (0, 0), BuildingBlock: CIFDUS_clean_linker_0, # of connection points: 2
#     Edge 7, Type (0, 0), BuildingBlock: CIFDUS_clean_linker_0, # of connection points: 2
# Relax obj value: 0.000
# Max RMSD: 0.000
# Mean RMSD: 0.000
data_MOF--net-acs--node1-OJICUG_clean_sbu_0--edge1-CIFDUS_clean_linker_0
_symmetry_space_group_name_H-M    P1
_symmetry_Int_Tables_number       1
_symmetry_cell_setting            triclinic
loop_
_symmetry_equiv_pos_as_xyz
'x, y, z'
_cell_length_a     19.262176
_cell_length_b     18.856396
_cell_length_c     19.860548
_cell_angle_alpha  90.771309
_cell_angle_beta   89.536075
_cell_angle_gamma 122.04858
loop_
_atom_site_label
_atom_site_type_symbol
_atom_site_fract_x
_atom_site_fract_y
_atom_site_fract_z
_atom_type_partial_charge
Sc0 Sc 0.7347 0.47902 0.22992 0.0
Sc1 Sc 0.53832 0.2957 0.23574 0.0
Sc2 Sc 0.71419 0.28221 0.24049 0.0
O3 O 0.6624 0.35221 0.23541 0.0
C4 C 0.83169 0.42169 0.135 0.0
C5 C 0.59231 0.44358 0.12971 0.0
C6 C 0.56342 0.17581 0.13822 0.0
C7 C 0.59287 0.45248 0.33194 0.0
C8 C 0.83121 0.43907 0.33681 0.0
C9 C 0.56289 0.18199 0.34027 0.0
O10 O 0.81408 0.47506 0.15407 0.0
O11 O 0.53887 0.37468 0.15664 0.0
O12 O 0.6323 0.19499 0.16317 0.0
O13 O 0.66366 0.49722 0.3056 0.0
O14 O 0.80152 0.36324 0.31798 0.0
O15 O 0.52096 0.20902 0.3146 0.0
O16 O 0.8121 0.48654 0.30912 0.0
O17 O 0.54168 0.37803 0.31266 0.0
O18 O 0.63418 0.20457 0.31954 0.0
O19 O 0.66576 0.48646 0.14999 0.0
O20 O 0.80033 0.3503 0.16178 0.0
O21 O 0.52359 0.20804 0.1591 0.0
Sc22 Sc 0.25731 0.54349 0.74039 0.0
Sc23 Sc 0.45369 0.72681 0.73456 0.0
Sc24 Sc 0.27782 0.7403 0.72981 0.0
O25 O 0.32961 0.6703 0.73489 0.0
C26 C 0.1608 0.58344 0.6335 0.0
C27 C 0.39914 0.57003 0.63837 0.0
C28 C 0.42912 0.84053 0.63003 0.0
C29 C 0.3997 0.57894 0.84059 0.0
C30 C 0.16032 0.60082 0.83531 0.0
C31 C 0.42859 0.8467 0.83209 0.0
O32 O 0.1799 0.53598 0.66118 0.0
O33 O 0.45033 0.64448 0.65765 0.0
O34 O 0.35783 0.81794 0.65076 0.0
O35 O 0.32625 0.53606 0.82031 0.0
O36 O 0.19168 0.67221 0.80852 0.0
O37 O 0.46842 0.81447 0.81121 0.0
O38 O 0.17793 0.54746 0.81623 0.0
O39 O 0.45313 0.64783 0.81367 0.0
O40 O 0.3597 0.82752 0.80713 0.0
O41 O 0.32835 0.52529 0.66471 0.0
O42 O 0.19049 0.65928 0.65232 0.0
O43 O 0.47105 0.81349 0.6557 0.0
H44 H 0.36157 0.92327 0.9008 0.0
H45 H 0.57819 0.90936 0.89093 0.0
H46 H 0.63836 1.00822 0.98431 0.0
H47 H 0.63044 0.09925 0.0695 0.0
H48 H 0.41381 0.11316 0.07937 0.0
H49 H 0.35365 0.01429 -0.01401 0.0
C50 C 0.422 0.94195 0.91888 0.0
C51 C 0.46486 0.90852 0.88846 0.0
C52 C 0.45669 0.99906 0.97306 0.0
C53 C 0.54324 0.93363 0.91306 0.0
C54 C 0.57801 0.99037 0.9667 0.0
C55 C 0.57001 0.08056 0.05143 0.0
C56 C 0.52715 0.114 0.08184 0.0
C57 C 0.53532 0.02346 -0.00276 0.0
C58 C 0.44877 0.08888 0.05724 0.0
C59 C 0.414 0.03214 0.00361 0.0
H60 H 0.54235 0.64805 0.56809 0.0
H61 H 0.31007 0.41325 0.58135 0.0
H62 H 0.34972 0.35705 0.4876 0.0
H63 H 0.44966 0.37446 0.40222 0.0
H64 H 0.68194 0.60926 0.38895 0.0
H65 H 0.64229 0.66546 0.4827 0.0
C66 C 0.50019 0.58446 0.55074 0.0
C67 C 0.42324 0.53501 0.58204 0.0
C68 C 0.52321 0.55255 0.49676 0.0
C69 C 0.36967 0.45282 0.55846 0.0
C70 C 0.39225 0.4206 0.50476 0.0
C71 C 0.49182 0.43805 0.41956 0.0
C72 C 0.56877 0.4875 0.38826 0.0
C73 C 0.4688 0.46996 0.47354 0.0
C74 C 0.62234 0.56969 0.41185 0.0
C75 C 0.59975 0.60192 0.46555 0.0
H76 H 0.91652 0.56794 0.06541 0.0
H77 H 0.88134 0.32241 0.07904 0.0
H78 H 0.97941 0.35595 -0.01166 0.0
H79 H 0.07549 0.45457 0.9049 0.0
H80 H 0.11066 0.7001 0.89126 0.0
H81 H 0.0126 0.66656 0.98196 0.0
C82 C 0.93017 0.52166 0.04862 0.0
C83 C 0.89135 0.44282 0.07936 0.0
C84 C 0.98686 0.5412 -0.00375 0.0
C85 C 0.91012 0.38376 0.05663 0.0
C86 C 0.96633 0.40279 0.00461 0.0
C87 C 0.06184 0.50085 0.92168 0.0
C88 C 0.10066 0.57969 0.89095 0.0
C89 C 0.00514 0.48131 0.97405 0.0
C90 C 0.08189 0.63875 0.91367 0.0
C91 C 0.02568 0.61973 0.96569 0.0
H92 H 0.36238 0.91937 0.56862 0.0
H93 H 0.5775 0.90251 0.56709 0.0
H94 H 0.63765 1.00695 0.47844 0.0
H95 H 0.62962 0.10314 0.40169 0.0
H96 H 0.41451 0.12 0.40322 0.0
H97 H 0.35436 0.01556 0.49186 0.0
C98 C 0.42239 0.93817 0.54894 0.0
C99 C 0.46514 0.90267 0.57481 0.0
C100 C 0.45687 0.99856 0.49806 0.0
C101 C 0.54297 0.92844 0.54842 0.0
C102 C 0.57754 0.98835 0.49767 0.0
C103 C 0.56962 0.08434 0.42136 0.0
C104 C 0.52687 0.11984 0.39549 0.0
C105 C 0.53514 0.02395 0.47224 0.0
C106 C 0.44904 0.09407 0.42188 0.0
C107 C 0.41446 0.03417 0.47263 0.0
H108 H 0.55296 0.63624 0.88977 0.0
H109 H 0.29821 0.44452 0.91881 0.0
H110 H 0.33495 0.3849 0.00929 0.0
H111 H 0.43904 0.38627 0.08053 0.0
H112 H 0.69379 0.57799 0.05149 0.0
H113 H 0.65706 0.63761 0.96102 0.0
C114 C 0.50542 0.58165 0.91601 0.0
C115 C 0.42305 0.54519 0.89717 0.0
C116 C 0.52681 0.54709 0.9681 0.0
C117 C 0.36232 0.47409 0.93183 0.0
C118 C 0.38315 0.43968 0.98374 0.0
C119 C 0.48659 0.44086 0.05429 0.0
C120 C 0.56896 0.47732 0.07313 0.0
C121 C 0.4652 0.47543 0.0022 0.0
C122 C 0.62968 0.54843 0.03848 0.0
C123 C 0.60886 0.58284 -0.01344 0.0
H124 H 0.08534 0.65129 0.56747 0.0
H125 H 0.10068 0.43102 0.57292 0.0
H126 H 7e-05 0.36646 0.48342 0.0
H127 H 0.90667 0.37122 0.40284 0.0
H128 H 0.89133 0.59149 0.39739 0.0
H129 H 0.99194 0.65605 0.48689 0.0
C130 C 0.06691 0.58934 0.54898 0.0
C131 C 0.1008 0.54653 0.57736 0.0
C132 C 0.00841 0.55182 0.4972 0.0
C133 C 0.07572 0.4659 0.55255 0.0
C134 C 0.01794 0.42852 0.50112 0.0
C135 C 0.9251 0.43317 0.42133 0.0
C136 C 0.89121 0.47598 0.39294 0.0
C137 C 0.9836 0.47069 0.47311 0.0
C138 C 0.91629 0.55661 0.41775 0.0
C139 C 0.97406 0.59399 0.46918 0.0
loop_
_geom_bond_atom_site_label_1
_geom_bond_atom_site_label_2
_geom_bond_distance
_geom_bond_site_symmetry_2
_ccdc_geom_bond_type
Sc0 O3 2.025 . S
Sc0 O10 2.105 . S
Sc0 O13 2.105 . S
Sc0 O16 2.105 . S
Sc0 O19 2.105 . S
Sc1 O3 2.025 . S
Sc1 O11 2.105 . S
Sc1 O15 2.105 . S
Sc1 O17 2.105 . S
Sc1 O21 2.105 . S
Sc2 O3 2.025 . S
Sc2 O12 2.105 . S
Sc2 O14 2.105 . S
Sc2 O18 2.105 . S
Sc2 O20 2.105 . S
O3 Sc0 2.025 . S
O3 Sc1 2.025 . S
O3 Sc2 2.025 . S
C4 O10 1.268 . S
C4 O20 1.268 . S
C5 O11 1.268 . S
C5 O19 1.268 . S
C6 O12 1.268 . S
C6 O21 1.268 . S
C7 O13 1.268 . S
C7 O17 1.268 . S
C8 O14 1.268 . S
C8 O16 1.268 . S
C9 O15 1.268 . S
C9 O18 1.268 . S
O10 Sc0 2.105 . S
O10 C4 1.268 . S
O11 Sc1 2.105 . S
O11 C5 1.268 . S
O12 Sc2 2.105 . S
O12 C6 1.268 . S
O13 Sc0 2.105 . S
O13 C7 1.268 . S
O14 Sc2 2.105 . S
O14 C8 1.268 . S
O15 Sc1 2.105 . S
O15 C9 1.268 . S
O16 Sc0 2.105 . S
O16 C8 1.268 . S
O17 Sc1 2.105 . S
O17 C7 1.268 . S
O18 Sc2 2.105 . S
O18 C9 1.268 . S
O19 Sc0 2.105 . S
O19 C5 1.268 . S
O20 Sc2 2.105 . S
O20 C4 1.268 . S
O21 Sc1 2.105 . S
O21 C6 1.268 . S
Sc22 O25 2.025 . S
Sc22 O32 2.105 . S
Sc22 O35 2.105 . S
Sc22 O38 2.105 . S
Sc22 O41 2.105 . S
Sc23 O25 2.025 . S
Sc23 O33 2.105 . S
Sc23 O37 2.105 . S
Sc23 O39 2.105 . S
Sc23 O43 2.105 . S
Sc24 O25 2.025 . S
Sc24 O34 2.105 . S
Sc24 O36 2.105 . S
Sc24 O40 2.105 . S
Sc24 O42 2.105 . S
O25 Sc22 2.025 . S
O25 Sc23 2.025 . S
O25 Sc24 2.025 . S
C26 O32 1.268 . S
C26 O42 1.268 . S
C27 O33 1.268 . S
C27 O41 1.268 . S
C28 O34 1.268 . S
C28 O43 1.268 . S
C29 O35 1.268 . S
C29 O39 1.268 . S
C30 O36 1.268 . S
C30 O38 1.268 . S
C31 O37 1.268 . S
C31 O40 1.268 . S
O32 Sc22 2.105 . S
O32 C26 1.268 . S
O33 Sc23 2.105 . S
O33 C27 1.268 . S
O34 Sc24 2.105 . S
O34 C28 1.268 . S
O35 Sc22 2.105 . S
O35 C29 1.268 . S
O36 Sc24 2.105 . S
O36 C30 1.268 . S
O37 Sc23 2.105 . S
O37 C31 1.268 . S
O38 Sc22 2.105 . S
O38 C30 1.268 . S
O39 Sc23 2.105 . S
O39 C29 1.268 . S
O40 Sc24 2.105 . S
O40 C31 1.268 . S
O41 Sc22 2.105 . S
O41 C27 1.268 . S
O42 Sc24 2.105 . S
O42 C26 1.268 . S
O43 Sc23 2.105 . S
O43 C28 1.268 . S
H44 C50 0.930 . S
H45 C53 0.930 . S
H46 C54 0.928 1_554 S
H47 C55 0.930 . S
H48 C58 0.930 . S
H49 C59 0.928 1_556 S
C50 H44 0.930 . S
C50 C51 1.355 . S
C50 C52 1.419 . S
C51 C50 1.355 . S
C51 C53 1.419 . S
C52 C50 1.419 . S
C52 C57 1.433 1_566 S
C52 C59 1.400 1_566 S
C53 H45 0.930 . S
C53 C51 1.419 . S
C53 C54 1.366 . S
C54 H46 0.928 1_556 S
C54 C53 1.366 . S
C54 C57 1.400 1_566 S
C55 H47 0.930 . S
C55 C56 1.355 . S
C55 C57 1.419 . S
C56 C55 1.355 . S
C56 C58 1.419 . S
C57 C52 1.433 1_544 S
C57 C54 1.400 1_544 S
C57 C55 1.419 . S
C58 H48 0.930 . S
C58 C56 1.419 . S
C58 C59 1.366 . S
C59 H49 0.928 1_554 S
C59 C52 1.400 1_544 S
C59 C58 1.366 . S
H60 C66 0.930 . S
H61 C69 0.930 . S
H62 C70 0.930 . S
H63 C71 0.930 . S
H64 C74 0.930 . S
H65 C75 0.930 . S
C66 H60 0.930 . S
C66 C67 1.355 . S
C66 C68 1.415 . S
C67 C66 1.355 . S
C67 C69 1.419 . S
C68 C66 1.415 . S
C68 C73 1.425 . S
C68 C75 1.409 . S
C69 H61 0.930 . S
C69 C67 1.419 . S
C69 C70 1.362 . S
C70 H62 0.930 . S
C70 C69 1.362 . S
C70 C73 1.409 . S
C71 H63 0.930 . S
C71 C72 1.355 . S
C71 C73 1.415 . S
C72 C71 1.355 . S
C72 C74 1.419 . S
C73 C68 1.425 . S
C73 C70 1.409 . S
C73 C71 1.415 . S
C74 H64 0.930 . S
C74 C72 1.419 . S
C74 C75 1.362 . S
C75 H65 0.930 . S
C75 C68 1.409 . S
C75 C74 1.362 . S
H76 C82 0.930 . S
H77 C85 0.930 . S
H78 C86 0.930 . S
H79 C87 0.930 . S
H80 C90 0.930 . S
H81 C91 0.930 . S
C82 H76 0.930 . S
C82 C83 1.355 . S
C82 C84 1.415 1_554 S
C83 C82 1.355 . S
C83 C85 1.419 . S
C84 C82 1.415 1_556 S
C84 C89 1.425 1_656 S
C84 C91 1.409 . S
C85 H77 0.930 . S
C85 C83 1.419 . S
C85 C86 1.362 1_655 S
C86 H78 0.930 . S
C86 C85 1.362 1_455 S
C86 C89 1.409 . S
C87 H79 0.930 . S
C87 C88 1.355 . S
C87 C89 1.415 1_556 S
C88 C87 1.355 . S
C88 C90 1.419 . S
C89 C84 1.425 1_454 S
C89 C86 1.409 . S
C89 C87 1.415 1_554 S
C90 H80 0.930 . S
C90 C88 1.419 . S
C90 C91 1.362 1_455 S
C91 H81 0.930 . S
C91 C84 1.409 . S
C91 C90 1.362 1_655 S
H92 C98 0.930 . S
H93 C101 0.930 . S
H94 C102 0.930 . S
H95 C103 0.930 . S
H96 C106 0.930 . S
H97 C107 0.930 . S
C98 H92 0.930 . S
C98 C99 1.355 . S
C98 C100 1.415 1_565 S
C99 C98 1.355 . S
C99 C101 1.419 . S
C100 C98 1.415 1_545 S
C100 C105 1.425 1_545 S
C100 C107 1.409 . S
C101 H93 0.930 . S
C101 C99 1.419 . S
C101 C102 1.362 . S
C102 H94 0.930 . S
C102 C101 1.362 . S
C102 C105 1.409 . S
C103 H95 0.930 . S
C103 C104 1.355 . S
C103 C105 1.415 1_545 S
C104 C103 1.355 . S
C104 C106 1.419 . S
C105 C100 1.425 1_565 S
C105 C102 1.409 . S
C105 C103 1.415 1_565 S
C106 H96 0.930 . S
C106 C104 1.419 . S
C106 C107 1.362 . S
C107 H97 0.930 . S
C107 C100 1.409 . S
C107 C106 1.362 . S
H108 C114 0.930 . S
H109 C117 0.930 . S
H110 C118 0.930 . S
H111 C119 0.930 . S
H112 C122 0.930 . S
H113 C123 0.930 . S
C114 H108 0.930 . S
C114 C115 1.355 . S
C114 C116 1.415 . S
C115 C114 1.355 . S
C115 C117 1.419 . S
C116 C114 1.415 . S
C116 C121 1.425 1_556 S
C116 C123 1.409 . S
C117 H109 0.930 . S
C117 C115 1.419 . S
C117 C118 1.362 1_556 S
C118 H110 0.930 . S
C118 C117 1.362 1_554 S
C118 C121 1.409 . S
C119 H111 0.930 . S
C119 C120 1.355 . S
C119 C121 1.415 . S
C120 C119 1.355 . S
C120 C122 1.419 . S
C121 C116 1.425 1_554 S
C121 C118 1.409 . S
C121 C119 1.415 . S
C122 H112 0.930 . S
C122 C120 1.419 . S
C122 C123 1.362 1_554 S
C123 H113 0.930 . S
C123 C116 1.409 . S
C123 C122 1.362 1_556 S
H124 C130 0.930 . S
H125 C133 0.930 . S
H126 C134 0.930 . S
H127 C135 0.930 . S
H128 C138 0.930 . S
H129 C139 0.930 . S
C130 H124 0.930 . S
C130 C131 1.355 . S
C130 C132 1.415 . S
C131 C130 1.355 . S
C131 C133 1.419 . S
C132 C130 1.415 . S
C132 C137 1.425 1_455 S
C132 C139 1.409 . S
C133 H125 0.930 . S
C133 C131 1.419 . S
C133 C134 1.362 1_455 S
C134 H126 0.930 . S
C134 C133 1.362 1_655 S
C134 C137 1.409 . S
C135 H127 0.930 . S
C135 C136 1.355 . S
C135 C137 1.415 . S
C136 C135 1.355 . S
C136 C138 1.419 . S
C137 C132 1.425 1_655 S
C137 C134 1.409 . S
C137 C135 1.415 . S
C138 H128 0.930 . S
C138 C136 1.419 . S
C138 C139 1.362 1_655 S
C139 H129 0.930 . S
C139 C132 1.409 . S
C139 C138 1.362 1_455 S
C51 C31 1.475 . S
C56 C6 1.475 . S
C67 C27 1.469 . S
C72 C7 1.469 . S
C83 C4 1.461 . S
C88 C30 1.461 . S
C99 C28 1.494 . S
C104 C9 1.494 . S
C115 C29 1.484 . S
C120 C5 1.484 . S
C131 C26 1.452 . S
C136 C8 1.452 . S
