# Generated by pormake.
# Topology unc, (4)-cn, num edge types: 1
# Building blocks:
#     Node 0, Type 0, BuildingBlock: AZAVOO_clean_sbu_0, # of connection points: 4
#     Node 1, Type 0, BuildingBlock: AZAVOO_clean_sbu_0, # of connection points: 4
#     Node 2, Type 0, BuildingBlock: AZAVOO_clean_sbu_0, # of connection points: 4
#     Node 3, Type 0, BuildingBlock: AZAVOO_clean_sbu_0, # of connection points: 4
#     Edge 4, Type (0, 0), BuildingBlock: CIFDUS_clean_linker_0, # of connection points: 2
#     Edge 5, Type (0, 0), BuildingBlock: CIFDUS_clean_linker_0, # of connection points: 2
#     Edge 6, Type (0, 0), BuildingBlock: CIFDUS_clean_linker_0, # of connection points: 2
#     Edge 7, Type (0, 0), BuildingBlock: CIFDUS_clean_linker_0, # of connection points: 2
#     Edge 8, Type (0, 0), BuildingBlock: CIFDUS_clean_linker_0, # of connection points: 2
#     Edge 9, Type (0, 0), BuildingBlock: CIFDUS_clean_linker_0, # of connection points: 2
#     Edge 10, Type (0, 0), BuildingBlock: CIFDUS_clean_linker_0, # of connection points: 2
#     Edge 11, Type (0, 0), BuildingBlock: CIFDUS_clean_linker_0, # of connection points: 2
# Relax obj value: 0.168
# Max RMSD: 0.209
# Mean RMSD: 0.209
data_MOF--net-unc--node1-AZAVOO_clean_sbu_0--edge1-CIFDUS_clean_linker_0
_symmetry_space_group_name_H-M    P1
_symmetry_Int_Tables_number       1
_symmetry_cell_setting            triclinic
loop_
_symmetry_equiv_pos_as_xyz
'x, y, z'
_cell_length_a     24.634628
_cell_length_b     24.203752
_cell_length_c     21.742007
_cell_angle_alpha  91.064904
_cell_angle_beta   88.936607
_cell_angle_gamma 103.17242
loop_
_atom_site_label
_atom_site_type_symbol
_atom_site_fract_x
_atom_site_fract_y
_atom_site_fract_z
_atom_type_partial_charge
Mg0 Mg 0.99225 0.69432 -0.01881 0.0
O1 O 0.07221 0.75187 0.01985 0.0
O2 O 0.12369 0.69447 0.0551 0.0
Mg3 Mg 0.07574 0.60207 0.04526 0.0
C4 C 0.11648 0.74404 0.04458 0.0
C5 C 0.95895 0.75779 0.8718 0.0
O6 O 0.95773 0.70703 0.8486 0.0
O7 O 0.04238 0.66933 0.90064 0.0
O8 O 0.08652 0.60742 0.94038 0.0
O9 O 0.95024 0.69381 0.07389 0.0
O10 O 0.99787 0.63149 0.04175 0.0
C11 C 0.07362 0.63405 0.89469 0.0
C12 C 0.97094 0.65047 0.08533 0.0
O13 O 0.97236 0.76798 0.9278 0.0
Mg14 Mg 0.43069 0.10546 0.19982 0.0
O15 O 0.37917 1.02035 0.16234 0.0
O16 O 0.44025 0.97295 0.12321 0.0
Mg17 Mg 0.52857 0.02814 0.1298 0.0
C18 C 0.39035 0.97639 0.13627 0.0
C19 C 0.32409 0.14951 0.23683 0.0
O20 O 0.33019 0.16682 0.17967 0.0
O21 O 0.45982 0.06026 0.27914 0.0
O22 O 0.52396 1.01986 0.23447 0.0
O23 O 0.42759 0.14549 0.10781 0.0
O24 O 0.49341 0.10345 0.1366 0.0
C25 C 0.49739 0.03174 0.28205 0.0
C26 C 0.47249 0.1282 0.0944 0.0
O27 O 0.3569 0.12074 0.25711 0.0
Mg28 Mg 0.11471 0.44789 0.47198 0.0
O29 O 0.03681 0.3862 0.51 0.0
O30 O 0.98169 0.43899 0.55161 0.0
Mg31 Mg 0.02543 0.53296 0.54485 0.0
C32 C 0.99174 0.39078 0.5375 0.0
C33 C 0.15267 0.33472 0.43158 0.0
O34 O 0.15493 0.32717 0.49108 0.0
O35 O 0.06446 0.47157 0.39429 0.0
O36 O 1.01576 0.52879 0.43992 0.0
O37 O 0.15651 0.44849 0.56311 0.0
O38 O 0.10583 0.50843 0.5367 0.0
C39 C 0.03082 0.50454 0.39194 0.0
C40 C 0.1337 0.49022 0.57799 0.0
O41 O 0.13715 0.37783 0.41235 0.0
Mg42 Mg 0.69603 1.01325 0.69087 0.0
O43 O 0.74436 0.10034 0.65542 0.0
O44 O 0.67978 0.14426 0.6226 0.0
Mg45 Mg 0.59311 0.08595 0.63072 0.0
C46 C 0.73049 0.14342 0.63263 0.0
C47 C 0.80326 0.97053 0.71563 0.0
O48 O 0.79528 0.95669 0.65726 0.0
O49 O 0.66578 0.05619 0.77462 0.0
O50 O 0.59904 0.09361 0.7354 0.0
O51 O 0.69966 0.97444 0.59662 0.0
O52 O 0.63205 1.01331 0.63111 0.0
C53 C 0.62673 0.08283 0.78097 0.0
C54 C 0.65371 0.98989 0.58648 0.0
O55 O 0.77154 0.99854 0.74228 0.0
H56 H 0.9942 0.55085 0.11458 0.0
H57 H 0.9439 0.69598 0.19515 0.0
H58 H 0.95248 0.65993 0.29827 0.0
H59 H 0.9831 0.59195 0.36467 0.0
H60 H 0.03792 0.44976 0.28231 0.0
H61 H 1.0187 0.48014 0.18031 0.0
C62 C 0.98504 0.57469 0.15465 0.0
C63 C 0.96948 0.62654 0.1474 0.0
C64 C 0.99114 0.55438 0.21331 0.0
C65 C 0.95632 0.65612 0.19965 0.0
C66 C 0.96142 0.63563 0.25852 0.0
C67 C 0.99011 0.5671 0.32451 0.0
C68 C 1.01244 0.51891 0.33113 0.0
C69 C 0.9801 0.58548 0.26583 0.0
C70 C 1.02127 0.48729 0.27854 0.0
C71 C 1.01034 0.50463 0.22018 0.0
H72 H 0.58975 0.99373 0.30855 0.0
H73 H 0.44341 0.03524 0.39251 0.0
H74 H 0.47731 1.0205 0.49424 0.0
H75 H 0.55143 1.00354 0.55896 0.0
H76 H 0.70031 0.9673 0.47612 0.0
H77 H 0.66177 0.97124 0.3737 0.0
C78 C 0.56482 0.99885 0.34899 0.0
C79 C 0.51432 1.01609 0.34293 0.0
C80 C 0.58512 0.99157 0.40733 0.0
C81 C 0.48262 1.02248 0.39588 0.0
C82 C 0.50199 1.01412 0.45405 0.0
C83 C 0.57559 0.9966 0.51855 0.0
C84 C 0.62909 0.98631 0.52492 0.0
C85 C 0.55375 1.00008 0.46025 0.0
C86 C 0.65918 0.97574 0.47227 0.0
C87 C 0.63724 0.97816 0.41381 0.0
H88 H 0.12224 0.54744 0.86072 0.0
H89 H 0.06463 0.68856 0.78784 0.0
H90 H 0.08293 0.65841 0.6835 0.0
H91 H 0.10773 0.58829 0.61321 0.0
H92 H 0.16205 0.44491 0.6843 0.0
H93 H 0.15339 0.48031 0.78956 0.0
C94 C 0.11436 0.5721 0.8221 0.0
C95 C 0.09151 0.6199 0.83218 0.0
C96 C 0.12405 0.55397 0.76205 0.0
C97 C 0.0817 0.65134 0.78151 0.0
C98 C 0.09209 0.63411 0.72177 0.0
C99 C 0.11778 0.56472 0.65168 0.0
C100 C 0.13454 0.51355 0.64119 0.0
C101 C 0.11191 0.5848 0.71158 0.0
C102 C 0.14873 0.48425 0.69134 0.0
C103 C 0.1436 0.50438 0.75143 0.0
H104 H 0.57368 0.11199 0.0616 0.0
H105 H 0.42624 0.15183 -0.013 0.0
H106 H 0.46412 0.14651 0.88262 0.0
H107 H 0.53515 0.12219 0.81334 0.0
H108 H 0.68016 0.07756 0.88911 0.0
H109 H 0.64681 0.09304 -0.00709 0.0
C110 C 0.54968 0.11946 0.02255 0.0
C111 C 0.49677 0.13118 0.03178 0.0
C112 C 0.57113 0.11521 -0.03686 0.0
C113 C 0.46691 0.14234 -0.01908 0.0
C114 C 0.48847 0.13911 0.92135 0.0
C115 C 0.55989 0.11643 0.85245 0.0
C116 C 0.60989 0.09818 0.84341 0.0
C117 C 0.53997 0.12432 0.91198 0.0
C118 C 0.64135 0.0911 0.8947 0.0
C119 C 0.6223 0.0999 -0.04593 0.0
H120 H 0.28085 0.97615 0.1184 0.0
H121 H 0.39682 0.86661 0.11816 0.0
H122 H 0.32231 0.78544 0.09077 0.0
H123 H 0.2248 0.74543 0.06608 0.0
H124 H 0.10873 0.85454 0.06126 0.0
H125 H 0.18272 0.93596 0.09119 0.0
C126 C 0.28969 0.93444 0.11262 0.0
C127 C 0.34432 0.92748 0.12051 0.0
C128 C 0.24672 0.8879 0.09574 0.0
C129 C 0.35523 0.87326 0.11216 0.0
C130 C 0.31263 0.82674 0.09657 0.0
C131 C 0.21554 0.78696 0.07173 0.0
C132 C 0.16122 0.79377 0.06171 0.0
C133 C 0.25831 0.83358 0.0881 0.0
C134 C 0.15022 0.8481 0.06853 0.0
C135 C 0.19248 0.89466 0.08581 0.0
H136 H 0.25508 0.21872 0.21065 0.0
H137 H 0.30734 0.12856 0.35983 0.0
H138 H 0.25469 0.17437 0.43302 0.0
H139 H 0.20134 0.24696 0.45585 0.0
H140 H 0.15123 0.3384 0.30633 0.0
H141 H 0.19516 0.28488 0.23238 0.0
C142 C 0.25443 0.20847 0.25905 0.0
C143 C 0.28572 0.17076 0.27968 0.0
C144 C 0.22479 0.23562 0.30107 0.0
C145 C 0.28397 0.15772 0.3426 0.0
C146 C 0.25399 0.18406 0.38461 0.0
C147 C 0.19944 0.25472 0.40706 0.0
C148 C 0.17362 0.29721 0.38689 0.0
C149 C 0.22543 0.22419 0.36457 0.0
C150 C 0.17129 0.30639 0.32336 0.0
C151 C 0.19645 0.27581 0.28089 0.0
H152 H 0.8408 0.15055 0.6061 0.0
H153 H 0.71759 0.25149 0.62455 0.0
H154 H 0.78747 0.33647 0.59764 0.0
H155 H 0.88291 0.3823 0.56788 0.0
H156 H 1.00621 0.28207 0.54443 0.0
H157 H 0.93698 0.19679 0.57396 0.0
C158 C 0.82942 0.19123 0.60452 0.0
C159 C 0.77407 0.19462 0.61746 0.0
C160 C 0.86973 0.24006 0.58784 0.0
C161 C 0.7598 0.24756 0.61454 0.0
C162 C 0.79976 0.29628 0.59923 0.0
C163 C 0.8948 0.34187 0.56934 0.0
C164 C 0.94975 0.33871 0.55417 0.0
C165 C 0.85473 0.29301 0.58558 0.0
C166 C 0.96415 0.28575 0.5557 0.0
C167 C 0.92462 0.23695 0.57276 0.0
H168 H 0.86303 0.89549 0.67539 0.0
H169 H 0.82775 0.98668 0.83822 0.0
H170 H 0.87819 0.93252 0.90074 0.0
H171 H 0.92369 0.8521 0.91048 0.0
H172 H 0.95358 0.75834 0.74737 0.0
H173 H 0.91416 0.8208 0.68382 0.0
C174 C 0.86699 0.90423 0.72442 0.0
C175 C 0.84112 0.94474 0.75207 0.0
C176 C 0.89467 0.87196 0.76025 0.0
C177 C 0.84697 0.95551 0.8157 0.0
C178 C 0.87564 0.92438 0.85157 0.0
C179 C 0.92228 0.84594 0.86095 0.0
C180 C 0.94101 0.80028 0.83378 0.0
C181 C 0.89832 0.88137 0.82458 0.0
C182 C 0.93884 0.79274 0.76954 0.0
C183 C 0.91633 0.82848 0.73309 0.0
loop_
_geom_bond_atom_site_label_1
_geom_bond_atom_site_label_2
_geom_bond_distance
_geom_bond_site_symmetry_2
_ccdc_geom_bond_type
Mg0 O1 2.028 1_655 S
Mg0 O7 1.986 1_654 S
Mg0 O9 2.114 . S
Mg0 O10 2.251 1_655 S
Mg0 O13 2.010 1_554 S
O1 Mg0 2.028 1_455 S
O1 C4 1.250 . S
O2 Mg3 2.028 . S
O2 C4 1.248 . S
Mg3 O2 2.028 . S
Mg3 O8 2.032 1_554 S
Mg3 O10 2.079 . S
C4 O1 1.250 . S
C4 O2 1.248 . S
C5 O6 1.264 . S
C5 O13 1.249 . S
O6 C5 1.264 . S
O7 Mg0 1.986 1_456 S
O7 C11 1.246 . S
O8 Mg3 2.032 1_556 S
O8 C11 1.259 . S
O9 Mg0 2.114 . S
O9 C12 1.252 1_655 S
O10 Mg0 2.251 1_455 S
O10 Mg3 2.079 . S
O10 C12 1.273 . S
C11 O7 1.246 . S
C11 O8 1.259 . S
C12 O9 1.252 1_455 S
C12 O10 1.273 . S
O13 Mg0 2.010 1_556 S
O13 C5 1.249 . S
Mg14 O15 2.028 . S
Mg14 O21 1.986 . S
Mg14 O23 2.114 . S
Mg14 O24 2.251 . S
Mg14 O27 2.010 . S
O15 Mg14 2.028 . S
O15 C18 1.250 1_545 S
O16 Mg17 2.028 . S
O16 C18 1.248 . S
Mg17 O16 2.028 . S
Mg17 O22 2.032 . S
Mg17 O24 2.079 1_565 S
C18 O15 1.250 1_565 S
C18 O16 1.248 . S
C19 O20 1.264 . S
C19 O27 1.249 . S
O20 C19 1.264 . S
O21 Mg14 1.986 . S
O21 C25 1.246 . S
O22 Mg17 2.032 . S
O22 C25 1.259 1_565 S
O23 Mg14 2.114 . S
O23 C26 1.252 . S
O24 Mg14 2.251 . S
O24 Mg17 2.079 1_545 S
O24 C26 1.273 . S
C25 O21 1.246 . S
C25 O22 1.259 1_545 S
C26 O23 1.252 . S
C26 O24 1.273 . S
O27 Mg14 2.010 . S
O27 C19 1.249 . S
Mg28 O29 2.028 . S
Mg28 O35 1.986 . S
Mg28 O37 2.114 . S
Mg28 O38 2.251 . S
Mg28 O41 2.010 . S
O29 Mg28 2.028 . S
O29 C32 1.250 1_455 S
O30 Mg31 2.028 . S
O30 C32 1.248 . S
Mg31 O30 2.028 . S
Mg31 O36 2.032 . S
Mg31 O38 2.079 1_655 S
C32 O29 1.250 1_655 S
C32 O30 1.248 . S
C33 O34 1.264 . S
C33 O41 1.249 . S
O34 C33 1.264 . S
O35 Mg28 1.986 . S
O35 C39 1.246 . S
O36 Mg31 2.032 . S
O36 C39 1.259 1_655 S
O37 Mg28 2.114 . S
O37 C40 1.252 . S
O38 Mg28 2.251 . S
O38 Mg31 2.079 1_455 S
O38 C40 1.273 . S
C39 O35 1.246 . S
C39 O36 1.259 1_455 S
C40 O37 1.252 . S
C40 O38 1.273 . S
O41 Mg28 2.010 . S
O41 C33 1.249 . S
Mg42 O43 2.028 1_565 S
Mg42 O49 1.986 1_565 S
Mg42 O51 2.114 . S
Mg42 O52 2.251 1_565 S
Mg42 O55 2.010 . S
O43 Mg42 2.028 1_545 S
O43 C46 1.250 . S
O44 Mg45 2.028 . S
O44 C46 1.248 . S
Mg45 O44 2.028 . S
Mg45 O50 2.032 . S
Mg45 O52 2.079 . S
C46 O43 1.250 . S
C46 O44 1.248 . S
C47 O48 1.264 . S
C47 O55 1.249 . S
O48 C47 1.264 . S
O49 Mg42 1.986 1_545 S
O49 C53 1.246 . S
O50 Mg45 2.032 . S
O50 C53 1.259 . S
O51 Mg42 2.114 . S
O51 C54 1.252 1_565 S
O52 Mg42 2.251 1_545 S
O52 Mg45 2.079 . S
O52 C54 1.273 . S
C53 O49 1.246 . S
C53 O50 1.259 . S
C54 O51 1.252 1_545 S
C54 O52 1.273 . S
O55 Mg42 2.010 . S
O55 C47 1.249 . S
H56 C62 0.930 . S
H57 C65 0.930 . S
H58 C66 0.930 . S
H59 C67 0.930 . S
H60 C70 0.930 . S
H61 C71 0.930 . S
C62 H56 0.930 . S
C62 C63 1.354 1_455 S
C62 C64 1.415 . S
C63 C62 1.354 1_655 S
C63 C65 1.420 . S
C64 C62 1.415 . S
C64 C69 1.425 . S
C64 C71 1.409 . S
C65 H57 0.930 . S
C65 C63 1.420 . S
C65 C66 1.362 . S
C66 H58 0.930 . S
C66 C65 1.362 . S
C66 C69 1.409 1_655 S
C67 H59 0.930 . S
C67 C68 1.355 . S
C67 C69 1.415 . S
C68 C67 1.355 . S
C68 C70 1.419 . S
C69 C64 1.425 . S
C69 C66 1.409 1_455 S
C69 C67 1.415 . S
C70 H60 0.930 . S
C70 C68 1.419 . S
C70 C71 1.362 . S
C71 H61 0.930 . S
C71 C64 1.409 . S
C71 C70 1.362 . S
H72 C78 0.930 . S
H73 C81 0.930 . S
H74 C82 0.930 . S
H75 C83 0.930 . S
H76 C86 0.930 . S
H77 C87 0.930 . S
C78 H72 0.930 . S
C78 C79 1.355 1_565 S
C78 C80 1.415 . S
C79 C78 1.355 1_545 S
C79 C81 1.419 . S
C80 C78 1.415 . S
C80 C85 1.425 1_565 S
C80 C87 1.409 . S
C81 H73 0.930 . S
C81 C79 1.419 . S
C81 C82 1.362 . S
C82 H74 0.930 . S
C82 C81 1.362 . S
C82 C85 1.409 . S
C83 H75 0.930 . S
C83 C84 1.355 1_545 S
C83 C85 1.415 . S
C84 C83 1.355 1_565 S
C84 C86 1.419 . S
C85 C80 1.425 1_545 S
C85 C82 1.409 . S
C85 C83 1.415 . S
C86 H76 0.930 . S
C86 C84 1.419 . S
C86 C87 1.362 . S
C87 H77 0.930 . S
C87 C80 1.409 . S
C87 C86 1.362 . S
H88 C94 0.930 . S
H89 C97 0.930 1_655 S
H90 C98 0.930 1_655 S
H91 C99 0.930 . S
H92 C102 0.930 . S
H93 C103 0.930 . S
C94 H88 0.930 . S
C94 C95 1.355 . S
C94 C96 1.415 . S
C95 C94 1.355 . S
C95 C97 1.419 . S
C96 C94 1.415 . S
C96 C101 1.425 . S
C96 C103 1.409 . S
C97 H89 0.930 1_455 S
C97 C95 1.419 . S
C97 C98 1.362 . S
C98 H90 0.930 1_455 S
C98 C97 1.362 . S
C98 C101 1.409 . S
C99 H91 0.930 . S
C99 C100 1.355 . S
C99 C101 1.415 . S
C100 C99 1.355 . S
C100 C102 1.419 . S
C101 C96 1.425 . S
C101 C98 1.409 . S
C101 C99 1.415 . S
C102 H92 0.930 . S
C102 C100 1.419 . S
C102 C103 1.362 . S
C103 H93 0.930 . S
C103 C96 1.409 . S
C103 C102 1.362 . S
H104 C110 0.930 . S
H105 C113 0.930 . S
H106 C114 0.930 . S
H107 C115 0.930 . S
H108 C118 0.930 1_565 S
H109 C119 0.930 . S
C110 H104 0.930 . S
C110 C111 1.355 . S
C110 C112 1.415 . S
C111 C110 1.355 . S
C111 C113 1.419 . S
C112 C110 1.415 . S
C112 C117 1.425 . S
C112 C119 1.409 1_545 S
C113 H105 0.930 . S
C113 C111 1.419 . S
C113 C114 1.362 . S
C114 H106 0.930 . S
C114 C113 1.362 . S
C114 C117 1.409 . S
C115 H107 0.930 . S
C115 C116 1.355 . S
C115 C117 1.415 1_556 S
C116 C115 1.355 . S
C116 C118 1.419 . S
C117 C112 1.425 . S
C117 C114 1.409 . S
C117 C115 1.415 1_554 S
C118 H108 0.930 1_545 S
C118 C116 1.419 . S
C118 C119 1.362 1_546 S
C119 H109 0.930 . S
C119 C112 1.409 1_565 S
C119 C118 1.362 1_564 S
H120 C126 0.930 . S
H121 C129 0.930 . S
H122 C130 0.930 . S
H123 C131 0.930 . S
H124 C134 0.930 . S
H125 C135 0.930 . S
C126 H120 0.930 . S
C126 C127 1.355 . S
C126 C128 1.415 . S
C127 C126 1.355 . S
C127 C129 1.419 . S
C128 C126 1.415 . S
C128 C133 1.425 . S
C128 C135 1.409 . S
C129 H121 0.930 . S
C129 C127 1.419 . S
C129 C130 1.362 . S
C130 H122 0.930 . S
C130 C129 1.362 . S
C130 C133 1.409 . S
C131 H123 0.930 . S
C131 C132 1.355 . S
C131 C133 1.415 . S
C132 C131 1.355 . S
C132 C134 1.419 . S
C133 C128 1.425 . S
C133 C130 1.409 . S
C133 C131 1.415 . S
C134 H124 0.930 . S
C134 C132 1.419 . S
C134 C135 1.362 . S
C135 H125 0.930 . S
C135 C128 1.409 . S
C135 C134 1.362 . S
H136 C142 0.930 . S
H137 C145 0.930 . S
H138 C146 0.930 . S
H139 C147 0.930 . S
H140 C150 0.930 . S
H141 C151 0.930 . S
C142 H136 0.930 . S
C142 C143 1.355 . S
C142 C144 1.415 . S
C143 C142 1.355 . S
C143 C145 1.419 . S
C144 C142 1.415 . S
C144 C149 1.425 . S
C144 C151 1.409 . S
C145 H137 0.930 . S
C145 C143 1.419 . S
C145 C146 1.362 . S
C146 H138 0.930 . S
C146 C145 1.362 . S
C146 C149 1.409 . S
C147 H139 0.930 . S
C147 C148 1.355 . S
C147 C149 1.415 . S
C148 C147 1.355 . S
C148 C150 1.419 . S
C149 C144 1.425 . S
C149 C146 1.409 . S
C149 C147 1.415 . S
C150 H140 0.930 . S
C150 C148 1.419 . S
C150 C151 1.362 . S
C151 H141 0.930 . S
C151 C144 1.409 . S
C151 C150 1.362 . S
H152 C158 0.930 . S
H153 C161 0.930 . S
H154 C162 0.930 . S
H155 C163 0.930 . S
H156 C166 0.930 . S
H157 C167 0.930 . S
C158 H152 0.930 . S
C158 C159 1.355 . S
C158 C160 1.415 . S
C159 C158 1.355 . S
C159 C161 1.419 . S
C160 C158 1.415 . S
C160 C165 1.425 . S
C160 C167 1.409 . S
C161 H153 0.930 . S
C161 C159 1.419 . S
C161 C162 1.362 . S
C162 H154 0.930 . S
C162 C161 1.362 . S
C162 C165 1.409 . S
C163 H155 0.930 . S
C163 C164 1.355 . S
C163 C165 1.415 . S
C164 C163 1.355 . S
C164 C166 1.419 . S
C165 C160 1.425 . S
C165 C162 1.409 . S
C165 C163 1.415 . S
C166 H156 0.930 . S
C166 C164 1.419 . S
C166 C167 1.362 . S
C167 H157 0.930 . S
C167 C160 1.409 . S
C167 C166 1.362 . S
H168 C174 0.930 . S
H169 C177 0.930 . S
H170 C178 0.930 . S
H171 C179 0.930 . S
H172 C182 0.930 . S
H173 C183 0.930 . S
C174 H168 0.930 . S
C174 C175 1.355 . S
C174 C176 1.415 . S
C175 C174 1.355 . S
C175 C177 1.419 . S
C176 C174 1.415 . S
C176 C181 1.425 . S
C176 C183 1.409 . S
C177 H169 0.930 . S
C177 C175 1.419 . S
C177 C178 1.362 . S
C178 H170 0.930 . S
C178 C177 1.362 . S
C178 C181 1.409 . S
C179 H171 0.930 . S
C179 C180 1.355 . S
C179 C181 1.415 . S
C180 C179 1.355 . S
C180 C182 1.419 . S
C181 C176 1.425 . S
C181 C178 1.409 . S
C181 C179 1.415 . S
C182 H172 0.930 . S
C182 C180 1.419 . S
C182 C183 1.362 . S
C183 H173 0.930 . S
C183 C176 1.409 . S
C183 C182 1.362 . S
C63 C12 1.138 1_655 S
C68 C39 1.141 . S
C79 C25 1.106 . S
C84 C54 1.131 1_565 S
C95 C11 1.140 . S
C100 C40 1.139 . S
C111 C26 1.136 . S
C116 C53 1.115 . S
C127 C18 1.494 . S
C132 C4 1.523 . S
C143 C19 1.297 . S
C148 C33 1.292 . S
C159 C46 1.465 . S
C164 C32 1.510 . S
C175 C47 1.381 . S
C180 C5 1.251 . S
