# Generated by pormake.
# Topology hex, (8)-cn, num edge types: 1
# Building blocks:
#     Node 0, Type 0, BuildingBlock: XADDAJ01_clean_sbu_3, # of connection points: 8
#     Edge 1, Type (0, 0), BuildingBlock: EZIPEK_clean_linker_0, # of connection points: 2
#     Edge 2, Type (0, 0), BuildingBlock: EZIPEK_clean_linker_0, # of connection points: 2
#     Edge 3, Type (0, 0), BuildingBlock: EZIPEK_clean_linker_0, # of connection points: 2
#     Edge 4, Type (0, 0), BuildingBlock: EZIPEK_clean_linker_0, # of connection points: 2
# Relax obj value: 0.033
# Max RMSD: 0.092
# Mean RMSD: 0.092
data_MOF--net-hex--node1-XADDAJ01_clean_sbu_3--edge1-EZIPEK_clean_linker_0
_symmetry_space_group_name_H-M    P1
_symmetry_Int_Tables_number       1
_symmetry_cell_setting            triclinic
loop_
_symmetry_equiv_pos_as_xyz
'x, y, z'
_cell_length_a     17.248884
_cell_length_b     14.224001
_cell_length_c     10.752555
_cell_angle_alpha  112.76925
_cell_angle_beta   101.97113
_cell_angle_gamma 111.35964
loop_
_atom_site_label
_atom_site_type_symbol
_atom_site_fract_x
_atom_site_fract_y
_atom_site_fract_z
_atom_type_partial_charge
C0 C 0.75941 0.81814 0.90343 0.0
C1 C 0.72121 0.72094 0.92164 0.0
C2 C 0.64674 0.6998 0.96148 0.0
C3 C 0.61079 0.77539 0.98403 0.0
C4 C 0.64769 0.87157 0.96562 0.0
C5 C 0.72242 0.89366 0.92638 0.0
O6 O 0.06196 0.93418 0.14255 0.0
Tb7 Tb 0.98625 0.85032 0.90795 0.0
Tb8 Tb 0.11758 0.15152 0.08387 0.0
O9 O 0.97916 0.68937 0.89103 0.0
O10 O 0.05738 0.10594 0.2243 0.0
O11 O 0.8456 0.74892 0.78419 0.0
C12 C 0.27246 0.1699 0.14064 0.0
O13 O 0.91066 0.93767 0.94181 0.0
O14 O 1.04171 0.06489 0.84856 0.0
O15 O 1.04998 0.89603 0.77114 0.0
C16 C 0.83368 0.83873 0.85184 0.0
C17 C 1.04489 0.30592 0.03141 0.0
O18 O 0.96741 0.20707 0.96092 0.0
C19 C 0.05699 0.0191 0.24153 0.0
C20 C 1.04964 0.98185 0.75229 0.0
O21 O 0.1199 0.31048 0.10087 0.0
C22 C 0.34567 0.18918 0.08654 0.0
C23 C 0.45785 0.13607 0.02597 0.0
C24 C 0.38449 0.11583 0.06848 0.0
C25 C 0.38131 0.28317 0.06151 0.0
C26 C 0.45553 0.30373 0.02087 0.0
C27 C 0.49264 0.22947 0.00178 0.0
C28 C 0.05388 0.69002 0.95304 0.0
O29 O 0.133 0.78564 0.01541 0.0
O30 O 0.25845 0.25865 0.20306 0.0
O31 O 0.19662 0.06874 0.05567 0.0
H32 H 0.74792 0.66087 0.90284 0.0
H33 H 0.55233 0.75764 0.0126 0.0
H34 H 0.75 0.96759 0.91006 0.0
H35 H 0.35885 0.04441 0.08986 0.0
H36 H 0.35348 0.34195 0.07722 0.0
H37 H 0.55056 0.24637 0.97183 0.0
C38 C 1.04147 0.49523 0.12065 0.0
C39 C 1.04914 0.40585 0.01366 0.0
C40 C 1.05004 0.49624 0.85939 0.0
C41 C 1.04861 0.58979 0.97095 0.0
N42 N 0.05226 0.68679 0.21413 0.0
N43 N 0.07119 0.326 0.78962 0.0
C44 C 1.04693 0.59165 0.10352 0.0
C45 C 0.05624 0.4076 0.88512 0.0
N46 N 1.02637 0.48601 0.23643 0.0
N47 N 1.04394 0.49138 0.72794 0.0
H48 H 0.07486 0.25901 0.80383 0.0
H49 H 0.08641 0.32885 0.702 0.0
H50 H 1.04136 0.55622 0.70706 0.0
H51 H 1.03504 0.41982 0.63589 0.0
H52 H 1.00977 0.54056 0.30937 0.0
H53 H 1.02456 0.41834 0.25437 0.0
H54 H 0.06212 0.70051 0.31985 0.0
H55 H 0.05217 0.75648 0.20321 0.0
C56 C 0.62631 0.03589 0.12249 0.0
C57 C 0.6031 0.94436 0.9806 0.0
C58 C 0.47581 0.96717 0.87384 0.0
C59 C 0.50312 0.0642 0.01345 0.0
N60 N 0.60904 0.20059 0.26771 0.0
N61 N 0.51353 0.8299 0.71794 0.0
C62 C 0.57968 0.10122 0.13721 0.0
C63 C 0.53007 0.91214 0.85511 0.0
N64 N 0.69138 0.05813 0.24348 0.0
N65 N 0.3967 0.9262 0.7604 0.0
H66 H 0.55052 0.7857 0.70043 0.0
H67 H 0.46785 0.8112 0.62026 0.0
H68 H 0.35557 0.96476 0.7711 0.0
H69 H 0.3677 0.84894 0.65983 0.0
H70 H 0.70408 0.1137 0.35172 0.0
H71 H 0.72938 0.01513 0.23584 0.0
H72 H 0.67051 0.24035 0.35672 0.0
H73 H 0.57432 0.2479 0.28466 0.0
C74 C 0.47454 0.3969 0.86565 0.0
C75 C 0.50015 0.40738 0.00654 0.0
C76 C 0.63057 0.60228 0.1113 0.0
C77 C 0.60141 0.595 0.97302 0.0
N78 N 0.49265 0.49261 0.72131 0.0
N79 N 0.59446 0.52268 0.2676 0.0
C80 C 0.52255 0.4941 0.85067 0.0
C81 C 0.57595 0.51104 0.13075 0.0
N82 N 0.40572 0.29288 0.74582 0.0
N83 N 0.71149 0.69551 0.22277 0.0
H84 H 0.55672 0.45676 0.28557 0.0
H85 H 0.6426 0.60037 0.36505 0.0
H86 H 0.75253 0.76451 0.2124 0.0
H87 H 0.74174 0.70056 0.32121 0.0
H88 H 0.39054 0.27406 0.63727 0.0
H89 H 0.36626 0.22216 0.75451 0.0
H90 H 0.42999 0.42818 0.63374 0.0
H91 H 0.5287 0.55963 0.70366 0.0
C92 C 0.12845 0.00098 0.58601 0.0
C93 C 1.04934 0.98173 0.61526 0.0
C94 C 0.98038 0.003 0.41128 0.0
C95 C 0.05822 0.01867 0.37876 0.0
N96 N 0.20634 0.0331 0.42999 0.0
N97 N 0.89507 0.94627 0.54743 0.0
C98 C 0.13217 0.0172 0.46447 0.0
C99 C 0.97406 0.97841 0.52598 0.0
N100 N 0.20112 0.00835 0.67825 0.0
N101 N 0.91225 0.0105 0.33154 0.0
H102 H 0.88681 0.92197 0.62576 0.0
H103 H 0.83501 0.93441 0.48149 0.0
H104 H 0.91113 0.02063 0.24041 0.0
H105 H 0.85892 0.01361 0.36011 0.0
H106 H 0.26312 0.02822 0.66938 0.0
H107 H 0.20099 0.99732 0.76851 0.0
H108 H 0.25818 0.01993 0.4748 0.0
H109 H 0.21604 0.05855 0.35308 0.0
loop_
_geom_bond_atom_site_label_1
_geom_bond_atom_site_label_2
_geom_bond_distance
_geom_bond_site_symmetry_2
_ccdc_geom_bond_type
C0 C1 1.386 . S
C0 C5 1.384 . S
C0 C16 1.497 . S
C1 C0 1.386 . S
C1 C2 1.393 1_556 S
C1 H32 0.932 . S
C2 C1 1.393 1_554 S
C2 C3 1.387 . S
C3 C2 1.387 . S
C3 C4 1.392 1_554 S
C3 H33 0.930 . S
C4 C3 1.392 1_556 S
C4 C5 1.402 . S
C5 C0 1.384 . S
C5 C4 1.402 . S
C5 H34 0.930 . S
O6 Tb7 2.288 1_554 S
O6 C19 1.257 1_665 S
Tb7 O6 2.288 1_556 S
Tb7 O9 2.303 . S
Tb7 O11 2.430 . S
Tb7 O13 2.459 . S
Tb7 O15 2.301 . S
Tb7 C16 2.808 . S
Tb8 O10 2.301 . S
Tb8 C12 2.808 . S
Tb8 O14 2.288 1_554 S
Tb8 O21 2.303 . S
Tb8 O30 2.430 . S
Tb8 O31 2.459 . S
O9 Tb7 2.303 . S
O9 C28 1.255 1_655 S
O10 Tb8 2.301 . S
O10 C19 1.237 . S
O11 Tb7 2.430 . S
O11 C16 1.248 . S
C12 Tb8 2.808 . S
C12 C22 1.497 . S
C12 O30 1.248 . S
C12 O31 1.260 . S
O13 Tb7 2.459 . S
O13 C16 1.260 . S
O14 Tb8 2.288 1_556 S
O14 C20 1.257 1_445 S
O15 Tb7 2.301 . S
O15 C20 1.237 . S
C16 C0 1.497 . S
C16 Tb7 2.808 . S
C16 O11 1.248 . S
C16 O13 1.260 . S
C17 O18 1.255 . S
C17 O21 1.255 1_655 S
O18 C17 1.255 . S
C19 O6 1.257 1_445 S
C19 O10 1.237 . S
C20 O14 1.257 1_665 S
C20 O15 1.237 . S
O21 Tb8 2.303 . S
O21 C17 1.255 1_455 S
C22 C12 1.497 . S
C22 C24 1.384 . S
C22 C25 1.386 . S
C23 C24 1.402 . S
C23 C27 1.392 1_554 S
C24 C22 1.384 . S
C24 C23 1.402 . S
C24 H35 0.930 . S
C25 C22 1.386 . S
C25 C26 1.393 1_554 S
C25 H36 0.932 . S
C26 C25 1.393 1_556 S
C26 C27 1.387 . S
C27 C23 1.392 1_556 S
C27 C26 1.387 . S
C27 H37 0.930 . S
C28 O9 1.255 1_455 S
C28 O29 1.255 . S
O29 C28 1.255 . S
O30 Tb8 2.430 . S
O30 C12 1.248 . S
O31 Tb8 2.459 . S
O31 C12 1.260 . S
H32 C1 0.932 . S
H33 C3 0.930 . S
H34 C5 0.930 . S
H35 C24 0.930 . S
H36 C25 0.932 . S
H37 C27 0.930 . S
C38 C39 1.363 . S
C38 C44 1.379 . S
C38 N46 1.356 . S
C39 C38 1.363 . S
C39 C45 1.363 1_654 S
C40 C41 1.363 . S
C40 C45 1.379 . S
C40 N47 1.356 . S
C41 C40 1.363 . S
C41 C44 1.363 1_456 S
N42 C44 1.356 . S
N42 H54 0.984 . S
N42 H55 0.985 1_655 S
N43 C45 1.356 . S
N43 H48 0.984 1_455 S
N43 H49 0.985 . S
C44 C38 1.379 . S
C44 C41 1.363 1_654 S
C44 N42 1.356 . S
C45 C39 1.363 1_456 S
C45 C40 1.379 . S
C45 N43 1.356 . S
N46 C38 1.356 . S
N46 H52 0.984 . S
N46 H53 0.984 . S
N47 C40 1.356 . S
N47 H50 0.984 . S
N47 H51 0.985 . S
H48 N43 0.984 1_655 S
H49 N43 0.985 . S
H50 N47 0.984 . S
H51 N47 0.985 . S
H52 N46 0.984 . S
H53 N46 0.984 . S
H54 N42 0.984 . S
H55 N42 0.985 1_455 S
C56 C57 1.363 1_554 S
C56 C62 1.379 . S
C56 N64 1.356 . S
C57 C56 1.363 1_556 S
C57 C63 1.363 1_565 S
C58 C59 1.363 1_556 S
C58 C63 1.379 . S
C58 N65 1.356 . S
C59 C58 1.363 1_554 S
C59 C62 1.363 1_545 S
N60 C62 1.356 . S
N60 H72 0.984 . S
N60 H73 0.985 . S
N61 C63 1.356 . S
N61 H66 0.984 . S
N61 H67 0.985 . S
C62 C56 1.379 . S
C62 C59 1.363 1_565 S
C62 N60 1.356 . S
C63 C57 1.363 1_545 S
C63 C58 1.379 . S
C63 N61 1.356 . S
N64 C56 1.356 . S
N64 H70 0.984 . S
N64 H71 0.984 . S
N65 C58 1.356 . S
N65 H68 0.984 . S
N65 H69 0.985 . S
H66 N61 0.984 . S
H67 N61 0.985 . S
H68 N65 0.984 . S
H69 N65 0.985 . S
H70 N64 0.984 . S
H71 N64 0.984 . S
H72 N60 0.984 . S
H73 N60 0.985 . S
C74 C75 1.363 . S
C74 C80 1.379 . S
C74 N82 1.356 . S
C75 C74 1.363 . S
C75 C81 1.363 1_556 S
C76 C77 1.363 . S
C76 C81 1.379 . S
C76 N83 1.356 . S
C77 C76 1.363 . S
C77 C80 1.363 1_554 S
N78 C80 1.356 . S
N78 H90 0.984 . S
N78 H91 0.985 . S
N79 C81 1.356 . S
N79 H84 0.984 . S
N79 H85 0.985 . S
C80 C74 1.379 . S
C80 C77 1.363 1_556 S
C80 N78 1.356 . S
C81 C75 1.363 1_554 S
C81 C76 1.379 . S
C81 N79 1.356 . S
N82 C74 1.356 . S
N82 H88 0.984 . S
N82 H89 0.984 . S
N83 C76 1.356 . S
N83 H86 0.984 . S
N83 H87 0.985 . S
H84 N79 0.984 . S
H85 N79 0.985 . S
H86 N83 0.984 . S
H87 N83 0.985 . S
H88 N82 0.984 . S
H89 N82 0.984 . S
H90 N78 0.984 . S
H91 N78 0.985 . S
C92 C93 1.364 . S
C92 C98 1.379 . S
C92 N100 1.356 . S
C93 C92 1.364 . S
C93 C99 1.362 1_465 S
C94 C95 1.365 1_655 S
C94 C99 1.379 . S
C94 N101 1.356 . S
C95 C94 1.365 1_455 S
C95 C98 1.360 1_545 S
N96 C98 1.356 . S
N96 H108 0.984 . S
N96 H109 0.985 . S
N97 C99 1.356 . S
N97 H102 0.984 . S
N97 H103 0.985 . S
C98 C92 1.379 . S
C98 C95 1.360 1_565 S
C98 N96 1.356 . S
C99 C93 1.362 1_645 S
C99 C94 1.379 . S
C99 N97 1.356 . S
N100 C92 1.356 . S
N100 H106 0.984 . S
N100 H107 0.984 . S
N101 C94 1.356 . S
N101 H104 0.984 . S
N101 H105 0.985 . S
H102 N97 0.984 . S
H103 N97 0.985 . S
H104 N101 0.984 . S
H105 N101 0.985 . S
H106 N100 0.984 . S
H107 N100 0.984 . S
H108 N96 0.984 . S
H109 N96 0.985 . S
C39 C17 0.642 . S
C41 C28 0.642 . S
C57 C4 2.029 . S
C59 C23 2.029 . S
C75 C26 1.843 . S
C77 C2 1.843 . S
C93 C20 1.490 1_455 S
C95 C19 1.492 . S
