# Generated by pormake.
# Topology msw, (6)-cn, num edge types: 1
# Building blocks:
#     Node 0, Type 0, BuildingBlock: VOLQOD_clean_sbu_1, # of connection points: 6
#     Node 1, Type 0, BuildingBlock: VOLQOD_clean_sbu_1, # of connection points: 6
#     Edge 2, Type (0, 0), BuildingBlock: TEMPAE_clean_linker_10, # of connection points: 2
#     Edge 3, Type (0, 0), BuildingBlock: TEMPAE_clean_linker_10, # of connection points: 2
#     Edge 4, Type (0, 0), BuildingBlock: TEMPAE_clean_linker_10, # of connection points: 2
#     Edge 5, Type (0, 0), BuildingBlock: TEMPAE_clean_linker_10, # of connection points: 2
#     Edge 6, Type (0, 0), BuildingBlock: TEMPAE_clean_linker_10, # of connection points: 2
#     Edge 7, Type (0, 0), BuildingBlock: TEMPAE_clean_linker_10, # of connection points: 2
# Relax obj value: 0.244
# Max RMSD: 0.191
# Mean RMSD: 0.191
data_MOF--net-msw--node1-VOLQOD_clean_sbu_1--edge1-TEMPAE_clean_linker_10
_symmetry_space_group_name_H-M    P1
_symmetry_Int_Tables_number       1
_symmetry_cell_setting            triclinic
loop_
_symmetry_equiv_pos_as_xyz
'x, y, z'
_cell_length_a     20.344335
_cell_length_b     20.406361
_cell_length_c     16.408101
_cell_angle_alpha  90.211696
_cell_angle_beta   90.004619
_cell_angle_gamma 90.25126
loop_
_atom_site_label
_atom_site_type_symbol
_atom_site_fract_x
_atom_site_fract_y
_atom_site_fract_z
_atom_type_partial_charge
O0 O 0.85837 0.26574 0.34133 0.0
Zn1 Zn 0.89114 0.28288 0.23041 0.0
O2 O 0.81884 0.32457 0.18227 0.0
Zn3 Zn 0.76971 0.25793 0.12985 0.0
Zn4 Zn 0.76411 0.36744 0.25705 0.0
Zn5 Zn 0.85375 0.38675 0.11107 0.0
O6 O 0.74921 0.29575 0.02197 0.0
O7 O 0.85053 0.33784 0.00617 0.0
O8 O 0.92233 0.2063 0.1596 0.0
O9 O 0.82897 0.18526 0.09497 0.0
O10 O 0.695 0.22412 0.20355 0.0
O11 O 0.69033 0.30862 0.28856 0.0
O12 O 0.72624 0.45267 0.20772 0.0
O13 O 0.96378 0.34687 0.24581 0.0
O14 O 0.79088 0.45967 0.09903 0.0
O15 O 0.94066 0.42441 0.15622 0.0
C16 C 0.83637 0.31125 0.38757 0.0
C17 C 0.79921 0.30912 -0.0224 0.0
C18 C 0.6704 0.25223 0.26629 0.0
C19 C 0.88959 0.17374 0.10668 0.0
C20 C 0.74277 0.48056 0.14093 0.0
C21 C 0.97677 0.40184 0.21332 0.0
O22 O 0.81697 0.36656 0.35957 0.0
O23 O 0.38246 0.79609 0.52409 0.0
Zn24 Zn 0.36199 0.7582 0.632 0.0
O25 O 0.31311 0.82448 0.6846 0.0
Zn26 Zn 0.3683 0.86746 0.75922 0.0
Zn27 Zn 0.27834 0.88639 0.61335 0.0
Zn28 Zn 0.24051 0.78255 0.73261 0.0
O29 O 0.31549 0.86638 0.86174 0.0
O30 O 0.27326 0.7655 0.84352 0.0
O31 O 0.43674 0.72462 0.70525 0.0
O32 O 0.4419 0.80886 0.79065 0.0
O33 O 0.40647 0.95281 0.70958 0.0
O34 O 0.34147 0.9595 0.60122 0.0
O35 O 0.19159 0.92375 0.65827 0.0
O36 O 0.30252 0.68528 0.59721 0.0
O37 O 0.1681 0.84629 0.74806 0.0
O38 O 0.20905 0.70597 0.66139 0.0
C39 C 0.33243 0.80912 0.47979 0.0
C40 C 0.2957 0.81103 0.88974 0.0
C41 C 0.38983 0.9806 0.64285 0.0
C42 C 0.46158 0.75263 0.76805 0.0
C43 C 0.15536 0.90115 0.71541 0.0
C44 C 0.24179 0.67359 0.60856 0.0
O45 O 0.28124 0.83752 0.50847 0.0
C46 C 0.86079 0.27595 0.85505 0.0
C47 C 0.80024 0.28647 0.89325 0.0
C48 C 0.86368 0.2625 0.77197 0.0
C49 C 0.80455 0.26019 0.72701 0.0
C50 C 0.74311 0.26255 0.76697 0.0
C51 C 0.7416 0.27597 0.85047 0.0
C52 C 0.93002 0.25752 0.73114 0.0
C53 C 0.6793 0.25729 0.72036 0.0
C54 C 0.8197 0.34947 0.52889 0.0
C55 C 0.82765 0.29759 0.47414 0.0
C56 C 0.80998 0.33739 0.61142 0.0
C57 C 0.80766 0.27176 0.6391 0.0
C58 C 0.81345 0.21899 0.58386 0.0
C59 C 0.82417 0.23262 0.50158 0.0
C60 C 0.80403 0.39501 0.66919 0.0
C61 C 0.81014 0.14847 0.61128 0.0
H62 H 0.9061 0.28088 0.8894 0.0
H63 H 0.69472 0.28205 0.88096 0.0
H64 H 0.93176 0.21357 0.6913 0.0
H65 H 0.93829 0.3011 0.6921 0.0
H66 H 0.97081 0.25473 0.77599 0.0
H67 H 0.63711 0.24667 0.76129 0.0
H68 H 0.66968 0.30428 0.68875 0.0
H69 H 0.68221 0.21833 0.67315 0.0
H70 H 0.82208 0.39962 0.50742 0.0
H71 H 0.82914 0.19235 0.45876 0.0
H72 H 0.84505 0.39436 0.71377 0.0
H73 H 0.75742 0.39161 0.70404 0.0
H74 H 0.80508 0.44279 0.63695 0.0
H75 H 0.85963 0.13278 0.63155 0.0
H76 H 0.79452 0.11551 0.56074 0.0
H77 H 0.77579 0.14197 0.66316 0.0
C78 C 0.38982 0.77548 0.35289 0.0
C79 C 0.33124 0.78648 0.39543 0.0
C80 C 0.3883 0.76197 0.2694 0.0
C81 C 0.32693 0.76009 0.22919 0.0
C82 C 0.26772 0.76294 0.27389 0.0
C83 C 0.27063 0.7764 0.35698 0.0
C84 C 0.45213 0.75608 0.22306 0.0
C85 C 0.20141 0.75848 0.23278 0.0
C86 C 0.31342 0.84924 0.03094 0.0
C87 C 0.30442 0.79738 -0.0237 0.0
C88 C 0.32307 0.83717 0.11346 0.0
C89 C 0.32424 0.77156 0.14125 0.0
C90 C 0.31745 0.71878 0.08612 0.0
C91 C 0.30684 0.73242 0.00385 0.0
C92 C 0.3301 0.8948 0.17113 0.0
C93 C 0.3195 0.64826 0.11364 0.0
H94 H 0.43672 0.78119 0.38355 0.0
H95 H 0.2253 0.78169 0.39111 0.0
H96 H 0.44867 0.71704 0.17596 0.0
H97 H 0.46265 0.80291 0.19134 0.0
H98 H 0.49403 0.74519 0.2642 0.0
H99 H 0.16043 0.75641 0.27744 0.0
H100 H 0.19414 0.8019 0.19329 0.0
H101 H 0.19893 0.7143 0.19333 0.0
H102 H 0.31188 0.89938 0.00941 0.0
H103 H 0.30106 0.69214 -0.03887 0.0
H104 H 0.37662 0.89098 0.20602 0.0
H105 H 0.28905 0.89463 0.21566 0.0
H106 H 0.32997 0.94254 0.13879 0.0
H107 H 0.35329 0.64156 0.16601 0.0
H108 H 0.33509 0.61523 0.06331 0.0
H109 H 0.26959 0.63286 0.13316 0.0
C110 C 0.52641 0.74645 0.89762 0.0
C111 C 0.50709 0.71703 0.82356 0.0
C112 C 0.56278 0.71206 -0.04391 0.0
C113 C 0.58137 0.64658 -0.05971 0.0
C114 C 0.56295 0.61665 0.86541 0.0
C115 C 0.5259 0.65212 0.80805 0.0
C116 C 0.58118 0.7459 0.03497 0.0
C117 C 0.58201 0.54688 0.84619 0.0
C118 C 0.73052 0.57414 0.04534 0.0
C119 C 0.70183 0.53242 0.10334 0.0
C120 C 0.69195 0.61309 -0.00598 0.0
C121 C 0.62266 0.61039 0.00039 0.0
C122 C 0.59333 0.57157 0.06224 0.0
C123 C 0.63335 0.53303 0.11321 0.0
C124 C 0.72544 0.65468 -0.06979 0.0
C125 C 0.51959 0.56809 0.07174 0.0
H126 H 0.51193 0.79637 0.91109 0.0
H127 H 0.51081 0.62862 0.7517 0.0
H128 H 0.56468 0.71629 0.08777 0.0
H129 H 0.63543 0.75056 0.03925 0.0
H130 H 0.55936 0.79555 0.0402 0.0
H131 H 0.56302 0.53023 0.78607 0.0
H132 H 0.63634 0.54228 0.84616 0.0
H133 H 0.56277 0.5136 0.89401 0.0
H134 H 0.78345 0.5742 0.03759 0.0
H135 H 0.61076 0.50047 0.15722 0.0
H136 H 0.70783 0.70597 -0.06603 0.0
H137 H 0.71283 0.63591 0.86858 0.0
H138 H 0.77979 0.65475 -0.06321 0.0
H139 H 0.49848 0.61806 0.07522 0.0
H140 H 0.5047 0.54047 0.12701 0.0
H141 H 0.49781 0.54363 0.01754 0.0
C142 C 0.07338 0.4139 0.30604 0.0
C143 C 1.02772 0.44327 0.25349 0.0
C144 C 0.11175 0.45149 0.35994 0.0
C145 C 0.10458 0.52042 0.3616 0.0
C146 C 1.06188 0.55084 0.30497 0.0
C147 C 1.02393 0.51189 0.25148 0.0
C148 C 0.1574 0.41703 0.41819 0.0
C149 C 1.05339 0.62425 0.30399 0.0
C150 C 0.14376 0.60683 0.56277 0.0
C151 C 0.20756 0.63038 0.54868 0.0
C152 C 0.10964 0.57116 0.50231 0.0
C153 C 0.13949 0.55986 0.42534 0.0
C154 C 0.20354 0.58423 0.41049 0.0
C155 C 0.23693 0.61839 0.47241 0.0
C156 C 1.04145 0.54577 0.52063 0.0
C157 C 0.23667 0.57486 0.32887 0.0
H158 H 0.07699 0.36093 0.30779 0.0
H159 H 0.9885 0.53507 0.21169 0.0
H160 H 0.20752 0.43844 0.41446 0.0
H161 H 0.13982 0.42408 0.48163 0.0
H162 H 0.16053 0.3636 0.40564 0.0
H163 H 1.02613 0.64094 0.24924 0.0
H164 H 1.02577 0.63972 0.35904 0.0
H165 H 0.10182 0.64932 0.30578 0.0
H166 H 0.12041 0.61651 0.62093 0.0
H167 H 0.28564 0.63759 0.45983 0.0
H168 H 1.04027 0.49161 0.51429 0.0
H169 H 1.00591 0.56586 0.47604 0.0
H170 H 1.02491 0.55899 0.58306 0.0
H171 H 0.24372 0.52183 0.31675 0.0
H172 H 0.28526 0.59982 0.32572 0.0
H173 H 0.20511 0.59424 0.27945 0.0
C174 C 1.05861 0.91302 0.80785 0.0
C175 C 0.10442 0.94241 0.75519 0.0
C176 C 1.02 0.95067 0.86107 0.0
C177 C 1.02713 1.01967 0.86199 0.0
C178 C 0.07006 1.05005 0.80529 0.0
C179 C 0.10819 1.01105 0.75244 0.0
C180 C 0.9741 0.91623 0.9194 0.0
C181 C 0.07856 0.12352 0.80356 0.0
C182 C 0.89463 0.1176 -0.02891 0.0
C183 C 0.9238 0.1303 0.04736 0.0
C184 C 0.9281 0.08315 0.90972 0.0
C185 C 0.99205 1.05927 0.92514 0.0
C186 C 1.02168 0.0713 0.00213 0.0
C187 C 0.98748 0.10718 0.06203 0.0
C188 C 0.89518 0.07294 0.82807 0.0
C189 C 0.08977 1.04648 0.02106 0.0
H190 H 1.05499 0.86003 0.81018 0.0
H191 H 0.14373 1.03427 0.71255 0.0
H192 H 0.99147 0.9238 -0.01714 0.0
H193 H 0.92402 0.93724 0.91518 0.0
H194 H 0.97095 0.8627 0.90734 0.0
H195 H 0.10644 0.14004 0.7491 0.0
H196 H 1.0301 0.14815 0.80417 0.0
H197 H 0.10552 0.1397 0.85892 0.0
H198 H 0.84602 0.13646 -0.04193 0.0
H199 H 1.01069 0.11738 0.1202 0.0
H200 H 0.88831 1.01978 0.81636 0.0
H201 H 0.92679 0.09244 0.77861 0.0
H202 H 0.84653 0.09732 0.82453 0.0
H203 H 0.09084 0.99229 0.01536 0.0
H204 H 0.10615 1.06027 0.08342 0.0
H205 H 0.12549 0.06648 -0.02358 0.0
C206 C 0.40214 0.07399 0.54691 0.0
C207 C 0.43089 1.03251 0.60487 0.0
C208 C 0.44066 0.11274 0.49495 0.0
C209 C 0.50997 0.11017 0.5007 0.0
C210 C 0.5394 0.07168 0.56255 0.0
C211 C 0.49944 1.03327 0.61411 0.0
C212 C 0.40708 0.15395 0.43112 0.0
C213 C 0.61317 0.06847 0.57148 0.0
C214 C 0.60588 0.15153 0.30732 0.0
C215 C 0.62501 0.21659 0.32229 0.0
C216 C 0.56899 0.11612 0.3652 0.0
C217 C 0.55113 0.14625 0.44006 0.0
C218 C 0.57008 0.21186 0.45534 0.0
C219 C 0.60619 0.24621 0.39633 0.0
C220 C 0.54949 1.0462 0.34654 0.0
C221 C 0.55224 0.24595 0.53415 0.0
H222 H 0.34916 0.07394 0.53965 0.0
H223 H 0.52206 1.00091 0.6581 0.0
H224 H 0.42496 0.20532 0.43443 0.0
H225 H 0.41928 0.13498 0.36952 0.0
H226 H 0.35276 0.15386 0.43809 0.0
H227 H 0.6282 1.04119 0.62685 0.0
H228 H 0.63452 1.04379 0.5173 0.0
H229 H 0.63459 0.11852 0.57438 0.0
H230 H 0.62058 0.12789 0.25099 0.0
H231 H 0.6209 0.29626 0.40939 0.0
H232 H 0.49514 1.04139 0.34703 0.0
H233 H 0.56886 1.01318 0.39437 0.0
H234 H 0.56805 1.02942 0.28634 0.0
H235 H 0.49812 0.25161 0.53794 0.0
H236 H 0.57536 0.2952 0.53957 0.0
H237 H 0.56764 0.21604 0.58707 0.0
loop_
_geom_bond_atom_site_label_1
_geom_bond_atom_site_label_2
_geom_bond_distance
_geom_bond_site_symmetry_2
_ccdc_geom_bond_type
O0 Zn1 1.953 . S
O0 C16 1.225 . S
Zn1 O0 1.953 . S
Zn1 O2 1.949 . S
Zn1 O8 1.919 . S
Zn1 O13 1.924 . S
O2 Zn1 1.949 . S
O2 Zn3 1.923 . S
O2 Zn4 1.950 . S
O2 Zn5 1.945 . S
Zn3 O2 1.923 . S
Zn3 O6 1.933 . S
Zn3 O9 1.941 . S
Zn3 O10 1.965 . S
Zn4 O2 1.950 . S
Zn4 O11 1.938 . S
Zn4 O12 1.906 . S
Zn4 O22 1.953 . S
Zn5 O2 1.945 . S
Zn5 O7 1.932 . S
Zn5 O14 1.977 . S
Zn5 O15 1.910 . S
O6 Zn3 1.933 . S
O6 C17 1.226 1_554 S
O7 Zn5 1.932 . S
O7 C17 1.307 1_554 S
O8 Zn1 1.919 . S
O8 C19 1.253 . S
O9 Zn3 1.941 . S
O9 C19 1.283 . S
O10 Zn3 1.965 . S
O10 C18 1.303 . S
O11 Zn4 1.938 . S
O11 C18 1.247 . S
O12 Zn4 1.906 . S
O12 C20 1.304 . S
O13 Zn1 1.924 . S
O13 C21 1.311 . S
O14 Zn5 1.977 . S
O14 C20 1.272 . S
O15 Zn5 1.910 . S
O15 C21 1.231 . S
C16 O0 1.225 . S
C16 O22 1.298 . S
C17 O6 1.226 1_556 S
C17 O7 1.307 1_556 S
C18 O10 1.303 . S
C18 O11 1.247 . S
C19 O8 1.253 . S
C19 O9 1.283 . S
C20 O12 1.304 . S
C20 O14 1.272 . S
C21 O13 1.311 . S
C21 O15 1.231 . S
O22 Zn4 1.953 . S
O22 C16 1.298 . S
O23 Zn24 1.953 . S
O23 C39 1.225 . S
Zn24 O23 1.953 . S
Zn24 O25 1.949 . S
Zn24 O31 1.919 . S
Zn24 O36 1.924 . S
O25 Zn24 1.949 . S
O25 Zn26 1.923 . S
O25 Zn27 1.950 . S
O25 Zn28 1.945 . S
Zn26 O25 1.923 . S
Zn26 O29 1.933 . S
Zn26 O32 1.941 . S
Zn26 O33 1.965 . S
Zn27 O25 1.950 . S
Zn27 O34 1.938 . S
Zn27 O35 1.906 . S
Zn27 O45 1.953 . S
Zn28 O25 1.945 . S
Zn28 O30 1.932 . S
Zn28 O37 1.977 . S
Zn28 O38 1.910 . S
O29 Zn26 1.933 . S
O29 C40 1.226 1_556 S
O30 Zn28 1.932 . S
O30 C40 1.307 1_556 S
O31 Zn24 1.919 . S
O31 C42 1.253 . S
O32 Zn26 1.941 . S
O32 C42 1.283 . S
O33 Zn26 1.965 . S
O33 C41 1.303 . S
O34 Zn27 1.938 . S
O34 C41 1.247 . S
O35 Zn27 1.906 . S
O35 C43 1.304 . S
O36 Zn24 1.924 . S
O36 C44 1.311 . S
O37 Zn28 1.977 . S
O37 C43 1.272 . S
O38 Zn28 1.910 . S
O38 C44 1.231 . S
C39 O23 1.225 . S
C39 O45 1.298 . S
C40 O29 1.226 1_554 S
C40 O30 1.307 1_554 S
C41 O33 1.303 . S
C41 O34 1.247 . S
C42 O31 1.253 . S
C42 O32 1.283 . S
C43 O35 1.304 . S
C43 O37 1.272 . S
C44 O36 1.311 . S
C44 O38 1.231 . S
O45 Zn27 1.953 . S
O45 C39 1.298 . S
C46 C47 1.391 . S
C46 C48 1.394 . S
C46 H62 0.931 . S
C47 C46 1.391 . S
C47 C51 1.376 . S
C48 C46 1.394 . S
C48 C49 1.369 . S
C48 C52 1.531 . S
C49 C48 1.369 . S
C49 C50 1.410 . S
C49 C57 1.503 . S
C50 C49 1.410 . S
C50 C51 1.392 . S
C50 C53 1.511 . S
C51 C47 1.376 . S
C51 C50 1.392 . S
C51 H63 0.929 . S
C52 C48 1.531 . S
C52 H64 0.960 . S
C52 H65 0.962 . S
C52 H66 0.960 . S
C53 C50 1.511 . S
C53 H67 0.961 . S
C53 H68 0.961 . S
C53 H69 0.961 . S
C54 C55 1.370 . S
C54 C56 1.363 . S
C54 H70 0.931 . S
C55 C54 1.370 . S
C55 C59 1.408 . S
C56 C54 1.363 . S
C56 C57 1.370 . S
C56 C60 1.524 . S
C57 C49 1.503 . S
C57 C56 1.370 . S
C57 C58 1.403 . S
C58 C57 1.403 . S
C58 C59 1.404 . S
C58 C61 1.539 . S
C59 C55 1.408 . S
C59 C58 1.404 . S
C59 H71 0.930 . S
C60 C56 1.524 . S
C60 H72 0.956 . S
C60 H73 0.961 . S
C60 H74 0.961 . S
C61 C58 1.539 . S
C61 H75 0.958 . S
C61 H76 0.961 . S
C61 H77 0.960 . S
H62 C46 0.931 . S
H63 C51 0.929 . S
H64 C52 0.960 . S
H65 C52 0.962 . S
H66 C52 0.960 . S
H67 C53 0.961 . S
H68 C53 0.961 . S
H69 C53 0.961 . S
H70 C54 0.931 . S
H71 C59 0.930 . S
H72 C60 0.956 . S
H73 C60 0.961 . S
H74 C60 0.961 . S
H75 C61 0.958 . S
H76 C61 0.961 . S
H77 C61 0.960 . S
C78 C79 1.391 . S
C78 C80 1.394 . S
C78 H94 0.931 . S
C79 C78 1.391 . S
C79 C83 1.376 . S
C80 C78 1.394 . S
C80 C81 1.369 . S
C80 C84 1.531 . S
C81 C80 1.369 . S
C81 C82 1.410 . S
C81 C89 1.503 . S
C82 C81 1.410 . S
C82 C83 1.392 . S
C82 C85 1.511 . S
C83 C79 1.376 . S
C83 C82 1.392 . S
C83 H95 0.929 . S
C84 C80 1.531 . S
C84 H96 0.960 . S
C84 H97 0.962 . S
C84 H98 0.960 . S
C85 C82 1.511 . S
C85 H99 0.961 . S
C85 H100 0.961 . S
C85 H101 0.961 . S
C86 C87 1.370 . S
C86 C88 1.363 . S
C86 H102 0.931 . S
C87 C86 1.370 . S
C87 C91 1.408 . S
C88 C86 1.363 . S
C88 C89 1.370 . S
C88 C92 1.524 . S
C89 C81 1.503 . S
C89 C88 1.370 . S
C89 C90 1.403 . S
C90 C89 1.403 . S
C90 C91 1.404 . S
C90 C93 1.539 . S
C91 C87 1.408 . S
C91 C90 1.404 . S
C91 H103 0.930 . S
C92 C88 1.524 . S
C92 H104 0.956 . S
C92 H105 0.961 . S
C92 H106 0.961 . S
C93 C90 1.539 . S
C93 H107 0.958 . S
C93 H108 0.961 . S
C93 H109 0.960 . S
H94 C78 0.931 . S
H95 C83 0.929 . S
H96 C84 0.960 . S
H97 C84 0.962 . S
H98 C84 0.960 . S
H99 C85 0.961 . S
H100 C85 0.961 . S
H101 C85 0.961 . S
H102 C86 0.931 . S
H103 C91 0.930 . S
H104 C92 0.956 . S
H105 C92 0.961 . S
H106 C92 0.961 . S
H107 C93 0.958 . S
H108 C93 0.961 . S
H109 C93 0.960 . S
C110 C111 1.391 . S
C110 C112 1.394 . S
C110 H126 0.931 . S
C111 C110 1.391 . S
C111 C115 1.376 . S
C112 C110 1.394 . S
C112 C113 1.369 . S
C112 C116 1.531 . S
C113 C112 1.369 . S
C113 C114 1.410 1_556 S
C113 C121 1.503 1_556 S
C114 C113 1.410 1_554 S
C114 C115 1.392 1_554 S
C114 C117 1.511 . S
C115 C111 1.376 . S
C115 C114 1.392 1_556 S
C115 H127 0.929 . S
C116 C112 1.531 . S
C116 H128 0.960 . S
C116 H129 0.962 . S
C116 H130 0.960 . S
C117 C114 1.511 . S
C117 H131 0.961 . S
C117 H132 0.961 . S
C117 H133 0.961 . S
C118 C119 1.370 . S
C118 C120 1.363 . S
C118 H134 0.931 . S
C119 C118 1.370 . S
C119 C123 1.408 . S
C120 C118 1.363 . S
C120 C121 1.370 . S
C120 C124 1.524 1_554 S
C121 C113 1.503 1_554 S
C121 C120 1.370 . S
C121 C122 1.403 . S
C122 C121 1.403 . S
C122 C123 1.404 . S
C122 C125 1.539 . S
C123 C119 1.408 . S
C123 C122 1.404 . S
C123 H135 0.930 . S
C124 C120 1.524 1_556 S
C124 H136 0.956 . S
C124 H137 0.961 . S
C124 H138 0.961 . S
C125 C122 1.539 . S
C125 H139 0.958 . S
C125 H140 0.961 . S
C125 H141 0.960 . S
H126 C110 0.931 . S
H127 C115 0.929 . S
H128 C116 0.960 . S
H129 C116 0.962 . S
H130 C116 0.960 . S
H131 C117 0.961 . S
H132 C117 0.961 . S
H133 C117 0.961 . S
H134 C118 0.931 . S
H135 C123 0.930 . S
H136 C124 0.956 . S
H137 C124 0.961 . S
H138 C124 0.961 . S
H139 C125 0.958 . S
H140 C125 0.961 . S
H141 C125 0.960 . S
C142 C143 1.391 . S
C142 C144 1.394 . S
C142 H158 0.931 . S
C143 C142 1.391 . S
C143 C147 1.376 . S
C144 C142 1.394 . S
C144 C145 1.369 . S
C144 C148 1.531 . S
C145 C144 1.369 . S
C145 C146 1.410 1_655 S
C145 C153 1.503 1_655 S
C146 C145 1.410 1_455 S
C146 C147 1.392 1_455 S
C146 C149 1.511 . S
C147 C143 1.376 . S
C147 C146 1.392 1_655 S
C147 H159 0.929 . S
C148 C144 1.531 . S
C148 H160 0.960 . S
C148 H161 0.962 . S
C148 H162 0.960 . S
C149 C146 1.511 . S
C149 H163 0.961 . S
C149 H164 0.961 . S
C149 H165 0.961 . S
C150 C151 1.370 . S
C150 C152 1.363 . S
C150 H166 0.931 . S
C151 C150 1.370 . S
C151 C155 1.408 . S
C152 C150 1.363 . S
C152 C153 1.370 . S
C152 C156 1.524 1_455 S
C153 C145 1.503 1_455 S
C153 C152 1.370 . S
C153 C154 1.403 . S
C154 C153 1.403 . S
C154 C155 1.404 . S
C154 C157 1.539 . S
C155 C151 1.408 . S
C155 C154 1.404 . S
C155 H167 0.930 . S
C156 C152 1.524 1_655 S
C156 H168 0.956 . S
C156 H169 0.961 1_655 S
C156 H170 0.961 1_655 S
C157 C154 1.539 . S
C157 H171 0.958 . S
C157 H172 0.961 . S
C157 H173 0.960 . S
H158 C142 0.931 . S
H159 C147 0.929 . S
H160 C148 0.960 . S
H161 C148 0.962 . S
H162 C148 0.960 . S
H163 C149 0.961 . S
H164 C149 0.961 . S
H165 C149 0.961 . S
H166 C150 0.931 . S
H167 C155 0.930 . S
H168 C156 0.956 . S
H169 C156 0.961 1_455 S
H170 C156 0.961 1_455 S
H171 C157 0.958 . S
H172 C157 0.961 . S
H173 C157 0.960 . S
C174 C175 1.391 . S
C174 C176 1.394 1_556 S
C174 H190 0.931 . S
C175 C174 1.391 . S
C175 C179 1.376 . S
C176 C174 1.394 1_554 S
C176 C177 1.369 1_554 S
C176 C180 1.531 . S
C177 C176 1.369 1_556 S
C177 C178 1.410 1_565 S
C177 C185 1.503 1_466 S
C178 C177 1.410 1_545 S
C178 C179 1.392 1_545 S
C178 C181 1.511 . S
C179 C175 1.376 . S
C179 C178 1.392 1_565 S
C179 H191 0.929 . S
C180 C176 1.531 . S
C180 H192 0.960 . S
C180 H193 0.962 . S
C180 H194 0.960 . S
C181 C178 1.511 . S
C181 H195 0.961 . S
C181 H196 0.961 1_455 S
C181 H197 0.961 . S
C182 C183 1.370 . S
C182 C184 1.363 . S
C182 H198 0.931 . S
C183 C182 1.370 . S
C183 C187 1.408 . S
C184 C182 1.363 . S
C184 C185 1.370 . S
C184 C188 1.524 1_544 S
C185 C177 1.503 1_644 S
C185 C184 1.370 . S
C185 C186 1.403 1_655 S
C186 C185 1.403 1_455 S
C186 C187 1.404 1_455 S
C186 C189 1.539 . S
C187 C183 1.408 . S
C187 C186 1.404 1_655 S
C187 H199 0.930 . S
C188 C184 1.524 1_566 S
C188 H200 0.954 1_556 S
C188 H201 0.961 . S
C188 H202 0.961 . S
C189 C186 1.539 . S
C189 H203 0.958 . S
C189 H204 0.961 . S
C189 H205 0.960 . S
H190 C174 0.931 . S
H191 C179 0.929 . S
H192 C180 0.960 . S
H193 C180 0.962 . S
H194 C180 0.960 . S
H195 C181 0.961 . S
H196 C181 0.961 1_655 S
H197 C181 0.961 . S
H198 C182 0.931 . S
H199 C187 0.930 . S
H200 C188 0.954 1_554 S
H201 C188 0.961 . S
H202 C188 0.961 . S
H203 C189 0.958 . S
H204 C189 0.961 . S
H205 C189 0.960 . S
C206 C207 1.391 . S
C206 C208 1.394 . S
C206 H222 0.931 . S
C207 C206 1.391 . S
C207 C211 1.376 . S
C208 C206 1.394 . S
C208 C209 1.369 . S
C208 C212 1.531 . S
C209 C208 1.369 . S
C209 C210 1.410 . S
C209 C217 1.503 1_565 S
C210 C209 1.410 . S
C210 C211 1.392 . S
C210 C213 1.511 1_565 S
C211 C207 1.376 . S
C211 C210 1.392 . S
C211 H223 0.929 . S
C212 C208 1.531 . S
C212 H224 0.960 1_565 S
C212 H225 0.962 . S
C212 H226 0.960 . S
C213 C210 1.511 1_545 S
C213 H227 0.961 1_545 S
C213 H228 0.961 . S
C213 H229 0.961 . S
C214 C215 1.370 . S
C214 C216 1.363 1_545 S
C214 H230 0.931 . S
C215 C214 1.370 . S
C215 C219 1.408 . S
C216 C214 1.363 1_565 S
C216 C217 1.370 1_565 S
C216 C220 1.524 . S
C217 C209 1.503 1_545 S
C217 C216 1.370 1_545 S
C217 C218 1.403 . S
C218 C217 1.403 . S
C218 C219 1.404 . S
C218 C221 1.539 . S
C219 C215 1.408 . S
C219 C218 1.404 . S
C219 H231 0.930 . S
C220 C216 1.524 . S
C220 H232 0.956 . S
C220 H233 0.961 . S
C220 H234 0.961 . S
C221 C218 1.539 . S
C221 H235 0.958 . S
C221 H236 0.961 . S
C221 H237 0.960 . S
H222 C206 0.931 . S
H223 C211 0.929 . S
H224 C212 0.960 1_545 S
H225 C212 0.962 . S
H226 C212 0.960 . S
H227 C213 0.961 1_565 S
H228 C213 0.961 . S
H229 C213 0.961 . S
H230 C214 0.931 . S
H231 C219 0.930 . S
H232 C220 0.956 . S
H233 C220 0.961 . S
H234 C220 0.961 . S
H235 C221 0.958 . S
H236 C221 0.961 . S
H237 C221 0.960 . S
C47 C17 0.103 . S
C55 C16 0.096 . S
C79 C39 0.103 . S
C87 C40 0.127 . S
C111 C42 2.080 . S
C119 C20 2.082 . S
C143 C21 2.038 . S
C151 C44 2.053 . S
C175 C43 2.080 . S
C183 C19 2.096 . S
C207 C41 2.099 . S
C215 C18 2.108 . S
