# Generated by pormake.
# Topology reo, (8)-cn, num edge types: 1
# Building blocks:
#     Node 0, Type 0, BuildingBlock: TAGTUT_clean_sbu_1, # of connection points: 8
#     Node 1, Type 0, BuildingBlock: TAGTUT_clean_sbu_1, # of connection points: 8
#     Node 2, Type 0, BuildingBlock: TAGTUT_clean_sbu_1, # of connection points: 8
#     Edge 3, Type (0, 0), BuildingBlock: OJICUG_clean_linker_0, # of connection points: 2
#     Edge 4, Type (0, 0), BuildingBlock: OJICUG_clean_linker_0, # of connection points: 2
#     Edge 5, Type (0, 0), BuildingBlock: OJICUG_clean_linker_0, # of connection points: 2
#     Edge 6, Type (0, 0), BuildingBlock: OJICUG_clean_linker_0, # of connection points: 2
#     Edge 7, Type (0, 0), BuildingBlock: OJICUG_clean_linker_0, # of connection points: 2
#     Edge 8, Type (0, 0), BuildingBlock: OJICUG_clean_linker_0, # of connection points: 2
#     Edge 9, Type (0, 0), BuildingBlock: OJICUG_clean_linker_0, # of connection points: 2
#     Edge 10, Type (0, 0), BuildingBlock: OJICUG_clean_linker_0, # of connection points: 2
#     Edge 11, Type (0, 0), BuildingBlock: OJICUG_clean_linker_0, # of connection points: 2
#     Edge 12, Type (0, 0), BuildingBlock: OJICUG_clean_linker_0, # of connection points: 2
#     Edge 13, Type (0, 0), BuildingBlock: OJICUG_clean_linker_0, # of connection points: 2
#     Edge 14, Type (0, 0), BuildingBlock: OJICUG_clean_linker_0, # of connection points: 2
# Relax obj value: 0.218
# Max RMSD: 0.240
# Mean RMSD: 0.180
data_MOF--net-reo--node1-TAGTUT_clean_sbu_1--edge1-OJICUG_clean_linker_0
_symmetry_space_group_name_H-M    P1
_symmetry_Int_Tables_number       1
_symmetry_cell_setting            triclinic
loop_
_symmetry_equiv_pos_as_xyz
'x, y, z'
_cell_length_a     15.902821
_cell_length_b     17.606029
_cell_length_c     21.119754
_cell_angle_alpha  89.756366
_cell_angle_beta   89.757711
_cell_angle_gamma 91.978592
loop_
_atom_site_label
_atom_site_type_symbol
_atom_site_fract_x
_atom_site_fract_y
_atom_site_fract_z
_atom_type_partial_charge
C0 C 0.0529 0.72466 0.52806 0.0
C1 C 0.91422 0.80577 0.36464 0.0
C2 C 0.12832 0.03868 0.35391 0.0
Mg3 Mg 0.91553 0.84017 0.50397 0.0
O4 O 0.01294 0.90253 0.49621 0.0
Mg5 Mg 0.09697 0.87431 0.43068 0.0
Mg6 Mg -0.00399 0.00921 0.47126 0.0
O7 O 0.97914 0.11586 0.4462 0.0
Mg8 Mg 0.0765 0.17828 0.43816 0.0
Mg9 Mg 0.89515 0.14411 0.51169 0.0
C10 C 0.86341 0.9797 0.58824 0.0
C11 C 0.80785 0.0216 0.41584 0.0
O12 O 0.10513 0.76172 0.4915 0.0
O13 O 0.97743 0.74449 0.53749 0.0
O14 O 0.99348 0.82129 0.36588 0.0
O15 O 0.867 0.81417 0.41271 0.0
O16 O 0.8533 0.90968 0.57235 0.0
O17 O 0.91464 0.02582 0.55894 0.0
C18 C 0.18421 0.99674 0.52662 0.0
O19 O 0.11707 0.03475 0.52432 0.0
O20 O 0.19196 0.93499 0.49548 0.0
O21 O 0.88689 0.25668 0.45091 0.0
O22 O 0.01451 0.27401 0.40483 0.0
O23 O -0.00125 0.19719 0.57631 0.0
C24 C 0.93906 0.29383 0.41438 0.0
O25 O 0.1252 0.20427 0.5294 0.0
O26 O 0.13843 0.10881 0.36949 0.0
C27 C 0.07801 0.2127 0.5775 0.0
O28 O 0.07747 0.99273 0.38374 0.0
O29 O 0.87501 0.98362 0.41816 0.0
O30 O 0.80007 0.08336 0.44696 0.0
C31 C 0.58259 0.97834 0.21078 0.0
C32 C 0.33949 0.99827 0.14296 0.0
C33 C 0.41838 0.83669 0.94774 0.0
Mg34 Mg 0.50249 0.0813 0.10927 0.0
O35 O 0.54123 1.00272 0.05867 0.0
Mg36 Mg 0.49685 0.89751 0.08204 0.0
Mg37 Mg 0.49605 0.00914 -0.02875 0.0
O38 O 0.45083 0.01546 0.88387 0.0
Mg39 Mg 0.48933 0.93675 0.83327 0.0
Mg40 Mg 0.49524 0.12059 0.86042 0.0
C41 C 0.57345 0.18154 -0.00521 0.0
C42 C 0.34919 0.13766 0.96789 0.0
O43 O 0.5685 0.91831 0.17715 0.0
O44 O 0.5623 0.04496 0.19332 0.0
O45 O 0.37824 0.93721 0.13309 0.0
O46 O 0.37143 0.06311 0.12737 0.0
O47 O 0.55233 0.1775 0.05357 0.0
O48 O 0.56364 0.12423 0.95761 0.0
C49 C 0.64292 0.88058 -0.02542 0.0
O50 O 0.61087 0.9352 0.94306 0.0
O51 O 0.61292 0.85871 0.02831 0.0
O52 O 0.42354 0.09976 0.76535 0.0
O53 O 0.42956 0.9731 0.74922 0.0
O54 O 0.61377 0.08071 0.80939 0.0
C55 C 0.40937 0.03974 0.73174 0.0
O56 O 0.62038 0.95479 0.8151 0.0
O57 O 0.43934 0.84059 0.88893 0.0
C58 C 0.65241 0.01959 0.7995 0.0
O59 O 0.42859 0.89407 -0.01521 0.0
O60 O 0.38122 0.08307 -0.00056 0.0
O61 O 0.37919 0.1595 0.91415 0.0
C62 C 0.15826 0.34913 0.8113 0.0
C63 C 0.07581 0.54864 0.75058 0.0
C64 C 0.15233 0.62689 0.01544 0.0
Mg65 Mg -0.00123 0.40995 0.83304 0.0
O66 O 0.03375 0.48512 0.88683 0.0
Mg67 Mg 0.16002 0.50927 0.88612 0.0
Mg68 Mg -0.00414 0.50905 -0.02854 0.0
O69 O 0.95796 0.53302 0.05609 0.0
Mg70 Mg 0.99234 0.60888 0.10949 0.0
Mg71 Mg 0.83154 0.50906 0.05655 0.0
C72 C 0.83892 0.39193 0.92722 0.0
C73 C 0.84564 0.63264 0.94482 0.0
O74 O 0.18969 0.41704 0.81101 0.0
O75 O 0.0966 0.33301 0.84774 0.0
O76 O 0.11866 0.57595 0.7978 0.0
O77 O 0.03034 0.48653 0.75419 0.0
O78 O 0.87505 0.37849 0.874 0.0
O79 O 0.87526 0.43324 0.96982 0.0
C80 C 0.14614 0.38541 -0.00226 0.0
O81 O 0.06885 0.40135 0.00636 0.0
O82 O 0.19343 0.42579 0.96154 0.0
O83 O 0.80155 0.60147 0.13141 0.0
O84 O 0.89425 0.68539 0.09414 0.0
O85 O 0.87279 0.44283 0.14505 0.0
C86 C 0.83287 0.66941 0.13086 0.0
O87 O 0.96079 0.53259 0.18859 0.0
O88 O 0.11596 0.64069 0.0685 0.0
C89 C 0.91549 0.47037 0.19226 0.0
O90 O 0.11649 0.58469 -0.02679 0.0
O91 O 0.92299 0.61677 0.9365 0.0
O92 O 0.79819 0.5922 -0.01915 0.0
C93 C 0.85402 0.36883 0.26473 0.0
C94 C 0.90987 0.43148 0.25455 0.0
H95 H 0.81609 0.27737 0.32712 0.0
C96 C 0.96013 0.45777 0.30514 0.0
H97 H 0.81305 0.34813 0.22729 0.0
C98 C 0.9606 0.41805 0.36235 0.0
C99 C 0.91019 0.35184 0.37049 0.0
H100 H 0.00262 0.50679 0.29966 0.0
H101 H 0.00568 0.43535 0.39831 0.0
C102 C 0.85395 0.32949 0.32247 0.0
C103 C 0.66359 0.03254 0.37095 0.0
C104 C 0.74182 0.99812 0.37052 0.0
H105 H 0.55034 0.05184 0.31988 0.0
C106 C 0.7604 0.94747 0.32159 0.0
H107 H 0.64727 0.07174 0.40807 0.0
C108 C 0.70411 0.93427 0.27215 0.0
C109 C 0.62935 0.97367 0.27008 0.0
H110 H 0.82133 0.92297 0.31885 0.0
H111 H 0.7225 0.89889 0.23292 0.0
C112 C 0.60802 0.02082 0.32079 0.0
C113 C 0.90249 0.81478 0.24828 0.0
C114 C 0.87685 0.77954 0.30497 0.0
H115 H 0.90103 0.81115 0.14765 0.0
C116 C 0.81949 0.7172 0.30355 0.0
H117 H 0.94486 0.86435 0.24856 0.0
C118 C 0.79607 0.68491 0.24552 0.0
C119 C 0.82856 0.71601 0.18864 0.0
H120 H 0.79814 0.69001 0.34712 0.0
H121 H 0.75861 0.63235 0.24561 0.0
C122 C 0.87653 0.78464 0.19064 0.0
C123 C 0.21764 0.06056 0.19078 0.0
C124 C 0.2664 0.99615 0.18597 0.0
H125 H 0.13514 0.12355 0.24841 0.0
C126 C 0.2565 0.9378 0.23172 0.0
H127 H 0.22284 0.10573 0.1558 0.0
C128 C 0.20626 0.94825 0.28544 0.0
C129 C 0.16607 0.01705 0.29343 0.0
H130 H 0.29324 0.88724 0.229 0.0
H131 H 0.20427 0.90559 0.32258 0.0
C132 C 0.16813 0.07095 0.2441 0.0
C133 C 0.0314 0.60056 0.58028 0.0
C134 C 0.08171 0.66684 0.57215 0.0
H135 H 0.98923 0.51194 0.643 0.0
C136 C 0.1376 0.68945 0.62033 0.0
H137 H 0.98656 0.58308 0.5442 0.0
C138 C 0.13731 0.65026 0.67816 0.0
C139 C 0.08157 0.58753 0.68828 0.0
H140 H 0.17535 0.74163 0.61568 0.0
H141 H 0.17803 0.67114 0.71569 0.0
C142 C 0.03163 0.56102 0.63757 0.0
C143 C 0.38394 0.99721 0.62176 0.0
C144 C 0.36268 0.04445 0.67242 0.0
H145 H 0.34466 0.94629 0.53449 0.0
C146 C 0.28805 0.08403 0.67027 0.0
H147 H 0.44154 0.96606 0.62273 0.0
C148 C 0.23179 0.07092 0.6208 0.0
C149 C 0.25027 0.02017 0.57193 0.0
H150 H 0.26972 0.1195 0.70946 0.0
H151 H 0.17094 0.09556 0.62347 0.0
C152 C 0.32841 0.98558 0.57156 0.0
C153 C 0.19557 0.33384 0.69673 0.0
C154 C 0.16316 0.30253 0.75357 0.0
H155 H 0.19362 0.32886 0.59512 0.0
C156 C 0.11564 0.23367 0.75149 0.0
H157 H 0.23268 0.38659 0.6967 0.0
C158 C 0.08992 0.20348 0.69382 0.0
C159 C 0.11539 0.23891 0.63716 0.0
H160 H 0.09126 0.20702 0.79446 0.0
H161 H 0.04779 0.15374 0.69348 0.0
C162 C 0.17241 0.3015 0.63866 0.0
C163 C 0.73565 0.08022 0.71094 0.0
C164 C 0.72543 0.0216 0.75641 0.0
H165 H 0.78806 0.11285 0.62024 0.0
C166 C 0.77375 0.95696 0.75124 0.0
H167 H 0.69926 0.13098 0.71394 0.0
C168 C 0.82312 0.94667 0.69783 0.0
C169 C 0.82551 1.00093 0.64878 0.0
H170 H 0.76832 0.91156 0.78601 0.0
H171 H 0.85579 0.89393 0.69325 0.0
C172 C 0.78577 0.06989 0.65714 0.0
C173 C 0.14967 0.24579 -0.01769 0.0
C174 C 0.17949 0.31055 0.01526 0.0
H175 H 0.18137 0.13925 0.94041 0.0
C176 C 0.25869 0.30825 0.04447 0.0
H177 H 0.08995 0.24656 0.95787 0.0
C178 C 0.31013 0.24588 0.03581 0.0
C179 C 0.28422 0.18536 -0.00346 0.0
H180 H 0.28434 0.35798 0.06863 0.0
H181 H 0.37369 0.24887 0.05416 0.0
C182 C 0.20221 0.18436 -0.02801 0.0
C183 C 0.26955 0.66575 0.94098 0.0
C184 C 0.23416 0.66649 0.00195 0.0
H185 H 0.35764 0.71787 0.87632 0.0
C186 C 0.2719 0.7138 0.04817 0.0
H187 H 0.24271 0.62983 0.90433 0.0
C188 C 0.33752 0.765 0.03201 0.0
C189 C 0.3671 0.76969 0.9694 0.0
H190 H 0.24732 0.71495 0.09606 0.0
H191 H 0.36113 0.80409 0.06767 0.0
C192 C 0.33572 0.71655 0.92496 0.0
C193 C 0.65377 0.25382 0.91057 0.0
C194 C 0.62449 0.24875 -0.02674 0.0
H195 H 0.74358 0.30434 0.84646 0.0
C196 C 0.65596 0.30171 0.0178 0.0
H197 H 0.63008 0.21487 0.87484 0.0
C198 C 0.72194 0.3527 0.00178 0.0
C199 C 0.75708 0.35233 0.94072 0.0
H200 H 0.63425 0.30009 0.06649 0.0
H201 H 0.74889 0.38844 0.0385 0.0
C202 C 0.7192 0.30524 0.89441 0.0
C203 C 0.73305 0.70977 0.89816 0.0
C204 C 0.81234 0.70751 0.92724 0.0
H205 H 0.61806 0.76916 0.88857 0.0
C206 C 0.84234 0.77239 0.95995 0.0
H207 H 0.70727 0.65997 0.87417 0.0
C208 C 0.78987 0.83388 0.97024 0.0
C209 C 0.70776 0.83282 0.94587 0.0
H210 H 0.90217 0.77169 -0.01576 0.0
H211 H 0.81086 0.87909 0.00166 0.0
C212 C 0.68169 0.77219 0.90678 0.0
loop_
_geom_bond_atom_site_label_1
_geom_bond_atom_site_label_2
_geom_bond_distance
_geom_bond_site_symmetry_2
_ccdc_geom_bond_type
C0 O12 1.241 . S
C0 O13 1.280 1_455 S
C1 O14 1.277 1_655 S
C1 O15 1.245 . S
C2 O26 1.247 . S
C2 O28 1.289 1_545 S
Mg3 O4 1.926 . S
Mg3 O13 1.984 . S
Mg3 O15 1.988 . S
Mg3 O16 2.061 . S
O4 Mg3 1.926 . S
O4 Mg5 1.986 1_655 S
O4 Mg6 1.917 1_665 S
Mg5 O4 1.986 1_455 S
Mg5 O12 2.042 . S
Mg5 O14 2.041 . S
Mg5 O20 2.038 . S
Mg5 O28 2.238 . S
Mg6 O4 1.917 1_445 S
Mg6 O7 1.917 . S
Mg6 O17 2.106 1_455 S
Mg6 O19 2.079 . S
Mg6 O28 2.106 1_545 S
Mg6 O29 2.079 1_445 S
O7 Mg6 1.917 . S
O7 Mg8 1.926 . S
O7 Mg9 1.986 1_455 S
Mg8 O7 1.926 . S
Mg8 O22 1.984 . S
Mg8 O25 1.988 . S
Mg8 O26 2.061 . S
Mg9 O7 1.986 1_655 S
Mg9 O17 2.238 . S
Mg9 O21 2.042 . S
Mg9 O23 2.041 . S
Mg9 O30 2.038 . S
C10 O16 1.247 . S
C10 O17 1.289 1_565 S
C11 O29 1.245 1_545 S
C11 O30 1.274 . S
O12 C0 1.241 . S
O12 Mg5 2.042 . S
O13 C0 1.280 1_655 S
O13 Mg3 1.984 . S
O14 C1 1.277 1_455 S
O14 Mg5 2.041 . S
O15 C1 1.245 . S
O15 Mg3 1.988 . S
O16 Mg3 2.061 . S
O16 C10 1.247 . S
O17 Mg6 2.106 1_655 S
O17 Mg9 2.238 . S
O17 C10 1.289 1_545 S
C18 O19 1.245 1_565 S
C18 O20 1.274 . S
O19 Mg6 2.079 . S
O19 C18 1.245 1_545 S
O20 Mg5 2.038 . S
O20 C18 1.274 . S
O21 Mg9 2.042 . S
O21 C24 1.241 . S
O22 Mg8 1.984 . S
O22 C24 1.280 1_455 S
O23 Mg9 2.041 . S
O23 C27 1.277 1_655 S
C24 O21 1.241 . S
C24 O22 1.280 1_655 S
O25 Mg8 1.988 . S
O25 C27 1.245 . S
O26 C2 1.247 . S
O26 Mg8 2.061 . S
C27 O23 1.277 1_455 S
C27 O25 1.245 . S
O28 C2 1.289 1_565 S
O28 Mg5 2.238 . S
O28 Mg6 2.106 1_565 S
O29 Mg6 2.079 1_665 S
O29 C11 1.245 1_565 S
O30 Mg9 2.038 . S
O30 C11 1.274 . S
C31 O43 1.241 . S
C31 O44 1.280 1_565 S
C32 O45 1.277 1_545 S
C32 O46 1.245 . S
C33 O57 1.247 . S
C33 O59 1.289 1_556 S
Mg34 O35 1.926 . S
Mg34 O44 1.984 . S
Mg34 O46 1.988 . S
Mg34 O47 2.061 . S
O35 Mg34 1.926 . S
O35 Mg36 1.986 1_545 S
O35 Mg37 1.917 . S
Mg36 O35 1.986 1_565 S
Mg36 O43 2.042 . S
Mg36 O45 2.041 . S
Mg36 O51 2.038 . S
Mg36 O59 2.238 . S
Mg37 O35 1.917 . S
Mg37 O38 1.917 1_544 S
Mg37 O48 2.106 1_554 S
Mg37 O50 2.079 1_544 S
Mg37 O59 2.106 1_545 S
Mg37 O60 2.079 . S
O38 Mg37 1.917 1_566 S
O38 Mg39 1.926 . S
O38 Mg40 1.986 1_565 S
Mg39 O38 1.926 . S
Mg39 O53 1.984 . S
Mg39 O56 1.988 . S
Mg39 O57 2.061 . S
Mg40 O38 1.986 1_545 S
Mg40 O48 2.238 . S
Mg40 O52 2.042 . S
Mg40 O54 2.041 . S
Mg40 O61 2.038 . S
C41 O47 1.247 . S
C41 O48 1.289 1_554 S
C42 O60 1.245 1_556 S
C42 O61 1.274 . S
O43 C31 1.241 . S
O43 Mg36 2.042 . S
O44 C31 1.280 1_545 S
O44 Mg34 1.984 . S
O45 C32 1.277 1_565 S
O45 Mg36 2.041 . S
O46 C32 1.245 . S
O46 Mg34 1.988 . S
O47 Mg34 2.061 . S
O47 C41 1.247 . S
O48 Mg37 2.106 1_556 S
O48 Mg40 2.238 . S
O48 C41 1.289 1_556 S
C49 O50 1.245 1_554 S
C49 O51 1.274 . S
O50 Mg37 2.079 1_566 S
O50 C49 1.245 1_556 S
O51 Mg36 2.038 . S
O51 C49 1.274 . S
O52 Mg40 2.042 . S
O52 C55 1.241 . S
O53 Mg39 1.984 . S
O53 C55 1.280 1_565 S
O54 Mg40 2.041 . S
O54 C58 1.277 1_545 S
C55 O52 1.241 . S
C55 O53 1.280 1_545 S
O56 Mg39 1.988 . S
O56 C58 1.245 . S
O57 C33 1.247 . S
O57 Mg39 2.061 . S
C58 O54 1.277 1_565 S
C58 O56 1.245 . S
O59 C33 1.289 1_554 S
O59 Mg36 2.238 . S
O59 Mg37 2.106 1_565 S
O60 Mg37 2.079 . S
O60 C42 1.245 1_554 S
O61 Mg40 2.038 . S
O61 C42 1.274 . S
C62 O74 1.241 . S
C62 O75 1.280 1_455 S
C63 O76 1.277 1_655 S
C63 O77 1.245 . S
C64 O88 1.247 . S
C64 O90 1.289 1_554 S
Mg65 O66 1.926 . S
Mg65 O75 1.984 . S
Mg65 O77 1.988 . S
Mg65 O78 2.061 . S
O66 Mg65 1.926 . S
O66 Mg67 1.986 1_655 S
O66 Mg68 1.917 1_656 S
Mg67 O66 1.986 1_455 S
Mg67 O74 2.042 . S
Mg67 O76 2.041 . S
Mg67 O82 2.038 . S
Mg67 O90 2.238 . S
Mg68 O66 1.917 1_454 S
Mg68 O69 1.917 . S
Mg68 O79 2.106 1_455 S
Mg68 O81 2.079 . S
Mg68 O90 2.106 1_554 S
Mg68 O91 2.079 1_454 S
O69 Mg68 1.917 . S
O69 Mg70 1.926 . S
O69 Mg71 1.986 1_455 S
Mg70 O69 1.926 . S
Mg70 O84 1.984 . S
Mg70 O87 1.988 . S
Mg70 O88 2.061 . S
Mg71 O69 1.986 1_655 S
Mg71 O79 2.238 . S
Mg71 O83 2.042 . S
Mg71 O85 2.041 . S
Mg71 O92 2.038 . S
C72 O78 1.247 . S
C72 O79 1.289 1_556 S
C73 O91 1.245 1_554 S
C73 O92 1.274 . S
O74 C62 1.241 . S
O74 Mg67 2.042 . S
O75 C62 1.280 1_655 S
O75 Mg65 1.984 . S
O76 C63 1.277 1_455 S
O76 Mg67 2.041 . S
O77 C63 1.245 . S
O77 Mg65 1.988 . S
O78 Mg65 2.061 . S
O78 C72 1.247 . S
O79 Mg68 2.106 1_655 S
O79 Mg71 2.238 . S
O79 C72 1.289 1_554 S
C80 O81 1.245 1_556 S
C80 O82 1.274 . S
O81 Mg68 2.079 . S
O81 C80 1.245 1_554 S
O82 Mg67 2.038 . S
O82 C80 1.274 . S
O83 Mg71 2.042 . S
O83 C86 1.241 . S
O84 Mg70 1.984 . S
O84 C86 1.280 1_455 S
O85 Mg71 2.041 . S
O85 C89 1.277 1_655 S
C86 O83 1.241 . S
C86 O84 1.280 1_655 S
O87 Mg70 1.988 . S
O87 C89 1.245 . S
O88 C64 1.247 . S
O88 Mg70 2.061 . S
C89 O85 1.277 1_455 S
C89 O87 1.245 . S
O90 C64 1.289 1_556 S
O90 Mg67 2.238 . S
O90 Mg68 2.106 1_556 S
O91 Mg68 2.079 1_656 S
O91 C73 1.245 1_556 S
O92 Mg71 2.038 . S
O92 C73 1.274 . S
C93 C94 1.387 . S
C93 H97 0.950 . S
C93 C102 1.390 . S
C94 C93 1.387 . S
C94 C96 1.387 1_455 S
H95 C102 0.950 . S
C96 C94 1.387 1_655 S
C96 C98 1.390 . S
C96 H100 0.950 . S
H97 C93 0.950 . S
C98 C96 1.390 . S
C98 C99 1.387 . S
C98 H101 0.950 . S
C99 C98 1.387 . S
C99 C102 1.387 1_655 S
H100 C96 0.950 . S
H101 C98 0.950 . S
C102 C93 1.390 . S
C102 H95 0.950 . S
C102 C99 1.387 1_455 S
C103 C104 1.387 1_545 S
C103 H107 0.950 . S
C103 C112 1.390 . S
C104 C103 1.387 1_565 S
C104 C106 1.387 . S
H105 C112 0.950 . S
C106 C104 1.387 . S
C106 C108 1.390 . S
C106 H110 0.950 . S
H107 C103 0.950 . S
C108 C106 1.390 . S
C108 C109 1.387 . S
C108 H111 0.950 . S
C109 C108 1.387 . S
C109 C112 1.387 1_565 S
H110 C106 0.950 . S
H111 C108 0.950 . S
C112 C103 1.390 . S
C112 H105 0.950 . S
C112 C109 1.387 1_545 S
C113 C114 1.387 1_455 S
C113 H117 0.950 . S
C113 C122 1.390 . S
C114 C113 1.387 1_655 S
C114 C116 1.387 . S
H115 C122 0.950 . S
C116 C114 1.387 . S
C116 C118 1.390 . S
C116 H120 0.950 . S
H117 C113 0.950 . S
C118 C116 1.390 . S
C118 C119 1.387 . S
C118 H121 0.950 . S
C119 C118 1.387 . S
C119 C122 1.387 1_655 S
H120 C116 0.950 . S
H121 C118 0.950 . S
C122 C113 1.390 . S
C122 H115 0.950 . S
C122 C119 1.387 1_455 S
C123 C124 1.387 . S
C123 H127 0.950 . S
C123 C132 1.390 . S
C124 C123 1.387 . S
C124 C126 1.387 1_545 S
H125 C132 0.950 . S
C126 C124 1.387 1_565 S
C126 C128 1.390 . S
C126 H130 0.950 . S
H127 C123 0.950 . S
C128 C126 1.390 . S
C128 C129 1.387 1_565 S
C128 H131 0.950 . S
C129 C128 1.387 1_545 S
C129 C132 1.387 . S
H130 C126 0.950 . S
H131 C128 0.950 . S
C132 C123 1.390 . S
C132 H125 0.950 . S
C132 C129 1.387 . S
C133 C134 1.387 . S
C133 H137 0.950 . S
C133 C142 1.390 . S
C134 C133 1.387 . S
C134 C136 1.387 1_455 S
H135 C142 0.950 . S
C136 C134 1.387 1_655 S
C136 C138 1.390 . S
C136 H140 0.950 . S
H137 C133 0.950 . S
C138 C136 1.390 . S
C138 C139 1.387 . S
C138 H141 0.950 . S
C139 C138 1.387 . S
C139 C142 1.387 1_655 S
H140 C136 0.950 . S
H141 C138 0.950 . S
C142 C133 1.390 . S
C142 H135 0.950 . S
C142 C139 1.387 1_455 S
C143 C144 1.387 1_565 S
C143 H147 0.950 . S
C143 C152 1.390 . S
C144 C143 1.387 1_545 S
C144 C146 1.387 . S
H145 C152 0.950 . S
C146 C144 1.387 . S
C146 C148 1.390 . S
C146 H150 0.950 . S
H147 C143 0.950 . S
C148 C146 1.390 . S
C148 C149 1.387 . S
C148 H151 0.950 . S
C149 C148 1.387 . S
C149 C152 1.387 1_545 S
H150 C146 0.950 . S
H151 C148 0.950 . S
C152 C143 1.390 . S
C152 H145 0.950 . S
C152 C149 1.387 1_565 S
C153 C154 1.387 . S
C153 H157 0.950 . S
C153 C162 1.390 . S
C154 C153 1.387 . S
C154 C156 1.387 1_455 S
H155 C162 0.950 . S
C156 C154 1.387 1_655 S
C156 C158 1.390 . S
C156 H160 0.950 . S
H157 C153 0.950 . S
C158 C156 1.390 . S
C158 C159 1.387 1_655 S
C158 H161 0.950 . S
C159 C158 1.387 1_455 S
C159 C162 1.387 . S
H160 C156 0.950 . S
H161 C158 0.950 . S
C162 C153 1.390 . S
C162 H155 0.950 . S
C162 C159 1.387 . S
C163 C164 1.387 1_545 S
C163 H167 0.950 . S
C163 C172 1.390 . S
C164 C163 1.387 1_565 S
C164 C166 1.387 . S
H165 C172 0.950 . S
C166 C164 1.387 . S
C166 C168 1.390 . S
C166 H170 0.950 . S
H167 C163 0.950 . S
C168 C166 1.390 . S
C168 C169 1.387 . S
C168 H171 0.950 . S
C169 C168 1.387 . S
C169 C172 1.387 1_565 S
H170 C166 0.950 . S
H171 C168 0.950 . S
C172 C163 1.390 . S
C172 H165 0.950 . S
C172 C169 1.387 1_545 S
C173 C174 1.387 . S
C173 H177 0.950 . S
C173 C182 1.390 . S
C174 C173 1.387 . S
C174 C176 1.387 1_556 S
H175 C182 0.950 . S
C176 C174 1.387 1_554 S
C176 C178 1.390 . S
C176 H180 0.950 . S
H177 C173 0.950 . S
C178 C176 1.390 . S
C178 C179 1.387 1_554 S
C178 H181 0.950 . S
C179 C178 1.387 1_556 S
C179 C182 1.387 . S
H180 C176 0.950 . S
H181 C178 0.950 . S
C182 C173 1.390 . S
C182 H175 0.950 . S
C182 C179 1.387 . S
C183 C184 1.387 . S
C183 H187 0.950 . S
C183 C192 1.390 . S
C184 C183 1.387 . S
C184 C186 1.387 1_556 S
H185 C192 0.950 . S
C186 C184 1.387 1_554 S
C186 C188 1.390 . S
C186 H190 0.950 . S
H187 C183 0.950 . S
C188 C186 1.390 . S
C188 C189 1.387 . S
C188 H191 0.950 . S
C189 C188 1.387 . S
C189 C192 1.387 1_554 S
H190 C186 0.950 . S
H191 C188 0.950 . S
C192 C183 1.390 . S
C192 H185 0.950 . S
C192 C189 1.387 1_556 S
C193 C194 1.387 . S
C193 H197 0.950 . S
C193 C202 1.390 . S
C194 C193 1.387 . S
C194 C196 1.387 1_556 S
H195 C202 0.950 . S
C196 C194 1.387 1_554 S
C196 C198 1.390 . S
C196 H200 0.950 . S
H197 C193 0.950 . S
C198 C196 1.390 . S
C198 C199 1.387 . S
C198 H201 0.950 . S
C199 C198 1.387 . S
C199 C202 1.387 1_554 S
H200 C196 0.950 . S
H201 C198 0.950 . S
C202 C193 1.390 . S
C202 H195 0.950 . S
C202 C199 1.387 1_556 S
C203 C204 1.387 1_556 S
C203 H207 0.950 . S
C203 C212 1.390 . S
C204 C203 1.387 1_554 S
C204 C206 1.387 . S
H205 C212 0.950 . S
C206 C204 1.387 . S
C206 C208 1.390 . S
C206 H210 0.950 . S
H207 C203 0.950 . S
C208 C206 1.390 . S
C208 C209 1.387 . S
C208 H211 0.950 . S
C209 C208 1.387 . S
C209 C212 1.387 1_554 S
H210 C206 0.950 . S
H211 C208 0.950 . S
C212 C203 1.390 . S
C212 H205 0.950 . S
C212 C209 1.387 1_556 S
C94 C89 1.113 . S
C99 C24 1.132 . S
C104 C11 1.323 1_565 S
C109 C31 1.335 . S
C114 C1 1.003 . S
C119 C86 0.973 . S
C124 C32 1.304 . S
C129 C2 1.298 . S
C134 C0 1.134 . S
C139 C63 1.115 . S
C144 C55 1.332 . S
C149 C18 1.326 1_545 S
C154 C62 0.973 . S
C159 C27 1.004 . S
C164 C58 1.304 . S
C169 C10 1.303 . S
C174 C80 1.954 . S
C179 C42 1.887 . S
C184 C64 1.422 1_556 S
C189 C33 1.384 1_554 S
C194 C41 1.384 1_556 S
C199 C72 1.421 1_554 S
C204 C73 1.954 . S
C209 C49 1.892 . S
