# Generated by pormake.
# Topology bsn, (6)-cn, num edge types: 1
# Building blocks:
#     Node 0, Type 0, BuildingBlock: MIDCAF_clean_sbu_0, # of connection points: 6
#     Node 1, Type 0, BuildingBlock: MIDCAF_clean_sbu_0, # of connection points: 6
#     Node 2, Type 0, BuildingBlock: MIDCAF_clean_sbu_0, # of connection points: 6
#     Node 3, Type 0, BuildingBlock: MIDCAF_clean_sbu_0, # of connection points: 6
#     Edge 4, Type (0, 0), BuildingBlock: AJUNOK_clean_linker_0, # of connection points: 2
#     Edge 5, Type (0, 0), BuildingBlock: AJUNOK_clean_linker_0, # of connection points: 2
#     Edge 6, Type (0, 0), BuildingBlock: AJUNOK_clean_linker_0, # of connection points: 2
#     Edge 7, Type (0, 0), BuildingBlock: AJUNOK_clean_linker_0, # of connection points: 2
#     Edge 8, Type (0, 0), BuildingBlock: AJUNOK_clean_linker_0, # of connection points: 2
#     Edge 9, Type (0, 0), BuildingBlock: AJUNOK_clean_linker_0, # of connection points: 2
#     Edge 10, Type (0, 0), BuildingBlock: AJUNOK_clean_linker_0, # of connection points: 2
#     Edge 11, Type (0, 0), BuildingBlock: AJUNOK_clean_linker_0, # of connection points: 2
#     Edge 12, Type (0, 0), BuildingBlock: AJUNOK_clean_linker_0, # of connection points: 2
#     Edge 13, Type (0, 0), BuildingBlock: AJUNOK_clean_linker_0, # of connection points: 2
#     Edge 14, Type (0, 0), BuildingBlock: AJUNOK_clean_linker_0, # of connection points: 2
#     Edge 15, Type (0, 0), BuildingBlock: AJUNOK_clean_linker_0, # of connection points: 2
# Relax obj value: 0.106
# Max RMSD: 0.165
# Mean RMSD: 0.164
data_MOF--net-bsn--node1-MIDCAF_clean_sbu_0--edge1-AJUNOK_clean_linker_0
_symmetry_space_group_name_H-M    P1
_symmetry_Int_Tables_number       1
_symmetry_cell_setting            triclinic
loop_
_symmetry_equiv_pos_as_xyz
'x, y, z'
_cell_length_a     22.588632
_cell_length_b     22.618756
_cell_length_c     11.608492
_cell_angle_alpha  89.8895
_cell_angle_beta   101.57362
_cell_angle_gamma 91.707085
loop_
_atom_site_label
_atom_site_type_symbol
_atom_site_fract_x
_atom_site_fract_y
_atom_site_fract_z
_atom_type_partial_charge
Zn0 Zn 0.96918 0.18364 0.24868 0.0
Zn1 Zn 0.1229 0.3184 0.44807 0.0
Zn2 Zn 0.04257 0.25573 0.34108 0.0
C3 C 0.03422 0.39338 0.34583 0.0
C4 C 0.17592 0.26365 0.29555 0.0
O5 O 0.04576 0.17472 0.45794 0.0
O6 O 0.99995 0.10984 0.32587 0.0
C7 C 0.90285 0.27699 0.29269 0.0
O8 O 0.00386 0.34427 0.34608 0.0
O9 O 0.09126 0.39305 0.36917 0.0
O10 O 0.19163 0.28243 0.39947 0.0
O11 O 0.11943 0.25741 0.24769 0.0
O12 O 0.89723 0.2213 0.28722 0.0
O13 O 0.9555 0.30209 0.30229 0.0
O14 O 0.06776 0.23483 0.17071 0.0
O15 O 0.98018 0.19406 0.08629 0.0
C16 C 0.03135 0.21516 0.0777 0.0
O17 O 0.06404 0.22469 0.52415 0.0
O18 O 0.11332 0.30365 0.61138 0.0
C19 C 0.03148 0.12055 0.42638 0.0
C20 C 0.08712 0.25418 0.61837 0.0
Zn21 Zn 0.91853 0.80687 0.47199 0.0
Zn22 Zn 0.07397 0.68704 0.68022 0.0
Zn23 Zn 0.00147 0.75287 0.58884 0.0
C24 C 0.14243 0.78157 0.6447 0.0
C25 C 0.0116 0.61965 0.50761 0.0
O26 O 0.92186 0.74882 0.67685 0.0
O27 O 0.84953 0.76776 0.52389 0.0
C28 C 0.00863 0.88984 0.57678 0.0
O29 O 0.09007 0.80363 0.64113 0.0
O30 O 0.1464 0.72622 0.63643 0.0
O31 O 0.04044 0.61065 0.61033 0.0
O32 O 0.00078 0.67318 0.47301 0.0
O33 O 0.95184 0.88475 0.54373 0.0
O34 O 0.04061 0.84327 0.58738 0.0
O35 O 0.98358 0.72093 0.40373 0.0
O36 O 0.92605 0.79016 0.30892 0.0
C37 C 0.95661 0.74466 0.30681 0.0
O38 O 0.97332 0.72645 0.75437 0.0
O39 O 0.06414 0.69969 0.84282 0.0
C40 C 0.86519 0.75064 0.6285 0.0
C41 C 0.01062 0.71155 0.84843 0.0
Zn42 Zn 0.44474 0.68656 0.78744 0.0
Zn43 Zn 0.59742 0.80969 0.98564 0.0
Zn44 Zn 0.52243 0.75106 0.88127 0.0
C45 C 0.55839 0.74943 0.15621 0.0
C46 C 0.52056 0.89042 0.88001 0.0
O47 O 0.5522 0.72868 0.71888 0.0
O48 O 0.46269 0.69436 0.62862 0.0
C49 C 0.49813 0.6153 0.95787 0.0
O50 O 0.53905 0.71711 0.06402 0.0
O51 O 0.58067 0.8003 0.14427 0.0
O52 O 0.57713 0.88547 0.90371 0.0
O53 O 0.48665 0.84351 0.88175 0.0
O54 O 0.46272 0.60987 0.85974 0.0
O55 O 0.52074 0.66718 -0.00775 0.0
O56 O 0.43636 0.80247 0.82955 0.0
O57 O 0.37244 0.72612 0.81504 0.0
C58 C 0.3816 0.78135 0.81569 0.0
O59 O 0.6052 0.74806 0.79943 0.0
O60 O 0.67063 0.77283 0.96041 0.0
C61 C 0.51631 0.70992 0.62463 0.0
C62 C 0.66054 0.75386 0.85624 0.0
Zn63 Zn 0.59116 0.17578 0.2321 0.0
Zn64 Zn 0.38479 0.34105 0.93271 0.0
Zn65 Zn 0.52233 0.24806 0.13919 0.0
C66 C 0.45132 0.24492 0.83786 0.0
C67 C 0.51568 0.37088 0.09135 0.0
O68 O 0.4935 0.21983 0.30615 0.0
O69 O 0.577 0.17774 0.3953 0.0
C70 C 0.52223 0.12236 0.03004 0.0
O71 O 0.48487 0.23608 0.94157 0.0
O72 O 0.40909 0.28266 0.81839 0.0
O73 O 0.46845 0.341 0.04536 0.0
O74 O 0.55961 0.34037 0.14415 0.0
O75 O 0.55299 0.1092 0.12942 0.0
O76 O 0.51171 0.17697 0.00469 0.0
O77 O 0.60881 0.2993 0.18301 0.0
O78 O 0.66452 0.21997 0.20442 0.0
C79 C 0.66077 0.27556 0.19797 0.0
O80 O 0.44737 0.24337 0.22964 0.0
O81 O 0.42032 0.29939 0.08094 0.0
C82 C 0.52597 0.19769 0.39973 0.0
C83 C 0.40488 0.2702 0.16323 0.0
C84 C 0.96999 0.46181 0.42854 0.0
C85 C 0.00604 0.45143 0.34564 0.0
C86 C 0.96543 0.51918 0.47111 0.0
C87 C 0.99533 0.56786 0.4297 0.0
H88 H 0.95161 0.42498 0.47141 0.0
H89 H 0.94331 0.52465 0.54489 0.0
S90 S 0.08235 0.56542 0.19189 0.0
N91 N 0.06299 0.49535 0.20866 0.0
N92 N 0.05263 0.60337 0.28659 0.0
C93 C 0.02398 0.55906 0.33505 0.0
C94 C 0.02972 0.50058 0.2933 0.0
C95 C 0.76705 0.78004 0.84586 0.0
C96 C 0.71361 0.74652 0.80101 0.0
C97 C 0.81784 0.77779 0.79443 0.0
C98 C 0.81721 0.74198 0.69609 0.0
H99 H 0.76928 0.80989 0.91959 0.0
H100 H 0.85685 0.80624 0.82867 0.0
S101 S 0.69255 0.64014 0.55286 0.0
N102 N 0.66623 0.6715 0.66009 0.0
N103 N 0.7611 0.66934 0.55939 0.0
C104 C 0.76527 0.70661 0.6525 0.0
C105 C 0.71362 0.70828 0.70603 0.0
C106 C 0.46211 0.4659 0.06865 0.0
C107 C 0.51713 0.43661 0.08131 0.0
C108 C 0.45829 0.5263 0.04284 0.0
C109 C 0.50925 0.56056 0.02858 0.0
H110 H 0.42079 0.44139 0.0739 0.0
H111 H 0.41403 0.54558 0.02582 0.0
S112 S 0.66525 0.50684 0.06188 0.0
N113 N 0.62505 0.44762 0.0869 0.0
N114 N 0.61748 0.56158 0.03589 0.0
C115 C 0.56547 0.53302 0.04861 0.0
C116 C 0.56952 0.47097 0.07573 0.0
C117 C 0.814 0.31123 0.36397 0.0
C118 C 0.84676 0.31026 0.27321 0.0
C119 C 0.75056 0.31157 0.3384 0.0
C120 C 0.71815 0.31011 0.2214 0.0
H121 H 0.83689 0.30402 0.45406 0.0
H122 H 0.72684 0.30454 0.40995 0.0
S123 S 0.78348 0.31896 0.95394 0.0
N124 N 0.84285 0.31805 0.06341 0.0
N125 N 0.72353 0.31746 0.01552 0.0
C126 C 0.75062 0.31737 0.13111 0.0
C127 C 0.81518 0.31768 0.15712 0.0
C128 C 0.32187 0.2142 0.2318 0.0
C129 C 0.34144 0.2645 0.17687 0.0
C130 C 0.2643 0.21093 0.25936 0.0
C131 C 0.224 0.25708 0.2296 0.0
H132 H 0.35195 0.17797 0.25721 0.0
H133 H 0.25259 0.17378 0.31038 0.0
S134 S 0.25046 0.39543 0.07469 0.0
N135 N 0.31406 0.35964 0.08642 0.0
N136 N 0.20506 0.35223 0.13522 0.0
C137 C 0.24104 0.30537 0.16663 0.0
C138 C 0.3 0.30932 0.14042 0.0
C139 C 0.28557 0.82032 0.85089 0.0
C140 C 0.32738 0.81688 0.77629 0.0
C141 C 0.22289 0.82027 0.80504 0.0
C142 C 0.19999 0.81558 0.68319 0.0
H143 H 0.30081 0.81523 0.94491 0.0
H144 H 0.19238 0.81541 0.8658 0.0
S145 S 0.29071 0.81662 0.45072 0.0
N146 N 0.34158 0.81904 0.57479 0.0
N147 N 0.22411 0.8167 0.48906 0.0
C148 C 0.24141 0.81993 0.60797 0.0
C149 C 0.30513 0.8213 0.65456 0.0
C150 C 0.46091 0.96931 0.94975 0.0
C151 C 0.49808 0.9517 0.87318 0.0
C152 C 0.462 0.02857 -0.01228 0.0
C153 C 0.49961 0.07224 0.94944 0.0
H154 H 0.4368 0.93626 -0.00826 0.0
H155 H 0.43833 0.03892 0.05731 0.0
S156 S 0.59566 0.0506 0.73045 0.0
N157 N 0.5652 0.98438 0.7448 0.0
N158 N 0.56804 0.09476 0.8184 0.0
C159 C 0.53079 0.05641 0.86188 0.0
C160 C 0.5296 0.99635 0.82288 0.0
C161 C 0.07503 0.96531 0.50572 0.0
C162 C 0.0356 0.95042 0.58141 0.0
C163 C 0.08021 0.02389 0.46706 0.0
C164 C 0.04727 0.06945 0.50491 0.0
H165 H 0.09618 0.93076 0.46516 0.0
H166 H 0.10536 0.03244 0.39819 0.0
S167 S 0.94787 0.05485 0.72147 0.0
N168 N 0.97064 0.98704 0.70684 0.0
N169 N 0.98116 0.09685 0.63514 0.0
C170 C 0.01399 0.0562 0.5918 0.0
C171 C 0.00807 0.99663 0.63004 0.0
C172 C 0.10635 0.22853 0.94554 0.0
C173 C 0.04621 0.22001 0.95925 0.0
C174 C 0.12005 0.237 0.83382 0.0
C175 C 0.07408 0.23608 0.7323 0.0
H176 H 0.14295 0.22939 0.02136 0.0
H177 H 0.16669 0.24535 0.82691 0.0
S178 S 0.90931 0.22004 0.71936 0.0
N179 N 0.94008 0.21376 0.86015 0.0
N180 N 0.96648 0.22945 0.65163 0.0
C181 C 0.01405 0.22721 0.74418 0.0
C182 C 0.99993 0.21905 0.85732 0.0
C183 C 0.03991 0.73562 0.06025 0.0
C184 C 0.99525 0.71427 0.96577 0.0
C185 C 0.02771 0.7416 0.17273 0.0
C186 C 0.97046 0.72649 0.19462 0.0
H187 H 0.08425 0.74965 0.04648 0.0
H188 H 0.06249 0.76064 0.24189 0.0
S189 S 0.84205 0.65736 0.98505 0.0
N190 N 0.89466 0.6693 0.90632 0.0
N191 N 0.87079 0.68308 0.11837 0.0
C192 C 0.92624 0.7023 0.10325 0.0
C193 C 0.93889 0.6955 -0.01162 0.0
C194 C 0.58868 0.76072 0.37369 0.0
C195 C 0.55362 0.7303 0.27617 0.0
C196 C 0.57885 0.75159 0.48766 0.0
C197 C 0.53411 0.71107 0.50886 0.0
H198 H 0.62251 0.79384 0.36155 0.0
H199 H 0.60458 0.77851 0.55849 0.0
S200 S 0.4342 0.6155 0.28678 0.0
N201 N 0.47481 0.65543 0.21019 0.0
N202 N 0.45811 0.63608 0.42497 0.0
C203 C 0.50146 0.67745 0.4135 0.0
C204 C 0.51091 0.68741 0.29707 0.0
C205 C 0.44582 0.20146 0.52114 0.0
C206 C 0.50726 0.20118 0.5148 0.0
C207 C 0.42779 0.21113 0.62826 0.0
C208 C 0.47063 0.22125 0.73297 0.0
H209 H 0.4114 0.19554 0.44257 0.0
H210 H 0.37992 0.21311 0.62825 0.0
S211 S 0.63749 0.22725 0.76304 0.0
N212 N 0.61116 0.21178 0.62294 0.0
N213 N 0.57738 0.23186 0.8228 0.0
C214 C 0.5323 0.21991 0.72827 0.0
C215 C 0.5506 0.20935 0.61961 0.0
loop_
_geom_bond_atom_site_label_1
_geom_bond_atom_site_label_2
_geom_bond_distance
_geom_bond_site_symmetry_2
_ccdc_geom_bond_type
Zn0 O6 1.920 . S
Zn0 O12 1.898 . S
Zn0 O15 1.905 . S
Zn1 O9 1.905 . S
Zn1 O10 1.898 . S
Zn1 O18 1.920 . S
Zn2 O5 2.080 . S
Zn2 O8 2.114 . S
Zn2 O11 2.120 . S
Zn2 O13 2.120 1_455 S
Zn2 O14 2.114 . S
Zn2 O17 2.080 . S
C3 O8 1.166 . S
C3 O9 1.182 . S
C4 O10 1.167 . S
C4 O11 1.299 . S
O5 Zn2 2.080 . S
O5 C19 1.305 . S
O6 Zn0 1.920 . S
O6 C19 1.234 1_655 S
C7 O12 1.167 . S
C7 O13 1.299 . S
O8 Zn2 2.114 . S
O8 C3 1.166 . S
O9 Zn1 1.905 . S
O9 C3 1.182 . S
O10 Zn1 1.898 . S
O10 C4 1.167 . S
O11 Zn2 2.120 . S
O11 C4 1.299 . S
O12 Zn0 1.898 . S
O12 C7 1.167 . S
O13 Zn2 2.120 1_655 S
O13 C7 1.299 . S
O14 Zn2 2.114 . S
O14 C16 1.166 . S
O15 Zn0 1.905 . S
O15 C16 1.182 1_655 S
C16 O14 1.166 . S
C16 O15 1.182 1_455 S
O17 Zn2 2.080 . S
O17 C20 1.305 . S
O18 Zn1 1.920 . S
O18 C20 1.234 . S
C19 O5 1.305 . S
C19 O6 1.234 1_455 S
C20 O17 1.305 . S
C20 O18 1.234 . S
Zn21 O27 1.920 . S
Zn21 O33 1.898 . S
Zn21 O36 1.905 . S
Zn22 O30 1.905 . S
Zn22 O31 1.898 . S
Zn22 O39 1.920 . S
Zn23 O26 2.080 1_455 S
Zn23 O29 2.114 . S
Zn23 O32 2.120 . S
Zn23 O34 2.120 . S
Zn23 O35 2.114 . S
Zn23 O38 2.080 . S
C24 O29 1.166 . S
C24 O30 1.182 . S
C25 O31 1.167 . S
C25 O32 1.299 . S
O26 Zn23 2.080 1_655 S
O26 C40 1.305 . S
O27 Zn21 1.920 . S
O27 C40 1.234 . S
C28 O33 1.167 1_455 S
C28 O34 1.299 . S
O29 Zn23 2.114 . S
O29 C24 1.166 . S
O30 Zn22 1.905 . S
O30 C24 1.182 . S
O31 Zn22 1.898 . S
O31 C25 1.167 . S
O32 Zn23 2.120 . S
O32 C25 1.299 . S
O33 Zn21 1.898 . S
O33 C28 1.167 1_655 S
O34 Zn23 2.120 . S
O34 C28 1.299 . S
O35 Zn23 2.114 . S
O35 C37 1.166 1_455 S
O36 Zn21 1.905 . S
O36 C37 1.182 . S
C37 O35 1.166 1_655 S
C37 O36 1.182 . S
O38 Zn23 2.080 . S
O38 C41 1.305 . S
O39 Zn22 1.920 . S
O39 C41 1.234 . S
C40 O26 1.305 . S
C40 O27 1.234 . S
C41 O38 1.305 . S
C41 O39 1.234 . S
Zn42 O48 1.920 . S
Zn42 O54 1.898 . S
Zn42 O57 1.905 . S
Zn43 O51 1.905 . S
Zn43 O52 1.898 . S
Zn43 O60 1.920 1_554 S
Zn44 O47 2.080 . S
Zn44 O50 2.114 1_556 S
Zn44 O53 2.120 . S
Zn44 O55 2.120 . S
Zn44 O56 2.114 . S
Zn44 O59 2.080 . S
C45 O50 1.166 . S
C45 O51 1.182 . S
C46 O52 1.167 1_556 S
C46 O53 1.299 . S
O47 Zn44 2.080 . S
O47 C61 1.305 . S
O48 Zn42 1.920 . S
O48 C61 1.234 . S
C49 O54 1.167 . S
C49 O55 1.299 . S
O50 Zn44 2.114 1_554 S
O50 C45 1.166 . S
O51 Zn43 1.905 . S
O51 C45 1.182 . S
O52 Zn43 1.898 . S
O52 C46 1.167 1_554 S
O53 Zn44 2.120 . S
O53 C46 1.299 . S
O54 Zn42 1.898 . S
O54 C49 1.167 . S
O55 Zn44 2.120 . S
O55 C49 1.299 . S
O56 Zn44 2.114 . S
O56 C58 1.166 . S
O57 Zn42 1.905 . S
O57 C58 1.182 . S
C58 O56 1.166 . S
C58 O57 1.182 . S
O59 Zn44 2.080 . S
O59 C62 1.305 . S
O60 Zn43 1.920 1_556 S
O60 C62 1.234 . S
C61 O47 1.305 . S
C61 O48 1.234 . S
C62 O59 1.305 . S
C62 O60 1.234 . S
Zn63 O69 1.920 . S
Zn63 O75 1.898 . S
Zn63 O78 1.905 . S
Zn64 O72 1.905 . S
Zn64 O73 1.898 . S
Zn64 O81 1.920 1_556 S
Zn65 O68 2.080 . S
Zn65 O71 2.114 1_554 S
Zn65 O74 2.120 . S
Zn65 O76 2.120 . S
Zn65 O77 2.114 . S
Zn65 O80 2.080 . S
C66 O71 1.166 . S
C66 O72 1.182 . S
C67 O73 1.167 1_554 S
C67 O74 1.299 . S
O68 Zn65 2.080 . S
O68 C82 1.305 . S
O69 Zn63 1.920 . S
O69 C82 1.234 . S
C70 O75 1.167 . S
C70 O76 1.299 . S
O71 Zn65 2.114 1_556 S
O71 C66 1.166 . S
O72 Zn64 1.905 . S
O72 C66 1.182 . S
O73 Zn64 1.898 . S
O73 C67 1.167 1_556 S
O74 Zn65 2.120 . S
O74 C67 1.299 . S
O75 Zn63 1.898 . S
O75 C70 1.167 . S
O76 Zn65 2.120 . S
O76 C70 1.299 . S
O77 Zn65 2.114 . S
O77 C79 1.166 . S
O78 Zn63 1.905 . S
O78 C79 1.182 . S
C79 O77 1.166 . S
C79 O78 1.182 . S
O80 Zn65 2.080 . S
O80 C83 1.305 . S
O81 Zn64 1.920 1_554 S
O81 C83 1.234 . S
C82 O68 1.305 . S
C82 O69 1.234 . S
C83 O80 1.305 . S
C83 O81 1.234 . S
C84 C85 1.369 . S
C84 C86 1.419 . S
C84 H88 0.930 . S
C85 C84 1.369 . S
C85 C94 1.429 . S
C86 C84 1.419 . S
C86 C87 1.363 . S
C86 H89 0.929 . S
C87 C86 1.363 . S
C87 C93 1.428 . S
H88 C84 0.930 . S
H89 C86 0.929 . S
S90 N91 1.613 . S
S90 N92 1.613 . S
N91 S90 1.613 . S
N91 C94 1.350 1_655 S
N92 S90 1.613 . S
N92 C93 1.349 1_655 S
C93 C87 1.428 . S
C93 N92 1.349 1_455 S
C93 C94 1.434 . S
C94 C85 1.429 . S
C94 N91 1.350 1_455 S
C94 C93 1.434 . S
C95 C96 1.369 . S
C95 C97 1.419 . S
C95 H99 0.930 . S
C96 C95 1.369 . S
C96 C105 1.429 . S
C97 C95 1.419 . S
C97 C98 1.363 . S
C97 H100 0.929 . S
C98 C97 1.363 . S
C98 C104 1.428 . S
H99 C95 0.930 . S
H100 C97 0.929 . S
S101 N102 1.613 . S
S101 N103 1.610 . S
N102 S101 1.613 . S
N102 C105 1.350 . S
N103 S101 1.610 . S
N103 C104 1.351 . S
C104 C98 1.428 . S
C104 N103 1.351 . S
C104 C105 1.434 . S
C105 C96 1.429 . S
C105 N102 1.350 . S
C105 C104 1.434 . S
C106 C107 1.369 . S
C106 C108 1.419 . S
C106 H110 0.930 . S
C107 C106 1.369 . S
C107 C116 1.429 1_554 S
C108 C106 1.419 . S
C108 C109 1.363 1_554 S
C108 H111 0.929 . S
C109 C108 1.363 1_556 S
C109 C115 1.428 . S
H110 C106 0.930 . S
H111 C108 0.929 . S
S112 N113 1.613 . S
S112 N114 1.610 . S
N113 S112 1.613 . S
N113 C116 1.350 . S
N114 S112 1.610 . S
N114 C115 1.351 . S
C115 C109 1.428 . S
C115 N114 1.351 . S
C115 C116 1.434 . S
C116 C107 1.429 1_556 S
C116 N113 1.350 . S
C116 C115 1.434 . S
C117 C118 1.369 . S
C117 C119 1.419 . S
C117 H121 0.930 . S
C118 C117 1.369 . S
C118 C127 1.429 . S
C119 C117 1.419 . S
C119 C120 1.363 . S
C119 H122 0.929 . S
C120 C119 1.363 . S
C120 C126 1.428 . S
H121 C117 0.930 . S
H122 C119 0.929 . S
S123 N124 1.613 . S
S123 N125 1.610 . S
N124 S123 1.613 . S
N124 C127 1.350 . S
N125 S123 1.610 . S
N125 C126 1.351 . S
C126 C120 1.428 . S
C126 N125 1.351 . S
C126 C127 1.434 . S
C127 C118 1.429 . S
C127 N124 1.350 . S
C127 C126 1.434 . S
C128 C129 1.369 . S
C128 C130 1.419 . S
C128 H132 0.930 . S
C129 C128 1.369 . S
C129 C138 1.429 . S
C130 C128 1.419 . S
C130 C131 1.363 . S
C130 H133 0.929 . S
C131 C130 1.363 . S
C131 C137 1.428 . S
H132 C128 0.930 . S
H133 C130 0.929 . S
S134 N135 1.613 . S
S134 N136 1.610 . S
N135 S134 1.613 . S
N135 C138 1.350 . S
N136 S134 1.610 . S
N136 C137 1.351 . S
C137 C131 1.428 . S
C137 N136 1.351 . S
C137 C138 1.434 . S
C138 C129 1.429 . S
C138 N135 1.350 . S
C138 C137 1.434 . S
C139 C140 1.369 . S
C139 C141 1.419 . S
C139 H143 0.930 . S
C140 C139 1.369 . S
C140 C149 1.429 . S
C141 C139 1.419 . S
C141 C142 1.363 . S
C141 H144 0.929 . S
C142 C141 1.363 . S
C142 C148 1.428 . S
H143 C139 0.930 . S
H144 C141 0.929 . S
S145 N146 1.613 . S
S145 N147 1.610 . S
N146 S145 1.613 . S
N146 C149 1.350 . S
N147 S145 1.610 . S
N147 C148 1.351 . S
C148 C142 1.428 . S
C148 N147 1.351 . S
C148 C149 1.434 . S
C149 C140 1.429 . S
C149 N146 1.350 . S
C149 C148 1.434 . S
C150 C151 1.369 1_554 S
C150 C152 1.419 1_565 S
C150 H154 0.930 . S
C151 C150 1.369 1_556 S
C151 C160 1.429 . S
C152 C150 1.419 1_545 S
C152 C153 1.363 . S
C152 H155 0.929 . S
C153 C152 1.363 . S
C153 C159 1.428 1_554 S
H154 C150 0.930 . S
H155 C152 0.929 . S
S156 N157 1.613 1_545 S
S156 N158 1.610 . S
N157 S156 1.613 1_565 S
N157 C160 1.350 . S
N158 S156 1.610 . S
N158 C159 1.351 . S
C159 C153 1.428 1_556 S
C159 N158 1.351 . S
C159 C160 1.434 1_545 S
C160 C151 1.429 . S
C160 N157 1.350 . S
C160 C159 1.434 1_565 S
C161 C162 1.369 1_655 S
C161 C163 1.419 1_565 S
C161 H165 0.930 . S
C162 C161 1.369 1_455 S
C162 C171 1.429 . S
C163 C161 1.419 1_545 S
C163 C164 1.363 1_655 S
C163 H166 0.929 . S
C164 C163 1.363 1_455 S
C164 C170 1.428 . S
H165 C161 0.930 . S
H166 C163 0.929 . S
S167 N168 1.613 1_545 S
S167 N169 1.610 . S
N168 S167 1.613 1_565 S
N168 C171 1.350 . S
N169 S167 1.610 . S
N169 C170 1.351 . S
C170 C164 1.428 . S
C170 N169 1.351 . S
C170 C171 1.434 1_545 S
C171 C162 1.429 . S
C171 N168 1.350 . S
C171 C170 1.434 1_565 S
C172 C173 1.369 1_556 S
C172 C174 1.419 . S
C172 H176 0.933 . S
C173 C172 1.369 1_554 S
C173 C182 1.429 1_554 S
C174 C172 1.419 . S
C174 C175 1.363 . S
C174 H177 0.929 . S
C175 C174 1.363 . S
C175 C181 1.428 . S
H176 C172 0.933 . S
H177 C174 0.929 . S
S178 N179 1.613 1_655 S
S178 N180 1.610 1_655 S
N179 S178 1.613 1_455 S
N179 C182 1.350 . S
N180 S178 1.610 1_455 S
N180 C181 1.351 . S
C181 C175 1.428 . S
C181 N180 1.351 . S
C181 C182 1.434 . S
C182 C173 1.429 1_556 S
C182 N179 1.350 . S
C182 C181 1.434 . S
C183 C184 1.369 1_454 S
C183 C185 1.419 . S
C183 H187 0.930 . S
C184 C183 1.369 1_656 S
C184 C193 1.429 1_556 S
C185 C183 1.419 . S
C185 C186 1.363 1_455 S
C185 H188 0.929 . S
C186 C185 1.363 1_655 S
C186 C192 1.428 . S
H187 C183 0.930 . S
H188 C185 0.929 . S
S189 N190 1.613 1_554 S
S189 N191 1.610 . S
N190 S189 1.613 1_556 S
N190 C193 1.350 1_556 S
N191 S189 1.610 . S
N191 C192 1.351 . S
C192 C186 1.428 . S
C192 N191 1.351 . S
C192 C193 1.434 . S
C193 C184 1.429 1_554 S
C193 N190 1.350 1_554 S
C193 C192 1.434 . S
C194 C195 1.369 . S
C194 C196 1.419 . S
C194 H198 0.930 . S
C195 C194 1.369 . S
C195 C204 1.429 . S
C196 C194 1.419 . S
C196 C197 1.363 . S
C196 H199 0.929 . S
C197 C196 1.363 . S
C197 C203 1.428 . S
H198 C194 0.930 . S
H199 C196 0.929 . S
S200 N201 1.613 . S
S200 N202 1.610 . S
N201 S200 1.613 . S
N201 C204 1.350 . S
N202 S200 1.610 . S
N202 C203 1.351 . S
C203 C197 1.428 . S
C203 N202 1.351 . S
C203 C204 1.434 . S
C204 C195 1.429 . S
C204 N201 1.350 . S
C204 C203 1.434 . S
C205 C206 1.369 . S
C205 C207 1.419 . S
C205 H209 0.930 . S
C206 C205 1.369 . S
C206 C215 1.429 . S
C207 C205 1.419 . S
C207 C208 1.363 . S
C207 H210 0.929 . S
C208 C207 1.363 . S
C208 C214 1.428 . S
H209 C205 0.930 . S
H210 C207 0.929 . S
S211 N212 1.613 . S
S211 N213 1.610 . S
N212 S211 1.613 . S
N212 C215 1.350 . S
N213 S211 1.610 . S
N213 C214 1.351 . S
C214 C208 1.428 . S
C214 N213 1.351 . S
C214 C215 1.434 . S
C215 C206 1.429 . S
C215 N212 1.350 . S
C215 C214 1.434 . S
C85 C3 1.361 . S
C87 C25 1.554 . S
C96 C62 1.352 . S
C98 C40 1.346 . S
C107 C67 1.320 . S
C109 C49 1.530 . S
C118 C7 1.575 . S
C120 C79 1.591 . S
C129 C83 1.343 . S
C131 C4 1.344 . S
C140 C58 1.587 . S
C142 C24 1.598 . S
C151 C46 1.334 . S
C153 C70 1.542 . S
C162 C28 1.334 . S
C164 C19 1.542 . S
C173 C16 1.222 . S
C175 C20 1.215 . S
C184 C41 1.225 1_655 S
C186 C37 1.205 . S
C195 C45 1.215 . S
C197 C61 1.214 . S
C206 C82 1.213 . S
C208 C66 1.208 . S
