# Generated by pormake.
# Topology sxc, (6)-cn, num edge types: 1
# Building blocks:
#     Node 0, Type 0, BuildingBlock: CIFDUS_clean_sbu_1, # of connection points: 6
#     Node 1, Type 0, BuildingBlock: CIFDUS_clean_sbu_1, # of connection points: 6
#     Node 2, Type 0, BuildingBlock: CIFDUS_clean_sbu_1, # of connection points: 6
#     Edge 3, Type (0, 0), BuildingBlock: EYOCIG_clean_linker_4, # of connection points: 2
#     Edge 4, Type (0, 0), BuildingBlock: EYOCIG_clean_linker_4, # of connection points: 2
#     Edge 5, Type (0, 0), BuildingBlock: EYOCIG_clean_linker_4, # of connection points: 2
#     Edge 6, Type (0, 0), BuildingBlock: EYOCIG_clean_linker_4, # of connection points: 2
#     Edge 7, Type (0, 0), BuildingBlock: EYOCIG_clean_linker_4, # of connection points: 2
#     Edge 8, Type (0, 0), BuildingBlock: EYOCIG_clean_linker_4, # of connection points: 2
#     Edge 9, Type (0, 0), BuildingBlock: EYOCIG_clean_linker_4, # of connection points: 2
#     Edge 10, Type (0, 0), BuildingBlock: EYOCIG_clean_linker_4, # of connection points: 2
#     Edge 11, Type (0, 0), BuildingBlock: EYOCIG_clean_linker_4, # of connection points: 2
# Relax obj value: 0.113
# Max RMSD: 0.158
# Mean RMSD: 0.150
data_MOF--net-sxc--node1-CIFDUS_clean_sbu_1--edge1-EYOCIG_clean_linker_4
_symmetry_space_group_name_H-M    P1
_symmetry_Int_Tables_number       1
_symmetry_cell_setting            triclinic
loop_
_symmetry_equiv_pos_as_xyz
'x, y, z'
_cell_length_a     12.489676
_cell_length_b     12.501377
_cell_length_c     35.42667
_cell_angle_alpha  103.1509
_cell_angle_beta   90.043088
_cell_angle_gamma 119.9765
loop_
_atom_site_label
_atom_site_type_symbol
_atom_site_fract_x
_atom_site_fract_y
_atom_site_fract_z
_atom_type_partial_charge
O0 O 0.14509 0.23865 0.04474 0.0
Mn1 Mn 0.96007 0.09757 0.04666 0.0
O2 O 0.18773 0.3989 0.09846 0.0
Mn3 Mn 0.04149 0.31607 0.11925 0.0
O4 O 0.7751 0.95993 0.05117 0.0
O5 O 0.93645 0.04424 0.98585 0.0
Mn6 Mn 0.82249 0.87912 0.97405 0.0
O7 O 0.00392 0.95645 0.04856 0.0
O8 O 0.67518 0.85373 0.99095 0.0
O9 O 0.91278 0.23524 0.04214 0.0
O10 O 0.91972 0.34176 0.10236 0.0
O11 O 0.85449 0.90831 0.9267 0.0
O12 O 0.88579 0.79618 0.99486 0.0
C13 C 0.00617 0.1717 0.14571 0.0
C14 C 0.21498 0.35402 0.06645 0.0
C15 C 0.67562 0.87505 1.02752 0.0
C16 C 0.93176 0.02346 0.94761 0.0
C17 C 0.95817 0.84104 1.02685 0.0
C18 C 0.89846 0.32025 0.06579 0.0
O19 O 0.98999 0.15089 0.10746 0.0
O20 O 0.04437 0.28691 0.16661 0.0
O21 O 0.24917 0.21192 0.36886 0.0
Mn22 Mn 0.20413 0.02791 0.37197 0.0
O23 O 0.20738 0.29932 0.42541 0.0
Mn24 Mn 0.14824 0.15799 0.44443 0.0
O25 O 0.15946 0.84392 0.37516 0.0
O26 O 0.17389 0.97454 0.3114 0.0
Mn27 Mn 0.24131 0.87913 0.2971 0.0
O28 O 0.3909 0.07234 0.37373 0.0
O29 O 0.16101 0.73588 0.31527 0.0
O30 O 0.01632 0.98128 0.36878 0.0
O31 O 0.98111 0.04614 0.42892 0.0
O32 O 0.18156 0.88088 0.25095 0.0
O33 O 0.40941 0.97334 0.31469 0.0
C34 C 0.2614 0.11506 0.4718 0.0
C35 C 0.23872 0.30178 0.39149 0.0
C36 C 0.14913 0.7439 0.35115 0.0
C37 C 0.14617 0.95126 0.27352 0.0
C38 C 0.4537 0.04025 0.34971 0.0
C39 C 0.94411 0.99423 0.39281 0.0
O40 O 0.23729 0.0828 0.43322 0.0
O41 O 0.21224 0.17566 0.49197 0.0
O42 O 0.41633 0.12199 0.71975 0.0
Mn43 Mn 0.27394 0.16634 0.72153 0.0
O44 O 0.53351 0.21988 0.77888 0.0
Mn45 Mn 0.46021 0.3146 0.79644 0.0
O46 O 0.13271 0.21287 0.72472 0.0
O47 O 0.25198 0.11151 0.66029 0.0
Mn48 Mn 0.08768 0.03629 0.64906 0.0
O49 O 0.13503 0.9823 0.72462 0.0
O50 O 0.03244 0.14809 0.66458 0.0
O51 O 0.41322 0.35038 0.71839 0.0
O52 O 0.52368 0.45785 0.77823 0.0
O53 O 0.13386 1.01869 0.60153 0.0
O54 O 0.00556 0.89493 0.66807 0.0
C55 C 0.29288 0.24298 0.81996 0.0
C56 C 0.51102 0.15351 0.7438 0.0
C57 C 0.04746 0.19993 0.70069 0.0
C58 C 0.24371 0.0793 0.6217 0.0
C59 C 0.03461 0.89244 0.70198 0.0
C60 C 0.50333 0.45013 0.74239 0.0
O61 O 0.2973 0.21969 0.7821 0.0
O62 O 0.39872 0.31305 0.84256 0.0
C63 C 0.92526 0.52473 0.04767 0.0
C64 C 0.91075 0.42589 0.05249 0.0
C65 C 0.95535 0.6479 0.04494 0.0
C66 C 0.96852 0.74718 0.04102 0.0
C67 C 0.65394 0.03611 0.36929 0.0
C68 C 0.56488 0.04768 0.36455 0.0
C69 C 0.74844 1.00645 0.37293 0.0
C70 C 0.83696 0.9944 0.37815 0.0
C71 C 0.83361 0.71509 0.72128 0.0
C72 C 0.93477 0.79866 0.7173 0.0
C73 C 0.70861 0.62392 0.72335 0.0
C74 C 0.60747 0.54055 0.72742 0.0
C75 C 0.83961 0.18762 0.72057 0.0
C76 C 0.94016 0.19969 0.71535 0.0
C77 C 0.71546 0.15795 0.72422 0.0
C78 C 0.61485 0.14636 0.72898 0.0
C79 C 0.49815 0.67035 0.04559 0.0
C80 C 0.5824 0.76925 0.04078 0.0
C81 C 0.40515 0.54715 0.04833 0.0
C82 C 0.31908 0.44786 0.05226 0.0
C83 C 0.21494 0.47912 0.37222 0.0
C84 C 0.23256 0.39555 0.37617 0.0
C85 C 0.18107 0.57029 0.37018 0.0
C86 C 0.1632 0.65361 0.36611 0.0
C87 C 0.03899 1.01882 0.22841 0.0
C88 C 0.08298 0.99929 0.25478 0.0
C89 C 0.00674 0.0416 0.19368 0.0
C90 C 0.99795 0.08143 0.16635 0.0
C91 C 0.37658 0.09076 0.52617 0.0
C92 C 0.33657 0.0875 0.49439 0.0
C93 C 0.38306 0.10362 0.56736 0.0
C94 C 0.34637 0.10686 0.59913 0.0
C95 C 0.11802 0.17601 0.86499 0.0
C96 C 0.1816 0.19534 0.83865 0.0
C97 C 0.06285 0.15338 0.89969 0.0
C98 C 0.01407 0.11362 0.92699 0.0
loop_
_geom_bond_atom_site_label_1
_geom_bond_atom_site_label_2
_geom_bond_distance
_geom_bond_site_symmetry_2
_ccdc_geom_bond_type
O0 Mn1 2.163 . S
O0 C14 1.244 . S
Mn1 O0 2.163 . S
Mn1 O4 2.160 1_445 S
Mn1 O5 2.221 1_554 S
Mn1 O7 2.163 1_545 S
Mn1 O9 2.160 1_455 S
Mn1 O19 2.221 . S
O2 Mn3 2.087 . S
O2 C14 1.256 . S
Mn3 O2 2.087 . S
Mn3 O10 2.089 . S
Mn3 O19 2.290 . S
Mn3 O20 2.251 . S
O4 Mn1 2.160 1_665 S
O4 C15 1.239 . S
O5 Mn1 2.221 1_556 S
O5 Mn6 2.290 1_445 S
O5 C16 1.278 . S
Mn6 O5 2.290 1_665 S
Mn6 O8 2.089 . S
Mn6 O11 2.251 1_655 S
Mn6 O12 2.087 1_655 S
O7 Mn1 2.163 1_565 S
O7 C17 1.244 . S
O8 Mn6 2.089 . S
O8 C15 1.256 1_556 S
O9 Mn1 2.160 1_655 S
O9 C18 1.239 1_655 S
O10 Mn3 2.089 . S
O10 C18 1.256 . S
O11 Mn6 2.251 1_455 S
O11 C16 1.241 1_565 S
O12 Mn6 2.087 1_455 S
O12 C17 1.256 1_556 S
C13 O19 1.278 . S
C13 O20 1.241 . S
C14 O0 1.244 . S
C14 O2 1.256 . S
C15 O4 1.239 . S
C15 O8 1.256 1_554 S
C16 O5 1.278 . S
C16 O11 1.241 1_545 S
C17 O7 1.244 . S
C17 O12 1.256 1_554 S
C18 O9 1.239 1_455 S
C18 O10 1.256 . S
O19 Mn1 2.221 . S
O19 Mn3 2.290 . S
O19 C13 1.278 . S
O20 Mn3 2.251 . S
O20 C13 1.241 . S
O21 Mn22 2.163 . S
O21 C35 1.244 . S
Mn22 O21 2.163 . S
Mn22 O25 2.160 1_545 S
Mn22 O26 2.221 1_545 S
Mn22 O28 2.163 . S
Mn22 O30 2.160 1_445 S
Mn22 O40 2.221 . S
O23 Mn24 2.087 . S
O23 C35 1.256 . S
Mn24 O23 2.087 . S
Mn24 O31 2.089 1_455 S
Mn24 O40 2.290 . S
Mn24 O41 2.251 . S
O25 Mn22 2.160 1_565 S
O25 C36 1.239 . S
O26 Mn22 2.221 1_565 S
O26 Mn27 2.290 . S
O26 C37 1.278 1_565 S
Mn27 O26 2.290 . S
Mn27 O29 2.089 . S
Mn27 O32 2.251 1_565 S
Mn27 O33 2.087 1_565 S
O28 Mn22 2.163 . S
O28 C38 1.244 . S
O29 Mn27 2.089 . S
O29 C36 1.256 . S
O30 Mn22 2.160 1_665 S
O30 C39 1.239 1_565 S
O31 Mn24 2.089 1_655 S
O31 C39 1.256 . S
O32 Mn27 2.251 1_545 S
O32 C37 1.241 . S
O33 Mn27 2.087 1_545 S
O33 C38 1.256 . S
C34 O40 1.278 . S
C34 O41 1.241 . S
C35 O21 1.244 . S
C35 O23 1.256 . S
C36 O25 1.239 . S
C36 O29 1.256 . S
C37 O26 1.278 1_545 S
C37 O32 1.241 . S
C38 O28 1.244 . S
C38 O33 1.256 . S
C39 O30 1.239 1_545 S
C39 O31 1.256 . S
O40 Mn22 2.221 . S
O40 Mn24 2.290 . S
O40 C34 1.278 . S
O41 Mn24 2.251 . S
O41 C34 1.241 . S
O42 Mn43 2.163 . S
O42 C56 1.244 . S
Mn43 O42 2.163 . S
Mn43 O46 2.160 . S
Mn43 O47 2.221 . S
Mn43 O49 2.163 1_545 S
Mn43 O51 2.160 . S
Mn43 O61 2.221 . S
O44 Mn45 2.087 . S
O44 C56 1.256 . S
Mn45 O44 2.087 . S
Mn45 O52 2.089 . S
Mn45 O61 2.290 . S
Mn45 O62 2.251 . S
O46 Mn43 2.160 . S
O46 C57 1.239 1_455 S
O47 Mn43 2.221 . S
O47 Mn48 2.290 1_445 S
O47 C58 1.278 . S
Mn48 O47 2.290 1_665 S
Mn48 O50 2.089 1_565 S
Mn48 O53 2.251 1_655 S
Mn48 O54 2.087 . S
O49 Mn43 2.163 1_565 S
O49 C59 1.244 1_455 S
O50 Mn48 2.089 1_545 S
O50 C57 1.256 . S
O51 Mn43 2.160 . S
O51 C60 1.239 . S
O52 Mn45 2.089 . S
O52 C60 1.256 . S
O53 Mn48 2.251 1_455 S
O53 C58 1.241 1_565 S
O54 Mn48 2.087 . S
O54 C59 1.256 . S
C55 O61 1.278 . S
C55 O62 1.241 . S
C56 O42 1.244 . S
C56 O44 1.256 . S
C57 O46 1.239 1_655 S
C57 O50 1.256 . S
C58 O47 1.278 . S
C58 O53 1.241 1_545 S
C59 O49 1.244 1_655 S
C59 O54 1.256 . S
C60 O51 1.239 . S
C60 O52 1.256 . S
O61 Mn43 2.221 . S
O61 Mn45 2.290 . S
O61 C55 1.278 . S
O62 Mn45 2.251 . S
O62 C55 1.241 . S
C63 C64 1.170 . S
C63 C65 1.380 . S
C64 C63 1.170 . S
C65 C63 1.380 . S
C65 C66 1.170 . S
C66 C65 1.170 . S
C67 C68 1.170 . S
C67 C69 1.380 . S
C68 C67 1.170 . S
C69 C67 1.380 . S
C69 C70 1.170 1_545 S
C70 C69 1.170 1_565 S
C71 C72 1.170 . S
C71 C73 1.380 . S
C72 C71 1.170 . S
C73 C71 1.380 . S
C73 C74 1.170 . S
C74 C73 1.170 . S
C75 C76 1.170 . S
C75 C77 1.380 . S
C76 C75 1.170 . S
C77 C75 1.380 . S
C77 C78 1.170 . S
C78 C77 1.170 . S
C79 C80 1.170 . S
C79 C81 1.380 . S
C80 C79 1.170 . S
C81 C79 1.380 . S
C81 C82 1.170 . S
C82 C81 1.170 . S
C83 C84 1.170 . S
C83 C85 1.380 . S
C84 C83 1.170 . S
C85 C83 1.380 . S
C85 C86 1.170 . S
C86 C85 1.170 . S
C87 C88 1.170 . S
C87 C89 1.380 . S
C88 C87 1.170 . S
C89 C87 1.380 . S
C89 C90 1.170 . S
C90 C89 1.170 . S
C91 C92 1.170 . S
C91 C93 1.380 . S
C92 C91 1.170 . S
C93 C91 1.380 . S
C93 C94 1.170 . S
C94 C93 1.170 . S
C95 C96 1.170 . S
C95 C97 1.380 . S
C96 C95 1.170 . S
C97 C95 1.380 . S
C97 C98 1.170 . S
C98 C97 1.170 . S
C64 C18 1.245 . S
C66 C17 1.265 . S
C68 C38 1.220 . S
C70 C39 1.262 1_565 S
C72 C59 1.257 . S
C74 C60 1.266 . S
C76 C57 1.260 . S
C78 C56 1.223 . S
C80 C15 1.248 . S
C82 C14 1.241 . S
C84 C35 1.290 . S
C86 C36 1.227 . S
C88 C37 1.364 . S
C90 C13 1.297 . S
C92 C34 1.332 . S
C94 C58 1.358 . S
C96 C55 1.302 . S
C98 C16 1.318 . S
