# Generated by pormake.
# Topology hex, (8)-cn, num edge types: 1
# Building blocks:
#     Node 0, Type 0, BuildingBlock: XADDAJ01_clean_sbu_3, # of connection points: 8
#     Edge 1, Type (0, 0), BuildingBlock: EYOCIG_clean_linker_4, # of connection points: 2
#     Edge 2, Type (0, 0), BuildingBlock: EYOCIG_clean_linker_4, # of connection points: 2
#     Edge 3, Type (0, 0), BuildingBlock: EYOCIG_clean_linker_4, # of connection points: 2
#     Edge 4, Type (0, 0), BuildingBlock: EYOCIG_clean_linker_4, # of connection points: 2
# Relax obj value: 0.034
# Max RMSD: 0.093
# Mean RMSD: 0.093
data_MOF--net-hex--node1-XADDAJ01_clean_sbu_3--edge1-EYOCIG_clean_linker_4
_symmetry_space_group_name_H-M    P1
_symmetry_Int_Tables_number       1
_symmetry_cell_setting            triclinic
loop_
_symmetry_equiv_pos_as_xyz
'x, y, z'
_cell_length_a     17.649885
_cell_length_b     15.449676
_cell_length_c     11.710961
_cell_angle_alpha  102.42651
_cell_angle_beta   110.77959
_cell_angle_gamma 110.93406
loop_
_atom_site_label
_atom_site_type_symbol
_atom_site_fract_x
_atom_site_fract_y
_atom_site_fract_z
_atom_type_partial_charge
C0 C 0.77091 0.81037 0.90624 0.0
C1 C 0.73676 0.72074 0.92675 0.0
C2 C 0.66619 0.69759 0.96216 0.0
C3 C 0.63112 0.76418 0.98057 0.0
C4 C 0.66437 0.85295 0.96048 0.0
C5 C 0.73446 0.87662 0.92408 0.0
O6 O 0.07835 0.92764 0.14305 0.0
Tb7 Tb 0.99784 0.85221 0.92859 0.0
Tb8 Tb 0.11481 0.1096 0.03731 0.0
O9 O 0.99709 0.71352 0.94277 0.0
O10 O 0.06001 0.06911 0.16841 0.0
O11 O 0.85591 0.75909 0.81379 0.0
C12 C 0.27292 0.12803 0.10831 0.0
O13 O 0.91412 0.92057 0.92758 0.0
O14 O 1.03404 0.03437 0.82289 0.0
O15 O 1.0522 0.89278 0.79707 0.0
C16 C 0.83935 0.83273 0.85736 0.0
C17 C 0.05851 0.27772 0.03948 0.0
O18 O 0.99848 0.22451 0.07105 0.0
C19 C 0.06882 -0.00086 0.21051 0.0
C20 C 1.04338 0.96281 0.75517 0.0
O21 O 0.11682 0.24877 0.02327 0.0
C22 C 0.34132 0.15067 0.05941 0.0
C23 C 0.44791 0.10853 0.00476 0.0
C24 C 0.37795 0.08463 0.04142 0.0
C25 C 0.37512 0.24029 0.03875 0.0
C26 C 0.44557 0.26369 0.00313 0.0
C27 C 0.48084 0.19732 -0.01542 0.0
C28 C 1.05236 0.68238 0.91937 0.0
O29 O 0.1086 0.73311 0.88065 0.0
O30 O 0.2568 0.20178 0.15296 0.0
O31 O 0.19788 0.0405 0.03732 0.0
H32 H 0.76264 0.6677 0.91134 0.0
H33 H 0.57544 0.74512 0.006 0.0
H34 H 0.75868 0.94483 0.90596 0.0
H35 H 0.35395 0.01641 0.05957 0.0
H36 H 0.34904 0.29314 0.05422 0.0
H37 H 0.53644 0.21656 0.95897 0.0
C38 C 0.0566 0.43773 -0.00723 0.0
C39 C 0.05696 0.36465 0.01427 0.0
C40 C 1.05544 0.52254 0.96539 0.0
C41 C 1.05474 0.59555 0.94401 0.0
C42 C 0.57842 0.95973 0.97808 0.0
C43 C 0.62064 0.9148 0.96849 0.0
C44 C 0.53409 0.00205 -0.01309 0.0
C45 C 0.49183 0.0469 -0.0034 0.0
C46 C 0.52948 0.43603 -0.01332 0.0
C47 C 0.48812 0.3591 -0.00438 0.0
C48 C 0.58184 0.52533 0.97851 0.0
C49 C 0.62335 0.60223 0.96963 0.0
C50 C 1.05315 0.97441 0.53914 0.0
C51 C 1.04907 0.9659 0.63693 0.0
C52 C 0.05918 -0.01215 0.42671 0.0
C53 C 0.0632 -0.00375 0.32884 0.0
loop_
_geom_bond_atom_site_label_1
_geom_bond_atom_site_label_2
_geom_bond_distance
_geom_bond_site_symmetry_2
_ccdc_geom_bond_type
C0 C1 1.386 . S
C0 C5 1.384 . S
C0 C16 1.497 . S
C1 C0 1.386 . S
C1 C2 1.393 1_556 S
C1 H32 0.932 . S
C2 C1 1.393 1_554 S
C2 C3 1.387 . S
C3 C2 1.387 . S
C3 C4 1.392 1_554 S
C3 H33 0.930 . S
C4 C3 1.392 1_556 S
C4 C5 1.402 . S
C5 C0 1.384 . S
C5 C4 1.402 . S
C5 H34 0.930 . S
O6 Tb7 2.288 1_554 S
O6 C19 1.257 1_665 S
Tb7 O6 2.288 1_556 S
Tb7 O9 2.303 . S
Tb7 O11 2.430 . S
Tb7 O13 2.459 . S
Tb7 O15 2.301 . S
Tb7 C16 2.808 . S
Tb8 O10 2.301 . S
Tb8 C12 2.808 . S
Tb8 O14 2.288 1_554 S
Tb8 O21 2.303 . S
Tb8 O30 2.430 . S
Tb8 O31 2.459 . S
O9 Tb7 2.303 . S
O9 C28 1.255 1_655 S
O10 Tb8 2.301 . S
O10 C19 1.237 . S
O11 Tb7 2.430 . S
O11 C16 1.248 . S
C12 Tb8 2.808 . S
C12 C22 1.497 . S
C12 O30 1.248 . S
C12 O31 1.260 . S
O13 Tb7 2.459 . S
O13 C16 1.260 . S
O14 Tb8 2.288 1_556 S
O14 C20 1.257 1_445 S
O15 Tb7 2.301 . S
O15 C20 1.237 . S
C16 C0 1.497 . S
C16 Tb7 2.808 . S
C16 O11 1.248 . S
C16 O13 1.260 . S
C17 O18 1.255 . S
C17 O21 1.255 1_655 S
O18 C17 1.255 . S
C19 O6 1.257 1_445 S
C19 O10 1.237 . S
C20 O14 1.257 1_665 S
C20 O15 1.237 . S
O21 Tb8 2.303 . S
O21 C17 1.255 1_455 S
C22 C12 1.497 . S
C22 C24 1.384 . S
C22 C25 1.386 . S
C23 C24 1.402 . S
C23 C27 1.392 1_554 S
C24 C22 1.384 . S
C24 C23 1.402 . S
C24 H35 0.930 . S
C25 C22 1.386 . S
C25 C26 1.393 1_554 S
C25 H36 0.932 . S
C26 C25 1.393 1_556 S
C26 C27 1.387 . S
C27 C23 1.392 1_556 S
C27 C26 1.387 . S
C27 H37 0.930 . S
C28 O9 1.255 1_455 S
C28 O29 1.255 . S
O29 C28 1.255 . S
O30 Tb8 2.430 . S
O30 C12 1.248 . S
O31 Tb8 2.459 . S
O31 C12 1.260 . S
H32 C1 0.932 . S
H33 C3 0.930 . S
H34 C5 0.930 . S
H35 C24 0.930 . S
H36 C25 0.932 . S
H37 C27 0.930 . S
C38 C39 1.168 1_456 S
C38 C40 1.382 . S
C39 C38 1.168 1_654 S
C40 C38 1.382 . S
C40 C41 1.170 . S
C41 C40 1.170 . S
C42 C43 1.170 . S
C42 C44 1.380 1_566 S
C43 C42 1.170 . S
C44 C42 1.380 1_544 S
C44 C45 1.170 . S
C45 C44 1.170 . S
C46 C47 1.170 . S
C46 C48 1.380 1_556 S
C47 C46 1.170 . S
C48 C46 1.380 1_554 S
C48 C49 1.170 . S
C49 C48 1.170 . S
C50 C51 1.172 . S
C50 C52 1.380 . S
C51 C50 1.172 . S
C52 C50 1.380 . S
C52 C53 1.166 1_655 S
C53 C52 1.166 1_455 S
C39 C17 0.626 . S
C41 C28 0.561 . S
C43 C4 2.016 . S
C45 C23 2.051 . S
C47 C26 1.826 . S
C49 C2 1.827 . S
C51 C20 1.482 . S
C53 C19 1.495 1_565 S
