# Generated by pormake.
# Topology pcu, (6)-cn, num edge types: 1
# Building blocks:
#     Node 0, Type 0, BuildingBlock: BETGAK_clean_sbu_0, # of connection points: 6
#     Edge 1, Type (0, 0), None
#     Edge 2, Type (0, 0), None
#     Edge 3, Type (0, 0), None
# Relax obj value: 0.000
# Max RMSD: 0.000
# Mean RMSD: 0.000
data_MOF--net-pcu--node1-BETGAK_clean_sbu_0--edge1-none
_symmetry_space_group_name_H-M    P1
_symmetry_Int_Tables_number       1
_symmetry_cell_setting            triclinic
loop_
_symmetry_equiv_pos_as_xyz
'x, y, z'
_cell_length_a     6.8310333
_cell_length_b     16.797431
_cell_length_c     5.8445019
_cell_angle_alpha  97.511761
_cell_angle_beta   84.056734
_cell_angle_gamma 118.60594
loop_
_atom_site_label
_atom_site_type_symbol
_atom_site_fract_x
_atom_site_fract_y
_atom_site_fract_z
_atom_type_partial_charge
La0 La 0.17442 0.13557 0.09898 0.0
La1 La 0.91856 0.92732 1.03932 0.0
C2 C 0.33157 0.30287 1.05632 0.0
C3 C 0.24557 0.36836 1.05898 0.0
C4 C 0.36423 0.45589 0.17062 0.0
C5 C 0.28727 0.51965 0.17578 0.0
C6 C 0.08889 0.49706 0.06995 0.0
C7 C 0.96849 0.4084 0.96107 0.0
C8 C 1.04608 0.34473 0.95549 0.0
C9 C 0.07215 0.05433 0.47756 0.0
C10 C 0.64122 1.03014 0.07068 0.0
C11 C 0.76492 0.76015 0.0813 0.0
C12 C 0.85333 0.69493 0.07891 0.0
C13 C 0.82076 0.63058 0.88768 0.0
C14 C 0.89863 0.56716 0.8838 0.0
C15 C 1.00833 0.56557 0.07287 0.0
C16 C 1.03961 0.62988 0.2649 0.0
C17 C 0.96328 0.69381 0.26788 0.0
C18 C 1.02087 1.00884 0.66106 0.0
C19 C 0.45157 0.03268 1.06809 0.0
O20 O 0.31312 0.2701 0.25309 0.0
O21 O 0.28183 0.24019 0.88113 0.0
O22 O 0.25206 0.13011 0.44896 0.0
O23 O 0.95146 1.03022 0.3079 0.0
O24 O 0.83076 0.10649 1.04845 0.0
O25 O 0.63363 0.95215 0.10094 0.0
O26 O 0.78124 0.793 0.88499 0.0
O27 O 0.81064 0.82251 0.25696 0.0
O28 O 0.84092 0.93303 0.68941 0.0
O29 O 0.14136 0.0326 0.83073 0.0
O30 O 0.26202 0.95636 0.09053 0.0
O31 O 0.45917 0.11062 1.03749 0.0
H32 H 0.51741 0.4751 0.25349 0.0
H33 H 0.38555 0.58705 0.26014 0.0
H34 H 0.81267 0.38758 0.88212 0.0
H35 H 0.94969 0.27706 0.87094 0.0
H36 H 0.73369 0.62894 0.74093 0.0
H37 H 0.87368 0.51977 0.7314 0.0
H38 H 0.12011 0.63018 0.41526 0.0
H39 H 0.98912 0.74179 0.41925 0.0
loop_
_geom_bond_atom_site_label_1
_geom_bond_atom_site_label_2
_geom_bond_distance
_geom_bond_site_symmetry_2
_ccdc_geom_bond_type
La0 C2 2.928 . S
La0 O20 2.521 . S
La0 O21 2.628 1_554 S
La0 O22 2.554 . S
La0 O23 2.757 1_545 S
La0 O24 2.470 1_455 S
La0 O29 2.482 1_454 S
La0 O31 2.503 . S
La1 C11 2.928 . S
La1 O23 2.482 1_656 S
La1 O25 2.503 . S
La1 O26 2.521 . S
La1 O27 2.628 1_556 S
La1 O28 2.554 . S
La1 O29 2.757 1_565 S
La1 O30 2.470 1_655 S
C2 La0 2.928 . S
C2 C3 1.503 . S
C2 O20 1.261 . S
C2 O21 1.243 1_554 S
C3 C2 1.503 . S
C3 C4 1.394 . S
C3 C8 1.373 1_454 S
C4 C3 1.394 . S
C4 C5 1.380 . S
C4 H32 0.930 . S
C5 C4 1.380 . S
C5 C6 1.376 . S
C5 H33 0.930 . S
C6 C5 1.376 . S
C6 C7 1.370 1_454 S
C7 C6 1.370 1_656 S
C7 C8 1.396 . S
C7 H34 0.929 . S
C8 C3 1.373 1_656 S
C8 C7 1.396 . S
C8 H35 0.929 . S
C9 O22 1.240 . S
C9 O23 1.289 1_545 S
C10 O24 1.258 1_565 S
C10 O25 1.256 1_554 S
C11 La1 2.928 . S
C11 C12 1.503 . S
C11 O26 1.261 . S
C11 O27 1.243 1_556 S
C12 C11 1.503 . S
C12 C13 1.394 . S
C12 C17 1.373 1_656 S
C13 C12 1.394 . S
C13 C14 1.380 . S
C13 H36 0.930 . S
C14 C13 1.380 . S
C14 C15 1.376 . S
C14 H37 0.930 . S
C15 C14 1.376 . S
C15 C16 1.370 1_656 S
C16 C15 1.370 1_454 S
C16 C17 1.396 . S
C16 H38 0.929 . S
C17 C12 1.373 1_454 S
C17 C16 1.396 . S
C17 H39 0.929 . S
C18 O28 1.240 . S
C18 O29 1.289 1_565 S
C19 O30 1.258 1_545 S
C19 O31 1.256 1_556 S
O20 La0 2.521 . S
O20 C2 1.261 . S
O21 La0 2.628 1_556 S
O21 C2 1.243 1_556 S
O22 La0 2.554 . S
O22 C9 1.240 . S
O23 La0 2.757 1_565 S
O23 La1 2.482 1_454 S
O23 C9 1.289 1_565 S
O24 La0 2.470 1_655 S
O24 C10 1.258 1_545 S
O25 La1 2.503 . S
O25 C10 1.256 1_556 S
O26 La1 2.521 . S
O26 C11 1.261 . S
O27 La1 2.628 1_554 S
O27 C11 1.243 1_554 S
O28 La1 2.554 . S
O28 C18 1.240 . S
O29 La0 2.482 1_656 S
O29 La1 2.757 1_545 S
O29 C18 1.289 1_545 S
O30 La1 2.470 1_455 S
O30 C19 1.258 1_565 S
O31 La0 2.503 . S
O31 C19 1.256 1_554 S
H32 C4 0.930 . S
H33 C5 0.930 . S
H34 C7 0.929 . S
H35 C8 0.929 . S
H36 C13 0.930 . S
H37 C14 0.930 . S
H38 C16 0.929 . S
H39 C17 0.929 . S
C9 C18 1.500 1_445 S
C19 C10 1.500 1_546 S
C15 C6 1.500 1_656 S
