# Generated by pormake.
# Topology pcu, (6)-cn, num edge types: 1
# Building blocks:
#     Node 0, Type 0, BuildingBlock: BETDIP_clean_sbu_0, # of connection points: 6
#     Edge 1, Type (0, 0), BuildingBlock: XIVTED_clean_linker_0, # of connection points: 2
#     Edge 2, Type (0, 0), BuildingBlock: XIVTED_clean_linker_0, # of connection points: 2
#     Edge 3, Type (0, 0), BuildingBlock: XIVTED_clean_linker_0, # of connection points: 2
# Relax obj value: 0.000
# Max RMSD: 0.000
# Mean RMSD: 0.000
data_MOF--net-pcu--node1-BETDIP_clean_sbu_0--edge1-XIVTED_clean_linker_0
_symmetry_space_group_name_H-M    P1
_symmetry_Int_Tables_number       1
_symmetry_cell_setting            triclinic
loop_
_symmetry_equiv_pos_as_xyz
'x, y, z'
_cell_length_a     25.221738
_cell_length_b     15.601638
_cell_length_c     14.196756
_cell_angle_alpha  89.887669
_cell_angle_beta   103.89465
_cell_angle_gamma 121.88227
loop_
_atom_site_label
_atom_site_type_symbol
_atom_site_fract_x
_atom_site_fract_y
_atom_site_fract_z
_atom_type_partial_charge
Tb0 Tb 0.95943 0.9051 1.0347 0.0
Tb1 Tb 0.10167 0.03169 0.03846 0.0
C2 C 0.85286 0.83204 0.07475 0.0
C3 C 0.80399 0.85753 0.07007 0.0
C4 C 0.7558 0.80309 0.11777 0.0
C5 C 0.70758 0.82354 0.11232 0.0
C6 C 0.70658 0.89896 0.05883 0.0
C7 C 0.75578 0.95459 1.01219 0.0
C8 C 0.8041 0.93398 1.01775 0.0
C9 C 0.98218 0.92079 0.86211 0.0
C10 C 0.03222 0.14782 0.03831 0.0
C11 C 0.20842 0.10496 0.99892 0.0
C12 C 0.25716 0.07927 1.00327 0.0
C13 C 0.30531 0.13371 0.95552 0.0
C14 C 0.35347 0.11316 0.96075 0.0
C15 C 0.35444 0.03762 1.01408 0.0
C16 C 0.30526 -0.01803 0.06074 0.0
C17 C 0.257 0.00267 0.0554 0.0
C18 C 0.07859 0.01589 0.21092 0.0
C19 C 1.02885 0.78898 1.03463 0.0
O20 O 0.90968 0.8923 0.13844 0.0
O21 O 0.85783 0.80785 0.9905 0.0
O22 O 1.0125 -0.01034 0.93539 0.0
O23 O 0.93324 0.84116 0.88108 0.0
O24 O 0.98283 0.06261 0.05475 0.0
O25 O 0.08083 0.14974 1.01602 0.0
O26 O 0.15167 0.04529 0.93486 0.0
O27 O 0.20329 0.12847 0.0833 0.0
O28 O 0.04862 0.94717 0.1376 0.0
O29 O 0.12749 0.09569 0.19205 0.0
O30 O 0.07821 0.87417 1.0181 0.0
O31 O 0.98031 0.78709 0.05711 0.0
H32 H 0.75527 0.74422 0.15897 0.0
H33 H 0.67127 0.78058 0.15062 0.0
H34 H 0.75621 0.01258 0.96974 0.0
H35 H 0.84106 -0.02316 0.98044 0.0
H36 H 0.30588 0.19269 0.91446 0.0
H37 H 0.38976 0.15614 0.92242 0.0
H38 H 0.30481 0.92389 0.10308 0.0
H39 H 0.22007 0.95981 0.09274 0.0
H40 H 0.13633 0.16092 0.3724 0.0
H41 H 0.924 0.77569 0.70044 0.0
H42 H 0.98984 0.84196 0.26752 0.0
H43 H 0.071 0.09444 0.8054 0.0
H44 H 0.94709 0.79826 0.54103 0.0
H45 H 0.11311 0.13825 0.5317 0.0
C46 C 0.09922 0.08615 0.38305 0.0
C47 C 0.06474 0.00329 0.3069 0.0
C48 C 0.9744 0.86329 0.59892 0.0
C49 C 0.03788 -0.02349 0.48856 0.0
C50 C 0.96118 0.85039 0.68979 0.0
C51 C 0.99586 0.93323 0.766 0.0
C52 C 1.02257 0.95987 0.58423 0.0
C53 C 0.04349 0.02843 0.74861 0.0
C54 C 0.08594 0.07318 0.47386 0.0
C55 C 1.0172 0.90799 0.32428 0.0
N56 N 0.05547 0.03917 0.65954 0.0
N57 N 1.00515 0.89718 0.4133 0.0
H58 H 0.48442 0.17761 0.0381 0.0
H59 H 0.5766 0.75894 1.03476 0.0
H60 H 0.34472 0.85342 1.00757 0.0
H61 H 0.71626 0.08313 0.06511 0.0
H62 H 0.49127 0.79212 1.02533 0.0
H63 H 0.56973 0.14441 0.04742 0.0
C64 C 0.47152 0.09931 1.03278 0.0
C65 C 0.40703 0.01817 1.02159 0.0
C66 C 0.54055 0.85606 1.03403 0.0
C67 C 0.50505 -0.02033 1.03347 0.0
C68 C 0.58949 0.83724 0.04001 0.0
C69 C 0.65397 0.91839 0.05119 0.0
C70 C 0.55593 0.95686 0.0392 0.0
C71 C 0.66725 0.01805 0.05552 0.0
C72 C 0.52044 0.08048 0.0387 0.0
C73 C 0.39373 0.91849 1.01717 0.0
N74 N 0.61874 0.03443 0.04971 0.0
N75 N 0.44224 0.9021 1.02294 0.0
H76 H 0.12249 0.763 1.00051 0.0
H77 H 0.93854 0.17377 0.07225 0.0
H78 H 0.93796 0.60061 0.0677 0.0
H79 H 0.12313 0.33618 1.00523 0.0
H80 H 0.9375 0.32942 0.07098 0.0
H81 H 0.12352 0.60733 1.00172 0.0
C82 C 0.08214 0.69471 1.01546 0.0
C83 C 1.03007 0.69511 1.03413 0.0
C84 C 0.97825 0.33101 0.05658 0.0
C85 C 0.03098 0.51636 1.0356 0.0
C86 C 0.9789 0.24206 0.05732 0.0
C87 C 0.03099 0.24167 0.03873 0.0
C88 C 1.03006 0.42041 0.03718 0.0
C89 C 0.08189 0.33267 1.01988 0.0
C90 C 0.08279 0.60575 1.01616 0.0
C91 C 0.97918 0.60411 0.053 0.0
N92 N 0.08012 0.41823 1.01957 0.0
N93 N 0.98094 0.51855 0.05327 0.0
loop_
_geom_bond_atom_site_label_1
_geom_bond_atom_site_label_2
_geom_bond_distance
_geom_bond_site_symmetry_2
_ccdc_geom_bond_type
Tb0 C2 2.809 . S
Tb0 O20 2.484 1_556 S
Tb0 O21 2.440 . S
Tb0 O22 2.658 1_655 S
Tb0 O23 2.409 . S
Tb0 O24 2.378 1_565 S
Tb0 O28 2.325 1_566 S
Tb0 O31 2.341 . S
Tb1 C11 2.809 . S
Tb1 O22 2.325 1_544 S
Tb1 O25 2.341 . S
Tb1 O26 2.484 1_554 S
Tb1 O27 2.440 . S
Tb1 O28 2.658 1_455 S
Tb1 O29 2.409 . S
Tb1 O30 2.378 1_545 S
C2 Tb0 2.809 . S
C2 C3 1.514 . S
C2 O20 1.248 1_556 S
C2 O21 1.266 . S
C3 C2 1.514 . S
C3 C4 1.355 1_566 S
C3 C8 1.348 . S
C4 C3 1.355 1_544 S
C4 C5 1.386 . S
C4 H32 0.927 . S
C5 C4 1.386 . S
C5 C6 1.339 1_544 S
C5 H33 0.931 . S
C6 C5 1.339 1_566 S
C6 C7 1.378 . S
C7 C6 1.378 . S
C7 C8 1.408 . S
C7 H34 0.930 . S
C8 C3 1.348 . S
C8 C7 1.408 . S
C8 H35 0.930 . S
C9 O22 1.281 1_655 S
C9 O23 1.254 . S
C10 O24 1.236 1_455 S
C10 O25 1.266 1_556 S
C11 Tb1 2.809 . S
C11 C12 1.514 . S
C11 O26 1.248 1_554 S
C11 O27 1.266 . S
C12 C11 1.514 . S
C12 C13 1.356 1_544 S
C12 C17 1.348 . S
C13 C12 1.356 1_566 S
C13 C14 1.384 . S
C13 H36 0.927 . S
C14 C13 1.384 . S
C14 C15 1.337 1_566 S
C14 H37 0.931 . S
C15 C14 1.337 1_544 S
C15 C16 1.380 . S
C16 C15 1.380 . S
C16 C17 1.408 . S
C16 H38 0.930 . S
C17 C12 1.348 . S
C17 C16 1.408 . S
C17 H39 0.930 . S
C18 O28 1.281 1_455 S
C18 O29 1.254 . S
C19 O30 1.236 1_655 S
C19 O31 1.266 1_554 S
O20 Tb0 2.484 1_554 S
O20 C2 1.248 1_554 S
O21 Tb0 2.440 . S
O21 C2 1.266 . S
O22 Tb0 2.658 1_455 S
O22 Tb1 2.325 1_566 S
O22 C9 1.281 1_455 S
O23 Tb0 2.409 . S
O23 C9 1.254 . S
O24 Tb0 2.378 1_545 S
O24 C10 1.236 1_655 S
O25 Tb1 2.341 . S
O25 C10 1.266 1_554 S
O26 Tb1 2.484 1_556 S
O26 C11 1.248 1_556 S
O27 Tb1 2.440 . S
O27 C11 1.266 . S
O28 Tb0 2.325 1_544 S
O28 Tb1 2.658 1_655 S
O28 C18 1.281 1_655 S
O29 Tb1 2.409 . S
O29 C18 1.254 . S
O30 Tb1 2.378 1_565 S
O30 C19 1.236 1_455 S
O31 Tb0 2.341 . S
O31 C19 1.266 1_556 S
H32 C4 0.927 . S
H33 C5 0.931 . S
H34 C7 0.930 . S
H35 C8 0.930 . S
H36 C13 0.927 . S
H37 C14 0.931 . S
H38 C16 0.930 . S
H39 C17 0.930 . S
H40 C46 0.930 . S
H41 C50 0.930 . S
H42 C55 0.929 . S
H43 C53 0.929 . S
H44 C48 0.929 . S
H45 C54 0.929 . S
C46 H40 0.930 . S
C46 C47 1.371 . S
C46 C54 1.378 . S
C47 C46 1.371 . S
C47 C55 1.429 1_645 S
C48 H44 0.929 . S
C48 C50 1.378 . S
C48 C52 1.361 . S
C49 C52 1.465 1_645 S
C49 C54 1.357 . S
C49 N57 1.419 1_645 S
C50 H41 0.930 . S
C50 C48 1.378 . S
C50 C51 1.376 . S
C51 C50 1.376 . S
C51 C53 1.426 1_465 S
C52 C48 1.361 . S
C52 C49 1.465 1_465 S
C52 N56 1.414 1_465 S
C53 H43 0.929 . S
C53 C51 1.426 1_645 S
C53 N56 1.384 . S
C54 H45 0.929 . S
C54 C46 1.378 . S
C54 C49 1.357 . S
C55 H42 0.929 . S
C55 C47 1.429 1_465 S
C55 N57 1.384 . S
N56 C52 1.414 1_645 S
N56 C53 1.384 . S
N57 C49 1.419 1_465 S
N57 C55 1.384 . S
H58 C64 0.930 . S
H59 C68 0.930 . S
H60 C73 0.929 . S
H61 C71 0.929 . S
H62 C66 0.929 . S
H63 C72 0.929 . S
C64 H58 0.930 . S
C64 C65 1.367 . S
C64 C72 1.378 . S
C65 C64 1.367 . S
C65 C73 1.433 1_546 S
C66 H62 0.929 . S
C66 C68 1.378 . S
C66 C70 1.350 . S
C67 C70 1.463 1_546 S
C67 C72 1.350 . S
C67 N75 1.427 1_546 S
C68 H59 0.930 . S
C68 C66 1.378 . S
C68 C69 1.367 . S
C69 C68 1.367 . S
C69 C71 1.433 1_564 S
C70 C66 1.350 . S
C70 C67 1.463 1_564 S
C70 N74 1.427 1_564 S
C71 H61 0.929 . S
C71 C69 1.433 1_546 S
C71 N74 1.384 . S
C72 H63 0.929 . S
C72 C64 1.378 . S
C72 C67 1.350 . S
C73 H60 0.929 . S
C73 C65 1.433 1_564 S
C73 N75 1.384 . S
N74 C70 1.427 1_546 S
N74 C71 1.384 . S
N75 C67 1.427 1_564 S
N75 C73 1.384 . S
H76 C82 0.930 . S
H77 C86 0.930 . S
H78 C91 0.929 . S
H79 C89 0.929 . S
H80 C84 0.929 . S
H81 C90 0.929 . S
C82 H76 0.930 . S
C82 C83 1.371 . S
C82 C90 1.378 . S
C83 C82 1.371 . S
C83 C91 1.429 1_456 S
C84 H80 0.929 . S
C84 C86 1.378 . S
C84 C88 1.350 . S
C85 C88 1.463 1_456 S
C85 C90 1.350 . S
C85 N93 1.427 1_456 S
C86 H77 0.930 . S
C86 C84 1.378 . S
C86 C87 1.395 . S
C87 C86 1.395 . S
C87 C89 1.419 1_654 S
C88 C84 1.350 . S
C88 C85 1.463 1_654 S
C88 N92 1.427 1_654 S
C89 H79 0.929 . S
C89 C87 1.419 1_456 S
C89 N92 1.384 . S
C90 H81 0.929 . S
C90 C82 1.378 . S
C90 C85 1.350 . S
C91 H78 0.929 . S
C91 C83 1.429 1_654 S
C91 N93 1.384 . S
N92 C88 1.427 1_456 S
N92 C89 1.384 . S
N93 C85 1.427 1_654 S
N93 C91 1.384 . S
C47 C18 1.451 1_655 S
C51 C9 1.449 1_455 S
C65 C15 1.497 1_556 S
C69 C6 1.497 1_554 S
C83 C19 1.491 1_456 S
C87 C10 1.475 1_654 S
