# Generated by pormake.
# Topology vby, (6)-cn, num edge types: 1
# Building blocks:
#     Node 0, Type 0, BuildingBlock: JUFBIX_clean_sbu_0, # of connection points: 6
#     Node 1, Type 0, BuildingBlock: JUFBIX_clean_sbu_0, # of connection points: 6
#     Node 2, Type 0, BuildingBlock: JUFBIX_clean_sbu_0, # of connection points: 6
#     Node 3, Type 0, BuildingBlock: JUFBIX_clean_sbu_0, # of connection points: 6
#     Node 4, Type 0, BuildingBlock: JUFBIX_clean_sbu_0, # of connection points: 6
#     Node 5, Type 0, BuildingBlock: JUFBIX_clean_sbu_0, # of connection points: 6
#     Node 6, Type 0, BuildingBlock: JUFBIX_clean_sbu_0, # of connection points: 6
#     Node 7, Type 0, BuildingBlock: JUFBIX_clean_sbu_0, # of connection points: 6
#     Edge 8, Type (0, 0), None
#     Edge 9, Type (0, 0), None
#     Edge 10, Type (0, 0), None
#     Edge 11, Type (0, 0), None
#     Edge 12, Type (0, 0), None
#     Edge 13, Type (0, 0), None
#     Edge 14, Type (0, 0), None
#     Edge 15, Type (0, 0), None
#     Edge 16, Type (0, 0), None
#     Edge 17, Type (0, 0), None
#     Edge 18, Type (0, 0), None
#     Edge 19, Type (0, 0), None
#     Edge 20, Type (0, 0), None
#     Edge 21, Type (0, 0), None
#     Edge 22, Type (0, 0), None
#     Edge 23, Type (0, 0), None
#     Edge 24, Type (0, 0), None
#     Edge 25, Type (0, 0), None
#     Edge 26, Type (0, 0), None
#     Edge 27, Type (0, 0), None
#     Edge 28, Type (0, 0), None
#     Edge 29, Type (0, 0), None
#     Edge 30, Type (0, 0), None
#     Edge 31, Type (0, 0), None
# Relax obj value: 0.303
# Max RMSD: 0.225
# Mean RMSD: 0.225
data_MOF--net-vby--node1-JUFBIX_clean_sbu_0--edge1-none
_symmetry_space_group_name_H-M    P1
_symmetry_Int_Tables_number       1
_symmetry_cell_setting            triclinic
loop_
_symmetry_equiv_pos_as_xyz
'x, y, z'
_cell_length_a     10.531587
_cell_length_b     23.801823
_cell_length_c     12.773288
_cell_angle_alpha  90.000679
_cell_angle_beta   95.089577
_cell_angle_gamma 89.999401
loop_
_atom_site_label
_atom_site_type_symbol
_atom_site_fract_x
_atom_site_fract_y
_atom_site_fract_z
_atom_type_partial_charge
Co0 Co 1.05706 0.34243 0.02199 0.0
C1 C 0.09673 0.36506 0.82852 0.0
Co2 Co 0.22844 0.38245 0.03104 0.0
C3 C 0.80931 0.34723 0.06768 0.0
C4 C 0.82233 0.29052 0.93876 0.0
N5 N 0.89286 0.31664 1.01812 0.0
N6 N 0.69232 0.34486 1.01843 0.0
C7 C 0.69801 0.3084 0.93825 0.0
H8 H 0.8371 0.37703 0.12923 0.0
H9 H 0.86141 0.26687 0.87675 0.0
C10 C 0.09848 0.36931 0.21917 0.0
N11 N 0.39161 0.40692 0.039 0.0
C12 C 0.47677 0.38055 0.98405 0.0
C13 C 0.45935 0.43107 0.12132 0.0
N14 N 0.59362 0.38285 0.03375 0.0
C15 C 0.58512 0.41598 0.11853 0.0
C16 C 0.08309 0.46433 1.01997 0.0
O17 O 1.06315 0.32906 0.16187 0.0
O18 O 0.19657 0.3968 0.19012 0.0
O19 O 0.19071 0.45136 1.00086 0.0
O20 O 1.00293 0.42499 0.03922 0.0
O21 O 0.21456 0.37003 0.86893 0.0
H22 H 0.41825 0.45149 0.18592 0.0
H23 H 0.44974 0.35185 0.92037 0.0
O24 O 1.01746 0.35305 0.88807 0.0
O25 O 0.14806 0.26485 0.99818 0.0
O26 O 0.30749 0.31288 0.06534 0.0
C27 C 0.2703 0.26736 0.02701 0.0
H28 H 0.6219 0.29944 0.87805 0.0
H29 H 0.6604 0.42337 0.18003 0.0
Co30 Co 0.91486 0.60605 1.01344 0.0
C31 C 1.04484 0.6192 0.82531 0.0
Co32 Co 0.08626 0.64607 0.02248 0.0
C33 C 0.66655 0.60785 0.06055 0.0
C34 C 0.68394 0.55741 0.92318 0.0
N35 N 0.75171 0.58157 1.00547 0.0
N36 N 0.54957 0.60541 1.01109 0.0
C37 C 0.55813 0.57238 0.92618 0.0
H38 H 0.69357 0.63656 0.12421 0.0
H39 H 0.725 0.53706 0.85849 0.0
C40 C 1.04657 0.62342 0.21596 0.0
N41 N 0.25049 0.67185 0.02638 0.0
C42 C 0.33401 0.64118 0.97693 0.0
C43 C 0.32101 0.69794 0.10579 0.0
N44 N 0.45089 0.64342 0.0264 0.0
C45 C 0.44528 0.67995 0.10647 0.0
C46 C 0.87299 0.72113 1.01748 0.0
O47 O 0.92875 0.61844 0.17556 0.0
O48 O 0.12583 0.63545 0.15641 0.0
O49 O 0.99524 0.72365 0.04629 0.0
O50 O 0.83578 0.67561 0.9792 0.0
O51 O 0.08021 0.65944 0.88261 0.0
H52 H 0.28193 0.72164 0.16773 0.0
H53 H 0.30622 0.61141 0.91533 0.0
O54 O 0.94672 0.59173 0.85435 0.0
O55 O 0.95258 0.53714 0.04358 0.0
O56 O 0.14036 0.5635 1.00526 0.0
C57 C 1.0602 0.52416 0.02448 0.0
H58 H 0.4828 0.56496 0.86473 0.0
H59 H 0.52133 0.68886 0.16674 0.0
Co60 Co 0.22846 0.60604 0.53098 0.0
C61 C 0.0986 0.61923 0.71918 0.0
Co62 Co 1.05704 0.64607 0.52199 0.0
C63 C 0.47677 0.60784 0.48386 0.0
C64 C 0.45937 0.55738 0.62121 0.0
N65 N 0.39161 0.58156 0.53893 0.0
N66 N 0.59374 0.6054 0.53332 0.0
C67 C 0.58518 0.57235 0.61822 0.0
H68 H 0.44974 0.63656 0.42022 0.0
H69 H 0.41831 0.53703 0.6859 0.0
C70 C 0.09673 0.62344 0.32849 0.0
N71 N 0.89281 0.67185 0.51809 0.0
C72 C 0.80929 0.64118 0.56753 0.0
C73 C 0.82229 0.69794 0.43868 0.0
N74 N 0.69241 0.64341 0.51803 0.0
C75 C 0.69803 0.67994 0.43797 0.0
C76 C 0.27032 0.72113 0.52698 0.0
O77 O 0.21456 0.61844 0.36888 0.0
O78 O 1.01748 0.63546 0.38806 0.0
O79 O 0.14806 0.72366 0.4982 0.0
O80 O 0.30754 0.6756 0.56522 0.0
O81 O 1.06308 0.65944 0.66186 0.0
H82 H 0.86139 0.72165 0.37675 0.0
H83 H 0.83708 0.61141 0.62913 0.0
O84 O 0.19662 0.59172 0.69007 0.0
O85 O 0.19071 0.53713 0.50084 0.0
O86 O 1.00295 0.56351 0.53922 0.0
C87 C 0.0831 0.52416 0.51997 0.0
H88 H 0.66052 0.56492 0.67966 0.0
H89 H 0.62199 0.68886 0.3777 0.0
Co90 Co 0.08625 0.34243 0.52249 0.0
C91 C 1.04658 0.36504 0.71599 0.0
Co92 Co 0.91486 0.38246 0.5135 0.0
C93 C 0.334 0.34724 0.47682 0.0
C94 C 0.32097 0.29052 0.60573 0.0
N95 N 0.25045 0.31664 0.52637 0.0
N96 N 0.45098 0.34487 0.52609 0.0
C97 C 0.44529 0.3084 0.60626 0.0
H98 H 0.30622 0.37704 0.41527 0.0
H99 H 0.28189 0.26686 0.66773 0.0
C100 C 1.0447 0.36928 0.3253 0.0
N101 N 0.75169 0.40693 0.50556 0.0
C102 C 0.66653 0.38056 0.56049 0.0
C103 C 0.68395 0.43109 0.42324 0.0
N104 N 0.54968 0.38286 0.51079 0.0
C105 C 0.55818 0.416 0.42603 0.0
C106 C 1.06021 0.46433 0.52452 0.0
O107 O 0.08017 0.32906 0.38261 0.0
O108 O 0.9467 0.39681 0.35442 0.0
O109 O 0.95262 0.45136 0.54368 0.0
O110 O 0.14036 0.42499 0.50525 0.0
O111 O 0.92875 0.37003 0.67559 0.0
H112 H 0.72505 0.45152 0.35865 0.0
H113 H 0.69355 0.35185 0.62416 0.0
O114 O 0.12585 0.35305 0.65642 0.0
O115 O 0.99525 0.26484 0.54629 0.0
O116 O 0.8358 0.31289 0.47919 0.0
C117 C 0.873 0.26737 0.51748 0.0
H118 H 0.52139 0.29945 0.66647 0.0
H119 H 0.4829 0.4234 0.36453 0.0
Co120 Co 0.55706 0.84243 0.02199 0.0
C121 C 0.59673 0.86506 0.82852 0.0
Co122 Co 0.72844 0.88245 0.03104 0.0
C123 C 0.30931 0.84723 0.06768 0.0
C124 C 0.32233 0.79052 0.93876 0.0
N125 N 0.39286 0.81664 1.01812 0.0
N126 N 0.19233 0.84486 1.01843 0.0
C127 C 0.19801 0.8084 0.93825 0.0
H128 H 0.3371 0.87703 0.12923 0.0
H129 H 0.36141 0.76687 0.87675 0.0
C130 C 0.59848 0.86931 0.21917 0.0
N131 N 0.89161 0.90692 0.039 0.0
C132 C 0.97677 0.88055 0.98405 0.0
C133 C 0.95935 0.93107 0.12132 0.0
N134 N 0.09362 0.88285 0.03375 0.0
C135 C 0.08512 0.91598 0.11853 0.0
C136 C 0.58309 0.96433 1.01997 0.0
O137 O 0.56315 0.82906 0.16187 0.0
O138 O 0.69657 0.8968 0.19012 0.0
O139 O 0.69071 0.95136 1.00086 0.0
O140 O 0.50293 0.92499 0.03922 0.0
O141 O 0.71455 0.87003 0.86893 0.0
H142 H 0.91825 0.95149 0.18592 0.0
H143 H 0.94974 0.85185 0.92037 0.0
O144 O 0.51746 0.85305 0.88807 0.0
O145 O 0.64806 0.76485 0.99817 0.0
O146 O 0.80749 0.81288 0.06534 0.0
C147 C 0.7703 0.76737 0.02701 0.0
H148 H 0.1219 0.79944 0.87805 0.0
H149 H 0.1604 0.92337 0.18003 0.0
Co150 Co 0.41486 0.10605 1.01344 0.0
C151 C 0.54484 0.1192 0.82531 0.0
Co152 Co 0.58626 0.14607 0.02248 0.0
C153 C 0.16655 0.10785 0.06055 0.0
C154 C 0.18394 0.05741 0.92318 0.0
N155 N 0.25171 0.08158 1.00547 0.0
N156 N 1.04957 0.10541 1.01109 0.0
C157 C 1.05813 0.07238 0.92618 0.0
H158 H 0.19357 0.13656 0.12421 0.0
H159 H 0.225 0.03706 0.85849 0.0
C160 C 0.54657 0.12342 0.21596 0.0
N161 N 0.75049 0.17185 0.02638 0.0
C162 C 0.83401 0.14118 0.97693 0.0
C163 C 0.82101 0.19794 0.10579 0.0
N164 N 0.95089 0.14342 0.0264 0.0
C165 C 0.94528 0.17995 0.10647 0.0
C166 C 0.37299 0.22113 1.01749 0.0
O167 O 0.42875 0.11845 0.17556 0.0
O168 O 0.62583 0.13545 0.15641 0.0
O169 O 0.49524 0.22365 0.04629 0.0
O170 O 0.33578 0.17561 0.9792 0.0
O171 O 0.5802 0.15944 0.88261 0.0
H172 H 0.78193 0.22164 0.16773 0.0
H173 H 0.80622 0.11141 0.91533 0.0
O174 O 0.44672 0.09173 0.85435 0.0
O175 O 0.45258 0.03714 0.04358 0.0
O176 O 0.64036 0.0635 1.00526 0.0
C177 C 0.5602 0.02416 0.02448 0.0
H178 H 0.9828 0.06496 0.86473 0.0
H179 H 1.02133 0.18886 0.16674 0.0
Co180 Co 0.72846 0.10604 0.53098 0.0
C181 C 0.5986 0.11923 0.71918 0.0
Co182 Co 0.55704 0.14607 0.52199 0.0
C183 C 0.97677 0.10784 0.48386 0.0
C184 C 0.95937 0.05739 0.62121 0.0
N185 N 0.89161 0.08156 0.53894 0.0
N186 N 0.09374 0.1054 0.53332 0.0
C187 C 0.08518 0.07235 0.61822 0.0
H188 H 0.94974 0.13656 0.42022 0.0
H189 H 0.91831 0.03703 0.6859 0.0
C190 C 0.59673 0.12344 0.32849 0.0
N191 N 0.39281 0.17185 0.51809 0.0
C192 C 0.30929 0.14118 0.56753 0.0
C193 C 0.32229 0.19794 0.43868 0.0
N194 N 0.19241 0.14341 0.51803 0.0
C195 C 0.19803 0.17994 0.43797 0.0
C196 C 0.77032 0.22113 0.52698 0.0
O197 O 0.71456 0.11844 0.36888 0.0
O198 O 0.51748 0.13546 0.38806 0.0
O199 O 0.64806 0.22366 0.4982 0.0
O200 O 0.80754 0.1756 0.56522 0.0
O201 O 0.56308 0.15944 0.66186 0.0
H202 H 0.36139 0.22165 0.37675 0.0
H203 H 0.33708 0.11141 0.62913 0.0
O204 O 0.69662 0.09172 0.69007 0.0
O205 O 0.69071 0.03713 0.50084 0.0
O206 O 0.50295 0.0635 0.53922 0.0
C207 C 0.5831 0.02416 0.51997 0.0
H208 H 0.16052 0.06492 0.67966 0.0
H209 H 0.12199 0.18886 0.3777 0.0
Co210 Co 0.58625 0.84243 0.52249 0.0
C211 C 0.54658 0.86504 0.71599 0.0
Co212 Co 0.41486 0.88246 0.5135 0.0
C213 C 0.834 0.84724 0.47682 0.0
C214 C 0.82097 0.79052 0.60573 0.0
N215 N 0.75045 0.81664 0.52637 0.0
N216 N 0.95098 0.84487 0.52609 0.0
C217 C 0.94529 0.8084 0.60626 0.0
H218 H 0.80622 0.87704 0.41527 0.0
H219 H 0.78189 0.76686 0.66773 0.0
C220 C 0.5447 0.86928 0.3253 0.0
N221 N 0.25169 0.90693 0.50556 0.0
C222 C 0.16653 0.88056 0.56049 0.0
C223 C 0.18395 0.93109 0.42324 0.0
N224 N 1.04968 0.88286 0.51079 0.0
C225 C 1.05818 0.916 0.42603 0.0
C226 C 0.56021 0.96433 0.52452 0.0
O227 O 0.58017 0.82906 0.38261 0.0
O228 O 0.4467 0.89681 0.35442 0.0
O229 O 0.45262 0.95136 0.54368 0.0
O230 O 0.64036 0.92499 0.50525 0.0
O231 O 0.42875 0.87003 0.67559 0.0
H232 H 0.22505 0.95152 0.35865 0.0
H233 H 0.19355 0.85185 0.62416 0.0
O234 O 0.62585 0.85305 0.65642 0.0
O235 O 0.49525 0.76484 0.5463 0.0
O236 O 0.3358 0.81289 0.47919 0.0
C237 C 0.373 0.76737 0.51748 0.0
H238 H 1.02139 0.79945 0.66647 0.0
H239 H 0.9829 0.9234 0.36453 0.0
loop_
_geom_bond_atom_site_label_1
_geom_bond_atom_site_label_2
_geom_bond_distance
_geom_bond_site_symmetry_2
_ccdc_geom_bond_type
Co0 N5 2.057 1_554 S
Co0 O17 2.021 . S
Co0 O20 2.062 . S
Co0 O24 2.117 1_554 S
Co0 O25 2.020 1_655 S
C1 O21 1.259 . S
C1 O24 1.258 1_455 S
Co2 N11 2.057 1_556 S
Co2 O18 2.117 1_556 S
Co2 O19 2.020 . S
Co2 O21 2.021 . S
Co2 O26 2.062 . S
C3 N5 1.316 1_554 S
C3 N6 1.347 1_554 S
C3 H8 0.931 . S
C4 N5 1.375 . S
C4 C7 1.350 . S
C4 H9 0.930 . S
N5 Co0 2.057 1_556 S
N5 C3 1.316 1_556 S
N5 C4 1.375 . S
N6 C3 1.347 1_556 S
N6 C7 1.373 . S
C7 C4 1.350 . S
C7 N6 1.373 . S
C7 H28 0.931 . S
H8 C3 0.931 . S
H9 C4 0.930 . S
C10 O17 1.259 1_455 S
C10 O18 1.258 . S
N11 Co2 2.057 1_554 S
N11 C12 1.316 1_554 S
N11 C13 1.375 . S
C12 N11 1.316 1_556 S
C12 N14 1.347 1_556 S
C12 H23 0.931 . S
C13 N11 1.375 . S
C13 C15 1.350 . S
C13 H22 0.930 . S
N14 C12 1.347 1_554 S
N14 C15 1.373 . S
C15 C13 1.350 . S
C15 N14 1.373 . S
C15 H29 0.931 . S
C16 O19 1.256 1_654 S
C16 O20 1.255 . S
O17 Co0 2.021 . S
O17 C10 1.259 1_655 S
O18 Co2 2.117 1_554 S
O18 C10 1.258 . S
O19 Co2 2.020 . S
O19 C16 1.256 1_456 S
O20 Co0 2.062 . S
O20 C16 1.255 . S
O21 C1 1.259 . S
O21 Co2 2.021 . S
H22 C13 0.930 . S
H23 C12 0.931 . S
O24 Co0 2.117 1_556 S
O24 C1 1.258 1_655 S
O25 Co0 2.020 1_455 S
O25 C27 1.256 1_554 S
O26 Co2 2.062 . S
O26 C27 1.255 . S
C27 O25 1.256 1_556 S
C27 O26 1.255 . S
H28 C7 0.931 . S
H29 C15 0.931 . S
Co30 N35 2.057 1_554 S
Co30 O47 2.021 . S
Co30 O50 2.062 . S
Co30 O54 2.117 1_554 S
Co30 O55 2.020 . S
C31 O51 1.259 1_655 S
C31 O54 1.258 . S
Co32 N41 2.057 1_556 S
Co32 O48 2.117 1_556 S
Co32 O49 2.020 1_455 S
Co32 O51 2.021 . S
Co32 O56 2.062 . S
C33 N35 1.316 1_554 S
C33 N36 1.347 1_554 S
C33 H38 0.931 . S
C34 N35 1.375 . S
C34 C37 1.350 . S
C34 H39 0.930 . S
N35 Co30 2.057 1_556 S
N35 C33 1.316 1_556 S
N35 C34 1.375 . S
N36 C33 1.347 1_556 S
N36 C37 1.373 . S
C37 C34 1.350 . S
C37 N36 1.373 . S
C37 H58 0.931 . S
H38 C33 0.931 . S
H39 C34 0.930 . S
C40 O47 1.259 . S
C40 O48 1.258 1_655 S
N41 Co32 2.057 1_554 S
N41 C42 1.316 1_554 S
N41 C43 1.375 . S
C42 N41 1.316 1_556 S
C42 N44 1.347 1_556 S
C42 H53 0.931 . S
C43 N41 1.375 . S
C43 C45 1.350 . S
C43 H52 0.930 . S
N44 C42 1.347 1_554 S
N44 C45 1.373 . S
C45 C43 1.350 . S
C45 N44 1.373 . S
C45 H59 0.931 . S
C46 O49 1.256 1_554 S
C46 O50 1.255 . S
O47 Co30 2.021 . S
O47 C40 1.259 . S
O48 Co32 2.117 1_554 S
O48 C40 1.258 1_455 S
O49 Co32 2.020 1_655 S
O49 C46 1.256 1_556 S
O50 Co30 2.062 . S
O50 C46 1.255 . S
O51 C31 1.259 1_455 S
O51 Co32 2.021 . S
H52 C43 0.930 . S
H53 C42 0.931 . S
O54 Co30 2.117 1_556 S
O54 C31 1.258 . S
O55 Co30 2.020 . S
O55 C57 1.256 1_654 S
O56 Co32 2.062 . S
O56 C57 1.255 . S
C57 O55 1.256 1_456 S
C57 O56 1.255 . S
H58 C37 0.931 . S
H59 C45 0.931 . S
Co60 N65 2.057 . S
Co60 O77 2.021 . S
Co60 O80 2.062 . S
Co60 O84 2.117 . S
Co60 O85 2.020 . S
C61 O81 1.259 1_455 S
C61 O84 1.258 . S
Co62 N71 2.057 . S
Co62 O78 2.117 . S
Co62 O79 2.020 1_655 S
Co62 O81 2.021 . S
Co62 O86 2.062 . S
C63 N65 1.316 . S
C63 N66 1.347 . S
C63 H68 0.931 . S
C64 N65 1.375 . S
C64 C67 1.350 . S
C64 H69 0.930 . S
N65 Co60 2.057 . S
N65 C63 1.316 . S
N65 C64 1.375 . S
N66 C63 1.347 . S
N66 C67 1.373 . S
C67 C64 1.350 . S
C67 N66 1.373 . S
C67 H88 0.931 . S
H68 C63 0.931 . S
H69 C64 0.930 . S
C70 O77 1.259 . S
C70 O78 1.258 1_455 S
N71 Co62 2.057 . S
N71 C72 1.316 . S
N71 C73 1.375 . S
C72 N71 1.316 . S
C72 N74 1.347 . S
C72 H83 0.931 . S
C73 N71 1.375 . S
C73 C75 1.350 . S
C73 H82 0.930 . S
N74 C72 1.347 . S
N74 C75 1.373 . S
C75 C73 1.350 . S
C75 N74 1.373 . S
C75 H89 0.931 . S
C76 O79 1.256 . S
C76 O80 1.255 . S
O77 Co60 2.021 . S
O77 C70 1.259 . S
O78 Co62 2.117 . S
O78 C70 1.258 1_655 S
O79 Co62 2.020 1_455 S
O79 C76 1.256 . S
O80 Co60 2.062 . S
O80 C76 1.255 . S
O81 C61 1.259 1_655 S
O81 Co62 2.021 . S
H82 C73 0.930 . S
H83 C72 0.931 . S
O84 Co60 2.117 . S
O84 C61 1.258 . S
O85 Co60 2.020 . S
O85 C87 1.256 1_455 S
O86 Co62 2.062 . S
O86 C87 1.255 . S
C87 O85 1.256 1_655 S
C87 O86 1.255 . S
H88 C67 0.931 . S
H89 C75 0.931 . S
Co90 N95 2.057 . S
Co90 O107 2.021 . S
Co90 O110 2.062 . S
Co90 O114 2.117 . S
Co90 O115 2.020 1_455 S
C91 O111 1.259 . S
C91 O114 1.258 1_655 S
Co92 N101 2.057 . S
Co92 O108 2.117 . S
Co92 O109 2.020 . S
Co92 O111 2.021 . S
Co92 O116 2.062 . S
C93 N95 1.316 . S
C93 N96 1.347 . S
C93 H98 0.931 . S
C94 N95 1.375 . S
C94 C97 1.350 . S
C94 H99 0.930 . S
N95 Co90 2.057 . S
N95 C93 1.316 . S
N95 C94 1.375 . S
N96 C93 1.347 . S
N96 C97 1.373 . S
C97 C94 1.350 . S
C97 N96 1.373 . S
C97 H118 0.931 . S
H98 C93 0.931 . S
H99 C94 0.930 . S
C100 O107 1.259 1_655 S
C100 O108 1.258 . S
N101 Co92 2.057 . S
N101 C102 1.316 . S
N101 C103 1.375 . S
C102 N101 1.316 . S
C102 N104 1.347 . S
C102 H113 0.931 . S
C103 N101 1.375 . S
C103 C105 1.350 . S
C103 H112 0.930 . S
N104 C102 1.347 . S
N104 C105 1.373 . S
C105 C103 1.350 . S
C105 N104 1.373 . S
C105 H119 0.931 . S
C106 O109 1.256 1_455 S
C106 O110 1.255 . S
O107 Co90 2.021 . S
O107 C100 1.259 1_455 S
O108 Co92 2.117 . S
O108 C100 1.258 . S
O109 Co92 2.020 . S
O109 C106 1.256 1_655 S
O110 Co90 2.062 . S
O110 C106 1.255 . S
O111 C91 1.259 . S
O111 Co92 2.021 . S
H112 C103 0.930 . S
H113 C102 0.931 . S
O114 Co90 2.117 . S
O114 C91 1.258 1_455 S
O115 Co90 2.020 1_655 S
O115 C117 1.256 . S
O116 Co92 2.062 . S
O116 C117 1.255 . S
C117 O115 1.256 . S
C117 O116 1.255 . S
H118 C97 0.931 . S
H119 C105 0.931 . S
Co120 N125 2.057 1_554 S
Co120 O137 2.021 . S
Co120 O140 2.062 . S
Co120 O144 2.117 1_554 S
Co120 O145 2.020 . S
C121 O141 1.259 . S
C121 O144 1.258 . S
Co122 N131 2.057 1_556 S
Co122 O138 2.117 1_556 S
Co122 O139 2.020 . S
Co122 O141 2.021 . S
Co122 O146 2.062 . S
C123 N125 1.316 1_554 S
C123 N126 1.347 1_554 S
C123 H128 0.931 . S
C124 N125 1.375 . S
C124 C127 1.350 . S
C124 H129 0.930 . S
N125 Co120 2.057 1_556 S
N125 C123 1.316 1_556 S
N125 C124 1.375 . S
N126 C123 1.347 1_556 S
N126 C127 1.373 . S
C127 C124 1.350 . S
C127 N126 1.373 . S
C127 H148 0.931 . S
H128 C123 0.931 . S
H129 C124 0.930 . S
C130 O137 1.259 . S
C130 O138 1.258 . S
N131 Co122 2.057 1_554 S
N131 C132 1.316 1_554 S
N131 C133 1.375 . S
C132 N131 1.316 1_556 S
C132 N134 1.347 1_656 S
C132 H143 0.931 . S
C133 N131 1.375 . S
C133 C135 1.350 1_655 S
C133 H142 0.930 . S
N134 C132 1.347 1_454 S
N134 C135 1.373 . S
C135 C133 1.350 1_455 S
C135 N134 1.373 . S
C135 H149 0.931 . S
C136 O139 1.256 1_554 S
C136 O140 1.255 . S
O137 Co120 2.021 . S
O137 C130 1.259 . S
O138 Co122 2.117 1_554 S
O138 C130 1.258 . S
O139 Co122 2.020 . S
O139 C136 1.256 1_556 S
O140 Co120 2.062 . S
O140 C136 1.255 . S
O141 C121 1.259 . S
O141 Co122 2.021 . S
H142 C133 0.930 . S
H143 C132 0.931 . S
O144 Co120 2.117 1_556 S
O144 C121 1.258 . S
O145 Co120 2.020 . S
O145 C147 1.256 1_554 S
O146 Co122 2.062 . S
O146 C147 1.255 . S
C147 O145 1.256 1_556 S
C147 O146 1.255 . S
H148 C127 0.931 . S
H149 C135 0.931 . S
Co150 N155 2.057 1_554 S
Co150 O167 2.021 . S
Co150 O170 2.062 . S
Co150 O174 2.117 1_554 S
Co150 O175 2.020 . S
C151 O171 1.259 . S
C151 O174 1.258 . S
Co152 N161 2.057 1_556 S
Co152 O168 2.117 1_556 S
Co152 O169 2.020 . S
Co152 O171 2.021 . S
Co152 O176 2.062 . S
C153 N155 1.316 1_554 S
C153 N156 1.347 1_454 S
C153 H158 0.931 . S
C154 N155 1.375 . S
C154 C157 1.350 1_455 S
C154 H159 0.930 . S
N155 Co150 2.057 1_556 S
N155 C153 1.316 1_556 S
N155 C154 1.375 . S
N156 C153 1.347 1_656 S
N156 C157 1.373 . S
C157 C154 1.350 1_655 S
C157 N156 1.373 . S
C157 H178 0.931 . S
H158 C153 0.931 . S
H159 C154 0.930 . S
C160 O167 1.259 . S
C160 O168 1.258 . S
N161 Co152 2.057 1_554 S
N161 C162 1.316 1_554 S
N161 C163 1.375 . S
C162 N161 1.316 1_556 S
C162 N164 1.347 1_556 S
C162 H173 0.931 . S
C163 N161 1.375 . S
C163 C165 1.350 . S
C163 H172 0.930 . S
N164 C162 1.347 1_554 S
N164 C165 1.373 . S
C165 C163 1.350 . S
C165 N164 1.373 . S
C165 H179 0.931 . S
C166 O169 1.256 1_554 S
C166 O170 1.255 . S
O167 Co150 2.021 . S
O167 C160 1.259 . S
O168 Co152 2.117 1_554 S
O168 C160 1.258 . S
O169 Co152 2.020 . S
O169 C166 1.256 1_556 S
O170 Co150 2.062 . S
O170 C166 1.255 . S
O171 C151 1.259 . S
O171 Co152 2.021 . S
H172 C163 0.930 . S
H173 C162 0.931 . S
O174 Co150 2.117 1_556 S
O174 C151 1.258 . S
O175 Co150 2.020 . S
O175 C177 1.256 1_554 S
O176 Co152 2.062 . S
O176 C177 1.255 . S
C177 O175 1.256 1_556 S
C177 O176 1.255 . S
H178 C157 0.931 . S
H179 C165 0.931 . S
Co180 N185 2.057 . S
Co180 O197 2.021 . S
Co180 O200 2.062 . S
Co180 O204 2.117 . S
Co180 O205 2.020 . S
C181 O201 1.259 . S
C181 O204 1.258 . S
Co182 N191 2.057 . S
Co182 O198 2.117 . S
Co182 O199 2.020 . S
Co182 O201 2.021 . S
Co182 O206 2.062 . S
C183 N185 1.316 . S
C183 N186 1.347 1_655 S
C183 H188 0.931 . S
C184 N185 1.375 . S
C184 C187 1.350 1_655 S
C184 H189 0.930 . S
N185 Co180 2.057 . S
N185 C183 1.316 . S
N185 C184 1.375 . S
N186 C183 1.347 1_455 S
N186 C187 1.373 . S
C187 C184 1.350 1_455 S
C187 N186 1.373 . S
C187 H208 0.931 . S
H188 C183 0.931 . S
H189 C184 0.930 . S
C190 O197 1.259 . S
C190 O198 1.258 . S
N191 Co182 2.057 . S
N191 C192 1.316 . S
N191 C193 1.375 . S
C192 N191 1.316 . S
C192 N194 1.347 . S
C192 H203 0.931 . S
C193 N191 1.375 . S
C193 C195 1.350 . S
C193 H202 0.930 . S
N194 C192 1.347 . S
N194 C195 1.373 . S
C195 C193 1.350 . S
C195 N194 1.373 . S
C195 H209 0.931 . S
C196 O199 1.256 . S
C196 O200 1.255 . S
O197 Co180 2.021 . S
O197 C190 1.259 . S
O198 Co182 2.117 . S
O198 C190 1.258 . S
O199 Co182 2.020 . S
O199 C196 1.256 . S
O200 Co180 2.062 . S
O200 C196 1.255 . S
O201 C181 1.259 . S
O201 Co182 2.021 . S
H202 C193 0.930 . S
H203 C192 0.931 . S
O204 Co180 2.117 . S
O204 C181 1.258 . S
O205 Co180 2.020 . S
O205 C207 1.256 . S
O206 Co182 2.062 . S
O206 C207 1.255 . S
C207 O205 1.256 . S
C207 O206 1.255 . S
H208 C187 0.931 . S
H209 C195 0.931 . S
Co210 N215 2.057 . S
Co210 O227 2.021 . S
Co210 O230 2.062 . S
Co210 O234 2.117 . S
Co210 O235 2.020 . S
C211 O231 1.259 . S
C211 O234 1.258 . S
Co212 N221 2.057 . S
Co212 O228 2.117 . S
Co212 O229 2.020 . S
Co212 O231 2.021 . S
Co212 O236 2.062 . S
C213 N215 1.316 . S
C213 N216 1.347 . S
C213 H218 0.931 . S
C214 N215 1.375 . S
C214 C217 1.350 . S
C214 H219 0.930 . S
N215 Co210 2.057 . S
N215 C213 1.316 . S
N215 C214 1.375 . S
N216 C213 1.347 . S
N216 C217 1.373 . S
C217 C214 1.350 . S
C217 N216 1.373 . S
C217 H238 0.931 . S
H218 C213 0.931 . S
H219 C214 0.930 . S
C220 O227 1.259 . S
C220 O228 1.258 . S
N221 Co212 2.057 . S
N221 C222 1.316 . S
N221 C223 1.375 . S
C222 N221 1.316 . S
C222 N224 1.347 1_455 S
C222 H233 0.931 . S
C223 N221 1.375 . S
C223 C225 1.350 1_455 S
C223 H232 0.930 . S
N224 C222 1.347 1_655 S
N224 C225 1.373 . S
C225 C223 1.350 1_655 S
C225 N224 1.373 . S
C225 H239 0.931 . S
C226 O229 1.256 . S
C226 O230 1.255 . S
O227 Co210 2.021 . S
O227 C220 1.259 . S
O228 Co212 2.117 . S
O228 C220 1.258 . S
O229 Co212 2.020 . S
O229 C226 1.256 . S
O230 Co210 2.062 . S
O230 C226 1.255 . S
O231 C211 1.259 . S
O231 Co212 2.021 . S
H232 C223 0.930 . S
H233 C222 0.931 . S
O234 Co210 2.117 . S
O234 C211 1.258 . S
O235 Co210 2.020 . S
O235 C237 1.256 . S
O236 Co212 2.062 . S
O236 C237 1.255 . S
C237 O235 1.256 . S
C237 O236 1.255 . S
H238 C217 0.931 . S
H239 C225 0.931 . S
N14 N6 2.329 1_554 S
N44 N36 2.329 1_554 S
N74 N66 2.329 . S
N104 N96 2.329 . S
N134 N126 2.329 1_554 S
N156 N164 2.329 1_556 S
N194 N186 2.329 . S
N216 N224 2.329 . S
C57 C16 1.696 1_456 S
C106 C87 1.696 1_455 S
C136 C177 1.696 1_564 S
C207 C226 1.696 1_545 S
C27 C166 2.999 1_556 S
C147 C46 2.999 1_556 S
C76 C237 2.999 . S
C117 C196 2.999 . S
C10 C100 1.954 1_455 S
C40 C70 2.150 1_655 S
C31 C61 1.954 1_655 S
C91 C1 2.150 1_655 S
C130 C220 1.954 . S
C160 C190 2.150 . S
C151 C181 1.954 . S
C211 C121 2.150 . S
