# Generated by pormake.
# Topology lcy, (6)-cn, num edge types: 1
# Building blocks:
#     Node 0, Type 0, BuildingBlock: UKALOJ_clean_sbu_0, # of connection points: 6
#     Node 1, Type 0, BuildingBlock: UKALOJ_clean_sbu_0, # of connection points: 6
#     Node 2, Type 0, BuildingBlock: UKALOJ_clean_sbu_0, # of connection points: 6
#     Node 3, Type 0, BuildingBlock: UKALOJ_clean_sbu_0, # of connection points: 6
#     Edge 4, Type (0, 0), None
#     Edge 5, Type (0, 0), None
#     Edge 6, Type (0, 0), None
#     Edge 7, Type (0, 0), None
#     Edge 8, Type (0, 0), None
#     Edge 9, Type (0, 0), None
#     Edge 10, Type (0, 0), None
#     Edge 11, Type (0, 0), None
#     Edge 12, Type (0, 0), None
#     Edge 13, Type (0, 0), None
#     Edge 14, Type (0, 0), None
#     Edge 15, Type (0, 0), None
# Relax obj value: 0.465
# Max RMSD: 0.335
# Mean RMSD: 0.281
data_MOF--net-lcy--node1-UKALOJ_clean_sbu_0--edge1-none
_symmetry_space_group_name_H-M    P1
_symmetry_Int_Tables_number       1
_symmetry_cell_setting            triclinic
loop_
_symmetry_equiv_pos_as_xyz
'x, y, z'
_cell_length_a     14.045343
_cell_length_b     11.852933
_cell_length_c     13.782184
_cell_angle_alpha  86.733905
_cell_angle_beta   106.03975
_cell_angle_gamma 104.89599
loop_
_atom_site_label
_atom_site_type_symbol
_atom_site_fract_x
_atom_site_fract_y
_atom_site_fract_z
_atom_type_partial_charge
Zn0 Zn 0.33825 0.54545 0.34054 0.0
O1 O 0.25986 0.58379 0.42928 0.0
C2 C 0.45187 0.77946 0.34118 0.0
Zn3 Zn 0.46892 0.56537 0.46463 0.0
C4 C 0.30834 0.63763 0.51321 0.0
O5 O 0.4055 0.652 0.54934 0.0
C6 C 0.48763 0.46794 0.28317 0.0
O7 O 0.4035 0.41155 0.5331 0.0
O8 O 0.2981 0.37028 0.38412 0.0
N9 N 0.62078 0.58651 0.55276 0.0
C10 C 0.65268 0.48865 0.58077 0.0
C11 C 0.76122 0.5936 0.50998 0.0
N12 N 0.69062 0.65266 0.51113 0.0
N13 N 0.73664 0.48727 0.54949 0.0
C14 C 0.19672 0.56203 0.14392 0.0
C15 C 0.22176 0.4263 0.06513 0.0
N16 N 0.22569 0.48643 0.21316 0.0
N17 N 0.23801 0.39985 0.16413 0.0
N18 N 0.19904 0.53012 0.05126 0.0
H19 H 0.18186 0.67689 0.25333 0.0
H20 H 0.09024 0.6661 0.13715 0.0
H21 H 0.21796 0.74955 0.14332 0.0
C22 C 0.17158 0.6704 0.17103 0.0
C23 C 0.60603 0.40028 0.64768 0.0
H24 H 0.55739 0.43609 0.68256 0.0
H25 H 0.6671 0.37647 0.70932 0.0
H26 H 0.55924 0.32068 0.60262 0.0
O27 O 0.51868 0.4654 0.3776 0.0
O28 O 0.42354 0.52486 0.24579 0.0
C29 C 0.31607 0.35711 0.47877 0.0
O30 O 0.36367 0.71658 0.30424 0.0
O31 O 0.51897 0.73026 0.39538 0.0
Zn32 Zn 0.93706 0.24772 0.58085 0.0
O33 O 0.86692 0.40355 0.53381 0.0
C34 C 0.94843 0.38177 0.75705 0.0
Zn35 Zn 0.80124 0.17356 0.64488 0.0
C36 C 0.78005 0.39515 0.55314 0.0
O37 O 0.73404 0.29874 0.58247 0.0
C38 C 0.94833 1.01063 0.68907 0.0
O39 O 0.73142 0.07113 0.49205 0.0
O40 O 0.86432 0.16554 0.43746 0.0
N41 N 0.69335 0.12136 0.73682 0.0
C42 C 0.71838 0.11584 0.8402 0.0
C43 C 0.56374 0.12652 0.79293 0.0
N44 N 0.59691 0.12868 0.70885 0.0
N45 N 0.63876 0.11943 0.87723 0.0
C46 C 0.13267 0.30916 0.48084 0.0
C47 C 0.24767 0.33523 0.62162 0.0
N48 N 0.08365 0.30547 0.5539 0.0
N49 N 0.15654 0.32067 0.64044 0.0
N50 N 0.23613 0.32709 0.52198 0.0
H51 H 0.99542 0.27639 0.35632 0.0
H52 H 0.10155 0.22875 0.33607 0.0
H53 H 0.10383 0.38101 0.33313 0.0
C54 C 0.0795 0.29728 0.37027 0.0
C55 C 0.82613 0.13728 0.90661 0.0
H56 H 0.82967 0.08349 0.97472 0.0
H57 H 0.85174 0.22911 0.93449 0.0
H58 H 0.87986 0.12175 0.86681 0.0
O59 O 0.87287 1.03203 0.71238 0.0
O60 O 0.99335 0.08618 0.63579 0.0
C61 C 0.77622 0.095 0.41932 0.0
O62 O 1.00677 0.3471 0.71633 0.0
O63 O 0.86715 0.30836 0.76228 0.0
Zn64 Zn 0.03469 0.73328 0.8837 0.0
O65 O 0.17069 0.88141 0.96014 0.0
C66 C 0.98474 0.90256 0.73065 0.0
Zn67 Zn 0.12526 0.71819 0.78761 0.0
C68 C 0.25461 0.88936 0.93469 0.0
O69 O 0.25074 0.83692 0.85691 0.0
C70 C 0.95869 0.51172 0.76141 0.0
O71 O 0.19294 0.58073 0.88283 0.0
O72 O 0.10892 0.64548 0.96767 0.0
N73 N 0.18346 0.71502 0.67559 0.0
C74 C 0.26815 0.69477 0.6611 0.0
C75 C 0.16028 0.69489 0.51681 0.0
N76 N 0.11782 0.71794 0.58632 0.0
N77 N 0.25392 0.67952 0.56172 0.0
C78 C 0.89201 0.76313 0.01104 0.0
C79 C 0.84416 0.58473 0.05293 0.0
N80 N 0.95084 0.70486 0.98434 0.0
N81 N 0.92109 0.5944 0.01066 0.0
N82 N 0.82334 0.68885 0.05153 0.0
H83 H 0.9931 0.93368 0.02226 0.0
H84 H 0.87783 0.92481 0.0608 0.0
H85 H 0.87376 0.9159 0.92822 0.0
C86 C 0.9098 0.8923 0.00601 0.0
C87 C 0.35597 0.67248 0.74377 0.0
H88 H 0.34936 0.69152 0.81905 0.0
H89 H 0.42899 0.72809 0.73322 0.0
H90 H 0.35811 0.57993 0.73981 0.0
O91 O 1.0128 0.57729 0.71133 0.0
O92 O 0.92953 0.56126 0.82318 0.0
C93 C 0.16742 0.58513 0.96461 0.0
O94 O 0.94786 0.84533 0.79802 0.0
O95 O 0.05489 0.86822 0.70601 0.0
Zn96 Zn 0.58162 0.93329 0.12328 0.0
O97 O 0.43617 0.89719 0.9949 0.0
C98 C 0.62896 0.10025 0.97445 0.0
Zn99 Zn 0.52588 0.06778 0.15316 0.0
C100 C 0.35959 0.93569 0.0014 0.0
O101 O 0.3738 1.00805 0.07027 0.0
C102 C 0.71915 0.06578 0.30945 0.0
O103 O 0.48337 0.9791 0.28428 0.0
O104 O 0.50262 0.83618 0.20315 0.0
N105 N 0.49794 0.21781 0.17048 0.0
C106 C 0.52005 0.28528 0.25235 0.0
C107 C 0.46483 0.38238 0.12316 0.0
N108 N 0.46537 0.27836 0.09004 0.0
N109 N 0.50016 0.38919 0.22453 0.0
C110 C 0.67936 0.77597 0.04125 0.0
C111 C 0.72734 0.68104 0.17516 0.0
N112 N 0.62705 0.79096 0.10534 0.0
N113 N 0.65599 0.73123 0.18792 0.0
N114 N 0.74441 0.71076 0.08496 0.0
H115 H 0.57338 0.8161 0.90639 0.0
H116 H 0.66124 0.73675 0.88577 0.0
H117 H 0.70479 0.88864 0.91848 0.0
C118 C 0.65285 0.80582 0.93159 0.0
C119 C 0.55093 0.24583 0.35917 0.0
H120 H 0.56977 0.16096 0.3655 0.0
H121 H 0.48821 0.24002 0.39511 0.0
H122 H 0.61877 0.31154 0.40094 0.0
O123 O 0.67566 0.13861 0.25583 0.0
O124 O 0.70627 0.96789 0.26798 0.0
C125 C 0.48294 0.87196 0.27685 0.0
O126 O 0.67289 1.02991 0.03027 0.0
O127 O 0.56309 0.13465 0.00544 0.0
loop_
_geom_bond_atom_site_label_1
_geom_bond_atom_site_label_2
_geom_bond_distance
_geom_bond_site_symmetry_2
_ccdc_geom_bond_type
Zn0 O1 2.055 . S
Zn0 O8 2.046 . S
Zn0 N16 2.036 . S
Zn0 O28 2.053 . S
Zn0 O30 2.066 . S
O1 Zn0 2.055 . S
O1 C4 1.259 . S
C2 O30 1.256 . S
C2 O31 1.244 . S
Zn3 O5 2.046 . S
Zn3 O7 2.055 . S
Zn3 N9 2.036 . S
Zn3 O27 2.066 . S
Zn3 O31 2.053 . S
C4 O1 1.259 . S
C4 O5 1.254 . S
O5 Zn3 2.046 . S
O5 C4 1.254 . S
C6 O27 1.256 . S
C6 O28 1.244 . S
O7 Zn3 2.055 . S
O7 C29 1.259 . S
O8 Zn0 2.046 . S
O8 C29 1.254 . S
N9 Zn3 2.036 . S
N9 C10 1.298 . S
N9 N12 1.398 . S
C10 N9 1.298 . S
C10 N13 1.367 . S
C10 C23 1.481 . S
C11 N12 1.299 . S
C11 N13 1.379 . S
N12 N9 1.398 . S
N12 C11 1.299 . S
N13 C10 1.367 . S
N13 C11 1.379 . S
C14 N16 1.298 . S
C14 N18 1.367 . S
C14 C22 1.481 . S
C15 N17 1.299 . S
C15 N18 1.379 . S
N16 Zn0 2.036 . S
N16 C14 1.298 . S
N16 N17 1.398 . S
N17 C15 1.299 . S
N17 N16 1.398 . S
N18 C14 1.367 . S
N18 C15 1.379 . S
H19 C22 0.980 . S
H20 C22 0.981 . S
H21 C22 0.981 . S
C22 C14 1.481 . S
C22 H19 0.980 . S
C22 H20 0.981 . S
C22 H21 0.981 . S
C23 C10 1.481 . S
C23 H24 0.980 . S
C23 H25 0.981 . S
C23 H26 0.981 . S
H24 C23 0.980 . S
H25 C23 0.981 . S
H26 C23 0.981 . S
O27 Zn3 2.066 . S
O27 C6 1.256 . S
O28 Zn0 2.053 . S
O28 C6 1.244 . S
C29 O7 1.259 . S
C29 O8 1.254 . S
O30 Zn0 2.066 . S
O30 C2 1.256 . S
O31 C2 1.244 . S
O31 Zn3 2.053 . S
Zn32 O33 2.055 . S
Zn32 O40 2.046 . S
Zn32 N48 2.036 1_655 S
Zn32 O60 2.053 . S
Zn32 O62 2.066 1_655 S
O33 Zn32 2.055 . S
O33 C36 1.259 . S
C34 O62 1.256 1_655 S
C34 O63 1.244 . S
Zn35 O37 2.046 . S
Zn35 O39 2.054 1_545 S
Zn35 N41 2.036 . S
Zn35 O59 2.066 . S
Zn35 O63 2.053 . S
C36 O33 1.259 . S
C36 O37 1.254 . S
O37 Zn35 2.046 . S
O37 C36 1.254 . S
C38 O59 1.256 . S
C38 O60 1.244 . S
O39 Zn35 2.054 1_565 S
O39 C61 1.259 . S
O40 Zn32 2.046 . S
O40 C61 1.254 1_545 S
N41 Zn35 2.036 . S
N41 C42 1.298 1_545 S
N41 N44 1.398 . S
C42 N41 1.298 1_565 S
C42 N45 1.367 . S
C42 C55 1.481 . S
C43 N44 1.299 . S
C43 N45 1.379 1_545 S
N44 N41 1.398 . S
N44 C43 1.299 . S
N45 C42 1.367 . S
N45 C43 1.379 1_565 S
C46 N48 1.298 . S
C46 N50 1.367 . S
C46 C54 1.481 . S
C47 N49 1.299 . S
C47 N50 1.379 . S
N48 Zn32 2.036 1_455 S
N48 C46 1.298 . S
N48 N49 1.398 . S
N49 C47 1.299 . S
N49 N48 1.398 . S
N50 C46 1.367 . S
N50 C47 1.379 . S
H51 C54 0.980 1_655 S
H52 C54 0.981 . S
H53 C54 0.981 . S
C54 C46 1.481 . S
C54 H51 0.980 1_455 S
C54 H52 0.981 . S
C54 H53 0.981 . S
C55 C42 1.481 . S
C55 H56 0.980 . S
C55 H57 0.981 . S
C55 H58 0.981 . S
H56 C55 0.980 . S
H57 C55 0.981 . S
H58 C55 0.981 . S
O59 Zn35 2.066 . S
O59 C38 1.256 . S
O60 Zn32 2.053 . S
O60 C38 1.244 . S
C61 O39 1.259 . S
C61 O40 1.254 1_565 S
O62 Zn32 2.066 1_455 S
O62 C34 1.256 1_455 S
O63 C34 1.244 . S
O63 Zn35 2.053 . S
Zn64 O65 2.055 . S
Zn64 O72 2.046 . S
Zn64 N80 2.036 1_455 S
Zn64 O92 2.053 1_455 S
Zn64 O94 2.066 . S
O65 Zn64 2.055 . S
O65 C68 1.259 . S
C66 O94 1.256 . S
C66 O95 1.244 . S
Zn67 O69 2.046 . S
Zn67 O71 2.055 . S
Zn67 N73 2.036 . S
Zn67 O91 2.066 . S
Zn67 O95 2.053 . S
C68 O65 1.259 . S
C68 O69 1.254 . S
O69 Zn67 2.046 . S
O69 C68 1.254 . S
C70 O91 1.256 1_655 S
C70 O92 1.244 . S
O71 Zn67 2.055 . S
O71 C93 1.259 . S
O72 Zn64 2.046 . S
O72 C93 1.254 . S
N73 Zn67 2.036 . S
N73 C74 1.298 . S
N73 N76 1.398 . S
C74 N73 1.298 . S
C74 N77 1.367 . S
C74 C87 1.481 . S
C75 N76 1.299 . S
C75 N77 1.379 . S
N76 N73 1.398 . S
N76 C75 1.299 . S
N77 C74 1.367 . S
N77 C75 1.379 . S
C78 N80 1.298 . S
C78 N82 1.367 1_556 S
C78 C86 1.481 1_656 S
C79 N81 1.299 . S
C79 N82 1.379 1_556 S
N80 Zn64 2.036 1_655 S
N80 C78 1.298 . S
N80 N81 1.398 . S
N81 C79 1.299 . S
N81 N80 1.398 . S
N82 C78 1.367 1_554 S
N82 C79 1.379 1_554 S
H83 C86 0.980 . S
H84 C86 0.981 . S
H85 C86 0.981 1_656 S
C86 C78 1.481 1_454 S
C86 H83 0.980 . S
C86 H84 0.981 . S
C86 H85 0.981 1_454 S
C87 C74 1.481 . S
C87 H88 0.980 . S
C87 H89 0.981 . S
C87 H90 0.981 . S
H88 C87 0.980 . S
H89 C87 0.981 . S
H90 C87 0.981 . S
O91 Zn67 2.066 . S
O91 C70 1.256 1_455 S
O92 Zn64 2.053 1_655 S
O92 C70 1.244 . S
C93 O71 1.259 . S
C93 O72 1.254 . S
O94 Zn64 2.066 . S
O94 C66 1.256 . S
O95 C66 1.244 . S
O95 Zn67 2.053 . S
Zn96 O97 2.055 . S
Zn96 O104 2.046 . S
Zn96 N112 2.036 . S
Zn96 O124 2.053 . S
Zn96 O126 2.066 . S
O97 Zn96 2.055 . S
O97 C100 1.259 . S
C98 O126 1.256 1_545 S
C98 O127 1.244 . S
Zn99 O101 2.046 . S
Zn99 O103 2.055 . S
Zn99 N105 2.036 1_565 S
Zn99 O123 2.066 1_565 S
Zn99 O127 2.053 1_565 S
C100 O97 1.259 . S
C100 O101 1.254 . S
O101 Zn99 2.046 . S
O101 C100 1.254 . S
C102 O123 1.256 1_565 S
C102 O124 1.244 . S
O103 Zn99 2.055 . S
O103 C125 1.259 . S
O104 Zn96 2.046 . S
O104 C125 1.254 . S
N105 Zn99 2.036 1_545 S
N105 C106 1.298 . S
N105 N108 1.398 . S
C106 N105 1.298 . S
C106 N109 1.367 . S
C106 C119 1.481 . S
C107 N108 1.299 . S
C107 N109 1.379 . S
N108 N105 1.398 . S
N108 C107 1.299 . S
N109 C106 1.367 . S
N109 C107 1.379 . S
C110 N112 1.298 . S
C110 N114 1.367 . S
C110 C118 1.481 1_554 S
C111 N113 1.299 . S
C111 N114 1.379 . S
N112 Zn96 2.036 . S
N112 C110 1.298 . S
N112 N113 1.398 . S
N113 C111 1.299 . S
N113 N112 1.398 . S
N114 C110 1.367 . S
N114 C111 1.379 . S
H115 C118 0.980 . S
H116 C118 0.981 . S
H117 C118 0.981 . S
C118 C110 1.481 1_556 S
C118 H115 0.980 . S
C118 H116 0.981 . S
C118 H117 0.981 . S
C119 C106 1.481 . S
C119 H120 0.980 1_545 S
C119 H121 0.981 . S
C119 H122 0.981 . S
H120 C119 0.980 1_565 S
H121 C119 0.981 . S
H122 C119 0.981 . S
O123 Zn99 2.066 1_545 S
O123 C102 1.256 1_545 S
O124 Zn96 2.053 . S
O124 C102 1.244 . S
C125 O103 1.259 . S
C125 O104 1.254 . S
O126 Zn96 2.066 . S
O126 C98 1.256 1_565 S
O127 C98 1.244 . S
O127 Zn99 2.053 1_545 S
C93 N18 1.889 1_556 S
C102 C61 2.519 . S
N77 C4 0.891 . S
C98 N45 2.068 1_544 S
N50 C29 1.485 . S
C66 C38 3.054 1_465 S
C68 C100 2.123 1_556 S
C6 N109 2.015 . S
C36 N13 2.583 . S
C70 C34 3.291 . S
N82 N114 1.592 . S
C125 C2 2.102 . S
