# Generated by pormake.
# Topology bcu, (8)-cn, num edge types: 1
# Building blocks:
#     Node 0, Type 0, BuildingBlock: AJUNOK_clean_sbu_0, # of connection points: 8
#     Node 1, Type 0, BuildingBlock: AJUNOK_clean_sbu_0, # of connection points: 8
#     Edge 2, Type (0, 0), None
#     Edge 3, Type (0, 0), None
#     Edge 4, Type (0, 0), None
#     Edge 5, Type (0, 0), None
#     Edge 6, Type (0, 0), None
#     Edge 7, Type (0, 0), None
#     Edge 8, Type (0, 0), None
#     Edge 9, Type (0, 0), None
# Relax obj value: 0.032
# Max RMSD: 0.142
# Mean RMSD: 0.142
data_MOF--net-bcu--node1-AJUNOK_clean_sbu_0--edge1-none
_symmetry_space_group_name_H-M    P1
_symmetry_Int_Tables_number       1
_symmetry_cell_setting            triclinic
loop_
_symmetry_equiv_pos_as_xyz
'x, y, z'
_cell_length_a     13.77053
_cell_length_b     13.771962
_cell_length_c     10.772271
_cell_angle_alpha  108.88895
_cell_angle_beta   108.88912
_cell_angle_gamma 115.35917
loop_
_atom_site_label
_atom_site_type_symbol
_atom_site_fract_x
_atom_site_fract_y
_atom_site_fract_z
_atom_type_partial_charge
Cd0 Cd 0.91929 0.91312 0.14907 0.0
Cd1 Cd -0.0008 -0.00665 0.77651 0.0
C2 C 0.12361 0.87317 0.32762 0.0
N3 N 0.04501 0.84157 0.18344 0.0
C4 C 0.09442 0.70491 0.06694 0.0
C5 C 0.17528 0.73352 0.21405 0.0
C6 C 0.18969 0.8199 0.34571 0.0
C7 C 0.02904 0.75898 0.05422 0.0
H8 H 0.13252 0.93734 0.42812 0.0
H9 H -0.03562 0.734 0.94064 0.0
C10 C 0.76913 0.76155 0.73945 0.0
C11 C 0.76131 0.00255 0.62004 0.0
C12 C 0.69312 0.05388 0.60605 0.0
C13 C 0.74355 0.17407 0.73012 0.0
C14 C 0.86118 0.2371 0.86779 0.0
C15 C 0.92516 0.18137 0.8773 0.0
N16 N 0.87507 0.06691 0.75406 0.0
H17 H 0.72442 0.91225 0.52317 0.0
H18 H 0.01665 0.23087 -0.01805 0.0
C19 C 0.03933 0.78923 0.59774 0.0
N20 N 0.07065 0.86753 0.74188 0.0
C21 C 0.207 0.81781 0.85832 0.0
C22 C 0.17871 0.73728 0.71128 0.0
C23 C 0.09261 0.72316 0.57967 0.0
C24 C 0.15293 0.88319 0.87104 0.0
H25 H -0.02461 0.78055 0.49729 0.0
H26 H 0.1777 0.94762 -0.0154 0.0
C27 C 0.1511 0.14319 0.18613 0.0
C28 C 0.75245 0.74853 0.20202 0.0
N29 N 0.84575 0.03727 0.17176 0.0
C30 C 0.91026 0.15118 0.30563 0.0
C31 C 0.85891 0.21935 0.31959 0.0
C32 C 0.73857 0.16877 0.19565 0.0
C33 C 0.67539 0.05099 0.05814 0.0
C34 C 0.73113 -0.01298 0.04864 0.0
C35 C 0.1637 0.16031 0.72359 0.0
O36 O 0.85154 0.84453 0.88271 0.0
O37 O 0.79263 0.78471 0.64392 0.0
O38 O 0.068 0.0609 0.04287 0.0
O39 O 0.12806 0.11956 0.28165 0.0
O40 O 0.72877 0.71983 0.06697 0.0
O41 O 0.85599 0.85601 0.31665 0.0
O42 O 0.19252 0.18384 0.85861 0.0
O43 O 0.05614 0.05686 0.60897 0.0
H44 H 0.0007 0.18822 0.40239 0.0
H45 H 0.68154 0.89544 0.94411 0.0
H46 H 0.08158 0.64191 0.96178 0.0
H47 H 0.24857 0.84412 0.46154 0.0
H48 H 0.60212 -0.00056 0.49843 0.0
H49 H 0.90592 0.33024 -0.03374 0.0
H50 H 0.26977 0.83042 -0.03656 0.0
H51 H 0.06863 0.66451 0.46389 0.0
H52 H 0.91346 0.31047 0.42708 0.0
H53 H 0.58214 0.00614 0.95978 0.0
Cd54 Cd 0.41922 0.41337 0.64925 0.0
Cd55 Cd 0.4993 0.49308 0.27634 0.0
C56 C 0.62355 0.37349 0.82834 0.0
N57 N 0.54519 0.34211 0.68418 0.0
C58 C 0.5949 0.20573 0.56779 0.0
C59 C 0.67545 0.23404 0.71484 0.0
C60 C 0.68963 0.32022 0.84645 0.0
C61 C 0.52952 0.25979 0.55504 0.0
H62 H 0.63225 0.43747 0.92878 0.0
H63 H 0.46506 0.23498 0.44146 0.0
C64 C 0.26928 0.26136 0.23959 0.0
C65 C 0.2612 0.50203 0.11962 0.0
C66 C 0.19296 0.5533 0.10553 0.0
C67 C 0.2435 0.67366 0.22937 0.0
C68 C 0.36132 0.73694 0.36689 0.0
C69 C 0.42536 0.68127 0.37652 0.0
N70 N 0.37513 0.56662 0.25352 0.0
H71 H 0.22418 0.41157 0.02294 0.0
H72 H 0.51696 0.73093 0.48107 0.0
C73 C 0.53897 0.28857 0.0973 0.0
N74 N 0.5705 0.36709 0.24147 0.0
C75 C 0.70707 0.31759 0.35797 0.0
C76 C 0.67859 0.23686 0.2109 0.0
C77 C 0.59225 0.2225 0.07923 0.0
C78 C 0.65298 0.38294 0.37067 0.0
H79 H 0.47488 0.27975 -0.00318 0.0
H80 H 0.67789 0.44754 0.48424 0.0
C81 C 0.65096 0.64338 0.686 0.0
C82 C 0.25223 0.24883 0.70211 0.0
N83 N 0.34571 0.53754 0.67195 0.0
C84 C 0.41012 0.65129 0.80599 0.0
C85 C 0.35882 0.7195 0.82004 0.0
C86 C 0.23861 0.66911 0.696 0.0
C87 C 0.17552 0.55147 0.55834 0.0
C88 C 0.23122 0.48746 0.54876 0.0
C89 C 0.66397 0.65998 0.22352 0.0
O90 O 0.35158 0.34447 0.38285 0.0
O91 O 0.29291 0.28435 0.14404 0.0
O92 O 0.56796 0.56096 0.54274 0.0
O93 O 0.62785 0.61987 0.78155 0.0
O94 O 0.22875 0.21999 0.56709 0.0
O95 O 0.35565 0.35641 0.81673 0.0
O96 O 0.69312 0.6831 0.35849 0.0
O97 O 0.55607 0.55692 0.10894 0.0
H98 H 0.50044 0.68817 0.90282 0.0
H99 H 0.18169 0.39598 0.4441 0.0
H100 H 0.58226 0.14293 0.46267 0.0
H101 H 0.74831 0.34425 0.96225 0.0
H102 H 0.10182 0.4987 -0.00198 0.0
H103 H 0.40616 0.83021 0.46519 0.0
H104 H 0.77 0.33037 0.46313 0.0
H105 H 0.56812 0.16369 -0.03658 0.0
H106 H 0.41328 0.8105 0.92767 0.0
H107 H 0.08236 0.50675 0.4599 0.0
loop_
_geom_bond_atom_site_label_1
_geom_bond_atom_site_label_2
_geom_bond_distance
_geom_bond_site_symmetry_2
_ccdc_geom_bond_type
Cd0 N3 2.334 1_655 S
Cd0 N29 2.304 1_565 S
Cd0 O36 2.268 1_554 S
Cd0 O39 2.273 1_665 S
Cd0 O40 2.417 . S
Cd0 O41 2.330 . S
Cd1 N16 2.304 1_455 S
Cd1 N20 2.334 1_545 S
Cd1 O37 2.273 1_445 S
Cd1 O38 2.268 1_556 S
Cd1 O42 2.417 . S
Cd1 O43 2.330 . S
C2 N3 1.332 . S
C2 C6 1.381 . S
C2 H8 0.931 1_565 S
N3 Cd0 2.334 1_455 S
N3 C2 1.332 . S
N3 C7 1.328 . S
C4 C5 1.396 . S
C4 C7 1.378 . S
C4 H46 0.931 1_554 S
C5 C4 1.396 . S
C5 C6 1.382 . S
C6 C2 1.381 . S
C6 C5 1.382 . S
C6 H47 0.930 . S
C7 N3 1.328 . S
C7 C4 1.378 . S
C7 H9 0.930 1_454 S
H8 C2 0.931 1_545 S
H9 C7 0.930 1_656 S
C10 O36 1.238 . S
C10 O37 1.253 . S
C11 C12 1.379 . S
C11 N16 1.337 . S
C11 H17 0.929 . S
C12 C11 1.379 . S
C12 C13 1.380 . S
C12 H48 0.929 . S
C13 C12 1.380 . S
C13 C14 1.399 . S
C14 C13 1.399 . S
C14 C15 1.373 1_655 S
C14 H49 0.931 1_556 S
C15 C14 1.373 1_455 S
C15 N16 1.339 1_455 S
C15 H18 0.931 1_556 S
N16 Cd1 2.304 1_655 S
N16 C11 1.337 . S
N16 C15 1.339 1_655 S
H17 C11 0.929 . S
H18 C15 0.931 1_554 S
C19 N20 1.332 . S
C19 C23 1.381 . S
C19 H25 0.931 1_455 S
N20 Cd1 2.334 1_565 S
N20 C19 1.332 . S
N20 C24 1.328 . S
C21 C22 1.396 . S
C21 C24 1.378 . S
C21 H50 0.931 1_556 S
C22 C21 1.396 . S
C22 C23 1.382 . S
C23 C19 1.381 . S
C23 C22 1.382 . S
C23 H51 0.930 . S
C24 N20 1.328 . S
C24 C21 1.378 . S
C24 H26 0.930 1_566 S
H25 C19 0.931 1_655 S
H26 C24 0.930 1_544 S
C27 O38 1.238 . S
C27 O39 1.253 . S
C28 O40 1.239 . S
C28 O41 1.230 . S
N29 Cd0 2.304 1_545 S
N29 C30 1.337 . S
N29 C34 1.338 1_545 S
C30 N29 1.337 . S
C30 C31 1.379 . S
C30 H44 0.929 . S
C31 C30 1.379 . S
C31 C32 1.380 . S
C31 H52 0.929 . S
C32 C31 1.380 . S
C32 C33 1.399 . S
C33 C32 1.399 . S
C33 C34 1.376 1_545 S
C33 H53 0.931 1_554 S
C34 N29 1.338 1_565 S
C34 C33 1.376 1_565 S
C34 H45 0.930 1_554 S
C35 O42 1.239 . S
C35 O43 1.230 . S
O36 Cd0 2.268 1_556 S
O36 C10 1.238 . S
O37 Cd1 2.273 1_665 S
O37 C10 1.253 . S
O38 Cd1 2.268 1_554 S
O38 C27 1.238 . S
O39 Cd0 2.273 1_445 S
O39 C27 1.253 . S
O40 Cd0 2.417 . S
O40 C28 1.239 . S
O41 Cd0 2.330 . S
O41 C28 1.230 . S
O42 Cd1 2.417 . S
O42 C35 1.239 . S
O43 Cd1 2.330 . S
O43 C35 1.230 . S
H44 C30 0.929 . S
H45 C34 0.930 1_556 S
H46 C4 0.931 1_556 S
H47 C6 0.930 . S
H48 C12 0.929 . S
H49 C14 0.931 1_554 S
H50 C21 0.931 1_554 S
H51 C23 0.930 . S
H52 C31 0.929 . S
H53 C33 0.931 1_556 S
Cd54 N57 2.334 . S
Cd54 N83 2.304 . S
Cd54 O90 2.268 . S
Cd54 O93 2.273 . S
Cd54 O94 2.417 . S
Cd54 O95 2.330 . S
Cd55 N70 2.304 . S
Cd55 N74 2.334 . S
Cd55 O91 2.273 . S
Cd55 O92 2.268 . S
Cd55 O96 2.417 . S
Cd55 O97 2.330 . S
C56 N57 1.332 . S
C56 C60 1.381 . S
C56 H62 0.931 . S
N57 Cd54 2.334 . S
N57 C56 1.332 . S
N57 C61 1.328 . S
C58 C59 1.396 . S
C58 C61 1.378 . S
C58 H100 0.931 . S
C59 C58 1.396 . S
C59 C60 1.382 . S
C60 C56 1.381 . S
C60 C59 1.382 . S
C60 H101 0.930 . S
C61 N57 1.328 . S
C61 C58 1.378 . S
C61 H63 0.930 . S
H62 C56 0.931 . S
H63 C61 0.930 . S
C64 O90 1.238 . S
C64 O91 1.253 . S
C65 C66 1.379 . S
C65 N70 1.337 . S
C65 H71 0.929 . S
C66 C65 1.379 . S
C66 C67 1.380 . S
C66 H102 0.929 . S
C67 C66 1.380 . S
C67 C68 1.399 . S
C68 C67 1.399 . S
C68 C69 1.376 . S
C68 H103 0.931 . S
C69 C68 1.376 . S
C69 N70 1.338 . S
C69 H72 0.930 . S
N70 Cd55 2.304 . S
N70 C65 1.337 . S
N70 C69 1.338 . S
H71 C65 0.929 . S
H72 C69 0.930 . S
C73 N74 1.332 . S
C73 C77 1.381 . S
C73 H79 0.931 . S
N74 Cd55 2.334 . S
N74 C73 1.332 . S
N74 C78 1.328 . S
C75 C76 1.396 . S
C75 C78 1.378 . S
C75 H104 0.931 . S
C76 C75 1.396 . S
C76 C77 1.382 . S
C77 C73 1.381 . S
C77 C76 1.382 . S
C77 H105 0.930 . S
C78 N74 1.328 . S
C78 C75 1.378 . S
C78 H80 0.930 . S
H79 C73 0.931 . S
H80 C78 0.930 . S
C81 O92 1.238 . S
C81 O93 1.253 . S
C82 O94 1.239 . S
C82 O95 1.230 . S
N83 Cd54 2.304 . S
N83 C84 1.337 . S
N83 C88 1.338 . S
C84 N83 1.337 . S
C84 C85 1.379 . S
C84 H98 0.929 . S
C85 C84 1.379 . S
C85 C86 1.380 . S
C85 H106 0.929 . S
C86 C85 1.380 . S
C86 C87 1.399 . S
C87 C86 1.399 . S
C87 C88 1.376 . S
C87 H107 0.931 . S
C88 N83 1.338 . S
C88 C87 1.376 . S
C88 H99 0.930 . S
C89 O96 1.239 . S
C89 O97 1.230 . S
O90 Cd54 2.268 . S
O90 C64 1.238 . S
O91 Cd55 2.273 . S
O91 C64 1.253 . S
O92 Cd55 2.268 . S
O92 C81 1.238 . S
O93 Cd54 2.273 . S
O93 C81 1.253 . S
O94 Cd54 2.417 . S
O94 C82 1.239 . S
O95 Cd54 2.330 . S
O95 C82 1.230 . S
O96 Cd55 2.417 . S
O96 C89 1.239 . S
O97 Cd55 2.330 . S
O97 C89 1.230 . S
H98 C84 0.929 . S
H99 C88 0.930 . S
H100 C58 0.931 . S
H101 C60 0.930 . S
H102 C66 0.929 . S
H103 C68 0.931 . S
H104 C75 0.931 . S
H105 C77 0.930 . S
H106 C85 0.929 . S
H107 C87 0.931 . S
C27 C64 1.333 . S
C32 C76 2.043 . S
C28 C89 2.115 . S
C5 C67 2.043 . S
C22 C86 2.044 . S
C82 C35 2.113 . S
C13 C59 2.044 . S
C81 C10 1.334 . S
