# Generated by pormake.
# Topology pcu, (6)-cn, num edge types: 1
# Building blocks:
#     Node 0, Type 0, BuildingBlock: BETGAK_clean_sbu_0, # of connection points: 6
#     Edge 1, Type (0, 0), BuildingBlock: CIFDUS_clean_linker_0, # of connection points: 2
#     Edge 2, Type (0, 0), BuildingBlock: CIFDUS_clean_linker_0, # of connection points: 2
#     Edge 3, Type (0, 0), BuildingBlock: CIFDUS_clean_linker_0, # of connection points: 2
# Relax obj value: 0.000
# Max RMSD: 0.000
# Mean RMSD: 0.000
data_MOF--net-pcu--node1-BETGAK_clean_sbu_0--edge1-CIFDUS_clean_linker_0
_symmetry_space_group_name_H-M    P1
_symmetry_Int_Tables_number       1
_symmetry_cell_setting            triclinic
loop_
_symmetry_equiv_pos_as_xyz
'x, y, z'
_cell_length_a     13.49617
_cell_length_b     23.41871
_cell_length_c     12.51593
_cell_angle_alpha  96.634047
_cell_angle_beta   86.992951
_cell_angle_gamma 123.45645
loop_
_atom_site_label
_atom_site_type_symbol
_atom_site_fract_x
_atom_site_fract_y
_atom_site_fract_z
_atom_type_partial_charge
La0 La 0.10241 0.11338 1.02494 0.0
La1 La 0.97016 0.95984 0.02684 0.0
C2 C 0.17796 0.23314 0.98068 0.0
C3 C 0.14327 0.28344 1.0003 0.0
C4 C 0.18987 0.33347 0.08965 0.0
C5 C 0.16255 0.38331 0.10568 0.0
C6 C 0.08888 0.38474 0.03225 0.0
C7 C 0.04163 0.3345 0.94319 0.0
C8 C 0.06865 0.28445 0.92728 0.0
C9 C 0.06604 0.07045 0.21747 0.0
C10 C 0.8177 1.02221 0.03015 0.0
C11 C 0.89442 0.83995 0.07053 0.0
C12 C 0.92925 0.78971 0.05097 0.0
C13 C 0.88262 0.73963 0.9617 0.0
C14 C 0.91004 0.68983 0.94568 0.0
C15 C 0.98384 0.68849 1.01908 0.0
C16 C 1.03112 0.73877 0.10808 0.0
C17 C 1.004 0.78879 0.12396 0.0
C18 C 1.00659 1.00311 0.83442 0.0
C19 C 0.25485 0.051 1.02185 0.0
O20 O 0.21343 0.21999 0.06445 0.0
O21 O 0.11009 0.17742 0.91573 0.0
O22 O 0.15723 0.1287 0.19321 0.0
O23 O 0.99518 0.04214 0.13876 0.0
O24 O 0.91595 0.08035 1.0066 0.0
O25 O 0.82109 0.97054 0.05809 0.0
O26 O 0.85945 0.85327 0.98664 0.0
O27 O 0.96187 0.89554 0.13587 0.0
O28 O 0.91523 0.94489 0.85857 0.0
O29 O 0.07734 1.03103 0.91318 0.0
O30 O 0.15658 0.99287 0.04539 0.0
O31 O 0.25147 0.10266 0.99383 0.0
H32 H 0.24902 0.33482 0.14662 0.0
H33 H 0.20171 0.42186 0.17425 0.0
H34 H 0.98366 0.33387 0.88573 0.0
H35 H 1.03203 0.24703 0.85714 0.0
H36 H 0.82336 0.73821 0.90476 0.0
H37 H 0.87086 0.65124 0.87717 0.0
H38 H 0.08917 0.73946 0.16552 0.0
H39 H 0.04066 0.82625 0.19406 0.0
H40 H 0.20297 0.13459 0.39735 0.0
H41 H 0.8658 0.95608 0.28147 0.0
H42 H 0.81703 0.9197 0.46271 0.0
H43 H 0.86984 0.93911 0.65456 0.0
H44 H 0.20705 0.11751 0.77054 0.0
H45 H 0.25585 0.15396 0.58928 0.0
C46 C 0.11895 0.0877 0.41196 0.0
C47 C 0.03816 0.04797 0.32647 0.0
C48 C 0.0913 0.06736 0.51644 0.0
C49 C 0.92956 0.98737 0.34614 0.0
C50 C 0.90151 0.96664 0.44973 0.0
C51 C 0.95388 0.98599 0.63998 0.0
C52 C 1.03466 1.02568 0.72548 0.0
C53 C 0.98156 1.00632 0.53553 0.0
C54 C 0.1433 0.08626 0.70584 0.0
C55 C 0.17136 0.10702 0.60225 0.0
H56 H 0.29427 0.95269 0.05891 0.0
H57 H 0.47421 0.1621 0.97999 0.0
H58 H 0.66353 0.17152 0.97529 0.0
H59 H 0.77828 0.12054 0.99318 0.0
H60 H 0.59835 0.91112 0.07209 0.0
H61 H 0.40903 0.90171 0.07682 0.0
C62 C 0.37479 1.00046 0.04073 0.0
C63 C 0.36967 0.05653 1.01974 0.0
C64 C 0.48359 1.0056 0.03796 0.0
C65 C 0.47518 0.11798 0.99629 0.0
C66 C 0.58371 0.1235 0.99357 0.0
C67 C 0.69776 0.07277 1.01137 0.0
C68 C 0.70288 1.01669 0.03233 0.0
C69 C 0.58896 0.06762 1.01415 0.0
C70 C 0.59738 0.95524 0.05581 0.0
C71 C 0.48884 0.94973 0.05855 0.0
H72 H 0.98342 0.61429 0.1713 0.0
H73 H 0.03868 0.63905 0.83264 0.0
H74 H 0.07311 0.54634 0.80647 0.0
H75 H 0.08942 0.45899 0.88006 0.0
H76 H 1.03411 0.43421 0.21871 0.0
H77 H 0.99974 0.52694 0.2449 0.0
C78 C 1.00428 0.5999 0.09199 0.0
C79 C 1.00855 0.63361 1.00411 0.0
C80 C 1.02404 0.54659 0.07751 0.0
C81 C 1.0337 0.61351 0.90147 0.0
C82 C 0.05381 0.56066 0.88649 0.0
C83 C 0.06856 0.47338 0.95938 0.0
C84 C 0.06426 0.43966 0.04725 0.0
C85 C 0.04882 0.5267 0.97386 0.0
C86 C 0.03912 0.45977 0.14989 0.0
C87 C 1.01904 0.51262 0.16488 0.0
loop_
_geom_bond_atom_site_label_1
_geom_bond_atom_site_label_2
_geom_bond_distance
_geom_bond_site_symmetry_2
_ccdc_geom_bond_type
La0 C2 2.928 . S
La0 O20 2.521 . S
La0 O21 2.628 1_554 S
La0 O22 2.554 . S
La0 O23 2.757 1_545 S
La0 O24 2.470 1_455 S
La0 O29 2.482 1_454 S
La0 O31 2.503 . S
La1 C11 2.928 . S
La1 O23 2.482 1_656 S
La1 O25 2.503 . S
La1 O26 2.521 . S
La1 O27 2.628 1_556 S
La1 O28 2.554 . S
La1 O29 2.757 1_565 S
La1 O30 2.470 1_655 S
C2 La0 2.928 . S
C2 C3 1.503 . S
C2 O20 1.261 . S
C2 O21 1.243 1_554 S
C3 C2 1.503 . S
C3 C4 1.394 . S
C3 C8 1.373 1_454 S
C4 C3 1.394 . S
C4 C5 1.380 . S
C4 H32 0.930 . S
C5 C4 1.380 . S
C5 C6 1.376 . S
C5 H33 0.930 . S
C6 C5 1.376 . S
C6 C7 1.370 1_454 S
C7 C6 1.370 1_656 S
C7 C8 1.396 . S
C7 H34 0.929 . S
C8 C3 1.373 1_656 S
C8 C7 1.396 . S
C8 H35 0.929 . S
C9 O22 1.240 . S
C9 O23 1.289 1_545 S
C10 O24 1.258 1_565 S
C10 O25 1.255 1_554 S
C11 La1 2.928 . S
C11 C12 1.503 . S
C11 O26 1.261 . S
C11 O27 1.243 1_556 S
C12 C11 1.503 . S
C12 C13 1.394 . S
C12 C17 1.373 1_656 S
C13 C12 1.394 . S
C13 C14 1.380 . S
C13 H36 0.930 . S
C14 C13 1.380 . S
C14 C15 1.384 . S
C14 H37 0.930 . S
C15 C14 1.384 . S
C15 C16 1.363 1_656 S
C16 C15 1.363 1_454 S
C16 C17 1.396 . S
C16 H38 0.929 . S
C17 C12 1.373 1_454 S
C17 C16 1.396 . S
C17 H39 0.929 . S
C18 O28 1.240 . S
C18 O29 1.289 1_565 S
C19 O30 1.258 1_545 S
C19 O31 1.255 1_556 S
O20 La0 2.521 . S
O20 C2 1.261 . S
O21 La0 2.628 1_556 S
O21 C2 1.243 1_556 S
O22 La0 2.554 . S
O22 C9 1.240 . S
O23 La0 2.757 1_565 S
O23 La1 2.482 1_454 S
O23 C9 1.289 1_565 S
O24 La0 2.470 1_655 S
O24 C10 1.258 1_545 S
O25 La1 2.503 . S
O25 C10 1.255 1_556 S
O26 La1 2.521 . S
O26 C11 1.261 . S
O27 La1 2.628 1_554 S
O27 C11 1.243 1_554 S
O28 La1 2.554 . S
O28 C18 1.240 . S
O29 La0 2.482 1_656 S
O29 La1 2.757 1_545 S
O29 C18 1.289 1_545 S
O30 La1 2.470 1_455 S
O30 C19 1.258 1_565 S
O31 La0 2.503 . S
O31 C19 1.255 1_554 S
H32 C4 0.930 . S
H33 C5 0.930 . S
H34 C7 0.929 . S
H35 C8 0.929 . S
H36 C13 0.930 . S
H37 C14 0.930 . S
H38 C16 0.929 . S
H39 C17 0.929 . S
H40 C46 0.930 . S
H41 C49 0.930 . S
H42 C50 0.930 . S
H43 C51 0.930 . S
H44 C54 0.930 . S
H45 C55 0.930 . S
C46 H40 0.930 . S
C46 C47 1.355 1_445 S
C46 C48 1.415 . S
C47 C46 1.355 1_665 S
C47 C49 1.419 . S
C48 C46 1.415 . S
C48 C53 1.425 1_445 S
C48 C55 1.409 . S
C49 H41 0.930 . S
C49 C47 1.419 . S
C49 C50 1.362 . S
C50 H42 0.930 . S
C50 C49 1.362 . S
C50 C53 1.409 . S
C51 H43 0.930 . S
C51 C52 1.355 1_665 S
C51 C53 1.415 . S
C52 C51 1.355 1_445 S
C52 C54 1.419 . S
C53 C48 1.425 1_665 S
C53 C50 1.409 . S
C53 C51 1.415 . S
C54 H44 0.930 . S
C54 C52 1.419 . S
C54 C55 1.362 . S
C55 H45 0.930 . S
C55 C48 1.409 . S
C55 C54 1.362 . S
H56 C62 0.930 . S
H57 C65 0.928 1_556 S
H58 C66 0.930 . S
H59 C67 0.930 . S
H60 C70 0.930 1_554 S
H61 C71 0.930 . S
C62 H56 0.930 . S
C62 C63 1.355 1_565 S
C62 C64 1.415 . S
C63 C62 1.355 1_545 S
C63 C65 1.419 . S
C64 C62 1.415 . S
C64 C69 1.425 1_564 S
C64 C71 1.409 . S
C65 H57 0.928 1_554 S
C65 C63 1.419 . S
C65 C66 1.363 1_554 S
C66 H58 0.930 . S
C66 C65 1.363 1_556 S
C66 C69 1.409 . S
C67 H59 0.930 . S
C67 C68 1.355 1_545 S
C67 C69 1.415 . S
C68 C67 1.355 1_565 S
C68 C70 1.419 . S
C69 C64 1.425 1_546 S
C69 C66 1.409 . S
C69 C67 1.415 . S
C70 H60 0.930 1_556 S
C70 C68 1.419 . S
C70 C71 1.363 1_556 S
C71 H61 0.930 . S
C71 C64 1.409 . S
C71 C70 1.363 1_554 S
H72 C78 0.930 . S
H73 C81 0.930 . S
H74 C82 0.930 . S
H75 C83 0.930 . S
H76 C86 0.930 . S
H77 C87 0.930 . S
C78 H72 0.930 . S
C78 C79 1.355 1_554 S
C78 C80 1.415 . S
C79 C78 1.355 1_556 S
C79 C81 1.419 1_455 S
C80 C78 1.415 . S
C80 C85 1.425 1_454 S
C80 C87 1.409 . S
C81 H73 0.930 . S
C81 C79 1.419 1_655 S
C81 C82 1.362 . S
C82 H74 0.930 . S
C82 C81 1.362 . S
C82 C85 1.409 . S
C83 H75 0.930 . S
C83 C84 1.355 1_556 S
C83 C85 1.415 . S
C84 C83 1.355 1_554 S
C84 C86 1.419 1_655 S
C85 C80 1.425 1_656 S
C85 C82 1.409 . S
C85 C83 1.415 . S
C86 H76 0.930 . S
C86 C84 1.419 1_455 S
C86 C87 1.362 . S
C87 H77 0.930 . S
C87 C80 1.409 . S
C87 C86 1.362 . S
C47 C9 1.478 1_665 S
C52 C18 1.478 1_445 S
C63 C19 1.475 1_554 S
C68 C10 1.475 1_556 S
C79 C15 1.493 1_455 S
C84 C6 1.493 1_655 S
