# Generated by pormake.
# Topology pcu, (6)-cn, num edge types: 1
# Building blocks:
#     Node 0, Type 0, BuildingBlock: UKALOJ_clean_sbu_0, # of connection points: 6
#     Edge 1, Type (0, 0), BuildingBlock: MIFKUJ_clean_linker_0, # of connection points: 2
#     Edge 2, Type (0, 0), BuildingBlock: MIFKUJ_clean_linker_0, # of connection points: 2
#     Edge 3, Type (0, 0), BuildingBlock: MIFKUJ_clean_linker_0, # of connection points: 2
# Relax obj value: 0.010
# Max RMSD: 0.054
# Mean RMSD: 0.054
data_MOF--net-pcu--node1-UKALOJ_clean_sbu_0--edge1-MIFKUJ_clean_linker_0
_symmetry_space_group_name_H-M    P1
_symmetry_Int_Tables_number       1
_symmetry_cell_setting            triclinic
loop_
_symmetry_equiv_pos_as_xyz
'x, y, z'
_cell_length_a     19.861538
_cell_length_b     19.853882
_cell_length_c     24.736748
_cell_angle_alpha  97.233415
_cell_angle_beta   82.53653
_cell_angle_gamma 99.280176
loop_
_atom_site_label
_atom_site_type_symbol
_atom_site_fract_x
_atom_site_fract_y
_atom_site_fract_z
_atom_type_partial_charge
Zn0 Zn 0.97735 -0.00368 0.06052 0.0
O1 O 0.96695 0.88887 0.06156 0.0
C2 C 0.1236 0.00077 0.02116 0.0
Zn3 Zn -0.00803 0.98466 0.96919 0.0
C4 C 0.97211 0.85048 0.0165 0.0
O5 O 0.98206 0.87736 0.9716 0.0
C6 C -0.00279 0.1305 1.01321 0.0
O7 O 0.88523 0.97629 0.96386 0.0
O8 O 0.87127 0.98793 0.05382 0.0
N9 N 0.01341 0.97006 0.88585 0.0
C10 C -0.01264 0.9899 0.84368 0.0
C11 C 0.06881 0.93403 0.80966 0.0
N12 N 0.06387 0.9353 0.86452 0.0
N13 N 0.02126 0.9677 0.79536 0.0
C14 C 0.98197 0.99109 0.18603 0.0
C15 C 0.90051 0.04696 0.22006 0.0
N16 N 0.95591 0.01092 0.14387 0.0
N17 N 0.90545 0.04568 0.1652 0.0
N18 N 0.94807 0.01329 0.23435 0.0
H19 H 0.04028 0.91618 0.13913 0.0
H20 H 0.02993 0.91276 0.2125 0.0
H21 H 0.08791 0.98093 0.18235 0.0
C22 C 0.03789 0.94727 0.17954 0.0
C23 C 0.93143 0.03372 0.85017 0.0
H24 H 0.92904 0.0648 0.89058 0.0
H25 H 0.88142 6e-05 0.84736 0.0
H26 H 0.9394 0.06823 0.81722 0.0
O27 O 0.00237 0.09211 0.96815 0.0
O28 O -0.01274 0.10363 0.05812 0.0
C29 C 0.84572 0.98021 1.00855 0.0
O30 O 0.08409 0.00469 0.06585 0.0
O31 O 0.09805 -0.00695 0.97589 0.0
H32 H 0.84769 0.98462 0.31539 0.0
H33 H 0.8605 0.97682 0.41142 0.0
H34 H 0.08078 0.01605 0.37501 0.0
H35 H 0.0679 0.02457 0.27898 0.0
H36 H 0.04009 0.91326 0.44178 0.0
H37 H -0.0044 0.14239 0.43605 0.0
H38 H 0.93241 0.2308 0.41409 0.0
H39 H 0.75369 0.14807 0.51552 0.0
H40 H 0.81554 0.05848 0.53747 0.0
H41 H 0.12165 -0.00362 0.71433 0.0
H42 H 0.10885 0.00419 0.6183 0.0
H43 H 0.88857 0.96496 0.65469 0.0
H44 H 0.90144 0.95643 0.75072 0.0
H45 H 0.92926 0.06776 0.58793 0.0
H46 H 0.97375 0.83862 0.59366 0.0
H47 H 0.03694 0.7502 0.61562 0.0
H48 H 0.21567 0.83295 0.5142 0.0
H49 H 0.15382 0.92253 0.49224 0.0
C50 C 0.89878 0.99111 0.32795 0.0
C51 C 0.95678 0.00405 0.28965 0.0
C52 C 0.90607 0.98685 0.38272 0.0
C53 C 0.97159 -0.00358 0.40043 0.0
C54 C 0.02976 0.00816 0.3621 0.0
C55 C 0.02242 0.01242 0.30719 0.0
C56 C 0.97915 -0.00459 0.45918 0.0
C57 C 0.01669 0.94766 0.4737 0.0
C58 C 0.94723 0.03929 0.50086 0.0
C59 C 0.91001 0.09332 0.48797 0.0
C60 C 0.94265 0.14271 0.45333 0.0
C61 C 0.90711 0.19309 0.44094 0.0
C62 C 0.83902 0.19494 0.46328 0.0
C63 C 0.8064 0.14651 0.49818 0.0
C64 C 0.8417 0.09596 0.51065 0.0
C65 C 0.07056 0.98989 0.70177 0.0
C66 C 0.01255 0.97695 0.74006 0.0
C67 C 0.06327 -0.00585 0.647 0.0
C68 C -0.00224 0.98459 0.62928 0.0
C69 C 0.93958 0.97284 0.66761 0.0
C70 C 0.94692 0.96858 0.72252 0.0
C71 C -0.00979 0.98561 0.57053 0.0
C72 C 0.95267 0.03335 0.55601 0.0
C73 C 0.02212 0.94173 0.52885 0.0
C74 C 0.05935 0.8877 0.54174 0.0
C75 C 0.0267 0.8383 0.57638 0.0
C76 C 0.06224 0.78792 0.58877 0.0
C77 C 0.13033 0.78607 0.56643 0.0
C78 C 0.16295 0.8345 0.53153 0.0
C79 C 0.12766 0.88506 0.51906 0.0
H80 H 0.15776 0.74701 0.57607 0.0
H81 H 0.81159 0.234 0.45364 0.0
H82 H 0.22089 0.00074 0.93264 0.0
H83 H 0.34325 -0.00249 0.93124 0.0
H84 H 0.3184 0.00011 0.10732 0.0
H85 H 0.1955 0.00441 0.10925 0.0
H86 H 0.43244 0.08514 0.07153 0.0
H87 H 0.33169 0.85162 0.02573 0.0
H88 H 0.26152 0.75767 0.97396 0.0
H89 H 0.39072 0.7992 0.82527 0.0
H90 H 0.46106 0.89417 0.87591 0.0
H91 H 0.74843 0.98024 0.09708 0.0
H92 H 0.62607 0.98347 0.09847 0.0
H93 H 0.65091 0.98087 0.9224 0.0
H94 H 0.77382 0.97657 0.92046 0.0
H95 H 0.53687 0.89583 0.95819 0.0
H96 H 0.63762 0.12936 1.00399 0.0
H97 H 0.70779 0.22331 0.05576 0.0
H98 H 0.5786 0.18177 0.20445 0.0
H99 H 0.50826 0.08681 0.15381 0.0
C100 C 0.24133 0.00092 0.97119 0.0
C101 C 0.19833 0.00246 0.02109 0.0
C102 C 0.31131 -0.00122 0.97024 0.0
C103 C 0.33969 -0.00257 0.01906 0.0
C104 C 0.29739 0.00083 0.06914 0.0
C105 C 0.22721 0.0032 0.07017 0.0
C106 C 0.41345 0.99187 0.01757 0.0
C107 C 0.45514 0.04326 0.04738 0.0
C108 C 0.44323 0.93801 0.98498 0.0
C109 C 0.40131 0.88045 0.95455 0.0
C110 C 0.34487 0.84107 0.98193 0.0
C111 C 0.3051 0.78758 0.95281 0.0
C112 C 0.32158 0.77258 0.89639 0.0
C113 C 0.37798 0.81093 0.86897 0.0
C114 C 0.41785 0.86456 0.89786 0.0
C115 C 0.72799 0.98006 0.05853 0.0
C116 C 0.77099 0.97852 1.00863 0.0
C117 C 0.65801 0.9822 0.05947 0.0
C118 C 0.62963 0.98355 1.01065 0.0
C119 C 0.67193 0.98015 0.96057 0.0
C120 C 0.74211 0.97778 0.95954 0.0
C121 C 0.55587 0.98911 1.01215 0.0
C122 C 0.51418 0.93771 0.98234 0.0
C123 C 0.52609 0.04297 0.04474 0.0
C124 C 0.56801 0.10053 0.07516 0.0
C125 C 0.62445 0.13991 0.04779 0.0
C126 C 0.66422 0.1934 0.07691 0.0
C127 C 0.64774 0.2084 0.13333 0.0
C128 C 0.59134 0.17005 0.16075 0.0
C129 C 0.55147 0.11641 0.13186 0.0
H130 H 0.67861 0.24982 0.15578 0.0
H131 H 0.29071 0.73116 0.87394 0.0
H132 H 0.9491 0.77573 0.10454 0.0
H133 H 0.95223 0.65303 0.10385 0.0
H134 H -0.00493 0.6337 0.92753 0.0
H135 H -0.00936 0.75592 0.92769 0.0
H136 H 0.90362 0.52819 0.96057 0.0
H137 H 0.12272 0.64447 1.00971 0.0
H138 H 0.19951 0.72836 0.06451 0.0
H139 H 0.11865 0.62991 0.20896 0.0
H140 H 0.04042 0.54616 0.1553 0.0
H141 H 0.02021 0.20525 0.92518 0.0
H142 H 0.01708 0.32795 0.92586 0.0
H143 H 0.97424 0.34728 0.10218 0.0
H144 H 0.97868 0.22506 0.10203 0.0
H145 H 0.06569 0.45279 0.06914 0.0
H146 H 0.84659 0.33651 0.02001 0.0
H147 H 0.76979 0.25262 0.96521 0.0
H148 H 0.85065 0.35107 0.82076 0.0
H149 H 0.92888 0.43482 0.87441 0.0
C150 C 0.95869 0.74529 0.06557 0.0
C151 C 0.96992 0.77564 0.01618 0.0
C152 C 0.96078 0.67525 0.06528 0.0
C153 C 0.97493 0.63448 0.01569 0.0
C154 C 0.98424 0.66426 0.96625 0.0
C155 C 0.98182 0.73418 0.96646 0.0
C156 C 0.98138 0.56107 0.01531 0.0
C157 C 0.93962 0.51173 0.98379 0.0
C158 C 0.02749 0.5396 0.04643 0.0
C159 C 0.07525 0.5894 0.07856 0.0
C160 C 0.12098 0.64097 0.05323 0.0
C161 C 0.1648 0.68846 0.08406 0.0
C162 C 0.16388 0.68451 0.14014 0.0
C163 C 0.11925 0.63295 0.16551 0.0
C164 C 0.07517 0.58544 0.13492 0.0
C165 C 0.01062 0.23569 0.96414 0.0
C166 C -0.00061 0.20534 1.01353 0.0
C167 C 0.00853 0.30573 0.96443 0.0
C168 C -0.00562 0.3465 1.01402 0.0
C169 C 0.98507 0.31672 0.06346 0.0
C170 C -0.01251 0.2468 0.06325 0.0
C171 C -0.01207 0.41991 1.0144 0.0
C172 C 0.02969 0.46925 0.04593 0.0
C173 C 0.94182 0.44138 0.98328 0.0
C174 C 0.89406 0.39159 0.95115 0.0
C175 C 0.84833 0.34002 0.97649 0.0
C176 C 0.8045 0.29252 0.94566 0.0
C177 C 0.80542 0.29647 0.88957 0.0
C178 C 0.85005 0.34803 0.8642 0.0
C179 C 0.89413 0.39554 0.8948 0.0
H180 H 0.77146 0.25963 0.86579 0.0
H181 H 0.19784 0.72135 0.16393 0.0
loop_
_geom_bond_atom_site_label_1
_geom_bond_atom_site_label_2
_geom_bond_distance
_geom_bond_site_symmetry_2
_ccdc_geom_bond_type
Zn0 O1 2.055 . S
Zn0 O8 2.046 . S
Zn0 N16 2.036 1_565 S
Zn0 O28 2.053 1_565 S
Zn0 O30 2.066 1_665 S
O1 Zn0 2.055 . S
O1 C4 1.259 1_554 S
C2 O30 1.256 1_565 S
C2 O31 1.244 1_554 S
Zn3 O5 2.046 . S
Zn3 O7 2.055 . S
Zn3 N9 2.036 1_655 S
Zn3 O27 2.066 1_665 S
Zn3 O31 2.053 1_655 S
C4 O1 1.259 1_556 S
C4 O5 1.254 . S
O5 Zn3 2.046 . S
O5 C4 1.254 . S
C6 O27 1.256 1_655 S
C6 O28 1.244 1_556 S
O7 Zn3 2.055 . S
O7 C29 1.259 1_556 S
O8 Zn0 2.046 . S
O8 C29 1.254 . S
N9 Zn3 2.036 1_455 S
N9 C10 1.298 1_465 S
N9 N12 1.398 . S
C10 N9 1.298 1_645 S
C10 N13 1.367 1_655 S
C10 C23 1.481 . S
C11 N12 1.299 . S
C11 N13 1.379 1_565 S
N12 N9 1.398 . S
N12 C11 1.299 . S
N13 C10 1.367 1_455 S
N13 C11 1.379 1_545 S
C14 N16 1.298 1_465 S
C14 N18 1.367 1_565 S
C14 C22 1.481 . S
C15 N17 1.299 . S
C15 N18 1.379 1_655 S
N16 Zn0 2.036 1_545 S
N16 C14 1.298 1_645 S
N16 N17 1.398 . S
N17 C15 1.299 . S
N17 N16 1.398 . S
N18 C14 1.367 1_545 S
N18 C15 1.379 1_455 S
H19 C22 0.980 . S
H20 C22 0.981 . S
H21 C22 0.981 . S
C22 C14 1.481 . S
C22 H19 0.980 . S
C22 H20 0.981 . S
C22 H21 0.981 . S
C23 C10 1.481 . S
C23 H24 0.980 . S
C23 H25 0.981 . S
C23 H26 0.981 . S
H24 C23 0.980 . S
H25 C23 0.981 . S
H26 C23 0.981 . S
O27 Zn3 2.066 1_445 S
O27 C6 1.256 1_455 S
O28 Zn0 2.053 1_545 S
O28 C6 1.244 1_554 S
C29 O7 1.259 1_554 S
C29 O8 1.254 . S
O30 Zn0 2.066 1_445 S
O30 C2 1.256 1_545 S
O31 C2 1.244 1_556 S
O31 Zn3 2.053 1_455 S
H32 C50 0.951 . S
H33 C52 0.951 . S
H34 C54 0.951 1_565 S
H35 C55 0.954 . S
H36 C57 0.950 . S
H37 C60 0.950 . S
H38 C61 0.950 . S
H39 C63 0.950 . S
H40 C64 0.950 . S
H41 C65 0.951 . S
H42 C67 0.951 . S
H43 C69 0.950 . S
H44 C70 0.950 . S
H45 C72 0.950 . S
H46 C75 0.950 . S
H47 C76 0.950 . S
H48 C78 0.950 . S
H49 C79 0.950 . S
C50 H32 0.951 . S
C50 C51 1.366 1_655 S
C50 C52 1.388 . S
C51 C50 1.366 1_455 S
C51 C55 1.379 1_545 S
C52 H33 0.951 . S
C52 C50 1.388 . S
C52 C53 1.366 1_655 S
C53 C52 1.366 1_455 S
C53 C54 1.413 . S
C53 C56 1.499 . S
C54 H34 0.951 1_545 S
C54 C53 1.413 . S
C54 C55 1.375 1_545 S
C55 H35 0.954 . S
C55 C51 1.379 1_565 S
C55 C54 1.375 1_565 S
C56 C53 1.499 . S
C56 C57 1.373 1_545 S
C56 C58 1.394 . S
C57 H36 0.950 . S
C57 C56 1.373 1_565 S
C57 C73 1.377 . S
C58 C56 1.394 . S
C58 C59 1.520 1_455 S
C58 C72 1.378 1_455 S
C59 C58 1.520 1_655 S
C59 C60 1.397 1_655 S
C59 C64 1.363 . S
C60 H37 0.950 . S
C60 C59 1.397 1_455 S
C60 C61 1.334 . S
C61 H38 0.950 . S
C61 C60 1.334 . S
C61 C62 1.287 1_455 S
C62 C61 1.287 1_655 S
C62 C63 1.524 . S
C62 H81 0.913 . S
C63 H39 0.950 . S
C63 C62 1.524 . S
C63 C64 1.415 . S
C64 H40 0.950 . S
C64 C59 1.363 . S
C64 C63 1.415 . S
C65 H41 0.951 . S
C65 C66 1.366 1_565 S
C65 C67 1.388 . S
C66 C65 1.366 1_545 S
C66 C70 1.385 1_455 S
C67 H42 0.951 . S
C67 C65 1.388 . S
C67 C68 1.366 1_565 S
C68 C67 1.366 1_545 S
C68 C69 1.414 1_455 S
C68 C71 1.499 . S
C69 H43 0.950 . S
C69 C68 1.414 1_655 S
C69 C70 1.374 . S
C70 H44 0.950 . S
C70 C66 1.385 1_655 S
C70 C69 1.374 . S
C71 C68 1.499 . S
C71 C72 1.373 1_455 S
C71 C73 1.389 1_545 S
C72 H45 0.950 . S
C72 C58 1.378 1_655 S
C72 C71 1.373 1_655 S
C73 C57 1.377 . S
C73 C71 1.389 1_565 S
C73 C74 1.524 . S
C74 C73 1.524 . S
C74 C75 1.397 1_455 S
C74 C79 1.363 . S
C75 H46 0.950 . S
C75 C74 1.397 1_655 S
C75 C76 1.334 . S
C76 H47 0.950 . S
C76 C75 1.334 . S
C76 C77 1.287 1_655 S
C77 C76 1.287 1_455 S
C77 C78 1.524 . S
C77 H80 0.999 . S
C78 H48 0.950 . S
C78 C77 1.524 . S
C78 C79 1.415 . S
C79 H49 0.950 . S
C79 C74 1.363 . S
C79 C78 1.415 . S
H80 C77 0.999 . S
H81 C62 0.913 . S
H82 C100 0.951 . S
H83 C102 0.951 . S
H84 C104 0.950 . S
H85 C105 0.950 . S
H86 C107 0.951 . S
H87 C110 0.950 . S
H88 C111 0.950 . S
H89 C113 0.950 1_545 S
H90 C114 0.950 . S
H91 C115 0.951 . S
H92 C117 0.951 . S
H93 C119 0.950 . S
H94 C120 0.950 . S
H95 C122 0.950 . S
H96 C125 0.950 . S
H97 C126 0.950 . S
H98 C128 0.950 1_565 S
H99 C129 0.950 . S
C100 H82 0.951 . S
C100 C101 1.366 1_546 S
C100 C102 1.388 . S
C101 C100 1.366 1_564 S
C101 C105 1.385 . S
C102 H83 0.951 . S
C102 C100 1.388 . S
C102 C103 1.366 1_546 S
C103 C102 1.366 1_564 S
C103 C104 1.414 . S
C103 C106 1.499 . S
C104 H84 0.950 . S
C104 C103 1.414 . S
C104 C105 1.374 . S
C105 H85 0.950 . S
C105 C101 1.385 . S
C105 C104 1.374 . S
C106 C103 1.499 . S
C106 C107 1.374 1_565 S
C106 C108 1.389 1_554 S
C107 H86 0.951 . S
C107 C106 1.374 1_545 S
C107 C123 1.375 . S
C108 C106 1.389 1_556 S
C108 C109 1.524 . S
C108 C122 1.377 . S
C109 C108 1.524 . S
C109 C110 1.397 . S
C109 C114 1.363 1_565 S
C110 H87 0.950 . S
C110 C109 1.397 . S
C110 C111 1.334 . S
C111 H88 0.950 . S
C111 C110 1.334 . S
C111 C112 1.287 . S
C112 C111 1.287 . S
C112 C113 1.524 . S
C112 H131 0.913 . S
C113 H89 0.950 1_565 S
C113 C112 1.524 . S
C113 C114 1.415 1_565 S
C114 H90 0.950 . S
C114 C109 1.363 1_545 S
C114 C113 1.415 1_545 S
C115 H91 0.951 . S
C115 C116 1.366 . S
C115 C117 1.388 . S
C116 C115 1.366 . S
C116 C120 1.385 1_564 S
C117 H92 0.951 . S
C117 C115 1.388 . S
C117 C118 1.366 . S
C118 C117 1.366 . S
C118 C119 1.414 1_564 S
C118 C121 1.499 . S
C119 H93 0.950 . S
C119 C118 1.414 1_546 S
C119 C120 1.374 . S
C120 H94 0.950 . S
C120 C116 1.385 1_546 S
C120 C119 1.374 . S
C121 C118 1.499 . S
C121 C122 1.373 1_554 S
C121 C123 1.389 1_565 S
C122 H95 0.950 . S
C122 C108 1.377 . S
C122 C121 1.373 1_556 S
C123 C107 1.375 . S
C123 C121 1.389 1_545 S
C123 C124 1.524 . S
C124 C123 1.524 . S
C124 C125 1.397 . S
C124 C129 1.363 1_545 S
C125 H96 0.950 . S
C125 C124 1.397 . S
C125 C126 1.334 . S
C126 H97 0.950 . S
C126 C125 1.334 . S
C126 C127 1.287 . S
C127 C126 1.287 . S
C127 C128 1.524 . S
C127 H130 0.999 . S
C128 H98 0.950 1_545 S
C128 C127 1.524 . S
C128 C129 1.415 1_545 S
C129 H99 0.950 . S
C129 C124 1.363 1_565 S
C129 C128 1.415 1_565 S
H130 C127 0.999 . S
H131 C112 0.913 . S
H132 C150 0.951 . S
H133 C152 0.951 . S
H134 C154 0.950 . S
H135 C155 0.950 . S
H136 C157 0.950 . S
H137 C160 0.950 1_455 S
H138 C161 0.950 . S
H139 C163 0.950 . S
H140 C164 0.950 . S
H141 C165 0.951 . S
H142 C167 0.951 . S
H143 C169 0.950 . S
H144 C170 0.950 . S
H145 C172 0.950 . S
H146 C175 0.950 1_655 S
H147 C176 0.950 . S
H148 C178 0.950 . S
H149 C179 0.950 . S
C150 H132 0.951 . S
C150 C151 1.366 1_554 S
C150 C152 1.388 . S
C151 C150 1.366 1_556 S
C151 C155 1.385 1_655 S
C152 H133 0.951 . S
C152 C150 1.388 . S
C152 C153 1.366 1_554 S
C153 C152 1.366 1_556 S
C153 C154 1.414 1_655 S
C153 C156 1.499 . S
C154 H134 0.950 . S
C154 C153 1.414 1_455 S
C154 C155 1.374 . S
C155 H135 0.950 . S
C155 C151 1.385 1_455 S
C155 C154 1.374 . S
C156 C153 1.499 . S
C156 C157 1.373 1_655 S
C156 C158 1.389 1_556 S
C157 H136 0.950 . S
C157 C156 1.373 1_455 S
C157 C173 1.377 . S
C158 C156 1.389 1_554 S
C158 C159 1.524 . S
C158 C172 1.377 . S
C159 C158 1.524 . S
C159 C160 1.397 . S
C159 C164 1.363 . S
C160 H137 0.950 1_655 S
C160 C159 1.397 . S
C160 C161 1.334 . S
C161 H138 0.950 . S
C161 C160 1.334 . S
C161 C162 1.287 . S
C162 C161 1.287 . S
C162 C163 1.524 . S
C162 H181 0.913 . S
C163 H139 0.950 . S
C163 C162 1.524 . S
C163 C164 1.415 . S
C164 H140 0.950 . S
C164 C159 1.363 . S
C164 C163 1.415 . S
C165 H141 0.951 . S
C165 C166 1.366 1_455 S
C165 C167 1.388 . S
C166 C165 1.366 1_655 S
C166 C170 1.385 1_556 S
C167 H142 0.951 . S
C167 C165 1.388 . S
C167 C168 1.366 1_455 S
C168 C167 1.366 1_655 S
C168 C169 1.414 1_556 S
C168 C171 1.499 . S
C169 H143 0.950 . S
C169 C168 1.414 1_554 S
C169 C170 1.374 . S
C170 H144 0.950 . S
C170 C166 1.385 1_554 S
C170 C169 1.374 . S
C171 C168 1.499 . S
C171 C172 1.373 1_556 S
C171 C173 1.389 1_655 S
C172 H145 0.950 . S
C172 C158 1.377 . S
C172 C171 1.373 1_554 S
C173 C157 1.377 . S
C173 C171 1.389 1_455 S
C173 C174 1.524 . S
C174 C173 1.524 . S
C174 C175 1.397 . S
C174 C179 1.363 . S
C175 H146 0.950 1_455 S
C175 C174 1.397 . S
C175 C176 1.334 . S
C176 H147 0.950 . S
C176 C175 1.334 . S
C176 C177 1.287 . S
C177 C176 1.287 . S
C177 C178 1.524 . S
C177 H180 0.999 . S
C178 H148 0.950 . S
C178 C177 1.524 . S
C178 C179 1.415 . S
C179 H149 0.950 . S
C179 C174 1.363 . S
C179 C178 1.415 . S
H180 C177 0.999 . S
H181 C162 0.913 . S
C51 N18 1.456 . S
C66 N13 1.456 . S
C101 C2 1.496 . S
C116 C29 1.492 . S
C151 C4 1.492 . S
C166 C6 1.496 . S
