# Generated by pormake.
# Topology npo, (4)-cn, num edge types: 1
# Building blocks:
#     Node 0, Type 0, BuildingBlock: CEKHIL_clean_sbu_0, # of connection points: 4
#     Node 1, Type 0, BuildingBlock: CEKHIL_clean_sbu_0, # of connection points: 4
#     Node 2, Type 0, BuildingBlock: CEKHIL_clean_sbu_0, # of connection points: 4
#     Node 3, Type 0, BuildingBlock: CEKHIL_clean_sbu_0, # of connection points: 4
#     Node 4, Type 0, BuildingBlock: CEKHIL_clean_sbu_0, # of connection points: 4
#     Node 5, Type 0, BuildingBlock: CEKHIL_clean_sbu_0, # of connection points: 4
#     Edge 6, Type (0, 0), None
#     Edge 7, Type (0, 0), None
#     Edge 8, Type (0, 0), None
#     Edge 9, Type (0, 0), None
#     Edge 10, Type (0, 0), None
#     Edge 11, Type (0, 0), None
#     Edge 12, Type (0, 0), None
#     Edge 13, Type (0, 0), None
#     Edge 14, Type (0, 0), None
#     Edge 15, Type (0, 0), None
#     Edge 16, Type (0, 0), None
#     Edge 17, Type (0, 0), None
# Relax obj value: 0.295
# Max RMSD: 0.245
# Mean RMSD: 0.244
data_MOF--net-npo--node1-CEKHIL_clean_sbu_0--edge1-none
_symmetry_space_group_name_H-M    P1
_symmetry_Int_Tables_number       1
_symmetry_cell_setting            triclinic
loop_
_symmetry_equiv_pos_as_xyz
'x, y, z'
_cell_length_a     21.97383
_cell_length_b     20.21903
_cell_length_c     8.884948
_cell_angle_alpha  91.004364
_cell_angle_beta   90.009931
_cell_angle_gamma 122.91518
loop_
_atom_site_label
_atom_site_type_symbol
_atom_site_fract_x
_atom_site_fract_y
_atom_site_fract_z
_atom_type_partial_charge
Co0 Co 0.50156 0.12057 0.39466 0.0
O1 O 0.40666 0.03969 0.46444 0.0
O2 O 0.51202 0.06375 0.55139 0.0
C3 C 0.48264 0.219 0.3811 0.0
O4 O 0.60945 0.19931 0.35717 0.0
Co5 Co 0.52102 0.18927 1.07797 0.0
O6 O 0.62562 0.25371 0.13002 0.0
C7 C 0.4701 0.024 0.11434 0.0
C8 C 0.44163 0.01967 0.55051 0.0
C9 C 0.6503 0.24676 0.25423 0.0
O10 O 0.49611 0.04126 0.24811 0.0
O11 O 0.46893 0.07351 1.02897 0.0
O12 O 0.49873 0.20212 0.50983 0.0
O13 O 0.47138 0.17145 0.26983 0.0
Co14 Co 0.39146 0.5451 0.84757 0.0
O15 O 0.49045 0.57224 0.82046 0.0
O16 O 0.39679 0.49243 0.67157 0.0
C17 C 0.40909 0.66363 0.89582 0.0
O18 O 0.28448 0.50454 0.82366 0.0
Co19 Co 0.32953 0.5623 0.14953 0.0
O20 O 0.24681 0.54193 1.02375 0.0
C21 C 0.3773 0.4535 0.12601 0.0
C22 C 0.46494 0.52514 0.70258 0.0
C23 C 0.23859 0.51576 0.88914 0.0
O24 O 0.37485 0.45622 0.9812 0.0
O25 O 0.36555 0.49564 0.21446 0.0
O26 O 0.41278 0.64296 0.75815 0.0
O27 O 0.40583 0.61765 0.99955 0.0
Co28 Co 0.82904 0.4203 0.33375 0.0
O29 O 0.90087 0.39313 0.36091 0.0
O30 O 0.88708 0.47298 0.50974 0.0
C31 C 0.72812 0.30182 0.28558 0.0
O32 O 0.76266 0.46091 0.35763 0.0
Co33 Co 0.74989 0.40312 1.03179 0.0
O34 O 0.68755 0.42348 0.15758 0.0
C35 C 0.90648 0.51186 1.05529 0.0
C36 C 0.92248 0.44024 0.47876 0.0
C37 C 0.70552 0.44966 0.29217 0.0
O38 O 0.90132 0.50915 0.2001 0.0
O39 O 0.85257 0.46974 0.96684 0.0
O40 O 0.7525 0.32248 0.42324 0.0
O41 O 0.77084 0.34775 0.18178 0.0
Co42 Co 0.36369 0.84483 0.78675 0.0
O43 O 0.34967 0.92572 0.71697 0.0
O44 O 0.43097 0.90166 0.63006 0.0
C45 C 0.24633 0.7464 0.80027 0.0
O46 O 0.39285 0.76609 0.82423 0.0
Co47 Co 0.31446 0.77607 0.1034 0.0
O48 O 0.35466 0.71168 1.05137 0.0
C49 C 0.42882 0.94135 1.06714 0.0
C50 C 0.40468 0.94575 0.63095 0.0
C51 C 0.3863 0.71866 0.92716 0.0
O52 O 0.43756 0.92413 0.93335 0.0
O53 O 0.37811 0.89183 0.15244 0.0
O54 O 0.2793 0.76329 0.67155 0.0
O55 O 0.28264 0.79394 0.91156 0.0
Co56 Co 0.49294 0.40611 0.33649 0.0
O57 O 0.39277 0.37341 0.30256 0.0
O58 O 0.48694 0.46095 0.16946 0.0
C59 C 0.47801 0.28806 0.36204 0.0
O60 O 0.60126 0.45352 0.3223 0.0
Co61 Co 0.55285 0.3849 0.63409 0.0
O62 O 0.63904 0.4131 0.51379 0.0
C63 C 0.50339 0.49285 0.62934 0.0
C64 C 0.41787 0.42301 0.19251 0.0
C65 C 0.64874 0.4447 0.38617 0.0
O66 O 0.50308 0.48961 0.48415 0.0
O67 O 0.51737 0.45143 0.71152 0.0
O68 O 0.47771 0.31363 0.22897 0.0
O69 O 0.47877 0.32981 0.47534 0.0
Co70 Co 0.06953 0.5593 0.84485 0.0
O71 O 0.00203 0.59196 0.87873 0.0
O72 O 0.0087 0.50445 1.01187 0.0
C73 C 0.17264 0.67735 0.81931 0.0
O74 O 0.13047 0.51192 0.85907 0.0
Co75 Co 0.15064 0.58054 0.54725 0.0
O76 O 0.20862 0.55232 0.66754 0.0
C77 C -0.00677 0.47253 0.552 0.0
C78 C -0.02245 0.54236 0.98879 0.0
C79 C 0.18674 0.52072 0.79517 0.0
O80 O -0.00383 0.47578 0.69719 0.0
O81 O 0.04861 0.51397 0.46983 0.0
O82 O 0.14677 0.65179 0.95238 0.0
O83 O 0.13163 0.6356 0.70601 0.0
loop_
_geom_bond_atom_site_label_1
_geom_bond_atom_site_label_2
_geom_bond_distance
_geom_bond_site_symmetry_2
_ccdc_geom_bond_type
Co0 O1 2.216 . S
Co0 O2 2.091 . S
Co0 O4 2.004 . S
Co0 O10 2.021 . S
Co0 O12 2.137 . S
Co0 O13 2.244 . S
O1 Co0 2.216 . S
O1 C8 1.247 . S
O2 Co0 2.091 . S
O2 C8 1.261 . S
C3 O12 1.247 . S
C3 O13 1.272 . S
O4 Co0 2.004 . S
O4 C9 1.259 . S
Co5 O6 2.061 1_556 S
Co5 O11 2.052 . S
Co5 O13 2.135 1_556 S
O6 Co5 2.061 1_554 S
O6 C9 1.235 . S
C7 O10 1.238 . S
C7 O11 1.241 1_554 S
C8 O1 1.247 . S
C8 O2 1.261 . S
C9 O4 1.259 . S
C9 O6 1.235 . S
O10 Co0 2.021 . S
O10 C7 1.238 . S
O11 Co5 2.052 . S
O11 C7 1.241 1_556 S
O12 Co0 2.137 . S
O12 C3 1.247 . S
O13 Co0 2.244 . S
O13 C3 1.272 . S
O13 Co5 2.135 1_554 S
Co14 O15 2.216 . S
Co14 O16 2.091 . S
Co14 O18 2.004 . S
Co14 O24 2.021 . S
Co14 O26 2.137 . S
Co14 O27 2.244 . S
O15 Co14 2.216 . S
O15 C22 1.247 . S
O16 Co14 2.091 . S
O16 C22 1.261 . S
C17 O26 1.247 . S
C17 O27 1.272 . S
O18 Co14 2.004 . S
O18 C23 1.259 . S
Co19 O20 2.061 . S
Co19 O25 2.052 1_556 S
Co19 O27 2.135 . S
O20 Co19 2.061 . S
O20 C23 1.235 . S
C21 O24 1.238 . S
C21 O25 1.240 1_556 S
C22 O15 1.247 . S
C22 O16 1.261 . S
C23 O18 1.259 . S
C23 O20 1.235 . S
O24 Co14 2.021 . S
O24 C21 1.238 . S
O25 Co19 2.052 1_554 S
O25 C21 1.240 1_554 S
O26 Co14 2.137 . S
O26 C17 1.247 . S
O27 Co14 2.244 . S
O27 C17 1.272 . S
O27 Co19 2.135 . S
Co28 O29 2.216 . S
Co28 O30 2.091 . S
Co28 O32 2.004 . S
Co28 O38 2.021 . S
Co28 O40 2.137 . S
Co28 O41 2.244 . S
O29 Co28 2.216 . S
O29 C36 1.247 . S
O30 Co28 2.091 . S
O30 C36 1.261 . S
C31 O40 1.247 . S
C31 O41 1.272 . S
O32 Co28 2.004 . S
O32 C37 1.259 . S
Co33 O34 2.061 . S
Co33 O39 2.052 1_554 S
Co33 O41 2.135 . S
O34 Co33 2.061 . S
O34 C37 1.235 . S
C35 O38 1.238 . S
C35 O39 1.240 1_554 S
C36 O29 1.247 . S
C36 O30 1.261 . S
C37 O32 1.259 . S
C37 O34 1.235 . S
O38 Co28 2.021 . S
O38 C35 1.238 . S
O39 Co33 2.052 1_556 S
O39 C35 1.240 1_556 S
O40 Co28 2.137 . S
O40 C31 1.247 . S
O41 Co28 2.244 . S
O41 C31 1.272 . S
O41 Co33 2.135 . S
Co42 O43 2.216 . S
Co42 O44 2.091 . S
Co42 O46 2.004 . S
Co42 O52 2.021 . S
Co42 O54 2.137 . S
Co42 O55 2.244 . S
O43 Co42 2.216 . S
O43 C50 1.247 . S
O44 Co42 2.091 . S
O44 C50 1.261 . S
C45 O54 1.247 . S
C45 O55 1.272 . S
O46 Co42 2.004 . S
O46 C51 1.259 . S
Co47 O48 2.061 1_554 S
Co47 O53 2.052 . S
Co47 O55 2.135 1_554 S
O48 Co47 2.061 1_556 S
O48 C51 1.235 . S
C49 O52 1.238 . S
C49 O53 1.241 1_556 S
C50 O43 1.247 . S
C50 O44 1.261 . S
C51 O46 1.259 . S
C51 O48 1.235 . S
O52 Co42 2.021 . S
O52 C49 1.238 . S
O53 Co47 2.052 . S
O53 C49 1.241 1_554 S
O54 Co42 2.137 . S
O54 C45 1.247 . S
O55 Co42 2.244 . S
O55 C45 1.272 . S
O55 Co47 2.135 1_556 S
Co56 O57 2.216 . S
Co56 O58 2.091 . S
Co56 O60 2.004 . S
Co56 O66 2.021 . S
Co56 O68 2.137 . S
Co56 O69 2.244 . S
O57 Co56 2.216 . S
O57 C64 1.247 . S
O58 Co56 2.091 . S
O58 C64 1.261 . S
C59 O68 1.247 . S
C59 O69 1.272 . S
O60 Co56 2.004 . S
O60 C65 1.259 . S
Co61 O62 2.061 . S
Co61 O67 2.052 . S
Co61 O69 2.135 . S
O62 Co61 2.061 . S
O62 C65 1.235 . S
C63 O66 1.238 . S
C63 O67 1.241 . S
C64 O57 1.247 . S
C64 O58 1.261 . S
C65 O60 1.259 . S
C65 O62 1.235 . S
O66 Co56 2.021 . S
O66 C63 1.238 . S
O67 Co61 2.052 . S
O67 C63 1.241 . S
O68 Co56 2.137 . S
O68 C59 1.247 . S
O69 Co56 2.244 . S
O69 C59 1.272 . S
O69 Co61 2.135 . S
Co70 O71 2.216 . S
Co70 O72 2.091 . S
Co70 O74 2.004 . S
Co70 O80 2.021 . S
Co70 O82 2.137 . S
Co70 O83 2.244 . S
O71 Co70 2.216 . S
O71 C78 1.247 . S
O72 Co70 2.091 . S
O72 C78 1.261 . S
C73 O82 1.247 . S
C73 O83 1.272 . S
O74 Co70 2.004 . S
O74 C79 1.259 . S
Co75 O76 2.061 . S
Co75 O81 2.052 . S
Co75 O83 2.135 . S
O76 Co75 2.061 . S
O76 C79 1.235 . S
C77 O80 1.238 . S
C77 O81 1.241 . S
C78 O71 1.247 . S
C78 O72 1.261 . S
C79 O74 1.259 . S
C79 O76 1.235 . S
O80 Co70 2.021 . S
O80 C77 1.238 . S
O81 Co75 2.052 . S
O81 C77 1.241 . S
O82 Co70 2.137 . S
O82 C73 1.247 . S
O83 Co70 2.244 . S
O83 C73 1.272 . S
O83 Co75 2.135 . S
C3 C59 1.679 . S
C23 C79 1.695 . S
C9 C31 1.715 . S
C51 C17 1.715 . S
C65 C37 1.695 . S
C45 C73 1.679 . S
C49 C7 1.366 1_566 S
C63 C22 1.343 . S
C78 C35 1.368 1_456 S
C8 C50 1.482 1_545 S
C21 C64 1.368 1_556 S
C77 C36 1.343 1_455 S
