# Generated by pormake.
# Topology pcu, (6)-cn, num edge types: 1
# Building blocks:
#     Node 0, Type 0, BuildingBlock: FUNLAD_clean_sbu_0, # of connection points: 6
#     Edge 1, Type (0, 0), BuildingBlock: KIFKEQ_clean_linker_1, # of connection points: 2
#     Edge 2, Type (0, 0), BuildingBlock: KIFKEQ_clean_linker_1, # of connection points: 2
#     Edge 3, Type (0, 0), BuildingBlock: KIFKEQ_clean_linker_1, # of connection points: 2
# Relax obj value: 0.000
# Max RMSD: 0.000
# Mean RMSD: 0.000
data_MOF--net-pcu--node1-FUNLAD_clean_sbu_0--edge1-KIFKEQ_clean_linker_1
_symmetry_space_group_name_H-M    P1
_symmetry_Int_Tables_number       1
_symmetry_cell_setting            triclinic
loop_
_symmetry_equiv_pos_as_xyz
'x, y, z'
_cell_length_a     15.619605
_cell_length_b     15.62092
_cell_length_c     22.012952
_cell_angle_alpha  90.78209
_cell_angle_beta   93.027926
_cell_angle_gamma 94.361885
loop_
_atom_site_label
_atom_site_type_symbol
_atom_site_fract_x
_atom_site_fract_y
_atom_site_fract_z
_atom_type_partial_charge
C0 C 0.16594 -0.00684 0.01559 0.0
N1 N 0.98232 0.98644 0.86968 0.0
C2 C 0.03131 0.04842 0.84188 0.0
C3 C 0.03242 0.05003 0.77858 0.0
C4 C 0.98398 0.9862 0.7431 0.0
C5 C 0.93411 0.9228 0.77319 0.0
C6 C 0.93372 0.92453 0.83667 0.0
Zn7 Zn 0.98493 0.98636 0.96278 0.0
C8 C 0.98334 0.81053 1.01265 0.0
N9 N -0.00458 -0.01139 0.15731 0.0
C10 C 0.05757 0.03742 0.19046 0.0
C11 C 0.93372 0.93935 0.18497 0.0
C12 C 0.93205 0.93904 0.24827 0.0
C13 C -0.00459 -0.01141 0.28348 0.0
C14 C 0.05922 0.03773 0.25402 0.0
Zn15 Zn -0.00741 -0.01118 0.06423 0.0
O16 O 0.12115 -0.00727 0.96566 0.0
C17 C -0.00573 0.16467 0.01522 0.0
O18 O 0.1285 -0.00842 0.0655 0.0
H19 H 0.88547 0.90023 0.15791 0.0
H20 H 0.06998 0.09682 0.86883 0.0
H21 H 0.10573 0.07647 0.16762 0.0
O22 O 0.9885 0.12248 0.96521 0.0
O23 O -0.00189 0.12466 0.06507 0.0
H24 H 0.89516 0.8758 0.85958 0.0
O25 O 0.85668 0.98628 0.06079 0.0
O26 O 0.84864 0.98 0.96097 0.0
O27 O 0.98709 0.85306 0.06247 0.0
O28 O 0.98136 0.8502 0.96261 0.0
C29 C 0.81155 0.98234 1.01095 0.0
H30 H 0.07056 0.10133 0.75785 0.0
H31 H 0.89672 0.87138 0.7482 0.0
H32 H 0.88234 0.89968 0.26953 0.0
H33 H 0.10883 0.07711 0.27984 0.0
H34 H 0.12714 0.95984 0.36494 0.0
H35 H 0.86136 0.01816 0.35295 0.0
H36 H 0.12435 0.95618 0.47554 0.0
H37 H 0.85902 0.01931 0.46354 0.0
H38 H 0.85298 0.93613 0.65861 0.0
H39 H 0.85729 0.93305 0.54865 0.0
H40 H 0.1215 0.03945 0.56346 0.0
H41 H 0.11964 0.03498 0.67332 0.0
C42 C 0.06845 0.97297 0.38626 0.0
C43 C -0.00555 -0.01094 0.35066 0.0
C44 C 0.06677 0.97138 0.44967 0.0
C45 C -0.0086 -0.01252 0.47896 0.0
C46 C 0.9177 0.00471 0.44291 0.0
C47 C 0.91904 0.00469 0.3795 0.0
C48 C 0.91261 0.95736 0.6386 0.0
C49 C 0.98594 0.98575 0.67539 0.0
C50 C 0.91464 0.95704 0.57519 0.0
C51 C -0.01037 0.98646 0.54666 0.0
C52 C 0.06284 0.01513 0.58345 0.0
C53 C 0.06126 0.01405 0.64683 0.0
H54 H 0.27722 0.95256 0.10868 0.0
H55 H 0.26827 0.03339 0.92175 0.0
H56 H 0.43234 0.94694 0.10702 0.0
H57 H 0.42393 0.03194 0.92076 0.0
H58 H 0.69243 0.93946 0.91781 0.0
H59 H 0.53658 0.94059 0.91931 0.0
H60 H 0.56212 0.03203 0.10624 0.0
H61 H 0.71712 0.02675 0.10539 0.0
C62 C 0.30863 0.97017 0.06745 0.0
C63 C 0.26056 -0.00668 0.01535 0.0
C64 C 0.39776 0.96741 0.06652 0.0
C65 C 0.44116 -0.01097 0.01374 0.0
C66 C 0.39283 0.01322 0.96186 0.0
C67 C 0.30355 0.01475 0.96254 0.0
C68 C 0.66453 0.95948 0.95922 0.0
C69 C 0.71698 0.98275 1.0115 0.0
C70 C 0.57516 0.96077 0.96003 0.0
C71 C 0.53631 0.98657 1.0129 0.0
C72 C 0.58925 0.01021 0.06504 0.0
C73 C 0.67836 0.0077 0.06448 0.0
H74 H 0.93585 0.69677 0.91933 0.0
H75 H 0.03202 0.71084 0.10706 0.0
H76 H 0.93692 0.54092 0.92038 0.0
H77 H 0.03753 0.55576 0.10745 0.0
H78 H 0.95965 0.27049 0.10894 0.0
H79 H 0.95391 0.42567 0.10794 0.0
H80 H 0.02719 0.42808 0.92114 0.0
H81 H 0.02841 0.27234 0.92147 0.0
C82 C 0.95784 0.6665 0.96069 0.0
C83 C 0.98357 0.71596 1.01314 0.0
C84 C 0.95913 0.57711 0.96123 0.0
C85 C 0.98755 0.53521 0.01398 0.0
C86 C 0.01364 0.5852 0.06633 0.0
C87 C 0.011 0.67436 0.06605 0.0
C88 C 0.97464 0.30431 0.06772 0.0
C89 C -0.00563 0.25927 0.01528 0.0
C90 C 0.97184 0.39349 0.06718 0.0
C91 C -0.00987 0.43999 0.01445 0.0
C92 C 0.011 0.39463 0.96222 0.0
C93 C 0.0124 0.30529 0.9625 0.0
loop_
_geom_bond_atom_site_label_1
_geom_bond_atom_site_label_2
_geom_bond_distance
_geom_bond_site_symmetry_2
_ccdc_geom_bond_type
C0 O16 1.243 1_544 S
C0 O18 1.263 . S
N1 C2 1.333 1_665 S
N1 C6 1.307 . S
N1 Zn7 2.020 . S
C2 N1 1.333 1_445 S
C2 C3 1.379 . S
C2 H20 0.952 . S
C3 C2 1.379 . S
C3 C4 1.391 1_455 S
C3 H30 0.949 . S
C4 C3 1.391 1_655 S
C4 C5 1.355 1_545 S
C5 C4 1.355 1_565 S
C5 C6 1.370 . S
C5 H31 0.950 . S
C6 N1 1.307 . S
C6 C5 1.370 . S
C6 H24 0.948 . S
Zn7 N1 2.020 . S
Zn7 O16 2.039 1_655 S
Zn7 O22 2.034 1_665 S
Zn7 O26 2.025 . S
Zn7 O28 2.024 . S
C8 O27 1.246 1_556 S
C8 O28 1.249 . S
N9 C10 1.307 . S
N9 C11 1.333 1_445 S
N9 Zn15 2.020 . S
C10 N9 1.307 . S
C10 C14 1.370 . S
C10 H21 0.948 . S
C11 N9 1.333 1_665 S
C11 C12 1.379 . S
C11 H19 0.952 . S
C12 C11 1.379 . S
C12 C13 1.390 1_655 S
C12 H32 0.949 . S
C13 C12 1.390 1_455 S
C13 C14 1.356 1_565 S
C14 C10 1.370 . S
C14 C13 1.356 1_545 S
C14 H33 0.950 . S
Zn15 N9 2.020 . S
Zn15 O18 2.025 . S
Zn15 O23 2.024 . S
Zn15 O25 2.039 1_455 S
Zn15 O27 2.034 1_445 S
O16 C0 1.243 1_566 S
O16 Zn7 2.039 1_455 S
C17 O22 1.246 1_554 S
C17 O23 1.249 . S
O18 C0 1.263 . S
O18 Zn15 2.025 . S
H19 C11 0.952 . S
H20 C2 0.952 . S
H21 C10 0.948 . S
O22 Zn7 2.034 1_445 S
O22 C17 1.246 1_556 S
O23 Zn15 2.024 . S
O23 C17 1.249 . S
H24 C6 0.948 . S
O25 Zn15 2.039 1_655 S
O25 C29 1.246 1_544 S
O26 Zn7 2.025 . S
O26 C29 1.259 . S
O27 C8 1.246 1_554 S
O27 Zn15 2.034 1_665 S
O28 Zn7 2.024 . S
O28 C8 1.249 . S
C29 O25 1.246 1_566 S
C29 O26 1.259 . S
H30 C3 0.949 . S
H31 C5 0.950 . S
H32 C12 0.949 . S
H33 C14 0.950 . S
H34 C42 0.950 . S
H35 C47 0.950 . S
H36 C44 0.950 . S
H37 C46 0.950 . S
H38 C48 0.950 . S
H39 C50 0.950 . S
H40 C52 0.950 . S
H41 C53 0.950 . S
C42 H34 0.950 . S
C42 C43 1.386 1_455 S
C42 C44 1.391 . S
C43 C42 1.386 1_655 S
C43 C47 1.393 1_545 S
C44 H36 0.950 . S
C44 C42 1.391 . S
C44 C45 1.393 1_455 S
C45 C44 1.393 1_655 S
C45 C46 1.405 1_545 S
C45 C51 1.492 1_645 S
C46 H37 0.950 . S
C46 C45 1.405 1_565 S
C46 C47 1.391 . S
C47 H35 0.950 . S
C47 C43 1.393 1_565 S
C47 C46 1.391 . S
C48 H38 0.950 . S
C48 C49 1.386 1_655 S
C48 C50 1.391 . S
C49 C48 1.386 1_455 S
C49 C53 1.393 1_565 S
C50 H39 0.950 . S
C50 C48 1.391 . S
C50 C51 1.391 1_655 S
C51 C45 1.492 1_465 S
C51 C50 1.391 1_455 S
C51 C52 1.407 1_565 S
C52 H40 0.950 . S
C52 C51 1.407 1_545 S
C52 C53 1.391 . S
C53 H41 0.950 . S
C53 C49 1.393 1_545 S
C53 C52 1.391 . S
H54 C62 0.950 . S
H55 C67 0.950 . S
H56 C64 0.950 . S
H57 C66 0.950 . S
H58 C68 0.950 . S
H59 C70 0.950 . S
H60 C72 0.950 . S
H61 C73 0.950 . S
C62 H54 0.950 . S
C62 C63 1.374 1_554 S
C62 C64 1.391 . S
C63 C62 1.374 1_556 S
C63 C67 1.405 1_565 S
C64 H56 0.950 . S
C64 C62 1.391 . S
C64 C65 1.396 1_554 S
C65 C64 1.396 1_556 S
C65 C66 1.402 1_565 S
C65 C71 1.491 1_566 S
C66 H57 0.950 . S
C66 C65 1.402 1_545 S
C66 C67 1.391 . S
C67 H55 0.950 . S
C67 C63 1.405 1_545 S
C67 C66 1.391 . S
C68 H58 0.950 . S
C68 C69 1.370 1_556 S
C68 C70 1.391 . S
C69 C68 1.370 1_554 S
C69 C73 1.409 1_545 S
C70 H59 0.950 . S
C70 C68 1.391 . S
C70 C71 1.392 1_556 S
C71 C65 1.491 1_544 S
C71 C70 1.392 1_554 S
C71 C72 1.406 1_545 S
C72 H60 0.950 . S
C72 C71 1.406 1_565 S
C72 C73 1.391 . S
C73 H61 0.950 . S
C73 C69 1.409 1_565 S
C73 C72 1.391 . S
H74 C82 0.950 . S
H75 C87 0.950 . S
H76 C84 0.950 . S
H77 C86 0.950 . S
H78 C88 0.950 . S
H79 C90 0.950 . S
H80 C92 0.950 . S
H81 C93 0.950 . S
C82 H74 0.950 . S
C82 C83 1.376 1_655 S
C82 C84 1.391 . S
C83 C82 1.376 1_455 S
C83 C87 1.403 1_556 S
C84 H76 0.950 . S
C84 C82 1.391 . S
C84 C85 1.398 1_655 S
C85 C84 1.398 1_455 S
C85 C86 1.402 1_556 S
C85 C91 1.490 1_456 S
C86 H77 0.950 . S
C86 C85 1.402 1_554 S
C86 C87 1.391 . S
C87 H75 0.950 . S
C87 C83 1.403 1_554 S
C87 C86 1.391 . S
C88 H78 0.950 . S
C88 C89 1.379 1_455 S
C88 C90 1.391 . S
C89 C88 1.379 1_655 S
C89 C93 1.401 1_554 S
C90 H79 0.950 . S
C90 C88 1.391 . S
C90 C91 1.398 1_455 S
C91 C85 1.490 1_654 S
C91 C90 1.398 1_655 S
C91 C92 1.400 1_554 S
C92 H80 0.950 . S
C92 C91 1.400 1_556 S
C92 C93 1.391 . S
C93 H81 0.950 . S
C93 C89 1.401 1_556 S
C93 C92 1.391 . S
C43 C13 1.499 1_645 S
C49 C4 1.499 1_465 S
C63 C0 1.498 1_566 S
C69 C29 1.498 1_544 S
C83 C8 1.494 1_455 S
C89 C17 1.495 1_655 S
