# Generated by pormake.
# Topology kag, (6)-cn, num edge types: 1
# Building blocks:
#     Node 0, Type 0, BuildingBlock: VOLQOD_clean_sbu_1, # of connection points: 6
#     Node 1, Type 0, BuildingBlock: VOLQOD_clean_sbu_1, # of connection points: 6
#     Node 2, Type 0, BuildingBlock: VOLQOD_clean_sbu_1, # of connection points: 6
#     Edge 3, Type (0, 0), BuildingBlock: XIVTED_clean_linker_0, # of connection points: 2
#     Edge 4, Type (0, 0), BuildingBlock: XIVTED_clean_linker_0, # of connection points: 2
#     Edge 5, Type (0, 0), BuildingBlock: XIVTED_clean_linker_0, # of connection points: 2
#     Edge 6, Type (0, 0), BuildingBlock: XIVTED_clean_linker_0, # of connection points: 2
#     Edge 7, Type (0, 0), BuildingBlock: XIVTED_clean_linker_0, # of connection points: 2
#     Edge 8, Type (0, 0), BuildingBlock: XIVTED_clean_linker_0, # of connection points: 2
#     Edge 9, Type (0, 0), BuildingBlock: XIVTED_clean_linker_0, # of connection points: 2
#     Edge 10, Type (0, 0), BuildingBlock: XIVTED_clean_linker_0, # of connection points: 2
#     Edge 11, Type (0, 0), BuildingBlock: XIVTED_clean_linker_0, # of connection points: 2
# Relax obj value: 0.313
# Max RMSD: 0.246
# Mean RMSD: 0.245
data_MOF--net-kag--node1-VOLQOD_clean_sbu_1--edge1-XIVTED_clean_linker_0
_symmetry_space_group_name_H-M    P1
_symmetry_Int_Tables_number       1
_symmetry_cell_setting            triclinic
loop_
_symmetry_equiv_pos_as_xyz
'x, y, z'
_cell_length_a     31.778226
_cell_length_b     32.53263
_cell_length_c     17.350539
_cell_angle_alpha  89.057598
_cell_angle_beta   90.389442
_cell_angle_gamma 120.23541
loop_
_atom_site_label
_atom_site_type_symbol
_atom_site_fract_x
_atom_site_fract_y
_atom_site_fract_z
_atom_type_partial_charge
O0 O -0.01345 0.43803 0.96329 0.0
Zn1 Zn -0.01021 0.42754 0.07714 0.0
O2 O -0.01651 0.47384 0.13745 0.0
Zn3 Zn 0.04117 0.50932 0.2012 0.0
Zn4 Zn -0.02133 0.51789 0.06756 0.0
Zn5 Zn 0.92518 0.44156 0.20137 0.0
O6 O 0.02448 0.491 0.31314 0.0
O7 O 0.94341 0.45503 0.31281 0.0
O8 O 0.05439 0.43388 0.09273 0.0
O9 O 0.09471 0.49772 0.16567 0.0
O10 O 0.06798 0.58028 0.1908 0.0
O11 O 0.0289 0.58434 0.08734 0.0
O12 O 0.91648 0.51567 0.08154 0.0
O13 O 0.9379 0.36124 0.1019 0.0
O14 O 0.87546 0.4608 0.17189 0.0
O15 O 0.89255 0.37078 0.18854 0.0
C16 C -0.01586 0.47022 0.92433 0.0
C17 C -0.0162 0.47217 0.34865 0.0
C18 C 0.06031 0.60446 0.14001 0.0
C19 C 0.09342 0.46503 0.1245 0.0
C20 C 0.87895 0.49206 0.12316 0.0
C21 C 0.90153 0.3441 0.14724 0.0
O22 O -0.01827 0.50364 0.95696 0.0
O23 O 0.47085 0.96548 0.18234 0.0
Zn24 Zn 0.49745 0.9753 0.07495 0.0
O25 O 0.4617 -0.0079 0.00461 0.0
Zn26 Zn 0.42107 0.93985 0.93967 0.0
Zn27 Zn 0.42337 0.00933 0.06733 0.0
Zn28 Zn 0.50556 0.04302 0.93783 0.0
O29 O 0.42499 0.95977 0.82891 0.0
O30 O 0.4989 0.02384 0.82697 0.0
O31 O 0.50012 0.91933 0.03631 0.0
O32 O 0.44673 0.89523 0.94026 0.0
O33 O 0.3524 0.90749 0.97725 0.0
O34 O 0.35431 0.95524 0.06949 0.0
O35 O 0.42517 0.06754 0.02214 0.0
O36 O 0.56635 0.02827 0.07963 0.0
O37 O 0.4853 0.09134 0.93678 0.0
O38 O 0.57462 0.07179 0.97451 0.0
C39 C 0.45734 -0.00864 0.21624 0.0
C40 C 0.46149 -0.00792 0.79204 0.0
C41 C 0.33154 0.9177 0.02983 0.0
C42 C 0.47857 0.89182 0.98026 0.0
C43 C 0.4525 0.0963 0.9696 0.0
C44 C 0.59247 0.06278 0.03402 0.0
O45 O 0.44551 0.01794 0.17829 0.0
O46 O 0.54058 0.56211 0.01205 0.0
Zn47 Zn 0.55806 0.5701 0.89938 0.0
O48 O 0.50668 0.52079 0.83793 0.0
Zn49 Zn 0.53191 0.48927 0.77555 0.0
Zn50 Zn 0.45927 0.47415 0.90793 0.0
Zn51 Zn 0.47752 0.54849 0.77229 0.0
O52 O 0.53161 0.50517 0.66359 0.0
O53 O 0.48372 0.53691 0.6604 0.0
O54 O 0.61743 0.56462 0.89455 0.0
O55 O 0.59829 0.50547 0.81364 0.0
O56 O 0.49106 0.41835 0.78625 0.0
O57 O 0.44351 0.40864 0.88571 0.0
O58 O 0.39814 0.47495 0.89938 0.0
O59 O 0.57265 0.63515 0.86802 0.0
O60 O 0.40776 0.52582 0.80458 0.0
O61 O 0.51341 0.61882 0.78422 0.0
C62 C 0.51081 0.52542 0.05081 0.0
C63 C 0.50863 0.5218 0.62632 0.0
C64 C 0.4581 0.39153 0.83416 0.0
C65 C 0.62757 0.53618 0.86111 0.0
C66 C 0.38198 0.49622 0.85742 0.0
C67 C 0.55028 0.64857 0.82241 0.0
O68 O 0.47995 0.48732 0.01797 0.0
H69 H 0.02363 0.43093 0.83206 0.0
H70 H 0.91428 0.46883 0.44378 0.0
H71 H 0.9443 0.50647 0.82426 0.0
H72 H 0.05173 0.47196 0.44628 0.0
H73 H 0.91404 0.46728 0.5848 0.0
H74 H 0.02383 0.43062 0.69051 0.0
C75 C 0.00608 0.4472 0.80054 0.0
C76 C -0.016 0.46887 0.83958 0.0
C77 C 0.94419 0.4683 0.55429 0.0
C78 C -0.01642 0.46801 0.679 0.0
C79 C 0.94428 0.46896 0.47405 0.0
C80 C -0.01681 0.47068 0.43353 0.0
C81 C -0.01728 0.46832 0.59414 0.0
C82 C 0.02125 0.471 0.47552 0.0
C83 C 0.00646 0.44722 0.72012 0.0
C84 C 0.96198 0.48967 0.79623 0.0
N85 N 0.01992 0.46947 0.55383 0.0
N86 N 0.96198 0.4884 0.71812 0.0
H87 H 0.44392 0.91918 0.31366 0.0
H88 H 0.50963 0.06874 0.69481 0.0
H89 H 0.46776 0.06207 0.31144 0.0
H90 H 0.41064 0.91695 0.6967 0.0
H91 H 0.50683 0.06877 0.55347 0.0
H92 H 0.44351 0.91925 0.45477 0.0
C93 C 0.44911 0.95056 0.34294 0.0
C94 C 0.45588 -0.0093 0.30109 0.0
C95 C 0.48568 0.03558 0.58509 0.0
C96 C 0.45613 -0.00884 0.46172 0.0
C97 C 0.48748 0.03545 0.66543 0.0
C98 C 0.46033 -0.00724 0.7072 0.0
C99 C 0.45748 -0.00744 0.54658 0.0
C100 C 0.43193 0.95064 0.66652 0.0
C101 C 0.44864 0.95046 0.42322 0.0
C102 C 0.46218 0.03034 0.34172 0.0
N103 N 0.4316 0.95151 0.58826 0.0
N104 N 0.46268 0.0298 0.42005 0.0
H105 H 0.52389 0.46421 0.5324 0.0
H106 H 0.54158 0.60275 0.14313 0.0
H107 H 0.4981 0.58244 0.52777 0.0
H108 H 0.48344 0.45086 0.15084 0.0
H109 H 0.54222 0.60306 0.28472 0.0
H110 H 0.52584 0.46606 0.39128 0.0
C111 C 0.51889 0.49069 0.50165 0.0
C112 C 0.51061 0.5231 0.54152 0.0
C113 C 0.52936 0.56979 0.25506 0.0
C114 C 0.51346 0.52573 0.38099 0.0
C115 C 0.52919 0.56959 0.17464 0.0
C116 C 0.51225 0.52668 0.13557 0.0
C117 C 0.51363 0.52699 0.29615 0.0
C118 C 0.49642 0.48463 0.17889 0.0
C119 C 0.51979 0.49156 0.42138 0.0
C120 C 0.50418 0.5566 0.49899 0.0
N121 N 0.49785 0.48588 0.25701 0.0
N122 N 0.50608 0.5573 0.42075 0.0
H123 H 0.10654 0.39215 0.08294 0.0
H124 H 0.35636 0.56452 0.86515 0.0
H125 H 0.18201 0.54496 0.10278 0.0
H126 H 0.30245 0.41497 0.90536 0.0
H127 H 0.28628 0.55698 0.93657 0.0
H128 H 0.17489 0.39908 0.00899 0.0
C129 C 0.13811 0.42709 0.07321 0.0
C130 C 0.13885 0.46803 0.09906 0.0
C131 C 0.28958 0.52575 0.92878 0.0
C132 C 0.21621 0.47638 0.01232 0.0
C133 C 0.32893 0.52987 0.88692 0.0
C134 C 0.33482 0.49025 0.87958 0.0
C135 C 0.25607 0.48166 0.96245 0.0
C136 C 0.299 0.4463 0.91001 0.0
C137 C 0.17684 0.43108 0.03039 0.0
C138 C 0.18034 0.51251 0.08451 0.0
N139 N 0.26123 0.44322 0.95055 0.0
N140 N 0.21724 0.5156 0.04102 0.0
H141 H 0.66681 0.11882 0.93556 0.0
H142 H 0.82943 0.28992 0.25114 0.0
H143 H 0.63492 0.07901 0.17582 0.0
H144 H 0.89043 0.28245 0.03369 0.0
H145 H 0.75929 0.21096 0.2285 0.0
H146 H 0.75012 0.17808 0.97067 0.0
C147 C 0.67757 0.12227 -0.00443 0.0
C148 C 0.64398 0.0946 0.05303 0.0
C149 C 0.78865 0.2262 0.18672 0.0
C150 C 0.7386 0.16226 0.09352 0.0
C151 C 0.82854 0.27125 0.19947 0.0
C152 C 0.86523 0.29307 0.14348 0.0
C153 C 0.78511 0.20359 0.1168 0.0
C154 C 0.86264 0.26714 0.07797 0.0
C155 C 0.72512 0.15572 0.0155 0.0
C156 C 0.65978 0.09994 0.12986 0.0
N157 N 0.82254 0.22416 0.06545 0.0
N158 N 0.70582 0.13395 0.14817 0.0
H159 H 0.54754 0.8757 0.04688 0.0
H160 H 0.51959 0.69375 0.72268 0.0
H161 H 0.45039 0.83729 0.85159 0.0
H162 H 0.60217 0.71486 0.93174 0.0
H163 H 0.51162 0.7622 0.75385 0.0
H164 H 0.58075 0.82866 -0.00557 0.0
C165 C 0.53293 0.85712 -0.00665 0.0
C166 C 0.49569 0.85994 0.95406 0.0
C167 C 0.53225 0.75239 0.79225 0.0
C168 C 0.5343 0.8072 0.89308 0.0
C169 C 0.53714 0.71356 0.77415 0.0
C170 C 0.56015 0.69774 0.82604 0.0
C171 C 0.5501 0.77507 0.86295 0.0
C172 C 0.58322 0.7253 0.89093 0.0
C173 C 0.55228 0.83075 0.96309 0.0
C174 C 0.47863 0.83568 0.88444 0.0
N175 N 0.57653 0.76206 0.90868 0.0
N176 N 0.49803 0.81027 0.8563 0.0
H177 H 0.88058 0.57549 0.10908 0.0
H178 H 0.64103 0.45977 0.85464 0.0
H179 H 0.78566 0.42383 0.09215 0.0
H180 H 0.7067 0.60316 0.93932 0.0
H181 H 0.6994 0.44805 0.93025 0.0
H182 H 0.81958 0.58779 0.04305 0.0
C183 C 0.84608 0.5448 0.09343 0.0
C184 C 0.83762 0.49864 0.10627 0.0
C185 C 0.70112 0.48213 0.93183 0.0
C186 C 0.769 0.51228 0.02792 0.0
C187 C 0.66844 0.48916 0.88766 0.0
C188 C 0.66904 0.53252 0.89084 0.0
C189 C 0.73488 0.5189 0.97859 0.0
C190 C 0.70493 0.56914 0.93541 0.0
C191 C 0.81159 0.55179 0.05511 0.0
C192 C 0.79297 0.45992 0.08405 0.0
N193 N 0.73638 0.56145 0.97779 0.0
N194 N 0.76045 0.46761 0.0445 0.0
H195 H 0.13241 0.66294 0.24043 0.0
H196 H 0.25787 0.86103 0.9337 0.0
H197 H 0.0564 0.66542 0.03449 0.0
H198 H 0.29287 0.89267 0.17399 0.0
H199 H 0.18111 0.79064 0.97105 0.0
H200 H 0.18947 0.74821 0.22208 0.0
C201 C 0.12725 0.68147 0.19216 0.0
C202 C 0.09038 0.65679 0.13784 0.0
C203 C 0.20498 0.81359 0.01569 0.0
C204 C 0.15527 0.75371 0.11658 0.0
C205 C 0.24872 0.85358 -0.00568 0.0
C206 C 0.28151 0.88211 0.05097 0.0
C207 C 0.19499 0.80137 0.09412 0.0
C208 C 0.26825 0.87129 0.12877 0.0
C209 C 0.15958 0.73012 0.18202 0.0
C210 C 0.08491 0.68272 0.07695 0.0
N211 N 0.22638 0.83088 0.14832 0.0
N212 N 0.11765 0.72958 0.06708 0.0
H213 H 0.39233 0.32431 0.93421 0.0
H214 H 0.48758 0.14812 0.83722 0.0
H215 H 0.48562 0.34203 0.74129 0.0
H216 H 0.39696 0.12976 0.03428 0.0
H217 H 0.47495 0.21144 0.7893 0.0
H218 H 0.3797 0.24478 0.95701 0.0
C219 C 0.40945 0.31117 0.89569 0.0
C220 C 0.44125 0.34033 0.83706 0.0
C221 C 0.45758 0.19351 0.84285 0.0
C222 C 0.42721 0.24972 0.86339 0.0
C223 C 0.46512 0.15756 0.87073 0.0
C224 C 0.44414 0.13434 0.94085 0.0
C225 C 0.4293 0.20689 0.8857 0.0
C226 C 0.41438 0.14727 0.98056 0.0
C227 C 0.40227 0.26578 0.90895 0.0
C228 C 0.46166 0.32116 0.78817 0.0
N229 N 0.40831 0.18323 0.95283 0.0
N230 N 0.45495 0.27728 0.80331 0.0
loop_
_geom_bond_atom_site_label_1
_geom_bond_atom_site_label_2
_geom_bond_distance
_geom_bond_site_symmetry_2
_ccdc_geom_bond_type
O0 Zn1 1.953 . S
O0 C16 1.225 . S
Zn1 O0 1.953 . S
Zn1 O2 1.949 1_556 S
Zn1 O8 1.919 . S
Zn1 O13 1.924 1_455 S
O2 Zn1 1.949 1_554 S
O2 Zn3 1.923 . S
O2 Zn4 1.950 1_454 S
O2 Zn5 1.945 1_455 S
Zn3 O2 1.923 . S
Zn3 O6 1.933 . S
Zn3 O9 1.941 . S
Zn3 O10 1.965 . S
Zn4 O2 1.950 1_656 S
Zn4 O11 1.938 1_655 S
Zn4 O12 1.906 . S
Zn4 O22 1.953 . S
Zn5 O2 1.945 1_655 S
Zn5 O7 1.932 . S
Zn5 O14 1.977 . S
Zn5 O15 1.910 . S
O6 Zn3 1.933 . S
O6 C17 1.226 . S
O7 Zn5 1.932 . S
O7 C17 1.307 1_655 S
O8 Zn1 1.919 . S
O8 C19 1.253 1_556 S
O9 Zn3 1.941 . S
O9 C19 1.283 . S
O10 Zn3 1.965 . S
O10 C18 1.303 1_554 S
O11 Zn4 1.938 1_455 S
O11 C18 1.247 . S
O12 Zn4 1.906 . S
O12 C20 1.304 1_556 S
O13 Zn1 1.924 1_655 S
O13 C21 1.311 . S
O14 Zn5 1.977 . S
O14 C20 1.272 . S
O15 Zn5 1.910 . S
O15 C21 1.231 1_554 S
C16 O0 1.225 . S
C16 O22 1.298 1_455 S
C17 O6 1.226 . S
C17 O7 1.307 1_455 S
C18 O10 1.303 1_556 S
C18 O11 1.247 . S
C19 O8 1.253 1_554 S
C19 O9 1.283 . S
C20 O12 1.304 1_554 S
C20 O14 1.272 . S
C21 O13 1.311 . S
C21 O15 1.231 1_556 S
O22 Zn4 1.953 . S
O22 C16 1.298 1_655 S
O23 Zn24 1.953 . S
O23 C39 1.225 . S
Zn24 O23 1.953 . S
Zn24 O25 1.944 1_554 S
Zn24 O31 1.919 1_545 S
Zn24 O36 1.924 . S
O25 Zn24 1.944 1_556 S
O25 Zn26 1.927 1_545 S
O25 Zn27 1.946 1_556 S
O25 Zn28 1.949 . S
Zn26 O25 1.927 1_565 S
Zn26 O29 1.933 . S
Zn26 O32 1.941 . S
Zn26 O33 1.965 . S
Zn27 O25 1.946 1_554 S
Zn27 O34 1.938 1_545 S
Zn27 O35 1.906 . S
Zn27 O45 1.953 . S
Zn28 O25 1.949 . S
Zn28 O30 1.932 . S
Zn28 O37 1.977 . S
Zn28 O38 1.910 . S
O29 Zn26 1.933 . S
O29 C40 1.226 1_565 S
O30 Zn28 1.932 . S
O30 C40 1.307 . S
O31 Zn24 1.919 1_565 S
O31 C42 1.253 1_554 S
O32 Zn26 1.941 . S
O32 C42 1.283 . S
O33 Zn26 1.965 . S
O33 C41 1.303 1_556 S
O34 Zn27 1.938 1_565 S
O34 C41 1.247 . S
O35 Zn27 1.906 . S
O35 C43 1.304 1_554 S
O36 Zn24 1.924 . S
O36 C44 1.311 . S
O37 Zn28 1.977 . S
O37 C43 1.272 . S
O38 Zn28 1.910 . S
O38 C44 1.231 1_556 S
C39 O23 1.225 . S
C39 O45 1.298 . S
C40 O29 1.226 1_545 S
C40 O30 1.307 . S
C41 O33 1.303 1_554 S
C41 O34 1.247 . S
C42 O31 1.253 1_556 S
C42 O32 1.283 . S
C43 O35 1.304 1_556 S
C43 O37 1.272 . S
C44 O36 1.311 . S
C44 O38 1.231 1_554 S
O45 Zn27 1.953 . S
O45 C39 1.298 . S
O46 Zn47 1.953 . S
O46 C62 1.225 . S
Zn47 O46 1.953 . S
Zn47 O48 1.944 1_554 S
Zn47 O54 1.919 . S
Zn47 O59 1.924 . S
O48 Zn47 1.944 1_556 S
O48 Zn49 1.927 . S
O48 Zn50 1.945 1_556 S
O48 Zn51 1.949 . S
Zn49 O48 1.927 . S
Zn49 O52 1.933 . S
Zn49 O55 1.941 . S
Zn49 O56 1.965 . S
Zn50 O48 1.945 1_554 S
Zn50 O57 1.938 . S
Zn50 O58 1.906 . S
Zn50 O68 1.953 . S
Zn51 O48 1.949 . S
Zn51 O53 1.932 . S
Zn51 O60 1.977 . S
Zn51 O61 1.910 . S
O52 Zn49 1.933 . S
O52 C63 1.226 . S
O53 Zn51 1.932 . S
O53 C63 1.307 . S
O54 Zn47 1.919 . S
O54 C65 1.253 1_554 S
O55 Zn49 1.941 . S
O55 C65 1.283 . S
O56 Zn49 1.965 . S
O56 C64 1.303 1_556 S
O57 Zn50 1.938 . S
O57 C64 1.247 . S
O58 Zn50 1.906 . S
O58 C66 1.304 1_554 S
O59 Zn47 1.924 . S
O59 C67 1.311 . S
O60 Zn51 1.977 . S
O60 C66 1.272 . S
O61 Zn51 1.910 . S
O61 C67 1.231 1_556 S
C62 O46 1.225 . S
C62 O68 1.298 . S
C63 O52 1.226 . S
C63 O53 1.307 . S
C64 O56 1.303 1_554 S
C64 O57 1.247 . S
C65 O54 1.253 1_556 S
C65 O55 1.283 . S
C66 O58 1.304 1_556 S
C66 O60 1.272 . S
C67 O59 1.311 . S
C67 O61 1.231 1_554 S
O68 Zn50 1.953 . S
O68 C62 1.298 . S
H69 C75 0.930 . S
H70 C79 0.930 . S
H71 C84 0.929 . S
H72 C82 0.929 . S
H73 C77 0.929 . S
H74 C83 0.929 . S
C75 H69 0.930 . S
C75 C76 1.367 . S
C75 C83 1.378 . S
C76 C75 1.367 . S
C76 C84 1.433 1_455 S
C77 H73 0.929 . S
C77 C79 1.378 . S
C77 C81 1.350 1_655 S
C78 C81 1.463 . S
C78 C83 1.350 . S
C78 N86 1.427 1_455 S
C79 H70 0.930 . S
C79 C77 1.378 . S
C79 C80 1.367 1_655 S
C80 C79 1.367 1_455 S
C80 C82 1.433 . S
C81 C77 1.350 1_455 S
C81 C78 1.463 . S
C81 N85 1.427 . S
C82 H72 0.929 . S
C82 C80 1.433 . S
C82 N85 1.384 . S
C83 H74 0.929 . S
C83 C75 1.378 . S
C83 C78 1.350 . S
C84 H71 0.929 . S
C84 C76 1.433 1_655 S
C84 N86 1.384 . S
N85 C81 1.427 . S
N85 C82 1.384 . S
N86 C78 1.427 1_655 S
N86 C84 1.384 . S
H87 C93 0.930 . S
H88 C97 0.930 . S
H89 C102 0.929 . S
H90 C100 0.929 . S
H91 C95 0.929 . S
H92 C101 0.929 . S
C93 H87 0.930 . S
C93 C94 1.367 1_565 S
C93 C101 1.378 . S
C94 C93 1.367 1_545 S
C94 C102 1.433 . S
C95 H91 0.929 . S
C95 C97 1.378 . S
C95 C99 1.350 . S
C96 C99 1.463 . S
C96 C101 1.350 1_545 S
C96 N104 1.427 . S
C97 H88 0.930 . S
C97 C95 1.378 . S
C97 C98 1.367 . S
C98 C97 1.367 . S
C98 C100 1.433 1_545 S
C99 C95 1.350 . S
C99 C96 1.463 . S
C99 N103 1.427 1_545 S
C100 H90 0.929 . S
C100 C98 1.433 1_565 S
C100 N103 1.384 . S
C101 H92 0.929 . S
C101 C93 1.378 . S
C101 C96 1.350 1_565 S
C102 H89 0.929 . S
C102 C94 1.433 . S
C102 N104 1.384 . S
N103 C99 1.427 1_565 S
N103 C100 1.384 . S
N104 C96 1.427 . S
N104 C102 1.384 . S
H105 C111 0.930 . S
H106 C115 0.930 . S
H107 C120 0.929 . S
H108 C118 0.929 . S
H109 C113 0.929 . S
H110 C119 0.929 . S
C111 H105 0.930 . S
C111 C112 1.367 . S
C111 C119 1.378 . S
C112 C111 1.367 . S
C112 C120 1.433 . S
C113 H109 0.929 . S
C113 C115 1.378 . S
C113 C117 1.350 . S
C114 C117 1.463 . S
C114 C119 1.350 . S
C114 N122 1.427 . S
C115 H106 0.930 . S
C115 C113 1.378 . S
C115 C116 1.367 . S
C116 C115 1.367 . S
C116 C118 1.433 . S
C117 C113 1.350 . S
C117 C114 1.463 . S
C117 N121 1.427 . S
C118 H108 0.929 . S
C118 C116 1.433 . S
C118 N121 1.384 . S
C119 H110 0.929 . S
C119 C111 1.378 . S
C119 C114 1.350 . S
C120 H107 0.929 . S
C120 C112 1.433 . S
C120 N122 1.384 . S
N121 C117 1.427 . S
N121 C118 1.384 . S
N122 C114 1.427 . S
N122 C120 1.384 . S
H123 C129 0.927 1_556 S
H124 C133 0.930 . S
H125 C138 0.929 . S
H126 C136 0.929 . S
H127 C131 0.929 . S
H128 C137 0.929 . S
C129 H123 0.927 1_554 S
C129 C130 1.372 . S
C129 C137 1.376 1_554 S
C130 C129 1.372 . S
C130 C138 1.433 . S
C131 H127 0.929 . S
C131 C133 1.378 . S
C131 C135 1.350 1_554 S
C132 C135 1.463 1_554 S
C132 C137 1.350 1_554 S
C132 N140 1.427 . S
C133 H124 0.930 . S
C133 C131 1.378 . S
C133 C134 1.367 1_554 S
C134 C133 1.367 1_556 S
C134 C136 1.433 . S
C135 C131 1.350 1_556 S
C135 C132 1.463 1_556 S
C135 N139 1.427 . S
C136 H126 0.929 . S
C136 C134 1.433 . S
C136 N139 1.384 . S
C137 H128 0.929 . S
C137 C129 1.376 1_556 S
C137 C132 1.350 1_556 S
C138 H125 0.929 . S
C138 C130 1.433 . S
C138 N140 1.384 . S
N139 C135 1.427 . S
N139 C136 1.384 . S
N140 C132 1.427 . S
N140 C138 1.384 . S
H141 C147 0.930 . S
H142 C151 0.930 . S
H143 C156 0.929 . S
H144 C154 0.929 . S
H145 C149 0.929 . S
H146 C155 0.929 . S
C147 H141 0.930 . S
C147 C148 1.367 1_556 S
C147 C155 1.378 . S
C148 C147 1.367 1_554 S
C148 C156 1.433 . S
C149 H145 0.929 . S
C149 C151 1.378 . S
C149 C153 1.350 1_554 S
C150 C153 1.463 1_554 S
C150 C155 1.350 1_554 S
C150 N158 1.427 . S
C151 H142 0.930 . S
C151 C149 1.378 . S
C151 C152 1.367 1_554 S
C152 C151 1.367 1_556 S
C152 C154 1.433 . S
C153 C149 1.350 1_556 S
C153 C150 1.463 1_556 S
C153 N157 1.427 . S
C154 H144 0.929 . S
C154 C152 1.433 . S
C154 N157 1.384 . S
C155 H146 0.929 . S
C155 C147 1.378 . S
C155 C150 1.350 1_556 S
C156 H143 0.929 . S
C156 C148 1.433 . S
C156 N158 1.384 . S
N157 C153 1.427 . S
N157 C154 1.384 . S
N158 C150 1.427 . S
N158 C156 1.384 . S
H159 C165 0.930 . S
H160 C169 0.930 . S
H161 C174 0.929 . S
H162 C172 0.929 . S
H163 C167 0.929 . S
H164 C173 0.929 . S
C165 H159 0.930 . S
C165 C166 1.367 1_554 S
C165 C173 1.378 . S
C166 C165 1.367 1_556 S
C166 C174 1.433 . S
C167 H163 0.929 . S
C167 C169 1.378 . S
C167 C171 1.350 1_556 S
C168 C171 1.463 1_556 S
C168 C173 1.350 1_556 S
C168 N176 1.427 . S
C169 H160 0.930 . S
C169 C167 1.378 . S
C169 C170 1.367 1_556 S
C170 C169 1.367 1_554 S
C170 C172 1.433 . S
C171 C167 1.350 1_554 S
C171 C168 1.463 1_554 S
C171 N175 1.427 . S
C172 H162 0.929 . S
C172 C170 1.433 . S
C172 N175 1.384 . S
C173 H164 0.929 . S
C173 C165 1.378 . S
C173 C168 1.350 1_554 S
C174 H161 0.929 . S
C174 C166 1.433 . S
C174 N176 1.384 . S
N175 C171 1.427 . S
N175 C172 1.384 . S
N176 C168 1.427 . S
N176 C174 1.384 . S
H177 C183 0.930 . S
H178 C187 0.930 . S
H179 C192 0.929 . S
H180 C190 0.929 . S
H181 C185 0.929 . S
H182 C191 0.929 . S
C183 H177 0.930 . S
C183 C184 1.367 1_556 S
C183 C191 1.378 . S
C184 C183 1.367 1_554 S
C184 C192 1.433 . S
C185 H181 0.929 . S
C185 C187 1.378 . S
C185 C189 1.350 1_554 S
C186 C189 1.463 1_554 S
C186 C191 1.350 1_554 S
C186 N194 1.427 . S
C187 H178 0.930 . S
C187 C185 1.378 . S
C187 C188 1.367 1_554 S
C188 C187 1.367 1_556 S
C188 C190 1.433 . S
C189 C185 1.350 1_556 S
C189 C186 1.463 1_556 S
C189 N193 1.427 . S
C190 H180 0.929 . S
C190 C188 1.433 . S
C190 N193 1.384 . S
C191 H182 0.929 . S
C191 C183 1.378 . S
C191 C186 1.350 1_556 S
C192 H179 0.929 . S
C192 C184 1.433 . S
C192 N194 1.384 . S
N193 C189 1.427 . S
N193 C190 1.384 . S
N194 C186 1.427 . S
N194 C192 1.384 . S
H195 C201 0.930 . S
H196 C205 0.930 . S
H197 C210 0.929 . S
H198 C208 0.929 . S
H199 C203 0.929 1_556 S
H200 C209 0.929 . S
C201 H195 0.930 . S
C201 C202 1.367 . S
C201 C209 1.378 1_556 S
C202 C201 1.367 . S
C202 C210 1.433 . S
C203 H199 0.929 1_554 S
C203 C205 1.378 . S
C203 C207 1.350 . S
C204 C207 1.463 1_556 S
C204 C209 1.350 1_556 S
C204 N212 1.427 . S
C205 H196 0.930 . S
C205 C203 1.378 . S
C205 C206 1.367 . S
C206 C205 1.367 . S
C206 C208 1.433 . S
C207 C203 1.350 . S
C207 C204 1.463 1_554 S
C207 N211 1.427 . S
C208 H198 0.929 . S
C208 C206 1.433 . S
C208 N211 1.384 . S
C209 H200 0.929 . S
C209 C201 1.378 1_554 S
C209 C204 1.350 1_554 S
C210 H197 0.929 . S
C210 C202 1.433 . S
C210 N212 1.384 . S
N211 C207 1.427 . S
N211 C208 1.384 . S
N212 C204 1.427 . S
N212 C210 1.384 . S
H213 C219 0.930 . S
H214 C223 0.930 . S
H215 C228 0.929 . S
H216 C226 0.929 . S
H217 C221 0.929 . S
H218 C227 0.929 . S
C219 H213 0.930 . S
C219 C220 1.367 . S
C219 C227 1.378 . S
C220 C219 1.367 . S
C220 C228 1.433 1_554 S
C221 H217 0.929 . S
C221 C223 1.378 . S
C221 C225 1.350 . S
C222 C225 1.463 1_554 S
C222 C227 1.350 . S
C222 N230 1.427 1_554 S
C223 H214 0.930 . S
C223 C221 1.378 . S
C223 C224 1.367 . S
C224 C223 1.367 . S
C224 C226 1.433 1_556 S
C225 C221 1.350 . S
C225 C222 1.463 1_556 S
C225 N229 1.427 1_556 S
C226 H216 0.929 . S
C226 C224 1.433 1_554 S
C226 N229 1.384 . S
C227 H218 0.929 . S
C227 C219 1.378 . S
C227 C222 1.350 . S
C228 H215 0.929 . S
C228 C220 1.433 1_556 S
C228 N230 1.384 . S
N229 C225 1.427 1_554 S
N229 C226 1.384 . S
N230 C222 1.427 1_556 S
N230 C228 1.384 . S
C76 C16 1.499 . S
C80 C17 1.499 . S
C94 C39 1.499 . S
C98 C40 1.498 . S
C112 C63 1.498 . S
C116 C62 1.499 . S
C130 C19 1.016 . S
C134 C66 1.009 . S
C148 C44 0.996 . S
C152 C21 0.998 . S
C166 C42 1.002 . S
C170 C67 1.022 . S
C184 C20 1.053 . S
C188 C65 1.032 . S
C202 C18 1.103 . S
C206 C41 1.106 . S
C220 C64 1.085 . S
C224 C43 1.057 . S
