# Generated by pormake.
# Topology wlj, (5)-cn, num edge types: 1
# Building blocks:
#     Node 0, Type 0, BuildingBlock: BEQFEK_clean_sbu_0, # of connection points: 5
#     Node 1, Type 0, BuildingBlock: BEQFEK_clean_sbu_0, # of connection points: 5
#     Node 2, Type 0, BuildingBlock: BEQFEK_clean_sbu_0, # of connection points: 5
#     Node 3, Type 0, BuildingBlock: BEQFEK_clean_sbu_0, # of connection points: 5
#     Node 4, Type 0, BuildingBlock: BEQFEK_clean_sbu_0, # of connection points: 5
#     Node 5, Type 0, BuildingBlock: BEQFEK_clean_sbu_0, # of connection points: 5
#     Edge 6, Type (0, 0), None
#     Edge 7, Type (0, 0), None
#     Edge 8, Type (0, 0), None
#     Edge 9, Type (0, 0), None
#     Edge 10, Type (0, 0), None
#     Edge 11, Type (0, 0), None
#     Edge 12, Type (0, 0), None
#     Edge 13, Type (0, 0), None
#     Edge 14, Type (0, 0), None
#     Edge 15, Type (0, 0), None
#     Edge 16, Type (0, 0), None
#     Edge 17, Type (0, 0), None
#     Edge 18, Type (0, 0), None
#     Edge 19, Type (0, 0), None
#     Edge 20, Type (0, 0), None
# Relax obj value: 0.100
# Max RMSD: 0.098
# Mean RMSD: 0.098
data_MOF--net-wlj--node1-BEQFEK_clean_sbu_0--edge1-none
_symmetry_space_group_name_H-M    P1
_symmetry_Int_Tables_number       1
_symmetry_cell_setting            triclinic
loop_
_symmetry_equiv_pos_as_xyz
'x, y, z'
_cell_length_a     12.077575
_cell_length_b     12.077795
_cell_length_c     34.569049
_cell_angle_alpha  90.001311
_cell_angle_beta   89.998753
_cell_angle_gamma 120.00053
loop_
_atom_site_label
_atom_site_type_symbol
_atom_site_fract_x
_atom_site_fract_y
_atom_site_fract_z
_atom_type_partial_charge
Co0 Co 0.44489 0.34639 0.2196 0.0
Co1 Co 0.58306 0.24009 0.27058 0.0
C2 C 0.39482 0.07499 0.20882 0.0
O3 O 0.37009 0.16302 0.19933 0.0
O4 O 0.47867 0.09454 0.23441 0.0
C5 C 0.27963 0.44486 0.19103 0.0
O6 O 0.18238 0.34994 0.2088 0.0
C7 C 0.59838 0.07383 0.32887 0.0
C8 C 0.78842 0.20037 0.35469 0.0
C9 C 0.6785 0.08271 0.35909 0.0
N10 N 0.65743 0.18286 0.30843 0.0
N11 N 0.77222 0.25665 0.32332 0.0
C12 C 0.46196 0.97252 0.32208 0.0
H13 H 0.40806 0.0147 0.30862 0.0
H14 H 0.41475 0.92367 0.34943 0.0
H15 H 0.4592 0.90088 0.30144 0.0
C16 C 0.37682 0.40192 0.29818 0.0
N17 N 0.42653 0.34869 0.27461 0.0
N18 N 0.47721 0.29499 0.29601 0.0
C19 C 0.45533 0.30719 0.33374 0.0
C20 C 0.39187 0.37569 0.33629 0.0
C21 C 0.33514 0.49361 0.28514 0.0
H22 H 0.39053 0.54703 0.2594 0.0
H23 H 0.23175 0.44002 0.27817 0.0
H24 H 0.3502 0.56392 0.30807 0.0
O25 O 0.62438 0.45745 0.20795 0.0
O26 O 0.73021 0.39167 0.24446 0.0
H27 H 0.59716 0.29563 0.36781 0.0
H28 H 0.45756 0.26899 0.39496 0.0
C29 C 0.49193 0.25292 0.367 0.0
H30 H 0.4465 0.14855 0.36363 0.0
H31 H 0.83633 0.34869 0.31354 0.0
O32 O 0.38735 0.45173 0.19147 0.0
C33 C 0.72844 0.47106 0.22055 0.0
Co34 Co 0.68493 0.1048 0.88627 0.0
Co35 Co 0.79124 0.34927 0.93724 0.0
C36 C 0.95634 0.32614 0.87548 0.0
O37 O 0.86831 0.21337 0.866 0.0
O38 O 0.93679 0.39043 0.90108 0.0
C39 C 0.58648 0.84108 0.85769 0.0
O40 O 0.68141 0.83876 0.87546 0.0
C41 C 0.95751 0.53085 0.99554 0.0
C42 C 0.83098 0.59436 1.02136 0.0
C43 C 0.94864 0.6021 1.02576 0.0
N44 N 0.84848 0.48088 0.9751 0.0
N45 N 0.77469 0.52187 0.98999 0.0
C46 C 0.05881 0.49573 0.98874 0.0
H47 H 1.01663 0.39966 0.97528 0.0
H48 H 0.10767 0.49738 1.01609 0.0
H49 H 0.13046 0.56461 0.9681 0.0
C50 C 0.62942 0.98122 0.96484 0.0
N51 N 0.68264 0.08414 0.94127 0.0
N52 N 0.73634 0.18853 0.96268 0.0
C53 C 0.72415 0.15445 1.00041 0.0
C54 C 0.65565 0.02249 1.00296 0.0
C55 C 0.53773 0.84784 0.95181 0.0
H56 H 0.4843 0.8498 0.92607 0.0
H57 H 0.59132 0.79804 0.94483 0.0
H58 H 0.46742 0.79258 0.97473 0.0
O59 O 0.57388 0.17323 0.87461 0.0
O60 O 0.63966 0.34484 0.91112 0.0
H61 H 0.73571 0.30785 0.03448 0.0
H62 H 0.76235 0.1949 0.06162 0.0
C63 C 0.77841 0.24532 0.03367 0.0
H64 H 0.88278 0.30426 1.0303 0.0
H65 H 0.68265 0.49396 0.98021 0.0
O66 O 0.57959 0.94192 0.85814 0.0
C67 C 0.56027 0.26368 0.88722 0.0
Co68 Co 0.92656 0.58646 0.55293 0.0
Co69 Co 0.68208 0.44829 0.60391 0.0
C70 C 0.70522 0.63653 0.54215 0.0
O71 O 0.81799 0.66127 0.53267 0.0
O72 O 0.64092 0.55268 0.56774 0.0
C73 C 0.19028 0.75173 0.52436 0.0
O74 O 0.19261 0.84898 0.54214 0.0
C75 C 0.50049 0.43297 0.6622 0.0
C76 C 0.43699 0.24294 0.68802 0.0
C77 C 0.42924 0.35285 0.69243 0.0
N78 N 0.55046 0.37392 0.64176 0.0
N79 N 0.50948 0.25913 0.65665 0.0
C80 C 0.5356 0.56939 0.65541 0.0
H81 H 0.63167 0.62328 0.64195 0.0
H82 H 0.53395 0.61659 0.68276 0.0
H83 H 0.46672 0.57215 0.63477 0.0
C84 C 0.05014 0.65452 0.63151 0.0
N85 N 0.94721 0.60482 0.60794 0.0
N86 N 0.84282 0.55413 0.62934 0.0
C87 C 0.8769 0.57602 0.66707 0.0
C88 C 1.00886 0.63948 0.66962 0.0
C89 C 0.18352 0.69621 0.61848 0.0
H90 H 0.18155 0.64082 0.59273 0.0
H91 H 0.23332 0.79959 0.6115 0.0
H92 H 0.23877 0.68115 0.6414 0.0
O93 O 0.85813 0.40698 0.54128 0.0
O94 O 0.68652 0.30115 0.57779 0.0
H95 H 0.7235 0.43419 0.70114 0.0
H96 H 0.83645 0.57378 0.72829 0.0
C97 C 0.78603 0.53942 0.70033 0.0
H98 H 0.72709 0.58485 0.69697 0.0
H99 H 0.5374 0.19502 0.64687 0.0
O100 O 0.08944 0.64401 0.5248 0.0
C101 C 0.76768 0.30292 0.55388 0.0
Co102 Co 0.35263 0.43865 0.84418 0.0
Co103 Co 0.24628 0.57682 0.79322 0.0
C104 C 0.0812 0.38857 0.85497 0.0
O105 O 0.16924 0.36384 0.86445 0.0
O106 O 0.10073 0.47242 0.82938 0.0
C107 C 0.45108 0.27337 0.87275 0.0
O108 O 0.35619 0.17613 0.85496 0.0
C109 C 0.08008 0.59214 0.7349 0.0
C110 C 0.20665 0.78225 0.70912 0.0
C111 C 0.08911 0.67224 0.70466 0.0
N112 N 0.18904 0.6512 0.75537 0.0
N113 N 0.26284 0.76603 0.74051 0.0
C114 C 0.97875 0.45571 0.74168 0.0
H115 H 0.02091 0.40182 0.75515 0.0
H116 H 0.92996 0.40853 0.71432 0.0
H117 H 0.90707 0.45294 0.7623 0.0
C118 C 0.40822 0.3707 0.7656 0.0
N119 N 0.35495 0.42034 0.78917 0.0
N120 N 0.30122 0.47101 0.76778 0.0
C121 C 0.31345 0.44919 0.73004 0.0
C122 C 0.38207 0.38585 0.72749 0.0
C123 C 0.49988 0.32897 0.77863 0.0
H124 H 0.55327 0.3843 0.80438 0.0
H125 H 0.44627 0.22557 0.78558 0.0
H126 H 0.57023 0.34407 0.75571 0.0
O127 O 0.46369 0.61814 0.85584 0.0
O128 O 0.39786 0.72395 0.81934 0.0
H129 H 0.30174 0.59097 0.69599 0.0
H130 H 0.27529 0.4515 0.66883 0.0
C131 C 0.25914 0.48576 0.69679 0.0
H132 H 0.15475 0.4402 0.70014 0.0
H133 H 0.35482 0.83018 0.75033 0.0
O134 O 0.45796 0.38109 0.87231 0.0
C135 C 0.47728 0.72219 0.84324 0.0
Co136 Co 0.59272 0.9203 0.51085 0.0
Co137 Co 0.45454 0.67579 0.45989 0.0
C138 C 0.64279 0.69895 0.52164 0.0
O139 O 0.66752 0.81172 0.53112 0.0
O140 O 0.55894 0.63464 0.49605 0.0
C141 C 0.75799 0.18404 0.53942 0.0
O142 O 0.85523 0.1864 0.52163 0.0
C143 C 0.43921 0.49426 0.40157 0.0
C144 C 0.24909 0.43071 0.37578 0.0
C145 C 0.3591 0.42317 0.37133 0.0
N146 N 0.38015 0.54416 0.42204 0.0
N147 N 0.26531 0.50312 0.40718 0.0
C148 C 0.57564 0.52937 0.40834 0.0
H149 H 0.62954 0.62541 0.42182 0.0
H150 H 0.62282 0.52775 0.38098 0.0
H151 H 0.57842 0.46046 0.42897 0.0
C152 C 0.66066 0.04385 0.43226 0.0
N153 N 0.61103 0.94093 0.45584 0.0
N154 N 0.56035 0.83653 0.43444 0.0
C155 C 0.58217 0.87058 0.39671 0.0
C156 C 0.6455 1.00253 0.39415 0.0
C157 C 0.70238 0.17723 0.4453 0.0
H158 H 0.64705 0.17529 0.47105 0.0
H159 H 0.80578 0.22704 0.45225 0.0
H160 H 0.68727 0.23246 0.42238 0.0
O161 O 0.41323 0.85188 0.52251 0.0
O162 O 0.30741 0.68023 0.48601 0.0
H163 H 0.44037 0.71708 0.36266 0.0
H164 H 0.57985 0.83011 0.33549 0.0
C165 C 0.54559 0.7797 0.36346 0.0
H166 H 0.59115 0.72087 0.36681 0.0
H167 H 0.20116 0.53094 0.417 0.0
O168 O 0.65027 0.08319 0.53898 0.0
C169 C 0.30917 0.76142 0.50991 0.0
Co170 Co 0.11106 0.67871 0.17752 0.0
Co171 Co 0.35557 0.78505 0.12656 0.0
C172 C 0.3324 0.95013 0.18831 0.0
O173 O 0.21963 0.86209 0.19779 0.0
O174 O 0.39672 0.93059 0.16271 0.0
C175 C 0.84732 0.58025 0.20609 0.0
O176 O 0.84497 0.67514 0.1883 0.0
C177 C 0.53709 0.95126 0.06824 0.0
C178 C 0.60066 0.82471 0.04245 0.0
C179 C 0.60818 0.94224 0.03799 0.0
N180 N 0.48721 0.8423 0.08871 0.0
N181 N 0.52825 0.76851 0.07384 0.0
C182 C 0.50198 0.05257 0.07501 0.0
H183 H 0.40592 1.01041 0.08849 0.0
H184 H 0.50359 0.10137 0.04765 0.0
H185 H 0.57088 0.12425 0.09564 0.0
C186 C 0.98751 0.62311 0.09893 0.0
N187 N 0.09042 0.67639 0.12251 0.0
N188 N 0.19483 0.73011 0.10111 0.0
C189 C 0.16078 0.71788 0.06338 0.0
C190 C 0.02882 0.64927 0.06082 0.0
C191 C 0.85412 0.53145 0.11196 0.0
H192 H 0.85605 0.47807 0.13772 0.0
H193 H 0.80433 0.58506 0.11892 0.0
H194 H 0.79887 0.46112 0.08904 0.0
O195 O 0.17948 0.56765 0.18917 0.0
O196 O 0.35113 0.63347 0.15267 0.0
H197 H 0.31428 0.72959 1.02933 0.0
H198 H 0.20125 0.75603 1.00216 0.0
C199 C 0.25166 0.77219 1.03012 0.0
H200 H 0.31049 0.87657 0.03348 0.0
H201 H 0.50043 0.67654 0.08366 0.0
O202 O 0.94817 0.57338 0.20565 0.0
C203 C 0.26994 0.55405 0.17657 0.0
loop_
_geom_bond_atom_site_label_1
_geom_bond_atom_site_label_2
_geom_bond_distance
_geom_bond_site_symmetry_2
_ccdc_geom_bond_type
Co0 O3 1.970 . S
Co0 N17 1.989 . S
Co0 O25 1.967 . S
Co0 O32 1.920 . S
Co1 O4 1.966 . S
Co1 N10 2.022 . S
Co1 N18 1.993 . S
Co1 O26 1.941 . S
C2 O3 1.258 . S
C2 O4 1.263 . S
O3 Co0 1.970 . S
O3 C2 1.258 . S
O4 Co1 1.966 . S
O4 C2 1.263 . S
C5 O6 1.235 . S
C5 O32 1.289 . S
O6 C5 1.235 . S
C7 C9 1.400 . S
C7 N10 1.351 . S
C7 C12 1.501 1_545 S
C8 C9 1.387 . S
C8 N11 1.341 . S
C9 C7 1.400 . S
C9 C8 1.387 . S
N10 Co1 2.022 . S
N10 C7 1.351 . S
N10 N11 1.365 . S
N11 C8 1.341 . S
N11 N10 1.365 . S
N11 H31 0.862 . S
C12 C7 1.501 1_565 S
C12 H13 0.961 . S
C12 H14 0.961 . S
C12 H15 0.960 . S
H13 C12 0.961 . S
H14 C12 0.961 . S
H15 C12 0.960 . S
C16 N17 1.342 . S
C16 C20 1.401 . S
C16 C21 1.499 . S
N17 Co0 1.989 . S
N17 C16 1.342 . S
N17 N18 1.388 . S
N18 Co1 1.993 . S
N18 N17 1.388 . S
N18 C19 1.346 . S
C19 N18 1.346 . S
C19 C20 1.396 . S
C19 C29 1.510 . S
C20 C16 1.401 . S
C20 C19 1.396 . S
C21 C16 1.499 . S
C21 H22 0.959 . S
C21 H23 0.960 . S
C21 H24 0.961 . S
H22 C21 0.959 . S
H23 C21 0.960 . S
H24 C21 0.961 . S
O25 Co0 1.967 . S
O25 C33 1.258 . S
O26 Co1 1.941 . S
O26 C33 1.266 . S
H27 C29 0.959 . S
H28 C29 0.961 . S
C29 C19 1.510 . S
C29 H27 0.959 . S
C29 H28 0.961 . S
C29 H30 0.960 . S
H30 C29 0.960 . S
H31 N11 0.862 . S
O32 Co0 1.920 . S
O32 C5 1.289 . S
C33 O25 1.258 . S
C33 O26 1.266 . S
Co34 O37 1.970 . S
Co34 N51 1.989 . S
Co34 O59 1.967 . S
Co34 O66 1.920 1_545 S
Co35 O38 1.966 . S
Co35 N44 2.022 . S
Co35 N52 1.993 . S
Co35 O60 1.941 . S
C36 O37 1.258 . S
C36 O38 1.263 . S
O37 Co34 1.970 . S
O37 C36 1.258 . S
O38 Co35 1.966 . S
O38 C36 1.263 . S
C39 O40 1.235 . S
C39 O66 1.289 . S
O40 C39 1.235 . S
C41 C43 1.400 . S
C41 N44 1.351 . S
C41 C46 1.501 1_655 S
C42 C43 1.387 1_554 S
C42 N45 1.341 1_554 S
C43 C41 1.400 . S
C43 C42 1.387 1_556 S
N44 Co35 2.022 . S
N44 C41 1.351 . S
N44 N45 1.365 . S
N45 C42 1.341 1_556 S
N45 N44 1.365 . S
N45 H65 0.862 . S
C46 C41 1.501 1_455 S
C46 H47 0.961 . S
C46 H48 0.961 . S
C46 H49 0.960 . S
H47 C46 0.961 . S
H48 C46 0.961 . S
H49 C46 0.960 . S
C50 N51 1.342 1_565 S
C50 C54 1.401 1_565 S
C50 C55 1.499 . S
N51 Co34 1.989 . S
N51 C50 1.342 1_545 S
N51 N52 1.388 . S
N52 Co35 1.993 . S
N52 N51 1.388 . S
N52 C53 1.346 . S
C53 N52 1.346 . S
C53 C54 1.396 . S
C53 C63 1.529 . S
C54 C50 1.401 1_545 S
C54 C53 1.396 . S
C55 C50 1.499 . S
C55 H56 0.959 . S
C55 H57 0.960 . S
C55 H58 0.961 . S
H56 C55 0.959 . S
H57 C55 0.960 . S
H58 C55 0.961 . S
O59 Co34 1.967 . S
O59 C67 1.258 . S
O60 Co35 1.941 . S
O60 C67 1.266 . S
H61 C63 0.947 1_554 S
H62 C63 0.947 1_554 S
C63 C53 1.529 . S
C63 H61 0.947 1_556 S
C63 H62 0.947 1_556 S
C63 H64 0.968 . S
H64 C63 0.968 . S
H65 N45 0.862 . S
O66 Co34 1.920 1_565 S
O66 C39 1.289 . S
C67 O59 1.258 . S
C67 O60 1.266 . S
Co68 O71 1.970 . S
Co68 N85 1.989 . S
Co68 O93 1.967 . S
Co68 O100 1.920 1_655 S
Co69 O72 1.966 . S
Co69 N78 2.022 . S
Co69 N86 1.993 . S
Co69 O94 1.941 . S
C70 O71 1.258 . S
C70 O72 1.263 . S
O71 Co68 1.970 . S
O71 C70 1.258 . S
O72 Co69 1.966 . S
O72 C70 1.263 . S
C73 O74 1.235 . S
C73 O100 1.289 . S
O74 C73 1.235 . S
C75 C77 1.400 . S
C75 N78 1.351 . S
C75 C80 1.501 . S
C76 C77 1.387 . S
C76 N79 1.341 . S
C77 C75 1.400 . S
C77 C76 1.387 . S
N78 Co69 2.022 . S
N78 C75 1.351 . S
N78 N79 1.365 . S
N79 C76 1.341 . S
N79 N78 1.365 . S
N79 H99 0.862 . S
C80 C75 1.501 . S
C80 H81 0.961 . S
C80 H82 0.961 . S
C80 H83 0.960 . S
H81 C80 0.961 . S
H82 C80 0.961 . S
H83 C80 0.960 . S
C84 N85 1.342 1_455 S
C84 C88 1.401 1_455 S
C84 C89 1.499 . S
N85 Co68 1.989 . S
N85 C84 1.342 1_655 S
N85 N86 1.388 . S
N86 Co69 1.993 . S
N86 N85 1.388 . S
N86 C87 1.346 . S
C87 N86 1.346 . S
C87 C88 1.396 . S
C87 C97 1.510 . S
C88 C84 1.401 1_655 S
C88 C87 1.396 . S
C89 C84 1.499 . S
C89 H90 0.959 . S
C89 H91 0.960 . S
C89 H92 0.961 . S
H90 C89 0.959 . S
H91 C89 0.960 . S
H92 C89 0.961 . S
O93 Co68 1.967 . S
O93 C101 1.258 . S
O94 Co69 1.941 . S
O94 C101 1.266 . S
H95 C97 0.959 . S
H96 C97 0.961 . S
C97 C87 1.510 . S
C97 H95 0.959 . S
C97 H96 0.961 . S
C97 H98 0.960 . S
H98 C97 0.960 . S
H99 N79 0.862 . S
O100 Co68 1.920 1_455 S
O100 C73 1.289 . S
C101 O93 1.258 . S
C101 O94 1.266 . S
Co102 O105 1.970 . S
Co102 N119 1.989 . S
Co102 O127 1.967 . S
Co102 O134 1.920 . S
Co103 O106 1.966 . S
Co103 N112 2.022 . S
Co103 N120 1.993 . S
Co103 O128 1.941 . S
C104 O105 1.258 . S
C104 O106 1.263 . S
O105 Co102 1.970 . S
O105 C104 1.258 . S
O106 Co103 1.966 . S
O106 C104 1.263 . S
C107 O108 1.235 . S
C107 O134 1.289 . S
O108 C107 1.235 . S
C109 C111 1.400 . S
C109 N112 1.351 . S
C109 C114 1.501 1_455 S
C110 C111 1.387 . S
C110 N113 1.341 . S
C111 C109 1.400 . S
C111 C110 1.387 . S
N112 Co103 2.022 . S
N112 C109 1.351 . S
N112 N113 1.365 . S
N113 C110 1.341 . S
N113 N112 1.365 . S
N113 H133 0.862 . S
C114 C109 1.501 1_655 S
C114 H115 0.961 . S
C114 H116 0.961 . S
C114 H117 0.960 . S
H115 C114 0.961 . S
H116 C114 0.961 . S
H117 C114 0.960 . S
C118 N119 1.342 . S
C118 C122 1.401 . S
C118 C123 1.499 . S
N119 Co102 1.989 . S
N119 C118 1.342 . S
N119 N120 1.388 . S
N120 Co103 1.993 . S
N120 N119 1.388 . S
N120 C121 1.346 . S
C121 N120 1.346 . S
C121 C122 1.396 . S
C121 C131 1.510 . S
C122 C118 1.401 . S
C122 C121 1.396 . S
C123 C118 1.499 . S
C123 H124 0.959 . S
C123 H125 0.960 . S
C123 H126 0.961 . S
H124 C123 0.959 . S
H125 C123 0.960 . S
H126 C123 0.961 . S
O127 Co102 1.967 . S
O127 C135 1.258 . S
O128 Co103 1.941 . S
O128 C135 1.266 . S
H129 C131 0.959 . S
H130 C131 0.961 . S
C131 C121 1.510 . S
C131 H129 0.959 . S
C131 H130 0.961 . S
C131 H132 0.960 . S
H132 C131 0.960 . S
H133 N113 0.862 . S
O134 Co102 1.920 . S
O134 C107 1.289 . S
C135 O127 1.258 . S
C135 O128 1.266 . S
Co136 O139 1.970 . S
Co136 N153 1.989 . S
Co136 O161 1.967 . S
Co136 O168 1.920 1_565 S
Co137 O140 1.966 . S
Co137 N146 2.022 . S
Co137 N154 1.993 . S
Co137 O162 1.941 . S
C138 O139 1.258 . S
C138 O140 1.263 . S
O139 Co136 1.970 . S
O139 C138 1.258 . S
O140 Co137 1.966 . S
O140 C138 1.263 . S
C141 O142 1.235 . S
C141 O168 1.289 . S
O142 C141 1.235 . S
C143 C145 1.400 . S
C143 N146 1.351 . S
C143 C148 1.501 . S
C144 C145 1.387 . S
C144 N147 1.341 . S
C145 C143 1.400 . S
C145 C144 1.387 . S
N146 Co137 2.022 . S
N146 C143 1.351 . S
N146 N147 1.365 . S
N147 C144 1.341 . S
N147 N146 1.365 . S
N147 H167 0.862 . S
C148 C143 1.501 . S
C148 H149 0.961 . S
C148 H150 0.961 . S
C148 H151 0.960 . S
H149 C148 0.961 . S
H150 C148 0.961 . S
H151 C148 0.960 . S
C152 N153 1.342 1_545 S
C152 C156 1.401 1_545 S
C152 C157 1.499 . S
N153 Co136 1.989 . S
N153 C152 1.342 1_565 S
N153 N154 1.388 . S
N154 Co137 1.993 . S
N154 N153 1.388 . S
N154 C155 1.346 . S
C155 N154 1.346 . S
C155 C156 1.396 . S
C155 C165 1.510 . S
C156 C152 1.401 1_565 S
C156 C155 1.396 . S
C157 C152 1.499 . S
C157 H158 0.959 . S
C157 H159 0.960 . S
C157 H160 0.961 . S
H158 C157 0.959 . S
H159 C157 0.960 . S
H160 C157 0.961 . S
O161 Co136 1.967 . S
O161 C169 1.258 . S
O162 Co137 1.941 . S
O162 C169 1.266 . S
H163 C165 0.959 . S
H164 C165 0.961 . S
C165 C155 1.510 . S
C165 H163 0.959 . S
C165 H164 0.961 . S
C165 H166 0.960 . S
H166 C165 0.960 . S
H167 N147 0.862 . S
O168 Co136 1.920 1_545 S
O168 C141 1.289 . S
C169 O161 1.258 . S
C169 O162 1.266 . S
Co170 O173 1.970 . S
Co170 N187 1.989 . S
Co170 O195 1.967 . S
Co170 O202 1.920 1_455 S
Co171 O174 1.966 . S
Co171 N180 2.022 . S
Co171 N188 1.993 . S
Co171 O196 1.941 . S
C172 O173 1.258 . S
C172 O174 1.263 . S
O173 Co170 1.970 . S
O173 C172 1.258 . S
O174 Co171 1.966 . S
O174 C172 1.263 . S
C175 O176 1.235 . S
C175 O202 1.289 . S
O176 C175 1.235 . S
C177 C179 1.400 . S
C177 N180 1.351 . S
C177 C182 1.501 1_565 S
C178 C179 1.387 1_556 S
C178 N181 1.341 1_556 S
C179 C177 1.400 . S
C179 C178 1.387 1_554 S
N180 Co171 2.022 . S
N180 C177 1.351 . S
N180 N181 1.365 . S
N181 C178 1.341 1_554 S
N181 N180 1.365 . S
N181 H201 0.862 . S
C182 C177 1.501 1_545 S
C182 H183 0.961 . S
C182 H184 0.961 . S
C182 H185 0.960 . S
H183 C182 0.961 . S
H184 C182 0.961 . S
H185 C182 0.960 . S
C186 N187 1.342 1_655 S
C186 C190 1.401 1_655 S
C186 C191 1.499 . S
N187 Co170 1.989 . S
N187 C186 1.342 1_455 S
N187 N188 1.388 . S
N188 Co171 1.993 . S
N188 N187 1.388 . S
N188 C189 1.346 . S
C189 N188 1.346 . S
C189 C190 1.396 . S
C189 C199 1.529 . S
C190 C186 1.401 1_455 S
C190 C189 1.396 . S
C191 C186 1.499 . S
C191 H192 0.959 . S
C191 H193 0.960 . S
C191 H194 0.961 . S
H192 C191 0.959 . S
H193 C191 0.960 . S
H194 C191 0.961 . S
O195 Co170 1.967 . S
O195 C203 1.258 . S
O196 Co171 1.941 . S
O196 C203 1.266 . S
H197 C199 0.947 1_556 S
H198 C199 0.947 1_556 S
C199 C189 1.529 . S
C199 H197 0.947 1_554 S
C199 H198 0.947 1_554 S
C199 H200 0.968 . S
H200 C199 0.968 . S
H201 N181 0.862 . S
O202 Co170 1.920 1_655 S
O202 C175 1.289 . S
C203 O195 1.258 . S
C203 O196 1.266 . S
C2 C172 2.510 1_545 S
C104 C36 2.509 1_455 S
C138 C70 2.509 . S
C203 C5 1.870 . S
C135 C39 1.871 . S
C73 C169 1.870 . S
C67 C107 1.870 . S
C101 C141 1.870 . S
C175 C33 1.870 . S
C156 C9 1.487 1_565 S
C43 C190 1.486 1_656 S
C122 C77 1.486 . S
C111 C88 1.487 1_455 S
C20 C145 1.486 . S
C54 C179 1.486 1_546 S
