# Generated by pormake.
# Topology umy, (4)-cn, num edge types: 1
# Building blocks:
#     Node 0, Type 0, BuildingBlock: GALJAG_clean_sbu_0, # of connection points: 4
#     Node 1, Type 0, BuildingBlock: GALJAG_clean_sbu_0, # of connection points: 4
#     Node 2, Type 0, BuildingBlock: GALJAG_clean_sbu_0, # of connection points: 4
#     Node 3, Type 0, BuildingBlock: GALJAG_clean_sbu_0, # of connection points: 4
#     Node 4, Type 0, BuildingBlock: GALJAG_clean_sbu_0, # of connection points: 4
#     Node 5, Type 0, BuildingBlock: GALJAG_clean_sbu_0, # of connection points: 4
#     Node 6, Type 0, BuildingBlock: GALJAG_clean_sbu_0, # of connection points: 4
#     Node 7, Type 0, BuildingBlock: GALJAG_clean_sbu_0, # of connection points: 4
#     Node 8, Type 0, BuildingBlock: GALJAG_clean_sbu_0, # of connection points: 4
#     Node 9, Type 0, BuildingBlock: GALJAG_clean_sbu_0, # of connection points: 4
#     Node 10, Type 0, BuildingBlock: GALJAG_clean_sbu_0, # of connection points: 4
#     Node 11, Type 0, BuildingBlock: GALJAG_clean_sbu_0, # of connection points: 4
#     Edge 12, Type (0, 0), None
#     Edge 13, Type (0, 0), None
#     Edge 14, Type (0, 0), None
#     Edge 15, Type (0, 0), None
#     Edge 16, Type (0, 0), None
#     Edge 17, Type (0, 0), None
#     Edge 18, Type (0, 0), None
#     Edge 19, Type (0, 0), None
#     Edge 20, Type (0, 0), None
#     Edge 21, Type (0, 0), None
#     Edge 22, Type (0, 0), None
#     Edge 23, Type (0, 0), None
#     Edge 24, Type (0, 0), None
#     Edge 25, Type (0, 0), None
#     Edge 26, Type (0, 0), None
#     Edge 27, Type (0, 0), None
#     Edge 28, Type (0, 0), None
#     Edge 29, Type (0, 0), None
#     Edge 30, Type (0, 0), None
#     Edge 31, Type (0, 0), None
#     Edge 32, Type (0, 0), None
#     Edge 33, Type (0, 0), None
#     Edge 34, Type (0, 0), None
#     Edge 35, Type (0, 0), None
# Relax obj value: 0.077
# Max RMSD: 0.076
# Mean RMSD: 0.076
data_MOF--net-umy--node1-GALJAG_clean_sbu_0--edge1-none
_symmetry_space_group_name_H-M    P1
_symmetry_Int_Tables_number       1
_symmetry_cell_setting            triclinic
loop_
_symmetry_equiv_pos_as_xyz
'x, y, z'
_cell_length_a     16.997668
_cell_length_b     16.998934
_cell_length_c     24.068388
_cell_angle_alpha  90.000443
_cell_angle_beta   89.999778
_cell_angle_gamma 120.00707
loop_
_atom_site_label
_atom_site_type_symbol
_atom_site_fract_x
_atom_site_fract_y
_atom_site_fract_z
_atom_type_partial_charge
In0 In -0.00083 0.306 0.19569 0.0
O1 O 0.01804 0.23822 0.11752 0.0
O2 O 0.13224 0.35673 0.15062 0.0
C3 C 0.84018 0.18233 0.24167 0.0
C4 C -0.02863 0.43729 0.15574 0.0
C5 C 0.0985 0.31693 0.28517 0.0
O6 O 0.88256 0.15858 0.20878 0.0
O7 O 0.87316 0.26684 0.24646 0.0
O8 O 0.10351 0.38735 0.26404 0.0
O9 O 0.04691 0.24373 0.26035 0.0
C10 C 0.10185 0.29624 0.11353 0.0
O11 O -0.00209 0.43829 0.20485 0.0
O12 O -0.04367 0.36896 0.12705 0.0
In13 In 0.65705 0.01723 0.36237 0.0
O14 O 0.52348 0.01595 0.37153 0.0
O15 O 0.55125 -0.02559 0.29373 0.0
C16 C 0.74546 0.11657 0.45185 0.0
C17 C 0.76951 0.11993 0.28022 0.0
C18 C 0.62176 0.85827 0.40834 0.0
O19 O 0.68003 0.12154 0.43073 0.0
O20 O 0.76708 0.065 0.42702 0.0
O21 O 0.68791 0.90067 0.37546 0.0
O22 O 0.57018 0.8912 0.41312 0.0
C23 C 0.49795 -0.01057 0.32242 0.0
O24 O 0.74369 0.03611 0.28418 0.0
O25 O 0.73941 0.15031 0.31731 0.0
In26 In 0.60374 0.67516 0.52903 0.0
O27 O 0.47143 0.54158 0.53818 0.0
O28 O 0.54078 0.56936 0.46039 0.0
C29 C 0.59281 0.76355 0.61851 0.0
C30 C 0.61349 0.7876 0.44689 0.0
C31 C 0.7274 0.63985 0.575 0.0
O32 O 0.52239 0.69812 0.59739 0.0
O33 O 0.66601 0.78519 0.59368 0.0
O34 O 0.75117 0.706 0.54212 0.0
O35 O 0.64288 0.5883 0.57979 0.0
C36 C 0.47244 0.51606 0.48907 0.0
O37 O 0.67152 0.76182 0.45085 0.0
O38 O 0.55299 0.75747 0.48396 0.0
In39 In 0.89249 0.62179 0.69569 0.0
O40 O 0.89375 0.4895 0.70485 0.0
O41 O 0.93532 0.55882 0.62705 0.0
C42 C 0.79316 0.61086 0.78517 0.0
C43 C 0.7898 0.63157 0.61355 0.0
C44 C 0.05147 0.74546 0.74167 0.0
O45 O 0.78815 0.54045 0.76404 0.0
O46 O 0.84475 0.68406 0.76035 0.0
O47 O 0.0091 0.76922 0.70878 0.0
O48 O 0.0185 0.66095 0.74645 0.0
C49 C 0.92028 0.4905 0.65574 0.0
O50 O 0.87363 0.68957 0.61751 0.0
O51 O 0.75941 0.57107 0.65062 0.0
In52 In 0.23461 0.91056 0.86237 0.0
O53 O 0.14797 0.89168 0.78418 0.0
O54 O 0.15225 0.77748 0.81731 0.0
C55 C 0.2699 0.06952 0.90834 0.0
C56 C 0.39371 0.93835 0.82242 0.0
C57 C 0.1462 0.81122 0.95185 0.0
O58 O 0.20375 0.02712 0.87546 0.0
O59 O 0.32147 0.03659 0.91312 0.0
O60 O 0.21163 0.80624 0.93073 0.0
O61 O 0.12458 0.86279 0.92703 0.0
C62 C 0.12214 0.80786 0.78022 0.0
O63 O 0.36818 0.91184 0.87153 0.0
O64 O 0.34041 0.95338 0.79373 0.0
In65 In 0.28792 0.25264 1.02904 0.0
O66 O 0.42023 0.38621 1.03818 0.0
O67 O 0.35088 0.35844 0.96039 0.0
C68 C 0.29885 0.16424 0.11851 0.0
C69 C 0.27817 0.14019 0.94689 0.0
C70 C 0.16428 0.28792 0.07503 0.0
O71 O 0.36927 0.22967 0.09739 0.0
O72 O 0.22565 0.1426 0.09368 0.0
O73 O 0.14049 0.22181 1.04212 0.0
O74 O 0.24879 0.33948 0.07981 0.0
C75 C 0.41922 0.41174 0.98908 0.0
O76 O 0.22015 0.16597 0.95086 0.0
O77 O 0.33868 0.17033 0.98396 0.0
In78 In 0.60373 0.91053 0.75841 0.0
O79 O 0.67152 0.89165 0.83658 0.0
O80 O 0.55298 0.77747 0.80348 0.0
C81 C 0.72738 0.06951 0.71243 0.0
C82 C 0.47244 0.9383 0.79838 0.0
C83 C 0.59281 0.81122 0.66892 0.0
O84 O 0.75116 0.02715 0.74532 0.0
O85 O 0.64287 0.03653 0.70765 0.0
O86 O 0.52239 0.80621 0.69005 0.0
O87 O 0.66601 0.86281 0.69375 0.0
C88 C 0.61348 0.80784 0.84056 0.0
O89 O 0.47142 0.91177 0.74927 0.0
O90 O 0.5408 0.9534 0.82706 0.0
In91 In 0.65708 0.62178 0.92506 0.0
O92 O 0.74374 0.68955 1.00324 0.0
O93 O 0.7394 0.57104 0.97013 0.0
C94 C 0.6218 0.74542 0.87906 0.0
C95 C 0.49799 0.49048 0.96503 0.0
C96 C 0.74548 0.61086 0.83558 0.0
O97 O 0.68792 0.7692 0.91198 0.0
O98 O 0.57023 0.66091 0.87428 0.0
O99 O 0.68004 0.54044 0.8567 0.0
O100 O 0.76712 0.68405 0.86041 0.0
C101 C 0.76951 0.63152 1.00722 0.0
O102 O 0.5235 0.48947 0.91592 0.0
O103 O 0.55127 0.55884 0.9937 0.0
In104 In -0.00082 0.67512 0.09173 0.0
O105 O 0.01806 0.76177 0.16991 0.0
O106 O 0.13226 0.75747 0.13681 0.0
C107 C 0.84025 0.63984 1.04573 0.0
C108 C -0.02859 0.51605 0.1317 0.0
C109 C 0.09852 0.76354 1.00226 0.0
O110 O 0.88258 0.70593 0.07865 0.0
O111 O 0.87319 0.58827 1.04095 0.0
O112 O 0.10352 0.69812 1.02338 0.0
O113 O 0.04695 0.78516 1.02709 0.0
C114 C 0.10187 0.78757 0.1739 0.0
O115 O -0.00206 0.54158 0.08259 0.0
O116 O -0.04369 0.56931 0.16038 0.0
In117 In 0.28793 0.01726 0.2584 0.0
O118 O 0.42025 0.01603 0.24927 0.0
O119 O 0.35086 -0.02562 0.32705 0.0
C120 C 0.29885 0.11657 0.16892 0.0
C121 C 0.27818 0.11995 0.34056 0.0
C122 C 0.16429 0.85832 0.2124 0.0
O123 O 0.36928 0.12158 0.19005 0.0
O124 O 0.22565 0.06499 0.19375 0.0
O125 O 0.1405 0.90064 0.24532 0.0
O126 O 0.24881 0.89128 0.20762 0.0
C127 C 0.41922 -0.01052 0.29838 0.0
O128 O 0.22014 0.03615 0.33657 0.0
O129 O 0.33868 0.15033 0.30348 0.0
In130 In 0.23458 0.30601 0.42506 0.0
O131 O 0.14791 0.23824 0.50323 0.0
O132 O 0.15226 0.35675 0.47013 0.0
C133 C 0.26986 0.18237 0.37906 0.0
C134 C 0.39367 0.43732 0.46503 0.0
C135 C 0.14618 0.31694 0.33558 0.0
O136 O 0.20374 0.1586 0.41197 0.0
O137 O 0.32143 0.26688 0.37428 0.0
O138 O 0.21161 0.38735 0.3567 0.0
O139 O 0.12454 0.24374 0.36041 0.0
C140 C 0.12214 0.29627 0.50722 0.0
O141 O 0.36815 0.43833 0.41592 0.0
O142 O 0.34039 0.36895 0.4937 0.0
In143 In 0.89247 0.25266 0.59174 0.0
O144 O 0.89372 0.38621 0.58259 0.0
O145 O 0.93533 0.35847 0.66038 0.0
C146 C 0.79313 0.16424 0.50226 0.0
C147 C 0.78979 0.14019 0.67388 0.0
C148 C 0.05141 0.28795 0.54573 0.0
O149 O 0.78814 0.22966 0.52338 0.0
O150 O 0.84471 0.14263 0.52709 0.0
O151 O 0.00907 0.22185 0.57865 0.0
O152 O 0.01847 0.33952 0.54095 0.0
C153 C 0.92024 0.41173 0.6317 0.0
O154 O 0.87361 0.16603 0.66992 0.0
O155 O 0.7594 0.1703 0.63681 0.0
loop_
_geom_bond_atom_site_label_1
_geom_bond_atom_site_label_2
_geom_bond_distance
_geom_bond_site_symmetry_2
_ccdc_geom_bond_type
In0 O1 2.294 . S
In0 O2 2.326 . S
In0 O6 2.266 1_455 S
In0 O7 2.326 1_455 S
In0 O8 2.266 . S
In0 O9 2.326 . S
In0 O11 2.294 . S
In0 O12 2.326 1_455 S
O1 In0 2.294 . S
O1 C10 1.240 . S
O2 In0 2.326 . S
O2 C10 1.252 . S
C3 O6 1.252 . S
C3 O7 1.260 . S
C4 O11 1.240 . S
C4 O12 1.252 1_455 S
C5 O8 1.252 . S
C5 O9 1.260 . S
O6 In0 2.266 1_655 S
O6 C3 1.252 . S
O7 In0 2.326 1_655 S
O7 C3 1.260 . S
O8 In0 2.266 . S
O8 C5 1.252 . S
O9 In0 2.326 . S
O9 C5 1.260 . S
C10 O1 1.240 . S
C10 O2 1.252 . S
O11 In0 2.294 . S
O11 C4 1.240 . S
O12 In0 2.326 1_655 S
O12 C4 1.252 1_655 S
In13 O14 2.294 . S
In13 O15 2.326 1_545 S
In13 O19 2.266 . S
In13 O20 2.326 . S
In13 O21 2.266 1_545 S
In13 O22 2.326 1_545 S
In13 O24 2.294 . S
In13 O25 2.326 . S
O14 In13 2.294 . S
O14 C23 1.240 . S
O15 In13 2.326 1_565 S
O15 C23 1.252 1_565 S
C16 O19 1.252 . S
C16 O20 1.260 . S
C17 O24 1.240 . S
C17 O25 1.252 . S
C18 O21 1.252 . S
C18 O22 1.260 . S
O19 In13 2.266 . S
O19 C16 1.252 . S
O20 In13 2.326 . S
O20 C16 1.260 . S
O21 In13 2.266 1_565 S
O21 C18 1.252 . S
O22 In13 2.326 1_565 S
O22 C18 1.260 . S
C23 O14 1.240 . S
C23 O15 1.252 1_545 S
O24 In13 2.294 . S
O24 C17 1.240 . S
O25 In13 2.326 . S
O25 C17 1.252 . S
In26 O27 2.294 . S
In26 O28 2.326 . S
In26 O32 2.266 . S
In26 O33 2.326 . S
In26 O34 2.266 . S
In26 O35 2.326 . S
In26 O37 2.294 . S
In26 O38 2.326 . S
O27 In26 2.294 . S
O27 C36 1.240 . S
O28 In26 2.326 . S
O28 C36 1.252 . S
C29 O32 1.252 . S
C29 O33 1.260 . S
C30 O37 1.240 . S
C30 O38 1.252 . S
C31 O34 1.252 . S
C31 O35 1.260 . S
O32 In26 2.266 . S
O32 C29 1.252 . S
O33 In26 2.326 . S
O33 C29 1.260 . S
O34 In26 2.266 . S
O34 C31 1.252 . S
O35 In26 2.326 . S
O35 C31 1.260 . S
C36 O27 1.240 . S
C36 O28 1.252 . S
O37 In26 2.294 . S
O37 C30 1.240 . S
O38 In26 2.326 . S
O38 C30 1.252 . S
In39 O40 2.294 . S
In39 O41 2.326 1_655 S
In39 O45 2.266 . S
In39 O46 2.326 . S
In39 O47 2.266 1_655 S
In39 O48 2.326 1_655 S
In39 O50 2.294 . S
In39 O51 2.326 . S
O40 In39 2.294 . S
O40 C49 1.240 . S
O41 In39 2.326 1_455 S
O41 C49 1.252 1_455 S
C42 O45 1.252 . S
C42 O46 1.260 . S
C43 O50 1.240 . S
C43 O51 1.252 . S
C44 O47 1.252 . S
C44 O48 1.260 . S
O45 In39 2.266 . S
O45 C42 1.252 . S
O46 In39 2.326 . S
O46 C42 1.260 . S
O47 In39 2.266 1_455 S
O47 C44 1.252 . S
O48 In39 2.326 1_455 S
O48 C44 1.260 . S
C49 O40 1.240 . S
C49 O41 1.252 1_655 S
O50 In39 2.294 . S
O50 C43 1.240 . S
O51 In39 2.326 . S
O51 C43 1.252 . S
In52 O53 2.294 . S
In52 O54 2.326 . S
In52 O58 2.266 1_565 S
In52 O59 2.326 1_565 S
In52 O60 2.266 . S
In52 O61 2.326 . S
In52 O63 2.294 . S
In52 O64 2.326 1_565 S
O53 In52 2.294 . S
O53 C62 1.240 . S
O54 In52 2.326 . S
O54 C62 1.252 . S
C55 O58 1.252 . S
C55 O59 1.260 . S
C56 O63 1.240 . S
C56 O64 1.252 1_565 S
C57 O60 1.252 . S
C57 O61 1.260 . S
O58 In52 2.266 1_545 S
O58 C55 1.252 . S
O59 In52 2.326 1_545 S
O59 C55 1.260 . S
O60 In52 2.266 . S
O60 C57 1.252 . S
O61 In52 2.326 . S
O61 C57 1.260 . S
C62 O53 1.240 . S
C62 O54 1.252 . S
O63 In52 2.294 . S
O63 C56 1.240 . S
O64 In52 2.326 1_545 S
O64 C56 1.252 1_545 S
In65 O66 2.294 . S
In65 O67 2.326 . S
In65 O71 2.266 1_556 S
In65 O72 2.326 1_556 S
In65 O73 2.266 . S
In65 O74 2.326 1_556 S
In65 O76 2.294 . S
In65 O77 2.326 . S
O66 In65 2.294 . S
O66 C75 1.240 . S
O67 In65 2.326 . S
O67 C75 1.252 . S
C68 O71 1.252 . S
C68 O72 1.260 . S
C69 O76 1.240 . S
C69 O77 1.252 . S
C70 O73 1.252 1_554 S
C70 O74 1.260 . S
O71 In65 2.266 1_554 S
O71 C68 1.252 . S
O72 In65 2.326 1_554 S
O72 C68 1.260 . S
O73 In65 2.266 . S
O73 C70 1.252 1_556 S
O74 In65 2.326 1_554 S
O74 C70 1.260 . S
C75 O66 1.240 . S
C75 O67 1.252 . S
O76 In65 2.294 . S
O76 C69 1.240 . S
O77 In65 2.326 . S
O77 C69 1.252 . S
In78 O79 2.294 . S
In78 O80 2.326 . S
In78 O84 2.266 1_565 S
In78 O85 2.326 1_565 S
In78 O86 2.266 . S
In78 O87 2.326 . S
In78 O89 2.294 . S
In78 O90 2.326 1_565 S
O79 In78 2.294 . S
O79 C88 1.240 . S
O80 In78 2.326 . S
O80 C88 1.252 . S
C81 O84 1.252 . S
C81 O85 1.260 . S
C82 O89 1.240 . S
C82 O90 1.252 1_565 S
C83 O86 1.252 . S
C83 O87 1.260 . S
O84 In78 2.266 1_545 S
O84 C81 1.252 . S
O85 In78 2.326 1_545 S
O85 C81 1.260 . S
O86 In78 2.266 . S
O86 C83 1.252 . S
O87 In78 2.326 . S
O87 C83 1.260 . S
C88 O79 1.240 . S
C88 O80 1.252 . S
O89 In78 2.294 . S
O89 C82 1.240 . S
O90 In78 2.326 1_545 S
O90 C82 1.252 1_545 S
In91 O92 2.294 . S
In91 O93 2.326 . S
In91 O97 2.266 . S
In91 O98 2.326 . S
In91 O99 2.266 . S
In91 O100 2.326 . S
In91 O102 2.294 . S
In91 O103 2.326 . S
O92 In91 2.294 . S
O92 C101 1.240 . S
O93 In91 2.326 . S
O93 C101 1.252 . S
C94 O97 1.252 . S
C94 O98 1.260 . S
C95 O102 1.240 . S
C95 O103 1.252 . S
C96 O99 1.252 . S
C96 O100 1.260 . S
O97 In91 2.266 . S
O97 C94 1.252 . S
O98 In91 2.326 . S
O98 C94 1.260 . S
O99 In91 2.266 . S
O99 C96 1.252 . S
O100 In91 2.326 . S
O100 C96 1.260 . S
C101 O92 1.240 . S
C101 O93 1.252 . S
O102 In91 2.294 . S
O102 C95 1.240 . S
O103 In91 2.326 . S
O103 C95 1.252 . S
In104 O105 2.294 . S
In104 O106 2.326 . S
In104 O110 2.266 1_455 S
In104 O111 2.326 1_454 S
In104 O112 2.266 1_554 S
In104 O113 2.326 1_554 S
In104 O115 2.294 . S
In104 O116 2.326 1_455 S
O105 In104 2.294 . S
O105 C114 1.240 . S
O106 In104 2.326 . S
O106 C114 1.252 . S
C107 O110 1.252 1_556 S
C107 O111 1.260 . S
C108 O115 1.240 . S
C108 O116 1.252 1_455 S
C109 O112 1.252 . S
C109 O113 1.260 . S
O110 In104 2.266 1_655 S
O110 C107 1.252 1_554 S
O111 In104 2.326 1_656 S
O111 C107 1.260 . S
O112 In104 2.266 1_556 S
O112 C109 1.252 . S
O113 In104 2.326 1_556 S
O113 C109 1.260 . S
C114 O105 1.240 . S
C114 O106 1.252 . S
O115 In104 2.294 . S
O115 C108 1.240 . S
O116 In104 2.326 1_655 S
O116 C108 1.252 1_655 S
In117 O118 2.294 . S
In117 O119 2.326 1_545 S
In117 O123 2.266 . S
In117 O124 2.326 . S
In117 O125 2.266 1_545 S
In117 O126 2.326 1_545 S
In117 O128 2.294 . S
In117 O129 2.326 . S
O118 In117 2.294 . S
O118 C127 1.240 . S
O119 In117 2.326 1_565 S
O119 C127 1.252 1_565 S
C120 O123 1.252 . S
C120 O124 1.260 . S
C121 O128 1.240 . S
C121 O129 1.252 . S
C122 O125 1.252 . S
C122 O126 1.260 . S
O123 In117 2.266 . S
O123 C120 1.252 . S
O124 In117 2.326 . S
O124 C120 1.260 . S
O125 In117 2.266 1_565 S
O125 C122 1.252 . S
O126 In117 2.326 1_565 S
O126 C122 1.260 . S
C127 O118 1.240 . S
C127 O119 1.252 1_545 S
O128 In117 2.294 . S
O128 C121 1.240 . S
O129 In117 2.326 . S
O129 C121 1.252 . S
In130 O131 2.294 . S
In130 O132 2.326 . S
In130 O136 2.266 . S
In130 O137 2.326 . S
In130 O138 2.266 . S
In130 O139 2.326 . S
In130 O141 2.294 . S
In130 O142 2.326 . S
O131 In130 2.294 . S
O131 C140 1.240 . S
O132 In130 2.326 . S
O132 C140 1.252 . S
C133 O136 1.252 . S
C133 O137 1.260 . S
C134 O141 1.240 . S
C134 O142 1.252 . S
C135 O138 1.252 . S
C135 O139 1.260 . S
O136 In130 2.266 . S
O136 C133 1.252 . S
O137 In130 2.326 . S
O137 C133 1.260 . S
O138 In130 2.266 . S
O138 C135 1.252 . S
O139 In130 2.326 . S
O139 C135 1.260 . S
C140 O131 1.240 . S
C140 O132 1.252 . S
O141 In130 2.294 . S
O141 C134 1.240 . S
O142 In130 2.326 . S
O142 C134 1.252 . S
In143 O144 2.294 . S
In143 O145 2.326 1_655 S
In143 O149 2.266 . S
In143 O150 2.326 . S
In143 O151 2.266 1_655 S
In143 O152 2.326 1_655 S
In143 O154 2.294 . S
In143 O155 2.326 . S
O144 In143 2.294 . S
O144 C153 1.240 . S
O145 In143 2.326 1_455 S
O145 C153 1.252 1_455 S
C146 O149 1.252 . S
C146 O150 1.260 . S
C147 O154 1.240 . S
C147 O155 1.252 . S
C148 O151 1.252 . S
C148 O152 1.260 . S
O149 In143 2.266 . S
O149 C146 1.252 . S
O150 In143 2.326 . S
O150 C146 1.260 . S
O151 In143 2.266 1_455 S
O151 C148 1.252 . S
O152 In143 2.326 1_455 S
O152 C148 1.260 . S
C153 O144 1.240 . S
C153 O145 1.252 1_655 S
O154 In143 2.294 . S
O154 C147 1.240 . S
O155 In143 2.326 . S
O155 C147 1.252 . S
C108 C4 1.433 . S
C23 C127 1.433 . S
C36 C134 1.433 . S
C49 C153 1.433 . S
C82 C56 1.433 . S
C75 C95 1.433 . S
C10 C70 1.626 . S
C17 C3 1.626 . S
C30 C18 1.626 . S
C31 C43 1.626 . S
C44 C62 1.626 . S
C55 C69 1.626 . S
C94 C88 1.626 . S
C101 C107 1.626 . S
C122 C114 1.626 . S
C121 C133 1.626 . S
C140 C148 1.626 . S
C147 C81 1.626 . S
C135 C5 1.321 . S
C146 C16 1.321 . S
C83 C29 1.321 . S
C42 C96 1.321 . S
C57 C109 1.321 . S
C120 C68 1.321 . S
