# Generated by pormake.
# Topology bcu, (8)-cn, num edge types: 1
# Building blocks:
#     Node 0, Type 0, BuildingBlock: TAGTUT_clean_sbu_3, # of connection points: 8
#     Node 1, Type 0, BuildingBlock: TAGTUT_clean_sbu_3, # of connection points: 8
#     Edge 2, Type (0, 0), BuildingBlock: OJICUG_clean_linker_0, # of connection points: 2
#     Edge 3, Type (0, 0), BuildingBlock: OJICUG_clean_linker_0, # of connection points: 2
#     Edge 4, Type (0, 0), BuildingBlock: OJICUG_clean_linker_0, # of connection points: 2
#     Edge 5, Type (0, 0), BuildingBlock: OJICUG_clean_linker_0, # of connection points: 2
#     Edge 6, Type (0, 0), BuildingBlock: OJICUG_clean_linker_0, # of connection points: 2
#     Edge 7, Type (0, 0), BuildingBlock: OJICUG_clean_linker_0, # of connection points: 2
#     Edge 8, Type (0, 0), BuildingBlock: OJICUG_clean_linker_0, # of connection points: 2
#     Edge 9, Type (0, 0), BuildingBlock: OJICUG_clean_linker_0, # of connection points: 2
# Relax obj value: 0.008
# Max RMSD: 0.054
# Mean RMSD: 0.054
data_MOF--net-bcu--node1-TAGTUT_clean_sbu_3--edge1-OJICUG_clean_linker_0
_symmetry_space_group_name_H-M    P1
_symmetry_Int_Tables_number       1
_symmetry_cell_setting            triclinic
loop_
_symmetry_equiv_pos_as_xyz
'x, y, z'
_cell_length_a     15.31204
_cell_length_b     15.373058
_cell_length_c     16.190022
_cell_angle_alpha  89.257971
_cell_angle_beta   90.449042
_cell_angle_gamma 110.07204
loop_
_atom_site_label
_atom_site_type_symbol
_atom_site_fract_x
_atom_site_fract_y
_atom_site_fract_z
_atom_type_partial_charge
C0 C 0.15406 0.10019 0.08802 0.0
C1 C 0.24103 0.82364 0.0267 0.0
C2 C 0.09902 0.80121 0.79677 0.0
Mg3 Mg 0.98558 0.16509 0.02667 0.0
Mg4 Mg 0.77757 0.01196 -0.01279 0.0
O5 O 0.90508 0.05193 0.96753 0.0
Mg6 Mg 0.98067 0.97038 -0.02169 0.0
O7 O 0.0676 0.90046 -0.0106 0.0
Mg8 Mg 0.17864 -0.01598 0.92835 0.0
Mg9 Mg 0.03351 0.77351 0.97262 0.0
C10 C 0.79146 0.85537 0.86937 0.0
O11 O 0.89159 0.86862 0.07606 0.0
O12 O 0.89923 0.24272 0.96216 0.0
O13 O 0.91151 0.73197 0.05056 0.0
O14 O 0.88421 0.13427 0.13659 0.0
O15 O 0.76111 0.13288 0.93423 0.0
O16 O 0.75232 0.01614 0.11644 0.0
O17 O 0.0785 0.05796 0.8787 0.0
O18 O 0.07886 0.1974 0.91399 0.0
C19 C 0.1035 0.14527 0.8657 0.0
C20 C 0.81743 0.21658 0.93042 0.0
O21 O 0.87979 0.87725 0.88211 0.0
O22 O 0.26307 0.90442 -0.00654 0.0
O23 O 0.74005 0.89037 0.91008 0.0
O24 O 0.15043 0.88209 0.81979 0.0
O25 O 0.15848 0.7642 0.02463 0.0
O26 O 0.0362 0.74801 0.84367 0.0
O27 O 0.06618 0.07107 0.0761 0.0
O28 O 0.20805 0.07808 0.03956 0.0
C29 C 0.80429 0.08117 0.16145 0.0
C30 C 0.87344 0.78134 0.09023 0.0
C31 C 0.6328 0.62199 0.59225 0.0
C32 C 0.68962 0.3321 0.63981 0.0
C33 C 0.63177 0.26176 0.38249 0.0
Mg34 Mg 0.48566 0.67587 0.47628 0.0
Mg35 Mg 0.28738 0.51785 0.42326 0.0
O36 O 0.41578 0.55186 0.42967 0.0
Mg37 Mg 0.48017 0.47217 0.47742 0.0
O38 O 0.55445 0.40204 0.52509 0.0
Mg39 Mg 0.68138 0.46839 0.48102 0.0
Mg40 Mg 0.51461 0.27358 0.52747 0.0
C41 C 0.31057 0.33363 0.36378 0.0
O42 O 0.36331 0.39112 0.56931 0.0
O43 O 0.42373 0.73539 0.36594 0.0
O44 O 0.3732 0.24788 0.56223 0.0
O45 O 0.36247 0.6748 0.55782 0.0
O46 O 0.29798 0.61506 0.32688 0.0
O47 O 0.23121 0.55868 0.5304 0.0
O48 O 0.60569 0.53664 0.38703 0.0
O49 O 0.60233 0.67993 0.39404 0.0
C50 C 0.63805 0.6226 0.36671 0.0
C51 C 0.35726 0.69626 0.31508 0.0
O52 O 0.39768 0.36 0.3833 0.0
O53 O 0.73296 0.39941 0.59087 0.0
O54 O 0.25684 0.37738 0.38566 0.0
O55 O 0.67814 0.34659 0.3977 0.0
O56 O 0.60739 0.276 0.6255 0.0
O57 O 0.55664 0.21829 0.42043 0.0
O58 O 0.54704 0.59356 0.57031 0.0
O59 O 0.68855 0.58399 0.56517 0.0
C60 C 0.27613 0.63089 0.57079 0.0
C61 C 0.33256 0.30347 0.58623 0.0
C62 C 0.29104 0.18599 0.17615 0.0
C63 C 0.19425 0.15435 0.16223 0.0
H64 H 0.40427 0.26585 0.25264 0.0
C65 C 0.13626 0.1716 0.2216 0.0
H66 H 0.33764 0.17228 0.13227 0.0
C67 C 0.17441 0.22355 0.29112 0.0
C68 C 0.27146 0.26007 0.30258 0.0
H69 H 0.06141 0.14641 0.21383 0.0
H70 H 0.12775 0.23849 0.3342 0.0
C71 C 0.32933 0.23833 0.2458 0.0
C72 C 0.66564 0.07714 0.24555 0.0
C73 C 0.76223 0.11365 0.2314 0.0
H74 H 0.5478 0.09625 0.30337 0.0
C75 C 0.81506 0.1951 0.27214 0.0
H76 H 0.62264 0.01465 0.21503 0.0
C77 C 0.77189 0.24305 0.31992 0.0
C78 C 0.67492 0.20987 0.33 0.0
H79 H 0.88957 0.2251 0.26341 0.0
H80 H 0.8149 0.3068 0.34861 0.0
C81 C 0.62243 0.12463 0.29492 0.0
C82 C 0.8037 0.79441 0.225 0.0
C83 C 0.81477 0.7381 0.16157 0.0
H84 H 0.74406 0.80124 0.34162 0.0
C85 C 0.77564 0.64104 0.17052 0.0
H86 H 0.83509 0.86915 0.22128 0.0
C87 C 0.72245 0.60141 0.24023 0.0
C88 C 0.70879 0.65854 0.302 0.0
H89 H 0.78446 0.5959 0.12293 0.0
H90 H 0.68903 0.52692 0.24402 0.0
C91 C 0.75237 0.75514 0.29462 0.0
C92 C 0.30326 0.7122 0.0915 0.0
C93 C 0.30528 0.8036 0.08486 0.0
H94 H 0.319 0.60719 0.17094 0.0
C95 C 0.34403 0.86585 0.14933 0.0
H96 H 0.274 0.66337 0.0424 0.0
C97 C 0.36854 0.83332 0.22412 0.0
C98 C 0.35395 0.73868 0.234 0.0
H99 H 0.34542 0.93674 0.14545 0.0
H100 H 0.39071 0.87995 0.27581 0.0
C101 C 0.32742 0.67999 0.16553 0.0
C102 C 0.09238 0.66483 0.70991 0.0
C103 C 0.13104 0.7604 0.72587 0.0
H104 H 0.10881 0.54804 0.64914 0.0
C105 C 0.21355 0.81286 0.68544 0.0
H106 H 0.02892 0.62223 0.74003 0.0
C107 C 0.26042 0.76996 0.63615 0.0
C108 C 0.22503 0.6738 0.62426 0.0
H109 H 0.24522 0.88663 0.69555 0.0
H110 H 0.3251 0.81247 0.60777 0.0
C111 C 0.13877 0.62198 0.65899 0.0
C112 C 0.24105 0.32235 0.70764 0.0
C113 C 0.25856 0.26512 0.64796 0.0
H114 H 0.17976 0.32921 0.82451 0.0
C115 C 0.21863 0.16832 0.65752 0.0
H116 H 0.27129 0.39705 0.70231 0.0
C117 C 0.16835 0.12948 0.72814 0.0
C118 C 0.15573 0.18654 0.79036 0.0
H119 H 0.23016 0.12218 0.6122 0.0
H120 H 0.14078 0.05473 0.73444 0.0
C121 C 0.18996 0.28333 0.77828 0.0
C122 C 0.85689 0.32266 0.80929 0.0
C123 C 0.79316 0.2774 0.87149 0.0
H124 H 0.8735 0.37479 0.68435 0.0
C125 C 0.69928 0.26691 0.86207 0.0
H126 H 0.92979 0.33075 0.81529 0.0
C127 C 0.66738 0.28993 0.78749 0.0
C128 C 0.72893 0.32418 0.72126 0.0
H129 H 0.64924 0.2327 0.9095 0.0
H130 H 0.59339 0.27593 0.78025 0.0
C131 C 0.82473 0.34626 0.73407 0.0
C132 C 0.76699 0.72916 0.66809 0.0
C133 C 0.66983 0.69063 0.65806 0.0
H134 H 0.88092 0.80799 0.74302 0.0
C135 C 0.61212 0.70802 0.7177 0.0
H136 H 0.81374 0.71777 0.62296 0.0
C137 C 0.65136 0.76052 0.78742 0.0
C138 C 0.74872 0.79573 0.79863 0.0
H139 H 0.53717 0.67849 0.71205 0.0
H140 H 0.60543 0.77251 0.83297 0.0
C141 C 0.80583 0.78018 0.73763 0.0
loop_
_geom_bond_atom_site_label_1
_geom_bond_atom_site_label_2
_geom_bond_distance
_geom_bond_site_symmetry_2
_ccdc_geom_bond_type
C0 O27 1.312 . S
C0 O28 1.208 . S
C1 O22 1.331 . S
C1 O25 1.244 . S
C2 O24 1.264 . S
C2 O26 1.273 . S
Mg3 O5 1.937 1_455 S
Mg3 O12 2.085 1_455 S
Mg3 O14 2.020 1_456 S
Mg3 O18 2.034 . S
Mg3 O27 2.288 1_556 S
Mg4 O5 1.963 . S
Mg4 O15 1.942 . S
Mg4 O16 1.955 1_556 S
Mg4 O23 1.986 1_545 S
O5 Mg3 1.937 1_655 S
O5 Mg4 1.963 . S
O5 Mg6 1.915 1_546 S
Mg6 O5 1.915 1_564 S
Mg6 O7 1.915 1_655 S
Mg6 O11 2.013 . S
Mg6 O17 2.114 1_664 S
Mg6 O21 2.013 1_554 S
Mg6 O27 2.114 1_665 S
O7 Mg6 1.915 1_455 S
O7 Mg8 1.937 1_565 S
O7 Mg9 1.963 . S
Mg8 O7 1.937 1_545 S
Mg8 O17 2.286 1_554 S
Mg8 O22 2.087 1_545 S
Mg8 O24 2.018 1_544 S
Mg8 O28 2.036 . S
Mg9 O7 1.963 . S
Mg9 O13 1.986 1_455 S
Mg9 O25 1.942 . S
Mg9 O26 1.955 1_554 S
C10 O21 1.191 . S
C10 O23 1.307 . S
O11 Mg6 2.013 . S
O11 C30 1.191 . S
O12 Mg3 2.085 1_655 S
O12 C20 1.331 . S
O13 Mg9 1.986 1_655 S
O13 C30 1.307 . S
O14 Mg3 2.020 1_654 S
O14 C29 1.264 . S
O15 Mg4 1.942 . S
O15 C20 1.244 . S
O16 Mg4 1.955 1_554 S
O16 C29 1.273 . S
O17 Mg6 2.114 1_446 S
O17 Mg8 2.286 1_556 S
O17 C19 1.312 . S
O18 Mg3 2.034 . S
O18 C19 1.208 . S
C19 O17 1.312 . S
C19 O18 1.208 . S
C20 O12 1.331 . S
C20 O15 1.244 . S
O21 Mg6 2.013 1_556 S
O21 C10 1.191 . S
O22 C1 1.331 . S
O22 Mg8 2.087 1_565 S
O23 Mg4 1.986 1_565 S
O23 C10 1.307 . S
O24 C2 1.264 . S
O24 Mg8 2.018 1_566 S
O25 C1 1.244 . S
O25 Mg9 1.942 . S
O26 C2 1.273 . S
O26 Mg9 1.955 1_556 S
O27 C0 1.312 . S
O27 Mg3 2.288 1_554 S
O27 Mg6 2.114 1_445 S
O28 C0 1.208 . S
O28 Mg8 2.036 . S
C29 O14 1.264 . S
C29 O16 1.273 . S
C30 O11 1.191 . S
C30 O13 1.307 . S
C31 O58 1.312 . S
C31 O59 1.208 . S
C32 O53 1.331 . S
C32 O56 1.244 . S
C33 O55 1.264 . S
C33 O57 1.273 . S
Mg34 O36 1.936 . S
Mg34 O43 2.081 . S
Mg34 O45 2.023 . S
Mg34 O49 2.031 . S
Mg34 O58 2.291 . S
Mg35 O36 1.963 . S
Mg35 O46 1.942 . S
Mg35 O47 1.955 . S
Mg35 O54 1.986 . S
O36 Mg34 1.936 . S
O36 Mg35 1.963 . S
O36 Mg37 1.915 . S
Mg37 O36 1.915 . S
Mg37 O38 1.915 . S
Mg37 O42 2.013 . S
Mg37 O48 2.114 . S
Mg37 O52 2.013 . S
Mg37 O58 2.114 . S
O38 Mg37 1.915 . S
O38 Mg39 1.936 . S
O38 Mg40 1.963 . S
Mg39 O38 1.936 . S
Mg39 O48 2.291 . S
Mg39 O53 2.081 . S
Mg39 O55 2.023 . S
Mg39 O59 2.031 . S
Mg40 O38 1.963 . S
Mg40 O44 1.986 . S
Mg40 O56 1.942 . S
Mg40 O57 1.955 . S
C41 O52 1.191 . S
C41 O54 1.307 . S
O42 Mg37 2.013 . S
O42 C61 1.191 . S
O43 Mg34 2.081 . S
O43 C51 1.331 . S
O44 Mg40 1.986 . S
O44 C61 1.307 . S
O45 Mg34 2.023 . S
O45 C60 1.264 . S
O46 Mg35 1.942 . S
O46 C51 1.244 . S
O47 Mg35 1.955 . S
O47 C60 1.273 . S
O48 Mg37 2.114 . S
O48 Mg39 2.291 . S
O48 C50 1.312 . S
O49 Mg34 2.031 . S
O49 C50 1.208 . S
C50 O48 1.312 . S
C50 O49 1.208 . S
C51 O43 1.331 . S
C51 O46 1.244 . S
O52 Mg37 2.013 . S
O52 C41 1.191 . S
O53 C32 1.331 . S
O53 Mg39 2.081 . S
O54 Mg35 1.986 . S
O54 C41 1.307 . S
O55 C33 1.264 . S
O55 Mg39 2.023 . S
O56 C32 1.244 . S
O56 Mg40 1.942 . S
O57 C33 1.273 . S
O57 Mg40 1.955 . S
O58 C31 1.312 . S
O58 Mg34 2.291 . S
O58 Mg37 2.114 . S
O59 C31 1.208 . S
O59 Mg39 2.031 . S
C60 O45 1.264 . S
C60 O47 1.273 . S
C61 O42 1.191 . S
C61 O44 1.307 . S
C62 C63 1.387 . S
C62 H66 0.950 . S
C62 C71 1.390 . S
C63 C62 1.387 . S
C63 C65 1.387 . S
H64 C71 0.950 . S
C65 C63 1.387 . S
C65 C67 1.390 . S
C65 H69 0.950 . S
H66 C62 0.950 . S
C67 C65 1.390 . S
C67 C68 1.387 . S
C67 H70 0.950 . S
C68 C67 1.387 . S
C68 C71 1.387 . S
H69 C65 0.950 . S
H70 C67 0.950 . S
C71 C62 1.390 . S
C71 H64 0.950 . S
C71 C68 1.387 . S
C72 C73 1.387 . S
C72 H76 0.950 . S
C72 C81 1.390 . S
C73 C72 1.387 . S
C73 C75 1.387 . S
H74 C81 0.950 . S
C75 C73 1.387 . S
C75 C77 1.390 . S
C75 H79 0.950 . S
H76 C72 0.950 . S
C77 C75 1.390 . S
C77 C78 1.387 . S
C77 H80 0.950 . S
C78 C77 1.387 . S
C78 C81 1.387 . S
H79 C75 0.950 . S
H80 C77 0.950 . S
C81 C72 1.390 . S
C81 H74 0.950 . S
C81 C78 1.387 . S
C82 C83 1.387 . S
C82 H86 0.950 . S
C82 C91 1.390 . S
C83 C82 1.387 . S
C83 C85 1.387 . S
H84 C91 0.950 . S
C85 C83 1.387 . S
C85 C87 1.390 . S
C85 H89 0.950 . S
H86 C82 0.950 . S
C87 C85 1.390 . S
C87 C88 1.387 . S
C87 H90 0.950 . S
C88 C87 1.387 . S
C88 C91 1.387 . S
H89 C85 0.950 . S
H90 C87 0.950 . S
C91 C82 1.390 . S
C91 H84 0.950 . S
C91 C88 1.387 . S
C92 C93 1.387 . S
C92 H96 0.950 . S
C92 C101 1.390 . S
C93 C92 1.387 . S
C93 C95 1.387 . S
H94 C101 0.950 . S
C95 C93 1.387 . S
C95 C97 1.390 . S
C95 H99 0.950 . S
H96 C92 0.950 . S
C97 C95 1.390 . S
C97 C98 1.387 . S
C97 H100 0.950 . S
C98 C97 1.387 . S
C98 C101 1.387 . S
H99 C95 0.950 . S
H100 C97 0.950 . S
C101 C92 1.390 . S
C101 H94 0.950 . S
C101 C98 1.387 . S
C102 C103 1.387 . S
C102 H106 0.950 . S
C102 C111 1.390 . S
C103 C102 1.387 . S
C103 C105 1.387 . S
H104 C111 0.950 . S
C105 C103 1.387 . S
C105 C107 1.390 . S
C105 H109 0.950 . S
H106 C102 0.950 . S
C107 C105 1.390 . S
C107 C108 1.387 . S
C107 H110 0.950 . S
C108 C107 1.387 . S
C108 C111 1.387 . S
H109 C105 0.950 . S
H110 C107 0.950 . S
C111 C102 1.390 . S
C111 H104 0.950 . S
C111 C108 1.387 . S
C112 C113 1.387 . S
C112 H116 0.950 . S
C112 C121 1.390 . S
C113 C112 1.387 . S
C113 C115 1.387 . S
H114 C121 0.950 . S
C115 C113 1.387 . S
C115 C117 1.390 . S
C115 H119 0.950 . S
H116 C112 0.950 . S
C117 C115 1.390 . S
C117 C118 1.387 . S
C117 H120 0.950 . S
C118 C117 1.387 . S
C118 C121 1.387 . S
H119 C115 0.950 . S
H120 C117 0.950 . S
C121 C112 1.390 . S
C121 H114 0.950 . S
C121 C118 1.387 . S
C122 C123 1.387 . S
C122 H126 0.950 . S
C122 C131 1.390 . S
C123 C122 1.387 . S
C123 C125 1.387 . S
H124 C131 0.950 . S
C125 C123 1.387 . S
C125 C127 1.390 . S
C125 H129 0.950 . S
H126 C122 0.950 . S
C127 C125 1.390 . S
C127 C128 1.387 . S
C127 H130 0.950 . S
C128 C127 1.387 . S
C128 C131 1.387 . S
H129 C125 0.950 . S
H130 C127 0.950 . S
C131 C122 1.390 . S
C131 H124 0.950 . S
C131 C128 1.387 . S
C132 C133 1.387 . S
C132 H136 0.950 . S
C132 C141 1.390 . S
C133 C132 1.387 . S
C133 C135 1.387 . S
H134 C141 0.950 . S
C135 C133 1.387 . S
C135 C137 1.390 . S
C135 H139 0.950 . S
H136 C132 0.950 . S
C137 C135 1.390 . S
C137 C138 1.387 . S
C137 H140 0.950 . S
C138 C137 1.387 . S
C138 C141 1.387 . S
H139 C135 0.950 . S
H140 C137 0.950 . S
C141 C132 1.390 . S
C141 H134 0.950 . S
C141 C138 1.387 . S
C63 C0 1.341 . S
C68 C41 1.359 . S
C73 C29 1.609 . S
C78 C33 1.608 . S
C83 C30 1.361 . S
C88 C50 1.340 . S
C93 C1 1.480 . S
C98 C51 1.480 . S
C103 C2 1.608 . S
C108 C60 1.610 . S
C113 C61 1.361 . S
C118 C19 1.341 . S
C123 C20 1.479 . S
C128 C32 1.481 . S
C133 C31 1.340 . S
C138 C10 1.363 . S
