# Generated by pormake.
# Topology ttw, (5)-cn, num edge types: 1
# Building blocks:
#     Node 0, Type 0, BuildingBlock: XOMCOT_clean_sbu_1, # of connection points: 5
#     Node 1, Type 0, BuildingBlock: XOMCOT_clean_sbu_1, # of connection points: 5
#     Node 2, Type 0, BuildingBlock: XOMCOT_clean_sbu_1, # of connection points: 5
#     Node 3, Type 0, BuildingBlock: XOMCOT_clean_sbu_1, # of connection points: 5
#     Node 4, Type 0, BuildingBlock: XOMCOT_clean_sbu_1, # of connection points: 5
#     Node 5, Type 0, BuildingBlock: XOMCOT_clean_sbu_1, # of connection points: 5
#     Edge 6, Type (0, 0), None
#     Edge 7, Type (0, 0), None
#     Edge 8, Type (0, 0), None
#     Edge 9, Type (0, 0), None
#     Edge 10, Type (0, 0), None
#     Edge 11, Type (0, 0), None
#     Edge 12, Type (0, 0), None
#     Edge 13, Type (0, 0), None
#     Edge 14, Type (0, 0), None
#     Edge 15, Type (0, 0), None
#     Edge 16, Type (0, 0), None
#     Edge 17, Type (0, 0), None
#     Edge 18, Type (0, 0), None
#     Edge 19, Type (0, 0), None
#     Edge 20, Type (0, 0), None
# Relax obj value: 0.311
# Max RMSD: 0.339
# Mean RMSD: 0.259
data_MOF--net-ttw--node1-XOMCOT_clean_sbu_1--edge1-none
_symmetry_space_group_name_H-M    P1
_symmetry_Int_Tables_number       1
_symmetry_cell_setting            triclinic
loop_
_symmetry_equiv_pos_as_xyz
'x, y, z'
_cell_length_a     25.999824
_cell_length_b     28.001184
_cell_length_c     9.3978548
_cell_angle_alpha  94.591268
_cell_angle_beta   91.184858
_cell_angle_gamma 119.30942
loop_
_atom_site_label
_atom_site_type_symbol
_atom_site_fract_x
_atom_site_fract_y
_atom_site_fract_z
_atom_type_partial_charge
C0 C 0.0878 0.53795 0.80624 0.0
C1 C 0.08892 0.541 0.66035 0.0
N2 N 0.11793 0.59453 0.63874 0.0
N3 N 0.11672 0.58931 0.87505 0.0
C4 C 0.1338 0.62296 0.76957 0.0
H5 H 0.0694 0.50065 0.85909 0.0
Co6 Co 0.13293 0.60575 0.07268 0.0
C7 C 0.24621 0.71815 0.99956 0.0
O8 O 0.26833 0.70696 0.88577 0.0
N9 N 0.14847 0.62198 0.27294 0.0
C10 C 0.18928 0.66195 0.49169 0.0
C11 C 0.19565 0.66528 0.34736 0.0
C12 C 0.11423 0.59262 0.37501 0.0
N13 N 0.1382 0.61623 0.50805 0.0
O14 O 0.08047 0.63588 0.08234 0.0
H15 H 0.23328 0.69713 0.30144 0.0
H16 H 0.07306 0.55449 0.3523 0.0
O17 O 0.20018 0.6801 0.05024 0.0
C18 C 0.02625 0.60307 0.10204 0.0
O19 O 0.00803 0.55032 0.10274 0.0
N20 N 0.1794 0.57087 0.06764 0.0
C21 C 0.23849 0.51139 0.09968 0.0
C22 C 0.25969 0.55443 1.01181 0.0
C23 C 0.22913 0.58374 0.99662 0.0
C24 C 0.15504 0.52511 0.13939 0.0
C25 C 0.18454 0.4957 0.15992 0.0
H26 H 0.24596 0.61679 0.92997 0.0
H27 H 0.1132 0.51237 0.18582 0.0
H28 H 0.15823 0.66732 0.78722 0.0
H29 H 0.07273 0.50685 0.57745 0.0
H30 H 0.22068 0.68972 0.57745 0.0
H31 H 0.30139 0.56767 0.96349 0.0
H32 H 0.16684 0.46274 0.2288 0.0
C33 C 0.65879 0.06386 0.81271 0.0
C34 C 0.65399 0.06086 0.6656 0.0
N35 N 0.60824 0.06814 0.62844 0.0
N36 N 0.61696 0.07399 0.86678 0.0
C37 C 0.58597 0.07527 0.75168 0.0
H38 H 0.69184 0.06072 0.87682 0.0
Co39 Co 0.6081 0.08459 0.06102 0.0
C40 C 0.58649 0.17572 0.10683 0.0
O41 O 0.62361 0.19092 0.21985 0.0
N42 N 0.59546 0.08861 0.25831 0.0
C43 C 0.54553 0.08084 0.45407 0.0
C44 C 0.5467 0.08748 0.31096 0.0
C45 C 0.62051 0.07788 0.37013 0.0
N46 N 0.5921 0.07497 0.49054 0.0
O47 O 0.53281 0.01874 0.0372 0.0
H48 H 0.51239 0.08903 0.24791 0.0
H49 H 0.65666 0.06932 0.36179 0.0
O50 O 0.57228 0.13107 0.02683 0.0
C51 C 0.54111 -0.02188 0.04649 0.0
O52 O 0.59551 -0.01226 0.07006 0.0
N53 N 0.68509 0.15187 0.07852 0.0
C54 C 0.77856 0.26064 0.10418 0.0
C55 C 0.74296 0.23795 0.97802 0.0
C56 C 0.69607 0.18451 0.96859 0.0
C57 C 0.7251 0.17134 0.19488 0.0
C58 C 0.77087 0.2265 0.21249 0.0
H59 H 0.66542 0.17227 0.87667 0.0
H60 H 0.72032 0.14628 0.27944 0.0
H61 H 0.54981 0.08391 0.75875 0.0
H62 H 0.68276 0.05536 0.59268 0.0
H63 H 0.51204 0.07855 0.52398 0.0
H64 H 0.7471 0.26326 0.89273 0.0
H65 H 0.79829 0.24287 0.31178 0.0
C66 C 0.41122 0.42583 0.88061 0.0
C67 C 0.40778 0.42527 0.7348 0.0
N68 N 0.36804 0.44051 0.70176 0.0
N69 N 0.37506 0.44309 0.93962 0.0
C70 C 0.34791 0.45021 0.82532 0.0
H71 H 0.43786 0.41295 0.93751 0.0
Co72 Co 0.3625 0.44923 0.13654 0.0
C73 C 0.27858 0.49452 0.16263 0.0
O74 O 0.29558 0.51128 0.29821 0.0
N75 N 0.34467 0.44523 0.328 0.0
C76 C 0.28989 0.41416 0.5144 0.0
C77 C 0.2888 0.41589 0.3687 0.0
C78 C 0.37917 0.45628 0.4491 0.0
N79 N 0.34679 0.4399 0.56316 0.0
O80 O 0.42524 0.4333 0.18297 0.0
H81 H 0.24962 0.39586 0.29594 0.0
H82 H 0.42688 0.47538 0.45367 0.0
O83 O 0.29889 0.46748 0.08887 0.0
C84 C 0.48175 0.45922 0.20178 0.0
O85 O 0.51259 0.51269 0.19791 0.0
N86 N 0.41723 0.52834 0.15948 0.0
C87 C 0.42875 0.62949 0.11612 0.0
C88 C 0.44606 0.60229 1.01296 0.0
C89 C 0.44315 0.55309 0.04077 0.0
C90 C 0.41634 0.56152 0.27354 0.0
C91 C 0.42117 0.61224 0.2535 0.0
H92 H 0.45645 0.53314 0.95884 0.0
H93 H 0.40361 0.54737 0.37629 0.0
H94 H 0.3142 0.46215 0.83127 0.0
H95 H 0.43036 0.41231 0.65871 0.0
H96 H 0.25249 0.3928 0.57792 0.0
H97 H 0.45707 0.61574 0.90763 0.0
H98 H 0.4136 0.63491 0.34166 0.0
C99 C 0.94583 0.49525 0.38832 0.0
C100 C 0.94328 0.49589 0.53453 0.0
N101 N 0.90846 0.51702 0.57364 0.0
N102 N 0.91203 0.51508 0.33628 0.0
C103 C 0.89024 0.52861 0.45215 0.0
H104 H 0.96792 0.47826 0.32289 0.0
Co105 Co 0.89377 0.51324 0.14322 0.0
C106 C 0.7647 0.4745 0.11846 0.0
O107 O 0.76127 0.44097 1.00787 0.0
N108 N 0.87825 0.51431 0.94655 0.0
C109 C 0.85478 0.54164 0.7501 0.0
C110 C 0.84946 0.53929 0.89466 0.0
C111 C 0.9038 0.5049 0.83159 0.0
N112 N 0.88901 0.52001 0.71133 0.0
O113 O 0.93171 0.59225 0.16102 0.0
H114 H 0.8287 0.55791 0.95903 0.0
H115 H 0.93622 0.49159 0.83697 0.0
O116 O 0.81528 0.50735 0.18516 0.0
C117 C 0.98563 0.62439 0.13683 0.0
O118 O 0.00575 0.67774 0.1485 0.0
N119 N 0.85903 0.43478 0.12941 0.0
C120 C 0.81364 0.32122 0.12878 0.0
C121 C 0.79443 0.34917 0.22372 0.0
C122 C 0.81793 0.40582 0.22326 0.0
C123 C 0.88186 0.40865 0.04533 0.0
C124 C 0.8584 0.35152 0.0397 0.0
H125 H 0.80299 0.42633 0.30001 0.0
H126 H 0.91913 0.43173 0.98443 0.0
H127 H 0.85933 0.54385 0.44657 0.0
H128 H 0.96294 0.47965 0.60491 0.0
H129 H 0.83741 0.56027 0.68104 0.0
H130 H 0.75963 0.32706 0.29363 0.0
H131 H 0.87462 0.33112 0.96562 0.0
C132 C 0.4746 0.83007 0.27837 0.0
C133 C 0.47137 0.83062 0.42471 0.0
N134 N 0.42394 0.83553 0.45744 0.0
N135 N 0.42924 0.83435 0.22016 0.0
C136 C 0.39958 0.83833 0.33275 0.0
H137 H 0.50611 0.82393 0.2175 0.0
Co138 Co 0.40825 0.82733 1.02382 0.0
C139 C 0.27227 0.77562 0.06666 0.0
O140 O 0.23701 0.79015 0.13129 0.0
N141 N 0.38807 0.8221 0.82589 0.0
C142 C 0.34435 0.81996 0.61635 0.0
C143 C 0.33796 0.81603 0.76048 0.0
C144 C 0.42497 0.83162 0.71882 0.0
N145 N 0.39912 0.82977 0.59129 0.0
O146 O 0.43886 0.90509 0.03522 0.0
H147 H 0.29942 0.81102 0.81277 0.0
H148 H 0.47058 0.84162 0.73418 0.0
O149 O 0.32758 0.81155 0.06951 0.0
C150 C 0.49369 0.92086 1.0225 0.0
O151 O 0.50983 0.88338 0.99895 0.0
N152 N 0.389 0.75406 1.01415 0.0
C153 C 0.41395 0.67189 0.07824 0.0
C154 C 0.37021 0.67858 0.14791 0.0
C155 C 0.35921 0.7206 0.11632 0.0
C156 C 0.42905 0.74592 0.94021 0.0
C157 C 0.44228 0.70534 0.97049 0.0
H158 H 0.33195 0.72985 0.18535 0.0
H159 H 0.45694 0.77522 0.87055 0.0
H160 H 0.35959 0.84095 0.32357 0.0
H161 H 0.49959 0.82488 0.49949 0.0
H162 H 0.31151 0.81635 0.53715 0.0
H163 H 0.3461 0.65311 0.23028 0.0
H164 H 0.47745 0.70314 0.91615 0.0
C165 C 0.5027 0.35399 0.88438 0.0
C166 C 0.50641 0.35531 0.73865 0.0
N167 N 0.564 0.38209 0.71351 0.0
N168 N 0.55768 0.38049 0.95009 0.0
C169 C 0.59422 0.39714 0.84209 0.0
H170 H 0.46239 0.33248 0.93796 0.0
Co171 Co 0.57582 0.38293 0.14538 0.0
C172 C 0.70871 0.46769 0.17262 0.0
O173 O 0.70883 0.49772 0.28744 0.0
N174 N 0.59381 0.38464 0.34176 0.0
C175 C 0.6373 0.38434 0.54888 0.0
C176 C 0.64059 0.38308 0.40253 0.0
C177 C 0.56182 0.38515 0.45304 0.0
N178 N 0.58767 0.3856 0.57888 0.0
O179 O 0.56631 0.44599 0.18252 0.0
H180 H 0.67439 0.37994 0.34403 0.0
H181 H 0.52006 0.38448 0.44358 0.0
O182 O 0.66047 0.42639 0.11763 0.0
C183 C 0.51117 0.42612 0.19983 0.0
O184 O 0.47773 0.37248 0.19704 0.0
N185 N 0.57761 0.31807 0.10791 0.0
C186 C 0.57058 0.21611 0.06796 0.0
C187 C 0.61206 0.25997 0.99865 0.0
C188 C 0.61526 0.3111 1.02087 0.0
C189 C 0.53335 0.27448 0.16479 0.0
C190 C 0.52962 0.223 0.14813 0.0
H191 H 0.64891 0.34508 0.97109 0.0
H192 H 0.50256 0.28048 0.22911 0.0
H193 H 0.64191 0.41775 0.85586 0.0
H194 H 0.47004 0.33534 0.65761 0.0
H195 H 0.66742 0.38222 0.62602 0.0
H196 H 0.64507 0.25619 0.93826 0.0
H197 H 0.49827 0.1903 0.20673 0.0
loop_
_geom_bond_atom_site_label_1
_geom_bond_atom_site_label_2
_geom_bond_distance
_geom_bond_site_symmetry_2
_ccdc_geom_bond_type
C0 C1 1.351 . S
C0 N3 1.368 . S
C0 H5 0.931 . S
C1 C0 1.351 . S
C1 N2 1.373 . S
C1 H29 0.930 . S
N2 C1 1.373 . S
N2 C4 1.340 . S
N3 C0 1.368 . S
N3 C4 1.321 . S
N3 Co6 2.135 1_556 S
C4 N2 1.340 . S
C4 N3 1.321 . S
C4 H28 0.930 . S
H5 C0 0.931 . S
Co6 N3 2.135 1_554 S
Co6 N9 2.121 . S
Co6 O14 2.055 . S
Co6 O17 2.039 . S
Co6 N20 2.140 . S
C7 O8 1.227 . S
C7 O17 1.265 . S
O8 C7 1.227 . S
N9 Co6 2.121 . S
N9 C11 1.375 . S
N9 C12 1.313 . S
C10 C11 1.338 . S
C10 N13 1.377 . S
C10 H30 0.930 . S
C11 N9 1.375 . S
C11 C10 1.338 . S
C11 H15 0.931 . S
C12 N9 1.313 . S
C12 N13 1.344 . S
C12 H16 0.930 . S
N13 C10 1.377 . S
N13 C12 1.344 . S
O14 Co6 2.055 . S
O14 C18 1.253 . S
H15 C11 0.931 . S
H16 C12 0.930 . S
O17 Co6 2.039 . S
O17 C7 1.265 . S
C18 O14 1.253 . S
C18 O19 1.227 . S
O19 C18 1.227 . S
N20 Co6 2.140 . S
N20 C23 1.346 1_554 S
N20 C24 1.345 . S
C21 C22 1.387 1_554 S
C21 C25 1.391 . S
C22 C21 1.387 1_556 S
C22 C23 1.369 . S
C22 H31 0.929 . S
C23 N20 1.346 1_556 S
C23 C22 1.369 . S
C23 H26 0.928 . S
C24 N20 1.345 . S
C24 C25 1.371 . S
C24 H27 0.931 . S
C25 C21 1.391 . S
C25 C24 1.371 . S
C25 H32 0.930 . S
H26 C23 0.928 . S
H27 C24 0.931 . S
H28 C4 0.930 . S
H29 C1 0.930 . S
H30 C10 0.930 . S
H31 C22 0.929 . S
H32 C25 0.930 . S
C33 C34 1.351 . S
C33 N36 1.368 . S
C33 H38 0.931 . S
C34 C33 1.351 . S
C34 N35 1.373 . S
C34 H62 0.930 . S
N35 C34 1.373 . S
N35 C37 1.340 . S
N36 C33 1.368 . S
N36 C37 1.321 . S
N36 Co39 2.135 1_556 S
C37 N35 1.340 . S
C37 N36 1.321 . S
C37 H61 0.930 . S
H38 C33 0.931 . S
Co39 N36 2.135 1_554 S
Co39 N42 2.121 . S
Co39 O47 2.055 . S
Co39 O50 2.039 . S
Co39 N53 2.140 . S
C40 O41 1.227 1_554 S
C40 O50 1.265 . S
O41 C40 1.227 1_556 S
N42 Co39 2.121 . S
N42 C44 1.375 . S
N42 C45 1.313 . S
C43 C44 1.338 . S
C43 N46 1.377 . S
C43 H63 0.930 . S
C44 N42 1.375 . S
C44 C43 1.338 . S
C44 H48 0.931 . S
C45 N42 1.313 . S
C45 N46 1.344 . S
C45 H49 0.930 . S
N46 C43 1.377 . S
N46 C45 1.344 . S
O47 Co39 2.055 . S
O47 C51 1.258 . S
H48 C44 0.931 . S
H49 C45 0.930 . S
O50 Co39 2.039 . S
O50 C40 1.265 . S
C51 O47 1.258 . S
C51 O52 1.227 . S
O52 C51 1.227 . S
N53 Co39 2.140 . S
N53 C56 1.346 1_554 S
N53 C57 1.345 . S
C54 C55 1.387 1_554 S
C54 C58 1.391 . S
C55 C54 1.387 1_556 S
C55 C56 1.369 . S
C55 H64 0.929 . S
C56 N53 1.346 1_556 S
C56 C55 1.369 . S
C56 H59 0.928 . S
C57 N53 1.345 . S
C57 C58 1.371 . S
C57 H60 0.931 . S
C58 C54 1.391 . S
C58 C57 1.371 . S
C58 H65 0.930 . S
H59 C56 0.928 . S
H60 C57 0.931 . S
H61 C37 0.930 . S
H62 C34 0.930 . S
H63 C43 0.930 . S
H64 C55 0.929 . S
H65 C58 0.930 . S
C66 C67 1.351 . S
C66 N69 1.368 . S
C66 H71 0.931 . S
C67 C66 1.351 . S
C67 N68 1.373 . S
C67 H95 0.930 . S
N68 C67 1.373 . S
N68 C70 1.340 . S
N69 C66 1.368 . S
N69 C70 1.321 . S
N69 Co72 2.135 1_556 S
C70 N68 1.340 . S
C70 N69 1.321 . S
C70 H94 0.930 . S
H71 C66 0.931 . S
Co72 N69 2.135 1_554 S
Co72 N75 2.121 . S
Co72 O80 2.055 . S
Co72 O83 2.039 . S
Co72 N86 2.140 . S
C73 O74 1.227 1_554 S
C73 O83 1.265 . S
O74 C73 1.227 1_556 S
N75 Co72 2.121 . S
N75 C77 1.375 . S
N75 C78 1.313 . S
C76 C77 1.338 . S
C76 N79 1.377 . S
C76 H96 0.930 . S
C77 N75 1.375 . S
C77 C76 1.338 . S
C77 H81 0.931 . S
C78 N75 1.313 . S
C78 N79 1.344 . S
C78 H82 0.930 . S
N79 C76 1.377 . S
N79 C78 1.344 . S
O80 Co72 2.055 . S
O80 C84 1.253 . S
H81 C77 0.931 . S
H82 C78 0.930 . S
O83 Co72 2.039 . S
O83 C73 1.265 . S
C84 O80 1.253 . S
C84 O85 1.227 . S
O85 C84 1.227 . S
N86 Co72 2.140 . S
N86 C89 1.341 1_554 S
N86 C90 1.345 . S
C87 C88 1.387 . S
C87 C91 1.391 . S
C88 C87 1.387 . S
C88 C89 1.370 1_554 S
C88 H97 0.929 1_554 S
C89 N86 1.341 1_556 S
C89 C88 1.370 1_556 S
C89 H92 0.933 . S
C90 N86 1.345 . S
C90 C91 1.371 . S
C90 H93 0.931 . S
C91 C87 1.391 . S
C91 C90 1.371 . S
C91 H98 0.930 . S
H92 C89 0.933 . S
H93 C90 0.931 . S
H94 C70 0.930 . S
H95 C67 0.930 . S
H96 C76 0.930 . S
H97 C88 0.929 1_556 S
H98 C91 0.930 . S
C99 C100 1.351 . S
C99 N102 1.368 . S
C99 H104 0.931 . S
C100 C99 1.351 . S
C100 N101 1.373 . S
C100 H128 0.930 . S
N101 C100 1.373 . S
N101 C103 1.340 . S
N102 C99 1.368 . S
N102 C103 1.321 . S
N102 Co105 2.135 . S
C103 N101 1.340 . S
C103 N102 1.321 . S
C103 H127 0.930 . S
H104 C99 0.931 . S
Co105 N102 2.135 . S
Co105 N108 2.121 1_554 S
Co105 O113 2.055 . S
Co105 O116 2.039 . S
Co105 N119 2.140 . S
C106 O107 1.227 . S
C106 O116 1.265 . S
O107 C106 1.227 . S
N108 Co105 2.121 1_556 S
N108 C110 1.375 . S
N108 C111 1.313 . S
C109 C110 1.338 . S
C109 N112 1.377 . S
C109 H129 0.930 . S
C110 N108 1.375 . S
C110 C109 1.338 . S
C110 H114 0.931 . S
C111 N108 1.313 . S
C111 N112 1.344 . S
C111 H115 0.930 . S
N112 C109 1.377 . S
N112 C111 1.344 . S
O113 Co105 2.055 . S
O113 C117 1.253 . S
H114 C110 0.931 . S
H115 C111 0.930 . S
O116 Co105 2.039 . S
O116 C106 1.265 . S
C117 O113 1.253 . S
C117 O118 1.227 . S
O118 C117 1.227 . S
N119 Co105 2.140 . S
N119 C122 1.346 . S
N119 C123 1.345 1_554 S
C120 C121 1.387 . S
C120 C124 1.391 1_554 S
C121 C120 1.387 . S
C121 C122 1.369 . S
C121 H130 0.929 . S
C122 N119 1.346 . S
C122 C121 1.369 . S
C122 H125 0.928 . S
C123 N119 1.345 1_556 S
C123 C124 1.371 . S
C123 H126 0.931 . S
C124 C120 1.391 1_556 S
C124 C123 1.371 . S
C124 H131 0.930 . S
H125 C122 0.928 . S
H126 C123 0.931 . S
H127 C103 0.930 . S
H128 C100 0.930 . S
H129 C109 0.930 . S
H130 C121 0.929 . S
H131 C124 0.930 . S
C132 C133 1.351 . S
C132 N135 1.368 . S
C132 H137 0.931 . S
C133 C132 1.351 . S
C133 N134 1.373 . S
C133 H161 0.930 . S
N134 C133 1.373 . S
N134 C136 1.340 . S
N135 C132 1.368 . S
N135 C136 1.321 . S
N135 Co138 2.135 . S
C136 N134 1.340 . S
C136 N135 1.321 . S
C136 H160 0.930 . S
H137 C132 0.931 . S
Co138 N135 2.135 . S
Co138 N141 2.121 1_554 S
Co138 O146 2.055 . S
Co138 O149 2.039 . S
Co138 N152 2.140 . S
C139 O140 1.227 . S
C139 O149 1.265 . S
O140 C139 1.227 . S
N141 Co138 2.121 1_556 S
N141 C143 1.375 . S
N141 C144 1.313 . S
C142 C143 1.338 . S
C142 N145 1.377 . S
C142 H162 0.930 . S
C143 N141 1.375 . S
C143 C142 1.338 . S
C143 H147 0.931 . S
C144 N141 1.313 . S
C144 N145 1.344 . S
C144 H148 0.930 . S
N145 C142 1.377 . S
N145 C144 1.344 . S
O146 Co138 2.055 . S
O146 C150 1.253 . S
H147 C143 0.931 . S
H148 C144 0.930 . S
O149 Co138 2.039 . S
O149 C139 1.265 . S
C150 O146 1.253 . S
C150 O151 1.227 . S
O151 C150 1.227 . S
N152 Co138 2.140 . S
N152 C155 1.346 . S
N152 C156 1.345 1_554 S
C153 C154 1.387 . S
C153 C157 1.391 1_554 S
C154 C153 1.387 . S
C154 C155 1.369 . S
C154 H163 0.929 . S
C155 N152 1.346 . S
C155 C154 1.369 . S
C155 H158 0.928 . S
C156 N152 1.345 1_556 S
C156 C157 1.371 . S
C156 H159 0.931 . S
C157 C153 1.391 1_556 S
C157 C156 1.371 . S
C157 H164 0.930 . S
H158 C155 0.928 . S
H159 C156 0.931 . S
H160 C136 0.930 . S
H161 C133 0.930 . S
H162 C142 0.930 . S
H163 C154 0.929 . S
H164 C157 0.930 . S
C165 C166 1.351 . S
C165 N168 1.368 . S
C165 H170 0.931 . S
C166 C165 1.351 . S
C166 N167 1.373 . S
C166 H194 0.930 . S
N167 C166 1.373 . S
N167 C169 1.340 . S
N168 C165 1.368 . S
N168 C169 1.321 . S
N168 Co171 2.135 1_556 S
C169 N167 1.340 . S
C169 N168 1.321 . S
C169 H193 0.930 . S
H170 C165 0.931 . S
Co171 N168 2.135 1_554 S
Co171 N174 2.121 . S
Co171 O179 2.055 . S
Co171 O182 2.039 . S
Co171 N185 2.140 . S
C172 O173 1.227 . S
C172 O182 1.265 . S
O173 C172 1.227 . S
N174 Co171 2.121 . S
N174 C176 1.375 . S
N174 C177 1.313 . S
C175 C176 1.338 . S
C175 N178 1.377 . S
C175 H195 0.930 . S
C176 N174 1.375 . S
C176 C175 1.338 . S
C176 H180 0.931 . S
C177 N174 1.313 . S
C177 N178 1.344 . S
C177 H181 0.930 . S
N178 C175 1.377 . S
N178 C177 1.344 . S
O179 Co171 2.055 . S
O179 C183 1.253 . S
H180 C176 0.931 . S
H181 C177 0.930 . S
O182 Co171 2.039 . S
O182 C172 1.265 . S
C183 O179 1.253 . S
C183 O184 1.227 . S
O184 C183 1.227 . S
N185 Co171 2.140 . S
N185 C188 1.346 1_554 S
N185 C189 1.345 . S
C186 C187 1.387 1_554 S
C186 C190 1.391 . S
C187 C186 1.387 1_556 S
C187 C188 1.369 . S
C187 H196 0.929 . S
C188 N185 1.346 1_556 S
C188 C187 1.369 . S
C188 H191 0.928 . S
C189 N185 1.345 . S
C189 C190 1.371 . S
C189 H192 0.931 . S
C190 C186 1.391 . S
C190 C189 1.371 . S
C190 H197 0.930 . S
H191 C188 0.928 . S
H192 C189 0.931 . S
H193 C169 0.930 . S
H194 C166 0.930 . S
H195 C175 0.930 . S
H196 C187 0.929 . S
H197 C190 0.930 . S
C18 C117 1.148 1_455 S
C150 C51 1.427 1_565 S
C183 C84 1.374 . S
N13 N2 1.476 . S
N46 N35 1.432 . S
N68 N79 1.386 . S
N112 N101 1.471 . S
N134 N145 1.476 . S
N178 N167 1.409 . S
C21 C73 1.368 . S
C54 C120 1.681 . S
C87 C153 0.920 . S
C106 C172 1.466 . S
C7 C139 1.551 . S
C40 C186 1.073 . S
