# Generated by pormake.
# Topology kag, (6)-cn, num edge types: 1
# Building blocks:
#     Node 0, Type 0, BuildingBlock: GEDQOX_clean_sbu_0, # of connection points: 6
#     Node 1, Type 0, BuildingBlock: GEDQOX_clean_sbu_0, # of connection points: 6
#     Node 2, Type 0, BuildingBlock: GEDQOX_clean_sbu_0, # of connection points: 6
#     Edge 3, Type (0, 0), BuildingBlock: AJUNOK_clean_linker_0, # of connection points: 2
#     Edge 4, Type (0, 0), BuildingBlock: AJUNOK_clean_linker_0, # of connection points: 2
#     Edge 5, Type (0, 0), BuildingBlock: AJUNOK_clean_linker_0, # of connection points: 2
#     Edge 6, Type (0, 0), BuildingBlock: AJUNOK_clean_linker_0, # of connection points: 2
#     Edge 7, Type (0, 0), BuildingBlock: AJUNOK_clean_linker_0, # of connection points: 2
#     Edge 8, Type (0, 0), BuildingBlock: AJUNOK_clean_linker_0, # of connection points: 2
#     Edge 9, Type (0, 0), BuildingBlock: AJUNOK_clean_linker_0, # of connection points: 2
#     Edge 10, Type (0, 0), BuildingBlock: AJUNOK_clean_linker_0, # of connection points: 2
#     Edge 11, Type (0, 0), BuildingBlock: AJUNOK_clean_linker_0, # of connection points: 2
# Relax obj value: 0.116
# Max RMSD: 0.241
# Mean RMSD: 0.134
data_MOF--net-kag--node1-GEDQOX_clean_sbu_0--edge1-AJUNOK_clean_linker_0
_symmetry_space_group_name_H-M    P1
_symmetry_Int_Tables_number       1
_symmetry_cell_setting            triclinic
loop_
_symmetry_equiv_pos_as_xyz
'x, y, z'
_cell_length_a     41.328998
_cell_length_b     34.476492
_cell_length_c     10.654484
_cell_angle_alpha  93.871038
_cell_angle_beta   88.763809
_cell_angle_gamma 145.61091
loop_
_atom_site_label
_atom_site_type_symbol
_atom_site_fract_x
_atom_site_fract_y
_atom_site_fract_z
_atom_type_partial_charge
Nd0 Nd 0.07441 0.61381 0.03005 0.0
Nd1 Nd 0.07784 0.52138 0.97783 0.0
C2 C 1.06322 0.67292 0.14063 0.0
C3 C 1.03006 0.67612 0.12601 0.0
C4 C 0.9994 0.66099 0.22724 0.0
C5 C 0.96747 0.6634 0.21714 0.0
C6 C 0.96571 0.68123 0.10557 0.0
C7 C 0.99677 0.69696 1.00433 0.0
C8 C 1.02847 0.69405 0.01412 0.0
C9 C 1.06978 0.5864 0.77258 0.0
C10 C 0.95205 0.44204 0.98593 0.0
C11 C 0.08588 0.45935 0.86349 0.0
C12 C 0.11839 0.45533 0.87511 0.0
C13 C 0.12053 0.43103 0.76974 0.0
C14 C 0.15092 0.42637 0.77808 0.0
C15 C 0.17958 0.44576 0.89226 0.0
C16 C 0.17791 0.47091 0.99763 0.0
C17 C 0.14756 0.47574 0.98907 0.0
C18 C 0.08495 0.5513 0.23554 0.0
C19 C 0.20016 0.69276 0.02522 0.0
O20 O 1.03419 0.61392 0.17011 0.0
O21 O 0.10248 0.70305 0.06022 0.0
O22 O 1.07062 0.62335 0.81706 0.0
O23 O 1.06942 0.56537 0.86582 0.0
O24 O 0.97817 0.50127 0.02414 0.0
O25 O 0.98078 0.43859 0.95138 0.0
O26 O 0.11481 0.51811 0.83249 0.0
O27 O 1.04924 0.43179 0.94967 0.0
O28 O 0.08395 0.51411 0.19165 0.0
O29 O 0.08294 0.56994 0.14198 0.0
O30 O 0.17365 0.63355 0.98409 0.0
O31 O 0.17181 0.69689 0.05945 0.0
H32 H 1.00031 0.64747 0.31463 0.0
H33 H 0.94482 0.65235 0.29743 0.0
H34 H 0.99612 0.71095 0.91742 0.0
H35 H 1.05163 0.70581 0.93439 0.0
H36 H 0.09848 0.41541 0.68091 0.0
H37 H 0.15141 0.40674 0.69553 0.0
H38 H 0.20052 0.48744 0.08611 0.0
H39 H 0.14685 0.49537 0.07108 0.0
Nd40 Nd 0.5759 0.11655 1.00522 0.0
Nd41 Nd 0.57664 1.02033 0.01499 0.0
C42 C 0.57759 0.1897 0.92611 0.0
C43 C 0.56629 0.22098 0.94763 0.0
C44 C 0.53659 0.21128 0.85252 0.0
C45 C 0.53226 0.24771 0.86147 0.0
C46 C 0.55751 0.29493 0.96611 0.0
C47 C 0.58616 0.30343 0.06276 0.0
C48 C 0.59049 0.26695 0.05376 0.0
C49 C 0.57654 0.09367 0.25178 0.0
C50 C 0.69909 0.18842 0.99908 0.0
C51 C 0.57629 0.94815 0.09084 0.0
C52 C 0.58679 0.91614 0.06737 0.0
C53 C 0.61572 0.92451 0.16208 0.0
C54 C 0.61965 0.88769 0.15117 0.0
C55 C 0.59478 0.84146 0.04486 0.0
C56 C 0.56685 0.83426 0.94864 0.0
C57 C 0.56291 0.87113 0.95966 0.0
C58 C 0.57414 1.04115 0.7683 0.0
C59 C 0.45351 0.94794 0.02267 0.0
O60 O 0.53445 0.12289 0.89845 0.0
O61 O 0.6199 0.21639 0.99285 0.0
O62 O 0.57646 0.12986 0.22452 0.0
O63 O 0.57689 0.07345 0.1494 0.0
O64 O 0.67032 0.19204 0.97254 0.0
O65 O 0.67326 0.13098 0.0314 0.0
O66 O 0.53267 0.92059 0.02943 0.0
O67 O 0.62003 1.01527 0.11487 0.0
O68 O 0.57437 1.00525 0.79665 0.0
O69 O 0.57523 1.06308 0.87025 0.0
O70 O 0.48321 0.94586 0.05134 0.0
O71 O 0.47861 1.00505 0.99038 0.0
H72 H 0.51844 0.17726 0.76855 0.0
H73 H 0.51106 0.24086 0.78376 0.0
H74 H 0.60601 0.33915 0.14489 0.0
H75 H 0.61411 0.2762 0.12841 0.0
H76 H 0.6336 0.95782 0.24716 0.0
H77 H 0.64027 0.89349 0.22853 0.0
H78 H 0.54734 0.79931 0.86531 0.0
H79 H 0.53991 0.86303 0.88535 0.0
Nd80 Nd 0.50442 0.5013 0.98303 0.0
Nd81 Nd 0.64637 0.63384 0.02611 0.0
C82 C 0.40039 0.4121 0.88594 0.0
C83 C 0.36303 0.4095 0.89505 0.0
C84 C 0.3305 0.38799 0.78801 0.0
C85 C 0.29958 0.39216 0.79149 0.0
C86 C 0.30053 0.41772 0.90235 0.0
C87 C 0.3327 0.43859 1.00994 0.0
C88 C 0.36389 0.4348 1.00619 0.0
C89 C 0.54129 0.54094 0.23742 0.0
C90 C 0.58707 0.66259 0.02447 0.0
C91 C 0.74849 0.71987 0.13009 0.0
C92 C 0.78572 0.72193 0.12444 0.0
C93 C 0.79178 0.7053 0.22926 0.0
C94 C 0.82112 0.69904 0.22163 0.0
C95 C 0.84545 0.70985 0.10935 0.0
C96 C 0.8417 0.72945 1.00611 0.0
C97 C 0.81182 0.73509 0.01325 0.0
C98 C 0.61074 0.59757 0.77155 0.0
C99 C 0.56391 0.47263 0.98263 0.0
O100 O 0.44678 0.46258 0.82571 0.0
O101 O 0.40982 0.40272 0.98831 0.0
O102 O 0.48789 0.49162 0.19804 0.0
O103 O 0.5705 0.56605 0.14177 0.0
O104 O 0.53641 0.59644 0.98821 0.0
O105 O 0.63336 0.68752 0.0545 0.0
O106 O 0.70088 0.66888 0.1872 0.0
O107 O 0.74132 0.73197 0.02804 0.0
O108 O 0.66403 0.64657 0.81183 0.0
O109 O 0.58059 0.57015 0.86631 0.0
O110 O 0.61468 0.53893 0.01699 0.0
O111 O 0.51732 0.4474 0.95514 0.0
H112 H 0.33008 0.36943 0.70084 0.0
H113 H 0.27519 0.37586 0.70722 0.0
H114 H 0.33511 0.45976 0.0958 0.0
H115 H 0.3898 0.45324 0.08919 0.0
H116 H 0.77247 0.69532 0.31635 0.0
H117 H 0.82444 0.68518 0.30332 0.0
H118 H 0.8604 0.73836 0.91875 0.0
H119 H 0.80803 0.74808 0.93072 0.0
C120 C 1.06321 0.52847 0.58977 0.0
C121 C 0.07529 0.57892 0.63636 0.0
C122 C 1.06683 0.52039 0.46062 0.0
C123 C 0.08268 0.56235 0.37231 0.0
H124 H 1.04998 0.49424 0.65303 0.0
H125 H 1.0564 0.48021 0.42948 0.0
S126 S 0.1247 0.70693 0.4477 0.0
N127 N 0.10718 0.67427 0.58385 0.0
N128 N 0.11512 0.65986 0.34405 0.0
C129 C 0.09639 0.61411 0.41844 0.0
C130 C 0.09238 0.62212 0.54939 0.0
C131 C 0.58509 0.11535 0.48815 0.0
C132 C 0.57519 0.07886 0.38239 0.0
C133 C 0.58408 0.10273 0.61269 0.0
C134 C 0.57311 1.05301 0.63672 0.0
H135 H 0.59415 0.15452 0.47473 0.0
H136 H 0.59262 0.13268 0.69048 0.0
S137 S 0.53949 0.93912 0.39406 0.0
N138 N 0.55051 0.98791 0.31164 0.0
N139 N 0.54917 0.96459 0.54343 0.0
C140 C 0.56209 1.01535 0.53182 0.0
C141 C 0.563 1.02813 0.40546 0.0
C142 C 0.61853 0.58613 0.54115 0.0
C143 C 0.59177 0.58223 0.63626 0.0
C144 C 0.60348 0.57479 0.41204 0.0
C145 C 0.5614 0.55971 0.37284 0.0
H146 H 0.65093 0.59716 0.56684 0.0
H147 H 0.62357 0.5756 0.3429 0.0
S148 S 0.48516 0.55453 0.58253 0.0
N149 N 0.52662 0.57105 0.68022 0.0
N150 N 0.49635 0.54664 0.43955 0.0
C151 C 0.53553 0.55758 0.46681 0.0
C152 C 0.55129 0.56979 0.59787 0.0
C153 C 0.24939 0.46612 0.8071 0.0
C154 C 0.21124 0.43984 0.89991 0.0
C155 C 0.27813 0.45888 0.80895 0.0
C156 C 0.26986 0.42512 0.90373 0.0
H157 H 0.25725 0.49274 0.73256 0.0
H158 H 0.30738 0.48031 0.73603 0.0
S159 S 0.17242 0.34405 0.16476 0.0
N160 N 0.16534 0.37677 0.08691 0.0
N161 N 0.21961 0.36343 0.09062 0.0
C162 C 0.23194 0.39868 0.99722 0.0
C163 C 0.20259 0.40599 0.99528 0.0
C164 C 0.79431 0.31783 0.99486 0.0
C165 C 0.76344 0.25201 0.99246 0.0
C166 C 0.85471 0.37839 0.99195 0.0
C167 C 0.88743 0.37632 0.98453 0.0
H168 H 0.77177 0.32298 1.00103 0.0
H169 H 0.87585 0.42736 0.99551 0.0
S170 S 0.82788 0.21704 0.9721 0.0
N171 N 0.77091 0.18888 0.98006 0.0
N172 N 0.88342 0.30166 0.97341 0.0
C173 C 0.85702 0.3107 0.98015 0.0
C174 C 0.79556 0.24909 0.98453 0.0
C175 C 0.54393 0.7266 1.00289 0.0
C176 C 0.59492 0.79792 0.0377 0.0
C177 C 0.54205 0.6839 0.99947 0.0
C178 C 0.59117 0.71029 0.03029 0.0
H179 H 0.50463 0.70313 0.98006 0.0
H180 H 0.50131 0.62944 0.97259 0.0
S181 S 0.73657 0.89463 0.12148 0.0
N182 N 0.6965 0.89366 0.09902 0.0
N183 N 0.69317 0.81388 0.09363 0.0
C184 C 0.64275 0.78187 0.06402 0.0
C185 C 0.64455 0.82538 0.06761 0.0
C186 C 0.95979 0.74583 0.06201 0.0
C187 C 0.93284 0.68537 0.09712 0.0
C188 C 0.93087 0.75293 0.06342 0.0
C189 C 0.87411 0.69985 0.10019 0.0
H190 H 1.00409 0.78873 0.03698 0.0
H191 H 0.95359 0.80098 0.03907 0.0
S192 S 0.78194 0.5278 0.18336 0.0
N193 N 0.84446 0.56909 0.15774 0.0
N194 N 0.79021 0.58251 0.1605 0.0
C195 C 0.84595 0.63813 0.13035 0.0
C196 C 0.8753 0.63087 0.12882 0.0
C197 C 0.29528 0.82309 0.02984 0.0
C198 C 0.26485 0.75759 0.03018 0.0
C199 C 0.35579 0.88401 0.02725 0.0
C200 C 0.38901 0.88262 0.02674 0.0
H201 H 0.27213 0.8274 0.02907 0.0
H202 H 0.37664 0.93265 0.02585 0.0
S203 S 0.33076 0.72458 0.03139 0.0
N204 N 0.27342 0.69582 0.03269 0.0
N205 N 0.38585 0.80892 0.02867 0.0
C206 C 0.35905 0.81742 0.02916 0.0
C207 C 0.29756 0.75552 0.0306 0.0
C208 C 0.60951 0.45203 1.00719 0.0
C209 C 0.56013 0.4252 0.97674 0.0
C210 C 0.60797 0.40966 1.0047 0.0
C211 C 0.55705 0.33819 0.97118 0.0
H212 H 0.65021 0.5066 0.03337 0.0
H213 H 0.64746 0.43352 0.02749 0.0
S214 S 0.41492 0.24042 0.88786 0.0
N215 N 0.45807 0.3211 0.91444 0.0
N216 N 0.45532 0.24189 0.91074 0.0
C217 C 0.5072 0.31031 0.94121 0.0
C218 C 0.50868 0.35351 0.9439 0.0
loop_
_geom_bond_atom_site_label_1
_geom_bond_atom_site_label_2
_geom_bond_distance
_geom_bond_site_symmetry_2
_ccdc_geom_bond_type
Nd0 C2 2.836 1_556 S
Nd0 O20 2.500 1_556 S
Nd0 O21 2.492 . S
Nd0 O22 2.487 . S
Nd0 O23 2.682 1_655 S
Nd0 O24 2.410 . S
Nd0 O29 2.414 1_556 S
Nd0 O31 2.424 1_656 S
Nd1 C11 2.836 1_554 S
Nd1 O23 2.414 1_554 S
Nd1 O25 2.424 1_454 S
Nd1 O26 2.500 1_554 S
Nd1 O27 2.492 . S
Nd1 O28 2.487 . S
Nd1 O29 2.682 1_455 S
Nd1 O30 2.410 . S
C2 Nd0 2.836 1_554 S
C2 C3 1.498 . S
C2 O20 1.258 . S
C2 O21 1.239 1_554 S
C3 C2 1.498 . S
C3 C4 1.366 . S
C3 C8 1.407 1_554 S
C4 C3 1.366 . S
C4 C5 1.392 . S
C4 H32 0.930 . S
C5 C4 1.392 . S
C5 C6 1.398 . S
C5 H33 0.929 . S
C6 C5 1.398 . S
C6 C7 1.352 1_554 S
C7 C6 1.352 1_556 S
C7 C8 1.384 . S
C7 H34 0.930 . S
C8 C3 1.407 1_556 S
C8 C7 1.384 . S
C8 H35 0.929 . S
C9 O22 1.241 1_455 S
C9 O23 1.273 . S
C10 O24 1.251 . S
C10 O25 1.268 . S
C11 Nd1 2.836 1_556 S
C11 C12 1.498 . S
C11 O26 1.258 . S
C11 O27 1.239 1_556 S
C12 C11 1.498 . S
C12 C13 1.366 . S
C12 C17 1.407 1_556 S
C13 C12 1.366 . S
C13 C14 1.392 . S
C13 H36 0.930 . S
C14 C13 1.392 . S
C14 C15 1.398 . S
C14 H37 0.929 . S
C15 C14 1.398 . S
C15 C16 1.352 1_556 S
C16 C15 1.352 1_554 S
C16 C17 1.384 . S
C16 H38 0.930 . S
C17 C12 1.407 1_554 S
C17 C16 1.384 . S
C17 H39 0.929 . S
C18 O28 1.241 . S
C18 O29 1.273 1_455 S
C19 O30 1.251 . S
C19 O31 1.268 . S
O20 Nd0 2.500 1_554 S
O20 C2 1.258 . S
O21 Nd0 2.492 . S
O21 C2 1.239 1_556 S
O22 Nd0 2.487 . S
O22 C9 1.241 1_655 S
O23 Nd0 2.682 1_455 S
O23 Nd1 2.414 1_556 S
O23 C9 1.273 . S
O24 Nd0 2.410 . S
O24 C10 1.251 . S
O25 Nd1 2.424 1_656 S
O25 C10 1.268 . S
O26 Nd1 2.500 1_556 S
O26 C11 1.258 . S
O27 Nd1 2.492 . S
O27 C11 1.239 1_554 S
O28 Nd1 2.487 . S
O28 C18 1.241 . S
O29 Nd0 2.414 1_554 S
O29 Nd1 2.682 1_655 S
O29 C18 1.273 1_655 S
O30 Nd1 2.410 . S
O30 C19 1.251 . S
O31 Nd0 2.424 1_454 S
O31 C19 1.268 . S
H32 C4 0.930 . S
H33 C5 0.929 . S
H34 C7 0.930 . S
H35 C8 0.929 . S
H36 C13 0.930 . S
H37 C14 0.929 . S
H38 C16 0.930 . S
H39 C17 0.929 . S
Nd40 C42 2.836 . S
Nd40 O60 2.500 1_554 S
Nd40 O61 2.492 . S
Nd40 O62 2.487 . S
Nd40 O63 2.682 1_545 S
Nd40 O64 2.410 . S
Nd40 O69 2.414 1_554 S
Nd40 O71 2.424 1_545 S
Nd41 C51 2.836 . S
Nd41 O63 2.414 1_556 S
Nd41 O65 2.424 1_565 S
Nd41 O66 2.500 1_556 S
Nd41 O67 2.492 . S
Nd41 O68 2.487 . S
Nd41 O69 2.682 1_565 S
Nd41 O70 2.410 . S
C42 Nd40 2.836 . S
C42 C43 1.498 . S
C42 O60 1.258 1_554 S
C42 O61 1.239 . S
C43 C42 1.498 . S
C43 C44 1.366 1_554 S
C43 C48 1.407 . S
C44 C43 1.366 1_556 S
C44 C45 1.392 . S
C44 H72 0.930 . S
C45 C44 1.392 . S
C45 C46 1.398 1_556 S
C45 H73 0.929 . S
C46 C45 1.398 1_554 S
C46 C47 1.352 . S
C47 C46 1.352 . S
C47 C48 1.384 . S
C47 H74 0.930 . S
C48 C43 1.407 . S
C48 C47 1.384 . S
C48 H75 0.929 . S
C49 O62 1.241 . S
C49 O63 1.273 1_545 S
C50 O64 1.251 . S
C50 O65 1.268 1_554 S
C51 Nd41 2.836 . S
C51 C52 1.498 . S
C51 O66 1.258 1_556 S
C51 O67 1.239 . S
C52 C51 1.498 . S
C52 C53 1.366 1_556 S
C52 C57 1.407 . S
C53 C52 1.366 1_554 S
C53 C54 1.392 . S
C53 H76 0.930 . S
C54 C53 1.392 . S
C54 C55 1.398 1_554 S
C54 H77 0.929 . S
C55 C54 1.398 1_556 S
C55 C56 1.352 . S
C56 C55 1.352 . S
C56 C57 1.384 . S
C56 H78 0.930 . S
C57 C52 1.407 . S
C57 C56 1.384 . S
C57 H79 0.929 . S
C58 O68 1.241 . S
C58 O69 1.273 1_565 S
C59 O70 1.251 . S
C59 O71 1.268 1_556 S
O60 Nd40 2.500 1_556 S
O60 C42 1.258 1_556 S
O61 Nd40 2.492 . S
O61 C42 1.239 . S
O62 Nd40 2.487 . S
O62 C49 1.241 . S
O63 Nd40 2.682 1_565 S
O63 Nd41 2.414 1_554 S
O63 C49 1.273 1_565 S
O64 Nd40 2.410 . S
O64 C50 1.251 . S
O65 Nd41 2.424 1_545 S
O65 C50 1.268 1_556 S
O66 Nd41 2.500 1_554 S
O66 C51 1.258 1_554 S
O67 Nd41 2.492 . S
O67 C51 1.239 . S
O68 Nd41 2.487 . S
O68 C58 1.241 . S
O69 Nd40 2.414 1_556 S
O69 Nd41 2.682 1_545 S
O69 C58 1.273 1_545 S
O70 Nd41 2.410 . S
O70 C59 1.251 . S
O71 Nd40 2.424 1_565 S
O71 C59 1.268 1_554 S
H72 C44 0.930 . S
H73 C45 0.929 . S
H74 C47 0.930 . S
H75 C48 0.929 . S
H76 C53 0.930 . S
H77 C54 0.929 . S
H78 C56 0.930 . S
H79 C57 0.929 . S
Nd80 C82 2.836 1_554 S
Nd80 O100 2.500 1_554 S
Nd80 O101 2.492 . S
Nd80 O102 2.487 . S
Nd80 O103 2.682 . S
Nd80 O104 2.410 . S
Nd80 O109 2.414 1_554 S
Nd80 O111 2.424 1_554 S
Nd81 C91 2.836 1_556 S
Nd81 O103 2.414 1_556 S
Nd81 O105 2.424 1_556 S
Nd81 O106 2.500 1_556 S
Nd81 O107 2.492 . S
Nd81 O108 2.487 . S
Nd81 O109 2.682 . S
Nd81 O110 2.410 . S
C82 Nd80 2.836 1_556 S
C82 C83 1.498 . S
C82 O100 1.258 . S
C82 O101 1.239 1_556 S
C83 C82 1.498 . S
C83 C84 1.366 . S
C83 C88 1.407 1_556 S
C84 C83 1.366 . S
C84 C85 1.392 . S
C84 H112 0.930 . S
C85 C84 1.392 . S
C85 C86 1.398 . S
C85 H113 0.929 . S
C86 C85 1.398 . S
C86 C87 1.352 1_556 S
C87 C86 1.352 1_554 S
C87 C88 1.384 . S
C87 H114 0.930 . S
C88 C83 1.407 1_554 S
C88 C87 1.384 . S
C88 H115 0.929 . S
C89 O102 1.241 . S
C89 O103 1.273 . S
C90 O104 1.251 . S
C90 O105 1.268 . S
C91 Nd81 2.836 1_554 S
C91 C92 1.498 . S
C91 O106 1.258 . S
C91 O107 1.239 1_554 S
C92 C91 1.498 . S
C92 C93 1.366 . S
C92 C97 1.407 1_554 S
C93 C92 1.366 . S
C93 C94 1.392 . S
C93 H116 0.930 . S
C94 C93 1.392 . S
C94 C95 1.398 . S
C94 H117 0.929 . S
C95 C94 1.398 . S
C95 C96 1.352 1_554 S
C96 C95 1.352 1_556 S
C96 C97 1.384 . S
C96 H118 0.930 . S
C97 C92 1.407 1_556 S
C97 C96 1.384 . S
C97 H119 0.929 . S
C98 O108 1.241 . S
C98 O109 1.273 . S
C99 O110 1.251 . S
C99 O111 1.268 . S
O100 Nd80 2.500 1_556 S
O100 C82 1.258 . S
O101 Nd80 2.492 . S
O101 C82 1.239 1_554 S
O102 Nd80 2.487 . S
O102 C89 1.241 . S
O103 Nd80 2.682 . S
O103 Nd81 2.414 1_554 S
O103 C89 1.273 . S
O104 Nd80 2.410 . S
O104 C90 1.251 . S
O105 Nd81 2.424 1_554 S
O105 C90 1.268 . S
O106 Nd81 2.500 1_554 S
O106 C91 1.258 . S
O107 Nd81 2.492 . S
O107 C91 1.239 1_556 S
O108 Nd81 2.487 . S
O108 C98 1.241 . S
O109 Nd80 2.414 1_556 S
O109 Nd81 2.682 . S
O109 C98 1.273 . S
O110 Nd81 2.410 . S
O110 C99 1.251 . S
O111 Nd80 2.424 1_556 S
O111 C99 1.268 . S
H112 C84 0.930 . S
H113 C85 0.929 . S
H114 C87 0.930 . S
H115 C88 0.929 . S
H116 C93 0.930 . S
H117 C94 0.929 . S
H118 C96 0.930 . S
H119 C97 0.929 . S
C120 C121 1.369 1_655 S
C120 C122 1.419 . S
C120 H124 0.930 . S
C121 C120 1.369 1_455 S
C121 C130 1.429 . S
C122 C120 1.419 . S
C122 C123 1.363 1_655 S
C122 H125 0.929 . S
C123 C122 1.363 1_455 S
C123 C129 1.428 . S
H124 C120 0.930 . S
H125 C122 0.929 . S
S126 N127 1.613 . S
S126 N128 1.610 . S
N127 S126 1.613 . S
N127 C130 1.350 . S
N128 S126 1.610 . S
N128 C129 1.351 . S
C129 C123 1.428 . S
C129 N128 1.351 . S
C129 C130 1.434 . S
C130 C121 1.429 . S
C130 N127 1.350 . S
C130 C129 1.434 . S
C131 C132 1.369 . S
C131 C133 1.419 . S
C131 H135 0.930 . S
C132 C131 1.369 . S
C132 C141 1.429 1_545 S
C133 C131 1.419 . S
C133 C134 1.363 1_545 S
C133 H136 0.929 . S
C134 C133 1.363 1_565 S
C134 C140 1.428 . S
H135 C131 0.930 . S
H136 C133 0.929 . S
S137 N138 1.613 . S
S137 N139 1.610 . S
N138 S137 1.613 . S
N138 C141 1.350 . S
N139 S137 1.610 . S
N139 C140 1.351 . S
C140 C134 1.428 . S
C140 N139 1.351 . S
C140 C141 1.434 . S
C141 C132 1.429 1_565 S
C141 N138 1.350 . S
C141 C140 1.434 . S
C142 C143 1.369 . S
C142 C144 1.419 . S
C142 H146 0.930 . S
C143 C142 1.369 . S
C143 C152 1.429 . S
C144 C142 1.419 . S
C144 C145 1.363 . S
C144 H147 0.929 . S
C145 C144 1.363 . S
C145 C151 1.428 . S
H146 C142 0.930 . S
H147 C144 0.929 . S
S148 N149 1.613 . S
S148 N150 1.610 . S
N149 S148 1.613 . S
N149 C152 1.350 . S
N150 S148 1.610 . S
N150 C151 1.351 . S
C151 C145 1.428 . S
C151 N150 1.351 . S
C151 C152 1.434 . S
C152 C143 1.429 . S
C152 N149 1.350 . S
C152 C151 1.434 . S
C153 C154 1.369 . S
C153 C155 1.419 . S
C153 H157 0.930 . S
C154 C153 1.369 . S
C154 C163 1.429 1_556 S
C155 C153 1.419 . S
C155 C156 1.363 . S
C155 H158 0.929 . S
C156 C155 1.363 . S
C156 C162 1.424 1_556 S
H157 C153 0.930 . S
H158 C155 0.929 . S
S159 N160 1.613 . S
S159 N161 1.610 . S
N160 S159 1.613 . S
N160 C163 1.350 . S
N161 S159 1.610 . S
N161 C162 1.356 . S
C162 C156 1.424 1_554 S
C162 N161 1.356 . S
C162 C163 1.434 . S
C163 C154 1.429 1_554 S
C163 N160 1.350 . S
C163 C162 1.434 . S
C164 C165 1.362 1_554 S
C164 C166 1.419 . S
C164 H168 0.930 . S
C165 C164 1.362 1_556 S
C165 C174 1.437 . S
C166 C164 1.419 . S
C166 C167 1.363 1_554 S
C166 H169 0.929 . S
C167 C166 1.363 1_556 S
C167 C173 1.428 . S
H168 C164 0.930 . S
H169 C166 0.929 . S
S170 N171 1.613 . S
S170 N172 1.610 . S
N171 S170 1.613 . S
N171 C174 1.350 . S
N172 S170 1.610 . S
N172 C173 1.351 . S
C173 C167 1.428 . S
C173 N172 1.351 . S
C173 C174 1.434 . S
C174 C165 1.437 . S
C174 N171 1.350 . S
C174 C173 1.434 . S
C175 C176 1.369 . S
C175 C177 1.419 . S
C175 H179 0.930 . S
C176 C175 1.369 . S
C176 C185 1.429 1_556 S
C177 C175 1.419 . S
C177 C178 1.363 1_556 S
C177 H180 0.929 . S
C178 C177 1.363 1_554 S
C178 C184 1.428 . S
H179 C175 0.930 . S
H180 C177 0.929 . S
S181 N182 1.613 . S
S181 N183 1.610 . S
N182 S181 1.613 . S
N182 C185 1.350 . S
N183 S181 1.610 . S
N183 C184 1.351 . S
C184 C178 1.428 . S
C184 N183 1.351 . S
C184 C185 1.434 . S
C185 C176 1.429 1_554 S
C185 N182 1.350 . S
C185 C184 1.434 . S
C186 C187 1.369 . S
C186 C188 1.419 . S
C186 H190 0.930 1_554 S
C187 C186 1.369 . S
C187 C196 1.429 . S
C188 C186 1.419 . S
C188 C189 1.363 . S
C188 H191 0.929 1_554 S
C189 C188 1.363 . S
C189 C195 1.428 . S
H190 C186 0.930 1_556 S
H191 C188 0.929 1_556 S
S192 N193 1.613 . S
S192 N194 1.610 . S
N193 S192 1.613 . S
N193 C196 1.350 . S
N194 S192 1.610 . S
N194 C195 1.351 . S
C195 C189 1.428 . S
C195 N194 1.351 . S
C195 C196 1.434 . S
C196 C187 1.429 . S
C196 N193 1.350 . S
C196 C195 1.434 . S
C197 C198 1.369 . S
C197 C199 1.419 . S
C197 H201 0.930 . S
C198 C197 1.369 . S
C198 C207 1.429 1_554 S
C199 C197 1.419 . S
C199 C200 1.363 1_554 S
C199 H202 0.929 . S
C200 C199 1.363 1_556 S
C200 C206 1.428 . S
H201 C197 0.930 . S
H202 C199 0.929 . S
S203 N204 1.613 . S
S203 N205 1.610 . S
N204 S203 1.613 . S
N204 C207 1.350 . S
N205 S203 1.610 . S
N205 C206 1.351 . S
C206 C200 1.428 . S
C206 N205 1.351 . S
C206 C207 1.434 . S
C207 C198 1.429 1_556 S
C207 N204 1.350 . S
C207 C206 1.434 . S
C208 C209 1.369 1_554 S
C208 C210 1.419 . S
C208 H212 0.930 . S
C209 C208 1.369 1_556 S
C209 C218 1.429 . S
C210 C208 1.419 . S
C210 C211 1.363 . S
C210 H213 0.929 . S
C211 C210 1.363 . S
C211 C217 1.428 1_554 S
H212 C208 0.930 . S
H213 C210 0.929 . S
S214 N215 1.613 . S
S214 N216 1.610 . S
N215 S214 1.613 . S
N215 C218 1.350 . S
N216 S214 1.610 . S
N216 C217 1.351 . S
C217 C211 1.428 1_556 S
C217 N216 1.351 . S
C217 C218 1.434 . S
C218 C209 1.429 . S
C218 N215 1.350 . S
C218 C217 1.434 . S
C121 C9 1.435 . S
C123 C18 1.438 . S
C132 C49 1.459 . S
C134 C58 1.457 . S
C143 C98 1.443 . S
C145 C89 1.434 . S
C154 C15 0.975 . S
C156 C86 0.989 . S
C165 C50 2.583 1_556 S
C167 C10 2.665 . S
C176 C55 2.194 . S
C178 C90 2.327 . S
C187 C6 0.986 . S
C189 C95 0.982 . S
C198 C19 2.666 . S
C200 C59 2.585 . S
C209 C99 2.327 . S
C211 C46 2.195 . S
