# Generated by pormake.
# Topology pcu, (6)-cn, num edge types: 1
# Building blocks:
#     Node 0, Type 0, BuildingBlock: GEDQOX_clean_sbu_0, # of connection points: 6
#     Edge 1, Type (0, 0), BuildingBlock: EZIPEK_clean_linker_0, # of connection points: 2
#     Edge 2, Type (0, 0), BuildingBlock: EZIPEK_clean_linker_0, # of connection points: 2
#     Edge 3, Type (0, 0), BuildingBlock: EZIPEK_clean_linker_0, # of connection points: 2
# Relax obj value: 0.000
# Max RMSD: 0.000
# Mean RMSD: 0.000
data_MOF--net-pcu--node1-GEDQOX_clean_sbu_0--edge1-EZIPEK_clean_linker_0
_symmetry_space_group_name_H-M    P1
_symmetry_Int_Tables_number       1
_symmetry_cell_setting            triclinic
loop_
_symmetry_equiv_pos_as_xyz
'x, y, z'
_cell_length_a     11.464557
_cell_length_b     21.003991
_cell_length_c     10.572058
_cell_angle_alpha  84.358937
_cell_angle_beta   95.497734
_cell_angle_gamma 122.60153
loop_
_atom_site_label
_atom_site_type_symbol
_atom_site_fract_x
_atom_site_fract_y
_atom_site_fract_z
_atom_type_partial_charge
Nd0 Nd 0.09372 0.10896 1.00874 0.0
Nd1 Nd 0.93904 0.93673 0.01735 0.0
C2 C 0.23247 0.25636 0.0396 0.0
C3 C 0.19237 0.31253 0.04067 0.0
C4 C 0.07473 0.29541 0.10285 0.0
C5 C 0.03381 0.34761 0.09713 0.0
C6 C 0.10864 0.41732 0.02789 0.0
C7 C 0.2265 0.4347 0.96641 0.0
C8 C 0.26816 0.38275 0.97299 0.0
C9 C 1.00454 0.04744 0.77449 0.0
C10 C 0.76298 1.01932 1.00872 0.0
C11 C 0.80089 0.78911 0.9882 0.0
C12 C 0.84126 0.73316 0.98578 0.0
C13 C 0.95825 0.7505 0.92224 0.0
C14 C 0.99963 0.69853 0.92694 0.0
C15 C 0.92591 0.62885 0.9965 0.0
C16 C 0.8086 0.61122 0.05922 0.0
C17 C 0.76649 0.66293 0.05366 0.0
C18 C 0.02874 0.99896 0.25122 0.0
C19 C 0.26936 0.02636 0.01794 0.0
O20 O 0.19491 0.20543 0.13464 0.0
O21 O 0.21568 0.22787 0.93001 0.0
O22 O 0.99977 0.10421 0.8054 0.0
O23 O 0.05819 0.02635 0.86503 0.0
O24 O 0.87878 0.08266 0.03783 0.0
O25 O 0.75999 0.95804 0.98275 0.0
O26 O 0.83597 0.8396 0.8927 0.0
O27 O 0.82016 0.81809 0.09779 0.0
O28 O 0.03316 0.94197 0.221 0.0
O29 O 0.97432 1.01937 0.16052 0.0
O30 O 0.154 0.96366 0.98566 0.0
O31 O 0.27196 0.08715 0.04601 0.0
H32 H 1.01336 0.24137 0.15456 0.0
H33 H 0.94262 0.33326 0.14514 0.0
H34 H 0.28557 0.48825 0.91271 0.0
H35 H 0.35856 0.39697 0.92371 0.0
H36 H 0.01881 0.80455 0.87032 0.0
H37 H 0.09039 0.71307 0.87798 0.0
H38 H 0.75038 0.55768 0.11316 0.0
H39 H 0.67659 0.64854 0.10396 0.0
C40 C 0.89979 0.9623 0.45044 0.0
C41 C 0.02331 1.01159 0.38521 0.0
C42 C 0.13333 0.08606 0.57416 0.0
C43 C 1.01064 0.03549 0.64019 0.0
N44 N 0.78393 0.92158 0.64977 0.0
N45 N 0.25505 0.12133 0.37779 0.0
C46 C 0.89567 0.97258 0.58056 0.0
C47 C 0.13964 0.0738 0.44528 0.0
N48 N 0.7847 0.90737 0.38623 0.0
N49 N 0.24447 0.14451 0.63643 0.0
H50 H 0.26298 0.11283 0.28436 0.0
H51 H 0.34279 0.1701 0.41111 0.0
H52 H 0.24395 0.15469 0.73083 0.0
H53 H 0.33982 0.18241 0.59798 0.0
H54 H 0.68671 0.87526 0.42277 0.0
H55 H 0.7839 0.89694 0.29165 0.0
H56 H 0.70339 0.86971 0.61788 0.0
H57 H 0.77541 0.92888 0.74376 0.0
C58 C 0.44798 0.02856 0.89762 0.0
C59 C 0.39952 0.02838 0.01633 0.0
C60 C 0.58903 1.02157 0.13003 0.0
C61 C 0.63285 1.01731 1.01155 0.0
N62 N 0.60122 1.01071 0.78341 0.0
N63 N 0.40942 1.01491 0.24543 0.0
C64 C 0.56099 1.01868 0.89549 0.0
C65 C 0.4665 1.02264 0.13268 0.0
N66 N 0.38862 0.04093 0.78715 0.0
N67 N 0.66546 0.02523 0.2399 0.0
H68 H 0.32119 1.0169 0.25109 0.0
H69 H 0.44331 1.00152 0.33289 0.0
H70 H 0.75044 1.01941 0.24334 0.0
H71 H 0.64963 0.0379 0.32695 0.0
H72 H 0.42719 0.04969 0.6977 0.0
H73 H 0.30528 0.04806 0.78545 0.0
H74 H 0.54439 1.00249 0.69712 0.0
H75 H 0.68862 1.00803 0.77735 0.0
C76 C 0.08597 0.58675 0.08954 0.0
C77 C 0.97249 0.57443 1.00481 0.0
C78 C 0.9495 0.45984 0.93377 0.0
C79 C 0.0627 0.47203 0.01883 0.0
N80 N 0.22986 0.54068 0.18738 0.0
N81 N 0.80487 0.50566 0.83666 0.0
C82 C 0.12927 0.53416 0.09875 0.0
C83 C 0.90589 0.51231 0.92486 0.0
N84 N 0.15372 0.64973 0.15941 0.0
N85 N 0.88236 0.3971 0.86332 0.0
H86 H 0.7698 0.54261 0.82821 0.0
H87 H 0.76001 0.46646 0.7667 0.0
H88 H 0.91604 0.35992 0.86193 0.0
H89 H 0.7899 0.3793 0.81007 0.0
H90 H 0.24664 0.66766 0.21196 0.0
H91 H 0.12038 0.68708 0.16063 0.0
H92 H 0.2741 0.5797 0.25763 0.0
H93 H 0.26489 0.50371 0.19605 0.0
loop_
_geom_bond_atom_site_label_1
_geom_bond_atom_site_label_2
_geom_bond_distance
_geom_bond_site_symmetry_2
_ccdc_geom_bond_type
Nd0 C2 2.836 . S
Nd0 O20 2.500 1_556 S
Nd0 O21 2.492 . S
Nd0 O22 2.487 . S
Nd0 O23 2.682 1_445 S
Nd0 O24 2.410 1_455 S
Nd0 O29 2.414 1_556 S
Nd0 O31 2.424 . S
Nd1 C11 2.836 . S
Nd1 O23 2.414 1_554 S
Nd1 O25 2.424 . S
Nd1 O26 2.500 1_554 S
Nd1 O27 2.492 . S
Nd1 O28 2.487 . S
Nd1 O29 2.682 1_665 S
Nd1 O30 2.410 1_655 S
C2 Nd0 2.836 . S
C2 C3 1.498 . S
C2 O20 1.258 1_556 S
C2 O21 1.239 . S
C3 C2 1.498 . S
C3 C4 1.366 1_456 S
C3 C8 1.407 . S
C4 C3 1.366 1_654 S
C4 C5 1.392 . S
C4 H32 0.930 . S
C5 C4 1.392 . S
C5 C6 1.398 1_654 S
C5 H33 0.929 . S
C6 C5 1.398 1_456 S
C6 C7 1.352 . S
C7 C6 1.352 . S
C7 C8 1.384 . S
C7 H34 0.930 . S
C8 C3 1.407 . S
C8 C7 1.384 . S
C8 H35 0.929 . S
C9 O22 1.241 . S
C9 O23 1.273 1_445 S
C10 O24 1.251 1_565 S
C10 O25 1.268 1_556 S
C11 Nd1 2.836 . S
C11 C12 1.498 . S
C11 O26 1.258 1_554 S
C11 O27 1.239 . S
C12 C11 1.498 . S
C12 C13 1.366 1_654 S
C12 C17 1.407 . S
C13 C12 1.366 1_456 S
C13 C14 1.392 . S
C13 H36 0.930 . S
C14 C13 1.392 . S
C14 C15 1.398 1_456 S
C14 H37 0.929 . S
C15 C14 1.398 1_654 S
C15 C16 1.352 . S
C16 C15 1.352 . S
C16 C17 1.384 . S
C16 H38 0.930 . S
C17 C12 1.407 . S
C17 C16 1.384 . S
C17 H39 0.929 . S
C18 O28 1.241 . S
C18 O29 1.273 1_665 S
C19 O30 1.251 1_545 S
C19 O31 1.268 1_554 S
O20 Nd0 2.500 1_554 S
O20 C2 1.258 1_554 S
O21 Nd0 2.492 . S
O21 C2 1.239 . S
O22 Nd0 2.487 . S
O22 C9 1.241 . S
O23 Nd0 2.682 1_665 S
O23 Nd1 2.414 1_556 S
O23 C9 1.273 1_665 S
O24 Nd0 2.410 1_655 S
O24 C10 1.251 1_545 S
O25 Nd1 2.424 . S
O25 C10 1.268 1_554 S
O26 Nd1 2.500 1_556 S
O26 C11 1.258 1_556 S
O27 Nd1 2.492 . S
O27 C11 1.239 . S
O28 Nd1 2.487 . S
O28 C18 1.241 . S
O29 Nd0 2.414 1_554 S
O29 Nd1 2.682 1_445 S
O29 C18 1.273 1_445 S
O30 Nd1 2.410 1_455 S
O30 C19 1.251 1_565 S
O31 Nd0 2.424 . S
O31 C19 1.268 1_556 S
H32 C4 0.930 . S
H33 C5 0.929 . S
H34 C7 0.930 . S
H35 C8 0.929 . S
H36 C13 0.930 . S
H37 C14 0.929 . S
H38 C16 0.930 . S
H39 C17 0.929 . S
C40 C41 1.363 1_665 S
C40 C46 1.379 . S
C40 N48 1.356 . S
C41 C40 1.363 1_445 S
C41 C47 1.363 . S
C42 C43 1.363 . S
C42 C47 1.379 . S
C42 N49 1.356 . S
C43 C42 1.363 . S
C43 C46 1.363 1_445 S
N44 C46 1.356 . S
N44 H56 0.984 . S
N44 H57 0.985 . S
N45 C47 1.356 . S
N45 H50 0.984 . S
N45 H51 0.985 . S
C46 C40 1.379 . S
C46 C43 1.363 1_665 S
C46 N44 1.356 . S
C47 C41 1.363 . S
C47 C42 1.379 . S
C47 N45 1.356 . S
N48 C40 1.356 . S
N48 H54 0.984 . S
N48 H55 0.984 . S
N49 C42 1.356 . S
N49 H52 0.984 . S
N49 H53 0.985 . S
H50 N45 0.984 . S
H51 N45 0.985 . S
H52 N49 0.984 . S
H53 N49 0.985 . S
H54 N48 0.984 . S
H55 N48 0.984 . S
H56 N44 0.984 . S
H57 N44 0.985 . S
C58 C59 1.363 1_566 S
C58 C64 1.379 . S
C58 N66 1.356 . S
C59 C58 1.363 1_544 S
C59 C65 1.363 . S
C60 C61 1.363 . S
C60 C65 1.379 . S
C60 N67 1.356 . S
C61 C60 1.363 . S
C61 C64 1.363 1_544 S
N62 C64 1.356 . S
N62 H74 0.984 . S
N62 H75 0.985 . S
N63 C65 1.356 . S
N63 H68 0.984 . S
N63 H69 0.985 . S
C64 C58 1.379 . S
C64 C61 1.363 1_566 S
C64 N62 1.356 . S
C65 C59 1.363 . S
C65 C60 1.379 . S
C65 N63 1.356 . S
N66 C58 1.356 . S
N66 H72 0.984 . S
N66 H73 0.984 . S
N67 C60 1.356 . S
N67 H70 0.984 . S
N67 H71 0.985 . S
H68 N63 0.984 . S
H69 N63 0.985 . S
H70 N67 0.984 . S
H71 N67 0.985 . S
H72 N66 0.984 . S
H73 N66 0.984 . S
H74 N62 0.984 . S
H75 N62 0.985 . S
C76 C77 1.363 . S
C76 C82 1.379 . S
C76 N84 1.356 . S
C77 C76 1.363 . S
C77 C83 1.363 1_454 S
C78 C79 1.363 1_656 S
C78 C83 1.379 . S
C78 N85 1.356 . S
C79 C78 1.363 1_454 S
C79 C82 1.363 . S
N80 C82 1.356 . S
N80 H92 0.984 . S
N80 H93 0.985 . S
N81 C83 1.356 . S
N81 H86 0.984 . S
N81 H87 0.985 . S
C82 C76 1.379 . S
C82 C79 1.363 . S
C82 N80 1.356 . S
C83 C77 1.363 1_656 S
C83 C78 1.379 . S
C83 N81 1.356 . S
N84 C76 1.356 . S
N84 H90 0.984 . S
N84 H91 0.984 . S
N85 C78 1.356 . S
N85 H88 0.984 . S
N85 H89 0.985 . S
H86 N81 0.984 . S
H87 N81 0.985 . S
H88 N85 0.984 . S
H89 N85 0.985 . S
H90 N84 0.984 . S
H91 N84 0.984 . S
H92 N80 0.984 . S
H93 N80 0.985 . S
C41 C18 1.452 1_445 S
C43 C9 1.452 . S
C59 C19 1.492 . S
C61 C10 1.492 1_544 S
C77 C15 1.498 1_455 S
C79 C6 1.498 1_554 S
