# Generated by pormake.
# Topology noz, (5)-cn, num edge types: 1
# Building blocks:
#     Node 0, Type 0, BuildingBlock: XOMCOT_clean_sbu_1, # of connection points: 5
#     Node 1, Type 0, BuildingBlock: XOMCOT_clean_sbu_1, # of connection points: 5
#     Node 2, Type 0, BuildingBlock: XOMCOT_clean_sbu_1, # of connection points: 5
#     Node 3, Type 0, BuildingBlock: XOMCOT_clean_sbu_1, # of connection points: 5
#     Node 4, Type 0, BuildingBlock: XOMCOT_clean_sbu_1, # of connection points: 5
#     Node 5, Type 0, BuildingBlock: XOMCOT_clean_sbu_1, # of connection points: 5
#     Node 6, Type 0, BuildingBlock: XOMCOT_clean_sbu_1, # of connection points: 5
#     Node 7, Type 0, BuildingBlock: XOMCOT_clean_sbu_1, # of connection points: 5
#     Edge 8, Type (0, 0), None
#     Edge 9, Type (0, 0), None
#     Edge 10, Type (0, 0), None
#     Edge 11, Type (0, 0), None
#     Edge 12, Type (0, 0), None
#     Edge 13, Type (0, 0), None
#     Edge 14, Type (0, 0), None
#     Edge 15, Type (0, 0), None
#     Edge 16, Type (0, 0), None
#     Edge 17, Type (0, 0), None
#     Edge 18, Type (0, 0), None
#     Edge 19, Type (0, 0), None
#     Edge 20, Type (0, 0), None
#     Edge 21, Type (0, 0), None
#     Edge 22, Type (0, 0), None
#     Edge 23, Type (0, 0), None
#     Edge 24, Type (0, 0), None
#     Edge 25, Type (0, 0), None
#     Edge 26, Type (0, 0), None
#     Edge 27, Type (0, 0), None
# Relax obj value: 0.077
# Max RMSD: 0.157
# Mean RMSD: 0.157
data_MOF--net-noz--node1-XOMCOT_clean_sbu_1--edge1-none
_symmetry_space_group_name_H-M    P1
_symmetry_Int_Tables_number       1
_symmetry_cell_setting            triclinic
loop_
_symmetry_equiv_pos_as_xyz
'x, y, z'
_cell_length_a     10.744931
_cell_length_b     27.483111
_cell_length_c     19.729543
_cell_angle_alpha  89.999743
_cell_angle_beta   90.0
_cell_angle_gamma 89.992337
loop_
_atom_site_label
_atom_site_type_symbol
_atom_site_fract_x
_atom_site_fract_y
_atom_site_fract_z
_atom_type_partial_charge
C0 C 0.24291 0.36866 0.25121 0.0
C1 C 0.1347 0.37767 0.21548 0.0
N2 N 1.04016 0.35864 0.2512 0.0
N3 N 0.21557 0.34295 0.30763 0.0
C4 C 1.09028 0.33788 0.30644 0.0
H5 H 0.3358 0.37983 0.23688 0.0
Co6 Co 0.32883 0.32075 0.37217 0.0
C7 C 0.15872 0.27453 0.47323 0.0
O8 O 0.19794 0.30269 0.52257 0.0
N9 N 0.44274 0.29735 0.44012 0.0
C10 C 0.54564 0.28677 0.53787 0.0
C11 C 0.46523 0.31624 0.50258 0.0
C12 C 0.51082 0.25575 0.43985 0.0
N13 N 0.57569 0.24924 0.49767 0.0
O14 O 0.37215 0.26899 0.31036 0.0
H15 H 0.42367 0.34879 0.52319 0.0
H16 H 0.51057 0.2295 0.39911 0.0
O17 O 0.20174 0.27966 0.41323 0.0
C18 C 0.47662 0.27135 0.2794 0.0
O19 O 0.56896 0.29436 0.3088 0.0
N20 N 0.2932 0.37588 0.42306 0.0
C21 C 0.27942 0.46955 0.47609 0.0
C22 C 0.17538 0.43857 0.47832 0.0
C23 C 0.18329 0.39194 0.4498 0.0
C24 C 0.39137 0.40673 0.41635 0.0
C25 C 0.3871 0.45337 0.44295 0.0
H26 H 0.101 0.36943 0.44819 0.0
H27 H 0.47398 0.3947 0.38981 0.0
H28 H 1.0363 0.31911 0.34458 0.0
H29 H 0.12573 0.3969 0.16786 0.0
H30 H 0.58087 0.29294 0.58858 0.0
H31 H 1.08923 0.45011 0.50181 0.0
H32 H 0.46759 0.47671 0.437 0.0
C33 C 0.7109 0.61918 0.75121 0.0
C34 C 0.81912 0.61018 0.71548 0.0
N35 N 0.91366 0.62921 0.7512 0.0
N36 N 0.73824 0.6449 0.80763 0.0
C37 C 0.86353 0.64997 0.80644 0.0
H38 H 0.61802 0.60801 0.73688 0.0
Co39 Co 0.62498 0.66709 0.87217 0.0
C40 C 0.79509 0.71331 0.97323 0.0
O41 O 0.75587 0.68515 0.02257 0.0
N42 N 0.51107 0.69049 0.94012 0.0
C43 C 0.40818 0.70107 0.03787 0.0
C44 C 0.48859 0.6716 0.00258 0.0
C45 C 0.443 0.73209 0.93985 0.0
N46 N 0.37812 0.7386 -0.00233 0.0
O47 O 0.58167 0.71885 0.81036 0.0
H48 H 0.53014 0.63905 0.02319 0.0
H49 H 0.44325 0.75835 0.89911 0.0
O50 O 0.75207 0.70818 0.91323 0.0
C51 C 0.47719 0.7165 0.7794 0.0
O52 O 0.38485 0.69348 0.8088 0.0
N53 N 0.66062 0.61197 0.92306 0.0
C54 C 0.6744 0.51829 0.97609 0.0
C55 C 0.77844 0.54927 0.97832 0.0
C56 C 0.77052 0.5959 0.9498 0.0
C57 C 0.56244 0.58111 0.91635 0.0
C58 C 0.56672 0.53447 0.94295 0.0
H59 H 0.85281 0.61841 0.94818 0.0
H60 H 0.47983 0.59314 0.88981 0.0
H61 H 0.91751 0.66874 0.84458 0.0
H62 H 0.82808 0.59094 0.66786 0.0
H63 H 0.37294 0.6949 0.08858 0.0
H64 H 0.86458 0.53773 0.00181 0.0
H65 H 0.48623 0.51114 0.937 0.0
C66 C 0.24292 0.61906 0.7331 0.0
C67 C 0.13471 0.61005 0.76882 0.0
N68 N 1.0402 0.62921 0.7332 0.0
N69 N 0.21562 0.64491 0.67678 0.0
C70 C 1.09034 0.65004 0.67801 0.0
H71 H 0.33577 0.60778 0.74735 0.0
Co72 Co 0.3289 0.6671 0.61226 0.0
C73 C 0.15909 0.71343 0.51117 0.0
O74 O 0.19872 0.68538 0.46179 0.0
N75 N 0.44282 0.69049 0.54432 0.0
C76 C 0.54608 0.70098 0.44668 0.0
C77 C 0.46581 0.67148 0.48199 0.0
C78 C 0.51041 0.7322 0.54449 0.0
N79 N 0.57553 0.73866 0.48674 0.0
O80 O 0.37225 0.71885 0.6741 0.0
H81 H 0.4247 0.63882 0.46146 0.0
H82 H 0.50967 0.75855 0.58511 0.0
O83 O 0.20182 0.70821 0.57122 0.0
C84 C 0.47685 0.71664 0.70497 0.0
O85 O 0.56952 0.69388 0.67547 0.0
N86 N 0.29323 0.612 0.56136 0.0
C87 C 0.27941 0.51833 0.50832 0.0
C88 C 0.17549 0.54938 0.50592 0.0
C89 C 0.18341 0.59601 0.53445 0.0
C90 C 0.39124 0.58108 0.56825 0.0
C91 C 0.38695 0.53444 0.54165 0.0
H92 H 0.10119 0.61857 0.53593 0.0
H93 H 0.47375 0.59306 0.59492 0.0
H94 H 1.03638 0.66888 0.63993 0.0
H95 H 0.12571 0.59072 0.81635 0.0
H96 H 0.58165 0.69474 0.39605 0.0
H97 H 1.08943 0.53789 0.48229 0.0
H98 H 0.46732 0.51105 0.54774 0.0
C99 C 0.7109 0.36878 0.2331 0.0
C100 C 0.8191 0.37779 0.26882 0.0
N101 N 0.91361 0.35863 0.2332 0.0
N102 N 0.73819 0.34294 0.17678 0.0
C103 C 0.86347 0.33781 0.17801 0.0
H104 H 0.61804 0.38006 0.24734 0.0
Co105 Co 0.62492 0.32074 0.11226 0.0
C106 C 0.79472 0.27441 0.01117 0.0
O107 O 0.75509 0.30246 0.96179 0.0
N108 N 0.511 0.29735 0.04432 0.0
C109 C 0.40774 0.28686 0.94668 0.0
C110 C 0.488 0.31637 0.98199 0.0
C111 C 0.4434 0.25565 0.04449 0.0
N112 N 0.37829 0.24918 0.98674 0.0
O113 O 0.58156 0.26899 0.1741 0.0
H114 H 0.52912 0.34903 0.96146 0.0
H115 H 0.44415 0.22929 0.08511 0.0
O116 O 0.752 0.27963 0.07122 0.0
C117 C 0.47697 0.2712 0.20497 0.0
O118 O 0.3843 0.29396 0.17547 0.0
N119 N 0.66059 0.37584 0.06136 0.0
C120 C 0.67441 0.46951 0.00832 0.0
C121 C 0.77833 0.43847 0.00592 0.0
C122 C 0.7704 0.39183 0.03445 0.0
C123 C 0.56257 0.40677 0.06825 0.0
C124 C 0.56687 0.4534 0.04165 0.0
H125 H 0.85262 0.36927 0.03593 0.0
H126 H 0.48006 0.39478 0.09492 0.0
H127 H 0.91743 0.31896 0.13993 0.0
H128 H 0.8281 0.39713 0.31635 0.0
H129 H 0.37216 0.29311 0.89605 0.0
H130 H 0.86438 0.44995 0.98229 0.0
H131 H 0.48649 0.47679 0.04774 0.0
C132 C 0.74291 0.86867 0.25122 0.0
C133 C 0.63469 0.87768 0.21549 0.0
N134 N 0.54016 0.85864 0.2512 0.0
N135 N 0.71557 0.84294 0.30764 0.0
C136 C 0.59028 0.83787 0.30644 0.0
H137 H 0.83579 0.87985 0.23689 0.0
Co138 Co 0.82883 0.82075 0.37217 0.0
C139 C 0.6587 0.77453 0.47323 0.0
O140 O 0.6979 0.80269 0.52257 0.0
N141 N 0.94274 0.79735 0.44013 0.0
C142 C 1.04563 0.78677 0.53787 0.0
C143 C 0.96519 0.81623 0.50259 0.0
C144 C 1.01086 0.75576 0.43984 0.0
N145 N 1.07575 0.74925 0.49766 0.0
O146 O 0.87215 0.76899 0.31036 0.0
H147 H 0.9236 0.84877 0.52321 0.0
H148 H 1.01063 0.72951 0.3991 0.0
O149 O 0.70174 0.77966 0.41323 0.0
C150 C 0.97662 0.77136 0.2794 0.0
O151 O 1.06895 0.79438 0.3088 0.0
N152 N 0.7932 0.87587 0.42306 0.0
C153 C 0.77943 0.96955 0.4761 0.0
C154 C 0.67538 0.93858 0.47831 0.0
C155 C 0.68329 0.89194 0.44979 0.0
C156 C 0.89139 0.90673 0.41636 0.0
C157 C 0.88711 0.95336 0.44296 0.0
H158 H 0.601 0.86944 0.44817 0.0
H159 H 0.974 0.89469 0.38983 0.0
H160 H 0.53631 0.81909 0.34458 0.0
H161 H 0.62572 0.89691 0.16787 0.0
H162 H 1.08083 0.79293 0.5886 0.0
H163 H 0.58923 0.95012 0.5018 0.0
H164 H 0.96761 0.9767 0.43702 0.0
C165 C 0.21091 0.11917 0.75122 0.0
C166 C 0.31912 0.11017 0.71549 0.0
N167 N 0.41366 0.12921 0.7512 0.0
N168 N 0.23824 0.1449 0.80764 0.0
C169 C 0.36353 0.14997 0.80644 0.0
H170 H 0.11802 0.10799 0.7369 0.0
Co171 Co 0.12498 0.1671 0.87218 0.0
C172 C 0.29512 0.21331 0.97323 0.0
O173 O 0.25592 0.18515 0.02257 0.0
N174 N 1.01107 0.1905 0.94013 0.0
C175 C 0.90819 0.20108 0.03787 0.0
C176 C 0.98862 0.17161 0.00259 0.0
C177 C 0.94296 0.23209 0.93984 0.0
N178 N 0.87807 0.23859 -0.00233 0.0
O179 O 1.08166 0.21885 0.81036 0.0
H180 H 1.03021 0.13907 0.02321 0.0
H181 H 0.94318 0.25834 0.8991 0.0
O182 O 0.25207 0.20818 0.91323 0.0
C183 C 0.97719 0.21649 0.7794 0.0
O184 O 0.88486 0.19347 0.8088 0.0
N185 N 0.16061 0.11197 0.92306 0.0
C186 C 0.17439 0.01829 0.9761 0.0
C187 C 0.27843 0.04927 0.97831 0.0
C188 C 0.27052 0.0959 0.94979 0.0
C189 C 1.06243 0.08112 0.91636 0.0
C190 C 1.0667 0.03448 0.94296 0.0
H191 H 0.35281 0.11841 0.94817 0.0
H192 H 0.97981 0.09315 0.88983 0.0
H193 H 0.41751 0.16875 0.84457 0.0
H194 H 0.32809 0.09093 0.66788 0.0
H195 H 0.87298 0.19491 0.0886 0.0
H196 H 0.36458 0.03773 0.0018 0.0
H197 H 0.98621 0.01114 0.93702 0.0
C198 C 0.74291 0.11905 0.73309 0.0
C199 C 0.63471 0.11004 0.76881 0.0
N200 N 0.5402 0.12922 0.7332 0.0
N201 N 0.71562 0.14491 0.67678 0.0
C202 C 0.59034 0.15004 0.67801 0.0
H203 H 0.83577 0.10777 0.74733 0.0
Co204 Co 0.8289 0.1671 0.61226 0.0
C205 C 0.65907 0.21343 0.51117 0.0
O206 O 0.69868 0.18538 0.46179 0.0
N207 N 0.94282 0.19049 0.54432 0.0
C208 C 1.04607 0.20099 0.44668 0.0
C209 C 0.96578 0.17149 0.48198 0.0
C210 C 1.01046 0.23219 0.5445 0.0
N211 N 1.07558 0.23865 0.48675 0.0
O212 O 0.87225 0.21885 0.6741 0.0
H213 H 0.92462 0.13884 0.46144 0.0
H214 H 1.00973 0.25854 0.58512 0.0
O215 O 0.70181 0.20821 0.57122 0.0
C216 C 0.97685 0.21663 0.70497 0.0
O217 O 1.0695 0.19386 0.67547 0.0
N218 N 0.79323 0.112 0.56136 0.0
C219 C 0.77942 0.01833 0.50832 0.0
C220 C 0.67549 0.04937 0.50592 0.0
C221 C 0.68341 0.09601 0.53445 0.0
C222 C 0.89126 0.08108 0.56824 0.0
C223 C 0.88696 0.03444 0.54164 0.0
H224 H 0.60119 0.11857 0.53594 0.0
H225 H 0.97377 0.09307 0.5949 0.0
H226 H 0.53639 0.1689 0.63993 0.0
H227 H 0.62571 0.0907 0.81634 0.0
H228 H 1.08161 0.19475 0.39604 0.0
H229 H 0.58943 0.03789 0.4823 0.0
H230 H 0.96734 0.01106 0.54773 0.0
C231 C 0.2109 0.86879 0.23309 0.0
C232 C 0.31911 0.8778 0.26881 0.0
N233 N 0.41361 0.85863 0.2332 0.0
N234 N 0.23819 0.84294 0.17678 0.0
C235 C 0.36347 0.8378 0.17801 0.0
H236 H 0.11805 0.88007 0.24733 0.0
Co237 Co 0.12492 0.82074 0.11226 0.0
C238 C 0.29475 0.77442 0.01117 0.0
O239 O 0.25514 0.80246 0.96179 0.0
N240 N 1.011 0.79735 0.04432 0.0
C241 C 0.90775 0.78685 0.94667 0.0
C242 C 0.98804 0.81636 0.98198 0.0
C243 C 0.94336 0.75565 0.0445 0.0
N244 N 0.87823 0.7492 0.98675 0.0
O245 O 1.08156 0.76899 0.1741 0.0
H246 H 1.02919 0.849 0.96144 0.0
H247 H 0.94408 0.7293 0.08512 0.0
O248 O 0.252 0.77963 0.07122 0.0
C249 C 0.97697 0.77121 0.20497 0.0
O250 O 0.88431 0.79398 0.17547 0.0
N251 N 0.16059 0.87584 0.06136 0.0
C252 C 0.1744 0.96951 0.00832 0.0
C253 C 0.27832 0.93847 0.00592 0.0
C254 C 0.2704 0.89184 0.03445 0.0
C255 C 1.06256 0.90676 0.06824 0.0
C256 C 1.06685 0.9534 0.04164 0.0
H257 H 0.35263 0.86928 0.03594 0.0
H258 H 0.98005 0.89477 0.0949 0.0
H259 H 0.41743 0.81895 0.13994 0.0
H260 H 0.32811 0.89714 0.31634 0.0
H261 H 0.8722 0.79309 0.89604 0.0
H262 H 0.36438 0.94996 0.9823 0.0
H263 H 0.98647 0.97678 0.04773 0.0
loop_
_geom_bond_atom_site_label_1
_geom_bond_atom_site_label_2
_geom_bond_distance
_geom_bond_site_symmetry_2
_ccdc_geom_bond_type
C0 C1 1.351 . S
C0 N3 1.368 . S
C0 H5 0.931 . S
C1 C0 1.351 . S
C1 N2 1.373 1_455 S
C1 H29 0.930 . S
N2 C1 1.373 1_655 S
N2 C4 1.340 . S
N3 C0 1.368 . S
N3 C4 1.321 1_455 S
N3 Co6 2.135 . S
C4 N2 1.340 . S
C4 N3 1.321 1_655 S
C4 H28 0.930 . S
H5 C0 0.931 . S
Co6 N3 2.135 . S
Co6 N9 2.121 . S
Co6 O14 2.055 . S
Co6 O17 2.039 . S
Co6 N20 2.140 . S
C7 O8 1.227 . S
C7 O17 1.265 . S
O8 C7 1.227 . S
N9 Co6 2.121 . S
N9 C11 1.375 . S
N9 C12 1.313 . S
C10 C11 1.338 . S
C10 N13 1.377 . S
C10 H30 0.930 . S
C11 N9 1.375 . S
C11 C10 1.338 . S
C11 H15 0.931 . S
C12 N9 1.313 . S
C12 N13 1.344 . S
C12 H16 0.930 . S
N13 C10 1.377 . S
N13 C12 1.344 . S
O14 Co6 2.055 . S
O14 C18 1.253 . S
H15 C11 0.931 . S
H16 C12 0.930 . S
O17 Co6 2.039 . S
O17 C7 1.265 . S
C18 O14 1.253 . S
C18 O19 1.227 . S
O19 C18 1.227 . S
N20 Co6 2.140 . S
N20 C23 1.346 . S
N20 C24 1.345 . S
C21 C22 1.387 . S
C21 C25 1.391 . S
C22 C21 1.387 . S
C22 C23 1.369 . S
C22 H31 0.929 . S
C23 N20 1.346 . S
C23 C22 1.369 . S
C23 H26 0.928 . S
C24 N20 1.345 . S
C24 C25 1.371 . S
C24 H27 0.931 . S
C25 C21 1.391 . S
C25 C24 1.371 . S
C25 H32 0.930 . S
H26 C23 0.928 . S
H27 C24 0.931 . S
H28 C4 0.930 . S
H29 C1 0.930 . S
H30 C10 0.930 . S
H31 C22 0.929 . S
H32 C25 0.930 . S
C33 C34 1.351 . S
C33 N36 1.368 . S
C33 H38 0.931 . S
C34 C33 1.351 . S
C34 N35 1.373 . S
C34 H62 0.930 . S
N35 C34 1.373 . S
N35 C37 1.340 . S
N36 C33 1.368 . S
N36 C37 1.321 . S
N36 Co39 2.135 . S
C37 N35 1.340 . S
C37 N36 1.321 . S
C37 H61 0.930 . S
H38 C33 0.931 . S
Co39 N36 2.135 . S
Co39 N42 2.121 . S
Co39 O47 2.055 . S
Co39 O50 2.039 . S
Co39 N53 2.140 . S
C40 O41 1.227 . S
C40 O50 1.265 . S
O41 C40 1.227 . S
N42 Co39 2.121 . S
N42 C44 1.375 1_556 S
N42 C45 1.313 . S
C43 C44 1.338 . S
C43 N46 1.377 . S
C43 H63 0.930 . S
C44 N42 1.375 1_554 S
C44 C43 1.338 . S
C44 H48 0.931 . S
C45 N42 1.313 . S
C45 N46 1.344 1_556 S
C45 H49 0.930 . S
N46 C43 1.377 . S
N46 C45 1.344 1_554 S
O47 Co39 2.055 . S
O47 C51 1.253 . S
H48 C44 0.931 . S
H49 C45 0.930 . S
O50 Co39 2.039 . S
O50 C40 1.265 . S
C51 O47 1.253 . S
C51 O52 1.227 . S
O52 C51 1.227 . S
N53 Co39 2.140 . S
N53 C56 1.346 . S
N53 C57 1.345 . S
C54 C55 1.387 . S
C54 C58 1.391 . S
C55 C54 1.387 . S
C55 C56 1.369 . S
C55 H64 0.929 . S
C56 N53 1.346 . S
C56 C55 1.369 . S
C56 H59 0.928 . S
C57 N53 1.345 . S
C57 C58 1.371 . S
C57 H60 0.931 . S
C58 C54 1.391 . S
C58 C57 1.371 . S
C58 H65 0.930 . S
H59 C56 0.928 . S
H60 C57 0.931 . S
H61 C37 0.930 . S
H62 C34 0.930 . S
H63 C43 0.930 . S
H64 C55 0.929 . S
H65 C58 0.930 . S
C66 C67 1.351 . S
C66 N69 1.368 . S
C66 H71 0.931 . S
C67 C66 1.351 . S
C67 N68 1.373 1_455 S
C67 H95 0.930 . S
N68 C67 1.373 1_655 S
N68 C70 1.340 . S
N69 C66 1.368 . S
N69 C70 1.321 1_455 S
N69 Co72 2.135 . S
C70 N68 1.340 . S
C70 N69 1.321 1_655 S
C70 H94 0.930 . S
H71 C66 0.931 . S
Co72 N69 2.135 . S
Co72 N75 2.121 . S
Co72 O80 2.055 . S
Co72 O83 2.039 . S
Co72 N86 2.140 . S
C73 O74 1.227 . S
C73 O83 1.265 . S
O74 C73 1.227 . S
N75 Co72 2.121 . S
N75 C77 1.375 . S
N75 C78 1.313 . S
C76 C77 1.338 . S
C76 N79 1.377 . S
C76 H96 0.930 . S
C77 N75 1.375 . S
C77 C76 1.338 . S
C77 H81 0.931 . S
C78 N75 1.313 . S
C78 N79 1.344 . S
C78 H82 0.930 . S
N79 C76 1.377 . S
N79 C78 1.344 . S
O80 Co72 2.055 . S
O80 C84 1.253 . S
H81 C77 0.931 . S
H82 C78 0.930 . S
O83 Co72 2.039 . S
O83 C73 1.265 . S
C84 O80 1.253 . S
C84 O85 1.227 . S
O85 C84 1.227 . S
N86 Co72 2.140 . S
N86 C89 1.346 . S
N86 C90 1.345 . S
C87 C88 1.387 . S
C87 C91 1.391 . S
C88 C87 1.387 . S
C88 C89 1.369 . S
C88 H97 0.929 . S
C89 N86 1.346 . S
C89 C88 1.369 . S
C89 H92 0.928 . S
C90 N86 1.345 . S
C90 C91 1.371 . S
C90 H93 0.931 . S
C91 C87 1.391 . S
C91 C90 1.371 . S
C91 H98 0.930 . S
H92 C89 0.928 . S
H93 C90 0.931 . S
H94 C70 0.930 . S
H95 C67 0.930 . S
H96 C76 0.930 . S
H97 C88 0.929 . S
H98 C91 0.930 . S
C99 C100 1.351 . S
C99 N102 1.368 . S
C99 H104 0.931 . S
C100 C99 1.351 . S
C100 N101 1.373 . S
C100 H128 0.930 . S
N101 C100 1.373 . S
N101 C103 1.340 . S
N102 C99 1.368 . S
N102 C103 1.321 . S
N102 Co105 2.135 . S
C103 N101 1.340 . S
C103 N102 1.321 . S
C103 H127 0.930 . S
H104 C99 0.931 . S
Co105 N102 2.135 . S
Co105 N108 2.121 . S
Co105 O113 2.055 . S
Co105 O116 2.039 . S
Co105 N119 2.140 . S
C106 O107 1.227 . S
C106 O116 1.265 . S
O107 C106 1.227 . S
N108 Co105 2.121 . S
N108 C110 1.375 1_554 S
N108 C111 1.313 . S
C109 C110 1.338 . S
C109 N112 1.377 . S
C109 H129 0.930 . S
C110 N108 1.375 1_556 S
C110 C109 1.338 . S
C110 H114 0.931 . S
C111 N108 1.313 . S
C111 N112 1.344 1_554 S
C111 H115 0.930 . S
N112 C109 1.377 . S
N112 C111 1.344 1_556 S
O113 Co105 2.055 . S
O113 C117 1.253 . S
H114 C110 0.931 . S
H115 C111 0.930 . S
O116 Co105 2.039 . S
O116 C106 1.265 . S
C117 O113 1.253 . S
C117 O118 1.227 . S
O118 C117 1.227 . S
N119 Co105 2.140 . S
N119 C122 1.346 . S
N119 C123 1.345 . S
C120 C121 1.387 . S
C120 C124 1.391 . S
C121 C120 1.387 . S
C121 C122 1.369 . S
C121 H130 0.929 . S
C122 N119 1.346 . S
C122 C121 1.369 . S
C122 H125 0.928 . S
C123 N119 1.345 . S
C123 C124 1.371 . S
C123 H126 0.931 . S
C124 C120 1.391 . S
C124 C123 1.371 . S
C124 H131 0.930 . S
H125 C122 0.928 . S
H126 C123 0.931 . S
H127 C103 0.930 . S
H128 C100 0.930 . S
H129 C109 0.930 . S
H130 C121 0.929 . S
H131 C124 0.930 . S
C132 C133 1.351 . S
C132 N135 1.368 . S
C132 H137 0.931 . S
C133 C132 1.351 . S
C133 N134 1.373 . S
C133 H161 0.930 . S
N134 C133 1.373 . S
N134 C136 1.340 . S
N135 C132 1.368 . S
N135 C136 1.321 . S
N135 Co138 2.135 . S
C136 N134 1.340 . S
C136 N135 1.321 . S
C136 H160 0.930 . S
H137 C132 0.931 . S
Co138 N135 2.135 . S
Co138 N141 2.121 . S
Co138 O146 2.055 . S
Co138 O149 2.039 . S
Co138 N152 2.140 . S
C139 O140 1.227 . S
C139 O149 1.265 . S
O140 C139 1.227 . S
N141 Co138 2.121 . S
N141 C143 1.375 . S
N141 C144 1.313 . S
C142 C143 1.338 . S
C142 N145 1.377 . S
C142 H162 0.930 . S
C143 N141 1.375 . S
C143 C142 1.338 . S
C143 H147 0.931 . S
C144 N141 1.313 . S
C144 N145 1.344 . S
C144 H148 0.930 . S
N145 C142 1.377 . S
N145 C144 1.344 . S
O146 Co138 2.055 . S
O146 C150 1.253 . S
H147 C143 0.931 . S
H148 C144 0.930 . S
O149 Co138 2.039 . S
O149 C139 1.265 . S
C150 O146 1.253 . S
C150 O151 1.227 . S
O151 C150 1.227 . S
N152 Co138 2.140 . S
N152 C155 1.346 . S
N152 C156 1.345 . S
C153 C154 1.387 . S
C153 C157 1.391 . S
C154 C153 1.387 . S
C154 C155 1.369 . S
C154 H163 0.929 . S
C155 N152 1.346 . S
C155 C154 1.369 . S
C155 H158 0.928 . S
C156 N152 1.345 . S
C156 C157 1.371 . S
C156 H159 0.931 . S
C157 C153 1.391 . S
C157 C156 1.371 . S
C157 H164 0.930 . S
H158 C155 0.928 . S
H159 C156 0.931 . S
H160 C136 0.930 . S
H161 C133 0.930 . S
H162 C142 0.930 . S
H163 C154 0.929 . S
H164 C157 0.930 . S
C165 C166 1.351 . S
C165 N168 1.368 . S
C165 H170 0.931 . S
C166 C165 1.351 . S
C166 N167 1.373 . S
C166 H194 0.930 . S
N167 C166 1.373 . S
N167 C169 1.340 . S
N168 C165 1.368 . S
N168 C169 1.321 . S
N168 Co171 2.135 . S
C169 N167 1.340 . S
C169 N168 1.321 . S
C169 H193 0.930 . S
H170 C165 0.931 . S
Co171 N168 2.135 . S
Co171 N174 2.121 1_455 S
Co171 O179 2.055 1_455 S
Co171 O182 2.039 . S
Co171 N185 2.140 . S
C172 O173 1.227 . S
C172 O182 1.265 . S
O173 C172 1.227 . S
N174 Co171 2.121 1_655 S
N174 C176 1.375 1_556 S
N174 C177 1.313 . S
C175 C176 1.338 . S
C175 N178 1.377 . S
C175 H195 0.930 . S
C176 N174 1.375 1_554 S
C176 C175 1.338 . S
C176 H180 0.931 1_655 S
C177 N174 1.313 . S
C177 N178 1.344 1_556 S
C177 H181 0.930 . S
N178 C175 1.377 . S
N178 C177 1.344 1_554 S
O179 Co171 2.055 1_655 S
O179 C183 1.253 . S
H180 C176 0.931 1_455 S
H181 C177 0.930 . S
O182 Co171 2.039 . S
O182 C172 1.265 . S
C183 O179 1.253 . S
C183 O184 1.227 . S
O184 C183 1.227 . S
N185 Co171 2.140 . S
N185 C188 1.346 . S
N185 C189 1.345 1_455 S
C186 C187 1.387 . S
C186 C190 1.391 1_455 S
C187 C186 1.387 . S
C187 C188 1.369 . S
C187 H196 0.929 . S
C188 N185 1.346 . S
C188 C187 1.369 . S
C188 H191 0.928 . S
C189 N185 1.345 1_655 S
C189 C190 1.371 . S
C189 H192 0.931 . S
C190 C186 1.391 1_655 S
C190 C189 1.371 . S
C190 H197 0.930 . S
H191 C188 0.928 . S
H192 C189 0.931 . S
H193 C169 0.930 . S
H194 C166 0.930 . S
H195 C175 0.930 . S
H196 C187 0.929 . S
H197 C190 0.930 . S
C198 C199 1.351 . S
C198 N201 1.368 . S
C198 H203 0.931 . S
C199 C198 1.351 . S
C199 N200 1.373 . S
C199 H227 0.930 . S
N200 C199 1.373 . S
N200 C202 1.340 . S
N201 C198 1.368 . S
N201 C202 1.321 . S
N201 Co204 2.135 . S
C202 N200 1.340 . S
C202 N201 1.321 . S
C202 H226 0.930 . S
H203 C198 0.931 . S
Co204 N201 2.135 . S
Co204 N207 2.121 . S
Co204 O212 2.055 . S
Co204 O215 2.039 . S
Co204 N218 2.140 . S
C205 O206 1.227 . S
C205 O215 1.265 . S
O206 C205 1.227 . S
N207 Co204 2.121 . S
N207 C209 1.375 . S
N207 C210 1.313 . S
C208 C209 1.338 . S
C208 N211 1.377 . S
C208 H228 0.930 . S
C209 N207 1.375 . S
C209 C208 1.338 . S
C209 H213 0.931 . S
C210 N207 1.313 . S
C210 N211 1.344 . S
C210 H214 0.930 . S
N211 C208 1.377 . S
N211 C210 1.344 . S
O212 Co204 2.055 . S
O212 C216 1.253 . S
H213 C209 0.931 . S
H214 C210 0.930 . S
O215 Co204 2.039 . S
O215 C205 1.265 . S
C216 O212 1.253 . S
C216 O217 1.227 . S
O217 C216 1.227 . S
N218 Co204 2.140 . S
N218 C221 1.346 . S
N218 C222 1.345 . S
C219 C220 1.387 . S
C219 C223 1.391 . S
C220 C219 1.387 . S
C220 C221 1.369 . S
C220 H229 0.929 . S
C221 N218 1.346 . S
C221 C220 1.369 . S
C221 H224 0.928 . S
C222 N218 1.345 . S
C222 C223 1.371 . S
C222 H225 0.931 . S
C223 C219 1.391 . S
C223 C222 1.371 . S
C223 H230 0.930 . S
H224 C221 0.928 . S
H225 C222 0.931 . S
H226 C202 0.930 . S
H227 C199 0.930 . S
H228 C208 0.930 . S
H229 C220 0.929 . S
H230 C223 0.930 . S
C231 C232 1.351 . S
C231 N234 1.368 . S
C231 H236 0.931 . S
C232 C231 1.351 . S
C232 N233 1.373 . S
C232 H260 0.930 . S
N233 C232 1.373 . S
N233 C235 1.340 . S
N234 C231 1.368 . S
N234 C235 1.321 . S
N234 Co237 2.135 . S
C235 N233 1.340 . S
C235 N234 1.321 . S
C235 H259 0.930 . S
H236 C231 0.931 . S
Co237 N234 2.135 . S
Co237 N240 2.121 1_455 S
Co237 O245 2.055 1_455 S
Co237 O248 2.039 . S
Co237 N251 2.140 . S
C238 O239 1.227 . S
C238 O248 1.265 . S
O239 C238 1.227 . S
N240 Co237 2.121 1_655 S
N240 C242 1.375 1_554 S
N240 C243 1.313 . S
C241 C242 1.338 . S
C241 N244 1.377 . S
C241 H261 0.930 . S
C242 N240 1.375 1_556 S
C242 C241 1.338 . S
C242 H246 0.931 1_655 S
C243 N240 1.313 . S
C243 N244 1.344 1_554 S
C243 H247 0.930 . S
N244 C241 1.377 . S
N244 C243 1.344 1_556 S
O245 Co237 2.055 1_655 S
O245 C249 1.253 . S
H246 C242 0.931 1_455 S
H247 C243 0.930 . S
O248 Co237 2.039 . S
O248 C238 1.265 . S
C249 O245 1.253 . S
C249 O250 1.227 . S
O250 C249 1.227 . S
N251 Co237 2.140 . S
N251 C254 1.346 . S
N251 C255 1.345 1_455 S
C252 C253 1.387 . S
C252 C256 1.391 1_455 S
C253 C252 1.387 . S
C253 C254 1.369 . S
C253 H262 0.929 . S
C254 N251 1.346 . S
C254 C253 1.369 . S
C254 H257 0.928 . S
C255 N251 1.345 1_655 S
C255 C256 1.371 . S
C255 H258 0.931 . S
C256 C252 1.391 1_655 S
C256 C255 1.371 . S
C256 H263 0.930 . S
H257 C254 0.928 . S
H258 C255 0.931 . S
H259 C235 0.930 . S
H260 C232 0.930 . S
H261 C241 0.930 . S
H262 C253 0.929 . S
H263 C256 0.930 . S
C18 C117 1.513 . S
C51 C84 1.513 . S
N68 N35 1.605 . S
N101 N2 1.605 . S
C150 C249 1.513 . S
C216 C183 1.513 . S
N167 N200 1.606 . S
N233 N134 1.606 . S
C87 C21 1.528 . S
C54 C120 1.527 1_556 S
C219 C153 1.527 1_545 S
C252 C186 1.527 1_564 S
N13 C205 1.447 . S
N46 C238 1.447 . S
N79 C139 1.447 . S
C172 N112 1.447 . S
C73 N145 1.447 1_455 S
C106 N178 1.447 . S
C7 N211 1.447 1_455 S
C40 N244 1.447 . S
