# Generated by pormake.
# Topology qtz-x, (6)-cn, num edge types: 1
# Building blocks:
#     Node 0, Type 0, BuildingBlock: LEVNOQ01_clean_sbu_1, # of connection points: 6
#     Node 1, Type 0, BuildingBlock: LEVNOQ01_clean_sbu_1, # of connection points: 6
#     Node 2, Type 0, BuildingBlock: LEVNOQ01_clean_sbu_1, # of connection points: 6
#     Edge 3, Type (0, 0), BuildingBlock: CIFDUS_clean_linker_0, # of connection points: 2
#     Edge 4, Type (0, 0), BuildingBlock: CIFDUS_clean_linker_0, # of connection points: 2
#     Edge 5, Type (0, 0), BuildingBlock: CIFDUS_clean_linker_0, # of connection points: 2
#     Edge 6, Type (0, 0), BuildingBlock: CIFDUS_clean_linker_0, # of connection points: 2
#     Edge 7, Type (0, 0), BuildingBlock: CIFDUS_clean_linker_0, # of connection points: 2
#     Edge 8, Type (0, 0), BuildingBlock: CIFDUS_clean_linker_0, # of connection points: 2
#     Edge 9, Type (0, 0), BuildingBlock: CIFDUS_clean_linker_0, # of connection points: 2
#     Edge 10, Type (0, 0), BuildingBlock: CIFDUS_clean_linker_0, # of connection points: 2
#     Edge 11, Type (0, 0), BuildingBlock: CIFDUS_clean_linker_0, # of connection points: 2
# Relax obj value: 0.269
# Max RMSD: 0.266
# Mean RMSD: 0.263
data_MOF--net-qtz-x--node1-LEVNOQ01_clean_sbu_1--edge1-CIFDUS_clean_linker_0
_symmetry_space_group_name_H-M    P1
_symmetry_Int_Tables_number       1
_symmetry_cell_setting            triclinic
loop_
_symmetry_equiv_pos_as_xyz
'x, y, z'
_cell_length_a     14.57293
_cell_length_b     14.473986
_cell_length_c     34.026078
_cell_angle_alpha  95.721346
_cell_angle_beta   95.540483
_cell_angle_gamma 119.9843
loop_
_atom_site_label
_atom_site_type_symbol
_atom_site_fract_x
_atom_site_fract_y
_atom_site_fract_z
_atom_type_partial_charge
O0 O 0.67543 0.15924 0.07686 0.0
Mg1 Mg 0.83851 0.20815 0.08491 0.0
O2 O 0.75518 0.32084 0.1132 0.0
Mg3 Mg 0.91743 0.3697 0.15414 0.0
O4 O 0.91633 0.20544 0.13831 0.0
O5 O 0.86463 0.08469 0.08158 0.0
O6 O 0.07771 0.43337 0.19771 0.0
O7 O 0.8214 0.2759 0.204 0.0
Mg8 Mg 0.8879 0.46716 0.21481 0.0
O9 O 0.92929 0.54133 0.16687 0.0
O10 O 0.01018 0.45674 0.25046 0.0
O11 O 0.72425 0.34913 0.21044 0.0
O12 O 0.91353 0.61862 0.22452 0.0
C13 C -0.00102 0.42129 0.06664 0.0
C14 C 0.67447 0.24398 0.08884 0.0
C15 C 0.90595 0.11691 0.11916 0.0
C16 C 0.08531 0.45336 0.23567 0.0
C17 C 0.74213 0.27513 0.21708 0.0
C18 C 0.93137 0.6227 0.18815 0.0
O19 O 0.92916 0.32472 0.05101 0.0
O20 O 0.01433 0.45266 0.10435 0.0
O21 O 0.6068 0.20932 0.44765 0.0
Mg22 Mg 0.47598 0.0509 0.44317 0.0
O23 O 0.66077 0.09595 0.45278 0.0
Mg24 Mg 0.56245 0.00733 0.50303 0.0
O25 O 0.4025 0.01684 0.49169 0.0
O26 O 0.33558 0.04734 0.43531 0.0
O27 O 0.46223 0.91565 0.55178 0.0
O28 O 0.63483 0.16967 0.54727 0.0
Mg29 Mg 0.6603 -0.02273 0.56645 0.0
O30 O 0.72224 -0.0027 0.51484 0.0
O31 O 0.53415 0.82256 0.5693 0.0
O32 O 0.67003 0.11316 0.60126 0.0
O33 O 0.8007 -0.01725 0.57241 0.0
C34 C 0.46283 0.83785 0.42072 0.0
C35 C 0.66898 0.17718 0.43848 0.0
C36 C 0.32833 0.02699 0.4713 0.0
C37 C 0.4573 0.83926 0.56874 0.0
C38 C 0.66032 0.18391 0.58529 0.0
C39 C 0.80013 -0.00777 0.53509 0.0
O40 O 0.46741 0.91725 0.40624 0.0
O41 O 0.48318 0.84477 0.45858 0.0
O42 O 0.41718 0.73286 0.90915 0.0
Mg43 Mg 0.5314 0.68813 0.90251 0.0
O44 O 0.32171 0.57003 0.87354 0.0
Mg45 Mg 0.42092 0.52781 0.83268 0.0
O46 O 0.58967 0.69562 0.84956 0.0
O47 O 0.68029 0.8155 0.90667 0.0
O48 O 0.51047 0.47582 0.78984 0.0
O49 O 0.38741 0.62125 0.78527 0.0
Mg50 Mg 0.27187 0.41175 0.76357 0.0
O51 O 0.25609 0.35599 0.81683 0.0
O52 O 0.39546 0.42056 0.73344 0.0
O53 O 0.22102 0.52056 0.75461 0.0
O54 O 0.14696 0.25967 0.75824 0.0
C55 C 0.49353 0.47466 0.91961 0.0
C56 C 0.32733 0.64732 0.8973 0.0
C57 C 0.67447 0.78521 0.86907 0.0
C58 C 0.48602 0.44401 0.75193 0.0
C59 C 0.30743 0.61082 0.76195 0.0
C60 C 0.17053 0.26871 0.7965 0.0
O61 O 0.5238 0.57028 0.93563 0.0
O62 O 0.46104 0.44406 0.88181 0.0
H63 H -0.04564 0.80931 0.22615 0.0
H64 H -0.05542 0.65014 0.1101 0.0
H65 H -0.05149 0.79732 0.07946 0.0
H66 H 0.93623 0.96021 0.08462 0.0
H67 H -0.05952 0.1177 0.19998 0.0
H68 H -0.0408 -0.01752 0.23215 0.0
C69 C -0.04587 0.80716 0.19419 0.0
C70 C -0.05245 0.71788 0.17034 0.0
C71 C -0.04488 0.8914 0.17671 0.0
C72 C -0.05117 0.71731 0.12911 0.0
C73 C -0.04917 0.80135 0.11155 0.0
C74 C -0.05766 -0.03417 0.1169 0.0
C75 C 0.93533 0.04792 0.13986 0.0
C76 C -0.0489 0.88711 0.13492 0.0
C77 C -0.05466 0.05513 0.18166 0.0
C78 C -0.04465 -0.02254 0.19998 0.0
H79 H 0.16182 0.04166 0.43582 0.0
H80 H 0.28409 -0.01402 0.54618 0.0
H81 H 0.13016 -0.03119 0.57497 0.0
H82 H -0.03669 -0.02845 0.56908 0.0
H83 H 0.84026 0.02785 0.45907 0.0
H84 H -0.00701 0.04256 0.4297 0.0
C85 C 0.15502 0.02567 0.46619 0.0
C86 C 0.23473 0.01531 0.48885 0.0
C87 C 0.06644 0.016 0.48254 0.0
C88 C 0.22419 -0.00557 0.5281 0.0
C89 C 0.13618 -0.01539 0.54457 0.0
C90 C -0.03058 -0.01302 0.53862 0.0
C91 C 0.89031 -0.00122 0.51632 0.0
C92 C 0.05718 -0.00444 0.52208 0.0
C93 C 0.89979 0.01832 0.47688 0.0
C94 C -0.01282 0.02689 0.46012 0.0
H95 H 0.86716 0.95931 0.90459 0.0
H96 H 0.68367 0.77307 0.78849 0.0
H97 H 0.82572 0.90331 0.75614 0.0
H98 H -0.00482 0.07565 0.76093 0.0
H99 H 0.17576 0.26403 0.87714 0.0
H100 H 0.04105 0.12609 0.90947 0.0
C101 C 0.85811 0.9464 0.87216 0.0
C102 C 0.76411 0.85662 0.84897 0.0
C103 C -0.0607 0.02212 0.85387 0.0
C104 C 0.75483 0.84117 0.80705 0.0
C105 C 0.83592 0.91591 0.78858 0.0
C106 C 0.00587 0.08653 0.79338 0.0
C107 C 0.09548 0.18086 0.81658 0.0
C108 C 0.9275 0.00758 0.8117 0.0
C109 C 0.10786 0.19265 0.85855 0.0
C110 C 0.03059 0.11388 0.87703 0.0
H111 H 0.34543 0.73625 0.97364 0.0
H112 H 0.11459 0.49811 0.87363 0.0
H113 H -0.01521 0.41552 0.91819 0.0
H114 H -0.04901 0.3914 0.98619 0.0
H115 H 0.1871 0.61848 0.08731 0.0
H116 H 0.30126 0.72581 0.04154 0.0
C117 C 0.26537 0.66866 0.96134 0.0
C118 C 0.23972 0.62258 0.92044 0.0
C119 C 0.19358 0.618 0.98749 0.0
C120 C 0.13605 0.53464 0.90501 0.0
C121 C 0.06239 0.48676 0.93054 0.0
C122 C 0.02708 0.46491 -0.00165 0.0
C123 C 0.06212 0.49542 0.04008 0.0
C124 C 0.09267 0.52431 0.97201 0.0
C125 C 0.15926 0.59244 0.0553 0.0
C126 C 0.2244 0.65368 0.02914 0.0
H127 H 0.54867 0.16992 0.37268 0.0
H128 H 0.8555 0.20603 0.41446 0.0
H129 H 0.89938 0.22207 0.34637 0.0
H130 H 0.85363 0.2394 0.27636 0.0
H131 H 0.54482 0.20217 0.23661 0.0
H132 H 0.49623 0.16839 0.30256 0.0
C133 C 0.62586 0.18262 0.36705 0.0
C134 C 0.70088 0.19136 0.39868 0.0
C135 C 0.64858 0.1887 0.32811 0.0
C136 C 0.79816 0.20241 0.39066 0.0
C137 C 0.82254 0.21049 0.35177 0.0
C138 C 0.77438 0.22023 0.2818 0.0
C139 C 0.70238 0.22273 0.25169 0.0
C140 C 0.7486 0.20489 0.32034 0.0
C141 C 0.60086 0.19983 0.25929 0.0
C142 C 0.57374 0.18201 0.29709 0.0
H143 H 0.18755 0.57351 0.68971 0.0
H144 H 0.47146 0.82093 0.77139 0.0
H145 H 0.53182 0.92668 0.71776 0.0
H146 H 0.52262 0.92846 0.64555 0.0
H147 H 0.2518 0.66979 0.56259 0.0
H148 H 0.16625 0.5883 0.61876 0.0
C149 C 0.26097 0.65218 0.69618 0.0
C150 C 0.32591 0.6887 0.73435 0.0
C151 C 0.29818 0.70911 0.66468 0.0
C152 C 0.42064 0.79078 0.74219 0.0
C153 C 0.45555 0.85076 0.71146 0.0
C154 C 0.44332 0.85592 0.64004 0.0
C155 C 0.39285 0.80431 0.60049 0.0
C156 C 0.39796 0.80767 0.67224 0.0
C157 C 0.29106 0.71032 0.59304 0.0
C158 C 0.24292 0.66377 0.62509 0.0
H159 H 0.51111 0.50135 0.00021 0.0
H160 H 0.48443 0.2814 0.8982 0.0
H161 H 0.51536 0.17421 0.94334 0.0
H162 H 0.57696 0.16059 0.0113 0.0
H163 H 0.61698 0.3905 0.11237 0.0
H164 H 0.55035 0.47454 0.068 0.0
C165 C 0.51116 0.42943 0.9877 0.0
C166 C 0.49812 0.40083 0.94586 0.0
C167 C 0.53071 0.36978 0.01373 0.0
C168 C 0.49567 0.30593 0.93026 0.0
C169 C 0.51337 0.24474 0.95608 0.0
C170 C 0.56751 0.22664 0.02384 0.0
C171 C 0.60228 0.26965 0.06512 0.0
C172 C 0.53449 0.27805 -0.00214 0.0
C173 C 0.59066 0.35601 0.08077 0.0
C174 C 0.55377 0.4048 0.05534 0.0
H175 H 0.11224 0.41832 0.31125 0.0
H176 H 0.2867 0.59025 0.22191 0.0
H177 H 0.43812 0.71882 0.27418 0.0
H178 H 0.49637 0.80673 0.34508 0.0
H179 H 0.31975 0.6372 0.43444 0.0
H180 H 0.19473 0.48189 0.38257 0.0
C181 C 0.18551 0.48119 0.3032 0.0
C182 C 0.18789 0.49646 0.26302 0.0
C183 C 0.27069 0.55651 0.33352 0.0
C184 C 0.28309 0.57714 0.25267 0.0
C185 C 0.36907 0.65163 0.28264 0.0
C186 C 0.4329 0.73393 0.35328 0.0
C187 C 0.41555 0.73378 0.39325 0.0
C188 C 0.36033 0.64609 0.3232 0.0
C189 C 0.33425 0.63907 0.40381 0.0
C190 C 0.26212 0.55075 0.37408 0.0
H191 H 0.50213 0.46126 0.67439 0.0
H192 H 0.62805 0.38173 0.77714 0.0
H193 H 0.71155 0.30963 0.73424 0.0
H194 H 0.72136 0.24224 0.66633 0.0
H195 H 0.58977 0.3178 0.56361 0.0
H196 H 0.53828 0.42101 0.60785 0.0
C197 C 0.54977 0.43012 0.68751 0.0
C198 C 0.55737 0.42481 0.7287 0.0
C199 C 0.59585 0.38755 0.66261 0.0
C200 C 0.6208 0.38626 0.7455 0.0
C201 C 0.66782 0.34437 0.72091 0.0
C202 C 0.68379 0.28348 0.65359 0.0
C203 C 0.65763 0.2704 0.61159 0.0
C204 C 0.65192 0.34052 0.67921 0.0
C205 C 0.61035 0.32576 0.59571 0.0
C206 C 0.57999 0.38412 0.62102 0.0
loop_
_geom_bond_atom_site_label_1
_geom_bond_atom_site_label_2
_geom_bond_distance
_geom_bond_site_symmetry_2
_ccdc_geom_bond_type
O0 Mg1 1.990 . S
O0 C14 1.253 . S
Mg1 O0 1.990 . S
Mg1 O4 2.180 1_655 S
Mg1 O5 2.117 . S
Mg1 O19 2.030 1_655 S
O2 Mg3 2.072 1_655 S
O2 C14 1.260 . S
Mg3 O2 2.072 1_455 S
Mg3 O4 2.099 . S
Mg3 O6 2.079 . S
Mg3 O7 2.072 1_455 S
Mg3 O9 2.099 . S
Mg3 O20 2.079 . S
O4 Mg1 2.180 1_455 S
O4 Mg3 2.099 . S
O4 C15 1.279 1_455 S
O5 Mg1 2.117 . S
O5 C15 1.250 . S
O6 Mg3 2.079 . S
O6 C16 1.264 . S
O7 Mg3 2.072 1_655 S
O7 C17 1.260 . S
Mg8 O9 2.180 . S
Mg8 O10 2.030 . S
Mg8 O11 1.990 1_455 S
Mg8 O12 2.117 1_455 S
O9 Mg3 2.099 . S
O9 Mg8 2.180 . S
O9 C18 1.279 1_455 S
O10 Mg8 2.030 . S
O10 C16 1.248 . S
O11 Mg8 1.990 1_655 S
O11 C17 1.253 . S
O12 Mg8 2.117 1_655 S
O12 C18 1.250 . S
C13 O19 1.248 . S
C13 O20 1.264 . S
C14 O0 1.253 . S
C14 O2 1.260 . S
C15 O4 1.279 1_655 S
C15 O5 1.250 . S
C16 O6 1.264 . S
C16 O10 1.248 . S
C17 O7 1.260 . S
C17 O11 1.253 . S
C18 O9 1.279 1_655 S
C18 O12 1.250 . S
O19 Mg1 2.030 1_455 S
O19 C13 1.248 . S
O20 Mg3 2.079 . S
O20 C13 1.264 . S
O21 Mg22 1.990 1_545 S
O21 C35 1.253 . S
Mg22 O21 1.990 1_565 S
Mg22 O25 2.180 . S
Mg22 O26 2.117 1_565 S
Mg22 O40 2.030 . S
O23 Mg24 2.072 1_545 S
O23 C35 1.260 . S
Mg24 O23 2.072 1_565 S
Mg24 O25 2.099 . S
Mg24 O27 2.079 . S
Mg24 O28 2.072 1_565 S
Mg24 O30 2.099 . S
Mg24 O41 2.079 . S
O25 Mg22 2.180 . S
O25 Mg24 2.099 . S
O25 C36 1.279 1_565 S
O26 Mg22 2.117 1_545 S
O26 C36 1.250 . S
O27 Mg24 2.079 . S
O27 C37 1.264 . S
O28 Mg24 2.072 1_545 S
O28 C38 1.260 . S
Mg29 O30 2.180 1_545 S
Mg29 O31 2.030 1_545 S
Mg29 O32 1.990 . S
Mg29 O33 2.117 . S
O30 Mg24 2.099 . S
O30 Mg29 2.180 1_565 S
O30 C39 1.279 1_565 S
O31 Mg29 2.030 1_565 S
O31 C37 1.248 . S
O32 Mg29 1.990 . S
O32 C38 1.253 . S
O33 Mg29 2.117 . S
O33 C39 1.250 . S
C34 O40 1.248 . S
C34 O41 1.264 . S
C35 O21 1.253 . S
C35 O23 1.260 . S
C36 O25 1.279 1_545 S
C36 O26 1.250 . S
C37 O27 1.264 . S
C37 O31 1.248 . S
C38 O28 1.260 . S
C38 O32 1.253 . S
C39 O30 1.279 1_545 S
C39 O33 1.250 . S
O40 Mg22 2.030 . S
O40 C34 1.248 . S
O41 Mg24 2.079 . S
O41 C34 1.264 . S
O42 Mg43 1.990 . S
O42 C56 1.253 . S
Mg43 O42 1.990 . S
Mg43 O46 2.180 . S
Mg43 O47 2.117 . S
Mg43 O61 2.030 . S
O44 Mg45 2.072 . S
O44 C56 1.260 . S
Mg45 O44 2.072 . S
Mg45 O46 2.099 . S
Mg45 O48 2.079 . S
Mg45 O49 2.072 . S
Mg45 O51 2.099 . S
Mg45 O62 2.079 . S
O46 Mg43 2.180 . S
O46 Mg45 2.099 . S
O46 C57 1.279 . S
O47 Mg43 2.117 . S
O47 C57 1.250 . S
O48 Mg45 2.079 . S
O48 C58 1.264 . S
O49 Mg45 2.072 . S
O49 C59 1.260 . S
Mg50 O51 2.180 . S
Mg50 O52 2.030 . S
Mg50 O53 1.990 . S
Mg50 O54 2.117 . S
O51 Mg45 2.099 . S
O51 Mg50 2.180 . S
O51 C60 1.279 . S
O52 Mg50 2.030 . S
O52 C58 1.248 . S
O53 Mg50 1.990 . S
O53 C59 1.253 . S
O54 Mg50 2.117 . S
O54 C60 1.250 . S
C55 O61 1.248 . S
C55 O62 1.264 . S
C56 O42 1.253 . S
C56 O44 1.260 . S
C57 O46 1.279 . S
C57 O47 1.250 . S
C58 O48 1.264 . S
C58 O52 1.248 . S
C59 O49 1.260 . S
C59 O53 1.253 . S
C60 O51 1.279 . S
C60 O54 1.250 . S
O61 Mg43 2.030 . S
O61 C55 1.248 . S
O62 Mg45 2.079 . S
O62 C55 1.264 . S
H63 C69 0.930 . S
H64 C72 0.930 . S
H65 C73 0.930 . S
H66 C74 0.930 . S
H67 C77 0.930 . S
H68 C78 0.930 . S
C69 H63 0.930 . S
C69 C70 1.355 1_455 S
C69 C71 1.415 . S
C70 C69 1.355 1_655 S
C70 C72 1.419 . S
C71 C69 1.415 . S
C71 C76 1.425 1_455 S
C71 C78 1.409 1_565 S
C72 H64 0.930 . S
C72 C70 1.419 . S
C72 C73 1.362 . S
C73 H65 0.930 . S
C73 C72 1.362 . S
C73 C76 1.409 . S
C74 H66 0.930 . S
C74 C75 1.355 . S
C74 C76 1.415 1_545 S
C75 C74 1.355 . S
C75 C77 1.419 1_655 S
C76 C71 1.425 1_655 S
C76 C73 1.409 . S
C76 C74 1.415 1_565 S
C77 H67 0.930 . S
C77 C75 1.419 1_455 S
C77 C78 1.362 . S
C78 H68 0.930 . S
C78 C71 1.409 1_545 S
C78 C77 1.362 . S
H79 C85 0.930 . S
H80 C88 0.930 . S
H81 C89 0.930 . S
H82 C90 0.930 . S
H83 C93 0.930 . S
H84 C94 0.930 . S
C85 H79 0.930 . S
C85 C86 1.355 . S
C85 C87 1.415 . S
C86 C85 1.355 . S
C86 C88 1.419 1_545 S
C87 C85 1.415 . S
C87 C92 1.425 . S
C87 C94 1.409 . S
C88 H80 0.930 . S
C88 C86 1.419 1_565 S
C88 C89 1.362 . S
C89 H81 0.930 . S
C89 C88 1.362 . S
C89 C92 1.409 1_565 S
C90 H82 0.930 . S
C90 C91 1.354 1_565 S
C90 C92 1.415 1_665 S
C91 C90 1.354 1_545 S
C91 C93 1.419 . S
C92 C87 1.425 . S
C92 C89 1.409 1_545 S
C92 C90 1.415 1_445 S
C93 H83 0.930 . S
C93 C91 1.419 . S
C93 C94 1.362 1_655 S
C94 H84 0.930 . S
C94 C87 1.409 . S
C94 C93 1.362 1_455 S
H95 C101 0.930 . S
H96 C104 0.930 . S
H97 C105 0.930 . S
H98 C106 0.930 . S
H99 C109 0.930 . S
H100 C110 0.929 1_655 S
C101 H95 0.930 . S
C101 C102 1.355 . S
C101 C103 1.415 1_565 S
C102 C101 1.355 . S
C102 C104 1.419 . S
C103 C101 1.415 1_545 S
C103 C108 1.425 . S
C103 C110 1.409 1_655 S
C104 H96 0.930 . S
C104 C102 1.419 . S
C104 C105 1.362 . S
C105 H97 0.930 . S
C105 C104 1.362 . S
C105 C108 1.409 1_565 S
C106 H98 0.930 . S
C106 C107 1.355 . S
C106 C108 1.415 1_455 S
C107 C106 1.355 . S
C107 C109 1.419 . S
C108 C103 1.425 . S
C108 C105 1.409 1_545 S
C108 C106 1.415 1_655 S
C109 H99 0.930 . S
C109 C107 1.419 . S
C109 C110 1.362 . S
C110 H100 0.929 1_455 S
C110 C103 1.409 1_455 S
C110 C109 1.362 . S
H111 C117 0.930 . S
H112 C120 0.930 . S
H113 C121 0.930 . S
H114 C122 0.930 . S
H115 C125 0.930 . S
H116 C126 0.930 . S
C117 H111 0.930 . S
C117 C118 1.355 . S
C117 C119 1.415 . S
C118 C117 1.355 . S
C118 C120 1.419 . S
C119 C117 1.415 . S
C119 C124 1.426 . S
C119 C126 1.409 1_556 S
C120 H112 0.930 . S
C120 C118 1.419 . S
C120 C121 1.362 . S
C121 H113 0.930 . S
C121 C120 1.362 . S
C121 C124 1.426 . S
C122 H114 0.930 . S
C122 C123 1.355 . S
C122 C124 1.397 1_554 S
C123 C122 1.355 . S
C123 C125 1.419 . S
C124 C119 1.426 . S
C124 C121 1.426 . S
C124 C122 1.397 1_556 S
C125 H115 0.930 . S
C125 C123 1.419 . S
C125 C126 1.362 . S
C126 H116 0.930 . S
C126 C119 1.409 1_554 S
C126 C125 1.362 . S
H127 C133 0.930 . S
H128 C136 0.930 . S
H129 C137 0.930 . S
H130 C138 0.930 . S
H131 C141 0.930 . S
H132 C142 0.930 . S
C133 H127 0.930 . S
C133 C134 1.355 . S
C133 C135 1.415 . S
C134 C133 1.355 . S
C134 C136 1.419 . S
C135 C133 1.415 . S
C135 C140 1.425 . S
C135 C142 1.409 . S
C136 H128 0.930 . S
C136 C134 1.419 . S
C136 C137 1.362 . S
C137 H129 0.930 . S
C137 C136 1.362 . S
C137 C140 1.409 . S
C138 H130 0.930 . S
C138 C139 1.355 . S
C138 C140 1.415 . S
C139 C138 1.355 . S
C139 C141 1.419 . S
C140 C135 1.425 . S
C140 C137 1.409 . S
C140 C138 1.415 . S
C141 H131 0.930 . S
C141 C139 1.419 . S
C141 C142 1.362 . S
C142 H132 0.930 . S
C142 C135 1.409 . S
C142 C141 1.362 . S
H143 C149 0.930 . S
H144 C152 0.930 . S
H145 C153 0.930 . S
H146 C154 0.930 . S
H147 C157 0.930 . S
H148 C158 0.930 . S
C149 H143 0.930 . S
C149 C150 1.355 . S
C149 C151 1.415 . S
C150 C149 1.355 . S
C150 C152 1.419 . S
C151 C149 1.415 . S
C151 C156 1.425 . S
C151 C158 1.409 . S
C152 H144 0.930 . S
C152 C150 1.419 . S
C152 C153 1.362 . S
C153 H145 0.930 . S
C153 C152 1.362 . S
C153 C156 1.409 . S
C154 H146 0.930 . S
C154 C155 1.355 . S
C154 C156 1.415 . S
C155 C154 1.355 . S
C155 C157 1.419 . S
C156 C151 1.425 . S
C156 C153 1.409 . S
C156 C154 1.415 . S
C157 H147 0.930 . S
C157 C155 1.419 . S
C157 C158 1.362 . S
C158 H148 0.930 . S
C158 C151 1.409 . S
C158 C157 1.362 . S
H159 C165 0.930 . S
H160 C168 0.930 . S
H161 C169 0.930 . S
H162 C170 0.930 . S
H163 C173 0.930 . S
H164 C174 0.930 . S
C165 H159 0.930 . S
C165 C166 1.355 . S
C165 C167 1.415 . S
C166 C165 1.355 . S
C166 C168 1.419 . S
C167 C165 1.415 . S
C167 C172 1.425 1_556 S
C167 C174 1.409 1_556 S
C168 H160 0.930 . S
C168 C166 1.419 . S
C168 C169 1.362 . S
C169 H161 0.930 . S
C169 C168 1.362 . S
C169 C172 1.409 1_556 S
C170 H162 0.930 . S
C170 C171 1.355 . S
C170 C172 1.415 . S
C171 C170 1.355 . S
C171 C173 1.419 . S
C172 C167 1.425 1_554 S
C172 C169 1.409 1_554 S
C172 C170 1.415 . S
C173 H163 0.930 . S
C173 C171 1.419 . S
C173 C174 1.362 . S
C174 H164 0.930 . S
C174 C167 1.409 1_554 S
C174 C173 1.362 . S
H175 C181 0.930 . S
H176 C184 0.930 . S
H177 C185 0.930 . S
H178 C186 0.930 . S
H179 C189 0.930 . S
H180 C190 0.930 . S
C181 H175 0.930 . S
C181 C182 1.355 . S
C181 C183 1.415 . S
C182 C181 1.355 . S
C182 C184 1.419 . S
C183 C181 1.415 . S
C183 C188 1.425 . S
C183 C190 1.409 . S
C184 H176 0.930 . S
C184 C182 1.419 . S
C184 C185 1.362 . S
C185 H177 0.930 . S
C185 C184 1.362 . S
C185 C188 1.409 . S
C186 H178 0.930 . S
C186 C187 1.355 . S
C186 C188 1.415 . S
C187 C186 1.355 . S
C187 C189 1.419 . S
C188 C183 1.425 . S
C188 C185 1.409 . S
C188 C186 1.415 . S
C189 H179 0.930 . S
C189 C187 1.419 . S
C189 C190 1.362 . S
C190 H180 0.930 . S
C190 C183 1.409 . S
C190 C189 1.362 . S
H191 C197 0.930 . S
H192 C200 0.930 . S
H193 C201 0.930 . S
H194 C202 0.930 . S
H195 C205 0.930 . S
H196 C206 0.930 . S
C197 H191 0.930 . S
C197 C198 1.355 . S
C197 C199 1.415 . S
C198 C197 1.355 . S
C198 C200 1.419 . S
C199 C197 1.415 . S
C199 C204 1.425 . S
C199 C206 1.409 . S
C200 H192 0.930 . S
C200 C198 1.419 . S
C200 C201 1.362 . S
C201 H193 0.930 . S
C201 C200 1.362 . S
C201 C204 1.409 . S
C202 H194 0.930 . S
C202 C203 1.355 . S
C202 C204 1.415 . S
C203 C202 1.355 . S
C203 C205 1.419 . S
C204 C199 1.425 . S
C204 C201 1.409 . S
C204 C202 1.415 . S
C205 H195 0.930 . S
C205 C203 1.419 . S
C205 C206 1.362 . S
C206 H196 0.930 . S
C206 C199 1.409 . S
C206 C205 1.362 . S
C70 C18 1.156 . S
C75 C15 1.156 . S
C86 C36 1.281 . S
C91 C39 1.281 . S
C102 C57 1.296 . S
C107 C60 1.296 . S
C118 C56 1.231 . S
C123 C13 1.162 . S
C134 C35 1.483 . S
C139 C17 1.463 . S
C150 C59 1.227 . S
C155 C37 1.190 . S
C166 C55 1.081 . S
C171 C14 1.198 . S
C182 C16 0.978 . S
C187 C34 0.805 . S
C198 C58 1.131 . S
C203 C38 1.228 . S
