# Generated by pormake.
# Topology pcu, (6)-cn, num edge types: 1
# Building blocks:
#     Node 0, Type 0, BuildingBlock: INOVEN_clean_sbu_0, # of connection points: 6
#     Edge 1, Type (0, 0), BuildingBlock: UKIBUN_clean_linker_0, # of connection points: 2
#     Edge 2, Type (0, 0), BuildingBlock: UKIBUN_clean_linker_0, # of connection points: 2
#     Edge 3, Type (0, 0), BuildingBlock: UKIBUN_clean_linker_0, # of connection points: 2
# Relax obj value: 0.000
# Max RMSD: 0.000
# Mean RMSD: 0.000
data_MOF--net-pcu--node1-INOVEN_clean_sbu_0--edge1-UKIBUN_clean_linker_0
_symmetry_space_group_name_H-M    P1
_symmetry_Int_Tables_number       1
_symmetry_cell_setting            triclinic
loop_
_symmetry_equiv_pos_as_xyz
'x, y, z'
_cell_length_a     35.239444
_cell_length_b     24.889941
_cell_length_c     24.097649
_cell_angle_alpha  84.564218
_cell_angle_beta   97.945939
_cell_angle_gamma 124.29885
loop_
_atom_site_label
_atom_site_type_symbol
_atom_site_fract_x
_atom_site_fract_y
_atom_site_fract_z
_atom_type_partial_charge
Gd0 Gd 0.96163 0.9508 1.00096 0.0
Gd1 Gd 0.06535 0.02084 0.00999 0.0
C2 C 0.02958 0.11077 1.00273 0.0
C3 C 0.87906 0.91908 0.01178 0.0
C4 C 0.85068 0.94686 0.0054 0.0
C5 C 0.82079 0.93586 0.9562 0.0
C6 C 0.84844 0.97671 0.05063 0.0
C7 C 0.78396 0.97678 0.99973 0.0
C8 C 0.81514 -0.00873 0.04787 0.0
C9 C 0.78782 0.95078 0.95342 0.0
C10 C 0.99596 0.96867 0.90317 0.0
C11 C 0.99877 0.86207 0.00715 0.0
C12 C 0.14807 0.0522 1.00018 0.0
C13 C 0.17597 0.02379 1.00403 0.0
C14 C 0.20811 0.03592 0.05108 0.0
C15 C 0.17539 -0.00793 0.95815 0.0
C16 C 0.24128 -0.00805 1.00388 0.0
C17 C 0.20786 0.97648 0.95809 0.0
C18 C 0.2405 0.02016 0.05098 0.0
C19 C 0.02885 -0.00154 0.10769 0.0
O20 O 0.98973 0.0565 0.01254 0.0
O21 O 0.06509 0.11042 0.99169 0.0
O22 O 0.89057 0.90949 0.96618 0.0
O23 O 0.91184 0.93887 0.05337 0.0
O24 O 0.95701 0.9175 0.91608 0.0
O25 O 0.01384 0.01093 0.94075 0.0
O26 O 0.03783 0.91659 0.99604 0.0
O27 O 0.96332 0.86172 0.02 0.0
O28 O 0.13568 0.0584 0.04661 0.0
O29 O 0.11618 0.03587 0.9579 0.0
O30 O 0.06783 0.05097 0.09656 0.0
O31 O 1.01264 0.95869 0.06867 0.0
H32 H 0.82126 0.91263 0.92075 0.0
H33 H 0.8708 0.98584 0.0892 0.0
H34 H 0.81238 0.0111 0.08409 0.0
H35 H 0.76367 0.9388 0.91611 0.0
H36 H 0.20972 0.06055 0.08693 0.0
H37 H 0.15132 0.98201 0.92112 0.0
H38 H 0.2082 0.95492 0.92129 0.0
H39 H 0.26629 0.03277 0.08658 0.0
C40 C 1.00004 0.01952 0.18587 0.0
C41 C 1.0125 0.98221 0.16348 0.0
C42 C 0.98942 0.009 0.24136 0.0
C43 C 0.96875 -0.01272 0.46623 0.0
C44 C 0.01518 0.93778 0.82235 0.0
C45 C 1.00803 0.98066 0.8455 0.0
C46 C 1.01299 0.93491 0.76427 0.0
C47 C 0.98821 0.90712 0.53561 0.0
H48 H 0.99931 0.05747 0.16074 0.0
H49 H 0.98063 0.03898 0.25835 0.0
H50 H 0.96181 0.01919 0.43988 0.0
H51 H 0.01981 0.90392 0.8491 0.0
H52 H 0.01679 0.89969 0.74706 0.0
H53 H 0.99635 0.87648 0.56206 0.0
C54 C 1.01308 0.93311 0.19654 0.0
C55 C 1.00323 0.92335 0.25235 0.0
C56 C 0.98644 0.90556 0.47733 0.0
C57 C 1.00127 0.02332 0.81017 0.0
C58 C 0.99855 0.01991 0.75194 0.0
C59 C 0.97049 -0.01118 0.52446 0.0
C60 C 0.99193 0.96181 0.27514 0.0
C61 C 0.9855 0.95537 0.33382 0.0
C62 C 0.98019 0.94961 0.38298 0.0
C63 C 0.97746 0.94643 0.44251 0.0
H64 H 0.02304 0.90429 0.17996 0.0
H65 H 1.00555 0.88694 0.27803 0.0
H66 H 0.99328 0.87377 0.45959 0.0
H67 H 0.99462 0.05564 0.82727 0.0
H68 H 0.99083 0.05068 0.72499 0.0
H69 H 0.96484 0.02185 0.54226 0.0
C70 C 1.00297 0.97428 0.72885 0.0
C71 C 0.99456 0.96501 0.66915 0.0
C72 C 0.98763 0.9566 0.61928 0.0
C73 C 0.98112 0.94971 0.55936 0.0
C74 C 0.27827 0.92967 0.01911 0.0
C75 C 0.27998 0.98584 0.99949 0.0
C76 C 0.31462 0.92382 0.01238 0.0
C77 C 0.46165 0.90867 0.98719 0.0
C78 C 0.74306 0.03272 0.97399 0.0
C79 C 0.74363 0.9802 0.99982 0.0
C80 C 0.70239 0.03115 0.96817 0.0
C81 C 0.53926 0.01678 0.94264 0.0
H82 H 0.24873 0.89031 0.03903 0.0
H83 H 0.31282 0.88007 0.02738 0.0
H84 H 0.43201 0.86702 0.00524 0.0
H85 H 0.77362 0.07394 0.95717 0.0
H86 H 0.70208 0.07146 0.9473 0.0
H87 H 0.56935 0.05921 0.92603 0.0
C88 C 0.31853 0.03629 0.97372 0.0
C89 C 0.3548 0.03046 0.9671 0.0
C90 C 0.49927 0.01584 0.94261 0.0
C91 C 0.70361 0.927 0.02103 0.0
C92 C 0.66299 0.92529 0.01492 0.0
C93 C 0.50166 0.90963 0.98724 0.0
C94 C 0.35277 0.97406 0.98602 0.0
C95 C 0.38992 0.96807 0.97831 0.0
C96 C 0.42151 0.96434 0.97132 0.0
C97 C 0.46072 0.96231 0.96586 0.0
H98 H 0.32034 0.07994 0.95837 0.0
H99 H 0.38422 0.06976 0.94689 0.0
H100 H 0.49891 0.05758 0.92597 0.0
H101 H 0.70343 0.88586 0.04064 0.0
H102 H 0.63206 0.88314 0.0303 0.0
H103 H 0.50249 0.86869 0.00532 0.0
C104 C 0.66212 0.97685 0.9877 0.0
C105 C 0.61954 0.97293 0.97859 0.0
C106 C 0.58339 0.96837 0.97153 0.0
C107 C 0.54079 0.96425 0.96596 0.0
C108 C 0.02457 0.80081 0.96888 0.0
C109 C 0.9984 0.80274 0.00682 0.0
C110 C 0.03482 0.75404 0.97485 0.0
C111 C 0.06672 0.56121 0.99225 0.0
C112 C 1.01004 0.17644 0.0478 0.0
C113 C 0.03352 0.17233 0.00744 0.0
C114 C 1.01124 0.23287 0.05211 0.0
C115 C 0.0228 0.46107 0.07175 0.0
H116 H 0.03878 0.83736 0.93574 0.0
H117 H 0.05599 0.75456 0.94588 0.0
H118 H 0.08306 0.59915 0.96066 0.0
H119 H 0.99096 0.13601 0.07643 0.0
H120 H 0.9933 0.23515 0.08394 0.0
H121 H 1.00525 0.42233 0.10233 0.0
C122 C 0.98072 0.75496 0.04949 0.0
C123 C 0.99103 0.70776 0.0554 0.0
C124 C 0.02314 0.51734 0.07314 0.0
C125 C 0.05796 0.22554 0.97097 0.0
C126 C 0.05863 0.28192 0.97486 0.0
C127 C 0.06642 0.50494 0.99089 0.0
C128 C 0.01872 0.70805 0.01859 0.0
C129 C 0.02982 0.66033 0.02459 0.0
C130 C 0.03905 0.62026 0.02975 0.0
C131 C 0.04441 0.56698 0.03284 0.0
H132 H 0.96131 0.75626 0.07988 0.0
H133 H 0.97826 0.67198 0.08929 0.0
H134 H 1.00557 0.5212 0.10452 0.0
H135 H 0.07564 0.22305 0.93894 0.0
H136 H 0.0773 0.32255 0.94624 0.0
H137 H 0.08284 0.5003 0.95851 0.0
C138 C 0.03564 0.28586 0.01582 0.0
C139 C 0.03817 0.34483 0.02171 0.0
C140 C 0.04064 0.39458 0.02606 0.0
C141 C 0.04376 0.45428 0.03003 0.0
loop_
_geom_bond_atom_site_label_1
_geom_bond_atom_site_label_2
_geom_bond_distance
_geom_bond_site_symmetry_2
_ccdc_geom_bond_type
Gd0 C3 2.818 . S
Gd0 O20 2.377 1_565 S
Gd0 O22 2.448 . S
Gd0 O23 2.506 1_556 S
Gd0 O24 2.435 . S
Gd0 O25 2.717 1_665 S
Gd0 O27 2.395 . S
Gd0 O31 2.327 1_556 S
Gd1 C12 2.818 . S
Gd1 O21 2.395 . S
Gd1 O25 2.327 1_554 S
Gd1 O26 2.377 1_545 S
Gd1 O28 2.448 . S
Gd1 O29 2.506 1_554 S
Gd1 O30 2.435 . S
Gd1 O31 2.717 1_445 S
C2 O20 1.240 1_455 S
C2 O21 1.240 1_556 S
C3 Gd0 2.818 . S
C3 C4 1.510 . S
C3 O22 1.249 . S
C3 O23 1.252 1_556 S
C4 C3 1.510 . S
C4 C5 1.404 . S
C4 C6 1.352 1_566 S
C5 C4 1.404 . S
C5 C9 1.389 . S
C5 H32 0.930 . S
C6 C4 1.352 1_544 S
C6 C8 1.374 . S
C6 H33 0.931 . S
C7 C8 1.359 1_565 S
C7 C9 1.364 1_554 S
C8 C6 1.374 . S
C8 C7 1.359 1_545 S
C8 H34 0.931 . S
C9 C5 1.389 . S
C9 C7 1.364 1_556 S
C9 H35 0.931 . S
C10 O24 1.256 . S
C10 O25 1.257 1_665 S
C11 O26 1.240 1_655 S
C11 O27 1.240 1_554 S
C12 Gd1 2.818 . S
C12 C13 1.510 . S
C12 O28 1.249 . S
C12 O29 1.252 1_554 S
C13 C12 1.510 . S
C13 C14 1.404 . S
C13 C15 1.352 1_544 S
C14 C13 1.404 . S
C14 C18 1.389 . S
C14 H36 0.930 . S
C15 C13 1.352 1_566 S
C15 C17 1.374 . S
C15 H37 0.931 . S
C16 C17 1.359 1_545 S
C16 C18 1.364 1_556 S
C17 C15 1.374 . S
C17 C16 1.359 1_565 S
C17 H38 0.931 . S
C18 C14 1.389 . S
C18 C16 1.364 1_554 S
C18 H39 0.931 . S
C19 O30 1.256 . S
C19 O31 1.257 1_445 S
O20 Gd0 2.377 1_545 S
O20 C2 1.240 1_655 S
O21 Gd1 2.395 . S
O21 C2 1.240 1_554 S
O22 Gd0 2.448 . S
O22 C3 1.249 . S
O23 Gd0 2.506 1_554 S
O23 C3 1.252 1_554 S
O24 Gd0 2.435 . S
O24 C10 1.256 . S
O25 Gd0 2.717 1_445 S
O25 Gd1 2.327 1_556 S
O25 C10 1.257 1_445 S
O26 Gd1 2.377 1_565 S
O26 C11 1.240 1_455 S
O27 Gd0 2.395 . S
O27 C11 1.240 1_556 S
O28 Gd1 2.448 . S
O28 C12 1.249 . S
O29 Gd1 2.506 1_556 S
O29 C12 1.252 1_556 S
O30 Gd1 2.435 . S
O30 C19 1.256 . S
O31 Gd0 2.327 1_554 S
O31 Gd1 2.717 1_665 S
O31 C19 1.257 1_665 S
H32 C5 0.930 . S
H33 C6 0.931 . S
H34 C8 0.931 . S
H35 C9 0.931 . S
H36 C14 0.930 . S
H37 C15 0.931 . S
H38 C17 0.931 . S
H39 C18 0.931 . S
C40 C41 1.420 1_545 S
C40 C42 1.385 . S
C40 H48 0.928 . S
C41 C40 1.420 1_565 S
C41 C54 1.420 1_655 S
C42 C40 1.385 . S
C42 H49 0.929 . S
C42 C60 1.407 1_545 S
C43 H50 0.928 1_565 S
C43 C59 1.374 . S
C43 C63 1.388 . S
C44 C45 1.420 1_455 S
C44 C46 1.385 1_455 S
C44 H51 0.928 . S
C45 C44 1.420 1_655 S
C45 C57 1.420 1_565 S
C46 C44 1.385 1_655 S
C46 H52 0.928 1_655 S
C46 C70 1.407 . S
C47 H53 0.928 . S
C47 C56 1.374 . S
C47 C73 1.388 . S
H48 C40 0.928 . S
H49 C42 0.929 . S
H50 C43 0.928 1_545 S
H51 C44 0.928 . S
H52 C46 0.928 1_455 S
H53 C47 0.928 . S
C54 C41 1.420 1_455 S
C54 C55 1.385 1_455 S
C54 H64 0.928 . S
C55 C54 1.385 1_655 S
C55 C60 1.407 . S
C55 H65 0.929 1_655 S
C56 C47 1.374 . S
C56 C63 1.388 . S
C56 H66 0.928 . S
C57 C45 1.420 1_545 S
C57 C58 1.385 . S
C57 H67 0.928 . S
C58 C57 1.385 . S
C58 H68 0.929 . S
C58 C70 1.407 1_545 S
C59 C43 1.374 . S
C59 H69 0.928 1_565 S
C59 C73 1.388 . S
C60 C42 1.407 1_565 S
C60 C55 1.407 . S
C60 C61 1.428 . S
C61 C60 1.428 . S
C61 C62 1.230 . S
C62 C61 1.230 . S
C62 C63 1.405 . S
C63 C43 1.388 . S
C63 C56 1.388 . S
C63 C62 1.405 . S
H64 C54 0.928 . S
H65 C55 0.929 1_455 S
H66 C56 0.928 . S
H67 C57 0.928 . S
H68 C58 0.929 . S
H69 C59 0.928 1_545 S
C70 C46 1.407 . S
C70 C58 1.407 1_565 S
C70 C71 1.428 . S
C71 C70 1.428 . S
C71 C72 1.230 . S
C72 C71 1.230 . S
C72 C73 1.405 . S
C73 C47 1.388 . S
C73 C59 1.388 . S
C73 C72 1.405 . S
C74 C75 1.420 1_554 S
C74 C76 1.385 . S
C74 H82 0.928 . S
C75 C74 1.420 1_556 S
C75 C88 1.420 1_565 S
C76 C74 1.385 . S
C76 H83 0.929 . S
C76 C94 1.407 1_554 S
C77 H84 0.928 . S
C77 C93 1.374 . S
C77 C97 1.388 . S
C78 C79 1.420 1_545 S
C78 C80 1.385 . S
C78 H85 0.928 . S
C79 C78 1.420 1_565 S
C79 C91 1.420 1_556 S
C80 C78 1.385 . S
C80 H86 0.929 . S
C80 C104 1.407 1_545 S
C81 H87 0.928 . S
C81 C90 1.374 . S
C81 C107 1.388 1_545 S
H82 C74 0.928 . S
H83 C76 0.929 . S
H84 C77 0.928 . S
H85 C78 0.928 . S
H86 C80 0.929 . S
H87 C81 0.928 . S
C88 C75 1.420 1_545 S
C88 C89 1.385 . S
C88 H98 0.928 . S
C89 C88 1.385 . S
C89 C94 1.407 1_545 S
C89 H99 0.929 . S
C90 C81 1.374 . S
C90 C97 1.388 1_545 S
C90 H100 0.928 . S
C91 C79 1.420 1_554 S
C91 C92 1.385 . S
C91 H101 0.928 . S
C92 C91 1.385 . S
C92 H102 0.929 . S
C92 C104 1.407 1_554 S
C93 C77 1.374 . S
C93 H103 0.928 . S
C93 C107 1.388 . S
C94 C76 1.407 1_556 S
C94 C89 1.407 1_565 S
C94 C95 1.428 . S
C95 C94 1.428 . S
C95 C96 1.230 . S
C96 C95 1.230 . S
C96 C97 1.405 . S
C97 C77 1.388 . S
C97 C90 1.388 1_565 S
C97 C96 1.405 . S
H98 C88 0.928 . S
H99 C89 0.929 . S
H100 C90 0.928 . S
H101 C91 0.928 . S
H102 C92 0.929 . S
H103 C93 0.928 . S
C104 C80 1.407 1_565 S
C104 C92 1.407 1_556 S
C104 C105 1.428 . S
C105 C104 1.428 . S
C105 C106 1.230 . S
C106 C105 1.230 . S
C106 C107 1.405 . S
C107 C81 1.388 1_565 S
C107 C93 1.388 . S
C107 C106 1.405 . S
C108 C109 1.420 1_556 S
C108 C110 1.385 . S
C108 H116 0.928 . S
C109 C108 1.420 1_554 S
C109 C122 1.420 1_455 S
C110 C108 1.385 . S
C110 H117 0.929 . S
C110 C128 1.407 1_556 S
C111 H118 0.928 . S
C111 C127 1.374 . S
C111 C131 1.388 1_556 S
C112 C113 1.420 1_655 S
C112 C114 1.385 . S
C112 H119 0.928 . S
C113 C112 1.420 1_455 S
C113 C125 1.420 1_554 S
C114 C112 1.385 . S
C114 H120 0.929 . S
C114 C138 1.407 1_655 S
C115 H121 0.928 1_455 S
C115 C124 1.374 . S
C115 C141 1.388 . S
H116 C108 0.928 . S
H117 C110 0.929 . S
H118 C111 0.928 . S
H119 C112 0.928 . S
H120 C114 0.929 . S
H121 C115 0.928 1_655 S
C122 C109 1.420 1_655 S
C122 C123 1.385 . S
C122 H132 0.928 . S
C123 C122 1.385 . S
C123 C128 1.407 1_655 S
C123 H133 0.929 . S
C124 C115 1.374 . S
C124 C131 1.388 . S
C124 H134 0.928 1_455 S
C125 C113 1.420 1_556 S
C125 C126 1.385 . S
C125 H135 0.928 . S
C126 C125 1.385 . S
C126 H136 0.929 . S
C126 C138 1.407 1_556 S
C127 C111 1.374 . S
C127 H137 0.928 . S
C127 C141 1.388 1_556 S
C128 C110 1.407 1_554 S
C128 C123 1.407 1_455 S
C128 C129 1.428 . S
C129 C128 1.428 . S
C129 C130 1.230 . S
C130 C129 1.230 . S
C130 C131 1.405 . S
C131 C111 1.388 1_554 S
C131 C124 1.388 . S
C131 C130 1.405 . S
H132 C122 0.928 . S
H133 C123 0.929 . S
H134 C124 0.928 1_655 S
H135 C125 0.928 . S
H136 C126 0.929 . S
H137 C127 0.928 . S
C138 C114 1.407 1_455 S
C138 C126 1.407 1_554 S
C138 C139 1.428 . S
C139 C138 1.428 . S
C139 C140 1.230 . S
C140 C139 1.230 . S
C140 C141 1.405 . S
C141 C115 1.388 . S
C141 C127 1.388 1_554 S
C141 C140 1.405 . S
C41 C19 1.469 1_665 S
C45 C10 1.447 . S
C75 C16 1.498 1_565 S
C79 C7 1.498 1_556 S
C109 C11 1.494 1_455 S
C113 C2 1.495 1_554 S
