# Generated by pormake.
# Topology umb, (4)-cn, num edge types: 1
# Building blocks:
#     Node 0, Type 0, BuildingBlock: QUQFOY_clean_sbu_1, # of connection points: 4
#     Node 1, Type 0, BuildingBlock: QUQFOY_clean_sbu_1, # of connection points: 4
#     Node 2, Type 0, BuildingBlock: QUQFOY_clean_sbu_1, # of connection points: 4
#     Node 3, Type 0, BuildingBlock: QUQFOY_clean_sbu_1, # of connection points: 4
#     Node 4, Type 0, BuildingBlock: QUQFOY_clean_sbu_1, # of connection points: 4
#     Node 5, Type 0, BuildingBlock: QUQFOY_clean_sbu_1, # of connection points: 4
#     Node 6, Type 0, BuildingBlock: QUQFOY_clean_sbu_1, # of connection points: 4
#     Node 7, Type 0, BuildingBlock: QUQFOY_clean_sbu_1, # of connection points: 4
#     Node 8, Type 0, BuildingBlock: QUQFOY_clean_sbu_1, # of connection points: 4
#     Node 9, Type 0, BuildingBlock: QUQFOY_clean_sbu_1, # of connection points: 4
#     Node 10, Type 0, BuildingBlock: QUQFOY_clean_sbu_1, # of connection points: 4
#     Node 11, Type 0, BuildingBlock: QUQFOY_clean_sbu_1, # of connection points: 4
#     Edge 12, Type (0, 0), None
#     Edge 13, Type (0, 0), None
#     Edge 14, Type (0, 0), None
#     Edge 15, Type (0, 0), None
#     Edge 16, Type (0, 0), None
#     Edge 17, Type (0, 0), None
#     Edge 18, Type (0, 0), None
#     Edge 19, Type (0, 0), None
#     Edge 20, Type (0, 0), None
#     Edge 21, Type (0, 0), None
#     Edge 22, Type (0, 0), None
#     Edge 23, Type (0, 0), None
#     Edge 24, Type (0, 0), None
#     Edge 25, Type (0, 0), None
#     Edge 26, Type (0, 0), None
#     Edge 27, Type (0, 0), None
#     Edge 28, Type (0, 0), None
#     Edge 29, Type (0, 0), None
#     Edge 30, Type (0, 0), None
#     Edge 31, Type (0, 0), None
#     Edge 32, Type (0, 0), None
#     Edge 33, Type (0, 0), None
#     Edge 34, Type (0, 0), None
#     Edge 35, Type (0, 0), None
# Relax obj value: 0.087
# Max RMSD: 0.169
# Mean RMSD: 0.168
data_MOF--net-umb--node1-QUQFOY_clean_sbu_1--edge1-none
_symmetry_space_group_name_H-M    P1
_symmetry_Int_Tables_number       1
_symmetry_cell_setting            triclinic
loop_
_symmetry_equiv_pos_as_xyz
'x, y, z'
_cell_length_a     24.166135
_cell_length_b     24.168071
_cell_length_c     14.633798
_cell_angle_alpha  89.998783
_cell_angle_beta   90.000606
_cell_angle_gamma 120.00585
loop_
_atom_site_label
_atom_site_type_symbol
_atom_site_fract_x
_atom_site_fract_y
_atom_site_fract_z
_atom_type_partial_charge
O0 O 0.60572 0.1037 0.57329 0.0
Cd1 Cd 0.62263 0.12086 0.43884 0.0
Cd2 Cd 0.5691 0.19238 0.46598 0.0
O3 O 0.52611 0.12421 0.57 0.0
O4 O 0.59434 0.03797 0.37537 0.0
O5 O 0.54077 0.09066 0.37199 0.0
C6 C 0.5418 0.03834 0.35813 0.0
C7 C 0.53677 0.24705 0.362 0.0
C8 C 0.55965 0.10465 0.61264 0.0
C9 C 0.71123 0.24927 0.48487 0.0
O10 O 0.66051 0.24947 0.50568 0.0
O11 O 0.70927 0.20587 0.4328 0.0
O12 O 0.53737 0.25568 0.44922 0.0
O13 O 0.54775 0.20274 0.33417 0.0
O14 O 0.50993 0.60236 0.90664 0.0
Cd15 Cd 0.50968 0.61926 0.77219 0.0
Cd16 Cd 0.38462 0.56574 0.79935 0.0
O17 O 0.4098 0.52276 0.90336 0.0
O18 O 0.56427 0.59096 0.70872 0.0
O19 O 0.45799 0.53739 0.70538 0.0
C20 C 0.51134 0.53841 0.69151 0.0
C21 C 0.29762 0.53341 0.69535 0.0
C22 C 0.46292 0.5563 0.946 0.0
C23 C 0.46987 0.70786 0.81822 0.0
O24 O 0.41895 0.65715 0.83906 0.0
O25 O 0.5113 0.70589 0.76613 0.0
O26 O 0.28958 0.534 0.78258 0.0
O27 O 0.35293 0.54441 0.66753 0.0
O28 O 0.91547 0.50655 0.23996 0.0
Cd29 Cd 0.89831 0.50629 1.10551 0.0
Cd30 Cd 0.82677 0.38124 1.13267 0.0
O31 O 0.89494 0.40643 0.23668 0.0
O32 O 0.98121 0.56089 1.04203 0.0
O33 O 0.92849 0.45462 1.03868 0.0
C34 C 0.98082 0.50796 1.02481 0.0
C35 C 0.77209 0.29424 1.02867 0.0
C36 C 0.91452 0.45954 0.27931 0.0
C37 C 0.76989 0.46647 1.15155 0.0
O38 O 0.76968 0.41556 0.17237 0.0
O39 O 0.8133 0.50791 1.09947 0.0
O40 O 0.76346 0.28621 1.1159 0.0
O41 O 0.81641 0.34955 1.00085 0.0
O42 O 0.41683 0.91208 0.57327 0.0
Cd43 Cd 0.3999 0.89492 0.43882 0.0
Cd44 Cd 0.45344 0.8234 0.46596 0.0
O45 O 0.49642 0.89157 0.56998 0.0
O46 O 0.42817 0.97782 0.37535 0.0
O47 O 0.48176 0.92511 0.37196 0.0
C48 C 0.48071 0.97742 0.35812 0.0
C49 C 0.48577 0.76873 0.36199 0.0
C50 C 0.46289 0.91114 0.61262 0.0
C51 C 0.31131 0.76652 0.48486 0.0
O52 O 0.36202 0.76632 0.50566 0.0
O53 O 0.31326 0.80992 0.4328 0.0
O54 O 0.48516 0.7601 0.44922 0.0
O55 O 0.47479 0.81304 0.33416 0.0
O56 O 0.5126 0.41341 0.90662 0.0
Cd57 Cd 0.51285 0.39651 0.77217 0.0
Cd58 Cd 0.63791 0.45003 0.79932 0.0
O59 O 0.61273 0.49301 0.90334 0.0
O60 O 0.45823 0.42479 0.70872 0.0
O61 O 0.56453 0.47838 0.70535 0.0
C62 C 0.51117 0.47733 0.6915 0.0
C63 C 0.72492 0.48237 0.69533 0.0
C64 C 0.55962 0.45948 0.94597 0.0
C65 C 0.55266 0.30791 0.81821 0.0
O66 O 0.60358 0.35862 0.83903 0.0
O67 O 0.51122 0.30988 0.76614 0.0
O68 O 0.73295 0.48176 0.78255 0.0
O69 O 0.66961 0.47137 0.66751 0.0
O70 O 0.10707 0.50923 0.23996 0.0
Cd71 Cd 0.12423 0.50947 1.10551 0.0
Cd72 Cd 0.19577 0.63453 1.13265 0.0
O73 O 0.12761 0.60935 0.23668 0.0
O74 O 0.04132 0.45485 1.04204 0.0
O75 O 0.09406 0.56115 1.03866 0.0
C76 C 0.04173 0.50779 1.02481 0.0
C77 C 0.25044 0.72153 1.02865 0.0
C78 C 0.10803 0.55624 0.27931 0.0
C79 C 0.25265 0.54929 1.15155 0.0
O80 O 0.25286 0.60021 0.17235 0.0
O81 O 0.20924 0.50784 1.09949 0.0
O82 O 0.25908 0.72956 1.11588 0.0
O83 O 0.20613 0.66623 1.00083 0.0
O84 O 0.9155 0.41346 0.41839 0.0
Cd85 Cd 0.89832 0.39652 0.55283 0.0
Cd86 Cd 0.82678 0.45006 0.52568 0.0
O87 O 0.89497 0.49306 0.42169 0.0
O88 O 0.98122 0.42483 0.61633 0.0
O89 O 0.92849 0.47837 0.61968 0.0
C90 C 0.98082 0.47736 0.63355 0.0
C91 C 0.77209 0.48236 0.62967 0.0
C92 C 0.91456 0.45954 0.37907 0.0
C93 C 0.76991 0.30794 0.50675 0.0
O94 O 0.7697 0.35865 0.48595 0.0
O95 O 0.8133 0.30989 0.55883 0.0
O96 O 0.76347 0.48178 0.54244 0.0
O97 O 0.81641 0.47138 0.6575 0.0
O98 O 0.50995 0.91211 0.75169 0.0
Cd99 Cd 0.5097 0.89494 0.88614 0.0
Cd100 Cd 0.38461 0.82339 0.85898 0.0
O101 O 0.40981 0.89158 0.755 0.0
O102 O 0.56429 0.97784 0.94963 0.0
O103 O 0.45801 0.92511 0.95296 0.0
C104 C 0.51135 0.97744 0.96684 0.0
C105 C 0.29763 0.7687 0.96298 0.0
C106 C 0.46292 0.91117 0.71238 0.0
C107 C 0.46987 0.76654 0.84007 0.0
O108 O 0.41895 0.76632 0.81925 0.0
O109 O 0.51131 0.80993 0.89216 0.0
O110 O 0.28958 0.76008 0.87576 0.0
O111 O 0.35294 0.81302 0.99081 0.0
O112 O 0.60571 0.50653 1.08505 0.0
Cd113 Cd 0.62264 0.5063 0.21949 0.0
Cd114 Cd 0.56909 0.38122 0.19235 0.0
O115 O 0.52609 0.4064 1.08836 0.0
O116 O 0.59434 0.56089 0.28297 0.0
O117 O 0.54078 0.45462 0.28634 0.0
C118 C 0.5418 0.50797 0.3002 0.0
C119 C 0.53678 0.29423 0.29634 0.0
C120 C 0.55962 0.45951 1.04574 0.0
C121 C 0.71121 0.46647 0.17342 0.0
O122 O 0.6605 0.41555 1.15262 0.0
O123 O 0.70927 0.50791 0.2255 0.0
O124 O 0.53735 0.28619 0.20911 0.0
O125 O 0.54777 0.34953 0.32417 0.0
O126 O 0.10704 0.60232 0.41838 0.0
Cd127 Cd 0.12421 0.61927 0.55283 0.0
Cd128 Cd 0.19576 0.56572 0.5257 0.0
O129 O 0.12758 0.52272 0.4217 0.0
O130 O 0.04132 0.59098 0.61631 0.0
O131 O 0.09406 0.53743 0.6197 0.0
C132 C 0.04173 0.53846 0.63356 0.0
C133 C 0.25044 0.53342 0.62969 0.0
C134 C 0.10798 0.55624 0.37908 0.0
C135 C 0.25263 0.70784 0.50675 0.0
O136 O 0.25284 0.65713 0.48598 0.0
O137 O 0.20923 0.7059 0.55881 0.0
O138 O 0.25907 0.53401 0.54246 0.0
O139 O 0.20612 0.5444 0.65752 0.0
O140 O 0.51259 0.10366 0.75171 0.0
Cd141 Cd 0.51282 0.12082 0.88616 0.0
Cd142 Cd 0.63792 0.19239 0.85901 0.0
O143 O 0.61273 0.1242 0.75502 0.0
O144 O 0.45822 0.03792 0.94963 0.0
O145 O 0.56452 0.09067 0.953 0.0
C146 C 0.51116 0.03834 0.96685 0.0
C147 C 0.7249 0.24707 0.96301 0.0
C148 C 0.55961 0.10461 0.7124 0.0
C149 C 0.55266 0.24923 0.84008 0.0
O150 O 0.60358 0.24945 0.81928 0.0
O151 O 0.51121 0.20584 0.89215 0.0
O152 O 0.73295 0.25569 0.87578 0.0
O153 O 0.6696 0.20275 0.99083 0.0
O154 O 0.41684 0.50924 1.08507 0.0
Cd155 Cd 0.3999 0.50946 0.21951 0.0
Cd156 Cd 0.45345 0.63455 0.19237 0.0
O157 O 0.49645 0.60937 1.08838 0.0
O158 O 0.42817 0.45485 0.28299 0.0
O159 O 0.48175 0.56115 0.28637 0.0
C160 C 0.48071 0.50779 0.30022 0.0
C161 C 0.48576 0.72154 0.29634 0.0
C162 C 0.46292 0.55626 1.04576 0.0
C163 C 0.31132 0.54929 0.17343 0.0
O164 O 0.36204 0.60021 1.15264 0.0
O165 O 0.31326 0.50784 0.22551 0.0
O166 O 0.48518 0.72958 0.20911 0.0
O167 O 0.47478 0.66625 0.32418 0.0
loop_
_geom_bond_atom_site_label_1
_geom_bond_atom_site_label_2
_geom_bond_distance
_geom_bond_site_symmetry_2
_ccdc_geom_bond_type
O0 Cd1 2.223 . S
O0 C8 1.315 . S
Cd1 O0 2.223 . S
Cd1 O4 2.297 . S
Cd1 O5 2.439 . S
Cd1 O11 2.240 . S
Cd2 O3 2.240 . S
Cd2 O10 2.223 . S
Cd2 O12 2.297 . S
Cd2 O13 2.439 . S
O3 Cd2 2.240 . S
O3 C8 1.279 . S
O4 Cd1 2.297 . S
O4 C6 1.247 . S
O5 Cd1 2.439 . S
O5 C6 1.208 . S
C6 O4 1.247 . S
C6 O5 1.208 . S
C7 O12 1.247 . S
C7 O13 1.208 . S
C8 O0 1.315 . S
C8 O3 1.279 . S
C9 O10 1.315 . S
C9 O11 1.279 . S
O10 Cd2 2.223 . S
O10 C9 1.315 . S
O11 Cd1 2.240 . S
O11 C9 1.279 . S
O12 Cd2 2.297 . S
O12 C7 1.247 . S
O13 Cd2 2.439 . S
O13 C7 1.208 . S
O14 Cd15 2.223 . S
O14 C22 1.315 . S
Cd15 O14 2.223 . S
Cd15 O18 2.297 . S
Cd15 O19 2.439 . S
Cd15 O25 2.240 . S
Cd16 O17 2.240 . S
Cd16 O24 2.223 . S
Cd16 O26 2.297 . S
Cd16 O27 2.439 . S
O17 Cd16 2.240 . S
O17 C22 1.279 . S
O18 Cd15 2.297 . S
O18 C20 1.247 . S
O19 Cd15 2.439 . S
O19 C20 1.208 . S
C20 O18 1.247 . S
C20 O19 1.208 . S
C21 O26 1.247 . S
C21 O27 1.208 . S
C22 O14 1.315 . S
C22 O17 1.279 . S
C23 O24 1.315 . S
C23 O25 1.279 . S
O24 Cd16 2.223 . S
O24 C23 1.315 . S
O25 Cd15 2.240 . S
O25 C23 1.279 . S
O26 Cd16 2.297 . S
O26 C21 1.247 . S
O27 Cd16 2.439 . S
O27 C21 1.208 . S
O28 Cd29 2.223 . S
O28 C36 1.315 . S
Cd29 O28 2.223 . S
Cd29 O32 2.297 . S
Cd29 O33 2.439 1_554 S
Cd29 O39 2.240 1_554 S
Cd30 O31 2.240 . S
Cd30 O38 2.223 . S
Cd30 O40 2.297 1_554 S
Cd30 O41 2.439 1_554 S
O31 Cd30 2.240 . S
O31 C36 1.279 . S
O32 Cd29 2.297 . S
O32 C34 1.247 1_554 S
O33 Cd29 2.439 1_556 S
O33 C34 1.208 . S
C34 O32 1.247 1_556 S
C34 O33 1.208 . S
C35 O40 1.247 . S
C35 O41 1.208 . S
C36 O28 1.315 . S
C36 O31 1.279 . S
C37 O38 1.315 . S
C37 O39 1.279 1_554 S
O38 Cd30 2.223 . S
O38 C37 1.315 . S
O39 Cd29 2.240 1_556 S
O39 C37 1.279 1_556 S
O40 Cd30 2.297 1_556 S
O40 C35 1.247 . S
O41 Cd30 2.439 1_556 S
O41 C35 1.208 . S
O42 Cd43 2.223 . S
O42 C50 1.315 . S
Cd43 O42 2.223 . S
Cd43 O46 2.297 . S
Cd43 O47 2.439 . S
Cd43 O53 2.240 . S
Cd44 O45 2.240 . S
Cd44 O52 2.223 . S
Cd44 O54 2.297 . S
Cd44 O55 2.439 . S
O45 Cd44 2.240 . S
O45 C50 1.279 . S
O46 Cd43 2.297 . S
O46 C48 1.247 . S
O47 Cd43 2.439 . S
O47 C48 1.208 . S
C48 O46 1.247 . S
C48 O47 1.208 . S
C49 O54 1.247 . S
C49 O55 1.208 . S
C50 O42 1.315 . S
C50 O45 1.279 . S
C51 O52 1.315 . S
C51 O53 1.279 . S
O52 Cd44 2.223 . S
O52 C51 1.315 . S
O53 Cd43 2.240 . S
O53 C51 1.279 . S
O54 Cd44 2.297 . S
O54 C49 1.247 . S
O55 Cd44 2.439 . S
O55 C49 1.208 . S
O56 Cd57 2.223 . S
O56 C64 1.315 . S
Cd57 O56 2.223 . S
Cd57 O60 2.297 . S
Cd57 O61 2.439 . S
Cd57 O67 2.240 . S
Cd58 O59 2.240 . S
Cd58 O66 2.223 . S
Cd58 O68 2.297 . S
Cd58 O69 2.439 . S
O59 Cd58 2.240 . S
O59 C64 1.279 . S
O60 Cd57 2.297 . S
O60 C62 1.247 . S
O61 Cd57 2.439 . S
O61 C62 1.208 . S
C62 O60 1.247 . S
C62 O61 1.208 . S
C63 O68 1.247 . S
C63 O69 1.208 . S
C64 O56 1.315 . S
C64 O59 1.279 . S
C65 O66 1.315 . S
C65 O67 1.279 . S
O66 Cd58 2.223 . S
O66 C65 1.315 . S
O67 Cd57 2.240 . S
O67 C65 1.279 . S
O68 Cd58 2.297 . S
O68 C63 1.247 . S
O69 Cd58 2.439 . S
O69 C63 1.208 . S
O70 Cd71 2.223 . S
O70 C78 1.315 . S
Cd71 O70 2.223 . S
Cd71 O74 2.297 . S
Cd71 O75 2.439 1_554 S
Cd71 O81 2.240 1_554 S
Cd72 O73 2.240 . S
Cd72 O80 2.223 . S
Cd72 O82 2.297 1_554 S
Cd72 O83 2.439 1_554 S
O73 Cd72 2.240 . S
O73 C78 1.279 . S
O74 Cd71 2.297 . S
O74 C76 1.247 1_554 S
O75 Cd71 2.439 1_556 S
O75 C76 1.208 . S
C76 O74 1.247 1_556 S
C76 O75 1.208 . S
C77 O82 1.247 . S
C77 O83 1.208 . S
C78 O70 1.315 . S
C78 O73 1.279 . S
C79 O80 1.315 . S
C79 O81 1.279 1_554 S
O80 Cd72 2.223 . S
O80 C79 1.315 . S
O81 Cd71 2.240 1_556 S
O81 C79 1.279 1_556 S
O82 Cd72 2.297 1_556 S
O82 C77 1.247 . S
O83 Cd72 2.439 1_556 S
O83 C77 1.208 . S
O84 Cd85 2.223 . S
O84 C92 1.315 . S
Cd85 O84 2.223 . S
Cd85 O88 2.297 . S
Cd85 O89 2.439 . S
Cd85 O95 2.240 . S
Cd86 O87 2.240 . S
Cd86 O94 2.223 . S
Cd86 O96 2.297 . S
Cd86 O97 2.439 . S
O87 Cd86 2.240 . S
O87 C92 1.279 . S
O88 Cd85 2.297 . S
O88 C90 1.247 . S
O89 Cd85 2.439 . S
O89 C90 1.208 . S
C90 O88 1.247 . S
C90 O89 1.208 . S
C91 O96 1.247 . S
C91 O97 1.208 . S
C92 O84 1.315 . S
C92 O87 1.279 . S
C93 O94 1.315 . S
C93 O95 1.279 . S
O94 Cd86 2.223 . S
O94 C93 1.315 . S
O95 Cd85 2.240 . S
O95 C93 1.279 . S
O96 Cd86 2.297 . S
O96 C91 1.247 . S
O97 Cd86 2.439 . S
O97 C91 1.208 . S
O98 Cd99 2.223 . S
O98 C106 1.315 . S
Cd99 O98 2.223 . S
Cd99 O102 2.297 . S
Cd99 O103 2.439 . S
Cd99 O109 2.240 . S
Cd100 O101 2.240 . S
Cd100 O108 2.223 . S
Cd100 O110 2.297 . S
Cd100 O111 2.439 . S
O101 Cd100 2.240 . S
O101 C106 1.279 . S
O102 Cd99 2.297 . S
O102 C104 1.247 . S
O103 Cd99 2.439 . S
O103 C104 1.208 . S
C104 O102 1.247 . S
C104 O103 1.208 . S
C105 O110 1.247 . S
C105 O111 1.208 . S
C106 O98 1.315 . S
C106 O101 1.279 . S
C107 O108 1.315 . S
C107 O109 1.279 . S
O108 Cd100 2.223 . S
O108 C107 1.315 . S
O109 Cd99 2.240 . S
O109 C107 1.279 . S
O110 Cd100 2.297 . S
O110 C105 1.247 . S
O111 Cd100 2.439 . S
O111 C105 1.208 . S
O112 Cd113 2.223 . S
O112 C120 1.315 . S
Cd113 O112 2.223 . S
Cd113 O116 2.297 . S
Cd113 O117 2.439 1_556 S
Cd113 O123 2.240 1_556 S
Cd114 O115 2.240 . S
Cd114 O122 2.223 . S
Cd114 O124 2.297 1_556 S
Cd114 O125 2.439 1_556 S
O115 Cd114 2.240 . S
O115 C120 1.279 . S
O116 Cd113 2.297 . S
O116 C118 1.247 1_556 S
O117 Cd113 2.439 1_554 S
O117 C118 1.208 . S
C118 O116 1.247 1_554 S
C118 O117 1.208 . S
C119 O124 1.247 . S
C119 O125 1.208 . S
C120 O112 1.315 . S
C120 O115 1.279 . S
C121 O122 1.315 . S
C121 O123 1.279 1_556 S
O122 Cd114 2.223 . S
O122 C121 1.315 . S
O123 Cd113 2.240 1_554 S
O123 C121 1.279 1_554 S
O124 Cd114 2.297 1_554 S
O124 C119 1.247 . S
O125 Cd114 2.439 1_554 S
O125 C119 1.208 . S
O126 Cd127 2.223 . S
O126 C134 1.315 . S
Cd127 O126 2.223 . S
Cd127 O130 2.297 . S
Cd127 O131 2.439 . S
Cd127 O137 2.240 . S
Cd128 O129 2.240 . S
Cd128 O136 2.223 . S
Cd128 O138 2.297 . S
Cd128 O139 2.439 . S
O129 Cd128 2.240 . S
O129 C134 1.279 . S
O130 Cd127 2.297 . S
O130 C132 1.247 . S
O131 Cd127 2.439 . S
O131 C132 1.208 . S
C132 O130 1.247 . S
C132 O131 1.208 . S
C133 O138 1.247 . S
C133 O139 1.208 . S
C134 O126 1.315 . S
C134 O129 1.279 . S
C135 O136 1.315 . S
C135 O137 1.279 . S
O136 Cd128 2.223 . S
O136 C135 1.315 . S
O137 Cd127 2.240 . S
O137 C135 1.279 . S
O138 Cd128 2.297 . S
O138 C133 1.247 . S
O139 Cd128 2.439 . S
O139 C133 1.208 . S
O140 Cd141 2.223 . S
O140 C148 1.315 . S
Cd141 O140 2.223 . S
Cd141 O144 2.297 . S
Cd141 O145 2.439 . S
Cd141 O151 2.240 . S
Cd142 O143 2.240 . S
Cd142 O150 2.223 . S
Cd142 O152 2.297 . S
Cd142 O153 2.439 . S
O143 Cd142 2.240 . S
O143 C148 1.279 . S
O144 Cd141 2.297 . S
O144 C146 1.247 . S
O145 Cd141 2.439 . S
O145 C146 1.208 . S
C146 O144 1.247 . S
C146 O145 1.208 . S
C147 O152 1.247 . S
C147 O153 1.208 . S
C148 O140 1.315 . S
C148 O143 1.279 . S
C149 O150 1.315 . S
C149 O151 1.279 . S
O150 Cd142 2.223 . S
O150 C149 1.315 . S
O151 Cd141 2.240 . S
O151 C149 1.279 . S
O152 Cd142 2.297 . S
O152 C147 1.247 . S
O153 Cd142 2.439 . S
O153 C147 1.208 . S
O154 Cd155 2.223 . S
O154 C162 1.315 . S
Cd155 O154 2.223 . S
Cd155 O158 2.297 . S
Cd155 O159 2.439 1_556 S
Cd155 O165 2.240 1_556 S
Cd156 O157 2.240 . S
Cd156 O164 2.223 . S
Cd156 O166 2.297 1_556 S
Cd156 O167 2.439 1_556 S
O157 Cd156 2.240 . S
O157 C162 1.279 . S
O158 Cd155 2.297 . S
O158 C160 1.247 1_556 S
O159 Cd155 2.439 1_554 S
O159 C160 1.208 . S
C160 O158 1.247 1_554 S
C160 O159 1.208 . S
C161 O166 1.247 . S
C161 O167 1.208 . S
C162 O154 1.315 . S
C162 O157 1.279 . S
C163 O164 1.315 . S
C163 O165 1.279 1_556 S
O164 Cd156 2.223 . S
O164 C163 1.315 . S
O165 Cd155 2.240 1_554 S
O165 C163 1.279 1_554 S
O166 Cd156 2.297 1_554 S
O166 C161 1.247 . S
O167 Cd156 2.439 1_554 S
O167 C161 1.208 . S
C8 C148 1.727 . S
C22 C162 1.769 . S
C92 C36 1.769 . S
C50 C106 1.727 . S
C120 C64 1.769 . S
C134 C78 1.769 . S
C93 C9 0.877 . S
C107 C23 0.877 . S
C121 C37 0.850 1_556 S
C51 C135 0.877 . S
C65 C149 0.877 . S
C79 C163 0.850 1_554 S
C6 C48 1.361 1_545 S
C20 C62 1.365 . S
C34 C76 1.360 1_655 S
C132 C90 1.364 1_455 S
C146 C104 1.361 1_545 S
C160 C118 1.360 . S
C7 C119 1.512 . S
C133 C21 1.553 . S
C35 C147 1.512 . S
C161 C49 1.512 . S
C63 C91 1.553 . S
C77 C105 1.512 . S
