# Generated by pormake.
# Topology sxc, (6)-cn, num edge types: 1
# Building blocks:
#     Node 0, Type 0, BuildingBlock: LEVNOQ01_clean_sbu_1, # of connection points: 6
#     Node 1, Type 0, BuildingBlock: LEVNOQ01_clean_sbu_1, # of connection points: 6
#     Node 2, Type 0, BuildingBlock: LEVNOQ01_clean_sbu_1, # of connection points: 6
#     Edge 3, Type (0, 0), BuildingBlock: OJICUG_clean_linker_0, # of connection points: 2
#     Edge 4, Type (0, 0), BuildingBlock: OJICUG_clean_linker_0, # of connection points: 2
#     Edge 5, Type (0, 0), BuildingBlock: OJICUG_clean_linker_0, # of connection points: 2
#     Edge 6, Type (0, 0), BuildingBlock: OJICUG_clean_linker_0, # of connection points: 2
#     Edge 7, Type (0, 0), BuildingBlock: OJICUG_clean_linker_0, # of connection points: 2
#     Edge 8, Type (0, 0), BuildingBlock: OJICUG_clean_linker_0, # of connection points: 2
#     Edge 9, Type (0, 0), BuildingBlock: OJICUG_clean_linker_0, # of connection points: 2
#     Edge 10, Type (0, 0), BuildingBlock: OJICUG_clean_linker_0, # of connection points: 2
#     Edge 11, Type (0, 0), BuildingBlock: OJICUG_clean_linker_0, # of connection points: 2
# Relax obj value: 0.102
# Max RMSD: 0.150
# Mean RMSD: 0.143
data_MOF--net-sxc--node1-LEVNOQ01_clean_sbu_1--edge1-OJICUG_clean_linker_0
_symmetry_space_group_name_H-M    P1
_symmetry_Int_Tables_number       1
_symmetry_cell_setting            triclinic
loop_
_symmetry_equiv_pos_as_xyz
'x, y, z'
_cell_length_a     11.58449
_cell_length_b     11.722442
_cell_length_c     33.690049
_cell_angle_alpha  101.00761
_cell_angle_beta   89.522049
_cell_angle_gamma 119.96787
loop_
_atom_site_label
_atom_site_type_symbol
_atom_site_fract_x
_atom_site_fract_y
_atom_site_fract_z
_atom_type_partial_charge
O0 O 0.7449 0.68761 0.95815 0.0
Mg1 Mg 0.68227 0.81471 0.9405 0.0
O2 O 0.91236 0.84285 1.00461 0.0
Mg3 Mg 0.86228 0.01201 0.01466 0.0
O4 O 0.84472 0.00194 0.94408 0.0
O5 O 0.71752 0.86825 0.88595 0.0
O6 O 0.80004 0.17495 0.02047 0.0
O7 O 0.08524 0.18458 0.01123 0.0
Mg8 Mg 0.00869 0.20145 0.08275 0.0
O9 O 0.88001 0.00864 0.08604 0.0
O10 O 0.95955 0.33513 0.06651 0.0
O11 O 0.1988 0.23916 0.06999 0.0
O12 O 0.97103 0.18515 0.1398 0.0
C13 C 0.52809 0.7802 1.00072 0.0
C14 C 0.84116 0.72135 0.98428 0.0
C15 C 0.81976 0.98012 0.90475 0.0
C16 C 0.86566 0.29769 0.03961 0.0
C17 C 0.19644 0.25354 0.03392 0.0
C18 C 0.9059 0.05662 0.12546 0.0
O19 O 0.51173 0.80066 0.9663 0.0
O20 O 0.64568 0.84267 0.01901 0.0
O21 O 0.50056 0.03313 0.27037 0.0
Mg22 Mg 0.29739 0.88337 0.26172 0.0
O23 O 0.45316 0.04636 0.33361 0.0
Mg24 Mg 0.23273 -0.00638 0.33896 0.0
O25 O 0.15094 0.92887 0.26889 0.0
O26 O 0.1905 0.83903 0.20879 0.0
O27 O 0.02 0.9559 0.34798 0.0
O28 O 0.27809 0.19896 0.32636 0.0
Mg29 Mg 0.2915 0.19989 0.39583 0.0
O30 O 0.29492 0.0442 0.41227 0.0
O31 O 0.09482 0.16387 0.38302 0.0
O32 O 0.44632 0.34849 0.3701 0.0
O33 O 0.3462 0.24172 0.45452 0.0
C34 C 0.21083 0.69605 0.31926 0.0
C35 C 0.53819 0.06337 0.30787 0.0
C36 C 0.12232 0.88486 0.22947 0.0
C37 C -0.00033 0.05242 0.3631 0.0
C38 C 0.36537 0.3216 0.34027 0.0
C39 C 0.33044 0.1226 0.44877 0.0
O40 O 0.25448 0.71885 0.28546 0.0
O41 O 0.1868 0.77802 0.34377 0.0
O42 O 0.07892 0.77409 0.68339 0.0
Mg43 Mg 0.06195 0.90188 0.65049 0.0
O44 O 0.06072 0.93231 0.7224 0.0
Mg45 Mg 0.23043 0.12821 0.70323 0.0
O46 O 0.23167 0.04216 0.63189 0.0
O47 O 0.07381 0.84618 0.59177 0.0
O48 O 0.40244 0.32727 0.6877 0.0
O49 O 0.39799 0.08845 0.71689 0.0
Mg50 Mg 0.42311 0.37666 0.7714 0.0
O51 O 0.23605 0.22024 0.77154 0.0
O52 O 0.39704 0.48387 0.73241 0.0
O53 O 0.54846 0.29247 0.75253 0.0
O54 O 0.34869 0.37915 0.8271 0.0
C55 C 0.9438 0.08035 0.67988 0.0
C56 C 0.02091 0.80722 0.71107 0.0
C57 C 0.18721 0.95755 0.59648 0.0
C58 C 0.44817 0.45233 0.70222 0.0
C59 C 0.51798 0.17583 0.73218 0.0
C60 C 0.23986 0.27202 0.80958 0.0
O61 O 0.91495 0.96033 0.66444 0.0
O62 O 0.06546 0.17297 0.69064 0.0
C63 C 0.93604 0.53911 0.04596 0.0
C64 C 0.85102 0.40321 0.02641 0.0
H65 H 0.00384 0.74567 0.0471 0.0
C66 C 0.76697 0.37312 0.99158 0.0
H67 H 0.00339 0.56643 0.07268 0.0
C68 C 0.76791 0.47708 0.97674 0.0
C69 C 0.85358 0.613 0.99632 0.0
H70 H 0.70199 0.26975 0.97549 0.0
H71 H 0.70018 0.45064 0.95022 0.0
C72 C 0.93796 0.64257 0.03095 0.0
C73 C 0.73439 0.14894 0.35867 0.0
C74 C 0.66304 0.07069 0.3208 0.0
H75 H 0.89763 0.20403 0.40199 0.0
C76 C 0.69769 0.98012 0.29832 0.0
H77 H 0.70734 0.21709 0.37693 0.0
C78 C 0.80137 0.96731 0.3135 0.0
C79 C 0.87509 0.04768 0.35092 0.0
H80 H 0.64143 0.91545 0.26957 0.0
H81 H 0.82627 0.89731 0.29532 0.0
C82 C 0.84118 0.13934 0.37327 0.0
C83 C 0.79389 0.75871 0.73009 0.0
C84 C 0.8763 0.71108 0.71231 0.0
H85 H 0.5955 0.71846 0.73881 0.0
C86 C 0.8149 0.5785 0.68882 0.0
H87 H 0.83607 0.86051 0.74745 0.0
C88 C 0.67519 0.49683 0.68302 0.0
C89 C 0.59327 0.54532 0.70088 0.0
H90 H 0.87464 0.53864 0.67405 0.0
H91 H 0.63177 0.39457 0.66539 0.0
C92 C 0.65485 0.67775 0.72423 0.0
C93 C 0.70079 -0.0 0.68513 0.0
C94 C 0.83456 0.10684 0.69123 0.0
H95 H 0.49627 0.93699 0.69408 0.0
C96 C 0.86353 0.23528 0.71222 0.0
H97 H 0.67505 0.89918 0.66961 0.0
C98 C 0.76108 0.25633 0.72684 0.0
C99 C 0.62726 0.14945 0.72071 0.0
H100 H 0.96556 0.31943 0.7178 0.0
H101 H 0.78684 0.35717 0.74233 0.0
C102 C 0.5983 0.02114 0.69963 0.0
C103 C 0.3745 0.53267 0.97736 0.0
C104 C 0.43622 0.64694 0.00952 0.0
H105 H 0.26215 0.31679 0.9601 0.0
C106 C 0.43156 0.62869 0.04955 0.0
H107 H 0.38268 0.54318 0.94605 0.0
C108 C 0.36152 0.49917 0.05736 0.0
C109 C 0.29626 0.38491 0.0252 0.0
H110 H 0.48231 0.7147 0.0748 0.0
H111 H 0.35454 0.48922 0.08873 0.0
C112 C 0.30687 0.4031 0.9852 0.0
C113 C 0.3706 0.53979 0.36514 0.0
C114 C 0.32697 0.4208 0.33528 0.0
H115 H 0.35902 0.7186 0.38499 0.0
C116 C 0.22592 0.3845 0.30459 0.0
H117 H 0.44569 0.56879 0.38984 0.0
C118 C 0.17271 0.46693 0.303 0.0
C119 C 0.22006 0.58824 0.33176 0.0
H120 H 0.18811 0.2923 0.28158 0.0
H121 H 0.10105 0.44068 0.27754 0.0
C122 C 0.31722 0.62279 0.36342 0.0
C123 C -0.01792 -0.01107 0.22235 0.0
C124 C 0.01905 0.89349 0.20675 0.0
H125 H 0.90738 0.11174 0.2081 0.0
C126 C 0.97433 0.82166 0.16609 0.0
H127 H 0.0127 0.04398 0.25366 0.0
C128 C 0.91379 0.86017 0.13987 0.0
C129 C 0.89836 0.97183 0.15395 0.0
H130 H -0.00253 0.74406 0.15347 0.0
H131 H 0.89534 0.81378 0.10779 0.0
C132 C 0.92111 0.02718 0.19613 0.0
C133 C 0.39245 0.16501 0.52287 0.0
C134 C 0.33165 0.07188 0.48558 0.0
H135 H 0.39492 0.20189 0.58772 0.0
C136 C 0.24712 0.93536 0.48587 0.0
H137 H 0.46005 0.27095 0.52354 0.0
C138 C 0.20977 0.89599 0.52275 0.0
C139 C 0.25658 -0.00746 0.5598 0.0
H140 H 0.19947 0.86126 0.45772 0.0
H141 H 0.13595 0.79146 0.52187 0.0
C142 C 0.35514 0.12572 0.55972 0.0
C143 C 0.13858 0.25578 0.87574 0.0
C144 C 0.12477 0.20948 0.83335 0.0
H145 H 0.04892 0.22196 0.93159 0.0
C146 C 0.00136 0.10141 0.81431 0.0
H147 H 0.23116 0.34233 0.89114 0.0
C148 C 0.89834 0.03189 0.83747 0.0
C149 C 0.91672 0.07041 0.88025 0.0
H150 H -0.01379 0.069 0.7816 0.0
H151 H 0.80654 0.94443 0.82186 0.0
C152 C 0.03501 0.18716 0.89895 0.0
loop_
_geom_bond_atom_site_label_1
_geom_bond_atom_site_label_2
_geom_bond_distance
_geom_bond_site_symmetry_2
_ccdc_geom_bond_type
O0 Mg1 1.990 1_455 S
O0 C14 1.253 1_556 S
Mg1 O0 1.990 1_655 S
Mg1 O4 2.182 1_655 S
Mg1 O5 2.117 1_655 S
Mg1 O19 2.030 . S
O2 Mg3 2.072 1_565 S
O2 C14 1.260 . S
Mg3 O2 2.072 1_545 S
Mg3 O4 2.099 1_544 S
Mg3 O6 2.079 1_455 S
Mg3 O7 2.072 . S
Mg3 O9 2.099 . S
Mg3 O20 2.079 1_445 S
O4 Mg1 2.182 1_455 S
O4 Mg3 2.099 1_566 S
O4 C15 1.279 1_565 S
O5 Mg1 2.117 1_455 S
O5 C15 1.250 1_565 S
O6 Mg3 2.079 1_655 S
O6 C16 1.264 1_655 S
O7 Mg3 2.072 . S
O7 C17 1.260 . S
Mg8 O9 2.180 . S
Mg8 O10 2.030 . S
Mg8 O11 1.990 . S
Mg8 O12 2.117 . S
O9 Mg3 2.099 . S
O9 Mg8 2.180 . S
O9 C18 1.279 . S
O10 Mg8 2.030 . S
O10 C16 1.248 . S
O11 Mg8 1.990 . S
O11 C17 1.253 . S
O12 Mg8 2.117 . S
O12 C18 1.250 . S
C13 O19 1.248 1_554 S
C13 O20 1.264 . S
C14 O0 1.253 1_554 S
C14 O2 1.260 . S
C15 O4 1.279 1_545 S
C15 O5 1.250 1_545 S
C16 O6 1.264 1_455 S
C16 O10 1.248 . S
C17 O7 1.260 . S
C17 O11 1.253 . S
C18 O9 1.279 . S
C18 O12 1.250 . S
O19 Mg1 2.030 . S
O19 C13 1.248 1_556 S
O20 Mg3 2.079 1_665 S
O20 C13 1.264 . S
O21 Mg22 1.990 1_545 S
O21 C35 1.253 . S
Mg22 O21 1.990 1_565 S
Mg22 O25 2.180 . S
Mg22 O26 2.117 1_565 S
Mg22 O40 2.030 . S
O23 Mg24 2.072 . S
O23 C35 1.260 . S
Mg24 O23 2.072 . S
Mg24 O25 2.099 1_545 S
Mg24 O27 2.079 1_445 S
Mg24 O28 2.072 . S
Mg24 O30 2.099 . S
Mg24 O41 2.079 1_545 S
O25 Mg22 2.180 . S
O25 Mg24 2.099 1_565 S
O25 C36 1.279 1_565 S
O26 Mg22 2.117 1_545 S
O26 C36 1.250 . S
O27 Mg24 2.079 1_665 S
O27 C37 1.264 1_565 S
O28 Mg24 2.072 . S
O28 C38 1.260 . S
Mg29 O30 2.180 . S
Mg29 O31 2.030 1_455 S
Mg29 O32 1.990 . S
Mg29 O33 2.117 . S
O30 Mg24 2.099 . S
O30 Mg29 2.180 . S
O30 C39 1.279 . S
O31 Mg29 2.030 1_655 S
O31 C37 1.248 . S
O32 Mg29 1.990 . S
O32 C38 1.253 . S
O33 Mg29 2.117 . S
O33 C39 1.250 . S
C34 O40 1.248 . S
C34 O41 1.264 . S
C35 O21 1.253 . S
C35 O23 1.260 . S
C36 O25 1.279 1_545 S
C36 O26 1.250 . S
C37 O27 1.264 1_545 S
C37 O31 1.248 . S
C38 O28 1.260 . S
C38 O32 1.253 . S
C39 O30 1.279 . S
C39 O33 1.250 . S
O40 Mg22 2.030 . S
O40 C34 1.248 . S
O41 Mg24 2.079 1_565 S
O41 C34 1.264 . S
O42 Mg43 1.990 . S
O42 C56 1.253 . S
Mg43 O42 1.990 . S
Mg43 O46 2.180 1_665 S
Mg43 O47 2.117 1_655 S
Mg43 O61 2.030 1_565 S
O44 Mg45 2.072 1_565 S
O44 C56 1.260 1_455 S
Mg45 O44 2.072 1_545 S
Mg45 O46 2.099 . S
Mg45 O48 2.079 . S
Mg45 O49 2.072 . S
Mg45 O51 2.099 . S
Mg45 O62 2.079 . S
O46 Mg43 2.180 1_445 S
O46 Mg45 2.099 . S
O46 C57 1.279 . S
O47 Mg43 2.117 1_455 S
O47 C57 1.250 1_565 S
O48 Mg45 2.079 . S
O48 C58 1.264 . S
O49 Mg45 2.072 . S
O49 C59 1.260 . S
Mg50 O51 2.180 . S
Mg50 O52 2.030 . S
Mg50 O53 1.990 . S
Mg50 O54 2.117 . S
O51 Mg45 2.099 . S
O51 Mg50 2.180 . S
O51 C60 1.279 . S
O52 Mg50 2.030 . S
O52 C58 1.248 . S
O53 Mg50 1.990 . S
O53 C59 1.253 . S
O54 Mg50 2.117 . S
O54 C60 1.250 . S
C55 O61 1.248 . S
C55 O62 1.264 1_655 S
C56 O42 1.253 . S
C56 O44 1.260 1_655 S
C57 O46 1.279 . S
C57 O47 1.250 1_545 S
C58 O48 1.264 . S
C58 O52 1.248 . S
C59 O49 1.260 . S
C59 O53 1.253 . S
C60 O51 1.279 . S
C60 O54 1.250 . S
O61 Mg43 2.030 1_545 S
O61 C55 1.248 . S
O62 Mg45 2.079 . S
O62 C55 1.264 1_455 S
C63 C64 1.387 . S
C63 H67 0.950 1_455 S
C63 C72 1.390 . S
C64 C63 1.387 . S
C64 C66 1.387 1_554 S
H65 C72 0.950 . S
C66 C64 1.387 1_556 S
C66 C68 1.390 . S
C66 H70 0.950 . S
H67 C63 0.950 1_655 S
C68 C66 1.390 . S
C68 C69 1.387 1_556 S
C68 H71 0.950 . S
C69 C68 1.387 1_554 S
C69 C72 1.387 . S
H70 C66 0.950 . S
H71 C68 0.950 . S
C72 C63 1.390 . S
C72 H65 0.950 . S
C72 C69 1.387 . S
C73 C74 1.387 . S
C73 H77 0.950 1_545 S
C73 C82 1.390 1_545 S
C74 C73 1.387 . S
C74 C76 1.387 . S
H75 C82 0.950 . S
C76 C74 1.387 . S
C76 C78 1.390 . S
C76 H80 0.950 . S
H77 C73 0.950 1_565 S
C78 C76 1.390 . S
C78 C79 1.387 1_545 S
C78 H81 0.950 . S
C79 C78 1.387 1_565 S
C79 C82 1.387 . S
H80 C76 0.950 . S
H81 C78 0.950 . S
C82 C73 1.390 1_565 S
C82 H75 0.950 . S
C82 C79 1.387 . S
C83 C84 1.387 . S
C83 H87 0.950 . S
C83 C92 1.390 . S
C84 C83 1.387 . S
C84 C86 1.387 . S
H85 C92 0.950 . S
C86 C84 1.387 . S
C86 C88 1.390 . S
C86 H90 0.950 . S
H87 C83 0.950 . S
C88 C86 1.390 . S
C88 C89 1.387 . S
C88 H91 0.950 . S
C89 C88 1.387 . S
C89 C92 1.387 . S
H90 C86 0.950 . S
H91 C88 0.950 . S
C92 C83 1.390 . S
C92 H85 0.950 . S
C92 C89 1.387 . S
C93 C94 1.387 . S
C93 H97 0.950 . S
C93 C102 1.390 . S
C94 C93 1.387 . S
C94 C96 1.387 . S
H95 C102 0.950 . S
C96 C94 1.387 . S
C96 C98 1.390 . S
C96 H100 0.950 . S
H97 C93 0.950 . S
C98 C96 1.390 . S
C98 C99 1.387 . S
C98 H101 0.950 . S
C99 C98 1.387 . S
C99 C102 1.387 . S
H100 C96 0.950 . S
H101 C98 0.950 . S
C102 C93 1.390 . S
C102 H95 0.950 . S
C102 C99 1.387 . S
C103 C104 1.387 1_556 S
C103 H107 0.950 . S
C103 C112 1.390 . S
C104 C103 1.387 1_554 S
C104 C106 1.387 . S
H105 C112 0.950 . S
C106 C104 1.387 . S
C106 C108 1.390 . S
C106 H110 0.950 . S
H107 C103 0.950 . S
C108 C106 1.390 . S
C108 C109 1.387 . S
C108 H111 0.950 . S
C109 C108 1.387 . S
C109 C112 1.387 1_554 S
H110 C106 0.950 . S
H111 C108 0.950 . S
C112 C103 1.390 . S
C112 H105 0.950 . S
C112 C109 1.387 1_556 S
C113 C114 1.387 . S
C113 H117 0.950 . S
C113 C122 1.390 . S
C114 C113 1.387 . S
C114 C116 1.387 . S
H115 C122 0.950 . S
C116 C114 1.387 . S
C116 C118 1.390 . S
C116 H120 0.950 . S
H117 C113 0.950 . S
C118 C116 1.390 . S
C118 C119 1.387 . S
C118 H121 0.950 . S
C119 C118 1.387 . S
C119 C122 1.387 . S
H120 C116 0.950 . S
H121 C118 0.950 . S
C122 C113 1.390 . S
C122 H115 0.950 . S
C122 C119 1.387 . S
C123 C124 1.387 . S
C123 H127 0.950 . S
C123 C132 1.390 . S
C124 C123 1.387 . S
C124 C126 1.387 1_545 S
H125 C132 0.950 . S
C126 C124 1.387 1_565 S
C126 C128 1.390 . S
C126 H130 0.950 . S
H127 C123 0.950 . S
C128 C126 1.390 . S
C128 C129 1.387 1_565 S
C128 H131 0.950 1_455 S
C129 C128 1.387 1_545 S
C129 C132 1.387 . S
H130 C126 0.950 . S
H131 C128 0.950 1_655 S
C132 C123 1.390 . S
C132 H125 0.950 . S
C132 C129 1.387 . S
C133 C134 1.387 . S
C133 H137 0.950 . S
C133 C142 1.390 . S
C134 C133 1.387 . S
C134 C136 1.387 1_545 S
H135 C142 0.950 . S
C136 C134 1.387 1_565 S
C136 C138 1.390 . S
C136 H140 0.950 . S
H137 C133 0.950 . S
C138 C136 1.390 . S
C138 C139 1.387 1_565 S
C138 H141 0.950 . S
C139 C138 1.387 1_545 S
C139 C142 1.387 . S
H140 C136 0.950 . S
H141 C138 0.950 . S
C142 C133 1.390 . S
C142 H135 0.950 . S
C142 C139 1.387 . S
C143 C144 1.387 . S
C143 H147 0.950 . S
C143 C152 1.390 . S
C144 C143 1.387 . S
C144 C146 1.387 1_545 S
H145 C152 0.950 . S
C146 C144 1.387 1_565 S
C146 C148 1.390 . S
C146 H150 0.950 . S
H147 C143 0.950 . S
C148 C146 1.390 . S
C148 C149 1.387 1_565 S
C148 H151 0.950 . S
C149 C148 1.387 1_545 S
C149 C152 1.387 . S
H150 C146 0.950 . S
H151 C148 0.950 . S
C152 C143 1.390 . S
C152 H145 0.950 . S
C152 C149 1.387 . S
C64 C16 1.263 . S
C69 C14 1.286 . S
C74 C35 1.268 . S
C79 C37 1.251 1_565 S
C84 C56 1.296 . S
C89 C58 1.271 . S
C94 C55 1.251 . S
C99 C59 1.268 . S
C104 C13 1.263 . S
C109 C17 1.286 . S
C114 C38 1.292 . S
C119 C34 1.266 . S
C124 C36 1.336 . S
C129 C18 1.299 . S
C134 C39 1.325 . S
C139 C57 1.320 . S
C144 C60 1.331 . S
C149 C15 1.299 . S
