# Generated by pormake.
# Topology pcu, (6)-cn, num edge types: 1
# Building blocks:
#     Node 0, Type 0, BuildingBlock: UKALOJ_clean_sbu_0, # of connection points: 6
#     Edge 1, Type (0, 0), BuildingBlock: OJICUG_clean_linker_0, # of connection points: 2
#     Edge 2, Type (0, 0), BuildingBlock: OJICUG_clean_linker_0, # of connection points: 2
#     Edge 3, Type (0, 0), BuildingBlock: OJICUG_clean_linker_0, # of connection points: 2
# Relax obj value: 0.010
# Max RMSD: 0.054
# Mean RMSD: 0.054
data_MOF--net-pcu--node1-UKALOJ_clean_sbu_0--edge1-OJICUG_clean_linker_0
_symmetry_space_group_name_H-M    P1
_symmetry_Int_Tables_number       1
_symmetry_cell_setting            triclinic
loop_
_symmetry_equiv_pos_as_xyz
'x, y, z'
_cell_length_a     11.305519
_cell_length_b     11.308376
_cell_length_c     16.151123
_cell_angle_alpha  97.938673
_cell_angle_beta   83.368862
_cell_angle_gamma 92.889246
loop_
_atom_site_label
_atom_site_type_symbol
_atom_site_fract_x
_atom_site_fract_y
_atom_site_fract_z
_atom_type_partial_charge
Zn0 Zn 0.95709 -0.01554 0.09381 0.0
O1 O 0.95199 0.79697 0.09555 0.0
C2 C 0.21229 0.97723 0.02445 0.0
Zn3 Zn -0.02106 0.95858 0.95366 0.0
C4 C 0.96277 0.72761 0.02629 0.0
O5 O 0.97441 0.77205 0.9576 0.0
C6 C 0.97327 0.21543 1.02117 0.0
O7 O 0.79119 0.95303 0.95394 0.0
O8 O 0.77002 0.97964 0.09195 0.0
N9 N 0.00273 0.92623 0.82513 0.0
C10 C 0.96417 -0.0198 0.7643 0.0
C11 C 0.06625 0.83295 0.70367 0.0
N12 N 0.06615 0.8349 0.78722 0.0
N13 N 0.0034 0.92356 0.68748 0.0
C14 C 0.97186 0.96284 0.28316 0.0
C15 C 0.86979 0.1101 0.34379 0.0
N16 N 0.9333 0.01681 0.22234 0.0
N17 N 0.86989 0.10814 0.26024 0.0
N18 N 0.93263 0.01948 0.35998 0.0
H19 H -0.00162 0.7751 0.26809 0.0
H20 H 0.11411 0.86482 0.31661 0.0
H21 H 0.10592 0.85594 0.20488 0.0
C22 C 0.05294 0.85928 0.2671 0.0
C23 C 0.8831 0.08376 0.78037 0.0
H24 H 0.83012 0.0871 0.84259 0.0
H25 H 0.82193 0.07822 0.73086 0.0
H26 H 0.93766 0.16794 0.77938 0.0
O27 O -0.01595 0.14607 0.95191 0.0
O28 O 0.96163 0.17099 0.08986 0.0
C29 C 0.72374 0.96581 1.02301 0.0
O30 O 0.14485 -0.00999 0.09352 0.0
O31 O 0.16602 0.96341 0.95551 0.0
C32 C 0.94237 0.87719 0.46206 0.0
C33 C 0.95217 -0.00547 0.44217 0.0
H34 H 0.95099 0.7632 0.55672 0.0
C35 C -0.02303 0.08868 0.50477 0.0
H36 H 0.91962 0.80344 0.41584 0.0
C37 C -0.00633 0.06585 0.58541 0.0
C38 C -0.01614 0.94852 0.60529 0.0
H39 H -0.01495 0.17984 0.49074 0.0
H40 H 0.01641 0.1396 0.63162 0.0
C41 C 0.95906 0.85436 0.54269 0.0
C42 C 0.3947 -0.01447 0.10007 0.0
C43 C 0.34319 0.97544 0.02414 0.0
H44 H 0.55493 -0.01008 0.1593 0.0
C45 C 0.41789 0.96136 0.9478 0.0
H46 H 0.33971 -0.00394 0.15998 0.0
C47 C 0.54133 0.95751 0.94739 0.0
C48 C 0.59284 0.9676 1.02332 0.0
H49 H 0.3811 0.95312 0.88816 0.0
H50 H 0.59633 0.94698 0.88749 0.0
C51 C 0.51815 -0.01831 0.09966 0.0
C52 C -0.01968 0.5206 0.9483 0.0
C53 C 0.96444 0.59655 0.02513 0.0
H54 H -0.00376 0.34112 0.88671 0.0
C55 C 0.95216 0.54606 0.10053 0.0
H56 H -0.00965 0.55654 0.889 0.0
C57 C 0.95572 0.42244 0.09916 0.0
C58 C 0.9716 0.34649 1.02234 0.0
H59 H 0.9398 0.60192 0.16075 0.0
H60 H 0.94569 0.3865 0.15847 0.0
C61 C -0.01612 0.39698 0.94693 0.0
loop_
_geom_bond_atom_site_label_1
_geom_bond_atom_site_label_2
_geom_bond_distance
_geom_bond_site_symmetry_2
_ccdc_geom_bond_type
Zn0 O1 2.055 . S
Zn0 O8 2.046 . S
Zn0 N16 2.036 1_565 S
Zn0 O28 2.053 1_565 S
Zn0 O30 2.066 1_665 S
O1 Zn0 2.055 . S
O1 C4 1.259 1_554 S
C2 O30 1.256 1_565 S
C2 O31 1.244 1_554 S
Zn3 O5 2.046 . S
Zn3 O7 2.055 . S
Zn3 N9 2.036 1_655 S
Zn3 O27 2.066 1_665 S
Zn3 O31 2.053 1_655 S
C4 O1 1.259 1_556 S
C4 O5 1.254 . S
O5 Zn3 2.046 . S
O5 C4 1.254 . S
C6 O27 1.256 1_655 S
C6 O28 1.244 1_556 S
O7 Zn3 2.055 . S
O7 C29 1.259 1_556 S
O8 Zn0 2.046 . S
O8 C29 1.254 . S
N9 Zn3 2.036 1_455 S
N9 C10 1.298 1_465 S
N9 N12 1.398 . S
C10 N9 1.298 1_645 S
C10 N13 1.367 1_655 S
C10 C23 1.481 . S
C11 N12 1.299 . S
C11 N13 1.379 1_565 S
N12 N9 1.398 . S
N12 C11 1.299 . S
N13 C10 1.367 1_455 S
N13 C11 1.379 1_545 S
C14 N16 1.298 1_465 S
C14 N18 1.367 1_565 S
C14 C22 1.481 . S
C15 N17 1.299 . S
C15 N18 1.379 1_655 S
N16 Zn0 2.036 1_545 S
N16 C14 1.298 1_645 S
N16 N17 1.398 . S
N17 C15 1.299 . S
N17 N16 1.398 . S
N18 C14 1.367 1_545 S
N18 C15 1.379 1_455 S
H19 C22 0.980 . S
H20 C22 0.981 . S
H21 C22 0.981 . S
C22 C14 1.481 . S
C22 H19 0.980 . S
C22 H20 0.981 . S
C22 H21 0.981 . S
C23 C10 1.481 . S
C23 H24 0.980 . S
C23 H25 0.981 . S
C23 H26 0.981 . S
H24 C23 0.980 . S
H25 C23 0.981 . S
H26 C23 0.981 . S
O27 Zn3 2.066 1_445 S
O27 C6 1.256 1_455 S
O28 Zn0 2.053 1_545 S
O28 C6 1.244 1_554 S
C29 O7 1.259 1_554 S
C29 O8 1.254 . S
O30 Zn0 2.066 1_445 S
O30 C2 1.256 1_545 S
O31 C2 1.244 1_556 S
O31 Zn3 2.053 1_455 S
C32 C33 1.387 1_665 S
C32 H36 0.950 . S
C32 C41 1.390 . S
C33 C32 1.387 1_445 S
C33 C35 1.387 . S
H34 C41 0.950 . S
C35 C33 1.387 . S
C35 C37 1.390 . S
C35 H39 0.950 . S
H36 C32 0.950 . S
C37 C35 1.390 . S
C37 C38 1.387 . S
C37 H40 0.950 . S
C38 C37 1.387 . S
C38 C41 1.387 1_445 S
H39 C35 0.950 . S
H40 C37 0.950 . S
C41 C32 1.390 . S
C41 H34 0.950 . S
C41 C38 1.387 1_665 S
C42 C43 1.387 1_545 S
C42 H46 0.950 . S
C42 C51 1.390 . S
C43 C42 1.387 1_565 S
C43 C45 1.387 1_554 S
H44 C51 0.950 . S
C45 C43 1.387 1_556 S
C45 C47 1.390 . S
C45 H49 0.950 . S
H46 C42 0.950 . S
C47 C45 1.390 . S
C47 C48 1.387 1_556 S
C47 H50 0.950 . S
C48 C47 1.387 1_554 S
C48 C51 1.387 1_565 S
H49 C45 0.950 . S
H50 C47 0.950 . S
C51 C42 1.390 . S
C51 H44 0.950 . S
C51 C48 1.387 1_545 S
C52 C53 1.387 . S
C52 H56 0.950 . S
C52 C61 1.390 . S
C53 C52 1.387 . S
C53 C55 1.387 1_656 S
H54 C61 0.950 . S
C55 C53 1.387 1_454 S
C55 C57 1.390 . S
C55 H59 0.950 . S
H56 C52 0.950 . S
C57 C55 1.390 . S
C57 C58 1.387 1_454 S
C57 H60 0.950 . S
C58 C57 1.387 1_656 S
C58 C61 1.387 . S
H59 C55 0.950 . S
H60 C57 0.950 . S
C61 C52 1.390 . S
C61 H54 0.950 . S
C61 C58 1.387 . S
C33 N18 1.460 . S
C38 N13 1.461 . S
C43 C2 1.499 . S
C48 C29 1.495 . S
C53 C4 1.495 . S
C58 C6 1.499 . S
