# Generated by pormake.
# Topology pcu, (6)-cn, num edge types: 1
# Building blocks:
#     Node 0, Type 0, BuildingBlock: BETDEL_clean_sbu_0, # of connection points: 6
#     Edge 1, Type (0, 0), BuildingBlock: FUNLAD_clean_linker_0, # of connection points: 2
#     Edge 2, Type (0, 0), BuildingBlock: FUNLAD_clean_linker_0, # of connection points: 2
#     Edge 3, Type (0, 0), BuildingBlock: FUNLAD_clean_linker_0, # of connection points: 2
# Relax obj value: 0.000
# Max RMSD: 0.000
# Mean RMSD: 0.000
data_MOF--net-pcu--node1-BETDEL_clean_sbu_0--edge1-FUNLAD_clean_linker_0
_symmetry_space_group_name_H-M    P1
_symmetry_Int_Tables_number       1
_symmetry_cell_setting            triclinic
loop_
_symmetry_equiv_pos_as_xyz
'x, y, z'
_cell_length_a     17.995632
_cell_length_b     20.652457
_cell_length_c     16.868194
_cell_angle_alpha  106.70122
_cell_angle_beta   83.332654
_cell_angle_gamma 108.55388
loop_
_atom_site_label
_atom_site_type_symbol
_atom_site_fract_x
_atom_site_fract_y
_atom_site_fract_z
_atom_type_partial_charge
Dy0 Dy 0.00827 0.06237 0.03889 0.0
C1 C 0.94675 0.76924 1.02977 0.0
C2 C 0.02318 0.19536 1.02846 0.0
Dy3 Dy 0.96171 0.90236 1.01977 0.0
O4 O 0.00641 0.17435 0.09558 0.0
O5 O 0.03303 0.14387 0.96666 0.0
O6 O 0.05362 0.08309 0.16465 0.0
O7 O 0.95686 -0.00599 0.12099 0.0
C8 C 0.00464 0.02572 0.17891 0.0
C9 C 0.96538 0.93942 0.87991 0.0
O10 O 0.84218 0.91525 0.0436 0.0
O11 O 0.87866 0.02576 1.01714 0.0
O12 O 0.96382 0.79048 0.96281 0.0
O13 O 0.93664 0.82058 0.09164 0.0
O14 O 0.91625 0.88205 0.89403 0.0
O15 O 0.01315 0.97069 0.93785 0.0
O16 O 0.1278 0.04947 1.0152 0.0
O17 O 0.09127 0.93901 0.0418 0.0
C18 C 0.82426 0.96852 1.02987 0.0
C19 C 0.14569 -0.00376 1.02906 0.0
C20 C 0.05323 0.04739 0.31941 0.0
C21 C -0.00197 0.00716 0.25802 0.0
C22 C 0.04568 0.03216 0.39597 0.0
C23 C -0.01776 -0.02351 0.41279 0.0
C24 C 0.92838 0.93507 0.35029 0.0
C25 C 0.93591 0.95045 0.27373 0.0
C26 C 0.97106 0.95913 0.49384 0.0
C27 C -0.00039 0.00655 0.56527 0.0
C28 C -0.0117 -0.01087 0.64627 0.0
C29 C 0.04233 0.0302 0.70873 0.0
C30 C 0.03464 0.01468 0.78522 0.0
C31 C 0.97218 0.95819 0.80093 0.0
H32 H 0.87987 0.90249 0.61806 0.0
C33 C 0.91682 0.91835 0.73959 0.0
C34 C 0.92453 0.93371 0.6631 0.0
H35 H 0.86752 0.87503 0.75057 0.0
H36 H 0.10227 0.0909 0.30843 0.0
H37 H 0.09021 0.06368 0.44105 0.0
H38 H 0.87949 0.89139 0.36119 0.0
H39 H 0.89253 0.91857 0.22737 0.0
H40 H 0.93679 0.90543 0.49414 0.0
H41 H 0.03392 0.06024 0.565 0.0
H42 H 0.09147 0.07368 0.69782 0.0
H43 H 0.07816 0.04626 0.83154 0.0
C44 C 0.24894 0.94616 0.05088 0.0
C45 C 0.22904 -0.0 1.03078 0.0
C46 C 0.32726 0.94891 0.05243 0.0
C47 C 0.38776 0.00538 0.03312 0.0
C48 C 0.36792 0.05973 1.01432 0.0
C49 C 0.28943 0.05705 1.01288 0.0
C50 C 0.47198 0.01056 0.03422 0.0
C51 C 0.49795 0.95423 1.02499 0.0
C52 C 0.58218 0.95941 1.02605 0.0
C53 C 0.60204 0.90506 0.0448 0.0
C54 C 0.68053 0.90773 0.04618 0.0
C55 C 0.74091 0.96478 1.02825 0.0
H56 H 0.63023 0.05756 0.98886 0.0
C57 C 0.72099 0.01862 1.0082 0.0
C58 C 0.64266 0.01588 1.00671 0.0
H59 H 0.76589 0.06294 0.99296 0.0
H60 H 0.20402 0.90184 0.06609 0.0
H61 H 0.33968 0.90723 0.07031 0.0
H62 H 0.41332 0.10423 1.00002 0.0
H63 H 0.27624 0.09957 0.9975 0.0
H64 H 0.51364 0.06301 0.04207 0.0
H65 H 0.45629 0.90178 1.01714 0.0
H66 H 0.55665 0.86055 0.05913 0.0
H67 H 0.69374 0.8652 0.06153 0.0
C68 C 0.96223 0.64966 0.9642 0.0
C69 C 0.94628 0.69923 0.03527 0.0
C70 C 0.96718 0.58492 0.96947 0.0
C71 C 0.95677 0.56868 0.04632 0.0
C72 C 0.93824 0.61748 0.11687 0.0
C73 C 0.9334 0.68236 0.11154 0.0
C74 C 0.96348 0.50119 0.05513 0.0
C75 C 0.0063 0.46321 1.00258 0.0
C76 C 0.01304 0.39576 1.01148 0.0
C77 C 0.03134 0.34681 0.94095 0.0
C78 C 0.03621 0.28197 0.9464 0.0
C79 C 0.02362 0.26531 1.02279 0.0
H80 H -0.0082 0.41693 0.14483 0.0
C81 C 0.00791 0.31503 0.09383 0.0
C82 C 0.00292 0.37972 0.08843 0.0
H83 H -0.00131 0.30371 0.15369 0.0
H84 H 0.97168 0.66115 0.90443 0.0
H85 H -0.0215 0.54784 0.91305 0.0
H86 H 0.92896 0.60597 0.17663 0.0
H87 H 0.92079 0.71967 0.16724 0.0
H88 H 0.93288 0.48331 0.10789 0.0
H89 H 0.03689 0.48105 0.9498 0.0
H90 H 0.0404 0.35817 0.8811 0.0
H91 H 0.04863 0.24453 0.89072 0.0
loop_
_geom_bond_atom_site_label_1
_geom_bond_atom_site_label_2
_geom_bond_distance
_geom_bond_site_symmetry_2
_ccdc_geom_bond_type
Dy0 O4 2.398 . S
Dy0 O5 2.491 1_554 S
Dy0 O6 2.403 . S
Dy0 O7 2.663 1_545 S
Dy0 O11 2.326 1_455 S
Dy0 O15 2.309 1_454 S
Dy0 O16 2.351 . S
C1 O12 1.185 . S
C1 O13 1.355 1_556 S
C2 O4 1.185 . S
C2 O5 1.355 1_554 S
Dy3 O7 2.309 1_656 S
Dy3 O10 2.351 . S
Dy3 O12 2.398 . S
Dy3 O13 2.491 1_556 S
Dy3 O14 2.403 . S
Dy3 O15 2.663 1_565 S
Dy3 O17 2.326 1_655 S
O4 Dy0 2.398 . S
O4 C2 1.185 . S
O5 Dy0 2.491 1_556 S
O5 C2 1.355 1_556 S
O6 Dy0 2.403 . S
O6 C8 1.254 . S
O7 Dy0 2.663 1_565 S
O7 Dy3 2.309 1_454 S
O7 C8 1.267 1_565 S
C8 O6 1.254 . S
C8 O7 1.267 1_545 S
C9 O14 1.254 . S
C9 O15 1.267 1_565 S
O10 Dy3 2.351 . S
O10 C18 1.249 1_556 S
O11 Dy0 2.326 1_655 S
O11 C18 1.267 1_545 S
O12 C1 1.185 . S
O12 Dy3 2.398 . S
O13 C1 1.355 1_554 S
O13 Dy3 2.491 1_554 S
O14 Dy3 2.403 . S
O14 C9 1.254 . S
O15 Dy0 2.309 1_656 S
O15 Dy3 2.663 1_545 S
O15 C9 1.267 1_545 S
O16 Dy0 2.351 . S
O16 C19 1.249 1_554 S
O17 Dy3 2.326 1_455 S
O17 C19 1.267 1_565 S
C18 O10 1.249 1_554 S
C18 O11 1.267 1_565 S
C19 O16 1.249 1_556 S
C19 O17 1.267 1_545 S
C20 C21 1.374 1_465 S
C20 C22 1.383 1_565 S
C20 H36 0.951 . S
C21 C20 1.374 1_645 S
C21 C25 1.395 . S
C22 C20 1.383 1_545 S
C22 C23 1.402 1_455 S
C22 H37 0.951 1_545 S
C23 C22 1.402 1_655 S
C23 C24 1.375 . S
C23 C26 1.481 . S
C24 C23 1.375 . S
C24 C25 1.367 . S
C24 H38 0.951 . S
C25 C21 1.395 . S
C25 C24 1.367 . S
C25 H39 0.950 . S
C26 C23 1.481 . S
C26 C27 1.297 1_655 S
C26 H40 0.950 . S
C27 C26 1.297 1_455 S
C27 C28 1.479 . S
C27 H41 0.950 . S
C28 C27 1.479 . S
C28 C29 1.375 . S
C28 C34 1.404 1_455 S
C29 C28 1.375 . S
C29 C30 1.369 1_545 S
C29 H42 0.950 1_545 S
C30 C29 1.369 1_565 S
C30 C31 1.392 1_565 S
C30 H43 0.951 . S
C31 C30 1.392 1_545 S
C31 C33 1.384 1_455 S
H32 C34 0.949 . S
C33 C31 1.384 1_655 S
C33 C34 1.385 . S
C33 H35 0.950 . S
C34 C28 1.404 1_655 S
C34 H32 0.949 . S
C34 C33 1.385 . S
H35 C33 0.950 . S
H36 C20 0.951 . S
H37 C22 0.951 1_565 S
H38 C24 0.951 . S
H39 C25 0.950 . S
H40 C26 0.950 . S
H41 C27 0.950 . S
H42 C29 0.950 1_565 S
H43 C30 0.951 . S
C44 C45 1.386 1_564 S
C44 C46 1.383 1_554 S
C44 H60 0.951 . S
C45 C44 1.386 1_546 S
C45 C49 1.383 . S
C46 C44 1.383 1_556 S
C46 C47 1.402 1_565 S
C46 H61 0.951 1_556 S
C47 C46 1.402 1_545 S
C47 C48 1.375 . S
C47 C50 1.481 . S
C48 C47 1.375 . S
C48 C49 1.367 . S
C48 H62 0.951 . S
C49 C45 1.383 . S
C49 C48 1.367 . S
C49 H63 0.950 . S
C50 C47 1.481 . S
C50 C51 1.297 1_545 S
C50 H64 0.950 . S
C51 C50 1.297 1_565 S
C51 C52 1.479 . S
C51 H65 0.950 . S
C52 C51 1.479 . S
C52 C53 1.375 . S
C52 C58 1.404 1_565 S
C53 C52 1.375 . S
C53 C54 1.369 1_556 S
C53 H66 0.950 . S
C54 C53 1.369 1_554 S
C54 C55 1.392 1_554 S
C54 H67 0.951 . S
C55 C54 1.392 1_556 S
C55 C57 1.384 1_565 S
H56 C58 0.949 . S
C57 C55 1.384 1_545 S
C57 C58 1.385 . S
C57 H59 0.950 . S
C58 C52 1.404 1_545 S
C58 H56 0.949 . S
C58 C57 1.385 . S
H59 C57 0.950 . S
H60 C44 0.951 . S
H61 C46 0.951 1_554 S
H62 C48 0.951 . S
H63 C49 0.950 . S
H64 C50 0.950 . S
H65 C51 0.950 . S
H66 C53 0.950 . S
H67 C54 0.951 . S
C68 C69 1.386 1_556 S
C68 C70 1.383 . S
C68 H84 0.951 . S
C69 C68 1.386 1_554 S
C69 C73 1.383 1_455 S
C70 C68 1.383 . S
C70 C71 1.402 1_556 S
C70 H85 0.951 . S
C71 C70 1.402 1_554 S
C71 C72 1.375 1_455 S
C71 C74 1.481 . S
C72 C71 1.375 1_655 S
C72 C73 1.367 . S
C72 H86 0.951 . S
C73 C69 1.383 1_655 S
C73 C72 1.367 . S
C73 H87 0.950 . S
C74 C71 1.481 . S
C74 C75 1.297 1_554 S
C74 H88 0.950 1_455 S
C75 C74 1.297 1_556 S
C75 C76 1.479 1_556 S
C75 H89 0.950 . S
C76 C75 1.479 1_554 S
C76 C77 1.375 1_554 S
C76 C82 1.404 . S
C77 C76 1.375 1_556 S
C77 C78 1.369 . S
C77 H90 0.950 . S
C78 C77 1.369 . S
C78 C79 1.392 1_556 S
C78 H91 0.951 . S
C79 C78 1.392 1_554 S
C79 C81 1.384 1_455 S
H80 C82 0.949 1_655 S
C81 C79 1.384 1_655 S
C81 C82 1.385 1_655 S
C81 H83 0.950 . S
C82 C76 1.404 . S
C82 H80 0.949 1_455 S
C82 C81 1.385 1_455 S
H83 C81 0.950 . S
H84 C68 0.951 . S
H85 C70 0.951 . S
H86 C72 0.951 . S
H87 C73 0.950 . S
H88 C74 0.950 1_655 S
H89 C75 0.950 . S
H90 C77 0.950 . S
H91 C78 0.951 . S
C21 C8 1.434 1_655 S
C31 C9 1.489 1_445 S
C45 C19 1.475 . S
C55 C18 1.495 1_556 S
C69 C1 1.486 1_454 S
C79 C2 1.442 . S
