# Generated by pormake.
# Topology mdf, (4)-cn, num edge types: 1
# Building blocks:
#     Node 0, Type 0, BuildingBlock: CEKHIL_clean_sbu_0, # of connection points: 4
#     Node 1, Type 0, BuildingBlock: CEKHIL_clean_sbu_0, # of connection points: 4
#     Node 2, Type 0, BuildingBlock: CEKHIL_clean_sbu_0, # of connection points: 4
#     Node 3, Type 0, BuildingBlock: CEKHIL_clean_sbu_0, # of connection points: 4
#     Node 4, Type 0, BuildingBlock: CEKHIL_clean_sbu_0, # of connection points: 4
#     Node 5, Type 0, BuildingBlock: CEKHIL_clean_sbu_0, # of connection points: 4
#     Node 6, Type 0, BuildingBlock: CEKHIL_clean_sbu_0, # of connection points: 4
#     Node 7, Type 0, BuildingBlock: CEKHIL_clean_sbu_0, # of connection points: 4
#     Edge 8, Type (0, 0), BuildingBlock: EYOCIG_clean_linker_4, # of connection points: 2
#     Edge 9, Type (0, 0), BuildingBlock: EYOCIG_clean_linker_4, # of connection points: 2
#     Edge 10, Type (0, 0), BuildingBlock: EYOCIG_clean_linker_4, # of connection points: 2
#     Edge 11, Type (0, 0), BuildingBlock: EYOCIG_clean_linker_4, # of connection points: 2
#     Edge 12, Type (0, 0), BuildingBlock: EYOCIG_clean_linker_4, # of connection points: 2
#     Edge 13, Type (0, 0), BuildingBlock: EYOCIG_clean_linker_4, # of connection points: 2
#     Edge 14, Type (0, 0), BuildingBlock: EYOCIG_clean_linker_4, # of connection points: 2
#     Edge 15, Type (0, 0), BuildingBlock: EYOCIG_clean_linker_4, # of connection points: 2
#     Edge 16, Type (0, 0), BuildingBlock: EYOCIG_clean_linker_4, # of connection points: 2
#     Edge 17, Type (0, 0), BuildingBlock: EYOCIG_clean_linker_4, # of connection points: 2
#     Edge 18, Type (0, 0), BuildingBlock: EYOCIG_clean_linker_4, # of connection points: 2
#     Edge 19, Type (0, 0), BuildingBlock: EYOCIG_clean_linker_4, # of connection points: 2
#     Edge 20, Type (0, 0), BuildingBlock: EYOCIG_clean_linker_4, # of connection points: 2
#     Edge 21, Type (0, 0), BuildingBlock: EYOCIG_clean_linker_4, # of connection points: 2
#     Edge 22, Type (0, 0), BuildingBlock: EYOCIG_clean_linker_4, # of connection points: 2
#     Edge 23, Type (0, 0), BuildingBlock: EYOCIG_clean_linker_4, # of connection points: 2
# Relax obj value: 0.019
# Max RMSD: 0.044
# Mean RMSD: 0.044
data_MOF--net-mdf--node1-CEKHIL_clean_sbu_0--edge1-EYOCIG_clean_linker_4
_symmetry_space_group_name_H-M    P1
_symmetry_Int_Tables_number       1
_symmetry_cell_setting            triclinic
loop_
_symmetry_equiv_pos_as_xyz
'x, y, z'
_cell_length_a     30.158128
_cell_length_b     30.155318
_cell_length_c     8.8190154
_cell_angle_alpha  90.043
_cell_angle_beta   89.999417
_cell_angle_gamma 93.059897
loop_
_atom_site_label
_atom_site_type_symbol
_atom_site_fract_x
_atom_site_fract_y
_atom_site_fract_z
_atom_type_partial_charge
Co0 Co 0.2561 0.54073 0.41423 0.0
O1 O 0.21163 0.58438 0.4129 0.0
O2 O 0.23701 0.5525 0.61971 0.0
C3 C 0.30284 0.5781 0.25279 0.0
O4 O 0.30269 0.4955 0.46054 0.0
Co5 Co 0.27899 0.49151 0.11678 0.0
O6 O 0.32289 0.46267 0.24304 0.0
C7 C 0.19657 0.46633 0.2802 0.0
C8 C 0.21094 0.58055 0.55912 0.0
C9 C 0.32583 0.46825 0.3854 0.0
O10 O 0.20828 0.49157 0.39239 0.0
O11 O 0.21835 0.46418 0.15662 0.0
O12 O 0.30313 0.58774 0.39623 0.0
O13 O 0.2726 0.54897 0.20949 0.0
Co14 Co 0.46412 0.74837 0.60206 0.0
O15 O 0.42082 0.79315 0.60201 0.0
O16 O 0.45324 0.76764 0.39626 0.0
C17 C 0.426 0.70167 0.76172 0.0
O18 O 0.50904 0.70143 0.55691 0.0
Co19 Co 0.5123 0.72503 0.90069 0.0
O20 O 0.54106 0.68082 0.77519 0.0
C21 C 0.53858 0.80742 0.73914 0.0
C22 C 0.42518 0.79388 0.45594 0.0
C23 C 0.53579 0.67794 0.63268 0.0
O24 O 0.51357 0.79591 0.62611 0.0
O25 O 0.54022 0.78554 0.86261 0.0
O26 O 0.41676 0.7016 0.618 0.0
O27 O 0.45513 0.73175 0.80633 0.0
Co28 Co 0.24894 0.96393 0.91574 0.0
O29 O 0.29343 0.9203 0.91453 0.0
O30 O 0.26895 0.95318 0.12093 0.0
C31 C 0.2014 0.92574 0.75868 0.0
O32 O 0.20265 0.00936 0.96212 0.0
Co33 Co 0.22458 0.01149 0.6163 0.0
O34 O 0.18182 0.04147 0.74421 0.0
C35 C 0.30728 0.03834 0.77597 0.0
C36 C 0.29474 0.92483 0.06049 0.0
C37 C 0.1795 0.03654 0.88695 0.0
O38 O 0.2965 0.01313 0.88912 0.0
O39 O 0.28491 0.03991 0.65346 0.0
O40 O 0.20186 0.91682 0.90253 0.0
O41 O 0.23145 0.95461 0.7122 0.0
Co42 Co 0.04085 0.75572 0.10504 0.0
O43 O 0.08457 0.71129 0.10582 0.0
O44 O 0.05214 0.73639 0.89961 0.0
C45 C 0.07835 0.80275 0.26552 0.0
O46 O 0.99565 0.80214 0.0576 0.0
Co47 Co 0.99191 0.78001 0.40182 0.0
O48 O 0.96296 0.82344 0.27383 0.0
C49 C 0.96686 0.69665 0.24314 0.0
C50 C 0.08042 0.71049 0.95961 0.0
C51 C 0.9685 0.82569 0.13135 0.0
O52 O 0.99172 0.70792 0.12949 0.0
O53 O 0.96497 0.71901 0.36564 0.0
O54 O 0.0879 0.80283 0.12198 0.0
O55 O 0.04919 0.77266 0.30932 0.0
Co56 Co 0.75623 0.04042 0.91644 0.0
O57 O 0.7117 0.08399 0.9186 0.0
O58 O 0.73707 0.05077 0.12282 0.0
C59 C 0.80292 0.07897 0.75777 0.0
O60 O 0.80286 0.99509 0.95991 0.0
Co61 Co 0.77988 0.99316 0.61597 0.0
O62 O 0.82356 0.9635 0.74088 0.0
C63 C 0.69722 0.96655 0.77599 0.0
C64 C 0.71107 0.07925 0.06453 0.0
C65 C 0.8262 0.96831 0.88362 0.0
O66 O 0.70853 0.99124 0.89016 0.0
O67 O 0.71932 0.96524 0.65283 0.0
O68 O 0.80318 0.0877 0.90192 0.0
O69 O 0.77284 0.04997 0.71247 0.0
Co70 Co 0.9642 0.24863 0.10476 0.0
O71 O 0.92042 0.29299 0.10415 0.0
O72 O 0.95335 0.26777 0.89892 0.0
C73 C 0.92624 0.20191 0.2649 0.0
O74 O 0.00969 0.20233 0.05908 0.0
Co75 Co 0.01238 0.22472 0.40312 0.0
O76 O 0.04235 0.18173 0.27614 0.0
C77 C 0.03797 0.30779 0.24385 0.0
C78 C 0.92492 0.29368 0.95808 0.0
C79 C 0.03709 0.17927 0.13358 0.0
O80 O 0.01317 0.2965 0.13004 0.0
O81 O 0.03971 0.28552 0.3665 0.0
O82 O 0.91712 0.20146 0.12098 0.0
O83 O 0.95535 0.232 0.30889 0.0
Co84 Co 0.74892 0.46349 0.41551 0.0
O85 O 0.79345 0.41992 0.41212 0.0
O86 O 0.76841 0.4515 0.6202 0.0
C87 C 0.70173 0.4265 0.25462 0.0
O88 O 0.7023 0.50844 0.46406 0.0
Co89 Co 0.72547 0.51321 0.11977 0.0
O90 O 0.68124 0.54114 0.24751 0.0
C91 C 0.80822 0.53813 0.2816 0.0
C92 C 0.7944 0.42357 0.55842 0.0
C93 C 0.67862 0.53538 0.38984 0.0
O94 O 0.79666 0.51277 0.39359 0.0
O95 O 0.78623 0.54041 0.1585 0.0
O96 O 0.70188 0.41649 0.3977 0.0
O97 O 0.73194 0.45562 0.21113 0.0
Co98 Co 0.54097 0.25585 0.6046 0.0
O99 O 0.58451 0.21127 0.60854 0.0
O100 O 0.55272 0.23579 0.40025 0.0
C101 C 0.57829 0.30334 0.76387 0.0
O102 O 0.49593 0.30231 0.55534 0.0
Co103 Co 0.49181 0.28036 0.90079 0.0
O104 O 0.46294 0.32348 0.77134 0.0
C105 C 0.46597 0.19746 0.74078 0.0
C106 C 0.58074 0.20998 0.46231 0.0
C107 C 0.46862 0.32576 0.62891 0.0
O108 O 0.49158 0.20833 0.62869 0.0
O109 O 0.46385 0.21986 0.86315 0.0
O110 O 0.58811 0.30289 0.62061 0.0
O111 O 0.54914 0.27334 0.80836 0.0
C112 C 0.38085 0.6493 0.95471 0.0
C113 C 0.40162 0.67332 0.86746 0.0
C114 C 0.35469 0.62301 0.05769 0.0
C115 C 0.33088 0.60232 0.14577 0.0
C116 C 0.37607 0.84695 0.29623 0.0
C117 C 0.39907 0.82228 0.36505 0.0
C118 C 0.34784 0.87534 0.21873 0.0
C119 C 0.3232 0.89851 0.15048 0.0
C120 C 0.1227 0.85512 0.46078 0.0
C121 C 0.10234 0.83112 0.37231 0.0
C122 C 0.1487 0.88112 0.56512 0.0
C123 C 0.17258 0.90127 0.65447 0.0
C124 C 0.13017 0.65833 0.79824 0.0
C125 C 0.10698 0.68249 0.86859 0.0
C126 C 0.15834 0.63032 0.71864 0.0
C127 C 0.18272 0.60712 0.64923 0.0
C128 C 0.85468 0.12448 0.56381 0.0
C129 C 0.83105 0.10369 0.65222 0.0
C130 C 0.88067 0.15042 0.45946 0.0
C131 C 0.90171 0.1741 0.37186 0.0
C132 C 0.87542 0.34578 0.79591 0.0
C133 C 0.89854 0.32161 0.86638 0.0
C134 C 0.84725 0.37377 0.71647 0.0
C135 C 0.82279 0.39694 0.64746 0.0
C136 C 0.64882 0.38262 0.06 0.0
C137 C 0.6731 0.40281 0.148 0.0
C138 C 0.62261 0.35645 0.95683 0.0
C139 C 0.60219 0.33207 0.86973 0.0
C140 C 0.65886 0.12866 0.22687 0.0
C141 C 0.68313 0.1055 0.15685 0.0
C142 C 0.63071 0.15694 0.30535 0.0
C143 C 0.60744 0.1815 0.37366 0.0
C144 C 0.38421 0.41559 0.494 0.0
C145 C 0.35673 0.44153 0.46148 0.0
C146 C 0.41608 0.38372 0.51724 0.0
C147 C 0.442 0.35634 0.55088 0.0
C148 C 0.62693 0.91142 0.76949 0.0
C149 C 0.65807 0.93771 0.78462 0.0
C150 C 0.59352 0.87787 0.74278 0.0
C151 C 0.56728 0.84665 0.72885 0.0
C152 C 0.09046 0.122 0.02183 0.0
C153 C 0.06426 0.14904 0.05622 0.0
C154 C 0.12225 0.09017 0.99716 0.0
C155 C 0.14929 0.06389 0.96354 0.0
C156 C 0.91239 0.62595 0.25079 0.0
C157 C 0.93846 0.65721 0.23479 0.0
C158 C 0.87895 0.59257 0.27847 0.0
C159 C 0.84765 0.56646 0.29259 0.0
C160 C 0.37712 0.09398 0.77074 0.0
C161 C 0.3462 0.06744 0.78508 0.0
C162 C 0.41057 0.12745 0.74448 0.0
C163 C 0.43707 0.15843 0.73064 0.0
C164 C 0.88431 0.91535 0.99259 0.0
C165 C 0.85693 0.94126 0.95904 0.0
C166 C 0.91609 0.88354 0.01796 0.0
C167 C 0.94188 0.85621 0.05313 0.0
C168 C 0.09248 0.37842 0.25093 0.0
C169 C 0.06643 0.34715 0.23543 0.0
C170 C 0.12592 0.41184 0.27795 0.0
C171 C 0.15722 0.43795 0.2916 0.0
C172 C 0.58787 0.61896 0.5242 0.0
C173 C 0.56226 0.64672 0.55701 0.0
C174 C 0.61973 0.58711 0.50057 0.0
C175 C 0.64749 0.56157 0.46711 0.0
loop_
_geom_bond_atom_site_label_1
_geom_bond_atom_site_label_2
_geom_bond_distance
_geom_bond_site_symmetry_2
_ccdc_geom_bond_type
Co0 O1 2.216 . S
Co0 O2 2.091 . S
Co0 O4 2.004 . S
Co0 O10 2.021 . S
Co0 O12 2.137 . S
Co0 O13 2.244 . S
O1 Co0 2.216 . S
O1 C8 1.247 . S
O2 Co0 2.091 . S
O2 C8 1.261 . S
C3 O12 1.247 . S
C3 O13 1.272 . S
O4 Co0 2.004 . S
O4 C9 1.259 . S
Co5 O6 2.061 . S
Co5 O11 2.052 . S
Co5 O13 2.135 . S
O6 Co5 2.061 . S
O6 C9 1.235 . S
C7 O10 1.238 . S
C7 O11 1.241 . S
C8 O1 1.247 . S
C8 O2 1.261 . S
C9 O4 1.259 . S
C9 O6 1.235 . S
O10 Co0 2.021 . S
O10 C7 1.238 . S
O11 Co5 2.052 . S
O11 C7 1.241 . S
O12 Co0 2.137 . S
O12 C3 1.247 . S
O13 Co0 2.244 . S
O13 C3 1.272 . S
O13 Co5 2.135 . S
Co14 O15 2.216 . S
Co14 O16 2.091 . S
Co14 O18 2.004 . S
Co14 O24 2.021 . S
Co14 O26 2.137 . S
Co14 O27 2.244 . S
O15 Co14 2.216 . S
O15 C22 1.247 . S
O16 Co14 2.091 . S
O16 C22 1.261 . S
C17 O26 1.247 . S
C17 O27 1.272 . S
O18 Co14 2.004 . S
O18 C23 1.259 . S
Co19 O20 2.061 . S
Co19 O25 2.052 . S
Co19 O27 2.135 . S
O20 Co19 2.061 . S
O20 C23 1.235 . S
C21 O24 1.238 . S
C21 O25 1.241 . S
C22 O15 1.247 . S
C22 O16 1.261 . S
C23 O18 1.259 . S
C23 O20 1.235 . S
O24 Co14 2.021 . S
O24 C21 1.238 . S
O25 Co19 2.052 . S
O25 C21 1.241 . S
O26 Co14 2.137 . S
O26 C17 1.247 . S
O27 Co14 2.244 . S
O27 C17 1.272 . S
O27 Co19 2.135 . S
Co28 O29 2.216 . S
Co28 O30 2.091 1_556 S
Co28 O32 2.004 1_565 S
Co28 O38 2.021 1_565 S
Co28 O40 2.137 . S
Co28 O41 2.244 . S
O29 Co28 2.216 . S
O29 C36 1.247 1_556 S
O30 Co28 2.091 1_554 S
O30 C36 1.261 . S
C31 O40 1.247 . S
C31 O41 1.272 . S
O32 Co28 2.004 1_545 S
O32 C37 1.259 . S
Co33 O34 2.061 . S
Co33 O39 2.052 . S
Co33 O41 2.135 1_545 S
O34 Co33 2.061 . S
O34 C37 1.235 . S
C35 O38 1.238 . S
C35 O39 1.241 . S
C36 O29 1.247 1_554 S
C36 O30 1.261 . S
C37 O32 1.259 . S
C37 O34 1.235 . S
O38 Co28 2.021 1_545 S
O38 C35 1.238 . S
O39 Co33 2.052 . S
O39 C35 1.241 . S
O40 Co28 2.137 . S
O40 C31 1.247 . S
O41 Co28 2.244 . S
O41 C31 1.272 . S
O41 Co33 2.135 1_565 S
Co42 O43 2.216 . S
Co42 O44 2.091 1_554 S
Co42 O46 2.004 1_455 S
Co42 O52 2.021 1_455 S
Co42 O54 2.137 . S
Co42 O55 2.244 . S
O43 Co42 2.216 . S
O43 C50 1.247 1_554 S
O44 Co42 2.091 1_556 S
O44 C50 1.261 . S
C45 O54 1.247 . S
C45 O55 1.272 . S
O46 Co42 2.004 1_655 S
O46 C51 1.259 . S
Co47 O48 2.061 . S
Co47 O53 2.052 . S
Co47 O55 2.135 1_655 S
O48 Co47 2.061 . S
O48 C51 1.235 . S
C49 O52 1.238 . S
C49 O53 1.241 . S
C50 O43 1.247 1_556 S
C50 O44 1.261 . S
C51 O46 1.259 . S
C51 O48 1.235 . S
O52 Co42 2.021 1_655 S
O52 C49 1.238 . S
O53 Co47 2.052 . S
O53 C49 1.241 . S
O54 Co42 2.137 . S
O54 C45 1.247 . S
O55 Co42 2.244 . S
O55 C45 1.272 . S
O55 Co47 2.135 1_455 S
Co56 O57 2.216 . S
Co56 O58 2.091 1_556 S
Co56 O60 2.004 1_545 S
Co56 O66 2.021 1_545 S
Co56 O68 2.137 . S
Co56 O69 2.244 . S
O57 Co56 2.216 . S
O57 C64 1.247 1_556 S
O58 Co56 2.091 1_554 S
O58 C64 1.261 . S
C59 O68 1.247 . S
C59 O69 1.272 . S
O60 Co56 2.004 1_565 S
O60 C65 1.259 . S
Co61 O62 2.061 . S
Co61 O67 2.052 . S
Co61 O69 2.135 1_565 S
O62 Co61 2.061 . S
O62 C65 1.235 . S
C63 O66 1.238 . S
C63 O67 1.241 . S
C64 O57 1.247 1_554 S
C64 O58 1.261 . S
C65 O60 1.259 . S
C65 O62 1.235 . S
O66 Co56 2.021 1_565 S
O66 C63 1.238 . S
O67 Co61 2.052 . S
O67 C63 1.241 . S
O68 Co56 2.137 . S
O68 C59 1.247 . S
O69 Co56 2.244 . S
O69 C59 1.272 . S
O69 Co61 2.135 1_545 S
Co70 O71 2.216 . S
Co70 O72 2.091 1_554 S
Co70 O74 2.004 1_655 S
Co70 O80 2.021 1_655 S
Co70 O82 2.137 . S
Co70 O83 2.244 . S
O71 Co70 2.216 . S
O71 C78 1.247 1_554 S
O72 Co70 2.091 1_556 S
O72 C78 1.261 . S
C73 O82 1.247 . S
C73 O83 1.272 . S
O74 Co70 2.004 1_455 S
O74 C79 1.259 . S
Co75 O76 2.061 . S
Co75 O81 2.052 . S
Co75 O83 2.135 1_455 S
O76 Co75 2.061 . S
O76 C79 1.235 . S
C77 O80 1.238 . S
C77 O81 1.241 . S
C78 O71 1.247 1_556 S
C78 O72 1.261 . S
C79 O74 1.259 . S
C79 O76 1.235 . S
O80 Co70 2.021 1_455 S
O80 C77 1.238 . S
O81 Co75 2.052 . S
O81 C77 1.241 . S
O82 Co70 2.137 . S
O82 C73 1.247 . S
O83 Co70 2.244 . S
O83 C73 1.272 . S
O83 Co75 2.135 1_655 S
Co84 O85 2.216 . S
Co84 O86 2.091 . S
Co84 O88 2.004 . S
Co84 O94 2.021 . S
Co84 O96 2.137 . S
Co84 O97 2.244 . S
O85 Co84 2.216 . S
O85 C92 1.247 . S
O86 Co84 2.091 . S
O86 C92 1.261 . S
C87 O96 1.247 . S
C87 O97 1.272 . S
O88 Co84 2.004 . S
O88 C93 1.259 . S
Co89 O90 2.061 . S
Co89 O95 2.052 . S
Co89 O97 2.135 . S
O90 Co89 2.061 . S
O90 C93 1.235 . S
C91 O94 1.238 . S
C91 O95 1.241 . S
C92 O85 1.247 . S
C92 O86 1.261 . S
C93 O88 1.259 . S
C93 O90 1.235 . S
O94 Co84 2.021 . S
O94 C91 1.238 . S
O95 Co89 2.052 . S
O95 C91 1.241 . S
O96 Co84 2.137 . S
O96 C87 1.247 . S
O97 Co84 2.244 . S
O97 C87 1.272 . S
O97 Co89 2.135 . S
Co98 O99 2.216 . S
Co98 O100 2.091 . S
Co98 O102 2.004 . S
Co98 O108 2.021 . S
Co98 O110 2.137 . S
Co98 O111 2.244 . S
O99 Co98 2.216 . S
O99 C106 1.247 . S
O100 Co98 2.091 . S
O100 C106 1.261 . S
C101 O110 1.247 . S
C101 O111 1.272 . S
O102 Co98 2.004 . S
O102 C107 1.259 . S
Co103 O104 2.061 . S
Co103 O109 2.052 . S
Co103 O111 2.135 . S
O104 Co103 2.061 . S
O104 C107 1.235 . S
C105 O108 1.238 . S
C105 O109 1.241 . S
C106 O99 1.247 . S
C106 O100 1.261 . S
C107 O102 1.259 . S
C107 O104 1.235 . S
O108 Co98 2.021 . S
O108 C105 1.238 . S
O109 Co103 2.052 . S
O109 C105 1.241 . S
O110 Co98 2.137 . S
O110 C101 1.247 . S
O111 Co98 2.244 . S
O111 C101 1.272 . S
O111 Co103 2.135 . S
C112 C113 1.170 . S
C112 C114 1.380 1_556 S
C113 C112 1.170 . S
C114 C112 1.380 1_554 S
C114 C115 1.170 . S
C115 C114 1.170 . S
C116 C117 1.170 . S
C116 C118 1.380 . S
C117 C116 1.170 . S
C118 C116 1.380 . S
C118 C119 1.170 . S
C119 C118 1.170 . S
C120 C121 1.170 . S
C120 C122 1.380 . S
C121 C120 1.170 . S
C122 C120 1.380 . S
C122 C123 1.170 . S
C123 C122 1.170 . S
C124 C125 1.170 . S
C124 C126 1.380 . S
C125 C124 1.170 . S
C126 C124 1.380 . S
C126 C127 1.170 . S
C127 C126 1.170 . S
C128 C129 1.170 . S
C128 C130 1.380 . S
C129 C128 1.170 . S
C130 C128 1.380 . S
C130 C131 1.170 . S
C131 C130 1.170 . S
C132 C133 1.170 . S
C132 C134 1.380 . S
C133 C132 1.170 . S
C134 C132 1.380 . S
C134 C135 1.170 . S
C135 C134 1.170 . S
C136 C137 1.170 . S
C136 C138 1.380 1_554 S
C137 C136 1.170 . S
C138 C136 1.380 1_556 S
C138 C139 1.170 . S
C139 C138 1.170 . S
C140 C141 1.170 . S
C140 C142 1.380 . S
C141 C140 1.170 . S
C142 C140 1.380 . S
C142 C143 1.170 . S
C143 C142 1.170 . S
C144 C145 1.170 . S
C144 C146 1.380 . S
C145 C144 1.170 . S
C146 C144 1.380 . S
C146 C147 1.170 . S
C147 C146 1.170 . S
C148 C149 1.170 . S
C148 C150 1.380 . S
C149 C148 1.170 . S
C150 C148 1.380 . S
C150 C151 1.170 . S
C151 C150 1.170 . S
C152 C153 1.170 . S
C152 C154 1.380 1_554 S
C153 C152 1.170 . S
C154 C152 1.380 1_556 S
C154 C155 1.170 . S
C155 C154 1.170 . S
C156 C157 1.170 . S
C156 C158 1.380 . S
C157 C156 1.170 . S
C158 C156 1.380 . S
C158 C159 1.170 . S
C159 C158 1.170 . S
C160 C161 1.170 . S
C160 C162 1.380 . S
C161 C160 1.170 . S
C162 C160 1.380 . S
C162 C163 1.170 . S
C163 C162 1.170 . S
C164 C165 1.170 . S
C164 C166 1.380 . S
C165 C164 1.170 . S
C166 C164 1.380 . S
C166 C167 1.170 1_556 S
C167 C166 1.170 1_554 S
C168 C169 1.170 . S
C168 C170 1.380 . S
C169 C168 1.170 . S
C170 C168 1.380 . S
C170 C171 1.170 . S
C171 C170 1.170 . S
C172 C173 1.170 . S
C172 C174 1.380 . S
C173 C172 1.170 . S
C174 C172 1.380 . S
C174 C175 1.170 . S
C175 C174 1.170 . S
C113 C17 1.443 . S
C115 C3 1.452 . S
C117 C22 1.449 . S
C119 C36 1.450 . S
C121 C45 1.451 . S
C123 C31 1.443 . S
C125 C50 1.449 . S
C127 C8 1.451 . S
C129 C59 1.445 . S
C131 C73 1.450 . S
C133 C78 1.448 . S
C135 C92 1.451 . S
C137 C87 1.448 . S
C139 C101 1.446 . S
C141 C64 1.448 . S
C143 C106 1.451 . S
C145 C9 1.428 . S
C147 C107 1.455 . S
C149 C63 1.446 . S
C151 C21 1.464 . S
C153 C79 1.441 . S
C155 C37 1.430 . S
C157 C49 1.447 . S
C159 C91 1.464 . S
C161 C35 1.439 . S
C163 C105 1.448 . S
C165 C65 1.429 . S
C167 C51 1.456 . S
C169 C77 1.451 . S
C171 C7 1.465 . S
C173 C23 1.448 . S
C175 C93 1.449 . S
