# Generated by pormake.
# Topology kag, (6)-cn, num edge types: 1
# Building blocks:
#     Node 0, Type 0, BuildingBlock: BETDEL_clean_sbu_0, # of connection points: 6
#     Node 1, Type 0, BuildingBlock: BETDEL_clean_sbu_0, # of connection points: 6
#     Node 2, Type 0, BuildingBlock: BETDEL_clean_sbu_0, # of connection points: 6
#     Edge 3, Type (0, 0), None
#     Edge 4, Type (0, 0), None
#     Edge 5, Type (0, 0), None
#     Edge 6, Type (0, 0), None
#     Edge 7, Type (0, 0), None
#     Edge 8, Type (0, 0), None
#     Edge 9, Type (0, 0), None
#     Edge 10, Type (0, 0), None
#     Edge 11, Type (0, 0), None
# Relax obj value: 0.051
# Max RMSD: 0.114
# Mean RMSD: 0.078
data_MOF--net-kag--node1-BETDEL_clean_sbu_0--edge1-none
_symmetry_space_group_name_H-M    P1
_symmetry_Int_Tables_number       1
_symmetry_cell_setting            triclinic
loop_
_symmetry_equiv_pos_as_xyz
'x, y, z'
_cell_length_a     14.201919
_cell_length_b     16.755609
_cell_length_c     6.1107528
_cell_angle_alpha  97.311809
_cell_angle_beta   92.970067
_cell_angle_gamma 107.47388
loop_
_atom_site_label
_atom_site_type_symbol
_atom_site_fract_x
_atom_site_fract_y
_atom_site_fract_z
_atom_type_partial_charge
Dy0 Dy 0.9918 0.42743 0.98307 0.0
C1 C 0.16036 0.79 0.0494 0.0
C2 C 0.89875 0.26113 1.00781 0.0
Dy3 Dy 0.06734 0.62366 0.07381 0.0
O4 O 0.91025 0.29374 0.82576 0.0
O5 O 0.93909 0.31921 0.17641 0.0
O6 O 0.03348 0.42998 0.63381 0.0
O7 O 0.98742 0.5288 0.79674 0.0
C8 C 1.02175 0.5035 0.62473 0.0
C9 C 0.03706 0.5473 0.43184 0.0
O10 O 0.9053 0.60708 0.03151 0.0
O11 O 0.85413 0.46304 0.05876 0.0
O12 O 0.14886 0.75733 0.23137 0.0
O13 O 0.12004 0.73195 0.88071 0.0
O14 O 1.02529 0.62082 0.42295 0.0
O15 O 0.07168 0.52238 0.25989 0.0
O16 O 0.15384 0.44401 1.0254 0.0
O17 O 0.20502 0.58806 0.9982 0.0
C18 C 0.8356 0.53596 0.05211 0.0
C19 C 0.22355 0.51513 1.00489 0.0
Dy20 Dy 0.64341 0.07018 0.0681 0.0
C21 C 0.23546 0.86988 0.03218 0.0
C22 C 0.82365 0.18126 1.02516 0.0
Dy23 Dy 0.41575 0.98095 0.98958 0.0
O24 O 0.79114 0.16134 0.21178 0.0
O25 O 0.75973 0.13729 0.86124 0.0
O26 O 0.64667 0.03748 0.4117 0.0
O27 O 0.5189 0.05825 0.26634 0.0
C28 C 0.55496 0.03463 0.43025 0.0
C29 C 0.5045 1.01681 0.62776 0.0
O30 O 0.40783 0.11297 0.03758 0.0
O31 O 0.57857 0.17572 0.03498 0.0
O32 O 0.26804 0.88982 0.84563 0.0
O33 O 0.29933 0.91383 0.19621 0.0
O34 O 0.41279 1.01401 0.64611 0.0
O35 O 0.54014 0.99291 0.79165 0.0
O36 O 0.65132 0.93816 1.02013 0.0
O37 O 0.48058 0.8754 1.0226 0.0
C38 C 0.4867 0.1797 0.03554 0.0
C39 C 0.57244 0.87142 1.02205 0.0
Dy40 Dy 0.56241 0.62416 0.07364 0.0
C41 C 0.47638 0.26386 0.03894 0.0
C42 C 0.58274 0.78725 1.01855 0.0
Dy43 Dy 0.49675 0.42696 0.98396 0.0
O44 O 0.63402 0.76542 0.1694 0.0
O45 O 0.52085 0.72044 0.90105 0.0
O46 O 0.59701 0.6245 0.43844 0.0
O47 O 0.48767 0.52196 0.25025 0.0
C48 C 0.53791 0.54809 0.43389 0.0
C49 C 0.52114 0.50329 0.62394 0.0
O50 O 0.34897 0.44561 0.03287 0.0
O51 O 0.39634 0.58828 0.9932 0.0
O52 O 0.4253 0.28571 0.88773 0.0
O53 O 0.53812 0.33066 0.15681 0.0
O54 O 0.46196 0.42689 0.61917 0.0
O55 O 0.57135 0.52908 0.80762 0.0
O56 O 0.71018 0.60551 1.02458 0.0
O57 O 0.66283 0.46282 0.06404 0.0
C58 C 0.32707 0.5154 1.00341 0.0
C59 C 0.7321 0.5357 0.05384 0.0
loop_
_geom_bond_atom_site_label_1
_geom_bond_atom_site_label_2
_geom_bond_distance
_geom_bond_site_symmetry_2
_ccdc_geom_bond_type
Dy0 O4 2.398 . S
Dy0 O5 2.491 1_556 S
Dy0 O6 2.403 . S
Dy0 O7 2.664 1_655 S
Dy0 O11 2.326 . S
Dy0 O15 2.310 1_556 S
Dy0 O16 2.351 1_655 S
C1 O12 1.185 . S
C1 O13 1.355 1_554 S
C2 O4 1.185 . S
C2 O5 1.355 1_556 S
Dy3 O7 2.310 1_554 S
Dy3 O10 2.351 1_455 S
Dy3 O12 2.398 . S
Dy3 O13 2.491 1_554 S
Dy3 O14 2.403 . S
Dy3 O15 2.664 1_455 S
Dy3 O17 2.326 . S
O4 Dy0 2.398 . S
O4 C2 1.185 . S
O5 Dy0 2.491 1_554 S
O5 C2 1.355 1_554 S
O6 Dy0 2.403 . S
O6 C8 1.254 . S
O7 Dy0 2.664 1_455 S
O7 Dy3 2.310 1_556 S
O7 C8 1.268 1_455 S
C8 O6 1.254 . S
C8 O7 1.268 1_655 S
C9 O14 1.254 . S
C9 O15 1.268 1_455 S
O10 Dy3 2.351 1_655 S
O10 C18 1.249 1_554 S
O11 Dy0 2.326 . S
O11 C18 1.267 . S
O12 C1 1.185 . S
O12 Dy3 2.398 . S
O13 C1 1.355 1_556 S
O13 Dy3 2.491 1_556 S
O14 Dy3 2.403 . S
O14 C9 1.254 . S
O15 Dy0 2.310 1_554 S
O15 Dy3 2.664 1_655 S
O15 C9 1.268 1_655 S
O16 Dy0 2.351 1_455 S
O16 C19 1.249 1_556 S
O17 Dy3 2.326 . S
O17 C19 1.267 . S
C18 O10 1.249 1_556 S
C18 O11 1.267 . S
C19 O16 1.249 1_554 S
C19 O17 1.267 . S
Dy20 O24 2.398 . S
Dy20 O25 2.491 1_554 S
Dy20 O26 2.403 . S
Dy20 O27 2.664 1_545 S
Dy20 O31 2.326 . S
Dy20 O35 2.310 1_554 S
Dy20 O36 2.351 1_545 S
C21 O32 1.185 . S
C21 O33 1.355 1_556 S
C22 O24 1.185 . S
C22 O25 1.355 1_554 S
Dy23 O27 2.310 1_556 S
Dy23 O30 2.351 1_565 S
Dy23 O32 2.398 . S
Dy23 O33 2.491 1_556 S
Dy23 O34 2.403 . S
Dy23 O35 2.664 1_565 S
Dy23 O37 2.326 . S
O24 Dy20 2.398 . S
O24 C22 1.185 . S
O25 Dy20 2.491 1_556 S
O25 C22 1.355 1_556 S
O26 Dy20 2.403 . S
O26 C28 1.254 . S
O27 Dy20 2.664 1_565 S
O27 Dy23 2.310 1_554 S
O27 C28 1.268 1_565 S
C28 O26 1.254 . S
C28 O27 1.268 1_545 S
C29 O34 1.254 . S
C29 O35 1.268 1_565 S
O30 Dy23 2.351 1_545 S
O30 C38 1.249 1_556 S
O31 Dy20 2.326 . S
O31 C38 1.267 . S
O32 C21 1.185 . S
O32 Dy23 2.398 . S
O33 C21 1.355 1_554 S
O33 Dy23 2.491 1_554 S
O34 Dy23 2.403 . S
O34 C29 1.254 . S
O35 Dy20 2.310 1_556 S
O35 Dy23 2.664 1_545 S
O35 C29 1.268 1_545 S
O36 Dy20 2.351 1_565 S
O36 C39 1.249 1_554 S
O37 Dy23 2.326 . S
O37 C39 1.267 . S
C38 O30 1.249 1_554 S
C38 O31 1.267 . S
C39 O36 1.249 1_556 S
C39 O37 1.267 . S
Dy40 O44 2.398 . S
Dy40 O45 2.491 1_554 S
Dy40 O46 2.403 . S
Dy40 O47 2.664 . S
Dy40 O51 2.326 . S
Dy40 O55 2.310 1_554 S
Dy40 O56 2.351 . S
C41 O52 1.185 . S
C41 O53 1.355 1_556 S
C42 O44 1.185 . S
C42 O45 1.355 1_554 S
Dy43 O47 2.310 1_556 S
Dy43 O50 2.351 . S
Dy43 O52 2.398 . S
Dy43 O53 2.491 1_556 S
Dy43 O54 2.403 . S
Dy43 O55 2.664 . S
Dy43 O57 2.326 . S
O44 Dy40 2.398 . S
O44 C42 1.185 . S
O45 Dy40 2.491 1_556 S
O45 C42 1.355 1_556 S
O46 Dy40 2.403 . S
O46 C48 1.254 . S
O47 Dy40 2.664 . S
O47 Dy43 2.310 1_554 S
O47 C48 1.268 . S
C48 O46 1.254 . S
C48 O47 1.268 . S
C49 O54 1.254 . S
C49 O55 1.268 . S
O50 Dy43 2.351 . S
O50 C58 1.249 1_556 S
O51 Dy40 2.326 . S
O51 C58 1.267 . S
O52 C41 1.185 . S
O52 Dy43 2.398 . S
O53 C41 1.355 1_554 S
O53 Dy43 2.491 1_554 S
O54 Dy43 2.403 . S
O54 C49 1.254 . S
O55 Dy40 2.310 1_556 S
O55 Dy43 2.664 . S
O55 C49 1.268 . S
O56 Dy40 2.351 . S
O56 C59 1.249 1_554 S
O57 Dy43 2.326 . S
O57 C59 1.267 . S
C58 O50 1.249 1_554 S
C58 O51 1.267 . S
C59 O56 1.249 1_556 S
C59 O57 1.267 . S
C8 C9 1.518 1_655 S
C28 C29 1.486 1_545 S
C49 C48 1.527 . S
C19 C58 2.090 . S
C22 C2 1.085 1_554 S
C39 C42 1.732 1_556 S
C18 C59 2.090 . S
C1 C21 1.086 1_554 S
C41 C38 1.732 1_556 S
