# Generated by pormake.
# Topology lon, (4)-cn, num edge types: 1
# Building blocks:
#     Node 0, Type 0, BuildingBlock: AZAVOO_clean_sbu_0, # of connection points: 4
#     Node 1, Type 0, BuildingBlock: AZAVOO_clean_sbu_0, # of connection points: 4
#     Node 2, Type 0, BuildingBlock: AZAVOO_clean_sbu_0, # of connection points: 4
#     Node 3, Type 0, BuildingBlock: AZAVOO_clean_sbu_0, # of connection points: 4
#     Edge 4, Type (0, 0), BuildingBlock: EZIPEK_clean_linker_0, # of connection points: 2
#     Edge 5, Type (0, 0), BuildingBlock: EZIPEK_clean_linker_0, # of connection points: 2
#     Edge 6, Type (0, 0), BuildingBlock: EZIPEK_clean_linker_0, # of connection points: 2
#     Edge 7, Type (0, 0), BuildingBlock: EZIPEK_clean_linker_0, # of connection points: 2
#     Edge 8, Type (0, 0), BuildingBlock: EZIPEK_clean_linker_0, # of connection points: 2
#     Edge 9, Type (0, 0), BuildingBlock: EZIPEK_clean_linker_0, # of connection points: 2
#     Edge 10, Type (0, 0), BuildingBlock: EZIPEK_clean_linker_0, # of connection points: 2
#     Edge 11, Type (0, 0), BuildingBlock: EZIPEK_clean_linker_0, # of connection points: 2
# Relax obj value: 0.024
# Max RMSD: 0.075
# Mean RMSD: 0.064
data_MOF--net-lon--node1-AZAVOO_clean_sbu_0--edge1-EZIPEK_clean_linker_0
_symmetry_space_group_name_H-M    P1
_symmetry_Int_Tables_number       1
_symmetry_cell_setting            triclinic
loop_
_symmetry_equiv_pos_as_xyz
'x, y, z'
_cell_length_a     18.202186
_cell_length_b     17.830155
_cell_length_c     30.647669
_cell_angle_alpha  96.421067
_cell_angle_beta   90.030781
_cell_angle_gamma 120.43418
loop_
_atom_site_label
_atom_site_type_symbol
_atom_site_fract_x
_atom_site_fract_y
_atom_site_fract_z
_atom_type_partial_charge
Mg0 Mg 0.46765 0.67515 0.07935 0.0
O1 O 0.32692 0.61703 0.05494 0.0
O2 O 0.28182 0.70388 0.08784 0.0
Mg3 Mg 0.38929 0.81145 0.13623 0.0
C4 C 0.26954 0.63778 0.06099 0.0
C5 C 0.55114 0.57938 0.03267 0.0
O6 O 0.6004 0.62077 0.06889 0.0
O7 O 0.5048 0.78442 0.0368 0.0
O8 O 0.46498 0.86948 0.07702 0.0
O9 O 0.43 0.59872 0.13673 0.0
O10 O 0.44757 0.73095 0.13748 0.0
C11 C 0.50036 0.85402 0.04398 0.0
C12 C 0.4269 0.66429 0.15755 0.0
O13 O 0.48721 0.58816 0.02537 0.0
Mg14 Mg 0.64738 0.38526 0.57255 0.0
O15 O 0.57868 0.23946 0.54272 0.0
O16 O 0.46199 0.17104 0.5799 0.0
Mg17 Mg 0.46631 0.2671 0.63794 0.0
C18 C 0.50844 0.17074 0.54871 0.0
C19 C 0.78269 0.5078 0.51834 0.0
O20 O 0.77529 0.55981 0.54966 0.0
O21 O 0.54231 0.40136 0.54307 0.0
O22 O 0.43712 0.33862 0.5885 0.0
O23 O 0.72912 0.36703 0.61802 0.0
O24 O 0.60486 0.35446 0.63428 0.0
C25 C 0.46877 0.38199 0.55613 0.0
C26 C 0.67135 0.35153 0.64593 0.0
O27 O 0.72946 0.42591 0.51455 0.0
Mg28 Mg 0.26601 0.6266 0.4089 0.0
O29 O 0.34411 0.77262 0.43777 0.0
O30 O 0.29587 0.84173 0.40074 0.0
Mg31 Mg 0.20296 0.74527 0.3433 0.0
C32 C 0.34292 0.84172 0.43168 0.0
C33 C 0.28183 0.50546 0.46343 0.0
O34 O 0.223 0.45278 0.43214 0.0
O35 O 0.14641 0.61305 0.43904 0.0
O36 O 0.10355 0.67549 0.39331 0.0
O37 O 0.36359 0.64174 0.36248 0.0
O38 O 0.2525 0.65597 0.34703 0.0
C39 C 0.09234 0.63275 0.42594 0.0
C40 C 0.32055 0.65673 0.33468 0.0
O41 O 0.30899 0.58715 0.46702 0.0
Mg42 Mg 0.78824 0.30337 0.89808 0.0
O43 O 0.71481 0.37103 0.92521 0.0
O44 O 0.5825 0.29414 0.89238 0.0
Mg45 Mg 0.57367 0.18461 0.84148 0.0
C46 C 0.63896 0.35702 0.9196 0.0
C47 C 0.9537 0.45629 0.95035 0.0
O48 O 0.94724 0.49641 0.91842 0.0
O49 O 0.71015 0.19169 0.93805 0.0
O50 O 0.58513 0.11576 0.89778 0.0
O51 O 0.83283 0.38422 0.8423 0.0
O52 O 0.71232 0.25719 0.83999 0.0
C53 C 0.63479 0.12525 0.93011 0.0
C54 C 0.76223 0.324 0.82098 0.0
O55 O 0.89564 0.37747 0.95285 0.0
C56 C 0.31505 0.59696 0.2114 0.0
C57 C 0.39807 0.66282 0.20262 0.0
C58 C 0.42239 0.73389 0.27875 0.0
C59 C 0.34346 0.66294 0.28859 0.0
N60 N 0.21968 0.51962 0.26638 0.0
N61 N 0.53638 0.7868 0.22904 0.0
C62 C 0.29077 0.59261 0.25546 0.0
C63 C 0.45322 0.72979 0.23653 0.0
N64 N 0.25839 0.54035 0.17754 0.0
N65 N 0.46698 0.80583 0.30957 0.0
H66 H 0.56229 0.78475 0.1989 0.0
H67 H 0.58192 0.83096 0.25372 0.0
H68 H 0.44581 0.81054 0.34084 0.0
H69 H 0.52054 0.86369 0.30293 0.0
H70 H 0.19402 0.49747 0.18144 0.0
H71 H 0.27359 0.54149 0.14473 0.0
H72 H 0.18485 0.46218 0.24462 0.0
H73 H 0.19904 0.51337 0.29819 0.0
C74 C 0.68845 0.26553 0.69971 0.0
C75 C 0.68712 0.34128 0.69141 0.0
C76 C 0.7288 0.40337 0.76896 0.0
C77 C 0.73784 0.33129 0.77636 0.0
N78 N 0.74022 0.20075 0.74761 0.0
N79 N 0.71772 0.48847 0.71577 0.0
C80 C 0.72095 0.26385 0.74148 0.0
C81 C 0.71009 0.41183 0.72542 0.0
N82 N 0.65732 0.19474 0.6678 0.0
N83 N 0.7353 0.46219 0.80367 0.0
H84 H 0.70357 0.49726 0.68444 0.0
H85 H 0.74433 0.54576 0.73797 0.0
H86 H 0.74915 0.45849 0.83609 0.0
H87 H 0.71977 0.5103 0.80096 0.0
H88 H 0.64779 0.13392 0.67327 0.0
H89 H 0.63404 0.1946 0.63666 0.0
H90 H 0.73779 0.1554 0.72224 0.0
H91 H 0.76646 0.19845 0.77734 0.0
C92 C 0.57102 0.4496 0.01923 0.0
C93 C 0.56789 0.51916 0.00251 0.0
C94 C 0.59981 0.47437 0.92966 0.0
C95 C 0.61344 0.4122 0.94784 0.0
N96 N 0.61805 0.34387 0.01066 0.0
N97 N 0.59056 0.60588 0.94342 0.0
C98 C 0.60114 0.40105 -0.00707 0.0
C99 C 0.5847 0.53344 0.95803 0.0
N100 N 0.54106 0.42705 0.0595 0.0
N101 N 0.60051 0.47654 0.88522 0.0
H102 H 0.58071 0.65113 0.96319 0.0
H103 H 0.61224 0.62532 0.91292 0.0
H104 H 0.61267 0.43541 0.86352 0.0
H105 H 0.58203 0.51377 0.86948 0.0
H106 H 0.53317 0.37135 0.07165 0.0
H107 H 0.51583 0.45908 0.07913 0.0
H108 H 0.62062 0.34085 0.04432 0.0
H109 H 0.63481 0.3028 -0.00795 0.0
C110 C 0.01741 0.6272 0.49501 0.0
C111 C 1.01262 0.60346 0.44899 0.0
C112 C 0.85615 0.52645 0.44755 0.0
C113 C 0.86139 0.54143 0.49415 0.0
N114 N 0.94802 0.5873 0.56263 0.0
N115 N 0.92714 0.51625 0.38232 0.0
C116 C 0.94229 0.5868 0.51809 0.0
C117 C 0.93186 0.54934 0.42535 0.0
N118 N 0.09318 0.69043 0.51658 0.0
N119 N 0.77937 0.49256 0.42443 0.0
H120 H 0.98084 0.52914 0.3651 0.0
H121 H 0.86995 0.46923 0.36497 0.0
H122 H 0.7227 0.47572 0.4396 0.0
H123 H 0.77325 0.48876 0.39034 0.0
H124 H 0.0983 0.71622 0.54942 0.0
H125 H 0.14905 0.72381 0.50044 0.0
H126 H 1.0059 0.6121 0.58073 0.0
H127 H 0.89507 0.55428 0.58085 0.0
C128 C 0.6498 0.01637 0.9693 0.0
C129 C 0.60218 0.05626 0.95955 0.0
C130 C 0.48255 0.95016 -0.00289 0.0
C131 C 0.53453 0.91914 0.01248 0.0
N132 N 0.67446 0.93553 0.01995 0.0
N133 N 0.48064 0.07384 0.97356 0.0
C134 C 0.62015 0.95554 0.00042 0.0
C135 C 0.52054 0.0268 0.9761 0.0
N136 N 0.72123 0.03342 0.94767 0.0
N137 N 0.39634 0.9049 0.00119 0.0
H138 H 0.50827 0.13325 0.96057 0.0
H139 H 0.42455 0.05895 0.98887 0.0
H140 H 0.36517 0.84571 0.0144 0.0
H141 H 0.35494 0.92089 0.98689 0.0
H142 H 0.75302 0.99916 0.95057 0.0
H143 H 0.7436 0.07497 0.92338 0.0
H144 H 0.73971 0.96757 0.01545 0.0
H145 H 0.65648 0.89345 0.04394 0.0
C146 C 0.39991 0.38803 0.48692 0.0
C147 C 0.41834 0.4115 0.53299 0.0
C148 C 0.33765 0.48784 0.53433 0.0
C149 C 0.3281 0.47289 0.48772 0.0
N150 N 0.37007 0.42803 0.41932 0.0
N151 N 0.41861 0.49803 0.59969 0.0
C152 C 0.36461 0.4282 0.46383 0.0
C153 C 0.39083 0.4652 0.5566 0.0
N154 N 0.41337 0.32517 0.46533 0.0
N155 N 0.29419 0.52138 0.55739 0.0
H156 H 0.45955 0.48519 0.61695 0.0
H157 H 0.40775 0.54476 0.61707 0.0
H158 H 0.25414 0.53808 0.54217 0.0
H159 H 0.29175 0.5251 0.59147 0.0
H160 H 0.39314 0.29956 0.43244 0.0
H161 H 0.43622 0.29183 0.48144 0.0
H162 H 0.40378 0.40374 0.40126 0.0
H163 H 0.34965 0.4609 0.40111 0.0
C164 C 0.19016 0.58223 0.9866 0.0
C165 C 0.18806 0.58793 0.03312 0.0
C166 C 0.03116 0.51126 0.02575 0.0
C167 C 0.0336 0.49876 0.97933 0.0
N168 N 0.11509 0.50329 0.91646 0.0
N169 N 0.10641 0.54532 0.0971 0.0
C170 C 0.11302 0.52871 0.96 0.0
C171 C 0.10842 0.54881 0.05278 0.0
N172 N 0.26509 0.63142 0.96763 0.0
N173 N 0.95574 0.49077 0.04399 0.0
H174 H 0.16147 0.57221 0.11793 0.0
H175 H 0.0504 0.50936 0.11266 0.0
H176 H 0.89805 0.46381 0.02531 0.0
H177 H 0.95147 0.50729 0.07719 0.0
H178 H 0.26821 0.63685 0.93409 0.0
H179 H 0.32292 0.67411 0.98569 0.0
H180 H 0.17124 0.51588 0.90185 0.0
H181 H 0.06017 0.46153 0.89601 0.0
C182 C 0.44481 0.00699 0.53616 0.0
C183 C 0.4779 0.08738 0.51831 0.0
C184 C 0.44408 0.0051 0.4441 0.0
C185 C 0.39604 0.92494 0.46197 0.0
N186 N 0.34088 0.85203 0.52663 0.0
N187 N 0.49717 0.16076 0.4536 0.0
C188 C 0.39427 0.92625 0.50848 0.0
C189 C 0.47517 0.08614 0.47178 0.0
N190 N 0.46333 0.00739 0.57943 0.0
N191 N 0.462 0.00407 0.40082 0.0
H192 H 0.51801 0.22151 0.47198 0.0
H193 H 0.48677 0.16058 0.42014 0.0
H194 H 0.4433 0.94614 0.37994 0.0
H195 H 0.50356 0.0606 0.38714 0.0
H196 H 0.44761 0.95048 0.59304 0.0
H197 H 0.50286 0.06495 0.60037 0.0
H198 H 0.33055 0.85251 0.56008 0.0
H199 H 0.30052 0.79154 0.50824 0.0
loop_
_geom_bond_atom_site_label_1
_geom_bond_atom_site_label_2
_geom_bond_distance
_geom_bond_site_symmetry_2
_ccdc_geom_bond_type
Mg0 O1 2.028 . S
Mg0 O7 1.986 . S
Mg0 O9 2.114 . S
Mg0 O10 2.251 . S
Mg0 O13 2.010 . S
O1 Mg0 2.028 . S
O1 C4 1.250 . S
O2 Mg3 2.028 . S
O2 C4 1.248 . S
Mg3 O2 2.028 . S
Mg3 O8 2.032 . S
Mg3 O10 2.079 . S
C4 O1 1.250 . S
C4 O2 1.248 . S
C5 O6 1.264 . S
C5 O13 1.249 . S
O6 C5 1.264 . S
O7 Mg0 1.986 . S
O7 C11 1.246 . S
O8 Mg3 2.032 . S
O8 C11 1.259 . S
O9 Mg0 2.114 . S
O9 C12 1.252 . S
O10 Mg0 2.251 . S
O10 Mg3 2.079 . S
O10 C12 1.273 . S
C11 O7 1.246 . S
C11 O8 1.259 . S
C12 O9 1.252 . S
C12 O10 1.273 . S
O13 Mg0 2.010 . S
O13 C5 1.249 . S
Mg14 O15 2.028 . S
Mg14 O21 1.986 . S
Mg14 O23 2.114 . S
Mg14 O24 2.251 . S
Mg14 O27 2.010 . S
O15 Mg14 2.028 . S
O15 C18 1.250 . S
O16 Mg17 2.028 . S
O16 C18 1.248 . S
Mg17 O16 2.028 . S
Mg17 O22 2.032 . S
Mg17 O24 2.079 . S
C18 O15 1.250 . S
C18 O16 1.248 . S
C19 O20 1.264 . S
C19 O27 1.249 . S
O20 C19 1.264 . S
O21 Mg14 1.986 . S
O21 C25 1.246 . S
O22 Mg17 2.032 . S
O22 C25 1.259 . S
O23 Mg14 2.114 . S
O23 C26 1.252 . S
O24 Mg14 2.251 . S
O24 Mg17 2.079 . S
O24 C26 1.273 . S
C25 O21 1.246 . S
C25 O22 1.259 . S
C26 O23 1.252 . S
C26 O24 1.273 . S
O27 Mg14 2.010 . S
O27 C19 1.249 . S
Mg28 O29 2.028 . S
Mg28 O35 1.986 . S
Mg28 O37 2.114 . S
Mg28 O38 2.251 . S
Mg28 O41 2.010 . S
O29 Mg28 2.028 . S
O29 C32 1.250 . S
O30 Mg31 2.028 . S
O30 C32 1.248 . S
Mg31 O30 2.028 . S
Mg31 O36 2.032 . S
Mg31 O38 2.079 . S
C32 O29 1.250 . S
C32 O30 1.248 . S
C33 O34 1.264 . S
C33 O41 1.249 . S
O34 C33 1.264 . S
O35 Mg28 1.986 . S
O35 C39 1.246 . S
O36 Mg31 2.032 . S
O36 C39 1.259 . S
O37 Mg28 2.114 . S
O37 C40 1.252 . S
O38 Mg28 2.251 . S
O38 Mg31 2.079 . S
O38 C40 1.273 . S
C39 O35 1.246 . S
C39 O36 1.259 . S
C40 O37 1.252 . S
C40 O38 1.273 . S
O41 Mg28 2.010 . S
O41 C33 1.249 . S
Mg42 O43 2.028 . S
Mg42 O49 1.986 . S
Mg42 O51 2.114 . S
Mg42 O52 2.251 . S
Mg42 O55 2.010 . S
O43 Mg42 2.028 . S
O43 C46 1.250 . S
O44 Mg45 2.028 . S
O44 C46 1.248 . S
Mg45 O44 2.028 . S
Mg45 O50 2.032 . S
Mg45 O52 2.079 . S
C46 O43 1.250 . S
C46 O44 1.248 . S
C47 O48 1.264 . S
C47 O55 1.249 . S
O48 C47 1.264 . S
O49 Mg42 1.986 . S
O49 C53 1.246 . S
O50 Mg45 2.032 . S
O50 C53 1.259 . S
O51 Mg42 2.114 . S
O51 C54 1.252 . S
O52 Mg42 2.251 . S
O52 Mg45 2.079 . S
O52 C54 1.273 . S
C53 O49 1.246 . S
C53 O50 1.259 . S
C54 O51 1.252 . S
C54 O52 1.273 . S
O55 Mg42 2.010 . S
O55 C47 1.249 . S
C56 C57 1.363 . S
C56 C62 1.379 . S
C56 N64 1.356 . S
C57 C56 1.363 . S
C57 C63 1.363 . S
C58 C59 1.363 . S
C58 C63 1.379 . S
C58 N65 1.356 . S
C59 C58 1.363 . S
C59 C62 1.363 . S
N60 C62 1.356 . S
N60 H72 0.984 . S
N60 H73 0.985 . S
N61 C63 1.356 . S
N61 H66 0.984 . S
N61 H67 0.985 . S
C62 C56 1.379 . S
C62 C59 1.363 . S
C62 N60 1.356 . S
C63 C57 1.363 . S
C63 C58 1.379 . S
C63 N61 1.356 . S
N64 C56 1.356 . S
N64 H70 0.984 . S
N64 H71 0.984 . S
N65 C58 1.356 . S
N65 H68 0.984 . S
N65 H69 0.985 . S
H66 N61 0.984 . S
H67 N61 0.985 . S
H68 N65 0.984 . S
H69 N65 0.985 . S
H70 N64 0.984 . S
H71 N64 0.984 . S
H72 N60 0.984 . S
H73 N60 0.985 . S
C74 C75 1.363 . S
C74 C80 1.379 . S
C74 N82 1.356 . S
C75 C74 1.363 . S
C75 C81 1.363 . S
C76 C77 1.363 . S
C76 C81 1.379 . S
C76 N83 1.356 . S
C77 C76 1.363 . S
C77 C80 1.363 . S
N78 C80 1.356 . S
N78 H90 0.984 . S
N78 H91 0.985 . S
N79 C81 1.356 . S
N79 H84 0.984 . S
N79 H85 0.985 . S
C80 C74 1.379 . S
C80 C77 1.363 . S
C80 N78 1.356 . S
C81 C75 1.363 . S
C81 C76 1.379 . S
C81 N79 1.356 . S
N82 C74 1.356 . S
N82 H88 0.984 . S
N82 H89 0.984 . S
N83 C76 1.356 . S
N83 H86 0.984 . S
N83 H87 0.985 . S
H84 N79 0.984 . S
H85 N79 0.985 . S
H86 N83 0.984 . S
H87 N83 0.985 . S
H88 N82 0.984 . S
H89 N82 0.984 . S
H90 N78 0.984 . S
H91 N78 0.985 . S
C92 C93 1.363 . S
C92 C98 1.379 . S
C92 N100 1.356 . S
C93 C92 1.363 . S
C93 C99 1.363 1_554 S
C94 C95 1.363 . S
C94 C99 1.379 . S
C94 N101 1.356 . S
C95 C94 1.363 . S
C95 C98 1.363 1_556 S
N96 C98 1.356 . S
N96 H108 0.984 . S
N96 H109 0.985 . S
N97 C99 1.356 . S
N97 H102 0.984 . S
N97 H103 0.985 . S
C98 C92 1.379 . S
C98 C95 1.363 1_554 S
C98 N96 1.356 . S
C99 C93 1.363 1_556 S
C99 C94 1.379 . S
C99 N97 1.356 . S
N100 C92 1.356 . S
N100 H106 0.984 . S
N100 H107 0.984 . S
N101 C94 1.356 . S
N101 H104 0.984 . S
N101 H105 0.985 . S
H102 N97 0.984 . S
H103 N97 0.985 . S
H104 N101 0.984 . S
H105 N101 0.985 . S
H106 N100 0.984 . S
H107 N100 0.984 . S
H108 N96 0.984 . S
H109 N96 0.985 . S
C110 C111 1.363 . S
C110 C116 1.379 1_455 S
C110 N118 1.356 . S
C111 C110 1.363 . S
C111 C117 1.363 . S
C112 C113 1.363 . S
C112 C117 1.379 1_655 S
C112 N119 1.356 . S
C113 C112 1.363 . S
C113 C116 1.363 . S
N114 C116 1.356 . S
N114 H126 0.984 . S
N114 H127 0.985 . S
N115 C117 1.356 . S
N115 H120 0.984 . S
N115 H121 0.985 . S
C116 C110 1.379 1_655 S
C116 C113 1.363 . S
C116 N114 1.356 . S
C117 C111 1.363 . S
C117 C112 1.379 1_455 S
C117 N115 1.356 . S
N118 C110 1.356 . S
N118 H124 0.984 . S
N118 H125 0.984 . S
N119 C112 1.356 . S
N119 H122 0.984 . S
N119 H123 0.985 . S
H120 N115 0.984 . S
H121 N115 0.985 . S
H122 N119 0.984 . S
H123 N119 0.985 . S
H124 N118 0.984 . S
H125 N118 0.984 . S
H126 N114 0.984 . S
H127 N114 0.985 . S
C128 C129 1.363 . S
C128 C134 1.379 1_546 S
C128 N136 1.356 . S
C129 C128 1.363 . S
C129 C135 1.363 . S
C130 C131 1.363 . S
C130 C135 1.379 1_564 S
C130 N137 1.356 . S
C131 C130 1.363 . S
C131 C134 1.363 . S
N132 C134 1.356 . S
N132 H144 0.984 . S
N132 H145 0.985 . S
N133 C135 1.356 . S
N133 H138 0.984 . S
N133 H139 0.985 . S
C134 C128 1.379 1_564 S
C134 C131 1.363 . S
C134 N132 1.356 . S
C135 C129 1.363 . S
C135 C130 1.379 1_546 S
C135 N133 1.356 . S
N136 C128 1.356 . S
N136 H142 0.984 . S
N136 H143 0.984 . S
N137 C130 1.356 . S
N137 H140 0.984 . S
N137 H141 0.985 . S
H138 N133 0.984 . S
H139 N133 0.985 . S
H140 N137 0.984 . S
H141 N137 0.985 . S
H142 N136 0.984 . S
H143 N136 0.984 . S
H144 N132 0.984 . S
H145 N132 0.985 . S
C146 C147 1.363 . S
C146 C152 1.379 . S
C146 N154 1.356 . S
C147 C146 1.363 . S
C147 C153 1.363 . S
C148 C149 1.363 . S
C148 C153 1.379 . S
C148 N155 1.356 . S
C149 C148 1.363 . S
C149 C152 1.363 . S
N150 C152 1.356 . S
N150 H162 0.984 . S
N150 H163 0.985 . S
N151 C153 1.356 . S
N151 H156 0.984 . S
N151 H157 0.985 . S
C152 C146 1.379 . S
C152 C149 1.363 . S
C152 N150 1.356 . S
C153 C147 1.363 . S
C153 C148 1.379 . S
C153 N151 1.356 . S
N154 C146 1.356 . S
N154 H160 0.984 . S
N154 H161 0.984 . S
N155 C148 1.356 . S
N155 H158 0.984 . S
N155 H159 0.985 . S
H156 N151 0.984 . S
H157 N151 0.985 . S
H158 N155 0.984 . S
H159 N155 0.985 . S
H160 N154 0.984 . S
H161 N154 0.984 . S
H162 N150 0.984 . S
H163 N150 0.985 . S
C164 C165 1.363 1_556 S
C164 C170 1.379 1_455 S
C164 N172 1.356 . S
C165 C164 1.363 1_554 S
C165 C171 1.363 . S
C166 C167 1.363 1_554 S
C166 C171 1.379 1_655 S
C166 N173 1.356 . S
C167 C166 1.363 1_556 S
C167 C170 1.363 . S
N168 C170 1.356 . S
N168 H180 0.984 . S
N168 H181 0.985 . S
N169 C171 1.356 . S
N169 H174 0.984 . S
N169 H175 0.985 . S
C170 C164 1.379 1_655 S
C170 C167 1.363 . S
C170 N168 1.356 . S
C171 C165 1.363 . S
C171 C166 1.379 1_455 S
C171 N169 1.356 . S
N172 C164 1.356 . S
N172 H178 0.984 . S
N172 H179 0.990 . S
N173 C166 1.356 . S
N173 H176 0.984 . S
N173 H177 0.985 . S
H174 N169 0.984 . S
H175 N169 0.985 . S
H176 N173 0.984 . S
H177 N173 0.985 . S
H178 N172 0.984 . S
H179 N172 0.990 . S
H180 N168 0.984 . S
H181 N168 0.985 . S
C182 C183 1.363 . S
C182 C188 1.379 1_545 S
C182 N190 1.356 . S
C183 C182 1.363 . S
C183 C189 1.363 . S
C184 C185 1.363 . S
C184 C189 1.379 1_565 S
C184 N191 1.356 . S
C185 C184 1.363 . S
C185 C188 1.363 . S
N186 C188 1.356 . S
N186 H198 0.984 . S
N186 H199 0.985 . S
N187 C189 1.356 . S
N187 H192 0.984 . S
N187 H193 0.985 . S
C188 C182 1.379 1_565 S
C188 C185 1.363 . S
C188 N186 1.356 . S
C189 C183 1.363 . S
C189 C184 1.379 1_545 S
C189 N187 1.356 . S
N190 C182 1.356 . S
N190 H196 0.984 . S
N190 H197 0.984 . S
N191 C184 1.356 . S
N191 H194 0.984 . S
N191 H195 0.985 . S
H192 N187 0.984 . S
H193 N187 0.985 . S
H194 N191 0.984 . S
H195 N191 0.985 . S
H196 N190 0.984 . S
H197 N190 0.984 . S
H198 N186 0.984 . S
H199 N186 0.985 . S
C57 C12 1.505 . S
C59 C40 1.505 . S
C75 C26 1.505 . S
C77 C54 1.505 . S
C93 C5 1.266 . S
C95 C46 1.541 . S
C111 C39 1.429 . S
C113 C19 1.134 . S
C129 C53 1.328 . S
C131 C11 1.328 . S
C147 C25 1.429 . S
C149 C33 1.134 . S
C165 C4 1.541 . S
C167 C47 1.266 . S
C183 C18 1.641 . S
C185 C32 1.641 . S
