# Generated by pormake.
# Topology umx, (4)-cn, num edge types: 1
# Building blocks:
#     Node 0, Type 0, BuildingBlock: QUQFOY_clean_sbu_3, # of connection points: 4
#     Node 1, Type 0, BuildingBlock: QUQFOY_clean_sbu_3, # of connection points: 4
#     Node 2, Type 0, BuildingBlock: QUQFOY_clean_sbu_3, # of connection points: 4
#     Node 3, Type 0, BuildingBlock: QUQFOY_clean_sbu_3, # of connection points: 4
#     Node 4, Type 0, BuildingBlock: QUQFOY_clean_sbu_3, # of connection points: 4
#     Node 5, Type 0, BuildingBlock: QUQFOY_clean_sbu_3, # of connection points: 4
#     Node 6, Type 0, BuildingBlock: QUQFOY_clean_sbu_3, # of connection points: 4
#     Node 7, Type 0, BuildingBlock: QUQFOY_clean_sbu_3, # of connection points: 4
#     Edge 8, Type (0, 0), BuildingBlock: EYOCIG_clean_linker_4, # of connection points: 2
#     Edge 9, Type (0, 0), BuildingBlock: EYOCIG_clean_linker_4, # of connection points: 2
#     Edge 10, Type (0, 0), BuildingBlock: EYOCIG_clean_linker_4, # of connection points: 2
#     Edge 11, Type (0, 0), BuildingBlock: EYOCIG_clean_linker_4, # of connection points: 2
#     Edge 12, Type (0, 0), BuildingBlock: EYOCIG_clean_linker_4, # of connection points: 2
#     Edge 13, Type (0, 0), BuildingBlock: EYOCIG_clean_linker_4, # of connection points: 2
#     Edge 14, Type (0, 0), BuildingBlock: EYOCIG_clean_linker_4, # of connection points: 2
#     Edge 15, Type (0, 0), BuildingBlock: EYOCIG_clean_linker_4, # of connection points: 2
#     Edge 16, Type (0, 0), BuildingBlock: EYOCIG_clean_linker_4, # of connection points: 2
#     Edge 17, Type (0, 0), BuildingBlock: EYOCIG_clean_linker_4, # of connection points: 2
#     Edge 18, Type (0, 0), BuildingBlock: EYOCIG_clean_linker_4, # of connection points: 2
#     Edge 19, Type (0, 0), BuildingBlock: EYOCIG_clean_linker_4, # of connection points: 2
#     Edge 20, Type (0, 0), BuildingBlock: EYOCIG_clean_linker_4, # of connection points: 2
#     Edge 21, Type (0, 0), BuildingBlock: EYOCIG_clean_linker_4, # of connection points: 2
#     Edge 22, Type (0, 0), BuildingBlock: EYOCIG_clean_linker_4, # of connection points: 2
#     Edge 23, Type (0, 0), BuildingBlock: EYOCIG_clean_linker_4, # of connection points: 2
# Relax obj value: 0.077
# Max RMSD: 0.190
# Mean RMSD: 0.190
data_MOF--net-umx--node1-QUQFOY_clean_sbu_3--edge1-EYOCIG_clean_linker_4
_symmetry_space_group_name_H-M    P1
_symmetry_Int_Tables_number       1
_symmetry_cell_setting            triclinic
loop_
_symmetry_equiv_pos_as_xyz
'x, y, z'
_cell_length_a     32.993122
_cell_length_b     32.985125
_cell_length_c     23.439891
_cell_angle_alpha  89.98485
_cell_angle_beta   90.035149
_cell_angle_gamma 89.99842
loop_
_atom_site_label
_atom_site_type_symbol
_atom_site_fract_x
_atom_site_fract_y
_atom_site_fract_z
_atom_type_partial_charge
C0 C 0.19562 0.47891 0.87036 0.0
O1 O 0.19619 0.51122 0.89963 0.0
Cd2 Cd 0.17518 0.51257 -0.00197 0.0
O3 O 0.18651 0.44503 0.89285 0.0
Cd4 Cd 0.16969 0.41675 -0.01215 0.0
C5 C 0.08126 0.46838 -0.01569 0.0
O6 O 0.20974 0.46072 0.0509 0.0
O7 O 0.1631 0.42386 0.0903 0.0
O8 O 0.22061 0.36517 -0.02686 0.0
C9 C 0.19255 0.44813 0.09596 0.0
O10 O 0.1022 0.49982 -0.00474 0.0
C11 C 0.19722 0.33515 -0.01964 0.0
O12 O 0.09776 0.43393 -0.02367 0.0
O13 O 0.16005 0.34242 -0.00996 0.0
C14 C 0.48262 0.19567 0.36967 0.0
O15 O 0.45029 0.1962 0.39887 0.0
Cd16 Cd 0.4489 0.17538 0.49738 0.0
O17 O 0.5165 0.18671 0.39228 0.0
Cd18 Cd 0.54469 0.17014 0.48747 0.0
C19 C 0.49333 0.08154 0.4842 0.0
O20 O 0.50056 0.21021 0.55022 0.0
O21 O 0.53746 0.16368 0.58991 0.0
O22 O 0.59615 0.22119 0.47274 0.0
C23 C 0.51315 0.19312 0.59538 0.0
O24 O 0.46183 0.10241 0.49498 0.0
C25 C 0.62622 0.1979 0.48023 0.0
O26 O 0.52774 0.09812 0.47623 0.0
O27 O 0.61902 0.1607 0.49002 0.0
C28 C 0.76594 0.4834 0.87027 0.0
O29 O 0.76546 0.45108 0.89953 0.0
Cd30 Cd 0.78651 0.44973 -0.00205 0.0
O31 O 0.77496 0.51729 0.89279 0.0
Cd32 Cd 0.79173 0.54554 -0.01217 0.0
C33 C 0.8803 0.49418 -0.01568 0.0
O34 O 0.75179 0.50143 0.0508 0.0
O35 O 0.79838 0.53835 0.09028 0.0
O36 O 0.74064 0.59697 -0.02687 0.0
C37 C 0.76896 0.51404 0.09589 0.0
O38 O 0.85946 0.46268 -0.00477 0.0
C39 C 0.76392 0.62706 -0.01953 0.0
O40 O 0.86371 0.5286 -0.02365 0.0
O41 O 0.80113 0.6199 -0.00981 0.0
C42 C 0.478 0.76635 0.36953 0.0
O43 O 0.51037 0.76579 0.3987 0.0
Cd44 Cd 0.51193 0.78659 0.49719 0.0
O45 O 0.44416 0.77535 0.39217 0.0
Cd46 Cd 0.41614 0.79198 0.48737 0.0
C47 C 0.46763 0.8805 0.4841 0.0
O48 O 0.46029 0.75181 0.55009 0.0
O49 O 0.42351 0.79837 0.58981 0.0
O50 O 0.36458 0.74101 0.47271 0.0
C51 C 0.44778 0.7689 0.59527 0.0
O52 O 0.49912 0.85958 0.49484 0.0
C53 C 0.33457 0.76436 0.48019 0.0
O54 O 0.43319 0.86397 0.47613 0.0
O55 O 0.34183 0.80154 0.48996 0.0
C56 C 0.19555 0.48377 0.58705 0.0
O57 O 0.19609 0.45132 0.55808 0.0
Cd58 Cd 0.17506 0.4495 0.45968 0.0
O59 O 0.18646 0.51755 0.56422 0.0
Cd60 Cd 0.16963 0.5453 0.46888 0.0
C61 C 0.08116 0.49378 0.47284 0.0
O62 O 0.20967 0.50101 0.40627 0.0
O63 O 0.16296 0.53764 0.36652 0.0
O64 O 0.2206 0.59692 0.48308 0.0
C65 C 0.19244 0.51339 0.36109 0.0
O66 O 0.10207 0.46227 0.46222 0.0
C67 C 0.19723 0.62692 0.47548 0.0
O68 O 0.09769 0.52826 0.48051 0.0
O69 O 0.16005 0.61962 0.46584 0.0
C70 C 0.47764 0.19558 0.0863 0.0
O71 O 0.51006 0.19614 0.05731 0.0
Cd72 Cd 0.51181 0.17535 0.95882 0.0
O73 O 0.44385 0.18658 0.06347 0.0
Cd74 Cd 0.41602 0.16998 0.9681 0.0
C75 C 0.46748 0.08144 0.97164 0.0
O76 O 0.46029 0.21014 0.90561 0.0
O77 O 0.42358 0.16357 0.86571 0.0
O78 O 0.36446 0.22096 -0.01747 0.0
C79 C 0.44786 0.19304 0.86037 0.0
O80 O 0.49899 0.10236 0.96107 0.0
C81 C 0.33445 0.19763 -0.02511 0.0
O82 O 0.43303 0.09797 -0.02058 0.0
O83 O 0.34171 0.16045 0.96511 0.0
C84 C 0.76589 0.47846 0.58697 0.0
O85 O 0.76542 0.5109 0.55796 0.0
Cd86 Cd 0.78641 0.51264 0.45957 0.0
O87 O 0.77488 0.44465 0.5642 0.0
Cd88 Cd 0.79158 0.41682 0.46892 0.0
C89 C 0.88019 0.46811 0.47286 0.0
O90 O 0.75166 0.4612 0.4062 0.0
O91 O 0.79826 0.42443 0.36656 0.0
O92 O 0.74047 0.36535 0.48311 0.0
C93 C 0.76885 0.44876 0.36106 0.0
O94 O 0.85935 0.49966 0.46218 0.0
C95 C 0.76374 0.33528 0.47557 0.0
O96 O 0.86358 0.43367 0.48057 0.0
O97 O 0.80094 0.34247 0.46597 0.0
C98 C 0.48295 0.76627 0.08617 0.0
O99 O 0.45056 0.7657 0.05704 0.0
Cd100 Cd 0.44893 0.7865 0.95854 0.0
O101 O 0.51677 0.77527 0.06348 0.0
Cd102 Cd 0.54472 0.79188 0.96822 0.0
C103 C 0.49324 0.88041 0.97158 0.0
O104 O 0.50053 0.75173 0.90556 0.0
O105 O 0.53725 0.79833 0.8658 0.0
O106 O 0.59631 0.74093 -0.01718 0.0
C107 C 0.513 0.76885 0.86037 0.0
O108 O 0.46174 0.8595 0.96087 0.0
C109 C 0.62631 0.76428 -0.02475 0.0
O110 O 0.52768 0.86388 -0.02051 0.0
O111 O 0.61902 0.80146 0.96546 0.0
C112 C 0.20772 0.47456 0.19978 0.0
C113 C 0.20264 0.4639 0.15114 0.0
C114 C 0.2077 0.48674 0.25745 0.0
C115 C 0.20262 0.49748 0.30603 0.0
C116 C 0.48667 0.20842 0.6991 0.0
C117 C 0.49734 0.2033 0.65049 0.0
C118 C 0.47451 0.20842 0.75676 0.0
C119 C 0.46378 0.20329 0.80534 0.0
C120 C 0.75369 0.47545 0.25737 0.0
C121 C 0.75873 0.46469 0.30597 0.0
C122 C 0.75373 0.48762 0.19969 0.0
C123 C 0.75884 0.49827 0.15106 0.0
C124 C 0.48644 0.75349 0.75668 0.0
C125 C 0.49713 0.75861 0.80529 0.0
C126 C 0.47429 0.7535 0.69898 0.0
C127 C 0.46362 0.75866 0.65037 0.0
C128 C 0.75509 0.48065 0.69851 0.0
C129 C 0.75991 0.48031 0.64754 0.0
C130 C 0.75509 0.4809 0.75873 0.0
C131 C 0.75993 0.48133 0.80971 0.0
C132 C 0.48063 0.75561 0.19775 0.0
C133 C 0.48101 0.76037 0.14676 0.0
C134 C 0.48036 0.75563 0.25797 0.0
C135 C 0.47996 0.76041 0.30895 0.0
C136 C 0.20643 0.48142 0.75883 0.0
C137 C 0.20161 0.481 0.8098 0.0
C138 C 0.20641 0.48164 0.69861 0.0
C139 C 0.20156 0.48196 0.64763 0.0
C140 C 0.48012 0.20632 0.25809 0.0
C141 C 0.48056 0.20157 0.30908 0.0
C142 C 0.47985 0.20629 0.19787 0.0
C143 C 0.4795 0.2015 0.14689 0.0
C144 C 0.9597 0.48499 -0.02015 0.0
C145 C 0.92359 0.49042 -0.01848 0.0
C146 C 0.00187 0.47772 -0.02016 0.0
C147 C 0.03798 0.47225 -0.01848 0.0
C148 C 0.47689 0.95993 0.47989 0.0
C149 C 0.47145 0.9238 0.48145 0.0
C150 C 0.48415 0.00211 0.47991 0.0
C151 C 0.48957 0.03824 0.48151 0.0
C152 C 0.00177 0.4845 0.4773 0.0
C153 C 0.03788 0.48995 0.47561 0.0
C154 C 0.9596 0.47724 0.47731 0.0
C155 C 0.92348 0.47183 0.47563 0.0
C156 C 0.48398 0.95983 -0.02416 0.0
C157 C 0.48942 0.92371 -0.02575 0.0
C158 C 0.47672 0.00201 -0.02414 0.0
C159 C 0.47128 0.03814 -0.02572 0.0
C160 C 0.23339 0.26421 -0.02182 0.0
C161 C 0.2134 0.29477 -0.02001 0.0
C162 C 0.26359 0.23393 -0.02337 0.0
C163 C 0.29411 0.21388 -0.02502 0.0
C164 C 0.72732 0.26446 0.47706 0.0
C165 C 0.7474 0.29497 0.47554 0.0
C166 C 0.69706 0.23424 0.47842 0.0
C167 C 0.66653 0.2142 0.48008 0.0
C168 C 0.72751 0.69788 -0.02151 0.0
C169 C 0.7476 0.66738 -0.01978 0.0
C170 C 0.69722 0.72807 -0.02299 0.0
C171 C 0.66666 0.74807 -0.02464 0.0
C172 C 0.2637 0.72808 0.47836 0.0
C173 C 0.29422 0.74812 0.48003 0.0
C174 C 0.23346 0.69783 0.47698 0.0
C175 C 0.21344 0.66728 0.47545 0.0
loop_
_geom_bond_atom_site_label_1
_geom_bond_atom_site_label_2
_geom_bond_distance
_geom_bond_site_symmetry_2
_ccdc_geom_bond_type
C0 O1 1.306 . S
C0 O3 1.160 . S
O1 C0 1.306 . S
O1 Cd2 2.228 1_556 S
Cd2 O1 2.228 1_554 S
Cd2 O6 2.273 . S
Cd2 O10 2.277 . S
O3 C0 1.160 . S
O3 Cd4 2.203 1_556 S
Cd4 O3 2.203 1_554 S
Cd4 O6 2.411 . S
Cd4 O7 2.333 . S
Cd4 O8 2.352 . S
Cd4 O12 2.277 . S
Cd4 O13 2.356 . S
C5 O10 1.209 . S
C5 O12 1.226 . S
O6 Cd2 2.273 . S
O6 Cd4 2.411 . S
O6 C9 1.320 . S
O7 Cd4 2.333 . S
O7 C9 1.214 . S
O8 Cd4 2.352 . S
O8 C11 1.258 . S
C9 O6 1.320 . S
C9 O7 1.214 . S
O10 Cd2 2.277 . S
O10 C5 1.209 . S
C11 O8 1.258 . S
C11 O13 1.282 . S
O12 Cd4 2.277 . S
O12 C5 1.226 . S
O13 Cd4 2.356 . S
O13 C11 1.282 . S
C14 O15 1.306 . S
C14 O17 1.160 . S
O15 C14 1.306 . S
O15 Cd16 2.228 . S
Cd16 O15 2.228 . S
Cd16 O20 2.273 . S
Cd16 O24 2.277 . S
O17 C14 1.160 . S
O17 Cd18 2.203 . S
Cd18 O17 2.203 . S
Cd18 O20 2.411 . S
Cd18 O21 2.333 . S
Cd18 O22 2.352 . S
Cd18 O26 2.277 . S
Cd18 O27 2.356 . S
C19 O24 1.209 . S
C19 O26 1.226 . S
O20 Cd16 2.273 . S
O20 Cd18 2.411 . S
O20 C23 1.320 . S
O21 Cd18 2.333 . S
O21 C23 1.214 . S
O22 Cd18 2.352 . S
O22 C25 1.258 . S
C23 O20 1.320 . S
C23 O21 1.214 . S
O24 Cd16 2.277 . S
O24 C19 1.209 . S
C25 O22 1.258 . S
C25 O27 1.282 . S
O26 Cd18 2.277 . S
O26 C19 1.226 . S
O27 Cd18 2.356 . S
O27 C25 1.282 . S
C28 O29 1.306 . S
C28 O31 1.160 . S
O29 C28 1.306 . S
O29 Cd30 2.228 1_556 S
Cd30 O29 2.228 1_554 S
Cd30 O34 2.273 . S
Cd30 O38 2.277 . S
O31 C28 1.160 . S
O31 Cd32 2.203 1_556 S
Cd32 O31 2.203 1_554 S
Cd32 O34 2.411 . S
Cd32 O35 2.333 . S
Cd32 O36 2.352 . S
Cd32 O40 2.277 . S
Cd32 O41 2.356 . S
C33 O38 1.209 . S
C33 O40 1.226 . S
O34 Cd30 2.273 . S
O34 Cd32 2.411 . S
O34 C37 1.320 . S
O35 Cd32 2.333 . S
O35 C37 1.214 . S
O36 Cd32 2.352 . S
O36 C39 1.258 . S
C37 O34 1.320 . S
C37 O35 1.214 . S
O38 Cd30 2.277 . S
O38 C33 1.209 . S
C39 O36 1.258 . S
C39 O41 1.282 . S
O40 Cd32 2.277 . S
O40 C33 1.226 . S
O41 Cd32 2.356 . S
O41 C39 1.282 . S
C42 O43 1.306 . S
C42 O45 1.160 . S
O43 C42 1.306 . S
O43 Cd44 2.228 . S
Cd44 O43 2.228 . S
Cd44 O48 2.273 . S
Cd44 O52 2.277 . S
O45 C42 1.160 . S
O45 Cd46 2.203 . S
Cd46 O45 2.203 . S
Cd46 O48 2.411 . S
Cd46 O49 2.333 . S
Cd46 O50 2.352 . S
Cd46 O54 2.277 . S
Cd46 O55 2.356 . S
C47 O52 1.209 . S
C47 O54 1.226 . S
O48 Cd44 2.273 . S
O48 Cd46 2.411 . S
O48 C51 1.320 . S
O49 Cd46 2.333 . S
O49 C51 1.214 . S
O50 Cd46 2.352 . S
O50 C53 1.258 . S
C51 O48 1.320 . S
C51 O49 1.214 . S
O52 Cd44 2.277 . S
O52 C47 1.209 . S
C53 O50 1.258 . S
C53 O55 1.282 . S
O54 Cd46 2.277 . S
O54 C47 1.226 . S
O55 Cd46 2.356 . S
O55 C53 1.282 . S
C56 O57 1.306 . S
C56 O59 1.160 . S
O57 C56 1.306 . S
O57 Cd58 2.228 . S
Cd58 O57 2.228 . S
Cd58 O62 2.273 . S
Cd58 O66 2.277 . S
O59 C56 1.160 . S
O59 Cd60 2.203 . S
Cd60 O59 2.203 . S
Cd60 O62 2.411 . S
Cd60 O63 2.333 . S
Cd60 O64 2.352 . S
Cd60 O68 2.277 . S
Cd60 O69 2.356 . S
C61 O66 1.209 . S
C61 O68 1.226 . S
O62 Cd58 2.273 . S
O62 Cd60 2.411 . S
O62 C65 1.320 . S
O63 Cd60 2.333 . S
O63 C65 1.214 . S
O64 Cd60 2.352 . S
O64 C67 1.258 . S
C65 O62 1.320 . S
C65 O63 1.214 . S
O66 Cd58 2.277 . S
O66 C61 1.209 . S
C67 O64 1.258 . S
C67 O69 1.282 . S
O68 Cd60 2.277 . S
O68 C61 1.226 . S
O69 Cd60 2.356 . S
O69 C67 1.282 . S
C70 O71 1.306 . S
C70 O73 1.160 . S
O71 C70 1.306 . S
O71 Cd72 2.228 1_554 S
Cd72 O71 2.228 1_556 S
Cd72 O76 2.273 . S
Cd72 O80 2.277 . S
O73 C70 1.160 . S
O73 Cd74 2.203 . S
Cd74 O73 2.203 . S
Cd74 O76 2.411 1_554 S
Cd74 O77 2.333 1_554 S
Cd74 O78 2.352 . S
Cd74 O82 2.277 . S
Cd74 O83 2.356 1_554 S
C75 O80 1.209 1_554 S
C75 O82 1.226 . S
O76 Cd72 2.273 . S
O76 Cd74 2.411 1_556 S
O76 C79 1.320 . S
O77 Cd74 2.333 1_556 S
O77 C79 1.214 . S
O78 Cd74 2.352 . S
O78 C81 1.260 . S
C79 O76 1.320 . S
C79 O77 1.214 . S
O80 Cd72 2.277 . S
O80 C75 1.209 1_556 S
C81 O78 1.260 . S
C81 O83 1.280 1_554 S
O82 Cd74 2.277 . S
O82 C75 1.226 . S
O83 Cd74 2.356 1_556 S
O83 C81 1.280 1_556 S
C84 O85 1.306 . S
C84 O87 1.160 . S
O85 C84 1.306 . S
O85 Cd86 2.228 . S
Cd86 O85 2.228 . S
Cd86 O90 2.273 . S
Cd86 O94 2.277 . S
O87 C84 1.160 . S
O87 Cd88 2.203 . S
Cd88 O87 2.203 . S
Cd88 O90 2.411 . S
Cd88 O91 2.333 . S
Cd88 O92 2.352 . S
Cd88 O96 2.277 . S
Cd88 O97 2.356 . S
C89 O94 1.209 . S
C89 O96 1.226 . S
O90 Cd86 2.273 . S
O90 Cd88 2.411 . S
O90 C93 1.320 . S
O91 Cd88 2.333 . S
O91 C93 1.214 . S
O92 Cd88 2.352 . S
O92 C95 1.258 . S
C93 O90 1.320 . S
C93 O91 1.214 . S
O94 Cd86 2.277 . S
O94 C89 1.209 . S
C95 O92 1.258 . S
C95 O97 1.282 . S
O96 Cd88 2.277 . S
O96 C89 1.226 . S
O97 Cd88 2.356 . S
O97 C95 1.282 . S
C98 O99 1.306 . S
C98 O101 1.160 . S
O99 C98 1.306 . S
O99 Cd100 2.228 1_554 S
Cd100 O99 2.228 1_556 S
Cd100 O104 2.273 . S
Cd100 O108 2.277 . S
O101 C98 1.160 . S
O101 Cd102 2.203 . S
Cd102 O101 2.203 . S
Cd102 O104 2.411 1_554 S
Cd102 O105 2.333 1_554 S
Cd102 O106 2.352 . S
Cd102 O110 2.277 . S
Cd102 O111 2.356 1_554 S
C103 O108 1.209 1_554 S
C103 O110 1.226 . S
O104 Cd100 2.273 . S
O104 Cd102 2.411 1_556 S
O104 C107 1.320 . S
O105 Cd102 2.333 1_556 S
O105 C107 1.214 . S
O106 Cd102 2.352 . S
O106 C109 1.260 . S
C107 O104 1.320 . S
C107 O105 1.214 . S
O108 Cd100 2.277 . S
O108 C103 1.209 1_556 S
C109 O106 1.260 . S
C109 O111 1.280 1_554 S
O110 Cd102 2.277 . S
O110 C103 1.226 . S
O111 Cd102 2.356 1_556 S
O111 C109 1.280 1_556 S
C112 C113 1.170 . S
C112 C114 1.380 . S
C113 C112 1.170 . S
C114 C112 1.380 . S
C114 C115 1.170 . S
C115 C114 1.170 . S
C116 C117 1.170 . S
C116 C118 1.380 . S
C117 C116 1.170 . S
C118 C116 1.380 . S
C118 C119 1.170 . S
C119 C118 1.170 . S
C120 C121 1.170 . S
C120 C122 1.380 . S
C121 C120 1.170 . S
C122 C120 1.380 . S
C122 C123 1.170 . S
C123 C122 1.170 . S
C124 C125 1.170 . S
C124 C126 1.380 . S
C125 C124 1.170 . S
C126 C124 1.380 . S
C126 C127 1.170 . S
C127 C126 1.170 . S
C128 C129 1.170 . S
C128 C130 1.380 . S
C129 C128 1.170 . S
C130 C128 1.380 . S
C130 C131 1.170 . S
C131 C130 1.170 . S
C132 C133 1.170 . S
C132 C134 1.380 . S
C133 C132 1.170 . S
C134 C132 1.380 . S
C134 C135 1.170 . S
C135 C134 1.170 . S
C136 C137 1.170 . S
C136 C138 1.380 . S
C137 C136 1.170 . S
C138 C136 1.380 . S
C138 C139 1.170 . S
C139 C138 1.170 . S
C140 C141 1.170 . S
C140 C142 1.380 . S
C141 C140 1.170 . S
C142 C140 1.380 . S
C142 C143 1.170 . S
C143 C142 1.170 . S
C144 C145 1.170 . S
C144 C146 1.380 1_655 S
C145 C144 1.170 . S
C146 C144 1.380 1_455 S
C146 C147 1.170 . S
C147 C146 1.170 . S
C148 C149 1.170 . S
C148 C150 1.380 1_565 S
C149 C148 1.170 . S
C150 C148 1.380 1_545 S
C150 C151 1.170 . S
C151 C150 1.170 . S
C152 C153 1.170 . S
C152 C154 1.380 1_455 S
C153 C152 1.170 . S
C154 C152 1.380 1_655 S
C154 C155 1.170 . S
C155 C154 1.170 . S
C156 C157 1.170 . S
C156 C158 1.380 1_565 S
C157 C156 1.170 . S
C158 C156 1.380 1_545 S
C158 C159 1.171 . S
C159 C158 1.171 . S
C160 C161 1.170 . S
C160 C162 1.380 . S
C161 C160 1.170 . S
C162 C160 1.380 . S
C162 C163 1.170 . S
C163 C162 1.170 . S
C164 C165 1.170 . S
C164 C166 1.380 . S
C165 C164 1.170 . S
C166 C164 1.380 . S
C166 C167 1.170 . S
C167 C166 1.170 . S
C168 C169 1.170 . S
C168 C170 1.380 . S
C169 C168 1.170 . S
C170 C168 1.380 . S
C170 C171 1.170 . S
C171 C170 1.170 . S
C172 C173 1.170 . S
C172 C174 1.380 . S
C173 C172 1.170 . S
C174 C172 1.380 . S
C174 C175 1.170 . S
C175 C174 1.170 . S
C113 C9 1.347 . S
C115 C65 1.364 . S
C117 C23 1.370 . S
C119 C79 1.344 . S
C121 C93 1.389 . S
C123 C37 1.355 . S
C125 C107 1.379 . S
C127 C51 1.378 . S
C129 C84 1.331 . S
C131 C28 1.348 . S
C133 C98 1.350 . S
C135 C42 1.324 . S
C137 C0 1.338 . S
C139 C56 1.319 . S
C141 C14 1.350 . S
C143 C70 1.322 . S
C145 C33 1.426 . S
C147 C5 1.394 . S
C149 C47 1.419 . S
C151 C19 1.395 . S
C153 C61 1.401 . S
C155 C89 1.427 . S
C157 C103 1.413 . S
C159 C75 1.399 . S
C161 C11 1.381 . S
C163 C81 1.382 . S
C165 C95 1.379 . S
C167 C25 1.380 . S
C169 C39 1.380 . S
C171 C109 1.382 . S
C173 C53 1.381 . S
C175 C67 1.381 . S
