# Generated by pormake.
# Topology ukh, (4)-cn, num edge types: 1
# Building blocks:
#     Node 0, Type 0, BuildingBlock: TATPOV_clean_sbu_0, # of connection points: 4
#     Node 1, Type 0, BuildingBlock: TATPOV_clean_sbu_0, # of connection points: 4
#     Node 2, Type 0, BuildingBlock: TATPOV_clean_sbu_0, # of connection points: 4
#     Node 3, Type 0, BuildingBlock: TATPOV_clean_sbu_0, # of connection points: 4
#     Node 4, Type 0, BuildingBlock: TATPOV_clean_sbu_0, # of connection points: 4
#     Node 5, Type 0, BuildingBlock: TATPOV_clean_sbu_0, # of connection points: 4
#     Node 6, Type 0, BuildingBlock: TATPOV_clean_sbu_0, # of connection points: 4
#     Node 7, Type 0, BuildingBlock: TATPOV_clean_sbu_0, # of connection points: 4
#     Node 8, Type 0, BuildingBlock: TATPOV_clean_sbu_0, # of connection points: 4
#     Node 9, Type 0, BuildingBlock: TATPOV_clean_sbu_0, # of connection points: 4
#     Node 10, Type 0, BuildingBlock: TATPOV_clean_sbu_0, # of connection points: 4
#     Node 11, Type 0, BuildingBlock: TATPOV_clean_sbu_0, # of connection points: 4
#     Edge 12, Type (0, 0), None
#     Edge 13, Type (0, 0), None
#     Edge 14, Type (0, 0), None
#     Edge 15, Type (0, 0), None
#     Edge 16, Type (0, 0), None
#     Edge 17, Type (0, 0), None
#     Edge 18, Type (0, 0), None
#     Edge 19, Type (0, 0), None
#     Edge 20, Type (0, 0), None
#     Edge 21, Type (0, 0), None
#     Edge 22, Type (0, 0), None
#     Edge 23, Type (0, 0), None
#     Edge 24, Type (0, 0), None
#     Edge 25, Type (0, 0), None
#     Edge 26, Type (0, 0), None
#     Edge 27, Type (0, 0), None
#     Edge 28, Type (0, 0), None
#     Edge 29, Type (0, 0), None
#     Edge 30, Type (0, 0), None
#     Edge 31, Type (0, 0), None
#     Edge 32, Type (0, 0), None
#     Edge 33, Type (0, 0), None
#     Edge 34, Type (0, 0), None
#     Edge 35, Type (0, 0), None
# Relax obj value: 0.147
# Max RMSD: 0.203
# Mean RMSD: 0.203
data_MOF--net-ukh--node1-TATPOV_clean_sbu_0--edge1-none
_symmetry_space_group_name_H-M    P1
_symmetry_Int_Tables_number       1
_symmetry_cell_setting            triclinic
loop_
_symmetry_equiv_pos_as_xyz
'x, y, z'
_cell_length_a     14.244119
_cell_length_b     14.243985
_cell_length_c     30.315107
_cell_angle_alpha  90.00005
_cell_angle_beta   89.999976
_cell_angle_gamma 119.99904
loop_
_atom_site_label
_atom_site_type_symbol
_atom_site_fract_x
_atom_site_fract_y
_atom_site_fract_z
_atom_type_partial_charge
Zn0 Zn 0.32062 0.20923 0.96787 0.0
Zn1 Zn 0.30219 0.20322 0.05474 0.0
O2 O 0.31775 0.07559 0.03303 0.0
O3 O 0.36358 0.09369 0.9634 0.0
O4 O 0.29903 0.18054 0.12065 0.0
O5 O 0.4189 0.371 0.9708 0.0
O6 O 0.4086 0.36615 0.04344 0.0
C7 C 0.33914 0.03866 -0.00139 0.0
C8 C 0.11009 0.15999 -0.00094 0.0
O9 O 0.15386 0.17627 0.03701 0.0
O10 O 0.16188 0.16312 0.96461 0.0
C11 C 0.21192 0.11205 0.13979 0.0
O12 O 0.12139 0.06133 0.11717 0.0
C13 C 0.43978 0.41975 0.00753 0.0
Zn14 Zn 0.09075 0.33095 0.30121 0.0
Zn15 Zn 0.07833 0.31252 0.38807 0.0
O16 O 0.22152 0.32808 0.36636 0.0
O17 O 0.24924 0.3739 0.29673 0.0
O18 O 0.09784 0.30935 0.45398 0.0
O19 O 0.02726 0.42922 0.30413 0.0
O20 O 0.02181 0.41893 0.37677 0.0
C21 C 0.27983 0.34946 0.33194 0.0
C22 C 0.92946 0.12042 0.3324 0.0
O23 O 0.95695 0.16419 0.37035 0.0
O24 O -0.02188 0.1722 0.29795 0.0
C25 C 0.07924 0.22224 0.47312 0.0
O26 O 0.03945 0.13172 0.4505 0.0
C27 C -0.00062 0.45011 0.34086 0.0
Zn28 Zn 0.73915 0.10107 0.63454 0.0
Zn29 Zn 0.74517 0.08865 0.7214 0.0
O30 O 0.87279 0.23184 0.69969 0.0
O31 O 0.8547 0.25957 0.63006 0.0
O32 O 0.76785 0.10817 0.78732 0.0
O33 O 0.57739 0.03758 0.63747 0.0
O34 O 0.58224 0.03214 0.71011 0.0
C35 C 0.90973 0.29015 0.66528 0.0
C36 C 0.7884 0.93978 0.66573 0.0
O37 O 0.77212 0.96727 0.70368 0.0
O38 O 0.78527 -0.01156 0.63128 0.0
C39 C 0.83635 0.08955 0.80645 0.0
O40 O 0.88707 0.04975 0.78383 0.0
C41 C 0.52863 0.00971 0.6742 0.0
Zn42 Zn 0.61745 0.74948 0.96788 0.0
Zn43 Zn 0.63588 0.7555 0.05474 0.0
O44 O 0.62032 0.88312 0.03303 0.0
O45 O 0.5745 0.86503 0.9634 0.0
O46 O 0.63904 0.77817 0.12065 0.0
O47 O 0.51917 0.58772 0.9708 0.0
O48 O 0.52947 0.59257 0.04344 0.0
C49 C 0.59894 0.92006 -0.00139 0.0
C50 C 0.82798 0.79873 -0.00094 0.0
O51 O 0.78421 0.78244 0.03701 0.0
O52 O 0.7762 0.7956 0.96462 0.0
C53 C 0.72615 0.84667 0.13979 0.0
O54 O 0.81668 0.89739 0.11717 0.0
C55 C 0.49829 0.53896 0.00753 0.0
Zn56 Zn 0.84733 0.62778 0.30121 0.0
Zn57 Zn 0.85974 0.64621 0.38807 0.0
O58 O 0.71655 0.63065 0.36636 0.0
O59 O 0.68883 0.58482 0.29673 0.0
O60 O 0.84023 0.64937 0.45399 0.0
O61 O 0.91082 0.5295 0.30413 0.0
O62 O 0.91626 0.5398 0.37677 0.0
C63 C 0.65824 0.60926 0.33194 0.0
C64 C 0.00861 0.83831 0.3324 0.0
O65 O -0.01888 0.79454 0.37035 0.0
O66 O 0.95995 0.78653 0.29795 0.0
C67 C 0.85885 0.73648 0.47312 0.0
O68 O 0.89868 0.82701 0.45051 0.0
C69 C 0.93869 0.50862 0.34086 0.0
Zn70 Zn 0.19891 0.85764 0.63454 0.0
Zn71 Zn 0.19289 0.87006 0.7214 0.0
O72 O 0.06527 0.72687 0.69969 0.0
O73 O 0.08336 0.69915 0.63006 0.0
O74 O 0.17022 0.85055 0.78732 0.0
O75 O 0.36067 0.92113 0.63747 0.0
O76 O 0.35582 0.92658 0.71011 0.0
C77 C 0.02833 0.66856 0.66528 0.0
C78 C 0.14966 0.01893 0.66573 0.0
O79 O 0.16594 -0.00856 0.70368 0.0
O80 O 0.15279 0.97027 0.63128 0.0
C81 C 0.10175 0.86919 0.80646 0.0
O82 O 0.05105 0.90903 0.78385 0.0
C83 C 0.40943 0.94901 0.6742 0.0
Zn84 Zn 0.73916 0.62772 0.69223 0.0
Zn85 Zn 0.74516 0.64615 0.60532 0.0
O86 O 0.87274 0.63048 0.627 0.0
O87 O 0.85471 0.58477 0.69667 0.0
O88 O 0.7678 0.64935 0.5394 0.0
O89 O 0.57739 0.52946 0.68927 0.0
O90 O 0.58224 0.53977 0.61662 0.0
C91 C 0.90964 0.60911 0.66143 0.0
C92 C 0.78843 0.83824 0.66102 0.0
O93 O 0.77214 0.79448 0.62307 0.0
O94 O 0.78527 0.78646 0.69547 0.0
C95 C 0.83629 0.73647 0.52027 0.0
O96 O 0.88701 0.82699 0.54289 0.0
C97 C 0.52863 0.5086 0.65253 0.0
Zn98 Zn 0.0908 0.74949 0.02556 0.0
Zn99 Zn 0.07837 0.75548 0.93866 0.0
O100 O 0.22162 0.88307 0.96034 0.0
O101 O 0.2493 0.86504 0.03 0.0
O102 O 0.09781 0.77813 0.87274 0.0
O103 O 0.02729 0.58771 0.0226 0.0
O104 O 0.02183 0.59257 0.94996 0.0
C105 C 0.27989 0.91996 0.99476 0.0
C106 C 0.92954 0.79876 0.99436 0.0
O107 O 0.95703 0.78248 0.95641 0.0
O108 O -0.02183 0.7956 0.02881 0.0
C109 C 0.07919 0.84662 0.85361 0.0
O110 O 0.0394 0.89735 0.87623 0.0
C111 C -0.0006 0.53896 0.98587 0.0
Zn112 Zn 0.32067 0.10112 0.3589 0.0
Zn113 Zn 0.30224 0.08869 0.27199 0.0
O114 O 0.31791 0.23195 0.29367 0.0
O115 O 0.36362 0.25963 0.36333 0.0
O116 O 0.29904 0.10814 0.20607 0.0
O117 O 0.41893 0.03761 0.35593 0.0
O118 O 0.40862 0.03215 0.28329 0.0
C119 C 0.33928 0.29021 0.3281 0.0
C120 C 0.11014 0.93987 0.32769 0.0
O121 O 0.15391 0.96735 0.28974 0.0
O122 O 0.16193 -0.0115 0.36214 0.0
C123 C 0.21192 0.08949 0.18694 0.0
O124 O 0.1214 0.04968 0.20955 0.0
C125 C 0.43979 0.00972 0.3192 0.0
Zn126 Zn 0.1989 0.331 0.69223 0.0
Zn127 Zn 0.19291 0.31256 0.60532 0.0
O128 O 0.06532 0.32823 0.627 0.0
O129 O 0.08335 0.37394 0.69667 0.0
O130 O 0.17026 0.30937 0.5394 0.0
O131 O 0.36067 0.42926 0.68926 0.0
O132 O 0.35582 0.41894 0.61662 0.0
C133 C 0.02842 0.3496 0.66143 0.0
C134 C 0.14964 0.12047 0.66102 0.0
O135 O 0.16592 0.16423 0.62307 0.0
O136 O 0.15279 0.17226 0.69547 0.0
C137 C 0.1018 0.22225 0.52027 0.0
O138 O 0.05111 0.13172 0.54288 0.0
C139 C 0.40943 0.45012 0.65254 0.0
Zn140 Zn 0.84727 0.20923 0.02556 0.0
Zn141 Zn 0.8597 0.20323 0.93865 0.0
O142 O 0.71646 0.07565 0.96034 0.0
O143 O 0.68877 0.09368 0.03 0.0
O144 O 0.84026 0.18059 0.87274 0.0
O145 O 0.91078 0.371 0.0226 0.0
O146 O 0.91625 0.36615 0.94996 0.0
C147 C 0.65819 0.03876 0.99476 0.0
C148 C 0.00853 0.15996 0.99435 0.0
O149 O -0.01895 0.17624 0.9564 0.0
O150 O 0.9599 0.16312 0.02881 0.0
C151 C 0.85891 0.11212 0.8536 0.0
O152 O 0.89873 0.06141 0.87622 0.0
C153 C 0.93867 0.41975 0.98587 0.0
Zn154 Zn 0.6174 0.8576 0.3589 0.0
Zn155 Zn 0.63583 0.87003 0.27199 0.0
O156 O 0.62016 0.72678 0.29367 0.0
O157 O 0.57446 0.6991 0.36333 0.0
O158 O 0.63903 0.85058 0.20607 0.0
O159 O 0.51914 0.92111 0.35593 0.0
O160 O 0.52945 0.92657 0.28329 0.0
C161 C 0.59879 0.66851 0.3281 0.0
C162 C 0.82793 0.01885 0.32769 0.0
O163 O 0.78416 -0.00863 0.28974 0.0
O164 O 0.77614 0.97023 0.36214 0.0
C165 C 0.72615 0.86923 0.18694 0.0
O166 O 0.81667 0.90904 0.20955 0.0
C167 C 0.49828 0.949 0.3192 0.0
loop_
_geom_bond_atom_site_label_1
_geom_bond_atom_site_label_2
_geom_bond_distance
_geom_bond_site_symmetry_2
_ccdc_geom_bond_type
Zn0 O3 2.031 . S
Zn0 O5 2.049 . S
Zn0 O10 2.067 . S
Zn1 O2 1.962 . S
Zn1 O4 1.986 . S
Zn1 O6 1.996 . S
Zn1 O9 1.943 . S
O2 Zn1 1.962 . S
O2 C7 1.254 1_554 S
O3 Zn0 2.031 . S
O3 C7 1.269 . S
O4 Zn1 1.986 . S
O4 C11 1.262 . S
O5 Zn0 2.049 . S
O5 C13 1.260 1_556 S
O6 Zn1 1.996 . S
O6 C13 1.257 . S
C7 O2 1.254 1_556 S
C7 O3 1.269 . S
C8 O9 1.249 . S
C8 O10 1.270 1_554 S
O9 Zn1 1.943 . S
O9 C8 1.249 . S
O10 Zn0 2.067 . S
O10 C8 1.270 1_556 S
C11 O4 1.262 . S
C11 O12 1.232 . S
O12 C11 1.232 . S
C13 O5 1.260 1_554 S
C13 O6 1.257 . S
Zn14 O17 2.031 . S
Zn14 O19 2.049 . S
Zn14 O24 2.067 1_455 S
Zn15 O16 1.962 . S
Zn15 O18 1.986 . S
Zn15 O20 1.996 . S
Zn15 O23 1.943 1_455 S
O16 Zn15 1.962 . S
O16 C21 1.254 . S
O17 Zn14 2.031 . S
O17 C21 1.269 . S
O18 Zn15 1.986 . S
O18 C25 1.262 . S
O19 Zn14 2.049 . S
O19 C27 1.260 . S
O20 Zn15 1.996 . S
O20 C27 1.257 . S
C21 O16 1.254 . S
C21 O17 1.269 . S
C22 O23 1.249 . S
C22 O24 1.270 . S
O23 Zn15 1.943 1_655 S
O23 C22 1.249 . S
O24 Zn14 2.067 1_655 S
O24 C22 1.270 . S
C25 O18 1.262 . S
C25 O26 1.232 . S
O26 C25 1.232 . S
C27 O19 1.260 . S
C27 O20 1.257 . S
Zn28 O31 2.031 . S
Zn28 O33 2.049 . S
Zn28 O38 2.067 1_545 S
Zn29 O30 1.962 . S
Zn29 O32 1.986 . S
Zn29 O34 1.996 . S
Zn29 O37 1.943 1_545 S
O30 Zn29 1.962 . S
O30 C35 1.254 . S
O31 Zn28 2.031 . S
O31 C35 1.269 . S
O32 Zn29 1.986 . S
O32 C39 1.262 . S
O33 Zn28 2.049 . S
O33 C41 1.260 . S
O34 Zn29 1.996 . S
O34 C41 1.257 . S
C35 O30 1.254 . S
C35 O31 1.269 . S
C36 O37 1.249 . S
C36 O38 1.270 . S
O37 Zn29 1.943 1_565 S
O37 C36 1.249 . S
O38 Zn28 2.067 1_565 S
O38 C36 1.270 . S
C39 O32 1.262 . S
C39 O40 1.232 . S
O40 C39 1.232 . S
C41 O33 1.260 . S
C41 O34 1.257 . S
Zn42 O45 2.031 . S
Zn42 O47 2.049 . S
Zn42 O52 2.067 . S
Zn43 O44 1.962 . S
Zn43 O46 1.986 . S
Zn43 O48 1.996 . S
Zn43 O51 1.943 . S
O44 Zn43 1.962 . S
O44 C49 1.254 1_554 S
O45 Zn42 2.031 . S
O45 C49 1.269 . S
O46 Zn43 1.986 . S
O46 C53 1.262 . S
O47 Zn42 2.049 . S
O47 C55 1.260 1_556 S
O48 Zn43 1.996 . S
O48 C55 1.257 . S
C49 O44 1.254 1_556 S
C49 O45 1.269 . S
C50 O51 1.249 . S
C50 O52 1.270 1_554 S
O51 Zn43 1.943 . S
O51 C50 1.249 . S
O52 Zn42 2.067 . S
O52 C50 1.270 1_556 S
C53 O46 1.262 . S
C53 O54 1.232 . S
O54 C53 1.232 . S
C55 O47 1.260 1_554 S
C55 O48 1.257 . S
Zn56 O59 2.031 . S
Zn56 O61 2.049 . S
Zn56 O66 2.067 1_655 S
Zn57 O58 1.962 . S
Zn57 O60 1.986 . S
Zn57 O62 1.996 . S
Zn57 O65 1.943 1_655 S
O58 Zn57 1.962 . S
O58 C63 1.254 . S
O59 Zn56 2.031 . S
O59 C63 1.269 . S
O60 Zn57 1.986 . S
O60 C67 1.262 . S
O61 Zn56 2.049 . S
O61 C69 1.260 . S
O62 Zn57 1.996 . S
O62 C69 1.257 . S
C63 O58 1.254 . S
C63 O59 1.269 . S
C64 O65 1.249 . S
C64 O66 1.270 . S
O65 Zn57 1.943 1_455 S
O65 C64 1.249 . S
O66 Zn56 2.067 1_455 S
O66 C64 1.270 . S
C67 O60 1.262 . S
C67 O68 1.232 . S
O68 C67 1.232 . S
C69 O61 1.260 . S
C69 O62 1.257 . S
Zn70 O73 2.031 . S
Zn70 O75 2.049 . S
Zn70 O80 2.067 1_565 S
Zn71 O72 1.962 . S
Zn71 O74 1.986 . S
Zn71 O76 1.996 . S
Zn71 O79 1.943 1_565 S
O72 Zn71 1.962 . S
O72 C77 1.254 . S
O73 Zn70 2.031 . S
O73 C77 1.269 . S
O74 Zn71 1.986 . S
O74 C81 1.262 . S
O75 Zn70 2.049 . S
O75 C83 1.260 . S
O76 Zn71 1.996 . S
O76 C83 1.257 . S
C77 O72 1.254 . S
C77 O73 1.269 . S
C78 O79 1.249 . S
C78 O80 1.270 . S
O79 Zn71 1.943 1_545 S
O79 C78 1.249 . S
O80 Zn70 2.067 1_545 S
O80 C78 1.270 . S
C81 O74 1.262 . S
C81 O82 1.232 . S
O82 C81 1.232 . S
C83 O75 1.260 . S
C83 O76 1.257 . S
Zn84 O87 2.031 . S
Zn84 O89 2.049 . S
Zn84 O94 2.067 . S
Zn85 O86 1.962 . S
Zn85 O88 1.986 . S
Zn85 O90 1.996 . S
Zn85 O93 1.943 . S
O86 Zn85 1.962 . S
O86 C91 1.254 . S
O87 Zn84 2.031 . S
O87 C91 1.269 . S
O88 Zn85 1.986 . S
O88 C95 1.262 . S
O89 Zn84 2.049 . S
O89 C97 1.260 . S
O90 Zn85 1.996 . S
O90 C97 1.257 . S
C91 O86 1.254 . S
C91 O87 1.269 . S
C92 O93 1.249 . S
C92 O94 1.270 . S
O93 Zn85 1.943 . S
O93 C92 1.249 . S
O94 Zn84 2.067 . S
O94 C92 1.270 . S
C95 O88 1.262 . S
C95 O96 1.232 . S
O96 C95 1.232 . S
C97 O89 1.260 . S
C97 O90 1.257 . S
Zn98 O101 2.031 . S
Zn98 O103 2.049 . S
Zn98 O108 2.067 1_455 S
Zn99 O100 1.962 . S
Zn99 O102 1.986 . S
Zn99 O104 1.996 . S
Zn99 O107 1.943 1_455 S
O100 Zn99 1.962 . S
O100 C105 1.254 1_556 S
O101 Zn98 2.031 . S
O101 C105 1.269 . S
O102 Zn99 1.986 . S
O102 C109 1.262 . S
O103 Zn98 2.049 . S
O103 C111 1.260 1_554 S
O104 Zn99 1.996 . S
O104 C111 1.257 . S
C105 O100 1.254 1_554 S
C105 O101 1.269 . S
C106 O107 1.249 . S
C106 O108 1.270 1_556 S
O107 Zn99 1.943 1_655 S
O107 C106 1.249 . S
O108 Zn98 2.067 1_655 S
O108 C106 1.270 1_554 S
C109 O102 1.262 . S
C109 O110 1.232 . S
O110 C109 1.232 . S
C111 O103 1.260 1_556 S
C111 O104 1.257 . S
Zn112 O115 2.031 . S
Zn112 O117 2.049 . S
Zn112 O122 2.067 1_545 S
Zn113 O114 1.962 . S
Zn113 O116 1.986 . S
Zn113 O118 1.996 . S
Zn113 O121 1.943 1_545 S
O114 Zn113 1.962 . S
O114 C119 1.254 . S
O115 Zn112 2.031 . S
O115 C119 1.269 . S
O116 Zn113 1.986 . S
O116 C123 1.262 . S
O117 Zn112 2.049 . S
O117 C125 1.260 . S
O118 Zn113 1.996 . S
O118 C125 1.257 . S
C119 O114 1.254 . S
C119 O115 1.269 . S
C120 O121 1.249 . S
C120 O122 1.270 . S
O121 Zn113 1.943 1_565 S
O121 C120 1.249 . S
O122 Zn112 2.067 1_565 S
O122 C120 1.270 . S
C123 O116 1.262 . S
C123 O124 1.232 . S
O124 C123 1.232 . S
C125 O117 1.260 . S
C125 O118 1.257 . S
Zn126 O129 2.031 . S
Zn126 O131 2.049 . S
Zn126 O136 2.067 . S
Zn127 O128 1.962 . S
Zn127 O130 1.986 . S
Zn127 O132 1.996 . S
Zn127 O135 1.943 . S
O128 Zn127 1.962 . S
O128 C133 1.254 . S
O129 Zn126 2.031 . S
O129 C133 1.269 . S
O130 Zn127 1.986 . S
O130 C137 1.262 . S
O131 Zn126 2.049 . S
O131 C139 1.260 . S
O132 Zn127 1.996 . S
O132 C139 1.257 . S
C133 O128 1.254 . S
C133 O129 1.269 . S
C134 O135 1.249 . S
C134 O136 1.270 . S
O135 Zn127 1.943 . S
O135 C134 1.249 . S
O136 Zn126 2.067 . S
O136 C134 1.270 . S
C137 O130 1.262 . S
C137 O138 1.232 . S
O138 C137 1.232 . S
C139 O131 1.260 . S
C139 O132 1.257 . S
Zn140 O143 2.031 . S
Zn140 O145 2.049 . S
Zn140 O150 2.067 1_655 S
Zn141 O142 1.962 . S
Zn141 O144 1.986 . S
Zn141 O146 1.996 . S
Zn141 O149 1.943 1_655 S
O142 Zn141 1.962 . S
O142 C147 1.254 1_556 S
O143 Zn140 2.031 . S
O143 C147 1.269 . S
O144 Zn141 1.986 . S
O144 C151 1.262 . S
O145 Zn140 2.049 . S
O145 C153 1.260 1_554 S
O146 Zn141 1.996 . S
O146 C153 1.257 . S
C147 O142 1.254 1_554 S
C147 O143 1.269 . S
C148 O149 1.249 . S
C148 O150 1.270 1_556 S
O149 Zn141 1.943 1_455 S
O149 C148 1.249 . S
O150 Zn140 2.067 1_455 S
O150 C148 1.270 1_554 S
C151 O144 1.262 . S
C151 O152 1.232 . S
O152 C151 1.232 . S
C153 O145 1.260 1_556 S
C153 O146 1.257 . S
Zn154 O157 2.031 . S
Zn154 O159 2.049 . S
Zn154 O164 2.067 1_565 S
Zn155 O156 1.962 . S
Zn155 O158 1.986 . S
Zn155 O160 1.996 . S
Zn155 O163 1.943 1_565 S
O156 Zn155 1.962 . S
O156 C161 1.254 . S
O157 Zn154 2.031 . S
O157 C161 1.269 . S
O158 Zn155 1.986 . S
O158 C165 1.262 . S
O159 Zn154 2.049 . S
O159 C167 1.260 . S
O160 Zn155 1.996 . S
O160 C167 1.257 . S
C161 O156 1.254 . S
C161 O157 1.269 . S
C162 O163 1.249 . S
C162 O164 1.270 . S
O163 Zn155 1.943 1_545 S
O163 C162 1.249 . S
O164 Zn154 2.067 1_545 S
O164 C162 1.270 . S
C165 O158 1.262 . S
C165 O166 1.232 . S
O166 C165 1.232 . S
C167 O159 1.260 . S
C167 O160 1.257 . S
C55 C13 1.750 . S
C27 C69 1.750 1_455 S
C83 C41 1.750 1_565 S
C97 C139 1.750 . S
C153 C111 1.750 1_655 S
C125 C167 1.750 1_545 S
C123 C11 1.505 . S
C25 C137 1.505 . S
C39 C151 1.505 . S
C53 C165 1.505 . S
C95 C67 1.505 . S
C109 C81 1.505 . S
C105 C7 1.572 1_564 S
C21 C119 1.572 . S
C35 C133 1.572 1_655 S
C49 C147 1.572 1_566 S
C161 C63 1.572 . S
C77 C91 1.572 1_455 S
C148 C8 1.276 1_556 S
C162 C22 1.276 . S
C92 C36 1.276 . S
C50 C106 1.276 1_554 S
C64 C120 1.276 . S
C78 C134 1.276 . S
