# Generated by pormake.
# Topology pcu, (6)-cn, num edge types: 1
# Building blocks:
#     Node 0, Type 0, BuildingBlock: CIFDUS_clean_sbu_1, # of connection points: 6
#     Edge 1, Type (0, 0), BuildingBlock: OJICUG_clean_linker_0, # of connection points: 2
#     Edge 2, Type (0, 0), BuildingBlock: OJICUG_clean_linker_0, # of connection points: 2
#     Edge 3, Type (0, 0), BuildingBlock: OJICUG_clean_linker_0, # of connection points: 2
# Relax obj value: 0.009
# Max RMSD: 0.057
# Mean RMSD: 0.057
data_MOF--net-pcu--node1-CIFDUS_clean_sbu_1--edge1-OJICUG_clean_linker_0
_symmetry_space_group_name_H-M    P1
_symmetry_Int_Tables_number       1
_symmetry_cell_setting            triclinic
loop_
_symmetry_equiv_pos_as_xyz
'x, y, z'
_cell_length_a     11.750395
_cell_length_b     11.719151
_cell_length_c     11.386342
_cell_angle_alpha  73.402505
_cell_angle_beta   107.29806
_cell_angle_gamma 95.205626
loop_
_atom_site_label
_atom_site_type_symbol
_atom_site_fract_x
_atom_site_fract_y
_atom_site_fract_z
_atom_type_partial_charge
O0 O 1.00412 0.81192 1.03246 0.0
Mn1 Mn 0.0178 0.991 0.03847 0.0
O2 O 0.14202 0.7135 0.20566 0.0
Mn3 Mn 0.18616 0.83686 0.27894 0.0
O4 O 0.03172 0.17205 0.04336 0.0
O5 O 0.9649 0.03524 0.83752 0.0
Mn6 Mn 0.86146 0.15018 0.80248 0.0
O7 O 0.83913 0.98423 0.04736 0.0
O8 O 0.93402 0.28088 0.84902 0.0
O9 O 0.19943 -0.0026 1.03509 0.0
O10 O 0.3127 0.9225 0.23732 0.0
O11 O 0.85413 0.14484 0.64642 0.0
O12 O 0.73132 0.09552 0.8587 0.0
C13 C 0.05865 0.891 0.34814 0.0
C14 C 0.06143 0.71632 0.10286 0.0
C15 C 0.99827 0.27345 0.96165 0.0
C16 C 0.93251 0.0621 0.71099 0.0
C17 C 0.73891 0.02863 0.96972 0.0
C18 C 0.30254 0.97463 0.12021 0.0
O19 O 0.07555 0.94668 0.23697 0.0
O20 O 0.13678 0.81018 0.41981 0.0
C21 C 0.06223 0.04862 0.4536 0.0
C22 C 1.00715 0.94615 0.42122 0.0
H23 H 0.08855 0.16055 0.57933 0.0
C24 C 0.93777 0.87463 0.49643 0.0
H25 H 0.12106 0.102 0.40152 0.0
C26 C 0.92264 0.90576 0.60092 0.0
C27 C 0.97945 0.00717 0.63439 0.0
H28 H 0.89821 0.79251 0.4765 0.0
H29 H 0.86378 0.85266 0.65315 0.0
C30 C 0.04819 0.07889 0.55882 0.0
C31 C 0.52353 0.94876 0.17217 0.0
C32 C 0.41457 -0.00654 0.08187 0.0
H33 H 0.71048 0.92238 0.20808 0.0
C34 C 0.41364 0.04725 0.95491 0.0
H35 H 0.52796 0.90567 0.27116 0.0
C36 C 0.51865 0.05592 0.91908 0.0
C37 C 0.6275 0.01074 1.00915 0.0
H38 H 0.33179 0.08192 0.88292 0.0
H39 H 0.51411 0.09875 0.82 0.0
C40 C 0.62855 0.95698 0.13619 0.0
C41 C 0.06966 0.49436 0.16033 0.0
C42 C 0.03964 0.6036 0.06553 0.0
H43 H 0.08189 0.30465 0.20265 0.0
C44 C 1.0009 0.60344 0.93698 0.0
H45 H 0.10017 0.49166 0.26071 0.0
C46 C 0.99268 0.4963 0.90394 0.0
C47 C 0.02172 0.38665 0.99878 0.0
H48 H 0.97966 0.68608 0.86203 0.0
H49 H 0.96239 0.4996 0.80341 0.0
C50 C 0.06065 0.38709 0.1274 0.0
loop_
_geom_bond_atom_site_label_1
_geom_bond_atom_site_label_2
_geom_bond_distance
_geom_bond_site_symmetry_2
_ccdc_geom_bond_type
O0 Mn1 2.163 1_666 S
O0 C14 1.244 1_656 S
Mn1 O0 2.163 1_444 S
Mn1 O4 2.160 . S
Mn1 O5 2.221 1_454 S
Mn1 O7 2.163 1_445 S
Mn1 O9 2.160 1_554 S
Mn1 O19 2.221 1_545 S
O2 Mn3 2.087 . S
O2 C14 1.256 . S
Mn3 O2 2.087 . S
Mn3 O10 2.089 . S
Mn3 O19 2.290 . S
Mn3 O20 2.251 . S
O4 Mn1 2.160 . S
O4 C15 1.239 1_454 S
O5 Mn1 2.221 1_656 S
O5 Mn6 2.290 . S
O5 C16 1.278 . S
Mn6 O5 2.290 . S
Mn6 O8 2.089 . S
Mn6 O11 2.251 . S
Mn6 O12 2.087 . S
O7 Mn1 2.163 1_665 S
O7 C17 1.244 1_564 S
O8 Mn6 2.089 . S
O8 C15 1.256 . S
O9 Mn1 2.160 1_556 S
O9 C18 1.239 1_546 S
O10 Mn3 2.089 . S
O10 C18 1.256 . S
O11 Mn6 2.251 . S
O11 C16 1.241 . S
O12 Mn6 2.087 . S
O12 C17 1.256 . S
C13 O19 1.278 . S
C13 O20 1.241 . S
C14 O0 1.244 1_454 S
C14 O2 1.256 . S
C15 O4 1.239 1_656 S
C15 O8 1.256 . S
C16 O5 1.278 . S
C16 O11 1.241 . S
C17 O7 1.244 1_546 S
C17 O12 1.256 . S
C18 O9 1.239 1_564 S
C18 O10 1.256 . S
O19 Mn1 2.221 1_565 S
O19 Mn3 2.290 . S
O19 C13 1.278 . S
O20 Mn3 2.251 . S
O20 C13 1.241 . S
C21 C22 1.387 1_445 S
C21 H25 0.950 . S
C21 C30 1.390 . S
C22 C21 1.387 1_665 S
C22 C24 1.387 . S
H23 C30 0.950 . S
C24 C22 1.387 . S
C24 C26 1.390 . S
C24 H28 0.950 . S
H25 C21 0.950 . S
C26 C24 1.390 . S
C26 C27 1.387 . S
C26 H29 0.950 . S
C27 C26 1.387 . S
C27 C30 1.387 1_665 S
H28 C24 0.950 . S
H29 C26 0.950 . S
C30 C21 1.390 . S
C30 H23 0.950 . S
C30 C27 1.387 1_445 S
C31 C32 1.387 1_565 S
C31 H35 0.950 . S
C31 C40 1.390 . S
C32 C31 1.387 1_545 S
C32 C34 1.387 1_554 S
H33 C40 0.950 . S
C34 C32 1.387 1_556 S
C34 C36 1.390 . S
C34 H38 0.950 . S
H35 C31 0.950 . S
C36 C34 1.390 . S
C36 C37 1.387 1_556 S
C36 H39 0.950 . S
C37 C36 1.387 1_554 S
C37 C40 1.387 1_545 S
H38 C34 0.950 . S
H39 C36 0.950 . S
C40 C31 1.390 . S
C40 H33 0.950 . S
C40 C37 1.387 1_565 S
C41 C42 1.387 1_554 S
C41 H45 0.950 . S
C41 C50 1.390 . S
C42 C41 1.387 1_556 S
C42 C44 1.387 1_455 S
H43 C50 0.950 . S
C44 C42 1.387 1_655 S
C44 C46 1.390 . S
C44 H48 0.950 . S
H45 C41 0.950 . S
C46 C44 1.390 . S
C46 C47 1.387 1_655 S
C46 H49 0.950 . S
C47 C46 1.387 1_455 S
C47 C50 1.387 1_556 S
H48 C44 0.950 . S
H49 C46 0.950 . S
C50 C41 1.390 . S
C50 H43 0.950 . S
C50 C47 1.387 1_554 S
C22 C13 1.304 1_655 S
C27 C16 1.304 1_565 S
C32 C18 1.453 1_545 S
C37 C17 1.452 1_554 S
C42 C14 1.452 1_556 S
C47 C15 1.452 1_455 S
