# Generated by pormake.
# Topology uoz, (4)-cn, num edge types: 1
# Building blocks:
#     Node 0, Type 0, BuildingBlock: NAHDIM_clean_sbu_0, # of connection points: 4
#     Node 1, Type 0, BuildingBlock: NAHDIM_clean_sbu_0, # of connection points: 4
#     Node 2, Type 0, BuildingBlock: NAHDIM_clean_sbu_0, # of connection points: 4
#     Node 3, Type 0, BuildingBlock: NAHDIM_clean_sbu_0, # of connection points: 4
#     Node 4, Type 0, BuildingBlock: NAHDIM_clean_sbu_0, # of connection points: 4
#     Node 5, Type 0, BuildingBlock: NAHDIM_clean_sbu_0, # of connection points: 4
#     Node 6, Type 0, BuildingBlock: NAHDIM_clean_sbu_0, # of connection points: 4
#     Node 7, Type 0, BuildingBlock: NAHDIM_clean_sbu_0, # of connection points: 4
#     Node 8, Type 0, BuildingBlock: NAHDIM_clean_sbu_0, # of connection points: 4
#     Node 9, Type 0, BuildingBlock: NAHDIM_clean_sbu_0, # of connection points: 4
#     Node 10, Type 0, BuildingBlock: NAHDIM_clean_sbu_0, # of connection points: 4
#     Node 11, Type 0, BuildingBlock: NAHDIM_clean_sbu_0, # of connection points: 4
#     Node 12, Type 0, BuildingBlock: NAHDIM_clean_sbu_0, # of connection points: 4
#     Node 13, Type 0, BuildingBlock: NAHDIM_clean_sbu_0, # of connection points: 4
#     Node 14, Type 0, BuildingBlock: NAHDIM_clean_sbu_0, # of connection points: 4
#     Node 15, Type 0, BuildingBlock: NAHDIM_clean_sbu_0, # of connection points: 4
#     Edge 16, Type (0, 0), None
#     Edge 17, Type (0, 0), None
#     Edge 18, Type (0, 0), None
#     Edge 19, Type (0, 0), None
#     Edge 20, Type (0, 0), None
#     Edge 21, Type (0, 0), None
#     Edge 22, Type (0, 0), None
#     Edge 23, Type (0, 0), None
#     Edge 24, Type (0, 0), None
#     Edge 25, Type (0, 0), None
#     Edge 26, Type (0, 0), None
#     Edge 27, Type (0, 0), None
#     Edge 28, Type (0, 0), None
#     Edge 29, Type (0, 0), None
#     Edge 30, Type (0, 0), None
#     Edge 31, Type (0, 0), None
#     Edge 32, Type (0, 0), None
#     Edge 33, Type (0, 0), None
#     Edge 34, Type (0, 0), None
#     Edge 35, Type (0, 0), None
#     Edge 36, Type (0, 0), None
#     Edge 37, Type (0, 0), None
#     Edge 38, Type (0, 0), None
#     Edge 39, Type (0, 0), None
#     Edge 40, Type (0, 0), None
#     Edge 41, Type (0, 0), None
#     Edge 42, Type (0, 0), None
#     Edge 43, Type (0, 0), None
#     Edge 44, Type (0, 0), None
#     Edge 45, Type (0, 0), None
#     Edge 46, Type (0, 0), None
#     Edge 47, Type (0, 0), None
# Relax obj value: 0.081
# Max RMSD: 0.091
# Mean RMSD: 0.091
data_MOF--net-uoz--node1-NAHDIM_clean_sbu_0--edge1-none
_symmetry_space_group_name_H-M    P1
_symmetry_Int_Tables_number       1
_symmetry_cell_setting            triclinic
loop_
_symmetry_equiv_pos_as_xyz
'x, y, z'
_cell_length_a     26.420733
_cell_length_b     26.420835
_cell_length_c     11.251958
_cell_angle_alpha  90.001197
_cell_angle_beta   90.000245
_cell_angle_gamma 89.999876
loop_
_atom_site_label
_atom_site_type_symbol
_atom_site_fract_x
_atom_site_fract_y
_atom_site_fract_z
_atom_type_partial_charge
C0 C 0.10093 0.5215 0.48715 0.0
O1 O 0.14172 0.52214 0.42056 0.0
O2 O 0.13485 0.62046 0.27423 0.0
Zn3 Zn 0.06729 0.58432 0.29672 0.0
O4 O 0.06059 0.52652 0.18509 0.0
C5 C 0.01293 0.66608 0.17623 0.0
O6 O 0.05341 0.66699 0.10895 0.0
O7 O 0.0632 0.5489 0.45802 0.0
C8 C 0.0466 0.52916 0.07779 0.0
O9 O 0.0365 0.57294 0.02862 0.0
C10 C 0.15748 0.62446 0.17464 0.0
O11 O 0.13933 0.60121 0.08087 0.0
O12 O 0.01064 0.63581 0.2646 0.0
C13 C 0.79942 0.7928 0.73718 0.0
O14 O 0.79876 0.83359 0.67058 0.0
O15 O 0.70045 0.82669 0.52424 0.0
Zn16 Zn 0.7366 0.75913 0.54676 0.0
O17 O 0.7944 0.75244 0.43513 0.0
C18 C 0.65485 0.70475 0.4263 0.0
O19 O 0.65394 0.74521 0.35899 0.0
O20 O 0.77203 0.75506 0.70806 0.0
C21 C 0.79177 0.73844 0.32783 0.0
O22 O 0.74799 0.72833 0.27866 0.0
C23 C 0.69646 0.84931 0.42464 0.0
O24 O 0.71973 0.83116 0.33089 0.0
O25 O 0.68512 0.70247 0.51467 0.0
C26 C 0.52811 0.4912 -0.01267 0.0
O27 O 0.48731 0.49057 0.92076 0.0
O28 O 0.49417 0.39226 0.77439 0.0
Zn29 Zn 0.56173 0.42841 0.79685 0.0
O30 O 0.56841 0.48622 0.68525 0.0
C31 C 0.61606 0.34665 0.67627 0.0
O32 O 0.57557 0.34575 0.60905 0.0
O33 O 0.56584 0.46381 0.95817 0.0
C34 C 0.58239 0.48358 0.57794 0.0
O35 O 0.59249 0.4398 0.52876 0.0
C36 C 0.47153 0.38828 0.67482 0.0
O37 O 0.48965 0.41155 0.58106 0.0
O38 O 0.61838 0.37693 0.76464 0.0
C39 C 0.82957 0.21999 0.23708 0.0
O40 O 0.83022 0.1792 0.17046 0.0
O41 O 0.92855 0.18608 0.02421 0.0
Zn42 Zn 0.8924 0.25364 0.04668 0.0
O43 O 0.8346 0.26031 0.93504 0.0
C44 C 0.97415 0.308 0.92617 0.0
O45 O 0.97505 0.26753 0.85888 0.0
O46 O 0.85697 0.25772 0.20797 0.0
C47 C 0.83723 0.27429 0.82773 0.0
O48 O 0.88101 0.28439 0.77855 0.0
C49 C 0.93254 0.16344 0.92464 0.0
O50 O 0.90929 0.18158 0.83086 0.0
O51 O 0.94388 0.31029 0.01455 0.0
C52 C 0.10092 0.49134 0.59715 0.0
O53 O 0.14171 0.49071 0.66378 0.0
O54 O 0.13484 0.39235 0.81003 0.0
Zn55 Zn 0.06728 0.4285 0.78753 0.0
O56 O 0.06058 0.4863 0.89918 0.0
C57 C 0.0129 0.34675 0.90801 0.0
O58 O 0.05337 0.34584 -0.02469 0.0
O59 O 0.0632 0.46393 0.62624 0.0
C60 C 0.04659 0.48366 0.00647 0.0
O61 O 0.0365 0.43988 0.05566 0.0
C62 C 0.15747 0.38835 0.90961 0.0
O63 O 0.13933 0.41161 0.00338 0.0
O64 O 0.01062 0.37702 0.81964 0.0
C65 C 0.82958 0.79281 0.84717 0.0
O66 O 0.83022 0.8336 0.91377 0.0
O67 O 0.92855 0.82674 0.06006 0.0
Zn68 Zn 0.89241 0.75917 0.03758 0.0
O69 O 0.83462 0.75246 0.14922 0.0
C70 C 0.97419 0.70483 0.15805 0.0
O71 O 0.97509 0.7453 0.22534 0.0
O72 O 0.85698 0.75508 0.87629 0.0
C73 C 0.83727 0.73846 0.25652 0.0
O74 O 0.88105 0.72838 0.30569 0.0
C75 C 0.93255 0.84937 0.15964 0.0
O76 O 0.9093 0.83122 0.25342 0.0
O77 O 0.94391 0.70253 0.06969 0.0
C78 C 0.52812 0.52136 0.09734 0.0
O79 O 0.48736 0.52195 0.16402 0.0
O80 O 0.49418 0.62039 0.3101 0.0
Zn81 Zn 0.56174 0.58424 0.28766 0.0
O82 O 0.56843 0.52644 0.39932 0.0
C83 C 0.61611 0.666 0.40815 0.0
O84 O 0.57563 0.66691 0.47544 0.0
O85 O 0.56583 0.5488 0.12638 0.0
C86 C 0.58239 0.52908 0.50664 0.0
O87 O 0.59246 0.57287 0.55584 0.0
C88 C 0.47154 0.6244 0.40966 0.0
O89 O 0.48966 0.60115 0.50346 0.0
O90 O 0.6184 0.63572 0.31978 0.0
C91 C 0.79941 0.21998 0.34707 0.0
O92 O 0.79879 0.17919 0.41368 0.0
O93 O 0.70044 0.18602 0.55992 0.0
Zn94 Zn 0.73657 0.25359 0.53748 0.0
O95 O 0.79437 0.26029 0.64912 0.0
C96 C 0.65481 0.30791 0.65802 0.0
O97 O 0.6539 0.26742 0.72524 0.0
O98 O 0.772 0.2577 0.37619 0.0
C99 C 0.79173 0.27427 0.75642 0.0
O100 O 0.74794 0.28434 0.80561 0.0
C101 C 0.69645 0.16337 0.65948 0.0
O102 O 0.71971 0.1815 0.75326 0.0
O103 O 0.68508 0.31023 0.56966 0.0
C104 C 0.32957 0.29278 0.34719 0.0
O105 O 0.33022 0.33357 0.41381 0.0
O106 O 0.42854 0.32667 0.56013 0.0
Zn107 Zn 0.39239 0.25912 0.5376 0.0
O108 O 0.33459 0.25242 0.64923 0.0
C109 C 0.47415 0.20474 0.65805 0.0
O110 O 0.47505 0.2452 0.72538 0.0
O111 O 0.35697 0.25505 0.3763 0.0
C112 C 0.33723 0.23843 0.75653 0.0
O113 O 0.38101 0.22832 0.8057 0.0
C114 C 0.43253 0.34929 0.65972 0.0
O115 O 0.40929 0.33115 0.7535 0.0
O116 O 0.44388 0.20246 0.56968 0.0
C117 C 0.29942 0.72001 0.84709 0.0
O118 O 0.29879 0.67922 0.91371 0.0
O119 O 0.20045 0.68609 0.05998 0.0
Zn120 Zn 0.2366 0.75365 0.0375 0.0
O121 O 0.2944 0.76032 0.14912 0.0
C122 C 0.15484 0.808 0.15802 0.0
O123 O 0.15394 0.76752 0.22528 0.0
O124 O 0.27201 0.75774 0.87619 0.0
C125 C 0.29177 0.7743 0.25643 0.0
O126 O 0.24799 0.7844 0.30561 0.0
C127 C 0.19647 0.66345 0.15955 0.0
O128 O 0.21973 0.68158 0.25333 0.0
O129 O 0.18512 0.8103 0.06966 0.0
C130 C 0.29941 0.29279 0.23719 0.0
O131 O 0.29879 0.33358 0.17059 0.0
O132 O 0.20044 0.32673 0.02428 0.0
Zn133 Zn 0.23658 0.25916 0.04677 0.0
O134 O 0.29437 0.25245 0.93514 0.0
C135 C 0.15481 0.20483 0.92629 0.0
O136 O 0.1539 0.24531 0.85904 0.0
O137 O 0.272 0.25507 0.20808 0.0
C138 C 0.29173 0.23845 0.82785 0.0
O139 O 0.24794 0.22838 0.77867 0.0
C140 C 0.19646 0.34936 0.9247 0.0
O141 O 0.21971 0.33123 0.83091 0.0
O142 O 0.18509 0.20252 0.01465 0.0
C143 C 0.32957 0.72 0.73708 0.0
O144 O 0.33018 0.67922 0.67046 0.0
O145 O 0.42855 0.68604 0.52425 0.0
Zn146 Zn 0.39242 0.75361 0.54669 0.0
O147 O 0.33462 0.7603 0.43505 0.0
C148 C 0.47419 0.80793 0.42616 0.0
O149 O 0.47509 0.76744 0.35893 0.0
O150 O 0.357 0.75772 0.70798 0.0
C151 C 0.33727 0.77428 0.32774 0.0
O152 O 0.38106 0.78435 0.27856 0.0
C153 C 0.43255 0.66339 0.42469 0.0
O154 O 0.4093 0.68151 0.33089 0.0
O155 O 0.44392 0.81024 0.51452 0.0
C156 C 0.60093 0.02137 -0.01305 0.0
O157 O 0.64171 0.02201 0.92031 0.0
O158 O 0.63484 0.12038 0.77412 0.0
Zn159 Zn 0.56728 0.08423 0.79661 0.0
O160 O 0.56057 0.02644 0.68494 0.0
C161 C 0.5129 0.16599 0.67618 0.0
O162 O 0.55337 0.1669 0.60887 0.0
O163 O 0.56321 0.04878 0.95788 0.0
C164 C 0.5466 0.02908 0.57763 0.0
O165 O 0.53651 0.07287 0.52846 0.0
C166 C 0.65746 0.12438 0.67454 0.0
O167 O 0.63933 0.10114 0.58074 0.0
O168 O 0.51062 0.13571 0.76455 0.0
C169 C 0.02811 0.99134 0.4871 0.0
O170 O 0.98732 0.99071 0.42048 0.0
O171 O 0.99418 0.89235 0.27427 0.0
Zn172 Zn 0.06174 0.9285 0.29673 0.0
O173 O 0.06842 0.9863 0.18509 0.0
C174 C 0.11609 0.84675 0.17622 0.0
O175 O 0.07561 0.84583 0.10897 0.0
O176 O 0.06583 0.96393 0.45802 0.0
C177 C 0.08239 0.98366 0.07778 0.0
O178 O 0.09248 0.93988 0.0286 0.0
C179 C 0.97154 0.88836 0.17471 0.0
O180 O 0.98965 0.91162 0.08092 0.0
O181 O 0.1184 0.87702 0.26458 0.0
C182 C 0.60095 0.9912 0.09693 0.0
O183 O 0.64175 0.99054 0.16348 0.0
O184 O 0.63485 0.89228 0.30993 0.0
Zn185 Zn 0.56729 0.92842 0.28741 0.0
O186 O 0.56059 0.98622 0.39902 0.0
C187 C 0.51294 0.84666 0.40794 0.0
O188 O 0.55343 0.84575 0.47519 0.0
O189 O 0.5632 0.96383 0.1261 0.0
C190 C 0.54659 0.98359 0.50631 0.0
O191 O 0.53648 0.93981 0.55548 0.0
C192 C 0.65748 0.8883 0.40952 0.0
O193 O 0.63934 0.91156 0.50329 0.0
O194 O 0.51064 0.87694 0.31957 0.0
C195 C 0.0281 0.02151 0.5971 0.0
O196 O 0.98731 0.02214 0.66369 0.0
O197 O 0.99417 0.12046 0.80999 0.0
Zn198 Zn 0.06173 0.08432 0.78754 0.0
O199 O 0.06842 0.02652 0.89916 0.0
C200 C 0.11606 0.16608 0.90807 0.0
O201 O 0.07558 0.16699 -0.02469 0.0
O202 O 0.06583 0.0489 0.62624 0.0
C203 C 0.0824 0.02916 0.00647 0.0
O204 O 0.09248 0.07294 0.05565 0.0
C205 C 0.97153 0.12445 0.90957 0.0
O206 O 0.98965 0.10119 0.00335 0.0
O207 O 0.11838 0.13581 0.81971 0.0
loop_
_geom_bond_atom_site_label_1
_geom_bond_atom_site_label_2
_geom_bond_distance
_geom_bond_site_symmetry_2
_ccdc_geom_bond_type
C0 O1 1.160 . S
C0 O7 1.185 . S
O1 C0 1.160 . S
O2 Zn3 1.899 . S
O2 C10 1.284 . S
Zn3 O2 1.899 . S
Zn3 O4 2.032 . S
Zn3 O7 2.086 . S
Zn3 O12 1.977 1_455 S
O4 Zn3 2.032 . S
O4 C8 1.278 . S
C5 O6 1.203 1_655 S
C5 O12 1.267 . S
O6 C5 1.203 1_455 S
O7 C0 1.185 . S
O7 Zn3 2.086 . S
C8 O4 1.278 . S
C8 O9 1.211 . S
O9 C8 1.211 . S
C10 O2 1.284 . S
C10 O11 1.273 . S
O11 C10 1.273 . S
O12 Zn3 1.977 1_655 S
O12 C5 1.267 . S
C13 O14 1.160 . S
C13 O20 1.185 . S
O14 C13 1.160 . S
O15 Zn16 1.899 . S
O15 C23 1.284 . S
Zn16 O15 1.899 . S
Zn16 O17 2.032 . S
Zn16 O20 2.086 . S
Zn16 O25 1.977 . S
O17 Zn16 2.032 . S
O17 C21 1.278 . S
C18 O19 1.203 . S
C18 O25 1.267 . S
O19 C18 1.203 . S
O20 C13 1.185 . S
O20 Zn16 2.086 . S
C21 O17 1.278 . S
C21 O22 1.211 . S
O22 C21 1.211 . S
C23 O15 1.284 . S
C23 O24 1.273 . S
O24 C23 1.273 . S
O25 Zn16 1.977 . S
O25 C18 1.267 . S
C26 O27 1.160 1_554 S
C26 O33 1.185 1_554 S
O27 C26 1.160 1_556 S
O28 Zn29 1.899 . S
O28 C36 1.284 . S
Zn29 O28 1.899 . S
Zn29 O30 2.032 . S
Zn29 O33 2.086 . S
Zn29 O38 1.977 . S
O30 Zn29 2.032 . S
O30 C34 1.278 . S
C31 O32 1.203 . S
C31 O38 1.267 . S
O32 C31 1.203 . S
O33 C26 1.185 1_556 S
O33 Zn29 2.086 . S
C34 O30 1.278 . S
C34 O35 1.211 . S
O35 C34 1.211 . S
C36 O28 1.284 . S
C36 O37 1.273 . S
O37 C36 1.273 . S
O38 Zn29 1.977 . S
O38 C31 1.267 . S
C39 O40 1.160 . S
C39 O46 1.185 . S
O40 C39 1.160 . S
O41 Zn42 1.899 . S
O41 C49 1.284 1_554 S
Zn42 O41 1.899 . S
Zn42 O43 2.032 1_554 S
Zn42 O46 2.086 . S
Zn42 O51 1.977 . S
O43 Zn42 2.032 1_556 S
O43 C47 1.278 . S
C44 O45 1.203 . S
C44 O51 1.267 1_556 S
O45 C44 1.203 . S
O46 C39 1.185 . S
O46 Zn42 2.086 . S
C47 O43 1.278 . S
C47 O48 1.211 . S
O48 C47 1.211 . S
C49 O41 1.284 1_556 S
C49 O50 1.273 . S
O50 C49 1.273 . S
O51 Zn42 1.977 . S
O51 C44 1.267 1_554 S
C52 O53 1.160 . S
C52 O59 1.185 . S
O53 C52 1.160 . S
O54 Zn55 1.899 . S
O54 C62 1.284 . S
Zn55 O54 1.899 . S
Zn55 O56 2.032 . S
Zn55 O59 2.086 . S
Zn55 O64 1.977 1_455 S
O56 Zn55 2.032 . S
O56 C60 1.278 1_556 S
C57 O58 1.203 1_656 S
C57 O64 1.267 . S
O58 C57 1.203 1_454 S
O59 C52 1.185 . S
O59 Zn55 2.086 . S
C60 O56 1.278 1_554 S
C60 O61 1.211 . S
O61 C60 1.211 . S
C62 O54 1.284 . S
C62 O63 1.273 1_556 S
O63 C62 1.273 1_554 S
O64 Zn55 1.977 1_655 S
O64 C57 1.267 . S
C65 O66 1.160 . S
C65 O72 1.185 . S
O66 C65 1.160 . S
O67 Zn68 1.899 . S
O67 C75 1.284 . S
Zn68 O67 1.899 . S
Zn68 O69 2.032 . S
Zn68 O72 2.086 1_554 S
Zn68 O77 1.977 . S
O69 Zn68 2.032 . S
O69 C73 1.278 . S
C70 O71 1.203 . S
C70 O77 1.267 . S
O71 C70 1.203 . S
O72 C65 1.185 . S
O72 Zn68 2.086 1_556 S
C73 O69 1.278 . S
C73 O74 1.211 . S
O74 C73 1.211 . S
C75 O67 1.284 . S
C75 O76 1.273 . S
O76 C75 1.273 . S
O77 Zn68 1.977 . S
O77 C70 1.267 . S
C78 O79 1.160 . S
C78 O85 1.185 . S
O79 C78 1.160 . S
O80 Zn81 1.899 . S
O80 C88 1.284 . S
Zn81 O80 1.899 . S
Zn81 O82 2.032 . S
Zn81 O85 2.086 . S
Zn81 O90 1.977 . S
O82 Zn81 2.032 . S
O82 C86 1.278 . S
C83 O84 1.203 . S
C83 O90 1.267 . S
O84 C83 1.203 . S
O85 C78 1.185 . S
O85 Zn81 2.086 . S
C86 O82 1.278 . S
C86 O87 1.211 . S
O87 C86 1.211 . S
C88 O80 1.284 . S
C88 O89 1.273 . S
O89 C88 1.273 . S
O90 Zn81 1.977 . S
O90 C83 1.267 . S
C91 O92 1.160 . S
C91 O98 1.185 . S
O92 C91 1.160 . S
O93 Zn94 1.899 . S
O93 C101 1.284 . S
Zn94 O93 1.899 . S
Zn94 O95 2.032 . S
Zn94 O98 2.086 . S
Zn94 O103 1.977 . S
O95 Zn94 2.032 . S
O95 C99 1.278 . S
C96 O97 1.203 . S
C96 O103 1.267 . S
O97 C96 1.203 . S
O98 C91 1.185 . S
O98 Zn94 2.086 . S
C99 O95 1.278 . S
C99 O100 1.211 . S
O100 C99 1.211 . S
C101 O93 1.284 . S
C101 O102 1.273 . S
O102 C101 1.273 . S
O103 Zn94 1.977 . S
O103 C96 1.267 . S
C104 O105 1.160 . S
C104 O111 1.185 . S
O105 C104 1.160 . S
O106 Zn107 1.899 . S
O106 C114 1.284 . S
Zn107 O106 1.899 . S
Zn107 O108 2.032 . S
Zn107 O111 2.086 . S
Zn107 O116 1.977 . S
O108 Zn107 2.032 . S
O108 C112 1.278 . S
C109 O110 1.203 . S
C109 O116 1.267 . S
O110 C109 1.203 . S
O111 C104 1.185 . S
O111 Zn107 2.086 . S
C112 O108 1.278 . S
C112 O113 1.211 . S
O113 C112 1.211 . S
C114 O106 1.284 . S
C114 O115 1.273 . S
O115 C114 1.273 . S
O116 Zn107 1.977 . S
O116 C109 1.267 . S
C117 O118 1.160 . S
C117 O124 1.185 . S
O118 C117 1.160 . S
O119 Zn120 1.899 . S
O119 C127 1.284 . S
Zn120 O119 1.899 . S
Zn120 O121 2.032 . S
Zn120 O124 2.086 1_554 S
Zn120 O129 1.977 . S
O121 Zn120 2.032 . S
O121 C125 1.278 . S
C122 O123 1.203 . S
C122 O129 1.267 . S
O123 C122 1.203 . S
O124 C117 1.185 . S
O124 Zn120 2.086 1_556 S
C125 O121 1.278 . S
C125 O126 1.211 . S
O126 C125 1.211 . S
C127 O119 1.284 . S
C127 O128 1.273 . S
O128 C127 1.273 . S
O129 Zn120 1.977 . S
O129 C122 1.267 . S
C130 O131 1.160 . S
C130 O137 1.185 . S
O131 C130 1.160 . S
O132 Zn133 1.899 . S
O132 C140 1.284 1_554 S
Zn133 O132 1.899 . S
Zn133 O134 2.032 1_554 S
Zn133 O137 2.086 . S
Zn133 O142 1.977 . S
O134 Zn133 2.032 1_556 S
O134 C138 1.278 . S
C135 O136 1.203 . S
C135 O142 1.267 1_556 S
O136 C135 1.203 . S
O137 C130 1.185 . S
O137 Zn133 2.086 . S
C138 O134 1.278 . S
C138 O139 1.211 . S
O139 C138 1.211 . S
C140 O132 1.284 1_556 S
C140 O141 1.273 . S
O141 C140 1.273 . S
O142 Zn133 1.977 . S
O142 C135 1.267 1_554 S
C143 O144 1.160 . S
C143 O150 1.185 . S
O144 C143 1.160 . S
O145 Zn146 1.899 . S
O145 C153 1.284 . S
Zn146 O145 1.899 . S
Zn146 O147 2.032 . S
Zn146 O150 2.086 . S
Zn146 O155 1.977 . S
O147 Zn146 2.032 . S
O147 C151 1.278 . S
C148 O149 1.203 . S
C148 O155 1.267 . S
O149 C148 1.203 . S
O150 C143 1.185 . S
O150 Zn146 2.086 . S
C151 O147 1.278 . S
C151 O152 1.211 . S
O152 C151 1.211 . S
C153 O145 1.284 . S
C153 O154 1.273 . S
O154 C153 1.273 . S
O155 Zn146 1.977 . S
O155 C148 1.267 . S
C156 O157 1.160 1_554 S
C156 O163 1.185 1_554 S
O157 C156 1.160 1_556 S
O158 Zn159 1.899 . S
O158 C166 1.284 . S
Zn159 O158 1.899 . S
Zn159 O160 2.032 . S
Zn159 O163 2.086 . S
Zn159 O168 1.977 . S
O160 Zn159 2.032 . S
O160 C164 1.278 . S
C161 O162 1.203 . S
C161 O168 1.267 . S
O162 C161 1.203 . S
O163 C156 1.185 1_556 S
O163 Zn159 2.086 . S
C164 O160 1.278 . S
C164 O165 1.211 . S
O165 C164 1.211 . S
C166 O158 1.284 . S
C166 O167 1.273 . S
O167 C166 1.273 . S
O168 Zn159 1.977 . S
O168 C161 1.267 . S
C169 O170 1.160 1_455 S
C169 O176 1.185 . S
O170 C169 1.160 1_655 S
O171 Zn172 1.899 . S
O171 C179 1.284 1_455 S
Zn172 O171 1.899 . S
Zn172 O173 2.032 . S
Zn172 O176 2.086 . S
Zn172 O181 1.977 . S
O173 Zn172 2.032 . S
O173 C177 1.278 . S
C174 O175 1.203 . S
C174 O181 1.267 . S
O175 C174 1.203 . S
O176 C169 1.185 . S
O176 Zn172 2.086 . S
C177 O173 1.278 . S
C177 O178 1.211 . S
O178 C177 1.211 . S
C179 O171 1.284 1_655 S
C179 O180 1.273 . S
O180 C179 1.273 . S
O181 Zn172 1.977 . S
O181 C174 1.267 . S
C182 O183 1.160 . S
C182 O189 1.185 . S
O183 C182 1.160 . S
O184 Zn185 1.899 . S
O184 C192 1.284 . S
Zn185 O184 1.899 . S
Zn185 O186 2.032 . S
Zn185 O189 2.086 . S
Zn185 O194 1.977 . S
O186 Zn185 2.032 . S
O186 C190 1.278 . S
C187 O188 1.203 . S
C187 O194 1.267 . S
O188 C187 1.203 . S
O189 C182 1.185 . S
O189 Zn185 2.086 . S
C190 O186 1.278 . S
C190 O191 1.211 . S
O191 C190 1.211 . S
C192 O184 1.284 . S
C192 O193 1.273 . S
O193 C192 1.273 . S
O194 Zn185 1.977 . S
O194 C187 1.267 . S
C195 O196 1.160 1_455 S
C195 O202 1.185 . S
O196 C195 1.160 1_655 S
O197 Zn198 1.899 . S
O197 C205 1.284 1_455 S
Zn198 O197 1.899 . S
Zn198 O199 2.032 . S
Zn198 O202 2.086 . S
Zn198 O207 1.977 . S
O199 Zn198 2.032 . S
O199 C203 1.278 1_556 S
C200 O201 1.203 1_556 S
C200 O207 1.267 . S
O201 C200 1.203 1_554 S
O202 C195 1.185 . S
O202 Zn198 2.086 . S
C203 O199 1.278 1_554 S
C203 O204 1.211 . S
O204 C203 1.211 . S
C205 O197 1.284 1_655 S
C205 O206 1.273 1_556 S
O206 C205 1.273 1_554 S
O207 Zn198 1.977 . S
O207 C200 1.267 . S
C127 C10 1.419 . S
C192 C23 1.419 . S
C36 C114 1.419 . S
C49 C205 1.419 . S
C62 C140 1.419 . S
C179 C75 1.419 . S
C153 C88 1.419 . S
C101 C166 1.419 . S
C57 C44 1.349 . S
C161 C109 1.349 . S
C83 C18 1.349 . S
C122 C174 1.349 . S
C5 C70 1.350 . S
C200 C135 1.350 . S
C96 C31 1.349 . S
C148 C187 1.349 . S
C8 C60 0.655 . S
C73 C21 0.655 . S
C86 C34 0.655 . S
C47 C99 0.655 . S
C138 C112 0.655 . S
C151 C125 0.655 . S
C190 C164 0.655 1_565 S
C203 C177 0.655 1_545 S
C52 C0 1.671 . S
C65 C13 1.671 . S
C78 C26 1.671 . S
C39 C91 1.671 . S
C104 C130 1.671 . S
C143 C117 1.671 . S
C182 C156 1.670 1_565 S
C195 C169 1.671 1_545 S
