# Generated by pormake.
# Topology unj, (4)-cn, num edge types: 1
# Building blocks:
#     Node 0, Type 0, BuildingBlock: AZAVOO_clean_sbu_0, # of connection points: 4
#     Node 1, Type 0, BuildingBlock: AZAVOO_clean_sbu_0, # of connection points: 4
#     Node 2, Type 0, BuildingBlock: AZAVOO_clean_sbu_0, # of connection points: 4
#     Node 3, Type 0, BuildingBlock: AZAVOO_clean_sbu_0, # of connection points: 4
#     Node 4, Type 0, BuildingBlock: AZAVOO_clean_sbu_0, # of connection points: 4
#     Node 5, Type 0, BuildingBlock: AZAVOO_clean_sbu_0, # of connection points: 4
#     Edge 6, Type (0, 0), None
#     Edge 7, Type (0, 0), None
#     Edge 8, Type (0, 0), None
#     Edge 9, Type (0, 0), None
#     Edge 10, Type (0, 0), None
#     Edge 11, Type (0, 0), None
#     Edge 12, Type (0, 0), None
#     Edge 13, Type (0, 0), None
#     Edge 14, Type (0, 0), None
#     Edge 15, Type (0, 0), None
#     Edge 16, Type (0, 0), None
#     Edge 17, Type (0, 0), None
# Relax obj value: 0.045
# Max RMSD: 0.071
# Mean RMSD: 0.065
data_MOF--net-unj--node1-AZAVOO_clean_sbu_0--edge1-none
_symmetry_space_group_name_H-M    P1
_symmetry_Int_Tables_number       1
_symmetry_cell_setting            triclinic
loop_
_symmetry_equiv_pos_as_xyz
'x, y, z'
_cell_length_a     14.889091
_cell_length_b     17.283344
_cell_length_c     13.773488
_cell_angle_alpha  90.001022
_cell_angle_beta   89.998992
_cell_angle_gamma 117.66208
loop_
_atom_site_label
_atom_site_type_symbol
_atom_site_fract_x
_atom_site_fract_y
_atom_site_fract_z
_atom_type_partial_charge
Mg0 Mg 0.44563 0.17255 0.58012 0.0
O1 O 0.53765 0.16099 0.7077 0.0
O2 O 0.65856 0.131 0.65092 0.0
Mg3 Mg 0.63162 0.11182 0.48571 0.0
C4 C 0.61255 0.14534 0.72118 0.0
C5 C 0.30944 0.22191 0.72477 0.0
O6 O 0.2596 0.13804 0.74401 0.0
O7 O 0.57012 0.29952 0.52213 0.0
O8 O 0.67172 0.25587 0.44795 0.0
O9 O 0.33563 0.03556 0.60061 0.0
O10 O 0.46756 0.07727 0.50168 0.0
C11 C 0.64479 0.31463 0.46673 0.0
C12 C 0.38845 0.01487 0.54129 0.0
O13 O 0.38678 0.25076 0.66967 0.0
Mg14 Mg 0.17857 0.37827 0.73217 0.0
O15 O 0.26183 0.46618 0.86459 0.0
O16 O 0.42723 0.50649 0.84941 0.0
Mg17 Mg 0.4546 0.45872 0.70327 0.0
C18 C 0.35303 0.50712 0.89527 0.0
C19 C 0.97218 0.32787 0.84654 0.0
O20 O 0.8824 0.3224 0.86177 0.0
O21 O 0.23264 0.50687 0.65318 0.0
O22 O 0.40017 0.55212 0.63848 0.0
O23 O 0.1743 0.25064 0.78265 0.0
O24 O 0.29989 0.35408 0.70236 0.0
C25 C 0.32143 0.56262 0.62591 0.0
C26 C 0.26172 0.27838 0.74146 0.0
O27 O 0.02613 0.37338 0.77595 0.0
Mg28 Mg 0.78776 0.13008 0.99726 0.0
O29 O 0.72193 0.14096 0.8467 0.0
O30 O 0.55718 0.09448 0.87857 0.0
Mg31 Mg 0.51518 0.03967 1.03186 0.0
C32 C 0.63314 0.12795 0.82129 0.0
C33 C 1.01154 0.28395 0.9117 0.0
O34 O 0.10962 0.31609 0.92301 0.0
O35 O 0.76802 0.24306 0.05278 0.0
O36 O 0.60142 0.18243 0.08343 0.0
O37 O 0.77024 -0.00092 0.9662 0.0
O38 O 0.65223 0.0219 0.03827 0.0
C39 C 0.69019 0.24761 0.08387 0.0
C40 C 0.68153 -0.03269 1.00591 0.0
O41 O 0.95419 0.21819 0.96242 0.0
Mg42 Mg 0.57955 0.71978 0.08009 0.0
O43 O 0.48757 0.73138 0.20769 0.0
O44 O 0.36666 0.76139 0.15093 0.0
Mg45 Mg 0.39356 0.78056 0.98572 0.0
C46 C 0.41268 0.74704 0.22119 0.0
C47 C 0.71576 0.67044 0.22473 0.0
O48 O 0.7656 0.75431 0.24396 0.0
O49 O 0.45502 0.59281 1.02215 0.0
O50 O 0.3534 0.63649 0.94799 0.0
O51 O 0.68959 0.85677 0.10054 0.0
O52 O 0.55761 0.81505 1.00166 0.0
C53 C 0.38031 0.57772 0.96682 0.0
C54 C 0.63676 0.87744 0.04122 0.0
O55 O 0.63842 0.64158 0.16964 0.0
Mg56 Mg 0.84663 0.51407 0.23216 0.0
O57 O 0.76334 0.42617 0.36459 0.0
O58 O 0.59794 0.38592 0.34939 0.0
Mg59 Mg 0.5706 0.43365 0.20321 0.0
C60 C 0.67213 0.3853 0.39527 0.0
C61 C 0.05301 0.56447 0.34655 0.0
O62 O 0.14279 0.56994 0.36178 0.0
O63 O 0.79255 0.38546 0.15319 0.0
O64 O 0.62502 0.34023 0.13847 0.0
O65 O 0.8509 0.6417 0.28262 0.0
O66 O 0.72532 0.53827 0.20232 0.0
C67 C 0.70376 0.32972 0.12591 0.0
C68 C 0.76348 0.61397 0.24143 0.0
O69 O 0.99906 0.51895 0.27596 0.0
Mg70 Mg 0.23745 0.76226 0.49727 0.0
O71 O 0.30329 0.75141 0.34672 0.0
O72 O 0.46804 0.79788 0.37858 0.0
Mg73 Mg 0.51003 0.85266 0.53189 0.0
C74 C 0.39208 0.76443 0.3213 0.0
C75 C 0.01366 0.6084 0.41169 0.0
O76 O 0.91558 0.57628 0.42299 0.0
O77 O 0.25718 0.64927 0.55277 0.0
O78 O 0.42378 0.7099 0.58343 0.0
O79 O 0.25496 0.89327 0.46624 0.0
O80 O 0.37298 0.87042 0.53832 0.0
C81 C 0.335 0.64472 0.58386 0.0
C82 C 0.34366 0.925 0.50597 0.0
O83 O 0.07101 0.67417 0.46241 0.0
loop_
_geom_bond_atom_site_label_1
_geom_bond_atom_site_label_2
_geom_bond_distance
_geom_bond_site_symmetry_2
_ccdc_geom_bond_type
Mg0 O1 2.028 . S
Mg0 O7 1.986 . S
Mg0 O9 2.114 . S
Mg0 O10 2.251 . S
Mg0 O13 2.010 . S
O1 Mg0 2.028 . S
O1 C4 1.250 . S
O2 Mg3 2.028 . S
O2 C4 1.248 . S
Mg3 O2 2.028 . S
Mg3 O8 2.032 . S
Mg3 O10 2.079 . S
C4 O1 1.250 . S
C4 O2 1.248 . S
C5 O6 1.264 . S
C5 O13 1.249 . S
O6 C5 1.264 . S
O7 Mg0 1.986 . S
O7 C11 1.246 . S
O8 Mg3 2.032 . S
O8 C11 1.259 . S
O9 Mg0 2.114 . S
O9 C12 1.252 . S
O10 Mg0 2.251 . S
O10 Mg3 2.079 . S
O10 C12 1.273 . S
C11 O7 1.246 . S
C11 O8 1.259 . S
C12 O9 1.252 . S
C12 O10 1.273 . S
O13 Mg0 2.010 . S
O13 C5 1.249 . S
Mg14 O15 2.028 . S
Mg14 O21 1.986 . S
Mg14 O23 2.114 . S
Mg14 O24 2.251 . S
Mg14 O27 2.010 . S
O15 Mg14 2.028 . S
O15 C18 1.250 . S
O16 Mg17 2.028 . S
O16 C18 1.248 . S
Mg17 O16 2.028 . S
Mg17 O22 2.032 . S
Mg17 O24 2.079 . S
C18 O15 1.250 . S
C18 O16 1.248 . S
C19 O20 1.264 . S
C19 O27 1.249 1_655 S
O20 C19 1.264 . S
O21 Mg14 1.986 . S
O21 C25 1.246 . S
O22 Mg17 2.032 . S
O22 C25 1.259 . S
O23 Mg14 2.114 . S
O23 C26 1.252 . S
O24 Mg14 2.251 . S
O24 Mg17 2.079 . S
O24 C26 1.273 . S
C25 O21 1.246 . S
C25 O22 1.259 . S
C26 O23 1.252 . S
C26 O24 1.273 . S
O27 Mg14 2.010 . S
O27 C19 1.249 1_455 S
Mg28 O29 2.028 . S
Mg28 O35 1.986 1_556 S
Mg28 O37 2.114 . S
Mg28 O38 2.251 . S
Mg28 O41 2.010 . S
O29 Mg28 2.028 . S
O29 C32 1.250 . S
O30 Mg31 2.028 . S
O30 C32 1.248 . S
Mg31 O30 2.028 . S
Mg31 O36 2.032 1_556 S
Mg31 O38 2.079 . S
C32 O29 1.250 . S
C32 O30 1.248 . S
C33 O34 1.264 1_655 S
C33 O41 1.249 . S
O34 C33 1.264 1_455 S
O35 Mg28 1.986 1_554 S
O35 C39 1.246 . S
O36 Mg31 2.032 1_554 S
O36 C39 1.259 . S
O37 Mg28 2.114 . S
O37 C40 1.252 . S
O38 Mg28 2.251 . S
O38 Mg31 2.079 . S
O38 C40 1.273 . S
C39 O35 1.246 . S
C39 O36 1.259 . S
C40 O37 1.252 . S
C40 O38 1.273 . S
O41 Mg28 2.010 . S
O41 C33 1.249 . S
Mg42 O43 2.028 . S
Mg42 O49 1.986 1_554 S
Mg42 O51 2.114 . S
Mg42 O52 2.251 1_554 S
Mg42 O55 2.010 . S
O43 Mg42 2.028 . S
O43 C46 1.250 . S
O44 Mg45 2.028 . S
O44 C46 1.248 . S
Mg45 O44 2.028 . S
Mg45 O50 2.032 1_554 S
Mg45 O52 2.079 1_554 S
C46 O43 1.250 . S
C46 O44 1.248 . S
C47 O48 1.264 . S
C47 O55 1.249 . S
O48 C47 1.264 . S
O49 Mg42 1.986 1_556 S
O49 C53 1.246 . S
O50 Mg45 2.032 1_556 S
O50 C53 1.259 . S
O51 Mg42 2.114 . S
O51 C54 1.252 . S
O52 Mg42 2.251 1_556 S
O52 Mg45 2.079 1_556 S
O52 C54 1.273 1_556 S
C53 O49 1.246 . S
C53 O50 1.259 . S
C54 O51 1.252 . S
C54 O52 1.273 1_554 S
O55 Mg42 2.010 . S
O55 C47 1.249 . S
Mg56 O57 2.028 . S
Mg56 O63 1.986 . S
Mg56 O65 2.114 . S
Mg56 O66 2.251 . S
Mg56 O69 2.010 . S
O57 Mg56 2.028 . S
O57 C60 1.250 . S
O58 Mg59 2.028 . S
O58 C60 1.248 . S
Mg59 O58 2.028 . S
Mg59 O64 2.032 . S
Mg59 O66 2.079 . S
C60 O57 1.250 . S
C60 O58 1.248 . S
C61 O62 1.264 . S
C61 O69 1.249 1_455 S
O62 C61 1.264 . S
O63 Mg56 1.986 . S
O63 C67 1.246 . S
O64 Mg59 2.032 . S
O64 C67 1.259 . S
O65 Mg56 2.114 . S
O65 C68 1.252 . S
O66 Mg56 2.251 . S
O66 Mg59 2.079 . S
O66 C68 1.273 . S
C67 O63 1.246 . S
C67 O64 1.259 . S
C68 O65 1.252 . S
C68 O66 1.273 . S
O69 Mg56 2.010 . S
O69 C61 1.249 1_655 S
Mg70 O71 2.028 . S
Mg70 O77 1.986 . S
Mg70 O79 2.114 . S
Mg70 O80 2.251 . S
Mg70 O83 2.010 . S
O71 Mg70 2.028 . S
O71 C74 1.250 . S
O72 Mg73 2.028 . S
O72 C74 1.248 . S
Mg73 O72 2.028 . S
Mg73 O78 2.032 . S
Mg73 O80 2.079 . S
C74 O71 1.250 . S
C74 O72 1.248 . S
C75 O76 1.264 1_455 S
C75 O83 1.249 . S
O76 C75 1.264 1_655 S
O77 Mg70 1.986 . S
O77 C81 1.246 . S
O78 Mg73 2.032 . S
O78 C81 1.259 . S
O79 Mg70 2.114 . S
O79 C82 1.252 . S
O80 Mg70 2.251 . S
O80 Mg73 2.079 . S
O80 C82 1.273 . S
C81 O77 1.246 . S
C81 O78 1.259 . S
C82 O79 1.252 . S
C82 O80 1.273 . S
O83 Mg70 2.010 . S
O83 C75 1.249 . S
C12 C82 1.523 1_545 S
C5 C26 1.139 . S
C33 C19 0.919 . S
C54 C40 1.523 1_564 S
C68 C47 1.139 . S
C75 C61 0.919 . S
C11 C60 1.690 . S
C81 C25 1.323 . S
C32 C4 1.757 . S
C18 C53 1.690 . S
C39 C67 1.323 . S
C74 C46 1.757 . S
