# Generated by pormake.
# Topology qzd, (4)-cn, num edge types: 1
# Building blocks:
#     Node 0, Type 0, BuildingBlock: NAWXER_clean_sbu_0, # of connection points: 4
#     Node 1, Type 0, BuildingBlock: NAWXER_clean_sbu_0, # of connection points: 4
#     Node 2, Type 0, BuildingBlock: NAWXER_clean_sbu_0, # of connection points: 4
#     Edge 3, Type (0, 0), BuildingBlock: CIFDUS_clean_linker_0, # of connection points: 2
#     Edge 4, Type (0, 0), BuildingBlock: CIFDUS_clean_linker_0, # of connection points: 2
#     Edge 5, Type (0, 0), BuildingBlock: CIFDUS_clean_linker_0, # of connection points: 2
#     Edge 6, Type (0, 0), BuildingBlock: CIFDUS_clean_linker_0, # of connection points: 2
#     Edge 7, Type (0, 0), BuildingBlock: CIFDUS_clean_linker_0, # of connection points: 2
#     Edge 8, Type (0, 0), BuildingBlock: CIFDUS_clean_linker_0, # of connection points: 2
# Relax obj value: 0.000
# Max RMSD: 0.038
# Mean RMSD: 0.038
data_MOF--net-qzd--node1-NAWXER_clean_sbu_0--edge1-CIFDUS_clean_linker_0
_symmetry_space_group_name_H-M    P1
_symmetry_Int_Tables_number       1
_symmetry_cell_setting            triclinic
loop_
_symmetry_equiv_pos_as_xyz
'x, y, z'
_cell_length_a     12.859464
_cell_length_b     12.849186
_cell_length_c     38.450227
_cell_angle_alpha  94.618847
_cell_angle_beta   94.256686
_cell_angle_gamma 120.00569
loop_
_atom_site_label
_atom_site_type_symbol
_atom_site_fract_x
_atom_site_fract_y
_atom_site_fract_z
_atom_type_partial_charge
C0 C 0.12758 0.86472 0.02648 0.0
C1 C 0.76695 0.90459 0.02281 0.0
O2 O 1.01813 0.77777 0.0222 0.0
Zn3 Zn 0.94421 0.87912 0.02566 0.0
O4 O 0.15026 0.97424 0.03172 0.0
Zn5 Zn 0.057 0.07161 0.03518 0.0
O6 O 0.10715 0.15549 0.08217 0.0
O7 O 0.99465 0.9569 0.08051 0.0
O8 O 0.86781 1.00544 0.02831 0.0
O9 O 0.76738 0.80545 0.01987 0.0
O10 O 0.99338 0.97098 0.97926 0.0
O11 O 0.11144 0.16724 0.99766 0.0
C12 C 0.05604 0.06343 0.09818 0.0
C13 C 0.05796 0.0803 0.97253 0.0
C14 C 0.08473 0.07914 0.43231 0.0
C15 C 0.05041 0.04167 0.30456 0.0
O16 O 1.01805 0.11828 0.41929 0.0
Zn17 Zn 0.9579 0.14085 0.36817 0.0
O18 O 0.1342 0.03912 0.41205 0.0
Zn19 Zn 0.06816 0.05954 0.36827 0.0
O20 O 0.16287 0.25108 0.3692 0.0
O21 O 0.03457 0.31745 0.37069 0.0
O22 O 0.10367 1.00521 0.32514 0.0
O23 O 0.99458 0.09273 0.31711 0.0
O24 O 0.78153 0.03741 0.36512 0.0
O25 O 0.87889 0.93664 0.36511 0.0
C26 C 0.1423 0.33898 0.36995 0.0
C27 C 0.77928 0.93703 0.36397 0.0
C28 C 0.06696 0.09143 0.76565 0.0
C29 C 0.0782 0.08847 0.63971 0.0
O30 O 0.97947 0.0376 0.7408 0.0
Zn31 Zn 0.07336 0.09061 0.7029 0.0
O32 O 0.17582 0.15571 0.75851 0.0
Zn33 Zn 0.26538 0.20328 0.71149 0.0
O34 O 0.33924 0.38018 0.71703 0.0
O35 O 0.13949 0.28003 0.70957 0.0
O36 O 0.18531 0.15071 0.65684 0.0
O37 O 0.98744 0.03821 0.65631 0.0
O38 O 0.17065 0.9973 0.70594 0.0
O39 O 0.3669 0.12965 0.71442 0.0
C40 C 0.24037 0.38086 0.71464 0.0
C41 C 0.28011 0.02013 0.71063 0.0
H42 H 0.53213 0.71842 0.0242 0.0
H43 H 0.74635 0.1009 0.01568 0.0
H44 H 0.56808 0.11915 0.01541 0.0
H45 H 0.35543 0.03211 0.01957 0.0
H46 H 0.13199 0.6516 0.02791 0.0
H47 H 0.30947 0.62703 0.02605 0.0
C48 C 0.53923 0.80529 0.02204 0.0
C49 C 0.6532 0.90824 0.02031 0.0
C50 C 0.43506 0.81598 0.02204 0.0
C51 C 0.66065 0.0202 0.01745 0.0
C52 C 0.55852 0.03108 0.01725 0.0
C53 C 0.34475 0.94338 0.02109 0.0
C54 C 0.23076 0.84417 0.02431 0.0
C55 C 0.446 0.9303 0.01997 0.0
C56 C 0.21896 0.72972 0.0256 0.0
C57 C 0.32046 0.71577 0.02456 0.0
H58 H 0.551 0.89184 0.37498 0.0
H59 H 0.75033 0.71561 0.34677 0.0
H60 H 0.5712 0.51861 0.34554 0.0
H61 H 0.3625 0.39527 0.35417 0.0
H62 H 0.15414 0.5604 0.38239 0.0
H63 H 0.3319 0.76252 0.38168 0.0
C64 C 0.55458 0.81018 0.36833 0.0
C65 C 0.66471 0.81911 0.3613 0.0
C66 C 0.45003 0.69515 0.36782 0.0
C67 C 0.66771 0.71222 0.3527 0.0
C68 C 0.56507 0.59896 0.35192 0.0
C69 C 0.35519 0.4751 0.36029 0.0
C70 C 0.24544 0.46262 0.36872 0.0
C71 C 0.4566 0.58944 0.35984 0.0
C72 C 0.23783 0.56748 0.37596 0.0
C73 C 0.33949 0.68296 0.37558 0.0
H74 H 0.11451 0.79381 0.71944 0.0
H75 H 0.49193 1.01469 0.70728 0.0
H76 H 0.51644 0.83703 0.70898 0.0
H77 H 0.42553 0.61475 0.71164 0.0
H78 H 0.04613 0.40299 0.7239 0.0
H79 H 0.02824 0.58171 0.72448 0.0
C80 C 0.20253 0.80386 0.71705 0.0
C81 C 0.30085 0.91711 0.71279 0.0
C82 C 0.21557 0.70252 0.71806 0.0
C83 C 0.4145 0.92825 0.71041 0.0
C84 C 0.4284 0.82666 0.71135 0.0
C85 C 0.33945 0.60832 0.71469 0.0
C86 C 0.23715 0.49491 0.71736 0.0
C87 C 0.32896 0.71269 0.71486 0.0
C88 C 0.12621 0.48826 0.72137 0.0
C89 C 0.11557 0.59064 0.72176 0.0
H90 H 0.06248 0.19752 0.25992 0.0
H91 H 0.04919 0.85685 0.26396 0.0
H92 H 0.04858 0.83227 0.20003 0.0
H93 H 0.04787 0.90682 0.14283 0.0
H94 H 0.07813 0.2558 0.14005 0.0
H95 H 0.07671 0.27862 0.20369 0.0
C96 C 0.05932 0.1179 0.24671 0.0
C97 C 0.05444 0.02837 0.26634 0.0
C98 C 0.06229 0.1062 0.21027 0.0
C99 C 0.05281 0.92674 0.24922 0.0
C100 C 0.05221 0.91264 0.21274 0.0
C101 C 0.05443 0.98785 0.15626 0.0
C102 C 0.06223 0.07914 0.13686 0.0
C103 C 0.05632 1.00157 0.19298 0.0
C104 C 0.07239 0.18451 0.1545 0.0
C105 C 0.07111 0.1974 0.19083 0.0
H106 H 0.23646 0.10513 0.59424 0.0
H107 H 0.87868 0.05132 0.59844 0.0
H108 H 0.85013 0.04546 0.53467 0.0
H109 H 0.9279 0.05922 0.47788 0.0
H110 H 0.27934 0.09852 0.47256 0.0
H111 H 0.30948 0.10615 0.53659 0.0
C112 C 0.15231 0.09199 0.58111 0.0
C113 C 0.06012 0.07946 0.60098 0.0
C114 C 0.13552 0.08627 0.54432 0.0
C115 C 0.95084 0.06086 0.58368 0.0
C116 C 0.93458 0.0579 0.54725 0.0
C117 C 1.01114 0.06963 0.49079 0.0
C118 C 0.10183 0.07959 0.47071 0.0
C119 C 0.0265 0.07117 0.52736 0.0
C120 C 0.20833 0.09078 0.48757 0.0
C121 C 0.22564 0.09541 0.52414 0.0
H122 H 0.21024 0.24024 0.82482 0.0
H123 H 0.87195 0.90819 0.78909 0.0
H124 H 0.83862 0.87591 0.84998 0.0
H125 H 0.90875 0.93859 0.91339 0.0
H126 H 0.24174 0.27579 0.94926 0.0
H127 H 0.27372 0.30981 0.88835 0.0
C128 C 0.12914 0.16101 0.83041 0.0
C129 C 0.04419 0.07629 0.80253 0.0
C130 C 0.10967 0.14387 0.86548 0.0
C131 C 0.93869 0.97486 0.81011 0.0
C132 C 0.91971 0.95609 0.84491 0.0
C133 C 0.98815 0.01962 0.90784 0.0
C134 C 0.07322 0.10402 0.93574 0.0
C135 C 1.00508 0.03944 0.8728 0.0
C136 C 0.17484 0.20947 0.92822 0.0
C137 C 0.1934 0.22881 0.8934 0.0
loop_
_geom_bond_atom_site_label_1
_geom_bond_atom_site_label_2
_geom_bond_distance
_geom_bond_site_symmetry_2
_ccdc_geom_bond_type
C0 O2 1.248 . S
C0 O4 1.255 1_565 S
C1 O8 1.250 . S
C1 O9 1.253 1_545 S
O2 C0 1.248 . S
O2 Zn3 2.028 1_455 S
Zn3 O2 2.028 1_655 S
Zn3 O7 2.035 . S
Zn3 O9 2.035 . S
Zn3 O10 2.028 1_554 S
O4 C0 1.255 1_545 S
O4 Zn5 2.035 . S
Zn5 O4 2.035 . S
Zn5 O6 2.028 . S
Zn5 O8 2.028 1_455 S
Zn5 O11 2.035 1_554 S
O6 Zn5 2.028 . S
O6 C12 1.250 . S
O7 Zn3 2.035 . S
O7 C12 1.255 1_665 S
O8 C1 1.250 . S
O8 Zn5 2.028 1_655 S
O9 C1 1.253 1_565 S
O9 Zn3 2.035 . S
O10 Zn3 2.028 1_556 S
O10 C13 1.248 1_655 S
O11 Zn5 2.035 1_556 S
O11 C13 1.257 1_545 S
C12 O6 1.250 . S
C12 O7 1.255 1_445 S
C13 O10 1.248 1_455 S
C13 O11 1.257 1_565 S
C14 O16 1.247 1_455 S
C14 O18 1.258 . S
C15 O22 1.247 1_655 S
C15 O23 1.258 . S
O16 C14 1.247 1_655 S
O16 Zn17 2.028 . S
Zn17 O16 2.028 . S
Zn17 O21 2.035 1_655 S
Zn17 O23 2.035 . S
Zn17 O24 2.028 1_545 S
O18 C14 1.258 . S
O18 Zn19 2.035 . S
Zn19 O18 2.035 . S
Zn19 O20 2.028 . S
Zn19 O22 2.028 . S
Zn19 O25 2.035 1_445 S
O20 Zn19 2.028 . S
O20 C26 1.247 . S
O21 Zn17 2.035 1_455 S
O21 C26 1.258 . S
O22 C15 1.247 1_455 S
O22 Zn19 2.028 . S
O23 C15 1.258 . S
O23 Zn17 2.035 . S
O24 Zn17 2.028 1_565 S
O24 C27 1.247 . S
O25 Zn19 2.035 1_665 S
O25 C27 1.258 . S
C26 O20 1.247 . S
C26 O21 1.258 . S
C27 O24 1.247 . S
C27 O25 1.258 . S
C28 O30 1.251 . S
C28 O32 1.258 . S
C29 O36 1.247 . S
C29 O37 1.265 . S
O30 C28 1.251 . S
O30 Zn31 2.028 1_455 S
Zn31 O30 2.028 1_655 S
Zn31 O35 2.038 1_655 S
Zn31 O37 2.033 1_655 S
Zn31 O38 2.023 1_645 S
O32 C28 1.258 . S
O32 Zn33 2.035 . S
Zn33 O32 2.035 . S
Zn33 O34 2.028 . S
Zn33 O36 2.028 . S
Zn33 O39 2.035 1_545 S
O34 Zn33 2.028 . S
O34 C40 1.247 . S
O35 Zn31 2.038 1_455 S
O35 C40 1.262 . S
O36 C29 1.247 . S
O36 Zn33 2.028 . S
O37 C29 1.265 . S
O37 Zn31 2.033 1_455 S
O38 Zn31 2.023 1_465 S
O38 C41 1.254 . S
O39 Zn33 2.035 1_565 S
O39 C41 1.258 . S
C40 O34 1.247 . S
C40 O35 1.262 . S
C41 O38 1.254 . S
C41 O39 1.258 . S
H42 C48 0.931 . S
H43 C51 0.930 . S
H44 C52 0.930 . S
H45 C53 0.930 . S
H46 C56 0.930 . S
H47 C57 0.930 . S
C48 H42 0.931 . S
C48 C49 1.354 1_566 S
C48 C50 1.414 1_556 S
C49 C48 1.354 1_544 S
C49 C51 1.419 . S
C50 C48 1.414 1_554 S
C50 C55 1.425 1_565 S
C50 C57 1.409 1_554 S
C51 H43 0.930 . S
C51 C49 1.419 . S
C51 C52 1.362 . S
C52 H44 0.930 . S
C52 C51 1.362 . S
C52 C55 1.409 . S
C53 H45 0.930 . S
C53 C54 1.355 1_545 S
C53 C55 1.415 . S
C54 C53 1.355 1_565 S
C54 C56 1.419 1_554 S
C55 C50 1.425 1_545 S
C55 C52 1.409 . S
C55 C53 1.415 . S
C56 H46 0.930 . S
C56 C54 1.419 1_556 S
C56 C57 1.362 . S
C57 H47 0.930 . S
C57 C50 1.409 1_556 S
C57 C56 1.362 . S
H58 C64 0.930 . S
H59 C67 0.930 . S
H60 C68 0.930 . S
H61 C69 0.930 . S
H62 C72 0.930 . S
H63 C73 0.930 . S
C64 H58 0.930 . S
C64 C65 1.355 . S
C64 C66 1.415 . S
C65 C64 1.355 . S
C65 C67 1.419 . S
C66 C64 1.415 . S
C66 C71 1.425 . S
C66 C73 1.409 . S
C67 H59 0.930 . S
C67 C65 1.419 . S
C67 C68 1.362 . S
C68 H60 0.930 . S
C68 C67 1.362 . S
C68 C71 1.409 . S
C69 H61 0.930 . S
C69 C70 1.355 . S
C69 C71 1.415 . S
C70 C69 1.355 . S
C70 C72 1.419 . S
C71 C66 1.425 . S
C71 C68 1.409 . S
C71 C69 1.415 . S
C72 H62 0.930 . S
C72 C70 1.419 . S
C72 C73 1.362 . S
C73 H63 0.930 . S
C73 C66 1.409 . S
C73 C72 1.362 . S
H74 C80 0.930 1_655 S
H75 C83 0.930 . S
H76 C84 0.930 . S
H77 C85 0.930 . S
H78 C88 0.930 . S
H79 C89 0.930 . S
C80 H74 0.930 1_455 S
C80 C81 1.355 . S
C80 C82 1.415 . S
C81 C80 1.355 . S
C81 C83 1.419 . S
C82 C80 1.415 . S
C82 C87 1.425 . S
C82 C89 1.409 1_455 S
C83 H75 0.930 . S
C83 C81 1.419 . S
C83 C84 1.362 . S
C84 H76 0.930 . S
C84 C83 1.362 . S
C84 C87 1.409 . S
C85 H77 0.930 . S
C85 C86 1.355 . S
C85 C87 1.415 . S
C86 C85 1.355 . S
C86 C88 1.419 1_455 S
C87 C82 1.425 . S
C87 C84 1.409 . S
C87 C85 1.415 . S
C88 H78 0.930 . S
C88 C86 1.419 1_655 S
C88 C89 1.362 . S
C89 H79 0.930 . S
C89 C82 1.409 1_655 S
C89 C88 1.362 . S
H90 C96 0.930 . S
H91 C99 0.930 . S
H92 C100 0.930 . S
H93 C101 0.930 . S
H94 C104 0.930 . S
H95 C105 0.930 . S
C96 H90 0.930 . S
C96 C97 1.355 1_655 S
C96 C98 1.415 . S
C97 C96 1.355 1_455 S
C97 C99 1.419 . S
C98 C96 1.415 . S
C98 C103 1.425 1_655 S
C98 C105 1.409 1_545 S
C99 H91 0.930 . S
C99 C97 1.419 . S
C99 C100 1.362 . S
C100 H92 0.930 . S
C100 C99 1.362 . S
C100 C103 1.409 . S
C101 H93 0.930 . S
C101 C102 1.355 1_455 S
C101 C103 1.415 . S
C102 C101 1.355 1_655 S
C102 C104 1.419 1_545 S
C103 C98 1.425 1_455 S
C103 C100 1.409 . S
C103 C101 1.415 . S
C104 H94 0.930 . S
C104 C102 1.419 1_565 S
C104 C105 1.362 . S
C105 H95 0.930 . S
C105 C98 1.409 1_565 S
C105 C104 1.362 . S
H106 C112 0.930 1_665 S
H107 C115 0.930 . S
H108 C116 0.930 . S
H109 C117 0.930 . S
H110 C120 0.930 . S
H111 C121 0.930 . S
C112 H106 0.930 1_445 S
C112 C113 1.355 . S
C112 C114 1.415 . S
C113 C112 1.355 . S
C113 C115 1.419 . S
C114 C112 1.415 . S
C114 C119 1.425 . S
C114 C121 1.409 1_445 S
C115 H107 0.930 . S
C115 C113 1.419 . S
C115 C116 1.362 . S
C116 H108 0.930 . S
C116 C115 1.362 . S
C116 C119 1.409 . S
C117 H109 0.930 . S
C117 C118 1.355 . S
C117 C119 1.415 . S
C118 C117 1.355 . S
C118 C120 1.419 1_445 S
C119 C114 1.425 . S
C119 C116 1.409 . S
C119 C117 1.415 . S
C120 H110 0.930 . S
C120 C118 1.419 1_665 S
C120 C121 1.362 . S
C121 H111 0.930 . S
C121 C114 1.409 1_665 S
C121 C120 1.362 . S
H122 C128 0.930 . S
H123 C131 0.930 . S
H124 C132 0.930 . S
H125 C133 0.930 . S
H126 C136 0.930 . S
H127 C137 0.930 . S
C128 H122 0.930 . S
C128 C129 1.355 . S
C128 C130 1.415 . S
C129 C128 1.355 . S
C129 C131 1.419 1_445 S
C130 C128 1.415 . S
C130 C135 1.425 1_545 S
C130 C137 1.409 . S
C131 H123 0.930 . S
C131 C129 1.419 1_665 S
C131 C132 1.362 . S
C132 H124 0.930 . S
C132 C131 1.362 . S
C132 C135 1.409 1_655 S
C133 H125 0.930 . S
C133 C134 1.355 1_665 S
C133 C135 1.415 1_655 S
C134 C133 1.355 1_445 S
C134 C136 1.419 . S
C135 C130 1.425 1_565 S
C135 C132 1.409 1_455 S
C135 C133 1.415 1_455 S
C136 H126 0.930 . S
C136 C134 1.419 . S
C136 C137 1.362 . S
C137 H127 0.930 . S
C137 C130 1.409 . S
C137 C136 1.362 . S
C49 C1 1.500 . S
C54 C0 1.499 . S
C65 C27 1.496 . S
C70 C26 1.496 . S
C81 C41 1.493 . S
C86 C40 1.493 . S
C97 C15 1.511 1_455 S
C102 C12 1.521 1_655 S
C113 C29 1.528 . S
C118 C14 1.525 . S
C129 C28 1.517 . S
C134 C13 1.511 1_545 S
