# Generated by pormake.
# Topology bsn, (6)-cn, num edge types: 1
# Building blocks:
#     Node 0, Type 0, BuildingBlock: LEVNOQ01_clean_sbu_1, # of connection points: 6
#     Node 1, Type 0, BuildingBlock: LEVNOQ01_clean_sbu_1, # of connection points: 6
#     Node 2, Type 0, BuildingBlock: LEVNOQ01_clean_sbu_1, # of connection points: 6
#     Node 3, Type 0, BuildingBlock: LEVNOQ01_clean_sbu_1, # of connection points: 6
#     Edge 4, Type (0, 0), BuildingBlock: EYOCIG_clean_linker_4, # of connection points: 2
#     Edge 5, Type (0, 0), BuildingBlock: EYOCIG_clean_linker_4, # of connection points: 2
#     Edge 6, Type (0, 0), BuildingBlock: EYOCIG_clean_linker_4, # of connection points: 2
#     Edge 7, Type (0, 0), BuildingBlock: EYOCIG_clean_linker_4, # of connection points: 2
#     Edge 8, Type (0, 0), BuildingBlock: EYOCIG_clean_linker_4, # of connection points: 2
#     Edge 9, Type (0, 0), BuildingBlock: EYOCIG_clean_linker_4, # of connection points: 2
#     Edge 10, Type (0, 0), BuildingBlock: EYOCIG_clean_linker_4, # of connection points: 2
#     Edge 11, Type (0, 0), BuildingBlock: EYOCIG_clean_linker_4, # of connection points: 2
#     Edge 12, Type (0, 0), BuildingBlock: EYOCIG_clean_linker_4, # of connection points: 2
#     Edge 13, Type (0, 0), BuildingBlock: EYOCIG_clean_linker_4, # of connection points: 2
#     Edge 14, Type (0, 0), BuildingBlock: EYOCIG_clean_linker_4, # of connection points: 2
#     Edge 15, Type (0, 0), BuildingBlock: EYOCIG_clean_linker_4, # of connection points: 2
# Relax obj value: 0.178
# Max RMSD: 0.190
# Mean RMSD: 0.190
data_MOF--net-bsn--node1-LEVNOQ01_clean_sbu_1--edge1-EYOCIG_clean_linker_4
_symmetry_space_group_name_H-M    P1
_symmetry_Int_Tables_number       1
_symmetry_cell_setting            triclinic
loop_
_symmetry_equiv_pos_as_xyz
'x, y, z'
_cell_length_a     25.288024
_cell_length_b     23.728063
_cell_length_c     12.670335
_cell_angle_alpha  89.88674
_cell_angle_beta   95.295395
_cell_angle_gamma 89.891479
loop_
_atom_site_label
_atom_site_type_symbol
_atom_site_fract_x
_atom_site_fract_y
_atom_site_fract_z
_atom_type_partial_charge
O0 O 0.95041 0.21196 0.50628 0.0
Mg1 Mg 0.95306 0.18323 0.3463 0.0
O2 O 0.03079 0.24678 0.50455 0.0
Mg3 Mg 0.0215 0.2528 0.32302 0.0
O4 O 0.02268 0.15134 0.30356 0.0
O5 O 0.95409 0.09888 0.34899 0.0
O6 O 0.01007 0.26003 0.13921 0.0
O7 O 0.11219 0.23731 0.31382 0.0
Mg8 Mg 0.07518 0.36627 0.22852 0.0
O9 O 0.03238 0.34598 0.34987 0.0
O10 O 0.02701 0.3474 0.08709 0.0
O11 O 0.14503 0.31583 0.24741 0.0
O12 O 0.05902 0.4333 0.32841 0.0
C13 C 0.89092 0.26024 0.26178 0.0
C14 C 0.99128 0.23386 0.55465 0.0
C15 C 0.00119 0.10249 0.31896 0.0
C16 C 0.01012 0.29785 0.06739 0.0
C17 C 0.15037 0.26527 0.27992 0.0
C18 C 0.03347 0.39763 0.38094 0.0
O19 O 0.895 0.21084 0.22795 0.0
O20 O 0.92981 0.28102 0.32002 0.0
O21 O 0.08313 0.71337 0.41753 0.0
Mg22 Mg 0.07968 0.68412 0.57772 0.0
O23 O 0.00221 0.74717 0.41812 0.0
Mg24 Mg 0.00999 0.75327 0.59953 0.0
O25 O 0.00991 0.6519 0.61937 0.0
O26 O 0.07909 0.59973 0.57538 0.0
O27 O 0.01977 0.76107 0.78352 0.0
O28 O 0.91916 0.73699 0.60541 0.0
Mg29 Mg 0.95324 0.86676 0.68927 0.0
O30 O -0.00194 0.84608 0.57134 0.0
O31 O -6e-05 0.84812 0.8333 0.0
O32 O 0.88417 0.81558 0.66713 0.0
O33 O 0.97038 0.93334 0.58827 0.0
C34 C 0.14031 0.76131 0.66521 0.0
C35 C 0.04206 0.73488 0.36852 0.0
C36 C 0.03177 0.60313 0.6044 0.0
C37 C 0.01805 0.79903 0.8545 0.0
C38 C 0.88 0.76476 0.63607 0.0
C39 C -0.003 0.89744 0.53845 0.0
O40 O 0.13643 0.71169 0.69824 0.0
O41 O 0.10163 0.7821 0.60593 0.0
O42 O 0.44813 0.71309 0.00493 0.0
Mg43 Mg 0.45158 0.68415 0.8448 0.0
O44 O 0.52872 0.74745 0.0042 0.0
Mg45 Mg 0.52093 0.75377 0.82268 0.0
O46 O 0.52157 0.65246 0.80293 0.0
O47 O 0.45284 0.59975 0.84683 0.0
O48 O 0.51098 0.76155 0.6386 0.0
O49 O 0.6118 0.73756 0.81672 0.0
Mg50 Mg 0.57665 0.86693 0.73162 0.0
O51 O 0.53242 0.84677 0.85101 0.0
O52 O 0.52972 0.84872 0.58797 0.0
O53 O 0.6461 0.81597 0.75301 0.0
O54 O 0.56011 0.93385 0.83163 0.0
C55 C 0.39052 0.76146 0.75725 0.0
C56 C 0.48898 0.73482 0.05384 0.0
C57 C 0.5001 0.60353 0.81763 0.0
C58 C 0.51216 0.7995 0.56723 0.0
C59 C 0.65067 0.76526 0.78496 0.0
C60 C 0.53375 0.8983 0.8828 0.0
O61 O 0.39461 0.71187 0.72449 0.0
O62 O 0.42913 0.78229 0.81627 0.0
O63 O 0.58458 0.21355 0.91925 0.0
Mg64 Mg 0.5805 0.18432 0.07921 0.0
O65 O 0.50382 0.2479 0.91871 0.0
Mg66 Mg 0.5108 0.25391 0.1003 0.0
O67 O 0.51046 0.15254 0.12026 0.0
O68 O 0.57948 0.09994 0.07677 0.0
O69 O 0.51996 0.2616 0.2845 0.0
O70 O 0.41989 0.23774 0.10417 0.0
Mg71 Mg 0.45391 0.36713 0.18946 0.0
O72 O 0.49908 0.34685 0.07173 0.0
O73 O 0.50014 0.34865 0.33408 0.0
O74 O 0.38474 0.31618 0.16599 0.0
O75 O 0.47111 0.434 0.08939 0.0
C76 C 0.64092 0.26137 0.16849 0.0
C77 C 0.54379 0.23532 0.8697 0.0
C78 C 0.53214 0.10363 0.10558 0.0
C79 C 0.51815 0.29956 0.35546 0.0
C80 C 0.38059 0.26549 0.13424 0.0
C81 C 0.49788 0.39833 0.03934 0.0
O82 O 0.63691 0.21157 0.20046 0.0
O83 O 0.60253 0.28244 0.10881 0.0
C84 C 0.99487 0.45029 0.53568 0.0
C85 C 0.00835 0.4171 0.47131 0.0
C86 C 0.99179 0.50282 0.58701 0.0
C87 C 0.00175 0.55184 0.6039 0.0
C88 C 0.74091 0.72494 0.73327 0.0
C89 C 0.6984 0.73646 0.76351 0.0
C90 C 0.78977 0.72473 0.68766 0.0
C91 C 0.83233 0.73599 0.65749 0.0
C92 C 0.53773 0.4507 0.88561 0.0
C93 C 0.52393 0.41754 0.94987 0.0
C94 C 0.54075 0.50333 0.8343 0.0
C95 C 0.53051 0.55238 0.81765 0.0
C96 C 0.7937 0.3 0.2296 0.0
C97 C 0.83978 0.28723 0.24952 0.0
C98 C 0.73797 0.30046 0.20529 0.0
C99 C 0.69196 0.28825 0.18332 0.0
C100 C 0.28981 0.22549 0.18266 0.0
C101 C 0.33264 0.23677 0.15388 0.0
C102 C 0.24074 0.22562 0.2274 0.0
C103 C 0.19826 0.23698 0.25789 0.0
C104 C 0.2932 0.80075 0.7232 0.0
C105 C 0.33932 0.78834 0.74393 0.0
C106 C 0.23742 0.80072 0.69925 0.0
C107 C 0.19137 0.78825 0.67849 0.0
C108 C 0.49471 0.95093 0.0371 0.0
C109 C 0.50823 0.91772 -0.02724 0.0
C110 C 0.49176 1.00348 0.0884 0.0
C111 C 0.50189 0.05248 0.10518 0.0
C112 C 0.03758 0.94937 0.38512 0.0
C113 C 0.02338 0.91636 0.44921 0.0
C114 C 0.04118 1.00204 0.33426 0.0
C115 C 0.03132 0.0512 0.31806 0.0
C116 C 0.99126 0.27089 0.866 0.0
C117 C -0.00046 0.28181 0.95873 0.0
C118 C 0.98983 0.25789 0.75734 0.0
C119 C 0.99109 0.24717 0.66479 0.0
C120 C 0.03913 0.77286 0.0564 0.0
C121 C 0.02976 0.78381 -0.03632 0.0
C122 C 0.04237 0.7594 0.16532 0.0
C123 C 0.04208 0.74827 0.2581 0.0
C124 C 0.48847 0.7594 0.25682 0.0
C125 C 0.48877 0.74821 0.16414 0.0
C126 C 0.49156 0.77301 0.36557 0.0
C127 C 0.50073 0.78412 0.45818 0.0
C128 C 0.53945 0.27356 0.55746 0.0
C129 C 0.52997 0.28447 0.46471 0.0
C130 C 0.5435 0.25995 0.66638 0.0
C131 C 0.54406 0.24852 0.75921 0.0
loop_
_geom_bond_atom_site_label_1
_geom_bond_atom_site_label_2
_geom_bond_distance
_geom_bond_site_symmetry_2
_ccdc_geom_bond_type
O0 Mg1 1.990 . S
O0 C14 1.253 1_655 S
Mg1 O0 1.990 . S
Mg1 O4 2.184 . S
Mg1 O5 2.117 1_655 S
Mg1 O19 2.030 . S
O2 Mg3 2.072 . S
O2 C14 1.260 . S
Mg3 O2 2.072 . S
Mg3 O4 2.098 1_455 S
Mg3 O6 2.079 . S
Mg3 O7 2.072 . S
Mg3 O9 2.099 . S
Mg3 O20 2.079 1_455 S
O4 Mg1 2.184 . S
O4 Mg3 2.098 1_655 S
O4 C15 1.277 1_655 S
O5 Mg1 2.117 1_455 S
O5 C15 1.250 . S
O6 Mg3 2.079 . S
O6 C16 1.264 . S
O7 Mg3 2.072 . S
O7 C17 1.260 . S
Mg8 O9 2.180 . S
Mg8 O10 2.030 . S
Mg8 O11 1.990 . S
Mg8 O12 2.117 . S
O9 Mg3 2.099 . S
O9 Mg8 2.180 . S
O9 C18 1.279 . S
O10 Mg8 2.030 . S
O10 C16 1.248 . S
O11 Mg8 1.990 . S
O11 C17 1.253 . S
O12 Mg8 2.117 . S
O12 C18 1.250 . S
C13 O19 1.248 . S
C13 O20 1.264 . S
C14 O0 1.253 1_455 S
C14 O2 1.260 . S
C15 O4 1.277 1_455 S
C15 O5 1.250 . S
C16 O6 1.264 . S
C16 O10 1.248 . S
C17 O7 1.260 . S
C17 O11 1.253 . S
C18 O9 1.279 . S
C18 O12 1.250 . S
O19 Mg1 2.030 . S
O19 C13 1.248 . S
O20 Mg3 2.079 1_655 S
O20 C13 1.264 . S
O21 Mg22 1.990 . S
O21 C35 1.253 . S
Mg22 O21 1.990 . S
Mg22 O25 2.180 . S
Mg22 O26 2.117 . S
Mg22 O40 2.030 . S
O23 Mg24 2.072 . S
O23 C35 1.260 . S
Mg24 O23 2.072 . S
Mg24 O25 2.099 . S
Mg24 O27 2.079 . S
Mg24 O28 2.072 1_455 S
Mg24 O30 2.099 . S
Mg24 O41 2.079 . S
O25 Mg22 2.180 . S
O25 Mg24 2.099 . S
O25 C36 1.279 . S
O26 Mg22 2.117 . S
O26 C36 1.250 . S
O27 Mg24 2.079 . S
O27 C37 1.264 . S
O28 Mg24 2.072 1_655 S
O28 C38 1.260 . S
Mg29 O30 2.180 1_655 S
Mg29 O31 2.030 . S
Mg29 O32 1.990 . S
Mg29 O33 2.117 . S
O30 Mg24 2.099 . S
O30 Mg29 2.180 1_455 S
O30 C39 1.279 . S
O31 Mg29 2.030 . S
O31 C37 1.248 1_655 S
O32 Mg29 1.990 . S
O32 C38 1.253 . S
O33 Mg29 2.117 . S
O33 C39 1.248 1_655 S
C34 O40 1.248 . S
C34 O41 1.264 . S
C35 O21 1.253 . S
C35 O23 1.260 . S
C36 O25 1.279 . S
C36 O26 1.250 . S
C37 O27 1.264 . S
C37 O31 1.248 1_455 S
C38 O28 1.260 . S
C38 O32 1.253 . S
C39 O30 1.279 . S
C39 O33 1.248 1_455 S
O40 Mg22 2.030 . S
O40 C34 1.248 . S
O41 Mg24 2.079 . S
O41 C34 1.264 . S
O42 Mg43 1.990 . S
O42 C56 1.253 . S
Mg43 O42 1.990 . S
Mg43 O46 2.180 1_554 S
Mg43 O47 2.117 1_554 S
Mg43 O61 2.030 1_554 S
O44 Mg45 2.072 1_554 S
O44 C56 1.260 . S
Mg45 O44 2.072 1_556 S
Mg45 O46 2.099 . S
Mg45 O48 2.079 . S
Mg45 O49 2.072 . S
Mg45 O51 2.099 . S
Mg45 O62 2.079 . S
O46 Mg43 2.180 1_556 S
O46 Mg45 2.099 . S
O46 C57 1.279 . S
O47 Mg43 2.117 1_556 S
O47 C57 1.250 . S
O48 Mg45 2.079 . S
O48 C58 1.264 . S
O49 Mg45 2.072 . S
O49 C59 1.260 . S
Mg50 O51 2.180 . S
Mg50 O52 2.030 . S
Mg50 O53 1.990 . S
Mg50 O54 2.117 . S
O51 Mg45 2.099 . S
O51 Mg50 2.180 . S
O51 C60 1.279 . S
O52 Mg50 2.030 . S
O52 C58 1.248 . S
O53 Mg50 1.990 . S
O53 C59 1.253 . S
O54 Mg50 2.117 . S
O54 C60 1.250 . S
C55 O61 1.248 . S
C55 O62 1.264 . S
C56 O42 1.253 . S
C56 O44 1.260 . S
C57 O46 1.279 . S
C57 O47 1.250 . S
C58 O48 1.264 . S
C58 O52 1.248 . S
C59 O49 1.260 . S
C59 O53 1.253 . S
C60 O51 1.279 . S
C60 O54 1.250 . S
O61 Mg43 2.030 1_556 S
O61 C55 1.248 . S
O62 Mg45 2.079 . S
O62 C55 1.264 . S
O63 Mg64 1.990 . S
O63 C77 1.253 . S
Mg64 O63 1.990 . S
Mg64 O67 2.180 1_556 S
Mg64 O68 2.117 1_556 S
Mg64 O82 2.030 1_556 S
O65 Mg66 2.072 1_556 S
O65 C77 1.260 . S
Mg66 O65 2.072 1_554 S
Mg66 O67 2.099 . S
Mg66 O69 2.079 . S
Mg66 O70 2.072 . S
Mg66 O72 2.099 . S
Mg66 O83 2.079 . S
O67 Mg64 2.180 1_554 S
O67 Mg66 2.099 . S
O67 C78 1.279 . S
O68 Mg64 2.117 1_554 S
O68 C78 1.250 . S
O69 Mg66 2.079 . S
O69 C79 1.264 . S
O70 Mg66 2.072 . S
O70 C80 1.260 . S
Mg71 O72 2.180 . S
Mg71 O73 2.030 . S
Mg71 O74 1.990 . S
Mg71 O75 2.117 . S
O72 Mg66 2.099 . S
O72 Mg71 2.180 . S
O72 C81 1.279 . S
O73 Mg71 2.030 . S
O73 C79 1.248 . S
O74 Mg71 1.990 . S
O74 C80 1.253 . S
O75 Mg71 2.117 . S
O75 C81 1.250 . S
C76 O82 1.248 . S
C76 O83 1.264 . S
C77 O63 1.253 . S
C77 O65 1.260 . S
C78 O67 1.279 . S
C78 O68 1.250 . S
C79 O69 1.264 . S
C79 O73 1.248 . S
C80 O70 1.260 . S
C80 O74 1.253 . S
C81 O72 1.279 . S
C81 O75 1.250 . S
O82 Mg64 2.030 1_554 S
O82 C76 1.248 . S
O83 Mg66 2.079 . S
O83 C76 1.264 . S
C84 C85 1.170 . S
C84 C86 1.380 . S
C85 C84 1.170 . S
C86 C84 1.380 . S
C86 C87 1.170 . S
C87 C86 1.170 . S
C88 C89 1.170 . S
C88 C90 1.380 . S
C89 C88 1.170 . S
C90 C88 1.380 . S
C90 C91 1.170 . S
C91 C90 1.170 . S
C92 C93 1.170 . S
C92 C94 1.380 1_554 S
C93 C92 1.170 . S
C94 C92 1.380 1_556 S
C94 C95 1.170 . S
C95 C94 1.170 . S
C96 C97 1.170 . S
C96 C98 1.380 . S
C97 C96 1.170 . S
C98 C96 1.380 . S
C98 C99 1.170 . S
C99 C98 1.170 . S
C100 C101 1.170 . S
C100 C102 1.380 . S
C101 C100 1.170 . S
C102 C100 1.380 . S
C102 C103 1.170 . S
C103 C102 1.170 . S
C104 C105 1.170 . S
C104 C106 1.380 . S
C105 C104 1.170 . S
C106 C104 1.380 . S
C106 C107 1.170 . S
C107 C106 1.170 . S
C108 C109 1.170 . S
C108 C110 1.380 1_566 S
C109 C108 1.170 . S
C110 C108 1.380 1_544 S
C110 C111 1.170 . S
C111 C110 1.170 . S
C112 C113 1.170 . S
C112 C114 1.380 1_565 S
C113 C112 1.170 . S
C114 C112 1.380 1_545 S
C114 C115 1.170 . S
C115 C114 1.170 . S
C116 C117 1.170 1_556 S
C116 C118 1.380 . S
C117 C116 1.170 1_554 S
C118 C116 1.380 . S
C118 C119 1.170 . S
C119 C118 1.170 . S
C120 C121 1.170 1_554 S
C120 C122 1.380 . S
C121 C120 1.170 1_556 S
C122 C120 1.380 . S
C122 C123 1.170 . S
C123 C122 1.170 . S
C124 C125 1.170 . S
C124 C126 1.380 . S
C125 C124 1.170 . S
C126 C124 1.380 . S
C126 C127 1.170 . S
C127 C126 1.170 . S
C128 C129 1.170 . S
C128 C130 1.380 . S
C129 C128 1.170 . S
C130 C128 1.380 . S
C130 C131 1.170 . S
C131 C130 1.170 . S
C85 C18 1.685 . S
C87 C36 1.260 . S
C89 C59 1.886 . S
C91 C38 1.905 . S
C93 C81 1.688 . S
C95 C57 1.252 . S
C97 C13 1.435 . S
C99 C76 1.458 . S
C101 C80 1.890 . S
C103 C17 1.924 . S
C105 C55 1.427 . S
C107 C34 1.447 . S
C109 C60 1.695 . S
C111 C78 1.250 . S
C113 C39 1.730 . S
C115 C15 1.328 . S
C117 C16 1.060 . S
C119 C14 1.018 . S
C121 C37 1.049 . S
C123 C35 1.012 . S
C125 C56 1.001 . S
C127 C58 1.060 . S
C129 C79 1.042 . S
C131 C77 1.018 . S
