# Generated by pormake.
# Topology sma, (6)-cn, num edge types: 1
# Building blocks:
#     Node 0, Type 0, BuildingBlock: BETDIP_clean_sbu_0, # of connection points: 6
#     Node 1, Type 0, BuildingBlock: BETDIP_clean_sbu_0, # of connection points: 6
#     Node 2, Type 0, BuildingBlock: BETDIP_clean_sbu_0, # of connection points: 6
#     Edge 3, Type (0, 0), None
#     Edge 4, Type (0, 0), None
#     Edge 5, Type (0, 0), None
#     Edge 6, Type (0, 0), None
#     Edge 7, Type (0, 0), None
#     Edge 8, Type (0, 0), None
#     Edge 9, Type (0, 0), None
#     Edge 10, Type (0, 0), None
#     Edge 11, Type (0, 0), None
# Relax obj value: 0.033
# Max RMSD: 0.133
# Mean RMSD: 0.133
data_MOF--net-sma--node1-BETDIP_clean_sbu_0--edge1-none
_symmetry_space_group_name_H-M    P1
_symmetry_Int_Tables_number       1
_symmetry_cell_setting            triclinic
loop_
_symmetry_equiv_pos_as_xyz
'x, y, z'
_cell_length_a     23.87466
_cell_length_b     23.874898
_cell_length_c     5.8499669
_cell_angle_alpha  89.999585
_cell_angle_beta   90.001536
_cell_angle_gamma 120.00159
loop_
_atom_site_label
_atom_site_type_symbol
_atom_site_fract_x
_atom_site_fract_y
_atom_site_fract_z
_atom_type_partial_charge
Tb0 Tb 0.10361 0.61177 0.04657 0.0
Tb1 Tb 1.01373 0.46467 0.05837 0.0
C2 C 0.17748 0.72648 0.17145 0.0
C3 C 0.24378 0.77778 0.22415 0.0
C4 C 0.29293 0.7652 0.2916 0.0
C5 C 0.35491 0.81672 0.34498 0.0
C6 C 0.36814 0.88118 0.33181 0.0
C7 C 0.31804 0.89272 0.2673 0.0
C8 C 0.25683 0.84169 0.21379 0.0
C9 C 0.06757 0.55531 0.64838 0.0
C10 C 0.1645 0.51933 0.03596 0.0
C11 C 0.93204 0.34731 -0.00493 0.0
C12 C 0.86833 0.29848 0.08601 0.0
C13 C 0.81573 0.30941 0.09762 0.0
C14 C 0.75553 0.26087 0.17836 0.0
C15 C 0.74696 0.20072 0.24985 0.0
C16 C 0.80028 0.19084 0.24299 0.0
C17 C 0.86011 0.2391 0.16142 0.0
C18 C 1.04562 0.52287 0.4558 0.0
C19 C 0.95478 0.55772 -0.0181 0.0
O20 O 0.14953 0.6776 0.31344 0.0
O21 O 0.16309 0.70936 0.95704 0.0
O22 O 0.07946 0.53271 0.82262 0.0
O23 O 0.08232 0.61486 0.68243 0.0
O24 O 0.17381 0.57757 0.08918 0.0
O25 O 0.10617 0.47123 -0.01984 0.0
O26 O 0.93499 0.39429 0.87003 0.0
O27 O 0.98049 0.36749 0.13782 0.0
O28 O 1.03455 0.54405 0.27671 0.0
O29 O 1.03249 0.46412 0.42538 0.0
O30 O 0.94635 0.49853 0.96727 0.0
O31 O 1.01076 0.60815 0.0435 0.0
H32 H 0.2835 0.71592 0.30207 0.0
H33 H 0.39244 0.80614 0.3933 0.0
H34 H 0.32604 0.94146 0.25536 0.0
H35 H 0.21935 0.85229 0.16412 0.0
H36 H 0.82084 0.35502 0.04215 0.0
H37 H 0.71554 0.27016 0.18102 0.0
H38 H 0.79563 0.14524 0.29586 0.0
H39 H 0.90003 0.22968 0.1547 0.0
Tb40 Tb 0.58735 0.99803 0.38001 0.0
Tb41 Tb 0.53014 0.08792 0.3918 0.0
C42 C 0.62819 0.92417 0.50489 0.0
C43 C 0.61319 0.85787 0.55757 0.0
C44 C 0.55145 0.80871 0.62489 0.0
C45 C 0.54099 0.74673 0.67824 0.0
C46 C 0.59223 0.7335 0.66518 0.0
C47 C 0.65388 0.78362 0.60081 0.0
C48 C 0.66406 0.84483 0.54733 0.0
C49 C 0.56694 1.03408 -0.01819 0.0
C50 C 0.43403 0.93715 0.36939 0.0
C51 C 0.49446 0.1696 0.32849 0.0
C52 C 0.50935 0.23332 0.4194 0.0
C53 C 0.57287 0.28592 0.43099 0.0
C54 C 0.58453 0.34612 0.51169 0.0
C55 C 0.53296 0.3547 0.58316 0.0
C56 C 0.46976 0.30137 0.57632 0.0
C57 C 0.45817 0.24153 0.49478 0.0
C58 C 0.55645 0.05603 0.78923 0.0
C59 C 0.68214 0.14687 0.31536 0.0
O60 O 0.60726 0.95212 0.64687 0.0
O61 O 0.62547 0.93856 0.29048 0.0
O62 O 0.53244 1.02219 0.15605 0.0
O63 O 0.61174 1.01933 0.01586 0.0
O64 O 0.48295 0.92784 0.42259 0.0
O65 O 0.44426 0.99548 0.31357 0.0
O66 O 0.5385 0.16666 0.20345 0.0
O67 O 0.4662 0.12116 0.47124 0.0
O68 O 0.58869 0.0671 0.61014 0.0
O69 O 0.51083 0.06916 0.75881 0.0
O70 O 0.63137 0.15529 0.30072 0.0
O71 O 0.67659 0.09089 0.37693 0.0
H72 H 0.5116 0.81813 0.63528 0.0
H73 H 0.49287 0.70919 0.72645 0.0
H74 H 0.69462 0.77562 0.58895 0.0
H75 H 0.71215 0.88232 0.49776 0.0
H76 H 0.61338 0.28082 0.37554 0.0
H77 H 0.63382 0.38612 0.51434 0.0
H78 H 0.42879 0.30601 0.62917 0.0
H79 H 0.40884 0.20161 0.48807 0.0
Tb80 Tb 0.48987 0.51429 0.71328 0.0
Tb81 Tb 0.63697 0.57152 0.72509 0.0
C82 C 0.37516 0.47345 0.83813 0.0
C83 C 0.32387 0.48845 0.89086 0.0
C84 C 0.33645 0.5502 0.95808 0.0
C85 C 0.28493 0.56066 0.01144 0.0
C86 C 0.22047 0.50942 -0.00153 0.0
C87 C 0.20892 0.44775 0.93421 0.0
C88 C 0.25995 0.43757 0.88073 0.0
C89 C 0.54634 0.53471 0.31509 0.0
C90 C 0.58231 0.66762 0.70271 0.0
C91 C 0.75434 0.6072 0.66179 0.0
C92 C 0.80316 0.5923 0.75269 0.0
C93 C 0.79224 0.52878 0.76423 0.0
C94 C 0.84078 0.51712 0.84491 0.0
C95 C 0.90093 0.56869 0.91643 0.0
C96 C 0.9108 0.63188 0.90965 0.0
C97 C 0.86255 0.64347 0.82813 0.0
C98 C 0.57877 0.5452 0.12252 0.0
C99 C 0.54392 0.41952 0.64864 0.0
O100 O 0.42404 0.49436 -0.01987 0.0
O101 O 0.39228 0.4762 0.62372 0.0
O102 O 0.56894 0.56921 0.48934 0.0
O103 O 0.48678 0.48991 0.34913 0.0
O104 O 0.52408 0.6187 0.75589 0.0
O105 O 0.63041 0.65739 0.64689 0.0
O106 O 0.70735 0.56317 0.53673 0.0
O107 O 0.73415 0.63545 0.80457 0.0
O108 O 0.55759 0.51296 0.94343 0.0
O109 O 0.63752 0.59082 0.09211 0.0
O110 O 0.60312 0.47029 0.63403 0.0
O111 O 0.49349 0.42506 0.71018 0.0
H112 H 0.38573 0.59005 0.96838 0.0
H113 H 0.29551 0.60878 0.05957 0.0
H114 H 0.16018 0.40701 0.92245 0.0
H115 H 0.24935 0.38948 0.83124 0.0
H116 H 0.74663 0.48828 0.70873 0.0
H117 H 0.83149 0.46783 0.84752 0.0
H118 H 0.95641 0.67285 0.96255 0.0
H119 H 0.87197 0.69281 0.82147 0.0
loop_
_geom_bond_atom_site_label_1
_geom_bond_atom_site_label_2
_geom_bond_distance
_geom_bond_site_symmetry_2
_ccdc_geom_bond_type
Tb0 C2 2.809 . S
Tb0 O20 2.484 . S
Tb0 O21 2.440 1_554 S
Tb0 O22 2.658 1_454 S
Tb0 O23 2.409 1_554 S
Tb0 O24 2.378 . S
Tb0 O28 2.325 . S
Tb0 O31 2.341 1_455 S
Tb1 C11 2.809 . S
Tb1 O22 2.325 1_554 S
Tb1 O25 2.341 1_655 S
Tb1 O26 2.484 1_554 S
Tb1 O27 2.440 . S
Tb1 O28 2.658 1_655 S
Tb1 O29 2.409 . S
Tb1 O30 2.378 . S
C2 Tb0 2.809 . S
C2 C3 1.514 . S
C2 O20 1.248 . S
C2 O21 1.266 1_554 S
C3 C2 1.514 . S
C3 C4 1.359 . S
C3 C8 1.348 . S
C4 C3 1.359 . S
C4 C5 1.380 . S
C4 H32 0.929 . S
C5 C4 1.380 . S
C5 C6 1.347 . S
C5 H33 0.931 . S
C6 C5 1.347 . S
C6 C7 1.369 . S
C7 C6 1.369 . S
C7 C8 1.408 . S
C7 H34 0.930 1_554 S
C8 C3 1.348 . S
C8 C7 1.408 . S
C8 H35 0.930 1_554 S
C9 O22 1.281 1_455 S
C9 O23 1.254 . S
C10 O24 1.236 . S
C10 O25 1.266 . S
C11 Tb1 2.809 . S
C11 C12 1.514 . S
C11 O26 1.248 1_554 S
C11 O27 1.266 . S
C12 C11 1.514 . S
C12 C13 1.359 1_554 S
C12 C17 1.348 . S
C13 C12 1.359 1_556 S
C13 C14 1.380 . S
C13 H36 0.929 . S
C14 C13 1.380 . S
C14 C15 1.347 1_556 S
C14 H37 0.931 . S
C15 C14 1.347 1_554 S
C15 C16 1.369 . S
C16 C15 1.369 . S
C16 C17 1.408 . S
C16 H38 0.930 . S
C17 C12 1.348 . S
C17 C16 1.408 . S
C17 H39 0.930 . S
C18 O28 1.281 1_655 S
C18 O29 1.254 . S
C19 O30 1.236 . S
C19 O31 1.266 . S
O20 Tb0 2.484 . S
O20 C2 1.248 . S
O21 Tb0 2.440 1_556 S
O21 C2 1.266 1_556 S
O22 Tb0 2.658 1_656 S
O22 Tb1 2.325 1_556 S
O22 C9 1.281 1_655 S
O23 Tb0 2.409 1_556 S
O23 C9 1.254 . S
O24 Tb0 2.378 . S
O24 C10 1.236 . S
O25 Tb1 2.341 1_455 S
O25 C10 1.266 . S
O26 Tb1 2.484 1_556 S
O26 C11 1.248 1_556 S
O27 Tb1 2.440 . S
O27 C11 1.266 . S
O28 Tb0 2.325 . S
O28 Tb1 2.658 1_455 S
O28 C18 1.281 1_455 S
O29 Tb1 2.409 . S
O29 C18 1.254 . S
O30 Tb1 2.378 . S
O30 C19 1.236 . S
O31 Tb0 2.341 1_655 S
O31 C19 1.266 . S
H32 C4 0.929 . S
H33 C5 0.931 . S
H34 C7 0.930 1_556 S
H35 C8 0.930 1_556 S
H36 C13 0.929 . S
H37 C14 0.931 . S
H38 C16 0.930 . S
H39 C17 0.930 . S
Tb40 C42 2.809 . S
Tb40 O60 2.484 . S
Tb40 O61 2.440 . S
Tb40 O62 2.658 1_565 S
Tb40 O63 2.409 . S
Tb40 O64 2.378 . S
Tb40 O68 2.325 . S
Tb40 O71 2.341 1_565 S
Tb41 C51 2.809 . S
Tb41 O62 2.325 . S
Tb41 O65 2.341 1_545 S
Tb41 O66 2.484 . S
Tb41 O67 2.440 . S
Tb41 O68 2.658 1_545 S
Tb41 O69 2.409 . S
Tb41 O70 2.378 . S
C42 Tb40 2.809 . S
C42 C43 1.514 . S
C42 O60 1.248 . S
C42 O61 1.266 . S
C43 C42 1.514 . S
C43 C44 1.359 . S
C43 C48 1.348 . S
C44 C43 1.359 . S
C44 C45 1.380 . S
C44 H72 0.929 . S
C45 C44 1.380 . S
C45 C46 1.347 . S
C45 H73 0.931 . S
C46 C45 1.347 . S
C46 C47 1.369 . S
C47 C46 1.369 . S
C47 C48 1.408 . S
C47 H74 0.930 . S
C48 C43 1.348 . S
C48 C47 1.408 . S
C48 H75 0.930 . S
C49 O62 1.280 1_565 S
C49 O63 1.256 . S
C50 O64 1.236 . S
C50 O65 1.266 . S
C51 Tb41 2.809 . S
C51 C52 1.514 . S
C51 O66 1.248 . S
C51 O67 1.266 . S
C52 C51 1.514 . S
C52 C53 1.359 . S
C52 C57 1.348 . S
C53 C52 1.359 . S
C53 C54 1.380 . S
C53 H76 0.929 . S
C54 C53 1.380 . S
C54 C55 1.347 . S
C54 H77 0.931 . S
C55 C54 1.347 . S
C55 C56 1.369 . S
C56 C55 1.369 . S
C56 C57 1.408 . S
C56 H78 0.930 . S
C57 C52 1.348 . S
C57 C56 1.408 . S
C57 H79 0.930 . S
C58 O68 1.281 1_545 S
C58 O69 1.254 . S
C59 O70 1.236 . S
C59 O71 1.266 . S
O60 Tb40 2.484 . S
O60 C42 1.248 . S
O61 Tb40 2.440 . S
O61 C42 1.266 . S
O62 Tb40 2.658 1_545 S
O62 Tb41 2.325 . S
O62 C49 1.280 1_545 S
O63 Tb40 2.409 . S
O63 C49 1.256 . S
O64 Tb40 2.378 . S
O64 C50 1.236 . S
O65 Tb41 2.341 1_565 S
O65 C50 1.266 . S
O66 Tb41 2.484 . S
O66 C51 1.248 . S
O67 Tb41 2.440 . S
O67 C51 1.266 . S
O68 Tb40 2.325 . S
O68 Tb41 2.658 1_565 S
O68 C58 1.281 1_565 S
O69 Tb41 2.409 . S
O69 C58 1.254 . S
O70 Tb41 2.378 . S
O70 C59 1.236 . S
O71 Tb40 2.341 1_545 S
O71 C59 1.266 . S
H72 C44 0.929 . S
H73 C45 0.931 . S
H74 C47 0.930 . S
H75 C48 0.930 . S
H76 C53 0.929 . S
H77 C54 0.931 . S
H78 C56 0.930 . S
H79 C57 0.930 . S
Tb80 C82 2.809 . S
Tb80 O100 2.484 1_556 S
Tb80 O101 2.440 . S
Tb80 O102 2.658 . S
Tb80 O103 2.409 . S
Tb80 O104 2.378 . S
Tb80 O108 2.325 1_556 S
Tb80 O111 2.341 . S
Tb81 C91 2.809 . S
Tb81 O102 2.325 . S
Tb81 O105 2.341 . S
Tb81 O106 2.484 . S
Tb81 O107 2.440 1_556 S
Tb81 O108 2.658 1_556 S
Tb81 O109 2.409 1_556 S
Tb81 O110 2.378 . S
C82 Tb80 2.809 . S
C82 C83 1.514 . S
C82 O100 1.248 1_556 S
C82 O101 1.266 . S
C83 C82 1.514 . S
C83 C84 1.359 1_556 S
C83 C88 1.348 . S
C84 C83 1.359 1_554 S
C84 C85 1.380 . S
C84 H112 0.929 . S
C85 C84 1.380 . S
C85 C86 1.347 1_554 S
C85 H113 0.931 . S
C86 C85 1.347 1_556 S
C86 C87 1.369 . S
C87 C86 1.369 . S
C87 C88 1.408 . S
C87 H114 0.930 . S
C88 C83 1.348 . S
C88 C87 1.408 . S
C88 H115 0.930 . S
C89 O102 1.281 . S
C89 O103 1.254 . S
C90 O104 1.236 . S
C90 O105 1.266 . S
C91 Tb81 2.809 . S
C91 C92 1.514 . S
C91 O106 1.248 . S
C91 O107 1.266 1_556 S
C92 C91 1.514 . S
C92 C93 1.359 . S
C92 C97 1.348 . S
C93 C92 1.359 . S
C93 C94 1.380 . S
C93 H116 0.929 . S
C94 C93 1.380 . S
C94 C95 1.347 . S
C94 H117 0.931 . S
C95 C94 1.347 . S
C95 C96 1.369 . S
C96 C95 1.369 . S
C96 C97 1.408 . S
C96 H118 0.930 1_556 S
C97 C92 1.348 . S
C97 C96 1.408 . S
C97 H119 0.930 1_556 S
C98 O108 1.281 . S
C98 O109 1.254 . S
C99 O110 1.236 . S
C99 O111 1.266 . S
O100 Tb80 2.484 1_554 S
O100 C82 1.248 1_554 S
O101 Tb80 2.440 . S
O101 C82 1.266 . S
O102 Tb80 2.658 . S
O102 Tb81 2.325 . S
O102 C89 1.281 . S
O103 Tb80 2.409 . S
O103 C89 1.254 . S
O104 Tb80 2.378 . S
O104 C90 1.236 . S
O105 Tb81 2.341 . S
O105 C90 1.266 . S
O106 Tb81 2.484 . S
O106 C91 1.248 . S
O107 Tb81 2.440 1_554 S
O107 C91 1.266 1_554 S
O108 Tb80 2.325 1_554 S
O108 Tb81 2.658 1_554 S
O108 C98 1.281 . S
O109 Tb81 2.409 1_554 S
O109 C98 1.254 . S
O110 Tb81 2.378 . S
O110 C99 1.236 . S
O111 Tb80 2.341 . S
O111 C99 1.266 . S
H112 C84 0.929 . S
H113 C85 0.931 . S
H114 C87 0.930 . S
H115 C88 0.930 . S
H116 C93 0.929 . S
H117 C94 0.931 . S
H118 C96 0.930 1_554 S
H119 C97 0.930 1_554 S
C10 C86 2.021 1_554 S
C59 C15 3.040 . S
C46 C90 2.021 . S
C95 C19 3.041 1_556 S
C50 C6 2.021 . S
C99 C55 3.040 . S
C9 C18 0.642 1_455 S
C49 C58 0.641 1_564 S
C89 C98 0.642 . S
