# Generated by pormake.
# Topology pcu, (6)-cn, num edge types: 1
# Building blocks:
#     Node 0, Type 0, BuildingBlock: CUWYAW_clean_sbu_0, # of connection points: 6
#     Edge 1, Type (0, 0), BuildingBlock: UVAHIK_clean_linker_0, # of connection points: 2
#     Edge 2, Type (0, 0), BuildingBlock: UVAHIK_clean_linker_0, # of connection points: 2
#     Edge 3, Type (0, 0), BuildingBlock: UVAHIK_clean_linker_0, # of connection points: 2
# Relax obj value: 0.000
# Max RMSD: 0.000
# Mean RMSD: 0.000
data_MOF--net-pcu--node1-CUWYAW_clean_sbu_0--edge1-UVAHIK_clean_linker_0
_symmetry_space_group_name_H-M    P1
_symmetry_Int_Tables_number       1
_symmetry_cell_setting            triclinic
loop_
_symmetry_equiv_pos_as_xyz
'x, y, z'
_cell_length_a     29.891254
_cell_length_b     20.068588
_cell_length_c     18.797723
_cell_angle_alpha  91.115748
_cell_angle_beta   99.795399
_cell_angle_gamma 123.33168
loop_
_atom_site_label
_atom_site_type_symbol
_atom_site_fract_x
_atom_site_fract_y
_atom_site_fract_z
_atom_type_partial_charge
C0 C 0.17888 0.09514 0.97193 0.0
Eu1 Eu 0.08493 0.03859 1.00827 0.0
C2 C 0.2207 0.0769 0.97639 0.0
C3 C 0.22453 0.0282 0.0263 0.0
C4 C 0.26596 0.01418 0.03118 0.0
C5 C 0.30421 0.04846 0.98608 0.0
C6 C 0.29927 0.09588 0.93523 0.0
C7 C 0.25801 0.10997 0.93057 0.0
C8 C 0.06648 0.02944 0.1451 0.0
C9 C 1.0202 0.84414 1.01229 0.0
C10 C 0.86985 0.8827 0.05274 0.0
Eu11 Eu 0.96399 0.93947 0.0169 0.0
C12 C 0.82809 0.90106 0.04839 0.0
C13 C 0.82428 0.94983 0.99854 0.0
C14 C 0.78289 0.96391 0.99374 0.0
C15 C 0.74464 0.92963 0.03885 0.0
C16 C 0.74957 0.88215 0.08965 0.0
C17 C 0.7908 0.868 0.09423 0.0
C18 C 0.98281 0.9488 0.88014 0.0
C19 C 0.02875 0.13394 0.01314 0.0
O20 O 0.13145 0.04449 0.92789 0.0
O21 O 0.17402 0.11956 0.03345 0.0
O22 O 0.1071 0.09265 0.12615 0.0
O23 O 0.04014 0.97276 0.09298 0.0
O24 O 0.06096 0.90949 0.99286 0.0
O25 O 0.98067 0.84406 0.0349 0.0
O26 O 0.91719 0.93298 0.09711 0.0
O27 O 0.87488 0.85875 0.99113 0.0
O28 O 0.94223 0.88541 0.89898 0.0
O29 O 1.00875 0.00533 0.93234 0.0
O30 O 0.988 0.06858 0.03257 0.0
O31 O 0.06824 0.13402 0.99041 0.0
H32 H 0.19591 0.00184 0.06201 0.0
H33 H 0.26869 0.97791 0.07135 0.0
H34 H 0.32717 0.12192 0.89861 0.0
H35 H 0.25543 0.14721 0.89132 0.0
H36 H 0.85289 0.9762 0.96282 0.0
H37 H 0.78017 0.00023 0.95361 0.0
H38 H 0.72168 0.8561 0.12627 0.0
H39 H 0.79335 0.8307 0.13343 0.0
C40 C 0.09035 0.08735 0.27545 0.0
C41 C 0.05697 0.02158 0.21996 0.0
C42 C 0.08219 0.07965 0.34673 0.0
C43 C 1.02065 0.92736 0.47039 0.0
H44 H 0.03209 0.09996 0.58659 0.0
C45 C 0.95936 0.89116 0.74984 0.0
C46 C 0.99253 0.95688 0.80539 0.0
C47 C 0.96769 0.89902 0.67865 0.0
C48 C 0.0294 0.05158 0.55521 0.0
H49 H 0.9885 0.89643 0.19507 0.0
H50 H 0.97379 0.88304 0.31936 0.0
H51 H 0.04487 0.11371 0.46174 0.0
H52 H 0.0608 0.08214 0.83051 0.0
H53 H 0.07584 0.09582 0.70636 0.0
H54 H 1.00519 0.86523 0.56385 0.0
C55 C 1.00679 0.94032 0.30816 0.0
C56 C 0.03669 0.05944 0.48356 0.0
C57 C 1.01496 0.94809 0.23687 0.0
C58 C 0.03451 0.03051 0.78865 0.0
C59 C 0.04286 0.03844 0.71744 0.0
C60 C 1.01338 0.9195 0.54205 0.0
C61 C 0.04045 0.00594 0.36407 0.0
C62 C 0.03238 -0.00258 0.44023 0.0
C63 C 1.00941 0.97285 0.66146 0.0
C64 C 1.01764 0.9815 0.58537 0.0
H65 H 0.12309 0.1447 0.26393 0.0
H66 H 0.10926 0.13112 0.38854 0.0
H67 H 1.01794 0.87897 0.439 0.0
H68 H 0.92664 0.8337 0.76123 0.0
H69 H 0.94075 0.84757 0.63679 0.0
C70 C 0.4023 0.09916 0.98619 0.0
C71 C 0.34952 0.03592 0.99241 0.0
C72 C 0.44479 0.08764 0.9914 0.0
C73 C 0.47122 0.92825 0.97604 0.0
H74 H 0.61835 0.0974 0.07859 0.0
C75 C 0.64656 0.87895 0.03878 0.0
C76 C 0.69934 0.94219 0.03256 0.0
C77 C 0.60408 0.89048 0.0336 0.0
C78 C 0.57767 0.04989 0.04897 0.0
H79 H 0.3004 0.9106 1.00891 0.0
H80 H 0.37479 0.891 0.01955 0.0
H81 H 0.54415 0.11688 0.07112 0.0
H82 H 0.74848 0.06752 0.0161 0.0
H83 H 0.6741 0.08714 1.00549 0.0
H84 H 0.50473 0.86126 0.9539 0.0
C85 C 0.38312 0.94937 1.00968 0.0
C86 C 0.53502 0.06104 0.04472 0.0
C87 C 0.34055 0.9609 1.00445 0.0
C88 C 0.70832 0.01722 0.02055 0.0
C89 C 0.66577 0.02876 0.01534 0.0
C90 C 0.51386 0.9171 0.9803 0.0
C91 C 0.43582 0.01259 1.00312 0.0
C92 C 0.4812 0.00039 1.00817 0.0
C93 C 0.61306 0.96555 0.02189 0.0
C94 C 0.56768 0.97775 0.01684 0.0
H95 H 0.41105 0.15809 0.97789 0.0
H96 H 0.4846 0.13749 0.98528 0.0
H97 H 0.43053 0.88073 0.94642 0.0
H98 H 0.63781 0.82001 0.04706 0.0
H99 H 0.56427 0.84064 0.03971 0.0
C100 C 0.06364 0.77083 0.99102 0.0
C101 C 1.02061 0.7708 1.01182 0.0
C102 C 0.06447 0.70197 0.99121 0.0
C103 C 0.97519 0.48192 0.98653 0.0
H104 H 0.11225 0.50296 0.06088 0.0
C105 C 0.98534 0.20726 0.03458 0.0
C106 C 0.02835 0.2073 0.01371 0.0
C107 C 0.98451 0.27613 0.03446 0.0
C108 C 0.07379 0.49619 0.03921 0.0
H109 H 0.94468 0.69827 0.04909 0.0
H110 H 0.94645 0.5783 0.04994 0.0
H111 H 0.11038 0.62291 0.0604 0.0
H112 H 0.10427 0.27986 0.97643 0.0
H113 H 0.10252 0.39985 0.97572 0.0
H114 H 0.93859 0.35521 0.96533 0.0
C115 C 0.9792 0.63137 0.03271 0.0
C116 C 0.07271 0.56487 0.03894 0.0
C117 C 0.97836 0.7003 0.0326 0.0
C118 C 0.0706 0.27783 0.99297 0.0
C119 C 0.06978 0.34676 0.99293 0.0
C120 C 0.97627 0.41324 0.9868 0.0
C121 C 1.02231 0.63151 1.01213 0.0
C122 C 1.0234 0.55849 0.01258 0.0
C123 C 0.02667 0.3466 0.01355 0.0
C124 C 0.02558 0.41962 0.01315 0.0
H125 H 0.09683 0.82405 0.97457 0.0
H126 H 0.09788 0.70367 0.97415 0.0
H127 H 0.93672 0.47515 0.96485 0.0
H128 H 0.95215 0.15402 0.051 0.0
H129 H 0.95111 0.27442 0.05155 0.0
loop_
_geom_bond_atom_site_label_1
_geom_bond_atom_site_label_2
_geom_bond_distance
_geom_bond_site_symmetry_2
_ccdc_geom_bond_type
C0 Eu1 2.835 . S
C0 C2 1.500 . S
C0 O20 1.257 1_554 S
C0 O21 1.260 . S
Eu1 C0 2.835 . S
Eu1 O20 2.473 1_554 S
Eu1 O21 2.480 . S
Eu1 O22 2.430 . S
Eu1 O23 2.670 1_455 S
Eu1 O24 2.394 1_545 S
Eu1 O29 2.355 1_544 S
Eu1 O31 2.374 . S
C2 C0 1.500 . S
C2 C3 1.377 . S
C2 C7 1.377 1_544 S
C3 C2 1.377 . S
C3 C4 1.395 . S
C3 H32 0.931 . S
C4 C3 1.395 . S
C4 C5 1.388 . S
C4 H33 0.931 . S
C5 C4 1.388 . S
C5 C6 1.396 1_544 S
C6 C5 1.396 1_566 S
C6 C7 1.378 . S
C6 H34 0.931 . S
C7 C2 1.377 1_566 S
C7 C6 1.378 . S
C7 H35 0.931 . S
C8 O22 1.259 . S
C8 O23 1.270 1_455 S
C9 O24 1.251 1_655 S
C9 O25 1.251 1_554 S
C10 Eu11 2.835 . S
C10 C12 1.500 . S
C10 O26 1.257 1_556 S
C10 O27 1.260 . S
Eu11 C10 2.835 . S
Eu11 O23 2.355 1_566 S
Eu11 O25 2.374 . S
Eu11 O26 2.473 1_556 S
Eu11 O27 2.480 . S
Eu11 O28 2.430 . S
Eu11 O29 2.670 1_655 S
Eu11 O30 2.394 1_565 S
C12 C10 1.500 . S
C12 C13 1.377 . S
C12 C17 1.377 1_566 S
C13 C12 1.377 . S
C13 C14 1.395 . S
C13 H36 0.931 . S
C14 C13 1.395 . S
C14 C15 1.386 . S
C14 H37 0.931 . S
C15 C14 1.386 . S
C15 C16 1.395 1_566 S
C16 C15 1.395 1_544 S
C16 C17 1.378 . S
C16 H38 0.931 . S
C17 C12 1.377 1_544 S
C17 C16 1.378 . S
C17 H39 0.931 . S
C18 O28 1.259 . S
C18 O29 1.270 1_655 S
C19 O30 1.251 1_455 S
C19 O31 1.251 1_556 S
O20 C0 1.257 1_556 S
O20 Eu1 2.473 1_556 S
O21 C0 1.260 . S
O21 Eu1 2.480 . S
O22 Eu1 2.430 . S
O22 C8 1.259 . S
O23 Eu1 2.670 1_655 S
O23 C8 1.270 1_655 S
O23 Eu11 2.355 1_544 S
O24 Eu1 2.394 1_565 S
O24 C9 1.251 1_455 S
O25 C9 1.251 1_556 S
O25 Eu11 2.374 . S
O26 C10 1.257 1_554 S
O26 Eu11 2.473 1_554 S
O27 C10 1.260 . S
O27 Eu11 2.480 . S
O28 Eu11 2.430 . S
O28 C18 1.259 . S
O29 Eu1 2.355 1_566 S
O29 Eu11 2.670 1_455 S
O29 C18 1.270 1_455 S
O30 Eu11 2.394 1_545 S
O30 C19 1.251 1_655 S
O31 Eu1 2.374 . S
O31 C19 1.251 1_554 S
H32 C3 0.931 . S
H33 C4 0.931 . S
H34 C6 0.931 . S
H35 C7 0.931 . S
H36 C13 0.931 . S
H37 C14 0.931 . S
H38 C16 0.931 . S
H39 C17 0.931 . S
C40 C41 1.349 1_655 S
C40 C42 1.327 . S
C40 H65 0.950 . S
C41 C40 1.349 1_455 S
C41 C57 1.349 1_545 S
C42 C40 1.327 . S
C42 C61 1.429 1_655 S
C42 H66 0.950 . S
C43 C60 1.574 . S
C43 C62 1.368 1_565 S
C43 H67 0.949 . S
H44 C48 0.949 . S
C45 C46 1.349 1_565 S
C45 C47 1.327 . S
C45 H68 0.950 . S
C46 C45 1.349 1_545 S
C46 C58 1.349 1_455 S
C47 C45 1.327 . S
C47 C63 1.429 1_565 S
C47 H69 0.950 . S
C48 H44 0.949 . S
C48 C56 1.574 . S
C48 C64 1.368 1_655 S
H49 C57 0.950 . S
H50 C55 0.950 . S
H51 C56 0.949 . S
H52 C58 0.950 . S
H53 C59 0.950 . S
H54 C60 0.949 . S
C55 H50 0.950 . S
C55 C57 1.327 . S
C55 C61 1.429 1_565 S
C56 C48 1.574 . S
C56 H51 0.949 . S
C56 C62 1.368 1_655 S
C57 C41 1.349 1_565 S
C57 H49 0.950 . S
C57 C55 1.327 . S
C58 C46 1.349 1_655 S
C58 H52 0.950 . S
C58 C59 1.327 . S
C59 H53 0.950 . S
C59 C58 1.327 . S
C59 C63 1.429 1_655 S
C60 C43 1.574 . S
C60 H54 0.949 . S
C60 C64 1.368 1_565 S
C61 C42 1.429 1_455 S
C61 C55 1.429 1_545 S
C61 C62 1.523 . S
C62 C43 1.368 1_545 S
C62 C56 1.368 1_455 S
C62 C61 1.523 . S
C63 C47 1.429 1_545 S
C63 C59 1.429 1_455 S
C63 C64 1.523 . S
C64 C48 1.368 1_455 S
C64 C60 1.368 1_545 S
C64 C63 1.523 . S
H65 C40 0.950 . S
H66 C42 0.950 . S
H67 C43 0.949 . S
H68 C45 0.950 . S
H69 C47 0.950 . S
C70 C71 1.349 1_556 S
C70 C72 1.327 . S
C70 H95 0.950 . S
C71 C70 1.349 1_554 S
C71 C87 1.349 1_545 S
C72 C70 1.327 . S
C72 C91 1.429 1_556 S
C72 H96 0.950 . S
C73 C90 1.574 . S
C73 C92 1.368 1_565 S
C73 H97 0.949 . S
H74 C78 0.949 . S
C75 C76 1.349 1_565 S
C75 C77 1.327 . S
C75 H98 0.950 . S
C76 C75 1.349 1_545 S
C76 C88 1.349 1_554 S
C77 C75 1.327 . S
C77 C93 1.429 1_565 S
C77 H99 0.950 . S
C78 H74 0.949 . S
C78 C86 1.574 . S
C78 C94 1.368 1_556 S
H79 C87 0.950 . S
H80 C85 0.950 . S
H81 C86 0.949 . S
H82 C88 0.950 . S
H83 C89 0.950 . S
H84 C90 0.949 . S
C85 H80 0.950 . S
C85 C87 1.327 . S
C85 C91 1.429 1_565 S
C86 C78 1.574 . S
C86 H81 0.949 . S
C86 C92 1.368 1_556 S
C87 C71 1.349 1_565 S
C87 H79 0.950 . S
C87 C85 1.327 . S
C88 C76 1.349 1_556 S
C88 H82 0.950 . S
C88 C89 1.327 . S
C89 H83 0.950 . S
C89 C88 1.327 . S
C89 C93 1.429 1_556 S
C90 C73 1.574 . S
C90 H84 0.949 . S
C90 C94 1.368 1_565 S
C91 C72 1.429 1_554 S
C91 C85 1.429 1_545 S
C91 C92 1.523 . S
C92 C73 1.368 1_545 S
C92 C86 1.368 1_554 S
C92 C91 1.523 . S
C93 C77 1.429 1_545 S
C93 C89 1.429 1_554 S
C93 C94 1.523 . S
C94 C78 1.368 1_554 S
C94 C90 1.368 1_545 S
C94 C93 1.523 . S
H95 C70 0.950 . S
H96 C72 0.950 . S
H97 C73 0.949 . S
H98 C75 0.950 . S
H99 C77 0.950 . S
C100 C101 1.349 1_556 S
C100 C102 1.327 . S
C100 H125 0.950 . S
C101 C100 1.349 1_554 S
C101 C117 1.349 1_455 S
C102 C100 1.327 . S
C102 C121 1.429 1_556 S
C102 H126 0.950 . S
C103 C120 1.574 . S
C103 C122 1.368 1_655 S
C103 H127 0.949 . S
H104 C108 0.949 . S
C105 C106 1.349 1_655 S
C105 C107 1.327 . S
C105 H128 0.950 . S
C106 C105 1.349 1_455 S
C106 C118 1.349 1_554 S
C107 C105 1.327 . S
C107 C123 1.429 1_655 S
C107 H129 0.950 . S
C108 H104 0.949 . S
C108 C116 1.574 . S
C108 C124 1.368 1_556 S
H109 C117 0.950 . S
H110 C115 0.950 . S
H111 C116 0.949 . S
H112 C118 0.950 . S
H113 C119 0.950 . S
H114 C120 0.949 . S
C115 H110 0.950 . S
C115 C117 1.327 . S
C115 C121 1.429 1_655 S
C116 C108 1.574 . S
C116 H111 0.949 . S
C116 C122 1.368 1_556 S
C117 C101 1.349 1_655 S
C117 H109 0.950 . S
C117 C115 1.327 . S
C118 C106 1.349 1_556 S
C118 H112 0.950 . S
C118 C119 1.327 . S
C119 H113 0.950 . S
C119 C118 1.327 . S
C119 C123 1.429 1_556 S
C120 C103 1.574 . S
C120 H114 0.949 . S
C120 C124 1.368 1_655 S
C121 C102 1.429 1_554 S
C121 C115 1.429 1_455 S
C121 C122 1.523 . S
C122 C103 1.368 1_455 S
C122 C116 1.368 1_554 S
C122 C121 1.523 . S
C123 C107 1.429 1_455 S
C123 C119 1.429 1_554 S
C123 C124 1.523 . S
C124 C108 1.368 1_554 S
C124 C120 1.368 1_455 S
C124 C123 1.523 . S
H125 C100 0.950 . S
H126 C102 0.950 . S
H127 C103 0.949 . S
H128 C105 0.950 . S
H129 C107 0.950 . S
C41 C8 1.453 . S
C46 C18 1.453 1_445 S
C71 C5 1.493 . S
C76 C15 1.496 1_544 S
C101 C9 1.488 1_455 S
C106 C19 1.488 1_554 S
