# Generated by pormake.
# Topology uni, (4)-cn, num edge types: 1
# Building blocks:
#     Node 0, Type 0, BuildingBlock: TATPOV_clean_sbu_0, # of connection points: 4
#     Node 1, Type 0, BuildingBlock: TATPOV_clean_sbu_0, # of connection points: 4
#     Node 2, Type 0, BuildingBlock: TATPOV_clean_sbu_0, # of connection points: 4
#     Node 3, Type 0, BuildingBlock: TATPOV_clean_sbu_0, # of connection points: 4
#     Node 4, Type 0, BuildingBlock: TATPOV_clean_sbu_0, # of connection points: 4
#     Node 5, Type 0, BuildingBlock: TATPOV_clean_sbu_0, # of connection points: 4
#     Edge 6, Type (0, 0), BuildingBlock: OJICUG_clean_linker_0, # of connection points: 2
#     Edge 7, Type (0, 0), BuildingBlock: OJICUG_clean_linker_0, # of connection points: 2
#     Edge 8, Type (0, 0), BuildingBlock: OJICUG_clean_linker_0, # of connection points: 2
#     Edge 9, Type (0, 0), BuildingBlock: OJICUG_clean_linker_0, # of connection points: 2
#     Edge 10, Type (0, 0), BuildingBlock: OJICUG_clean_linker_0, # of connection points: 2
#     Edge 11, Type (0, 0), BuildingBlock: OJICUG_clean_linker_0, # of connection points: 2
#     Edge 12, Type (0, 0), BuildingBlock: OJICUG_clean_linker_0, # of connection points: 2
#     Edge 13, Type (0, 0), BuildingBlock: OJICUG_clean_linker_0, # of connection points: 2
#     Edge 14, Type (0, 0), BuildingBlock: OJICUG_clean_linker_0, # of connection points: 2
#     Edge 15, Type (0, 0), BuildingBlock: OJICUG_clean_linker_0, # of connection points: 2
#     Edge 16, Type (0, 0), BuildingBlock: OJICUG_clean_linker_0, # of connection points: 2
#     Edge 17, Type (0, 0), BuildingBlock: OJICUG_clean_linker_0, # of connection points: 2
# Relax obj value: 0.033
# Max RMSD: 0.066
# Mean RMSD: 0.066
data_MOF--net-uni--node1-TATPOV_clean_sbu_0--edge1-OJICUG_clean_linker_0
_symmetry_space_group_name_H-M    P1
_symmetry_Int_Tables_number       1
_symmetry_cell_setting            triclinic
loop_
_symmetry_equiv_pos_as_xyz
'x, y, z'
_cell_length_a     28.367483
_cell_length_b     28.54953
_cell_length_c     17.768089
_cell_angle_alpha  90.213884
_cell_angle_beta   90.470257
_cell_angle_gamma 119.57702
loop_
_atom_site_label
_atom_site_type_symbol
_atom_site_fract_x
_atom_site_fract_y
_atom_site_fract_z
_atom_type_partial_charge
Zn0 Zn 0.52236 0.90714 0.02054 0.0
Zn1 Zn 0.62471 0.99437 0.01858 0.0
O2 O 0.64254 0.935 0.04359 0.0
O3 O 0.56011 0.86507 0.05131 0.0
O4 O 0.69501 0.06355 0.01521 0.0
O5 O 0.51165 0.9214 0.91135 0.0
O6 O 0.59338 0.99227 0.91482 0.0
C7 C 0.61114 0.8853 0.05684 0.0
C8 C 0.5383 0.98988 0.12639 0.0
O9 O 0.58624 0.01172 0.10096 0.0
O10 O 0.50229 0.9445 0.10112 0.0
C11 C 0.73723 0.07401 -0.0216 0.0
O12 O 0.7392 0.03536 0.94066 0.0
C13 C 0.54905 0.9626 0.87982 0.0
Zn14 Zn 0.64981 0.53583 0.21195 0.0
Zn15 Zn 0.66494 0.63784 0.20798 0.0
O16 O 0.74233 0.65458 0.23436 0.0
O17 O 0.72887 0.5718 0.24409 0.0
O18 O 0.66542 0.70792 0.19765 0.0
O19 O 0.62561 0.52347 0.10263 0.0
O20 O 0.63511 0.60466 0.10525 0.0
C21 C 0.76003 0.62232 0.24903 0.0
C22 C 0.58336 0.55398 0.31606 0.0
O23 O 0.60967 0.60182 0.29126 0.0
O24 O 0.59242 0.51769 0.29064 0.0
C25 C 0.68986 0.74197 0.14616 0.0
O26 O 0.72297 0.73548 0.10162 0.0
C27 C 0.62113 0.56063 0.07055 0.0
Zn28 Zn 0.14315 0.63622 0.39174 0.0
Zn29 Zn 0.05809 0.65555 0.38722 0.0
O30 O 0.11934 0.73004 0.41936 0.0
O31 O 0.18682 0.71277 0.43142 0.0
O32 O 0.99013 0.66033 0.37834 0.0
O33 O 0.13254 0.61649 0.28084 0.0
O34 O 0.06136 0.62788 0.28307 0.0
C35 C 0.16829 0.74492 0.43757 0.0
C36 C 0.05695 0.5693 0.49087 0.0
O37 O 0.03701 0.59797 0.46737 0.0
O38 O 0.10183 0.57676 0.466 0.0
C39 C 0.98125 0.68845 0.33105 0.0
O40 O 0.02081 0.72229 0.28805 0.0
C41 C 0.09144 0.61386 0.24816 0.0
Zn42 Zn 0.52081 0.1412 0.52088 0.0
Zn43 Zn 0.41648 0.05695 0.51647 0.0
O44 O 0.40433 0.12008 0.54304 0.0
O45 O 0.48827 0.18753 0.55163 0.0
O46 O 0.34197 0.99223 0.5033 0.0
O47 O 0.5308 0.12712 0.41196 0.0
O48 O 0.44818 0.05781 0.4141 0.0
C49 C 0.43766 0.1695 0.55687 0.0
C50 C 0.5013 0.05661 0.62519 0.0
O51 O 0.45306 0.03603 0.59943 0.0
O52 O 0.53802 0.10137 0.60068 0.0
C53 C 0.32159 0.95486 0.55153 0.0
O54 O 0.34684 0.96086 0.61612 0.0
C55 C 0.49248 0.08618 0.37985 0.0
Zn56 Zn 0.4115 0.52968 0.70923 0.0
Zn57 Zn 0.3985 0.42823 0.7029 0.0
O58 O 0.32106 0.41021 0.72757 0.0
O59 O 0.33208 0.49207 0.73858 0.0
O60 O 0.39838 0.35844 0.69164 0.0
O61 O 0.43627 0.54243 0.60066 0.0
O62 O 0.42771 0.46159 0.60142 0.0
C63 C 0.30207 0.44136 0.74215 0.0
C64 C 0.47906 0.51243 0.81441 0.0
O65 O 0.45372 0.46475 0.78765 0.0
O66 O 0.4689 0.54819 0.79003 0.0
C67 C 0.36933 0.3213 0.64486 0.0
O68 O 0.33194 0.3249 0.60527 0.0
C69 C 0.44125 0.50565 0.56794 0.0
Zn70 Zn 0.91204 0.40664 0.88765 0.0
Zn71 Zn 0.99974 0.39099 0.88346 0.0
O72 O 0.94025 0.31446 0.90759 0.0
O73 O 0.8702 0.32782 0.91668 0.0
O74 O 0.06965 0.39017 0.87477 0.0
O75 O 0.92387 0.43008 0.7787 0.0
O76 O 0.99514 0.41878 0.78057 0.0
C77 C 0.89022 0.29678 0.92074 0.0
C78 C 0.99647 0.4732 -0.00737 0.0
O79 O 0.01831 0.44689 0.96684 0.0
O80 O 0.95063 0.46392 -0.03214 0.0
C81 C 0.07983 0.36467 0.82464 0.0
O82 O 0.04069 0.33085 0.77963 0.0
C83 C 0.9647 0.43284 0.74617 0.0
C84 C 0.47251 0.99351 0.21592 0.0
C85 C 0.52493 0.01745 0.18607 0.0
H86 H 0.42076 0.99708 0.29964 0.0
C87 C 0.56487 0.06754 0.21495 0.0
H88 H 0.44063 0.95527 0.19432 0.0
C89 C 0.55341 0.09174 0.27514 0.0
C90 C 0.5018 0.0663 0.30772 0.0
H91 H 0.60552 0.08743 0.19254 0.0
H92 H 0.5857 0.12923 0.29807 0.0
C93 C 0.46104 0.0177 0.27606 0.0
C94 C 0.53347 0.58078 0.40682 0.0
C95 C 0.54246 0.54068 0.37521 0.0
H96 H 0.49348 0.601 0.49201 0.0
C97 C 0.51278 0.48773 0.40184 0.0
H98 H 0.55525 0.62186 0.38694 0.0
C99 C 0.47714 0.47572 0.46152 0.0
C100 C 0.47044 0.5164 0.49603 0.0
H101 H 0.51814 0.4557 0.37804 0.0
H102 H 0.4565 0.43488 0.48249 0.0
C103 C 0.49775 0.56875 0.46667 0.0
C104 C 0.02827 0.46386 0.63812 0.0
C105 C 0.98208 0.45981 0.67284 0.0
H106 H 0.08814 0.50161 0.55345 0.0
C107 C 0.95733 0.48769 0.64205 0.0
H108 H 0.04809 0.44256 0.66011 0.0
C109 C 0.98054 0.52186 0.58094 0.0
C110 C 0.02881 0.52864 0.54951 0.0
H111 H 0.92162 0.48529 0.66739 0.0
H112 H 0.96175 0.54446 0.56028 0.0
C113 C 0.0514 0.49793 0.57711 0.0
C114 C 0.48618 0.95641 0.77549 0.0
C115 C 0.53862 0.98119 0.80726 0.0
H116 H 0.43311 0.96086 0.69316 0.0
C117 C 0.57957 0.0283 0.77431 0.0
H118 H 0.4537 0.92006 0.79948 0.0
C119 C 0.56769 0.05187 0.71384 0.0
C120 C 0.51458 0.02886 0.68484 0.0
H121 H 0.62049 0.04831 0.7971 0.0
H122 H 0.59991 0.08905 0.69137 0.0
C123 C 0.47427 0.98004 0.71487 0.0
C124 C 0.56587 0.49834 0.96571 0.0
C125 C 0.59202 0.55028 -0.00224 0.0
H126 H 0.50935 0.44548 0.8828 0.0
C127 C 0.58422 0.59069 0.96487 0.0
H128 H 0.57105 0.46631 -0.01032 0.0
C129 C 0.54858 0.57867 0.90407 0.0
C130 C 0.52005 0.52602 0.87473 0.0
H131 H 0.60394 0.63123 -0.01205 0.0
H132 H 0.54229 0.6104 0.88154 0.0
C133 C 0.5302 0.48631 0.90477 0.0
C134 C 0.07441 0.52379 0.08212 0.0
C135 C 0.02436 0.51426 0.05225 0.0
H136 H 0.1357 0.56383 0.16676 0.0
C137 C 1.00052 0.54342 0.08121 0.0
H138 H 0.09423 0.50252 0.06036 0.0
C139 C 0.02451 0.57889 0.14175 0.0
C140 C 0.0728 0.58586 0.17476 0.0
H141 H 0.96239 0.53765 0.05874 0.0
H142 H 0.00382 0.59894 0.16478 0.0
C143 C 0.09843 0.55929 0.14276 0.0
C144 C 0.62214 0.77329 0.15228 0.0
C145 C 0.67284 0.78196 0.12806 0.0
H146 H 0.56278 0.79859 0.1475 0.0
C147 C 0.70438 0.82638 0.08203 0.0
H148 H 0.59663 0.73926 0.18735 0.0
C149 C 0.68514 0.8611 0.06006 0.0
C150 C 0.6335 0.85096 0.08214 0.0
H151 H 0.74356 0.83395 0.06245 0.0
H152 H 0.7099 0.89486 0.02413 0.0
C153 C 0.60247 0.80701 0.1289 0.0
C154 C 0.88182 0.62741 0.34347 0.0
C155 C 0.92473 0.67562 0.31602 0.0
H156 H 0.79657 0.57286 0.34294 0.0
C157 C 0.91278 0.70838 0.26971 0.0
H158 H 0.88943 0.60113 0.37919 0.0
C159 C 0.85893 0.69233 0.24974 0.0
C160 C 0.81654 0.64275 0.27439 0.0
H161 H 0.94502 0.74579 0.24782 0.0
H162 H 0.85066 0.71761 0.21286 0.0
C163 C 0.82852 0.61096 0.32229 0.0
C164 C 0.2033 0.8445 0.44255 0.0
C165 C 0.20344 0.79866 0.47049 0.0
H166 H 0.24164 0.93083 0.44601 0.0
C167 C 0.23906 0.80432 0.52959 0.0
H168 H 0.176 0.84094 0.39709 0.0
C169 C 0.27508 0.85507 0.55901 0.0
C170 C 0.27728 0.90135 0.52844 0.0
H171 H 0.23943 0.76941 0.55262 0.0
H172 H 0.30302 0.85816 0.60324 0.0
C173 C 0.24065 0.89569 0.47055 0.0
C174 C 0.43539 0.28778 0.64823 0.0
C175 C 0.38405 0.27959 0.62688 0.0
H176 H 0.49257 0.25988 0.64185 0.0
C177 C 0.34923 0.23351 0.58427 0.0
H178 H 0.46336 0.32296 0.68076 0.0
C179 C 0.3659 0.1967 0.56268 0.0
C180 C 0.41807 0.20619 0.58191 0.0
H181 H 0.30943 0.2262 0.56703 0.0
H182 H 0.33862 0.16171 0.52931 0.0
C183 C 0.45237 0.25182 0.6254 0.0
C184 C 0.15047 0.3494 0.76224 0.0
C185 C 0.13692 0.3809 0.80867 0.0
H186 H 0.21399 0.3435 0.70547 0.0
C187 C 0.17841 0.43089 0.83539 0.0
H188 H 0.1193 0.31073 0.74083 0.0
C189 C 0.23187 0.45 0.81381 0.0
C190 C 0.24542 0.41916 0.76633 0.0
H191 H 0.16944 0.45632 0.87097 0.0
H192 H 0.26268 0.48922 0.83418 0.0
C193 C 0.2045 0.36811 0.74199 0.0
C194 C 0.86558 0.19922 0.91797 0.0
C195 C 0.85442 0.23991 0.94088 0.0
H196 H 0.83683 0.11421 0.91138 0.0
C197 C 0.80692 0.22575 -0.01899 0.0
H198 H 0.90202 0.20912 0.88702 0.0
C199 C 0.77034 0.17202 -0.00411 0.0
C200 C 0.77987 0.13089 -0.03006 0.0
H201 H 0.79754 0.25626 0.00023 0.0
H202 H 0.73361 0.16277 0.02565 0.0
C203 C 0.82829 0.145 0.93183 0.0
loop_
_geom_bond_atom_site_label_1
_geom_bond_atom_site_label_2
_geom_bond_distance
_geom_bond_site_symmetry_2
_ccdc_geom_bond_type
Zn0 O3 2.031 . S
Zn0 O5 2.049 1_554 S
Zn0 O10 2.067 . S
Zn1 O2 1.962 1_545 S
Zn1 O4 1.986 1_554 S
Zn1 O6 1.996 1_554 S
Zn1 O9 1.943 . S
O2 Zn1 1.962 1_565 S
O2 C7 1.254 . S
O3 Zn0 2.031 . S
O3 C7 1.269 . S
O4 Zn1 1.986 1_556 S
O4 C11 1.262 1_556 S
O5 Zn0 2.049 1_556 S
O5 C13 1.260 1_565 S
O6 Zn1 1.996 1_556 S
O6 C13 1.257 . S
C7 O2 1.254 . S
C7 O3 1.269 . S
C8 O9 1.249 . S
C8 O10 1.270 1_545 S
O9 Zn1 1.943 . S
O9 C8 1.249 . S
O10 Zn0 2.067 . S
O10 C8 1.270 1_565 S
C11 O4 1.262 1_554 S
C11 O12 1.232 . S
O12 C11 1.232 . S
C13 O5 1.260 1_545 S
C13 O6 1.257 . S
Zn14 O17 2.031 . S
Zn14 O19 2.049 . S
Zn14 O24 2.067 . S
Zn15 O16 1.962 . S
Zn15 O18 1.986 . S
Zn15 O20 1.996 . S
Zn15 O23 1.943 . S
O16 Zn15 1.962 . S
O16 C21 1.254 . S
O17 Zn14 2.031 . S
O17 C21 1.269 . S
O18 Zn15 1.986 . S
O18 C25 1.262 . S
O19 Zn14 2.049 . S
O19 C27 1.260 . S
O20 Zn15 1.996 . S
O20 C27 1.257 . S
C21 O16 1.254 . S
C21 O17 1.269 . S
C22 O23 1.249 . S
C22 O24 1.270 . S
O23 Zn15 1.943 . S
O23 C22 1.249 . S
O24 Zn14 2.067 . S
O24 C22 1.270 . S
C25 O18 1.262 . S
C25 O26 1.232 . S
O26 C25 1.232 . S
C27 O19 1.260 . S
C27 O20 1.257 . S
Zn28 O31 2.031 . S
Zn28 O33 2.049 . S
Zn28 O38 2.067 . S
Zn29 O30 1.962 . S
Zn29 O32 1.986 1_455 S
Zn29 O34 1.996 . S
Zn29 O37 1.943 1_455 S
O30 Zn29 1.962 . S
O30 C35 1.254 . S
O31 Zn28 2.031 . S
O31 C35 1.269 . S
O32 Zn29 1.986 1_655 S
O32 C39 1.262 . S
O33 Zn28 2.049 . S
O33 C41 1.260 . S
O34 Zn29 1.996 . S
O34 C41 1.257 . S
C35 O30 1.254 . S
C35 O31 1.269 . S
C36 O37 1.249 1_455 S
C36 O38 1.270 . S
O37 Zn29 1.943 1_655 S
O37 C36 1.249 1_655 S
O38 Zn28 2.067 . S
O38 C36 1.270 . S
C39 O32 1.262 . S
C39 O40 1.232 . S
O40 C39 1.232 . S
C41 O33 1.260 . S
C41 O34 1.257 . S
Zn42 O45 2.031 . S
Zn42 O47 2.049 . S
Zn42 O52 2.067 . S
Zn43 O44 1.962 . S
Zn43 O46 1.986 1_545 S
Zn43 O48 1.996 . S
Zn43 O51 1.943 1_545 S
O44 Zn43 1.962 . S
O44 C49 1.254 . S
O45 Zn42 2.031 . S
O45 C49 1.269 . S
O46 Zn43 1.986 1_565 S
O46 C53 1.262 . S
O47 Zn42 2.049 . S
O47 C55 1.260 . S
O48 Zn43 1.996 . S
O48 C55 1.257 . S
C49 O44 1.254 . S
C49 O45 1.269 . S
C50 O51 1.249 1_545 S
C50 O52 1.270 . S
O51 Zn43 1.943 1_565 S
O51 C50 1.249 1_565 S
O52 Zn42 2.067 . S
O52 C50 1.270 . S
C53 O46 1.262 . S
C53 O54 1.232 . S
O54 C53 1.232 . S
C55 O47 1.260 . S
C55 O48 1.257 . S
Zn56 O59 2.031 . S
Zn56 O61 2.049 . S
Zn56 O66 2.067 . S
Zn57 O58 1.962 . S
Zn57 O60 1.986 . S
Zn57 O62 1.996 . S
Zn57 O65 1.943 . S
O58 Zn57 1.962 . S
O58 C63 1.254 . S
O59 Zn56 2.031 . S
O59 C63 1.269 . S
O60 Zn57 1.986 . S
O60 C67 1.262 . S
O61 Zn56 2.049 . S
O61 C69 1.260 . S
O62 Zn57 1.996 . S
O62 C69 1.257 . S
C63 O58 1.254 . S
C63 O59 1.269 . S
C64 O65 1.249 . S
C64 O66 1.270 . S
O65 Zn57 1.943 . S
O65 C64 1.249 . S
O66 Zn56 2.067 . S
O66 C64 1.270 . S
C67 O60 1.262 . S
C67 O68 1.232 . S
O68 C67 1.232 . S
C69 O61 1.260 . S
C69 O62 1.257 . S
Zn70 O73 2.031 . S
Zn70 O75 2.049 . S
Zn70 O80 2.067 . S
Zn71 O72 1.962 1_455 S
Zn71 O74 1.986 . S
Zn71 O76 1.996 . S
Zn71 O79 1.943 . S
O72 Zn71 1.962 1_655 S
O72 C77 1.254 . S
O73 Zn70 2.031 . S
O73 C77 1.269 . S
O74 Zn71 1.986 . S
O74 C81 1.262 . S
O75 Zn70 2.049 . S
O75 C83 1.260 1_655 S
O76 Zn71 1.996 . S
O76 C83 1.257 . S
C77 O72 1.254 . S
C77 O73 1.269 . S
C78 O79 1.249 1_554 S
C78 O80 1.270 1_454 S
O79 Zn71 1.943 . S
O79 C78 1.249 1_556 S
O80 Zn70 2.067 . S
O80 C78 1.270 1_656 S
C81 O74 1.262 . S
C81 O82 1.232 . S
O82 C81 1.232 . S
C83 O75 1.260 1_455 S
C83 O76 1.257 . S
C84 C85 1.387 1_565 S
C84 H88 0.950 . S
C84 C93 1.390 . S
C85 C84 1.387 1_545 S
C85 C87 1.387 . S
H86 C93 0.950 . S
C87 C85 1.387 . S
C87 C89 1.390 . S
C87 H91 0.950 . S
H88 C84 0.950 . S
C89 C87 1.390 . S
C89 C90 1.387 . S
C89 H92 0.950 . S
C90 C89 1.387 . S
C90 C93 1.387 1_545 S
H91 C87 0.950 . S
H92 C89 0.950 . S
C93 C84 1.390 . S
C93 H86 0.950 . S
C93 C90 1.387 1_565 S
C94 C95 1.387 . S
C94 H98 0.950 . S
C94 C103 1.390 . S
C95 C94 1.387 . S
C95 C97 1.387 . S
H96 C103 0.950 . S
C97 C95 1.387 . S
C97 C99 1.390 . S
C97 H101 0.950 . S
H98 C94 0.950 . S
C99 C97 1.390 . S
C99 C100 1.387 . S
C99 H102 0.950 . S
C100 C99 1.387 . S
C100 C103 1.387 . S
H101 C97 0.950 . S
H102 C99 0.950 . S
C103 C94 1.390 . S
C103 H96 0.950 . S
C103 C100 1.387 . S
C104 C105 1.387 . S
C104 H108 0.950 . S
C104 C113 1.390 . S
C105 C104 1.387 . S
C105 C107 1.387 1_455 S
H106 C113 0.950 . S
C107 C105 1.387 1_655 S
C107 C109 1.390 . S
C107 H111 0.950 . S
H108 C104 0.950 . S
C109 C107 1.390 . S
C109 C110 1.387 1_655 S
C109 H112 0.950 . S
C110 C109 1.387 1_455 S
C110 C113 1.387 . S
H111 C107 0.950 . S
H112 C109 0.950 . S
C113 C104 1.390 . S
C113 H106 0.950 . S
C113 C110 1.387 . S
C114 C115 1.387 1_565 S
C114 H118 0.950 . S
C114 C123 1.390 . S
C115 C114 1.387 1_545 S
C115 C117 1.387 . S
H116 C123 0.950 . S
C117 C115 1.387 . S
C117 C119 1.390 . S
C117 H121 0.950 . S
H118 C114 0.950 . S
C119 C117 1.390 . S
C119 C120 1.387 . S
C119 H122 0.950 . S
C120 C119 1.387 . S
C120 C123 1.387 1_545 S
H121 C117 0.950 . S
H122 C119 0.950 . S
C123 C114 1.390 . S
C123 H116 0.950 . S
C123 C120 1.387 1_565 S
C124 C125 1.387 . S
C124 H128 0.950 . S
C124 C133 1.390 1_554 S
C125 C124 1.387 . S
C125 C127 1.387 1_554 S
H126 C133 0.950 1_554 S
C127 C125 1.387 1_556 S
C127 C129 1.390 . S
C127 H131 0.950 . S
H128 C124 0.950 . S
C129 C127 1.390 . S
C129 C130 1.387 . S
C129 H132 0.950 . S
C130 C129 1.387 . S
C130 C133 1.387 . S
H131 C127 0.950 . S
H132 C129 0.950 . S
C133 C124 1.390 1_556 S
C133 H126 0.950 1_556 S
C133 C130 1.387 . S
C134 C135 1.387 . S
C134 H138 0.950 . S
C134 C143 1.390 . S
C135 C134 1.387 . S
C135 C137 1.387 1_455 S
H136 C143 0.950 . S
C137 C135 1.387 1_655 S
C137 C139 1.390 . S
C137 H141 0.950 . S
H138 C134 0.950 . S
C139 C137 1.390 . S
C139 C140 1.387 1_655 S
C139 H142 0.950 . S
C140 C139 1.387 1_455 S
C140 C143 1.387 . S
H141 C137 0.950 . S
H142 C139 0.950 . S
C143 C134 1.390 . S
C143 H136 0.950 . S
C143 C140 1.387 . S
C144 C145 1.387 . S
C144 H148 0.950 . S
C144 C153 1.390 . S
C145 C144 1.387 . S
C145 C147 1.387 . S
H146 C153 0.950 . S
C147 C145 1.387 . S
C147 C149 1.390 . S
C147 H151 0.950 . S
H148 C144 0.950 . S
C149 C147 1.390 . S
C149 C150 1.387 . S
C149 H152 0.950 . S
C150 C149 1.387 . S
C150 C153 1.387 . S
H151 C147 0.950 . S
H152 C149 0.950 . S
C153 C144 1.390 . S
C153 H146 0.950 . S
C153 C150 1.387 . S
C154 C155 1.387 . S
C154 H158 0.950 . S
C154 C163 1.390 . S
C155 C154 1.387 . S
C155 C157 1.387 . S
H156 C163 0.950 . S
C157 C155 1.387 . S
C157 C159 1.390 . S
C157 H161 0.950 . S
H158 C154 0.950 . S
C159 C157 1.390 . S
C159 C160 1.387 . S
C159 H162 0.950 . S
C160 C159 1.387 . S
C160 C163 1.387 . S
H161 C157 0.950 . S
H162 C159 0.950 . S
C163 C154 1.390 . S
C163 H156 0.950 . S
C163 C160 1.387 . S
C164 C165 1.387 . S
C164 H168 0.950 . S
C164 C173 1.390 . S
C165 C164 1.387 . S
C165 C167 1.387 . S
H166 C173 0.950 . S
C167 C165 1.387 . S
C167 C169 1.390 . S
C167 H171 0.950 . S
H168 C164 0.950 . S
C169 C167 1.390 . S
C169 C170 1.387 . S
C169 H172 0.950 . S
C170 C169 1.387 . S
C170 C173 1.387 . S
H171 C167 0.950 . S
H172 C169 0.950 . S
C173 C164 1.390 . S
C173 H166 0.950 . S
C173 C170 1.387 . S
C174 C175 1.387 . S
C174 H178 0.950 . S
C174 C183 1.390 . S
C175 C174 1.387 . S
C175 C177 1.387 . S
H176 C183 0.950 . S
C177 C175 1.387 . S
C177 C179 1.390 . S
C177 H181 0.950 . S
H178 C174 0.950 . S
C179 C177 1.390 . S
C179 C180 1.387 . S
C179 H182 0.950 . S
C180 C179 1.387 . S
C180 C183 1.387 . S
H181 C177 0.950 . S
H182 C179 0.950 . S
C183 C174 1.390 . S
C183 H176 0.950 . S
C183 C180 1.387 . S
C184 C185 1.387 . S
C184 H188 0.950 . S
C184 C193 1.390 . S
C185 C184 1.387 . S
C185 C187 1.387 . S
H186 C193 0.950 . S
C187 C185 1.387 . S
C187 C189 1.390 . S
C187 H191 0.950 . S
H188 C184 0.950 . S
C189 C187 1.390 . S
C189 C190 1.387 . S
C189 H192 0.950 . S
C190 C189 1.387 . S
C190 C193 1.387 . S
H191 C187 0.950 . S
H192 C189 0.950 . S
C193 C184 1.390 . S
C193 H186 0.950 . S
C193 C190 1.387 . S
C194 C195 1.387 1_554 S
C194 H198 0.950 . S
C194 C203 1.390 . S
C195 C194 1.387 1_556 S
C195 C197 1.387 . S
H196 C203 0.950 . S
C197 C195 1.387 . S
C197 C199 1.390 . S
C197 H201 0.950 . S
H198 C194 0.950 . S
C199 C197 1.390 . S
C199 C200 1.387 1_556 S
C199 H202 0.950 . S
C200 C199 1.387 1_554 S
C200 C203 1.387 . S
H201 C197 0.950 . S
H202 C199 0.950 . S
C203 C194 1.390 . S
C203 H196 0.950 . S
C203 C200 1.387 . S
C85 C8 1.402 . S
C90 C55 1.370 . S
C95 C22 1.404 . S
C100 C69 1.370 . S
C105 C83 1.372 . S
C110 C36 1.403 . S
C115 C13 1.370 . S
C120 C50 1.404 . S
C125 C27 1.369 . S
C130 C64 1.403 . S
C135 C78 1.405 . S
C140 C41 1.371 . S
C145 C25 1.455 . S
C150 C7 1.447 . S
C155 C39 1.455 . S
C160 C21 1.448 . S
C165 C35 1.447 . S
C170 C53 1.456 . S
C175 C67 1.455 . S
C180 C49 1.447 . S
C185 C81 1.456 . S
C190 C63 1.448 . S
C195 C77 1.448 . S
C200 C11 1.456 . S
