# Generated by pormake.
# Topology cdl, (4)-cn, num edge types: 1
# Building blocks:
#     Node 0, Type 0, BuildingBlock: ESEHIV_clean_sbu_0, # of connection points: 4
#     Node 1, Type 0, BuildingBlock: ESEHIV_clean_sbu_0, # of connection points: 4
#     Node 2, Type 0, BuildingBlock: ESEHIV_clean_sbu_0, # of connection points: 4
#     Node 3, Type 0, BuildingBlock: ESEHIV_clean_sbu_0, # of connection points: 4
#     Edge 4, Type (0, 0), None
#     Edge 5, Type (0, 0), None
#     Edge 6, Type (0, 0), None
#     Edge 7, Type (0, 0), None
#     Edge 8, Type (0, 0), None
#     Edge 9, Type (0, 0), None
#     Edge 10, Type (0, 0), None
#     Edge 11, Type (0, 0), None
# Relax obj value: 0.000
# Max RMSD: 0.146
# Mean RMSD: 0.098
data_MOF--net-cdl--node1-ESEHIV_clean_sbu_0--edge1-none
_symmetry_space_group_name_H-M    P1
_symmetry_Int_Tables_number       1
_symmetry_cell_setting            triclinic
loop_
_symmetry_equiv_pos_as_xyz
'x, y, z'
_cell_length_a     6.4780713
_cell_length_b     8.637459
_cell_length_c     29.406581
_cell_angle_alpha  102.36029
_cell_angle_beta   94.500567
_cell_angle_gamma 89.524884
loop_
_atom_site_label
_atom_site_type_symbol
_atom_site_fract_x
_atom_site_fract_y
_atom_site_fract_z
_atom_type_partial_charge
Cu0 Cu 0.04966 0.17046 0.15981 0.0
N1 N 0.87968 0.99208 0.15219 0.0
N2 N 0.77226 0.75189 0.1562 0.0
C3 C 0.91888 0.86474 0.17109 0.0
C4 C 0.63747 0.80757 0.12642 0.0
C5 C 0.70616 0.95543 0.12351 0.0
O6 O 0.22106 0.16918 0.21692 0.0
C7 C 0.22536 0.229 0.07724 0.0
O8 O 0.18096 0.37862 0.09192 0.0
H9 H 0.05399 0.85346 0.19421 0.0
H10 H 0.63881 1.02834 0.10065 0.0
N11 N 0.88314 0.35297 0.16589 0.0
N12 N 0.77276 0.59775 0.16483 0.0
C13 C 0.93919 0.50513 0.16832 0.0
C14 C 0.67426 0.3534 0.16266 0.0
C15 C 0.60607 0.50364 0.16125 0.0
C16 C 0.3155 0.2846 0.24468 0.0
O17 O 0.32056 0.42382 0.23362 0.0
H18 H 0.09707 0.54548 0.16955 0.0
H19 H 0.57676 0.25082 0.15998 0.0
O20 O 0.19711 0.1305 0.10281 0.0
H21 H 0.50598 0.74279 0.10647 0.0
H22 H 0.4478 0.54048 0.15646 0.0
Cu23 Cu 0.37645 0.48406 0.70972 0.0
N24 N 0.42512 0.37153 0.75707 0.0
N25 N 0.34406 0.26627 0.81653 0.0
C26 C 0.27591 0.30268 0.77554 0.0
C27 C 0.54504 0.31065 0.82362 0.0
C28 C 0.59463 0.37616 0.78696 0.0
O29 O 0.11777 0.59385 0.72396 0.0
C30 C 0.77768 0.53825 0.69559 0.0
O31 O 0.76807 0.38276 0.68561 0.0
H32 H 0.11585 0.29367 0.7614 0.0
H33 H 0.7391 0.43421 0.78431 0.0
N34 N 0.34004 0.34321 0.65172 0.0
N35 N 0.32678 0.2519 0.57481 0.0
C36 C 0.34105 0.38162 0.6097 0.0
C37 C 0.3257 0.18373 0.64286 0.0
C38 C 0.31784 0.12656 0.59509 0.0
C39 C 0.97673 0.61362 0.69323 0.0
O40 O 1.02949 0.6205 0.65156 0.0
H41 H 0.35775 0.50151 0.60491 0.0
H42 H 0.32485 0.11397 0.66932 0.0
O43 O 0.61746 0.61668 0.70856 0.0
H44 H 0.64472 0.30601 0.85443 0.0
H45 H 0.30588 1.00372 0.57683 0.0
Cu46 Cu 0.09779 0.22109 0.9354 0.0
N47 N 0.93881 1.03331 0.92019 0.0
N48 N 0.8289 0.78593 0.91509 0.0
C49 C 0.99497 0.88376 0.92199 0.0
C50 C 0.66312 0.87415 0.9077 0.0
C51 C 0.73216 1.02596 0.91025 0.0
O52 O 0.21274 0.2659 1.0002 0.0
C53 C 0.22419 0.22187 0.84758 0.0
O54 O 1.02554 0.19428 0.8364 0.0
H55 H 0.1512 0.84892 0.93069 0.0
H56 H 0.63706 0.12547 0.90686 0.0
N57 N 0.92664 0.39453 0.93341 0.0
N58 N 0.8237 0.63203 0.92367 0.0
C59 C 0.97523 0.52398 0.91763 0.0
C60 C 0.74177 0.42545 0.95143 0.0
C61 C 0.67581 0.57162 0.94472 0.0
C62 C 0.24771 0.16985 1.02718 0.0
O63 O 0.24658 1.01672 1.01005 0.0
H64 H 0.11983 0.54016 0.90306 0.0
H65 H 0.66329 0.34929 0.96946 0.0
O66 O 0.29541 0.22617 0.88949 0.0
H67 H 0.50409 0.83284 0.90244 0.0
H68 H 0.53607 0.63187 0.95635 0.0
Cu69 Cu 0.39781 1.03532 0.39272 0.0
N70 N 0.4435 0.16568 0.35121 0.0
N71 N 0.39599 0.26579 0.28723 0.0
C72 C 0.3646 0.14036 0.30652 0.0
C73 C 0.50197 0.37346 0.32075 0.0
C74 C 0.53215 0.31074 0.36023 0.0
O75 O 0.64884 0.91683 0.40281 0.0
C76 C 1.00559 0.88491 0.39199 0.0
O77 O 0.04812 0.90002 0.43711 0.0
H78 H 0.2746 1.03593 0.28949 0.0
H79 H 0.60467 0.36972 0.39379 0.0
N80 N 0.3461 0.16439 0.45028 0.0
N81 N 0.32143 0.24895 0.52663 0.0
C82 C 0.37487 0.12773 0.49264 0.0
C83 C 0.27149 0.31315 0.45808 0.0
C84 C 0.25727 0.36633 0.50542 0.0
C85 C 0.78746 0.88892 0.37376 0.0
O86 O 0.74521 0.91086 0.33119 0.0
H87 H 0.4336 1.0152 0.49833 0.0
H88 H 0.22905 0.37803 0.43116 0.0
O89 O 0.14622 0.91422 0.36699 0.0
H90 H 0.54785 0.49069 0.31752 0.0
H91 H 0.20082 0.48034 0.52273 0.0
loop_
_geom_bond_atom_site_label_1
_geom_bond_atom_site_label_2
_geom_bond_distance
_geom_bond_site_symmetry_2
_ccdc_geom_bond_type
Cu0 N1 1.999 1_545 S
Cu0 O6 1.974 . S
Cu0 N11 1.985 . S
Cu0 O20 1.959 . S
N1 Cu0 1.999 1_565 S
N1 C3 1.263 . S
N1 C5 1.389 . S
N2 C3 1.358 . S
N2 C4 1.400 . S
C3 N1 1.263 . S
C3 N2 1.358 . S
C3 H9 0.930 . S
C4 N2 1.400 . S
C4 C5 1.351 . S
C4 H21 0.930 . S
C5 N1 1.389 . S
C5 C4 1.351 . S
C5 H10 0.930 . S
O6 Cu0 1.974 . S
O6 C16 1.282 . S
C7 O8 1.261 1_455 S
C7 O20 1.251 . S
O8 C7 1.261 1_655 S
H9 C3 0.930 . S
H10 C5 0.930 . S
N11 Cu0 1.985 . S
N11 C13 1.335 . S
N11 C14 1.390 . S
N12 C13 1.345 . S
N12 C15 1.336 . S
C13 N11 1.335 . S
C13 N12 1.345 . S
C13 H18 0.930 . S
C14 N11 1.390 . S
C14 C15 1.346 . S
C14 H19 0.930 . S
C15 N12 1.336 . S
C15 C14 1.346 . S
C15 H22 0.929 . S
C16 O6 1.282 . S
C16 O17 1.216 1_455 S
O17 C16 1.216 1_655 S
H18 C13 0.930 . S
H19 C14 0.930 . S
O20 Cu0 1.959 . S
O20 C7 1.251 . S
H21 C4 0.930 . S
H22 C15 0.929 . S
Cu23 N24 1.999 . S
Cu23 O29 1.974 1_455 S
Cu23 N34 1.985 1_455 S
Cu23 O43 1.959 . S
N24 Cu23 1.999 . S
N24 C26 1.263 1_455 S
N24 C28 1.389 . S
N25 C26 1.358 1_455 S
N25 C27 1.400 . S
C26 N24 1.263 1_655 S
C26 N25 1.358 1_655 S
C26 H32 0.930 . S
C27 N25 1.400 . S
C27 C28 1.351 . S
C27 H44 0.930 . S
C28 N24 1.389 . S
C28 C27 1.351 . S
C28 H33 0.930 . S
O29 Cu23 1.974 1_655 S
O29 C39 1.282 . S
C30 O31 1.261 . S
C30 O43 1.251 . S
O31 C30 1.261 . S
H32 C26 0.930 . S
H33 C28 0.930 . S
N34 Cu23 1.985 1_655 S
N34 C36 1.335 1_655 S
N34 C37 1.390 . S
N35 C36 1.345 . S
N35 C38 1.336 1_455 S
C36 N34 1.335 1_455 S
C36 N35 1.345 . S
C36 H41 0.930 . S
C37 N34 1.390 . S
C37 C38 1.346 . S
C37 H42 0.930 . S
C38 N35 1.336 1_655 S
C38 C37 1.346 . S
C38 H45 0.929 . S
C39 O29 1.282 . S
C39 O40 1.216 . S
O40 C39 1.216 . S
H41 C36 0.930 . S
H42 C37 0.930 . S
O43 Cu23 1.959 . S
O43 C30 1.251 . S
H44 C27 0.930 . S
H45 C38 0.929 . S
Cu46 N47 1.999 1_545 S
Cu46 O52 1.974 . S
Cu46 N57 1.985 . S
Cu46 O66 1.959 . S
N47 Cu46 1.999 1_565 S
N47 C49 1.263 . S
N47 C51 1.389 . S
N48 C49 1.358 . S
N48 C50 1.400 . S
C49 N47 1.263 . S
C49 N48 1.358 . S
C49 H55 0.930 1_455 S
C50 N48 1.400 . S
C50 C51 1.351 . S
C50 H67 0.930 . S
C51 N47 1.389 . S
C51 C50 1.351 . S
C51 H56 0.930 . S
O52 Cu46 1.974 . S
O52 C62 1.282 1_455 S
C53 O54 1.261 . S
C53 O66 1.251 1_655 S
O54 C53 1.261 . S
H55 C49 0.930 1_655 S
H56 C51 0.930 . S
N57 Cu46 1.985 . S
N57 C59 1.335 . S
N57 C60 1.390 1_455 S
N58 C59 1.345 . S
N58 C61 1.336 1_455 S
C59 N57 1.335 . S
C59 N58 1.345 . S
C59 H64 0.930 . S
C60 N57 1.390 1_655 S
C60 C61 1.346 . S
C60 H65 0.930 . S
C61 N58 1.336 1_655 S
C61 C60 1.346 . S
C61 H68 0.929 . S
C62 O52 1.282 1_655 S
C62 O63 1.216 . S
O63 C62 1.216 . S
H64 C59 0.930 . S
H65 C60 0.930 . S
O66 Cu46 1.959 . S
O66 C53 1.251 1_455 S
H67 C50 0.930 . S
H68 C61 0.929 . S
Cu69 N70 1.999 . S
Cu69 O75 1.974 . S
Cu69 N80 1.985 . S
Cu69 O89 1.959 1_455 S
N70 Cu69 1.999 . S
N70 C72 1.263 . S
N70 C74 1.389 1_455 S
N71 C72 1.358 . S
N71 C73 1.400 1_455 S
C72 N70 1.263 . S
C72 N71 1.358 . S
C72 H78 0.930 . S
C73 N71 1.400 1_655 S
C73 C74 1.351 . S
C73 H90 0.930 . S
C74 N70 1.389 1_655 S
C74 C73 1.351 . S
C74 H79 0.930 . S
O75 Cu69 1.974 . S
O75 C85 1.282 . S
C76 O77 1.261 1_545 S
C76 O89 1.251 . S
O77 C76 1.261 1_565 S
H78 C72 0.930 . S
H79 C74 0.930 . S
N80 Cu69 1.985 . S
N80 C82 1.335 . S
N80 C83 1.390 . S
N81 C82 1.345 . S
N81 C84 1.336 . S
C82 N80 1.335 . S
C82 N81 1.345 . S
C82 H87 0.930 1_455 S
C83 N80 1.390 . S
C83 C84 1.346 . S
C83 H88 0.930 . S
C84 N81 1.336 . S
C84 C83 1.346 . S
C84 H91 0.929 . S
C85 O75 1.282 . S
C85 O86 1.216 1_545 S
O86 C85 1.216 1_565 S
H87 C82 0.930 1_655 S
H88 C83 0.930 . S
O89 Cu69 1.959 1_655 S
O89 C76 1.251 . S
H90 C73 0.930 . S
H91 C84 0.929 . S
N12 N2 1.506 . S
C30 C39 1.510 . S
N58 N48 1.496 . S
C85 C76 1.509 . S
C62 C7 1.755 1_656 S
N81 N35 1.632 . S
N71 C16 1.384 . S
N25 C53 2.031 1_455 S
