# Generated by pormake.
# Topology hex, (8)-cn, num edge types: 1
# Building blocks:
#     Node 0, Type 0, BuildingBlock: LIZSOE_clean_sbu_0, # of connection points: 8
#     Edge 1, Type (0, 0), BuildingBlock: CIFDUS_clean_linker_0, # of connection points: 2
#     Edge 2, Type (0, 0), BuildingBlock: CIFDUS_clean_linker_0, # of connection points: 2
#     Edge 3, Type (0, 0), BuildingBlock: CIFDUS_clean_linker_0, # of connection points: 2
#     Edge 4, Type (0, 0), BuildingBlock: CIFDUS_clean_linker_0, # of connection points: 2
# Relax obj value: 0.156
# Max RMSD: 0.238
# Mean RMSD: 0.238
data_MOF--net-hex--node1-LIZSOE_clean_sbu_0--edge1-CIFDUS_clean_linker_0
_symmetry_space_group_name_H-M    P1
_symmetry_Int_Tables_number       1
_symmetry_cell_setting            triclinic
loop_
_symmetry_equiv_pos_as_xyz
'x, y, z'
_cell_length_a     13.820797
_cell_length_b     20.288402
_cell_length_c     13.596093
_cell_angle_alpha  101.42981
_cell_angle_beta   84.405677
_cell_angle_gamma 137.87188
loop_
_atom_site_label
_atom_site_type_symbol
_atom_site_fract_x
_atom_site_fract_y
_atom_site_fract_z
_atom_type_partial_charge
Co0 Co 0.13369 0.92137 0.06283 0.0
N1 N 0.06116 0.81085 0.10127 0.0
C2 C 0.96651 0.75348 0.16805 0.0
N3 N 0.99997 0.67082 0.07242 0.0
C4 C 0.07989 0.75925 0.04445 0.0
C5 C 0.92898 0.66739 0.15047 0.0
Co6 Co 0.98565 0.12504 0.94678 0.0
N7 N 0.99981 0.19634 0.86333 0.0
N8 N 1.02156 0.30436 0.80894 0.0
C9 C 0.91513 0.2137 0.7515 0.0
C10 C 0.90228 0.14817 0.78469 0.0
C11 C 0.07199 0.29236 0.87573 0.0
Co12 Co 0.0854 0.04287 0.02366 0.0
C13 C 0.94244 0.11629 0.03874 0.0
H14 H 0.81675 0.06801 0.75887 0.0
O15 O 0.22031 0.03072 0.02265 0.0
O16 O 0.2657 0.19134 0.03882 0.0
O17 O 0.08872 0.05898 0.17131 0.0
O18 O 0.89767 0.89085 0.01017 0.0
O19 O 0.99077 0.83952 0.95829 0.0
O20 O 0.18528 0.20717 0.92462 0.0
O21 O 0.95319 0.05522 0.02935 0.0
O22 O 0.93118 0.03066 0.83427 0.0
O23 O 1.02378 0.92084 0.16521 0.0
O24 O 0.27103 1.0056 0.15622 0.0
O25 O 0.07802 0.02322 0.86986 0.0
O26 O 1.05215 0.21298 0.05999 0.0
C27 C 1.04271 0.99049 0.21386 0.0
C28 C 0.17592 0.37214 0.96419 0.0
H29 H 0.23089 0.35889 -0.00806 0.0
H30 H 0.26028 0.44723 0.94399 0.0
H31 H 0.11615 0.37205 0.02504 0.0
C32 C 0.2888 0.24163 0.97872 0.0
C33 C 0.88085 0.81959 0.97156 0.0
H34 H 0.91924 0.76883 0.22112 0.0
H35 H 0.18511 0.85168 0.93072 0.0
H36 H 0.10818 0.72928 0.88882 0.0
H37 H 0.27277 0.82678 0.97071 0.0
C38 C 0.16528 0.79305 0.95303 0.0
C39 C 0.31536 0.05842 0.08819 0.0
C40 C 0.999 1.01037 0.80682 0.0
H41 H 0.85059 0.60509 0.18929 0.0
H42 H 0.84117 0.19411 0.69738 0.0
H43 H 0.80995 0.2805 0.86878 0.0
H44 H 0.25414 0.49755 0.79577 0.0
H45 H 0.28996 0.63403 0.87828 0.0
H46 H 0.20136 0.68781 0.98983 0.0
H47 H 0.74964 0.47273 0.04582 0.0
H48 H 0.71037 0.33657 0.95628 0.0
C49 C 0.91257 0.3578 0.86775 0.0
C50 C 1.03006 0.38037 0.82769 0.0
C51 C 0.93163 0.4348 0.9154 0.0
C52 C 0.16332 0.47994 0.82686 0.0
C53 C 0.18387 0.55728 0.87499 0.0
C54 C 0.09305 0.61191 0.97865 0.0
C55 C 0.97794 0.59082 0.02189 0.0
C56 C 0.06995 0.53525 0.92238 0.0
C57 C 0.84006 0.49083 0.01304 0.0
C58 C 0.8172 0.41321 0.9609 0.0
H59 H 0.71518 0.02755 0.91435 0.0
H60 H 0.87261 0.13949 0.22593 0.0
H61 H 0.71777 0.15924 0.26386 0.0
H62 H 0.54741 0.15262 0.20731 0.0
H63 H 0.38676 0.04008 0.89566 0.0
H64 H 0.54863 0.02628 0.85589 0.0
C65 C 0.7147 0.05561 0.99046 0.0
C66 C 0.80568 0.08185 0.06703 0.0
C67 C 0.63264 0.07338 0.0102 0.0
C68 C 0.80092 0.11595 0.16602 0.0
C69 C 0.7159 0.13036 0.18706 0.0
C70 C 0.55126 0.12826 0.12985 0.0
C71 C 0.45378 0.0971 0.05485 0.0
C72 C 0.63494 0.11227 0.10925 0.0
C73 C 0.46073 0.06571 0.95503 0.0
C74 C 0.55009 0.05462 0.93284 0.0
H75 H 0.40205 0.40532 0.11511 0.0
H76 H 0.47954 0.31273 0.83507 0.0
H77 H 0.66283 0.48405 0.80347 0.0
H78 H 0.78625 0.6567 0.84883 0.0
H79 H 0.6884 0.74586 0.11838 0.0
H80 H 0.51995 0.57787 0.15742 0.0
C81 C 0.4629 0.42382 0.04888 0.0
C82 C 0.42977 0.34702 0.97847 0.0
C83 C 0.55768 0.52035 0.02656 0.0
C84 C 0.50532 0.37088 0.89123 0.0
C85 C 0.60749 0.46828 0.8721 0.0
C86 C 0.72484 0.63852 0.91473 0.0
C87 C 0.74767 0.71342 0.97934 0.0
C88 C 0.63051 0.54256 0.93738 0.0
C89 C 0.66959 0.68913 0.06555 0.0
C90 C 0.57607 0.5937 0.08917 0.0
H91 H 0.97803 0.07707 0.66835 0.0
H92 H 1.04743 0.90692 0.69737 0.0
H93 H 0.06149 0.88183 0.51364 0.0
H94 H 0.05844 0.91313 0.3465 0.0
H95 H 0.98404 0.08267 0.32565 0.0
H96 H 0.96432 0.102 0.50686 0.0
C97 C 0.99153 0.03177 0.63525 0.0
C98 C 1.00704 0.99147 0.6967 0.0
C99 C 0.99867 1.01794 0.53133 0.0
C100 C 1.03362 0.93796 0.65179 0.0
C101 C 1.04129 0.92358 0.54693 0.0
C102 C 1.03408 0.95196 0.38125 0.0
C103 C 1.02014 0.995 0.32236 0.0
C104 C 1.02379 0.96336 0.486 0.0
C105 C 0.99451 0.0486 0.3691 0.0
C106 C 0.98341 0.05972 0.47258 0.0
loop_
_geom_bond_atom_site_label_1
_geom_bond_atom_site_label_2
_geom_bond_distance
_geom_bond_site_symmetry_2
_ccdc_geom_bond_type
Co0 N1 2.034 . S
Co0 O15 2.262 1_654 S
Co0 O19 1.958 1_554 S
Co0 O23 1.950 1_655 S
Co0 O24 2.057 1_654 S
N1 Co0 2.034 . S
N1 C2 1.366 . S
N1 C4 1.332 1_655 S
C2 N1 1.366 . S
C2 C5 1.377 . S
C2 H34 0.931 . S
N3 C4 1.346 . S
N3 C5 1.337 1_455 S
C4 N1 1.332 1_455 S
C4 N3 1.346 . S
C4 C38 1.361 . S
C5 C2 1.377 . S
C5 N3 1.337 1_655 S
C5 H41 0.930 . S
Co6 N7 2.034 1_655 S
Co6 O20 1.950 1_655 S
Co6 O21 2.258 1_556 S
Co6 O22 1.958 . S
Co6 O26 2.062 . S
N7 Co6 2.034 1_455 S
N7 C10 1.366 . S
N7 C11 1.332 . S
N8 C9 1.337 . S
N8 C11 1.346 . S
C9 N8 1.337 . S
C9 C10 1.377 . S
C9 H42 0.930 . S
C10 N7 1.366 . S
C10 C9 1.377 . S
C10 H14 0.931 . S
C11 N7 1.332 . S
C11 N8 1.346 . S
C11 C28 1.361 1_556 S
Co12 O15 2.097 1_655 S
Co12 O16 2.065 1_666 S
Co12 O17 2.065 1_566 S
Co12 O18 2.042 . S
Co12 O21 2.098 1_566 S
Co12 O25 2.042 1_655 S
C13 O21 1.253 . S
C13 O26 1.257 1_554 S
H14 C10 0.931 . S
O15 Co0 2.262 1_456 S
O15 Co12 2.097 1_455 S
O15 C39 1.253 . S
O16 Co12 2.065 1_444 S
O16 C32 1.221 . S
O17 Co12 2.065 1_544 S
O17 C27 1.221 1_545 S
O18 Co12 2.042 . S
O18 C33 1.237 . S
O19 Co0 1.958 1_556 S
O19 C33 1.278 . S
O20 Co6 1.950 1_455 S
O20 C32 1.277 1_556 S
O21 Co6 2.258 1_554 S
O21 Co12 2.098 1_544 S
O21 C13 1.253 . S
O22 Co6 1.958 . S
O22 C40 1.265 1_545 S
O23 Co0 1.950 1_455 S
O23 C27 1.277 1_455 S
O24 Co0 2.057 1_456 S
O24 C39 1.263 . S
O25 Co12 2.042 1_455 S
O25 C40 1.245 1_455 S
O26 Co6 2.062 . S
O26 C13 1.257 1_556 S
C27 O17 1.221 1_565 S
C27 O23 1.277 1_655 S
C28 C11 1.361 1_554 S
C28 H29 0.960 . S
C28 H30 0.961 . S
C28 H31 0.961 1_455 S
H29 C28 0.960 . S
H30 C28 0.961 . S
H31 C28 0.961 1_655 S
C32 O16 1.221 . S
C32 O20 1.277 1_554 S
C33 O18 1.237 . S
C33 O19 1.278 . S
H34 C2 0.931 . S
H35 C38 0.961 . S
H36 C38 0.961 . S
H37 C38 0.960 . S
C38 C4 1.361 . S
C38 H35 0.961 . S
C38 H36 0.961 . S
C38 H37 0.960 . S
C39 O15 1.253 . S
C39 O24 1.263 . S
C40 O22 1.265 1_565 S
C40 O25 1.245 1_655 S
H41 C5 0.930 . S
H42 C9 0.930 . S
H43 C49 0.930 . S
H44 C52 0.930 . S
H45 C53 0.930 . S
H46 C54 0.930 . S
H47 C57 0.930 . S
H48 C58 0.930 . S
C49 H43 0.930 . S
C49 C50 1.355 1_655 S
C49 C51 1.415 . S
C50 C49 1.355 1_455 S
C50 C52 1.419 . S
C51 C49 1.415 . S
C51 C56 1.425 1_656 S
C51 C58 1.409 . S
C52 H44 0.930 . S
C52 C50 1.419 . S
C52 C53 1.362 1_556 S
C53 H45 0.930 . S
C53 C52 1.362 1_554 S
C53 C56 1.409 . S
C54 H46 0.930 . S
C54 C55 1.355 . S
C54 C56 1.415 . S
C55 C54 1.355 . S
C55 C57 1.419 1_455 S
C56 C51 1.425 1_454 S
C56 C53 1.409 . S
C56 C54 1.415 . S
C57 H47 0.930 . S
C57 C55 1.419 1_655 S
C57 C58 1.362 1_554 S
C58 H48 0.930 . S
C58 C51 1.409 . S
C58 C57 1.362 1_556 S
H59 C65 0.930 . S
H60 C68 0.930 . S
H61 C69 0.930 . S
H62 C70 0.930 . S
H63 C73 0.930 . S
H64 C74 0.930 . S
C65 H59 0.930 . S
C65 C66 1.355 1_566 S
C65 C67 1.415 . S
C66 C65 1.355 1_544 S
C66 C68 1.419 . S
C67 C65 1.415 . S
C67 C72 1.425 1_566 S
C67 C74 1.409 . S
C68 H60 0.930 . S
C68 C66 1.419 . S
C68 C69 1.362 . S
C69 H61 0.930 . S
C69 C68 1.362 . S
C69 C72 1.409 . S
C70 H62 0.930 . S
C70 C71 1.355 1_544 S
C70 C72 1.415 . S
C71 C70 1.355 1_566 S
C71 C73 1.419 . S
C72 C67 1.425 1_544 S
C72 C69 1.409 . S
C72 C70 1.415 . S
C73 H63 0.930 . S
C73 C71 1.419 . S
C73 C74 1.362 . S
C74 H64 0.930 . S
C74 C67 1.409 . S
C74 C73 1.362 . S
H75 C81 0.930 . S
H76 C84 0.930 . S
H77 C85 0.930 . S
H78 C86 0.930 . S
H79 C89 0.930 . S
H80 C90 0.930 . S
C81 H75 0.930 . S
C81 C82 1.355 . S
C81 C83 1.415 . S
C82 C81 1.355 . S
C82 C84 1.419 1_554 S
C83 C81 1.415 . S
C83 C88 1.425 1_554 S
C83 C90 1.409 . S
C84 H76 0.930 . S
C84 C82 1.419 1_556 S
C84 C85 1.362 . S
C85 H77 0.930 . S
C85 C84 1.362 . S
C85 C88 1.409 . S
C86 H78 0.930 . S
C86 C87 1.355 . S
C86 C88 1.415 . S
C87 C86 1.355 . S
C87 C89 1.419 1_556 S
C88 C83 1.425 1_556 S
C88 C85 1.409 . S
C88 C86 1.415 . S
C89 H79 0.930 . S
C89 C87 1.419 1_554 S
C89 C90 1.362 . S
C90 H80 0.930 . S
C90 C83 1.409 . S
C90 C89 1.362 . S
H91 C97 0.930 . S
H92 C100 0.930 . S
H93 C101 0.930 . S
H94 C102 0.930 . S
H95 C105 0.930 . S
H96 C106 0.930 . S
C97 H91 0.930 . S
C97 C98 1.355 1_545 S
C97 C99 1.416 1_655 S
C98 C97 1.355 1_565 S
C98 C100 1.419 . S
C99 C97 1.416 1_455 S
C99 C104 1.425 1_545 S
C99 C106 1.406 . S
C100 H92 0.930 . S
C100 C98 1.419 . S
C100 C101 1.362 . S
C101 H93 0.930 . S
C101 C100 1.362 . S
C101 C104 1.413 1_655 S
C102 H94 0.930 . S
C102 C103 1.355 1_565 S
C102 C104 1.414 . S
C103 C102 1.355 1_545 S
C103 C105 1.419 . S
C104 C99 1.425 1_565 S
C104 C101 1.413 1_455 S
C104 C102 1.414 . S
C105 H95 0.930 . S
C105 C103 1.419 . S
C105 C106 1.362 . S
C106 H96 0.930 . S
C106 C99 1.406 . S
C106 C105 1.362 . S
C50 N8 1.599 . S
C55 N3 1.410 . S
C66 C13 1.669 . S
C71 C39 1.684 . S
C82 C32 1.658 . S
C87 C33 1.683 . S
C98 C40 1.462 . S
C103 C27 1.465 1_445 S
