# Generated by pormake.
# Topology wjg, (4)-cn, num edge types: 1
# Building blocks:
#     Node 0, Type 0, BuildingBlock: GALJAG_clean_sbu_0, # of connection points: 4
#     Node 1, Type 0, BuildingBlock: GALJAG_clean_sbu_0, # of connection points: 4
#     Node 2, Type 0, BuildingBlock: GALJAG_clean_sbu_0, # of connection points: 4
#     Node 3, Type 0, BuildingBlock: GALJAG_clean_sbu_0, # of connection points: 4
#     Node 4, Type 0, BuildingBlock: GALJAG_clean_sbu_0, # of connection points: 4
#     Node 5, Type 0, BuildingBlock: GALJAG_clean_sbu_0, # of connection points: 4
#     Node 6, Type 0, BuildingBlock: GALJAG_clean_sbu_0, # of connection points: 4
#     Node 7, Type 0, BuildingBlock: GALJAG_clean_sbu_0, # of connection points: 4
#     Node 8, Type 0, BuildingBlock: GALJAG_clean_sbu_0, # of connection points: 4
#     Node 9, Type 0, BuildingBlock: GALJAG_clean_sbu_0, # of connection points: 4
#     Node 10, Type 0, BuildingBlock: GALJAG_clean_sbu_0, # of connection points: 4
#     Node 11, Type 0, BuildingBlock: GALJAG_clean_sbu_0, # of connection points: 4
#     Edge 12, Type (0, 0), None
#     Edge 13, Type (0, 0), None
#     Edge 14, Type (0, 0), None
#     Edge 15, Type (0, 0), None
#     Edge 16, Type (0, 0), None
#     Edge 17, Type (0, 0), None
#     Edge 18, Type (0, 0), None
#     Edge 19, Type (0, 0), None
#     Edge 20, Type (0, 0), None
#     Edge 21, Type (0, 0), None
#     Edge 22, Type (0, 0), None
#     Edge 23, Type (0, 0), None
#     Edge 24, Type (0, 0), None
#     Edge 25, Type (0, 0), None
#     Edge 26, Type (0, 0), None
#     Edge 27, Type (0, 0), None
#     Edge 28, Type (0, 0), None
#     Edge 29, Type (0, 0), None
#     Edge 30, Type (0, 0), None
#     Edge 31, Type (0, 0), None
#     Edge 32, Type (0, 0), None
#     Edge 33, Type (0, 0), None
#     Edge 34, Type (0, 0), None
#     Edge 35, Type (0, 0), None
# Relax obj value: 0.427
# Max RMSD: 0.174
# Mean RMSD: 0.162
data_MOF--net-wjg--node1-GALJAG_clean_sbu_0--edge1-none
_symmetry_space_group_name_H-M    P1
_symmetry_Int_Tables_number       1
_symmetry_cell_setting            triclinic
loop_
_symmetry_equiv_pos_as_xyz
'x, y, z'
_cell_length_a     14.742864
_cell_length_b     14.605021
_cell_length_c     18.001242
_cell_angle_alpha  90.000008
_cell_angle_beta   90.000002
_cell_angle_gamma 120.43985
loop_
_atom_site_label
_atom_site_type_symbol
_atom_site_fract_x
_atom_site_fract_y
_atom_site_fract_z
_atom_type_partial_charge
In0 In 0.11586 0.3612 0.31827 0.0
O1 O -0.04204 0.32647 0.26937 0.0
O2 O 0.08825 0.37401 0.19574 0.0
C3 C 0.14439 0.36555 0.46352 0.0
C4 C 0.11155 0.17697 0.31774 0.0
C5 C 0.27781 0.55637 0.32436 0.0
O6 O 0.0627 0.36256 0.4364 0.0
O7 O 0.20908 0.36605 0.41759 0.0
O8 O 0.28374 0.47943 0.29752 0.0
O9 O 0.18634 0.53852 0.33955 0.0
C10 C -0.00806 0.34376 0.2029 0.0
O11 O 0.16736 0.25222 0.2734 0.0
O12 O 0.04559 0.18926 0.35451 0.0
In13 In 0.72571 0.1311 0.6523 0.0
O14 O 0.60304 0.97163 0.602 0.0
O15 O 0.689 0.10427 0.52932 0.0
C16 C 0.74966 0.16179 0.79725 0.0
C17 C 0.90405 0.12741 0.65393 0.0
C18 C 0.69168 0.29143 0.65764 0.0
O19 O 0.67031 0.07861 0.77039 0.0
O20 O 0.81476 0.22685 0.75118 0.0
O21 O 0.77507 0.29953 0.63122 0.0
O22 O 0.61798 0.19836 0.67275 0.0
C23 C 0.62215 0.00668 0.53571 0.0
O24 O 0.88709 0.18465 0.60971 0.0
O25 O 0.82443 0.06032 0.68998 0.0
In26 In 0.56284 0.73751 0.98448 0.0
O27 O 0.56323 0.68338 0.10256 0.0
O28 O 0.55761 0.82649 0.08372 0.0
C29 C 0.58419 0.63388 0.86837 0.0
C30 C 0.36821 0.69997 0.99059 0.0
C31 C 0.7443 0.92072 0.98521 0.0
O32 O 0.59944 0.61526 0.93484 0.0
O33 O 0.55365 0.70003 0.86151 0.0
O34 O 0.66914 0.90139 0.94162 0.0
O35 O 0.73315 0.84119 0.02079 0.0
C36 C 0.55974 0.76253 0.12966 0.0
O37 O 0.44351 0.78388 0.96295 0.0
O38 O 0.38747 0.62704 0.00666 0.0
In39 In 0.79829 0.58287 0.31827 0.0
O40 O 0.74679 0.69186 0.2734 0.0
O41 O 0.86856 0.75482 0.35451 0.0
C42 C 0.63634 0.3877 0.32436 0.0
C43 C 0.92221 0.60032 0.2029 0.0
C44 C 0.76977 0.57852 0.46352 0.0
O45 O 0.63041 0.46464 0.29752 0.0
O46 O 0.72781 0.40556 0.33955 0.0
O47 O 0.85145 0.58151 0.4364 0.0
O48 O 0.70507 0.57802 0.41759 0.0
C49 C 0.8026 0.76711 0.31774 0.0
O50 O 0.95619 0.6176 0.26937 0.0
O51 O 0.8259 0.57007 0.19574 0.0
In52 In 0.18844 0.81298 0.6523 0.0
O53 O 0.02706 0.75943 0.60971 0.0
O54 O 0.08972 0.88375 0.68998 0.0
C55 C 0.22247 0.65265 0.65764 0.0
C56 C 0.292 0.9374 0.53571 0.0
C57 C 0.16449 0.78229 0.79725 0.0
O58 O 0.13908 0.64454 0.63122 0.0
O59 O 0.29617 0.74572 0.67275 0.0
O60 O 0.24384 0.86547 0.77039 0.0
O61 O 0.09939 0.71722 0.75118 0.0
C62 C 0.0101 0.81667 0.65393 0.0
O63 O 0.31112 -0.02755 0.602 0.0
O64 O 0.22516 0.83981 0.52932 0.0
In65 In 0.35131 0.20657 0.98448 0.0
O66 O 0.35092 0.2607 0.10256 0.0
O67 O 0.35654 0.11759 0.08372 0.0
C68 C 0.32996 0.3102 0.86837 0.0
C69 C 0.54594 0.24411 0.99059 0.0
C70 C 0.16985 0.02336 0.98521 0.0
O71 O 0.31471 0.32882 0.93484 0.0
O72 O 0.3605 0.24405 0.86151 0.0
O73 O 0.24501 0.04269 0.94162 0.0
O74 O 0.181 0.10288 0.02079 0.0
C75 C 0.35441 0.18154 0.12966 0.0
O76 O 0.47064 0.1602 0.96295 0.0
O77 O 0.52668 0.31704 0.00666 0.0
In78 In 0.5677 0.81249 0.35392 0.0
O79 O 0.60354 0.97148 0.40414 0.0
O80 O 0.55713 0.83902 0.47687 0.0
C81 C 0.56126 0.7821 0.20894 0.0
C82 C 0.75041 0.81766 0.35261 0.0
C83 C 0.37315 0.65147 0.34819 0.0
O84 O 0.56491 0.865 0.23587 0.0
O85 O 0.56139 0.71715 0.25497 0.0
O86 O 0.44863 0.64363 0.37449 0.0
O87 O 0.3924 0.74447 0.33345 0.0
C88 C 0.58742 0.93642 0.47042 0.0
O89 O 0.67615 0.76016 0.39686 0.0
O90 O 0.73767 0.88436 0.31644 0.0
In91 In 0.72643 0.58184 0.6881 0.0
O92 O 0.6035 0.61671 0.737 0.0
O93 O 0.68634 0.56955 0.81069 0.0
C94 C 0.75109 0.57825 0.54285 0.0
C95 C 0.90715 0.76576 0.68879 0.0
C96 C 0.69177 0.38642 0.68175 0.0
O97 O 0.67246 0.58133 0.56996 0.0
O98 O 0.81497 0.57716 0.5888 0.0
O99 O 0.77485 0.46306 0.70891 0.0
O100 O 0.61851 0.40464 0.66636 0.0
C101 C 0.62041 0.59981 0.8035 0.0
O102 O 0.88751 0.69026 0.73287 0.0
O103 O 0.8289 0.75391 0.65218 0.0
In104 In 0.11743 0.73732 0.02162 0.0
O105 O 0.28334 0.7839 0.04318 0.0
O106 O 0.18199 0.62691 0.99962 0.0
C107 C 0.11837 0.91966 0.0204 0.0
C108 C 0.14623 0.76261 0.87652 0.0
C109 C -0.00749 0.63419 0.13797 0.0
O110 O 0.17481 0.90125 0.06398 0.0
O111 O 0.04993 0.83977 0.98498 0.0
O112 O -0.04154 0.61489 0.07154 0.0
O113 O 0.0894 0.7007 0.14469 0.0
C114 C 0.27445 0.69996 0.01562 0.0
O115 O 0.06335 0.6832 0.90349 0.0
O116 O 0.21224 0.82672 0.92256 0.0
In117 In 0.34645 0.13159 0.35392 0.0
O118 O 0.31061 -0.02741 0.40414 0.0
O119 O 0.35702 0.10506 0.47687 0.0
C120 C 0.35289 0.16198 0.20894 0.0
C121 C 0.16374 0.12641 0.35261 0.0
C122 C 0.541 0.29261 0.34819 0.0
O123 O 0.34924 0.07907 0.23587 0.0
O124 O 0.35276 0.22693 0.25497 0.0
O125 O 0.46552 0.30044 0.37449 0.0
O126 O 0.52175 0.1996 0.33345 0.0
C127 C 0.32673 0.00765 0.47042 0.0
O128 O 0.238 0.18392 0.39686 0.0
O129 O 0.17648 0.05971 0.31644 0.0
In130 In 0.18772 0.36224 0.6881 0.0
O131 O 0.31065 0.32736 0.737 0.0
O132 O 0.22781 0.37453 0.81069 0.0
C133 C 0.16306 0.36583 0.54285 0.0
C134 C 0.007 0.17832 0.68879 0.0
C135 C 0.22238 0.55766 0.68175 0.0
O136 O 0.2417 0.36274 0.56996 0.0
O137 O 0.09919 0.36691 0.5888 0.0
O138 O 0.1393 0.48101 0.70891 0.0
O139 O 0.29564 0.53944 0.66636 0.0
C140 C 0.29374 0.34427 0.8035 0.0
O141 O 0.02664 0.25382 0.73287 0.0
O142 O 0.08525 0.19017 0.65218 0.0
In143 In 0.79672 0.20675 0.02162 0.0
O144 O 0.8508 0.26088 0.90349 0.0
O145 O 0.70191 0.11736 0.92256 0.0
C146 C 0.92164 0.30988 0.13797 0.0
C147 C 0.63971 0.24412 0.01562 0.0
C148 C 0.79578 0.02442 0.0204 0.0
O149 O 0.95569 0.32919 0.07154 0.0
O150 O 0.82475 0.24338 0.14469 0.0
O151 O 0.73934 0.04283 0.06398 0.0
O152 O 0.86422 0.10431 0.98498 0.0
C153 C 0.76792 0.18146 0.87652 0.0
O154 O 0.63081 0.16018 0.04318 0.0
O155 O 0.73216 0.31717 0.99962 0.0
loop_
_geom_bond_atom_site_label_1
_geom_bond_atom_site_label_2
_geom_bond_distance
_geom_bond_site_symmetry_2
_ccdc_geom_bond_type
In0 O1 2.294 1_455 S
In0 O2 2.326 . S
In0 O6 2.266 . S
In0 O7 2.326 . S
In0 O8 2.266 . S
In0 O9 2.326 . S
In0 O11 2.294 . S
In0 O12 2.326 . S
O1 In0 2.294 1_655 S
O1 C10 1.240 . S
O2 In0 2.326 . S
O2 C10 1.252 1_455 S
C3 O6 1.252 . S
C3 O7 1.260 . S
C4 O11 1.240 . S
C4 O12 1.252 . S
C5 O8 1.252 . S
C5 O9 1.260 . S
O6 In0 2.266 . S
O6 C3 1.252 . S
O7 In0 2.326 . S
O7 C3 1.260 . S
O8 In0 2.266 . S
O8 C5 1.252 . S
O9 In0 2.326 . S
O9 C5 1.260 . S
C10 O1 1.240 . S
C10 O2 1.252 1_655 S
O11 In0 2.294 . S
O11 C4 1.240 . S
O12 In0 2.326 . S
O12 C4 1.252 . S
In13 O14 2.294 1_545 S
In13 O15 2.326 . S
In13 O19 2.266 . S
In13 O20 2.326 . S
In13 O21 2.266 . S
In13 O22 2.326 . S
In13 O24 2.294 . S
In13 O25 2.326 . S
O14 In13 2.294 1_565 S
O14 C23 1.240 . S
O15 In13 2.326 . S
O15 C23 1.252 1_545 S
C16 O19 1.252 . S
C16 O20 1.260 . S
C17 O24 1.240 . S
C17 O25 1.252 . S
C18 O21 1.252 . S
C18 O22 1.260 . S
O19 In13 2.266 . S
O19 C16 1.252 . S
O20 In13 2.326 . S
O20 C16 1.260 . S
O21 In13 2.266 . S
O21 C18 1.252 . S
O22 In13 2.326 . S
O22 C18 1.260 . S
C23 O14 1.240 . S
C23 O15 1.252 1_565 S
O24 In13 2.294 . S
O24 C17 1.240 . S
O25 In13 2.326 . S
O25 C17 1.252 . S
In26 O27 2.294 . S
In26 O28 2.326 . S
In26 O32 2.266 1_554 S
In26 O33 2.326 1_554 S
In26 O34 2.266 1_554 S
In26 O35 2.326 1_554 S
In26 O37 2.294 1_554 S
In26 O38 2.326 . S
O27 In26 2.294 . S
O27 C36 1.240 . S
O28 In26 2.326 . S
O28 C36 1.252 . S
C29 O32 1.252 . S
C29 O33 1.260 . S
C30 O37 1.240 1_554 S
C30 O38 1.252 . S
C31 O34 1.252 . S
C31 O35 1.260 . S
O32 In26 2.266 1_556 S
O32 C29 1.252 . S
O33 In26 2.326 1_556 S
O33 C29 1.260 . S
O34 In26 2.266 1_556 S
O34 C31 1.252 . S
O35 In26 2.326 1_556 S
O35 C31 1.260 . S
C36 O27 1.240 . S
C36 O28 1.252 . S
O37 In26 2.294 1_556 S
O37 C30 1.240 1_556 S
O38 In26 2.326 . S
O38 C30 1.252 . S
In39 O40 2.294 . S
In39 O41 2.326 . S
In39 O45 2.266 . S
In39 O46 2.326 . S
In39 O47 2.266 . S
In39 O48 2.326 . S
In39 O50 2.294 1_655 S
In39 O51 2.326 . S
O40 In39 2.294 . S
O40 C49 1.240 . S
O41 In39 2.326 . S
O41 C49 1.252 . S
C42 O45 1.252 . S
C42 O46 1.260 . S
C43 O50 1.240 . S
C43 O51 1.252 1_455 S
C44 O47 1.252 . S
C44 O48 1.260 . S
O45 In39 2.266 . S
O45 C42 1.252 . S
O46 In39 2.326 . S
O46 C42 1.260 . S
O47 In39 2.266 . S
O47 C44 1.252 . S
O48 In39 2.326 . S
O48 C44 1.260 . S
C49 O40 1.240 . S
C49 O41 1.252 . S
O50 In39 2.294 1_455 S
O50 C43 1.240 . S
O51 In39 2.326 . S
O51 C43 1.252 1_655 S
In52 O53 2.294 . S
In52 O54 2.326 . S
In52 O58 2.266 . S
In52 O59 2.326 . S
In52 O60 2.266 . S
In52 O61 2.326 . S
In52 O63 2.294 1_565 S
In52 O64 2.326 . S
O53 In52 2.294 . S
O53 C62 1.240 . S
O54 In52 2.326 . S
O54 C62 1.252 . S
C55 O58 1.252 . S
C55 O59 1.260 . S
C56 O63 1.240 . S
C56 O64 1.252 1_545 S
C57 O60 1.252 . S
C57 O61 1.260 . S
O58 In52 2.266 . S
O58 C55 1.252 . S
O59 In52 2.326 . S
O59 C55 1.260 . S
O60 In52 2.266 . S
O60 C57 1.252 . S
O61 In52 2.326 . S
O61 C57 1.260 . S
C62 O53 1.240 . S
C62 O54 1.252 . S
O63 In52 2.294 1_545 S
O63 C56 1.240 . S
O64 In52 2.326 . S
O64 C56 1.252 1_565 S
In65 O66 2.294 . S
In65 O67 2.326 . S
In65 O71 2.266 1_554 S
In65 O72 2.326 1_554 S
In65 O73 2.266 1_554 S
In65 O74 2.326 1_554 S
In65 O76 2.294 1_554 S
In65 O77 2.326 . S
O66 In65 2.294 . S
O66 C75 1.240 . S
O67 In65 2.326 . S
O67 C75 1.252 . S
C68 O71 1.252 . S
C68 O72 1.260 . S
C69 O76 1.240 1_554 S
C69 O77 1.252 . S
C70 O73 1.252 . S
C70 O74 1.260 . S
O71 In65 2.266 1_556 S
O71 C68 1.252 . S
O72 In65 2.326 1_556 S
O72 C68 1.260 . S
O73 In65 2.266 1_556 S
O73 C70 1.252 . S
O74 In65 2.326 1_556 S
O74 C70 1.260 . S
C75 O66 1.240 . S
C75 O67 1.252 . S
O76 In65 2.294 1_556 S
O76 C69 1.240 1_556 S
O77 In65 2.326 . S
O77 C69 1.252 . S
In78 O79 2.294 1_565 S
In78 O80 2.326 . S
In78 O84 2.266 . S
In78 O85 2.326 . S
In78 O86 2.266 . S
In78 O87 2.326 . S
In78 O89 2.294 . S
In78 O90 2.326 . S
O79 In78 2.294 1_545 S
O79 C88 1.240 . S
O80 In78 2.326 . S
O80 C88 1.252 1_565 S
C81 O84 1.252 . S
C81 O85 1.260 . S
C82 O89 1.240 . S
C82 O90 1.252 . S
C83 O86 1.252 . S
C83 O87 1.260 . S
O84 In78 2.266 . S
O84 C81 1.252 . S
O85 In78 2.326 . S
O85 C81 1.260 . S
O86 In78 2.266 . S
O86 C83 1.252 . S
O87 In78 2.326 . S
O87 C83 1.260 . S
C88 O79 1.240 . S
C88 O80 1.252 1_545 S
O89 In78 2.294 . S
O89 C82 1.240 . S
O90 In78 2.326 . S
O90 C82 1.252 . S
In91 O92 2.294 . S
In91 O93 2.326 . S
In91 O97 2.266 . S
In91 O98 2.326 . S
In91 O99 2.266 . S
In91 O100 2.326 . S
In91 O102 2.294 . S
In91 O103 2.326 . S
O92 In91 2.294 . S
O92 C101 1.240 . S
O93 In91 2.326 . S
O93 C101 1.252 . S
C94 O97 1.252 . S
C94 O98 1.260 . S
C95 O102 1.240 . S
C95 O103 1.252 . S
C96 O99 1.252 . S
C96 O100 1.260 . S
O97 In91 2.266 . S
O97 C94 1.252 . S
O98 In91 2.326 . S
O98 C94 1.260 . S
O99 In91 2.266 . S
O99 C96 1.252 . S
O100 In91 2.326 . S
O100 C96 1.260 . S
C101 O92 1.240 . S
C101 O93 1.252 . S
O102 In91 2.294 . S
O102 C95 1.240 . S
O103 In91 2.326 . S
O103 C95 1.252 . S
In104 O105 2.294 1_556 S
In104 O106 2.326 . S
In104 O110 2.266 1_556 S
In104 O111 2.326 1_556 S
In104 O112 2.266 1_456 S
In104 O113 2.326 1_556 S
In104 O115 2.294 . S
In104 O116 2.326 . S
O105 In104 2.294 1_554 S
O105 C114 1.240 1_554 S
O106 In104 2.326 . S
O106 C114 1.252 . S
C107 O110 1.252 . S
C107 O111 1.260 . S
C108 O115 1.240 . S
C108 O116 1.252 . S
C109 O112 1.255 . S
C109 O113 1.252 1_655 S
O110 In104 2.266 1_554 S
O110 C107 1.252 . S
O111 In104 2.326 1_554 S
O111 C107 1.260 . S
O112 In104 2.266 1_654 S
O112 C109 1.255 . S
O113 In104 2.326 1_554 S
O113 C109 1.252 1_455 S
C114 O105 1.240 1_556 S
C114 O106 1.252 . S
O115 In104 2.294 . S
O115 C108 1.240 . S
O116 In104 2.326 . S
O116 C108 1.252 . S
In117 O118 2.294 1_545 S
In117 O119 2.326 . S
In117 O123 2.266 . S
In117 O124 2.326 . S
In117 O125 2.266 . S
In117 O126 2.326 . S
In117 O128 2.294 . S
In117 O129 2.326 . S
O118 In117 2.294 1_565 S
O118 C127 1.240 . S
O119 In117 2.326 . S
O119 C127 1.252 1_545 S
C120 O123 1.252 . S
C120 O124 1.260 . S
C121 O128 1.240 . S
C121 O129 1.252 . S
C122 O125 1.252 . S
C122 O126 1.260 . S
O123 In117 2.266 . S
O123 C120 1.252 . S
O124 In117 2.326 . S
O124 C120 1.260 . S
O125 In117 2.266 . S
O125 C122 1.252 . S
O126 In117 2.326 . S
O126 C122 1.260 . S
C127 O118 1.240 . S
C127 O119 1.252 1_565 S
O128 In117 2.294 . S
O128 C121 1.240 . S
O129 In117 2.326 . S
O129 C121 1.252 . S
In130 O131 2.294 . S
In130 O132 2.326 . S
In130 O136 2.266 . S
In130 O137 2.326 . S
In130 O138 2.266 . S
In130 O139 2.326 . S
In130 O141 2.294 . S
In130 O142 2.326 . S
O131 In130 2.294 . S
O131 C140 1.240 . S
O132 In130 2.326 . S
O132 C140 1.252 . S
C133 O136 1.252 . S
C133 O137 1.260 . S
C134 O141 1.240 . S
C134 O142 1.252 . S
C135 O138 1.252 . S
C135 O139 1.260 . S
O136 In130 2.266 . S
O136 C133 1.252 . S
O137 In130 2.326 . S
O137 C133 1.260 . S
O138 In130 2.266 . S
O138 C135 1.252 . S
O139 In130 2.326 . S
O139 C135 1.260 . S
C140 O131 1.240 . S
C140 O132 1.252 . S
O141 In130 2.294 . S
O141 C134 1.240 . S
O142 In130 2.326 . S
O142 C134 1.252 . S
In143 O144 2.294 . S
In143 O145 2.326 . S
In143 O149 2.266 1_656 S
In143 O150 2.326 1_556 S
In143 O151 2.266 1_556 S
In143 O152 2.326 1_556 S
In143 O154 2.294 1_556 S
In143 O155 2.326 . S
O144 In143 2.294 . S
O144 C153 1.240 . S
O145 In143 2.326 . S
O145 C153 1.252 . S
C146 O149 1.255 . S
C146 O150 1.252 1_455 S
C147 O154 1.240 1_556 S
C147 O155 1.252 . S
C148 O151 1.252 . S
C148 O152 1.260 . S
O149 In143 2.266 1_454 S
O149 C146 1.255 . S
O150 In143 2.326 1_554 S
O150 C146 1.252 1_655 S
O151 In143 2.266 1_554 S
O151 C148 1.252 . S
O152 In143 2.326 1_554 S
O152 C148 1.260 . S
C153 O144 1.240 . S
C153 O145 1.252 . S
O154 In143 2.294 1_554 S
O154 C147 1.240 1_554 S
O155 In143 2.326 . S
O155 C147 1.252 . S
C5 C83 1.991 . S
C18 C96 1.991 . S
C30 C114 1.839 1_554 S
C122 C42 1.991 . S
C55 C135 1.991 . S
C147 C69 1.839 1_556 S
C4 C121 1.519 . S
C17 C134 1.519 1_655 S
C148 C31 1.692 1_544 S
C82 C49 1.519 . S
C62 C95 1.519 1_455 S
C70 C107 1.692 1_546 S
C146 C10 2.056 1_455 S
C23 C88 2.260 1_565 S
C29 C101 2.056 . S
C109 C43 2.056 1_655 S
C127 C56 2.260 1_565 S
C68 C140 2.056 . S
C3 C133 2.489 . S
C153 C16 2.507 . S
C81 C36 2.506 . S
C44 C94 2.489 . S
C108 C57 2.507 . S
C120 C75 2.506 . S
