# Generated by pormake.
# Topology pcu, (6)-cn, num edge types: 1
# Building blocks:
#     Node 0, Type 0, BuildingBlock: BETDIP_clean_sbu_0, # of connection points: 6
#     Edge 1, Type (0, 0), BuildingBlock: UVAHIK_clean_linker_0, # of connection points: 2
#     Edge 2, Type (0, 0), BuildingBlock: UVAHIK_clean_linker_0, # of connection points: 2
#     Edge 3, Type (0, 0), BuildingBlock: UVAHIK_clean_linker_0, # of connection points: 2
# Relax obj value: 0.000
# Max RMSD: 0.000
# Mean RMSD: 0.000
data_MOF--net-pcu--node1-BETDIP_clean_sbu_0--edge1-UVAHIK_clean_linker_0
_symmetry_space_group_name_H-M    P1
_symmetry_Int_Tables_number       1
_symmetry_cell_setting            triclinic
loop_
_symmetry_equiv_pos_as_xyz
'x, y, z'
_cell_length_a     29.448498
_cell_length_b     19.956679
_cell_length_c     18.64456
_cell_angle_alpha  90.384317
_cell_angle_beta   98.521454
_cell_angle_gamma 125.6602
loop_
_atom_site_label
_atom_site_type_symbol
_atom_site_fract_x
_atom_site_fract_y
_atom_site_fract_z
_atom_type_partial_charge
Tb0 Tb 0.96732 0.93377 0.02303 0.0
Tb1 Tb 0.09121 0.04155 1.00971 0.0
C2 C 0.87425 0.87462 0.0639 0.0
C3 C 0.83297 0.89436 0.0596 0.0
C4 C 0.7942 0.86206 0.10732 0.0
C5 C 0.75323 0.87742 0.10253 0.0
C6 C 0.75008 0.92529 0.04961 0.0
C7 C 0.78992 0.95894 1.00268 0.0
C8 C 0.83105 0.94373 1.00773 0.0
C9 C 0.98663 0.94318 0.88873 0.0
C10 C 0.0326 0.12947 1.01409 0.0
C11 C 0.18444 0.10088 0.96923 0.0
C12 C 0.22566 0.08104 0.97344 0.0
C13 C 0.26443 0.11336 0.92572 0.0
C14 C 0.30536 0.09794 0.93046 0.0
C15 C 0.30848 0.04999 0.98331 0.0
C16 C 0.26864 0.01631 0.03023 0.0
C17 C 0.22754 0.03158 0.02524 0.0
C18 C 0.07158 0.03196 0.14396 0.0
C19 C 1.0259 0.84584 0.01845 0.0
O20 O 0.92398 0.92784 0.10551 0.0
O21 O 0.87847 0.84923 1.002 0.0
O22 O 1.01372 0.00118 0.94017 0.0
O23 O 0.94362 0.87834 0.90981 0.0
O24 O 0.98946 0.05987 0.03345 0.0
O25 O 0.07453 0.13328 0.99158 0.0
O26 O 0.13478 0.04796 0.92735 0.0
O27 O 0.18007 0.1259 0.03121 0.0
O28 O 0.04482 0.97413 0.09242 0.0
O29 O 0.11458 0.09693 0.12299 0.0
O30 O 0.06903 0.91543 0.99907 0.0
O31 O 0.98401 0.84204 0.04106 0.0
H32 H 0.79535 0.82439 0.1481 0.0
H33 H 0.72412 0.85192 0.14054 0.0
H34 H 0.78856 -0.00453 0.9609 0.0
H35 H 0.86084 0.96956 0.97054 0.0
H36 H 0.26331 0.1511 0.885 0.0
H37 H 0.33448 0.12347 0.89245 0.0
H38 H 0.26997 0.97973 0.07197 0.0
H39 H 0.19774 0.00573 0.06242 0.0
C40 C 0.0955 0.09157 0.27357 0.0
C41 C 0.06158 0.02302 0.21968 0.0
C42 C 0.08721 0.08296 0.34581 0.0
C43 C 0.9817 0.94725 0.45944 0.0
H44 H 0.11352 0.05741 0.61615 0.0
C45 C 0.96245 0.88322 0.75915 0.0
C46 C 0.99651 0.95185 0.81295 0.0
C47 C 0.97068 0.89162 0.68688 0.0
C48 C 0.07625 0.02697 0.57309 0.0
H49 H 0.99232 0.89178 0.19866 0.0
H50 H 0.97788 0.87645 0.32489 0.0
H51 H 0.12673 0.07286 0.48972 0.0
H52 H 0.06595 0.08301 0.83376 0.0
H53 H 0.08027 0.09799 0.70749 0.0
H54 H 0.93122 0.90138 0.54282 0.0
C55 C 1.01049 0.93714 0.31135 0.0
C56 C 0.08382 0.03585 0.50058 0.0
C57 C 1.01887 0.94579 0.23911 0.0
C58 C 0.03929 0.02894 0.79339 0.0
C59 C 0.0476 0.03738 0.72112 0.0
C60 C 0.97413 0.93837 0.53196 0.0
C61 C 0.04476 0.00556 0.36568 0.0
C62 C 0.03664 -0.00386 0.44285 0.0
C63 C 1.01321 0.96889 0.66689 0.0
C64 C 1.02131 0.97812 0.5897 0.0
H65 H 0.1286 0.15191 0.25995 0.0
H66 H 0.11379 0.13717 0.38602 0.0
H67 H 0.94443 0.91681 0.41638 0.0
H68 H 0.92929 0.82298 0.77287 0.0
H69 H 0.944 0.83735 0.64675 0.0
C70 C 0.40921 0.10107 0.98144 0.0
C71 C 0.35374 0.0366 0.99013 0.0
C72 C 0.45183 0.08897 0.98788 0.0
C73 C 0.47386 0.92424 0.98155 0.0
H74 H 0.62705 0.10054 0.07964 0.0
C75 C 0.64935 0.87419 0.05146 0.0
C76 C 0.70482 0.93866 0.04276 0.0
C77 C 0.60673 0.88628 0.04501 0.0
C78 C 0.58468 0.05099 0.05131 0.0
H79 H 0.29984 0.90836 1.01204 0.0
H80 H 0.37446 0.88785 0.0249 0.0
H81 H 0.55247 0.12088 0.06899 0.0
H82 H 0.7587 0.06689 0.02079 0.0
H83 H 0.68406 0.08737 1.00791 0.0
H84 H 0.50607 0.85435 0.96387 0.0
C85 C 0.38481 0.9476 1.01216 0.0
C86 C 0.54183 0.06264 0.04522 0.0
C87 C 0.34213 0.95968 1.00565 0.0
C88 C 0.71642 0.01556 0.0272 0.0
C89 C 0.67372 0.02764 0.02068 0.0
C90 C 0.51671 0.91259 0.98765 0.0
C91 C 0.44025 0.01211 1.00337 0.0
C92 C 0.48584 -0.00056 1.01023 0.0
C93 C 0.61829 0.96313 0.02949 0.0
C94 C 0.57271 0.97579 0.02263 0.0
H95 H 0.42004 0.1615 0.97043 0.0
H96 H 0.49379 0.13978 0.97993 0.0
H97 H 0.43149 0.87469 0.95323 0.0
H98 H 0.63853 0.81378 0.06251 0.0
H99 H 0.56477 0.83547 0.05298 0.0
C100 C 0.98165 0.69717 0.03842 0.0
C101 C 1.02654 0.77222 0.0184 0.0
C102 C 0.98231 0.6277 0.03802 0.0
C103 C 0.07913 0.56621 0.04303 0.0
H104 H 0.94039 0.34899 0.9672 0.0
C105 C 0.07684 0.27811 0.99401 0.0
C106 C 0.03194 0.20307 1.01405 0.0
C107 C 0.07617 0.34757 0.99436 0.0
C108 C 0.97935 0.40908 0.98928 0.0
H109 H 0.10744 0.83305 0.98225 0.0
H110 H 0.10823 0.71179 0.98099 0.0
H111 H 0.93924 0.47016 0.96864 0.0
H112 H 0.95104 0.14226 0.05018 0.0
H113 H 0.95023 0.26351 0.05134 0.0
H114 H 0.11924 0.50513 0.06368 0.0
C115 C 0.07283 0.70688 0.99781 0.0
C116 C 0.97868 0.47851 0.99013 0.0
C117 C 0.07216 0.77629 0.99812 0.0
C118 C 0.98632 0.19901 0.03429 0.0
C119 C 0.98564 0.26841 0.03455 0.0
C120 C 0.0798 0.49678 0.04218 0.0
C121 C 1.0279 0.63176 0.01768 0.0
C122 C 1.02856 0.55788 0.01701 0.0
C123 C 0.03058 0.34352 1.01467 0.0
C124 C 0.02992 0.4174 1.0153 0.0
H125 H 0.94592 0.69191 0.05449 0.0
H126 H 0.94739 0.57105 0.05451 0.0
H127 H 0.11809 0.6263 0.06511 0.0
H128 H 0.11257 0.28336 0.97798 0.0
H129 H 0.11109 0.40421 0.97787 0.0
loop_
_geom_bond_atom_site_label_1
_geom_bond_atom_site_label_2
_geom_bond_distance
_geom_bond_site_symmetry_2
_ccdc_geom_bond_type
Tb0 C2 2.809 . S
Tb0 O20 2.484 1_556 S
Tb0 O21 2.440 . S
Tb0 O22 2.658 1_655 S
Tb0 O23 2.409 . S
Tb0 O24 2.378 1_565 S
Tb0 O28 2.325 1_566 S
Tb0 O31 2.341 . S
Tb1 C11 2.809 . S
Tb1 O22 2.325 1_544 S
Tb1 O25 2.341 . S
Tb1 O26 2.484 1_554 S
Tb1 O27 2.440 . S
Tb1 O28 2.658 1_455 S
Tb1 O29 2.409 . S
Tb1 O30 2.378 1_545 S
C2 Tb0 2.809 . S
C2 C3 1.514 . S
C2 O20 1.248 1_556 S
C2 O21 1.266 . S
C3 C2 1.514 . S
C3 C4 1.355 1_566 S
C3 C8 1.348 . S
C4 C3 1.355 1_544 S
C4 C5 1.386 . S
C4 H32 0.927 . S
C5 C4 1.386 . S
C5 C6 1.340 1_544 S
C5 H33 0.931 . S
C6 C5 1.340 1_566 S
C6 C7 1.377 . S
C7 C6 1.377 . S
C7 C8 1.408 . S
C7 H34 0.930 . S
C8 C3 1.348 . S
C8 C7 1.408 . S
C8 H35 0.930 . S
C9 O22 1.281 1_655 S
C9 O23 1.254 . S
C10 O24 1.236 1_455 S
C10 O25 1.266 1_556 S
C11 Tb1 2.809 . S
C11 C12 1.514 . S
C11 O26 1.248 1_554 S
C11 O27 1.266 . S
C12 C11 1.514 . S
C12 C13 1.356 1_544 S
C12 C17 1.348 . S
C13 C12 1.356 1_566 S
C13 C14 1.384 . S
C13 H36 0.927 . S
C14 C13 1.384 . S
C14 C15 1.337 1_566 S
C14 H37 0.931 . S
C15 C14 1.337 1_544 S
C15 C16 1.380 . S
C16 C15 1.380 . S
C16 C17 1.408 . S
C16 H38 0.930 . S
C17 C12 1.348 . S
C17 C16 1.408 . S
C17 H39 0.930 . S
C18 O28 1.281 1_455 S
C18 O29 1.254 . S
C19 O30 1.236 1_655 S
C19 O31 1.266 1_554 S
O20 Tb0 2.484 1_554 S
O20 C2 1.248 1_554 S
O21 Tb0 2.440 . S
O21 C2 1.266 . S
O22 Tb0 2.658 1_455 S
O22 Tb1 2.325 1_566 S
O22 C9 1.281 1_455 S
O23 Tb0 2.409 . S
O23 C9 1.254 . S
O24 Tb0 2.378 1_545 S
O24 C10 1.236 1_655 S
O25 Tb1 2.341 . S
O25 C10 1.266 1_554 S
O26 Tb1 2.484 1_556 S
O26 C11 1.248 1_556 S
O27 Tb1 2.440 . S
O27 C11 1.266 . S
O28 Tb0 2.325 1_544 S
O28 Tb1 2.658 1_655 S
O28 C18 1.281 1_655 S
O29 Tb1 2.409 . S
O29 C18 1.254 . S
O30 Tb1 2.378 1_565 S
O30 C19 1.236 1_455 S
O31 Tb0 2.341 . S
O31 C19 1.266 1_556 S
H32 C4 0.927 . S
H33 C5 0.931 . S
H34 C7 0.930 . S
H35 C8 0.930 . S
H36 C13 0.927 . S
H37 C14 0.931 . S
H38 C16 0.930 . S
H39 C17 0.930 . S
C40 C41 1.349 . S
C40 C42 1.327 . S
C40 H65 0.950 . S
C41 C40 1.349 . S
C41 C57 1.349 1_445 S
C42 C40 1.327 . S
C42 C61 1.429 . S
C42 H66 0.950 . S
C43 C60 1.574 . S
C43 C62 1.368 1_665 S
C43 H67 0.949 . S
H44 C48 0.949 . S
C45 C46 1.349 1_665 S
C45 C47 1.327 . S
C45 H68 0.950 . S
C46 C45 1.349 1_445 S
C46 C58 1.349 . S
C47 C45 1.327 . S
C47 C63 1.429 1_665 S
C47 H69 0.950 . S
C48 H44 0.949 . S
C48 C56 1.574 . S
C48 C64 1.368 . S
H49 C57 0.950 . S
H50 C55 0.950 . S
H51 C56 0.949 . S
H52 C58 0.950 . S
H53 C59 0.950 . S
H54 C60 0.949 . S
C55 H50 0.950 . S
C55 C57 1.327 . S
C55 C61 1.429 1_665 S
C56 C48 1.574 . S
C56 H51 0.949 . S
C56 C62 1.368 . S
C57 C41 1.349 1_665 S
C57 H49 0.950 . S
C57 C55 1.327 . S
C58 C46 1.349 . S
C58 H52 0.950 . S
C58 C59 1.327 . S
C59 H53 0.950 . S
C59 C58 1.327 . S
C59 C63 1.429 . S
C60 C43 1.574 . S
C60 H54 0.949 . S
C60 C64 1.368 1_665 S
C61 C42 1.429 . S
C61 C55 1.429 1_445 S
C61 C62 1.523 . S
C62 C43 1.368 1_445 S
C62 C56 1.368 . S
C62 C61 1.523 . S
C63 C47 1.429 1_445 S
C63 C59 1.429 . S
C63 C64 1.523 . S
C64 C48 1.368 . S
C64 C60 1.368 1_445 S
C64 C63 1.523 . S
H65 C40 0.950 . S
H66 C42 0.950 . S
H67 C43 0.949 . S
H68 C45 0.950 . S
H69 C47 0.950 . S
C70 C71 1.349 1_556 S
C70 C72 1.327 . S
C70 H95 0.950 . S
C71 C70 1.349 1_554 S
C71 C87 1.349 1_545 S
C72 C70 1.327 . S
C72 C91 1.429 1_556 S
C72 H96 0.950 . S
C73 C90 1.574 . S
C73 C92 1.368 1_565 S
C73 H97 0.949 . S
H74 C78 0.949 . S
C75 C76 1.349 1_565 S
C75 C77 1.327 . S
C75 H98 0.950 . S
C76 C75 1.349 1_545 S
C76 C88 1.349 1_554 S
C77 C75 1.327 . S
C77 C93 1.429 1_565 S
C77 H99 0.950 . S
C78 H74 0.949 . S
C78 C86 1.574 . S
C78 C94 1.368 1_556 S
H79 C87 0.950 . S
H80 C85 0.950 . S
H81 C86 0.949 . S
H82 C88 0.950 . S
H83 C89 0.950 . S
H84 C90 0.949 . S
C85 H80 0.950 . S
C85 C87 1.327 . S
C85 C91 1.429 1_565 S
C86 C78 1.574 . S
C86 H81 0.949 . S
C86 C92 1.368 1_556 S
C87 C71 1.349 1_565 S
C87 H79 0.950 . S
C87 C85 1.327 . S
C88 C76 1.349 1_556 S
C88 H82 0.950 . S
C88 C89 1.327 . S
C89 H83 0.950 . S
C89 C88 1.327 . S
C89 C93 1.429 1_556 S
C90 C73 1.574 . S
C90 H84 0.949 . S
C90 C94 1.368 1_565 S
C91 C72 1.429 1_554 S
C91 C85 1.429 1_545 S
C91 C92 1.523 . S
C92 C73 1.368 1_545 S
C92 C86 1.368 1_554 S
C92 C91 1.523 . S
C93 C77 1.429 1_545 S
C93 C89 1.429 1_554 S
C93 C94 1.523 . S
C94 C78 1.368 1_554 S
C94 C90 1.368 1_545 S
C94 C93 1.523 . S
H95 C70 0.950 . S
H96 C72 0.950 . S
H97 C73 0.949 . S
H98 C75 0.950 . S
H99 C77 0.950 . S
C100 C101 1.349 1_655 S
C100 C102 1.327 . S
C100 H125 0.950 . S
C101 C100 1.349 1_455 S
C101 C117 1.349 1_554 S
C102 C100 1.327 . S
C102 C121 1.429 1_655 S
C102 H126 0.950 . S
C103 C120 1.574 . S
C103 C122 1.368 1_556 S
C103 H127 0.949 . S
H104 C108 0.949 . S
C105 C106 1.349 1_556 S
C105 C107 1.327 . S
C105 H128 0.950 . S
C106 C105 1.349 1_554 S
C106 C118 1.349 1_455 S
C107 C105 1.327 . S
C107 C123 1.429 1_556 S
C107 H129 0.950 . S
C108 H104 0.949 . S
C108 C116 1.574 . S
C108 C124 1.368 1_655 S
H109 C117 0.950 . S
H110 C115 0.950 . S
H111 C116 0.949 . S
H112 C118 0.950 . S
H113 C119 0.950 . S
H114 C120 0.949 . S
C115 H110 0.950 . S
C115 C117 1.327 . S
C115 C121 1.429 1_556 S
C116 C108 1.574 . S
C116 H111 0.949 . S
C116 C122 1.368 1_655 S
C117 C101 1.349 1_556 S
C117 H109 0.950 . S
C117 C115 1.327 . S
C118 C106 1.349 1_655 S
C118 H112 0.950 . S
C118 C119 1.327 . S
C119 H113 0.950 . S
C119 C118 1.327 . S
C119 C123 1.429 1_655 S
C120 C103 1.574 . S
C120 H114 0.949 . S
C120 C124 1.368 1_556 S
C121 C102 1.429 1_455 S
C121 C115 1.429 1_554 S
C121 C122 1.523 . S
C122 C103 1.368 1_554 S
C122 C116 1.368 1_455 S
C122 C121 1.523 . S
C123 C107 1.429 1_554 S
C123 C119 1.429 1_455 S
C123 C124 1.523 . S
C124 C108 1.368 1_455 S
C124 C120 1.368 1_554 S
C124 C123 1.523 . S
H125 C100 0.950 . S
H126 C102 0.950 . S
H127 C103 0.949 . S
H128 C105 0.950 . S
H129 C107 0.950 . S
C41 C18 1.451 . S
C46 C9 1.451 1_445 S
C71 C15 1.498 . S
C76 C6 1.498 1_544 S
C101 C19 1.490 1_455 S
C106 C10 1.490 1_554 S
