# Generated by pormake.
# Topology unb, (4)-cn, num edge types: 1
# Building blocks:
#     Node 0, Type 0, BuildingBlock: NAHDIM_clean_sbu_0, # of connection points: 4
#     Node 1, Type 0, BuildingBlock: NAHDIM_clean_sbu_0, # of connection points: 4
#     Node 2, Type 0, BuildingBlock: NAHDIM_clean_sbu_0, # of connection points: 4
#     Node 3, Type 0, BuildingBlock: NAHDIM_clean_sbu_0, # of connection points: 4
#     Node 4, Type 0, BuildingBlock: NAHDIM_clean_sbu_0, # of connection points: 4
#     Node 5, Type 0, BuildingBlock: NAHDIM_clean_sbu_0, # of connection points: 4
#     Node 6, Type 0, BuildingBlock: NAHDIM_clean_sbu_0, # of connection points: 4
#     Node 7, Type 0, BuildingBlock: NAHDIM_clean_sbu_0, # of connection points: 4
#     Node 8, Type 0, BuildingBlock: NAHDIM_clean_sbu_0, # of connection points: 4
#     Node 9, Type 0, BuildingBlock: NAHDIM_clean_sbu_0, # of connection points: 4
#     Node 10, Type 0, BuildingBlock: NAHDIM_clean_sbu_0, # of connection points: 4
#     Node 11, Type 0, BuildingBlock: NAHDIM_clean_sbu_0, # of connection points: 4
#     Node 12, Type 0, BuildingBlock: NAHDIM_clean_sbu_0, # of connection points: 4
#     Node 13, Type 0, BuildingBlock: NAHDIM_clean_sbu_0, # of connection points: 4
#     Node 14, Type 0, BuildingBlock: NAHDIM_clean_sbu_0, # of connection points: 4
#     Node 15, Type 0, BuildingBlock: NAHDIM_clean_sbu_0, # of connection points: 4
#     Node 16, Type 0, BuildingBlock: NAHDIM_clean_sbu_0, # of connection points: 4
#     Node 17, Type 0, BuildingBlock: NAHDIM_clean_sbu_0, # of connection points: 4
#     Edge 18, Type (0, 0), None
#     Edge 19, Type (0, 0), None
#     Edge 20, Type (0, 0), None
#     Edge 21, Type (0, 0), None
#     Edge 22, Type (0, 0), None
#     Edge 23, Type (0, 0), None
#     Edge 24, Type (0, 0), None
#     Edge 25, Type (0, 0), None
#     Edge 26, Type (0, 0), None
#     Edge 27, Type (0, 0), None
#     Edge 28, Type (0, 0), None
#     Edge 29, Type (0, 0), None
#     Edge 30, Type (0, 0), None
#     Edge 31, Type (0, 0), None
#     Edge 32, Type (0, 0), None
#     Edge 33, Type (0, 0), None
#     Edge 34, Type (0, 0), None
#     Edge 35, Type (0, 0), None
#     Edge 36, Type (0, 0), None
#     Edge 37, Type (0, 0), None
#     Edge 38, Type (0, 0), None
#     Edge 39, Type (0, 0), None
#     Edge 40, Type (0, 0), None
#     Edge 41, Type (0, 0), None
#     Edge 42, Type (0, 0), None
#     Edge 43, Type (0, 0), None
#     Edge 44, Type (0, 0), None
#     Edge 45, Type (0, 0), None
#     Edge 46, Type (0, 0), None
#     Edge 47, Type (0, 0), None
#     Edge 48, Type (0, 0), None
#     Edge 49, Type (0, 0), None
#     Edge 50, Type (0, 0), None
#     Edge 51, Type (0, 0), None
#     Edge 52, Type (0, 0), None
#     Edge 53, Type (0, 0), None
# Relax obj value: 0.062
# Max RMSD: 0.063
# Mean RMSD: 0.063
data_MOF--net-unb--node1-NAHDIM_clean_sbu_0--edge1-none
_symmetry_space_group_name_H-M    P1
_symmetry_Int_Tables_number       1
_symmetry_cell_setting            triclinic
loop_
_symmetry_equiv_pos_as_xyz
'x, y, z'
_cell_length_a     29.030842
_cell_length_b     29.030485
_cell_length_c     12.231616
_cell_angle_alpha  89.999841
_cell_angle_beta   89.998684
_cell_angle_gamma 120.00034
loop_
_atom_site_label
_atom_site_type_symbol
_atom_site_fract_x
_atom_site_fract_y
_atom_site_fract_z
_atom_type_partial_charge
C0 C 0.15929 0.30577 0.28559 0.0
O1 O 0.13274 0.25629 0.31972 0.0
O2 O 0.16041 0.21255 0.04284 0.0
Zn3 Zn 0.12939 0.26091 0.06154 0.0
O4 O 0.04929 0.21921 0.07409 0.0
C5 C 0.19163 0.31443 0.87784 0.0
O6 O 0.22504 0.30293 0.926 0.0
O7 O 0.16315 0.31557 0.18367 0.0
C8 C 0.02087 0.20464 0.98797 0.0
O9 O 0.04379 0.2159 0.89153 0.0
C10 C 0.13421 0.16504 0.00755 0.0
O11 O 0.08241 0.14185 -0.00367 0.0
O12 O 0.14749 0.30187 0.92271 0.0
C13 C 0.68051 0.85078 0.28557 0.0
O14 O 0.72999 0.87369 0.31969 0.0
O15 O 0.77372 0.94512 0.04281 0.0
Zn16 Zn 0.72537 0.86574 0.06151 0.0
O17 O 0.76707 0.82734 0.07408 0.0
C18 C 0.67185 0.87446 0.87782 0.0
O19 O 0.68335 0.91937 0.92598 0.0
O20 O 0.67071 0.84485 0.18365 0.0
C21 C 0.78164 0.81348 0.98796 0.0
O22 O 0.77038 0.82515 0.89152 0.0
C23 C 0.82123 0.96643 0.0075 0.0
O24 O 0.84442 0.93782 -0.00371 0.0
O25 O 0.68441 0.84288 0.92269 0.0
C26 C 0.1355 0.82699 0.28562 0.0
O27 O 0.11259 0.85356 0.31974 0.0
O28 O 0.04116 0.82586 0.04286 0.0
Zn29 Zn 0.12054 0.85688 0.06156 0.0
O30 O 0.15894 0.93699 0.0741 0.0
C31 C 0.11182 0.79465 0.87785 0.0
O32 O 0.06691 0.76124 0.92602 0.0
O33 O 0.14143 0.82312 0.18369 0.0
C34 C 0.1728 0.96541 0.98799 0.0
O35 O 0.16113 0.94249 0.89155 0.0
C36 C 0.01986 0.85207 0.00757 0.0
O37 O 0.04847 0.90387 -0.00364 0.0
O38 O 0.1434 0.83878 0.92273 0.0
C39 C 0.30302 0.16208 0.69827 0.0
O40 O 0.25353 0.13579 0.66413 0.0
O41 O 0.2098 0.1631 0.94086 0.0
Zn42 Zn 0.25814 0.13204 0.9223 0.0
O43 O 0.21641 0.05194 0.90984 0.0
C44 C 0.31165 0.19434 0.10594 0.0
O45 O 0.30017 0.22774 0.05767 0.0
O46 O 0.31281 0.16574 0.80017 0.0
C47 C 0.20186 0.02352 -0.00403 0.0
O48 O 0.21315 0.04644 0.0924 0.0
C49 C 0.16231 0.13692 0.97627 0.0
O50 O 0.13913 0.08513 0.98767 0.0
O51 O 0.29908 0.15018 0.06115 0.0
C52 C 0.82419 0.1382 0.69825 0.0
O53 O 0.85046 0.11497 0.66411 0.0
O54 O 0.82318 0.04397 0.94083 0.0
Zn55 Zn 0.85424 0.12336 0.92228 0.0
O56 O 0.93434 0.16174 0.90982 0.0
C57 C 0.79194 0.11457 0.10593 0.0
O58 O 0.75854 0.06969 0.05766 0.0
O59 O 0.82055 0.14435 0.80015 0.0
C60 C 0.96276 0.1756 -0.00405 0.0
O61 O 0.93983 0.16396 0.09238 0.0
C62 C 0.84936 0.02265 0.97623 0.0
O63 O 0.90115 0.05126 0.98763 0.0
O64 O 0.83609 0.14616 0.06113 0.0
C65 C 0.84808 0.68326 0.69828 0.0
O66 O 0.87126 0.73275 0.66414 0.0
O67 O 0.94232 0.77648 0.94087 0.0
Zn68 Zn 0.86293 0.72814 0.92231 0.0
O69 O 0.82455 0.76987 0.90984 0.0
C70 C 0.87171 0.67463 0.10596 0.0
O71 O 0.91659 0.68611 0.05769 0.0
O72 O 0.84195 0.67347 0.80019 0.0
C73 C 0.81068 0.78442 -0.00405 0.0
O74 O 0.82231 0.77313 0.09239 0.0
C75 C 0.96363 0.82397 0.97629 0.0
O76 O 0.93502 0.84715 0.9877 0.0
O77 O 0.84013 0.6872 0.06117 0.0
C78 C 0.82596 0.6391 0.61895 0.0
O79 O 0.79942 0.58962 0.65307 0.0
O80 O 0.82707 0.54589 0.3762 0.0
Zn81 Zn 0.79605 0.59425 0.39489 0.0
O82 O 0.71595 0.55255 0.40744 0.0
C83 C 0.85829 0.64776 0.21119 0.0
O84 O 0.8917 0.63626 0.25936 0.0
O85 O 0.82981 0.6489 0.51703 0.0
C86 C 0.68753 0.53798 0.32132 0.0
O87 O 0.71045 0.54923 0.22488 0.0
C88 C 0.80087 0.49838 0.3409 0.0
O89 O 0.74907 0.47519 0.32969 0.0
O90 O 0.81416 0.6352 0.25607 0.0
C91 C 0.34717 0.18412 0.61893 0.0
O92 O 0.39665 0.20704 0.65305 0.0
O93 O 0.44039 0.27845 0.37617 0.0
Zn94 Zn 0.39203 0.19907 0.39487 0.0
O95 O 0.43373 0.16067 0.40742 0.0
C96 C 0.33852 0.20779 0.21117 0.0
O97 O 0.35002 0.2527 0.25934 0.0
O98 O 0.33737 0.17818 0.51701 0.0
C99 C 0.4483 0.14682 0.3213 0.0
O100 O 0.43704 0.15848 0.22487 0.0
C101 C 0.48789 0.29976 0.34087 0.0
O102 O 0.51109 0.27115 0.32965 0.0
O103 O 0.35107 0.17622 0.25605 0.0
C104 C 0.80216 0.16033 0.61891 0.0
O105 O 0.77927 0.18691 0.65304 0.0
O106 O 0.70782 0.1592 0.37614 0.0
Zn107 Zn 0.7872 0.19022 0.39485 0.0
O108 O 0.8256 0.27032 0.40741 0.0
C109 C 0.77848 0.12798 0.21116 0.0
O110 O 0.73358 0.09457 0.25933 0.0
O111 O 0.80808 0.15645 0.51699 0.0
C112 C 0.83946 0.29875 0.3213 0.0
O113 O 0.8278 0.27583 0.22486 0.0
C114 C 0.68652 0.1854 0.34085 0.0
O115 O 0.71513 0.2372 0.32963 0.0
O116 O 0.81006 0.17212 0.25603 0.0
C117 C 0.96968 0.49541 0.0316 0.0
O118 O 0.92019 0.46908 -0.00253 0.0
O119 O 0.87647 0.49644 0.27422 0.0
Zn120 Zn 0.9248 0.46538 0.25564 0.0
O121 O 0.88308 0.38528 0.24317 0.0
C122 C 0.97831 0.52768 0.43928 0.0
O123 O 0.96684 0.56108 0.39102 0.0
O124 O 0.97948 0.49909 0.13351 0.0
C125 C 0.86852 0.35686 0.32928 0.0
O126 O 0.87981 0.37978 0.42572 0.0
C127 C 0.82897 0.47026 0.30962 0.0
O128 O 0.80579 0.41847 0.32102 0.0
O129 O 0.96574 0.48352 0.39449 0.0
C130 C 0.49086 0.47153 0.0316 0.0
O131 O 0.51713 0.44831 -0.00254 0.0
O132 O 0.48984 0.3773 0.27418 0.0
Zn133 Zn 0.5209 0.45669 0.25563 0.0
O134 O 0.601 0.49507 0.24317 0.0
C135 C 0.4586 0.44789 0.43928 0.0
O136 O 0.4252 0.40301 0.39101 0.0
O137 O 0.48721 0.47767 0.13351 0.0
C138 C 0.62942 0.50893 0.3293 0.0
O139 O 0.60649 0.49729 0.42573 0.0
C140 C 0.51602 0.35598 0.30959 0.0
O141 O 0.56781 0.38459 0.321 0.0
O142 O 0.50276 0.47948 0.39449 0.0
C143 C 0.51475 0.01659 0.03159 0.0
O144 O 0.53798 0.06608 -0.00255 0.0
O145 O 0.60898 0.10981 0.27416 0.0
Zn146 Zn 0.52959 0.06147 0.25562 0.0
O147 O 0.49121 0.1032 0.24316 0.0
C148 C 0.53838 0.00797 0.43927 0.0
O149 O 0.58326 0.01945 0.391 0.0
O150 O 0.5086 0.00679 0.1335 0.0
C151 C 0.47734 0.11775 0.32929 0.0
O152 O 0.48897 0.10646 0.42572 0.0
C153 C 0.63029 0.1573 0.30957 0.0
O154 O 0.60168 0.18048 0.32099 0.0
O155 O 0.50679 0.02053 0.39448 0.0
C156 C 0.49262 0.97243 0.95226 0.0
O157 O 0.46603 0.92295 0.98638 0.0
O158 O 0.49375 0.87922 0.70948 0.0
Zn159 Zn 0.46273 0.92757 0.7282 0.0
O160 O 0.38263 0.88588 0.74076 0.0
C161 C 0.52497 0.9811 0.5445 0.0
O162 O 0.55838 0.9696 0.59266 0.0
O163 O 0.4965 0.98223 0.85034 0.0
C164 C 0.3542 0.87131 0.65465 0.0
O165 O 0.37712 0.88256 0.55821 0.0
C166 C 0.46755 0.83171 0.67419 0.0
O167 O 0.41574 0.80851 0.66299 0.0
O168 O 0.48083 0.96854 0.58938 0.0
C169 C 0.01384 0.51746 0.95226 0.0
O170 O 0.06332 0.54041 0.98639 0.0
O171 O 0.10705 0.61178 0.70952 0.0
Zn172 Zn 0.0587 0.5324 0.72821 0.0
O173 O 0.1004 0.494 0.74075 0.0
C174 C 0.00519 0.54113 0.54451 0.0
O175 O 0.01669 0.58604 0.59268 0.0
O176 O 0.00404 0.5115 0.85035 0.0
C177 C 0.11497 0.48014 0.65463 0.0
O178 O 0.10371 0.49181 0.55819 0.0
C179 C 0.15456 0.63309 0.67422 0.0
O180 O 0.17775 0.60448 0.663 0.0
O181 O 0.01774 0.50955 0.58938 0.0
C182 C 0.46883 0.49365 0.95226 0.0
O183 O 0.44593 0.52023 0.98639 0.0
O184 O 0.37449 0.49253 0.7095 0.0
Zn185 Zn 0.45387 0.52355 0.72821 0.0
O186 O 0.49227 0.60365 0.74076 0.0
C187 C 0.44515 0.46131 0.54451 0.0
O188 O 0.40024 0.4279 0.59267 0.0
O189 O 0.47475 0.48978 0.85034 0.0
C190 C 0.50613 0.63207 0.65464 0.0
O191 O 0.49446 0.60915 0.5582 0.0
C192 C 0.35318 0.51873 0.6742 0.0
O193 O 0.3818 0.57053 0.66299 0.0
O194 O 0.47672 0.50544 0.58938 0.0
C195 C 0.63635 0.82875 0.36491 0.0
O196 O 0.58686 0.80247 0.33078 0.0
O197 O 0.54314 0.82976 0.6075 0.0
Zn198 Zn 0.59147 0.79871 0.58895 0.0
O199 O 0.54975 0.7186 0.57649 0.0
C200 C 0.64498 0.861 0.77259 0.0
O201 O 0.6335 0.89441 0.72432 0.0
O202 O 0.64615 0.8324 0.46682 0.0
C203 C 0.53519 0.69018 0.66262 0.0
O204 O 0.54648 0.71311 0.75905 0.0
C205 C 0.49565 0.80358 0.64291 0.0
O206 O 0.47247 0.75179 0.65432 0.0
O207 O 0.63241 0.81685 0.7278 0.0
C208 C 0.15753 0.80486 0.36495 0.0
O209 O 0.18381 0.78165 0.33081 0.0
O210 O 0.15651 0.71063 0.60754 0.0
Zn211 Zn 0.18757 0.79002 0.58898 0.0
O212 O 0.26767 0.8284 0.57652 0.0
C213 C 0.12527 0.78123 0.77262 0.0
O214 O 0.09187 0.73635 0.72435 0.0
O215 O 0.15388 0.81101 0.46686 0.0
C216 C 0.29609 0.84226 0.66264 0.0
O217 O 0.27317 0.83063 0.75907 0.0
C218 C 0.18269 0.68931 0.64295 0.0
O219 O 0.23448 0.71792 0.65436 0.0
O220 O 0.16943 0.81282 0.72784 0.0
C221 C 0.18141 0.34992 0.36493 0.0
O222 O 0.20461 0.39941 0.33079 0.0
O223 O 0.27565 0.44314 0.60752 0.0
Zn224 Zn 0.19626 0.3948 0.58896 0.0
O225 O 0.15788 0.43653 0.57649 0.0
C226 C 0.20505 0.3413 0.7726 0.0
O227 O 0.24993 0.35277 0.72434 0.0
O228 O 0.17528 0.34013 0.46684 0.0
C229 C 0.14401 0.45108 0.66261 0.0
O230 O 0.15565 0.43979 0.75905 0.0
C231 C 0.29696 0.49063 0.64292 0.0
O232 O 0.26835 0.51381 0.65433 0.0
O233 O 0.17346 0.35387 0.72781 0.0
loop_
_geom_bond_atom_site_label_1
_geom_bond_atom_site_label_2
_geom_bond_distance
_geom_bond_site_symmetry_2
_ccdc_geom_bond_type
C0 O1 1.160 . S
C0 O7 1.185 . S
O1 C0 1.160 . S
O2 Zn3 1.899 . S
O2 C10 1.284 . S
Zn3 O2 1.899 . S
Zn3 O4 2.032 . S
Zn3 O7 2.086 . S
Zn3 O12 1.977 1_554 S
O4 Zn3 2.032 . S
O4 C8 1.278 . S
C5 O6 1.203 . S
C5 O12 1.267 . S
O6 C5 1.203 . S
O7 C0 1.185 . S
O7 Zn3 2.086 . S
C8 O4 1.278 . S
C8 O9 1.211 1_554 S
O9 C8 1.211 1_556 S
C10 O2 1.284 . S
C10 O11 1.273 1_554 S
O11 C10 1.273 1_556 S
O12 Zn3 1.977 1_556 S
O12 C5 1.267 . S
C13 O14 1.160 . S
C13 O20 1.185 . S
O14 C13 1.160 . S
O15 Zn16 1.899 . S
O15 C23 1.284 . S
Zn16 O15 1.899 . S
Zn16 O17 2.032 . S
Zn16 O20 2.086 . S
Zn16 O25 1.977 1_554 S
O17 Zn16 2.032 . S
O17 C21 1.278 . S
C18 O19 1.203 . S
C18 O25 1.267 . S
O19 C18 1.203 . S
O20 C13 1.185 . S
O20 Zn16 2.086 . S
C21 O17 1.278 . S
C21 O22 1.211 1_554 S
O22 C21 1.211 1_556 S
C23 O15 1.284 . S
C23 O24 1.273 1_554 S
O24 C23 1.273 1_556 S
O25 Zn16 1.977 1_556 S
O25 C18 1.267 . S
C26 O27 1.160 . S
C26 O33 1.185 . S
O27 C26 1.160 . S
O28 Zn29 1.899 . S
O28 C36 1.284 . S
Zn29 O28 1.899 . S
Zn29 O30 2.032 . S
Zn29 O33 2.086 . S
Zn29 O38 1.977 1_554 S
O30 Zn29 2.032 . S
O30 C34 1.278 . S
C31 O32 1.203 . S
C31 O38 1.267 . S
O32 C31 1.203 . S
O33 C26 1.185 . S
O33 Zn29 2.086 . S
C34 O30 1.278 . S
C34 O35 1.211 1_554 S
O35 C34 1.211 1_556 S
C36 O28 1.284 . S
C36 O37 1.273 1_554 S
O37 C36 1.273 1_556 S
O38 Zn29 1.977 1_556 S
O38 C31 1.267 . S
C39 O40 1.160 . S
C39 O46 1.185 . S
O40 C39 1.160 . S
O41 Zn42 1.899 . S
O41 C49 1.284 . S
Zn42 O41 1.899 . S
Zn42 O43 2.032 . S
Zn42 O46 2.086 . S
Zn42 O51 1.977 1_556 S
O43 Zn42 2.032 . S
O43 C47 1.278 . S
C44 O45 1.203 . S
C44 O51 1.267 . S
O45 C44 1.203 . S
O46 C39 1.185 . S
O46 Zn42 2.086 . S
C47 O43 1.278 . S
C47 O48 1.211 1_556 S
O48 C47 1.211 1_554 S
C49 O41 1.284 . S
C49 O50 1.273 1_556 S
O50 C49 1.273 1_554 S
O51 Zn42 1.977 1_554 S
O51 C44 1.267 . S
C52 O53 1.160 . S
C52 O59 1.185 . S
O53 C52 1.160 . S
O54 Zn55 1.899 . S
O54 C62 1.284 . S
Zn55 O54 1.899 . S
Zn55 O56 2.032 . S
Zn55 O59 2.086 . S
Zn55 O64 1.977 1_556 S
O56 Zn55 2.032 . S
O56 C60 1.278 . S
C57 O58 1.203 . S
C57 O64 1.267 . S
O58 C57 1.203 . S
O59 C52 1.185 . S
O59 Zn55 2.086 . S
C60 O56 1.278 . S
C60 O61 1.211 1_556 S
O61 C60 1.211 1_554 S
C62 O54 1.284 . S
C62 O63 1.273 1_556 S
O63 C62 1.273 1_554 S
O64 Zn55 1.977 1_554 S
O64 C57 1.267 . S
C65 O66 1.160 . S
C65 O72 1.185 . S
O66 C65 1.160 . S
O67 Zn68 1.899 . S
O67 C75 1.284 . S
Zn68 O67 1.899 . S
Zn68 O69 2.032 . S
Zn68 O72 2.086 . S
Zn68 O77 1.977 1_556 S
O69 Zn68 2.032 . S
O69 C73 1.278 . S
C70 O71 1.203 . S
C70 O77 1.267 . S
O71 C70 1.203 . S
O72 C65 1.185 . S
O72 Zn68 2.086 . S
C73 O69 1.278 . S
C73 O74 1.211 1_556 S
O74 C73 1.211 1_554 S
C75 O67 1.284 . S
C75 O76 1.273 1_556 S
O76 C75 1.273 1_554 S
O77 Zn68 1.977 1_554 S
O77 C70 1.267 . S
C78 O79 1.160 . S
C78 O85 1.185 . S
O79 C78 1.160 . S
O80 Zn81 1.899 . S
O80 C88 1.284 . S
Zn81 O80 1.899 . S
Zn81 O82 2.032 . S
Zn81 O85 2.086 . S
Zn81 O90 1.977 . S
O82 Zn81 2.032 . S
O82 C86 1.278 . S
C83 O84 1.203 . S
C83 O90 1.267 . S
O84 C83 1.203 . S
O85 C78 1.185 . S
O85 Zn81 2.086 . S
C86 O82 1.278 . S
C86 O87 1.211 . S
O87 C86 1.211 . S
C88 O80 1.284 . S
C88 O89 1.273 . S
O89 C88 1.273 . S
O90 Zn81 1.977 . S
O90 C83 1.267 . S
C91 O92 1.160 . S
C91 O98 1.185 . S
O92 C91 1.160 . S
O93 Zn94 1.899 . S
O93 C101 1.284 . S
Zn94 O93 1.899 . S
Zn94 O95 2.032 . S
Zn94 O98 2.086 . S
Zn94 O103 1.977 . S
O95 Zn94 2.032 . S
O95 C99 1.278 . S
C96 O97 1.203 . S
C96 O103 1.267 . S
O97 C96 1.203 . S
O98 C91 1.185 . S
O98 Zn94 2.086 . S
C99 O95 1.278 . S
C99 O100 1.211 . S
O100 C99 1.211 . S
C101 O93 1.284 . S
C101 O102 1.273 . S
O102 C101 1.273 . S
O103 Zn94 1.977 . S
O103 C96 1.267 . S
C104 O105 1.160 . S
C104 O111 1.185 . S
O105 C104 1.160 . S
O106 Zn107 1.899 . S
O106 C114 1.284 . S
Zn107 O106 1.899 . S
Zn107 O108 2.032 . S
Zn107 O111 2.086 . S
Zn107 O116 1.977 . S
O108 Zn107 2.032 . S
O108 C112 1.278 . S
C109 O110 1.203 . S
C109 O116 1.267 . S
O110 C109 1.203 . S
O111 C104 1.185 . S
O111 Zn107 2.086 . S
C112 O108 1.278 . S
C112 O113 1.211 . S
O113 C112 1.211 . S
C114 O106 1.284 . S
C114 O115 1.273 . S
O115 C114 1.273 . S
O116 Zn107 1.977 . S
O116 C109 1.267 . S
C117 O118 1.160 . S
C117 O124 1.185 . S
O118 C117 1.160 . S
O119 Zn120 1.899 . S
O119 C127 1.284 . S
Zn120 O119 1.899 . S
Zn120 O121 2.032 . S
Zn120 O124 2.086 . S
Zn120 O129 1.977 . S
O121 Zn120 2.032 . S
O121 C125 1.278 . S
C122 O123 1.203 . S
C122 O129 1.267 . S
O123 C122 1.203 . S
O124 C117 1.185 . S
O124 Zn120 2.086 . S
C125 O121 1.278 . S
C125 O126 1.211 . S
O126 C125 1.211 . S
C127 O119 1.284 . S
C127 O128 1.273 . S
O128 C127 1.273 . S
O129 Zn120 1.977 . S
O129 C122 1.267 . S
C130 O131 1.160 . S
C130 O137 1.185 . S
O131 C130 1.160 . S
O132 Zn133 1.899 . S
O132 C140 1.284 . S
Zn133 O132 1.899 . S
Zn133 O134 2.032 . S
Zn133 O137 2.086 . S
Zn133 O142 1.977 . S
O134 Zn133 2.032 . S
O134 C138 1.278 . S
C135 O136 1.203 . S
C135 O142 1.267 . S
O136 C135 1.203 . S
O137 C130 1.185 . S
O137 Zn133 2.086 . S
C138 O134 1.278 . S
C138 O139 1.211 . S
O139 C138 1.211 . S
C140 O132 1.284 . S
C140 O141 1.273 . S
O141 C140 1.273 . S
O142 Zn133 1.977 . S
O142 C135 1.267 . S
C143 O144 1.160 . S
C143 O150 1.185 . S
O144 C143 1.160 . S
O145 Zn146 1.899 . S
O145 C153 1.284 . S
Zn146 O145 1.899 . S
Zn146 O147 2.032 . S
Zn146 O150 2.086 . S
Zn146 O155 1.977 . S
O147 Zn146 2.032 . S
O147 C151 1.278 . S
C148 O149 1.203 . S
C148 O155 1.267 . S
O149 C148 1.203 . S
O150 C143 1.185 . S
O150 Zn146 2.086 . S
C151 O147 1.278 . S
C151 O152 1.211 . S
O152 C151 1.211 . S
C153 O145 1.284 . S
C153 O154 1.273 . S
O154 C153 1.273 . S
O155 Zn146 1.977 . S
O155 C148 1.267 . S
C156 O157 1.160 . S
C156 O163 1.185 . S
O157 C156 1.160 . S
O158 Zn159 1.899 . S
O158 C166 1.284 . S
Zn159 O158 1.899 . S
Zn159 O160 2.032 . S
Zn159 O163 2.086 . S
Zn159 O168 1.977 . S
O160 Zn159 2.032 . S
O160 C164 1.278 . S
C161 O162 1.203 . S
C161 O168 1.267 . S
O162 C161 1.203 . S
O163 C156 1.185 . S
O163 Zn159 2.086 . S
C164 O160 1.278 . S
C164 O165 1.211 . S
O165 C164 1.211 . S
C166 O158 1.284 . S
C166 O167 1.273 . S
O167 C166 1.273 . S
O168 Zn159 1.977 . S
O168 C161 1.267 . S
C169 O170 1.160 . S
C169 O176 1.185 . S
O170 C169 1.160 . S
O171 Zn172 1.899 . S
O171 C179 1.284 . S
Zn172 O171 1.899 . S
Zn172 O173 2.032 . S
Zn172 O176 2.086 . S
Zn172 O181 1.977 . S
O173 Zn172 2.032 . S
O173 C177 1.278 . S
C174 O175 1.203 . S
C174 O181 1.267 . S
O175 C174 1.203 . S
O176 C169 1.185 . S
O176 Zn172 2.086 . S
C177 O173 1.278 . S
C177 O178 1.211 . S
O178 C177 1.211 . S
C179 O171 1.284 . S
C179 O180 1.273 . S
O180 C179 1.273 . S
O181 Zn172 1.977 . S
O181 C174 1.267 . S
C182 O183 1.160 . S
C182 O189 1.185 . S
O183 C182 1.160 . S
O184 Zn185 1.899 . S
O184 C192 1.284 . S
Zn185 O184 1.899 . S
Zn185 O186 2.032 . S
Zn185 O189 2.086 . S
Zn185 O194 1.977 . S
O186 Zn185 2.032 . S
O186 C190 1.278 . S
C187 O188 1.203 . S
C187 O194 1.267 . S
O188 C187 1.203 . S
O189 C182 1.185 . S
O189 Zn185 2.086 . S
C190 O186 1.278 . S
C190 O191 1.211 . S
O191 C190 1.211 . S
C192 O184 1.284 . S
C192 O193 1.273 . S
O193 C192 1.273 . S
O194 Zn185 1.977 . S
O194 C187 1.267 . S
C195 O196 1.160 . S
C195 O202 1.185 . S
O196 C195 1.160 . S
O197 Zn198 1.899 . S
O197 C205 1.284 . S
Zn198 O197 1.899 . S
Zn198 O199 2.032 . S
Zn198 O202 2.086 . S
Zn198 O207 1.977 . S
O199 Zn198 2.032 . S
O199 C203 1.278 . S
C200 O201 1.203 . S
C200 O207 1.267 . S
O201 C200 1.203 . S
O202 C195 1.185 . S
O202 Zn198 2.086 . S
C203 O199 1.278 . S
C203 O204 1.211 . S
O204 C203 1.211 . S
C205 O197 1.284 . S
C205 O206 1.273 . S
O206 C205 1.273 . S
O207 Zn198 1.977 . S
O207 C200 1.267 . S
C208 O209 1.160 . S
C208 O215 1.185 . S
O209 C208 1.160 . S
O210 Zn211 1.899 . S
O210 C218 1.284 . S
Zn211 O210 1.899 . S
Zn211 O212 2.032 . S
Zn211 O215 2.086 . S
Zn211 O220 1.977 . S
O212 Zn211 2.032 . S
O212 C216 1.278 . S
C213 O214 1.203 . S
C213 O220 1.267 . S
O214 C213 1.203 . S
O215 C208 1.185 . S
O215 Zn211 2.086 . S
C216 O212 1.278 . S
C216 O217 1.211 . S
O217 C216 1.211 . S
C218 O210 1.284 . S
C218 O219 1.273 . S
O219 C218 1.273 . S
O220 Zn211 1.977 . S
O220 C213 1.267 . S
C221 O222 1.160 . S
C221 O228 1.185 . S
O222 C221 1.160 . S
O223 Zn224 1.899 . S
O223 C231 1.284 . S
Zn224 O223 1.899 . S
Zn224 O225 2.032 . S
Zn224 O228 2.086 . S
Zn224 O233 1.977 . S
O225 Zn224 2.032 . S
O225 C229 1.278 . S
C226 O227 1.203 . S
C226 O233 1.267 . S
O227 C226 1.203 . S
O228 C221 1.185 . S
O228 Zn224 2.086 . S
C229 O225 1.278 . S
C229 O230 1.211 . S
O230 C229 1.211 . S
C231 O223 1.284 . S
C231 O232 1.273 . S
O232 C231 1.273 . S
O233 Zn224 1.977 . S
O233 C226 1.267 . S
C221 C0 1.895 . S
C195 C13 1.895 . S
C208 C26 1.895 . S
C91 C39 1.895 . S
C104 C52 1.895 . S
C65 C78 1.895 . S
C117 C169 1.895 1_654 S
C130 C182 1.895 1_554 S
C143 C156 1.895 1_544 S
C5 C226 0.920 . S
C200 C18 0.920 . S
C31 C213 0.920 . S
C96 C44 0.920 . S
C57 C109 0.920 . S
C70 C83 0.920 . S
C122 C174 0.920 1_655 S
C187 C135 0.920 . S
C161 C148 0.920 1_565 S
C10 C49 1.500 1_554 S
C62 C23 1.500 1_546 S
C75 C36 1.500 1_656 S
C73 C21 1.323 1_556 S
C34 C47 1.323 1_564 S
C60 C8 1.323 1_656 S
C88 C127 1.500 . S
C140 C101 1.500 . S
C153 C114 1.500 . S
C151 C99 1.323 . S
C112 C125 1.323 . S
C138 C86 1.323 . S
C205 C166 1.500 . S
C218 C179 1.500 . S
C192 C231 1.500 . S
C229 C177 1.323 . S
C190 C203 1.323 . S
C216 C164 1.323 . S
