# Generated by pormake.
# Topology wji, (4)-cn, num edge types: 1
# Building blocks:
#     Node 0, Type 0, BuildingBlock: NAHDIM_clean_sbu_0, # of connection points: 4
#     Node 1, Type 0, BuildingBlock: NAHDIM_clean_sbu_0, # of connection points: 4
#     Node 2, Type 0, BuildingBlock: NAHDIM_clean_sbu_0, # of connection points: 4
#     Node 3, Type 0, BuildingBlock: NAHDIM_clean_sbu_0, # of connection points: 4
#     Node 4, Type 0, BuildingBlock: NAHDIM_clean_sbu_0, # of connection points: 4
#     Node 5, Type 0, BuildingBlock: NAHDIM_clean_sbu_0, # of connection points: 4
#     Node 6, Type 0, BuildingBlock: NAHDIM_clean_sbu_0, # of connection points: 4
#     Node 7, Type 0, BuildingBlock: NAHDIM_clean_sbu_0, # of connection points: 4
#     Node 8, Type 0, BuildingBlock: NAHDIM_clean_sbu_0, # of connection points: 4
#     Node 9, Type 0, BuildingBlock: NAHDIM_clean_sbu_0, # of connection points: 4
#     Node 10, Type 0, BuildingBlock: NAHDIM_clean_sbu_0, # of connection points: 4
#     Node 11, Type 0, BuildingBlock: NAHDIM_clean_sbu_0, # of connection points: 4
#     Edge 12, Type (0, 0), None
#     Edge 13, Type (0, 0), None
#     Edge 14, Type (0, 0), None
#     Edge 15, Type (0, 0), None
#     Edge 16, Type (0, 0), None
#     Edge 17, Type (0, 0), None
#     Edge 18, Type (0, 0), None
#     Edge 19, Type (0, 0), None
#     Edge 20, Type (0, 0), None
#     Edge 21, Type (0, 0), None
#     Edge 22, Type (0, 0), None
#     Edge 23, Type (0, 0), None
#     Edge 24, Type (0, 0), None
#     Edge 25, Type (0, 0), None
#     Edge 26, Type (0, 0), None
#     Edge 27, Type (0, 0), None
#     Edge 28, Type (0, 0), None
#     Edge 29, Type (0, 0), None
#     Edge 30, Type (0, 0), None
#     Edge 31, Type (0, 0), None
#     Edge 32, Type (0, 0), None
#     Edge 33, Type (0, 0), None
#     Edge 34, Type (0, 0), None
#     Edge 35, Type (0, 0), None
# Relax obj value: 0.137
# Max RMSD: 0.098
# Mean RMSD: 0.098
data_MOF--net-wji--node1-NAHDIM_clean_sbu_0--edge1-none
_symmetry_space_group_name_H-M    P1
_symmetry_Int_Tables_number       1
_symmetry_cell_setting            triclinic
loop_
_symmetry_equiv_pos_as_xyz
'x, y, z'
_cell_length_a     27.146255
_cell_length_b     27.143974
_cell_length_c     10.459881
_cell_angle_alpha  89.999946
_cell_angle_beta   90.000171
_cell_angle_gamma 120.00754
loop_
_atom_site_label
_atom_site_type_symbol
_atom_site_fract_x
_atom_site_fract_y
_atom_site_fract_z
_atom_type_partial_charge
C0 C 0.39796 0.24829 0.57123 0.0
O1 O 0.39693 0.2783 0.66857 0.0
O2 O 0.46063 0.402 0.42074 0.0
Zn3 Zn 0.38437 0.33054 0.42598 0.0
O4 O 0.3418 0.34253 0.56906 0.0
C5 C 0.32195 0.35147 0.23334 0.0
O6 O 0.31726 0.38188 0.32512 0.0
O7 O 0.39323 0.26247 0.45824 0.0
C8 C 0.29245 0.30886 0.61261 0.0
O9 O 0.26147 0.25806 0.5625 0.0
C10 C 0.50908 0.4065 0.4046 0.0
O11 O 0.51344 0.36087 0.38847 0.0
O12 O 0.34717 0.3236 0.25535 0.0
C13 C 0.13514 0.40531 0.73794 0.0
O14 O 0.10408 0.40424 0.83529 0.0
O15 O 0.04411 0.46799 0.58747 0.0
Zn16 Zn 0.03931 0.39174 0.5927 0.0
O17 O -0.01525 0.34916 0.73579 0.0
C18 C 0.95594 0.32931 0.40007 0.0
O19 O 0.92084 0.32461 0.49185 0.0
O20 O 0.11625 0.40061 0.62495 0.0
C21 C 0.96905 0.29981 0.77933 0.0
O22 O -0.01114 0.26882 0.72922 0.0
C23 C 0.08805 0.51645 0.57132 0.0
O24 O 0.13806 0.52083 0.55518 0.0
O25 O 0.00903 0.35453 0.42208 0.0
C26 C 0.71529 0.14249 0.90458 0.0
O27 O 0.68529 0.11141 0.00191 0.0
O28 O 0.56158 0.05146 0.75406 0.0
Zn29 Zn 0.63303 0.04666 0.75929 0.0
O30 O 0.62103 -0.00791 0.90236 0.0
C31 C 0.6121 0.9633 0.56664 0.0
O32 O 0.58171 0.92819 0.65843 0.0
O33 O 0.7011 0.1236 0.79158 0.0
C34 C 0.65471 0.97642 0.94593 0.0
O35 O 0.70552 -0.00372 0.89588 0.0
C36 C 0.55708 0.09541 0.73793 0.0
O37 O 0.60272 0.14542 0.72181 0.0
O38 O 0.63996 0.0164 0.58865 0.0
C39 C 0.55828 0.72264 0.07122 0.0
O40 O 0.55932 0.69263 0.16856 0.0
O41 O 0.4956 0.56892 0.92074 0.0
Zn42 Zn 0.57186 0.64039 0.92597 0.0
O43 O 0.61443 0.6284 0.06905 0.0
C44 C 0.63428 0.61945 0.73332 0.0
O45 O 0.63898 0.58905 0.82511 0.0
O46 O 0.56301 0.70846 0.95823 0.0
C47 C 0.66378 0.66207 0.1126 0.0
O48 O 0.69476 0.71287 0.06251 0.0
C49 C 0.44715 0.56442 0.9046 0.0
O50 O 0.44279 0.61006 0.88847 0.0
O51 O 0.60906 0.64732 0.75534 0.0
C52 C 0.8211 0.56562 0.23794 0.0
O53 O 0.85215 0.56669 0.33529 0.0
O54 O 0.91214 0.50295 0.08746 0.0
Zn55 Zn 0.91693 0.5792 0.0927 0.0
O56 O 0.97149 0.62178 0.23579 0.0
C57 C 0.0003 0.64163 0.90007 0.0
O58 O 0.0354 0.64632 0.99185 0.0
O59 O 0.84 0.57033 0.12495 0.0
C60 C -0.01281 0.67114 0.27933 0.0
O61 O 0.96739 0.70212 0.2292 0.0
C62 C 0.86819 0.45449 0.07132 0.0
O63 O 0.81819 0.45011 0.05518 0.0
O64 O 0.94721 0.61642 0.92208 0.0
C65 C 0.24095 0.82845 0.40459 0.0
O66 O 0.27096 0.85953 0.50192 0.0
O67 O 0.39468 0.91948 0.25407 0.0
Zn68 Zn 0.32322 0.92428 0.2593 0.0
O69 O 0.33522 0.97885 0.40236 0.0
C70 C 0.34415 0.00763 0.06665 0.0
O71 O 0.37454 0.04275 0.15844 0.0
O72 O 0.25515 0.84734 0.29158 0.0
C73 C 0.30154 -0.00549 0.44594 0.0
O74 O 0.25073 0.97466 0.39589 0.0
C75 C 0.39917 0.87552 0.23794 0.0
O76 O 0.35353 0.82552 0.22181 0.0
O77 O 0.31629 0.95454 0.08866 0.0
C78 C 0.76501 0.55943 0.25934 0.0
O79 O 0.73242 0.5545 0.16173 0.0
O80 O 0.60928 0.47023 0.39251 0.0
Zn81 Zn 0.67149 0.5523 0.40146 0.0
O82 O 0.65374 0.59332 0.26407 0.0
C83 C 0.64949 0.6137 0.60197 0.0
O84 O 0.63678 0.63707 0.50719 0.0
O85 O 0.74787 0.55932 0.37231 0.0
C86 C 0.68555 0.64262 0.2178 0.0
O87 O 0.7374 0.67468 0.26164 0.0
C88 C 0.55968 0.4633 0.40571 0.0
O89 O 0.55374 0.50802 0.4221 0.0
O90 O 0.66712 0.57923 0.57854 0.0
C91 C 0.19105 0.77236 0.42603 0.0
O92 O 0.1634 0.73975 0.32845 0.0
O93 O 0.12452 0.61666 0.55923 0.0
Zn94 Zn 0.10466 0.67885 0.56819 0.0
O95 O 0.04588 0.66109 0.43081 0.0
C96 C 0.02127 0.65685 0.76872 0.0
O97 O -0.01482 0.64414 0.67394 0.0
O98 O 0.17402 0.75524 0.53901 0.0
C99 C 0.02841 0.6929 0.38453 0.0
O100 O 0.04823 0.74476 0.42834 0.0
C101 C 0.08185 0.56705 0.57244 0.0
O102 O 0.03119 0.56108 0.58885 0.0
O103 O 0.07337 0.67448 0.74528 0.0
C104 C 0.40415 0.19839 0.59265 0.0
O105 O 0.40906 0.17072 0.49504 0.0
O106 O 0.49336 0.13189 0.72585 0.0
Zn107 Zn 0.41131 0.11202 0.73478 0.0
O108 O 0.37029 0.05324 0.59739 0.0
C109 C 0.34991 0.0286 0.93529 0.0
O110 O 0.32655 -0.00749 0.84051 0.0
O111 O 0.40429 0.18138 0.70562 0.0
C112 C 0.32099 0.03573 0.55115 0.0
O113 O 0.28892 0.0555 0.59502 0.0
C114 C 0.50029 0.08921 0.73904 0.0
O115 O 0.45557 0.03854 0.75542 0.0
O116 O 0.38437 0.08072 0.91187 0.0
C117 C 0.19123 0.4115 0.75935 0.0
O118 O 0.22382 0.41644 0.66174 0.0
O119 O 0.34695 0.50069 0.89251 0.0
Zn120 Zn 0.28475 0.41863 0.90147 0.0
O121 O 0.3025 0.37761 0.76408 0.0
C122 C 0.30674 0.35722 0.10199 0.0
O123 O 0.31945 0.33385 0.00721 0.0
O124 O 0.20836 0.4116 0.87232 0.0
C125 C 0.27069 0.32831 0.71781 0.0
O126 O 0.21883 0.29625 0.76163 0.0
C127 C 0.39655 0.50763 0.90571 0.0
O128 O 0.40249 0.46291 0.92211 0.0
O129 O 0.28911 0.3917 0.07855 0.0
C130 C 0.7652 0.19858 0.92603 0.0
O131 O 0.79285 0.23118 0.82844 0.0
O132 O 0.83172 0.35428 0.05923 0.0
Zn133 Zn 0.85158 0.29209 0.06819 0.0
O134 O 0.91036 0.30985 0.93081 0.0
C135 C 0.93497 0.31409 0.26871 0.0
O136 O 0.97106 0.3268 0.17393 0.0
O137 O 0.78222 0.2157 0.03901 0.0
C138 C 0.92784 0.27804 0.88454 0.0
O139 O 0.90802 0.22618 0.92836 0.0
C140 C 0.87439 0.4039 0.07243 0.0
O141 O 0.92506 0.40986 0.08884 0.0
O142 O 0.88287 0.29646 0.24528 0.0
C143 C 0.55209 0.77254 0.09264 0.0
O144 O 0.54718 0.80021 0.99503 0.0
O145 O 0.46289 0.83905 0.22584 0.0
Zn146 Zn 0.54494 0.85892 0.23478 0.0
O147 O 0.58596 0.9177 0.09738 0.0
C148 C 0.60635 0.94233 0.43529 0.0
O149 O 0.6297 0.97843 0.3405 0.0
O150 O 0.55196 0.78955 0.20561 0.0
C151 C 0.63526 0.9352 0.05114 0.0
O152 O 0.66733 0.91543 0.095 0.0
C153 C 0.45596 0.88172 0.23904 0.0
O154 O 0.50068 0.93239 0.25543 0.0
O155 O 0.57188 0.89022 0.41186 0.0
loop_
_geom_bond_atom_site_label_1
_geom_bond_atom_site_label_2
_geom_bond_distance
_geom_bond_site_symmetry_2
_ccdc_geom_bond_type
C0 O1 1.160 . S
C0 O7 1.185 . S
O1 C0 1.160 . S
O2 Zn3 1.899 . S
O2 C10 1.284 . S
Zn3 O2 1.899 . S
Zn3 O4 2.032 . S
Zn3 O7 2.086 . S
Zn3 O12 1.977 . S
O4 Zn3 2.032 . S
O4 C8 1.278 . S
C5 O6 1.203 . S
C5 O12 1.267 . S
O6 C5 1.203 . S
O7 C0 1.185 . S
O7 Zn3 2.086 . S
C8 O4 1.278 . S
C8 O9 1.211 . S
O9 C8 1.211 . S
C10 O2 1.284 . S
C10 O11 1.273 . S
O11 C10 1.273 . S
O12 Zn3 1.977 . S
O12 C5 1.267 . S
C13 O14 1.160 . S
C13 O20 1.185 . S
O14 C13 1.160 . S
O15 Zn16 1.899 . S
O15 C23 1.284 . S
Zn16 O15 1.899 . S
Zn16 O17 2.032 . S
Zn16 O20 2.086 . S
Zn16 O25 1.977 . S
O17 Zn16 2.032 . S
O17 C21 1.278 . S
C18 O19 1.203 . S
C18 O25 1.267 . S
O19 C18 1.203 . S
O20 C13 1.185 . S
O20 Zn16 2.086 . S
C21 O17 1.278 . S
C21 O22 1.211 1_455 S
O22 C21 1.211 1_655 S
C23 O15 1.284 . S
C23 O24 1.273 . S
O24 C23 1.273 . S
O25 Zn16 1.977 . S
O25 C18 1.267 . S
C26 O27 1.160 . S
C26 O33 1.185 . S
O27 C26 1.160 . S
O28 Zn29 1.899 . S
O28 C36 1.284 . S
Zn29 O28 1.899 . S
Zn29 O30 2.032 . S
Zn29 O33 2.086 . S
Zn29 O38 1.977 . S
O30 Zn29 2.032 . S
O30 C34 1.278 . S
C31 O32 1.203 . S
C31 O38 1.267 . S
O32 C31 1.203 . S
O33 C26 1.185 . S
O33 Zn29 2.086 . S
C34 O30 1.278 . S
C34 O35 1.211 1_545 S
O35 C34 1.211 1_565 S
C36 O28 1.284 . S
C36 O37 1.273 . S
O37 C36 1.273 . S
O38 Zn29 1.977 . S
O38 C31 1.267 . S
C39 O40 1.160 . S
C39 O46 1.185 1_554 S
O40 C39 1.160 . S
O41 Zn42 1.899 . S
O41 C49 1.284 . S
Zn42 O41 1.899 . S
Zn42 O43 2.032 1_556 S
Zn42 O46 2.086 . S
Zn42 O51 1.977 . S
O43 Zn42 2.032 1_554 S
O43 C47 1.278 . S
C44 O45 1.203 . S
C44 O51 1.267 . S
O45 C44 1.203 . S
O46 C39 1.185 1_556 S
O46 Zn42 2.086 . S
C47 O43 1.278 . S
C47 O48 1.211 . S
O48 C47 1.211 . S
C49 O41 1.284 . S
C49 O50 1.273 . S
O50 C49 1.273 . S
O51 Zn42 1.977 . S
O51 C44 1.267 . S
C52 O53 1.160 . S
C52 O59 1.185 . S
O53 C52 1.160 . S
O54 Zn55 1.899 . S
O54 C62 1.284 . S
Zn55 O54 1.899 . S
Zn55 O56 2.032 . S
Zn55 O59 2.086 . S
Zn55 O64 1.977 1_554 S
O56 Zn55 2.032 . S
O56 C60 1.278 . S
C57 O58 1.203 . S
C57 O64 1.267 . S
O58 C57 1.203 . S
O59 C52 1.185 . S
O59 Zn55 2.086 . S
C60 O56 1.278 . S
C60 O61 1.211 1_655 S
O61 C60 1.211 1_455 S
C62 O54 1.284 . S
C62 O63 1.273 . S
O63 C62 1.273 . S
O64 Zn55 1.977 1_556 S
O64 C57 1.267 . S
C65 O66 1.160 . S
C65 O72 1.185 . S
O66 C65 1.160 . S
O67 Zn68 1.899 . S
O67 C75 1.284 . S
Zn68 O67 1.899 . S
Zn68 O69 2.032 . S
Zn68 O72 2.086 . S
Zn68 O77 1.977 . S
O69 Zn68 2.032 . S
O69 C73 1.278 . S
C70 O71 1.203 . S
C70 O77 1.267 . S
O71 C70 1.203 . S
O72 C65 1.185 . S
O72 Zn68 2.086 . S
C73 O69 1.278 . S
C73 O74 1.211 1_565 S
O74 C73 1.211 1_545 S
C75 O67 1.284 . S
C75 O76 1.273 . S
O76 C75 1.273 . S
O77 Zn68 1.977 . S
O77 C70 1.267 . S
C78 O79 1.160 . S
C78 O85 1.185 . S
O79 C78 1.160 . S
O80 Zn81 1.899 . S
O80 C88 1.284 . S
Zn81 O80 1.899 . S
Zn81 O82 2.032 . S
Zn81 O85 2.086 . S
Zn81 O90 1.977 . S
O82 Zn81 2.032 . S
O82 C86 1.278 . S
C83 O84 1.203 . S
C83 O90 1.267 . S
O84 C83 1.203 . S
O85 C78 1.185 . S
O85 Zn81 2.086 . S
C86 O82 1.278 . S
C86 O87 1.211 . S
O87 C86 1.211 . S
C88 O80 1.284 . S
C88 O89 1.273 . S
O89 C88 1.273 . S
O90 Zn81 1.977 . S
O90 C83 1.267 . S
C91 O92 1.160 . S
C91 O98 1.185 . S
O92 C91 1.160 . S
O93 Zn94 1.899 . S
O93 C101 1.284 . S
Zn94 O93 1.899 . S
Zn94 O95 2.032 . S
Zn94 O98 2.086 . S
Zn94 O103 1.977 . S
O95 Zn94 2.032 . S
O95 C99 1.278 . S
C96 O97 1.203 . S
C96 O103 1.267 . S
O97 C96 1.203 . S
O98 C91 1.185 . S
O98 Zn94 2.086 . S
C99 O95 1.278 . S
C99 O100 1.211 1_455 S
O100 C99 1.211 1_655 S
C101 O93 1.284 . S
C101 O102 1.273 . S
O102 C101 1.273 . S
O103 Zn94 1.977 . S
O103 C96 1.267 . S
C104 O105 1.160 . S
C104 O111 1.185 . S
O105 C104 1.160 . S
O106 Zn107 1.899 . S
O106 C114 1.284 . S
Zn107 O106 1.899 . S
Zn107 O108 2.032 . S
Zn107 O111 2.086 . S
Zn107 O116 1.977 . S
O108 Zn107 2.032 . S
O108 C112 1.278 . S
C109 O110 1.203 . S
C109 O116 1.267 . S
O110 C109 1.203 . S
O111 C104 1.185 . S
O111 Zn107 2.086 . S
C112 O108 1.278 . S
C112 O113 1.211 1_545 S
O113 C112 1.211 1_565 S
C114 O106 1.284 . S
C114 O115 1.273 . S
O115 C114 1.273 . S
O116 Zn107 1.977 . S
O116 C109 1.267 . S
C117 O118 1.160 . S
C117 O124 1.185 . S
O118 C117 1.160 . S
O119 Zn120 1.899 . S
O119 C127 1.284 . S
Zn120 O119 1.899 . S
Zn120 O121 2.032 . S
Zn120 O124 2.086 . S
Zn120 O129 1.977 1_556 S
O121 Zn120 2.032 . S
O121 C125 1.278 . S
C122 O123 1.203 . S
C122 O129 1.267 . S
O123 C122 1.203 . S
O124 C117 1.185 . S
O124 Zn120 2.086 . S
C125 O121 1.278 . S
C125 O126 1.211 . S
O126 C125 1.211 . S
C127 O119 1.284 . S
C127 O128 1.273 . S
O128 C127 1.273 . S
O129 Zn120 1.977 1_554 S
O129 C122 1.267 . S
C130 O131 1.160 . S
C130 O137 1.185 1_556 S
O131 C130 1.160 . S
O132 Zn133 1.899 . S
O132 C140 1.284 . S
Zn133 O132 1.899 . S
Zn133 O134 2.032 1_554 S
Zn133 O137 2.086 . S
Zn133 O142 1.977 . S
O134 Zn133 2.032 1_556 S
O134 C138 1.278 . S
C135 O136 1.203 . S
C135 O142 1.267 . S
O136 C135 1.203 . S
O137 C130 1.185 1_554 S
O137 Zn133 2.086 . S
C138 O134 1.278 . S
C138 O139 1.211 1_655 S
O139 C138 1.211 1_455 S
C140 O132 1.284 . S
C140 O141 1.273 . S
O141 C140 1.273 . S
O142 Zn133 1.977 . S
O142 C135 1.267 . S
C143 O144 1.160 . S
C143 O150 1.185 . S
O144 C143 1.160 . S
O145 Zn146 1.899 . S
O145 C153 1.284 . S
Zn146 O145 1.899 . S
Zn146 O147 2.032 . S
Zn146 O150 2.086 . S
Zn146 O155 1.977 . S
O147 Zn146 2.032 . S
O147 C151 1.278 . S
C148 O149 1.203 . S
C148 O155 1.267 . S
O149 C148 1.203 . S
O150 C143 1.185 . S
O150 Zn146 2.086 . S
C151 O147 1.278 . S
C151 O152 1.211 1_565 S
O152 C151 1.211 1_545 S
C153 O145 1.284 . S
C153 O154 1.273 . S
O154 C153 1.273 . S
O155 Zn146 1.977 . S
O155 C148 1.267 . S
C122 C5 1.271 . S
C18 C135 1.271 1_455 S
C148 C31 1.271 1_565 S
C83 C44 1.271 . S
C96 C57 1.271 1_455 S
C109 C70 1.271 1_546 S
C88 C10 1.392 . S
C23 C101 1.392 . S
C114 C36 1.392 . S
C49 C127 1.392 . S
C140 C62 1.392 . S
C75 C153 1.392 . S
C125 C8 1.273 . S
C138 C21 1.273 1_655 S
C151 C34 1.273 1_564 S
C47 C86 1.273 . S
C99 C60 1.273 1_455 S
C73 C112 1.273 1_565 S
C0 C104 1.628 . S
C117 C13 1.628 . S
C130 C26 1.628 . S
C143 C39 1.628 . S
C78 C52 1.628 . S
C91 C65 1.628 . S
