# Generated by pormake.
# Topology qtz, (4)-cn, num edge types: 1
# Building blocks:
#     Node 0, Type 0, BuildingBlock: QUQFOY_clean_sbu_1, # of connection points: 4
#     Node 1, Type 0, BuildingBlock: QUQFOY_clean_sbu_1, # of connection points: 4
#     Node 2, Type 0, BuildingBlock: QUQFOY_clean_sbu_1, # of connection points: 4
#     Edge 3, Type (0, 0), BuildingBlock: EYOCIG_clean_linker_4, # of connection points: 2
#     Edge 4, Type (0, 0), BuildingBlock: EYOCIG_clean_linker_4, # of connection points: 2
#     Edge 5, Type (0, 0), BuildingBlock: EYOCIG_clean_linker_4, # of connection points: 2
#     Edge 6, Type (0, 0), BuildingBlock: EYOCIG_clean_linker_4, # of connection points: 2
#     Edge 7, Type (0, 0), BuildingBlock: EYOCIG_clean_linker_4, # of connection points: 2
#     Edge 8, Type (0, 0), BuildingBlock: EYOCIG_clean_linker_4, # of connection points: 2
# Relax obj value: 0.041
# Max RMSD: 0.137
# Mean RMSD: 0.102
data_MOF--net-qtz--node1-QUQFOY_clean_sbu_1--edge1-EYOCIG_clean_linker_4
_symmetry_space_group_name_H-M    P1
_symmetry_Int_Tables_number       1
_symmetry_cell_setting            triclinic
loop_
_symmetry_equiv_pos_as_xyz
'x, y, z'
_cell_length_a     19.66282
_cell_length_b     19.354613
_cell_length_c     23.269577
_cell_angle_alpha  89.971716
_cell_angle_beta   90.102121
_cell_angle_gamma 120.73993
loop_
_atom_site_label
_atom_site_type_symbol
_atom_site_fract_x
_atom_site_fract_y
_atom_site_fract_z
_atom_type_partial_charge
O0 O 0.85544 0.5084 0.11516 0.0
Cd1 Cd 0.91992 0.47367 0.16462 0.0
Cd2 Cd 0.02424 0.63281 0.16392 0.0
O3 O 0.93483 0.64 0.12315 0.0
O4 O 0.84254 0.36607 0.19681 0.0
O5 O 0.91213 0.47501 0.25053 0.0
C6 C 0.85927 0.39973 0.2467 0.0
C7 C 0.08626 0.70766 0.24549 0.0
C8 C 0.8715 0.57956 0.10477 0.0
C9 C 0.07148 0.52598 0.10435 0.0
O10 O 0.08774 0.59731 0.11429 0.0
O11 O 0.00854 0.46585 0.12339 0.0
O12 O 0.10218 0.74078 0.19544 0.0
O13 O 0.03346 0.63243 0.24977 0.0
O14 O 0.54842 0.17419 0.45225 0.0
Cd15 Cd 0.44627 0.107 0.49941 0.0
Cd16 Cd 0.49983 1.00031 0.49952 0.0
O17 O 0.59663 0.09318 0.45871 0.0
O18 O 0.41442 0.18442 0.52596 0.0
O19 O 0.4501 0.11859 0.58527 0.0
C20 C 0.42778 0.17013 0.57753 0.0
C21 C 0.51734 0.93655 0.57779 0.0
C22 C 0.60236 0.15833 0.44181 0.0
C23 C 0.34431 0.94942 0.4408 0.0
O24 O 0.39815 0.93347 0.45156 0.0
O25 O 0.34989 1.01443 0.45782 0.0
O26 O 0.53133 0.92265 0.52633 0.0
O27 O 0.49501 0.9881 0.58534 0.0
O28 O 0.39924 0.59755 0.92462 0.0
Cd29 Cd 0.49958 0.63299 0.87626 0.0
Cd30 Cd 0.44196 0.47128 0.8762 0.0
O31 O 0.34657 0.46587 0.91734 0.0
O32 O 0.53321 0.7431 0.84768 0.0
O33 O 0.49362 0.63761 0.79033 0.0
C34 C 0.51765 0.71294 0.79668 0.0
C35 C 0.42443 0.39178 0.79647 0.0
C36 C 0.34385 0.52637 0.93518 0.0
C37 C 0.5975 0.57775 0.93573 0.0
O38 O 0.54214 0.50659 0.925 0.0
O39 O 0.59482 0.63827 0.91782 0.0
O40 O 0.40855 0.36134 0.84736 0.0
O41 O 0.4484 0.46712 0.7903 0.0
C42 C 0.22742 0.50952 1.00103 0.0
C43 C 0.27949 0.51469 0.97084 0.0
C44 C 0.17022 0.50907 0.0377 0.0
C45 C 0.12344 0.51379 0.06831 0.0
C46 C 0.77604 0.31257 0.33524 0.0
C47 C 0.81578 0.355 0.29628 0.0
C48 C 0.72101 0.25969 0.37607 0.0
C49 C 0.66767 0.2122 0.40618 0.0
C50 C 0.52769 0.85364 0.6641 0.0
C51 C 0.52265 0.89206 0.62524 0.0
C52 C 0.52775 0.80474 0.70918 0.0
C53 C 0.52273 0.76171 0.74848 0.0
C54 C 0.71408 0.59473 1.0018 0.0
C55 C 0.6619 0.58942 0.97152 0.0
C56 C 0.77164 0.5955 0.03842 0.0
C57 C 0.81891 0.59117 0.06886 0.0
C58 C 0.2259 0.84838 0.37447 0.0
C59 C 0.27916 0.89569 0.40484 0.0
C60 C 0.17068 0.79553 0.33359 0.0
C61 C 0.13051 0.75292 0.29477 0.0
C62 C 0.41535 0.30064 0.70887 0.0
C63 C 0.41991 0.34336 0.74823 0.0
C64 C 0.41609 0.25217 0.66378 0.0
C65 C 0.42174 0.21414 0.62495 0.0
loop_
_geom_bond_atom_site_label_1
_geom_bond_atom_site_label_2
_geom_bond_distance
_geom_bond_site_symmetry_2
_ccdc_geom_bond_type
O0 Cd1 2.223 . S
O0 C8 1.315 . S
Cd1 O0 2.223 . S
Cd1 O4 2.297 . S
Cd1 O5 2.439 . S
Cd1 O11 2.240 1_655 S
Cd2 O3 2.240 1_455 S
Cd2 O10 2.223 . S
Cd2 O12 2.297 . S
Cd2 O13 2.439 . S
O3 Cd2 2.240 1_655 S
O3 C8 1.279 . S
O4 Cd1 2.297 . S
O4 C6 1.247 . S
O5 Cd1 2.439 . S
O5 C6 1.208 . S
C6 O4 1.247 . S
C6 O5 1.208 . S
C7 O12 1.247 . S
C7 O13 1.208 . S
C8 O0 1.315 . S
C8 O3 1.279 . S
C9 O10 1.315 . S
C9 O11 1.279 . S
O10 Cd2 2.223 . S
O10 C9 1.315 . S
O11 Cd1 2.240 1_455 S
O11 C9 1.279 . S
O12 Cd2 2.297 . S
O12 C7 1.247 . S
O13 Cd2 2.439 . S
O13 C7 1.208 . S
O14 Cd15 2.223 . S
O14 C22 1.315 . S
Cd15 O14 2.223 . S
Cd15 O18 2.297 . S
Cd15 O19 2.439 . S
Cd15 O25 2.240 1_545 S
Cd16 O17 2.240 1_565 S
Cd16 O24 2.223 . S
Cd16 O26 2.297 . S
Cd16 O27 2.439 . S
O17 Cd16 2.240 1_545 S
O17 C22 1.279 . S
O18 Cd15 2.297 . S
O18 C20 1.247 . S
O19 Cd15 2.439 . S
O19 C20 1.208 . S
C20 O18 1.247 . S
C20 O19 1.208 . S
C21 O26 1.247 . S
C21 O27 1.208 . S
C22 O14 1.315 . S
C22 O17 1.279 . S
C23 O24 1.315 . S
C23 O25 1.279 . S
O24 Cd16 2.223 . S
O24 C23 1.315 . S
O25 Cd15 2.240 1_565 S
O25 C23 1.279 . S
O26 Cd16 2.297 . S
O26 C21 1.247 . S
O27 Cd16 2.439 . S
O27 C21 1.208 . S
O28 Cd29 2.223 . S
O28 C36 1.315 . S
Cd29 O28 2.223 . S
Cd29 O32 2.297 . S
Cd29 O33 2.439 . S
Cd29 O39 2.240 . S
Cd30 O31 2.240 . S
Cd30 O38 2.223 . S
Cd30 O40 2.297 . S
Cd30 O41 2.439 . S
O31 Cd30 2.240 . S
O31 C36 1.279 . S
O32 Cd29 2.297 . S
O32 C34 1.247 . S
O33 Cd29 2.439 . S
O33 C34 1.208 . S
C34 O32 1.247 . S
C34 O33 1.208 . S
C35 O40 1.247 . S
C35 O41 1.208 . S
C36 O28 1.315 . S
C36 O31 1.279 . S
C37 O38 1.315 . S
C37 O39 1.279 . S
O38 Cd30 2.223 . S
O38 C37 1.315 . S
O39 Cd29 2.240 . S
O39 C37 1.279 . S
O40 Cd30 2.297 . S
O40 C35 1.247 . S
O41 Cd30 2.439 . S
O41 C35 1.208 . S
C42 C43 1.170 . S
C42 C44 1.380 1_556 S
C43 C42 1.170 . S
C44 C42 1.380 1_554 S
C44 C45 1.170 . S
C45 C44 1.170 . S
C46 C47 1.170 . S
C46 C48 1.380 . S
C47 C46 1.170 . S
C48 C46 1.380 . S
C48 C49 1.170 . S
C49 C48 1.170 . S
C50 C51 1.170 . S
C50 C52 1.380 . S
C51 C50 1.170 . S
C52 C50 1.380 . S
C52 C53 1.170 . S
C53 C52 1.170 . S
C54 C55 1.170 . S
C54 C56 1.380 1_556 S
C55 C54 1.170 . S
C56 C54 1.380 1_554 S
C56 C57 1.170 . S
C57 C56 1.170 . S
C58 C59 1.170 . S
C58 C60 1.380 . S
C59 C58 1.170 . S
C60 C58 1.380 . S
C60 C61 1.170 . S
C61 C60 1.170 . S
C62 C63 1.170 . S
C62 C64 1.380 . S
C63 C62 1.170 . S
C64 C62 1.380 . S
C64 C65 1.170 . S
C65 C64 1.170 . S
C43 C36 1.654 . S
C45 C9 1.671 . S
C47 C6 1.544 . S
C49 C22 1.522 . S
C51 C21 1.398 . S
C53 C34 1.391 . S
C55 C37 1.630 . S
C57 C8 1.657 . S
C59 C23 1.514 . S
C61 C7 1.524 . S
C63 C35 1.382 . S
C65 C20 1.403 . S
