# Generated by pormake.
# Topology lon, (4)-cn, num edge types: 1
# Building blocks:
#     Node 0, Type 0, BuildingBlock: NAHDIM_clean_sbu_0, # of connection points: 4
#     Node 1, Type 0, BuildingBlock: NAHDIM_clean_sbu_0, # of connection points: 4
#     Node 2, Type 0, BuildingBlock: NAHDIM_clean_sbu_0, # of connection points: 4
#     Node 3, Type 0, BuildingBlock: NAHDIM_clean_sbu_0, # of connection points: 4
#     Edge 4, Type (0, 0), BuildingBlock: EYOCIG_clean_linker_4, # of connection points: 2
#     Edge 5, Type (0, 0), BuildingBlock: EYOCIG_clean_linker_4, # of connection points: 2
#     Edge 6, Type (0, 0), BuildingBlock: EYOCIG_clean_linker_4, # of connection points: 2
#     Edge 7, Type (0, 0), BuildingBlock: EYOCIG_clean_linker_4, # of connection points: 2
#     Edge 8, Type (0, 0), BuildingBlock: EYOCIG_clean_linker_4, # of connection points: 2
#     Edge 9, Type (0, 0), BuildingBlock: EYOCIG_clean_linker_4, # of connection points: 2
#     Edge 10, Type (0, 0), BuildingBlock: EYOCIG_clean_linker_4, # of connection points: 2
#     Edge 11, Type (0, 0), BuildingBlock: EYOCIG_clean_linker_4, # of connection points: 2
# Relax obj value: 0.020
# Max RMSD: 0.061
# Mean RMSD: 0.060
data_MOF--net-lon--node1-NAHDIM_clean_sbu_0--edge1-EYOCIG_clean_linker_4
_symmetry_space_group_name_H-M    P1
_symmetry_Int_Tables_number       1
_symmetry_cell_setting            triclinic
loop_
_symmetry_equiv_pos_as_xyz
'x, y, z'
_cell_length_a     20.090056
_cell_length_b     19.563437
_cell_length_c     32.889427
_cell_angle_alpha  88.730818
_cell_angle_beta   90.014231
_cell_angle_gamma 120.83379
loop_
_atom_site_label
_atom_site_type_symbol
_atom_site_fract_x
_atom_site_fract_y
_atom_site_fract_z
_atom_type_partial_charge
C0 C 0.4144 0.60192 0.01644 0.0
O1 O 0.40794 0.64729 0.98866 0.0
O2 O 0.40697 0.7743 0.0456 0.0
Zn3 Zn 0.33792 0.6601 0.06574 0.0
O4 O 0.23399 0.60808 0.03779 0.0
C5 C 0.32499 0.71006 0.14683 0.0
O6 O 0.33218 0.77319 0.12784 0.0
O7 O 0.38905 0.5978 0.05226 0.0
C8 C 0.17569 0.60862 0.05225 0.0
O9 O 0.18151 0.64489 0.08627 0.0
C10 C 0.37917 0.81614 0.03281 0.0
O11 O 0.30394 0.7861 0.03274 0.0
O12 O 0.32466 0.65509 0.12686 0.0
C13 C 0.83061 0.42115 0.51467 0.0
O14 O 0.78072 0.41343 0.48675 0.0
O15 O 0.65126 0.40894 0.54595 0.0
Zn16 Zn 0.69344 0.3392 0.56487 0.0
O17 O 0.63934 0.23377 0.53632 0.0
C18 C 0.62925 0.32473 0.64614 0.0
O19 O 0.57681 0.33395 0.62721 0.0
O20 O 0.80721 0.39455 0.55059 0.0
C21 C 0.58045 0.17145 0.55092 0.0
O22 O 0.55098 0.17306 0.58621 0.0
C23 C 0.58213 0.37926 0.53364 0.0
O24 O 0.53601 0.30177 0.53298 0.0
O25 O 0.6826 0.32348 0.62607 0.0
C26 C 0.41247 0.58518 0.48087 0.0
O27 O 0.37039 0.59296 0.50881 0.0
O28 O 0.24554 0.59754 0.44987 0.0
Zn29 Zn 0.35733 0.66768 0.43114 0.0
O30 O 0.40845 0.77256 0.46021 0.0
C31 C 0.30767 0.68422 0.35021 0.0
O32 O 0.24648 0.67554 0.36939 0.0
O33 O 0.41576 0.61204 0.44499 0.0
C34 C 0.41201 0.83519 0.44589 0.0
O35 O 0.38129 0.83428 0.41058 0.0
C36 C 0.20609 0.62694 0.46262 0.0
O37 O 0.23744 0.70439 0.46392 0.0
O38 O 0.36205 0.68441 0.37001 0.0
C39 C 0.81657 0.40583 0.98055 0.0
O40 O 0.76481 0.36019 0.00825 0.0
O41 O 0.63688 0.23394 0.95111 0.0
Zn42 Zn 0.68219 0.34823 0.93099 0.0
O43 O 0.63013 0.4003 0.95879 0.0
C44 C 0.62084 0.29876 0.84955 0.0
O45 O 0.56499 0.23518 0.86824 0.0
O46 O 0.79538 0.41029 0.94476 0.0
C47 C 0.57121 0.39959 0.94433 0.0
O48 O 0.5408 0.3632 0.91033 0.0
C49 C 0.56731 0.19228 0.96392 0.0
O50 O 0.52223 0.2225 0.96394 0.0
O51 O 0.67474 0.35374 0.86982 0.0
C52 C 0.31706 0.7 0.22706 0.0
C53 C 0.32068 0.70454 0.19043 0.0
C54 C 0.31427 0.6952 0.26998 0.0
C55 C 0.31159 0.69021 0.30661 0.0
C56 C 0.62606 0.31434 0.72639 0.0
C57 C 0.6279 0.31905 0.68975 0.0
C58 C 0.6241 0.30954 0.76931 0.0
C59 C 0.62276 0.30478 0.80595 0.0
C60 C 0.47745 0.51811 0.99519 0.0
C61 C 0.44838 0.55556 0.00591 0.0
C62 C 0.51105 0.47573 0.97982 0.0
C63 C 0.53963 0.44144 0.96424 0.0
C64 C 0.05889 0.53644 0.48432 0.0
C65 C 0.12617 0.57586 0.47418 0.0
C66 C 0.97963 0.49418 0.4956 0.0
C67 C 0.91176 0.46072 0.50469 0.0
C68 C 0.50792 0.04405 0.99102 0.0
C69 C 0.5374 0.11187 0.97839 0.0
C70 C 0.46811 0.96447 0.00593 0.0
C71 C 0.42971 0.8966 0.01846 0.0
C72 C 0.52514 0.46944 0.51145 0.0
C73 C 0.5531 0.43013 0.52179 0.0
C74 C 0.48821 0.51175 0.49998 0.0
C75 C 0.45395 0.54541 0.49081 0.0
C76 C 0.03938 0.53211 0.01692 0.0
C77 C 0.1023 0.56654 0.03239 0.0
C78 C 0.96334 0.4896 0.00172 0.0
C79 C 0.89682 0.45212 0.99111 0.0
C80 C 0.51529 0.03859 0.50964 0.0
C81 C 0.5452 0.09936 0.52839 0.0
C82 C 0.47963 0.96743 0.48767 0.0
C83 C 0.44883 0.90692 0.46872 0.0
loop_
_geom_bond_atom_site_label_1
_geom_bond_atom_site_label_2
_geom_bond_distance
_geom_bond_site_symmetry_2
_ccdc_geom_bond_type
C0 O1 1.160 1_554 S
C0 O7 1.185 . S
O1 C0 1.160 1_556 S
O2 Zn3 1.899 . S
O2 C10 1.284 . S
Zn3 O2 1.899 . S
Zn3 O4 2.032 . S
Zn3 O7 2.086 . S
Zn3 O12 1.977 . S
O4 Zn3 2.032 . S
O4 C8 1.278 . S
C5 O6 1.203 . S
C5 O12 1.267 . S
O6 C5 1.203 . S
O7 C0 1.185 . S
O7 Zn3 2.086 . S
C8 O4 1.278 . S
C8 O9 1.211 . S
O9 C8 1.211 . S
C10 O2 1.284 . S
C10 O11 1.273 . S
O11 C10 1.273 . S
O12 Zn3 1.977 . S
O12 C5 1.267 . S
C13 O14 1.160 . S
C13 O20 1.185 . S
O14 C13 1.160 . S
O15 Zn16 1.899 . S
O15 C23 1.284 . S
Zn16 O15 1.899 . S
Zn16 O17 2.032 . S
Zn16 O20 2.086 . S
Zn16 O25 1.977 . S
O17 Zn16 2.032 . S
O17 C21 1.278 . S
C18 O19 1.203 . S
C18 O25 1.267 . S
O19 C18 1.203 . S
O20 C13 1.185 . S
O20 Zn16 2.086 . S
C21 O17 1.278 . S
C21 O22 1.211 . S
O22 C21 1.211 . S
C23 O15 1.284 . S
C23 O24 1.273 . S
O24 C23 1.273 . S
O25 Zn16 1.977 . S
O25 C18 1.267 . S
C26 O27 1.160 . S
C26 O33 1.185 . S
O27 C26 1.160 . S
O28 Zn29 1.899 . S
O28 C36 1.284 . S
Zn29 O28 1.899 . S
Zn29 O30 2.032 . S
Zn29 O33 2.086 . S
Zn29 O38 1.977 . S
O30 Zn29 2.032 . S
O30 C34 1.278 . S
C31 O32 1.203 . S
C31 O38 1.267 . S
O32 C31 1.203 . S
O33 C26 1.185 . S
O33 Zn29 2.086 . S
C34 O30 1.278 . S
C34 O35 1.211 . S
O35 C34 1.211 . S
C36 O28 1.284 . S
C36 O37 1.273 . S
O37 C36 1.273 . S
O38 Zn29 1.977 . S
O38 C31 1.267 . S
C39 O40 1.160 1_556 S
C39 O46 1.185 . S
O40 C39 1.160 1_554 S
O41 Zn42 1.899 . S
O41 C49 1.284 . S
Zn42 O41 1.899 . S
Zn42 O43 2.032 . S
Zn42 O46 2.086 . S
Zn42 O51 1.977 . S
O43 Zn42 2.032 . S
O43 C47 1.278 . S
C44 O45 1.203 . S
C44 O51 1.267 . S
O45 C44 1.203 . S
O46 C39 1.185 . S
O46 Zn42 2.086 . S
C47 O43 1.278 . S
C47 O48 1.211 . S
O48 C47 1.211 . S
C49 O41 1.284 . S
C49 O50 1.273 . S
O50 C49 1.273 . S
O51 Zn42 1.977 . S
O51 C44 1.267 . S
C52 C53 1.170 . S
C52 C54 1.380 . S
C53 C52 1.170 . S
C54 C52 1.380 . S
C54 C55 1.170 . S
C55 C54 1.170 . S
C56 C57 1.170 . S
C56 C58 1.380 . S
C57 C56 1.170 . S
C58 C56 1.380 . S
C58 C59 1.170 . S
C59 C58 1.170 . S
C60 C61 1.170 . S
C60 C62 1.380 1_554 S
C61 C60 1.170 . S
C62 C60 1.380 1_556 S
C62 C63 1.170 . S
C63 C62 1.170 . S
C64 C65 1.170 . S
C64 C66 1.380 1_455 S
C65 C64 1.170 . S
C66 C64 1.380 1_655 S
C66 C67 1.170 . S
C67 C66 1.170 . S
C68 C69 1.170 . S
C68 C70 1.380 1_546 S
C69 C68 1.170 . S
C70 C68 1.380 1_564 S
C70 C71 1.170 . S
C71 C70 1.170 . S
C72 C73 1.170 . S
C72 C74 1.380 . S
C73 C72 1.170 . S
C74 C72 1.380 . S
C74 C75 1.170 . S
C75 C74 1.170 . S
C76 C77 1.170 . S
C76 C78 1.374 1_454 S
C77 C76 1.170 . S
C78 C76 1.374 1_656 S
C78 C79 1.176 . S
C79 C78 1.176 . S
C80 C81 1.170 . S
C80 C82 1.380 1_545 S
C81 C80 1.170 . S
C82 C80 1.380 1_565 S
C82 C83 1.170 . S
C83 C82 1.170 . S
C53 C5 1.496 . S
C55 C31 1.487 . S
C57 C18 1.495 . S
C59 C44 1.508 . S
C61 C0 1.524 . S
C63 C47 1.519 . S
C65 C36 1.461 . S
C67 C13 1.451 . S
C69 C49 1.415 . S
C71 C10 1.428 . S
C73 C23 1.457 . S
C75 C26 1.439 . S
C77 C8 1.514 . S
C79 C39 1.524 . S
C81 C21 1.544 . S
C83 C34 1.554 . S
