# Generated by pormake.
# Topology umo, (4)-cn, num edge types: 1
# Building blocks:
#     Node 0, Type 0, BuildingBlock: MUDLON_clean_sbu_0, # of connection points: 4
#     Node 1, Type 0, BuildingBlock: MUDLON_clean_sbu_0, # of connection points: 4
#     Node 2, Type 0, BuildingBlock: MUDLON_clean_sbu_0, # of connection points: 4
#     Node 3, Type 0, BuildingBlock: MUDLON_clean_sbu_0, # of connection points: 4
#     Node 4, Type 0, BuildingBlock: MUDLON_clean_sbu_0, # of connection points: 4
#     Node 5, Type 0, BuildingBlock: MUDLON_clean_sbu_0, # of connection points: 4
#     Node 6, Type 0, BuildingBlock: MUDLON_clean_sbu_0, # of connection points: 4
#     Node 7, Type 0, BuildingBlock: MUDLON_clean_sbu_0, # of connection points: 4
#     Node 8, Type 0, BuildingBlock: MUDLON_clean_sbu_0, # of connection points: 4
#     Node 9, Type 0, BuildingBlock: MUDLON_clean_sbu_0, # of connection points: 4
#     Node 10, Type 0, BuildingBlock: MUDLON_clean_sbu_0, # of connection points: 4
#     Node 11, Type 0, BuildingBlock: MUDLON_clean_sbu_0, # of connection points: 4
#     Edge 12, Type (0, 0), BuildingBlock: EYOCIG_clean_linker_4, # of connection points: 2
#     Edge 13, Type (0, 0), BuildingBlock: EYOCIG_clean_linker_4, # of connection points: 2
#     Edge 14, Type (0, 0), BuildingBlock: EYOCIG_clean_linker_4, # of connection points: 2
#     Edge 15, Type (0, 0), BuildingBlock: EYOCIG_clean_linker_4, # of connection points: 2
#     Edge 16, Type (0, 0), BuildingBlock: EYOCIG_clean_linker_4, # of connection points: 2
#     Edge 17, Type (0, 0), BuildingBlock: EYOCIG_clean_linker_4, # of connection points: 2
#     Edge 18, Type (0, 0), BuildingBlock: EYOCIG_clean_linker_4, # of connection points: 2
#     Edge 19, Type (0, 0), BuildingBlock: EYOCIG_clean_linker_4, # of connection points: 2
#     Edge 20, Type (0, 0), BuildingBlock: EYOCIG_clean_linker_4, # of connection points: 2
#     Edge 21, Type (0, 0), BuildingBlock: EYOCIG_clean_linker_4, # of connection points: 2
#     Edge 22, Type (0, 0), BuildingBlock: EYOCIG_clean_linker_4, # of connection points: 2
#     Edge 23, Type (0, 0), BuildingBlock: EYOCIG_clean_linker_4, # of connection points: 2
#     Edge 24, Type (0, 0), BuildingBlock: EYOCIG_clean_linker_4, # of connection points: 2
#     Edge 25, Type (0, 0), BuildingBlock: EYOCIG_clean_linker_4, # of connection points: 2
#     Edge 26, Type (0, 0), BuildingBlock: EYOCIG_clean_linker_4, # of connection points: 2
#     Edge 27, Type (0, 0), BuildingBlock: EYOCIG_clean_linker_4, # of connection points: 2
#     Edge 28, Type (0, 0), BuildingBlock: EYOCIG_clean_linker_4, # of connection points: 2
#     Edge 29, Type (0, 0), BuildingBlock: EYOCIG_clean_linker_4, # of connection points: 2
#     Edge 30, Type (0, 0), BuildingBlock: EYOCIG_clean_linker_4, # of connection points: 2
#     Edge 31, Type (0, 0), BuildingBlock: EYOCIG_clean_linker_4, # of connection points: 2
#     Edge 32, Type (0, 0), BuildingBlock: EYOCIG_clean_linker_4, # of connection points: 2
#     Edge 33, Type (0, 0), BuildingBlock: EYOCIG_clean_linker_4, # of connection points: 2
#     Edge 34, Type (0, 0), BuildingBlock: EYOCIG_clean_linker_4, # of connection points: 2
#     Edge 35, Type (0, 0), BuildingBlock: EYOCIG_clean_linker_4, # of connection points: 2
# Relax obj value: 0.142
# Max RMSD: 0.180
# Mean RMSD: 0.180
data_MOF--net-umo--node1-MUDLON_clean_sbu_0--edge1-EYOCIG_clean_linker_4
_symmetry_space_group_name_H-M    P1
_symmetry_Int_Tables_number       1
_symmetry_cell_setting            triclinic
loop_
_symmetry_equiv_pos_as_xyz
'x, y, z'
_cell_length_a     38.911551
_cell_length_b     38.935475
_cell_length_c     31.244251
_cell_angle_alpha  90.103156
_cell_angle_beta   89.936504
_cell_angle_gamma 119.99544
loop_
_atom_site_label
_atom_site_type_symbol
_atom_site_fract_x
_atom_site_fract_y
_atom_site_fract_z
_atom_type_partial_charge
Mg0 Mg 0.19257 0.53426 0.42463 0.0
C1 C 0.17111 0.55124 0.50887 0.0
O2 O 0.14717 0.55572 0.48294 0.0
C3 C 0.21474 0.50604 0.3513 0.0
O4 O 0.20116 0.52878 0.3374 0.0
C5 C 0.11631 0.52793 0.38442 0.0
O6 O 0.13765 0.56629 0.3782 0.0
O7 O 0.13154 0.5094 0.40213 0.0
O8 O 0.19273 0.53789 0.49428 0.0
O9 O 0.23794 0.59476 0.40891 0.0
C10 C 0.23852 0.62519 0.42442 0.0
O11 O 0.20724 0.62178 0.44411 0.0
O12 O 0.21491 0.50023 0.39137 0.0
Mg13 Mg 0.67282 0.18585 0.59141 0.0
C14 C 0.63452 0.16454 0.67561 0.0
O15 O 0.60589 0.14115 0.64954 0.0
C16 C 0.72305 0.20871 0.51801 0.0
O17 O 0.6867 0.19542 0.50427 0.0
C18 C 0.60236 0.1089 0.55256 0.0
O19 O 0.5841 0.12933 0.54866 0.0
O20 O 0.63696 0.1249 0.56843 0.0
O21 O 0.66957 0.18573 0.6611 0.0
O22 O 0.65758 0.23126 0.57631 0.0
C23 C 0.62718 0.23143 0.59079 0.0
O24 O 0.59873 0.19973 0.60918 0.0
O25 O 0.72913 0.20847 0.55802 0.0
Mg26 Mg 0.50093 0.66553 0.758 0.0
C27 C 0.48359 0.62694 0.84194 0.0
O28 O 0.47865 0.59847 0.81575 0.0
C29 C 0.52908 0.71564 0.68472 0.0
O30 O 0.50602 0.67931 0.67091 0.0
C31 C 0.50703 0.59541 0.71759 0.0
O32 O 0.46866 0.57844 0.71124 0.0
O33 O 0.52558 0.62918 0.7354 0.0
O34 O 0.49736 0.662 0.82764 0.0
O35 O 0.44051 0.65088 0.74239 0.0
C36 C 0.40987 0.62095 0.75736 0.0
O37 O 0.41293 0.59269 0.77643 0.0
O38 O 0.53515 0.72176 0.72477 0.0
Mg39 Mg 0.84884 0.49367 0.92446 0.0
C40 C 0.87141 0.47787 1.00882 0.0
O41 O 0.89621 0.47454 0.98306 0.0
C42 C 0.82642 0.52189 0.85157 0.0
O43 O 0.84013 0.49929 0.83742 0.0
C44 C 0.92551 0.49995 0.88556 0.0
O45 O 0.90492 0.46123 0.88187 0.0
O46 O 0.9097 0.51876 0.90138 0.0
O47 O 0.84888 0.49003 0.9941 0.0
O48 O 0.80392 0.43309 0.90827 0.0
C49 C 0.80253 0.40313 0.92604 0.0
O50 O 0.83275 0.40718 0.94845 0.0
O51 O 0.82619 0.52755 0.89169 0.0
Mg52 Mg 0.36952 0.84194 0.09145 0.0
C53 C 0.4075 0.86422 0.17618 0.0
O54 O 0.43568 0.88935 0.15074 0.0
C55 C 0.31876 0.81963 1.01845 0.0
O56 O 0.35507 0.83352 1.0042 0.0
C57 C 0.43962 0.91863 0.05268 0.0
O58 O 0.4576 0.89793 0.04838 0.0
O59 O 0.40515 0.90289 0.06885 0.0
O60 O 0.37295 0.84156 0.16112 0.0
O61 O 0.38565 0.79744 0.07481 0.0
C62 C 0.41414 0.79604 0.09283 0.0
O63 O 0.4399 0.82604 0.11583 0.0
O64 O 0.31296 0.81923 0.0586 0.0
Mg65 Mg 0.54198 0.36326 0.25713 0.0
C66 C 0.55693 0.40082 0.34223 0.0
O67 O 0.55933 0.42887 0.31708 0.0
C68 C 0.51286 0.31236 0.18412 0.0
O69 O 0.53468 0.34865 0.16973 0.0
C70 C 0.53547 0.43325 0.2183 0.0
O71 O 0.57411 0.45092 0.2138 0.0
O72 O 0.51663 0.39891 0.23465 0.0
O73 O 0.54581 0.36655 0.32682 0.0
O74 O 0.60264 0.3796 0.24021 0.0
C75 C 0.63224 0.40695 0.2599 0.0
O76 O 0.62759 0.43135 0.28488 0.0
O77 O 0.5081 0.30666 0.22433 0.0
Mg78 Mg 0.50018 0.84155 0.45072 0.0
C79 C 0.48437 0.86392 0.36614 0.0
O80 O 0.48123 0.88893 0.39174 0.0
C81 C 0.52852 0.81888 0.52345 0.0
O82 O 0.50617 0.83279 0.53785 0.0
C83 C 0.50721 0.91867 0.48931 0.0
O84 O 0.46845 0.89844 0.49274 0.0
O85 O 0.5258 0.90251 0.47373 0.0
O86 O 0.49635 0.84131 0.38104 0.0
O87 O 0.43952 0.79697 0.46716 0.0
C88 C 0.40959 0.79558 0.44923 0.0
O89 O 0.41378 0.82567 0.42653 0.0
O90 O 0.53393 0.81859 0.48328 0.0
Mg91 Mg 0.67226 0.49299 0.61697 0.0
C92 C 0.63463 0.47748 0.53219 0.0
O93 O 0.60644 0.47449 0.55763 0.0
C94 C 0.72274 0.52166 0.6902 0.0
O95 O 0.68637 0.49947 0.70433 0.0
C96 C 0.60256 0.49998 0.6566 0.0
O97 O 0.58528 0.46157 0.66261 0.0
O98 O 0.63651 0.51843 0.63917 0.0
O99 O 0.66912 0.48921 0.5473 0.0
O100 O 0.65607 0.43236 0.63353 0.0
C101 C 0.62772 0.40249 0.61527 0.0
O102 O 0.60214 0.40677 0.59203 0.0
O103 O 0.7287 0.52685 0.65006 0.0
Mg104 Mg 0.19262 0.66534 0.78412 0.0
C105 C 0.17006 0.62737 0.6993 0.0
O106 O 0.14489 0.59923 0.72474 0.0
C107 C 0.21459 0.71599 0.8572 0.0
O108 O 0.20041 0.67966 0.87134 0.0
C109 C 0.11572 0.59498 0.82234 0.0
O110 O 0.13618 0.57668 0.82561 0.0
O111 O 0.13167 0.62973 0.80697 0.0
O112 O 0.19286 0.66185 0.71442 0.0
O113 O 0.23732 0.64944 0.8006 0.0
C114 C 0.2394 0.62169 0.78158 0.0
O115 O 0.20996 0.59651 0.75755 0.0
O116 O 0.21528 0.72187 0.81706 0.0
Mg117 Mg 0.54145 0.18531 0.95082 0.0
C118 C 0.55708 0.16264 0.8661 0.0
O119 O 0.55975 0.13733 0.89155 0.0
C120 C 0.51244 0.20744 0.02355 0.0
O121 O 0.53442 0.19316 0.03798 0.0
C122 C 0.5348 0.10874 0.98983 0.0
O123 O 0.57347 0.1295 0.99408 0.0
O124 O 0.51605 0.1244 0.9736 0.0
O125 O 0.54552 0.18557 0.88116 0.0
O126 O 0.60199 0.22988 0.96774 0.0
C127 C 0.63181 0.23218 0.94847 0.0
O128 O 0.62756 0.20301 0.92396 0.0
O129 O 0.50749 0.20811 0.98335 0.0
Mg130 Mg 0.37005 0.53484 0.11721 0.0
C131 C 0.40785 0.54972 0.03225 0.0
O132 O 0.43598 0.55245 0.05756 0.0
C133 C 0.31908 0.50648 0.19011 0.0
O134 O 0.35536 0.52869 0.20447 0.0
C135 C 0.44067 0.52845 0.15478 0.0
O136 O 0.45942 0.56728 0.15686 0.0
O137 O 0.40555 0.50953 0.14031 0.0
O138 O 0.37347 0.53837 0.04751 0.0
O139 O 0.38634 0.59553 0.13371 0.0
C140 C 0.41414 0.62517 0.11457 0.0
O141 O 0.43906 0.62059 0.0904 0.0
O142 O 0.31338 0.50119 0.14994 0.0
Mg143 Mg 0.84918 0.3622 0.28287 0.0
C144 C 0.87006 0.40098 0.19919 0.0
O145 O 0.89257 0.42966 0.22567 0.0
C146 C 0.82622 0.31201 0.35613 0.0
O147 O 0.83901 0.34827 0.36989 0.0
C148 C 0.9257 0.43285 0.32239 0.0
O149 O 0.90492 0.45069 0.32698 0.0
O150 O 0.91003 0.39848 0.30595 0.0
O151 O 0.84964 0.3657 0.21322 0.0
O152 O 0.80316 0.37673 0.29761 0.0
C153 C 0.80333 0.40776 0.28495 0.0
O154 O 0.83566 0.43732 0.26881 0.0
O155 O 0.82685 0.30597 0.31615 0.0
C156 C 0.30652 0.69205 0.43368 0.0
C157 C 0.27581 0.66124 0.42907 0.0
C158 C 0.34243 0.72771 0.44112 0.0
C159 C 0.37347 0.75823 0.44548 0.0
C160 C 0.62803 0.29928 0.60036 0.0
C161 C 0.62814 0.26857 0.59571 0.0
C162 C 0.62832 0.33523 0.60766 0.0
C163 C 0.62891 0.36632 0.61182 0.0
C164 C 0.30752 0.62278 0.77408 0.0
C165 C 0.27695 0.62324 0.77831 0.0
C166 C 0.34318 0.62246 0.76671 0.0
C167 C 0.3739 0.62238 0.76208 0.0
C168 C 0.73449 0.3362 0.93422 0.0
C169 C 0.76512 0.36711 0.92988 0.0
C170 C 0.69867 0.3004 0.94136 0.0
C171 C 0.66772 0.26977 0.94543 0.0
C172 C 0.41337 0.72814 0.1004 0.0
C173 C 0.41294 0.75871 0.09633 0.0
C174 C 0.41334 0.6923 0.10734 0.0
C175 C 0.41286 0.66127 0.11137 0.0
C176 C 0.73546 0.40668 0.27448 0.0
C177 C 0.76624 0.40679 0.27945 0.0
C178 C 0.69946 0.40624 0.26697 0.0
C179 C 0.66833 0.40556 0.26283 0.0
C180 C 0.1784 0.60252 0.62351 0.0
C181 C 0.17658 0.61646 0.65738 0.0
C182 C 0.17863 0.58341 0.58507 0.0
C183 C 0.17718 0.56794 0.5511 0.0
C184 C 0.61014 0.17163 0.75211 0.0
C185 C 0.62414 0.17039 0.71806 0.0
C186 C 0.5907 0.17118 0.79055 0.0
C187 C 0.57477 0.16921 0.82435 0.0
C188 C 0.43264 0.58294 0.95657 0.0
C189 C 0.41876 0.56718 0.99042 0.0
C190 C 0.45168 0.60229 0.91817 0.0
C191 C 0.46708 0.61634 0.88422 0.0
C192 C 0.86303 0.42539 0.12281 0.0
C193 C 0.86431 0.41136 0.15677 0.0
C194 C 0.86331 0.44476 0.08447 0.0
C195 C 0.86505 0.46053 0.05069 0.0
C196 C 0.4323 0.85601 0.25194 0.0
C197 C 0.41834 0.85776 0.21809 0.0
C198 C 0.45151 0.85594 0.29031 0.0
C199 C 0.46716 0.85758 0.32417 0.0
C200 C 0.59043 0.42565 0.41785 0.0
C201 C 0.57457 0.41176 0.38402 0.0
C202 C 0.60982 0.44477 0.45624 0.0
C203 C 0.62383 0.46034 0.49016 0.0
C204 C 1.00086 0.46861 0.34696 0.0
C205 C 0.96657 0.45224 0.33573 0.0
C206 C 0.04108 0.48868 0.36009 0.0
C207 C 0.0754 0.50654 0.37121 0.0
C208 C 0.54685 0.99369 0.51431 0.0
C209 C 0.52892 0.95947 0.50285 0.0
C210 C 0.56689 0.03383 0.52771 0.0
C211 C 0.58318 0.06807 0.53909 0.0
C212 C 0.54625 0.5593 0.69353 0.0
C213 C 0.52838 0.5758 0.70452 0.0
C214 C 0.56648 0.53924 0.6806 0.0
C215 C 0.58306 0.52145 0.66959 0.0
C216 C 0.04067 0.55923 0.84723 0.0
C217 C 0.07491 0.57564 0.83584 0.0
C218 C 1.00054 0.53916 0.86061 0.0
C219 C 0.9663 0.52135 0.87202 0.0
C220 C 0.49553 0.03374 1.01462 0.0
C221 C 0.51338 0.06796 1.00328 0.0
C222 C 0.47542 0.99364 0.02794 0.0
C223 C 0.45898 0.95942 0.03927 0.0
C224 C 0.47636 0.48924 0.18003 0.0
C225 C 0.45998 0.50703 0.16848 0.0
C226 C 0.4964 0.4692 0.19347 0.0
C227 C 0.51417 0.45275 0.20482 0.0
C228 C 0.24664 0.48521 0.2897 0.0
C229 C 0.23296 0.49231 0.32094 0.0
C230 C 0.26593 0.48536 0.25124 0.0
C231 C 0.28691 0.49266 0.22017 0.0
C232 C 0.79468 0.25948 0.41778 0.0
C233 C 0.80828 0.28016 0.38652 0.0
C234 C 0.77562 0.24043 0.45631 0.0
C235 C 0.75491 0.2268 0.48757 0.0
C236 C 0.54997 0.76807 0.62302 0.0
C237 C 0.54289 0.74745 0.6543 0.0
C238 C 0.54977 0.78705 0.58453 0.0
C239 C 0.54244 0.80065 0.55346 0.0
C240 C 0.79465 0.54287 0.79019 0.0
C241 C 0.80824 0.53571 0.82138 0.0
C242 C 0.77553 0.54276 0.75167 0.0
C243 C 0.75472 0.53546 0.72048 0.0
C244 C 0.26579 0.78788 0.95715 0.0
C245 C 0.28668 0.80145 0.98829 0.0
C246 C 0.2466 0.7688 0.91866 0.0
C247 C 0.23294 0.748 0.88745 0.0
C248 C 0.49171 0.25918 0.12299 0.0
C249 C 0.49909 0.28021 0.15404 0.0
C250 C 0.49157 0.23979 0.08462 0.0
C251 C 0.49877 0.22599 0.05356 0.0
loop_
_geom_bond_atom_site_label_1
_geom_bond_atom_site_label_2
_geom_bond_distance
_geom_bond_site_symmetry_2
_ccdc_geom_bond_type
Mg0 O7 2.141 . S
Mg0 O8 2.048 . S
Mg0 O9 2.048 . S
Mg0 O12 2.141 . S
C1 O2 1.313 . S
C1 O8 1.195 . S
O2 C1 1.313 . S
C3 O4 1.245 . S
C3 O12 1.289 . S
O4 C3 1.245 . S
C5 O6 1.245 . S
C5 O7 1.289 . S
O6 C5 1.245 . S
O7 Mg0 2.141 . S
O7 C5 1.289 . S
O8 Mg0 2.048 . S
O8 C1 1.195 . S
O9 Mg0 2.048 . S
O9 C10 1.195 . S
C10 O9 1.195 . S
C10 O11 1.313 . S
O11 C10 1.313 . S
O12 Mg0 2.141 . S
O12 C3 1.289 . S
Mg13 O20 2.141 . S
Mg13 O21 2.048 . S
Mg13 O22 2.048 . S
Mg13 O25 2.141 . S
C14 O15 1.313 . S
C14 O21 1.195 . S
O15 C14 1.313 . S
C16 O17 1.245 . S
C16 O25 1.289 . S
O17 C16 1.245 . S
C18 O19 1.245 . S
C18 O20 1.289 . S
O19 C18 1.245 . S
O20 Mg13 2.141 . S
O20 C18 1.289 . S
O21 Mg13 2.048 . S
O21 C14 1.195 . S
O22 Mg13 2.048 . S
O22 C23 1.195 . S
C23 O22 1.195 . S
C23 O24 1.313 . S
O24 C23 1.313 . S
O25 Mg13 2.141 . S
O25 C16 1.289 . S
Mg26 O33 2.141 . S
Mg26 O34 2.048 . S
Mg26 O35 2.048 . S
Mg26 O38 2.141 . S
C27 O28 1.313 . S
C27 O34 1.195 . S
O28 C27 1.313 . S
C29 O30 1.245 . S
C29 O38 1.289 . S
O30 C29 1.245 . S
C31 O32 1.245 . S
C31 O33 1.289 . S
O32 C31 1.245 . S
O33 Mg26 2.141 . S
O33 C31 1.289 . S
O34 Mg26 2.048 . S
O34 C27 1.195 . S
O35 Mg26 2.048 . S
O35 C36 1.195 . S
C36 O35 1.195 . S
C36 O37 1.313 . S
O37 C36 1.313 . S
O38 Mg26 2.141 . S
O38 C29 1.289 . S
Mg39 O46 2.141 . S
Mg39 O47 2.048 . S
Mg39 O48 2.048 . S
Mg39 O51 2.141 . S
C40 O41 1.313 . S
C40 O47 1.195 . S
O41 C40 1.313 . S
C42 O43 1.245 . S
C42 O51 1.289 . S
O43 C42 1.245 . S
C44 O45 1.245 . S
C44 O46 1.289 . S
O45 C44 1.245 . S
O46 Mg39 2.141 . S
O46 C44 1.289 . S
O47 Mg39 2.048 . S
O47 C40 1.195 . S
O48 Mg39 2.048 . S
O48 C49 1.195 . S
C49 O48 1.195 . S
C49 O50 1.313 . S
O50 C49 1.313 . S
O51 Mg39 2.141 . S
O51 C42 1.289 . S
Mg52 O59 2.141 . S
Mg52 O60 2.048 . S
Mg52 O61 2.048 . S
Mg52 O64 2.141 . S
C53 O54 1.313 . S
C53 O60 1.195 . S
O54 C53 1.313 . S
C55 O56 1.245 . S
C55 O64 1.289 1_556 S
O56 C55 1.245 . S
C57 O58 1.245 . S
C57 O59 1.289 . S
O58 C57 1.245 . S
O59 Mg52 2.141 . S
O59 C57 1.289 . S
O60 Mg52 2.048 . S
O60 C53 1.195 . S
O61 Mg52 2.048 . S
O61 C62 1.195 . S
C62 O61 1.195 . S
C62 O63 1.313 . S
O63 C62 1.313 . S
O64 Mg52 2.141 . S
O64 C55 1.289 1_554 S
Mg65 O72 2.141 . S
Mg65 O73 2.048 . S
Mg65 O74 2.048 . S
Mg65 O77 2.141 . S
C66 O67 1.313 . S
C66 O73 1.195 . S
O67 C66 1.313 . S
C68 O69 1.245 . S
C68 O77 1.289 . S
O69 C68 1.245 . S
C70 O71 1.245 . S
C70 O72 1.289 . S
O71 C70 1.245 . S
O72 Mg65 2.141 . S
O72 C70 1.289 . S
O73 Mg65 2.048 . S
O73 C66 1.195 . S
O74 Mg65 2.048 . S
O74 C75 1.195 . S
C75 O74 1.195 . S
C75 O76 1.313 . S
O76 C75 1.313 . S
O77 Mg65 2.141 . S
O77 C68 1.289 . S
Mg78 O85 2.141 . S
Mg78 O86 2.048 . S
Mg78 O87 2.048 . S
Mg78 O90 2.141 . S
C79 O80 1.313 . S
C79 O86 1.195 . S
O80 C79 1.313 . S
C81 O82 1.245 . S
C81 O90 1.289 . S
O82 C81 1.245 . S
C83 O84 1.245 . S
C83 O85 1.289 . S
O84 C83 1.245 . S
O85 Mg78 2.141 . S
O85 C83 1.289 . S
O86 Mg78 2.048 . S
O86 C79 1.195 . S
O87 Mg78 2.048 . S
O87 C88 1.195 . S
C88 O87 1.195 . S
C88 O89 1.313 . S
O89 C88 1.313 . S
O90 Mg78 2.141 . S
O90 C81 1.289 . S
Mg91 O98 2.141 . S
Mg91 O99 2.048 . S
Mg91 O100 2.048 . S
Mg91 O103 2.141 . S
C92 O93 1.313 . S
C92 O99 1.195 . S
O93 C92 1.313 . S
C94 O95 1.245 . S
C94 O103 1.289 . S
O95 C94 1.245 . S
C96 O97 1.245 . S
C96 O98 1.289 . S
O97 C96 1.245 . S
O98 Mg91 2.141 . S
O98 C96 1.289 . S
O99 Mg91 2.048 . S
O99 C92 1.195 . S
O100 Mg91 2.048 . S
O100 C101 1.195 . S
C101 O100 1.195 . S
C101 O102 1.313 . S
O102 C101 1.313 . S
O103 Mg91 2.141 . S
O103 C94 1.289 . S
Mg104 O111 2.141 . S
Mg104 O112 2.048 . S
Mg104 O113 2.048 . S
Mg104 O116 2.141 . S
C105 O106 1.313 . S
C105 O112 1.195 . S
O106 C105 1.313 . S
C107 O108 1.245 . S
C107 O116 1.289 . S
O108 C107 1.245 . S
C109 O110 1.245 . S
C109 O111 1.289 . S
O110 C109 1.245 . S
O111 Mg104 2.141 . S
O111 C109 1.289 . S
O112 Mg104 2.048 . S
O112 C105 1.195 . S
O113 Mg104 2.048 . S
O113 C114 1.195 . S
C114 O113 1.195 . S
C114 O115 1.313 . S
O115 C114 1.313 . S
O116 Mg104 2.141 . S
O116 C107 1.289 . S
Mg117 O124 2.141 . S
Mg117 O125 2.048 . S
Mg117 O126 2.048 . S
Mg117 O129 2.141 . S
C118 O119 1.313 . S
C118 O125 1.195 . S
O119 C118 1.313 . S
C120 O121 1.245 . S
C120 O129 1.289 1_554 S
O121 C120 1.245 . S
C122 O123 1.245 . S
C122 O124 1.289 . S
O123 C122 1.245 . S
O124 Mg117 2.141 . S
O124 C122 1.289 . S
O125 Mg117 2.048 . S
O125 C118 1.195 . S
O126 Mg117 2.048 . S
O126 C127 1.195 . S
C127 O126 1.195 . S
C127 O128 1.313 . S
O128 C127 1.313 . S
O129 Mg117 2.141 . S
O129 C120 1.289 1_556 S
Mg130 O137 2.141 . S
Mg130 O138 2.048 . S
Mg130 O139 2.048 . S
Mg130 O142 2.141 . S
C131 O132 1.313 . S
C131 O138 1.195 . S
O132 C131 1.313 . S
C133 O134 1.245 . S
C133 O142 1.289 . S
O134 C133 1.245 . S
C135 O136 1.245 . S
C135 O137 1.289 . S
O136 C135 1.245 . S
O137 Mg130 2.141 . S
O137 C135 1.289 . S
O138 Mg130 2.048 . S
O138 C131 1.195 . S
O139 Mg130 2.048 . S
O139 C140 1.195 . S
C140 O139 1.195 . S
C140 O141 1.313 . S
O141 C140 1.313 . S
O142 Mg130 2.141 . S
O142 C133 1.289 . S
Mg143 O150 2.141 . S
Mg143 O151 2.048 . S
Mg143 O152 2.048 . S
Mg143 O155 2.141 . S
C144 O145 1.313 . S
C144 O151 1.195 . S
O145 C144 1.313 . S
C146 O147 1.245 . S
C146 O155 1.289 . S
O147 C146 1.245 . S
C148 O149 1.245 . S
C148 O150 1.289 . S
O149 C148 1.245 . S
O150 Mg143 2.141 . S
O150 C148 1.289 . S
O151 Mg143 2.048 . S
O151 C144 1.195 . S
O152 Mg143 2.048 . S
O152 C153 1.195 . S
C153 O152 1.195 . S
C153 O154 1.313 . S
O154 C153 1.313 . S
O155 Mg143 2.141 . S
O155 C146 1.289 . S
C156 C157 1.170 . S
C156 C158 1.380 . S
C157 C156 1.170 . S
C158 C156 1.380 . S
C158 C159 1.170 . S
C159 C158 1.170 . S
C160 C161 1.170 . S
C160 C162 1.380 . S
C161 C160 1.170 . S
C162 C160 1.380 . S
C162 C163 1.170 . S
C163 C162 1.170 . S
C164 C165 1.170 . S
C164 C166 1.380 . S
C165 C164 1.170 . S
C166 C164 1.380 . S
C166 C167 1.170 . S
C167 C166 1.170 . S
C168 C169 1.170 . S
C168 C170 1.380 . S
C169 C168 1.170 . S
C170 C168 1.380 . S
C170 C171 1.170 . S
C171 C170 1.170 . S
C172 C173 1.170 . S
C172 C174 1.380 . S
C173 C172 1.170 . S
C174 C172 1.380 . S
C174 C175 1.170 . S
C175 C174 1.170 . S
C176 C177 1.170 . S
C176 C178 1.380 . S
C177 C176 1.170 . S
C178 C176 1.380 . S
C178 C179 1.170 . S
C179 C178 1.170 . S
C180 C181 1.170 . S
C180 C182 1.380 . S
C181 C180 1.170 . S
C182 C180 1.380 . S
C182 C183 1.170 . S
C183 C182 1.170 . S
C184 C185 1.170 . S
C184 C186 1.380 . S
C185 C184 1.170 . S
C186 C184 1.380 . S
C186 C187 1.170 . S
C187 C186 1.170 . S
C188 C189 1.170 . S
C188 C190 1.380 . S
C189 C188 1.170 . S
C190 C188 1.380 . S
C190 C191 1.170 . S
C191 C190 1.170 . S
C192 C193 1.170 . S
C192 C194 1.380 . S
C193 C192 1.170 . S
C194 C192 1.380 . S
C194 C195 1.170 . S
C195 C194 1.170 . S
C196 C197 1.170 . S
C196 C198 1.380 . S
C197 C196 1.170 . S
C198 C196 1.380 . S
C198 C199 1.170 . S
C199 C198 1.170 . S
C200 C201 1.170 . S
C200 C202 1.380 . S
C201 C200 1.170 . S
C202 C200 1.380 . S
C202 C203 1.170 . S
C203 C202 1.170 . S
C204 C205 1.170 . S
C204 C206 1.380 1_655 S
C205 C204 1.170 . S
C206 C204 1.380 1_455 S
C206 C207 1.170 . S
C207 C206 1.170 . S
C208 C209 1.170 . S
C208 C210 1.380 1_565 S
C209 C208 1.170 . S
C210 C208 1.380 1_545 S
C210 C211 1.170 . S
C211 C210 1.170 . S
C212 C213 1.170 . S
C212 C214 1.380 . S
C213 C212 1.170 . S
C214 C212 1.380 . S
C214 C215 1.170 . S
C215 C214 1.170 . S
C216 C217 1.170 . S
C216 C218 1.380 1_455 S
C217 C216 1.170 . S
C218 C216 1.380 1_655 S
C218 C219 1.170 . S
C219 C218 1.170 . S
C220 C221 1.170 . S
C220 C222 1.380 1_546 S
C221 C220 1.170 . S
C222 C220 1.380 1_564 S
C222 C223 1.170 . S
C223 C222 1.170 . S
C224 C225 1.170 . S
C224 C226 1.380 . S
C225 C224 1.170 . S
C226 C224 1.380 . S
C226 C227 1.170 . S
C227 C226 1.170 . S
C228 C229 1.170 . S
C228 C230 1.380 . S
C229 C228 1.170 . S
C230 C228 1.380 . S
C230 C231 1.170 . S
C231 C230 1.170 . S
C232 C233 1.170 . S
C232 C234 1.380 . S
C233 C232 1.170 . S
C234 C232 1.380 . S
C234 C235 1.170 . S
C235 C234 1.170 . S
C236 C237 1.170 . S
C236 C238 1.380 . S
C237 C236 1.170 . S
C238 C236 1.380 . S
C238 C239 1.170 . S
C239 C238 1.170 . S
C240 C241 1.170 . S
C240 C242 1.380 . S
C241 C240 1.170 . S
C242 C240 1.380 . S
C242 C243 1.170 . S
C243 C242 1.170 . S
C244 C245 1.170 . S
C244 C246 1.380 . S
C245 C244 1.170 . S
C246 C244 1.380 . S
C246 C247 1.170 . S
C247 C246 1.170 . S
C248 C249 1.170 . S
C248 C250 1.380 . S
C249 C248 1.170 . S
C250 C248 1.380 . S
C250 C251 1.170 . S
C251 C250 1.170 . S
C157 C10 1.530 . S
C159 C88 1.529 . S
C161 C23 1.540 . S
C163 C101 1.522 . S
C165 C114 1.543 . S
C167 C36 1.558 . S
C169 C49 1.560 . S
C171 C127 1.537 . S
C173 C62 1.552 . S
C175 C140 1.521 . S
C177 C153 1.537 . S
C179 C75 1.524 . S
C181 C105 1.697 . S
C183 C1 1.686 . S
C185 C14 1.687 . S
C187 C118 1.676 . S
C189 C131 1.699 1_556 S
C191 C27 1.690 . S
C193 C144 1.677 . S
C195 C40 1.689 1_554 S
C197 C53 1.681 . S
C199 C79 1.673 . S
C201 C66 1.672 . S
C203 C92 1.679 . S
C205 C148 1.845 . S
C207 C5 1.824 . S
C209 C83 1.848 . S
C211 C18 1.850 . S
C213 C31 1.851 . S
C215 C96 1.846 . S
C217 C109 1.852 . S
C219 C44 1.837 . S
C221 C122 1.836 . S
C223 C57 1.851 . S
C225 C135 1.818 . S
C227 C70 1.811 . S
C229 C3 1.460 . S
C231 C133 1.458 . S
C233 C146 1.449 . S
C235 C16 1.449 . S
C237 C29 1.469 . S
C239 C81 1.468 . S
C241 C42 1.464 . S
C243 C94 1.466 . S
C245 C55 1.471 . S
C247 C107 1.472 . S
C249 C68 1.472 . S
C251 C120 1.471 . S
