# Generated by pormake.
# Topology mmt, (4)-cn, num edge types: 1
# Building blocks:
#     Node 0, Type 0, BuildingBlock: CEKHIL_clean_sbu_0, # of connection points: 4
#     Node 1, Type 0, BuildingBlock: CEKHIL_clean_sbu_0, # of connection points: 4
#     Node 2, Type 0, BuildingBlock: CEKHIL_clean_sbu_0, # of connection points: 4
#     Node 3, Type 0, BuildingBlock: CEKHIL_clean_sbu_0, # of connection points: 4
#     Node 4, Type 0, BuildingBlock: CEKHIL_clean_sbu_0, # of connection points: 4
#     Node 5, Type 0, BuildingBlock: CEKHIL_clean_sbu_0, # of connection points: 4
#     Node 6, Type 0, BuildingBlock: CEKHIL_clean_sbu_0, # of connection points: 4
#     Node 7, Type 0, BuildingBlock: CEKHIL_clean_sbu_0, # of connection points: 4
#     Edge 8, Type (0, 0), None
#     Edge 9, Type (0, 0), None
#     Edge 10, Type (0, 0), None
#     Edge 11, Type (0, 0), None
#     Edge 12, Type (0, 0), None
#     Edge 13, Type (0, 0), None
#     Edge 14, Type (0, 0), None
#     Edge 15, Type (0, 0), None
#     Edge 16, Type (0, 0), None
#     Edge 17, Type (0, 0), None
#     Edge 18, Type (0, 0), None
#     Edge 19, Type (0, 0), None
#     Edge 20, Type (0, 0), None
#     Edge 21, Type (0, 0), None
#     Edge 22, Type (0, 0), None
#     Edge 23, Type (0, 0), None
# Relax obj value: 0.029
# Max RMSD: 0.051
# Mean RMSD: 0.051
data_MOF--net-mmt--node1-CEKHIL_clean_sbu_0--edge1-none
_symmetry_space_group_name_H-M    P1
_symmetry_Int_Tables_number       1
_symmetry_cell_setting            triclinic
loop_
_symmetry_equiv_pos_as_xyz
'x, y, z'
_cell_length_a     10.37216
_cell_length_b     14.895016
_cell_length_c     19.572423
_cell_angle_alpha  89.997829
_cell_angle_beta   89.999997
_cell_angle_gamma 90.000026
loop_
_atom_site_label
_atom_site_type_symbol
_atom_site_fract_x
_atom_site_fract_y
_atom_site_fract_z
_atom_type_partial_charge
Co0 Co 0.11318 0.61117 0.39337 0.0
O1 O -0.01821 0.63641 0.46039 0.0
O2 O 0.10641 0.51521 0.4593 0.0
C3 C 0.20364 0.74849 0.3929 0.0
O4 O 0.26013 0.56187 0.33577 0.0
Co5 Co 0.11858 0.70636 0.25319 0.0
O6 O 0.28435 0.64273 0.23964 0.0
C7 C 0.92829 0.56392 0.27792 0.0
C8 C 0.01415 0.56044 0.48807 0.0
C9 C 0.31942 0.5801 0.27982 0.0
O10 O -0.01715 0.54677 0.33532 0.0
O11 O 0.96131 0.62938 0.23933 0.0
O12 O 0.23298 0.69074 0.44008 0.0
O13 O 0.11231 0.72547 0.35146 0.0
Co14 Co 0.34951 0.97603 0.39337 0.0
O15 O 0.48092 0.9508 0.46039 0.0
O16 O 0.35625 0.07198 0.4593 0.0
C17 C 0.25914 0.83869 0.39291 0.0
O18 O 0.20255 1.02531 0.33577 0.0
Co19 Co 0.34411 0.88085 0.25319 0.0
O20 O 0.17833 0.94446 0.23965 0.0
C21 C 0.53438 1.02331 0.27792 0.0
C22 C 0.44853 1.02677 0.48807 0.0
C23 C 0.14325 1.00708 0.27982 0.0
O24 O 0.47982 1.04045 0.33532 0.0
O25 O 0.50137 0.95785 0.23933 0.0
O26 O 0.22975 0.89643 0.44008 0.0
O27 O 0.35043 0.86174 0.35146 0.0
Co28 Co 0.61318 0.47604 0.14375 0.0
O29 O 0.48179 0.45079 0.07673 0.0
O30 O 0.60641 0.572 0.07783 0.0
C31 C 0.70364 0.33872 0.14422 0.0
O32 O 0.76013 0.52534 0.20136 0.0
Co33 Co 0.61859 0.38085 0.28393 0.0
O34 O 0.78435 0.44447 0.29748 0.0
C35 C 0.42829 0.52329 0.2592 0.0
C36 C 0.51415 0.52677 0.04905 0.0
C37 C 0.81943 0.5071 0.2573 0.0
O38 O 0.48285 0.54043 0.2018 0.0
O39 O 0.46131 0.45783 0.29779 0.0
O40 O 0.73298 0.39647 0.09704 0.0
O41 O 0.61231 0.36174 0.18566 0.0
Co42 Co 0.84951 0.11117 0.14375 0.0
O43 O 0.98092 0.13641 0.07673 0.0
O44 O 0.85625 1.01522 0.07782 0.0
C45 C 0.75914 0.24852 0.14421 0.0
O46 O 0.70255 0.06189 0.20136 0.0
Co47 Co 0.84411 0.20635 0.28393 0.0
O48 O 0.67833 0.14275 0.29748 0.0
C49 C 0.03437 0.06389 0.25921 0.0
C50 C 0.94853 0.06044 0.04905 0.0
C51 C 0.64324 0.08013 0.25729 0.0
O52 O 0.97982 0.04676 0.20181 0.0
O53 O 0.00137 0.12935 0.29779 0.0
O54 O 0.72975 0.19077 0.09704 0.0
O55 O 0.85043 0.22547 0.18566 0.0
Co56 Co 0.84949 0.47604 0.64375 0.0
O57 O 0.98089 0.45079 0.57673 0.0
O58 O 0.85627 0.572 0.57783 0.0
C59 C 0.75903 0.33872 0.64422 0.0
O60 O 0.70254 0.52534 0.70136 0.0
Co61 Co 0.84409 0.38085 0.78393 0.0
O62 O 0.67833 0.44448 0.79748 0.0
C63 C 0.03438 0.52329 0.7592 0.0
C64 C 0.94853 0.52677 0.54905 0.0
C65 C 0.64325 0.50711 0.7573 0.0
O66 O 0.97982 0.54043 0.7018 0.0
O67 O 0.00136 0.45783 0.79779 0.0
O68 O 0.7297 0.39647 0.59704 0.0
O69 O 0.85036 0.36174 0.68566 0.0
Co70 Co 0.61316 0.11117 0.64375 0.0
O71 O 0.48175 0.1364 0.57673 0.0
O72 O 0.60642 1.01522 0.57782 0.0
C73 C 0.70353 0.24852 0.64421 0.0
O74 O 0.76013 0.06189 0.70136 0.0
Co75 Co 0.61856 0.20635 0.78393 0.0
O76 O 0.78434 0.14275 0.79748 0.0
C77 C 0.42829 0.06389 0.75921 0.0
C78 C 0.51414 0.06044 0.54905 0.0
C79 C 0.81943 0.08012 0.7573 0.0
O80 O 0.48286 0.04675 0.70181 0.0
O81 O 0.4613 0.12935 0.79779 0.0
O82 O 0.73292 0.19077 0.59704 0.0
O83 O 0.61224 0.22547 0.68566 0.0
Co84 Co 0.34949 0.61117 0.89337 0.0
O85 O 0.48089 0.63641 0.96039 0.0
O86 O 0.35627 0.51521 0.9593 0.0
C87 C 0.25903 0.74849 0.8929 0.0
O88 O 0.20255 0.56187 0.83577 0.0
Co89 Co 0.34409 0.70636 0.75319 0.0
O90 O 0.17832 0.64273 0.73964 0.0
C91 C 0.53438 0.56392 0.77792 0.0
C92 C 0.44853 0.56044 0.98807 0.0
C93 C 0.14324 0.5801 0.77982 0.0
O94 O 0.47982 0.54677 0.83532 0.0
O95 O 0.50136 0.62938 0.73933 0.0
O96 O 0.2297 0.69074 0.94008 0.0
O97 O 0.35036 0.72547 0.85146 0.0
Co98 Co 0.11316 0.97603 0.89337 0.0
O99 O -0.01825 0.9508 0.96039 0.0
O100 O 0.10642 0.07198 0.9593 0.0
C101 C 0.20353 0.83869 0.89291 0.0
O102 O 0.26013 1.02531 0.83577 0.0
Co103 Co 0.11856 0.88085 0.75319 0.0
O104 O 0.28435 0.94445 0.73965 0.0
C105 C 0.9283 1.02332 0.77791 0.0
C106 C 0.01414 1.02677 0.98807 0.0
C107 C 0.31944 1.00708 0.77983 0.0
O108 O -0.01714 1.04045 0.83532 0.0
O109 O 0.9613 0.95785 0.73933 0.0
O110 O 0.23292 0.89643 0.94009 0.0
O111 O 0.11224 0.86174 0.85146 0.0
loop_
_geom_bond_atom_site_label_1
_geom_bond_atom_site_label_2
_geom_bond_distance
_geom_bond_site_symmetry_2
_ccdc_geom_bond_type
Co0 O1 2.216 1_455 S
Co0 O2 2.091 . S
Co0 O4 2.004 . S
Co0 O10 2.021 . S
Co0 O12 2.137 . S
Co0 O13 2.244 . S
O1 Co0 2.216 1_655 S
O1 C8 1.247 1_655 S
O2 Co0 2.091 . S
O2 C8 1.261 . S
C3 O12 1.247 . S
C3 O13 1.272 . S
O4 Co0 2.004 . S
O4 C9 1.259 . S
Co5 O6 2.061 . S
Co5 O11 2.052 1_455 S
Co5 O13 2.135 . S
O6 Co5 2.061 . S
O6 C9 1.235 . S
C7 O10 1.238 1_655 S
C7 O11 1.241 . S
C8 O1 1.247 1_455 S
C8 O2 1.261 . S
C9 O4 1.259 . S
C9 O6 1.235 . S
O10 Co0 2.021 . S
O10 C7 1.238 1_455 S
O11 Co5 2.052 1_655 S
O11 C7 1.241 . S
O12 Co0 2.137 . S
O12 C3 1.247 . S
O13 Co0 2.244 . S
O13 C3 1.272 . S
O13 Co5 2.135 . S
Co14 O15 2.216 . S
Co14 O16 2.091 1_565 S
Co14 O18 2.004 . S
Co14 O24 2.021 1_565 S
Co14 O26 2.137 . S
Co14 O27 2.244 . S
O15 Co14 2.216 . S
O15 C22 1.247 . S
O16 Co14 2.091 1_545 S
O16 C22 1.261 1_545 S
C17 O26 1.247 . S
C17 O27 1.272 . S
O18 Co14 2.004 . S
O18 C23 1.259 . S
Co19 O20 2.061 . S
Co19 O25 2.052 . S
Co19 O27 2.135 . S
O20 Co19 2.061 . S
O20 C23 1.235 . S
C21 O24 1.238 1_565 S
C21 O25 1.241 . S
C22 O15 1.247 . S
C22 O16 1.261 1_565 S
C23 O18 1.259 . S
C23 O20 1.235 . S
O24 Co14 2.021 1_545 S
O24 C21 1.238 1_545 S
O25 Co19 2.052 . S
O25 C21 1.241 . S
O26 Co14 2.137 . S
O26 C17 1.247 . S
O27 Co14 2.244 . S
O27 C17 1.272 . S
O27 Co19 2.135 . S
Co28 O29 2.216 . S
Co28 O30 2.091 . S
Co28 O32 2.004 . S
Co28 O38 2.021 . S
Co28 O40 2.137 . S
Co28 O41 2.244 . S
O29 Co28 2.216 . S
O29 C36 1.247 . S
O30 Co28 2.091 . S
O30 C36 1.261 . S
C31 O40 1.247 . S
C31 O41 1.272 . S
O32 Co28 2.004 . S
O32 C37 1.259 . S
Co33 O34 2.061 . S
Co33 O39 2.052 . S
Co33 O41 2.135 . S
O34 Co33 2.061 . S
O34 C37 1.235 . S
C35 O38 1.238 . S
C35 O39 1.241 . S
C36 O29 1.247 . S
C36 O30 1.261 . S
C37 O32 1.259 . S
C37 O34 1.235 . S
O38 Co28 2.021 . S
O38 C35 1.238 . S
O39 Co33 2.052 . S
O39 C35 1.241 . S
O40 Co28 2.137 . S
O40 C31 1.247 . S
O41 Co28 2.244 . S
O41 C31 1.272 . S
O41 Co33 2.135 . S
Co42 O43 2.216 1_655 S
Co42 O44 2.091 1_545 S
Co42 O46 2.004 . S
Co42 O52 2.021 1_545 S
Co42 O54 2.137 . S
Co42 O55 2.244 . S
O43 Co42 2.216 1_455 S
O43 C50 1.247 1_455 S
O44 Co42 2.091 1_565 S
O44 C50 1.261 1_565 S
C45 O54 1.247 . S
C45 O55 1.272 . S
O46 Co42 2.004 . S
O46 C51 1.259 . S
Co47 O48 2.061 . S
Co47 O53 2.052 1_655 S
Co47 O55 2.135 . S
O48 Co47 2.061 . S
O48 C51 1.235 . S
C49 O52 1.238 1_445 S
C49 O53 1.241 . S
C50 O43 1.247 1_655 S
C50 O44 1.261 1_545 S
C51 O46 1.259 . S
C51 O48 1.235 . S
O52 Co42 2.021 1_565 S
O52 C49 1.238 1_665 S
O53 Co47 2.052 1_455 S
O53 C49 1.241 . S
O54 Co42 2.137 . S
O54 C45 1.247 . S
O55 Co42 2.244 . S
O55 C45 1.272 . S
O55 Co47 2.135 . S
Co56 O57 2.216 1_655 S
Co56 O58 2.091 . S
Co56 O60 2.004 . S
Co56 O66 2.021 . S
Co56 O68 2.137 . S
Co56 O69 2.244 . S
O57 Co56 2.216 1_455 S
O57 C64 1.247 1_455 S
O58 Co56 2.091 . S
O58 C64 1.261 . S
C59 O68 1.247 . S
C59 O69 1.272 . S
O60 Co56 2.004 . S
O60 C65 1.259 . S
Co61 O62 2.061 . S
Co61 O67 2.052 1_655 S
Co61 O69 2.135 . S
O62 Co61 2.061 . S
O62 C65 1.235 . S
C63 O66 1.238 1_455 S
C63 O67 1.241 . S
C64 O57 1.247 1_655 S
C64 O58 1.261 . S
C65 O60 1.259 . S
C65 O62 1.235 . S
O66 Co56 2.021 . S
O66 C63 1.238 1_655 S
O67 Co61 2.052 1_455 S
O67 C63 1.241 . S
O68 Co56 2.137 . S
O68 C59 1.247 . S
O69 Co56 2.244 . S
O69 C59 1.272 . S
O69 Co61 2.135 . S
Co70 O71 2.216 . S
Co70 O72 2.091 1_545 S
Co70 O74 2.004 . S
Co70 O80 2.021 1_545 S
Co70 O82 2.137 . S
Co70 O83 2.244 . S
O71 Co70 2.216 . S
O71 C78 1.247 . S
O72 Co70 2.091 1_565 S
O72 C78 1.261 1_565 S
C73 O82 1.247 . S
C73 O83 1.272 . S
O74 Co70 2.004 . S
O74 C79 1.259 . S
Co75 O76 2.061 . S
Co75 O81 2.052 . S
Co75 O83 2.135 . S
O76 Co75 2.061 . S
O76 C79 1.235 . S
C77 O80 1.238 1_545 S
C77 O81 1.241 . S
C78 O71 1.247 . S
C78 O72 1.261 1_545 S
C79 O74 1.259 . S
C79 O76 1.235 . S
O80 Co70 2.021 1_565 S
O80 C77 1.238 1_565 S
O81 Co75 2.052 . S
O81 C77 1.241 . S
O82 Co70 2.137 . S
O82 C73 1.247 . S
O83 Co70 2.244 . S
O83 C73 1.272 . S
O83 Co75 2.135 . S
Co84 O85 2.216 . S
Co84 O86 2.091 . S
Co84 O88 2.004 . S
Co84 O94 2.021 . S
Co84 O96 2.137 . S
Co84 O97 2.244 . S
O85 Co84 2.216 . S
O85 C92 1.247 . S
O86 Co84 2.091 . S
O86 C92 1.261 . S
C87 O96 1.247 . S
C87 O97 1.272 . S
O88 Co84 2.004 . S
O88 C93 1.259 . S
Co89 O90 2.061 . S
Co89 O95 2.052 . S
Co89 O97 2.135 . S
O90 Co89 2.061 . S
O90 C93 1.235 . S
C91 O94 1.238 . S
C91 O95 1.241 . S
C92 O85 1.247 . S
C92 O86 1.261 . S
C93 O88 1.259 . S
C93 O90 1.235 . S
O94 Co84 2.021 . S
O94 C91 1.238 . S
O95 Co89 2.052 . S
O95 C91 1.241 . S
O96 Co84 2.137 . S
O96 C87 1.247 . S
O97 Co84 2.244 . S
O97 C87 1.272 . S
O97 Co89 2.135 . S
Co98 O99 2.216 1_455 S
Co98 O100 2.091 1_565 S
Co98 O102 2.004 . S
Co98 O108 2.021 1_565 S
Co98 O110 2.137 . S
Co98 O111 2.244 . S
O99 Co98 2.216 1_655 S
O99 C106 1.247 1_655 S
O100 Co98 2.091 1_545 S
O100 C106 1.261 1_545 S
C101 O110 1.247 . S
C101 O111 1.272 . S
O102 Co98 2.004 . S
O102 C107 1.259 . S
Co103 O104 2.061 . S
Co103 O109 2.052 1_455 S
Co103 O111 2.135 . S
O104 Co103 2.061 . S
O104 C107 1.235 . S
C105 O108 1.238 1_665 S
C105 O109 1.241 . S
C106 O99 1.247 1_455 S
C106 O100 1.261 1_565 S
C107 O102 1.259 . S
C107 O104 1.235 . S
O108 Co98 2.021 1_545 S
O108 C105 1.238 1_445 S
O109 Co103 2.052 1_655 S
O109 C105 1.241 . S
O110 Co98 2.137 . S
O110 C101 1.247 . S
O111 Co98 2.244 . S
O111 C101 1.272 . S
O111 Co103 2.135 . S
C9 C35 1.346 . S
C49 C23 1.346 1_545 S
C37 C7 1.346 . S
C51 C21 1.346 1_545 S
C91 C65 1.346 . S
C79 C105 1.346 1_545 S
C93 C63 1.346 . S
C107 C77 1.346 1_565 S
C8 C64 1.596 1_455 S
C22 C78 1.596 1_565 S
C36 C92 1.596 1_554 S
C106 C50 1.596 1_466 S
C3 C17 1.546 . S
C45 C31 1.546 . S
C73 C59 1.546 . S
C87 C101 1.546 . S
