# Generated by pormake.
# Topology pcu, (6)-cn, num edge types: 1
# Building blocks:
#     Node 0, Type 0, BuildingBlock: CIFDUS_clean_sbu_1, # of connection points: 6
#     Edge 1, Type (0, 0), BuildingBlock: ZUJKAS_clean_linker_0, # of connection points: 2
#     Edge 2, Type (0, 0), BuildingBlock: ZUJKAS_clean_linker_0, # of connection points: 2
#     Edge 3, Type (0, 0), BuildingBlock: ZUJKAS_clean_linker_0, # of connection points: 2
# Relax obj value: 0.009
# Max RMSD: 0.057
# Mean RMSD: 0.057
data_MOF--net-pcu--node1-CIFDUS_clean_sbu_1--edge1-ZUJKAS_clean_linker_0
_symmetry_space_group_name_H-M    P1
_symmetry_Int_Tables_number       1
_symmetry_cell_setting            triclinic
loop_
_symmetry_equiv_pos_as_xyz
'x, y, z'
_cell_length_a     20.112281
_cell_length_b     20.124226
_cell_length_c     19.307032
_cell_angle_alpha  73.553224
_cell_angle_beta   110.45662
_cell_angle_gamma 94.158729
loop_
_atom_site_label
_atom_site_type_symbol
_atom_site_fract_x
_atom_site_fract_y
_atom_site_fract_z
_atom_type_partial_charge
O0 O 0.03353 0.87793 0.06867 0.0
Mn1 Mn 1.02758 0.98332 1.06255 0.0
O2 O 0.11435 0.82687 0.18398 0.0
Mn3 Mn 0.1462 0.90725 0.2119 0.0
O4 O 1.02162 0.08871 1.05644 0.0
O5 O 0.98439 0.00453 0.94784 0.0
Mn6 Mn 0.90896 0.0594 0.91321 0.0
O7 O 0.92707 0.96778 0.07464 0.0
O8 O 0.94083 0.13978 0.94112 0.0
O9 O 0.12809 -0.00114 1.05046 0.0
O10 O 0.20896 0.95719 0.16864 0.0
O11 O 0.91818 0.04366 0.82773 0.0
O12 O 0.8462 0.00948 0.95647 0.0
C13 C 0.08212 0.96032 0.24771 0.0
C14 C 0.06783 0.82393 0.12008 0.0
C15 C 0.98735 0.14271 1.00502 0.0
C16 C 0.97302 0.00631 0.8774 0.0
C17 C 0.86268 0.97672 1.02728 0.0
C18 C 0.19247 -0.01007 0.09783 0.0
O19 O 0.07076 0.96211 0.17726 0.0
O20 O 0.13696 0.92298 0.29738 0.0
H21 H 0.96137 0.91224 0.27199 0.0
H22 H 0.93536 0.92353 0.38292 0.0
H23 H 0.08533 0.08746 0.40431 0.0
H24 H 0.11053 0.07643 0.29342 0.0
H25 H 0.05433 0.88969 0.51522 0.0
H26 H 0.94009 0.1443 0.48124 0.0
H27 H 0.93157 0.11223 0.40017 0.0
H28 H 1.01234 0.1513 0.44556 0.0
C29 C 0.98466 0.95405 0.29698 0.0
C30 C 0.03769 -0.00634 0.27455 0.0
C31 C 0.97067 0.95977 0.36108 0.0
C32 C 1.00914 0.00569 0.40245 0.0
C33 C 0.05444 0.0522 0.37293 0.0
H34 H 0.09384 0.05427 0.85312 0.0
H35 H 0.11978 0.04292 0.74216 0.0
C36 C 0.0684 0.04635 0.30899 0.0
C37 C 1.01453 -0.00524 0.48333 0.0
H38 H 1.00066 0.07684 0.60986 0.0
C39 C 0.04182 0.93036 0.53586 0.0
C40 C 0.99968 0.04826 0.51025 0.0
C41 C 0.96871 0.11772 0.45626 0.0
C42 C 0.0553 0.91827 0.61482 0.0
C43 C 0.04046 0.97176 0.64174 0.0
C44 C 1.01316 0.03616 0.58922 0.0
C45 C 0.04589 0.96085 0.72264 0.0
C46 C 0.08626 0.84881 0.66882 0.0
C47 C 1.00054 0.9144 0.75214 0.0
C48 C 0.98662 0.92028 0.8161 0.0
C49 C 1.01742 0.97295 0.85055 0.0
C50 C 0.07049 0.01248 0.82812 0.0
C51 C 0.08444 0.00674 0.764 0.0
H52 H 0.11481 0.82218 0.64381 0.0
H53 H 0.12346 0.85431 0.72488 0.0
H54 H 0.04263 0.81526 0.67959 0.0
H55 H 0.9696 0.87917 0.72075 0.0
H56 H 0.94447 0.89025 0.83166 0.0
H57 H 0.21496 0.96681 0.97496 0.0
H58 H 0.33194 0.96584 0.96116 0.0
H59 H 0.42289 0.0569 0.14975 0.0
H60 H 0.30702 0.05708 0.1643 0.0
H61 H 0.44533 0.06828 0.95003 0.0
H62 H 0.51746 0.85836 0.22481 0.0
H63 H 0.42672 0.88653 0.16748 0.0
H64 H 0.48276 0.93723 0.22708 0.0
C65 C 0.25938 -0.0107 1.01109 0.0
C66 C 0.25252 0.01172 0.07088 0.0
C67 C 0.32615 -0.01191 1.00376 0.0
C68 C 0.38604 0.00957 1.05592 0.0
C69 C 0.37744 0.03888 0.11005 0.0
H70 H 0.84019 -0.00018 0.15017 0.0
H71 H 0.7232 0.0008 0.16396 0.0
C72 C 0.31123 0.03958 0.11777 0.0
C73 C 0.45832 -0.00499 1.0596 0.0
H74 H 0.60982 0.89839 0.17506 0.0
C75 C 0.48124 0.03099 0.99892 0.0
C76 C 0.50485 0.94625 0.12376 0.0
C77 C 0.48176 0.90433 0.18931 0.0
C78 C 0.55029 0.02043 1.00133 0.0
C79 C 0.59683 0.97166 0.06549 0.0
C80 C 0.57391 0.93568 0.12617 0.0
C81 C 0.66911 0.9571 0.06917 0.0
C82 C 0.57339 0.06235 0.93578 0.0
C83 C 0.67771 0.92781 1.01504 0.0
C84 C 0.74392 0.9271 1.00732 0.0
C85 C 0.80264 0.95494 1.05424 0.0
C86 C 0.79577 0.97735 0.11402 0.0
C87 C 0.72899 0.97856 0.12135 0.0
H88 H 0.53769 0.10833 0.9003 0.0
H89 H 0.62844 0.08014 0.95762 0.0
H90 H 0.57238 0.02946 0.898 0.0
H91 H 0.63226 0.9098 0.97532 0.0
H92 H 0.74813 0.90961 0.96079 0.0
H93 H 0.11505 0.69877 0.22376 0.0
H94 H 0.10029 0.58481 0.20159 0.0
H95 H 0.97592 0.67576 0.96356 0.0
H96 H 0.99125 0.7915 0.98487 0.0
H97 H 0.97652 0.51418 0.14954 0.0
H98 H 0.13242 0.56112 0.95331 0.0
H99 H 0.13496 0.61783 1.01176 0.0
H100 H 0.06043 0.62212 0.92538 0.0
C101 C 0.08452 0.69505 0.16642 0.0
C102 C 0.05477 0.75465 0.10585 0.0
C103 C 0.07602 0.62957 0.15405 0.0
C104 C 0.03789 0.62189 0.08085 0.0
C105 C 1.00661 0.68081 1.02031 0.0
H106 H 0.94014 0.26788 0.90135 0.0
H107 H 0.95492 0.38184 0.92353 0.0
C108 C 1.01498 0.74679 1.03267 0.0
C109 C 0.03163 0.55178 0.069 0.0
H110 H 0.07868 0.45245 0.97558 0.0
C111 C 0.99884 0.50058 0.11153 0.0
C112 C 0.06135 0.53421 1.01987 0.0
C113 C 0.09985 0.5864 0.97534 0.0
C114 C 0.99385 0.43243 0.10526 0.0
C115 C 1.02357 0.41486 1.05612 0.0
C116 C 0.05636 0.46606 1.01359 0.0
C117 C 1.0173 0.34475 1.04427 0.0
C118 C 0.95535 0.38024 0.14977 0.0
C119 C 0.04858 0.28583 0.10481 0.0
C120 C 0.0402 0.21985 0.09244 0.0
C121 C 1.00041 0.21199 1.01926 0.0
C122 C 0.97067 0.2716 0.95869 0.0
C123 C 0.97918 0.33707 0.97107 0.0
H124 H 0.92278 0.40552 0.17181 0.0
H125 H 0.92023 0.34881 0.11335 0.0
H126 H 0.99476 0.34452 0.19974 0.0
H127 H 0.07927 0.29087 0.16156 0.0
H128 H 0.06392 0.17514 0.14025 0.0
loop_
_geom_bond_atom_site_label_1
_geom_bond_atom_site_label_2
_geom_bond_distance
_geom_bond_site_symmetry_2
_ccdc_geom_bond_type
O0 Mn1 2.163 1_666 S
O0 C14 1.244 1_656 S
Mn1 O0 2.163 1_444 S
Mn1 O4 2.160 . S
Mn1 O5 2.221 1_454 S
Mn1 O7 2.163 1_445 S
Mn1 O9 2.160 1_554 S
Mn1 O19 2.221 1_545 S
O2 Mn3 2.087 . S
O2 C14 1.256 . S
Mn3 O2 2.087 . S
Mn3 O10 2.089 . S
Mn3 O19 2.290 . S
Mn3 O20 2.251 . S
O4 Mn1 2.160 . S
O4 C15 1.239 1_454 S
O5 Mn1 2.221 1_656 S
O5 Mn6 2.290 . S
O5 C16 1.278 . S
Mn6 O5 2.290 . S
Mn6 O8 2.089 . S
Mn6 O11 2.251 . S
Mn6 O12 2.087 . S
O7 Mn1 2.163 1_665 S
O7 C17 1.244 1_564 S
O8 Mn6 2.089 . S
O8 C15 1.256 . S
O9 Mn1 2.160 1_556 S
O9 C18 1.239 1_546 S
O10 Mn3 2.089 . S
O10 C18 1.256 . S
O11 Mn6 2.251 . S
O11 C16 1.241 . S
O12 Mn6 2.087 . S
O12 C17 1.256 . S
C13 O19 1.278 . S
C13 O20 1.241 . S
C14 O0 1.244 1_454 S
C14 O2 1.256 . S
C15 O4 1.239 1_656 S
C15 O8 1.256 . S
C16 O5 1.278 . S
C16 O11 1.241 . S
C17 O7 1.244 1_546 S
C17 O12 1.256 . S
C18 O9 1.239 1_564 S
C18 O10 1.256 . S
O19 Mn1 2.221 1_565 S
O19 Mn3 2.290 . S
O19 C13 1.278 . S
O20 Mn3 2.251 . S
O20 C13 1.241 . S
H21 C29 0.929 . S
H22 C31 0.930 . S
H23 C33 0.930 . S
H24 C36 0.929 . S
H25 C39 0.930 . S
H26 C41 0.960 . S
H27 C41 0.960 . S
H28 C41 0.960 1_455 S
C29 H21 0.929 . S
C29 C30 1.377 . S
C29 C31 1.384 . S
C30 C29 1.377 . S
C30 C36 1.390 1_665 S
C31 H22 0.930 . S
C31 C29 1.384 . S
C31 C32 1.372 . S
C32 C31 1.372 . S
C32 C33 1.400 1_665 S
C32 C37 1.490 . S
C33 H23 0.930 . S
C33 C32 1.400 1_445 S
C33 C36 1.386 . S
H34 C50 0.930 . S
H35 C51 0.931 . S
C36 H24 0.929 . S
C36 C30 1.390 1_445 S
C36 C33 1.386 . S
C37 C32 1.490 . S
C37 C39 1.395 . S
C37 C40 1.403 1_565 S
H38 C44 0.930 . S
C39 H25 0.930 . S
C39 C37 1.395 . S
C39 C42 1.403 . S
C40 C37 1.403 1_545 S
C40 C41 1.524 . S
C40 C44 1.400 . S
C41 H26 0.960 . S
C41 H27 0.960 . S
C41 H28 0.960 1_655 S
C41 C40 1.524 . S
C42 C39 1.403 . S
C42 C43 1.392 . S
C42 C46 1.495 . S
C43 C42 1.392 . S
C43 C44 1.385 1_565 S
C43 C45 1.478 . S
C44 H38 0.930 . S
C44 C40 1.400 . S
C44 C43 1.385 1_545 S
C45 C43 1.478 . S
C45 C47 1.381 . S
C45 C51 1.383 1_665 S
C46 C42 1.495 . S
C46 H52 0.959 . S
C46 H53 0.961 1_655 S
C46 H54 0.960 . S
C47 C45 1.381 . S
C47 C48 1.394 . S
C47 H55 0.930 . S
C48 C47 1.394 . S
C48 C49 1.383 . S
C48 H56 0.929 . S
C49 C48 1.383 . S
C49 C50 1.377 1_665 S
C50 H34 0.930 . S
C50 C49 1.377 1_445 S
C50 C51 1.379 . S
C51 H35 0.931 . S
C51 C45 1.383 1_445 S
C51 C50 1.379 . S
H52 C46 0.959 . S
H53 C46 0.961 1_455 S
H54 C46 0.960 . S
H55 C47 0.930 . S
H56 C48 0.929 . S
H57 C65 0.929 . S
H58 C67 0.930 . S
H59 C69 0.930 . S
H60 C72 0.929 . S
H61 C75 0.930 . S
H62 C77 0.960 . S
H63 C77 0.960 . S
H64 C77 0.960 . S
C65 H57 0.929 . S
C65 C66 1.377 1_566 S
C65 C67 1.384 . S
C66 C65 1.377 1_544 S
C66 C72 1.390 . S
C67 H58 0.930 . S
C67 C65 1.384 . S
C67 C68 1.378 1_565 S
C68 C67 1.378 1_545 S
C68 C69 1.392 1_556 S
C68 C73 1.492 . S
C69 H59 0.930 . S
C69 C68 1.392 1_554 S
C69 C72 1.386 . S
H70 C86 0.930 . S
H71 C87 0.931 . S
C72 H60 0.929 . S
C72 C66 1.390 . S
C72 C69 1.386 . S
C73 C68 1.492 . S
C73 C75 1.395 . S
C73 C76 1.403 1_546 S
H74 C80 0.930 . S
C75 H61 0.930 . S
C75 C73 1.395 . S
C75 C78 1.403 . S
C76 C73 1.403 1_564 S
C76 C77 1.524 . S
C76 C80 1.400 . S
C77 H62 0.960 . S
C77 H63 0.960 . S
C77 H64 0.960 . S
C77 C76 1.524 . S
C78 C75 1.403 . S
C78 C79 1.392 . S
C78 C82 1.495 . S
C79 C78 1.392 . S
C79 C80 1.385 1_546 S
C79 C81 1.478 . S
C80 H74 0.930 . S
C80 C76 1.400 . S
C80 C79 1.385 1_564 S
C81 C79 1.478 . S
C81 C83 1.381 1_545 S
C81 C87 1.383 1_556 S
C82 C78 1.495 . S
C82 H88 0.959 . S
C82 H89 0.961 . S
C82 H90 0.960 . S
C83 C81 1.381 1_565 S
C83 C84 1.394 . S
C83 H91 0.930 . S
C84 C83 1.394 . S
C84 C85 1.383 1_565 S
C84 H92 0.929 . S
C85 C84 1.383 1_545 S
C85 C86 1.377 1_556 S
C86 H70 0.930 . S
C86 C85 1.377 1_554 S
C86 C87 1.379 . S
C87 H71 0.931 . S
C87 C81 1.383 1_554 S
C87 C86 1.379 . S
H88 C82 0.959 . S
H89 C82 0.961 . S
H90 C82 0.960 . S
H91 C83 0.930 . S
H92 C84 0.929 . S
H93 C101 0.929 . S
H94 C103 0.930 . S
H95 C105 0.930 . S
H96 C108 0.929 . S
H97 C111 0.930 . S
H98 C113 0.960 . S
H99 C113 0.960 . S
H100 C113 0.960 . S
C101 H93 0.929 . S
C101 C102 1.377 1_554 S
C101 C103 1.384 . S
C102 C101 1.377 1_556 S
C102 C108 1.390 . S
C103 H94 0.930 . S
C103 C101 1.384 . S
C103 C104 1.372 . S
C104 C103 1.372 . S
C104 C105 1.400 1_554 S
C104 C109 1.490 . S
C105 H95 0.930 . S
C105 C104 1.400 1_556 S
C105 C108 1.386 . S
H106 C122 0.930 . S
H107 C123 0.931 . S
C108 H96 0.929 . S
C108 C102 1.390 . S
C108 C105 1.386 . S
C109 C104 1.490 . S
C109 C111 1.395 1_455 S
C109 C112 1.403 1_554 S
H110 C116 0.930 . S
C111 H97 0.930 . S
C111 C109 1.395 1_655 S
C111 C114 1.403 . S
C112 C109 1.403 1_556 S
C112 C113 1.524 . S
C112 C116 1.400 . S
C113 H98 0.960 . S
C113 H99 0.960 . S
C113 H100 0.960 . S
C113 C112 1.524 . S
C114 C111 1.403 . S
C114 C115 1.392 . S
C114 C118 1.495 . S
C115 C114 1.392 . S
C115 C116 1.385 1_654 S
C115 C117 1.478 . S
C116 H110 0.930 . S
C116 C112 1.400 . S
C116 C115 1.385 1_456 S
C117 C115 1.478 . S
C117 C119 1.381 1_655 S
C117 C123 1.383 1_554 S
C118 C114 1.495 . S
C118 H124 0.959 . S
C118 H125 0.961 . S
C118 H126 0.960 . S
C119 C117 1.381 1_455 S
C119 C120 1.395 . S
C119 H127 0.930 . S
C120 C119 1.395 . S
C120 C121 1.374 1_554 S
C120 H128 0.929 . S
C121 C120 1.374 1_556 S
C121 C122 1.384 1_455 S
C122 H106 0.930 . S
C122 C121 1.384 1_655 S
C122 C123 1.379 . S
C123 H107 0.931 . S
C123 C117 1.383 1_556 S
C123 C122 1.379 . S
H124 C118 0.959 . S
H125 C118 0.961 . S
H126 C118 0.960 . S
H127 C119 0.930 . S
H128 C120 0.929 . S
C30 C13 1.305 1_655 S
C49 C16 1.336 1_565 S
C66 C18 1.449 1_545 S
C85 C17 1.424 . S
C102 C14 1.447 1_556 S
C121 C15 1.446 1_455 S
