# Generated by pormake.
# Topology vmi, (6)-cn, num edge types: 1
# Building blocks:
#     Node 0, Type 0, BuildingBlock: IZENUY_clean_sbu_0, # of connection points: 6
#     Node 1, Type 0, BuildingBlock: IZENUY_clean_sbu_0, # of connection points: 6
#     Node 2, Type 0, BuildingBlock: IZENUY_clean_sbu_0, # of connection points: 6
#     Node 3, Type 0, BuildingBlock: IZENUY_clean_sbu_0, # of connection points: 6
#     Node 4, Type 0, BuildingBlock: IZENUY_clean_sbu_0, # of connection points: 6
#     Node 5, Type 0, BuildingBlock: IZENUY_clean_sbu_0, # of connection points: 6
#     Node 6, Type 0, BuildingBlock: IZENUY_clean_sbu_0, # of connection points: 6
#     Node 7, Type 0, BuildingBlock: IZENUY_clean_sbu_0, # of connection points: 6
#     Edge 8, Type (0, 0), None
#     Edge 9, Type (0, 0), None
#     Edge 10, Type (0, 0), None
#     Edge 11, Type (0, 0), None
#     Edge 12, Type (0, 0), None
#     Edge 13, Type (0, 0), None
#     Edge 14, Type (0, 0), None
#     Edge 15, Type (0, 0), None
#     Edge 16, Type (0, 0), None
#     Edge 17, Type (0, 0), None
#     Edge 18, Type (0, 0), None
#     Edge 19, Type (0, 0), None
#     Edge 20, Type (0, 0), None
#     Edge 21, Type (0, 0), None
#     Edge 22, Type (0, 0), None
#     Edge 23, Type (0, 0), None
#     Edge 24, Type (0, 0), None
#     Edge 25, Type (0, 0), None
#     Edge 26, Type (0, 0), None
#     Edge 27, Type (0, 0), None
#     Edge 28, Type (0, 0), None
#     Edge 29, Type (0, 0), None
#     Edge 30, Type (0, 0), None
#     Edge 31, Type (0, 0), None
# Relax obj value: 0.332
# Max RMSD: 0.291
# Mean RMSD: 0.291
data_MOF--net-vmi--node1-IZENUY_clean_sbu_0--edge1-none
_symmetry_space_group_name_H-M    P1
_symmetry_Int_Tables_number       1
_symmetry_cell_setting            triclinic
loop_
_symmetry_equiv_pos_as_xyz
'x, y, z'
_cell_length_a     13.170597
_cell_length_b     21.014756
_cell_length_c     13.179065
_cell_angle_alpha  90.000667
_cell_angle_beta   106.94133
_cell_angle_gamma 89.999814
loop_
_atom_site_label
_atom_site_type_symbol
_atom_site_fract_x
_atom_site_fract_y
_atom_site_fract_z
_atom_type_partial_charge
Fe0 Fe 0.18425 1.0224 0.28527 0.0
Fe1 Fe 0.10945 0.15691 0.19777 0.0
O2 O 0.20759 0.10226 0.2651 0.0
Fe3 Fe 0.33902 0.12662 0.31135 0.0
O4 O 0.40202 0.05193 0.36594 0.0
O5 O 0.30534 0.98968 0.25792 0.0
O6 O 0.12121 1.00881 0.14707 0.0
C7 C 0.0535 0.04421 0.08486 0.0
C8 C 0.27188 0.08945 0.48054 0.0
O9 O 0.03628 0.10063 0.10444 0.0
C10 C 0.25898 0.24738 0.2852 0.0
O11 O 0.05859 0.03828 0.30564 0.0
O12 O 1.01857 0.14066 0.2791 0.0
O13 O 0.31477 0.13578 0.44194 0.0
O14 O 0.244 0.03641 0.42976 0.0
C15 C 0.26644 0.13838 0.09123 0.0
O16 O 0.16873 0.22548 0.28275 0.0
O17 O 0.32847 0.20978 0.2794 0.0
C18 C 0.99629 0.08418 0.30211 0.0
O19 O 0.18825 0.17072 0.10452 0.0
O20 O 0.34141 0.11504 0.17142 0.0
C21 C 0.39521 1.00057 0.31919 0.0
Fe22 Fe 0.43345 0.15691 0.87505 0.0
Fe23 Fe 0.20388 0.12662 0.76147 0.0
O24 O 0.33531 0.10226 0.80772 0.0
Fe25 Fe 0.35866 1.0224 0.78755 0.0
O26 O 0.42169 1.00881 0.92575 0.0
O27 O 0.50662 0.10063 0.96838 0.0
O28 O 0.35465 0.17072 0.96829 0.0
C29 C 0.27647 0.13837 0.98159 0.0
C30 C 0.54661 0.08417 0.77071 0.0
O31 O 0.20148 0.11505 0.9014 0.0
C32 C 0.27104 0.08945 0.59229 0.0
O33 O 0.37417 0.22548 0.79007 0.0
O34 O 0.21443 0.20978 0.79342 0.0
O35 O 0.48431 0.03828 0.76719 0.0
O36 O 0.52433 0.14065 0.79372 0.0
C37 C 0.14769 1.00057 0.75363 0.0
O38 O 0.22813 0.13578 0.63087 0.0
O39 O 0.2989 0.03641 0.64306 0.0
C40 C 0.28392 0.24738 0.78761 0.0
O41 O 0.14088 0.05193 0.70688 0.0
O42 O 0.23756 0.98968 0.8149 0.0
C43 C 0.4894 0.04421 0.98796 0.0
Fe44 Fe 0.85865 0.04102 0.78752 0.0
Fe45 Fe 0.70389 0.93676 0.76147 0.0
O46 O 0.83531 0.96115 0.80772 0.0
Fe47 Fe 0.93345 0.9065 0.87504 0.0
O48 O 1.00663 0.96281 0.96834 0.0
O49 O 0.92168 0.05462 0.92571 0.0
O50 O 0.73756 0.0738 0.81482 0.0
C51 C 0.64768 0.06274 0.75372 0.0
C52 C 0.04661 0.97922 0.77069 0.0
O53 O 0.64087 1.01142 0.70688 0.0
C54 C 0.78396 0.81601 0.78764 0.0
O55 O 0.7989 1.02699 0.64304 0.0
O56 O 0.72816 0.9276 0.63089 0.0
O57 O 0.02428 0.92275 0.79366 0.0
O58 O 0.98433 1.02513 0.76717 0.0
C59 C 0.77646 0.925 0.98159 0.0
O60 O 0.71446 0.8536 0.79344 0.0
O61 O 0.8742 0.83792 0.79009 0.0
C62 C 0.77104 0.97394 0.59228 0.0
O63 O 0.70149 0.94833 0.9014 0.0
O64 O 0.8547 0.8927 0.96832 0.0
C65 C 0.98939 1.01922 0.98793 0.0
Fe66 Fe 0.83901 0.93676 0.31134 0.0
Fe67 Fe 0.60945 0.9065 0.19778 0.0
O68 O 0.7076 0.96115 0.26509 0.0
Fe69 Fe 0.68425 0.04102 0.2853 0.0
O70 O 0.80534 0.0738 0.258 0.0
O71 O 0.90203 1.01142 0.36594 0.0
O72 O 0.84142 0.94833 0.17142 0.0
C73 C 0.76643 0.92501 0.09123 0.0
C74 C 0.77184 0.97393 0.48052 0.0
O75 O 0.68821 0.8927 0.1045 0.0
C76 C 0.49629 0.97922 0.30213 0.0
O77 O 0.82844 0.8536 0.27938 0.0
O78 O 0.66871 0.83792 0.28272 0.0
O79 O 0.744 1.02699 0.42978 0.0
O80 O 0.81475 0.92761 0.44193 0.0
C81 C 0.55352 1.01922 0.08488 0.0
O82 O 0.51862 0.92275 0.27916 0.0
O83 O 0.55857 1.02513 0.30564 0.0
C84 C 0.75895 0.81601 0.28518 0.0
O85 O 0.53628 0.9628 0.10447 0.0
O86 O 0.62123 0.05462 0.1471 0.0
C87 C 0.89522 0.06274 0.3191 0.0
Fe88 Fe 0.60945 0.65691 0.69777 0.0
Fe89 Fe 0.83902 0.62662 0.81135 0.0
O90 O 0.70759 0.60226 0.7651 0.0
Fe91 Fe 0.68425 0.52241 0.78527 0.0
O92 O 0.62121 0.50881 0.64707 0.0
O93 O 0.53628 0.60063 0.60444 0.0
O94 O 0.68825 0.67072 0.60452 0.0
C95 C 0.76644 0.63838 0.59123 0.0
C96 C 0.49629 0.58418 0.80211 0.0
O97 O 0.84141 0.61504 0.67142 0.0
C98 C 0.77188 0.58945 0.98054 0.0
O99 O 0.66873 0.72548 0.78275 0.0
O100 O 0.82847 0.70978 0.7794 0.0
O101 O 0.55859 0.53828 0.80564 0.0
O102 O 0.51857 0.64066 0.7791 0.0
C103 C 0.89521 0.50057 0.81919 0.0
O104 O 0.81477 0.63578 0.94194 0.0
O105 O 0.744 0.53641 0.92976 0.0
C106 C 0.75898 0.74738 0.78519 0.0
O107 O 0.90202 0.55193 0.86594 0.0
O108 O 0.80534 0.48968 0.75792 0.0
C109 C 0.5535 0.54421 0.58486 0.0
Fe110 Fe 0.93345 0.65691 0.37505 0.0
Fe111 Fe 0.70388 0.62662 0.26147 0.0
O112 O 0.83531 0.60226 0.30772 0.0
Fe113 Fe 0.85866 0.5224 0.28755 0.0
O114 O 0.92169 0.50881 0.42575 0.0
O115 O 1.00662 0.60063 0.46838 0.0
O116 O 0.85465 0.67072 0.4683 0.0
C117 C 0.77647 0.63837 0.48159 0.0
C118 C 0.04661 0.58417 0.27071 0.0
O119 O 0.70148 0.61505 0.4014 0.0
C120 C 0.77105 0.58945 0.09229 0.0
O121 O 0.87417 0.72548 0.29007 0.0
O122 O 0.71443 0.70978 0.29342 0.0
O123 O 0.98431 0.53828 0.26719 0.0
O124 O 0.02433 0.64066 0.29371 0.0
C125 C 0.64769 0.50057 0.25363 0.0
O126 O 0.72813 0.63578 0.13087 0.0
O127 O 0.7989 0.53641 0.14306 0.0
C128 C 0.78393 0.74738 0.28763 0.0
O129 O 0.64088 0.55193 0.20688 0.0
O130 O 0.73756 0.48968 0.3149 0.0
C131 C 0.9894 0.54421 0.48796 0.0
Fe132 Fe 0.35865 0.54101 0.28752 0.0
Fe133 Fe 0.20389 0.43676 0.26147 0.0
O134 O 0.33531 0.46115 0.30772 0.0
Fe135 Fe 0.43345 0.4065 0.37504 0.0
O136 O 0.50663 0.46281 0.46834 0.0
O137 O 0.42168 0.55462 0.42571 0.0
O138 O 0.23756 0.5738 0.31482 0.0
C139 C 0.14768 0.56274 0.25372 0.0
C140 C 0.54661 0.47922 0.27069 0.0
O141 O 0.14087 0.51142 0.20688 0.0
C142 C 0.28396 0.31601 0.28765 0.0
O143 O 0.2989 0.52699 0.14304 0.0
O144 O 0.22816 0.4276 0.13089 0.0
O145 O 0.52428 0.42275 0.29366 0.0
O146 O 0.48433 0.52513 0.26717 0.0
C147 C 0.27646 0.425 0.48159 0.0
O148 O 0.21446 0.3536 0.29343 0.0
O149 O 0.3742 0.33792 0.2901 0.0
C150 C 0.27104 0.47394 0.09228 0.0
O151 O 0.20149 0.44833 0.4014 0.0
O152 O 0.3547 0.3927 0.46832 0.0
C153 C 0.48939 0.51922 0.48793 0.0
Fe154 Fe 0.33901 0.43676 0.81134 0.0
Fe155 Fe 0.10945 0.4065 0.69778 0.0
O156 O 0.2076 0.46115 0.76509 0.0
Fe157 Fe 0.18425 0.54102 0.7853 0.0
O158 O 0.30534 0.5738 0.758 0.0
O159 O 0.40203 0.51142 0.86594 0.0
O160 O 0.34142 0.44833 0.67142 0.0
C161 C 0.26643 0.42501 0.59123 0.0
C162 C 0.27184 0.47393 0.98052 0.0
O163 O 0.1882 0.3927 0.6045 0.0
C164 C 0.9963 0.47922 0.80213 0.0
O165 O 0.32844 0.3536 0.77938 0.0
O166 O 0.16871 0.33792 0.78272 0.0
O167 O 0.244 0.52699 0.92978 0.0
O168 O 0.31475 0.42761 0.94193 0.0
C169 C 0.05351 0.51922 0.58488 0.0
O170 O 1.01862 0.42275 0.77916 0.0
O171 O 0.05857 0.52513 0.80564 0.0
C172 C 0.25894 0.31601 0.78517 0.0
O173 O 0.03627 0.46281 0.60447 0.0
O174 O 0.12123 0.55462 0.6471 0.0
C175 C 0.39522 0.56274 0.8191 0.0
loop_
_geom_bond_atom_site_label_1
_geom_bond_atom_site_label_2
_geom_bond_distance
_geom_bond_site_symmetry_2
_ccdc_geom_bond_type
Fe0 O2 1.918 . S
Fe0 O5 1.997 1_545 S
Fe0 O6 2.002 1_545 S
Fe0 O11 1.976 . S
Fe0 O14 1.996 . S
Fe1 O2 1.918 . S
Fe1 O9 1.997 . S
Fe1 O12 1.996 1_455 S
Fe1 O16 1.976 . S
Fe1 O19 2.002 . S
O2 Fe0 1.918 . S
O2 Fe1 1.918 . S
O2 Fe3 1.918 . S
Fe3 O2 1.918 . S
Fe3 O4 2.002 . S
Fe3 O13 1.976 . S
Fe3 O17 1.996 . S
Fe3 O20 1.997 . S
O4 Fe3 2.002 . S
O4 C21 1.295 1_545 S
O5 Fe0 1.997 1_565 S
O5 C21 1.235 . S
O6 Fe0 2.002 1_565 S
O6 C7 1.295 . S
C7 O6 1.295 . S
C7 O9 1.235 1_565 S
C8 O13 1.287 . S
C8 O14 1.255 . S
O9 Fe1 1.997 . S
O9 C7 1.235 1_545 S
C10 O16 1.287 . S
C10 O17 1.255 . S
O11 Fe0 1.976 . S
O11 C18 1.287 1_455 S
O12 Fe1 1.996 1_655 S
O12 C18 1.255 . S
O13 Fe3 1.976 . S
O13 C8 1.287 . S
O14 Fe0 1.996 . S
O14 C8 1.255 . S
C15 O19 1.295 . S
C15 O20 1.235 . S
O16 Fe1 1.976 . S
O16 C10 1.287 . S
O17 Fe3 1.996 . S
O17 C10 1.255 . S
C18 O11 1.287 1_655 S
C18 O12 1.255 . S
O19 Fe1 2.002 . S
O19 C15 1.295 . S
O20 Fe3 1.997 . S
O20 C15 1.235 . S
C21 O4 1.295 1_565 S
C21 O5 1.235 . S
Fe22 O24 1.918 . S
Fe22 O27 1.997 . S
Fe22 O28 2.002 . S
Fe22 O33 1.976 . S
Fe22 O36 1.996 . S
Fe23 O24 1.918 . S
Fe23 O31 1.997 . S
Fe23 O34 1.996 . S
Fe23 O38 1.976 . S
Fe23 O41 2.002 . S
O24 Fe22 1.918 . S
O24 Fe23 1.918 . S
O24 Fe25 1.918 . S
Fe25 O24 1.918 . S
Fe25 O26 2.002 1_545 S
Fe25 O35 1.976 . S
Fe25 O39 1.996 . S
Fe25 O42 1.997 1_545 S
O26 Fe25 2.002 1_565 S
O26 C43 1.295 . S
O27 Fe22 1.997 . S
O27 C43 1.235 1_545 S
O28 Fe22 2.002 . S
O28 C29 1.295 . S
C29 O28 1.295 . S
C29 O31 1.235 . S
C30 O35 1.287 . S
C30 O36 1.255 . S
O31 Fe23 1.997 . S
O31 C29 1.235 . S
C32 O38 1.287 . S
C32 O39 1.255 . S
O33 Fe22 1.976 . S
O33 C40 1.287 . S
O34 Fe23 1.996 . S
O34 C40 1.255 . S
O35 Fe25 1.976 . S
O35 C30 1.287 . S
O36 Fe22 1.996 . S
O36 C30 1.255 . S
C37 O41 1.295 1_565 S
C37 O42 1.235 . S
O38 Fe23 1.976 . S
O38 C32 1.287 . S
O39 Fe25 1.996 . S
O39 C32 1.255 . S
C40 O33 1.287 . S
C40 O34 1.255 . S
O41 Fe23 2.002 . S
O41 C37 1.295 1_545 S
O42 Fe25 1.997 1_565 S
O42 C37 1.235 . S
C43 O26 1.295 . S
C43 O27 1.235 1_565 S
Fe44 O46 1.918 . S
Fe44 O49 1.997 1_565 S
Fe44 O50 2.002 1_565 S
Fe44 O55 1.976 . S
Fe44 O58 1.996 . S
Fe45 O46 1.918 . S
Fe45 O53 1.997 . S
Fe45 O56 1.996 . S
Fe45 O60 1.976 . S
Fe45 O63 2.002 . S
O46 Fe44 1.918 . S
O46 Fe45 1.918 . S
O46 Fe47 1.918 . S
Fe47 O46 1.918 . S
Fe47 O48 2.002 . S
Fe47 O57 1.976 1_655 S
Fe47 O61 1.996 . S
Fe47 O64 1.997 . S
O48 Fe47 2.002 . S
O48 C65 1.295 1_565 S
O49 Fe44 1.997 1_545 S
O49 C65 1.235 . S
O50 Fe44 2.002 1_545 S
O50 C51 1.295 . S
C51 O50 1.295 . S
C51 O53 1.235 1_545 S
C52 O57 1.287 . S
C52 O58 1.255 1_455 S
O53 Fe45 1.997 . S
O53 C51 1.235 1_565 S
C54 O60 1.287 . S
C54 O61 1.255 . S
O55 Fe44 1.976 . S
O55 C62 1.287 . S
O56 Fe45 1.996 . S
O56 C62 1.255 . S
O57 Fe47 1.976 1_455 S
O57 C52 1.287 . S
O58 Fe44 1.996 . S
O58 C52 1.255 1_655 S
C59 O63 1.295 . S
C59 O64 1.235 . S
O60 Fe45 1.976 . S
O60 C54 1.287 . S
O61 Fe47 1.996 . S
O61 C54 1.255 . S
C62 O55 1.287 . S
C62 O56 1.255 . S
O63 Fe45 2.002 . S
O63 C59 1.295 . S
O64 Fe47 1.997 . S
O64 C59 1.235 . S
C65 O48 1.295 1_545 S
C65 O49 1.235 . S
Fe66 O68 1.918 . S
Fe66 O71 1.997 . S
Fe66 O72 2.002 . S
Fe66 O77 1.976 . S
Fe66 O80 1.996 . S
Fe67 O68 1.918 . S
Fe67 O75 1.997 . S
Fe67 O78 1.996 . S
Fe67 O82 1.976 . S
Fe67 O85 2.002 . S
O68 Fe66 1.918 . S
O68 Fe67 1.918 . S
O68 Fe69 1.918 . S
Fe69 O68 1.918 . S
Fe69 O70 2.002 1_565 S
Fe69 O79 1.976 . S
Fe69 O83 1.996 . S
Fe69 O86 1.997 1_565 S
O70 Fe69 2.002 1_545 S
O70 C87 1.295 . S
O71 Fe66 1.997 . S
O71 C87 1.235 1_565 S
O72 Fe66 2.002 . S
O72 C73 1.295 . S
C73 O72 1.295 . S
C73 O75 1.235 . S
C74 O79 1.287 . S
C74 O80 1.255 . S
O75 Fe67 1.997 . S
O75 C73 1.235 . S
C76 O82 1.287 . S
C76 O83 1.255 . S
O77 Fe66 1.976 . S
O77 C84 1.287 . S
O78 Fe67 1.996 . S
O78 C84 1.255 . S
O79 Fe69 1.976 . S
O79 C74 1.287 . S
O80 Fe66 1.996 . S
O80 C74 1.255 . S
C81 O85 1.295 1_545 S
C81 O86 1.235 . S
O82 Fe67 1.976 . S
O82 C76 1.287 . S
O83 Fe69 1.996 . S
O83 C76 1.255 . S
C84 O77 1.287 . S
C84 O78 1.255 . S
O85 Fe67 2.002 . S
O85 C81 1.295 1_565 S
O86 Fe69 1.997 1_545 S
O86 C81 1.235 . S
C87 O70 1.295 . S
C87 O71 1.235 1_545 S
Fe88 O90 1.918 . S
Fe88 O93 1.997 . S
Fe88 O94 2.002 . S
Fe88 O99 1.976 . S
Fe88 O102 1.996 . S
Fe89 O90 1.918 . S
Fe89 O97 1.997 . S
Fe89 O100 1.996 . S
Fe89 O104 1.976 . S
Fe89 O107 2.002 . S
O90 Fe88 1.918 . S
O90 Fe89 1.918 . S
O90 Fe91 1.918 . S
Fe91 O90 1.918 . S
Fe91 O92 2.002 . S
Fe91 O101 1.976 . S
Fe91 O105 1.996 . S
Fe91 O108 1.997 . S
O92 Fe91 2.002 . S
O92 C109 1.295 . S
O93 Fe88 1.997 . S
O93 C109 1.235 . S
O94 Fe88 2.002 . S
O94 C95 1.295 . S
C95 O94 1.295 . S
C95 O97 1.235 . S
C96 O101 1.287 . S
C96 O102 1.255 . S
O97 Fe89 1.997 . S
O97 C95 1.235 . S
C98 O104 1.287 . S
C98 O105 1.255 . S
O99 Fe88 1.976 . S
O99 C106 1.287 . S
O100 Fe89 1.996 . S
O100 C106 1.255 . S
O101 Fe91 1.976 . S
O101 C96 1.287 . S
O102 Fe88 1.996 . S
O102 C96 1.255 . S
C103 O107 1.295 . S
C103 O108 1.235 . S
O104 Fe89 1.976 . S
O104 C98 1.287 . S
O105 Fe91 1.996 . S
O105 C98 1.255 . S
C106 O99 1.287 . S
C106 O100 1.255 . S
O107 Fe89 2.002 . S
O107 C103 1.295 . S
O108 Fe91 1.997 . S
O108 C103 1.235 . S
C109 O92 1.295 . S
C109 O93 1.235 . S
Fe110 O112 1.918 . S
Fe110 O115 1.997 . S
Fe110 O116 2.002 . S
Fe110 O121 1.976 . S
Fe110 O124 1.996 1_655 S
Fe111 O112 1.918 . S
Fe111 O119 1.997 . S
Fe111 O122 1.996 . S
Fe111 O126 1.976 . S
Fe111 O129 2.002 . S
O112 Fe110 1.918 . S
O112 Fe111 1.918 . S
O112 Fe113 1.918 . S
Fe113 O112 1.918 . S
Fe113 O114 2.002 . S
Fe113 O123 1.976 . S
Fe113 O127 1.996 . S
Fe113 O130 1.997 . S
O114 Fe113 2.002 . S
O114 C131 1.295 . S
O115 Fe110 1.997 . S
O115 C131 1.235 . S
O116 Fe110 2.002 . S
O116 C117 1.295 . S
C117 O116 1.295 . S
C117 O119 1.235 . S
C118 O123 1.287 1_455 S
C118 O124 1.255 . S
O119 Fe111 1.997 . S
O119 C117 1.235 . S
C120 O126 1.287 . S
C120 O127 1.255 . S
O121 Fe110 1.976 . S
O121 C128 1.287 . S
O122 Fe111 1.996 . S
O122 C128 1.255 . S
O123 Fe113 1.976 . S
O123 C118 1.287 1_655 S
O124 Fe110 1.996 1_455 S
O124 C118 1.255 . S
C125 O129 1.295 . S
C125 O130 1.235 . S
O126 Fe111 1.976 . S
O126 C120 1.287 . S
O127 Fe113 1.996 . S
O127 C120 1.255 . S
C128 O121 1.287 . S
C128 O122 1.255 . S
O129 Fe111 2.002 . S
O129 C125 1.295 . S
O130 Fe113 1.997 . S
O130 C125 1.235 . S
C131 O114 1.295 . S
C131 O115 1.235 . S
Fe132 O134 1.918 . S
Fe132 O137 1.997 . S
Fe132 O138 2.002 . S
Fe132 O143 1.976 . S
Fe132 O146 1.996 . S
Fe133 O134 1.918 . S
Fe133 O141 1.997 . S
Fe133 O144 1.996 . S
Fe133 O148 1.976 . S
Fe133 O151 2.002 . S
O134 Fe132 1.918 . S
O134 Fe133 1.918 . S
O134 Fe135 1.918 . S
Fe135 O134 1.918 . S
Fe135 O136 2.002 . S
Fe135 O145 1.976 . S
Fe135 O149 1.996 . S
Fe135 O152 1.997 . S
O136 Fe135 2.002 . S
O136 C153 1.295 . S
O137 Fe132 1.997 . S
O137 C153 1.235 . S
O138 Fe132 2.002 . S
O138 C139 1.295 . S
C139 O138 1.295 . S
C139 O141 1.235 . S
C140 O145 1.287 . S
C140 O146 1.255 . S
O141 Fe133 1.997 . S
O141 C139 1.235 . S
C142 O148 1.287 . S
C142 O149 1.255 . S
O143 Fe132 1.976 . S
O143 C150 1.287 . S
O144 Fe133 1.996 . S
O144 C150 1.255 . S
O145 Fe135 1.976 . S
O145 C140 1.287 . S
O146 Fe132 1.996 . S
O146 C140 1.255 . S
C147 O151 1.295 . S
C147 O152 1.235 . S
O148 Fe133 1.976 . S
O148 C142 1.287 . S
O149 Fe135 1.996 . S
O149 C142 1.255 . S
C150 O143 1.287 . S
C150 O144 1.255 . S
O151 Fe133 2.002 . S
O151 C147 1.295 . S
O152 Fe135 1.997 . S
O152 C147 1.235 . S
C153 O136 1.295 . S
C153 O137 1.235 . S
Fe154 O156 1.918 . S
Fe154 O159 1.997 . S
Fe154 O160 2.002 . S
Fe154 O165 1.976 . S
Fe154 O168 1.996 . S
Fe155 O156 1.918 . S
Fe155 O163 1.997 . S
Fe155 O166 1.996 . S
Fe155 O170 1.976 1_455 S
Fe155 O173 2.002 . S
O156 Fe154 1.918 . S
O156 Fe155 1.918 . S
O156 Fe157 1.918 . S
Fe157 O156 1.918 . S
Fe157 O158 2.002 . S
Fe157 O167 1.976 . S
Fe157 O171 1.996 . S
Fe157 O174 1.997 . S
O158 Fe157 2.002 . S
O158 C175 1.295 . S
O159 Fe154 1.997 . S
O159 C175 1.235 . S
O160 Fe154 2.002 . S
O160 C161 1.295 . S
C161 O160 1.295 . S
C161 O163 1.235 . S
C162 O167 1.287 . S
C162 O168 1.255 . S
O163 Fe155 1.997 . S
O163 C161 1.235 . S
C164 O170 1.287 . S
C164 O171 1.255 1_655 S
O165 Fe154 1.976 . S
O165 C172 1.287 . S
O166 Fe155 1.996 . S
O166 C172 1.255 . S
O167 Fe157 1.976 . S
O167 C162 1.287 . S
O168 Fe154 1.996 . S
O168 C162 1.255 . S
C169 O173 1.295 . S
C169 O174 1.235 . S
O170 Fe155 1.976 1_655 S
O170 C164 1.287 . S
O171 Fe157 1.996 . S
O171 C164 1.255 1_455 S
C172 O165 1.287 . S
C172 O166 1.255 . S
O173 Fe155 2.002 . S
O173 C169 1.295 . S
O174 Fe157 1.997 . S
O174 C169 1.235 . S
C175 O158 1.295 . S
C175 O159 1.235 . S
C76 C21 1.628 . S
C52 C37 1.628 . S
C51 C30 1.668 . S
C87 C18 1.668 . S
C164 C103 1.628 . S
C125 C140 1.628 . S
C118 C139 1.668 . S
C96 C175 1.668 . S
C7 C65 1.797 1_464 S
C81 C43 1.797 1_544 S
C109 C153 1.797 . S
C169 C131 1.797 1_455 S
C29 C15 1.357 1_556 S
C59 C73 1.409 1_556 S
C117 C95 1.357 . S
C161 C147 1.409 . S
C8 C32 1.939 . S
C62 C74 2.022 . S
C98 C120 1.939 1_556 S
C162 C150 2.022 1_556 S
C10 C142 2.443 . S
C40 C172 2.443 . S
C106 C54 2.443 . S
C128 C84 2.443 . S
