# Generated by pormake.
# Topology umx, (4)-cn, num edge types: 1
# Building blocks:
#     Node 0, Type 0, BuildingBlock: CEKHIL_clean_sbu_0, # of connection points: 4
#     Node 1, Type 0, BuildingBlock: CEKHIL_clean_sbu_0, # of connection points: 4
#     Node 2, Type 0, BuildingBlock: CEKHIL_clean_sbu_0, # of connection points: 4
#     Node 3, Type 0, BuildingBlock: CEKHIL_clean_sbu_0, # of connection points: 4
#     Node 4, Type 0, BuildingBlock: CEKHIL_clean_sbu_0, # of connection points: 4
#     Node 5, Type 0, BuildingBlock: CEKHIL_clean_sbu_0, # of connection points: 4
#     Node 6, Type 0, BuildingBlock: CEKHIL_clean_sbu_0, # of connection points: 4
#     Node 7, Type 0, BuildingBlock: CEKHIL_clean_sbu_0, # of connection points: 4
#     Edge 8, Type (0, 0), None
#     Edge 9, Type (0, 0), None
#     Edge 10, Type (0, 0), None
#     Edge 11, Type (0, 0), None
#     Edge 12, Type (0, 0), None
#     Edge 13, Type (0, 0), None
#     Edge 14, Type (0, 0), None
#     Edge 15, Type (0, 0), None
#     Edge 16, Type (0, 0), None
#     Edge 17, Type (0, 0), None
#     Edge 18, Type (0, 0), None
#     Edge 19, Type (0, 0), None
#     Edge 20, Type (0, 0), None
#     Edge 21, Type (0, 0), None
#     Edge 22, Type (0, 0), None
#     Edge 23, Type (0, 0), None
# Relax obj value: 0.073
# Max RMSD: 0.183
# Mean RMSD: 0.183
data_MOF--net-umx--node1-CEKHIL_clean_sbu_0--edge1-none
_symmetry_space_group_name_H-M    P1
_symmetry_Int_Tables_number       1
_symmetry_cell_setting            triclinic
loop_
_symmetry_equiv_pos_as_xyz
'x, y, z'
_cell_length_a     18.040854
_cell_length_b     18.040855
_cell_length_c     11.920439
_cell_angle_alpha  90.000003
_cell_angle_beta   89.999997
_cell_angle_gamma 90.001626
loop_
_atom_site_label
_atom_site_type_symbol
_atom_site_fract_x
_atom_site_fract_y
_atom_site_fract_z
_atom_type_partial_charge
Co0 Co 0.18497 0.41384 0.01827 0.0
O1 O 0.2838 0.38069 0.0183 0.0
O2 O 0.18788 0.30755 0.05417 0.0
C3 C 0.19401 0.47395 0.85542 0.0
O4 O 0.0744 0.43783 0.02072 0.0
Co5 Co 0.16809 0.58505 0.03773 0.0
O6 O 0.06278 0.56262 0.00617 0.0
C7 C 0.19776 0.49829 0.24173 0.0
C8 C 0.25939 0.31553 0.04242 0.0
C9 C 0.03522 0.49766 0.01047 0.0
O10 O 0.19265 0.4387 0.18322 0.0
O11 O 0.19478 0.56327 0.19865 0.0
O12 O 0.18102 0.40344 0.85602 0.0
O13 O 0.20935 0.50384 0.95147 0.0
Co14 Co 0.57574 0.18498 0.51827 0.0
O15 O 0.60888 0.28381 0.5183 0.0
O16 O 0.68202 0.1879 0.55417 0.0
C17 C 0.51562 0.19401 0.35543 0.0
O18 O 0.55174 0.07441 0.52072 0.0
Co19 Co 0.40452 0.16808 0.53773 0.0
O20 O 0.42696 0.06277 0.50618 0.0
C21 C 0.49129 0.19776 0.74173 0.0
C22 C 0.67404 0.25941 0.54242 0.0
C23 C 0.49193 0.03522 0.51047 0.0
O24 O 0.55088 0.19266 0.68322 0.0
O25 O 0.4263 0.19477 0.69865 0.0
O26 O 0.58613 0.18103 0.35603 0.0
O27 O 0.48573 0.20935 0.45147 0.0
Co28 Co 0.80461 0.57575 0.01827 0.0
O29 O 0.70579 0.6089 0.0183 0.0
O30 O 0.8017 0.68204 0.05417 0.0
C31 C 0.79558 0.51564 0.85542 0.0
O32 O 0.91519 0.55175 0.02072 0.0
Co33 Co 0.82149 0.40454 0.03773 0.0
O34 O 0.92681 0.42697 0.00617 0.0
C35 C 0.79183 0.4913 0.24173 0.0
C36 C 0.73019 0.67406 0.04242 0.0
C37 C 0.95436 0.49193 0.01045 0.0
O38 O 0.79694 0.55089 0.18322 0.0
O39 O 0.79481 0.42632 0.19865 0.0
O40 O 0.80857 0.58614 0.85602 0.0
O41 O 0.78024 0.48575 0.95147 0.0
Co42 Co 0.41385 0.8046 0.51827 0.0
O43 O 0.38071 0.70577 0.5183 0.0
O44 O 0.30757 0.80169 0.55417 0.0
C45 C 0.47396 0.79557 0.35543 0.0
O46 O 0.43784 0.91518 0.52072 0.0
Co47 Co 0.58506 0.82151 0.53773 0.0
O48 O 0.56262 0.92682 0.50617 0.0
C49 C 0.4983 0.79183 0.74173 0.0
C50 C 0.31554 0.73018 0.54242 0.0
C51 C 0.49766 0.95436 0.51045 0.0
O52 O 0.43871 0.79693 0.68322 0.0
O53 O 0.56328 0.79481 0.69865 0.0
O54 O 0.40346 0.80856 0.35603 0.0
O55 O 0.50385 0.78024 0.45147 0.0
Co56 Co 0.18498 0.57574 0.58867 0.0
O57 O 0.28381 0.60888 0.58862 0.0
O58 O 0.18789 0.68202 0.55276 0.0
C59 C 0.19402 0.51563 0.75151 0.0
O60 O 0.07441 0.55175 0.58623 0.0
Co61 Co 0.16808 0.40452 0.56921 0.0
O62 O 0.06277 0.42696 0.60077 0.0
C63 C 0.19777 0.49128 0.36521 0.0
C64 C 0.25941 0.67404 0.56448 0.0
C65 C 0.03522 0.49193 0.59648 0.0
O66 O 0.19265 0.55087 0.42372 0.0
O67 O 0.19478 0.4263 0.4083 0.0
O68 O 0.18103 0.58613 0.75091 0.0
O69 O 0.20935 0.48573 0.65547 0.0
Co70 Co 0.41384 0.18497 0.08867 0.0
O71 O 0.38069 0.2838 0.08863 0.0
O72 O 0.30755 0.18788 0.05276 0.0
C73 C 0.47394 0.19402 0.25152 0.0
O74 O 0.43783 0.0744 0.08623 0.0
Co75 Co 0.58505 0.16809 0.06922 0.0
O76 O 0.56262 0.06278 0.10077 0.0
C77 C 0.49829 0.19778 0.86522 0.0
C78 C 0.31553 0.25939 0.06448 0.0
C79 C 0.49765 0.03523 0.09648 0.0
O80 O 0.4387 0.19264 0.92372 0.0
O81 O 0.56328 0.19479 0.9083 0.0
O82 O 0.40344 0.18102 0.25091 0.0
O83 O 0.50384 0.20935 0.15547 0.0
Co84 Co 0.8046 0.41385 0.58867 0.0
O85 O 0.70577 0.38071 0.58862 0.0
O86 O 0.80169 0.30757 0.55276 0.0
C87 C 0.79556 0.47396 0.75151 0.0
O88 O 0.91518 0.43784 0.58623 0.0
Co89 Co 0.82151 0.58507 0.56921 0.0
O90 O 0.92682 0.56262 0.60077 0.0
C91 C 0.79181 0.49831 0.36521 0.0
C92 C 0.73018 0.31555 0.56448 0.0
C93 C 0.95436 0.49766 0.5965 0.0
O94 O 0.79694 0.43872 0.42372 0.0
O95 O 0.79481 0.56329 0.4083 0.0
O96 O 0.80856 0.40345 0.75091 0.0
O97 O 0.78024 0.50385 0.65547 0.0
Co98 Co 0.57575 0.80461 0.08867 0.0
O99 O 0.6089 0.70578 0.08863 0.0
O100 O 0.68203 0.80171 0.05276 0.0
C101 C 0.51564 0.79557 0.25152 0.0
O102 O 0.55175 0.91519 0.08623 0.0
Co103 Co 0.40453 0.82149 0.06922 0.0
O104 O 0.42697 0.92681 0.10077 0.0
C105 C 0.49129 0.79181 0.86522 0.0
C106 C 0.67406 0.73019 0.06448 0.0
C107 C 0.49193 0.95436 0.0965 0.0
O108 O 0.55089 0.79694 0.92372 0.0
O109 O 0.42631 0.7948 0.9083 0.0
O110 O 0.58615 0.80857 0.25091 0.0
O111 O 0.48575 0.78024 0.15547 0.0
loop_
_geom_bond_atom_site_label_1
_geom_bond_atom_site_label_2
_geom_bond_distance
_geom_bond_site_symmetry_2
_ccdc_geom_bond_type
Co0 O1 2.216 . S
Co0 O2 2.091 . S
Co0 O4 2.004 . S
Co0 O10 2.021 . S
Co0 O12 2.137 1_554 S
Co0 O13 2.244 1_554 S
O1 Co0 2.216 . S
O1 C8 1.247 . S
O2 Co0 2.091 . S
O2 C8 1.261 . S
C3 O12 1.247 . S
C3 O13 1.272 . S
O4 Co0 2.004 . S
O4 C9 1.259 . S
Co5 O6 2.061 . S
Co5 O11 2.052 . S
Co5 O13 2.135 1_554 S
O6 Co5 2.061 . S
O6 C9 1.235 . S
C7 O10 1.238 . S
C7 O11 1.241 . S
C8 O1 1.247 . S
C8 O2 1.261 . S
C9 O4 1.259 . S
C9 O6 1.235 . S
O10 Co0 2.021 . S
O10 C7 1.238 . S
O11 Co5 2.052 . S
O11 C7 1.241 . S
O12 Co0 2.137 1_556 S
O12 C3 1.247 . S
O13 Co0 2.244 1_556 S
O13 C3 1.272 . S
O13 Co5 2.135 1_556 S
Co14 O15 2.216 . S
Co14 O16 2.091 . S
Co14 O18 2.004 . S
Co14 O24 2.021 . S
Co14 O26 2.137 . S
Co14 O27 2.244 . S
O15 Co14 2.216 . S
O15 C22 1.247 . S
O16 Co14 2.091 . S
O16 C22 1.261 . S
C17 O26 1.247 . S
C17 O27 1.272 . S
O18 Co14 2.004 . S
O18 C23 1.259 . S
Co19 O20 2.061 . S
Co19 O25 2.052 . S
Co19 O27 2.135 . S
O20 Co19 2.061 . S
O20 C23 1.235 . S
C21 O24 1.238 . S
C21 O25 1.241 . S
C22 O15 1.247 . S
C22 O16 1.261 . S
C23 O18 1.259 . S
C23 O20 1.235 . S
O24 Co14 2.021 . S
O24 C21 1.238 . S
O25 Co19 2.052 . S
O25 C21 1.241 . S
O26 Co14 2.137 . S
O26 C17 1.247 . S
O27 Co14 2.244 . S
O27 C17 1.272 . S
O27 Co19 2.135 . S
Co28 O29 2.216 . S
Co28 O30 2.091 . S
Co28 O32 2.004 . S
Co28 O38 2.021 . S
Co28 O40 2.137 1_554 S
Co28 O41 2.244 1_554 S
O29 Co28 2.216 . S
O29 C36 1.247 . S
O30 Co28 2.091 . S
O30 C36 1.261 . S
C31 O40 1.247 . S
C31 O41 1.272 . S
O32 Co28 2.004 . S
O32 C37 1.259 . S
Co33 O34 2.061 . S
Co33 O39 2.052 . S
Co33 O41 2.135 1_554 S
O34 Co33 2.061 . S
O34 C37 1.235 . S
C35 O38 1.238 . S
C35 O39 1.241 . S
C36 O29 1.247 . S
C36 O30 1.261 . S
C37 O32 1.259 . S
C37 O34 1.235 . S
O38 Co28 2.021 . S
O38 C35 1.238 . S
O39 Co33 2.052 . S
O39 C35 1.241 . S
O40 Co28 2.137 1_556 S
O40 C31 1.247 . S
O41 Co28 2.244 1_556 S
O41 C31 1.272 . S
O41 Co33 2.135 1_556 S
Co42 O43 2.216 . S
Co42 O44 2.091 . S
Co42 O46 2.004 . S
Co42 O52 2.021 . S
Co42 O54 2.137 . S
Co42 O55 2.244 . S
O43 Co42 2.216 . S
O43 C50 1.247 . S
O44 Co42 2.091 . S
O44 C50 1.261 . S
C45 O54 1.247 . S
C45 O55 1.272 . S
O46 Co42 2.004 . S
O46 C51 1.259 . S
Co47 O48 2.061 . S
Co47 O53 2.052 . S
Co47 O55 2.135 . S
O48 Co47 2.061 . S
O48 C51 1.235 . S
C49 O52 1.238 . S
C49 O53 1.241 . S
C50 O43 1.247 . S
C50 O44 1.261 . S
C51 O46 1.259 . S
C51 O48 1.235 . S
O52 Co42 2.021 . S
O52 C49 1.238 . S
O53 Co47 2.052 . S
O53 C49 1.241 . S
O54 Co42 2.137 . S
O54 C45 1.247 . S
O55 Co42 2.244 . S
O55 C45 1.272 . S
O55 Co47 2.135 . S
Co56 O57 2.216 . S
Co56 O58 2.091 . S
Co56 O60 2.004 . S
Co56 O66 2.021 . S
Co56 O68 2.137 . S
Co56 O69 2.244 . S
O57 Co56 2.216 . S
O57 C64 1.247 . S
O58 Co56 2.091 . S
O58 C64 1.261 . S
C59 O68 1.247 . S
C59 O69 1.272 . S
O60 Co56 2.004 . S
O60 C65 1.259 . S
Co61 O62 2.061 . S
Co61 O67 2.052 . S
Co61 O69 2.135 . S
O62 Co61 2.061 . S
O62 C65 1.235 . S
C63 O66 1.238 . S
C63 O67 1.241 . S
C64 O57 1.247 . S
C64 O58 1.261 . S
C65 O60 1.259 . S
C65 O62 1.235 . S
O66 Co56 2.021 . S
O66 C63 1.238 . S
O67 Co61 2.052 . S
O67 C63 1.241 . S
O68 Co56 2.137 . S
O68 C59 1.247 . S
O69 Co56 2.244 . S
O69 C59 1.272 . S
O69 Co61 2.135 . S
Co70 O71 2.216 . S
Co70 O72 2.091 . S
Co70 O74 2.004 . S
Co70 O80 2.021 1_554 S
Co70 O82 2.137 . S
Co70 O83 2.244 . S
O71 Co70 2.216 . S
O71 C78 1.247 . S
O72 Co70 2.091 . S
O72 C78 1.261 . S
C73 O82 1.247 . S
C73 O83 1.272 . S
O74 Co70 2.004 . S
O74 C79 1.259 . S
Co75 O76 2.061 . S
Co75 O81 2.052 1_554 S
Co75 O83 2.135 . S
O76 Co75 2.061 . S
O76 C79 1.235 . S
C77 O80 1.238 . S
C77 O81 1.241 . S
C78 O71 1.247 . S
C78 O72 1.261 . S
C79 O74 1.259 . S
C79 O76 1.235 . S
O80 Co70 2.021 1_556 S
O80 C77 1.238 . S
O81 Co75 2.052 1_556 S
O81 C77 1.241 . S
O82 Co70 2.137 . S
O82 C73 1.247 . S
O83 Co70 2.244 . S
O83 C73 1.272 . S
O83 Co75 2.135 . S
Co84 O85 2.216 . S
Co84 O86 2.091 . S
Co84 O88 2.004 . S
Co84 O94 2.021 . S
Co84 O96 2.137 . S
Co84 O97 2.244 . S
O85 Co84 2.216 . S
O85 C92 1.247 . S
O86 Co84 2.091 . S
O86 C92 1.261 . S
C87 O96 1.247 . S
C87 O97 1.272 . S
O88 Co84 2.004 . S
O88 C93 1.259 . S
Co89 O90 2.061 . S
Co89 O95 2.052 . S
Co89 O97 2.135 . S
O90 Co89 2.061 . S
O90 C93 1.235 . S
C91 O94 1.238 . S
C91 O95 1.241 . S
C92 O85 1.247 . S
C92 O86 1.261 . S
C93 O88 1.259 . S
C93 O90 1.235 . S
O94 Co84 2.021 . S
O94 C91 1.238 . S
O95 Co89 2.052 . S
O95 C91 1.241 . S
O96 Co84 2.137 . S
O96 C87 1.247 . S
O97 Co84 2.244 . S
O97 C87 1.272 . S
O97 Co89 2.135 . S
Co98 O99 2.216 . S
Co98 O100 2.091 . S
Co98 O102 2.004 . S
Co98 O108 2.021 1_554 S
Co98 O110 2.137 . S
Co98 O111 2.244 . S
O99 Co98 2.216 . S
O99 C106 1.247 . S
O100 Co98 2.091 . S
O100 C106 1.261 . S
C101 O110 1.247 . S
C101 O111 1.272 . S
O102 Co98 2.004 . S
O102 C107 1.259 . S
Co103 O104 2.061 . S
Co103 O109 2.052 1_554 S
Co103 O111 2.135 . S
O104 Co103 2.061 . S
O104 C107 1.235 . S
C105 O108 1.238 . S
C105 O109 1.241 . S
C106 O99 1.247 . S
C106 O100 1.261 . S
C107 O102 1.259 . S
C107 O104 1.235 . S
O108 Co98 2.021 1_556 S
O108 C105 1.238 . S
O109 Co103 2.052 1_556 S
O109 C105 1.241 . S
O110 Co98 2.137 . S
O110 C101 1.247 . S
O111 Co98 2.244 . S
O111 C101 1.272 . S
O111 Co103 2.135 . S
C7 C63 1.996 . S
C21 C77 1.996 . S
C91 C35 1.996 . S
C105 C49 1.996 . S
C87 C31 1.525 . S
C101 C45 1.525 . S
C3 C59 1.525 . S
C17 C73 1.525 . S
C37 C9 1.327 1_655 S
C51 C23 1.327 1_565 S
C65 C93 1.327 1_455 S
C107 C79 1.327 1_565 S
C8 C78 1.390 . S
C92 C22 1.390 . S
C36 C106 1.390 . S
C50 C64 1.390 . S
