# Generated by pormake.
# Topology tsi, (8)-cn, num edge types: 1
# Building blocks:
#     Node 0, Type 0, BuildingBlock: TAGTUT_clean_sbu_1, # of connection points: 8
#     Node 1, Type 0, BuildingBlock: TAGTUT_clean_sbu_1, # of connection points: 8
#     Node 2, Type 0, BuildingBlock: TAGTUT_clean_sbu_1, # of connection points: 8
#     Node 3, Type 0, BuildingBlock: TAGTUT_clean_sbu_1, # of connection points: 8
#     Edge 4, Type (0, 0), None
#     Edge 5, Type (0, 0), None
#     Edge 6, Type (0, 0), None
#     Edge 7, Type (0, 0), None
#     Edge 8, Type (0, 0), None
#     Edge 9, Type (0, 0), None
#     Edge 10, Type (0, 0), None
#     Edge 11, Type (0, 0), None
#     Edge 12, Type (0, 0), None
#     Edge 13, Type (0, 0), None
#     Edge 14, Type (0, 0), None
#     Edge 15, Type (0, 0), None
#     Edge 16, Type (0, 0), None
#     Edge 17, Type (0, 0), None
#     Edge 18, Type (0, 0), None
#     Edge 19, Type (0, 0), None
# Relax obj value: 0.159
# Max RMSD: 0.257
# Mean RMSD: 0.257
data_MOF--net-tsi--node1-TAGTUT_clean_sbu_1--edge1-none
_symmetry_space_group_name_H-M    P1
_symmetry_Int_Tables_number       1
_symmetry_cell_setting            triclinic
loop_
_symmetry_equiv_pos_as_xyz
'x, y, z'
_cell_length_a     6.9490031
_cell_length_b     7.721818
_cell_length_c     43.149701
_cell_angle_alpha  101.86578
_cell_angle_beta   89.470081
_cell_angle_gamma 109.06216
loop_
_atom_site_label
_atom_site_type_symbol
_atom_site_fract_x
_atom_site_fract_y
_atom_site_fract_z
_atom_type_partial_charge
C0 C 0.09832 0.0509 0.42865 0.0
C1 C 0.9757 0.45461 0.40227 0.0
C2 C 0.59054 0.07279 0.29739 0.0
Mg3 Mg 0.304 0.28656 0.37958 0.0
O4 O 0.09205 0.11734 0.35239 0.0
Mg5 Mg 0.81413 8e-05 0.36384 0.0
Mg6 Mg 0.02731 0.12257 0.30772 0.0
O7 O 0.95901 0.10272 0.26386 0.0
Mg8 Mg 0.80001 0.87324 0.23911 0.0
Mg9 Mg 0.18481 0.26976 0.24858 0.0
C10 C 0.48529 0.18478 0.31202 0.0
C11 C 0.01329 0.53688 0.30265 0.0
O12 O 0.93284 -0.01463 0.41123 0.0
O13 O 0.26673 0.15228 0.41987 0.0
O14 O 0.8312 0.29777 0.39185 0.0
O15 O 0.15771 0.49083 0.39297 0.0
O16 O 0.50603 0.22615 0.34257 0.0
O17 O 0.36245 0.24216 0.29723 0.0
C18 C 0.9714 0.69711 0.31281 0.0
O19 O 0.03384 0.82484 0.29672 0.0
O20 O 0.87621 0.72297 0.33826 0.0
O21 O 0.8997 0.16799 0.20271 0.0
O22 O 0.63738 -0.0991 0.20498 0.0
O23 O 0.30644 0.05949 0.22467 0.0
C24 C 0.72706 0.03138 0.19123 0.0
O25 O 0.02505 -0.09762 0.197 0.0
O26 O 0.58779 0.01979 0.26702 0.0
C27 C 0.20961 0.01517 0.1984 0.0
O28 O 0.70147 0.01935 0.3144 0.0
O29 O -0.00616 0.41972 0.32048 0.0
O30 O 0.07993 0.50725 0.27509 0.0
C31 C 0.15573 0.48638 0.65798 0.0
C32 C 0.78253 0.65035 0.67567 0.0
C33 C 0.54256 0.63913 0.55308 0.0
Mg34 Mg 0.19928 0.79995 0.63579 0.0
O35 O 0.98563 0.68631 0.60444 0.0
Mg36 Mg 0.75555 0.44749 0.60964 0.0
Mg37 Mg -0.01222 0.6587 0.55744 0.0
O38 O 0.98107 0.62368 0.50947 0.0
Mg39 Mg 0.79035 0.70317 0.48964 0.0
Mg40 Mg 0.26319 0.80812 0.50703 0.0
C41 C 0.42595 0.71802 0.57201 0.0
C42 C 0.02191 0.07259 0.54858 0.0
O43 O 0.96375 0.40526 0.64979 0.0
O44 O 0.27347 0.57531 0.64052 0.0
O45 O 0.67134 0.62826 0.6507 0.0
O46 O 0.97673 0.74253 0.67655 0.0
O47 O 0.42202 0.72145 0.60183 0.0
O48 O 0.32055 0.79688 0.55965 0.0
C49 C 0.9692 0.22707 0.55752 0.0
O50 O 0.05199 0.37482 0.54734 0.0
O51 O 0.83906 0.2254 0.57791 0.0
O52 O 0.21266 0.89492 0.46122 0.0
O53 O 0.93252 -0.03376 0.47358 0.0
O54 O 0.1247 0.66166 0.45123 0.0
C55 C 0.09413 -0.01201 0.45813 0.0
O56 O 0.78127 0.52674 0.4454 0.0
O57 O 0.56556 0.68395 0.52575 0.0
C58 C 0.95692 0.5597 0.4339 0.0
O59 O 0.64548 0.54384 0.56248 0.0
O60 O 0.94634 -0.06084 0.56286 0.0
O61 O 0.14743 0.06014 0.52712 0.0
C62 C 0.59852 0.55123 0.92868 0.0
C63 C 0.47588 -0.04507 0.9023 0.0
C64 C 0.0907 0.57307 0.79742 0.0
Mg65 Mg 0.80417 0.78687 0.87961 0.0
O66 O 0.59222 0.61764 0.85242 0.0
Mg67 Mg 0.31431 0.50039 0.86388 0.0
Mg68 Mg 0.52748 0.62284 0.80775 0.0
O69 O 0.45918 0.60296 0.76389 0.0
Mg70 Mg 0.30014 0.3735 0.73913 0.0
Mg71 Mg 0.68494 0.77008 0.74861 0.0
C72 C 0.98545 0.68507 0.81204 0.0
C73 C 0.51343 0.03716 0.80268 0.0
O74 O 0.43303 0.4857 0.91126 0.0
O75 O 0.76693 0.6526 0.9199 0.0
O76 O 0.33138 0.79809 0.89188 0.0
O77 O 0.65789 -0.00885 0.893 0.0
O78 O 0.0062 0.72645 0.8426 0.0
O79 O 0.86261 0.74244 0.79726 0.0
C80 C 0.47156 0.19739 0.81285 0.0
O81 O 0.534 0.32512 0.79676 0.0
O82 O 0.37636 0.22327 0.83829 0.0
O83 O 0.39974 0.66833 0.70275 0.0
O84 O 0.13743 0.40119 0.70503 0.0
O85 O 0.8066 0.55988 0.72467 0.0
C86 C 0.22704 0.53177 0.69129 0.0
O87 O 0.52505 0.40268 0.69702 0.0
O88 O 0.08794 0.52006 0.76705 0.0
C89 C 0.70958 0.51551 0.69842 0.0
O90 O 0.20163 0.51963 0.81443 0.0
O91 O 0.49399 -0.08 0.82051 0.0
O92 O 0.58006 0.00753 0.77512 0.0
C93 C 0.6557 -0.01397 0.15792 0.0
C94 C 0.28258 0.1502 0.17569 0.0
C95 C 0.04268 0.13943 0.0531 0.0
Mg96 Mg 0.69933 0.29994 0.13582 0.0
O97 O 0.48564 0.18657 0.10447 0.0
Mg98 Mg 0.25553 -0.05238 0.10964 0.0
Mg99 Mg 0.48788 0.15898 0.05746 0.0
O100 O 0.48122 0.12398 0.0095 0.0
Mg101 Mg 0.29052 0.20351 -0.01033 0.0
Mg102 Mg 0.76335 0.30842 0.00706 0.0
C103 C 0.92606 0.21829 0.07204 0.0
C104 C 0.52202 0.57287 0.04859 0.0
O105 O 0.46367 -0.09489 0.14976 0.0
O106 O 0.77342 0.0751 0.14047 0.0
O107 O 0.17134 0.12823 0.15073 0.0
O108 O 0.47681 0.24228 0.17657 0.0
O109 O 0.92212 0.22163 0.10186 0.0
O110 O 0.82066 0.29717 0.05968 0.0
C111 C 0.46926 0.72732 0.05753 0.0
O112 O 0.55216 0.87513 0.04737 0.0
O113 O 0.33896 0.72557 0.0779 0.0
O114 O 0.71285 0.39524 -0.03875 0.0
O115 O 0.43271 0.46657 -0.02639 0.0
O116 O 0.62488 0.16198 -0.04874 0.0
C117 C 0.59433 0.48832 -0.04184 0.0
O118 O 0.28145 0.02709 -0.05457 0.0
O119 O 0.06569 0.1843 0.02577 0.0
C120 C 0.45709 0.06004 -0.06607 0.0
O121 O 0.14556 0.04411 0.0625 0.0
O122 O 0.4464 0.43942 0.06287 0.0
O123 O 0.64762 0.56045 0.02715 0.0
loop_
_geom_bond_atom_site_label_1
_geom_bond_atom_site_label_2
_geom_bond_distance
_geom_bond_site_symmetry_2
_ccdc_geom_bond_type
C0 O12 1.241 1_445 S
C0 O13 1.280 . S
C1 O14 1.277 . S
C1 O15 1.245 1_655 S
C2 O26 1.247 . S
C2 O28 1.289 . S
Mg3 O4 1.926 . S
Mg3 O13 1.984 . S
Mg3 O15 1.988 . S
Mg3 O16 2.061 . S
O4 Mg3 1.926 . S
O4 Mg5 1.986 1_455 S
O4 Mg6 1.917 . S
Mg5 O4 1.986 1_655 S
Mg5 O12 2.042 1_545 S
Mg5 O14 2.041 . S
Mg5 O20 2.038 1_545 S
Mg5 O28 2.238 . S
Mg6 O4 1.917 . S
Mg6 O7 1.917 1_455 S
Mg6 O17 2.106 . S
Mg6 O19 2.079 1_545 S
Mg6 O28 2.106 1_455 S
Mg6 O29 2.079 . S
O7 Mg6 1.917 1_655 S
O7 Mg8 1.926 . S
O7 Mg9 1.986 1_655 S
Mg8 O7 1.926 . S
Mg8 O22 1.984 . S
Mg8 O25 1.988 1_545 S
Mg8 O26 2.061 . S
Mg9 O7 1.986 1_455 S
Mg9 O17 2.238 . S
Mg9 O21 2.042 . S
Mg9 O23 2.041 . S
Mg9 O30 2.038 . S
C10 O16 1.247 . S
C10 O17 1.289 . S
C11 O29 1.245 . S
C11 O30 1.274 . S
O12 C0 1.241 1_665 S
O12 Mg5 2.042 1_565 S
O13 C0 1.280 . S
O13 Mg3 1.984 . S
O14 C1 1.277 . S
O14 Mg5 2.041 . S
O15 C1 1.245 1_455 S
O15 Mg3 1.988 . S
O16 Mg3 2.061 . S
O16 C10 1.247 . S
O17 Mg6 2.106 . S
O17 Mg9 2.238 . S
O17 C10 1.289 . S
C18 O19 1.245 1_655 S
C18 O20 1.274 . S
O19 Mg6 2.079 1_565 S
O19 C18 1.245 1_455 S
O20 Mg5 2.038 1_565 S
O20 C18 1.274 . S
O21 Mg9 2.042 . S
O21 C24 1.241 1_455 S
O22 Mg8 1.984 . S
O22 C24 1.280 . S
O23 Mg9 2.041 . S
O23 C27 1.277 . S
C24 O21 1.241 1_655 S
C24 O22 1.280 . S
O25 Mg8 1.988 1_565 S
O25 C27 1.245 1_665 S
O26 C2 1.247 . S
O26 Mg8 2.061 . S
C27 O23 1.277 . S
C27 O25 1.245 1_445 S
O28 C2 1.289 . S
O28 Mg5 2.238 . S
O28 Mg6 2.106 1_655 S
O29 Mg6 2.079 . S
O29 C11 1.245 . S
O30 Mg9 2.038 . S
O30 C11 1.274 . S
C31 O43 1.241 1_455 S
C31 O44 1.280 . S
C32 O45 1.277 . S
C32 O46 1.245 1_665 S
C33 O57 1.247 . S
C33 O59 1.289 . S
Mg34 O35 1.926 . S
Mg34 O44 1.984 . S
Mg34 O46 1.988 1_565 S
Mg34 O47 2.061 . S
O35 Mg34 1.926 . S
O35 Mg36 1.986 1_455 S
O35 Mg37 1.917 . S
Mg36 O35 1.986 1_655 S
Mg36 O43 2.042 . S
Mg36 O45 2.041 . S
Mg36 O51 2.038 . S
Mg36 O59 2.238 . S
Mg37 O35 1.917 . S
Mg37 O38 1.917 1_455 S
Mg37 O48 2.106 . S
Mg37 O50 2.079 1_455 S
Mg37 O59 2.106 1_455 S
Mg37 O60 2.079 1_565 S
O38 Mg37 1.917 1_655 S
O38 Mg39 1.926 . S
O38 Mg40 1.986 1_655 S
Mg39 O38 1.926 . S
Mg39 O53 1.984 . S
Mg39 O56 1.988 . S
Mg39 O57 2.061 . S
Mg40 O38 1.986 1_455 S
Mg40 O48 2.238 . S
Mg40 O52 2.042 1_565 S
Mg40 O54 2.041 . S
Mg40 O61 2.038 1_565 S
C41 O47 1.247 . S
C41 O48 1.289 . S
C42 O60 1.245 . S
C42 O61 1.274 . S
O43 C31 1.241 1_655 S
O43 Mg36 2.042 . S
O44 C31 1.280 . S
O44 Mg34 1.984 . S
O45 C32 1.277 . S
O45 Mg36 2.041 . S
O46 C32 1.245 1_445 S
O46 Mg34 1.988 1_545 S
O47 Mg34 2.061 . S
O47 C41 1.247 . S
O48 Mg37 2.106 . S
O48 Mg40 2.238 . S
O48 C41 1.289 . S
C49 O50 1.245 . S
C49 O51 1.274 . S
O50 Mg37 2.079 1_655 S
O50 C49 1.245 . S
O51 Mg36 2.038 . S
O51 C49 1.274 . S
O52 Mg40 2.042 1_545 S
O52 C55 1.241 1_445 S
O53 Mg39 1.984 . S
O53 C55 1.280 . S
O54 Mg40 2.041 . S
O54 C58 1.277 . S
C55 O52 1.241 1_665 S
C55 O53 1.280 . S
O56 Mg39 1.988 . S
O56 C58 1.245 1_655 S
O57 C33 1.247 . S
O57 Mg39 2.061 . S
C58 O54 1.277 . S
C58 O56 1.245 1_455 S
O59 C33 1.289 . S
O59 Mg36 2.238 . S
O59 Mg37 2.106 1_655 S
O60 Mg37 2.079 1_545 S
O60 C42 1.245 . S
O61 Mg40 2.038 1_545 S
O61 C42 1.274 . S
C62 O74 1.241 . S
C62 O75 1.280 . S
C63 O76 1.277 . S
C63 O77 1.245 1_565 S
C64 O88 1.247 . S
C64 O90 1.289 . S
Mg65 O66 1.926 . S
Mg65 O75 1.984 . S
Mg65 O77 1.988 1_565 S
Mg65 O78 2.061 . S
O66 Mg65 1.926 . S
O66 Mg67 1.986 . S
O66 Mg68 1.917 . S
Mg67 O66 1.986 . S
Mg67 O74 2.042 . S
Mg67 O76 2.041 . S
Mg67 O82 2.038 . S
Mg67 O90 2.238 . S
Mg68 O66 1.917 . S
Mg68 O69 1.917 . S
Mg68 O79 2.106 . S
Mg68 O81 2.079 . S
Mg68 O90 2.106 . S
Mg68 O91 2.079 1_565 S
O69 Mg68 1.917 . S
O69 Mg70 1.926 . S
O69 Mg71 1.986 . S
Mg70 O69 1.926 . S
Mg70 O84 1.984 . S
Mg70 O87 1.988 . S
Mg70 O88 2.061 . S
Mg71 O69 1.986 . S
Mg71 O79 2.238 . S
Mg71 O83 2.042 1_565 S
Mg71 O85 2.041 . S
Mg71 O92 2.038 1_565 S
C72 O78 1.247 . S
C72 O79 1.289 . S
C73 O91 1.245 . S
C73 O92 1.274 . S
O74 C62 1.241 . S
O74 Mg67 2.042 . S
O75 C62 1.280 . S
O75 Mg65 1.984 . S
O76 C63 1.277 . S
O76 Mg67 2.041 . S
O77 C63 1.245 1_545 S
O77 Mg65 1.988 1_545 S
O78 Mg65 2.061 . S
O78 C72 1.247 . S
O79 Mg68 2.106 . S
O79 Mg71 2.238 . S
O79 C72 1.289 . S
C80 O81 1.245 . S
C80 O82 1.274 . S
O81 Mg68 2.079 . S
O81 C80 1.245 . S
O82 Mg67 2.038 . S
O82 C80 1.274 . S
O83 Mg71 2.042 1_545 S
O83 C86 1.241 1_545 S
O84 Mg70 1.984 . S
O84 C86 1.280 . S
O85 Mg71 2.041 . S
O85 C89 1.277 . S
C86 O83 1.241 1_565 S
C86 O84 1.280 . S
O87 Mg70 1.988 . S
O87 C89 1.245 . S
O88 C64 1.247 . S
O88 Mg70 2.061 . S
C89 O85 1.277 . S
C89 O87 1.245 . S
O90 C64 1.289 . S
O90 Mg67 2.238 . S
O90 Mg68 2.106 . S
O91 Mg68 2.079 1_545 S
O91 C73 1.245 . S
O92 Mg71 2.038 1_545 S
O92 C73 1.274 . S
C93 O105 1.241 1_545 S
C93 O106 1.280 . S
C94 O107 1.277 . S
C94 O108 1.245 . S
C95 O119 1.247 . S
C95 O121 1.289 . S
Mg96 O97 1.926 . S
Mg96 O106 1.984 . S
Mg96 O108 1.988 . S
Mg96 O109 2.061 . S
O97 Mg96 1.926 . S
O97 Mg98 1.986 . S
O97 Mg99 1.917 . S
Mg98 O97 1.986 . S
Mg98 O105 2.042 1_545 S
Mg98 O107 2.041 . S
Mg98 O113 2.038 1_545 S
Mg98 O121 2.238 . S
Mg99 O97 1.917 . S
Mg99 O100 1.917 . S
Mg99 O110 2.106 . S
Mg99 O112 2.079 1_545 S
Mg99 O121 2.106 . S
Mg99 O122 2.079 . S
O100 Mg99 1.917 . S
O100 Mg101 1.926 . S
O100 Mg102 1.986 . S
Mg101 O100 1.926 . S
Mg101 O115 1.984 . S
Mg101 O118 1.988 1_545 S
Mg101 O119 2.061 . S
Mg102 O100 1.986 . S
Mg102 O110 2.238 . S
Mg102 O114 2.042 . S
Mg102 O116 2.041 . S
Mg102 O123 2.038 . S
C103 O109 1.247 . S
C103 O110 1.289 . S
C104 O122 1.245 . S
C104 O123 1.274 . S
O105 C93 1.241 1_565 S
O105 Mg98 2.042 1_565 S
O106 C93 1.280 . S
O106 Mg96 1.984 . S
O107 C94 1.277 . S
O107 Mg98 2.041 . S
O108 C94 1.245 . S
O108 Mg96 1.988 . S
O109 Mg96 2.061 . S
O109 C103 1.247 . S
O110 Mg99 2.106 . S
O110 Mg102 2.238 . S
O110 C103 1.289 . S
C111 O112 1.245 . S
C111 O113 1.274 . S
O112 Mg99 2.079 1_565 S
O112 C111 1.245 . S
O113 Mg98 2.038 1_565 S
O113 C111 1.274 . S
O114 Mg102 2.042 . S
O114 C117 1.241 . S
O115 Mg101 1.984 . S
O115 C117 1.280 . S
O116 Mg102 2.041 . S
O116 C120 1.277 . S
C117 O114 1.241 . S
C117 O115 1.280 . S
O118 Mg101 1.988 1_565 S
O118 C120 1.245 1_565 S
O119 C95 1.247 . S
O119 Mg101 2.061 . S
C120 O116 1.277 . S
C120 O118 1.245 1_545 S
O121 C95 1.289 . S
O121 Mg98 2.238 . S
O121 Mg99 2.106 . S
O122 Mg99 2.079 . S
O122 C104 1.245 . S
O123 Mg102 2.038 . S
O123 C104 1.274 . S
C1 C58 1.594 1_655 S
C89 C32 3.178 . S
C62 C117 1.730 1_556 S
C24 C93 3.156 . S
C94 C27 3.178 . S
C31 C86 3.156 . S
C63 C120 1.594 1_566 S
C0 C55 1.729 1_445 S
C18 C11 2.379 1_655 S
C41 C33 2.408 . S
C80 C73 2.379 . S
C95 C103 2.408 1_455 S
C42 C49 2.379 1_455 S
C72 C64 2.408 1_655 S
C104 C111 2.379 . S
C2 C10 2.408 . S
