# Generated by pormake.
# Topology hex, (8)-cn, num edge types: 1
# Building blocks:
#     Node 0, Type 0, BuildingBlock: TAGTUT_clean_sbu_1, # of connection points: 8
#     Edge 1, Type (0, 0), BuildingBlock: ZUJKAS_clean_linker_0, # of connection points: 2
#     Edge 2, Type (0, 0), BuildingBlock: ZUJKAS_clean_linker_0, # of connection points: 2
#     Edge 3, Type (0, 0), BuildingBlock: ZUJKAS_clean_linker_0, # of connection points: 2
#     Edge 4, Type (0, 0), BuildingBlock: ZUJKAS_clean_linker_0, # of connection points: 2
# Relax obj value: 0.052
# Max RMSD: 0.156
# Mean RMSD: 0.156
data_MOF--net-hex--node1-TAGTUT_clean_sbu_1--edge1-ZUJKAS_clean_linker_0
_symmetry_space_group_name_H-M    P1
_symmetry_Int_Tables_number       1
_symmetry_cell_setting            triclinic
loop_
_symmetry_equiv_pos_as_xyz
'x, y, z'
_cell_length_a     22.288624
_cell_length_b     24.203722
_cell_length_c     20.29998
_cell_angle_alpha  90.052732
_cell_angle_beta   100.49982
_cell_angle_gamma 128.45126
loop_
_atom_site_label
_atom_site_type_symbol
_atom_site_fract_x
_atom_site_fract_y
_atom_site_fract_z
_atom_type_partial_charge
C0 C 0.92291 0.16759 0.00084 0.0
C1 C 0.7783 0.95687 0.03544 0.0
C2 C 0.04933 0.00793 0.15927 0.0
Mg3 Mg 0.87245 0.02717 0.92925 0.0
O4 O 0.96546 0.05965 0.98919 0.0
Mg5 Mg 0.97823 0.08312 0.08792 0.0
Mg6 Mg -0.00615 -0.00319 0.99493 0.0
O7 O 0.02225 0.93398 0.0008 0.0
Mg8 Mg 0.11514 0.96638 0.06098 0.0
Mg9 Mg 0.00978 0.91074 0.90213 0.0
C10 C 0.93785 0.98524 0.83078 0.0
C11 C 0.83744 0.83199 0.93698 0.0
O12 O 0.95583 0.16033 0.05509 0.0
O13 O 0.88885 0.12357 0.94578 0.0
O14 O 0.84254 0.00058 0.08074 0.0
O15 O 0.77873 0.94899 0.97345 0.0
O16 O 0.89047 -0.00304 0.83834 0.0
O17 O 0.98512 0.9896 0.88156 0.0
C18 C 0.1504 0.16164 0.05286 0.0
O19 O 0.12149 0.10332 0.0163 0.0
O20 O 0.1091 0.16553 0.08614 0.0
O21 O 0.03244 0.8337 0.93489 0.0
O22 O 0.09923 0.87025 0.04425 0.0
O23 O 0.14551 0.9935 0.90963 0.0
C24 C 0.06544 0.82644 0.98907 0.0
O25 O 0.20896 0.04487 0.01704 0.0
O26 O 0.09666 0.99607 0.15194 0.0
C27 C 0.20962 0.03718 0.95508 0.0
O28 O 0.0027 0.00411 0.10826 0.0
O29 O 0.86625 0.89029 0.97352 0.0
O30 O 0.87884 0.82817 0.90376 0.0
H31 H 0.87658 0.21107 0.89347 0.0
H32 H 0.90126 0.32447 0.89211 0.0
H33 H 0.00681 0.38151 0.10651 0.0
H34 H 0.98322 0.26883 0.10876 0.0
H35 H 0.856 0.38648 0.97264 0.0
H36 H 0.18016 0.54261 0.01564 0.0
H37 H 0.11055 0.4474 0.9884 0.0
H38 H 0.1344 0.48271 0.07544 0.0
C39 C 0.90437 0.24738 0.94049 0.0
C40 C 0.92909 0.23159 0.00103 0.0
C41 C 0.91835 0.31193 0.93952 0.0
C42 C 0.95712 0.36115 -0.00107 0.0
C43 C 0.97817 0.34422 0.06005 0.0
H44 H 0.11171 0.78267 0.09621 0.0
H45 H 0.08805 0.66969 0.09691 0.0
C46 C 0.9644 0.27985 0.06114 0.0
C47 C 0.97776 0.43134 -0.00338 0.0
H48 H 0.13431 0.60843 0.01583 0.0
C49 C 0.91668 0.43512 0.98181 0.0
C50 C 0.05716 0.494 0.00861 0.0
C51 C 0.1245 0.49181 0.02239 0.0
C52 C 0.93315 0.50089 0.9798 0.0
C53 C 0.01255 0.56355 0.99186 0.0
C54 C 0.07363 0.55978 0.00662 0.0
C55 C 0.03311 0.63373 0.98989 0.0
C56 C 0.86581 0.50307 0.96601 0.0
C57 C 0.01227 0.65095 0.92888 0.0
C58 C 0.02542 0.71506 0.92818 0.0
C59 C 0.05989 0.76276 0.98856 0.0
C60 C 0.08452 0.74677 0.04899 0.0
C61 C 0.07116 0.68247 0.04957 0.0
H62 H 0.81003 0.45215 0.97239 0.0
H63 H 0.8796 0.54725 0.00026 0.0
H64 H 0.85621 0.51259 0.91308 0.0
H65 H 0.98414 0.61401 0.88223 0.0
H66 H 0.00673 0.72628 0.88063 0.0
H67 H 0.76059 0.01407 0.13927 0.0
H68 H 0.65804 0.02538 0.12795 0.0
H69 H 0.52711 0.87101 0.94616 0.0
H70 H 0.6286 0.85839 0.95763 0.0
H71 H 0.63955 0.0808 0.01424 0.0
H72 H 0.35167 0.8267 0.029 0.0
H73 H 0.44395 0.84472 0.06296 0.0
H74 H 0.39935 0.81629 0.9737 0.0
C75 C 0.70806 0.97948 0.09889 0.0
C76 C 0.70395 0.93667 0.04829 0.0
C77 C 0.64977 0.98676 0.09205 0.0
C78 C 0.58565 0.95016 0.03549 0.0
C79 C 0.57586 0.89976 0.99034 0.0
H80 H 0.22785 0.98031 0.85137 0.0
H81 H 0.33052 0.96913 0.86303 0.0
C82 C 0.63409 0.89244 -0.00287 0.0
C83 C 0.53736 0.97322 0.01745 0.0
H84 H 0.34866 0.91359 0.97702 0.0
C85 C 0.57594 0.04438 0.00673 0.0
C86 C 0.45442 0.92552 0.00659 0.0
C87 C 0.4099 0.84922 0.01924 0.0
C88 C 0.53378 0.06887 0.9847 0.0
C89 C 0.45084 0.02116 0.9738 0.0
C90 C 0.41227 0.95001 0.98455 0.0
C91 C 0.40253 0.04419 0.95561 0.0
C92 C 0.5783 0.14518 0.97207 0.0
C93 C 0.41211 0.09447 0.00074 0.0
C94 C 0.35381 0.10172 0.99376 0.0
C95 C 0.2841 0.05752 0.94244 0.0
C96 C 0.28025 0.01486 0.89187 0.0
C97 C 0.3386 0.00764 0.89891 0.0
H98 H 0.63663 0.1678 0.96251 0.0
H99 H 0.54433 0.14964 0.92823 0.0
H100 H 0.5886 0.17804 0.01754 0.0
H101 H 0.46073 0.12318 0.04502 0.0
H102 H 0.35912 0.13567 0.03323 0.0
H103 H 0.24783 0.18193 0.97254 0.0
H104 H 0.36618 0.29566 0.95442 0.0
H105 H 0.3475 0.40762 0.10396 0.0
H106 H 0.23035 0.29463 0.12324 0.0
H107 H 0.37179 0.40637 0.9079 0.0
H108 H 0.58024 0.50224 0.158 0.0
H109 H 0.49158 0.41068 0.13307 0.0
H110 H 0.48703 0.4777 0.16298 0.0
C111 C 0.2699 0.23051 0.00285 0.0
C112 C 0.22926 0.22872 0.04954 0.0
C113 C 0.33741 0.29566 0.99206 0.0
C114 C 0.36625 0.36038 0.02808 0.0
C115 C 0.32745 0.35853 0.07635 0.0
H116 H 0.73981 0.8116 0.01711 0.0
H117 H 0.6215 0.69782 0.0352 0.0
C118 C 0.26006 0.29358 0.08716 0.0
C119 C 0.43325 0.42999 0.01197 0.0
H120 H 0.61612 0.58715 0.08182 0.0
C121 C 0.42546 0.44568 0.94582 0.0
C122 C 0.50309 0.48166 0.06152 0.0
C123 C 0.51653 0.46714 0.13271 0.0
C124 C 0.48483 0.51185 0.9282 0.0
C125 C 0.55466 0.56353 0.97775 0.0
C126 C 0.56245 0.54783 0.0439 0.0
C127 C 0.62164 0.63316 0.96165 0.0
C128 C 0.47141 0.52637 0.857 0.0
C129 C 0.66053 0.63505 0.91345 0.0
C130 C 0.72791 0.70003 0.90267 0.0
C131 C 0.75859 0.76487 0.94025 0.0
C132 C 0.71784 0.76303 0.98685 0.0
C133 C 0.65035 0.69786 -0.00238 0.0
H134 H 0.40771 0.49121 0.83167 0.0
H135 H 0.49628 0.58281 0.85666 0.0
H136 H 0.50101 0.51591 0.82677 0.0
H137 H 0.64057 0.58597 0.88589 0.0
H138 H 0.7577 0.69902 0.86665 0.0
H139 H 0.05495 0.9957 0.79033 0.0
H140 H 0.07289 -0.00158 0.67451 0.0
H141 H 0.84946 0.9511 0.59852 0.0
H142 H 0.83111 0.94871 0.71362 0.0
H143 H 0.97639 0.89773 0.55075 0.0
H144 H 0.01318 0.14653 0.54004 0.0
H145 H 0.01821 0.11284 0.61842 0.0
H146 H 0.92437 0.07331 0.56231 0.0
C147 C 0.00891 0.98442 0.74886 0.0
C148 C 0.9422 0.97309 0.76117 0.0
C149 C 0.01942 0.98631 0.68285 0.0
C150 C 0.96338 0.97681 0.62857 0.0
C151 C 0.89415 0.96025 0.64016 0.0
H152 H 0.93174 -0.00282 0.19899 0.0
H153 H 0.91289 0.9939 0.31454 0.0
C154 C 0.8837 0.9586 0.70592 0.0
C155 C 0.9788 0.98766 0.56023 0.0
H156 H 0.00869 0.09419 0.43865 0.0
C157 C 0.98378 0.94076 0.52623 0.0
C158 C 0.98831 0.04397 0.52873 0.0
C159 C 0.98646 0.09751 0.56433 0.0
C160 C -0.00328 0.94793 0.46064 0.0
C161 C 0.00631 0.00429 0.42917 0.0
C162 C 0.00125 0.05114 0.46315 0.0
C163 C 0.0222 0.01538 0.361 0.0
C164 C -0.00142 0.8944 0.42505 0.0
C165 C 0.09161 0.03204 0.34981 0.0
C166 C 0.10258 0.03402 0.28421 0.0
C167 C 0.04443 0.01976 0.22873 0.0
C168 C 0.97753 0.00831 0.24065 0.0
C169 C 0.96649 0.0061 0.3065 0.0
H170 H 0.97161 0.84528 0.44921 0.0
H171 H 0.96708 0.87926 0.37091 0.0
H172 H 0.0607 0.91851 0.4273 0.0
H173 H 0.13605 0.04104 0.39162 0.0
H174 H 0.1553 0.04398 0.27681 0.0
loop_
_geom_bond_atom_site_label_1
_geom_bond_atom_site_label_2
_geom_bond_distance
_geom_bond_site_symmetry_2
_ccdc_geom_bond_type
C0 O12 1.241 1_556 S
C0 O13 1.280 . S
C1 O14 1.277 . S
C1 O15 1.245 1_544 S
C2 O26 1.247 1_545 S
C2 O28 1.286 1_455 S
Mg3 O4 1.926 . S
Mg3 O13 1.984 . S
Mg3 O15 1.988 1_545 S
Mg3 O16 2.061 . S
O4 Mg3 1.926 . S
O4 Mg5 1.986 1_556 S
O4 Mg6 1.917 1_656 S
Mg5 O4 1.986 1_554 S
Mg5 O12 2.042 . S
Mg5 O14 2.041 . S
Mg5 O20 2.038 1_655 S
Mg5 O28 2.240 . S
Mg6 O4 1.917 1_454 S
Mg6 O7 1.917 1_545 S
Mg6 O17 2.103 1_544 S
Mg6 O19 2.079 . S
Mg6 O28 2.105 1_455 S
Mg6 O29 2.079 1_444 S
O7 Mg6 1.917 1_565 S
O7 Mg8 1.926 . S
O7 Mg9 1.986 1_554 S
Mg8 O7 1.926 . S
Mg8 O22 1.984 . S
Mg8 O25 1.988 1_565 S
Mg8 O26 2.061 . S
Mg9 O7 1.986 1_556 S
Mg9 O17 2.243 . S
Mg9 O21 2.042 . S
Mg9 O23 2.041 . S
Mg9 O30 2.038 1_455 S
C10 O16 1.247 1_565 S
C10 O17 1.284 1_655 S
C11 O29 1.245 . S
C11 O30 1.274 . S
O12 C0 1.241 1_554 S
O12 Mg5 2.042 . S
O13 C0 1.280 . S
O13 Mg3 1.984 . S
O14 C1 1.277 . S
O14 Mg5 2.041 . S
O15 C1 1.245 1_566 S
O15 Mg3 1.988 1_565 S
O16 Mg3 2.061 . S
O16 C10 1.247 1_545 S
O17 Mg6 2.103 1_566 S
O17 Mg9 2.243 . S
O17 C10 1.284 1_455 S
C18 O19 1.245 . S
C18 O20 1.274 . S
O19 Mg6 2.079 . S
O19 C18 1.245 . S
O20 Mg5 2.038 1_455 S
O20 C18 1.274 . S
O21 Mg9 2.042 . S
O21 C24 1.241 1_556 S
O22 Mg8 1.984 . S
O22 C24 1.280 . S
O23 Mg9 2.041 . S
O23 C27 1.277 . S
C24 O21 1.241 1_554 S
C24 O22 1.280 . S
O25 Mg8 1.988 1_545 S
O25 C27 1.245 1_544 S
O26 C2 1.247 1_565 S
O26 Mg8 2.061 . S
C27 O23 1.277 . S
C27 O25 1.245 1_566 S
O28 C2 1.286 1_655 S
O28 Mg5 2.240 . S
O28 Mg6 2.105 1_655 S
O29 Mg6 2.079 1_666 S
O29 C11 1.245 . S
O30 Mg9 2.038 1_655 S
O30 C11 1.274 . S
H31 C39 0.929 . S
H32 C41 0.930 . S
H33 C43 0.930 . S
H34 C46 0.929 1_554 S
H35 C49 0.930 . S
H36 C51 0.960 . S
H37 C51 0.960 . S
H38 C51 0.960 1_655 S
C39 H31 0.929 . S
C39 C40 1.380 . S
C39 C41 1.384 . S
C40 C39 1.380 . S
C40 C46 1.382 1_455 S
C41 H32 0.930 . S
C41 C39 1.384 . S
C41 C42 1.372 . S
C42 C41 1.372 . S
C42 C43 1.400 1_456 S
C42 C47 1.490 . S
C43 H33 0.930 . S
C43 C42 1.400 1_654 S
C43 C46 1.386 1_554 S
H44 C60 0.930 . S
H45 C61 0.931 . S
C46 H34 0.929 1_556 S
C46 C40 1.382 1_655 S
C46 C43 1.386 1_556 S
C47 C42 1.490 . S
C47 C49 1.395 1_455 S
C47 C50 1.403 1_556 S
H48 C54 0.930 . S
C49 H35 0.930 . S
C49 C47 1.395 1_655 S
C49 C52 1.403 . S
C50 C47 1.403 1_554 S
C50 C51 1.524 . S
C50 C54 1.400 . S
C51 H36 0.960 . S
C51 H37 0.960 . S
C51 H38 0.960 1_455 S
C51 C50 1.524 . S
C52 C49 1.403 . S
C52 C53 1.388 . S
C52 C56 1.495 . S
C53 C52 1.388 . S
C53 C54 1.380 1_656 S
C53 C55 1.487 1_556 S
C54 H48 0.930 . S
C54 C50 1.400 . S
C54 C53 1.380 1_454 S
C55 C53 1.487 1_554 S
C55 C57 1.381 1_654 S
C55 C61 1.383 . S
C56 C52 1.495 . S
C56 H62 0.959 . S
C56 H63 0.961 . S
C56 H64 0.960 1_655 S
C57 C55 1.381 1_456 S
C57 C58 1.394 1_556 S
C57 H65 0.930 . S
C58 C57 1.394 1_554 S
C58 C59 1.368 1_455 S
C58 H66 0.929 1_554 S
C59 C58 1.368 1_655 S
C59 C60 1.381 . S
C60 H44 0.930 . S
C60 C59 1.381 . S
C60 C61 1.379 . S
C61 H45 0.931 . S
C61 C55 1.383 . S
C61 C60 1.379 . S
H62 C56 0.959 . S
H63 C56 0.961 . S
H64 C56 0.960 1_455 S
H65 C57 0.930 . S
H66 C58 0.929 1_556 S
H67 C75 0.937 . S
H68 C77 0.930 1_545 S
H69 C79 0.930 . S
H70 C82 0.929 . S
H71 C85 0.930 . S
H72 C87 0.960 . S
H73 C87 0.960 . S
H74 C87 0.960 . S
C75 H67 0.937 . S
C75 C76 1.383 . S
C75 C77 1.371 . S
C76 C75 1.383 . S
C76 C82 1.390 1_554 S
C77 H68 0.930 1_565 S
C77 C75 1.371 . S
C77 C78 1.372 . S
C78 C77 1.372 . S
C78 C79 1.400 1_554 S
C78 C83 1.490 1_565 S
C79 H69 0.930 . S
C79 C78 1.400 1_556 S
C79 C82 1.386 . S
H80 C96 0.930 . S
H81 C97 0.931 . S
C82 H70 0.929 . S
C82 C76 1.390 1_556 S
C82 C79 1.386 . S
C83 C78 1.490 1_545 S
C83 C85 1.395 . S
C83 C86 1.403 1_544 S
H84 C90 0.930 . S
C85 H71 0.930 . S
C85 C83 1.395 . S
C85 C88 1.403 . S
C86 C83 1.403 1_566 S
C86 C87 1.524 . S
C86 C90 1.400 . S
C87 H72 0.960 . S
C87 H73 0.960 . S
C87 H74 0.960 . S
C87 C86 1.524 . S
C88 C85 1.403 . S
C88 C89 1.393 . S
C88 C92 1.495 . S
C89 C88 1.393 . S
C89 C90 1.385 1_544 S
C89 C91 1.478 1_554 S
C90 H84 0.930 . S
C90 C86 1.400 . S
C90 C89 1.385 1_566 S
C91 C89 1.478 1_556 S
C91 C93 1.381 1_556 S
C91 C97 1.383 . S
C92 C88 1.495 . S
C92 H98 0.959 . S
C92 H99 0.961 . S
C92 H100 0.960 . S
C93 C91 1.381 1_554 S
C93 C94 1.394 . S
C93 H101 0.930 . S
C94 C93 1.394 . S
C94 C95 1.383 1_554 S
C94 H102 0.929 1_545 S
C95 C94 1.383 1_556 S
C95 C96 1.377 . S
C96 H80 0.930 . S
C96 C95 1.377 . S
C96 C97 1.379 . S
C97 H81 0.931 . S
C97 C91 1.383 . S
C97 C96 1.379 . S
H98 C92 0.959 . S
H99 C92 0.961 . S
H100 C92 0.960 . S
H101 C93 0.930 . S
H102 C94 0.929 1_565 S
H103 C111 0.929 . S
H104 C113 0.930 1_556 S
H105 C115 0.930 . S
H106 C118 0.929 . S
H107 C121 0.930 . S
H108 C123 0.960 . S
H109 C123 0.960 . S
H110 C123 0.960 . S
C111 H103 0.929 . S
C111 C112 1.377 . S
C111 C113 1.384 . S
C112 C111 1.377 . S
C112 C118 1.390 . S
C113 H104 0.930 1_554 S
C113 C111 1.384 . S
C113 C114 1.372 . S
C114 C113 1.372 . S
C114 C115 1.400 . S
C114 C119 1.490 . S
C115 H105 0.930 . S
C115 C114 1.400 . S
C115 C118 1.386 . S
H116 C132 0.930 . S
H117 C133 0.931 . S
C118 H106 0.929 . S
C118 C112 1.390 . S
C118 C115 1.386 . S
C119 C114 1.490 . S
C119 C121 1.395 1_554 S
C119 C122 1.403 . S
H120 C126 0.930 . S
C121 H107 0.930 . S
C121 C119 1.395 1_556 S
C121 C124 1.403 . S
C122 C119 1.403 . S
C122 C123 1.524 . S
C122 C126 1.400 . S
C123 H108 0.960 . S
C123 H109 0.960 . S
C123 H110 0.960 . S
C123 C122 1.524 . S
C124 C121 1.403 . S
C124 C125 1.392 . S
C124 C128 1.495 . S
C125 C124 1.392 . S
C125 C126 1.385 1_556 S
C125 C127 1.478 . S
C126 H120 0.930 . S
C126 C122 1.400 . S
C126 C125 1.385 1_554 S
C127 C125 1.478 . S
C127 C129 1.381 . S
C127 C133 1.383 . S
C128 C124 1.495 . S
C128 H134 0.959 . S
C128 H135 0.961 . S
C128 H136 0.960 . S
C129 C127 1.381 . S
C129 C130 1.394 . S
C129 H137 0.930 . S
C130 C129 1.394 . S
C130 C131 1.383 . S
C130 H138 0.929 . S
C131 C130 1.383 . S
C131 C132 1.377 . S
C132 H116 0.930 . S
C132 C131 1.377 . S
C132 C133 1.379 . S
C133 H117 0.931 . S
C133 C127 1.383 . S
C133 C132 1.379 . S
H134 C128 0.959 . S
H135 C128 0.961 . S
H136 C128 0.960 . S
H137 C129 0.930 . S
H138 C130 0.929 . S
H139 C147 0.929 . S
H140 C149 0.930 . S
H141 C151 0.930 . S
H142 C154 0.929 . S
H143 C157 0.930 . S
H144 C159 0.956 1_655 S
H145 C159 0.960 . S
H146 C159 0.960 1_655 S
C147 H139 0.929 . S
C147 C148 1.377 1_445 S
C147 C149 1.384 . S
C148 C147 1.377 1_665 S
C148 C154 1.390 . S
C149 H140 0.930 . S
C149 C147 1.384 . S
C149 C150 1.372 1_545 S
C150 C149 1.372 1_565 S
C150 C151 1.400 1_455 S
C150 C155 1.490 . S
C151 H141 0.930 . S
C151 C150 1.400 1_655 S
C151 C154 1.386 . S
H152 C168 0.930 . S
H153 C169 0.931 . S
C154 H142 0.929 . S
C154 C148 1.390 . S
C154 C151 1.386 . S
C155 C150 1.490 . S
C155 C157 1.395 . S
C155 C158 1.403 1_565 S
H156 C162 0.925 1_655 S
C157 H143 0.930 . S
C157 C155 1.395 . S
C157 C160 1.403 . S
C158 C155 1.403 1_545 S
C158 C159 1.524 . S
C158 C162 1.398 . S
C159 H144 0.956 1_455 S
C159 H145 0.960 . S
C159 H146 0.960 1_455 S
C159 C158 1.524 . S
C160 C157 1.403 . S
C160 C161 1.392 . S
C160 C164 1.495 . S
C161 C160 1.392 . S
C161 C162 1.392 1_565 S
C161 C163 1.478 . S
C162 H156 0.925 1_455 S
C162 C158 1.398 . S
C162 C161 1.392 1_545 S
C163 C161 1.478 . S
C163 C165 1.381 1_565 S
C163 C169 1.383 1_455 S
C164 C160 1.495 . S
C164 H170 0.959 . S
C164 H171 0.961 1_455 S
C164 H172 0.960 . S
C165 C163 1.381 1_545 S
C165 C166 1.394 . S
C165 H173 0.930 . S
C166 C165 1.394 . S
C166 C167 1.383 1_545 S
C166 H174 0.929 . S
C167 C166 1.383 1_565 S
C167 C168 1.377 1_455 S
C168 H152 0.930 . S
C168 C167 1.377 1_655 S
C168 C169 1.379 . S
C169 H153 0.931 . S
C169 C163 1.383 1_655 S
C169 C168 1.379 . S
H170 C164 0.959 . S
H171 C164 0.961 1_655 S
H172 C164 0.960 . S
H173 C165 0.930 . S
H174 C166 0.929 . S
C40 C0 1.297 1_455 S
C59 C24 1.272 1_655 S
C76 C1 1.226 1_565 S
C95 C27 1.225 1_545 S
C112 C18 1.808 . S
C131 C11 1.799 . S
C148 C10 1.463 . S
C167 C2 1.449 1_565 S
