# Generated by pormake.
# Topology pcu, (6)-cn, num edge types: 1
# Building blocks:
#     Node 0, Type 0, BuildingBlock: KUMJIN_clean_sbu_0, # of connection points: 6
#     Edge 1, Type (0, 0), None
#     Edge 2, Type (0, 0), None
#     Edge 3, Type (0, 0), None
# Relax obj value: 0.000
# Max RMSD: 0.000
# Mean RMSD: 0.000
data_MOF--net-pcu--node1-KUMJIN_clean_sbu_0--edge1-none
_symmetry_space_group_name_H-M    P1
_symmetry_Int_Tables_number       1
_symmetry_cell_setting            triclinic
loop_
_symmetry_equiv_pos_as_xyz
'x, y, z'
_cell_length_a     6.2252117
_cell_length_b     20.197892
_cell_length_c     7.7401091
_cell_angle_alpha  108.99853
_cell_angle_beta   80.083212
_cell_angle_gamma 123.95649
loop_
_atom_site_label
_atom_site_type_symbol
_atom_site_fract_x
_atom_site_fract_y
_atom_site_fract_z
_atom_type_partial_charge
Eu0 Eu 0.08364 0.04312 -0.02077 0.0
C1 C 0.14491 0.66658 0.70695 0.0
C2 C 0.83227 0.65542 0.05189 0.0
C3 C 0.54569 0.58015 0.6749 0.0
C4 C 0.13284 0.69034 -0.06288 0.0
C5 C 0.86633 0.61209 0.56772 0.0
C6 C 0.53156 0.59917 -0.07603 0.0
C7 C 0.18527 0.65927 0.34172 0.0
N8 N 0.38513 0.71876 0.6383 0.0
C9 C 0.40195 0.71523 0.45556 0.0
C10 C -0.07544 0.61028 0.39138 0.0
Eu11 Eu 0.75406 0.82377 0.84625 0.0
N12 N 0.34272 0.76629 0.01638 0.0
C13 C 0.30699 0.81269 0.17842 0.0
C14 C 0.85721 0.70368 0.22783 0.0
C15 C 0.08653 0.7809 0.28652 0.0
H16 H 0.49213 0.74099 0.58569 0.0
H17 H 0.09733 0.81935 0.42152 0.0
H18 H 0.36022 0.58603 -0.00066 0.0
H19 H 0.23669 0.66468 0.20733 0.0
H20 H 0.45361 0.87731 0.23167 0.0
H21 H 0.74503 0.0438 0.40634 0.0
H22 H 0.70105 0.68046 0.31702 0.0
H23 H 0.33111 0.1318 0.2573 0.0
H24 H 0.38306 -0.01061 0.58909 0.0
H25 H 0.61648 0.21616 0.64117 0.0
H26 H 0.37599 0.55353 0.59533 0.0
H27 H 0.02562 0.19981 0.70959 0.0
H28 H 0.49865 0.29849 0.85529 0.0
H29 H 0.765 0.5761 0.29646 0.0
H30 H 0.46008 0.32448 0.24319 0.0
N31 N 0.49371 0.09809 0.80973 0.0
C32 C 0.53128 0.05337 0.64548 0.0
C33 C -0.00832 0.15987 0.59338 0.0
C34 C 0.01045 0.21537 0.77751 0.0
C35 C 0.75645 0.08382 0.53981 0.0
C36 C 0.70012 0.17257 0.89532 0.0
H37 H 0.07221 0.28446 0.52276 0.0
N38 N 0.44154 0.14615 0.199 0.0
C39 C 0.64724 0.20793 0.49708 0.0
C40 C 0.68611 0.19042 0.12444 0.0
C41 C 0.42061 0.15905 0.38812 0.0
C42 C 0.90634 0.24772 0.43662 0.0
C43 C -0.03776 0.247 0.26332 0.0
O44 O -0.07273 0.11796 0.11502 0.0
O45 O 0.70929 0.92716 0.85302 0.0
O46 O 0.81934 0.86423 0.56704 0.0
O47 O 0.02839 0.00663 0.65332 0.0
O48 O 0.67613 0.01154 0.07453 0.0
O49 O 0.14011 0.13667 0.87534 0.0
O50 O 0.85157 0.73478 0.68699 0.0
O51 O 0.12959 -0.06002 -0.03295 0.0
O52 O 0.03397 0.00327 0.25683 0.0
O53 O 0.80414 0.86002 0.17271 0.0
O54 O 0.16055 0.85584 0.74488 0.0
O55 O 0.80947 0.75542 -0.0314 0.0
C56 C 0.54687 -0.0549 -0.05548 0.0
C57 C 0.00913 0.31128 0.04897 0.0
C58 C -0.04646 0.41838 -0.03088 0.0
C59 C 0.00205 0.35189 -0.07983 0.0
C60 C 0.89726 0.443 0.14659 0.0
C61 C 0.08079 0.38211 0.22399 0.0
C62 C 0.00452 0.43787 0.27331 0.0
C63 C -0.07843 -0.06547 0.51845 0.0
C64 C 0.00656 0.16287 -0.00196 0.0
C65 C 0.28952 0.29474 0.16461 0.0
C66 C 0.31866 0.28323 -0.07864 0.0
C67 C 0.29145 0.92226 0.87419 0.0
C68 C 0.79618 0.55197 0.79193 0.0
C69 C 0.90952 0.52865 0.89717 0.0
C70 C -0.07919 0.45522 0.84129 0.0
C71 C 0.83457 0.40563 0.67168 0.0
C72 C 0.61017 0.46739 0.66712 0.0
C73 C 0.63838 0.4006 0.60616 0.0
C74 C -0.07862 -0.06751 0.30619 0.0
C75 C 0.8608 0.7097 0.82326 0.0
H76 H 0.06029 0.3402 0.78477 0.0
H77 H 0.78621 0.47051 0.18608 0.0
H78 H 0.18426 0.39386 0.34025 0.0
H79 H 0.03441 0.47907 0.40899 0.0
H80 H -0.02597 0.56343 0.02997 0.0
H81 H 0.86644 0.3583 0.61599 0.0
H82 H 0.43512 0.44745 0.60249 0.0
H83 H 0.50218 0.34275 0.51495 0.0
loop_
_geom_bond_atom_site_label_1
_geom_bond_atom_site_label_2
_geom_bond_distance
_geom_bond_site_symmetry_2
_ccdc_geom_bond_type
Eu0 N31 2.657 1_554 S
Eu0 N38 2.609 . S
Eu0 O44 2.558 . S
Eu0 O45 2.612 1_444 S
Eu0 O47 2.339 1_554 S
Eu0 O48 2.563 1_455 S
Eu0 O49 2.419 . S
Eu0 O51 2.380 . S
Eu0 O52 2.432 1_455 S
Eu0 C64 2.848 . S
C1 C4 1.429 . S
C1 C5 1.411 . S
C1 N8 1.377 . S
C2 C4 1.420 1_655 S
C2 C6 1.423 . S
C2 C14 1.392 1_556 S
C3 C5 1.420 1_655 S
C3 C6 1.351 . S
C3 H26 0.931 . S
C4 C1 1.429 . S
C4 C2 1.420 1_455 S
C4 N12 1.362 1_556 S
C5 C1 1.411 . S
C5 C3 1.420 1_455 S
C5 C10 1.395 . S
C6 C2 1.423 . S
C6 C3 1.351 . S
C6 H18 0.930 . S
C7 C9 1.400 . S
C7 C10 1.386 . S
C7 H19 0.930 . S
N8 C1 1.377 . S
N8 C9 1.321 . S
N8 Eu11 2.609 . S
C9 C7 1.400 . S
C9 N8 1.321 . S
C9 H16 0.930 . S
C10 C5 1.395 . S
C10 C7 1.386 . S
C10 H29 0.930 . S
Eu11 N8 2.609 . S
Eu11 N12 2.657 1_556 S
Eu11 O45 2.380 . S
Eu11 O46 2.432 1_655 S
Eu11 O50 2.558 . S
Eu11 O51 2.612 1_666 S
Eu11 O53 2.339 1_556 S
Eu11 O54 2.563 1_655 S
Eu11 O55 2.419 . S
Eu11 C75 2.848 . S
N12 C4 1.362 1_554 S
N12 Eu11 2.657 1_554 S
N12 C13 1.334 . S
C13 N12 1.334 . S
C13 C15 1.413 . S
C13 H20 0.929 . S
C14 C2 1.392 1_554 S
C14 C15 1.367 1_655 S
C14 H22 0.930 . S
C15 C13 1.413 . S
C15 C14 1.367 1_455 S
C15 H17 0.930 . S
H16 C9 0.930 . S
H17 C15 0.930 . S
H18 C6 0.930 . S
H19 C7 0.930 . S
H20 C13 0.929 . S
H21 C35 0.930 . S
H22 C14 0.930 . S
H23 C41 0.930 . S
H24 C32 0.929 . S
H25 C39 0.930 . S
H26 C3 0.931 . S
H27 C33 0.930 . S
H28 C66 0.930 . S
H29 C10 0.930 . S
H30 C65 0.931 . S
N31 Eu0 2.657 1_556 S
N31 C32 1.334 . S
N31 C36 1.362 1_556 S
C32 H24 0.929 . S
C32 N31 1.334 . S
C32 C35 1.413 . S
C33 H27 0.930 . S
C33 C34 1.392 1_556 S
C33 C35 1.367 1_455 S
C34 C33 1.392 1_554 S
C34 C36 1.420 1_455 S
C34 C66 1.423 . S
C35 H21 0.930 . S
C35 C32 1.413 . S
C35 C33 1.367 1_655 S
C36 N31 1.362 1_554 S
C36 C34 1.420 1_655 S
C36 C40 1.429 . S
H37 C42 0.930 . S
N38 Eu0 2.609 . S
N38 C40 1.377 . S
N38 C41 1.321 . S
C39 H25 0.930 . S
C39 C41 1.400 . S
C39 C42 1.386 . S
C40 C36 1.429 . S
C40 N38 1.377 . S
C40 C43 1.411 . S
C41 H23 0.930 . S
C41 N38 1.321 . S
C41 C39 1.400 . S
C42 H37 0.930 . S
C42 C39 1.386 . S
C42 C43 1.395 . S
C43 C40 1.411 . S
C43 C42 1.395 . S
C43 C65 1.420 1_655 S
O44 Eu0 2.558 . S
O44 C64 1.257 . S
O45 Eu0 2.612 1_666 S
O45 Eu11 2.380 . S
O45 C56 1.276 1_566 S
O46 Eu11 2.432 1_455 S
O46 C63 1.264 . S
O47 Eu0 2.339 1_556 S
O47 C63 1.254 1_545 S
O48 Eu0 2.563 1_655 S
O48 C56 1.235 . S
O49 Eu0 2.419 . S
O49 C64 1.249 . S
O50 Eu11 2.558 . S
O50 C75 1.257 . S
O51 Eu0 2.380 . S
O51 Eu11 2.612 1_444 S
O51 C67 1.276 1_544 S
O52 Eu0 2.432 1_655 S
O52 C74 1.264 . S
O53 Eu11 2.339 1_554 S
O53 C74 1.254 1_565 S
O54 Eu11 2.563 1_455 S
O54 C67 1.235 . S
O55 Eu11 2.419 . S
O55 C75 1.249 . S
C56 O45 1.276 1_544 S
C56 O48 1.235 . S
C57 C59 1.393 . S
C57 C61 1.395 . S
C57 C64 1.492 . S
C58 C59 1.392 . S
C58 C60 1.386 . S
C59 C57 1.393 . S
C59 C58 1.392 . S
C59 H76 0.930 1_554 S
C60 C58 1.386 . S
C60 C62 1.395 . S
C60 H77 0.930 . S
C61 C57 1.395 . S
C61 C62 1.379 . S
C61 H78 0.930 . S
C62 C60 1.395 . S
C62 C61 1.379 . S
C62 H79 0.930 . S
C63 O46 1.264 . S
C63 O47 1.254 1_565 S
C64 Eu0 2.848 . S
C64 O44 1.257 . S
C64 O49 1.249 . S
C64 C57 1.492 . S
C65 H30 0.931 . S
C65 C43 1.420 1_455 S
C65 C66 1.351 . S
C66 H28 0.930 . S
C66 C34 1.423 . S
C66 C65 1.351 . S
C67 O51 1.276 1_566 S
C67 O54 1.235 . S
C68 C69 1.393 . S
C68 C72 1.395 . S
C68 C75 1.492 . S
C69 C68 1.393 . S
C69 C70 1.392 . S
C69 H80 0.930 1_556 S
C70 C69 1.392 . S
C70 C71 1.386 . S
C71 C70 1.386 . S
C71 C73 1.395 . S
C71 H81 0.930 . S
C72 C68 1.395 . S
C72 C73 1.379 . S
C72 H82 0.930 . S
C73 C71 1.395 . S
C73 C72 1.379 . S
C73 H83 0.930 . S
C74 O52 1.264 . S
C74 O53 1.254 1_545 S
C75 Eu11 2.848 . S
C75 O50 1.257 . S
C75 O55 1.249 . S
C75 C68 1.492 . S
H76 C59 0.930 1_556 S
H77 C60 0.930 . S
H78 C61 0.930 . S
H79 C62 0.930 . S
H80 C69 0.930 1_554 S
H81 C71 0.930 . S
H82 C72 0.930 . S
H83 C73 0.930 . S
C74 C63 1.500 1_645 S
C67 C56 1.500 1_566 S
C70 C58 1.500 1_656 S
