# Generated by pormake.
# Topology snw, (6)-cn, num edge types: 1
# Building blocks:
#     Node 0, Type 0, BuildingBlock: IZENUY_clean_sbu_0, # of connection points: 6
#     Node 1, Type 0, BuildingBlock: IZENUY_clean_sbu_0, # of connection points: 6
#     Node 2, Type 0, BuildingBlock: IZENUY_clean_sbu_0, # of connection points: 6
#     Node 3, Type 0, BuildingBlock: IZENUY_clean_sbu_0, # of connection points: 6
#     Node 4, Type 0, BuildingBlock: IZENUY_clean_sbu_0, # of connection points: 6
#     Node 5, Type 0, BuildingBlock: IZENUY_clean_sbu_0, # of connection points: 6
#     Node 6, Type 0, BuildingBlock: IZENUY_clean_sbu_0, # of connection points: 6
#     Node 7, Type 0, BuildingBlock: IZENUY_clean_sbu_0, # of connection points: 6
#     Edge 8, Type (0, 0), None
#     Edge 9, Type (0, 0), None
#     Edge 10, Type (0, 0), None
#     Edge 11, Type (0, 0), None
#     Edge 12, Type (0, 0), None
#     Edge 13, Type (0, 0), None
#     Edge 14, Type (0, 0), None
#     Edge 15, Type (0, 0), None
#     Edge 16, Type (0, 0), None
#     Edge 17, Type (0, 0), None
#     Edge 18, Type (0, 0), None
#     Edge 19, Type (0, 0), None
#     Edge 20, Type (0, 0), None
#     Edge 21, Type (0, 0), None
#     Edge 22, Type (0, 0), None
#     Edge 23, Type (0, 0), None
#     Edge 24, Type (0, 0), None
#     Edge 25, Type (0, 0), None
#     Edge 26, Type (0, 0), None
#     Edge 27, Type (0, 0), None
#     Edge 28, Type (0, 0), None
#     Edge 29, Type (0, 0), None
#     Edge 30, Type (0, 0), None
#     Edge 31, Type (0, 0), None
# Relax obj value: 0.016
# Max RMSD: 0.047
# Mean RMSD: 0.047
data_MOF--net-snw--node1-IZENUY_clean_sbu_0--edge1-none
_symmetry_space_group_name_H-M    P1
_symmetry_Int_Tables_number       1
_symmetry_cell_setting            triclinic
loop_
_symmetry_equiv_pos_as_xyz
'x, y, z'
_cell_length_a     9.557643
_cell_length_b     9.5577659
_cell_length_c     34.380421
_cell_angle_alpha  89.999426
_cell_angle_beta   89.999447
_cell_angle_gamma 89.999989
loop_
_atom_site_label
_atom_site_type_symbol
_atom_site_fract_x
_atom_site_fract_y
_atom_site_fract_z
_atom_type_partial_charge
Fe0 Fe 0.06912 0.27768 0.17998 0.0
Fe1 Fe 0.23058 0.27127 0.10244 0.0
O2 O 0.06911 0.27768 0.12805 0.0
Fe3 Fe 0.90763 0.28409 0.10245 0.0
O4 O 0.8578 0.44463 0.12674 0.0
O5 O 0.90892 0.37586 0.18576 0.0
O6 O 0.16624 0.44303 0.18128 0.0
C7 C 0.28011 0.46543 0.16331 0.0
C8 C 0.85814 0.08991 0.16331 0.0
O9 O 0.32415 0.38061 0.13778 0.0
C10 C 0.05497 0.08889 0.05921 0.0
O11 O 0.22933 0.1795 0.18575 0.0
O12 O 0.28041 0.11073 0.12673 0.0
O13 O 0.81408 0.17474 0.13779 0.0
O14 O 0.972 0.11233 0.18128 0.0
C15 C 0.08323 0.46647 0.05921 0.0
O16 O 0.16569 0.16029 0.06281 0.0
O17 O 0.94342 0.12344 0.07615 0.0
C18 C 0.28873 0.09615 0.16304 0.0
O19 O 0.19478 0.43192 0.07615 0.0
O20 O 0.9725 0.39508 0.06282 0.0
C21 C 0.8495 0.4592 0.16305 0.0
Fe22 Fe 0.07552 0.93916 0.35244 0.0
Fe23 Fe 0.0691 0.77768 0.42998 0.0
O24 O 0.0691 0.77769 0.37805 0.0
Fe25 Fe 0.06269 0.61622 0.35244 0.0
O26 O 0.22335 0.65202 0.32615 0.0
O27 O 0.1865 0.87429 0.31281 0.0
O28 O 0.23605 0.98899 0.37673 0.0
C29 C 0.25062 0.99731 0.41304 0.0
C30 C 0.88032 0.79183 0.30921 0.0
O31 O 0.16728 0.93789 0.43576 0.0
C32 C 0.88757 0.55808 0.41304 0.0
O33 O 0.96617 0.03272 0.38779 0.0
O34 O 0.90375 0.87481 0.43128 0.0
O35 O 0.95172 0.6811 0.31281 0.0
O36 O 0.91486 0.90337 0.32615 0.0
C37 C 0.25686 0.56669 0.41331 0.0
O38 O 0.97092 0.61748 0.43576 0.0
O39 O 0.90215 0.56638 0.37673 0.0
C40 C 0.88133 0.98866 0.41331 0.0
O41 O 0.23445 0.68056 0.43128 0.0
O42 O 0.17204 0.52265 0.38778 0.0
C43 C 0.2579 0.76356 0.30921 0.0
Fe44 Fe 0.73058 0.77127 0.60244 0.0
Fe45 Fe 0.40763 0.78409 0.60245 0.0
O46 O 0.56911 0.77768 0.62805 0.0
Fe47 Fe 0.56912 0.77768 0.67998 0.0
O48 O 0.66624 0.94303 0.68128 0.0
O49 O 0.82415 0.88061 0.63778 0.0
O50 O 0.69478 0.93192 0.57615 0.0
C51 C 0.58323 0.96647 0.55921 0.0
C52 C 0.78873 0.59615 0.66304 0.0
O53 O 0.4725 0.89508 0.56282 0.0
C54 C 0.35814 0.58991 0.66331 0.0
O55 O 0.66569 0.66029 0.56281 0.0
O56 O 0.44342 0.62344 0.57615 0.0
O57 O 0.72933 0.6795 0.68575 0.0
O58 O 0.78042 0.61073 0.62673 0.0
C59 C 0.34949 0.9592 0.66305 0.0
O60 O 0.31408 0.67474 0.63779 0.0
O61 O 0.472 0.61233 0.68128 0.0
C62 C 0.55497 0.58889 0.55921 0.0
O63 O 0.3578 0.94462 0.62674 0.0
O64 O 0.40892 0.87586 0.68576 0.0
C65 C 0.78011 0.96543 0.66331 0.0
Fe66 Fe 0.57551 0.43916 0.85244 0.0
Fe67 Fe 0.5691 0.27768 0.92998 0.0
O68 O 0.5691 0.27769 0.87805 0.0
Fe69 Fe 0.56269 0.11622 0.85244 0.0
O70 O 0.72335 0.15202 0.82615 0.0
O71 O 0.6865 0.37429 0.81281 0.0
O72 O 0.73605 0.48899 0.87673 0.0
C73 C 0.75062 0.49731 0.91304 0.0
C74 C 0.38032 0.29183 0.80921 0.0
O75 O 0.66728 0.43789 0.93576 0.0
C76 C 0.38757 0.05808 0.91304 0.0
O77 O 0.46617 0.53272 0.88779 0.0
O78 O 0.40375 0.37481 0.93128 0.0
O79 O 0.45172 0.1811 0.81281 0.0
O80 O 0.41486 0.40337 0.82615 0.0
C81 C 0.75686 0.0667 0.91331 0.0
O82 O 0.47092 0.11748 0.93576 0.0
O83 O 0.40216 0.06639 0.87673 0.0
C84 C 0.38133 0.48866 0.91331 0.0
O85 O 0.73446 0.18056 0.93128 0.0
O86 O 0.67204 1.02266 0.88778 0.0
C87 C 0.7579 0.26356 0.80921 0.0
Fe88 Fe 0.23058 0.7841 0.98987 0.0
Fe89 Fe 0.90762 0.77127 0.98987 0.0
O90 O 0.0691 0.77769 0.96427 0.0
Fe91 Fe 0.06911 0.77769 0.91233 0.0
O92 O 0.16624 0.61234 0.91103 0.0
O93 O 0.32414 0.67477 0.95454 0.0
O94 O 0.19478 0.62345 1.01617 0.0
C95 C 0.08323 0.58889 1.03311 0.0
C96 C 0.28869 0.95923 0.92927 0.0
O97 O 0.9725 0.66029 1.0295 0.0
C98 C 0.85815 0.96546 0.92902 0.0
O99 O 0.16569 0.89508 1.0295 0.0
O100 O 0.94342 0.93192 1.01617 0.0
O101 O 0.22931 0.87587 0.90656 0.0
O102 O 0.28041 0.94464 0.96559 0.0
C103 C 0.84951 0.59615 0.92927 0.0
O104 O 0.81407 0.88061 0.95453 0.0
O105 O 0.97198 0.94304 0.91103 0.0
C106 C 0.05497 0.96648 1.03311 0.0
O107 O 0.85779 0.61073 0.96558 0.0
O108 O 0.90891 0.67951 0.90656 0.0
C109 C 0.28007 0.58993 0.92901 0.0
Fe110 Fe 0.57553 0.61621 0.23988 0.0
Fe111 Fe 0.56269 0.93916 0.23987 0.0
O112 O 0.56911 0.77768 0.21427 0.0
Fe113 Fe 0.56911 0.77767 0.16233 0.0
O114 O 0.40376 0.68054 0.16103 0.0
O115 O 0.46619 0.52264 0.20454 0.0
O116 O 0.41487 0.65201 0.26617 0.0
C117 C 0.38031 0.76356 0.28311 0.0
C118 C 0.75066 0.5581 0.17928 0.0
O119 O 0.45171 0.87429 0.2795 0.0
C120 C 0.75689 0.98863 0.17901 0.0
O121 O 0.6865 0.6811 0.2795 0.0
O122 O 0.72335 0.90337 0.26617 0.0
O123 O 0.6673 0.61747 0.15656 0.0
O124 O 0.73607 0.56638 0.21559 0.0
C125 C 0.38757 0.99726 0.17927 0.0
O126 O 0.67203 0.03271 0.20453 0.0
O127 O 0.73446 0.8748 0.16103 0.0
C128 C 0.7579 0.79182 0.28311 0.0
O129 O 0.40216 0.98899 0.21558 0.0
O130 O 0.47093 0.93787 0.15655 0.0
C131 C 0.38135 0.56671 0.17902 0.0
Fe132 Fe 0.73058 0.2841 0.48987 0.0
Fe133 Fe 0.40762 0.27127 0.48987 0.0
O134 O 0.5691 0.27769 0.46427 0.0
Fe135 Fe 0.56911 0.27769 0.41233 0.0
O136 O 0.66624 0.11234 0.41103 0.0
O137 O 0.82414 0.17477 0.45454 0.0
O138 O 0.69478 0.12345 0.51617 0.0
C139 C 0.58323 0.08889 0.53311 0.0
C140 C 0.78869 0.45923 0.42927 0.0
O141 O 0.4725 0.16029 0.5295 0.0
C142 C 0.35815 0.46546 0.42902 0.0
O143 O 0.66569 0.39508 0.5295 0.0
O144 O 0.44342 0.43192 0.51617 0.0
O145 O 0.72931 0.37587 0.40656 0.0
O146 O 0.78041 0.44464 0.46559 0.0
C147 C 0.34951 0.09615 0.42927 0.0
O148 O 0.31407 0.38061 0.45453 0.0
O149 O 0.47198 0.44304 0.41103 0.0
C150 C 0.55497 0.46648 0.53311 0.0
O151 O 0.35779 0.11073 0.46558 0.0
O152 O 0.40891 0.17951 0.40656 0.0
C153 C 0.78007 0.08993 0.42901 0.0
Fe154 Fe 0.07553 0.11621 0.73988 0.0
Fe155 Fe 0.06269 0.43916 0.73987 0.0
O156 O 0.06911 0.27768 0.71427 0.0
Fe157 Fe 0.06911 0.27767 0.66233 0.0
O158 O 0.90376 0.18054 0.66103 0.0
O159 O 0.96619 1.02264 0.70454 0.0
O160 O 0.91487 0.15201 0.76617 0.0
C161 C 0.88031 0.26356 0.78311 0.0
C162 C 0.25066 0.05809 0.67928 0.0
O163 O 0.95171 0.37429 0.7795 0.0
C164 C 0.25689 0.48863 0.67901 0.0
O165 O 0.1865 0.1811 0.7795 0.0
O166 O 0.22335 0.40337 0.76617 0.0
O167 O 0.1673 0.11747 0.65656 0.0
O168 O 0.23607 0.06638 0.71559 0.0
C169 C 0.88757 0.49726 0.67927 0.0
O170 O 0.17204 0.53271 0.70453 0.0
O171 O 0.23446 0.3748 0.66103 0.0
C172 C 0.2579 0.29182 0.78311 0.0
O173 O 0.90216 0.48899 0.71558 0.0
O174 O 0.97093 0.43787 0.65655 0.0
C175 C 0.88135 0.06671 0.67902 0.0
loop_
_geom_bond_atom_site_label_1
_geom_bond_atom_site_label_2
_geom_bond_distance
_geom_bond_site_symmetry_2
_ccdc_geom_bond_type
Fe0 O2 1.918 . S
Fe0 O5 1.997 1_455 S
Fe0 O6 2.002 . S
Fe0 O11 1.976 . S
Fe0 O14 1.996 1_455 S
Fe1 O2 1.918 . S
Fe1 O9 1.997 . S
Fe1 O12 1.996 . S
Fe1 O16 1.976 . S
Fe1 O19 2.002 . S
O2 Fe0 1.918 . S
O2 Fe1 1.918 . S
O2 Fe3 1.918 1_455 S
Fe3 O2 1.918 1_655 S
Fe3 O4 2.002 . S
Fe3 O13 1.976 . S
Fe3 O17 1.996 . S
Fe3 O20 1.997 . S
O4 Fe3 2.002 . S
O4 C21 1.295 . S
O5 Fe0 1.997 1_655 S
O5 C21 1.235 . S
O6 Fe0 2.002 . S
O6 C7 1.295 . S
C7 O6 1.295 . S
C7 O9 1.235 . S
C8 O13 1.287 . S
C8 O14 1.255 . S
O9 Fe1 1.997 . S
O9 C7 1.235 . S
C10 O16 1.287 . S
C10 O17 1.255 1_455 S
O11 Fe0 1.976 . S
O11 C18 1.287 . S
O12 Fe1 1.996 . S
O12 C18 1.255 . S
O13 Fe3 1.976 . S
O13 C8 1.287 . S
O14 Fe0 1.996 1_655 S
O14 C8 1.255 . S
C15 O19 1.295 . S
C15 O20 1.235 1_455 S
O16 Fe1 1.976 . S
O16 C10 1.287 . S
O17 Fe3 1.996 . S
O17 C10 1.255 1_655 S
C18 O11 1.287 . S
C18 O12 1.255 . S
O19 Fe1 2.002 . S
O19 C15 1.295 . S
O20 Fe3 1.997 . S
O20 C15 1.235 1_655 S
C21 O4 1.295 . S
C21 O5 1.235 . S
Fe22 O24 1.918 . S
Fe22 O27 1.997 . S
Fe22 O28 2.002 1_565 S
Fe22 O33 1.976 1_455 S
Fe22 O36 1.996 1_455 S
Fe23 O24 1.918 . S
Fe23 O31 1.997 . S
Fe23 O34 1.996 1_455 S
Fe23 O38 1.976 1_455 S
Fe23 O41 2.002 . S
O24 Fe22 1.918 . S
O24 Fe23 1.918 . S
O24 Fe25 1.918 . S
Fe25 O24 1.918 . S
Fe25 O26 2.002 . S
Fe25 O35 1.976 1_455 S
Fe25 O39 1.996 1_455 S
Fe25 O42 1.997 . S
O26 Fe25 2.002 . S
O26 C43 1.295 . S
O27 Fe22 1.997 . S
O27 C43 1.235 . S
O28 Fe22 2.002 1_545 S
O28 C29 1.295 1_545 S
C29 O28 1.295 1_565 S
C29 O31 1.235 . S
C30 O35 1.287 . S
C30 O36 1.255 . S
O31 Fe23 1.997 . S
O31 C29 1.235 . S
C32 O38 1.287 . S
C32 O39 1.255 . S
O33 Fe22 1.976 1_655 S
O33 C40 1.287 . S
O34 Fe23 1.996 1_655 S
O34 C40 1.255 . S
O35 Fe25 1.976 1_655 S
O35 C30 1.287 . S
O36 Fe22 1.996 1_655 S
O36 C30 1.255 . S
C37 O41 1.295 . S
C37 O42 1.235 . S
O38 Fe23 1.976 1_655 S
O38 C32 1.287 . S
O39 Fe25 1.996 1_655 S
O39 C32 1.255 . S
C40 O33 1.287 . S
C40 O34 1.255 . S
O41 Fe23 2.002 . S
O41 C37 1.295 . S
O42 Fe25 1.997 . S
O42 C37 1.235 . S
C43 O26 1.295 . S
C43 O27 1.235 . S
Fe44 O46 1.918 . S
Fe44 O49 1.997 . S
Fe44 O50 2.002 . S
Fe44 O55 1.976 . S
Fe44 O58 1.996 . S
Fe45 O46 1.918 . S
Fe45 O53 1.997 . S
Fe45 O56 1.996 . S
Fe45 O60 1.976 . S
Fe45 O63 2.002 . S
O46 Fe44 1.918 . S
O46 Fe45 1.918 . S
O46 Fe47 1.918 . S
Fe47 O46 1.918 . S
Fe47 O48 2.002 . S
Fe47 O57 1.976 . S
Fe47 O61 1.996 . S
Fe47 O64 1.997 . S
O48 Fe47 2.002 . S
O48 C65 1.295 . S
O49 Fe44 1.997 . S
O49 C65 1.235 . S
O50 Fe44 2.002 . S
O50 C51 1.295 . S
C51 O50 1.295 . S
C51 O53 1.235 . S
C52 O57 1.287 . S
C52 O58 1.255 . S
O53 Fe45 1.997 . S
O53 C51 1.235 . S
C54 O60 1.287 . S
C54 O61 1.255 . S
O55 Fe44 1.976 . S
O55 C62 1.287 . S
O56 Fe45 1.996 . S
O56 C62 1.255 . S
O57 Fe47 1.976 . S
O57 C52 1.287 . S
O58 Fe44 1.996 . S
O58 C52 1.255 . S
C59 O63 1.295 . S
C59 O64 1.235 . S
O60 Fe45 1.976 . S
O60 C54 1.287 . S
O61 Fe47 1.996 . S
O61 C54 1.255 . S
C62 O55 1.287 . S
C62 O56 1.255 . S
O63 Fe45 2.002 . S
O63 C59 1.295 . S
O64 Fe47 1.997 . S
O64 C59 1.235 . S
C65 O48 1.295 . S
C65 O49 1.235 . S
Fe66 O68 1.918 . S
Fe66 O71 1.997 . S
Fe66 O72 2.002 . S
Fe66 O77 1.976 . S
Fe66 O80 1.996 . S
Fe67 O68 1.918 . S
Fe67 O75 1.997 . S
Fe67 O78 1.996 . S
Fe67 O82 1.976 . S
Fe67 O85 2.002 . S
O68 Fe66 1.918 . S
O68 Fe67 1.918 . S
O68 Fe69 1.918 . S
Fe69 O68 1.918 . S
Fe69 O70 2.002 . S
Fe69 O79 1.976 . S
Fe69 O83 1.996 1_545 S
Fe69 O86 1.997 . S
O70 Fe69 2.002 . S
O70 C87 1.295 . S
O71 Fe66 1.997 . S
O71 C87 1.235 . S
O72 Fe66 2.002 . S
O72 C73 1.295 . S
C73 O72 1.295 . S
C73 O75 1.235 . S
C74 O79 1.287 . S
C74 O80 1.255 . S
O75 Fe67 1.997 . S
O75 C73 1.235 . S
C76 O82 1.287 . S
C76 O83 1.255 1_545 S
O77 Fe66 1.976 . S
O77 C84 1.287 . S
O78 Fe67 1.996 . S
O78 C84 1.255 . S
O79 Fe69 1.976 . S
O79 C74 1.287 . S
O80 Fe66 1.996 . S
O80 C74 1.255 . S
C81 O85 1.295 . S
C81 O86 1.235 . S
O82 Fe67 1.976 . S
O82 C76 1.287 . S
O83 Fe69 1.996 1_565 S
O83 C76 1.255 1_565 S
C84 O77 1.287 . S
C84 O78 1.255 . S
O85 Fe67 2.002 . S
O85 C81 1.295 . S
O86 Fe69 1.997 . S
O86 C81 1.235 . S
C87 O70 1.295 . S
C87 O71 1.235 . S
Fe88 O90 1.918 . S
Fe88 O93 1.997 . S
Fe88 O94 2.002 . S
Fe88 O99 1.976 . S
Fe88 O102 1.996 . S
Fe89 O90 1.918 1_655 S
Fe89 O97 1.997 . S
Fe89 O100 1.996 . S
Fe89 O104 1.976 . S
Fe89 O107 2.002 . S
O90 Fe88 1.918 . S
O90 Fe89 1.918 1_455 S
O90 Fe91 1.918 . S
Fe91 O90 1.918 . S
Fe91 O92 2.002 . S
Fe91 O101 1.976 . S
Fe91 O105 1.996 1_455 S
Fe91 O108 1.997 1_455 S
O92 Fe91 2.002 . S
O92 C109 1.295 . S
O93 Fe88 1.997 . S
O93 C109 1.235 . S
O94 Fe88 2.002 . S
O94 C95 1.295 . S
C95 O94 1.295 . S
C95 O97 1.235 1_455 S
C96 O101 1.287 . S
C96 O102 1.255 . S
O97 Fe89 1.997 . S
O97 C95 1.235 1_655 S
C98 O104 1.287 . S
C98 O105 1.255 . S
O99 Fe88 1.976 . S
O99 C106 1.287 . S
O100 Fe89 1.996 . S
O100 C106 1.255 1_655 S
O101 Fe91 1.976 . S
O101 C96 1.287 . S
O102 Fe88 1.996 . S
O102 C96 1.255 . S
C103 O107 1.295 . S
C103 O108 1.235 . S
O104 Fe89 1.976 . S
O104 C98 1.287 . S
O105 Fe91 1.996 1_655 S
O105 C98 1.255 . S
C106 O99 1.287 . S
C106 O100 1.255 1_455 S
O107 Fe89 2.002 . S
O107 C103 1.295 . S
O108 Fe91 1.997 1_655 S
O108 C103 1.235 . S
C109 O92 1.295 . S
C109 O93 1.235 . S
Fe110 O112 1.918 . S
Fe110 O115 1.997 . S
Fe110 O116 2.002 . S
Fe110 O121 1.976 . S
Fe110 O124 1.996 . S
Fe111 O112 1.918 . S
Fe111 O119 1.997 . S
Fe111 O122 1.996 . S
Fe111 O126 1.976 . S
Fe111 O129 2.002 1_565 S
O112 Fe110 1.918 . S
O112 Fe111 1.918 . S
O112 Fe113 1.918 . S
Fe113 O112 1.918 . S
Fe113 O114 2.002 . S
Fe113 O123 1.976 . S
Fe113 O127 1.996 . S
Fe113 O130 1.997 . S
O114 Fe113 2.002 . S
O114 C131 1.295 . S
O115 Fe110 1.997 . S
O115 C131 1.235 . S
O116 Fe110 2.002 . S
O116 C117 1.295 . S
C117 O116 1.295 . S
C117 O119 1.235 . S
C118 O123 1.287 . S
C118 O124 1.255 . S
O119 Fe111 1.997 . S
O119 C117 1.235 . S
C120 O126 1.287 . S
C120 O127 1.255 . S
O121 Fe110 1.976 . S
O121 C128 1.287 . S
O122 Fe111 1.996 . S
O122 C128 1.255 . S
O123 Fe113 1.976 . S
O123 C118 1.287 . S
O124 Fe110 1.996 . S
O124 C118 1.255 . S
C125 O129 1.295 1_565 S
C125 O130 1.235 . S
O126 Fe111 1.976 . S
O126 C120 1.287 . S
O127 Fe113 1.996 . S
O127 C120 1.255 . S
C128 O121 1.287 . S
C128 O122 1.255 . S
O129 Fe111 2.002 1_545 S
O129 C125 1.295 1_545 S
O130 Fe113 1.997 . S
O130 C125 1.235 . S
C131 O114 1.295 . S
C131 O115 1.235 . S
Fe132 O134 1.918 . S
Fe132 O137 1.997 . S
Fe132 O138 2.002 . S
Fe132 O143 1.976 . S
Fe132 O146 1.996 . S
Fe133 O134 1.918 . S
Fe133 O141 1.997 . S
Fe133 O144 1.996 . S
Fe133 O148 1.976 . S
Fe133 O151 2.002 . S
O134 Fe132 1.918 . S
O134 Fe133 1.918 . S
O134 Fe135 1.918 . S
Fe135 O134 1.918 . S
Fe135 O136 2.002 . S
Fe135 O145 1.976 . S
Fe135 O149 1.996 . S
Fe135 O152 1.997 . S
O136 Fe135 2.002 . S
O136 C153 1.295 . S
O137 Fe132 1.997 . S
O137 C153 1.235 . S
O138 Fe132 2.002 . S
O138 C139 1.295 . S
C139 O138 1.295 . S
C139 O141 1.235 . S
C140 O145 1.287 . S
C140 O146 1.255 . S
O141 Fe133 1.997 . S
O141 C139 1.235 . S
C142 O148 1.287 . S
C142 O149 1.255 . S
O143 Fe132 1.976 . S
O143 C150 1.287 . S
O144 Fe133 1.996 . S
O144 C150 1.255 . S
O145 Fe135 1.976 . S
O145 C140 1.287 . S
O146 Fe132 1.996 . S
O146 C140 1.255 . S
C147 O151 1.295 . S
C147 O152 1.235 . S
O148 Fe133 1.976 . S
O148 C142 1.287 . S
O149 Fe135 1.996 . S
O149 C142 1.255 . S
C150 O143 1.287 . S
C150 O144 1.255 . S
O151 Fe133 2.002 . S
O151 C147 1.295 . S
O152 Fe135 1.997 . S
O152 C147 1.235 . S
C153 O136 1.295 . S
C153 O137 1.235 . S
Fe154 O156 1.918 . S
Fe154 O159 1.997 1_455 S
Fe154 O160 2.002 1_455 S
Fe154 O165 1.976 . S
Fe154 O168 1.996 1_545 S
Fe155 O156 1.918 . S
Fe155 O163 1.997 1_455 S
Fe155 O166 1.996 . S
Fe155 O170 1.976 . S
Fe155 O173 2.002 1_455 S
O156 Fe154 1.918 . S
O156 Fe155 1.918 . S
O156 Fe157 1.918 . S
Fe157 O156 1.918 . S
Fe157 O158 2.002 1_455 S
Fe157 O167 1.976 . S
Fe157 O171 1.996 . S
Fe157 O174 1.997 1_455 S
O158 Fe157 2.002 1_655 S
O158 C175 1.295 . S
O159 Fe154 1.997 1_655 S
O159 C175 1.235 . S
O160 Fe154 2.002 1_655 S
O160 C161 1.295 . S
C161 O160 1.295 . S
C161 O163 1.235 . S
C162 O167 1.287 . S
C162 O168 1.255 1_545 S
O163 Fe155 1.997 1_655 S
O163 C161 1.235 . S
C164 O170 1.287 . S
C164 O171 1.255 . S
O165 Fe154 1.976 . S
O165 C172 1.287 . S
O166 Fe155 1.996 . S
O166 C172 1.255 . S
O167 Fe157 1.976 . S
O167 C162 1.287 . S
O168 Fe154 1.996 1_565 S
O168 C162 1.255 1_565 S
C169 O173 1.295 . S
C169 O174 1.235 . S
O170 Fe155 1.976 . S
O170 C164 1.287 . S
O171 Fe157 1.996 . S
O171 C164 1.255 . S
C172 O165 1.287 . S
C172 O166 1.255 . S
O173 Fe155 2.002 1_655 S
O173 C169 1.295 . S
O174 Fe157 1.997 1_655 S
O174 C169 1.235 . S
C175 O158 1.295 . S
C175 O159 1.235 . S
C15 C95 1.673 1_554 S
C128 C30 1.567 . S
C62 C150 1.567 . S
C87 C161 1.673 . S
C74 C172 1.568 . S
C117 C43 1.674 . S
C139 C51 1.673 1_545 S
C10 C106 1.567 1_544 S
C125 C18 1.393 1_565 S
C29 C147 1.457 1_565 S
C162 C59 1.393 1_545 S
C96 C76 1.328 1_565 S
C98 C81 1.390 1_565 S
C175 C65 1.455 1_545 S
C40 C153 1.390 1_565 S
C120 C8 1.325 1_565 S
C169 C52 1.393 . S
C103 C73 1.457 . S
C118 C21 1.393 . S
C32 C140 1.329 . S
C142 C37 1.390 . S
C7 C131 1.455 . S
C109 C84 1.390 . S
C164 C54 1.325 . S
