# Generated by pormake.
# Topology lvt, (4)-cn, num edge types: 1
# Building blocks:
#     Node 0, Type 0, BuildingBlock: MUDLON_clean_sbu_0, # of connection points: 4
#     Node 1, Type 0, BuildingBlock: MUDLON_clean_sbu_0, # of connection points: 4
#     Node 2, Type 0, BuildingBlock: MUDLON_clean_sbu_0, # of connection points: 4
#     Node 3, Type 0, BuildingBlock: MUDLON_clean_sbu_0, # of connection points: 4
#     Node 4, Type 0, BuildingBlock: MUDLON_clean_sbu_0, # of connection points: 4
#     Node 5, Type 0, BuildingBlock: MUDLON_clean_sbu_0, # of connection points: 4
#     Node 6, Type 0, BuildingBlock: MUDLON_clean_sbu_0, # of connection points: 4
#     Node 7, Type 0, BuildingBlock: MUDLON_clean_sbu_0, # of connection points: 4
#     Edge 8, Type (0, 0), BuildingBlock: EYOCIG_clean_linker_4, # of connection points: 2
#     Edge 9, Type (0, 0), BuildingBlock: EYOCIG_clean_linker_4, # of connection points: 2
#     Edge 10, Type (0, 0), BuildingBlock: EYOCIG_clean_linker_4, # of connection points: 2
#     Edge 11, Type (0, 0), BuildingBlock: EYOCIG_clean_linker_4, # of connection points: 2
#     Edge 12, Type (0, 0), BuildingBlock: EYOCIG_clean_linker_4, # of connection points: 2
#     Edge 13, Type (0, 0), BuildingBlock: EYOCIG_clean_linker_4, # of connection points: 2
#     Edge 14, Type (0, 0), BuildingBlock: EYOCIG_clean_linker_4, # of connection points: 2
#     Edge 15, Type (0, 0), BuildingBlock: EYOCIG_clean_linker_4, # of connection points: 2
#     Edge 16, Type (0, 0), BuildingBlock: EYOCIG_clean_linker_4, # of connection points: 2
#     Edge 17, Type (0, 0), BuildingBlock: EYOCIG_clean_linker_4, # of connection points: 2
#     Edge 18, Type (0, 0), BuildingBlock: EYOCIG_clean_linker_4, # of connection points: 2
#     Edge 19, Type (0, 0), BuildingBlock: EYOCIG_clean_linker_4, # of connection points: 2
#     Edge 20, Type (0, 0), BuildingBlock: EYOCIG_clean_linker_4, # of connection points: 2
#     Edge 21, Type (0, 0), BuildingBlock: EYOCIG_clean_linker_4, # of connection points: 2
#     Edge 22, Type (0, 0), BuildingBlock: EYOCIG_clean_linker_4, # of connection points: 2
#     Edge 23, Type (0, 0), BuildingBlock: EYOCIG_clean_linker_4, # of connection points: 2
# Relax obj value: 0.001
# Max RMSD: 0.039
# Mean RMSD: 0.026
data_MOF--net-lvt--node1-MUDLON_clean_sbu_0--edge1-EYOCIG_clean_linker_4
_symmetry_space_group_name_H-M    P1
_symmetry_Int_Tables_number       1
_symmetry_cell_setting            triclinic
loop_
_symmetry_equiv_pos_as_xyz
'x, y, z'
_cell_length_a     34.712625
_cell_length_b     34.754221
_cell_length_c     7.4884045
_cell_angle_alpha  89.917844
_cell_angle_beta   90.250608
_cell_angle_gamma 90.004188
loop_
_atom_site_label
_atom_site_type_symbol
_atom_site_fract_x
_atom_site_fract_y
_atom_site_fract_z
_atom_type_partial_charge
Mg0 Mg 0.02207 0.01994 0.68967 0.0
C1 C 0.08032 0.06763 0.46794 0.0
O2 O 0.07111 0.04535 0.33337 0.0
C3 C 0.9644 0.9547 0.59817 0.0
O4 O 0.97886 0.95569 0.43693 0.0
C5 C 0.96497 0.07653 0.60424 0.0
O6 O 0.97457 0.06081 0.4514 0.0
O7 O 0.98121 0.06514 0.74789 0.0
O8 O 0.06446 0.06303 0.61819 0.0
O9 O 0.06517 0.98239 0.80682 0.0
C10 C 0.08136 0.962 0.68732 0.0
O11 O 0.071 0.96602 0.5195 0.0
O12 O 0.97674 0.97743 0.71717 0.0
Mg13 Mg 0.27299 0.76568 0.81246 0.0
C14 C 0.2151 0.70405 0.78394 0.0
O15 O 0.21914 0.70751 0.95742 0.0
C16 C 0.32957 0.82056 0.95744 0.0
O17 O 0.31391 0.80662 0.10292 0.0
C18 C 0.21152 0.82391 0.83708 0.0
O19 O 0.21167 0.80924 0.99858 0.0
O20 O 0.23475 0.81105 0.7211 0.0
O21 O 0.23469 0.72533 0.68053 0.0
O22 O 0.31835 0.72386 0.77013 0.0
C23 C 0.32696 0.70322 0.90449 0.0
O24 O 0.30845 0.70803 0.05516 0.0
O25 O 0.31825 0.80863 0.80586 0.0
Mg26 Mg 0.5233 0.00918 0.17993 0.0
C27 C 0.46507 0.95516 0.06837 0.0
O28 O 0.4752 0.9732 0.92178 0.0
C29 C 0.5798 0.06939 0.20809 0.0
O30 O 0.57082 0.06782 0.03773 0.0
C31 C 0.58074 0.95619 0.98951 0.0
O32 O 0.5667 0.97142 0.84288 0.0
O33 O 0.56836 0.96687 0.14018 0.0
O34 O 0.481 0.96406 0.21625 0.0
O35 O 0.4787 0.05242 0.20644 0.0
C36 C 0.46254 0.0695 0.077 0.0
O37 O 0.47302 0.06205 0.91277 0.0
O38 O 0.5635 0.04654 0.3174 0.0
Mg39 Mg 0.26779 0.26082 0.21356 0.0
C40 C 0.21547 0.2031 0.37105 0.0
O41 O 0.23475 0.21434 0.51269 0.0
C42 C 0.33001 0.31834 0.20985 0.0
O43 O 0.32941 0.30826 0.37867 0.0
C44 C 0.21117 0.31857 0.31468 0.0
O45 O 0.22696 0.30881 0.46767 0.0
O46 O 0.22243 0.30255 0.17182 0.0
O47 O 0.22301 0.21766 0.21979 0.0
O48 O 0.30615 0.21665 0.11564 0.0
C49 C 0.32646 0.20097 0.23698 0.0
O50 O 0.32257 0.21206 0.40333 0.0
O51 O 0.30674 0.30279 0.1007 0.0
Mg52 Mg 0.76859 0.26521 0.41259 0.0
C53 C 0.82304 0.32854 0.49111 0.0
O54 O 0.80529 0.32499 0.64455 0.0
C55 C 0.70715 0.20631 0.42017 0.0
O56 O 0.70565 0.21989 0.58335 0.0
C57 C 0.82703 0.21022 0.54619 0.0
O58 O 0.81253 0.22317 0.696 0.0
O59 O 0.81421 0.22275 0.39812 0.0
O60 O 0.81365 0.30698 0.36133 0.0
O61 O 0.73012 0.30487 0.27707 0.0
C62 C 0.7099 0.32652 0.3758 0.0
O63 O 0.71333 0.32423 0.55001 0.0
O64 O 0.73141 0.22002 0.31082 0.0
Mg65 Mg 0.77142 0.76327 0.78898 0.0
C66 C 0.83017 0.82403 0.80473 0.0
O67 O 0.82697 0.81413 0.97316 0.0
C68 C 0.71367 0.70528 0.88264 0.0
O69 O 0.72879 0.71386 0.0384 0.0
C70 C 0.83299 0.70527 0.76315 0.0
O71 O 0.83356 0.7135 0.93405 0.0
O72 O 0.80911 0.72215 0.66093 0.0
O73 O 0.80955 0.80737 0.68769 0.0
O74 O 0.72648 0.8064 0.78291 0.0
C75 C 0.71815 0.8219 0.93114 0.0
O76 O 0.73682 0.81166 0.07629 0.0
O77 O 0.72584 0.72198 0.74304 0.0
Mg78 Mg 0.52144 0.51064 0.01124 0.0
C79 C 0.45984 0.45071 0.97281 0.0
O80 O 0.46773 0.45607 0.80352 0.0
C81 C 0.57864 0.56824 0.87577 0.0
O82 O 0.5672 0.55391 0.72259 0.0
C83 C 0.57901 0.45031 0.05872 0.0
O84 O 0.57061 0.44823 0.88796 0.0
O85 O 0.56215 0.47504 0.15582 0.0
O86 O 0.4778 0.46969 0.09111 0.0
O87 O 0.47929 0.55552 0.0551 0.0
C88 C 0.46186 0.56608 0.91364 0.0
O89 O 0.46999 0.54944 0.7612 0.0
O90 O 0.56461 0.55554 0.02022 0.0
Mg91 Mg 0.0242 0.51615 0.50218 0.0
C92 C 0.96165 0.46167 0.43949 0.0
O93 O 0.96677 0.47748 0.28211 0.0
C94 C 0.08246 0.57655 0.52122 0.0
O95 O 0.07105 0.57787 0.35402 0.0
C96 C 0.07857 0.45778 0.34716 0.0
O97 O 0.06513 0.4723 0.19767 0.0
O98 O 0.06683 0.47062 0.49557 0.0
O99 O 0.98243 0.47227 0.57072 0.0
O100 O 0.98202 0.55772 0.59197 0.0
C101 C 0.96115 0.57555 0.47994 0.0
O102 O 0.96523 0.56903 0.30864 0.0
O103 O 0.06743 0.55224 0.62714 0.0
C104 C 0.13292 0.12183 0.42951 0.0
C105 C 0.1089 0.09709 0.44719 0.0
C106 C 0.16139 0.15036 0.40675 0.0
C107 C 0.18599 0.17447 0.38822 0.0
C108 C 0.13456 0.90958 0.75266 0.0
C109 C 0.1102 0.93393 0.7317 0.0
C110 C 0.16234 0.88017 0.77209 0.0
C111 C 0.18532 0.85458 0.79479 0.0
C112 C 0.41216 0.90125 0.03199 0.0
C113 C 0.4364 0.92551 0.05726 0.0
C114 C 0.3837 0.8732 0.99677 0.0
C115 C 0.35913 0.84925 0.97208 0.0
C116 C 0.37841 0.14776 0.16723 0.0
C117 C 0.35443 0.17211 0.1942 0.0
C118 C 0.40742 0.12005 0.13822 0.0
C119 C 0.4326 0.09694 0.11118 0.0
C120 C 0.90997 0.90443 0.67723 0.0
C121 C 0.93481 0.92745 0.64206 0.0
C122 C 0.88142 0.87685 0.71744 0.0
C123 C 0.85783 0.85267 0.75403 0.0
C124 C 0.91137 0.13024 0.58993 0.0
C125 C 0.93596 0.10593 0.60506 0.0
C126 C 0.88225 0.1582 0.56684 0.0
C127 C 0.8571 0.18192 0.55175 0.0
C128 C 0.65879 0.15065 0.33443 0.0
C129 C 0.68137 0.17603 0.36781 0.0
C130 C 0.63149 0.12139 0.30051 0.0
C131 C 0.60776 0.09711 0.26663 0.0
C132 C 0.63458 0.90271 0.97034 0.0
C133 C 0.61001 0.92711 0.98023 0.0
C134 C 0.66348 0.87436 0.95476 0.0
C135 C 0.68835 0.85036 0.94147 0.0
C136 C 0.63088 0.62336 0.87767 0.0
C137 C 0.60701 0.59821 0.87942 0.0
C138 C 0.65926 0.65237 0.87277 0.0
C139 C 0.68402 0.67665 0.87202 0.0
C140 C 0.65936 0.37574 0.24409 0.0
C141 C 0.68273 0.35294 0.29911 0.0
C142 C 0.63138 0.40239 0.18525 0.0
C143 C 0.60734 0.42475 0.13259 0.0
C144 C 0.87867 0.38005 0.46737 0.0
C145 C 0.85345 0.35624 0.47315 0.0
C146 C 0.90801 0.40818 0.46543 0.0
C147 C 0.9328 0.43244 0.45994 0.0
C148 C 0.88226 0.65367 0.64342 0.0
C149 C 0.8594 0.67735 0.69385 0.0
C150 C 0.90963 0.62616 0.58831 0.0
C151 C 0.93324 0.60299 0.5403 0.0
C152 C 0.40748 0.39935 0.06367 0.0
C153 C 0.43145 0.42288 0.02392 0.0
C154 C 0.37986 0.37124 0.10883 0.0
C155 C 0.35678 0.34702 0.15079 0.0
C156 C 0.38155 0.65047 0.89813 0.0
C157 C 0.3569 0.67488 0.89443 0.0
C158 C 0.40988 0.62144 0.90971 0.0
C159 C 0.43376 0.59632 0.91727 0.0
C160 C 0.16457 0.65311 0.66799 0.0
C161 C 0.18798 0.67675 0.714 0.0
C162 C 0.13628 0.62562 0.6222 0.0
C163 C 0.11168 0.60274 0.58154 0.0
C164 C 0.15773 0.37245 0.31919 0.0
C165 C 0.182 0.34775 0.31109 0.0
C166 C 0.12995 0.40191 0.33308 0.0
C167 C 0.10651 0.4274 0.34229 0.0
loop_
_geom_bond_atom_site_label_1
_geom_bond_atom_site_label_2
_geom_bond_distance
_geom_bond_site_symmetry_2
_ccdc_geom_bond_type
Mg0 O7 2.141 1_455 S
Mg0 O8 2.048 . S
Mg0 O9 2.048 1_545 S
Mg0 O12 2.141 1_445 S
C1 O2 1.313 . S
C1 O8 1.195 . S
O2 C1 1.313 . S
C3 O4 1.245 . S
C3 O12 1.289 . S
O4 C3 1.245 . S
C5 O6 1.245 . S
C5 O7 1.289 . S
O6 C5 1.245 . S
O7 Mg0 2.141 1_655 S
O7 C5 1.289 . S
O8 Mg0 2.048 . S
O8 C1 1.195 . S
O9 Mg0 2.048 1_565 S
O9 C10 1.195 . S
C10 O9 1.195 . S
C10 O11 1.313 . S
O11 C10 1.313 . S
O12 Mg0 2.141 1_665 S
O12 C3 1.289 . S
Mg13 O20 2.141 . S
Mg13 O21 2.048 . S
Mg13 O22 2.048 . S
Mg13 O25 2.141 . S
C14 O15 1.313 . S
C14 O21 1.195 . S
O15 C14 1.313 . S
C16 O17 1.245 1_556 S
C16 O25 1.289 . S
O17 C16 1.245 1_554 S
C18 O19 1.245 . S
C18 O20 1.289 . S
O19 C18 1.245 . S
O20 Mg13 2.141 . S
O20 C18 1.289 . S
O21 Mg13 2.048 . S
O21 C14 1.195 . S
O22 Mg13 2.048 . S
O22 C23 1.195 . S
C23 O22 1.195 . S
C23 O24 1.313 1_556 S
O24 C23 1.313 1_554 S
O25 Mg13 2.141 . S
O25 C16 1.289 . S
Mg26 O33 2.141 1_545 S
Mg26 O34 2.048 1_545 S
Mg26 O35 2.048 . S
Mg26 O38 2.141 . S
C27 O28 1.313 1_554 S
C27 O34 1.195 . S
O28 C27 1.313 1_556 S
C29 O30 1.245 . S
C29 O38 1.289 . S
O30 C29 1.245 . S
C31 O32 1.245 1_554 S
C31 O33 1.289 . S
O32 C31 1.245 1_556 S
O33 Mg26 2.141 1_565 S
O33 C31 1.289 . S
O34 Mg26 2.048 1_565 S
O34 C27 1.195 . S
O35 Mg26 2.048 . S
O35 C36 1.195 . S
C36 O35 1.195 . S
C36 O37 1.313 1_554 S
O37 C36 1.313 1_556 S
O38 Mg26 2.141 . S
O38 C29 1.289 . S
Mg39 O46 2.141 . S
Mg39 O47 2.048 . S
Mg39 O48 2.048 . S
Mg39 O51 2.141 . S
C40 O41 1.313 . S
C40 O47 1.195 . S
O41 C40 1.313 . S
C42 O43 1.245 . S
C42 O51 1.289 . S
O43 C42 1.245 . S
C44 O45 1.245 . S
C44 O46 1.289 . S
O45 C44 1.245 . S
O46 Mg39 2.141 . S
O46 C44 1.289 . S
O47 Mg39 2.048 . S
O47 C40 1.195 . S
O48 Mg39 2.048 . S
O48 C49 1.195 . S
C49 O48 1.195 . S
C49 O50 1.313 . S
O50 C49 1.313 . S
O51 Mg39 2.141 . S
O51 C42 1.289 . S
Mg52 O59 2.141 . S
Mg52 O60 2.048 . S
Mg52 O61 2.048 . S
Mg52 O64 2.141 . S
C53 O54 1.313 . S
C53 O60 1.195 . S
O54 C53 1.313 . S
C55 O56 1.245 . S
C55 O64 1.289 . S
O56 C55 1.245 . S
C57 O58 1.245 . S
C57 O59 1.289 . S
O58 C57 1.245 . S
O59 Mg52 2.141 . S
O59 C57 1.289 . S
O60 Mg52 2.048 . S
O60 C53 1.195 . S
O61 Mg52 2.048 . S
O61 C62 1.195 . S
C62 O61 1.195 . S
C62 O63 1.313 . S
O63 C62 1.313 . S
O64 Mg52 2.141 . S
O64 C55 1.289 . S
Mg65 O72 2.141 . S
Mg65 O73 2.048 . S
Mg65 O74 2.048 . S
Mg65 O77 2.141 . S
C66 O67 1.313 . S
C66 O73 1.195 . S
O67 C66 1.313 . S
C68 O69 1.245 1_556 S
C68 O77 1.289 . S
O69 C68 1.245 1_554 S
C70 O71 1.245 . S
C70 O72 1.289 . S
O71 C70 1.245 . S
O72 Mg65 2.141 . S
O72 C70 1.289 . S
O73 Mg65 2.048 . S
O73 C66 1.195 . S
O74 Mg65 2.048 . S
O74 C75 1.195 . S
C75 O74 1.195 . S
C75 O76 1.313 1_556 S
O76 C75 1.313 1_554 S
O77 Mg65 2.141 . S
O77 C68 1.289 . S
Mg78 O85 2.141 . S
Mg78 O86 2.048 . S
Mg78 O87 2.048 . S
Mg78 O90 2.141 . S
C79 O80 1.313 1_554 S
C79 O86 1.195 . S
O80 C79 1.313 1_556 S
C81 O82 1.245 . S
C81 O90 1.289 1_556 S
O82 C81 1.245 . S
C83 O84 1.245 1_554 S
C83 O85 1.289 . S
O84 C83 1.245 1_556 S
O85 Mg78 2.141 . S
O85 C83 1.289 . S
O86 Mg78 2.048 . S
O86 C79 1.195 . S
O87 Mg78 2.048 . S
O87 C88 1.195 1_554 S
C88 O87 1.195 1_556 S
C88 O89 1.313 . S
O89 C88 1.313 . S
O90 Mg78 2.141 . S
O90 C81 1.289 1_554 S
Mg91 O98 2.141 . S
Mg91 O99 2.048 1_455 S
Mg91 O100 2.048 1_455 S
Mg91 O103 2.141 . S
C92 O93 1.313 . S
C92 O99 1.195 . S
O93 C92 1.313 . S
C94 O95 1.245 . S
C94 O103 1.289 . S
O95 C94 1.245 . S
C96 O97 1.245 . S
C96 O98 1.289 . S
O97 C96 1.245 . S
O98 Mg91 2.141 . S
O98 C96 1.289 . S
O99 Mg91 2.048 1_655 S
O99 C92 1.195 . S
O100 Mg91 2.048 1_655 S
O100 C101 1.195 . S
C101 O100 1.195 . S
C101 O102 1.313 . S
O102 C101 1.313 . S
O103 Mg91 2.141 . S
O103 C94 1.289 . S
C104 C105 1.170 . S
C104 C106 1.380 . S
C105 C104 1.170 . S
C106 C104 1.380 . S
C106 C107 1.170 . S
C107 C106 1.170 . S
C108 C109 1.170 . S
C108 C110 1.380 . S
C109 C108 1.170 . S
C110 C108 1.380 . S
C110 C111 1.170 . S
C111 C110 1.170 . S
C112 C113 1.170 . S
C112 C114 1.380 1_554 S
C113 C112 1.170 . S
C114 C112 1.380 1_556 S
C114 C115 1.170 . S
C115 C114 1.170 . S
C116 C117 1.170 . S
C116 C118 1.380 . S
C117 C116 1.170 . S
C118 C116 1.380 . S
C118 C119 1.170 . S
C119 C118 1.170 . S
C120 C121 1.170 . S
C120 C122 1.380 . S
C121 C120 1.170 . S
C122 C120 1.380 . S
C122 C123 1.170 . S
C123 C122 1.170 . S
C124 C125 1.170 . S
C124 C126 1.380 . S
C125 C124 1.170 . S
C126 C124 1.380 . S
C126 C127 1.170 . S
C127 C126 1.170 . S
C128 C129 1.170 . S
C128 C130 1.380 . S
C129 C128 1.170 . S
C130 C128 1.380 . S
C130 C131 1.170 . S
C131 C130 1.170 . S
C132 C133 1.170 . S
C132 C134 1.380 1_554 S
C133 C132 1.170 . S
C134 C132 1.380 1_556 S
C134 C135 1.170 . S
C135 C134 1.170 . S
C136 C137 1.170 . S
C136 C138 1.380 . S
C137 C136 1.170 . S
C138 C136 1.380 . S
C138 C139 1.170 . S
C139 C138 1.170 . S
C140 C141 1.170 . S
C140 C142 1.380 . S
C141 C140 1.170 . S
C142 C140 1.380 . S
C142 C143 1.170 . S
C143 C142 1.170 . S
C144 C145 1.170 . S
C144 C146 1.380 . S
C145 C144 1.170 . S
C146 C144 1.380 . S
C146 C147 1.170 . S
C147 C146 1.170 . S
C148 C149 1.170 . S
C148 C150 1.380 . S
C149 C148 1.170 . S
C150 C148 1.380 . S
C150 C151 1.170 . S
C151 C150 1.170 . S
C152 C153 1.170 . S
C152 C154 1.380 . S
C153 C152 1.170 . S
C154 C152 1.380 . S
C154 C155 1.170 . S
C155 C154 1.170 . S
C156 C157 1.170 . S
C156 C158 1.380 . S
C157 C156 1.170 . S
C158 C156 1.380 . S
C158 C159 1.170 . S
C159 C158 1.170 . S
C160 C161 1.170 . S
C160 C162 1.380 . S
C161 C160 1.170 . S
C162 C160 1.380 . S
C162 C163 1.170 . S
C163 C162 1.170 . S
C164 C165 1.170 . S
C164 C166 1.380 . S
C165 C164 1.170 . S
C166 C164 1.380 . S
C166 C167 1.170 . S
C167 C166 1.170 . S
C105 C1 1.554 . S
C107 C40 1.543 . S
C109 C10 1.492 . S
C111 C18 1.474 . S
C113 C27 1.477 . S
C115 C16 1.460 . S
C117 C49 1.545 . S
C119 C36 1.522 . S
C121 C3 1.478 . S
C123 C66 1.514 . S
C125 C5 1.464 . S
C127 C57 1.455 . S
C129 C55 1.475 . S
C131 C29 1.475 . S
C133 C31 1.514 . S
C135 C75 1.518 . S
C137 C81 1.440 . S
C139 C68 1.443 . S
C141 C62 1.526 . S
C143 C83 1.525 . S
C145 C53 1.555 . S
C147 C92 1.553 . S
C149 C70 1.473 . S
C151 C101 1.463 . S
C153 C79 1.508 . S
C155 C42 1.498 . S
C157 C23 1.561 . S
C159 C88 1.565 . S
C161 C14 1.529 . S
C163 C94 1.527 . S
C165 C44 1.450 . S
C167 C96 1.474 . S
