# Generated by pormake.
# Topology hcp, (12)-cn, num edge types: 1
# Building blocks:
#     Node 0, Type 0, BuildingBlock: ENOWUB_clean_sbu_0, # of connection points: 12
#     Node 1, Type 0, BuildingBlock: ENOWUB_clean_sbu_0, # of connection points: 12
#     Edge 2, Type (0, 0), BuildingBlock: EYOCIG_clean_linker_4, # of connection points: 2
#     Edge 3, Type (0, 0), BuildingBlock: EYOCIG_clean_linker_4, # of connection points: 2
#     Edge 4, Type (0, 0), BuildingBlock: EYOCIG_clean_linker_4, # of connection points: 2
#     Edge 5, Type (0, 0), BuildingBlock: EYOCIG_clean_linker_4, # of connection points: 2
#     Edge 6, Type (0, 0), BuildingBlock: EYOCIG_clean_linker_4, # of connection points: 2
#     Edge 7, Type (0, 0), BuildingBlock: EYOCIG_clean_linker_4, # of connection points: 2
#     Edge 8, Type (0, 0), BuildingBlock: EYOCIG_clean_linker_4, # of connection points: 2
#     Edge 9, Type (0, 0), BuildingBlock: EYOCIG_clean_linker_4, # of connection points: 2
#     Edge 10, Type (0, 0), BuildingBlock: EYOCIG_clean_linker_4, # of connection points: 2
#     Edge 11, Type (0, 0), BuildingBlock: EYOCIG_clean_linker_4, # of connection points: 2
#     Edge 12, Type (0, 0), BuildingBlock: EYOCIG_clean_linker_4, # of connection points: 2
#     Edge 13, Type (0, 0), BuildingBlock: EYOCIG_clean_linker_4, # of connection points: 2
# Relax obj value: 0.186
# Max RMSD: 0.270
# Mean RMSD: 0.270
data_MOF--net-hcp--node1-ENOWUB_clean_sbu_0--edge1-EYOCIG_clean_linker_4
_symmetry_space_group_name_H-M    P1
_symmetry_Int_Tables_number       1
_symmetry_cell_setting            triclinic
loop_
_symmetry_equiv_pos_as_xyz
'x, y, z'
_cell_length_a     15.894862
_cell_length_b     15.89315
_cell_length_c     24.820083
_cell_angle_alpha  89.996966
_cell_angle_beta   90.002186
_cell_angle_gamma 119.99997
loop_
_atom_site_label
_atom_site_type_symbol
_atom_site_fract_x
_atom_site_fract_y
_atom_site_fract_z
_atom_type_partial_charge
O0 O 0.74269 0.24262 0.12544 0.0
O1 O 0.66762 0.19329 0.23807 0.0
O2 O 0.72515 0.45758 0.23807 0.0
O3 O 0.61787 0.30057 0.17407 0.0
O4 O 0.77284 0.35033 0.30004 0.0
Zr5 Zr 0.77288 0.34917 0.20582 0.0
Zr6 Zr 0.66783 0.19495 0.33283 0.0
Zr7 Zr 0.51147 0.14555 0.20584 0.0
O8 O 0.61792 0.30056 0.36807 0.0
O9 O 0.46088 0.25083 0.23809 0.0
O10 O 0.51272 0.14561 0.30006 0.0
Zr11 Zr 0.72352 0.45611 0.33284 0.0
Zr12 Zr 0.56927 0.40698 0.20584 0.0
Zr13 Zr 0.46238 0.25064 0.33285 0.0
O14 O 0.56814 0.40577 0.30006 0.0
O15 O 0.48211 0.37508 0.40007 0.0
O16 O 0.31862 0.09221 0.3117 0.0
O17 O 0.9135 0.51147 0.22411 0.0
O18 O 0.70888 0.59989 0.31167 0.0
O19 O 0.53316 0.00493 0.22412 0.0
O20 O 0.43504 0.17569 0.12548 0.0
O21 O 0.82824 0.43639 0.40004 0.0
O22 O 0.54341 0.0902 0.40004 0.0
O23 O 0.67578 0.48336 0.12545 0.0
O24 O 0.407 0.38532 0.22415 0.0
O25 O 0.82627 0.20966 0.31166 0.0
O26 O 0.64391 0.49086 0.40504 0.0
O27 O 0.58246 0.12252 0.12749 0.0
O28 O 0.3496 0.03311 0.23417 0.0
O29 O 0.88153 0.57234 0.3006 0.0
O30 O 0.88533 0.29972 0.23413 0.0
O31 O 0.34614 0.29243 0.30063 0.0
O32 O 0.42765 0.13625 0.40505 0.0
O33 O 0.79589 0.44325 0.12749 0.0
C34 C 0.66666 0.16652 0.10593 0.0
O35 O 0.78219 0.27456 0.40503 0.0
O36 O 0.62606 0.03693 0.30059 0.0
C37 C 0.55441 0.45505 0.41872 0.0
C38 C 0.29625 0.02757 0.27428 0.0
C39 C 0.93458 0.57781 0.26034 0.0
C40 C 0.66661 0.62226 0.27425 0.0
C41 C 0.57846 -0.01613 0.26034 0.0
C42 C 0.43495 0.25172 0.10598 0.0
C43 C 0.83591 0.36408 0.41869 0.0
C44 C 0.46345 0.08253 0.4187 0.0
C45 C 0.75188 0.48345 0.10594 0.0
C46 C 0.34066 0.34003 0.26038 0.0
C47 C 0.89089 0.25192 0.27424 0.0
O48 O 0.47518 0.33594 0.12752 0.0
O49 O 0.61877 0.56889 0.23415 0.0
O50 O 0.35895 0.84421 0.90004 0.0
O51 O 0.28444 0.63385 0.86807 0.0
O52 O 0.23473 0.74113 0.73806 0.0
O53 O 0.38964 0.78881 0.80005 0.0
O54 O 0.12951 0.58409 0.80003 0.0
Zr55 Zr 0.23453 0.73947 0.83283 0.0
Zr56 Zr 0.17884 0.47831 0.83284 0.0
Zr57 Zr 0.43998 0.68378 0.83285 0.0
O58 O 0.1772 0.47684 0.73808 0.0
O59 O 0.44147 0.6836 0.73809 0.0
O60 O 0.33421 0.52865 0.80007 0.0
Zr61 Zr 0.12947 0.58524 0.70582 0.0
Zr62 Zr 0.39088 0.78887 0.70583 0.0
Zr63 Zr 0.33308 0.52744 0.70585 0.0
O64 O 0.28448 0.63385 0.67407 0.0
O65 O 0.22657 0.45105 0.62547 0.0
O66 O 0.49536 0.54912 0.72416 0.0
O67 O 0.07609 0.72477 0.81165 0.0
O68 O 0.15965 0.69179 0.62543 0.0
O69 O 0.42025 0.55934 0.90008 0.0
O70 O 0.58374 0.84221 0.81169 0.0
O71 O -0.01115 0.42296 0.72411 0.0
O72 O 0.19348 0.33453 0.81168 0.0
O73 O 0.3692 0.92949 0.72411 0.0
O74 O 0.4673 0.75871 0.62548 0.0
O75 O 0.07411 0.49803 0.90004 0.0
O76 O 0.10646 0.49117 0.62749 0.0
O77 O 0.47471 0.79817 0.90505 0.0
O78 O 0.55622 0.642 0.80064 0.0
O79 O 0.01702 0.6347 0.73412 0.0
O80 O 0.12016 0.65985 0.90502 0.0
O81 O 0.42716 0.59846 0.62752 0.0
O82 O 0.28359 0.36553 0.73417 0.0
O83 O 0.27631 0.89749 0.80058 0.0
C84 C 0.43891 0.85189 0.9187 0.0
O85 O 0.02082 0.36208 0.8006 0.0
O86 O 0.25844 0.44356 0.90505 0.0
C87 C 0.15047 0.45097 0.60595 0.0
C88 C 0.5617 0.5944 0.76039 0.0
C89 C 0.01147 0.68251 0.77423 0.0
C90 C 0.23568 0.76789 0.60593 0.0
C91 C 0.34795 0.47937 0.91872 0.0
C92 C 0.6061 0.90685 0.77427 0.0
C93 C -0.03222 0.35661 0.76034 0.0
C94 C 0.23575 0.31217 0.77427 0.0
C95 C 0.32391 0.95055 0.76033 0.0
C96 C 0.46738 0.68268 0.60597 0.0
C97 C 0.06644 0.57033 0.91869 0.0
O98 O 0.55276 0.90131 0.73416 0.0
O99 O 0.31987 0.81189 0.62748 0.0
C100 C 0.55979 -0.00334 0.98215 0.0
C101 C 0.50043 0.93283 0.95337 0.0
C102 C 0.62771 0.06971 0.01747 0.0
C103 C 0.66747 0.12611 0.05423 0.0
C104 C 0.52534 0.64379 0.51752 0.0
C105 C 0.50866 0.68352 0.55429 0.0
C106 C 0.53053 0.57591 0.4822 0.0
C107 C 0.53501 0.51657 0.4534 0.0
C108 C 0.84865 0.54133 0.01747 0.0
C109 C 0.79227 0.52469 0.05424 0.0
C110 C 0.9217 0.54647 0.98215 0.0
C111 C -0.01449 0.55093 0.95336 0.0
C112 C 0.27462 0.86469 0.51746 0.0
C113 C 0.23486 0.8083 0.55422 0.0
C114 C 0.34255 0.93774 0.48214 0.0
C115 C 0.40192 0.00157 0.45336 0.0
C116 C 0.37699 0.2906 0.01753 0.0
C117 C 0.39367 0.25087 0.05429 0.0
C118 C 0.37182 0.35849 0.9822 0.0
C119 C 0.36735 0.41784 0.95341 0.0
C120 C -0.01935 0.38794 0.48216 0.0
C121 C 0.91684 0.38348 0.45337 0.0
C122 C 0.05369 0.39308 0.51748 0.0
C123 C 0.11008 0.40972 0.55425 0.0
C124 C 0.60834 0.83718 0.26049 0.0
C125 C 0.5865 0.89889 0.25434 0.0
C126 C 0.64158 0.77194 0.27189 0.0
C127 C 0.66132 0.70895 0.27899 0.0
C128 C 0.83674 0.65743 0.7719 0.0
C129 C 0.91947 0.67717 0.77898 0.0
C130 C 0.73826 0.62424 0.76054 0.0
C131 C 0.65472 0.60244 0.75441 0.0
C132 C 0.14658 0.85284 0.27192 0.0
C133 C 0.20957 0.93558 0.27902 0.0
C134 C 0.08131 0.75437 0.26052 0.0
C135 C 0.01958 0.67083 0.25436 0.0
C136 C 0.2608 0.16249 0.7719 0.0
C137 C 0.24105 0.22548 0.77901 0.0
C138 C 0.29403 0.09725 0.76049 0.0
C139 C 0.31587 0.03555 0.75434 0.0
C140 C 0.1641 0.3102 0.26054 0.0
C141 C 0.24764 0.332 0.2544 0.0
C142 C 0.06563 0.27701 0.27191 0.0
C143 C -0.01711 0.25727 0.27899 0.0
C144 C 0.82105 0.18005 0.76052 0.0
C145 C 0.88278 0.26359 0.75436 0.0
C146 C 0.75577 0.08157 0.77191 0.0
C147 C 0.69278 -0.00116 0.77901 0.0
loop_
_geom_bond_atom_site_label_1
_geom_bond_atom_site_label_2
_geom_bond_distance
_geom_bond_site_symmetry_2
_ccdc_geom_bond_type
O0 Zr5 2.207 . S
O0 C34 1.295 . S
O1 Zr5 2.133 . S
O1 Zr6 2.133 . S
O1 Zr7 2.133 . S
O2 Zr5 2.133 . S
O2 Zr11 2.133 . S
O2 Zr12 2.133 . S
O3 Zr5 2.133 . S
O3 Zr7 2.133 . S
O3 Zr12 2.133 . S
O4 Zr5 2.133 . S
O4 Zr6 2.133 . S
O4 Zr11 2.133 . S
Zr5 O0 2.207 . S
Zr5 O1 2.133 . S
Zr5 O2 2.133 . S
Zr5 O3 2.133 . S
Zr5 O4 2.133 . S
Zr5 O17 2.207 . S
Zr5 O30 2.207 . S
Zr5 O33 2.207 . S
Zr6 O1 2.133 . S
Zr6 O4 2.133 . S
Zr6 O8 2.133 . S
Zr6 O10 2.133 . S
Zr6 O22 2.207 . S
Zr6 O25 2.207 . S
Zr6 O35 2.207 . S
Zr6 O36 2.207 . S
Zr7 O1 2.133 . S
Zr7 O3 2.133 . S
Zr7 O9 2.133 . S
Zr7 O10 2.133 . S
Zr7 O19 2.207 . S
Zr7 O20 2.207 . S
Zr7 O27 2.207 . S
Zr7 O28 2.207 . S
O8 Zr6 2.133 . S
O8 Zr11 2.133 . S
O8 Zr13 2.133 . S
O9 Zr7 2.133 . S
O9 Zr12 2.133 . S
O9 Zr13 2.133 . S
O10 Zr6 2.133 . S
O10 Zr7 2.133 . S
O10 Zr13 2.133 . S
Zr11 O2 2.133 . S
Zr11 O4 2.133 . S
Zr11 O8 2.133 . S
Zr11 O14 2.133 . S
Zr11 O18 2.207 . S
Zr11 O21 2.207 . S
Zr11 O26 2.207 . S
Zr11 O29 2.207 . S
Zr12 O2 2.133 . S
Zr12 O3 2.133 . S
Zr12 O9 2.133 . S
Zr12 O14 2.133 . S
Zr12 O23 2.207 . S
Zr12 O24 2.207 . S
Zr12 O48 2.207 . S
Zr12 O49 2.207 . S
Zr13 O8 2.133 . S
Zr13 O9 2.133 . S
Zr13 O10 2.133 . S
Zr13 O14 2.133 . S
Zr13 O15 2.207 . S
Zr13 O16 2.207 . S
Zr13 O31 2.207 . S
Zr13 O32 2.207 . S
O14 Zr11 2.133 . S
O14 Zr12 2.133 . S
O14 Zr13 2.133 . S
O15 Zr13 2.207 . S
O15 C37 1.295 . S
O16 Zr13 2.207 . S
O16 C38 1.295 . S
O17 Zr5 2.207 . S
O17 C39 1.295 . S
O18 Zr11 2.207 . S
O18 C40 1.295 . S
O19 Zr7 2.207 . S
O19 C41 1.295 . S
O20 Zr7 2.207 . S
O20 C42 1.295 . S
O21 Zr11 2.207 . S
O21 C43 1.295 . S
O22 Zr6 2.207 . S
O22 C44 1.295 . S
O23 Zr12 2.207 . S
O23 C45 1.295 . S
O24 Zr12 2.207 . S
O24 C46 1.295 . S
O25 Zr6 2.207 . S
O25 C47 1.295 . S
O26 Zr11 2.207 . S
O26 C37 1.295 . S
O27 Zr7 2.207 . S
O27 C34 1.295 . S
O28 Zr7 2.207 . S
O28 C38 1.295 . S
O29 Zr11 2.207 . S
O29 C39 1.295 . S
O30 Zr5 2.207 . S
O30 C47 1.295 . S
O31 Zr13 2.207 . S
O31 C46 1.295 . S
O32 Zr13 2.207 . S
O32 C44 1.295 . S
O33 Zr5 2.207 . S
O33 C45 1.295 . S
C34 O0 1.295 . S
C34 O27 1.295 . S
O35 Zr6 2.207 . S
O35 C43 1.295 . S
O36 Zr6 2.207 . S
O36 C41 1.295 . S
C37 O15 1.295 . S
C37 O26 1.295 . S
C38 O16 1.295 . S
C38 O28 1.295 . S
C39 O17 1.295 . S
C39 O29 1.295 . S
C40 O18 1.295 . S
C40 O49 1.295 . S
C41 O19 1.295 . S
C41 O36 1.295 . S
C42 O20 1.295 . S
C42 O48 1.295 . S
C43 O21 1.295 . S
C43 O35 1.295 . S
C44 O22 1.295 . S
C44 O32 1.295 . S
C45 O23 1.295 . S
C45 O33 1.295 . S
C46 O24 1.295 . S
C46 O31 1.295 . S
C47 O25 1.295 . S
C47 O30 1.295 . S
O48 Zr12 2.207 . S
O48 C42 1.295 . S
O49 Zr12 2.207 . S
O49 C40 1.295 . S
O50 Zr55 2.207 . S
O50 C84 1.295 . S
O51 Zr55 2.133 . S
O51 Zr56 2.133 . S
O51 Zr57 2.133 . S
O52 Zr55 2.133 . S
O52 Zr61 2.133 . S
O52 Zr62 2.133 . S
O53 Zr55 2.133 . S
O53 Zr57 2.133 . S
O53 Zr62 2.133 . S
O54 Zr55 2.133 . S
O54 Zr56 2.133 . S
O54 Zr61 2.133 . S
Zr55 O50 2.207 . S
Zr55 O51 2.133 . S
Zr55 O52 2.133 . S
Zr55 O53 2.133 . S
Zr55 O54 2.133 . S
Zr55 O67 2.207 . S
Zr55 O80 2.207 . S
Zr55 O83 2.207 . S
Zr56 O51 2.133 . S
Zr56 O54 2.133 . S
Zr56 O58 2.133 . S
Zr56 O60 2.133 . S
Zr56 O72 2.207 . S
Zr56 O75 2.207 . S
Zr56 O85 2.207 . S
Zr56 O86 2.207 . S
Zr57 O51 2.133 . S
Zr57 O53 2.133 . S
Zr57 O59 2.133 . S
Zr57 O60 2.133 . S
Zr57 O69 2.207 . S
Zr57 O70 2.207 . S
Zr57 O77 2.207 . S
Zr57 O78 2.207 . S
O58 Zr56 2.133 . S
O58 Zr61 2.133 . S
O58 Zr63 2.133 . S
O59 Zr57 2.133 . S
O59 Zr62 2.133 . S
O59 Zr63 2.133 . S
O60 Zr56 2.133 . S
O60 Zr57 2.133 . S
O60 Zr63 2.133 . S
Zr61 O52 2.133 . S
Zr61 O54 2.133 . S
Zr61 O58 2.133 . S
Zr61 O64 2.133 . S
Zr61 O68 2.207 . S
Zr61 O71 2.207 . S
Zr61 O76 2.207 . S
Zr61 O79 2.207 . S
Zr62 O52 2.133 . S
Zr62 O53 2.133 . S
Zr62 O59 2.133 . S
Zr62 O64 2.133 . S
Zr62 O73 2.207 . S
Zr62 O74 2.207 . S
Zr62 O98 2.207 . S
Zr62 O99 2.207 . S
Zr63 O58 2.133 . S
Zr63 O59 2.133 . S
Zr63 O60 2.133 . S
Zr63 O64 2.133 . S
Zr63 O65 2.207 . S
Zr63 O66 2.207 . S
Zr63 O81 2.207 . S
Zr63 O82 2.207 . S
O64 Zr61 2.133 . S
O64 Zr62 2.133 . S
O64 Zr63 2.133 . S
O65 Zr63 2.207 . S
O65 C87 1.295 . S
O66 Zr63 2.207 . S
O66 C88 1.295 . S
O67 Zr55 2.207 . S
O67 C89 1.295 . S
O68 Zr61 2.207 . S
O68 C90 1.295 . S
O69 Zr57 2.207 . S
O69 C91 1.295 . S
O70 Zr57 2.207 . S
O70 C92 1.295 . S
O71 Zr61 2.207 . S
O71 C93 1.295 . S
O72 Zr56 2.207 . S
O72 C94 1.295 . S
O73 Zr62 2.207 . S
O73 C95 1.295 . S
O74 Zr62 2.207 . S
O74 C96 1.295 . S
O75 Zr56 2.207 . S
O75 C97 1.295 . S
O76 Zr61 2.207 . S
O76 C87 1.295 . S
O77 Zr57 2.207 . S
O77 C84 1.295 . S
O78 Zr57 2.207 . S
O78 C88 1.295 . S
O79 Zr61 2.207 . S
O79 C89 1.295 . S
O80 Zr55 2.207 . S
O80 C97 1.295 . S
O81 Zr63 2.207 . S
O81 C96 1.295 . S
O82 Zr63 2.207 . S
O82 C94 1.295 . S
O83 Zr55 2.207 . S
O83 C95 1.295 . S
C84 O50 1.295 . S
C84 O77 1.295 . S
O85 Zr56 2.207 . S
O85 C93 1.295 . S
O86 Zr56 2.207 . S
O86 C91 1.295 . S
C87 O65 1.295 . S
C87 O76 1.295 . S
C88 O66 1.295 . S
C88 O78 1.295 . S
C89 O67 1.295 . S
C89 O79 1.295 . S
C90 O68 1.295 . S
C90 O99 1.295 . S
C91 O69 1.295 . S
C91 O86 1.295 . S
C92 O70 1.295 . S
C92 O98 1.295 . S
C93 O71 1.295 . S
C93 O85 1.295 . S
C94 O72 1.295 . S
C94 O82 1.295 . S
C95 O73 1.295 . S
C95 O83 1.295 . S
C96 O74 1.295 . S
C96 O81 1.295 . S
C97 O75 1.295 . S
C97 O80 1.295 . S
O98 Zr62 2.207 . S
O98 C92 1.295 . S
O99 Zr62 2.207 . S
O99 C90 1.295 . S
C100 C101 1.170 1_545 S
C100 C102 1.380 1_556 S
C101 C100 1.170 1_565 S
C102 C100 1.380 1_554 S
C102 C103 1.170 . S
C103 C102 1.170 . S
C104 C105 1.170 . S
C104 C106 1.380 . S
C105 C104 1.170 . S
C106 C104 1.380 . S
C106 C107 1.170 . S
C107 C106 1.170 . S
C108 C109 1.170 . S
C108 C110 1.380 1_554 S
C109 C108 1.170 . S
C110 C108 1.380 1_556 S
C110 C111 1.170 1_655 S
C111 C110 1.170 1_455 S
C112 C113 1.170 . S
C112 C114 1.380 . S
C113 C112 1.170 . S
C114 C112 1.380 . S
C114 C115 1.170 1_565 S
C115 C114 1.170 1_545 S
C116 C117 1.170 . S
C116 C118 1.380 1_554 S
C117 C116 1.170 . S
C118 C116 1.380 1_556 S
C118 C119 1.170 . S
C119 C118 1.170 . S
C120 C121 1.170 1_455 S
C120 C122 1.380 . S
C121 C120 1.170 1_655 S
C122 C120 1.380 . S
C122 C123 1.170 . S
C123 C122 1.170 . S
C124 C125 1.170 . S
C124 C126 1.380 . S
C125 C124 1.170 . S
C126 C124 1.380 . S
C126 C127 1.170 . S
C127 C126 1.170 . S
C128 C129 1.170 . S
C128 C130 1.380 . S
C129 C128 1.170 . S
C130 C128 1.380 . S
C130 C131 1.170 . S
C131 C130 1.170 . S
C132 C133 1.170 . S
C132 C134 1.380 . S
C133 C132 1.170 . S
C134 C132 1.380 . S
C134 C135 1.170 . S
C135 C134 1.170 . S
C136 C137 1.170 . S
C136 C138 1.380 . S
C137 C136 1.170 . S
C138 C136 1.380 . S
C138 C139 1.170 . S
C139 C138 1.170 . S
C140 C141 1.170 . S
C140 C142 1.380 . S
C141 C140 1.170 . S
C142 C140 1.380 . S
C142 C143 1.170 . S
C143 C142 1.170 . S
C144 C145 1.170 . S
C144 C146 1.380 . S
C145 C144 1.170 . S
C146 C144 1.380 . S
C146 C147 1.170 . S
C147 C146 1.170 . S
C101 C84 1.932 . S
C103 C34 1.750 . S
C105 C96 1.767 . S
C107 C37 1.925 . S
C109 C45 1.770 . S
C111 C97 1.934 . S
C113 C90 1.766 . S
C115 C44 1.935 . S
C117 C42 1.758 . S
C119 C91 1.937 . S
C121 C43 1.937 . S
C123 C87 1.747 . S
C125 C41 1.213 1_565 S
C127 C40 1.222 . S
C129 C89 1.230 1_655 S
C131 C88 1.208 . S
C133 C38 1.218 1_565 S
C135 C39 1.235 1_455 S
C137 C94 1.238 . S
C139 C95 1.208 1_545 S
C141 C46 1.237 . S
C143 C47 1.214 1_455 S
C145 C93 1.211 1_655 S
C147 C92 1.238 1_545 S
