# Generated by pormake.
# Topology mok, (4)-cn, num edge types: 1
# Building blocks:
#     Node 0, Type 0, BuildingBlock: GALJAG_clean_sbu_0, # of connection points: 4
#     Node 1, Type 0, BuildingBlock: GALJAG_clean_sbu_0, # of connection points: 4
#     Node 2, Type 0, BuildingBlock: GALJAG_clean_sbu_0, # of connection points: 4
#     Node 3, Type 0, BuildingBlock: GALJAG_clean_sbu_0, # of connection points: 4
#     Node 4, Type 0, BuildingBlock: GALJAG_clean_sbu_0, # of connection points: 4
#     Node 5, Type 0, BuildingBlock: GALJAG_clean_sbu_0, # of connection points: 4
#     Node 6, Type 0, BuildingBlock: GALJAG_clean_sbu_0, # of connection points: 4
#     Node 7, Type 0, BuildingBlock: GALJAG_clean_sbu_0, # of connection points: 4
#     Edge 8, Type (0, 0), None
#     Edge 9, Type (0, 0), None
#     Edge 10, Type (0, 0), None
#     Edge 11, Type (0, 0), None
#     Edge 12, Type (0, 0), None
#     Edge 13, Type (0, 0), None
#     Edge 14, Type (0, 0), None
#     Edge 15, Type (0, 0), None
#     Edge 16, Type (0, 0), None
#     Edge 17, Type (0, 0), None
#     Edge 18, Type (0, 0), None
#     Edge 19, Type (0, 0), None
#     Edge 20, Type (0, 0), None
#     Edge 21, Type (0, 0), None
#     Edge 22, Type (0, 0), None
#     Edge 23, Type (0, 0), None
# Relax obj value: 0.070
# Max RMSD: 0.103
# Mean RMSD: 0.103
data_MOF--net-mok--node1-GALJAG_clean_sbu_0--edge1-none
_symmetry_space_group_name_H-M    P1
_symmetry_Int_Tables_number       1
_symmetry_cell_setting            triclinic
loop_
_symmetry_equiv_pos_as_xyz
'x, y, z'
_cell_length_a     24.566946
_cell_length_b     6.2653153
_cell_length_c     12.72341
_cell_angle_alpha  90.0
_cell_angle_beta   90.000001
_cell_angle_gamma 89.985019
loop_
_atom_site_label
_atom_site_type_symbol
_atom_site_fract_x
_atom_site_fract_y
_atom_site_fract_z
_atom_type_partial_charge
In0 In 0.61113 0.31046 0.03187 0.0
O1 O 0.59716 0.5792 0.91471 0.0
O2 O 0.6086 0.26218 0.85584 0.0
C3 C 0.60063 0.45674 0.22802 0.0
C4 C 0.52324 0.06344 0.03187 0.0
C5 C 0.71943 0.25894 0.03184 0.0
O6 O 0.59718 0.57921 0.14904 0.0
O7 O 0.60862 0.26218 0.2079 0.0
O8 O 0.68715 0.10135 0.03185 0.0
O9 O 0.69722 0.44018 0.03183 0.0
C10 C 0.60061 0.45674 0.83573 0.0
O11 O 0.57087 0.98558 0.03187 0.0
O12 O 0.52011 0.26469 0.03188 0.0
In13 In 0.38687 0.68279 0.03187 0.0
O14 O 0.42714 0.00767 0.03187 0.0
O15 O 0.4779 0.72856 0.03188 0.0
C16 C 0.27858 0.7343 0.03184 0.0
C17 C 0.3974 0.53651 0.83573 0.0
C18 C 0.39738 0.53651 0.22802 0.0
O19 O 0.31086 0.8919 0.03185 0.0
O20 O 0.30078 0.55307 0.03183 0.0
O21 O 0.40083 0.41404 0.14904 0.0
O22 O 0.38939 0.73107 0.2079 0.0
C23 C 0.47477 0.92981 0.03187 0.0
O24 O 0.40085 0.41405 0.91471 0.0
O25 O 0.3894 0.73107 0.85584 0.0
In26 In 0.61115 0.68269 0.53188 0.0
O27 O 0.5972 0.41393 0.64902 0.0
O28 O 0.60859 0.73095 0.70791 0.0
C29 C 0.60065 0.53638 0.33574 0.0
C30 C 0.52324 0.92978 0.53187 0.0
C31 C 0.71943 0.73428 0.53191 0.0
O32 O 0.59722 0.41392 0.41472 0.0
O33 O 0.6086 0.73095 0.35585 0.0
O34 O 0.68712 0.89185 0.53189 0.0
O35 O 0.69726 0.55303 0.53191 0.0
C36 C 0.60062 0.53638 0.72801 0.0
O37 O 0.57086 0.0076 0.53188 0.0
O38 O 0.52012 0.72854 0.53187 0.0
In39 In 0.38686 0.31056 0.53188 0.0
O40 O 0.42715 0.98565 0.53188 0.0
O41 O 0.47788 0.26471 0.53187 0.0
C42 C 0.27858 0.25897 0.53191 0.0
C43 C 0.39738 0.45687 0.72801 0.0
C44 C 0.39736 0.45687 0.33574 0.0
O45 O 0.31089 0.1014 0.53189 0.0
O46 O 0.30075 0.44022 0.53191 0.0
O47 O 0.40079 0.57933 0.41472 0.0
O48 O 0.38941 0.2623 0.35585 0.0
C49 C 0.47477 0.06346 0.53187 0.0
O50 O 0.40081 0.57932 0.64902 0.0
O51 O 0.38942 0.2623 0.70791 0.0
In52 In 0.11113 0.81045 0.03187 0.0
O53 O 0.07087 0.48557 0.03187 0.0
O54 O 0.02011 0.76469 0.03188 0.0
C55 C 0.21943 0.75894 0.03184 0.0
C56 C 0.10061 0.95674 0.83573 0.0
C57 C 0.10063 0.95674 0.22802 0.0
O58 O 0.18715 0.60134 0.03185 0.0
O59 O 0.19723 0.94017 0.03183 0.0
O60 O 0.09718 0.07921 0.14904 0.0
O61 O 0.10862 0.76218 0.2079 0.0
C62 C 0.02324 0.56344 0.03187 0.0
O63 O 0.09716 0.0792 0.91471 0.0
O64 O 0.10861 0.76218 0.85584 0.0
In65 In 0.88687 0.18279 0.03187 0.0
O66 O 0.90085 0.91405 0.91471 0.0
O67 O 0.8894 0.23107 0.85584 0.0
C68 C 0.89738 0.03651 0.22802 0.0
C69 C 0.97477 0.42981 0.03187 0.0
C70 C 0.77858 0.23431 0.03184 0.0
O71 O 0.90083 0.91404 0.14904 0.0
O72 O 0.88939 0.23107 0.2079 0.0
O73 O 0.81086 0.39191 0.03185 0.0
O74 O 0.80078 0.05308 0.03183 0.0
C75 C 0.8974 0.03651 0.83573 0.0
O76 O 0.92714 0.50767 0.03187 0.0
O77 O 0.9779 0.22856 0.03188 0.0
In78 In 0.11115 0.18269 0.53188 0.0
O79 O 0.0972 0.91393 0.64902 0.0
O80 O 0.10859 0.23095 0.70791 0.0
C81 C 0.10065 0.03638 0.33574 0.0
C82 C 0.02324 0.42978 0.53187 0.0
C83 C 0.21943 0.23428 0.53191 0.0
O84 O 0.09722 0.91392 0.41472 0.0
O85 O 0.1086 0.23095 0.35585 0.0
O86 O 0.18712 0.39185 0.53189 0.0
O87 O 0.19726 0.05303 0.53191 0.0
C88 C 0.10063 0.03638 0.72801 0.0
O89 O 0.07086 0.5076 0.53188 0.0
O90 O 0.02012 0.22854 0.53187 0.0
In91 In 0.88686 0.81056 0.53188 0.0
O92 O 0.92715 0.48565 0.53188 0.0
O93 O 0.97788 0.76471 0.53187 0.0
C94 C 0.77857 0.75896 0.53191 0.0
C95 C 0.89738 0.95687 0.72801 0.0
C96 C 0.89736 0.95687 0.33574 0.0
O97 O 0.81089 0.60139 0.53189 0.0
O98 O 0.80075 0.94021 0.53191 0.0
O99 O 0.90079 0.07933 0.41472 0.0
O100 O 0.8894 0.7623 0.35585 0.0
C101 C 0.97477 0.56346 0.53187 0.0
O102 O 0.90081 0.07932 0.64902 0.0
O103 O 0.88942 0.7623 0.70791 0.0
loop_
_geom_bond_atom_site_label_1
_geom_bond_atom_site_label_2
_geom_bond_distance
_geom_bond_site_symmetry_2
_ccdc_geom_bond_type
In0 O1 2.294 1_554 S
In0 O2 2.326 1_554 S
In0 O6 2.266 . S
In0 O7 2.326 . S
In0 O8 2.266 . S
In0 O9 2.326 . S
In0 O11 2.289 1_545 S
In0 O12 2.326 . S
O1 In0 2.294 1_556 S
O1 C10 1.240 . S
O2 In0 2.326 1_556 S
O2 C10 1.252 . S
C3 O6 1.252 . S
C3 O7 1.260 . S
C4 O11 1.238 1_545 S
C4 O12 1.252 . S
C5 O8 1.252 . S
C5 O9 1.260 . S
O6 In0 2.266 . S
O6 C3 1.252 . S
O7 In0 2.326 . S
O7 C3 1.260 . S
O8 In0 2.266 . S
O8 C5 1.252 . S
O9 In0 2.326 . S
O9 C5 1.260 . S
C10 O1 1.240 . S
C10 O2 1.252 . S
O11 In0 2.289 1_565 S
O11 C4 1.238 1_565 S
O12 In0 2.326 . S
O12 C4 1.252 . S
In13 O14 2.289 1_565 S
In13 O15 2.326 . S
In13 O19 2.266 . S
In13 O20 2.326 . S
In13 O21 2.266 . S
In13 O22 2.326 . S
In13 O24 2.294 1_554 S
In13 O25 2.326 1_554 S
O14 In13 2.289 1_545 S
O14 C23 1.238 1_545 S
O15 In13 2.326 . S
O15 C23 1.252 . S
C16 O19 1.252 . S
C16 O20 1.260 . S
C17 O24 1.240 . S
C17 O25 1.252 . S
C18 O21 1.252 . S
C18 O22 1.260 . S
O19 In13 2.266 . S
O19 C16 1.252 . S
O20 In13 2.326 . S
O20 C16 1.260 . S
O21 In13 2.266 . S
O21 C18 1.252 . S
O22 In13 2.326 . S
O22 C18 1.260 . S
C23 O14 1.238 1_565 S
C23 O15 1.252 . S
O24 In13 2.294 1_556 S
O24 C17 1.240 . S
O25 In13 2.326 1_556 S
O25 C17 1.252 . S
In26 O27 2.294 . S
In26 O28 2.326 . S
In26 O32 2.266 . S
In26 O33 2.326 . S
In26 O34 2.266 . S
In26 O35 2.326 . S
In26 O37 2.290 1_565 S
In26 O38 2.326 . S
O27 In26 2.294 . S
O27 C36 1.240 . S
O28 In26 2.326 . S
O28 C36 1.252 . S
C29 O32 1.252 . S
C29 O33 1.260 . S
C30 O37 1.238 1_565 S
C30 O38 1.252 . S
C31 O34 1.252 . S
C31 O35 1.260 . S
O32 In26 2.266 . S
O32 C29 1.252 . S
O33 In26 2.326 . S
O33 C29 1.260 . S
O34 In26 2.266 . S
O34 C31 1.252 . S
O35 In26 2.326 . S
O35 C31 1.260 . S
C36 O27 1.240 . S
C36 O28 1.252 . S
O37 In26 2.290 1_545 S
O37 C30 1.238 1_545 S
O38 In26 2.326 . S
O38 C30 1.252 . S
In39 O40 2.290 1_545 S
In39 O41 2.326 . S
In39 O45 2.266 . S
In39 O46 2.326 . S
In39 O47 2.266 . S
In39 O48 2.326 . S
In39 O50 2.294 . S
In39 O51 2.326 . S
O40 In39 2.290 1_565 S
O40 C49 1.238 1_565 S
O41 In39 2.326 . S
O41 C49 1.252 . S
C42 O45 1.252 . S
C42 O46 1.260 . S
C43 O50 1.240 . S
C43 O51 1.252 . S
C44 O47 1.252 . S
C44 O48 1.260 . S
O45 In39 2.266 . S
O45 C42 1.252 . S
O46 In39 2.326 . S
O46 C42 1.260 . S
O47 In39 2.266 . S
O47 C44 1.252 . S
O48 In39 2.326 . S
O48 C44 1.260 . S
C49 O40 1.238 1_545 S
C49 O41 1.252 . S
O50 In39 2.294 . S
O50 C43 1.240 . S
O51 In39 2.326 . S
O51 C43 1.252 . S
In52 O53 2.294 . S
In52 O54 2.326 . S
In52 O58 2.266 . S
In52 O59 2.326 . S
In52 O60 2.266 1_565 S
In52 O61 2.326 . S
In52 O63 2.294 1_564 S
In52 O64 2.326 1_554 S
O53 In52 2.294 . S
O53 C62 1.240 . S
O54 In52 2.326 . S
O54 C62 1.252 . S
C55 O58 1.252 . S
C55 O59 1.260 . S
C56 O63 1.240 1_565 S
C56 O64 1.252 . S
C57 O60 1.252 1_565 S
C57 O61 1.260 . S
O58 In52 2.266 . S
O58 C55 1.252 . S
O59 In52 2.326 . S
O59 C55 1.260 . S
O60 In52 2.266 1_545 S
O60 C57 1.252 1_545 S
O61 In52 2.326 . S
O61 C57 1.260 . S
C62 O53 1.240 . S
C62 O54 1.252 . S
O63 In52 2.294 1_546 S
O63 C56 1.240 1_545 S
O64 In52 2.326 1_556 S
O64 C56 1.252 . S
In65 O66 2.294 1_544 S
In65 O67 2.326 1_554 S
In65 O71 2.266 1_545 S
In65 O72 2.326 . S
In65 O73 2.266 . S
In65 O74 2.326 . S
In65 O76 2.294 . S
In65 O77 2.326 . S
O66 In65 2.294 1_566 S
O66 C75 1.240 1_565 S
O67 In65 2.326 1_556 S
O67 C75 1.252 . S
C68 O71 1.252 1_545 S
C68 O72 1.260 . S
C69 O76 1.240 . S
C69 O77 1.252 . S
C70 O73 1.252 . S
C70 O74 1.260 . S
O71 In65 2.266 1_565 S
O71 C68 1.252 1_565 S
O72 In65 2.326 . S
O72 C68 1.260 . S
O73 In65 2.266 . S
O73 C70 1.252 . S
O74 In65 2.326 . S
O74 C70 1.260 . S
C75 O66 1.240 1_545 S
C75 O67 1.252 . S
O76 In65 2.294 . S
O76 C69 1.240 . S
O77 In65 2.326 . S
O77 C69 1.252 . S
In78 O79 2.294 1_545 S
In78 O80 2.326 . S
In78 O84 2.266 1_545 S
In78 O85 2.326 . S
In78 O86 2.266 . S
In78 O87 2.326 . S
In78 O89 2.294 . S
In78 O90 2.326 . S
O79 In78 2.294 1_565 S
O79 C88 1.240 1_565 S
O80 In78 2.326 . S
O80 C88 1.252 . S
C81 O84 1.252 1_545 S
C81 O85 1.260 . S
C82 O89 1.240 . S
C82 O90 1.252 . S
C83 O86 1.252 . S
C83 O87 1.260 . S
O84 In78 2.266 1_565 S
O84 C81 1.252 1_565 S
O85 In78 2.326 . S
O85 C81 1.260 . S
O86 In78 2.266 . S
O86 C83 1.252 . S
O87 In78 2.326 . S
O87 C83 1.260 . S
C88 O79 1.240 1_545 S
C88 O80 1.252 . S
O89 In78 2.294 . S
O89 C82 1.240 . S
O90 In78 2.326 . S
O90 C82 1.252 . S
In91 O92 2.294 . S
In91 O93 2.326 . S
In91 O97 2.266 . S
In91 O98 2.326 . S
In91 O99 2.266 1_565 S
In91 O100 2.326 . S
In91 O102 2.294 1_565 S
In91 O103 2.326 . S
O92 In91 2.294 . S
O92 C101 1.240 . S
O93 In91 2.326 . S
O93 C101 1.252 . S
C94 O97 1.252 . S
C94 O98 1.260 . S
C95 O102 1.240 1_565 S
C95 O103 1.252 . S
C96 O99 1.252 1_565 S
C96 O100 1.260 . S
O97 In91 2.266 . S
O97 C94 1.252 . S
O98 In91 2.326 . S
O98 C94 1.260 . S
O99 In91 2.266 1_545 S
O99 C96 1.252 1_545 S
O100 In91 2.326 . S
O100 C96 1.260 . S
C101 O92 1.240 . S
C101 O93 1.252 . S
O102 In91 2.294 1_545 S
O102 C95 1.240 1_545 S
O103 In91 2.326 . S
O103 C95 1.252 . S
C70 C5 1.529 . S
C55 C16 1.529 . S
C94 C31 1.529 . S
C83 C42 1.529 . S
C3 C29 1.453 . S
C18 C44 1.453 . S
C17 C43 1.512 . S
C10 C36 1.512 . S
C57 C81 1.453 1_565 S
C96 C68 1.453 1_565 S
C95 C75 1.512 1_565 S
C56 C88 1.512 1_565 S
C23 C4 1.535 1_565 S
C30 C49 1.535 1_565 S
C62 C69 1.535 1_455 S
C82 C101 1.535 1_455 S
