# Generated by pormake.
# Topology bsn, (6)-cn, num edge types: 1
# Building blocks:
#     Node 0, Type 0, BuildingBlock: UKALOJ_clean_sbu_0, # of connection points: 6
#     Node 1, Type 0, BuildingBlock: UKALOJ_clean_sbu_0, # of connection points: 6
#     Node 2, Type 0, BuildingBlock: UKALOJ_clean_sbu_0, # of connection points: 6
#     Node 3, Type 0, BuildingBlock: UKALOJ_clean_sbu_0, # of connection points: 6
#     Edge 4, Type (0, 0), None
#     Edge 5, Type (0, 0), None
#     Edge 6, Type (0, 0), None
#     Edge 7, Type (0, 0), None
#     Edge 8, Type (0, 0), None
#     Edge 9, Type (0, 0), None
#     Edge 10, Type (0, 0), None
#     Edge 11, Type (0, 0), None
#     Edge 12, Type (0, 0), None
#     Edge 13, Type (0, 0), None
#     Edge 14, Type (0, 0), None
#     Edge 15, Type (0, 0), None
# Relax obj value: 0.346
# Max RMSD: 0.162
# Mean RMSD: 0.134
data_MOF--net-bsn--node1-UKALOJ_clean_sbu_0--edge1-none
_symmetry_space_group_name_H-M    P1
_symmetry_Int_Tables_number       1
_symmetry_cell_setting            triclinic
loop_
_symmetry_equiv_pos_as_xyz
'x, y, z'
_cell_length_a     14.4879
_cell_length_b     19.538175
_cell_length_c     6.8974747
_cell_angle_alpha  90.61889
_cell_angle_beta   91.45556
_cell_angle_gamma 90.994077
loop_
_atom_site_label
_atom_site_type_symbol
_atom_site_fract_x
_atom_site_fract_y
_atom_site_fract_z
_atom_type_partial_charge
Zn0 Zn 0.07674 0.38242 0.32805 0.0
O1 O 0.92331 0.38482 0.33056 0.0
C2 C 0.07631 0.32222 0.73055 0.0
Zn3 Zn 0.07505 0.26237 0.32628 0.0
C4 C 0.87741 0.32796 0.33466 0.0
O5 O 0.92193 0.27183 0.32652 0.0
C6 C 0.27238 0.3178 0.34328 0.0
O7 O 0.07486 0.26614 0.01501 0.0
O8 O 0.0755 0.37924 0.01703 0.0
N9 N 1.05993 0.15126 0.31077 0.0
C10 C 0.11161 0.09534 0.26688 0.0
C11 C 0.9745 1.05871 0.30768 0.0
N12 N 0.97511 0.12713 0.33515 0.0
N13 N 1.05914 1.03622 0.26443 0.0
C14 C 1.05552 0.54909 0.25474 0.0
C15 C 0.18823 0.5827 0.35852 0.0
N16 N 0.09866 0.49257 0.32478 0.0
N17 N 0.18109 0.51471 0.38819 0.0
N18 N 0.11034 0.60664 0.27484 0.0
H19 H 0.94416 0.49328 0.11 0.0
H20 H 0.96309 0.57993 0.02517 0.0
H21 H 0.91227 0.56584 0.25666 0.0
C22 C 0.96334 0.54648 0.1542 0.0
C23 C 0.21122 0.09993 0.21493 0.0
H24 H 0.2261 0.14943 0.14425 0.0
H25 H 0.2297 1.05771 0.11535 0.0
H26 H 0.25475 0.09683 0.34915 0.0
O27 O 0.22726 0.26079 0.33783 0.0
O28 O 0.22747 0.37338 0.33546 0.0
C29 C 0.07554 0.32255 0.92378 0.0
O30 O 0.07796 0.37889 0.63959 0.0
O31 O 0.07536 0.26527 0.63742 0.0
Zn32 Zn 1.01415 0.80965 0.21107 0.0
O33 O 1.01608 0.69775 0.19703 0.0
C34 C 0.09 0.82164 0.62613 0.0
Zn35 Zn 0.16229 0.83269 0.23028 0.0
C36 C 0.09567 0.67489 0.23578 0.0
O37 O 0.16203 0.71849 0.25269 0.0
C38 C 0.07858 0.96778 0.23527 0.0
O39 O 0.16166 0.82952 0.9193 0.0
O40 O 1.01139 0.81201 0.90259 0.0
N41 N 0.30078 0.82965 0.23645 0.0
C42 C 0.33961 0.84887 0.40721 0.0
C43 C 0.37721 0.7456 0.35525 0.0
N44 N 0.32881 0.76683 0.19899 0.0
N45 N 0.38105 0.79526 0.49225 0.0
C46 C 0.8453 0.78721 0.38866 0.0
C47 C 0.80959 0.89203 0.36685 0.0
N48 N 0.87477 0.80932 0.21686 0.0
N49 N 0.84577 0.87285 0.19749 0.0
N50 N 0.81286 0.83987 0.49277 0.0
H51 H 0.87367 0.67993 0.33972 0.0
H52 H 0.78413 0.69523 0.50224 0.0
H53 H 0.90077 0.71125 0.58335 0.0
C54 C 0.85242 0.71443 0.45663 0.0
C55 C 0.33907 0.92113 0.48454 0.0
H56 H 0.41086 0.93997 0.51189 0.0
H57 H 0.30198 0.923 0.62312 0.0
H58 H 0.30755 0.95639 0.3791 0.0
O59 O 0.16029 0.94575 0.22226 0.0
O60 O 1.01298 0.92333 0.23156 0.0
C61 C 0.08761 0.82103 0.81856 0.0
O62 O 1.01823 0.80773 0.52496 0.0
O63 O 0.16384 0.83612 0.54145 0.0
Zn64 Zn 0.59572 0.87073 0.73798 0.0
O65 O 0.45679 0.85007 0.73556 0.0
C66 C 0.60525 0.81622 0.13754 0.0
Zn67 Zn 0.61687 0.76086 0.72904 0.0
C68 C 0.43097 0.79361 0.66006 0.0
O69 O 0.47793 0.7409 0.69464 0.0
C70 C 0.77907 0.83977 0.67361 0.0
O71 O 0.62021 0.76025 0.42002 0.0
O72 O 0.59147 0.87046 0.4255 0.0
N73 N 0.63979 0.65963 0.73705 0.0
C74 C 0.6676 0.63042 0.90334 0.0
C75 C 0.56357 0.56609 0.77552 0.0
N76 N 0.57753 0.61811 0.65312 0.0
N77 N 0.61763 0.57365 0.93708 0.0
C78 C 0.53461 0.99522 0.91204 0.0
C79 C 0.65714 1.05463 0.86332 0.0
N80 N 0.57259 0.97076 0.75008 0.0
N81 N 0.64644 1.00944 0.71588 0.0
N82 N 0.58922 1.04438 -0.01114 0.0
H83 H 0.3887 0.97588 0.8926 0.0
H84 H 0.43064 0.99927 0.13297 0.0
H85 H 0.4488 0.91545 0.03842 0.0
C86 C 0.44628 0.97003 -0.00041 0.0
C87 C 0.7393 0.65955 0.04127 0.0
H88 H 0.77088 0.70756 -0.00686 0.0
H89 H 0.79557 0.62233 0.05565 0.0
H90 H 0.70845 0.66827 0.18433 0.0
O91 O 0.75662 0.78271 0.74372 0.0
O92 O 0.73524 0.89165 0.72642 0.0
C93 C 0.60513 0.81554 0.33015 0.0
O94 O 0.60282 0.87203 0.04821 0.0
O95 O 0.60841 0.76116 0.04073 0.0
Zn96 Zn 0.5749 0.2696 0.36451 0.0
O97 O 0.57758 0.26814 0.66839 0.0
C98 C 0.37619 0.32051 0.3576 0.0
Zn99 Zn 0.57295 0.38096 0.36194 0.0
C100 C 0.57576 0.32519 0.758 0.0
O101 O 0.57474 0.38092 0.66571 0.0
C102 C 0.57406 0.32685 -0.03285 0.0
O103 O 0.72672 0.38092 0.35743 0.0
O104 O 0.72806 0.26983 0.3588 0.0
N105 N 0.56745 0.48373 0.3598 0.0
C106 C 0.6292 0.51612 0.25047 0.0
C107 C 0.49608 0.5507 0.16413 0.0
N108 N 0.48496 0.50707 0.31093 0.0
N109 N 0.58611 0.55649 0.12183 0.0
C110 C 0.53409 0.1311 0.20012 0.0
C111 C 0.652 0.07761 0.30429 0.0
N112 N 0.57408 0.16875 0.34471 0.0
N113 N 0.646 0.13481 0.41283 0.0
N114 N 0.58246 0.0747 0.17144 0.0
H115 H 0.4321 0.20424 0.08733 0.0
H116 H 0.40207 0.11584 0.05714 0.0
H117 H 0.48745 0.15351 0.90904 0.0
C118 C 0.46006 0.15353 0.05791 0.0
C119 C 0.72938 0.5216 0.30569 0.0
H120 H 0.74464 0.49537 0.44402 0.0
H121 H 0.7489 0.57527 0.33772 0.0
H122 H 0.77111 0.50156 0.18583 0.0
O123 O 0.57098 0.38321 0.05737 0.0
O124 O 0.57547 0.27168 0.05979 0.0
C125 C 0.77308 0.32625 0.35097 0.0
O126 O 0.42293 0.26631 0.36939 0.0
O127 O 0.42036 0.37736 0.35597 0.0
loop_
_geom_bond_atom_site_label_1
_geom_bond_atom_site_label_2
_geom_bond_distance
_geom_bond_site_symmetry_2
_ccdc_geom_bond_type
Zn0 O1 2.055 1_455 S
Zn0 O8 2.046 . S
Zn0 N16 2.036 . S
Zn0 O28 2.053 . S
Zn0 O30 2.066 . S
O1 Zn0 2.055 1_655 S
O1 C4 1.259 . S
C2 O30 1.256 . S
C2 O31 1.244 . S
Zn3 O5 2.046 1_455 S
Zn3 O7 2.055 . S
Zn3 N9 2.036 . S
Zn3 O27 2.066 . S
Zn3 O31 2.053 . S
C4 O1 1.259 . S
C4 O5 1.254 . S
O5 Zn3 2.046 1_655 S
O5 C4 1.254 . S
C6 O27 1.256 . S
C6 O28 1.244 . S
O7 Zn3 2.055 . S
O7 C29 1.259 1_554 S
O8 Zn0 2.046 . S
O8 C29 1.254 1_554 S
N9 Zn3 2.036 . S
N9 C10 1.298 . S
N9 N12 1.394 1_455 S
C10 N9 1.298 . S
C10 N13 1.367 1_545 S
C10 C23 1.481 . S
C11 N12 1.296 1_455 S
C11 N13 1.379 1_545 S
N12 N9 1.394 1_655 S
N12 C11 1.296 1_655 S
N13 C10 1.367 1_565 S
N13 C11 1.379 1_565 S
C14 N16 1.298 . S
C14 N18 1.367 . S
C14 C22 1.481 1_455 S
C15 N17 1.299 . S
C15 N18 1.379 . S
N16 Zn0 2.036 . S
N16 C14 1.298 . S
N16 N17 1.398 . S
N17 C15 1.299 . S
N17 N16 1.398 . S
N18 C14 1.367 . S
N18 C15 1.379 . S
H19 C22 0.980 . S
H20 C22 0.981 . S
H21 C22 0.981 . S
C22 C14 1.481 1_655 S
C22 H19 0.980 . S
C22 H20 0.981 . S
C22 H21 0.981 . S
C23 C10 1.481 . S
C23 H24 0.980 . S
C23 H25 0.981 1_554 S
C23 H26 0.981 . S
H24 C23 0.980 . S
H25 C23 0.981 1_556 S
H26 C23 0.981 . S
O27 Zn3 2.066 . S
O27 C6 1.256 . S
O28 Zn0 2.053 . S
O28 C6 1.244 . S
C29 O7 1.259 1_556 S
C29 O8 1.254 1_556 S
O30 Zn0 2.066 . S
O30 C2 1.256 . S
O31 C2 1.244 . S
O31 Zn3 2.053 . S
Zn32 O33 2.055 . S
Zn32 O40 2.046 . S
Zn32 N48 2.036 . S
Zn32 O60 2.053 . S
Zn32 O62 2.066 . S
O33 Zn32 2.055 . S
O33 C36 1.259 1_655 S
C34 O62 1.256 1_455 S
C34 O63 1.244 . S
Zn35 O37 2.046 . S
Zn35 O39 2.055 . S
Zn35 N41 2.036 . S
Zn35 O59 2.066 . S
Zn35 O63 2.053 . S
C36 O33 1.259 1_455 S
C36 O37 1.254 . S
O37 Zn35 2.046 . S
O37 C36 1.254 . S
C38 O59 1.256 . S
C38 O60 1.244 1_455 S
O39 Zn35 2.055 . S
O39 C61 1.259 . S
O40 Zn32 2.046 . S
O40 C61 1.254 1_655 S
N41 Zn35 2.036 . S
N41 C42 1.298 . S
N41 N44 1.398 . S
C42 N41 1.298 . S
C42 N45 1.367 . S
C42 C55 1.481 . S
C43 N44 1.299 . S
C43 N45 1.379 . S
N44 N41 1.398 . S
N44 C43 1.299 . S
N45 C42 1.367 . S
N45 C43 1.379 . S
C46 N48 1.298 . S
C46 N50 1.367 . S
C46 C54 1.481 . S
C47 N49 1.299 . S
C47 N50 1.379 . S
N48 Zn32 2.036 . S
N48 C46 1.298 . S
N48 N49 1.398 . S
N49 C47 1.299 . S
N49 N48 1.398 . S
N50 C46 1.367 . S
N50 C47 1.379 . S
H51 C54 0.980 . S
H52 C54 0.981 . S
H53 C54 0.981 . S
C54 C46 1.481 . S
C54 H51 0.980 . S
C54 H52 0.981 . S
C54 H53 0.981 . S
C55 C42 1.481 . S
C55 H56 0.980 . S
C55 H57 0.981 . S
C55 H58 0.981 . S
H56 C55 0.980 . S
H57 C55 0.981 . S
H58 C55 0.981 . S
O59 Zn35 2.066 . S
O59 C38 1.256 . S
O60 Zn32 2.053 . S
O60 C38 1.244 1_655 S
C61 O39 1.259 . S
C61 O40 1.254 1_455 S
O62 Zn32 2.066 . S
O62 C34 1.256 1_655 S
O63 C34 1.244 . S
O63 Zn35 2.053 . S
Zn64 O65 2.055 . S
Zn64 O72 2.046 . S
Zn64 N80 2.036 . S
Zn64 O92 2.053 . S
Zn64 O94 2.066 1_556 S
O65 Zn64 2.055 . S
O65 C68 1.259 . S
C66 O94 1.256 . S
C66 O95 1.244 . S
Zn67 O69 2.046 . S
Zn67 O71 2.055 . S
Zn67 N73 2.036 . S
Zn67 O91 2.066 . S
Zn67 O95 2.053 1_556 S
C68 O65 1.259 . S
C68 O69 1.254 . S
O69 Zn67 2.046 . S
O69 C68 1.254 . S
C70 O91 1.256 . S
C70 O92 1.244 . S
O71 Zn67 2.055 . S
O71 C93 1.259 . S
O72 Zn64 2.046 . S
O72 C93 1.254 . S
N73 Zn67 2.036 . S
N73 C74 1.298 . S
N73 N76 1.398 1_556 S
C74 N73 1.298 . S
C74 N77 1.367 . S
C74 C87 1.481 . S
C75 N76 1.299 . S
C75 N77 1.379 1_554 S
N76 N73 1.398 1_554 S
N76 C75 1.299 . S
N77 C74 1.367 . S
N77 C75 1.379 1_556 S
C78 N80 1.298 . S
C78 N82 1.367 1_565 S
C78 C86 1.481 . S
C79 N81 1.299 . S
C79 N82 1.379 1_565 S
N80 Zn64 2.036 . S
N80 C78 1.298 . S
N80 N81 1.398 . S
N81 C79 1.299 . S
N81 N80 1.398 . S
N82 C78 1.367 1_545 S
N82 C79 1.379 1_545 S
H83 C86 0.980 . S
H84 C86 0.981 . S
H85 C86 0.981 1_554 S
C86 C78 1.481 . S
C86 H83 0.980 . S
C86 H84 0.981 . S
C86 H85 0.981 1_556 S
C87 C74 1.481 . S
C87 H88 0.980 . S
C87 H89 0.981 . S
C87 H90 0.981 . S
H88 C87 0.980 . S
H89 C87 0.981 . S
H90 C87 0.981 . S
O91 Zn67 2.066 . S
O91 C70 1.256 . S
O92 Zn64 2.053 . S
O92 C70 1.244 . S
C93 O71 1.259 . S
C93 O72 1.254 . S
O94 Zn64 2.066 1_554 S
O94 C66 1.256 . S
O95 C66 1.244 . S
O95 Zn67 2.053 1_554 S
Zn96 O97 2.055 . S
Zn96 O104 2.046 . S
Zn96 N112 2.036 . S
Zn96 O124 2.053 1_554 S
Zn96 O126 2.066 . S
O97 Zn96 2.055 . S
O97 C100 1.259 . S
C98 O126 1.256 . S
C98 O127 1.244 . S
Zn99 O101 2.046 . S
Zn99 O103 2.055 . S
Zn99 N105 2.036 . S
Zn99 O123 2.066 1_554 S
Zn99 O127 2.053 . S
C100 O97 1.259 . S
C100 O101 1.254 . S
O101 Zn99 2.046 . S
O101 C100 1.254 . S
C102 O123 1.256 . S
C102 O124 1.244 . S
O103 Zn99 2.055 . S
O103 C125 1.259 . S
O104 Zn96 2.046 . S
O104 C125 1.254 . S
N105 Zn99 2.036 . S
N105 C106 1.298 . S
N105 N108 1.398 . S
C106 N105 1.298 . S
C106 N109 1.367 . S
C106 C119 1.481 . S
C107 N108 1.299 . S
C107 N109 1.379 . S
N108 N105 1.398 . S
N108 C107 1.299 . S
N109 C106 1.367 . S
N109 C107 1.379 . S
C110 N112 1.298 . S
C110 N114 1.362 1_545 S
C110 C118 1.481 . S
C111 N113 1.299 . S
C111 N114 1.378 1_545 S
N112 Zn96 2.036 . S
N112 C110 1.298 . S
N112 N113 1.398 . S
N113 C111 1.299 . S
N113 N112 1.398 . S
N114 C110 1.362 1_565 S
N114 C111 1.378 1_565 S
H115 C118 0.980 . S
H116 C118 0.981 . S
H117 C118 0.981 . S
C118 C110 1.481 . S
C118 H115 0.980 . S
C118 H116 0.981 . S
C118 H117 0.981 . S
C119 C106 1.481 . S
C119 H120 0.980 . S
C119 H121 0.981 . S
C119 H122 0.981 1_554 S
H120 C119 0.980 . S
H121 C119 0.981 . S
H122 C119 0.981 1_556 S
O123 Zn99 2.066 1_556 S
O123 C102 1.256 . S
O124 Zn96 2.053 1_556 S
O124 C102 1.244 . S
C125 O103 1.259 . S
C125 O104 1.254 . S
O126 Zn96 2.066 . S
O126 C98 1.256 . S
O127 C98 1.244 . S
O127 Zn99 2.053 . S
N18 C36 3.000 . S
C70 N50 1.728 . S
N109 N77 1.836 1_554 S
C4 C125 2.780 . S
C98 C6 3.581 . S
C68 N45 1.233 . S
N82 N114 1.884 1_546 S
C38 N13 3.221 . S
C29 C2 1.126 . S
C34 C61 1.119 1_556 S
C66 C93 1.123 . S
C100 C102 1.134 . S
