# Generated by pormake.
# Topology ure, (4)-cn, num edge types: 1
# Building blocks:
#     Node 0, Type 0, BuildingBlock: GALJAG_clean_sbu_0, # of connection points: 4
#     Node 1, Type 0, BuildingBlock: GALJAG_clean_sbu_0, # of connection points: 4
#     Node 2, Type 0, BuildingBlock: GALJAG_clean_sbu_0, # of connection points: 4
#     Node 3, Type 0, BuildingBlock: GALJAG_clean_sbu_0, # of connection points: 4
#     Node 4, Type 0, BuildingBlock: GALJAG_clean_sbu_0, # of connection points: 4
#     Node 5, Type 0, BuildingBlock: GALJAG_clean_sbu_0, # of connection points: 4
#     Node 6, Type 0, BuildingBlock: GALJAG_clean_sbu_0, # of connection points: 4
#     Node 7, Type 0, BuildingBlock: GALJAG_clean_sbu_0, # of connection points: 4
#     Node 8, Type 0, BuildingBlock: GALJAG_clean_sbu_0, # of connection points: 4
#     Node 9, Type 0, BuildingBlock: GALJAG_clean_sbu_0, # of connection points: 4
#     Node 10, Type 0, BuildingBlock: GALJAG_clean_sbu_0, # of connection points: 4
#     Node 11, Type 0, BuildingBlock: GALJAG_clean_sbu_0, # of connection points: 4
#     Node 12, Type 0, BuildingBlock: GALJAG_clean_sbu_0, # of connection points: 4
#     Node 13, Type 0, BuildingBlock: GALJAG_clean_sbu_0, # of connection points: 4
#     Node 14, Type 0, BuildingBlock: GALJAG_clean_sbu_0, # of connection points: 4
#     Node 15, Type 0, BuildingBlock: GALJAG_clean_sbu_0, # of connection points: 4
#     Edge 16, Type (0, 0), None
#     Edge 17, Type (0, 0), None
#     Edge 18, Type (0, 0), None
#     Edge 19, Type (0, 0), None
#     Edge 20, Type (0, 0), None
#     Edge 21, Type (0, 0), None
#     Edge 22, Type (0, 0), None
#     Edge 23, Type (0, 0), None
#     Edge 24, Type (0, 0), None
#     Edge 25, Type (0, 0), None
#     Edge 26, Type (0, 0), None
#     Edge 27, Type (0, 0), None
#     Edge 28, Type (0, 0), None
#     Edge 29, Type (0, 0), None
#     Edge 30, Type (0, 0), None
#     Edge 31, Type (0, 0), None
#     Edge 32, Type (0, 0), None
#     Edge 33, Type (0, 0), None
#     Edge 34, Type (0, 0), None
#     Edge 35, Type (0, 0), None
#     Edge 36, Type (0, 0), None
#     Edge 37, Type (0, 0), None
#     Edge 38, Type (0, 0), None
#     Edge 39, Type (0, 0), None
#     Edge 40, Type (0, 0), None
#     Edge 41, Type (0, 0), None
#     Edge 42, Type (0, 0), None
#     Edge 43, Type (0, 0), None
#     Edge 44, Type (0, 0), None
#     Edge 45, Type (0, 0), None
#     Edge 46, Type (0, 0), None
#     Edge 47, Type (0, 0), None
# Relax obj value: 0.289
# Max RMSD: 0.221
# Mean RMSD: 0.173
data_MOF--net-ure--node1-GALJAG_clean_sbu_0--edge1-none
_symmetry_space_group_name_H-M    P1
_symmetry_Int_Tables_number       1
_symmetry_cell_setting            triclinic
loop_
_symmetry_equiv_pos_as_xyz
'x, y, z'
_cell_length_a     14.051583
_cell_length_b     14.403185
_cell_length_c     14.47495
_cell_angle_alpha  90.604005
_cell_angle_beta   90.736056
_cell_angle_gamma 91.160547
loop_
_atom_site_label
_atom_site_type_symbol
_atom_site_fract_x
_atom_site_fract_y
_atom_site_fract_z
_atom_type_partial_charge
In0 In 0.24784 0.27979 0.25152 0.0
O1 O 0.11612 0.18442 0.22686 0.0
O2 O 0.20897 0.20747 0.1147 0.0
C3 C 0.23538 0.26314 0.43521 0.0
C4 C 0.43506 0.2484 0.2306 0.0
C5 C 0.22287 0.46459 0.2298 0.0
O6 O 0.24327 0.19166 0.38466 0.0
O7 O 0.23141 0.33872 0.39283 0.0
O8 O 0.30051 0.4236 0.22597 0.0
O9 O 0.15123 0.41156 0.24065 0.0
C10 C 0.13519 0.16705 0.14378 0.0
O11 O 0.38587 0.28118 0.16574 0.0
O12 O 0.38864 0.22529 0.30067 0.0
In13 In -0.02704 0.02779 0.51006 0.0
O14 O 0.03656 0.08472 0.64539 0.0
O15 O -0.0071 0.94319 0.64107 0.0
C16 C -0.02315 0.21353 0.46656 0.0
C17 C 0.07698 0.91411 0.39902 0.0
C18 C 0.78458 0.97734 0.51522 0.0
O19 O 0.90706 0.16974 0.49805 0.0
O20 O 0.04751 0.16285 0.45232 0.0
O21 O 0.8366 0.95665 0.44811 0.0
O22 O 0.82838 0.02023 0.57889 0.0
C23 C 0.02374 0.01086 0.68943 0.0
O24 O 0.00202 0.95272 0.3713 0.0
O25 O 0.1011 0.9346 0.48122 0.0
In26 In 0.22455 0.74833 0.75729 0.0
O27 O 0.08692 0.76204 0.66683 0.0
O28 O 0.07824 0.75235 0.81283 0.0
C29 C 0.25119 0.56413 0.74811 0.0
C30 C 0.32844 0.85636 0.64246 0.0
C31 C 0.25667 0.78416 0.93826 0.0
O32 O 0.17147 0.60168 0.74838 0.0
O33 O 0.32192 0.61967 0.7474 0.0
O34 O 0.20934 0.83967 0.88993 0.0
O35 O 0.2938 0.71943 0.89323 0.0
C36 C 0.03462 0.75736 0.73706 0.0
O37 O 0.30737 0.88153 0.72318 0.0
O38 O 0.29575 0.77763 0.61822 0.0
In39 In 0.48991 0.00882 0.00477 0.0
O40 O 0.46168 0.14227 0.92598 0.0
O41 O 0.35604 0.03532 0.9168 0.0
C42 C 0.47529 0.82131 -0.00925 0.0
C43 C 0.67683 0.03377 0.97232 0.0
C44 C 0.47135 0.03282 0.18876 0.0
O45 O 0.49116 0.87017 0.92046 0.0
O46 O 0.46149 0.86702 0.06336 0.0
O47 O 0.54845 0.03633 0.1462 0.0
O48 O 0.39793 0.02338 0.13779 0.0
C49 C 0.3834 0.11477 0.8916 0.0
O50 O 0.62595 0.9688 0.93868 0.0
O51 O 0.6321 0.09295 0.01847 0.0
In52 In 0.25014 0.75335 0.22596 0.0
O53 O 0.15237 0.61882 0.23424 0.0
O54 O 0.30268 0.60884 0.22678 0.0
C55 C 0.25369 0.77988 0.03963 0.0
C56 C 0.13407 0.85264 0.3395 0.0
C57 C 0.43356 0.78824 0.27517 0.0
O58 O 0.26188 0.70336 0.07868 0.0
O59 O 0.23978 0.84711 0.09407 0.0
O60 O 0.38421 0.84296 0.22804 0.0
O61 O 0.38815 0.71888 0.30502 0.0
C62 C 0.22378 0.56666 0.229 0.0
O63 O 0.21148 0.81864 0.36648 0.0
O64 O 0.11183 0.83275 0.2567 0.0
In65 In 0.49783 0.02453 0.47542 0.0
O66 O 0.42134 0.99172 0.60925 0.0
O67 O 0.41067 0.89035 0.50169 0.0
C68 C 0.48716 0.20978 0.50644 0.0
C69 C 0.67954 0.97478 0.51106 0.0
C70 C 0.47359 0.03018 0.29006 0.0
O71 O 0.41372 0.15828 0.50284 0.0
O72 O 0.56288 0.16748 0.49495 0.0
O73 O 0.55246 0.0295 0.33156 0.0
O74 O 0.402 0.02439 0.34181 0.0
C75 C 0.388 0.91415 0.58256 0.0
O76 O 0.63212 0.94012 0.44423 0.0
O77 O 0.63204 0.02545 0.56393 0.0
In78 In 0.22251 0.28251 0.72051 0.0
O79 O 0.35724 0.25081 0.80288 0.0
O80 O 0.24839 0.14612 0.79557 0.0
C81 C 0.23243 0.26346 0.53602 0.0
C82 C 0.03464 0.2702 0.74392 0.0
C83 C 0.256 0.46318 0.75213 0.0
O84 O 0.22609 0.33937 0.57836 0.0
O85 O 0.23894 0.19296 0.58694 0.0
O86 O 0.18752 0.4176 0.78535 0.0
O87 O 0.31636 0.41567 0.70967 0.0
C88 C 0.32846 0.17167 0.82794 0.0
O89 O 0.08981 0.27204 0.81349 0.0
O90 O 0.07448 0.27003 0.66695 0.0
In91 In -0.03045 0.99514 0.97041 0.0
O92 O 0.83891 0.08648 0.00608 0.0
O93 O 0.8184 0.95964 0.9327 0.0
C94 C 0.01989 0.00976 0.79055 0.0
C95 C 0.07671 0.10492 0.08452 0.0
C96 C -0.01821 0.8156 0.02304 0.0
O97 O -0.01079 0.0772 0.83656 0.0
O98 O 0.02742 0.93641 0.83566 0.0
O99 O 0.05422 0.8685 0.0186 0.0
O100 O 0.90462 0.85463 0.0065 0.0
C101 C 0.78084 0.02933 0.96823 0.0
O102 O 0.0042 0.06083 0.11266 0.0
O103 O 0.09582 0.09212 0.00063 0.0
In104 In 0.74475 0.25054 0.72587 0.0
O105 O 0.73314 0.3679 0.83336 0.0
O106 O 0.60471 0.3047 0.78311 0.0
C107 C 0.93161 0.27269 0.7471 0.0
C108 C 0.72254 0.06582 0.7534 0.0
C109 C 0.73218 0.26862 0.53972 0.0
O110 O 0.88223 0.24383 0.81371 0.0
O111 O 0.88587 0.29598 0.67615 0.0
O112 O 0.73169 0.19352 0.58258 0.0
O113 O 0.73242 0.34011 0.59106 0.0
C114 C 0.64376 0.36497 0.83574 0.0
O115 O 0.65136 0.11495 0.73501 0.0
O116 O 0.79911 0.11081 0.76588 0.0
In117 In 0.00263 0.5327 0.97775 0.0
O118 O 0.15138 0.56418 0.93331 0.0
O119 O 0.13607 0.45672 0.03146 0.0
C120 C -0.03553 0.51063 0.79324 0.0
C121 C 0.8977 0.42085 0.09043 0.0
C122 C -0.01296 0.71405 0.02336 0.0
O123 O 0.01274 0.45571 0.84085 0.0
O124 O 0.92797 0.57482 0.83974 0.0
O125 O 0.91832 0.6634 -0.00469 0.0
O126 O 0.06385 0.67209 0.03348 0.0
C127 C 0.19143 0.5049 0.98235 0.0
O128 O -0.05103 0.48726 0.12135 0.0
O129 O 0.89853 0.41137 0.00381 0.0
In130 In 0.72374 0.78826 0.22227 0.0
O131 O 0.76195 0.64637 0.28475 0.0
O132 O 0.84766 0.76283 0.32577 0.0
C133 C 0.70896 0.74697 0.03837 0.0
C134 C 0.53795 0.7931 0.27354 0.0
C135 C 0.79391 0.96413 0.23426 0.0
O136 O 0.76559 0.70469 0.09063 0.0
O137 O 0.66171 0.80711 0.07909 0.0
O138 O 0.74292 0.92632 0.2946 0.0
O139 O 0.81526 0.91076 0.16835 0.0
C140 C 0.83115 0.6767 0.33359 0.0
O141 O 0.58079 0.85806 0.23409 0.0
O142 O 0.58977 0.72527 0.29138 0.0
In143 In -0.00347 0.50293 0.5042 0.0
O144 O 0.14053 0.55794 0.55936 0.0
O145 O 0.13038 0.52033 0.41771 0.0
C146 C -0.0334 0.5071 0.69106 0.0
C147 C 0.88815 0.61617 0.39461 0.0
C148 C -0.02101 0.31666 0.46517 0.0
O149 O 0.02328 0.45494 0.6505 0.0
O150 O 0.92201 0.56017 0.63749 0.0
O151 O 0.0498 0.36465 0.44083 0.0
O152 O 0.91505 0.36377 0.50244 0.0
C153 C 0.18308 0.54756 0.48419 0.0
O154 O 0.8724 0.52997 0.40133 0.0
O155 O -0.04303 0.64613 0.444 0.0
In156 In 0.48359 0.53223 0.0098 0.0
O157 O 0.50016 0.41824 0.90121 0.0
O158 O 0.62659 0.48749 0.94828 0.0
C159 C 0.29518 0.50218 0.98694 0.0
C160 C 0.52707 0.4988 0.18798 0.0
C161 C 0.47921 0.71938 -0.00673 0.0
O162 O 0.34504 0.55185 0.93491 0.0
O163 O 0.34105 0.46209 0.0494 0.0
O164 O 0.46442 0.67692 0.0673 0.0
O165 O 0.50042 0.66801 0.92554 0.0
C166 C 0.58909 0.42558 0.89634 0.0
O167 O 0.56203 0.56833 0.14726 0.0
O168 O 0.47833 0.44436 0.13694 0.0
In169 In 0.74255 0.77705 0.7568 0.0
O170 O 0.88907 0.76433 0.81282 0.0
O171 O 0.87767 0.76455 0.66611 0.0
C172 C 0.72341 0.96374 0.75042 0.0
C173 C 0.64088 0.66397 0.63996 0.0
C174 C 0.70927 0.74229 0.93673 0.0
O175 O 0.80129 0.92269 0.74596 0.0
O176 O 0.65086 0.91064 0.75325 0.0
O177 O 0.76596 0.69419 0.89094 0.0
O178 O 0.66391 0.79962 0.88935 0.0
C179 C 0.93108 0.76147 0.73696 0.0
O180 O 0.67606 0.63609 0.71481 0.0
O181 O 0.65705 0.74837 0.62319 0.0
In182 In 0.73243 0.24164 0.25363 0.0
O183 O 0.58223 0.21974 0.30293 0.0
O184 O 0.59321 0.27438 0.16932 0.0
C185 C 0.79341 0.06534 0.22556 0.0
C186 C 0.84111 0.35858 0.14958 0.0
C187 C 0.7367 0.26677 0.438 0.0
O188 O 0.72728 0.1019 0.18073 0.0
O189 O 0.83396 0.11956 0.28318 0.0
O190 O 0.73062 0.33647 0.38544 0.0
O191 O 0.74566 0.18987 0.39706 0.0
C192 C 0.53932 0.246 0.23228 0.0
O193 O 0.83754 0.36656 0.23644 0.0
O194 O 0.79161 0.29237 0.11622 0.0
In195 In 0.47171 0.49339 0.46865 0.0
O196 O 0.56926 0.51837 0.59435 0.0
O197 O 0.54176 0.63323 0.50725 0.0
C198 C 0.48527 0.31157 0.50686 0.0
C199 C 0.28724 0.5451 0.47939 0.0
C200 C 0.52201 0.49192 0.28878 0.0
O201 O 0.41135 0.35642 0.52234 0.0
O202 O 0.55436 0.36003 0.47857 0.0
O203 O 0.47106 0.43025 0.32519 0.0
O204 O 0.5507 0.55507 0.34387 0.0
C205 C 0.58316 0.60349 0.57852 0.0
O206 O 0.32909 0.5318 0.40458 0.0
O207 O 0.3394 0.5364 0.54999 0.0
loop_
_geom_bond_atom_site_label_1
_geom_bond_atom_site_label_2
_geom_bond_distance
_geom_bond_site_symmetry_2
_ccdc_geom_bond_type
In0 O1 2.294 . S
In0 O2 2.326 . S
In0 O6 2.266 . S
In0 O7 2.326 . S
In0 O8 2.266 . S
In0 O9 2.326 . S
In0 O11 2.294 . S
In0 O12 2.326 . S
O1 In0 2.294 . S
O1 C10 1.240 . S
O2 In0 2.326 . S
O2 C10 1.252 . S
C3 O6 1.252 . S
C3 O7 1.260 . S
C4 O11 1.240 . S
C4 O12 1.252 . S
C5 O8 1.252 . S
C5 O9 1.260 . S
O6 In0 2.266 . S
O6 C3 1.252 . S
O7 In0 2.326 . S
O7 C3 1.260 . S
O8 In0 2.266 . S
O8 C5 1.252 . S
O9 In0 2.326 . S
O9 C5 1.260 . S
C10 O1 1.240 . S
C10 O2 1.252 . S
O11 In0 2.294 . S
O11 C4 1.240 . S
O12 In0 2.326 . S
O12 C4 1.252 . S
In13 O14 2.294 1_665 S
In13 O15 2.326 . S
In13 O19 2.266 1_665 S
In13 O20 2.325 1_565 S
In13 O21 2.266 . S
In13 O22 2.326 1_565 S
In13 O24 2.294 1_655 S
In13 O25 2.326 1_655 S
O14 In13 2.294 1_445 S
O14 C23 1.240 1_545 S
O15 In13 2.326 . S
O15 C23 1.252 1_655 S
C16 O19 1.252 . S
C16 O20 1.260 1_455 S
C17 O24 1.240 . S
C17 O25 1.252 . S
C18 O21 1.245 1_545 S
C18 O22 1.265 . S
O19 In13 2.266 1_445 S
O19 C16 1.252 . S
O20 In13 2.325 1_545 S
O20 C16 1.260 1_655 S
O21 In13 2.266 . S
O21 C18 1.245 1_565 S
O22 In13 2.326 1_545 S
O22 C18 1.265 . S
C23 O14 1.240 1_565 S
C23 O15 1.252 1_455 S
O24 In13 2.294 1_455 S
O24 C17 1.240 . S
O25 In13 2.326 1_455 S
O25 C17 1.252 . S
In26 O27 2.294 . S
In26 O28 2.326 . S
In26 O32 2.266 . S
In26 O33 2.326 . S
In26 O34 2.266 . S
In26 O35 2.326 . S
In26 O37 2.294 . S
In26 O38 2.326 . S
O27 In26 2.294 . S
O27 C36 1.240 . S
O28 In26 2.326 . S
O28 C36 1.252 . S
C29 O32 1.252 . S
C29 O33 1.260 . S
C30 O37 1.240 . S
C30 O38 1.252 . S
C31 O34 1.252 . S
C31 O35 1.260 . S
O32 In26 2.266 . S
O32 C29 1.252 . S
O33 In26 2.326 . S
O33 C29 1.260 . S
O34 In26 2.266 . S
O34 C31 1.252 . S
O35 In26 2.326 . S
O35 C31 1.260 . S
C36 O27 1.240 . S
C36 O28 1.252 . S
O37 In26 2.294 . S
O37 C30 1.240 . S
O38 In26 2.326 . S
O38 C30 1.252 . S
In39 O40 2.294 1_564 S
In39 O41 2.326 1_564 S
In39 O45 2.266 1_554 S
In39 O46 2.326 . S
In39 O47 2.266 1_565 S
In39 O48 2.326 . S
In39 O50 2.294 1_565 S
In39 O51 2.326 1_554 S
O40 In39 2.294 1_546 S
O40 C49 1.240 . S
O41 In39 2.326 1_546 S
O41 C49 1.252 . S
C42 O45 1.252 1_554 S
C42 O46 1.260 . S
C43 O50 1.240 1_566 S
C43 O51 1.252 . S
C44 O47 1.252 . S
C44 O48 1.260 1_545 S
O45 In39 2.266 1_556 S
O45 C42 1.252 1_556 S
O46 In39 2.326 . S
O46 C42 1.260 . S
O47 In39 2.266 1_545 S
O47 C44 1.252 . S
O48 In39 2.326 . S
O48 C44 1.260 1_565 S
C49 O40 1.240 . S
C49 O41 1.252 . S
O50 In39 2.294 1_545 S
O50 C43 1.240 1_544 S
O51 In39 2.326 1_556 S
O51 C43 1.252 . S
In52 O53 2.294 . S
In52 O54 2.326 . S
In52 O58 2.266 . S
In52 O59 2.326 . S
In52 O60 2.266 . S
In52 O61 2.326 . S
In52 O63 2.294 . S
In52 O64 2.326 . S
O53 In52 2.294 . S
O53 C62 1.240 . S
O54 In52 2.326 . S
O54 C62 1.252 . S
C55 O58 1.252 . S
C55 O59 1.260 . S
C56 O63 1.240 . S
C56 O64 1.252 . S
C57 O60 1.252 . S
C57 O61 1.260 . S
O58 In52 2.266 . S
O58 C55 1.252 . S
O59 In52 2.326 . S
O59 C55 1.260 . S
O60 In52 2.266 . S
O60 C57 1.252 . S
O61 In52 2.326 . S
O61 C57 1.260 . S
C62 O53 1.240 . S
C62 O54 1.252 . S
O63 In52 2.294 . S
O63 C56 1.240 . S
O64 In52 2.326 . S
O64 C56 1.252 . S
In65 O66 2.294 1_545 S
In65 O67 2.326 1_545 S
In65 O71 2.266 . S
In65 O72 2.326 . S
In65 O73 2.266 1_545 S
In65 O74 2.326 . S
In65 O76 2.294 1_545 S
In65 O77 2.326 . S
O66 In65 2.294 1_565 S
O66 C75 1.240 . S
O67 In65 2.326 1_565 S
O67 C75 1.252 . S
C68 O71 1.252 . S
C68 O72 1.260 . S
C69 O76 1.240 1_545 S
C69 O77 1.252 . S
C70 O73 1.252 . S
C70 O74 1.260 1_565 S
O71 In65 2.266 . S
O71 C68 1.252 . S
O72 In65 2.326 . S
O72 C68 1.260 . S
O73 In65 2.266 1_565 S
O73 C70 1.252 . S
O74 In65 2.326 . S
O74 C70 1.260 1_545 S
C75 O66 1.240 . S
C75 O67 1.252 . S
O76 In65 2.294 1_565 S
O76 C69 1.240 1_565 S
O77 In65 2.326 . S
O77 C69 1.252 . S
In78 O79 2.294 . S
In78 O80 2.326 . S
In78 O84 2.266 . S
In78 O85 2.326 . S
In78 O86 2.266 . S
In78 O87 2.326 . S
In78 O89 2.294 . S
In78 O90 2.326 . S
O79 In78 2.294 . S
O79 C88 1.240 . S
O80 In78 2.326 . S
O80 C88 1.252 . S
C81 O84 1.252 . S
C81 O85 1.260 . S
C82 O89 1.240 . S
C82 O90 1.252 . S
C83 O86 1.252 . S
C83 O87 1.260 . S
O84 In78 2.266 . S
O84 C81 1.252 . S
O85 In78 2.326 . S
O85 C81 1.260 . S
O86 In78 2.266 . S
O86 C83 1.252 . S
O87 In78 2.326 . S
O87 C83 1.260 . S
C88 O79 1.240 . S
C88 O80 1.252 . S
O89 In78 2.294 . S
O89 C82 1.240 . S
O90 In78 2.326 . S
O90 C82 1.252 . S
In91 O92 2.295 1_565 S
In91 O93 2.327 1_556 S
In91 O97 2.266 . S
In91 O98 2.325 1_655 S
In91 O99 2.266 1_655 S
In91 O100 2.326 . S
In91 O102 2.293 1_666 S
In91 O103 2.326 1_665 S
O92 In91 2.295 1_545 S
O92 C101 1.240 1_546 S
O93 In91 2.327 1_554 S
O93 C101 1.252 . S
C94 O97 1.252 1_455 S
C94 O98 1.260 . S
C95 O102 1.240 . S
C95 O103 1.252 1_554 S
C96 O99 1.252 . S
C96 O100 1.260 1_455 S
O97 In91 2.266 . S
O97 C94 1.252 1_655 S
O98 In91 2.325 1_455 S
O98 C94 1.260 . S
O99 In91 2.266 1_455 S
O99 C96 1.252 . S
O100 In91 2.326 . S
O100 C96 1.260 1_655 S
C101 O92 1.240 1_564 S
C101 O93 1.252 . S
O102 In91 2.293 1_444 S
O102 C95 1.240 . S
O103 In91 2.326 1_445 S
O103 C95 1.252 1_556 S
In104 O105 2.294 . S
In104 O106 2.326 . S
In104 O110 2.266 1_655 S
In104 O111 2.326 1_655 S
In104 O112 2.266 . S
In104 O113 2.326 . S
In104 O115 2.294 . S
In104 O116 2.326 . S
O105 In104 2.294 . S
O105 C114 1.240 . S
O106 In104 2.326 . S
O106 C114 1.252 . S
C107 O110 1.252 . S
C107 O111 1.260 . S
C108 O115 1.240 . S
C108 O116 1.252 . S
C109 O112 1.252 . S
C109 O113 1.260 . S
O110 In104 2.266 1_455 S
O110 C107 1.252 . S
O111 In104 2.326 1_455 S
O111 C107 1.260 . S
O112 In104 2.266 . S
O112 C109 1.252 . S
O113 In104 2.326 . S
O113 C109 1.260 . S
C114 O105 1.240 . S
C114 O106 1.252 . S
O115 In104 2.294 . S
O115 C108 1.240 . S
O116 In104 2.326 . S
O116 C108 1.252 . S
In117 O118 2.296 . S
In117 O119 2.327 1_556 S
In117 O123 2.266 . S
In117 O124 2.324 1_455 S
In117 O125 2.265 1_455 S
In117 O126 2.326 . S
In117 O128 2.293 1_456 S
In117 O129 2.326 1_455 S
O118 In117 2.296 . S
O118 C127 1.240 1_556 S
O119 In117 2.327 1_554 S
O119 C127 1.252 . S
C120 O123 1.252 1_655 S
C120 O124 1.260 . S
C121 O128 1.240 . S
C121 O129 1.252 1_554 S
C122 O125 1.252 . S
C122 O126 1.260 1_655 S
O123 In117 2.266 . S
O123 C120 1.252 1_455 S
O124 In117 2.324 1_655 S
O124 C120 1.260 . S
O125 In117 2.265 1_655 S
O125 C122 1.252 . S
O126 In117 2.326 . S
O126 C122 1.260 1_455 S
C127 O118 1.240 1_554 S
C127 O119 1.252 . S
O128 In117 2.293 1_654 S
O128 C121 1.240 . S
O129 In117 2.326 1_655 S
O129 C121 1.252 1_556 S
In130 O131 2.294 . S
In130 O132 2.326 . S
In130 O136 2.266 . S
In130 O137 2.326 . S
In130 O138 2.266 . S
In130 O139 2.326 1_655 S
In130 O141 2.294 . S
In130 O142 2.326 . S
O131 In130 2.294 . S
O131 C140 1.240 . S
O132 In130 2.326 . S
O132 C140 1.252 . S
C133 O136 1.252 . S
C133 O137 1.260 . S
C134 O141 1.240 . S
C134 O142 1.252 . S
C135 O138 1.252 . S
C135 O139 1.261 1_655 S
O136 In130 2.266 . S
O136 C133 1.252 . S
O137 In130 2.326 . S
O137 C133 1.260 . S
O138 In130 2.266 . S
O138 C135 1.252 . S
O139 In130 2.326 1_455 S
O139 C135 1.261 1_455 S
C140 O131 1.240 . S
C140 O132 1.252 . S
O141 In130 2.294 . S
O141 C134 1.240 . S
O142 In130 2.326 . S
O142 C134 1.252 . S
In143 O144 2.294 . S
In143 O145 2.326 . S
In143 O149 2.266 . S
In143 O150 2.326 1_455 S
In143 O151 2.266 1_455 S
In143 O152 2.326 . S
In143 O154 2.294 1_455 S
In143 O155 2.326 . S
O144 In143 2.294 . S
O144 C153 1.240 . S
O145 In143 2.326 . S
O145 C153 1.252 . S
C146 O149 1.252 1_655 S
C146 O150 1.260 . S
C147 O154 1.240 . S
C147 O155 1.252 1_655 S
C148 O151 1.252 . S
C148 O152 1.260 1_655 S
O149 In143 2.266 . S
O149 C146 1.252 1_455 S
O150 In143 2.326 1_655 S
O150 C146 1.260 . S
O151 In143 2.266 1_655 S
O151 C148 1.252 . S
O152 In143 2.326 . S
O152 C148 1.260 1_455 S
C153 O144 1.240 . S
C153 O145 1.252 . S
O154 In143 2.294 1_655 S
O154 C147 1.240 . S
O155 In143 2.326 . S
O155 C147 1.252 1_455 S
In156 O157 2.294 1_554 S
In156 O158 2.326 . S
In156 O162 2.266 1_554 S
In156 O163 2.326 . S
In156 O164 2.266 . S
In156 O165 2.326 1_554 S
In156 O167 2.294 . S
In156 O168 2.326 . S
O157 In156 2.294 1_556 S
O157 C166 1.240 . S
O158 In156 2.326 . S
O158 C166 1.252 1_554 S
C159 O162 1.252 . S
C159 O163 1.260 1_556 S
C160 O167 1.240 . S
C160 O168 1.252 . S
C161 O164 1.252 1_556 S
C161 O165 1.260 . S
O162 In156 2.266 1_556 S
O162 C159 1.252 . S
O163 In156 2.326 . S
O163 C159 1.260 1_554 S
O164 In156 2.266 . S
O164 C161 1.252 1_554 S
O165 In156 2.326 1_556 S
O165 C161 1.260 . S
C166 O157 1.240 . S
C166 O158 1.252 1_556 S
O167 In156 2.294 . S
O167 C160 1.240 . S
O168 In156 2.326 . S
O168 C160 1.252 . S
In169 O170 2.294 . S
In169 O171 2.326 . S
In169 O175 2.266 . S
In169 O176 2.326 . S
In169 O177 2.266 . S
In169 O178 2.326 . S
In169 O180 2.294 . S
In169 O181 2.326 . S
O170 In169 2.294 . S
O170 C179 1.240 . S
O171 In169 2.326 . S
O171 C179 1.252 . S
C172 O175 1.252 . S
C172 O176 1.260 . S
C173 O180 1.240 . S
C173 O181 1.252 . S
C174 O177 1.252 . S
C174 O178 1.260 . S
O175 In169 2.266 . S
O175 C172 1.252 . S
O176 In169 2.326 . S
O176 C172 1.260 . S
O177 In169 2.266 . S
O177 C174 1.252 . S
O178 In169 2.326 . S
O178 C174 1.260 . S
C179 O170 1.240 . S
C179 O171 1.252 . S
O180 In169 2.294 . S
O180 C173 1.240 . S
O181 In169 2.326 . S
O181 C173 1.252 . S
In182 O183 2.294 . S
In182 O184 2.326 . S
In182 O188 2.266 . S
In182 O189 2.326 . S
In182 O190 2.266 . S
In182 O191 2.326 . S
In182 O193 2.294 . S
In182 O194 2.326 . S
O183 In182 2.294 . S
O183 C192 1.240 . S
O184 In182 2.326 . S
O184 C192 1.252 . S
C185 O188 1.252 . S
C185 O189 1.260 . S
C186 O193 1.240 . S
C186 O194 1.252 . S
C187 O190 1.252 . S
C187 O191 1.260 . S
O188 In182 2.266 . S
O188 C185 1.252 . S
O189 In182 2.326 . S
O189 C185 1.260 . S
O190 In182 2.266 . S
O190 C187 1.252 . S
O191 In182 2.326 . S
O191 C187 1.260 . S
C192 O183 1.240 . S
C192 O184 1.252 . S
O193 In182 2.294 . S
O193 C186 1.240 . S
O194 In182 2.326 . S
O194 C186 1.252 . S
In195 O196 2.294 . S
In195 O197 2.326 . S
In195 O201 2.266 . S
In195 O202 2.326 . S
In195 O203 2.266 . S
In195 O204 2.326 . S
In195 O206 2.294 . S
In195 O207 2.326 . S
O196 In195 2.294 . S
O196 C205 1.240 . S
O197 In195 2.326 . S
O197 C205 1.252 . S
C198 O201 1.252 . S
C198 O202 1.260 . S
C199 O206 1.240 . S
C199 O207 1.252 . S
C200 O203 1.252 . S
C200 O204 1.260 . S
O201 In195 2.266 . S
O201 C198 1.252 . S
O202 In195 2.326 . S
O202 C198 1.260 . S
O203 In195 2.266 . S
O203 C200 1.252 . S
O204 In195 2.326 . S
O204 C200 1.260 . S
C205 O196 1.240 . S
C205 O197 1.252 . S
O206 In195 2.294 . S
O206 C199 1.240 . S
O207 In195 2.326 . S
O207 C199 1.252 . S
C10 C95 1.939 . S
C17 C56 2.000 . S
C75 C30 2.068 . S
C49 C88 2.113 . S
C114 C166 2.010 . S
C121 C186 2.009 . S
C147 C140 2.051 . S
C205 C173 1.816 . S
C3 C81 1.714 . S
C94 C23 1.287 . S
C31 C55 1.989 1_556 S
C70 C44 1.506 1_565 S
C4 C192 2.107 . S
C148 C16 1.979 1_655 S
C179 C36 2.013 1_655 S
C161 C42 2.045 1_556 S
C134 C57 1.537 . S
C68 C198 1.721 . S
C82 C107 1.463 . S
C96 C122 1.521 1_455 S
C5 C62 1.393 . S
C108 C172 1.391 1_545 S
C159 C127 1.372 1_556 S
C185 C135 1.571 1_545 S
C101 C43 1.894 1_554 S
C29 C83 1.582 . S
C153 C199 2.044 . S
C174 C133 1.687 1_556 S
C200 C160 1.289 . S
C187 C109 1.964 . S
C146 C120 1.474 . S
C18 C69 1.520 . S
