# Generated by pormake.
# Topology qtz-h, (3)-cn, num edge types: 1
# Building blocks:
#     Node 0, Type 0, BuildingBlock: OLANEW_clean_sbu_2, # of connection points: 3
#     Node 1, Type 0, BuildingBlock: OLANEW_clean_sbu_2, # of connection points: 3
#     Node 2, Type 0, BuildingBlock: OLANEW_clean_sbu_2, # of connection points: 3
#     Node 3, Type 0, BuildingBlock: OLANEW_clean_sbu_2, # of connection points: 3
#     Node 4, Type 0, BuildingBlock: OLANEW_clean_sbu_2, # of connection points: 3
#     Node 5, Type 0, BuildingBlock: OLANEW_clean_sbu_2, # of connection points: 3
#     Node 6, Type 0, BuildingBlock: OLANEW_clean_sbu_2, # of connection points: 3
#     Node 7, Type 0, BuildingBlock: OLANEW_clean_sbu_2, # of connection points: 3
#     Node 8, Type 0, BuildingBlock: OLANEW_clean_sbu_2, # of connection points: 3
#     Node 9, Type 0, BuildingBlock: OLANEW_clean_sbu_2, # of connection points: 3
#     Node 10, Type 0, BuildingBlock: OLANEW_clean_sbu_2, # of connection points: 3
#     Node 11, Type 0, BuildingBlock: OLANEW_clean_sbu_2, # of connection points: 3
#     Edge 12, Type (0, 0), None
#     Edge 13, Type (0, 0), None
#     Edge 14, Type (0, 0), None
#     Edge 15, Type (0, 0), None
#     Edge 16, Type (0, 0), None
#     Edge 17, Type (0, 0), None
#     Edge 18, Type (0, 0), None
#     Edge 19, Type (0, 0), None
#     Edge 20, Type (0, 0), None
#     Edge 21, Type (0, 0), None
#     Edge 22, Type (0, 0), None
#     Edge 23, Type (0, 0), None
#     Edge 24, Type (0, 0), None
#     Edge 25, Type (0, 0), None
#     Edge 26, Type (0, 0), None
#     Edge 27, Type (0, 0), None
#     Edge 28, Type (0, 0), None
#     Edge 29, Type (0, 0), None
# Relax obj value: 0.005
# Max RMSD: 0.027
# Mean RMSD: 0.027
data_MOF--net-qtz-h--node1-OLANEW_clean_sbu_2--edge1-none
_symmetry_space_group_name_H-M    P1
_symmetry_Int_Tables_number       1
_symmetry_cell_setting            triclinic
loop_
_symmetry_equiv_pos_as_xyz
'x, y, z'
_cell_length_a     29.905288
_cell_length_b     29.911155
_cell_length_c     33.18742
_cell_angle_alpha  90.007686
_cell_angle_beta   89.99642
_cell_angle_gamma 120.00014
loop_
_atom_site_label
_atom_site_type_symbol
_atom_site_fract_x
_atom_site_fract_y
_atom_site_fract_z
_atom_type_partial_charge
O0 O 0.69349 0.31039 -0.00867 0.0
Cd1 Cd 0.74103 0.30076 0.0473 0.0
O2 O 0.64597 0.22753 0.00012 0.0
Cd3 Cd 0.58828 0.14572 0.00033 0.0
O4 O 0.56054 0.06355 0.00899 0.0
C5 C 0.5131 0.03095 0.01418 0.0
O6 O 0.47915 0.04658 0.01464 0.0
C7 C 0.65431 0.26792 -0.01887 0.0
C8 C 0.74238 0.35721 0.11424 0.0
O9 O 0.78302 0.37255 0.09272 0.0
O10 O 0.70143 0.31546 0.10433 0.0
O11 O 0.38617 0.69173 0.32484 0.0
Cd12 Cd 0.44332 0.73918 0.38085 0.0
O13 O 0.42181 0.64443 0.3334 0.0
Cd14 Cd 0.4465 0.58718 0.33344 0.0
O15 O 0.50115 0.55966 0.34182 0.0
C16 C 0.48644 0.51235 0.3476 0.0
O17 O 0.43686 0.47844 0.34885 0.0
C18 C 0.38962 0.65269 0.3145 0.0
C19 C 0.38825 0.74068 0.44777 0.0
O20 O 0.41361 0.78129 0.42624 0.0
O21 O 0.38895 0.69968 0.43787 0.0
O22 O 0.69765 0.38441 0.65818 0.0
Cd23 Cd 0.70735 0.44155 0.71419 0.0
O24 O 0.78063 0.42025 0.66661 0.0
Cd25 Cd 0.86268 0.44538 0.66656 0.0
O26 O 0.94486 0.50021 0.67473 0.0
C27 C 0.97746 0.48563 0.68099 0.0
O28 O 0.96182 0.43609 0.68288 0.0
C29 C 0.74018 0.38797 0.64777 0.0
C30 C 0.65078 0.38649 0.7811 0.0
O31 O 0.63552 0.41185 0.75957 0.0
O32 O 0.69249 0.3872 0.7712 0.0
O33 O 0.31633 0.69608 -0.00872 0.0
Cd34 Cd 0.26886 0.70578 0.04728 0.0
O35 O 0.36371 0.77898 -7e-05 0.0
Cd36 Cd 0.42104 0.8609 5e-05 0.0
O37 O 0.44857 0.94306 0.0085 0.0
C38 C 0.49589 0.97566 0.01424 0.0
O39 O 0.52983 0.96003 0.01541 0.0
C40 C 0.35542 0.73856 -0.01901 0.0
C41 C 0.26754 0.64936 0.11423 0.0
O42 O 0.22689 0.63401 0.09271 0.0
O43 O 0.30849 0.69109 0.1043 0.0
O44 O 0.62324 0.31447 0.32443 0.0
Cd45 Cd 0.56604 0.26695 0.3804 0.0
O46 O 0.58802 0.36209 0.33331 0.0
Cd47 Cd 0.56403 0.41988 0.33359 0.0
O48 O 0.50965 0.44768 0.34234 0.0
C49 C 0.52451 0.49512 0.34748 0.0
O50 O 0.5741 0.52906 0.34786 0.0
C51 C 0.62002 0.35369 0.31428 0.0
C52 C 0.6212 0.26579 0.44737 0.0
O53 O 0.59597 0.22513 0.42587 0.0
O54 O 0.62031 0.30668 0.43743 0.0
O55 O 0.31207 0.6216 0.65778 0.0
Cd56 Cd 0.30244 0.56444 0.71375 0.0
O57 O 0.22925 0.58655 0.66678 0.0
Cd58 Cd 0.14755 0.56295 0.66713 0.0
O59 O 0.06536 0.50875 0.67609 0.0
C60 C 0.03276 0.52369 0.68074 0.0
O61 O 0.04841 0.57328 0.68049 0.0
C62 C 0.26963 0.61846 0.64769 0.0
C63 C 0.35877 0.61961 0.78072 0.0
O64 O 0.37421 0.59438 0.75922 0.0
O65 O 0.31699 0.61872 0.77078 0.0
O66 O 0.69767 0.31482 0.60535 0.0
Cd67 Cd 0.70738 0.26738 0.54934 0.0
O68 O 0.78064 0.36196 0.59693 0.0
Cd69 Cd 0.86269 0.41889 0.59698 0.0
O70 O 0.94487 0.44625 0.58881 0.0
C71 C 0.97746 0.49344 0.58255 0.0
O72 O 0.9618 0.52731 0.58066 0.0
C73 C 0.74018 0.35379 0.61576 0.0
C74 C 0.65082 0.26589 0.48243 0.0
O75 O 0.63556 0.22527 0.50396 0.0
O76 O 0.69253 0.30688 0.49233 0.0
O77 O 0.38623 0.69608 0.93871 0.0
Cd78 Cd 0.44339 0.70577 0.8827 0.0
O79 O 0.42183 0.77899 0.93012 0.0
Cd80 Cd 0.44646 0.86092 0.93007 0.0
O81 O 0.50109 0.94309 0.92167 0.0
C82 C 0.48635 0.97568 0.91594 0.0
O83 O 0.43678 0.96002 0.91476 0.0
C84 C 0.38966 0.73857 0.94903 0.0
C85 C 0.38831 0.64922 0.81578 0.0
O86 O 0.41366 0.63396 0.83731 0.0
O87 O 0.38902 0.69092 0.82568 0.0
O88 O 0.69354 0.38473 0.27223 0.0
Cd89 Cd 0.74109 0.4419 0.21626 0.0
O90 O 0.64599 0.42004 0.26341 0.0
Cd91 Cd 0.58825 0.44411 0.26319 0.0
O92 O 0.56048 0.49851 0.2545 0.0
C93 C 0.51303 0.48367 0.24936 0.0
O94 O 0.47908 0.43409 0.24897 0.0
C95 C 0.65435 0.388 0.28241 0.0
C96 C 0.74239 0.38678 0.1493 0.0
O97 O 0.78304 0.41206 0.17082 0.0
O98 O 0.70145 0.3876 0.15923 0.0
O99 O 0.31205 0.69211 0.60578 0.0
Cd100 Cd 0.30241 0.73963 0.5498 0.0
O101 O 0.22923 0.64432 0.59677 0.0
Cd102 Cd 0.14754 0.58622 0.59641 0.0
O103 O 0.06535 0.55821 0.58746 0.0
C104 C 0.03276 0.51067 0.5828 0.0
O105 O 0.04843 0.47675 0.58306 0.0
C106 C 0.26962 0.6528 0.61586 0.0
C107 C 0.35872 0.74077 0.48283 0.0
O108 O 0.37417 0.78144 0.50433 0.0
O109 O 0.31694 0.69989 0.49277 0.0
O110 O 0.62321 0.31035 0.9391 0.0
Cd111 Cd 0.56601 0.30067 0.88313 0.0
O112 O 0.58797 0.22751 0.93023 0.0
Cd113 Cd 0.56395 0.14572 0.92996 0.0
O114 O 0.50956 0.06355 0.92124 0.0
C115 C 0.52442 0.03097 0.91604 0.0
O116 O 0.57401 0.04663 0.9156 0.0
C117 C 0.61999 0.26791 0.94925 0.0
C118 C 0.62116 0.35697 0.81616 0.0
O119 O 0.59593 0.37241 0.83766 0.0
O120 O 0.62027 0.3152 0.8261 0.0
O121 O 0.31631 0.62187 0.27224 0.0
Cd122 Cd 0.26885 0.56471 0.21623 0.0
O123 O 0.36368 0.58632 0.26361 0.0
Cd124 Cd 0.42098 0.56168 0.2635 0.0
O125 O 0.4485 0.50704 0.25507 0.0
C126 C 0.49581 0.52175 0.24928 0.0
O127 O 0.52974 0.57131 0.24805 0.0
C128 C 0.3554 0.61846 0.28254 0.0
C129 C 0.26754 0.6198 0.14929 0.0
O130 O 0.22688 0.59451 0.1708 0.0
O131 O 0.30849 0.61902 0.15922 0.0
loop_
_geom_bond_atom_site_label_1
_geom_bond_atom_site_label_2
_geom_bond_distance
_geom_bond_site_symmetry_2
_ccdc_geom_bond_type
O0 Cd1 2.300 . S
O0 C7 1.275 . S
Cd1 O0 2.300 . S
Cd1 O9 2.381 . S
Cd1 O10 2.378 . S
O2 Cd3 2.385 . S
O2 C7 1.255 . S
Cd3 O2 2.385 . S
Cd3 O4 2.317 . S
O4 Cd3 2.317 . S
O4 C5 1.232 . S
C5 O4 1.232 . S
C5 O6 1.218 1_545 S
O6 C5 1.218 1_565 S
C7 O0 1.275 . S
C7 O2 1.255 . S
C8 O9 1.258 . S
C8 O10 1.256 . S
O9 Cd1 2.381 . S
O9 C8 1.258 . S
O10 Cd1 2.378 . S
O10 C8 1.256 . S
O11 Cd12 2.300 . S
O11 C18 1.275 . S
Cd12 O11 2.300 . S
Cd12 O20 2.381 . S
Cd12 O21 2.378 . S
O13 Cd14 2.385 . S
O13 C18 1.255 . S
Cd14 O13 2.385 . S
Cd14 O15 2.317 . S
O15 Cd14 2.317 . S
O15 C16 1.232 . S
C16 O15 1.232 . S
C16 O17 1.218 . S
O17 C16 1.218 . S
C18 O11 1.275 . S
C18 O13 1.255 . S
C19 O20 1.258 . S
C19 O21 1.256 . S
O20 Cd12 2.381 . S
O20 C19 1.258 . S
O21 Cd12 2.378 . S
O21 C19 1.256 . S
O22 Cd23 2.300 . S
O22 C29 1.275 . S
Cd23 O22 2.300 . S
Cd23 O31 2.381 . S
Cd23 O32 2.378 . S
O24 Cd25 2.385 . S
O24 C29 1.255 . S
Cd25 O24 2.385 . S
Cd25 O26 2.317 . S
O26 Cd25 2.317 . S
O26 C27 1.232 . S
C27 O26 1.232 . S
C27 O28 1.218 1_655 S
O28 C27 1.218 1_455 S
C29 O22 1.275 . S
C29 O24 1.255 . S
C30 O31 1.258 . S
C30 O32 1.256 . S
O31 Cd23 2.381 . S
O31 C30 1.258 . S
O32 Cd23 2.378 . S
O32 C30 1.256 . S
O33 Cd34 2.300 . S
O33 C40 1.275 . S
Cd34 O33 2.300 . S
Cd34 O42 2.381 . S
Cd34 O43 2.378 . S
O35 Cd36 2.385 . S
O35 C40 1.255 . S
Cd36 O35 2.385 . S
Cd36 O37 2.317 . S
O37 Cd36 2.317 . S
O37 C38 1.232 . S
C38 O37 1.232 . S
C38 O39 1.218 1_565 S
O39 C38 1.218 1_545 S
C40 O33 1.275 . S
C40 O35 1.255 . S
C41 O42 1.258 . S
C41 O43 1.256 . S
O42 Cd34 2.381 . S
O42 C41 1.258 . S
O43 Cd34 2.378 . S
O43 C41 1.256 . S
O44 Cd45 2.300 . S
O44 C51 1.275 . S
Cd45 O44 2.300 . S
Cd45 O53 2.381 . S
Cd45 O54 2.378 . S
O46 Cd47 2.385 . S
O46 C51 1.255 . S
Cd47 O46 2.385 . S
Cd47 O48 2.317 . S
O48 Cd47 2.317 . S
O48 C49 1.232 . S
C49 O48 1.232 . S
C49 O50 1.218 . S
O50 C49 1.218 . S
C51 O44 1.275 . S
C51 O46 1.255 . S
C52 O53 1.258 . S
C52 O54 1.256 . S
O53 Cd45 2.381 . S
O53 C52 1.258 . S
O54 Cd45 2.378 . S
O54 C52 1.256 . S
O55 Cd56 2.300 . S
O55 C62 1.275 . S
Cd56 O55 2.300 . S
Cd56 O64 2.381 . S
Cd56 O65 2.378 . S
O57 Cd58 2.385 . S
O57 C62 1.255 . S
Cd58 O57 2.385 . S
Cd58 O59 2.317 . S
O59 Cd58 2.317 . S
O59 C60 1.232 . S
C60 O59 1.232 . S
C60 O61 1.218 1_455 S
O61 C60 1.218 1_655 S
C62 O55 1.275 . S
C62 O57 1.255 . S
C63 O64 1.258 . S
C63 O65 1.256 . S
O64 Cd56 2.381 . S
O64 C63 1.258 . S
O65 Cd56 2.378 . S
O65 C63 1.256 . S
O66 Cd67 2.300 . S
O66 C73 1.275 . S
Cd67 O66 2.300 . S
Cd67 O75 2.381 . S
Cd67 O76 2.378 . S
O68 Cd69 2.385 . S
O68 C73 1.255 . S
Cd69 O68 2.385 . S
Cd69 O70 2.317 . S
O70 Cd69 2.317 . S
O70 C71 1.232 . S
C71 O70 1.232 . S
C71 O72 1.218 1_655 S
O72 C71 1.218 1_455 S
C73 O66 1.275 . S
C73 O68 1.255 . S
C74 O75 1.258 . S
C74 O76 1.256 . S
O75 Cd67 2.381 . S
O75 C74 1.258 . S
O76 Cd67 2.378 . S
O76 C74 1.256 . S
O77 Cd78 2.300 . S
O77 C84 1.275 . S
Cd78 O77 2.300 . S
Cd78 O86 2.381 . S
Cd78 O87 2.378 . S
O79 Cd80 2.385 . S
O79 C84 1.255 . S
Cd80 O79 2.385 . S
Cd80 O81 2.317 . S
O81 Cd80 2.317 . S
O81 C82 1.232 . S
C82 O81 1.232 . S
C82 O83 1.218 1_565 S
O83 C82 1.218 1_545 S
C84 O77 1.275 . S
C84 O79 1.255 . S
C85 O86 1.258 . S
C85 O87 1.256 . S
O86 Cd78 2.381 . S
O86 C85 1.258 . S
O87 Cd78 2.378 . S
O87 C85 1.256 . S
O88 Cd89 2.300 . S
O88 C95 1.275 . S
Cd89 O88 2.300 . S
Cd89 O97 2.381 . S
Cd89 O98 2.378 . S
O90 Cd91 2.385 . S
O90 C95 1.255 . S
Cd91 O90 2.385 . S
Cd91 O92 2.317 . S
O92 Cd91 2.317 . S
O92 C93 1.232 . S
C93 O92 1.232 . S
C93 O94 1.218 . S
O94 C93 1.218 . S
C95 O88 1.275 . S
C95 O90 1.255 . S
C96 O97 1.258 . S
C96 O98 1.256 . S
O97 Cd89 2.381 . S
O97 C96 1.258 . S
O98 Cd89 2.378 . S
O98 C96 1.256 . S
O99 Cd100 2.300 . S
O99 C106 1.275 . S
Cd100 O99 2.300 . S
Cd100 O108 2.381 . S
Cd100 O109 2.378 . S
O101 Cd102 2.385 . S
O101 C106 1.255 . S
Cd102 O101 2.385 . S
Cd102 O103 2.317 . S
O103 Cd102 2.317 . S
O103 C104 1.232 . S
C104 O103 1.232 . S
C104 O105 1.218 1_455 S
O105 C104 1.218 1_655 S
C106 O99 1.275 . S
C106 O101 1.255 . S
C107 O108 1.258 . S
C107 O109 1.256 . S
O108 Cd100 2.381 . S
O108 C107 1.258 . S
O109 Cd100 2.378 . S
O109 C107 1.256 . S
O110 Cd111 2.300 . S
O110 C117 1.275 . S
Cd111 O110 2.300 . S
Cd111 O119 2.381 . S
Cd111 O120 2.378 . S
O112 Cd113 2.385 . S
O112 C117 1.255 . S
Cd113 O112 2.385 . S
Cd113 O114 2.317 . S
O114 Cd113 2.317 . S
O114 C115 1.232 . S
C115 O114 1.232 . S
C115 O116 1.218 1_545 S
O116 C115 1.218 1_565 S
C117 O110 1.275 . S
C117 O112 1.255 . S
C118 O119 1.258 . S
C118 O120 1.256 . S
O119 Cd111 2.381 . S
O119 C118 1.258 . S
O120 Cd111 2.378 . S
O120 C118 1.256 . S
O121 Cd122 2.300 . S
O121 C128 1.275 . S
Cd122 O121 2.300 . S
Cd122 O130 2.381 . S
Cd122 O131 2.378 . S
O123 Cd124 2.385 . S
O123 C128 1.255 . S
Cd124 O123 2.385 . S
Cd124 O125 2.317 . S
O125 Cd124 2.317 . S
O125 C126 1.232 . S
C126 O125 1.232 . S
C126 O127 1.218 . S
O127 C126 1.218 . S
C128 O121 1.275 . S
C128 O123 1.255 . S
C129 O130 1.258 . S
C129 O131 1.256 . S
O130 Cd122 2.381 . S
O130 C129 1.258 . S
O131 Cd122 2.378 . S
O131 C129 1.256 . S
C96 C8 1.515 . S
C19 C107 1.515 . S
C118 C30 1.515 . S
C129 C41 1.515 . S
C74 C52 1.515 . S
C63 C85 1.515 . S
C38 C5 0.646 1_565 S
C49 C16 0.646 . S
C27 C60 0.646 1_655 S
C104 C71 0.646 1_455 S
C82 C115 0.646 1_565 S
C126 C93 0.646 . S
C117 C7 1.419 1_556 S
C128 C18 1.419 . S
C29 C73 1.419 . S
C40 C84 1.419 1_554 S
C51 C95 1.419 . S
C62 C106 1.419 . S
