# Generated by pormake.
# Topology pcu, (6)-cn, num edge types: 1
# Building blocks:
#     Node 0, Type 0, BuildingBlock: CIFDUS_clean_sbu_1, # of connection points: 6
#     Edge 1, Type (0, 0), BuildingBlock: UVAHIK_clean_linker_0, # of connection points: 2
#     Edge 2, Type (0, 0), BuildingBlock: UVAHIK_clean_linker_0, # of connection points: 2
#     Edge 3, Type (0, 0), BuildingBlock: UVAHIK_clean_linker_0, # of connection points: 2
# Relax obj value: 0.009
# Max RMSD: 0.057
# Mean RMSD: 0.057
data_MOF--net-pcu--node1-CIFDUS_clean_sbu_1--edge1-UVAHIK_clean_linker_0
_symmetry_space_group_name_H-M    P1
_symmetry_Int_Tables_number       1
_symmetry_cell_setting            triclinic
loop_
_symmetry_equiv_pos_as_xyz
'x, y, z'
_cell_length_a     20.143496
_cell_length_b     20.170757
_cell_length_c     19.524505
_cell_angle_alpha  73.146757
_cell_angle_beta   104.67853
_cell_angle_gamma 96.817304
loop_
_atom_site_label
_atom_site_type_symbol
_atom_site_fract_x
_atom_site_fract_y
_atom_site_fract_z
_atom_type_partial_charge
O0 O 0.99522 0.88895 1.0203 0.0
Mn1 Mn 1.01257 -0.01008 1.03483 0.0
O2 O 0.02885 0.8149 0.13215 0.0
Mn3 Mn 0.07869 0.88079 0.17478 0.0
O4 O 0.02992 0.09089 0.04935 0.0
O5 O 0.99767 0.02664 0.92454 0.0
Mn6 Mn 0.94646 0.09906 0.89487 0.0
O7 O 0.90722 -0.00729 1.02832 0.0
O8 O 0.99632 0.16494 0.9375 0.0
O9 O 0.11792 0.98713 0.04133 0.0
O10 O 0.16162 0.91226 0.14991 0.0
O11 O 0.96319 0.08874 0.81095 0.0
O12 O 0.86353 0.06761 0.91975 0.0
C13 C 0.02799 0.94325 0.21378 0.0
C14 C 1.00015 0.82725 0.06412 0.0
C15 C 0.02502 0.15259 1.00553 0.0
C16 C 0.99714 0.03658 0.85587 0.0
C17 C 0.85636 0.02368 0.97955 0.0
C18 C 0.16879 0.95618 0.09011 0.0
O19 O 0.02747 0.95319 0.14511 0.0
O20 O 0.06195 0.8911 0.25871 0.0
C21 C 0.042 0.03616 0.27355 0.0
C22 C 0.99754 0.98716 0.24418 0.0
C23 C 0.03785 0.04609 0.3403 0.0
C24 C 0.02002 0.05602 0.48761 0.0
H25 H 0.99916 0.87215 0.61749 0.0
C26 C 0.08342 0.02217 0.79447 0.0
C27 C 0.02754 -0.00736 0.82546 0.0
C28 C 0.08786 0.01216 0.72793 0.0
C29 C 1.00501 0.9238 0.58201 0.0
H30 H 0.90706 0.91918 0.2537 0.0
H31 H 0.89732 0.93897 0.36814 0.0
H32 H 0.97586 0.88807 0.48518 0.0
H33 H 0.93903 0.92099 0.81862 0.0
H34 H 0.9471 0.9021 0.70348 0.0
H35 H 0.04918 0.09176 0.58444 0.0
C36 C 0.93718 0.96768 0.34167 0.0
C37 C 0.99086 0.9332 0.50601 0.0
C38 C 0.94163 0.95767 0.27514 0.0
C39 C 0.98311 0.94362 0.79611 0.0
C40 C 0.98724 0.9337 0.72936 0.0
C41 C 0.03417 0.04662 0.5636 0.0
C42 C 0.98864 0.00748 0.37783 0.0
C43 C 0.99804 -0.00054 0.45784 0.0
C44 C 0.03642 0.97234 0.69179 0.0
C45 C 0.02701 0.98036 0.61178 0.0
H46 H 0.0861 0.05878 0.25107 0.0
H47 H 0.078 0.07767 0.36619 0.0
H48 H 0.02588 0.10767 0.45212 0.0
H49 H 0.11799 0.06067 0.81589 0.0
H50 H 0.12771 0.04089 0.70145 0.0
C51 C 0.2511 -0.00029 1.00679 0.0
C52 C 0.2392 0.96964 0.07742 0.0
C53 C 0.31797 0.00629 0.99574 0.0
C54 C 0.4882 0.9312 0.08186 0.0
H55 H 0.55508 0.09516 0.95181 0.0
C56 C 0.77404 0.98015 0.06286 0.0
C57 C 0.78595 0.01023 0.99223 0.0
C58 C 0.70717 0.97357 0.0739 0.0
C59 C 0.53694 0.04867 0.98779 0.0
H60 H 0.28864 0.92618 0.19228 0.0
H61 H 0.40414 0.93864 0.17309 0.0
H62 H 0.4381 0.08909 0.96776 0.0
H63 H 0.73652 0.0537 0.87738 0.0
H64 H 0.62101 0.04124 0.89656 0.0
H65 H 0.58704 0.89078 0.10189 0.0
C66 C 0.36205 0.95538 0.12591 0.0
C67 C 0.46986 0.04524 0.99679 0.0
C68 C 0.29565 0.94863 0.13687 0.0
C69 C 0.7295 0.03125 0.93278 0.0
C70 C 0.6631 0.0245 0.94374 0.0
C71 C 0.55528 0.93464 0.07285 0.0
C72 C 0.374 0.9831 0.05516 0.0
C73 C 0.44476 0.98652 0.04405 0.0
C74 C 0.65114 -0.00323 1.01449 0.0
C75 C 0.58039 -0.00665 1.0256 0.0
H76 H 0.20871 0.01623 0.95986 0.0
H77 H 0.32554 0.02769 0.94044 0.0
H78 H 0.47007 0.88471 0.11783 0.0
H79 H 0.81643 0.96363 0.10978 0.0
H80 H 0.6996 0.95217 0.1292 0.0
C81 C 0.94525 0.70963 0.07782 0.0
C82 C 0.97935 0.76568 0.03644 0.0
C83 C 0.94671 0.64281 0.07138 0.0
C84 C 0.99564 0.53793 0.96575 0.0
H85 H 0.04322 0.40588 0.15796 0.0
C86 C 0.07992 0.27021 0.99184 0.0
C87 C 0.04582 0.21415 1.03322 0.0
C88 C 0.07847 0.33702 0.99829 0.0
C89 C 0.02953 0.44191 0.10392 0.0
H90 H 0.03687 0.79733 0.9516 0.0
H91 H 0.0396 0.68005 0.93995 0.0
H92 H 0.01745 0.52375 0.14832 0.0
H93 H 0.98829 0.18251 0.11805 0.0
H94 H 0.98556 0.29979 0.12971 0.0
H95 H 1.00773 0.45608 0.92134 0.0
C96 C 1.01132 0.68771 0.97717 0.0
C97 C 0.01435 0.50943 0.09822 0.0
C98 C 1.00931 0.75501 0.98325 0.0
C99 C 0.01586 0.22483 0.08641 0.0
C100 C 0.01385 0.29212 0.09249 0.0
C101 C 1.01082 0.4704 0.97145 0.0
C102 C 0.98306 0.63051 1.02401 0.0
C103 C 0.99703 0.55823 1.02905 0.0
C104 C 0.04211 0.34933 0.04566 0.0
C105 C 0.02815 0.42161 0.04062 0.0
H106 H 0.92197 0.71673 0.11938 0.0
H107 H 0.92269 0.60022 0.10664 0.0
H108 H 0.98196 0.57395 0.9117 0.0
H109 H 0.1032 0.26311 0.95028 0.0
H110 H 0.10249 0.37962 0.96303 0.0
loop_
_geom_bond_atom_site_label_1
_geom_bond_atom_site_label_2
_geom_bond_distance
_geom_bond_site_symmetry_2
_ccdc_geom_bond_type
O0 Mn1 2.163 1_666 S
O0 C14 1.244 1_656 S
Mn1 O0 2.163 1_444 S
Mn1 O4 2.160 . S
Mn1 O5 2.221 1_454 S
Mn1 O7 2.163 1_445 S
Mn1 O9 2.160 1_554 S
Mn1 O19 2.221 1_545 S
O2 Mn3 2.087 . S
O2 C14 1.256 . S
Mn3 O2 2.087 . S
Mn3 O10 2.089 . S
Mn3 O19 2.290 . S
Mn3 O20 2.251 . S
O4 Mn1 2.160 . S
O4 C15 1.239 1_454 S
O5 Mn1 2.221 1_656 S
O5 Mn6 2.290 . S
O5 C16 1.278 . S
Mn6 O5 2.290 . S
Mn6 O8 2.089 . S
Mn6 O11 2.251 . S
Mn6 O12 2.087 . S
O7 Mn1 2.163 1_665 S
O7 C17 1.244 1_564 S
O8 Mn6 2.089 . S
O8 C15 1.256 . S
O9 Mn1 2.160 1_556 S
O9 C18 1.239 1_546 S
O10 Mn3 2.089 . S
O10 C18 1.256 . S
O11 Mn6 2.251 . S
O11 C16 1.241 . S
O12 Mn6 2.087 . S
O12 C17 1.256 . S
C13 O19 1.278 . S
C13 O20 1.241 . S
C14 O0 1.244 1_454 S
C14 O2 1.256 . S
C15 O4 1.239 1_656 S
C15 O8 1.256 . S
C16 O5 1.278 . S
C16 O11 1.241 . S
C17 O7 1.244 1_546 S
C17 O12 1.256 . S
C18 O9 1.239 1_564 S
C18 O10 1.256 . S
O19 Mn1 2.221 1_565 S
O19 Mn3 2.290 . S
O19 C13 1.278 . S
O20 Mn3 2.251 . S
O20 C13 1.241 . S
C21 C22 1.349 1_455 S
C21 C23 1.327 . S
C21 H46 0.950 . S
C22 C21 1.349 1_655 S
C22 C38 1.349 1_565 S
C23 C21 1.327 . S
C23 C42 1.429 1_455 S
C23 H47 0.950 . S
C24 C41 1.574 . S
C24 C43 1.368 1_545 S
C24 H48 0.949 . S
H25 C29 0.949 . S
C26 C27 1.349 1_545 S
C26 C28 1.327 . S
C26 H49 0.950 . S
C27 C26 1.349 1_565 S
C27 C39 1.349 1_655 S
C28 C26 1.327 . S
C28 C44 1.429 1_545 S
C28 H50 0.950 . S
C29 H25 0.949 . S
C29 C37 1.574 . S
C29 C45 1.368 1_455 S
H30 C38 0.950 . S
H31 C36 0.950 . S
H32 C37 0.949 . S
H33 C39 0.950 . S
H34 C40 0.950 . S
H35 C41 0.949 . S
C36 H31 0.950 . S
C36 C38 1.327 . S
C36 C42 1.429 1_545 S
C37 C29 1.574 . S
C37 H32 0.949 . S
C37 C43 1.368 1_455 S
C38 C22 1.349 1_545 S
C38 H30 0.950 . S
C38 C36 1.327 . S
C39 C27 1.349 1_455 S
C39 H33 0.950 . S
C39 C40 1.327 . S
C40 H34 0.950 . S
C40 C39 1.327 . S
C40 C44 1.429 1_455 S
C41 C24 1.574 . S
C41 H35 0.949 . S
C41 C45 1.368 1_545 S
C42 C23 1.429 1_655 S
C42 C36 1.429 1_565 S
C42 C43 1.523 . S
C43 C24 1.368 1_565 S
C43 C37 1.368 1_655 S
C43 C42 1.523 . S
C44 C28 1.429 1_565 S
C44 C40 1.429 1_655 S
C44 C45 1.523 . S
C45 C29 1.368 1_655 S
C45 C41 1.368 1_565 S
C45 C44 1.523 . S
H46 C21 0.950 . S
H47 C23 0.950 . S
H48 C24 0.949 . S
H49 C26 0.950 . S
H50 C28 0.950 . S
C51 C52 1.349 1_556 S
C51 C53 1.327 . S
C51 H76 0.950 . S
C52 C51 1.349 1_554 S
C52 C68 1.349 . S
C53 C51 1.327 . S
C53 C72 1.429 1_556 S
C53 H77 0.950 . S
C54 C71 1.574 . S
C54 C73 1.368 . S
C54 H78 0.949 . S
H55 C59 0.949 . S
C56 C57 1.349 . S
C56 C58 1.327 . S
C56 H79 0.950 . S
C57 C56 1.349 . S
C57 C69 1.349 1_554 S
C58 C56 1.327 . S
C58 C74 1.429 . S
C58 H80 0.950 . S
C59 H55 0.949 . S
C59 C67 1.574 . S
C59 C75 1.368 1_556 S
H60 C68 0.950 . S
H61 C66 0.950 . S
H62 C67 0.949 . S
H63 C69 0.950 . S
H64 C70 0.950 . S
H65 C71 0.949 . S
C66 H61 0.950 . S
C66 C68 1.327 . S
C66 C72 1.429 . S
C67 C59 1.574 . S
C67 H62 0.949 . S
C67 C73 1.368 1_556 S
C68 C52 1.349 . S
C68 H60 0.950 . S
C68 C66 1.327 . S
C69 C57 1.349 1_556 S
C69 H63 0.950 . S
C69 C70 1.327 . S
C70 H64 0.950 . S
C70 C69 1.327 . S
C70 C74 1.429 1_556 S
C71 C54 1.574 . S
C71 H65 0.949 . S
C71 C75 1.368 . S
C72 C53 1.429 1_554 S
C72 C66 1.429 . S
C72 C73 1.523 . S
C73 C54 1.368 . S
C73 C67 1.368 1_554 S
C73 C72 1.523 . S
C74 C58 1.429 . S
C74 C70 1.429 1_554 S
C74 C75 1.523 . S
C75 C59 1.368 1_554 S
C75 C71 1.368 . S
C75 C74 1.523 . S
H76 C51 0.950 . S
H77 C53 0.950 . S
H78 C54 0.949 . S
H79 C56 0.950 . S
H80 C58 0.950 . S
C81 C82 1.349 1_654 S
C81 C83 1.327 . S
C81 H106 0.950 . S
C82 C81 1.349 1_456 S
C82 C98 1.349 . S
C83 C81 1.327 . S
C83 C102 1.429 1_654 S
C83 H107 0.950 . S
C84 C101 1.574 . S
C84 C103 1.368 . S
C84 H108 0.949 . S
H85 C89 0.949 . S
C86 C87 1.349 . S
C86 C88 1.327 . S
C86 H109 0.950 . S
C87 C86 1.349 . S
C87 C99 1.349 1_456 S
C88 C86 1.327 . S
C88 C104 1.429 . S
C88 H110 0.950 . S
C89 H85 0.949 . S
C89 C97 1.574 . S
C89 C105 1.368 1_654 S
H90 C98 0.950 . S
H91 C96 0.950 . S
H92 C97 0.949 . S
H93 C99 0.950 . S
H94 C100 0.950 . S
H95 C101 0.949 . S
C96 H91 0.950 . S
C96 C98 1.327 . S
C96 C102 1.429 . S
C97 C89 1.574 . S
C97 H92 0.949 . S
C97 C103 1.368 1_654 S
C98 C82 1.349 . S
C98 H90 0.950 . S
C98 C96 1.327 . S
C99 C87 1.349 1_654 S
C99 H93 0.950 . S
C99 C100 1.327 . S
C100 H94 0.950 . S
C100 C99 1.327 . S
C100 C104 1.429 1_654 S
C101 C84 1.574 . S
C101 H95 0.949 . S
C101 C105 1.368 . S
C102 C83 1.429 1_456 S
C102 C96 1.429 . S
C102 C103 1.523 . S
C103 C84 1.368 . S
C103 C97 1.368 1_456 S
C103 C102 1.523 . S
C104 C88 1.429 . S
C104 C100 1.429 1_456 S
C104 C105 1.523 . S
C105 C89 1.368 1_456 S
C105 C101 1.368 . S
C105 C104 1.523 . S
H106 C81 0.950 . S
H107 C83 0.950 . S
H108 C84 0.949 . S
H109 C86 0.950 . S
H110 C88 0.950 . S
C22 C13 1.296 1_655 S
C27 C16 1.296 1_565 S
C52 C18 1.452 1_545 S
C57 C17 1.451 1_554 S
C82 C14 1.451 1_556 S
C87 C15 1.452 1_455 S
