# Generated by pormake.
# Topology qtz-x, (6)-cn, num edge types: 1
# Building blocks:
#     Node 0, Type 0, BuildingBlock: MAKGUD_clean_sbu_1, # of connection points: 6
#     Node 1, Type 0, BuildingBlock: MAKGUD_clean_sbu_1, # of connection points: 6
#     Node 2, Type 0, BuildingBlock: MAKGUD_clean_sbu_1, # of connection points: 6
#     Edge 3, Type (0, 0), BuildingBlock: EYOCIG_clean_linker_4, # of connection points: 2
#     Edge 4, Type (0, 0), BuildingBlock: EYOCIG_clean_linker_4, # of connection points: 2
#     Edge 5, Type (0, 0), BuildingBlock: EYOCIG_clean_linker_4, # of connection points: 2
#     Edge 6, Type (0, 0), BuildingBlock: EYOCIG_clean_linker_4, # of connection points: 2
#     Edge 7, Type (0, 0), BuildingBlock: EYOCIG_clean_linker_4, # of connection points: 2
#     Edge 8, Type (0, 0), BuildingBlock: EYOCIG_clean_linker_4, # of connection points: 2
#     Edge 9, Type (0, 0), BuildingBlock: EYOCIG_clean_linker_4, # of connection points: 2
#     Edge 10, Type (0, 0), BuildingBlock: EYOCIG_clean_linker_4, # of connection points: 2
#     Edge 11, Type (0, 0), BuildingBlock: EYOCIG_clean_linker_4, # of connection points: 2
# Relax obj value: 0.082
# Max RMSD: 0.228
# Mean RMSD: 0.200
data_MOF--net-qtz-x--node1-MAKGUD_clean_sbu_1--edge1-EYOCIG_clean_linker_4
_symmetry_space_group_name_H-M    P1
_symmetry_Int_Tables_number       1
_symmetry_cell_setting            triclinic
loop_
_symmetry_equiv_pos_as_xyz
'x, y, z'
_cell_length_a     11.2481
_cell_length_b     11.380377
_cell_length_c     41.990276
_cell_angle_alpha  96.513504
_cell_angle_beta   96.59318
_cell_angle_gamma 122.1717
loop_
_atom_site_label
_atom_site_type_symbol
_atom_site_fract_x
_atom_site_fract_y
_atom_site_fract_z
_atom_type_partial_charge
O0 O 0.04052 0.3211 0.08516 0.0
Tb1 Tb 1.00442 0.38761 0.13213 0.0
C2 C 0.05323 0.6497 0.18735 0.0
O3 O 0.99909 0.24258 0.20956 0.0
Tb4 Tb 1.00835 0.42477 0.23554 0.0
C5 C 0.21911 0.53507 0.28696 0.0
O6 O 0.05766 0.25851 0.15692 0.0
O7 O 0.85091 0.33999 0.26689 0.0
C8 C 0.82655 0.22865 0.27893 0.0
O9 O 0.8366 0.13209 0.26163 0.0
O10 O 0.0508 0.58736 0.15864 0.0
O11 O 0.03246 0.60031 0.2145 0.0
O12 O 0.79642 0.30594 0.10098 0.0
C13 C 0.04057 0.20769 0.18399 0.0
C14 C 0.1371 0.44693 0.08175 0.0
O15 O 0.19428 0.43919 0.2626 0.0
O16 O 0.13286 0.57615 0.2816 0.0
C17 C 0.73738 0.37897 0.10326 0.0
O18 O 0.7529 0.4487 0.1321 0.0
O19 O 0.16663 0.53865 0.10783 0.0
O20 O 0.48243 0.92906 0.43731 0.0
Tb21 Tb 0.63752 0.06671 0.48195 0.0
C22 C 0.86345 0.03771 0.54031 0.0
O23 O 0.55963 0.04248 0.54601 0.0
Tb24 Tb 0.68659 0.07387 0.59269 0.0
C25 C 0.6094 0.92683 0.63911 0.0
O26 O 0.44728 0.03241 0.49893 0.0
O27 O 0.76821 0.27932 0.62282 0.0
C28 C 0.69709 0.33932 0.61907 0.0
O29 O 0.6243 0.31713 0.58991 0.0
O30 O 0.79761 0.0491 0.51345 0.0
O31 O 0.83591 0.04256 0.57021 0.0
O32 O 0.73399 0.22814 0.45267 0.0
C33 C 0.44304 0.02538 0.5294 0.0
C34 C 0.53484 0.85291 0.4328 0.0
O35 O 0.52017 0.91816 0.61464 0.0
O36 O 0.74084 1.00861 0.63572 0.0
C37 C 0.84771 0.25095 0.44149 0.0
O38 O 0.94156 0.23692 0.45921 0.0
O39 O 0.64164 0.89269 0.45622 0.0
O40 O 0.64353 0.72455 0.9663 0.0
Tb41 Tb 0.49383 0.66434 0.9201 0.0
C42 C 0.25871 0.40618 0.8525 0.0
O43 O 0.55009 0.70426 0.85 0.0
Tb44 Tb 0.40998 0.58146 0.80166 0.0
C45 C 0.48577 0.49043 0.75184 0.0
O46 O 0.67512 0.82314 0.90091 0.0
O47 O 0.3193 0.69239 0.78267 0.0
C48 C 0.40392 0.82634 0.78157 0.0
O49 O 0.4796 0.91982 0.80903 0.0
O50 O 0.36952 0.52325 0.87189 0.0
O51 O 0.25146 0.40035 0.82071 0.0
O52 O 0.37665 0.7495 0.93817 0.0
C53 C 0.66791 0.8155 0.86908 0.0
C54 C 0.58923 0.59611 0.9709 0.0
O55 O 0.57506 0.59632 0.77617 0.0
O56 O 0.35496 0.43281 0.75609 0.0
C57 C 0.24258 0.66275 0.94002 0.0
O58 O 0.14504 0.59199 0.91284 0.0
O59 O 0.48451 0.50515 0.94635 0.0
C60 C 0.07621 0.89256 0.18785 0.0
C61 C 0.06561 0.78174 0.18802 0.0
C62 C 0.07311 0.996 0.18664 0.0
C63 C 0.05892 0.09281 0.18486 0.0
C64 C 0.20574 1.00134 0.54031 0.0
C65 C 0.31954 1.01141 0.54081 0.0
C66 C 0.07899 1.00387 0.53722 0.0
C67 C 0.97983 0.01923 0.53694 0.0
C68 C 0.89789 0.04193 0.8586 0.0
C69 C 0.78559 0.93144 0.85844 0.0
C70 C 0.03152 0.17544 0.8625 0.0
C71 C 0.14218 0.28779 0.86282 0.0
C72 C 0.19634 0.56224 0.99418 0.0
C73 C 0.21449 0.6061 0.96916 0.0
C74 C 0.17912 0.51604 1.02417 0.0
C75 C 0.15884 0.48254 0.05024 0.0
C76 C 0.844 0.24166 0.37751 0.0
C77 C 0.84559 0.24589 0.40666 0.0
C78 C 0.83673 0.2349 0.34307 0.0
C79 C 0.83217 0.23329 0.3139 0.0
C80 C 0.49847 0.87508 0.72689 0.0
C81 C 0.45836 0.85721 0.75232 0.0
C82 C 0.54221 0.88918 0.69672 0.0
C83 C 0.5755 0.90737 0.67065 0.0
C84 C 0.65399 0.52193 1.02448 0.0
C85 C 0.62798 0.56052 1.00049 0.0
C86 C 0.6793 0.46827 0.05155 0.0
C87 C 0.70628 0.42552 0.07465 0.0
C88 C 0.37242 0.60829 0.34536 0.0
C89 C 0.30603 0.56859 0.31791 0.0
C90 C 0.44182 0.67605 0.37761 0.0
C91 C 0.49287 0.75344 0.4038 0.0
C92 C 0.56307 0.43017 0.69842 0.0
C93 C 0.52426 0.45498 0.72246 0.0
C94 C 0.61381 0.40487 0.67083 0.0
C95 C 0.65196 0.37492 0.64725 0.0
loop_
_geom_bond_atom_site_label_1
_geom_bond_atom_site_label_2
_geom_bond_distance
_geom_bond_site_symmetry_2
_ccdc_geom_bond_type
O0 Tb1 2.506 . S
O0 C14 1.265 . S
Tb1 O0 2.506 . S
Tb1 O6 2.312 . S
Tb1 O10 2.271 . S
Tb1 O12 2.338 1_455 S
Tb1 O19 2.441 . S
C2 O10 1.252 . S
C2 O11 1.253 . S
O3 Tb4 2.271 . S
O3 C13 1.252 . S
Tb4 O3 2.271 . S
Tb4 O7 2.338 1_455 S
Tb4 O11 2.312 . S
Tb4 O15 2.441 . S
Tb4 O16 2.506 . S
C5 O15 1.244 . S
C5 O16 1.265 . S
O6 Tb1 2.312 . S
O6 C13 1.253 . S
O7 Tb4 2.338 1_655 S
O7 C8 1.258 . S
C8 O7 1.258 . S
C8 O9 1.251 . S
O9 C8 1.251 . S
O10 Tb1 2.271 . S
O10 C2 1.252 . S
O11 C2 1.253 . S
O11 Tb4 2.312 . S
O12 Tb1 2.338 1_655 S
O12 C17 1.258 . S
C13 O3 1.252 . S
C13 O6 1.253 . S
C14 O0 1.265 . S
C14 O19 1.244 . S
O15 Tb4 2.441 . S
O15 C5 1.244 . S
O16 Tb4 2.506 . S
O16 C5 1.265 . S
C17 O12 1.258 . S
C17 O18 1.251 . S
O18 C17 1.251 . S
O19 Tb1 2.441 . S
O19 C14 1.244 . S
O20 Tb21 2.506 . S
O20 C34 1.265 . S
Tb21 O20 2.506 . S
Tb21 O26 2.312 . S
Tb21 O30 2.271 . S
Tb21 O32 2.338 1_565 S
Tb21 O39 2.441 . S
C22 O30 1.252 . S
C22 O31 1.253 . S
O23 Tb24 2.271 1_565 S
O23 C33 1.252 . S
Tb24 O23 2.271 1_545 S
Tb24 O27 2.338 . S
Tb24 O31 2.312 1_545 S
Tb24 O35 2.441 1_545 S
Tb24 O36 2.506 1_545 S
C25 O35 1.244 . S
C25 O36 1.265 . S
O26 Tb21 2.312 . S
O26 C33 1.253 . S
O27 Tb24 2.338 . S
O27 C28 1.258 . S
C28 O27 1.258 . S
C28 O29 1.251 . S
O29 C28 1.251 . S
O30 Tb21 2.271 . S
O30 C22 1.252 . S
O31 C22 1.253 . S
O31 Tb24 2.312 1_565 S
O32 Tb21 2.338 1_545 S
O32 C37 1.258 . S
C33 O23 1.252 . S
C33 O26 1.253 . S
C34 O20 1.265 . S
C34 O39 1.244 . S
O35 Tb24 2.441 1_565 S
O35 C25 1.244 . S
O36 Tb24 2.506 1_565 S
O36 C25 1.265 . S
C37 O32 1.258 . S
C37 O38 1.251 . S
O38 C37 1.251 . S
O39 Tb21 2.441 . S
O39 C34 1.244 . S
O40 Tb41 2.506 . S
O40 C54 1.265 . S
Tb41 O40 2.506 . S
Tb41 O46 2.312 . S
Tb41 O50 2.271 . S
Tb41 O52 2.338 . S
Tb41 O59 2.441 . S
C42 O50 1.252 . S
C42 O51 1.253 . S
O43 Tb44 2.271 . S
O43 C53 1.252 . S
Tb44 O43 2.271 . S
Tb44 O47 2.338 . S
Tb44 O51 2.312 . S
Tb44 O55 2.441 . S
Tb44 O56 2.506 . S
C45 O55 1.244 . S
C45 O56 1.265 . S
O46 Tb41 2.312 . S
O46 C53 1.253 . S
O47 Tb44 2.338 . S
O47 C48 1.258 . S
C48 O47 1.258 . S
C48 O49 1.251 . S
O49 C48 1.251 . S
O50 Tb41 2.271 . S
O50 C42 1.252 . S
O51 C42 1.253 . S
O51 Tb44 2.312 . S
O52 Tb41 2.338 . S
O52 C57 1.258 . S
C53 O43 1.252 . S
C53 O46 1.253 . S
C54 O40 1.265 . S
C54 O59 1.244 . S
O55 Tb44 2.441 . S
O55 C45 1.244 . S
O56 Tb44 2.506 . S
O56 C45 1.265 . S
C57 O52 1.258 . S
C57 O58 1.251 . S
O58 C57 1.251 . S
O59 Tb41 2.441 . S
O59 C54 1.244 . S
C60 C61 1.170 . S
C60 C62 1.380 . S
C61 C60 1.170 . S
C62 C60 1.380 . S
C62 C63 1.170 1_565 S
C63 C62 1.170 1_545 S
C64 C65 1.170 . S
C64 C66 1.380 . S
C65 C64 1.170 . S
C66 C64 1.380 . S
C66 C67 1.170 1_455 S
C67 C66 1.170 1_655 S
C68 C69 1.170 1_545 S
C68 C70 1.380 1_655 S
C69 C68 1.170 1_565 S
C70 C68 1.380 1_455 S
C70 C71 1.170 . S
C71 C70 1.170 . S
C72 C73 1.170 . S
C72 C74 1.380 . S
C73 C72 1.170 . S
C74 C72 1.380 . S
C74 C75 1.170 1_556 S
C75 C74 1.170 1_554 S
C76 C77 1.170 . S
C76 C78 1.380 . S
C77 C76 1.170 . S
C78 C76 1.380 . S
C78 C79 1.170 . S
C79 C78 1.170 . S
C80 C81 1.170 . S
C80 C82 1.380 . S
C81 C80 1.170 . S
C82 C80 1.380 . S
C82 C83 1.170 . S
C83 C82 1.170 . S
C84 C85 1.170 1_554 S
C84 C86 1.380 . S
C85 C84 1.170 1_556 S
C86 C84 1.380 . S
C86 C87 1.170 . S
C87 C86 1.170 . S
C88 C89 1.170 . S
C88 C90 1.380 . S
C89 C88 1.170 . S
C90 C88 1.380 . S
C90 C91 1.170 . S
C91 C90 1.170 . S
C92 C93 1.170 . S
C92 C94 1.380 . S
C93 C92 1.170 . S
C94 C92 1.380 . S
C94 C95 1.170 . S
C95 C94 1.170 . S
C61 C2 1.587 . S
C63 C13 1.562 . S
C65 C33 1.584 . S
C67 C22 1.565 . S
C69 C53 1.472 . S
C71 C42 1.475 . S
C73 C57 1.646 . S
C75 C14 1.676 . S
C77 C37 2.623 . S
C79 C8 2.618 . S
C81 C48 1.640 . S
C83 C25 1.681 . S
C85 C54 1.596 . S
C87 C17 1.625 . S
C89 C5 0.807 . S
C91 C34 0.701 . S
C93 C45 1.587 . S
C95 C28 1.607 . S
