# Generated by pormake.
# Topology unh, (4)-cn, num edge types: 1
# Building blocks:
#     Node 0, Type 0, BuildingBlock: GALJAG_clean_sbu_0, # of connection points: 4
#     Node 1, Type 0, BuildingBlock: GALJAG_clean_sbu_0, # of connection points: 4
#     Node 2, Type 0, BuildingBlock: GALJAG_clean_sbu_0, # of connection points: 4
#     Node 3, Type 0, BuildingBlock: GALJAG_clean_sbu_0, # of connection points: 4
#     Node 4, Type 0, BuildingBlock: GALJAG_clean_sbu_0, # of connection points: 4
#     Node 5, Type 0, BuildingBlock: GALJAG_clean_sbu_0, # of connection points: 4
#     Edge 6, Type (0, 0), None
#     Edge 7, Type (0, 0), None
#     Edge 8, Type (0, 0), None
#     Edge 9, Type (0, 0), None
#     Edge 10, Type (0, 0), None
#     Edge 11, Type (0, 0), None
#     Edge 12, Type (0, 0), None
#     Edge 13, Type (0, 0), None
#     Edge 14, Type (0, 0), None
#     Edge 15, Type (0, 0), None
#     Edge 16, Type (0, 0), None
#     Edge 17, Type (0, 0), None
# Relax obj value: 0.030
# Max RMSD: 0.133
# Mean RMSD: 0.133
data_MOF--net-unh--node1-GALJAG_clean_sbu_0--edge1-none
_symmetry_space_group_name_H-M    P1
_symmetry_Int_Tables_number       1
_symmetry_cell_setting            triclinic
loop_
_symmetry_equiv_pos_as_xyz
'x, y, z'
_cell_length_a     20.292529
_cell_length_b     20.291281
_cell_length_c     9.4748003
_cell_angle_alpha  89.991347
_cell_angle_beta   90.017304
_cell_angle_gamma 120.00201
loop_
_atom_site_label
_atom_site_type_symbol
_atom_site_fract_x
_atom_site_fract_y
_atom_site_fract_z
_atom_type_partial_charge
In0 In 0.13766 0.56891 0.06123 0.0
O1 O 0.06552 0.47302 0.90524 0.0
O2 O 0.05173 0.57114 0.91848 0.0
C3 C 0.23893 0.54305 0.19617 0.0
C4 C 0.03053 0.5239 0.25836 0.0
C5 C 0.23893 0.696 0.92623 0.0
O6 O 0.21149 0.5129 0.07742 0.0
O7 O 0.21543 0.58542 0.24501 0.0
O8 O 0.21158 0.69873 0.04504 0.0
O9 O 0.21533 0.6301 0.87736 0.0
C10 C 0.03054 0.50681 0.86402 0.0
O11 O 0.06554 0.59268 0.21718 0.0
O12 O 0.05171 0.48075 0.20392 0.0
In13 In 0.56901 0.13752 0.22785 0.0
O14 O 0.59277 0.06539 0.0719 0.0
O15 O 0.48085 0.05157 0.08512 0.0
C16 C 0.69612 0.23881 0.36283 0.0
C17 C 0.5069 0.03039 0.42502 0.0
C18 C 0.54317 0.23879 0.09286 0.0
O19 O 0.69883 0.21139 0.24406 0.0
O20 O 0.63024 0.21526 0.41165 0.0
O21 O 0.51307 0.2114 0.21165 0.0
O22 O 0.58549 0.21523 0.04401 0.0
C23 C 0.52399 0.03038 0.03069 0.0
O24 O 0.47312 0.06537 0.38379 0.0
O25 O 0.57123 0.05159 0.37061 0.0
In26 In 0.43176 0.56891 0.39444 0.0
O27 O 0.52765 0.59268 0.23848 0.0
O28 O 0.42953 0.48077 0.25167 0.0
C29 C 0.45761 0.69601 0.52945 0.0
C30 C 0.4768 0.5068 0.5916 0.0
C31 C 0.30461 0.54308 0.25966 0.0
O32 O 0.48764 0.69874 0.41058 0.0
O33 O 0.41535 0.63013 0.57837 0.0
O34 O 0.30193 0.51289 0.37836 0.0
O35 O 0.37046 0.58543 0.21073 0.0
C36 C 0.49386 0.52391 0.19726 0.0
O37 O 0.40802 0.47302 0.55041 0.0
O38 O 0.51994 0.57113 0.53713 0.0
In39 In 0.86306 0.43162 0.56115 0.0
O40 O 0.93518 0.40786 0.71717 0.0
O41 O 0.94903 0.51979 0.70382 0.0
C42 C 0.76174 0.30448 0.42635 0.0
C43 C 0.97018 0.49372 0.36398 0.0
C44 C 0.76183 0.45748 0.69613 0.0
O45 O 0.78923 0.30179 0.54507 0.0
O46 O 0.78526 0.37035 0.37741 0.0
O47 O 0.78914 0.48753 0.57727 0.0
O48 O 0.78543 0.41521 0.74506 0.0
C49 C 0.9702 0.47664 0.75833 0.0
O50 O 0.9352 0.52752 0.40516 0.0
O51 O 0.94897 0.42939 0.41844 0.0
In52 In 0.43171 0.8629 0.72785 0.0
O53 O 0.40795 0.93503 0.57182 0.0
O54 O 0.51987 0.94886 0.58519 0.0
C55 C 0.30459 0.76161 0.86266 0.0
C56 C 0.49382 0.97003 0.92503 0.0
C57 C 0.45756 0.76162 0.59302 0.0
O58 O 0.30188 0.78902 0.74388 0.0
O59 O 0.37046 0.78518 0.91166 0.0
O60 O 0.48765 0.78901 0.71183 0.0
O61 O 0.41528 0.78521 0.544 0.0
C62 C 0.47673 0.97004 0.53068 0.0
O63 O 0.5276 0.93504 0.88388 0.0
O64 O 0.42949 0.94884 0.87053 0.0
In65 In 0.56907 0.43162 0.89452 0.0
O66 O 0.47319 0.40786 0.73848 0.0
O67 O 0.5713 0.51978 0.75178 0.0
C68 C 0.54322 0.30447 0.02933 0.0
C69 C 0.52404 0.49373 0.09164 0.0
C70 C 0.69618 0.45745 0.7597 0.0
O71 O 0.51309 0.30178 0.91055 0.0
O72 O 0.58553 0.37033 0.07832 0.0
O73 O 0.6989 0.48754 0.87851 0.0
O74 O 0.63032 0.41519 0.71068 0.0
C75 C 0.50698 0.47663 0.69728 0.0
O76 O 0.59282 0.52752 0.0505 0.0
O77 O 0.48091 0.4294 0.03717 0.0
loop_
_geom_bond_atom_site_label_1
_geom_bond_atom_site_label_2
_geom_bond_distance
_geom_bond_site_symmetry_2
_ccdc_geom_bond_type
In0 O1 2.294 1_554 S
In0 O2 2.326 1_554 S
In0 O6 2.266 . S
In0 O7 2.326 . S
In0 O8 2.266 . S
In0 O9 2.326 1_554 S
In0 O11 2.294 . S
In0 O12 2.326 . S
O1 In0 2.294 1_556 S
O1 C10 1.240 . S
O2 In0 2.326 1_556 S
O2 C10 1.252 . S
C3 O6 1.252 . S
C3 O7 1.260 . S
C4 O11 1.240 . S
C4 O12 1.252 . S
C5 O8 1.252 1_556 S
C5 O9 1.260 . S
O6 In0 2.266 . S
O6 C3 1.252 . S
O7 In0 2.326 . S
O7 C3 1.260 . S
O8 In0 2.266 . S
O8 C5 1.252 1_554 S
O9 In0 2.326 1_556 S
O9 C5 1.260 . S
C10 O1 1.240 . S
C10 O2 1.252 . S
O11 In0 2.294 . S
O11 C4 1.240 . S
O12 In0 2.326 . S
O12 C4 1.252 . S
In13 O14 2.294 . S
In13 O15 2.326 . S
In13 O19 2.266 . S
In13 O20 2.326 . S
In13 O21 2.266 . S
In13 O22 2.326 . S
In13 O24 2.294 . S
In13 O25 2.326 . S
O14 In13 2.294 . S
O14 C23 1.240 . S
O15 In13 2.326 . S
O15 C23 1.252 . S
C16 O19 1.252 . S
C16 O20 1.260 . S
C17 O24 1.240 . S
C17 O25 1.252 . S
C18 O21 1.252 . S
C18 O22 1.260 . S
O19 In13 2.266 . S
O19 C16 1.252 . S
O20 In13 2.326 . S
O20 C16 1.260 . S
O21 In13 2.266 . S
O21 C18 1.252 . S
O22 In13 2.326 . S
O22 C18 1.260 . S
C23 O14 1.240 . S
C23 O15 1.252 . S
O24 In13 2.294 . S
O24 C17 1.240 . S
O25 In13 2.326 . S
O25 C17 1.252 . S
In26 O27 2.294 . S
In26 O28 2.326 . S
In26 O32 2.266 . S
In26 O33 2.326 . S
In26 O34 2.266 . S
In26 O35 2.326 . S
In26 O37 2.294 . S
In26 O38 2.326 . S
O27 In26 2.294 . S
O27 C36 1.240 . S
O28 In26 2.326 . S
O28 C36 1.252 . S
C29 O32 1.252 . S
C29 O33 1.260 . S
C30 O37 1.240 . S
C30 O38 1.252 . S
C31 O34 1.252 . S
C31 O35 1.260 . S
O32 In26 2.266 . S
O32 C29 1.252 . S
O33 In26 2.326 . S
O33 C29 1.260 . S
O34 In26 2.266 . S
O34 C31 1.252 . S
O35 In26 2.326 . S
O35 C31 1.260 . S
C36 O27 1.240 . S
C36 O28 1.252 . S
O37 In26 2.294 . S
O37 C30 1.240 . S
O38 In26 2.326 . S
O38 C30 1.252 . S
In39 O40 2.294 . S
In39 O41 2.326 . S
In39 O45 2.266 . S
In39 O46 2.326 . S
In39 O47 2.266 . S
In39 O48 2.326 . S
In39 O50 2.294 . S
In39 O51 2.326 . S
O40 In39 2.294 . S
O40 C49 1.240 . S
O41 In39 2.326 . S
O41 C49 1.252 . S
C42 O45 1.252 . S
C42 O46 1.260 . S
C43 O50 1.240 . S
C43 O51 1.252 . S
C44 O47 1.252 . S
C44 O48 1.260 . S
O45 In39 2.266 . S
O45 C42 1.252 . S
O46 In39 2.326 . S
O46 C42 1.260 . S
O47 In39 2.266 . S
O47 C44 1.252 . S
O48 In39 2.326 . S
O48 C44 1.260 . S
C49 O40 1.240 . S
C49 O41 1.252 . S
O50 In39 2.294 . S
O50 C43 1.240 . S
O51 In39 2.326 . S
O51 C43 1.252 . S
In52 O53 2.294 . S
In52 O54 2.326 . S
In52 O58 2.266 . S
In52 O59 2.326 . S
In52 O60 2.266 . S
In52 O61 2.326 . S
In52 O63 2.294 . S
In52 O64 2.326 . S
O53 In52 2.294 . S
O53 C62 1.240 . S
O54 In52 2.326 . S
O54 C62 1.252 . S
C55 O58 1.252 . S
C55 O59 1.260 . S
C56 O63 1.240 . S
C56 O64 1.252 . S
C57 O60 1.252 . S
C57 O61 1.260 . S
O58 In52 2.266 . S
O58 C55 1.252 . S
O59 In52 2.326 . S
O59 C55 1.260 . S
O60 In52 2.266 . S
O60 C57 1.252 . S
O61 In52 2.326 . S
O61 C57 1.260 . S
C62 O53 1.240 . S
C62 O54 1.252 . S
O63 In52 2.294 . S
O63 C56 1.240 . S
O64 In52 2.326 . S
O64 C56 1.252 . S
In65 O66 2.294 . S
In65 O67 2.326 . S
In65 O71 2.266 . S
In65 O72 2.326 1_556 S
In65 O73 2.266 . S
In65 O74 2.326 . S
In65 O76 2.294 1_556 S
In65 O77 2.326 1_556 S
O66 In65 2.294 . S
O66 C75 1.240 . S
O67 In65 2.326 . S
O67 C75 1.252 . S
C68 O71 1.252 1_554 S
C68 O72 1.260 . S
C69 O76 1.240 . S
C69 O77 1.252 . S
C70 O73 1.252 . S
C70 O74 1.260 . S
O71 In65 2.266 . S
O71 C68 1.252 1_556 S
O72 In65 2.326 1_554 S
O72 C68 1.260 . S
O73 In65 2.266 . S
O73 C70 1.252 . S
O74 In65 2.326 . S
O74 C70 1.260 . S
C75 O66 1.240 . S
C75 O67 1.252 . S
O76 In65 2.294 1_554 S
O76 C69 1.240 . S
O77 In65 2.326 1_554 S
O77 C69 1.252 . S
C10 C49 1.378 1_455 S
C56 C23 1.378 1_566 S
C36 C69 1.378 . S
C43 C4 1.378 1_655 S
C17 C62 1.378 1_545 S
C75 C30 1.378 . S
C3 C31 1.406 . S
C16 C42 1.406 . S
C57 C29 1.406 . S
C70 C44 1.406 . S
C55 C5 1.406 . S
C68 C18 1.406 . S
