# Generated by pormake.
# Topology ukt, (4)-cn, num edge types: 1
# Building blocks:
#     Node 0, Type 0, BuildingBlock: GALJAG_clean_sbu_0, # of connection points: 4
#     Node 1, Type 0, BuildingBlock: GALJAG_clean_sbu_0, # of connection points: 4
#     Node 2, Type 0, BuildingBlock: GALJAG_clean_sbu_0, # of connection points: 4
#     Node 3, Type 0, BuildingBlock: GALJAG_clean_sbu_0, # of connection points: 4
#     Node 4, Type 0, BuildingBlock: GALJAG_clean_sbu_0, # of connection points: 4
#     Node 5, Type 0, BuildingBlock: GALJAG_clean_sbu_0, # of connection points: 4
#     Node 6, Type 0, BuildingBlock: GALJAG_clean_sbu_0, # of connection points: 4
#     Node 7, Type 0, BuildingBlock: GALJAG_clean_sbu_0, # of connection points: 4
#     Node 8, Type 0, BuildingBlock: GALJAG_clean_sbu_0, # of connection points: 4
#     Node 9, Type 0, BuildingBlock: GALJAG_clean_sbu_0, # of connection points: 4
#     Node 10, Type 0, BuildingBlock: GALJAG_clean_sbu_0, # of connection points: 4
#     Node 11, Type 0, BuildingBlock: GALJAG_clean_sbu_0, # of connection points: 4
#     Node 12, Type 0, BuildingBlock: GALJAG_clean_sbu_0, # of connection points: 4
#     Node 13, Type 0, BuildingBlock: GALJAG_clean_sbu_0, # of connection points: 4
#     Node 14, Type 0, BuildingBlock: GALJAG_clean_sbu_0, # of connection points: 4
#     Node 15, Type 0, BuildingBlock: GALJAG_clean_sbu_0, # of connection points: 4
#     Edge 16, Type (0, 0), None
#     Edge 17, Type (0, 0), None
#     Edge 18, Type (0, 0), None
#     Edge 19, Type (0, 0), None
#     Edge 20, Type (0, 0), None
#     Edge 21, Type (0, 0), None
#     Edge 22, Type (0, 0), None
#     Edge 23, Type (0, 0), None
#     Edge 24, Type (0, 0), None
#     Edge 25, Type (0, 0), None
#     Edge 26, Type (0, 0), None
#     Edge 27, Type (0, 0), None
#     Edge 28, Type (0, 0), None
#     Edge 29, Type (0, 0), None
#     Edge 30, Type (0, 0), None
#     Edge 31, Type (0, 0), None
#     Edge 32, Type (0, 0), None
#     Edge 33, Type (0, 0), None
#     Edge 34, Type (0, 0), None
#     Edge 35, Type (0, 0), None
#     Edge 36, Type (0, 0), None
#     Edge 37, Type (0, 0), None
#     Edge 38, Type (0, 0), None
#     Edge 39, Type (0, 0), None
#     Edge 40, Type (0, 0), None
#     Edge 41, Type (0, 0), None
#     Edge 42, Type (0, 0), None
#     Edge 43, Type (0, 0), None
#     Edge 44, Type (0, 0), None
#     Edge 45, Type (0, 0), None
#     Edge 46, Type (0, 0), None
#     Edge 47, Type (0, 0), None
# Relax obj value: 0.210
# Max RMSD: 0.110
# Mean RMSD: 0.110
data_MOF--net-ukt--node1-GALJAG_clean_sbu_0--edge1-none
_symmetry_space_group_name_H-M    P1
_symmetry_Int_Tables_number       1
_symmetry_cell_setting            triclinic
loop_
_symmetry_equiv_pos_as_xyz
'x, y, z'
_cell_length_a     20.400683
_cell_length_b     20.40072
_cell_length_c     14.142615
_cell_angle_alpha  89.998982
_cell_angle_beta   90.000073
_cell_angle_gamma 89.999302
loop_
_atom_site_label
_atom_site_type_symbol
_atom_site_fract_x
_atom_site_fract_y
_atom_site_fract_z
_atom_type_partial_charge
In0 In 0.51999 0.10992 0.12266 0.0
O1 O 0.61839 0.06469 0.16933 0.0
O2 O 0.60033 0.08914 1.02394 0.0
C3 C 0.47156 0.18245 0.26753 0.0
C4 C 0.46977 -0.00461 0.0663 0.0
C5 C 0.55041 0.22071 1.03787 0.0
O6 O 0.51808 0.14178 0.27693 0.0
O7 O 0.44255 0.17904 0.18864 0.0
O8 O 0.50299 0.18669 1.00626 0.0
O9 O 0.58127 0.19741 0.10743 0.0
C10 C 0.63895 0.06594 0.08465 0.0
O11 O 0.45956 0.0479 1.02077 0.0
O12 O 0.49453 0.00276 0.14754 0.0
In13 In 0.31569 0.51999 0.12268 0.0
O14 O 0.36093 0.61839 0.16934 0.0
O15 O 0.33646 0.60033 1.02396 0.0
C16 C 0.24317 0.47156 0.26756 0.0
C17 C 0.43021 0.46977 0.0663 0.0
C18 C 0.20489 0.55041 1.0379 0.0
O19 O 0.28384 0.51807 0.27695 0.0
O20 O 0.24657 0.44255 0.18866 0.0
O21 O 0.23892 0.50299 1.00629 0.0
O22 O 0.22819 0.58127 0.10746 0.0
C23 C 0.35966 0.63895 0.08467 0.0
O24 O 0.3777 0.45956 1.02078 0.0
O25 O 0.42285 0.49453 0.14754 0.0
In26 In 0.90562 0.31569 0.12266 0.0
O27 O 0.80721 0.36092 0.16932 0.0
O28 O 0.82527 0.33647 1.02394 0.0
C29 C 0.95404 0.24316 0.26754 0.0
C30 C 0.95583 0.43021 0.0663 0.0
C31 C 0.87519 0.20489 1.03788 0.0
O32 O 0.90753 0.28383 0.27693 0.0
O33 O -0.01695 0.24656 0.18864 0.0
O34 O 0.92262 0.23891 1.00627 0.0
O35 O 0.84433 0.22819 0.10745 0.0
C36 C 0.78665 0.35966 0.08465 0.0
O37 O -0.03396 0.3777 1.02077 0.0
O38 O 0.93107 0.42284 0.14753 0.0
In39 In 0.10992 0.90561 0.12266 0.0
O40 O 0.0479 -0.03396 1.02077 0.0
O41 O 0.00277 0.93107 0.14754 0.0
C42 C 0.22072 0.87519 1.03788 0.0
C43 C 0.06595 0.78665 0.08466 0.0
C44 C 0.18245 0.95404 0.26754 0.0
O45 O 0.18669 0.92262 1.00627 0.0
O46 O 0.19742 0.84433 0.10745 0.0
O47 O 0.14178 0.90752 0.27694 0.0
O48 O 0.17904 -0.01695 0.18865 0.0
C49 C -0.0046 0.95583 0.0663 0.0
O50 O 0.06469 0.80721 0.16933 0.0
O51 O 0.08914 0.82527 1.02395 0.0
In52 In 0.51999 0.31568 0.47013 0.0
O53 O 0.61838 0.36094 0.42344 0.0
O54 O 0.60034 0.33646 0.56883 0.0
C55 C 0.47161 0.2431 0.32536 0.0
C56 C 0.46977 0.43021 0.5265 0.0
C57 C 0.55041 0.20489 0.55494 0.0
O58 O 0.51813 0.28375 0.31589 0.0
O59 O 0.44252 0.24658 0.40419 0.0
O60 O 0.50297 0.23891 0.58653 0.0
O61 O 0.58128 0.2282 0.48539 0.0
C62 C 0.63895 0.35967 0.50811 0.0
O63 O 0.45959 0.37771 0.57206 0.0
O64 O 0.49449 0.42283 0.44524 0.0
In65 In 0.10992 0.51998 0.47015 0.0
O66 O 0.06468 0.61838 0.42346 0.0
O67 O 0.08914 0.60034 0.56885 0.0
C68 C 0.18251 0.47161 0.32539 0.0
C69 C -0.0046 0.46977 0.5265 0.0
C70 C 0.22071 0.55041 0.55496 0.0
O71 O 0.14186 0.51813 0.31591 0.0
O72 O 0.17903 0.44251 0.40421 0.0
O73 O 0.1867 0.50297 0.58655 0.0
O74 O 0.19741 0.58128 0.48541 0.0
C75 C 0.06594 0.63895 0.50813 0.0
O76 O 0.0479 0.45959 0.57207 0.0
O77 O 0.00278 0.49449 0.44525 0.0
In78 In 0.90562 0.10992 0.47014 0.0
O79 O -0.03399 0.04789 0.57206 0.0
O80 O 0.93111 0.00278 0.44524 0.0
C81 C 0.87519 0.22071 0.55494 0.0
C82 C 0.78665 0.06594 0.50812 0.0
C83 C 0.954 0.18251 0.32537 0.0
O84 O 0.92263 0.1867 0.58653 0.0
O85 O 0.84432 0.19741 0.4854 0.0
O86 O 0.90747 0.14186 0.3159 0.0
O87 O -0.01691 0.17903 0.4042 0.0
C88 C 0.95584 -0.0046 0.5265 0.0
O89 O 0.80723 0.06467 0.42345 0.0
O90 O 0.82527 0.08914 0.56884 0.0
In91 In 0.31569 0.90562 0.47014 0.0
O92 O 0.36094 0.80722 0.42346 0.0
O93 O 0.33647 0.82527 0.56884 0.0
C94 C 0.2431 0.95399 0.32537 0.0
C95 C 0.43021 0.95583 0.5265 0.0
C96 C 0.2049 0.87519 0.55495 0.0
O97 O 0.28375 0.90747 0.3159 0.0
O98 O 0.24658 -0.01691 0.4042 0.0
O99 O 0.23891 0.92263 0.58653 0.0
O100 O 0.2282 0.84432 0.4854 0.0
C101 C 0.35967 0.78665 0.50813 0.0
O102 O 0.37771 -0.03399 0.57206 0.0
O103 O 0.42283 0.93111 0.44524 0.0
In104 In 0.40556 0.81564 0.9702 0.0
O105 O 0.30716 0.8609 0.92354 0.0
O106 O 0.32516 0.83628 0.06888 0.0
C107 C 0.45396 0.74316 0.82526 0.0
C108 C 0.45572 0.93018 1.02661 0.0
C109 C 0.37528 0.7048 0.05496 0.0
O110 O 0.40741 0.78379 0.81593 0.0
O111 O 0.48303 0.74659 0.90411 0.0
O112 O 0.42267 0.73887 0.08658 0.0
O113 O 0.34437 0.72809 0.98543 0.0
C114 C 0.28656 0.85952 1.00818 0.0
O115 O 0.46594 0.87768 0.07213 0.0
O116 O 0.43098 0.92281 0.94536 0.0
In117 In 0.60996 0.40556 0.97018 0.0
O118 O 0.5647 0.30716 0.92352 0.0
O119 O 0.58933 0.32515 0.06887 0.0
C120 C 0.68244 0.45396 0.82524 0.0
C121 C 0.49542 0.45572 1.0266 0.0
C122 C 0.7208 0.37528 0.05493 0.0
O123 O 0.64181 0.40741 0.81591 0.0
O124 O 0.679 0.48303 0.90409 0.0
O125 O 0.68673 0.42266 0.08655 0.0
O126 O 0.69752 0.34437 0.9854 0.0
C127 C 0.56609 0.28655 1.00817 0.0
O128 O 0.54793 0.46594 0.07212 0.0
O129 O 0.50279 0.43098 0.94536 0.0
In130 In 0.02005 0.60996 0.9702 0.0
O131 O 0.11845 0.5647 0.92354 0.0
O132 O 0.10045 0.58932 0.06889 0.0
C133 C -0.02835 0.68244 0.82525 0.0
C134 C -0.03011 0.49542 1.02661 0.0
C135 C 0.05033 0.7208 0.05494 0.0
O136 O 0.01821 0.64181 0.81593 0.0
O137 O 0.94258 0.67901 0.9041 0.0
O138 O 0.00295 0.68673 0.08657 0.0
O139 O 0.08124 0.69752 0.98542 0.0
C140 C 0.13905 0.56608 1.00819 0.0
O141 O 0.95967 0.54792 0.07212 0.0
O142 O -0.00537 0.50279 0.94536 0.0
In143 In 0.81565 0.02005 0.97019 0.0
O144 O 0.87768 0.95967 0.07213 0.0
O145 O 0.92282 -0.00537 0.94536 0.0
C146 C 0.7048 0.05033 0.05494 0.0
C147 C 0.85952 0.13905 1.00818 0.0
C148 C 0.74316 -0.02835 0.82525 0.0
O149 O 0.73888 0.00294 0.08657 0.0
O150 O 0.72809 0.08124 0.98542 0.0
O151 O 0.78379 0.01821 0.81592 0.0
O152 O 0.7466 0.94258 0.9041 0.0
C153 C 0.93019 -0.03011 1.02661 0.0
O154 O 0.8609 0.11844 0.92353 0.0
O155 O 0.83628 0.10045 0.06888 0.0
In156 In 0.40556 0.60996 0.6226 0.0
O157 O 0.46591 0.54792 0.52064 0.0
O158 O 0.43101 0.5028 0.64746 0.0
C159 C 0.37528 0.7208 0.53783 0.0
C160 C 0.28656 0.56608 0.58465 0.0
C161 C 0.45391 0.6825 0.76744 0.0
O162 O 0.42268 0.68673 0.50623 0.0
O163 O 0.34436 0.69751 0.60734 0.0
O164 O 0.40735 0.64189 0.77685 0.0
O165 O 0.48306 0.67899 0.68866 0.0
C166 C 0.45572 0.49542 0.56619 0.0
O167 O 0.30718 0.56469 0.66929 0.0
O168 O 0.32515 0.58933 0.52394 0.0
In169 In 0.81564 0.40556 0.62258 0.0
O170 O 0.87769 0.46591 0.52063 0.0
O171 O 0.9228 0.43101 0.64745 0.0
C172 C 0.70481 0.37528 0.53781 0.0
C173 C 0.85953 0.28656 0.58463 0.0
C174 C 0.7431 0.45391 0.76741 0.0
O175 O 0.73887 0.42267 0.50621 0.0
O176 O 0.7281 0.34436 0.60732 0.0
O177 O 0.78371 0.40735 0.77682 0.0
O178 O 0.74661 0.48306 0.68863 0.0
C179 C 0.93018 0.45572 0.56618 0.0
O180 O 0.86091 0.30717 0.66927 0.0
O181 O 0.83628 0.32515 0.52392 0.0
In182 In 0.02005 0.81564 0.62259 0.0
O183 O 0.9597 0.87768 0.52064 0.0
O184 O -0.0054 0.9228 0.64745 0.0
C185 C 0.05033 0.70481 0.53782 0.0
C186 C 0.13905 0.85953 0.58464 0.0
C187 C -0.0283 0.7431 0.76743 0.0
O188 O 0.00293 0.73887 0.50622 0.0
O189 O 0.08125 0.72809 0.60733 0.0
O190 O 0.01826 0.78371 0.77683 0.0
O191 O 0.94255 0.74661 0.68865 0.0
C192 C -0.03011 0.93018 0.56618 0.0
O193 O 0.11843 0.86091 0.66928 0.0
O194 O 0.10046 0.83628 0.52393 0.0
In195 In 0.60996 0.02004 0.62259 0.0
O196 O 0.56469 0.11843 0.66927 0.0
O197 O 0.58932 0.10046 0.52392 0.0
C198 C 0.68251 -0.0283 0.76743 0.0
C199 C 0.49542 -0.03011 0.56618 0.0
C200 C 0.7208 0.05033 0.53782 0.0
O201 O 0.6419 0.01826 0.77683 0.0
O202 O 0.67899 0.94254 0.68865 0.0
O203 O 0.68673 0.00293 0.50622 0.0
O204 O 0.69751 0.08125 0.60732 0.0
C205 C 0.56607 0.13905 0.58463 0.0
O206 O 0.54792 0.95969 0.52064 0.0
O207 O 0.5028 -0.00541 0.64745 0.0
loop_
_geom_bond_atom_site_label_1
_geom_bond_atom_site_label_2
_geom_bond_distance
_geom_bond_site_symmetry_2
_ccdc_geom_bond_type
In0 O1 2.294 . S
In0 O2 2.326 1_554 S
In0 O6 2.266 . S
In0 O7 2.326 . S
In0 O8 2.266 1_554 S
In0 O9 2.326 . S
In0 O11 2.294 1_554 S
In0 O12 2.326 . S
O1 In0 2.294 . S
O1 C10 1.240 1_554 S
O2 In0 2.326 1_556 S
O2 C10 1.252 . S
C3 O6 1.252 . S
C3 O7 1.260 . S
C4 O11 1.240 1_554 S
C4 O12 1.252 . S
C5 O8 1.252 . S
C5 O9 1.260 1_556 S
O6 In0 2.266 . S
O6 C3 1.252 . S
O7 In0 2.326 . S
O7 C3 1.260 . S
O8 In0 2.266 1_556 S
O8 C5 1.252 . S
O9 In0 2.326 . S
O9 C5 1.260 1_554 S
C10 O1 1.240 1_556 S
C10 O2 1.252 . S
O11 In0 2.294 1_556 S
O11 C4 1.240 1_556 S
O12 In0 2.326 . S
O12 C4 1.252 . S
In13 O14 2.294 . S
In13 O15 2.326 1_554 S
In13 O19 2.266 . S
In13 O20 2.326 . S
In13 O21 2.266 1_554 S
In13 O22 2.326 . S
In13 O24 2.294 1_554 S
In13 O25 2.326 . S
O14 In13 2.294 . S
O14 C23 1.240 1_554 S
O15 In13 2.326 1_556 S
O15 C23 1.252 . S
C16 O19 1.252 . S
C16 O20 1.260 . S
C17 O24 1.240 1_554 S
C17 O25 1.252 . S
C18 O21 1.252 . S
C18 O22 1.260 1_556 S
O19 In13 2.266 . S
O19 C16 1.252 . S
O20 In13 2.326 . S
O20 C16 1.260 . S
O21 In13 2.266 1_556 S
O21 C18 1.252 . S
O22 In13 2.326 . S
O22 C18 1.260 1_554 S
C23 O14 1.240 1_556 S
C23 O15 1.252 . S
O24 In13 2.294 1_556 S
O24 C17 1.240 1_556 S
O25 In13 2.326 . S
O25 C17 1.252 . S
In26 O27 2.294 . S
In26 O28 2.326 1_554 S
In26 O32 2.266 . S
In26 O33 2.326 1_655 S
In26 O34 2.266 1_654 S
In26 O35 2.326 . S
In26 O37 2.294 1_654 S
In26 O38 2.326 1_655 S
O27 In26 2.294 . S
O27 C36 1.240 1_554 S
O28 In26 2.326 1_556 S
O28 C36 1.252 . S
C29 O32 1.252 1_455 S
C29 O33 1.260 . S
C30 O37 1.240 1_554 S
C30 O38 1.253 . S
C31 O34 1.252 1_655 S
C31 O35 1.260 1_556 S
O32 In26 2.266 . S
O32 C29 1.252 1_655 S
O33 In26 2.326 1_455 S
O33 C29 1.260 . S
O34 In26 2.266 1_456 S
O34 C31 1.252 1_455 S
O35 In26 2.326 . S
O35 C31 1.260 1_554 S
C36 O27 1.240 1_556 S
C36 O28 1.252 . S
O37 In26 2.294 1_456 S
O37 C30 1.240 1_556 S
O38 In26 2.326 1_455 S
O38 C30 1.253 . S
In39 O40 2.294 1_564 S
In39 O41 2.326 1_565 S
In39 O45 2.266 1_564 S
In39 O46 2.326 . S
In39 O47 2.266 . S
In39 O48 2.326 1_565 S
In39 O50 2.294 . S
In39 O51 2.326 1_554 S
O40 In39 2.294 1_546 S
O40 C49 1.240 1_556 S
O41 In39 2.326 1_545 S
O41 C49 1.253 . S
C42 O45 1.252 1_565 S
C42 O46 1.260 1_556 S
C43 O50 1.240 1_556 S
C43 O51 1.252 . S
C44 O47 1.252 1_545 S
C44 O48 1.260 . S
O45 In39 2.266 1_546 S
O45 C42 1.252 1_545 S
O46 In39 2.326 . S
O46 C42 1.260 1_554 S
O47 In39 2.266 . S
O47 C44 1.252 1_565 S
O48 In39 2.326 1_545 S
O48 C44 1.260 . S
C49 O40 1.240 1_554 S
C49 O41 1.253 . S
O50 In39 2.294 . S
O50 C43 1.240 1_554 S
O51 In39 2.326 1_556 S
O51 C43 1.252 . S
In52 O53 2.294 . S
In52 O54 2.326 . S
In52 O58 2.266 . S
In52 O59 2.326 . S
In52 O60 2.266 . S
In52 O61 2.326 . S
In52 O63 2.294 . S
In52 O64 2.326 . S
O53 In52 2.294 . S
O53 C62 1.240 . S
O54 In52 2.326 . S
O54 C62 1.252 . S
C55 O58 1.252 . S
C55 O59 1.260 . S
C56 O63 1.240 . S
C56 O64 1.252 . S
C57 O60 1.252 . S
C57 O61 1.260 . S
O58 In52 2.266 . S
O58 C55 1.252 . S
O59 In52 2.326 . S
O59 C55 1.260 . S
O60 In52 2.266 . S
O60 C57 1.252 . S
O61 In52 2.326 . S
O61 C57 1.260 . S
C62 O53 1.240 . S
C62 O54 1.252 . S
O63 In52 2.294 . S
O63 C56 1.240 . S
O64 In52 2.326 . S
O64 C56 1.252 . S
In65 O66 2.294 . S
In65 O67 2.326 . S
In65 O71 2.266 . S
In65 O72 2.326 . S
In65 O73 2.266 . S
In65 O74 2.326 . S
In65 O76 2.294 . S
In65 O77 2.326 . S
O66 In65 2.294 . S
O66 C75 1.240 . S
O67 In65 2.326 . S
O67 C75 1.252 . S
C68 O71 1.252 . S
C68 O72 1.260 . S
C69 O76 1.240 . S
C69 O77 1.252 . S
C70 O73 1.252 . S
C70 O74 1.260 . S
O71 In65 2.266 . S
O71 C68 1.252 . S
O72 In65 2.326 . S
O72 C68 1.260 . S
O73 In65 2.266 . S
O73 C70 1.252 . S
O74 In65 2.326 . S
O74 C70 1.260 . S
C75 O66 1.240 . S
C75 O67 1.252 . S
O76 In65 2.294 . S
O76 C69 1.240 . S
O77 In65 2.326 . S
O77 C69 1.252 . S
In78 O79 2.294 1_655 S
In78 O80 2.326 1_655 S
In78 O84 2.266 1_655 S
In78 O85 2.326 . S
In78 O86 2.266 . S
In78 O87 2.326 1_655 S
In78 O89 2.294 . S
In78 O90 2.326 . S
O79 In78 2.294 1_455 S
O79 C88 1.240 . S
O80 In78 2.326 1_455 S
O80 C88 1.253 . S
C81 O84 1.252 1_655 S
C81 O85 1.260 . S
C82 O89 1.240 . S
C82 O90 1.252 . S
C83 O86 1.252 1_455 S
C83 O87 1.260 . S
O84 In78 2.266 1_455 S
O84 C81 1.252 1_455 S
O85 In78 2.326 . S
O85 C81 1.260 . S
O86 In78 2.266 . S
O86 C83 1.252 1_655 S
O87 In78 2.326 1_455 S
O87 C83 1.260 . S
C88 O79 1.240 . S
C88 O80 1.253 . S
O89 In78 2.294 . S
O89 C82 1.240 . S
O90 In78 2.326 . S
O90 C82 1.252 . S
In91 O92 2.294 . S
In91 O93 2.326 . S
In91 O97 2.266 . S
In91 O98 2.326 1_565 S
In91 O99 2.266 1_565 S
In91 O100 2.326 . S
In91 O102 2.294 1_565 S
In91 O103 2.326 1_565 S
O92 In91 2.294 . S
O92 C101 1.240 . S
O93 In91 2.326 . S
O93 C101 1.252 . S
C94 O97 1.252 1_545 S
C94 O98 1.260 . S
C95 O102 1.240 . S
C95 O103 1.253 . S
C96 O99 1.252 1_565 S
C96 O100 1.260 . S
O97 In91 2.266 . S
O97 C94 1.252 1_565 S
O98 In91 2.326 1_545 S
O98 C94 1.260 . S
O99 In91 2.266 1_545 S
O99 C96 1.252 1_545 S
O100 In91 2.326 . S
O100 C96 1.260 . S
C101 O92 1.240 . S
C101 O93 1.252 . S
O102 In91 2.294 1_545 S
O102 C95 1.240 . S
O103 In91 2.326 1_545 S
O103 C95 1.253 . S
In104 O105 2.294 . S
In104 O106 2.326 1_556 S
In104 O110 2.266 . S
In104 O111 2.326 . S
In104 O112 2.266 1_556 S
In104 O113 2.326 . S
In104 O115 2.294 1_556 S
In104 O116 2.326 . S
O105 In104 2.294 . S
O105 C114 1.240 1_556 S
O106 In104 2.326 1_554 S
O106 C114 1.252 . S
C107 O110 1.252 . S
C107 O111 1.260 . S
C108 O115 1.240 1_556 S
C108 O116 1.252 . S
C109 O112 1.252 . S
C109 O113 1.260 1_554 S
O110 In104 2.266 . S
O110 C107 1.252 . S
O111 In104 2.326 . S
O111 C107 1.260 . S
O112 In104 2.266 1_554 S
O112 C109 1.252 . S
O113 In104 2.326 . S
O113 C109 1.260 1_556 S
C114 O105 1.240 1_554 S
C114 O106 1.252 . S
O115 In104 2.294 1_554 S
O115 C108 1.240 1_554 S
O116 In104 2.326 . S
O116 C108 1.252 . S
In117 O118 2.294 . S
In117 O119 2.326 1_556 S
In117 O123 2.266 . S
In117 O124 2.326 . S
In117 O125 2.266 1_556 S
In117 O126 2.326 . S
In117 O128 2.294 1_556 S
In117 O129 2.326 . S
O118 In117 2.294 . S
O118 C127 1.240 1_556 S
O119 In117 2.326 1_554 S
O119 C127 1.252 . S
C120 O123 1.252 . S
C120 O124 1.260 . S
C121 O128 1.240 1_556 S
C121 O129 1.252 . S
C122 O125 1.252 . S
C122 O126 1.260 1_554 S
O123 In117 2.266 . S
O123 C120 1.252 . S
O124 In117 2.326 . S
O124 C120 1.260 . S
O125 In117 2.266 1_554 S
O125 C122 1.252 . S
O126 In117 2.326 . S
O126 C122 1.260 1_556 S
C127 O118 1.240 1_554 S
C127 O119 1.252 . S
O128 In117 2.294 1_554 S
O128 C121 1.240 1_554 S
O129 In117 2.326 . S
O129 C121 1.252 . S
In130 O131 2.294 . S
In130 O132 2.326 1_556 S
In130 O136 2.266 . S
In130 O137 2.326 1_455 S
In130 O138 2.266 1_456 S
In130 O139 2.326 . S
In130 O141 2.294 1_456 S
In130 O142 2.326 1_455 S
O131 In130 2.294 . S
O131 C140 1.240 1_556 S
O132 In130 2.326 1_554 S
O132 C140 1.252 . S
C133 O136 1.252 1_655 S
C133 O137 1.260 . S
C134 O141 1.240 1_556 S
C134 O142 1.253 . S
C135 O138 1.252 1_455 S
C135 O139 1.260 1_554 S
O136 In130 2.266 . S
O136 C133 1.252 1_455 S
O137 In130 2.326 1_655 S
O137 C133 1.260 . S
O138 In130 2.266 1_654 S
O138 C135 1.252 1_655 S
O139 In130 2.326 . S
O139 C135 1.260 1_556 S
C140 O131 1.240 1_554 S
C140 O132 1.252 . S
O141 In130 2.294 1_654 S
O141 C134 1.240 1_554 S
O142 In130 2.326 1_655 S
O142 C134 1.253 . S
In143 O144 2.294 1_546 S
In143 O145 2.326 1_545 S
In143 O149 2.266 1_546 S
In143 O150 2.326 . S
In143 O151 2.266 . S
In143 O152 2.326 1_545 S
In143 O154 2.294 . S
In143 O155 2.326 1_556 S
O144 In143 2.294 1_564 S
O144 C153 1.240 1_554 S
O145 In143 2.326 1_565 S
O145 C153 1.253 . S
C146 O149 1.252 1_545 S
C146 O150 1.260 1_554 S
C147 O154 1.240 1_554 S
C147 O155 1.252 . S
C148 O151 1.252 1_565 S
C148 O152 1.260 . S
O149 In143 2.266 1_564 S
O149 C146 1.252 1_565 S
O150 In143 2.326 . S
O150 C146 1.260 1_556 S
O151 In143 2.266 . S
O151 C148 1.252 1_545 S
O152 In143 2.326 1_565 S
O152 C148 1.260 . S
C153 O144 1.240 1_556 S
C153 O145 1.253 . S
O154 In143 2.294 . S
O154 C147 1.240 1_556 S
O155 In143 2.326 1_554 S
O155 C147 1.252 . S
In156 O157 2.294 . S
In156 O158 2.326 . S
In156 O162 2.266 . S
In156 O163 2.326 . S
In156 O164 2.266 . S
In156 O165 2.326 . S
In156 O167 2.294 . S
In156 O168 2.326 . S
O157 In156 2.294 . S
O157 C166 1.240 . S
O158 In156 2.326 . S
O158 C166 1.252 . S
C159 O162 1.252 . S
C159 O163 1.260 . S
C160 O167 1.240 . S
C160 O168 1.252 . S
C161 O164 1.252 . S
C161 O165 1.260 . S
O162 In156 2.266 . S
O162 C159 1.252 . S
O163 In156 2.326 . S
O163 C159 1.260 . S
O164 In156 2.266 . S
O164 C161 1.252 . S
O165 In156 2.326 . S
O165 C161 1.260 . S
C166 O157 1.240 . S
C166 O158 1.252 . S
O167 In156 2.294 . S
O167 C160 1.240 . S
O168 In156 2.326 . S
O168 C160 1.252 . S
In169 O170 2.294 . S
In169 O171 2.326 . S
In169 O175 2.266 . S
In169 O176 2.326 . S
In169 O177 2.266 . S
In169 O178 2.326 . S
In169 O180 2.294 . S
In169 O181 2.326 . S
O170 In169 2.294 . S
O170 C179 1.240 . S
O171 In169 2.326 . S
O171 C179 1.252 . S
C172 O175 1.252 . S
C172 O176 1.260 . S
C173 O180 1.240 . S
C173 O181 1.252 . S
C174 O177 1.252 . S
C174 O178 1.260 . S
O175 In169 2.266 . S
O175 C172 1.252 . S
O176 In169 2.326 . S
O176 C172 1.260 . S
O177 In169 2.266 . S
O177 C174 1.252 . S
O178 In169 2.326 . S
O178 C174 1.260 . S
C179 O170 1.240 . S
C179 O171 1.252 . S
O180 In169 2.294 . S
O180 C173 1.240 . S
O181 In169 2.326 . S
O181 C173 1.252 . S
In182 O183 2.294 1_455 S
In182 O184 2.326 1_455 S
In182 O188 2.266 1_455 S
In182 O189 2.326 . S
In182 O190 2.266 . S
In182 O191 2.326 1_455 S
In182 O193 2.294 . S
In182 O194 2.326 . S
O183 In182 2.294 1_655 S
O183 C192 1.240 . S
O184 In182 2.326 1_655 S
O184 C192 1.253 . S
C185 O188 1.252 1_455 S
C185 O189 1.260 . S
C186 O193 1.240 . S
C186 O194 1.252 . S
C187 O190 1.252 1_655 S
C187 O191 1.260 . S
O188 In182 2.266 1_655 S
O188 C185 1.252 1_655 S
O189 In182 2.326 . S
O189 C185 1.260 . S
O190 In182 2.266 . S
O190 C187 1.252 1_455 S
O191 In182 2.326 1_655 S
O191 C187 1.260 . S
C192 O183 1.240 . S
C192 O184 1.253 . S
O193 In182 2.294 . S
O193 C186 1.240 . S
O194 In182 2.326 . S
O194 C186 1.252 . S
In195 O196 2.294 . S
In195 O197 2.326 . S
In195 O201 2.266 . S
In195 O202 2.326 1_545 S
In195 O203 2.266 1_545 S
In195 O204 2.326 . S
In195 O206 2.294 1_545 S
In195 O207 2.326 1_545 S
O196 In195 2.294 . S
O196 C205 1.240 . S
O197 In195 2.326 . S
O197 C205 1.252 . S
C198 O201 1.252 1_565 S
C198 O202 1.260 . S
C199 O206 1.240 . S
C199 O207 1.253 . S
C200 O203 1.252 1_545 S
C200 O204 1.260 . S
O201 In195 2.266 . S
O201 C198 1.252 1_545 S
O202 In195 2.326 1_565 S
O202 C198 1.260 . S
O203 In195 2.266 1_565 S
O203 C200 1.252 1_565 S
O204 In195 2.326 . S
O204 C200 1.260 . S
C205 O196 1.240 . S
C205 O197 1.252 . S
O206 In195 2.294 1_565 S
O206 C199 1.240 . S
O207 In195 2.326 1_565 S
O207 C199 1.253 . S
C5 C127 1.512 1_556 S
C140 C18 1.511 1_554 S
C147 C31 1.512 1_554 S
C114 C42 1.512 1_554 S
C57 C205 1.511 . S
C160 C70 1.512 . S
C173 C81 1.512 . S
C186 C96 1.512 . S
C109 C23 1.512 1_554 S
C122 C36 1.511 1_554 S
C135 C43 1.512 1_554 S
C10 C146 1.512 1_556 S
C159 C101 1.511 . S
C172 C62 1.512 . S
C75 C185 1.512 . S
C200 C82 1.512 . S
C108 C4 2.627 1_566 S
C17 C121 2.626 1_554 S
C134 C30 2.626 1_656 S
C49 C153 2.626 1_444 S
C166 C56 2.627 . S
C69 C179 2.627 1_455 S
C192 C88 2.626 1_665 S
C199 C95 2.626 1_565 S
C55 C3 1.858 . S
C68 C16 1.858 . S
C29 C83 1.858 . S
C94 C44 1.858 . S
C107 C161 1.858 . S
C174 C120 1.858 . S
C187 C133 1.858 . S
C198 C148 1.858 . S
