# Generated by pormake.
# Topology wft, (7)-cn, num edge types: 1
# Building blocks:
#     Node 0, Type 0, BuildingBlock: NUHQUE_clean_sbu_2, # of connection points: 7
#     Node 1, Type 0, BuildingBlock: NUHQUE_clean_sbu_2, # of connection points: 7
#     Node 2, Type 0, BuildingBlock: NUHQUE_clean_sbu_2, # of connection points: 7
#     Node 3, Type 0, BuildingBlock: NUHQUE_clean_sbu_2, # of connection points: 7
#     Node 4, Type 0, BuildingBlock: NUHQUE_clean_sbu_2, # of connection points: 7
#     Node 5, Type 0, BuildingBlock: NUHQUE_clean_sbu_2, # of connection points: 7
#     Node 6, Type 0, BuildingBlock: NUHQUE_clean_sbu_2, # of connection points: 7
#     Node 7, Type 0, BuildingBlock: NUHQUE_clean_sbu_2, # of connection points: 7
#     Edge 8, Type (0, 0), None
#     Edge 9, Type (0, 0), None
#     Edge 10, Type (0, 0), None
#     Edge 11, Type (0, 0), None
#     Edge 12, Type (0, 0), None
#     Edge 13, Type (0, 0), None
#     Edge 14, Type (0, 0), None
#     Edge 15, Type (0, 0), None
#     Edge 16, Type (0, 0), None
#     Edge 17, Type (0, 0), None
#     Edge 18, Type (0, 0), None
#     Edge 19, Type (0, 0), None
#     Edge 20, Type (0, 0), None
#     Edge 21, Type (0, 0), None
#     Edge 22, Type (0, 0), None
#     Edge 23, Type (0, 0), None
#     Edge 24, Type (0, 0), None
#     Edge 25, Type (0, 0), None
#     Edge 26, Type (0, 0), None
#     Edge 27, Type (0, 0), None
#     Edge 28, Type (0, 0), None
#     Edge 29, Type (0, 0), None
#     Edge 30, Type (0, 0), None
#     Edge 31, Type (0, 0), None
#     Edge 32, Type (0, 0), None
#     Edge 33, Type (0, 0), None
#     Edge 34, Type (0, 0), None
#     Edge 35, Type (0, 0), None
# Relax obj value: 0.128
# Max RMSD: 0.182
# Mean RMSD: 0.182
data_MOF--net-wft--node1-NUHQUE_clean_sbu_2--edge1-none
_symmetry_space_group_name_H-M    P1
_symmetry_Int_Tables_number       1
_symmetry_cell_setting            triclinic
loop_
_symmetry_equiv_pos_as_xyz
'x, y, z'
_cell_length_a     17.847779
_cell_length_b     17.847992
_cell_length_c     18.014046
_cell_angle_alpha  89.999618
_cell_angle_beta   90.000366
_cell_angle_gamma 90.0
loop_
_atom_site_label
_atom_site_type_symbol
_atom_site_fract_x
_atom_site_fract_y
_atom_site_fract_z
_atom_type_partial_charge
O0 O 0.37925 0.4419 0.42579 0.0
Tb1 Tb 0.41125 0.34626 0.4939 0.0
Eu2 Eu 0.38758 0.16239 0.42475 0.0
C3 C 0.35228 0.50599 0.44971 0.0
O4 O 0.32749 0.55464 0.4011 0.0
C5 C 0.28939 0.23897 0.5409 0.0
O6 O 0.43661 0.04756 0.41923 0.0
C7 C 0.32012 0.19274 0.30156 0.0
C8 C 0.46953 0.02544 0.35791 0.0
O9 O 0.46672 0.06723 0.29802 0.0
C10 C 0.54583 0.25542 0.42928 0.0
C11 C 0.25922 0.21207 0.24936 0.0
C12 C 0.18324 0.21916 0.27053 0.0
C13 C 0.12695 0.22386 0.21543 0.0
C14 C 0.14732 0.2204 0.14006 0.0
C15 C 0.22237 0.21092 0.11876 0.0
C16 C 0.27784 0.20957 0.17387 0.0
O17 O 0.30321 0.29147 0.49185 0.0
O18 O 0.31902 0.17338 0.5279 0.0
O19 O 0.43122 0.40758 0.59667 0.0
O20 O 0.45422 0.29032 0.59319 0.0
C21 C 0.45629 0.35042 0.63391 0.0
O22 O 0.51057 0.19148 0.43909 0.0
O23 O 0.50966 0.31963 0.42695 0.0
O24 O 0.31912 0.12597 0.33256 0.0
O25 O 0.35721 0.24457 0.33897 0.0
H26 H 0.16796 0.21797 0.32874 0.0
H27 H 0.10388 0.221 0.09802 0.0
H28 H 0.33593 0.20101 0.15828 0.0
O29 O 0.44191 0.60206 0.73639 0.0
Tb30 Tb 0.34629 0.57007 0.66826 0.0
Eu31 Eu 0.16241 0.59376 0.73746 0.0
C32 C 0.506 0.62907 0.71248 0.0
O33 O 0.55463 0.65387 0.76109 0.0
C34 C 0.23899 0.69193 0.6213 0.0
O35 O 0.04757 0.54472 0.74297 0.0
C36 C 0.19276 0.66122 0.86064 0.0
C37 C 0.02545 0.5118 0.8043 0.0
O38 O 0.06725 0.51461 0.86418 0.0
C39 C 0.25544 0.4355 0.73291 0.0
C40 C 0.21209 0.72212 0.91284 0.0
C41 C 0.21917 0.79809 0.89167 0.0
C42 C 0.22388 0.85439 0.94677 0.0
C43 C 0.22042 0.83402 1.02214 0.0
C44 C 0.21095 0.75897 1.04343 0.0
C45 C 0.20959 0.7035 0.98833 0.0
O46 O 0.29148 0.6781 0.67034 0.0
O47 O 0.17339 0.66232 0.6343 0.0
O48 O 0.4076 0.55016 0.56547 0.0
O49 O 0.29034 0.52709 0.56898 0.0
C50 C 0.35043 0.52512 0.52823 0.0
O51 O 0.19149 0.47077 0.72313 0.0
O52 O 0.31966 0.47165 0.73521 0.0
O53 O 0.12599 0.66222 0.82965 0.0
O54 O 0.24459 0.62413 0.82323 0.0
H55 H 0.21798 0.81338 0.83346 0.0
H56 H 0.22103 0.87746 1.06418 0.0
H57 H 0.20103 0.64541 1.00393 0.0
O58 O 0.60212 0.53945 0.42581 0.0
Tb59 Tb 0.57009 0.63508 0.49393 0.0
Eu60 Eu 0.59377 0.81895 0.42476 0.0
C61 C 0.62913 0.47538 0.44974 0.0
O62 O 0.65394 0.42674 0.40113 0.0
C63 C 0.69195 0.74237 0.54091 0.0
O64 O 0.54473 0.93378 0.41923 0.0
C65 C 0.66123 0.7886 0.30157 0.0
C66 C 0.51182 0.9559 0.35792 0.0
O67 O 0.51463 0.91411 0.29802 0.0
C68 C 0.43551 0.72592 0.42929 0.0
C69 C 0.72213 0.76928 0.24937 0.0
C70 C 0.79811 0.76219 0.27054 0.0
C71 C 0.8544 0.75748 0.21544 0.0
C72 C 0.83403 0.76094 0.14007 0.0
C73 C 0.75898 0.77043 0.11878 0.0
C74 C 0.70351 0.77178 0.17388 0.0
O75 O 0.67813 0.68988 0.49186 0.0
O76 O 0.66232 0.80797 0.52791 0.0
O77 O 0.55016 0.57376 0.59671 0.0
O78 O 0.52713 0.69103 0.59322 0.0
C79 C 0.52513 0.63093 0.63396 0.0
O80 O 0.47078 0.78986 0.43908 0.0
O81 O 0.47168 0.6617 0.42698 0.0
O82 O 0.66223 0.85537 0.33257 0.0
O83 O 0.62414 0.73677 0.33898 0.0
H84 H 0.81339 0.76337 0.32875 0.0
H85 H 0.87747 0.76034 0.09803 0.0
H86 H 0.64542 0.78035 0.15829 0.0
O87 O 0.53944 0.37928 0.73639 0.0
Tb88 Tb 0.63509 0.41128 0.66828 0.0
Eu89 Eu 0.81895 0.38759 0.73745 0.0
C90 C 0.47537 0.35228 0.71244 0.0
O91 O 0.42671 0.32745 0.76102 0.0
C92 C 0.74236 0.28941 0.6213 0.0
O93 O 0.93379 0.43662 0.74297 0.0
C94 C 0.7886 0.32013 0.86063 0.0
C95 C 0.95592 0.46952 0.80427 0.0
O96 O 0.91412 0.46672 0.86419 0.0
C97 C 0.72593 0.54585 0.73292 0.0
C98 C 0.76927 0.25924 0.91284 0.0
C99 C 0.76218 0.18326 0.89167 0.0
C100 C 0.75747 0.12696 0.94677 0.0
C101 C 0.76093 0.14734 1.02214 0.0
C102 C 0.77041 0.22239 1.04343 0.0
C103 C 0.77177 0.27786 0.98833 0.0
O104 O 0.68986 0.30323 0.67035 0.0
O105 O 0.80796 0.31903 0.6343 0.0
O106 O 0.57379 0.43123 0.56549 0.0
O107 O 0.69106 0.45424 0.56901 0.0
C108 C 0.63097 0.45624 0.52826 0.0
O109 O 0.78987 0.51058 0.72312 0.0
O110 O 0.66172 0.50969 0.73524 0.0
O111 O 0.85537 0.31912 0.82964 0.0
O112 O 0.73677 0.35722 0.82323 0.0
H113 H 0.76337 0.16797 0.83346 0.0
H114 H 0.76033 0.1039 1.06418 0.0
H115 H 0.78033 0.33594 1.00392 0.0
O116 O 0.8792 0.03943 0.2364 0.0
Tb117 Tb 0.91129 0.13507 0.16833 0.0
Eu118 Eu 0.88758 0.31894 0.23743 0.0
C119 C 0.85213 0.9754 0.21245 0.0
O120 O 0.82723 0.92677 0.26102 0.0
C121 C 0.78943 0.24231 0.12128 0.0
O122 O 0.93662 0.43378 0.24293 0.0
C123 C 0.82009 0.28864 0.36061 0.0
C124 C 0.96954 0.4559 0.30426 0.0
O125 O 0.96672 0.41411 0.36415 0.0
C126 C 0.04583 0.22592 0.23302 0.0
C127 C 0.75921 0.26932 0.41285 0.0
C128 C 0.68323 0.26221 0.3917 0.0
C129 C 0.62696 0.25749 0.44683 0.0
C130 C 0.64735 0.26095 0.52219 0.0
C131 C 0.72241 0.27045 0.54345 0.0
C132 C 0.77786 0.27183 0.48833 0.0
O133 O 0.8032 0.18978 0.1703 0.0
O134 O 0.81905 0.30791 0.13427 0.0
O135 O 0.93134 0.07379 1.06555 0.0
O136 O 0.95418 0.19108 1.06905 0.0
C137 C 0.95634 0.13099 1.02833 0.0
O138 O 0.01057 0.28986 0.22314 0.0
O139 O 0.00969 0.16169 0.23529 0.0
O140 O 0.81907 0.35539 0.32958 0.0
O141 O 0.85721 0.2368 0.32324 0.0
H142 H 0.66791 0.26339 0.3335 0.0
H143 H 0.60393 0.26032 0.56425 0.0
H144 H 0.83595 0.2804 0.5039 0.0
O145 O 0.03942 0.1021 0.9258 0.0
Tb146 Tb 0.13508 0.07004 0.99386 0.0
Eu147 Eu 0.31894 0.09376 0.92477 0.0
C148 C 0.97539 0.12916 0.94979 0.0
O149 O 0.92674 0.15407 0.90124 0.0
C150 C 0.2423 0.19191 1.04092 0.0
O151 O 0.43378 0.04473 0.91927 0.0
C152 C 0.28863 0.16125 0.80159 0.0
C153 C 0.45591 0.01182 0.85795 0.0
O154 O 0.41412 0.01464 0.79806 0.0
C155 C 0.22594 0.9355 0.92918 0.0
C156 C 0.26931 0.22212 0.74935 0.0
C157 C 0.26221 0.2981 0.77049 0.0
C158 C 0.25749 0.35437 0.71537 0.0
C159 C 0.26094 0.33398 0.64001 0.0
C160 C 0.27044 0.25892 0.61875 0.0
C161 C 0.27181 0.20347 0.67387 0.0
O162 O 0.18976 0.17813 0.9919 0.0
O163 O 0.3079 0.16228 1.02793 0.0
O164 O 0.07382 0.04997 0.09665 0.0
O165 O 0.19112 0.02715 0.09313 0.0
C166 C 0.13103 0.02498 0.13387 0.0
O167 O 0.28987 0.97077 0.93907 0.0
O168 O 0.1617 0.97164 0.9269 0.0
O169 O 0.35539 0.16228 0.83262 0.0
O170 O 0.2368 0.12412 0.83896 0.0
H171 H 0.2634 0.31342 0.8287 0.0
H172 H 0.26032 0.37739 0.59795 0.0
H173 H 0.28039 0.14538 0.6583 0.0
O174 O 0.10216 0.94191 0.2364 0.0
Tb175 Tb 0.07006 0.84625 0.16835 0.0
Eu176 Eu 0.09377 0.6624 0.23743 0.0
C177 C 0.12922 0.00593 0.21241 0.0
O178 O 0.15414 0.05458 0.26095 0.0
C179 C 0.19193 0.73904 0.12128 0.0
O180 O 0.04473 0.54756 0.24293 0.0
C181 C 0.16126 0.6927 0.36061 0.0
C182 C 0.01183 0.52543 0.30423 0.0
O183 O 0.01465 0.56722 0.36415 0.0
C184 C 0.93552 0.75541 0.23303 0.0
C185 C 0.22213 0.71203 0.41285 0.0
C186 C 0.29812 0.71913 0.3917 0.0
C187 C 0.35439 0.72385 0.44683 0.0
C188 C 0.33399 0.7204 0.52219 0.0
C189 C 0.25894 0.71088 0.54345 0.0
C190 C 0.20348 0.70951 0.48832 0.0
O191 O 0.17816 0.79157 0.1703 0.0
O192 O 0.16229 0.67344 0.13426 0.0
O193 O 0.04997 0.90752 1.06558 0.0
O194 O 0.02719 0.79022 1.06908 0.0
C195 C 0.025 0.85031 1.02836 0.0
O196 O 0.97078 0.69147 0.22313 0.0
O197 O 0.97166 0.81963 0.23533 0.0
O198 O 0.16229 0.62595 0.32957 0.0
O199 O 0.12413 0.74454 0.32324 0.0
H200 H 0.31343 0.71795 0.3335 0.0
H201 H 0.37741 0.72102 0.56425 0.0
H202 H 0.14539 0.70093 0.5039 0.0
O203 O 0.94193 0.87923 0.92583 0.0
Tb204 Tb 0.84628 0.91132 0.99389 0.0
Eu205 Eu 0.66241 0.88759 0.92478 0.0
C206 C 0.00594 0.85213 0.94982 0.0
O207 O 0.05458 0.8272 0.90127 0.0
C208 C 0.73906 0.78945 1.04093 0.0
O209 O 0.54757 0.93663 0.91927 0.0
C210 C 0.69272 0.8201 0.8016 0.0
C211 C 0.52545 0.96953 0.85797 0.0
O212 O 0.56723 0.96671 0.79806 0.0
C213 C 0.75542 0.04585 0.92919 0.0
C214 C 0.71204 0.75923 0.74936 0.0
C215 C 0.71915 0.68324 0.77051 0.0
C216 C 0.72387 0.62697 0.71538 0.0
C217 C 0.72042 0.64737 0.64002 0.0
C218 C 0.71091 0.72243 0.61876 0.0
C219 C 0.70953 0.77788 0.67389 0.0
O220 O 0.79159 0.80323 0.99191 0.0
O221 O 0.67345 0.81907 1.02794 0.0
O222 O 0.90753 0.93135 0.09669 0.0
O223 O 0.79024 0.95419 0.09317 0.0
C224 C 0.85032 0.95629 0.13392 0.0
O225 O 0.69149 0.01059 0.93906 0.0
O226 O 0.81966 0.00972 0.92693 0.0
O227 O 0.62597 0.81907 0.83263 0.0
O228 O 0.74456 0.85722 0.83897 0.0
H229 H 0.71796 0.66793 0.82871 0.0
H230 H 0.72104 0.60395 0.59796 0.0
H231 H 0.70095 0.83597 0.65831 0.0
loop_
_geom_bond_atom_site_label_1
_geom_bond_atom_site_label_2
_geom_bond_distance
_geom_bond_site_symmetry_2
_ccdc_geom_bond_type
O0 Tb1 2.292 . S
O0 C3 1.255 . S
Tb1 O0 2.292 . S
Tb1 O17 2.326 . S
Tb1 O19 2.500 . S
Tb1 O20 2.473 . S
Tb1 O23 2.324 . S
Eu2 O6 2.292 . S
Eu2 C7 2.852 . S
Eu2 O18 2.324 . S
Eu2 O22 2.326 . S
Eu2 O24 2.500 . S
Eu2 O25 2.473 . S
C3 O0 1.255 . S
C3 O4 1.247 . S
O4 C3 1.247 . S
C5 O17 1.242 . S
C5 O18 1.258 . S
O6 Eu2 2.292 . S
O6 C8 1.255 . S
C7 Eu2 2.852 . S
C7 C11 1.503 . S
C7 O24 1.273 . S
C7 O25 1.257 . S
C8 O6 1.255 . S
C8 O9 1.247 . S
O9 C8 1.247 . S
C10 O22 1.242 . S
C10 O23 1.258 . S
C11 C7 1.503 . S
C11 C12 1.379 . S
C11 C16 1.392 . S
C12 C11 1.379 . S
C12 C13 1.404 . S
C12 H26 0.929 . S
C13 C12 1.404 . S
C13 C14 1.389 . S
C14 C13 1.389 . S
C14 C15 1.399 . S
C14 H27 0.931 . S
C15 C14 1.399 . S
C15 C16 1.390 . S
C16 C11 1.392 . S
C16 C15 1.390 . S
C16 H28 0.929 . S
O17 Tb1 2.326 . S
O17 C5 1.242 . S
O18 Eu2 2.324 . S
O18 C5 1.258 . S
O19 Tb1 2.500 . S
O19 C21 1.273 . S
O20 Tb1 2.473 . S
O20 C21 1.257 . S
C21 O19 1.273 . S
C21 O20 1.257 . S
O22 Eu2 2.326 . S
O22 C10 1.242 . S
O23 Tb1 2.324 . S
O23 C10 1.258 . S
O24 Eu2 2.500 . S
O24 C7 1.273 . S
O25 Eu2 2.473 . S
O25 C7 1.257 . S
H26 C12 0.929 . S
H27 C14 0.931 . S
H28 C16 0.929 . S
O29 Tb30 2.292 . S
O29 C32 1.255 . S
Tb30 O29 2.292 . S
Tb30 O46 2.326 . S
Tb30 O48 2.500 . S
Tb30 O49 2.473 . S
Tb30 O52 2.324 . S
Eu31 O35 2.292 . S
Eu31 C36 2.852 . S
Eu31 O47 2.324 . S
Eu31 O51 2.326 . S
Eu31 O53 2.500 . S
Eu31 O54 2.473 . S
C32 O29 1.255 . S
C32 O33 1.247 . S
O33 C32 1.247 . S
C34 O46 1.242 . S
C34 O47 1.258 . S
O35 Eu31 2.292 . S
O35 C37 1.255 . S
C36 Eu31 2.852 . S
C36 C40 1.503 . S
C36 O53 1.273 . S
C36 O54 1.257 . S
C37 O35 1.255 . S
C37 O38 1.247 . S
O38 C37 1.247 . S
C39 O51 1.242 . S
C39 O52 1.258 . S
C40 C36 1.503 . S
C40 C41 1.379 . S
C40 C45 1.392 . S
C41 C40 1.379 . S
C41 C42 1.404 . S
C41 H55 0.929 . S
C42 C41 1.404 . S
C42 C43 1.389 . S
C43 C42 1.389 . S
C43 C44 1.399 . S
C43 H56 0.931 . S
C44 C43 1.399 . S
C44 C45 1.390 . S
C45 C40 1.392 . S
C45 C44 1.390 . S
C45 H57 0.929 . S
O46 Tb30 2.326 . S
O46 C34 1.242 . S
O47 Eu31 2.324 . S
O47 C34 1.258 . S
O48 Tb30 2.500 . S
O48 C50 1.273 . S
O49 Tb30 2.473 . S
O49 C50 1.257 . S
C50 O48 1.273 . S
C50 O49 1.257 . S
O51 Eu31 2.326 . S
O51 C39 1.242 . S
O52 Tb30 2.324 . S
O52 C39 1.258 . S
O53 Eu31 2.500 . S
O53 C36 1.273 . S
O54 Eu31 2.473 . S
O54 C36 1.257 . S
H55 C41 0.929 . S
H56 C43 0.931 . S
H57 C45 0.929 . S
O58 Tb59 2.292 . S
O58 C61 1.255 . S
Tb59 O58 2.292 . S
Tb59 O75 2.326 . S
Tb59 O77 2.500 . S
Tb59 O78 2.473 . S
Tb59 O81 2.324 . S
Eu60 O64 2.292 . S
Eu60 C65 2.852 . S
Eu60 O76 2.324 . S
Eu60 O80 2.326 . S
Eu60 O82 2.500 . S
Eu60 O83 2.473 . S
C61 O58 1.255 . S
C61 O62 1.247 . S
O62 C61 1.247 . S
C63 O75 1.242 . S
C63 O76 1.258 . S
O64 Eu60 2.292 . S
O64 C66 1.255 . S
C65 Eu60 2.852 . S
C65 C69 1.503 . S
C65 O82 1.273 . S
C65 O83 1.257 . S
C66 O64 1.255 . S
C66 O67 1.247 . S
O67 C66 1.247 . S
C68 O80 1.242 . S
C68 O81 1.258 . S
C69 C65 1.503 . S
C69 C70 1.379 . S
C69 C74 1.392 . S
C70 C69 1.379 . S
C70 C71 1.404 . S
C70 H84 0.929 . S
C71 C70 1.404 . S
C71 C72 1.389 . S
C72 C71 1.389 . S
C72 C73 1.399 . S
C72 H85 0.931 . S
C73 C72 1.399 . S
C73 C74 1.390 . S
C74 C69 1.392 . S
C74 C73 1.390 . S
C74 H86 0.929 . S
O75 Tb59 2.326 . S
O75 C63 1.242 . S
O76 Eu60 2.324 . S
O76 C63 1.258 . S
O77 Tb59 2.500 . S
O77 C79 1.273 . S
O78 Tb59 2.473 . S
O78 C79 1.257 . S
C79 O77 1.273 . S
C79 O78 1.257 . S
O80 Eu60 2.326 . S
O80 C68 1.242 . S
O81 Tb59 2.324 . S
O81 C68 1.258 . S
O82 Eu60 2.500 . S
O82 C65 1.273 . S
O83 Eu60 2.473 . S
O83 C65 1.257 . S
H84 C70 0.929 . S
H85 C72 0.931 . S
H86 C74 0.929 . S
O87 Tb88 2.292 . S
O87 C90 1.255 . S
Tb88 O87 2.292 . S
Tb88 O104 2.326 . S
Tb88 O106 2.500 . S
Tb88 O107 2.473 . S
Tb88 O110 2.324 . S
Eu89 O93 2.292 . S
Eu89 C94 2.852 . S
Eu89 O105 2.324 . S
Eu89 O109 2.326 . S
Eu89 O111 2.500 . S
Eu89 O112 2.473 . S
C90 O87 1.255 . S
C90 O91 1.247 . S
O91 C90 1.247 . S
C92 O104 1.242 . S
C92 O105 1.258 . S
O93 Eu89 2.292 . S
O93 C95 1.255 . S
C94 Eu89 2.852 . S
C94 C98 1.503 . S
C94 O111 1.273 . S
C94 O112 1.257 . S
C95 O93 1.255 . S
C95 O96 1.247 . S
O96 C95 1.247 . S
C97 O109 1.242 . S
C97 O110 1.258 . S
C98 C94 1.503 . S
C98 C99 1.379 . S
C98 C103 1.392 . S
C99 C98 1.379 . S
C99 C100 1.404 . S
C99 H113 0.929 . S
C100 C99 1.404 . S
C100 C101 1.389 . S
C101 C100 1.389 . S
C101 C102 1.399 . S
C101 H114 0.931 . S
C102 C101 1.399 . S
C102 C103 1.390 . S
C103 C98 1.392 . S
C103 C102 1.390 . S
C103 H115 0.929 . S
O104 Tb88 2.326 . S
O104 C92 1.242 . S
O105 Eu89 2.324 . S
O105 C92 1.258 . S
O106 Tb88 2.500 . S
O106 C108 1.273 . S
O107 Tb88 2.473 . S
O107 C108 1.257 . S
C108 O106 1.273 . S
C108 O107 1.257 . S
O109 Eu89 2.326 . S
O109 C97 1.242 . S
O110 Tb88 2.324 . S
O110 C97 1.258 . S
O111 Eu89 2.500 . S
O111 C94 1.273 . S
O112 Eu89 2.473 . S
O112 C94 1.257 . S
H113 C99 0.929 . S
H114 C101 0.931 . S
H115 C103 0.929 . S
O116 Tb117 2.292 . S
O116 C119 1.255 . S
Tb117 O116 2.292 . S
Tb117 O133 2.326 . S
Tb117 O135 2.500 1_554 S
Tb117 O136 2.473 1_655 S
Tb117 O139 2.324 . S
Eu118 O122 2.292 . S
Eu118 C123 2.852 . S
Eu118 O134 2.324 . S
Eu118 O138 2.326 . S
Eu118 O140 2.500 . S
Eu118 O141 2.473 . S
C119 O116 1.255 . S
C119 O120 1.247 . S
O120 C119 1.247 . S
C121 O133 1.242 . S
C121 O134 1.258 . S
O122 Eu118 2.292 . S
O122 C124 1.255 1_655 S
C123 Eu118 2.852 . S
C123 C127 1.503 . S
C123 O140 1.273 . S
C123 O141 1.257 . S
C124 O122 1.255 1_455 S
C124 O125 1.247 . S
O125 C124 1.247 . S
C126 O138 1.242 . S
C126 O139 1.258 . S
C127 C123 1.503 . S
C127 C128 1.379 . S
C127 C132 1.392 . S
C128 C127 1.379 . S
C128 C129 1.404 . S
C128 H142 0.929 . S
C129 C128 1.404 . S
C129 C130 1.389 . S
C130 C129 1.389 . S
C130 C131 1.399 . S
C130 H143 0.931 . S
C131 C130 1.399 . S
C131 C132 1.390 . S
C132 C127 1.392 . S
C132 C131 1.390 . S
C132 H144 0.929 . S
O133 Tb117 2.326 . S
O133 C121 1.242 . S
O134 Eu118 2.324 . S
O134 C121 1.258 . S
O135 Tb117 2.500 1_556 S
O135 C137 1.273 1_655 S
O136 Tb117 2.473 1_455 S
O136 C137 1.257 1_554 S
C137 O135 1.273 1_455 S
C137 O136 1.257 1_556 S
O138 Eu118 2.326 . S
O138 C126 1.242 . S
O139 Tb117 2.324 . S
O139 C126 1.258 . S
O140 Eu118 2.500 . S
O140 C123 1.273 . S
O141 Eu118 2.473 . S
O141 C123 1.257 . S
H142 C128 0.929 . S
H143 C130 0.931 . S
H144 C132 0.929 . S
O145 Tb146 2.292 . S
O145 C148 1.255 . S
Tb146 O145 2.292 . S
Tb146 O162 2.326 . S
Tb146 O164 2.500 1_556 S
Tb146 O165 2.473 1_545 S
Tb146 O168 2.324 . S
Eu147 O151 2.292 . S
Eu147 C152 2.852 . S
Eu147 O163 2.324 . S
Eu147 O167 2.326 . S
Eu147 O169 2.500 . S
Eu147 O170 2.473 . S
C148 O145 1.255 . S
C148 O149 1.247 . S
O149 C148 1.247 . S
C150 O162 1.242 . S
C150 O163 1.258 . S
O151 Eu147 2.292 . S
O151 C153 1.255 1_545 S
C152 Eu147 2.852 . S
C152 C156 1.503 . S
C152 O169 1.273 . S
C152 O170 1.257 . S
C153 O151 1.255 1_565 S
C153 O154 1.247 . S
O154 C153 1.247 . S
C155 O167 1.242 . S
C155 O168 1.258 . S
C156 C152 1.503 . S
C156 C157 1.379 . S
C156 C161 1.392 . S
C157 C156 1.379 . S
C157 C158 1.404 . S
C157 H171 0.929 . S
C158 C157 1.404 . S
C158 C159 1.389 . S
C159 C158 1.389 . S
C159 C160 1.399 . S
C159 H172 0.931 . S
C160 C159 1.399 . S
C160 C161 1.390 . S
C161 C156 1.392 . S
C161 C160 1.390 . S
C161 H173 0.929 . S
O162 Tb146 2.326 . S
O162 C150 1.242 . S
O163 Eu147 2.324 . S
O163 C150 1.258 . S
O164 Tb146 2.500 1_554 S
O164 C166 1.273 1_545 S
O165 Tb146 2.473 1_565 S
O165 C166 1.257 1_556 S
C166 O164 1.273 1_565 S
C166 O165 1.257 1_554 S
O167 Eu147 2.326 . S
O167 C155 1.242 . S
O168 Tb146 2.324 . S
O168 C155 1.258 . S
O169 Eu147 2.500 . S
O169 C152 1.273 . S
O170 Eu147 2.473 . S
O170 C152 1.257 . S
H171 C157 0.929 . S
H172 C159 0.931 . S
H173 C161 0.929 . S
O174 Tb175 2.292 . S
O174 C177 1.255 . S
Tb175 O174 2.292 . S
Tb175 O191 2.326 . S
Tb175 O193 2.500 1_554 S
Tb175 O194 2.473 1_455 S
Tb175 O197 2.324 . S
Eu176 O180 2.292 . S
Eu176 C181 2.852 . S
Eu176 O192 2.324 . S
Eu176 O196 2.326 . S
Eu176 O198 2.500 . S
Eu176 O199 2.473 . S
C177 O174 1.255 . S
C177 O178 1.247 . S
O178 C177 1.247 . S
C179 O191 1.242 . S
C179 O192 1.258 . S
O180 Eu176 2.292 . S
O180 C182 1.255 1_455 S
C181 Eu176 2.852 . S
C181 C185 1.503 . S
C181 O198 1.273 . S
C181 O199 1.257 . S
C182 O180 1.255 1_655 S
C182 O183 1.247 . S
O183 C182 1.247 . S
C184 O196 1.242 . S
C184 O197 1.258 . S
C185 C181 1.503 . S
C185 C186 1.379 . S
C185 C190 1.392 . S
C186 C185 1.379 . S
C186 C187 1.404 . S
C186 H200 0.929 . S
C187 C186 1.404 . S
C187 C188 1.389 . S
C188 C187 1.389 . S
C188 C189 1.399 . S
C188 H201 0.931 . S
C189 C188 1.399 . S
C189 C190 1.390 . S
C190 C185 1.392 . S
C190 C189 1.390 . S
C190 H202 0.929 . S
O191 Tb175 2.326 . S
O191 C179 1.242 . S
O192 Eu176 2.324 . S
O192 C179 1.258 . S
O193 Tb175 2.500 1_556 S
O193 C195 1.273 1_455 S
O194 Tb175 2.473 1_655 S
O194 C195 1.257 1_554 S
C195 O193 1.273 1_655 S
C195 O194 1.257 1_556 S
O196 Eu176 2.326 . S
O196 C184 1.242 . S
O197 Tb175 2.324 . S
O197 C184 1.258 . S
O198 Eu176 2.500 . S
O198 C181 1.273 . S
O199 Eu176 2.473 . S
O199 C181 1.257 . S
H200 C186 0.929 . S
H201 C188 0.931 . S
H202 C190 0.929 . S
O203 Tb204 2.292 . S
O203 C206 1.255 . S
Tb204 O203 2.292 . S
Tb204 O220 2.326 . S
Tb204 O222 2.500 1_556 S
Tb204 O223 2.473 1_565 S
Tb204 O226 2.324 . S
Eu205 O209 2.292 . S
Eu205 C210 2.852 . S
Eu205 O221 2.324 . S
Eu205 O225 2.326 . S
Eu205 O227 2.500 . S
Eu205 O228 2.473 . S
C206 O203 1.255 . S
C206 O207 1.247 . S
O207 C206 1.247 . S
C208 O220 1.242 . S
C208 O221 1.258 . S
O209 Eu205 2.292 . S
O209 C211 1.255 1_565 S
C210 Eu205 2.852 . S
C210 C214 1.503 . S
C210 O227 1.273 . S
C210 O228 1.257 . S
C211 O209 1.255 1_545 S
C211 O212 1.247 . S
O212 C211 1.247 . S
C213 O225 1.242 . S
C213 O226 1.258 . S
C214 C210 1.503 . S
C214 C215 1.379 . S
C214 C219 1.392 . S
C215 C214 1.379 . S
C215 C216 1.404 . S
C215 H229 0.929 . S
C216 C215 1.404 . S
C216 C217 1.389 . S
C217 C216 1.389 . S
C217 C218 1.399 . S
C217 H230 0.931 . S
C218 C217 1.399 . S
C218 C219 1.390 . S
C219 C214 1.392 . S
C219 C218 1.390 . S
C219 H231 0.929 . S
O220 Tb204 2.326 . S
O220 C208 1.242 . S
O221 Eu205 2.324 . S
O221 C208 1.258 . S
O222 Tb204 2.500 1_554 S
O222 C224 1.273 1_565 S
O223 Tb204 2.473 1_545 S
O223 C224 1.257 1_556 S
C224 O222 1.273 1_545 S
C224 O223 1.257 1_554 S
O225 Eu205 2.326 . S
O225 C213 1.242 . S
O226 Tb204 2.324 . S
O226 C213 1.258 . S
O227 Eu205 2.500 . S
O227 C210 1.273 . S
O228 Eu205 2.473 . S
O228 C210 1.257 . S
H229 C215 0.929 . S
H230 C217 0.931 . S
H231 C219 0.929 . S
C15 C150 3.054 1_554 S
C179 C44 3.054 1_554 S
C208 C73 3.054 1_556 S
C102 C121 3.054 1_556 S
C131 C92 3.054 . S
C160 C5 3.054 . S
C189 C34 3.054 . S
C218 C63 3.054 . S
C8 C66 1.195 1_545 S
C95 C37 1.195 1_655 S
C124 C182 1.195 1_455 S
C153 C211 1.195 1_565 S
C10 C129 3.260 . S
C158 C39 3.260 . S
C68 C187 3.260 . S
C216 C97 3.260 . S
C126 C13 3.260 1_655 S
C155 C42 3.260 1_545 S
C71 C184 3.260 1_655 S
C100 C213 3.260 1_545 S
C3 C50 1.579 . S
C79 C32 1.579 . S
C108 C61 1.579 . S
C21 C90 1.579 . S
C224 C119 1.579 . S
C137 C148 1.579 . S
C177 C166 1.579 . S
C206 C195 1.579 . S
