# Generated by pormake.
# Topology dmp, (4)-cn, num edge types: 1
# Building blocks:
#     Node 0, Type 0, BuildingBlock: AZAVOO_clean_sbu_0, # of connection points: 4
#     Node 1, Type 0, BuildingBlock: AZAVOO_clean_sbu_0, # of connection points: 4
#     Node 2, Type 0, BuildingBlock: AZAVOO_clean_sbu_0, # of connection points: 4
#     Node 3, Type 0, BuildingBlock: AZAVOO_clean_sbu_0, # of connection points: 4
#     Edge 4, Type (0, 0), BuildingBlock: XIVTED_clean_linker_0, # of connection points: 2
#     Edge 5, Type (0, 0), BuildingBlock: XIVTED_clean_linker_0, # of connection points: 2
#     Edge 6, Type (0, 0), BuildingBlock: XIVTED_clean_linker_0, # of connection points: 2
#     Edge 7, Type (0, 0), BuildingBlock: XIVTED_clean_linker_0, # of connection points: 2
#     Edge 8, Type (0, 0), BuildingBlock: XIVTED_clean_linker_0, # of connection points: 2
#     Edge 9, Type (0, 0), BuildingBlock: XIVTED_clean_linker_0, # of connection points: 2
#     Edge 10, Type (0, 0), BuildingBlock: XIVTED_clean_linker_0, # of connection points: 2
#     Edge 11, Type (0, 0), BuildingBlock: XIVTED_clean_linker_0, # of connection points: 2
# Relax obj value: 0.244
# Max RMSD: 0.265
# Mean RMSD: 0.265
data_MOF--net-dmp--node1-AZAVOO_clean_sbu_0--edge1-XIVTED_clean_linker_0
_symmetry_space_group_name_H-M    P1
_symmetry_Int_Tables_number       1
_symmetry_cell_setting            triclinic
loop_
_symmetry_equiv_pos_as_xyz
'x, y, z'
_cell_length_a     37.418896
_cell_length_b     15.570568
_cell_length_c     21.481599
_cell_angle_alpha  89.767915
_cell_angle_beta   90.215831
_cell_angle_gamma 101.22903
loop_
_atom_site_label
_atom_site_type_symbol
_atom_site_fract_x
_atom_site_fract_y
_atom_site_fract_z
_atom_type_partial_charge
Mg0 Mg 0.06958 0.1236 0.35056 0.0
O1 O 0.11907 0.22194 0.31419 0.0
O2 O 0.15922 0.1482 0.27453 0.0
Mg3 Mg 0.13292 0.0026 0.27808 0.0
C4 C 0.14983 0.22002 0.28922 0.0
C5 C 0.02511 0.23482 0.42067 0.0
O6 O 0.02398 0.16577 0.45652 0.0
O7 O 0.04732 0.10013 0.25148 0.0
O8 O 0.08704 0.02496 0.21183 0.0
O9 O 0.10015 0.11813 0.43875 0.0
O10 O 0.10128 0.02791 0.3596 0.0
C11 C 0.05878 0.05926 0.20653 0.0
C12 C 0.11403 0.05737 0.41279 0.0
O13 O 0.04072 0.23683 0.36809 0.0
Mg14 Mg 0.40782 0.8912 0.35211 0.0
O15 O 0.35886 0.79018 0.31597 0.0
O16 O 0.31847 0.86183 0.27363 0.0
Mg17 Mg 0.34354 0.00798 0.27586 0.0
C18 C 0.32817 0.79074 0.28984 0.0
C19 C 0.4227 0.72032 0.40822 0.0
O20 O 0.38927 0.72112 0.42632 0.0
O21 O 0.42999 0.91337 0.25296 0.0
O22 O 0.38992 0.98652 0.21113 0.0
O23 O 0.37747 0.89813 0.43995 0.0
O24 O 0.37487 0.98469 0.35878 0.0
C25 C 0.41843 0.95304 0.20708 0.0
C26 C 0.36248 0.9562 0.41243 0.0
O27 O 0.4387 0.78138 0.37271 0.0
Mg28 Mg 0.90787 0.88356 0.66162 0.0
O29 O 0.85933 0.78315 0.69902 0.0
O30 O 0.81835 0.85475 0.73831 0.0
Mg31 Mg 0.84309 1.00119 0.73316 0.0
C32 C 0.8285 0.78362 0.72419 0.0
C33 C 0.95458 0.77543 0.59348 0.0
O34 O 0.9556 0.84425 0.55743 0.0
O35 O 0.9301 0.91039 0.76032 0.0
O36 O 0.88961 0.98359 0.79968 0.0
O37 O 0.87703 0.88501 0.57343 0.0
O38 O 0.87485 0.97626 0.6516 0.0
C39 C 0.91838 0.95125 0.805 0.0
C40 C 0.8623 0.94485 0.59874 0.0
O41 O 0.93822 0.77267 0.64541 0.0
Mg42 Mg 0.56932 0.11485 0.66128 0.0
O43 O 0.61804 0.21538 0.69828 0.0
O44 O 0.65878 0.1443 0.73997 0.0
Mg45 Mg 0.6338 0.99794 0.73671 0.0
C46 C 0.64877 0.21523 0.72431 0.0
C47 C 0.55464 0.28707 0.60708 0.0
O48 O 0.58815 0.28676 0.5892 0.0
O49 O 0.54702 0.09089 0.76017 0.0
O50 O 0.58724 0.01786 0.80167 0.0
O51 O 0.59994 0.10948 0.57351 0.0
O52 O 0.60226 0.0215 0.65402 0.0
C53 C 0.5586 0.05081 0.80583 0.0
C54 C 0.61465 0.05052 0.6005 0.0
O55 O 0.53848 0.22506 0.64166 0.0
H56 H 0.31081 0.84996 0.48162 0.0
H57 H 0.13534 0.9005 0.40784 0.0
H58 H 0.33461 0.10293 0.39177 0.0
H59 H 0.17123 0.16857 0.46523 0.0
H60 H 0.19683 0.87381 0.4275 0.0
H61 H 0.24841 0.87061 0.50068 0.0
C62 C 0.30315 0.91069 0.4673 0.0
C63 C 0.32761 0.97463 0.43455 0.0
C64 C 0.19091 0.93769 0.43762 0.0
C65 C 0.25684 0.9982 0.45608 0.0
C66 C 0.156 0.95296 0.42615 0.0
C67 C 0.14839 0.0365 0.43548 0.0
C68 C 0.21847 0.00727 0.4567 0.0
C69 C 0.17607 0.10294 0.45833 0.0
C70 C 0.26759 0.92197 0.47774 0.0
C71 C 0.31634 0.05184 0.41661 0.0
N72 N 0.21028 0.08751 0.46665 0.0
N73 N 0.28161 0.06146 0.42747 0.0
H74 H 0.22334 0.24304 0.2683 0.0
H75 H 0.25531 0.7661 0.2624 0.0
H76 H 0.13677 0.38732 0.29157 0.0
H77 H 0.34135 0.62365 0.29898 0.0
H78 H 0.2119 0.62719 0.25576 0.0
H79 H 0.26714 0.38168 0.26219 0.0
C80 C 0.21345 0.30379 0.27147 0.0
C81 C 0.17627 0.30342 0.28067 0.0
C82 C 0.24031 0.62639 0.26493 0.0
C83 C 0.22635 0.46228 0.27366 0.0
C84 C 0.26519 0.70567 0.26844 0.0
C85 C 0.3021 0.70672 0.28144 0.0
C86 C 0.2524 0.54735 0.2738 0.0
C87 C 0.31317 0.62612 0.28914 0.0
C88 C 0.23853 0.38287 0.26831 0.0
C89 C 0.16516 0.38434 0.2848 0.0
N90 N 0.28843 0.54972 0.28519 0.0
N91 N 0.19008 0.46043 0.28125 0.0
H92 H 0.6692 0.16083 0.54051 0.0
H93 H 0.8065 0.82891 0.54657 0.0
H94 H 0.63887 0.89735 0.61169 0.0
H95 H 0.8385 0.09896 0.60199 0.0
H96 H 0.74422 0.85238 0.5286 0.0
H97 H 0.73097 0.1354 0.52128 0.0
C98 C 0.67528 0.09689 0.55033 0.0
C99 C 0.64919 0.03101 0.57791 0.0
C100 C 0.76521 0.90679 0.54317 0.0
C101 C 0.71902 0.00166 0.5554 0.0
C102 C 0.80064 0.89375 0.55301 0.0
C103 C 0.82739 0.96227 0.57585 0.0
C104 C 0.75698 0.9893 0.55487 0.0
C105 C 0.81844 0.04464 0.58453 0.0
C106 C 0.71043 0.08275 0.53969 0.0
C107 C 0.65843 0.94973 0.59063 0.0
N108 N 0.78384 0.05596 0.57416 0.0
N109 N 0.69274 0.93727 0.57941 0.0
H110 H 0.84308 0.61765 0.72165 0.0
H111 H 0.63439 0.38118 0.71735 0.0
H112 H 0.75505 0.75695 0.74647 0.0
H113 H 0.72194 0.24213 0.75007 0.0
H114 H 0.67817 0.51962 0.72447 0.0
H115 H 0.79925 0.47922 0.72865 0.0
C116 C 0.81459 0.61921 0.72899 0.0
C117 C 0.80277 0.69922 0.73335 0.0
C118 C 0.68773 0.45881 0.73063 0.0
C119 C 0.75238 0.54082 0.74072 0.0
C120 C 0.66276 0.37968 0.72644 0.0
C121 C 0.67447 0.29973 0.73305 0.0
C122 C 0.7248 0.45817 0.74056 0.0
C123 C 0.71161 0.30205 0.74485 0.0
C124 C 0.78959 0.5401 0.73312 0.0
C125 C 0.76547 0.69699 0.74302 0.0
N126 N 0.73548 0.3799 0.74763 0.0
N127 N 0.74159 0.61915 0.74576 0.0
H128 H -0.00491 0.11341 0.17596 0.0
H129 H 0.98239 0.89904 0.83562 0.0
H130 H 0.07552 0.97775 0.10088 0.0
H131 H 0.90186 0.03501 0.90994 0.0
H132 H 0.01684 0.9272 0.93274 0.0
H133 H 0.96079 0.08681 0.07845 0.0
C134 C 0.00564 0.07838 0.13901 0.0
C135 C 0.03825 0.04767 0.14691 0.0
C136 C -0.0084 0.95079 0.92778 0.0
C137 C -0.00101 0.01659 0.03517 0.0
C138 C 0.97186 0.93455 0.87231 0.0
C139 C 0.93913 0.96469 0.86435 0.0
C140 C 0.97859 0.99754 0.97576 0.0
C141 C 0.92693 0.01047 0.91373 0.0
C142 C 0.98599 0.06303 0.08335 0.0
C143 C 0.05051 0.00259 0.09721 0.0
N144 N 0.94665 0.02553 0.96717 0.0
N145 N 0.03087 0.98833 0.04367 0.0
H146 H 0.49478 0.10472 0.83449 0.0
H147 H 0.48212 0.89831 0.17847 0.0
H148 H 0.57498 0.96933 0.91256 0.0
H149 H 0.40185 0.03307 0.09992 0.0
H150 H 0.51634 0.92264 0.08109 0.0
H151 H 0.46043 0.07946 0.93164 0.0
C152 C 0.50526 0.06995 0.872 0.0
C153 C 0.53787 0.03911 0.86508 0.0
C154 C 0.4912 0.94676 0.0852 0.0
C155 C 0.49853 0.0096 0.97653 0.0
C156 C 0.47159 0.93272 0.14081 0.0
C157 C 0.43903 0.96377 0.14768 0.0
C158 C 0.47821 0.99222 0.03601 0.0
C159 C 0.42681 0.00799 0.09705 0.0
C160 C 0.48558 0.05538 0.92749 0.0
C161 C 0.55001 0.99435 0.9155 0.0
N162 N 0.4464 0.02096 0.04357 0.0
N163 N 0.53035 0.98091 0.96892 0.0
H164 H -0.00948 0.76085 0.48465 0.0
H165 H -0.00956 0.25041 0.53062 0.0
H166 H 0.94838 0.61355 0.6481 0.0
H167 H 0.03168 0.39706 0.3664 0.0
H168 H 0.97465 0.38257 0.57415 0.0
H169 H 0.007 0.62911 0.44164 0.0
C170 C 0.98496 0.70095 0.51176 0.0
C171 C 0.96792 0.69823 0.57003 0.0
C172 C 0.98705 0.38587 0.52852 0.0
C173 C 0.98642 0.54672 0.52065 0.0
C174 C -0.00403 0.31028 0.50347 0.0
C175 C 0.01249 0.31264 0.44476 0.0
C176 C -0.00525 0.46464 0.49473 0.0
C177 C 0.01895 0.39214 0.41178 0.0
C178 C -0.00573 0.6256 0.48701 0.0
C179 C 0.96147 0.61873 0.60302 0.0
N180 N 0.01019 0.46504 0.43733 0.0
N181 N 0.97058 0.54606 0.57773 0.0
H182 H 0.49417 0.7074 0.39093 0.0
H183 H 0.4832 0.30008 0.6246 0.0
H184 H 0.39592 0.58353 0.48571 0.0
H185 H 0.58163 0.42524 0.5309 0.0
H186 H 0.45086 0.40457 0.57514 0.0
H187 H 0.52661 0.60361 0.44103 0.0
C188 C 0.47936 0.65806 0.42191 0.0
C189 C 0.44228 0.65432 0.4342 0.0
C190 C 0.47956 0.40931 0.56556 0.0
C191 C 0.47929 0.53576 0.49212 0.0
C192 C 0.49807 0.34985 0.594 0.0
C193 C 0.53515 0.35367 0.58175 0.0
C194 C 0.49826 0.47303 0.52455 0.0
C195 C 0.55301 0.41957 0.5416 0.0
C196 C 0.49792 0.59902 0.45073 0.0
C197 C 0.42452 0.58906 0.47491 0.0
N198 N 0.53439 0.47638 0.51432 0.0
N199 N 0.44319 0.53258 0.50249 0.0
loop_
_geom_bond_atom_site_label_1
_geom_bond_atom_site_label_2
_geom_bond_distance
_geom_bond_site_symmetry_2
_ccdc_geom_bond_type
Mg0 O1 2.028 . S
Mg0 O7 1.986 . S
Mg0 O9 2.114 . S
Mg0 O10 2.251 . S
Mg0 O13 2.010 . S
O1 Mg0 2.028 . S
O1 C4 1.250 . S
O2 Mg3 2.028 . S
O2 C4 1.248 . S
Mg3 O2 2.028 . S
Mg3 O8 2.032 . S
Mg3 O10 2.079 . S
C4 O1 1.250 . S
C4 O2 1.248 . S
C5 O6 1.264 . S
C5 O13 1.249 . S
O6 C5 1.264 . S
O7 Mg0 1.986 . S
O7 C11 1.246 . S
O8 Mg3 2.032 . S
O8 C11 1.259 . S
O9 Mg0 2.114 . S
O9 C12 1.252 . S
O10 Mg0 2.251 . S
O10 Mg3 2.079 . S
O10 C12 1.273 . S
C11 O7 1.246 . S
C11 O8 1.259 . S
C12 O9 1.252 . S
C12 O10 1.273 . S
O13 Mg0 2.010 . S
O13 C5 1.249 . S
Mg14 O15 2.028 . S
Mg14 O21 1.986 . S
Mg14 O23 2.114 . S
Mg14 O24 2.251 . S
Mg14 O27 2.010 . S
O15 Mg14 2.028 . S
O15 C18 1.250 . S
O16 Mg17 2.028 . S
O16 C18 1.248 . S
Mg17 O16 2.028 . S
Mg17 O22 2.032 . S
Mg17 O24 2.079 . S
C18 O15 1.250 . S
C18 O16 1.248 . S
C19 O20 1.264 . S
C19 O27 1.249 . S
O20 C19 1.264 . S
O21 Mg14 1.986 . S
O21 C25 1.246 . S
O22 Mg17 2.032 . S
O22 C25 1.259 . S
O23 Mg14 2.114 . S
O23 C26 1.252 . S
O24 Mg14 2.251 . S
O24 Mg17 2.079 . S
O24 C26 1.273 . S
C25 O21 1.246 . S
C25 O22 1.259 . S
C26 O23 1.252 . S
C26 O24 1.273 . S
O27 Mg14 2.010 . S
O27 C19 1.249 . S
Mg28 O29 2.028 . S
Mg28 O35 1.986 . S
Mg28 O37 2.114 . S
Mg28 O38 2.251 . S
Mg28 O41 2.010 . S
O29 Mg28 2.028 . S
O29 C32 1.250 . S
O30 Mg31 2.028 . S
O30 C32 1.248 . S
Mg31 O30 2.028 . S
Mg31 O36 2.032 . S
Mg31 O38 2.079 . S
C32 O29 1.250 . S
C32 O30 1.248 . S
C33 O34 1.264 . S
C33 O41 1.249 . S
O34 C33 1.264 . S
O35 Mg28 1.986 . S
O35 C39 1.246 . S
O36 Mg31 2.032 . S
O36 C39 1.259 . S
O37 Mg28 2.114 . S
O37 C40 1.252 . S
O38 Mg28 2.251 . S
O38 Mg31 2.079 . S
O38 C40 1.273 . S
C39 O35 1.246 . S
C39 O36 1.259 . S
C40 O37 1.252 . S
C40 O38 1.273 . S
O41 Mg28 2.010 . S
O41 C33 1.249 . S
Mg42 O43 2.028 . S
Mg42 O49 1.986 . S
Mg42 O51 2.114 . S
Mg42 O52 2.251 . S
Mg42 O55 2.010 . S
O43 Mg42 2.028 . S
O43 C46 1.250 . S
O44 Mg45 2.028 . S
O44 C46 1.248 . S
Mg45 O44 2.028 . S
Mg45 O50 2.032 . S
Mg45 O52 2.079 . S
C46 O43 1.250 . S
C46 O44 1.248 . S
C47 O48 1.264 . S
C47 O55 1.249 . S
O48 C47 1.264 . S
O49 Mg42 1.986 . S
O49 C53 1.246 . S
O50 Mg45 2.032 . S
O50 C53 1.259 . S
O51 Mg42 2.114 . S
O51 C54 1.252 . S
O52 Mg42 2.251 . S
O52 Mg45 2.079 . S
O52 C54 1.273 . S
C53 O49 1.246 . S
C53 O50 1.259 . S
C54 O51 1.252 . S
C54 O52 1.273 . S
O55 Mg42 2.010 . S
O55 C47 1.249 . S
H56 C62 0.930 . S
H57 C66 0.930 . S
H58 C71 0.929 . S
H59 C69 0.929 . S
H60 C64 0.929 1_565 S
H61 C70 0.929 1_545 S
C62 H56 0.930 . S
C62 C63 1.367 . S
C62 C70 1.378 . S
C63 C62 1.367 . S
C63 C71 1.433 . S
C64 H60 0.929 1_545 S
C64 C66 1.378 . S
C64 C68 1.350 . S
C65 C68 1.463 1_565 S
C65 C70 1.350 . S
C65 N73 1.427 . S
C66 H57 0.930 . S
C66 C64 1.378 . S
C66 C67 1.367 . S
C67 C66 1.367 . S
C67 C69 1.433 . S
C68 C64 1.350 . S
C68 C65 1.463 1_545 S
C68 N72 1.427 . S
C69 H59 0.929 . S
C69 C67 1.433 . S
C69 N72 1.384 . S
C70 H61 0.929 1_565 S
C70 C62 1.378 . S
C70 C65 1.350 . S
C71 H58 0.929 . S
C71 C63 1.433 . S
C71 N73 1.384 . S
N72 C68 1.427 . S
N72 C69 1.384 . S
N73 C65 1.427 . S
N73 C71 1.384 . S
H74 C80 0.930 . S
H75 C84 0.930 . S
H76 C89 0.929 . S
H77 C87 0.929 . S
H78 C82 0.929 . S
H79 C88 0.929 . S
C80 H74 0.930 . S
C80 C81 1.367 . S
C80 C88 1.378 . S
C81 C80 1.367 . S
C81 C89 1.433 . S
C82 H78 0.929 . S
C82 C84 1.378 . S
C82 C86 1.350 . S
C83 C86 1.463 . S
C83 C88 1.350 . S
C83 N91 1.427 . S
C84 H75 0.930 . S
C84 C82 1.378 . S
C84 C85 1.367 . S
C85 C84 1.367 . S
C85 C87 1.433 . S
C86 C82 1.350 . S
C86 C83 1.463 . S
C86 N90 1.427 . S
C87 H77 0.929 . S
C87 C85 1.433 . S
C87 N90 1.384 . S
C88 H79 0.929 . S
C88 C80 1.378 . S
C88 C83 1.350 . S
C89 H76 0.929 . S
C89 C81 1.433 . S
C89 N91 1.384 . S
N90 C86 1.427 . S
N90 C87 1.384 . S
N91 C83 1.427 . S
N91 C89 1.384 . S
H92 C98 0.930 . S
H93 C102 0.930 . S
H94 C107 0.929 . S
H95 C105 0.929 . S
H96 C100 0.929 . S
H97 C106 0.929 . S
C98 H92 0.930 . S
C98 C99 1.367 . S
C98 C106 1.378 . S
C99 C98 1.367 . S
C99 C107 1.433 1_545 S
C100 H96 0.929 . S
C100 C102 1.378 . S
C100 C104 1.350 . S
C101 C104 1.463 1_545 S
C101 C106 1.350 . S
C101 N109 1.427 1_545 S
C102 H93 0.930 . S
C102 C100 1.378 . S
C102 C103 1.367 . S
C103 C102 1.367 . S
C103 C105 1.433 1_565 S
C104 C100 1.350 . S
C104 C101 1.463 1_565 S
C104 N108 1.427 1_565 S
C105 H95 0.929 . S
C105 C103 1.433 1_545 S
C105 N108 1.384 . S
C106 H97 0.929 . S
C106 C98 1.378 . S
C106 C101 1.350 . S
C107 H94 0.929 . S
C107 C99 1.433 1_565 S
C107 N109 1.384 . S
N108 C104 1.427 1_545 S
N108 C105 1.384 . S
N109 C101 1.427 1_565 S
N109 C107 1.384 . S
H110 C116 0.930 . S
H111 C120 0.930 . S
H112 C125 0.929 . S
H113 C123 0.929 . S
H114 C118 0.929 . S
H115 C124 0.929 . S
C116 H110 0.930 . S
C116 C117 1.367 . S
C116 C124 1.378 . S
C117 C116 1.367 . S
C117 C125 1.433 . S
C118 H114 0.929 . S
C118 C120 1.378 . S
C118 C122 1.350 . S
C119 C122 1.463 . S
C119 C124 1.350 . S
C119 N127 1.427 . S
C120 H111 0.930 . S
C120 C118 1.378 . S
C120 C121 1.367 . S
C121 C120 1.367 . S
C121 C123 1.433 . S
C122 C118 1.350 . S
C122 C119 1.463 . S
C122 N126 1.427 . S
C123 H113 0.929 . S
C123 C121 1.433 . S
C123 N126 1.384 . S
C124 H115 0.929 . S
C124 C116 1.378 . S
C124 C119 1.350 . S
C125 H112 0.929 . S
C125 C117 1.433 . S
C125 N127 1.384 . S
N126 C122 1.427 . S
N126 C123 1.384 . S
N127 C119 1.427 . S
N127 C125 1.384 . S
H128 C134 0.930 . S
H129 C138 0.930 . S
H130 C143 0.929 . S
H131 C141 0.929 . S
H132 C136 0.929 1_545 S
H133 C142 0.929 1_565 S
C134 H128 0.930 . S
C134 C135 1.367 . S
C134 C142 1.378 1_455 S
C135 C134 1.367 . S
C135 C143 1.433 . S
C136 H132 0.929 1_565 S
C136 C138 1.378 1_455 S
C136 C140 1.350 1_455 S
C137 C140 1.463 1_444 S
C137 C142 1.350 1_455 S
C137 N145 1.427 . S
C138 H129 0.930 . S
C138 C136 1.378 1_655 S
C138 C139 1.367 . S
C139 C138 1.367 . S
C139 C141 1.433 . S
C140 C136 1.350 1_655 S
C140 C137 1.463 1_666 S
C140 N144 1.427 . S
C141 H131 0.929 . S
C141 C139 1.433 . S
C141 N144 1.384 . S
C142 H133 0.929 1_545 S
C142 C134 1.378 1_655 S
C142 C137 1.350 1_655 S
C143 H130 0.929 . S
C143 C135 1.433 . S
C143 N145 1.384 . S
N144 C140 1.427 . S
N144 C141 1.384 . S
N145 C137 1.427 . S
N145 C143 1.384 . S
H146 C152 0.930 . S
H147 C156 0.930 . S
H148 C161 0.929 . S
H149 C159 0.929 . S
H150 C154 0.929 1_545 S
H151 C160 0.929 1_565 S
C152 H146 0.930 . S
C152 C153 1.367 . S
C152 C160 1.378 . S
C153 C152 1.367 . S
C153 C161 1.433 . S
C154 H150 0.929 1_565 S
C154 C156 1.378 . S
C154 C158 1.350 . S
C155 C158 1.463 1_546 S
C155 C160 1.350 . S
C155 N163 1.427 . S
C156 H147 0.930 . S
C156 C154 1.378 . S
C156 C157 1.367 . S
C157 C156 1.367 . S
C157 C159 1.433 . S
C158 C154 1.350 . S
C158 C155 1.463 1_564 S
C158 N162 1.427 . S
C159 H149 0.929 . S
C159 C157 1.433 . S
C159 N162 1.384 . S
C160 H151 0.929 1_545 S
C160 C152 1.378 . S
C160 C155 1.350 . S
C161 H148 0.929 . S
C161 C153 1.433 . S
C161 N163 1.384 . S
N162 C158 1.427 . S
N162 C159 1.384 . S
N163 C155 1.427 . S
N163 C161 1.384 . S
H164 C170 0.930 . S
H165 C174 0.930 . S
H166 C179 0.929 . S
H167 C177 0.929 . S
H168 C172 0.929 . S
H169 C178 0.929 . S
C170 H164 0.930 . S
C170 C171 1.367 . S
C170 C178 1.378 1_655 S
C171 C170 1.367 . S
C171 C179 1.433 . S
C172 H168 0.929 . S
C172 C174 1.378 1_655 S
C172 C176 1.350 1_655 S
C173 C176 1.463 1_655 S
C173 C178 1.350 1_655 S
C173 N181 1.427 . S
C174 H165 0.930 . S
C174 C172 1.378 1_455 S
C174 C175 1.367 . S
C175 C174 1.367 . S
C175 C177 1.433 . S
C176 C172 1.350 1_455 S
C176 C173 1.463 1_455 S
C176 N180 1.427 . S
C177 H167 0.929 . S
C177 C175 1.433 . S
C177 N180 1.384 . S
C178 H169 0.929 . S
C178 C170 1.378 1_455 S
C178 C173 1.350 1_455 S
C179 H166 0.929 . S
C179 C171 1.433 . S
C179 N181 1.384 . S
N180 C176 1.427 . S
N180 C177 1.384 . S
N181 C173 1.427 . S
N181 C179 1.384 . S
H182 C188 0.930 . S
H183 C192 0.930 . S
H184 C197 0.929 . S
H185 C195 0.929 . S
H186 C190 0.929 . S
H187 C196 0.929 . S
C188 H182 0.930 . S
C188 C189 1.367 . S
C188 C196 1.378 . S
C189 C188 1.367 . S
C189 C197 1.433 . S
C190 H186 0.929 . S
C190 C192 1.378 . S
C190 C194 1.350 . S
C191 C194 1.463 . S
C191 C196 1.350 . S
C191 N199 1.427 . S
C192 H183 0.930 . S
C192 C190 1.378 . S
C192 C193 1.367 . S
C193 C192 1.367 . S
C193 C195 1.433 . S
C194 C190 1.350 . S
C194 C191 1.463 . S
C194 N198 1.427 . S
C195 H185 0.929 . S
C195 C193 1.433 . S
C195 N198 1.384 . S
C196 H187 0.929 . S
C196 C188 1.378 . S
C196 C191 1.350 . S
C197 H184 0.929 . S
C197 C189 1.433 . S
C197 N199 1.384 . S
N198 C194 1.427 . S
N198 C195 1.384 . S
N199 C191 1.427 . S
N199 C197 1.384 . S
C63 C26 0.883 . S
C67 C12 0.871 . S
C81 C4 0.713 . S
C85 C18 0.715 . S
C99 C54 0.868 . S
C103 C40 0.860 . S
C117 C32 0.745 . S
C121 C46 0.741 . S
C135 C11 1.504 . S
C139 C39 1.504 . S
C153 C53 1.503 . S
C157 C25 1.503 . S
C171 C33 1.512 . S
C175 C5 1.512 . S
C189 C19 1.516 . S
C193 C47 1.516 . S
