# Generated by pormake.
# Topology pcu, (6)-cn, num edge types: 1
# Building blocks:
#     Node 0, Type 0, BuildingBlock: KUMBUR_clean_sbu_1, # of connection points: 6
#     Edge 1, Type (0, 0), BuildingBlock: FUNLAD_clean_linker_0, # of connection points: 2
#     Edge 2, Type (0, 0), BuildingBlock: FUNLAD_clean_linker_0, # of connection points: 2
#     Edge 3, Type (0, 0), BuildingBlock: FUNLAD_clean_linker_0, # of connection points: 2
# Relax obj value: 0.000
# Max RMSD: 0.000
# Mean RMSD: 0.000
data_MOF--net-pcu--node1-KUMBUR_clean_sbu_1--edge1-FUNLAD_clean_linker_0
_symmetry_space_group_name_H-M    P1
_symmetry_Int_Tables_number       1
_symmetry_cell_setting            triclinic
loop_
_symmetry_equiv_pos_as_xyz
'x, y, z'
_cell_length_a     17.304455
_cell_length_b     26.852862
_cell_length_c     17.366826
_cell_angle_alpha  113.79938
_cell_angle_beta   89.705712
_cell_angle_gamma 115.13902
loop_
_atom_site_label
_atom_site_type_symbol
_atom_site_fract_x
_atom_site_fract_y
_atom_site_fract_z
_atom_type_partial_charge
Tb0 Tb 0.97074 0.9231 0.93483 0.0
C1 C 0.26607 0.18793 0.15295 0.0
N2 N 0.18873 0.15852 0.17266 0.0
C3 C 0.26153 0.19252 0.3148 0.0
C4 C 0.34481 0.21992 0.21326 0.0
C5 C 0.18517 0.16101 0.2526 0.0
C6 C 0.34176 0.22193 0.295 0.0
C7 C 0.34507 0.21289 0.04738 0.0
C8 C 0.266 0.18351 0.07056 0.0
C9 C 0.42391 0.24455 0.10701 0.0
C10 C 0.42379 0.248 0.18971 0.0
Tb11 Tb 0.06829 0.10835 0.06665 0.0
N12 N 0.18839 0.15154 0.01398 0.0
C13 C 0.34238 0.21078 0.96565 0.0
C14 C 0.18533 0.15459 0.93741 0.0
C15 C 0.26199 0.18252 0.91112 0.0
H16 H 0.1233 0.1395 0.26879 0.0
H17 H 0.25885 0.18352 0.84956 0.0
H18 H 0.92041 0.89168 0.73166 0.0
H19 H 0.77378 0.8481 0.14851 0.0
H20 H 0.1245 0.13817 0.89734 0.0
H21 H 0.40161 0.23285 0.94537 0.0
H22 H 0.90997 0.89431 0.10394 0.0
H23 H 0.25842 0.19423 0.37803 0.0
H24 H 0.48527 0.26705 0.09008 0.0
H25 H 0.48507 0.27262 0.23503 0.0
H26 H 0.78736 0.83649 0.61972 0.0
H27 H 0.40085 0.24604 0.34319 0.0
H28 H 0.63282 0.79723 0.04901 0.0
N29 N 0.85237 0.87233 0.82628 0.0
C30 C 0.7742 0.84247 0.84429 0.0
C31 C 0.78269 0.83813 0.68279 0.0
C32 C 0.69656 0.8101 0.78234 0.0
C33 C 0.85787 0.86997 0.74656 0.0
C34 C 0.7016 0.80823 0.7008 0.0
N35 N 0.84876 0.87934 0.98483 0.0
C36 C 0.8499 0.87699 0.06198 0.0
C37 C 0.6922 0.8171 0.94805 0.0
C38 C 0.77222 0.8468 0.92654 0.0
C39 C 0.69283 0.81954 0.02998 0.0
C40 C 0.7722 0.84866 0.08657 0.0
H41 H 0.64342 0.78383 0.65138 0.0
H42 H 0.55619 0.75658 0.75749 0.0
H43 H 0.5524 0.76217 0.90232 0.0
O44 O 0.99832 0.85981 0.95873 0.0
O45 O 0.88357 0.96308 0.93189 0.0
O46 O 0.93308 0.04807 0.06242 0.0
O47 O 0.97735 0.85144 0.82978 0.0
O48 O 0.02593 0.96731 0.07343 0.0
O49 O 1.00245 0.05282 0.13322 0.0
O50 O 0.04136 0.1726 0.04492 0.0
O51 O 0.15475 0.06796 0.07026 0.0
O52 O 0.10562 0.98384 0.93914 0.0
O53 O 0.063 0.17993 0.17311 0.0
O54 O 1.01182 0.06387 0.9283 0.0
O55 O 0.0367 0.97904 0.8688 0.0
C56 C 0.8723 1.00639 0.99363 0.0
C57 C 1.00846 0.77421 0.84013 0.0
C58 C 0.02387 0.69053 0.85101 0.0
C59 C 0.03659 0.67061 0.76585 0.0
C60 C 0.02144 0.75314 0.75527 0.0
C61 C 0.03545 0.70177 0.71862 0.0
C62 C 1.00971 0.74268 0.88794 0.0
C63 C 1.01837 1.01069 0.13979 0.0
C64 C 0.99425 0.82911 0.87734 0.0
C65 C 0.61664 0.78152 0.8041 0.0
C66 C 0.61447 0.78496 0.88671 0.0
C67 C 0.16606 0.02477 0.00837 0.0
C68 C 0.03292 0.25821 0.16502 0.0
C69 C 1.01828 0.34267 0.15599 0.0
C70 C 1.00671 0.36254 0.24155 0.0
C71 C 0.02113 0.27924 0.2503 0.0
C72 C 0.03145 0.29015 0.11795 0.0
C73 C 1.00806 0.33097 0.28807 0.0
C74 C 0.01982 0.02073 0.86197 0.0
C75 C 0.04622 0.20296 0.12658 0.0
H76 H 0.04607 0.63019 0.73503 0.0
H77 H 0.02108 0.7765 0.71705 0.0
H78 H 0.04514 0.68587 0.65311 0.0
H79 H 1.00025 0.75884 0.95359 0.0
H80 H 0.99801 0.40323 0.27321 0.0
H81 H 0.02171 0.25557 0.28799 0.0
H82 H 0.04 0.27403 0.05198 0.0
H83 H 0.99928 0.34684 0.3539 0.0
C84 C 0.99028 0.04203 0.28966 0.0
C85 C 0.02406 1.01045 0.22473 0.0
C86 C 0.99625 0.04237 0.37011 0.0
C87 C 0.03559 1.01055 0.38728 0.0
C88 C 0.06986 0.97939 0.32243 0.0
C89 C 0.06386 0.97906 0.24196 0.0
C90 C 0.04478 1.01026 0.47233 0.0
C91 C 0.99397 0.02138 0.52949 0.0
C92 C 1.00297 0.02101 0.61455 0.0
C93 C 0.96698 0.05105 0.67874 0.0
C94 C 0.97277 0.05129 0.75919 0.0
C95 C 1.01418 0.02101 0.77707 0.0
H96 H 0.07021 0.96489 0.58442 0.0
C97 C 0.04978 0.99062 0.71286 0.0
C98 C 0.04392 0.99029 0.63241 0.0
H99 H 0.08197 0.96673 0.72458 0.0
H100 H 0.95942 0.06683 0.2785 0.0
H101 H 0.9714 0.06863 0.41873 0.0
H102 H 0.1012 0.95495 0.33393 0.0
H103 H 0.09106 0.95462 0.19348 0.0
H104 H 0.09515 0.99976 0.48721 0.0
H105 H 0.94355 0.03179 0.51442 0.0
H106 H 0.93441 0.07465 0.66674 0.0
H107 H 0.94421 0.07482 0.80714 0.0
C108 C 0.27129 0.98685 0.94237 0.0
C109 C 0.25122 0.0245 0.01422 0.0
C110 C 0.35144 0.98624 0.94768 0.0
C111 C 0.41379 0.02365 0.0251 0.0
C112 C 0.39297 0.06052 0.09714 0.0
C113 C 0.3127 0.06095 0.09186 0.0
C114 C 0.49969 0.02412 0.03449 0.0
C115 C 0.53764 1.00558 0.96789 0.0
C116 C 0.62363 1.00621 0.97731 0.0
C117 C 0.64435 0.96914 0.90541 0.0
C118 C 0.72486 0.96906 0.91061 0.0
C119 C 0.78673 1.00609 0.98801 0.0
H120 H 0.67466 0.075 0.11078 0.0
C121 C 0.76666 0.04384 0.05976 0.0
C122 C 0.68623 0.04408 0.05453 0.0
H123 H 0.81324 0.07354 0.12017 0.0
H124 H 0.22496 0.95755 0.88178 0.0
H125 H 0.36302 0.95544 0.89129 0.0
H126 H 0.43904 0.08921 0.15794 0.0
H127 H 0.29852 0.08922 0.14904 0.0
H128 H 0.53271 0.04111 0.09942 0.0
H129 H 0.50464 0.98857 0.90294 0.0
H130 H 0.59805 0.94009 0.84477 0.0
H131 H 0.73897 0.94065 0.85351 0.0
C132 C 0.08427 0.63251 0.89208 0.0
C133 C 0.02381 0.65557 0.89933 0.0
C134 C 0.07997 0.59505 0.93089 0.0
C135 C 1.01466 0.57942 0.97781 0.0
C136 C 0.95656 0.60459 0.9881 0.0
C137 C 0.96082 0.64207 0.94913 0.0
C138 C 1.00594 0.5381 0.01807 0.0
C139 C 0.03562 0.49595 0.99052 0.0
C140 C 0.02707 0.45457 0.03065 0.0
C141 C 0.0845 0.42879 0.0191 0.0
C142 C 0.08039 0.39113 0.05768 0.0
C143 C 1.01823 0.37806 0.10839 0.0
H144 H 0.91464 0.45601 0.0863 0.0
C145 C 0.95849 0.40183 0.11709 0.0
C146 C 0.96263 0.43947 0.07864 0.0
H147 H 0.90833 0.39139 0.15392 0.0
H148 H 0.13507 0.64332 0.85602 0.0
H149 H 0.12848 0.57902 0.92433 0.0
H150 H 0.90627 0.59405 0.02479 0.0
H151 H 0.91304 0.65883 0.95577 0.0
H152 H 0.97231 0.54227 0.07145 0.0
H153 H 0.06913 0.49177 0.93703 0.0
H154 H 0.13414 0.43894 0.98163 0.0
H155 H 0.12764 0.37385 0.04995 0.0
loop_
_geom_bond_atom_site_label_1
_geom_bond_atom_site_label_2
_geom_bond_distance
_geom_bond_site_symmetry_2
_ccdc_geom_bond_type
Tb0 N29 2.617 . S
Tb0 N35 2.572 . S
Tb0 O44 2.465 . S
Tb0 O45 2.387 . S
Tb0 O47 2.428 . S
Tb0 O48 2.308 1_556 S
Tb0 O52 2.349 1_655 S
Tb0 O55 2.393 . S
Tb0 C64 2.802 . S
C1 N2 1.379 . S
C1 C4 1.416 . S
C1 C8 1.424 . S
N2 C1 1.379 . S
N2 C5 1.334 . S
N2 Tb11 2.617 . S
C3 C5 1.390 . S
C3 C6 1.339 . S
C3 H23 0.930 . S
C4 C1 1.416 . S
C4 C6 1.416 . S
C4 C10 1.448 . S
C5 N2 1.334 . S
C5 C3 1.390 . S
C5 H16 0.930 . S
C6 C3 1.339 . S
C6 C4 1.416 . S
C6 H27 0.930 . S
C7 C8 1.413 . S
C7 C9 1.427 . S
C7 C13 1.416 . S
C8 C1 1.424 . S
C8 C7 1.413 . S
C8 N12 1.361 . S
C9 C7 1.427 . S
C9 C10 1.328 . S
C9 H24 0.929 . S
C10 C4 1.448 . S
C10 C9 1.328 . S
C10 H25 0.930 . S
Tb11 N2 2.617 . S
Tb11 N12 2.572 . S
Tb11 O46 2.349 1_455 S
Tb11 O49 2.393 . S
Tb11 O50 2.465 . S
Tb11 O51 2.387 . S
Tb11 O53 2.428 . S
Tb11 O54 2.308 1_554 S
Tb11 C75 2.802 . S
N12 C8 1.361 . S
N12 Tb11 2.572 . S
N12 C14 1.340 1_554 S
C13 C7 1.416 . S
C13 C15 1.332 1_554 S
C13 H21 0.931 1_554 S
C14 N12 1.340 1_556 S
C14 C15 1.407 . S
C14 H20 0.930 . S
C15 C13 1.332 1_556 S
C15 C14 1.407 . S
C15 H17 0.929 . S
H16 C5 0.930 . S
H17 C15 0.929 . S
H18 C33 0.930 . S
H19 C40 0.929 . S
H20 C14 0.930 . S
H21 C13 0.931 1_556 S
H22 C36 0.930 . S
H23 C3 0.930 . S
H24 C9 0.929 . S
H25 C10 0.930 . S
H26 C31 0.930 . S
H27 C6 0.930 . S
H28 C39 0.931 1_554 S
N29 Tb0 2.617 . S
N29 C30 1.379 . S
N29 C33 1.334 . S
C30 N29 1.379 . S
C30 C32 1.416 . S
C30 C38 1.424 . S
C31 H26 0.930 . S
C31 C33 1.390 . S
C31 C34 1.339 . S
C32 C30 1.416 . S
C32 C34 1.416 . S
C32 C65 1.448 . S
C33 H18 0.930 . S
C33 N29 1.334 . S
C33 C31 1.390 . S
C34 C31 1.339 . S
C34 C32 1.416 . S
C34 H41 0.930 . S
N35 Tb0 2.572 . S
N35 C36 1.340 1_556 S
N35 C38 1.361 . S
C36 H22 0.930 . S
C36 N35 1.340 1_554 S
C36 C40 1.407 . S
C37 C38 1.413 . S
C37 C39 1.416 . S
C37 C66 1.427 . S
C38 C30 1.424 . S
C38 N35 1.361 . S
C38 C37 1.413 . S
C39 H28 0.931 1_556 S
C39 C37 1.416 . S
C39 C40 1.332 1_556 S
C40 H19 0.929 . S
C40 C36 1.407 . S
C40 C39 1.332 1_554 S
H41 C34 0.930 . S
H42 C65 0.930 . S
H43 C66 0.929 . S
O44 Tb0 2.465 . S
O44 C64 1.264 . S
O45 Tb0 2.387 . S
O45 C56 1.257 1_565 S
O46 Tb11 2.349 1_655 S
O46 C56 1.247 1_554 S
O47 Tb0 2.428 . S
O47 C64 1.256 . S
O48 Tb0 2.308 1_554 S
O48 C63 1.266 1_565 S
O49 Tb11 2.393 . S
O49 C63 1.248 1_455 S
O50 Tb11 2.465 . S
O50 C75 1.264 . S
O51 Tb11 2.387 . S
O51 C67 1.261 1_545 S
O52 Tb0 2.349 1_455 S
O52 C67 1.245 1_556 S
O53 Tb11 2.428 . S
O53 C75 1.256 . S
O54 Tb11 2.308 1_556 S
O54 C74 1.266 1_545 S
O55 Tb0 2.393 . S
O55 C74 1.248 1_655 S
C56 O45 1.257 1_545 S
C56 O46 1.247 1_556 S
C57 C60 1.399 . S
C57 C62 1.383 . S
C57 C64 1.496 . S
C58 C59 1.399 . S
C58 C62 1.389 . S
C59 C58 1.399 . S
C59 C61 1.380 . S
C59 H76 0.929 . S
C60 C57 1.399 . S
C60 C61 1.392 . S
C60 H77 0.929 . S
C61 C59 1.380 . S
C61 C60 1.392 . S
C61 H78 0.929 . S
C62 C57 1.383 . S
C62 C58 1.389 . S
C62 H79 0.931 1_556 S
C63 O48 1.266 1_545 S
C63 O49 1.248 1_655 S
C64 Tb0 2.802 . S
C64 O44 1.264 . S
C64 O47 1.256 . S
C64 C57 1.496 . S
C65 C32 1.448 . S
C65 H42 0.930 . S
C65 C66 1.328 . S
C66 C37 1.427 . S
C66 H43 0.929 . S
C66 C65 1.328 . S
C67 O51 1.261 1_565 S
C67 O52 1.245 1_554 S
C68 C71 1.399 . S
C68 C72 1.383 . S
C68 C75 1.496 . S
C69 C70 1.399 . S
C69 C72 1.389 . S
C70 C69 1.399 . S
C70 C73 1.380 . S
C70 H80 0.929 . S
C71 C68 1.399 . S
C71 C73 1.392 . S
C71 H81 0.929 . S
C72 C68 1.383 . S
C72 C69 1.389 . S
C72 H82 0.931 1_554 S
C73 C70 1.380 . S
C73 C71 1.392 . S
C73 H83 0.929 . S
C74 O54 1.266 1_565 S
C74 O55 1.248 1_455 S
C75 Tb11 2.802 . S
C75 O50 1.264 . S
C75 O53 1.256 . S
C75 C68 1.496 . S
H76 C59 0.929 . S
H77 C60 0.929 . S
H78 C61 0.929 . S
H79 C62 0.931 1_554 S
H80 C70 0.929 . S
H81 C71 0.929 . S
H82 C72 0.931 1_556 S
H83 C73 0.929 . S
C84 C85 1.376 1_645 S
C84 C86 1.381 1_545 S
C84 H100 0.951 . S
C85 C84 1.376 1_465 S
C85 C89 1.394 . S
C86 C84 1.381 1_565 S
C86 C87 1.405 1_655 S
C86 H101 0.950 1_565 S
C87 C86 1.405 1_455 S
C87 C88 1.375 . S
C87 C90 1.481 . S
C88 C87 1.375 . S
C88 C89 1.367 . S
C88 H102 0.951 . S
C89 C85 1.394 . S
C89 C88 1.367 . S
C89 H103 0.950 . S
C90 C87 1.481 . S
C90 C91 1.297 1_455 S
C90 H104 0.950 . S
C91 C90 1.297 1_655 S
C91 C92 1.479 . S
C91 H105 0.950 . S
C92 C91 1.479 . S
C92 C93 1.375 . S
C92 C98 1.404 1_655 S
C93 C92 1.375 . S
C93 C94 1.369 1_565 S
C93 H106 0.950 1_565 S
C94 C93 1.369 1_545 S
C94 C95 1.392 1_545 S
C94 H107 0.951 . S
C95 C94 1.392 1_565 S
C95 C97 1.384 1_655 S
H96 C98 0.949 . S
C97 C95 1.384 1_455 S
C97 C98 1.385 . S
C97 H99 0.950 . S
C98 C92 1.404 1_455 S
C98 H96 0.949 . S
C98 C97 1.385 . S
H99 C97 0.950 . S
H100 C84 0.951 . S
H101 C86 0.950 1_545 S
H102 C88 0.951 . S
H103 C89 0.950 . S
H104 C90 0.950 . S
H105 C91 0.950 . S
H106 C93 0.950 1_545 S
H107 C94 0.951 . S
C108 C109 1.386 1_566 S
C108 C110 1.383 . S
C108 H124 0.951 . S
C109 C108 1.386 1_544 S
C109 C113 1.383 . S
C110 C108 1.383 . S
C110 C111 1.402 1_566 S
C110 H125 0.951 . S
C111 C110 1.402 1_544 S
C111 C112 1.375 . S
C111 C114 1.481 . S
C112 C111 1.375 . S
C112 C113 1.367 . S
C112 H126 0.951 . S
C113 C109 1.383 . S
C113 C112 1.367 . S
C113 H127 0.950 . S
C114 C111 1.481 . S
C114 C115 1.297 1_554 S
C114 H128 0.950 . S
C115 C114 1.297 1_556 S
C115 C116 1.479 . S
C115 H129 0.950 . S
C116 C115 1.479 . S
C116 C117 1.375 1_545 S
C116 C122 1.404 1_556 S
C117 C116 1.375 1_565 S
C117 C118 1.369 . S
C117 H130 0.950 . S
C118 C117 1.369 . S
C118 C119 1.392 1_565 S
C118 H131 0.951 . S
C119 C118 1.392 1_545 S
C119 C121 1.384 1_556 S
H120 C122 0.949 . S
C121 C119 1.384 1_554 S
C121 C122 1.385 . S
C121 H123 0.950 . S
C122 C116 1.404 1_554 S
C122 H120 0.949 . S
C122 C121 1.385 . S
H123 C121 0.950 . S
H124 C108 0.951 . S
H125 C110 0.951 . S
H126 C112 0.951 . S
H127 C113 0.950 . S
H128 C114 0.950 . S
H129 C115 0.950 . S
H130 C117 0.950 . S
H131 C118 0.951 . S
C132 C133 1.386 1_456 S
C132 C134 1.383 1_556 S
C132 H148 0.951 . S
C133 C132 1.386 1_654 S
C133 C137 1.383 . S
C134 C132 1.383 1_554 S
C134 C135 1.402 1_455 S
C134 H149 0.951 1_554 S
C135 C134 1.402 1_655 S
C135 C136 1.375 . S
C135 C138 1.481 . S
C136 C135 1.375 . S
C136 C137 1.367 . S
C136 H150 0.951 . S
C137 C133 1.383 . S
C137 C136 1.367 . S
C137 H151 0.950 . S
C138 C135 1.481 . S
C138 C139 1.297 1_655 S
C138 H152 0.950 . S
C139 C138 1.297 1_455 S
C139 C140 1.479 . S
C139 H153 0.950 . S
C140 C139 1.479 . S
C140 C141 1.375 . S
C140 C146 1.404 1_455 S
C141 C140 1.375 . S
C141 C142 1.369 1_554 S
C141 H154 0.950 1_554 S
C142 C141 1.369 1_556 S
C142 C143 1.392 1_556 S
C142 H155 0.951 . S
C143 C142 1.392 1_554 S
C143 C145 1.384 1_455 S
H144 C146 0.949 . S
C145 C143 1.384 1_655 S
C145 C146 1.385 . S
C145 H147 0.950 . S
C146 C140 1.404 1_655 S
C146 H144 0.949 . S
C146 C145 1.385 . S
H147 C145 0.950 . S
H148 C132 0.951 . S
H149 C134 0.951 1_556 S
H150 C136 0.951 . S
H151 C137 0.950 . S
H152 C138 0.950 . S
H153 C139 0.950 . S
H154 C141 0.950 1_556 S
H155 C142 0.951 . S
C85 C63 1.491 1_465 S
C95 C74 1.456 1_655 S
C109 C67 1.489 1_545 S
C119 C56 1.479 . S
C133 C58 1.393 1_554 S
C143 C69 1.274 . S
