# Generated by pormake.
# Topology snp, (6)-cn, num edge types: 1
# Building blocks:
#     Node 0, Type 0, BuildingBlock: BETDEL_clean_sbu_0, # of connection points: 6
#     Node 1, Type 0, BuildingBlock: BETDEL_clean_sbu_0, # of connection points: 6
#     Node 2, Type 0, BuildingBlock: BETDEL_clean_sbu_0, # of connection points: 6
#     Node 3, Type 0, BuildingBlock: BETDEL_clean_sbu_0, # of connection points: 6
#     Edge 4, Type (0, 0), None
#     Edge 5, Type (0, 0), None
#     Edge 6, Type (0, 0), None
#     Edge 7, Type (0, 0), None
#     Edge 8, Type (0, 0), None
#     Edge 9, Type (0, 0), None
#     Edge 10, Type (0, 0), None
#     Edge 11, Type (0, 0), None
#     Edge 12, Type (0, 0), None
#     Edge 13, Type (0, 0), None
#     Edge 14, Type (0, 0), None
#     Edge 15, Type (0, 0), None
# Relax obj value: 0.559
# Max RMSD: 0.196
# Mean RMSD: 0.191
data_MOF--net-snp--node1-BETDEL_clean_sbu_0--edge1-none
_symmetry_space_group_name_H-M    P1
_symmetry_Int_Tables_number       1
_symmetry_cell_setting            triclinic
loop_
_symmetry_equiv_pos_as_xyz
'x, y, z'
_cell_length_a     12.481259
_cell_length_b     12.396313
_cell_length_c     11.728704
_cell_angle_alpha  95.165655
_cell_angle_beta   89.172585
_cell_angle_gamma 92.744001
loop_
_atom_site_label
_atom_site_type_symbol
_atom_site_fract_x
_atom_site_fract_y
_atom_site_fract_z
_atom_type_partial_charge
Dy0 Dy 0.23789 0.0985 0.22902 0.0
C1 C 0.27031 0.72429 0.93802 0.0
C2 C 0.25096 0.2904 0.36275 0.0
Dy3 Dy 0.21706 0.90207 1.07823 0.0
O4 O 0.32129 0.21695 0.35607 0.0
O5 O 0.1768 0.2605 0.28857 0.0
O6 O 0.39904 0.05021 0.27863 0.0
O7 O 0.35098 0.01668 1.10856 0.0
C8 C 0.4233 0.00456 0.17923 0.0
C9 C 0.03273 -0.01529 1.12454 0.0
O10 O 0.208 0.82356 0.24932 0.0
O11 O 0.16799 -0.019 0.35746 0.0
O12 O 0.19359 0.72794 1.01411 0.0
O13 O 0.32421 0.81667 0.9488 0.0
O14 O 0.05067 0.92467 1.02986 0.0
O15 O 0.10643 -0.01588 0.1957 0.0
O16 O 0.18025 0.1786 1.07387 0.0
O17 O 0.17812 0.02449 0.94797 0.0
C18 C 0.17466 0.87263 0.34854 0.0
C19 C 0.1596 0.13002 0.97045 0.0
Dy20 Dy 0.88337 0.23349 0.73848 0.0
C21 C 0.21709 0.3312 0.47518 0.0
C22 C 0.71217 0.26403 0.87988 0.0
Dy23 Dy 0.07563 0.24643 0.62518 0.0
O24 O 0.7981 0.32633 0.87918 0.0
O25 O 0.72122 0.1838 0.80144 0.0
O26 O 0.84243 0.37164 0.64169 0.0
O27 O -0.00697 0.37535 0.71859 0.0
C28 C -0.06994 0.42805 0.66439 0.0
C29 C 0.04238 0.049 0.67608 0.0
O30 O 0.15037 0.23804 0.80137 0.0
O31 O -0.00826 0.17388 0.87657 0.0
O32 O 0.24101 0.27302 0.55696 0.0
O33 O 0.11736 0.35407 0.48716 0.0
O34 O 0.13873 0.08938 0.6587 0.0
O35 O -0.02978 0.10672 0.64544 0.0
O36 O 0.8068 0.15246 0.57722 0.0
O37 O -0.03904 0.18447 0.47373 0.0
C38 C 0.09835 0.18908 0.88378 0.0
C39 C 0.85751 0.14873 0.47718 0.0
Dy40 Dy 0.71746 0.88437 0.19559 0.0
C41 C 0.66758 0.24181 0.9883 0.0
C42 C 0.69351 0.71072 0.31875 0.0
Dy43 Dy 0.73997 0.0894 1.11235 0.0
O44 O 0.63537 0.79438 0.3291 0.0
O45 O 0.75681 0.71785 0.23099 0.0
O46 O 0.55487 0.87535 1.11125 0.0
O47 O 0.61024 0.01714 0.2045 0.0
C48 C 0.532 -0.02737 0.15053 0.0
C49 C -0.06997 0.02349 0.15314 0.0
O50 O 0.76517 0.15519 0.29548 0.0
O51 O 0.79883 -0.01398 0.34952 0.0
O52 O 0.73668 0.25931 1.07048 0.0
O53 O 0.62415 0.14509 0.99121 0.0
O54 O 0.91232 0.12627 0.15236 0.0
O55 O 0.85079 -0.03426 1.11722 0.0
O56 O 0.77836 0.81276 1.02218 0.0
O57 O 0.77643 -0.02359 0.94416 0.0
C58 C 0.80238 0.09417 0.37148 0.0
C59 C 0.7936 0.86911 0.93179 0.0
Dy60 Dy 0.89709 0.7332 0.57658 0.0
C61 C 0.2415 0.67961 0.82393 0.0
C62 C 0.74179 0.68425 0.42108 0.0
Dy63 Dy 0.07928 0.74008 0.69426 0.0
O64 O 0.83621 0.64532 0.41554 0.0
O65 O 0.73355 0.75086 0.51242 0.0
O66 O 0.84783 0.59843 0.68341 0.0
O67 O -0.00062 0.59895 0.60852 0.0
C68 C -0.06648 0.54557 0.66548 0.0
C69 C 0.02212 0.9398 0.69827 0.0
O70 O 0.16712 0.77778 0.52744 0.0
O71 O 0.00911 0.80005 0.43756 0.0
O72 O 0.25105 0.74737 0.74569 0.0
O73 O 0.14693 0.63187 0.81433 0.0
O74 O 0.07153 0.90267 0.78179 0.0
O75 O 0.00873 0.87033 0.61445 0.0
O76 O 0.81837 0.82868 0.72372 0.0
O77 O -0.0543 0.76815 0.83678 0.0
C78 C 0.11643 0.80682 0.4366 0.0
C79 C 0.85323 0.81837 0.82719 0.0
loop_
_geom_bond_atom_site_label_1
_geom_bond_atom_site_label_2
_geom_bond_distance
_geom_bond_site_symmetry_2
_ccdc_geom_bond_type
Dy0 O4 2.398 . S
Dy0 O5 2.491 . S
Dy0 O6 2.403 . S
Dy0 O7 2.664 1_554 S
Dy0 O11 2.326 . S
Dy0 O15 2.310 . S
Dy0 O16 2.351 1_554 S
C1 O12 1.185 . S
C1 O13 1.355 . S
C2 O4 1.185 . S
C2 O5 1.355 . S
Dy3 O7 2.310 1_565 S
Dy3 O10 2.351 1_556 S
Dy3 O12 2.398 . S
Dy3 O13 2.491 . S
Dy3 O14 2.403 . S
Dy3 O15 2.664 1_566 S
Dy3 O17 2.326 1_565 S
O4 Dy0 2.398 . S
O4 C2 1.185 . S
O5 Dy0 2.491 . S
O5 C2 1.355 . S
O6 Dy0 2.403 . S
O6 C8 1.254 . S
O7 Dy0 2.664 1_556 S
O7 Dy3 2.310 1_545 S
O7 C8 1.268 1_556 S
C8 O6 1.254 . S
C8 O7 1.268 1_554 S
C9 O14 1.254 1_544 S
C9 O15 1.268 . S
O10 Dy3 2.351 1_554 S
O10 C18 1.249 . S
O11 Dy0 2.326 . S
O11 C18 1.267 1_545 S
O12 C1 1.185 . S
O12 Dy3 2.398 . S
O13 C1 1.355 . S
O13 Dy3 2.491 . S
O14 Dy3 2.403 . S
O14 C9 1.254 1_566 S
O15 Dy0 2.310 . S
O15 Dy3 2.664 1_544 S
O15 C9 1.268 . S
O16 Dy0 2.351 1_556 S
O16 C19 1.249 . S
O17 Dy3 2.326 1_545 S
O17 C19 1.267 . S
C18 O10 1.249 . S
C18 O11 1.267 1_565 S
C19 O16 1.249 . S
C19 O17 1.267 . S
Dy20 O24 2.398 . S
Dy20 O25 2.491 . S
Dy20 O26 2.403 . S
Dy20 O27 2.664 1_655 S
Dy20 O31 2.326 1_655 S
Dy20 O35 2.310 1_655 S
Dy20 O36 2.351 . S
C21 O32 1.185 . S
C21 O33 1.355 . S
C22 O24 1.185 . S
C22 O25 1.355 . S
Dy23 O27 2.310 . S
Dy23 O30 2.351 . S
Dy23 O32 2.398 . S
Dy23 O33 2.491 . S
Dy23 O34 2.403 . S
Dy23 O35 2.664 . S
Dy23 O37 2.326 . S
O24 Dy20 2.398 . S
O24 C22 1.185 . S
O25 Dy20 2.491 . S
O25 C22 1.355 . S
O26 Dy20 2.403 . S
O26 C28 1.254 1_655 S
O27 Dy20 2.664 1_455 S
O27 Dy23 2.310 . S
O27 C28 1.268 . S
C28 O26 1.254 1_455 S
C28 O27 1.268 . S
C29 O34 1.254 . S
C29 O35 1.268 . S
O30 Dy23 2.351 . S
O30 C38 1.249 . S
O31 Dy20 2.326 1_455 S
O31 C38 1.267 . S
O32 C21 1.185 . S
O32 Dy23 2.398 . S
O33 C21 1.355 . S
O33 Dy23 2.491 . S
O34 Dy23 2.403 . S
O34 C29 1.254 . S
O35 Dy20 2.310 1_455 S
O35 Dy23 2.664 . S
O35 C29 1.268 . S
O36 Dy20 2.351 . S
O36 C39 1.249 . S
O37 Dy23 2.326 . S
O37 C39 1.267 1_455 S
C38 O30 1.249 . S
C38 O31 1.267 . S
C39 O36 1.249 . S
C39 O37 1.267 1_655 S
Dy40 O44 2.398 . S
Dy40 O45 2.491 . S
Dy40 O46 2.403 . S
Dy40 O47 2.664 1_564 S
Dy40 O51 2.326 1_565 S
Dy40 O55 2.310 . S
Dy40 O56 2.351 1_554 S
C41 O52 1.185 . S
C41 O53 1.355 . S
C42 O44 1.185 . S
C42 O45 1.355 . S
Dy43 O47 2.310 . S
Dy43 O50 2.351 1_556 S
Dy43 O52 2.398 . S
Dy43 O53 2.491 . S
Dy43 O54 2.403 1_655 S
Dy43 O55 2.664 1_546 S
Dy43 O57 2.326 1_545 S
O44 Dy40 2.398 . S
O44 C42 1.185 . S
O45 Dy40 2.491 . S
O45 C42 1.355 . S
O46 Dy40 2.403 . S
O46 C48 1.254 . S
O47 Dy40 2.664 1_546 S
O47 Dy43 2.310 . S
O47 C48 1.268 1_546 S
C48 O46 1.254 . S
C48 O47 1.268 1_564 S
C49 O54 1.254 1_554 S
C49 O55 1.268 1_445 S
O50 Dy43 2.351 1_554 S
O50 C58 1.249 . S
O51 Dy40 2.326 1_545 S
O51 C58 1.267 . S
O52 C41 1.185 . S
O52 Dy43 2.398 . S
O53 C41 1.355 . S
O53 Dy43 2.491 . S
O54 Dy43 2.403 1_455 S
O54 C49 1.254 1_556 S
O55 Dy40 2.310 . S
O55 Dy43 2.664 1_564 S
O55 C49 1.268 1_665 S
O56 Dy40 2.351 1_556 S
O56 C59 1.249 . S
O57 Dy43 2.326 1_565 S
O57 C59 1.267 . S
C58 O50 1.249 . S
C58 O51 1.267 . S
C59 O56 1.249 . S
C59 O57 1.267 . S
Dy60 O64 2.398 . S
Dy60 O65 2.491 . S
Dy60 O66 2.403 . S
Dy60 O67 2.664 1_655 S
Dy60 O71 2.326 1_655 S
Dy60 O75 2.310 1_655 S
Dy60 O76 2.351 . S
C61 O72 1.185 . S
C61 O73 1.355 . S
C62 O64 1.185 . S
C62 O65 1.355 . S
Dy63 O67 2.310 . S
Dy63 O70 2.351 . S
Dy63 O72 2.398 . S
Dy63 O73 2.491 . S
Dy63 O74 2.403 1_565 S
Dy63 O75 2.664 . S
Dy63 O77 2.326 . S
O64 Dy60 2.398 . S
O64 C62 1.185 . S
O65 Dy60 2.491 . S
O65 C62 1.355 . S
O66 Dy60 2.403 . S
O66 C68 1.254 1_655 S
O67 Dy60 2.664 1_455 S
O67 Dy63 2.310 . S
O67 C68 1.268 . S
C68 O66 1.254 1_455 S
C68 O67 1.268 . S
C69 O74 1.254 . S
C69 O75 1.268 1_545 S
O70 Dy63 2.351 . S
O70 C78 1.249 . S
O71 Dy60 2.326 1_455 S
O71 C78 1.267 . S
O72 C61 1.185 . S
O72 Dy63 2.398 . S
O73 C61 1.355 . S
O73 Dy63 2.491 . S
O74 Dy63 2.403 1_545 S
O74 C69 1.254 . S
O75 Dy60 2.310 1_455 S
O75 Dy63 2.664 . S
O75 C69 1.268 1_565 S
O76 Dy60 2.351 . S
O76 C79 1.249 . S
O77 Dy63 2.326 . S
O77 C79 1.267 1_455 S
C78 O70 1.249 . S
C78 O71 1.267 . S
C79 O76 1.249 . S
C79 O77 1.267 1_655 S
C49 C9 0.060 . S
C69 C29 0.187 . S
C48 C8 1.730 1_565 S
C28 C68 0.835 . S
C21 C2 0.286 . S
C22 C41 0.175 . S
C62 C42 0.308 . S
C61 C1 0.130 . S
C59 C79 3.344 . S
C18 C78 3.569 . S
C38 C19 3.547 . S
C58 C39 3.368 . S
