# Generated by pormake.
# Topology rob, (6)-cn, num edge types: 1
# Building blocks:
#     Node 0, Type 0, BuildingBlock: CUKXOW_clean_sbu_0, # of connection points: 6
#     Node 1, Type 0, BuildingBlock: CUKXOW_clean_sbu_0, # of connection points: 6
#     Node 2, Type 0, BuildingBlock: CUKXOW_clean_sbu_0, # of connection points: 6
#     Node 3, Type 0, BuildingBlock: CUKXOW_clean_sbu_0, # of connection points: 6
#     Edge 4, Type (0, 0), None
#     Edge 5, Type (0, 0), None
#     Edge 6, Type (0, 0), None
#     Edge 7, Type (0, 0), None
#     Edge 8, Type (0, 0), None
#     Edge 9, Type (0, 0), None
#     Edge 10, Type (0, 0), None
#     Edge 11, Type (0, 0), None
#     Edge 12, Type (0, 0), None
#     Edge 13, Type (0, 0), None
#     Edge 14, Type (0, 0), None
#     Edge 15, Type (0, 0), None
# Relax obj value: 0.019
# Max RMSD: 0.104
# Mean RMSD: 0.104
data_MOF--net-rob--node1-CUKXOW_clean_sbu_0--edge1-none
_symmetry_space_group_name_H-M    P1
_symmetry_Int_Tables_number       1
_symmetry_cell_setting            triclinic
loop_
_symmetry_equiv_pos_as_xyz
'x, y, z'
_cell_length_a     7.935972
_cell_length_b     11.788072
_cell_length_c     12.671669
_cell_angle_alpha  90.659327
_cell_angle_beta   90.004514
_cell_angle_gamma 90.00279
loop_
_atom_site_label
_atom_site_type_symbol
_atom_site_fract_x
_atom_site_fract_y
_atom_site_fract_z
_atom_type_partial_charge
Tb0 Tb 0.26181 0.2182 0.13643 0.0
C1 C 0.33793 0.47212 0.05501 0.0
Tb2 Tb 0.02371 0.32808 0.97171 0.0
O3 O 0.39668 0.12294 1.01157 0.0
O4 O 0.27199 0.272 0.98019 0.0
O5 O 0.3708 0.391 0.12504 0.0
C6 C -0.09194 0.35254 0.77713 0.0
O7 O 0.21715 0.46163 0.98228 0.0
C8 C -0.05288 0.3585 0.1711 0.0
C9 C -0.05255 0.07421 1.05316 0.0
O10 O 0.87401 0.42098 0.85564 0.0
O11 O -0.00135 0.26856 0.80952 0.0
O12 O 0.88917 0.42331 0.09692 0.0
O13 O 0.01373 0.27428 0.12774 0.0
O14 O -0.08534 0.15529 0.98309 0.0
O15 O 0.06816 0.08476 0.12594 0.0
C16 C 0.37799 0.1937 0.33089 0.0
O17 O 0.41092 0.1249 0.25249 0.0
O18 O 0.28805 0.278 0.29849 0.0
C19 C 0.33881 0.18757 0.93725 0.0
Tb20 Tb 0.76181 0.7182 0.13643 0.0
C21 C 0.8379 0.97213 0.05504 0.0
Tb22 Tb 0.52371 0.82808 0.97171 0.0
O23 O -0.10332 0.62294 1.01156 0.0
O24 O 0.77199 0.77201 0.98019 0.0
O25 O 0.87079 0.89101 0.12505 0.0
C26 C 0.40806 0.85255 0.77713 0.0
O27 O 0.71714 0.96163 0.9823 0.0
C28 C 0.44711 0.85849 0.1711 0.0
C29 C 0.44748 0.5742 1.05314 0.0
O30 O 0.37398 0.92097 0.85565 0.0
O31 O 0.49869 0.76858 0.80951 0.0
O32 O 0.38917 0.9233 0.09693 0.0
O33 O 0.51372 0.77427 0.12773 0.0
O34 O 0.41467 0.65529 0.98308 0.0
O35 O 0.56817 0.58475 0.12593 0.0
C36 C 0.87799 0.69369 0.33089 0.0
O37 O -0.08905 0.6249 0.25248 0.0
O38 O 0.78802 0.77798 0.2985 0.0
C39 C 0.83882 0.68758 0.93725 0.0
Tb40 Tb 0.26175 0.82781 0.47176 0.0
C41 C 0.33786 0.57381 0.55315 0.0
Tb42 Tb 0.02378 0.71786 0.6365 0.0
O43 O 0.39634 0.92321 0.59669 0.0
O44 O 0.27212 0.77379 0.62792 0.0
O45 O 0.37069 0.65497 0.48314 0.0
C46 C -0.09202 0.69326 0.83103 0.0
O47 O 0.21705 0.58424 0.62585 0.0
C48 C -0.05315 0.68772 0.43719 0.0
C49 C -0.05247 0.97181 0.55507 0.0
O50 O 0.87294 0.62538 0.75226 0.0
O51 O -0.00016 0.77678 0.79896 0.0
O52 O 0.88951 0.6225 0.51121 0.0
O53 O 0.01359 0.77189 0.48055 0.0
O54 O -0.08522 0.89069 0.62513 0.0
O55 O 0.06827 0.96133 0.48232 0.0
C56 C 0.37806 0.85246 0.27734 0.0
O57 O 0.41204 0.92069 0.35601 0.0
O58 O 0.28683 0.76863 0.30941 0.0
C59 C 0.33907 0.85818 0.67086 0.0
Tb60 Tb 0.76175 0.32782 0.47176 0.0
C61 C 0.83783 0.0738 0.55313 0.0
Tb62 Tb 0.52378 0.21786 0.6365 0.0
O63 O -0.10366 0.4232 0.5967 0.0
O64 O 0.77213 0.27378 0.62792 0.0
O65 O 0.87067 0.15496 0.48313 0.0
C66 C 0.40799 0.19325 0.83103 0.0
O67 O 0.71703 0.08423 0.62584 0.0
C68 C 0.44685 0.18773 0.43719 0.0
C69 C 0.44756 0.47183 0.55509 0.0
O70 O 0.37291 0.12539 0.75225 0.0
O71 O 0.49987 0.27675 0.79897 0.0
O72 O 0.38951 0.12251 0.51121 0.0
O73 O 0.51359 0.2719 0.48055 0.0
O74 O 0.41479 0.3907 0.62514 0.0
O75 O 0.56828 0.46134 0.48233 0.0
C76 C 0.87805 0.35247 0.27734 0.0
O77 O -0.08793 0.42069 0.35602 0.0
O78 O 0.78679 0.26866 0.3094 0.0
C79 C 0.83908 0.35816 0.67086 0.0
loop_
_geom_bond_atom_site_label_1
_geom_bond_atom_site_label_2
_geom_bond_distance
_geom_bond_site_symmetry_2
_ccdc_geom_bond_type
Tb0 O3 2.453 1_554 S
Tb0 O4 2.596 1_554 S
Tb0 O5 2.374 . S
Tb0 O13 2.343 . S
Tb0 O15 2.353 1_554 S
Tb0 O17 2.427 . S
Tb0 O18 2.513 . S
C1 O5 1.251 . S
C1 O7 1.263 . S
Tb2 O4 2.343 1_655 S
Tb2 O7 2.353 1_656 S
Tb2 O10 2.427 . S
Tb2 O11 2.513 . S
Tb2 O12 2.453 1_556 S
Tb2 O13 2.596 1_656 S
Tb2 O14 2.374 . S
O3 Tb0 2.453 1_556 S
O3 C19 1.245 . S
O4 Tb0 2.596 1_556 S
O4 Tb2 2.343 1_455 S
O4 C19 1.259 . S
O5 Tb0 2.374 . S
O5 C1 1.251 . S
C6 O10 1.275 . S
C6 O11 1.246 . S
O7 C1 1.263 . S
O7 Tb2 2.353 1_454 S
C8 O12 1.245 1_455 S
C8 O13 1.259 . S
C9 O14 1.250 1_455 S
C9 O15 1.263 . S
O10 Tb2 2.427 . S
O10 C6 1.275 . S
O11 Tb2 2.513 . S
O11 C6 1.246 . S
O12 Tb2 2.453 1_554 S
O12 C8 1.245 1_655 S
O13 Tb0 2.343 . S
O13 Tb2 2.596 1_454 S
O13 C8 1.259 . S
O14 Tb2 2.374 . S
O14 C9 1.250 1_655 S
O15 Tb0 2.353 1_556 S
O15 C9 1.263 . S
C16 O17 1.275 . S
C16 O18 1.246 . S
O17 Tb0 2.427 . S
O17 C16 1.275 . S
O18 Tb0 2.513 . S
O18 C16 1.246 . S
C19 O3 1.245 . S
C19 O4 1.259 . S
Tb20 O23 2.453 1_554 S
Tb20 O24 2.596 1_454 S
Tb20 O25 2.374 . S
Tb20 O33 2.343 1_455 S
Tb20 O35 2.353 1_454 S
Tb20 O37 2.427 . S
Tb20 O38 2.513 . S
C21 O25 1.251 1_655 S
C21 O27 1.263 . S
Tb22 O24 2.343 . S
Tb22 O27 2.353 1_556 S
Tb22 O30 2.427 . S
Tb22 O31 2.513 . S
Tb22 O32 2.453 1_556 S
Tb22 O33 2.596 1_556 S
Tb22 O34 2.374 . S
O23 Tb20 2.453 1_556 S
O23 C39 1.245 1_455 S
O24 Tb20 2.596 1_656 S
O24 Tb22 2.343 . S
O24 C39 1.259 . S
O25 Tb20 2.374 . S
O25 C21 1.251 1_455 S
C26 O30 1.275 . S
C26 O31 1.246 . S
O27 C21 1.263 . S
O27 Tb22 2.353 1_554 S
C28 O32 1.245 . S
C28 O33 1.259 . S
C29 O34 1.250 . S
C29 O35 1.263 . S
O30 Tb22 2.427 . S
O30 C26 1.275 . S
O31 Tb22 2.513 . S
O31 C26 1.246 . S
O32 Tb22 2.453 1_554 S
O32 C28 1.245 . S
O33 Tb20 2.343 1_655 S
O33 Tb22 2.596 1_554 S
O33 C28 1.259 . S
O34 Tb22 2.374 . S
O34 C29 1.250 . S
O35 Tb20 2.353 1_656 S
O35 C29 1.263 . S
C36 O37 1.275 . S
C36 O38 1.246 . S
O37 Tb20 2.427 . S
O37 C36 1.275 . S
O38 Tb20 2.513 . S
O38 C36 1.246 . S
C39 O23 1.245 1_655 S
C39 O24 1.259 . S
Tb40 O43 2.453 . S
Tb40 O44 2.596 . S
Tb40 O45 2.374 . S
Tb40 O53 2.343 . S
Tb40 O55 2.353 . S
Tb40 O57 2.427 . S
Tb40 O58 2.513 . S
C41 O45 1.251 . S
C41 O47 1.263 . S
Tb42 O44 2.343 1_655 S
Tb42 O47 2.353 1_655 S
Tb42 O50 2.427 . S
Tb42 O51 2.513 . S
Tb42 O52 2.453 . S
Tb42 O53 2.596 1_655 S
Tb42 O54 2.374 . S
O43 Tb40 2.453 . S
O43 C59 1.245 . S
O44 Tb40 2.596 . S
O44 Tb42 2.343 1_455 S
O44 C59 1.259 . S
O45 Tb40 2.374 . S
O45 C41 1.251 . S
C46 O50 1.275 . S
C46 O51 1.246 . S
O47 C41 1.263 . S
O47 Tb42 2.353 1_455 S
C48 O52 1.245 1_455 S
C48 O53 1.259 . S
C49 O54 1.250 1_455 S
C49 O55 1.263 . S
O50 Tb42 2.427 . S
O50 C46 1.275 . S
O51 Tb42 2.513 . S
O51 C46 1.246 . S
O52 Tb42 2.453 . S
O52 C48 1.245 1_655 S
O53 Tb40 2.343 . S
O53 Tb42 2.596 1_455 S
O53 C48 1.259 . S
O54 Tb42 2.374 . S
O54 C49 1.250 1_655 S
O55 Tb40 2.353 . S
O55 C49 1.263 . S
C56 O57 1.275 . S
C56 O58 1.246 . S
O57 Tb40 2.427 . S
O57 C56 1.275 . S
O58 Tb40 2.513 . S
O58 C56 1.246 . S
C59 O43 1.245 . S
C59 O44 1.259 . S
Tb60 O63 2.453 . S
Tb60 O64 2.596 1_455 S
Tb60 O65 2.374 . S
Tb60 O73 2.343 1_455 S
Tb60 O75 2.353 1_455 S
Tb60 O77 2.427 . S
Tb60 O78 2.513 . S
C61 O65 1.251 1_655 S
C61 O67 1.263 . S
Tb62 O64 2.343 . S
Tb62 O67 2.353 . S
Tb62 O70 2.427 . S
Tb62 O71 2.513 . S
Tb62 O72 2.453 . S
Tb62 O73 2.596 . S
Tb62 O74 2.374 . S
O63 Tb60 2.453 . S
O63 C79 1.245 1_455 S
O64 Tb60 2.596 1_655 S
O64 Tb62 2.343 . S
O64 C79 1.259 . S
O65 Tb60 2.374 . S
O65 C61 1.251 1_455 S
C66 O70 1.275 . S
C66 O71 1.246 . S
O67 C61 1.263 . S
O67 Tb62 2.353 . S
C68 O72 1.245 . S
C68 O73 1.259 . S
C69 O74 1.250 . S
C69 O75 1.263 . S
O70 Tb62 2.427 . S
O70 C66 1.275 . S
O71 Tb62 2.513 . S
O71 C66 1.246 . S
O72 Tb62 2.453 . S
O72 C68 1.245 . S
O73 Tb60 2.343 1_655 S
O73 Tb62 2.596 . S
O73 C68 1.259 . S
O74 Tb62 2.374 . S
O74 C69 1.250 . S
O75 Tb60 2.353 1_655 S
O75 C69 1.263 . S
C76 O77 1.275 . S
C76 O78 1.246 . S
O77 Tb60 2.427 . S
O77 C76 1.275 . S
O78 Tb60 2.513 . S
O78 C76 1.246 . S
C79 O63 1.245 1_655 S
C79 O64 1.259 . S
C29 C1 1.613 1_556 S
C41 C69 1.613 . S
C9 C21 1.613 1_446 S
C61 C49 1.613 1_645 S
C68 C16 1.579 . S
C28 C56 1.579 . S
C26 C59 1.579 . S
C66 C19 1.579 . S
C36 C48 1.579 . S
C76 C8 1.579 . S
C79 C6 1.579 . S
C46 C39 1.579 . S
