# Generated by pormake.
# Topology hex, (8)-cn, num edge types: 1
# Building blocks:
#     Node 0, Type 0, BuildingBlock: NUHRAL_clean_sbu_3, # of connection points: 8
#     Edge 1, Type (0, 0), BuildingBlock: EYOCIG_clean_linker_4, # of connection points: 2
#     Edge 2, Type (0, 0), BuildingBlock: EYOCIG_clean_linker_4, # of connection points: 2
#     Edge 3, Type (0, 0), BuildingBlock: EYOCIG_clean_linker_4, # of connection points: 2
#     Edge 4, Type (0, 0), BuildingBlock: EYOCIG_clean_linker_4, # of connection points: 2
# Relax obj value: 0.034
# Max RMSD: 0.093
# Mean RMSD: 0.093
data_MOF--net-hex--node1-NUHRAL_clean_sbu_3--edge1-EYOCIG_clean_linker_4
_symmetry_space_group_name_H-M    P1
_symmetry_Int_Tables_number       1
_symmetry_cell_setting            triclinic
loop_
_symmetry_equiv_pos_as_xyz
'x, y, z'
_cell_length_a     18.14411
_cell_length_b     15.278928
_cell_length_c     11.747698
_cell_angle_alpha  109.28843
_cell_angle_beta   105.38848
_cell_angle_gamma 110.3446
loop_
_atom_site_label
_atom_site_type_symbol
_atom_site_fract_x
_atom_site_fract_y
_atom_site_fract_z
_atom_type_partial_charge
C0 C 0.76204 0.81254 0.91187 0.0
C1 C 0.72857 0.72165 0.92861 0.0
C2 C 0.65724 0.69787 0.9607 0.0
C3 C 0.62028 0.76465 0.97813 0.0
C4 C 0.65293 0.85451 0.96191 0.0
C5 C 0.72397 0.87907 0.92968 0.0
O6 O 0.05739 0.92423 0.12898 0.0
Tb7 Tb 0.97833 0.84823 0.91529 0.0
O8 O 0.97217 0.70181 0.90844 0.0
O9 O 0.05361 0.08106 0.19226 0.0
Eu10 Eu 0.10739 0.12222 0.05394 0.0
O11 O 0.84371 0.75564 0.80506 0.0
C12 C 0.26052 0.13681 0.10469 0.0
O13 O 0.90345 0.9249 0.94294 0.0
O14 O 1.02473 0.03914 0.83276 0.0
O15 O 1.03138 0.88449 0.78095 0.0
C16 C 0.8308 0.83495 0.86429 0.0
C17 C 1.04443 0.28822 0.0463 0.0
O18 O 0.97377 0.21764 0.03816 0.0
C19 C 0.05428 0.00236 0.21444 0.0
C20 C 1.02805 0.9593 0.7513 0.0
O21 O 0.11281 0.27366 0.06078 0.0
C22 C 0.33004 0.15913 0.05861 0.0
C23 C 0.43874 0.11594 0.00897 0.0
C24 C 0.36764 0.09208 0.04109 0.0
C25 C 0.36407 0.24987 0.04182 0.0
C26 C 0.43543 0.27293 0.00976 0.0
C27 C 0.47192 0.20563 -0.00742 0.0
C28 C 1.04231 0.69051 0.93376 0.0
O29 O 0.11531 0.76458 0.95259 0.0
O30 O 0.24779 0.21603 0.16462 0.0
O31 O 0.18815 0.04675 0.02609 0.0
H32 H 0.75598 0.66836 0.9132 0.0
H33 H 0.56425 0.74505 0.00091 0.0
H34 H 0.74789 0.94797 0.91445 0.0
H35 H 0.3432 0.02318 0.05619 0.0
H36 H 0.33692 0.30346 0.05686 0.0
H37 H 0.52795 0.22465 0.96976 0.0
C38 C 1.04311 0.44747 0.00371 0.0
C39 C 1.04349 0.37471 0.02311 0.0
C40 C 1.04201 0.53093 0.97688 0.0
C41 C 1.04185 0.60361 0.95712 0.0
C42 C 0.56717 0.96284 0.98084 0.0
C43 C 0.60898 0.91683 0.971 0.0
C44 C 0.52375 0.0067 -0.00996 0.0
C45 C 0.48216 0.053 -8e-05 0.0
C46 C 0.51936 0.44262 -0.00929 0.0
C47 C 0.47644 0.36812 0.00134 0.0
C48 C 0.57385 0.52761 0.97898 0.0
C49 C 0.61664 0.60235 0.96865 0.0
C50 C 1.03787 0.96913 0.53576 0.0
C51 C 1.03355 0.9593 0.6318 0.0
C52 C 1.04443 -0.01351 0.42723 0.0
C53 C 0.04886 -0.00186 0.33224 0.0
loop_
_geom_bond_atom_site_label_1
_geom_bond_atom_site_label_2
_geom_bond_distance
_geom_bond_site_symmetry_2
_ccdc_geom_bond_type
C0 C1 1.387 . S
C0 C5 1.380 . S
C0 C16 1.494 . S
C1 C0 1.387 . S
C1 C2 1.386 1_556 S
C1 H32 0.930 . S
C2 C1 1.386 1_554 S
C2 C3 1.397 . S
C3 C2 1.397 . S
C3 C4 1.393 1_554 S
C3 H33 0.930 . S
C4 C3 1.393 1_556 S
C4 C5 1.395 . S
C5 C0 1.380 . S
C5 C4 1.395 . S
C5 H34 0.930 . S
O6 Tb7 2.295 1_554 S
O6 C19 1.242 1_665 S
Tb7 O6 2.295 1_556 S
Tb7 O8 2.312 . S
Tb7 O11 2.438 . S
Tb7 O13 2.472 . S
Tb7 O15 2.308 . S
Tb7 C16 2.821 . S
O8 Tb7 2.312 . S
O8 C28 1.264 1_655 S
O9 Eu10 2.308 . S
O9 C19 1.243 . S
Eu10 O9 2.308 . S
Eu10 C12 2.821 . S
Eu10 O14 2.295 1_554 S
Eu10 O21 2.312 . S
Eu10 O30 2.438 . S
Eu10 O31 2.472 . S
O11 Tb7 2.438 . S
O11 C16 1.263 . S
C12 Eu10 2.821 . S
C12 C22 1.494 . S
C12 O30 1.263 . S
C12 O31 1.264 . S
O13 Tb7 2.472 . S
O13 C16 1.264 . S
O14 Eu10 2.295 1_556 S
O14 C20 1.242 1_445 S
O15 Tb7 2.308 . S
O15 C20 1.243 . S
C16 C0 1.494 . S
C16 Tb7 2.821 . S
C16 O11 1.263 . S
C16 O13 1.264 . S
C17 O18 1.260 . S
C17 O21 1.264 1_655 S
O18 C17 1.260 . S
C19 O6 1.242 1_445 S
C19 O9 1.243 . S
C20 O14 1.242 1_665 S
C20 O15 1.243 . S
O21 Eu10 2.312 . S
O21 C17 1.264 1_455 S
C22 C12 1.494 . S
C22 C24 1.380 . S
C22 C25 1.387 . S
C23 C24 1.395 . S
C23 C27 1.393 1_554 S
C24 C22 1.380 . S
C24 C23 1.395 . S
C24 H35 0.930 . S
C25 C22 1.387 . S
C25 C26 1.386 1_554 S
C25 H36 0.930 . S
C26 C25 1.386 1_556 S
C26 C27 1.397 . S
C27 C23 1.393 1_556 S
C27 C26 1.397 . S
C27 H37 0.930 . S
C28 O8 1.264 1_455 S
C28 O29 1.260 . S
O29 C28 1.260 . S
O30 Eu10 2.438 . S
O30 C12 1.263 . S
O31 Eu10 2.472 . S
O31 C12 1.264 . S
H32 C1 0.930 . S
H33 C3 0.930 . S
H34 C5 0.930 . S
H35 C24 0.930 . S
H36 C25 0.930 . S
H37 C27 0.930 . S
C38 C39 1.170 . S
C38 C40 1.384 1_655 S
C39 C38 1.170 . S
C40 C38 1.384 1_455 S
C40 C41 1.167 1_554 S
C41 C40 1.167 1_556 S
C42 C43 1.170 . S
C42 C44 1.381 1_565 S
C43 C42 1.170 . S
C44 C42 1.381 1_545 S
C44 C45 1.170 1_556 S
C45 C44 1.170 1_554 S
C46 C47 1.170 . S
C46 C48 1.380 . S
C47 C46 1.170 . S
C48 C46 1.380 . S
C48 C49 1.170 1_556 S
C49 C48 1.170 1_554 S
C50 C51 1.171 1_655 S
C50 C52 1.380 . S
C51 C50 1.171 1_455 S
C52 C50 1.380 . S
C52 C53 1.170 . S
C53 C52 1.170 . S
C39 C17 0.534 . S
C41 C28 0.611 . S
C43 C4 2.016 . S
C45 C23 2.046 . S
C47 C26 1.847 . S
C49 C2 1.827 . S
C51 C20 1.492 1_445 S
C53 C19 1.489 1_655 S
