# Generated by pormake.
# Topology pcb, (4)-cn, num edge types: 1
# Building blocks:
#     Node 0, Type 0, BuildingBlock: CEKHIL_clean_sbu_0, # of connection points: 4
#     Node 1, Type 0, BuildingBlock: CEKHIL_clean_sbu_0, # of connection points: 4
#     Node 2, Type 0, BuildingBlock: CEKHIL_clean_sbu_0, # of connection points: 4
#     Node 3, Type 0, BuildingBlock: CEKHIL_clean_sbu_0, # of connection points: 4
#     Node 4, Type 0, BuildingBlock: CEKHIL_clean_sbu_0, # of connection points: 4
#     Node 5, Type 0, BuildingBlock: CEKHIL_clean_sbu_0, # of connection points: 4
#     Node 6, Type 0, BuildingBlock: CEKHIL_clean_sbu_0, # of connection points: 4
#     Node 7, Type 0, BuildingBlock: CEKHIL_clean_sbu_0, # of connection points: 4
#     Node 8, Type 0, BuildingBlock: CEKHIL_clean_sbu_0, # of connection points: 4
#     Node 9, Type 0, BuildingBlock: CEKHIL_clean_sbu_0, # of connection points: 4
#     Node 10, Type 0, BuildingBlock: CEKHIL_clean_sbu_0, # of connection points: 4
#     Node 11, Type 0, BuildingBlock: CEKHIL_clean_sbu_0, # of connection points: 4
#     Node 12, Type 0, BuildingBlock: CEKHIL_clean_sbu_0, # of connection points: 4
#     Node 13, Type 0, BuildingBlock: CEKHIL_clean_sbu_0, # of connection points: 4
#     Node 14, Type 0, BuildingBlock: CEKHIL_clean_sbu_0, # of connection points: 4
#     Node 15, Type 0, BuildingBlock: CEKHIL_clean_sbu_0, # of connection points: 4
#     Edge 16, Type (0, 0), None
#     Edge 17, Type (0, 0), None
#     Edge 18, Type (0, 0), None
#     Edge 19, Type (0, 0), None
#     Edge 20, Type (0, 0), None
#     Edge 21, Type (0, 0), None
#     Edge 22, Type (0, 0), None
#     Edge 23, Type (0, 0), None
#     Edge 24, Type (0, 0), None
#     Edge 25, Type (0, 0), None
#     Edge 26, Type (0, 0), None
#     Edge 27, Type (0, 0), None
#     Edge 28, Type (0, 0), None
#     Edge 29, Type (0, 0), None
#     Edge 30, Type (0, 0), None
#     Edge 31, Type (0, 0), None
#     Edge 32, Type (0, 0), None
#     Edge 33, Type (0, 0), None
#     Edge 34, Type (0, 0), None
#     Edge 35, Type (0, 0), None
#     Edge 36, Type (0, 0), None
#     Edge 37, Type (0, 0), None
#     Edge 38, Type (0, 0), None
#     Edge 39, Type (0, 0), None
#     Edge 40, Type (0, 0), None
#     Edge 41, Type (0, 0), None
#     Edge 42, Type (0, 0), None
#     Edge 43, Type (0, 0), None
#     Edge 44, Type (0, 0), None
#     Edge 45, Type (0, 0), None
#     Edge 46, Type (0, 0), None
#     Edge 47, Type (0, 0), None
# Relax obj value: 0.218
# Max RMSD: 0.088
# Mean RMSD: 0.088
data_MOF--net-pcb--node1-CEKHIL_clean_sbu_0--edge1-none
_symmetry_space_group_name_H-M    P1
_symmetry_Int_Tables_number       1
_symmetry_cell_setting            triclinic
loop_
_symmetry_equiv_pos_as_xyz
'x, y, z'
_cell_length_a     25.228902
_cell_length_b     16.259204
_cell_length_c     16.273668
_cell_angle_alpha  90.012538
_cell_angle_beta   89.99962
_cell_angle_gamma 90.002003
loop_
_atom_site_label
_atom_site_type_symbol
_atom_site_fract_x
_atom_site_fract_y
_atom_site_fract_z
_atom_type_partial_charge
Co0 Co 0.168 0.16312 0.19219 0.0
O1 O 0.24449 0.15661 0.17729 0.0
O2 O 0.20174 0.26676 0.22065 0.0
C3 C 0.16076 0.03971 0.26272 0.0
O4 O 0.09057 0.19282 0.22513 0.0
Co5 Co 0.08677 0.049 0.12494 0.0
O6 O 0.03947 0.14637 0.12618 0.0
C7 C 0.14255 0.14784 0.00937 0.0
C8 C 0.2468 0.23111 0.20582 0.0
C9 C 0.04469 0.18963 0.19011 0.0
O10 O 0.15821 0.19491 0.06931 0.0
O11 O 0.11984 0.07953 0.02145 0.0
O12 O 0.17514 0.10693 0.29963 0.0
O13 O 0.15373 0.04879 0.18468 0.0
Co14 Co 0.8755 0.18177 0.21555 0.0
O15 O 0.79905 0.1673 0.22075 0.0
O16 O 0.84314 0.26514 0.28538 0.0
C17 C 0.88371 0.16617 0.07794 0.0
O18 O 0.95454 0.22067 0.21721 0.0
Co19 Co 0.95789 0.05627 0.17255 0.0
O20 O 0.99212 0.11267 0.26748 0.0
C21 C 0.90172 0.02566 0.30764 0.0
C22 C 0.79774 0.23144 0.26828 0.0
C23 C 0.9971 0.1851 0.24293 0.0
O24 O 0.88181 0.09897 0.31061 0.0
O25 O 0.95021 0.02178 0.2893 0.0
O26 O 0.86851 0.23656 0.10782 0.0
O27 O 0.89079 0.10726 0.13062 0.0
Co28 Co 0.86541 0.83717 0.19214 0.0
O29 O 0.78892 0.84366 0.17724 0.0
O30 O 0.83168 0.73352 0.22057 0.0
C31 C 0.87267 0.96053 0.26269 0.0
O32 O 0.94284 0.80748 0.2251 0.0
Co33 Co 0.94668 0.95127 0.12497 0.0
O34 O 0.99393 0.85384 0.12613 0.0
C35 C 0.89095 0.85239 0.00933 0.0
C36 C 0.78661 0.76916 0.20577 0.0
C37 C 0.98872 0.81062 0.19007 0.0
O38 O 0.87523 0.80536 0.06925 0.0
O39 O 0.91369 0.92067 0.02142 0.0
O40 O 0.85825 0.89335 0.29961 0.0
O41 O 0.8797 0.95149 0.18464 0.0
Co42 Co 0.15792 0.8185 0.21552 0.0
O43 O 0.23437 0.83292 0.22071 0.0
O44 O 0.19027 0.73515 0.28536 0.0
C45 C 0.14969 0.83404 0.07791 0.0
O46 O 0.07887 0.77963 0.2172 0.0
Co47 Co 0.07553 0.94401 0.17246 0.0
O48 O 0.04128 0.88769 0.2674 0.0
C49 C 0.13166 0.97463 0.30764 0.0
C50 C 0.23567 0.76881 0.26825 0.0
C51 C 0.03631 0.81523 0.24289 0.0
O52 O 0.15164 0.90137 0.31056 0.0
O53 O 0.08319 0.97864 0.28919 0.0
O54 O 0.16489 0.76366 0.10779 0.0
O55 O 0.14263 0.89297 0.1306 0.0
Co56 Co 0.168 0.83713 0.80716 0.0
O57 O 0.24448 0.84365 0.82208 0.0
O58 O 0.20174 0.73349 0.7787 0.0
C59 C 0.16076 0.96054 0.73664 0.0
O60 O 0.09058 0.80741 0.77419 0.0
Co61 Co 0.08674 0.9512 0.87438 0.0
O62 O 0.03947 0.85379 0.87315 0.0
C63 C 0.14249 0.85237 0.98998 0.0
C64 C 0.2468 0.76915 0.79354 0.0
C65 C 0.04469 0.81056 0.8092 0.0
O66 O 0.15819 0.80533 0.93004 0.0
O67 O 0.11977 0.92067 0.9779 0.0
O68 O 0.17515 0.89332 0.69972 0.0
O69 O 0.15371 0.95144 0.81468 0.0
Co70 Co 0.15794 0.18174 0.78382 0.0
O71 O 0.23439 0.16732 0.77858 0.0
O72 O 0.19027 0.26509 0.71397 0.0
C73 C 0.14975 0.16618 0.92144 0.0
O74 O 0.07888 0.22061 0.78221 0.0
Co75 Co 0.07556 0.05622 0.82694 0.0
O76 O 0.04135 0.11262 0.73204 0.0
C77 C 0.13164 0.02561 0.69172 0.0
C78 C 0.23568 0.23143 0.73105 0.0
C79 C 0.03628 0.18503 0.75663 0.0
O80 O 0.15163 0.09887 0.68878 0.0
O81 O 0.08318 0.02161 0.7102 0.0
O82 O 0.16493 0.23657 0.89156 0.0
O83 O 0.14268 0.10726 0.86875 0.0
Co84 Co 0.8654 0.16308 0.80717 0.0
O85 O 0.78891 0.15658 0.82203 0.0
O86 O 0.83167 0.26673 0.77874 0.0
C87 C 0.87265 0.03966 0.7366 0.0
O88 O 0.94284 0.19278 0.77429 0.0
Co89 Co 0.94662 0.04889 0.8744 0.0
O90 O 0.99392 0.14627 0.87329 0.0
C91 C 0.89087 0.1478 0.99 0.0
C92 C 0.78661 0.23108 0.79352 0.0
C93 C 0.98868 0.1896 0.80943 0.0
O94 O 0.87519 0.19486 0.93008 0.0
O95 O 0.91357 0.07948 0.9779 0.0
O96 O 0.85828 0.10689 0.69971 0.0
O97 O 0.87967 0.04875 0.81464 0.0
Co98 Co 0.87551 0.81848 0.78378 0.0
O99 O 0.79906 0.83295 0.77862 0.0
O100 O 0.84314 0.73513 0.71394 0.0
C101 C 0.88375 0.83405 0.92139 0.0
O102 O 0.95454 0.77956 0.78207 0.0
Co103 Co 0.95793 0.94395 0.82679 0.0
O104 O 0.99214 0.88757 0.73184 0.0
C105 C 0.90177 0.97459 0.69167 0.0
C106 C 0.79774 0.76882 0.73108 0.0
C107 C 0.99711 0.81513 0.75636 0.0
O108 O 0.8818 0.90132 0.68875 0.0
O109 O 0.95024 0.97864 0.71011 0.0
O110 O 0.86854 0.76366 0.8915 0.0
O111 O 0.89083 0.89297 0.86872 0.0
Co112 Co 0.668 0.66312 0.69219 0.0
O113 O 0.74449 0.6566 0.6773 0.0
O114 O 0.70174 0.76677 0.72066 0.0
C115 C 0.66076 0.5397 0.76272 0.0
O116 O 0.59057 0.69281 0.72513 0.0
Co117 Co 0.58677 0.549 0.62494 0.0
O118 O 0.53947 0.64637 0.62618 0.0
C119 C 0.64255 0.64784 0.50937 0.0
C120 C 0.7468 0.7311 0.70585 0.0
C121 C 0.54469 0.68963 0.69011 0.0
O122 O 0.65821 0.69491 0.56932 0.0
O123 O 0.61985 0.57953 0.52145 0.0
O124 O 0.67514 0.60693 0.79963 0.0
O125 O 0.65373 0.54879 0.68468 0.0
Co126 Co 0.37549 0.68177 0.71555 0.0
O127 O 0.29905 0.6673 0.72075 0.0
O128 O 0.34314 0.76514 0.78538 0.0
C129 C 0.38371 0.66617 0.57793 0.0
O130 O 0.45454 0.72067 0.71721 0.0
Co131 Co 0.45789 0.55627 0.67255 0.0
O132 O 0.49212 0.61266 0.76748 0.0
C133 C 0.40172 0.52566 0.80764 0.0
C134 C 0.29774 0.73145 0.76827 0.0
C135 C 0.49709 0.6851 0.74293 0.0
O136 O 0.38181 0.59897 0.81061 0.0
O137 O 0.45021 0.52178 0.7893 0.0
O138 O 0.36851 0.73656 0.60782 0.0
O139 O 0.39079 0.60726 0.63062 0.0
Co140 Co 0.36541 0.33717 0.69214 0.0
O141 O 0.28892 0.34366 0.67725 0.0
O142 O 0.33168 0.23352 0.72058 0.0
C143 C 0.37267 0.46053 0.76269 0.0
O144 O 0.44284 0.30748 0.7251 0.0
Co145 Co 0.44668 0.45127 0.62496 0.0
O146 O 0.49393 0.35384 0.62612 0.0
C147 C 0.39094 0.35239 0.50933 0.0
C148 C 0.28662 0.26917 0.70579 0.0
C149 C 0.48872 0.31062 0.69007 0.0
O150 O 0.37522 0.30536 0.56925 0.0
O151 O 0.41368 0.42067 0.52143 0.0
O152 O 0.35825 0.39335 0.79961 0.0
O153 O 0.3797 0.45149 0.68464 0.0
Co154 Co 0.65792 0.31849 0.71552 0.0
O155 O 0.73437 0.33291 0.72071 0.0
O156 O 0.69026 0.23514 0.78535 0.0
C157 C 0.6497 0.33404 0.5779 0.0
O158 O 0.57887 0.27963 0.7172 0.0
Co159 Co 0.57553 0.44401 0.67246 0.0
O160 O 0.54128 0.38769 0.76739 0.0
C161 C 0.63166 0.47463 0.80764 0.0
C162 C 0.73567 0.26879 0.76823 0.0
C163 C 0.53631 0.31523 0.74289 0.0
O164 O 0.65164 0.40137 0.81056 0.0
O165 O 0.58319 0.47863 0.78918 0.0
O166 O 0.66489 0.26365 0.60778 0.0
O167 O 0.64263 0.39297 0.63059 0.0
Co168 Co 0.668 0.33713 0.30716 0.0
O169 O 0.74448 0.34365 0.32207 0.0
O170 O 0.70174 0.23349 0.27869 0.0
C171 C 0.66076 0.46054 0.23664 0.0
O172 O 0.59058 0.30742 0.27419 0.0
Co173 Co 0.58674 0.4512 0.37438 0.0
O174 O 0.53947 0.35379 0.37315 0.0
C175 C 0.6425 0.35237 0.48997 0.0
C176 C 0.74679 0.26916 0.29351 0.0
C177 C 0.54469 0.31056 0.3092 0.0
O178 O 0.65819 0.30532 0.43003 0.0
O179 O 0.61978 0.42067 0.4779 0.0
O180 O 0.67515 0.39332 0.19972 0.0
O181 O 0.65371 0.45144 0.31468 0.0
Co182 Co 0.65794 0.68174 0.28382 0.0
O183 O 0.73439 0.66732 0.27858 0.0
O184 O 0.69027 0.7651 0.21397 0.0
C185 C 0.64976 0.66618 0.42145 0.0
O186 O 0.57888 0.72061 0.28221 0.0
Co187 Co 0.57557 0.55622 0.32694 0.0
O188 O 0.54135 0.61262 0.23205 0.0
C189 C 0.63164 0.52561 0.19172 0.0
C190 C 0.73568 0.73145 0.23106 0.0
C191 C 0.53629 0.68503 0.25664 0.0
O192 O 0.65163 0.59887 0.18878 0.0
O193 O 0.58318 0.52162 0.2102 0.0
O194 O 0.66493 0.73657 0.39156 0.0
O195 O 0.64268 0.60726 0.36875 0.0
Co196 Co 0.3654 0.66308 0.30717 0.0
O197 O 0.28891 0.65658 0.32202 0.0
O198 O 0.33168 0.76673 0.27873 0.0
C199 C 0.37265 0.53966 0.2366 0.0
O200 O 0.44284 0.69278 0.27429 0.0
Co201 Co 0.44662 0.54889 0.3744 0.0
O202 O 0.49392 0.64627 0.37329 0.0
C203 C 0.39087 0.6478 0.49 0.0
C204 C 0.28661 0.73107 0.2935 0.0
C205 C 0.48868 0.68961 0.30943 0.0
O206 O 0.37519 0.69486 0.43007 0.0
O207 O 0.41356 0.57948 0.4779 0.0
O208 O 0.35828 0.60689 0.1997 0.0
O209 O 0.37967 0.54875 0.31464 0.0
Co210 Co 0.37551 0.31848 0.28378 0.0
O211 O 0.29906 0.33294 0.27862 0.0
O212 O 0.34314 0.23513 0.21394 0.0
C213 C 0.38375 0.33404 0.4214 0.0
O214 O 0.45454 0.27957 0.28207 0.0
Co215 Co 0.45793 0.44395 0.3268 0.0
O216 O 0.49214 0.38758 0.23184 0.0
C217 C 0.40177 0.47459 0.19167 0.0
C218 C 0.29774 0.26881 0.23109 0.0
C219 C 0.4971 0.31513 0.25637 0.0
O220 O 0.3818 0.40132 0.18875 0.0
O221 O 0.45024 0.47863 0.21012 0.0
O222 O 0.36854 0.26366 0.3915 0.0
O223 O 0.39082 0.39296 0.36872 0.0
loop_
_geom_bond_atom_site_label_1
_geom_bond_atom_site_label_2
_geom_bond_distance
_geom_bond_site_symmetry_2
_ccdc_geom_bond_type
Co0 O1 2.216 . S
Co0 O2 2.091 . S
Co0 O4 2.004 . S
Co0 O10 2.021 . S
Co0 O12 2.137 . S
Co0 O13 2.244 . S
O1 Co0 2.216 . S
O1 C8 1.247 . S
O2 Co0 2.091 . S
O2 C8 1.261 . S
C3 O12 1.247 . S
C3 O13 1.272 . S
O4 Co0 2.004 . S
O4 C9 1.259 . S
Co5 O6 2.061 . S
Co5 O11 2.052 . S
Co5 O13 2.135 . S
O6 Co5 2.061 . S
O6 C9 1.235 . S
C7 O10 1.238 . S
C7 O11 1.241 . S
C8 O1 1.247 . S
C8 O2 1.261 . S
C9 O4 1.259 . S
C9 O6 1.235 . S
O10 Co0 2.021 . S
O10 C7 1.238 . S
O11 Co5 2.052 . S
O11 C7 1.241 . S
O12 Co0 2.137 . S
O12 C3 1.247 . S
O13 Co0 2.244 . S
O13 C3 1.272 . S
O13 Co5 2.135 . S
Co14 O15 2.216 . S
Co14 O16 2.091 . S
Co14 O18 2.004 . S
Co14 O24 2.021 . S
Co14 O26 2.137 . S
Co14 O27 2.244 . S
O15 Co14 2.216 . S
O15 C22 1.247 . S
O16 Co14 2.091 . S
O16 C22 1.261 . S
C17 O26 1.247 . S
C17 O27 1.272 . S
O18 Co14 2.004 . S
O18 C23 1.259 . S
Co19 O20 2.061 . S
Co19 O25 2.052 . S
Co19 O27 2.135 . S
O20 Co19 2.061 . S
O20 C23 1.235 . S
C21 O24 1.238 . S
C21 O25 1.241 . S
C22 O15 1.247 . S
C22 O16 1.261 . S
C23 O18 1.259 . S
C23 O20 1.235 . S
O24 Co14 2.021 . S
O24 C21 1.238 . S
O25 Co19 2.052 . S
O25 C21 1.241 . S
O26 Co14 2.137 . S
O26 C17 1.247 . S
O27 Co14 2.244 . S
O27 C17 1.272 . S
O27 Co19 2.135 . S
Co28 O29 2.216 . S
Co28 O30 2.091 . S
Co28 O32 2.004 . S
Co28 O38 2.021 . S
Co28 O40 2.137 . S
Co28 O41 2.244 . S
O29 Co28 2.216 . S
O29 C36 1.247 . S
O30 Co28 2.091 . S
O30 C36 1.261 . S
C31 O40 1.247 . S
C31 O41 1.272 . S
O32 Co28 2.004 . S
O32 C37 1.259 . S
Co33 O34 2.061 . S
Co33 O39 2.052 . S
Co33 O41 2.135 . S
O34 Co33 2.061 . S
O34 C37 1.235 . S
C35 O38 1.238 . S
C35 O39 1.241 . S
C36 O29 1.247 . S
C36 O30 1.261 . S
C37 O32 1.259 . S
C37 O34 1.235 . S
O38 Co28 2.021 . S
O38 C35 1.238 . S
O39 Co33 2.052 . S
O39 C35 1.241 . S
O40 Co28 2.137 . S
O40 C31 1.247 . S
O41 Co28 2.244 . S
O41 C31 1.272 . S
O41 Co33 2.135 . S
Co42 O43 2.216 . S
Co42 O44 2.091 . S
Co42 O46 2.004 . S
Co42 O52 2.021 . S
Co42 O54 2.137 . S
Co42 O55 2.244 . S
O43 Co42 2.216 . S
O43 C50 1.247 . S
O44 Co42 2.091 . S
O44 C50 1.261 . S
C45 O54 1.247 . S
C45 O55 1.272 . S
O46 Co42 2.004 . S
O46 C51 1.259 . S
Co47 O48 2.061 . S
Co47 O53 2.052 . S
Co47 O55 2.135 . S
O48 Co47 2.061 . S
O48 C51 1.235 . S
C49 O52 1.238 . S
C49 O53 1.241 . S
C50 O43 1.247 . S
C50 O44 1.261 . S
C51 O46 1.259 . S
C51 O48 1.235 . S
O52 Co42 2.021 . S
O52 C49 1.238 . S
O53 Co47 2.052 . S
O53 C49 1.241 . S
O54 Co42 2.137 . S
O54 C45 1.247 . S
O55 Co42 2.244 . S
O55 C45 1.272 . S
O55 Co47 2.135 . S
Co56 O57 2.216 . S
Co56 O58 2.091 . S
Co56 O60 2.004 . S
Co56 O66 2.021 . S
Co56 O68 2.137 . S
Co56 O69 2.244 . S
O57 Co56 2.216 . S
O57 C64 1.247 . S
O58 Co56 2.091 . S
O58 C64 1.261 . S
C59 O68 1.247 . S
C59 O69 1.272 . S
O60 Co56 2.004 . S
O60 C65 1.259 . S
Co61 O62 2.061 . S
Co61 O67 2.052 . S
Co61 O69 2.135 . S
O62 Co61 2.061 . S
O62 C65 1.235 . S
C63 O66 1.238 . S
C63 O67 1.241 . S
C64 O57 1.247 . S
C64 O58 1.261 . S
C65 O60 1.259 . S
C65 O62 1.235 . S
O66 Co56 2.021 . S
O66 C63 1.238 . S
O67 Co61 2.052 . S
O67 C63 1.241 . S
O68 Co56 2.137 . S
O68 C59 1.247 . S
O69 Co56 2.244 . S
O69 C59 1.272 . S
O69 Co61 2.135 . S
Co70 O71 2.216 . S
Co70 O72 2.091 . S
Co70 O74 2.004 . S
Co70 O80 2.021 . S
Co70 O82 2.137 . S
Co70 O83 2.244 . S
O71 Co70 2.216 . S
O71 C78 1.247 . S
O72 Co70 2.091 . S
O72 C78 1.261 . S
C73 O82 1.247 . S
C73 O83 1.272 . S
O74 Co70 2.004 . S
O74 C79 1.259 . S
Co75 O76 2.061 . S
Co75 O81 2.052 . S
Co75 O83 2.135 . S
O76 Co75 2.061 . S
O76 C79 1.235 . S
C77 O80 1.238 . S
C77 O81 1.241 . S
C78 O71 1.247 . S
C78 O72 1.261 . S
C79 O74 1.259 . S
C79 O76 1.235 . S
O80 Co70 2.021 . S
O80 C77 1.238 . S
O81 Co75 2.052 . S
O81 C77 1.241 . S
O82 Co70 2.137 . S
O82 C73 1.247 . S
O83 Co70 2.244 . S
O83 C73 1.272 . S
O83 Co75 2.135 . S
Co84 O85 2.216 . S
Co84 O86 2.091 . S
Co84 O88 2.004 . S
Co84 O94 2.021 . S
Co84 O96 2.137 . S
Co84 O97 2.244 . S
O85 Co84 2.216 . S
O85 C92 1.247 . S
O86 Co84 2.091 . S
O86 C92 1.261 . S
C87 O96 1.247 . S
C87 O97 1.272 . S
O88 Co84 2.004 . S
O88 C93 1.259 . S
Co89 O90 2.061 . S
Co89 O95 2.052 . S
Co89 O97 2.135 . S
O90 Co89 2.061 . S
O90 C93 1.235 . S
C91 O94 1.238 . S
C91 O95 1.241 . S
C92 O85 1.247 . S
C92 O86 1.261 . S
C93 O88 1.259 . S
C93 O90 1.235 . S
O94 Co84 2.021 . S
O94 C91 1.238 . S
O95 Co89 2.052 . S
O95 C91 1.241 . S
O96 Co84 2.137 . S
O96 C87 1.247 . S
O97 Co84 2.244 . S
O97 C87 1.272 . S
O97 Co89 2.135 . S
Co98 O99 2.216 . S
Co98 O100 2.091 . S
Co98 O102 2.004 . S
Co98 O108 2.021 . S
Co98 O110 2.137 . S
Co98 O111 2.244 . S
O99 Co98 2.216 . S
O99 C106 1.247 . S
O100 Co98 2.091 . S
O100 C106 1.261 . S
C101 O110 1.247 . S
C101 O111 1.272 . S
O102 Co98 2.004 . S
O102 C107 1.259 . S
Co103 O104 2.061 . S
Co103 O109 2.052 . S
Co103 O111 2.135 . S
O104 Co103 2.061 . S
O104 C107 1.235 . S
C105 O108 1.238 . S
C105 O109 1.241 . S
C106 O99 1.247 . S
C106 O100 1.261 . S
C107 O102 1.259 . S
C107 O104 1.235 . S
O108 Co98 2.021 . S
O108 C105 1.238 . S
O109 Co103 2.052 . S
O109 C105 1.241 . S
O110 Co98 2.137 . S
O110 C101 1.247 . S
O111 Co98 2.244 . S
O111 C101 1.272 . S
O111 Co103 2.135 . S
Co112 O113 2.216 . S
Co112 O114 2.091 . S
Co112 O116 2.004 . S
Co112 O122 2.021 . S
Co112 O124 2.137 . S
Co112 O125 2.244 . S
O113 Co112 2.216 . S
O113 C120 1.247 . S
O114 Co112 2.091 . S
O114 C120 1.261 . S
C115 O124 1.247 . S
C115 O125 1.272 . S
O116 Co112 2.004 . S
O116 C121 1.259 . S
Co117 O118 2.061 . S
Co117 O123 2.052 . S
Co117 O125 2.135 . S
O118 Co117 2.061 . S
O118 C121 1.235 . S
C119 O122 1.238 . S
C119 O123 1.241 . S
C120 O113 1.247 . S
C120 O114 1.261 . S
C121 O116 1.259 . S
C121 O118 1.235 . S
O122 Co112 2.021 . S
O122 C119 1.238 . S
O123 Co117 2.052 . S
O123 C119 1.241 . S
O124 Co112 2.137 . S
O124 C115 1.247 . S
O125 Co112 2.244 . S
O125 C115 1.272 . S
O125 Co117 2.135 . S
Co126 O127 2.216 . S
Co126 O128 2.091 . S
Co126 O130 2.004 . S
Co126 O136 2.021 . S
Co126 O138 2.137 . S
Co126 O139 2.244 . S
O127 Co126 2.216 . S
O127 C134 1.247 . S
O128 Co126 2.091 . S
O128 C134 1.261 . S
C129 O138 1.247 . S
C129 O139 1.272 . S
O130 Co126 2.004 . S
O130 C135 1.259 . S
Co131 O132 2.061 . S
Co131 O137 2.052 . S
Co131 O139 2.135 . S
O132 Co131 2.061 . S
O132 C135 1.235 . S
C133 O136 1.238 . S
C133 O137 1.241 . S
C134 O127 1.247 . S
C134 O128 1.261 . S
C135 O130 1.259 . S
C135 O132 1.235 . S
O136 Co126 2.021 . S
O136 C133 1.238 . S
O137 Co131 2.052 . S
O137 C133 1.241 . S
O138 Co126 2.137 . S
O138 C129 1.247 . S
O139 Co126 2.244 . S
O139 C129 1.272 . S
O139 Co131 2.135 . S
Co140 O141 2.216 . S
Co140 O142 2.091 . S
Co140 O144 2.004 . S
Co140 O150 2.021 . S
Co140 O152 2.137 . S
Co140 O153 2.244 . S
O141 Co140 2.216 . S
O141 C148 1.247 . S
O142 Co140 2.091 . S
O142 C148 1.261 . S
C143 O152 1.247 . S
C143 O153 1.272 . S
O144 Co140 2.004 . S
O144 C149 1.259 . S
Co145 O146 2.061 . S
Co145 O151 2.052 . S
Co145 O153 2.135 . S
O146 Co145 2.061 . S
O146 C149 1.235 . S
C147 O150 1.238 . S
C147 O151 1.241 . S
C148 O141 1.247 . S
C148 O142 1.261 . S
C149 O144 1.259 . S
C149 O146 1.235 . S
O150 Co140 2.021 . S
O150 C147 1.238 . S
O151 Co145 2.052 . S
O151 C147 1.241 . S
O152 Co140 2.137 . S
O152 C143 1.247 . S
O153 Co140 2.244 . S
O153 C143 1.272 . S
O153 Co145 2.135 . S
Co154 O155 2.216 . S
Co154 O156 2.091 . S
Co154 O158 2.004 . S
Co154 O164 2.021 . S
Co154 O166 2.137 . S
Co154 O167 2.244 . S
O155 Co154 2.216 . S
O155 C162 1.247 . S
O156 Co154 2.091 . S
O156 C162 1.261 . S
C157 O166 1.247 . S
C157 O167 1.272 . S
O158 Co154 2.004 . S
O158 C163 1.259 . S
Co159 O160 2.061 . S
Co159 O165 2.052 . S
Co159 O167 2.135 . S
O160 Co159 2.061 . S
O160 C163 1.235 . S
C161 O164 1.238 . S
C161 O165 1.241 . S
C162 O155 1.247 . S
C162 O156 1.261 . S
C163 O158 1.259 . S
C163 O160 1.235 . S
O164 Co154 2.021 . S
O164 C161 1.238 . S
O165 Co159 2.052 . S
O165 C161 1.241 . S
O166 Co154 2.137 . S
O166 C157 1.247 . S
O167 Co154 2.244 . S
O167 C157 1.272 . S
O167 Co159 2.135 . S
Co168 O169 2.216 . S
Co168 O170 2.091 . S
Co168 O172 2.004 . S
Co168 O178 2.021 . S
Co168 O180 2.137 . S
Co168 O181 2.244 . S
O169 Co168 2.216 . S
O169 C176 1.247 . S
O170 Co168 2.091 . S
O170 C176 1.261 . S
C171 O180 1.247 . S
C171 O181 1.272 . S
O172 Co168 2.004 . S
O172 C177 1.259 . S
Co173 O174 2.061 . S
Co173 O179 2.052 . S
Co173 O181 2.135 . S
O174 Co173 2.061 . S
O174 C177 1.235 . S
C175 O178 1.238 . S
C175 O179 1.241 . S
C176 O169 1.247 . S
C176 O170 1.261 . S
C177 O172 1.259 . S
C177 O174 1.235 . S
O178 Co168 2.021 . S
O178 C175 1.238 . S
O179 Co173 2.052 . S
O179 C175 1.241 . S
O180 Co168 2.137 . S
O180 C171 1.247 . S
O181 Co168 2.244 . S
O181 C171 1.272 . S
O181 Co173 2.135 . S
Co182 O183 2.216 . S
Co182 O184 2.091 . S
Co182 O186 2.004 . S
Co182 O192 2.021 . S
Co182 O194 2.137 . S
Co182 O195 2.244 . S
O183 Co182 2.216 . S
O183 C190 1.247 . S
O184 Co182 2.091 . S
O184 C190 1.261 . S
C185 O194 1.247 . S
C185 O195 1.272 . S
O186 Co182 2.004 . S
O186 C191 1.259 . S
Co187 O188 2.061 . S
Co187 O193 2.052 . S
Co187 O195 2.135 . S
O188 Co187 2.061 . S
O188 C191 1.235 . S
C189 O192 1.238 . S
C189 O193 1.241 . S
C190 O183 1.247 . S
C190 O184 1.261 . S
C191 O186 1.259 . S
C191 O188 1.235 . S
O192 Co182 2.021 . S
O192 C189 1.238 . S
O193 Co187 2.052 . S
O193 C189 1.241 . S
O194 Co182 2.137 . S
O194 C185 1.247 . S
O195 Co182 2.244 . S
O195 C185 1.272 . S
O195 Co187 2.135 . S
Co196 O197 2.216 . S
Co196 O198 2.091 . S
Co196 O200 2.004 . S
Co196 O206 2.021 . S
Co196 O208 2.137 . S
Co196 O209 2.244 . S
O197 Co196 2.216 . S
O197 C204 1.247 . S
O198 Co196 2.091 . S
O198 C204 1.261 . S
C199 O208 1.247 . S
C199 O209 1.272 . S
O200 Co196 2.004 . S
O200 C205 1.259 . S
Co201 O202 2.061 . S
Co201 O207 2.052 . S
Co201 O209 2.135 . S
O202 Co201 2.061 . S
O202 C205 1.235 . S
C203 O206 1.238 . S
C203 O207 1.241 . S
C204 O197 1.247 . S
C204 O198 1.261 . S
C205 O200 1.259 . S
C205 O202 1.235 . S
O206 Co196 2.021 . S
O206 C203 1.238 . S
O207 Co201 2.052 . S
O207 C203 1.241 . S
O208 Co196 2.137 . S
O208 C199 1.247 . S
O209 Co196 2.244 . S
O209 C199 1.272 . S
O209 Co201 2.135 . S
Co210 O211 2.216 . S
Co210 O212 2.091 . S
Co210 O214 2.004 . S
Co210 O220 2.021 . S
Co210 O222 2.137 . S
Co210 O223 2.244 . S
O211 Co210 2.216 . S
O211 C218 1.247 . S
O212 Co210 2.091 . S
O212 C218 1.261 . S
C213 O222 1.247 . S
C213 O223 1.272 . S
O214 Co210 2.004 . S
O214 C219 1.259 . S
Co215 O216 2.061 . S
Co215 O221 2.052 . S
Co215 O223 2.135 . S
O216 Co215 2.061 . S
O216 C219 1.235 . S
C217 O220 1.238 . S
C217 O221 1.241 . S
C218 O211 1.247 . S
C218 O212 1.261 . S
C219 O214 1.259 . S
C219 O216 1.235 . S
O220 Co210 2.021 . S
O220 C217 1.238 . S
O221 Co215 2.052 . S
O221 C217 1.241 . S
O222 Co210 2.137 . S
O222 C213 1.247 . S
O223 Co210 2.244 . S
O223 C213 1.272 . S
O223 Co215 2.135 . S
C218 C8 1.725 . S
C176 C22 1.725 . S
C36 C190 1.725 . S
C204 C50 1.725 . S
C134 C64 1.725 . S
C78 C148 1.725 . S
C92 C162 1.725 . S
C106 C120 1.725 . S
C73 C7 1.687 1_556 S
C91 C17 1.687 1_556 S
C101 C35 1.687 1_556 S
C45 C63 1.687 1_554 S
C9 C23 1.227 1_455 S
C31 C21 1.687 1_565 S
C37 C51 1.227 1_655 S
C3 C49 1.687 1_545 S
C107 C65 1.227 1_655 S
C59 C77 1.687 1_565 S
C79 C93 1.227 1_455 S
C105 C87 1.687 1_565 S
C185 C119 1.687 . S
C129 C203 1.687 . S
C213 C147 1.687 . S
C175 C157 1.687 . S
C121 C135 1.227 . S
C133 C143 1.687 . S
C163 C149 1.227 . S
C115 C161 1.687 . S
C219 C177 1.227 . S
C171 C189 1.687 . S
C191 C205 1.227 . S
C217 C199 1.687 . S
