# Generated by pormake.
# Topology sma, (6)-cn, num edge types: 1
# Building blocks:
#     Node 0, Type 0, BuildingBlock: BETDEL_clean_sbu_0, # of connection points: 6
#     Node 1, Type 0, BuildingBlock: BETDEL_clean_sbu_0, # of connection points: 6
#     Node 2, Type 0, BuildingBlock: BETDEL_clean_sbu_0, # of connection points: 6
#     Edge 3, Type (0, 0), BuildingBlock: OJICUG_clean_linker_0, # of connection points: 2
#     Edge 4, Type (0, 0), BuildingBlock: OJICUG_clean_linker_0, # of connection points: 2
#     Edge 5, Type (0, 0), BuildingBlock: OJICUG_clean_linker_0, # of connection points: 2
#     Edge 6, Type (0, 0), BuildingBlock: OJICUG_clean_linker_0, # of connection points: 2
#     Edge 7, Type (0, 0), BuildingBlock: OJICUG_clean_linker_0, # of connection points: 2
#     Edge 8, Type (0, 0), BuildingBlock: OJICUG_clean_linker_0, # of connection points: 2
#     Edge 9, Type (0, 0), BuildingBlock: OJICUG_clean_linker_0, # of connection points: 2
#     Edge 10, Type (0, 0), BuildingBlock: OJICUG_clean_linker_0, # of connection points: 2
#     Edge 11, Type (0, 0), BuildingBlock: OJICUG_clean_linker_0, # of connection points: 2
# Relax obj value: 0.112
# Max RMSD: 0.196
# Mean RMSD: 0.196
data_MOF--net-sma--node1-BETDEL_clean_sbu_0--edge1-OJICUG_clean_linker_0
_symmetry_space_group_name_H-M    P1
_symmetry_Int_Tables_number       1
_symmetry_cell_setting            triclinic
loop_
_symmetry_equiv_pos_as_xyz
'x, y, z'
_cell_length_a     23.678057
_cell_length_b     23.734467
_cell_length_c     10.370453
_cell_angle_alpha  89.598098
_cell_angle_beta   90.47536
_cell_angle_gamma 119.77563
loop_
_atom_site_label
_atom_site_type_symbol
_atom_site_fract_x
_atom_site_fract_y
_atom_site_fract_z
_atom_type_partial_charge
Dy0 Dy 0.09998 0.52242 0.10238 0.0
C1 C 0.90554 0.59506 0.127 0.0
C2 C 0.18923 0.49773 -0.01128 0.0
Dy3 Dy 1.01006 0.57486 0.12794 0.0
O4 O 0.16486 0.4779 0.10272 0.0
O5 O 0.16459 0.53062 0.93685 0.0
O6 O 0.09319 0.4906 0.30657 0.0
O7 O 0.08088 0.57106 0.26069 0.0
C8 C 0.07582 0.53128 0.34823 0.0
C9 C 1.03925 0.56149 0.88495 0.0
O10 O 0.09985 0.66507 0.1884 0.0
O11 O 0.16795 0.63202 0.09941 0.0
O12 O 0.96366 0.63657 0.08871 0.0
O13 O 0.90663 0.54535 0.17707 0.0
O14 O 1.03477 0.61009 0.92574 0.0
O15 O 1.02631 0.52075 -0.02571 0.0
O16 O 1.00617 0.42784 0.12437 0.0
O17 O 0.95124 0.47598 0.21245 0.0
C18 C 0.15823 0.67832 0.14807 0.0
C19 C 0.95697 0.42416 0.19178 0.0
Dy20 Dy 0.50277 0.99873 0.42908 0.0
C21 C 0.7686 0.19268 0.45849 0.0
C22 C 0.38861 0.90913 0.31555 0.0
Dy23 Dy 0.64482 0.08781 0.4578 0.0
O24 O 0.39359 0.93499 0.42794 0.0
O25 O 0.44584 0.93269 0.26484 0.0
O26 O 0.47776 1.00517 0.63243 0.0
O27 O 0.57057 1.01734 0.58918 0.0
C28 C 0.53578 1.02234 0.67565 0.0
C29 C 0.60218 0.05853 0.214 0.0
O30 O 0.64568 0.99797 0.5192 0.0
O31 O 0.54466 0.93061 0.42786 0.0
O32 O 0.71726 0.19173 0.50396 0.0
O33 O 0.75309 0.1343 0.42412 0.0
O34 O 0.65524 0.06276 0.25656 0.0
O35 O 0.57438 0.0718 0.30203 0.0
O36 O 0.5019 0.09268 0.45097 0.0
O37 O 0.60456 0.14628 0.54274 0.0
C38 C 0.60059 0.93985 0.47811 0.0
C39 C 0.54718 0.14118 0.52042 0.0
Dy40 Dy 0.57328 0.59347 0.7643 0.0
C41 C 0.50385 0.32809 0.79142 0.0
C42 C 0.59768 0.70781 0.65121 0.0
Dy43 Dy 0.5222 0.45175 0.79234 0.0
O44 O 0.61823 0.7024 0.76453 0.0
O45 O 0.56415 0.65087 0.59954 0.0
O46 O 0.60529 0.61827 -0.03185 0.0
O47 O 0.52544 0.52562 0.92357 0.0
C48 C 0.56516 0.5603 0.0107 0.0
C49 C 0.5345 0.49466 0.54886 0.0
O50 O 0.43149 0.45065 0.85286 0.0
O51 O 0.46326 0.5513 0.76167 0.0
O52 O 0.55428 0.37907 0.83764 0.0
O53 O 0.46073 0.34389 0.7573 0.0
O54 O 0.48617 0.44164 0.59042 0.0
O55 O 0.57551 0.5223 0.63774 0.0
O56 O 0.66841 0.59443 0.78665 0.0
O57 O 0.62112 0.49225 0.87903 0.0
C58 C 0.41746 0.4954 0.81175 0.0
C59 C 0.67268 0.5496 0.85671 0.0
C60 C 0.27717 0.52876 0.82655 0.0
C61 C 0.24245 0.49072 0.93293 0.0
H62 H 0.36017 0.56013 0.70451 0.0
C63 C 0.26198 0.4495 -0.00913 0.0
H64 H 0.26299 0.56089 0.78001 0.0
C65 C 0.31691 0.44822 -0.05364 0.0
C66 C 0.3539 0.48902 0.84455 0.0
H67 H 0.23585 0.41956 0.07281 0.0
H68 H 0.33211 0.41761 -0.00405 0.0
C69 C 0.33277 0.52836 0.78344 0.0
C70 C 0.86641 0.24902 0.31414 0.0
C71 C 0.82436 0.25225 0.40545 0.0
H72 H 0.94118 0.30061 0.17305 0.0
C73 C 0.82844 0.31223 0.42854 0.0
H74 H 0.8638 0.20313 0.29325 0.0
C75 C 0.87115 0.36711 0.3582 0.0
C76 C 0.91162 0.36394 0.26297 0.0
H77 H 0.79655 0.31633 0.49753 0.0
H78 H 0.87179 0.41213 0.37842 0.0
C79 C 0.90999 0.30454 0.2439 0.0
C80 C 0.64808 0.88493 0.61076 0.0
C81 C 0.60676 0.88233 0.50997 0.0
H82 H 0.67706 0.83121 0.7354 0.0
C83 C 0.56674 0.82268 0.44877 0.0
H84 H 0.67924 0.93008 0.66033 0.0
C85 C 0.56617 0.7663 0.49085 0.0
C86 C 0.60477 0.76841 0.59623 0.0
H87 H 0.53457 0.81923 0.37055 0.0
H88 H 0.5335 0.72065 0.44432 0.0
C89 C 0.64667 0.82833 0.6542 0.0
C90 C 0.79271 0.62202 0.90572 0.0
C91 C 0.73313 0.56536 0.92937 0.0
H92 H 0.89467 0.67688 -0.0478 0.0
C93 C 0.7301 0.52376 0.03009 0.0
H94 H 0.79651 0.6556 0.83053 0.0
C95 C 0.78543 0.53661 0.10112 0.0
C96 C 0.84563 0.59119 0.07329 0.0
H97 H 0.68486 0.48043 0.05398 0.0
H98 H 0.78152 0.50208 0.17437 0.0
C99 C 0.84864 0.63466 -0.02328 0.0
C100 C 0.33141 0.81822 0.15921 0.0
C101 C 0.32839 0.85506 0.26153 0.0
H102 H 0.27968 0.73302 0.04297 0.0
C103 C 0.26802 0.83673 0.31803 0.0
H104 H 0.37744 0.83139 0.11396 0.0
C105 C 0.21191 0.78103 0.27617 0.0
C106 C 0.21542 0.74207 0.17853 0.0
H107 H 0.26444 0.86445 0.39692 0.0
H108 H 0.1664 0.76695 0.32455 0.0
C109 C 0.27551 0.7619 0.11878 0.0
C110 C 0.46254 0.23157 0.64386 0.0
C111 C 0.50763 0.27252 0.7372 0.0
H112 H 0.4396 0.15808 0.50012 0.0
C113 C 0.56334 0.26769 0.76129 0.0
H114 H 0.41941 0.23479 0.62218 0.0
C115 C 0.57554 0.22536 0.68999 0.0
C116 C 0.53215 0.18607 0.59267 0.0
H117 H 0.59916 0.29872 0.83189 0.0
H118 H 0.61978 0.22412 0.71114 0.0
C119 C 0.47454 0.18839 0.57257 0.0
C120 C 1.05087 0.49785 0.70582 0.0
C121 C 1.04814 0.55237 0.74819 0.0
H122 H 0.06186 0.44852 0.54404 0.0
C123 C 1.05367 0.59936 0.65807 0.0
H124 H 1.04651 0.46095 0.77354 0.0
C125 C 0.06192 0.59217 0.5276 0.0
C126 C 0.0654 0.53814 0.48519 0.0
H127 H 1.05157 0.64189 0.68826 0.0
H128 H 0.06619 0.62919 0.46032 0.0
C129 C 0.05964 0.49087 0.57495 0.0
C130 C 0.52696 0.04707 0.03246 0.0
C131 C 0.58428 0.04972 0.07679 0.0
H132 H 0.4667 1.03626 0.86869 0.0
C133 C 0.6259 0.04418 -0.01175 0.0
H134 H 0.4943 0.05141 0.09897 0.0
C135 C 0.61056 1.03602 0.85736 0.0
C136 C 0.55299 1.03264 0.81299 0.0
H137 H 0.67059 0.04622 0.02002 0.0
H138 H 0.64342 1.03174 0.79127 0.0
C139 C 0.51133 0.03841 0.90117 0.0
C140 C 0.49692 0.47075 0.32201 0.0
C141 C 0.54362 0.51239 0.41176 0.0
H142 H 0.46751 0.45304 0.12406 0.0
C143 C 0.59801 0.5695 0.36873 0.0
H144 H 0.45451 0.42622 0.35281 0.0
C145 C 0.60518 0.58493 0.23744 0.0
C146 C 0.55822 0.54326 0.14802 0.0
H147 H 0.63466 0.60216 0.43625 0.0
H148 H 0.64743 0.62942 0.20593 0.0
C149 C 0.5043 0.48589 0.19113 0.0
loop_
_geom_bond_atom_site_label_1
_geom_bond_atom_site_label_2
_geom_bond_distance
_geom_bond_site_symmetry_2
_ccdc_geom_bond_type
Dy0 O4 2.398 . S
Dy0 O5 2.491 . S
Dy0 O6 2.403 . S
Dy0 O7 2.664 1_455 S
Dy0 O11 2.326 . S
Dy0 O15 2.310 . S
Dy0 O16 2.351 1_455 S
C1 O12 1.185 . S
C1 O13 1.355 . S
C2 O4 1.185 . S
C2 O5 1.355 . S
Dy3 O7 2.310 . S
Dy3 O10 2.351 1_655 S
Dy3 O12 2.398 . S
Dy3 O13 2.491 . S
Dy3 O14 2.403 1_554 S
Dy3 O15 2.664 1_655 S
Dy3 O17 2.326 . S
O4 Dy0 2.398 . S
O4 C2 1.185 . S
O5 Dy0 2.491 . S
O5 C2 1.355 . S
O6 Dy0 2.403 . S
O6 C8 1.254 . S
O7 Dy0 2.664 1_655 S
O7 Dy3 2.310 . S
O7 C8 1.268 1_655 S
C8 O6 1.254 . S
C8 O7 1.268 1_455 S
C9 O14 1.258 . S
C9 O15 1.266 1_656 S
O10 Dy3 2.351 1_455 S
O10 C18 1.249 . S
O11 Dy0 2.326 . S
O11 C18 1.267 . S
O12 C1 1.185 . S
O12 Dy3 2.398 . S
O13 C1 1.355 . S
O13 Dy3 2.491 . S
O14 Dy3 2.403 1_556 S
O14 C9 1.258 . S
O15 Dy0 2.310 . S
O15 Dy3 2.664 1_455 S
O15 C9 1.266 1_454 S
O16 Dy0 2.351 1_655 S
O16 C19 1.249 . S
O17 Dy3 2.326 . S
O17 C19 1.267 . S
C18 O10 1.249 . S
C18 O11 1.267 . S
C19 O16 1.249 . S
C19 O17 1.267 . S
Dy20 O24 2.398 . S
Dy20 O25 2.491 . S
Dy20 O26 2.403 . S
Dy20 O27 2.664 1_565 S
Dy20 O31 2.326 . S
Dy20 O35 2.310 . S
Dy20 O36 2.351 1_565 S
C21 O32 1.185 . S
C21 O33 1.355 . S
C22 O24 1.185 . S
C22 O25 1.355 . S
Dy23 O27 2.310 . S
Dy23 O30 2.351 1_545 S
Dy23 O32 2.398 . S
Dy23 O33 2.491 . S
Dy23 O34 2.403 . S
Dy23 O35 2.664 1_545 S
Dy23 O37 2.326 . S
O24 Dy20 2.398 . S
O24 C22 1.185 . S
O25 Dy20 2.491 . S
O25 C22 1.355 . S
O26 Dy20 2.403 . S
O26 C28 1.256 . S
O27 Dy20 2.664 1_545 S
O27 Dy23 2.310 . S
O27 C28 1.267 1_545 S
C28 O26 1.256 . S
C28 O27 1.267 1_565 S
C29 O34 1.254 . S
C29 O35 1.268 1_545 S
O30 Dy23 2.351 1_565 S
O30 C38 1.249 . S
O31 Dy20 2.326 . S
O31 C38 1.267 . S
O32 C21 1.185 . S
O32 Dy23 2.398 . S
O33 C21 1.355 . S
O33 Dy23 2.491 . S
O34 Dy23 2.403 . S
O34 C29 1.254 . S
O35 Dy20 2.310 . S
O35 Dy23 2.664 1_565 S
O35 C29 1.268 1_565 S
O36 Dy20 2.351 1_545 S
O36 C39 1.249 . S
O37 Dy23 2.326 . S
O37 C39 1.267 . S
C38 O30 1.249 . S
C38 O31 1.267 . S
C39 O36 1.249 . S
C39 O37 1.267 . S
Dy40 O44 2.398 . S
Dy40 O45 2.491 . S
Dy40 O46 2.403 1_556 S
Dy40 O47 2.664 . S
Dy40 O51 2.326 . S
Dy40 O55 2.310 . S
Dy40 O56 2.351 . S
C41 O52 1.185 . S
C41 O53 1.355 . S
C42 O44 1.185 . S
C42 O45 1.355 . S
Dy43 O47 2.310 . S
Dy43 O50 2.351 . S
Dy43 O52 2.398 . S
Dy43 O53 2.491 . S
Dy43 O54 2.403 . S
Dy43 O55 2.664 . S
Dy43 O57 2.326 . S
O44 Dy40 2.398 . S
O44 C42 1.185 . S
O45 Dy40 2.491 . S
O45 C42 1.355 . S
O46 Dy40 2.403 1_554 S
O46 C48 1.254 . S
O47 Dy40 2.664 . S
O47 Dy43 2.310 . S
O47 C48 1.268 1_556 S
C48 O46 1.254 . S
C48 O47 1.268 1_554 S
C49 O54 1.254 . S
C49 O55 1.268 . S
O50 Dy43 2.351 . S
O50 C58 1.249 . S
O51 Dy40 2.326 . S
O51 C58 1.267 . S
O52 C41 1.185 . S
O52 Dy43 2.398 . S
O53 C41 1.355 . S
O53 Dy43 2.491 . S
O54 Dy43 2.403 . S
O54 C49 1.254 . S
O55 Dy40 2.310 . S
O55 Dy43 2.664 . S
O55 C49 1.268 . S
O56 Dy40 2.351 . S
O56 C59 1.249 . S
O57 Dy43 2.326 . S
O57 C59 1.267 . S
C58 O50 1.249 . S
C58 O51 1.267 . S
C59 O56 1.249 . S
C59 O57 1.267 . S
C60 C61 1.387 . S
C60 H64 0.950 . S
C60 C69 1.390 1_554 S
C61 C60 1.387 . S
C61 C63 1.387 . S
H62 C69 0.950 . S
C63 C61 1.387 . S
C63 C65 1.390 1_554 S
C63 H67 0.950 . S
H64 C60 0.950 . S
C65 C63 1.390 1_556 S
C65 C66 1.387 . S
C65 H68 0.950 . S
C66 C65 1.387 . S
C66 C69 1.387 . S
H67 C63 0.950 . S
H68 C65 0.950 . S
C69 C60 1.390 1_556 S
C69 H62 0.950 . S
C69 C66 1.387 . S
C70 C71 1.387 . S
C70 H74 0.950 . S
C70 C79 1.390 . S
C71 C70 1.387 . S
C71 C73 1.387 . S
H72 C79 0.950 . S
C73 C71 1.387 . S
C73 C75 1.390 . S
C73 H77 0.950 . S
H74 C70 0.950 . S
C75 C73 1.390 . S
C75 C76 1.387 . S
C75 H78 0.950 . S
C76 C75 1.387 . S
C76 C79 1.387 . S
H77 C73 0.950 . S
H78 C75 0.950 . S
C79 C70 1.390 . S
C79 H72 0.950 . S
C79 C76 1.387 . S
C80 C81 1.387 . S
C80 H84 0.950 . S
C80 C89 1.390 . S
C81 C80 1.387 . S
C81 C83 1.387 . S
H82 C89 0.950 . S
C83 C81 1.387 . S
C83 C85 1.390 . S
C83 H87 0.950 . S
H84 C80 0.950 . S
C85 C83 1.390 . S
C85 C86 1.387 . S
C85 H88 0.950 . S
C86 C85 1.387 . S
C86 C89 1.387 . S
H87 C83 0.950 . S
H88 C85 0.950 . S
C89 C80 1.390 . S
C89 H82 0.950 . S
C89 C86 1.387 . S
C90 C91 1.387 . S
C90 H94 0.950 . S
C90 C99 1.390 1_556 S
C91 C90 1.387 . S
C91 C93 1.387 . S
H92 C99 0.950 . S
C93 C91 1.387 . S
C93 C95 1.390 1_556 S
C93 H97 0.950 . S
H94 C90 0.950 . S
C95 C93 1.390 1_554 S
C95 C96 1.387 . S
C95 H98 0.950 . S
C96 C95 1.387 . S
C96 C99 1.387 . S
H97 C93 0.950 . S
H98 C95 0.950 . S
C99 C90 1.390 1_554 S
C99 H92 0.950 . S
C99 C96 1.387 . S
C100 C101 1.387 . S
C100 H104 0.950 . S
C100 C109 1.390 . S
C101 C100 1.387 . S
C101 C103 1.387 . S
H102 C109 0.950 . S
C103 C101 1.387 . S
C103 C105 1.390 . S
C103 H107 0.950 . S
H104 C100 0.950 . S
C105 C103 1.390 . S
C105 C106 1.387 . S
C105 H108 0.950 . S
C106 C105 1.387 . S
C106 C109 1.387 . S
H107 C103 0.950 . S
H108 C105 0.950 . S
C109 C100 1.390 . S
C109 H102 0.950 . S
C109 C106 1.387 . S
C110 C111 1.387 . S
C110 H114 0.950 . S
C110 C119 1.390 . S
C111 C110 1.387 . S
C111 C113 1.387 . S
H112 C119 0.950 . S
C113 C111 1.387 . S
C113 C115 1.390 . S
C113 H117 0.950 . S
H114 C110 0.950 . S
C115 C113 1.390 . S
C115 C116 1.387 . S
C115 H118 0.950 . S
C116 C115 1.387 . S
C116 C119 1.387 . S
H117 C113 0.950 . S
H118 C115 0.950 . S
C119 C110 1.390 . S
C119 H112 0.950 . S
C119 C116 1.387 . S
C120 C121 1.387 1_655 S
C120 H124 0.950 . S
C120 C129 1.390 . S
C121 C120 1.387 1_455 S
C121 C123 1.387 . S
H122 C129 0.950 . S
C123 C121 1.387 . S
C123 C125 1.390 . S
C123 H127 0.950 . S
H124 C120 0.950 . S
C125 C123 1.390 . S
C125 C126 1.387 1_455 S
C125 H128 0.950 . S
C126 C125 1.387 1_655 S
C126 C129 1.387 . S
H127 C123 0.950 . S
H128 C125 0.950 . S
C129 C120 1.390 . S
C129 H122 0.950 . S
C129 C126 1.387 . S
C130 C131 1.387 1_545 S
C130 H134 0.950 . S
C130 C139 1.390 1_554 S
C131 C130 1.387 1_565 S
C131 C133 1.387 . S
H132 C139 0.950 . S
C133 C131 1.387 . S
C133 C135 1.390 1_554 S
C133 H137 0.950 . S
H134 C130 0.950 . S
C135 C133 1.390 1_556 S
C135 C136 1.387 1_565 S
C135 H138 0.950 . S
C136 C135 1.387 1_545 S
C136 C139 1.387 . S
H137 C133 0.950 . S
H138 C135 0.950 . S
C139 C130 1.390 1_556 S
C139 H132 0.950 . S
C139 C136 1.387 . S
C140 C141 1.387 . S
C140 H144 0.950 . S
C140 C149 1.390 . S
C141 C140 1.387 . S
C141 C143 1.387 . S
H142 C149 0.950 . S
C143 C141 1.387 . S
C143 C145 1.390 . S
C143 H147 0.950 . S
H144 C140 0.950 . S
C145 C143 1.390 . S
C145 C146 1.387 . S
C145 H148 0.950 . S
C146 C145 1.387 . S
C146 C149 1.387 . S
H147 C143 0.950 . S
H148 C145 0.950 . S
C149 C140 1.390 . S
C149 H142 0.950 . S
C149 C146 1.387 . S
C61 C2 1.847 . S
C66 C58 1.761 . S
C71 C21 1.838 . S
C76 C19 1.945 . S
C81 C38 1.764 . S
C86 C42 1.849 . S
C91 C59 1.946 . S
C96 C1 1.838 . S
C101 C22 1.847 . S
C106 C18 1.764 . S
C111 C41 1.838 . S
C116 C39 1.945 . S
C121 C9 0.787 1_455 S
C126 C8 0.788 1_655 S
C131 C29 0.788 1_565 S
C136 C28 0.789 1_545 S
C141 C49 0.786 . S
C146 C48 0.786 . S
