# Generated by pormake.
# Topology pcu, (6)-cn, num edge types: 1
# Building blocks:
#     Node 0, Type 0, BuildingBlock: CUWYAW_clean_sbu_0, # of connection points: 6
#     Edge 1, Type (0, 0), BuildingBlock: EYOCIG_clean_linker_4, # of connection points: 2
#     Edge 2, Type (0, 0), BuildingBlock: EYOCIG_clean_linker_4, # of connection points: 2
#     Edge 3, Type (0, 0), BuildingBlock: EYOCIG_clean_linker_4, # of connection points: 2
# Relax obj value: 0.000
# Max RMSD: 0.000
# Mean RMSD: 0.000
data_MOF--net-pcu--node1-CUWYAW_clean_sbu_0--edge1-EYOCIG_clean_linker_4
_symmetry_space_group_name_H-M    P1
_symmetry_Int_Tables_number       1
_symmetry_cell_setting            triclinic
loop_
_symmetry_equiv_pos_as_xyz
'x, y, z'
_cell_length_a     22.350481
_cell_length_b     12.29659
_cell_length_c     11.375491
_cell_angle_alpha  90.770753
_cell_angle_beta   98.270724
_cell_angle_gamma 120.02246
loop_
_atom_site_label
_atom_site_type_symbol
_atom_site_fract_x
_atom_site_fract_y
_atom_site_fract_z
_atom_type_partial_charge
C0 C 0.23764 0.11322 0.9922 0.0
Eu1 Eu 0.10977 0.04278 0.0202 0.0
C2 C 0.28791 0.06693 1.00146 0.0
C3 C 0.3344 0.08998 0.1089 0.0
C4 C 0.38814 0.06206 0.11289 0.0
C5 C 0.39635 0.01122 0.00964 0.0
C6 C 0.34856 -0.01705 0.90374 0.0
C7 C 0.29482 0.01077 0.89951 0.0
C8 C 0.06583 0.01899 0.2326 0.0
C9 C 1.01908 0.73508 0.0097 0.0
C10 C 0.82462 0.83841 0.02788 0.0
Eu11 Eu 0.95277 0.90904 1.0015 0.0
C12 C 0.77452 0.88507 0.01833 0.0
C13 C 0.72798 0.86166 0.91086 0.0
C14 C 0.67436 0.88993 0.90655 0.0
C15 C 0.66631 0.94147 1.00953 0.0
C16 C 0.71416 0.97014 0.11543 0.0
C17 C 0.7678 0.94199 0.11996 0.0
C18 C 0.99728 0.93317 0.78937 0.0
C19 C 0.04346 0.21671 0.01301 0.0
O20 O 0.18365 0.06086 0.90506 0.0
O21 O 0.22183 0.13896 0.09123 0.0
O22 O 0.12145 0.11759 0.20978 0.0
O23 O 0.03768 0.93474 0.14572 0.0
O24 O 0.07659 0.83592 0.98964 0.0
O25 O 0.96458 0.74031 0.03371 0.0
O26 O 0.87825 0.88989 0.11569 0.0
O27 O 0.8409 0.81348 0.92902 0.0
O28 O 0.94182 0.83416 0.81205 0.0
O29 O 1.02481 0.01728 0.87623 0.0
O30 O 0.98599 0.1158 0.03304 0.0
O31 O 0.09791 0.21154 0.98859 0.0
H32 H 0.33087 0.13359 0.18895 0.0
H33 H 0.42464 0.08411 0.19556 0.0
H34 H 0.35419 0.9433 0.82323 0.0
H35 H 0.26023 -0.0077 0.81526 0.0
H36 H 0.73138 0.81748 0.83105 0.0
H37 H 0.63781 0.86757 0.82388 0.0
H38 H 0.70866 0.01033 0.19572 0.0
H39 H 0.80243 0.96078 0.20423 0.0
C40 C 0.03778 -0.0162 0.4516 0.0
C41 C 0.0495 -0.0025 0.35086 0.0
C42 C 1.02558 0.9689 0.57055 0.0
C43 C 1.01378 0.95504 0.67123 0.0
C44 C 0.50618 -0.0176 0.00986 0.0
C45 C 0.45623 -0.00431 0.01019 0.0
C46 C 0.55657 0.97062 1.00896 0.0
C47 C 0.60647 0.95717 1.00877 0.0
C48 C 1.02569 0.52744 0.01187 0.0
C49 C 1.01902 0.61868 0.01225 0.0
C50 C 0.03687 0.42439 0.01157 0.0
C51 C 0.04352 0.33312 0.01086 0.0
loop_
_geom_bond_atom_site_label_1
_geom_bond_atom_site_label_2
_geom_bond_distance
_geom_bond_site_symmetry_2
_ccdc_geom_bond_type
C0 Eu1 2.835 . S
C0 C2 1.500 . S
C0 O20 1.257 1_554 S
C0 O21 1.260 . S
Eu1 C0 2.835 . S
Eu1 O20 2.473 1_554 S
Eu1 O21 2.480 . S
Eu1 O22 2.430 . S
Eu1 O23 2.670 1_455 S
Eu1 O24 2.394 1_545 S
Eu1 O29 2.355 1_544 S
Eu1 O31 2.374 . S
C2 C0 1.500 . S
C2 C3 1.377 . S
C2 C7 1.377 1_544 S
C3 C2 1.377 . S
C3 C4 1.395 . S
C3 H32 0.931 . S
C4 C3 1.395 . S
C4 C5 1.388 . S
C4 H33 0.931 . S
C5 C4 1.388 . S
C5 C6 1.396 1_544 S
C6 C5 1.396 1_566 S
C6 C7 1.378 . S
C6 H34 0.931 . S
C7 C2 1.377 1_566 S
C7 C6 1.378 . S
C7 H35 0.931 . S
C8 O22 1.259 . S
C8 O23 1.270 1_455 S
C9 O24 1.251 1_655 S
C9 O25 1.251 1_554 S
C10 Eu11 2.835 . S
C10 C12 1.500 . S
C10 O26 1.257 1_556 S
C10 O27 1.260 . S
Eu11 C10 2.835 . S
Eu11 O23 2.355 1_566 S
Eu11 O25 2.374 . S
Eu11 O26 2.473 1_556 S
Eu11 O27 2.480 . S
Eu11 O28 2.430 . S
Eu11 O29 2.670 1_655 S
Eu11 O30 2.394 1_565 S
C12 C10 1.500 . S
C12 C13 1.377 . S
C12 C17 1.377 1_566 S
C13 C12 1.377 . S
C13 C14 1.395 . S
C13 H36 0.931 . S
C14 C13 1.395 . S
C14 C15 1.387 . S
C14 H37 0.931 . S
C15 C14 1.387 . S
C15 C16 1.396 1_566 S
C16 C15 1.396 1_544 S
C16 C17 1.378 . S
C16 H38 0.931 . S
C17 C12 1.377 1_544 S
C17 C16 1.378 . S
C17 H39 0.931 . S
C18 O28 1.259 . S
C18 O29 1.270 1_655 S
C19 O30 1.251 1_455 S
C19 O31 1.251 1_556 S
O20 C0 1.257 1_556 S
O20 Eu1 2.473 1_556 S
O21 C0 1.260 . S
O21 Eu1 2.480 . S
O22 Eu1 2.430 . S
O22 C8 1.259 . S
O23 Eu1 2.670 1_655 S
O23 C8 1.270 1_655 S
O23 Eu11 2.355 1_544 S
O24 Eu1 2.394 1_565 S
O24 C9 1.251 1_455 S
O25 C9 1.251 1_556 S
O25 Eu11 2.374 . S
O26 C10 1.257 1_554 S
O26 Eu11 2.473 1_554 S
O27 C10 1.260 . S
O27 Eu11 2.480 . S
O28 Eu11 2.430 . S
O28 C18 1.259 . S
O29 Eu1 2.355 1_566 S
O29 Eu11 2.670 1_455 S
O29 C18 1.270 1_455 S
O30 Eu11 2.394 1_545 S
O30 C19 1.251 1_655 S
O31 Eu1 2.374 . S
O31 C19 1.251 1_554 S
H32 C3 0.931 . S
H33 C4 0.931 . S
H34 C6 0.931 . S
H35 C7 0.931 . S
H36 C13 0.931 . S
H37 C14 0.931 . S
H38 C16 0.931 . S
H39 C17 0.931 . S
C40 C41 1.170 . S
C40 C42 1.380 . S
C41 C40 1.170 . S
C42 C40 1.380 . S
C42 C43 1.170 . S
C43 C42 1.170 . S
C44 C45 1.170 1_556 S
C44 C46 1.380 . S
C45 C44 1.170 1_554 S
C46 C44 1.380 . S
C46 C47 1.170 . S
C47 C46 1.170 . S
C48 C49 1.158 1_455 S
C48 C50 1.378 . S
C49 C48 1.158 1_655 S
C50 C48 1.378 . S
C50 C51 1.173 . S
C51 C50 1.173 . S
C41 C8 1.433 . S
C43 C18 1.469 1_445 S
C45 C5 1.491 . S
C47 C15 1.492 1_545 S
C49 C9 1.489 . S
C51 C19 1.494 1_554 S
