# Generated by pormake.
# Topology oof, (8)-cn, num edge types: 1
# Building blocks:
#     Node 0, Type 0, BuildingBlock: LIZSOE_clean_sbu_0, # of connection points: 8
#     Node 1, Type 0, BuildingBlock: LIZSOE_clean_sbu_0, # of connection points: 8
#     Node 2, Type 0, BuildingBlock: LIZSOE_clean_sbu_0, # of connection points: 8
#     Node 3, Type 0, BuildingBlock: LIZSOE_clean_sbu_0, # of connection points: 8
#     Edge 4, Type (0, 0), BuildingBlock: EYOCIG_clean_linker_4, # of connection points: 2
#     Edge 5, Type (0, 0), BuildingBlock: EYOCIG_clean_linker_4, # of connection points: 2
#     Edge 6, Type (0, 0), BuildingBlock: EYOCIG_clean_linker_4, # of connection points: 2
#     Edge 7, Type (0, 0), BuildingBlock: EYOCIG_clean_linker_4, # of connection points: 2
#     Edge 8, Type (0, 0), BuildingBlock: EYOCIG_clean_linker_4, # of connection points: 2
#     Edge 9, Type (0, 0), BuildingBlock: EYOCIG_clean_linker_4, # of connection points: 2
#     Edge 10, Type (0, 0), BuildingBlock: EYOCIG_clean_linker_4, # of connection points: 2
#     Edge 11, Type (0, 0), BuildingBlock: EYOCIG_clean_linker_4, # of connection points: 2
#     Edge 12, Type (0, 0), BuildingBlock: EYOCIG_clean_linker_4, # of connection points: 2
#     Edge 13, Type (0, 0), BuildingBlock: EYOCIG_clean_linker_4, # of connection points: 2
#     Edge 14, Type (0, 0), BuildingBlock: EYOCIG_clean_linker_4, # of connection points: 2
#     Edge 15, Type (0, 0), BuildingBlock: EYOCIG_clean_linker_4, # of connection points: 2
#     Edge 16, Type (0, 0), BuildingBlock: EYOCIG_clean_linker_4, # of connection points: 2
#     Edge 17, Type (0, 0), BuildingBlock: EYOCIG_clean_linker_4, # of connection points: 2
#     Edge 18, Type (0, 0), BuildingBlock: EYOCIG_clean_linker_4, # of connection points: 2
#     Edge 19, Type (0, 0), BuildingBlock: EYOCIG_clean_linker_4, # of connection points: 2
# Relax obj value: 0.111
# Max RMSD: 0.214
# Mean RMSD: 0.211
data_MOF--net-oof--node1-LIZSOE_clean_sbu_0--edge1-EYOCIG_clean_linker_4
_symmetry_space_group_name_H-M    P1
_symmetry_Int_Tables_number       1
_symmetry_cell_setting            triclinic
loop_
_symmetry_equiv_pos_as_xyz
'x, y, z'
_cell_length_a     12.388753
_cell_length_b     33.262588
_cell_length_c     19.733406
_cell_angle_alpha  90.739296
_cell_angle_beta   117.1699
_cell_angle_gamma 88.911684
loop_
_atom_site_label
_atom_site_type_symbol
_atom_site_fract_x
_atom_site_fract_y
_atom_site_fract_z
_atom_type_partial_charge
Co0 Co 0.99584 0.1708 0.09937 0.0
N1 N 0.0537 0.16242 0.02953 0.0
C2 C 1.00804 0.13331 0.97575 0.0
N3 N 0.13123 0.16756 0.94809 0.0
C4 C 0.13058 0.18266 1.0115 0.0
C5 C 0.05661 0.13612 0.92653 0.0
Co6 Co 0.99242 0.13278 0.42516 0.0
N7 N 0.9713 0.15056 0.50786 0.0
N8 N 0.99317 0.17725 0.6173 0.0
C9 C 0.87754 0.16577 0.57805 0.0
C10 C 0.86425 0.14926 0.51057 0.0
C11 C 0.04894 0.1676 0.57471 0.0
Co12 Co 0.98304 0.14851 0.25805 0.0
C13 C 0.05823 0.09904 0.42193 0.0
H14 H 0.78202 0.13641 0.46681 0.0
O15 O 0.93395 0.18142 0.16028 0.0
O16 O 0.02664 0.20225 0.31443 0.0
O17 O 0.15929 0.14316 0.2833 0.0
O18 O 0.94911 0.09514 0.19644 0.0
O19 O 0.97279 0.11793 0.09878 0.0
O20 O 0.05294 0.18322 0.42649 0.0
O21 O 0.01404 0.11301 0.35068 0.0
O22 O 0.83378 0.14946 0.35894 0.0
O23 O 0.1516 0.1641 0.17504 0.0
O24 O 0.01832 0.22259 0.10851 0.0
O25 O 0.80913 0.1539 0.23887 0.0
O26 O 0.14586 0.11611 0.48021 0.0
C27 C 0.21045 0.15296 0.24297 0.0
C28 C 0.18355 0.17152 0.60266 0.0
H29 H 0.20545 0.18169 0.55738 0.0
H30 H 0.22343 0.19313 0.6508 0.0
H31 H 0.22778 0.14174 0.62298 0.0
C32 C 0.06285 0.20927 0.38488 0.0
C33 C 0.95599 0.08951 0.13353 0.0
H34 H 0.93591 0.11322 0.96844 0.0
H35 H 0.13015 0.2461 0.03005 0.0
H36 H 0.27118 0.22616 0.03741 0.0
H37 H 0.23047 0.21777 0.11312 0.0
C38 C 0.19487 0.22027 0.05058 0.0
C39 C 0.94544 0.21781 0.13827 0.0
C40 C 0.7682 0.15509 0.2881 0.0
H41 H 0.02743 0.11961 0.87349 0.0
H42 H 0.80954 0.1676 0.59815 0.0
Co43 Co 1.01217 0.92408 0.61733 0.0
N44 N 0.06409 0.90334 0.54776 0.0
C45 C 0.02179 0.86887 0.5077 0.0
N46 N 0.10673 0.90131 0.44936 0.0
C47 C 0.12236 0.92121 0.51273 0.0
C48 C 0.04586 0.86802 0.4467 0.0
Co49 Co 0.96657 0.87925 0.91904 0.0
N50 N 0.92213 0.88964 0.99489 0.0
N51 N 0.91844 0.914 0.09954 0.0
C52 C 0.80984 0.89798 0.05568 0.0
C53 C 0.8121 0.88304 0.991 0.0
C54 C 0.98526 0.90888 0.06246 0.0
Co55 Co 0.98967 0.90952 0.76815 0.0
C56 C 0.11737 0.86061 0.91916 0.0
H57 H 0.73819 0.86807 0.94437 0.0
O58 O 0.96107 0.94756 0.67967 0.0
O59 O 0.02921 0.95989 0.83699 0.0
O60 O 0.16713 0.90496 0.79506 0.0
O61 O 0.93266 0.86064 0.69402 0.0
O62 O 0.88086 0.88867 0.58041 0.0
O63 O 0.98106 0.93237 0.91887 0.0
O64 O 0.02228 0.86863 0.85316 0.0
O65 O 0.80739 0.88435 0.84515 0.0
O66 O 0.11632 0.8825 0.68237 0.0
O67 O 0.13347 0.95762 0.66254 0.0
O68 O 0.81114 0.91501 0.74504 0.0
O69 O 0.12073 0.87542 0.98072 0.0
C70 C 0.1988 0.88967 0.74797 0.0
C71 C 0.11616 0.92171 0.09561 0.0
H72 H 0.13591 0.9369 0.05314 0.0
H73 H 0.14008 0.94295 0.14397 0.0
H74 H 0.17645 0.89485 0.11713 0.0
C75 C 1.00599 0.96283 0.89368 0.0
C76 C 0.87216 0.86036 0.62031 0.0
H77 H 0.9674 0.84698 0.51741 0.0
H78 H 0.15193 0.98406 0.54189 0.0
H79 H 0.25218 0.96238 0.50835 0.0
H80 H 0.27267 0.95102 0.60233 0.0
C81 C 0.20388 0.95678 0.54276 0.0
C82 C 0.01875 0.9633 0.64288 0.0
C83 C 0.75425 0.90085 0.78022 0.0
H84 H 1.00821 0.84721 0.39909 0.0
H85 H 0.73668 0.89558 0.07097 0.0
Co86 Co 0.49607 0.6708 0.09969 0.0
N87 N 0.55401 0.66241 0.02983 0.0
C88 C 0.5088 0.63319 0.97624 0.0
N89 N 0.63074 0.66778 0.948 0.0
C90 C 0.6302 0.68284 1.01146 0.0
C91 C 0.5569 0.63614 0.92679 0.0
Co92 Co 0.4913 0.63272 0.4251 0.0
N93 N 0.46947 0.65048 0.50757 0.0
N94 N 0.49034 0.67733 0.61667 0.0
C95 C 0.37474 0.66589 0.57712 0.0
C96 C 0.36207 0.64927 0.50985 0.0
C97 C 0.54671 0.66754 0.57448 0.0
Co98 Co 0.4829 0.64847 0.25825 0.0
C99 C 0.55729 0.59896 0.422 0.0
H100 H 0.27996 0.63644 0.46592 0.0
O101 O 0.43417 0.68142 0.16058 0.0
O102 O 0.5266 0.70218 0.31476 0.0
O103 O 0.65921 0.64306 0.28363 0.0
O104 O 0.44898 0.59513 0.19658 0.0
O105 O 0.47263 0.61795 0.09893 0.0
O106 O 0.55211 0.68316 0.42666 0.0
O107 O 0.5135 0.61297 0.3508 0.0
O108 O 0.33291 0.64941 0.35865 0.0
O109 O 0.65169 0.66395 0.17537 0.0
O110 O 0.51896 0.72257 0.10907 0.0
O111 O 0.30884 0.65391 0.23875 0.0
O112 O 0.64462 0.61603 0.48045 0.0
C113 C 0.71044 0.65278 0.2433 0.0
C114 C 0.68145 0.67138 0.60287 0.0
H115 H 0.70385 0.68158 0.55782 0.0
H116 H 0.72117 0.69292 0.65113 0.0
H117 H 0.72539 0.64156 0.62313 0.0
C118 C 0.56249 0.70919 0.38518 0.0
C119 C 0.45579 0.58953 0.13366 0.0
H120 H 0.43708 0.61296 0.96909 0.0
H121 H 0.6287 0.74627 0.02991 0.0
H122 H 0.76975 0.72667 0.03677 0.0
H123 H 0.73013 0.71806 0.11288 0.0
C124 C 0.69393 0.72057 0.05029 0.0
C125 C 0.44589 0.71781 0.1387 0.0
C126 C 0.26759 0.65506 0.28781 0.0
H127 H 0.52769 0.61959 0.87379 0.0
H128 H 0.30631 0.66784 0.59684 0.0
Co129 Co 0.51175 0.42418 0.61748 0.0
N130 N 0.56439 0.40345 0.54825 0.0
C131 C 0.52329 0.36876 0.50876 0.0
N132 N 0.6077 0.40125 0.45013 0.0
C133 C 0.62244 0.42136 0.51312 0.0
C134 C 0.54776 0.3678 0.44793 0.0
Co135 Co 0.46535 0.3794 0.91902 0.0
N136 N 0.42099 0.38986 0.9949 0.0
N137 N 0.4177 0.4141 0.09974 0.0
C138 C 0.30894 0.39819 0.05585 0.0
C139 C 0.31095 0.38333 0.99104 0.0
C140 C 0.48435 0.40901 0.06254 0.0
Co141 Co 0.48862 0.40959 0.7681 0.0
C142 C 0.61608 0.36064 0.91912 0.0
H143 H 0.2369 0.36844 0.94438 0.0
O144 O 0.46012 0.4476 0.67962 0.0
O145 O 0.52824 0.45995 0.8369 0.0
O146 O 0.66616 0.40502 0.79521 0.0
O147 O 0.43161 0.36073 0.69389 0.0
O148 O 0.38059 0.38872 0.58031 0.0
O149 O 0.48035 0.43249 0.91894 0.0
O150 O 0.52102 0.36871 0.85311 0.0
O151 O 0.30624 0.38465 0.84515 0.0
O152 O 0.61561 0.38259 0.68259 0.0
O153 O 0.63281 0.45779 0.66287 0.0
O154 O 0.31005 0.41511 0.7449 0.0
O155 O 0.61944 0.37541 0.98069 0.0
C156 C 0.698 0.38976 0.74818 0.0
C157 C 0.61532 0.42176 0.09566 0.0
H158 H 0.63513 0.43692 0.05319 0.0
H159 H 0.63937 0.44299 0.14405 0.0
H160 H 0.67546 0.39486 0.11716 0.0
C161 C 0.50536 0.46292 0.89372 0.0
C162 C 0.37151 0.36045 0.62014 0.0
H163 H 0.46949 0.34677 0.51879 0.0
H164 H 0.65074 0.48431 0.5417 0.0
H165 H 0.75147 0.46277 0.50843 0.0
H166 H 0.77202 0.45157 0.60249 0.0
C167 C 0.70321 0.45713 0.54284 0.0
C168 C 0.51789 0.4633 0.64286 0.0
C169 C 0.25313 0.40107 0.78015 0.0
H170 H 0.51092 0.34676 0.40066 0.0
H171 H 0.23585 0.39579 0.07121 0.0
C172 C 0.14908 0.1999 0.83728 0.0
C173 C 0.15173 0.18913 0.89538 0.0
C174 C 0.10223 0.19961 0.75841 0.0
C175 C 0.0504 0.18926 0.69327 0.0
C176 C 0.07086 0.93102 0.32107 0.0
C177 C 0.09341 0.92025 0.38357 0.0
C178 C 0.01443 0.93299 0.24204 0.0
C179 C 0.9649 0.92407 0.17618 0.0
C180 C 0.64608 0.70035 0.83653 0.0
C181 C 0.64981 0.6895 0.89488 0.0
C182 C 0.59864 0.69999 0.75762 0.0
C183 C 0.54696 0.68952 0.69255 0.0
C184 C 0.51422 0.43274 0.24242 0.0
C185 C 0.46444 0.42399 0.17648 0.0
C186 C 0.57089 0.43072 0.32146 0.0
C187 C 0.5937 0.42004 0.38405 0.0
C188 C 0.54437 0.1576 0.26578 0.0
C189 C 0.64097 0.15751 0.26501 0.0
C190 C 0.43752 0.15417 0.27379 0.0
C191 C 0.33906 0.15156 0.27139 0.0
C192 C 0.52389 0.90301 0.74643 0.0
C193 C 0.62456 0.90496 0.75087 0.0
C194 C 0.41464 0.8985 0.75267 0.0
C195 C 0.31971 0.89535 0.75595 0.0
C196 C 0.93732 0.6539 0.27383 0.0
C197 C 0.83903 0.65131 0.27169 0.0
C198 C 0.04383 0.65741 0.26547 0.0
C199 C 0.14032 0.65742 0.26456 0.0
C200 C 0.91373 0.39873 0.75282 0.0
C201 C 0.81888 0.39553 0.75619 0.0
C202 C 0.02285 0.40327 0.74645 0.0
C203 C 0.12346 0.4052 0.75079 0.0
C204 C 0.24558 0.3003 0.52971 0.0
C205 C 0.30475 0.32536 0.57747 0.0
C206 C 0.17819 0.27221 0.46974 0.0
C207 C 0.12422 0.246 0.42312 0.0
C208 C 0.71955 0.29325 0.98143 0.0
C209 C 0.66932 0.3206 0.93678 0.0
C210 C 0.77641 0.26585 0.04414 0.0
C211 C 0.83799 0.24219 0.09436 0.0
C212 C 0.67844 0.77205 0.47017 0.0
C213 C 0.62426 0.74585 0.42357 0.0
C214 C 0.74607 0.80016 0.53006 0.0
C215 C 0.80537 0.82525 0.57772 0.0
C216 C 0.27716 0.76584 0.04434 0.0
C217 C 0.33855 0.74219 0.09463 0.0
C218 C 0.22057 0.79322 0.98159 0.0
C219 C 0.17048 0.82057 0.9369 0.0
C220 C 0.9721 1.03217 0.04876 0.0
C221 C 0.95869 0.05113 0.09817 0.0
C222 C 0.99309 1.01669 0.98686 0.0
C223 C 1.00664 0.99901 0.93627 0.0
C224 C 0.97297 0.04268 0.48035 0.0
C225 C 0.99985 0.06584 0.44266 0.0
C226 C 0.95564 1.01824 0.53482 0.0
C227 C 0.96323 0.99453 0.58405 0.0
C228 C 0.47214 0.53222 0.04895 0.0
C229 C 0.45862 0.55115 0.09834 0.0
C230 C 0.49308 0.51677 0.98703 0.0
C231 C 0.5064 0.49911 0.93636 0.0
C232 C 0.45433 0.51814 0.53455 0.0
C233 C 0.46219 0.49444 0.58386 0.0
C234 C 0.4716 0.54259 0.48007 0.0
C235 C 0.49866 0.56575 0.44248 0.0
loop_
_geom_bond_atom_site_label_1
_geom_bond_atom_site_label_2
_geom_bond_distance
_geom_bond_site_symmetry_2
_ccdc_geom_bond_type
Co0 N1 2.034 . S
Co0 O15 2.262 1_455 S
Co0 O19 1.958 1_455 S
Co0 O23 1.950 . S
Co0 O24 2.057 1_455 S
N1 Co0 2.034 . S
N1 C2 1.366 1_554 S
N1 C4 1.332 1_554 S
C2 N1 1.366 1_556 S
C2 C5 1.377 . S
C2 H34 0.931 1_455 S
N3 C4 1.346 . S
N3 C5 1.337 . S
C4 N1 1.332 1_556 S
C4 N3 1.346 . S
C4 C38 1.361 1_556 S
C5 C2 1.377 . S
C5 N3 1.337 . S
C5 H41 0.930 . S
Co6 N7 2.034 . S
Co6 O20 1.950 1_655 S
Co6 O21 2.262 1_655 S
Co6 O22 1.958 . S
Co6 O26 2.057 1_655 S
N7 Co6 2.034 . S
N7 C10 1.366 . S
N7 C11 1.332 . S
N8 C9 1.337 . S
N8 C11 1.346 . S
C9 N8 1.337 . S
C9 C10 1.377 . S
C9 H42 0.930 . S
C10 N7 1.366 . S
C10 C9 1.377 . S
C10 H14 0.931 . S
C11 N7 1.332 . S
C11 N8 1.346 . S
C11 C28 1.361 1_655 S
Co12 O15 2.097 . S
Co12 O16 2.065 1_655 S
Co12 O17 2.065 1_655 S
Co12 O18 2.042 . S
Co12 O21 2.097 1_655 S
Co12 O25 2.042 . S
C13 O21 1.253 . S
C13 O26 1.263 . S
H14 C10 0.931 . S
O15 Co0 2.262 1_655 S
O15 Co12 2.097 . S
O15 C39 1.253 . S
O16 Co12 2.065 1_455 S
O16 C32 1.221 . S
O17 Co12 2.065 1_455 S
O17 C27 1.221 . S
O18 Co12 2.042 . S
O18 C33 1.237 . S
O19 Co0 1.958 1_655 S
O19 C33 1.278 . S
O20 Co6 1.950 1_455 S
O20 C32 1.277 . S
O21 Co6 2.262 1_455 S
O21 Co12 2.097 1_455 S
O21 C13 1.253 . S
O22 Co6 1.958 . S
O22 C40 1.278 . S
O23 Co0 1.950 . S
O23 C27 1.277 . S
O24 Co0 2.057 1_655 S
O24 C39 1.263 . S
O25 Co12 2.042 . S
O25 C40 1.237 . S
O26 Co6 2.057 1_455 S
O26 C13 1.263 . S
C27 O17 1.221 . S
C27 O23 1.277 . S
C28 C11 1.361 1_455 S
C28 H29 0.960 . S
C28 H30 0.961 . S
C28 H31 0.961 . S
H29 C28 0.960 . S
H30 C28 0.961 . S
H31 C28 0.961 . S
C32 O16 1.221 . S
C32 O20 1.277 . S
C33 O18 1.237 . S
C33 O19 1.278 . S
H34 C2 0.931 1_655 S
H35 C38 0.961 1_556 S
H36 C38 0.961 . S
H37 C38 0.960 . S
C38 C4 1.361 1_554 S
C38 H35 0.961 1_554 S
C38 H36 0.961 . S
C38 H37 0.960 . S
C39 O15 1.253 . S
C39 O24 1.263 . S
C40 O22 1.278 . S
C40 O25 1.237 . S
H41 C5 0.930 . S
H42 C9 0.930 . S
Co43 N44 2.034 . S
Co43 O58 2.262 1_455 S
Co43 O62 1.958 1_455 S
Co43 O66 1.950 . S
Co43 O67 2.057 1_455 S
N44 Co43 2.034 . S
N44 C45 1.366 . S
N44 C47 1.332 . S
C45 N44 1.366 . S
C45 C48 1.377 . S
C45 H77 0.931 1_455 S
N46 C47 1.346 . S
N46 C48 1.337 . S
C47 N44 1.332 . S
C47 N46 1.346 . S
C47 C81 1.361 . S
C48 C45 1.377 . S
C48 N46 1.337 . S
C48 H84 0.930 . S
Co49 N50 2.034 . S
Co49 O63 1.950 1_655 S
Co49 O64 2.262 1_655 S
Co49 O65 1.958 . S
Co49 O69 2.057 1_655 S
N50 Co49 2.034 . S
N50 C53 1.366 . S
N50 C54 1.332 1_556 S
N51 C52 1.337 . S
N51 C54 1.346 . S
C52 N51 1.337 . S
C52 C53 1.377 1_554 S
C52 H85 0.930 . S
C53 N50 1.366 . S
C53 C52 1.377 1_556 S
C53 H57 0.931 . S
C54 N50 1.332 1_554 S
C54 N51 1.346 . S
C54 C71 1.361 1_655 S
Co55 O58 2.097 . S
Co55 O59 2.065 1_655 S
Co55 O60 2.065 1_655 S
Co55 O61 2.042 . S
Co55 O64 2.097 1_655 S
Co55 O68 2.042 . S
C56 O64 1.253 . S
C56 O69 1.263 . S
H57 C53 0.931 . S
O58 Co43 2.262 1_655 S
O58 Co55 2.097 . S
O58 C82 1.253 . S
O59 Co55 2.065 1_455 S
O59 C75 1.221 . S
O60 Co55 2.065 1_455 S
O60 C70 1.221 . S
O61 Co55 2.042 . S
O61 C76 1.237 . S
O62 Co43 1.958 1_655 S
O62 C76 1.278 . S
O63 Co49 1.950 1_455 S
O63 C75 1.277 . S
O64 Co49 2.262 1_455 S
O64 Co55 2.097 1_455 S
O64 C56 1.253 . S
O65 Co49 1.958 . S
O65 C83 1.278 . S
O66 Co43 1.950 . S
O66 C70 1.277 . S
O67 Co43 2.057 1_655 S
O67 C82 1.263 . S
O68 Co55 2.042 . S
O68 C83 1.237 . S
O69 Co49 2.057 1_455 S
O69 C56 1.263 . S
C70 O60 1.221 . S
C70 O66 1.277 . S
C71 C54 1.361 1_455 S
C71 H72 0.960 . S
C71 H73 0.961 . S
C71 H74 0.961 . S
H72 C71 0.960 . S
H73 C71 0.961 . S
H74 C71 0.961 . S
C75 O59 1.221 . S
C75 O63 1.277 . S
C76 O61 1.237 . S
C76 O62 1.278 . S
H77 C45 0.931 1_655 S
H78 C81 0.961 . S
H79 C81 0.961 . S
H80 C81 0.960 . S
C81 C47 1.361 . S
C81 H78 0.961 . S
C81 H79 0.961 . S
C81 H80 0.960 . S
C82 O58 1.253 . S
C82 O67 1.263 . S
C83 O65 1.278 . S
C83 O68 1.237 . S
H84 C48 0.930 . S
H85 C52 0.930 . S
Co86 N87 2.034 . S
Co86 O101 2.262 . S
Co86 O105 1.958 . S
Co86 O109 1.950 . S
Co86 O110 2.057 . S
N87 Co86 2.034 . S
N87 C88 1.366 1_554 S
N87 C90 1.332 1_554 S
C88 N87 1.366 1_556 S
C88 C91 1.377 . S
C88 H120 0.931 . S
N89 C90 1.346 . S
N89 C91 1.337 . S
C90 N87 1.332 1_556 S
C90 N89 1.346 . S
C90 C124 1.361 1_556 S
C91 C88 1.377 . S
C91 N89 1.337 . S
C91 H127 0.930 . S
Co92 N93 2.034 . S
Co92 O106 1.950 . S
Co92 O107 2.262 . S
Co92 O108 1.958 . S
Co92 O112 2.057 . S
N93 Co92 2.034 . S
N93 C96 1.366 . S
N93 C97 1.332 . S
N94 C95 1.337 . S
N94 C97 1.346 . S
C95 N94 1.337 . S
C95 C96 1.377 . S
C95 H128 0.930 . S
C96 N93 1.366 . S
C96 C95 1.377 . S
C96 H100 0.931 . S
C97 N93 1.332 . S
C97 N94 1.346 . S
C97 C114 1.361 . S
Co98 O101 2.097 . S
Co98 O102 2.065 . S
Co98 O103 2.065 . S
Co98 O104 2.042 . S
Co98 O107 2.097 . S
Co98 O111 2.042 . S
C99 O107 1.253 . S
C99 O112 1.263 . S
H100 C96 0.931 . S
O101 Co86 2.262 . S
O101 Co98 2.097 . S
O101 C125 1.253 . S
O102 Co98 2.065 . S
O102 C118 1.221 . S
O103 Co98 2.065 . S
O103 C113 1.221 . S
O104 Co98 2.042 . S
O104 C119 1.237 . S
O105 Co86 1.958 . S
O105 C119 1.278 . S
O106 Co92 1.950 . S
O106 C118 1.277 . S
O107 Co92 2.262 . S
O107 Co98 2.097 . S
O107 C99 1.253 . S
O108 Co92 1.958 . S
O108 C126 1.278 . S
O109 Co86 1.950 . S
O109 C113 1.277 . S
O110 Co86 2.057 . S
O110 C125 1.263 . S
O111 Co98 2.042 . S
O111 C126 1.237 . S
O112 Co92 2.057 . S
O112 C99 1.263 . S
C113 O103 1.221 . S
C113 O109 1.277 . S
C114 C97 1.361 . S
C114 H115 0.960 . S
C114 H116 0.961 . S
C114 H117 0.961 . S
H115 C114 0.960 . S
H116 C114 0.961 . S
H117 C114 0.961 . S
C118 O102 1.221 . S
C118 O106 1.277 . S
C119 O104 1.237 . S
C119 O105 1.278 . S
H120 C88 0.931 . S
H121 C124 0.961 1_556 S
H122 C124 0.961 . S
H123 C124 0.960 . S
C124 C90 1.361 1_554 S
C124 H121 0.961 1_554 S
C124 H122 0.961 . S
C124 H123 0.960 . S
C125 O101 1.253 . S
C125 O110 1.263 . S
C126 O108 1.278 . S
C126 O111 1.237 . S
H127 C91 0.930 . S
H128 C95 0.930 . S
Co129 N130 2.034 . S
Co129 O144 2.262 . S
Co129 O148 1.958 . S
Co129 O152 1.950 . S
Co129 O153 2.057 . S
N130 Co129 2.034 . S
N130 C131 1.366 . S
N130 C133 1.332 . S
C131 N130 1.366 . S
C131 C134 1.377 . S
C131 H163 0.931 . S
N132 C133 1.346 . S
N132 C134 1.337 . S
C133 N130 1.332 . S
C133 N132 1.346 . S
C133 C167 1.361 . S
C134 C131 1.377 . S
C134 N132 1.337 . S
C134 H170 0.930 . S
Co135 N136 2.034 . S
Co135 O149 1.950 . S
Co135 O150 2.262 . S
Co135 O151 1.958 . S
Co135 O155 2.057 . S
N136 Co135 2.034 . S
N136 C139 1.366 . S
N136 C140 1.332 1_556 S
N137 C138 1.337 . S
N137 C140 1.346 . S
C138 N137 1.337 . S
C138 C139 1.377 1_554 S
C138 H171 0.930 . S
C139 N136 1.366 . S
C139 C138 1.377 1_556 S
C139 H143 0.931 . S
C140 N136 1.332 1_554 S
C140 N137 1.346 . S
C140 C157 1.361 . S
Co141 O144 2.097 . S
Co141 O145 2.065 . S
Co141 O146 2.065 . S
Co141 O147 2.042 . S
Co141 O150 2.097 . S
Co141 O154 2.042 . S
C142 O150 1.253 . S
C142 O155 1.263 . S
H143 C139 0.931 . S
O144 Co129 2.262 . S
O144 Co141 2.097 . S
O144 C168 1.253 . S
O145 Co141 2.065 . S
O145 C161 1.221 . S
O146 Co141 2.065 . S
O146 C156 1.221 . S
O147 Co141 2.042 . S
O147 C162 1.237 . S
O148 Co129 1.958 . S
O148 C162 1.278 . S
O149 Co135 1.950 . S
O149 C161 1.277 . S
O150 Co135 2.262 . S
O150 Co141 2.097 . S
O150 C142 1.253 . S
O151 Co135 1.958 . S
O151 C169 1.278 . S
O152 Co129 1.950 . S
O152 C156 1.277 . S
O153 Co129 2.057 . S
O153 C168 1.263 . S
O154 Co141 2.042 . S
O154 C169 1.237 . S
O155 Co135 2.057 . S
O155 C142 1.263 . S
C156 O146 1.221 . S
C156 O152 1.277 . S
C157 C140 1.361 . S
C157 H158 0.960 . S
C157 H159 0.961 . S
C157 H160 0.961 . S
H158 C157 0.960 . S
H159 C157 0.961 . S
H160 C157 0.961 . S
C161 O145 1.221 . S
C161 O149 1.277 . S
C162 O147 1.237 . S
C162 O148 1.278 . S
H163 C131 0.931 . S
H164 C167 0.961 . S
H165 C167 0.961 . S
H166 C167 0.960 . S
C167 C133 1.361 . S
C167 H164 0.961 . S
C167 H165 0.961 . S
C167 H166 0.960 . S
C168 O144 1.253 . S
C168 O153 1.263 . S
C169 O151 1.278 . S
C169 O154 1.237 . S
H170 C134 0.930 . S
H171 C138 0.930 . S
C172 C173 1.170 . S
C172 C174 1.380 . S
C173 C172 1.170 . S
C174 C172 1.380 . S
C174 C175 1.170 1_455 S
C175 C174 1.170 1_655 S
C176 C177 1.170 . S
C176 C178 1.380 1_455 S
C177 C176 1.170 . S
C178 C176 1.380 1_655 S
C178 C179 1.170 . S
C179 C178 1.170 . S
C180 C181 1.170 . S
C180 C182 1.380 . S
C181 C180 1.170 . S
C182 C180 1.380 . S
C182 C183 1.170 . S
C183 C182 1.170 . S
C184 C185 1.170 . S
C184 C186 1.380 . S
C185 C184 1.170 . S
C186 C184 1.380 . S
C186 C187 1.170 . S
C187 C186 1.170 . S
C188 C189 1.170 . S
C188 C190 1.380 . S
C189 C188 1.170 . S
C190 C188 1.380 . S
C190 C191 1.170 . S
C191 C190 1.170 . S
C192 C193 1.170 . S
C192 C194 1.380 . S
C193 C192 1.170 . S
C194 C192 1.380 . S
C194 C195 1.170 . S
C195 C194 1.170 . S
C196 C197 1.170 . S
C196 C198 1.380 1_655 S
C197 C196 1.170 . S
C198 C196 1.380 1_455 S
C198 C199 1.170 . S
C199 C198 1.170 . S
C200 C201 1.170 . S
C200 C202 1.380 1_655 S
C201 C200 1.170 . S
C202 C200 1.380 1_455 S
C202 C203 1.170 . S
C203 C202 1.170 . S
C204 C205 1.170 . S
C204 C206 1.380 . S
C205 C204 1.170 . S
C206 C204 1.380 . S
C206 C207 1.170 . S
C207 C206 1.170 . S
C208 C209 1.170 . S
C208 C210 1.380 1_556 S
C209 C208 1.170 . S
C210 C208 1.380 1_554 S
C210 C211 1.170 . S
C211 C210 1.170 . S
C212 C213 1.170 . S
C212 C214 1.380 . S
C213 C212 1.170 . S
C214 C212 1.380 . S
C214 C215 1.170 . S
C215 C214 1.170 . S
C216 C217 1.170 . S
C216 C218 1.380 1_554 S
C217 C216 1.170 . S
C218 C216 1.380 1_556 S
C218 C219 1.170 . S
C219 C218 1.170 . S
C220 C221 1.170 . S
C220 C222 1.380 1_644 S
C221 C220 1.170 . S
C222 C220 1.380 1_466 S
C222 C223 1.170 . S
C223 C222 1.170 . S
C224 C225 1.170 . S
C224 C226 1.380 1_445 S
C225 C224 1.170 . S
C226 C224 1.380 1_665 S
C226 C227 1.170 . S
C227 C226 1.170 . S
C228 C229 1.170 . S
C228 C230 1.380 1_554 S
C229 C228 1.170 . S
C230 C228 1.380 1_556 S
C230 C231 1.170 . S
C231 C230 1.170 . S
C232 C233 1.170 . S
C232 C234 1.380 . S
C233 C232 1.170 . S
C234 C232 1.380 . S
C234 C235 1.170 . S
C235 C234 1.170 . S
C173 N3 1.147 . S
C175 N8 1.170 . S
C177 N46 1.123 . S
C179 N51 1.210 . S
C181 N89 1.127 . S
C183 N94 1.187 . S
C185 N137 1.213 . S
C187 N132 1.116 . S
C189 C40 1.288 . S
C191 C27 1.300 . S
C193 C83 1.257 . S
C195 C70 1.288 . S
C197 C113 1.301 . S
C199 C126 1.252 . S
C201 C156 1.298 . S
C203 C169 1.252 . S
C205 C162 1.598 . S
C207 C32 1.629 . S
C209 C142 1.596 . S
C211 C39 1.636 . S
C213 C118 1.631 . S
C215 C76 1.597 . S
C217 C125 1.580 . S
C219 C56 1.640 . S
C221 C33 2.019 . S
C223 C75 2.003 . S
C225 C13 1.931 . S
C227 C82 1.958 . S
C229 C119 2.014 . S
C231 C161 1.971 . S
C233 C168 1.996 . S
C235 C99 1.910 . S
